506706
  -OEChem-10302200282D
 80 81  0     1  0  0  0  0  0999 V2000
    6.2524   -1.4897    0.0000 O   0  0  0  0  0  0  0  0  0  0  0  0
    6.9334    2.7717    0.0000 O   0  0  0  0  0  0  0  0  0  0  0  0
    5.5714    2.7717    0.0000 O   0  0  0  0  0  0  0  0  0  0  0  0
   10.3238    1.5446    0.0000 O   0  0  0  0  0  0  0  0  0  0  0  0
    2.0000    3.2671    0.0000 O   0  0  0  0  0  0  0  0  0  0  0  0
   11.6804    4.8852    0.0000 O   0  0  0  0  0  0  0  0  0  0  0  0
    6.7524    1.0491    0.0000 N   0  0  0  0  0  0  0  0  0  0  0  0
    8.9225    2.5626    0.0000 N   0  0  0  0  0  0  0  0  0  0  0  0
    4.1701    1.7536    0.0000 N   0  0  0  0  0  0  0  0  0  0  0  0
   11.4993    3.1626    0.0000 N   0  0  0  0  0  0  0  0  0  0  0  0
    5.7524    1.0491    0.0000 C   0  0  1  0  0  0  0  0  0  0  0  0
    6.2524   -0.4897    0.0000 C   0  0  2  0  0  0  0  0  0  0  0  0
    5.4434    0.0981    0.0000 C   0  0  0  0  0  0  0  0  0  0  0  0
    7.0614    0.0981    0.0000 C   0  0  0  0  0  0  0  0  0  0  0  0
    7.3402    1.8582    0.0000 C   0  0  0  0  0  0  0  0  0  0  0  0
    8.3347    1.7536    0.0000 C   0  0  2  0  0  0  0  0  0  0  0  0
    5.1646    1.8582    0.0000 C   0  0  0  0  0  0  0  0  0  0  0  0
    8.7414    0.8401    0.0000 C   0  0  0  0  0  0  0  0  0  0  0  0
    5.3864   -1.9897    0.0000 C   0  0  0  0  0  0  0  0  0  0  0  0
    9.7360    0.7356    0.0000 C   0  0  0  0  0  0  0  0  0  0  0  0
    8.1537    0.0311    0.0000 C   0  0  0  0  0  0  0  0  0  0  0  0
    3.5823    2.5626    0.0000 C   0  0  1  0  0  0  0  0  0  0  0  0
    9.9170    2.4581    0.0000 C   0  0  0  0  0  0  0  0  0  0  0  0
   10.5048    3.2671    0.0000 C   0  0  2  0  0  0  0  0  0  0  0  0
   10.0981    4.1807    0.0000 C   0  0  0  0  0  0  0  0  0  0  0  0
    5.3864   -2.9897    0.0000 C   0  0  0  0  0  0  0  0  0  0  0  0
    3.9890    3.4762    0.0000 C   0  0  0  0  0  0  0  0  0  0  0  0
    2.5878    2.4581    0.0000 C   0  0  0  0  0  0  0  0  0  0  0  0
   10.6858    4.9897    0.0000 C   0  0  0  0  0  0  0  0  0  0  0  0
    9.1035    4.2852    0.0000 C   0  0  0  0  0  0  0  0  0  0  0  0
    3.4013    4.2852    0.0000 C   0  0  0  0  0  0  0  0  0  0  0  0
    4.5204   -3.4897    0.0000 C   0  0  0  0  0  0  0  0  0  0  0  0
    6.2524   -3.4897    0.0000 C   0  0  0  0  0  0  0  0  0  0  0  0
   12.0871    3.9716    0.0000 C   0  0  0  0  0  0  0  0  0  0  0  0
    4.5204   -4.4897    0.0000 C   0  0  0  0  0  0  0  0  0  0  0  0
    6.2524   -4.4897    0.0000 C   0  0  0  0  0  0  0  0  0  0  0  0
    5.3864   -4.9897    0.0000 C   0  0  0  0  0  0  0  0  0  0  0  0
   13.0816    3.8671    0.0000 C   0  0  0  0  0  0  0  0  0  0  0  0
    6.0339    1.6016    0.0000 H   0  0  0  0  0  0  0  0  0  0  0  0
    5.7000   -0.7712    0.0000 H   0  0  0  0  0  0  0  0  0  0  0  0
    4.8770    0.3503    0.0000 H   0  0  0  0  0  0  0  0  0  0  0  0
    5.1334   -0.4388    0.0000 H   0  0  0  0  0  0  0  0  0  0  0  0
    7.3714   -0.4388    0.0000 H   0  0  0  0  0  0  0  0  0  0  0  0
    7.6278    0.3503    0.0000 H   0  0  0  0  0  0  0  0  0  0  0  0
    8.0825    2.3200    0.0000 H   0  0  0  0  0  0  0  0  0  0  0  0
    9.1059    1.3417    0.0000 H   0  0  0  0  0  0  0  0  0  0  0  0
    8.6703    3.1290    0.0000 H   0  0  0  0  0  0  0  0  0  0  0  0
    3.9179    1.1872    0.0000 H   0  0  0  0  0  0  0  0  0  0  0  0
    5.1743   -1.4071    0.0000 H   0  0  0  0  0  0  0  0  0  0  0  0
    4.7758   -2.0974    0.0000 H   0  0  0  0  0  0  0  0  0  0  0  0
    9.6712    0.1190    0.0000 H   0  0  0  0  0  0  0  0  0  0  0  0
   10.3526    0.6708    0.0000 H   0  0  0  0  0  0  0  0  0  0  0  0
    9.8008    1.3522    0.0000 H   0  0  0  0  0  0  0  0  0  0  0  0
    7.6521    0.3955    0.0000 H   0  0  0  0  0  0  0  0  0  0  0  0
    7.7892   -0.4705    0.0000 H   0  0  0  0  0  0  0  0  0  0  0  0
    8.6552   -0.3334    0.0000 H   0  0  0  0  0  0  0  0  0  0  0  0
    3.3301    1.9962    0.0000 H   0  0  0  0  0  0  0  0  0  0  0  0
   10.7570    2.7007    0.0000 H   0  0  0  0  0  0  0  0  0  0  0  0
   10.7147    4.1159    0.0000 H   0  0  0  0  0  0  0  0  0  0  0  0
    4.5030    3.1295    0.0000 H   0  0  0  0  0  0  0  0  0  0  0  0
    4.4197    3.9222    0.0000 H   0  0  0  0  0  0  0  0  0  0  0  0
   11.7515    2.5962    0.0000 H   0  0  0  0  0  0  0  0  0  0  0  0
   11.1874    4.6253    0.0000 H   0  0  0  0  0  0  0  0  0  0  0  0
   11.0503    5.4913    0.0000 H   0  0  0  0  0  0  0  0  0  0  0  0
   10.1843    5.3541    0.0000 H   0  0  0  0  0  0  0  0  0  0  0  0
    9.1684    4.9018    0.0000 H   0  0  0  0  0  0  0  0  0  0  0  0
    8.4869    4.3500    0.0000 H   0  0  0  0  0  0  0  0  0  0  0  0
    9.0387    3.6686    0.0000 H   0  0  0  0  0  0  0  0  0  0  0  0
    2.3356    1.8917    0.0000 H   0  0  0  0  0  0  0  0  0  0  0  0
    3.9028    4.6496    0.0000 H   0  0  0  0  0  0  0  0  0  0  0  0
    3.0368    4.7868    0.0000 H   0  0  0  0  0  0  0  0  0  0  0  0
    2.8997    3.9208    0.0000 H   0  0  0  0  0  0  0  0  0  0  0  0
    3.9834   -3.1797    0.0000 H   0  0  0  0  0  0  0  0  0  0  0  0
    6.7893   -3.1797    0.0000 H   0  0  0  0  0  0  0  0  0  0  0  0
    3.9834   -4.7997    0.0000 H   0  0  0  0  0  0  0  0  0  0  0  0
    6.7893   -4.7997    0.0000 H   0  0  0  0  0  0  0  0  0  0  0  0
    5.3864   -5.6097    0.0000 H   0  0  0  0  0  0  0  0  0  0  0  0
   13.0168    3.2505    0.0000 H   0  0  0  0  0  0  0  0  0  0  0  0
   13.6982    3.8023    0.0000 H   0  0  0  0  0  0  0  0  0  0  0  0
   13.1464    4.4837    0.0000 H   0  0  0  0  0  0  0  0  0  0  0  0
 12  1  1  6  0  0  0
  1 19  1  0  0  0  0
  2 15  2  0  0  0  0
  3 17  2  0  0  0  0
  4 23  2  0  0  0  0
  5 28  2  0  0  0  0
  6 34  2  0  0  0  0
  7 11  1  0  0  0  0
  7 14  1  0  0  0  0
  7 15  1  0  0  0  0
 16  8  1  1  0  0  0
  8 23  1  0  0  0  0
  8 47  1  0  0  0  0
  9 17  1  0  0  0  0
 22  9  1  6  0  0  0
  9 48  1  0  0  0  0
 24 10  1  6  0  0  0
 10 34  1  0  0  0  0
 10 62  1  0  0  0  0
 11 13  1  0  0  0  0
 11 17  1  1  0  0  0
 11 39  1  0  0  0  0
 12 13  1  0  0  0  0
 12 14  1  0  0  0  0
 12 40  1  0  0  0  0
 13 41  1  0  0  0  0
 13 42  1  0  0  0  0
 14 43  1  0  0  0  0
 14 44  1  0  0  0  0
 15 16  1  0  0  0  0
 16 18  1  0  0  0  0
 16 45  1  0  0  0  0
 18 20  1  0  0  0  0
 18 21  1  0  0  0  0
 18 46  1  0  0  0  0
 19 26  1  0  0  0  0
 19 49  1  0  0  0  0
 19 50  1  0  0  0  0
 20 51  1  0  0  0  0
 20 52  1  0  0  0  0
 20 53  1  0  0  0  0
 21 54  1  0  0  0  0
 21 55  1  0  0  0  0
 21 56  1  0  0  0  0
 22 27  1  0  0  0  0
 22 28  1  0  0  0  0
 22 57  1  0  0  0  0
 23 24  1  0  0  0  0
 24 25  1  0  0  0  0
 24 58  1  0  0  0  0
 25 29  1  0  0  0  0
 25 30  1  0  0  0  0
 25 59  1  0  0  0  0
 26 32  2  0  0  0  0
 26 33  1  0  0  0  0
 27 31  1  0  0  0  0
 27 60  1  0  0  0  0
 27 61  1  0  0  0  0
 28 69  1  0  0  0  0
 29 63  1  0  0  0  0
 29 64  1  0  0  0  0
 29 65  1  0  0  0  0
 30 66  1  0  0  0  0
 30 67  1  0  0  0  0
 30 68  1  0  0  0  0
 31 70  1  0  0  0  0
 31 71  1  0  0  0  0
 31 72  1  0  0  0  0
 32 35  1  0  0  0  0
 32 73  1  0  0  0  0
 33 36  2  0  0  0  0
 33 74  1  0  0  0  0
 34 38  1  0  0  0  0
 35 37  2  0  0  0  0
 35 75  1  0  0  0  0
 36 37  1  0  0  0  0
 36 76  1  0  0  0  0
 37 77  1  0  0  0  0
 38 78  1  0  0  0  0
 38 79  1  0  0  0  0
 38 80  1  0  0  0  0
M  END
> <PUBCHEM_COMPOUND_CID>
506706
> <PUBCHEM_COMPOUND_CANONICALIZED>
1
> <PUBCHEM_CACTVS_COMPLEXITY>
826
> <PUBCHEM_CACTVS_HBOND_ACCEPTOR>
6
> <PUBCHEM_CACTVS_HBOND_DONOR>
3
> <PUBCHEM_CACTVS_ROTATABLE_BOND>
13
> <PUBCHEM_CACTVS_SUBSKEYS>
AAADcfB7uAAAAAAAAAAAAAAAAAAAAWAAAAAwAAAAAAAAAAABAAAAHgAQAAAADTzhmAYyAIPABACIAilSkAACAAAgAAAIiIGICIgKZjKAsTiXMAAm1gGYqAe6wSAOAAAAAAAAAAAAAAAAAAAAAAAAAAAAAA==
> <PUBCHEM_IUPAC_OPENEYE_NAME>
(2S,4R)-1-[(2S)-2-[[(2S)-2-acetamido-3-methyl-butanoyl]amino]-3-methyl-butanoyl]-4-benzyloxy-N-[(1S)-1-formylpropyl]pyrrolidine-2-carboxamide
> <PUBCHEM_IUPAC_CAS_NAME>
(2S,4R)-1-[(2S)-2-[[(2S)-2-acetamido-3-methyl-1-oxobutyl]amino]-3-methyl-1-oxobutyl]-N-[(2S)-1-oxobutan-2-yl]-4-phenylmethoxy-2-pyrrolidinecarboxamide
> <PUBCHEM_IUPAC_NAME_MARKUP>
(2<I>S</I>,4<I>R</I>)-1-[(2<I>S</I>)-2-[[(2<I>S</I>)-2-acetamido-3-methylbutanoyl]amino]-3-methylbutanoyl]-<I>N</I>-[(2<I>S</I>)-1-oxobutan-2-yl]-4-phenylmethoxypyrrolidine-2-carboxamide
> <PUBCHEM_IUPAC_NAME>
(2S,4R)-1-[(2S)-2-[[(2S)-2-acetamido-3-methylbutanoyl]amino]-3-methylbutanoyl]-N-[(2S)-1-oxobutan-2-yl]-4-phenylmethoxypyrrolidine-2-carboxamide
> <PUBCHEM_IUPAC_SYSTEMATIC_NAME>
(2S,4R)-1-[(2S)-2-[[(2S)-2-acetamido-3-methyl-butanoyl]amino]-3-methyl-butanoyl]-N-[(2S)-1-oxidanylidenebutan-2-yl]-4-phenylmethoxy-pyrrolidine-2-carboxamide
> <PUBCHEM_IUPAC_TRADITIONAL_NAME>
(2S,4R)-1-[(2S)-2-[[(2S)-2-acetamido-3-methyl-butanoyl]amino]-3-methyl-butanoyl]-4-benzoxy-N-[(1S)-1-formylpropyl]pyrrolidine-2-carboxamide
> <PUBCHEM_IUPAC_INCHI>
InChI=1S/C28H42N4O6/c1-7-21(15-33)30-26(35)23-13-22(38-16-20-11-9-8-10-12-20)14-32(23)28(37)25(18(4)5)31-27(36)24(17(2)3)29-19(6)34/h8-12,15,17-18,21-25H,7,13-14,16H2,1-6H3,(H,29,34)(H,30,35)(H,31,36)/t21-,22+,23-,24-,25-/m0/s1
> <PUBCHEM_IUPAC_INCHIKEY>
BGYPMTSBWQQIKI-YCXOGWGTSA-N
> <PUBCHEM_XLOGP3_AA>
2.5
> <PUBCHEM_EXACT_MASS>
530.31043507
> <PUBCHEM_MOLECULAR_FORMULA>
C28H42N4O6
> <PUBCHEM_MOLECULAR_WEIGHT>
530.7
> <PUBCHEM_OPENEYE_CAN_SMILES>
CCC(C=O)NC(=O)C1CC(CN1C(=O)C(C(C)C)NC(=O)C(C(C)C)NC(=O)C)OCC2=CC=CC=C2
> <PUBCHEM_OPENEYE_ISO_SMILES>
CC[C@@H](C=O)NC(=O)[C@@H]1C[C@H](CN1C(=O)[C@H](C(C)C)NC(=O)[C@H](C(C)C)NC(=O)C)OCC2=CC=CC=C2
> <PUBCHEM_CACTVS_TPSA>
134
> <PUBCHEM_MONOISOTOPIC_WEIGHT>
530.31043507
> <PUBCHEM_TOTAL_CHARGE>
0
> <PUBCHEM_HEAVY_ATOM_COUNT>
38
> <PUBCHEM_ATOM_DEF_STEREO_COUNT>
5
> <PUBCHEM_ATOM_UDEF_STEREO_COUNT>
0
> <PUBCHEM_BOND_DEF_STEREO_COUNT>
0
> <PUBCHEM_BOND_UDEF_STEREO_COUNT>
0
> <PUBCHEM_ISOTOPIC_ATOM_COUNT>
0
> <PUBCHEM_COMPONENT_COUNT>
1
> <PUBCHEM_CACTVS_TAUTO_COUNT>
-1
> <PUBCHEM_COORDINATE_TYPE>
1
5
255
> <PUBCHEM_BONDANNOTATIONS>
12  1  6
24  10  6
11  17  5
26  32  8
26  33  8
32  35  8
33  36  8
35  37  8
36  37  8
16  8  5
22  9  6
$$$$
