506763
  -OEChem-10302200282D
 86 89  0     1  0  0  0  0  0999 V2000
    8.9670   -3.9712    0.0000 S   0  0  0  0  0  0  0  0  0  0  0  0
    5.5714    0.8540    0.0000 O   0  0  0  0  0  0  0  0  0  0  0  0
    9.8806    0.6221    0.0000 O   0  0  0  0  0  0  0  0  0  0  0  0
    9.7382    1.9768    0.0000 O   0  0  0  0  0  0  0  0  0  0  0  0
    9.0146   -2.8779    0.0000 O   0  0  0  0  0  0  0  0  0  0  0  0
    9.8576    5.5803    0.0000 O   0  0  0  0  0  0  0  0  0  0  0  0
   12.4787   -3.8779    0.0000 O   0  0  0  0  0  0  0  0  0  0  0  0
    8.1486    0.6221    0.0000 N   0  0  0  0  0  0  0  0  0  0  0  0
    9.8806   -1.3779    0.0000 N   0  0  0  0  0  0  0  0  0  0  0  0
    8.5792    3.2639    0.0000 N   0  0  0  0  0  0  0  0  0  0  0  0
   11.6127   -2.3779    0.0000 N   0  0  0  0  0  0  0  0  0  0  0  0
   14.2107   -2.8779    0.0000 N   0  0  0  0  0  0  0  0  0  0  0  0
   14.2107   -0.8779    0.0000 N   0  0  0  0  0  0  0  0  0  0  0  0
    8.0440    1.6166    0.0000 C   0  0  1  0  0  0  0  0  0  0  0  0
    6.5659    0.9585    0.0000 C   0  0  2  0  0  0  0  0  0  0  0  0
    7.0659    1.8246    0.0000 C   0  0  0  0  0  0  0  0  0  0  0  0
    7.2350    0.2154    0.0000 C   0  0  0  0  0  0  0  0  0  0  0  0
    9.0146    0.1221    0.0000 C   0  0  0  0  0  0  0  0  0  0  0  0
    9.0146   -0.8779    0.0000 C   0  0  2  0  0  0  0  0  0  0  0  0
    8.7872    2.2858    0.0000 C   0  0  0  0  0  0  0  0  0  0  0  0
    8.1486   -1.3779    0.0000 C   0  0  0  0  0  0  0  0  0  0  0  0
    4.9836    1.6630    0.0000 C   0  0  0  0  0  0  0  0  0  0  0  0
    7.2825   -0.8779    0.0000 C   0  0  0  0  0  0  0  0  0  0  0  0
    8.1486   -2.3779    0.0000 C   0  0  0  0  0  0  0  0  0  0  0  0
    9.3224    3.9330    0.0000 C   0  0  1  0  0  0  0  0  0  0  0  0
    9.8806   -2.3779    0.0000 C   0  0  0  0  0  0  0  0  0  0  0  0
   10.7466   -2.8779    0.0000 C   0  0  2  0  0  0  0  0  0  0  0  0
    3.9890    1.5585    0.0000 C   0  0  0  0  0  0  0  0  0  0  0  0
   10.2735    3.6240    0.0000 C   0  0  0  0  0  0  0  0  0  0  0  0
    9.1145    4.9112    0.0000 C   0  0  0  0  0  0  0  0  0  0  0  0
   10.7466   -3.8779    0.0000 C   0  0  0  0  0  0  0  0  0  0  0  0
   11.0166    4.2932    0.0000 C   0  0  0  0  0  0  0  0  0  0  0  0
    3.5823    0.6449    0.0000 C   0  0  0  0  0  0  0  0  0  0  0  0
    3.4013    2.3675    0.0000 C   0  0  0  0  0  0  0  0  0  0  0  0
    9.8806   -4.3779    0.0000 C   0  0  0  0  0  0  0  0  0  0  0  0
    2.5878    0.5404    0.0000 C   0  0  0  0  0  0  0  0  0  0  0  0
    2.4067    2.2630    0.0000 C   0  0  0  0  0  0  0  0  0  0  0  0
   12.4787   -2.8779    0.0000 C   0  0  0  0  0  0  0  0  0  0  0  0
    2.0000    1.3494    0.0000 C   0  0  0  0  0  0  0  0  0  0  0  0
    9.7761   -5.3724    0.0000 C   0  0  0  0  0  0  0  0  0  0  0  0
   13.3447   -2.3779    0.0000 C   0  0  0  0  0  0  0  0  0  0  0  0
    8.7979   -5.5803    0.0000 C   0  0  0  0  0  0  0  0  0  0  0  0
    8.2979   -4.7143    0.0000 C   0  0  0  0  0  0  0  0  0  0  0  0
   13.3447   -1.3779    0.0000 C   0  0  0  0  0  0  0  0  0  0  0  0
   15.0768   -2.3779    0.0000 C   0  0  0  0  0  0  0  0  0  0  0  0
   15.0768   -1.3779    0.0000 C   0  0  0  0  0  0  0  0  0  0  0  0
    8.6228    1.3944    0.0000 H   0  0  0  0  0  0  0  0  0  0  0  0
    6.3437    0.3797    0.0000 H   0  0  0  0  0  0  0  0  0  0  0  0
    7.2575    2.4142    0.0000 H   0  0  0  0  0  0  0  0  0  0  0  0
    6.4995    2.0767    0.0000 H   0  0  0  0  0  0  0  0  0  0  0  0
    6.7334   -0.1491    0.0000 H   0  0  0  0  0  0  0  0  0  0  0  0
    7.5450   -0.3216    0.0000 H   0  0  0  0  0  0  0  0  0  0  0  0
    9.5515   -0.5679    0.0000 H   0  0  0  0  0  0  0  0  0  0  0  0
    8.6855   -1.6879    0.0000 H   0  0  0  0  0  0  0  0  0  0  0  0
   10.4175   -1.0679    0.0000 H   0  0  0  0  0  0  0  0  0  0  0  0
    7.9896    3.4555    0.0000 H   0  0  0  0  0  0  0  0  0  0  0  0
    5.5408    1.9348    0.0000 H   0  0  0  0  0  0  0  0  0  0  0  0
    4.8127    2.2590    0.0000 H   0  0  0  0  0  0  0  0  0  0  0  0
    7.5925   -0.3410    0.0000 H   0  0  0  0  0  0  0  0  0  0  0  0
    6.7456   -0.5679    0.0000 H   0  0  0  0  0  0  0  0  0  0  0  0
    6.9725   -1.4148    0.0000 H   0  0  0  0  0  0  0  0  0  0  0  0
    7.5286   -2.3779    0.0000 H   0  0  0  0  0  0  0  0  0  0  0  0
    8.1486   -2.9979    0.0000 H   0  0  0  0  0  0  0  0  0  0  0  0
    8.7686   -2.3779    0.0000 H   0  0  0  0  0  0  0  0  0  0  0  0
    9.4513    3.3266    0.0000 H   0  0  0  0  0  0  0  0  0  0  0  0
   10.7466   -2.2579    0.0000 H   0  0  0  0  0  0  0  0  0  0  0  0
    9.9824    3.0766    0.0000 H   0  0  0  0  0  0  0  0  0  0  0  0
   10.7620    3.2423    0.0000 H   0  0  0  0  0  0  0  0  0  0  0  0
   10.9587   -4.4605    0.0000 H   0  0  0  0  0  0  0  0  0  0  0  0
   11.3572   -3.7702    0.0000 H   0  0  0  0  0  0  0  0  0  0  0  0
    8.5248    5.1028    0.0000 H   0  0  0  0  0  0  0  0  0  0  0  0
   11.4315    3.8324    0.0000 H   0  0  0  0  0  0  0  0  0  0  0  0
   11.4773    4.7080    0.0000 H   0  0  0  0  0  0  0  0  0  0  0  0
   10.6017    4.7539    0.0000 H   0  0  0  0  0  0  0  0  0  0  0  0
    3.9467    0.1433    0.0000 H   0  0  0  0  0  0  0  0  0  0  0  0
    3.6534    2.9339    0.0000 H   0  0  0  0  0  0  0  0  0  0  0  0
   11.6127   -1.7579    0.0000 H   0  0  0  0  0  0  0  0  0  0  0  0
    2.3356   -0.0260    0.0000 H   0  0  0  0  0  0  0  0  0  0  0  0
    2.0423    2.7646    0.0000 H   0  0  0  0  0  0  0  0  0  0  0  0
    1.3834    1.2846    0.0000 H   0  0  0  0  0  0  0  0  0  0  0  0
   10.2368   -5.7873    0.0000 H   0  0  0  0  0  0  0  0  0  0  0  0
    8.5458   -6.1467    0.0000 H   0  0  0  0  0  0  0  0  0  0  0  0
    7.6813   -4.6495    0.0000 H   0  0  0  0  0  0  0  0  0  0  0  0
   12.8078   -1.0679    0.0000 H   0  0  0  0  0  0  0  0  0  0  0  0
   15.6137   -2.6879    0.0000 H   0  0  0  0  0  0  0  0  0  0  0  0
   15.6137   -1.0679    0.0000 H   0  0  0  0  0  0  0  0  0  0  0  0
  1 35  1  0  0  0  0
  1 43  1  0  0  0  0
 15  2  1  6  0  0  0
  2 22  1  0  0  0  0
  3 18  2  0  0  0  0
  4 20  2  0  0  0  0
  5 26  2  0  0  0  0
  6 30  2  0  0  0  0
  7 38  2  0  0  0  0
  8 14  1  0  0  0  0
  8 17  1  0  0  0  0
  8 18  1  0  0  0  0
 19  9  1  1  0  0  0
  9 26  1  0  0  0  0
  9 55  1  0  0  0  0
 10 20  1  0  0  0  0
 25 10  1  6  0  0  0
 10 56  1  0  0  0  0
 27 11  1  1  0  0  0
 11 38  1  0  0  0  0
 11 77  1  0  0  0  0
 12 41  2  0  0  0  0
 12 45  1  0  0  0  0
 13 44  2  0  0  0  0
 13 46  1  0  0  0  0
 14 16  1  0  0  0  0
 14 20  1  1  0  0  0
 14 47  1  0  0  0  0
 15 16  1  0  0  0  0
 15 17  1  0  0  0  0
 15 48  1  0  0  0  0
 16 49  1  0  0  0  0
 16 50  1  0  0  0  0
 17 51  1  0  0  0  0
 17 52  1  0  0  0  0
 18 19  1  0  0  0  0
 19 21  1  0  0  0  0
 19 53  1  0  0  0  0
 21 23  1  0  0  0  0
 21 24  1  0  0  0  0
 21 54  1  0  0  0  0
 22 28  1  0  0  0  0
 22 57  1  0  0  0  0
 22 58  1  0  0  0  0
 23 59  1  0  0  0  0
 23 60  1  0  0  0  0
 23 61  1  0  0  0  0
 24 62  1  0  0  0  0
 24 63  1  0  0  0  0
 24 64  1  0  0  0  0
 25 29  1  0  0  0  0
 25 30  1  0  0  0  0
 25 65  1  0  0  0  0
 26 27  1  0  0  0  0
 27 31  1  0  0  0  0
 27 66  1  0  0  0  0
 28 33  2  0  0  0  0
 28 34  1  0  0  0  0
 29 32  1  0  0  0  0
 29 67  1  0  0  0  0
 29 68  1  0  0  0  0
 30 71  1  0  0  0  0
 31 35  1  0  0  0  0
 31 69  1  0  0  0  0
 31 70  1  0  0  0  0
 32 72  1  0  0  0  0
 32 73  1  0  0  0  0
 32 74  1  0  0  0  0
 33 36  1  0  0  0  0
 33 75  1  0  0  0  0
 34 37  2  0  0  0  0
 34 76  1  0  0  0  0
 35 40  2  0  0  0  0
 36 39  2  0  0  0  0
 36 78  1  0  0  0  0
 37 39  1  0  0  0  0
 37 79  1  0  0  0  0
 38 41  1  0  0  0  0
 39 80  1  0  0  0  0
 40 42  1  0  0  0  0
 40 81  1  0  0  0  0
 41 44  1  0  0  0  0
 42 43  2  0  0  0  0
 42 82  1  0  0  0  0
 43 83  1  0  0  0  0
 44 84  1  0  0  0  0
 45 46  2  0  0  0  0
 45 85  1  0  0  0  0
 46 86  1  0  0  0  0
M  END
> <PUBCHEM_COMPOUND_CID>
506763
> <PUBCHEM_COMPOUND_CANONICALIZED>
1
> <PUBCHEM_CACTVS_COMPLEXITY>
1040
> <PUBCHEM_CACTVS_HBOND_ACCEPTOR>
9
> <PUBCHEM_CACTVS_HBOND_DONOR>
3
> <PUBCHEM_CACTVS_ROTATABLE_BOND>
15
> <PUBCHEM_CACTVS_SUBSKEYS>
AAADcfB/uABAAAAAAAAAAAAAAAAAAWJAAAA8QAAAAAAAAAAB8AAAHgQQAAAADTzl3ga+gZPIFAisAz131ACDgKQ3GjBI2Jm4fMgKZnrg8TmXMIgm1gH4qMe6ySCOAAAAAAAAAAAAAAAAAAAAAAAAAAAAAA==
> <PUBCHEM_IUPAC_OPENEYE_NAME>
N-[(1S)-2-[[(1S)-1-[(2S,4R)-4-benzyloxy-2-[[(1S)-1-formylpropyl]carbamoyl]pyrrolidine-1-carbonyl]-2-methyl-propyl]amino]-2-oxo-1-(2-thienylmethyl)ethyl]pyrazine-2-carboxamide
> <PUBCHEM_IUPAC_CAS_NAME>
N-[(2S)-1-[[(2S)-3-methyl-1-oxo-1-[(2S,4R)-2-[oxo-[[(2S)-1-oxobutan-2-yl]amino]methyl]-4-phenylmethoxy-1-pyrrolidinyl]butan-2-yl]amino]-1-oxo-3-thiophen-2-ylpropan-2-yl]-2-pyrazinecarboxamide
> <PUBCHEM_IUPAC_NAME_MARKUP>
<I>N</I>-[(2<I>S</I>)-1-[[(2<I>S</I>)-3-methyl-1-oxo-1-[(2<I>S</I>,4<I>R</I>)-2-[[(2<I>S</I>)-1-oxobutan-2-yl]carbamoyl]-4-phenylmethoxypyrrolidin-1-yl]butan-2-yl]amino]-1-oxo-3-thiophen-2-ylpropan-2-yl]pyrazine-2-carboxamide
> <PUBCHEM_IUPAC_NAME>
N-[(2S)-1-[[(2S)-3-methyl-1-oxo-1-[(2S,4R)-2-[[(2S)-1-oxobutan-2-yl]carbamoyl]-4-phenylmethoxypyrrolidin-1-yl]butan-2-yl]amino]-1-oxo-3-thiophen-2-ylpropan-2-yl]pyrazine-2-carboxamide
> <PUBCHEM_IUPAC_SYSTEMATIC_NAME>
N-[(2S)-1-[[(2S)-3-methyl-1-oxidanylidene-1-[(2S,4R)-2-[[(2S)-1-oxidanylidenebutan-2-yl]carbamoyl]-4-phenylmethoxy-pyrrolidin-1-yl]butan-2-yl]amino]-1-oxidanylidene-3-thiophen-2-yl-propan-2-yl]pyrazine-2-carboxamide
> <PUBCHEM_IUPAC_TRADITIONAL_NAME>
N-[(1S)-2-[[(1S)-1-[(2S,4R)-4-benzoxy-2-[[(1S)-1-formylpropyl]carbamoyl]pyrrolidine-1-carbonyl]-2-methyl-propyl]amino]-2-keto-1-(2-thenyl)ethyl]pyrazinamide
> <PUBCHEM_IUPAC_INCHI>
InChI=1S/C33H40N6O6S/c1-4-23(19-40)36-32(43)28-15-24(45-20-22-9-6-5-7-10-22)18-39(28)33(44)29(21(2)3)38-30(41)26(16-25-11-8-14-46-25)37-31(42)27-17-34-12-13-35-27/h5-14,17,19,21,23-24,26,28-29H,4,15-16,18,20H2,1-3H3,(H,36,43)(H,37,42)(H,38,41)/t23-,24+,26-,28-,29-/m0/s1
> <PUBCHEM_IUPAC_INCHIKEY>
MUNVDCJBFZLKDV-CNOAYUONSA-N
> <PUBCHEM_XLOGP3_AA>
2.7
> <PUBCHEM_EXACT_MASS>
648.27300419
> <PUBCHEM_MOLECULAR_FORMULA>
C33H40N6O6S
> <PUBCHEM_MOLECULAR_WEIGHT>
648.8
> <PUBCHEM_OPENEYE_CAN_SMILES>
CCC(C=O)NC(=O)C1CC(CN1C(=O)C(C(C)C)NC(=O)C(CC2=CC=CS2)NC(=O)C3=NC=CN=C3)OCC4=CC=CC=C4
> <PUBCHEM_OPENEYE_ISO_SMILES>
CC[C@@H](C=O)NC(=O)[C@@H]1C[C@H](CN1C(=O)[C@H](C(C)C)NC(=O)[C@H](CC2=CC=CS2)NC(=O)C3=NC=CN=C3)OCC4=CC=CC=C4
> <PUBCHEM_CACTVS_TPSA>
188
> <PUBCHEM_MONOISOTOPIC_WEIGHT>
648.27300419
> <PUBCHEM_TOTAL_CHARGE>
0
> <PUBCHEM_HEAVY_ATOM_COUNT>
46
> <PUBCHEM_ATOM_DEF_STEREO_COUNT>
5
> <PUBCHEM_ATOM_UDEF_STEREO_COUNT>
0
> <PUBCHEM_BOND_DEF_STEREO_COUNT>
0
> <PUBCHEM_BOND_UDEF_STEREO_COUNT>
0
> <PUBCHEM_ISOTOPIC_ATOM_COUNT>
0
> <PUBCHEM_COMPONENT_COUNT>
1
> <PUBCHEM_CACTVS_TAUTO_COUNT>
-1
> <PUBCHEM_COORDINATE_TYPE>
1
5
255
> <PUBCHEM_BONDANNOTATIONS>
1  35  8
1  43  8
25  10  6
27  11  5
12  41  8
12  45  8
13  44  8
13  46  8
14  20  5
15  2  6
28  33  8
28  34  8
33  36  8
34  37  8
35  40  8
36  39  8
37  39  8
40  42  8
41  44  8
42  43  8
45  46  8
19  9  5
$$$$
