506790
  -OEChem-10302200282D
 85 88  0     1  0  0  0  0  0999 V2000
    9.8195    1.7951    0.0000 O   0  0  0  0  0  0  0  0  0  0  0  0
    7.4641   -1.8209    0.0000 O   0  0  0  0  0  0  0  0  0  0  0  0
    8.7084   -2.3749    0.0000 O   0  0  0  0  0  0  0  0  0  0  0  0
    3.1340   -1.3209    0.0000 O   0  0  0  0  0  0  0  0  0  0  0  0
    4.8660    0.6791    0.0000 O   0  0  0  0  0  0  0  0  0  0  0  0
   11.7695   -4.2801    0.0000 O   0  0  0  0  0  0  0  0  0  0  0  0
    8.3301   -0.3209    0.0000 N   0  0  0  0  0  0  0  0  0  0  0  0
    5.7320   -0.8209    0.0000 N   0  0  0  0  0  0  0  0  0  0  0  0
   10.4026   -2.0148    0.0000 N   0  0  0  0  0  0  0  0  0  0  0  0
    9.2437   -0.7276    0.0000 C   0  0  1  0  0  0  0  0  0  0  0  0
    9.4128    0.8815    0.0000 C   0  0  2  0  0  0  0  0  0  0  0  0
    9.9128    0.0155    0.0000 C   0  0  0  0  0  0  0  0  0  0  0  0
    8.4347    0.6736    0.0000 C   0  0  0  0  0  0  0  0  0  0  0  0
    7.4641   -0.8209    0.0000 C   0  0  0  0  0  0  0  0  0  0  0  0
    6.5981   -0.3209    0.0000 C   0  0  2  0  0  0  0  0  0  0  0  0
    9.4516   -1.7058    0.0000 C   0  0  0  0  0  0  0  0  0  0  0  0
    6.5981    0.6791    0.0000 C   0  0  0  0  0  0  0  0  0  0  0  0
   10.8141    1.8996    0.0000 C   0  0  0  0  0  0  0  0  0  0  0  0
    7.4641    1.1791    0.0000 C   0  0  0  0  0  0  0  0  0  0  0  0
    5.7320    1.1791    0.0000 C   0  0  0  0  0  0  0  0  0  0  0  0
   10.6106   -2.9930    0.0000 C   0  0  1  0  0  0  0  0  0  0  0  0
    4.8660   -0.3209    0.0000 C   0  0  0  0  0  0  0  0  0  0  0  0
    4.0000   -0.8209    0.0000 C   0  0  0  0  0  0  0  0  0  0  0  0
   11.2208    2.8131    0.0000 C   0  0  0  0  0  0  0  0  0  0  0  0
    9.8674   -3.6621    0.0000 C   0  0  0  0  0  0  0  0  0  0  0  0
   11.5616   -3.3020    0.0000 C   0  0  0  0  0  0  0  0  0  0  0  0
    4.5000   -1.6869    0.0000 C   0  0  0  0  0  0  0  0  0  0  0  0
    3.5000    0.0451    0.0000 C   0  0  0  0  0  0  0  0  0  0  0  0
   10.0753   -4.6402    0.0000 C   0  0  0  0  0  0  0  0  0  0  0  0
   12.2153    2.9177    0.0000 C   0  0  0  0  0  0  0  0  0  0  0  0
   10.6330    3.6222    0.0000 C   0  0  0  0  0  0  0  0  0  0  0  0
    3.6340   -2.1869    0.0000 C   0  0  0  0  0  0  0  0  0  0  0  0
    2.5000    0.0451    0.0000 C   0  0  0  0  0  0  0  0  0  0  0  0
    5.3660   -2.1869    0.0000 C   0  0  0  0  0  0  0  0  0  0  0  0
    4.0000    0.9111    0.0000 C   0  0  0  0  0  0  0  0  0  0  0  0
   12.6221    3.8312    0.0000 C   0  0  0  0  0  0  0  0  0  0  0  0
   11.0398    4.5357    0.0000 C   0  0  0  0  0  0  0  0  0  0  0  0
   12.0343    4.6402    0.0000 C   0  0  0  0  0  0  0  0  0  0  0  0
    3.6340   -3.1869    0.0000 C   0  0  0  0  0  0  0  0  0  0  0  0
    2.0000    0.9111    0.0000 C   0  0  0  0  0  0  0  0  0  0  0  0
    5.3660   -3.1869    0.0000 C   0  0  0  0  0  0  0  0  0  0  0  0
    3.5000    1.7772    0.0000 C   0  0  0  0  0  0  0  0  0  0  0  0
    4.5000   -3.6869    0.0000 C   0  0  0  0  0  0  0  0  0  0  0  0
    2.5000    1.7772    0.0000 C   0  0  0  0  0  0  0  0  0  0  0  0
    8.7618   -1.1178    0.0000 H   0  0  0  0  0  0  0  0  0  0  0  0
    9.0226    1.3634    0.0000 H   0  0  0  0  0  0  0  0  0  0  0  0
   10.3277   -0.4452    0.0000 H   0  0  0  0  0  0  0  0  0  0  0  0
   10.4144    0.3799    0.0000 H   0  0  0  0  0  0  0  0  0  0  0  0
    8.3698    1.2902    0.0000 H   0  0  0  0  0  0  0  0  0  0  0  0
    7.8147    0.6736    0.0000 H   0  0  0  0  0  0  0  0  0  0  0  0
    6.5981   -0.9409    0.0000 H   0  0  0  0  0  0  0  0  0  0  0  0
    6.5981    1.2991    0.0000 H   0  0  0  0  0  0  0  0  0  0  0  0
    5.7320   -1.4409    0.0000 H   0  0  0  0  0  0  0  0  0  0  0  0
   10.8634   -1.6000    0.0000 H   0  0  0  0  0  0  0  0  0  0  0  0
   10.7708    1.2811    0.0000 H   0  0  0  0  0  0  0  0  0  0  0  0
   11.4156    1.7496    0.0000 H   0  0  0  0  0  0  0  0  0  0  0  0
    7.7741    0.6422    0.0000 H   0  0  0  0  0  0  0  0  0  0  0  0
    8.0010    1.4891    0.0000 H   0  0  0  0  0  0  0  0  0  0  0  0
    7.1541    1.7160    0.0000 H   0  0  0  0  0  0  0  0  0  0  0  0
    6.0420    1.7160    0.0000 H   0  0  0  0  0  0  0  0  0  0  0  0
    5.1951    1.4891    0.0000 H   0  0  0  0  0  0  0  0  0  0  0  0
    5.4220    0.6422    0.0000 H   0  0  0  0  0  0  0  0  0  0  0  0
   11.0713   -2.5781    0.0000 H   0  0  0  0  0  0  0  0  0  0  0  0
    9.5389   -3.1363    0.0000 H   0  0  0  0  0  0  0  0  0  0  0  0
    9.2926   -3.8943    0.0000 H   0  0  0  0  0  0  0  0  0  0  0  0
   12.0224   -2.8871    0.0000 H   0  0  0  0  0  0  0  0  0  0  0  0
    9.4689   -4.7691    0.0000 H   0  0  0  0  0  0  0  0  0  0  0  0
   10.2042   -5.2467    0.0000 H   0  0  0  0  0  0  0  0  0  0  0  0
   10.6818   -4.5113    0.0000 H   0  0  0  0  0  0  0  0  0  0  0  0
   12.5797    2.4161    0.0000 H   0  0  0  0  0  0  0  0  0  0  0  0
   10.0164    3.5574    0.0000 H   0  0  0  0  0  0  0  0  0  0  0  0
    2.5970   -1.0109    0.0000 H   0  0  0  0  0  0  0  0  0  0  0  0
    3.0970   -1.8769    0.0000 H   0  0  0  0  0  0  0  0  0  0  0  0
    2.1900   -0.4918    0.0000 H   0  0  0  0  0  0  0  0  0  0  0  0
    5.9030   -1.8769    0.0000 H   0  0  0  0  0  0  0  0  0  0  0  0
    4.6200    0.9111    0.0000 H   0  0  0  0  0  0  0  0  0  0  0  0
   13.2387    3.8960    0.0000 H   0  0  0  0  0  0  0  0  0  0  0  0
   10.6753    5.0373    0.0000 H   0  0  0  0  0  0  0  0  0  0  0  0
   12.2864    5.2066    0.0000 H   0  0  0  0  0  0  0  0  0  0  0  0
    3.0970   -3.4969    0.0000 H   0  0  0  0  0  0  0  0  0  0  0  0
    1.3800    0.9111    0.0000 H   0  0  0  0  0  0  0  0  0  0  0  0
    5.9030   -3.4969    0.0000 H   0  0  0  0  0  0  0  0  0  0  0  0
    3.8100    2.3141    0.0000 H   0  0  0  0  0  0  0  0  0  0  0  0
    4.5000   -4.3069    0.0000 H   0  0  0  0  0  0  0  0  0  0  0  0
    2.1900    2.3141    0.0000 H   0  0  0  0  0  0  0  0  0  0  0  0
 11  1  1  6  0  0  0
  1 18  1  0  0  0  0
  2 14  2  0  0  0  0
  3 16  2  0  0  0  0
  4 23  1  0  0  0  0
  4 72  1  0  0  0  0
  5 22  2  0  0  0  0
  6 26  2  0  0  0  0
  7 10  1  0  0  0  0
  7 13  1  0  0  0  0
  7 14  1  0  0  0  0
 15  8  1  1  0  0  0
  8 22  1  0  0  0  0
  8 53  1  0  0  0  0
  9 16  1  0  0  0  0
 21  9  1  6  0  0  0
  9 54  1  0  0  0  0
 10 12  1  0  0  0  0
 10 16  1  1  0  0  0
 10 45  1  0  0  0  0
 11 12  1  0  0  0  0
 11 13  1  0  0  0  0
 11 46  1  0  0  0  0
 12 47  1  0  0  0  0
 12 48  1  0  0  0  0
 13 49  1  0  0  0  0
 13 50  1  0  0  0  0
 14 15  1  0  0  0  0
 15 17  1  0  0  0  0
 15 51  1  0  0  0  0
 17 19  1  0  0  0  0
 17 20  1  0  0  0  0
 17 52  1  0  0  0  0
 18 24  1  0  0  0  0
 18 55  1  0  0  0  0
 18 56  1  0  0  0  0
 19 57  1  0  0  0  0
 19 58  1  0  0  0  0
 19 59  1  0  0  0  0
 20 60  1  0  0  0  0
 20 61  1  0  0  0  0
 20 62  1  0  0  0  0
 21 25  1  0  0  0  0
 21 26  1  0  0  0  0
 21 63  1  0  0  0  0
 22 23  1  0  0  0  0
 23 27  1  0  0  0  0
 23 28  1  0  0  0  0
 24 30  2  0  0  0  0
 24 31  1  0  0  0  0
 25 29  1  0  0  0  0
 25 64  1  0  0  0  0
 25 65  1  0  0  0  0
 26 66  1  0  0  0  0
 27 32  2  0  0  0  0
 27 34  1  0  0  0  0
 28 33  2  0  0  0  0
 28 35  1  0  0  0  0
 29 67  1  0  0  0  0
 29 68  1  0  0  0  0
 29 69  1  0  0  0  0
 30 36  1  0  0  0  0
 30 70  1  0  0  0  0
 31 37  2  0  0  0  0
 31 71  1  0  0  0  0
 32 39  1  0  0  0  0
 32 73  1  0  0  0  0
 33 40  1  0  0  0  0
 33 74  1  0  0  0  0
 34 41  2  0  0  0  0
 34 75  1  0  0  0  0
 35 42  2  0  0  0  0
 35 76  1  0  0  0  0
 36 38  2  0  0  0  0
 36 77  1  0  0  0  0
 37 38  1  0  0  0  0
 37 78  1  0  0  0  0
 38 79  1  0  0  0  0
 39 43  2  0  0  0  0
 39 80  1  0  0  0  0
 40 44  2  0  0  0  0
 40 81  1  0  0  0  0
 41 43  1  0  0  0  0
 41 82  1  0  0  0  0
 42 44  1  0  0  0  0
 42 83  1  0  0  0  0
 43 84  1  0  0  0  0
 44 85  1  0  0  0  0
M  END
> <PUBCHEM_COMPOUND_CID>
506790
> <PUBCHEM_COMPOUND_CANONICALIZED>
1
> <PUBCHEM_CACTVS_COMPLEXITY>
936
> <PUBCHEM_CACTVS_HBOND_ACCEPTOR>
6
> <PUBCHEM_CACTVS_HBOND_DONOR>
3
> <PUBCHEM_CACTVS_ROTATABLE_BOND>
13
> <PUBCHEM_CACTVS_SUBSKEYS>
AAADcfB/OAAAAAAAAAAAAAAAAAAAAWAAAAAwYMAAAAAAAAABUAAAHgAQCAAADXzhmAYyAIPABgCIAilSkAICAAAgAAAIiIHICIgKZjKAtTmXcAAm1gGYuAe6yeCOgAAAAAAAAAAAAAAAAAAAAAAAAAAAAA==
> <PUBCHEM_IUPAC_OPENEYE_NAME>
(2S,4R)-4-benzyloxy-N-[(1S)-1-formylpropyl]-1-[(2S)-2-[(2-hydroxy-2,2-diphenyl-acetyl)amino]-3-methyl-butanoyl]pyrrolidine-2-carboxamide
> <PUBCHEM_IUPAC_CAS_NAME>
(2S,4R)-1-[(2S)-2-[(2-hydroxy-1-oxo-2,2-diphenylethyl)amino]-3-methyl-1-oxobutyl]-N-[(2S)-1-oxobutan-2-yl]-4-phenylmethoxy-2-pyrrolidinecarboxamide
> <PUBCHEM_IUPAC_NAME_MARKUP>
(2<I>S</I>,4<I>R</I>)-1-[(2<I>S</I>)-2-[(2-hydroxy-2,2-diphenylacetyl)amino]-3-methylbutanoyl]-<I>N</I>-[(2<I>S</I>)-1-oxobutan-2-yl]-4-phenylmethoxypyrrolidine-2-carboxamide
> <PUBCHEM_IUPAC_NAME>
(2S,4R)-1-[(2S)-2-[(2-hydroxy-2,2-diphenylacetyl)amino]-3-methylbutanoyl]-N-[(2S)-1-oxobutan-2-yl]-4-phenylmethoxypyrrolidine-2-carboxamide
> <PUBCHEM_IUPAC_SYSTEMATIC_NAME>
(2S,4R)-1-[(2S)-3-methyl-2-[(2-oxidanyl-2,2-diphenyl-ethanoyl)amino]butanoyl]-N-[(2S)-1-oxidanylidenebutan-2-yl]-4-phenylmethoxy-pyrrolidine-2-carboxamide
> <PUBCHEM_IUPAC_TRADITIONAL_NAME>
(2S,4R)-1-[(2S)-2-(benziloylamino)-3-methyl-butanoyl]-4-benzoxy-N-[(1S)-1-formylpropyl]pyrrolidine-2-carboxamide
> <PUBCHEM_IUPAC_INCHI>
InChI=1S/C35H41N3O6/c1-4-28(22-39)36-32(40)30-20-29(44-23-25-14-8-5-9-15-25)21-38(30)33(41)31(24(2)3)37-34(42)35(43,26-16-10-6-11-17-26)27-18-12-7-13-19-27/h5-19,22,24,28-31,43H,4,20-21,23H2,1-3H3,(H,36,40)(H,37,42)/t28-,29+,30-,31-/m0/s1
> <PUBCHEM_IUPAC_INCHIKEY>
XQOLQZIHWKDGDV-JVVMDBNWSA-N
> <PUBCHEM_XLOGP3_AA>
4.3
> <PUBCHEM_EXACT_MASS>
599.29953604
> <PUBCHEM_MOLECULAR_FORMULA>
C35H41N3O6
> <PUBCHEM_MOLECULAR_WEIGHT>
599.7
> <PUBCHEM_OPENEYE_CAN_SMILES>
CCC(C=O)NC(=O)C1CC(CN1C(=O)C(C(C)C)NC(=O)C(C2=CC=CC=C2)(C3=CC=CC=C3)O)OCC4=CC=CC=C4
> <PUBCHEM_OPENEYE_ISO_SMILES>
CC[C@@H](C=O)NC(=O)[C@@H]1C[C@H](CN1C(=O)[C@H](C(C)C)NC(=O)C(C2=CC=CC=C2)(C3=CC=CC=C3)O)OCC4=CC=CC=C4
> <PUBCHEM_CACTVS_TPSA>
125
> <PUBCHEM_MONOISOTOPIC_WEIGHT>
599.29953604
> <PUBCHEM_TOTAL_CHARGE>
0
> <PUBCHEM_HEAVY_ATOM_COUNT>
44
> <PUBCHEM_ATOM_DEF_STEREO_COUNT>
4
> <PUBCHEM_ATOM_UDEF_STEREO_COUNT>
0
> <PUBCHEM_BOND_DEF_STEREO_COUNT>
0
> <PUBCHEM_BOND_UDEF_STEREO_COUNT>
0
> <PUBCHEM_ISOTOPIC_ATOM_COUNT>
0
> <PUBCHEM_COMPONENT_COUNT>
1
> <PUBCHEM_CACTVS_TAUTO_COUNT>
-1
> <PUBCHEM_COORDINATE_TYPE>
1
5
255
> <PUBCHEM_BONDANNOTATIONS>
11  1  6
10  16  5
24  30  8
24  31  8
27  32  8
27  34  8
28  33  8
28  35  8
30  36  8
31  37  8
32  39  8
33  40  8
34  41  8
35  42  8
36  38  8
37  38  8
39  43  8
40  44  8
41  43  8
42  44  8
15  8  5
21  9  6
$$$$
