506722
  -OEChem-10302200282D
 89 89  0     1  0  0  0  0  0999 V2000
    7.1962    0.2500    0.0000 O   0  0  0  0  0  0  0  0  0  0  0  0
   10.6603    1.2500    0.0000 O   0  0  0  0  0  0  0  0  0  0  0  0
    8.0622   -3.2500    0.0000 O   0  0  0  0  0  0  0  0  0  0  0  0
    5.4641   -5.7500    0.0000 O   0  0  0  0  0  0  0  0  0  0  0  0
    2.0000   -4.7500    0.0000 O   0  0  0  0  0  0  0  0  0  0  0  0
   10.6603    4.2500    0.0000 N   0  0  0  0  0  0  0  0  0  0  0  0
    8.9282    1.2500    0.0000 N   0  0  0  0  0  0  0  0  0  0  0  0
    8.0622   -1.2500    0.0000 N   0  0  0  0  0  0  0  0  0  0  0  0
    6.3301   -3.2500    0.0000 N   0  0  0  0  0  0  0  0  0  0  0  0
    4.5981   -4.2500    0.0000 N   0  0  0  0  0  0  0  0  0  0  0  0
    9.7942    4.7500    0.0000 C   0  0  0  0  0  0  0  0  0  0  0  0
   11.5263    4.7500    0.0000 C   0  0  0  0  0  0  0  0  0  0  0  0
    9.7942    5.7500    0.0000 C   0  0  0  0  0  0  0  0  0  0  0  0
   11.5263    5.7500    0.0000 C   0  0  0  0  0  0  0  0  0  0  0  0
   10.6603    6.2500    0.0000 C   0  0  0  0  0  0  0  0  0  0  0  0
   10.6603    3.2500    0.0000 C   0  0  0  0  0  0  0  0  0  0  0  0
    9.7942    2.7500    0.0000 C   0  0  0  0  0  0  0  0  0  0  0  0
    8.9282    0.2500    0.0000 C   0  0  1  0  0  0  0  0  0  0  0  0
    7.1962   -1.7500    0.0000 C   0  0  1  0  0  0  0  0  0  0  0  0
    6.3301   -1.2500    0.0000 C   0  0  0  0  0  0  0  0  0  0  0  0
    9.7942   -0.2500    0.0000 C   0  0  0  0  0  0  0  0  0  0  0  0
    6.3301   -4.2500    0.0000 C   0  0  1  0  0  0  0  0  0  0  0  0
    7.1962   -4.7500    0.0000 C   0  0  0  0  0  0  0  0  0  0  0  0
    8.0622   -0.2500    0.0000 C   0  0  0  0  0  0  0  0  0  0  0  0
    9.7942    1.7500    0.0000 C   0  0  0  0  0  0  0  0  0  0  0  0
    7.1962   -5.7500    0.0000 C   0  0  0  0  0  0  0  0  0  0  0  0
    7.1962   -2.7500    0.0000 C   0  0  0  0  0  0  0  0  0  0  0  0
    5.4641   -1.7500    0.0000 C   0  0  0  0  0  0  0  0  0  0  0  0
    6.3301   -0.2500    0.0000 C   0  0  0  0  0  0  0  0  0  0  0  0
    9.7942   -1.2500    0.0000 C   0  0  0  0  0  0  0  0  0  0  0  0
   10.6603    0.2500    0.0000 C   0  0  0  0  0  0  0  0  0  0  0  0
    5.4641   -4.7500    0.0000 C   0  0  0  0  0  0  0  0  0  0  0  0
    8.0622   -6.2500    0.0000 C   0  0  0  0  0  0  0  0  0  0  0  0
    6.3301   -6.2500    0.0000 C   0  0  0  0  0  0  0  0  0  0  0  0
    3.7320   -4.7500    0.0000 C   0  0  1  0  0  0  0  0  0  0  0  0
    3.7320   -5.7500    0.0000 C   0  0  0  0  0  0  0  0  0  0  0  0
    2.8660   -4.2500    0.0000 C   0  0  0  0  0  0  0  0  0  0  0  0
    2.8660   -6.2500    0.0000 C   0  0  0  0  0  0  0  0  0  0  0  0
    9.1836    4.8577    0.0000 H   0  0  0  0  0  0  0  0  0  0  0  0
    9.5822    4.1674    0.0000 H   0  0  0  0  0  0  0  0  0  0  0  0
   11.7383    4.1674    0.0000 H   0  0  0  0  0  0  0  0  0  0  0  0
   12.1369    4.8577    0.0000 H   0  0  0  0  0  0  0  0  0  0  0  0
    9.5822    6.3326    0.0000 H   0  0  0  0  0  0  0  0  0  0  0  0
    9.1836    5.6423    0.0000 H   0  0  0  0  0  0  0  0  0  0  0  0
   12.1369    5.6423    0.0000 H   0  0  0  0  0  0  0  0  0  0  0  0
   11.7383    6.3326    0.0000 H   0  0  0  0  0  0  0  0  0  0  0  0
   11.0588    6.7250    0.0000 H   0  0  0  0  0  0  0  0  0  0  0  0
   10.2617    6.7250    0.0000 H   0  0  0  0  0  0  0  0  0  0  0  0
   10.8723    2.6674    0.0000 H   0  0  0  0  0  0  0  0  0  0  0  0
   11.2708    3.3577    0.0000 H   0  0  0  0  0  0  0  0  0  0  0  0
    9.4651    0.5600    0.0000 H   0  0  0  0  0  0  0  0  0  0  0  0
    9.5822    3.3326    0.0000 H   0  0  0  0  0  0  0  0  0  0  0  0
    9.1836    2.6423    0.0000 H   0  0  0  0  0  0  0  0  0  0  0  0
    7.7331   -2.0600    0.0000 H   0  0  0  0  0  0  0  0  0  0  0  0
    6.8671   -0.9400    0.0000 H   0  0  0  0  0  0  0  0  0  0  0  0
    9.2573   -0.5600    0.0000 H   0  0  0  0  0  0  0  0  0  0  0  0
    6.8671   -3.9400    0.0000 H   0  0  0  0  0  0  0  0  0  0  0  0
    7.8067   -4.8577    0.0000 H   0  0  0  0  0  0  0  0  0  0  0  0
    7.4082   -4.1674    0.0000 H   0  0  0  0  0  0  0  0  0  0  0  0
    8.5991   -1.5600    0.0000 H   0  0  0  0  0  0  0  0  0  0  0  0
    8.3913    1.5600    0.0000 H   0  0  0  0  0  0  0  0  0  0  0  0
    6.6592   -5.4400    0.0000 H   0  0  0  0  0  0  0  0  0  0  0  0
    5.7932   -2.9400    0.0000 H   0  0  0  0  0  0  0  0  0  0  0  0
    5.1541   -1.2131    0.0000 H   0  0  0  0  0  0  0  0  0  0  0  0
    4.9272   -2.0600    0.0000 H   0  0  0  0  0  0  0  0  0  0  0  0
    5.7741   -2.2869    0.0000 H   0  0  0  0  0  0  0  0  0  0  0  0
    6.9501   -0.2500    0.0000 H   0  0  0  0  0  0  0  0  0  0  0  0
    6.3301    0.3700    0.0000 H   0  0  0  0  0  0  0  0  0  0  0  0
    5.7101   -0.2500    0.0000 H   0  0  0  0  0  0  0  0  0  0  0  0
    9.1742   -1.2500    0.0000 H   0  0  0  0  0  0  0  0  0  0  0  0
    9.7942   -1.8700    0.0000 H   0  0  0  0  0  0  0  0  0  0  0  0
   10.4142   -1.2500    0.0000 H   0  0  0  0  0  0  0  0  0  0  0  0
   10.9703   -0.2869    0.0000 H   0  0  0  0  0  0  0  0  0  0  0  0
   11.1972    0.5600    0.0000 H   0  0  0  0  0  0  0  0  0  0  0  0
   10.3503    0.7869    0.0000 H   0  0  0  0  0  0  0  0  0  0  0  0
    7.7522   -6.7869    0.0000 H   0  0  0  0  0  0  0  0  0  0  0  0
    8.5991   -6.5600    0.0000 H   0  0  0  0  0  0  0  0  0  0  0  0
    8.3722   -5.7131    0.0000 H   0  0  0  0  0  0  0  0  0  0  0  0
    6.0201   -5.7131    0.0000 H   0  0  0  0  0  0  0  0  0  0  0  0
    5.7932   -6.5600    0.0000 H   0  0  0  0  0  0  0  0  0  0  0  0
    6.6401   -6.7869    0.0000 H   0  0  0  0  0  0  0  0  0  0  0  0
    4.5981   -3.6300    0.0000 H   0  0  0  0  0  0  0  0  0  0  0  0
    3.7320   -4.1300    0.0000 H   0  0  0  0  0  0  0  0  0  0  0  0
    3.9441   -6.3326    0.0000 H   0  0  0  0  0  0  0  0  0  0  0  0
    4.3426   -5.6423    0.0000 H   0  0  0  0  0  0  0  0  0  0  0  0
    2.8660   -3.6300    0.0000 H   0  0  0  0  0  0  0  0  0  0  0  0
    2.5560   -5.7131    0.0000 H   0  0  0  0  0  0  0  0  0  0  0  0
    2.3291   -6.5600    0.0000 H   0  0  0  0  0  0  0  0  0  0  0  0
    3.1760   -6.7869    0.0000 H   0  0  0  0  0  0  0  0  0  0  0  0
  1 24  2  0  0  0  0
  2 25  2  0  0  0  0
  3 27  2  0  0  0  0
  4 32  2  0  0  0  0
  5 37  2  0  0  0  0
  6 11  1  0  0  0  0
  6 12  1  0  0  0  0
  6 16  1  0  0  0  0
 18  7  1  1  0  0  0
  7 25  1  0  0  0  0
  7 61  1  0  0  0  0
 19  8  1  6  0  0  0
  8 24  1  0  0  0  0
  8 60  1  0  0  0  0
 22  9  1  1  0  0  0
  9 27  1  0  0  0  0
  9 63  1  0  0  0  0
 10 32  1  0  0  0  0
 35 10  1  1  0  0  0
 10 82  1  0  0  0  0
 11 13  1  0  0  0  0
 11 39  1  0  0  0  0
 11 40  1  0  0  0  0
 12 14  1  0  0  0  0
 12 41  1  0  0  0  0
 12 42  1  0  0  0  0
 13 15  1  0  0  0  0
 13 43  1  0  0  0  0
 13 44  1  0  0  0  0
 14 15  1  0  0  0  0
 14 45  1  0  0  0  0
 14 46  1  0  0  0  0
 15 47  1  0  0  0  0
 15 48  1  0  0  0  0
 16 17  1  0  0  0  0
 16 49  1  0  0  0  0
 16 50  1  0  0  0  0
 17 25  1  0  0  0  0
 17 52  1  0  0  0  0
 17 53  1  0  0  0  0
 18 21  1  0  0  0  0
 18 24  1  0  0  0  0
 18 51  1  0  0  0  0
 19 20  1  0  0  0  0
 19 27  1  0  0  0  0
 19 54  1  0  0  0  0
 20 28  1  0  0  0  0
 20 29  1  0  0  0  0
 20 55  1  0  0  0  0
 21 30  1  0  0  0  0
 21 31  1  0  0  0  0
 21 56  1  0  0  0  0
 22 23  1  0  0  0  0
 22 32  1  0  0  0  0
 22 57  1  0  0  0  0
 23 26  1  0  0  0  0
 23 58  1  0  0  0  0
 23 59  1  0  0  0  0
 26 33  1  0  0  0  0
 26 34  1  0  0  0  0
 26 62  1  0  0  0  0
 28 64  1  0  0  0  0
 28 65  1  0  0  0  0
 28 66  1  0  0  0  0
 29 67  1  0  0  0  0
 29 68  1  0  0  0  0
 29 69  1  0  0  0  0
 30 70  1  0  0  0  0
 30 71  1  0  0  0  0
 30 72  1  0  0  0  0
 31 73  1  0  0  0  0
 31 74  1  0  0  0  0
 31 75  1  0  0  0  0
 33 76  1  0  0  0  0
 33 77  1  0  0  0  0
 33 78  1  0  0  0  0
 34 79  1  0  0  0  0
 34 80  1  0  0  0  0
 34 81  1  0  0  0  0
 35 36  1  0  0  0  0
 35 37  1  0  0  0  0
 35 83  1  0  0  0  0
 36 38  1  0  0  0  0
 36 84  1  0  0  0  0
 36 85  1  0  0  0  0
 37 86  1  0  0  0  0
 38 87  1  0  0  0  0
 38 88  1  0  0  0  0
 38 89  1  0  0  0  0
M  END
> <PUBCHEM_COMPOUND_CID>
506722
> <PUBCHEM_COMPOUND_CANONICALIZED>
1
> <PUBCHEM_CACTVS_COMPLEXITY>
780
> <PUBCHEM_CACTVS_HBOND_ACCEPTOR>
6
> <PUBCHEM_CACTVS_HBOND_DONOR>
4
> <PUBCHEM_CACTVS_ROTATABLE_BOND>
16
> <PUBCHEM_CACTVS_SUBSKEYS>
AAADcfB7uAAAAAAAAAAAAAAAAAAAAAAAAAAsAAAAAAAAAAAAAAAAHgAQAAAADSjhgAYCAAPAAAAIAAkQkAAAAAAAAAAAAIGIAAAAQBoAwCAUAAAAFgCAAAAYAAAMAAAAAAAAAAAAAAAAAAAAAAAAAAAAAA==
> <PUBCHEM_IUPAC_OPENEYE_NAME>
(2S)-N-[(1S)-1-formylpropyl]-4-methyl-2-[[(2S)-3-methyl-2-[[(2S)-3-methyl-2-[3-(1-piperidyl)propanoylamino]butanoyl]amino]butanoyl]amino]pentanamide
> <PUBCHEM_IUPAC_CAS_NAME>
(2S)-4-methyl-2-[[(2S)-3-methyl-2-[[(2S)-3-methyl-1-oxo-2-[[1-oxo-3-(1-piperidinyl)propyl]amino]butyl]amino]-1-oxobutyl]amino]-N-[(2S)-1-oxobutan-2-yl]pentanamide
> <PUBCHEM_IUPAC_NAME_MARKUP>
(2<I>S</I>)-4-methyl-2-[[(2<I>S</I>)-3-methyl-2-[[(2<I>S</I>)-3-methyl-2-(3-piperidin-1-ylpropanoylamino)butanoyl]amino]butanoyl]amino]-<I>N</I>-[(2<I>S</I>)-1-oxobutan-2-yl]pentanamide
> <PUBCHEM_IUPAC_NAME>
(2S)-4-methyl-2-[[(2S)-3-methyl-2-[[(2S)-3-methyl-2-(3-piperidin-1-ylpropanoylamino)butanoyl]amino]butanoyl]amino]-N-[(2S)-1-oxobutan-2-yl]pentanamide
> <PUBCHEM_IUPAC_SYSTEMATIC_NAME>
(2S)-4-methyl-2-[[(2S)-3-methyl-2-[[(2S)-3-methyl-2-(3-piperidin-1-ylpropanoylamino)butanoyl]amino]butanoyl]amino]-N-[(2S)-1-oxidanylidenebutan-2-yl]pentanamide
> <PUBCHEM_IUPAC_TRADITIONAL_NAME>
(2S)-N-[(1S)-1-formylpropyl]-4-methyl-2-[[(2S)-3-methyl-2-[[(2S)-3-methyl-2-(3-piperidinopropanoylamino)butanoyl]amino]butanoyl]amino]valeramide
> <PUBCHEM_IUPAC_INCHI>
InChI=1S/C28H51N5O5/c1-8-21(17-34)29-26(36)22(16-18(2)3)30-27(37)25(20(6)7)32-28(38)24(19(4)5)31-23(35)12-15-33-13-10-9-11-14-33/h17-22,24-25H,8-16H2,1-7H3,(H,29,36)(H,30,37)(H,31,35)(H,32,38)/t21-,22-,24-,25-/m0/s1
> <PUBCHEM_IUPAC_INCHIKEY>
MHYFUAIJNTUMEG-TWVZQSRDSA-N
> <PUBCHEM_XLOGP3_AA>
3.3
> <PUBCHEM_EXACT_MASS>
537.38901974
> <PUBCHEM_MOLECULAR_FORMULA>
C28H51N5O5
> <PUBCHEM_MOLECULAR_WEIGHT>
537.7
> <PUBCHEM_OPENEYE_CAN_SMILES>
CCC(C=O)NC(=O)C(CC(C)C)NC(=O)C(C(C)C)NC(=O)C(C(C)C)NC(=O)CCN1CCCCC1
> <PUBCHEM_OPENEYE_ISO_SMILES>
CC[C@@H](C=O)NC(=O)[C@H](CC(C)C)NC(=O)[C@H](C(C)C)NC(=O)[C@H](C(C)C)NC(=O)CCN1CCCCC1
> <PUBCHEM_CACTVS_TPSA>
137
> <PUBCHEM_MONOISOTOPIC_WEIGHT>
537.38901974
> <PUBCHEM_TOTAL_CHARGE>
0
> <PUBCHEM_HEAVY_ATOM_COUNT>
38
> <PUBCHEM_ATOM_DEF_STEREO_COUNT>
4
> <PUBCHEM_ATOM_UDEF_STEREO_COUNT>
0
> <PUBCHEM_BOND_DEF_STEREO_COUNT>
0
> <PUBCHEM_BOND_UDEF_STEREO_COUNT>
0
> <PUBCHEM_ISOTOPIC_ATOM_COUNT>
0
> <PUBCHEM_COMPONENT_COUNT>
1
> <PUBCHEM_CACTVS_TAUTO_COUNT>
-1
> <PUBCHEM_COORDINATE_TYPE>
1
5
255
> <PUBCHEM_BONDANNOTATIONS>
35  10  5
18  7  5
19  8  6
22  9  5
$$$$
