506780
  -OEChem-10302200282D
 72 74  0     1  0  0  0  0  0999 V2000
   12.9775    2.6898    0.0000 S   0  0  0  0  0  0  0  0  0  0  0  0
    6.2524   -1.3044    0.0000 O   0  0  0  0  0  0  0  0  0  0  0  0
    6.9334    2.9570    0.0000 O   0  0  0  0  0  0  0  0  0  0  0  0
    5.5714    2.9570    0.0000 O   0  0  0  0  0  0  0  0  0  0  0  0
   10.3238    1.7299    0.0000 O   0  0  0  0  0  0  0  0  0  0  0  0
    2.0000    3.4525    0.0000 O   0  0  0  0  0  0  0  0  0  0  0  0
    6.7524    1.2345    0.0000 N   0  0  0  0  0  0  0  0  0  0  0  0
    4.1701    1.9390    0.0000 N   0  0  0  0  0  0  0  0  0  0  0  0
    8.9225    2.7480    0.0000 N   0  0  0  0  0  0  0  0  0  0  0  0
   12.1685    4.0911    0.0000 N   0  0  0  0  0  0  0  0  0  0  0  0
   13.9480    4.1844    0.0000 N   0  0  0  0  0  0  0  0  0  0  0  0
    5.7524    1.2345    0.0000 C   0  0  1  0  0  0  0  0  0  0  0  0
    6.2524   -0.3044    0.0000 C   0  0  2  0  0  0  0  0  0  0  0  0
    5.4434    0.2834    0.0000 C   0  0  0  0  0  0  0  0  0  0  0  0
    7.0614    0.2834    0.0000 C   0  0  0  0  0  0  0  0  0  0  0  0
    7.3402    2.0435    0.0000 C   0  0  0  0  0  0  0  0  0  0  0  0
    8.3347    1.9390    0.0000 C   0  0  2  0  0  0  0  0  0  0  0  0
    5.1646    2.0435    0.0000 C   0  0  0  0  0  0  0  0  0  0  0  0
    8.7414    1.0254    0.0000 C   0  0  0  0  0  0  0  0  0  0  0  0
    5.3864   -1.8044    0.0000 C   0  0  0  0  0  0  0  0  0  0  0  0
    9.7360    0.9209    0.0000 C   0  0  0  0  0  0  0  0  0  0  0  0
    8.1537    0.2164    0.0000 C   0  0  0  0  0  0  0  0  0  0  0  0
    3.5823    2.7480    0.0000 C   0  0  1  0  0  0  0  0  0  0  0  0
    3.9890    3.6615    0.0000 C   0  0  0  0  0  0  0  0  0  0  0  0
    5.3864   -2.8044    0.0000 C   0  0  0  0  0  0  0  0  0  0  0  0
    9.9170    2.6435    0.0000 C   0  0  0  0  0  0  0  0  0  0  0  0
    2.5878    2.6435    0.0000 C   0  0  0  0  0  0  0  0  0  0  0  0
   10.5048    3.4525    0.0000 C   0  0  0  0  0  0  0  0  0  0  0  0
    3.4013    4.4706    0.0000 C   0  0  0  0  0  0  0  0  0  0  0  0
    6.2524   -3.3044    0.0000 C   0  0  0  0  0  0  0  0  0  0  0  0
    4.5204   -3.3044    0.0000 C   0  0  0  0  0  0  0  0  0  0  0  0
   11.4993    3.3480    0.0000 C   0  0  0  0  0  0  0  0  0  0  0  0
    6.2524   -4.3044    0.0000 C   0  0  0  0  0  0  0  0  0  0  0  0
    4.5204   -4.3044    0.0000 C   0  0  0  0  0  0  0  0  0  0  0  0
    5.3864   -4.8044    0.0000 C   0  0  0  0  0  0  0  0  0  0  0  0
   11.9993    2.4819    0.0000 C   0  0  0  0  0  0  0  0  0  0  0  0
   13.0820    3.6844    0.0000 C   0  0  0  0  0  0  0  0  0  0  0  0
    6.0339    1.7869    0.0000 H   0  0  0  0  0  0  0  0  0  0  0  0
    5.7000   -0.5858    0.0000 H   0  0  0  0  0  0  0  0  0  0  0  0
    4.8770    0.5356    0.0000 H   0  0  0  0  0  0  0  0  0  0  0  0
    5.1334   -0.2535    0.0000 H   0  0  0  0  0  0  0  0  0  0  0  0
    7.3714   -0.2535    0.0000 H   0  0  0  0  0  0  0  0  0  0  0  0
    7.6278    0.5356    0.0000 H   0  0  0  0  0  0  0  0  0  0  0  0
    8.0825    2.5054    0.0000 H   0  0  0  0  0  0  0  0  0  0  0  0
    9.1059    1.5270    0.0000 H   0  0  0  0  0  0  0  0  0  0  0  0
    3.9179    1.3726    0.0000 H   0  0  0  0  0  0  0  0  0  0  0  0
    8.6703    3.3144    0.0000 H   0  0  0  0  0  0  0  0  0  0  0  0
    5.1743   -1.2217    0.0000 H   0  0  0  0  0  0  0  0  0  0  0  0
    4.7758   -1.9120    0.0000 H   0  0  0  0  0  0  0  0  0  0  0  0
    9.6712    0.3043    0.0000 H   0  0  0  0  0  0  0  0  0  0  0  0
   10.3526    0.8561    0.0000 H   0  0  0  0  0  0  0  0  0  0  0  0
    9.8008    1.5375    0.0000 H   0  0  0  0  0  0  0  0  0  0  0  0
    7.6521    0.5808    0.0000 H   0  0  0  0  0  0  0  0  0  0  0  0
    7.7892   -0.2852    0.0000 H   0  0  0  0  0  0  0  0  0  0  0  0
    8.6552   -0.1480    0.0000 H   0  0  0  0  0  0  0  0  0  0  0  0
    3.3301    2.1816    0.0000 H   0  0  0  0  0  0  0  0  0  0  0  0
    4.5030    3.3148    0.0000 H   0  0  0  0  0  0  0  0  0  0  0  0
    4.4197    4.1075    0.0000 H   0  0  0  0  0  0  0  0  0  0  0  0
    2.3356    2.0771    0.0000 H   0  0  0  0  0  0  0  0  0  0  0  0
   10.6757    4.0485    0.0000 H   0  0  0  0  0  0  0  0  0  0  0  0
    9.9476    3.7243    0.0000 H   0  0  0  0  0  0  0  0  0  0  0  0
    3.9028    4.8350    0.0000 H   0  0  0  0  0  0  0  0  0  0  0  0
    3.0368    4.9721    0.0000 H   0  0  0  0  0  0  0  0  0  0  0  0
    2.8997    4.1061    0.0000 H   0  0  0  0  0  0  0  0  0  0  0  0
    6.7893   -2.9944    0.0000 H   0  0  0  0  0  0  0  0  0  0  0  0
    3.9834   -2.9944    0.0000 H   0  0  0  0  0  0  0  0  0  0  0  0
    6.7893   -4.6144    0.0000 H   0  0  0  0  0  0  0  0  0  0  0  0
    3.9834   -4.6144    0.0000 H   0  0  0  0  0  0  0  0  0  0  0  0
    5.3864   -5.4244    0.0000 H   0  0  0  0  0  0  0  0  0  0  0  0
   11.7471    1.9155    0.0000 H   0  0  0  0  0  0  0  0  0  0  0  0
   14.4850    3.8744    0.0000 H   0  0  0  0  0  0  0  0  0  0  0  0
   13.9480    4.8044    0.0000 H   0  0  0  0  0  0  0  0  0  0  0  0
  1 36  1  0  0  0  0
  1 37  1  0  0  0  0
 13  2  1  6  0  0  0
  2 20  1  0  0  0  0
  3 16  2  0  0  0  0
  4 18  2  0  0  0  0
  5 26  2  0  0  0  0
  6 27  2  0  0  0  0
  7 12  1  0  0  0  0
  7 15  1  0  0  0  0
  7 16  1  0  0  0  0
  8 18  1  0  0  0  0
 23  8  1  6  0  0  0
  8 46  1  0  0  0  0
 17  9  1  1  0  0  0
  9 26  1  0  0  0  0
  9 47  1  0  0  0  0
 10 32  1  0  0  0  0
 10 37  2  0  0  0  0
 11 37  1  0  0  0  0
 11 71  1  0  0  0  0
 11 72  1  0  0  0  0
 12 14  1  0  0  0  0
 12 18  1  1  0  0  0
 12 38  1  0  0  0  0
 13 14  1  0  0  0  0
 13 15  1  0  0  0  0
 13 39  1  0  0  0  0
 14 40  1  0  0  0  0
 14 41  1  0  0  0  0
 15 42  1  0  0  0  0
 15 43  1  0  0  0  0
 16 17  1  0  0  0  0
 17 19  1  0  0  0  0
 17 44  1  0  0  0  0
 19 21  1  0  0  0  0
 19 22  1  0  0  0  0
 19 45  1  0  0  0  0
 20 25  1  0  0  0  0
 20 48  1  0  0  0  0
 20 49  1  0  0  0  0
 21 50  1  0  0  0  0
 21 51  1  0  0  0  0
 21 52  1  0  0  0  0
 22 53  1  0  0  0  0
 22 54  1  0  0  0  0
 22 55  1  0  0  0  0
 23 24  1  0  0  0  0
 23 27  1  0  0  0  0
 23 56  1  0  0  0  0
 24 29  1  0  0  0  0
 24 57  1  0  0  0  0
 24 58  1  0  0  0  0
 25 30  2  0  0  0  0
 25 31  1  0  0  0  0
 26 28  1  0  0  0  0
 27 59  1  0  0  0  0
 28 32  1  0  0  0  0
 28 60  1  0  0  0  0
 28 61  1  0  0  0  0
 29 62  1  0  0  0  0
 29 63  1  0  0  0  0
 29 64  1  0  0  0  0
 30 33  1  0  0  0  0
 30 65  1  0  0  0  0
 31 34  2  0  0  0  0
 31 66  1  0  0  0  0
 32 36  2  0  0  0  0
 33 35  2  0  0  0  0
 33 67  1  0  0  0  0
 34 35  1  0  0  0  0
 34 68  1  0  0  0  0
 35 69  1  0  0  0  0
 36 70  1  0  0  0  0
M  END
> <PUBCHEM_COMPOUND_CID>
506780
> <PUBCHEM_COMPOUND_CANONICALIZED>
1
> <PUBCHEM_CACTVS_COMPLEXITY>
793
> <PUBCHEM_CACTVS_HBOND_ACCEPTOR>
8
> <PUBCHEM_CACTVS_HBOND_DONOR>
3
> <PUBCHEM_CACTVS_ROTATABLE_BOND>
12
> <PUBCHEM_CACTVS_SUBSKEYS>
AAADcfB7uABAAAAAAAAAAAAAAAAAAWLAAAAwAAAAAAAAAAABwAAAHgQQAAAADTzl3gazkZPIFAisAy1y9AAC8KlhCjkIiJW4KIiKZjqg9TmXMAAm1gOYqCe6wSAOAAAAAAAAAAAAAAAAAAAAAAAAAAAAAA==
> <PUBCHEM_IUPAC_OPENEYE_NAME>
(2S,4R)-1-[(2S)-2-[[2-(2-aminothiazol-4-yl)acetyl]amino]-3-methyl-butanoyl]-4-benzyloxy-N-[(1S)-1-formylpropyl]pyrrolidine-2-carboxamide
> <PUBCHEM_IUPAC_CAS_NAME>
(2S,4R)-1-[(2S)-2-[[2-(2-amino-4-thiazolyl)-1-oxoethyl]amino]-3-methyl-1-oxobutyl]-N-[(2S)-1-oxobutan-2-yl]-4-phenylmethoxy-2-pyrrolidinecarboxamide
> <PUBCHEM_IUPAC_NAME_MARKUP>
(2<I>S</I>,4<I>R</I>)-1-[(2<I>S</I>)-2-[[2-(2-amino-1,3-thiazol-4-yl)acetyl]amino]-3-methylbutanoyl]-<I>N</I>-[(2<I>S</I>)-1-oxobutan-2-yl]-4-phenylmethoxypyrrolidine-2-carboxamide
> <PUBCHEM_IUPAC_NAME>
(2S,4R)-1-[(2S)-2-[[2-(2-amino-1,3-thiazol-4-yl)acetyl]amino]-3-methylbutanoyl]-N-[(2S)-1-oxobutan-2-yl]-4-phenylmethoxypyrrolidine-2-carboxamide
> <PUBCHEM_IUPAC_SYSTEMATIC_NAME>
(2S,4R)-1-[(2S)-2-[2-(2-azanyl-1,3-thiazol-4-yl)ethanoylamino]-3-methyl-butanoyl]-N-[(2S)-1-oxidanylidenebutan-2-yl]-4-phenylmethoxy-pyrrolidine-2-carboxamide
> <PUBCHEM_IUPAC_TRADITIONAL_NAME>
(2S,4R)-1-[(2S)-2-[[2-(2-aminothiazol-4-yl)acetyl]amino]-3-methyl-butanoyl]-4-benzoxy-N-[(1S)-1-formylpropyl]pyrrolidine-2-carboxamide
> <PUBCHEM_IUPAC_INCHI>
InChI=1S/C26H35N5O5S/c1-4-18(13-32)28-24(34)21-11-20(36-14-17-8-6-5-7-9-17)12-31(21)25(35)23(16(2)3)30-22(33)10-19-15-37-26(27)29-19/h5-9,13,15-16,18,20-21,23H,4,10-12,14H2,1-3H3,(H2,27,29)(H,28,34)(H,30,33)/t18-,20+,21-,23-/m0/s1
> <PUBCHEM_IUPAC_INCHIKEY>
DPJVEUFDCPQVJU-SQMWVJLWSA-N
> <PUBCHEM_XLOGP3_AA>
2.1
> <PUBCHEM_EXACT_MASS>
529.23589041
> <PUBCHEM_MOLECULAR_FORMULA>
C26H35N5O5S
> <PUBCHEM_MOLECULAR_WEIGHT>
529.7
> <PUBCHEM_OPENEYE_CAN_SMILES>
CCC(C=O)NC(=O)C1CC(CN1C(=O)C(C(C)C)NC(=O)CC2=CSC(=N2)N)OCC3=CC=CC=C3
> <PUBCHEM_OPENEYE_ISO_SMILES>
CC[C@@H](C=O)NC(=O)[C@@H]1C[C@H](CN1C(=O)[C@H](C(C)C)NC(=O)CC2=CSC(=N2)N)OCC3=CC=CC=C3
> <PUBCHEM_CACTVS_TPSA>
172
> <PUBCHEM_MONOISOTOPIC_WEIGHT>
529.23589041
> <PUBCHEM_TOTAL_CHARGE>
0
> <PUBCHEM_HEAVY_ATOM_COUNT>
37
> <PUBCHEM_ATOM_DEF_STEREO_COUNT>
4
> <PUBCHEM_ATOM_UDEF_STEREO_COUNT>
0
> <PUBCHEM_BOND_DEF_STEREO_COUNT>
0
> <PUBCHEM_BOND_UDEF_STEREO_COUNT>
0
> <PUBCHEM_ISOTOPIC_ATOM_COUNT>
0
> <PUBCHEM_COMPONENT_COUNT>
1
> <PUBCHEM_CACTVS_TAUTO_COUNT>
-1
> <PUBCHEM_COORDINATE_TYPE>
1
5
255
> <PUBCHEM_BONDANNOTATIONS>
1  36  8
1  37  8
10  32  8
10  37  8
12  18  5
13  2  6
25  30  8
25  31  8
30  33  8
31  34  8
32  36  8
33  35  8
34  35  8
23  8  6
17  9  5
$$$$
