506712
  -OEChem-10302200282D
 92 94  0     1  0  0  0  0  0999 V2000
    7.5113    3.9514    0.0000 O   0  0  0  0  0  0  0  0  0  0  0  0
    9.4651    0.1035    0.0000 O   0  0  0  0  0  0  0  0  0  0  0  0
   10.5671    0.9041    0.0000 O   0  0  0  0  0  0  0  0  0  0  0  0
    6.0010   -0.8965    0.0000 O   0  0  0  0  0  0  0  0  0  0  0  0
   13.7476    2.6025    0.0000 O   0  0  0  0  0  0  0  0  0  0  0  0
    6.8671   -4.3965    0.0000 O   0  0  0  0  0  0  0  0  0  0  0  0
    2.5369   -5.8965    0.0000 O   0  0  0  0  0  0  0  0  0  0  0  0
    3.4030   -4.3965    0.0000 O   0  0  0  0  0  0  0  0  0  0  0  0
    8.5991    1.6035    0.0000 N   0  0  0  0  0  0  0  0  0  0  0  0
    7.7331   -0.8965    0.0000 N   0  0  0  0  0  0  0  0  0  0  0  0
   11.1023    2.5514    0.0000 N   0  0  0  0  0  0  0  0  0  0  0  0
    6.0010   -2.8965    0.0000 N   0  0  0  0  0  0  0  0  0  0  0  0
    5.1350   -4.3965    0.0000 N   0  0  0  0  0  0  0  0  0  0  0  0
    9.4081    2.1913    0.0000 C   0  0  1  0  0  0  0  0  0  0  0  0
    8.0991    3.1424    0.0000 C   0  0  2  0  0  0  0  0  0  0  0  0
    9.0991    3.1424    0.0000 C   0  0  0  0  0  0  0  0  0  0  0  0
    7.7901    2.1913    0.0000 C   0  0  0  0  0  0  0  0  0  0  0  0
    8.5991    0.6035    0.0000 C   0  0  0  0  0  0  0  0  0  0  0  0
    7.7331    0.1035    0.0000 C   0  0  2  0  0  0  0  0  0  0  0  0
   10.3592    1.8823    0.0000 C   0  0  0  0  0  0  0  0  0  0  0  0
    6.8671    0.6035    0.0000 C   0  0  0  0  0  0  0  0  0  0  0  0
    7.9181    4.8649    0.0000 C   0  0  0  0  0  0  0  0  0  0  0  0
    6.0010    0.1035    0.0000 C   0  0  0  0  0  0  0  0  0  0  0  0
    6.8671    1.6035    0.0000 C   0  0  0  0  0  0  0  0  0  0  0  0
   12.0534    2.2424    0.0000 C   0  0  1  0  0  0  0  0  0  0  0  0
    6.8671   -1.3965    0.0000 C   0  0  0  0  0  0  0  0  0  0  0  0
    6.8671   -2.3965    0.0000 C   0  0  2  0  0  0  0  0  0  0  0  0
    7.7331   -2.8965    0.0000 C   0  0  0  0  0  0  0  0  0  0  0  0
    7.3303    5.6739    0.0000 C   0  0  0  0  0  0  0  0  0  0  0  0
   12.2613    1.2642    0.0000 C   0  0  0  0  0  0  0  0  0  0  0  0
   12.7965    2.9115    0.0000 C   0  0  0  0  0  0  0  0  0  0  0  0
    8.5991   -2.3965    0.0000 C   0  0  0  0  0  0  0  0  0  0  0  0
    7.7331   -3.8965    0.0000 C   0  0  0  0  0  0  0  0  0  0  0  0
   13.2124    0.9552    0.0000 C   0  0  0  0  0  0  0  0  0  0  0  0
    6.3358    5.5694    0.0000 C   0  0  0  0  0  0  0  0  0  0  0  0
    7.7370    6.5875    0.0000 C   0  0  0  0  0  0  0  0  0  0  0  0
    6.0010   -3.8965    0.0000 C   0  0  0  0  0  0  0  0  0  0  0  0
    5.7480    6.3784    0.0000 C   0  0  0  0  0  0  0  0  0  0  0  0
    7.1492    7.3965    0.0000 C   0  0  0  0  0  0  0  0  0  0  0  0
    6.1547    7.2920    0.0000 C   0  0  0  0  0  0  0  0  0  0  0  0
    5.1350   -5.3965    0.0000 C   0  0  0  0  0  0  0  0  0  0  0  0
    4.2690   -5.8965    0.0000 C   0  0  0  0  0  0  0  0  0  0  0  0
    6.0010   -5.8965    0.0000 C   0  0  0  0  0  0  0  0  0  0  0  0
    4.2690   -6.8965    0.0000 C   0  0  0  0  0  0  0  0  0  0  0  0
    6.0010   -6.8965    0.0000 C   0  0  0  0  0  0  0  0  0  0  0  0
    5.1350   -7.3965    0.0000 C   0  0  0  0  0  0  0  0  0  0  0  0
    3.4030   -5.3965    0.0000 C   0  0  0  0  0  0  0  0  0  0  0  0
    9.5051    1.5789    0.0000 H   0  0  0  0  0  0  0  0  0  0  0  0
    7.4868    3.0454    0.0000 H   0  0  0  0  0  0  0  0  0  0  0  0
    9.7056    3.2713    0.0000 H   0  0  0  0  0  0  0  0  0  0  0  0
    9.0343    3.7590    0.0000 H   0  0  0  0  0  0  0  0  0  0  0  0
    7.2237    2.4435    0.0000 H   0  0  0  0  0  0  0  0  0  0  0  0
    7.4801    1.6544    0.0000 H   0  0  0  0  0  0  0  0  0  0  0  0
    8.2700   -0.2065    0.0000 H   0  0  0  0  0  0  0  0  0  0  0  0
    6.3301    0.9135    0.0000 H   0  0  0  0  0  0  0  0  0  0  0  0
    8.2700   -1.2065    0.0000 H   0  0  0  0  0  0  0  0  0  0  0  0
   10.9734    3.1579    0.0000 H   0  0  0  0  0  0  0  0  0  0  0  0
    8.4321    4.5182    0.0000 H   0  0  0  0  0  0  0  0  0  0  0  0
    8.3488    5.3109    0.0000 H   0  0  0  0  0  0  0  0  0  0  0  0
    5.6910    0.6404    0.0000 H   0  0  0  0  0  0  0  0  0  0  0  0
    5.4641   -0.2065    0.0000 H   0  0  0  0  0  0  0  0  0  0  0  0
    6.3110   -0.4334    0.0000 H   0  0  0  0  0  0  0  0  0  0  0  0
    7.4871    1.6035    0.0000 H   0  0  0  0  0  0  0  0  0  0  0  0
    6.8671    2.2235    0.0000 H   0  0  0  0  0  0  0  0  0  0  0  0
    6.2471    1.6035    0.0000 H   0  0  0  0  0  0  0  0  0  0  0  0
   11.5926    1.8275    0.0000 H   0  0  0  0  0  0  0  0  0  0  0  0
    6.3301   -2.0865    0.0000 H   0  0  0  0  0  0  0  0  0  0  0  0
    7.7331   -2.2765    0.0000 H   0  0  0  0  0  0  0  0  0  0  0  0
   11.6417    1.2426    0.0000 H   0  0  0  0  0  0  0  0  0  0  0  0
   12.1750    0.6503    0.0000 H   0  0  0  0  0  0  0  0  0  0  0  0
    5.4641   -2.5865    0.0000 H   0  0  0  0  0  0  0  0  0  0  0  0
   12.6676    3.5180    0.0000 H   0  0  0  0  0  0  0  0  0  0  0  0
    8.9091   -2.9334    0.0000 H   0  0  0  0  0  0  0  0  0  0  0  0
    9.1360   -2.0865    0.0000 H   0  0  0  0  0  0  0  0  0  0  0  0
    8.2891   -1.8596    0.0000 H   0  0  0  0  0  0  0  0  0  0  0  0
    7.1131   -3.8965    0.0000 H   0  0  0  0  0  0  0  0  0  0  0  0
    7.7331   -4.5165    0.0000 H   0  0  0  0  0  0  0  0  0  0  0  0
    8.3531   -3.8965    0.0000 H   0  0  0  0  0  0  0  0  0  0  0  0
   13.0208    0.3656    0.0000 H   0  0  0  0  0  0  0  0  0  0  0  0
   13.8020    0.7636    0.0000 H   0  0  0  0  0  0  0  0  0  0  0  0
   13.4039    1.5449    0.0000 H   0  0  0  0  0  0  0  0  0  0  0  0
    6.0836    5.0030    0.0000 H   0  0  0  0  0  0  0  0  0  0  0  0
    8.3536    6.6523    0.0000 H   0  0  0  0  0  0  0  0  0  0  0  0
    5.1314    6.3136    0.0000 H   0  0  0  0  0  0  0  0  0  0  0  0
    7.4014    7.9629    0.0000 H   0  0  0  0  0  0  0  0  0  0  0  0
    5.7903    7.7936    0.0000 H   0  0  0  0  0  0  0  0  0  0  0  0
    4.5981   -4.0865    0.0000 H   0  0  0  0  0  0  0  0  0  0  0  0
    6.5380   -5.5865    0.0000 H   0  0  0  0  0  0  0  0  0  0  0  0
    3.7320   -7.2065    0.0000 H   0  0  0  0  0  0  0  0  0  0  0  0
    6.5380   -7.2065    0.0000 H   0  0  0  0  0  0  0  0  0  0  0  0
    5.1350   -8.0165    0.0000 H   0  0  0  0  0  0  0  0  0  0  0  0
    2.0000   -5.5865    0.0000 H   0  0  0  0  0  0  0  0  0  0  0  0
 15  1  1  6  0  0  0
  1 22  1  0  0  0  0
  2 18  2  0  0  0  0
  3 20  2  0  0  0  0
  4 26  2  0  0  0  0
  5 31  2  0  0  0  0
  6 37  2  0  0  0  0
  7 47  1  0  0  0  0
  7 92  1  0  0  0  0
  8 47  2  0  0  0  0
  9 14  1  0  0  0  0
  9 17  1  0  0  0  0
  9 18  1  0  0  0  0
 19 10  1  1  0  0  0
 10 26  1  0  0  0  0
 10 56  1  0  0  0  0
 11 20  1  0  0  0  0
 25 11  1  6  0  0  0
 11 57  1  0  0  0  0
 27 12  1  6  0  0  0
 12 37  1  0  0  0  0
 12 71  1  0  0  0  0
 13 37  1  0  0  0  0
 13 41  1  0  0  0  0
 13 87  1  0  0  0  0
 14 16  1  0  0  0  0
 14 20  1  1  0  0  0
 14 48  1  0  0  0  0
 15 16  1  0  0  0  0
 15 17  1  0  0  0  0
 15 49  1  0  0  0  0
 16 50  1  0  0  0  0
 16 51  1  0  0  0  0
 17 52  1  0  0  0  0
 17 53  1  0  0  0  0
 18 19  1  0  0  0  0
 19 21  1  0  0  0  0
 19 54  1  0  0  0  0
 21 23  1  0  0  0  0
 21 24  1  0  0  0  0
 21 55  1  0  0  0  0
 22 29  1  0  0  0  0
 22 58  1  0  0  0  0
 22 59  1  0  0  0  0
 23 60  1  0  0  0  0
 23 61  1  0  0  0  0
 23 62  1  0  0  0  0
 24 63  1  0  0  0  0
 24 64  1  0  0  0  0
 24 65  1  0  0  0  0
 25 30  1  0  0  0  0
 25 31  1  0  0  0  0
 25 66  1  0  0  0  0
 26 27  1  0  0  0  0
 27 28  1  0  0  0  0
 27 67  1  0  0  0  0
 28 32  1  0  0  0  0
 28 33  1  0  0  0  0
 28 68  1  0  0  0  0
 29 35  2  0  0  0  0
 29 36  1  0  0  0  0
 30 34  1  0  0  0  0
 30 69  1  0  0  0  0
 30 70  1  0  0  0  0
 31 72  1  0  0  0  0
 32 73  1  0  0  0  0
 32 74  1  0  0  0  0
 32 75  1  0  0  0  0
 33 76  1  0  0  0  0
 33 77  1  0  0  0  0
 33 78  1  0  0  0  0
 34 79  1  0  0  0  0
 34 80  1  0  0  0  0
 34 81  1  0  0  0  0
 35 38  1  0  0  0  0
 35 82  1  0  0  0  0
 36 39  2  0  0  0  0
 36 83  1  0  0  0  0
 38 40  2  0  0  0  0
 38 84  1  0  0  0  0
 39 40  1  0  0  0  0
 39 85  1  0  0  0  0
 40 86  1  0  0  0  0
 41 42  1  0  0  0  0
 41 43  2  0  0  0  0
 42 44  2  0  0  0  0
 42 47  1  0  0  0  0
 43 45  1  0  0  0  0
 43 88  1  0  0  0  0
 44 46  1  0  0  0  0
 44 89  1  0  0  0  0
 45 46  2  0  0  0  0
 45 90  1  0  0  0  0
 46 91  1  0  0  0  0
M  END
> <PUBCHEM_COMPOUND_CID>
506712
> <PUBCHEM_COMPOUND_CANONICALIZED>
1
> <PUBCHEM_CACTVS_COMPLEXITY>
1090
> <PUBCHEM_CACTVS_HBOND_ACCEPTOR>
8
> <PUBCHEM_CACTVS_HBOND_DONOR>
5
> <PUBCHEM_CACTVS_ROTATABLE_BOND>
15
> <PUBCHEM_CACTVS_SUBSKEYS>
AAADcfB/vAAAAAAAAAAAAAAAAAAAAWAAAAAwYAAAAAAAAAABQAAAHgAQCAAADTzhmAYzyIPABgCIAi3S2ACCAAAlAgAIiIGIbMiKZjrAtbmXcYhu1gPY+ee6ySCOAAAAAAACAAAAAAAAAAQAAAAAAAAAAA==
> <PUBCHEM_IUPAC_OPENEYE_NAME>
2-[[(1S)-1-[[(1S)-1-[(2S,4R)-4-benzyloxy-2-[[(1S)-1-formylpropyl]carbamoyl]pyrrolidine-1-carbonyl]-2-methyl-propyl]carbamoyl]-2-methyl-propyl]carbamoylamino]benzoic acid
> <PUBCHEM_IUPAC_CAS_NAME>
2-[[[[(2S)-3-methyl-1-[[(2S)-3-methyl-1-oxo-1-[(2S,4R)-2-[oxo-[[(2S)-1-oxobutan-2-yl]amino]methyl]-4-phenylmethoxy-1-pyrrolidinyl]butan-2-yl]amino]-1-oxobutan-2-yl]amino]-oxomethyl]amino]benzoic acid
> <PUBCHEM_IUPAC_NAME_MARKUP>
2-[[(2<I>S</I>)-3-methyl-1-[[(2<I>S</I>)-3-methyl-1-oxo-1-[(2<I>S</I>,4<I>R</I>)-2-[[(2<I>S</I>)-1-oxobutan-2-yl]carbamoyl]-4-phenylmethoxypyrrolidin-1-yl]butan-2-yl]amino]-1-oxobutan-2-yl]carbamoylamino]benzoic acid
> <PUBCHEM_IUPAC_NAME>
2-[[(2S)-3-methyl-1-[[(2S)-3-methyl-1-oxo-1-[(2S,4R)-2-[[(2S)-1-oxobutan-2-yl]carbamoyl]-4-phenylmethoxypyrrolidin-1-yl]butan-2-yl]amino]-1-oxobutan-2-yl]carbamoylamino]benzoic acid
> <PUBCHEM_IUPAC_SYSTEMATIC_NAME>
2-[[(2S)-3-methyl-1-[[(2S)-3-methyl-1-oxidanylidene-1-[(2S,4R)-2-[[(2S)-1-oxidanylidenebutan-2-yl]carbamoyl]-4-phenylmethoxy-pyrrolidin-1-yl]butan-2-yl]amino]-1-oxidanylidene-butan-2-yl]carbamoylamino]benzoic acid
> <PUBCHEM_IUPAC_TRADITIONAL_NAME>
2-[[(1S)-1-[[(1S)-1-[(2S,4R)-4-benzoxy-2-[[(1S)-1-formylpropyl]carbamoyl]pyrrolidine-1-carbonyl]-2-methyl-propyl]carbamoyl]-2-methyl-propyl]carbamoylamino]benzoic acid
> <PUBCHEM_IUPAC_INCHI>
InChI=1S/C34H45N5O8/c1-6-23(18-40)35-30(41)27-16-24(47-19-22-12-8-7-9-13-22)17-39(27)32(43)29(21(4)5)37-31(42)28(20(2)3)38-34(46)36-26-15-11-10-14-25(26)33(44)45/h7-15,18,20-21,23-24,27-29H,6,16-17,19H2,1-5H3,(H,35,41)(H,37,42)(H,44,45)(H2,36,38,46)/t23-,24+,27-,28-,29-/m0/s1
> <PUBCHEM_IUPAC_INCHIKEY>
CEZHPXDWSXSIEY-BHBAPUPVSA-N
> <PUBCHEM_XLOGP3_AA>
4
> <PUBCHEM_EXACT_MASS>
651.32681341
> <PUBCHEM_MOLECULAR_FORMULA>
C34H45N5O8
> <PUBCHEM_MOLECULAR_WEIGHT>
651.7
> <PUBCHEM_OPENEYE_CAN_SMILES>
CCC(C=O)NC(=O)C1CC(CN1C(=O)C(C(C)C)NC(=O)C(C(C)C)NC(=O)NC2=CC=CC=C2C(=O)O)OCC3=CC=CC=C3
> <PUBCHEM_OPENEYE_ISO_SMILES>
CC[C@@H](C=O)NC(=O)[C@@H]1C[C@H](CN1C(=O)[C@H](C(C)C)NC(=O)[C@H](C(C)C)NC(=O)NC2=CC=CC=C2C(=O)O)OCC3=CC=CC=C3
> <PUBCHEM_CACTVS_TPSA>
183
> <PUBCHEM_MONOISOTOPIC_WEIGHT>
651.32681341
> <PUBCHEM_TOTAL_CHARGE>
0
> <PUBCHEM_HEAVY_ATOM_COUNT>
47
> <PUBCHEM_ATOM_DEF_STEREO_COUNT>
5
> <PUBCHEM_ATOM_UDEF_STEREO_COUNT>
0
> <PUBCHEM_BOND_DEF_STEREO_COUNT>
0
> <PUBCHEM_BOND_UDEF_STEREO_COUNT>
0
> <PUBCHEM_ISOTOPIC_ATOM_COUNT>
0
> <PUBCHEM_COMPONENT_COUNT>
1
> <PUBCHEM_CACTVS_TAUTO_COUNT>
-1
> <PUBCHEM_COORDINATE_TYPE>
1
5
255
> <PUBCHEM_BONDANNOTATIONS>
15  1  6
19  10  5
25  11  6
27  12  6
14  20  5
29  35  8
29  36  8
35  38  8
36  39  8
38  40  8
39  40  8
41  42  8
41  43  8
42  44  8
43  45  8
44  46  8
45  46  8
$$$$
