506704
  -OEChem-10302200282D
105108  0     1  0  0  0  0  0999 V2000
    7.4269    3.8803    0.0000 O   0  0  0  0  0  0  0  0  0  0  0  0
    9.7823    0.2643    0.0000 O   0  0  0  0  0  0  0  0  0  0  0  0
    8.5380   -0.2897    0.0000 O   0  0  0  0  0  0  0  0  0  0  0  0
   12.3804    2.7644    0.0000 O   0  0  0  0  0  0  0  0  0  0  0  0
    4.9417   -0.5476    0.0000 O   0  0  0  0  0  0  0  0  0  0  0  0
    6.2200   -2.8640    0.0000 O   0  0  0  0  0  0  0  0  0  0  0  0
   14.9785    0.2643    0.0000 O   0  0  0  0  0  0  0  0  0  0  0  0
    8.9163    1.7644    0.0000 N   0  0  0  0  0  0  0  0  0  0  0  0
   11.5144    1.2644    0.0000 N   0  0  0  0  0  0  0  0  0  0  0  0
    6.8438    0.0704    0.0000 N   0  0  0  0  0  0  0  0  0  0  0  0
   14.1125    1.7644    0.0000 N   0  0  0  0  0  0  0  0  0  0  0  0
    4.5258   -2.5039    0.0000 N   0  0  0  0  0  0  0  0  0  0  0  0
   16.7105    1.2644    0.0000 N   0  0  0  0  0  0  0  0  0  0  0  0
   16.7105    3.2644    0.0000 N   0  0  0  0  0  0  0  0  0  0  0  0
    8.0028    1.3576    0.0000 C   0  0  1  0  0  0  0  0  0  0  0  0
    7.8336    2.9668    0.0000 C   0  0  2  0  0  0  0  0  0  0  0  0
    7.3336    2.1008    0.0000 C   0  0  0  0  0  0  0  0  0  0  0  0
    8.8118    2.7589    0.0000 C   0  0  0  0  0  0  0  0  0  0  0  0
    9.7823    1.2644    0.0000 C   0  0  0  0  0  0  0  0  0  0  0  0
   10.6483    1.7644    0.0000 C   0  0  2  0  0  0  0  0  0  0  0  0
    7.7948    0.3795    0.0000 C   0  0  0  0  0  0  0  0  0  0  0  0
   10.6483    2.7644    0.0000 C   0  0  0  0  0  0  0  0  0  0  0  0
    6.4324    3.9848    0.0000 C   0  0  0  0  0  0  0  0  0  0  0  0
    6.6359   -0.9077    0.0000 C   0  0  1  0  0  0  0  0  0  0  0  0
   11.5144    3.2644    0.0000 C   0  0  0  0  0  0  0  0  0  0  0  0
    9.7823    3.2644    0.0000 C   0  0  0  0  0  0  0  0  0  0  0  0
   12.3804    1.7644    0.0000 C   0  0  0  0  0  0  0  0  0  0  0  0
   13.2464    1.2644    0.0000 C   0  0  2  0  0  0  0  0  0  0  0  0
    7.3790   -1.5768    0.0000 C   0  0  0  0  0  0  0  0  0  0  0  0
   13.2464    0.2643    0.0000 C   0  0  0  0  0  0  0  0  0  0  0  0
    6.0256    4.8984    0.0000 C   0  0  0  0  0  0  0  0  0  0  0  0
    5.6848   -1.2167    0.0000 C   0  0  0  0  0  0  0  0  0  0  0  0
    7.1711   -2.5550    0.0000 C   0  0  0  0  0  0  0  0  0  0  0  0
   12.3804   -0.2357    0.0000 C   0  0  0  0  0  0  0  0  0  0  0  0
   14.1125   -0.2357    0.0000 C   0  0  0  0  0  0  0  0  0  0  0  0
    6.6134    5.7074    0.0000 C   0  0  0  0  0  0  0  0  0  0  0  0
    5.0311    5.0029    0.0000 C   0  0  0  0  0  0  0  0  0  0  0  0
    5.4769   -2.1949    0.0000 C   0  0  0  0  0  0  0  0  0  0  0  0
   14.9785    1.2644    0.0000 C   0  0  0  0  0  0  0  0  0  0  0  0
    6.2067    6.6210    0.0000 C   0  0  0  0  0  0  0  0  0  0  0  0
    4.6244    5.9165    0.0000 C   0  0  0  0  0  0  0  0  0  0  0  0
    5.2122    6.7255    0.0000 C   0  0  0  0  0  0  0  0  0  0  0  0
    4.3179   -3.4820    0.0000 C   0  0  0  0  0  0  0  0  0  0  0  0
   15.8445    1.7644    0.0000 C   0  0  0  0  0  0  0  0  0  0  0  0
    3.3669   -3.7910    0.0000 C   0  0  0  0  0  0  0  0  0  0  0  0
   15.8445    2.7644    0.0000 C   0  0  0  0  0  0  0  0  0  0  0  0
    3.1590   -4.7692    0.0000 C   0  0  0  0  0  0  0  0  0  0  0  0
   17.5766    1.7644    0.0000 C   0  0  0  0  0  0  0  0  0  0  0  0
    2.2079   -5.0782    0.0000 C   0  0  0  0  0  0  0  0  0  0  0  0
    3.9021   -5.4383    0.0000 C   0  0  0  0  0  0  0  0  0  0  0  0
   17.5766    2.7644    0.0000 C   0  0  0  0  0  0  0  0  0  0  0  0
    2.0000   -6.0564    0.0000 C   0  0  0  0  0  0  0  0  0  0  0  0
    3.6942   -6.4165    0.0000 C   0  0  0  0  0  0  0  0  0  0  0  0
    2.7431   -6.7255    0.0000 C   0  0  0  0  0  0  0  0  0  0  0  0
    8.4846    0.9674    0.0000 H   0  0  0  0  0  0  0  0  0  0  0  0
    7.2145    2.9992    0.0000 H   0  0  0  0  0  0  0  0  0  0  0  0
    6.8320    2.4652    0.0000 H   0  0  0  0  0  0  0  0  0  0  0  0
    6.9188    1.6400    0.0000 H   0  0  0  0  0  0  0  0  0  0  0  0
    9.4318    2.7589    0.0000 H   0  0  0  0  0  0  0  0  0  0  0  0
    8.8766    3.3755    0.0000 H   0  0  0  0  0  0  0  0  0  0  0  0
   10.6483    1.1444    0.0000 H   0  0  0  0  0  0  0  0  0  0  0  0
   10.1114    2.4543    0.0000 H   0  0  0  0  0  0  0  0  0  0  0  0
   11.5144    0.6443    0.0000 H   0  0  0  0  0  0  0  0  0  0  0  0
    6.3830    0.4853    0.0000 H   0  0  0  0  0  0  0  0  0  0  0  0
    5.8308    3.8349    0.0000 H   0  0  0  0  0  0  0  0  0  0  0  0
    6.4756    3.3664    0.0000 H   0  0  0  0  0  0  0  0  0  0  0  0
    7.2255   -0.7161    0.0000 H   0  0  0  0  0  0  0  0  0  0  0  0
   11.8244    2.7274    0.0000 H   0  0  0  0  0  0  0  0  0  0  0  0
   12.0513    3.5744    0.0000 H   0  0  0  0  0  0  0  0  0  0  0  0
   11.2044    3.8013    0.0000 H   0  0  0  0  0  0  0  0  0  0  0  0
   10.0923    3.8013    0.0000 H   0  0  0  0  0  0  0  0  0  0  0  0
    9.2454    3.5744    0.0000 H   0  0  0  0  0  0  0  0  0  0  0  0
    9.4723    2.7274    0.0000 H   0  0  0  0  0  0  0  0  0  0  0  0
   13.2464    1.8844    0.0000 H   0  0  0  0  0  0  0  0  0  0  0  0
    7.9539   -1.8091    0.0000 H   0  0  0  0  0  0  0  0  0  0  0  0
    7.7076   -1.0510    0.0000 H   0  0  0  0  0  0  0  0  0  0  0  0
   13.7834    0.5743    0.0000 H   0  0  0  0  0  0  0  0  0  0  0  0
   14.1125    2.3844    0.0000 H   0  0  0  0  0  0  0  0  0  0  0  0
    6.5646   -2.4261    0.0000 H   0  0  0  0  0  0  0  0  0  0  0  0
    7.0422   -3.1614    0.0000 H   0  0  0  0  0  0  0  0  0  0  0  0
    7.7776   -2.6839    0.0000 H   0  0  0  0  0  0  0  0  0  0  0  0
   12.0704    0.3013    0.0000 H   0  0  0  0  0  0  0  0  0  0  0  0
   11.8435   -0.5457    0.0000 H   0  0  0  0  0  0  0  0  0  0  0  0
   12.6904   -0.7726    0.0000 H   0  0  0  0  0  0  0  0  0  0  0  0
   13.8025   -0.7726    0.0000 H   0  0  0  0  0  0  0  0  0  0  0  0
   14.6494   -0.5457    0.0000 H   0  0  0  0  0  0  0  0  0  0  0  0
   14.4225    0.3013    0.0000 H   0  0  0  0  0  0  0  0  0  0  0  0
    7.2300    5.6426    0.0000 H   0  0  0  0  0  0  0  0  0  0  0  0
    4.6667    4.5013    0.0000 H   0  0  0  0  0  0  0  0  0  0  0  0
    6.5711    7.1226    0.0000 H   0  0  0  0  0  0  0  0  0  0  0  0
    4.0078    5.9813    0.0000 H   0  0  0  0  0  0  0  0  0  0  0  0
    4.9600    7.2919    0.0000 H   0  0  0  0  0  0  0  0  0  0  0  0
    4.0651   -2.0890    0.0000 H   0  0  0  0  0  0  0  0  0  0  0  0
    4.4042   -4.0960    0.0000 H   0  0  0  0  0  0  0  0  0  0  0  0
    4.9376   -3.5037    0.0000 H   0  0  0  0  0  0  0  0  0  0  0  0
    3.2806   -3.1771    0.0000 H   0  0  0  0  0  0  0  0  0  0  0  0
    2.7473   -3.7694    0.0000 H   0  0  0  0  0  0  0  0  0  0  0  0
   15.3076    3.0744    0.0000 H   0  0  0  0  0  0  0  0  0  0  0  0
   18.1135    1.4544    0.0000 H   0  0  0  0  0  0  0  0  0  0  0  0
    1.7472   -4.6634    0.0000 H   0  0  0  0  0  0  0  0  0  0  0  0
    4.4918   -5.2467    0.0000 H   0  0  0  0  0  0  0  0  0  0  0  0
   18.1135    3.0744    0.0000 H   0  0  0  0  0  0  0  0  0  0  0  0
    1.4103   -6.2480    0.0000 H   0  0  0  0  0  0  0  0  0  0  0  0
    4.1550   -6.8313    0.0000 H   0  0  0  0  0  0  0  0  0  0  0  0
    2.6142   -7.3319    0.0000 H   0  0  0  0  0  0  0  0  0  0  0  0
 16  1  1  1  0  0  0
  1 23  1  0  0  0  0
  2 19  2  0  0  0  0
  3 21  2  0  0  0  0
  4 27  2  0  0  0  0
  5 32  2  0  0  0  0
  6 38  2  0  0  0  0
  7 39  2  0  0  0  0
  8 15  1  0  0  0  0
  8 18  1  0  0  0  0
  8 19  1  0  0  0  0
 20  9  1  6  0  0  0
  9 27  1  0  0  0  0
  9 63  1  0  0  0  0
 10 21  1  0  0  0  0
 24 10  1  1  0  0  0
 10 64  1  0  0  0  0
 28 11  1  1  0  0  0
 11 39  1  0  0  0  0
 11 78  1  0  0  0  0
 12 38  1  0  0  0  0
 12 43  1  0  0  0  0
 12 93  1  0  0  0  0
 13 44  2  0  0  0  0
 13 48  1  0  0  0  0
 14 46  2  0  0  0  0
 14 51  1  0  0  0  0
 15 17  1  0  0  0  0
 15 21  1  6  0  0  0
 15 55  1  0  0  0  0
 16 17  1  0  0  0  0
 16 18  1  0  0  0  0
 16 56  1  0  0  0  0
 17 57  1  0  0  0  0
 17 58  1  0  0  0  0
 18 59  1  0  0  0  0
 18 60  1  0  0  0  0
 19 20  1  0  0  0  0
 20 22  1  0  0  0  0
 20 61  1  0  0  0  0
 22 25  1  0  0  0  0
 22 26  1  0  0  0  0
 22 62  1  0  0  0  0
 23 31  1  0  0  0  0
 23 65  1  0  0  0  0
 23 66  1  0  0  0  0
 24 29  1  0  0  0  0
 24 32  1  0  0  0  0
 24 67  1  0  0  0  0
 25 68  1  0  0  0  0
 25 69  1  0  0  0  0
 25 70  1  0  0  0  0
 26 71  1  0  0  0  0
 26 72  1  0  0  0  0
 26 73  1  0  0  0  0
 27 28  1  0  0  0  0
 28 30  1  0  0  0  0
 28 74  1  0  0  0  0
 29 33  1  0  0  0  0
 29 75  1  0  0  0  0
 29 76  1  0  0  0  0
 30 34  1  0  0  0  0
 30 35  1  0  0  0  0
 30 77  1  0  0  0  0
 31 36  2  0  0  0  0
 31 37  1  0  0  0  0
 32 38  1  0  0  0  0
 33 79  1  0  0  0  0
 33 80  1  0  0  0  0
 33 81  1  0  0  0  0
 34 82  1  0  0  0  0
 34 83  1  0  0  0  0
 34 84  1  0  0  0  0
 35 85  1  0  0  0  0
 35 86  1  0  0  0  0
 35 87  1  0  0  0  0
 36 40  1  0  0  0  0
 36 88  1  0  0  0  0
 37 41  2  0  0  0  0
 37 89  1  0  0  0  0
 39 44  1  0  0  0  0
 40 42  2  0  0  0  0
 40 90  1  0  0  0  0
 41 42  1  0  0  0  0
 41 91  1  0  0  0  0
 42 92  1  0  0  0  0
 43 45  1  0  0  0  0
 43 94  1  0  0  0  0
 43 95  1  0  0  0  0
 44 46  1  0  0  0  0
 45 47  1  0  0  0  0
 45 96  1  0  0  0  0
 45 97  1  0  0  0  0
 46 98  1  0  0  0  0
 47 49  2  0  0  0  0
 47 50  1  0  0  0  0
 48 51  2  0  0  0  0
 48 99  1  0  0  0  0
 49 52  1  0  0  0  0
 49100  1  0  0  0  0
 50 53  2  0  0  0  0
 50101  1  0  0  0  0
 51102  1  0  0  0  0
 52 54  2  0  0  0  0
 52103  1  0  0  0  0
 53 54  1  0  0  0  0
 53104  1  0  0  0  0
 54105  1  0  0  0  0
M  END
> <PUBCHEM_COMPOUND_CID>
506704
> <PUBCHEM_COMPOUND_CANONICALIZED>
1
> <PUBCHEM_CACTVS_COMPLEXITY>
1270
> <PUBCHEM_CACTVS_HBOND_ACCEPTOR>
9
> <PUBCHEM_CACTVS_HBOND_DONOR>
4
> <PUBCHEM_CACTVS_ROTATABLE_BOND>
18
> <PUBCHEM_CACTVS_SUBSKEYS>
AAADcfB/uAAAAAAAAAAAAAAAAAAAAWAAAAA8YIAAAAAAAAAB0AAAHgAQAAAADTzhngY+gJPIFACoA7V3VACCgCQ3EiAI2IG4fMgKZnrA8TmXMIgm1gHYqMe6waAOAAAAAAAAAAAAAAAAAAAAAAAAAAAAAA==
> <PUBCHEM_IUPAC_OPENEYE_NAME>
N-[(1S)-1-[[(1S)-1-[(2S,4R)-4-benzyloxy-2-[[(1S)-1-ethyl-2,3-dioxo-3-(2-phenylethylamino)propyl]carbamoyl]pyrrolidine-1-carbonyl]-2-methyl-propyl]carbamoyl]-2-methyl-propyl]pyrazine-2-carboxamide
> <PUBCHEM_IUPAC_CAS_NAME>
N-[(2S)-1-[[(2S)-1-[(2S,4R)-2-[[[(3S)-1,2-dioxo-1-(2-phenylethylamino)pentan-3-yl]amino]-oxomethyl]-4-phenylmethoxy-1-pyrrolidinyl]-3-methyl-1-oxobutan-2-yl]amino]-3-methyl-1-oxobutan-2-yl]-2-pyrazinecarboxamide
> <PUBCHEM_IUPAC_NAME_MARKUP>
<I>N</I>-[(2<I>S</I>)-1-[[(2<I>S</I>)-1-[(2<I>S</I>,4<I>R</I>)-2-[[(3<I>S</I>)-1,2-dioxo-1-(2-phenylethylamino)pentan-3-yl]carbamoyl]-4-phenylmethoxypyrrolidin-1-yl]-3-methyl-1-oxobutan-2-yl]amino]-3-methyl-1-oxobutan-2-yl]pyrazine-2-carboxamide
> <PUBCHEM_IUPAC_NAME>
N-[(2S)-1-[[(2S)-1-[(2S,4R)-2-[[(3S)-1,2-dioxo-1-(2-phenylethylamino)pentan-3-yl]carbamoyl]-4-phenylmethoxypyrrolidin-1-yl]-3-methyl-1-oxobutan-2-yl]amino]-3-methyl-1-oxobutan-2-yl]pyrazine-2-carboxamide
> <PUBCHEM_IUPAC_SYSTEMATIC_NAME>
N-[(2S)-1-[[(2S)-1-[(2S,4R)-2-[[(3S)-1,2-bis(oxidanylidene)-1-(2-phenylethylamino)pentan-3-yl]carbamoyl]-4-phenylmethoxy-pyrrolidin-1-yl]-3-methyl-1-oxidanylidene-butan-2-yl]amino]-3-methyl-1-oxidanylidene-butan-2-yl]pyrazine-2-carboxamide
> <PUBCHEM_IUPAC_TRADITIONAL_NAME>
N-[(1S)-1-[[(1S)-1-[(2S,4R)-4-benzoxy-2-[[(1S)-1-ethyl-2,3-diketo-3-(phenethylamino)propyl]carbamoyl]pyrrolidine-1-carbonyl]-2-methyl-propyl]carbamoyl]-2-methyl-propyl]pyrazinamide
> <PUBCHEM_IUPAC_INCHI>
InChI=1S/C40H51N7O7/c1-6-30(35(48)39(52)43-18-17-27-13-9-7-10-14-27)44-37(50)32-21-29(54-24-28-15-11-8-12-16-28)23-47(32)40(53)34(26(4)5)46-38(51)33(25(2)3)45-36(49)31-22-41-19-20-42-31/h7-16,19-20,22,25-26,29-30,32-34H,6,17-18,21,23-24H2,1-5H3,(H,43,52)(H,44,50)(H,45,49)(H,46,51)/t29-,30+,32+,33+,34+/m1/s1
> <PUBCHEM_IUPAC_INCHIKEY>
VTESJZRVEMFJQX-VAPLLCTJSA-N
> <PUBCHEM_XLOGP3_AA>
4
> <PUBCHEM_EXACT_MASS>
741.38499699
> <PUBCHEM_MOLECULAR_FORMULA>
C40H51N7O7
> <PUBCHEM_MOLECULAR_WEIGHT>
741.9
> <PUBCHEM_OPENEYE_CAN_SMILES>
CCC(C(=O)C(=O)NCCC1=CC=CC=C1)NC(=O)C2CC(CN2C(=O)C(C(C)C)NC(=O)C(C(C)C)NC(=O)C3=NC=CN=C3)OCC4=CC=CC=C4
> <PUBCHEM_OPENEYE_ISO_SMILES>
CC[C@@H](C(=O)C(=O)NCCC1=CC=CC=C1)NC(=O)[C@@H]2C[C@H](CN2C(=O)[C@H](C(C)C)NC(=O)[C@H](C(C)C)NC(=O)C3=NC=CN=C3)OCC4=CC=CC=C4
> <PUBCHEM_CACTVS_TPSA>
189
> <PUBCHEM_MONOISOTOPIC_WEIGHT>
741.38499699
> <PUBCHEM_TOTAL_CHARGE>
0
> <PUBCHEM_HEAVY_ATOM_COUNT>
54
> <PUBCHEM_ATOM_DEF_STEREO_COUNT>
5
> <PUBCHEM_ATOM_UDEF_STEREO_COUNT>
0
> <PUBCHEM_BOND_DEF_STEREO_COUNT>
0
> <PUBCHEM_BOND_UDEF_STEREO_COUNT>
0
> <PUBCHEM_ISOTOPIC_ATOM_COUNT>
0
> <PUBCHEM_COMPONENT_COUNT>
1
> <PUBCHEM_CACTVS_TAUTO_COUNT>
-1
> <PUBCHEM_COORDINATE_TYPE>
1
5
255
> <PUBCHEM_BONDANNOTATIONS>
16  1  5
24  10  5
28  11  5
13  44  8
13  48  8
14  46  8
14  51  8
15  21  6
31  36  8
31  37  8
36  40  8
37  41  8
40  42  8
41  42  8
44  46  8
47  49  8
47  50  8
48  51  8
49  52  8
50  53  8
52  54  8
53  54  8
20  9  6
$$$$
