506788
  -OEChem-10302200282D
 71 73  0     1  0  0  0  0  0999 V2000
   12.9775    2.8567    0.0000 S   0  0  0  0  0  0  0  0  0  0  0  0
    6.2524   -1.1374    0.0000 O   0  0  0  0  0  0  0  0  0  0  0  0
    6.9334    3.1239    0.0000 O   0  0  0  0  0  0  0  0  0  0  0  0
    5.5714    3.1239    0.0000 O   0  0  0  0  0  0  0  0  0  0  0  0
   10.3238    1.8968    0.0000 O   0  0  0  0  0  0  0  0  0  0  0  0
    2.0000    3.6194    0.0000 O   0  0  0  0  0  0  0  0  0  0  0  0
    6.7524    1.4014    0.0000 N   0  0  0  0  0  0  0  0  0  0  0  0
    4.1701    2.1059    0.0000 N   0  0  0  0  0  0  0  0  0  0  0  0
    8.9225    2.9149    0.0000 N   0  0  0  0  0  0  0  0  0  0  0  0
    5.7524    1.4014    0.0000 C   0  0  1  0  0  0  0  0  0  0  0  0
    6.2524   -0.1375    0.0000 C   0  0  2  0  0  0  0  0  0  0  0  0
    5.4434    0.4503    0.0000 C   0  0  0  0  0  0  0  0  0  0  0  0
    7.0614    0.4503    0.0000 C   0  0  0  0  0  0  0  0  0  0  0  0
    7.3402    2.2104    0.0000 C   0  0  0  0  0  0  0  0  0  0  0  0
    8.3347    2.1059    0.0000 C   0  0  2  0  0  0  0  0  0  0  0  0
    5.1646    2.2104    0.0000 C   0  0  0  0  0  0  0  0  0  0  0  0
    8.7414    1.1923    0.0000 C   0  0  0  0  0  0  0  0  0  0  0  0
    5.3864   -1.6374    0.0000 C   0  0  0  0  0  0  0  0  0  0  0  0
    9.7360    1.0878    0.0000 C   0  0  0  0  0  0  0  0  0  0  0  0
    8.1537    0.3833    0.0000 C   0  0  0  0  0  0  0  0  0  0  0  0
    3.5823    2.9149    0.0000 C   0  0  1  0  0  0  0  0  0  0  0  0
    3.9890    3.8284    0.0000 C   0  0  0  0  0  0  0  0  0  0  0  0
    9.9170    2.8104    0.0000 C   0  0  0  0  0  0  0  0  0  0  0  0
    5.3864   -2.6374    0.0000 C   0  0  0  0  0  0  0  0  0  0  0  0
    2.5878    2.8104    0.0000 C   0  0  0  0  0  0  0  0  0  0  0  0
   10.5048    3.6194    0.0000 C   0  0  0  0  0  0  0  0  0  0  0  0
    3.4013    4.6374    0.0000 C   0  0  0  0  0  0  0  0  0  0  0  0
    6.2524   -3.1374    0.0000 C   0  0  0  0  0  0  0  0  0  0  0  0
    4.5204   -3.1374    0.0000 C   0  0  0  0  0  0  0  0  0  0  0  0
   11.4993    3.5148    0.0000 C   0  0  0  0  0  0  0  0  0  0  0  0
    6.2524   -4.1374    0.0000 C   0  0  0  0  0  0  0  0  0  0  0  0
    4.5204   -4.1374    0.0000 C   0  0  0  0  0  0  0  0  0  0  0  0
    5.3864   -4.6374    0.0000 C   0  0  0  0  0  0  0  0  0  0  0  0
   12.1685    4.2580    0.0000 C   0  0  0  0  0  0  0  0  0  0  0  0
   11.9993    2.6488    0.0000 C   0  0  0  0  0  0  0  0  0  0  0  0
   13.0820    3.8513    0.0000 C   0  0  0  0  0  0  0  0  0  0  0  0
    6.0339    1.9538    0.0000 H   0  0  0  0  0  0  0  0  0  0  0  0
    5.7000   -0.4189    0.0000 H   0  0  0  0  0  0  0  0  0  0  0  0
    4.8770    0.7025    0.0000 H   0  0  0  0  0  0  0  0  0  0  0  0
    5.1334   -0.0866    0.0000 H   0  0  0  0  0  0  0  0  0  0  0  0
    7.3714   -0.0866    0.0000 H   0  0  0  0  0  0  0  0  0  0  0  0
    7.6278    0.7025    0.0000 H   0  0  0  0  0  0  0  0  0  0  0  0
    8.0825    2.6723    0.0000 H   0  0  0  0  0  0  0  0  0  0  0  0
    9.1059    1.6939    0.0000 H   0  0  0  0  0  0  0  0  0  0  0  0
    3.9179    1.5395    0.0000 H   0  0  0  0  0  0  0  0  0  0  0  0
    8.6703    3.4813    0.0000 H   0  0  0  0  0  0  0  0  0  0  0  0
    5.1743   -1.0548    0.0000 H   0  0  0  0  0  0  0  0  0  0  0  0
    4.7758   -1.7451    0.0000 H   0  0  0  0  0  0  0  0  0  0  0  0
    9.6712    0.4712    0.0000 H   0  0  0  0  0  0  0  0  0  0  0  0
   10.3526    1.0230    0.0000 H   0  0  0  0  0  0  0  0  0  0  0  0
    9.8008    1.7044    0.0000 H   0  0  0  0  0  0  0  0  0  0  0  0
    7.6521    0.7477    0.0000 H   0  0  0  0  0  0  0  0  0  0  0  0
    7.7892   -0.1183    0.0000 H   0  0  0  0  0  0  0  0  0  0  0  0
    8.6552    0.0189    0.0000 H   0  0  0  0  0  0  0  0  0  0  0  0
    3.3301    2.3485    0.0000 H   0  0  0  0  0  0  0  0  0  0  0  0
    4.5030    3.4817    0.0000 H   0  0  0  0  0  0  0  0  0  0  0  0
    4.4197    4.2744    0.0000 H   0  0  0  0  0  0  0  0  0  0  0  0
    2.3356    2.2440    0.0000 H   0  0  0  0  0  0  0  0  0  0  0  0
   10.6757    4.2154    0.0000 H   0  0  0  0  0  0  0  0  0  0  0  0
    9.9476    3.8912    0.0000 H   0  0  0  0  0  0  0  0  0  0  0  0
    3.9028    5.0019    0.0000 H   0  0  0  0  0  0  0  0  0  0  0  0
    3.0368    5.1390    0.0000 H   0  0  0  0  0  0  0  0  0  0  0  0
    2.8997    4.2730    0.0000 H   0  0  0  0  0  0  0  0  0  0  0  0
    6.7893   -2.8275    0.0000 H   0  0  0  0  0  0  0  0  0  0  0  0
    3.9834   -2.8275    0.0000 H   0  0  0  0  0  0  0  0  0  0  0  0
    6.7893   -4.4474    0.0000 H   0  0  0  0  0  0  0  0  0  0  0  0
    3.9834   -4.4474    0.0000 H   0  0  0  0  0  0  0  0  0  0  0  0
    5.3864   -5.2575    0.0000 H   0  0  0  0  0  0  0  0  0  0  0  0
   12.0395    4.8644    0.0000 H   0  0  0  0  0  0  0  0  0  0  0  0
   11.7471    2.0824    0.0000 H   0  0  0  0  0  0  0  0  0  0  0  0
   13.6189    4.1613    0.0000 H   0  0  0  0  0  0  0  0  0  0  0  0
  1 35  1  0  0  0  0
  1 36  1  0  0  0  0
 11  2  1  6  0  0  0
  2 18  1  0  0  0  0
  3 14  2  0  0  0  0
  4 16  2  0  0  0  0
  5 23  2  0  0  0  0
  6 25  2  0  0  0  0
  7 10  1  0  0  0  0
  7 13  1  0  0  0  0
  7 14  1  0  0  0  0
  8 16  1  0  0  0  0
 21  8  1  6  0  0  0
  8 45  1  0  0  0  0
 15  9  1  1  0  0  0
  9 23  1  0  0  0  0
  9 46  1  0  0  0  0
 10 12  1  0  0  0  0
 10 16  1  1  0  0  0
 10 37  1  0  0  0  0
 11 12  1  0  0  0  0
 11 13  1  0  0  0  0
 11 38  1  0  0  0  0
 12 39  1  0  0  0  0
 12 40  1  0  0  0  0
 13 41  1  0  0  0  0
 13 42  1  0  0  0  0
 14 15  1  0  0  0  0
 15 17  1  0  0  0  0
 15 43  1  0  0  0  0
 17 19  1  0  0  0  0
 17 20  1  0  0  0  0
 17 44  1  0  0  0  0
 18 24  1  0  0  0  0
 18 47  1  0  0  0  0
 18 48  1  0  0  0  0
 19 49  1  0  0  0  0
 19 50  1  0  0  0  0
 19 51  1  0  0  0  0
 20 52  1  0  0  0  0
 20 53  1  0  0  0  0
 20 54  1  0  0  0  0
 21 22  1  0  0  0  0
 21 25  1  0  0  0  0
 21 55  1  0  0  0  0
 22 27  1  0  0  0  0
 22 56  1  0  0  0  0
 22 57  1  0  0  0  0
 23 26  1  0  0  0  0
 24 28  2  0  0  0  0
 24 29  1  0  0  0  0
 25 58  1  0  0  0  0
 26 30  1  0  0  0  0
 26 59  1  0  0  0  0
 26 60  1  0  0  0  0
 27 61  1  0  0  0  0
 27 62  1  0  0  0  0
 27 63  1  0  0  0  0
 28 31  1  0  0  0  0
 28 64  1  0  0  0  0
 29 32  2  0  0  0  0
 29 65  1  0  0  0  0
 30 34  1  0  0  0  0
 30 35  2  0  0  0  0
 31 33  2  0  0  0  0
 31 66  1  0  0  0  0
 32 33  1  0  0  0  0
 32 67  1  0  0  0  0
 33 68  1  0  0  0  0
 34 36  2  0  0  0  0
 34 69  1  0  0  0  0
 35 70  1  0  0  0  0
 36 71  1  0  0  0  0
M  END
> <PUBCHEM_COMPOUND_CID>
506788
> <PUBCHEM_COMPOUND_CANONICALIZED>
1
> <PUBCHEM_CACTVS_COMPLEXITY>
758
> <PUBCHEM_CACTVS_HBOND_ACCEPTOR>
6
> <PUBCHEM_CACTVS_HBOND_DONOR>
2
> <PUBCHEM_CACTVS_ROTATABLE_BOND>
12
> <PUBCHEM_CACTVS_SUBSKEYS>
AAADcfB7OABAAAAAAAAAAAAAAAAAAWJAAAAwAAAAAAAAAAABwAAAHgQQAAAADTzl2AayAYPABAiMAilSkAADAIAgCBBIiJmICIgKZjKgtTmXMAAm1gG4qAe6wSAOAAAAAAAAAAAAAAAAAAAAAAAAAAAAAA==
> <PUBCHEM_IUPAC_OPENEYE_NAME>
(2S,4R)-4-benzyloxy-N-[(1S)-1-formylpropyl]-1-[(2S)-3-methyl-2-[[2-(3-thienyl)acetyl]amino]butanoyl]pyrrolidine-2-carboxamide
> <PUBCHEM_IUPAC_CAS_NAME>
(2S,4R)-1-[(2S)-3-methyl-1-oxo-2-[[1-oxo-2-(3-thiophenyl)ethyl]amino]butyl]-N-[(2S)-1-oxobutan-2-yl]-4-phenylmethoxy-2-pyrrolidinecarboxamide
> <PUBCHEM_IUPAC_NAME_MARKUP>
(2<I>S</I>,4<I>R</I>)-1-[(2<I>S</I>)-3-methyl-2-[(2-thiophen-3-ylacetyl)amino]butanoyl]-<I>N</I>-[(2<I>S</I>)-1-oxobutan-2-yl]-4-phenylmethoxypyrrolidine-2-carboxamide
> <PUBCHEM_IUPAC_NAME>
(2S,4R)-1-[(2S)-3-methyl-2-[(2-thiophen-3-ylacetyl)amino]butanoyl]-N-[(2S)-1-oxobutan-2-yl]-4-phenylmethoxypyrrolidine-2-carboxamide
> <PUBCHEM_IUPAC_SYSTEMATIC_NAME>
(2S,4R)-1-[(2S)-3-methyl-2-(2-thiophen-3-ylethanoylamino)butanoyl]-N-[(2S)-1-oxidanylidenebutan-2-yl]-4-phenylmethoxy-pyrrolidine-2-carboxamide
> <PUBCHEM_IUPAC_TRADITIONAL_NAME>
(2S,4R)-4-benzoxy-N-[(1S)-1-formylpropyl]-1-[(2S)-3-methyl-2-[[2-(3-thienyl)acetyl]amino]butanoyl]pyrrolidine-2-carboxamide
> <PUBCHEM_IUPAC_INCHI>
InChI=1S/C27H35N3O5S/c1-4-21(15-31)28-26(33)23-13-22(35-16-19-8-6-5-7-9-19)14-30(23)27(34)25(18(2)3)29-24(32)12-20-10-11-36-17-20/h5-11,15,17-18,21-23,25H,4,12-14,16H2,1-3H3,(H,28,33)(H,29,32)/t21-,22+,23-,25-/m0/s1
> <PUBCHEM_IUPAC_INCHIKEY>
INQKEVCOAIYMLE-AANQFLQQSA-N
> <PUBCHEM_XLOGP3_AA>
3.1
> <PUBCHEM_EXACT_MASS>
513.22974240
> <PUBCHEM_MOLECULAR_FORMULA>
C27H35N3O5S
> <PUBCHEM_MOLECULAR_WEIGHT>
513.7
> <PUBCHEM_OPENEYE_CAN_SMILES>
CCC(C=O)NC(=O)C1CC(CN1C(=O)C(C(C)C)NC(=O)CC2=CSC=C2)OCC3=CC=CC=C3
> <PUBCHEM_OPENEYE_ISO_SMILES>
CC[C@@H](C=O)NC(=O)[C@@H]1C[C@H](CN1C(=O)[C@H](C(C)C)NC(=O)CC2=CSC=C2)OCC3=CC=CC=C3
> <PUBCHEM_CACTVS_TPSA>
133
> <PUBCHEM_MONOISOTOPIC_WEIGHT>
513.22974240
> <PUBCHEM_TOTAL_CHARGE>
0
> <PUBCHEM_HEAVY_ATOM_COUNT>
36
> <PUBCHEM_ATOM_DEF_STEREO_COUNT>
4
> <PUBCHEM_ATOM_UDEF_STEREO_COUNT>
0
> <PUBCHEM_BOND_DEF_STEREO_COUNT>
0
> <PUBCHEM_BOND_UDEF_STEREO_COUNT>
0
> <PUBCHEM_ISOTOPIC_ATOM_COUNT>
0
> <PUBCHEM_COMPONENT_COUNT>
1
> <PUBCHEM_CACTVS_TAUTO_COUNT>
-1
> <PUBCHEM_COORDINATE_TYPE>
1
5
255
> <PUBCHEM_BONDANNOTATIONS>
1  35  8
1  36  8
10  16  5
11  2  6
24  28  8
24  29  8
28  31  8
29  32  8
30  34  8
30  35  8
31  33  8
32  33  8
34  36  8
21  8  6
15  9  5
$$$$
