506783
  -OEChem-10302200282D
 76 79  0     1  0  0  0  0  0999 V2000
    5.3103   -2.4687    0.0000 O   0  0  0  0  0  0  0  0  0  0  0  0
    7.2641    1.3792    0.0000 O   0  0  0  0  0  0  0  0  0  0  0  0
    8.3661    0.5785    0.0000 O   0  0  0  0  0  0  0  0  0  0  0  0
    3.8000    2.3792    0.0000 O   0  0  0  0  0  0  0  0  0  0  0  0
   11.5466   -1.1198    0.0000 O   0  0  0  0  0  0  0  0  0  0  0  0
    6.3981   -0.1208    0.0000 N   0  0  0  0  0  0  0  0  0  0  0  0
    8.9013   -1.0687    0.0000 N   0  0  0  0  0  0  0  0  0  0  0  0
    5.5321    2.3792    0.0000 N   0  0  0  0  0  0  0  0  0  0  0  0
    5.5321    4.3792    0.0000 N   0  0  0  0  0  0  0  0  0  0  0  0
    7.2071   -0.7086    0.0000 C   0  0  1  0  0  0  0  0  0  0  0  0
    5.8981   -1.6597    0.0000 C   0  0  2  0  0  0  0  0  0  0  0  0
    6.8981   -1.6597    0.0000 C   0  0  0  0  0  0  0  0  0  0  0  0
    5.5891   -0.7086    0.0000 C   0  0  0  0  0  0  0  0  0  0  0  0
    6.3981    0.8792    0.0000 C   0  0  0  0  0  0  0  0  0  0  0  0
    5.5321    1.3792    0.0000 C   0  0  2  0  0  0  0  0  0  0  0  0
    8.1582   -0.3996    0.0000 C   0  0  0  0  0  0  0  0  0  0  0  0
    4.6660    0.8792    0.0000 C   0  0  0  0  0  0  0  0  0  0  0  0
    5.7170   -3.3822    0.0000 C   0  0  0  0  0  0  0  0  0  0  0  0
    3.8000    1.3792    0.0000 C   0  0  0  0  0  0  0  0  0  0  0  0
    4.6660   -0.1208    0.0000 C   0  0  0  0  0  0  0  0  0  0  0  0
    9.8524   -0.7597    0.0000 C   0  0  1  0  0  0  0  0  0  0  0  0
    5.1292   -4.1913    0.0000 C   0  0  0  0  0  0  0  0  0  0  0  0
   10.0603    0.2184    0.0000 C   0  0  0  0  0  0  0  0  0  0  0  0
    4.6660    2.8792    0.0000 C   0  0  0  0  0  0  0  0  0  0  0  0
   10.5955   -1.4288    0.0000 C   0  0  0  0  0  0  0  0  0  0  0  0
   11.0113    0.5274    0.0000 C   0  0  0  0  0  0  0  0  0  0  0  0
    4.6660    3.8792    0.0000 C   0  0  0  0  0  0  0  0  0  0  0  0
    4.1347   -4.0867    0.0000 C   0  0  0  0  0  0  0  0  0  0  0  0
    5.5360   -5.1048    0.0000 C   0  0  0  0  0  0  0  0  0  0  0  0
    3.8000    4.3792    0.0000 C   0  0  0  0  0  0  0  0  0  0  0  0
    3.5469   -4.8957    0.0000 C   0  0  0  0  0  0  0  0  0  0  0  0
    4.9482   -5.9138    0.0000 C   0  0  0  0  0  0  0  0  0  0  0  0
    3.9537   -5.8093    0.0000 C   0  0  0  0  0  0  0  0  0  0  0  0
    3.8000    5.3792    0.0000 C   0  0  0  0  0  0  0  0  0  0  0  0
    2.9061    3.8445    0.0000 C   0  0  0  0  0  0  0  0  0  0  0  0
    4.6660    5.8792    0.0000 C   0  0  0  0  0  0  0  0  0  0  0  0
    5.5321    5.3792    0.0000 C   0  0  0  0  0  0  0  0  0  0  0  0
    2.9061    5.9138    0.0000 C   0  0  0  0  0  0  0  0  0  0  0  0
    2.0000    4.3584    0.0000 C   0  0  0  0  0  0  0  0  0  0  0  0
    2.0000    5.4000    0.0000 C   0  0  0  0  0  0  0  0  0  0  0  0
    7.3041   -0.0963    0.0000 H   0  0  0  0  0  0  0  0  0  0  0  0
    6.1796   -2.2121    0.0000 H   0  0  0  0  0  0  0  0  0  0  0  0
    6.8333   -2.2763    0.0000 H   0  0  0  0  0  0  0  0  0  0  0  0
    7.5045   -1.7886    0.0000 H   0  0  0  0  0  0  0  0  0  0  0  0
    5.2791   -0.1717    0.0000 H   0  0  0  0  0  0  0  0  0  0  0  0
    5.0227   -0.9608    0.0000 H   0  0  0  0  0  0  0  0  0  0  0  0
    6.0690    1.6892    0.0000 H   0  0  0  0  0  0  0  0  0  0  0  0
    5.2030    0.5692    0.0000 H   0  0  0  0  0  0  0  0  0  0  0  0
    8.7724   -1.6752    0.0000 H   0  0  0  0  0  0  0  0  0  0  0  0
    6.0690    2.6892    0.0000 H   0  0  0  0  0  0  0  0  0  0  0  0
    6.1477   -3.8282    0.0000 H   0  0  0  0  0  0  0  0  0  0  0  0
    6.2310   -3.0355    0.0000 H   0  0  0  0  0  0  0  0  0  0  0  0
    4.1100    1.9161    0.0000 H   0  0  0  0  0  0  0  0  0  0  0  0
    3.2631    1.6892    0.0000 H   0  0  0  0  0  0  0  0  0  0  0  0
    3.4900    0.8422    0.0000 H   0  0  0  0  0  0  0  0  0  0  0  0
    4.0460   -0.1208    0.0000 H   0  0  0  0  0  0  0  0  0  0  0  0
    4.6660   -0.7408    0.0000 H   0  0  0  0  0  0  0  0  0  0  0  0
    5.2860   -0.1208    0.0000 H   0  0  0  0  0  0  0  0  0  0  0  0
    9.7234   -1.3662    0.0000 H   0  0  0  0  0  0  0  0  0  0  0  0
    9.9740    0.8324    0.0000 H   0  0  0  0  0  0  0  0  0  0  0  0
    9.4406    0.2401    0.0000 H   0  0  0  0  0  0  0  0  0  0  0  0
   10.4666   -2.0353    0.0000 H   0  0  0  0  0  0  0  0  0  0  0  0
   11.2029   -0.0622    0.0000 H   0  0  0  0  0  0  0  0  0  0  0  0
   11.6010    0.7190    0.0000 H   0  0  0  0  0  0  0  0  0  0  0  0
   10.8197    1.1171    0.0000 H   0  0  0  0  0  0  0  0  0  0  0  0
    3.8826   -3.5203    0.0000 H   0  0  0  0  0  0  0  0  0  0  0  0
    6.1526   -5.1696    0.0000 H   0  0  0  0  0  0  0  0  0  0  0  0
    2.9303   -4.8309    0.0000 H   0  0  0  0  0  0  0  0  0  0  0  0
    5.2004   -6.4802    0.0000 H   0  0  0  0  0  0  0  0  0  0  0  0
    3.5892   -6.3109    0.0000 H   0  0  0  0  0  0  0  0  0  0  0  0
    2.9132    3.2245    0.0000 H   0  0  0  0  0  0  0  0  0  0  0  0
    4.6660    6.4992    0.0000 H   0  0  0  0  0  0  0  0  0  0  0  0
    6.0690    5.6892    0.0000 H   0  0  0  0  0  0  0  0  0  0  0  0
    2.9132    6.5338    0.0000 H   0  0  0  0  0  0  0  0  0  0  0  0
    1.4643    4.0463    0.0000 H   0  0  0  0  0  0  0  0  0  0  0  0
    1.4643    5.7120    0.0000 H   0  0  0  0  0  0  0  0  0  0  0  0
 11  1  1  1  0  0  0
  1 18  1  0  0  0  0
  2 14  2  0  0  0  0
  3 16  2  0  0  0  0
  4 24  2  0  0  0  0
  5 25  2  0  0  0  0
  6 10  1  0  0  0  0
  6 13  1  0  0  0  0
  6 14  1  0  0  0  0
  7 16  1  0  0  0  0
 21  7  1  1  0  0  0
  7 49  1  0  0  0  0
 15  8  1  6  0  0  0
  8 24  1  0  0  0  0
  8 50  1  0  0  0  0
  9 27  2  0  0  0  0
  9 37  1  0  0  0  0
 10 12  1  0  0  0  0
 10 16  1  6  0  0  0
 10 41  1  0  0  0  0
 11 12  1  0  0  0  0
 11 13  1  0  0  0  0
 11 42  1  0  0  0  0
 12 43  1  0  0  0  0
 12 44  1  0  0  0  0
 13 45  1  0  0  0  0
 13 46  1  0  0  0  0
 14 15  1  0  0  0  0
 15 17  1  0  0  0  0
 15 47  1  0  0  0  0
 17 19  1  0  0  0  0
 17 20  1  0  0  0  0
 17 48  1  0  0  0  0
 18 22  1  0  0  0  0
 18 51  1  0  0  0  0
 18 52  1  0  0  0  0
 19 53  1  0  0  0  0
 19 54  1  0  0  0  0
 19 55  1  0  0  0  0
 20 56  1  0  0  0  0
 20 57  1  0  0  0  0
 20 58  1  0  0  0  0
 21 23  1  0  0  0  0
 21 25  1  0  0  0  0
 21 59  1  0  0  0  0
 22 28  2  0  0  0  0
 22 29  1  0  0  0  0
 23 26  1  0  0  0  0
 23 60  1  0  0  0  0
 23 61  1  0  0  0  0
 24 27  1  0  0  0  0
 25 62  1  0  0  0  0
 26 63  1  0  0  0  0
 26 64  1  0  0  0  0
 26 65  1  0  0  0  0
 27 30  1  0  0  0  0
 28 31  1  0  0  0  0
 28 66  1  0  0  0  0
 29 32  2  0  0  0  0
 29 67  1  0  0  0  0
 30 34  1  0  0  0  0
 30 35  2  0  0  0  0
 31 33  2  0  0  0  0
 31 68  1  0  0  0  0
 32 33  1  0  0  0  0
 32 69  1  0  0  0  0
 33 70  1  0  0  0  0
 34 36  1  0  0  0  0
 34 38  2  0  0  0  0
 35 39  1  0  0  0  0
 35 71  1  0  0  0  0
 36 37  2  0  0  0  0
 36 72  1  0  0  0  0
 37 73  1  0  0  0  0
 38 40  1  0  0  0  0
 38 74  1  0  0  0  0
 39 40  2  0  0  0  0
 39 75  1  0  0  0  0
 40 76  1  0  0  0  0
M  END
> <PUBCHEM_COMPOUND_CID>
506783
> <PUBCHEM_COMPOUND_CANONICALIZED>
1
> <PUBCHEM_CACTVS_COMPLEXITY>
876
> <PUBCHEM_CACTVS_HBOND_ACCEPTOR>
6
> <PUBCHEM_CACTVS_HBOND_DONOR>
2
> <PUBCHEM_CACTVS_ROTATABLE_BOND>
11
> <PUBCHEM_CACTVS_SUBSKEYS>
AAADcfB7uAAAAAAAAAAAAAAAAAAAAWAAAAA8YIAAAAAAAACx9AAAHgAQAAAADTzhngY+gNPIFACoAz131ACCgCA3AiAI2KG4bNgKZvLAtbmXMQhm1gHY6Qe6yaCOgAAAAAAQAAAAAAAAACAAAAAAAAAAAA==
> <PUBCHEM_IUPAC_OPENEYE_NAME>
N-[(1S)-1-[(2S,4R)-4-benzyloxy-2-[[(1S)-1-formylpropyl]carbamoyl]pyrrolidine-1-carbonyl]-2-methyl-propyl]isoquinoline-1-carboxamide
> <PUBCHEM_IUPAC_CAS_NAME>
N-[(2S)-3-methyl-1-oxo-1-[(2S,4R)-2-[oxo-[[(2S)-1-oxobutan-2-yl]amino]methyl]-4-phenylmethoxy-1-pyrrolidinyl]butan-2-yl]-1-isoquinolinecarboxamide
> <PUBCHEM_IUPAC_NAME_MARKUP>
<I>N</I>-[(2<I>S</I>)-3-methyl-1-oxo-1-[(2<I>S</I>,4<I>R</I>)-2-[[(2<I>S</I>)-1-oxobutan-2-yl]carbamoyl]-4-phenylmethoxypyrrolidin-1-yl]butan-2-yl]isoquinoline-1-carboxamide
> <PUBCHEM_IUPAC_NAME>
N-[(2S)-3-methyl-1-oxo-1-[(2S,4R)-2-[[(2S)-1-oxobutan-2-yl]carbamoyl]-4-phenylmethoxypyrrolidin-1-yl]butan-2-yl]isoquinoline-1-carboxamide
> <PUBCHEM_IUPAC_SYSTEMATIC_NAME>
N-[(2S)-3-methyl-1-oxidanylidene-1-[(2S,4R)-2-[[(2S)-1-oxidanylidenebutan-2-yl]carbamoyl]-4-phenylmethoxy-pyrrolidin-1-yl]butan-2-yl]isoquinoline-1-carboxamide
> <PUBCHEM_IUPAC_TRADITIONAL_NAME>
N-[(1S)-1-[(2S,4R)-4-benzoxy-2-[[(1S)-1-formylpropyl]carbamoyl]pyrrolidine-1-carbonyl]-2-methyl-propyl]isoquinoline-1-carboxamide
> <PUBCHEM_IUPAC_INCHI>
InChI=1S/C31H36N4O5/c1-4-23(18-36)33-29(37)26-16-24(40-19-21-10-6-5-7-11-21)17-35(26)31(39)27(20(2)3)34-30(38)28-25-13-9-8-12-22(25)14-15-32-28/h5-15,18,20,23-24,26-27H,4,16-17,19H2,1-3H3,(H,33,37)(H,34,38)/t23-,24+,26-,27-/m0/s1
> <PUBCHEM_IUPAC_INCHIKEY>
OXIMSCITBULBJF-FLABLRJTSA-N
> <PUBCHEM_XLOGP3_AA>
4
> <PUBCHEM_EXACT_MASS>
544.26857026
> <PUBCHEM_MOLECULAR_FORMULA>
C31H36N4O5
> <PUBCHEM_MOLECULAR_WEIGHT>
544.6
> <PUBCHEM_OPENEYE_CAN_SMILES>
CCC(C=O)NC(=O)C1CC(CN1C(=O)C(C(C)C)NC(=O)C2=NC=CC3=CC=CC=C32)OCC4=CC=CC=C4
> <PUBCHEM_OPENEYE_ISO_SMILES>
CC[C@@H](C=O)NC(=O)[C@@H]1C[C@H](CN1C(=O)[C@H](C(C)C)NC(=O)C2=NC=CC3=CC=CC=C32)OCC4=CC=CC=C4
> <PUBCHEM_CACTVS_TPSA>
118
> <PUBCHEM_MONOISOTOPIC_WEIGHT>
544.26857026
> <PUBCHEM_TOTAL_CHARGE>
0
> <PUBCHEM_HEAVY_ATOM_COUNT>
40
> <PUBCHEM_ATOM_DEF_STEREO_COUNT>
4
> <PUBCHEM_ATOM_UDEF_STEREO_COUNT>
0
> <PUBCHEM_BOND_DEF_STEREO_COUNT>
0
> <PUBCHEM_BOND_UDEF_STEREO_COUNT>
0
> <PUBCHEM_ISOTOPIC_ATOM_COUNT>
0
> <PUBCHEM_COMPONENT_COUNT>
1
> <PUBCHEM_CACTVS_TAUTO_COUNT>
-1
> <PUBCHEM_COORDINATE_TYPE>
1
5
255
> <PUBCHEM_BONDANNOTATIONS>
11  1  5
10  16  6
22  28  8
22  29  8
27  30  8
28  31  8
29  32  8
30  34  8
30  35  8
31  33  8
32  33  8
34  36  8
34  38  8
35  39  8
36  37  8
38  40  8
39  40  8
21  7  5
15  8  6
9  27  8
9  37  8
$$$$
