506753
  -OEChem-10302200282D
 90 93  0     1  0  0  0  0  0999 V2000
    8.2363    3.8564    0.0000 O   0  0  0  0  0  0  0  0  0  0  0  0
    6.2824    0.0085    0.0000 O   0  0  0  0  0  0  0  0  0  0  0  0
    5.1805    0.8091    0.0000 O   0  0  0  0  0  0  0  0  0  0  0  0
    9.7465   -0.9915    0.0000 O   0  0  0  0  0  0  0  0  0  0  0  0
    2.0000    2.5075    0.0000 O   0  0  0  0  0  0  0  0  0  0  0  0
   10.6126   -1.4915    0.0000 O   0  0  0  0  0  0  0  0  0  0  0  0
    8.0145   -6.9915    0.0000 O   0  0  0  0  0  0  0  0  0  0  0  0
    7.1485    1.5085    0.0000 N   0  0  0  0  0  0  0  0  0  0  0  0
    8.0145   -0.9915    0.0000 N   0  0  0  0  0  0  0  0  0  0  0  0
    4.6453    2.4564    0.0000 N   0  0  0  0  0  0  0  0  0  0  0  0
    9.7465   -2.9915    0.0000 N   0  0  0  0  0  0  0  0  0  0  0  0
   12.3446   -2.4915    0.0000 N   0  0  0  0  0  0  0  0  0  0  0  0
   12.3446   -4.4915    0.0000 N   0  0  0  0  0  0  0  0  0  0  0  0
    6.3395    2.0963    0.0000 C   0  0  1  0  0  0  0  0  0  0  0  0
    7.6485    3.0473    0.0000 C   0  0  2  0  0  0  0  0  0  0  0  0
    6.6485    3.0473    0.0000 C   0  0  0  0  0  0  0  0  0  0  0  0
    7.9575    2.0963    0.0000 C   0  0  0  0  0  0  0  0  0  0  0  0
    7.1485    0.5085    0.0000 C   0  0  0  0  0  0  0  0  0  0  0  0
    8.0145    0.0085    0.0000 C   0  0  2  0  0  0  0  0  0  0  0  0
    5.3884    1.7873    0.0000 C   0  0  0  0  0  0  0  0  0  0  0  0
    8.8805    0.5085    0.0000 C   0  0  0  0  0  0  0  0  0  0  0  0
    7.8295    4.7699    0.0000 C   0  0  0  0  0  0  0  0  0  0  0  0
    9.7465    0.0085    0.0000 C   0  0  0  0  0  0  0  0  0  0  0  0
    8.8805    1.5085    0.0000 C   0  0  0  0  0  0  0  0  0  0  0  0
    3.6942    2.1474    0.0000 C   0  0  1  0  0  0  0  0  0  0  0  0
    8.8805   -1.4915    0.0000 C   0  0  0  0  0  0  0  0  0  0  0  0
    8.8805   -2.4915    0.0000 C   0  0  2  0  0  0  0  0  0  0  0  0
    8.4173    5.5789    0.0000 C   0  0  0  0  0  0  0  0  0  0  0  0
    3.4863    1.1692    0.0000 C   0  0  0  0  0  0  0  0  0  0  0  0
    8.0145   -2.9915    0.0000 C   0  0  0  0  0  0  0  0  0  0  0  0
    2.9511    2.8165    0.0000 C   0  0  0  0  0  0  0  0  0  0  0  0
    2.5352    0.8602    0.0000 C   0  0  0  0  0  0  0  0  0  0  0  0
    9.4118    5.4744    0.0000 C   0  0  0  0  0  0  0  0  0  0  0  0
    8.0106    6.4925    0.0000 C   0  0  0  0  0  0  0  0  0  0  0  0
    8.0145   -3.9915    0.0000 C   0  0  0  0  0  0  0  0  0  0  0  0
    9.9996    6.2834    0.0000 C   0  0  0  0  0  0  0  0  0  0  0  0
    8.5984    7.3015    0.0000 C   0  0  0  0  0  0  0  0  0  0  0  0
   10.6126   -2.4915    0.0000 C   0  0  0  0  0  0  0  0  0  0  0  0
    9.5929    7.1970    0.0000 C   0  0  0  0  0  0  0  0  0  0  0  0
    8.8805   -4.4915    0.0000 C   0  0  0  0  0  0  0  0  0  0  0  0
    7.1485   -4.4915    0.0000 C   0  0  0  0  0  0  0  0  0  0  0  0
   11.4786   -2.9915    0.0000 C   0  0  0  0  0  0  0  0  0  0  0  0
    8.8805   -5.4915    0.0000 C   0  0  0  0  0  0  0  0  0  0  0  0
    7.1485   -5.4915    0.0000 C   0  0  0  0  0  0  0  0  0  0  0  0
    8.0145   -5.9915    0.0000 C   0  0  0  0  0  0  0  0  0  0  0  0
   11.4786   -3.9915    0.0000 C   0  0  0  0  0  0  0  0  0  0  0  0
   13.2107   -2.9915    0.0000 C   0  0  0  0  0  0  0  0  0  0  0  0
   13.2107   -3.9915    0.0000 C   0  0  0  0  0  0  0  0  0  0  0  0
    6.2425    1.4839    0.0000 H   0  0  0  0  0  0  0  0  0  0  0  0
    7.3670    3.5998    0.0000 H   0  0  0  0  0  0  0  0  0  0  0  0
    6.7133    3.6640    0.0000 H   0  0  0  0  0  0  0  0  0  0  0  0
    6.0420    3.1762    0.0000 H   0  0  0  0  0  0  0  0  0  0  0  0
    8.2675    1.5594    0.0000 H   0  0  0  0  0  0  0  0  0  0  0  0
    8.5239    2.3485    0.0000 H   0  0  0  0  0  0  0  0  0  0  0  0
    8.5514   -0.3015    0.0000 H   0  0  0  0  0  0  0  0  0  0  0  0
    8.3436    0.8185    0.0000 H   0  0  0  0  0  0  0  0  0  0  0  0
    7.4776   -1.3015    0.0000 H   0  0  0  0  0  0  0  0  0  0  0  0
    4.7742    3.0629    0.0000 H   0  0  0  0  0  0  0  0  0  0  0  0
    7.3988    5.2159    0.0000 H   0  0  0  0  0  0  0  0  0  0  0  0
    7.3155    4.4232    0.0000 H   0  0  0  0  0  0  0  0  0  0  0  0
    9.4366   -0.5284    0.0000 H   0  0  0  0  0  0  0  0  0  0  0  0
   10.2835   -0.3015    0.0000 H   0  0  0  0  0  0  0  0  0  0  0  0
   10.0566    0.5454    0.0000 H   0  0  0  0  0  0  0  0  0  0  0  0
    9.5005    1.5085    0.0000 H   0  0  0  0  0  0  0  0  0  0  0  0
    8.8805    2.1285    0.0000 H   0  0  0  0  0  0  0  0  0  0  0  0
    8.2605    1.5085    0.0000 H   0  0  0  0  0  0  0  0  0  0  0  0
    3.8231    2.7538    0.0000 H   0  0  0  0  0  0  0  0  0  0  0  0
    8.8805   -3.1115    0.0000 H   0  0  0  0  0  0  0  0  0  0  0  0
    3.5726    0.5553    0.0000 H   0  0  0  0  0  0  0  0  0  0  0  0
    4.1059    1.1476    0.0000 H   0  0  0  0  0  0  0  0  0  0  0  0
    7.8024   -2.4089    0.0000 H   0  0  0  0  0  0  0  0  0  0  0  0
    7.4039   -3.0992    0.0000 H   0  0  0  0  0  0  0  0  0  0  0  0
    3.0800    3.4230    0.0000 H   0  0  0  0  0  0  0  0  0  0  0  0
    2.3436    1.4499    0.0000 H   0  0  0  0  0  0  0  0  0  0  0  0
    1.9456    0.6686    0.0000 H   0  0  0  0  0  0  0  0  0  0  0  0
    2.7268    0.2706    0.0000 H   0  0  0  0  0  0  0  0  0  0  0  0
    9.6640    4.9080    0.0000 H   0  0  0  0  0  0  0  0  0  0  0  0
    7.3940    6.5573    0.0000 H   0  0  0  0  0  0  0  0  0  0  0  0
    9.7465   -3.6115    0.0000 H   0  0  0  0  0  0  0  0  0  0  0  0
   10.6162    6.2186    0.0000 H   0  0  0  0  0  0  0  0  0  0  0  0
    8.3462    7.8679    0.0000 H   0  0  0  0  0  0  0  0  0  0  0  0
    9.9573    7.6986    0.0000 H   0  0  0  0  0  0  0  0  0  0  0  0
    9.4175   -4.1815    0.0000 H   0  0  0  0  0  0  0  0  0  0  0  0
    6.6115   -4.1815    0.0000 H   0  0  0  0  0  0  0  0  0  0  0  0
    9.4175   -5.8015    0.0000 H   0  0  0  0  0  0  0  0  0  0  0  0
    6.6115   -5.8015    0.0000 H   0  0  0  0  0  0  0  0  0  0  0  0
   10.9417   -4.3015    0.0000 H   0  0  0  0  0  0  0  0  0  0  0  0
    7.4776   -7.3015    0.0000 H   0  0  0  0  0  0  0  0  0  0  0  0
   13.7476   -2.6815    0.0000 H   0  0  0  0  0  0  0  0  0  0  0  0
   13.7476   -4.3015    0.0000 H   0  0  0  0  0  0  0  0  0  0  0  0
 15  1  1  1  0  0  0
  1 22  1  0  0  0  0
  2 18  2  0  0  0  0
  3 20  2  0  0  0  0
  4 26  2  0  0  0  0
  5 31  2  0  0  0  0
  6 38  2  0  0  0  0
  7 45  1  0  0  0  0
  7 88  1  0  0  0  0
  8 14  1  0  0  0  0
  8 17  1  0  0  0  0
  8 18  1  0  0  0  0
 19  9  1  6  0  0  0
  9 26  1  0  0  0  0
  9 57  1  0  0  0  0
 10 20  1  0  0  0  0
 25 10  1  1  0  0  0
 10 58  1  0  0  0  0
 27 11  1  1  0  0  0
 11 38  1  0  0  0  0
 11 79  1  0  0  0  0
 12 42  2  0  0  0  0
 12 47  1  0  0  0  0
 13 46  2  0  0  0  0
 13 48  1  0  0  0  0
 14 16  1  0  0  0  0
 14 20  1  6  0  0  0
 14 49  1  0  0  0  0
 15 16  1  0  0  0  0
 15 17  1  0  0  0  0
 15 50  1  0  0  0  0
 16 51  1  0  0  0  0
 16 52  1  0  0  0  0
 17 53  1  0  0  0  0
 17 54  1  0  0  0  0
 18 19  1  0  0  0  0
 19 21  1  0  0  0  0
 19 55  1  0  0  0  0
 21 23  1  0  0  0  0
 21 24  1  0  0  0  0
 21 56  1  0  0  0  0
 22 28  1  0  0  0  0
 22 59  1  0  0  0  0
 22 60  1  0  0  0  0
 23 61  1  0  0  0  0
 23 62  1  0  0  0  0
 23 63  1  0  0  0  0
 24 64  1  0  0  0  0
 24 65  1  0  0  0  0
 24 66  1  0  0  0  0
 25 29  1  0  0  0  0
 25 31  1  0  0  0  0
 25 67  1  0  0  0  0
 26 27  1  0  0  0  0
 27 30  1  0  0  0  0
 27 68  1  0  0  0  0
 28 33  2  0  0  0  0
 28 34  1  0  0  0  0
 29 32  1  0  0  0  0
 29 69  1  0  0  0  0
 29 70  1  0  0  0  0
 30 35  1  0  0  0  0
 30 71  1  0  0  0  0
 30 72  1  0  0  0  0
 31 73  1  0  0  0  0
 32 74  1  0  0  0  0
 32 75  1  0  0  0  0
 32 76  1  0  0  0  0
 33 36  1  0  0  0  0
 33 77  1  0  0  0  0
 34 37  2  0  0  0  0
 34 78  1  0  0  0  0
 35 40  2  0  0  0  0
 35 41  1  0  0  0  0
 36 39  2  0  0  0  0
 36 80  1  0  0  0  0
 37 39  1  0  0  0  0
 37 81  1  0  0  0  0
 38 42  1  0  0  0  0
 39 82  1  0  0  0  0
 40 43  1  0  0  0  0
 40 83  1  0  0  0  0
 41 44  2  0  0  0  0
 41 84  1  0  0  0  0
 42 46  1  0  0  0  0
 43 45  2  0  0  0  0
 43 85  1  0  0  0  0
 44 45  1  0  0  0  0
 44 86  1  0  0  0  0
 46 87  1  0  0  0  0
 47 48  2  0  0  0  0
 47 89  1  0  0  0  0
 48 90  1  0  0  0  0
M  END
> <PUBCHEM_COMPOUND_CID>
506753
> <PUBCHEM_COMPOUND_CANONICALIZED>
1
> <PUBCHEM_CACTVS_COMPLEXITY>
1080
> <PUBCHEM_CACTVS_HBOND_ACCEPTOR>
9
> <PUBCHEM_CACTVS_HBOND_DONOR>
4
> <PUBCHEM_CACTVS_ROTATABLE_BOND>
15
> <PUBCHEM_CACTVS_SUBSKEYS>
AAADcfB/uAAAAAAAAAAAAAAAAAAAAWAAAAA8YIAAAAAAAAAB0AAAHgAQCAAADTzhngY+hpPIFgCoAz131ACCgCQ3MiAI2IG+fMgKZnrC8TuXcIgm1hHYuMe6yaCOIAAAAAAAAABAAAAAAAAAAAAAAAAAAA==
> <PUBCHEM_IUPAC_OPENEYE_NAME>
N-[(1S)-2-[[(1S)-1-[(2S,4R)-4-benzyloxy-2-[[(1S)-1-formylpropyl]carbamoyl]pyrrolidine-1-carbonyl]-2-methyl-propyl]amino]-1-[(4-hydroxyphenyl)methyl]-2-oxo-ethyl]pyrazine-2-carboxamide
> <PUBCHEM_IUPAC_CAS_NAME>
N-[(2S)-3-(4-hydroxyphenyl)-1-[[(2S)-3-methyl-1-oxo-1-[(2S,4R)-2-[oxo-[[(2S)-1-oxobutan-2-yl]amino]methyl]-4-phenylmethoxy-1-pyrrolidinyl]butan-2-yl]amino]-1-oxopropan-2-yl]-2-pyrazinecarboxamide
> <PUBCHEM_IUPAC_NAME_MARKUP>
<I>N</I>-[(2<I>S</I>)-3-(4-hydroxyphenyl)-1-[[(2<I>S</I>)-3-methyl-1-oxo-1-[(2<I>S</I>,4<I>R</I>)-2-[[(2<I>S</I>)-1-oxobutan-2-yl]carbamoyl]-4-phenylmethoxypyrrolidin-1-yl]butan-2-yl]amino]-1-oxopropan-2-yl]pyrazine-2-carboxamide
> <PUBCHEM_IUPAC_NAME>
N-[(2S)-3-(4-hydroxyphenyl)-1-[[(2S)-3-methyl-1-oxo-1-[(2S,4R)-2-[[(2S)-1-oxobutan-2-yl]carbamoyl]-4-phenylmethoxypyrrolidin-1-yl]butan-2-yl]amino]-1-oxopropan-2-yl]pyrazine-2-carboxamide
> <PUBCHEM_IUPAC_SYSTEMATIC_NAME>
N-[(2S)-3-(4-hydroxyphenyl)-1-[[(2S)-3-methyl-1-oxidanylidene-1-[(2S,4R)-2-[[(2S)-1-oxidanylidenebutan-2-yl]carbamoyl]-4-phenylmethoxy-pyrrolidin-1-yl]butan-2-yl]amino]-1-oxidanylidene-propan-2-yl]pyrazine-2-carboxamide
> <PUBCHEM_IUPAC_TRADITIONAL_NAME>
N-[(1S)-2-[[(1S)-1-[(2S,4R)-4-benzoxy-2-[[(1S)-1-formylpropyl]carbamoyl]pyrrolidine-1-carbonyl]-2-methyl-propyl]amino]-1-(4-hydroxybenzyl)-2-keto-ethyl]pyrazinamide
> <PUBCHEM_IUPAC_INCHI>
InChI=1S/C35H42N6O7/c1-4-25(20-42)38-34(46)30-17-27(48-21-24-8-6-5-7-9-24)19-41(30)35(47)31(22(2)3)40-32(44)28(16-23-10-12-26(43)13-11-23)39-33(45)29-18-36-14-15-37-29/h5-15,18,20,22,25,27-28,30-31,43H,4,16-17,19,21H2,1-3H3,(H,38,46)(H,39,45)(H,40,44)/t25-,27+,28-,30-,31-/m0/s1
> <PUBCHEM_IUPAC_INCHIKEY>
APLDONJXJJXYOD-SMPOVXKUSA-N
> <PUBCHEM_XLOGP3_AA>
2.7
> <PUBCHEM_EXACT_MASS>
658.31149770
> <PUBCHEM_MOLECULAR_FORMULA>
C35H42N6O7
> <PUBCHEM_MOLECULAR_WEIGHT>
658.7
> <PUBCHEM_OPENEYE_CAN_SMILES>
CCC(C=O)NC(=O)C1CC(CN1C(=O)C(C(C)C)NC(=O)C(CC2=CC=C(C=C2)O)NC(=O)C3=NC=CN=C3)OCC4=CC=CC=C4
> <PUBCHEM_OPENEYE_ISO_SMILES>
CC[C@@H](C=O)NC(=O)[C@@H]1C[C@H](CN1C(=O)[C@H](C(C)C)NC(=O)[C@H](CC2=CC=C(C=C2)O)NC(=O)C3=NC=CN=C3)OCC4=CC=CC=C4
> <PUBCHEM_CACTVS_TPSA>
180
> <PUBCHEM_MONOISOTOPIC_WEIGHT>
658.31149770
> <PUBCHEM_TOTAL_CHARGE>
0
> <PUBCHEM_HEAVY_ATOM_COUNT>
48
> <PUBCHEM_ATOM_DEF_STEREO_COUNT>
5
> <PUBCHEM_ATOM_UDEF_STEREO_COUNT>
0
> <PUBCHEM_BOND_DEF_STEREO_COUNT>
0
> <PUBCHEM_BOND_UDEF_STEREO_COUNT>
0
> <PUBCHEM_ISOTOPIC_ATOM_COUNT>
0
> <PUBCHEM_COMPONENT_COUNT>
1
> <PUBCHEM_CACTVS_TAUTO_COUNT>
-1
> <PUBCHEM_COORDINATE_TYPE>
1
5
255
> <PUBCHEM_BONDANNOTATIONS>
15  1  5
25  10  5
27  11  5
12  42  8
12  47  8
13  46  8
13  48  8
14  20  6
28  33  8
28  34  8
33  36  8
34  37  8
35  40  8
35  41  8
36  39  8
37  39  8
40  43  8
41  44  8
42  46  8
43  45  8
44  45  8
47  48  8
19  9  6
$$$$
