506708
  -OEChem-10302200282D
 90 92  0     1  0  0  0  0  0999 V2000
    5.5714   -1.7528    0.0000 O   0  0  0  0  0  0  0  0  0  0  0  0
    9.8806   -1.5209    0.0000 O   0  0  0  0  0  0  0  0  0  0  0  0
    9.7382   -2.8755    0.0000 O   0  0  0  0  0  0  0  0  0  0  0  0
    9.0146    1.9791    0.0000 O   0  0  0  0  0  0  0  0  0  0  0  0
   11.6127    6.4791    0.0000 O   0  0  0  0  0  0  0  0  0  0  0  0
    9.8576   -6.4791    0.0000 O   0  0  0  0  0  0  0  0  0  0  0  0
   12.4787    2.9791    0.0000 O   0  0  0  0  0  0  0  0  0  0  0  0
    8.1486   -1.5209    0.0000 N   0  0  0  0  0  0  0  0  0  0  0  0
    9.8806    0.4791    0.0000 N   0  0  0  0  0  0  0  0  0  0  0  0
    8.5792   -4.1627    0.0000 N   0  0  0  0  0  0  0  0  0  0  0  0
   10.7466    2.9791    0.0000 N   0  0  0  0  0  0  0  0  0  0  0  0
   11.6127    4.4791    0.0000 N   0  0  0  0  0  0  0  0  0  0  0  0
    8.0440   -2.5154    0.0000 C   0  0  1  0  0  0  0  0  0  0  0  0
    6.5659   -1.8573    0.0000 C   0  0  2  0  0  0  0  0  0  0  0  0
    7.0659   -2.7233    0.0000 C   0  0  0  0  0  0  0  0  0  0  0  0
    7.2350   -1.1142    0.0000 C   0  0  0  0  0  0  0  0  0  0  0  0
    9.0146   -1.0209    0.0000 C   0  0  0  0  0  0  0  0  0  0  0  0
    9.0146   -0.0209    0.0000 C   0  0  2  0  0  0  0  0  0  0  0  0
    8.7872   -3.1846    0.0000 C   0  0  0  0  0  0  0  0  0  0  0  0
    8.1486    0.4791    0.0000 C   0  0  0  0  0  0  0  0  0  0  0  0
    4.9836   -2.5618    0.0000 C   0  0  0  0  0  0  0  0  0  0  0  0
    8.1486    1.4791    0.0000 C   0  0  0  0  0  0  0  0  0  0  0  0
    7.2825   -0.0209    0.0000 C   0  0  0  0  0  0  0  0  0  0  0  0
   10.7466    1.9791    0.0000 C   0  0  2  0  0  0  0  0  0  0  0  0
    9.8806    1.4791    0.0000 C   0  0  0  0  0  0  0  0  0  0  0  0
    9.3224   -4.8318    0.0000 C   0  0  1  0  0  0  0  0  0  0  0  0
   11.6127    1.4791    0.0000 C   0  0  0  0  0  0  0  0  0  0  0  0
    3.9890   -2.4573    0.0000 C   0  0  0  0  0  0  0  0  0  0  0  0
   10.2735   -4.5228    0.0000 C   0  0  0  0  0  0  0  0  0  0  0  0
   11.6127    0.4791    0.0000 C   0  0  0  0  0  0  0  0  0  0  0  0
   12.4787    1.9791    0.0000 C   0  0  0  0  0  0  0  0  0  0  0  0
    9.1145   -5.8100    0.0000 C   0  0  0  0  0  0  0  0  0  0  0  0
   11.6127    3.4791    0.0000 C   0  0  0  0  0  0  0  0  0  0  0  0
   11.0166   -5.1919    0.0000 C   0  0  0  0  0  0  0  0  0  0  0  0
    3.4013   -3.2663    0.0000 C   0  0  0  0  0  0  0  0  0  0  0  0
    3.5823   -1.5437    0.0000 C   0  0  0  0  0  0  0  0  0  0  0  0
   10.7466    4.9791    0.0000 C   0  0  0  0  0  0  0  0  0  0  0  0
   12.4787    4.9791    0.0000 C   0  0  0  0  0  0  0  0  0  0  0  0
   10.7466    5.9791    0.0000 C   0  0  0  0  0  0  0  0  0  0  0  0
   12.4787    5.9791    0.0000 C   0  0  0  0  0  0  0  0  0  0  0  0
    2.4067   -3.1618    0.0000 C   0  0  0  0  0  0  0  0  0  0  0  0
    2.5878   -1.4392    0.0000 C   0  0  0  0  0  0  0  0  0  0  0  0
    2.0000   -2.2482    0.0000 C   0  0  0  0  0  0  0  0  0  0  0  0
    8.6228   -2.2932    0.0000 H   0  0  0  0  0  0  0  0  0  0  0  0
    6.3437   -1.2785    0.0000 H   0  0  0  0  0  0  0  0  0  0  0  0
    6.4995   -2.9755    0.0000 H   0  0  0  0  0  0  0  0  0  0  0  0
    7.2575   -3.3130    0.0000 H   0  0  0  0  0  0  0  0  0  0  0  0
    7.5450   -0.5772    0.0000 H   0  0  0  0  0  0  0  0  0  0  0  0
    6.7334   -0.7497    0.0000 H   0  0  0  0  0  0  0  0  0  0  0  0
    9.5515   -0.3309    0.0000 H   0  0  0  0  0  0  0  0  0  0  0  0
    8.6855    0.7891    0.0000 H   0  0  0  0  0  0  0  0  0  0  0  0
   10.4175    0.1691    0.0000 H   0  0  0  0  0  0  0  0  0  0  0  0
    7.9896   -4.3543    0.0000 H   0  0  0  0  0  0  0  0  0  0  0  0
    4.8127   -3.1578    0.0000 H   0  0  0  0  0  0  0  0  0  0  0  0
    5.5408   -2.8336    0.0000 H   0  0  0  0  0  0  0  0  0  0  0  0
    8.7686    1.4791    0.0000 H   0  0  0  0  0  0  0  0  0  0  0  0
    8.1486    2.0991    0.0000 H   0  0  0  0  0  0  0  0  0  0  0  0
    7.5286    1.4791    0.0000 H   0  0  0  0  0  0  0  0  0  0  0  0
    6.9725    0.5160    0.0000 H   0  0  0  0  0  0  0  0  0  0  0  0
    6.7456   -0.3309    0.0000 H   0  0  0  0  0  0  0  0  0  0  0  0
    7.5925   -0.5578    0.0000 H   0  0  0  0  0  0  0  0  0  0  0  0
   10.2097    2.2891    0.0000 H   0  0  0  0  0  0  0  0  0  0  0  0
    8.7327   -5.0234    0.0000 H   0  0  0  0  0  0  0  0  0  0  0  0
   12.1496    1.1691    0.0000 H   0  0  0  0  0  0  0  0  0  0  0  0
   10.7620   -4.1411    0.0000 H   0  0  0  0  0  0  0  0  0  0  0  0
    9.9824   -3.9754    0.0000 H   0  0  0  0  0  0  0  0  0  0  0  0
   10.2097    3.2891    0.0000 H   0  0  0  0  0  0  0  0  0  0  0  0
   10.9927    0.4791    0.0000 H   0  0  0  0  0  0  0  0  0  0  0  0
   11.6127   -0.1409    0.0000 H   0  0  0  0  0  0  0  0  0  0  0  0
   12.2327    0.4791    0.0000 H   0  0  0  0  0  0  0  0  0  0  0  0
   12.7887    1.4422    0.0000 H   0  0  0  0  0  0  0  0  0  0  0  0
   13.0156    2.2891    0.0000 H   0  0  0  0  0  0  0  0  0  0  0  0
   12.1687    2.5160    0.0000 H   0  0  0  0  0  0  0  0  0  0  0  0
    8.5248   -6.0016    0.0000 H   0  0  0  0  0  0  0  0  0  0  0  0
   10.6017   -5.6527    0.0000 H   0  0  0  0  0  0  0  0  0  0  0  0
   11.4773   -5.6068    0.0000 H   0  0  0  0  0  0  0  0  0  0  0  0
   11.4315   -4.7312    0.0000 H   0  0  0  0  0  0  0  0  0  0  0  0
    3.6534   -3.8327    0.0000 H   0  0  0  0  0  0  0  0  0  0  0  0
    3.9467   -1.0421    0.0000 H   0  0  0  0  0  0  0  0  0  0  0  0
   10.1360    5.0868    0.0000 H   0  0  0  0  0  0  0  0  0  0  0  0
   10.5346    4.3965    0.0000 H   0  0  0  0  0  0  0  0  0  0  0  0
   12.6907    4.3965    0.0000 H   0  0  0  0  0  0  0  0  0  0  0  0
   13.0893    5.0868    0.0000 H   0  0  0  0  0  0  0  0  0  0  0  0
   10.5346    6.5617    0.0000 H   0  0  0  0  0  0  0  0  0  0  0  0
   10.1360    5.8714    0.0000 H   0  0  0  0  0  0  0  0  0  0  0  0
   13.0893    5.8714    0.0000 H   0  0  0  0  0  0  0  0  0  0  0  0
   12.6907    6.5617    0.0000 H   0  0  0  0  0  0  0  0  0  0  0  0
    2.0423   -3.6633    0.0000 H   0  0  0  0  0  0  0  0  0  0  0  0
    2.3356   -0.8728    0.0000 H   0  0  0  0  0  0  0  0  0  0  0  0
    1.3834   -2.1834    0.0000 H   0  0  0  0  0  0  0  0  0  0  0  0
 14  1  1  1  0  0  0
  1 21  1  0  0  0  0
  2 17  2  0  0  0  0
  3 19  2  0  0  0  0
  4 25  2  0  0  0  0
  5 39  1  0  0  0  0
  5 40  1  0  0  0  0
  6 32  2  0  0  0  0
  7 33  2  0  0  0  0
  8 13  1  0  0  0  0
  8 16  1  0  0  0  0
  8 17  1  0  0  0  0
 18  9  1  6  0  0  0
  9 25  1  0  0  0  0
  9 52  1  0  0  0  0
 10 19  1  0  0  0  0
 26 10  1  1  0  0  0
 10 53  1  0  0  0  0
 24 11  1  1  0  0  0
 11 33  1  0  0  0  0
 11 67  1  0  0  0  0
 12 33  1  0  0  0  0
 12 37  1  0  0  0  0
 12 38  1  0  0  0  0
 13 15  1  0  0  0  0
 13 19  1  6  0  0  0
 13 44  1  0  0  0  0
 14 15  1  0  0  0  0
 14 16  1  0  0  0  0
 14 45  1  0  0  0  0
 15 46  1  0  0  0  0
 15 47  1  0  0  0  0
 16 48  1  0  0  0  0
 16 49  1  0  0  0  0
 17 18  1  0  0  0  0
 18 20  1  0  0  0  0
 18 50  1  0  0  0  0
 20 22  1  0  0  0  0
 20 23  1  0  0  0  0
 20 51  1  0  0  0  0
 21 28  1  0  0  0  0
 21 54  1  0  0  0  0
 21 55  1  0  0  0  0
 22 56  1  0  0  0  0
 22 57  1  0  0  0  0
 22 58  1  0  0  0  0
 23 59  1  0  0  0  0
 23 60  1  0  0  0  0
 23 61  1  0  0  0  0
 24 25  1  0  0  0  0
 24 27  1  0  0  0  0
 24 62  1  0  0  0  0
 26 29  1  0  0  0  0
 26 32  1  0  0  0  0
 26 63  1  0  0  0  0
 27 30  1  0  0  0  0
 27 31  1  0  0  0  0
 27 64  1  0  0  0  0
 28 35  2  0  0  0  0
 28 36  1  0  0  0  0
 29 34  1  0  0  0  0
 29 65  1  0  0  0  0
 29 66  1  0  0  0  0
 30 68  1  0  0  0  0
 30 69  1  0  0  0  0
 30 70  1  0  0  0  0
 31 71  1  0  0  0  0
 31 72  1  0  0  0  0
 31 73  1  0  0  0  0
 32 74  1  0  0  0  0
 34 75  1  0  0  0  0
 34 76  1  0  0  0  0
 34 77  1  0  0  0  0
 35 41  1  0  0  0  0
 35 78  1  0  0  0  0
 36 42  2  0  0  0  0
 36 79  1  0  0  0  0
 37 39  1  0  0  0  0
 37 80  1  0  0  0  0
 37 81  1  0  0  0  0
 38 40  1  0  0  0  0
 38 82  1  0  0  0  0
 38 83  1  0  0  0  0
 39 84  1  0  0  0  0
 39 85  1  0  0  0  0
 40 86  1  0  0  0  0
 40 87  1  0  0  0  0
 41 43  2  0  0  0  0
 41 88  1  0  0  0  0
 42 43  1  0  0  0  0
 42 89  1  0  0  0  0
 43 90  1  0  0  0  0
M  END
> <PUBCHEM_COMPOUND_CID>
506708
> <PUBCHEM_COMPOUND_CANONICALIZED>
1
> <PUBCHEM_CACTVS_COMPLEXITY>
949
> <PUBCHEM_CACTVS_HBOND_ACCEPTOR>
7
> <PUBCHEM_CACTVS_HBOND_DONOR>
3
> <PUBCHEM_CACTVS_ROTATABLE_BOND>
13
> <PUBCHEM_CACTVS_SUBSKEYS>
AAADcfB7uAAAAAAAAAAAAAAAAAAAAWAAAAA8QAAAAAAAAAABAAAAHgAQAAAADTzhmAYzAIPABACIAilSkAACAAAgAAAIiIGICIiKZjKAsTiXMAAu1gOYqAe6wSAOAAAAAAAAAAAAAAAAAAAAAAAAAAAAAA==
> <PUBCHEM_IUPAC_OPENEYE_NAME>
N-[(1S)-1-[[(1S)-1-[(2S,4R)-4-benzyloxy-2-[[(1S)-1-formylpropyl]carbamoyl]pyrrolidine-1-carbonyl]-2-methyl-propyl]carbamoyl]-2-methyl-propyl]morpholine-4-carboxamide
> <PUBCHEM_IUPAC_CAS_NAME>
N-[(2S)-3-methyl-1-[[(2S)-3-methyl-1-oxo-1-[(2S,4R)-2-[oxo-[[(2S)-1-oxobutan-2-yl]amino]methyl]-4-phenylmethoxy-1-pyrrolidinyl]butan-2-yl]amino]-1-oxobutan-2-yl]-4-morpholinecarboxamide
> <PUBCHEM_IUPAC_NAME_MARKUP>
<I>N</I>-[(2<I>S</I>)-3-methyl-1-[[(2<I>S</I>)-3-methyl-1-oxo-1-[(2<I>S</I>,4<I>R</I>)-2-[[(2<I>S</I>)-1-oxobutan-2-yl]carbamoyl]-4-phenylmethoxypyrrolidin-1-yl]butan-2-yl]amino]-1-oxobutan-2-yl]morpholine-4-carboxamide
> <PUBCHEM_IUPAC_NAME>
N-[(2S)-3-methyl-1-[[(2S)-3-methyl-1-oxo-1-[(2S,4R)-2-[[(2S)-1-oxobutan-2-yl]carbamoyl]-4-phenylmethoxypyrrolidin-1-yl]butan-2-yl]amino]-1-oxobutan-2-yl]morpholine-4-carboxamide
> <PUBCHEM_IUPAC_SYSTEMATIC_NAME>
N-[(2S)-3-methyl-1-[[(2S)-3-methyl-1-oxidanylidene-1-[(2S,4R)-2-[[(2S)-1-oxidanylidenebutan-2-yl]carbamoyl]-4-phenylmethoxy-pyrrolidin-1-yl]butan-2-yl]amino]-1-oxidanylidene-butan-2-yl]morpholine-4-carboxamide
> <PUBCHEM_IUPAC_TRADITIONAL_NAME>
N-[(1S)-1-[[(1S)-1-[(2S,4R)-4-benzoxy-2-[[(1S)-1-formylpropyl]carbamoyl]pyrrolidine-1-carbonyl]-2-methyl-propyl]carbamoyl]-2-methyl-propyl]morpholine-4-carboxamide
> <PUBCHEM_IUPAC_INCHI>
InChI=1S/C31H47N5O7/c1-6-23(18-37)32-28(38)25-16-24(43-19-22-10-8-7-9-11-22)17-36(25)30(40)27(21(4)5)33-29(39)26(20(2)3)34-31(41)35-12-14-42-15-13-35/h7-11,18,20-21,23-27H,6,12-17,19H2,1-5H3,(H,32,38)(H,33,39)(H,34,41)/t23-,24+,25-,26-,27-/m0/s1
> <PUBCHEM_IUPAC_INCHIKEY>
SMSWVEYLGRVOGP-YUDMECHNSA-N
> <PUBCHEM_XLOGP3_AA>
2.2
> <PUBCHEM_EXACT_MASS>
601.34754886
> <PUBCHEM_MOLECULAR_FORMULA>
C31H47N5O7
> <PUBCHEM_MOLECULAR_WEIGHT>
601.7
> <PUBCHEM_OPENEYE_CAN_SMILES>
CCC(C=O)NC(=O)C1CC(CN1C(=O)C(C(C)C)NC(=O)C(C(C)C)NC(=O)N2CCOCC2)OCC3=CC=CC=C3
> <PUBCHEM_OPENEYE_ISO_SMILES>
CC[C@@H](C=O)NC(=O)[C@@H]1C[C@H](CN1C(=O)[C@H](C(C)C)NC(=O)[C@H](C(C)C)NC(=O)N2CCOCC2)OCC3=CC=CC=C3
> <PUBCHEM_CACTVS_TPSA>
146
> <PUBCHEM_MONOISOTOPIC_WEIGHT>
601.34754886
> <PUBCHEM_TOTAL_CHARGE>
0
> <PUBCHEM_HEAVY_ATOM_COUNT>
43
> <PUBCHEM_ATOM_DEF_STEREO_COUNT>
5
> <PUBCHEM_ATOM_UDEF_STEREO_COUNT>
0
> <PUBCHEM_BOND_DEF_STEREO_COUNT>
0
> <PUBCHEM_BOND_UDEF_STEREO_COUNT>
0
> <PUBCHEM_ISOTOPIC_ATOM_COUNT>
0
> <PUBCHEM_COMPONENT_COUNT>
1
> <PUBCHEM_CACTVS_TAUTO_COUNT>
-1
> <PUBCHEM_COORDINATE_TYPE>
1
5
255
> <PUBCHEM_BONDANNOTATIONS>
14  1  5
26  10  5
24  11  5
13  19  6
28  35  8
28  36  8
35  41  8
36  42  8
41  43  8
42  43  8
18  9  6
$$$$
