506703
  -OEChem-10302200282D
103106  0     1  0  0  0  0  0999 V2000
    7.9621    3.0567    0.0000 O   0  0  0  0  0  0  0  0  0  0  0  0
   10.3176   -0.5593    0.0000 O   0  0  0  0  0  0  0  0  0  0  0  0
    9.0732   -1.1133    0.0000 O   0  0  0  0  0  0  0  0  0  0  0  0
   12.9156    1.9407    0.0000 O   0  0  0  0  0  0  0  0  0  0  0  0
    5.4769   -1.3712    0.0000 O   0  0  0  0  0  0  0  0  0  0  0  0
    6.7553   -3.6876    0.0000 O   0  0  0  0  0  0  0  0  0  0  0  0
   15.5137   -0.5593    0.0000 O   0  0  0  0  0  0  0  0  0  0  0  0
    9.4515    0.9407    0.0000 N   0  0  0  0  0  0  0  0  0  0  0  0
    7.3790   -0.7532    0.0000 N   0  0  0  0  0  0  0  0  0  0  0  0
   12.0496    0.4407    0.0000 N   0  0  0  0  0  0  0  0  0  0  0  0
   14.6477    0.9407    0.0000 N   0  0  0  0  0  0  0  0  0  0  0  0
   17.2458    0.4407    0.0000 N   0  0  0  0  0  0  0  0  0  0  0  0
   17.2458    2.4407    0.0000 N   0  0  0  0  0  0  0  0  0  0  0  0
    8.5380    0.5340    0.0000 C   0  0  1  0  0  0  0  0  0  0  0  0
    8.3689    2.1431    0.0000 C   0  0  2  0  0  0  0  0  0  0  0  0
    7.8689    1.2771    0.0000 C   0  0  0  0  0  0  0  0  0  0  0  0
    9.3470    1.9352    0.0000 C   0  0  0  0  0  0  0  0  0  0  0  0
   10.3176    0.4407    0.0000 C   0  0  0  0  0  0  0  0  0  0  0  0
   11.1836    0.9407    0.0000 C   0  0  2  0  0  0  0  0  0  0  0  0
    8.3301   -0.4442    0.0000 C   0  0  0  0  0  0  0  0  0  0  0  0
   11.1836    1.9407    0.0000 C   0  0  0  0  0  0  0  0  0  0  0  0
    6.9676    3.1612    0.0000 C   0  0  0  0  0  0  0  0  0  0  0  0
    7.1711   -1.7313    0.0000 C   0  0  1  0  0  0  0  0  0  0  0  0
   12.0496    2.4407    0.0000 C   0  0  0  0  0  0  0  0  0  0  0  0
   10.3176    2.4407    0.0000 C   0  0  0  0  0  0  0  0  0  0  0  0
   12.9156    0.9407    0.0000 C   0  0  0  0  0  0  0  0  0  0  0  0
   13.7817    0.4407    0.0000 C   0  0  2  0  0  0  0  0  0  0  0  0
    7.9142   -2.4005    0.0000 C   0  0  0  0  0  0  0  0  0  0  0  0
   13.7817   -0.5593    0.0000 C   0  0  0  0  0  0  0  0  0  0  0  0
    6.5609    4.0748    0.0000 C   0  0  0  0  0  0  0  0  0  0  0  0
    6.2200   -2.0404    0.0000 C   0  0  0  0  0  0  0  0  0  0  0  0
    7.7063   -3.3786    0.0000 C   0  0  0  0  0  0  0  0  0  0  0  0
   12.9156   -1.0593    0.0000 C   0  0  0  0  0  0  0  0  0  0  0  0
   14.6477   -1.0593    0.0000 C   0  0  0  0  0  0  0  0  0  0  0  0
    7.1486    4.8838    0.0000 C   0  0  0  0  0  0  0  0  0  0  0  0
    5.5663    4.1793    0.0000 C   0  0  0  0  0  0  0  0  0  0  0  0
    6.0121   -3.0185    0.0000 C   0  0  0  0  0  0  0  0  0  0  0  0
    5.0611   -3.3275    0.0000 C   0  0  0  0  0  0  0  0  0  0  0  0
   15.5137    0.4407    0.0000 C   0  0  0  0  0  0  0  0  0  0  0  0
    6.7419    5.7973    0.0000 C   0  0  0  0  0  0  0  0  0  0  0  0
    5.1596    5.0928    0.0000 C   0  0  0  0  0  0  0  0  0  0  0  0
    5.7474    5.9018    0.0000 C   0  0  0  0  0  0  0  0  0  0  0  0
    4.8532   -4.3057    0.0000 C   0  0  0  0  0  0  0  0  0  0  0  0
   16.3797    0.9407    0.0000 C   0  0  0  0  0  0  0  0  0  0  0  0
    3.9021   -4.6147    0.0000 C   0  0  0  0  0  0  0  0  0  0  0  0
   16.3797    1.9407    0.0000 C   0  0  0  0  0  0  0  0  0  0  0  0
    3.6942   -5.5928    0.0000 C   0  0  0  0  0  0  0  0  0  0  0  0
    3.1590   -3.9456    0.0000 C   0  0  0  0  0  0  0  0  0  0  0  0
    2.7431   -5.9018    0.0000 C   0  0  0  0  0  0  0  0  0  0  0  0
    2.2079   -4.2546    0.0000 C   0  0  0  0  0  0  0  0  0  0  0  0
   18.1118    0.9407    0.0000 C   0  0  0  0  0  0  0  0  0  0  0  0
    2.0000   -5.2327    0.0000 C   0  0  0  0  0  0  0  0  0  0  0  0
   18.1118    1.9407    0.0000 C   0  0  0  0  0  0  0  0  0  0  0  0
    9.0198    0.1438    0.0000 H   0  0  0  0  0  0  0  0  0  0  0  0
    8.7590    2.6250    0.0000 H   0  0  0  0  0  0  0  0  0  0  0  0
    7.3673    1.6415    0.0000 H   0  0  0  0  0  0  0  0  0  0  0  0
    7.4540    0.8164    0.0000 H   0  0  0  0  0  0  0  0  0  0  0  0
    9.9670    1.9352    0.0000 H   0  0  0  0  0  0  0  0  0  0  0  0
    9.4118    2.5518    0.0000 H   0  0  0  0  0  0  0  0  0  0  0  0
   11.1836    0.3207    0.0000 H   0  0  0  0  0  0  0  0  0  0  0  0
   11.7205    1.6307    0.0000 H   0  0  0  0  0  0  0  0  0  0  0  0
    6.9183   -0.3383    0.0000 H   0  0  0  0  0  0  0  0  0  0  0  0
   12.0496   -0.1793    0.0000 H   0  0  0  0  0  0  0  0  0  0  0  0
    6.3660    3.0112    0.0000 H   0  0  0  0  0  0  0  0  0  0  0  0
    7.0108    2.5427    0.0000 H   0  0  0  0  0  0  0  0  0  0  0  0
    6.7104   -1.3165    0.0000 H   0  0  0  0  0  0  0  0  0  0  0  0
   12.3596    1.9038    0.0000 H   0  0  0  0  0  0  0  0  0  0  0  0
   12.5865    2.7507    0.0000 H   0  0  0  0  0  0  0  0  0  0  0  0
   11.7396    2.9776    0.0000 H   0  0  0  0  0  0  0  0  0  0  0  0
   10.6276    2.9776    0.0000 H   0  0  0  0  0  0  0  0  0  0  0  0
    9.7806    2.7507    0.0000 H   0  0  0  0  0  0  0  0  0  0  0  0
   10.0076    1.9038    0.0000 H   0  0  0  0  0  0  0  0  0  0  0  0
   13.7817    1.0607    0.0000 H   0  0  0  0  0  0  0  0  0  0  0  0
    8.4891   -2.6327    0.0000 H   0  0  0  0  0  0  0  0  0  0  0  0
    8.2428   -1.8747    0.0000 H   0  0  0  0  0  0  0  0  0  0  0  0
   13.2447   -0.2493    0.0000 H   0  0  0  0  0  0  0  0  0  0  0  0
   14.6477    1.5607    0.0000 H   0  0  0  0  0  0  0  0  0  0  0  0
    7.0999   -3.2497    0.0000 H   0  0  0  0  0  0  0  0  0  0  0  0
    7.5774   -3.9851    0.0000 H   0  0  0  0  0  0  0  0  0  0  0  0
    8.3128   -3.5075    0.0000 H   0  0  0  0  0  0  0  0  0  0  0  0
   12.6056   -0.5224    0.0000 H   0  0  0  0  0  0  0  0  0  0  0  0
   12.3787   -1.3693    0.0000 H   0  0  0  0  0  0  0  0  0  0  0  0
   13.2256   -1.5962    0.0000 H   0  0  0  0  0  0  0  0  0  0  0  0
   14.3377   -1.5962    0.0000 H   0  0  0  0  0  0  0  0  0  0  0  0
   15.1846   -1.3693    0.0000 H   0  0  0  0  0  0  0  0  0  0  0  0
   14.9577   -0.5224    0.0000 H   0  0  0  0  0  0  0  0  0  0  0  0
    7.7652    4.8190    0.0000 H   0  0  0  0  0  0  0  0  0  0  0  0
    5.2019    3.6777    0.0000 H   0  0  0  0  0  0  0  0  0  0  0  0
    4.9748   -2.7136    0.0000 H   0  0  0  0  0  0  0  0  0  0  0  0
    4.4415   -3.3059    0.0000 H   0  0  0  0  0  0  0  0  0  0  0  0
    7.1063    6.2989    0.0000 H   0  0  0  0  0  0  0  0  0  0  0  0
    4.5430    5.1576    0.0000 H   0  0  0  0  0  0  0  0  0  0  0  0
    5.4952    6.4682    0.0000 H   0  0  0  0  0  0  0  0  0  0  0  0
    4.9395   -4.9196    0.0000 H   0  0  0  0  0  0  0  0  0  0  0  0
    5.4728   -4.3273    0.0000 H   0  0  0  0  0  0  0  0  0  0  0  0
   15.8428    2.2507    0.0000 H   0  0  0  0  0  0  0  0  0  0  0  0
    4.1550   -6.0077    0.0000 H   0  0  0  0  0  0  0  0  0  0  0  0
    3.2879   -3.3391    0.0000 H   0  0  0  0  0  0  0  0  0  0  0  0
    2.6142   -6.5083    0.0000 H   0  0  0  0  0  0  0  0  0  0  0  0
    1.7472   -3.8397    0.0000 H   0  0  0  0  0  0  0  0  0  0  0  0
   18.6487    0.6307    0.0000 H   0  0  0  0  0  0  0  0  0  0  0  0
    1.4103   -5.4243    0.0000 H   0  0  0  0  0  0  0  0  0  0  0  0
   18.6487    2.2507    0.0000 H   0  0  0  0  0  0  0  0  0  0  0  0
 15  1  1  1  0  0  0
  1 22  1  0  0  0  0
  2 18  2  0  0  0  0
  3 20  2  0  0  0  0
  4 26  2  0  0  0  0
  5 31  2  0  0  0  0
  6 37  2  0  0  0  0
  7 39  2  0  0  0  0
  8 14  1  0  0  0  0
  8 17  1  0  0  0  0
  8 18  1  0  0  0  0
  9 20  1  0  0  0  0
 23  9  1  1  0  0  0
  9 62  1  0  0  0  0
 19 10  1  6  0  0  0
 10 26  1  0  0  0  0
 10 63  1  0  0  0  0
 27 11  1  1  0  0  0
 11 39  1  0  0  0  0
 11 77  1  0  0  0  0
 12 44  2  0  0  0  0
 12 51  1  0  0  0  0
 13 46  2  0  0  0  0
 13 53  1  0  0  0  0
 14 16  1  0  0  0  0
 14 20  1  6  0  0  0
 14 54  1  0  0  0  0
 15 16  1  0  0  0  0
 15 17  1  0  0  0  0
 15 55  1  0  0  0  0
 16 56  1  0  0  0  0
 16 57  1  0  0  0  0
 17 58  1  0  0  0  0
 17 59  1  0  0  0  0
 18 19  1  0  0  0  0
 19 21  1  0  0  0  0
 19 60  1  0  0  0  0
 21 24  1  0  0  0  0
 21 25  1  0  0  0  0
 21 61  1  0  0  0  0
 22 30  1  0  0  0  0
 22 64  1  0  0  0  0
 22 65  1  0  0  0  0
 23 28  1  0  0  0  0
 23 31  1  0  0  0  0
 23 66  1  0  0  0  0
 24 67  1  0  0  0  0
 24 68  1  0  0  0  0
 24 69  1  0  0  0  0
 25 70  1  0  0  0  0
 25 71  1  0  0  0  0
 25 72  1  0  0  0  0
 26 27  1  0  0  0  0
 27 29  1  0  0  0  0
 27 73  1  0  0  0  0
 28 32  1  0  0  0  0
 28 74  1  0  0  0  0
 28 75  1  0  0  0  0
 29 33  1  0  0  0  0
 29 34  1  0  0  0  0
 29 76  1  0  0  0  0
 30 35  2  0  0  0  0
 30 36  1  0  0  0  0
 31 37  1  0  0  0  0
 32 78  1  0  0  0  0
 32 79  1  0  0  0  0
 32 80  1  0  0  0  0
 33 81  1  0  0  0  0
 33 82  1  0  0  0  0
 33 83  1  0  0  0  0
 34 84  1  0  0  0  0
 34 85  1  0  0  0  0
 34 86  1  0  0  0  0
 35 40  1  0  0  0  0
 35 87  1  0  0  0  0
 36 41  2  0  0  0  0
 36 88  1  0  0  0  0
 37 38  1  0  0  0  0
 38 43  1  0  0  0  0
 38 89  1  0  0  0  0
 38 90  1  0  0  0  0
 39 44  1  0  0  0  0
 40 42  2  0  0  0  0
 40 91  1  0  0  0  0
 41 42  1  0  0  0  0
 41 92  1  0  0  0  0
 42 93  1  0  0  0  0
 43 45  1  0  0  0  0
 43 94  1  0  0  0  0
 43 95  1  0  0  0  0
 44 46  1  0  0  0  0
 45 47  2  0  0  0  0
 45 48  1  0  0  0  0
 46 96  1  0  0  0  0
 47 49  1  0  0  0  0
 47 97  1  0  0  0  0
 48 50  2  0  0  0  0
 48 98  1  0  0  0  0
 49 52  2  0  0  0  0
 49 99  1  0  0  0  0
 50 52  1  0  0  0  0
 50100  1  0  0  0  0
 51 53  2  0  0  0  0
 51101  1  0  0  0  0
 52102  1  0  0  0  0
 53103  1  0  0  0  0
M  END
> <PUBCHEM_COMPOUND_CID>
506703
> <PUBCHEM_COMPOUND_CANONICALIZED>
1
> <PUBCHEM_CACTVS_COMPLEXITY>
1250
> <PUBCHEM_CACTVS_HBOND_ACCEPTOR>
9
> <PUBCHEM_CACTVS_HBOND_DONOR>
3
> <PUBCHEM_CACTVS_ROTATABLE_BOND>
18
> <PUBCHEM_CACTVS_SUBSKEYS>
AAADcfB/uAAAAAAAAAAAAAAAAAAAAWAAAAA8YIAAAAAAAAAB0AAAHgAQAAAADTzhngY+gJPIFACoA7V3VACCgCQ3EiAI2IG4fMgKZnrA8TiXMIgm1gHYqMe6yeCOAAAAAAAAAAAAAAAAAAAAAAAAAAAAAA==
> <PUBCHEM_IUPAC_OPENEYE_NAME>
N-[(1S)-1-[[(1S)-1-[(2S,4R)-4-benzyloxy-2-[[(1S)-1-ethyl-2,3-dioxo-5-phenyl-pentyl]carbamoyl]pyrrolidine-1-carbonyl]-2-methyl-propyl]carbamoyl]-2-methyl-propyl]pyrazine-2-carboxamide
> <PUBCHEM_IUPAC_CAS_NAME>
N-[(2S)-1-[[(2S)-1-[(2S,4R)-2-[[[(3S)-4,5-dioxo-7-phenylheptan-3-yl]amino]-oxomethyl]-4-phenylmethoxy-1-pyrrolidinyl]-3-methyl-1-oxobutan-2-yl]amino]-3-methyl-1-oxobutan-2-yl]-2-pyrazinecarboxamide
> <PUBCHEM_IUPAC_NAME_MARKUP>
<I>N</I>-[(2<I>S</I>)-1-[[(2<I>S</I>)-1-[(2<I>S</I>,4<I>R</I>)-2-[[(3<I>S</I>)-4,5-dioxo-7-phenylheptan-3-yl]carbamoyl]-4-phenylmethoxypyrrolidin-1-yl]-3-methyl-1-oxobutan-2-yl]amino]-3-methyl-1-oxobutan-2-yl]pyrazine-2-carboxamide
> <PUBCHEM_IUPAC_NAME>
N-[(2S)-1-[[(2S)-1-[(2S,4R)-2-[[(3S)-4,5-dioxo-7-phenylheptan-3-yl]carbamoyl]-4-phenylmethoxypyrrolidin-1-yl]-3-methyl-1-oxobutan-2-yl]amino]-3-methyl-1-oxobutan-2-yl]pyrazine-2-carboxamide
> <PUBCHEM_IUPAC_SYSTEMATIC_NAME>
N-[(2S)-1-[[(2S)-1-[(2S,4R)-2-[[(3S)-4,5-bis(oxidanylidene)-7-phenyl-heptan-3-yl]carbamoyl]-4-phenylmethoxy-pyrrolidin-1-yl]-3-methyl-1-oxidanylidene-butan-2-yl]amino]-3-methyl-1-oxidanylidene-butan-2-yl]pyrazine-2-carboxamide
> <PUBCHEM_IUPAC_TRADITIONAL_NAME>
N-[(1S)-1-[[(1S)-1-[(2S,4R)-4-benzoxy-2-[[(1S)-1-ethyl-2,3-diketo-5-phenyl-pentyl]carbamoyl]pyrrolidine-1-carbonyl]-2-methyl-propyl]carbamoyl]-2-methyl-propyl]pyrazinamide
> <PUBCHEM_IUPAC_INCHI>
InChI=1S/C40H50N6O7/c1-6-30(36(48)33(47)18-17-27-13-9-7-10-14-27)43-38(50)32-21-29(53-24-28-15-11-8-12-16-28)23-46(32)40(52)35(26(4)5)45-39(51)34(25(2)3)44-37(49)31-22-41-19-20-42-31/h7-16,19-20,22,25-26,29-30,32,34-35H,6,17-18,21,23-24H2,1-5H3,(H,43,50)(H,44,49)(H,45,51)/t29-,30+,32+,34+,35+/m1/s1
> <PUBCHEM_IUPAC_INCHIKEY>
CZQMPXOEZPEUBZ-OZENPIROSA-N
> <PUBCHEM_XLOGP3_AA>
4.1
> <PUBCHEM_EXACT_MASS>
726.37409796
> <PUBCHEM_MOLECULAR_FORMULA>
C40H50N6O7
> <PUBCHEM_MOLECULAR_WEIGHT>
726.9
> <PUBCHEM_OPENEYE_CAN_SMILES>
CCC(C(=O)C(=O)CCC1=CC=CC=C1)NC(=O)C2CC(CN2C(=O)C(C(C)C)NC(=O)C(C(C)C)NC(=O)C3=NC=CN=C3)OCC4=CC=CC=C4
> <PUBCHEM_OPENEYE_ISO_SMILES>
CC[C@@H](C(=O)C(=O)CCC1=CC=CC=C1)NC(=O)[C@@H]2C[C@H](CN2C(=O)[C@H](C(C)C)NC(=O)[C@H](C(C)C)NC(=O)C3=NC=CN=C3)OCC4=CC=CC=C4
> <PUBCHEM_CACTVS_TPSA>
177
> <PUBCHEM_MONOISOTOPIC_WEIGHT>
726.37409796
> <PUBCHEM_TOTAL_CHARGE>
0
> <PUBCHEM_HEAVY_ATOM_COUNT>
53
> <PUBCHEM_ATOM_DEF_STEREO_COUNT>
5
> <PUBCHEM_ATOM_UDEF_STEREO_COUNT>
0
> <PUBCHEM_BOND_DEF_STEREO_COUNT>
0
> <PUBCHEM_BOND_UDEF_STEREO_COUNT>
0
> <PUBCHEM_ISOTOPIC_ATOM_COUNT>
0
> <PUBCHEM_COMPONENT_COUNT>
1
> <PUBCHEM_CACTVS_TAUTO_COUNT>
-1
> <PUBCHEM_COORDINATE_TYPE>
1
5
255
> <PUBCHEM_BONDANNOTATIONS>
15  1  5
19  10  6
27  11  5
12  44  8
12  51  8
13  46  8
13  53  8
14  20  6
30  35  8
30  36  8
35  40  8
36  41  8
40  42  8
41  42  8
44  46  8
45  47  8
45  48  8
47  49  8
48  50  8
49  52  8
50  52  8
51  53  8
23  9  5
$$$$
