506731
  -OEChem-10302200282D
118117  0     1  0  0  0  0  0999 V2000
   11.1972   -0.2500    0.0000 O   0  0  0  0  0  0  0  0  0  0  0  0
   13.7953   -2.7500    0.0000 O   0  0  0  0  0  0  0  0  0  0  0  0
    8.5991   -2.7500    0.0000 O   0  0  0  0  0  0  0  0  0  0  0  0
   17.2594   -1.7500    0.0000 O   0  0  0  0  0  0  0  0  0  0  0  0
    7.7331   -3.2500    0.0000 O   0  0  0  0  0  0  0  0  0  0  0  0
    6.8671    1.2500    0.0000 O   0  0  0  0  0  0  0  0  0  0  0  0
    6.0010   -0.2500    0.0000 O   0  0  0  0  0  0  0  0  0  0  0  0
   16.3933    1.7500    0.0000 O   0  0  0  0  0  0  0  0  0  0  0  0
    4.2690   -4.2500    0.0000 O   0  0  0  0  0  0  0  0  0  0  0  0
    2.5369   -3.2500    0.0000 O   0  0  0  0  0  0  0  0  0  0  0  0
   18.9914    1.2500    0.0000 O   0  0  0  0  0  0  0  0  0  0  0  0
    3.4030   -1.7500    0.0000 O   0  0  0  0  0  0  0  0  0  0  0  0
   19.8574    4.7500    0.0000 O   0  0  0  0  0  0  0  0  0  0  0  0
   12.0632   -1.7500    0.0000 N   0  0  0  0  0  0  0  0  0  0  0  0
   14.6613   -1.2500    0.0000 N   0  0  0  0  0  0  0  0  0  0  0  0
    9.4651   -1.2500    0.0000 N   0  0  0  0  0  0  0  0  0  0  0  0
   16.3933   -0.2500    0.0000 N   0  0  0  0  0  0  0  0  0  0  0  0
    6.0010   -4.2500    0.0000 N   0  0  0  0  0  0  0  0  0  0  0  0
   18.1254    2.7500    0.0000 N   0  0  0  0  0  0  0  0  0  0  0  0
   12.9292   -1.2500    0.0000 C   0  0  1  0  0  0  0  0  0  0  0  0
   10.3312   -1.7500    0.0000 C   0  0  1  0  0  0  0  0  0  0  0  0
   12.9292   -0.2500    0.0000 C   0  0  0  0  0  0  0  0  0  0  0  0
   10.3312   -2.7500    0.0000 C   0  0  0  0  0  0  0  0  0  0  0  0
   15.5273   -1.7500    0.0000 C   0  0  1  0  0  0  0  0  0  0  0  0
   15.5273   -2.7500    0.0000 C   0  0  0  0  0  0  0  0  0  0  0  0
   16.3933   -3.2500    0.0000 C   0  0  0  0  0  0  0  0  0  0  0  0
   11.1972   -1.2500    0.0000 C   0  0  0  0  0  0  0  0  0  0  0  0
   13.7953   -1.7500    0.0000 C   0  0  0  0  0  0  0  0  0  0  0  0
    7.7331   -1.2500    0.0000 C   0  0  2  0  0  0  0  0  0  0  0  0
    6.8671   -1.7500    0.0000 C   0  0  0  0  0  0  0  0  0  0  0  0
    8.5991   -1.7500    0.0000 C   0  0  0  0  0  0  0  0  0  0  0  0
   13.7953    0.2500    0.0000 C   0  0  0  0  0  0  0  0  0  0  0  0
   12.0632    0.2500    0.0000 C   0  0  0  0  0  0  0  0  0  0  0  0
    9.4651   -3.2500    0.0000 C   0  0  0  0  0  0  0  0  0  0  0  0
   11.1972   -3.2500    0.0000 C   0  0  0  0  0  0  0  0  0  0  0  0
   16.3933   -1.2500    0.0000 C   0  0  0  0  0  0  0  0  0  0  0  0
    7.7331   -0.2500    0.0000 C   0  0  0  0  0  0  0  0  0  0  0  0
   16.3933   -4.2500    0.0000 C   0  0  0  0  0  0  0  0  0  0  0  0
   17.2594   -2.7500    0.0000 C   0  0  0  0  0  0  0  0  0  0  0  0
    6.0010   -3.2500    0.0000 C   0  0  2  0  0  0  0  0  0  0  0  0
    6.8671   -2.7500    0.0000 C   0  0  0  0  0  0  0  0  0  0  0  0
   17.2594    0.2500    0.0000 C   0  0  1  0  0  0  0  0  0  0  0  0
    5.1350   -2.7500    0.0000 C   0  0  0  0  0  0  0  0  0  0  0  0
   18.1254   -0.2500    0.0000 C   0  0  0  0  0  0  0  0  0  0  0  0
    6.8671    0.2500    0.0000 C   0  0  0  0  0  0  0  0  0  0  0  0
    4.2690   -3.2500    0.0000 C   0  0  0  0  0  0  0  0  0  0  0  0
   17.2594    1.2500    0.0000 C   0  0  0  0  0  0  0  0  0  0  0  0
   18.9914    0.2500    0.0000 C   0  0  0  0  0  0  0  0  0  0  0  0
    5.1350   -4.7500    0.0000 C   0  0  0  0  0  0  0  0  0  0  0  0
   18.1254    1.7500    0.0000 C   0  0  0  0  0  0  0  0  0  0  0  0
    3.4030   -2.7500    0.0000 C   0  0  0  0  0  0  0  0  0  0  0  0
   18.9914    3.2500    0.0000 C   0  0  3  0  0  0  0  0  0  0  0  0
    5.1350   -5.7500    0.0000 C   0  0  0  0  0  0  0  0  0  0  0  0
   18.9914    4.2500    0.0000 C   0  0  0  0  0  0  0  0  0  0  0  0
   19.8574    2.7500    0.0000 C   0  0  0  0  0  0  0  0  0  0  0  0
   19.8574    5.7500    0.0000 C   0  0  0  0  0  0  0  0  0  0  0  0
   12.9292   -1.8700    0.0000 H   0  0  0  0  0  0  0  0  0  0  0  0
    9.7942   -2.0600    0.0000 H   0  0  0  0  0  0  0  0  0  0  0  0
   12.3923   -0.5600    0.0000 H   0  0  0  0  0  0  0  0  0  0  0  0
   10.8681   -2.4400    0.0000 H   0  0  0  0  0  0  0  0  0  0  0  0
   15.5273   -1.1300    0.0000 H   0  0  0  0  0  0  0  0  0  0  0  0
   14.9167   -2.6423    0.0000 H   0  0  0  0  0  0  0  0  0  0  0  0
   15.3153   -3.3326    0.0000 H   0  0  0  0  0  0  0  0  0  0  0  0
   12.0632   -2.3700    0.0000 H   0  0  0  0  0  0  0  0  0  0  0  0
   16.9303   -3.5600    0.0000 H   0  0  0  0  0  0  0  0  0  0  0  0
    8.2700   -0.9400    0.0000 H   0  0  0  0  0  0  0  0  0  0  0  0
   14.6613   -0.6300    0.0000 H   0  0  0  0  0  0  0  0  0  0  0  0
    9.4651   -0.6300    0.0000 H   0  0  0  0  0  0  0  0  0  0  0  0
    6.6550   -1.1674    0.0000 H   0  0  0  0  0  0  0  0  0  0  0  0
    6.2565   -1.8577    0.0000 H   0  0  0  0  0  0  0  0  0  0  0  0
   14.1053   -0.2869    0.0000 H   0  0  0  0  0  0  0  0  0  0  0  0
   14.3322    0.5600    0.0000 H   0  0  0  0  0  0  0  0  0  0  0  0
   13.4853    0.7869    0.0000 H   0  0  0  0  0  0  0  0  0  0  0  0
   12.3732    0.7869    0.0000 H   0  0  0  0  0  0  0  0  0  0  0  0
   11.5263    0.5600    0.0000 H   0  0  0  0  0  0  0  0  0  0  0  0
   11.7532   -0.2869    0.0000 H   0  0  0  0  0  0  0  0  0  0  0  0
    9.1551   -2.7131    0.0000 H   0  0  0  0  0  0  0  0  0  0  0  0
    8.9282   -3.5600    0.0000 H   0  0  0  0  0  0  0  0  0  0  0  0
    9.7751   -3.7869    0.0000 H   0  0  0  0  0  0  0  0  0  0  0  0
   10.8872   -3.7869    0.0000 H   0  0  0  0  0  0  0  0  0  0  0  0
   11.7341   -3.5600    0.0000 H   0  0  0  0  0  0  0  0  0  0  0  0
   11.5072   -2.7131    0.0000 H   0  0  0  0  0  0  0  0  0  0  0  0
    8.3437   -0.3577    0.0000 H   0  0  0  0  0  0  0  0  0  0  0  0
    7.9451    0.3326    0.0000 H   0  0  0  0  0  0  0  0  0  0  0  0
   15.7733   -4.2500    0.0000 H   0  0  0  0  0  0  0  0  0  0  0  0
   16.3933   -4.8700    0.0000 H   0  0  0  0  0  0  0  0  0  0  0  0
   17.0133   -4.2500    0.0000 H   0  0  0  0  0  0  0  0  0  0  0  0
   17.5694   -3.2869    0.0000 H   0  0  0  0  0  0  0  0  0  0  0  0
   17.7963   -2.4400    0.0000 H   0  0  0  0  0  0  0  0  0  0  0  0
   16.9494   -2.2131    0.0000 H   0  0  0  0  0  0  0  0  0  0  0  0
    6.5380   -3.5600    0.0000 H   0  0  0  0  0  0  0  0  0  0  0  0
   15.8564    0.0600    0.0000 H   0  0  0  0  0  0  0  0  0  0  0  0
   16.7224    0.5600    0.0000 H   0  0  0  0  0  0  0  0  0  0  0  0
    5.5335   -2.2750    0.0000 H   0  0  0  0  0  0  0  0  0  0  0  0
    4.7365   -2.2750    0.0000 H   0  0  0  0  0  0  0  0  0  0  0  0
   17.7269   -0.7249    0.0000 H   0  0  0  0  0  0  0  0  0  0  0  0
   18.5239   -0.7249    0.0000 H   0  0  0  0  0  0  0  0  0  0  0  0
    6.5380   -4.5600    0.0000 H   0  0  0  0  0  0  0  0  0  0  0  0
    3.8705   -3.7250    0.0000 H   0  0  0  0  0  0  0  0  0  0  0  0
    4.6675   -3.7250    0.0000 H   0  0  0  0  0  0  0  0  0  0  0  0
   19.3014   -0.2869    0.0000 H   0  0  0  0  0  0  0  0  0  0  0  0
   19.5284    0.5600    0.0000 H   0  0  0  0  0  0  0  0  0  0  0  0
   18.6814    0.7869    0.0000 H   0  0  0  0  0  0  0  0  0  0  0  0
    6.3301    1.5600    0.0000 H   0  0  0  0  0  0  0  0  0  0  0  0
   17.5885    3.0600    0.0000 H   0  0  0  0  0  0  0  0  0  0  0  0
   18.9914    2.6300    0.0000 H   0  0  0  0  0  0  0  0  0  0  0  0
    4.5150   -5.7500    0.0000 H   0  0  0  0  0  0  0  0  0  0  0  0
    5.1350   -6.3700    0.0000 H   0  0  0  0  0  0  0  0  0  0  0  0
    5.7550   -5.7500    0.0000 H   0  0  0  0  0  0  0  0  0  0  0  0
   18.7794    4.8326    0.0000 H   0  0  0  0  0  0  0  0  0  0  0  0
   18.3808    4.1423    0.0000 H   0  0  0  0  0  0  0  0  0  0  0  0
   19.5474    2.2131    0.0000 H   0  0  0  0  0  0  0  0  0  0  0  0
   20.3944    2.4400    0.0000 H   0  0  0  0  0  0  0  0  0  0  0  0
   20.1674    3.2869    0.0000 H   0  0  0  0  0  0  0  0  0  0  0  0
    2.0000   -2.9400    0.0000 H   0  0  0  0  0  0  0  0  0  0  0  0
   20.4774    5.7500    0.0000 H   0  0  0  0  0  0  0  0  0  0  0  0
   19.8574    6.3700    0.0000 H   0  0  0  0  0  0  0  0  0  0  0  0
   19.2374    5.7500    0.0000 H   0  0  0  0  0  0  0  0  0  0  0  0
  1 27  2  0  0  0  0
  2 28  2  0  0  0  0
  3 31  2  0  0  0  0
  4 36  2  0  0  0  0
  5 41  2  0  0  0  0
  6 45  1  0  0  0  0
  6104  1  0  0  0  0
  7 45  2  0  0  0  0
  8 47  2  0  0  0  0
  9 49  2  0  0  0  0
 10 51  1  0  0  0  0
 10115  1  0  0  0  0
 11 50  2  0  0  0  0
 12 51  2  0  0  0  0
 13 54  1  0  0  0  0
 13 56  1  0  0  0  0
 20 14  1  1  0  0  0
 14 27  1  0  0  0  0
 14 64  1  0  0  0  0
 24 15  1  6  0  0  0
 15 28  1  0  0  0  0
 15 67  1  0  0  0  0
 21 16  1  6  0  0  0
 16 31  1  0  0  0  0
 16 68  1  0  0  0  0
 17 36  1  0  0  0  0
 42 17  1  6  0  0  0
 17 92  1  0  0  0  0
 40 18  1  1  0  0  0
 18 49  1  0  0  0  0
 18 98  1  0  0  0  0
 19 50  1  0  0  0  0
 19 52  1  0  0  0  0
 19105  1  0  0  0  0
 20 22  1  0  0  0  0
 20 28  1  0  0  0  0
 20 57  1  0  0  0  0
 21 23  1  0  0  0  0
 21 27  1  0  0  0  0
 21 58  1  0  0  0  0
 22 32  1  0  0  0  0
 22 33  1  0  0  0  0
 22 59  1  0  0  0  0
 23 34  1  0  0  0  0
 23 35  1  0  0  0  0
 23 60  1  0  0  0  0
 24 25  1  0  0  0  0
 24 36  1  0  0  0  0
 24 61  1  0  0  0  0
 25 26  1  0  0  0  0
 25 62  1  0  0  0  0
 25 63  1  0  0  0  0
 26 38  1  0  0  0  0
 26 39  1  0  0  0  0
 26 65  1  0  0  0  0
 29 30  1  0  0  0  0
 29 31  1  0  0  0  0
 29 37  1  1  0  0  0
 29 66  1  0  0  0  0
 30 41  1  0  0  0  0
 30 69  1  0  0  0  0
 30 70  1  0  0  0  0
 32 71  1  0  0  0  0
 32 72  1  0  0  0  0
 32 73  1  0  0  0  0
 33 74  1  0  0  0  0
 33 75  1  0  0  0  0
 33 76  1  0  0  0  0
 34 77  1  0  0  0  0
 34 78  1  0  0  0  0
 34 79  1  0  0  0  0
 35 80  1  0  0  0  0
 35 81  1  0  0  0  0
 35 82  1  0  0  0  0
 37 45  1  0  0  0  0
 37 83  1  0  0  0  0
 37 84  1  0  0  0  0
 38 85  1  0  0  0  0
 38 86  1  0  0  0  0
 38 87  1  0  0  0  0
 39 88  1  0  0  0  0
 39 89  1  0  0  0  0
 39 90  1  0  0  0  0
 40 41  1  0  0  0  0
 40 43  1  0  0  0  0
 40 91  1  0  0  0  0
 42 44  1  0  0  0  0
 42 47  1  0  0  0  0
 42 93  1  0  0  0  0
 43 46  1  0  0  0  0
 43 94  1  0  0  0  0
 43 95  1  0  0  0  0
 44 48  1  0  0  0  0
 44 96  1  0  0  0  0
 44 97  1  0  0  0  0
 46 51  1  0  0  0  0
 46 99  1  0  0  0  0
 46100  1  0  0  0  0
 47 50  1  0  0  0  0
 48101  1  0  0  0  0
 48102  1  0  0  0  0
 48103  1  0  0  0  0
 49 53  1  0  0  0  0
 52 54  1  0  0  0  0
 52 55  1  0  0  0  0
 52106  1  0  0  0  0
 53107  1  0  0  0  0
 53108  1  0  0  0  0
 53109  1  0  0  0  0
 54110  1  0  0  0  0
 54111  1  0  0  0  0
 55112  1  0  0  0  0
 55113  1  0  0  0  0
 55114  1  0  0  0  0
 56116  1  0  0  0  0
 56117  1  0  0  0  0
 56118  1  0  0  0  0
M  END
> <PUBCHEM_COMPOUND_CID>
506731
> <PUBCHEM_COMPOUND_CANONICALIZED>
1
> <PUBCHEM_CACTVS_COMPLEXITY>
1420
> <PUBCHEM_CACTVS_HBOND_ACCEPTOR>
13
> <PUBCHEM_CACTVS_HBOND_DONOR>
8
> <PUBCHEM_CACTVS_ROTATABLE_BOND>
27
> <PUBCHEM_CACTVS_SUBSKEYS>
AAADcfB/vAAAAAAAAAAAAAAAAAAAAAAAAAAAAAAAAAAAAAAAAAAAHgAQCAAADSzhgAYCCALABgAIAIGQGAAAAAAAAAAAAIGIAAACQBoAwCAVQAAEFgCQAAG/z+C+AAAAAAAAAAAAAAAAAAAAAAAAAAAAAA==
> <PUBCHEM_IUPAC_OPENEYE_NAME>
(3S,6S)-6-acetamido-3-[[(1S)-1-[[(1S)-1-[[(1S)-1-[[(1S)-1-ethyl-3-[(2-methoxy-1-methyl-ethyl)amino]-2,3-dioxo-propyl]carbamoyl]-3-methyl-butyl]carbamoyl]-2-methyl-propyl]carbamoyl]-2-methyl-propyl]carbamoyl]-5-oxo-nonanedioic acid
> <PUBCHEM_IUPAC_CAS_NAME>
(3S,6S)-6-acetamido-3-[[[(2S)-1-[[(2S)-1-[[(2S)-1-[[(3S)-1-(1-methoxypropan-2-ylamino)-1,2-dioxopentan-3-yl]amino]-4-methyl-1-oxopentan-2-yl]amino]-3-methyl-1-oxobutan-2-yl]amino]-3-methyl-1-oxobutan-2-yl]amino]-oxomethyl]-5-oxononanedioic acid
> <PUBCHEM_IUPAC_NAME_MARKUP>
(3<I>S</I>,6<I>S</I>)-6-acetamido-3-[[(2<I>S</I>)-1-[[(2<I>S</I>)-1-[[(2<I>S</I>)-1-[[(3<I>S</I>)-1-(1-methoxypropan-2-ylamino)-1,2-dioxopentan-3-yl]amino]-4-methyl-1-oxopentan-2-yl]amino]-3-methyl-1-oxobutan-2-yl]amino]-3-methyl-1-oxobutan-2-yl]carbamoyl]-5-oxononanedioic acid
> <PUBCHEM_IUPAC_NAME>
(3S,6S)-6-acetamido-3-[[(2S)-1-[[(2S)-1-[[(2S)-1-[[(3S)-1-(1-methoxypropan-2-ylamino)-1,2-dioxopentan-3-yl]amino]-4-methyl-1-oxopentan-2-yl]amino]-3-methyl-1-oxobutan-2-yl]amino]-3-methyl-1-oxobutan-2-yl]carbamoyl]-5-oxononanedioic acid
> <PUBCHEM_IUPAC_SYSTEMATIC_NAME>
(3S,6S)-6-acetamido-3-[[(2S)-1-[[(2S)-1-[[(2S)-1-[[(3S)-1-(1-methoxypropan-2-ylamino)-1,2-bis(oxidanylidene)pentan-3-yl]amino]-4-methyl-1-oxidanylidene-pentan-2-yl]amino]-3-methyl-1-oxidanylidene-butan-2-yl]amino]-3-methyl-1-oxidanylidene-butan-2-yl]carbamoyl]-5-oxidanylidene-nonanedioic acid
> <PUBCHEM_IUPAC_TRADITIONAL_NAME>
(3S,6S)-6-acetamido-3-[[(1S)-1-[[(1S)-1-[[(1S)-1-[[(1S)-1-ethyl-2,3-diketo-3-[(2-methoxy-1-methyl-ethyl)amino]propyl]carbamoyl]-3-methyl-butyl]carbamoyl]-2-methyl-propyl]carbamoyl]-2-methyl-propyl]carbamoyl]-5-keto-azelaic acid
> <PUBCHEM_IUPAC_INCHI>
InChI=1S/C37H62N6O13/c1-11-24(32(50)37(55)38-21(8)17-56-10)40-34(52)26(14-18(2)3)41-35(53)30(19(4)5)43-36(54)31(20(6)7)42-33(51)23(16-29(48)49)15-27(45)25(39-22(9)44)12-13-28(46)47/h18-21,23-26,30-31H,11-17H2,1-10H3,(H,38,55)(H,39,44)(H,40,52)(H,41,53)(H,42,51)(H,43,54)(H,46,47)(H,48,49)/t21?,23-,24-,25-,26-,30-,31-/m0/s1
> <PUBCHEM_IUPAC_INCHIKEY>
LIBXSAUTJKHWLR-JZNGUBCISA-N
> <PUBCHEM_XLOGP3_AA>
0.8
> <PUBCHEM_EXACT_MASS>
798.43748605
> <PUBCHEM_MOLECULAR_FORMULA>
C37H62N6O13
> <PUBCHEM_MOLECULAR_WEIGHT>
798.9
> <PUBCHEM_OPENEYE_CAN_SMILES>
CCC(C(=O)C(=O)NC(C)COC)NC(=O)C(CC(C)C)NC(=O)C(C(C)C)NC(=O)C(C(C)C)NC(=O)C(CC(=O)C(CCC(=O)O)NC(=O)C)CC(=O)O
> <PUBCHEM_OPENEYE_ISO_SMILES>
CC[C@@H](C(=O)C(=O)NC(C)COC)NC(=O)[C@H](CC(C)C)NC(=O)[C@H](C(C)C)NC(=O)[C@H](C(C)C)NC(=O)[C@@H](CC(=O)[C@H](CCC(=O)O)NC(=O)C)CC(=O)O
> <PUBCHEM_CACTVS_TPSA>
293
> <PUBCHEM_MONOISOTOPIC_WEIGHT>
798.43748605
> <PUBCHEM_TOTAL_CHARGE>
0
> <PUBCHEM_HEAVY_ATOM_COUNT>
56
> <PUBCHEM_ATOM_DEF_STEREO_COUNT>
6
> <PUBCHEM_ATOM_UDEF_STEREO_COUNT>
1
> <PUBCHEM_BOND_DEF_STEREO_COUNT>
0
> <PUBCHEM_BOND_UDEF_STEREO_COUNT>
0
> <PUBCHEM_ISOTOPIC_ATOM_COUNT>
0
> <PUBCHEM_COMPONENT_COUNT>
1
> <PUBCHEM_CACTVS_TAUTO_COUNT>
-1
> <PUBCHEM_COORDINATE_TYPE>
1
5
255
> <PUBCHEM_BONDANNOTATIONS>
20  14  5
24  15  6
21  16  6
42  17  6
40  18  5
29  37  5
52  55  3
$$$$
