506781
  -OEChem-10302200282D
 72 74  0     1  0  0  0  0  0999 V2000
    2.0000   -5.2415    0.0000 Cl  0  0  0  0  0  0  0  0  0  0  0  0
    4.3763    3.1064    0.0000 O   0  0  0  0  0  0  0  0  0  0  0  0
    6.3301   -0.7415    0.0000 O   0  0  0  0  0  0  0  0  0  0  0  0
    7.4321    0.0591    0.0000 O   0  0  0  0  0  0  0  0  0  0  0  0
    2.8660   -1.7415    0.0000 O   0  0  0  0  0  0  0  0  0  0  0  0
   10.6126    1.7575    0.0000 O   0  0  0  0  0  0  0  0  0  0  0  0
    3.7320   -6.2415    0.0000 O   0  0  0  0  0  0  0  0  0  0  0  0
    5.4641    0.7585    0.0000 N   0  0  0  0  0  0  0  0  0  0  0  0
    7.9673    1.7064    0.0000 N   0  0  0  0  0  0  0  0  0  0  0  0
    4.5981   -1.7415    0.0000 N   0  0  0  0  0  0  0  0  0  0  0  0
    6.2731    1.3463    0.0000 C   0  0  1  0  0  0  0  0  0  0  0  0
    4.9641    2.2973    0.0000 C   0  0  2  0  0  0  0  0  0  0  0  0
    5.9641    2.2973    0.0000 C   0  0  0  0  0  0  0  0  0  0  0  0
    4.6551    1.3463    0.0000 C   0  0  0  0  0  0  0  0  0  0  0  0
    5.4641   -0.2415    0.0000 C   0  0  0  0  0  0  0  0  0  0  0  0
    4.5981   -0.7415    0.0000 C   0  0  2  0  0  0  0  0  0  0  0  0
    7.2242    1.0373    0.0000 C   0  0  0  0  0  0  0  0  0  0  0  0
    3.7320   -0.2415    0.0000 C   0  0  0  0  0  0  0  0  0  0  0  0
    4.7830    4.0199    0.0000 C   0  0  0  0  0  0  0  0  0  0  0  0
    2.8660   -0.7415    0.0000 C   0  0  0  0  0  0  0  0  0  0  0  0
    3.7320    0.7585    0.0000 C   0  0  0  0  0  0  0  0  0  0  0  0
    8.9184    1.3974    0.0000 C   0  0  1  0  0  0  0  0  0  0  0  0
    9.1263    0.4192    0.0000 C   0  0  0  0  0  0  0  0  0  0  0  0
    4.1953    4.8289    0.0000 C   0  0  0  0  0  0  0  0  0  0  0  0
    3.7320   -2.2415    0.0000 C   0  0  0  0  0  0  0  0  0  0  0  0
    9.6615    2.0665    0.0000 C   0  0  0  0  0  0  0  0  0  0  0  0
   10.0773    0.1102    0.0000 C   0  0  0  0  0  0  0  0  0  0  0  0
    3.7320   -3.2415    0.0000 C   0  0  0  0  0  0  0  0  0  0  0  0
    3.2008    4.7244    0.0000 C   0  0  0  0  0  0  0  0  0  0  0  0
    4.6020    5.7425    0.0000 C   0  0  0  0  0  0  0  0  0  0  0  0
    2.6130    5.5334    0.0000 C   0  0  0  0  0  0  0  0  0  0  0  0
    4.0142    6.5515    0.0000 C   0  0  0  0  0  0  0  0  0  0  0  0
    2.8660   -3.7415    0.0000 C   0  0  0  0  0  0  0  0  0  0  0  0
    4.5981   -3.7415    0.0000 C   0  0  0  0  0  0  0  0  0  0  0  0
    3.0197    6.4470    0.0000 C   0  0  0  0  0  0  0  0  0  0  0  0
    2.8660   -4.7415    0.0000 C   0  0  0  0  0  0  0  0  0  0  0  0
    4.5981   -4.7415    0.0000 C   0  0  0  0  0  0  0  0  0  0  0  0
    3.7320   -5.2415    0.0000 C   0  0  0  0  0  0  0  0  0  0  0  0
    6.3701    0.7339    0.0000 H   0  0  0  0  0  0  0  0  0  0  0  0
    5.2456    2.8498    0.0000 H   0  0  0  0  0  0  0  0  0  0  0  0
    6.5706    2.4262    0.0000 H   0  0  0  0  0  0  0  0  0  0  0  0
    5.8993    2.9140    0.0000 H   0  0  0  0  0  0  0  0  0  0  0  0
    4.0887    1.5985    0.0000 H   0  0  0  0  0  0  0  0  0  0  0  0
    4.3451    0.8094    0.0000 H   0  0  0  0  0  0  0  0  0  0  0  0
    5.1350   -1.0515    0.0000 H   0  0  0  0  0  0  0  0  0  0  0  0
    3.7320   -0.8615    0.0000 H   0  0  0  0  0  0  0  0  0  0  0  0
    7.8384    2.3129    0.0000 H   0  0  0  0  0  0  0  0  0  0  0  0
    5.2971    3.6732    0.0000 H   0  0  0  0  0  0  0  0  0  0  0  0
    5.2137    4.4659    0.0000 H   0  0  0  0  0  0  0  0  0  0  0  0
    5.1350   -2.0515    0.0000 H   0  0  0  0  0  0  0  0  0  0  0  0
    2.5560   -0.2046    0.0000 H   0  0  0  0  0  0  0  0  0  0  0  0
    2.3291   -1.0515    0.0000 H   0  0  0  0  0  0  0  0  0  0  0  0
    3.1760   -1.2784    0.0000 H   0  0  0  0  0  0  0  0  0  0  0  0
    4.3520    0.7585    0.0000 H   0  0  0  0  0  0  0  0  0  0  0  0
    3.7320    1.3785    0.0000 H   0  0  0  0  0  0  0  0  0  0  0  0
    3.1120    0.7585    0.0000 H   0  0  0  0  0  0  0  0  0  0  0  0
    8.4576    0.9825    0.0000 H   0  0  0  0  0  0  0  0  0  0  0  0
    8.5067    0.3976    0.0000 H   0  0  0  0  0  0  0  0  0  0  0  0
    9.0400   -0.1947    0.0000 H   0  0  0  0  0  0  0  0  0  0  0  0
    9.5326    2.6730    0.0000 H   0  0  0  0  0  0  0  0  0  0  0  0
    9.8858   -0.4794    0.0000 H   0  0  0  0  0  0  0  0  0  0  0  0
   10.6670   -0.0814    0.0000 H   0  0  0  0  0  0  0  0  0  0  0  0
   10.2689    0.6999    0.0000 H   0  0  0  0  0  0  0  0  0  0  0  0
    2.9486    4.1580    0.0000 H   0  0  0  0  0  0  0  0  0  0  0  0
    5.2186    5.8073    0.0000 H   0  0  0  0  0  0  0  0  0  0  0  0
    1.9964    5.4686    0.0000 H   0  0  0  0  0  0  0  0  0  0  0  0
    4.2664    7.1179    0.0000 H   0  0  0  0  0  0  0  0  0  0  0  0
    2.3291   -3.4315    0.0000 H   0  0  0  0  0  0  0  0  0  0  0  0
    5.1350   -3.4315    0.0000 H   0  0  0  0  0  0  0  0  0  0  0  0
    2.6553    6.9486    0.0000 H   0  0  0  0  0  0  0  0  0  0  0  0
    5.1350   -5.0515    0.0000 H   0  0  0  0  0  0  0  0  0  0  0  0
    4.2690   -6.5515    0.0000 H   0  0  0  0  0  0  0  0  0  0  0  0
  1 36  1  0  0  0  0
 12  2  1  6  0  0  0
  2 19  1  0  0  0  0
  3 15  2  0  0  0  0
  4 17  2  0  0  0  0
  5 25  2  0  0  0  0
  6 26  2  0  0  0  0
  7 38  1  0  0  0  0
  7 72  1  0  0  0  0
  8 11  1  0  0  0  0
  8 14  1  0  0  0  0
  8 15  1  0  0  0  0
  9 17  1  0  0  0  0
 22  9  1  6  0  0  0
  9 47  1  0  0  0  0
 16 10  1  1  0  0  0
 10 25  1  0  0  0  0
 10 50  1  0  0  0  0
 11 13  1  0  0  0  0
 11 17  1  1  0  0  0
 11 39  1  0  0  0  0
 12 13  1  0  0  0  0
 12 14  1  0  0  0  0
 12 40  1  0  0  0  0
 13 41  1  0  0  0  0
 13 42  1  0  0  0  0
 14 43  1  0  0  0  0
 14 44  1  0  0  0  0
 15 16  1  0  0  0  0
 16 18  1  0  0  0  0
 16 45  1  0  0  0  0
 18 20  1  0  0  0  0
 18 21  1  0  0  0  0
 18 46  1  0  0  0  0
 19 24  1  0  0  0  0
 19 48  1  0  0  0  0
 19 49  1  0  0  0  0
 20 51  1  0  0  0  0
 20 52  1  0  0  0  0
 20 53  1  0  0  0  0
 21 54  1  0  0  0  0
 21 55  1  0  0  0  0
 21 56  1  0  0  0  0
 22 23  1  0  0  0  0
 22 26  1  0  0  0  0
 22 57  1  0  0  0  0
 23 27  1  0  0  0  0
 23 58  1  0  0  0  0
 23 59  1  0  0  0  0
 24 29  2  0  0  0  0
 24 30  1  0  0  0  0
 25 28  1  0  0  0  0
 26 60  1  0  0  0  0
 27 61  1  0  0  0  0
 27 62  1  0  0  0  0
 27 63  1  0  0  0  0
 28 33  2  0  0  0  0
 28 34  1  0  0  0  0
 29 31  1  0  0  0  0
 29 64  1  0  0  0  0
 30 32  2  0  0  0  0
 30 65  1  0  0  0  0
 31 35  2  0  0  0  0
 31 66  1  0  0  0  0
 32 35  1  0  0  0  0
 32 67  1  0  0  0  0
 33 36  1  0  0  0  0
 33 68  1  0  0  0  0
 34 37  2  0  0  0  0
 34 69  1  0  0  0  0
 35 70  1  0  0  0  0
 36 38  2  0  0  0  0
 37 38  1  0  0  0  0
 37 71  1  0  0  0  0
M  END
> <PUBCHEM_COMPOUND_CID>
506781
> <PUBCHEM_COMPOUND_CANONICALIZED>
1
> <PUBCHEM_CACTVS_COMPLEXITY>
820
> <PUBCHEM_CACTVS_HBOND_ACCEPTOR>
6
> <PUBCHEM_CACTVS_HBOND_DONOR>
3
> <PUBCHEM_CACTVS_ROTATABLE_BOND>
11
> <PUBCHEM_CACTVS_SUBSKEYS>
AAADcfB7OAAEAAAAAAAAAAAAAAAAAWAAAAAwYAAAAAAAAAABQAAAHgIQCAAADT7hmCYyBoPABgCIAilSkACCAAAkJUAIiIGOD8gKZjKDtzuXcQhm1hGYuYe63SLOIAAAIAAACABAAABAAAAQAAAAAAAAAA==
> <PUBCHEM_IUPAC_OPENEYE_NAME>
(2S,4R)-4-benzyloxy-1-[(2S)-2-[(3-chloro-4-hydroxy-benzoyl)amino]-3-methyl-butanoyl]-N-[(1S)-1-formylpropyl]pyrrolidine-2-carboxamide
> <PUBCHEM_IUPAC_CAS_NAME>
(2S,4R)-1-[(2S)-2-[[(3-chloro-4-hydroxyphenyl)-oxomethyl]amino]-3-methyl-1-oxobutyl]-N-[(2S)-1-oxobutan-2-yl]-4-phenylmethoxy-2-pyrrolidinecarboxamide
> <PUBCHEM_IUPAC_NAME_MARKUP>
(2<I>S</I>,4<I>R</I>)-1-[(2<I>S</I>)-2-[(3-chloro-4-hydroxybenzoyl)amino]-3-methylbutanoyl]-<I>N</I>-[(2<I>S</I>)-1-oxobutan-2-yl]-4-phenylmethoxypyrrolidine-2-carboxamide
> <PUBCHEM_IUPAC_NAME>
(2S,4R)-1-[(2S)-2-[(3-chloro-4-hydroxybenzoyl)amino]-3-methylbutanoyl]-N-[(2S)-1-oxobutan-2-yl]-4-phenylmethoxypyrrolidine-2-carboxamide
> <PUBCHEM_IUPAC_SYSTEMATIC_NAME>
(2S,4R)-1-[(2S)-2-[(3-chloranyl-4-oxidanyl-phenyl)carbonylamino]-3-methyl-butanoyl]-N-[(2S)-1-oxidanylidenebutan-2-yl]-4-phenylmethoxy-pyrrolidine-2-carboxamide
> <PUBCHEM_IUPAC_TRADITIONAL_NAME>
(2S,4R)-4-benzoxy-1-[(2S)-2-[(3-chloro-4-hydroxy-benzoyl)amino]-3-methyl-butanoyl]-N-[(1S)-1-formylpropyl]pyrrolidine-2-carboxamide
> <PUBCHEM_IUPAC_INCHI>
InChI=1S/C28H34ClN3O6/c1-4-20(15-33)30-27(36)23-13-21(38-16-18-8-6-5-7-9-18)14-32(23)28(37)25(17(2)3)31-26(35)19-10-11-24(34)22(29)12-19/h5-12,15,17,20-21,23,25,34H,4,13-14,16H2,1-3H3,(H,30,36)(H,31,35)/t20-,21+,23-,25-/m0/s1
> <PUBCHEM_IUPAC_INCHIKEY>
LMHMIDYSJSVREX-UPPNCUKMSA-N
> <PUBCHEM_XLOGP3_AA>
3.7
> <PUBCHEM_EXACT_MASS>
543.2136135
> <PUBCHEM_MOLECULAR_FORMULA>
C28H34ClN3O6
> <PUBCHEM_MOLECULAR_WEIGHT>
544.0
> <PUBCHEM_OPENEYE_CAN_SMILES>
CCC(C=O)NC(=O)C1CC(CN1C(=O)C(C(C)C)NC(=O)C2=CC(=C(C=C2)O)Cl)OCC3=CC=CC=C3
> <PUBCHEM_OPENEYE_ISO_SMILES>
CC[C@@H](C=O)NC(=O)[C@@H]1C[C@H](CN1C(=O)[C@H](C(C)C)NC(=O)C2=CC(=C(C=C2)O)Cl)OCC3=CC=CC=C3
> <PUBCHEM_CACTVS_TPSA>
125
> <PUBCHEM_MONOISOTOPIC_WEIGHT>
543.2136135
> <PUBCHEM_TOTAL_CHARGE>
0
> <PUBCHEM_HEAVY_ATOM_COUNT>
38
> <PUBCHEM_ATOM_DEF_STEREO_COUNT>
4
> <PUBCHEM_ATOM_UDEF_STEREO_COUNT>
0
> <PUBCHEM_BOND_DEF_STEREO_COUNT>
0
> <PUBCHEM_BOND_UDEF_STEREO_COUNT>
0
> <PUBCHEM_ISOTOPIC_ATOM_COUNT>
0
> <PUBCHEM_COMPONENT_COUNT>
1
> <PUBCHEM_CACTVS_TAUTO_COUNT>
-1
> <PUBCHEM_COORDINATE_TYPE>
1
5
255
> <PUBCHEM_BONDANNOTATIONS>
16  10  5
11  17  5
12  2  6
24  29  8
24  30  8
28  33  8
28  34  8
29  31  8
30  32  8
31  35  8
32  35  8
33  36  8
34  37  8
36  38  8
37  38  8
22  9  6
$$$$
