506784
  -OEChem-10302200282D
 77 80  0     1  0  0  0  0  0999 V2000
    8.2363   -2.4687    0.0000 O   0  0  0  0  0  0  0  0  0  0  0  0
    6.2824    1.3792    0.0000 O   0  0  0  0  0  0  0  0  0  0  0  0
    5.1805    0.5785    0.0000 O   0  0  0  0  0  0  0  0  0  0  0  0
    9.7465    2.3792    0.0000 O   0  0  0  0  0  0  0  0  0  0  0  0
    2.0000   -1.1198    0.0000 O   0  0  0  0  0  0  0  0  0  0  0  0
    7.1485   -0.1208    0.0000 N   0  0  0  0  0  0  0  0  0  0  0  0
    4.6453   -1.0687    0.0000 N   0  0  0  0  0  0  0  0  0  0  0  0
    8.0145    2.3792    0.0000 N   0  0  0  0  0  0  0  0  0  0  0  0
    6.3395   -0.7086    0.0000 C   0  0  1  0  0  0  0  0  0  0  0  0
    7.6485   -1.6597    0.0000 C   0  0  2  0  0  0  0  0  0  0  0  0
    6.6485   -1.6597    0.0000 C   0  0  0  0  0  0  0  0  0  0  0  0
    7.9575   -0.7086    0.0000 C   0  0  0  0  0  0  0  0  0  0  0  0
    7.1485    0.8792    0.0000 C   0  0  0  0  0  0  0  0  0  0  0  0
    8.0145    1.3792    0.0000 C   0  0  2  0  0  0  0  0  0  0  0  0
    5.3884   -0.3996    0.0000 C   0  0  0  0  0  0  0  0  0  0  0  0
    8.8805    0.8792    0.0000 C   0  0  0  0  0  0  0  0  0  0  0  0
    7.8295   -3.3822    0.0000 C   0  0  0  0  0  0  0  0  0  0  0  0
    9.7465    1.3792    0.0000 C   0  0  0  0  0  0  0  0  0  0  0  0
    8.8805   -0.1208    0.0000 C   0  0  0  0  0  0  0  0  0  0  0  0
    3.6942   -0.7597    0.0000 C   0  0  1  0  0  0  0  0  0  0  0  0
    8.4173   -4.1913    0.0000 C   0  0  0  0  0  0  0  0  0  0  0  0
    3.4863    0.2184    0.0000 C   0  0  0  0  0  0  0  0  0  0  0  0
    8.8805    2.8792    0.0000 C   0  0  0  0  0  0  0  0  0  0  0  0
    2.9511   -1.4288    0.0000 C   0  0  0  0  0  0  0  0  0  0  0  0
    8.8805    3.8792    0.0000 C   0  0  0  0  0  0  0  0  0  0  0  0
    2.5352    0.5274    0.0000 C   0  0  0  0  0  0  0  0  0  0  0  0
    8.0106   -5.1048    0.0000 C   0  0  0  0  0  0  0  0  0  0  0  0
    9.4118   -4.0867    0.0000 C   0  0  0  0  0  0  0  0  0  0  0  0
    9.7465    4.3792    0.0000 C   0  0  0  0  0  0  0  0  0  0  0  0
    8.0145    4.3792    0.0000 C   0  0  0  0  0  0  0  0  0  0  0  0
    8.5984   -5.9138    0.0000 C   0  0  0  0  0  0  0  0  0  0  0  0
    9.9996   -4.8957    0.0000 C   0  0  0  0  0  0  0  0  0  0  0  0
    9.7465    5.3792    0.0000 C   0  0  0  0  0  0  0  0  0  0  0  0
    9.5929   -5.8093    0.0000 C   0  0  0  0  0  0  0  0  0  0  0  0
   10.6405    3.8445    0.0000 C   0  0  0  0  0  0  0  0  0  0  0  0
    8.0145    5.3792    0.0000 C   0  0  0  0  0  0  0  0  0  0  0  0
    8.8805    5.8792    0.0000 C   0  0  0  0  0  0  0  0  0  0  0  0
   10.6405    5.9138    0.0000 C   0  0  0  0  0  0  0  0  0  0  0  0
   11.5466    4.3584    0.0000 C   0  0  0  0  0  0  0  0  0  0  0  0
   11.5466    5.4000    0.0000 C   0  0  0  0  0  0  0  0  0  0  0  0
    6.2425   -0.0963    0.0000 H   0  0  0  0  0  0  0  0  0  0  0  0
    7.3670   -2.2121    0.0000 H   0  0  0  0  0  0  0  0  0  0  0  0
    6.0420   -1.7886    0.0000 H   0  0  0  0  0  0  0  0  0  0  0  0
    6.7133   -2.2763    0.0000 H   0  0  0  0  0  0  0  0  0  0  0  0
    8.5239   -0.9608    0.0000 H   0  0  0  0  0  0  0  0  0  0  0  0
    8.2675   -0.1717    0.0000 H   0  0  0  0  0  0  0  0  0  0  0  0
    8.5514    1.6892    0.0000 H   0  0  0  0  0  0  0  0  0  0  0  0
    8.3436    0.5692    0.0000 H   0  0  0  0  0  0  0  0  0  0  0  0
    4.7742   -1.6752    0.0000 H   0  0  0  0  0  0  0  0  0  0  0  0
    7.4776    2.6892    0.0000 H   0  0  0  0  0  0  0  0  0  0  0  0
    7.3155   -3.0355    0.0000 H   0  0  0  0  0  0  0  0  0  0  0  0
    7.3988   -3.8282    0.0000 H   0  0  0  0  0  0  0  0  0  0  0  0
   10.0566    0.8422    0.0000 H   0  0  0  0  0  0  0  0  0  0  0  0
   10.2835    1.6892    0.0000 H   0  0  0  0  0  0  0  0  0  0  0  0
    9.4366    1.9161    0.0000 H   0  0  0  0  0  0  0  0  0  0  0  0
    8.2605   -0.1208    0.0000 H   0  0  0  0  0  0  0  0  0  0  0  0
    8.8805   -0.7408    0.0000 H   0  0  0  0  0  0  0  0  0  0  0  0
    9.5005   -0.1208    0.0000 H   0  0  0  0  0  0  0  0  0  0  0  0
    3.8231   -1.3662    0.0000 H   0  0  0  0  0  0  0  0  0  0  0  0
    4.1059    0.2401    0.0000 H   0  0  0  0  0  0  0  0  0  0  0  0
    3.5726    0.8324    0.0000 H   0  0  0  0  0  0  0  0  0  0  0  0
    3.0800   -2.0353    0.0000 H   0  0  0  0  0  0  0  0  0  0  0  0
    2.7268    1.1171    0.0000 H   0  0  0  0  0  0  0  0  0  0  0  0
    1.9456    0.7190    0.0000 H   0  0  0  0  0  0  0  0  0  0  0  0
    2.3436   -0.0622    0.0000 H   0  0  0  0  0  0  0  0  0  0  0  0
    7.3940   -5.1696    0.0000 H   0  0  0  0  0  0  0  0  0  0  0  0
    9.6640   -3.5203    0.0000 H   0  0  0  0  0  0  0  0  0  0  0  0
    7.4776    4.0692    0.0000 H   0  0  0  0  0  0  0  0  0  0  0  0
    8.3462   -6.4802    0.0000 H   0  0  0  0  0  0  0  0  0  0  0  0
   10.6162   -4.8309    0.0000 H   0  0  0  0  0  0  0  0  0  0  0  0
    9.9573   -6.3109    0.0000 H   0  0  0  0  0  0  0  0  0  0  0  0
   10.6333    3.2245    0.0000 H   0  0  0  0  0  0  0  0  0  0  0  0
    7.4776    5.6892    0.0000 H   0  0  0  0  0  0  0  0  0  0  0  0
    8.8805    6.4992    0.0000 H   0  0  0  0  0  0  0  0  0  0  0  0
   10.6333    6.5338    0.0000 H   0  0  0  0  0  0  0  0  0  0  0  0
   12.0823    4.0463    0.0000 H   0  0  0  0  0  0  0  0  0  0  0  0
   12.0823    5.7120    0.0000 H   0  0  0  0  0  0  0  0  0  0  0  0
 10  1  1  6  0  0  0
  1 17  1  0  0  0  0
  2 13  2  0  0  0  0
  3 15  2  0  0  0  0
  4 23  2  0  0  0  0
  5 24  2  0  0  0  0
  6  9  1  0  0  0  0
  6 12  1  0  0  0  0
  6 13  1  0  0  0  0
  7 15  1  0  0  0  0
 20  7  1  6  0  0  0
  7 49  1  0  0  0  0
 14  8  1  1  0  0  0
  8 23  1  0  0  0  0
  8 50  1  0  0  0  0
  9 11  1  0  0  0  0
  9 15  1  1  0  0  0
  9 41  1  0  0  0  0
 10 11  1  0  0  0  0
 10 12  1  0  0  0  0
 10 42  1  0  0  0  0
 11 43  1  0  0  0  0
 11 44  1  0  0  0  0
 12 45  1  0  0  0  0
 12 46  1  0  0  0  0
 13 14  1  0  0  0  0
 14 16  1  0  0  0  0
 14 47  1  0  0  0  0
 16 18  1  0  0  0  0
 16 19  1  0  0  0  0
 16 48  1  0  0  0  0
 17 21  1  0  0  0  0
 17 51  1  0  0  0  0
 17 52  1  0  0  0  0
 18 53  1  0  0  0  0
 18 54  1  0  0  0  0
 18 55  1  0  0  0  0
 19 56  1  0  0  0  0
 19 57  1  0  0  0  0
 19 58  1  0  0  0  0
 20 22  1  0  0  0  0
 20 24  1  0  0  0  0
 20 59  1  0  0  0  0
 21 27  2  0  0  0  0
 21 28  1  0  0  0  0
 22 26  1  0  0  0  0
 22 60  1  0  0  0  0
 22 61  1  0  0  0  0
 23 25  1  0  0  0  0
 24 62  1  0  0  0  0
 25 29  1  0  0  0  0
 25 30  2  0  0  0  0
 26 63  1  0  0  0  0
 26 64  1  0  0  0  0
 26 65  1  0  0  0  0
 27 31  1  0  0  0  0
 27 66  1  0  0  0  0
 28 32  2  0  0  0  0
 28 67  1  0  0  0  0
 29 33  1  0  0  0  0
 29 35  2  0  0  0  0
 30 36  1  0  0  0  0
 30 68  1  0  0  0  0
 31 34  2  0  0  0  0
 31 69  1  0  0  0  0
 32 34  1  0  0  0  0
 32 70  1  0  0  0  0
 33 37  1  0  0  0  0
 33 38  2  0  0  0  0
 34 71  1  0  0  0  0
 35 39  1  0  0  0  0
 35 72  1  0  0  0  0
 36 37  2  0  0  0  0
 36 73  1  0  0  0  0
 37 74  1  0  0  0  0
 38 40  1  0  0  0  0
 38 75  1  0  0  0  0
 39 40  2  0  0  0  0
 39 76  1  0  0  0  0
 40 77  1  0  0  0  0
M  END
> <PUBCHEM_COMPOUND_CID>
506784
> <PUBCHEM_COMPOUND_CANONICALIZED>
1
> <PUBCHEM_CACTVS_COMPLEXITY>
873
> <PUBCHEM_CACTVS_HBOND_ACCEPTOR>
5
> <PUBCHEM_CACTVS_HBOND_DONOR>
2
> <PUBCHEM_CACTVS_ROTATABLE_BOND>
11
> <PUBCHEM_CACTVS_SUBSKEYS>
AAADcfB/OAAAAAAAAAAAAAAAAAAAAWAAAAAwYMAAAAAAAADBVAAAHgAQAAAADTzhmAYyAMPABACIAilSkACCAAAkAAAIiIGIDMgKZjKAtTmXMQhm1gGYqYe6yeCOgAACAAAQAAAAAAQAACAAAAAAAAAAAA==
> <PUBCHEM_IUPAC_OPENEYE_NAME>
(2S,4R)-4-benzyloxy-N-[(1S)-1-formylpropyl]-1-[(2S)-3-methyl-2-(naphthalene-1-carbonylamino)butanoyl]pyrrolidine-2-carboxamide
> <PUBCHEM_IUPAC_CAS_NAME>
(2S,4R)-1-[(2S)-3-methyl-2-[[1-naphthalenyl(oxo)methyl]amino]-1-oxobutyl]-N-[(2S)-1-oxobutan-2-yl]-4-phenylmethoxy-2-pyrrolidinecarboxamide
> <PUBCHEM_IUPAC_NAME_MARKUP>
(2<I>S</I>,4<I>R</I>)-1-[(2<I>S</I>)-3-methyl-2-(naphthalene-1-carbonylamino)butanoyl]-<I>N</I>-[(2<I>S</I>)-1-oxobutan-2-yl]-4-phenylmethoxypyrrolidine-2-carboxamide
> <PUBCHEM_IUPAC_NAME>
(2S,4R)-1-[(2S)-3-methyl-2-(naphthalene-1-carbonylamino)butanoyl]-N-[(2S)-1-oxobutan-2-yl]-4-phenylmethoxypyrrolidine-2-carboxamide
> <PUBCHEM_IUPAC_SYSTEMATIC_NAME>
(2S,4R)-1-[(2S)-3-methyl-2-(naphthalen-1-ylcarbonylamino)butanoyl]-N-[(2S)-1-oxidanylidenebutan-2-yl]-4-phenylmethoxy-pyrrolidine-2-carboxamide
> <PUBCHEM_IUPAC_TRADITIONAL_NAME>
(2S,4R)-4-benzoxy-N-[(1S)-1-formylpropyl]-1-[(2S)-3-methyl-2-(1-naphthoylamino)butanoyl]pyrrolidine-2-carboxamide
> <PUBCHEM_IUPAC_INCHI>
InChI=1S/C32H37N3O5/c1-4-24(19-36)33-31(38)28-17-25(40-20-22-11-6-5-7-12-22)18-35(28)32(39)29(21(2)3)34-30(37)27-16-10-14-23-13-8-9-15-26(23)27/h5-16,19,21,24-25,28-29H,4,17-18,20H2,1-3H3,(H,33,38)(H,34,37)/t24-,25+,28-,29-/m0/s1
> <PUBCHEM_IUPAC_INCHIKEY>
JFHAFGFNLFOHFX-BXCBQBLLSA-N
> <PUBCHEM_XLOGP3_AA>
4.7
> <PUBCHEM_EXACT_MASS>
543.27332129
> <PUBCHEM_MOLECULAR_FORMULA>
C32H37N3O5
> <PUBCHEM_MOLECULAR_WEIGHT>
543.7
> <PUBCHEM_OPENEYE_CAN_SMILES>
CCC(C=O)NC(=O)C1CC(CN1C(=O)C(C(C)C)NC(=O)C2=CC=CC3=CC=CC=C32)OCC4=CC=CC=C4
> <PUBCHEM_OPENEYE_ISO_SMILES>
CC[C@@H](C=O)NC(=O)[C@@H]1C[C@H](CN1C(=O)[C@H](C(C)C)NC(=O)C2=CC=CC3=CC=CC=C32)OCC4=CC=CC=C4
> <PUBCHEM_CACTVS_TPSA>
105
> <PUBCHEM_MONOISOTOPIC_WEIGHT>
543.27332129
> <PUBCHEM_TOTAL_CHARGE>
0
> <PUBCHEM_HEAVY_ATOM_COUNT>
40
> <PUBCHEM_ATOM_DEF_STEREO_COUNT>
4
> <PUBCHEM_ATOM_UDEF_STEREO_COUNT>
0
> <PUBCHEM_BOND_DEF_STEREO_COUNT>
0
> <PUBCHEM_BOND_UDEF_STEREO_COUNT>
0
> <PUBCHEM_ISOTOPIC_ATOM_COUNT>
0
> <PUBCHEM_COMPONENT_COUNT>
1
> <PUBCHEM_CACTVS_TAUTO_COUNT>
-1
> <PUBCHEM_COORDINATE_TYPE>
1
5
255
> <PUBCHEM_BONDANNOTATIONS>
10  1  6
21  27  8
21  28  8
25  29  8
25  30  8
27  31  8
28  32  8
29  33  8
29  35  8
30  36  8
31  34  8
32  34  8
33  37  8
33  38  8
35  39  8
36  37  8
38  40  8
39  40  8
20  7  6
14  8  5
9  15  5
$$$$
