506778
  -OEChem-10302200282D
 69 71  0     1  0  0  0  0  0999 V2000
    6.2524   -1.3978    0.0000 O   0  0  0  0  0  0  0  0  0  0  0  0
    6.9334    2.8636    0.0000 O   0  0  0  0  0  0  0  0  0  0  0  0
    5.5714    2.8636    0.0000 O   0  0  0  0  0  0  0  0  0  0  0  0
   10.3238    1.6364    0.0000 O   0  0  0  0  0  0  0  0  0  0  0  0
    2.0000    3.3590    0.0000 O   0  0  0  0  0  0  0  0  0  0  0  0
    6.7524    1.1410    0.0000 N   0  0  0  0  0  0  0  0  0  0  0  0
    4.1701    1.8455    0.0000 N   0  0  0  0  0  0  0  0  0  0  0  0
    8.9225    2.6545    0.0000 N   0  0  0  0  0  0  0  0  0  0  0  0
   10.1958    4.3101    0.0000 N   0  0  0  0  0  0  0  0  0  0  0  0
    5.7524    1.1410    0.0000 C   0  0  1  0  0  0  0  0  0  0  0  0
    6.2524   -0.3978    0.0000 C   0  0  2  0  0  0  0  0  0  0  0  0
    5.4434    0.1899    0.0000 C   0  0  0  0  0  0  0  0  0  0  0  0
    7.0614    0.1899    0.0000 C   0  0  0  0  0  0  0  0  0  0  0  0
    7.3402    1.9500    0.0000 C   0  0  0  0  0  0  0  0  0  0  0  0
    8.3347    1.8455    0.0000 C   0  0  2  0  0  0  0  0  0  0  0  0
    5.1646    1.9500    0.0000 C   0  0  0  0  0  0  0  0  0  0  0  0
    8.7414    0.9319    0.0000 C   0  0  0  0  0  0  0  0  0  0  0  0
    5.3864   -1.8978    0.0000 C   0  0  0  0  0  0  0  0  0  0  0  0
    9.7360    0.8274    0.0000 C   0  0  0  0  0  0  0  0  0  0  0  0
    8.1537    0.1229    0.0000 C   0  0  0  0  0  0  0  0  0  0  0  0
    3.5823    2.6545    0.0000 C   0  0  1  0  0  0  0  0  0  0  0  0
    3.9890    3.5680    0.0000 C   0  0  0  0  0  0  0  0  0  0  0  0
    5.3864   -2.8978    0.0000 C   0  0  0  0  0  0  0  0  0  0  0  0
    9.9170    2.5500    0.0000 C   0  0  0  0  0  0  0  0  0  0  0  0
    2.5878    2.5500    0.0000 C   0  0  0  0  0  0  0  0  0  0  0  0
    3.4013    4.3771    0.0000 C   0  0  0  0  0  0  0  0  0  0  0  0
   10.5048    3.3590    0.0000 C   0  0  0  0  0  0  0  0  0  0  0  0
    4.5204   -3.3978    0.0000 C   0  0  0  0  0  0  0  0  0  0  0  0
    6.2524   -3.3978    0.0000 C   0  0  0  0  0  0  0  0  0  0  0  0
    4.5204   -4.3978    0.0000 C   0  0  0  0  0  0  0  0  0  0  0  0
    6.2524   -4.3978    0.0000 C   0  0  0  0  0  0  0  0  0  0  0  0
   11.5048    3.3590    0.0000 C   0  0  0  0  0  0  0  0  0  0  0  0
    5.3864   -4.8978    0.0000 C   0  0  0  0  0  0  0  0  0  0  0  0
   11.0048    4.8978    0.0000 C   0  0  0  0  0  0  0  0  0  0  0  0
   11.8138    4.3101    0.0000 C   0  0  0  0  0  0  0  0  0  0  0  0
    6.0339    1.6934    0.0000 H   0  0  0  0  0  0  0  0  0  0  0  0
    5.7000   -0.6793    0.0000 H   0  0  0  0  0  0  0  0  0  0  0  0
    4.8770    0.4421    0.0000 H   0  0  0  0  0  0  0  0  0  0  0  0
    5.1334   -0.3470    0.0000 H   0  0  0  0  0  0  0  0  0  0  0  0
    7.3714   -0.3470    0.0000 H   0  0  0  0  0  0  0  0  0  0  0  0
    7.6278    0.4421    0.0000 H   0  0  0  0  0  0  0  0  0  0  0  0
    8.0825    2.4119    0.0000 H   0  0  0  0  0  0  0  0  0  0  0  0
    9.1059    1.4335    0.0000 H   0  0  0  0  0  0  0  0  0  0  0  0
    3.9179    1.2791    0.0000 H   0  0  0  0  0  0  0  0  0  0  0  0
    8.6703    3.2209    0.0000 H   0  0  0  0  0  0  0  0  0  0  0  0
    5.1743   -1.3152    0.0000 H   0  0  0  0  0  0  0  0  0  0  0  0
    4.7758   -2.0055    0.0000 H   0  0  0  0  0  0  0  0  0  0  0  0
    9.6712    0.2108    0.0000 H   0  0  0  0  0  0  0  0  0  0  0  0
   10.3526    0.7626    0.0000 H   0  0  0  0  0  0  0  0  0  0  0  0
    9.8008    1.4440    0.0000 H   0  0  0  0  0  0  0  0  0  0  0  0
    7.6521    0.4874    0.0000 H   0  0  0  0  0  0  0  0  0  0  0  0
    7.7892   -0.3787    0.0000 H   0  0  0  0  0  0  0  0  0  0  0  0
    8.6552   -0.2415    0.0000 H   0  0  0  0  0  0  0  0  0  0  0  0
    3.3301    2.0881    0.0000 H   0  0  0  0  0  0  0  0  0  0  0  0
    4.5030    3.2214    0.0000 H   0  0  0  0  0  0  0  0  0  0  0  0
    4.4197    4.0140    0.0000 H   0  0  0  0  0  0  0  0  0  0  0  0
    2.3356    1.9836    0.0000 H   0  0  0  0  0  0  0  0  0  0  0  0
    3.9028    4.7415    0.0000 H   0  0  0  0  0  0  0  0  0  0  0  0
    3.0368    4.8787    0.0000 H   0  0  0  0  0  0  0  0  0  0  0  0
    2.8997    4.0126    0.0000 H   0  0  0  0  0  0  0  0  0  0  0  0
    3.9834   -3.0878    0.0000 H   0  0  0  0  0  0  0  0  0  0  0  0
    6.7893   -3.0878    0.0000 H   0  0  0  0  0  0  0  0  0  0  0  0
    9.6061    4.5016    0.0000 H   0  0  0  0  0  0  0  0  0  0  0  0
   11.8692    2.8574    0.0000 H   0  0  0  0  0  0  0  0  0  0  0  0
    3.9834   -4.7078    0.0000 H   0  0  0  0  0  0  0  0  0  0  0  0
    6.7893   -4.7078    0.0000 H   0  0  0  0  0  0  0  0  0  0  0  0
    5.3864   -5.5178    0.0000 H   0  0  0  0  0  0  0  0  0  0  0  0
   11.0048    5.5178    0.0000 H   0  0  0  0  0  0  0  0  0  0  0  0
   12.4035    4.5016    0.0000 H   0  0  0  0  0  0  0  0  0  0  0  0
 11  1  1  6  0  0  0
  1 18  1  0  0  0  0
  2 14  2  0  0  0  0
  3 16  2  0  0  0  0
  4 24  2  0  0  0  0
  5 25  2  0  0  0  0
  6 10  1  0  0  0  0
  6 13  1  0  0  0  0
  6 14  1  0  0  0  0
  7 16  1  0  0  0  0
 21  7  1  6  0  0  0
  7 44  1  0  0  0  0
 15  8  1  1  0  0  0
  8 24  1  0  0  0  0
  8 45  1  0  0  0  0
  9 27  1  0  0  0  0
  9 34  1  0  0  0  0
  9 63  1  0  0  0  0
 10 12  1  0  0  0  0
 10 16  1  1  0  0  0
 10 36  1  0  0  0  0
 11 12  1  0  0  0  0
 11 13  1  0  0  0  0
 11 37  1  0  0  0  0
 12 38  1  0  0  0  0
 12 39  1  0  0  0  0
 13 40  1  0  0  0  0
 13 41  1  0  0  0  0
 14 15  1  0  0  0  0
 15 17  1  0  0  0  0
 15 42  1  0  0  0  0
 17 19  1  0  0  0  0
 17 20  1  0  0  0  0
 17 43  1  0  0  0  0
 18 23  1  0  0  0  0
 18 46  1  0  0  0  0
 18 47  1  0  0  0  0
 19 48  1  0  0  0  0
 19 49  1  0  0  0  0
 19 50  1  0  0  0  0
 20 51  1  0  0  0  0
 20 52  1  0  0  0  0
 20 53  1  0  0  0  0
 21 22  1  0  0  0  0
 21 25  1  0  0  0  0
 21 54  1  0  0  0  0
 22 26  1  0  0  0  0
 22 55  1  0  0  0  0
 22 56  1  0  0  0  0
 23 28  2  0  0  0  0
 23 29  1  0  0  0  0
 24 27  1  0  0  0  0
 25 57  1  0  0  0  0
 26 58  1  0  0  0  0
 26 59  1  0  0  0  0
 26 60  1  0  0  0  0
 27 32  2  0  0  0  0
 28 30  1  0  0  0  0
 28 61  1  0  0  0  0
 29 31  2  0  0  0  0
 29 62  1  0  0  0  0
 30 33  2  0  0  0  0
 30 65  1  0  0  0  0
 31 33  1  0  0  0  0
 31 66  1  0  0  0  0
 32 35  1  0  0  0  0
 32 64  1  0  0  0  0
 33 67  1  0  0  0  0
 34 35  2  0  0  0  0
 34 68  1  0  0  0  0
 35 69  1  0  0  0  0
M  END
> <PUBCHEM_COMPOUND_CID>
506778
> <PUBCHEM_COMPOUND_CANONICALIZED>
1
> <PUBCHEM_CACTVS_COMPLEXITY>
739
> <PUBCHEM_CACTVS_HBOND_ACCEPTOR>
5
> <PUBCHEM_CACTVS_HBOND_DONOR>
3
> <PUBCHEM_CACTVS_ROTATABLE_BOND>
11
> <PUBCHEM_CACTVS_SUBSKEYS>
AAADcfB7uAAAAAAAAAAAAAAAAAAAAWLAAAAwAAAAAAAAAAABwAAAHgAQAAAADTzhngY+gJPJlACoAz131ACCgCA3AiAI2aG4bNgKZvLAtbmXMQhm1gHY6Ye6wSAOAAAAAAAAAAAAAAAAAAAAAAAAAAAAAA==
> <PUBCHEM_IUPAC_OPENEYE_NAME>
N-[(1S)-1-[(2S,4R)-4-benzyloxy-2-[[(1S)-1-formylpropyl]carbamoyl]pyrrolidine-1-carbonyl]-2-methyl-propyl]-1H-pyrrole-2-carboxamide
> <PUBCHEM_IUPAC_CAS_NAME>
N-[(2S)-3-methyl-1-oxo-1-[(2S,4R)-2-[oxo-[[(2S)-1-oxobutan-2-yl]amino]methyl]-4-phenylmethoxy-1-pyrrolidinyl]butan-2-yl]-1H-pyrrole-2-carboxamide
> <PUBCHEM_IUPAC_NAME_MARKUP>
<I>N</I>-[(2<I>S</I>)-3-methyl-1-oxo-1-[(2<I>S</I>,4<I>R</I>)-2-[[(2<I>S</I>)-1-oxobutan-2-yl]carbamoyl]-4-phenylmethoxypyrrolidin-1-yl]butan-2-yl]-1<I>H</I>-pyrrole-2-carboxamide
> <PUBCHEM_IUPAC_NAME>
N-[(2S)-3-methyl-1-oxo-1-[(2S,4R)-2-[[(2S)-1-oxobutan-2-yl]carbamoyl]-4-phenylmethoxypyrrolidin-1-yl]butan-2-yl]-1H-pyrrole-2-carboxamide
> <PUBCHEM_IUPAC_SYSTEMATIC_NAME>
N-[(2S)-3-methyl-1-oxidanylidene-1-[(2S,4R)-2-[[(2S)-1-oxidanylidenebutan-2-yl]carbamoyl]-4-phenylmethoxy-pyrrolidin-1-yl]butan-2-yl]-1H-pyrrole-2-carboxamide
> <PUBCHEM_IUPAC_TRADITIONAL_NAME>
N-[(1S)-1-[(2S,4R)-4-benzoxy-2-[[(1S)-1-formylpropyl]carbamoyl]pyrrolidine-1-carbonyl]-2-methyl-propyl]-1H-pyrrole-2-carboxamide
> <PUBCHEM_IUPAC_INCHI>
InChI=1S/C26H34N4O5/c1-4-19(15-31)28-25(33)22-13-20(35-16-18-9-6-5-7-10-18)14-30(22)26(34)23(17(2)3)29-24(32)21-11-8-12-27-21/h5-12,15,17,19-20,22-23,27H,4,13-14,16H2,1-3H3,(H,28,33)(H,29,32)/t19-,20+,22-,23-/m0/s1
> <PUBCHEM_IUPAC_INCHIKEY>
MHNXWGRKWVZDMG-MQFRRQCYSA-N
> <PUBCHEM_XLOGP3_AA>
2.6
> <PUBCHEM_EXACT_MASS>
482.25292020
> <PUBCHEM_MOLECULAR_FORMULA>
C26H34N4O5
> <PUBCHEM_MOLECULAR_WEIGHT>
482.6
> <PUBCHEM_OPENEYE_CAN_SMILES>
CCC(C=O)NC(=O)C1CC(CN1C(=O)C(C(C)C)NC(=O)C2=CC=CN2)OCC3=CC=CC=C3
> <PUBCHEM_OPENEYE_ISO_SMILES>
CC[C@@H](C=O)NC(=O)[C@@H]1C[C@H](CN1C(=O)[C@H](C(C)C)NC(=O)C2=CC=CN2)OCC3=CC=CC=C3
> <PUBCHEM_CACTVS_TPSA>
121
> <PUBCHEM_MONOISOTOPIC_WEIGHT>
482.25292020
> <PUBCHEM_TOTAL_CHARGE>
0
> <PUBCHEM_HEAVY_ATOM_COUNT>
35
> <PUBCHEM_ATOM_DEF_STEREO_COUNT>
4
> <PUBCHEM_ATOM_UDEF_STEREO_COUNT>
0
> <PUBCHEM_BOND_DEF_STEREO_COUNT>
0
> <PUBCHEM_BOND_UDEF_STEREO_COUNT>
0
> <PUBCHEM_ISOTOPIC_ATOM_COUNT>
0
> <PUBCHEM_COMPONENT_COUNT>
1
> <PUBCHEM_CACTVS_TAUTO_COUNT>
-1
> <PUBCHEM_COORDINATE_TYPE>
1
5
255
> <PUBCHEM_BONDANNOTATIONS>
11  1  6
10  16  5
23  28  8
23  29  8
27  32  8
28  30  8
29  31  8
30  33  8
31  33  8
32  35  8
34  35  8
21  7  6
15  8  5
9  27  8
9  34  8
$$$$
