506726
  -OEChem-10302200282D
104103  0     1  0  0  0  0  0999 V2000
   11.1972    1.0950    0.0000 O   0  0  0  0  0  0  0  0  0  0  0  0
   13.7953   -1.4050    0.0000 O   0  0  0  0  0  0  0  0  0  0  0  0
    8.5991   -1.4050    0.0000 O   0  0  0  0  0  0  0  0  0  0  0  0
   17.2594   -0.4050    0.0000 O   0  0  0  0  0  0  0  0  0  0  0  0
    7.7331   -1.9050    0.0000 O   0  0  0  0  0  0  0  0  0  0  0  0
    6.8671    2.5950    0.0000 O   0  0  0  0  0  0  0  0  0  0  0  0
    6.0010    1.0950    0.0000 O   0  0  0  0  0  0  0  0  0  0  0  0
   16.3933    3.0950    0.0000 O   0  0  0  0  0  0  0  0  0  0  0  0
    4.2690   -2.9050    0.0000 O   0  0  0  0  0  0  0  0  0  0  0  0
    2.5369   -1.9050    0.0000 O   0  0  0  0  0  0  0  0  0  0  0  0
    3.4030   -0.4050    0.0000 O   0  0  0  0  0  0  0  0  0  0  0  0
   18.1254    4.0950    0.0000 O   0  0  0  0  0  0  0  0  0  0  0  0
   18.9914    2.5950    0.0000 O   0  0  0  0  0  0  0  0  0  0  0  0
   12.0632   -0.4050    0.0000 N   0  0  0  0  0  0  0  0  0  0  0  0
    9.4651    0.0950    0.0000 N   0  0  0  0  0  0  0  0  0  0  0  0
   14.6613    0.0950    0.0000 N   0  0  0  0  0  0  0  0  0  0  0  0
   16.3933    1.0950    0.0000 N   0  0  0  0  0  0  0  0  0  0  0  0
    6.0010   -2.9050    0.0000 N   0  0  0  0  0  0  0  0  0  0  0  0
   12.9292    0.0950    0.0000 C   0  0  1  0  0  0  0  0  0  0  0  0
   10.3312   -0.4050    0.0000 C   0  0  1  0  0  0  0  0  0  0  0  0
   12.9292    1.0950    0.0000 C   0  0  0  0  0  0  0  0  0  0  0  0
   10.3312   -1.4050    0.0000 C   0  0  0  0  0  0  0  0  0  0  0  0
   15.5273   -0.4050    0.0000 C   0  0  1  0  0  0  0  0  0  0  0  0
   15.5273   -1.4050    0.0000 C   0  0  0  0  0  0  0  0  0  0  0  0
    7.7331    0.0950    0.0000 C   0  0  3  0  0  0  0  0  0  0  0  0
   11.1972    0.0950    0.0000 C   0  0  0  0  0  0  0  0  0  0  0  0
   16.3933   -1.9050    0.0000 C   0  0  0  0  0  0  0  0  0  0  0  0
   13.7953   -0.4050    0.0000 C   0  0  0  0  0  0  0  0  0  0  0  0
    6.8671   -0.4050    0.0000 C   0  0  0  0  0  0  0  0  0  0  0  0
    8.5991   -0.4050    0.0000 C   0  0  0  0  0  0  0  0  0  0  0  0
   13.7953    1.5950    0.0000 C   0  0  0  0  0  0  0  0  0  0  0  0
   12.0632    1.5950    0.0000 C   0  0  0  0  0  0  0  0  0  0  0  0
    9.4651   -1.9050    0.0000 C   0  0  0  0  0  0  0  0  0  0  0  0
   11.1972   -1.9050    0.0000 C   0  0  0  0  0  0  0  0  0  0  0  0
   16.3933    0.0950    0.0000 C   0  0  0  0  0  0  0  0  0  0  0  0
    7.7331    1.0950    0.0000 C   0  0  0  0  0  0  0  0  0  0  0  0
    6.0010   -1.9050    0.0000 C   0  0  2  0  0  0  0  0  0  0  0  0
    6.8671   -1.4050    0.0000 C   0  0  0  0  0  0  0  0  0  0  0  0
   16.3933   -2.9050    0.0000 C   0  0  0  0  0  0  0  0  0  0  0  0
   17.2594   -1.4050    0.0000 C   0  0  0  0  0  0  0  0  0  0  0  0
    5.1350   -1.4050    0.0000 C   0  0  0  0  0  0  0  0  0  0  0  0
   17.2594    1.5950    0.0000 C   0  0  1  0  0  0  0  0  0  0  0  0
   18.1254    1.0950    0.0000 C   0  0  0  0  0  0  0  0  0  0  0  0
    6.8671    1.5950    0.0000 C   0  0  0  0  0  0  0  0  0  0  0  0
    4.2690   -1.9050    0.0000 C   0  0  0  0  0  0  0  0  0  0  0  0
   17.2594    2.5950    0.0000 C   0  0  0  0  0  0  0  0  0  0  0  0
   18.9914    1.5950    0.0000 C   0  0  0  0  0  0  0  0  0  0  0  0
    5.1350   -3.4050    0.0000 C   0  0  0  0  0  0  0  0  0  0  0  0
    3.4030   -1.4050    0.0000 C   0  0  0  0  0  0  0  0  0  0  0  0
   18.1254    3.0950    0.0000 C   0  0  0  0  0  0  0  0  0  0  0  0
    5.1350   -4.4050    0.0000 C   0  0  0  0  0  0  0  0  0  0  0  0
   12.9292   -0.5250    0.0000 H   0  0  0  0  0  0  0  0  0  0  0  0
    9.7942   -0.7150    0.0000 H   0  0  0  0  0  0  0  0  0  0  0  0
   12.3923    0.7850    0.0000 H   0  0  0  0  0  0  0  0  0  0  0  0
   10.8681   -1.0950    0.0000 H   0  0  0  0  0  0  0  0  0  0  0  0
   15.5273    0.2150    0.0000 H   0  0  0  0  0  0  0  0  0  0  0  0
   14.9167   -1.2973    0.0000 H   0  0  0  0  0  0  0  0  0  0  0  0
   15.3153   -1.9876    0.0000 H   0  0  0  0  0  0  0  0  0  0  0  0
   12.0632   -1.0250    0.0000 H   0  0  0  0  0  0  0  0  0  0  0  0
    7.7331   -0.5250    0.0000 H   0  0  0  0  0  0  0  0  0  0  0  0
   16.9303   -2.2150    0.0000 H   0  0  0  0  0  0  0  0  0  0  0  0
    9.4651    0.7150    0.0000 H   0  0  0  0  0  0  0  0  0  0  0  0
   14.6613    0.7150    0.0000 H   0  0  0  0  0  0  0  0  0  0  0  0
    6.6550    0.1776    0.0000 H   0  0  0  0  0  0  0  0  0  0  0  0
    6.2565   -0.5127    0.0000 H   0  0  0  0  0  0  0  0  0  0  0  0
   14.1053    1.0581    0.0000 H   0  0  0  0  0  0  0  0  0  0  0  0
   14.3322    1.9050    0.0000 H   0  0  0  0  0  0  0  0  0  0  0  0
   13.4853    2.1319    0.0000 H   0  0  0  0  0  0  0  0  0  0  0  0
   12.3732    2.1319    0.0000 H   0  0  0  0  0  0  0  0  0  0  0  0
   11.5263    1.9050    0.0000 H   0  0  0  0  0  0  0  0  0  0  0  0
   11.7532    1.0581    0.0000 H   0  0  0  0  0  0  0  0  0  0  0  0
    9.1551   -1.3681    0.0000 H   0  0  0  0  0  0  0  0  0  0  0  0
    8.9282   -2.2150    0.0000 H   0  0  0  0  0  0  0  0  0  0  0  0
    9.7751   -2.4419    0.0000 H   0  0  0  0  0  0  0  0  0  0  0  0
   10.8872   -2.4419    0.0000 H   0  0  0  0  0  0  0  0  0  0  0  0
   11.7341   -2.2150    0.0000 H   0  0  0  0  0  0  0  0  0  0  0  0
   11.5072   -1.3681    0.0000 H   0  0  0  0  0  0  0  0  0  0  0  0
    8.3437    0.9873    0.0000 H   0  0  0  0  0  0  0  0  0  0  0  0
    7.9451    1.6776    0.0000 H   0  0  0  0  0  0  0  0  0  0  0  0
    6.5380   -2.2150    0.0000 H   0  0  0  0  0  0  0  0  0  0  0  0
   15.7733   -2.9050    0.0000 H   0  0  0  0  0  0  0  0  0  0  0  0
   16.3933   -3.5250    0.0000 H   0  0  0  0  0  0  0  0  0  0  0  0
   17.0133   -2.9050    0.0000 H   0  0  0  0  0  0  0  0  0  0  0  0
   17.5694   -1.9419    0.0000 H   0  0  0  0  0  0  0  0  0  0  0  0
   17.7963   -1.0950    0.0000 H   0  0  0  0  0  0  0  0  0  0  0  0
   16.9494   -0.8681    0.0000 H   0  0  0  0  0  0  0  0  0  0  0  0
    5.5335   -0.9301    0.0000 H   0  0  0  0  0  0  0  0  0  0  0  0
    4.7365   -0.9301    0.0000 H   0  0  0  0  0  0  0  0  0  0  0  0
   15.8564    1.4050    0.0000 H   0  0  0  0  0  0  0  0  0  0  0  0
   16.7224    1.9050    0.0000 H   0  0  0  0  0  0  0  0  0  0  0  0
    6.5380   -3.2150    0.0000 H   0  0  0  0  0  0  0  0  0  0  0  0
   17.7269    0.6201    0.0000 H   0  0  0  0  0  0  0  0  0  0  0  0
   18.5239    0.6201    0.0000 H   0  0  0  0  0  0  0  0  0  0  0  0
    3.8705   -2.3800    0.0000 H   0  0  0  0  0  0  0  0  0  0  0  0
    4.6675   -2.3800    0.0000 H   0  0  0  0  0  0  0  0  0  0  0  0
   19.3014    1.0581    0.0000 H   0  0  0  0  0  0  0  0  0  0  0  0
   19.5284    1.9050    0.0000 H   0  0  0  0  0  0  0  0  0  0  0  0
   18.6814    2.1319    0.0000 H   0  0  0  0  0  0  0  0  0  0  0  0
    6.3301    2.9050    0.0000 H   0  0  0  0  0  0  0  0  0  0  0  0
    4.5150   -4.4050    0.0000 H   0  0  0  0  0  0  0  0  0  0  0  0
    5.1350   -5.0250    0.0000 H   0  0  0  0  0  0  0  0  0  0  0  0
    5.7550   -4.4050    0.0000 H   0  0  0  0  0  0  0  0  0  0  0  0
    2.0000   -1.5950    0.0000 H   0  0  0  0  0  0  0  0  0  0  0  0
   18.6623    4.4050    0.0000 H   0  0  0  0  0  0  0  0  0  0  0  0
  1 26  2  0  0  0  0
  2 28  2  0  0  0  0
  3 30  2  0  0  0  0
  4 35  2  0  0  0  0
  5 38  2  0  0  0  0
  6 44  1  0  0  0  0
  6 99  1  0  0  0  0
  7 44  2  0  0  0  0
  8 46  2  0  0  0  0
  9 48  2  0  0  0  0
 10 49  1  0  0  0  0
 10103  1  0  0  0  0
 11 49  2  0  0  0  0
 12 50  1  0  0  0  0
 12104  1  0  0  0  0
 13 50  2  0  0  0  0
 19 14  1  1  0  0  0
 14 26  1  0  0  0  0
 14 59  1  0  0  0  0
 20 15  1  6  0  0  0
 15 30  1  0  0  0  0
 15 62  1  0  0  0  0
 23 16  1  6  0  0  0
 16 28  1  0  0  0  0
 16 63  1  0  0  0  0
 17 35  1  0  0  0  0
 42 17  1  6  0  0  0
 17 89  1  0  0  0  0
 37 18  1  1  0  0  0
 18 48  1  0  0  0  0
 18 91  1  0  0  0  0
 19 21  1  0  0  0  0
 19 28  1  0  0  0  0
 19 52  1  0  0  0  0
 20 22  1  0  0  0  0
 20 26  1  0  0  0  0
 20 53  1  0  0  0  0
 21 31  1  0  0  0  0
 21 32  1  0  0  0  0
 21 54  1  0  0  0  0
 22 33  1  0  0  0  0
 22 34  1  0  0  0  0
 22 55  1  0  0  0  0
 23 24  1  0  0  0  0
 23 35  1  0  0  0  0
 23 56  1  0  0  0  0
 24 27  1  0  0  0  0
 24 57  1  0  0  0  0
 24 58  1  0  0  0  0
 25 29  1  0  0  0  0
 25 30  1  0  0  0  0
 25 36  1  0  0  0  0
 25 60  1  0  0  0  0
 27 39  1  0  0  0  0
 27 40  1  0  0  0  0
 27 61  1  0  0  0  0
 29 38  1  0  0  0  0
 29 64  1  0  0  0  0
 29 65  1  0  0  0  0
 31 66  1  0  0  0  0
 31 67  1  0  0  0  0
 31 68  1  0  0  0  0
 32 69  1  0  0  0  0
 32 70  1  0  0  0  0
 32 71  1  0  0  0  0
 33 72  1  0  0  0  0
 33 73  1  0  0  0  0
 33 74  1  0  0  0  0
 34 75  1  0  0  0  0
 34 76  1  0  0  0  0
 34 77  1  0  0  0  0
 36 44  1  0  0  0  0
 36 78  1  0  0  0  0
 36 79  1  0  0  0  0
 37 38  1  0  0  0  0
 37 41  1  0  0  0  0
 37 80  1  0  0  0  0
 39 81  1  0  0  0  0
 39 82  1  0  0  0  0
 39 83  1  0  0  0  0
 40 84  1  0  0  0  0
 40 85  1  0  0  0  0
 40 86  1  0  0  0  0
 41 45  1  0  0  0  0
 41 87  1  0  0  0  0
 41 88  1  0  0  0  0
 42 43  1  0  0  0  0
 42 46  1  0  0  0  0
 42 90  1  0  0  0  0
 43 47  1  0  0  0  0
 43 92  1  0  0  0  0
 43 93  1  0  0  0  0
 45 49  1  0  0  0  0
 45 94  1  0  0  0  0
 45 95  1  0  0  0  0
 46 50  1  0  0  0  0
 47 96  1  0  0  0  0
 47 97  1  0  0  0  0
 47 98  1  0  0  0  0
 48 51  1  0  0  0  0
 51100  1  0  0  0  0
 51101  1  0  0  0  0
 51102  1  0  0  0  0
M  END
> <PUBCHEM_COMPOUND_CID>
506726
> <PUBCHEM_COMPOUND_CANONICALIZED>
1
> <PUBCHEM_CACTVS_COMPLEXITY>
1310
> <PUBCHEM_CACTVS_HBOND_ACCEPTOR>
13
> <PUBCHEM_CACTVS_HBOND_DONOR>
8
> <PUBCHEM_CACTVS_ROTATABLE_BOND>
24
> <PUBCHEM_CACTVS_SUBSKEYS>
AAADcfB/vAAAAAAAAAAAAAAAAAAAAAAAAAAAAAAAAAAAAAAAAAAAHgAQCAAADSzBgAQCCALAAgAIAIGQGAIAAAAAAAAAAIHIAAAAQBoAgCAUQAAGFgCAAAG/z+C+AAAAAAAAAAAAAAAAAAAAAAAAAAAAAA==
> <PUBCHEM_IUPAC_OPENEYE_NAME>
(6S)-6-acetamido-3-[[(1S)-2-methyl-1-[[(1S)-2-methyl-1-[[(1S)-3-methyl-1-[[(1S)-1-oxalopropyl]carbamoyl]butyl]carbamoyl]propyl]carbamoyl]propyl]carbamoyl]-5-oxo-nonanedioic acid
> <PUBCHEM_IUPAC_CAS_NAME>
(6S)-6-acetamido-3-[[[(2S)-1-[[(2S)-1-[[(2S)-1-[[(2S)-1-carboxy-1-oxobutan-2-yl]amino]-4-methyl-1-oxopentan-2-yl]amino]-3-methyl-1-oxobutan-2-yl]amino]-3-methyl-1-oxobutan-2-yl]amino]-oxomethyl]-5-oxononanedioic acid
> <PUBCHEM_IUPAC_NAME_MARKUP>
(6<I>S</I>)-6-acetamido-3-[[(2<I>S</I>)-1-[[(2<I>S</I>)-1-[[(2<I>S</I>)-1-[[(2<I>S</I>)-1-carboxy-1-oxobutan-2-yl]amino]-4-methyl-1-oxopentan-2-yl]amino]-3-methyl-1-oxobutan-2-yl]amino]-3-methyl-1-oxobutan-2-yl]carbamoyl]-5-oxononanedioic acid
> <PUBCHEM_IUPAC_NAME>
(6S)-6-acetamido-3-[[(2S)-1-[[(2S)-1-[[(2S)-1-[[(2S)-1-carboxy-1-oxobutan-2-yl]amino]-4-methyl-1-oxopentan-2-yl]amino]-3-methyl-1-oxobutan-2-yl]amino]-3-methyl-1-oxobutan-2-yl]carbamoyl]-5-oxononanedioic acid
> <PUBCHEM_IUPAC_SYSTEMATIC_NAME>
(6S)-6-acetamido-3-[[(2S)-3-methyl-1-[[(2S)-3-methyl-1-[[(2S)-4-methyl-1-[[(3S)-1-oxidanyl-1,2-bis(oxidanylidene)pentan-3-yl]amino]-1-oxidanylidene-pentan-2-yl]amino]-1-oxidanylidene-butan-2-yl]amino]-1-oxidanylidene-butan-2-yl]carbamoyl]-5-oxidanylidene-nonanedioic acid
> <PUBCHEM_IUPAC_TRADITIONAL_NAME>
(6S)-6-acetamido-5-keto-3-[[(1S)-2-methyl-1-[[(1S)-2-methyl-1-[[(1S)-3-methyl-1-[[(1S)-1-oxalopropyl]carbamoyl]butyl]carbamoyl]propyl]carbamoyl]propyl]carbamoyl]azelaic acid
> <PUBCHEM_IUPAC_INCHI>
InChI=1S/C33H53N5O13/c1-9-20(28(45)33(50)51)35-30(47)22(12-15(2)3)36-31(48)26(16(4)5)38-32(49)27(17(6)7)37-29(46)19(14-25(43)44)13-23(40)21(34-18(8)39)10-11-24(41)42/h15-17,19-22,26-27H,9-14H2,1-8H3,(H,34,39)(H,35,47)(H,36,48)(H,37,46)(H,38,49)(H,41,42)(H,43,44)(H,50,51)/t19?,20-,21-,22-,26-,27-/m0/s1
> <PUBCHEM_IUPAC_INCHIKEY>
OBNVAIITNALGOR-YUQXCVLESA-N
> <PUBCHEM_XLOGP3_AA>
0.8
> <PUBCHEM_EXACT_MASS>
727.36398676
> <PUBCHEM_MOLECULAR_FORMULA>
C33H53N5O13
> <PUBCHEM_MOLECULAR_WEIGHT>
727.8
> <PUBCHEM_OPENEYE_CAN_SMILES>
CCC(C(=O)C(=O)O)NC(=O)C(CC(C)C)NC(=O)C(C(C)C)NC(=O)C(C(C)C)NC(=O)C(CC(=O)C(CCC(=O)O)NC(=O)C)CC(=O)O
> <PUBCHEM_OPENEYE_ISO_SMILES>
CC[C@@H](C(=O)C(=O)O)NC(=O)[C@H](CC(C)C)NC(=O)[C@H](C(C)C)NC(=O)[C@H](C(C)C)NC(=O)C(CC(=O)[C@H](CCC(=O)O)NC(=O)C)CC(=O)O
> <PUBCHEM_CACTVS_TPSA>
292
> <PUBCHEM_MONOISOTOPIC_WEIGHT>
727.36398676
> <PUBCHEM_TOTAL_CHARGE>
0
> <PUBCHEM_HEAVY_ATOM_COUNT>
51
> <PUBCHEM_ATOM_DEF_STEREO_COUNT>
5
> <PUBCHEM_ATOM_UDEF_STEREO_COUNT>
1
> <PUBCHEM_BOND_DEF_STEREO_COUNT>
0
> <PUBCHEM_BOND_UDEF_STEREO_COUNT>
0
> <PUBCHEM_ISOTOPIC_ATOM_COUNT>
0
> <PUBCHEM_COMPONENT_COUNT>
1
> <PUBCHEM_CACTVS_TAUTO_COUNT>
-1
> <PUBCHEM_COORDINATE_TYPE>
1
5
255
> <PUBCHEM_BONDANNOTATIONS>
19  14  5
20  15  6
23  16  6
42  17  6
37  18  5
25  29  3
$$$$
