506719
  -OEChem-10302200282D
 77 77  0     1  0  0  0  0  0999 V2000
    4.5981    2.5000    0.0000 O   0  0  0  0  0  0  0  0  0  0  0  0
    5.4641   -1.0000    0.0000 O   0  0  0  0  0  0  0  0  0  0  0  0
    7.1962    5.0000    0.0000 O   0  0  0  0  0  0  0  0  0  0  0  0
    2.0000   -2.0000    0.0000 O   0  0  0  0  0  0  0  0  0  0  0  0
   10.6603    4.0000    0.0000 O   0  0  0  0  0  0  0  0  0  0  0  0
    6.3301    2.5000    0.0000 N   0  0  0  0  0  0  0  0  0  0  0  0
    4.5981    0.5000    0.0000 N   0  0  0  0  0  0  0  0  0  0  0  0
    3.7320   -2.0000    0.0000 N   0  0  0  0  0  0  0  0  0  0  0  0
    8.0622    3.5000    0.0000 N   0  0  0  0  0  0  0  0  0  0  0  0
    3.7320   -5.0000    0.0000 N   0  0  0  0  0  0  0  0  0  0  0  0
    5.4641    1.0000    0.0000 C   0  0  1  0  0  0  0  0  0  0  0  0
    6.3301    3.5000    0.0000 C   0  0  1  0  0  0  0  0  0  0  0  0
    6.3301    0.5000    0.0000 C   0  0  0  0  0  0  0  0  0  0  0  0
    5.4641    4.0000    0.0000 C   0  0  0  0  0  0  0  0  0  0  0  0
    5.4641    5.0000    0.0000 C   0  0  0  0  0  0  0  0  0  0  0  0
    3.7320   -1.0000    0.0000 C   0  0  1  0  0  0  0  0  0  0  0  0
    5.4641    2.0000    0.0000 C   0  0  0  0  0  0  0  0  0  0  0  0
    2.8660   -0.5000    0.0000 C   0  0  0  0  0  0  0  0  0  0  0  0
    4.5981   -0.5000    0.0000 C   0  0  0  0  0  0  0  0  0  0  0  0
    7.1962    1.0000    0.0000 C   0  0  0  0  0  0  0  0  0  0  0  0
    6.3301   -0.5000    0.0000 C   0  0  0  0  0  0  0  0  0  0  0  0
    7.1962    4.0000    0.0000 C   0  0  0  0  0  0  0  0  0  0  0  0
    4.5981    5.5000    0.0000 C   0  0  0  0  0  0  0  0  0  0  0  0
    6.3301    5.5000    0.0000 C   0  0  0  0  0  0  0  0  0  0  0  0
    2.8660    0.5000    0.0000 C   0  0  0  0  0  0  0  0  0  0  0  0
    2.0000   -1.0000    0.0000 C   0  0  0  0  0  0  0  0  0  0  0  0
    8.9282    4.0000    0.0000 C   0  0  1  0  0  0  0  0  0  0  0  0
    8.9282    5.0000    0.0000 C   0  0  0  0  0  0  0  0  0  0  0  0
    2.8660   -2.5000    0.0000 C   0  0  0  0  0  0  0  0  0  0  0  0
    9.7942    3.5000    0.0000 C   0  0  0  0  0  0  0  0  0  0  0  0
    9.7942    5.5000    0.0000 C   0  0  0  0  0  0  0  0  0  0  0  0
    2.8660   -3.5000    0.0000 C   0  0  0  0  0  0  0  0  0  0  0  0
    2.0000   -4.0000    0.0000 C   0  0  0  0  0  0  0  0  0  0  0  0
    3.7320   -4.0000    0.0000 C   0  0  0  0  0  0  0  0  0  0  0  0
    2.0000   -5.0000    0.0000 C   0  0  0  0  0  0  0  0  0  0  0  0
    2.8660   -5.5000    0.0000 C   0  0  0  0  0  0  0  0  0  0  0  0
    5.4641    0.3800    0.0000 H   0  0  0  0  0  0  0  0  0  0  0  0
    6.8671    3.1900    0.0000 H   0  0  0  0  0  0  0  0  0  0  0  0
    6.8671    0.1900    0.0000 H   0  0  0  0  0  0  0  0  0  0  0  0
    4.8535    4.1077    0.0000 H   0  0  0  0  0  0  0  0  0  0  0  0
    5.2520    3.4174    0.0000 H   0  0  0  0  0  0  0  0  0  0  0  0
    5.4641    5.6200    0.0000 H   0  0  0  0  0  0  0  0  0  0  0  0
    4.2690   -1.3100    0.0000 H   0  0  0  0  0  0  0  0  0  0  0  0
    6.8671    2.1900    0.0000 H   0  0  0  0  0  0  0  0  0  0  0  0
    2.8660   -1.1200    0.0000 H   0  0  0  0  0  0  0  0  0  0  0  0
    4.0611    0.8100    0.0000 H   0  0  0  0  0  0  0  0  0  0  0  0
    7.5062    0.4631    0.0000 H   0  0  0  0  0  0  0  0  0  0  0  0
    7.7331    1.3100    0.0000 H   0  0  0  0  0  0  0  0  0  0  0  0
    6.8862    1.5369    0.0000 H   0  0  0  0  0  0  0  0  0  0  0  0
    5.7101   -0.5000    0.0000 H   0  0  0  0  0  0  0  0  0  0  0  0
    6.3301   -1.1200    0.0000 H   0  0  0  0  0  0  0  0  0  0  0  0
    6.9501   -0.5000    0.0000 H   0  0  0  0  0  0  0  0  0  0  0  0
    4.9081    6.0369    0.0000 H   0  0  0  0  0  0  0  0  0  0  0  0
    4.0611    5.8100    0.0000 H   0  0  0  0  0  0  0  0  0  0  0  0
    4.2881    4.9631    0.0000 H   0  0  0  0  0  0  0  0  0  0  0  0
    6.6401    4.9631    0.0000 H   0  0  0  0  0  0  0  0  0  0  0  0
    6.8671    5.8100    0.0000 H   0  0  0  0  0  0  0  0  0  0  0  0
    6.0201    6.0369    0.0000 H   0  0  0  0  0  0  0  0  0  0  0  0
    3.4860    0.5000    0.0000 H   0  0  0  0  0  0  0  0  0  0  0  0
    2.8660    1.1200    0.0000 H   0  0  0  0  0  0  0  0  0  0  0  0
    2.2460    0.5000    0.0000 H   0  0  0  0  0  0  0  0  0  0  0  0
    1.6900   -0.4631    0.0000 H   0  0  0  0  0  0  0  0  0  0  0  0
    1.4631   -1.3100    0.0000 H   0  0  0  0  0  0  0  0  0  0  0  0
    2.3100   -1.5369    0.0000 H   0  0  0  0  0  0  0  0  0  0  0  0
    4.2690   -2.3100    0.0000 H   0  0  0  0  0  0  0  0  0  0  0  0
    8.0622    2.8800    0.0000 H   0  0  0  0  0  0  0  0  0  0  0  0
    8.9282    3.3800    0.0000 H   0  0  0  0  0  0  0  0  0  0  0  0
    8.7162    5.5826    0.0000 H   0  0  0  0  0  0  0  0  0  0  0  0
    8.3176    4.8923    0.0000 H   0  0  0  0  0  0  0  0  0  0  0  0
    9.7942    2.8800    0.0000 H   0  0  0  0  0  0  0  0  0  0  0  0
   10.1042    4.9631    0.0000 H   0  0  0  0  0  0  0  0  0  0  0  0
   10.3312    5.8100    0.0000 H   0  0  0  0  0  0  0  0  0  0  0  0
    9.4842    6.0369    0.0000 H   0  0  0  0  0  0  0  0  0  0  0  0
    1.4631   -3.6900    0.0000 H   0  0  0  0  0  0  0  0  0  0  0  0
    4.2690   -3.6900    0.0000 H   0  0  0  0  0  0  0  0  0  0  0  0
    1.4631   -5.3100    0.0000 H   0  0  0  0  0  0  0  0  0  0  0  0
    2.8660   -6.1200    0.0000 H   0  0  0  0  0  0  0  0  0  0  0  0
  1 17  2  0  0  0  0
  2 19  2  0  0  0  0
  3 22  2  0  0  0  0
  4 29  2  0  0  0  0
  5 30  2  0  0  0  0
 12  6  1  1  0  0  0
  6 17  1  0  0  0  0
  6 44  1  0  0  0  0
 11  7  1  6  0  0  0
  7 19  1  0  0  0  0
  7 46  1  0  0  0  0
 16  8  1  1  0  0  0
  8 29  1  0  0  0  0
  8 65  1  0  0  0  0
  9 22  1  0  0  0  0
 27  9  1  1  0  0  0
  9 66  1  0  0  0  0
 10 34  1  0  0  0  0
 10 36  2  0  0  0  0
 11 13  1  0  0  0  0
 11 17  1  0  0  0  0
 11 37  1  0  0  0  0
 12 14  1  0  0  0  0
 12 22  1  0  0  0  0
 12 38  1  0  0  0  0
 13 20  1  0  0  0  0
 13 21  1  0  0  0  0
 13 39  1  0  0  0  0
 14 15  1  0  0  0  0
 14 40  1  0  0  0  0
 14 41  1  0  0  0  0
 15 23  1  0  0  0  0
 15 24  1  0  0  0  0
 15 42  1  0  0  0  0
 16 18  1  0  0  0  0
 16 19  1  0  0  0  0
 16 43  1  0  0  0  0
 18 25  1  0  0  0  0
 18 26  1  0  0  0  0
 18 45  1  0  0  0  0
 20 47  1  0  0  0  0
 20 48  1  0  0  0  0
 20 49  1  0  0  0  0
 21 50  1  0  0  0  0
 21 51  1  0  0  0  0
 21 52  1  0  0  0  0
 23 53  1  0  0  0  0
 23 54  1  0  0  0  0
 23 55  1  0  0  0  0
 24 56  1  0  0  0  0
 24 57  1  0  0  0  0
 24 58  1  0  0  0  0
 25 59  1  0  0  0  0
 25 60  1  0  0  0  0
 25 61  1  0  0  0  0
 26 62  1  0  0  0  0
 26 63  1  0  0  0  0
 26 64  1  0  0  0  0
 27 28  1  0  0  0  0
 27 30  1  0  0  0  0
 27 67  1  0  0  0  0
 28 31  1  0  0  0  0
 28 68  1  0  0  0  0
 28 69  1  0  0  0  0
 29 32  1  0  0  0  0
 30 70  1  0  0  0  0
 31 71  1  0  0  0  0
 31 72  1  0  0  0  0
 31 73  1  0  0  0  0
 32 33  1  0  0  0  0
 32 34  2  0  0  0  0
 33 35  2  0  0  0  0
 33 74  1  0  0  0  0
 34 75  1  0  0  0  0
 35 36  1  0  0  0  0
 35 76  1  0  0  0  0
 36 77  1  0  0  0  0
M  END
> <PUBCHEM_COMPOUND_CID>
506719
> <PUBCHEM_COMPOUND_CANONICALIZED>
1
> <PUBCHEM_CACTVS_COMPLEXITY>
755
> <PUBCHEM_CACTVS_HBOND_ACCEPTOR>
6
> <PUBCHEM_CACTVS_HBOND_DONOR>
4
> <PUBCHEM_CACTVS_ROTATABLE_BOND>
14
> <PUBCHEM_CACTVS_SUBSKEYS>
AAADcfB7uAAAAAAAAAAAAAAAAAAAAAAAAAAsAAAAAAAAAAABgAAAHgAQAAAADSjhmgY+gJLIEACoAjl31ACCgCA1AiAI2KG4ZNgIYPrA1bGUIYhglgDIycYYAQAMAAAAAAAAAAAAAAAAAAAAAAAAAAAAAA==
> <PUBCHEM_IUPAC_OPENEYE_NAME>
N-[(1S)-1-[[(1S)-1-[[(1S)-1-[[(1S)-1-formylpropyl]carbamoyl]-3-methyl-butyl]carbamoyl]-2-methyl-propyl]carbamoyl]-2-methyl-propyl]pyridine-3-carboxamide
> <PUBCHEM_IUPAC_CAS_NAME>
N-[(2S)-3-methyl-1-[[(2S)-3-methyl-1-[[(2S)-4-methyl-1-oxo-1-[[(2S)-1-oxobutan-2-yl]amino]pentan-2-yl]amino]-1-oxobutan-2-yl]amino]-1-oxobutan-2-yl]-3-pyridinecarboxamide
> <PUBCHEM_IUPAC_NAME_MARKUP>
<I>N</I>-[(2<I>S</I>)-3-methyl-1-[[(2<I>S</I>)-3-methyl-1-[[(2<I>S</I>)-4-methyl-1-oxo-1-[[(2<I>S</I>)-1-oxobutan-2-yl]amino]pentan-2-yl]amino]-1-oxobutan-2-yl]amino]-1-oxobutan-2-yl]pyridine-3-carboxamide
> <PUBCHEM_IUPAC_NAME>
N-[(2S)-3-methyl-1-[[(2S)-3-methyl-1-[[(2S)-4-methyl-1-oxo-1-[[(2S)-1-oxobutan-2-yl]amino]pentan-2-yl]amino]-1-oxobutan-2-yl]amino]-1-oxobutan-2-yl]pyridine-3-carboxamide
> <PUBCHEM_IUPAC_SYSTEMATIC_NAME>
N-[(2S)-3-methyl-1-[[(2S)-3-methyl-1-[[(2S)-4-methyl-1-oxidanylidene-1-[[(2S)-1-oxidanylidenebutan-2-yl]amino]pentan-2-yl]amino]-1-oxidanylidene-butan-2-yl]amino]-1-oxidanylidene-butan-2-yl]pyridine-3-carboxamide
> <PUBCHEM_IUPAC_TRADITIONAL_NAME>
N-[(1S)-1-[[(1S)-1-[[(1S)-1-[[(1S)-1-formylpropyl]carbamoyl]-3-methyl-butyl]carbamoyl]-2-methyl-propyl]carbamoyl]-2-methyl-propyl]nicotinamide
> <PUBCHEM_IUPAC_INCHI>
InChI=1S/C26H41N5O5/c1-8-19(14-32)28-24(34)20(12-15(2)3)29-25(35)21(16(4)5)31-26(36)22(17(6)7)30-23(33)18-10-9-11-27-13-18/h9-11,13-17,19-22H,8,12H2,1-7H3,(H,28,34)(H,29,35)(H,30,33)(H,31,36)/t19-,20-,21-,22-/m0/s1
> <PUBCHEM_IUPAC_INCHIKEY>
GJIHULUJOSSALY-CMOCDZPBSA-N
> <PUBCHEM_XLOGP3_AA>
3.1
> <PUBCHEM_EXACT_MASS>
503.31076943
> <PUBCHEM_MOLECULAR_FORMULA>
C26H41N5O5
> <PUBCHEM_MOLECULAR_WEIGHT>
503.6
> <PUBCHEM_OPENEYE_CAN_SMILES>
CCC(C=O)NC(=O)C(CC(C)C)NC(=O)C(C(C)C)NC(=O)C(C(C)C)NC(=O)C1=CN=CC=C1
> <PUBCHEM_OPENEYE_ISO_SMILES>
CC[C@@H](C=O)NC(=O)[C@H](CC(C)C)NC(=O)[C@H](C(C)C)NC(=O)[C@H](C(C)C)NC(=O)C1=CN=CC=C1
> <PUBCHEM_CACTVS_TPSA>
146
> <PUBCHEM_MONOISOTOPIC_WEIGHT>
503.31076943
> <PUBCHEM_TOTAL_CHARGE>
0
> <PUBCHEM_HEAVY_ATOM_COUNT>
36
> <PUBCHEM_ATOM_DEF_STEREO_COUNT>
4
> <PUBCHEM_ATOM_UDEF_STEREO_COUNT>
0
> <PUBCHEM_BOND_DEF_STEREO_COUNT>
0
> <PUBCHEM_BOND_UDEF_STEREO_COUNT>
0
> <PUBCHEM_ISOTOPIC_ATOM_COUNT>
0
> <PUBCHEM_COMPONENT_COUNT>
1
> <PUBCHEM_CACTVS_TAUTO_COUNT>
-1
> <PUBCHEM_COORDINATE_TYPE>
1
5
255
> <PUBCHEM_BONDANNOTATIONS>
10  34  8
10  36  8
32  33  8
32  34  8
33  35  8
35  36  8
12  6  5
11  7  6
16  8  5
27  9  5
$$$$
