506732
  -OEChem-10302200282D
117117  0     1  0  0  0  0  0999 V2000
    9.7942    2.9400    0.0000 O   0  0  0  0  0  0  0  0  0  0  0  0
    8.9282   -0.5600    0.0000 O   0  0  0  0  0  0  0  0  0  0  0  0
    6.3301    3.9400    0.0000 O   0  0  0  0  0  0  0  0  0  0  0  0
    8.9282   -1.5600    0.0000 O   0  0  0  0  0  0  0  0  0  0  0  0
    5.4641    4.4400    0.0000 O   0  0  0  0  0  0  0  0  0  0  0  0
    8.9282    7.4400    0.0000 O   0  0  0  0  0  0  0  0  0  0  0  0
    7.1962    7.4400    0.0000 O   0  0  0  0  0  0  0  0  0  0  0  0
    9.7942   -5.0600    0.0000 O   0  0  0  0  0  0  0  0  0  0  0  0
    2.8660    6.9400    0.0000 O   0  0  0  0  0  0  0  0  0  0  0  0
    2.8660    8.9400    0.0000 O   0  0  0  0  0  0  0  0  0  0  0  0
    4.5981    8.9400    0.0000 O   0  0  0  0  0  0  0  0  0  0  0  0
    7.1962   -4.5600    0.0000 O   0  0  0  0  0  0  0  0  0  0  0  0
    8.9282    1.4400    0.0000 N   0  0  0  0  0  0  0  0  0  0  0  0
   10.6603   -0.5600    0.0000 N   0  0  0  0  0  0  0  0  0  0  0  0
    8.0622    3.9400    0.0000 N   0  0  0  0  0  0  0  0  0  0  0  0
    9.7942   -3.0600    0.0000 N   0  0  0  0  0  0  0  0  0  0  0  0
    3.7320    5.4400    0.0000 N   0  0  0  0  0  0  0  0  0  0  0  0
    8.0622   -6.0600    0.0000 N   0  0  0  0  0  0  0  0  0  0  0  0
    7.1962   -9.5600    0.0000 N   0  0  0  0  0  0  0  0  0  0  0  0
    9.7942    0.9400    0.0000 C   0  0  1  0  0  0  0  0  0  0  0  0
    8.0622    2.9400    0.0000 C   0  0  1  0  0  0  0  0  0  0  0  0
   10.6603    1.4400    0.0000 C   0  0  0  0  0  0  0  0  0  0  0  0
    7.1962    2.4400    0.0000 C   0  0  0  0  0  0  0  0  0  0  0  0
   10.6603   -1.5600    0.0000 C   0  0  1  0  0  0  0  0  0  0  0  0
   11.5263   -2.0600    0.0000 C   0  0  0  0  0  0  0  0  0  0  0  0
    8.9282    2.4400    0.0000 C   0  0  0  0  0  0  0  0  0  0  0  0
   12.3923   -1.5600    0.0000 C   0  0  0  0  0  0  0  0  0  0  0  0
    9.7942   -0.0600    0.0000 C   0  0  0  0  0  0  0  0  0  0  0  0
    7.1962    5.4400    0.0000 C   0  0  1  0  0  0  0  0  0  0  0  0
    6.3301    5.9400    0.0000 C   0  0  0  0  0  0  0  0  0  0  0  0
    7.1962    4.4400    0.0000 C   0  0  0  0  0  0  0  0  0  0  0  0
   10.6603    2.4400    0.0000 C   0  0  0  0  0  0  0  0  0  0  0  0
   11.5263    0.9400    0.0000 C   0  0  0  0  0  0  0  0  0  0  0  0
    6.3301    2.9400    0.0000 C   0  0  0  0  0  0  0  0  0  0  0  0
    7.1962    1.4400    0.0000 C   0  0  0  0  0  0  0  0  0  0  0  0
    9.7942   -2.0600    0.0000 C   0  0  0  0  0  0  0  0  0  0  0  0
    8.0622    5.9400    0.0000 C   0  0  0  0  0  0  0  0  0  0  0  0
    4.5981    5.9400    0.0000 C   0  0  2  0  0  0  0  0  0  0  0  0
   13.2583   -2.0600    0.0000 C   0  0  0  0  0  0  0  0  0  0  0  0
   12.3923   -0.5600    0.0000 C   0  0  0  0  0  0  0  0  0  0  0  0
    5.4641    5.4400    0.0000 C   0  0  0  0  0  0  0  0  0  0  0  0
    8.9282   -3.5600    0.0000 C   0  0  1  0  0  0  0  0  0  0  0  0
    4.5981    6.9400    0.0000 C   0  0  0  0  0  0  0  0  0  0  0  0
    8.0622   -3.0600    0.0000 C   0  0  0  0  0  0  0  0  0  0  0  0
    8.0622    6.9400    0.0000 C   0  0  0  0  0  0  0  0  0  0  0  0
    3.7320    7.4400    0.0000 C   0  0  0  0  0  0  0  0  0  0  0  0
    8.9282   -4.5600    0.0000 C   0  0  0  0  0  0  0  0  0  0  0  0
    8.0622   -2.0600    0.0000 C   0  0  0  0  0  0  0  0  0  0  0  0
    2.8660    5.9400    0.0000 C   0  0  0  0  0  0  0  0  0  0  0  0
    3.7320    8.4400    0.0000 C   0  0  0  0  0  0  0  0  0  0  0  0
    8.0622   -5.0600    0.0000 C   0  0  0  0  0  0  0  0  0  0  0  0
    2.0000    5.4400    0.0000 C   0  0  0  0  0  0  0  0  0  0  0  0
    7.1962   -6.5600    0.0000 C   0  0  0  0  0  0  0  0  0  0  0  0
    7.1962   -7.5600    0.0000 C   0  0  0  0  0  0  0  0  0  0  0  0
    8.0622   -8.0600    0.0000 C   0  0  0  0  0  0  0  0  0  0  0  0
    6.3301   -8.0600    0.0000 C   0  0  0  0  0  0  0  0  0  0  0  0
    8.0622   -9.0600    0.0000 C   0  0  0  0  0  0  0  0  0  0  0  0
    6.3301   -9.0600    0.0000 C   0  0  0  0  0  0  0  0  0  0  0  0
    9.2573    0.6300    0.0000 H   0  0  0  0  0  0  0  0  0  0  0  0
    7.5252    3.2500    0.0000 H   0  0  0  0  0  0  0  0  0  0  0  0
   11.1972    1.7500    0.0000 H   0  0  0  0  0  0  0  0  0  0  0  0
    6.6592    2.1300    0.0000 H   0  0  0  0  0  0  0  0  0  0  0  0
   11.1972   -1.2500    0.0000 H   0  0  0  0  0  0  0  0  0  0  0  0
   11.1278   -2.5349    0.0000 H   0  0  0  0  0  0  0  0  0  0  0  0
   11.9248   -2.5349    0.0000 H   0  0  0  0  0  0  0  0  0  0  0  0
    8.3913    1.1300    0.0000 H   0  0  0  0  0  0  0  0  0  0  0  0
   11.8554   -1.2500    0.0000 H   0  0  0  0  0  0  0  0  0  0  0  0
    7.7331    5.1300    0.0000 H   0  0  0  0  0  0  0  0  0  0  0  0
   11.1972   -0.2500    0.0000 H   0  0  0  0  0  0  0  0  0  0  0  0
    8.5991    4.2500    0.0000 H   0  0  0  0  0  0  0  0  0  0  0  0
    6.7287    6.4150    0.0000 H   0  0  0  0  0  0  0  0  0  0  0  0
    5.9316    6.4150    0.0000 H   0  0  0  0  0  0  0  0  0  0  0  0
   11.2803    2.4400    0.0000 H   0  0  0  0  0  0  0  0  0  0  0  0
   10.6603    3.0600    0.0000 H   0  0  0  0  0  0  0  0  0  0  0  0
   10.0403    2.4400    0.0000 H   0  0  0  0  0  0  0  0  0  0  0  0
   11.2163    0.4031    0.0000 H   0  0  0  0  0  0  0  0  0  0  0  0
   12.0632    0.6300    0.0000 H   0  0  0  0  0  0  0  0  0  0  0  0
   11.8363    1.4769    0.0000 H   0  0  0  0  0  0  0  0  0  0  0  0
    6.6401    3.4769    0.0000 H   0  0  0  0  0  0  0  0  0  0  0  0
    5.7932    3.2500    0.0000 H   0  0  0  0  0  0  0  0  0  0  0  0
    6.0201    2.4031    0.0000 H   0  0  0  0  0  0  0  0  0  0  0  0
    6.5762    1.4400    0.0000 H   0  0  0  0  0  0  0  0  0  0  0  0
    7.1962    0.8200    0.0000 H   0  0  0  0  0  0  0  0  0  0  0  0
    7.8162    1.4400    0.0000 H   0  0  0  0  0  0  0  0  0  0  0  0
    8.2742    5.3574    0.0000 H   0  0  0  0  0  0  0  0  0  0  0  0
    8.6728    6.0477    0.0000 H   0  0  0  0  0  0  0  0  0  0  0  0
    4.5981    5.3200    0.0000 H   0  0  0  0  0  0  0  0  0  0  0  0
   12.9483   -2.5969    0.0000 H   0  0  0  0  0  0  0  0  0  0  0  0
   13.7953   -2.3700    0.0000 H   0  0  0  0  0  0  0  0  0  0  0  0
   13.5683   -1.5231    0.0000 H   0  0  0  0  0  0  0  0  0  0  0  0
   13.0123   -0.5600    0.0000 H   0  0  0  0  0  0  0  0  0  0  0  0
   12.3923    0.0600    0.0000 H   0  0  0  0  0  0  0  0  0  0  0  0
   11.7723   -0.5600    0.0000 H   0  0  0  0  0  0  0  0  0  0  0  0
   10.3312   -3.3700    0.0000 H   0  0  0  0  0  0  0  0  0  0  0  0
    9.4651   -3.8700    0.0000 H   0  0  0  0  0  0  0  0  0  0  0  0
    5.2087    6.8323    0.0000 H   0  0  0  0  0  0  0  0  0  0  0  0
    4.8101    7.5226    0.0000 H   0  0  0  0  0  0  0  0  0  0  0  0
    7.4516   -2.9523    0.0000 H   0  0  0  0  0  0  0  0  0  0  0  0
    7.8501   -3.6426    0.0000 H   0  0  0  0  0  0  0  0  0  0  0  0
    3.7320    4.8200    0.0000 H   0  0  0  0  0  0  0  0  0  0  0  0
    3.1215    7.5477    0.0000 H   0  0  0  0  0  0  0  0  0  0  0  0
    3.5200    6.8574    0.0000 H   0  0  0  0  0  0  0  0  0  0  0  0
    8.6822   -2.0600    0.0000 H   0  0  0  0  0  0  0  0  0  0  0  0
    8.0622   -1.4400    0.0000 H   0  0  0  0  0  0  0  0  0  0  0  0
    7.4422   -2.0600    0.0000 H   0  0  0  0  0  0  0  0  0  0  0  0
    8.9282    8.0600    0.0000 H   0  0  0  0  0  0  0  0  0  0  0  0
    1.6900    5.9769    0.0000 H   0  0  0  0  0  0  0  0  0  0  0  0
    1.4631    5.1300    0.0000 H   0  0  0  0  0  0  0  0  0  0  0  0
    2.3100    4.9031    0.0000 H   0  0  0  0  0  0  0  0  0  0  0  0
    8.5991   -6.3700    0.0000 H   0  0  0  0  0  0  0  0  0  0  0  0
    6.9841   -5.9774    0.0000 H   0  0  0  0  0  0  0  0  0  0  0  0
    6.5856   -6.6677    0.0000 H   0  0  0  0  0  0  0  0  0  0  0  0
    2.8660    9.5600    0.0000 H   0  0  0  0  0  0  0  0  0  0  0  0
    8.5991   -7.7500    0.0000 H   0  0  0  0  0  0  0  0  0  0  0  0
    5.7932   -7.7500    0.0000 H   0  0  0  0  0  0  0  0  0  0  0  0
    8.5991   -9.3700    0.0000 H   0  0  0  0  0  0  0  0  0  0  0  0
    5.7932   -9.3700    0.0000 H   0  0  0  0  0  0  0  0  0  0  0  0
  1 26  2  0  0  0  0
  2 28  2  0  0  0  0
  3 31  2  0  0  0  0
  4 36  2  0  0  0  0
  5 41  2  0  0  0  0
  6 45  1  0  0  0  0
  6106  1  0  0  0  0
  7 45  2  0  0  0  0
  8 47  2  0  0  0  0
  9 49  2  0  0  0  0
 10 50  1  0  0  0  0
 10113  1  0  0  0  0
 11 50  2  0  0  0  0
 12 51  2  0  0  0  0
 20 13  1  1  0  0  0
 13 26  1  0  0  0  0
 13 66  1  0  0  0  0
 24 14  1  1  0  0  0
 14 28  1  0  0  0  0
 14 69  1  0  0  0  0
 21 15  1  6  0  0  0
 15 31  1  0  0  0  0
 15 70  1  0  0  0  0
 16 36  1  0  0  0  0
 42 16  1  6  0  0  0
 16 94  1  0  0  0  0
 38 17  1  1  0  0  0
 17 49  1  0  0  0  0
 17100  1  0  0  0  0
 18 51  1  0  0  0  0
 18 53  1  0  0  0  0
 18110  1  0  0  0  0
 19 57  2  0  0  0  0
 19 58  1  0  0  0  0
 20 22  1  0  0  0  0
 20 28  1  0  0  0  0
 20 59  1  0  0  0  0
 21 23  1  0  0  0  0
 21 26  1  0  0  0  0
 21 60  1  0  0  0  0
 22 32  1  0  0  0  0
 22 33  1  0  0  0  0
 22 61  1  0  0  0  0
 23 34  1  0  0  0  0
 23 35  1  0  0  0  0
 23 62  1  0  0  0  0
 24 25  1  0  0  0  0
 24 36  1  0  0  0  0
 24 63  1  0  0  0  0
 25 27  1  0  0  0  0
 25 64  1  0  0  0  0
 25 65  1  0  0  0  0
 27 39  1  0  0  0  0
 27 40  1  0  0  0  0
 27 67  1  0  0  0  0
 29 30  1  0  0  0  0
 29 31  1  0  0  0  0
 29 37  1  6  0  0  0
 29 68  1  0  0  0  0
 30 41  1  0  0  0  0
 30 71  1  0  0  0  0
 30 72  1  0  0  0  0
 32 73  1  0  0  0  0
 32 74  1  0  0  0  0
 32 75  1  0  0  0  0
 33 76  1  0  0  0  0
 33 77  1  0  0  0  0
 33 78  1  0  0  0  0
 34 79  1  0  0  0  0
 34 80  1  0  0  0  0
 34 81  1  0  0  0  0
 35 82  1  0  0  0  0
 35 83  1  0  0  0  0
 35 84  1  0  0  0  0
 37 45  1  0  0  0  0
 37 85  1  0  0  0  0
 37 86  1  0  0  0  0
 38 41  1  0  0  0  0
 38 43  1  0  0  0  0
 38 87  1  0  0  0  0
 39 88  1  0  0  0  0
 39 89  1  0  0  0  0
 39 90  1  0  0  0  0
 40 91  1  0  0  0  0
 40 92  1  0  0  0  0
 40 93  1  0  0  0  0
 42 44  1  0  0  0  0
 42 47  1  0  0  0  0
 42 95  1  0  0  0  0
 43 46  1  0  0  0  0
 43 96  1  0  0  0  0
 43 97  1  0  0  0  0
 44 48  1  0  0  0  0
 44 98  1  0  0  0  0
 44 99  1  0  0  0  0
 46 50  1  0  0  0  0
 46101  1  0  0  0  0
 46102  1  0  0  0  0
 47 51  1  0  0  0  0
 48103  1  0  0  0  0
 48104  1  0  0  0  0
 48105  1  0  0  0  0
 49 52  1  0  0  0  0
 52107  1  0  0  0  0
 52108  1  0  0  0  0
 52109  1  0  0  0  0
 53 54  1  0  0  0  0
 53111  1  0  0  0  0
 53112  1  0  0  0  0
 54 55  2  0  0  0  0
 54 56  1  0  0  0  0
 55 57  1  0  0  0  0
 55114  1  0  0  0  0
 56 58  2  0  0  0  0
 56115  1  0  0  0  0
 57116  1  0  0  0  0
 58117  1  0  0  0  0
M  END
> <PUBCHEM_COMPOUND_CID>
506732
> <PUBCHEM_COMPOUND_CANONICALIZED>
1
> <PUBCHEM_CACTVS_COMPLEXITY>
1480
> <PUBCHEM_CACTVS_HBOND_ACCEPTOR>
13
> <PUBCHEM_CACTVS_HBOND_DONOR>
8
> <PUBCHEM_CACTVS_ROTATABLE_BOND>
26
> <PUBCHEM_CACTVS_SUBSKEYS>
AAADcfB/vAAAAAAAAAAAAAAAAAAAAAAAAAAsAAAAAAAAAAABgAAAHgAQCAAADSzBmgQ+iJLIEgCoArH3XACCgCAxAiAI2KG4ZJgIYHrA0bGUYAhklgDIyAe/z+C+AAAAAAAAAAAAAAAAAAAAAAAAAAAAAA==
> <PUBCHEM_IUPAC_OPENEYE_NAME>
(3R,6S)-6-acetamido-3-[[(1S)-1-[[(1S)-1-[[(1S)-1-[[(1S)-1-ethyl-2,3-dioxo-3-(4-pyridylmethylamino)propyl]carbamoyl]-3-methyl-butyl]carbamoyl]-2-methyl-propyl]carbamoyl]-2-methyl-propyl]carbamoyl]-5-oxo-nonanedioic acid
> <PUBCHEM_IUPAC_CAS_NAME>
(3R,6S)-6-acetamido-3-[[[(2S)-1-[[(2S)-1-[[(2S)-1-[[(3S)-1,2-dioxo-1-(pyridin-4-ylmethylamino)pentan-3-yl]amino]-4-methyl-1-oxopentan-2-yl]amino]-3-methyl-1-oxobutan-2-yl]amino]-3-methyl-1-oxobutan-2-yl]amino]-oxomethyl]-5-oxononanedioic acid
> <PUBCHEM_IUPAC_NAME_MARKUP>
(3<I>R</I>,6<I>S</I>)-6-acetamido-3-[[(2<I>S</I>)-1-[[(2<I>S</I>)-1-[[(2<I>S</I>)-1-[[(3<I>S</I>)-1,2-dioxo-1-(pyridin-4-ylmethylamino)pentan-3-yl]amino]-4-methyl-1-oxopentan-2-yl]amino]-3-methyl-1-oxobutan-2-yl]amino]-3-methyl-1-oxobutan-2-yl]carbamoyl]-5-oxononanedioic acid
> <PUBCHEM_IUPAC_NAME>
(3R,6S)-6-acetamido-3-[[(2S)-1-[[(2S)-1-[[(2S)-1-[[(3S)-1,2-dioxo-1-(pyridin-4-ylmethylamino)pentan-3-yl]amino]-4-methyl-1-oxopentan-2-yl]amino]-3-methyl-1-oxobutan-2-yl]amino]-3-methyl-1-oxobutan-2-yl]carbamoyl]-5-oxononanedioic acid
> <PUBCHEM_IUPAC_SYSTEMATIC_NAME>
(3R,6S)-6-acetamido-3-[[(2S)-1-[[(2S)-1-[[(2S)-1-[[(3S)-1,2-bis(oxidanylidene)-1-(pyridin-4-ylmethylamino)pentan-3-yl]amino]-4-methyl-1-oxidanylidene-pentan-2-yl]amino]-3-methyl-1-oxidanylidene-butan-2-yl]amino]-3-methyl-1-oxidanylidene-butan-2-yl]carbamoyl]-5-oxidanylidene-nonanedioic acid
> <PUBCHEM_IUPAC_TRADITIONAL_NAME>
(3R,6S)-6-acetamido-3-[[(1S)-1-[[(1S)-1-[[(1S)-1-[[(1S)-1-ethyl-2,3-diketo-3-(4-pyridylmethylamino)propyl]carbamoyl]-3-methyl-butyl]carbamoyl]-2-methyl-propyl]carbamoyl]-2-methyl-propyl]carbamoyl]-5-keto-azelaic acid
> <PUBCHEM_IUPAC_INCHI>
InChI=1S/C39H59N7O12/c1-9-26(34(53)39(58)41-19-24-12-14-40-15-13-24)43-36(55)28(16-20(2)3)44-37(56)32(21(4)5)46-38(57)33(22(6)7)45-35(54)25(18-31(51)52)17-29(48)27(42-23(8)47)10-11-30(49)50/h12-15,20-22,25-28,32-33H,9-11,16-19H2,1-8H3,(H,41,58)(H,42,47)(H,43,55)(H,44,56)(H,45,54)(H,46,57)(H,49,50)(H,51,52)/t25-,26+,27+,28+,32+,33+/m1/s1
> <PUBCHEM_IUPAC_INCHIKEY>
NWBNQMNJDOFZDK-WLSTZQQXSA-N
> <PUBCHEM_XLOGP3_AA>
1
> <PUBCHEM_EXACT_MASS>
817.42217034
> <PUBCHEM_MOLECULAR_FORMULA>
C39H59N7O12
> <PUBCHEM_MOLECULAR_WEIGHT>
817.9
> <PUBCHEM_OPENEYE_CAN_SMILES>
CCC(C(=O)C(=O)NCC1=CC=NC=C1)NC(=O)C(CC(C)C)NC(=O)C(C(C)C)NC(=O)C(C(C)C)NC(=O)C(CC(=O)C(CCC(=O)O)NC(=O)C)CC(=O)O
> <PUBCHEM_OPENEYE_ISO_SMILES>
CC[C@@H](C(=O)C(=O)NCC1=CC=NC=C1)NC(=O)[C@H](CC(C)C)NC(=O)[C@H](C(C)C)NC(=O)[C@H](C(C)C)NC(=O)[C@H](CC(=O)[C@H](CCC(=O)O)NC(=O)C)CC(=O)O
> <PUBCHEM_CACTVS_TPSA>
296
> <PUBCHEM_MONOISOTOPIC_WEIGHT>
817.42217034
> <PUBCHEM_TOTAL_CHARGE>
0
> <PUBCHEM_HEAVY_ATOM_COUNT>
58
> <PUBCHEM_ATOM_DEF_STEREO_COUNT>
6
> <PUBCHEM_ATOM_UDEF_STEREO_COUNT>
0
> <PUBCHEM_BOND_DEF_STEREO_COUNT>
0
> <PUBCHEM_BOND_UDEF_STEREO_COUNT>
0
> <PUBCHEM_ISOTOPIC_ATOM_COUNT>
0
> <PUBCHEM_COMPONENT_COUNT>
1
> <PUBCHEM_CACTVS_TAUTO_COUNT>
-1
> <PUBCHEM_COORDINATE_TYPE>
1
5
255
> <PUBCHEM_BONDANNOTATIONS>
20  13  5
24  14  5
21  15  6
42  16  6
38  17  5
19  57  8
19  58  8
29  37  6
54  55  8
54  56  8
55  57  8
56  58  8
$$$$
