506787
  -OEChem-10302200282D
 82 85  0     1  0  0  0  0  0999 V2000
    5.2423    3.9514    0.0000 O   0  0  0  0  0  0  0  0  0  0  0  0
    7.1962    0.1035    0.0000 O   0  0  0  0  0  0  0  0  0  0  0  0
    8.2981    0.9041    0.0000 O   0  0  0  0  0  0  0  0  0  0  0  0
    3.7320   -0.8965    0.0000 O   0  0  0  0  0  0  0  0  0  0  0  0
   11.4786    2.6025    0.0000 O   0  0  0  0  0  0  0  0  0  0  0  0
    2.8660   -4.3965    0.0000 O   0  0  0  0  0  0  0  0  0  0  0  0
    6.3301    1.6035    0.0000 N   0  0  0  0  0  0  0  0  0  0  0  0
    8.8334    2.5514    0.0000 N   0  0  0  0  0  0  0  0  0  0  0  0
    5.4641   -0.8965    0.0000 N   0  0  0  0  0  0  0  0  0  0  0  0
    7.1391    2.1913    0.0000 C   0  0  1  0  0  0  0  0  0  0  0  0
    5.8301    3.1424    0.0000 C   0  0  2  0  0  0  0  0  0  0  0  0
    6.8301    3.1424    0.0000 C   0  0  0  0  0  0  0  0  0  0  0  0
    5.5211    2.1913    0.0000 C   0  0  0  0  0  0  0  0  0  0  0  0
    6.3301    0.6035    0.0000 C   0  0  0  0  0  0  0  0  0  0  0  0
    5.4641    0.1035    0.0000 C   0  0  2  0  0  0  0  0  0  0  0  0
    8.0902    1.8823    0.0000 C   0  0  0  0  0  0  0  0  0  0  0  0
    4.5981    0.6035    0.0000 C   0  0  0  0  0  0  0  0  0  0  0  0
    5.6491    4.8649    0.0000 C   0  0  0  0  0  0  0  0  0  0  0  0
    3.7320    0.1035    0.0000 C   0  0  0  0  0  0  0  0  0  0  0  0
    4.5981    1.6035    0.0000 C   0  0  0  0  0  0  0  0  0  0  0  0
    9.7844    2.2424    0.0000 C   0  0  1  0  0  0  0  0  0  0  0  0
    5.0613    5.6739    0.0000 C   0  0  0  0  0  0  0  0  0  0  0  0
    9.9923    1.2642    0.0000 C   0  0  0  0  0  0  0  0  0  0  0  0
    4.5981   -1.3965    0.0000 C   0  0  0  0  0  0  0  0  0  0  0  0
   10.5275    2.9115    0.0000 C   0  0  0  0  0  0  0  0  0  0  0  0
   10.9434    0.9552    0.0000 C   0  0  0  0  0  0  0  0  0  0  0  0
    4.5981   -2.3965    0.0000 C   0  0  0  0  0  0  0  0  0  0  0  0
    5.4680    6.5875    0.0000 C   0  0  0  0  0  0  0  0  0  0  0  0
    4.0668    5.5694    0.0000 C   0  0  0  0  0  0  0  0  0  0  0  0
    4.8802    7.3965    0.0000 C   0  0  0  0  0  0  0  0  0  0  0  0
    3.4790    6.3784    0.0000 C   0  0  0  0  0  0  0  0  0  0  0  0
    3.7320   -2.8965    0.0000 C   0  0  0  0  0  0  0  0  0  0  0  0
    5.4641   -2.8965    0.0000 C   0  0  0  0  0  0  0  0  0  0  0  0
    3.8857    7.2920    0.0000 C   0  0  0  0  0  0  0  0  0  0  0  0
    3.7320   -3.8965    0.0000 C   0  0  0  0  0  0  0  0  0  0  0  0
    5.4641   -3.8965    0.0000 C   0  0  0  0  0  0  0  0  0  0  0  0
    4.5981   -4.3965    0.0000 C   0  0  0  0  0  0  0  0  0  0  0  0
    2.8660   -5.3965    0.0000 C   0  0  0  0  0  0  0  0  0  0  0  0
    2.0000   -5.8965    0.0000 C   0  0  0  0  0  0  0  0  0  0  0  0
    3.7320   -5.8965    0.0000 C   0  0  0  0  0  0  0  0  0  0  0  0
    2.0000   -6.8965    0.0000 C   0  0  0  0  0  0  0  0  0  0  0  0
    3.7320   -6.8965    0.0000 C   0  0  0  0  0  0  0  0  0  0  0  0
    2.8660   -7.3965    0.0000 C   0  0  0  0  0  0  0  0  0  0  0  0
    7.2361    1.5789    0.0000 H   0  0  0  0  0  0  0  0  0  0  0  0
    6.1116    3.6948    0.0000 H   0  0  0  0  0  0  0  0  0  0  0  0
    7.4366    3.2713    0.0000 H   0  0  0  0  0  0  0  0  0  0  0  0
    6.7653    3.7590    0.0000 H   0  0  0  0  0  0  0  0  0  0  0  0
    4.9547    2.4435    0.0000 H   0  0  0  0  0  0  0  0  0  0  0  0
    5.2111    1.6544    0.0000 H   0  0  0  0  0  0  0  0  0  0  0  0
    6.0010   -0.2065    0.0000 H   0  0  0  0  0  0  0  0  0  0  0  0
    4.5981   -0.0165    0.0000 H   0  0  0  0  0  0  0  0  0  0  0  0
    8.7044    3.1579    0.0000 H   0  0  0  0  0  0  0  0  0  0  0  0
    6.1631    4.5182    0.0000 H   0  0  0  0  0  0  0  0  0  0  0  0
    6.0798    5.3109    0.0000 H   0  0  0  0  0  0  0  0  0  0  0  0
    6.0010   -1.2065    0.0000 H   0  0  0  0  0  0  0  0  0  0  0  0
    3.4220    0.6404    0.0000 H   0  0  0  0  0  0  0  0  0  0  0  0
    3.1951   -0.2065    0.0000 H   0  0  0  0  0  0  0  0  0  0  0  0
    4.0420   -0.4334    0.0000 H   0  0  0  0  0  0  0  0  0  0  0  0
    5.2181    1.6035    0.0000 H   0  0  0  0  0  0  0  0  0  0  0  0
    4.5981    2.2235    0.0000 H   0  0  0  0  0  0  0  0  0  0  0  0
    3.9781    1.6035    0.0000 H   0  0  0  0  0  0  0  0  0  0  0  0
    9.3236    1.8275    0.0000 H   0  0  0  0  0  0  0  0  0  0  0  0
    9.3727    1.2426    0.0000 H   0  0  0  0  0  0  0  0  0  0  0  0
    9.9060    0.6503    0.0000 H   0  0  0  0  0  0  0  0  0  0  0  0
   10.3986    3.5180    0.0000 H   0  0  0  0  0  0  0  0  0  0  0  0
   10.7518    0.3656    0.0000 H   0  0  0  0  0  0  0  0  0  0  0  0
   11.5330    0.7636    0.0000 H   0  0  0  0  0  0  0  0  0  0  0  0
   11.1350    1.5449    0.0000 H   0  0  0  0  0  0  0  0  0  0  0  0
    6.0846    6.6523    0.0000 H   0  0  0  0  0  0  0  0  0  0  0  0
    3.8146    5.0030    0.0000 H   0  0  0  0  0  0  0  0  0  0  0  0
    5.1324    7.9629    0.0000 H   0  0  0  0  0  0  0  0  0  0  0  0
    2.8624    6.3136    0.0000 H   0  0  0  0  0  0  0  0  0  0  0  0
    3.1951   -2.5865    0.0000 H   0  0  0  0  0  0  0  0  0  0  0  0
    6.0010   -2.5865    0.0000 H   0  0  0  0  0  0  0  0  0  0  0  0
    3.5213    7.7936    0.0000 H   0  0  0  0  0  0  0  0  0  0  0  0
    6.0010   -4.2065    0.0000 H   0  0  0  0  0  0  0  0  0  0  0  0
    4.5981   -5.0165    0.0000 H   0  0  0  0  0  0  0  0  0  0  0  0
    1.4631   -5.5865    0.0000 H   0  0  0  0  0  0  0  0  0  0  0  0
    4.2690   -5.5865    0.0000 H   0  0  0  0  0  0  0  0  0  0  0  0
    1.4631   -7.2065    0.0000 H   0  0  0  0  0  0  0  0  0  0  0  0
    4.2690   -7.2065    0.0000 H   0  0  0  0  0  0  0  0  0  0  0  0
    2.8660   -8.0165    0.0000 H   0  0  0  0  0  0  0  0  0  0  0  0
 11  1  1  6  0  0  0
  1 18  1  0  0  0  0
  2 14  2  0  0  0  0
  3 16  2  0  0  0  0
  4 24  2  0  0  0  0
  5 25  2  0  0  0  0
  6 35  1  0  0  0  0
  6 38  1  0  0  0  0
  7 10  1  0  0  0  0
  7 13  1  0  0  0  0
  7 14  1  0  0  0  0
  8 16  1  0  0  0  0
 21  8  1  6  0  0  0
  8 52  1  0  0  0  0
 15  9  1  1  0  0  0
  9 24  1  0  0  0  0
  9 55  1  0  0  0  0
 10 12  1  0  0  0  0
 10 16  1  1  0  0  0
 10 44  1  0  0  0  0
 11 12  1  0  0  0  0
 11 13  1  0  0  0  0
 11 45  1  0  0  0  0
 12 46  1  0  0  0  0
 12 47  1  0  0  0  0
 13 48  1  0  0  0  0
 13 49  1  0  0  0  0
 14 15  1  0  0  0  0
 15 17  1  0  0  0  0
 15 50  1  0  0  0  0
 17 19  1  0  0  0  0
 17 20  1  0  0  0  0
 17 51  1  0  0  0  0
 18 22  1  0  0  0  0
 18 53  1  0  0  0  0
 18 54  1  0  0  0  0
 19 56  1  0  0  0  0
 19 57  1  0  0  0  0
 19 58  1  0  0  0  0
 20 59  1  0  0  0  0
 20 60  1  0  0  0  0
 20 61  1  0  0  0  0
 21 23  1  0  0  0  0
 21 25  1  0  0  0  0
 21 62  1  0  0  0  0
 22 28  2  0  0  0  0
 22 29  1  0  0  0  0
 23 26  1  0  0  0  0
 23 63  1  0  0  0  0
 23 64  1  0  0  0  0
 24 27  1  0  0  0  0
 25 65  1  0  0  0  0
 26 66  1  0  0  0  0
 26 67  1  0  0  0  0
 26 68  1  0  0  0  0
 27 32  2  0  0  0  0
 27 33  1  0  0  0  0
 28 30  1  0  0  0  0
 28 69  1  0  0  0  0
 29 31  2  0  0  0  0
 29 70  1  0  0  0  0
 30 34  2  0  0  0  0
 30 71  1  0  0  0  0
 31 34  1  0  0  0  0
 31 72  1  0  0  0  0
 32 35  1  0  0  0  0
 32 73  1  0  0  0  0
 33 36  2  0  0  0  0
 33 74  1  0  0  0  0
 34 75  1  0  0  0  0
 35 37  2  0  0  0  0
 36 37  1  0  0  0  0
 36 76  1  0  0  0  0
 37 77  1  0  0  0  0
 38 39  2  0  0  0  0
 38 40  1  0  0  0  0
 39 41  1  0  0  0  0
 39 78  1  0  0  0  0
 40 42  2  0  0  0  0
 40 79  1  0  0  0  0
 41 43  2  0  0  0  0
 41 80  1  0  0  0  0
 42 43  1  0  0  0  0
 42 81  1  0  0  0  0
 43 82  1  0  0  0  0
M  END
> <PUBCHEM_COMPOUND_CID>
506787
> <PUBCHEM_COMPOUND_CANONICALIZED>
1
> <PUBCHEM_CACTVS_COMPLEXITY>
916
> <PUBCHEM_CACTVS_HBOND_ACCEPTOR>
6
> <PUBCHEM_CACTVS_HBOND_DONOR>
2
> <PUBCHEM_CACTVS_ROTATABLE_BOND>
13
> <PUBCHEM_CACTVS_SUBSKEYS>
AAADcfB/OAAAAAAAAAAAAAAAAAAAAWAAAAAwYMAAAAAAAAABUAAAHgAQAAAADTzhmAYyBoPABACIAilSkACCCAAkIAAIiIGODMgOZjKEtTuXOSjm1hGYqYe6yTCOAAABAAAAAAAAAAIAAAAAAAAAAAAAAA==
> <PUBCHEM_IUPAC_OPENEYE_NAME>
(2S,4R)-4-benzyloxy-N-[(1S)-1-formylpropyl]-1-[(2S)-3-methyl-2-[(3-phenoxybenzoyl)amino]butanoyl]pyrrolidine-2-carboxamide
> <PUBCHEM_IUPAC_CAS_NAME>
(2S,4R)-1-[(2S)-3-methyl-1-oxo-2-[[oxo-(3-phenoxyphenyl)methyl]amino]butyl]-N-[(2S)-1-oxobutan-2-yl]-4-phenylmethoxy-2-pyrrolidinecarboxamide
> <PUBCHEM_IUPAC_NAME_MARKUP>
(2<I>S</I>,4<I>R</I>)-1-[(2<I>S</I>)-3-methyl-2-[(3-phenoxybenzoyl)amino]butanoyl]-<I>N</I>-[(2<I>S</I>)-1-oxobutan-2-yl]-4-phenylmethoxypyrrolidine-2-carboxamide
> <PUBCHEM_IUPAC_NAME>
(2S,4R)-1-[(2S)-3-methyl-2-[(3-phenoxybenzoyl)amino]butanoyl]-N-[(2S)-1-oxobutan-2-yl]-4-phenylmethoxypyrrolidine-2-carboxamide
> <PUBCHEM_IUPAC_SYSTEMATIC_NAME>
(2S,4R)-1-[(2S)-3-methyl-2-[(3-phenoxyphenyl)carbonylamino]butanoyl]-N-[(2S)-1-oxidanylidenebutan-2-yl]-4-phenylmethoxy-pyrrolidine-2-carboxamide
> <PUBCHEM_IUPAC_TRADITIONAL_NAME>
(2S,4R)-4-benzoxy-N-[(1S)-1-formylpropyl]-1-[(2S)-3-methyl-2-[(3-phenoxybenzoyl)amino]butanoyl]pyrrolidine-2-carboxamide
> <PUBCHEM_IUPAC_INCHI>
InChI=1S/C34H39N3O6/c1-4-26(21-38)35-33(40)30-19-29(42-22-24-12-7-5-8-13-24)20-37(30)34(41)31(23(2)3)36-32(39)25-14-11-17-28(18-25)43-27-15-9-6-10-16-27/h5-18,21,23,26,29-31H,4,19-20,22H2,1-3H3,(H,35,40)(H,36,39)/t26-,29+,30-,31-/m0/s1
> <PUBCHEM_IUPAC_INCHIKEY>
UCHRWGOUDRVRAT-CKQDHXSNSA-N
> <PUBCHEM_XLOGP3_AA>
5
> <PUBCHEM_EXACT_MASS>
585.28388597
> <PUBCHEM_MOLECULAR_FORMULA>
C34H39N3O6
> <PUBCHEM_MOLECULAR_WEIGHT>
585.7
> <PUBCHEM_OPENEYE_CAN_SMILES>
CCC(C=O)NC(=O)C1CC(CN1C(=O)C(C(C)C)NC(=O)C2=CC(=CC=C2)OC3=CC=CC=C3)OCC4=CC=CC=C4
> <PUBCHEM_OPENEYE_ISO_SMILES>
CC[C@@H](C=O)NC(=O)[C@@H]1C[C@H](CN1C(=O)[C@H](C(C)C)NC(=O)C2=CC(=CC=C2)OC3=CC=CC=C3)OCC4=CC=CC=C4
> <PUBCHEM_CACTVS_TPSA>
114
> <PUBCHEM_MONOISOTOPIC_WEIGHT>
585.28388597
> <PUBCHEM_TOTAL_CHARGE>
0
> <PUBCHEM_HEAVY_ATOM_COUNT>
43
> <PUBCHEM_ATOM_DEF_STEREO_COUNT>
4
> <PUBCHEM_ATOM_UDEF_STEREO_COUNT>
0
> <PUBCHEM_BOND_DEF_STEREO_COUNT>
0
> <PUBCHEM_BOND_UDEF_STEREO_COUNT>
0
> <PUBCHEM_ISOTOPIC_ATOM_COUNT>
0
> <PUBCHEM_COMPONENT_COUNT>
1
> <PUBCHEM_CACTVS_TAUTO_COUNT>
-1
> <PUBCHEM_COORDINATE_TYPE>
1
5
255
> <PUBCHEM_BONDANNOTATIONS>
11  1  6
10  16  5
22  28  8
22  29  8
27  32  8
27  33  8
28  30  8
29  31  8
30  34  8
31  34  8
32  35  8
33  36  8
35  37  8
36  37  8
38  39  8
38  40  8
39  41  8
40  42  8
41  43  8
42  43  8
21  8  6
15  9  5
$$$$
