506770
  -OEChem-10302200282D
 73 75  0     1  0  0  0  0  0999 V2000
    8.0413    1.0028    0.0000 O   0  0  0  0  0  0  0  0  0  0  0  0
    3.7320    0.7709    0.0000 O   0  0  0  0  0  0  0  0  0  0  0  0
    3.8744    2.1255    0.0000 O   0  0  0  0  0  0  0  0  0  0  0  0
    4.5981   -2.7291    0.0000 O   0  0  0  0  0  0  0  0  0  0  0  0
    3.7550    5.7291    0.0000 O   0  0  0  0  0  0  0  0  0  0  0  0
    5.4641    0.7709    0.0000 N   0  0  0  0  0  0  0  0  0  0  0  0
    5.0334    3.4127    0.0000 N   0  0  0  0  0  0  0  0  0  0  0  0
    3.7320   -1.2291    0.0000 N   0  0  0  0  0  0  0  0  0  0  0  0
    2.8660   -2.7291    0.0000 N   0  0  0  0  0  0  0  0  0  0  0  0
    5.5686    1.7654    0.0000 C   0  0  1  0  0  0  0  0  0  0  0  0
    7.0468    1.1073    0.0000 C   0  0  2  0  0  0  0  0  0  0  0  0
    6.5468    1.9733    0.0000 C   0  0  0  0  0  0  0  0  0  0  0  0
    6.3776    0.3642    0.0000 C   0  0  0  0  0  0  0  0  0  0  0  0
    4.5981    0.2709    0.0000 C   0  0  0  0  0  0  0  0  0  0  0  0
    4.5981   -0.7291    0.0000 C   0  0  2  0  0  0  0  0  0  0  0  0
    4.8255    2.4346    0.0000 C   0  0  0  0  0  0  0  0  0  0  0  0
    5.4641   -1.2291    0.0000 C   0  0  0  0  0  0  0  0  0  0  0  0
    8.6291    1.8118    0.0000 C   0  0  0  0  0  0  0  0  0  0  0  0
    5.4641   -2.2291    0.0000 C   0  0  0  0  0  0  0  0  0  0  0  0
    6.3301   -0.7291    0.0000 C   0  0  0  0  0  0  0  0  0  0  0  0
    4.2902    4.0818    0.0000 C   0  0  1  0  0  0  0  0  0  0  0  0
    3.3392    3.7728    0.0000 C   0  0  0  0  0  0  0  0  0  0  0  0
    9.6236    1.7073    0.0000 C   0  0  0  0  0  0  0  0  0  0  0  0
    3.7320   -2.2291    0.0000 C   0  0  0  0  0  0  0  0  0  0  0  0
    4.4982    5.0600    0.0000 C   0  0  0  0  0  0  0  0  0  0  0  0
    2.5960    4.4419    0.0000 C   0  0  0  0  0  0  0  0  0  0  0  0
   10.0303    0.7937    0.0000 C   0  0  0  0  0  0  0  0  0  0  0  0
   10.2114    2.5163    0.0000 C   0  0  0  0  0  0  0  0  0  0  0  0
   11.0249    0.6892    0.0000 C   0  0  0  0  0  0  0  0  0  0  0  0
   11.2059    2.4118    0.0000 C   0  0  0  0  0  0  0  0  0  0  0  0
    2.8660   -3.7291    0.0000 C   0  0  0  0  0  0  0  0  0  0  0  0
   11.6127    1.4982    0.0000 C   0  0  0  0  0  0  0  0  0  0  0  0
    3.7320   -4.2291    0.0000 C   0  0  0  0  0  0  0  0  0  0  0  0
    2.0000   -4.2291    0.0000 C   0  0  0  0  0  0  0  0  0  0  0  0
    3.7320   -5.2291    0.0000 C   0  0  0  0  0  0  0  0  0  0  0  0
    2.0000   -5.2291    0.0000 C   0  0  0  0  0  0  0  0  0  0  0  0
    2.8660   -5.7291    0.0000 C   0  0  0  0  0  0  0  0  0  0  0  0
    4.9898    1.5432    0.0000 H   0  0  0  0  0  0  0  0  0  0  0  0
    7.2690    0.5285    0.0000 H   0  0  0  0  0  0  0  0  0  0  0  0
    7.1132    2.2255    0.0000 H   0  0  0  0  0  0  0  0  0  0  0  0
    6.3552    2.5630    0.0000 H   0  0  0  0  0  0  0  0  0  0  0  0
    6.0677   -0.1728    0.0000 H   0  0  0  0  0  0  0  0  0  0  0  0
    6.8792   -0.0003    0.0000 H   0  0  0  0  0  0  0  0  0  0  0  0
    4.5981   -1.3491    0.0000 H   0  0  0  0  0  0  0  0  0  0  0  0
    5.4641   -0.6091    0.0000 H   0  0  0  0  0  0  0  0  0  0  0  0
    5.6230    3.6043    0.0000 H   0  0  0  0  0  0  0  0  0  0  0  0
    8.8000    2.4078    0.0000 H   0  0  0  0  0  0  0  0  0  0  0  0
    8.0718    2.0836    0.0000 H   0  0  0  0  0  0  0  0  0  0  0  0
    3.1951   -0.9191    0.0000 H   0  0  0  0  0  0  0  0  0  0  0  0
    4.8441   -2.2291    0.0000 H   0  0  0  0  0  0  0  0  0  0  0  0
    5.4641   -2.8491    0.0000 H   0  0  0  0  0  0  0  0  0  0  0  0
    6.0841   -2.2291    0.0000 H   0  0  0  0  0  0  0  0  0  0  0  0
    6.6401   -1.2660    0.0000 H   0  0  0  0  0  0  0  0  0  0  0  0
    6.8671   -0.4191    0.0000 H   0  0  0  0  0  0  0  0  0  0  0  0
    6.0201   -0.1922    0.0000 H   0  0  0  0  0  0  0  0  0  0  0  0
    4.8799    4.2734    0.0000 H   0  0  0  0  0  0  0  0  0  0  0  0
    2.8506    3.3911    0.0000 H   0  0  0  0  0  0  0  0  0  0  0  0
    3.6303    3.2254    0.0000 H   0  0  0  0  0  0  0  0  0  0  0  0
    5.0878    5.2516    0.0000 H   0  0  0  0  0  0  0  0  0  0  0  0
    3.0109    4.9027    0.0000 H   0  0  0  0  0  0  0  0  0  0  0  0
    2.1353    4.8568    0.0000 H   0  0  0  0  0  0  0  0  0  0  0  0
    2.1812    3.9812    0.0000 H   0  0  0  0  0  0  0  0  0  0  0  0
    9.6659    0.2921    0.0000 H   0  0  0  0  0  0  0  0  0  0  0  0
    9.9592    3.0827    0.0000 H   0  0  0  0  0  0  0  0  0  0  0  0
    2.3291   -2.4191    0.0000 H   0  0  0  0  0  0  0  0  0  0  0  0
   11.2770    0.1228    0.0000 H   0  0  0  0  0  0  0  0  0  0  0  0
   11.5703    2.9133    0.0000 H   0  0  0  0  0  0  0  0  0  0  0  0
   12.2293    1.4334    0.0000 H   0  0  0  0  0  0  0  0  0  0  0  0
    4.2690   -3.9191    0.0000 H   0  0  0  0  0  0  0  0  0  0  0  0
    1.4631   -3.9191    0.0000 H   0  0  0  0  0  0  0  0  0  0  0  0
    4.2690   -5.5391    0.0000 H   0  0  0  0  0  0  0  0  0  0  0  0
    1.4631   -5.5391    0.0000 H   0  0  0  0  0  0  0  0  0  0  0  0
    2.8660   -6.3491    0.0000 H   0  0  0  0  0  0  0  0  0  0  0  0
 11  1  1  1  0  0  0
  1 18  1  0  0  0  0
  2 14  2  0  0  0  0
  3 16  2  0  0  0  0
  4 24  2  0  0  0  0
  5 25  2  0  0  0  0
  6 10  1  0  0  0  0
  6 13  1  0  0  0  0
  6 14  1  0  0  0  0
  7 16  1  0  0  0  0
 21  7  1  1  0  0  0
  7 46  1  0  0  0  0
 15  8  1  6  0  0  0
  8 24  1  0  0  0  0
  8 49  1  0  0  0  0
  9 24  1  0  0  0  0
  9 31  1  0  0  0  0
  9 65  1  0  0  0  0
 10 12  1  0  0  0  0
 10 16  1  6  0  0  0
 10 38  1  0  0  0  0
 11 12  1  0  0  0  0
 11 13  1  0  0  0  0
 11 39  1  0  0  0  0
 12 40  1  0  0  0  0
 12 41  1  0  0  0  0
 13 42  1  0  0  0  0
 13 43  1  0  0  0  0
 14 15  1  0  0  0  0
 15 17  1  0  0  0  0
 15 44  1  0  0  0  0
 17 19  1  0  0  0  0
 17 20  1  0  0  0  0
 17 45  1  0  0  0  0
 18 23  1  0  0  0  0
 18 47  1  0  0  0  0
 18 48  1  0  0  0  0
 19 50  1  0  0  0  0
 19 51  1  0  0  0  0
 19 52  1  0  0  0  0
 20 53  1  0  0  0  0
 20 54  1  0  0  0  0
 20 55  1  0  0  0  0
 21 22  1  0  0  0  0
 21 25  1  0  0  0  0
 21 56  1  0  0  0  0
 22 26  1  0  0  0  0
 22 57  1  0  0  0  0
 22 58  1  0  0  0  0
 23 27  2  0  0  0  0
 23 28  1  0  0  0  0
 25 59  1  0  0  0  0
 26 60  1  0  0  0  0
 26 61  1  0  0  0  0
 26 62  1  0  0  0  0
 27 29  1  0  0  0  0
 27 63  1  0  0  0  0
 28 30  2  0  0  0  0
 28 64  1  0  0  0  0
 29 32  2  0  0  0  0
 29 66  1  0  0  0  0
 30 32  1  0  0  0  0
 30 67  1  0  0  0  0
 31 33  2  0  0  0  0
 31 34  1  0  0  0  0
 32 68  1  0  0  0  0
 33 35  1  0  0  0  0
 33 69  1  0  0  0  0
 34 36  2  0  0  0  0
 34 70  1  0  0  0  0
 35 37  2  0  0  0  0
 35 71  1  0  0  0  0
 36 37  1  0  0  0  0
 36 72  1  0  0  0  0
 37 73  1  0  0  0  0
M  END
> <PUBCHEM_COMPOUND_CID>
506770
> <PUBCHEM_COMPOUND_CANONICALIZED>
1
> <PUBCHEM_CACTVS_COMPLEXITY>
764
> <PUBCHEM_CACTVS_HBOND_ACCEPTOR>
5
> <PUBCHEM_CACTVS_HBOND_DONOR>
3
> <PUBCHEM_CACTVS_ROTATABLE_BOND>
11
> <PUBCHEM_CACTVS_SUBSKEYS>
AAADcfB7uAAAAAAAAAAAAAAAAAAAAWAAAAAwYAAAAAAAAAABQAAAHgAQAAAADTzhmAYzwIPABACIAi1S0ACCAAAhAgAIiIGIbIiKZjLAsbmXMAhu1gPY6Ce6wSAOAAAAAAAAAAAAAAAAAAAAAAAAAAAAAA==
> <PUBCHEM_IUPAC_OPENEYE_NAME>
(2S,4R)-4-benzyloxy-N-[(1S)-1-formylpropyl]-1-[(2S)-3-methyl-2-(phenylcarbamoylamino)butanoyl]pyrrolidine-2-carboxamide
> <PUBCHEM_IUPAC_CAS_NAME>
(2S,4R)-1-[(2S)-2-[[anilino(oxo)methyl]amino]-3-methyl-1-oxobutyl]-N-[(2S)-1-oxobutan-2-yl]-4-phenylmethoxy-2-pyrrolidinecarboxamide
> <PUBCHEM_IUPAC_NAME_MARKUP>
(2<I>S</I>,4<I>R</I>)-1-[(2<I>S</I>)-3-methyl-2-(phenylcarbamoylamino)butanoyl]-<I>N</I>-[(2<I>S</I>)-1-oxobutan-2-yl]-4-phenylmethoxypyrrolidine-2-carboxamide
> <PUBCHEM_IUPAC_NAME>
(2S,4R)-1-[(2S)-3-methyl-2-(phenylcarbamoylamino)butanoyl]-N-[(2S)-1-oxobutan-2-yl]-4-phenylmethoxypyrrolidine-2-carboxamide
> <PUBCHEM_IUPAC_SYSTEMATIC_NAME>
(2S,4R)-1-[(2S)-3-methyl-2-(phenylcarbamoylamino)butanoyl]-N-[(2S)-1-oxidanylidenebutan-2-yl]-4-phenylmethoxy-pyrrolidine-2-carboxamide
> <PUBCHEM_IUPAC_TRADITIONAL_NAME>
(2S,4R)-4-benzoxy-N-[(1S)-1-formylpropyl]-1-[(2S)-3-methyl-2-(phenylcarbamoylamino)butanoyl]pyrrolidine-2-carboxamide
> <PUBCHEM_IUPAC_INCHI>
InChI=1S/C28H36N4O5/c1-4-21(17-33)29-26(34)24-15-23(37-18-20-11-7-5-8-12-20)16-32(24)27(35)25(19(2)3)31-28(36)30-22-13-9-6-10-14-22/h5-14,17,19,21,23-25H,4,15-16,18H2,1-3H3,(H,29,34)(H2,30,31,36)/t21-,23+,24-,25-/m0/s1
> <PUBCHEM_IUPAC_INCHIKEY>
BAAKAPHWVSIFFA-VHXCZSFDSA-N
> <PUBCHEM_XLOGP3_AA>
3.2
> <PUBCHEM_EXACT_MASS>
508.26857026
> <PUBCHEM_MOLECULAR_FORMULA>
C28H36N4O5
> <PUBCHEM_MOLECULAR_WEIGHT>
508.6
> <PUBCHEM_OPENEYE_CAN_SMILES>
CCC(C=O)NC(=O)C1CC(CN1C(=O)C(C(C)C)NC(=O)NC2=CC=CC=C2)OCC3=CC=CC=C3
> <PUBCHEM_OPENEYE_ISO_SMILES>
CC[C@@H](C=O)NC(=O)[C@@H]1C[C@H](CN1C(=O)[C@H](C(C)C)NC(=O)NC2=CC=CC=C2)OCC3=CC=CC=C3
> <PUBCHEM_CACTVS_TPSA>
117
> <PUBCHEM_MONOISOTOPIC_WEIGHT>
508.26857026
> <PUBCHEM_TOTAL_CHARGE>
0
> <PUBCHEM_HEAVY_ATOM_COUNT>
37
> <PUBCHEM_ATOM_DEF_STEREO_COUNT>
4
> <PUBCHEM_ATOM_UDEF_STEREO_COUNT>
0
> <PUBCHEM_BOND_DEF_STEREO_COUNT>
0
> <PUBCHEM_BOND_UDEF_STEREO_COUNT>
0
> <PUBCHEM_ISOTOPIC_ATOM_COUNT>
0
> <PUBCHEM_COMPONENT_COUNT>
1
> <PUBCHEM_CACTVS_TAUTO_COUNT>
-1
> <PUBCHEM_COORDINATE_TYPE>
1
5
255
> <PUBCHEM_BONDANNOTATIONS>
11  1  5
10  16  6
23  27  8
23  28  8
27  29  8
28  30  8
29  32  8
30  32  8
31  33  8
31  34  8
33  35  8
34  36  8
35  37  8
36  37  8
21  7  5
15  8  6
$$$$
