506748
  -OEChem-10302200282D
 93 93  0     1  0  0  0  0  0999 V2000
    8.0622   -3.5000    0.0000 O   0  0  0  0  0  0  0  0  0  0  0  0
    4.5981   -2.5000    0.0000 O   0  0  0  0  0  0  0  0  0  0  0  0
   10.6603   -1.0000    0.0000 O   0  0  0  0  0  0  0  0  0  0  0  0
    5.4641    1.0000    0.0000 O   0  0  0  0  0  0  0  0  0  0  0  0
   13.2583   -3.5000    0.0000 O   0  0  0  0  0  0  0  0  0  0  0  0
    2.8660    0.5000    0.0000 O   0  0  0  0  0  0  0  0  0  0  0  0
    2.0000    4.0000    0.0000 O   0  0  0  0  0  0  0  0  0  0  0  0
    7.1962   -2.0000    0.0000 N   0  0  0  0  0  0  0  0  0  0  0  0
    9.7942   -2.5000    0.0000 N   0  0  0  0  0  0  0  0  0  0  0  0
    5.4641   -1.0000    0.0000 N   0  0  0  0  0  0  0  0  0  0  0  0
   12.3923   -2.0000    0.0000 N   0  0  0  0  0  0  0  0  0  0  0  0
    3.7320    2.0000    0.0000 N   0  0  0  0  0  0  0  0  0  0  0  0
   14.9904   -2.5000    0.0000 N   0  0  0  0  0  0  0  0  0  0  0  0
   14.9904   -0.5000    0.0000 N   0  0  0  0  0  0  0  0  0  0  0  0
    8.9282   -2.0000    0.0000 C   0  0  1  0  0  0  0  0  0  0  0  0
    6.3301   -2.5000    0.0000 C   0  0  1  0  0  0  0  0  0  0  0  0
    8.9282   -1.0000    0.0000 C   0  0  0  0  0  0  0  0  0  0  0  0
    6.3301   -3.5000    0.0000 C   0  0  0  0  0  0  0  0  0  0  0  0
    5.4641   -4.0000    0.0000 C   0  0  0  0  0  0  0  0  0  0  0  0
    8.0622   -2.5000    0.0000 C   0  0  0  0  0  0  0  0  0  0  0  0
   11.5263   -2.5000    0.0000 C   0  0  1  0  0  0  0  0  0  0  0  0
   11.5263   -3.5000    0.0000 C   0  0  0  0  0  0  0  0  0  0  0  0
    5.4641   -2.0000    0.0000 C   0  0  0  0  0  0  0  0  0  0  0  0
   10.6603   -2.0000    0.0000 C   0  0  0  0  0  0  0  0  0  0  0  0
    8.0622   -0.5000    0.0000 C   0  0  0  0  0  0  0  0  0  0  0  0
    9.7942   -0.5000    0.0000 C   0  0  0  0  0  0  0  0  0  0  0  0
    5.4641   -5.0000    0.0000 C   0  0  0  0  0  0  0  0  0  0  0  0
    4.5981   -3.5000    0.0000 C   0  0  0  0  0  0  0  0  0  0  0  0
    4.5981   -0.5000    0.0000 C   0  0  1  0  0  0  0  0  0  0  0  0
   10.6603   -4.0000    0.0000 C   0  0  0  0  0  0  0  0  0  0  0  0
   12.3923   -4.0000    0.0000 C   0  0  0  0  0  0  0  0  0  0  0  0
    3.7320   -1.0000    0.0000 C   0  0  0  0  0  0  0  0  0  0  0  0
    4.5981    0.5000    0.0000 C   0  0  0  0  0  0  0  0  0  0  0  0
   13.2583   -2.5000    0.0000 C   0  0  0  0  0  0  0  0  0  0  0  0
    2.8660   -0.5000    0.0000 C   0  0  0  0  0  0  0  0  0  0  0  0
    3.7320    1.0000    0.0000 C   0  0  0  0  0  0  0  0  0  0  0  0
   14.1244   -2.0000    0.0000 C   0  0  0  0  0  0  0  0  0  0  0  0
    2.8660    2.5000    0.0000 C   0  0  0  0  0  0  0  0  0  0  0  0
    2.8660    3.5000    0.0000 C   0  0  3  0  0  0  0  0  0  0  0  0
   14.1244   -1.0000    0.0000 C   0  0  0  0  0  0  0  0  0  0  0  0
    3.7320    4.0000    0.0000 C   0  0  0  0  0  0  0  0  0  0  0  0
   15.8564   -2.0000    0.0000 C   0  0  0  0  0  0  0  0  0  0  0  0
   15.8564   -1.0000    0.0000 C   0  0  0  0  0  0  0  0  0  0  0  0
    2.0000    5.0000    0.0000 C   0  0  0  0  0  0  0  0  0  0  0  0
    8.9282   -2.6200    0.0000 H   0  0  0  0  0  0  0  0  0  0  0  0
    6.8671   -2.8100    0.0000 H   0  0  0  0  0  0  0  0  0  0  0  0
    9.4651   -1.3100    0.0000 H   0  0  0  0  0  0  0  0  0  0  0  0
    6.5422   -4.0826    0.0000 H   0  0  0  0  0  0  0  0  0  0  0  0
    6.9407   -3.3923    0.0000 H   0  0  0  0  0  0  0  0  0  0  0  0
    5.4641   -3.3800    0.0000 H   0  0  0  0  0  0  0  0  0  0  0  0
    7.1962   -1.3800    0.0000 H   0  0  0  0  0  0  0  0  0  0  0  0
   11.5263   -1.8800    0.0000 H   0  0  0  0  0  0  0  0  0  0  0  0
    9.7942   -3.1200    0.0000 H   0  0  0  0  0  0  0  0  0  0  0  0
   12.0632   -3.1900    0.0000 H   0  0  0  0  0  0  0  0  0  0  0  0
    8.3722    0.0369    0.0000 H   0  0  0  0  0  0  0  0  0  0  0  0
    7.5252   -0.1900    0.0000 H   0  0  0  0  0  0  0  0  0  0  0  0
    7.7522   -1.0369    0.0000 H   0  0  0  0  0  0  0  0  0  0  0  0
   10.1042   -1.0369    0.0000 H   0  0  0  0  0  0  0  0  0  0  0  0
   10.3312   -0.1900    0.0000 H   0  0  0  0  0  0  0  0  0  0  0  0
    9.4842    0.0369    0.0000 H   0  0  0  0  0  0  0  0  0  0  0  0
    4.8441   -5.0000    0.0000 H   0  0  0  0  0  0  0  0  0  0  0  0
    5.4641   -5.6200    0.0000 H   0  0  0  0  0  0  0  0  0  0  0  0
    6.0841   -5.0000    0.0000 H   0  0  0  0  0  0  0  0  0  0  0  0
    4.9081   -2.9631    0.0000 H   0  0  0  0  0  0  0  0  0  0  0  0
    4.0611   -3.1900    0.0000 H   0  0  0  0  0  0  0  0  0  0  0  0
    4.2881   -4.0369    0.0000 H   0  0  0  0  0  0  0  0  0  0  0  0
    4.5981   -1.1200    0.0000 H   0  0  0  0  0  0  0  0  0  0  0  0
    6.0010   -0.6900    0.0000 H   0  0  0  0  0  0  0  0  0  0  0  0
   10.3503   -3.4631    0.0000 H   0  0  0  0  0  0  0  0  0  0  0  0
   10.1233   -4.3100    0.0000 H   0  0  0  0  0  0  0  0  0  0  0  0
   10.9703   -4.5369    0.0000 H   0  0  0  0  0  0  0  0  0  0  0  0
   12.0823   -4.5369    0.0000 H   0  0  0  0  0  0  0  0  0  0  0  0
   12.9292   -4.3100    0.0000 H   0  0  0  0  0  0  0  0  0  0  0  0
   12.7023   -3.4631    0.0000 H   0  0  0  0  0  0  0  0  0  0  0  0
   12.3923   -1.3800    0.0000 H   0  0  0  0  0  0  0  0  0  0  0  0
    3.3335   -1.4750    0.0000 H   0  0  0  0  0  0  0  0  0  0  0  0
    4.1306   -1.4750    0.0000 H   0  0  0  0  0  0  0  0  0  0  0  0
    3.1760    0.0369    0.0000 H   0  0  0  0  0  0  0  0  0  0  0  0
    2.3291   -0.1900    0.0000 H   0  0  0  0  0  0  0  0  0  0  0  0
    2.5560   -1.0369    0.0000 H   0  0  0  0  0  0  0  0  0  0  0  0
    4.2690    2.3100    0.0000 H   0  0  0  0  0  0  0  0  0  0  0  0
    2.2554    2.6077    0.0000 H   0  0  0  0  0  0  0  0  0  0  0  0
    2.6540    1.9174    0.0000 H   0  0  0  0  0  0  0  0  0  0  0  0
    2.8660    4.1200    0.0000 H   0  0  0  0  0  0  0  0  0  0  0  0
   13.5874   -0.6900    0.0000 H   0  0  0  0  0  0  0  0  0  0  0  0
    4.0420    3.4631    0.0000 H   0  0  0  0  0  0  0  0  0  0  0  0
    4.2690    4.3100    0.0000 H   0  0  0  0  0  0  0  0  0  0  0  0
    3.4220    4.5369    0.0000 H   0  0  0  0  0  0  0  0  0  0  0  0
   16.3933   -2.3100    0.0000 H   0  0  0  0  0  0  0  0  0  0  0  0
   16.3933   -0.6900    0.0000 H   0  0  0  0  0  0  0  0  0  0  0  0
    2.6200    5.0000    0.0000 H   0  0  0  0  0  0  0  0  0  0  0  0
    2.0000    5.6200    0.0000 H   0  0  0  0  0  0  0  0  0  0  0  0
    1.3800    5.0000    0.0000 H   0  0  0  0  0  0  0  0  0  0  0  0
  1 20  2  0  0  0  0
  2 23  2  0  0  0  0
  3 24  2  0  0  0  0
  4 33  2  0  0  0  0
  5 34  2  0  0  0  0
  6 36  2  0  0  0  0
  7 39  1  0  0  0  0
  7 44  1  0  0  0  0
 16  8  1  1  0  0  0
  8 20  1  0  0  0  0
  8 51  1  0  0  0  0
 15  9  1  6  0  0  0
  9 24  1  0  0  0  0
  9 53  1  0  0  0  0
 10 23  1  0  0  0  0
 29 10  1  1  0  0  0
 10 68  1  0  0  0  0
 21 11  1  1  0  0  0
 11 34  1  0  0  0  0
 11 75  1  0  0  0  0
 12 36  1  0  0  0  0
 12 38  1  0  0  0  0
 12 81  1  0  0  0  0
 13 37  2  0  0  0  0
 13 42  1  0  0  0  0
 14 40  2  0  0  0  0
 14 43  1  0  0  0  0
 15 17  1  0  0  0  0
 15 20  1  0  0  0  0
 15 45  1  0  0  0  0
 16 18  1  0  0  0  0
 16 23  1  0  0  0  0
 16 46  1  0  0  0  0
 17 25  1  0  0  0  0
 17 26  1  0  0  0  0
 17 47  1  0  0  0  0
 18 19  1  0  0  0  0
 18 48  1  0  0  0  0
 18 49  1  0  0  0  0
 19 27  1  0  0  0  0
 19 28  1  0  0  0  0
 19 50  1  0  0  0  0
 21 22  1  0  0  0  0
 21 24  1  0  0  0  0
 21 52  1  0  0  0  0
 22 30  1  0  0  0  0
 22 31  1  0  0  0  0
 22 54  1  0  0  0  0
 25 55  1  0  0  0  0
 25 56  1  0  0  0  0
 25 57  1  0  0  0  0
 26 58  1  0  0  0  0
 26 59  1  0  0  0  0
 26 60  1  0  0  0  0
 27 61  1  0  0  0  0
 27 62  1  0  0  0  0
 27 63  1  0  0  0  0
 28 64  1  0  0  0  0
 28 65  1  0  0  0  0
 28 66  1  0  0  0  0
 29 32  1  0  0  0  0
 29 33  1  0  0  0  0
 29 67  1  0  0  0  0
 30 69  1  0  0  0  0
 30 70  1  0  0  0  0
 30 71  1  0  0  0  0
 31 72  1  0  0  0  0
 31 73  1  0  0  0  0
 31 74  1  0  0  0  0
 32 35  1  0  0  0  0
 32 76  1  0  0  0  0
 32 77  1  0  0  0  0
 33 36  1  0  0  0  0
 34 37  1  0  0  0  0
 35 78  1  0  0  0  0
 35 79  1  0  0  0  0
 35 80  1  0  0  0  0
 37 40  1  0  0  0  0
 38 39  1  0  0  0  0
 38 82  1  0  0  0  0
 38 83  1  0  0  0  0
 39 41  1  0  0  0  0
 39 84  1  0  0  0  0
 40 85  1  0  0  0  0
 41 86  1  0  0  0  0
 41 87  1  0  0  0  0
 41 88  1  0  0  0  0
 42 43  2  0  0  0  0
 42 89  1  0  0  0  0
 43 90  1  0  0  0  0
 44 91  1  0  0  0  0
 44 92  1  0  0  0  0
 44 93  1  0  0  0  0
M  END
> <PUBCHEM_COMPOUND_CID>
506748
> <PUBCHEM_COMPOUND_CANONICALIZED>
1
> <PUBCHEM_CACTVS_COMPLEXITY>
989
> <PUBCHEM_CACTVS_HBOND_ACCEPTOR>
9
> <PUBCHEM_CACTVS_HBOND_DONOR>
5
> <PUBCHEM_CACTVS_ROTATABLE_BOND>
18
> <PUBCHEM_CACTVS_SUBSKEYS>
AAADcfB7uAAAAAAAAAAAAAAAAAAAAAAAAAAsAAAAAAAAAAABgAAAHgAQAAAADTzhlgYugBLIFACoAZV3VACAgCQXEiAIUIG4dEACQFpAwCAVAIgAFgDQAMAYAAAMAAAAAAAAAAAAAAAAAAAAAAAAAAAAAA==
> <PUBCHEM_IUPAC_OPENEYE_NAME>
N-[(1S)-1-[[(1S)-1-[[(1S)-1-[[(1S)-1-ethyl-3-(2-methoxypropylamino)-2,3-dioxo-propyl]carbamoyl]-3-methyl-butyl]carbamoyl]-2-methyl-propyl]carbamoyl]-2-methyl-propyl]pyrazine-2-carboxamide
> <PUBCHEM_IUPAC_CAS_NAME>
N-[(2S)-1-[[(2S)-1-[[(2S)-1-[[(3S)-1-(2-methoxypropylamino)-1,2-dioxopentan-3-yl]amino]-4-methyl-1-oxopentan-2-yl]amino]-3-methyl-1-oxobutan-2-yl]amino]-3-methyl-1-oxobutan-2-yl]-2-pyrazinecarboxamide
> <PUBCHEM_IUPAC_NAME_MARKUP>
<I>N</I>-[(2<I>S</I>)-1-[[(2<I>S</I>)-1-[[(2<I>S</I>)-1-[[(3<I>S</I>)-1-(2-methoxypropylamino)-1,2-dioxopentan-3-yl]amino]-4-methyl-1-oxopentan-2-yl]amino]-3-methyl-1-oxobutan-2-yl]amino]-3-methyl-1-oxobutan-2-yl]pyrazine-2-carboxamide
> <PUBCHEM_IUPAC_NAME>
N-[(2S)-1-[[(2S)-1-[[(2S)-1-[[(3S)-1-(2-methoxypropylamino)-1,2-dioxopentan-3-yl]amino]-4-methyl-1-oxopentan-2-yl]amino]-3-methyl-1-oxobutan-2-yl]amino]-3-methyl-1-oxobutan-2-yl]pyrazine-2-carboxamide
> <PUBCHEM_IUPAC_SYSTEMATIC_NAME>
N-[(2S)-1-[[(2S)-1-[[(2S)-1-[[(3S)-1-(2-methoxypropylamino)-1,2-bis(oxidanylidene)pentan-3-yl]amino]-4-methyl-1-oxidanylidene-pentan-2-yl]amino]-3-methyl-1-oxidanylidene-butan-2-yl]amino]-3-methyl-1-oxidanylidene-butan-2-yl]pyrazine-2-carboxamide
> <PUBCHEM_IUPAC_TRADITIONAL_NAME>
N-[(1S)-1-[[(1S)-1-[[(1S)-1-[[(1S)-1-ethyl-2,3-diketo-3-(2-methoxypropylamino)propyl]carbamoyl]-3-methyl-butyl]carbamoyl]-2-methyl-propyl]carbamoyl]-2-methyl-propyl]pyrazinamide
> <PUBCHEM_IUPAC_INCHI>
InChI=1S/C30H49N7O7/c1-10-20(25(38)30(43)33-14-19(8)44-9)34-26(39)21(13-16(2)3)35-28(41)23(17(4)5)37-29(42)24(18(6)7)36-27(40)22-15-31-11-12-32-22/h11-12,15-21,23-24H,10,13-14H2,1-9H3,(H,33,43)(H,34,39)(H,35,41)(H,36,40)(H,37,42)/t19?,20-,21-,23-,24-/m0/s1
> <PUBCHEM_IUPAC_INCHIKEY>
CTLIWBZWSTURMM-FJJUINNHSA-N
> <PUBCHEM_XLOGP3_AA>
2.3
> <PUBCHEM_EXACT_MASS>
619.36934693
> <PUBCHEM_MOLECULAR_FORMULA>
C30H49N7O7
> <PUBCHEM_MOLECULAR_WEIGHT>
619.8
> <PUBCHEM_OPENEYE_CAN_SMILES>
CCC(C(=O)C(=O)NCC(C)OC)NC(=O)C(CC(C)C)NC(=O)C(C(C)C)NC(=O)C(C(C)C)NC(=O)C1=NC=CN=C1
> <PUBCHEM_OPENEYE_ISO_SMILES>
CC[C@@H](C(=O)C(=O)NCC(C)OC)NC(=O)[C@H](CC(C)C)NC(=O)[C@H](C(C)C)NC(=O)[C@H](C(C)C)NC(=O)C1=NC=CN=C1
> <PUBCHEM_CACTVS_TPSA>
198
> <PUBCHEM_MONOISOTOPIC_WEIGHT>
619.36934693
> <PUBCHEM_TOTAL_CHARGE>
0
> <PUBCHEM_HEAVY_ATOM_COUNT>
44
> <PUBCHEM_ATOM_DEF_STEREO_COUNT>
4
> <PUBCHEM_ATOM_UDEF_STEREO_COUNT>
1
> <PUBCHEM_BOND_DEF_STEREO_COUNT>
0
> <PUBCHEM_BOND_UDEF_STEREO_COUNT>
0
> <PUBCHEM_ISOTOPIC_ATOM_COUNT>
0
> <PUBCHEM_COMPONENT_COUNT>
1
> <PUBCHEM_CACTVS_TAUTO_COUNT>
-1
> <PUBCHEM_COORDINATE_TYPE>
1
5
255
> <PUBCHEM_BONDANNOTATIONS>
29  10  5
21  11  5
13  37  8
13  42  8
14  40  8
14  43  8
37  40  8
39  41  3
42  43  8
16  8  5
15  9  6
$$$$
