506750
  -OEChem-10302200282D
101101  0     1  0  0  0  0  0999 V2000
    3.7042    6.6271    0.0000 S   0  0  0  0  0  0  0  0  0  0  0  0
    6.2959    2.9933    0.0000 O   0  0  0  0  0  0  0  0  0  0  0  0
    7.8707   -0.2502    0.0000 O   0  0  0  0  0  0  0  0  0  0  0  0
    6.0880    3.9714    0.0000 O   0  0  0  0  0  0  0  0  0  0  0  0
    4.6902   -1.9485    0.0000 O   0  0  0  0  0  0  0  0  0  0  0  0
    6.2074    7.5750    0.0000 O   0  0  0  0  0  0  0  0  0  0  0  0
    3.9470   -2.6177    0.0000 O   0  0  0  0  0  0  0  0  0  0  0  0
    7.9592   -4.8319    0.0000 O   0  0  0  0  0  0  0  0  0  0  0  0
    6.2650   -5.1920    0.0000 O   0  0  0  0  0  0  0  0  0  0  0  0
    2.3413   -7.5595    0.0000 O   0  0  0  0  0  0  0  0  0  0  0  0
    4.0355   -7.1994    0.0000 O   0  0  0  0  0  0  0  0  0  0  0  0
    6.7117    1.0370    0.0000 N   0  0  0  0  0  0  0  0  0  0  0  0
    7.9901    3.3534    0.0000 N   0  0  0  0  0  0  0  0  0  0  0  0
    6.3844   -1.5884    0.0000 N   0  0  0  0  0  0  0  0  0  0  0  0
    6.6232    5.6187    0.0000 N   0  0  0  0  0  0  0  0  0  0  0  0
    5.1060   -3.9048    0.0000 N   0  0  0  0  0  0  0  0  0  0  0  0
    2.4608   -3.9559    0.0000 N   0  0  0  0  0  0  0  0  0  0  0  0
    4.2042    8.1660    0.0000 N   0  0  0  0  0  0  0  0  0  0  0  0
    7.4548    1.7061    0.0000 C   0  0  1  0  0  0  0  0  0  0  0  0
    8.4059    1.3971    0.0000 C   0  0  0  0  0  0  0  0  0  0  0  0
    7.7822    4.3316    0.0000 C   0  0  1  0  0  0  0  0  0  0  0  0
    6.1765   -0.6103    0.0000 C   0  0  1  0  0  0  0  0  0  0  0  0
    8.5253    5.0007    0.0000 C   0  0  0  0  0  0  0  0  0  0  0  0
    5.2254   -0.3013    0.0000 C   0  0  0  0  0  0  0  0  0  0  0  0
    9.4764    4.6917    0.0000 C   0  0  0  0  0  0  0  0  0  0  0  0
    7.2469    2.6843    0.0000 C   0  0  0  0  0  0  0  0  0  0  0  0
    6.9196    0.0589    0.0000 C   0  0  0  0  0  0  0  0  0  0  0  0
    8.6138    0.4190    0.0000 C   0  0  0  0  0  0  0  0  0  0  0  0
    9.1491    2.0662    0.0000 C   0  0  0  0  0  0  0  0  0  0  0  0
    6.8311    4.6406    0.0000 C   0  0  0  0  0  0  0  0  0  0  0  0
    4.4823   -0.9704    0.0000 C   0  0  0  0  0  0  0  0  0  0  0  0
    5.0175    0.6769    0.0000 C   0  0  0  0  0  0  0  0  0  0  0  0
   10.2195    5.3608    0.0000 C   0  0  0  0  0  0  0  0  0  0  0  0
    9.6843    3.7135    0.0000 C   0  0  0  0  0  0  0  0  0  0  0  0
    5.8492   -3.2357    0.0000 C   0  0  2  0  0  0  0  0  0  0  0  0
    5.6412   -2.2576    0.0000 C   0  0  0  0  0  0  0  0  0  0  0  0
    5.6722    5.9277    0.0000 C   0  0  1  0  0  0  0  0  0  0  0  0
    4.9290    5.2586    0.0000 C   0  0  0  0  0  0  0  0  0  0  0  0
    6.8002   -3.5447    0.0000 C   0  0  0  0  0  0  0  0  0  0  0  0
    5.4642    6.9059    0.0000 C   0  0  0  0  0  0  0  0  0  0  0  0
    3.4118   -4.2650    0.0000 C   0  0  2  0  0  0  0  0  0  0  0  0
    4.1550   -3.5958    0.0000 C   0  0  0  0  0  0  0  0  0  0  0  0
    5.1369    4.2805    0.0000 C   0  0  0  0  0  0  0  0  0  0  0  0
    3.6197   -5.2431    0.0000 C   0  0  0  0  0  0  0  0  0  0  0  0
    7.0081   -4.5229    0.0000 C   0  0  0  0  0  0  0  0  0  0  0  0
    4.5132    7.2149    0.0000 C   0  0  0  0  0  0  0  0  0  0  0  0
    2.8766   -5.9122    0.0000 C   0  0  0  0  0  0  0  0  0  0  0  0
    3.0845   -6.8904    0.0000 C   0  0  0  0  0  0  0  0  0  0  0  0
    2.8952    7.2149    0.0000 C   0  0  0  0  0  0  0  0  0  0  0  0
    3.2042    8.1660    0.0000 C   0  0  0  0  0  0  0  0  0  0  0  0
    7.5838    1.0997    0.0000 H   0  0  0  0  0  0  0  0  0  0  0  0
    8.2770    2.0036    0.0000 H   0  0  0  0  0  0  0  0  0  0  0  0
    7.3214    3.9167    0.0000 H   0  0  0  0  0  0  0  0  0  0  0  0
    6.7661   -0.8019    0.0000 H   0  0  0  0  0  0  0  0  0  0  0  0
    8.8164    5.5481    0.0000 H   0  0  0  0  0  0  0  0  0  0  0  0
    8.0368    5.3824    0.0000 H   0  0  0  0  0  0  0  0  0  0  0  0
    5.6862    0.1136    0.0000 H   0  0  0  0  0  0  0  0  0  0  0  0
   10.0660    4.5001    0.0000 H   0  0  0  0  0  0  0  0  0  0  0  0
    6.1220    1.2286    0.0000 H   0  0  0  0  0  0  0  0  0  0  0  0
    8.5797    3.1618    0.0000 H   0  0  0  0  0  0  0  0  0  0  0  0
    8.0074    0.2901    0.0000 H   0  0  0  0  0  0  0  0  0  0  0  0
    8.7427   -0.1875    0.0000 H   0  0  0  0  0  0  0  0  0  0  0  0
    9.2203    0.5479    0.0000 H   0  0  0  0  0  0  0  0  0  0  0  0
    9.5639    1.6055    0.0000 H   0  0  0  0  0  0  0  0  0  0  0  0
    9.6098    2.4811    0.0000 H   0  0  0  0  0  0  0  0  0  0  0  0
    8.7342    2.5270    0.0000 H   0  0  0  0  0  0  0  0  0  0  0  0
    6.9740   -1.7800    0.0000 H   0  0  0  0  0  0  0  0  0  0  0  0
    4.0674   -0.5096    0.0000 H   0  0  0  0  0  0  0  0  0  0  0  0
    4.0215   -1.3853    0.0000 H   0  0  0  0  0  0  0  0  0  0  0  0
    4.8971   -1.4311    0.0000 H   0  0  0  0  0  0  0  0  0  0  0  0
    5.6240    0.8058    0.0000 H   0  0  0  0  0  0  0  0  0  0  0  0
    4.8886    1.2833    0.0000 H   0  0  0  0  0  0  0  0  0  0  0  0
    4.4110    0.5480    0.0000 H   0  0  0  0  0  0  0  0  0  0  0  0
   10.6344    4.9000    0.0000 H   0  0  0  0  0  0  0  0  0  0  0  0
   10.6803    5.7757    0.0000 H   0  0  0  0  0  0  0  0  0  0  0  0
    9.8047    5.8216    0.0000 H   0  0  0  0  0  0  0  0  0  0  0  0
    9.0778    3.5846    0.0000 H   0  0  0  0  0  0  0  0  0  0  0  0
    9.8132    3.1071    0.0000 H   0  0  0  0  0  0  0  0  0  0  0  0
   10.2907    3.8424    0.0000 H   0  0  0  0  0  0  0  0  0  0  0  0
    5.9781   -3.8422    0.0000 H   0  0  0  0  0  0  0  0  0  0  0  0
    7.0840    6.0336    0.0000 H   0  0  0  0  0  0  0  0  0  0  0  0
    6.1329    6.3426    0.0000 H   0  0  0  0  0  0  0  0  0  0  0  0
    4.6005    5.7844    0.0000 H   0  0  0  0  0  0  0  0  0  0  0  0
    4.3542    5.0264    0.0000 H   0  0  0  0  0  0  0  0  0  0  0  0
    7.4198   -3.5231    0.0000 H   0  0  0  0  0  0  0  0  0  0  0  0
    6.8865   -2.9308    0.0000 H   0  0  0  0  0  0  0  0  0  0  0  0
    5.2349   -4.5113    0.0000 H   0  0  0  0  0  0  0  0  0  0  0  0
    2.9511   -4.6798    0.0000 H   0  0  0  0  0  0  0  0  0  0  0  0
    4.5305    4.1516    0.0000 H   0  0  0  0  0  0  0  0  0  0  0  0
    5.2658    3.6740    0.0000 H   0  0  0  0  0  0  0  0  0  0  0  0
    5.7434    4.4094    0.0000 H   0  0  0  0  0  0  0  0  0  0  0  0
    3.9483   -5.7689    0.0000 H   0  0  0  0  0  0  0  0  0  0  0  0
    4.1946   -5.0108    0.0000 H   0  0  0  0  0  0  0  0  0  0  0  0
    2.5480   -5.3864    0.0000 H   0  0  0  0  0  0  0  0  0  0  0  0
    2.3017   -6.1445    0.0000 H   0  0  0  0  0  0  0  0  0  0  0  0
    2.0000   -4.3708    0.0000 H   0  0  0  0  0  0  0  0  0  0  0  0
    2.3318   -3.3495    0.0000 H   0  0  0  0  0  0  0  0  0  0  0  0
    8.0881   -5.4383    0.0000 H   0  0  0  0  0  0  0  0  0  0  0  0
    2.3055    7.0233    0.0000 H   0  0  0  0  0  0  0  0  0  0  0  0
    2.8397    8.6676    0.0000 H   0  0  0  0  0  0  0  0  0  0  0  0
    2.4702   -8.1660    0.0000 H   0  0  0  0  0  0  0  0  0  0  0  0
  1 46  1  0  0  0  0
  1 49  1  0  0  0  0
  2 26  2  0  0  0  0
  3 27  2  0  0  0  0
  4 30  2  0  0  0  0
  5 36  2  0  0  0  0
  6 40  2  0  0  0  0
  7 42  2  0  0  0  0
  8 45  1  0  0  0  0
  8 98  1  0  0  0  0
  9 45  2  0  0  0  0
 10 48  1  0  0  0  0
 10101  1  0  0  0  0
 11 48  2  0  0  0  0
 19 12  1  6  0  0  0
 12 27  1  0  0  0  0
 12 59  1  0  0  0  0
 21 13  1  6  0  0  0
 13 26  1  0  0  0  0
 13 60  1  0  0  0  0
 22 14  1  1  0  0  0
 14 36  1  0  0  0  0
 14 67  1  0  0  0  0
 15 30  1  0  0  0  0
 37 15  1  1  0  0  0
 15 81  1  0  0  0  0
 35 16  1  6  0  0  0
 16 42  1  0  0  0  0
 16 87  1  0  0  0  0
 41 17  1  6  0  0  0
 17 96  1  0  0  0  0
 17 97  1  0  0  0  0
 18 46  2  0  0  0  0
 18 50  1  0  0  0  0
 19 20  1  0  0  0  0
 19 26  1  0  0  0  0
 19 51  1  0  0  0  0
 20 28  1  0  0  0  0
 20 29  1  0  0  0  0
 20 52  1  0  0  0  0
 21 23  1  0  0  0  0
 21 30  1  0  0  0  0
 21 53  1  0  0  0  0
 22 24  1  0  0  0  0
 22 27  1  0  0  0  0
 22 54  1  0  0  0  0
 23 25  1  0  0  0  0
 23 55  1  0  0  0  0
 23 56  1  0  0  0  0
 24 31  1  0  0  0  0
 24 32  1  0  0  0  0
 24 57  1  0  0  0  0
 25 33  1  0  0  0  0
 25 34  1  0  0  0  0
 25 58  1  0  0  0  0
 28 61  1  0  0  0  0
 28 62  1  0  0  0  0
 28 63  1  0  0  0  0
 29 64  1  0  0  0  0
 29 65  1  0  0  0  0
 29 66  1  0  0  0  0
 31 68  1  0  0  0  0
 31 69  1  0  0  0  0
 31 70  1  0  0  0  0
 32 71  1  0  0  0  0
 32 72  1  0  0  0  0
 32 73  1  0  0  0  0
 33 74  1  0  0  0  0
 33 75  1  0  0  0  0
 33 76  1  0  0  0  0
 34 77  1  0  0  0  0
 34 78  1  0  0  0  0
 34 79  1  0  0  0  0
 35 36  1  0  0  0  0
 35 39  1  0  0  0  0
 35 80  1  0  0  0  0
 37 38  1  0  0  0  0
 37 40  1  0  0  0  0
 37 82  1  0  0  0  0
 38 43  1  0  0  0  0
 38 83  1  0  0  0  0
 38 84  1  0  0  0  0
 39 45  1  0  0  0  0
 39 85  1  0  0  0  0
 39 86  1  0  0  0  0
 40 46  1  0  0  0  0
 41 42  1  0  0  0  0
 41 44  1  0  0  0  0
 41 88  1  0  0  0  0
 43 89  1  0  0  0  0
 43 90  1  0  0  0  0
 43 91  1  0  0  0  0
 44 47  1  0  0  0  0
 44 92  1  0  0  0  0
 44 93  1  0  0  0  0
 47 48  1  0  0  0  0
 47 94  1  0  0  0  0
 47 95  1  0  0  0  0
 49 50  2  0  0  0  0
 49 99  1  0  0  0  0
 50100  1  0  0  0  0
M  END
> <PUBCHEM_COMPOUND_CID>
506750
> <PUBCHEM_COMPOUND_CANONICALIZED>
1
> <PUBCHEM_CACTVS_COMPLEXITY>
1230
> <PUBCHEM_CACTVS_HBOND_ACCEPTOR>
13
> <PUBCHEM_CACTVS_HBOND_DONOR>
8
> <PUBCHEM_CACTVS_ROTATABLE_BOND>
22
> <PUBCHEM_CACTVS_SUBSKEYS>
AAADcfB/vABAAAAAAAAAAAAAAAAAAWAAAAAAAAAAAAAAAAABgAAAHgQQCAAADSzFwgSuiRLIEgisAJG3XAAA8KBTCjhIQI24IAAAQBogwCAUQAAGFgCgAAC/FwIMAAAAAAAAAAAAAAAAAAAAAAAAAAAAAA==
> <PUBCHEM_IUPAC_OPENEYE_NAME>
(4S)-4-amino-5-[[(1S)-1-(carboxymethyl)-2-[[(1S)-2-methyl-1-[[(1S)-2-methyl-1-[[(1S)-3-methyl-1-[[(1S)-1-(thiazole-2-carbonyl)propyl]carbamoyl]butyl]carbamoyl]propyl]carbamoyl]propyl]amino]-2-oxo-ethyl]amino]-5-oxo-pentanoic acid
> <PUBCHEM_IUPAC_CAS_NAME>
(4S)-4-amino-5-[[(2S)-3-carboxy-1-[[(2S)-3-methyl-1-[[(2S)-3-methyl-1-[[(2S)-4-methyl-1-oxo-1-[[(2S)-1-oxo-1-(2-thiazolyl)butan-2-yl]amino]pentan-2-yl]amino]-1-oxobutan-2-yl]amino]-1-oxobutan-2-yl]amino]-1-oxopropan-2-yl]amino]-5-oxopentanoic acid
> <PUBCHEM_IUPAC_NAME_MARKUP>
(4<I>S</I>)-4-amino-5-[[(2<I>S</I>)-3-carboxy-1-[[(2<I>S</I>)-3-methyl-1-[[(2<I>S</I>)-3-methyl-1-[[(2<I>S</I>)-4-methyl-1-oxo-1-[[(2<I>S</I>)-1-oxo-1-(1,3-thiazol-2-yl)butan-2-yl]amino]pentan-2-yl]amino]-1-oxobutan-2-yl]amino]-1-oxobutan-2-yl]amino]-1-oxopropan-2-yl]amino]-5-oxopentanoic acid
> <PUBCHEM_IUPAC_NAME>
(4S)-4-amino-5-[[(2S)-3-carboxy-1-[[(2S)-3-methyl-1-[[(2S)-3-methyl-1-[[(2S)-4-methyl-1-oxo-1-[[(2S)-1-oxo-1-(1,3-thiazol-2-yl)butan-2-yl]amino]pentan-2-yl]amino]-1-oxobutan-2-yl]amino]-1-oxobutan-2-yl]amino]-1-oxopropan-2-yl]amino]-5-oxopentanoic acid
> <PUBCHEM_IUPAC_SYSTEMATIC_NAME>
(4S)-4-azanyl-5-[[(2S)-1-[[(2S)-3-methyl-1-[[(2S)-3-methyl-1-[[(2S)-4-methyl-1-oxidanylidene-1-[[(2S)-1-oxidanylidene-1-(1,3-thiazol-2-yl)butan-2-yl]amino]pentan-2-yl]amino]-1-oxidanylidene-butan-2-yl]amino]-1-oxidanylidene-butan-2-yl]amino]-4-oxidanyl-1,4-bis(oxidanylidene)butan-2-yl]amino]-5-oxidanylidene-pentanoic acid
> <PUBCHEM_IUPAC_TRADITIONAL_NAME>
(4S)-4-amino-5-[[(1S)-1-(carboxymethyl)-2-keto-2-[[(1S)-2-methyl-1-[[(1S)-2-methyl-1-[[(1S)-3-methyl-1-[[(1S)-1-(thiazole-2-carbonyl)propyl]carbamoyl]butyl]carbamoyl]propyl]carbamoyl]propyl]amino]ethyl]amino]-5-keto-valeric acid
> <PUBCHEM_IUPAC_INCHI>
InChI=1S/C32H51N7O10S/c1-8-19(26(44)32-34-11-12-50-32)35-28(46)20(13-15(2)3)37-30(48)24(16(4)5)39-31(49)25(17(6)7)38-29(47)21(14-23(42)43)36-27(45)18(33)9-10-22(40)41/h11-12,15-21,24-25H,8-10,13-14,33H2,1-7H3,(H,35,46)(H,36,45)(H,37,48)(H,38,47)(H,39,49)(H,40,41)(H,42,43)/t18-,19-,20-,21-,24-,25-/m0/s1
> <PUBCHEM_IUPAC_INCHIKEY>
JLDFVTAYNFGTQX-FYVXYBBASA-N
> <PUBCHEM_XLOGP3_AA>
-0.7
> <PUBCHEM_EXACT_MASS>
725.34181202
> <PUBCHEM_MOLECULAR_FORMULA>
C32H51N7O10S
> <PUBCHEM_MOLECULAR_WEIGHT>
725.9
> <PUBCHEM_OPENEYE_CAN_SMILES>
CCC(C(=O)C1=NC=CS1)NC(=O)C(CC(C)C)NC(=O)C(C(C)C)NC(=O)C(C(C)C)NC(=O)C(CC(=O)O)NC(=O)C(CCC(=O)O)N
> <PUBCHEM_OPENEYE_ISO_SMILES>
CC[C@@H](C(=O)C1=NC=CS1)NC(=O)[C@H](CC(C)C)NC(=O)[C@H](C(C)C)NC(=O)[C@H](C(C)C)NC(=O)[C@H](CC(=O)O)NC(=O)[C@H](CCC(=O)O)N
> <PUBCHEM_CACTVS_TPSA>
304
> <PUBCHEM_MONOISOTOPIC_WEIGHT>
725.34181202
> <PUBCHEM_TOTAL_CHARGE>
0
> <PUBCHEM_HEAVY_ATOM_COUNT>
50
> <PUBCHEM_ATOM_DEF_STEREO_COUNT>
6
> <PUBCHEM_ATOM_UDEF_STEREO_COUNT>
0
> <PUBCHEM_BOND_DEF_STEREO_COUNT>
0
> <PUBCHEM_BOND_UDEF_STEREO_COUNT>
0
> <PUBCHEM_ISOTOPIC_ATOM_COUNT>
0
> <PUBCHEM_COMPONENT_COUNT>
1
> <PUBCHEM_CACTVS_TAUTO_COUNT>
-1
> <PUBCHEM_COORDINATE_TYPE>
1
5
255
> <PUBCHEM_BONDANNOTATIONS>
1  46  8
1  49  8
19  12  6
21  13  6
22  14  5
37  15  5
35  16  6
41  17  6
18  46  8
18  50  8
49  50  8
$$$$
