506743
  -OEChem-10302200282D
 89 89  0     1  0  0  0  0  0999 V2000
    8.0622   -3.0000    0.0000 O   0  0  0  0  0  0  0  0  0  0  0  0
    4.5981   -2.0000    0.0000 O   0  0  0  0  0  0  0  0  0  0  0  0
   10.6603   -0.5000    0.0000 O   0  0  0  0  0  0  0  0  0  0  0  0
    5.4641    1.5000    0.0000 O   0  0  0  0  0  0  0  0  0  0  0  0
   13.2583   -3.0000    0.0000 O   0  0  0  0  0  0  0  0  0  0  0  0
    2.8660    1.0000    0.0000 O   0  0  0  0  0  0  0  0  0  0  0  0
    7.1962   -1.5000    0.0000 N   0  0  0  0  0  0  0  0  0  0  0  0
    9.7942   -2.0000    0.0000 N   0  0  0  0  0  0  0  0  0  0  0  0
    5.4641   -0.5000    0.0000 N   0  0  0  0  0  0  0  0  0  0  0  0
   12.3923   -1.5000    0.0000 N   0  0  0  0  0  0  0  0  0  0  0  0
    3.7320    2.5000    0.0000 N   0  0  0  0  0  0  0  0  0  0  0  0
   14.9904   -2.0000    0.0000 N   0  0  0  0  0  0  0  0  0  0  0  0
   14.9904    0.0000    0.0000 N   0  0  0  0  0  0  0  0  0  0  0  0
    8.9282   -1.5000    0.0000 C   0  0  1  0  0  0  0  0  0  0  0  0
    6.3301   -2.0000    0.0000 C   0  0  1  0  0  0  0  0  0  0  0  0
    8.9282   -0.5000    0.0000 C   0  0  0  0  0  0  0  0  0  0  0  0
    6.3301   -3.0000    0.0000 C   0  0  0  0  0  0  0  0  0  0  0  0
    5.4641   -3.5000    0.0000 C   0  0  0  0  0  0  0  0  0  0  0  0
    8.0622   -2.0000    0.0000 C   0  0  0  0  0  0  0  0  0  0  0  0
   11.5263   -2.0000    0.0000 C   0  0  1  0  0  0  0  0  0  0  0  0
   11.5263   -3.0000    0.0000 C   0  0  0  0  0  0  0  0  0  0  0  0
    5.4641   -1.5000    0.0000 C   0  0  0  0  0  0  0  0  0  0  0  0
   10.6603   -1.5000    0.0000 C   0  0  0  0  0  0  0  0  0  0  0  0
    8.0622   -0.0000    0.0000 C   0  0  0  0  0  0  0  0  0  0  0  0
    9.7942    0.0000    0.0000 C   0  0  0  0  0  0  0  0  0  0  0  0
    5.4641   -4.5000    0.0000 C   0  0  0  0  0  0  0  0  0  0  0  0
    4.5981   -3.0000    0.0000 C   0  0  0  0  0  0  0  0  0  0  0  0
    4.5981   -0.0000    0.0000 C   0  0  1  0  0  0  0  0  0  0  0  0
   10.6603   -3.5000    0.0000 C   0  0  0  0  0  0  0  0  0  0  0  0
   12.3923   -3.5000    0.0000 C   0  0  0  0  0  0  0  0  0  0  0  0
    3.7320   -0.5000    0.0000 C   0  0  0  0  0  0  0  0  0  0  0  0
    4.5981    1.0000    0.0000 C   0  0  0  0  0  0  0  0  0  0  0  0
   13.2583   -2.0000    0.0000 C   0  0  0  0  0  0  0  0  0  0  0  0
    2.8660   -0.0000    0.0000 C   0  0  0  0  0  0  0  0  0  0  0  0
    3.7320    1.5000    0.0000 C   0  0  0  0  0  0  0  0  0  0  0  0
   14.1244   -1.5000    0.0000 C   0  0  0  0  0  0  0  0  0  0  0  0
    2.8660    3.0000    0.0000 C   0  0  0  0  0  0  0  0  0  0  0  0
   14.1244   -0.5000    0.0000 C   0  0  0  0  0  0  0  0  0  0  0  0
    2.8660    4.0000    0.0000 C   0  0  0  0  0  0  0  0  0  0  0  0
    2.0000    4.5000    0.0000 C   0  0  0  0  0  0  0  0  0  0  0  0
   15.8564   -1.5000    0.0000 C   0  0  0  0  0  0  0  0  0  0  0  0
   15.8564   -0.5000    0.0000 C   0  0  0  0  0  0  0  0  0  0  0  0
    8.9282   -2.1200    0.0000 H   0  0  0  0  0  0  0  0  0  0  0  0
    6.8671   -2.3100    0.0000 H   0  0  0  0  0  0  0  0  0  0  0  0
    9.4651   -0.8100    0.0000 H   0  0  0  0  0  0  0  0  0  0  0  0
    6.5422   -3.5826    0.0000 H   0  0  0  0  0  0  0  0  0  0  0  0
    6.9407   -2.8923    0.0000 H   0  0  0  0  0  0  0  0  0  0  0  0
    5.4641   -2.8800    0.0000 H   0  0  0  0  0  0  0  0  0  0  0  0
    7.1962   -0.8800    0.0000 H   0  0  0  0  0  0  0  0  0  0  0  0
   11.5263   -1.3800    0.0000 H   0  0  0  0  0  0  0  0  0  0  0  0
    9.7942   -2.6200    0.0000 H   0  0  0  0  0  0  0  0  0  0  0  0
   12.0632   -2.6900    0.0000 H   0  0  0  0  0  0  0  0  0  0  0  0
    8.3722    0.5369    0.0000 H   0  0  0  0  0  0  0  0  0  0  0  0
    7.5252    0.3100    0.0000 H   0  0  0  0  0  0  0  0  0  0  0  0
    7.7522   -0.5369    0.0000 H   0  0  0  0  0  0  0  0  0  0  0  0
   10.1042   -0.5369    0.0000 H   0  0  0  0  0  0  0  0  0  0  0  0
   10.3312    0.3100    0.0000 H   0  0  0  0  0  0  0  0  0  0  0  0
    9.4842    0.5369    0.0000 H   0  0  0  0  0  0  0  0  0  0  0  0
    4.8441   -4.5000    0.0000 H   0  0  0  0  0  0  0  0  0  0  0  0
    5.4641   -5.1200    0.0000 H   0  0  0  0  0  0  0  0  0  0  0  0
    6.0841   -4.5000    0.0000 H   0  0  0  0  0  0  0  0  0  0  0  0
    4.9081   -2.4631    0.0000 H   0  0  0  0  0  0  0  0  0  0  0  0
    4.0611   -2.6900    0.0000 H   0  0  0  0  0  0  0  0  0  0  0  0
    4.2881   -3.5369    0.0000 H   0  0  0  0  0  0  0  0  0  0  0  0
    4.5981   -0.6200    0.0000 H   0  0  0  0  0  0  0  0  0  0  0  0
    6.0010   -0.1900    0.0000 H   0  0  0  0  0  0  0  0  0  0  0  0
   10.3503   -2.9631    0.0000 H   0  0  0  0  0  0  0  0  0  0  0  0
   10.1233   -3.8100    0.0000 H   0  0  0  0  0  0  0  0  0  0  0  0
   10.9703   -4.0369    0.0000 H   0  0  0  0  0  0  0  0  0  0  0  0
   12.0823   -4.0369    0.0000 H   0  0  0  0  0  0  0  0  0  0  0  0
   12.9292   -3.8100    0.0000 H   0  0  0  0  0  0  0  0  0  0  0  0
   12.7023   -2.9631    0.0000 H   0  0  0  0  0  0  0  0  0  0  0  0
   12.3923   -0.8800    0.0000 H   0  0  0  0  0  0  0  0  0  0  0  0
    3.3335   -0.9749    0.0000 H   0  0  0  0  0  0  0  0  0  0  0  0
    4.1306   -0.9749    0.0000 H   0  0  0  0  0  0  0  0  0  0  0  0
    3.1760    0.5369    0.0000 H   0  0  0  0  0  0  0  0  0  0  0  0
    2.3291    0.3100    0.0000 H   0  0  0  0  0  0  0  0  0  0  0  0
    2.5560   -0.5369    0.0000 H   0  0  0  0  0  0  0  0  0  0  0  0
    4.2690    2.8100    0.0000 H   0  0  0  0  0  0  0  0  0  0  0  0
    2.2554    3.1077    0.0000 H   0  0  0  0  0  0  0  0  0  0  0  0
    2.6540    2.4174    0.0000 H   0  0  0  0  0  0  0  0  0  0  0  0
   13.5874   -0.1900    0.0000 H   0  0  0  0  0  0  0  0  0  0  0  0
    3.4766    3.8923    0.0000 H   0  0  0  0  0  0  0  0  0  0  0  0
    3.0781    4.5826    0.0000 H   0  0  0  0  0  0  0  0  0  0  0  0
    2.3100    5.0369    0.0000 H   0  0  0  0  0  0  0  0  0  0  0  0
    1.4631    4.8100    0.0000 H   0  0  0  0  0  0  0  0  0  0  0  0
    1.6900    3.9631    0.0000 H   0  0  0  0  0  0  0  0  0  0  0  0
   16.3933   -1.8100    0.0000 H   0  0  0  0  0  0  0  0  0  0  0  0
   16.3933   -0.1900    0.0000 H   0  0  0  0  0  0  0  0  0  0  0  0
  1 19  2  0  0  0  0
  2 22  2  0  0  0  0
  3 23  2  0  0  0  0
  4 32  2  0  0  0  0
  5 33  2  0  0  0  0
  6 35  2  0  0  0  0
 15  7  1  1  0  0  0
  7 19  1  0  0  0  0
  7 49  1  0  0  0  0
 14  8  1  6  0  0  0
  8 23  1  0  0  0  0
  8 51  1  0  0  0  0
  9 22  1  0  0  0  0
 28  9  1  1  0  0  0
  9 66  1  0  0  0  0
 20 10  1  1  0  0  0
 10 33  1  0  0  0  0
 10 73  1  0  0  0  0
 11 35  1  0  0  0  0
 11 37  1  0  0  0  0
 11 79  1  0  0  0  0
 12 36  2  0  0  0  0
 12 41  1  0  0  0  0
 13 38  2  0  0  0  0
 13 42  1  0  0  0  0
 14 16  1  0  0  0  0
 14 19  1  0  0  0  0
 14 43  1  0  0  0  0
 15 17  1  0  0  0  0
 15 22  1  0  0  0  0
 15 44  1  0  0  0  0
 16 24  1  0  0  0  0
 16 25  1  0  0  0  0
 16 45  1  0  0  0  0
 17 18  1  0  0  0  0
 17 46  1  0  0  0  0
 17 47  1  0  0  0  0
 18 26  1  0  0  0  0
 18 27  1  0  0  0  0
 18 48  1  0  0  0  0
 20 21  1  0  0  0  0
 20 23  1  0  0  0  0
 20 50  1  0  0  0  0
 21 29  1  0  0  0  0
 21 30  1  0  0  0  0
 21 52  1  0  0  0  0
 24 53  1  0  0  0  0
 24 54  1  0  0  0  0
 24 55  1  0  0  0  0
 25 56  1  0  0  0  0
 25 57  1  0  0  0  0
 25 58  1  0  0  0  0
 26 59  1  0  0  0  0
 26 60  1  0  0  0  0
 26 61  1  0  0  0  0
 27 62  1  0  0  0  0
 27 63  1  0  0  0  0
 27 64  1  0  0  0  0
 28 31  1  0  0  0  0
 28 32  1  0  0  0  0
 28 65  1  0  0  0  0
 29 67  1  0  0  0  0
 29 68  1  0  0  0  0
 29 69  1  0  0  0  0
 30 70  1  0  0  0  0
 30 71  1  0  0  0  0
 30 72  1  0  0  0  0
 31 34  1  0  0  0  0
 31 74  1  0  0  0  0
 31 75  1  0  0  0  0
 32 35  1  0  0  0  0
 33 36  1  0  0  0  0
 34 76  1  0  0  0  0
 34 77  1  0  0  0  0
 34 78  1  0  0  0  0
 36 38  1  0  0  0  0
 37 39  1  0  0  0  0
 37 80  1  0  0  0  0
 37 81  1  0  0  0  0
 38 82  1  0  0  0  0
 39 40  1  0  0  0  0
 39 83  1  0  0  0  0
 39 84  1  0  0  0  0
 40 85  1  0  0  0  0
 40 86  1  0  0  0  0
 40 87  1  0  0  0  0
 41 42  2  0  0  0  0
 41 88  1  0  0  0  0
 42 89  1  0  0  0  0
M  END
> <PUBCHEM_COMPOUND_CID>
506743
> <PUBCHEM_COMPOUND_CANONICALIZED>
1
> <PUBCHEM_CACTVS_COMPLEXITY>
939
> <PUBCHEM_CACTVS_HBOND_ACCEPTOR>
8
> <PUBCHEM_CACTVS_HBOND_DONOR>
5
> <PUBCHEM_CACTVS_ROTATABLE_BOND>
17
> <PUBCHEM_CACTVS_SUBSKEYS>
AAADcfB7uAAAAAAAAAAAAAAAAAAAAAAAAAAsAAAAAAAAAAABgAAAHgAQAAAADSzBlgQugBLIEACoAZV3VACAgCQXEiAIUIG4dEAAQFpAwCAUAIgAFgDAAMAYAAAMAAAAAAAAAAAAAAAAAAAAAAAAAAAAAA==
> <PUBCHEM_IUPAC_OPENEYE_NAME>
N-[(1S)-1-[[(1S)-1-[[(1S)-1-[[(1S)-1-ethyl-2,3-dioxo-3-(propylamino)propyl]carbamoyl]-3-methyl-butyl]carbamoyl]-2-methyl-propyl]carbamoyl]-2-methyl-propyl]pyrazine-2-carboxamide
> <PUBCHEM_IUPAC_CAS_NAME>
N-[(2S)-1-[[(2S)-1-[[(2S)-1-[[(3S)-1,2-dioxo-1-(propylamino)pentan-3-yl]amino]-4-methyl-1-oxopentan-2-yl]amino]-3-methyl-1-oxobutan-2-yl]amino]-3-methyl-1-oxobutan-2-yl]-2-pyrazinecarboxamide
> <PUBCHEM_IUPAC_NAME_MARKUP>
<I>N</I>-[(2<I>S</I>)-1-[[(2<I>S</I>)-1-[[(2<I>S</I>)-1-[[(3<I>S</I>)-1,2-dioxo-1-(propylamino)pentan-3-yl]amino]-4-methyl-1-oxopentan-2-yl]amino]-3-methyl-1-oxobutan-2-yl]amino]-3-methyl-1-oxobutan-2-yl]pyrazine-2-carboxamide
> <PUBCHEM_IUPAC_NAME>
N-[(2S)-1-[[(2S)-1-[[(2S)-1-[[(3S)-1,2-dioxo-1-(propylamino)pentan-3-yl]amino]-4-methyl-1-oxopentan-2-yl]amino]-3-methyl-1-oxobutan-2-yl]amino]-3-methyl-1-oxobutan-2-yl]pyrazine-2-carboxamide
> <PUBCHEM_IUPAC_SYSTEMATIC_NAME>
N-[(2S)-1-[[(2S)-1-[[(2S)-1-[[(3S)-1,2-bis(oxidanylidene)-1-(propylamino)pentan-3-yl]amino]-4-methyl-1-oxidanylidene-pentan-2-yl]amino]-3-methyl-1-oxidanylidene-butan-2-yl]amino]-3-methyl-1-oxidanylidene-butan-2-yl]pyrazine-2-carboxamide
> <PUBCHEM_IUPAC_TRADITIONAL_NAME>
N-[(1S)-1-[[(1S)-1-[[(1S)-1-[[(1S)-1-ethyl-2,3-diketo-3-(propylamino)propyl]carbamoyl]-3-methyl-butyl]carbamoyl]-2-methyl-propyl]carbamoyl]-2-methyl-propyl]pyrazinamide
> <PUBCHEM_IUPAC_INCHI>
InChI=1S/C29H47N7O6/c1-9-11-32-29(42)24(37)19(10-2)33-25(38)20(14-16(3)4)34-27(40)22(17(5)6)36-28(41)23(18(7)8)35-26(39)21-15-30-12-13-31-21/h12-13,15-20,22-23H,9-11,14H2,1-8H3,(H,32,42)(H,33,38)(H,34,40)(H,35,39)(H,36,41)/t19-,20-,22-,23-/m0/s1
> <PUBCHEM_IUPAC_INCHIKEY>
RVLZVWYXSVOYMU-SQOUVECCSA-N
> <PUBCHEM_XLOGP3_AA>
2.9
> <PUBCHEM_EXACT_MASS>
589.35878224
> <PUBCHEM_MOLECULAR_FORMULA>
C29H47N7O6
> <PUBCHEM_MOLECULAR_WEIGHT>
589.7
> <PUBCHEM_OPENEYE_CAN_SMILES>
CCCNC(=O)C(=O)C(CC)NC(=O)C(CC(C)C)NC(=O)C(C(C)C)NC(=O)C(C(C)C)NC(=O)C1=NC=CN=C1
> <PUBCHEM_OPENEYE_ISO_SMILES>
CCCNC(=O)C(=O)[C@H](CC)NC(=O)[C@H](CC(C)C)NC(=O)[C@H](C(C)C)NC(=O)[C@H](C(C)C)NC(=O)C1=NC=CN=C1
> <PUBCHEM_CACTVS_TPSA>
188
> <PUBCHEM_MONOISOTOPIC_WEIGHT>
589.35878224
> <PUBCHEM_TOTAL_CHARGE>
0
> <PUBCHEM_HEAVY_ATOM_COUNT>
42
> <PUBCHEM_ATOM_DEF_STEREO_COUNT>
4
> <PUBCHEM_ATOM_UDEF_STEREO_COUNT>
0
> <PUBCHEM_BOND_DEF_STEREO_COUNT>
0
> <PUBCHEM_BOND_UDEF_STEREO_COUNT>
0
> <PUBCHEM_ISOTOPIC_ATOM_COUNT>
0
> <PUBCHEM_COMPONENT_COUNT>
1
> <PUBCHEM_CACTVS_TAUTO_COUNT>
-1
> <PUBCHEM_COORDINATE_TYPE>
1
5
255
> <PUBCHEM_BONDANNOTATIONS>
20  10  5
12  36  8
12  41  8
13  38  8
13  42  8
36  38  8
41  42  8
15  7  5
14  8  6
28  9  5
$$$$
