506727
  -OEChem-10302200282D
118118  0     1  0  0  0  0  0999 V2000
    9.7942    2.9400    0.0000 O   0  0  0  0  0  0  0  0  0  0  0  0
    8.9282   -0.5600    0.0000 O   0  0  0  0  0  0  0  0  0  0  0  0
    6.3301    3.9400    0.0000 O   0  0  0  0  0  0  0  0  0  0  0  0
    8.9282   -1.5600    0.0000 O   0  0  0  0  0  0  0  0  0  0  0  0
    5.4641    4.4400    0.0000 O   0  0  0  0  0  0  0  0  0  0  0  0
    8.9282    7.4400    0.0000 O   0  0  0  0  0  0  0  0  0  0  0  0
    7.1962    7.4400    0.0000 O   0  0  0  0  0  0  0  0  0  0  0  0
    9.7942   -5.0600    0.0000 O   0  0  0  0  0  0  0  0  0  0  0  0
    2.8660    6.9400    0.0000 O   0  0  0  0  0  0  0  0  0  0  0  0
    2.8660    8.9400    0.0000 O   0  0  0  0  0  0  0  0  0  0  0  0
    4.5981    8.9400    0.0000 O   0  0  0  0  0  0  0  0  0  0  0  0
    7.1962   -4.5600    0.0000 O   0  0  0  0  0  0  0  0  0  0  0  0
    8.9282    1.4400    0.0000 N   0  0  0  0  0  0  0  0  0  0  0  0
   10.6603   -0.5600    0.0000 N   0  0  0  0  0  0  0  0  0  0  0  0
    8.0622    3.9400    0.0000 N   0  0  0  0  0  0  0  0  0  0  0  0
    9.7942   -3.0600    0.0000 N   0  0  0  0  0  0  0  0  0  0  0  0
    3.7320    5.4400    0.0000 N   0  0  0  0  0  0  0  0  0  0  0  0
    8.0622   -6.0600    0.0000 N   0  0  0  0  0  0  0  0  0  0  0  0
    9.7942    0.9400    0.0000 C   0  0  1  0  0  0  0  0  0  0  0  0
    8.0622    2.9400    0.0000 C   0  0  1  0  0  0  0  0  0  0  0  0
   10.6603    1.4400    0.0000 C   0  0  0  0  0  0  0  0  0  0  0  0
    7.1962    2.4400    0.0000 C   0  0  0  0  0  0  0  0  0  0  0  0
   10.6603   -1.5600    0.0000 C   0  0  1  0  0  0  0  0  0  0  0  0
   11.5263   -2.0600    0.0000 C   0  0  0  0  0  0  0  0  0  0  0  0
    8.9282    2.4400    0.0000 C   0  0  0  0  0  0  0  0  0  0  0  0
   12.3923   -1.5600    0.0000 C   0  0  0  0  0  0  0  0  0  0  0  0
    9.7942   -0.0600    0.0000 C   0  0  0  0  0  0  0  0  0  0  0  0
    7.1962    5.4400    0.0000 C   0  0  1  0  0  0  0  0  0  0  0  0
    6.3301    5.9400    0.0000 C   0  0  0  0  0  0  0  0  0  0  0  0
    7.1962    4.4400    0.0000 C   0  0  0  0  0  0  0  0  0  0  0  0
   10.6603    2.4400    0.0000 C   0  0  0  0  0  0  0  0  0  0  0  0
   11.5263    0.9400    0.0000 C   0  0  0  0  0  0  0  0  0  0  0  0
    6.3301    2.9400    0.0000 C   0  0  0  0  0  0  0  0  0  0  0  0
    7.1962    1.4400    0.0000 C   0  0  0  0  0  0  0  0  0  0  0  0
    9.7942   -2.0600    0.0000 C   0  0  0  0  0  0  0  0  0  0  0  0
    8.0622    5.9400    0.0000 C   0  0  0  0  0  0  0  0  0  0  0  0
    4.5981    5.9400    0.0000 C   0  0  2  0  0  0  0  0  0  0  0  0
   13.2583   -2.0600    0.0000 C   0  0  0  0  0  0  0  0  0  0  0  0
   12.3923   -0.5600    0.0000 C   0  0  0  0  0  0  0  0  0  0  0  0
    5.4641    5.4400    0.0000 C   0  0  0  0  0  0  0  0  0  0  0  0
    8.9282   -3.5600    0.0000 C   0  0  1  0  0  0  0  0  0  0  0  0
    4.5981    6.9400    0.0000 C   0  0  0  0  0  0  0  0  0  0  0  0
    8.0622   -3.0600    0.0000 C   0  0  0  0  0  0  0  0  0  0  0  0
    8.0622    6.9400    0.0000 C   0  0  0  0  0  0  0  0  0  0  0  0
    3.7320    7.4400    0.0000 C   0  0  0  0  0  0  0  0  0  0  0  0
    8.9282   -4.5600    0.0000 C   0  0  0  0  0  0  0  0  0  0  0  0
    8.0622   -2.0600    0.0000 C   0  0  0  0  0  0  0  0  0  0  0  0
    2.8660    5.9400    0.0000 C   0  0  0  0  0  0  0  0  0  0  0  0
    3.7320    8.4400    0.0000 C   0  0  0  0  0  0  0  0  0  0  0  0
    8.0622   -5.0600    0.0000 C   0  0  0  0  0  0  0  0  0  0  0  0
    2.0000    5.4400    0.0000 C   0  0  0  0  0  0  0  0  0  0  0  0
    7.1962   -6.5600    0.0000 C   0  0  0  0  0  0  0  0  0  0  0  0
    7.1962   -7.5600    0.0000 C   0  0  0  0  0  0  0  0  0  0  0  0
    8.0622   -8.0600    0.0000 C   0  0  0  0  0  0  0  0  0  0  0  0
    6.3301   -8.0600    0.0000 C   0  0  0  0  0  0  0  0  0  0  0  0
    8.0622   -9.0600    0.0000 C   0  0  0  0  0  0  0  0  0  0  0  0
    6.3301   -9.0600    0.0000 C   0  0  0  0  0  0  0  0  0  0  0  0
    7.1962   -9.5600    0.0000 C   0  0  0  0  0  0  0  0  0  0  0  0
    9.2573    0.6300    0.0000 H   0  0  0  0  0  0  0  0  0  0  0  0
    7.5252    3.2500    0.0000 H   0  0  0  0  0  0  0  0  0  0  0  0
   11.1972    1.7500    0.0000 H   0  0  0  0  0  0  0  0  0  0  0  0
    6.6592    2.1300    0.0000 H   0  0  0  0  0  0  0  0  0  0  0  0
   11.1972   -1.2500    0.0000 H   0  0  0  0  0  0  0  0  0  0  0  0
   11.1278   -2.5349    0.0000 H   0  0  0  0  0  0  0  0  0  0  0  0
   11.9248   -2.5349    0.0000 H   0  0  0  0  0  0  0  0  0  0  0  0
    8.3913    1.1300    0.0000 H   0  0  0  0  0  0  0  0  0  0  0  0
   11.8554   -1.2500    0.0000 H   0  0  0  0  0  0  0  0  0  0  0  0
    7.7331    5.1300    0.0000 H   0  0  0  0  0  0  0  0  0  0  0  0
   11.1972   -0.2500    0.0000 H   0  0  0  0  0  0  0  0  0  0  0  0
    8.5991    4.2500    0.0000 H   0  0  0  0  0  0  0  0  0  0  0  0
    6.7287    6.4150    0.0000 H   0  0  0  0  0  0  0  0  0  0  0  0
    5.9316    6.4150    0.0000 H   0  0  0  0  0  0  0  0  0  0  0  0
   11.2803    2.4400    0.0000 H   0  0  0  0  0  0  0  0  0  0  0  0
   10.6603    3.0600    0.0000 H   0  0  0  0  0  0  0  0  0  0  0  0
   10.0403    2.4400    0.0000 H   0  0  0  0  0  0  0  0  0  0  0  0
   11.2163    0.4031    0.0000 H   0  0  0  0  0  0  0  0  0  0  0  0
   12.0632    0.6300    0.0000 H   0  0  0  0  0  0  0  0  0  0  0  0
   11.8363    1.4769    0.0000 H   0  0  0  0  0  0  0  0  0  0  0  0
    6.6401    3.4769    0.0000 H   0  0  0  0  0  0  0  0  0  0  0  0
    5.7932    3.2500    0.0000 H   0  0  0  0  0  0  0  0  0  0  0  0
    6.0201    2.4031    0.0000 H   0  0  0  0  0  0  0  0  0  0  0  0
    6.5762    1.4400    0.0000 H   0  0  0  0  0  0  0  0  0  0  0  0
    7.1962    0.8200    0.0000 H   0  0  0  0  0  0  0  0  0  0  0  0
    7.8162    1.4400    0.0000 H   0  0  0  0  0  0  0  0  0  0  0  0
    8.2742    5.3574    0.0000 H   0  0  0  0  0  0  0  0  0  0  0  0
    8.6728    6.0477    0.0000 H   0  0  0  0  0  0  0  0  0  0  0  0
    4.5981    5.3200    0.0000 H   0  0  0  0  0  0  0  0  0  0  0  0
   12.9483   -2.5969    0.0000 H   0  0  0  0  0  0  0  0  0  0  0  0
   13.7953   -2.3700    0.0000 H   0  0  0  0  0  0  0  0  0  0  0  0
   13.5683   -1.5231    0.0000 H   0  0  0  0  0  0  0  0  0  0  0  0
   13.0123   -0.5600    0.0000 H   0  0  0  0  0  0  0  0  0  0  0  0
   12.3923    0.0600    0.0000 H   0  0  0  0  0  0  0  0  0  0  0  0
   11.7723   -0.5600    0.0000 H   0  0  0  0  0  0  0  0  0  0  0  0
   10.3312   -3.3700    0.0000 H   0  0  0  0  0  0  0  0  0  0  0  0
    9.4651   -3.8700    0.0000 H   0  0  0  0  0  0  0  0  0  0  0  0
    5.2087    6.8323    0.0000 H   0  0  0  0  0  0  0  0  0  0  0  0
    4.8101    7.5226    0.0000 H   0  0  0  0  0  0  0  0  0  0  0  0
    7.4516   -2.9523    0.0000 H   0  0  0  0  0  0  0  0  0  0  0  0
    7.8501   -3.6426    0.0000 H   0  0  0  0  0  0  0  0  0  0  0  0
    3.7320    4.8200    0.0000 H   0  0  0  0  0  0  0  0  0  0  0  0
    3.1215    7.5477    0.0000 H   0  0  0  0  0  0  0  0  0  0  0  0
    3.5200    6.8574    0.0000 H   0  0  0  0  0  0  0  0  0  0  0  0
    8.6822   -2.0600    0.0000 H   0  0  0  0  0  0  0  0  0  0  0  0
    8.0622   -1.4400    0.0000 H   0  0  0  0  0  0  0  0  0  0  0  0
    7.4422   -2.0600    0.0000 H   0  0  0  0  0  0  0  0  0  0  0  0
    8.9282    8.0600    0.0000 H   0  0  0  0  0  0  0  0  0  0  0  0
    1.6900    5.9769    0.0000 H   0  0  0  0  0  0  0  0  0  0  0  0
    1.4631    5.1300    0.0000 H   0  0  0  0  0  0  0  0  0  0  0  0
    2.3100    4.9031    0.0000 H   0  0  0  0  0  0  0  0  0  0  0  0
    8.5991   -6.3700    0.0000 H   0  0  0  0  0  0  0  0  0  0  0  0
    6.9841   -5.9774    0.0000 H   0  0  0  0  0  0  0  0  0  0  0  0
    6.5856   -6.6677    0.0000 H   0  0  0  0  0  0  0  0  0  0  0  0
    2.8660    9.5600    0.0000 H   0  0  0  0  0  0  0  0  0  0  0  0
    8.5991   -7.7500    0.0000 H   0  0  0  0  0  0  0  0  0  0  0  0
    5.7932   -7.7500    0.0000 H   0  0  0  0  0  0  0  0  0  0  0  0
    8.5991   -9.3700    0.0000 H   0  0  0  0  0  0  0  0  0  0  0  0
    5.7932   -9.3700    0.0000 H   0  0  0  0  0  0  0  0  0  0  0  0
    7.1962  -10.1800    0.0000 H   0  0  0  0  0  0  0  0  0  0  0  0
  1 25  2  0  0  0  0
  2 27  2  0  0  0  0
  3 30  2  0  0  0  0
  4 35  2  0  0  0  0
  5 40  2  0  0  0  0
  6 44  1  0  0  0  0
  6106  1  0  0  0  0
  7 44  2  0  0  0  0
  8 46  2  0  0  0  0
  9 48  2  0  0  0  0
 10 49  1  0  0  0  0
 10113  1  0  0  0  0
 11 49  2  0  0  0  0
 12 50  2  0  0  0  0
 19 13  1  1  0  0  0
 13 25  1  0  0  0  0
 13 66  1  0  0  0  0
 23 14  1  1  0  0  0
 14 27  1  0  0  0  0
 14 69  1  0  0  0  0
 20 15  1  6  0  0  0
 15 30  1  0  0  0  0
 15 70  1  0  0  0  0
 16 35  1  0  0  0  0
 41 16  1  6  0  0  0
 16 94  1  0  0  0  0
 37 17  1  1  0  0  0
 17 48  1  0  0  0  0
 17100  1  0  0  0  0
 18 50  1  0  0  0  0
 18 52  1  0  0  0  0
 18110  1  0  0  0  0
 19 21  1  0  0  0  0
 19 27  1  0  0  0  0
 19 59  1  0  0  0  0
 20 22  1  0  0  0  0
 20 25  1  0  0  0  0
 20 60  1  0  0  0  0
 21 31  1  0  0  0  0
 21 32  1  0  0  0  0
 21 61  1  0  0  0  0
 22 33  1  0  0  0  0
 22 34  1  0  0  0  0
 22 62  1  0  0  0  0
 23 24  1  0  0  0  0
 23 35  1  0  0  0  0
 23 63  1  0  0  0  0
 24 26  1  0  0  0  0
 24 64  1  0  0  0  0
 24 65  1  0  0  0  0
 26 38  1  0  0  0  0
 26 39  1  0  0  0  0
 26 67  1  0  0  0  0
 28 29  1  0  0  0  0
 28 30  1  0  0  0  0
 28 36  1  6  0  0  0
 28 68  1  0  0  0  0
 29 40  1  0  0  0  0
 29 71  1  0  0  0  0
 29 72  1  0  0  0  0
 31 73  1  0  0  0  0
 31 74  1  0  0  0  0
 31 75  1  0  0  0  0
 32 76  1  0  0  0  0
 32 77  1  0  0  0  0
 32 78  1  0  0  0  0
 33 79  1  0  0  0  0
 33 80  1  0  0  0  0
 33 81  1  0  0  0  0
 34 82  1  0  0  0  0
 34 83  1  0  0  0  0
 34 84  1  0  0  0  0
 36 44  1  0  0  0  0
 36 85  1  0  0  0  0
 36 86  1  0  0  0  0
 37 40  1  0  0  0  0
 37 42  1  0  0  0  0
 37 87  1  0  0  0  0
 38 88  1  0  0  0  0
 38 89  1  0  0  0  0
 38 90  1  0  0  0  0
 39 91  1  0  0  0  0
 39 92  1  0  0  0  0
 39 93  1  0  0  0  0
 41 43  1  0  0  0  0
 41 46  1  0  0  0  0
 41 95  1  0  0  0  0
 42 45  1  0  0  0  0
 42 96  1  0  0  0  0
 42 97  1  0  0  0  0
 43 47  1  0  0  0  0
 43 98  1  0  0  0  0
 43 99  1  0  0  0  0
 45 49  1  0  0  0  0
 45101  1  0  0  0  0
 45102  1  0  0  0  0
 46 50  1  0  0  0  0
 47103  1  0  0  0  0
 47104  1  0  0  0  0
 47105  1  0  0  0  0
 48 51  1  0  0  0  0
 51107  1  0  0  0  0
 51108  1  0  0  0  0
 51109  1  0  0  0  0
 52 53  1  0  0  0  0
 52111  1  0  0  0  0
 52112  1  0  0  0  0
 53 54  2  0  0  0  0
 53 55  1  0  0  0  0
 54 56  1  0  0  0  0
 54114  1  0  0  0  0
 55 57  2  0  0  0  0
 55115  1  0  0  0  0
 56 58  2  0  0  0  0
 56116  1  0  0  0  0
 57 58  1  0  0  0  0
 57117  1  0  0  0  0
 58118  1  0  0  0  0
M  END
> <PUBCHEM_COMPOUND_CID>
506727
> <PUBCHEM_COMPOUND_CANONICALIZED>
1
> <PUBCHEM_CACTVS_COMPLEXITY>
1480
> <PUBCHEM_CACTVS_HBOND_ACCEPTOR>
12
> <PUBCHEM_CACTVS_HBOND_DONOR>
8
> <PUBCHEM_CACTVS_ROTATABLE_BOND>
26
> <PUBCHEM_CACTVS_SUBSKEYS>
AAADcfB/vAAAAAAAAAAAAAAAAAAAAAAAAAAwAAAAAAAAAAABAAAAHgAQCAAADSzBmAQyCILAAgCIAqHSGACCAAAgAAAIiIGIBIgIYDqA0TGUYAhklgCIiAe/z+C+AAAAAAAAAAAAAAAAAAAAAAAAAAAAAA==
> <PUBCHEM_IUPAC_OPENEYE_NAME>
(3R,6S)-6-acetamido-3-[[(1S)-1-[[(1S)-1-[[(1S)-1-[[(1S)-3-(benzylamino)-1-ethyl-2,3-dioxo-propyl]carbamoyl]-3-methyl-butyl]carbamoyl]-2-methyl-propyl]carbamoyl]-2-methyl-propyl]carbamoyl]-5-oxo-nonanedioic acid
> <PUBCHEM_IUPAC_CAS_NAME>
(3R,6S)-6-acetamido-3-[[[(2S)-1-[[(2S)-1-[[(2S)-1-[[(3S)-1,2-dioxo-1-[(phenylmethyl)amino]pentan-3-yl]amino]-4-methyl-1-oxopentan-2-yl]amino]-3-methyl-1-oxobutan-2-yl]amino]-3-methyl-1-oxobutan-2-yl]amino]-oxomethyl]-5-oxononanedioic acid
> <PUBCHEM_IUPAC_NAME_MARKUP>
(3<I>R</I>,6<I>S</I>)-6-acetamido-3-[[(2<I>S</I>)-1-[[(2<I>S</I>)-1-[[(2<I>S</I>)-1-[[(3<I>S</I>)-1-(benzylamino)-1,2-dioxopentan-3-yl]amino]-4-methyl-1-oxopentan-2-yl]amino]-3-methyl-1-oxobutan-2-yl]amino]-3-methyl-1-oxobutan-2-yl]carbamoyl]-5-oxononanedioic acid
> <PUBCHEM_IUPAC_NAME>
(3R,6S)-6-acetamido-3-[[(2S)-1-[[(2S)-1-[[(2S)-1-[[(3S)-1-(benzylamino)-1,2-dioxopentan-3-yl]amino]-4-methyl-1-oxopentan-2-yl]amino]-3-methyl-1-oxobutan-2-yl]amino]-3-methyl-1-oxobutan-2-yl]carbamoyl]-5-oxononanedioic acid
> <PUBCHEM_IUPAC_SYSTEMATIC_NAME>
(3R,6S)-6-acetamido-3-[[(2S)-1-[[(2S)-1-[[(2S)-1-[[(3S)-1,2-bis(oxidanylidene)-1-[(phenylmethyl)amino]pentan-3-yl]amino]-4-methyl-1-oxidanylidene-pentan-2-yl]amino]-3-methyl-1-oxidanylidene-butan-2-yl]amino]-3-methyl-1-oxidanylidene-butan-2-yl]carbamoyl]-5-oxidanylidene-nonanedioic acid
> <PUBCHEM_IUPAC_TRADITIONAL_NAME>
(3R,6S)-6-acetamido-3-[[(1S)-1-[[(1S)-1-[[(1S)-1-[[(1S)-3-(benzylamino)-1-ethyl-2,3-diketo-propyl]carbamoyl]-3-methyl-butyl]carbamoyl]-2-methyl-propyl]carbamoyl]-2-methyl-propyl]carbamoyl]-5-keto-azelaic acid
> <PUBCHEM_IUPAC_INCHI>
InChI=1S/C40H60N6O12/c1-9-27(35(53)40(58)41-20-25-13-11-10-12-14-25)43-37(55)29(17-21(2)3)44-38(56)33(22(4)5)46-39(57)34(23(6)7)45-36(54)26(19-32(51)52)18-30(48)28(42-24(8)47)15-16-31(49)50/h10-14,21-23,26-29,33-34H,9,15-20H2,1-8H3,(H,41,58)(H,42,47)(H,43,55)(H,44,56)(H,45,54)(H,46,57)(H,49,50)(H,51,52)/t26-,27+,28+,29+,33+,34+/m1/s1
> <PUBCHEM_IUPAC_INCHIKEY>
YPQSODCHXXUERQ-QZIWPALXSA-N
> <PUBCHEM_XLOGP3_AA>
2
> <PUBCHEM_EXACT_MASS>
816.42692137
> <PUBCHEM_MOLECULAR_FORMULA>
C40H60N6O12
> <PUBCHEM_MOLECULAR_WEIGHT>
816.9
> <PUBCHEM_OPENEYE_CAN_SMILES>
CCC(C(=O)C(=O)NCC1=CC=CC=C1)NC(=O)C(CC(C)C)NC(=O)C(C(C)C)NC(=O)C(C(C)C)NC(=O)C(CC(=O)C(CCC(=O)O)NC(=O)C)CC(=O)O
> <PUBCHEM_OPENEYE_ISO_SMILES>
CC[C@@H](C(=O)C(=O)NCC1=CC=CC=C1)NC(=O)[C@H](CC(C)C)NC(=O)[C@H](C(C)C)NC(=O)[C@H](C(C)C)NC(=O)[C@H](CC(=O)[C@H](CCC(=O)O)NC(=O)C)CC(=O)O
> <PUBCHEM_CACTVS_TPSA>
283
> <PUBCHEM_MONOISOTOPIC_WEIGHT>
816.42692137
> <PUBCHEM_TOTAL_CHARGE>
0
> <PUBCHEM_HEAVY_ATOM_COUNT>
58
> <PUBCHEM_ATOM_DEF_STEREO_COUNT>
6
> <PUBCHEM_ATOM_UDEF_STEREO_COUNT>
0
> <PUBCHEM_BOND_DEF_STEREO_COUNT>
0
> <PUBCHEM_BOND_UDEF_STEREO_COUNT>
0
> <PUBCHEM_ISOTOPIC_ATOM_COUNT>
0
> <PUBCHEM_COMPONENT_COUNT>
1
> <PUBCHEM_CACTVS_TAUTO_COUNT>
-1
> <PUBCHEM_COORDINATE_TYPE>
1
5
255
> <PUBCHEM_BONDANNOTATIONS>
19  13  5
23  14  5
20  15  6
41  16  6
37  17  5
28  36  6
53  54  8
53  55  8
54  56  8
55  57  8
56  58  8
57  58  8
$$$$
