506730
  -OEChem-10302200282D
114113  0     1  0  0  0  0  0999 V2000
   11.1972    0.2500    0.0000 O   0  0  0  0  0  0  0  0  0  0  0  0
   13.7953   -2.2500    0.0000 O   0  0  0  0  0  0  0  0  0  0  0  0
    8.5991   -2.2500    0.0000 O   0  0  0  0  0  0  0  0  0  0  0  0
   17.2594   -1.2500    0.0000 O   0  0  0  0  0  0  0  0  0  0  0  0
    7.7331   -2.7500    0.0000 O   0  0  0  0  0  0  0  0  0  0  0  0
    6.8671    1.7500    0.0000 O   0  0  0  0  0  0  0  0  0  0  0  0
    6.0010    0.2500    0.0000 O   0  0  0  0  0  0  0  0  0  0  0  0
   16.3933    2.2500    0.0000 O   0  0  0  0  0  0  0  0  0  0  0  0
    4.2690   -3.7500    0.0000 O   0  0  0  0  0  0  0  0  0  0  0  0
    2.5369   -2.7500    0.0000 O   0  0  0  0  0  0  0  0  0  0  0  0
    3.4030   -1.2500    0.0000 O   0  0  0  0  0  0  0  0  0  0  0  0
   18.9914    1.7500    0.0000 O   0  0  0  0  0  0  0  0  0  0  0  0
   12.0632   -1.2500    0.0000 N   0  0  0  0  0  0  0  0  0  0  0  0
   14.6613   -0.7500    0.0000 N   0  0  0  0  0  0  0  0  0  0  0  0
    9.4651   -0.7500    0.0000 N   0  0  0  0  0  0  0  0  0  0  0  0
   16.3933    0.2500    0.0000 N   0  0  0  0  0  0  0  0  0  0  0  0
    6.0010   -3.7500    0.0000 N   0  0  0  0  0  0  0  0  0  0  0  0
   18.1254    3.2500    0.0000 N   0  0  0  0  0  0  0  0  0  0  0  0
   12.9292   -0.7500    0.0000 C   0  0  1  0  0  0  0  0  0  0  0  0
   10.3312   -1.2500    0.0000 C   0  0  1  0  0  0  0  0  0  0  0  0
   12.9292    0.2500    0.0000 C   0  0  0  0  0  0  0  0  0  0  0  0
   10.3312   -2.2500    0.0000 C   0  0  0  0  0  0  0  0  0  0  0  0
   15.5273   -1.2500    0.0000 C   0  0  1  0  0  0  0  0  0  0  0  0
   15.5273   -2.2500    0.0000 C   0  0  0  0  0  0  0  0  0  0  0  0
   11.1972   -0.7500    0.0000 C   0  0  0  0  0  0  0  0  0  0  0  0
   16.3933   -2.7500    0.0000 C   0  0  0  0  0  0  0  0  0  0  0  0
   13.7953   -1.2500    0.0000 C   0  0  0  0  0  0  0  0  0  0  0  0
    7.7331   -0.7500    0.0000 C   0  0  2  0  0  0  0  0  0  0  0  0
    6.8671   -1.2500    0.0000 C   0  0  0  0  0  0  0  0  0  0  0  0
    8.5991   -1.2500    0.0000 C   0  0  0  0  0  0  0  0  0  0  0  0
   13.7953    0.7500    0.0000 C   0  0  0  0  0  0  0  0  0  0  0  0
   12.0632    0.7500    0.0000 C   0  0  0  0  0  0  0  0  0  0  0  0
    9.4651   -2.7500    0.0000 C   0  0  0  0  0  0  0  0  0  0  0  0
   11.1972   -2.7500    0.0000 C   0  0  0  0  0  0  0  0  0  0  0  0
   16.3933   -0.7500    0.0000 C   0  0  0  0  0  0  0  0  0  0  0  0
    7.7331    0.2500    0.0000 C   0  0  0  0  0  0  0  0  0  0  0  0
    6.0010   -2.7500    0.0000 C   0  0  2  0  0  0  0  0  0  0  0  0
   16.3933   -3.7500    0.0000 C   0  0  0  0  0  0  0  0  0  0  0  0
   17.2594   -2.2500    0.0000 C   0  0  0  0  0  0  0  0  0  0  0  0
    6.8671   -2.2500    0.0000 C   0  0  0  0  0  0  0  0  0  0  0  0
   17.2594    0.7500    0.0000 C   0  0  1  0  0  0  0  0  0  0  0  0
    5.1350   -2.2500    0.0000 C   0  0  0  0  0  0  0  0  0  0  0  0
   18.1254    0.2500    0.0000 C   0  0  0  0  0  0  0  0  0  0  0  0
    6.8671    0.7500    0.0000 C   0  0  0  0  0  0  0  0  0  0  0  0
    4.2690   -2.7500    0.0000 C   0  0  0  0  0  0  0  0  0  0  0  0
   17.2594    1.7500    0.0000 C   0  0  0  0  0  0  0  0  0  0  0  0
   18.9914    0.7500    0.0000 C   0  0  0  0  0  0  0  0  0  0  0  0
    5.1350   -4.2500    0.0000 C   0  0  0  0  0  0  0  0  0  0  0  0
    3.4030   -2.2500    0.0000 C   0  0  0  0  0  0  0  0  0  0  0  0
   18.1254    2.2500    0.0000 C   0  0  0  0  0  0  0  0  0  0  0  0
    5.1350   -5.2500    0.0000 C   0  0  0  0  0  0  0  0  0  0  0  0
   18.9914    3.7500    0.0000 C   0  0  0  0  0  0  0  0  0  0  0  0
   18.9914    4.7500    0.0000 C   0  0  0  0  0  0  0  0  0  0  0  0
   19.8574    5.2500    0.0000 C   0  0  0  0  0  0  0  0  0  0  0  0
   12.9292   -1.3700    0.0000 H   0  0  0  0  0  0  0  0  0  0  0  0
    9.7942   -1.5600    0.0000 H   0  0  0  0  0  0  0  0  0  0  0  0
   12.3923   -0.0600    0.0000 H   0  0  0  0  0  0  0  0  0  0  0  0
   10.8681   -1.9400    0.0000 H   0  0  0  0  0  0  0  0  0  0  0  0
   15.5273   -0.6300    0.0000 H   0  0  0  0  0  0  0  0  0  0  0  0
   14.9167   -2.1423    0.0000 H   0  0  0  0  0  0  0  0  0  0  0  0
   15.3153   -2.8326    0.0000 H   0  0  0  0  0  0  0  0  0  0  0  0
   12.0632   -1.8700    0.0000 H   0  0  0  0  0  0  0  0  0  0  0  0
   16.9303   -3.0600    0.0000 H   0  0  0  0  0  0  0  0  0  0  0  0
    8.2700   -0.4400    0.0000 H   0  0  0  0  0  0  0  0  0  0  0  0
   14.6613   -0.1300    0.0000 H   0  0  0  0  0  0  0  0  0  0  0  0
    9.4651   -0.1300    0.0000 H   0  0  0  0  0  0  0  0  0  0  0  0
    6.6550   -0.6674    0.0000 H   0  0  0  0  0  0  0  0  0  0  0  0
    6.2565   -1.3577    0.0000 H   0  0  0  0  0  0  0  0  0  0  0  0
   14.1053    0.2131    0.0000 H   0  0  0  0  0  0  0  0  0  0  0  0
   14.3322    1.0600    0.0000 H   0  0  0  0  0  0  0  0  0  0  0  0
   13.4853    1.2869    0.0000 H   0  0  0  0  0  0  0  0  0  0  0  0
   12.3732    1.2869    0.0000 H   0  0  0  0  0  0  0  0  0  0  0  0
   11.5263    1.0600    0.0000 H   0  0  0  0  0  0  0  0  0  0  0  0
   11.7532    0.2131    0.0000 H   0  0  0  0  0  0  0  0  0  0  0  0
    9.1551   -2.2131    0.0000 H   0  0  0  0  0  0  0  0  0  0  0  0
    8.9282   -3.0600    0.0000 H   0  0  0  0  0  0  0  0  0  0  0  0
    9.7751   -3.2869    0.0000 H   0  0  0  0  0  0  0  0  0  0  0  0
   10.8872   -3.2869    0.0000 H   0  0  0  0  0  0  0  0  0  0  0  0
   11.7341   -3.0600    0.0000 H   0  0  0  0  0  0  0  0  0  0  0  0
   11.5072   -2.2131    0.0000 H   0  0  0  0  0  0  0  0  0  0  0  0
    8.3437    0.1423    0.0000 H   0  0  0  0  0  0  0  0  0  0  0  0
    7.9451    0.8326    0.0000 H   0  0  0  0  0  0  0  0  0  0  0  0
    6.5380   -3.0600    0.0000 H   0  0  0  0  0  0  0  0  0  0  0  0
   15.7733   -3.7500    0.0000 H   0  0  0  0  0  0  0  0  0  0  0  0
   16.3933   -4.3700    0.0000 H   0  0  0  0  0  0  0  0  0  0  0  0
   17.0133   -3.7500    0.0000 H   0  0  0  0  0  0  0  0  0  0  0  0
   17.5694   -2.7869    0.0000 H   0  0  0  0  0  0  0  0  0  0  0  0
   17.7963   -1.9400    0.0000 H   0  0  0  0  0  0  0  0  0  0  0  0
   16.9494   -1.7131    0.0000 H   0  0  0  0  0  0  0  0  0  0  0  0
   15.8564    0.5600    0.0000 H   0  0  0  0  0  0  0  0  0  0  0  0
   16.7224    1.0600    0.0000 H   0  0  0  0  0  0  0  0  0  0  0  0
    5.5335   -1.7750    0.0000 H   0  0  0  0  0  0  0  0  0  0  0  0
    4.7365   -1.7750    0.0000 H   0  0  0  0  0  0  0  0  0  0  0  0
   17.7269   -0.2249    0.0000 H   0  0  0  0  0  0  0  0  0  0  0  0
   18.5239   -0.2249    0.0000 H   0  0  0  0  0  0  0  0  0  0  0  0
    6.5380   -4.0600    0.0000 H   0  0  0  0  0  0  0  0  0  0  0  0
    3.8705   -3.2250    0.0000 H   0  0  0  0  0  0  0  0  0  0  0  0
    4.6675   -3.2250    0.0000 H   0  0  0  0  0  0  0  0  0  0  0  0
   19.3014    0.2131    0.0000 H   0  0  0  0  0  0  0  0  0  0  0  0
   19.5284    1.0600    0.0000 H   0  0  0  0  0  0  0  0  0  0  0  0
   18.6814    1.2869    0.0000 H   0  0  0  0  0  0  0  0  0  0  0  0
    6.3301    2.0600    0.0000 H   0  0  0  0  0  0  0  0  0  0  0  0
    4.5150   -5.2500    0.0000 H   0  0  0  0  0  0  0  0  0  0  0  0
    5.1350   -5.8700    0.0000 H   0  0  0  0  0  0  0  0  0  0  0  0
    5.7550   -5.2500    0.0000 H   0  0  0  0  0  0  0  0  0  0  0  0
   17.5885    3.5600    0.0000 H   0  0  0  0  0  0  0  0  0  0  0  0
   19.2035    3.1674    0.0000 H   0  0  0  0  0  0  0  0  0  0  0  0
   19.6020    3.8577    0.0000 H   0  0  0  0  0  0  0  0  0  0  0  0
    2.0000   -2.4400    0.0000 H   0  0  0  0  0  0  0  0  0  0  0  0
   18.7794    5.3326    0.0000 H   0  0  0  0  0  0  0  0  0  0  0  0
   18.3808    4.6423    0.0000 H   0  0  0  0  0  0  0  0  0  0  0  0
   20.1674    4.7131    0.0000 H   0  0  0  0  0  0  0  0  0  0  0  0
   20.3944    5.5600    0.0000 H   0  0  0  0  0  0  0  0  0  0  0  0
   19.5474    5.7869    0.0000 H   0  0  0  0  0  0  0  0  0  0  0  0
  1 25  2  0  0  0  0
  2 27  2  0  0  0  0
  3 30  2  0  0  0  0
  4 35  2  0  0  0  0
  5 40  2  0  0  0  0
  6 44  1  0  0  0  0
  6102  1  0  0  0  0
  7 44  2  0  0  0  0
  8 46  2  0  0  0  0
  9 48  2  0  0  0  0
 10 49  1  0  0  0  0
 10109  1  0  0  0  0
 11 49  2  0  0  0  0
 12 50  2  0  0  0  0
 19 13  1  1  0  0  0
 13 25  1  0  0  0  0
 13 62  1  0  0  0  0
 23 14  1  6  0  0  0
 14 27  1  0  0  0  0
 14 65  1  0  0  0  0
 20 15  1  6  0  0  0
 15 30  1  0  0  0  0
 15 66  1  0  0  0  0
 16 35  1  0  0  0  0
 41 16  1  6  0  0  0
 16 90  1  0  0  0  0
 37 17  1  1  0  0  0
 17 48  1  0  0  0  0
 17 96  1  0  0  0  0
 18 50  1  0  0  0  0
 18 52  1  0  0  0  0
 18106  1  0  0  0  0
 19 21  1  0  0  0  0
 19 27  1  0  0  0  0
 19 55  1  0  0  0  0
 20 22  1  0  0  0  0
 20 25  1  0  0  0  0
 20 56  1  0  0  0  0
 21 31  1  0  0  0  0
 21 32  1  0  0  0  0
 21 57  1  0  0  0  0
 22 33  1  0  0  0  0
 22 34  1  0  0  0  0
 22 58  1  0  0  0  0
 23 24  1  0  0  0  0
 23 35  1  0  0  0  0
 23 59  1  0  0  0  0
 24 26  1  0  0  0  0
 24 60  1  0  0  0  0
 24 61  1  0  0  0  0
 26 38  1  0  0  0  0
 26 39  1  0  0  0  0
 26 63  1  0  0  0  0
 28 29  1  0  0  0  0
 28 30  1  0  0  0  0
 28 36  1  1  0  0  0
 28 64  1  0  0  0  0
 29 40  1  0  0  0  0
 29 67  1  0  0  0  0
 29 68  1  0  0  0  0
 31 69  1  0  0  0  0
 31 70  1  0  0  0  0
 31 71  1  0  0  0  0
 32 72  1  0  0  0  0
 32 73  1  0  0  0  0
 32 74  1  0  0  0  0
 33 75  1  0  0  0  0
 33 76  1  0  0  0  0
 33 77  1  0  0  0  0
 34 78  1  0  0  0  0
 34 79  1  0  0  0  0
 34 80  1  0  0  0  0
 36 44  1  0  0  0  0
 36 81  1  0  0  0  0
 36 82  1  0  0  0  0
 37 40  1  0  0  0  0
 37 42  1  0  0  0  0
 37 83  1  0  0  0  0
 38 84  1  0  0  0  0
 38 85  1  0  0  0  0
 38 86  1  0  0  0  0
 39 87  1  0  0  0  0
 39 88  1  0  0  0  0
 39 89  1  0  0  0  0
 41 43  1  0  0  0  0
 41 46  1  0  0  0  0
 41 91  1  0  0  0  0
 42 45  1  0  0  0  0
 42 92  1  0  0  0  0
 42 93  1  0  0  0  0
 43 47  1  0  0  0  0
 43 94  1  0  0  0  0
 43 95  1  0  0  0  0
 45 49  1  0  0  0  0
 45 97  1  0  0  0  0
 45 98  1  0  0  0  0
 46 50  1  0  0  0  0
 47 99  1  0  0  0  0
 47100  1  0  0  0  0
 47101  1  0  0  0  0
 48 51  1  0  0  0  0
 51103  1  0  0  0  0
 51104  1  0  0  0  0
 51105  1  0  0  0  0
 52 53  1  0  0  0  0
 52107  1  0  0  0  0
 52108  1  0  0  0  0
 53 54  1  0  0  0  0
 53110  1  0  0  0  0
 53111  1  0  0  0  0
 54112  1  0  0  0  0
 54113  1  0  0  0  0
 54114  1  0  0  0  0
M  END
> <PUBCHEM_COMPOUND_CID>
506730
> <PUBCHEM_COMPOUND_CANONICALIZED>
1
> <PUBCHEM_CACTVS_COMPLEXITY>
1370
> <PUBCHEM_CACTVS_HBOND_ACCEPTOR>
12
> <PUBCHEM_CACTVS_HBOND_DONOR>
8
> <PUBCHEM_CACTVS_ROTATABLE_BOND>
26
> <PUBCHEM_CACTVS_SUBSKEYS>
AAADcfB/vAAAAAAAAAAAAAAAAAAAAAAAAAAAAAAAAAAAAAAAAAAAHgAQCAAADSzBgAQCCALAAgAIAIGQGAAAAAAAAAAAAIGIAAAAQBoAwCAUQAAEFgCAAAG/z+C+AAAAAAAAAAAAAAAAAAAAAAAAAAAAAA==
> <PUBCHEM_IUPAC_OPENEYE_NAME>
(3S,6S)-6-acetamido-3-[[(1S)-1-[[(1S)-1-[[(1S)-1-[[(1S)-1-ethyl-2,3-dioxo-3-(propylamino)propyl]carbamoyl]-3-methyl-butyl]carbamoyl]-2-methyl-propyl]carbamoyl]-2-methyl-propyl]carbamoyl]-5-oxo-nonanedioic acid
> <PUBCHEM_IUPAC_CAS_NAME>
(3S,6S)-6-acetamido-3-[[[(2S)-1-[[(2S)-1-[[(2S)-1-[[(3S)-1,2-dioxo-1-(propylamino)pentan-3-yl]amino]-4-methyl-1-oxopentan-2-yl]amino]-3-methyl-1-oxobutan-2-yl]amino]-3-methyl-1-oxobutan-2-yl]amino]-oxomethyl]-5-oxononanedioic acid
> <PUBCHEM_IUPAC_NAME_MARKUP>
(3<I>S</I>,6<I>S</I>)-6-acetamido-3-[[(2<I>S</I>)-1-[[(2<I>S</I>)-1-[[(2<I>S</I>)-1-[[(3<I>S</I>)-1,2-dioxo-1-(propylamino)pentan-3-yl]amino]-4-methyl-1-oxopentan-2-yl]amino]-3-methyl-1-oxobutan-2-yl]amino]-3-methyl-1-oxobutan-2-yl]carbamoyl]-5-oxononanedioic acid
> <PUBCHEM_IUPAC_NAME>
(3S,6S)-6-acetamido-3-[[(2S)-1-[[(2S)-1-[[(2S)-1-[[(3S)-1,2-dioxo-1-(propylamino)pentan-3-yl]amino]-4-methyl-1-oxopentan-2-yl]amino]-3-methyl-1-oxobutan-2-yl]amino]-3-methyl-1-oxobutan-2-yl]carbamoyl]-5-oxononanedioic acid
> <PUBCHEM_IUPAC_SYSTEMATIC_NAME>
(3S,6S)-6-acetamido-3-[[(2S)-1-[[(2S)-1-[[(2S)-1-[[(3S)-1,2-bis(oxidanylidene)-1-(propylamino)pentan-3-yl]amino]-4-methyl-1-oxidanylidene-pentan-2-yl]amino]-3-methyl-1-oxidanylidene-butan-2-yl]amino]-3-methyl-1-oxidanylidene-butan-2-yl]carbamoyl]-5-oxidanylidene-nonanedioic acid
> <PUBCHEM_IUPAC_TRADITIONAL_NAME>
(3S,6S)-6-acetamido-3-[[(1S)-1-[[(1S)-1-[[(1S)-1-[[(1S)-1-ethyl-2,3-diketo-3-(propylamino)propyl]carbamoyl]-3-methyl-butyl]carbamoyl]-2-methyl-propyl]carbamoyl]-2-methyl-propyl]carbamoyl]-5-keto-azelaic acid
> <PUBCHEM_IUPAC_INCHI>
InChI=1S/C36H60N6O12/c1-10-14-37-36(54)31(49)23(11-2)39-33(51)25(15-18(3)4)40-34(52)29(19(5)6)42-35(53)30(20(7)8)41-32(50)22(17-28(47)48)16-26(44)24(38-21(9)43)12-13-27(45)46/h18-20,22-25,29-30H,10-17H2,1-9H3,(H,37,54)(H,38,43)(H,39,51)(H,40,52)(H,41,50)(H,42,53)(H,45,46)(H,47,48)/t22-,23-,24-,25-,29-,30-/m0/s1
> <PUBCHEM_IUPAC_INCHIKEY>
ZCLQUDNZNCJMES-OPXRDTOJSA-N
> <PUBCHEM_XLOGP3_AA>
1.4
> <PUBCHEM_EXACT_MASS>
768.42692137
> <PUBCHEM_MOLECULAR_FORMULA>
C36H60N6O12
> <PUBCHEM_MOLECULAR_WEIGHT>
768.9
> <PUBCHEM_OPENEYE_CAN_SMILES>
CCCNC(=O)C(=O)C(CC)NC(=O)C(CC(C)C)NC(=O)C(C(C)C)NC(=O)C(C(C)C)NC(=O)C(CC(=O)C(CCC(=O)O)NC(=O)C)CC(=O)O
> <PUBCHEM_OPENEYE_ISO_SMILES>
CCCNC(=O)C(=O)[C@H](CC)NC(=O)[C@H](CC(C)C)NC(=O)[C@H](C(C)C)NC(=O)[C@H](C(C)C)NC(=O)[C@@H](CC(=O)[C@H](CCC(=O)O)NC(=O)C)CC(=O)O
> <PUBCHEM_CACTVS_TPSA>
283
> <PUBCHEM_MONOISOTOPIC_WEIGHT>
768.42692137
> <PUBCHEM_TOTAL_CHARGE>
0
> <PUBCHEM_HEAVY_ATOM_COUNT>
54
> <PUBCHEM_ATOM_DEF_STEREO_COUNT>
6
> <PUBCHEM_ATOM_UDEF_STEREO_COUNT>
0
> <PUBCHEM_BOND_DEF_STEREO_COUNT>
0
> <PUBCHEM_BOND_UDEF_STEREO_COUNT>
0
> <PUBCHEM_ISOTOPIC_ATOM_COUNT>
0
> <PUBCHEM_COMPONENT_COUNT>
1
> <PUBCHEM_CACTVS_TAUTO_COUNT>
-1
> <PUBCHEM_COORDINATE_TYPE>
1
5
255
> <PUBCHEM_BONDANNOTATIONS>
19  13  5
23  14  6
20  15  6
41  16  6
37  17  5
28  36  5
$$$$
