506797
  -OEChem-10302200282D
 79 80  0     1  0  0  0  0  0999 V2000
    6.2524   -2.3510    0.0000 O   0  0  0  0  0  0  0  0  0  0  0  0
    6.9334    1.9104    0.0000 O   0  0  0  0  0  0  0  0  0  0  0  0
    5.5714    1.9104    0.0000 O   0  0  0  0  0  0  0  0  0  0  0  0
   10.3238    0.6833    0.0000 O   0  0  0  0  0  0  0  0  0  0  0  0
    2.0000    2.4059    0.0000 O   0  0  0  0  0  0  0  0  0  0  0  0
   12.0871    3.1103    0.0000 O   0  0  0  0  0  0  0  0  0  0  0  0
   11.9061    1.3878    0.0000 O   0  0  0  0  0  0  0  0  0  0  0  0
    6.7524    0.1879    0.0000 N   0  0  0  0  0  0  0  0  0  0  0  0
    8.9225    1.7014    0.0000 N   0  0  0  0  0  0  0  0  0  0  0  0
    4.1701    0.8924    0.0000 N   0  0  0  0  0  0  0  0  0  0  0  0
    5.7524    0.1879    0.0000 C   0  0  1  0  0  0  0  0  0  0  0  0
    6.2524   -1.3510    0.0000 C   0  0  2  0  0  0  0  0  0  0  0  0
    5.4434   -0.7632    0.0000 C   0  0  0  0  0  0  0  0  0  0  0  0
    7.0614   -0.7632    0.0000 C   0  0  0  0  0  0  0  0  0  0  0  0
    7.3402    0.9969    0.0000 C   0  0  0  0  0  0  0  0  0  0  0  0
    8.3347    0.8924    0.0000 C   0  0  2  0  0  0  0  0  0  0  0  0
    5.1646    0.9969    0.0000 C   0  0  0  0  0  0  0  0  0  0  0  0
    8.7414   -0.0212    0.0000 C   0  0  0  0  0  0  0  0  0  0  0  0
    5.3864   -2.8510    0.0000 C   0  0  0  0  0  0  0  0  0  0  0  0
    9.7360   -0.1257    0.0000 C   0  0  0  0  0  0  0  0  0  0  0  0
    8.1537   -0.8302    0.0000 C   0  0  0  0  0  0  0  0  0  0  0  0
    3.5823    1.7014    0.0000 C   0  0  1  0  0  0  0  0  0  0  0  0
    9.9170    1.5968    0.0000 C   0  0  0  0  0  0  0  0  0  0  0  0
   10.5048    2.4059    0.0000 C   0  0  3  0  0  0  0  0  0  0  0  0
    5.3864   -3.8510    0.0000 C   0  0  0  0  0  0  0  0  0  0  0  0
    3.9890    2.6149    0.0000 C   0  0  0  0  0  0  0  0  0  0  0  0
   10.0981    3.3194    0.0000 C   0  0  0  0  0  0  0  0  0  0  0  0
   10.6858    4.1284    0.0000 C   0  0  0  0  0  0  0  0  0  0  0  0
    2.5878    1.5968    0.0000 C   0  0  0  0  0  0  0  0  0  0  0  0
   11.4993    2.3013    0.0000 C   0  0  0  0  0  0  0  0  0  0  0  0
    3.4013    3.4239    0.0000 C   0  0  0  0  0  0  0  0  0  0  0  0
    6.2524   -4.3510    0.0000 C   0  0  0  0  0  0  0  0  0  0  0  0
    4.5204   -4.3510    0.0000 C   0  0  0  0  0  0  0  0  0  0  0  0
   10.2791    5.0420    0.0000 C   0  0  0  0  0  0  0  0  0  0  0  0
    6.2524   -5.3510    0.0000 C   0  0  0  0  0  0  0  0  0  0  0  0
    4.5204   -5.3510    0.0000 C   0  0  0  0  0  0  0  0  0  0  0  0
   10.8669    5.8510    0.0000 C   0  0  0  0  0  0  0  0  0  0  0  0
    5.3864   -5.8510    0.0000 C   0  0  0  0  0  0  0  0  0  0  0  0
    6.0339    0.7403    0.0000 H   0  0  0  0  0  0  0  0  0  0  0  0
    5.7000   -1.6324    0.0000 H   0  0  0  0  0  0  0  0  0  0  0  0
    4.8770   -0.5110    0.0000 H   0  0  0  0  0  0  0  0  0  0  0  0
    5.1334   -1.3001    0.0000 H   0  0  0  0  0  0  0  0  0  0  0  0
    7.3714   -1.3001    0.0000 H   0  0  0  0  0  0  0  0  0  0  0  0
    7.6278   -0.5110    0.0000 H   0  0  0  0  0  0  0  0  0  0  0  0
    8.0825    1.4588    0.0000 H   0  0  0  0  0  0  0  0  0  0  0  0
    9.1059    0.4804    0.0000 H   0  0  0  0  0  0  0  0  0  0  0  0
    8.6703    2.2678    0.0000 H   0  0  0  0  0  0  0  0  0  0  0  0
    3.9179    0.3260    0.0000 H   0  0  0  0  0  0  0  0  0  0  0  0
    5.1743   -2.2684    0.0000 H   0  0  0  0  0  0  0  0  0  0  0  0
    4.7758   -2.9586    0.0000 H   0  0  0  0  0  0  0  0  0  0  0  0
    9.6712   -0.7423    0.0000 H   0  0  0  0  0  0  0  0  0  0  0  0
   10.3526   -0.1905    0.0000 H   0  0  0  0  0  0  0  0  0  0  0  0
    9.8008    0.4909    0.0000 H   0  0  0  0  0  0  0  0  0  0  0  0
    7.6521   -0.4658    0.0000 H   0  0  0  0  0  0  0  0  0  0  0  0
    7.7892   -1.3318    0.0000 H   0  0  0  0  0  0  0  0  0  0  0  0
    8.6552   -1.1946    0.0000 H   0  0  0  0  0  0  0  0  0  0  0  0
    3.3301    1.1350    0.0000 H   0  0  0  0  0  0  0  0  0  0  0  0
    9.8882    2.4707    0.0000 H   0  0  0  0  0  0  0  0  0  0  0  0
    4.5030    2.2682    0.0000 H   0  0  0  0  0  0  0  0  0  0  0  0
    4.4197    3.0609    0.0000 H   0  0  0  0  0  0  0  0  0  0  0  0
    9.6674    3.7654    0.0000 H   0  0  0  0  0  0  0  0  0  0  0  0
    9.5841    2.9727    0.0000 H   0  0  0  0  0  0  0  0  0  0  0  0
   11.1165    3.6824    0.0000 H   0  0  0  0  0  0  0  0  0  0  0  0
   11.1999    4.4751    0.0000 H   0  0  0  0  0  0  0  0  0  0  0  0
    2.3356    1.0304    0.0000 H   0  0  0  0  0  0  0  0  0  0  0  0
    3.9028    3.7884    0.0000 H   0  0  0  0  0  0  0  0  0  0  0  0
    3.0368    3.9255    0.0000 H   0  0  0  0  0  0  0  0  0  0  0  0
    2.8997    3.0595    0.0000 H   0  0  0  0  0  0  0  0  0  0  0  0
    6.7893   -4.0410    0.0000 H   0  0  0  0  0  0  0  0  0  0  0  0
    3.9834   -4.0410    0.0000 H   0  0  0  0  0  0  0  0  0  0  0  0
    9.8484    5.4880    0.0000 H   0  0  0  0  0  0  0  0  0  0  0  0
    9.7651    4.6953    0.0000 H   0  0  0  0  0  0  0  0  0  0  0  0
    6.7893   -5.6610    0.0000 H   0  0  0  0  0  0  0  0  0  0  0  0
    3.9834   -5.6610    0.0000 H   0  0  0  0  0  0  0  0  0  0  0  0
   11.3685    5.4866    0.0000 H   0  0  0  0  0  0  0  0  0  0  0  0
   11.2313    6.3526    0.0000 H   0  0  0  0  0  0  0  0  0  0  0  0
   10.3653    6.2154    0.0000 H   0  0  0  0  0  0  0  0  0  0  0  0
    5.3864   -6.4710    0.0000 H   0  0  0  0  0  0  0  0  0  0  0  0
   12.7037    3.0455    0.0000 H   0  0  0  0  0  0  0  0  0  0  0  0
 12  1  1  6  0  0  0
  1 19  1  0  0  0  0
  2 15  2  0  0  0  0
  3 17  2  0  0  0  0
  4 23  2  0  0  0  0
  5 29  2  0  0  0  0
  6 30  1  0  0  0  0
  6 79  1  0  0  0  0
  7 30  2  0  0  0  0
  8 11  1  0  0  0  0
  8 14  1  0  0  0  0
  8 15  1  0  0  0  0
 16  9  1  1  0  0  0
  9 23  1  0  0  0  0
  9 47  1  0  0  0  0
 10 17  1  0  0  0  0
 22 10  1  6  0  0  0
 10 48  1  0  0  0  0
 11 13  1  0  0  0  0
 11 17  1  1  0  0  0
 11 39  1  0  0  0  0
 12 13  1  0  0  0  0
 12 14  1  0  0  0  0
 12 40  1  0  0  0  0
 13 41  1  0  0  0  0
 13 42  1  0  0  0  0
 14 43  1  0  0  0  0
 14 44  1  0  0  0  0
 15 16  1  0  0  0  0
 16 18  1  0  0  0  0
 16 45  1  0  0  0  0
 18 20  1  0  0  0  0
 18 21  1  0  0  0  0
 18 46  1  0  0  0  0
 19 25  1  0  0  0  0
 19 49  1  0  0  0  0
 19 50  1  0  0  0  0
 20 51  1  0  0  0  0
 20 52  1  0  0  0  0
 20 53  1  0  0  0  0
 21 54  1  0  0  0  0
 21 55  1  0  0  0  0
 21 56  1  0  0  0  0
 22 26  1  0  0  0  0
 22 29  1  0  0  0  0
 22 57  1  0  0  0  0
 23 24  1  0  0  0  0
 24 27  1  0  0  0  0
 24 30  1  0  0  0  0
 24 58  1  0  0  0  0
 25 32  2  0  0  0  0
 25 33  1  0  0  0  0
 26 31  1  0  0  0  0
 26 59  1  0  0  0  0
 26 60  1  0  0  0  0
 27 28  1  0  0  0  0
 27 61  1  0  0  0  0
 27 62  1  0  0  0  0
 28 34  1  0  0  0  0
 28 63  1  0  0  0  0
 28 64  1  0  0  0  0
 29 65  1  0  0  0  0
 31 66  1  0  0  0  0
 31 67  1  0  0  0  0
 31 68  1  0  0  0  0
 32 35  1  0  0  0  0
 32 69  1  0  0  0  0
 33 36  2  0  0  0  0
 33 70  1  0  0  0  0
 34 37  1  0  0  0  0
 34 71  1  0  0  0  0
 34 72  1  0  0  0  0
 35 38  2  0  0  0  0
 35 73  1  0  0  0  0
 36 38  1  0  0  0  0
 36 74  1  0  0  0  0
 37 75  1  0  0  0  0
 37 76  1  0  0  0  0
 37 77  1  0  0  0  0
 38 78  1  0  0  0  0
M  END
> <PUBCHEM_COMPOUND_CID>
506797
> <PUBCHEM_COMPOUND_CANONICALIZED>
1
> <PUBCHEM_CACTVS_COMPLEXITY>
812
> <PUBCHEM_CACTVS_HBOND_ACCEPTOR>
7
> <PUBCHEM_CACTVS_HBOND_DONOR>
3
> <PUBCHEM_CACTVS_ROTATABLE_BOND>
15
> <PUBCHEM_CACTVS_SUBSKEYS>
AAADcfB7OAAAAAAAAAAAAAAAAAAAAWAAAAAwAAAAAAAAAAABAAAAHgAQCAAADTzhmAYyCIPABgCIAinSmAACAAAgAAAIiIGICIgKZj6IsTiXcAAm9gGYqAe6ySAOAAAAAAAAAAAAAAAAAAAAAAAAAAAAAA==
> <PUBCHEM_IUPAC_OPENEYE_NAME>
2-[[(1S)-1-[(2S,4R)-4-benzyloxy-2-[[(1S)-1-formylpropyl]carbamoyl]pyrrolidine-1-carbonyl]-2-methyl-propyl]carbamoyl]hexanoic acid
> <PUBCHEM_IUPAC_CAS_NAME>
2-[[[(2S)-3-methyl-1-oxo-1-[(2S,4R)-2-[oxo-[[(2S)-1-oxobutan-2-yl]amino]methyl]-4-phenylmethoxy-1-pyrrolidinyl]butan-2-yl]amino]-oxomethyl]hexanoic acid
> <PUBCHEM_IUPAC_NAME_MARKUP>
2-[[(2<I>S</I>)-3-methyl-1-oxo-1-[(2<I>S</I>,4<I>R</I>)-2-[[(2<I>S</I>)-1-oxobutan-2-yl]carbamoyl]-4-phenylmethoxypyrrolidin-1-yl]butan-2-yl]carbamoyl]hexanoic acid
> <PUBCHEM_IUPAC_NAME>
2-[[(2S)-3-methyl-1-oxo-1-[(2S,4R)-2-[[(2S)-1-oxobutan-2-yl]carbamoyl]-4-phenylmethoxypyrrolidin-1-yl]butan-2-yl]carbamoyl]hexanoic acid
> <PUBCHEM_IUPAC_SYSTEMATIC_NAME>
2-[[(2S)-3-methyl-1-oxidanylidene-1-[(2S,4R)-2-[[(2S)-1-oxidanylidenebutan-2-yl]carbamoyl]-4-phenylmethoxy-pyrrolidin-1-yl]butan-2-yl]carbamoyl]hexanoic acid
> <PUBCHEM_IUPAC_TRADITIONAL_NAME>
2-[[(1S)-1-[(2S,4R)-4-benzoxy-2-[[(1S)-1-formylpropyl]carbamoyl]pyrrolidine-1-carbonyl]-2-methyl-propyl]carbamoyl]hexanoic acid
> <PUBCHEM_IUPAC_INCHI>
InChI=1S/C28H41N3O7/c1-5-7-13-22(28(36)37)25(33)30-24(18(3)4)27(35)31-15-21(38-17-19-11-9-8-10-12-19)14-23(31)26(34)29-20(6-2)16-32/h8-12,16,18,20-24H,5-7,13-15,17H2,1-4H3,(H,29,34)(H,30,33)(H,36,37)/t20-,21+,22?,23-,24-/m0/s1
> <PUBCHEM_IUPAC_INCHIKEY>
PFCJLEUXBJDEAV-MZLDIGGJSA-N
> <PUBCHEM_XLOGP3_AA>
3.5
> <PUBCHEM_EXACT_MASS>
531.29445066
> <PUBCHEM_MOLECULAR_FORMULA>
C28H41N3O7
> <PUBCHEM_MOLECULAR_WEIGHT>
531.6
> <PUBCHEM_OPENEYE_CAN_SMILES>
CCCCC(C(=O)NC(C(C)C)C(=O)N1CC(CC1C(=O)NC(CC)C=O)OCC2=CC=CC=C2)C(=O)O
> <PUBCHEM_OPENEYE_ISO_SMILES>
CCCCC(C(=O)N[C@@H](C(C)C)C(=O)N1C[C@@H](C[C@H]1C(=O)N[C@@H](CC)C=O)OCC2=CC=CC=C2)C(=O)O
> <PUBCHEM_CACTVS_TPSA>
142
> <PUBCHEM_MONOISOTOPIC_WEIGHT>
531.29445066
> <PUBCHEM_TOTAL_CHARGE>
0
> <PUBCHEM_HEAVY_ATOM_COUNT>
38
> <PUBCHEM_ATOM_DEF_STEREO_COUNT>
4
> <PUBCHEM_ATOM_UDEF_STEREO_COUNT>
1
> <PUBCHEM_BOND_DEF_STEREO_COUNT>
0
> <PUBCHEM_BOND_UDEF_STEREO_COUNT>
0
> <PUBCHEM_ISOTOPIC_ATOM_COUNT>
0
> <PUBCHEM_COMPONENT_COUNT>
1
> <PUBCHEM_CACTVS_TAUTO_COUNT>
-1
> <PUBCHEM_COORDINATE_TYPE>
1
5
255
> <PUBCHEM_BONDANNOTATIONS>
12  1  6
22  10  6
11  17  5
24  27  3
25  32  8
25  33  8
32  35  8
33  36  8
35  38  8
36  38  8
16  9  5
$$$$
