506760
  -OEChem-10302200282D
 91 94  0     1  0  0  0  0  0999 V2000
    8.2363    3.9514    0.0000 O   0  0  0  0  0  0  0  0  0  0  0  0
    6.2824    0.1035    0.0000 O   0  0  0  0  0  0  0  0  0  0  0  0
    5.1805    0.9041    0.0000 O   0  0  0  0  0  0  0  0  0  0  0  0
    9.7465   -0.8965    0.0000 O   0  0  0  0  0  0  0  0  0  0  0  0
    2.0000    2.6025    0.0000 O   0  0  0  0  0  0  0  0  0  0  0  0
   10.6126   -1.3965    0.0000 O   0  0  0  0  0  0  0  0  0  0  0  0
    7.1485   -7.3965    0.0000 O   0  5  0  0  0  0  0  0  0  0  0  0
    8.8805   -7.3965    0.0000 O   0  0  0  0  0  0  0  0  0  0  0  0
    7.1485    1.6035    0.0000 N   0  0  0  0  0  0  0  0  0  0  0  0
    8.0145   -0.8965    0.0000 N   0  0  0  0  0  0  0  0  0  0  0  0
    4.6453    2.5514    0.0000 N   0  0  0  0  0  0  0  0  0  0  0  0
    9.7465   -2.8965    0.0000 N   0  0  0  0  0  0  0  0  0  0  0  0
   12.3446   -2.3965    0.0000 N   0  0  0  0  0  0  0  0  0  0  0  0
    8.0145   -6.8965    0.0000 N   0  3  0  0  0  0  0  0  0  0  0  0
   12.3446   -4.3965    0.0000 N   0  0  0  0  0  0  0  0  0  0  0  0
    6.3395    2.1913    0.0000 C   0  0  1  0  0  0  0  0  0  0  0  0
    7.6485    3.1424    0.0000 C   0  0  2  0  0  0  0  0  0  0  0  0
    6.6485    3.1424    0.0000 C   0  0  0  0  0  0  0  0  0  0  0  0
    7.9575    2.1913    0.0000 C   0  0  0  0  0  0  0  0  0  0  0  0
    7.1485    0.6035    0.0000 C   0  0  0  0  0  0  0  0  0  0  0  0
    8.0145    0.1035    0.0000 C   0  0  2  0  0  0  0  0  0  0  0  0
    5.3884    1.8823    0.0000 C   0  0  0  0  0  0  0  0  0  0  0  0
    8.8805    0.6035    0.0000 C   0  0  0  0  0  0  0  0  0  0  0  0
    7.8295    4.8649    0.0000 C   0  0  0  0  0  0  0  0  0  0  0  0
    9.7465    0.1035    0.0000 C   0  0  0  0  0  0  0  0  0  0  0  0
    8.8805    1.6035    0.0000 C   0  0  0  0  0  0  0  0  0  0  0  0
    3.6942    2.2424    0.0000 C   0  0  1  0  0  0  0  0  0  0  0  0
    8.8805   -1.3965    0.0000 C   0  0  0  0  0  0  0  0  0  0  0  0
    8.8805   -2.3965    0.0000 C   0  0  2  0  0  0  0  0  0  0  0  0
    8.4173    5.6739    0.0000 C   0  0  0  0  0  0  0  0  0  0  0  0
    3.4863    1.2642    0.0000 C   0  0  0  0  0  0  0  0  0  0  0  0
    8.0145   -2.8965    0.0000 C   0  0  0  0  0  0  0  0  0  0  0  0
    2.9511    2.9115    0.0000 C   0  0  0  0  0  0  0  0  0  0  0  0
    2.5352    0.9552    0.0000 C   0  0  0  0  0  0  0  0  0  0  0  0
    9.4118    5.5694    0.0000 C   0  0  0  0  0  0  0  0  0  0  0  0
    8.0106    6.5875    0.0000 C   0  0  0  0  0  0  0  0  0  0  0  0
    8.0145   -3.8965    0.0000 C   0  0  0  0  0  0  0  0  0  0  0  0
    9.9996    6.3784    0.0000 C   0  0  0  0  0  0  0  0  0  0  0  0
    8.5984    7.3965    0.0000 C   0  0  0  0  0  0  0  0  0  0  0  0
   10.6126   -2.3965    0.0000 C   0  0  0  0  0  0  0  0  0  0  0  0
    9.5929    7.2920    0.0000 C   0  0  0  0  0  0  0  0  0  0  0  0
    8.8805   -4.3965    0.0000 C   0  0  0  0  0  0  0  0  0  0  0  0
    7.1485   -4.3965    0.0000 C   0  0  0  0  0  0  0  0  0  0  0  0
    8.8805   -5.3965    0.0000 C   0  0  0  0  0  0  0  0  0  0  0  0
    7.1485   -5.3965    0.0000 C   0  0  0  0  0  0  0  0  0  0  0  0
   11.4786   -2.8965    0.0000 C   0  0  0  0  0  0  0  0  0  0  0  0
    8.0145   -5.8965    0.0000 C   0  0  0  0  0  0  0  0  0  0  0  0
   11.4786   -3.8965    0.0000 C   0  0  0  0  0  0  0  0  0  0  0  0
   13.2107   -2.8965    0.0000 C   0  0  0  0  0  0  0  0  0  0  0  0
   13.2107   -3.8965    0.0000 C   0  0  0  0  0  0  0  0  0  0  0  0
    6.2425    1.5789    0.0000 H   0  0  0  0  0  0  0  0  0  0  0  0
    7.3670    3.6948    0.0000 H   0  0  0  0  0  0  0  0  0  0  0  0
    6.7133    3.7590    0.0000 H   0  0  0  0  0  0  0  0  0  0  0  0
    6.0420    3.2713    0.0000 H   0  0  0  0  0  0  0  0  0  0  0  0
    8.2675    1.6544    0.0000 H   0  0  0  0  0  0  0  0  0  0  0  0
    8.5239    2.4435    0.0000 H   0  0  0  0  0  0  0  0  0  0  0  0
    8.5514   -0.2065    0.0000 H   0  0  0  0  0  0  0  0  0  0  0  0
    8.3436    0.9135    0.0000 H   0  0  0  0  0  0  0  0  0  0  0  0
    7.4776   -1.2065    0.0000 H   0  0  0  0  0  0  0  0  0  0  0  0
    4.7742    3.1579    0.0000 H   0  0  0  0  0  0  0  0  0  0  0  0
    7.3988    5.3109    0.0000 H   0  0  0  0  0  0  0  0  0  0  0  0
    7.3155    4.5182    0.0000 H   0  0  0  0  0  0  0  0  0  0  0  0
    9.4366   -0.4334    0.0000 H   0  0  0  0  0  0  0  0  0  0  0  0
   10.2835   -0.2065    0.0000 H   0  0  0  0  0  0  0  0  0  0  0  0
   10.0566    0.6404    0.0000 H   0  0  0  0  0  0  0  0  0  0  0  0
    9.5005    1.6035    0.0000 H   0  0  0  0  0  0  0  0  0  0  0  0
    8.8805    2.2235    0.0000 H   0  0  0  0  0  0  0  0  0  0  0  0
    8.2605    1.6035    0.0000 H   0  0  0  0  0  0  0  0  0  0  0  0
    4.1550    1.8275    0.0000 H   0  0  0  0  0  0  0  0  0  0  0  0
    8.8805   -3.0165    0.0000 H   0  0  0  0  0  0  0  0  0  0  0  0
    3.5726    0.6503    0.0000 H   0  0  0  0  0  0  0  0  0  0  0  0
    4.1059    1.2426    0.0000 H   0  0  0  0  0  0  0  0  0  0  0  0
    7.8024   -2.3139    0.0000 H   0  0  0  0  0  0  0  0  0  0  0  0
    7.4039   -3.0042    0.0000 H   0  0  0  0  0  0  0  0  0  0  0  0
    3.0800    3.5180    0.0000 H   0  0  0  0  0  0  0  0  0  0  0  0
    2.3436    1.5449    0.0000 H   0  0  0  0  0  0  0  0  0  0  0  0
    1.9456    0.7636    0.0000 H   0  0  0  0  0  0  0  0  0  0  0  0
    2.7268    0.3656    0.0000 H   0  0  0  0  0  0  0  0  0  0  0  0
    9.6640    5.0030    0.0000 H   0  0  0  0  0  0  0  0  0  0  0  0
    7.3940    6.6523    0.0000 H   0  0  0  0  0  0  0  0  0  0  0  0
    9.7465   -3.5165    0.0000 H   0  0  0  0  0  0  0  0  0  0  0  0
   10.6162    6.3136    0.0000 H   0  0  0  0  0  0  0  0  0  0  0  0
    8.3462    7.9629    0.0000 H   0  0  0  0  0  0  0  0  0  0  0  0
    9.9573    7.7936    0.0000 H   0  0  0  0  0  0  0  0  0  0  0  0
    9.4175   -4.0865    0.0000 H   0  0  0  0  0  0  0  0  0  0  0  0
    6.6115   -4.0865    0.0000 H   0  0  0  0  0  0  0  0  0  0  0  0
    9.4175   -5.7065    0.0000 H   0  0  0  0  0  0  0  0  0  0  0  0
    6.6115   -5.7065    0.0000 H   0  0  0  0  0  0  0  0  0  0  0  0
   10.9417   -4.2065    0.0000 H   0  0  0  0  0  0  0  0  0  0  0  0
   13.7476   -2.5865    0.0000 H   0  0  0  0  0  0  0  0  0  0  0  0
   13.7476   -4.2065    0.0000 H   0  0  0  0  0  0  0  0  0  0  0  0
 17  1  1  1  0  0  0
  1 24  1  0  0  0  0
  2 20  2  0  0  0  0
  3 22  2  0  0  0  0
  4 28  2  0  0  0  0
  5 33  2  0  0  0  0
  6 40  2  0  0  0  0
  7 14  1  0  0  0  0
  8 14  2  0  0  0  0
  9 16  1  0  0  0  0
  9 19  1  0  0  0  0
  9 20  1  0  0  0  0
 21 10  1  6  0  0  0
 10 28  1  0  0  0  0
 10 59  1  0  0  0  0
 11 22  1  0  0  0  0
 27 11  1  1  0  0  0
 11 60  1  0  0  0  0
 29 12  1  1  0  0  0
 12 40  1  0  0  0  0
 12 81  1  0  0  0  0
 13 46  2  0  0  0  0
 13 49  1  0  0  0  0
 14 47  1  0  0  0  0
 15 48  2  0  0  0  0
 15 50  1  0  0  0  0
 16 18  1  0  0  0  0
 16 22  1  6  0  0  0
 16 51  1  0  0  0  0
 17 18  1  0  0  0  0
 17 19  1  0  0  0  0
 17 52  1  0  0  0  0
 18 53  1  0  0  0  0
 18 54  1  0  0  0  0
 19 55  1  0  0  0  0
 19 56  1  0  0  0  0
 20 21  1  0  0  0  0
 21 23  1  0  0  0  0
 21 57  1  0  0  0  0
 23 25  1  0  0  0  0
 23 26  1  0  0  0  0
 23 58  1  0  0  0  0
 24 30  1  0  0  0  0
 24 61  1  0  0  0  0
 24 62  1  0  0  0  0
 25 63  1  0  0  0  0
 25 64  1  0  0  0  0
 25 65  1  0  0  0  0
 26 66  1  0  0  0  0
 26 67  1  0  0  0  0
 26 68  1  0  0  0  0
 27 31  1  0  0  0  0
 27 33  1  0  0  0  0
 27 69  1  0  0  0  0
 28 29  1  0  0  0  0
 29 32  1  0  0  0  0
 29 70  1  0  0  0  0
 30 35  2  0  0  0  0
 30 36  1  0  0  0  0
 31 34  1  0  0  0  0
 31 71  1  0  0  0  0
 31 72  1  0  0  0  0
 32 37  1  0  0  0  0
 32 73  1  0  0  0  0
 32 74  1  0  0  0  0
 33 75  1  0  0  0  0
 34 76  1  0  0  0  0
 34 77  1  0  0  0  0
 34 78  1  0  0  0  0
 35 38  1  0  0  0  0
 35 79  1  0  0  0  0
 36 39  2  0  0  0  0
 36 80  1  0  0  0  0
 37 42  2  0  0  0  0
 37 43  1  0  0  0  0
 38 41  2  0  0  0  0
 38 82  1  0  0  0  0
 39 41  1  0  0  0  0
 39 83  1  0  0  0  0
 40 46  1  0  0  0  0
 41 84  1  0  0  0  0
 42 44  1  0  0  0  0
 42 85  1  0  0  0  0
 43 45  2  0  0  0  0
 43 86  1  0  0  0  0
 44 47  2  0  0  0  0
 44 87  1  0  0  0  0
 45 47  1  0  0  0  0
 45 88  1  0  0  0  0
 46 48  1  0  0  0  0
 48 89  1  0  0  0  0
 49 50  2  0  0  0  0
 49 90  1  0  0  0  0
 50 91  1  0  0  0  0
M  CHG  2   7  -1  14   1
M  END
> <PUBCHEM_COMPOUND_CID>
506760
> <PUBCHEM_COMPOUND_CANONICALIZED>
1
> <PUBCHEM_CACTVS_COMPLEXITY>
1170
> <PUBCHEM_CACTVS_HBOND_ACCEPTOR>
10
> <PUBCHEM_CACTVS_HBOND_DONOR>
3
> <PUBCHEM_CACTVS_ROTATABLE_BOND>
15
> <PUBCHEM_CACTVS_SUBSKEYS>
AAADcfB/vAAAAAAAAAAAAAAAAAAAAWAAAAA8YIAAAAAAAAAB0AAAHgAUAAAADTzhngY+wJPYVACpAz131wCCgCQ3EiAo2IG4fMoKZnrA8bmXMIhm1gHY6Me6yaCOCAAAAAAAAAAQAAAAAAAAAAAAAAAAAA==
> <PUBCHEM_IUPAC_OPENEYE_NAME>
N-[(1S)-2-[[(1S)-1-[(2S,4R)-4-benzyloxy-2-[[(1S)-1-formylpropyl]carbamoyl]pyrrolidine-1-carbonyl]-2-methyl-propyl]amino]-1-[(4-nitrophenyl)methyl]-2-oxo-ethyl]pyrazine-2-carboxamide
> <PUBCHEM_IUPAC_CAS_NAME>
N-[(2S)-1-[[(2S)-3-methyl-1-oxo-1-[(2S,4R)-2-[oxo-[[(2S)-1-oxobutan-2-yl]amino]methyl]-4-phenylmethoxy-1-pyrrolidinyl]butan-2-yl]amino]-3-(4-nitrophenyl)-1-oxopropan-2-yl]-2-pyrazinecarboxamide
> <PUBCHEM_IUPAC_NAME_MARKUP>
<I>N</I>-[(2<I>S</I>)-1-[[(2<I>S</I>)-3-methyl-1-oxo-1-[(2<I>S</I>,4<I>R</I>)-2-[[(2<I>S</I>)-1-oxobutan-2-yl]carbamoyl]-4-phenylmethoxypyrrolidin-1-yl]butan-2-yl]amino]-3-(4-nitrophenyl)-1-oxopropan-2-yl]pyrazine-2-carboxamide
> <PUBCHEM_IUPAC_NAME>
N-[(2S)-1-[[(2S)-3-methyl-1-oxo-1-[(2S,4R)-2-[[(2S)-1-oxobutan-2-yl]carbamoyl]-4-phenylmethoxypyrrolidin-1-yl]butan-2-yl]amino]-3-(4-nitrophenyl)-1-oxopropan-2-yl]pyrazine-2-carboxamide
> <PUBCHEM_IUPAC_SYSTEMATIC_NAME>
N-[(2S)-1-[[(2S)-3-methyl-1-oxidanylidene-1-[(2S,4R)-2-[[(2S)-1-oxidanylidenebutan-2-yl]carbamoyl]-4-phenylmethoxy-pyrrolidin-1-yl]butan-2-yl]amino]-3-(4-nitrophenyl)-1-oxidanylidene-propan-2-yl]pyrazine-2-carboxamide
> <PUBCHEM_IUPAC_TRADITIONAL_NAME>
N-[(1S)-2-[[(1S)-1-[(2S,4R)-4-benzoxy-2-[[(1S)-1-formylpropyl]carbamoyl]pyrrolidine-1-carbonyl]-2-methyl-propyl]amino]-2-keto-1-(4-nitrobenzyl)ethyl]pyrazinamide
> <PUBCHEM_IUPAC_INCHI>
InChI=1S/C35H41N7O8/c1-4-25(20-43)38-34(46)30-17-27(50-21-24-8-6-5-7-9-24)19-41(30)35(47)31(22(2)3)40-32(44)28(39-33(45)29-18-36-14-15-37-29)16-23-10-12-26(13-11-23)42(48)49/h5-15,18,20,22,25,27-28,30-31H,4,16-17,19,21H2,1-3H3,(H,38,46)(H,39,45)(H,40,44)/t25-,27+,28-,30-,31-/m0/s1
> <PUBCHEM_IUPAC_INCHIKEY>
AGWAYHJFNQPNPV-SMPOVXKUSA-N
> <PUBCHEM_XLOGP3_AA>
2.8
> <PUBCHEM_EXACT_MASS>
687.30166129
> <PUBCHEM_MOLECULAR_FORMULA>
C35H41N7O8
> <PUBCHEM_MOLECULAR_WEIGHT>
687.7
> <PUBCHEM_OPENEYE_CAN_SMILES>
CCC(C=O)NC(=O)C1CC(CN1C(=O)C(C(C)C)NC(=O)C(CC2=CC=C(C=C2)[N+](=O)[O-])NC(=O)C3=NC=CN=C3)OCC4=CC=CC=C4
> <PUBCHEM_OPENEYE_ISO_SMILES>
CC[C@@H](C=O)NC(=O)[C@@H]1C[C@H](CN1C(=O)[C@H](C(C)C)NC(=O)[C@H](CC2=CC=C(C=C2)[N+](=O)[O-])NC(=O)C3=NC=CN=C3)OCC4=CC=CC=C4
> <PUBCHEM_CACTVS_TPSA>
206
> <PUBCHEM_MONOISOTOPIC_WEIGHT>
687.30166129
> <PUBCHEM_TOTAL_CHARGE>
0
> <PUBCHEM_HEAVY_ATOM_COUNT>
50
> <PUBCHEM_ATOM_DEF_STEREO_COUNT>
5
> <PUBCHEM_ATOM_UDEF_STEREO_COUNT>
0
> <PUBCHEM_BOND_DEF_STEREO_COUNT>
0
> <PUBCHEM_BOND_UDEF_STEREO_COUNT>
0
> <PUBCHEM_ISOTOPIC_ATOM_COUNT>
0
> <PUBCHEM_COMPONENT_COUNT>
1
> <PUBCHEM_CACTVS_TAUTO_COUNT>
-1
> <PUBCHEM_COORDINATE_TYPE>
1
5
255
> <PUBCHEM_BONDANNOTATIONS>
17  1  5
21  10  6
27  11  5
29  12  5
13  46  8
13  49  8
15  48  8
15  50  8
16  22  6
30  35  8
30  36  8
35  38  8
36  39  8
37  42  8
37  43  8
38  41  8
39  41  8
42  44  8
43  45  8
44  47  8
45  47  8
46  48  8
49  50  8
$$$$
