506765
  -OEChem-10302200282D
 93 96  0     1  0  0  0  0  0999 V2000
    9.7560   -1.9806    0.0000 S   0  0  0  0  0  0  0  0  0  0  0  0
    4.8025    2.1354    0.0000 O   0  0  0  0  0  0  0  0  0  0  0  0
    7.1580   -1.4806    0.0000 O   0  0  0  0  0  0  0  0  0  0  0  0
    5.9136   -2.0346    0.0000 O   0  0  0  0  0  0  0  0  0  0  0  0
    9.7560    1.0194    0.0000 O   0  0  0  0  0  0  0  0  0  0  0  0
    2.8525   -3.9398    0.0000 O   0  0  0  0  0  0  0  0  0  0  0  0
   12.3541   -1.4806    0.0000 O   0  0  0  0  0  0  0  0  0  0  0  0
    6.2919    0.0194    0.0000 N   0  0  0  0  0  0  0  0  0  0  0  0
    4.2194   -1.6745    0.0000 N   0  0  0  0  0  0  0  0  0  0  0  0
    8.8900   -0.4806    0.0000 N   0  0  0  0  0  0  0  0  0  0  0  0
   11.4881    0.0194    0.0000 N   0  0  0  0  0  0  0  0  0  0  0  0
   14.0862   -0.4806    0.0000 N   0  0  0  0  0  0  0  0  0  0  0  0
   14.0862    1.5194    0.0000 N   0  0  0  0  0  0  0  0  0  0  0  0
    5.3784   -0.3873    0.0000 C   0  0  1  0  0  0  0  0  0  0  0  0
    5.2092    1.2219    0.0000 C   0  0  2  0  0  0  0  0  0  0  0  0
    4.7092    0.3558    0.0000 C   0  0  0  0  0  0  0  0  0  0  0  0
    6.1874    1.0139    0.0000 C   0  0  0  0  0  0  0  0  0  0  0  0
    7.1580   -0.4806    0.0000 C   0  0  0  0  0  0  0  0  0  0  0  0
    8.0240    0.0194    0.0000 C   0  0  2  0  0  0  0  0  0  0  0  0
    5.1705   -1.3655    0.0000 C   0  0  0  0  0  0  0  0  0  0  0  0
    8.0240    1.0194    0.0000 C   0  0  0  0  0  0  0  0  0  0  0  0
    3.8080    2.2399    0.0000 C   0  0  0  0  0  0  0  0  0  0  0  0
    8.8900    1.5194    0.0000 C   0  0  0  0  0  0  0  0  0  0  0  0
    7.1580    1.5194    0.0000 C   0  0  0  0  0  0  0  0  0  0  0  0
    4.0115   -2.6526    0.0000 C   0  0  1  0  0  0  0  0  0  0  0  0
    9.7560    0.0194    0.0000 C   0  0  0  0  0  0  0  0  0  0  0  0
    3.4013    3.1535    0.0000 C   0  0  0  0  0  0  0  0  0  0  0  0
    4.7546   -3.3218    0.0000 C   0  0  0  0  0  0  0  0  0  0  0  0
   10.6221   -0.4806    0.0000 C   0  0  2  0  0  0  0  0  0  0  0  0
    3.0604   -2.9616    0.0000 C   0  0  0  0  0  0  0  0  0  0  0  0
   10.6221   -1.4806    0.0000 C   0  0  0  0  0  0  0  0  0  0  0  0
    4.5467   -4.2999    0.0000 C   0  0  0  0  0  0  0  0  0  0  0  0
    3.9890    3.9625    0.0000 C   0  0  0  0  0  0  0  0  0  0  0  0
    2.4067    3.2580    0.0000 C   0  0  0  0  0  0  0  0  0  0  0  0
    3.5823    4.8760    0.0000 C   0  0  0  0  0  0  0  0  0  0  0  0
    2.0000    4.1716    0.0000 C   0  0  0  0  0  0  0  0  0  0  0  0
    2.5878    4.9806    0.0000 C   0  0  0  0  0  0  0  0  0  0  0  0
   12.3541   -0.4806    0.0000 C   0  0  0  0  0  0  0  0  0  0  0  0
    9.7560   -2.9806    0.0000 C   0  0  0  0  0  0  0  0  0  0  0  0
   13.2201    0.0194    0.0000 C   0  0  0  0  0  0  0  0  0  0  0  0
    8.8900   -3.4806    0.0000 C   0  0  0  0  0  0  0  0  0  0  0  0
   13.2201    1.0194    0.0000 C   0  0  0  0  0  0  0  0  0  0  0  0
    8.8900   -4.4806    0.0000 C   0  0  0  0  0  0  0  0  0  0  0  0
    8.0240   -2.9806    0.0000 C   0  0  0  0  0  0  0  0  0  0  0  0
    8.0240   -4.9806    0.0000 C   0  0  0  0  0  0  0  0  0  0  0  0
    7.1580   -3.4806    0.0000 C   0  0  0  0  0  0  0  0  0  0  0  0
   14.9522    0.0194    0.0000 C   0  0  0  0  0  0  0  0  0  0  0  0
    7.1580   -4.4806    0.0000 C   0  0  0  0  0  0  0  0  0  0  0  0
   14.9522    1.0194    0.0000 C   0  0  0  0  0  0  0  0  0  0  0  0
    5.8602   -0.7775    0.0000 H   0  0  0  0  0  0  0  0  0  0  0  0
    5.5994    1.7037    0.0000 H   0  0  0  0  0  0  0  0  0  0  0  0
    4.2077    0.7203    0.0000 H   0  0  0  0  0  0  0  0  0  0  0  0
    4.2944   -0.1049    0.0000 H   0  0  0  0  0  0  0  0  0  0  0  0
    6.8074    1.0139    0.0000 H   0  0  0  0  0  0  0  0  0  0  0  0
    6.2522    1.6306    0.0000 H   0  0  0  0  0  0  0  0  0  0  0  0
    8.0240   -0.6006    0.0000 H   0  0  0  0  0  0  0  0  0  0  0  0
    7.4870    0.7094    0.0000 H   0  0  0  0  0  0  0  0  0  0  0  0
    3.7587   -1.2596    0.0000 H   0  0  0  0  0  0  0  0  0  0  0  0
    8.8900   -1.1006    0.0000 H   0  0  0  0  0  0  0  0  0  0  0  0
    3.2064    2.0899    0.0000 H   0  0  0  0  0  0  0  0  0  0  0  0
    3.8512    1.6214    0.0000 H   0  0  0  0  0  0  0  0  0  0  0  0
    9.2000    0.9825    0.0000 H   0  0  0  0  0  0  0  0  0  0  0  0
    9.4269    1.8294    0.0000 H   0  0  0  0  0  0  0  0  0  0  0  0
    8.5800    2.0564    0.0000 H   0  0  0  0  0  0  0  0  0  0  0  0
    7.4680    2.0564    0.0000 H   0  0  0  0  0  0  0  0  0  0  0  0
    6.6210    1.8294    0.0000 H   0  0  0  0  0  0  0  0  0  0  0  0
    6.8480    0.9825    0.0000 H   0  0  0  0  0  0  0  0  0  0  0  0
    4.6012   -2.4610    0.0000 H   0  0  0  0  0  0  0  0  0  0  0  0
    5.3295   -3.5540    0.0000 H   0  0  0  0  0  0  0  0  0  0  0  0
    5.0832   -2.7960    0.0000 H   0  0  0  0  0  0  0  0  0  0  0  0
   11.1590   -0.7906    0.0000 H   0  0  0  0  0  0  0  0  0  0  0  0
    2.5997   -2.5468    0.0000 H   0  0  0  0  0  0  0  0  0  0  0  0
   10.8341   -2.0632    0.0000 H   0  0  0  0  0  0  0  0  0  0  0  0
   11.2326   -1.3729    0.0000 H   0  0  0  0  0  0  0  0  0  0  0  0
    3.9403   -4.1710    0.0000 H   0  0  0  0  0  0  0  0  0  0  0  0
    4.4178   -4.9064    0.0000 H   0  0  0  0  0  0  0  0  0  0  0  0
    5.1532   -4.4288    0.0000 H   0  0  0  0  0  0  0  0  0  0  0  0
    4.6056    3.8977    0.0000 H   0  0  0  0  0  0  0  0  0  0  0  0
    2.0423    2.7564    0.0000 H   0  0  0  0  0  0  0  0  0  0  0  0
   11.4881    0.6394    0.0000 H   0  0  0  0  0  0  0  0  0  0  0  0
    3.9467    5.3776    0.0000 H   0  0  0  0  0  0  0  0  0  0  0  0
    1.3834    4.2364    0.0000 H   0  0  0  0  0  0  0  0  0  0  0  0
    2.3356    5.5470    0.0000 H   0  0  0  0  0  0  0  0  0  0  0  0
    9.9681   -3.5632    0.0000 H   0  0  0  0  0  0  0  0  0  0  0  0
   10.3666   -2.8729    0.0000 H   0  0  0  0  0  0  0  0  0  0  0  0
   12.6832    1.3294    0.0000 H   0  0  0  0  0  0  0  0  0  0  0  0
    9.4269   -4.7906    0.0000 H   0  0  0  0  0  0  0  0  0  0  0  0
    8.0240   -2.3606    0.0000 H   0  0  0  0  0  0  0  0  0  0  0  0
    8.0240   -5.6006    0.0000 H   0  0  0  0  0  0  0  0  0  0  0  0
    6.6210   -3.1706    0.0000 H   0  0  0  0  0  0  0  0  0  0  0  0
   15.4891   -0.2906    0.0000 H   0  0  0  0  0  0  0  0  0  0  0  0
    6.6210   -4.7906    0.0000 H   0  0  0  0  0  0  0  0  0  0  0  0
   15.4891    1.3294    0.0000 H   0  0  0  0  0  0  0  0  0  0  0  0
  1 31  1  0  0  0  0
  1 39  1  0  0  0  0
 15  2  1  1  0  0  0
  2 22  1  0  0  0  0
  3 18  2  0  0  0  0
  4 20  2  0  0  0  0
  5 26  2  0  0  0  0
  6 30  2  0  0  0  0
  7 38  2  0  0  0  0
  8 14  1  0  0  0  0
  8 17  1  0  0  0  0
  8 18  1  0  0  0  0
  9 20  1  0  0  0  0
 25  9  1  1  0  0  0
  9 58  1  0  0  0  0
 19 10  1  6  0  0  0
 10 26  1  0  0  0  0
 10 59  1  0  0  0  0
 29 11  1  1  0  0  0
 11 38  1  0  0  0  0
 11 80  1  0  0  0  0
 12 40  2  0  0  0  0
 12 47  1  0  0  0  0
 13 42  2  0  0  0  0
 13 49  1  0  0  0  0
 14 16  1  0  0  0  0
 14 20  1  6  0  0  0
 14 50  1  0  0  0  0
 15 16  1  0  0  0  0
 15 17  1  0  0  0  0
 15 51  1  0  0  0  0
 16 52  1  0  0  0  0
 16 53  1  0  0  0  0
 17 54  1  0  0  0  0
 17 55  1  0  0  0  0
 18 19  1  0  0  0  0
 19 21  1  0  0  0  0
 19 56  1  0  0  0  0
 21 23  1  0  0  0  0
 21 24  1  0  0  0  0
 21 57  1  0  0  0  0
 22 27  1  0  0  0  0
 22 60  1  0  0  0  0
 22 61  1  0  0  0  0
 23 62  1  0  0  0  0
 23 63  1  0  0  0  0
 23 64  1  0  0  0  0
 24 65  1  0  0  0  0
 24 66  1  0  0  0  0
 24 67  1  0  0  0  0
 25 28  1  0  0  0  0
 25 30  1  0  0  0  0
 25 68  1  0  0  0  0
 26 29  1  0  0  0  0
 27 33  2  0  0  0  0
 27 34  1  0  0  0  0
 28 32  1  0  0  0  0
 28 69  1  0  0  0  0
 28 70  1  0  0  0  0
 29 31  1  0  0  0  0
 29 71  1  0  0  0  0
 30 72  1  0  0  0  0
 31 73  1  0  0  0  0
 31 74  1  0  0  0  0
 32 75  1  0  0  0  0
 32 76  1  0  0  0  0
 32 77  1  0  0  0  0
 33 35  1  0  0  0  0
 33 78  1  0  0  0  0
 34 36  2  0  0  0  0
 34 79  1  0  0  0  0
 35 37  2  0  0  0  0
 35 81  1  0  0  0  0
 36 37  1  0  0  0  0
 36 82  1  0  0  0  0
 37 83  1  0  0  0  0
 38 40  1  0  0  0  0
 39 41  1  0  0  0  0
 39 84  1  0  0  0  0
 39 85  1  0  0  0  0
 40 42  1  0  0  0  0
 41 43  2  0  0  0  0
 41 44  1  0  0  0  0
 42 86  1  0  0  0  0
 43 45  1  0  0  0  0
 43 87  1  0  0  0  0
 44 46  2  0  0  0  0
 44 88  1  0  0  0  0
 45 48  2  0  0  0  0
 45 89  1  0  0  0  0
 46 48  1  0  0  0  0
 46 90  1  0  0  0  0
 47 49  2  0  0  0  0
 47 91  1  0  0  0  0
 48 92  1  0  0  0  0
 49 93  1  0  0  0  0
M  END
> <PUBCHEM_COMPOUND_CID>
506765
> <PUBCHEM_COMPOUND_CANONICALIZED>
1
> <PUBCHEM_CACTVS_COMPLEXITY>
1080
> <PUBCHEM_CACTVS_HBOND_ACCEPTOR>
9
> <PUBCHEM_CACTVS_HBOND_DONOR>
3
> <PUBCHEM_CACTVS_ROTATABLE_BOND>
17
> <PUBCHEM_CACTVS_SUBSKEYS>
AAADcfB/uABAAAAAAAAAAAAAAAAAAWAAAAA8YIAAAAAAAAAB0AAAHgQQAAAADTzl3ga+gJPIFAioAz131ACCgCQ3EjAI2IG4fMgKZnrg8TiXMIgm1gH4qMe6wSAOAAAAAAAAAAAAAAAAAAAAAAAAAAAAAA==
> <PUBCHEM_IUPAC_OPENEYE_NAME>
N-[(1R)-2-[[(1S)-1-[(2S,4R)-4-benzyloxy-2-[[(1S)-1-formylpropyl]carbamoyl]pyrrolidine-1-carbonyl]-2-methyl-propyl]amino]-1-(benzylsulfanylmethyl)-2-oxo-ethyl]pyrazine-2-carboxamide
> <PUBCHEM_IUPAC_CAS_NAME>
N-[(2R)-1-[[(2S)-3-methyl-1-oxo-1-[(2S,4R)-2-[oxo-[[(2S)-1-oxobutan-2-yl]amino]methyl]-4-phenylmethoxy-1-pyrrolidinyl]butan-2-yl]amino]-1-oxo-3-(phenylmethylthio)propan-2-yl]-2-pyrazinecarboxamide
> <PUBCHEM_IUPAC_NAME_MARKUP>
<I>N</I>-[(2<I>R</I>)-3-benzylsulfanyl-1-[[(2<I>S</I>)-3-methyl-1-oxo-1-[(2<I>S</I>,4<I>R</I>)-2-[[(2<I>S</I>)-1-oxobutan-2-yl]carbamoyl]-4-phenylmethoxypyrrolidin-1-yl]butan-2-yl]amino]-1-oxopropan-2-yl]pyrazine-2-carboxamide
> <PUBCHEM_IUPAC_NAME>
N-[(2R)-3-benzylsulfanyl-1-[[(2S)-3-methyl-1-oxo-1-[(2S,4R)-2-[[(2S)-1-oxobutan-2-yl]carbamoyl]-4-phenylmethoxypyrrolidin-1-yl]butan-2-yl]amino]-1-oxopropan-2-yl]pyrazine-2-carboxamide
> <PUBCHEM_IUPAC_SYSTEMATIC_NAME>
N-[(2R)-1-[[(2S)-3-methyl-1-oxidanylidene-1-[(2S,4R)-2-[[(2S)-1-oxidanylidenebutan-2-yl]carbamoyl]-4-phenylmethoxy-pyrrolidin-1-yl]butan-2-yl]amino]-1-oxidanylidene-3-(phenylmethylsulfanyl)propan-2-yl]pyrazine-2-carboxamide
> <PUBCHEM_IUPAC_TRADITIONAL_NAME>
N-[(1R)-2-[[(1S)-1-[(2S,4R)-4-benzoxy-2-[[(1S)-1-formylpropyl]carbamoyl]pyrrolidine-1-carbonyl]-2-methyl-propyl]amino]-1-[(benzylthio)methyl]-2-keto-ethyl]pyrazinamide
> <PUBCHEM_IUPAC_INCHI>
InChI=1S/C36H44N6O6S/c1-4-27(20-43)39-35(46)31-17-28(48-21-25-11-7-5-8-12-25)19-42(31)36(47)32(24(2)3)41-34(45)30(23-49-22-26-13-9-6-10-14-26)40-33(44)29-18-37-15-16-38-29/h5-16,18,20,24,27-28,30-32H,4,17,19,21-23H2,1-3H3,(H,39,46)(H,40,44)(H,41,45)/t27-,28+,30-,31-,32-/m0/s1
> <PUBCHEM_IUPAC_INCHIKEY>
CRELQZBUMUZLOU-MUKKBFGWSA-N
> <PUBCHEM_XLOGP3_AA>
3.2
> <PUBCHEM_EXACT_MASS>
688.30430432
> <PUBCHEM_MOLECULAR_FORMULA>
C36H44N6O6S
> <PUBCHEM_MOLECULAR_WEIGHT>
688.8
> <PUBCHEM_OPENEYE_CAN_SMILES>
CCC(C=O)NC(=O)C1CC(CN1C(=O)C(C(C)C)NC(=O)C(CSCC2=CC=CC=C2)NC(=O)C3=NC=CN=C3)OCC4=CC=CC=C4
> <PUBCHEM_OPENEYE_ISO_SMILES>
CC[C@@H](C=O)NC(=O)[C@@H]1C[C@H](CN1C(=O)[C@H](C(C)C)NC(=O)[C@H](CSCC2=CC=CC=C2)NC(=O)C3=NC=CN=C3)OCC4=CC=CC=C4
> <PUBCHEM_CACTVS_TPSA>
185
> <PUBCHEM_MONOISOTOPIC_WEIGHT>
688.30430432
> <PUBCHEM_TOTAL_CHARGE>
0
> <PUBCHEM_HEAVY_ATOM_COUNT>
49
> <PUBCHEM_ATOM_DEF_STEREO_COUNT>
5
> <PUBCHEM_ATOM_UDEF_STEREO_COUNT>
0
> <PUBCHEM_BOND_DEF_STEREO_COUNT>
0
> <PUBCHEM_BOND_UDEF_STEREO_COUNT>
0
> <PUBCHEM_ISOTOPIC_ATOM_COUNT>
0
> <PUBCHEM_COMPONENT_COUNT>
1
> <PUBCHEM_CACTVS_TAUTO_COUNT>
-1
> <PUBCHEM_COORDINATE_TYPE>
1
5
255
> <PUBCHEM_BONDANNOTATIONS>
19  10  6
29  11  5
12  40  8
12  47  8
13  42  8
13  49  8
14  20  6
15  2  5
27  33  8
27  34  8
33  35  8
34  36  8
35  37  8
36  37  8
40  42  8
41  43  8
41  44  8
43  45  8
44  46  8
45  48  8
46  48  8
47  49  8
25  9  5
$$$$
