506734
  -OEChem-10302200282D
116116  0     1  0  0  0  0  0999 V2000
    6.3301    1.3100    0.0000 O   0  0  0  0  0  0  0  0  0  0  0  0
    5.4641   -2.1900    0.0000 O   0  0  0  0  0  0  0  0  0  0  0  0
    8.9282   -3.1900    0.0000 O   0  0  0  0  0  0  0  0  0  0  0  0
    6.3301    2.3100    0.0000 O   0  0  0  0  0  0  0  0  0  0  0  0
    9.7942   -3.6900    0.0000 O   0  0  0  0  0  0  0  0  0  0  0  0
    7.1962    8.8100    0.0000 O   0  0  0  0  0  0  0  0  0  0  0  0
    5.4641    5.8100    0.0000 O   0  0  0  0  0  0  0  0  0  0  0  0
    6.3301   -6.6900    0.0000 O   0  0  0  0  0  0  0  0  0  0  0  0
    8.0622    5.3100    0.0000 O   0  0  0  0  0  0  0  0  0  0  0  0
    8.0622   -6.6900    0.0000 O   0  0  0  0  0  0  0  0  0  0  0  0
   12.3923   -6.1900    0.0000 O   0  0  0  0  0  0  0  0  0  0  0  0
   12.3923   -8.1900    0.0000 O   0  0  0  0  0  0  0  0  0  0  0  0
   10.6603   -8.1900    0.0000 O   0  0  0  0  0  0  0  0  0  0  0  0
    6.3301   -0.6900    0.0000 N   0  0  0  0  0  0  0  0  0  0  0  0
    4.5981    1.3100    0.0000 N   0  0  0  0  0  0  0  0  0  0  0  0
    7.1962   -3.1900    0.0000 N   0  0  0  0  0  0  0  0  0  0  0  0
    5.4641    3.8100    0.0000 N   0  0  0  0  0  0  0  0  0  0  0  0
    7.1962    6.8100    0.0000 N   0  0  0  0  0  0  0  0  0  0  0  0
   11.5263   -4.6900    0.0000 N   0  0  0  0  0  0  0  0  0  0  0  0
    5.4641   -0.1900    0.0000 C   0  0  1  0  0  0  0  0  0  0  0  0
    7.1962   -2.1900    0.0000 C   0  0  1  0  0  0  0  0  0  0  0  0
    4.5981   -0.6900    0.0000 C   0  0  0  0  0  0  0  0  0  0  0  0
    4.5981    2.3100    0.0000 C   0  0  1  0  0  0  0  0  0  0  0  0
    8.0622   -1.6900    0.0000 C   0  0  0  0  0  0  0  0  0  0  0  0
    3.7320    2.8100    0.0000 C   0  0  0  0  0  0  0  0  0  0  0  0
    2.8660    2.3100    0.0000 C   0  0  0  0  0  0  0  0  0  0  0  0
    5.4641    0.8100    0.0000 C   0  0  0  0  0  0  0  0  0  0  0  0
    6.3301   -1.6900    0.0000 C   0  0  0  0  0  0  0  0  0  0  0  0
    8.0622   -4.6900    0.0000 C   0  0  1  0  0  0  0  0  0  0  0  0
    8.0622   -3.6900    0.0000 C   0  0  0  0  0  0  0  0  0  0  0  0
    8.9282   -5.1900    0.0000 C   0  0  0  0  0  0  0  0  0  0  0  0
    5.4641    2.8100    0.0000 C   0  0  0  0  0  0  0  0  0  0  0  0
    4.5981   -1.6900    0.0000 C   0  0  0  0  0  0  0  0  0  0  0  0
    3.7320   -0.1900    0.0000 C   0  0  0  0  0  0  0  0  0  0  0  0
    8.9282   -2.1900    0.0000 C   0  0  0  0  0  0  0  0  0  0  0  0
    8.0622   -0.6900    0.0000 C   0  0  0  0  0  0  0  0  0  0  0  0
    7.1962   -5.1900    0.0000 C   0  0  0  0  0  0  0  0  0  0  0  0
    6.3301    4.3100    0.0000 C   0  0  1  0  0  0  0  0  0  0  0  0
    2.0000    2.8100    0.0000 C   0  0  0  0  0  0  0  0  0  0  0  0
    2.8660    1.3100    0.0000 C   0  0  0  0  0  0  0  0  0  0  0  0
   10.6603   -5.1900    0.0000 C   0  0  2  0  0  0  0  0  0  0  0  0
    9.7942   -4.6900    0.0000 C   0  0  0  0  0  0  0  0  0  0  0  0
    7.1962    3.8100    0.0000 C   0  0  0  0  0  0  0  0  0  0  0  0
   10.6603   -6.1900    0.0000 C   0  0  0  0  0  0  0  0  0  0  0  0
    6.3301    5.3100    0.0000 C   0  0  0  0  0  0  0  0  0  0  0  0
    7.1962    5.8100    0.0000 C   0  0  0  0  0  0  0  0  0  0  0  0
    7.1962   -6.1900    0.0000 C   0  0  0  0  0  0  0  0  0  0  0  0
    8.0622    7.3100    0.0000 C   0  0  0  0  0  0  0  0  0  0  0  0
    6.3301    7.3100    0.0000 C   0  0  0  0  0  0  0  0  0  0  0  0
   11.5263   -6.6900    0.0000 C   0  0  0  0  0  0  0  0  0  0  0  0
    7.1962    2.8100    0.0000 C   0  0  0  0  0  0  0  0  0  0  0  0
    8.0622    8.3100    0.0000 C   0  0  0  0  0  0  0  0  0  0  0  0
    6.3301    8.3100    0.0000 C   0  0  0  0  0  0  0  0  0  0  0  0
   12.3923   -5.1900    0.0000 C   0  0  0  0  0  0  0  0  0  0  0  0
   11.5263   -7.6900    0.0000 C   0  0  0  0  0  0  0  0  0  0  0  0
   13.2583   -4.6900    0.0000 C   0  0  0  0  0  0  0  0  0  0  0  0
    5.4641   -0.8100    0.0000 H   0  0  0  0  0  0  0  0  0  0  0  0
    6.6592   -2.5000    0.0000 H   0  0  0  0  0  0  0  0  0  0  0  0
    4.5981   -0.0700    0.0000 H   0  0  0  0  0  0  0  0  0  0  0  0
    5.1350    2.0000    0.0000 H   0  0  0  0  0  0  0  0  0  0  0  0
    8.0622   -2.3100    0.0000 H   0  0  0  0  0  0  0  0  0  0  0  0
    4.1306    3.2850    0.0000 H   0  0  0  0  0  0  0  0  0  0  0  0
    3.3335    3.2850    0.0000 H   0  0  0  0  0  0  0  0  0  0  0  0
    2.8660    2.9300    0.0000 H   0  0  0  0  0  0  0  0  0  0  0  0
    6.8671   -0.3800    0.0000 H   0  0  0  0  0  0  0  0  0  0  0  0
    8.0622   -5.3100    0.0000 H   0  0  0  0  0  0  0  0  0  0  0  0
    4.0611    1.0000    0.0000 H   0  0  0  0  0  0  0  0  0  0  0  0
    6.6592   -3.5000    0.0000 H   0  0  0  0  0  0  0  0  0  0  0  0
    8.5297   -5.6650    0.0000 H   0  0  0  0  0  0  0  0  0  0  0  0
    9.3267   -5.6650    0.0000 H   0  0  0  0  0  0  0  0  0  0  0  0
    3.9781   -1.6900    0.0000 H   0  0  0  0  0  0  0  0  0  0  0  0
    4.5981   -2.3100    0.0000 H   0  0  0  0  0  0  0  0  0  0  0  0
    5.2181   -1.6900    0.0000 H   0  0  0  0  0  0  0  0  0  0  0  0
    4.0420    0.3469    0.0000 H   0  0  0  0  0  0  0  0  0  0  0  0
    3.1951    0.1200    0.0000 H   0  0  0  0  0  0  0  0  0  0  0  0
    3.4220   -0.7269    0.0000 H   0  0  0  0  0  0  0  0  0  0  0  0
    8.6182   -2.7269    0.0000 H   0  0  0  0  0  0  0  0  0  0  0  0
    9.4651   -2.5000    0.0000 H   0  0  0  0  0  0  0  0  0  0  0  0
    9.2382   -1.6531    0.0000 H   0  0  0  0  0  0  0  0  0  0  0  0
    8.6822   -0.6900    0.0000 H   0  0  0  0  0  0  0  0  0  0  0  0
    8.0622   -0.0700    0.0000 H   0  0  0  0  0  0  0  0  0  0  0  0
    7.4422   -0.6900    0.0000 H   0  0  0  0  0  0  0  0  0  0  0  0
    6.9841   -4.6074    0.0000 H   0  0  0  0  0  0  0  0  0  0  0  0
    6.5856   -5.2977    0.0000 H   0  0  0  0  0  0  0  0  0  0  0  0
    5.7932    4.6200    0.0000 H   0  0  0  0  0  0  0  0  0  0  0  0
    2.3100    3.3469    0.0000 H   0  0  0  0  0  0  0  0  0  0  0  0
    1.4631    3.1200    0.0000 H   0  0  0  0  0  0  0  0  0  0  0  0
    1.6900    2.2731    0.0000 H   0  0  0  0  0  0  0  0  0  0  0  0
    2.2460    1.3100    0.0000 H   0  0  0  0  0  0  0  0  0  0  0  0
    2.8660    0.6900    0.0000 H   0  0  0  0  0  0  0  0  0  0  0  0
    3.4860    1.3100    0.0000 H   0  0  0  0  0  0  0  0  0  0  0  0
    4.9272    4.1200    0.0000 H   0  0  0  0  0  0  0  0  0  0  0  0
   11.1972   -5.5000    0.0000 H   0  0  0  0  0  0  0  0  0  0  0  0
    7.8067    3.7023    0.0000 H   0  0  0  0  0  0  0  0  0  0  0  0
    7.4082    4.3926    0.0000 H   0  0  0  0  0  0  0  0  0  0  0  0
   10.0497   -6.0823    0.0000 H   0  0  0  0  0  0  0  0  0  0  0  0
   10.4482   -6.7726    0.0000 H   0  0  0  0  0  0  0  0  0  0  0  0
   11.5263   -4.0700    0.0000 H   0  0  0  0  0  0  0  0  0  0  0  0
    8.2742    6.7274    0.0000 H   0  0  0  0  0  0  0  0  0  0  0  0
    8.6728    7.4177    0.0000 H   0  0  0  0  0  0  0  0  0  0  0  0
    5.7196    7.4177    0.0000 H   0  0  0  0  0  0  0  0  0  0  0  0
    6.1181    6.7274    0.0000 H   0  0  0  0  0  0  0  0  0  0  0  0
   12.1369   -6.7977    0.0000 H   0  0  0  0  0  0  0  0  0  0  0  0
   11.7383   -6.1074    0.0000 H   0  0  0  0  0  0  0  0  0  0  0  0
    6.5762    2.8100    0.0000 H   0  0  0  0  0  0  0  0  0  0  0  0
    7.1962    2.1900    0.0000 H   0  0  0  0  0  0  0  0  0  0  0  0
    7.8162    2.8100    0.0000 H   0  0  0  0  0  0  0  0  0  0  0  0
    8.6728    8.2023    0.0000 H   0  0  0  0  0  0  0  0  0  0  0  0
    8.2742    8.8926    0.0000 H   0  0  0  0  0  0  0  0  0  0  0  0
    6.1181    8.8926    0.0000 H   0  0  0  0  0  0  0  0  0  0  0  0
    5.7196    8.2023    0.0000 H   0  0  0  0  0  0  0  0  0  0  0  0
    6.3301   -7.3100    0.0000 H   0  0  0  0  0  0  0  0  0  0  0  0
   13.5683   -5.2269    0.0000 H   0  0  0  0  0  0  0  0  0  0  0  0
   13.7953   -4.3800    0.0000 H   0  0  0  0  0  0  0  0  0  0  0  0
   12.9483   -4.1531    0.0000 H   0  0  0  0  0  0  0  0  0  0  0  0
   12.3923   -8.8100    0.0000 H   0  0  0  0  0  0  0  0  0  0  0  0
  1 27  2  0  0  0  0
  2 28  2  0  0  0  0
  3 30  2  0  0  0  0
  4 32  2  0  0  0  0
  5 42  2  0  0  0  0
  6 52  1  0  0  0  0
  6 53  1  0  0  0  0
  7 45  2  0  0  0  0
  8 47  1  0  0  0  0
  8112  1  0  0  0  0
  9 46  2  0  0  0  0
 10 47  2  0  0  0  0
 11 54  2  0  0  0  0
 12 55  1  0  0  0  0
 12116  1  0  0  0  0
 13 55  2  0  0  0  0
 20 14  1  1  0  0  0
 14 28  1  0  0  0  0
 14 65  1  0  0  0  0
 23 15  1  1  0  0  0
 15 27  1  0  0  0  0
 15 67  1  0  0  0  0
 21 16  1  6  0  0  0
 16 30  1  0  0  0  0
 16 68  1  0  0  0  0
 17 32  1  0  0  0  0
 38 17  1  6  0  0  0
 17 92  1  0  0  0  0
 18 46  1  0  0  0  0
 18 48  1  0  0  0  0
 18 49  1  0  0  0  0
 41 19  1  1  0  0  0
 19 54  1  0  0  0  0
 19 98  1  0  0  0  0
 20 22  1  0  0  0  0
 20 27  1  0  0  0  0
 20 57  1  0  0  0  0
 21 24  1  0  0  0  0
 21 28  1  0  0  0  0
 21 58  1  0  0  0  0
 22 33  1  0  0  0  0
 22 34  1  0  0  0  0
 22 59  1  0  0  0  0
 23 25  1  0  0  0  0
 23 32  1  0  0  0  0
 23 60  1  0  0  0  0
 24 35  1  0  0  0  0
 24 36  1  0  0  0  0
 24 61  1  0  0  0  0
 25 26  1  0  0  0  0
 25 62  1  0  0  0  0
 25 63  1  0  0  0  0
 26 39  1  0  0  0  0
 26 40  1  0  0  0  0
 26 64  1  0  0  0  0
 29 30  1  0  0  0  0
 29 31  1  0  0  0  0
 29 37  1  1  0  0  0
 29 66  1  0  0  0  0
 31 42  1  0  0  0  0
 31 69  1  0  0  0  0
 31 70  1  0  0  0  0
 33 71  1  0  0  0  0
 33 72  1  0  0  0  0
 33 73  1  0  0  0  0
 34 74  1  0  0  0  0
 34 75  1  0  0  0  0
 34 76  1  0  0  0  0
 35 77  1  0  0  0  0
 35 78  1  0  0  0  0
 35 79  1  0  0  0  0
 36 80  1  0  0  0  0
 36 81  1  0  0  0  0
 36 82  1  0  0  0  0
 37 47  1  0  0  0  0
 37 83  1  0  0  0  0
 37 84  1  0  0  0  0
 38 43  1  0  0  0  0
 38 45  1  0  0  0  0
 38 85  1  0  0  0  0
 39 86  1  0  0  0  0
 39 87  1  0  0  0  0
 39 88  1  0  0  0  0
 40 89  1  0  0  0  0
 40 90  1  0  0  0  0
 40 91  1  0  0  0  0
 41 42  1  0  0  0  0
 41 44  1  0  0  0  0
 41 93  1  0  0  0  0
 43 51  1  0  0  0  0
 43 94  1  0  0  0  0
 43 95  1  0  0  0  0
 44 50  1  0  0  0  0
 44 96  1  0  0  0  0
 44 97  1  0  0  0  0
 45 46  1  0  0  0  0
 48 52  1  0  0  0  0
 48 99  1  0  0  0  0
 48100  1  0  0  0  0
 49 53  1  0  0  0  0
 49101  1  0  0  0  0
 49102  1  0  0  0  0
 50 55  1  0  0  0  0
 50103  1  0  0  0  0
 50104  1  0  0  0  0
 51105  1  0  0  0  0
 51106  1  0  0  0  0
 51107  1  0  0  0  0
 52108  1  0  0  0  0
 52109  1  0  0  0  0
 53110  1  0  0  0  0
 53111  1  0  0  0  0
 54 56  1  0  0  0  0
 56113  1  0  0  0  0
 56114  1  0  0  0  0
 56115  1  0  0  0  0
M  END
> <PUBCHEM_COMPOUND_CID>
506734
> <PUBCHEM_COMPOUND_CANONICALIZED>
1
> <PUBCHEM_CACTVS_COMPLEXITY>
1440
> <PUBCHEM_CACTVS_HBOND_ACCEPTOR>
13
> <PUBCHEM_CACTVS_HBOND_DONOR>
7
> <PUBCHEM_CACTVS_ROTATABLE_BOND>
24
> <PUBCHEM_CACTVS_SUBSKEYS>
AAADcfB/vAAAAAAAAAAAAAAAAAAAAAAAAAAsAAAAAAAAAAAAAAAAHgAQCAAADSzhgAYCCAPABgAIAIGQGAAAAAAAAAAAAIGIAAACQBoAwCAXQAAEFgCQAAG/z+C+AAAAAAAAAAAAAAAAAAAAAAAAAAAAAA==
> <PUBCHEM_IUPAC_OPENEYE_NAME>
(3S,6S)-6-acetamido-3-[[(1S)-1-[[(1S)-1-[[(1S)-1-[[(1S)-1-ethyl-3-morpholino-2,3-dioxo-propyl]carbamoyl]-3-methyl-butyl]carbamoyl]-2-methyl-propyl]carbamoyl]-2-methyl-propyl]carbamoyl]-5-oxo-nonanedioic acid
> <PUBCHEM_IUPAC_CAS_NAME>
(3S,6S)-6-acetamido-3-[[[(2S)-3-methyl-1-[[(2S)-3-methyl-1-[[(2S)-4-methyl-1-[[(3S)-1-(4-morpholinyl)-1,2-dioxopentan-3-yl]amino]-1-oxopentan-2-yl]amino]-1-oxobutan-2-yl]amino]-1-oxobutan-2-yl]amino]-oxomethyl]-5-oxononanedioic acid
> <PUBCHEM_IUPAC_NAME_MARKUP>
(3<I>S</I>,6<I>S</I>)-6-acetamido-3-[[(2<I>S</I>)-3-methyl-1-[[(2<I>S</I>)-3-methyl-1-[[(2<I>S</I>)-4-methyl-1-[[(3<I>S</I>)-1-morpholin-4-yl-1,2-dioxopentan-3-yl]amino]-1-oxopentan-2-yl]amino]-1-oxobutan-2-yl]amino]-1-oxobutan-2-yl]carbamoyl]-5-oxononanedioic acid
> <PUBCHEM_IUPAC_NAME>
(3S,6S)-6-acetamido-3-[[(2S)-3-methyl-1-[[(2S)-3-methyl-1-[[(2S)-4-methyl-1-[[(3S)-1-morpholin-4-yl-1,2-dioxopentan-3-yl]amino]-1-oxopentan-2-yl]amino]-1-oxobutan-2-yl]amino]-1-oxobutan-2-yl]carbamoyl]-5-oxononanedioic acid
> <PUBCHEM_IUPAC_SYSTEMATIC_NAME>
(3S,6S)-6-acetamido-3-[[(2S)-3-methyl-1-[[(2S)-3-methyl-1-[[(2S)-4-methyl-1-[[(3S)-1-morpholin-4-yl-1,2-bis(oxidanylidene)pentan-3-yl]amino]-1-oxidanylidene-pentan-2-yl]amino]-1-oxidanylidene-butan-2-yl]amino]-1-oxidanylidene-butan-2-yl]carbamoyl]-5-oxidanylidene-nonanedioic acid
> <PUBCHEM_IUPAC_TRADITIONAL_NAME>
(3S,6S)-6-acetamido-3-[[(1S)-1-[[(1S)-1-[[(1S)-1-[[(1S)-1-ethyl-2,3-diketo-3-morpholino-propyl]carbamoyl]-3-methyl-butyl]carbamoyl]-2-methyl-propyl]carbamoyl]-2-methyl-propyl]carbamoyl]-5-keto-azelaic acid
> <PUBCHEM_IUPAC_INCHI>
InChI=1S/C37H60N6O13/c1-9-24(32(50)37(55)43-12-14-56-15-13-43)39-34(52)26(16-19(2)3)40-35(53)30(20(4)5)42-36(54)31(21(6)7)41-33(51)23(18-29(48)49)17-27(45)25(38-22(8)44)10-11-28(46)47/h19-21,23-26,30-31H,9-18H2,1-8H3,(H,38,44)(H,39,52)(H,40,53)(H,41,51)(H,42,54)(H,46,47)(H,48,49)/t23-,24-,25-,26-,30-,31-/m0/s1
> <PUBCHEM_IUPAC_INCHIKEY>
SHDWRIORNDLZLL-PXQNEPCRSA-N
> <PUBCHEM_XLOGP3_AA>
0.4
> <PUBCHEM_EXACT_MASS>
796.42183599
> <PUBCHEM_MOLECULAR_FORMULA>
C37H60N6O13
> <PUBCHEM_MOLECULAR_WEIGHT>
796.9
> <PUBCHEM_OPENEYE_CAN_SMILES>
CCC(C(=O)C(=O)N1CCOCC1)NC(=O)C(CC(C)C)NC(=O)C(C(C)C)NC(=O)C(C(C)C)NC(=O)C(CC(=O)C(CCC(=O)O)NC(=O)C)CC(=O)O
> <PUBCHEM_OPENEYE_ISO_SMILES>
CC[C@@H](C(=O)C(=O)N1CCOCC1)NC(=O)[C@H](CC(C)C)NC(=O)[C@H](C(C)C)NC(=O)[C@H](C(C)C)NC(=O)[C@@H](CC(=O)[C@H](CCC(=O)O)NC(=O)C)CC(=O)O
> <PUBCHEM_CACTVS_TPSA>
284
> <PUBCHEM_MONOISOTOPIC_WEIGHT>
796.42183599
> <PUBCHEM_TOTAL_CHARGE>
0
> <PUBCHEM_HEAVY_ATOM_COUNT>
56
> <PUBCHEM_ATOM_DEF_STEREO_COUNT>
6
> <PUBCHEM_ATOM_UDEF_STEREO_COUNT>
0
> <PUBCHEM_BOND_DEF_STEREO_COUNT>
0
> <PUBCHEM_BOND_UDEF_STEREO_COUNT>
0
> <PUBCHEM_ISOTOPIC_ATOM_COUNT>
0
> <PUBCHEM_COMPONENT_COUNT>
1
> <PUBCHEM_CACTVS_TAUTO_COUNT>
-1
> <PUBCHEM_COORDINATE_TYPE>
1
5
255
> <PUBCHEM_BONDANNOTATIONS>
20  14  5
23  15  5
21  16  6
38  17  6
41  19  5
29  37  5
$$$$
