506779
  -OEChem-10302200282D
 75 78  0     1  0  0  0  0  0999 V2000
   11.6097   -2.0990    0.0000 O   0  0  0  0  0  0  0  0  0  0  0  0
    7.7619   -0.1452    0.0000 O   0  0  0  0  0  0  0  0  0  0  0  0
    8.5625    0.9568    0.0000 O   0  0  0  0  0  0  0  0  0  0  0  0
    6.7619   -3.6093    0.0000 O   0  0  0  0  0  0  0  0  0  0  0  0
   10.2609    4.1373    0.0000 O   0  0  0  0  0  0  0  0  0  0  0  0
    9.2619   -1.0112    0.0000 N   0  0  0  0  0  0  0  0  0  0  0  0
   10.2098    1.4920    0.0000 N   0  0  0  0  0  0  0  0  0  0  0  0
    6.7619   -1.8772    0.0000 N   0  0  0  0  0  0  0  0  0  0  0  0
    4.6783   -3.5480    0.0000 N   0  0  0  0  0  0  0  0  0  0  0  0
    9.8497   -0.2022    0.0000 C   0  0  1  0  0  0  0  0  0  0  0  0
   10.8007   -1.5112    0.0000 C   0  0  2  0  0  0  0  0  0  0  0  0
   10.8007   -0.5112    0.0000 C   0  0  0  0  0  0  0  0  0  0  0  0
    9.8497   -1.8202    0.0000 C   0  0  0  0  0  0  0  0  0  0  0  0
    8.2619   -1.0112    0.0000 C   0  0  0  0  0  0  0  0  0  0  0  0
    7.7619   -1.8772    0.0000 C   0  0  2  0  0  0  0  0  0  0  0  0
    9.5406    0.7489    0.0000 C   0  0  0  0  0  0  0  0  0  0  0  0
    8.2619   -2.7432    0.0000 C   0  0  0  0  0  0  0  0  0  0  0  0
   12.5233   -1.6922    0.0000 C   0  0  0  0  0  0  0  0  0  0  0  0
    7.7619   -3.6093    0.0000 C   0  0  0  0  0  0  0  0  0  0  0  0
    9.2619   -2.7432    0.0000 C   0  0  0  0  0  0  0  0  0  0  0  0
    9.9008    2.4431    0.0000 C   0  0  1  0  0  0  0  0  0  0  0  0
   13.3323   -2.2800    0.0000 C   0  0  0  0  0  0  0  0  0  0  0  0
    6.2619   -2.7432    0.0000 C   0  0  0  0  0  0  0  0  0  0  0  0
    8.9226    2.6510    0.0000 C   0  0  0  0  0  0  0  0  0  0  0  0
   10.5699    3.1862    0.0000 C   0  0  0  0  0  0  0  0  0  0  0  0
    5.2619   -2.7432    0.0000 C   0  0  0  0  0  0  0  0  0  0  0  0
    8.6136    3.6021    0.0000 C   0  0  0  0  0  0  0  0  0  0  0  0
   13.2278   -3.2745    0.0000 C   0  0  0  0  0  0  0  0  0  0  0  0
   14.2458   -1.8733    0.0000 C   0  0  0  0  0  0  0  0  0  0  0  0
    4.6783   -1.9385    0.0000 C   0  0  0  0  0  0  0  0  0  0  0  0
    3.7320   -3.2432    0.0000 C   0  0  0  0  0  0  0  0  0  0  0  0
    3.7320   -2.2432    0.0000 C   0  0  0  0  0  0  0  0  0  0  0  0
   14.0368   -3.8623    0.0000 C   0  0  0  0  0  0  0  0  0  0  0  0
   15.0549   -2.4611    0.0000 C   0  0  0  0  0  0  0  0  0  0  0  0
   14.9503   -3.4556    0.0000 C   0  0  0  0  0  0  0  0  0  0  0  0
    2.8660   -3.7432    0.0000 C   0  0  0  0  0  0  0  0  0  0  0  0
    2.8660   -1.7432    0.0000 C   0  0  0  0  0  0  0  0  0  0  0  0
    2.0000   -3.2432    0.0000 C   0  0  0  0  0  0  0  0  0  0  0  0
    2.0000   -2.2432    0.0000 C   0  0  0  0  0  0  0  0  0  0  0  0
    9.2373   -0.1052    0.0000 H   0  0  0  0  0  0  0  0  0  0  0  0
   10.7037   -2.1236    0.0000 H   0  0  0  0  0  0  0  0  0  0  0  0
   11.4173   -0.5760    0.0000 H   0  0  0  0  0  0  0  0  0  0  0  0
   10.9296    0.0953    0.0000 H   0  0  0  0  0  0  0  0  0  0  0  0
    9.3127   -2.1302    0.0000 H   0  0  0  0  0  0  0  0  0  0  0  0
   10.1018   -2.3866    0.0000 H   0  0  0  0  0  0  0  0  0  0  0  0
    7.4519   -1.3403    0.0000 H   0  0  0  0  0  0  0  0  0  0  0  0
    8.5719   -3.2802    0.0000 H   0  0  0  0  0  0  0  0  0  0  0  0
   10.8162    1.3631    0.0000 H   0  0  0  0  0  0  0  0  0  0  0  0
    6.4519   -1.3403    0.0000 H   0  0  0  0  0  0  0  0  0  0  0  0
   12.9693   -1.2616    0.0000 H   0  0  0  0  0  0  0  0  0  0  0  0
   12.1766   -1.1782    0.0000 H   0  0  0  0  0  0  0  0  0  0  0  0
    7.2249   -3.2993    0.0000 H   0  0  0  0  0  0  0  0  0  0  0  0
    7.4519   -4.1462    0.0000 H   0  0  0  0  0  0  0  0  0  0  0  0
    8.2988   -3.9193    0.0000 H   0  0  0  0  0  0  0  0  0  0  0  0
    9.2619   -3.3632    0.0000 H   0  0  0  0  0  0  0  0  0  0  0  0
    9.8819   -2.7432    0.0000 H   0  0  0  0  0  0  0  0  0  0  0  0
    9.2619   -2.1232    0.0000 H   0  0  0  0  0  0  0  0  0  0  0  0
   10.5072    2.3142    0.0000 H   0  0  0  0  0  0  0  0  0  0  0  0
    8.3086    2.5647    0.0000 H   0  0  0  0  0  0  0  0  0  0  0  0
    8.9010    2.0314    0.0000 H   0  0  0  0  0  0  0  0  0  0  0  0
   11.1763    3.0573    0.0000 H   0  0  0  0  0  0  0  0  0  0  0  0
    9.2032    3.7936    0.0000 H   0  0  0  0  0  0  0  0  0  0  0  0
    8.4220    4.1917    0.0000 H   0  0  0  0  0  0  0  0  0  0  0  0
    8.0239    3.4105    0.0000 H   0  0  0  0  0  0  0  0  0  0  0  0
   12.6614   -3.5267    0.0000 H   0  0  0  0  0  0  0  0  0  0  0  0
   14.3107   -1.2567    0.0000 H   0  0  0  0  0  0  0  0  0  0  0  0
    4.8709   -4.1373    0.0000 H   0  0  0  0  0  0  0  0  0  0  0  0
    4.8709   -1.3492    0.0000 H   0  0  0  0  0  0  0  0  0  0  0  0
   13.9720   -4.4789    0.0000 H   0  0  0  0  0  0  0  0  0  0  0  0
   15.6213   -2.2089    0.0000 H   0  0  0  0  0  0  0  0  0  0  0  0
   15.4519   -3.8200    0.0000 H   0  0  0  0  0  0  0  0  0  0  0  0
    2.8660   -4.3632    0.0000 H   0  0  0  0  0  0  0  0  0  0  0  0
    2.8660   -1.1232    0.0000 H   0  0  0  0  0  0  0  0  0  0  0  0
    1.4631   -3.5532    0.0000 H   0  0  0  0  0  0  0  0  0  0  0  0
    1.4631   -1.9332    0.0000 H   0  0  0  0  0  0  0  0  0  0  0  0
 11  1  1  1  0  0  0
  1 18  1  0  0  0  0
  2 14  2  0  0  0  0
  3 16  2  0  0  0  0
  4 23  2  0  0  0  0
  5 25  2  0  0  0  0
  6 10  1  0  0  0  0
  6 13  1  0  0  0  0
  6 14  1  0  0  0  0
  7 16  1  0  0  0  0
 21  7  1  1  0  0  0
  7 48  1  0  0  0  0
 15  8  1  6  0  0  0
  8 23  1  0  0  0  0
  8 49  1  0  0  0  0
  9 26  1  0  0  0  0
  9 31  1  0  0  0  0
  9 67  1  0  0  0  0
 10 12  1  0  0  0  0
 10 16  1  6  0  0  0
 10 40  1  0  0  0  0
 11 12  1  0  0  0  0
 11 13  1  0  0  0  0
 11 41  1  0  0  0  0
 12 42  1  0  0  0  0
 12 43  1  0  0  0  0
 13 44  1  0  0  0  0
 13 45  1  0  0  0  0
 14 15  1  0  0  0  0
 15 17  1  0  0  0  0
 15 46  1  0  0  0  0
 17 19  1  0  0  0  0
 17 20  1  0  0  0  0
 17 47  1  0  0  0  0
 18 22  1  0  0  0  0
 18 50  1  0  0  0  0
 18 51  1  0  0  0  0
 19 52  1  0  0  0  0
 19 53  1  0  0  0  0
 19 54  1  0  0  0  0
 20 55  1  0  0  0  0
 20 56  1  0  0  0  0
 20 57  1  0  0  0  0
 21 24  1  0  0  0  0
 21 25  1  0  0  0  0
 21 58  1  0  0  0  0
 22 28  2  0  0  0  0
 22 29  1  0  0  0  0
 23 26  1  0  0  0  0
 24 27  1  0  0  0  0
 24 59  1  0  0  0  0
 24 60  1  0  0  0  0
 25 61  1  0  0  0  0
 26 30  2  0  0  0  0
 27 62  1  0  0  0  0
 27 63  1  0  0  0  0
 27 64  1  0  0  0  0
 28 33  1  0  0  0  0
 28 65  1  0  0  0  0
 29 34  2  0  0  0  0
 29 66  1  0  0  0  0
 30 32  1  0  0  0  0
 30 68  1  0  0  0  0
 31 32  1  0  0  0  0
 31 36  2  0  0  0  0
 32 37  2  0  0  0  0
 33 35  2  0  0  0  0
 33 69  1  0  0  0  0
 34 35  1  0  0  0  0
 34 70  1  0  0  0  0
 35 71  1  0  0  0  0
 36 38  1  0  0  0  0
 36 72  1  0  0  0  0
 37 39  1  0  0  0  0
 37 73  1  0  0  0  0
 38 39  2  0  0  0  0
 38 74  1  0  0  0  0
 39 75  1  0  0  0  0
M  END
> <PUBCHEM_COMPOUND_CID>
506779
> <PUBCHEM_COMPOUND_CANONICALIZED>
1
> <PUBCHEM_CACTVS_COMPLEXITY>
860
> <PUBCHEM_CACTVS_HBOND_ACCEPTOR>
5
> <PUBCHEM_CACTVS_HBOND_DONOR>
3
> <PUBCHEM_CACTVS_ROTATABLE_BOND>
11
> <PUBCHEM_CACTVS_SUBSKEYS>
AAADcfB7uAAAAAAAAAAAAAAAAAAAAWLAAAAwYAAAAAAAAFgB9AAAHgAQAAAADTzhngYywPPJlACoAy1y1ACCgCAnAiAImaG4bNgKZvLAtbmXMQhm1gHY6Ye6yaCeAAAAAAACAAAAAAAAAAQAAAAAAAAAAA==
> <PUBCHEM_IUPAC_OPENEYE_NAME>
N-[(1S)-1-[(2S,4R)-4-benzyloxy-2-[[(1S)-1-formylpropyl]carbamoyl]pyrrolidine-1-carbonyl]-2-methyl-propyl]-1H-indole-2-carboxamide
> <PUBCHEM_IUPAC_CAS_NAME>
N-[(2S)-3-methyl-1-oxo-1-[(2S,4R)-2-[oxo-[[(2S)-1-oxobutan-2-yl]amino]methyl]-4-phenylmethoxy-1-pyrrolidinyl]butan-2-yl]-1H-indole-2-carboxamide
> <PUBCHEM_IUPAC_NAME_MARKUP>
<I>N</I>-[(2<I>S</I>)-3-methyl-1-oxo-1-[(2<I>S</I>,4<I>R</I>)-2-[[(2<I>S</I>)-1-oxobutan-2-yl]carbamoyl]-4-phenylmethoxypyrrolidin-1-yl]butan-2-yl]-1<I>H</I>-indole-2-carboxamide
> <PUBCHEM_IUPAC_NAME>
N-[(2S)-3-methyl-1-oxo-1-[(2S,4R)-2-[[(2S)-1-oxobutan-2-yl]carbamoyl]-4-phenylmethoxypyrrolidin-1-yl]butan-2-yl]-1H-indole-2-carboxamide
> <PUBCHEM_IUPAC_SYSTEMATIC_NAME>
N-[(2S)-3-methyl-1-oxidanylidene-1-[(2S,4R)-2-[[(2S)-1-oxidanylidenebutan-2-yl]carbamoyl]-4-phenylmethoxy-pyrrolidin-1-yl]butan-2-yl]-1H-indole-2-carboxamide
> <PUBCHEM_IUPAC_TRADITIONAL_NAME>
N-[(1S)-1-[(2S,4R)-4-benzoxy-2-[[(1S)-1-formylpropyl]carbamoyl]pyrrolidine-1-carbonyl]-2-methyl-propyl]-1H-indole-2-carboxamide
> <PUBCHEM_IUPAC_INCHI>
InChI=1S/C30H36N4O5/c1-4-22(17-35)31-29(37)26-15-23(39-18-20-10-6-5-7-11-20)16-34(26)30(38)27(19(2)3)33-28(36)25-14-21-12-8-9-13-24(21)32-25/h5-14,17,19,22-23,26-27,32H,4,15-16,18H2,1-3H3,(H,31,37)(H,33,36)/t22-,23+,26-,27-/m0/s1
> <PUBCHEM_IUPAC_INCHIKEY>
UAANRKOBIIESGT-HSWFVFMJSA-N
> <PUBCHEM_XLOGP3_AA>
3.9
> <PUBCHEM_EXACT_MASS>
532.26857026
> <PUBCHEM_MOLECULAR_FORMULA>
C30H36N4O5
> <PUBCHEM_MOLECULAR_WEIGHT>
532.6
> <PUBCHEM_OPENEYE_CAN_SMILES>
CCC(C=O)NC(=O)C1CC(CN1C(=O)C(C(C)C)NC(=O)C2=CC3=CC=CC=C3N2)OCC4=CC=CC=C4
> <PUBCHEM_OPENEYE_ISO_SMILES>
CC[C@@H](C=O)NC(=O)[C@@H]1C[C@H](CN1C(=O)[C@H](C(C)C)NC(=O)C2=CC3=CC=CC=C3N2)OCC4=CC=CC=C4
> <PUBCHEM_CACTVS_TPSA>
121
> <PUBCHEM_MONOISOTOPIC_WEIGHT>
532.26857026
> <PUBCHEM_TOTAL_CHARGE>
0
> <PUBCHEM_HEAVY_ATOM_COUNT>
39
> <PUBCHEM_ATOM_DEF_STEREO_COUNT>
4
> <PUBCHEM_ATOM_UDEF_STEREO_COUNT>
0
> <PUBCHEM_BOND_DEF_STEREO_COUNT>
0
> <PUBCHEM_BOND_UDEF_STEREO_COUNT>
0
> <PUBCHEM_ISOTOPIC_ATOM_COUNT>
0
> <PUBCHEM_COMPONENT_COUNT>
1
> <PUBCHEM_CACTVS_TAUTO_COUNT>
-1
> <PUBCHEM_COORDINATE_TYPE>
1
5
255
> <PUBCHEM_BONDANNOTATIONS>
11  1  5
10  16  6
22  28  8
22  29  8
26  30  8
28  33  8
29  34  8
30  32  8
31  32  8
31  36  8
32  37  8
33  35  8
34  35  8
36  38  8
37  39  8
38  39  8
21  7  5
15  8  6
9  26  8
9  31  8
$$$$
