506757
  -OEChem-10302200282D
 95 99  0     1  0  0  0  0  0999 V2000
    5.5714   -1.7528    0.0000 O   0  0  0  0  0  0  0  0  0  0  0  0
    9.8806   -1.5209    0.0000 O   0  0  0  0  0  0  0  0  0  0  0  0
    9.7382   -2.8755    0.0000 O   0  0  0  0  0  0  0  0  0  0  0  0
    9.0146    1.9791    0.0000 O   0  0  0  0  0  0  0  0  0  0  0  0
    9.8576   -6.4791    0.0000 O   0  0  0  0  0  0  0  0  0  0  0  0
    9.0146    2.9791    0.0000 O   0  0  0  0  0  0  0  0  0  0  0  0
    8.1486   -1.5209    0.0000 N   0  0  0  0  0  0  0  0  0  0  0  0
    9.8806    0.4791    0.0000 N   0  0  0  0  0  0  0  0  0  0  0  0
    8.5792   -4.1627    0.0000 N   0  0  0  0  0  0  0  0  0  0  0  0
   10.7466    2.9791    0.0000 N   0  0  0  0  0  0  0  0  0  0  0  0
    9.0146    4.9791    0.0000 N   0  0  0  0  0  0  0  0  0  0  0  0
   10.7466    5.9791    0.0000 N   0  0  0  0  0  0  0  0  0  0  0  0
    8.0440   -2.5154    0.0000 C   0  0  1  0  0  0  0  0  0  0  0  0
    6.5659   -1.8573    0.0000 C   0  0  2  0  0  0  0  0  0  0  0  0
    7.0659   -2.7233    0.0000 C   0  0  0  0  0  0  0  0  0  0  0  0
    7.2350   -1.1142    0.0000 C   0  0  0  0  0  0  0  0  0  0  0  0
    9.0146   -1.0209    0.0000 C   0  0  0  0  0  0  0  0  0  0  0  0
    9.0146   -0.0209    0.0000 C   0  0  2  0  0  0  0  0  0  0  0  0
    8.7872   -3.1846    0.0000 C   0  0  0  0  0  0  0  0  0  0  0  0
    8.1486    0.4791    0.0000 C   0  0  0  0  0  0  0  0  0  0  0  0
    4.9836   -2.5618    0.0000 C   0  0  0  0  0  0  0  0  0  0  0  0
    8.1486    1.4791    0.0000 C   0  0  0  0  0  0  0  0  0  0  0  0
    7.2825   -0.0209    0.0000 C   0  0  0  0  0  0  0  0  0  0  0  0
    9.3224   -4.8318    0.0000 C   0  0  1  0  0  0  0  0  0  0  0  0
    9.8806    1.4791    0.0000 C   0  0  0  0  0  0  0  0  0  0  0  0
   10.7466    1.9791    0.0000 C   0  0  2  0  0  0  0  0  0  0  0  0
    3.9890   -2.4573    0.0000 C   0  0  0  0  0  0  0  0  0  0  0  0
   10.2735   -4.5228    0.0000 C   0  0  0  0  0  0  0  0  0  0  0  0
   11.6127    1.4791    0.0000 C   0  0  0  0  0  0  0  0  0  0  0  0
    9.1145   -5.8100    0.0000 C   0  0  0  0  0  0  0  0  0  0  0  0
   11.0166   -5.1919    0.0000 C   0  0  0  0  0  0  0  0  0  0  0  0
    3.5823   -1.5437    0.0000 C   0  0  0  0  0  0  0  0  0  0  0  0
    3.4013   -3.2663    0.0000 C   0  0  0  0  0  0  0  0  0  0  0  0
   12.4787    1.9791    0.0000 C   0  0  0  0  0  0  0  0  0  0  0  0
    2.5878   -1.4392    0.0000 C   0  0  0  0  0  0  0  0  0  0  0  0
    2.4067   -3.1618    0.0000 C   0  0  0  0  0  0  0  0  0  0  0  0
   13.3447    1.4791    0.0000 C   0  0  0  0  0  0  0  0  0  0  0  0
    9.8806    3.4791    0.0000 C   0  0  0  0  0  0  0  0  0  0  0  0
   12.4787    2.9791    0.0000 C   0  0  0  0  0  0  0  0  0  0  0  0
    2.0000   -2.2482    0.0000 C   0  0  0  0  0  0  0  0  0  0  0  0
   14.2107    1.9791    0.0000 C   0  0  0  0  0  0  0  0  0  0  0  0
   14.2107    2.9791    0.0000 C   0  0  0  0  0  0  0  0  0  0  0  0
   13.3447    3.4791    0.0000 C   0  0  0  0  0  0  0  0  0  0  0  0
    9.8806    4.4791    0.0000 C   0  0  0  0  0  0  0  0  0  0  0  0
   15.1047    1.4444    0.0000 C   0  0  0  0  0  0  0  0  0  0  0  0
   15.1047    3.5138    0.0000 C   0  0  0  0  0  0  0  0  0  0  0  0
   16.0107    1.9583    0.0000 C   0  0  0  0  0  0  0  0  0  0  0  0
   16.0107    2.9999    0.0000 C   0  0  0  0  0  0  0  0  0  0  0  0
   10.7466    4.9791    0.0000 C   0  0  0  0  0  0  0  0  0  0  0  0
    9.0146    5.9791    0.0000 C   0  0  0  0  0  0  0  0  0  0  0  0
    9.8806    6.4791    0.0000 C   0  0  0  0  0  0  0  0  0  0  0  0
    8.6228   -2.2932    0.0000 H   0  0  0  0  0  0  0  0  0  0  0  0
    6.3437   -1.2785    0.0000 H   0  0  0  0  0  0  0  0  0  0  0  0
    6.4995   -2.9755    0.0000 H   0  0  0  0  0  0  0  0  0  0  0  0
    7.2575   -3.3130    0.0000 H   0  0  0  0  0  0  0  0  0  0  0  0
    7.5450   -0.5772    0.0000 H   0  0  0  0  0  0  0  0  0  0  0  0
    6.7334   -0.7497    0.0000 H   0  0  0  0  0  0  0  0  0  0  0  0
    9.5515   -0.3309    0.0000 H   0  0  0  0  0  0  0  0  0  0  0  0
    8.6855    0.7891    0.0000 H   0  0  0  0  0  0  0  0  0  0  0  0
   10.4175    0.1691    0.0000 H   0  0  0  0  0  0  0  0  0  0  0  0
    7.9896   -4.3543    0.0000 H   0  0  0  0  0  0  0  0  0  0  0  0
    4.8127   -3.1578    0.0000 H   0  0  0  0  0  0  0  0  0  0  0  0
    5.5408   -2.8336    0.0000 H   0  0  0  0  0  0  0  0  0  0  0  0
    8.7686    1.4791    0.0000 H   0  0  0  0  0  0  0  0  0  0  0  0
    8.1486    2.0991    0.0000 H   0  0  0  0  0  0  0  0  0  0  0  0
    7.5286    1.4791    0.0000 H   0  0  0  0  0  0  0  0  0  0  0  0
    6.9725    0.5160    0.0000 H   0  0  0  0  0  0  0  0  0  0  0  0
    6.7456   -0.3309    0.0000 H   0  0  0  0  0  0  0  0  0  0  0  0
    7.5925   -0.5578    0.0000 H   0  0  0  0  0  0  0  0  0  0  0  0
    8.7327   -5.0234    0.0000 H   0  0  0  0  0  0  0  0  0  0  0  0
   10.2097    2.2891    0.0000 H   0  0  0  0  0  0  0  0  0  0  0  0
   10.7620   -4.1411    0.0000 H   0  0  0  0  0  0  0  0  0  0  0  0
    9.9824   -3.9754    0.0000 H   0  0  0  0  0  0  0  0  0  0  0  0
   11.2141    1.0042    0.0000 H   0  0  0  0  0  0  0  0  0  0  0  0
   12.0112    1.0042    0.0000 H   0  0  0  0  0  0  0  0  0  0  0  0
    8.5248   -6.0016    0.0000 H   0  0  0  0  0  0  0  0  0  0  0  0
   10.6017   -5.6527    0.0000 H   0  0  0  0  0  0  0  0  0  0  0  0
   11.4773   -5.6068    0.0000 H   0  0  0  0  0  0  0  0  0  0  0  0
   11.4315   -4.7312    0.0000 H   0  0  0  0  0  0  0  0  0  0  0  0
   11.2836    3.2891    0.0000 H   0  0  0  0  0  0  0  0  0  0  0  0
    3.9467   -1.0421    0.0000 H   0  0  0  0  0  0  0  0  0  0  0  0
    3.6534   -3.8327    0.0000 H   0  0  0  0  0  0  0  0  0  0  0  0
    2.3356   -0.8728    0.0000 H   0  0  0  0  0  0  0  0  0  0  0  0
    2.0423   -3.6633    0.0000 H   0  0  0  0  0  0  0  0  0  0  0  0
   13.3447    0.8591    0.0000 H   0  0  0  0  0  0  0  0  0  0  0  0
   11.9417    3.2891    0.0000 H   0  0  0  0  0  0  0  0  0  0  0  0
    1.3834   -2.1834    0.0000 H   0  0  0  0  0  0  0  0  0  0  0  0
   13.3447    4.0991    0.0000 H   0  0  0  0  0  0  0  0  0  0  0  0
   15.0975    0.8245    0.0000 H   0  0  0  0  0  0  0  0  0  0  0  0
   15.0975    4.1337    0.0000 H   0  0  0  0  0  0  0  0  0  0  0  0
   16.5465    1.6462    0.0000 H   0  0  0  0  0  0  0  0  0  0  0  0
   16.5465    3.3120    0.0000 H   0  0  0  0  0  0  0  0  0  0  0  0
   11.2836    4.6691    0.0000 H   0  0  0  0  0  0  0  0  0  0  0  0
    8.4776    6.2891    0.0000 H   0  0  0  0  0  0  0  0  0  0  0  0
    9.8806    7.0991    0.0000 H   0  0  0  0  0  0  0  0  0  0  0  0
 14  1  1  1  0  0  0
  1 21  1  0  0  0  0
  2 17  2  0  0  0  0
  3 19  2  0  0  0  0
  4 25  2  0  0  0  0
  5 30  2  0  0  0  0
  6 38  2  0  0  0  0
  7 13  1  0  0  0  0
  7 16  1  0  0  0  0
  7 17  1  0  0  0  0
 18  8  1  6  0  0  0
  8 25  1  0  0  0  0
  8 60  1  0  0  0  0
  9 19  1  0  0  0  0
 24  9  1  1  0  0  0
  9 61  1  0  0  0  0
 26 10  1  1  0  0  0
 10 38  1  0  0  0  0
 10 80  1  0  0  0  0
 11 44  2  0  0  0  0
 11 50  1  0  0  0  0
 12 49  2  0  0  0  0
 12 51  1  0  0  0  0
 13 15  1  0  0  0  0
 13 19  1  6  0  0  0
 13 52  1  0  0  0  0
 14 15  1  0  0  0  0
 14 16  1  0  0  0  0
 14 53  1  0  0  0  0
 15 54  1  0  0  0  0
 15 55  1  0  0  0  0
 16 56  1  0  0  0  0
 16 57  1  0  0  0  0
 17 18  1  0  0  0  0
 18 20  1  0  0  0  0
 18 58  1  0  0  0  0
 20 22  1  0  0  0  0
 20 23  1  0  0  0  0
 20 59  1  0  0  0  0
 21 27  1  0  0  0  0
 21 62  1  0  0  0  0
 21 63  1  0  0  0  0
 22 64  1  0  0  0  0
 22 65  1  0  0  0  0
 22 66  1  0  0  0  0
 23 67  1  0  0  0  0
 23 68  1  0  0  0  0
 23 69  1  0  0  0  0
 24 28  1  0  0  0  0
 24 30  1  0  0  0  0
 24 70  1  0  0  0  0
 25 26  1  0  0  0  0
 26 29  1  0  0  0  0
 26 71  1  0  0  0  0
 27 32  2  0  0  0  0
 27 33  1  0  0  0  0
 28 31  1  0  0  0  0
 28 72  1  0  0  0  0
 28 73  1  0  0  0  0
 29 34  1  0  0  0  0
 29 74  1  0  0  0  0
 29 75  1  0  0  0  0
 30 76  1  0  0  0  0
 31 77  1  0  0  0  0
 31 78  1  0  0  0  0
 31 79  1  0  0  0  0
 32 35  1  0  0  0  0
 32 81  1  0  0  0  0
 33 36  2  0  0  0  0
 33 82  1  0  0  0  0
 34 37  2  0  0  0  0
 34 39  1  0  0  0  0
 35 40  2  0  0  0  0
 35 83  1  0  0  0  0
 36 40  1  0  0  0  0
 36 84  1  0  0  0  0
 37 41  1  0  0  0  0
 37 85  1  0  0  0  0
 38 44  1  0  0  0  0
 39 43  2  0  0  0  0
 39 86  1  0  0  0  0
 40 87  1  0  0  0  0
 41 42  1  0  0  0  0
 41 45  2  0  0  0  0
 42 43  1  0  0  0  0
 42 46  2  0  0  0  0
 43 88  1  0  0  0  0
 44 49  1  0  0  0  0
 45 47  1  0  0  0  0
 45 89  1  0  0  0  0
 46 48  1  0  0  0  0
 46 90  1  0  0  0  0
 47 48  2  0  0  0  0
 47 91  1  0  0  0  0
 48 92  1  0  0  0  0
 49 93  1  0  0  0  0
 50 51  2  0  0  0  0
 50 94  1  0  0  0  0
 51 95  1  0  0  0  0
M  END
> <PUBCHEM_COMPOUND_CID>
506757
> <PUBCHEM_COMPOUND_CANONICALIZED>
1
> <PUBCHEM_CACTVS_COMPLEXITY>
1180
> <PUBCHEM_CACTVS_HBOND_ACCEPTOR>
8
> <PUBCHEM_CACTVS_HBOND_DONOR>
3
> <PUBCHEM_CACTVS_ROTATABLE_BOND>
15
> <PUBCHEM_CACTVS_SUBSKEYS>
AAADcfB/uAAAAAAAAAAAAAAAAAAAAWAAAAA8YMEAAAAAAADB1AAAHgAQAAAADTzhngY+gNPIFACoAz131ACCgCQ3EiAI2IG4fMgKZnrA8TmXMIgm1gHYqMe6yeCOwAACAAAQAACAAAQAACAAAAAAAAAAAA==
> <PUBCHEM_IUPAC_OPENEYE_NAME>
N-[(1S)-2-[[(1S)-1-[(2S,4R)-4-benzyloxy-2-[[(1S)-1-formylpropyl]carbamoyl]pyrrolidine-1-carbonyl]-2-methyl-propyl]amino]-1-(2-naphthylmethyl)-2-oxo-ethyl]pyrazine-2-carboxamide
> <PUBCHEM_IUPAC_CAS_NAME>
N-[(2S)-1-[[(2S)-3-methyl-1-oxo-1-[(2S,4R)-2-[oxo-[[(2S)-1-oxobutan-2-yl]amino]methyl]-4-phenylmethoxy-1-pyrrolidinyl]butan-2-yl]amino]-3-(2-naphthalenyl)-1-oxopropan-2-yl]-2-pyrazinecarboxamide
> <PUBCHEM_IUPAC_NAME_MARKUP>
<I>N</I>-[(2<I>S</I>)-1-[[(2<I>S</I>)-3-methyl-1-oxo-1-[(2<I>S</I>,4<I>R</I>)-2-[[(2<I>S</I>)-1-oxobutan-2-yl]carbamoyl]-4-phenylmethoxypyrrolidin-1-yl]butan-2-yl]amino]-3-naphthalen-2-yl-1-oxopropan-2-yl]pyrazine-2-carboxamide
> <PUBCHEM_IUPAC_NAME>
N-[(2S)-1-[[(2S)-3-methyl-1-oxo-1-[(2S,4R)-2-[[(2S)-1-oxobutan-2-yl]carbamoyl]-4-phenylmethoxypyrrolidin-1-yl]butan-2-yl]amino]-3-naphthalen-2-yl-1-oxopropan-2-yl]pyrazine-2-carboxamide
> <PUBCHEM_IUPAC_SYSTEMATIC_NAME>
N-[(2S)-1-[[(2S)-3-methyl-1-oxidanylidene-1-[(2S,4R)-2-[[(2S)-1-oxidanylidenebutan-2-yl]carbamoyl]-4-phenylmethoxy-pyrrolidin-1-yl]butan-2-yl]amino]-3-naphthalen-2-yl-1-oxidanylidene-propan-2-yl]pyrazine-2-carboxamide
> <PUBCHEM_IUPAC_TRADITIONAL_NAME>
N-[(1S)-2-[[(1S)-1-[(2S,4R)-4-benzoxy-2-[[(1S)-1-formylpropyl]carbamoyl]pyrrolidine-1-carbonyl]-2-methyl-propyl]amino]-2-keto-1-(2-naphthylmethyl)ethyl]pyrazinamide
> <PUBCHEM_IUPAC_INCHI>
InChI=1S/C39H44N6O6/c1-4-30(23-46)42-38(49)34-20-31(51-24-26-10-6-5-7-11-26)22-45(34)39(50)35(25(2)3)44-36(47)32(43-37(48)33-21-40-16-17-41-33)19-27-14-15-28-12-8-9-13-29(28)18-27/h5-18,21,23,25,30-32,34-35H,4,19-20,22,24H2,1-3H3,(H,42,49)(H,43,48)(H,44,47)/t30-,31+,32-,34-,35-/m0/s1
> <PUBCHEM_IUPAC_INCHIKEY>
DIVYZCZUFUUKMT-MWCRBXBCSA-N
> <PUBCHEM_XLOGP3_AA>
4.3
> <PUBCHEM_EXACT_MASS>
692.33223314
> <PUBCHEM_MOLECULAR_FORMULA>
C39H44N6O6
> <PUBCHEM_MOLECULAR_WEIGHT>
692.8
> <PUBCHEM_OPENEYE_CAN_SMILES>
CCC(C=O)NC(=O)C1CC(CN1C(=O)C(C(C)C)NC(=O)C(CC2=CC3=CC=CC=C3C=C2)NC(=O)C4=NC=CN=C4)OCC5=CC=CC=C5
> <PUBCHEM_OPENEYE_ISO_SMILES>
CC[C@@H](C=O)NC(=O)[C@@H]1C[C@H](CN1C(=O)[C@H](C(C)C)NC(=O)[C@H](CC2=CC3=CC=CC=C3C=C2)NC(=O)C4=NC=CN=C4)OCC5=CC=CC=C5
> <PUBCHEM_CACTVS_TPSA>
160
> <PUBCHEM_MONOISOTOPIC_WEIGHT>
692.33223314
> <PUBCHEM_TOTAL_CHARGE>
0
> <PUBCHEM_HEAVY_ATOM_COUNT>
51
> <PUBCHEM_ATOM_DEF_STEREO_COUNT>
5
> <PUBCHEM_ATOM_UDEF_STEREO_COUNT>
0
> <PUBCHEM_BOND_DEF_STEREO_COUNT>
0
> <PUBCHEM_BOND_UDEF_STEREO_COUNT>
0
> <PUBCHEM_ISOTOPIC_ATOM_COUNT>
0
> <PUBCHEM_COMPONENT_COUNT>
1
> <PUBCHEM_CACTVS_TAUTO_COUNT>
-1
> <PUBCHEM_COORDINATE_TYPE>
1
5
255
> <PUBCHEM_BONDANNOTATIONS>
14  1  5
26  10  5
11  44  8
11  50  8
12  49  8
12  51  8
13  19  6
27  32  8
27  33  8
32  35  8
33  36  8
34  37  8
34  39  8
35  40  8
36  40  8
37  41  8
39  43  8
41  42  8
41  45  8
42  43  8
42  46  8
44  49  8
45  47  8
46  48  8
47  48  8
50  51  8
18  8  6
24  9  5
$$$$
