506744
  -OEChem-10302200282D
 90 91  0     1  0  0  0  0  0999 V2000
    8.9282   -3.0000    0.0000 O   0  0  0  0  0  0  0  0  0  0  0  0
    5.4641   -2.0000    0.0000 O   0  0  0  0  0  0  0  0  0  0  0  0
   11.5263   -0.5000    0.0000 O   0  0  0  0  0  0  0  0  0  0  0  0
    6.3301    1.5000    0.0000 O   0  0  0  0  0  0  0  0  0  0  0  0
   14.1244   -3.0000    0.0000 O   0  0  0  0  0  0  0  0  0  0  0  0
    3.7320    1.0000    0.0000 O   0  0  0  0  0  0  0  0  0  0  0  0
    8.0622   -1.5000    0.0000 N   0  0  0  0  0  0  0  0  0  0  0  0
   10.6603   -2.0000    0.0000 N   0  0  0  0  0  0  0  0  0  0  0  0
    6.3301   -0.5000    0.0000 N   0  0  0  0  0  0  0  0  0  0  0  0
   13.2583   -1.5000    0.0000 N   0  0  0  0  0  0  0  0  0  0  0  0
    4.5981    2.5000    0.0000 N   0  0  0  0  0  0  0  0  0  0  0  0
   15.8564   -2.0000    0.0000 N   0  0  0  0  0  0  0  0  0  0  0  0
   15.8564    0.0000    0.0000 N   0  0  0  0  0  0  0  0  0  0  0  0
    9.7942   -1.5000    0.0000 C   0  0  1  0  0  0  0  0  0  0  0  0
    7.1962   -2.0000    0.0000 C   0  0  1  0  0  0  0  0  0  0  0  0
    9.7942   -0.5000    0.0000 C   0  0  0  0  0  0  0  0  0  0  0  0
    7.1962   -3.0000    0.0000 C   0  0  0  0  0  0  0  0  0  0  0  0
    6.3301   -3.5000    0.0000 C   0  0  0  0  0  0  0  0  0  0  0  0
    8.9282   -2.0000    0.0000 C   0  0  0  0  0  0  0  0  0  0  0  0
   12.3923   -2.0000    0.0000 C   0  0  1  0  0  0  0  0  0  0  0  0
   12.3923   -3.0000    0.0000 C   0  0  0  0  0  0  0  0  0  0  0  0
    6.3301   -1.5000    0.0000 C   0  0  0  0  0  0  0  0  0  0  0  0
   11.5263   -1.5000    0.0000 C   0  0  0  0  0  0  0  0  0  0  0  0
    8.9282   -0.0000    0.0000 C   0  0  0  0  0  0  0  0  0  0  0  0
   10.6603    0.0000    0.0000 C   0  0  0  0  0  0  0  0  0  0  0  0
    6.3301   -4.5000    0.0000 C   0  0  0  0  0  0  0  0  0  0  0  0
    5.4641   -3.0000    0.0000 C   0  0  0  0  0  0  0  0  0  0  0  0
    5.4641   -0.0000    0.0000 C   0  0  1  0  0  0  0  0  0  0  0  0
   11.5263   -3.5000    0.0000 C   0  0  0  0  0  0  0  0  0  0  0  0
   13.2583   -3.5000    0.0000 C   0  0  0  0  0  0  0  0  0  0  0  0
    4.5981   -0.5000    0.0000 C   0  0  0  0  0  0  0  0  0  0  0  0
    5.4641    1.0000    0.0000 C   0  0  0  0  0  0  0  0  0  0  0  0
   14.1244   -2.0000    0.0000 C   0  0  0  0  0  0  0  0  0  0  0  0
    3.7320   -0.0000    0.0000 C   0  0  0  0  0  0  0  0  0  0  0  0
    4.5981    1.5000    0.0000 C   0  0  0  0  0  0  0  0  0  0  0  0
   14.9904   -1.5000    0.0000 C   0  0  0  0  0  0  0  0  0  0  0  0
   14.9904   -0.5000    0.0000 C   0  0  0  0  0  0  0  0  0  0  0  0
    3.7320    3.0000    0.0000 C   0  0  0  0  0  0  0  0  0  0  0  0
   16.7224   -1.5000    0.0000 C   0  0  0  0  0  0  0  0  0  0  0  0
   16.7224   -0.5000    0.0000 C   0  0  0  0  0  0  0  0  0  0  0  0
    3.7320    4.0000    0.0000 C   0  0  0  0  0  0  0  0  0  0  0  0
    2.8660    2.5000    0.0000 C   0  0  0  0  0  0  0  0  0  0  0  0
    2.8660    4.5000    0.0000 C   0  0  0  0  0  0  0  0  0  0  0  0
    2.0000    3.0000    0.0000 C   0  0  0  0  0  0  0  0  0  0  0  0
    2.0000    4.0000    0.0000 C   0  0  0  0  0  0  0  0  0  0  0  0
    9.7942   -2.1200    0.0000 H   0  0  0  0  0  0  0  0  0  0  0  0
    7.7331   -2.3100    0.0000 H   0  0  0  0  0  0  0  0  0  0  0  0
    9.2573   -0.8100    0.0000 H   0  0  0  0  0  0  0  0  0  0  0  0
    7.4082   -3.5826    0.0000 H   0  0  0  0  0  0  0  0  0  0  0  0
    7.8067   -2.8923    0.0000 H   0  0  0  0  0  0  0  0  0  0  0  0
    6.8671   -3.8100    0.0000 H   0  0  0  0  0  0  0  0  0  0  0  0
    8.0622   -0.8800    0.0000 H   0  0  0  0  0  0  0  0  0  0  0  0
   12.3923   -1.3800    0.0000 H   0  0  0  0  0  0  0  0  0  0  0  0
   10.6603   -2.6200    0.0000 H   0  0  0  0  0  0  0  0  0  0  0  0
   11.8554   -2.6900    0.0000 H   0  0  0  0  0  0  0  0  0  0  0  0
    9.2382    0.5369    0.0000 H   0  0  0  0  0  0  0  0  0  0  0  0
    8.3913    0.3100    0.0000 H   0  0  0  0  0  0  0  0  0  0  0  0
    8.6182   -0.5369    0.0000 H   0  0  0  0  0  0  0  0  0  0  0  0
   10.9703   -0.5369    0.0000 H   0  0  0  0  0  0  0  0  0  0  0  0
   11.1972    0.3100    0.0000 H   0  0  0  0  0  0  0  0  0  0  0  0
   10.3503    0.5369    0.0000 H   0  0  0  0  0  0  0  0  0  0  0  0
    5.7101   -4.5000    0.0000 H   0  0  0  0  0  0  0  0  0  0  0  0
    6.3301   -5.1200    0.0000 H   0  0  0  0  0  0  0  0  0  0  0  0
    6.9501   -4.5000    0.0000 H   0  0  0  0  0  0  0  0  0  0  0  0
    5.7741   -2.4631    0.0000 H   0  0  0  0  0  0  0  0  0  0  0  0
    4.9272   -2.6900    0.0000 H   0  0  0  0  0  0  0  0  0  0  0  0
    5.1541   -3.5369    0.0000 H   0  0  0  0  0  0  0  0  0  0  0  0
    6.8671   -0.1900    0.0000 H   0  0  0  0  0  0  0  0  0  0  0  0
    5.4641   -0.6200    0.0000 H   0  0  0  0  0  0  0  0  0  0  0  0
   11.2163   -2.9631    0.0000 H   0  0  0  0  0  0  0  0  0  0  0  0
   10.9893   -3.8100    0.0000 H   0  0  0  0  0  0  0  0  0  0  0  0
   11.8363   -4.0369    0.0000 H   0  0  0  0  0  0  0  0  0  0  0  0
   12.9483   -4.0369    0.0000 H   0  0  0  0  0  0  0  0  0  0  0  0
   13.7953   -3.8100    0.0000 H   0  0  0  0  0  0  0  0  0  0  0  0
   13.5683   -2.9631    0.0000 H   0  0  0  0  0  0  0  0  0  0  0  0
   13.2583   -0.8800    0.0000 H   0  0  0  0  0  0  0  0  0  0  0  0
    4.1996   -0.9749    0.0000 H   0  0  0  0  0  0  0  0  0  0  0  0
    4.9966   -0.9749    0.0000 H   0  0  0  0  0  0  0  0  0  0  0  0
    4.0420    0.5369    0.0000 H   0  0  0  0  0  0  0  0  0  0  0  0
    3.1951    0.3100    0.0000 H   0  0  0  0  0  0  0  0  0  0  0  0
    3.4220   -0.5369    0.0000 H   0  0  0  0  0  0  0  0  0  0  0  0
    5.1350    2.8100    0.0000 H   0  0  0  0  0  0  0  0  0  0  0  0
   14.4534   -0.1900    0.0000 H   0  0  0  0  0  0  0  0  0  0  0  0
   17.2594   -1.8100    0.0000 H   0  0  0  0  0  0  0  0  0  0  0  0
   17.2594   -0.1900    0.0000 H   0  0  0  0  0  0  0  0  0  0  0  0
    4.2690    4.3100    0.0000 H   0  0  0  0  0  0  0  0  0  0  0  0
    2.8660    1.8800    0.0000 H   0  0  0  0  0  0  0  0  0  0  0  0
    2.8660    5.1200    0.0000 H   0  0  0  0  0  0  0  0  0  0  0  0
    1.4631    2.6900    0.0000 H   0  0  0  0  0  0  0  0  0  0  0  0
    1.4631    4.3100    0.0000 H   0  0  0  0  0  0  0  0  0  0  0  0
  1 19  2  0  0  0  0
  2 22  2  0  0  0  0
  3 23  2  0  0  0  0
  4 32  2  0  0  0  0
  5 33  2  0  0  0  0
  6 35  2  0  0  0  0
 15  7  1  1  0  0  0
  7 19  1  0  0  0  0
  7 52  1  0  0  0  0
 14  8  1  6  0  0  0
  8 23  1  0  0  0  0
  8 54  1  0  0  0  0
  9 22  1  0  0  0  0
 28  9  1  1  0  0  0
  9 68  1  0  0  0  0
 20 10  1  1  0  0  0
 10 33  1  0  0  0  0
 10 76  1  0  0  0  0
 11 35  1  0  0  0  0
 11 38  1  0  0  0  0
 11 82  1  0  0  0  0
 12 36  2  0  0  0  0
 12 39  1  0  0  0  0
 13 37  2  0  0  0  0
 13 40  1  0  0  0  0
 14 16  1  0  0  0  0
 14 19  1  0  0  0  0
 14 46  1  0  0  0  0
 15 17  1  0  0  0  0
 15 22  1  0  0  0  0
 15 47  1  0  0  0  0
 16 24  1  0  0  0  0
 16 25  1  0  0  0  0
 16 48  1  0  0  0  0
 17 18  1  0  0  0  0
 17 49  1  0  0  0  0
 17 50  1  0  0  0  0
 18 26  1  0  0  0  0
 18 27  1  0  0  0  0
 18 51  1  0  0  0  0
 20 21  1  0  0  0  0
 20 23  1  0  0  0  0
 20 53  1  0  0  0  0
 21 29  1  0  0  0  0
 21 30  1  0  0  0  0
 21 55  1  0  0  0  0
 24 56  1  0  0  0  0
 24 57  1  0  0  0  0
 24 58  1  0  0  0  0
 25 59  1  0  0  0  0
 25 60  1  0  0  0  0
 25 61  1  0  0  0  0
 26 62  1  0  0  0  0
 26 63  1  0  0  0  0
 26 64  1  0  0  0  0
 27 65  1  0  0  0  0
 27 66  1  0  0  0  0
 27 67  1  0  0  0  0
 28 31  1  0  0  0  0
 28 32  1  0  0  0  0
 28 69  1  0  0  0  0
 29 70  1  0  0  0  0
 29 71  1  0  0  0  0
 29 72  1  0  0  0  0
 30 73  1  0  0  0  0
 30 74  1  0  0  0  0
 30 75  1  0  0  0  0
 31 34  1  0  0  0  0
 31 77  1  0  0  0  0
 31 78  1  0  0  0  0
 32 35  1  0  0  0  0
 33 36  1  0  0  0  0
 34 79  1  0  0  0  0
 34 80  1  0  0  0  0
 34 81  1  0  0  0  0
 36 37  1  0  0  0  0
 37 83  1  0  0  0  0
 38 41  2  0  0  0  0
 38 42  1  0  0  0  0
 39 40  2  0  0  0  0
 39 84  1  0  0  0  0
 40 85  1  0  0  0  0
 41 43  1  0  0  0  0
 41 86  1  0  0  0  0
 42 44  2  0  0  0  0
 42 87  1  0  0  0  0
 43 45  2  0  0  0  0
 43 88  1  0  0  0  0
 44 45  1  0  0  0  0
 44 89  1  0  0  0  0
 45 90  1  0  0  0  0
M  END
> <PUBCHEM_COMPOUND_CID>
506744
> <PUBCHEM_COMPOUND_CANONICALIZED>
1
> <PUBCHEM_CACTVS_COMPLEXITY>
1030
> <PUBCHEM_CACTVS_HBOND_ACCEPTOR>
8
> <PUBCHEM_CACTVS_HBOND_DONOR>
5
> <PUBCHEM_CACTVS_ROTATABLE_BOND>
16
> <PUBCHEM_CACTVS_SUBSKEYS>
AAADcfB/uAAAAAAAAAAAAAAAAAAAAAAAAAA8QAAAAAAAAAABwAAAHgAQAAAADSzBlgQ+wJLIEACoAbV3VACCgCQ3EiAI2IG4dMgIYHrA0bGUIIhglgDIyMcYAAAMAAAAAAAAAAAAAAAAAAAAAAAAAAAAAA==
> <PUBCHEM_IUPAC_OPENEYE_NAME>
N-[(1S)-1-[[(1S)-1-[[(1S)-1-[[(1S)-3-anilino-1-ethyl-2,3-dioxo-propyl]carbamoyl]-3-methyl-butyl]carbamoyl]-2-methyl-propyl]carbamoyl]-2-methyl-propyl]pyrazine-2-carboxamide
> <PUBCHEM_IUPAC_CAS_NAME>
N-[(2S)-1-[[(2S)-1-[[(2S)-1-[[(3S)-1-anilino-1,2-dioxopentan-3-yl]amino]-4-methyl-1-oxopentan-2-yl]amino]-3-methyl-1-oxobutan-2-yl]amino]-3-methyl-1-oxobutan-2-yl]-2-pyrazinecarboxamide
> <PUBCHEM_IUPAC_NAME_MARKUP>
<I>N</I>-[(2<I>S</I>)-1-[[(2<I>S</I>)-1-[[(2<I>S</I>)-1-[[(3<I>S</I>)-1-anilino-1,2-dioxopentan-3-yl]amino]-4-methyl-1-oxopentan-2-yl]amino]-3-methyl-1-oxobutan-2-yl]amino]-3-methyl-1-oxobutan-2-yl]pyrazine-2-carboxamide
> <PUBCHEM_IUPAC_NAME>
N-[(2S)-1-[[(2S)-1-[[(2S)-1-[[(3S)-1-anilino-1,2-dioxopentan-3-yl]amino]-4-methyl-1-oxopentan-2-yl]amino]-3-methyl-1-oxobutan-2-yl]amino]-3-methyl-1-oxobutan-2-yl]pyrazine-2-carboxamide
> <PUBCHEM_IUPAC_SYSTEMATIC_NAME>
N-[(2S)-1-[[(2S)-1-[[(2S)-1-[[(3S)-1,2-bis(oxidanylidene)-1-phenylazanyl-pentan-3-yl]amino]-4-methyl-1-oxidanylidene-pentan-2-yl]amino]-3-methyl-1-oxidanylidene-butan-2-yl]amino]-3-methyl-1-oxidanylidene-butan-2-yl]pyrazine-2-carboxamide
> <PUBCHEM_IUPAC_TRADITIONAL_NAME>
N-[(1S)-1-[[(1S)-1-[[(1S)-1-[[(1S)-3-anilino-1-ethyl-2,3-diketo-propyl]carbamoyl]-3-methyl-butyl]carbamoyl]-2-methyl-propyl]carbamoyl]-2-methyl-propyl]pyrazinamide
> <PUBCHEM_IUPAC_INCHI>
InChI=1S/C32H45N7O6/c1-8-22(27(40)32(45)35-21-12-10-9-11-13-21)36-28(41)23(16-18(2)3)37-30(43)25(19(4)5)39-31(44)26(20(6)7)38-29(42)24-17-33-14-15-34-24/h9-15,17-20,22-23,25-26H,8,16H2,1-7H3,(H,35,45)(H,36,41)(H,37,43)(H,38,42)(H,39,44)/t22-,23-,25-,26-/m0/s1
> <PUBCHEM_IUPAC_INCHIKEY>
XCNOHEOJZQFTJC-LCGRTSHQSA-N
> <PUBCHEM_XLOGP3_AA>
3.6
> <PUBCHEM_EXACT_MASS>
623.34313218
> <PUBCHEM_MOLECULAR_FORMULA>
C32H45N7O6
> <PUBCHEM_MOLECULAR_WEIGHT>
623.7
> <PUBCHEM_OPENEYE_CAN_SMILES>
CCC(C(=O)C(=O)NC1=CC=CC=C1)NC(=O)C(CC(C)C)NC(=O)C(C(C)C)NC(=O)C(C(C)C)NC(=O)C2=NC=CN=C2
> <PUBCHEM_OPENEYE_ISO_SMILES>
CC[C@@H](C(=O)C(=O)NC1=CC=CC=C1)NC(=O)[C@H](CC(C)C)NC(=O)[C@H](C(C)C)NC(=O)[C@H](C(C)C)NC(=O)C2=NC=CN=C2
> <PUBCHEM_CACTVS_TPSA>
188
> <PUBCHEM_MONOISOTOPIC_WEIGHT>
623.34313218
> <PUBCHEM_TOTAL_CHARGE>
0
> <PUBCHEM_HEAVY_ATOM_COUNT>
45
> <PUBCHEM_ATOM_DEF_STEREO_COUNT>
4
> <PUBCHEM_ATOM_UDEF_STEREO_COUNT>
0
> <PUBCHEM_BOND_DEF_STEREO_COUNT>
0
> <PUBCHEM_BOND_UDEF_STEREO_COUNT>
0
> <PUBCHEM_ISOTOPIC_ATOM_COUNT>
0
> <PUBCHEM_COMPONENT_COUNT>
1
> <PUBCHEM_CACTVS_TAUTO_COUNT>
-1
> <PUBCHEM_COORDINATE_TYPE>
1
5
255
> <PUBCHEM_BONDANNOTATIONS>
20  10  5
12  36  8
12  39  8
13  37  8
13  40  8
36  37  8
38  41  8
38  42  8
39  40  8
41  43  8
42  44  8
43  45  8
44  45  8
15  7  5
14  8  6
28  9  5
$$$$
