506711
  -OEChem-10302200282D
 95 97  0     1  0  0  0  0  0999 V2000
    6.9744    4.6064    0.0000 O   0  0  0  0  0  0  0  0  0  0  0  0
    8.9282    0.7585    0.0000 O   0  0  0  0  0  0  0  0  0  0  0  0
   10.0302    1.5591    0.0000 O   0  0  0  0  0  0  0  0  0  0  0  0
    5.4641   -0.2415    0.0000 O   0  0  0  0  0  0  0  0  0  0  0  0
   13.2107    3.2575    0.0000 O   0  0  0  0  0  0  0  0  0  0  0  0
    6.3301   -3.7415    0.0000 O   0  0  0  0  0  0  0  0  0  0  0  0
    2.8660   -7.7415    0.0000 O   0  0  0  0  0  0  0  0  0  0  0  0
    6.3301   -7.7415    0.0000 O   0  0  0  0  0  0  0  0  0  0  0  0
    2.0000   -6.2415    0.0000 O   0  0  0  0  0  0  0  0  0  0  0  0
    7.1962   -6.2415    0.0000 O   0  0  0  0  0  0  0  0  0  0  0  0
    8.0622    2.2585    0.0000 N   0  0  0  0  0  0  0  0  0  0  0  0
    7.1962   -0.2415    0.0000 N   0  0  0  0  0  0  0  0  0  0  0  0
   10.5654    3.2064    0.0000 N   0  0  0  0  0  0  0  0  0  0  0  0
    5.4641   -2.2415    0.0000 N   0  0  0  0  0  0  0  0  0  0  0  0
    4.5981   -3.7415    0.0000 N   0  0  0  0  0  0  0  0  0  0  0  0
    8.8712    2.8463    0.0000 C   0  0  1  0  0  0  0  0  0  0  0  0
    7.5622    3.7974    0.0000 C   0  0  2  0  0  0  0  0  0  0  0  0
    8.5622    3.7974    0.0000 C   0  0  0  0  0  0  0  0  0  0  0  0
    7.2532    2.8463    0.0000 C   0  0  0  0  0  0  0  0  0  0  0  0
    8.0622    1.2585    0.0000 C   0  0  0  0  0  0  0  0  0  0  0  0
    7.1962    0.7585    0.0000 C   0  0  2  0  0  0  0  0  0  0  0  0
    9.8222    2.5373    0.0000 C   0  0  0  0  0  0  0  0  0  0  0  0
    6.3301    1.2585    0.0000 C   0  0  0  0  0  0  0  0  0  0  0  0
    7.3811    5.5199    0.0000 C   0  0  0  0  0  0  0  0  0  0  0  0
    5.4641    0.7585    0.0000 C   0  0  0  0  0  0  0  0  0  0  0  0
    6.3301    2.2585    0.0000 C   0  0  0  0  0  0  0  0  0  0  0  0
   11.5165    2.8974    0.0000 C   0  0  1  0  0  0  0  0  0  0  0  0
    6.3301   -0.7415    0.0000 C   0  0  0  0  0  0  0  0  0  0  0  0
    6.3301   -1.7415    0.0000 C   0  0  2  0  0  0  0  0  0  0  0  0
    7.1962   -2.2415    0.0000 C   0  0  0  0  0  0  0  0  0  0  0  0
    6.7933    6.3289    0.0000 C   0  0  0  0  0  0  0  0  0  0  0  0
   11.7244    1.9192    0.0000 C   0  0  0  0  0  0  0  0  0  0  0  0
   12.2596    3.5665    0.0000 C   0  0  0  0  0  0  0  0  0  0  0  0
    8.0622   -1.7415    0.0000 C   0  0  0  0  0  0  0  0  0  0  0  0
    7.1962   -3.2415    0.0000 C   0  0  0  0  0  0  0  0  0  0  0  0
   12.6754    1.6102    0.0000 C   0  0  0  0  0  0  0  0  0  0  0  0
    5.7988    6.2244    0.0000 C   0  0  0  0  0  0  0  0  0  0  0  0
    7.2001    7.2425    0.0000 C   0  0  0  0  0  0  0  0  0  0  0  0
    5.4641   -3.2415    0.0000 C   0  0  0  0  0  0  0  0  0  0  0  0
    5.2110    7.0334    0.0000 C   0  0  0  0  0  0  0  0  0  0  0  0
    6.6123    8.0515    0.0000 C   0  0  0  0  0  0  0  0  0  0  0  0
    5.6178    7.9470    0.0000 C   0  0  0  0  0  0  0  0  0  0  0  0
    4.5981   -4.7415    0.0000 C   0  0  0  0  0  0  0  0  0  0  0  0
    5.4641   -5.2415    0.0000 C   0  0  0  0  0  0  0  0  0  0  0  0
    3.7320   -5.2415    0.0000 C   0  0  0  0  0  0  0  0  0  0  0  0
    5.4641   -6.2415    0.0000 C   0  0  0  0  0  0  0  0  0  0  0  0
    3.7320   -6.2415    0.0000 C   0  0  0  0  0  0  0  0  0  0  0  0
    4.5981   -6.7415    0.0000 C   0  0  0  0  0  0  0  0  0  0  0  0
    2.8660   -6.7415    0.0000 C   0  0  0  0  0  0  0  0  0  0  0  0
    6.3301   -6.7415    0.0000 C   0  0  0  0  0  0  0  0  0  0  0  0
    8.9682    2.2339    0.0000 H   0  0  0  0  0  0  0  0  0  0  0  0
    6.9498    3.7004    0.0000 H   0  0  0  0  0  0  0  0  0  0  0  0
    9.1686    3.9263    0.0000 H   0  0  0  0  0  0  0  0  0  0  0  0
    8.4974    4.4140    0.0000 H   0  0  0  0  0  0  0  0  0  0  0  0
    6.6868    3.0985    0.0000 H   0  0  0  0  0  0  0  0  0  0  0  0
    6.9432    2.3094    0.0000 H   0  0  0  0  0  0  0  0  0  0  0  0
    6.6592    0.4485    0.0000 H   0  0  0  0  0  0  0  0  0  0  0  0
    6.8671    1.5685    0.0000 H   0  0  0  0  0  0  0  0  0  0  0  0
    7.7331   -0.5515    0.0000 H   0  0  0  0  0  0  0  0  0  0  0  0
   10.4365    3.8129    0.0000 H   0  0  0  0  0  0  0  0  0  0  0  0
    7.8951    5.1732    0.0000 H   0  0  0  0  0  0  0  0  0  0  0  0
    7.8118    5.9659    0.0000 H   0  0  0  0  0  0  0  0  0  0  0  0
    5.1541    1.2954    0.0000 H   0  0  0  0  0  0  0  0  0  0  0  0
    4.9272    0.4485    0.0000 H   0  0  0  0  0  0  0  0  0  0  0  0
    5.7741    0.2216    0.0000 H   0  0  0  0  0  0  0  0  0  0  0  0
    6.9501    2.2585    0.0000 H   0  0  0  0  0  0  0  0  0  0  0  0
    6.3301    2.8785    0.0000 H   0  0  0  0  0  0  0  0  0  0  0  0
    5.7101    2.2585    0.0000 H   0  0  0  0  0  0  0  0  0  0  0  0
   11.3875    3.5038    0.0000 H   0  0  0  0  0  0  0  0  0  0  0  0
    5.7932   -1.4315    0.0000 H   0  0  0  0  0  0  0  0  0  0  0  0
    6.6592   -2.5515    0.0000 H   0  0  0  0  0  0  0  0  0  0  0  0
   11.1047    1.8976    0.0000 H   0  0  0  0  0  0  0  0  0  0  0  0
   11.6381    1.3053    0.0000 H   0  0  0  0  0  0  0  0  0  0  0  0
    4.9272   -1.9315    0.0000 H   0  0  0  0  0  0  0  0  0  0  0  0
   12.1307    4.1730    0.0000 H   0  0  0  0  0  0  0  0  0  0  0  0
    8.3722   -2.2784    0.0000 H   0  0  0  0  0  0  0  0  0  0  0  0
    8.5991   -1.4315    0.0000 H   0  0  0  0  0  0  0  0  0  0  0  0
    7.7522   -1.2046    0.0000 H   0  0  0  0  0  0  0  0  0  0  0  0
    6.5762   -3.2415    0.0000 H   0  0  0  0  0  0  0  0  0  0  0  0
    7.1962   -3.8615    0.0000 H   0  0  0  0  0  0  0  0  0  0  0  0
    7.8162   -3.2415    0.0000 H   0  0  0  0  0  0  0  0  0  0  0  0
   12.4838    1.0206    0.0000 H   0  0  0  0  0  0  0  0  0  0  0  0
   13.2651    1.4186    0.0000 H   0  0  0  0  0  0  0  0  0  0  0  0
   12.8670    2.1999    0.0000 H   0  0  0  0  0  0  0  0  0  0  0  0
    5.5466    5.6580    0.0000 H   0  0  0  0  0  0  0  0  0  0  0  0
    7.8167    7.3073    0.0000 H   0  0  0  0  0  0  0  0  0  0  0  0
    4.5944    6.9686    0.0000 H   0  0  0  0  0  0  0  0  0  0  0  0
    6.8645    8.6179    0.0000 H   0  0  0  0  0  0  0  0  0  0  0  0
    5.2534    8.4485    0.0000 H   0  0  0  0  0  0  0  0  0  0  0  0
    4.0611   -3.4315    0.0000 H   0  0  0  0  0  0  0  0  0  0  0  0
    6.0010   -4.9315    0.0000 H   0  0  0  0  0  0  0  0  0  0  0  0
    3.1951   -4.9315    0.0000 H   0  0  0  0  0  0  0  0  0  0  0  0
    4.5981   -7.3615    0.0000 H   0  0  0  0  0  0  0  0  0  0  0  0
    2.3291   -8.0515    0.0000 H   0  0  0  0  0  0  0  0  0  0  0  0
    6.8671   -8.0515    0.0000 H   0  0  0  0  0  0  0  0  0  0  0  0
 17  1  1  6  0  0  0
  1 24  1  0  0  0  0
  2 20  2  0  0  0  0
  3 22  2  0  0  0  0
  4 28  2  0  0  0  0
  5 33  2  0  0  0  0
  6 39  2  0  0  0  0
  7 49  1  0  0  0  0
  7 94  1  0  0  0  0
  8 50  1  0  0  0  0
  8 95  1  0  0  0  0
  9 49  2  0  0  0  0
 10 50  2  0  0  0  0
 11 16  1  0  0  0  0
 11 19  1  0  0  0  0
 11 20  1  0  0  0  0
 21 12  1  1  0  0  0
 12 28  1  0  0  0  0
 12 59  1  0  0  0  0
 13 22  1  0  0  0  0
 27 13  1  6  0  0  0
 13 60  1  0  0  0  0
 29 14  1  6  0  0  0
 14 39  1  0  0  0  0
 14 74  1  0  0  0  0
 15 39  1  0  0  0  0
 15 43  1  0  0  0  0
 15 90  1  0  0  0  0
 16 18  1  0  0  0  0
 16 22  1  1  0  0  0
 16 51  1  0  0  0  0
 17 18  1  0  0  0  0
 17 19  1  0  0  0  0
 17 52  1  0  0  0  0
 18 53  1  0  0  0  0
 18 54  1  0  0  0  0
 19 55  1  0  0  0  0
 19 56  1  0  0  0  0
 20 21  1  0  0  0  0
 21 23  1  0  0  0  0
 21 57  1  0  0  0  0
 23 25  1  0  0  0  0
 23 26  1  0  0  0  0
 23 58  1  0  0  0  0
 24 31  1  0  0  0  0
 24 61  1  0  0  0  0
 24 62  1  0  0  0  0
 25 63  1  0  0  0  0
 25 64  1  0  0  0  0
 25 65  1  0  0  0  0
 26 66  1  0  0  0  0
 26 67  1  0  0  0  0
 26 68  1  0  0  0  0
 27 32  1  0  0  0  0
 27 33  1  0  0  0  0
 27 69  1  0  0  0  0
 28 29  1  0  0  0  0
 29 30  1  0  0  0  0
 29 70  1  0  0  0  0
 30 34  1  0  0  0  0
 30 35  1  0  0  0  0
 30 71  1  0  0  0  0
 31 37  2  0  0  0  0
 31 38  1  0  0  0  0
 32 36  1  0  0  0  0
 32 72  1  0  0  0  0
 32 73  1  0  0  0  0
 33 75  1  0  0  0  0
 34 76  1  0  0  0  0
 34 77  1  0  0  0  0
 34 78  1  0  0  0  0
 35 79  1  0  0  0  0
 35 80  1  0  0  0  0
 35 81  1  0  0  0  0
 36 82  1  0  0  0  0
 36 83  1  0  0  0  0
 36 84  1  0  0  0  0
 37 40  1  0  0  0  0
 37 85  1  0  0  0  0
 38 41  2  0  0  0  0
 38 86  1  0  0  0  0
 40 42  2  0  0  0  0
 40 87  1  0  0  0  0
 41 42  1  0  0  0  0
 41 88  1  0  0  0  0
 42 89  1  0  0  0  0
 43 44  2  0  0  0  0
 43 45  1  0  0  0  0
 44 46  1  0  0  0  0
 44 91  1  0  0  0  0
 45 47  2  0  0  0  0
 45 92  1  0  0  0  0
 46 48  2  0  0  0  0
 46 50  1  0  0  0  0
 47 48  1  0  0  0  0
 47 49  1  0  0  0  0
 48 93  1  0  0  0  0
M  END
> <PUBCHEM_COMPOUND_CID>
506711
> <PUBCHEM_COMPOUND_CANONICALIZED>
1
> <PUBCHEM_CACTVS_COMPLEXITY>
1200
> <PUBCHEM_CACTVS_HBOND_ACCEPTOR>
10
> <PUBCHEM_CACTVS_HBOND_DONOR>
6
> <PUBCHEM_CACTVS_ROTATABLE_BOND>
16
> <PUBCHEM_CACTVS_SUBSKEYS>
AAADcfB/vAAAAAAAAAAAAAAAAAAAAWAAAAAwYAAAAAAAAAABQAAAHgAQCAAADTzhmAYzyIPABgCIAi3S2ACCAAAlAgAIiIGIbMiKZjLAtbmXcQhu1gPY+ae+72COAAACQAAAAAAAAASAAAAAAAAAAAAAAA==
> <PUBCHEM_IUPAC_OPENEYE_NAME>
5-[[(1S)-1-[[(1S)-1-[(2S,4R)-4-benzyloxy-2-[[(1S)-1-formylpropyl]carbamoyl]pyrrolidine-1-carbonyl]-2-methyl-propyl]carbamoyl]-2-methyl-propyl]carbamoylamino]benzene-1,3-dicarboxylic acid
> <PUBCHEM_IUPAC_CAS_NAME>
5-[[[[(2S)-3-methyl-1-[[(2S)-3-methyl-1-oxo-1-[(2S,4R)-2-[oxo-[[(2S)-1-oxobutan-2-yl]amino]methyl]-4-phenylmethoxy-1-pyrrolidinyl]butan-2-yl]amino]-1-oxobutan-2-yl]amino]-oxomethyl]amino]benzene-1,3-dicarboxylic acid
> <PUBCHEM_IUPAC_NAME_MARKUP>
5-[[(2<I>S</I>)-3-methyl-1-[[(2<I>S</I>)-3-methyl-1-oxo-1-[(2<I>S</I>,4<I>R</I>)-2-[[(2<I>S</I>)-1-oxobutan-2-yl]carbamoyl]-4-phenylmethoxypyrrolidin-1-yl]butan-2-yl]amino]-1-oxobutan-2-yl]carbamoylamino]benzene-1,3-dicarboxylic acid
> <PUBCHEM_IUPAC_NAME>
5-[[(2S)-3-methyl-1-[[(2S)-3-methyl-1-oxo-1-[(2S,4R)-2-[[(2S)-1-oxobutan-2-yl]carbamoyl]-4-phenylmethoxypyrrolidin-1-yl]butan-2-yl]amino]-1-oxobutan-2-yl]carbamoylamino]benzene-1,3-dicarboxylic acid
> <PUBCHEM_IUPAC_SYSTEMATIC_NAME>
5-[[(2S)-3-methyl-1-[[(2S)-3-methyl-1-oxidanylidene-1-[(2S,4R)-2-[[(2S)-1-oxidanylidenebutan-2-yl]carbamoyl]-4-phenylmethoxy-pyrrolidin-1-yl]butan-2-yl]amino]-1-oxidanylidene-butan-2-yl]carbamoylamino]benzene-1,3-dicarboxylic acid
> <PUBCHEM_IUPAC_TRADITIONAL_NAME>
5-[[(1S)-1-[[(1S)-1-[(2S,4R)-4-benzoxy-2-[[(1S)-1-formylpropyl]carbamoyl]pyrrolidine-1-carbonyl]-2-methyl-propyl]carbamoyl]-2-methyl-propyl]carbamoylamino]isophthalic acid
> <PUBCHEM_IUPAC_INCHI>
InChI=1S/C35H45N5O10/c1-6-24(17-41)36-30(42)27-15-26(50-18-21-10-8-7-9-11-21)16-40(27)32(44)29(20(4)5)38-31(43)28(19(2)3)39-35(49)37-25-13-22(33(45)46)12-23(14-25)34(47)48/h7-14,17,19-20,24,26-29H,6,15-16,18H2,1-5H3,(H,36,42)(H,38,43)(H,45,46)(H,47,48)(H2,37,39,49)/t24-,26+,27-,28-,29-/m0/s1
> <PUBCHEM_IUPAC_INCHIKEY>
KEUPCNTZLXTOLP-UOANIGEWSA-N
> <PUBCHEM_XLOGP3_AA>
3
> <PUBCHEM_EXACT_MASS>
695.31664265
> <PUBCHEM_MOLECULAR_FORMULA>
C35H45N5O10
> <PUBCHEM_MOLECULAR_WEIGHT>
695.8
> <PUBCHEM_OPENEYE_CAN_SMILES>
CCC(C=O)NC(=O)C1CC(CN1C(=O)C(C(C)C)NC(=O)C(C(C)C)NC(=O)NC2=CC(=CC(=C2)C(=O)O)C(=O)O)OCC3=CC=CC=C3
> <PUBCHEM_OPENEYE_ISO_SMILES>
CC[C@@H](C=O)NC(=O)[C@@H]1C[C@H](CN1C(=O)[C@H](C(C)C)NC(=O)[C@H](C(C)C)NC(=O)NC2=CC(=CC(=C2)C(=O)O)C(=O)O)OCC3=CC=CC=C3
> <PUBCHEM_CACTVS_TPSA>
221
> <PUBCHEM_MONOISOTOPIC_WEIGHT>
695.31664265
> <PUBCHEM_TOTAL_CHARGE>
0
> <PUBCHEM_HEAVY_ATOM_COUNT>
50
> <PUBCHEM_ATOM_DEF_STEREO_COUNT>
5
> <PUBCHEM_ATOM_UDEF_STEREO_COUNT>
0
> <PUBCHEM_BOND_DEF_STEREO_COUNT>
0
> <PUBCHEM_BOND_UDEF_STEREO_COUNT>
0
> <PUBCHEM_ISOTOPIC_ATOM_COUNT>
0
> <PUBCHEM_COMPONENT_COUNT>
1
> <PUBCHEM_CACTVS_TAUTO_COUNT>
-1
> <PUBCHEM_COORDINATE_TYPE>
1
5
255
> <PUBCHEM_BONDANNOTATIONS>
17  1  6
21  12  5
27  13  6
29  14  6
16  22  5
31  37  8
31  38  8
37  40  8
38  41  8
40  42  8
41  42  8
43  44  8
43  45  8
44  46  8
45  47  8
46  48  8
47  48  8
$$$$
