506716
  -OEChem-10302200282D
 78 78  0     1  0  0  0  0  0999 V2000
    4.5981    0.3100    0.0000 O   0  0  0  0  0  0  0  0  0  0  0  0
    8.0622   -0.6900    0.0000 O   0  0  0  0  0  0  0  0  0  0  0  0
    3.7320    3.8100    0.0000 O   0  0  0  0  0  0  0  0  0  0  0  0
    7.1962   -4.1900    0.0000 O   0  0  0  0  0  0  0  0  0  0  0  0
    6.3301    6.3100    0.0000 O   0  0  0  0  0  0  0  0  0  0  0  0
   11.5263   -5.6900    0.0000 O   0  0  0  0  0  0  0  0  0  0  0  0
    5.4641    1.8100    0.0000 N   0  0  0  0  0  0  0  0  0  0  0  0
    6.3301   -0.6900    0.0000 N   0  0  0  0  0  0  0  0  0  0  0  0
    8.0622   -2.6900    0.0000 N   0  0  0  0  0  0  0  0  0  0  0  0
    5.4641    3.8100    0.0000 N   0  0  0  0  0  0  0  0  0  0  0  0
    9.7942   -5.6900    0.0000 N   0  0  0  0  0  0  0  0  0  0  0  0
    6.3301    0.3100    0.0000 C   0  0  1  0  0  0  0  0  0  0  0  0
    7.1962    0.8100    0.0000 C   0  0  0  0  0  0  0  0  0  0  0  0
    4.5981    2.3100    0.0000 C   0  0  1  0  0  0  0  0  0  0  0  0
    3.7320    1.8100    0.0000 C   0  0  0  0  0  0  0  0  0  0  0  0
    2.8660    2.3100    0.0000 C   0  0  0  0  0  0  0  0  0  0  0  0
    7.1962   -2.1900    0.0000 C   0  0  1  0  0  0  0  0  0  0  0  0
    5.4641    0.8100    0.0000 C   0  0  0  0  0  0  0  0  0  0  0  0
    6.3301   -2.6900    0.0000 C   0  0  0  0  0  0  0  0  0  0  0  0
    7.1962   -1.1900    0.0000 C   0  0  0  0  0  0  0  0  0  0  0  0
    7.1962    1.8100    0.0000 C   0  0  0  0  0  0  0  0  0  0  0  0
    8.0622    0.3100    0.0000 C   0  0  0  0  0  0  0  0  0  0  0  0
    4.5981    3.3100    0.0000 C   0  0  0  0  0  0  0  0  0  0  0  0
    2.0000    1.8100    0.0000 C   0  0  0  0  0  0  0  0  0  0  0  0
    2.8660    3.3100    0.0000 C   0  0  0  0  0  0  0  0  0  0  0  0
    5.4641   -2.1900    0.0000 C   0  0  0  0  0  0  0  0  0  0  0  0
    6.3301   -3.6900    0.0000 C   0  0  0  0  0  0  0  0  0  0  0  0
    5.4641    4.8100    0.0000 C   0  0  1  0  0  0  0  0  0  0  0  0
    4.5981    5.3100    0.0000 C   0  0  0  0  0  0  0  0  0  0  0  0
    8.0622   -3.6900    0.0000 C   0  0  0  0  0  0  0  0  0  0  0  0
    6.3301    5.3100    0.0000 C   0  0  0  0  0  0  0  0  0  0  0  0
    4.5981    6.3100    0.0000 C   0  0  0  0  0  0  0  0  0  0  0  0
    8.9282   -4.1900    0.0000 C   0  0  0  0  0  0  0  0  0  0  0  0
    8.9282   -5.1900    0.0000 C   0  0  0  0  0  0  0  0  0  0  0  0
    9.7942   -3.6900    0.0000 C   0  0  0  0  0  0  0  0  0  0  0  0
   10.6603   -4.1900    0.0000 C   0  0  0  0  0  0  0  0  0  0  0  0
   10.6603   -5.1900    0.0000 C   0  0  0  0  0  0  0  0  0  0  0  0
    6.8671    0.0000    0.0000 H   0  0  0  0  0  0  0  0  0  0  0  0
    6.6592    1.1200    0.0000 H   0  0  0  0  0  0  0  0  0  0  0  0
    4.5981    1.6900    0.0000 H   0  0  0  0  0  0  0  0  0  0  0  0
    3.3335    1.3350    0.0000 H   0  0  0  0  0  0  0  0  0  0  0  0
    4.1306    1.3350    0.0000 H   0  0  0  0  0  0  0  0  0  0  0  0
    2.8660    1.6900    0.0000 H   0  0  0  0  0  0  0  0  0  0  0  0
    7.7331   -1.8800    0.0000 H   0  0  0  0  0  0  0  0  0  0  0  0
    6.0010    2.1200    0.0000 H   0  0  0  0  0  0  0  0  0  0  0  0
    6.8671   -3.0000    0.0000 H   0  0  0  0  0  0  0  0  0  0  0  0
    5.7932   -1.0000    0.0000 H   0  0  0  0  0  0  0  0  0  0  0  0
    7.8162    1.8100    0.0000 H   0  0  0  0  0  0  0  0  0  0  0  0
    7.1962    2.4300    0.0000 H   0  0  0  0  0  0  0  0  0  0  0  0
    6.5762    1.8100    0.0000 H   0  0  0  0  0  0  0  0  0  0  0  0
    7.7522   -0.2269    0.0000 H   0  0  0  0  0  0  0  0  0  0  0  0
    8.5991    0.0000    0.0000 H   0  0  0  0  0  0  0  0  0  0  0  0
    8.3722    0.8469    0.0000 H   0  0  0  0  0  0  0  0  0  0  0  0
    1.6900    2.3469    0.0000 H   0  0  0  0  0  0  0  0  0  0  0  0
    1.4631    1.5000    0.0000 H   0  0  0  0  0  0  0  0  0  0  0  0
    2.3100    1.2731    0.0000 H   0  0  0  0  0  0  0  0  0  0  0  0
    3.4860    3.3100    0.0000 H   0  0  0  0  0  0  0  0  0  0  0  0
    2.8660    3.9300    0.0000 H   0  0  0  0  0  0  0  0  0  0  0  0
    2.2460    3.3100    0.0000 H   0  0  0  0  0  0  0  0  0  0  0  0
    5.7741   -1.6531    0.0000 H   0  0  0  0  0  0  0  0  0  0  0  0
    4.9272   -1.8800    0.0000 H   0  0  0  0  0  0  0  0  0  0  0  0
    5.1541   -2.7269    0.0000 H   0  0  0  0  0  0  0  0  0  0  0  0
    5.7101   -3.6900    0.0000 H   0  0  0  0  0  0  0  0  0  0  0  0
    6.3301   -4.3100    0.0000 H   0  0  0  0  0  0  0  0  0  0  0  0
    6.9501   -3.6900    0.0000 H   0  0  0  0  0  0  0  0  0  0  0  0
    8.5991   -2.3800    0.0000 H   0  0  0  0  0  0  0  0  0  0  0  0
    6.0010    3.5000    0.0000 H   0  0  0  0  0  0  0  0  0  0  0  0
    6.0010    4.5000    0.0000 H   0  0  0  0  0  0  0  0  0  0  0  0
    3.9875    5.4177    0.0000 H   0  0  0  0  0  0  0  0  0  0  0  0
    4.3860    4.7274    0.0000 H   0  0  0  0  0  0  0  0  0  0  0  0
    6.8671    5.0000    0.0000 H   0  0  0  0  0  0  0  0  0  0  0  0
    5.2181    6.3100    0.0000 H   0  0  0  0  0  0  0  0  0  0  0  0
    4.5981    6.9300    0.0000 H   0  0  0  0  0  0  0  0  0  0  0  0
    3.9781    6.3100    0.0000 H   0  0  0  0  0  0  0  0  0  0  0  0
    8.3913   -5.5000    0.0000 H   0  0  0  0  0  0  0  0  0  0  0  0
    9.7942   -3.0700    0.0000 H   0  0  0  0  0  0  0  0  0  0  0  0
    9.7942   -6.3100    0.0000 H   0  0  0  0  0  0  0  0  0  0  0  0
   11.1972   -3.8800    0.0000 H   0  0  0  0  0  0  0  0  0  0  0  0
  1 18  2  0  0  0  0
  2 20  2  0  0  0  0
  3 23  2  0  0  0  0
  4 30  2  0  0  0  0
  5 31  2  0  0  0  0
  6 37  2  0  0  0  0
 14  7  1  1  0  0  0
  7 18  1  0  0  0  0
  7 45  1  0  0  0  0
 12  8  1  6  0  0  0
  8 20  1  0  0  0  0
  8 47  1  0  0  0  0
 17  9  1  1  0  0  0
  9 30  1  0  0  0  0
  9 66  1  0  0  0  0
 10 23  1  0  0  0  0
 28 10  1  1  0  0  0
 10 67  1  0  0  0  0
 11 34  1  0  0  0  0
 11 37  1  0  0  0  0
 11 77  1  0  0  0  0
 12 13  1  0  0  0  0
 12 18  1  0  0  0  0
 12 38  1  0  0  0  0
 13 21  1  0  0  0  0
 13 22  1  0  0  0  0
 13 39  1  0  0  0  0
 14 15  1  0  0  0  0
 14 23  1  0  0  0  0
 14 40  1  0  0  0  0
 15 16  1  0  0  0  0
 15 41  1  0  0  0  0
 15 42  1  0  0  0  0
 16 24  1  0  0  0  0
 16 25  1  0  0  0  0
 16 43  1  0  0  0  0
 17 19  1  0  0  0  0
 17 20  1  0  0  0  0
 17 44  1  0  0  0  0
 19 26  1  0  0  0  0
 19 27  1  0  0  0  0
 19 46  1  0  0  0  0
 21 48  1  0  0  0  0
 21 49  1  0  0  0  0
 21 50  1  0  0  0  0
 22 51  1  0  0  0  0
 22 52  1  0  0  0  0
 22 53  1  0  0  0  0
 24 54  1  0  0  0  0
 24 55  1  0  0  0  0
 24 56  1  0  0  0  0
 25 57  1  0  0  0  0
 25 58  1  0  0  0  0
 25 59  1  0  0  0  0
 26 60  1  0  0  0  0
 26 61  1  0  0  0  0
 26 62  1  0  0  0  0
 27 63  1  0  0  0  0
 27 64  1  0  0  0  0
 27 65  1  0  0  0  0
 28 29  1  0  0  0  0
 28 31  1  0  0  0  0
 28 68  1  0  0  0  0
 29 32  1  0  0  0  0
 29 69  1  0  0  0  0
 29 70  1  0  0  0  0
 30 33  1  0  0  0  0
 31 71  1  0  0  0  0
 32 72  1  0  0  0  0
 32 73  1  0  0  0  0
 32 74  1  0  0  0  0
 33 34  2  0  0  0  0
 33 35  1  0  0  0  0
 34 75  1  0  0  0  0
 35 36  2  0  0  0  0
 35 76  1  0  0  0  0
 36 37  1  0  0  0  0
 36 78  1  0  0  0  0
M  END
> <PUBCHEM_COMPOUND_CID>
506716
> <PUBCHEM_COMPOUND_CANONICALIZED>
1
> <PUBCHEM_CACTVS_COMPLEXITY>
924
> <PUBCHEM_CACTVS_HBOND_ACCEPTOR>
6
> <PUBCHEM_CACTVS_HBOND_DONOR>
5
> <PUBCHEM_CACTVS_ROTATABLE_BOND>
14
> <PUBCHEM_CACTVS_SUBSKEYS>
AAADcfB7uAAAAAAAAAAAAAAAAAAAAAAAAAAgAAAAAAAAAAAAAAAAHgAQAAAADSjhgAYCAALAAACIAilW0ACAAAAgAAAICIGIAEgIQBIAgSAUAAAAFgCIgcIYAAAMAAAAAAAAAAAAAAAAAAAAAAAAAAAAAA==
> <PUBCHEM_IUPAC_OPENEYE_NAME>
N-[(1S)-1-[[(1S)-1-[[(1S)-1-[[(1S)-1-formylpropyl]carbamoyl]-3-methyl-butyl]carbamoyl]-2-methyl-propyl]carbamoyl]-2-methyl-propyl]-6-oxo-1H-pyridine-3-carboxamide
> <PUBCHEM_IUPAC_CAS_NAME>
N-[(2S)-3-methyl-1-[[(2S)-3-methyl-1-[[(2S)-4-methyl-1-oxo-1-[[(2S)-1-oxobutan-2-yl]amino]pentan-2-yl]amino]-1-oxobutan-2-yl]amino]-1-oxobutan-2-yl]-6-oxo-1H-pyridine-3-carboxamide
> <PUBCHEM_IUPAC_NAME_MARKUP>
<I>N</I>-[(2<I>S</I>)-3-methyl-1-[[(2<I>S</I>)-3-methyl-1-[[(2<I>S</I>)-4-methyl-1-oxo-1-[[(2<I>S</I>)-1-oxobutan-2-yl]amino]pentan-2-yl]amino]-1-oxobutan-2-yl]amino]-1-oxobutan-2-yl]-6-oxo-1<I>H</I>-pyridine-3-carboxamide
> <PUBCHEM_IUPAC_NAME>
N-[(2S)-3-methyl-1-[[(2S)-3-methyl-1-[[(2S)-4-methyl-1-oxo-1-[[(2S)-1-oxobutan-2-yl]amino]pentan-2-yl]amino]-1-oxobutan-2-yl]amino]-1-oxobutan-2-yl]-6-oxo-1H-pyridine-3-carboxamide
> <PUBCHEM_IUPAC_SYSTEMATIC_NAME>
N-[(2S)-3-methyl-1-[[(2S)-3-methyl-1-[[(2S)-4-methyl-1-oxidanylidene-1-[[(2S)-1-oxidanylidenebutan-2-yl]amino]pentan-2-yl]amino]-1-oxidanylidene-butan-2-yl]amino]-1-oxidanylidene-butan-2-yl]-6-oxidanylidene-1H-pyridine-3-carboxamide
> <PUBCHEM_IUPAC_TRADITIONAL_NAME>
N-[(1S)-1-[[(1S)-1-[[(1S)-1-[[(1S)-1-formylpropyl]carbamoyl]-3-methyl-butyl]carbamoyl]-2-methyl-propyl]carbamoyl]-2-methyl-propyl]-6-keto-1H-pyridine-3-carboxamide
> <PUBCHEM_IUPAC_INCHI>
InChI=1S/C26H41N5O6/c1-8-18(13-32)28-24(35)19(11-14(2)3)29-25(36)21(15(4)5)31-26(37)22(16(6)7)30-23(34)17-9-10-20(33)27-12-17/h9-10,12-16,18-19,21-22H,8,11H2,1-7H3,(H,27,33)(H,28,35)(H,29,36)(H,30,34)(H,31,37)/t18-,19-,21-,22-/m0/s1
> <PUBCHEM_IUPAC_INCHIKEY>
BARWVJPXVBEWAH-LGGPRVQUSA-N
> <PUBCHEM_XLOGP3_AA>
2.2
> <PUBCHEM_EXACT_MASS>
519.30568404
> <PUBCHEM_MOLECULAR_FORMULA>
C26H41N5O6
> <PUBCHEM_MOLECULAR_WEIGHT>
519.6
> <PUBCHEM_OPENEYE_CAN_SMILES>
CCC(C=O)NC(=O)C(CC(C)C)NC(=O)C(C(C)C)NC(=O)C(C(C)C)NC(=O)C1=CNC(=O)C=C1
> <PUBCHEM_OPENEYE_ISO_SMILES>
CC[C@@H](C=O)NC(=O)[C@H](CC(C)C)NC(=O)[C@H](C(C)C)NC(=O)[C@H](C(C)C)NC(=O)C1=CNC(=O)C=C1
> <PUBCHEM_CACTVS_TPSA>
163
> <PUBCHEM_MONOISOTOPIC_WEIGHT>
519.30568404
> <PUBCHEM_TOTAL_CHARGE>
0
> <PUBCHEM_HEAVY_ATOM_COUNT>
37
> <PUBCHEM_ATOM_DEF_STEREO_COUNT>
4
> <PUBCHEM_ATOM_UDEF_STEREO_COUNT>
0
> <PUBCHEM_BOND_DEF_STEREO_COUNT>
0
> <PUBCHEM_BOND_UDEF_STEREO_COUNT>
0
> <PUBCHEM_ISOTOPIC_ATOM_COUNT>
0
> <PUBCHEM_COMPONENT_COUNT>
1
> <PUBCHEM_CACTVS_TAUTO_COUNT>
-1
> <PUBCHEM_COORDINATE_TYPE>
1
5
255
> <PUBCHEM_BONDANNOTATIONS>
28  10  5
11  34  8
11  37  8
33  34  8
33  35  8
35  36  8
36  37  8
14  7  5
12  8  6
17  9  5
$$$$
