506756
  -OEChem-10302200282D
 95 99  0     1  0  0  0  0  0999 V2000
    6.9744   -3.2187    0.0000 O   0  0  0  0  0  0  0  0  0  0  0  0
    8.9282    0.6292    0.0000 O   0  0  0  0  0  0  0  0  0  0  0  0
   10.0302   -0.1715    0.0000 O   0  0  0  0  0  0  0  0  0  0  0  0
    5.4641    1.6292    0.0000 O   0  0  0  0  0  0  0  0  0  0  0  0
   13.2107   -1.8698    0.0000 O   0  0  0  0  0  0  0  0  0  0  0  0
    4.5981    2.1292    0.0000 O   0  0  0  0  0  0  0  0  0  0  0  0
    8.0622   -0.8708    0.0000 N   0  0  0  0  0  0  0  0  0  0  0  0
    7.1962    1.6292    0.0000 N   0  0  0  0  0  0  0  0  0  0  0  0
   10.5654   -1.8187    0.0000 N   0  0  0  0  0  0  0  0  0  0  0  0
    5.4641    3.6292    0.0000 N   0  0  0  0  0  0  0  0  0  0  0  0
    2.8660    3.1292    0.0000 N   0  0  0  0  0  0  0  0  0  0  0  0
    2.8660    5.1292    0.0000 N   0  0  0  0  0  0  0  0  0  0  0  0
    8.8712   -1.4586    0.0000 C   0  0  1  0  0  0  0  0  0  0  0  0
    7.5622   -2.4097    0.0000 C   0  0  2  0  0  0  0  0  0  0  0  0
    8.5622   -2.4097    0.0000 C   0  0  0  0  0  0  0  0  0  0  0  0
    7.2532   -1.4586    0.0000 C   0  0  0  0  0  0  0  0  0  0  0  0
    8.0622    0.1292    0.0000 C   0  0  0  0  0  0  0  0  0  0  0  0
    7.1962    0.6292    0.0000 C   0  0  2  0  0  0  0  0  0  0  0  0
    9.8222   -1.1496    0.0000 C   0  0  0  0  0  0  0  0  0  0  0  0
    6.3301    0.1292    0.0000 C   0  0  0  0  0  0  0  0  0  0  0  0
    7.3811   -4.1322    0.0000 C   0  0  0  0  0  0  0  0  0  0  0  0
    5.4641    0.6292    0.0000 C   0  0  0  0  0  0  0  0  0  0  0  0
    6.3301   -0.8708    0.0000 C   0  0  0  0  0  0  0  0  0  0  0  0
   11.5165   -1.5097    0.0000 C   0  0  1  0  0  0  0  0  0  0  0  0
    6.3301    2.1292    0.0000 C   0  0  0  0  0  0  0  0  0  0  0  0
    6.3301    3.1292    0.0000 C   0  0  2  0  0  0  0  0  0  0  0  0
    6.7933   -4.9413    0.0000 C   0  0  0  0  0  0  0  0  0  0  0  0
   11.7244   -0.5316    0.0000 C   0  0  0  0  0  0  0  0  0  0  0  0
    7.1962    3.6292    0.0000 C   0  0  0  0  0  0  0  0  0  0  0  0
   12.2596   -2.1788    0.0000 C   0  0  0  0  0  0  0  0  0  0  0  0
   12.6754   -0.2226    0.0000 C   0  0  0  0  0  0  0  0  0  0  0  0
    7.1962    4.6292    0.0000 C   0  0  0  0  0  0  0  0  0  0  0  0
    5.7988   -4.8367    0.0000 C   0  0  0  0  0  0  0  0  0  0  0  0
    7.2001   -5.8548    0.0000 C   0  0  0  0  0  0  0  0  0  0  0  0
    8.0622    5.1292    0.0000 C   0  0  0  0  0  0  0  0  0  0  0  0
    5.2110   -5.6457    0.0000 C   0  0  0  0  0  0  0  0  0  0  0  0
    6.6123   -6.6638    0.0000 C   0  0  0  0  0  0  0  0  0  0  0  0
    6.3301    5.1292    0.0000 C   0  0  0  0  0  0  0  0  0  0  0  0
    4.5981    3.1292    0.0000 C   0  0  0  0  0  0  0  0  0  0  0  0
    8.0622    6.1292    0.0000 C   0  0  0  0  0  0  0  0  0  0  0  0
    5.6178   -6.5593    0.0000 C   0  0  0  0  0  0  0  0  0  0  0  0
    8.9561    4.5945    0.0000 C   0  0  0  0  0  0  0  0  0  0  0  0
    6.3301    6.1292    0.0000 C   0  0  0  0  0  0  0  0  0  0  0  0
    7.1962    6.6292    0.0000 C   0  0  0  0  0  0  0  0  0  0  0  0
    3.7320    3.6292    0.0000 C   0  0  0  0  0  0  0  0  0  0  0  0
    8.9561    6.6638    0.0000 C   0  0  0  0  0  0  0  0  0  0  0  0
    9.8622    5.1084    0.0000 C   0  0  0  0  0  0  0  0  0  0  0  0
    9.8622    6.1500    0.0000 C   0  0  0  0  0  0  0  0  0  0  0  0
    3.7320    4.6292    0.0000 C   0  0  0  0  0  0  0  0  0  0  0  0
    2.0000    3.6292    0.0000 C   0  0  0  0  0  0  0  0  0  0  0  0
    2.0000    4.6292    0.0000 C   0  0  0  0  0  0  0  0  0  0  0  0
    8.9682   -0.8463    0.0000 H   0  0  0  0  0  0  0  0  0  0  0  0
    6.9498   -2.3127    0.0000 H   0  0  0  0  0  0  0  0  0  0  0  0
    8.4974   -3.0263    0.0000 H   0  0  0  0  0  0  0  0  0  0  0  0
    9.1686   -2.5386    0.0000 H   0  0  0  0  0  0  0  0  0  0  0  0
    6.9432   -0.9217    0.0000 H   0  0  0  0  0  0  0  0  0  0  0  0
    6.6868   -1.7108    0.0000 H   0  0  0  0  0  0  0  0  0  0  0  0
    6.6592    0.9392    0.0000 H   0  0  0  0  0  0  0  0  0  0  0  0
    6.8671   -0.1808    0.0000 H   0  0  0  0  0  0  0  0  0  0  0  0
    7.7331    1.9392    0.0000 H   0  0  0  0  0  0  0  0  0  0  0  0
   10.4365   -2.4252    0.0000 H   0  0  0  0  0  0  0  0  0  0  0  0
    7.8118   -4.5782    0.0000 H   0  0  0  0  0  0  0  0  0  0  0  0
    7.8951   -3.7855    0.0000 H   0  0  0  0  0  0  0  0  0  0  0  0
    5.7741    1.1661    0.0000 H   0  0  0  0  0  0  0  0  0  0  0  0
    4.9272    0.9392    0.0000 H   0  0  0  0  0  0  0  0  0  0  0  0
    5.1541    0.0922    0.0000 H   0  0  0  0  0  0  0  0  0  0  0  0
    5.7101   -0.8708    0.0000 H   0  0  0  0  0  0  0  0  0  0  0  0
    6.3301   -1.4908    0.0000 H   0  0  0  0  0  0  0  0  0  0  0  0
    6.9501   -0.8708    0.0000 H   0  0  0  0  0  0  0  0  0  0  0  0
   11.3875   -2.1162    0.0000 H   0  0  0  0  0  0  0  0  0  0  0  0
    5.7932    2.8192    0.0000 H   0  0  0  0  0  0  0  0  0  0  0  0
   11.6381    0.0824    0.0000 H   0  0  0  0  0  0  0  0  0  0  0  0
   11.1047   -0.5099    0.0000 H   0  0  0  0  0  0  0  0  0  0  0  0
    7.4082    3.0466    0.0000 H   0  0  0  0  0  0  0  0  0  0  0  0
    7.8067    3.7368    0.0000 H   0  0  0  0  0  0  0  0  0  0  0  0
   12.1307   -2.7853    0.0000 H   0  0  0  0  0  0  0  0  0  0  0  0
    5.4641    4.2492    0.0000 H   0  0  0  0  0  0  0  0  0  0  0  0
   12.8670   -0.8122    0.0000 H   0  0  0  0  0  0  0  0  0  0  0  0
   13.2651   -0.0310    0.0000 H   0  0  0  0  0  0  0  0  0  0  0  0
   12.4838    0.3671    0.0000 H   0  0  0  0  0  0  0  0  0  0  0  0
    5.5466   -4.2703    0.0000 H   0  0  0  0  0  0  0  0  0  0  0  0
    7.8167   -5.9196    0.0000 H   0  0  0  0  0  0  0  0  0  0  0  0
    4.5944   -5.5809    0.0000 H   0  0  0  0  0  0  0  0  0  0  0  0
    6.8645   -7.2302    0.0000 H   0  0  0  0  0  0  0  0  0  0  0  0
    5.7932    4.8192    0.0000 H   0  0  0  0  0  0  0  0  0  0  0  0
    5.2534   -7.0609    0.0000 H   0  0  0  0  0  0  0  0  0  0  0  0
    8.9490    3.9745    0.0000 H   0  0  0  0  0  0  0  0  0  0  0  0
    5.7932    6.4392    0.0000 H   0  0  0  0  0  0  0  0  0  0  0  0
    7.1962    7.2492    0.0000 H   0  0  0  0  0  0  0  0  0  0  0  0
    8.9490    7.2838    0.0000 H   0  0  0  0  0  0  0  0  0  0  0  0
   10.3979    4.7963    0.0000 H   0  0  0  0  0  0  0  0  0  0  0  0
   10.3979    6.4620    0.0000 H   0  0  0  0  0  0  0  0  0  0  0  0
    4.2690    4.9392    0.0000 H   0  0  0  0  0  0  0  0  0  0  0  0
    1.4631    3.3192    0.0000 H   0  0  0  0  0  0  0  0  0  0  0  0
    1.4631    4.9392    0.0000 H   0  0  0  0  0  0  0  0  0  0  0  0
 14  1  1  1  0  0  0
  1 21  1  0  0  0  0
  2 17  2  0  0  0  0
  3 19  2  0  0  0  0
  4 25  2  0  0  0  0
  5 30  2  0  0  0  0
  6 39  2  0  0  0  0
  7 13  1  0  0  0  0
  7 16  1  0  0  0  0
  7 17  1  0  0  0  0
 18  8  1  6  0  0  0
  8 25  1  0  0  0  0
  8 60  1  0  0  0  0
  9 19  1  0  0  0  0
 24  9  1  1  0  0  0
  9 61  1  0  0  0  0
 26 10  1  1  0  0  0
 10 39  1  0  0  0  0
 10 77  1  0  0  0  0
 11 45  2  0  0  0  0
 11 50  1  0  0  0  0
 12 49  2  0  0  0  0
 12 51  1  0  0  0  0
 13 15  1  0  0  0  0
 13 19  1  6  0  0  0
 13 52  1  0  0  0  0
 14 15  1  0  0  0  0
 14 16  1  0  0  0  0
 14 53  1  0  0  0  0
 15 54  1  0  0  0  0
 15 55  1  0  0  0  0
 16 56  1  0  0  0  0
 16 57  1  0  0  0  0
 17 18  1  0  0  0  0
 18 20  1  0  0  0  0
 18 58  1  0  0  0  0
 20 22  1  0  0  0  0
 20 23  1  0  0  0  0
 20 59  1  0  0  0  0
 21 27  1  0  0  0  0
 21 62  1  0  0  0  0
 21 63  1  0  0  0  0
 22 64  1  0  0  0  0
 22 65  1  0  0  0  0
 22 66  1  0  0  0  0
 23 67  1  0  0  0  0
 23 68  1  0  0  0  0
 23 69  1  0  0  0  0
 24 28  1  0  0  0  0
 24 30  1  0  0  0  0
 24 70  1  0  0  0  0
 25 26  1  0  0  0  0
 26 29  1  0  0  0  0
 26 71  1  0  0  0  0
 27 33  2  0  0  0  0
 27 34  1  0  0  0  0
 28 31  1  0  0  0  0
 28 72  1  0  0  0  0
 28 73  1  0  0  0  0
 29 32  1  0  0  0  0
 29 74  1  0  0  0  0
 29 75  1  0  0  0  0
 30 76  1  0  0  0  0
 31 78  1  0  0  0  0
 31 79  1  0  0  0  0
 31 80  1  0  0  0  0
 32 35  1  0  0  0  0
 32 38  2  0  0  0  0
 33 36  1  0  0  0  0
 33 81  1  0  0  0  0
 34 37  2  0  0  0  0
 34 82  1  0  0  0  0
 35 40  1  0  0  0  0
 35 42  2  0  0  0  0
 36 41  2  0  0  0  0
 36 83  1  0  0  0  0
 37 41  1  0  0  0  0
 37 84  1  0  0  0  0
 38 43  1  0  0  0  0
 38 85  1  0  0  0  0
 39 45  1  0  0  0  0
 40 44  1  0  0  0  0
 40 46  2  0  0  0  0
 41 86  1  0  0  0  0
 42 47  1  0  0  0  0
 42 87  1  0  0  0  0
 43 44  2  0  0  0  0
 43 88  1  0  0  0  0
 44 89  1  0  0  0  0
 45 49  1  0  0  0  0
 46 48  1  0  0  0  0
 46 90  1  0  0  0  0
 47 48  2  0  0  0  0
 47 91  1  0  0  0  0
 48 92  1  0  0  0  0
 49 93  1  0  0  0  0
 50 51  2  0  0  0  0
 50 94  1  0  0  0  0
 51 95  1  0  0  0  0
M  END
> <PUBCHEM_COMPOUND_CID>
506756
> <PUBCHEM_COMPOUND_CANONICALIZED>
1
> <PUBCHEM_CACTVS_COMPLEXITY>
1180
> <PUBCHEM_CACTVS_HBOND_ACCEPTOR>
8
> <PUBCHEM_CACTVS_HBOND_DONOR>
3
> <PUBCHEM_CACTVS_ROTATABLE_BOND>
15
> <PUBCHEM_CACTVS_SUBSKEYS>
AAADcfB/uAAAAAAAAAAAAAAAAAAAAWAAAAA8YMEAAAAAAADB1AAAHgAQAAAADTzhngY+gNPIFACoAz131ACCgCQ3EiAI2IG4fMgKZnrA8TmXMIgm1gHYqMe6yeCOgAACAAAQAAAAAAQAACAAAAAAAAAAAA==
> <PUBCHEM_IUPAC_OPENEYE_NAME>
N-[(1S)-2-[[(1S)-1-[(2S,4R)-4-benzyloxy-2-[[(1S)-1-formylpropyl]carbamoyl]pyrrolidine-1-carbonyl]-2-methyl-propyl]amino]-1-(1-naphthylmethyl)-2-oxo-ethyl]pyrazine-2-carboxamide
> <PUBCHEM_IUPAC_CAS_NAME>
N-[(2S)-1-[[(2S)-3-methyl-1-oxo-1-[(2S,4R)-2-[oxo-[[(2S)-1-oxobutan-2-yl]amino]methyl]-4-phenylmethoxy-1-pyrrolidinyl]butan-2-yl]amino]-3-(1-naphthalenyl)-1-oxopropan-2-yl]-2-pyrazinecarboxamide
> <PUBCHEM_IUPAC_NAME_MARKUP>
<I>N</I>-[(2<I>S</I>)-1-[[(2<I>S</I>)-3-methyl-1-oxo-1-[(2<I>S</I>,4<I>R</I>)-2-[[(2<I>S</I>)-1-oxobutan-2-yl]carbamoyl]-4-phenylmethoxypyrrolidin-1-yl]butan-2-yl]amino]-3-naphthalen-1-yl-1-oxopropan-2-yl]pyrazine-2-carboxamide
> <PUBCHEM_IUPAC_NAME>
N-[(2S)-1-[[(2S)-3-methyl-1-oxo-1-[(2S,4R)-2-[[(2S)-1-oxobutan-2-yl]carbamoyl]-4-phenylmethoxypyrrolidin-1-yl]butan-2-yl]amino]-3-naphthalen-1-yl-1-oxopropan-2-yl]pyrazine-2-carboxamide
> <PUBCHEM_IUPAC_SYSTEMATIC_NAME>
N-[(2S)-1-[[(2S)-3-methyl-1-oxidanylidene-1-[(2S,4R)-2-[[(2S)-1-oxidanylidenebutan-2-yl]carbamoyl]-4-phenylmethoxy-pyrrolidin-1-yl]butan-2-yl]amino]-3-naphthalen-1-yl-1-oxidanylidene-propan-2-yl]pyrazine-2-carboxamide
> <PUBCHEM_IUPAC_TRADITIONAL_NAME>
N-[(1S)-2-[[(1S)-1-[(2S,4R)-4-benzoxy-2-[[(1S)-1-formylpropyl]carbamoyl]pyrrolidine-1-carbonyl]-2-methyl-propyl]amino]-2-keto-1-(1-naphthylmethyl)ethyl]pyrazinamide
> <PUBCHEM_IUPAC_INCHI>
InChI=1S/C39H44N6O6/c1-4-29(23-46)42-38(49)34-20-30(51-24-26-11-6-5-7-12-26)22-45(34)39(50)35(25(2)3)44-36(47)32(43-37(48)33-21-40-17-18-41-33)19-28-15-10-14-27-13-8-9-16-31(27)28/h5-18,21,23,25,29-30,32,34-35H,4,19-20,22,24H2,1-3H3,(H,42,49)(H,43,48)(H,44,47)/t29-,30+,32-,34-,35-/m0/s1
> <PUBCHEM_IUPAC_INCHIKEY>
IIDOFVABYVMNKD-GDCOMQTHSA-N
> <PUBCHEM_XLOGP3_AA>
4.3
> <PUBCHEM_EXACT_MASS>
692.33223314
> <PUBCHEM_MOLECULAR_FORMULA>
C39H44N6O6
> <PUBCHEM_MOLECULAR_WEIGHT>
692.8
> <PUBCHEM_OPENEYE_CAN_SMILES>
CCC(C=O)NC(=O)C1CC(CN1C(=O)C(C(C)C)NC(=O)C(CC2=CC=CC3=CC=CC=C32)NC(=O)C4=NC=CN=C4)OCC5=CC=CC=C5
> <PUBCHEM_OPENEYE_ISO_SMILES>
CC[C@@H](C=O)NC(=O)[C@@H]1C[C@H](CN1C(=O)[C@H](C(C)C)NC(=O)[C@H](CC2=CC=CC3=CC=CC=C32)NC(=O)C4=NC=CN=C4)OCC5=CC=CC=C5
> <PUBCHEM_CACTVS_TPSA>
160
> <PUBCHEM_MONOISOTOPIC_WEIGHT>
692.33223314
> <PUBCHEM_TOTAL_CHARGE>
0
> <PUBCHEM_HEAVY_ATOM_COUNT>
51
> <PUBCHEM_ATOM_DEF_STEREO_COUNT>
5
> <PUBCHEM_ATOM_UDEF_STEREO_COUNT>
0
> <PUBCHEM_BOND_DEF_STEREO_COUNT>
0
> <PUBCHEM_BOND_UDEF_STEREO_COUNT>
0
> <PUBCHEM_ISOTOPIC_ATOM_COUNT>
0
> <PUBCHEM_COMPONENT_COUNT>
1
> <PUBCHEM_CACTVS_TAUTO_COUNT>
-1
> <PUBCHEM_COORDINATE_TYPE>
1
5
255
> <PUBCHEM_BONDANNOTATIONS>
14  1  5
26  10  5
11  45  8
11  50  8
12  49  8
12  51  8
13  19  6
27  33  8
27  34  8
32  35  8
32  38  8
33  36  8
34  37  8
35  40  8
35  42  8
36  41  8
37  41  8
38  43  8
40  44  8
40  46  8
42  47  8
43  44  8
45  49  8
46  48  8
47  48  8
50  51  8
18  8  6
24  9  5
$$$$
