506795
  -OEChem-10302200282D
 79 81  0     1  0  0  0  0  0999 V2000
    8.9073    1.7528    0.0000 O   0  0  0  0  0  0  0  0  0  0  0  0
    4.5981    1.5209    0.0000 O   0  0  0  0  0  0  0  0  0  0  0  0
    4.7404    2.8755    0.0000 O   0  0  0  0  0  0  0  0  0  0  0  0
    5.4641   -1.9791    0.0000 O   0  0  0  0  0  0  0  0  0  0  0  0
    4.6210    6.4791    0.0000 O   0  0  0  0  0  0  0  0  0  0  0  0
    2.0000   -2.9791    0.0000 O   0  0  0  0  0  0  0  0  0  0  0  0
    6.3301    1.5209    0.0000 N   0  0  0  0  0  0  0  0  0  0  0  0
    5.8994    4.1627    0.0000 N   0  0  0  0  0  0  0  0  0  0  0  0
    4.5981   -0.4791    0.0000 N   0  0  0  0  0  0  0  0  0  0  0  0
    6.4347    2.5154    0.0000 C   0  0  1  0  0  0  0  0  0  0  0  0
    7.9128    1.8573    0.0000 C   0  0  2  0  0  0  0  0  0  0  0  0
    7.4128    2.7233    0.0000 C   0  0  0  0  0  0  0  0  0  0  0  0
    7.2437    1.1142    0.0000 C   0  0  0  0  0  0  0  0  0  0  0  0
    5.4641    1.0209    0.0000 C   0  0  0  0  0  0  0  0  0  0  0  0
    5.4641    0.0209    0.0000 C   0  0  2  0  0  0  0  0  0  0  0  0
    5.6915    3.1846    0.0000 C   0  0  0  0  0  0  0  0  0  0  0  0
    6.3301   -0.4791    0.0000 C   0  0  0  0  0  0  0  0  0  0  0  0
    9.4951    2.5618    0.0000 C   0  0  0  0  0  0  0  0  0  0  0  0
    6.3301   -1.4791    0.0000 C   0  0  0  0  0  0  0  0  0  0  0  0
    7.1962    0.0209    0.0000 C   0  0  0  0  0  0  0  0  0  0  0  0
    5.1563    4.8318    0.0000 C   0  0  1  0  0  0  0  0  0  0  0  0
    4.5981   -1.4791    0.0000 C   0  0  0  0  0  0  0  0  0  0  0  0
   10.4896    2.4573    0.0000 C   0  0  0  0  0  0  0  0  0  0  0  0
    4.2052    4.5228    0.0000 C   0  0  0  0  0  0  0  0  0  0  0  0
    3.7320   -1.9791    0.0000 C   0  0  0  0  0  0  0  0  0  0  0  0
    5.3642    5.8100    0.0000 C   0  0  0  0  0  0  0  0  0  0  0  0
    3.4621    5.1919    0.0000 C   0  0  0  0  0  0  0  0  0  0  0  0
   10.8964    1.5437    0.0000 C   0  0  0  0  0  0  0  0  0  0  0  0
   11.0774    3.2663    0.0000 C   0  0  0  0  0  0  0  0  0  0  0  0
    3.7320   -2.9791    0.0000 C   0  0  0  0  0  0  0  0  0  0  0  0
   11.8909    1.4392    0.0000 C   0  0  0  0  0  0  0  0  0  0  0  0
   12.0719    3.1618    0.0000 C   0  0  0  0  0  0  0  0  0  0  0  0
   12.4787    2.2482    0.0000 C   0  0  0  0  0  0  0  0  0  0  0  0
    2.8660   -3.4791    0.0000 C   0  0  0  0  0  0  0  0  0  0  0  0
    2.8660   -4.4791    0.0000 C   0  0  0  0  0  0  0  0  0  0  0  0
    3.7320   -4.9791    0.0000 C   0  0  0  0  0  0  0  0  0  0  0  0
    2.0000   -4.9791    0.0000 C   0  0  0  0  0  0  0  0  0  0  0  0
    3.7320   -5.9791    0.0000 C   0  0  0  0  0  0  0  0  0  0  0  0
    2.0000   -5.9791    0.0000 C   0  0  0  0  0  0  0  0  0  0  0  0
    2.8660   -6.4791    0.0000 C   0  0  0  0  0  0  0  0  0  0  0  0
    5.8558    2.2932    0.0000 H   0  0  0  0  0  0  0  0  0  0  0  0
    8.1350    1.2785    0.0000 H   0  0  0  0  0  0  0  0  0  0  0  0
    7.9792    2.9755    0.0000 H   0  0  0  0  0  0  0  0  0  0  0  0
    7.2212    3.3130    0.0000 H   0  0  0  0  0  0  0  0  0  0  0  0
    6.9337    0.5772    0.0000 H   0  0  0  0  0  0  0  0  0  0  0  0
    7.7453    0.7497    0.0000 H   0  0  0  0  0  0  0  0  0  0  0  0
    5.4641   -0.5991    0.0000 H   0  0  0  0  0  0  0  0  0  0  0  0
    6.8671   -0.7891    0.0000 H   0  0  0  0  0  0  0  0  0  0  0  0
    6.4891    4.3543    0.0000 H   0  0  0  0  0  0  0  0  0  0  0  0
    4.0611   -0.1691    0.0000 H   0  0  0  0  0  0  0  0  0  0  0  0
    9.6660    3.1578    0.0000 H   0  0  0  0  0  0  0  0  0  0  0  0
    8.9379    2.8336    0.0000 H   0  0  0  0  0  0  0  0  0  0  0  0
    5.7101   -1.4791    0.0000 H   0  0  0  0  0  0  0  0  0  0  0  0
    6.3301   -2.0991    0.0000 H   0  0  0  0  0  0  0  0  0  0  0  0
    6.9501   -1.4791    0.0000 H   0  0  0  0  0  0  0  0  0  0  0  0
    7.5062   -0.5160    0.0000 H   0  0  0  0  0  0  0  0  0  0  0  0
    7.7331    0.3309    0.0000 H   0  0  0  0  0  0  0  0  0  0  0  0
    6.8862    0.5578    0.0000 H   0  0  0  0  0  0  0  0  0  0  0  0
    5.7459    5.0234    0.0000 H   0  0  0  0  0  0  0  0  0  0  0  0
    3.7166    4.1411    0.0000 H   0  0  0  0  0  0  0  0  0  0  0  0
    4.4963    3.9754    0.0000 H   0  0  0  0  0  0  0  0  0  0  0  0
    3.5200   -1.3965    0.0000 H   0  0  0  0  0  0  0  0  0  0  0  0
    3.1215   -2.0868    0.0000 H   0  0  0  0  0  0  0  0  0  0  0  0
    5.9538    6.0016    0.0000 H   0  0  0  0  0  0  0  0  0  0  0  0
    3.8769    5.6527    0.0000 H   0  0  0  0  0  0  0  0  0  0  0  0
    3.0013    5.6068    0.0000 H   0  0  0  0  0  0  0  0  0  0  0  0
    3.0472    4.7312    0.0000 H   0  0  0  0  0  0  0  0  0  0  0  0
   10.5319    1.0421    0.0000 H   0  0  0  0  0  0  0  0  0  0  0  0
   10.8252    3.8327    0.0000 H   0  0  0  0  0  0  0  0  0  0  0  0
    3.9441   -3.5617    0.0000 H   0  0  0  0  0  0  0  0  0  0  0  0
    4.3426   -2.8714    0.0000 H   0  0  0  0  0  0  0  0  0  0  0  0
   12.1431    0.8728    0.0000 H   0  0  0  0  0  0  0  0  0  0  0  0
   12.4364    3.6633    0.0000 H   0  0  0  0  0  0  0  0  0  0  0  0
   13.0953    2.1834    0.0000 H   0  0  0  0  0  0  0  0  0  0  0  0
    4.2690   -4.6691    0.0000 H   0  0  0  0  0  0  0  0  0  0  0  0
    1.4631   -4.6691    0.0000 H   0  0  0  0  0  0  0  0  0  0  0  0
    4.2690   -6.2891    0.0000 H   0  0  0  0  0  0  0  0  0  0  0  0
    1.4631   -6.2891    0.0000 H   0  0  0  0  0  0  0  0  0  0  0  0
    2.8660   -7.0991    0.0000 H   0  0  0  0  0  0  0  0  0  0  0  0
 11  1  1  1  0  0  0
  1 18  1  0  0  0  0
  2 14  2  0  0  0  0
  3 16  2  0  0  0  0
  4 22  2  0  0  0  0
  5 26  2  0  0  0  0
  6 34  2  0  0  0  0
  7 10  1  0  0  0  0
  7 13  1  0  0  0  0
  7 14  1  0  0  0  0
  8 16  1  0  0  0  0
 21  8  1  1  0  0  0
  8 49  1  0  0  0  0
 15  9  1  6  0  0  0
  9 22  1  0  0  0  0
  9 50  1  0  0  0  0
 10 12  1  0  0  0  0
 10 16  1  6  0  0  0
 10 41  1  0  0  0  0
 11 12  1  0  0  0  0
 11 13  1  0  0  0  0
 11 42  1  0  0  0  0
 12 43  1  0  0  0  0
 12 44  1  0  0  0  0
 13 45  1  0  0  0  0
 13 46  1  0  0  0  0
 14 15  1  0  0  0  0
 15 17  1  0  0  0  0
 15 47  1  0  0  0  0
 17 19  1  0  0  0  0
 17 20  1  0  0  0  0
 17 48  1  0  0  0  0
 18 23  1  0  0  0  0
 18 51  1  0  0  0  0
 18 52  1  0  0  0  0
 19 53  1  0  0  0  0
 19 54  1  0  0  0  0
 19 55  1  0  0  0  0
 20 56  1  0  0  0  0
 20 57  1  0  0  0  0
 20 58  1  0  0  0  0
 21 24  1  0  0  0  0
 21 26  1  0  0  0  0
 21 59  1  0  0  0  0
 22 25  1  0  0  0  0
 23 28  2  0  0  0  0
 23 29  1  0  0  0  0
 24 27  1  0  0  0  0
 24 60  1  0  0  0  0
 24 61  1  0  0  0  0
 25 30  1  0  0  0  0
 25 62  1  0  0  0  0
 25 63  1  0  0  0  0
 26 64  1  0  0  0  0
 27 65  1  0  0  0  0
 27 66  1  0  0  0  0
 27 67  1  0  0  0  0
 28 31  1  0  0  0  0
 28 68  1  0  0  0  0
 29 32  2  0  0  0  0
 29 69  1  0  0  0  0
 30 34  1  0  0  0  0
 30 70  1  0  0  0  0
 30 71  1  0  0  0  0
 31 33  2  0  0  0  0
 31 72  1  0  0  0  0
 32 33  1  0  0  0  0
 32 73  1  0  0  0  0
 33 74  1  0  0  0  0
 34 35  1  0  0  0  0
 35 36  2  0  0  0  0
 35 37  1  0  0  0  0
 36 38  1  0  0  0  0
 36 75  1  0  0  0  0
 37 39  2  0  0  0  0
 37 76  1  0  0  0  0
 38 40  2  0  0  0  0
 38 77  1  0  0  0  0
 39 40  1  0  0  0  0
 39 78  1  0  0  0  0
 40 79  1  0  0  0  0
M  END
> <PUBCHEM_COMPOUND_CID>
506795
> <PUBCHEM_COMPOUND_CANONICALIZED>
1
> <PUBCHEM_CACTVS_COMPLEXITY>
865
> <PUBCHEM_CACTVS_HBOND_ACCEPTOR>
6
> <PUBCHEM_CACTVS_HBOND_DONOR>
2
> <PUBCHEM_CACTVS_ROTATABLE_BOND>
14
> <PUBCHEM_CACTVS_SUBSKEYS>
AAADcfB7OAAAAAAAAAAAAAAAAAAAAWAAAAAwYAAAAAAAAAABQAAAHgAQAAAADTzhmAYyAIPABACIAqlSkAACAAAkAAAIiIGICMgKZjKAtTiXMQAm1gGYqYe/yaCOAAAAAAAAAAAAAAAAAAAAAAAAAAAAAA==
> <PUBCHEM_IUPAC_OPENEYE_NAME>
(2S,4R)-4-benzyloxy-N-[(1S)-1-formylpropyl]-1-[(2S)-3-methyl-2-[(4-oxo-4-phenyl-butanoyl)amino]butanoyl]pyrrolidine-2-carboxamide
> <PUBCHEM_IUPAC_CAS_NAME>
(2S,4R)-1-[(2S)-2-[(1,4-dioxo-4-phenylbutyl)amino]-3-methyl-1-oxobutyl]-N-[(2S)-1-oxobutan-2-yl]-4-phenylmethoxy-2-pyrrolidinecarboxamide
> <PUBCHEM_IUPAC_NAME_MARKUP>
(2<I>S</I>,4<I>R</I>)-1-[(2<I>S</I>)-3-methyl-2-[(4-oxo-4-phenylbutanoyl)amino]butanoyl]-<I>N</I>-[(2<I>S</I>)-1-oxobutan-2-yl]-4-phenylmethoxypyrrolidine-2-carboxamide
> <PUBCHEM_IUPAC_NAME>
(2S,4R)-1-[(2S)-3-methyl-2-[(4-oxo-4-phenylbutanoyl)amino]butanoyl]-N-[(2S)-1-oxobutan-2-yl]-4-phenylmethoxypyrrolidine-2-carboxamide
> <PUBCHEM_IUPAC_SYSTEMATIC_NAME>
(2S,4R)-1-[(2S)-3-methyl-2-[(4-oxidanylidene-4-phenyl-butanoyl)amino]butanoyl]-N-[(2S)-1-oxidanylidenebutan-2-yl]-4-phenylmethoxy-pyrrolidine-2-carboxamide
> <PUBCHEM_IUPAC_TRADITIONAL_NAME>
(2S,4R)-4-benzoxy-N-[(1S)-1-formylpropyl]-1-[(2S)-2-[(4-keto-4-phenyl-butanoyl)amino]-3-methyl-butanoyl]pyrrolidine-2-carboxamide
> <PUBCHEM_IUPAC_INCHI>
InChI=1S/C31H39N3O6/c1-4-24(19-35)32-30(38)26-17-25(40-20-22-11-7-5-8-12-22)18-34(26)31(39)29(21(2)3)33-28(37)16-15-27(36)23-13-9-6-10-14-23/h5-14,19,21,24-26,29H,4,15-18,20H2,1-3H3,(H,32,38)(H,33,37)/t24-,25+,26-,29-/m0/s1
> <PUBCHEM_IUPAC_INCHIKEY>
FHFAXGLZHRNZCS-BVXNIFABSA-N
> <PUBCHEM_XLOGP3_AA>
3.1
> <PUBCHEM_EXACT_MASS>
549.28388597
> <PUBCHEM_MOLECULAR_FORMULA>
C31H39N3O6
> <PUBCHEM_MOLECULAR_WEIGHT>
549.7
> <PUBCHEM_OPENEYE_CAN_SMILES>
CCC(C=O)NC(=O)C1CC(CN1C(=O)C(C(C)C)NC(=O)CCC(=O)C2=CC=CC=C2)OCC3=CC=CC=C3
> <PUBCHEM_OPENEYE_ISO_SMILES>
CC[C@@H](C=O)NC(=O)[C@@H]1C[C@H](CN1C(=O)[C@H](C(C)C)NC(=O)CCC(=O)C2=CC=CC=C2)OCC3=CC=CC=C3
> <PUBCHEM_CACTVS_TPSA>
122
> <PUBCHEM_MONOISOTOPIC_WEIGHT>
549.28388597
> <PUBCHEM_TOTAL_CHARGE>
0
> <PUBCHEM_HEAVY_ATOM_COUNT>
40
> <PUBCHEM_ATOM_DEF_STEREO_COUNT>
4
> <PUBCHEM_ATOM_UDEF_STEREO_COUNT>
0
> <PUBCHEM_BOND_DEF_STEREO_COUNT>
0
> <PUBCHEM_BOND_UDEF_STEREO_COUNT>
0
> <PUBCHEM_ISOTOPIC_ATOM_COUNT>
0
> <PUBCHEM_COMPONENT_COUNT>
1
> <PUBCHEM_CACTVS_TAUTO_COUNT>
-1
> <PUBCHEM_COORDINATE_TYPE>
1
5
255
> <PUBCHEM_BONDANNOTATIONS>
11  1  5
10  16  6
23  28  8
23  29  8
28  31  8
29  32  8
31  33  8
32  33  8
35  36  8
35  37  8
36  38  8
37  39  8
38  40  8
39  40  8
21  8  5
15  9  6
$$$$
