506700
  -OEChem-10302200282D
 91 93  0     1  0  0  0  0  0999 V2000
    2.2079   -3.2741    0.0000 F   0  0  0  0  0  0  0  0  0  0  0  0
    4.1642   -3.6899    0.0000 F   0  0  0  0  0  0  0  0  0  0  0  0
    2.7702   -5.4383    0.0000 F   0  0  0  0  0  0  0  0  0  0  0  0
    2.0000   -4.2523    0.0000 F   0  0  0  0  0  0  0  0  0  0  0  0
    3.9563   -4.6681    0.0000 F   0  0  0  0  0  0  0  0  0  0  0  0
    5.1360    2.5932    0.0000 O   0  0  0  0  0  0  0  0  0  0  0  0
    7.4915   -1.0228    0.0000 O   0  0  0  0  0  0  0  0  0  0  0  0
    6.2471   -1.5768    0.0000 O   0  0  0  0  0  0  0  0  0  0  0  0
   10.0896    1.4772    0.0000 O   0  0  0  0  0  0  0  0  0  0  0  0
    2.6508   -1.8348    0.0000 O   0  0  0  0  0  0  0  0  0  0  0  0
   12.6876   -1.0228    0.0000 O   0  0  0  0  0  0  0  0  0  0  0  0
    6.6254    0.4772    0.0000 N   0  0  0  0  0  0  0  0  0  0  0  0
    4.5529   -1.2167    0.0000 N   0  0  0  0  0  0  0  0  0  0  0  0
    9.2235   -0.0228    0.0000 N   0  0  0  0  0  0  0  0  0  0  0  0
   11.8216    0.4772    0.0000 N   0  0  0  0  0  0  0  0  0  0  0  0
   14.4197   -0.0228    0.0000 N   0  0  0  0  0  0  0  0  0  0  0  0
   14.4197    1.9772    0.0000 N   0  0  0  0  0  0  0  0  0  0  0  0
    5.7119    0.0704    0.0000 C   0  0  1  0  0  0  0  0  0  0  0  0
    5.5428    1.6796    0.0000 C   0  0  2  0  0  0  0  0  0  0  0  0
    5.0428    0.8136    0.0000 C   0  0  0  0  0  0  0  0  0  0  0  0
    6.5209    1.4717    0.0000 C   0  0  0  0  0  0  0  0  0  0  0  0
    7.4915   -0.0228    0.0000 C   0  0  0  0  0  0  0  0  0  0  0  0
    8.3575    0.4772    0.0000 C   0  0  2  0  0  0  0  0  0  0  0  0
    5.5040   -0.9077    0.0000 C   0  0  0  0  0  0  0  0  0  0  0  0
    8.3575    1.4772    0.0000 C   0  0  0  0  0  0  0  0  0  0  0  0
    4.3450   -2.1949    0.0000 C   0  0  1  0  0  0  0  0  0  0  0  0
    4.1415    2.6977    0.0000 C   0  0  0  0  0  0  0  0  0  0  0  0
    7.4915    1.9772    0.0000 C   0  0  0  0  0  0  0  0  0  0  0  0
    9.2235    1.9772    0.0000 C   0  0  0  0  0  0  0  0  0  0  0  0
   10.0896    0.4772    0.0000 C   0  0  0  0  0  0  0  0  0  0  0  0
   10.9556   -0.0228    0.0000 C   0  0  2  0  0  0  0  0  0  0  0  0
    5.0882   -2.8640    0.0000 C   0  0  0  0  0  0  0  0  0  0  0  0
   10.9556   -1.0228    0.0000 C   0  0  0  0  0  0  0  0  0  0  0  0
    3.7348    3.6112    0.0000 C   0  0  0  0  0  0  0  0  0  0  0  0
    3.3940   -2.5039    0.0000 C   0  0  0  0  0  0  0  0  0  0  0  0
    4.8803   -3.8421    0.0000 C   0  0  0  0  0  0  0  0  0  0  0  0
    3.1861   -3.4820    0.0000 C   0  0  0  0  0  0  0  0  0  0  0  0
   10.0896   -1.5228    0.0000 C   0  0  0  0  0  0  0  0  0  0  0  0
   11.8216   -1.5228    0.0000 C   0  0  0  0  0  0  0  0  0  0  0  0
    4.3226    4.4202    0.0000 C   0  0  0  0  0  0  0  0  0  0  0  0
    2.7403    3.7158    0.0000 C   0  0  0  0  0  0  0  0  0  0  0  0
    2.9782   -4.4602    0.0000 C   0  0  0  0  0  0  0  0  0  0  0  0
   12.6876   -0.0228    0.0000 C   0  0  0  0  0  0  0  0  0  0  0  0
    3.9158    5.3338    0.0000 C   0  0  0  0  0  0  0  0  0  0  0  0
    2.3335    4.6293    0.0000 C   0  0  0  0  0  0  0  0  0  0  0  0
    2.9213    5.4383    0.0000 C   0  0  0  0  0  0  0  0  0  0  0  0
   13.5537    0.4772    0.0000 C   0  0  0  0  0  0  0  0  0  0  0  0
   13.5537    1.4772    0.0000 C   0  0  0  0  0  0  0  0  0  0  0  0
   15.2857    0.4772    0.0000 C   0  0  0  0  0  0  0  0  0  0  0  0
   15.2857    1.4772    0.0000 C   0  0  0  0  0  0  0  0  0  0  0  0
    6.1937   -0.3197    0.0000 H   0  0  0  0  0  0  0  0  0  0  0  0
    4.9236    1.7121    0.0000 H   0  0  0  0  0  0  0  0  0  0  0  0
    4.5412    1.1780    0.0000 H   0  0  0  0  0  0  0  0  0  0  0  0
    4.6279    0.3528    0.0000 H   0  0  0  0  0  0  0  0  0  0  0  0
    7.1409    1.4717    0.0000 H   0  0  0  0  0  0  0  0  0  0  0  0
    6.5857    2.0883    0.0000 H   0  0  0  0  0  0  0  0  0  0  0  0
    8.3575   -0.1428    0.0000 H   0  0  0  0  0  0  0  0  0  0  0  0
    8.8944    1.1672    0.0000 H   0  0  0  0  0  0  0  0  0  0  0  0
    4.0922   -0.8019    0.0000 H   0  0  0  0  0  0  0  0  0  0  0  0
    9.2235   -0.6428    0.0000 H   0  0  0  0  0  0  0  0  0  0  0  0
    3.8843   -1.7800    0.0000 H   0  0  0  0  0  0  0  0  0  0  0  0
    3.5399    2.5477    0.0000 H   0  0  0  0  0  0  0  0  0  0  0  0
    4.1848    2.0792    0.0000 H   0  0  0  0  0  0  0  0  0  0  0  0
    7.8015    2.5141    0.0000 H   0  0  0  0  0  0  0  0  0  0  0  0
    6.9545    2.2872    0.0000 H   0  0  0  0  0  0  0  0  0  0  0  0
    7.1815    1.4402    0.0000 H   0  0  0  0  0  0  0  0  0  0  0  0
    9.5335    1.4402    0.0000 H   0  0  0  0  0  0  0  0  0  0  0  0
    9.7605    2.2872    0.0000 H   0  0  0  0  0  0  0  0  0  0  0  0
    8.9135    2.5141    0.0000 H   0  0  0  0  0  0  0  0  0  0  0  0
   10.9556    0.5972    0.0000 H   0  0  0  0  0  0  0  0  0  0  0  0
    5.6630   -3.0962    0.0000 H   0  0  0  0  0  0  0  0  0  0  0  0
    5.4167   -2.3382    0.0000 H   0  0  0  0  0  0  0  0  0  0  0  0
   10.4186   -0.7128    0.0000 H   0  0  0  0  0  0  0  0  0  0  0  0
   11.8216    1.0972    0.0000 H   0  0  0  0  0  0  0  0  0  0  0  0
    4.2738   -3.7132    0.0000 H   0  0  0  0  0  0  0  0  0  0  0  0
    4.7514   -4.4486    0.0000 H   0  0  0  0  0  0  0  0  0  0  0  0
    5.4867   -3.9710    0.0000 H   0  0  0  0  0  0  0  0  0  0  0  0
    9.7796   -0.9859    0.0000 H   0  0  0  0  0  0  0  0  0  0  0  0
    9.5526   -1.8328    0.0000 H   0  0  0  0  0  0  0  0  0  0  0  0
   10.3996   -2.0598    0.0000 H   0  0  0  0  0  0  0  0  0  0  0  0
   11.5116   -2.0598    0.0000 H   0  0  0  0  0  0  0  0  0  0  0  0
   12.3585   -1.8328    0.0000 H   0  0  0  0  0  0  0  0  0  0  0  0
   12.1316   -0.9859    0.0000 H   0  0  0  0  0  0  0  0  0  0  0  0
    4.9392    4.3554    0.0000 H   0  0  0  0  0  0  0  0  0  0  0  0
    2.3758    3.2142    0.0000 H   0  0  0  0  0  0  0  0  0  0  0  0
    4.2803    5.8354    0.0000 H   0  0  0  0  0  0  0  0  0  0  0  0
    1.7169    4.6941    0.0000 H   0  0  0  0  0  0  0  0  0  0  0  0
    2.6691    6.0047    0.0000 H   0  0  0  0  0  0  0  0  0  0  0  0
   13.0167    1.7872    0.0000 H   0  0  0  0  0  0  0  0  0  0  0  0
   15.8226    0.1672    0.0000 H   0  0  0  0  0  0  0  0  0  0  0  0
   15.8226    1.7872    0.0000 H   0  0  0  0  0  0  0  0  0  0  0  0
  1 37  1  0  0  0  0
  2 37  1  0  0  0  0
  3 42  1  0  0  0  0
  4 42  1  0  0  0  0
  5 42  1  0  0  0  0
 19  6  1  1  0  0  0
  6 27  1  0  0  0  0
  7 22  2  0  0  0  0
  8 24  2  0  0  0  0
  9 30  2  0  0  0  0
 10 35  2  0  0  0  0
 11 43  2  0  0  0  0
 12 18  1  0  0  0  0
 12 21  1  0  0  0  0
 12 22  1  0  0  0  0
 13 24  1  0  0  0  0
 26 13  1  1  0  0  0
 13 59  1  0  0  0  0
 23 14  1  6  0  0  0
 14 30  1  0  0  0  0
 14 60  1  0  0  0  0
 31 15  1  1  0  0  0
 15 43  1  0  0  0  0
 15 74  1  0  0  0  0
 16 47  2  0  0  0  0
 16 49  1  0  0  0  0
 17 48  2  0  0  0  0
 17 50  1  0  0  0  0
 18 20  1  0  0  0  0
 18 24  1  6  0  0  0
 18 51  1  0  0  0  0
 19 20  1  0  0  0  0
 19 21  1  0  0  0  0
 19 52  1  0  0  0  0
 20 53  1  0  0  0  0
 20 54  1  0  0  0  0
 21 55  1  0  0  0  0
 21 56  1  0  0  0  0
 22 23  1  0  0  0  0
 23 25  1  0  0  0  0
 23 57  1  0  0  0  0
 25 28  1  0  0  0  0
 25 29  1  0  0  0  0
 25 58  1  0  0  0  0
 26 32  1  0  0  0  0
 26 35  1  0  0  0  0
 26 61  1  0  0  0  0
 27 34  1  0  0  0  0
 27 62  1  0  0  0  0
 27 63  1  0  0  0  0
 28 64  1  0  0  0  0
 28 65  1  0  0  0  0
 28 66  1  0  0  0  0
 29 67  1  0  0  0  0
 29 68  1  0  0  0  0
 29 69  1  0  0  0  0
 30 31  1  0  0  0  0
 31 33  1  0  0  0  0
 31 70  1  0  0  0  0
 32 36  1  0  0  0  0
 32 71  1  0  0  0  0
 32 72  1  0  0  0  0
 33 38  1  0  0  0  0
 33 39  1  0  0  0  0
 33 73  1  0  0  0  0
 34 40  2  0  0  0  0
 34 41  1  0  0  0  0
 35 37  1  0  0  0  0
 36 75  1  0  0  0  0
 36 76  1  0  0  0  0
 36 77  1  0  0  0  0
 37 42  1  0  0  0  0
 38 78  1  0  0  0  0
 38 79  1  0  0  0  0
 38 80  1  0  0  0  0
 39 81  1  0  0  0  0
 39 82  1  0  0  0  0
 39 83  1  0  0  0  0
 40 44  1  0  0  0  0
 40 84  1  0  0  0  0
 41 45  2  0  0  0  0
 41 85  1  0  0  0  0
 43 47  1  0  0  0  0
 44 46  2  0  0  0  0
 44 86  1  0  0  0  0
 45 46  1  0  0  0  0
 45 87  1  0  0  0  0
 46 88  1  0  0  0  0
 47 48  1  0  0  0  0
 48 89  1  0  0  0  0
 49 50  2  0  0  0  0
 49 90  1  0  0  0  0
 50 91  1  0  0  0  0
M  END
> <PUBCHEM_COMPOUND_CID>
506700
> <PUBCHEM_COMPOUND_CANONICALIZED>
1
> <PUBCHEM_CACTVS_COMPLEXITY>
1200
> <PUBCHEM_CACTVS_HBOND_ACCEPTOR>
13
> <PUBCHEM_CACTVS_HBOND_DONOR>
3
> <PUBCHEM_CACTVS_ROTATABLE_BOND>
15
> <PUBCHEM_CACTVS_SUBSKEYS>
AAADcfB/ucAAAAAAAAAAAAAAAAAAAWAAAAA8QAAAAAAAAAABwAAAHwAQAAAADTzhnhY+gJPIFACoA7V3VACCgCQ3EiAI2IG4fMgKZnrA8TiXMIgm1gHYqMe6wSAOAAAAAAAAAAAAAAAAAAAAAAAAAAAAAA==
> <PUBCHEM_IUPAC_OPENEYE_NAME>
N-[(1S)-1-[[(1S)-1-[(2S,4R)-4-benzyloxy-2-[[(1S)-1-ethyl-3,3,4,4,4-pentafluoro-2-oxo-butyl]carbamoyl]pyrrolidine-1-carbonyl]-2-methyl-propyl]carbamoyl]-2-methyl-propyl]pyrazine-2-carboxamide
> <PUBCHEM_IUPAC_CAS_NAME>
N-[(2S)-3-methyl-1-[[(2S)-3-methyl-1-oxo-1-[(2S,4R)-2-[oxo-[[(3S)-5,5,6,6,6-pentafluoro-4-oxohexan-3-yl]amino]methyl]-4-phenylmethoxy-1-pyrrolidinyl]butan-2-yl]amino]-1-oxobutan-2-yl]-2-pyrazinecarboxamide
> <PUBCHEM_IUPAC_NAME_MARKUP>
<I>N</I>-[(2<I>S</I>)-3-methyl-1-[[(2<I>S</I>)-3-methyl-1-oxo-1-[(2<I>S</I>,4<I>R</I>)-2-[[(3<I>S</I>)-5,5,6,6,6-pentafluoro-4-oxohexan-3-yl]carbamoyl]-4-phenylmethoxypyrrolidin-1-yl]butan-2-yl]amino]-1-oxobutan-2-yl]pyrazine-2-carboxamide
> <PUBCHEM_IUPAC_NAME>
N-[(2S)-3-methyl-1-[[(2S)-3-methyl-1-oxo-1-[(2S,4R)-2-[[(3S)-5,5,6,6,6-pentafluoro-4-oxohexan-3-yl]carbamoyl]-4-phenylmethoxypyrrolidin-1-yl]butan-2-yl]amino]-1-oxobutan-2-yl]pyrazine-2-carboxamide
> <PUBCHEM_IUPAC_SYSTEMATIC_NAME>
N-[(2S)-3-methyl-1-[[(2S)-3-methyl-1-oxidanylidene-1-[(2S,4R)-2-[[(3S)-5,5,6,6,6-pentakis(fluoranyl)-4-oxidanylidene-hexan-3-yl]carbamoyl]-4-phenylmethoxy-pyrrolidin-1-yl]butan-2-yl]amino]-1-oxidanylidene-butan-2-yl]pyrazine-2-carboxamide
> <PUBCHEM_IUPAC_TRADITIONAL_NAME>
N-[(1S)-1-[[(1S)-1-[(2S,4R)-4-benzoxy-2-[[(1S)-1-ethyl-3,3,4,4,4-pentafluoro-2-keto-butyl]carbamoyl]pyrrolidine-1-carbonyl]-2-methyl-propyl]carbamoyl]-2-methyl-propyl]pyrazinamide
> <PUBCHEM_IUPAC_INCHI>
InChI=1S/C33H41F5N6O6/c1-6-22(27(45)32(34,35)33(36,37)38)41-29(47)24-14-21(50-17-20-10-8-7-9-11-20)16-44(24)31(49)26(19(4)5)43-30(48)25(18(2)3)42-28(46)23-15-39-12-13-40-23/h7-13,15,18-19,21-22,24-26H,6,14,16-17H2,1-5H3,(H,41,47)(H,42,46)(H,43,48)/t21-,22+,24+,25+,26+/m1/s1
> <PUBCHEM_IUPAC_INCHIKEY>
MNXXHYPUKXIJKZ-FMZUAJDUSA-N
> <PUBCHEM_XLOGP3_AA>
4.4
> <PUBCHEM_EXACT_MASS>
712.30077386
> <PUBCHEM_MOLECULAR_FORMULA>
C33H41F5N6O6
> <PUBCHEM_MOLECULAR_WEIGHT>
712.7
> <PUBCHEM_OPENEYE_CAN_SMILES>
CCC(C(=O)C(C(F)(F)F)(F)F)NC(=O)C1CC(CN1C(=O)C(C(C)C)NC(=O)C(C(C)C)NC(=O)C2=NC=CN=C2)OCC3=CC=CC=C3
> <PUBCHEM_OPENEYE_ISO_SMILES>
CC[C@@H](C(=O)C(C(F)(F)F)(F)F)NC(=O)[C@@H]1C[C@H](CN1C(=O)[C@H](C(C)C)NC(=O)[C@H](C(C)C)NC(=O)C2=NC=CN=C2)OCC3=CC=CC=C3
> <PUBCHEM_CACTVS_TPSA>
160
> <PUBCHEM_MONOISOTOPIC_WEIGHT>
712.30077386
> <PUBCHEM_TOTAL_CHARGE>
0
> <PUBCHEM_HEAVY_ATOM_COUNT>
50
> <PUBCHEM_ATOM_DEF_STEREO_COUNT>
5
> <PUBCHEM_ATOM_UDEF_STEREO_COUNT>
0
> <PUBCHEM_BOND_DEF_STEREO_COUNT>
0
> <PUBCHEM_BOND_UDEF_STEREO_COUNT>
0
> <PUBCHEM_ISOTOPIC_ATOM_COUNT>
0
> <PUBCHEM_COMPONENT_COUNT>
1
> <PUBCHEM_CACTVS_TAUTO_COUNT>
-1
> <PUBCHEM_COORDINATE_TYPE>
1
5
255
> <PUBCHEM_BONDANNOTATIONS>
26  13  5
23  14  6
31  15  5
16  47  8
16  49  8
17  48  8
17  50  8
18  24  6
34  40  8
34  41  8
40  44  8
41  45  8
44  46  8
45  46  8
47  48  8
49  50  8
19  6  5
$$$$
