506720
  -OEChem-10302200282D
 80 80  0     1  0  0  0  0  0999 V2000
    7.1962    1.5000    0.0000 O   0  0  0  0  0  0  0  0  0  0  0  0
    9.7942   -1.0000    0.0000 O   0  0  0  0  0  0  0  0  0  0  0  0
    3.7320    0.5000    0.0000 O   0  0  0  0  0  0  0  0  0  0  0  0
   12.3923    1.5000    0.0000 O   0  0  0  0  0  0  0  0  0  0  0  0
    2.8660   -3.0000    0.0000 O   0  0  0  0  0  0  0  0  0  0  0  0
    6.3301    0.0000    0.0000 N   0  0  0  0  0  0  0  0  0  0  0  0
    8.9282    0.5000    0.0000 N   0  0  0  0  0  0  0  0  0  0  0  0
   11.5263    0.0000    0.0000 N   0  0  0  0  0  0  0  0  0  0  0  0
    4.5981   -1.0000    0.0000 N   0  0  0  0  0  0  0  0  0  0  0  0
   14.9904    0.0000    0.0000 N   0  0  0  0  0  0  0  0  0  0  0  0
    8.0622    0.0000    0.0000 C   0  0  1  0  0  0  0  0  0  0  0  0
    8.0622   -1.0000    0.0000 C   0  0  0  0  0  0  0  0  0  0  0  0
    5.4641    0.5000    0.0000 C   0  0  1  0  0  0  0  0  0  0  0  0
    5.4641    1.5000    0.0000 C   0  0  0  0  0  0  0  0  0  0  0  0
    4.5981    2.0000    0.0000 C   0  0  0  0  0  0  0  0  0  0  0  0
   10.6603    0.5000    0.0000 C   0  0  1  0  0  0  0  0  0  0  0  0
    7.1962    0.5000    0.0000 C   0  0  0  0  0  0  0  0  0  0  0  0
   10.6603    1.5000    0.0000 C   0  0  0  0  0  0  0  0  0  0  0  0
    9.7942    0.0000    0.0000 C   0  0  0  0  0  0  0  0  0  0  0  0
    7.1962   -1.5000    0.0000 C   0  0  0  0  0  0  0  0  0  0  0  0
    8.9282   -1.5000    0.0000 C   0  0  0  0  0  0  0  0  0  0  0  0
    4.5981   -0.0000    0.0000 C   0  0  0  0  0  0  0  0  0  0  0  0
    4.5981    3.0000    0.0000 C   0  0  0  0  0  0  0  0  0  0  0  0
    3.7320    1.5000    0.0000 C   0  0  0  0  0  0  0  0  0  0  0  0
    9.7942    2.0000    0.0000 C   0  0  0  0  0  0  0  0  0  0  0  0
   11.5263    2.0000    0.0000 C   0  0  0  0  0  0  0  0  0  0  0  0
    3.7320   -1.5000    0.0000 C   0  0  1  0  0  0  0  0  0  0  0  0
   12.3923    0.5000    0.0000 C   0  0  0  0  0  0  0  0  0  0  0  0
    2.8660   -1.0000    0.0000 C   0  0  0  0  0  0  0  0  0  0  0  0
   13.2583    0.0000    0.0000 C   0  0  0  0  0  0  0  0  0  0  0  0
    3.7320   -2.5000    0.0000 C   0  0  0  0  0  0  0  0  0  0  0  0
    2.0000   -1.5000    0.0000 C   0  0  0  0  0  0  0  0  0  0  0  0
   14.1244    0.5000    0.0000 C   0  0  0  0  0  0  0  0  0  0  0  0
   14.1244    1.5000    0.0000 C   0  0  0  0  0  0  0  0  0  0  0  0
   14.9904    2.0000    0.0000 C   0  0  0  0  0  0  0  0  0  0  0  0
   15.8564    0.5000    0.0000 C   0  0  0  0  0  0  0  0  0  0  0  0
   15.8564    1.5000    0.0000 C   0  0  0  0  0  0  0  0  0  0  0  0
    8.0622    0.6200    0.0000 H   0  0  0  0  0  0  0  0  0  0  0  0
    8.0622   -1.6200    0.0000 H   0  0  0  0  0  0  0  0  0  0  0  0
    5.4641   -0.1200    0.0000 H   0  0  0  0  0  0  0  0  0  0  0  0
    6.0747    1.3923    0.0000 H   0  0  0  0  0  0  0  0  0  0  0  0
    5.6762    2.0826    0.0000 H   0  0  0  0  0  0  0  0  0  0  0  0
    4.5981    1.3800    0.0000 H   0  0  0  0  0  0  0  0  0  0  0  0
   10.6603   -0.1200    0.0000 H   0  0  0  0  0  0  0  0  0  0  0  0
   11.1972    1.1900    0.0000 H   0  0  0  0  0  0  0  0  0  0  0  0
    6.3301   -0.6200    0.0000 H   0  0  0  0  0  0  0  0  0  0  0  0
    8.9282    1.1200    0.0000 H   0  0  0  0  0  0  0  0  0  0  0  0
    6.8862   -0.9631    0.0000 H   0  0  0  0  0  0  0  0  0  0  0  0
    6.6592   -1.8100    0.0000 H   0  0  0  0  0  0  0  0  0  0  0  0
    7.5062   -2.0369    0.0000 H   0  0  0  0  0  0  0  0  0  0  0  0
    8.6182   -2.0369    0.0000 H   0  0  0  0  0  0  0  0  0  0  0  0
    9.4651   -1.8100    0.0000 H   0  0  0  0  0  0  0  0  0  0  0  0
    9.2382   -0.9631    0.0000 H   0  0  0  0  0  0  0  0  0  0  0  0
    5.2181    3.0000    0.0000 H   0  0  0  0  0  0  0  0  0  0  0  0
    4.5981    3.6200    0.0000 H   0  0  0  0  0  0  0  0  0  0  0  0
    3.9781    3.0000    0.0000 H   0  0  0  0  0  0  0  0  0  0  0  0
    3.4220    2.0369    0.0000 H   0  0  0  0  0  0  0  0  0  0  0  0
    3.1951    1.1900    0.0000 H   0  0  0  0  0  0  0  0  0  0  0  0
    4.0420    0.9631    0.0000 H   0  0  0  0  0  0  0  0  0  0  0  0
   11.5263   -0.6200    0.0000 H   0  0  0  0  0  0  0  0  0  0  0  0
   10.1042    2.5369    0.0000 H   0  0  0  0  0  0  0  0  0  0  0  0
    9.2573    2.3100    0.0000 H   0  0  0  0  0  0  0  0  0  0  0  0
    9.4842    1.4631    0.0000 H   0  0  0  0  0  0  0  0  0  0  0  0
   11.8363    1.4631    0.0000 H   0  0  0  0  0  0  0  0  0  0  0  0
   12.0632    2.3100    0.0000 H   0  0  0  0  0  0  0  0  0  0  0  0
   11.2163    2.5369    0.0000 H   0  0  0  0  0  0  0  0  0  0  0  0
    5.1350   -1.3100    0.0000 H   0  0  0  0  0  0  0  0  0  0  0  0
    3.7320   -0.8800    0.0000 H   0  0  0  0  0  0  0  0  0  0  0  0
    3.2646   -0.5251    0.0000 H   0  0  0  0  0  0  0  0  0  0  0  0
    2.4675   -0.5251    0.0000 H   0  0  0  0  0  0  0  0  0  0  0  0
   12.8598   -0.4749    0.0000 H   0  0  0  0  0  0  0  0  0  0  0  0
   13.6569   -0.4749    0.0000 H   0  0  0  0  0  0  0  0  0  0  0  0
    4.2690   -2.8100    0.0000 H   0  0  0  0  0  0  0  0  0  0  0  0
    1.6900   -0.9631    0.0000 H   0  0  0  0  0  0  0  0  0  0  0  0
    1.4631   -1.8100    0.0000 H   0  0  0  0  0  0  0  0  0  0  0  0
    2.3100   -2.0369    0.0000 H   0  0  0  0  0  0  0  0  0  0  0  0
   13.5874    1.8100    0.0000 H   0  0  0  0  0  0  0  0  0  0  0  0
   14.9904    2.6200    0.0000 H   0  0  0  0  0  0  0  0  0  0  0  0
   16.3933    0.1900    0.0000 H   0  0  0  0  0  0  0  0  0  0  0  0
   16.3933    1.8100    0.0000 H   0  0  0  0  0  0  0  0  0  0  0  0
  1 17  2  0  0  0  0
  2 19  2  0  0  0  0
  3 22  2  0  0  0  0
  4 28  2  0  0  0  0
  5 31  2  0  0  0  0
 13  6  1  6  0  0  0
  6 17  1  0  0  0  0
  6 46  1  0  0  0  0
 11  7  1  1  0  0  0
  7 19  1  0  0  0  0
  7 47  1  0  0  0  0
 16  8  1  6  0  0  0
  8 28  1  0  0  0  0
  8 60  1  0  0  0  0
  9 22  1  0  0  0  0
 27  9  1  6  0  0  0
  9 67  1  0  0  0  0
 10 33  1  0  0  0  0
 10 36  2  0  0  0  0
 11 12  1  0  0  0  0
 11 17  1  0  0  0  0
 11 38  1  0  0  0  0
 12 20  1  0  0  0  0
 12 21  1  0  0  0  0
 12 39  1  0  0  0  0
 13 14  1  0  0  0  0
 13 22  1  0  0  0  0
 13 40  1  0  0  0  0
 14 15  1  0  0  0  0
 14 41  1  0  0  0  0
 14 42  1  0  0  0  0
 15 23  1  0  0  0  0
 15 24  1  0  0  0  0
 15 43  1  0  0  0  0
 16 18  1  0  0  0  0
 16 19  1  0  0  0  0
 16 44  1  0  0  0  0
 18 25  1  0  0  0  0
 18 26  1  0  0  0  0
 18 45  1  0  0  0  0
 20 48  1  0  0  0  0
 20 49  1  0  0  0  0
 20 50  1  0  0  0  0
 21 51  1  0  0  0  0
 21 52  1  0  0  0  0
 21 53  1  0  0  0  0
 23 54  1  0  0  0  0
 23 55  1  0  0  0  0
 23 56  1  0  0  0  0
 24 57  1  0  0  0  0
 24 58  1  0  0  0  0
 24 59  1  0  0  0  0
 25 61  1  0  0  0  0
 25 62  1  0  0  0  0
 25 63  1  0  0  0  0
 26 64  1  0  0  0  0
 26 65  1  0  0  0  0
 26 66  1  0  0  0  0
 27 29  1  0  0  0  0
 27 31  1  0  0  0  0
 27 68  1  0  0  0  0
 28 30  1  0  0  0  0
 29 32  1  0  0  0  0
 29 69  1  0  0  0  0
 29 70  1  0  0  0  0
 30 33  1  0  0  0  0
 30 71  1  0  0  0  0
 30 72  1  0  0  0  0
 31 73  1  0  0  0  0
 32 74  1  0  0  0  0
 32 75  1  0  0  0  0
 32 76  1  0  0  0  0
 33 34  2  0  0  0  0
 34 35  1  0  0  0  0
 34 77  1  0  0  0  0
 35 37  2  0  0  0  0
 35 78  1  0  0  0  0
 36 37  1  0  0  0  0
 36 79  1  0  0  0  0
 37 80  1  0  0  0  0
M  END
> <PUBCHEM_COMPOUND_CID>
506720
> <PUBCHEM_COMPOUND_CANONICALIZED>
1
> <PUBCHEM_CACTVS_COMPLEXITY>
770
> <PUBCHEM_CACTVS_HBOND_ACCEPTOR>
6
> <PUBCHEM_CACTVS_HBOND_DONOR>
4
> <PUBCHEM_CACTVS_ROTATABLE_BOND>
15
> <PUBCHEM_CACTVS_SUBSKEYS>
AAADcfB7uAAAAAAAAAAAAAAAAAAAAAAAAAAsAAAAAAAAAAABgAAAHgAQAAAADSjhlgY+gJLIEACoAT131ACCgCAxAiAI2KG4ZJgIYPrA1bGUIAhglgDIyAcYiACMAAAAAAAAAAAAAAAAAAAAAAAAAAAAAA==
> <PUBCHEM_IUPAC_OPENEYE_NAME>
(2S)-N-[(1S)-1-formylpropyl]-4-methyl-2-[[(2S)-3-methyl-2-[[(2S)-3-methyl-2-[[2-(2-pyridyl)acetyl]amino]butanoyl]amino]butanoyl]amino]pentanamide
> <PUBCHEM_IUPAC_CAS_NAME>
(2S)-4-methyl-2-[[(2S)-3-methyl-2-[[(2S)-3-methyl-1-oxo-2-[[1-oxo-2-(2-pyridinyl)ethyl]amino]butyl]amino]-1-oxobutyl]amino]-N-[(2S)-1-oxobutan-2-yl]pentanamide
> <PUBCHEM_IUPAC_NAME_MARKUP>
(2<I>S</I>)-4-methyl-2-[[(2<I>S</I>)-3-methyl-2-[[(2<I>S</I>)-3-methyl-2-[(2-pyridin-2-ylacetyl)amino]butanoyl]amino]butanoyl]amino]-<I>N</I>-[(2<I>S</I>)-1-oxobutan-2-yl]pentanamide
> <PUBCHEM_IUPAC_NAME>
(2S)-4-methyl-2-[[(2S)-3-methyl-2-[[(2S)-3-methyl-2-[(2-pyridin-2-ylacetyl)amino]butanoyl]amino]butanoyl]amino]-N-[(2S)-1-oxobutan-2-yl]pentanamide
> <PUBCHEM_IUPAC_SYSTEMATIC_NAME>
(2S)-4-methyl-2-[[(2S)-3-methyl-2-[[(2S)-3-methyl-2-(2-pyridin-2-ylethanoylamino)butanoyl]amino]butanoyl]amino]-N-[(2S)-1-oxidanylidenebutan-2-yl]pentanamide
> <PUBCHEM_IUPAC_TRADITIONAL_NAME>
(2S)-N-[(1S)-1-formylpropyl]-4-methyl-2-[[(2S)-3-methyl-2-[[(2S)-3-methyl-2-[[2-(2-pyridyl)acetyl]amino]butanoyl]amino]butanoyl]amino]valeramide
> <PUBCHEM_IUPAC_INCHI>
InChI=1S/C27H43N5O5/c1-8-19(15-33)29-25(35)21(13-16(2)3)30-26(36)24(18(6)7)32-27(37)23(17(4)5)31-22(34)14-20-11-9-10-12-28-20/h9-12,15-19,21,23-24H,8,13-14H2,1-7H3,(H,29,35)(H,30,36)(H,31,34)(H,32,37)/t19-,21-,23-,24-/m0/s1
> <PUBCHEM_IUPAC_INCHIKEY>
XYVSFUNSKAUIAS-OHCFRWENSA-N
> <PUBCHEM_XLOGP3_AA>
3
> <PUBCHEM_EXACT_MASS>
517.32641949
> <PUBCHEM_MOLECULAR_FORMULA>
C27H43N5O5
> <PUBCHEM_MOLECULAR_WEIGHT>
517.7
> <PUBCHEM_OPENEYE_CAN_SMILES>
CCC(C=O)NC(=O)C(CC(C)C)NC(=O)C(C(C)C)NC(=O)C(C(C)C)NC(=O)CC1=CC=CC=N1
> <PUBCHEM_OPENEYE_ISO_SMILES>
CC[C@@H](C=O)NC(=O)[C@H](CC(C)C)NC(=O)[C@H](C(C)C)NC(=O)[C@H](C(C)C)NC(=O)CC1=CC=CC=N1
> <PUBCHEM_CACTVS_TPSA>
146
> <PUBCHEM_MONOISOTOPIC_WEIGHT>
517.32641949
> <PUBCHEM_TOTAL_CHARGE>
0
> <PUBCHEM_HEAVY_ATOM_COUNT>
37
> <PUBCHEM_ATOM_DEF_STEREO_COUNT>
4
> <PUBCHEM_ATOM_UDEF_STEREO_COUNT>
0
> <PUBCHEM_BOND_DEF_STEREO_COUNT>
0
> <PUBCHEM_BOND_UDEF_STEREO_COUNT>
0
> <PUBCHEM_ISOTOPIC_ATOM_COUNT>
0
> <PUBCHEM_COMPONENT_COUNT>
1
> <PUBCHEM_CACTVS_TAUTO_COUNT>
-1
> <PUBCHEM_COORDINATE_TYPE>
1
5
255
> <PUBCHEM_BONDANNOTATIONS>
10  33  8
10  36  8
33  34  8
34  35  8
35  37  8
36  37  8
13  6  6
11  7  5
16  8  6
27  9  6
$$$$
