506758
  -OEChem-10302200282D
 86 89  0     1  0  0  0  0  0999 V2000
   11.5054    1.0028    0.0000 O   0  0  0  0  0  0  0  0  0  0  0  0
    7.1962    0.7709    0.0000 O   0  0  0  0  0  0  0  0  0  0  0  0
    7.3385    2.1255    0.0000 O   0  0  0  0  0  0  0  0  0  0  0  0
    8.0622   -2.7291    0.0000 O   0  0  0  0  0  0  0  0  0  0  0  0
    7.2191    5.7291    0.0000 O   0  0  0  0  0  0  0  0  0  0  0  0
    4.5981   -3.7291    0.0000 O   0  0  0  0  0  0  0  0  0  0  0  0
    8.9282    0.7709    0.0000 N   0  0  0  0  0  0  0  0  0  0  0  0
    8.4975    3.4127    0.0000 N   0  0  0  0  0  0  0  0  0  0  0  0
    7.1962   -1.2291    0.0000 N   0  0  0  0  0  0  0  0  0  0  0  0
    5.4641   -2.2291    0.0000 N   0  0  0  0  0  0  0  0  0  0  0  0
    3.7320   -1.2291    0.0000 N   0  0  0  0  0  0  0  0  0  0  0  0
    2.0000   -2.2291    0.0000 N   0  0  0  0  0  0  0  0  0  0  0  0
    9.0327    1.7654    0.0000 C   0  0  1  0  0  0  0  0  0  0  0  0
   10.5109    1.1073    0.0000 C   0  0  2  0  0  0  0  0  0  0  0  0
   10.0109    1.9733    0.0000 C   0  0  0  0  0  0  0  0  0  0  0  0
    9.8418    0.3642    0.0000 C   0  0  0  0  0  0  0  0  0  0  0  0
    8.0622    0.2709    0.0000 C   0  0  0  0  0  0  0  0  0  0  0  0
    8.0622   -0.7291    0.0000 C   0  0  2  0  0  0  0  0  0  0  0  0
    8.2896    2.4346    0.0000 C   0  0  0  0  0  0  0  0  0  0  0  0
    8.9282   -1.2291    0.0000 C   0  0  0  0  0  0  0  0  0  0  0  0
   12.0932    1.8118    0.0000 C   0  0  0  0  0  0  0  0  0  0  0  0
    8.9282   -2.2291    0.0000 C   0  0  0  0  0  0  0  0  0  0  0  0
    9.7942   -0.7291    0.0000 C   0  0  0  0  0  0  0  0  0  0  0  0
    7.7544    4.0818    0.0000 C   0  0  1  0  0  0  0  0  0  0  0  0
    7.1962   -2.2291    0.0000 C   0  0  0  0  0  0  0  0  0  0  0  0
   13.0877    1.7073    0.0000 C   0  0  0  0  0  0  0  0  0  0  0  0
    6.8033    3.7728    0.0000 C   0  0  0  0  0  0  0  0  0  0  0  0
    6.3301   -2.7291    0.0000 C   0  0  2  0  0  0  0  0  0  0  0  0
    7.9623    5.0600    0.0000 C   0  0  0  0  0  0  0  0  0  0  0  0
    6.0602    4.4419    0.0000 C   0  0  0  0  0  0  0  0  0  0  0  0
   13.4944    0.7937    0.0000 C   0  0  0  0  0  0  0  0  0  0  0  0
   13.6755    2.5163    0.0000 C   0  0  0  0  0  0  0  0  0  0  0  0
    6.3301   -3.7291    0.0000 C   0  0  0  0  0  0  0  0  0  0  0  0
   14.4890    0.6892    0.0000 C   0  0  0  0  0  0  0  0  0  0  0  0
   14.6700    2.4118    0.0000 C   0  0  0  0  0  0  0  0  0  0  0  0
    5.4641   -4.2291    0.0000 C   0  0  0  0  0  0  0  0  0  0  0  0
    7.1962   -4.2291    0.0000 C   0  0  0  0  0  0  0  0  0  0  0  0
   15.0768    1.4982    0.0000 C   0  0  0  0  0  0  0  0  0  0  0  0
    4.5981   -2.7291    0.0000 C   0  0  0  0  0  0  0  0  0  0  0  0
    5.4641   -5.2291    0.0000 C   0  0  0  0  0  0  0  0  0  0  0  0
    7.1962   -5.2291    0.0000 C   0  0  0  0  0  0  0  0  0  0  0  0
    6.3301   -5.7291    0.0000 C   0  0  0  0  0  0  0  0  0  0  0  0
    3.7320   -2.2291    0.0000 C   0  0  0  0  0  0  0  0  0  0  0  0
    2.8660   -2.7291    0.0000 C   0  0  0  0  0  0  0  0  0  0  0  0
    2.8660   -0.7291    0.0000 C   0  0  0  0  0  0  0  0  0  0  0  0
    2.0000   -1.2291    0.0000 C   0  0  0  0  0  0  0  0  0  0  0  0
    8.4539    1.5432    0.0000 H   0  0  0  0  0  0  0  0  0  0  0  0
   10.7331    0.5285    0.0000 H   0  0  0  0  0  0  0  0  0  0  0  0
   10.5773    2.2255    0.0000 H   0  0  0  0  0  0  0  0  0  0  0  0
    9.8193    2.5630    0.0000 H   0  0  0  0  0  0  0  0  0  0  0  0
    9.5318   -0.1728    0.0000 H   0  0  0  0  0  0  0  0  0  0  0  0
   10.3433   -0.0003    0.0000 H   0  0  0  0  0  0  0  0  0  0  0  0
    8.0622   -1.3491    0.0000 H   0  0  0  0  0  0  0  0  0  0  0  0
    9.4651   -1.5391    0.0000 H   0  0  0  0  0  0  0  0  0  0  0  0
    9.0872    3.6043    0.0000 H   0  0  0  0  0  0  0  0  0  0  0  0
    6.6592   -0.9191    0.0000 H   0  0  0  0  0  0  0  0  0  0  0  0
   12.2641    2.4078    0.0000 H   0  0  0  0  0  0  0  0  0  0  0  0
   11.5359    2.0836    0.0000 H   0  0  0  0  0  0  0  0  0  0  0  0
    8.3082   -2.2291    0.0000 H   0  0  0  0  0  0  0  0  0  0  0  0
    8.9282   -2.8491    0.0000 H   0  0  0  0  0  0  0  0  0  0  0  0
    9.5482   -2.2291    0.0000 H   0  0  0  0  0  0  0  0  0  0  0  0
   10.1042   -1.2660    0.0000 H   0  0  0  0  0  0  0  0  0  0  0  0
   10.3312   -0.4191    0.0000 H   0  0  0  0  0  0  0  0  0  0  0  0
    9.4842   -0.1922    0.0000 H   0  0  0  0  0  0  0  0  0  0  0  0
    7.6254    3.4754    0.0000 H   0  0  0  0  0  0  0  0  0  0  0  0
    6.3147    3.3911    0.0000 H   0  0  0  0  0  0  0  0  0  0  0  0
    7.0944    3.2254    0.0000 H   0  0  0  0  0  0  0  0  0  0  0  0
    5.7932   -3.0391    0.0000 H   0  0  0  0  0  0  0  0  0  0  0  0
    8.5519    5.2516    0.0000 H   0  0  0  0  0  0  0  0  0  0  0  0
    6.4750    4.9027    0.0000 H   0  0  0  0  0  0  0  0  0  0  0  0
    5.5994    4.8568    0.0000 H   0  0  0  0  0  0  0  0  0  0  0  0
    5.6453    3.9812    0.0000 H   0  0  0  0  0  0  0  0  0  0  0  0
   13.1300    0.2921    0.0000 H   0  0  0  0  0  0  0  0  0  0  0  0
   13.4233    3.0827    0.0000 H   0  0  0  0  0  0  0  0  0  0  0  0
    5.4641   -1.6091    0.0000 H   0  0  0  0  0  0  0  0  0  0  0  0
   14.7411    0.1228    0.0000 H   0  0  0  0  0  0  0  0  0  0  0  0
   15.0344    2.9133    0.0000 H   0  0  0  0  0  0  0  0  0  0  0  0
    4.9272   -3.9191    0.0000 H   0  0  0  0  0  0  0  0  0  0  0  0
    7.7331   -3.9191    0.0000 H   0  0  0  0  0  0  0  0  0  0  0  0
   15.6934    1.4334    0.0000 H   0  0  0  0  0  0  0  0  0  0  0  0
    4.9272   -5.5391    0.0000 H   0  0  0  0  0  0  0  0  0  0  0  0
    7.7331   -5.5391    0.0000 H   0  0  0  0  0  0  0  0  0  0  0  0
    6.3301   -6.3491    0.0000 H   0  0  0  0  0  0  0  0  0  0  0  0
    2.8660   -3.3491    0.0000 H   0  0  0  0  0  0  0  0  0  0  0  0
    2.8660   -0.1091    0.0000 H   0  0  0  0  0  0  0  0  0  0  0  0
    1.4631   -0.9191    0.0000 H   0  0  0  0  0  0  0  0  0  0  0  0
 14  1  1  1  0  0  0
  1 21  1  0  0  0  0
  2 17  2  0  0  0  0
  3 19  2  0  0  0  0
  4 25  2  0  0  0  0
  5 29  2  0  0  0  0
  6 39  2  0  0  0  0
  7 13  1  0  0  0  0
  7 16  1  0  0  0  0
  7 17  1  0  0  0  0
  8 19  1  0  0  0  0
 24  8  1  1  0  0  0
  8 55  1  0  0  0  0
 18  9  1  6  0  0  0
  9 25  1  0  0  0  0
  9 56  1  0  0  0  0
 28 10  1  6  0  0  0
 10 39  1  0  0  0  0
 10 75  1  0  0  0  0
 11 43  2  0  0  0  0
 11 45  1  0  0  0  0
 12 44  2  0  0  0  0
 12 46  1  0  0  0  0
 13 15  1  0  0  0  0
 13 19  1  6  0  0  0
 13 47  1  0  0  0  0
 14 15  1  0  0  0  0
 14 16  1  0  0  0  0
 14 48  1  0  0  0  0
 15 49  1  0  0  0  0
 15 50  1  0  0  0  0
 16 51  1  0  0  0  0
 16 52  1  0  0  0  0
 17 18  1  0  0  0  0
 18 20  1  0  0  0  0
 18 53  1  0  0  0  0
 20 22  1  0  0  0  0
 20 23  1  0  0  0  0
 20 54  1  0  0  0  0
 21 26  1  0  0  0  0
 21 57  1  0  0  0  0
 21 58  1  0  0  0  0
 22 59  1  0  0  0  0
 22 60  1  0  0  0  0
 22 61  1  0  0  0  0
 23 62  1  0  0  0  0
 23 63  1  0  0  0  0
 23 64  1  0  0  0  0
 24 27  1  0  0  0  0
 24 29  1  0  0  0  0
 24 65  1  0  0  0  0
 25 28  1  0  0  0  0
 26 31  2  0  0  0  0
 26 32  1  0  0  0  0
 27 30  1  0  0  0  0
 27 66  1  0  0  0  0
 27 67  1  0  0  0  0
 28 33  1  0  0  0  0
 28 68  1  0  0  0  0
 29 69  1  0  0  0  0
 30 70  1  0  0  0  0
 30 71  1  0  0  0  0
 30 72  1  0  0  0  0
 31 34  1  0  0  0  0
 31 73  1  0  0  0  0
 32 35  2  0  0  0  0
 32 74  1  0  0  0  0
 33 36  2  0  0  0  0
 33 37  1  0  0  0  0
 34 38  2  0  0  0  0
 34 76  1  0  0  0  0
 35 38  1  0  0  0  0
 35 77  1  0  0  0  0
 36 40  1  0  0  0  0
 36 78  1  0  0  0  0
 37 41  2  0  0  0  0
 37 79  1  0  0  0  0
 38 80  1  0  0  0  0
 39 43  1  0  0  0  0
 40 42  2  0  0  0  0
 40 81  1  0  0  0  0
 41 42  1  0  0  0  0
 41 82  1  0  0  0  0
 42 83  1  0  0  0  0
 43 44  1  0  0  0  0
 44 84  1  0  0  0  0
 45 46  2  0  0  0  0
 45 85  1  0  0  0  0
 46 86  1  0  0  0  0
M  END
> <PUBCHEM_COMPOUND_CID>
506758
> <PUBCHEM_COMPOUND_CANONICALIZED>
1
> <PUBCHEM_CACTVS_COMPLEXITY>
1030
> <PUBCHEM_CACTVS_HBOND_ACCEPTOR>
8
> <PUBCHEM_CACTVS_HBOND_DONOR>
3
> <PUBCHEM_CACTVS_ROTATABLE_BOND>
14
> <PUBCHEM_CACTVS_SUBSKEYS>
AAADcfB/uAAAAAAAAAAAAAAAAAAAAWAAAAA8YIAAAAAAAAAB0AAAHgAQAAAADTzhngY+gJPIFACoAz131ACCgCQ3EiAI2IG4fMgKZnrA9TmXMIhm1gHYqMe6yaCOAAAAAAAAAAAAAAAAAAAAAAAAAAAAAA==
> <PUBCHEM_IUPAC_OPENEYE_NAME>
N-[(1S)-2-[[(1S)-1-[(2S,4R)-4-benzyloxy-2-[[(1S)-1-formylpropyl]carbamoyl]pyrrolidine-1-carbonyl]-2-methyl-propyl]amino]-2-oxo-1-phenyl-ethyl]pyrazine-2-carboxamide
> <PUBCHEM_IUPAC_CAS_NAME>
N-[(1S)-2-[[(2S)-3-methyl-1-oxo-1-[(2S,4R)-2-[oxo-[[(2S)-1-oxobutan-2-yl]amino]methyl]-4-phenylmethoxy-1-pyrrolidinyl]butan-2-yl]amino]-2-oxo-1-phenylethyl]-2-pyrazinecarboxamide
> <PUBCHEM_IUPAC_NAME_MARKUP>
<I>N</I>-[(1<I>S</I>)-2-[[(2<I>S</I>)-3-methyl-1-oxo-1-[(2<I>S</I>,4<I>R</I>)-2-[[(2<I>S</I>)-1-oxobutan-2-yl]carbamoyl]-4-phenylmethoxypyrrolidin-1-yl]butan-2-yl]amino]-2-oxo-1-phenylethyl]pyrazine-2-carboxamide
> <PUBCHEM_IUPAC_NAME>
N-[(1S)-2-[[(2S)-3-methyl-1-oxo-1-[(2S,4R)-2-[[(2S)-1-oxobutan-2-yl]carbamoyl]-4-phenylmethoxypyrrolidin-1-yl]butan-2-yl]amino]-2-oxo-1-phenylethyl]pyrazine-2-carboxamide
> <PUBCHEM_IUPAC_SYSTEMATIC_NAME>
N-[(1S)-2-[[(2S)-3-methyl-1-oxidanylidene-1-[(2S,4R)-2-[[(2S)-1-oxidanylidenebutan-2-yl]carbamoyl]-4-phenylmethoxy-pyrrolidin-1-yl]butan-2-yl]amino]-2-oxidanylidene-1-phenyl-ethyl]pyrazine-2-carboxamide
> <PUBCHEM_IUPAC_TRADITIONAL_NAME>
N-[(1S)-2-[[(1S)-1-[(2S,4R)-4-benzoxy-2-[[(1S)-1-formylpropyl]carbamoyl]pyrrolidine-1-carbonyl]-2-methyl-propyl]amino]-2-keto-1-phenyl-ethyl]pyrazinamide
> <PUBCHEM_IUPAC_INCHI>
InChI=1S/C34H40N6O6/c1-4-25(20-41)37-32(43)28-17-26(46-21-23-11-7-5-8-12-23)19-40(28)34(45)29(22(2)3)38-33(44)30(24-13-9-6-10-14-24)39-31(42)27-18-35-15-16-36-27/h5-16,18,20,22,25-26,28-30H,4,17,19,21H2,1-3H3,(H,37,43)(H,38,44)(H,39,42)/t25-,26+,28-,29-,30-/m0/s1
> <PUBCHEM_IUPAC_INCHIKEY>
WSOQWHMVLMRVBW-FKKILGMSSA-N
> <PUBCHEM_XLOGP3_AA>
2.7
> <PUBCHEM_EXACT_MASS>
628.30093302
> <PUBCHEM_MOLECULAR_FORMULA>
C34H40N6O6
> <PUBCHEM_MOLECULAR_WEIGHT>
628.7
> <PUBCHEM_OPENEYE_CAN_SMILES>
CCC(C=O)NC(=O)C1CC(CN1C(=O)C(C(C)C)NC(=O)C(C2=CC=CC=C2)NC(=O)C3=NC=CN=C3)OCC4=CC=CC=C4
> <PUBCHEM_OPENEYE_ISO_SMILES>
CC[C@@H](C=O)NC(=O)[C@@H]1C[C@H](CN1C(=O)[C@H](C(C)C)NC(=O)[C@H](C2=CC=CC=C2)NC(=O)C3=NC=CN=C3)OCC4=CC=CC=C4
> <PUBCHEM_CACTVS_TPSA>
160
> <PUBCHEM_MONOISOTOPIC_WEIGHT>
628.30093302
> <PUBCHEM_TOTAL_CHARGE>
0
> <PUBCHEM_HEAVY_ATOM_COUNT>
46
> <PUBCHEM_ATOM_DEF_STEREO_COUNT>
5
> <PUBCHEM_ATOM_UDEF_STEREO_COUNT>
0
> <PUBCHEM_BOND_DEF_STEREO_COUNT>
0
> <PUBCHEM_BOND_UDEF_STEREO_COUNT>
0
> <PUBCHEM_ISOTOPIC_ATOM_COUNT>
0
> <PUBCHEM_COMPONENT_COUNT>
1
> <PUBCHEM_CACTVS_TAUTO_COUNT>
-1
> <PUBCHEM_COORDINATE_TYPE>
1
5
255
> <PUBCHEM_BONDANNOTATIONS>
14  1  5
28  10  6
11  43  8
11  45  8
12  44  8
12  46  8
13  19  6
26  31  8
26  32  8
31  34  8
32  35  8
33  36  8
33  37  8
34  38  8
35  38  8
36  40  8
37  41  8
40  42  8
41  42  8
43  44  8
45  46  8
24  8  5
18  9  6
$$$$
