506810
  -OEChem-10302200282D
 80 83  0     1  0  0  0  0  0999 V2000
    9.7995   -3.7746    0.0000 Cl  0  0  0  0  0  0  0  0  0  0  0  0
   13.2636   -3.7746    0.0000 Cl  0  0  0  0  0  0  0  0  0  0  0  0
    5.5496   -0.0450    0.0000 O   0  0  0  0  0  0  0  0  0  0  0  0
    9.7196    1.0661    0.0000 O   0  0  0  0  0  0  0  0  0  0  0  0
    9.1656    2.3104    0.0000 O   0  0  0  0  0  0  0  0  0  0  0  0
   10.4388   -2.7652    0.0000 O   0  0  0  0  0  0  0  0  0  0  0  0
    8.1656    5.7745    0.0000 O   0  0  0  0  0  0  0  0  0  0  0  0
   13.2340   -1.8258    0.0000 O   0  0  0  0  0  0  0  0  0  0  0  0
    8.0723    0.5309    0.0000 N   0  0  0  0  0  0  0  0  0  0  0  0
    7.6656    3.1765    0.0000 N   0  0  0  0  0  0  0  0  0  0  0  0
   10.3377   -0.8360    0.0000 N   0  0  0  0  0  0  0  0  0  0  0  0
   13.0261   -2.8040    0.0000 N   0  0  0  0  0  0  0  0  0  0  0  0
    7.6656    1.4444    0.0000 C   0  0  1  0  0  0  0  0  0  0  0  0
    6.4632    0.3617    0.0000 C   0  0  2  0  0  0  0  0  0  0  0  0
    6.6711    1.3399    0.0000 C   0  0  0  0  0  0  0  0  0  0  0  0
    7.3292   -0.1383    0.0000 C   0  0  0  0  0  0  0  0  0  0  0  0
    9.0505    0.3230    0.0000 C   0  0  0  0  0  0  0  0  0  0  0  0
    9.3595   -0.6281    0.0000 C   0  0  2  0  0  0  0  0  0  0  0  0
    8.1656    2.3104    0.0000 C   0  0  0  0  0  0  0  0  0  0  0  0
    8.6904   -1.3712    0.0000 C   0  0  0  0  0  0  0  0  0  0  0  0
    4.7406    0.5428    0.0000 C   0  0  0  0  0  0  0  0  0  0  0  0
    7.7122   -1.1633    0.0000 C   0  0  0  0  0  0  0  0  0  0  0  0
    8.9994   -2.3222    0.0000 C   0  0  0  0  0  0  0  0  0  0  0  0
    8.1656    4.0425    0.0000 C   0  0  1  0  0  0  0  0  0  0  0  0
    3.8271    0.1361    0.0000 C   0  0  0  0  0  0  0  0  0  0  0  0
    9.1656    4.0425    0.0000 C   0  0  0  0  0  0  0  0  0  0  0  0
   10.6467   -1.7871    0.0000 C   0  0  0  0  0  0  0  0  0  0  0  0
    7.6656    4.9085    0.0000 C   0  0  0  0  0  0  0  0  0  0  0  0
   11.6248   -1.9950    0.0000 C   0  0  0  0  0  0  0  0  0  0  0  0
    9.6656    4.9085    0.0000 C   0  0  0  0  0  0  0  0  0  0  0  0
    3.7226   -0.8584    0.0000 C   0  0  0  0  0  0  0  0  0  0  0  0
    3.0181    0.7239    0.0000 C   0  0  0  0  0  0  0  0  0  0  0  0
   12.0316   -2.9085    0.0000 C   0  0  0  0  0  0  0  0  0  0  0  0
   12.3680   -1.3258    0.0000 C   0  0  0  0  0  0  0  0  0  0  0  0
    2.8090   -1.2651    0.0000 C   0  0  0  0  0  0  0  0  0  0  0  0
    2.1045    0.3172    0.0000 C   0  0  0  0  0  0  0  0  0  0  0  0
    2.0000   -0.6773    0.0000 C   0  0  0  0  0  0  0  0  0  0  0  0
   11.5316   -3.7746    0.0000 C   0  0  0  0  0  0  0  0  0  0  0  0
   12.2634   -0.3313    0.0000 C   0  0  0  0  0  0  0  0  0  0  0  0
   10.6655   -4.2745    0.0000 C   0  0  0  0  0  0  0  0  0  0  0  0
   12.3976   -4.2745    0.0000 C   0  0  0  0  0  0  0  0  0  0  0  0
   10.6655   -5.2745    0.0000 C   0  0  0  0  0  0  0  0  0  0  0  0
   12.3976   -5.2745    0.0000 C   0  0  0  0  0  0  0  0  0  0  0  0
   11.5316   -5.7745    0.0000 C   0  0  0  0  0  0  0  0  0  0  0  0
    8.2848    1.4120    0.0000 H   0  0  0  0  0  0  0  0  0  0  0  0
    5.9813    0.7519    0.0000 H   0  0  0  0  0  0  0  0  0  0  0  0
    6.6711    1.9599    0.0000 H   0  0  0  0  0  0  0  0  0  0  0  0
    6.0545    1.4047    0.0000 H   0  0  0  0  0  0  0  0  0  0  0  0
    6.9648   -0.6398    0.0000 H   0  0  0  0  0  0  0  0  0  0  0  0
    7.7900   -0.5531    0.0000 H   0  0  0  0  0  0  0  0  0  0  0  0
    9.5511   -1.2178    0.0000 H   0  0  0  0  0  0  0  0  0  0  0  0
    8.2755   -1.8320    0.0000 H   0  0  0  0  0  0  0  0  0  0  0  0
    7.0456    3.1765    0.0000 H   0  0  0  0  0  0  0  0  0  0  0  0
   10.7525   -0.3753    0.0000 H   0  0  0  0  0  0  0  0  0  0  0  0
    5.1866    0.9735    0.0000 H   0  0  0  0  0  0  0  0  0  0  0  0
    4.3939    1.0568    0.0000 H   0  0  0  0  0  0  0  0  0  0  0  0
    7.8411   -0.5569    0.0000 H   0  0  0  0  0  0  0  0  0  0  0  0
    7.1058   -1.0344    0.0000 H   0  0  0  0  0  0  0  0  0  0  0  0
    7.5833   -1.7698    0.0000 H   0  0  0  0  0  0  0  0  0  0  0  0
    8.4098   -2.5138    0.0000 H   0  0  0  0  0  0  0  0  0  0  0  0
    9.1911   -2.9118    0.0000 H   0  0  0  0  0  0  0  0  0  0  0  0
    9.5891   -2.1306    0.0000 H   0  0  0  0  0  0  0  0  0  0  0  0
    8.4756    3.5056    0.0000 H   0  0  0  0  0  0  0  0  0  0  0  0
    9.0580    3.4319    0.0000 H   0  0  0  0  0  0  0  0  0  0  0  0
    9.7482    3.8304    0.0000 H   0  0  0  0  0  0  0  0  0  0  0  0
    7.0456    4.9085    0.0000 H   0  0  0  0  0  0  0  0  0  0  0  0
   10.2025    4.5985    0.0000 H   0  0  0  0  0  0  0  0  0  0  0  0
    9.9756    5.4455    0.0000 H   0  0  0  0  0  0  0  0  0  0  0  0
    9.1287    5.2185    0.0000 H   0  0  0  0  0  0  0  0  0  0  0  0
    4.2242   -1.2228    0.0000 H   0  0  0  0  0  0  0  0  0  0  0  0
    3.0829    1.3405    0.0000 H   0  0  0  0  0  0  0  0  0  0  0  0
    2.7442   -1.8817    0.0000 H   0  0  0  0  0  0  0  0  0  0  0  0
    1.6030    0.6816    0.0000 H   0  0  0  0  0  0  0  0  0  0  0  0
    1.4336   -0.9295    0.0000 H   0  0  0  0  0  0  0  0  0  0  0  0
   12.8800   -0.2665    0.0000 H   0  0  0  0  0  0  0  0  0  0  0  0
   12.1986    0.2853    0.0000 H   0  0  0  0  0  0  0  0  0  0  0  0
   11.6468   -0.3961    0.0000 H   0  0  0  0  0  0  0  0  0  0  0  0
   10.1286   -5.5846    0.0000 H   0  0  0  0  0  0  0  0  0  0  0  0
   12.9345   -5.5846    0.0000 H   0  0  0  0  0  0  0  0  0  0  0  0
   11.5316   -6.3946    0.0000 H   0  0  0  0  0  0  0  0  0  0  0  0
  1 40  1  0  0  0  0
  2 41  1  0  0  0  0
 14  3  1  6  0  0  0
  3 21  1  0  0  0  0
  4 17  2  0  0  0  0
  5 19  2  0  0  0  0
  6 27  2  0  0  0  0
  7 28  2  0  0  0  0
  8 12  1  0  0  0  0
  8 34  1  0  0  0  0
  9 13  1  0  0  0  0
  9 16  1  0  0  0  0
  9 17  1  0  0  0  0
 10 19  1  0  0  0  0
 24 10  1  6  0  0  0
 10 53  1  0  0  0  0
 18 11  1  1  0  0  0
 11 27  1  0  0  0  0
 11 54  1  0  0  0  0
 12 33  2  0  0  0  0
 13 15  1  0  0  0  0
 13 19  1  1  0  0  0
 13 45  1  0  0  0  0
 14 15  1  0  0  0  0
 14 16  1  0  0  0  0
 14 46  1  0  0  0  0
 15 47  1  0  0  0  0
 15 48  1  0  0  0  0
 16 49  1  0  0  0  0
 16 50  1  0  0  0  0
 17 18  1  0  0  0  0
 18 20  1  0  0  0  0
 18 51  1  0  0  0  0
 20 22  1  0  0  0  0
 20 23  1  0  0  0  0
 20 52  1  0  0  0  0
 21 25  1  0  0  0  0
 21 55  1  0  0  0  0
 21 56  1  0  0  0  0
 22 57  1  0  0  0  0
 22 58  1  0  0  0  0
 22 59  1  0  0  0  0
 23 60  1  0  0  0  0
 23 61  1  0  0  0  0
 23 62  1  0  0  0  0
 24 26  1  0  0  0  0
 24 28  1  0  0  0  0
 24 63  1  0  0  0  0
 25 31  2  0  0  0  0
 25 32  1  0  0  0  0
 26 30  1  0  0  0  0
 26 64  1  0  0  0  0
 26 65  1  0  0  0  0
 27 29  1  0  0  0  0
 28 66  1  0  0  0  0
 29 33  1  0  0  0  0
 29 34  2  0  0  0  0
 30 67  1  0  0  0  0
 30 68  1  0  0  0  0
 30 69  1  0  0  0  0
 31 35  1  0  0  0  0
 31 70  1  0  0  0  0
 32 36  2  0  0  0  0
 32 71  1  0  0  0  0
 33 38  1  0  0  0  0
 34 39  1  0  0  0  0
 35 37  2  0  0  0  0
 35 72  1  0  0  0  0
 36 37  1  0  0  0  0
 36 73  1  0  0  0  0
 37 74  1  0  0  0  0
 38 40  2  0  0  0  0
 38 41  1  0  0  0  0
 39 75  1  0  0  0  0
 39 76  1  0  0  0  0
 39 77  1  0  0  0  0
 40 42  1  0  0  0  0
 41 43  2  0  0  0  0
 42 44  2  0  0  0  0
 42 78  1  0  0  0  0
 43 44  1  0  0  0  0
 43 79  1  0  0  0  0
 44 80  1  0  0  0  0
M  END
> <PUBCHEM_COMPOUND_CID>
506810
> <PUBCHEM_COMPOUND_CANONICALIZED>
1
> <PUBCHEM_CACTVS_COMPLEXITY>
988
> <PUBCHEM_CACTVS_HBOND_ACCEPTOR>
7
> <PUBCHEM_CACTVS_HBOND_DONOR>
2
> <PUBCHEM_CACTVS_ROTATABLE_BOND>
12
> <PUBCHEM_CACTVS_SUBSKEYS>
AAADcfB/uAAGAAAAAAAAAAAAAAAAAWLAAAAwYAAAAAAAAAAB0AAAHgIUAAAADT7hniYyhJPQBACpA61y0gCCAAAkJQAomKGsTtoKZj6J87uXMchm9hmY6Ue6yeCOAAAAAACBAAAAAAAAAQIAAAAAAAAAAA==
> <PUBCHEM_IUPAC_OPENEYE_NAME>
N-[(1S)-1-[(2S,4R)-4-benzyloxy-2-[[(1S)-1-formylpropyl]carbamoyl]pyrrolidine-1-carbonyl]-2-methyl-propyl]-3-(2,6-dichlorophenyl)-5-methyl-isoxazole-4-carboxamide
> <PUBCHEM_IUPAC_CAS_NAME>
3-(2,6-dichlorophenyl)-5-methyl-N-[(2S)-3-methyl-1-oxo-1-[(2S,4R)-2-[oxo-[[(2S)-1-oxobutan-2-yl]amino]methyl]-4-phenylmethoxy-1-pyrrolidinyl]butan-2-yl]-4-isoxazolecarboxamide
> <PUBCHEM_IUPAC_NAME_MARKUP>
3-(2,6-dichlorophenyl)-5-methyl-<I>N</I>-[(2<I>S</I>)-3-methyl-1-oxo-1-[(2<I>S</I>,4<I>R</I>)-2-[[(2<I>S</I>)-1-oxobutan-2-yl]carbamoyl]-4-phenylmethoxypyrrolidin-1-yl]butan-2-yl]-1,2-oxazole-4-carboxamide
> <PUBCHEM_IUPAC_NAME>
3-(2,6-dichlorophenyl)-5-methyl-N-[(2S)-3-methyl-1-oxo-1-[(2S,4R)-2-[[(2S)-1-oxobutan-2-yl]carbamoyl]-4-phenylmethoxypyrrolidin-1-yl]butan-2-yl]-1,2-oxazole-4-carboxamide
> <PUBCHEM_IUPAC_SYSTEMATIC_NAME>
3-[2,6-bis(chloranyl)phenyl]-5-methyl-N-[(2S)-3-methyl-1-oxidanylidene-1-[(2S,4R)-2-[[(2S)-1-oxidanylidenebutan-2-yl]carbamoyl]-4-phenylmethoxy-pyrrolidin-1-yl]butan-2-yl]-1,2-oxazole-4-carboxamide
> <PUBCHEM_IUPAC_TRADITIONAL_NAME>
N-[(1S)-1-[(2S,4R)-4-benzoxy-2-[[(1S)-1-formylpropyl]carbamoyl]pyrrolidine-1-carbonyl]-2-methyl-propyl]-3-(2,6-dichlorophenyl)-5-methyl-isoxazole-4-carboxamide
> <PUBCHEM_IUPAC_INCHI>
InChI=1S/C32H36Cl2N4O6/c1-5-21(16-39)35-30(40)25-14-22(43-17-20-10-7-6-8-11-20)15-38(25)32(42)28(18(2)3)36-31(41)26-19(4)44-37-29(26)27-23(33)12-9-13-24(27)34/h6-13,16,18,21-22,25,28H,5,14-15,17H2,1-4H3,(H,35,40)(H,36,41)/t21-,22+,25-,28-/m0/s1
> <PUBCHEM_IUPAC_INCHIKEY>
BJRRUWVBOKVTEY-SVAWTBLWSA-N
> <PUBCHEM_XLOGP3_AA>
5.2
> <PUBCHEM_EXACT_MASS>
642.2011903
> <PUBCHEM_MOLECULAR_FORMULA>
C32H36Cl2N4O6
> <PUBCHEM_MOLECULAR_WEIGHT>
643.6
> <PUBCHEM_OPENEYE_CAN_SMILES>
CCC(C=O)NC(=O)C1CC(CN1C(=O)C(C(C)C)NC(=O)C2=C(ON=C2C3=C(C=CC=C3Cl)Cl)C)OCC4=CC=CC=C4
> <PUBCHEM_OPENEYE_ISO_SMILES>
CC[C@@H](C=O)NC(=O)[C@@H]1C[C@H](CN1C(=O)[C@H](C(C)C)NC(=O)C2=C(ON=C2C3=C(C=CC=C3Cl)Cl)C)OCC4=CC=CC=C4
> <PUBCHEM_CACTVS_TPSA>
131
> <PUBCHEM_MONOISOTOPIC_WEIGHT>
642.2011903
> <PUBCHEM_TOTAL_CHARGE>
0
> <PUBCHEM_HEAVY_ATOM_COUNT>
44
> <PUBCHEM_ATOM_DEF_STEREO_COUNT>
4
> <PUBCHEM_ATOM_UDEF_STEREO_COUNT>
0
> <PUBCHEM_BOND_DEF_STEREO_COUNT>
0
> <PUBCHEM_BOND_UDEF_STEREO_COUNT>
0
> <PUBCHEM_ISOTOPIC_ATOM_COUNT>
0
> <PUBCHEM_COMPONENT_COUNT>
1
> <PUBCHEM_CACTVS_TAUTO_COUNT>
-1
> <PUBCHEM_COORDINATE_TYPE>
1
5
255
> <PUBCHEM_BONDANNOTATIONS>
24  10  6
18  11  5
12  33  8
13  19  5
25  31  8
25  32  8
29  33  8
29  34  8
14  3  6
31  35  8
32  36  8
35  37  8
36  37  8
38  40  8
38  41  8
40  42  8
41  43  8
42  44  8
43  44  8
8  12  8
8  34  8
$$$$
