506816
  -OEChem-10302200282D
 77 79  0     1  0  0  0  0  0999 V2000
    4.3763    2.4514    0.0000 O   0  0  0  0  0  0  0  0  0  0  0  0
    6.3301   -1.3965    0.0000 O   0  0  0  0  0  0  0  0  0  0  0  0
    7.4321   -0.5959    0.0000 O   0  0  0  0  0  0  0  0  0  0  0  0
    2.8660   -2.3965    0.0000 O   0  0  0  0  0  0  0  0  0  0  0  0
   10.6126    1.1025    0.0000 O   0  0  0  0  0  0  0  0  0  0  0  0
    5.4641    0.1035    0.0000 N   0  0  0  0  0  0  0  0  0  0  0  0
    7.9673    1.0514    0.0000 N   0  0  0  0  0  0  0  0  0  0  0  0
    4.5981   -2.3965    0.0000 N   0  0  0  0  0  0  0  0  0  0  0  0
    6.2731    0.6913    0.0000 C   0  0  1  0  0  0  0  0  0  0  0  0
    4.9641    1.6424    0.0000 C   0  0  2  0  0  0  0  0  0  0  0  0
    5.9641    1.6424    0.0000 C   0  0  0  0  0  0  0  0  0  0  0  0
    4.6551    0.6913    0.0000 C   0  0  0  0  0  0  0  0  0  0  0  0
    5.4641   -0.8965    0.0000 C   0  0  0  0  0  0  0  0  0  0  0  0
    4.5981   -1.3965    0.0000 C   0  0  2  0  0  0  0  0  0  0  0  0
    7.2242    0.3823    0.0000 C   0  0  0  0  0  0  0  0  0  0  0  0
    3.7320   -0.8965    0.0000 C   0  0  0  0  0  0  0  0  0  0  0  0
    4.7830    3.3649    0.0000 C   0  0  0  0  0  0  0  0  0  0  0  0
    2.8660   -1.3965    0.0000 C   0  0  0  0  0  0  0  0  0  0  0  0
    3.7320    0.1035    0.0000 C   0  0  0  0  0  0  0  0  0  0  0  0
    8.9184    0.7424    0.0000 C   0  0  1  0  0  0  0  0  0  0  0  0
    4.1953    4.1739    0.0000 C   0  0  0  0  0  0  0  0  0  0  0  0
    9.1263   -0.2358    0.0000 C   0  0  0  0  0  0  0  0  0  0  0  0
    3.7320   -2.8965    0.0000 C   0  0  0  0  0  0  0  0  0  0  0  0
    9.6615    1.4115    0.0000 C   0  0  0  0  0  0  0  0  0  0  0  0
    3.7320   -3.8965    0.0000 C   0  0  0  0  0  0  0  0  0  0  0  0
   10.0773   -0.5448    0.0000 C   0  0  0  0  0  0  0  0  0  0  0  0
    3.2008    4.0694    0.0000 C   0  0  0  0  0  0  0  0  0  0  0  0
    4.6020    5.0875    0.0000 C   0  0  0  0  0  0  0  0  0  0  0  0
    2.8660   -4.3965    0.0000 C   0  0  0  0  0  0  0  0  0  0  0  0
    4.5981   -4.3965    0.0000 C   0  0  0  0  0  0  0  0  0  0  0  0
    2.6130    4.8784    0.0000 C   0  0  0  0  0  0  0  0  0  0  0  0
    4.0142    5.8965    0.0000 C   0  0  0  0  0  0  0  0  0  0  0  0
    2.8660   -5.3965    0.0000 C   0  0  0  0  0  0  0  0  0  0  0  0
    4.5981   -5.3965    0.0000 C   0  0  0  0  0  0  0  0  0  0  0  0
    3.0197    5.7920    0.0000 C   0  0  0  0  0  0  0  0  0  0  0  0
    2.0000   -3.8965    0.0000 C   0  0  0  0  0  0  0  0  0  0  0  0
    5.4641   -3.8965    0.0000 C   0  0  0  0  0  0  0  0  0  0  0  0
    3.7320   -5.8965    0.0000 C   0  0  0  0  0  0  0  0  0  0  0  0
    6.3701    0.0789    0.0000 H   0  0  0  0  0  0  0  0  0  0  0  0
    5.2456    2.1948    0.0000 H   0  0  0  0  0  0  0  0  0  0  0  0
    6.5706    1.7713    0.0000 H   0  0  0  0  0  0  0  0  0  0  0  0
    5.8993    2.2590    0.0000 H   0  0  0  0  0  0  0  0  0  0  0  0
    4.0887    0.9435    0.0000 H   0  0  0  0  0  0  0  0  0  0  0  0
    4.3451    0.1544    0.0000 H   0  0  0  0  0  0  0  0  0  0  0  0
    5.1350   -1.7065    0.0000 H   0  0  0  0  0  0  0  0  0  0  0  0
    4.2690   -0.5865    0.0000 H   0  0  0  0  0  0  0  0  0  0  0  0
    7.8384    1.6579    0.0000 H   0  0  0  0  0  0  0  0  0  0  0  0
    5.1350   -2.7065    0.0000 H   0  0  0  0  0  0  0  0  0  0  0  0
    5.2971    3.0182    0.0000 H   0  0  0  0  0  0  0  0  0  0  0  0
    5.2137    3.8109    0.0000 H   0  0  0  0  0  0  0  0  0  0  0  0
    2.5560   -0.8596    0.0000 H   0  0  0  0  0  0  0  0  0  0  0  0
    2.3291   -1.7065    0.0000 H   0  0  0  0  0  0  0  0  0  0  0  0
    3.1760   -1.9334    0.0000 H   0  0  0  0  0  0  0  0  0  0  0  0
    4.3520    0.1035    0.0000 H   0  0  0  0  0  0  0  0  0  0  0  0
    3.7320    0.7235    0.0000 H   0  0  0  0  0  0  0  0  0  0  0  0
    3.1120    0.1035    0.0000 H   0  0  0  0  0  0  0  0  0  0  0  0
    8.7895    1.3488    0.0000 H   0  0  0  0  0  0  0  0  0  0  0  0
    8.5067   -0.2574    0.0000 H   0  0  0  0  0  0  0  0  0  0  0  0
    9.0400   -0.8497    0.0000 H   0  0  0  0  0  0  0  0  0  0  0  0
    9.5326    2.0180    0.0000 H   0  0  0  0  0  0  0  0  0  0  0  0
    9.8858   -1.1344    0.0000 H   0  0  0  0  0  0  0  0  0  0  0  0
   10.6670   -0.7364    0.0000 H   0  0  0  0  0  0  0  0  0  0  0  0
   10.2689    0.0449    0.0000 H   0  0  0  0  0  0  0  0  0  0  0  0
    2.9486    3.5030    0.0000 H   0  0  0  0  0  0  0  0  0  0  0  0
    5.2186    5.1523    0.0000 H   0  0  0  0  0  0  0  0  0  0  0  0
    1.9964    4.8136    0.0000 H   0  0  0  0  0  0  0  0  0  0  0  0
    4.2664    6.4629    0.0000 H   0  0  0  0  0  0  0  0  0  0  0  0
    2.3291   -5.7065    0.0000 H   0  0  0  0  0  0  0  0  0  0  0  0
    5.1350   -5.7065    0.0000 H   0  0  0  0  0  0  0  0  0  0  0  0
    2.6553    6.2936    0.0000 H   0  0  0  0  0  0  0  0  0  0  0  0
    2.3100   -3.3596    0.0000 H   0  0  0  0  0  0  0  0  0  0  0  0
    1.4631   -3.5865    0.0000 H   0  0  0  0  0  0  0  0  0  0  0  0
    1.6900   -4.4334    0.0000 H   0  0  0  0  0  0  0  0  0  0  0  0
    5.7741   -4.4334    0.0000 H   0  0  0  0  0  0  0  0  0  0  0  0
    6.0010   -3.5865    0.0000 H   0  0  0  0  0  0  0  0  0  0  0  0
    5.1541   -3.3596    0.0000 H   0  0  0  0  0  0  0  0  0  0  0  0
    3.7320   -6.5165    0.0000 H   0  0  0  0  0  0  0  0  0  0  0  0
 10  1  1  6  0  0  0
  1 17  1  0  0  0  0
  2 13  2  0  0  0  0
  3 15  2  0  0  0  0
  4 23  2  0  0  0  0
  5 24  2  0  0  0  0
  6  9  1  0  0  0  0
  6 12  1  0  0  0  0
  6 13  1  0  0  0  0
  7 15  1  0  0  0  0
 20  7  1  6  0  0  0
  7 47  1  0  0  0  0
 14  8  1  1  0  0  0
  8 23  1  0  0  0  0
  8 48  1  0  0  0  0
  9 11  1  0  0  0  0
  9 15  1  1  0  0  0
  9 39  1  0  0  0  0
 10 11  1  0  0  0  0
 10 12  1  0  0  0  0
 10 40  1  0  0  0  0
 11 41  1  0  0  0  0
 11 42  1  0  0  0  0
 12 43  1  0  0  0  0
 12 44  1  0  0  0  0
 13 14  1  0  0  0  0
 14 16  1  0  0  0  0
 14 45  1  0  0  0  0
 16 18  1  0  0  0  0
 16 19  1  0  0  0  0
 16 46  1  0  0  0  0
 17 21  1  0  0  0  0
 17 49  1  0  0  0  0
 17 50  1  0  0  0  0
 18 51  1  0  0  0  0
 18 52  1  0  0  0  0
 18 53  1  0  0  0  0
 19 54  1  0  0  0  0
 19 55  1  0  0  0  0
 19 56  1  0  0  0  0
 20 22  1  0  0  0  0
 20 24  1  0  0  0  0
 20 57  1  0  0  0  0
 21 27  2  0  0  0  0
 21 28  1  0  0  0  0
 22 26  1  0  0  0  0
 22 58  1  0  0  0  0
 22 59  1  0  0  0  0
 23 25  1  0  0  0  0
 24 60  1  0  0  0  0
 25 29  2  0  0  0  0
 25 30  1  0  0  0  0
 26 61  1  0  0  0  0
 26 62  1  0  0  0  0
 26 63  1  0  0  0  0
 27 31  1  0  0  0  0
 27 64  1  0  0  0  0
 28 32  2  0  0  0  0
 28 65  1  0  0  0  0
 29 33  1  0  0  0  0
 29 36  1  0  0  0  0
 30 34  2  0  0  0  0
 30 37  1  0  0  0  0
 31 35  2  0  0  0  0
 31 66  1  0  0  0  0
 32 35  1  0  0  0  0
 32 67  1  0  0  0  0
 33 38  2  0  0  0  0
 33 68  1  0  0  0  0
 34 38  1  0  0  0  0
 34 69  1  0  0  0  0
 35 70  1  0  0  0  0
 36 71  1  0  0  0  0
 36 72  1  0  0  0  0
 36 73  1  0  0  0  0
 37 74  1  0  0  0  0
 37 75  1  0  0  0  0
 37 76  1  0  0  0  0
 38 77  1  0  0  0  0
M  END
> <PUBCHEM_COMPOUND_CID>
506816
> <PUBCHEM_COMPOUND_CANONICALIZED>
1
> <PUBCHEM_CACTVS_COMPLEXITY>
802
> <PUBCHEM_CACTVS_HBOND_ACCEPTOR>
5
> <PUBCHEM_CACTVS_HBOND_DONOR>
2
> <PUBCHEM_CACTVS_ROTATABLE_BOND>
11
> <PUBCHEM_CACTVS_SUBSKEYS>
AAADcfB7OAAAAAAAAAAAAAAAAAAAAWAAAAAwYAAAAAAAAAABQAAAHgAQAAAADTzhmAYyAIPABACIAilSkACCAAAkAAAIiIGIDMgKZjKAtTmXMQhm1gGYqQe6yeCOgAACAAAQAAAAAAQAACAAAAAAAAAAAA==
> <PUBCHEM_IUPAC_OPENEYE_NAME>
(2S,4R)-4-benzyloxy-1-[(2S)-2-[(2,6-dimethylbenzoyl)amino]-3-methyl-butanoyl]-N-[(1S)-1-formylpropyl]pyrrolidine-2-carboxamide
> <PUBCHEM_IUPAC_CAS_NAME>
(2S,4R)-1-[(2S)-2-[[(2,6-dimethylphenyl)-oxomethyl]amino]-3-methyl-1-oxobutyl]-N-[(2S)-1-oxobutan-2-yl]-4-phenylmethoxy-2-pyrrolidinecarboxamide
> <PUBCHEM_IUPAC_NAME_MARKUP>
(2<I>S</I>,4<I>R</I>)-1-[(2<I>S</I>)-2-[(2,6-dimethylbenzoyl)amino]-3-methylbutanoyl]-<I>N</I>-[(2<I>S</I>)-1-oxobutan-2-yl]-4-phenylmethoxypyrrolidine-2-carboxamide
> <PUBCHEM_IUPAC_NAME>
(2S,4R)-1-[(2S)-2-[(2,6-dimethylbenzoyl)amino]-3-methylbutanoyl]-N-[(2S)-1-oxobutan-2-yl]-4-phenylmethoxypyrrolidine-2-carboxamide
> <PUBCHEM_IUPAC_SYSTEMATIC_NAME>
(2S,4R)-1-[(2S)-2-[(2,6-dimethylphenyl)carbonylamino]-3-methyl-butanoyl]-N-[(2S)-1-oxidanylidenebutan-2-yl]-4-phenylmethoxy-pyrrolidine-2-carboxamide
> <PUBCHEM_IUPAC_TRADITIONAL_NAME>
(2S,4R)-4-benzoxy-1-[(2S)-2-[(2,6-dimethylbenzoyl)amino]-3-methyl-butanoyl]-N-[(1S)-1-formylpropyl]pyrrolidine-2-carboxamide
> <PUBCHEM_IUPAC_INCHI>
InChI=1S/C30H39N3O5/c1-6-23(17-34)31-28(35)25-15-24(38-18-22-13-8-7-9-14-22)16-33(25)30(37)27(19(2)3)32-29(36)26-20(4)11-10-12-21(26)5/h7-14,17,19,23-25,27H,6,15-16,18H2,1-5H3,(H,31,35)(H,32,36)/t23-,24+,25-,27-/m0/s1
> <PUBCHEM_IUPAC_INCHIKEY>
FJICZMUTUSXNNP-SFIUMABJSA-N
> <PUBCHEM_XLOGP3_AA>
4.2
> <PUBCHEM_EXACT_MASS>
521.28897135
> <PUBCHEM_MOLECULAR_FORMULA>
C30H39N3O5
> <PUBCHEM_MOLECULAR_WEIGHT>
521.6
> <PUBCHEM_OPENEYE_CAN_SMILES>
CCC(C=O)NC(=O)C1CC(CN1C(=O)C(C(C)C)NC(=O)C2=C(C=CC=C2C)C)OCC3=CC=CC=C3
> <PUBCHEM_OPENEYE_ISO_SMILES>
CC[C@@H](C=O)NC(=O)[C@@H]1C[C@H](CN1C(=O)[C@H](C(C)C)NC(=O)C2=C(C=CC=C2C)C)OCC3=CC=CC=C3
> <PUBCHEM_CACTVS_TPSA>
105
> <PUBCHEM_MONOISOTOPIC_WEIGHT>
521.28897135
> <PUBCHEM_TOTAL_CHARGE>
0
> <PUBCHEM_HEAVY_ATOM_COUNT>
38
> <PUBCHEM_ATOM_DEF_STEREO_COUNT>
4
> <PUBCHEM_ATOM_UDEF_STEREO_COUNT>
0
> <PUBCHEM_BOND_DEF_STEREO_COUNT>
0
> <PUBCHEM_BOND_UDEF_STEREO_COUNT>
0
> <PUBCHEM_ISOTOPIC_ATOM_COUNT>
0
> <PUBCHEM_COMPONENT_COUNT>
1
> <PUBCHEM_CACTVS_TAUTO_COUNT>
-1
> <PUBCHEM_COORDINATE_TYPE>
1
5
255
> <PUBCHEM_BONDANNOTATIONS>
10  1  6
21  27  8
21  28  8
25  29  8
25  30  8
27  31  8
28  32  8
29  33  8
30  34  8
31  35  8
32  35  8
33  38  8
34  38  8
20  7  6
14  8  5
9  15  5
$$$$
