506891
  -OEChem-10302200282D
 99102  0     1  0  0  0  0  0999 V2000
    5.5321    0.0670    0.0000 O   0  0  0  0  0  0  0  0  0  0  0  0
    7.2641    3.0670    0.0000 O   0  0  0  0  0  0  0  0  0  0  0  0
    5.5321   -0.9330    0.0000 O   0  0  0  0  0  0  0  0  0  0  0  0
    6.3981   -4.4330    0.0000 O   0  0  0  0  0  0  0  0  0  0  0  0
    5.5321    2.0670    0.0000 N   0  0  3  0  0  0  0  0  0  0  0  0
    6.3981    4.5670    0.0000 N   0  0  0  0  0  0  0  0  0  0  0  0
    7.2641   -0.9330    0.0000 N   0  0  0  0  0  0  0  0  0  0  0  0
    5.5321   -2.9330    0.0000 N   0  0  0  0  0  0  0  0  0  0  0  0
    3.8000    3.0670    0.0000 C   0  0  2  0  0  0  0  0  0  0  0  0
    3.8000    2.0670    0.0000 C   0  0  1  0  0  0  0  0  0  0  0  0
    4.6660    3.5670    0.0000 C   0  0  0  0  0  0  0  0  0  0  0  0
    4.6660    1.5670    0.0000 C   0  0  0  0  0  0  0  0  0  0  0  0
    2.9061    3.6016    0.0000 C   0  0  0  0  0  0  0  0  0  0  0  0
    2.9061    1.5323    0.0000 C   0  0  0  0  0  0  0  0  0  0  0  0
    5.5321    3.0670    0.0000 C   0  0  1  0  0  0  0  0  0  0  0  0
    2.0000    3.0878    0.0000 C   0  0  0  0  0  0  0  0  0  0  0  0
    2.0000    2.0462    0.0000 C   0  0  0  0  0  0  0  0  0  0  0  0
    6.3981    1.5670    0.0000 C   0  0  0  0  0  0  0  0  0  0  0  0
    6.3981    3.5670    0.0000 C   0  0  0  0  0  0  0  0  0  0  0  0
    6.3981    0.5670    0.0000 C   0  0  2  0  0  0  0  0  0  0  0  0
    7.2641    0.0670    0.0000 C   0  0  2  0  0  0  0  0  0  0  0  0
    7.2641    5.0670    0.0000 C   0  0  0  0  0  0  0  0  0  0  0  0
    8.1301    0.5670    0.0000 C   0  0  0  0  0  0  0  0  0  0  0  0
    8.1301    5.5670    0.0000 C   0  0  0  0  0  0  0  0  0  0  0  0
    6.7641    5.9330    0.0000 C   0  0  0  0  0  0  0  0  0  0  0  0
    7.7641    4.2010    0.0000 C   0  0  0  0  0  0  0  0  0  0  0  0
    8.9962    0.0670    0.0000 C   0  0  0  0  0  0  0  0  0  0  0  0
    6.3981   -1.4330    0.0000 C   0  0  0  0  0  0  0  0  0  0  0  0
    6.3981   -2.4330    0.0000 C   0  0  2  0  0  0  0  0  0  0  0  0
    7.2641   -2.9330    0.0000 C   0  0  0  0  0  0  0  0  0  0  0  0
    9.8622    0.5670    0.0000 C   0  0  0  0  0  0  0  0  0  0  0  0
    8.9962   -0.9330    0.0000 C   0  0  0  0  0  0  0  0  0  0  0  0
    8.1301   -3.4330    0.0000 C   0  0  0  0  0  0  0  0  0  0  0  0
    6.7641   -3.7990    0.0000 C   0  0  0  0  0  0  0  0  0  0  0  0
    7.7641   -2.0670    0.0000 C   0  0  0  0  0  0  0  0  0  0  0  0
   10.7282    0.0670    0.0000 C   0  0  0  0  0  0  0  0  0  0  0  0
    9.8622   -1.4330    0.0000 C   0  0  0  0  0  0  0  0  0  0  0  0
    5.5321   -3.9330    0.0000 C   0  0  0  0  0  0  0  0  0  0  0  0
   10.7282   -0.9330    0.0000 C   0  0  0  0  0  0  0  0  0  0  0  0
    4.6660   -4.4330    0.0000 C   0  0  0  0  0  0  0  0  0  0  0  0
    3.8000   -3.9330    0.0000 C   0  0  0  0  0  0  0  0  0  0  0  0
    4.6660   -5.4330    0.0000 C   0  0  0  0  0  0  0  0  0  0  0  0
    2.9340   -4.4330    0.0000 C   0  0  0  0  0  0  0  0  0  0  0  0
    3.8000   -5.9330    0.0000 C   0  0  0  0  0  0  0  0  0  0  0  0
    2.9340   -5.4330    0.0000 C   0  0  0  0  0  0  0  0  0  0  0  0
    3.8066    3.9170    0.0000 H   0  0  0  0  0  0  0  0  0  0  0  0
    3.8066    1.2170    0.0000 H   0  0  0  0  0  0  0  0  0  0  0  0
    5.0646    4.0419    0.0000 H   0  0  0  0  0  0  0  0  0  0  0  0
    4.2675    4.0419    0.0000 H   0  0  0  0  0  0  0  0  0  0  0  0
    4.2675    1.0920    0.0000 H   0  0  0  0  0  0  0  0  0  0  0  0
    5.0646    1.0920    0.0000 H   0  0  0  0  0  0  0  0  0  0  0  0
    3.3107    4.0714    0.0000 H   0  0  0  0  0  0  0  0  0  0  0  0
    2.5124    4.0807    0.0000 H   0  0  0  0  0  0  0  0  0  0  0  0
    2.5124    1.0533    0.0000 H   0  0  0  0  0  0  0  0  0  0  0  0
    3.3107    1.0625    0.0000 H   0  0  0  0  0  0  0  0  0  0  0  0
    6.0690    2.7570    0.0000 H   0  0  0  0  0  0  0  0  0  0  0  0
    1.7909    3.6715    0.0000 H   0  0  0  0  0  0  0  0  0  0  0  0
    1.3891    2.9817    0.0000 H   0  0  0  0  0  0  0  0  0  0  0  0
    1.3891    2.1523    0.0000 H   0  0  0  0  0  0  0  0  0  0  0  0
    1.7909    1.4625    0.0000 H   0  0  0  0  0  0  0  0  0  0  0  0
    7.0087    1.4593    0.0000 H   0  0  0  0  0  0  0  0  0  0  0  0
    6.6101    2.1496    0.0000 H   0  0  0  0  0  0  0  0  0  0  0  0
    6.3981   -0.0530    0.0000 H   0  0  0  0  0  0  0  0  0  0  0  0
    7.8010   -0.2430    0.0000 H   0  0  0  0  0  0  0  0  0  0  0  0
    5.8612    4.8770    0.0000 H   0  0  0  0  0  0  0  0  0  0  0  0
    8.5287    1.0419    0.0000 H   0  0  0  0  0  0  0  0  0  0  0  0
    7.7316    1.0419    0.0000 H   0  0  0  0  0  0  0  0  0  0  0  0
    4.9951    0.3770    0.0000 H   0  0  0  0  0  0  0  0  0  0  0  0
    7.8010   -1.2430    0.0000 H   0  0  0  0  0  0  0  0  0  0  0  0
    8.4401    5.0300    0.0000 H   0  0  0  0  0  0  0  0  0  0  0  0
    8.6671    5.8770    0.0000 H   0  0  0  0  0  0  0  0  0  0  0  0
    7.8201    6.1039    0.0000 H   0  0  0  0  0  0  0  0  0  0  0  0
    7.3010    6.2430    0.0000 H   0  0  0  0  0  0  0  0  0  0  0  0
    6.4541    6.4700    0.0000 H   0  0  0  0  0  0  0  0  0  0  0  0
    6.2272    5.6230    0.0000 H   0  0  0  0  0  0  0  0  0  0  0  0
    7.2272    3.8910    0.0000 H   0  0  0  0  0  0  0  0  0  0  0  0
    8.0741    3.6640    0.0000 H   0  0  0  0  0  0  0  0  0  0  0  0
    8.3010    4.5110    0.0000 H   0  0  0  0  0  0  0  0  0  0  0  0
    6.3981   -3.0530    0.0000 H   0  0  0  0  0  0  0  0  0  0  0  0
    9.8622    1.1870    0.0000 H   0  0  0  0  0  0  0  0  0  0  0  0
    8.4592   -1.2430    0.0000 H   0  0  0  0  0  0  0  0  0  0  0  0
    4.9951   -2.6230    0.0000 H   0  0  0  0  0  0  0  0  0  0  0  0
    7.8201   -3.9700    0.0000 H   0  0  0  0  0  0  0  0  0  0  0  0
    8.6671   -3.7430    0.0000 H   0  0  0  0  0  0  0  0  0  0  0  0
    8.4401   -2.8961    0.0000 H   0  0  0  0  0  0  0  0  0  0  0  0
    6.2272   -3.4890    0.0000 H   0  0  0  0  0  0  0  0  0  0  0  0
    6.4541   -4.3360    0.0000 H   0  0  0  0  0  0  0  0  0  0  0  0
    7.3010   -4.1090    0.0000 H   0  0  0  0  0  0  0  0  0  0  0  0
    8.3010   -2.3770    0.0000 H   0  0  0  0  0  0  0  0  0  0  0  0
    8.0741   -1.5300    0.0000 H   0  0  0  0  0  0  0  0  0  0  0  0
    7.2272   -1.7570    0.0000 H   0  0  0  0  0  0  0  0  0  0  0  0
   11.2651    0.3770    0.0000 H   0  0  0  0  0  0  0  0  0  0  0  0
    9.8622   -2.0530    0.0000 H   0  0  0  0  0  0  0  0  0  0  0  0
   11.2651   -1.2430    0.0000 H   0  0  0  0  0  0  0  0  0  0  0  0
    3.8000   -3.3130    0.0000 H   0  0  0  0  0  0  0  0  0  0  0  0
    5.2030   -5.7430    0.0000 H   0  0  0  0  0  0  0  0  0  0  0  0
    2.3970   -4.1230    0.0000 H   0  0  0  0  0  0  0  0  0  0  0  0
    3.8000   -6.5530    0.0000 H   0  0  0  0  0  0  0  0  0  0  0  0
    2.3970   -5.7430    0.0000 H   0  0  0  0  0  0  0  0  0  0  0  0
 20  1  1  6  0  0  0
  1 68  1  0  0  0  0
  2 19  2  0  0  0  0
  3 28  2  0  0  0  0
  4 38  2  0  0  0  0
  5 12  1  0  0  0  0
  5 15  1  0  0  0  0
  5 18  1  0  0  0  0
  6 19  1  0  0  0  0
  6 22  1  0  0  0  0
  6 65  1  0  0  0  0
 21  7  1  6  0  0  0
  7 28  1  0  0  0  0
  7 69  1  0  0  0  0
 29  8  1  6  0  0  0
  8 38  1  0  0  0  0
  8 82  1  0  0  0  0
  9 10  1  0  0  0  0
  9 11  1  0  0  0  0
  9 13  1  0  0  0  0
  9 46  1  6  0  0  0
 10 12  1  0  0  0  0
 10 14  1  0  0  0  0
 10 47  1  6  0  0  0
 11 15  1  0  0  0  0
 11 48  1  0  0  0  0
 11 49  1  0  0  0  0
 12 50  1  0  0  0  0
 12 51  1  0  0  0  0
 13 16  1  0  0  0  0
 13 52  1  0  0  0  0
 13 53  1  0  0  0  0
 14 17  1  0  0  0  0
 14 54  1  0  0  0  0
 14 55  1  0  0  0  0
 15 19  1  1  0  0  0
 15 56  1  0  0  0  0
 16 17  1  0  0  0  0
 16 57  1  0  0  0  0
 16 58  1  0  0  0  0
 17 59  1  0  0  0  0
 17 60  1  0  0  0  0
 18 20  1  0  0  0  0
 18 61  1  0  0  0  0
 18 62  1  0  0  0  0
 20 21  1  0  0  0  0
 20 63  1  0  0  0  0
 21 23  1  0  0  0  0
 21 64  1  0  0  0  0
 22 24  1  0  0  0  0
 22 25  1  0  0  0  0
 22 26  1  0  0  0  0
 23 27  1  0  0  0  0
 23 66  1  0  0  0  0
 23 67  1  0  0  0  0
 24 70  1  0  0  0  0
 24 71  1  0  0  0  0
 24 72  1  0  0  0  0
 25 73  1  0  0  0  0
 25 74  1  0  0  0  0
 25 75  1  0  0  0  0
 26 76  1  0  0  0  0
 26 77  1  0  0  0  0
 26 78  1  0  0  0  0
 27 31  2  0  0  0  0
 27 32  1  0  0  0  0
 28 29  1  0  0  0  0
 29 30  1  0  0  0  0
 29 79  1  0  0  0  0
 30 33  1  0  0  0  0
 30 34  1  0  0  0  0
 30 35  1  0  0  0  0
 31 36  1  0  0  0  0
 31 80  1  0  0  0  0
 32 37  2  0  0  0  0
 32 81  1  0  0  0  0
 33 83  1  0  0  0  0
 33 84  1  0  0  0  0
 33 85  1  0  0  0  0
 34 86  1  0  0  0  0
 34 87  1  0  0  0  0
 34 88  1  0  0  0  0
 35 89  1  0  0  0  0
 35 90  1  0  0  0  0
 35 91  1  0  0  0  0
 36 39  2  0  0  0  0
 36 92  1  0  0  0  0
 37 39  1  0  0  0  0
 37 93  1  0  0  0  0
 38 40  1  0  0  0  0
 39 94  1  0  0  0  0
 40 41  2  0  0  0  0
 40 42  1  0  0  0  0
 41 43  1  0  0  0  0
 41 95  1  0  0  0  0
 42 44  2  0  0  0  0
 42 96  1  0  0  0  0
 43 45  2  0  0  0  0
 43 97  1  0  0  0  0
 44 45  1  0  0  0  0
 44 98  1  0  0  0  0
 45 99  1  0  0  0  0
M  END
> <PUBCHEM_COMPOUND_CID>
506891
> <PUBCHEM_COMPOUND_CANONICALIZED>
1
> <PUBCHEM_CACTVS_COMPLEXITY>
976
> <PUBCHEM_CACTVS_HBOND_ACCEPTOR>
5
> <PUBCHEM_CACTVS_HBOND_DONOR>
4
> <PUBCHEM_CACTVS_ROTATABLE_BOND>
12
> <PUBCHEM_CACTVS_SUBSKEYS>
AAADcfB/uAAAAAAAAAAAAAAAAAAAAAAAAAA8YMEAAAAAAACxQAAAHgAQCAAAD7zhmAYyAIPAAgCIAiFSEACCAAAkAAAIiIGIBMgKcDKA1TGUYQhklgCYiYeYyKCPgAAAAAAAAAAAAAAAACAAAAAAAAAAAA==
> <PUBCHEM_IUPAC_OPENEYE_NAME>
(3S,4aS,8aS)-2-[(2R,3S)-3-[[(2S)-2-benzamido-3,3-dimethyl-butanoyl]amino]-2-hydroxy-4-phenyl-butyl]-N-tert-butyl-3,4,4a,5,6,7,8,8a-octahydro-1H-isoquinoline-3-carboxamide
> <PUBCHEM_IUPAC_CAS_NAME>
(3S,4aS,8aS)-2-[(2R,3S)-3-[[(2S)-2-benzamido-3,3-dimethyl-1-oxobutyl]amino]-2-hydroxy-4-phenylbutyl]-N-tert-butyl-3,4,4a,5,6,7,8,8a-octahydro-1H-isoquinoline-3-carboxamide
> <PUBCHEM_IUPAC_NAME_MARKUP>
(3<I>S</I>,4<I>a</I><I>S</I>,8<I>a</I><I>S</I>)-2-[(2<I>R</I>,3<I>S</I>)-3-[[(2<I>S</I>)-2-benzamido-3,3-dimethylbutanoyl]amino]-2-hydroxy-4-phenylbutyl]-<I>N</I>-<I>tert</I>-butyl-3,4,4<I>a</I>,5,6,7,8,8<I>a</I>-octahydro-1<I>H</I>-isoquinoline-3-carboxamide
> <PUBCHEM_IUPAC_NAME>
(3S,4aS,8aS)-2-[(2R,3S)-3-[[(2S)-2-benzamido-3,3-dimethylbutanoyl]amino]-2-hydroxy-4-phenylbutyl]-N-tert-butyl-3,4,4a,5,6,7,8,8a-octahydro-1H-isoquinoline-3-carboxamide
> <PUBCHEM_IUPAC_SYSTEMATIC_NAME>
(3S,4aS,8aS)-2-[(2R,3S)-3-[[(2S)-2-benzamido-3,3-dimethyl-butanoyl]amino]-2-oxidanyl-4-phenyl-butyl]-N-tert-butyl-3,4,4a,5,6,7,8,8a-octahydro-1H-isoquinoline-3-carboxamide
> <PUBCHEM_IUPAC_TRADITIONAL_NAME>
(3S,4aS,8aS)-2-[(2R,3S)-3-[[(2S)-2-benzamido-3,3-dimethyl-butanoyl]amino]-2-hydroxy-4-phenyl-butyl]-N-tert-butyl-3,4,4a,5,6,7,8,8a-octahydro-1H-isoquinoline-3-carboxamide
> <PUBCHEM_IUPAC_INCHI>
InChI=1S/C37H54N4O4/c1-36(2,3)32(39-33(43)26-17-11-8-12-18-26)35(45)38-29(21-25-15-9-7-10-16-25)31(42)24-41-23-28-20-14-13-19-27(28)22-30(41)34(44)40-37(4,5)6/h7-12,15-18,27-32,42H,13-14,19-24H2,1-6H3,(H,38,45)(H,39,43)(H,40,44)/t27-,28+,29-,30-,31+,32+/m0/s1
> <PUBCHEM_IUPAC_INCHIKEY>
IIIPKFXVYVTXRH-BUOONKCFSA-N
> <PUBCHEM_XLOGP3_AA>
6.5
> <PUBCHEM_EXACT_MASS>
618.41450622
> <PUBCHEM_MOLECULAR_FORMULA>
C37H54N4O4
> <PUBCHEM_MOLECULAR_WEIGHT>
618.8
> <PUBCHEM_OPENEYE_CAN_SMILES>
CC(C)(C)C(C(=O)NC(CC1=CC=CC=C1)C(CN2CC3CCCCC3CC2C(=O)NC(C)(C)C)O)NC(=O)C4=CC=CC=C4
> <PUBCHEM_OPENEYE_ISO_SMILES>
CC(C)(C)[C@@H](C(=O)N[C@@H](CC1=CC=CC=C1)[C@@H](CN2C[C@H]3CCCC[C@H]3C[C@H]2C(=O)NC(C)(C)C)O)NC(=O)C4=CC=CC=C4
> <PUBCHEM_CACTVS_TPSA>
111
> <PUBCHEM_MONOISOTOPIC_WEIGHT>
618.41450622
> <PUBCHEM_TOTAL_CHARGE>
0
> <PUBCHEM_HEAVY_ATOM_COUNT>
45
> <PUBCHEM_ATOM_DEF_STEREO_COUNT>
6
> <PUBCHEM_ATOM_UDEF_STEREO_COUNT>
0
> <PUBCHEM_BOND_DEF_STEREO_COUNT>
0
> <PUBCHEM_BOND_UDEF_STEREO_COUNT>
0
> <PUBCHEM_ISOTOPIC_ATOM_COUNT>
0
> <PUBCHEM_COMPONENT_COUNT>
1
> <PUBCHEM_CACTVS_TAUTO_COUNT>
-1
> <PUBCHEM_COORDINATE_TYPE>
1
5
255
> <PUBCHEM_BONDANNOTATIONS>
20  1  6
10  47  6
15  19  5
27  31  8
27  32  8
31  36  8
32  37  8
36  39  8
37  39  8
40  41  8
40  42  8
41  43  8
42  44  8
43  45  8
44  45  8
21  7  6
29  8  6
9  46  6
$$$$
