506897
  -OEChem-10302200282D
 90 92  0     1  0  0  0  0  0999 V2000
    4.6660   -4.2500    0.0000 S   0  0  0  0  0  0  0  0  0  0  0  0
    5.5321   -0.7500    0.0000 O   0  0  0  0  0  0  0  0  0  0  0  0
    7.2641    2.2500    0.0000 O   0  0  0  0  0  0  0  0  0  0  0  0
    5.5321   -1.7500    0.0000 O   0  0  0  0  0  0  0  0  0  0  0  0
    5.1660   -5.1160    0.0000 O   0  0  0  0  0  0  0  0  0  0  0  0
    4.1660   -3.3840    0.0000 O   0  0  0  0  0  0  0  0  0  0  0  0
    5.5321    1.2500    0.0000 N   0  0  3  0  0  0  0  0  0  0  0  0
    6.3981    3.7500    0.0000 N   0  0  0  0  0  0  0  0  0  0  0  0
    7.2641   -1.7500    0.0000 N   0  0  0  0  0  0  0  0  0  0  0  0
    7.2641   -3.7500    0.0000 N   0  0  0  0  0  0  0  0  0  0  0  0
    3.8000    2.2500    0.0000 C   0  0  2  0  0  0  0  0  0  0  0  0
    3.8000    1.2500    0.0000 C   0  0  1  0  0  0  0  0  0  0  0  0
    4.6660    2.7500    0.0000 C   0  0  0  0  0  0  0  0  0  0  0  0
    4.6660    0.7500    0.0000 C   0  0  0  0  0  0  0  0  0  0  0  0
    2.9061    2.7847    0.0000 C   0  0  0  0  0  0  0  0  0  0  0  0
    2.9061    0.7153    0.0000 C   0  0  0  0  0  0  0  0  0  0  0  0
    5.5321    2.2500    0.0000 C   0  0  1  0  0  0  0  0  0  0  0  0
    2.0000    2.2708    0.0000 C   0  0  0  0  0  0  0  0  0  0  0  0
    2.0000    1.2292    0.0000 C   0  0  0  0  0  0  0  0  0  0  0  0
    6.3981    0.7500    0.0000 C   0  0  0  0  0  0  0  0  0  0  0  0
    6.3981    2.7500    0.0000 C   0  0  0  0  0  0  0  0  0  0  0  0
    6.3981   -0.2500    0.0000 C   0  0  2  0  0  0  0  0  0  0  0  0
    7.2641   -0.7500    0.0000 C   0  0  2  0  0  0  0  0  0  0  0  0
    7.2641    4.2500    0.0000 C   0  0  0  0  0  0  0  0  0  0  0  0
    8.1301   -0.2500    0.0000 C   0  0  0  0  0  0  0  0  0  0  0  0
    8.1301    4.7500    0.0000 C   0  0  0  0  0  0  0  0  0  0  0  0
    6.7641    5.1160    0.0000 C   0  0  0  0  0  0  0  0  0  0  0  0
    7.7641    3.3840    0.0000 C   0  0  0  0  0  0  0  0  0  0  0  0
    6.3981   -2.2500    0.0000 C   0  0  0  0  0  0  0  0  0  0  0  0
    6.3981   -3.2500    0.0000 C   0  0  2  0  0  0  0  0  0  0  0  0
    5.5321   -3.7500    0.0000 C   0  0  0  0  0  0  0  0  0  0  0  0
    8.9962   -0.7500    0.0000 C   0  0  0  0  0  0  0  0  0  0  0  0
    6.0321   -4.6160    0.0000 C   0  0  0  0  0  0  0  0  0  0  0  0
    5.0321   -2.8840    0.0000 C   0  0  0  0  0  0  0  0  0  0  0  0
    9.8622   -0.2500    0.0000 C   0  0  0  0  0  0  0  0  0  0  0  0
    8.9962   -1.7500    0.0000 C   0  0  0  0  0  0  0  0  0  0  0  0
    3.8000   -4.7500    0.0000 C   0  0  0  0  0  0  0  0  0  0  0  0
   10.7282   -0.7500    0.0000 C   0  0  0  0  0  0  0  0  0  0  0  0
    9.8622   -2.2500    0.0000 C   0  0  0  0  0  0  0  0  0  0  0  0
   10.7282   -1.7500    0.0000 C   0  0  0  0  0  0  0  0  0  0  0  0
    3.8066    3.1000    0.0000 H   0  0  0  0  0  0  0  0  0  0  0  0
    3.8066    0.4000    0.0000 H   0  0  0  0  0  0  0  0  0  0  0  0
    5.0646    3.2250    0.0000 H   0  0  0  0  0  0  0  0  0  0  0  0
    4.2675    3.2250    0.0000 H   0  0  0  0  0  0  0  0  0  0  0  0
    4.2675    0.2751    0.0000 H   0  0  0  0  0  0  0  0  0  0  0  0
    5.0646    0.2751    0.0000 H   0  0  0  0  0  0  0  0  0  0  0  0
    3.3107    3.2544    0.0000 H   0  0  0  0  0  0  0  0  0  0  0  0
    2.5124    3.2637    0.0000 H   0  0  0  0  0  0  0  0  0  0  0  0
    2.5124    0.2363    0.0000 H   0  0  0  0  0  0  0  0  0  0  0  0
    3.3107    0.2456    0.0000 H   0  0  0  0  0  0  0  0  0  0  0  0
    6.0690    1.9400    0.0000 H   0  0  0  0  0  0  0  0  0  0  0  0
    1.7909    2.8545    0.0000 H   0  0  0  0  0  0  0  0  0  0  0  0
    1.3891    2.1647    0.0000 H   0  0  0  0  0  0  0  0  0  0  0  0
    1.3891    1.3353    0.0000 H   0  0  0  0  0  0  0  0  0  0  0  0
    1.7909    0.6455    0.0000 H   0  0  0  0  0  0  0  0  0  0  0  0
    7.0087    0.6423    0.0000 H   0  0  0  0  0  0  0  0  0  0  0  0
    6.6101    1.3326    0.0000 H   0  0  0  0  0  0  0  0  0  0  0  0
    6.3981   -0.8700    0.0000 H   0  0  0  0  0  0  0  0  0  0  0  0
    7.8010   -1.0600    0.0000 H   0  0  0  0  0  0  0  0  0  0  0  0
    5.8612    4.0600    0.0000 H   0  0  0  0  0  0  0  0  0  0  0  0
    8.5287    0.2249    0.0000 H   0  0  0  0  0  0  0  0  0  0  0  0
    7.7316    0.2249    0.0000 H   0  0  0  0  0  0  0  0  0  0  0  0
    7.8010   -2.0600    0.0000 H   0  0  0  0  0  0  0  0  0  0  0  0
    4.9951   -0.4400    0.0000 H   0  0  0  0  0  0  0  0  0  0  0  0
    8.4401    4.2131    0.0000 H   0  0  0  0  0  0  0  0  0  0  0  0
    8.6671    5.0600    0.0000 H   0  0  0  0  0  0  0  0  0  0  0  0
    7.8201    5.2869    0.0000 H   0  0  0  0  0  0  0  0  0  0  0  0
    7.3010    5.4260    0.0000 H   0  0  0  0  0  0  0  0  0  0  0  0
    6.4541    5.6530    0.0000 H   0  0  0  0  0  0  0  0  0  0  0  0
    6.2272    4.8060    0.0000 H   0  0  0  0  0  0  0  0  0  0  0  0
    7.2272    3.0740    0.0000 H   0  0  0  0  0  0  0  0  0  0  0  0
    8.0741    2.8470    0.0000 H   0  0  0  0  0  0  0  0  0  0  0  0
    8.3010    3.6940    0.0000 H   0  0  0  0  0  0  0  0  0  0  0  0
    6.3981   -3.8700    0.0000 H   0  0  0  0  0  0  0  0  0  0  0  0
    5.4951   -4.9260    0.0000 H   0  0  0  0  0  0  0  0  0  0  0  0
    6.3421   -5.1530    0.0000 H   0  0  0  0  0  0  0  0  0  0  0  0
    6.5690   -4.3060    0.0000 H   0  0  0  0  0  0  0  0  0  0  0  0
    5.5690   -2.5740    0.0000 H   0  0  0  0  0  0  0  0  0  0  0  0
    4.7221   -2.3470    0.0000 H   0  0  0  0  0  0  0  0  0  0  0  0
    4.4951   -3.1940    0.0000 H   0  0  0  0  0  0  0  0  0  0  0  0
    9.8622    0.3700    0.0000 H   0  0  0  0  0  0  0  0  0  0  0  0
    8.4592   -2.0600    0.0000 H   0  0  0  0  0  0  0  0  0  0  0  0
    7.2641   -4.3700    0.0000 H   0  0  0  0  0  0  0  0  0  0  0  0
    7.8010   -3.4400    0.0000 H   0  0  0  0  0  0  0  0  0  0  0  0
    3.4900   -4.2131    0.0000 H   0  0  0  0  0  0  0  0  0  0  0  0
    3.2631   -5.0600    0.0000 H   0  0  0  0  0  0  0  0  0  0  0  0
    4.1100   -5.2869    0.0000 H   0  0  0  0  0  0  0  0  0  0  0  0
   11.2651   -0.4400    0.0000 H   0  0  0  0  0  0  0  0  0  0  0  0
    9.8622   -2.8700    0.0000 H   0  0  0  0  0  0  0  0  0  0  0  0
   11.2651   -2.0600    0.0000 H   0  0  0  0  0  0  0  0  0  0  0  0
  1  5  2  0  0  0  0
  1  6  2  0  0  0  0
  1 31  1  0  0  0  0
  1 37  1  0  0  0  0
 22  2  1  6  0  0  0
  2 64  1  0  0  0  0
  3 21  2  0  0  0  0
  4 29  2  0  0  0  0
  7 14  1  0  0  0  0
  7 17  1  0  0  0  0
  7 20  1  0  0  0  0
  8 21  1  0  0  0  0
  8 24  1  0  0  0  0
  8 60  1  0  0  0  0
 23  9  1  6  0  0  0
  9 29  1  0  0  0  0
  9 63  1  0  0  0  0
 30 10  1  1  0  0  0
 10 83  1  0  0  0  0
 10 84  1  0  0  0  0
 11 12  1  0  0  0  0
 11 13  1  0  0  0  0
 11 15  1  0  0  0  0
 11 41  1  6  0  0  0
 12 14  1  0  0  0  0
 12 16  1  0  0  0  0
 12 42  1  6  0  0  0
 13 17  1  0  0  0  0
 13 43  1  0  0  0  0
 13 44  1  0  0  0  0
 14 45  1  0  0  0  0
 14 46  1  0  0  0  0
 15 18  1  0  0  0  0
 15 47  1  0  0  0  0
 15 48  1  0  0  0  0
 16 19  1  0  0  0  0
 16 49  1  0  0  0  0
 16 50  1  0  0  0  0
 17 21  1  1  0  0  0
 17 51  1  0  0  0  0
 18 19  1  0  0  0  0
 18 52  1  0  0  0  0
 18 53  1  0  0  0  0
 19 54  1  0  0  0  0
 19 55  1  0  0  0  0
 20 22  1  0  0  0  0
 20 56  1  0  0  0  0
 20 57  1  0  0  0  0
 22 23  1  0  0  0  0
 22 58  1  0  0  0  0
 23 25  1  0  0  0  0
 23 59  1  0  0  0  0
 24 26  1  0  0  0  0
 24 27  1  0  0  0  0
 24 28  1  0  0  0  0
 25 32  1  0  0  0  0
 25 61  1  0  0  0  0
 25 62  1  0  0  0  0
 26 65  1  0  0  0  0
 26 66  1  0  0  0  0
 26 67  1  0  0  0  0
 27 68  1  0  0  0  0
 27 69  1  0  0  0  0
 27 70  1  0  0  0  0
 28 71  1  0  0  0  0
 28 72  1  0  0  0  0
 28 73  1  0  0  0  0
 29 30  1  0  0  0  0
 30 31  1  0  0  0  0
 30 74  1  0  0  0  0
 31 33  1  0  0  0  0
 31 34  1  0  0  0  0
 32 35  2  0  0  0  0
 32 36  1  0  0  0  0
 33 75  1  0  0  0  0
 33 76  1  0  0  0  0
 33 77  1  0  0  0  0
 34 78  1  0  0  0  0
 34 79  1  0  0  0  0
 34 80  1  0  0  0  0
 35 38  1  0  0  0  0
 35 81  1  0  0  0  0
 36 39  2  0  0  0  0
 36 82  1  0  0  0  0
 37 85  1  0  0  0  0
 37 86  1  0  0  0  0
 37 87  1  0  0  0  0
 38 40  2  0  0  0  0
 38 88  1  0  0  0  0
 39 40  1  0  0  0  0
 39 89  1  0  0  0  0
 40 90  1  0  0  0  0
M  END
> <PUBCHEM_COMPOUND_CID>
506897
> <PUBCHEM_COMPOUND_CANONICALIZED>
1
> <PUBCHEM_CACTVS_COMPLEXITY>
968
> <PUBCHEM_CACTVS_HBOND_ACCEPTOR>
7
> <PUBCHEM_CACTVS_HBOND_DONOR>
4
> <PUBCHEM_CACTVS_ROTATABLE_BOND>
11
> <PUBCHEM_CACTVS_SUBSKEYS>
AAADcfB7uABAAAAAAAAAAAAAAAAAAAAAAAA8YIAAAAAAAACxAAAAHgQQCAAADbzh2AayAIPAAgqIAiFSEHBCAAAgABAIiIGIAIgKcDKg0TGUYAAklgCYiAeYyKCOgAAAAAAAAAAAAAAAACAAAAAAAAAAAA==
> <PUBCHEM_IUPAC_OPENEYE_NAME>
(3S,4aS,8aS)-2-[(2R,3S)-3-[[(2R)-2-amino-3-methyl-3-methylsulfonyl-butanoyl]amino]-2-hydroxy-4-phenyl-butyl]-N-tert-butyl-3,4,4a,5,6,7,8,8a-octahydro-1H-isoquinoline-3-carboxamide
> <PUBCHEM_IUPAC_CAS_NAME>
(3S,4aS,8aS)-2-[(2R,3S)-3-[[(2R)-2-amino-3-methyl-3-methylsulfonyl-1-oxobutyl]amino]-2-hydroxy-4-phenylbutyl]-N-tert-butyl-3,4,4a,5,6,7,8,8a-octahydro-1H-isoquinoline-3-carboxamide
> <PUBCHEM_IUPAC_NAME_MARKUP>
(3<I>S</I>,4<I>a</I><I>S</I>,8<I>a</I><I>S</I>)-2-[(2<I>R</I>,3<I>S</I>)-3-[[(2<I>R</I>)-2-amino-3-methyl-3-methylsulfonylbutanoyl]amino]-2-hydroxy-4-phenylbutyl]-<I>N</I>-<I>tert</I>-butyl-3,4,4<I>a</I>,5,6,7,8,8<I>a</I>-octahydro-1<I>H</I>-isoquinoline-3-carboxamide
> <PUBCHEM_IUPAC_NAME>
(3S,4aS,8aS)-2-[(2R,3S)-3-[[(2R)-2-amino-3-methyl-3-methylsulfonylbutanoyl]amino]-2-hydroxy-4-phenylbutyl]-N-tert-butyl-3,4,4a,5,6,7,8,8a-octahydro-1H-isoquinoline-3-carboxamide
> <PUBCHEM_IUPAC_SYSTEMATIC_NAME>
(3S,4aS,8aS)-2-[(2R,3S)-3-[[(2R)-2-azanyl-3-methyl-3-methylsulfonyl-butanoyl]amino]-2-oxidanyl-4-phenyl-butyl]-N-tert-butyl-3,4,4a,5,6,7,8,8a-octahydro-1H-isoquinoline-3-carboxamide
> <PUBCHEM_IUPAC_TRADITIONAL_NAME>
(3S,4aS,8aS)-2-[(2R,3S)-3-[[(2R)-2-amino-3-mesyl-3-methyl-butanoyl]amino]-2-hydroxy-4-phenyl-butyl]-N-tert-butyl-3,4,4a,5,6,7,8,8a-octahydro-1H-isoquinoline-3-carboxamide
> <PUBCHEM_IUPAC_INCHI>
InChI=1S/C30H50N4O5S/c1-29(2,3)33-27(36)24-17-21-14-10-11-15-22(21)18-34(24)19-25(35)23(16-20-12-8-7-9-13-20)32-28(37)26(31)30(4,5)40(6,38)39/h7-9,12-13,21-26,35H,10-11,14-19,31H2,1-6H3,(H,32,37)(H,33,36)/t21-,22+,23-,24-,25+,26+/m0/s1
> <PUBCHEM_IUPAC_INCHIKEY>
NKIZSVPWZKBDGY-XCQFYCGYSA-N
> <PUBCHEM_XLOGP3_AA>
2.9
> <PUBCHEM_EXACT_MASS>
578.35019188
> <PUBCHEM_MOLECULAR_FORMULA>
C30H50N4O5S
> <PUBCHEM_MOLECULAR_WEIGHT>
578.8
> <PUBCHEM_OPENEYE_CAN_SMILES>
CC(C)(C)NC(=O)C1CC2CCCCC2CN1CC(C(CC3=CC=CC=C3)NC(=O)C(C(C)(C)S(=O)(=O)C)N)O
> <PUBCHEM_OPENEYE_ISO_SMILES>
CC(C)(C)NC(=O)[C@@H]1C[C@@H]2CCCC[C@@H]2CN1C[C@H]([C@H](CC3=CC=CC=C3)NC(=O)[C@H](C(C)(C)S(=O)(=O)C)N)O
> <PUBCHEM_CACTVS_TPSA>
150
> <PUBCHEM_MONOISOTOPIC_WEIGHT>
578.35019188
> <PUBCHEM_TOTAL_CHARGE>
0
> <PUBCHEM_HEAVY_ATOM_COUNT>
40
> <PUBCHEM_ATOM_DEF_STEREO_COUNT>
6
> <PUBCHEM_ATOM_UDEF_STEREO_COUNT>
0
> <PUBCHEM_BOND_DEF_STEREO_COUNT>
0
> <PUBCHEM_BOND_UDEF_STEREO_COUNT>
0
> <PUBCHEM_ISOTOPIC_ATOM_COUNT>
0
> <PUBCHEM_COMPONENT_COUNT>
1
> <PUBCHEM_CACTVS_TAUTO_COUNT>
-1
> <PUBCHEM_COORDINATE_TYPE>
1
5
255
> <PUBCHEM_BONDANNOTATIONS>
30  10  5
11  41  6
12  42  6
17  21  5
22  2  6
32  35  8
32  36  8
35  38  8
36  39  8
38  40  8
39  40  8
23  9  6
$$$$
