506809
  -OEChem-10302200282D
 88 92  0     1  0  0  0  0  0999 V2000
    7.2627    3.0799    0.0000 O   0  0  0  0  0  0  0  0  0  0  0  0
    7.9244   -1.1845    0.0000 O   0  0  0  0  0  0  0  0  0  0  0  0
    9.2206   -0.7659    0.0000 O   0  0  0  0  0  0  0  0  0  0  0  0
    4.3211   -1.0589    0.0000 O   0  0  0  0  0  0  0  0  0  0  0  0
   12.7714   -0.1396    0.0000 O   0  0  0  0  0  0  0  0  0  0  0  0
    7.5673    0.5103    0.0000 N   0  0  0  0  0  0  0  0  0  0  0  0
   10.2411    0.6336    0.0000 N   0  0  0  0  0  0  0  0  0  0  0  0
    5.9674   -1.5970    0.0000 N   0  0  0  0  0  0  0  0  0  0  0  0
    4.6783   -4.3632    0.0000 N   0  0  0  0  0  0  0  0  0  0  0  0
    8.5189    0.8177    0.0000 C   0  0  1  0  0  0  0  0  0  0  0  0
    7.5701    2.1283    0.0000 C   0  0  2  0  0  0  0  0  0  0  0  0
    8.5206    1.8176    0.0000 C   0  0  0  0  0  0  0  0  0  0  0  0
    6.9809    1.3203    0.0000 C   0  0  0  0  0  0  0  0  0  0  0  0
    7.2566   -0.4402    0.0000 C   0  0  0  0  0  0  0  0  0  0  0  0
    6.2781   -0.6465    0.0000 C   0  0  2  0  0  0  0  0  0  0  0  0
    9.3269    0.2285    0.0000 C   0  0  0  0  0  0  0  0  0  0  0  0
    5.6103    0.0978    0.0000 C   0  0  0  0  0  0  0  0  0  0  0  0
    7.9331    3.8219    0.0000 C   0  0  0  0  0  0  0  0  0  0  0  0
    5.9209    1.0484    0.0000 C   0  0  0  0  0  0  0  0  0  0  0  0
    4.6318   -0.1084    0.0000 C   0  0  0  0  0  0  0  0  0  0  0  0
   11.0491    0.0444    0.0000 C   0  0  1  0  0  0  0  0  0  0  0  0
    4.9889   -1.8032    0.0000 C   0  0  0  0  0  0  0  0  0  0  0  0
    7.6257    4.7735    0.0000 C   0  0  0  0  0  0  0  0  0  0  0  0
   10.9429   -0.9499    0.0000 C   0  0  0  0  0  0  0  0  0  0  0  0
    4.6783   -2.7537    0.0000 C   0  0  0  0  0  0  0  0  0  0  0  0
   11.9634    0.4496    0.0000 C   0  0  0  0  0  0  0  0  0  0  0  0
    3.7320   -3.0584    0.0000 C   0  0  0  0  0  0  0  0  0  0  0  0
    5.2619   -3.5584    0.0000 C   0  0  0  0  0  0  0  0  0  0  0  0
    3.7320   -4.0584    0.0000 C   0  0  0  0  0  0  0  0  0  0  0  0
   11.7509   -1.5391    0.0000 C   0  0  0  0  0  0  0  0  0  0  0  0
    8.2962    5.5155    0.0000 C   0  0  0  0  0  0  0  0  0  0  0  0
    6.6480    4.9831    0.0000 C   0  0  0  0  0  0  0  0  0  0  0  0
    4.9889   -5.3137    0.0000 C   0  0  0  0  0  0  0  0  0  0  0  0
    2.8660   -2.5584    0.0000 C   0  0  0  0  0  0  0  0  0  0  0  0
    2.8660   -4.5584    0.0000 C   0  0  0  0  0  0  0  0  0  0  0  0
    7.9888    6.4671    0.0000 C   0  0  0  0  0  0  0  0  0  0  0  0
    6.3406    5.9347    0.0000 C   0  0  0  0  0  0  0  0  0  0  0  0
    2.0000   -3.0584    0.0000 C   0  0  0  0  0  0  0  0  0  0  0  0
    5.9674   -5.5199    0.0000 C   0  0  0  0  0  0  0  0  0  0  0  0
    7.0110    6.6767    0.0000 C   0  0  0  0  0  0  0  0  0  0  0  0
    2.0000   -4.0584    0.0000 C   0  0  0  0  0  0  0  0  0  0  0  0
    6.2781   -6.4704    0.0000 C   0  0  0  0  0  0  0  0  0  0  0  0
    6.6353   -4.7756    0.0000 C   0  0  0  0  0  0  0  0  0  0  0  0
    7.2566   -6.6767    0.0000 C   0  0  0  0  0  0  0  0  0  0  0  0
    7.6138   -4.9818    0.0000 C   0  0  0  0  0  0  0  0  0  0  0  0
    7.9244   -5.9324    0.0000 C   0  0  0  0  0  0  0  0  0  0  0  0
    8.4208    0.2055    0.0000 H   0  0  0  0  0  0  0  0  0  0  0  0
    6.9579    2.2264    0.0000 H   0  0  0  0  0  0  0  0  0  0  0  0
    9.1371    1.7518    0.0000 H   0  0  0  0  0  0  0  0  0  0  0  0
    8.6505    2.4239    0.0000 H   0  0  0  0  0  0  0  0  0  0  0  0
    6.5208    1.7360    0.0000 H   0  0  0  0  0  0  0  0  0  0  0  0
    6.5194    0.9063    0.0000 H   0  0  0  0  0  0  0  0  0  0  0  0
    5.6714   -0.7743    0.0000 H   0  0  0  0  0  0  0  0  0  0  0  0
    6.2169    0.2257    0.0000 H   0  0  0  0  0  0  0  0  0  0  0  0
   10.3070    1.2501    0.0000 H   0  0  0  0  0  0  0  0  0  0  0  0
    6.3815   -2.0584    0.0000 H   0  0  0  0  0  0  0  0  0  0  0  0
    8.3140    3.3327    0.0000 H   0  0  0  0  0  0  0  0  0  0  0  0
    8.4810    4.1120    0.0000 H   0  0  0  0  0  0  0  0  0  0  0  0
    6.5102    0.8558    0.0000 H   0  0  0  0  0  0  0  0  0  0  0  0
    6.1135    1.6377    0.0000 H   0  0  0  0  0  0  0  0  0  0  0  0
    5.3316    1.2410    0.0000 H   0  0  0  0  0  0  0  0  0  0  0  0
    4.5039    0.4983    0.0000 H   0  0  0  0  0  0  0  0  0  0  0  0
    4.0251   -0.2362    0.0000 H   0  0  0  0  0  0  0  0  0  0  0  0
    4.7596   -0.7150    0.0000 H   0  0  0  0  0  0  0  0  0  0  0  0
   11.1150    0.6609    0.0000 H   0  0  0  0  0  0  0  0  0  0  0  0
   10.3472   -0.7780    0.0000 H   0  0  0  0  0  0  0  0  0  0  0  0
   10.6701   -1.5067    0.0000 H   0  0  0  0  0  0  0  0  0  0  0  0
   12.0292    1.0661    0.0000 H   0  0  0  0  0  0  0  0  0  0  0  0
    5.8819   -3.5584    0.0000 H   0  0  0  0  0  0  0  0  0  0  0  0
   11.3856   -2.0400    0.0000 H   0  0  0  0  0  0  0  0  0  0  0  0
   12.2518   -1.9044    0.0000 H   0  0  0  0  0  0  0  0  0  0  0  0
   12.1161   -1.0381    0.0000 H   0  0  0  0  0  0  0  0  0  0  0  0
    8.9024    5.3855    0.0000 H   0  0  0  0  0  0  0  0  0  0  0  0
    6.2323    4.5230    0.0000 H   0  0  0  0  0  0  0  0  0  0  0  0
    4.3751   -5.4010    0.0000 H   0  0  0  0  0  0  0  0  0  0  0  0
    4.9684   -5.9334    0.0000 H   0  0  0  0  0  0  0  0  0  0  0  0
    2.8660   -1.9384    0.0000 H   0  0  0  0  0  0  0  0  0  0  0  0
    2.8660   -5.1784    0.0000 H   0  0  0  0  0  0  0  0  0  0  0  0
    8.4044    6.9271    0.0000 H   0  0  0  0  0  0  0  0  0  0  0  0
    5.7344    6.0646    0.0000 H   0  0  0  0  0  0  0  0  0  0  0  0
    1.4631   -2.7484    0.0000 H   0  0  0  0  0  0  0  0  0  0  0  0
    6.8204    7.2666    0.0000 H   0  0  0  0  0  0  0  0  0  0  0  0
    1.4631   -4.3684    0.0000 H   0  0  0  0  0  0  0  0  0  0  0  0
    5.8640   -6.9319    0.0000 H   0  0  0  0  0  0  0  0  0  0  0  0
    6.4427   -4.1863    0.0000 H   0  0  0  0  0  0  0  0  0  0  0  0
    7.4492   -7.2660    0.0000 H   0  0  0  0  0  0  0  0  0  0  0  0
    8.0279   -4.5204    0.0000 H   0  0  0  0  0  0  0  0  0  0  0  0
    8.5311   -6.0602    0.0000 H   0  0  0  0  0  0  0  0  0  0  0  0
 11  1  1  6  0  0  0
  1 18  1  0  0  0  0
  2 14  2  0  0  0  0
  3 16  2  0  0  0  0
  4 22  2  0  0  0  0
  5 26  2  0  0  0  0
  6 10  1  0  0  0  0
  6 13  1  0  0  0  0
  6 14  1  0  0  0  0
  7 16  1  0  0  0  0
 21  7  1  6  0  0  0
  7 55  1  0  0  0  0
 15  8  1  1  0  0  0
  8 22  1  0  0  0  0
  8 56  1  0  0  0  0
  9 28  1  0  0  0  0
  9 29  1  0  0  0  0
  9 33  1  0  0  0  0
 10 12  1  0  0  0  0
 10 16  1  1  0  0  0
 10 47  1  0  0  0  0
 11 12  1  0  0  0  0
 11 13  1  0  0  0  0
 11 48  1  0  0  0  0
 12 49  1  0  0  0  0
 12 50  1  0  0  0  0
 13 51  1  0  0  0  0
 13 52  1  0  0  0  0
 14 15  1  0  0  0  0
 15 17  1  0  0  0  0
 15 53  1  0  0  0  0
 17 19  1  0  0  0  0
 17 20  1  0  0  0  0
 17 54  1  0  0  0  0
 18 23  1  0  0  0  0
 18 57  1  0  0  0  0
 18 58  1  0  0  0  0
 19 59  1  0  0  0  0
 19 60  1  0  0  0  0
 19 61  1  0  0  0  0
 20 62  1  0  0  0  0
 20 63  1  0  0  0  0
 20 64  1  0  0  0  0
 21 24  1  0  0  0  0
 21 26  1  0  0  0  0
 21 65  1  0  0  0  0
 22 25  1  0  0  0  0
 23 31  2  0  0  0  0
 23 32  1  0  0  0  0
 24 30  1  0  0  0  0
 24 66  1  0  0  0  0
 24 67  1  0  0  0  0
 25 27  1  0  0  0  0
 25 28  2  0  0  0  0
 26 68  1  0  0  0  0
 27 29  1  0  0  0  0
 27 34  2  0  0  0  0
 28 69  1  0  0  0  0
 29 35  2  0  0  0  0
 30 70  1  0  0  0  0
 30 71  1  0  0  0  0
 30 72  1  0  0  0  0
 31 36  1  0  0  0  0
 31 73  1  0  0  0  0
 32 37  2  0  0  0  0
 32 74  1  0  0  0  0
 33 39  1  0  0  0  0
 33 75  1  0  0  0  0
 33 76  1  0  0  0  0
 34 38  1  0  0  0  0
 34 77  1  0  0  0  0
 35 41  1  0  0  0  0
 35 78  1  0  0  0  0
 36 40  2  0  0  0  0
 36 79  1  0  0  0  0
 37 40  1  0  0  0  0
 37 80  1  0  0  0  0
 38 41  2  0  0  0  0
 38 81  1  0  0  0  0
 39 42  2  0  0  0  0
 39 43  1  0  0  0  0
 40 82  1  0  0  0  0
 41 83  1  0  0  0  0
 42 44  1  0  0  0  0
 42 84  1  0  0  0  0
 43 45  2  0  0  0  0
 43 85  1  0  0  0  0
 44 46  2  0  0  0  0
 44 86  1  0  0  0  0
 45 46  1  0  0  0  0
 45 87  1  0  0  0  0
 46 88  1  0  0  0  0
M  END
> <PUBCHEM_COMPOUND_CID>
506809
> <PUBCHEM_COMPOUND_CANONICALIZED>
1
> <PUBCHEM_CACTVS_COMPLEXITY>
1030
> <PUBCHEM_CACTVS_HBOND_ACCEPTOR>
5
> <PUBCHEM_CACTVS_HBOND_DONOR>
2
> <PUBCHEM_CACTVS_ROTATABLE_BOND>
13
> <PUBCHEM_CACTVS_SUBSKEYS>
AAADcfB/uAAAAAAAAAAAAAAAAAAAAWLAAAAwYMAAAAAAAFgB9AAAHgAQAAAADTzhngY+wPPMFACoAz131ACCgCA1AiAI2KG4bNgKZvrA9bmXMYhm1gHY6ce+yeCOgAAAAAACAAAAAAAAAAQAAAAAAAAAAA==
> <PUBCHEM_IUPAC_OPENEYE_NAME>
1-benzyl-N-[(1S)-1-[(2S,4R)-4-benzyloxy-2-[[(1S)-1-formylpropyl]carbamoyl]pyrrolidine-1-carbonyl]-2-methyl-propyl]indole-3-carboxamide
> <PUBCHEM_IUPAC_CAS_NAME>
N-[(2S)-3-methyl-1-oxo-1-[(2S,4R)-2-[oxo-[[(2S)-1-oxobutan-2-yl]amino]methyl]-4-phenylmethoxy-1-pyrrolidinyl]butan-2-yl]-1-(phenylmethyl)-3-indolecarboxamide
> <PUBCHEM_IUPAC_NAME_MARKUP>
1-benzyl-<I>N</I>-[(2<I>S</I>)-3-methyl-1-oxo-1-[(2<I>S</I>,4<I>R</I>)-2-[[(2<I>S</I>)-1-oxobutan-2-yl]carbamoyl]-4-phenylmethoxypyrrolidin-1-yl]butan-2-yl]indole-3-carboxamide
> <PUBCHEM_IUPAC_NAME>
1-benzyl-N-[(2S)-3-methyl-1-oxo-1-[(2S,4R)-2-[[(2S)-1-oxobutan-2-yl]carbamoyl]-4-phenylmethoxypyrrolidin-1-yl]butan-2-yl]indole-3-carboxamide
> <PUBCHEM_IUPAC_SYSTEMATIC_NAME>
N-[(2S)-3-methyl-1-oxidanylidene-1-[(2S,4R)-2-[[(2S)-1-oxidanylidenebutan-2-yl]carbamoyl]-4-phenylmethoxy-pyrrolidin-1-yl]butan-2-yl]-1-(phenylmethyl)indole-3-carboxamide
> <PUBCHEM_IUPAC_TRADITIONAL_NAME>
N-[(1S)-1-[(2S,4R)-4-benzoxy-2-[[(1S)-1-formylpropyl]carbamoyl]pyrrolidine-1-carbonyl]-2-methyl-propyl]-1-benzyl-indole-3-carboxamide
> <PUBCHEM_IUPAC_INCHI>
InChI=1S/C37H42N4O5/c1-4-28(23-42)38-36(44)33-19-29(46-24-27-15-9-6-10-16-27)21-41(33)37(45)34(25(2)3)39-35(43)31-22-40(20-26-13-7-5-8-14-26)32-18-12-11-17-30(31)32/h5-18,22-23,25,28-29,33-34H,4,19-21,24H2,1-3H3,(H,38,44)(H,39,43)/t28-,29+,33-,34-/m0/s1
> <PUBCHEM_IUPAC_INCHIKEY>
LQEIELZTVGPSDF-FDJWJHSYSA-N
> <PUBCHEM_XLOGP3_AA>
5.1
> <PUBCHEM_EXACT_MASS>
622.31552045
> <PUBCHEM_MOLECULAR_FORMULA>
C37H42N4O5
> <PUBCHEM_MOLECULAR_WEIGHT>
622.8
> <PUBCHEM_OPENEYE_CAN_SMILES>
CCC(C=O)NC(=O)C1CC(CN1C(=O)C(C(C)C)NC(=O)C2=CN(C3=CC=CC=C32)CC4=CC=CC=C4)OCC5=CC=CC=C5
> <PUBCHEM_OPENEYE_ISO_SMILES>
CC[C@@H](C=O)NC(=O)[C@@H]1C[C@H](CN1C(=O)[C@H](C(C)C)NC(=O)C2=CN(C3=CC=CC=C32)CC4=CC=CC=C4)OCC5=CC=CC=C5
> <PUBCHEM_CACTVS_TPSA>
110
> <PUBCHEM_MONOISOTOPIC_WEIGHT>
622.31552045
> <PUBCHEM_TOTAL_CHARGE>
0
> <PUBCHEM_HEAVY_ATOM_COUNT>
46
> <PUBCHEM_ATOM_DEF_STEREO_COUNT>
4
> <PUBCHEM_ATOM_UDEF_STEREO_COUNT>
0
> <PUBCHEM_BOND_DEF_STEREO_COUNT>
0
> <PUBCHEM_BOND_UDEF_STEREO_COUNT>
0
> <PUBCHEM_ISOTOPIC_ATOM_COUNT>
0
> <PUBCHEM_COMPONENT_COUNT>
1
> <PUBCHEM_CACTVS_TAUTO_COUNT>
-1
> <PUBCHEM_COORDINATE_TYPE>
1
5
255
> <PUBCHEM_BONDANNOTATIONS>
11  1  6
10  16  5
23  31  8
23  32  8
25  27  8
25  28  8
27  29  8
27  34  8
29  35  8
31  36  8
32  37  8
34  38  8
35  41  8
36  40  8
37  40  8
38  41  8
39  42  8
39  43  8
42  44  8
43  45  8
44  46  8
45  46  8
21  7  6
15  8  5
9  28  8
9  29  8
$$$$
