506814
  -OEChem-10302200282D
 80 82  0     1  0  0  0  0  0999 V2000
    4.3763    2.9514    0.0000 O   0  0  0  0  0  0  0  0  0  0  0  0
    6.3301   -0.8965    0.0000 O   0  0  0  0  0  0  0  0  0  0  0  0
    7.4321   -0.0959    0.0000 O   0  0  0  0  0  0  0  0  0  0  0  0
    2.8660   -1.8965    0.0000 O   0  0  0  0  0  0  0  0  0  0  0  0
   10.6126    1.6025    0.0000 O   0  0  0  0  0  0  0  0  0  0  0  0
    5.4641    0.6035    0.0000 N   0  0  0  0  0  0  0  0  0  0  0  0
    7.9673    1.5514    0.0000 N   0  0  0  0  0  0  0  0  0  0  0  0
    4.5981   -1.8965    0.0000 N   0  0  0  0  0  0  0  0  0  0  0  0
    6.2731    1.1913    0.0000 C   0  0  1  0  0  0  0  0  0  0  0  0
    4.9641    2.1424    0.0000 C   0  0  2  0  0  0  0  0  0  0  0  0
    5.9641    2.1424    0.0000 C   0  0  0  0  0  0  0  0  0  0  0  0
    4.6551    1.1913    0.0000 C   0  0  0  0  0  0  0  0  0  0  0  0
    5.4641   -0.3965    0.0000 C   0  0  0  0  0  0  0  0  0  0  0  0
    4.5981   -0.8965    0.0000 C   0  0  2  0  0  0  0  0  0  0  0  0
    7.2242    0.8823    0.0000 C   0  0  0  0  0  0  0  0  0  0  0  0
    3.7320   -0.3965    0.0000 C   0  0  0  0  0  0  0  0  0  0  0  0
    4.7830    3.8649    0.0000 C   0  0  0  0  0  0  0  0  0  0  0  0
    2.8660   -0.8965    0.0000 C   0  0  0  0  0  0  0  0  0  0  0  0
    3.7320    0.6035    0.0000 C   0  0  0  0  0  0  0  0  0  0  0  0
    8.9184    1.2424    0.0000 C   0  0  1  0  0  0  0  0  0  0  0  0
    3.7320   -2.3965    0.0000 C   0  0  0  0  0  0  0  0  0  0  0  0
    4.1953    4.6739    0.0000 C   0  0  0  0  0  0  0  0  0  0  0  0
    9.1263    0.2642    0.0000 C   0  0  0  0  0  0  0  0  0  0  0  0
    3.7320   -3.3965    0.0000 C   0  0  0  0  0  0  0  0  0  0  0  0
    9.6615    1.9115    0.0000 C   0  0  0  0  0  0  0  0  0  0  0  0
   10.0773   -0.0448    0.0000 C   0  0  0  0  0  0  0  0  0  0  0  0
    3.2008    4.5694    0.0000 C   0  0  0  0  0  0  0  0  0  0  0  0
    4.6020    5.5875    0.0000 C   0  0  0  0  0  0  0  0  0  0  0  0
    2.8660   -3.8965    0.0000 C   0  0  0  0  0  0  0  0  0  0  0  0
    4.5981   -3.8965    0.0000 C   0  0  0  0  0  0  0  0  0  0  0  0
    2.6130    5.3784    0.0000 C   0  0  0  0  0  0  0  0  0  0  0  0
    4.0142    6.3965    0.0000 C   0  0  0  0  0  0  0  0  0  0  0  0
    2.8660   -4.8965    0.0000 C   0  0  0  0  0  0  0  0  0  0  0  0
    4.5981   -4.8965    0.0000 C   0  0  0  0  0  0  0  0  0  0  0  0
    3.7320   -5.3965    0.0000 C   0  0  0  0  0  0  0  0  0  0  0  0
    2.0000   -3.3965    0.0000 C   0  0  0  0  0  0  0  0  0  0  0  0
    5.4641   -3.3965    0.0000 C   0  0  0  0  0  0  0  0  0  0  0  0
    3.0197    6.2920    0.0000 C   0  0  0  0  0  0  0  0  0  0  0  0
    3.7320   -6.3965    0.0000 C   0  0  0  0  0  0  0  0  0  0  0  0
    6.3701    0.5789    0.0000 H   0  0  0  0  0  0  0  0  0  0  0  0
    5.2456    2.6948    0.0000 H   0  0  0  0  0  0  0  0  0  0  0  0
    6.5706    2.2713    0.0000 H   0  0  0  0  0  0  0  0  0  0  0  0
    5.8993    2.7590    0.0000 H   0  0  0  0  0  0  0  0  0  0  0  0
    4.0887    1.4435    0.0000 H   0  0  0  0  0  0  0  0  0  0  0  0
    4.3451    0.6544    0.0000 H   0  0  0  0  0  0  0  0  0  0  0  0
    5.1350   -1.2065    0.0000 H   0  0  0  0  0  0  0  0  0  0  0  0
    3.7320   -1.0165    0.0000 H   0  0  0  0  0  0  0  0  0  0  0  0
    7.8384    2.1579    0.0000 H   0  0  0  0  0  0  0  0  0  0  0  0
    5.1350   -2.2065    0.0000 H   0  0  0  0  0  0  0  0  0  0  0  0
    5.2971    3.5182    0.0000 H   0  0  0  0  0  0  0  0  0  0  0  0
    5.2137    4.3109    0.0000 H   0  0  0  0  0  0  0  0  0  0  0  0
    2.5560   -0.3596    0.0000 H   0  0  0  0  0  0  0  0  0  0  0  0
    2.3291   -1.2065    0.0000 H   0  0  0  0  0  0  0  0  0  0  0  0
    3.1760   -1.4334    0.0000 H   0  0  0  0  0  0  0  0  0  0  0  0
    4.3520    0.6035    0.0000 H   0  0  0  0  0  0  0  0  0  0  0  0
    3.7320    1.2235    0.0000 H   0  0  0  0  0  0  0  0  0  0  0  0
    3.1120    0.6035    0.0000 H   0  0  0  0  0  0  0  0  0  0  0  0
    8.7895    1.8488    0.0000 H   0  0  0  0  0  0  0  0  0  0  0  0
    8.5067    0.2426    0.0000 H   0  0  0  0  0  0  0  0  0  0  0  0
    9.0400   -0.3497    0.0000 H   0  0  0  0  0  0  0  0  0  0  0  0
    9.5326    2.5180    0.0000 H   0  0  0  0  0  0  0  0  0  0  0  0
    9.8858   -0.6344    0.0000 H   0  0  0  0  0  0  0  0  0  0  0  0
   10.6670   -0.2364    0.0000 H   0  0  0  0  0  0  0  0  0  0  0  0
   10.2689    0.5449    0.0000 H   0  0  0  0  0  0  0  0  0  0  0  0
    2.9486    4.0030    0.0000 H   0  0  0  0  0  0  0  0  0  0  0  0
    5.2186    5.6523    0.0000 H   0  0  0  0  0  0  0  0  0  0  0  0
    1.9964    5.3136    0.0000 H   0  0  0  0  0  0  0  0  0  0  0  0
    4.2664    6.9629    0.0000 H   0  0  0  0  0  0  0  0  0  0  0  0
    2.3291   -5.2065    0.0000 H   0  0  0  0  0  0  0  0  0  0  0  0
    5.1350   -5.2065    0.0000 H   0  0  0  0  0  0  0  0  0  0  0  0
    2.3100   -2.8596    0.0000 H   0  0  0  0  0  0  0  0  0  0  0  0
    1.4631   -3.0865    0.0000 H   0  0  0  0  0  0  0  0  0  0  0  0
    1.6900   -3.9334    0.0000 H   0  0  0  0  0  0  0  0  0  0  0  0
    5.7741   -3.9334    0.0000 H   0  0  0  0  0  0  0  0  0  0  0  0
    6.0010   -3.0865    0.0000 H   0  0  0  0  0  0  0  0  0  0  0  0
    5.1541   -2.8596    0.0000 H   0  0  0  0  0  0  0  0  0  0  0  0
    2.6553    6.7936    0.0000 H   0  0  0  0  0  0  0  0  0  0  0  0
    3.1120   -6.3965    0.0000 H   0  0  0  0  0  0  0  0  0  0  0  0
    3.7320   -7.0165    0.0000 H   0  0  0  0  0  0  0  0  0  0  0  0
    4.3520   -6.3965    0.0000 H   0  0  0  0  0  0  0  0  0  0  0  0
 10  1  1  6  0  0  0
  1 17  1  0  0  0  0
  2 13  2  0  0  0  0
  3 15  2  0  0  0  0
  4 21  2  0  0  0  0
  5 25  2  0  0  0  0
  6  9  1  0  0  0  0
  6 12  1  0  0  0  0
  6 13  1  0  0  0  0
  7 15  1  0  0  0  0
 20  7  1  6  0  0  0
  7 48  1  0  0  0  0
 14  8  1  1  0  0  0
  8 21  1  0  0  0  0
  8 49  1  0  0  0  0
  9 11  1  0  0  0  0
  9 15  1  1  0  0  0
  9 40  1  0  0  0  0
 10 11  1  0  0  0  0
 10 12  1  0  0  0  0
 10 41  1  0  0  0  0
 11 42  1  0  0  0  0
 11 43  1  0  0  0  0
 12 44  1  0  0  0  0
 12 45  1  0  0  0  0
 13 14  1  0  0  0  0
 14 16  1  0  0  0  0
 14 46  1  0  0  0  0
 16 18  1  0  0  0  0
 16 19  1  0  0  0  0
 16 47  1  0  0  0  0
 17 22  1  0  0  0  0
 17 50  1  0  0  0  0
 17 51  1  0  0  0  0
 18 52  1  0  0  0  0
 18 53  1  0  0  0  0
 18 54  1  0  0  0  0
 19 55  1  0  0  0  0
 19 56  1  0  0  0  0
 19 57  1  0  0  0  0
 20 23  1  0  0  0  0
 20 25  1  0  0  0  0
 20 58  1  0  0  0  0
 21 24  1  0  0  0  0
 22 27  2  0  0  0  0
 22 28  1  0  0  0  0
 23 26  1  0  0  0  0
 23 59  1  0  0  0  0
 23 60  1  0  0  0  0
 24 29  2  0  0  0  0
 24 30  1  0  0  0  0
 25 61  1  0  0  0  0
 26 62  1  0  0  0  0
 26 63  1  0  0  0  0
 26 64  1  0  0  0  0
 27 31  1  0  0  0  0
 27 65  1  0  0  0  0
 28 32  2  0  0  0  0
 28 66  1  0  0  0  0
 29 33  1  0  0  0  0
 29 36  1  0  0  0  0
 30 34  2  0  0  0  0
 30 37  1  0  0  0  0
 31 38  2  0  0  0  0
 31 67  1  0  0  0  0
 32 38  1  0  0  0  0
 32 68  1  0  0  0  0
 33 35  2  0  0  0  0
 33 69  1  0  0  0  0
 34 35  1  0  0  0  0
 34 70  1  0  0  0  0
 35 39  1  0  0  0  0
 36 71  1  0  0  0  0
 36 72  1  0  0  0  0
 36 73  1  0  0  0  0
 37 74  1  0  0  0  0
 37 75  1  0  0  0  0
 37 76  1  0  0  0  0
 38 77  1  0  0  0  0
 39 78  1  0  0  0  0
 39 79  1  0  0  0  0
 39 80  1  0  0  0  0
M  END
> <PUBCHEM_COMPOUND_CID>
506814
> <PUBCHEM_COMPOUND_CANONICALIZED>
1
> <PUBCHEM_CACTVS_COMPLEXITY>
830
> <PUBCHEM_CACTVS_HBOND_ACCEPTOR>
5
> <PUBCHEM_CACTVS_HBOND_DONOR>
2
> <PUBCHEM_CACTVS_ROTATABLE_BOND>
11
> <PUBCHEM_CACTVS_SUBSKEYS>
AAADcfB7OAAAAAAAAAAAAAAAAAAAAWAAAAAwYAAAAAAAAAABQAAAHgAQAAAADTzhmAYyAIPABACIAilSkACCAAAkAAAIiIGIDMgKZjKAtTmXMQhm1gGYqQe6yeCOwAACAAAQAACAAAQAACAAAAAAAAAAAA==
> <PUBCHEM_IUPAC_OPENEYE_NAME>
(2S,4R)-4-benzyloxy-N-[(1S)-1-formylpropyl]-1-[(2S)-3-methyl-2-[(2,4,6-trimethylbenzoyl)amino]butanoyl]pyrrolidine-2-carboxamide
> <PUBCHEM_IUPAC_CAS_NAME>
(2S,4R)-1-[(2S)-3-methyl-1-oxo-2-[[oxo-(2,4,6-trimethylphenyl)methyl]amino]butyl]-N-[(2S)-1-oxobutan-2-yl]-4-phenylmethoxy-2-pyrrolidinecarboxamide
> <PUBCHEM_IUPAC_NAME_MARKUP>
(2<I>S</I>,4<I>R</I>)-1-[(2<I>S</I>)-3-methyl-2-[(2,4,6-trimethylbenzoyl)amino]butanoyl]-<I>N</I>-[(2<I>S</I>)-1-oxobutan-2-yl]-4-phenylmethoxypyrrolidine-2-carboxamide
> <PUBCHEM_IUPAC_NAME>
(2S,4R)-1-[(2S)-3-methyl-2-[(2,4,6-trimethylbenzoyl)amino]butanoyl]-N-[(2S)-1-oxobutan-2-yl]-4-phenylmethoxypyrrolidine-2-carboxamide
> <PUBCHEM_IUPAC_SYSTEMATIC_NAME>
(2S,4R)-1-[(2S)-3-methyl-2-[(2,4,6-trimethylphenyl)carbonylamino]butanoyl]-N-[(2S)-1-oxidanylidenebutan-2-yl]-4-phenylmethoxy-pyrrolidine-2-carboxamide
> <PUBCHEM_IUPAC_TRADITIONAL_NAME>
(2S,4R)-4-benzoxy-N-[(1S)-1-formylpropyl]-1-[(2S)-3-methyl-2-[(2,4,6-trimethylbenzoyl)amino]butanoyl]pyrrolidine-2-carboxamide
> <PUBCHEM_IUPAC_INCHI>
InChI=1S/C31H41N3O5/c1-7-24(17-35)32-29(36)26-15-25(39-18-23-11-9-8-10-12-23)16-34(26)31(38)28(19(2)3)33-30(37)27-21(5)13-20(4)14-22(27)6/h8-14,17,19,24-26,28H,7,15-16,18H2,1-6H3,(H,32,36)(H,33,37)/t24-,25+,26-,28-/m0/s1
> <PUBCHEM_IUPAC_INCHIKEY>
LUFCAZLCVHQDHN-RVUATISTSA-N
> <PUBCHEM_XLOGP3_AA>
4.6
> <PUBCHEM_EXACT_MASS>
535.30462142
> <PUBCHEM_MOLECULAR_FORMULA>
C31H41N3O5
> <PUBCHEM_MOLECULAR_WEIGHT>
535.7
> <PUBCHEM_OPENEYE_CAN_SMILES>
CCC(C=O)NC(=O)C1CC(CN1C(=O)C(C(C)C)NC(=O)C2=C(C=C(C=C2C)C)C)OCC3=CC=CC=C3
> <PUBCHEM_OPENEYE_ISO_SMILES>
CC[C@@H](C=O)NC(=O)[C@@H]1C[C@H](CN1C(=O)[C@H](C(C)C)NC(=O)C2=C(C=C(C=C2C)C)C)OCC3=CC=CC=C3
> <PUBCHEM_CACTVS_TPSA>
105
> <PUBCHEM_MONOISOTOPIC_WEIGHT>
535.30462142
> <PUBCHEM_TOTAL_CHARGE>
0
> <PUBCHEM_HEAVY_ATOM_COUNT>
39
> <PUBCHEM_ATOM_DEF_STEREO_COUNT>
4
> <PUBCHEM_ATOM_UDEF_STEREO_COUNT>
0
> <PUBCHEM_BOND_DEF_STEREO_COUNT>
0
> <PUBCHEM_BOND_UDEF_STEREO_COUNT>
0
> <PUBCHEM_ISOTOPIC_ATOM_COUNT>
0
> <PUBCHEM_COMPONENT_COUNT>
1
> <PUBCHEM_CACTVS_TAUTO_COUNT>
-1
> <PUBCHEM_COORDINATE_TYPE>
1
5
255
> <PUBCHEM_BONDANNOTATIONS>
10  1  6
22  27  8
22  28  8
24  29  8
24  30  8
27  31  8
28  32  8
29  33  8
30  34  8
31  38  8
32  38  8
33  35  8
34  35  8
20  7  6
14  8  5
9  15  5
$$$$
