506892
  -OEChem-10302200282D
102105  0     1  0  0  0  0  0999 V2000
    4.6660   -3.4330    0.0000 S   0  0  0  0  0  0  0  0  0  0  0  0
    5.5321    0.0670    0.0000 O   0  0  0  0  0  0  0  0  0  0  0  0
    7.2641    3.0670    0.0000 O   0  0  0  0  0  0  0  0  0  0  0  0
    5.5321   -0.9330    0.0000 O   0  0  0  0  0  0  0  0  0  0  0  0
    4.1660   -2.5670    0.0000 O   0  0  0  0  0  0  0  0  0  0  0  0
    5.1660   -4.2990    0.0000 O   0  0  0  0  0  0  0  0  0  0  0  0
    6.3981   -4.4330    0.0000 O   0  0  0  0  0  0  0  0  0  0  0  0
    5.5321    2.0670    0.0000 N   0  0  3  0  0  0  0  0  0  0  0  0
    6.3981    4.5670    0.0000 N   0  0  0  0  0  0  0  0  0  0  0  0
    7.2641   -0.9330    0.0000 N   0  0  0  0  0  0  0  0  0  0  0  0
    7.2641   -2.9330    0.0000 N   0  0  0  0  0  0  0  0  0  0  0  0
    3.8000    3.0670    0.0000 C   0  0  2  0  0  0  0  0  0  0  0  0
    3.8000    2.0670    0.0000 C   0  0  1  0  0  0  0  0  0  0  0  0
    4.6660    3.5670    0.0000 C   0  0  0  0  0  0  0  0  0  0  0  0
    4.6660    1.5670    0.0000 C   0  0  0  0  0  0  0  0  0  0  0  0
    2.9061    3.6016    0.0000 C   0  0  0  0  0  0  0  0  0  0  0  0
    2.9061    1.5323    0.0000 C   0  0  0  0  0  0  0  0  0  0  0  0
    5.5321    3.0670    0.0000 C   0  0  1  0  0  0  0  0  0  0  0  0
    2.0000    3.0878    0.0000 C   0  0  0  0  0  0  0  0  0  0  0  0
    2.0000    2.0462    0.0000 C   0  0  0  0  0  0  0  0  0  0  0  0
    6.3981    1.5670    0.0000 C   0  0  0  0  0  0  0  0  0  0  0  0
    6.3981    3.5670    0.0000 C   0  0  0  0  0  0  0  0  0  0  0  0
    6.3981    0.5670    0.0000 C   0  0  2  0  0  0  0  0  0  0  0  0
    7.2641    0.0670    0.0000 C   0  0  2  0  0  0  0  0  0  0  0  0
    7.2641    5.0670    0.0000 C   0  0  0  0  0  0  0  0  0  0  0  0
    8.1301    0.5670    0.0000 C   0  0  0  0  0  0  0  0  0  0  0  0
    8.1301    5.5670    0.0000 C   0  0  0  0  0  0  0  0  0  0  0  0
    6.7641    5.9330    0.0000 C   0  0  0  0  0  0  0  0  0  0  0  0
    7.7641    4.2010    0.0000 C   0  0  0  0  0  0  0  0  0  0  0  0
    6.3981   -1.4330    0.0000 C   0  0  0  0  0  0  0  0  0  0  0  0
    6.3981   -2.4330    0.0000 C   0  0  2  0  0  0  0  0  0  0  0  0
    5.5321   -2.9330    0.0000 C   0  0  0  0  0  0  0  0  0  0  0  0
    8.9962    0.0670    0.0000 C   0  0  0  0  0  0  0  0  0  0  0  0
    6.0321   -3.7990    0.0000 C   0  0  0  0  0  0  0  0  0  0  0  0
    5.0321   -2.0670    0.0000 C   0  0  0  0  0  0  0  0  0  0  0  0
    9.8622    0.5670    0.0000 C   0  0  0  0  0  0  0  0  0  0  0  0
    8.9962   -0.9330    0.0000 C   0  0  0  0  0  0  0  0  0  0  0  0
    3.8000   -3.9330    0.0000 C   0  0  0  0  0  0  0  0  0  0  0  0
   10.7282    0.0670    0.0000 C   0  0  0  0  0  0  0  0  0  0  0  0
    9.8622   -1.4330    0.0000 C   0  0  0  0  0  0  0  0  0  0  0  0
    7.2641   -3.9330    0.0000 C   0  0  0  0  0  0  0  0  0  0  0  0
   10.7282   -0.9330    0.0000 C   0  0  0  0  0  0  0  0  0  0  0  0
    8.1301   -4.4330    0.0000 C   0  0  0  0  0  0  0  0  0  0  0  0
    8.9962   -3.9330    0.0000 C   0  0  0  0  0  0  0  0  0  0  0  0
    8.1301   -5.4330    0.0000 C   0  0  0  0  0  0  0  0  0  0  0  0
    9.8622   -4.4330    0.0000 C   0  0  0  0  0  0  0  0  0  0  0  0
    8.9962   -5.9330    0.0000 C   0  0  0  0  0  0  0  0  0  0  0  0
    9.8622   -5.4330    0.0000 C   0  0  0  0  0  0  0  0  0  0  0  0
    3.8066    3.9170    0.0000 H   0  0  0  0  0  0  0  0  0  0  0  0
    3.8066    1.2170    0.0000 H   0  0  0  0  0  0  0  0  0  0  0  0
    5.0646    4.0419    0.0000 H   0  0  0  0  0  0  0  0  0  0  0  0
    4.2675    4.0419    0.0000 H   0  0  0  0  0  0  0  0  0  0  0  0
    4.2675    1.0920    0.0000 H   0  0  0  0  0  0  0  0  0  0  0  0
    5.0646    1.0920    0.0000 H   0  0  0  0  0  0  0  0  0  0  0  0
    3.3107    4.0714    0.0000 H   0  0  0  0  0  0  0  0  0  0  0  0
    2.5124    4.0807    0.0000 H   0  0  0  0  0  0  0  0  0  0  0  0
    2.5124    1.0533    0.0000 H   0  0  0  0  0  0  0  0  0  0  0  0
    3.3107    1.0625    0.0000 H   0  0  0  0  0  0  0  0  0  0  0  0
    6.0690    2.7570    0.0000 H   0  0  0  0  0  0  0  0  0  0  0  0
    1.7909    3.6715    0.0000 H   0  0  0  0  0  0  0  0  0  0  0  0
    1.3891    2.9817    0.0000 H   0  0  0  0  0  0  0  0  0  0  0  0
    1.3891    2.1523    0.0000 H   0  0  0  0  0  0  0  0  0  0  0  0
    1.7909    1.4625    0.0000 H   0  0  0  0  0  0  0  0  0  0  0  0
    7.0087    1.4593    0.0000 H   0  0  0  0  0  0  0  0  0  0  0  0
    6.6101    2.1496    0.0000 H   0  0  0  0  0  0  0  0  0  0  0  0
    6.3981   -0.0530    0.0000 H   0  0  0  0  0  0  0  0  0  0  0  0
    7.8010   -0.2430    0.0000 H   0  0  0  0  0  0  0  0  0  0  0  0
    5.8612    4.8770    0.0000 H   0  0  0  0  0  0  0  0  0  0  0  0
    8.5287    1.0419    0.0000 H   0  0  0  0  0  0  0  0  0  0  0  0
    7.7316    1.0419    0.0000 H   0  0  0  0  0  0  0  0  0  0  0  0
    7.8010   -1.2430    0.0000 H   0  0  0  0  0  0  0  0  0  0  0  0
    4.9951    0.3770    0.0000 H   0  0  0  0  0  0  0  0  0  0  0  0
    8.4401    5.0300    0.0000 H   0  0  0  0  0  0  0  0  0  0  0  0
    8.6671    5.8770    0.0000 H   0  0  0  0  0  0  0  0  0  0  0  0
    7.8201    6.1039    0.0000 H   0  0  0  0  0  0  0  0  0  0  0  0
    7.3010    6.2430    0.0000 H   0  0  0  0  0  0  0  0  0  0  0  0
    6.4541    6.4700    0.0000 H   0  0  0  0  0  0  0  0  0  0  0  0
    6.2272    5.6230    0.0000 H   0  0  0  0  0  0  0  0  0  0  0  0
    7.2272    3.8910    0.0000 H   0  0  0  0  0  0  0  0  0  0  0  0
    8.0741    3.6640    0.0000 H   0  0  0  0  0  0  0  0  0  0  0  0
    8.3010    4.5110    0.0000 H   0  0  0  0  0  0  0  0  0  0  0  0
    6.3981   -3.0530    0.0000 H   0  0  0  0  0  0  0  0  0  0  0  0
    5.4951   -4.1090    0.0000 H   0  0  0  0  0  0  0  0  0  0  0  0
    6.3421   -4.3360    0.0000 H   0  0  0  0  0  0  0  0  0  0  0  0
    6.5690   -3.4890    0.0000 H   0  0  0  0  0  0  0  0  0  0  0  0
    5.5690   -1.7570    0.0000 H   0  0  0  0  0  0  0  0  0  0  0  0
    4.7221   -1.5300    0.0000 H   0  0  0  0  0  0  0  0  0  0  0  0
    4.4951   -2.3770    0.0000 H   0  0  0  0  0  0  0  0  0  0  0  0
    7.8010   -2.6230    0.0000 H   0  0  0  0  0  0  0  0  0  0  0  0
    9.8622    1.1870    0.0000 H   0  0  0  0  0  0  0  0  0  0  0  0
    8.4592   -1.2430    0.0000 H   0  0  0  0  0  0  0  0  0  0  0  0
    3.4900   -3.3961    0.0000 H   0  0  0  0  0  0  0  0  0  0  0  0
    3.2631   -4.2430    0.0000 H   0  0  0  0  0  0  0  0  0  0  0  0
    4.1100   -4.4700    0.0000 H   0  0  0  0  0  0  0  0  0  0  0  0
   11.2651    0.3770    0.0000 H   0  0  0  0  0  0  0  0  0  0  0  0
    9.8622   -2.0530    0.0000 H   0  0  0  0  0  0  0  0  0  0  0  0
   11.2651   -1.2430    0.0000 H   0  0  0  0  0  0  0  0  0  0  0  0
    8.9962   -3.3130    0.0000 H   0  0  0  0  0  0  0  0  0  0  0  0
    7.5932   -5.7430    0.0000 H   0  0  0  0  0  0  0  0  0  0  0  0
   10.3991   -4.1230    0.0000 H   0  0  0  0  0  0  0  0  0  0  0  0
    8.9962   -6.5530    0.0000 H   0  0  0  0  0  0  0  0  0  0  0  0
   10.3991   -5.7430    0.0000 H   0  0  0  0  0  0  0  0  0  0  0  0
  1  5  2  0  0  0  0
  1  6  2  0  0  0  0
  1 32  1  0  0  0  0
  1 38  1  0  0  0  0
 23  2  1  6  0  0  0
  2 72  1  0  0  0  0
  3 22  2  0  0  0  0
  4 30  2  0  0  0  0
  7 41  2  0  0  0  0
  8 15  1  0  0  0  0
  8 18  1  0  0  0  0
  8 21  1  0  0  0  0
  9 22  1  0  0  0  0
  9 25  1  0  0  0  0
  9 68  1  0  0  0  0
 24 10  1  6  0  0  0
 10 30  1  0  0  0  0
 10 71  1  0  0  0  0
 31 11  1  1  0  0  0
 11 41  1  0  0  0  0
 11 89  1  0  0  0  0
 12 13  1  0  0  0  0
 12 14  1  0  0  0  0
 12 16  1  0  0  0  0
 12 49  1  6  0  0  0
 13 15  1  0  0  0  0
 13 17  1  0  0  0  0
 13 50  1  6  0  0  0
 14 18  1  0  0  0  0
 14 51  1  0  0  0  0
 14 52  1  0  0  0  0
 15 53  1  0  0  0  0
 15 54  1  0  0  0  0
 16 19  1  0  0  0  0
 16 55  1  0  0  0  0
 16 56  1  0  0  0  0
 17 20  1  0  0  0  0
 17 57  1  0  0  0  0
 17 58  1  0  0  0  0
 18 22  1  1  0  0  0
 18 59  1  0  0  0  0
 19 20  1  0  0  0  0
 19 60  1  0  0  0  0
 19 61  1  0  0  0  0
 20 62  1  0  0  0  0
 20 63  1  0  0  0  0
 21 23  1  0  0  0  0
 21 64  1  0  0  0  0
 21 65  1  0  0  0  0
 23 24  1  0  0  0  0
 23 66  1  0  0  0  0
 24 26  1  0  0  0  0
 24 67  1  0  0  0  0
 25 27  1  0  0  0  0
 25 28  1  0  0  0  0
 25 29  1  0  0  0  0
 26 33  1  0  0  0  0
 26 69  1  0  0  0  0
 26 70  1  0  0  0  0
 27 73  1  0  0  0  0
 27 74  1  0  0  0  0
 27 75  1  0  0  0  0
 28 76  1  0  0  0  0
 28 77  1  0  0  0  0
 28 78  1  0  0  0  0
 29 79  1  0  0  0  0
 29 80  1  0  0  0  0
 29 81  1  0  0  0  0
 30 31  1  0  0  0  0
 31 32  1  0  0  0  0
 31 82  1  0  0  0  0
 32 34  1  0  0  0  0
 32 35  1  0  0  0  0
 33 36  2  0  0  0  0
 33 37  1  0  0  0  0
 34 83  1  0  0  0  0
 34 84  1  0  0  0  0
 34 85  1  0  0  0  0
 35 86  1  0  0  0  0
 35 87  1  0  0  0  0
 35 88  1  0  0  0  0
 36 39  1  0  0  0  0
 36 90  1  0  0  0  0
 37 40  2  0  0  0  0
 37 91  1  0  0  0  0
 38 92  1  0  0  0  0
 38 93  1  0  0  0  0
 38 94  1  0  0  0  0
 39 42  2  0  0  0  0
 39 95  1  0  0  0  0
 40 42  1  0  0  0  0
 40 96  1  0  0  0  0
 41 43  1  0  0  0  0
 42 97  1  0  0  0  0
 43 44  2  0  0  0  0
 43 45  1  0  0  0  0
 44 46  1  0  0  0  0
 44 98  1  0  0  0  0
 45 47  2  0  0  0  0
 45 99  1  0  0  0  0
 46 48  2  0  0  0  0
 46100  1  0  0  0  0
 47 48  1  0  0  0  0
 47101  1  0  0  0  0
 48102  1  0  0  0  0
M  END
> <PUBCHEM_COMPOUND_CID>
506892
> <PUBCHEM_COMPOUND_CANONICALIZED>
1
> <PUBCHEM_CACTVS_COMPLEXITY>
1200
> <PUBCHEM_CACTVS_HBOND_ACCEPTOR>
7
> <PUBCHEM_CACTVS_HBOND_DONOR>
4
> <PUBCHEM_CACTVS_ROTATABLE_BOND>
13
> <PUBCHEM_CACTVS_SUBSKEYS>
AAADcfB/uABAAAAAAAAAAAAAAAAAAAAAAAA8YMEAAAAAAACxQAAAHgQQCAAADbzh2AayAIPAAgqIAiFSEHDCAAAkABAIiIGIBMgKcDKg1TGUYQhklgCYiYeYyKCOgAAAAAAAAAAAAAAAACAAAAAAAAAAAA==
> <PUBCHEM_IUPAC_OPENEYE_NAME>
(3S,4aS,8aS)-2-[(2R,3S)-3-[[(2R)-2-benzamido-3-methyl-3-methylsulfonyl-butanoyl]amino]-2-hydroxy-4-phenyl-butyl]-N-tert-butyl-3,4,4a,5,6,7,8,8a-octahydro-1H-isoquinoline-3-carboxamide
> <PUBCHEM_IUPAC_CAS_NAME>
(3S,4aS,8aS)-2-[(2R,3S)-3-[[(2R)-2-benzamido-3-methyl-3-methylsulfonyl-1-oxobutyl]amino]-2-hydroxy-4-phenylbutyl]-N-tert-butyl-3,4,4a,5,6,7,8,8a-octahydro-1H-isoquinoline-3-carboxamide
> <PUBCHEM_IUPAC_NAME_MARKUP>
(3<I>S</I>,4<I>a</I><I>S</I>,8<I>a</I><I>S</I>)-2-[(2<I>R</I>,3<I>S</I>)-3-[[(2<I>R</I>)-2-benzamido-3-methyl-3-methylsulfonylbutanoyl]amino]-2-hydroxy-4-phenylbutyl]-<I>N</I>-<I>tert</I>-butyl-3,4,4<I>a</I>,5,6,7,8,8<I>a</I>-octahydro-1<I>H</I>-isoquinoline-3-carboxamide
> <PUBCHEM_IUPAC_NAME>
(3S,4aS,8aS)-2-[(2R,3S)-3-[[(2R)-2-benzamido-3-methyl-3-methylsulfonylbutanoyl]amino]-2-hydroxy-4-phenylbutyl]-N-tert-butyl-3,4,4a,5,6,7,8,8a-octahydro-1H-isoquinoline-3-carboxamide
> <PUBCHEM_IUPAC_SYSTEMATIC_NAME>
(3S,4aS,8aS)-2-[(2R,3S)-3-[[(2R)-2-benzamido-3-methyl-3-methylsulfonyl-butanoyl]amino]-2-oxidanyl-4-phenyl-butyl]-N-tert-butyl-3,4,4a,5,6,7,8,8a-octahydro-1H-isoquinoline-3-carboxamide
> <PUBCHEM_IUPAC_TRADITIONAL_NAME>
(3S,4aS,8aS)-2-[(2R,3S)-3-[[(2R)-2-benzamido-3-mesyl-3-methyl-butanoyl]amino]-2-hydroxy-4-phenyl-butyl]-N-tert-butyl-3,4,4a,5,6,7,8,8a-octahydro-1H-isoquinoline-3-carboxamide
> <PUBCHEM_IUPAC_INCHI>
InChI=1S/C37H54N4O6S/c1-36(2,3)40-34(44)30-22-27-19-13-14-20-28(27)23-41(30)24-31(42)29(21-25-15-9-7-10-16-25)38-35(45)32(37(4,5)48(6,46)47)39-33(43)26-17-11-8-12-18-26/h7-12,15-18,27-32,42H,13-14,19-24H2,1-6H3,(H,38,45)(H,39,43)(H,40,44)/t27-,28+,29-,30-,31+,32+/m0/s1
> <PUBCHEM_IUPAC_INCHIKEY>
CSZHTDQPZAMTHE-BUOONKCFSA-N
> <PUBCHEM_XLOGP3_AA>
4.8
> <PUBCHEM_EXACT_MASS>
682.37640663
> <PUBCHEM_MOLECULAR_FORMULA>
C37H54N4O6S
> <PUBCHEM_MOLECULAR_WEIGHT>
682.9
> <PUBCHEM_OPENEYE_CAN_SMILES>
CC(C)(C)NC(=O)C1CC2CCCCC2CN1CC(C(CC3=CC=CC=C3)NC(=O)C(C(C)(C)S(=O)(=O)C)NC(=O)C4=CC=CC=C4)O
> <PUBCHEM_OPENEYE_ISO_SMILES>
CC(C)(C)NC(=O)[C@@H]1C[C@@H]2CCCC[C@@H]2CN1C[C@H]([C@H](CC3=CC=CC=C3)NC(=O)[C@H](C(C)(C)S(=O)(=O)C)NC(=O)C4=CC=CC=C4)O
> <PUBCHEM_CACTVS_TPSA>
153
> <PUBCHEM_MONOISOTOPIC_WEIGHT>
682.37640663
> <PUBCHEM_TOTAL_CHARGE>
0
> <PUBCHEM_HEAVY_ATOM_COUNT>
48
> <PUBCHEM_ATOM_DEF_STEREO_COUNT>
6
> <PUBCHEM_ATOM_UDEF_STEREO_COUNT>
0
> <PUBCHEM_BOND_DEF_STEREO_COUNT>
0
> <PUBCHEM_BOND_UDEF_STEREO_COUNT>
0
> <PUBCHEM_ISOTOPIC_ATOM_COUNT>
0
> <PUBCHEM_COMPONENT_COUNT>
1
> <PUBCHEM_CACTVS_TAUTO_COUNT>
-1
> <PUBCHEM_COORDINATE_TYPE>
1
5
255
> <PUBCHEM_BONDANNOTATIONS>
24  10  6
31  11  5
12  49  6
13  50  6
18  22  5
23  2  6
33  36  8
33  37  8
36  39  8
37  40  8
39  42  8
40  42  8
43  44  8
43  45  8
44  46  8
45  47  8
46  48  8
47  48  8
$$$$
