506890
  -OEChem-10302200282D
 94 97  0     1  0  0  0  0  0999 V2000
    7.2641    2.6270    0.0000 O   0  0  0  0  0  0  0  0  0  0  0  0
    5.5321   -0.3730    0.0000 O   0  0  0  0  0  0  0  0  0  0  0  0
    5.5321   -1.3730    0.0000 O   0  0  0  0  0  0  0  0  0  0  0  0
    6.3981   -4.8730    0.0000 O   0  0  0  0  0  0  0  0  0  0  0  0
    4.6660   -1.8730    0.0000 O   0  0  0  0  0  0  0  0  0  0  0  0
    5.5321    1.6270    0.0000 N   0  0  3  0  0  0  0  0  0  0  0  0
    6.3981    4.1270    0.0000 N   0  0  0  0  0  0  0  0  0  0  0  0
    7.2641   -1.3730    0.0000 N   0  0  0  0  0  0  0  0  0  0  0  0
    5.5321   -3.3730    0.0000 N   0  0  0  0  0  0  0  0  0  0  0  0
    8.1301   -4.8730    0.0000 N   0  0  0  0  0  0  0  0  0  0  0  0
    3.8000    2.6270    0.0000 C   0  0  2  0  0  0  0  0  0  0  0  0
    3.8000    1.6270    0.0000 C   0  0  1  0  0  0  0  0  0  0  0  0
    4.6660    3.1270    0.0000 C   0  0  0  0  0  0  0  0  0  0  0  0
    4.6660    1.1270    0.0000 C   0  0  0  0  0  0  0  0  0  0  0  0
    2.9061    3.1616    0.0000 C   0  0  0  0  0  0  0  0  0  0  0  0
    2.9061    1.0923    0.0000 C   0  0  0  0  0  0  0  0  0  0  0  0
    5.5321    2.6270    0.0000 C   0  0  1  0  0  0  0  0  0  0  0  0
    2.0000    2.6478    0.0000 C   0  0  0  0  0  0  0  0  0  0  0  0
    2.0000    1.6062    0.0000 C   0  0  0  0  0  0  0  0  0  0  0  0
    6.3981    1.1270    0.0000 C   0  0  0  0  0  0  0  0  0  0  0  0
    6.3981    3.1270    0.0000 C   0  0  0  0  0  0  0  0  0  0  0  0
    6.3981    0.1270    0.0000 C   0  0  2  0  0  0  0  0  0  0  0  0
    7.2641   -0.3730    0.0000 C   0  0  2  0  0  0  0  0  0  0  0  0
    7.2641    4.6270    0.0000 C   0  0  0  0  0  0  0  0  0  0  0  0
    8.1301    0.1270    0.0000 C   0  0  0  0  0  0  0  0  0  0  0  0
    8.1301    5.1270    0.0000 C   0  0  0  0  0  0  0  0  0  0  0  0
    6.7641    5.4930    0.0000 C   0  0  0  0  0  0  0  0  0  0  0  0
    7.7641    3.7610    0.0000 C   0  0  0  0  0  0  0  0  0  0  0  0
    8.9962   -0.3730    0.0000 C   0  0  0  0  0  0  0  0  0  0  0  0
    6.3981   -1.8730    0.0000 C   0  0  0  0  0  0  0  0  0  0  0  0
    6.3981   -2.8730    0.0000 C   0  0  2  0  0  0  0  0  0  0  0  0
    9.8622    0.1270    0.0000 C   0  0  0  0  0  0  0  0  0  0  0  0
    8.9962   -1.3730    0.0000 C   0  0  0  0  0  0  0  0  0  0  0  0
    7.2641   -3.3730    0.0000 C   0  0  0  0  0  0  0  0  0  0  0  0
   10.7282   -0.3730    0.0000 C   0  0  0  0  0  0  0  0  0  0  0  0
    9.8622   -1.8730    0.0000 C   0  0  0  0  0  0  0  0  0  0  0  0
   10.7282   -1.3730    0.0000 C   0  0  0  0  0  0  0  0  0  0  0  0
    7.2641   -4.3730    0.0000 C   0  0  0  0  0  0  0  0  0  0  0  0
    4.6660   -2.8730    0.0000 C   0  0  0  0  0  0  0  0  0  0  0  0
    3.8000   -3.3730    0.0000 C   0  0  0  0  0  0  0  0  0  0  0  0
    2.9340   -2.8730    0.0000 C   0  0  0  0  0  0  0  0  0  0  0  0
    3.8000   -4.3730    0.0000 C   0  0  0  0  0  0  0  0  0  0  0  0
    2.0680   -3.3730    0.0000 C   0  0  0  0  0  0  0  0  0  0  0  0
    2.9340   -4.8730    0.0000 C   0  0  0  0  0  0  0  0  0  0  0  0
    2.0680   -4.3730    0.0000 C   0  0  0  0  0  0  0  0  0  0  0  0
    3.8066    3.4770    0.0000 H   0  0  0  0  0  0  0  0  0  0  0  0
    3.8066    0.7770    0.0000 H   0  0  0  0  0  0  0  0  0  0  0  0
    5.0646    3.6019    0.0000 H   0  0  0  0  0  0  0  0  0  0  0  0
    4.2675    3.6019    0.0000 H   0  0  0  0  0  0  0  0  0  0  0  0
    4.2675    0.6520    0.0000 H   0  0  0  0  0  0  0  0  0  0  0  0
    5.0646    0.6520    0.0000 H   0  0  0  0  0  0  0  0  0  0  0  0
    3.3107    3.6314    0.0000 H   0  0  0  0  0  0  0  0  0  0  0  0
    2.5124    3.6407    0.0000 H   0  0  0  0  0  0  0  0  0  0  0  0
    2.5124    0.6133    0.0000 H   0  0  0  0  0  0  0  0  0  0  0  0
    3.3107    0.6225    0.0000 H   0  0  0  0  0  0  0  0  0  0  0  0
    6.0690    2.3170    0.0000 H   0  0  0  0  0  0  0  0  0  0  0  0
    1.7909    3.2315    0.0000 H   0  0  0  0  0  0  0  0  0  0  0  0
    1.3891    2.5417    0.0000 H   0  0  0  0  0  0  0  0  0  0  0  0
    1.3891    1.7123    0.0000 H   0  0  0  0  0  0  0  0  0  0  0  0
    1.7909    1.0225    0.0000 H   0  0  0  0  0  0  0  0  0  0  0  0
    7.0087    1.0193    0.0000 H   0  0  0  0  0  0  0  0  0  0  0  0
    6.6101    1.7096    0.0000 H   0  0  0  0  0  0  0  0  0  0  0  0
    6.3981   -0.4930    0.0000 H   0  0  0  0  0  0  0  0  0  0  0  0
    7.8010   -0.6830    0.0000 H   0  0  0  0  0  0  0  0  0  0  0  0
    5.8612    4.4370    0.0000 H   0  0  0  0  0  0  0  0  0  0  0  0
    8.5287    0.6019    0.0000 H   0  0  0  0  0  0  0  0  0  0  0  0
    7.7316    0.6019    0.0000 H   0  0  0  0  0  0  0  0  0  0  0  0
    4.9951   -0.0630    0.0000 H   0  0  0  0  0  0  0  0  0  0  0  0
    7.8010   -1.6830    0.0000 H   0  0  0  0  0  0  0  0  0  0  0  0
    8.4401    4.5900    0.0000 H   0  0  0  0  0  0  0  0  0  0  0  0
    8.6671    5.4370    0.0000 H   0  0  0  0  0  0  0  0  0  0  0  0
    7.8201    5.6639    0.0000 H   0  0  0  0  0  0  0  0  0  0  0  0
    7.3010    5.8030    0.0000 H   0  0  0  0  0  0  0  0  0  0  0  0
    6.4541    6.0300    0.0000 H   0  0  0  0  0  0  0  0  0  0  0  0
    6.2272    5.1830    0.0000 H   0  0  0  0  0  0  0  0  0  0  0  0
    7.2272    3.4510    0.0000 H   0  0  0  0  0  0  0  0  0  0  0  0
    8.0741    3.2240    0.0000 H   0  0  0  0  0  0  0  0  0  0  0  0
    8.3010    4.0710    0.0000 H   0  0  0  0  0  0  0  0  0  0  0  0
    6.3981   -3.4930    0.0000 H   0  0  0  0  0  0  0  0  0  0  0  0
    9.8622    0.7470    0.0000 H   0  0  0  0  0  0  0  0  0  0  0  0
    8.4592   -1.6830    0.0000 H   0  0  0  0  0  0  0  0  0  0  0  0
    7.8747   -3.4807    0.0000 H   0  0  0  0  0  0  0  0  0  0  0  0
    7.4762   -2.7904    0.0000 H   0  0  0  0  0  0  0  0  0  0  0  0
   11.2651   -0.0630    0.0000 H   0  0  0  0  0  0  0  0  0  0  0  0
    9.8622   -2.4930    0.0000 H   0  0  0  0  0  0  0  0  0  0  0  0
    5.5321   -3.9930    0.0000 H   0  0  0  0  0  0  0  0  0  0  0  0
   11.2651   -1.6830    0.0000 H   0  0  0  0  0  0  0  0  0  0  0  0
    8.1301   -5.4930    0.0000 H   0  0  0  0  0  0  0  0  0  0  0  0
    8.6671   -4.5630    0.0000 H   0  0  0  0  0  0  0  0  0  0  0  0
    2.9340   -2.2530    0.0000 H   0  0  0  0  0  0  0  0  0  0  0  0
    4.3369   -4.6830    0.0000 H   0  0  0  0  0  0  0  0  0  0  0  0
    1.5310   -3.0630    0.0000 H   0  0  0  0  0  0  0  0  0  0  0  0
    2.9340   -5.4930    0.0000 H   0  0  0  0  0  0  0  0  0  0  0  0
    1.5310   -4.6830    0.0000 H   0  0  0  0  0  0  0  0  0  0  0  0
  1 21  2  0  0  0  0
 22  2  1  6  0  0  0
  2 68  1  0  0  0  0
  3 30  2  0  0  0  0
  4 38  2  0  0  0  0
  5 39  2  0  0  0  0
  6 14  1  0  0  0  0
  6 17  1  0  0  0  0
  6 20  1  0  0  0  0
  7 21  1  0  0  0  0
  7 24  1  0  0  0  0
  7 65  1  0  0  0  0
 23  8  1  6  0  0  0
  8 30  1  0  0  0  0
  8 69  1  0  0  0  0
 31  9  1  6  0  0  0
  9 39  1  0  0  0  0
  9 86  1  0  0  0  0
 10 38  1  0  0  0  0
 10 88  1  0  0  0  0
 10 89  1  0  0  0  0
 11 12  1  0  0  0  0
 11 13  1  0  0  0  0
 11 15  1  0  0  0  0
 11 46  1  6  0  0  0
 12 14  1  0  0  0  0
 12 16  1  0  0  0  0
 12 47  1  6  0  0  0
 13 17  1  0  0  0  0
 13 48  1  0  0  0  0
 13 49  1  0  0  0  0
 14 50  1  0  0  0  0
 14 51  1  0  0  0  0
 15 18  1  0  0  0  0
 15 52  1  0  0  0  0
 15 53  1  0  0  0  0
 16 19  1  0  0  0  0
 16 54  1  0  0  0  0
 16 55  1  0  0  0  0
 17 21  1  1  0  0  0
 17 56  1  0  0  0  0
 18 19  1  0  0  0  0
 18 57  1  0  0  0  0
 18 58  1  0  0  0  0
 19 59  1  0  0  0  0
 19 60  1  0  0  0  0
 20 22  1  0  0  0  0
 20 61  1  0  0  0  0
 20 62  1  0  0  0  0
 22 23  1  0  0  0  0
 22 63  1  0  0  0  0
 23 25  1  0  0  0  0
 23 64  1  0  0  0  0
 24 26  1  0  0  0  0
 24 27  1  0  0  0  0
 24 28  1  0  0  0  0
 25 29  1  0  0  0  0
 25 66  1  0  0  0  0
 25 67  1  0  0  0  0
 26 70  1  0  0  0  0
 26 71  1  0  0  0  0
 26 72  1  0  0  0  0
 27 73  1  0  0  0  0
 27 74  1  0  0  0  0
 27 75  1  0  0  0  0
 28 76  1  0  0  0  0
 28 77  1  0  0  0  0
 28 78  1  0  0  0  0
 29 32  2  0  0  0  0
 29 33  1  0  0  0  0
 30 31  1  0  0  0  0
 31 34  1  0  0  0  0
 31 79  1  0  0  0  0
 32 35  1  0  0  0  0
 32 80  1  0  0  0  0
 33 36  2  0  0  0  0
 33 81  1  0  0  0  0
 34 38  1  0  0  0  0
 34 82  1  0  0  0  0
 34 83  1  0  0  0  0
 35 37  2  0  0  0  0
 35 84  1  0  0  0  0
 36 37  1  0  0  0  0
 36 85  1  0  0  0  0
 37 87  1  0  0  0  0
 39 40  1  0  0  0  0
 40 41  2  0  0  0  0
 40 42  1  0  0  0  0
 41 43  1  0  0  0  0
 41 90  1  0  0  0  0
 42 44  2  0  0  0  0
 42 91  1  0  0  0  0
 43 45  2  0  0  0  0
 43 92  1  0  0  0  0
 44 45  1  0  0  0  0
 44 93  1  0  0  0  0
 45 94  1  0  0  0  0
M  END
> <PUBCHEM_COMPOUND_CID>
506890
> <PUBCHEM_COMPOUND_CANONICALIZED>
1
> <PUBCHEM_CACTVS_COMPLEXITY>
1000
> <PUBCHEM_CACTVS_HBOND_ACCEPTOR>
6
> <PUBCHEM_CACTVS_HBOND_DONOR>
5
> <PUBCHEM_CACTVS_ROTATABLE_BOND>
13
> <PUBCHEM_CACTVS_SUBSKEYS>
AAADcfB/uAAAAAAAAAAAAAAAAAAAAAAAAAA8YMEAAAAAAACxQAAAHgAQCAAADbzhmAYyAIPAAgCIAiFSEACCAAAkAAAIiIGIBMgKcDqA1TGUYQhklgCYiYedyKCOgAAAAAAAAAAAAAAAACAAAAAAAAAAAA==
> <PUBCHEM_IUPAC_OPENEYE_NAME>
(2S)-N-[(1S,2R)-3-[(3S,4aS,8aS)-3-(tert-butylcarbamoyl)-3,4,4a,5,6,7,8,8a-octahydro-1H-isoquinolin-2-yl]-1-benzyl-2-hydroxy-propyl]-2-benzamido-butanediamide
> <PUBCHEM_IUPAC_CAS_NAME>
(2S)-N-[(2S,3R)-4-[(3S,4aS,8aS)-3-[(tert-butylamino)-oxomethyl]-3,4,4a,5,6,7,8,8a-octahydro-1H-isoquinolin-2-yl]-3-hydroxy-1-phenylbutan-2-yl]-2-benzamidobutanediamide
> <PUBCHEM_IUPAC_NAME_MARKUP>
(2<I>S</I>)-<I>N</I>-[(2<I>S</I>,3<I>R</I>)-4-[(3<I>S</I>,4<I>a</I><I>S</I>,8<I>a</I><I>S</I>)-3-(<I>tert</I>-butylcarbamoyl)-3,4,4<I>a</I>,5,6,7,8,8<I>a</I>-octahydro-1<I>H</I>-isoquinolin-2-yl]-3-hydroxy-1-phenylbutan-2-yl]-2-benzamidobutanediamide
> <PUBCHEM_IUPAC_NAME>
(2S)-N-[(2S,3R)-4-[(3S,4aS,8aS)-3-(tert-butylcarbamoyl)-3,4,4a,5,6,7,8,8a-octahydro-1H-isoquinolin-2-yl]-3-hydroxy-1-phenylbutan-2-yl]-2-benzamidobutanediamide
> <PUBCHEM_IUPAC_SYSTEMATIC_NAME>
(2S)-N-[(2S,3R)-4-[(3S,4aS,8aS)-3-(tert-butylcarbamoyl)-3,4,4a,5,6,7,8,8a-octahydro-1H-isoquinolin-2-yl]-3-oxidanyl-1-phenyl-butan-2-yl]-2-benzamido-butanediamide
> <PUBCHEM_IUPAC_TRADITIONAL_NAME>
(2S)-N-[(1S,2R)-3-[(3S,4aS,8aS)-3-(tert-butylcarbamoyl)-3,4,4a,5,6,7,8,8a-octahydro-1H-isoquinolin-2-yl]-1-benzyl-2-hydroxy-propyl]-2-benzamido-succinamide
> <PUBCHEM_IUPAC_INCHI>
InChI=1S/C35H49N5O5/c1-35(2,3)39-34(45)29-19-25-16-10-11-17-26(25)21-40(29)22-30(41)27(18-23-12-6-4-7-13-23)37-33(44)28(20-31(36)42)38-32(43)24-14-8-5-9-15-24/h4-9,12-15,25-30,41H,10-11,16-22H2,1-3H3,(H2,36,42)(H,37,44)(H,38,43)(H,39,45)/t25-,26+,27-,28-,29-,30+/m0/s1
> <PUBCHEM_IUPAC_INCHIKEY>
WFOSOFHTZHIUNJ-FSIJYMTBSA-N
> <PUBCHEM_XLOGP3_AA>
3.6
> <PUBCHEM_EXACT_MASS>
619.37336968
> <PUBCHEM_MOLECULAR_FORMULA>
C35H49N5O5
> <PUBCHEM_MOLECULAR_WEIGHT>
619.8
> <PUBCHEM_OPENEYE_CAN_SMILES>
CC(C)(C)NC(=O)C1CC2CCCCC2CN1CC(C(CC3=CC=CC=C3)NC(=O)C(CC(=O)N)NC(=O)C4=CC=CC=C4)O
> <PUBCHEM_OPENEYE_ISO_SMILES>
CC(C)(C)NC(=O)[C@@H]1C[C@@H]2CCCC[C@@H]2CN1C[C@H]([C@H](CC3=CC=CC=C3)NC(=O)[C@H](CC(=O)N)NC(=O)C4=CC=CC=C4)O
> <PUBCHEM_CACTVS_TPSA>
154
> <PUBCHEM_MONOISOTOPIC_WEIGHT>
619.37336968
> <PUBCHEM_TOTAL_CHARGE>
0
> <PUBCHEM_HEAVY_ATOM_COUNT>
45
> <PUBCHEM_ATOM_DEF_STEREO_COUNT>
6
> <PUBCHEM_ATOM_UDEF_STEREO_COUNT>
0
> <PUBCHEM_BOND_DEF_STEREO_COUNT>
0
> <PUBCHEM_BOND_UDEF_STEREO_COUNT>
0
> <PUBCHEM_ISOTOPIC_ATOM_COUNT>
0
> <PUBCHEM_COMPONENT_COUNT>
1
> <PUBCHEM_CACTVS_TAUTO_COUNT>
-1
> <PUBCHEM_COORDINATE_TYPE>
1
5
255
> <PUBCHEM_BONDANNOTATIONS>
11  46  6
12  47  6
17  21  5
22  2  6
29  32  8
29  33  8
32  35  8
33  36  8
35  37  8
36  37  8
40  41  8
40  42  8
41  43  8
42  44  8
43  45  8
44  45  8
23  8  6
31  9  6
$$$$
