506803
  -OEChem-10302200282D
 78 81  0     1  0  0  0  0  0999 V2000
    9.0146   -2.7291    0.0000 O   0  0  0  0  0  0  0  0  0  0  0  0
    5.5714    1.0028    0.0000 O   0  0  0  0  0  0  0  0  0  0  0  0
    9.8806    0.7709    0.0000 O   0  0  0  0  0  0  0  0  0  0  0  0
    9.7382    2.1255    0.0000 O   0  0  0  0  0  0  0  0  0  0  0  0
    9.8576    5.7291    0.0000 O   0  0  0  0  0  0  0  0  0  0  0  0
    9.8806   -1.2291    0.0000 N   0  0  0  0  0  0  0  0  0  0  0  0
    8.1486    0.7709    0.0000 N   0  0  0  0  0  0  0  0  0  0  0  0
    8.5792    3.4127    0.0000 N   0  0  0  0  0  0  0  0  0  0  0  0
   10.7466   -2.7291    0.0000 C   0  0  0  0  0  0  0  0  0  0  0  0
   11.2466   -1.8631    0.0000 C   0  0  0  0  0  0  0  0  0  0  0  0
   11.7466   -2.7291    0.0000 C   0  0  0  0  0  0  0  0  0  0  0  0
   10.7466   -3.7291    0.0000 C   0  0  0  0  0  0  0  0  0  0  0  0
    9.8806   -2.2291    0.0000 C   0  0  0  0  0  0  0  0  0  0  0  0
    9.0146   -0.7291    0.0000 C   0  0  2  0  0  0  0  0  0  0  0  0
    8.0440    1.7654    0.0000 C   0  0  1  0  0  0  0  0  0  0  0  0
    6.5659    1.1073    0.0000 C   0  0  2  0  0  0  0  0  0  0  0  0
    7.0659    1.9733    0.0000 C   0  0  0  0  0  0  0  0  0  0  0  0
    7.2350    0.3642    0.0000 C   0  0  0  0  0  0  0  0  0  0  0  0
   11.6127   -4.2291    0.0000 C   0  0  0  0  0  0  0  0  0  0  0  0
    9.8806   -4.2291    0.0000 C   0  0  0  0  0  0  0  0  0  0  0  0
    9.0146    0.2709    0.0000 C   0  0  0  0  0  0  0  0  0  0  0  0
    8.1486   -1.2291    0.0000 C   0  0  0  0  0  0  0  0  0  0  0  0
    8.7872    2.4346    0.0000 C   0  0  0  0  0  0  0  0  0  0  0  0
   11.6127   -5.2291    0.0000 C   0  0  0  0  0  0  0  0  0  0  0  0
    9.8806   -5.2291    0.0000 C   0  0  0  0  0  0  0  0  0  0  0  0
    7.2825   -0.7291    0.0000 C   0  0  0  0  0  0  0  0  0  0  0  0
    8.1486   -2.2291    0.0000 C   0  0  0  0  0  0  0  0  0  0  0  0
   10.7466   -5.7291    0.0000 C   0  0  0  0  0  0  0  0  0  0  0  0
    4.9836    1.8118    0.0000 C   0  0  0  0  0  0  0  0  0  0  0  0
    9.3224    4.0818    0.0000 C   0  0  1  0  0  0  0  0  0  0  0  0
    3.9890    1.7073    0.0000 C   0  0  0  0  0  0  0  0  0  0  0  0
   10.2735    3.7728    0.0000 C   0  0  0  0  0  0  0  0  0  0  0  0
    9.1145    5.0600    0.0000 C   0  0  0  0  0  0  0  0  0  0  0  0
   11.0166    4.4419    0.0000 C   0  0  0  0  0  0  0  0  0  0  0  0
    3.5823    0.7937    0.0000 C   0  0  0  0  0  0  0  0  0  0  0  0
    3.4013    2.5163    0.0000 C   0  0  0  0  0  0  0  0  0  0  0  0
    2.5878    0.6892    0.0000 C   0  0  0  0  0  0  0  0  0  0  0  0
    2.4067    2.4118    0.0000 C   0  0  0  0  0  0  0  0  0  0  0  0
    2.0000    1.4982    0.0000 C   0  0  0  0  0  0  0  0  0  0  0  0
   11.7216   -1.4646    0.0000 H   0  0  0  0  0  0  0  0  0  0  0  0
   10.7717   -1.4646    0.0000 H   0  0  0  0  0  0  0  0  0  0  0  0
   11.8543   -3.3397    0.0000 H   0  0  0  0  0  0  0  0  0  0  0  0
   12.3292   -2.5170    0.0000 H   0  0  0  0  0  0  0  0  0  0  0  0
    9.5515   -0.4191    0.0000 H   0  0  0  0  0  0  0  0  0  0  0  0
   10.4175   -0.9191    0.0000 H   0  0  0  0  0  0  0  0  0  0  0  0
    8.6228    1.5432    0.0000 H   0  0  0  0  0  0  0  0  0  0  0  0
    6.3437    0.5285    0.0000 H   0  0  0  0  0  0  0  0  0  0  0  0
    7.2575    2.5630    0.0000 H   0  0  0  0  0  0  0  0  0  0  0  0
    6.4995    2.2255    0.0000 H   0  0  0  0  0  0  0  0  0  0  0  0
    6.7334   -0.0003    0.0000 H   0  0  0  0  0  0  0  0  0  0  0  0
    7.5450   -0.1728    0.0000 H   0  0  0  0  0  0  0  0  0  0  0  0
   12.1496   -3.9191    0.0000 H   0  0  0  0  0  0  0  0  0  0  0  0
    9.3437   -3.9191    0.0000 H   0  0  0  0  0  0  0  0  0  0  0  0
    8.6855   -1.5391    0.0000 H   0  0  0  0  0  0  0  0  0  0  0  0
   12.1496   -5.5391    0.0000 H   0  0  0  0  0  0  0  0  0  0  0  0
    9.3437   -5.5391    0.0000 H   0  0  0  0  0  0  0  0  0  0  0  0
    7.5925   -0.1922    0.0000 H   0  0  0  0  0  0  0  0  0  0  0  0
    6.7456   -0.4191    0.0000 H   0  0  0  0  0  0  0  0  0  0  0  0
    6.9725   -1.2660    0.0000 H   0  0  0  0  0  0  0  0  0  0  0  0
    7.5286   -2.2291    0.0000 H   0  0  0  0  0  0  0  0  0  0  0  0
    8.1486   -2.8491    0.0000 H   0  0  0  0  0  0  0  0  0  0  0  0
    8.7686   -2.2291    0.0000 H   0  0  0  0  0  0  0  0  0  0  0  0
   10.7466   -6.3491    0.0000 H   0  0  0  0  0  0  0  0  0  0  0  0
    7.9896    3.6043    0.0000 H   0  0  0  0  0  0  0  0  0  0  0  0
    5.5408    2.0836    0.0000 H   0  0  0  0  0  0  0  0  0  0  0  0
    4.8127    2.4078    0.0000 H   0  0  0  0  0  0  0  0  0  0  0  0
    9.4513    3.4754    0.0000 H   0  0  0  0  0  0  0  0  0  0  0  0
    9.9824    3.2254    0.0000 H   0  0  0  0  0  0  0  0  0  0  0  0
   10.7620    3.3911    0.0000 H   0  0  0  0  0  0  0  0  0  0  0  0
    8.5248    5.2516    0.0000 H   0  0  0  0  0  0  0  0  0  0  0  0
   11.4315    3.9812    0.0000 H   0  0  0  0  0  0  0  0  0  0  0  0
   11.4773    4.8568    0.0000 H   0  0  0  0  0  0  0  0  0  0  0  0
   10.6017    4.9027    0.0000 H   0  0  0  0  0  0  0  0  0  0  0  0
    3.9467    0.2921    0.0000 H   0  0  0  0  0  0  0  0  0  0  0  0
    3.6534    3.0827    0.0000 H   0  0  0  0  0  0  0  0  0  0  0  0
    2.3356    0.1228    0.0000 H   0  0  0  0  0  0  0  0  0  0  0  0
    2.0423    2.9133    0.0000 H   0  0  0  0  0  0  0  0  0  0  0  0
    1.3834    1.4334    0.0000 H   0  0  0  0  0  0  0  0  0  0  0  0
  1 13  2  0  0  0  0
 16  2  1  6  0  0  0
  2 29  1  0  0  0  0
  3 21  2  0  0  0  0
  4 23  2  0  0  0  0
  5 33  2  0  0  0  0
  6 13  1  0  0  0  0
 14  6  1  1  0  0  0
  6 45  1  0  0  0  0
  7 15  1  0  0  0  0
  7 18  1  0  0  0  0
  7 21  1  0  0  0  0
  8 23  1  0  0  0  0
 30  8  1  6  0  0  0
  8 64  1  0  0  0  0
  9 10  1  0  0  0  0
  9 11  1  0  0  0  0
  9 12  1  0  0  0  0
  9 13  1  0  0  0  0
 10 11  1  0  0  0  0
 10 40  1  0  0  0  0
 10 41  1  0  0  0  0
 11 42  1  0  0  0  0
 11 43  1  0  0  0  0
 12 19  2  0  0  0  0
 12 20  1  0  0  0  0
 14 21  1  0  0  0  0
 14 22  1  0  0  0  0
 14 44  1  0  0  0  0
 15 17  1  0  0  0  0
 15 23  1  1  0  0  0
 15 46  1  0  0  0  0
 16 17  1  0  0  0  0
 16 18  1  0  0  0  0
 16 47  1  0  0  0  0
 17 48  1  0  0  0  0
 17 49  1  0  0  0  0
 18 50  1  0  0  0  0
 18 51  1  0  0  0  0
 19 24  1  0  0  0  0
 19 52  1  0  0  0  0
 20 25  2  0  0  0  0
 20 53  1  0  0  0  0
 22 26  1  0  0  0  0
 22 27  1  0  0  0  0
 22 54  1  0  0  0  0
 24 28  2  0  0  0  0
 24 55  1  0  0  0  0
 25 28  1  0  0  0  0
 25 56  1  0  0  0  0
 26 57  1  0  0  0  0
 26 58  1  0  0  0  0
 26 59  1  0  0  0  0
 27 60  1  0  0  0  0
 27 61  1  0  0  0  0
 27 62  1  0  0  0  0
 28 63  1  0  0  0  0
 29 31  1  0  0  0  0
 29 65  1  0  0  0  0
 29 66  1  0  0  0  0
 30 32  1  0  0  0  0
 30 33  1  0  0  0  0
 30 67  1  0  0  0  0
 31 35  2  0  0  0  0
 31 36  1  0  0  0  0
 32 34  1  0  0  0  0
 32 68  1  0  0  0  0
 32 69  1  0  0  0  0
 33 70  1  0  0  0  0
 34 71  1  0  0  0  0
 34 72  1  0  0  0  0
 34 73  1  0  0  0  0
 35 37  1  0  0  0  0
 35 74  1  0  0  0  0
 36 38  2  0  0  0  0
 36 75  1  0  0  0  0
 37 39  2  0  0  0  0
 37 76  1  0  0  0  0
 38 39  1  0  0  0  0
 38 77  1  0  0  0  0
 39 78  1  0  0  0  0
M  END
> <PUBCHEM_COMPOUND_CID>
506803
> <PUBCHEM_COMPOUND_CANONICALIZED>
1
> <PUBCHEM_CACTVS_COMPLEXITY>
860
> <PUBCHEM_CACTVS_HBOND_ACCEPTOR>
5
> <PUBCHEM_CACTVS_HBOND_DONOR>
2
> <PUBCHEM_CACTVS_ROTATABLE_BOND>
12
> <PUBCHEM_CACTVS_SUBSKEYS>
AAADcfB7OAAAAAAAAAAAAAAAGAAAAWAAAAAwYAAAAAAAAAABQAAAHgAQAAAADzzhmAYyAIPABACIAilSkAACAAAgAAAIiIGICIgKZjKAtTmXMAAm1gGYqAe6yeCPgAAAAAAAAAAAAAAAAAAAAAAAAAAAAA==
> <PUBCHEM_IUPAC_OPENEYE_NAME>
(2S,4R)-4-benzyloxy-N-[(1S)-1-formylpropyl]-1-[(2S)-3-methyl-2-[(1-phenylcyclopropanecarbonyl)amino]butanoyl]pyrrolidine-2-carboxamide
> <PUBCHEM_IUPAC_CAS_NAME>
(2S,4R)-1-[(2S)-3-methyl-1-oxo-2-[[oxo-(1-phenylcyclopropyl)methyl]amino]butyl]-N-[(2S)-1-oxobutan-2-yl]-4-phenylmethoxy-2-pyrrolidinecarboxamide
> <PUBCHEM_IUPAC_NAME_MARKUP>
(2<I>S</I>,4<I>R</I>)-1-[(2<I>S</I>)-3-methyl-2-[(1-phenylcyclopropanecarbonyl)amino]butanoyl]-<I>N</I>-[(2<I>S</I>)-1-oxobutan-2-yl]-4-phenylmethoxypyrrolidine-2-carboxamide
> <PUBCHEM_IUPAC_NAME>
(2S,4R)-1-[(2S)-3-methyl-2-[(1-phenylcyclopropanecarbonyl)amino]butanoyl]-N-[(2S)-1-oxobutan-2-yl]-4-phenylmethoxypyrrolidine-2-carboxamide
> <PUBCHEM_IUPAC_SYSTEMATIC_NAME>
(2S,4R)-1-[(2S)-3-methyl-2-[(1-phenylcyclopropyl)carbonylamino]butanoyl]-N-[(2S)-1-oxidanylidenebutan-2-yl]-4-phenylmethoxy-pyrrolidine-2-carboxamide
> <PUBCHEM_IUPAC_TRADITIONAL_NAME>
(2S,4R)-4-benzoxy-N-[(1S)-1-formylpropyl]-1-[(2S)-3-methyl-2-[(1-phenylcyclopropanecarbonyl)amino]butanoyl]pyrrolidine-2-carboxamide
> <PUBCHEM_IUPAC_INCHI>
InChI=1S/C31H39N3O5/c1-4-24(19-35)32-28(36)26-17-25(39-20-22-11-7-5-8-12-22)18-34(26)29(37)27(21(2)3)33-30(38)31(15-16-31)23-13-9-6-10-14-23/h5-14,19,21,24-27H,4,15-18,20H2,1-3H3,(H,32,36)(H,33,38)/t24-,25+,26-,27-/m0/s1
> <PUBCHEM_IUPAC_INCHIKEY>
ZFHHCZTZEMFUOV-XUJYPJAKSA-N
> <PUBCHEM_XLOGP3_AA>
3.8
> <PUBCHEM_EXACT_MASS>
533.28897135
> <PUBCHEM_MOLECULAR_FORMULA>
C31H39N3O5
> <PUBCHEM_MOLECULAR_WEIGHT>
533.7
> <PUBCHEM_OPENEYE_CAN_SMILES>
CCC(C=O)NC(=O)C1CC(CN1C(=O)C(C(C)C)NC(=O)C2(CC2)C3=CC=CC=C3)OCC4=CC=CC=C4
> <PUBCHEM_OPENEYE_ISO_SMILES>
CC[C@@H](C=O)NC(=O)[C@@H]1C[C@H](CN1C(=O)[C@H](C(C)C)NC(=O)C2(CC2)C3=CC=CC=C3)OCC4=CC=CC=C4
> <PUBCHEM_CACTVS_TPSA>
105
> <PUBCHEM_MONOISOTOPIC_WEIGHT>
533.28897135
> <PUBCHEM_TOTAL_CHARGE>
0
> <PUBCHEM_HEAVY_ATOM_COUNT>
39
> <PUBCHEM_ATOM_DEF_STEREO_COUNT>
4
> <PUBCHEM_ATOM_UDEF_STEREO_COUNT>
0
> <PUBCHEM_BOND_DEF_STEREO_COUNT>
0
> <PUBCHEM_BOND_UDEF_STEREO_COUNT>
0
> <PUBCHEM_ISOTOPIC_ATOM_COUNT>
0
> <PUBCHEM_COMPONENT_COUNT>
1
> <PUBCHEM_CACTVS_TAUTO_COUNT>
-1
> <PUBCHEM_COORDINATE_TYPE>
1
5
255
> <PUBCHEM_BONDANNOTATIONS>
12  19  8
12  20  8
15  23  5
19  24  8
16  2  6
20  25  8
24  28  8
25  28  8
31  35  8
31  36  8
35  37  8
36  38  8
37  39  8
38  39  8
14  6  5
30  8  6
$$$$
