506800
  -OEChem-10302200282D
 75 78  0     1  0  0  0  0  0999 V2000
    7.2627    2.2178    0.0000 O   0  0  0  0  0  0  0  0  0  0  0  0
    7.9244   -2.0466    0.0000 O   0  0  0  0  0  0  0  0  0  0  0  0
    9.2206   -1.6280    0.0000 O   0  0  0  0  0  0  0  0  0  0  0  0
    4.3211   -1.9210    0.0000 O   0  0  0  0  0  0  0  0  0  0  0  0
   12.7714   -1.0017    0.0000 O   0  0  0  0  0  0  0  0  0  0  0  0
    7.5673   -0.3518    0.0000 N   0  0  0  0  0  0  0  0  0  0  0  0
   10.2411   -0.2285    0.0000 N   0  0  0  0  0  0  0  0  0  0  0  0
    5.9674   -2.4590    0.0000 N   0  0  0  0  0  0  0  0  0  0  0  0
    4.6783   -5.2253    0.0000 N   0  0  0  0  0  0  0  0  0  0  0  0
    8.5189   -0.0444    0.0000 C   0  0  1  0  0  0  0  0  0  0  0  0
    7.5701    1.2662    0.0000 C   0  0  2  0  0  0  0  0  0  0  0  0
    8.5206    0.9556    0.0000 C   0  0  0  0  0  0  0  0  0  0  0  0
    6.9809    0.4582    0.0000 C   0  0  0  0  0  0  0  0  0  0  0  0
    7.2566   -1.3023    0.0000 C   0  0  0  0  0  0  0  0  0  0  0  0
    6.2781   -1.5085    0.0000 C   0  0  2  0  0  0  0  0  0  0  0  0
    9.3269   -0.6336    0.0000 C   0  0  0  0  0  0  0  0  0  0  0  0
    5.6103   -0.7642    0.0000 C   0  0  0  0  0  0  0  0  0  0  0  0
    7.9331    2.9598    0.0000 C   0  0  0  0  0  0  0  0  0  0  0  0
    4.6318   -0.9705    0.0000 C   0  0  0  0  0  0  0  0  0  0  0  0
    5.9209    0.1863    0.0000 C   0  0  0  0  0  0  0  0  0  0  0  0
   11.0491   -0.8176    0.0000 C   0  0  1  0  0  0  0  0  0  0  0  0
    4.9889   -2.6653    0.0000 C   0  0  0  0  0  0  0  0  0  0  0  0
    7.6257    3.9114    0.0000 C   0  0  0  0  0  0  0  0  0  0  0  0
   10.9429   -1.8120    0.0000 C   0  0  0  0  0  0  0  0  0  0  0  0
    4.6783   -3.6158    0.0000 C   0  0  0  0  0  0  0  0  0  0  0  0
   11.9634   -0.4125    0.0000 C   0  0  0  0  0  0  0  0  0  0  0  0
   11.7509   -2.4012    0.0000 C   0  0  0  0  0  0  0  0  0  0  0  0
    6.6480    4.1210    0.0000 C   0  0  0  0  0  0  0  0  0  0  0  0
    8.2962    4.6534    0.0000 C   0  0  0  0  0  0  0  0  0  0  0  0
    3.7320   -3.9205    0.0000 C   0  0  0  0  0  0  0  0  0  0  0  0
    5.2619   -4.4205    0.0000 C   0  0  0  0  0  0  0  0  0  0  0  0
    3.7320   -4.9205    0.0000 C   0  0  0  0  0  0  0  0  0  0  0  0
    6.3406    5.0726    0.0000 C   0  0  0  0  0  0  0  0  0  0  0  0
    7.9888    5.6050    0.0000 C   0  0  0  0  0  0  0  0  0  0  0  0
    2.8660   -3.4205    0.0000 C   0  0  0  0  0  0  0  0  0  0  0  0
    7.0110    5.8146    0.0000 C   0  0  0  0  0  0  0  0  0  0  0  0
    2.8660   -5.4205    0.0000 C   0  0  0  0  0  0  0  0  0  0  0  0
    2.0000   -3.9205    0.0000 C   0  0  0  0  0  0  0  0  0  0  0  0
    2.0000   -4.9205    0.0000 C   0  0  0  0  0  0  0  0  0  0  0  0
    8.4208   -0.6566    0.0000 H   0  0  0  0  0  0  0  0  0  0  0  0
    6.9579    1.3643    0.0000 H   0  0  0  0  0  0  0  0  0  0  0  0
    9.1371    0.8897    0.0000 H   0  0  0  0  0  0  0  0  0  0  0  0
    8.6505    1.5618    0.0000 H   0  0  0  0  0  0  0  0  0  0  0  0
    6.5208    0.8739    0.0000 H   0  0  0  0  0  0  0  0  0  0  0  0
    6.5194    0.0442    0.0000 H   0  0  0  0  0  0  0  0  0  0  0  0
    5.6714   -1.6364    0.0000 H   0  0  0  0  0  0  0  0  0  0  0  0
    6.2169   -0.6364    0.0000 H   0  0  0  0  0  0  0  0  0  0  0  0
   10.3070    0.3880    0.0000 H   0  0  0  0  0  0  0  0  0  0  0  0
    6.3815   -2.9205    0.0000 H   0  0  0  0  0  0  0  0  0  0  0  0
    8.3140    2.4706    0.0000 H   0  0  0  0  0  0  0  0  0  0  0  0
    8.4810    3.2499    0.0000 H   0  0  0  0  0  0  0  0  0  0  0  0
    4.5039   -0.3638    0.0000 H   0  0  0  0  0  0  0  0  0  0  0  0
    4.0251   -1.0983    0.0000 H   0  0  0  0  0  0  0  0  0  0  0  0
    4.7596   -1.5771    0.0000 H   0  0  0  0  0  0  0  0  0  0  0  0
    6.5102   -0.0063    0.0000 H   0  0  0  0  0  0  0  0  0  0  0  0
    6.1135    0.7756    0.0000 H   0  0  0  0  0  0  0  0  0  0  0  0
    5.3316    0.3789    0.0000 H   0  0  0  0  0  0  0  0  0  0  0  0
   11.1150   -0.2011    0.0000 H   0  0  0  0  0  0  0  0  0  0  0  0
   10.3472   -1.6400    0.0000 H   0  0  0  0  0  0  0  0  0  0  0  0
   10.6701   -2.3688    0.0000 H   0  0  0  0  0  0  0  0  0  0  0  0
   12.0292    0.2040    0.0000 H   0  0  0  0  0  0  0  0  0  0  0  0
   11.3856   -2.9021    0.0000 H   0  0  0  0  0  0  0  0  0  0  0  0
   12.2518   -2.7665    0.0000 H   0  0  0  0  0  0  0  0  0  0  0  0
   12.1161   -1.9002    0.0000 H   0  0  0  0  0  0  0  0  0  0  0  0
    6.2323    3.6610    0.0000 H   0  0  0  0  0  0  0  0  0  0  0  0
    8.9024    4.5234    0.0000 H   0  0  0  0  0  0  0  0  0  0  0  0
    5.8819   -4.4205    0.0000 H   0  0  0  0  0  0  0  0  0  0  0  0
    4.8709   -5.8146    0.0000 H   0  0  0  0  0  0  0  0  0  0  0  0
    5.7344    5.2025    0.0000 H   0  0  0  0  0  0  0  0  0  0  0  0
    8.4044    6.0650    0.0000 H   0  0  0  0  0  0  0  0  0  0  0  0
    2.8660   -2.8005    0.0000 H   0  0  0  0  0  0  0  0  0  0  0  0
    6.8204    6.4046    0.0000 H   0  0  0  0  0  0  0  0  0  0  0  0
    2.8660   -6.0405    0.0000 H   0  0  0  0  0  0  0  0  0  0  0  0
    1.4631   -3.6105    0.0000 H   0  0  0  0  0  0  0  0  0  0  0  0
    1.4631   -5.2305    0.0000 H   0  0  0  0  0  0  0  0  0  0  0  0
 11  1  1  6  0  0  0
  1 18  1  0  0  0  0
  2 14  2  0  0  0  0
  3 16  2  0  0  0  0
  4 22  2  0  0  0  0
  5 26  2  0  0  0  0
  6 10  1  0  0  0  0
  6 13  1  0  0  0  0
  6 14  1  0  0  0  0
  7 16  1  0  0  0  0
 21  7  1  6  0  0  0
  7 48  1  0  0  0  0
 15  8  1  1  0  0  0
  8 22  1  0  0  0  0
  8 49  1  0  0  0  0
  9 31  1  0  0  0  0
  9 32  1  0  0  0  0
  9 68  1  0  0  0  0
 10 12  1  0  0  0  0
 10 16  1  1  0  0  0
 10 40  1  0  0  0  0
 11 12  1  0  0  0  0
 11 13  1  0  0  0  0
 11 41  1  0  0  0  0
 12 42  1  0  0  0  0
 12 43  1  0  0  0  0
 13 44  1  0  0  0  0
 13 45  1  0  0  0  0
 14 15  1  0  0  0  0
 15 17  1  0  0  0  0
 15 46  1  0  0  0  0
 17 19  1  0  0  0  0
 17 20  1  0  0  0  0
 17 47  1  0  0  0  0
 18 23  1  0  0  0  0
 18 50  1  0  0  0  0
 18 51  1  0  0  0  0
 19 52  1  0  0  0  0
 19 53  1  0  0  0  0
 19 54  1  0  0  0  0
 20 55  1  0  0  0  0
 20 56  1  0  0  0  0
 20 57  1  0  0  0  0
 21 24  1  0  0  0  0
 21 26  1  0  0  0  0
 21 58  1  0  0  0  0
 22 25  1  0  0  0  0
 23 28  2  0  0  0  0
 23 29  1  0  0  0  0
 24 27  1  0  0  0  0
 24 59  1  0  0  0  0
 24 60  1  0  0  0  0
 25 30  1  0  0  0  0
 25 31  2  0  0  0  0
 26 61  1  0  0  0  0
 27 62  1  0  0  0  0
 27 63  1  0  0  0  0
 27 64  1  0  0  0  0
 28 33  1  0  0  0  0
 28 65  1  0  0  0  0
 29 34  2  0  0  0  0
 29 66  1  0  0  0  0
 30 32  1  0  0  0  0
 30 35  2  0  0  0  0
 31 67  1  0  0  0  0
 32 37  2  0  0  0  0
 33 36  2  0  0  0  0
 33 69  1  0  0  0  0
 34 36  1  0  0  0  0
 34 70  1  0  0  0  0
 35 38  1  0  0  0  0
 35 71  1  0  0  0  0
 36 72  1  0  0  0  0
 37 39  1  0  0  0  0
 37 73  1  0  0  0  0
 38 39  2  0  0  0  0
 38 74  1  0  0  0  0
 39 75  1  0  0  0  0
M  END
> <PUBCHEM_COMPOUND_CID>
506800
> <PUBCHEM_COMPOUND_CANONICALIZED>
1
> <PUBCHEM_CACTVS_COMPLEXITY>
860
> <PUBCHEM_CACTVS_HBOND_ACCEPTOR>
5
> <PUBCHEM_CACTVS_HBOND_DONOR>
3
> <PUBCHEM_CACTVS_ROTATABLE_BOND>
11
> <PUBCHEM_CACTVS_SUBSKEYS>
AAADcfB7uAAAAAAAAAAAAAAAAAAAAWLAAAAwYAAAAAAAAFgB9AAAHgAQAAAADTzhngY+wPPJlACoAz131ACCgCA1AiAI2aG4bNgKZvrA9bmXMYhm1gHY6ce+yeCOgAAAAAACAAAAAAAAAAQAAAAAAAAAAA==
> <PUBCHEM_IUPAC_OPENEYE_NAME>
N-[(1S)-1-[(2S,4R)-4-benzyloxy-2-[[(1S)-1-formylpropyl]carbamoyl]pyrrolidine-1-carbonyl]-2-methyl-propyl]-1H-indole-3-carboxamide
> <PUBCHEM_IUPAC_CAS_NAME>
N-[(2S)-3-methyl-1-oxo-1-[(2S,4R)-2-[oxo-[[(2S)-1-oxobutan-2-yl]amino]methyl]-4-phenylmethoxy-1-pyrrolidinyl]butan-2-yl]-1H-indole-3-carboxamide
> <PUBCHEM_IUPAC_NAME_MARKUP>
<I>N</I>-[(2<I>S</I>)-3-methyl-1-oxo-1-[(2<I>S</I>,4<I>R</I>)-2-[[(2<I>S</I>)-1-oxobutan-2-yl]carbamoyl]-4-phenylmethoxypyrrolidin-1-yl]butan-2-yl]-1<I>H</I>-indole-3-carboxamide
> <PUBCHEM_IUPAC_NAME>
N-[(2S)-3-methyl-1-oxo-1-[(2S,4R)-2-[[(2S)-1-oxobutan-2-yl]carbamoyl]-4-phenylmethoxypyrrolidin-1-yl]butan-2-yl]-1H-indole-3-carboxamide
> <PUBCHEM_IUPAC_SYSTEMATIC_NAME>
N-[(2S)-3-methyl-1-oxidanylidene-1-[(2S,4R)-2-[[(2S)-1-oxidanylidenebutan-2-yl]carbamoyl]-4-phenylmethoxy-pyrrolidin-1-yl]butan-2-yl]-1H-indole-3-carboxamide
> <PUBCHEM_IUPAC_TRADITIONAL_NAME>
N-[(1S)-1-[(2S,4R)-4-benzoxy-2-[[(1S)-1-formylpropyl]carbamoyl]pyrrolidine-1-carbonyl]-2-methyl-propyl]-1H-indole-3-carboxamide
> <PUBCHEM_IUPAC_INCHI>
InChI=1S/C30H36N4O5/c1-4-21(17-35)32-29(37)26-14-22(39-18-20-10-6-5-7-11-20)16-34(26)30(38)27(19(2)3)33-28(36)24-15-31-25-13-9-8-12-23(24)25/h5-13,15,17,19,21-22,26-27,31H,4,14,16,18H2,1-3H3,(H,32,37)(H,33,36)/t21-,22+,26-,27-/m0/s1
> <PUBCHEM_IUPAC_INCHIKEY>
CZROKBWTDJVISL-ZKBLBJRCSA-N
> <PUBCHEM_XLOGP3_AA>
3.6
> <PUBCHEM_EXACT_MASS>
532.26857026
> <PUBCHEM_MOLECULAR_FORMULA>
C30H36N4O5
> <PUBCHEM_MOLECULAR_WEIGHT>
532.6
> <PUBCHEM_OPENEYE_CAN_SMILES>
CCC(C=O)NC(=O)C1CC(CN1C(=O)C(C(C)C)NC(=O)C2=CNC3=CC=CC=C32)OCC4=CC=CC=C4
> <PUBCHEM_OPENEYE_ISO_SMILES>
CC[C@@H](C=O)NC(=O)[C@@H]1C[C@H](CN1C(=O)[C@H](C(C)C)NC(=O)C2=CNC3=CC=CC=C32)OCC4=CC=CC=C4
> <PUBCHEM_CACTVS_TPSA>
121
> <PUBCHEM_MONOISOTOPIC_WEIGHT>
532.26857026
> <PUBCHEM_TOTAL_CHARGE>
0
> <PUBCHEM_HEAVY_ATOM_COUNT>
39
> <PUBCHEM_ATOM_DEF_STEREO_COUNT>
4
> <PUBCHEM_ATOM_UDEF_STEREO_COUNT>
0
> <PUBCHEM_BOND_DEF_STEREO_COUNT>
0
> <PUBCHEM_BOND_UDEF_STEREO_COUNT>
0
> <PUBCHEM_ISOTOPIC_ATOM_COUNT>
0
> <PUBCHEM_COMPONENT_COUNT>
1
> <PUBCHEM_CACTVS_TAUTO_COUNT>
-1
> <PUBCHEM_COORDINATE_TYPE>
1
5
255
> <PUBCHEM_BONDANNOTATIONS>
11  1  6
10  16  5
23  28  8
23  29  8
25  30  8
25  31  8
28  33  8
29  34  8
30  32  8
30  35  8
32  37  8
33  36  8
34  36  8
35  38  8
37  39  8
38  39  8
21  7  6
15  8  5
9  31  8
9  32  8
$$$$
