506815
  -OEChem-10302200282D
 75 77  0     1  0  0  0  0  0999 V2000
    4.9132    2.4514    0.0000 O   0  0  0  0  0  0  0  0  0  0  0  0
    6.8671   -1.3965    0.0000 O   0  0  0  0  0  0  0  0  0  0  0  0
    7.9690   -0.5959    0.0000 O   0  0  0  0  0  0  0  0  0  0  0  0
    3.4030   -2.3965    0.0000 O   0  0  0  0  0  0  0  0  0  0  0  0
   11.1495    1.1025    0.0000 O   0  0  0  0  0  0  0  0  0  0  0  0
    2.5369   -3.8965    0.0000 O   0  0  0  0  0  0  0  0  0  0  0  0
    6.0010    0.1035    0.0000 N   0  0  0  0  0  0  0  0  0  0  0  0
    8.5043    1.0514    0.0000 N   0  0  0  0  0  0  0  0  0  0  0  0
    5.1350   -2.3965    0.0000 N   0  0  0  0  0  0  0  0  0  0  0  0
    6.8100    0.6913    0.0000 C   0  0  1  0  0  0  0  0  0  0  0  0
    5.5010    1.6424    0.0000 C   0  0  2  0  0  0  0  0  0  0  0  0
    6.5010    1.6424    0.0000 C   0  0  0  0  0  0  0  0  0  0  0  0
    5.1920    0.6913    0.0000 C   0  0  0  0  0  0  0  0  0  0  0  0
    6.0010   -0.8965    0.0000 C   0  0  0  0  0  0  0  0  0  0  0  0
    5.1350   -1.3965    0.0000 C   0  0  2  0  0  0  0  0  0  0  0  0
    7.7611    0.3823    0.0000 C   0  0  0  0  0  0  0  0  0  0  0  0
    4.2690   -0.8965    0.0000 C   0  0  0  0  0  0  0  0  0  0  0  0
    5.3200    3.3649    0.0000 C   0  0  0  0  0  0  0  0  0  0  0  0
    3.4030   -1.3965    0.0000 C   0  0  0  0  0  0  0  0  0  0  0  0
    4.2690    0.1035    0.0000 C   0  0  0  0  0  0  0  0  0  0  0  0
    9.4553    0.7424    0.0000 C   0  0  1  0  0  0  0  0  0  0  0  0
    4.7322    4.1739    0.0000 C   0  0  0  0  0  0  0  0  0  0  0  0
    9.6632   -0.2358    0.0000 C   0  0  0  0  0  0  0  0  0  0  0  0
    4.2690   -2.8965    0.0000 C   0  0  0  0  0  0  0  0  0  0  0  0
   10.1985    1.4115    0.0000 C   0  0  0  0  0  0  0  0  0  0  0  0
    4.2690   -3.8965    0.0000 C   0  0  0  0  0  0  0  0  0  0  0  0
   10.6143   -0.5448    0.0000 C   0  0  0  0  0  0  0  0  0  0  0  0
    3.7377    4.0694    0.0000 C   0  0  0  0  0  0  0  0  0  0  0  0
    5.1389    5.0875    0.0000 C   0  0  0  0  0  0  0  0  0  0  0  0
    3.4030   -4.3965    0.0000 C   0  0  0  0  0  0  0  0  0  0  0  0
    3.1499    4.8784    0.0000 C   0  0  0  0  0  0  0  0  0  0  0  0
    4.5512    5.8965    0.0000 C   0  0  0  0  0  0  0  0  0  0  0  0
    5.1350   -4.3965    0.0000 C   0  0  0  0  0  0  0  0  0  0  0  0
    3.5566    5.7920    0.0000 C   0  0  0  0  0  0  0  0  0  0  0  0
    3.4030   -5.3965    0.0000 C   0  0  0  0  0  0  0  0  0  0  0  0
    5.1350   -5.3965    0.0000 C   0  0  0  0  0  0  0  0  0  0  0  0
    4.2690   -5.8965    0.0000 C   0  0  0  0  0  0  0  0  0  0  0  0
    2.5369   -5.8965    0.0000 C   0  0  0  0  0  0  0  0  0  0  0  0
    6.9070    0.0789    0.0000 H   0  0  0  0  0  0  0  0  0  0  0  0
    5.7825    2.1948    0.0000 H   0  0  0  0  0  0  0  0  0  0  0  0
    7.1075    1.7713    0.0000 H   0  0  0  0  0  0  0  0  0  0  0  0
    6.4362    2.2590    0.0000 H   0  0  0  0  0  0  0  0  0  0  0  0
    4.6256    0.9435    0.0000 H   0  0  0  0  0  0  0  0  0  0  0  0
    4.8820    0.1544    0.0000 H   0  0  0  0  0  0  0  0  0  0  0  0
    5.6720   -1.7065    0.0000 H   0  0  0  0  0  0  0  0  0  0  0  0
    4.8059   -0.5865    0.0000 H   0  0  0  0  0  0  0  0  0  0  0  0
    8.3753    1.6579    0.0000 H   0  0  0  0  0  0  0  0  0  0  0  0
    5.6720   -2.7065    0.0000 H   0  0  0  0  0  0  0  0  0  0  0  0
    5.8340    3.0182    0.0000 H   0  0  0  0  0  0  0  0  0  0  0  0
    5.7507    3.8109    0.0000 H   0  0  0  0  0  0  0  0  0  0  0  0
    3.0930   -0.8596    0.0000 H   0  0  0  0  0  0  0  0  0  0  0  0
    2.8660   -1.7065    0.0000 H   0  0  0  0  0  0  0  0  0  0  0  0
    3.7130   -1.9334    0.0000 H   0  0  0  0  0  0  0  0  0  0  0  0
    4.8890    0.1035    0.0000 H   0  0  0  0  0  0  0  0  0  0  0  0
    4.2690    0.7235    0.0000 H   0  0  0  0  0  0  0  0  0  0  0  0
    3.6490    0.1035    0.0000 H   0  0  0  0  0  0  0  0  0  0  0  0
    8.9946    0.3275    0.0000 H   0  0  0  0  0  0  0  0  0  0  0  0
    9.0436   -0.2574    0.0000 H   0  0  0  0  0  0  0  0  0  0  0  0
    9.5769   -0.8497    0.0000 H   0  0  0  0  0  0  0  0  0  0  0  0
   10.0696    2.0180    0.0000 H   0  0  0  0  0  0  0  0  0  0  0  0
   10.4227   -1.1344    0.0000 H   0  0  0  0  0  0  0  0  0  0  0  0
   11.2039   -0.7364    0.0000 H   0  0  0  0  0  0  0  0  0  0  0  0
   10.8059    0.0449    0.0000 H   0  0  0  0  0  0  0  0  0  0  0  0
    3.4855    3.5030    0.0000 H   0  0  0  0  0  0  0  0  0  0  0  0
    5.7555    5.1523    0.0000 H   0  0  0  0  0  0  0  0  0  0  0  0
    2.5333    4.8136    0.0000 H   0  0  0  0  0  0  0  0  0  0  0  0
    4.8033    6.4629    0.0000 H   0  0  0  0  0  0  0  0  0  0  0  0
    5.6720   -4.0865    0.0000 H   0  0  0  0  0  0  0  0  0  0  0  0
    3.1922    6.2936    0.0000 H   0  0  0  0  0  0  0  0  0  0  0  0
    5.6720   -5.7065    0.0000 H   0  0  0  0  0  0  0  0  0  0  0  0
    4.2690   -6.5165    0.0000 H   0  0  0  0  0  0  0  0  0  0  0  0
    2.2269   -5.3596    0.0000 H   0  0  0  0  0  0  0  0  0  0  0  0
    2.0000   -6.2065    0.0000 H   0  0  0  0  0  0  0  0  0  0  0  0
    2.8469   -6.4334    0.0000 H   0  0  0  0  0  0  0  0  0  0  0  0
    2.0000   -4.2065    0.0000 H   0  0  0  0  0  0  0  0  0  0  0  0
 11  1  1  6  0  0  0
  1 18  1  0  0  0  0
  2 14  2  0  0  0  0
  3 16  2  0  0  0  0
  4 24  2  0  0  0  0
  5 25  2  0  0  0  0
  6 30  1  0  0  0  0
  6 75  1  0  0  0  0
  7 10  1  0  0  0  0
  7 13  1  0  0  0  0
  7 14  1  0  0  0  0
  8 16  1  0  0  0  0
 21  8  1  6  0  0  0
  8 47  1  0  0  0  0
 15  9  1  1  0  0  0
  9 24  1  0  0  0  0
  9 48  1  0  0  0  0
 10 12  1  0  0  0  0
 10 16  1  1  0  0  0
 10 39  1  0  0  0  0
 11 12  1  0  0  0  0
 11 13  1  0  0  0  0
 11 40  1  0  0  0  0
 12 41  1  0  0  0  0
 12 42  1  0  0  0  0
 13 43  1  0  0  0  0
 13 44  1  0  0  0  0
 14 15  1  0  0  0  0
 15 17  1  0  0  0  0
 15 45  1  0  0  0  0
 17 19  1  0  0  0  0
 17 20  1  0  0  0  0
 17 46  1  0  0  0  0
 18 22  1  0  0  0  0
 18 49  1  0  0  0  0
 18 50  1  0  0  0  0
 19 51  1  0  0  0  0
 19 52  1  0  0  0  0
 19 53  1  0  0  0  0
 20 54  1  0  0  0  0
 20 55  1  0  0  0  0
 20 56  1  0  0  0  0
 21 23  1  0  0  0  0
 21 25  1  0  0  0  0
 21 57  1  0  0  0  0
 22 28  2  0  0  0  0
 22 29  1  0  0  0  0
 23 27  1  0  0  0  0
 23 58  1  0  0  0  0
 23 59  1  0  0  0  0
 24 26  1  0  0  0  0
 25 60  1  0  0  0  0
 26 30  1  0  0  0  0
 26 33  2  0  0  0  0
 27 61  1  0  0  0  0
 27 62  1  0  0  0  0
 27 63  1  0  0  0  0
 28 31  1  0  0  0  0
 28 64  1  0  0  0  0
 29 32  2  0  0  0  0
 29 65  1  0  0  0  0
 30 35  2  0  0  0  0
 31 34  2  0  0  0  0
 31 66  1  0  0  0  0
 32 34  1  0  0  0  0
 32 67  1  0  0  0  0
 33 36  1  0  0  0  0
 33 68  1  0  0  0  0
 34 69  1  0  0  0  0
 35 37  1  0  0  0  0
 35 38  1  0  0  0  0
 36 37  2  0  0  0  0
 36 70  1  0  0  0  0
 37 71  1  0  0  0  0
 38 72  1  0  0  0  0
 38 73  1  0  0  0  0
 38 74  1  0  0  0  0
M  END
> <PUBCHEM_COMPOUND_CID>
506815
> <PUBCHEM_COMPOUND_CANONICALIZED>
1
> <PUBCHEM_CACTVS_COMPLEXITY>
814
> <PUBCHEM_CACTVS_HBOND_ACCEPTOR>
6
> <PUBCHEM_CACTVS_HBOND_DONOR>
3
> <PUBCHEM_CACTVS_ROTATABLE_BOND>
11
> <PUBCHEM_CACTVS_SUBSKEYS>
AAADcfB7OAAAAAAAAAAAAAAAAAAAAWAAAAAwYAAAAAAAAAABQAAAHgAQCAAADTzhmAYyBoPABgCIAilSkACCAAAkIAAIiIGMDMgKZjaCtTuXcUhm9hGYuYe6yWCOAAACAAAIAAAAAAQAABAAAAAAAAAAAA==
> <PUBCHEM_IUPAC_OPENEYE_NAME>
(2S,4R)-4-benzyloxy-N-[(1S)-1-formylpropyl]-1-[(2S)-2-[(2-hydroxy-3-methyl-benzoyl)amino]-3-methyl-butanoyl]pyrrolidine-2-carboxamide
> <PUBCHEM_IUPAC_CAS_NAME>
(2S,4R)-1-[(2S)-2-[[(2-hydroxy-3-methylphenyl)-oxomethyl]amino]-3-methyl-1-oxobutyl]-N-[(2S)-1-oxobutan-2-yl]-4-phenylmethoxy-2-pyrrolidinecarboxamide
> <PUBCHEM_IUPAC_NAME_MARKUP>
(2<I>S</I>,4<I>R</I>)-1-[(2<I>S</I>)-2-[(2-hydroxy-3-methylbenzoyl)amino]-3-methylbutanoyl]-<I>N</I>-[(2<I>S</I>)-1-oxobutan-2-yl]-4-phenylmethoxypyrrolidine-2-carboxamide
> <PUBCHEM_IUPAC_NAME>
(2S,4R)-1-[(2S)-2-[(2-hydroxy-3-methylbenzoyl)amino]-3-methylbutanoyl]-N-[(2S)-1-oxobutan-2-yl]-4-phenylmethoxypyrrolidine-2-carboxamide
> <PUBCHEM_IUPAC_SYSTEMATIC_NAME>
(2S,4R)-1-[(2S)-3-methyl-2-[(3-methyl-2-oxidanyl-phenyl)carbonylamino]butanoyl]-N-[(2S)-1-oxidanylidenebutan-2-yl]-4-phenylmethoxy-pyrrolidine-2-carboxamide
> <PUBCHEM_IUPAC_TRADITIONAL_NAME>
(2S,4R)-4-benzoxy-N-[(1S)-1-formylpropyl]-1-[(2S)-2-[(2-hydroxy-3-methyl-benzoyl)amino]-3-methyl-butanoyl]pyrrolidine-2-carboxamide
> <PUBCHEM_IUPAC_INCHI>
InChI=1S/C29H37N3O6/c1-5-21(16-33)30-28(36)24-14-22(38-17-20-11-7-6-8-12-20)15-32(24)29(37)25(18(2)3)31-27(35)23-13-9-10-19(4)26(23)34/h6-13,16,18,21-22,24-25,34H,5,14-15,17H2,1-4H3,(H,30,36)(H,31,35)/t21-,22+,24-,25-/m0/s1
> <PUBCHEM_IUPAC_INCHIKEY>
RWIFAXYBAJUURV-VRUIKYSZSA-N
> <PUBCHEM_XLOGP3_AA>
4
> <PUBCHEM_EXACT_MASS>
523.26823591
> <PUBCHEM_MOLECULAR_FORMULA>
C29H37N3O6
> <PUBCHEM_MOLECULAR_WEIGHT>
523.6
> <PUBCHEM_OPENEYE_CAN_SMILES>
CCC(C=O)NC(=O)C1CC(CN1C(=O)C(C(C)C)NC(=O)C2=CC=CC(=C2O)C)OCC3=CC=CC=C3
> <PUBCHEM_OPENEYE_ISO_SMILES>
CC[C@@H](C=O)NC(=O)[C@@H]1C[C@H](CN1C(=O)[C@H](C(C)C)NC(=O)C2=CC=CC(=C2O)C)OCC3=CC=CC=C3
> <PUBCHEM_CACTVS_TPSA>
125
> <PUBCHEM_MONOISOTOPIC_WEIGHT>
523.26823591
> <PUBCHEM_TOTAL_CHARGE>
0
> <PUBCHEM_HEAVY_ATOM_COUNT>
38
> <PUBCHEM_ATOM_DEF_STEREO_COUNT>
4
> <PUBCHEM_ATOM_UDEF_STEREO_COUNT>
0
> <PUBCHEM_BOND_DEF_STEREO_COUNT>
0
> <PUBCHEM_BOND_UDEF_STEREO_COUNT>
0
> <PUBCHEM_ISOTOPIC_ATOM_COUNT>
0
> <PUBCHEM_COMPONENT_COUNT>
1
> <PUBCHEM_CACTVS_TAUTO_COUNT>
-1
> <PUBCHEM_COORDINATE_TYPE>
1
5
255
> <PUBCHEM_BONDANNOTATIONS>
11  1  6
10  16  5
22  28  8
22  29  8
26  30  8
26  33  8
28  31  8
29  32  8
30  35  8
31  34  8
32  34  8
33  36  8
35  37  8
36  37  8
21  8  6
15  9  5
$$$$
