506805
  -OEChem-10302200282D
 80 83  0     1  0  0  0  0  0999 V2000
    2.0000   -2.1993    0.0000 Cl  0  0  0  0  0  0  0  0  0  0  0  0
   10.7773   -1.9604    0.0000 O   0  0  0  0  0  0  0  0  0  0  0  0
    7.7216    1.0868    0.0000 O   0  0  0  0  0  0  0  0  0  0  0  0
    8.8235    1.8874    0.0000 O   0  0  0  0  0  0  0  0  0  0  0  0
    5.7000   -1.8987    0.0000 O   0  0  0  0  0  0  0  0  0  0  0  0
   11.4216    4.3874    0.0000 O   0  0  0  0  0  0  0  0  0  0  0  0
    3.2320    0.3395    0.0000 O   0  0  0  0  0  0  0  0  0  0  0  0
    8.8805   -0.2003    0.0000 N   0  0  0  0  0  0  0  0  0  0  0  0
   10.5556    1.8874    0.0000 N   0  0  0  0  0  0  0  0  0  0  0  0
    6.2353   -0.2514    0.0000 N   0  0  0  0  0  0  0  0  0  0  0  0
    2.9230   -0.6115    0.0000 N   0  0  0  0  0  0  0  0  0  0  0  0
    9.6895    0.3875    0.0000 C   0  0  1  0  0  0  0  0  0  0  0  0
   10.1895   -1.1514    0.0000 C   0  0  2  0  0  0  0  0  0  0  0  0
   10.4986   -0.2003    0.0000 C   0  0  0  0  0  0  0  0  0  0  0  0
    9.1895   -1.1514    0.0000 C   0  0  0  0  0  0  0  0  0  0  0  0
    7.9295    0.1087    0.0000 C   0  0  0  0  0  0  0  0  0  0  0  0
    7.1863   -0.5604    0.0000 C   0  0  2  0  0  0  0  0  0  0  0  0
    9.6895    1.3874    0.0000 C   0  0  0  0  0  0  0  0  0  0  0  0
    7.3942   -1.5386    0.0000 C   0  0  0  0  0  0  0  0  0  0  0  0
   11.7719   -1.8559    0.0000 C   0  0  0  0  0  0  0  0  0  0  0  0
    8.3453   -1.8476    0.0000 C   0  0  0  0  0  0  0  0  0  0  0  0
    6.6511   -2.2077    0.0000 C   0  0  0  0  0  0  0  0  0  0  0  0
   10.5556    2.8874    0.0000 C   0  0  1  0  0  0  0  0  0  0  0  0
   12.3596   -2.6649    0.0000 C   0  0  0  0  0  0  0  0  0  0  0  0
    9.6895    3.3874    0.0000 C   0  0  0  0  0  0  0  0  0  0  0  0
    5.4921   -0.9206    0.0000 C   0  0  0  0  0  0  0  0  0  0  0  0
   11.4216    3.3874    0.0000 C   0  0  0  0  0  0  0  0  0  0  0  0
    4.5411   -0.6115    0.0000 C   0  0  0  0  0  0  0  0  0  0  0  0
    9.6895    4.3874    0.0000 C   0  0  0  0  0  0  0  0  0  0  0  0
   11.9529   -3.5784    0.0000 C   0  0  0  0  0  0  0  0  0  0  0  0
   13.3542   -2.5604    0.0000 C   0  0  0  0  0  0  0  0  0  0  0  0
    3.7320   -1.1993    0.0000 C   0  0  0  0  0  0  0  0  0  0  0  0
    4.2320    0.3395    0.0000 C   0  0  0  0  0  0  0  0  0  0  0  0
   12.5407   -4.3874    0.0000 C   0  0  0  0  0  0  0  0  0  0  0  0
   13.9419   -3.3694    0.0000 C   0  0  0  0  0  0  0  0  0  0  0  0
   13.5352   -4.2829    0.0000 C   0  0  0  0  0  0  0  0  0  0  0  0
    3.7320   -2.1993    0.0000 C   0  0  0  0  0  0  0  0  0  0  0  0
    4.8198    1.1485    0.0000 C   0  0  0  0  0  0  0  0  0  0  0  0
    2.8660   -2.6993    0.0000 C   0  0  0  0  0  0  0  0  0  0  0  0
    4.5981   -2.6993    0.0000 C   0  0  0  0  0  0  0  0  0  0  0  0
    2.8660   -3.6993    0.0000 C   0  0  0  0  0  0  0  0  0  0  0  0
    4.5981   -3.6993    0.0000 C   0  0  0  0  0  0  0  0  0  0  0  0
    3.7320   -4.1993    0.0000 C   0  0  0  0  0  0  0  0  0  0  0  0
    9.1371    0.6689    0.0000 H   0  0  0  0  0  0  0  0  0  0  0  0
    9.9081   -1.7038    0.0000 H   0  0  0  0  0  0  0  0  0  0  0  0
   11.0650   -0.4525    0.0000 H   0  0  0  0  0  0  0  0  0  0  0  0
   10.8086    0.3366    0.0000 H   0  0  0  0  0  0  0  0  0  0  0  0
    8.5831   -1.2803    0.0000 H   0  0  0  0  0  0  0  0  0  0  0  0
    9.2544   -1.7680    0.0000 H   0  0  0  0  0  0  0  0  0  0  0  0
    6.7256   -0.9753    0.0000 H   0  0  0  0  0  0  0  0  0  0  0  0
    7.8550   -1.1237    0.0000 H   0  0  0  0  0  0  0  0  0  0  0  0
   11.0925    1.5774    0.0000 H   0  0  0  0  0  0  0  0  0  0  0  0
    6.1064    0.3550    0.0000 H   0  0  0  0  0  0  0  0  0  0  0  0
   12.3291   -1.5841    0.0000 H   0  0  0  0  0  0  0  0  0  0  0  0
   11.6010   -1.2599    0.0000 H   0  0  0  0  0  0  0  0  0  0  0  0
    8.1537   -2.4373    0.0000 H   0  0  0  0  0  0  0  0  0  0  0  0
    8.9350   -2.0392    0.0000 H   0  0  0  0  0  0  0  0  0  0  0  0
    8.5369   -1.2579    0.0000 H   0  0  0  0  0  0  0  0  0  0  0  0
    6.2362   -1.7470    0.0000 H   0  0  0  0  0  0  0  0  0  0  0  0
    6.1903   -2.6226    0.0000 H   0  0  0  0  0  0  0  0  0  0  0  0
    7.0660   -2.6685    0.0000 H   0  0  0  0  0  0  0  0  0  0  0  0
   11.0925    2.5775    0.0000 H   0  0  0  0  0  0  0  0  0  0  0  0
    9.0790    3.4951    0.0000 H   0  0  0  0  0  0  0  0  0  0  0  0
    9.4775    2.8048    0.0000 H   0  0  0  0  0  0  0  0  0  0  0  0
   11.9585    3.0774    0.0000 H   0  0  0  0  0  0  0  0  0  0  0  0
   10.3095    4.3874    0.0000 H   0  0  0  0  0  0  0  0  0  0  0  0
    9.6895    5.0075    0.0000 H   0  0  0  0  0  0  0  0  0  0  0  0
    9.0695    4.3874    0.0000 H   0  0  0  0  0  0  0  0  0  0  0  0
   11.3363   -3.6432    0.0000 H   0  0  0  0  0  0  0  0  0  0  0  0
   13.6063   -1.9940    0.0000 H   0  0  0  0  0  0  0  0  0  0  0  0
   12.2885   -4.9538    0.0000 H   0  0  0  0  0  0  0  0  0  0  0  0
   14.5585   -3.3046    0.0000 H   0  0  0  0  0  0  0  0  0  0  0  0
   13.8996   -4.7845    0.0000 H   0  0  0  0  0  0  0  0  0  0  0  0
    5.3214    0.7841    0.0000 H   0  0  0  0  0  0  0  0  0  0  0  0
    5.1843    1.6501    0.0000 H   0  0  0  0  0  0  0  0  0  0  0  0
    4.3182    1.5130    0.0000 H   0  0  0  0  0  0  0  0  0  0  0  0
    5.1350   -2.3893    0.0000 H   0  0  0  0  0  0  0  0  0  0  0  0
    2.3291   -4.0093    0.0000 H   0  0  0  0  0  0  0  0  0  0  0  0
    5.1350   -4.0093    0.0000 H   0  0  0  0  0  0  0  0  0  0  0  0
    3.7320   -4.8193    0.0000 H   0  0  0  0  0  0  0  0  0  0  0  0
  1 39  1  0  0  0  0
 13  2  1  1  0  0  0
  2 20  1  0  0  0  0
  3 16  2  0  0  0  0
  4 18  2  0  0  0  0
  5 26  2  0  0  0  0
  6 27  2  0  0  0  0
  7 11  1  0  0  0  0
  7 33  1  0  0  0  0
  8 12  1  0  0  0  0
  8 15  1  0  0  0  0
  8 16  1  0  0  0  0
  9 18  1  0  0  0  0
 23  9  1  1  0  0  0
  9 52  1  0  0  0  0
 17 10  1  6  0  0  0
 10 26  1  0  0  0  0
 10 53  1  0  0  0  0
 11 32  2  0  0  0  0
 12 14  1  0  0  0  0
 12 18  1  6  0  0  0
 12 44  1  0  0  0  0
 13 14  1  0  0  0  0
 13 15  1  0  0  0  0
 13 45  1  0  0  0  0
 14 46  1  0  0  0  0
 14 47  1  0  0  0  0
 15 48  1  0  0  0  0
 15 49  1  0  0  0  0
 16 17  1  0  0  0  0
 17 19  1  0  0  0  0
 17 50  1  0  0  0  0
 19 21  1  0  0  0  0
 19 22  1  0  0  0  0
 19 51  1  0  0  0  0
 20 24  1  0  0  0  0
 20 54  1  0  0  0  0
 20 55  1  0  0  0  0
 21 56  1  0  0  0  0
 21 57  1  0  0  0  0
 21 58  1  0  0  0  0
 22 59  1  0  0  0  0
 22 60  1  0  0  0  0
 22 61  1  0  0  0  0
 23 25  1  0  0  0  0
 23 27  1  0  0  0  0
 23 62  1  0  0  0  0
 24 30  2  0  0  0  0
 24 31  1  0  0  0  0
 25 29  1  0  0  0  0
 25 63  1  0  0  0  0
 25 64  1  0  0  0  0
 26 28  1  0  0  0  0
 27 65  1  0  0  0  0
 28 32  1  0  0  0  0
 28 33  2  0  0  0  0
 29 66  1  0  0  0  0
 29 67  1  0  0  0  0
 29 68  1  0  0  0  0
 30 34  1  0  0  0  0
 30 69  1  0  0  0  0
 31 35  2  0  0  0  0
 31 70  1  0  0  0  0
 32 37  1  0  0  0  0
 33 38  1  0  0  0  0
 34 36  2  0  0  0  0
 34 71  1  0  0  0  0
 35 36  1  0  0  0  0
 35 72  1  0  0  0  0
 36 73  1  0  0  0  0
 37 39  1  0  0  0  0
 37 40  2  0  0  0  0
 38 74  1  0  0  0  0
 38 75  1  0  0  0  0
 38 76  1  0  0  0  0
 39 41  2  0  0  0  0
 40 42  1  0  0  0  0
 40 77  1  0  0  0  0
 41 43  1  0  0  0  0
 41 78  1  0  0  0  0
 42 43  2  0  0  0  0
 42 79  1  0  0  0  0
 43 80  1  0  0  0  0
M  END
> <PUBCHEM_COMPOUND_CID>
506805
> <PUBCHEM_COMPOUND_CANONICALIZED>
1
> <PUBCHEM_CACTVS_COMPLEXITY>
962
> <PUBCHEM_CACTVS_HBOND_ACCEPTOR>
7
> <PUBCHEM_CACTVS_HBOND_DONOR>
2
> <PUBCHEM_CACTVS_ROTATABLE_BOND>
12
> <PUBCHEM_CACTVS_SUBSKEYS>
AAADcfB/uAAEAAAAAAAAAAAAAAAAAWLAAAAwYAAAAAAAAAAB0AAAHgIUAAAADT7hniYyhJPQBACpA61y0gCCAAAkJQAomKGsTtoKZr6J87uXMchm9hmY6Ue6yeCOAAAAAAABAAAAAAAAAAIAAAAAAAAAAA==
> <PUBCHEM_IUPAC_OPENEYE_NAME>
N-[(1S)-1-[(2S,4R)-4-benzyloxy-2-[[(1S)-1-formylpropyl]carbamoyl]pyrrolidine-1-carbonyl]-2-methyl-propyl]-3-(2-chlorophenyl)-5-methyl-isoxazole-4-carboxamide
> <PUBCHEM_IUPAC_CAS_NAME>
3-(2-chlorophenyl)-5-methyl-N-[(2S)-3-methyl-1-oxo-1-[(2S,4R)-2-[oxo-[[(2S)-1-oxobutan-2-yl]amino]methyl]-4-phenylmethoxy-1-pyrrolidinyl]butan-2-yl]-4-isoxazolecarboxamide
> <PUBCHEM_IUPAC_NAME_MARKUP>
3-(2-chlorophenyl)-5-methyl-<I>N</I>-[(2<I>S</I>)-3-methyl-1-oxo-1-[(2<I>S</I>,4<I>R</I>)-2-[[(2<I>S</I>)-1-oxobutan-2-yl]carbamoyl]-4-phenylmethoxypyrrolidin-1-yl]butan-2-yl]-1,2-oxazole-4-carboxamide
> <PUBCHEM_IUPAC_NAME>
3-(2-chlorophenyl)-5-methyl-N-[(2S)-3-methyl-1-oxo-1-[(2S,4R)-2-[[(2S)-1-oxobutan-2-yl]carbamoyl]-4-phenylmethoxypyrrolidin-1-yl]butan-2-yl]-1,2-oxazole-4-carboxamide
> <PUBCHEM_IUPAC_SYSTEMATIC_NAME>
3-(2-chlorophenyl)-5-methyl-N-[(2S)-3-methyl-1-oxidanylidene-1-[(2S,4R)-2-[[(2S)-1-oxidanylidenebutan-2-yl]carbamoyl]-4-phenylmethoxy-pyrrolidin-1-yl]butan-2-yl]-1,2-oxazole-4-carboxamide
> <PUBCHEM_IUPAC_TRADITIONAL_NAME>
N-[(1S)-1-[(2S,4R)-4-benzoxy-2-[[(1S)-1-formylpropyl]carbamoyl]pyrrolidine-1-carbonyl]-2-methyl-propyl]-3-(2-chlorophenyl)-5-methyl-isoxazole-4-carboxamide
> <PUBCHEM_IUPAC_INCHI>
InChI=1S/C32H37ClN4O6/c1-5-22(17-38)34-30(39)26-15-23(42-18-21-11-7-6-8-12-21)16-37(26)32(41)28(19(2)3)35-31(40)27-20(4)43-36-29(27)24-13-9-10-14-25(24)33/h6-14,17,19,22-23,26,28H,5,15-16,18H2,1-4H3,(H,34,39)(H,35,40)/t22-,23+,26-,28-/m0/s1
> <PUBCHEM_IUPAC_INCHIKEY>
QRKRKHNIACNXSF-JQTNDCLKSA-N
> <PUBCHEM_XLOGP3_AA>
4.6
> <PUBCHEM_EXACT_MASS>
608.2401626
> <PUBCHEM_MOLECULAR_FORMULA>
C32H37ClN4O6
> <PUBCHEM_MOLECULAR_WEIGHT>
609.1
> <PUBCHEM_OPENEYE_CAN_SMILES>
CCC(C=O)NC(=O)C1CC(CN1C(=O)C(C(C)C)NC(=O)C2=C(ON=C2C3=CC=CC=C3Cl)C)OCC4=CC=CC=C4
> <PUBCHEM_OPENEYE_ISO_SMILES>
CC[C@@H](C=O)NC(=O)[C@@H]1C[C@H](CN1C(=O)[C@H](C(C)C)NC(=O)C2=C(ON=C2C3=CC=CC=C3Cl)C)OCC4=CC=CC=C4
> <PUBCHEM_CACTVS_TPSA>
131
> <PUBCHEM_MONOISOTOPIC_WEIGHT>
608.2401626
> <PUBCHEM_TOTAL_CHARGE>
0
> <PUBCHEM_HEAVY_ATOM_COUNT>
43
> <PUBCHEM_ATOM_DEF_STEREO_COUNT>
4
> <PUBCHEM_ATOM_UDEF_STEREO_COUNT>
0
> <PUBCHEM_BOND_DEF_STEREO_COUNT>
0
> <PUBCHEM_BOND_UDEF_STEREO_COUNT>
0
> <PUBCHEM_ISOTOPIC_ATOM_COUNT>
0
> <PUBCHEM_COMPONENT_COUNT>
1
> <PUBCHEM_CACTVS_TAUTO_COUNT>
-1
> <PUBCHEM_COORDINATE_TYPE>
1
5
255
> <PUBCHEM_BONDANNOTATIONS>
17  10  6
11  32  8
12  18  6
13  2  5
24  30  8
24  31  8
28  32  8
28  33  8
30  34  8
31  35  8
34  36  8
35  36  8
37  39  8
37  40  8
39  41  8
40  42  8
41  43  8
42  43  8
7  11  8
7  33  8
23  9  5
$$$$
