506878
  -OEChem-10302200282D
 46 48  0     1  0  0  0  0  0999 V2000
    7.2579   -0.1157    0.0000 S   0  0  0  0  0  0  0  0  0  0  0  0
    8.2084   -0.4264    0.0000 O   0  0  0  0  0  0  0  0  0  0  0  0
    6.3074    0.1949    0.0000 O   0  0  0  0  0  0  0  0  0  0  0  0
    2.5369   -1.3710    0.0000 O   0  0  0  0  0  0  0  0  0  0  0  0
    9.0309   -1.0049    0.0000 O   0  0  0  0  0  0  0  0  0  0  0  0
    6.9473   -2.6757    0.0000 N   0  0  0  0  0  0  0  0  0  0  0  0
    9.0309   -2.7370    0.0000 N   0  0  0  0  0  0  0  0  0  0  0  0
    6.9473   -1.0662    0.0000 C   0  0  0  0  0  0  0  0  0  0  0  0
    6.0010   -1.3710    0.0000 C   0  0  0  0  0  0  0  0  0  0  0  0
    6.0010   -2.3710    0.0000 C   0  0  0  0  0  0  0  0  0  0  0  0
    7.5309   -1.8710    0.0000 C   0  0  0  0  0  0  0  0  0  0  0  0
    5.1350   -0.8710    0.0000 C   0  0  0  0  0  0  0  0  0  0  0  0
    7.5686    0.8348    0.0000 C   0  0  0  0  0  0  0  0  0  0  0  0
    4.2690   -1.3710    0.0000 C   0  0  0  0  0  0  0  0  0  0  0  0
    5.1350   -2.8710    0.0000 C   0  0  0  0  0  0  0  0  0  0  0  0
    4.2690   -2.3710    0.0000 C   0  0  0  0  0  0  0  0  0  0  0  0
    3.4030   -0.8710    0.0000 C   0  0  3  0  0  0  0  0  0  0  0  0
    6.9007    1.5791    0.0000 C   0  0  0  0  0  0  0  0  0  0  0  0
    8.5471    1.0410    0.0000 C   0  0  0  0  0  0  0  0  0  0  0  0
    8.5309   -1.8710    0.0000 C   0  0  0  0  0  0  0  0  0  0  0  0
    7.2114    2.5296    0.0000 C   0  0  0  0  0  0  0  0  0  0  0  0
    8.8578    1.9915    0.0000 C   0  0  0  0  0  0  0  0  0  0  0  0
    8.1899    2.7358    0.0000 C   0  0  0  0  0  0  0  0  0  0  0  0
    3.4030    0.1290    0.0000 C   0  0  0  0  0  0  0  0  0  0  0  0
    6.5436    3.2739    0.0000 C   0  0  0  0  0  0  0  0  0  0  0  0
    9.8363    2.1978    0.0000 C   0  0  0  0  0  0  0  0  0  0  0  0
    7.1399   -3.2650    0.0000 H   0  0  0  0  0  0  0  0  0  0  0  0
    5.1350   -0.2510    0.0000 H   0  0  0  0  0  0  0  0  0  0  0  0
    5.1350   -3.4910    0.0000 H   0  0  0  0  0  0  0  0  0  0  0  0
    3.7320   -2.6810    0.0000 H   0  0  0  0  0  0  0  0  0  0  0  0
    3.4030   -1.4910    0.0000 H   0  0  0  0  0  0  0  0  0  0  0  0
    6.2941    1.4512    0.0000 H   0  0  0  0  0  0  0  0  0  0  0  0
    8.9612    0.5796    0.0000 H   0  0  0  0  0  0  0  0  0  0  0  0
    8.3825    3.3252    0.0000 H   0  0  0  0  0  0  0  0  0  0  0  0
    4.0230    0.1290    0.0000 H   0  0  0  0  0  0  0  0  0  0  0  0
    3.4030    0.7490    0.0000 H   0  0  0  0  0  0  0  0  0  0  0  0
    2.7830    0.1290    0.0000 H   0  0  0  0  0  0  0  0  0  0  0  0
    7.0050    3.6880    0.0000 H   0  0  0  0  0  0  0  0  0  0  0  0
    6.1295    3.7354    0.0000 H   0  0  0  0  0  0  0  0  0  0  0  0
    6.0821    2.8599    0.0000 H   0  0  0  0  0  0  0  0  0  0  0  0
    9.9641    1.5911    0.0000 H   0  0  0  0  0  0  0  0  0  0  0  0
   10.4429    2.3256    0.0000 H   0  0  0  0  0  0  0  0  0  0  0  0
    9.7084    2.8044    0.0000 H   0  0  0  0  0  0  0  0  0  0  0  0
    2.0000   -1.0610    0.0000 H   0  0  0  0  0  0  0  0  0  0  0  0
    9.6509   -2.7370    0.0000 H   0  0  0  0  0  0  0  0  0  0  0  0
    8.7209   -3.2739    0.0000 H   0  0  0  0  0  0  0  0  0  0  0  0
  1  2  2  0  0  0  0
  1  3  2  0  0  0  0
  1  8  1  0  0  0  0
  1 13  1  0  0  0  0
  4 17  1  0  0  0  0
  4 44  1  0  0  0  0
  5 20  2  0  0  0  0
  6 10  1  0  0  0  0
  6 11  1  0  0  0  0
  6 27  1  0  0  0  0
  7 20  1  0  0  0  0
  7 45  1  0  0  0  0
  7 46  1  0  0  0  0
  8  9  1  0  0  0  0
  8 11  2  0  0  0  0
  9 10  2  0  0  0  0
  9 12  1  0  0  0  0
 10 15  1  0  0  0  0
 11 20  1  0  0  0  0
 12 14  2  0  0  0  0
 12 28  1  0  0  0  0
 13 18  2  0  0  0  0
 13 19  1  0  0  0  0
 14 16  1  0  0  0  0
 14 17  1  0  0  0  0
 15 16  2  0  0  0  0
 15 29  1  0  0  0  0
 16 30  1  0  0  0  0
 17 24  1  0  0  0  0
 17 31  1  0  0  0  0
 18 21  1  0  0  0  0
 18 32  1  0  0  0  0
 19 22  2  0  0  0  0
 19 33  1  0  0  0  0
 21 23  2  0  0  0  0
 21 25  1  0  0  0  0
 22 23  1  0  0  0  0
 22 26  1  0  0  0  0
 23 34  1  0  0  0  0
 24 35  1  0  0  0  0
 24 36  1  0  0  0  0
 24 37  1  0  0  0  0
 25 38  1  0  0  0  0
 25 39  1  0  0  0  0
 25 40  1  0  0  0  0
 26 41  1  0  0  0  0
 26 42  1  0  0  0  0
 26 43  1  0  0  0  0
M  END
> <PUBCHEM_COMPOUND_CID>
506878
> <PUBCHEM_COMPOUND_CANONICALIZED>
1
> <PUBCHEM_CACTVS_COMPLEXITY>
622
> <PUBCHEM_CACTVS_HBOND_ACCEPTOR>
4
> <PUBCHEM_CACTVS_HBOND_DONOR>
3
> <PUBCHEM_CACTVS_ROTATABLE_BOND>
4
> <PUBCHEM_CACTVS_SUBSKEYS>
AAADceB7OABAAAAAAAAAAAAAAAAAAWAAAAAwYAAAAAAAAFgB9AAAHgQQCAAADByh3gIywfLJkgqoAyVyVHDCgCAnCjAImT2wbNgIdvLglbGUcQxk0AHo2QeY2eOeCAACgAACAAAQAAUAAAQAAAAAAAAAAA==
> <PUBCHEM_IUPAC_OPENEYE_NAME>
3-(3,5-dimethylphenyl)sulfonyl-5-(1-hydroxyethyl)-1H-indole-2-carboxamide
> <PUBCHEM_IUPAC_CAS_NAME>
3-(3,5-dimethylphenyl)sulfonyl-5-(1-hydroxyethyl)-1H-indole-2-carboxamide
> <PUBCHEM_IUPAC_NAME_MARKUP>
3-(3,5-dimethylphenyl)sulfonyl-5-(1-hydroxyethyl)-1<I>H</I>-indole-2-carboxamide
> <PUBCHEM_IUPAC_NAME>
3-(3,5-dimethylphenyl)sulfonyl-5-(1-hydroxyethyl)-1H-indole-2-carboxamide
> <PUBCHEM_IUPAC_SYSTEMATIC_NAME>
3-(3,5-dimethylphenyl)sulfonyl-5-(1-hydroxyethyl)-1H-indole-2-carboxamide
> <PUBCHEM_IUPAC_TRADITIONAL_NAME>
3-(3,5-dimethylphenyl)sulfonyl-5-(1-hydroxyethyl)-1H-indole-2-carboxamide
> <PUBCHEM_IUPAC_INCHI>
InChI=1S/C19H20N2O4S/c1-10-6-11(2)8-14(7-10)26(24,25)18-15-9-13(12(3)22)4-5-16(15)21-17(18)19(20)23/h4-9,12,21-22H,1-3H3,(H2,20,23)
> <PUBCHEM_IUPAC_INCHIKEY>
XEDWCUZOQPGNSX-UHFFFAOYSA-N
> <PUBCHEM_XLOGP3_AA>
2.3
> <PUBCHEM_EXACT_MASS>
372.11437830
> <PUBCHEM_MOLECULAR_FORMULA>
C19H20N2O4S
> <PUBCHEM_MOLECULAR_WEIGHT>
372.4
> <PUBCHEM_OPENEYE_CAN_SMILES>
CC1=CC(=CC(=C1)S(=O)(=O)C2=C(NC3=C2C=C(C=C3)C(C)O)C(=O)N)C
> <PUBCHEM_OPENEYE_ISO_SMILES>
CC1=CC(=CC(=C1)S(=O)(=O)C2=C(NC3=C2C=C(C=C3)C(C)O)C(=O)N)C
> <PUBCHEM_CACTVS_TPSA>
122
> <PUBCHEM_MONOISOTOPIC_WEIGHT>
372.11437830
> <PUBCHEM_TOTAL_CHARGE>
0
> <PUBCHEM_HEAVY_ATOM_COUNT>
26
> <PUBCHEM_ATOM_DEF_STEREO_COUNT>
0
> <PUBCHEM_ATOM_UDEF_STEREO_COUNT>
1
> <PUBCHEM_BOND_DEF_STEREO_COUNT>
0
> <PUBCHEM_BOND_UDEF_STEREO_COUNT>
0
> <PUBCHEM_ISOTOPIC_ATOM_COUNT>
0
> <PUBCHEM_COMPONENT_COUNT>
1
> <PUBCHEM_CACTVS_TAUTO_COUNT>
-1
> <PUBCHEM_COORDINATE_TYPE>
1
5
255
> <PUBCHEM_BONDANNOTATIONS>
10  15  8
12  14  8
13  18  8
13  19  8
14  16  8
15  16  8
18  21  8
19  22  8
21  23  8
22  23  8
17  4  3
6  10  8
6  11  8
8  11  8
8  9  8
9  10  8
9  12  8
$$$$
