506802
  -OEChem-10302200282D
 84 87  0     1  0  0  0  0  0999 V2000
    5.1646   -1.9604    0.0000 O   0  0  0  0  0  0  0  0  0  0  0  0
   10.2419   -1.8987    0.0000 O   0  0  0  0  0  0  0  0  0  0  0  0
    8.2204    1.0868    0.0000 O   0  0  0  0  0  0  0  0  0  0  0  0
    7.1184    1.8874    0.0000 O   0  0  0  0  0  0  0  0  0  0  0  0
    4.5204    4.3874    0.0000 O   0  0  0  0  0  0  0  0  0  0  0  0
    7.0614   -0.2003    0.0000 N   0  0  0  0  0  0  0  0  0  0  0  0
    9.7067   -0.2514    0.0000 N   0  0  0  0  0  0  0  0  0  0  0  0
    5.3864    1.8874    0.0000 N   0  0  0  0  0  0  0  0  0  0  0  0
   11.4009   -0.6115    0.0000 C   0  0  3  0  0  0  0  0  0  0  0  0
   12.2099   -1.1993    0.0000 C   0  0  3  0  0  0  0  0  0  0  0  0
   11.7099    0.3395    0.0000 C   0  0  0  0  0  0  0  0  0  0  0  0
   13.0189   -0.6115    0.0000 C   0  0  0  0  0  0  0  0  0  0  0  0
   12.7099    0.3395    0.0000 C   0  0  0  0  0  0  0  0  0  0  0  0
    6.2524    0.3875    0.0000 C   0  0  1  0  0  0  0  0  0  0  0  0
    5.7524   -1.1514    0.0000 C   0  0  2  0  0  0  0  0  0  0  0  0
   10.4498   -0.9206    0.0000 C   0  0  0  0  0  0  0  0  0  0  0  0
    5.4434   -0.2003    0.0000 C   0  0  0  0  0  0  0  0  0  0  0  0
    6.7524   -1.1514    0.0000 C   0  0  0  0  0  0  0  0  0  0  0  0
    8.7556   -0.5604    0.0000 C   0  0  2  0  0  0  0  0  0  0  0  0
   12.2099   -2.1993    0.0000 C   0  0  0  0  0  0  0  0  0  0  0  0
    8.0125    0.1087    0.0000 C   0  0  0  0  0  0  0  0  0  0  0  0
    8.5477   -1.5386    0.0000 C   0  0  0  0  0  0  0  0  0  0  0  0
    6.2524    1.3874    0.0000 C   0  0  0  0  0  0  0  0  0  0  0  0
   11.3439   -2.6993    0.0000 C   0  0  0  0  0  0  0  0  0  0  0  0
   13.0759   -2.6993    0.0000 C   0  0  0  0  0  0  0  0  0  0  0  0
    7.5966   -1.8476    0.0000 C   0  0  0  0  0  0  0  0  0  0  0  0
    9.2908   -2.2077    0.0000 C   0  0  0  0  0  0  0  0  0  0  0  0
    4.1701   -1.8559    0.0000 C   0  0  0  0  0  0  0  0  0  0  0  0
   11.3439   -3.6993    0.0000 C   0  0  0  0  0  0  0  0  0  0  0  0
   13.0759   -3.6993    0.0000 C   0  0  0  0  0  0  0  0  0  0  0  0
    5.3864    2.8874    0.0000 C   0  0  1  0  0  0  0  0  0  0  0  0
   12.2099   -4.1993    0.0000 C   0  0  0  0  0  0  0  0  0  0  0  0
    3.5823   -2.6649    0.0000 C   0  0  0  0  0  0  0  0  0  0  0  0
    6.2524    3.3874    0.0000 C   0  0  0  0  0  0  0  0  0  0  0  0
    4.5204    3.3874    0.0000 C   0  0  0  0  0  0  0  0  0  0  0  0
    6.2524    4.3874    0.0000 C   0  0  0  0  0  0  0  0  0  0  0  0
    2.5878   -2.5604    0.0000 C   0  0  0  0  0  0  0  0  0  0  0  0
    3.9890   -3.5784    0.0000 C   0  0  0  0  0  0  0  0  0  0  0  0
    2.0000   -3.3694    0.0000 C   0  0  0  0  0  0  0  0  0  0  0  0
    3.4013   -4.3874    0.0000 C   0  0  0  0  0  0  0  0  0  0  0  0
    2.4067   -4.2829    0.0000 C   0  0  0  0  0  0  0  0  0  0  0  0
   11.3039   -1.2239    0.0000 H   0  0  0  0  0  0  0  0  0  0  0  0
   11.6575   -1.4808    0.0000 H   0  0  0  0  0  0  0  0  0  0  0  0
   11.7747    0.9561    0.0000 H   0  0  0  0  0  0  0  0  0  0  0  0
   11.1034    0.4684    0.0000 H   0  0  0  0  0  0  0  0  0  0  0  0
   13.3289   -1.1485    0.0000 H   0  0  0  0  0  0  0  0  0  0  0  0
   13.5853   -0.3594    0.0000 H   0  0  0  0  0  0  0  0  0  0  0  0
   13.3163    0.4684    0.0000 H   0  0  0  0  0  0  0  0  0  0  0  0
   12.6451    0.9561    0.0000 H   0  0  0  0  0  0  0  0  0  0  0  0
    6.8048    0.6689    0.0000 H   0  0  0  0  0  0  0  0  0  0  0  0
    5.1400   -1.0544    0.0000 H   0  0  0  0  0  0  0  0  0  0  0  0
    5.1334    0.3366    0.0000 H   0  0  0  0  0  0  0  0  0  0  0  0
    4.8770   -0.4525    0.0000 H   0  0  0  0  0  0  0  0  0  0  0  0
    6.6876   -1.7680    0.0000 H   0  0  0  0  0  0  0  0  0  0  0  0
    7.3588   -1.2803    0.0000 H   0  0  0  0  0  0  0  0  0  0  0  0
    8.8845    0.0460    0.0000 H   0  0  0  0  0  0  0  0  0  0  0  0
    9.8356    0.3550    0.0000 H   0  0  0  0  0  0  0  0  0  0  0  0
    9.1374   -1.3470    0.0000 H   0  0  0  0  0  0  0  0  0  0  0  0
   10.8069   -2.3893    0.0000 H   0  0  0  0  0  0  0  0  0  0  0  0
   13.6129   -2.3893    0.0000 H   0  0  0  0  0  0  0  0  0  0  0  0
    7.4051   -1.2579    0.0000 H   0  0  0  0  0  0  0  0  0  0  0  0
    7.0070   -2.0392    0.0000 H   0  0  0  0  0  0  0  0  0  0  0  0
    7.7882   -2.4373    0.0000 H   0  0  0  0  0  0  0  0  0  0  0  0
    8.8760   -2.6685    0.0000 H   0  0  0  0  0  0  0  0  0  0  0  0
    9.7516   -2.6226    0.0000 H   0  0  0  0  0  0  0  0  0  0  0  0
    9.7057   -1.7470    0.0000 H   0  0  0  0  0  0  0  0  0  0  0  0
    4.8494    1.5774    0.0000 H   0  0  0  0  0  0  0  0  0  0  0  0
    4.3410   -1.2599    0.0000 H   0  0  0  0  0  0  0  0  0  0  0  0
    3.6128   -1.5841    0.0000 H   0  0  0  0  0  0  0  0  0  0  0  0
   10.8069   -4.0093    0.0000 H   0  0  0  0  0  0  0  0  0  0  0  0
   13.6129   -4.0093    0.0000 H   0  0  0  0  0  0  0  0  0  0  0  0
    5.9233    2.5775    0.0000 H   0  0  0  0  0  0  0  0  0  0  0  0
   12.2099   -4.8193    0.0000 H   0  0  0  0  0  0  0  0  0  0  0  0
    6.4644    2.8048    0.0000 H   0  0  0  0  0  0  0  0  0  0  0  0
    6.8630    3.4951    0.0000 H   0  0  0  0  0  0  0  0  0  0  0  0
    3.9834    3.0774    0.0000 H   0  0  0  0  0  0  0  0  0  0  0  0
    6.8724    4.3874    0.0000 H   0  0  0  0  0  0  0  0  0  0  0  0
    6.2524    5.0075    0.0000 H   0  0  0  0  0  0  0  0  0  0  0  0
    5.6324    4.3874    0.0000 H   0  0  0  0  0  0  0  0  0  0  0  0
    2.3356   -1.9940    0.0000 H   0  0  0  0  0  0  0  0  0  0  0  0
    4.6056   -3.6432    0.0000 H   0  0  0  0  0  0  0  0  0  0  0  0
    1.3834   -3.3046    0.0000 H   0  0  0  0  0  0  0  0  0  0  0  0
    3.6534   -4.9538    0.0000 H   0  0  0  0  0  0  0  0  0  0  0  0
    2.0423   -4.7845    0.0000 H   0  0  0  0  0  0  0  0  0  0  0  0
 15  1  1  6  0  0  0
  1 28  1  0  0  0  0
  2 16  2  0  0  0  0
  3 21  2  0  0  0  0
  4 23  2  0  0  0  0
  5 35  2  0  0  0  0
  6 14  1  0  0  0  0
  6 18  1  0  0  0  0
  6 21  1  0  0  0  0
  7 16  1  0  0  0  0
 19  7  1  1  0  0  0
  7 57  1  0  0  0  0
  8 23  1  0  0  0  0
 31  8  1  6  0  0  0
  8 67  1  0  0  0  0
  9 10  1  0  0  0  0
  9 11  1  0  0  0  0
  9 16  1  0  0  0  0
  9 42  1  0  0  0  0
 10 12  1  0  0  0  0
 10 20  1  0  0  0  0
 10 43  1  0  0  0  0
 11 13  1  0  0  0  0
 11 44  1  0  0  0  0
 11 45  1  0  0  0  0
 12 13  1  0  0  0  0
 12 46  1  0  0  0  0
 12 47  1  0  0  0  0
 13 48  1  0  0  0  0
 13 49  1  0  0  0  0
 14 17  1  0  0  0  0
 14 23  1  1  0  0  0
 14 50  1  0  0  0  0
 15 17  1  0  0  0  0
 15 18  1  0  0  0  0
 15 51  1  0  0  0  0
 17 52  1  0  0  0  0
 17 53  1  0  0  0  0
 18 54  1  0  0  0  0
 18 55  1  0  0  0  0
 19 21  1  0  0  0  0
 19 22  1  0  0  0  0
 19 56  1  0  0  0  0
 20 24  2  0  0  0  0
 20 25  1  0  0  0  0
 22 26  1  0  0  0  0
 22 27  1  0  0  0  0
 22 58  1  0  0  0  0
 24 29  1  0  0  0  0
 24 59  1  0  0  0  0
 25 30  2  0  0  0  0
 25 60  1  0  0  0  0
 26 61  1  0  0  0  0
 26 62  1  0  0  0  0
 26 63  1  0  0  0  0
 27 64  1  0  0  0  0
 27 65  1  0  0  0  0
 27 66  1  0  0  0  0
 28 33  1  0  0  0  0
 28 68  1  0  0  0  0
 28 69  1  0  0  0  0
 29 32  2  0  0  0  0
 29 70  1  0  0  0  0
 30 32  1  0  0  0  0
 30 71  1  0  0  0  0
 31 34  1  0  0  0  0
 31 35  1  0  0  0  0
 31 72  1  0  0  0  0
 32 73  1  0  0  0  0
 33 37  2  0  0  0  0
 33 38  1  0  0  0  0
 34 36  1  0  0  0  0
 34 74  1  0  0  0  0
 34 75  1  0  0  0  0
 35 76  1  0  0  0  0
 36 77  1  0  0  0  0
 36 78  1  0  0  0  0
 36 79  1  0  0  0  0
 37 39  1  0  0  0  0
 37 80  1  0  0  0  0
 38 40  2  0  0  0  0
 38 81  1  0  0  0  0
 39 41  2  0  0  0  0
 39 82  1  0  0  0  0
 40 41  1  0  0  0  0
 40 83  1  0  0  0  0
 41 84  1  0  0  0  0
M  END
> <PUBCHEM_COMPOUND_CID>
506802
> <PUBCHEM_COMPOUND_CANONICALIZED>
1
> <PUBCHEM_CACTVS_COMPLEXITY>
882
> <PUBCHEM_CACTVS_HBOND_ACCEPTOR>
5
> <PUBCHEM_CACTVS_HBOND_DONOR>
2
> <PUBCHEM_CACTVS_ROTATABLE_BOND>
12
> <PUBCHEM_CACTVS_SUBSKEYS>
AAADcfB/OAAAAAAAAAAAAAAAAAAAAeIAAAAwYAAAAAAAAAABQAAAHgAQAAAADTzhmAYyAIPABACIAilSkAACAAAgAAAIiIGICIgKZjKAsTiXMAAm1gGYqAe6yeCOgAAAAAAAAAAAAAAAAAAAAAAACAAAAA==
> <PUBCHEM_IUPAC_OPENEYE_NAME>
(2S,4R)-4-benzyloxy-N-[(1S)-1-formylpropyl]-1-[(2S)-3-methyl-2-[(2-phenylcyclopentanecarbonyl)amino]butanoyl]pyrrolidine-2-carboxamide
> <PUBCHEM_IUPAC_CAS_NAME>
(2S,4R)-1-[(2S)-3-methyl-1-oxo-2-[[oxo-(2-phenylcyclopentyl)methyl]amino]butyl]-N-[(2S)-1-oxobutan-2-yl]-4-phenylmethoxy-2-pyrrolidinecarboxamide
> <PUBCHEM_IUPAC_NAME_MARKUP>
(2<I>S</I>,4<I>R</I>)-1-[(2<I>S</I>)-3-methyl-2-[(2-phenylcyclopentanecarbonyl)amino]butanoyl]-<I>N</I>-[(2<I>S</I>)-1-oxobutan-2-yl]-4-phenylmethoxypyrrolidine-2-carboxamide
> <PUBCHEM_IUPAC_NAME>
(2S,4R)-1-[(2S)-3-methyl-2-[(2-phenylcyclopentanecarbonyl)amino]butanoyl]-N-[(2S)-1-oxobutan-2-yl]-4-phenylmethoxypyrrolidine-2-carboxamide
> <PUBCHEM_IUPAC_SYSTEMATIC_NAME>
(2S,4R)-1-[(2S)-3-methyl-2-[(2-phenylcyclopentyl)carbonylamino]butanoyl]-N-[(2S)-1-oxidanylidenebutan-2-yl]-4-phenylmethoxy-pyrrolidine-2-carboxamide
> <PUBCHEM_IUPAC_TRADITIONAL_NAME>
(2S,4R)-4-benzoxy-N-[(1S)-1-formylpropyl]-1-[(2S)-3-methyl-2-[(2-phenylcyclopentanecarbonyl)amino]butanoyl]pyrrolidine-2-carboxamide
> <PUBCHEM_IUPAC_INCHI>
InChI=1S/C33H43N3O5/c1-4-25(20-37)34-32(39)29-18-26(41-21-23-12-7-5-8-13-23)19-36(29)33(40)30(22(2)3)35-31(38)28-17-11-16-27(28)24-14-9-6-10-15-24/h5-10,12-15,20,22,25-30H,4,11,16-19,21H2,1-3H3,(H,34,39)(H,35,38)/t25-,26+,27?,28?,29-,30-/m0/s1
> <PUBCHEM_IUPAC_INCHIKEY>
PELCBXCRUSUYKM-AWFXDKFESA-N
> <PUBCHEM_XLOGP3_AA>
4.7
> <PUBCHEM_EXACT_MASS>
561.32027148
> <PUBCHEM_MOLECULAR_FORMULA>
C33H43N3O5
> <PUBCHEM_MOLECULAR_WEIGHT>
561.7
> <PUBCHEM_OPENEYE_CAN_SMILES>
CCC(C=O)NC(=O)C1CC(CN1C(=O)C(C(C)C)NC(=O)C2CCCC2C3=CC=CC=C3)OCC4=CC=CC=C4
> <PUBCHEM_OPENEYE_ISO_SMILES>
CC[C@@H](C=O)NC(=O)[C@@H]1C[C@H](CN1C(=O)[C@H](C(C)C)NC(=O)C2CCCC2C3=CC=CC=C3)OCC4=CC=CC=C4
> <PUBCHEM_CACTVS_TPSA>
105
> <PUBCHEM_MONOISOTOPIC_WEIGHT>
561.32027148
> <PUBCHEM_TOTAL_CHARGE>
0
> <PUBCHEM_HEAVY_ATOM_COUNT>
41
> <PUBCHEM_ATOM_DEF_STEREO_COUNT>
4
> <PUBCHEM_ATOM_UDEF_STEREO_COUNT>
2
> <PUBCHEM_BOND_DEF_STEREO_COUNT>
0
> <PUBCHEM_BOND_UDEF_STEREO_COUNT>
0
> <PUBCHEM_ISOTOPIC_ATOM_COUNT>
0
> <PUBCHEM_COMPONENT_COUNT>
1
> <PUBCHEM_CACTVS_TAUTO_COUNT>
-1
> <PUBCHEM_COORDINATE_TYPE>
1
5
255
> <PUBCHEM_BONDANNOTATIONS>
15  1  6
10  20  3
14  23  5
20  24  8
20  25  8
24  29  8
25  30  8
29  32  8
30  32  8
33  37  8
33  38  8
37  39  8
38  40  8
39  41  8
40  41  8
19  7  5
31  8  6
9  16  3
$$$$
