506801
  -OEChem-10302200282D
 79 81  0     1  0  0  0  0  0999 V2000
    5.2423    2.9514    0.0000 O   0  0  0  0  0  0  0  0  0  0  0  0
    7.1962   -0.8965    0.0000 O   0  0  0  0  0  0  0  0  0  0  0  0
    8.2981   -0.0959    0.0000 O   0  0  0  0  0  0  0  0  0  0  0  0
    3.7320   -1.8965    0.0000 O   0  0  0  0  0  0  0  0  0  0  0  0
   11.4786    1.6025    0.0000 O   0  0  0  0  0  0  0  0  0  0  0  0
    2.8660   -3.3965    0.0000 O   0  0  0  0  0  0  0  0  0  0  0  0
    2.8660   -5.3965    0.0000 O   0  0  0  0  0  0  0  0  0  0  0  0
    6.3301    0.6035    0.0000 N   0  0  0  0  0  0  0  0  0  0  0  0
    8.8334    1.5514    0.0000 N   0  0  0  0  0  0  0  0  0  0  0  0
    5.4641   -1.8965    0.0000 N   0  0  0  0  0  0  0  0  0  0  0  0
    7.1391    1.1913    0.0000 C   0  0  1  0  0  0  0  0  0  0  0  0
    5.8301    2.1424    0.0000 C   0  0  2  0  0  0  0  0  0  0  0  0
    6.8301    2.1424    0.0000 C   0  0  0  0  0  0  0  0  0  0  0  0
    5.5211    1.1913    0.0000 C   0  0  0  0  0  0  0  0  0  0  0  0
    6.3301   -0.3965    0.0000 C   0  0  0  0  0  0  0  0  0  0  0  0
    5.4641   -0.8965    0.0000 C   0  0  2  0  0  0  0  0  0  0  0  0
    8.0902    0.8823    0.0000 C   0  0  0  0  0  0  0  0  0  0  0  0
    4.5981   -0.3965    0.0000 C   0  0  0  0  0  0  0  0  0  0  0  0
    5.6491    3.8649    0.0000 C   0  0  0  0  0  0  0  0  0  0  0  0
    3.7320   -0.8965    0.0000 C   0  0  0  0  0  0  0  0  0  0  0  0
    4.5981    0.6035    0.0000 C   0  0  0  0  0  0  0  0  0  0  0  0
    9.7844    1.2424    0.0000 C   0  0  1  0  0  0  0  0  0  0  0  0
    5.0613    4.6739    0.0000 C   0  0  0  0  0  0  0  0  0  0  0  0
    9.9923    0.2642    0.0000 C   0  0  0  0  0  0  0  0  0  0  0  0
    4.5981   -2.3965    0.0000 C   0  0  0  0  0  0  0  0  0  0  0  0
   10.5275    1.9115    0.0000 C   0  0  0  0  0  0  0  0  0  0  0  0
    4.5981   -3.3965    0.0000 C   0  0  0  0  0  0  0  0  0  0  0  0
   10.9434   -0.0448    0.0000 C   0  0  0  0  0  0  0  0  0  0  0  0
    5.4680    5.5875    0.0000 C   0  0  0  0  0  0  0  0  0  0  0  0
    4.0668    4.5694    0.0000 C   0  0  0  0  0  0  0  0  0  0  0  0
    3.7320   -3.8965    0.0000 C   0  0  0  0  0  0  0  0  0  0  0  0
    4.8802    6.3965    0.0000 C   0  0  0  0  0  0  0  0  0  0  0  0
    3.4790    5.3784    0.0000 C   0  0  0  0  0  0  0  0  0  0  0  0
    5.4641   -3.8965    0.0000 C   0  0  0  0  0  0  0  0  0  0  0  0
    3.8857    6.2920    0.0000 C   0  0  0  0  0  0  0  0  0  0  0  0
    3.7320   -4.8965    0.0000 C   0  0  0  0  0  0  0  0  0  0  0  0
    5.4641   -4.8965    0.0000 C   0  0  0  0  0  0  0  0  0  0  0  0
    4.5981   -5.3965    0.0000 C   0  0  0  0  0  0  0  0  0  0  0  0
    2.0000   -3.8965    0.0000 C   0  0  0  0  0  0  0  0  0  0  0  0
    2.8660   -6.3965    0.0000 C   0  0  0  0  0  0  0  0  0  0  0  0
    7.2361    0.5789    0.0000 H   0  0  0  0  0  0  0  0  0  0  0  0
    6.1116    2.6948    0.0000 H   0  0  0  0  0  0  0  0  0  0  0  0
    7.4366    2.2713    0.0000 H   0  0  0  0  0  0  0  0  0  0  0  0
    6.7653    2.7590    0.0000 H   0  0  0  0  0  0  0  0  0  0  0  0
    4.9547    1.4435    0.0000 H   0  0  0  0  0  0  0  0  0  0  0  0
    5.2111    0.6544    0.0000 H   0  0  0  0  0  0  0  0  0  0  0  0
    6.0010   -1.2065    0.0000 H   0  0  0  0  0  0  0  0  0  0  0  0
    4.5981   -1.0165    0.0000 H   0  0  0  0  0  0  0  0  0  0  0  0
    8.7044    2.1579    0.0000 H   0  0  0  0  0  0  0  0  0  0  0  0
    6.0010   -2.2065    0.0000 H   0  0  0  0  0  0  0  0  0  0  0  0
    6.1631    3.5182    0.0000 H   0  0  0  0  0  0  0  0  0  0  0  0
    6.0798    4.3109    0.0000 H   0  0  0  0  0  0  0  0  0  0  0  0
    3.4220   -0.3596    0.0000 H   0  0  0  0  0  0  0  0  0  0  0  0
    3.1951   -1.2065    0.0000 H   0  0  0  0  0  0  0  0  0  0  0  0
    4.0420   -1.4334    0.0000 H   0  0  0  0  0  0  0  0  0  0  0  0
    5.2181    0.6035    0.0000 H   0  0  0  0  0  0  0  0  0  0  0  0
    4.5981    1.2235    0.0000 H   0  0  0  0  0  0  0  0  0  0  0  0
    3.9781    0.6035    0.0000 H   0  0  0  0  0  0  0  0  0  0  0  0
    9.6555    1.8488    0.0000 H   0  0  0  0  0  0  0  0  0  0  0  0
    9.3727    0.2426    0.0000 H   0  0  0  0  0  0  0  0  0  0  0  0
    9.9060   -0.3497    0.0000 H   0  0  0  0  0  0  0  0  0  0  0  0
   10.3986    2.5180    0.0000 H   0  0  0  0  0  0  0  0  0  0  0  0
   10.7518   -0.6344    0.0000 H   0  0  0  0  0  0  0  0  0  0  0  0
   11.5330   -0.2364    0.0000 H   0  0  0  0  0  0  0  0  0  0  0  0
   11.1350    0.5449    0.0000 H   0  0  0  0  0  0  0  0  0  0  0  0
    6.0846    5.6523    0.0000 H   0  0  0  0  0  0  0  0  0  0  0  0
    3.8146    4.0030    0.0000 H   0  0  0  0  0  0  0  0  0  0  0  0
    5.1324    6.9629    0.0000 H   0  0  0  0  0  0  0  0  0  0  0  0
    2.8624    5.3136    0.0000 H   0  0  0  0  0  0  0  0  0  0  0  0
    6.0010   -3.5865    0.0000 H   0  0  0  0  0  0  0  0  0  0  0  0
    3.5213    6.7936    0.0000 H   0  0  0  0  0  0  0  0  0  0  0  0
    6.0010   -5.2065    0.0000 H   0  0  0  0  0  0  0  0  0  0  0  0
    4.5981   -6.0165    0.0000 H   0  0  0  0  0  0  0  0  0  0  0  0
    1.6900   -3.3596    0.0000 H   0  0  0  0  0  0  0  0  0  0  0  0
    1.4631   -4.2065    0.0000 H   0  0  0  0  0  0  0  0  0  0  0  0
    2.3100   -4.4334    0.0000 H   0  0  0  0  0  0  0  0  0  0  0  0
    2.2460   -6.3965    0.0000 H   0  0  0  0  0  0  0  0  0  0  0  0
    2.8660   -7.0165    0.0000 H   0  0  0  0  0  0  0  0  0  0  0  0
    3.4860   -6.3965    0.0000 H   0  0  0  0  0  0  0  0  0  0  0  0
 12  1  1  6  0  0  0
  1 19  1  0  0  0  0
  2 15  2  0  0  0  0
  3 17  2  0  0  0  0
  4 25  2  0  0  0  0
  5 26  2  0  0  0  0
  6 31  1  0  0  0  0
  6 39  1  0  0  0  0
  7 36  1  0  0  0  0
  7 40  1  0  0  0  0
  8 11  1  0  0  0  0
  8 14  1  0  0  0  0
  8 15  1  0  0  0  0
  9 17  1  0  0  0  0
 22  9  1  6  0  0  0
  9 49  1  0  0  0  0
 16 10  1  1  0  0  0
 10 25  1  0  0  0  0
 10 50  1  0  0  0  0
 11 13  1  0  0  0  0
 11 17  1  1  0  0  0
 11 41  1  0  0  0  0
 12 13  1  0  0  0  0
 12 14  1  0  0  0  0
 12 42  1  0  0  0  0
 13 43  1  0  0  0  0
 13 44  1  0  0  0  0
 14 45  1  0  0  0  0
 14 46  1  0  0  0  0
 15 16  1  0  0  0  0
 16 18  1  0  0  0  0
 16 47  1  0  0  0  0
 18 20  1  0  0  0  0
 18 21  1  0  0  0  0
 18 48  1  0  0  0  0
 19 23  1  0  0  0  0
 19 51  1  0  0  0  0
 19 52  1  0  0  0  0
 20 53  1  0  0  0  0
 20 54  1  0  0  0  0
 20 55  1  0  0  0  0
 21 56  1  0  0  0  0
 21 57  1  0  0  0  0
 21 58  1  0  0  0  0
 22 24  1  0  0  0  0
 22 26  1  0  0  0  0
 22 59  1  0  0  0  0
 23 29  2  0  0  0  0
 23 30  1  0  0  0  0
 24 28  1  0  0  0  0
 24 60  1  0  0  0  0
 24 61  1  0  0  0  0
 25 27  1  0  0  0  0
 26 62  1  0  0  0  0
 27 31  2  0  0  0  0
 27 34  1  0  0  0  0
 28 63  1  0  0  0  0
 28 64  1  0  0  0  0
 28 65  1  0  0  0  0
 29 32  1  0  0  0  0
 29 66  1  0  0  0  0
 30 33  2  0  0  0  0
 30 67  1  0  0  0  0
 31 36  1  0  0  0  0
 32 35  2  0  0  0  0
 32 68  1  0  0  0  0
 33 35  1  0  0  0  0
 33 69  1  0  0  0  0
 34 37  2  0  0  0  0
 34 70  1  0  0  0  0
 35 71  1  0  0  0  0
 36 38  2  0  0  0  0
 37 38  1  0  0  0  0
 37 72  1  0  0  0  0
 38 73  1  0  0  0  0
 39 74  1  0  0  0  0
 39 75  1  0  0  0  0
 39 76  1  0  0  0  0
 40 77  1  0  0  0  0
 40 78  1  0  0  0  0
 40 79  1  0  0  0  0
M  END
> <PUBCHEM_COMPOUND_CID>
506801
> <PUBCHEM_COMPOUND_CANONICALIZED>
1
> <PUBCHEM_CACTVS_COMPLEXITY>
847
> <PUBCHEM_CACTVS_HBOND_ACCEPTOR>
7
> <PUBCHEM_CACTVS_HBOND_DONOR>
2
> <PUBCHEM_CACTVS_ROTATABLE_BOND>
13
> <PUBCHEM_CACTVS_SUBSKEYS>
AAADcfB7OAAAAAAAAAAAAAAAAAAAAWAAAAAwYAAAAAAAAAABQAAAHgAQAAAADTzhmAYyBoPABACIAilSkACCCAAkIAAIiIGOjMgPZjaEtTuXMWpm9hGaqYe6yTCOAAABAAAIQAAAAAIAABCAAAAAAAAAAA==
> <PUBCHEM_IUPAC_OPENEYE_NAME>
(2S,4R)-4-benzyloxy-1-[(2S)-2-[(2,3-dimethoxybenzoyl)amino]-3-methyl-butanoyl]-N-[(1S)-1-formylpropyl]pyrrolidine-2-carboxamide
> <PUBCHEM_IUPAC_CAS_NAME>
(2S,4R)-1-[(2S)-2-[[(2,3-dimethoxyphenyl)-oxomethyl]amino]-3-methyl-1-oxobutyl]-N-[(2S)-1-oxobutan-2-yl]-4-phenylmethoxy-2-pyrrolidinecarboxamide
> <PUBCHEM_IUPAC_NAME_MARKUP>
(2<I>S</I>,4<I>R</I>)-1-[(2<I>S</I>)-2-[(2,3-dimethoxybenzoyl)amino]-3-methylbutanoyl]-<I>N</I>-[(2<I>S</I>)-1-oxobutan-2-yl]-4-phenylmethoxypyrrolidine-2-carboxamide
> <PUBCHEM_IUPAC_NAME>
(2S,4R)-1-[(2S)-2-[(2,3-dimethoxybenzoyl)amino]-3-methylbutanoyl]-N-[(2S)-1-oxobutan-2-yl]-4-phenylmethoxypyrrolidine-2-carboxamide
> <PUBCHEM_IUPAC_SYSTEMATIC_NAME>
(2S,4R)-1-[(2S)-2-[(2,3-dimethoxyphenyl)carbonylamino]-3-methyl-butanoyl]-N-[(2S)-1-oxidanylidenebutan-2-yl]-4-phenylmethoxy-pyrrolidine-2-carboxamide
> <PUBCHEM_IUPAC_TRADITIONAL_NAME>
(2S,4R)-4-benzoxy-N-[(1S)-1-formylpropyl]-1-[(2S)-3-methyl-2-(o-veratroylamino)butanoyl]pyrrolidine-2-carboxamide
> <PUBCHEM_IUPAC_INCHI>
InChI=1S/C30H39N3O7/c1-6-21(17-34)31-29(36)24-15-22(40-18-20-11-8-7-9-12-20)16-33(24)30(37)26(19(2)3)32-28(35)23-13-10-14-25(38-4)27(23)39-5/h7-14,17,19,21-22,24,26H,6,15-16,18H2,1-5H3,(H,31,36)(H,32,35)/t21-,22+,24-,26-/m0/s1
> <PUBCHEM_IUPAC_INCHIKEY>
QJIREFKCIFTOIU-VAJMTYMLSA-N
> <PUBCHEM_XLOGP3_AA>
3.4
> <PUBCHEM_EXACT_MASS>
553.27880059
> <PUBCHEM_MOLECULAR_FORMULA>
C30H39N3O7
> <PUBCHEM_MOLECULAR_WEIGHT>
553.6
> <PUBCHEM_OPENEYE_CAN_SMILES>
CCC(C=O)NC(=O)C1CC(CN1C(=O)C(C(C)C)NC(=O)C2=C(C(=CC=C2)OC)OC)OCC3=CC=CC=C3
> <PUBCHEM_OPENEYE_ISO_SMILES>
CC[C@@H](C=O)NC(=O)[C@@H]1C[C@H](CN1C(=O)[C@H](C(C)C)NC(=O)C2=C(C(=CC=C2)OC)OC)OCC3=CC=CC=C3
> <PUBCHEM_CACTVS_TPSA>
123
> <PUBCHEM_MONOISOTOPIC_WEIGHT>
553.27880059
> <PUBCHEM_TOTAL_CHARGE>
0
> <PUBCHEM_HEAVY_ATOM_COUNT>
40
> <PUBCHEM_ATOM_DEF_STEREO_COUNT>
4
> <PUBCHEM_ATOM_UDEF_STEREO_COUNT>
0
> <PUBCHEM_BOND_DEF_STEREO_COUNT>
0
> <PUBCHEM_BOND_UDEF_STEREO_COUNT>
0
> <PUBCHEM_ISOTOPIC_ATOM_COUNT>
0
> <PUBCHEM_COMPONENT_COUNT>
1
> <PUBCHEM_CACTVS_TAUTO_COUNT>
-1
> <PUBCHEM_COORDINATE_TYPE>
1
5
255
> <PUBCHEM_BONDANNOTATIONS>
12  1  6
16  10  5
11  17  5
23  29  8
23  30  8
27  31  8
27  34  8
29  32  8
30  33  8
31  36  8
32  35  8
33  35  8
34  37  8
36  38  8
37  38  8
22  9  6
$$$$
