506819
  -OEChem-10302200282D
 84 87  0     1  0  0  0  0  0999 V2000
    8.2363   -2.4687    0.0000 O   0  0  0  0  0  0  0  0  0  0  0  0
    6.2824    1.3792    0.0000 O   0  0  0  0  0  0  0  0  0  0  0  0
    5.1805    0.5785    0.0000 O   0  0  0  0  0  0  0  0  0  0  0  0
    9.7465    2.3792    0.0000 O   0  0  0  0  0  0  0  0  0  0  0  0
    2.0000   -1.1198    0.0000 O   0  0  0  0  0  0  0  0  0  0  0  0
    7.1485    3.8792    0.0000 O   0  0  0  0  0  0  0  0  0  0  0  0
    7.1485   -0.1208    0.0000 N   0  0  0  0  0  0  0  0  0  0  0  0
    4.6453   -1.0687    0.0000 N   0  0  0  0  0  0  0  0  0  0  0  0
    8.0145    2.3792    0.0000 N   0  0  0  0  0  0  0  0  0  0  0  0
    6.3395   -0.7086    0.0000 C   0  0  1  0  0  0  0  0  0  0  0  0
    7.6485   -1.6597    0.0000 C   0  0  2  0  0  0  0  0  0  0  0  0
    6.6485   -1.6597    0.0000 C   0  0  0  0  0  0  0  0  0  0  0  0
    7.9575   -0.7086    0.0000 C   0  0  0  0  0  0  0  0  0  0  0  0
    7.1485    0.8792    0.0000 C   0  0  0  0  0  0  0  0  0  0  0  0
    8.0145    1.3792    0.0000 C   0  0  2  0  0  0  0  0  0  0  0  0
    5.3884   -0.3996    0.0000 C   0  0  0  0  0  0  0  0  0  0  0  0
    8.8805    0.8792    0.0000 C   0  0  0  0  0  0  0  0  0  0  0  0
    7.8295   -3.3822    0.0000 C   0  0  0  0  0  0  0  0  0  0  0  0
    8.8805   -0.1208    0.0000 C   0  0  0  0  0  0  0  0  0  0  0  0
    9.7465    1.3792    0.0000 C   0  0  0  0  0  0  0  0  0  0  0  0
    3.6942   -0.7597    0.0000 C   0  0  1  0  0  0  0  0  0  0  0  0
    8.4173   -4.1913    0.0000 C   0  0  0  0  0  0  0  0  0  0  0  0
    8.8805    2.8792    0.0000 C   0  0  0  0  0  0  0  0  0  0  0  0
    3.4863    0.2184    0.0000 C   0  0  0  0  0  0  0  0  0  0  0  0
    2.9511   -1.4288    0.0000 C   0  0  0  0  0  0  0  0  0  0  0  0
    8.8805    3.8792    0.0000 C   0  0  0  0  0  0  0  0  0  0  0  0
    2.5352    0.5274    0.0000 C   0  0  0  0  0  0  0  0  0  0  0  0
    9.4118   -4.0867    0.0000 C   0  0  0  0  0  0  0  0  0  0  0  0
    8.0106   -5.1048    0.0000 C   0  0  0  0  0  0  0  0  0  0  0  0
    9.7465    4.3792    0.0000 C   0  0  0  0  0  0  0  0  0  0  0  0
    8.0145    4.3792    0.0000 C   0  0  0  0  0  0  0  0  0  0  0  0
    9.7465    5.3792    0.0000 C   0  0  0  0  0  0  0  0  0  0  0  0
    9.9996   -4.8957    0.0000 C   0  0  0  0  0  0  0  0  0  0  0  0
    8.5984   -5.9138    0.0000 C   0  0  0  0  0  0  0  0  0  0  0  0
    8.0145    5.3792    0.0000 C   0  0  0  0  0  0  0  0  0  0  0  0
    9.5929   -5.8093    0.0000 C   0  0  0  0  0  0  0  0  0  0  0  0
   10.6405    3.8445    0.0000 C   0  0  0  0  0  0  0  0  0  0  0  0
    8.8805    5.8792    0.0000 C   0  0  0  0  0  0  0  0  0  0  0  0
   10.6405    5.9138    0.0000 C   0  0  0  0  0  0  0  0  0  0  0  0
   11.5466    4.3584    0.0000 C   0  0  0  0  0  0  0  0  0  0  0  0
   11.5466    5.4000    0.0000 C   0  0  0  0  0  0  0  0  0  0  0  0
    6.2824    4.3792    0.0000 C   0  0  0  0  0  0  0  0  0  0  0  0
    5.4164    3.8792    0.0000 C   0  0  0  0  0  0  0  0  0  0  0  0
    6.2425   -0.0963    0.0000 H   0  0  0  0  0  0  0  0  0  0  0  0
    7.3670   -2.2121    0.0000 H   0  0  0  0  0  0  0  0  0  0  0  0
    6.0420   -1.7886    0.0000 H   0  0  0  0  0  0  0  0  0  0  0  0
    6.7133   -2.2763    0.0000 H   0  0  0  0  0  0  0  0  0  0  0  0
    8.5239   -0.9608    0.0000 H   0  0  0  0  0  0  0  0  0  0  0  0
    8.2675   -0.1717    0.0000 H   0  0  0  0  0  0  0  0  0  0  0  0
    8.5514    1.6892    0.0000 H   0  0  0  0  0  0  0  0  0  0  0  0
    8.3436    0.5692    0.0000 H   0  0  0  0  0  0  0  0  0  0  0  0
    4.7742   -1.6752    0.0000 H   0  0  0  0  0  0  0  0  0  0  0  0
    7.4776    2.6892    0.0000 H   0  0  0  0  0  0  0  0  0  0  0  0
    7.3155   -3.0355    0.0000 H   0  0  0  0  0  0  0  0  0  0  0  0
    7.3988   -3.8282    0.0000 H   0  0  0  0  0  0  0  0  0  0  0  0
    8.2605   -0.1208    0.0000 H   0  0  0  0  0  0  0  0  0  0  0  0
    8.8805   -0.7408    0.0000 H   0  0  0  0  0  0  0  0  0  0  0  0
    9.5005   -0.1208    0.0000 H   0  0  0  0  0  0  0  0  0  0  0  0
   10.0566    0.8422    0.0000 H   0  0  0  0  0  0  0  0  0  0  0  0
   10.2835    1.6892    0.0000 H   0  0  0  0  0  0  0  0  0  0  0  0
    9.4366    1.9161    0.0000 H   0  0  0  0  0  0  0  0  0  0  0  0
    3.8231   -1.3662    0.0000 H   0  0  0  0  0  0  0  0  0  0  0  0
    4.1059    0.2401    0.0000 H   0  0  0  0  0  0  0  0  0  0  0  0
    3.5726    0.8324    0.0000 H   0  0  0  0  0  0  0  0  0  0  0  0
    3.0800   -2.0353    0.0000 H   0  0  0  0  0  0  0  0  0  0  0  0
    2.7268    1.1171    0.0000 H   0  0  0  0  0  0  0  0  0  0  0  0
    1.9456    0.7190    0.0000 H   0  0  0  0  0  0  0  0  0  0  0  0
    2.3436   -0.0622    0.0000 H   0  0  0  0  0  0  0  0  0  0  0  0
    9.6640   -3.5203    0.0000 H   0  0  0  0  0  0  0  0  0  0  0  0
    7.3940   -5.1696    0.0000 H   0  0  0  0  0  0  0  0  0  0  0  0
   10.6162   -4.8309    0.0000 H   0  0  0  0  0  0  0  0  0  0  0  0
    8.3462   -6.4802    0.0000 H   0  0  0  0  0  0  0  0  0  0  0  0
    7.4776    5.6892    0.0000 H   0  0  0  0  0  0  0  0  0  0  0  0
    9.9573   -6.3109    0.0000 H   0  0  0  0  0  0  0  0  0  0  0  0
   10.6333    3.2245    0.0000 H   0  0  0  0  0  0  0  0  0  0  0  0
    8.8805    6.4992    0.0000 H   0  0  0  0  0  0  0  0  0  0  0  0
   10.6333    6.5338    0.0000 H   0  0  0  0  0  0  0  0  0  0  0  0
   12.0823    4.0463    0.0000 H   0  0  0  0  0  0  0  0  0  0  0  0
   12.0823    5.7120    0.0000 H   0  0  0  0  0  0  0  0  0  0  0  0
    6.6810    4.8541    0.0000 H   0  0  0  0  0  0  0  0  0  0  0  0
    5.8839    4.8541    0.0000 H   0  0  0  0  0  0  0  0  0  0  0  0
    5.1064    4.4161    0.0000 H   0  0  0  0  0  0  0  0  0  0  0  0
    4.8795    3.5692    0.0000 H   0  0  0  0  0  0  0  0  0  0  0  0
    5.7264    3.3422    0.0000 H   0  0  0  0  0  0  0  0  0  0  0  0
 11  1  1  6  0  0  0
  1 18  1  0  0  0  0
  2 14  2  0  0  0  0
  3 16  2  0  0  0  0
  4 23  2  0  0  0  0
  5 25  2  0  0  0  0
  6 31  1  0  0  0  0
  6 42  1  0  0  0  0
  7 10  1  0  0  0  0
  7 13  1  0  0  0  0
  7 14  1  0  0  0  0
  8 16  1  0  0  0  0
 21  8  1  6  0  0  0
  8 52  1  0  0  0  0
 15  9  1  1  0  0  0
  9 23  1  0  0  0  0
  9 53  1  0  0  0  0
 10 12  1  0  0  0  0
 10 16  1  1  0  0  0
 10 44  1  0  0  0  0
 11 12  1  0  0  0  0
 11 13  1  0  0  0  0
 11 45  1  0  0  0  0
 12 46  1  0  0  0  0
 12 47  1  0  0  0  0
 13 48  1  0  0  0  0
 13 49  1  0  0  0  0
 14 15  1  0  0  0  0
 15 17  1  0  0  0  0
 15 50  1  0  0  0  0
 17 19  1  0  0  0  0
 17 20  1  0  0  0  0
 17 51  1  0  0  0  0
 18 22  1  0  0  0  0
 18 54  1  0  0  0  0
 18 55  1  0  0  0  0
 19 56  1  0  0  0  0
 19 57  1  0  0  0  0
 19 58  1  0  0  0  0
 20 59  1  0  0  0  0
 20 60  1  0  0  0  0
 20 61  1  0  0  0  0
 21 24  1  0  0  0  0
 21 25  1  0  0  0  0
 21 62  1  0  0  0  0
 22 28  2  0  0  0  0
 22 29  1  0  0  0  0
 23 26  1  0  0  0  0
 24 27  1  0  0  0  0
 24 63  1  0  0  0  0
 24 64  1  0  0  0  0
 25 65  1  0  0  0  0
 26 30  1  0  0  0  0
 26 31  2  0  0  0  0
 27 66  1  0  0  0  0
 27 67  1  0  0  0  0
 27 68  1  0  0  0  0
 28 33  1  0  0  0  0
 28 69  1  0  0  0  0
 29 34  2  0  0  0  0
 29 70  1  0  0  0  0
 30 32  1  0  0  0  0
 30 37  2  0  0  0  0
 31 35  1  0  0  0  0
 32 38  1  0  0  0  0
 32 39  2  0  0  0  0
 33 36  2  0  0  0  0
 33 71  1  0  0  0  0
 34 36  1  0  0  0  0
 34 72  1  0  0  0  0
 35 38  2  0  0  0  0
 35 73  1  0  0  0  0
 36 74  1  0  0  0  0
 37 40  1  0  0  0  0
 37 75  1  0  0  0  0
 38 76  1  0  0  0  0
 39 41  1  0  0  0  0
 39 77  1  0  0  0  0
 40 41  2  0  0  0  0
 40 78  1  0  0  0  0
 41 79  1  0  0  0  0
 42 43  1  0  0  0  0
 42 80  1  0  0  0  0
 42 81  1  0  0  0  0
 43 82  1  0  0  0  0
 43 83  1  0  0  0  0
 43 84  1  0  0  0  0
M  END
> <PUBCHEM_COMPOUND_CID>
506819
> <PUBCHEM_COMPOUND_CANONICALIZED>
1
> <PUBCHEM_CACTVS_COMPLEXITY>
937
> <PUBCHEM_CACTVS_HBOND_ACCEPTOR>
6
> <PUBCHEM_CACTVS_HBOND_DONOR>
2
> <PUBCHEM_CACTVS_ROTATABLE_BOND>
13
> <PUBCHEM_CACTVS_SUBSKEYS>
AAADcfB/OAAAAAAAAAAAAAAAAAAAAWAAAAAwYMAAAAAAAADBVAAAHgAQAAAADTzhmAYyBsPABACIAilSkACCCAAkIAAIiIGODMgOZjaEtTuXOWjm9hGYqQe6yfCOoAADAAAYAABAAAYAADAAAAAAAAAAAA==
> <PUBCHEM_IUPAC_OPENEYE_NAME>
(2S,4R)-4-benzyloxy-1-[(2S)-2-[(2-ethoxynaphthalene-1-carbonyl)amino]-3-methyl-butanoyl]-N-[(1S)-1-formylpropyl]pyrrolidine-2-carboxamide
> <PUBCHEM_IUPAC_CAS_NAME>
(2S,4R)-1-[(2S)-2-[[(2-ethoxy-1-naphthalenyl)-oxomethyl]amino]-3-methyl-1-oxobutyl]-N-[(2S)-1-oxobutan-2-yl]-4-phenylmethoxy-2-pyrrolidinecarboxamide
> <PUBCHEM_IUPAC_NAME_MARKUP>
(2<I>S</I>,4<I>R</I>)-1-[(2<I>S</I>)-2-[(2-ethoxynaphthalene-1-carbonyl)amino]-3-methylbutanoyl]-<I>N</I>-[(2<I>S</I>)-1-oxobutan-2-yl]-4-phenylmethoxypyrrolidine-2-carboxamide
> <PUBCHEM_IUPAC_NAME>
(2S,4R)-1-[(2S)-2-[(2-ethoxynaphthalene-1-carbonyl)amino]-3-methylbutanoyl]-N-[(2S)-1-oxobutan-2-yl]-4-phenylmethoxypyrrolidine-2-carboxamide
> <PUBCHEM_IUPAC_SYSTEMATIC_NAME>
(2S,4R)-1-[(2S)-2-[(2-ethoxynaphthalen-1-yl)carbonylamino]-3-methyl-butanoyl]-N-[(2S)-1-oxidanylidenebutan-2-yl]-4-phenylmethoxy-pyrrolidine-2-carboxamide
> <PUBCHEM_IUPAC_TRADITIONAL_NAME>
(2S,4R)-4-benzoxy-1-[(2S)-2-[(2-ethoxy-1-naphthoyl)amino]-3-methyl-butanoyl]-N-[(1S)-1-formylpropyl]pyrrolidine-2-carboxamide
> <PUBCHEM_IUPAC_INCHI>
InChI=1S/C34H41N3O6/c1-5-25(20-38)35-32(39)28-18-26(43-21-23-12-8-7-9-13-23)19-37(28)34(41)31(22(3)4)36-33(40)30-27-15-11-10-14-24(27)16-17-29(30)42-6-2/h7-17,20,22,25-26,28,31H,5-6,18-19,21H2,1-4H3,(H,35,39)(H,36,40)/t25-,26+,28-,31-/m0/s1
> <PUBCHEM_IUPAC_INCHIKEY>
UDAVDXDJKNZQDS-QSVRYFJJSA-N
> <PUBCHEM_XLOGP3_AA>
5.1
> <PUBCHEM_EXACT_MASS>
587.29953604
> <PUBCHEM_MOLECULAR_FORMULA>
C34H41N3O6
> <PUBCHEM_MOLECULAR_WEIGHT>
587.7
> <PUBCHEM_OPENEYE_CAN_SMILES>
CCC(C=O)NC(=O)C1CC(CN1C(=O)C(C(C)C)NC(=O)C2=C(C=CC3=CC=CC=C32)OCC)OCC4=CC=CC=C4
> <PUBCHEM_OPENEYE_ISO_SMILES>
CC[C@@H](C=O)NC(=O)[C@@H]1C[C@H](CN1C(=O)[C@H](C(C)C)NC(=O)C2=C(C=CC3=CC=CC=C32)OCC)OCC4=CC=CC=C4
> <PUBCHEM_CACTVS_TPSA>
114
> <PUBCHEM_MONOISOTOPIC_WEIGHT>
587.29953604
> <PUBCHEM_TOTAL_CHARGE>
0
> <PUBCHEM_HEAVY_ATOM_COUNT>
43
> <PUBCHEM_ATOM_DEF_STEREO_COUNT>
4
> <PUBCHEM_ATOM_UDEF_STEREO_COUNT>
0
> <PUBCHEM_BOND_DEF_STEREO_COUNT>
0
> <PUBCHEM_BOND_UDEF_STEREO_COUNT>
0
> <PUBCHEM_ISOTOPIC_ATOM_COUNT>
0
> <PUBCHEM_COMPONENT_COUNT>
1
> <PUBCHEM_CACTVS_TAUTO_COUNT>
-1
> <PUBCHEM_COORDINATE_TYPE>
1
5
255
> <PUBCHEM_BONDANNOTATIONS>
11  1  6
10  16  5
22  28  8
22  29  8
26  30  8
26  31  8
28  33  8
29  34  8
30  32  8
30  37  8
31  35  8
32  38  8
32  39  8
33  36  8
34  36  8
35  38  8
37  40  8
39  41  8
40  41  8
21  8  6
15  9  5
$$$$
