507065
  -OEChem-10302200282D
130131  0     1  0  0  0  0  0999 V2000
    8.0622   -6.8100    0.0000 O   0  0  0  0  0  0  0  0  0  0  0  0
    5.4641   -4.3100    0.0000 O   0  0  0  0  0  0  0  0  0  0  0  0
    6.3301   -0.8100    0.0000 O   0  0  0  0  0  0  0  0  0  0  0  0
   10.6603   -4.3100    0.0000 O   0  0  0  0  0  0  0  0  0  0  0  0
    6.3301    0.1900    0.0000 O   0  0  0  0  0  0  0  0  0  0  0  0
    5.4641    3.6900    0.0000 O   0  0  0  0  0  0  0  0  0  0  0  0
    3.7320    4.6900    0.0000 O   0  0  0  0  0  0  0  0  0  0  0  0
    2.8660    3.1900    0.0000 O   0  0  0  0  0  0  0  0  0  0  0  0
    8.9282    4.6900    0.0000 O   0  0  0  0  0  0  0  0  0  0  0  0
   10.6603    3.6900    0.0000 O   0  0  0  0  0  0  0  0  0  0  0  0
    9.7942    2.1900    0.0000 O   0  0  0  0  0  0  0  0  0  0  0  0
    9.7942    8.1900    0.0000 O   0  0  0  0  0  0  0  0  0  0  0  0
    8.0622    8.1900    0.0000 O   0  0  0  0  0  0  0  0  0  0  0  0
    7.1962   -4.3100    0.0000 N   0  0  0  0  0  0  0  0  0  0  0  0
    8.9282   -5.3100    0.0000 N   0  0  0  0  0  0  0  0  0  0  0  0
    5.4641   -2.3100    0.0000 N   0  0  0  0  0  0  0  0  0  0  0  0
    4.5981    0.1900    0.0000 N   0  0  0  0  0  0  0  0  0  0  0  0
    6.3301    2.1900    0.0000 N   0  0  0  0  0  0  0  0  0  0  0  0
   12.4398   -5.4033    0.0000 N   0  0  0  0  0  0  0  0  0  0  0  0
   11.6308   -6.8045    0.0000 N   0  0  0  0  0  0  0  0  0  0  0  0
   13.1090   -6.1464    0.0000 N   0  0  0  0  0  0  0  0  0  0  0  0
   12.6090   -7.0124    0.0000 N   0  0  0  0  0  0  0  0  0  0  0  0
    7.1962    4.6900    0.0000 N   0  0  0  0  0  0  0  0  0  0  0  0
    6.3301   -6.8100    0.0000 C   0  0  0  0  0  0  0  0  0  0  0  0
    5.4641   -7.3100    0.0000 C   0  0  0  0  0  0  0  0  0  0  0  0
    7.1962   -7.3100    0.0000 C   0  0  0  0  0  0  0  0  0  0  0  0
    6.3301   -5.8100    0.0000 C   0  0  0  0  0  0  0  0  0  0  0  0
    5.4641   -8.3100    0.0000 C   0  0  0  0  0  0  0  0  0  0  0  0
    7.1962   -8.3100    0.0000 C   0  0  0  0  0  0  0  0  0  0  0  0
    6.3301   -8.8100    0.0000 C   0  0  0  0  0  0  0  0  0  0  0  0
    7.1962   -5.3100    0.0000 C   0  0  1  0  0  0  0  0  0  0  0  0
    8.0622   -5.8100    0.0000 C   0  0  0  0  0  0  0  0  0  0  0  0
    6.3301   -2.8100    0.0000 C   0  0  2  0  0  0  0  0  0  0  0  0
    6.3301   -3.8100    0.0000 C   0  0  0  0  0  0  0  0  0  0  0  0
    7.1962   -2.3100    0.0000 C   0  0  2  0  0  0  0  0  0  0  0  0
    9.7942   -5.8100    0.0000 C   0  0  3  0  0  0  0  0  0  0  0  0
    7.1962   -1.3100    0.0000 C   0  0  0  0  0  0  0  0  0  0  0  0
    8.0622   -2.8100    0.0000 C   0  0  0  0  0  0  0  0  0  0  0  0
    9.7942   -6.8100    0.0000 C   0  0  0  0  0  0  0  0  0  0  0  0
    4.5981   -0.8100    0.0000 C   0  0  2  0  0  0  0  0  0  0  0  0
    5.4641   -1.3100    0.0000 C   0  0  0  0  0  0  0  0  0  0  0  0
    3.7320   -1.3100    0.0000 C   0  0  0  0  0  0  0  0  0  0  0  0
   10.6603   -5.3100    0.0000 C   0  0  0  0  0  0  0  0  0  0  0  0
    8.0622   -0.8100    0.0000 C   0  0  0  0  0  0  0  0  0  0  0  0
   10.6603   -7.3100    0.0000 C   0  0  0  0  0  0  0  0  0  0  0  0
    2.8660   -0.8100    0.0000 C   0  0  0  0  0  0  0  0  0  0  0  0
   11.5263   -5.8100    0.0000 C   0  0  0  0  0  0  0  0  0  0  0  0
    2.0000   -1.3100    0.0000 C   0  0  0  0  0  0  0  0  0  0  0  0
    2.8660    0.1900    0.0000 C   0  0  0  0  0  0  0  0  0  0  0  0
    5.4641    0.6900    0.0000 C   0  0  0  0  0  0  0  0  0  0  0  0
   10.6603   -8.3100    0.0000 C   0  0  0  0  0  0  0  0  0  0  0  0
    5.4641    1.6900    0.0000 C   0  0  1  0  0  0  0  0  0  0  0  0
    4.5981    2.1900    0.0000 C   0  0  0  0  0  0  0  0  0  0  0  0
    4.5981    3.1900    0.0000 C   0  0  0  0  0  0  0  0  0  0  0  0
    6.3301    3.1900    0.0000 C   0  0  0  0  0  0  0  0  0  0  0  0
    7.1962    3.6900    0.0000 C   0  0  2  0  0  0  0  0  0  0  0  0
    8.0622    3.1900    0.0000 C   0  0  0  0  0  0  0  0  0  0  0  0
    3.7320    3.6900    0.0000 C   0  0  0  0  0  0  0  0  0  0  0  0
    8.9282    3.6900    0.0000 C   0  0  0  0  0  0  0  0  0  0  0  0
    8.0622    5.1900    0.0000 C   0  0  0  0  0  0  0  0  0  0  0  0
    8.0622    6.1900    0.0000 C   0  0  0  0  0  0  0  0  0  0  0  0
    9.7942    3.1900    0.0000 C   0  0  0  0  0  0  0  0  0  0  0  0
    8.9282    6.6900    0.0000 C   0  0  0  0  0  0  0  0  0  0  0  0
    8.9282    7.6900    0.0000 C   0  0  0  0  0  0  0  0  0  0  0  0
    6.8671   -6.5000    0.0000 H   0  0  0  0  0  0  0  0  0  0  0  0
    5.2520   -6.7274    0.0000 H   0  0  0  0  0  0  0  0  0  0  0  0
    4.8535   -7.4177    0.0000 H   0  0  0  0  0  0  0  0  0  0  0  0
    7.8067   -7.4177    0.0000 H   0  0  0  0  0  0  0  0  0  0  0  0
    7.4082   -6.7274    0.0000 H   0  0  0  0  0  0  0  0  0  0  0  0
    6.1181   -5.2274    0.0000 H   0  0  0  0  0  0  0  0  0  0  0  0
    5.7196   -5.9177    0.0000 H   0  0  0  0  0  0  0  0  0  0  0  0
    4.8535   -8.2023    0.0000 H   0  0  0  0  0  0  0  0  0  0  0  0
    5.2520   -8.8926    0.0000 H   0  0  0  0  0  0  0  0  0  0  0  0
    7.4082   -8.8926    0.0000 H   0  0  0  0  0  0  0  0  0  0  0  0
    7.8067   -8.2023    0.0000 H   0  0  0  0  0  0  0  0  0  0  0  0
    5.9316   -9.2850    0.0000 H   0  0  0  0  0  0  0  0  0  0  0  0
    6.7287   -9.2850    0.0000 H   0  0  0  0  0  0  0  0  0  0  0  0
    6.6592   -5.0000    0.0000 H   0  0  0  0  0  0  0  0  0  0  0  0
    7.7331   -4.0000    0.0000 H   0  0  0  0  0  0  0  0  0  0  0  0
    5.7932   -3.1200    0.0000 H   0  0  0  0  0  0  0  0  0  0  0  0
    7.7331   -2.0000    0.0000 H   0  0  0  0  0  0  0  0  0  0  0  0
    8.9282   -4.6900    0.0000 H   0  0  0  0  0  0  0  0  0  0  0  0
    9.2573   -6.1200    0.0000 H   0  0  0  0  0  0  0  0  0  0  0  0
    4.9272   -2.6200    0.0000 H   0  0  0  0  0  0  0  0  0  0  0  0
    6.9841   -0.7274    0.0000 H   0  0  0  0  0  0  0  0  0  0  0  0
    6.5856   -1.4177    0.0000 H   0  0  0  0  0  0  0  0  0  0  0  0
    7.7522   -3.3469    0.0000 H   0  0  0  0  0  0  0  0  0  0  0  0
    8.5991   -3.1200    0.0000 H   0  0  0  0  0  0  0  0  0  0  0  0
    8.3722   -2.2731    0.0000 H   0  0  0  0  0  0  0  0  0  0  0  0
    9.1836   -6.7023    0.0000 H   0  0  0  0  0  0  0  0  0  0  0  0
    9.5822   -7.3926    0.0000 H   0  0  0  0  0  0  0  0  0  0  0  0
    5.1350   -0.5000    0.0000 H   0  0  0  0  0  0  0  0  0  0  0  0
    3.3335   -1.7850    0.0000 H   0  0  0  0  0  0  0  0  0  0  0  0
    4.1306   -1.7850    0.0000 H   0  0  0  0  0  0  0  0  0  0  0  0
    8.3722   -1.3469    0.0000 H   0  0  0  0  0  0  0  0  0  0  0  0
    8.5991   -0.5000    0.0000 H   0  0  0  0  0  0  0  0  0  0  0  0
    7.7522   -0.2731    0.0000 H   0  0  0  0  0  0  0  0  0  0  0  0
   11.2708   -7.4177    0.0000 H   0  0  0  0  0  0  0  0  0  0  0  0
   10.8723   -6.7274    0.0000 H   0  0  0  0  0  0  0  0  0  0  0  0
    2.8660   -1.4300    0.0000 H   0  0  0  0  0  0  0  0  0  0  0  0
    4.0611    0.5000    0.0000 H   0  0  0  0  0  0  0  0  0  0  0  0
    1.6900   -0.7731    0.0000 H   0  0  0  0  0  0  0  0  0  0  0  0
    1.4631   -1.6200    0.0000 H   0  0  0  0  0  0  0  0  0  0  0  0
    2.3100   -1.8469    0.0000 H   0  0  0  0  0  0  0  0  0  0  0  0
    3.4860    0.1900    0.0000 H   0  0  0  0  0  0  0  0  0  0  0  0
    2.8660    0.8100    0.0000 H   0  0  0  0  0  0  0  0  0  0  0  0
    2.2460    0.1900    0.0000 H   0  0  0  0  0  0  0  0  0  0  0  0
    5.4641    2.3100    0.0000 H   0  0  0  0  0  0  0  0  0  0  0  0
   10.0403   -8.3100    0.0000 H   0  0  0  0  0  0  0  0  0  0  0  0
   10.6603   -8.9300    0.0000 H   0  0  0  0  0  0  0  0  0  0  0  0
   11.2803   -8.3100    0.0000 H   0  0  0  0  0  0  0  0  0  0  0  0
    3.9875    2.2977    0.0000 H   0  0  0  0  0  0  0  0  0  0  0  0
    4.3860    1.6074    0.0000 H   0  0  0  0  0  0  0  0  0  0  0  0
    6.8671    1.8800    0.0000 H   0  0  0  0  0  0  0  0  0  0  0  0
    5.2087    3.0823    0.0000 H   0  0  0  0  0  0  0  0  0  0  0  0
    4.8101    3.7726    0.0000 H   0  0  0  0  0  0  0  0  0  0  0  0
    6.6592    4.0000    0.0000 H   0  0  0  0  0  0  0  0  0  0  0  0
    7.6636    2.7151    0.0000 H   0  0  0  0  0  0  0  0  0  0  0  0
    8.4607    2.7151    0.0000 H   0  0  0  0  0  0  0  0  0  0  0  0
   13.7256   -6.0816    0.0000 H   0  0  0  0  0  0  0  0  0  0  0  0
    6.6592    5.0000    0.0000 H   0  0  0  0  0  0  0  0  0  0  0  0
    9.3267    4.1650    0.0000 H   0  0  0  0  0  0  0  0  0  0  0  0
    8.5297    4.1650    0.0000 H   0  0  0  0  0  0  0  0  0  0  0  0
    7.8501    6.7726    0.0000 H   0  0  0  0  0  0  0  0  0  0  0  0
    7.4516    6.0823    0.0000 H   0  0  0  0  0  0  0  0  0  0  0  0
    3.1951    5.0000    0.0000 H   0  0  0  0  0  0  0  0  0  0  0  0
    9.1403    6.1074    0.0000 H   0  0  0  0  0  0  0  0  0  0  0  0
    9.5388    6.7977    0.0000 H   0  0  0  0  0  0  0  0  0  0  0  0
   11.1972    3.3800    0.0000 H   0  0  0  0  0  0  0  0  0  0  0  0
    9.7942    8.8100    0.0000 H   0  0  0  0  0  0  0  0  0  0  0  0
  1 32  2  0  0  0  0
  2 34  2  0  0  0  0
  3 41  2  0  0  0  0
  4 43  2  0  0  0  0
  5 50  2  0  0  0  0
  6 55  2  0  0  0  0
  7 58  1  0  0  0  0
  7126  1  0  0  0  0
  8 58  2  0  0  0  0
  9 60  2  0  0  0  0
 10 62  1  0  0  0  0
 10129  1  0  0  0  0
 11 62  2  0  0  0  0
 12 64  1  0  0  0  0
 12130  1  0  0  0  0
 13 64  2  0  0  0  0
 31 14  1  6  0  0  0
 14 34  1  0  0  0  0
 14 79  1  0  0  0  0
 15 32  1  0  0  0  0
 15 36  1  0  0  0  0
 15 82  1  0  0  0  0
 33 16  1  1  0  0  0
 16 41  1  0  0  0  0
 16 84  1  0  0  0  0
 40 17  1  6  0  0  0
 17 50  1  0  0  0  0
 17101  1  0  0  0  0
 52 18  1  1  0  0  0
 18 55  1  0  0  0  0
 18114  1  0  0  0  0
 19 21  1  0  0  0  0
 19 47  2  0  0  0  0
 20 22  2  0  0  0  0
 20 47  1  0  0  0  0
 21 22  1  0  0  0  0
 21120  1  0  0  0  0
 56 23  1  1  0  0  0
 23 60  1  0  0  0  0
 23121  1  0  0  0  0
 24 25  1  0  0  0  0
 24 26  1  0  0  0  0
 24 27  1  0  0  0  0
 24 65  1  0  0  0  0
 25 28  1  0  0  0  0
 25 66  1  0  0  0  0
 25 67  1  0  0  0  0
 26 29  1  0  0  0  0
 26 68  1  0  0  0  0
 26 69  1  0  0  0  0
 27 31  1  0  0  0  0
 27 70  1  0  0  0  0
 27 71  1  0  0  0  0
 28 30  1  0  0  0  0
 28 72  1  0  0  0  0
 28 73  1  0  0  0  0
 29 30  1  0  0  0  0
 29 74  1  0  0  0  0
 29 75  1  0  0  0  0
 30 76  1  0  0  0  0
 30 77  1  0  0  0  0
 31 32  1  0  0  0  0
 31 78  1  0  0  0  0
 33 34  1  0  0  0  0
 33 35  1  0  0  0  0
 33 80  1  0  0  0  0
 35 37  1  0  0  0  0
 35 38  1  6  0  0  0
 35 81  1  0  0  0  0
 36 39  1  0  0  0  0
 36 43  1  0  0  0  0
 36 83  1  0  0  0  0
 37 44  1  0  0  0  0
 37 85  1  0  0  0  0
 37 86  1  0  0  0  0
 38 87  1  0  0  0  0
 38 88  1  0  0  0  0
 38 89  1  0  0  0  0
 39 45  1  0  0  0  0
 39 90  1  0  0  0  0
 39 91  1  0  0  0  0
 40 41  1  0  0  0  0
 40 42  1  0  0  0  0
 40 92  1  0  0  0  0
 42 46  1  0  0  0  0
 42 93  1  0  0  0  0
 42 94  1  0  0  0  0
 43 47  1  0  0  0  0
 44 95  1  0  0  0  0
 44 96  1  0  0  0  0
 44 97  1  0  0  0  0
 45 51  1  0  0  0  0
 45 98  1  0  0  0  0
 45 99  1  0  0  0  0
 46 48  1  0  0  0  0
 46 49  1  0  0  0  0
 46100  1  0  0  0  0
 48102  1  0  0  0  0
 48103  1  0  0  0  0
 48104  1  0  0  0  0
 49105  1  0  0  0  0
 49106  1  0  0  0  0
 49107  1  0  0  0  0
 50 52  1  0  0  0  0
 51109  1  0  0  0  0
 51110  1  0  0  0  0
 51111  1  0  0  0  0
 52 53  1  0  0  0  0
 52108  1  0  0  0  0
 53 54  1  0  0  0  0
 53112  1  0  0  0  0
 53113  1  0  0  0  0
 54 58  1  0  0  0  0
 54115  1  0  0  0  0
 54116  1  0  0  0  0
 55 56  1  0  0  0  0
 56 57  1  0  0  0  0
 56117  1  0  0  0  0
 57 59  1  0  0  0  0
 57118  1  0  0  0  0
 57119  1  0  0  0  0
 59 62  1  0  0  0  0
 59122  1  0  0  0  0
 59123  1  0  0  0  0
 60 61  1  0  0  0  0
 61 63  1  0  0  0  0
 61124  1  0  0  0  0
 61125  1  0  0  0  0
 63 64  1  0  0  0  0
 63127  1  0  0  0  0
 63128  1  0  0  0  0
M  END
> <PUBCHEM_COMPOUND_CID>
507065
> <PUBCHEM_COMPOUND_CANONICALIZED>
1
> <PUBCHEM_CACTVS_COMPLEXITY>
1630
> <PUBCHEM_CACTVS_HBOND_ACCEPTOR>
16
> <PUBCHEM_CACTVS_HBOND_DONOR>
10
> <PUBCHEM_CACTVS_ROTATABLE_BOND>
30
> <PUBCHEM_CACTVS_SUBSKEYS>
AAADcfB//AAAAAAAAAAAAAAAAAAAAWAAAAAwAAAAAAAAAAABgAAAHgAYCAAADSzBgwQDGAbCAgAqAIOwOAAAAAICAAAUIIGoAAAAQBIAwCAUQAAEFgCAAAG/n4KOAAAAAAAAAAAAAAAAAAAAAAAAAAAAAA==
> <PUBCHEM_IUPAC_OPENEYE_NAME>
(4S)-5-[[(1R)-3-carboxy-1-[[(1S)-1-[[(1S,2S)-1-[[(1S)-1-(cyclohexylmethyl)-2-oxo-2-[1-(2H-tetrazole-5-carbonyl)butylamino]ethyl]carbamoyl]-2-methyl-butyl]carbamoyl]-3-methyl-butyl]carbamoyl]propyl]amino]-4-(3-carboxypropanoylamino)-5-oxo-pentanoic acid
> <PUBCHEM_IUPAC_CAS_NAME>
(4S)-5-[[(2R)-4-carboxy-1-[[(2S)-1-[[(2S,3S)-1-[[(2S)-3-cyclohexyl-1-oxo-1-[[1-oxo-1-(2H-tetrazol-5-yl)pentan-2-yl]amino]propan-2-yl]amino]-3-methyl-1-oxopentan-2-yl]amino]-4-methyl-1-oxopentan-2-yl]amino]-1-oxobutan-2-yl]amino]-4-[(3-carboxy-1-oxopropyl)amino]-5-oxopentanoic acid
> <PUBCHEM_IUPAC_NAME_MARKUP>
(4<I>S</I>)-5-[[(2<I>R</I>)-4-carboxy-1-[[(2<I>S</I>)-1-[[(2<I>S</I>,3<I>S</I>)-1-[[(2<I>S</I>)-3-cyclohexyl-1-oxo-1-[[1-oxo-1-(2<I>H</I>-tetrazol-5-yl)pentan-2-yl]amino]propan-2-yl]amino]-3-methyl-1-oxopentan-2-yl]amino]-4-methyl-1-oxopentan-2-yl]amino]-1-oxobutan-2-yl]amino]-4-(3-carboxypropanoylamino)-5-oxopentanoic acid
> <PUBCHEM_IUPAC_NAME>
(4S)-5-[[(2R)-4-carboxy-1-[[(2S)-1-[[(2S,3S)-1-[[(2S)-3-cyclohexyl-1-oxo-1-[[1-oxo-1-(2H-tetrazol-5-yl)pentan-2-yl]amino]propan-2-yl]amino]-3-methyl-1-oxopentan-2-yl]amino]-4-methyl-1-oxopentan-2-yl]amino]-1-oxobutan-2-yl]amino]-4-(3-carboxypropanoylamino)-5-oxopentanoic acid
> <PUBCHEM_IUPAC_SYSTEMATIC_NAME>
(4S)-5-[[(2R)-1-[[(2S)-1-[[(2S,3S)-1-[[(2S)-3-cyclohexyl-1-oxidanylidene-1-[[1-oxidanylidene-1-(2H-1,2,3,4-tetrazol-5-yl)pentan-2-yl]amino]propan-2-yl]amino]-3-methyl-1-oxidanylidene-pentan-2-yl]amino]-4-methyl-1-oxidanylidene-pentan-2-yl]amino]-5-oxidanyl-1,5-bis(oxidanylidene)pentan-2-yl]amino]-5-oxidanylidene-4-[(4-oxidanyl-4-oxidanylidene-butanoyl)amino]pentanoic acid
> <PUBCHEM_IUPAC_TRADITIONAL_NAME>
(4S)-5-[[(1R)-3-carboxy-1-[[(1S)-1-[[(1S,2S)-1-[[(1S)-1-(cyclohexylmethyl)-2-keto-2-[1-(2H-tetrazole-5-carbonyl)butylamino]ethyl]carbamoyl]-2-methyl-butyl]carbamoyl]-3-methyl-butyl]carbamoyl]propyl]amino]-4-(3-carboxypropanoylamino)-5-keto-valeric acid
> <PUBCHEM_IUPAC_INCHI>
InChI=1S/C41H66N10O13/c1-6-11-25(35(59)36-48-50-51-49-36)43-39(62)29(21-24-12-9-8-10-13-24)46-41(64)34(23(5)7-2)47-40(63)28(20-22(3)4)45-38(61)27(15-18-32(55)56)44-37(60)26(14-17-31(53)54)42-30(52)16-19-33(57)58/h22-29,34H,6-21H2,1-5H3,(H,42,52)(H,43,62)(H,44,60)(H,45,61)(H,46,64)(H,47,63)(H,53,54)(H,55,56)(H,57,58)(H,48,49,50,51)/t23-,25?,26-,27+,28-,29-,34-/m0/s1
> <PUBCHEM_IUPAC_INCHIKEY>
JIZNJJFFYITEPM-VUINELBVSA-N
> <PUBCHEM_XLOGP3_AA>
2.6
> <PUBCHEM_EXACT_MASS>
906.48108220
> <PUBCHEM_MOLECULAR_FORMULA>
C41H66N10O13
> <PUBCHEM_MOLECULAR_WEIGHT>
907.0
> <PUBCHEM_OPENEYE_CAN_SMILES>
CCCC(C(=O)C1=NNN=N1)NC(=O)C(CC2CCCCC2)NC(=O)C(C(C)CC)NC(=O)C(CC(C)C)NC(=O)C(CCC(=O)O)NC(=O)C(CCC(=O)O)NC(=O)CCC(=O)O
> <PUBCHEM_OPENEYE_ISO_SMILES>
CCCC(C(=O)C1=NNN=N1)NC(=O)[C@H](CC2CCCCC2)NC(=O)[C@H]([C@@H](C)CC)NC(=O)[C@H](CC(C)C)NC(=O)[C@@H](CCC(=O)O)NC(=O)[C@H](CCC(=O)O)NC(=O)CCC(=O)O
> <PUBCHEM_CACTVS_TPSA>
358
> <PUBCHEM_MONOISOTOPIC_WEIGHT>
906.48108220
> <PUBCHEM_TOTAL_CHARGE>
0
> <PUBCHEM_HEAVY_ATOM_COUNT>
64
> <PUBCHEM_ATOM_DEF_STEREO_COUNT>
6
> <PUBCHEM_ATOM_UDEF_STEREO_COUNT>
1
> <PUBCHEM_BOND_DEF_STEREO_COUNT>
0
> <PUBCHEM_BOND_UDEF_STEREO_COUNT>
0
> <PUBCHEM_ISOTOPIC_ATOM_COUNT>
0
> <PUBCHEM_COMPONENT_COUNT>
1
> <PUBCHEM_CACTVS_TAUTO_COUNT>
-1
> <PUBCHEM_COORDINATE_TYPE>
1
5
255
> <PUBCHEM_BONDANNOTATIONS>
31  14  6
33  16  5
40  17  6
52  18  5
19  21  8
19  47  8
20  22  8
20  47  8
21  22  8
56  23  5
35  38  6
36  39  3
$$$$
