507015
  -OEChem-10302200282D
 50 51  0     1  0  0  0  0  0999 V2000
    3.9890   -2.6244    0.0000 Si  0  0  0  0  0  0  0  0  0  0  0  0
    4.9836   -2.7289    0.0000 O   0  0  0  0  0  0  0  0  0  0  0  0
    6.8804   -0.9689    0.0000 O   0  0  0  0  0  0  0  0  0  0  0  0
    8.1537   -2.6244    0.0000 O   0  0  0  0  0  0  0  0  0  0  0  0
    7.8034    0.6189    0.0000 O   0  0  0  0  0  0  0  0  0  0  0  0
    6.0714    3.6189    0.0000 O   0  0  0  0  0  0  0  0  0  0  0  0
    6.0714    0.6189    0.0000 N   0  0  0  0  0  0  0  0  0  0  0  0
    6.9374    2.1189    0.0000 N   0  0  0  0  0  0  0  0  0  0  0  0
    2.9945   -2.5199    0.0000 C   0  0  0  0  0  0  0  0  0  0  0  0
    5.5714   -1.9199    0.0000 C   0  0  1  0  0  0  0  0  0  0  0  0
    5.2623   -0.9689    0.0000 C   0  0  0  0  0  0  0  0  0  0  0  0
    6.5714   -1.9199    0.0000 C   0  0  1  0  0  0  0  0  0  0  0  0
    6.0714   -0.3811    0.0000 C   0  0  1  0  0  0  0  0  0  0  0  0
    3.8845   -3.6189    0.0000 C   0  0  0  0  0  0  0  0  0  0  0  0
    4.0936   -1.6299    0.0000 C   0  0  0  0  0  0  0  0  0  0  0  0
    2.0000   -2.4154    0.0000 C   0  0  0  0  0  0  0  0  0  0  0  0
    2.8900   -3.5144    0.0000 C   0  0  0  0  0  0  0  0  0  0  0  0
    3.0990   -1.5254    0.0000 C   0  0  0  0  0  0  0  0  0  0  0  0
    7.1591   -2.7289    0.0000 C   0  0  0  0  0  0  0  0  0  0  0  0
    5.2053    1.1189    0.0000 C   0  0  0  0  0  0  0  0  0  0  0  0
    6.9374    1.1189    0.0000 C   0  0  0  0  0  0  0  0  0  0  0  0
    5.2053    2.1189    0.0000 C   0  0  0  0  0  0  0  0  0  0  0  0
    6.0714    2.6189    0.0000 C   0  0  0  0  0  0  0  0  0  0  0  0
    4.3393    2.6189    0.0000 C   0  0  0  0  0  0  0  0  0  0  0  0
    5.8528   -2.4723    0.0000 H   0  0  0  0  0  0  0  0  0  0  0  0
    4.9523   -0.4319    0.0000 H   0  0  0  0  0  0  0  0  0  0  0  0
    4.6959   -1.2210    0.0000 H   0  0  0  0  0  0  0  0  0  0  0  0
    7.1837   -1.8229    0.0000 H   0  0  0  0  0  0  0  0  0  0  0  0
    6.6238   -0.0996    0.0000 H   0  0  0  0  0  0  0  0  0  0  0  0
    3.2679   -3.5541    0.0000 H   0  0  0  0  0  0  0  0  0  0  0  0
    3.8197   -4.2355    0.0000 H   0  0  0  0  0  0  0  0  0  0  0  0
    4.5011   -3.6837    0.0000 H   0  0  0  0  0  0  0  0  0  0  0  0
    4.7102   -1.6947    0.0000 H   0  0  0  0  0  0  0  0  0  0  0  0
    4.1584   -1.0133    0.0000 H   0  0  0  0  0  0  0  0  0  0  0  0
    3.4770   -1.5651    0.0000 H   0  0  0  0  0  0  0  0  0  0  0  0
    2.0648   -1.7987    0.0000 H   0  0  0  0  0  0  0  0  0  0  0  0
    1.3834   -2.3505    0.0000 H   0  0  0  0  0  0  0  0  0  0  0  0
    1.9352   -3.0320    0.0000 H   0  0  0  0  0  0  0  0  0  0  0  0
    2.2734   -3.4496    0.0000 H   0  0  0  0  0  0  0  0  0  0  0  0
    2.8252   -4.1310    0.0000 H   0  0  0  0  0  0  0  0  0  0  0  0
    3.5066   -3.5792    0.0000 H   0  0  0  0  0  0  0  0  0  0  0  0
    3.7156   -1.5902    0.0000 H   0  0  0  0  0  0  0  0  0  0  0  0
    3.1639   -0.9088    0.0000 H   0  0  0  0  0  0  0  0  0  0  0  0
    2.4824   -1.4606    0.0000 H   0  0  0  0  0  0  0  0  0  0  0  0
    6.9070   -3.2953    0.0000 H   0  0  0  0  0  0  0  0  0  0  0  0
    4.6684    0.8089    0.0000 H   0  0  0  0  0  0  0  0  0  0  0  0
    7.4743    2.4289    0.0000 H   0  0  0  0  0  0  0  0  0  0  0  0
    4.6493    3.1559    0.0000 H   0  0  0  0  0  0  0  0  0  0  0  0
    3.8024    2.9289    0.0000 H   0  0  0  0  0  0  0  0  0  0  0  0
    4.0293    2.0820    0.0000 H   0  0  0  0  0  0  0  0  0  0  0  0
  1  2  1  0  0  0  0
  1  9  1  0  0  0  0
  1 14  1  0  0  0  0
  1 15  1  0  0  0  0
 10  2  1  1  0  0  0
  3 12  1  0  0  0  0
  3 13  1  0  0  0  0
  4 19  2  0  0  0  0
  5 21  2  0  0  0  0
  6 23  2  0  0  0  0
 13  7  1  6  0  0  0
  7 20  1  0  0  0  0
  7 21  1  0  0  0  0
  8 21  1  0  0  0  0
  8 23  1  0  0  0  0
  8 47  1  0  0  0  0
  9 16  1  0  0  0  0
  9 17  1  0  0  0  0
  9 18  1  0  0  0  0
 10 11  1  0  0  0  0
 10 12  1  0  0  0  0
 10 25  1  0  0  0  0
 11 13  1  0  0  0  0
 11 26  1  0  0  0  0
 11 27  1  0  0  0  0
 12 19  1  6  0  0  0
 12 28  1  0  0  0  0
 13 29  1  0  0  0  0
 14 30  1  0  0  0  0
 14 31  1  0  0  0  0
 14 32  1  0  0  0  0
 15 33  1  0  0  0  0
 15 34  1  0  0  0  0
 15 35  1  0  0  0  0
 16 36  1  0  0  0  0
 16 37  1  0  0  0  0
 16 38  1  0  0  0  0
 17 39  1  0  0  0  0
 17 40  1  0  0  0  0
 17 41  1  0  0  0  0
 18 42  1  0  0  0  0
 18 43  1  0  0  0  0
 18 44  1  0  0  0  0
 19 45  1  0  0  0  0
 20 22  2  0  0  0  0
 20 46  1  0  0  0  0
 22 23  1  0  0  0  0
 22 24  1  0  0  0  0
 24 48  1  0  0  0  0
 24 49  1  0  0  0  0
 24 50  1  0  0  0  0
M  END
> <PUBCHEM_COMPOUND_CID>
507015
> <PUBCHEM_COMPOUND_CANONICALIZED>
1
> <PUBCHEM_CACTVS_COMPLEXITY>
582
> <PUBCHEM_CACTVS_HBOND_ACCEPTOR>
5
> <PUBCHEM_CACTVS_HBOND_DONOR>
1
> <PUBCHEM_CACTVS_ROTATABLE_BOND>
5
> <PUBCHEM_CACTVS_SUBSKEYS>
AAADceB7OAgAAAAAAAAAAAAAAAAAASAAAAAgAAAAAAAAAAAAAAAAHhAQAEAADBThoAZDAAPABAGIAglW0AKAAAAAAAAAAAFIAECBABYAgQQOAAAPJyICAMC4BQAAAAAAAAAAAAAAAAAAAAAAAAAAAAAAAA==
> <PUBCHEM_IUPAC_OPENEYE_NAME>
(2S,3S,5R)-3-[tert-butyl(dimethyl)silyl]oxy-5-(5-methyl-2,4-dioxo-pyrimidin-1-yl)tetrahydrofuran-2-carbaldehyde
> <PUBCHEM_IUPAC_CAS_NAME>
(2S,3S,5R)-3-[tert-butyl(dimethyl)silyl]oxy-5-(5-methyl-2,4-dioxo-1-pyrimidinyl)-2-oxolanecarboxaldehyde
> <PUBCHEM_IUPAC_NAME_MARKUP>
(2<I>S</I>,3<I>S</I>,5<I>R</I>)-3-[<I>tert</I>-butyl(dimethyl)silyl]oxy-5-(5-methyl-2,4-dioxopyrimidin-1-yl)oxolane-2-carbaldehyde
> <PUBCHEM_IUPAC_NAME>
(2S,3S,5R)-3-[tert-butyl(dimethyl)silyl]oxy-5-(5-methyl-2,4-dioxopyrimidin-1-yl)oxolane-2-carbaldehyde
> <PUBCHEM_IUPAC_SYSTEMATIC_NAME>
(2S,3S,5R)-3-[tert-butyl(dimethyl)silyl]oxy-5-[5-methyl-2,4-bis(oxidanylidene)pyrimidin-1-yl]oxolane-2-carbaldehyde
> <PUBCHEM_IUPAC_TRADITIONAL_NAME>
(2S,3S,5R)-3-[tert-butyl(dimethyl)silyl]oxy-5-(2,4-diketo-5-methyl-pyrimidin-1-yl)tetrahydrofuran-2-carbaldehyde
> <PUBCHEM_IUPAC_INCHI>
InChI=1S/C16H26N2O5Si/c1-10-8-18(15(21)17-14(10)20)13-7-11(12(9-19)22-13)23-24(5,6)16(2,3)4/h8-9,11-13H,7H2,1-6H3,(H,17,20,21)/t11-,12+,13+/m0/s1
> <PUBCHEM_IUPAC_INCHIKEY>
STTYRPFHCCYWPO-YNEHKIRRSA-N
> <PUBCHEM_EXACT_MASS>
354.16109847
> <PUBCHEM_MOLECULAR_FORMULA>
C16H26N2O5Si
> <PUBCHEM_MOLECULAR_WEIGHT>
354.47
> <PUBCHEM_OPENEYE_CAN_SMILES>
CC1=CN(C(=O)NC1=O)C2CC(C(O2)C=O)O[Si](C)(C)C(C)(C)C
> <PUBCHEM_OPENEYE_ISO_SMILES>
CC1=CN(C(=O)NC1=O)[C@H]2C[C@@H]([C@H](O2)C=O)O[Si](C)(C)C(C)(C)C
> <PUBCHEM_CACTVS_TPSA>
84.9
> <PUBCHEM_MONOISOTOPIC_WEIGHT>
354.16109847
> <PUBCHEM_TOTAL_CHARGE>
0
> <PUBCHEM_HEAVY_ATOM_COUNT>
24
> <PUBCHEM_ATOM_DEF_STEREO_COUNT>
3
> <PUBCHEM_ATOM_UDEF_STEREO_COUNT>
0
> <PUBCHEM_BOND_DEF_STEREO_COUNT>
0
> <PUBCHEM_BOND_UDEF_STEREO_COUNT>
0
> <PUBCHEM_ISOTOPIC_ATOM_COUNT>
0
> <PUBCHEM_COMPONENT_COUNT>
1
> <PUBCHEM_CACTVS_TAUTO_COUNT>
-1
> <PUBCHEM_COORDINATE_TYPE>
1
5
255
> <PUBCHEM_BONDANNOTATIONS>
12  19  6
10  2  5
20  22  8
22  23  8
13  7  6
7  20  8
7  21  8
8  21  8
8  23  8
$$$$
