507059
  -OEChem-10302200282D
124125  0     1  0  0  0  0  0999 V2000
    4.5981   -6.6550    0.0000 S   0  0  0  0  0  0  0  0  0  0  0  0
    5.4641   -2.1550    0.0000 O   0  0  0  0  0  0  0  0  0  0  0  0
    5.4641   -1.1550    0.0000 O   0  0  0  0  0  0  0  0  0  0  0  0
    6.3301    2.3450    0.0000 O   0  0  0  0  0  0  0  0  0  0  0  0
    6.3301   -5.6550    0.0000 O   0  0  0  0  0  0  0  0  0  0  0  0
    6.3301    3.3450    0.0000 O   0  0  0  0  0  0  0  0  0  0  0  0
    5.5981   -6.6550    0.0000 O   0  0  0  0  0  0  0  0  0  0  0  0
    3.5981   -6.6550    0.0000 O   0  0  0  0  0  0  0  0  0  0  0  0
    5.4641    6.8450    0.0000 O   0  0  0  0  0  0  0  0  0  0  0  0
    3.7320    7.8450    0.0000 O   0  0  0  0  0  0  0  0  0  0  0  0
    2.8660    6.3450    0.0000 O   0  0  0  0  0  0  0  0  0  0  0  0
    8.0622    9.3450    0.0000 O   0  0  0  0  0  0  0  0  0  0  0  0
    8.9282    7.8450    0.0000 O   0  0  0  0  0  0  0  0  0  0  0  0
    7.1962   -1.1550    0.0000 N   0  0  0  0  0  0  0  0  0  0  0  0
    6.3301   -3.6550    0.0000 N   0  0  0  0  0  0  0  0  0  0  0  0
    5.4641    0.8450    0.0000 N   0  0  0  0  0  0  0  0  0  0  0  0
    4.5981    3.3450    0.0000 N   0  0  0  0  0  0  0  0  0  0  0  0
    4.5981   -5.6550    0.0000 N   0  0  0  0  0  0  0  0  0  0  0  0
    6.3301    5.3450    0.0000 N   0  0  0  0  0  0  0  0  0  0  0  0
    8.9282   -2.1550    0.0000 C   0  0  0  0  0  0  0  0  0  0  0  0
    9.7942   -2.6550    0.0000 C   0  0  0  0  0  0  0  0  0  0  0  0
    8.9282   -1.1550    0.0000 C   0  0  0  0  0  0  0  0  0  0  0  0
    8.0622   -2.6550    0.0000 C   0  0  0  0  0  0  0  0  0  0  0  0
   10.6603   -2.1550    0.0000 C   0  0  0  0  0  0  0  0  0  0  0  0
    9.7942   -0.6550    0.0000 C   0  0  0  0  0  0  0  0  0  0  0  0
   10.6603   -1.1550    0.0000 C   0  0  0  0  0  0  0  0  0  0  0  0
    7.1962   -2.1550    0.0000 C   0  0  1  0  0  0  0  0  0  0  0  0
    6.3301   -2.6550    0.0000 C   0  0  0  0  0  0  0  0  0  0  0  0
    6.3301    0.3450    0.0000 C   0  0  2  0  0  0  0  0  0  0  0  0
    6.3301   -0.6550    0.0000 C   0  0  0  0  0  0  0  0  0  0  0  0
    7.1962    0.8450    0.0000 C   0  0  2  0  0  0  0  0  0  0  0  0
    5.4641   -4.1550    0.0000 C   0  0  1  0  0  0  0  0  0  0  0  0
    7.1962    1.8450    0.0000 C   0  0  0  0  0  0  0  0  0  0  0  0
    8.0622    0.3450    0.0000 C   0  0  0  0  0  0  0  0  0  0  0  0
    4.5981   -3.6550    0.0000 C   0  0  0  0  0  0  0  0  0  0  0  0
    4.5981    2.3450    0.0000 C   0  0  2  0  0  0  0  0  0  0  0  0
    5.4641    1.8450    0.0000 C   0  0  0  0  0  0  0  0  0  0  0  0
    3.7320    1.8450    0.0000 C   0  0  0  0  0  0  0  0  0  0  0  0
    5.4641   -5.1550    0.0000 C   0  0  0  0  0  0  0  0  0  0  0  0
    8.0622    2.3450    0.0000 C   0  0  0  0  0  0  0  0  0  0  0  0
    4.5981   -2.6550    0.0000 C   0  0  0  0  0  0  0  0  0  0  0  0
    2.8660    2.3450    0.0000 C   0  0  0  0  0  0  0  0  0  0  0  0
    3.7320   -2.1550    0.0000 C   0  0  0  0  0  0  0  0  0  0  0  0
    2.0000    1.8450    0.0000 C   0  0  0  0  0  0  0  0  0  0  0  0
    2.8660    3.3450    0.0000 C   0  0  0  0  0  0  0  0  0  0  0  0
    5.4641    3.8450    0.0000 C   0  0  0  0  0  0  0  0  0  0  0  0
    5.4641    4.8450    0.0000 C   0  0  1  0  0  0  0  0  0  0  0  0
    4.5981    5.3450    0.0000 C   0  0  0  0  0  0  0  0  0  0  0  0
    4.5981   -7.6550    0.0000 C   0  0  0  0  0  0  0  0  0  0  0  0
    4.5981    6.3450    0.0000 C   0  0  0  0  0  0  0  0  0  0  0  0
    6.3301    6.3450    0.0000 C   0  0  0  0  0  0  0  0  0  0  0  0
    5.4641   -8.1550    0.0000 C   0  0  0  0  0  0  0  0  0  0  0  0
    3.7320   -8.1550    0.0000 C   0  0  0  0  0  0  0  0  0  0  0  0
    7.1962    6.8450    0.0000 C   0  0  0  0  0  0  0  0  0  0  0  0
    3.7320    6.8450    0.0000 C   0  0  0  0  0  0  0  0  0  0  0  0
    7.1962    7.8450    0.0000 C   0  0  0  0  0  0  0  0  0  0  0  0
    5.4641   -9.1550    0.0000 C   0  0  0  0  0  0  0  0  0  0  0  0
    3.7320   -9.1550    0.0000 C   0  0  0  0  0  0  0  0  0  0  0  0
    4.5981   -9.6550    0.0000 C   0  0  0  0  0  0  0  0  0  0  0  0
    8.0622    8.3450    0.0000 C   0  0  0  0  0  0  0  0  0  0  0  0
    8.9282   -2.7750    0.0000 H   0  0  0  0  0  0  0  0  0  0  0  0
    9.3957   -3.1300    0.0000 H   0  0  0  0  0  0  0  0  0  0  0  0
   10.1928   -3.1300    0.0000 H   0  0  0  0  0  0  0  0  0  0  0  0
    8.7162   -0.5724    0.0000 H   0  0  0  0  0  0  0  0  0  0  0  0
    8.3176   -1.2627    0.0000 H   0  0  0  0  0  0  0  0  0  0  0  0
    7.6636   -3.1300    0.0000 H   0  0  0  0  0  0  0  0  0  0  0  0
    8.4607   -3.1300    0.0000 H   0  0  0  0  0  0  0  0  0  0  0  0
   10.8723   -2.7376    0.0000 H   0  0  0  0  0  0  0  0  0  0  0  0
   11.2708   -2.0473    0.0000 H   0  0  0  0  0  0  0  0  0  0  0  0
   10.1928   -0.1801    0.0000 H   0  0  0  0  0  0  0  0  0  0  0  0
    9.3957   -0.1801    0.0000 H   0  0  0  0  0  0  0  0  0  0  0  0
   11.2708   -1.2627    0.0000 H   0  0  0  0  0  0  0  0  0  0  0  0
   10.8723   -0.5724    0.0000 H   0  0  0  0  0  0  0  0  0  0  0  0
    6.6592   -1.8450    0.0000 H   0  0  0  0  0  0  0  0  0  0  0  0
    7.7331   -0.8450    0.0000 H   0  0  0  0  0  0  0  0  0  0  0  0
    5.7932    0.0350    0.0000 H   0  0  0  0  0  0  0  0  0  0  0  0
    7.7331    1.1550    0.0000 H   0  0  0  0  0  0  0  0  0  0  0  0
    6.8671   -3.9650    0.0000 H   0  0  0  0  0  0  0  0  0  0  0  0
    6.0010   -4.4650    0.0000 H   0  0  0  0  0  0  0  0  0  0  0  0
    6.9841    2.4276    0.0000 H   0  0  0  0  0  0  0  0  0  0  0  0
    6.5856    1.7373    0.0000 H   0  0  0  0  0  0  0  0  0  0  0  0
    4.9272    0.5350    0.0000 H   0  0  0  0  0  0  0  0  0  0  0  0
    7.7522   -0.1919    0.0000 H   0  0  0  0  0  0  0  0  0  0  0  0
    8.5991    0.0350    0.0000 H   0  0  0  0  0  0  0  0  0  0  0  0
    8.3722    0.8819    0.0000 H   0  0  0  0  0  0  0  0  0  0  0  0
    3.9875   -3.5473    0.0000 H   0  0  0  0  0  0  0  0  0  0  0  0
    4.3860   -4.2376    0.0000 H   0  0  0  0  0  0  0  0  0  0  0  0
    5.1350    2.6550    0.0000 H   0  0  0  0  0  0  0  0  0  0  0  0
    3.3335    1.3700    0.0000 H   0  0  0  0  0  0  0  0  0  0  0  0
    4.1306    1.3700    0.0000 H   0  0  0  0  0  0  0  0  0  0  0  0
    8.3722    1.8081    0.0000 H   0  0  0  0  0  0  0  0  0  0  0  0
    8.5991    2.6550    0.0000 H   0  0  0  0  0  0  0  0  0  0  0  0
    7.7522    2.8819    0.0000 H   0  0  0  0  0  0  0  0  0  0  0  0
    5.2087   -2.7627    0.0000 H   0  0  0  0  0  0  0  0  0  0  0  0
    4.8101   -2.0724    0.0000 H   0  0  0  0  0  0  0  0  0  0  0  0
    2.8660    1.7250    0.0000 H   0  0  0  0  0  0  0  0  0  0  0  0
    4.0611    3.6550    0.0000 H   0  0  0  0  0  0  0  0  0  0  0  0
    4.0611   -5.3450    0.0000 H   0  0  0  0  0  0  0  0  0  0  0  0
    1.6900    2.3819    0.0000 H   0  0  0  0  0  0  0  0  0  0  0  0
    1.4631    1.5350    0.0000 H   0  0  0  0  0  0  0  0  0  0  0  0
    2.3100    1.3081    0.0000 H   0  0  0  0  0  0  0  0  0  0  0  0
    3.4860    3.3450    0.0000 H   0  0  0  0  0  0  0  0  0  0  0  0
    2.8660    3.9650    0.0000 H   0  0  0  0  0  0  0  0  0  0  0  0
    2.2460    3.3450    0.0000 H   0  0  0  0  0  0  0  0  0  0  0  0
    4.0420   -1.6181    0.0000 H   0  0  0  0  0  0  0  0  0  0  0  0
    3.1951   -1.8450    0.0000 H   0  0  0  0  0  0  0  0  0  0  0  0
    3.4220   -2.6919    0.0000 H   0  0  0  0  0  0  0  0  0  0  0  0
    5.4641    5.4650    0.0000 H   0  0  0  0  0  0  0  0  0  0  0  0
    3.9875    5.4527    0.0000 H   0  0  0  0  0  0  0  0  0  0  0  0
    4.3860    4.7624    0.0000 H   0  0  0  0  0  0  0  0  0  0  0  0
    6.8671    5.0350    0.0000 H   0  0  0  0  0  0  0  0  0  0  0  0
    5.2087    6.2373    0.0000 H   0  0  0  0  0  0  0  0  0  0  0  0
    4.8101    6.9276    0.0000 H   0  0  0  0  0  0  0  0  0  0  0  0
    6.0010   -7.8450    0.0000 H   0  0  0  0  0  0  0  0  0  0  0  0
    3.1951   -7.8450    0.0000 H   0  0  0  0  0  0  0  0  0  0  0  0
    7.4082    6.2624    0.0000 H   0  0  0  0  0  0  0  0  0  0  0  0
    7.8067    6.9527    0.0000 H   0  0  0  0  0  0  0  0  0  0  0  0
    6.9841    8.4276    0.0000 H   0  0  0  0  0  0  0  0  0  0  0  0
    6.5856    7.7373    0.0000 H   0  0  0  0  0  0  0  0  0  0  0  0
    6.0010   -9.4650    0.0000 H   0  0  0  0  0  0  0  0  0  0  0  0
    3.1951   -9.4650    0.0000 H   0  0  0  0  0  0  0  0  0  0  0  0
    4.5981  -10.2750    0.0000 H   0  0  0  0  0  0  0  0  0  0  0  0
    3.1951    8.1550    0.0000 H   0  0  0  0  0  0  0  0  0  0  0  0
    8.5991    9.6550    0.0000 H   0  0  0  0  0  0  0  0  0  0  0  0
  1  7  2  0  0  0  0
  1  8  2  0  0  0  0
  1 18  1  0  0  0  0
  1 49  1  0  0  0  0
  2 28  2  0  0  0  0
  3 30  2  0  0  0  0
  4 37  2  0  0  0  0
  5 39  2  0  0  0  0
  6 46  2  0  0  0  0
  9 51  2  0  0  0  0
 10 55  1  0  0  0  0
 10123  1  0  0  0  0
 11 55  2  0  0  0  0
 12 60  1  0  0  0  0
 12124  1  0  0  0  0
 13 60  2  0  0  0  0
 27 14  1  1  0  0  0
 14 30  1  0  0  0  0
 14 75  1  0  0  0  0
 15 28  1  0  0  0  0
 32 15  1  6  0  0  0
 15 78  1  0  0  0  0
 29 16  1  1  0  0  0
 16 37  1  0  0  0  0
 16 82  1  0  0  0  0
 36 17  1  6  0  0  0
 17 46  1  0  0  0  0
 17 97  1  0  0  0  0
 18 39  1  0  0  0  0
 18 98  1  0  0  0  0
 47 19  1  1  0  0  0
 19 51  1  0  0  0  0
 19111  1  0  0  0  0
 20 21  1  0  0  0  0
 20 22  1  0  0  0  0
 20 23  1  0  0  0  0
 20 61  1  0  0  0  0
 21 24  1  0  0  0  0
 21 62  1  0  0  0  0
 21 63  1  0  0  0  0
 22 25  1  0  0  0  0
 22 64  1  0  0  0  0
 22 65  1  0  0  0  0
 23 27  1  0  0  0  0
 23 66  1  0  0  0  0
 23 67  1  0  0  0  0
 24 26  1  0  0  0  0
 24 68  1  0  0  0  0
 24 69  1  0  0  0  0
 25 26  1  0  0  0  0
 25 70  1  0  0  0  0
 25 71  1  0  0  0  0
 26 72  1  0  0  0  0
 26 73  1  0  0  0  0
 27 28  1  0  0  0  0
 27 74  1  0  0  0  0
 29 30  1  0  0  0  0
 29 31  1  0  0  0  0
 29 76  1  0  0  0  0
 31 33  1  0  0  0  0
 31 34  1  6  0  0  0
 31 77  1  0  0  0  0
 32 35  1  0  0  0  0
 32 39  1  0  0  0  0
 32 79  1  0  0  0  0
 33 40  1  0  0  0  0
 33 80  1  0  0  0  0
 33 81  1  0  0  0  0
 34 83  1  0  0  0  0
 34 84  1  0  0  0  0
 34 85  1  0  0  0  0
 35 41  1  0  0  0  0
 35 86  1  0  0  0  0
 35 87  1  0  0  0  0
 36 37  1  0  0  0  0
 36 38  1  0  0  0  0
 36 88  1  0  0  0  0
 38 42  1  0  0  0  0
 38 89  1  0  0  0  0
 38 90  1  0  0  0  0
 40 91  1  0  0  0  0
 40 92  1  0  0  0  0
 40 93  1  0  0  0  0
 41 43  1  0  0  0  0
 41 94  1  0  0  0  0
 41 95  1  0  0  0  0
 42 44  1  0  0  0  0
 42 45  1  0  0  0  0
 42 96  1  0  0  0  0
 43105  1  0  0  0  0
 43106  1  0  0  0  0
 43107  1  0  0  0  0
 44 99  1  0  0  0  0
 44100  1  0  0  0  0
 44101  1  0  0  0  0
 45102  1  0  0  0  0
 45103  1  0  0  0  0
 45104  1  0  0  0  0
 46 47  1  0  0  0  0
 47 48  1  0  0  0  0
 47108  1  0  0  0  0
 48 50  1  0  0  0  0
 48109  1  0  0  0  0
 48110  1  0  0  0  0
 49 52  2  0  0  0  0
 49 53  1  0  0  0  0
 50 55  1  0  0  0  0
 50112  1  0  0  0  0
 50113  1  0  0  0  0
 51 54  1  0  0  0  0
 52 57  1  0  0  0  0
 52114  1  0  0  0  0
 53 58  2  0  0  0  0
 53115  1  0  0  0  0
 54 56  1  0  0  0  0
 54116  1  0  0  0  0
 54117  1  0  0  0  0
 56 60  1  0  0  0  0
 56118  1  0  0  0  0
 56119  1  0  0  0  0
 57 59  2  0  0  0  0
 57120  1  0  0  0  0
 58 59  1  0  0  0  0
 58121  1  0  0  0  0
 59122  1  0  0  0  0
M  END
> <PUBCHEM_COMPOUND_CID>
507059
> <PUBCHEM_COMPOUND_CANONICALIZED>
1
> <PUBCHEM_CACTVS_COMPLEXITY>
1570
> <PUBCHEM_CACTVS_HBOND_ACCEPTOR>
12
> <PUBCHEM_CACTVS_HBOND_DONOR>
8
> <PUBCHEM_CACTVS_ROTATABLE_BOND>
26
> <PUBCHEM_CACTVS_SUBSKEYS>
AAADcfB/vABAAAAAAAAAAAAAAAAAAAAAAAAwYAAAAAAAAAABAAAAHgQQSAAADSjB0AQyCYLAAgKIACHSGHBCABAgAAAIiJmIAIgIYDKAkTCUYAAklgCIiAe/n4KOAAAAAAAAAAAAAAAAAAAAAAAAAAAAAA==
> <PUBCHEM_IUPAC_OPENEYE_NAME>
(4R)-5-[[(1S)-1-[[(1S,2S)-1-[[(1S)-2-[[(1S)-1-(benzenesulfonylcarbamoyl)butyl]amino]-1-(cyclohexylmethyl)-2-oxo-ethyl]carbamoyl]-2-methyl-butyl]carbamoyl]-3-methyl-butyl]amino]-4-(3-carboxypropanoylamino)-5-oxo-pentanoic acid
> <PUBCHEM_IUPAC_CAS_NAME>
(4R)-5-[[(2S)-1-[[(2S,3S)-1-[[(2S)-1-[[(2S)-1-(benzenesulfonamido)-1-oxopentan-2-yl]amino]-3-cyclohexyl-1-oxopropan-2-yl]amino]-3-methyl-1-oxopentan-2-yl]amino]-4-methyl-1-oxopentan-2-yl]amino]-4-[(3-carboxy-1-oxopropyl)amino]-5-oxopentanoic acid
> <PUBCHEM_IUPAC_NAME_MARKUP>
(4<I>R</I>)-5-[[(2<I>S</I>)-1-[[(2<I>S</I>,3<I>S</I>)-1-[[(2<I>S</I>)-1-[[(2<I>S</I>)-1-(benzenesulfonamido)-1-oxopentan-2-yl]amino]-3-cyclohexyl-1-oxopropan-2-yl]amino]-3-methyl-1-oxopentan-2-yl]amino]-4-methyl-1-oxopentan-2-yl]amino]-4-(3-carboxypropanoylamino)-5-oxopentanoic acid
> <PUBCHEM_IUPAC_NAME>
(4R)-5-[[(2S)-1-[[(2S,3S)-1-[[(2S)-1-[[(2S)-1-(benzenesulfonamido)-1-oxopentan-2-yl]amino]-3-cyclohexyl-1-oxopropan-2-yl]amino]-3-methyl-1-oxopentan-2-yl]amino]-4-methyl-1-oxopentan-2-yl]amino]-4-(3-carboxypropanoylamino)-5-oxopentanoic acid
> <PUBCHEM_IUPAC_SYSTEMATIC_NAME>
(4R)-5-[[(2S)-1-[[(2S,3S)-1-[[(2S)-3-cyclohexyl-1-oxidanylidene-1-[[(2S)-1-oxidanylidene-1-(phenylsulfonylamino)pentan-2-yl]amino]propan-2-yl]amino]-3-methyl-1-oxidanylidene-pentan-2-yl]amino]-4-methyl-1-oxidanylidene-pentan-2-yl]amino]-5-oxidanylidene-4-[(4-oxidanyl-4-oxidanylidene-butanoyl)amino]pentanoic acid
> <PUBCHEM_IUPAC_TRADITIONAL_NAME>
(4R)-5-[[(1S)-1-[[(1S,2S)-1-[[(1S)-2-[[(1S)-1-(besylcarbamoyl)butyl]amino]-1-(cyclohexylmethyl)-2-keto-ethyl]carbamoyl]-2-methyl-butyl]carbamoyl]-3-methyl-butyl]amino]-4-(3-carboxypropanoylamino)-5-keto-valeric acid
> <PUBCHEM_IUPAC_INCHI>
InChI=1S/C41H64N6O12S/c1-6-14-29(40(56)47-60(58,59)28-17-12-9-13-18-28)43-38(54)32(24-27-15-10-8-11-16-27)45-41(57)36(26(5)7-2)46-39(55)31(23-25(3)4)44-37(53)30(19-21-34(49)50)42-33(48)20-22-35(51)52/h9,12-13,17-18,25-27,29-32,36H,6-8,10-11,14-16,19-24H2,1-5H3,(H,42,48)(H,43,54)(H,44,53)(H,45,57)(H,46,55)(H,47,56)(H,49,50)(H,51,52)/t26-,29-,30+,31-,32-,36-/m0/s1
> <PUBCHEM_IUPAC_INCHIKEY>
WNSBAXAZRSIVHW-TXPZQZBDSA-N
> <PUBCHEM_XLOGP3_AA>
4.6
> <PUBCHEM_EXACT_MASS>
864.43029267
> <PUBCHEM_MOLECULAR_FORMULA>
C41H64N6O12S
> <PUBCHEM_MOLECULAR_WEIGHT>
865.0
> <PUBCHEM_OPENEYE_CAN_SMILES>
CCCC(C(=O)NS(=O)(=O)C1=CC=CC=C1)NC(=O)C(CC2CCCCC2)NC(=O)C(C(C)CC)NC(=O)C(CC(C)C)NC(=O)C(CCC(=O)O)NC(=O)CCC(=O)O
> <PUBCHEM_OPENEYE_ISO_SMILES>
CCC[C@@H](C(=O)NS(=O)(=O)C1=CC=CC=C1)NC(=O)[C@H](CC2CCCCC2)NC(=O)[C@H]([C@@H](C)CC)NC(=O)[C@H](CC(C)C)NC(=O)[C@@H](CCC(=O)O)NC(=O)CCC(=O)O
> <PUBCHEM_CACTVS_TPSA>
292
> <PUBCHEM_MONOISOTOPIC_WEIGHT>
864.43029267
> <PUBCHEM_TOTAL_CHARGE>
0
> <PUBCHEM_HEAVY_ATOM_COUNT>
60
> <PUBCHEM_ATOM_DEF_STEREO_COUNT>
6
> <PUBCHEM_ATOM_UDEF_STEREO_COUNT>
0
> <PUBCHEM_BOND_DEF_STEREO_COUNT>
0
> <PUBCHEM_BOND_UDEF_STEREO_COUNT>
0
> <PUBCHEM_ISOTOPIC_ATOM_COUNT>
0
> <PUBCHEM_COMPONENT_COUNT>
1
> <PUBCHEM_CACTVS_TAUTO_COUNT>
-1
> <PUBCHEM_COORDINATE_TYPE>
1
5
255
> <PUBCHEM_BONDANNOTATIONS>
27  14  5
32  15  6
29  16  5
36  17  6
47  19  5
31  34  6
49  52  8
49  53  8
52  57  8
53  58  8
57  59  8
58  59  8
$$$$
