507091
  -OEChem-10302200282D
 61 65  0     1  0  0  0  0  0999 V2000
    0.0000    4.1565    0.0000 Cl  0  0  0  0  0  0  0  0  0  0  0  0
    3.5301   11.3017    0.0000 F   0  0  0  0  0  0  0  0  0  0  0  0
    4.5301   11.3017    0.0000 F   0  0  0  0  0  0  0  0  0  0  0  0
    5.0301   12.1677    0.0000 F   0  0  0  0  0  0  0  0  0  0  0  0
    4.5301    2.4486    0.0000 F   0  0  0  0  0  0  0  0  0  0  0  0
    4.8961    3.8147    0.0000 F   0  0  0  0  0  0  0  0  0  0  0  0
    3.5301    2.4487    0.0000 F   0  0  0  0  0  0  0  0  0  0  0  0
    1.7817   11.9991    0.0000 F   0  0  0  0  0  0  0  0  0  0  0  0
    0.0000   13.0096    0.0000 F   0  0  0  0  0  0  0  0  0  0  0  0
    4.3961    4.6807    0.0000 O   0  0  0  0  0  0  0  0  0  0  0  0
    5.2622   15.0337    0.0000 O   0  0  0  0  0  0  0  0  0  0  0  0
    5.2622    6.1807    0.0000 O   0  0  0  0  0  0  0  0  0  0  0  0
    4.3961   13.5337    0.0000 N   0  0  0  0  0  0  0  0  0  0  0  0
    3.5301   15.0337    0.0000 N   0  0  0  0  0  0  0  0  0  0  0  0
    3.5301    6.1807    0.0000 N   0  0  0  0  0  0  0  0  0  0  0  0
    2.0301   10.4356    0.0000 C   0  0  0  0  0  0  0  0  0  0  0  0
    1.1641    9.9356    0.0000 C   0  0  0  0  0  0  0  0  0  0  0  0
    2.0301    9.4356    0.0000 C   0  0  0  0  0  0  0  0  0  0  0  0
    2.0301    1.5826    0.0000 C   0  0  0  0  0  0  0  0  0  0  0  0
    1.1641    1.0826    0.0000 C   0  0  0  0  0  0  0  0  0  0  0  0
    2.0301    0.5826    0.0000 C   0  0  0  0  0  0  0  0  0  0  0  0
    2.5301   11.3017    0.0000 C   0  0  0  0  0  0  0  0  0  0  0  0
    3.5301   13.0337    0.0000 C   0  0  1  0  0  0  0  0  0  0  0  0
    2.5301    2.4486    0.0000 C   0  0  0  0  0  0  0  0  0  0  0  0
    3.0301   12.1677    0.0000 C   0  0  0  0  0  0  0  0  0  0  0  0
    2.6641   13.5337    0.0000 C   0  0  0  0  0  0  0  0  0  0  0  0
    3.5301    4.1807    0.0000 C   0  0  1  0  0  0  0  0  0  0  0  0
    3.0301    3.3147    0.0000 C   0  0  0  0  0  0  0  0  0  0  0  0
    4.0301   12.1677    0.0000 C   0  0  0  0  0  0  0  0  0  0  0  0
    2.6641   14.5337    0.0000 C   0  0  0  0  0  0  0  0  0  0  0  0
    2.6641    4.6807    0.0000 C   0  0  0  0  0  0  0  0  0  0  0  0
    4.0301    3.3147    0.0000 C   0  0  0  0  0  0  0  0  0  0  0  0
    1.7702   12.9990    0.0000 C   0  0  0  0  0  0  0  0  0  0  0  0
    4.3961   14.5337    0.0000 C   0  0  0  0  0  0  0  0  0  0  0  0
    2.6641    5.6807    0.0000 C   0  0  0  0  0  0  0  0  0  0  0  0
    1.7702   15.0684    0.0000 C   0  0  0  0  0  0  0  0  0  0  0  0
    1.7702    4.1460    0.0000 C   0  0  0  0  0  0  0  0  0  0  0  0
    0.8641   13.5129    0.0000 C   0  0  0  0  0  0  0  0  0  0  0  0
    0.8641   14.5545    0.0000 C   0  0  0  0  0  0  0  0  0  0  0  0
    4.3961    5.6807    0.0000 C   0  0  0  0  0  0  0  0  0  0  0  0
    1.7702    6.2154    0.0000 C   0  0  0  0  0  0  0  0  0  0  0  0
    0.8641    4.6599    0.0000 C   0  0  0  0  0  0  0  0  0  0  0  0
    0.8641    5.7015    0.0000 C   0  0  0  0  0  0  0  0  0  0  0  0
    2.6290   10.2752    0.0000 H   0  0  0  0  0  0  0  0  0  0  0  0
    0.7656   10.4106    0.0000 H   0  0  0  0  0  0  0  0  0  0  0  0
    0.7656    9.4607    0.0000 H   0  0  0  0  0  0  0  0  0  0  0  0
    1.8181    8.8530    0.0000 H   0  0  0  0  0  0  0  0  0  0  0  0
    2.6407    9.3280    0.0000 H   0  0  0  0  0  0  0  0  0  0  0  0
    2.6290    1.4221    0.0000 H   0  0  0  0  0  0  0  0  0  0  0  0
    0.7656    1.5576    0.0000 H   0  0  0  0  0  0  0  0  0  0  0  0
    0.7656    0.6077    0.0000 H   0  0  0  0  0  0  0  0  0  0  0  0
    1.8181    0.0000    0.0000 H   0  0  0  0  0  0  0  0  0  0  0  0
    2.6407    0.4749    0.0000 H   0  0  0  0  0  0  0  0  0  0  0  0
    5.0162   13.5337    0.0000 H   0  0  0  0  0  0  0  0  0  0  0  0
    3.5301   15.6537    0.0000 H   0  0  0  0  0  0  0  0  0  0  0  0
    1.7773   15.6883    0.0000 H   0  0  0  0  0  0  0  0  0  0  0  0
    1.7773    3.5261    0.0000 H   0  0  0  0  0  0  0  0  0  0  0  0
    3.5301    6.8007    0.0000 H   0  0  0  0  0  0  0  0  0  0  0  0
    0.3284   14.8666    0.0000 H   0  0  0  0  0  0  0  0  0  0  0  0
    1.7773    6.8353    0.0000 H   0  0  0  0  0  0  0  0  0  0  0  0
    0.3284    6.0136    0.0000 H   0  0  0  0  0  0  0  0  0  0  0  0
  1 42  1  0  0  0  0
  2 29  1  0  0  0  0
  3 29  1  0  0  0  0
  4 29  1  0  0  0  0
  5 32  1  0  0  0  0
  6 32  1  0  0  0  0
  7 32  1  0  0  0  0
  8 33  1  0  0  0  0
  9 38  1  0  0  0  0
 10 27  1  0  0  0  0
 10 40  1  0  0  0  0
 11 34  2  0  0  0  0
 12 40  2  0  0  0  0
 13 23  1  0  0  0  0
 13 34  1  0  0  0  0
 13 54  1  0  0  0  0
 14 30  1  0  0  0  0
 14 34  1  0  0  0  0
 14 55  1  0  0  0  0
 15 35  1  0  0  0  0
 15 40  1  0  0  0  0
 15 58  1  0  0  0  0
 16 17  1  0  0  0  0
 16 18  1  0  0  0  0
 16 22  1  0  0  0  0
 16 44  1  0  0  0  0
 17 18  1  0  0  0  0
 17 45  1  0  0  0  0
 17 46  1  0  0  0  0
 18 47  1  0  0  0  0
 18 48  1  0  0  0  0
 19 20  1  0  0  0  0
 19 21  1  0  0  0  0
 19 24  1  0  0  0  0
 19 49  1  0  0  0  0
 20 21  1  0  0  0  0
 20 50  1  0  0  0  0
 20 51  1  0  0  0  0
 21 52  1  0  0  0  0
 21 53  1  0  0  0  0
 22 25  3  0  0  0  0
 23 25  1  1  0  0  0
 23 26  1  0  0  0  0
 23 29  1  0  0  0  0
 24 28  3  0  0  0  0
 26 30  2  0  0  0  0
 26 33  1  0  0  0  0
 27 28  1  1  0  0  0
 27 31  1  0  0  0  0
 27 32  1  0  0  0  0
 30 36  1  0  0  0  0
 31 35  2  0  0  0  0
 31 37  1  0  0  0  0
 33 38  2  0  0  0  0
 35 41  1  0  0  0  0
 36 39  2  0  0  0  0
 36 56  1  0  0  0  0
 37 42  2  0  0  0  0
 37 57  1  0  0  0  0
 38 39  1  0  0  0  0
 39 59  1  0  0  0  0
 41 43  2  0  0  0  0
 41 60  1  0  0  0  0
 42 43  1  0  0  0  0
 43 61  1  0  0  0  0
M  END
> <PUBCHEM_COMPOUND_CID>
507091
> <PUBCHEM_COMPOUND_CANONICALIZED>
1
> <PUBCHEM_CACTVS_COMPLEXITY>
1070
> <PUBCHEM_CACTVS_HBOND_ACCEPTOR>
11
> <PUBCHEM_CACTVS_HBOND_DONOR>
3
> <PUBCHEM_CACTVS_ROTATABLE_BOND>
2
> <PUBCHEM_CACTVS_SUBSKEYS>
AAADceB7McAEAAAAAAAAAAAAGDAAAAAAAAA8eIEAAAAAAACxQAAAHwIQAAAADc6BmDgxyILABADIEiRCWAiCAAAhBwAIiAAAbomIJiLB85mMMAhu1ANI6CeQwOAOgABAIAACAAAAAIBAAAQAAAAAAAAAAA==
> <PUBCHEM_IUPAC_OPENEYE_NAME>
(4S)-6-chloro-4-(2-cyclopropylethynyl)-4-(trifluoromethyl)-1H-3,1-benzoxazin-2-one;(4S)-4-(2-cyclopropylethynyl)-5,6-difluoro-4-(trifluoromethyl)-1,3-dihydroquinazolin-2-one
> <PUBCHEM_IUPAC_CAS_NAME>
(4S)-6-chloro-4-(2-cyclopropylethynyl)-4-(trifluoromethyl)-1H-3,1-benzoxazin-2-one;(4S)-4-(2-cyclopropylethynyl)-5,6-difluoro-4-(trifluoromethyl)-1,3-dihydroquinazolin-2-one
> <PUBCHEM_IUPAC_NAME_MARKUP>
(4<I>S</I>)-6-chloro-4-(2-cyclopropylethynyl)-4-(trifluoromethyl)-1<I>H</I>-3,1-benzoxazin-2-one;(4<I>S</I>)-4-(2-cyclopropylethynyl)-5,6-difluoro-4-(trifluoromethyl)-1,3-dihydroquinazolin-2-one
> <PUBCHEM_IUPAC_NAME>
(4S)-6-chloro-4-(2-cyclopropylethynyl)-4-(trifluoromethyl)-1H-3,1-benzoxazin-2-one;(4S)-4-(2-cyclopropylethynyl)-5,6-difluoro-4-(trifluoromethyl)-1,3-dihydroquinazolin-2-one
> <PUBCHEM_IUPAC_SYSTEMATIC_NAME>
(4S)-6-chloranyl-4-(2-cyclopropylethynyl)-4-(trifluoromethyl)-1H-3,1-benzoxazin-2-one;(4S)-4-(2-cyclopropylethynyl)-5,6-bis(fluoranyl)-4-(trifluoromethyl)-1,3-dihydroquinazolin-2-one
> <PUBCHEM_IUPAC_TRADITIONAL_NAME>
(4S)-6-chloro-4-(2-cyclopropylethynyl)-4-(trifluoromethyl)-1H-3,1-benzoxazin-2-one;(4S)-4-(2-cyclopropylethynyl)-5,6-difluoro-4-(trifluoromethyl)-1,3-dihydroquinazolin-2-one
> <PUBCHEM_IUPAC_INCHI>
InChI=1S/C14H9ClF3NO2.C14H9F5N2O/c15-9-3-4-11-10(7-9)13(14(16,17)18,21-12(20)19-11)6-5-8-1-2-8;15-8-3-4-9-10(11(8)16)13(14(17,18)19,21-12(22)20-9)6-5-7-1-2-7/h3-4,7-8H,1-2H2,(H,19,20);3-4,7H,1-2H2,(H2,20,21,22)/t2*13-/m00/s1
> <PUBCHEM_IUPAC_INCHIKEY>
QQVGVAAOZUYMSQ-CHNGVTQJSA-N
> <PUBCHEM_EXACT_MASS>
631.0908944
> <PUBCHEM_MOLECULAR_FORMULA>
C28H18ClF8N3O3
> <PUBCHEM_MOLECULAR_WEIGHT>
631.9
> <PUBCHEM_OPENEYE_CAN_SMILES>
C1CC1C#CC2(C3=C(C=CC(=C3)Cl)NC(=O)O2)C(F)(F)F.C1CC1C#CC2(C3=C(C=CC(=C3F)F)NC(=O)N2)C(F)(F)F
> <PUBCHEM_OPENEYE_ISO_SMILES>
C1CC1C#C[C@]2(C3=C(C=CC(=C3)Cl)NC(=O)O2)C(F)(F)F.C1CC1C#C[C@]2(C3=C(C=CC(=C3F)F)NC(=O)N2)C(F)(F)F
> <PUBCHEM_CACTVS_TPSA>
79.5
> <PUBCHEM_MONOISOTOPIC_WEIGHT>
631.0908944
> <PUBCHEM_TOTAL_CHARGE>
0
> <PUBCHEM_HEAVY_ATOM_COUNT>
43
> <PUBCHEM_ATOM_DEF_STEREO_COUNT>
2
> <PUBCHEM_ATOM_UDEF_STEREO_COUNT>
0
> <PUBCHEM_BOND_DEF_STEREO_COUNT>
0
> <PUBCHEM_BOND_UDEF_STEREO_COUNT>
0
> <PUBCHEM_ISOTOPIC_ATOM_COUNT>
0
> <PUBCHEM_COMPONENT_COUNT>
2
> <PUBCHEM_CACTVS_TAUTO_COUNT>
-1
> <PUBCHEM_COORDINATE_TYPE>
1
5
255
> <PUBCHEM_BONDANNOTATIONS>
23  25  5
26  30  8
26  33  8
27  28  5
30  36  8
31  35  8
31  37  8
33  38  8
35  41  8
36  39  8
37  42  8
38  39  8
41  43  8
42  43  8
$$$$
