507063
  -OEChem-10302200282D
126127  0     1  0  0  0  0  0999 V2000
    2.0000    5.6550    0.0000 F   0  0  0  0  0  0  0  0  0  0  0  0
    4.0000    5.6550    0.0000 F   0  0  0  0  0  0  0  0  0  0  0  0
    3.0000    7.6550    0.0000 F   0  0  0  0  0  0  0  0  0  0  0  0
    2.0000    6.6550    0.0000 F   0  0  0  0  0  0  0  0  0  0  0  0
    4.0000    6.6550    0.0000 F   0  0  0  0  0  0  0  0  0  0  0  0
    2.1340    4.1550    0.0000 O   0  0  0  0  0  0  0  0  0  0  0  0
    5.5981    3.1550    0.0000 O   0  0  0  0  0  0  0  0  0  0  0  0
    6.4641    2.6550    0.0000 O   0  0  0  0  0  0  0  0  0  0  0  0
    9.0622    0.1550    0.0000 O   0  0  0  0  0  0  0  0  0  0  0  0
    9.9282   -0.3450    0.0000 O   0  0  0  0  0  0  0  0  0  0  0  0
   13.3923   -1.3450    0.0000 O   0  0  0  0  0  0  0  0  0  0  0  0
   15.1244   -0.3450    0.0000 O   0  0  0  0  0  0  0  0  0  0  0  0
   14.2583    1.1550    0.0000 O   0  0  0  0  0  0  0  0  0  0  0  0
   12.5263   -4.8450    0.0000 O   0  0  0  0  0  0  0  0  0  0  0  0
   10.7942   -5.8450    0.0000 O   0  0  0  0  0  0  0  0  0  0  0  0
    9.9282   -4.3450    0.0000 O   0  0  0  0  0  0  0  0  0  0  0  0
   15.1244   -7.3450    0.0000 O   0  0  0  0  0  0  0  0  0  0  0  0
   15.9904   -5.8450    0.0000 O   0  0  0  0  0  0  0  0  0  0  0  0
    3.8660    3.1550    0.0000 N   0  0  0  0  0  0  0  0  0  0  0  0
    5.5981    1.1550    0.0000 N   0  0  0  0  0  0  0  0  0  0  0  0
    8.1962    1.6550    0.0000 N   0  0  0  0  0  0  0  0  0  0  0  0
   10.7942    1.1550    0.0000 N   0  0  0  0  0  0  0  0  0  0  0  0
   11.6603   -1.3450    0.0000 N   0  0  0  0  0  0  0  0  0  0  0  0
   13.3923   -3.3450    0.0000 N   0  0  0  0  0  0  0  0  0  0  0  0
    3.8660    4.1550    0.0000 C   0  0  0  0  0  0  0  0  0  0  0  0
    4.3660    5.0210    0.0000 C   0  0  0  0  0  0  0  0  0  0  0  0
    4.8660    4.1550    0.0000 C   0  0  0  0  0  0  0  0  0  0  0  0
    3.0000    4.6550    0.0000 C   0  0  0  0  0  0  0  0  0  0  0  0
    3.8660    0.1550    0.0000 C   0  0  0  0  0  0  0  0  0  0  0  0
    4.7320    1.6550    0.0000 C   0  0  2  0  0  0  0  0  0  0  0  0
    4.7320    2.6550    0.0000 C   0  0  0  0  0  0  0  0  0  0  0  0
    3.8660    1.1550    0.0000 C   0  0  0  0  0  0  0  0  0  0  0  0
    3.0000    5.6550    0.0000 C   0  0  0  0  0  0  0  0  0  0  0  0
    3.0000   -0.3450    0.0000 C   0  0  0  0  0  0  0  0  0  0  0  0
    4.7320   -0.3450    0.0000 C   0  0  0  0  0  0  0  0  0  0  0  0
    3.0000   -1.3450    0.0000 C   0  0  0  0  0  0  0  0  0  0  0  0
    4.7320   -1.3450    0.0000 C   0  0  0  0  0  0  0  0  0  0  0  0
    3.8660   -1.8450    0.0000 C   0  0  0  0  0  0  0  0  0  0  0  0
    3.0000    6.6550    0.0000 C   0  0  0  0  0  0  0  0  0  0  0  0
    6.4641    1.6550    0.0000 C   0  0  0  0  0  0  0  0  0  0  0  0
    7.3301    1.1550    0.0000 C   0  0  2  0  0  0  0  0  0  0  0  0
    7.3301    0.1550    0.0000 C   0  0  2  0  0  0  0  0  0  0  0  0
    8.1962   -0.3450    0.0000 C   0  0  0  0  0  0  0  0  0  0  0  0
    6.4641   -0.3450    0.0000 C   0  0  0  0  0  0  0  0  0  0  0  0
    9.0622    1.1550    0.0000 C   0  0  0  0  0  0  0  0  0  0  0  0
    9.9282    1.6550    0.0000 C   0  0  2  0  0  0  0  0  0  0  0  0
    8.1962   -1.3450    0.0000 C   0  0  0  0  0  0  0  0  0  0  0  0
    9.9282    2.6550    0.0000 C   0  0  0  0  0  0  0  0  0  0  0  0
   10.7942    3.1550    0.0000 C   0  0  0  0  0  0  0  0  0  0  0  0
   10.7942    0.1550    0.0000 C   0  0  0  0  0  0  0  0  0  0  0  0
   10.7942    4.1550    0.0000 C   0  0  0  0  0  0  0  0  0  0  0  0
   11.6603    2.6550    0.0000 C   0  0  0  0  0  0  0  0  0  0  0  0
   11.6603   -0.3450    0.0000 C   0  0  1  0  0  0  0  0  0  0  0  0
   12.5263    0.1550    0.0000 C   0  0  0  0  0  0  0  0  0  0  0  0
   13.3923   -0.3450    0.0000 C   0  0  0  0  0  0  0  0  0  0  0  0
   12.5263   -1.8450    0.0000 C   0  0  0  0  0  0  0  0  0  0  0  0
   12.5263   -2.8450    0.0000 C   0  0  2  0  0  0  0  0  0  0  0  0
   11.6603   -3.3450    0.0000 C   0  0  0  0  0  0  0  0  0  0  0  0
   14.2583    0.1550    0.0000 C   0  0  0  0  0  0  0  0  0  0  0  0
   11.6603   -4.3450    0.0000 C   0  0  0  0  0  0  0  0  0  0  0  0
   13.3923   -4.3450    0.0000 C   0  0  0  0  0  0  0  0  0  0  0  0
   14.2583   -4.8450    0.0000 C   0  0  0  0  0  0  0  0  0  0  0  0
   10.7942   -4.8450    0.0000 C   0  0  0  0  0  0  0  0  0  0  0  0
   14.2583   -5.8450    0.0000 C   0  0  0  0  0  0  0  0  0  0  0  0
   15.1244   -6.3450    0.0000 C   0  0  0  0  0  0  0  0  0  0  0  0
    4.8410    5.4196    0.0000 H   0  0  0  0  0  0  0  0  0  0  0  0
    3.8911    5.4196    0.0000 H   0  0  0  0  0  0  0  0  0  0  0  0
    4.9737    3.5444    0.0000 H   0  0  0  0  0  0  0  0  0  0  0  0
    5.4486    4.3670    0.0000 H   0  0  0  0  0  0  0  0  0  0  0  0
    3.3291    2.8450    0.0000 H   0  0  0  0  0  0  0  0  0  0  0  0
    4.4030    0.4650    0.0000 H   0  0  0  0  0  0  0  0  0  0  0  0
    4.7320    1.0350    0.0000 H   0  0  0  0  0  0  0  0  0  0  0  0
    3.6540    1.7376    0.0000 H   0  0  0  0  0  0  0  0  0  0  0  0
    3.2554    1.0473    0.0000 H   0  0  0  0  0  0  0  0  0  0  0  0
    2.7880    0.2376    0.0000 H   0  0  0  0  0  0  0  0  0  0  0  0
    2.3894   -0.4527    0.0000 H   0  0  0  0  0  0  0  0  0  0  0  0
    5.3426   -0.4527    0.0000 H   0  0  0  0  0  0  0  0  0  0  0  0
    4.9441    0.2376    0.0000 H   0  0  0  0  0  0  0  0  0  0  0  0
    2.3894   -1.2373    0.0000 H   0  0  0  0  0  0  0  0  0  0  0  0
    2.7880   -1.9276    0.0000 H   0  0  0  0  0  0  0  0  0  0  0  0
    4.9441   -1.9276    0.0000 H   0  0  0  0  0  0  0  0  0  0  0  0
    5.3426   -1.2373    0.0000 H   0  0  0  0  0  0  0  0  0  0  0  0
    3.4675   -2.3200    0.0000 H   0  0  0  0  0  0  0  0  0  0  0  0
    4.2646   -2.3200    0.0000 H   0  0  0  0  0  0  0  0  0  0  0  0
    5.5981    0.5350    0.0000 H   0  0  0  0  0  0  0  0  0  0  0  0
    7.3301    1.7750    0.0000 H   0  0  0  0  0  0  0  0  0  0  0  0
    7.3301   -0.4650    0.0000 H   0  0  0  0  0  0  0  0  0  0  0  0
    8.1962    2.2750    0.0000 H   0  0  0  0  0  0  0  0  0  0  0  0
    8.8067   -0.4527    0.0000 H   0  0  0  0  0  0  0  0  0  0  0  0
    8.4082    0.2376    0.0000 H   0  0  0  0  0  0  0  0  0  0  0  0
    6.1541    0.1919    0.0000 H   0  0  0  0  0  0  0  0  0  0  0  0
    5.9272   -0.6550    0.0000 H   0  0  0  0  0  0  0  0  0  0  0  0
    6.7741   -0.8819    0.0000 H   0  0  0  0  0  0  0  0  0  0  0  0
   10.4651    1.9650    0.0000 H   0  0  0  0  0  0  0  0  0  0  0  0
    7.5762   -1.3450    0.0000 H   0  0  0  0  0  0  0  0  0  0  0  0
    8.1962   -1.9650    0.0000 H   0  0  0  0  0  0  0  0  0  0  0  0
    8.8162   -1.3450    0.0000 H   0  0  0  0  0  0  0  0  0  0  0  0
    9.7162    3.2376    0.0000 H   0  0  0  0  0  0  0  0  0  0  0  0
    9.3176    2.5473    0.0000 H   0  0  0  0  0  0  0  0  0  0  0  0
   10.2573    3.4650    0.0000 H   0  0  0  0  0  0  0  0  0  0  0  0
   11.3312    1.4650    0.0000 H   0  0  0  0  0  0  0  0  0  0  0  0
   11.4142    4.1550    0.0000 H   0  0  0  0  0  0  0  0  0  0  0  0
   10.7942    4.7750    0.0000 H   0  0  0  0  0  0  0  0  0  0  0  0
   10.1742    4.1550    0.0000 H   0  0  0  0  0  0  0  0  0  0  0  0
   11.3503    2.1181    0.0000 H   0  0  0  0  0  0  0  0  0  0  0  0
   12.1972    2.3450    0.0000 H   0  0  0  0  0  0  0  0  0  0  0  0
   11.9703    3.1919    0.0000 H   0  0  0  0  0  0  0  0  0  0  0  0
   12.1972   -0.6550    0.0000 H   0  0  0  0  0  0  0  0  0  0  0  0
   12.9248    0.6299    0.0000 H   0  0  0  0  0  0  0  0  0  0  0  0
   12.1278    0.6299    0.0000 H   0  0  0  0  0  0  0  0  0  0  0  0
   11.1233   -1.6550    0.0000 H   0  0  0  0  0  0  0  0  0  0  0  0
   12.9938   -0.8199    0.0000 H   0  0  0  0  0  0  0  0  0  0  0  0
   13.7908   -0.8199    0.0000 H   0  0  0  0  0  0  0  0  0  0  0  0
   13.0632   -2.5350    0.0000 H   0  0  0  0  0  0  0  0  0  0  0  0
   11.4482   -2.7624    0.0000 H   0  0  0  0  0  0  0  0  0  0  0  0
   11.0497   -3.4527    0.0000 H   0  0  0  0  0  0  0  0  0  0  0  0
   13.9292   -3.0350    0.0000 H   0  0  0  0  0  0  0  0  0  0  0  0
   11.8723   -4.9276    0.0000 H   0  0  0  0  0  0  0  0  0  0  0  0
   12.2708   -4.2373    0.0000 H   0  0  0  0  0  0  0  0  0  0  0  0
   14.8689   -4.9527    0.0000 H   0  0  0  0  0  0  0  0  0  0  0  0
   14.4704   -4.2624    0.0000 H   0  0  0  0  0  0  0  0  0  0  0  0
   15.6613   -0.0350    0.0000 H   0  0  0  0  0  0  0  0  0  0  0  0
   13.6477   -5.7373    0.0000 H   0  0  0  0  0  0  0  0  0  0  0  0
   14.0463   -6.4276    0.0000 H   0  0  0  0  0  0  0  0  0  0  0  0
   10.2573   -6.1550    0.0000 H   0  0  0  0  0  0  0  0  0  0  0  0
   15.6613   -7.6550    0.0000 H   0  0  0  0  0  0  0  0  0  0  0  0
  1 33  1  0  0  0  0
  2 33  1  0  0  0  0
  3 39  1  0  0  0  0
  4 39  1  0  0  0  0
  5 39  1  0  0  0  0
  6 28  2  0  0  0  0
  7 31  2  0  0  0  0
  8 40  2  0  0  0  0
  9 45  2  0  0  0  0
 10 50  2  0  0  0  0
 11 56  2  0  0  0  0
 12 59  1  0  0  0  0
 12122  1  0  0  0  0
 13 59  2  0  0  0  0
 14 61  2  0  0  0  0
 15 63  1  0  0  0  0
 15125  1  0  0  0  0
 16 63  2  0  0  0  0
 17 65  1  0  0  0  0
 17126  1  0  0  0  0
 18 65  2  0  0  0  0
 19 25  1  0  0  0  0
 19 31  1  0  0  0  0
 19 70  1  0  0  0  0
 30 20  1  1  0  0  0
 20 40  1  0  0  0  0
 20 85  1  0  0  0  0
 41 21  1  1  0  0  0
 21 45  1  0  0  0  0
 21 88  1  0  0  0  0
 46 22  1  6  0  0  0
 22 50  1  0  0  0  0
 22101  1  0  0  0  0
 53 23  1  1  0  0  0
 23 56  1  0  0  0  0
 23111  1  0  0  0  0
 57 24  1  1  0  0  0
 24 61  1  0  0  0  0
 24117  1  0  0  0  0
 25 26  1  0  0  0  0
 25 27  1  0  0  0  0
 25 28  1  0  0  0  0
 26 27  1  0  0  0  0
 26 66  1  0  0  0  0
 26 67  1  0  0  0  0
 27 68  1  0  0  0  0
 27 69  1  0  0  0  0
 28 33  1  0  0  0  0
 29 32  1  0  0  0  0
 29 34  1  0  0  0  0
 29 35  1  0  0  0  0
 29 71  1  0  0  0  0
 30 31  1  0  0  0  0
 30 32  1  0  0  0  0
 30 72  1  0  0  0  0
 32 73  1  0  0  0  0
 32 74  1  0  0  0  0
 33 39  1  0  0  0  0
 34 36  1  0  0  0  0
 34 75  1  0  0  0  0
 34 76  1  0  0  0  0
 35 37  1  0  0  0  0
 35 77  1  0  0  0  0
 35 78  1  0  0  0  0
 36 38  1  0  0  0  0
 36 79  1  0  0  0  0
 36 80  1  0  0  0  0
 37 38  1  0  0  0  0
 37 81  1  0  0  0  0
 37 82  1  0  0  0  0
 38 83  1  0  0  0  0
 38 84  1  0  0  0  0
 40 41  1  0  0  0  0
 41 42  1  0  0  0  0
 41 86  1  0  0  0  0
 42 43  1  0  0  0  0
 42 44  1  6  0  0  0
 42 87  1  0  0  0  0
 43 47  1  0  0  0  0
 43 89  1  0  0  0  0
 43 90  1  0  0  0  0
 44 91  1  0  0  0  0
 44 92  1  0  0  0  0
 44 93  1  0  0  0  0
 45 46  1  0  0  0  0
 46 48  1  0  0  0  0
 46 94  1  0  0  0  0
 47 95  1  0  0  0  0
 47 96  1  0  0  0  0
 47 97  1  0  0  0  0
 48 49  1  0  0  0  0
 48 98  1  0  0  0  0
 48 99  1  0  0  0  0
 49 51  1  0  0  0  0
 49 52  1  0  0  0  0
 49100  1  0  0  0  0
 50 53  1  0  0  0  0
 51102  1  0  0  0  0
 51103  1  0  0  0  0
 51104  1  0  0  0  0
 52105  1  0  0  0  0
 52106  1  0  0  0  0
 52107  1  0  0  0  0
 53 54  1  0  0  0  0
 53108  1  0  0  0  0
 54 55  1  0  0  0  0
 54109  1  0  0  0  0
 54110  1  0  0  0  0
 55 59  1  0  0  0  0
 55112  1  0  0  0  0
 55113  1  0  0  0  0
 56 57  1  0  0  0  0
 57 58  1  0  0  0  0
 57114  1  0  0  0  0
 58 60  1  0  0  0  0
 58115  1  0  0  0  0
 58116  1  0  0  0  0
 60 63  1  0  0  0  0
 60118  1  0  0  0  0
 60119  1  0  0  0  0
 61 62  1  0  0  0  0
 62 64  1  0  0  0  0
 62120  1  0  0  0  0
 62121  1  0  0  0  0
 64 65  1  0  0  0  0
 64123  1  0  0  0  0
 64124  1  0  0  0  0
M  END
> <PUBCHEM_COMPOUND_CID>
507063
> <PUBCHEM_COMPOUND_CANONICALIZED>
1
> <PUBCHEM_CACTVS_COMPLEXITY>
1750
> <PUBCHEM_CACTVS_HBOND_ACCEPTOR>
18
> <PUBCHEM_CACTVS_HBOND_DONOR>
9
> <PUBCHEM_CACTVS_ROTATABLE_BOND>
28
> <PUBCHEM_CACTVS_SUBSKEYS>
AAADcfB/vcAAAAAAAAAAAAAAGAAAAAAAAAAwAAAAAAAAAAAAAAAAHwAQCAAADazBgBQCCALAAgAIAIGQGAAAAAAAAAAAAIGIAAAAQBIAgCAUQAAEFgCAAAG/n4KOAAAAAAAAAAAAAAAAAAAAAAAAAAAAAA==
> <PUBCHEM_IUPAC_OPENEYE_NAME>
(4S)-5-[[(1R)-3-carboxy-1-[[(1S)-1-[[(1S,2S)-1-[[(1S)-1-(cyclohexylmethyl)-2-oxo-2-[[1-(2,2,3,3,3-pentafluoropropanoyl)cyclopropyl]amino]ethyl]carbamoyl]-2-methyl-butyl]carbamoyl]-3-methyl-butyl]carbamoyl]propyl]amino]-4-(3-carboxypropanoylamino)-5-oxo-pentanoic acid
> <PUBCHEM_IUPAC_CAS_NAME>
(4S)-5-[[(2R)-4-carboxy-1-[[(2S)-1-[[(2S,3S)-1-[[(2S)-3-cyclohexyl-1-oxo-1-[[1-(2,2,3,3,3-pentafluoro-1-oxopropyl)cyclopropyl]amino]propan-2-yl]amino]-3-methyl-1-oxopentan-2-yl]amino]-4-methyl-1-oxopentan-2-yl]amino]-1-oxobutan-2-yl]amino]-4-[(3-carboxy-1-oxopropyl)amino]-5-oxopentanoic acid
> <PUBCHEM_IUPAC_NAME_MARKUP>
(4<I>S</I>)-5-[[(2<I>R</I>)-4-carboxy-1-[[(2<I>S</I>)-1-[[(2<I>S</I>,3<I>S</I>)-1-[[(2<I>S</I>)-3-cyclohexyl-1-oxo-1-[[1-(2,2,3,3,3-pentafluoropropanoyl)cyclopropyl]amino]propan-2-yl]amino]-3-methyl-1-oxopentan-2-yl]amino]-4-methyl-1-oxopentan-2-yl]amino]-1-oxobutan-2-yl]amino]-4-(3-carboxypropanoylamino)-5-oxopentanoic acid
> <PUBCHEM_IUPAC_NAME>
(4S)-5-[[(2R)-4-carboxy-1-[[(2S)-1-[[(2S,3S)-1-[[(2S)-3-cyclohexyl-1-oxo-1-[[1-(2,2,3,3,3-pentafluoropropanoyl)cyclopropyl]amino]propan-2-yl]amino]-3-methyl-1-oxopentan-2-yl]amino]-4-methyl-1-oxopentan-2-yl]amino]-1-oxobutan-2-yl]amino]-4-(3-carboxypropanoylamino)-5-oxopentanoic acid
> <PUBCHEM_IUPAC_SYSTEMATIC_NAME>
(4S)-5-[[(2R)-1-[[(2S)-1-[[(2S,3S)-1-[[(2S)-3-cyclohexyl-1-oxidanylidene-1-[[1-[2,2,3,3,3-pentakis(fluoranyl)propanoyl]cyclopropyl]amino]propan-2-yl]amino]-3-methyl-1-oxidanylidene-pentan-2-yl]amino]-4-methyl-1-oxidanylidene-pentan-2-yl]amino]-5-oxidanyl-1,5-bis(oxidanylidene)pentan-2-yl]amino]-5-oxidanylidene-4-[(4-oxidanyl-4-oxidanylidene-butanoyl)amino]pentanoic acid
> <PUBCHEM_IUPAC_TRADITIONAL_NAME>
(4S)-5-[[(1R)-3-carboxy-1-[[(1S)-1-[[(1S,2S)-1-[[(1S)-1-(cyclohexylmethyl)-2-keto-2-[[1-(2,2,3,3,3-pentafluoropropanoyl)cyclopropyl]amino]ethyl]carbamoyl]-2-methyl-butyl]carbamoyl]-3-methyl-butyl]carbamoyl]propyl]amino]-4-(3-carboxypropanoylamino)-5-keto-valeric acid
> <PUBCHEM_IUPAC_INCHI>
InChI=1S/C41H61F5N6O13/c1-5-22(4)32(37(64)50-27(20-23-9-7-6-8-10-23)36(63)52-39(17-18-39)38(65)40(42,43)41(44,45)46)51-35(62)26(19-21(2)3)49-34(61)25(12-15-30(56)57)48-33(60)24(11-14-29(54)55)47-28(53)13-16-31(58)59/h21-27,32H,5-20H2,1-4H3,(H,47,53)(H,48,60)(H,49,61)(H,50,64)(H,51,62)(H,52,63)(H,54,55)(H,56,57)(H,58,59)/t22-,24-,25+,26-,27-,32-/m0/s1
> <PUBCHEM_IUPAC_INCHIKEY>
VGDZZWAKGIPUPP-UWIAJDIOSA-N
> <PUBCHEM_XLOGP3_AA>
3.9
> <PUBCHEM_EXACT_MASS>
940.42167683
> <PUBCHEM_MOLECULAR_FORMULA>
C41H61F5N6O13
> <PUBCHEM_MOLECULAR_WEIGHT>
940.9
> <PUBCHEM_OPENEYE_CAN_SMILES>
CCC(C)C(C(=O)NC(CC1CCCCC1)C(=O)NC2(CC2)C(=O)C(C(F)(F)F)(F)F)NC(=O)C(CC(C)C)NC(=O)C(CCC(=O)O)NC(=O)C(CCC(=O)O)NC(=O)CCC(=O)O
> <PUBCHEM_OPENEYE_ISO_SMILES>
CC[C@H](C)[C@@H](C(=O)N[C@@H](CC1CCCCC1)C(=O)NC2(CC2)C(=O)C(C(F)(F)F)(F)F)NC(=O)[C@H](CC(C)C)NC(=O)[C@@H](CCC(=O)O)NC(=O)[C@H](CCC(=O)O)NC(=O)CCC(=O)O
> <PUBCHEM_CACTVS_TPSA>
304
> <PUBCHEM_MONOISOTOPIC_WEIGHT>
940.42167683
> <PUBCHEM_TOTAL_CHARGE>
0
> <PUBCHEM_HEAVY_ATOM_COUNT>
65
> <PUBCHEM_ATOM_DEF_STEREO_COUNT>
6
> <PUBCHEM_ATOM_UDEF_STEREO_COUNT>
0
> <PUBCHEM_BOND_DEF_STEREO_COUNT>
0
> <PUBCHEM_BOND_UDEF_STEREO_COUNT>
0
> <PUBCHEM_ISOTOPIC_ATOM_COUNT>
0
> <PUBCHEM_COMPONENT_COUNT>
1
> <PUBCHEM_CACTVS_TAUTO_COUNT>
-1
> <PUBCHEM_COORDINATE_TYPE>
1
5
255
> <PUBCHEM_BONDANNOTATIONS>
30  20  5
41  21  5
46  22  6
53  23  5
57  24  5
42  44  6
$$$$
