507086
  -OEChem-10302200282D
116121  0     1  0  0  0  0  0999 V2000
    2.7399    4.1565    0.0000 Cl  0  0  0  0  0  0  0  0  0  0  0  0
    7.6070   13.9679    0.0000 S   0  0  0  0  0  0  0  0  0  0  0  0
    7.2700    2.4486    0.0000 F   0  0  0  0  0  0  0  0  0  0  0  0
    6.2700    2.4487    0.0000 F   0  0  0  0  0  0  0  0  0  0  0  0
    7.7700    3.3147    0.0000 F   0  0  0  0  0  0  0  0  0  0  0  0
    5.8750   16.9679    0.0000 O   0  0  0  0  0  0  0  0  0  0  0  0
    4.1429   13.9679    0.0000 O   0  0  0  0  0  0  0  0  0  0  0  0
    7.6070   12.9679    0.0000 O   0  0  0  0  0  0  0  0  0  0  0  0
    5.0089    9.4679    0.0000 O   0  0  0  0  0  0  0  0  0  0  0  0
    8.0021    6.1807    0.0000 O   0  0  0  0  0  0  0  0  0  0  0  0
    4.1429   15.9679    0.0000 N   0  0  3  0  0  0  0  0  0  0  0  0
    5.0089   18.4679    0.0000 N   0  0  0  0  0  0  0  0  0  0  0  0
    5.8750   12.9679    0.0000 N   0  0  0  0  0  0  0  0  0  0  0  0
    7.1361    4.6807    0.0000 N   0  0  0  0  0  0  0  0  0  0  0  0
    6.2700    6.1807    0.0000 N   0  0  0  0  0  0  0  0  0  0  0  0
    2.4109   16.9679    0.0000 C   0  0  2  0  0  0  0  0  0  0  0  0
    2.4109   15.9679    0.0000 C   0  0  1  0  0  0  0  0  0  0  0  0
    3.2769   17.4679    0.0000 C   0  0  0  0  0  0  0  0  0  0  0  0
    3.2769   15.4679    0.0000 C   0  0  0  0  0  0  0  0  0  0  0  0
    1.5169   17.5026    0.0000 C   0  0  0  0  0  0  0  0  0  0  0  0
    1.5169   15.4333    0.0000 C   0  0  0  0  0  0  0  0  0  0  0  0
    4.1429   16.9679    0.0000 C   0  0  1  0  0  0  0  0  0  0  0  0
    0.6109   16.9887    0.0000 C   0  0  0  0  0  0  0  0  0  0  0  0
    0.6109   15.9471    0.0000 C   0  0  0  0  0  0  0  0  0  0  0  0
    5.0089   15.4679    0.0000 C   0  0  0  0  0  0  0  0  0  0  0  0
    5.0089   17.4679    0.0000 C   0  0  0  0  0  0  0  0  0  0  0  0
    5.0089   14.4679    0.0000 C   0  0  2  0  0  0  0  0  0  0  0  0
    5.8750   13.9679    0.0000 C   0  0  2  0  0  0  0  0  0  0  0  0
    5.8750   18.9679    0.0000 C   0  0  0  0  0  0  0  0  0  0  0  0
    6.7410   14.4679    0.0000 C   0  0  0  0  0  0  0  0  0  0  0  0
    6.7410   19.4679    0.0000 C   0  0  0  0  0  0  0  0  0  0  0  0
    5.3750   19.8339    0.0000 C   0  0  0  0  0  0  0  0  0  0  0  0
    6.3750   18.1019    0.0000 C   0  0  0  0  0  0  0  0  0  0  0  0
    6.7410   12.4679    0.0000 C   0  0  0  0  0  0  0  0  0  0  0  0
    6.7410   11.4679    0.0000 C   0  0  0  0  0  0  0  0  0  0  0  0
    8.4730   14.4679    0.0000 C   0  0  0  0  0  0  0  0  0  0  0  0
    4.7700    1.5826    0.0000 C   0  0  0  0  0  0  0  0  0  0  0  0
    3.9040    1.0826    0.0000 C   0  0  0  0  0  0  0  0  0  0  0  0
    4.7700    0.5826    0.0000 C   0  0  0  0  0  0  0  0  0  0  0  0
    5.8750   10.9679    0.0000 C   0  0  0  0  0  0  0  0  0  0  0  0
    7.6070   10.9679    0.0000 C   0  0  0  0  0  0  0  0  0  0  0  0
    8.4730   15.4679    0.0000 C   0  0  0  0  0  0  0  0  0  0  0  0
    9.3391   13.9679    0.0000 C   0  0  0  0  0  0  0  0  0  0  0  0
    5.2700    2.4486    0.0000 C   0  0  0  0  0  0  0  0  0  0  0  0
    5.8750    9.9679    0.0000 C   0  0  0  0  0  0  0  0  0  0  0  0
    5.0089   11.4679    0.0000 C   0  0  0  0  0  0  0  0  0  0  0  0
    7.6070    9.9679    0.0000 C   0  0  0  0  0  0  0  0  0  0  0  0
    6.2700    4.1807    0.0000 C   0  0  1  0  0  0  0  0  0  0  0  0
    9.3391   15.9679    0.0000 C   0  0  0  0  0  0  0  0  0  0  0  0
   10.2051   14.4679    0.0000 C   0  0  0  0  0  0  0  0  0  0  0  0
    6.7410    9.4679    0.0000 C   0  0  0  0  0  0  0  0  0  0  0  0
    5.7700    3.3147    0.0000 C   0  0  0  0  0  0  0  0  0  0  0  0
   10.2051   15.4679    0.0000 C   0  0  0  0  0  0  0  0  0  0  0  0
    5.4040    4.6807    0.0000 C   0  0  0  0  0  0  0  0  0  0  0  0
    6.7700    3.3147    0.0000 C   0  0  0  0  0  0  0  0  0  0  0  0
    5.4040    5.6807    0.0000 C   0  0  0  0  0  0  0  0  0  0  0  0
    7.1361    5.6807    0.0000 C   0  0  0  0  0  0  0  0  0  0  0  0
    4.5101    4.1460    0.0000 C   0  0  0  0  0  0  0  0  0  0  0  0
    4.5101    6.2154    0.0000 C   0  0  0  0  0  0  0  0  0  0  0  0
    3.6040    4.6599    0.0000 C   0  0  0  0  0  0  0  0  0  0  0  0
    3.6040    5.7015    0.0000 C   0  0  0  0  0  0  0  0  0  0  0  0
    2.4174   17.8179    0.0000 H   0  0  0  0  0  0  0  0  0  0  0  0
    2.4174   15.1179    0.0000 H   0  0  0  0  0  0  0  0  0  0  0  0
    3.6754   17.9429    0.0000 H   0  0  0  0  0  0  0  0  0  0  0  0
    2.8784   17.9429    0.0000 H   0  0  0  0  0  0  0  0  0  0  0  0
    2.8784   14.9930    0.0000 H   0  0  0  0  0  0  0  0  0  0  0  0
    3.6754   14.9930    0.0000 H   0  0  0  0  0  0  0  0  0  0  0  0
    1.9215   17.9724    0.0000 H   0  0  0  0  0  0  0  0  0  0  0  0
    1.1233   17.9816    0.0000 H   0  0  0  0  0  0  0  0  0  0  0  0
    1.1233   14.9542    0.0000 H   0  0  0  0  0  0  0  0  0  0  0  0
    1.9215   14.9635    0.0000 H   0  0  0  0  0  0  0  0  0  0  0  0
    4.6798   16.6579    0.0000 H   0  0  0  0  0  0  0  0  0  0  0  0
    0.4018   17.5724    0.0000 H   0  0  0  0  0  0  0  0  0  0  0  0
    0.0000   16.8826    0.0000 H   0  0  0  0  0  0  0  0  0  0  0  0
    0.0000   16.0532    0.0000 H   0  0  0  0  0  0  0  0  0  0  0  0
    0.4018   15.3634    0.0000 H   0  0  0  0  0  0  0  0  0  0  0  0
    5.6195   15.3603    0.0000 H   0  0  0  0  0  0  0  0  0  0  0  0
    5.2210   16.0505    0.0000 H   0  0  0  0  0  0  0  0  0  0  0  0
    5.0089   13.8479    0.0000 H   0  0  0  0  0  0  0  0  0  0  0  0
    4.4720   18.7779    0.0000 H   0  0  0  0  0  0  0  0  0  0  0  0
    6.4119   13.6579    0.0000 H   0  0  0  0  0  0  0  0  0  0  0  0
    4.1429   13.3479    0.0000 H   0  0  0  0  0  0  0  0  0  0  0  0
    7.1395   14.9429    0.0000 H   0  0  0  0  0  0  0  0  0  0  0  0
    6.3425   14.9429    0.0000 H   0  0  0  0  0  0  0  0  0  0  0  0
    5.3380   12.6579    0.0000 H   0  0  0  0  0  0  0  0  0  0  0  0
    7.0510   18.9310    0.0000 H   0  0  0  0  0  0  0  0  0  0  0  0
    7.2779   19.7779    0.0000 H   0  0  0  0  0  0  0  0  0  0  0  0
    6.4310   20.0049    0.0000 H   0  0  0  0  0  0  0  0  0  0  0  0
    5.9119   20.1439    0.0000 H   0  0  0  0  0  0  0  0  0  0  0  0
    5.0650   20.3709    0.0000 H   0  0  0  0  0  0  0  0  0  0  0  0
    4.8380   19.5239    0.0000 H   0  0  0  0  0  0  0  0  0  0  0  0
    5.8380   17.7919    0.0000 H   0  0  0  0  0  0  0  0  0  0  0  0
    6.6850   17.5650    0.0000 H   0  0  0  0  0  0  0  0  0  0  0  0
    6.9119   18.4119    0.0000 H   0  0  0  0  0  0  0  0  0  0  0  0
    5.3689    1.4221    0.0000 H   0  0  0  0  0  0  0  0  0  0  0  0
    3.5055    1.5576    0.0000 H   0  0  0  0  0  0  0  0  0  0  0  0
    3.5055    0.6077    0.0000 H   0  0  0  0  0  0  0  0  0  0  0  0
    4.5580    0.0000    0.0000 H   0  0  0  0  0  0  0  0  0  0  0  0
    5.3806    0.4749    0.0000 H   0  0  0  0  0  0  0  0  0  0  0  0
    8.1440   11.2779    0.0000 H   0  0  0  0  0  0  0  0  0  0  0  0
    7.9361   15.7779    0.0000 H   0  0  0  0  0  0  0  0  0  0  0  0
    9.3391   13.3479    0.0000 H   0  0  0  0  0  0  0  0  0  0  0  0
    5.3189   12.0049    0.0000 H   0  0  0  0  0  0  0  0  0  0  0  0
    4.4720   11.7779    0.0000 H   0  0  0  0  0  0  0  0  0  0  0  0
    4.6989   10.9310    0.0000 H   0  0  0  0  0  0  0  0  0  0  0  0
    8.1440    9.6579    0.0000 H   0  0  0  0  0  0  0  0  0  0  0  0
    9.3391   16.5879    0.0000 H   0  0  0  0  0  0  0  0  0  0  0  0
   10.7420   14.1579    0.0000 H   0  0  0  0  0  0  0  0  0  0  0  0
    6.7410    8.8479    0.0000 H   0  0  0  0  0  0  0  0  0  0  0  0
   10.7420   15.7779    0.0000 H   0  0  0  0  0  0  0  0  0  0  0  0
    7.7561    4.6807    0.0000 H   0  0  0  0  0  0  0  0  0  0  0  0
    5.0089    8.8479    0.0000 H   0  0  0  0  0  0  0  0  0  0  0  0
    4.5172    3.5261    0.0000 H   0  0  0  0  0  0  0  0  0  0  0  0
    6.2700    6.8007    0.0000 H   0  0  0  0  0  0  0  0  0  0  0  0
    4.5172    6.8353    0.0000 H   0  0  0  0  0  0  0  0  0  0  0  0
    3.0683    6.0136    0.0000 H   0  0  0  0  0  0  0  0  0  0  0  0
  1 60  1  0  0  0  0
  2 30  1  0  0  0  0
  2 36  1  0  0  0  0
  3 55  1  0  0  0  0
  4 55  1  0  0  0  0
  5 55  1  0  0  0  0
  6 26  2  0  0  0  0
 27  7  1  6  0  0  0
  7 82  1  0  0  0  0
  8 34  2  0  0  0  0
  9 45  1  0  0  0  0
  9112  1  0  0  0  0
 10 57  2  0  0  0  0
 11 19  1  0  0  0  0
 11 22  1  0  0  0  0
 11 25  1  0  0  0  0
 12 26  1  0  0  0  0
 12 29  1  0  0  0  0
 12 80  1  0  0  0  0
 28 13  1  6  0  0  0
 13 34  1  0  0  0  0
 13 85  1  0  0  0  0
 14 48  1  0  0  0  0
 14 57  1  0  0  0  0
 14111  1  0  0  0  0
 15 56  1  0  0  0  0
 15 57  1  0  0  0  0
 15114  1  0  0  0  0
 16 17  1  0  0  0  0
 16 18  1  0  0  0  0
 16 20  1  0  0  0  0
 16 62  1  6  0  0  0
 17 19  1  0  0  0  0
 17 21  1  0  0  0  0
 17 63  1  6  0  0  0
 18 22  1  0  0  0  0
 18 64  1  0  0  0  0
 18 65  1  0  0  0  0
 19 66  1  0  0  0  0
 19 67  1  0  0  0  0
 20 23  1  0  0  0  0
 20 68  1  0  0  0  0
 20 69  1  0  0  0  0
 21 24  1  0  0  0  0
 21 70  1  0  0  0  0
 21 71  1  0  0  0  0
 22 26  1  1  0  0  0
 22 72  1  0  0  0  0
 23 24  1  0  0  0  0
 23 73  1  0  0  0  0
 23 74  1  0  0  0  0
 24 75  1  0  0  0  0
 24 76  1  0  0  0  0
 25 27  1  0  0  0  0
 25 77  1  0  0  0  0
 25 78  1  0  0  0  0
 27 28  1  0  0  0  0
 27 79  1  0  0  0  0
 28 30  1  0  0  0  0
 28 81  1  0  0  0  0
 29 31  1  0  0  0  0
 29 32  1  0  0  0  0
 29 33  1  0  0  0  0
 30 83  1  0  0  0  0
 30 84  1  0  0  0  0
 31 86  1  0  0  0  0
 31 87  1  0  0  0  0
 31 88  1  0  0  0  0
 32 89  1  0  0  0  0
 32 90  1  0  0  0  0
 32 91  1  0  0  0  0
 33 92  1  0  0  0  0
 33 93  1  0  0  0  0
 33 94  1  0  0  0  0
 34 35  1  0  0  0  0
 35 40  2  0  0  0  0
 35 41  1  0  0  0  0
 36 42  2  0  0  0  0
 36 43  1  0  0  0  0
 37 38  1  0  0  0  0
 37 39  1  0  0  0  0
 37 44  1  0  0  0  0
 37 95  1  0  0  0  0
 38 39  1  0  0  0  0
 38 96  1  0  0  0  0
 38 97  1  0  0  0  0
 39 98  1  0  0  0  0
 39 99  1  0  0  0  0
 40 45  1  0  0  0  0
 40 46  1  0  0  0  0
 41 47  2  0  0  0  0
 41100  1  0  0  0  0
 42 49  1  0  0  0  0
 42101  1  0  0  0  0
 43 50  2  0  0  0  0
 43102  1  0  0  0  0
 44 52  3  0  0  0  0
 45 51  2  0  0  0  0
 46103  1  0  0  0  0
 46104  1  0  0  0  0
 46105  1  0  0  0  0
 47 51  1  0  0  0  0
 47106  1  0  0  0  0
 48 52  1  1  0  0  0
 48 54  1  0  0  0  0
 48 55  1  0  0  0  0
 49 53  2  0  0  0  0
 49107  1  0  0  0  0
 50 53  1  0  0  0  0
 50108  1  0  0  0  0
 51109  1  0  0  0  0
 53110  1  0  0  0  0
 54 56  2  0  0  0  0
 54 58  1  0  0  0  0
 56 59  1  0  0  0  0
 58 60  2  0  0  0  0
 58113  1  0  0  0  0
 59 61  2  0  0  0  0
 59115  1  0  0  0  0
 60 61  1  0  0  0  0
 61116  1  0  0  0  0
M  END
> <PUBCHEM_COMPOUND_CID>
507086
> <PUBCHEM_COMPOUND_CANONICALIZED>
1
> <PUBCHEM_CACTVS_COMPLEXITY>
1350
> <PUBCHEM_CACTVS_HBOND_ACCEPTOR>
10
> <PUBCHEM_CACTVS_HBOND_DONOR>
6
> <PUBCHEM_CACTVS_ROTATABLE_BOND>
11
> <PUBCHEM_CACTVS_SUBSKEYS>
AAADcfB/uYBEAAAAAAAAAAAAGAAAAAAAAAA8eMGCAAAAAACxUAAAHwYQCAAADb7l2Dazx4PAAgjIEiVSUAiCAAAlLxAIiJmObsiKdjLj17OUcQhs1hP42ae6yPCOgABBIAAaAAAAAIJAADQAAAAAAAAAAA==
> <PUBCHEM_IUPAC_OPENEYE_NAME>
(3S,4aS,8aS)-N-tert-butyl-2-[(2R,3R)-2-hydroxy-3-[(3-hydroxy-2-methyl-benzoyl)amino]-4-phenylsulfanyl-butyl]-3,4,4a,5,6,7,8,8a-octahydro-1H-isoquinoline-3-carboxamide;(4S)-6-chloro-4-(2-cyclopropylethynyl)-4-(trifluoromethyl)-1,3-dihydroquinazolin-2-one
> <PUBCHEM_IUPAC_CAS_NAME>
(3S,4aS,8aS)-N-tert-butyl-2-[(2R,3R)-2-hydroxy-3-[[(3-hydroxy-2-methylphenyl)-oxomethyl]amino]-4-(phenylthio)butyl]-3,4,4a,5,6,7,8,8a-octahydro-1H-isoquinoline-3-carboxamide;(4S)-6-chloro-4-(2-cyclopropylethynyl)-4-(trifluoromethyl)-1,3-dihydroquinazolin-2-one
> <PUBCHEM_IUPAC_NAME_MARKUP>
(3<I>S</I>,4<I>a</I><I>S</I>,8<I>a</I><I>S</I>)-<I>N</I>-<I>tert</I>-butyl-2-[(2<I>R</I>,3<I>R</I>)-2-hydroxy-3-[(3-hydroxy-2-methylbenzoyl)amino]-4-phenylsulfanylbutyl]-3,4,4<I>a</I>,5,6,7,8,8<I>a</I>-octahydro-1<I>H</I>-isoquinoline-3-carboxamide;(4<I>S</I>)-6-chloro-4-(2-cyclopropylethynyl)-4-(trifluoromethyl)-1,3-dihydroquinazolin-2-one
> <PUBCHEM_IUPAC_NAME>
(3S,4aS,8aS)-N-tert-butyl-2-[(2R,3R)-2-hydroxy-3-[(3-hydroxy-2-methylbenzoyl)amino]-4-phenylsulfanylbutyl]-3,4,4a,5,6,7,8,8a-octahydro-1H-isoquinoline-3-carboxamide;(4S)-6-chloro-4-(2-cyclopropylethynyl)-4-(trifluoromethyl)-1,3-dihydroquinazolin-2-one
> <PUBCHEM_IUPAC_SYSTEMATIC_NAME>
(3S,4aS,8aS)-N-tert-butyl-2-[(2R,3R)-3-[(2-methyl-3-oxidanyl-phenyl)carbonylamino]-2-oxidanyl-4-phenylsulfanyl-butyl]-3,4,4a,5,6,7,8,8a-octahydro-1H-isoquinoline-3-carboxamide;(4S)-6-chloranyl-4-(2-cyclopropylethynyl)-4-(trifluoromethyl)-1,3-dihydroquinazolin-2-one
> <PUBCHEM_IUPAC_TRADITIONAL_NAME>
(3S,4aS,8aS)-N-tert-butyl-2-[(2R,3R)-2-hydroxy-3-[(3-hydroxy-2-methyl-benzoyl)amino]-4-(phenylthio)butyl]-3,4,4a,5,6,7,8,8a-octahydro-1H-isoquinoline-3-carboxamide;(4S)-6-chloro-4-(2-cyclopropylethynyl)-4-(trifluoromethyl)-1,3-dihydroquinazolin-2-one
> <PUBCHEM_IUPAC_INCHI>
InChI=1S/C32H45N3O4S.C14H10ClF3N2O/c1-21-25(15-10-16-28(21)36)30(38)33-26(20-40-24-13-6-5-7-14-24)29(37)19-35-18-23-12-9-8-11-22(23)17-27(35)31(39)34-32(2,3)4;15-9-3-4-11-10(7-9)13(14(16,17)18,20-12(21)19-11)6-5-8-1-2-8/h5-7,10,13-16,22-23,26-27,29,36-37H,8-9,11-12,17-20H2,1-4H3,(H,33,38)(H,34,39);3-4,7-8H,1-2H2,(H2,19,20,21)/t22-,23+,26-,27-,29+;13-/m00/s1
> <PUBCHEM_IUPAC_INCHIKEY>
ITSBHWZXKNTRIC-FBHACBHOSA-N
> <PUBCHEM_EXACT_MASS>
881.3564532
> <PUBCHEM_MOLECULAR_FORMULA>
C46H55ClF3N5O5S
> <PUBCHEM_MOLECULAR_WEIGHT>
882.5
> <PUBCHEM_OPENEYE_CAN_SMILES>
CC1=C(C=CC=C1O)C(=O)NC(CSC2=CC=CC=C2)C(CN3CC4CCCCC4CC3C(=O)NC(C)(C)C)O.C1CC1C#CC2(C3=C(C=CC(=C3)Cl)NC(=O)N2)C(F)(F)F
> <PUBCHEM_OPENEYE_ISO_SMILES>
CC1=C(C=CC=C1O)C(=O)N[C@@H](CSC2=CC=CC=C2)[C@@H](CN3C[C@H]4CCCC[C@H]4C[C@H]3C(=O)NC(C)(C)C)O.C1CC1C#C[C@]2(C3=C(C=CC(=C3)Cl)NC(=O)N2)C(F)(F)F
> <PUBCHEM_CACTVS_TPSA>
168
> <PUBCHEM_MONOISOTOPIC_WEIGHT>
881.3564532
> <PUBCHEM_TOTAL_CHARGE>
0
> <PUBCHEM_HEAVY_ATOM_COUNT>
61
> <PUBCHEM_ATOM_DEF_STEREO_COUNT>
6
> <PUBCHEM_ATOM_UDEF_STEREO_COUNT>
0
> <PUBCHEM_BOND_DEF_STEREO_COUNT>
0
> <PUBCHEM_BOND_UDEF_STEREO_COUNT>
0
> <PUBCHEM_ISOTOPIC_ATOM_COUNT>
0
> <PUBCHEM_COMPONENT_COUNT>
2
> <PUBCHEM_CACTVS_TAUTO_COUNT>
-1
> <PUBCHEM_COORDINATE_TYPE>
1
5
255
> <PUBCHEM_BONDANNOTATIONS>
28  13  6
16  62  6
17  63  6
22  26  5
35  40  8
35  41  8
36  42  8
36  43  8
40  45  8
41  47  8
42  49  8
43  50  8
45  51  8
47  51  8
48  52  5
49  53  8
50  53  8
54  56  8
54  58  8
56  59  8
58  60  8
59  61  8
60  61  8
27  7  6
$$$$
