507053
  -OEChem-10302200282D
110110  0     1  0  0  0  0  0999 V2000
    8.0622   -5.6550    0.0000 O   0  0  0  0  0  0  0  0  0  0  0  0
    5.4641   -3.1550    0.0000 O   0  0  0  0  0  0  0  0  0  0  0  0
    6.3301    0.3450    0.0000 O   0  0  0  0  0  0  0  0  0  0  0  0
   11.5263   -4.6550    0.0000 O   0  0  0  0  0  0  0  0  0  0  0  0
   10.6603   -3.1550    0.0000 O   0  0  0  0  0  0  0  0  0  0  0  0
    6.3301    1.3450    0.0000 O   0  0  0  0  0  0  0  0  0  0  0  0
    5.4641    4.8450    0.0000 O   0  0  0  0  0  0  0  0  0  0  0  0
    3.7320    5.8450    0.0000 O   0  0  0  0  0  0  0  0  0  0  0  0
    2.8660    4.3450    0.0000 O   0  0  0  0  0  0  0  0  0  0  0  0
    8.0622    7.3450    0.0000 O   0  0  0  0  0  0  0  0  0  0  0  0
    8.9282    5.8450    0.0000 O   0  0  0  0  0  0  0  0  0  0  0  0
    7.1962   -3.1550    0.0000 N   0  0  0  0  0  0  0  0  0  0  0  0
    8.9282   -4.1550    0.0000 N   0  0  0  0  0  0  0  0  0  0  0  0
    5.4641   -1.1550    0.0000 N   0  0  0  0  0  0  0  0  0  0  0  0
    4.5981    1.3450    0.0000 N   0  0  0  0  0  0  0  0  0  0  0  0
    6.3301    3.3450    0.0000 N   0  0  0  0  0  0  0  0  0  0  0  0
    6.3301   -5.6550    0.0000 C   0  0  0  0  0  0  0  0  0  0  0  0
    5.4641   -6.1550    0.0000 C   0  0  0  0  0  0  0  0  0  0  0  0
    7.1962   -6.1550    0.0000 C   0  0  0  0  0  0  0  0  0  0  0  0
    6.3301   -4.6550    0.0000 C   0  0  0  0  0  0  0  0  0  0  0  0
    5.4641   -7.1550    0.0000 C   0  0  0  0  0  0  0  0  0  0  0  0
    7.1962   -7.1550    0.0000 C   0  0  0  0  0  0  0  0  0  0  0  0
    6.3301   -7.6550    0.0000 C   0  0  0  0  0  0  0  0  0  0  0  0
    7.1962   -4.1550    0.0000 C   0  0  1  0  0  0  0  0  0  0  0  0
    8.0622   -4.6550    0.0000 C   0  0  0  0  0  0  0  0  0  0  0  0
    6.3301   -1.6550    0.0000 C   0  0  2  0  0  0  0  0  0  0  0  0
    6.3301   -2.6550    0.0000 C   0  0  0  0  0  0  0  0  0  0  0  0
    7.1962   -1.1550    0.0000 C   0  0  2  0  0  0  0  0  0  0  0  0
    7.1962   -0.1550    0.0000 C   0  0  0  0  0  0  0  0  0  0  0  0
    9.7942   -4.6550    0.0000 C   0  0  1  0  0  0  0  0  0  0  0  0
    8.0622   -1.6550    0.0000 C   0  0  0  0  0  0  0  0  0  0  0  0
    4.5981    0.3450    0.0000 C   0  0  2  0  0  0  0  0  0  0  0  0
    5.4641   -0.1550    0.0000 C   0  0  0  0  0  0  0  0  0  0  0  0
    9.7942   -5.6550    0.0000 C   0  0  0  0  0  0  0  0  0  0  0  0
    3.7320   -0.1550    0.0000 C   0  0  0  0  0  0  0  0  0  0  0  0
    8.0622    0.3450    0.0000 C   0  0  0  0  0  0  0  0  0  0  0  0
    2.8660    0.3450    0.0000 C   0  0  0  0  0  0  0  0  0  0  0  0
   10.6603   -4.1550    0.0000 C   0  0  0  0  0  0  0  0  0  0  0  0
   10.6603   -6.1550    0.0000 C   0  0  0  0  0  0  0  0  0  0  0  0
    2.0000   -0.1550    0.0000 C   0  0  0  0  0  0  0  0  0  0  0  0
    2.8660    1.3450    0.0000 C   0  0  0  0  0  0  0  0  0  0  0  0
    5.4641    1.8450    0.0000 C   0  0  0  0  0  0  0  0  0  0  0  0
    5.4641    2.8450    0.0000 C   0  0  1  0  0  0  0  0  0  0  0  0
   10.6603   -7.1550    0.0000 C   0  0  0  0  0  0  0  0  0  0  0  0
    4.5981    3.3450    0.0000 C   0  0  0  0  0  0  0  0  0  0  0  0
    4.5981    4.3450    0.0000 C   0  0  0  0  0  0  0  0  0  0  0  0
    6.3301    4.3450    0.0000 C   0  0  0  0  0  0  0  0  0  0  0  0
    7.1962    4.8450    0.0000 C   0  0  0  0  0  0  0  0  0  0  0  0
    3.7320    4.8450    0.0000 C   0  0  0  0  0  0  0  0  0  0  0  0
    7.1962    5.8450    0.0000 C   0  0  0  0  0  0  0  0  0  0  0  0
    8.0622    6.3450    0.0000 C   0  0  0  0  0  0  0  0  0  0  0  0
    6.8671   -5.3450    0.0000 H   0  0  0  0  0  0  0  0  0  0  0  0
    5.2520   -5.5724    0.0000 H   0  0  0  0  0  0  0  0  0  0  0  0
    4.8535   -6.2627    0.0000 H   0  0  0  0  0  0  0  0  0  0  0  0
    7.8067   -6.2627    0.0000 H   0  0  0  0  0  0  0  0  0  0  0  0
    7.4082   -5.5724    0.0000 H   0  0  0  0  0  0  0  0  0  0  0  0
    6.1181   -4.0724    0.0000 H   0  0  0  0  0  0  0  0  0  0  0  0
    5.7196   -4.7627    0.0000 H   0  0  0  0  0  0  0  0  0  0  0  0
    4.8535   -7.0473    0.0000 H   0  0  0  0  0  0  0  0  0  0  0  0
    5.2520   -7.7376    0.0000 H   0  0  0  0  0  0  0  0  0  0  0  0
    7.4082   -7.7376    0.0000 H   0  0  0  0  0  0  0  0  0  0  0  0
    7.8067   -7.0473    0.0000 H   0  0  0  0  0  0  0  0  0  0  0  0
    5.9316   -8.1299    0.0000 H   0  0  0  0  0  0  0  0  0  0  0  0
    6.7287   -8.1299    0.0000 H   0  0  0  0  0  0  0  0  0  0  0  0
    6.6592   -3.8450    0.0000 H   0  0  0  0  0  0  0  0  0  0  0  0
    7.7331   -2.8450    0.0000 H   0  0  0  0  0  0  0  0  0  0  0  0
    5.7932   -1.9650    0.0000 H   0  0  0  0  0  0  0  0  0  0  0  0
    7.7331   -0.8450    0.0000 H   0  0  0  0  0  0  0  0  0  0  0  0
    8.9282   -3.5350    0.0000 H   0  0  0  0  0  0  0  0  0  0  0  0
    6.9841    0.4276    0.0000 H   0  0  0  0  0  0  0  0  0  0  0  0
    6.5856   -0.2627    0.0000 H   0  0  0  0  0  0  0  0  0  0  0  0
    4.9272   -1.4650    0.0000 H   0  0  0  0  0  0  0  0  0  0  0  0
    9.2573   -4.9650    0.0000 H   0  0  0  0  0  0  0  0  0  0  0  0
    7.7522   -2.1919    0.0000 H   0  0  0  0  0  0  0  0  0  0  0  0
    8.5991   -1.9650    0.0000 H   0  0  0  0  0  0  0  0  0  0  0  0
    8.3722   -1.1181    0.0000 H   0  0  0  0  0  0  0  0  0  0  0  0
    5.1350    0.6550    0.0000 H   0  0  0  0  0  0  0  0  0  0  0  0
    9.1836   -5.5473    0.0000 H   0  0  0  0  0  0  0  0  0  0  0  0
    9.5822   -6.2376    0.0000 H   0  0  0  0  0  0  0  0  0  0  0  0
    3.3335   -0.6299    0.0000 H   0  0  0  0  0  0  0  0  0  0  0  0
    4.1306   -0.6299    0.0000 H   0  0  0  0  0  0  0  0  0  0  0  0
    8.3722   -0.1919    0.0000 H   0  0  0  0  0  0  0  0  0  0  0  0
    8.5991    0.6550    0.0000 H   0  0  0  0  0  0  0  0  0  0  0  0
    7.7522    0.8819    0.0000 H   0  0  0  0  0  0  0  0  0  0  0  0
    2.8660   -0.2750    0.0000 H   0  0  0  0  0  0  0  0  0  0  0  0
    4.0611    1.6550    0.0000 H   0  0  0  0  0  0  0  0  0  0  0  0
   11.2708   -6.2627    0.0000 H   0  0  0  0  0  0  0  0  0  0  0  0
   10.8723   -5.5724    0.0000 H   0  0  0  0  0  0  0  0  0  0  0  0
    1.6900    0.3819    0.0000 H   0  0  0  0  0  0  0  0  0  0  0  0
    1.4631   -0.4650    0.0000 H   0  0  0  0  0  0  0  0  0  0  0  0
    2.3100   -0.6919    0.0000 H   0  0  0  0  0  0  0  0  0  0  0  0
    3.4860    1.3450    0.0000 H   0  0  0  0  0  0  0  0  0  0  0  0
    2.8660    1.9650    0.0000 H   0  0  0  0  0  0  0  0  0  0  0  0
    2.2460    1.3450    0.0000 H   0  0  0  0  0  0  0  0  0  0  0  0
    5.4641    3.4650    0.0000 H   0  0  0  0  0  0  0  0  0  0  0  0
   10.0403   -7.1550    0.0000 H   0  0  0  0  0  0  0  0  0  0  0  0
   10.6603   -7.7750    0.0000 H   0  0  0  0  0  0  0  0  0  0  0  0
   11.2803   -7.1550    0.0000 H   0  0  0  0  0  0  0  0  0  0  0  0
    3.9875    3.4527    0.0000 H   0  0  0  0  0  0  0  0  0  0  0  0
    4.3860    2.7624    0.0000 H   0  0  0  0  0  0  0  0  0  0  0  0
   12.0632   -4.3450    0.0000 H   0  0  0  0  0  0  0  0  0  0  0  0
    6.8671    3.0350    0.0000 H   0  0  0  0  0  0  0  0  0  0  0  0
    5.2087    4.2373    0.0000 H   0  0  0  0  0  0  0  0  0  0  0  0
    4.8101    4.9276    0.0000 H   0  0  0  0  0  0  0  0  0  0  0  0
    7.4082    4.2624    0.0000 H   0  0  0  0  0  0  0  0  0  0  0  0
    7.8067    4.9527    0.0000 H   0  0  0  0  0  0  0  0  0  0  0  0
    6.9841    6.4276    0.0000 H   0  0  0  0  0  0  0  0  0  0  0  0
    6.5856    5.7373    0.0000 H   0  0  0  0  0  0  0  0  0  0  0  0
    3.1951    6.1550    0.0000 H   0  0  0  0  0  0  0  0  0  0  0  0
    8.5991    7.6550    0.0000 H   0  0  0  0  0  0  0  0  0  0  0  0
  1 25  2  0  0  0  0
  2 27  2  0  0  0  0
  3 33  2  0  0  0  0
  4 38  1  0  0  0  0
  4101  1  0  0  0  0
  5 38  2  0  0  0  0
  6 42  2  0  0  0  0
  7 47  2  0  0  0  0
  8 49  1  0  0  0  0
  8109  1  0  0  0  0
  9 49  2  0  0  0  0
 10 51  1  0  0  0  0
 10110  1  0  0  0  0
 11 51  2  0  0  0  0
 24 12  1  6  0  0  0
 12 27  1  0  0  0  0
 12 66  1  0  0  0  0
 13 25  1  0  0  0  0
 30 13  1  6  0  0  0
 13 69  1  0  0  0  0
 26 14  1  1  0  0  0
 14 33  1  0  0  0  0
 14 72  1  0  0  0  0
 32 15  1  6  0  0  0
 15 42  1  0  0  0  0
 15 86  1  0  0  0  0
 43 16  1  1  0  0  0
 16 47  1  0  0  0  0
 16102  1  0  0  0  0
 17 18  1  0  0  0  0
 17 19  1  0  0  0  0
 17 20  1  0  0  0  0
 17 52  1  0  0  0  0
 18 21  1  0  0  0  0
 18 53  1  0  0  0  0
 18 54  1  0  0  0  0
 19 22  1  0  0  0  0
 19 55  1  0  0  0  0
 19 56  1  0  0  0  0
 20 24  1  0  0  0  0
 20 57  1  0  0  0  0
 20 58  1  0  0  0  0
 21 23  1  0  0  0  0
 21 59  1  0  0  0  0
 21 60  1  0  0  0  0
 22 23  1  0  0  0  0
 22 61  1  0  0  0  0
 22 62  1  0  0  0  0
 23 63  1  0  0  0  0
 23 64  1  0  0  0  0
 24 25  1  0  0  0  0
 24 65  1  0  0  0  0
 26 27  1  0  0  0  0
 26 28  1  0  0  0  0
 26 67  1  0  0  0  0
 28 29  1  0  0  0  0
 28 31  1  6  0  0  0
 28 68  1  0  0  0  0
 29 36  1  0  0  0  0
 29 70  1  0  0  0  0
 29 71  1  0  0  0  0
 30 34  1  0  0  0  0
 30 38  1  0  0  0  0
 30 73  1  0  0  0  0
 31 74  1  0  0  0  0
 31 75  1  0  0  0  0
 31 76  1  0  0  0  0
 32 33  1  0  0  0  0
 32 35  1  0  0  0  0
 32 77  1  0  0  0  0
 34 39  1  0  0  0  0
 34 78  1  0  0  0  0
 34 79  1  0  0  0  0
 35 37  1  0  0  0  0
 35 80  1  0  0  0  0
 35 81  1  0  0  0  0
 36 82  1  0  0  0  0
 36 83  1  0  0  0  0
 36 84  1  0  0  0  0
 37 40  1  0  0  0  0
 37 41  1  0  0  0  0
 37 85  1  0  0  0  0
 39 44  1  0  0  0  0
 39 87  1  0  0  0  0
 39 88  1  0  0  0  0
 40 89  1  0  0  0  0
 40 90  1  0  0  0  0
 40 91  1  0  0  0  0
 41 92  1  0  0  0  0
 41 93  1  0  0  0  0
 41 94  1  0  0  0  0
 42 43  1  0  0  0  0
 43 45  1  0  0  0  0
 43 95  1  0  0  0  0
 44 96  1  0  0  0  0
 44 97  1  0  0  0  0
 44 98  1  0  0  0  0
 45 46  1  0  0  0  0
 45 99  1  0  0  0  0
 45100  1  0  0  0  0
 46 49  1  0  0  0  0
 46103  1  0  0  0  0
 46104  1  0  0  0  0
 47 48  1  0  0  0  0
 48 50  1  0  0  0  0
 48105  1  0  0  0  0
 48106  1  0  0  0  0
 50 51  1  0  0  0  0
 50107  1  0  0  0  0
 50108  1  0  0  0  0
M  END
> <PUBCHEM_COMPOUND_CID>
507053
> <PUBCHEM_COMPOUND_CANONICALIZED>
1
> <PUBCHEM_CACTVS_COMPLEXITY>
1200
> <PUBCHEM_CACTVS_HBOND_ACCEPTOR>
11
> <PUBCHEM_CACTVS_HBOND_DONOR>
8
> <PUBCHEM_CACTVS_ROTATABLE_BOND>
24
> <PUBCHEM_CACTVS_SUBSKEYS>
AAADcfB/vAAAAAAAAAAAAAAAAAAAAAAAAAAwAAAAAAAAAAAAAAAAHgAQCAAADSjBgAQCCALAAgAIAAGQGAAAAAAAAAAAAIGIAAACQBIAgCAUQAAEFgCQAAG/n4KOAAAAAAAAAAAAAAAAAAAAAAAAAAAAAA==
> <PUBCHEM_IUPAC_OPENEYE_NAME>
(4R)-5-[[(1S)-1-[[(1S,2S)-1-[[(1S)-2-[[(1S)-1-carboxybutyl]amino]-1-(cyclohexylmethyl)-2-oxo-ethyl]carbamoyl]-2-methyl-butyl]carbamoyl]-3-methyl-butyl]amino]-4-(3-carboxypropanoylamino)-5-oxo-pentanoic acid
> <PUBCHEM_IUPAC_CAS_NAME>
(4R)-5-[[(2S)-1-[[(2S,3S)-1-[[(2S)-1-[[(1S)-1-carboxybutyl]amino]-3-cyclohexyl-1-oxopropan-2-yl]amino]-3-methyl-1-oxopentan-2-yl]amino]-4-methyl-1-oxopentan-2-yl]amino]-4-[(3-carboxy-1-oxopropyl)amino]-5-oxopentanoic acid
> <PUBCHEM_IUPAC_NAME_MARKUP>
(4<I>R</I>)-5-[[(2<I>S</I>)-1-[[(2<I>S</I>,3<I>S</I>)-1-[[(2<I>S</I>)-1-[[(1<I>S</I>)-1-carboxybutyl]amino]-3-cyclohexyl-1-oxopropan-2-yl]amino]-3-methyl-1-oxopentan-2-yl]amino]-4-methyl-1-oxopentan-2-yl]amino]-4-(3-carboxypropanoylamino)-5-oxopentanoic acid
> <PUBCHEM_IUPAC_NAME>
(4R)-5-[[(2S)-1-[[(2S,3S)-1-[[(2S)-1-[[(1S)-1-carboxybutyl]amino]-3-cyclohexyl-1-oxopropan-2-yl]amino]-3-methyl-1-oxopentan-2-yl]amino]-4-methyl-1-oxopentan-2-yl]amino]-4-(3-carboxypropanoylamino)-5-oxopentanoic acid
> <PUBCHEM_IUPAC_SYSTEMATIC_NAME>
(4R)-5-[[(2S)-1-[[(2S,3S)-1-[[(2S)-3-cyclohexyl-1-oxidanylidene-1-[[(2S)-1-oxidanyl-1-oxidanylidene-pentan-2-yl]amino]propan-2-yl]amino]-3-methyl-1-oxidanylidene-pentan-2-yl]amino]-4-methyl-1-oxidanylidene-pentan-2-yl]amino]-5-oxidanylidene-4-[(4-oxidanyl-4-oxidanylidene-butanoyl)amino]pentanoic acid
> <PUBCHEM_IUPAC_TRADITIONAL_NAME>
(4R)-5-[[(1S)-1-[[(1S,2S)-1-[[(1S)-2-[[(1S)-1-carboxybutyl]amino]-1-(cyclohexylmethyl)-2-keto-ethyl]carbamoyl]-2-methyl-butyl]carbamoyl]-3-methyl-butyl]amino]-4-(3-carboxypropanoylamino)-5-keto-valeric acid
> <PUBCHEM_IUPAC_INCHI>
InChI=1S/C35H59N5O11/c1-6-11-24(35(50)51)37-32(47)26(19-22-12-9-8-10-13-22)39-34(49)30(21(5)7-2)40-33(48)25(18-20(3)4)38-31(46)23(14-16-28(42)43)36-27(41)15-17-29(44)45/h20-26,30H,6-19H2,1-5H3,(H,36,41)(H,37,47)(H,38,46)(H,39,49)(H,40,48)(H,42,43)(H,44,45)(H,50,51)/t21-,23+,24-,25-,26-,30-/m0/s1
> <PUBCHEM_IUPAC_INCHIKEY>
KXMYIIZLASQWNZ-AJSSQJHRSA-N
> <PUBCHEM_XLOGP3_AA>
3.7
> <PUBCHEM_EXACT_MASS>
725.42110772
> <PUBCHEM_MOLECULAR_FORMULA>
C35H59N5O11
> <PUBCHEM_MOLECULAR_WEIGHT>
725.9
> <PUBCHEM_OPENEYE_CAN_SMILES>
CCCC(C(=O)O)NC(=O)C(CC1CCCCC1)NC(=O)C(C(C)CC)NC(=O)C(CC(C)C)NC(=O)C(CCC(=O)O)NC(=O)CCC(=O)O
> <PUBCHEM_OPENEYE_ISO_SMILES>
CCC[C@@H](C(=O)O)NC(=O)[C@H](CC1CCCCC1)NC(=O)[C@H]([C@@H](C)CC)NC(=O)[C@H](CC(C)C)NC(=O)[C@@H](CCC(=O)O)NC(=O)CCC(=O)O
> <PUBCHEM_CACTVS_TPSA>
257
> <PUBCHEM_MONOISOTOPIC_WEIGHT>
725.42110772
> <PUBCHEM_TOTAL_CHARGE>
0
> <PUBCHEM_HEAVY_ATOM_COUNT>
51
> <PUBCHEM_ATOM_DEF_STEREO_COUNT>
6
> <PUBCHEM_ATOM_UDEF_STEREO_COUNT>
0
> <PUBCHEM_BOND_DEF_STEREO_COUNT>
0
> <PUBCHEM_BOND_UDEF_STEREO_COUNT>
0
> <PUBCHEM_ISOTOPIC_ATOM_COUNT>
0
> <PUBCHEM_COMPONENT_COUNT>
1
> <PUBCHEM_CACTVS_TAUTO_COUNT>
-1
> <PUBCHEM_COORDINATE_TYPE>
1
5
255
> <PUBCHEM_BONDANNOTATIONS>
24  12  6
30  13  6
26  14  5
32  15  6
43  16  5
28  31  6
$$$$
