507072
  -OEChem-10302200282D
128129  0     1  0  0  0  0  0999 V2000
    8.5991   -6.8100    0.0000 O   0  0  0  0  0  0  0  0  0  0  0  0
    6.0010   -4.3100    0.0000 O   0  0  0  0  0  0  0  0  0  0  0  0
    6.8671   -0.8100    0.0000 O   0  0  0  0  0  0  0  0  0  0  0  0
    6.8671    0.1900    0.0000 O   0  0  0  0  0  0  0  0  0  0  0  0
    7.7331    3.6900    0.0000 O   0  0  0  0  0  0  0  0  0  0  0  0
    9.4651    4.6900    0.0000 O   0  0  0  0  0  0  0  0  0  0  0  0
   10.3312    3.1900    0.0000 O   0  0  0  0  0  0  0  0  0  0  0  0
    4.2690    4.6900    0.0000 O   0  0  0  0  0  0  0  0  0  0  0  0
    2.5369    3.6900    0.0000 O   0  0  0  0  0  0  0  0  0  0  0  0
    3.4030    2.1900    0.0000 O   0  0  0  0  0  0  0  0  0  0  0  0
    3.4030    8.1900    0.0000 O   0  0  0  0  0  0  0  0  0  0  0  0
    5.1350    8.1900    0.0000 O   0  0  0  0  0  0  0  0  0  0  0  0
    7.7331   -4.3100    0.0000 N   0  0  0  0  0  0  0  0  0  0  0  0
    9.4651   -5.3100    0.0000 N   0  0  0  0  0  0  0  0  0  0  0  0
    7.7331   -2.3100    0.0000 N   0  0  0  0  0  0  0  0  0  0  0  0
    8.5991    0.1900    0.0000 N   0  0  0  0  0  0  0  0  0  0  0  0
   11.3017   -4.3155    0.0000 N   0  0  0  0  0  0  0  0  0  0  0  0
   12.1107   -5.7167    0.0000 N   0  0  0  0  0  0  0  0  0  0  0  0
    6.8671    2.1900    0.0000 N   0  0  0  0  0  0  0  0  0  0  0  0
   12.2799   -4.1076    0.0000 N   0  0  0  0  0  0  0  0  0  0  0  0
   12.7799   -4.9736    0.0000 N   0  0  0  0  0  0  0  0  0  0  0  0
    6.0010    4.6900    0.0000 N   0  0  0  0  0  0  0  0  0  0  0  0
    6.8671   -6.8100    0.0000 C   0  0  0  0  0  0  0  0  0  0  0  0
    6.0010   -7.3100    0.0000 C   0  0  0  0  0  0  0  0  0  0  0  0
    7.7331   -7.3100    0.0000 C   0  0  0  0  0  0  0  0  0  0  0  0
    6.8671   -5.8100    0.0000 C   0  0  0  0  0  0  0  0  0  0  0  0
    6.0010   -8.3100    0.0000 C   0  0  0  0  0  0  0  0  0  0  0  0
    7.7331   -8.3100    0.0000 C   0  0  0  0  0  0  0  0  0  0  0  0
    6.8671   -8.8100    0.0000 C   0  0  0  0  0  0  0  0  0  0  0  0
    7.7331   -5.3100    0.0000 C   0  0  1  0  0  0  0  0  0  0  0  0
    8.5991   -5.8100    0.0000 C   0  0  0  0  0  0  0  0  0  0  0  0
    6.8671   -2.8100    0.0000 C   0  0  2  0  0  0  0  0  0  0  0  0
    6.8671   -3.8100    0.0000 C   0  0  0  0  0  0  0  0  0  0  0  0
    6.0010   -2.3100    0.0000 C   0  0  2  0  0  0  0  0  0  0  0  0
   10.3312   -5.8100    0.0000 C   0  0  1  0  0  0  0  0  0  0  0  0
    6.0010   -1.3100    0.0000 C   0  0  0  0  0  0  0  0  0  0  0  0
    5.1350   -2.8100    0.0000 C   0  0  0  0  0  0  0  0  0  0  0  0
   10.3312   -6.8100    0.0000 C   0  0  0  0  0  0  0  0  0  0  0  0
    8.5991   -0.8100    0.0000 C   0  0  2  0  0  0  0  0  0  0  0  0
    7.7331   -1.3100    0.0000 C   0  0  0  0  0  0  0  0  0  0  0  0
    9.4651   -1.3100    0.0000 C   0  0  0  0  0  0  0  0  0  0  0  0
   11.1972   -5.3100    0.0000 C   0  0  0  0  0  0  0  0  0  0  0  0
    5.1350   -0.8100    0.0000 C   0  0  0  0  0  0  0  0  0  0  0  0
   11.1972   -7.3100    0.0000 C   0  0  0  0  0  0  0  0  0  0  0  0
   10.3312   -0.8100    0.0000 C   0  0  0  0  0  0  0  0  0  0  0  0
   11.1972   -1.3100    0.0000 C   0  0  0  0  0  0  0  0  0  0  0  0
   10.3312    0.1900    0.0000 C   0  0  0  0  0  0  0  0  0  0  0  0
    7.7331    0.6900    0.0000 C   0  0  0  0  0  0  0  0  0  0  0  0
   11.1972   -8.3100    0.0000 C   0  0  0  0  0  0  0  0  0  0  0  0
    7.7331    1.6900    0.0000 C   0  0  1  0  0  0  0  0  0  0  0  0
    8.5991    2.1900    0.0000 C   0  0  0  0  0  0  0  0  0  0  0  0
    8.5991    3.1900    0.0000 C   0  0  0  0  0  0  0  0  0  0  0  0
    6.0010    3.6900    0.0000 C   0  0  2  0  0  0  0  0  0  0  0  0
    6.8671    3.1900    0.0000 C   0  0  0  0  0  0  0  0  0  0  0  0
    5.1350    3.1900    0.0000 C   0  0  0  0  0  0  0  0  0  0  0  0
    9.4651    3.6900    0.0000 C   0  0  0  0  0  0  0  0  0  0  0  0
    4.2690    3.6900    0.0000 C   0  0  0  0  0  0  0  0  0  0  0  0
    5.1350    5.1900    0.0000 C   0  0  0  0  0  0  0  0  0  0  0  0
    5.1350    6.1900    0.0000 C   0  0  0  0  0  0  0  0  0  0  0  0
    3.4030    3.1900    0.0000 C   0  0  0  0  0  0  0  0  0  0  0  0
    4.2690    6.6900    0.0000 C   0  0  0  0  0  0  0  0  0  0  0  0
    4.2690    7.6900    0.0000 C   0  0  0  0  0  0  0  0  0  0  0  0
    6.3301   -6.5000    0.0000 H   0  0  0  0  0  0  0  0  0  0  0  0
    5.7890   -6.7274    0.0000 H   0  0  0  0  0  0  0  0  0  0  0  0
    5.3905   -7.4177    0.0000 H   0  0  0  0  0  0  0  0  0  0  0  0
    8.3437   -7.4177    0.0000 H   0  0  0  0  0  0  0  0  0  0  0  0
    7.9451   -6.7274    0.0000 H   0  0  0  0  0  0  0  0  0  0  0  0
    6.6550   -5.2274    0.0000 H   0  0  0  0  0  0  0  0  0  0  0  0
    6.2565   -5.9177    0.0000 H   0  0  0  0  0  0  0  0  0  0  0  0
    5.3905   -8.2023    0.0000 H   0  0  0  0  0  0  0  0  0  0  0  0
    5.7890   -8.8926    0.0000 H   0  0  0  0  0  0  0  0  0  0  0  0
    7.9451   -8.8926    0.0000 H   0  0  0  0  0  0  0  0  0  0  0  0
    8.3437   -8.2023    0.0000 H   0  0  0  0  0  0  0  0  0  0  0  0
    6.4685   -9.2850    0.0000 H   0  0  0  0  0  0  0  0  0  0  0  0
    7.2656   -9.2850    0.0000 H   0  0  0  0  0  0  0  0  0  0  0  0
    8.2700   -5.0000    0.0000 H   0  0  0  0  0  0  0  0  0  0  0  0
    8.2700   -4.0000    0.0000 H   0  0  0  0  0  0  0  0  0  0  0  0
    7.4040   -3.1200    0.0000 H   0  0  0  0  0  0  0  0  0  0  0  0
    5.4641   -2.0000    0.0000 H   0  0  0  0  0  0  0  0  0  0  0  0
    9.4651   -4.6900    0.0000 H   0  0  0  0  0  0  0  0  0  0  0  0
    9.7942   -6.1200    0.0000 H   0  0  0  0  0  0  0  0  0  0  0  0
    8.2700   -2.6200    0.0000 H   0  0  0  0  0  0  0  0  0  0  0  0
    6.6116   -1.4177    0.0000 H   0  0  0  0  0  0  0  0  0  0  0  0
    6.2131   -0.7274    0.0000 H   0  0  0  0  0  0  0  0  0  0  0  0
    4.8250   -2.2731    0.0000 H   0  0  0  0  0  0  0  0  0  0  0  0
    4.5981   -3.1200    0.0000 H   0  0  0  0  0  0  0  0  0  0  0  0
    5.4450   -3.3469    0.0000 H   0  0  0  0  0  0  0  0  0  0  0  0
    9.7206   -6.7023    0.0000 H   0  0  0  0  0  0  0  0  0  0  0  0
   10.1191   -7.3926    0.0000 H   0  0  0  0  0  0  0  0  0  0  0  0
    8.0622   -0.5000    0.0000 H   0  0  0  0  0  0  0  0  0  0  0  0
    9.0666   -1.7850    0.0000 H   0  0  0  0  0  0  0  0  0  0  0  0
    9.8637   -1.7850    0.0000 H   0  0  0  0  0  0  0  0  0  0  0  0
    5.4450   -0.2731    0.0000 H   0  0  0  0  0  0  0  0  0  0  0  0
    4.5981   -0.5000    0.0000 H   0  0  0  0  0  0  0  0  0  0  0  0
    4.8250   -1.3469    0.0000 H   0  0  0  0  0  0  0  0  0  0  0  0
   10.8681   -0.5000    0.0000 H   0  0  0  0  0  0  0  0  0  0  0  0
   11.8078   -7.4177    0.0000 H   0  0  0  0  0  0  0  0  0  0  0  0
   11.4092   -6.7274    0.0000 H   0  0  0  0  0  0  0  0  0  0  0  0
    9.1360    0.5000    0.0000 H   0  0  0  0  0  0  0  0  0  0  0  0
   10.8872   -1.8469    0.0000 H   0  0  0  0  0  0  0  0  0  0  0  0
   11.7341   -1.6200    0.0000 H   0  0  0  0  0  0  0  0  0  0  0  0
   11.5072   -0.7731    0.0000 H   0  0  0  0  0  0  0  0  0  0  0  0
   10.9512    0.1900    0.0000 H   0  0  0  0  0  0  0  0  0  0  0  0
   10.3312    0.8100    0.0000 H   0  0  0  0  0  0  0  0  0  0  0  0
    9.7112    0.1900    0.0000 H   0  0  0  0  0  0  0  0  0  0  0  0
    7.7331    2.3100    0.0000 H   0  0  0  0  0  0  0  0  0  0  0  0
   10.5772   -8.3100    0.0000 H   0  0  0  0  0  0  0  0  0  0  0  0
   11.1972   -8.9300    0.0000 H   0  0  0  0  0  0  0  0  0  0  0  0
   11.8172   -8.3100    0.0000 H   0  0  0  0  0  0  0  0  0  0  0  0
    8.8112    1.6074    0.0000 H   0  0  0  0  0  0  0  0  0  0  0  0
    9.2097    2.2977    0.0000 H   0  0  0  0  0  0  0  0  0  0  0  0
    6.3301    1.8800    0.0000 H   0  0  0  0  0  0  0  0  0  0  0  0
   12.5320   -3.5412    0.0000 H   0  0  0  0  0  0  0  0  0  0  0  0
    8.3871    3.7726    0.0000 H   0  0  0  0  0  0  0  0  0  0  0  0
    7.9885    3.0823    0.0000 H   0  0  0  0  0  0  0  0  0  0  0  0
    6.5380    4.0000    0.0000 H   0  0  0  0  0  0  0  0  0  0  0  0
    4.7365    2.7151    0.0000 H   0  0  0  0  0  0  0  0  0  0  0  0
    5.5335    2.7151    0.0000 H   0  0  0  0  0  0  0  0  0  0  0  0
    6.5380    5.0000    0.0000 H   0  0  0  0  0  0  0  0  0  0  0  0
    4.6675    4.1650    0.0000 H   0  0  0  0  0  0  0  0  0  0  0  0
    3.8705    4.1650    0.0000 H   0  0  0  0  0  0  0  0  0  0  0  0
    5.7456    6.0823    0.0000 H   0  0  0  0  0  0  0  0  0  0  0  0
    5.3471    6.7726    0.0000 H   0  0  0  0  0  0  0  0  0  0  0  0
   10.0021    5.0000    0.0000 H   0  0  0  0  0  0  0  0  0  0  0  0
    3.6584    6.7977    0.0000 H   0  0  0  0  0  0  0  0  0  0  0  0
    4.0569    6.1074    0.0000 H   0  0  0  0  0  0  0  0  0  0  0  0
    2.0000    3.3800    0.0000 H   0  0  0  0  0  0  0  0  0  0  0  0
    3.4030    8.8100    0.0000 H   0  0  0  0  0  0  0  0  0  0  0  0
  1 31  2  0  0  0  0
  2 33  2  0  0  0  0
  3 40  2  0  0  0  0
  4 48  2  0  0  0  0
  5 54  2  0  0  0  0
  6 56  1  0  0  0  0
  6124  1  0  0  0  0
  7 56  2  0  0  0  0
  8 58  2  0  0  0  0
  9 60  1  0  0  0  0
  9127  1  0  0  0  0
 10 60  2  0  0  0  0
 11 62  1  0  0  0  0
 11128  1  0  0  0  0
 12 62  2  0  0  0  0
 30 13  1  6  0  0  0
 13 33  1  0  0  0  0
 13 77  1  0  0  0  0
 14 31  1  0  0  0  0
 35 14  1  6  0  0  0
 14 80  1  0  0  0  0
 32 15  1  6  0  0  0
 15 40  1  0  0  0  0
 15 82  1  0  0  0  0
 39 16  1  1  0  0  0
 16 48  1  0  0  0  0
 16 99  1  0  0  0  0
 17 20  1  0  0  0  0
 17 42  2  0  0  0  0
 18 21  2  0  0  0  0
 18 42  1  0  0  0  0
 50 19  1  6  0  0  0
 19 54  1  0  0  0  0
 19112  1  0  0  0  0
 20 21  1  0  0  0  0
 20113  1  0  0  0  0
 53 22  1  6  0  0  0
 22 58  1  0  0  0  0
 22119  1  0  0  0  0
 23 24  1  0  0  0  0
 23 25  1  0  0  0  0
 23 26  1  0  0  0  0
 23 63  1  0  0  0  0
 24 27  1  0  0  0  0
 24 64  1  0  0  0  0
 24 65  1  0  0  0  0
 25 28  1  0  0  0  0
 25 66  1  0  0  0  0
 25 67  1  0  0  0  0
 26 30  1  0  0  0  0
 26 68  1  0  0  0  0
 26 69  1  0  0  0  0
 27 29  1  0  0  0  0
 27 70  1  0  0  0  0
 27 71  1  0  0  0  0
 28 29  1  0  0  0  0
 28 72  1  0  0  0  0
 28 73  1  0  0  0  0
 29 74  1  0  0  0  0
 29 75  1  0  0  0  0
 30 31  1  0  0  0  0
 30 76  1  0  0  0  0
 32 33  1  0  0  0  0
 32 34  1  0  0  0  0
 32 78  1  0  0  0  0
 34 36  1  0  0  0  0
 34 37  1  1  0  0  0
 34 79  1  0  0  0  0
 35 38  1  0  0  0  0
 35 42  1  0  0  0  0
 35 81  1  0  0  0  0
 36 43  1  0  0  0  0
 36 83  1  0  0  0  0
 36 84  1  0  0  0  0
 37 85  1  0  0  0  0
 37 86  1  0  0  0  0
 37 87  1  0  0  0  0
 38 44  1  0  0  0  0
 38 88  1  0  0  0  0
 38 89  1  0  0  0  0
 39 40  1  0  0  0  0
 39 41  1  0  0  0  0
 39 90  1  0  0  0  0
 41 45  1  0  0  0  0
 41 91  1  0  0  0  0
 41 92  1  0  0  0  0
 43 93  1  0  0  0  0
 43 94  1  0  0  0  0
 43 95  1  0  0  0  0
 44 49  1  0  0  0  0
 44 97  1  0  0  0  0
 44 98  1  0  0  0  0
 45 46  1  0  0  0  0
 45 47  1  0  0  0  0
 45 96  1  0  0  0  0
 46100  1  0  0  0  0
 46101  1  0  0  0  0
 46102  1  0  0  0  0
 47103  1  0  0  0  0
 47104  1  0  0  0  0
 47105  1  0  0  0  0
 48 50  1  0  0  0  0
 49107  1  0  0  0  0
 49108  1  0  0  0  0
 49109  1  0  0  0  0
 50 51  1  0  0  0  0
 50106  1  0  0  0  0
 51 52  1  0  0  0  0
 51110  1  0  0  0  0
 51111  1  0  0  0  0
 52 56  1  0  0  0  0
 52114  1  0  0  0  0
 52115  1  0  0  0  0
 53 54  1  0  0  0  0
 53 55  1  0  0  0  0
 53116  1  0  0  0  0
 55 57  1  0  0  0  0
 55117  1  0  0  0  0
 55118  1  0  0  0  0
 57 60  1  0  0  0  0
 57120  1  0  0  0  0
 57121  1  0  0  0  0
 58 59  1  0  0  0  0
 59 61  1  0  0  0  0
 59122  1  0  0  0  0
 59123  1  0  0  0  0
 61 62  1  0  0  0  0
 61125  1  0  0  0  0
 61126  1  0  0  0  0
M  END
> <PUBCHEM_COMPOUND_CID>
507072
> <PUBCHEM_COMPOUND_CANONICALIZED>
1
> <PUBCHEM_CACTVS_COMPLEXITY>
1530
> <PUBCHEM_CACTVS_HBOND_ACCEPTOR>
15
> <PUBCHEM_CACTVS_HBOND_DONOR>
10
> <PUBCHEM_CACTVS_ROTATABLE_BOND>
29
> <PUBCHEM_CACTVS_SUBSKEYS>
AAADcfB//AAAAAAAAAAAAAAAAAAAAWAAAAAwAAAAAAAAAAABgAAAHgAYCAAADSjBgwQDGAbCAgAqAAOwOAAAAAIAAAAUIIG4AAAAQBIAgCAUQAAEFgCAAAG/n4KOAAAAAAAAAAAAAAAAAAAAAAAAAAAAAA==
> <PUBCHEM_IUPAC_OPENEYE_NAME>
(4S)-5-[[(1R)-3-carboxy-1-[[(1S)-1-[[(1S,2S)-1-[[(1S)-1-(cyclohexylmethyl)-2-oxo-2-[[(1S)-1-(2H-tetrazol-5-yl)butyl]amino]ethyl]carbamoyl]-2-methyl-butyl]carbamoyl]-3-methyl-butyl]carbamoyl]propyl]amino]-4-(3-carboxypropanoylamino)-5-oxo-pentanoic acid
> <PUBCHEM_IUPAC_CAS_NAME>
(4S)-5-[[(2R)-4-carboxy-1-[[(2S)-1-[[(2S,3S)-1-[[(2S)-3-cyclohexyl-1-oxo-1-[[(1S)-1-(2H-tetrazol-5-yl)butyl]amino]propan-2-yl]amino]-3-methyl-1-oxopentan-2-yl]amino]-4-methyl-1-oxopentan-2-yl]amino]-1-oxobutan-2-yl]amino]-4-[(3-carboxy-1-oxopropyl)amino]-5-oxopentanoic acid
> <PUBCHEM_IUPAC_NAME_MARKUP>
(4<I>S</I>)-5-[[(2<I>R</I>)-4-carboxy-1-[[(2<I>S</I>)-1-[[(2<I>S</I>,3<I>S</I>)-1-[[(2<I>S</I>)-3-cyclohexyl-1-oxo-1-[[(1<I>S</I>)-1-(2<I>H</I>-tetrazol-5-yl)butyl]amino]propan-2-yl]amino]-3-methyl-1-oxopentan-2-yl]amino]-4-methyl-1-oxopentan-2-yl]amino]-1-oxobutan-2-yl]amino]-4-(3-carboxypropanoylamino)-5-oxopentanoic acid
> <PUBCHEM_IUPAC_NAME>
(4S)-5-[[(2R)-4-carboxy-1-[[(2S)-1-[[(2S,3S)-1-[[(2S)-3-cyclohexyl-1-oxo-1-[[(1S)-1-(2H-tetrazol-5-yl)butyl]amino]propan-2-yl]amino]-3-methyl-1-oxopentan-2-yl]amino]-4-methyl-1-oxopentan-2-yl]amino]-1-oxobutan-2-yl]amino]-4-(3-carboxypropanoylamino)-5-oxopentanoic acid
> <PUBCHEM_IUPAC_SYSTEMATIC_NAME>
(4S)-5-[[(2R)-1-[[(2S)-1-[[(2S,3S)-1-[[(2S)-3-cyclohexyl-1-oxidanylidene-1-[[(1S)-1-(2H-1,2,3,4-tetrazol-5-yl)butyl]amino]propan-2-yl]amino]-3-methyl-1-oxidanylidene-pentan-2-yl]amino]-4-methyl-1-oxidanylidene-pentan-2-yl]amino]-5-oxidanyl-1,5-bis(oxidanylidene)pentan-2-yl]amino]-5-oxidanylidene-4-[(4-oxidanyl-4-oxidanylidene-butanoyl)amino]pentanoic acid
> <PUBCHEM_IUPAC_TRADITIONAL_NAME>
(4S)-5-[[(1R)-3-carboxy-1-[[(1S)-1-[[(1S,2S)-1-[[(1S)-1-(cyclohexylmethyl)-2-keto-2-[[(1S)-1-(2H-tetrazol-5-yl)butyl]amino]ethyl]carbamoyl]-2-methyl-butyl]carbamoyl]-3-methyl-butyl]carbamoyl]propyl]amino]-4-(3-carboxypropanoylamino)-5-keto-valeric acid
> <PUBCHEM_IUPAC_INCHI>
InChI=1S/C40H66N10O12/c1-6-11-25(35-47-49-50-48-35)42-38(60)29(21-24-12-9-8-10-13-24)45-40(62)34(23(5)7-2)46-39(61)28(20-22(3)4)44-37(59)27(15-18-32(54)55)43-36(58)26(14-17-31(52)53)41-30(51)16-19-33(56)57/h22-29,34H,6-21H2,1-5H3,(H,41,51)(H,42,60)(H,43,58)(H,44,59)(H,45,62)(H,46,61)(H,52,53)(H,54,55)(H,56,57)(H,47,48,49,50)/t23-,25-,26-,27+,28-,29-,34-/m0/s1
> <PUBCHEM_IUPAC_INCHIKEY>
OPEDXZBMNYBLEV-WJKVZBQESA-N
> <PUBCHEM_XLOGP3_AA>
2.4
> <PUBCHEM_EXACT_MASS>
878.48616758
> <PUBCHEM_MOLECULAR_FORMULA>
C40H66N10O12
> <PUBCHEM_MOLECULAR_WEIGHT>
879.0
> <PUBCHEM_OPENEYE_CAN_SMILES>
CCCC(C1=NNN=N1)NC(=O)C(CC2CCCCC2)NC(=O)C(C(C)CC)NC(=O)C(CC(C)C)NC(=O)C(CCC(=O)O)NC(=O)C(CCC(=O)O)NC(=O)CCC(=O)O
> <PUBCHEM_OPENEYE_ISO_SMILES>
CCC[C@@H](C1=NNN=N1)NC(=O)[C@H](CC2CCCCC2)NC(=O)[C@H]([C@@H](C)CC)NC(=O)[C@H](CC(C)C)NC(=O)[C@@H](CCC(=O)O)NC(=O)[C@H](CCC(=O)O)NC(=O)CCC(=O)O
> <PUBCHEM_CACTVS_TPSA>
341
> <PUBCHEM_MONOISOTOPIC_WEIGHT>
878.48616758
> <PUBCHEM_TOTAL_CHARGE>
0
> <PUBCHEM_HEAVY_ATOM_COUNT>
62
> <PUBCHEM_ATOM_DEF_STEREO_COUNT>
7
> <PUBCHEM_ATOM_UDEF_STEREO_COUNT>
0
> <PUBCHEM_BOND_DEF_STEREO_COUNT>
0
> <PUBCHEM_BOND_UDEF_STEREO_COUNT>
0
> <PUBCHEM_ISOTOPIC_ATOM_COUNT>
0
> <PUBCHEM_COMPONENT_COUNT>
1
> <PUBCHEM_CACTVS_TAUTO_COUNT>
-1
> <PUBCHEM_COORDINATE_TYPE>
1
5
255
> <PUBCHEM_BONDANNOTATIONS>
30  13  6
35  14  6
32  15  6
39  16  5
17  20  8
17  42  8
18  21  8
18  42  8
50  19  6
20  21  8
53  22  6
34  37  5
$$$$
