507073
  -OEChem-10302200282D
123125  0     1  0  0  0  0  0999 V2000
    6.7974    4.0538    0.0000 O   0  0  0  0  0  0  0  0  0  0  0  0
    7.6634    3.5538    0.0000 O   0  0  0  0  0  0  0  0  0  0  0  0
   10.2615    1.0538    0.0000 O   0  0  0  0  0  0  0  0  0  0  0  0
   11.1275    0.5538    0.0000 O   0  0  0  0  0  0  0  0  0  0  0  0
   14.5916   -0.4462    0.0000 O   0  0  0  0  0  0  0  0  0  0  0  0
   16.3236    0.5538    0.0000 O   0  0  0  0  0  0  0  0  0  0  0  0
   15.4576    2.0538    0.0000 O   0  0  0  0  0  0  0  0  0  0  0  0
   13.7256   -3.9462    0.0000 O   0  0  0  0  0  0  0  0  0  0  0  0
   11.9935   -4.9462    0.0000 O   0  0  0  0  0  0  0  0  0  0  0  0
   11.1275   -3.4462    0.0000 O   0  0  0  0  0  0  0  0  0  0  0  0
   16.3236   -6.4462    0.0000 O   0  0  0  0  0  0  0  0  0  0  0  0
   17.1897   -4.9462    0.0000 O   0  0  0  0  0  0  0  0  0  0  0  0
    5.0653    4.0538    0.0000 N   0  0  0  0  0  0  0  0  0  0  0  0
    3.2857    5.1470    0.0000 N   0  0  0  0  0  0  0  0  0  0  0  0
    6.7974    2.0538    0.0000 N   0  0  0  0  0  0  0  0  0  0  0  0
    4.0948    6.5483    0.0000 N   0  0  0  0  0  0  0  0  0  0  0  0
    2.6166    5.8902    0.0000 N   0  0  0  0  0  0  0  0  0  0  0  0
    3.1166    6.7562    0.0000 N   0  0  0  0  0  0  0  0  0  0  0  0
    9.3954    2.5538    0.0000 N   0  0  0  0  0  0  0  0  0  0  0  0
   11.9935    2.0538    0.0000 N   0  0  0  0  0  0  0  0  0  0  0  0
   12.8595   -0.4462    0.0000 N   0  0  0  0  0  0  0  0  0  0  0  0
   14.5916   -2.4462    0.0000 N   0  0  0  0  0  0  0  0  0  0  0  0
    5.0653    5.0538    0.0000 C   0  0  0  0  0  0  0  0  0  0  0  0
    5.5653    5.9198    0.0000 C   0  0  0  0  0  0  0  0  0  0  0  0
    6.0653    5.0538    0.0000 C   0  0  0  0  0  0  0  0  0  0  0  0
    4.1993    5.5538    0.0000 C   0  0  0  0  0  0  0  0  0  0  0  0
    5.0653    1.0538    0.0000 C   0  0  0  0  0  0  0  0  0  0  0  0
    5.9313    2.5538    0.0000 C   0  0  1  0  0  0  0  0  0  0  0  0
    5.0653    2.0538    0.0000 C   0  0  0  0  0  0  0  0  0  0  0  0
    5.9313    3.5538    0.0000 C   0  0  0  0  0  0  0  0  0  0  0  0
    4.1993    0.5538    0.0000 C   0  0  0  0  0  0  0  0  0  0  0  0
    5.9313    0.5538    0.0000 C   0  0  0  0  0  0  0  0  0  0  0  0
    4.1993   -0.4462    0.0000 C   0  0  0  0  0  0  0  0  0  0  0  0
    5.9313   -0.4462    0.0000 C   0  0  0  0  0  0  0  0  0  0  0  0
    5.0653   -0.9462    0.0000 C   0  0  0  0  0  0  0  0  0  0  0  0
    7.6634    2.5538    0.0000 C   0  0  0  0  0  0  0  0  0  0  0  0
    8.5294    2.0538    0.0000 C   0  0  2  0  0  0  0  0  0  0  0  0
    8.5294    1.0538    0.0000 C   0  0  2  0  0  0  0  0  0  0  0  0
    9.3954    0.5538    0.0000 C   0  0  0  0  0  0  0  0  0  0  0  0
    7.6634    0.5538    0.0000 C   0  0  0  0  0  0  0  0  0  0  0  0
   10.2615    2.0538    0.0000 C   0  0  0  0  0  0  0  0  0  0  0  0
   11.1275    2.5538    0.0000 C   0  0  2  0  0  0  0  0  0  0  0  0
    9.3954   -0.4462    0.0000 C   0  0  0  0  0  0  0  0  0  0  0  0
   11.1275    3.5538    0.0000 C   0  0  0  0  0  0  0  0  0  0  0  0
   11.9935    4.0538    0.0000 C   0  0  0  0  0  0  0  0  0  0  0  0
   11.9935    1.0538    0.0000 C   0  0  0  0  0  0  0  0  0  0  0  0
   11.9935    5.0538    0.0000 C   0  0  0  0  0  0  0  0  0  0  0  0
   12.8595    3.5538    0.0000 C   0  0  0  0  0  0  0  0  0  0  0  0
   12.8595    0.5538    0.0000 C   0  0  1  0  0  0  0  0  0  0  0  0
   13.7256    1.0538    0.0000 C   0  0  0  0  0  0  0  0  0  0  0  0
   14.5916    0.5538    0.0000 C   0  0  0  0  0  0  0  0  0  0  0  0
   13.7256   -0.9462    0.0000 C   0  0  0  0  0  0  0  0  0  0  0  0
   13.7256   -1.9462    0.0000 C   0  0  2  0  0  0  0  0  0  0  0  0
   12.8595   -2.4462    0.0000 C   0  0  0  0  0  0  0  0  0  0  0  0
   15.4576    1.0538    0.0000 C   0  0  0  0  0  0  0  0  0  0  0  0
   12.8595   -3.4462    0.0000 C   0  0  0  0  0  0  0  0  0  0  0  0
   14.5916   -3.4462    0.0000 C   0  0  0  0  0  0  0  0  0  0  0  0
   15.4576   -3.9462    0.0000 C   0  0  0  0  0  0  0  0  0  0  0  0
   11.9935   -3.9462    0.0000 C   0  0  0  0  0  0  0  0  0  0  0  0
   15.4576   -4.9462    0.0000 C   0  0  0  0  0  0  0  0  0  0  0  0
   16.3236   -5.4462    0.0000 C   0  0  0  0  0  0  0  0  0  0  0  0
    6.0402    6.3183    0.0000 H   0  0  0  0  0  0  0  0  0  0  0  0
    5.0904    6.3183    0.0000 H   0  0  0  0  0  0  0  0  0  0  0  0
    6.1730    4.4432    0.0000 H   0  0  0  0  0  0  0  0  0  0  0  0
    6.6479    5.2658    0.0000 H   0  0  0  0  0  0  0  0  0  0  0  0
    4.5284    3.7438    0.0000 H   0  0  0  0  0  0  0  0  0  0  0  0
    5.6022    1.3638    0.0000 H   0  0  0  0  0  0  0  0  0  0  0  0
    6.4683    2.8638    0.0000 H   0  0  0  0  0  0  0  0  0  0  0  0
    4.8532    2.6364    0.0000 H   0  0  0  0  0  0  0  0  0  0  0  0
    4.4547    1.9461    0.0000 H   0  0  0  0  0  0  0  0  0  0  0  0
    3.9872    1.1364    0.0000 H   0  0  0  0  0  0  0  0  0  0  0  0
    3.5887    0.4461    0.0000 H   0  0  0  0  0  0  0  0  0  0  0  0
    6.5419    0.4461    0.0000 H   0  0  0  0  0  0  0  0  0  0  0  0
    6.1434    1.1364    0.0000 H   0  0  0  0  0  0  0  0  0  0  0  0
    3.5887   -0.3386    0.0000 H   0  0  0  0  0  0  0  0  0  0  0  0
    3.9872   -1.0288    0.0000 H   0  0  0  0  0  0  0  0  0  0  0  0
    6.1434   -1.0288    0.0000 H   0  0  0  0  0  0  0  0  0  0  0  0
    6.5419   -0.3386    0.0000 H   0  0  0  0  0  0  0  0  0  0  0  0
    4.6668   -1.4212    0.0000 H   0  0  0  0  0  0  0  0  0  0  0  0
    5.4638   -1.4212    0.0000 H   0  0  0  0  0  0  0  0  0  0  0  0
    6.7974    1.4338    0.0000 H   0  0  0  0  0  0  0  0  0  0  0  0
    2.0000    5.8254    0.0000 H   0  0  0  0  0  0  0  0  0  0  0  0
    8.5294    2.6738    0.0000 H   0  0  0  0  0  0  0  0  0  0  0  0
    8.5294    0.4338    0.0000 H   0  0  0  0  0  0  0  0  0  0  0  0
    9.3954    3.1738    0.0000 H   0  0  0  0  0  0  0  0  0  0  0  0
   10.0060    0.4461    0.0000 H   0  0  0  0  0  0  0  0  0  0  0  0
    9.6075    1.1364    0.0000 H   0  0  0  0  0  0  0  0  0  0  0  0
    7.3534    1.0907    0.0000 H   0  0  0  0  0  0  0  0  0  0  0  0
    7.1264    0.2438    0.0000 H   0  0  0  0  0  0  0  0  0  0  0  0
    7.9734    0.0168    0.0000 H   0  0  0  0  0  0  0  0  0  0  0  0
   11.1275    1.9338    0.0000 H   0  0  0  0  0  0  0  0  0  0  0  0
    8.7754   -0.4462    0.0000 H   0  0  0  0  0  0  0  0  0  0  0  0
    9.3954   -1.0662    0.0000 H   0  0  0  0  0  0  0  0  0  0  0  0
   10.0154   -0.4462    0.0000 H   0  0  0  0  0  0  0  0  0  0  0  0
   10.9154    4.1364    0.0000 H   0  0  0  0  0  0  0  0  0  0  0  0
   10.5169    3.4461    0.0000 H   0  0  0  0  0  0  0  0  0  0  0  0
   12.5304    4.3638    0.0000 H   0  0  0  0  0  0  0  0  0  0  0  0
   12.5304    2.3638    0.0000 H   0  0  0  0  0  0  0  0  0  0  0  0
   12.6135    5.0538    0.0000 H   0  0  0  0  0  0  0  0  0  0  0  0
   11.9935    5.6738    0.0000 H   0  0  0  0  0  0  0  0  0  0  0  0
   11.3735    5.0538    0.0000 H   0  0  0  0  0  0  0  0  0  0  0  0
   12.5495    3.0168    0.0000 H   0  0  0  0  0  0  0  0  0  0  0  0
   13.3965    3.2438    0.0000 H   0  0  0  0  0  0  0  0  0  0  0  0
   13.1695    4.0907    0.0000 H   0  0  0  0  0  0  0  0  0  0  0  0
   12.3226    0.2438    0.0000 H   0  0  0  0  0  0  0  0  0  0  0  0
   14.1241    1.5287    0.0000 H   0  0  0  0  0  0  0  0  0  0  0  0
   13.3270    1.5287    0.0000 H   0  0  0  0  0  0  0  0  0  0  0  0
   12.3226   -0.7562    0.0000 H   0  0  0  0  0  0  0  0  0  0  0  0
   14.1931    0.0788    0.0000 H   0  0  0  0  0  0  0  0  0  0  0  0
   14.9901    0.0788    0.0000 H   0  0  0  0  0  0  0  0  0  0  0  0
   14.2625   -1.6362    0.0000 H   0  0  0  0  0  0  0  0  0  0  0  0
   12.6475   -1.8636    0.0000 H   0  0  0  0  0  0  0  0  0  0  0  0
   12.2490   -2.5539    0.0000 H   0  0  0  0  0  0  0  0  0  0  0  0
   15.1285   -2.1362    0.0000 H   0  0  0  0  0  0  0  0  0  0  0  0
   13.0716   -4.0288    0.0000 H   0  0  0  0  0  0  0  0  0  0  0  0
   13.4701   -3.3386    0.0000 H   0  0  0  0  0  0  0  0  0  0  0  0
   16.0682   -4.0539    0.0000 H   0  0  0  0  0  0  0  0  0  0  0  0
   15.6697   -3.3636    0.0000 H   0  0  0  0  0  0  0  0  0  0  0  0
   16.8606    0.8638    0.0000 H   0  0  0  0  0  0  0  0  0  0  0  0
   14.8470   -4.8386    0.0000 H   0  0  0  0  0  0  0  0  0  0  0  0
   15.2456   -5.5288    0.0000 H   0  0  0  0  0  0  0  0  0  0  0  0
   11.4566   -5.2562    0.0000 H   0  0  0  0  0  0  0  0  0  0  0  0
   16.8606   -6.7562    0.0000 H   0  0  0  0  0  0  0  0  0  0  0  0
  1 30  2  0  0  0  0
  2 36  2  0  0  0  0
  3 41  2  0  0  0  0
  4 46  2  0  0  0  0
  5 52  2  0  0  0  0
  6 55  1  0  0  0  0
  6119  1  0  0  0  0
  7 55  2  0  0  0  0
  8 57  2  0  0  0  0
  9 59  1  0  0  0  0
  9122  1  0  0  0  0
 10 59  2  0  0  0  0
 11 61  1  0  0  0  0
 11123  1  0  0  0  0
 12 61  2  0  0  0  0
 13 23  1  0  0  0  0
 13 30  1  0  0  0  0
 13 66  1  0  0  0  0
 14 17  1  0  0  0  0
 14 26  2  0  0  0  0
 28 15  1  1  0  0  0
 15 36  1  0  0  0  0
 15 81  1  0  0  0  0
 16 18  2  0  0  0  0
 16 26  1  0  0  0  0
 17 18  1  0  0  0  0
 17 82  1  0  0  0  0
 37 19  1  1  0  0  0
 19 41  1  0  0  0  0
 19 85  1  0  0  0  0
 42 20  1  6  0  0  0
 20 46  1  0  0  0  0
 20 98  1  0  0  0  0
 49 21  1  1  0  0  0
 21 52  1  0  0  0  0
 21108  1  0  0  0  0
 53 22  1  1  0  0  0
 22 57  1  0  0  0  0
 22114  1  0  0  0  0
 23 24  1  0  0  0  0
 23 25  1  0  0  0  0
 23 26  1  0  0  0  0
 24 25  1  0  0  0  0
 24 62  1  0  0  0  0
 24 63  1  0  0  0  0
 25 64  1  0  0  0  0
 25 65  1  0  0  0  0
 27 29  1  0  0  0  0
 27 31  1  0  0  0  0
 27 32  1  0  0  0  0
 27 67  1  0  0  0  0
 28 29  1  0  0  0  0
 28 30  1  0  0  0  0
 28 68  1  0  0  0  0
 29 69  1  0  0  0  0
 29 70  1  0  0  0  0
 31 33  1  0  0  0  0
 31 71  1  0  0  0  0
 31 72  1  0  0  0  0
 32 34  1  0  0  0  0
 32 73  1  0  0  0  0
 32 74  1  0  0  0  0
 33 35  1  0  0  0  0
 33 75  1  0  0  0  0
 33 76  1  0  0  0  0
 34 35  1  0  0  0  0
 34 77  1  0  0  0  0
 34 78  1  0  0  0  0
 35 79  1  0  0  0  0
 35 80  1  0  0  0  0
 36 37  1  0  0  0  0
 37 38  1  0  0  0  0
 37 83  1  0  0  0  0
 38 39  1  0  0  0  0
 38 40  1  6  0  0  0
 38 84  1  0  0  0  0
 39 43  1  0  0  0  0
 39 86  1  0  0  0  0
 39 87  1  0  0  0  0
 40 88  1  0  0  0  0
 40 89  1  0  0  0  0
 40 90  1  0  0  0  0
 41 42  1  0  0  0  0
 42 44  1  0  0  0  0
 42 91  1  0  0  0  0
 43 92  1  0  0  0  0
 43 93  1  0  0  0  0
 43 94  1  0  0  0  0
 44 45  1  0  0  0  0
 44 95  1  0  0  0  0
 44 96  1  0  0  0  0
 45 47  1  0  0  0  0
 45 48  1  0  0  0  0
 45 97  1  0  0  0  0
 46 49  1  0  0  0  0
 47 99  1  0  0  0  0
 47100  1  0  0  0  0
 47101  1  0  0  0  0
 48102  1  0  0  0  0
 48103  1  0  0  0  0
 48104  1  0  0  0  0
 49 50  1  0  0  0  0
 49105  1  0  0  0  0
 50 51  1  0  0  0  0
 50106  1  0  0  0  0
 50107  1  0  0  0  0
 51 55  1  0  0  0  0
 51109  1  0  0  0  0
 51110  1  0  0  0  0
 52 53  1  0  0  0  0
 53 54  1  0  0  0  0
 53111  1  0  0  0  0
 54 56  1  0  0  0  0
 54112  1  0  0  0  0
 54113  1  0  0  0  0
 56 59  1  0  0  0  0
 56115  1  0  0  0  0
 56116  1  0  0  0  0
 57 58  1  0  0  0  0
 58 60  1  0  0  0  0
 58117  1  0  0  0  0
 58118  1  0  0  0  0
 60 61  1  0  0  0  0
 60120  1  0  0  0  0
 60121  1  0  0  0  0
M  END
> <PUBCHEM_COMPOUND_CID>
507073
> <PUBCHEM_COMPOUND_CANONICALIZED>
1
> <PUBCHEM_CACTVS_COMPLEXITY>
1570
> <PUBCHEM_CACTVS_HBOND_ACCEPTOR>
15
> <PUBCHEM_CACTVS_HBOND_DONOR>
10
> <PUBCHEM_CACTVS_ROTATABLE_BOND>
27
> <PUBCHEM_CACTVS_SUBSKEYS>
AAADcfB//AAAAAAAAAAAAAAAGAAAAWAAAAAwAAAAAAAAAAABgAAAHgAYCAAADajBgwQDGAbCAgAqAAOwOAAAAAIAAAAUIIGoAAAAQBIAgCAUQAAEFgCAAAG/n4KOAAAAAAAAAAAAAAAAAAAAAAAAAAAAAA==
> <PUBCHEM_IUPAC_OPENEYE_NAME>
(4S)-5-[[(1R)-3-carboxy-1-[[(1S)-1-[[(1S,2S)-1-[[(1S)-1-(cyclohexylmethyl)-2-oxo-2-[[1-(2H-tetrazol-5-yl)cyclopropyl]amino]ethyl]carbamoyl]-2-methyl-butyl]carbamoyl]-3-methyl-butyl]carbamoyl]propyl]amino]-4-(3-carboxypropanoylamino)-5-oxo-pentanoic acid
> <PUBCHEM_IUPAC_CAS_NAME>
(4S)-5-[[(2R)-4-carboxy-1-[[(2S)-1-[[(2S,3S)-1-[[(2S)-3-cyclohexyl-1-oxo-1-[[1-(2H-tetrazol-5-yl)cyclopropyl]amino]propan-2-yl]amino]-3-methyl-1-oxopentan-2-yl]amino]-4-methyl-1-oxopentan-2-yl]amino]-1-oxobutan-2-yl]amino]-4-[(3-carboxy-1-oxopropyl)amino]-5-oxopentanoic acid
> <PUBCHEM_IUPAC_NAME_MARKUP>
(4<I>S</I>)-5-[[(2<I>R</I>)-4-carboxy-1-[[(2<I>S</I>)-1-[[(2<I>S</I>,3<I>S</I>)-1-[[(2<I>S</I>)-3-cyclohexyl-1-oxo-1-[[1-(2<I>H</I>-tetrazol-5-yl)cyclopropyl]amino]propan-2-yl]amino]-3-methyl-1-oxopentan-2-yl]amino]-4-methyl-1-oxopentan-2-yl]amino]-1-oxobutan-2-yl]amino]-4-(3-carboxypropanoylamino)-5-oxopentanoic acid
> <PUBCHEM_IUPAC_NAME>
(4S)-5-[[(2R)-4-carboxy-1-[[(2S)-1-[[(2S,3S)-1-[[(2S)-3-cyclohexyl-1-oxo-1-[[1-(2H-tetrazol-5-yl)cyclopropyl]amino]propan-2-yl]amino]-3-methyl-1-oxopentan-2-yl]amino]-4-methyl-1-oxopentan-2-yl]amino]-1-oxobutan-2-yl]amino]-4-(3-carboxypropanoylamino)-5-oxopentanoic acid
> <PUBCHEM_IUPAC_SYSTEMATIC_NAME>
(4S)-5-[[(2R)-1-[[(2S)-1-[[(2S,3S)-1-[[(2S)-3-cyclohexyl-1-oxidanylidene-1-[[1-(2H-1,2,3,4-tetrazol-5-yl)cyclopropyl]amino]propan-2-yl]amino]-3-methyl-1-oxidanylidene-pentan-2-yl]amino]-4-methyl-1-oxidanylidene-pentan-2-yl]amino]-5-oxidanyl-1,5-bis(oxidanylidene)pentan-2-yl]amino]-5-oxidanylidene-4-[(4-oxidanyl-4-oxidanylidene-butanoyl)amino]pentanoic acid
> <PUBCHEM_IUPAC_TRADITIONAL_NAME>
(4S)-5-[[(1R)-3-carboxy-1-[[(1S)-1-[[(1S,2S)-1-[[(1S)-1-(cyclohexylmethyl)-2-keto-2-[[1-(2H-tetrazol-5-yl)cyclopropyl]amino]ethyl]carbamoyl]-2-methyl-butyl]carbamoyl]-3-methyl-butyl]carbamoyl]propyl]amino]-4-(3-carboxypropanoylamino)-5-keto-valeric acid
> <PUBCHEM_IUPAC_INCHI>
InChI=1S/C39H62N10O12/c1-5-22(4)32(37(61)43-27(20-23-9-7-6-8-10-23)36(60)45-39(17-18-39)38-46-48-49-47-38)44-35(59)26(19-21(2)3)42-34(58)25(12-15-30(53)54)41-33(57)24(11-14-29(51)52)40-28(50)13-16-31(55)56/h21-27,32H,5-20H2,1-4H3,(H,40,50)(H,41,57)(H,42,58)(H,43,61)(H,44,59)(H,45,60)(H,51,52)(H,53,54)(H,55,56)(H,46,47,48,49)/t22-,24-,25+,26-,27-,32-/m0/s1
> <PUBCHEM_IUPAC_INCHIKEY>
RWAQLHZQERTCFI-UWIAJDIOSA-N
> <PUBCHEM_XLOGP3_AA>
1.5
> <PUBCHEM_EXACT_MASS>
862.45486745
> <PUBCHEM_MOLECULAR_FORMULA>
C39H62N10O12
> <PUBCHEM_MOLECULAR_WEIGHT>
863.0
> <PUBCHEM_OPENEYE_CAN_SMILES>
CCC(C)C(C(=O)NC(CC1CCCCC1)C(=O)NC2(CC2)C3=NNN=N3)NC(=O)C(CC(C)C)NC(=O)C(CCC(=O)O)NC(=O)C(CCC(=O)O)NC(=O)CCC(=O)O
> <PUBCHEM_OPENEYE_ISO_SMILES>
CC[C@H](C)[C@@H](C(=O)N[C@@H](CC1CCCCC1)C(=O)NC2(CC2)C3=NNN=N3)NC(=O)[C@H](CC(C)C)NC(=O)[C@@H](CCC(=O)O)NC(=O)[C@H](CCC(=O)O)NC(=O)CCC(=O)O
> <PUBCHEM_CACTVS_TPSA>
341
> <PUBCHEM_MONOISOTOPIC_WEIGHT>
862.45486745
> <PUBCHEM_TOTAL_CHARGE>
0
> <PUBCHEM_HEAVY_ATOM_COUNT>
61
> <PUBCHEM_ATOM_DEF_STEREO_COUNT>
6
> <PUBCHEM_ATOM_UDEF_STEREO_COUNT>
0
> <PUBCHEM_BOND_DEF_STEREO_COUNT>
0
> <PUBCHEM_BOND_UDEF_STEREO_COUNT>
0
> <PUBCHEM_ISOTOPIC_ATOM_COUNT>
0
> <PUBCHEM_COMPONENT_COUNT>
1
> <PUBCHEM_CACTVS_TAUTO_COUNT>
-1
> <PUBCHEM_COORDINATE_TYPE>
1
5
255
> <PUBCHEM_BONDANNOTATIONS>
14  17  8
14  26  8
28  15  5
16  18  8
16  26  8
17  18  8
37  19  5
42  20  6
49  21  5
53  22  5
38  40  6
$$$$
