507029
  -OEChem-10302200282D
 45 48  0     1  0  0  0  0  0999 V2000
    3.4030    0.4335    0.0000 S   0  0  0  0  0  0  0  0  0  0  0  0
    2.5369   -1.0665    0.0000 O   0  0  0  0  0  0  0  0  0  0  0  0
    4.2690   -4.0665    0.0000 O   0  0  0  0  0  0  0  0  0  0  0  0
    5.1350    0.4335    0.0000 N   0  0  0  0  0  0  0  0  0  0  0  0
    6.7177    0.7699    0.0000 N   0  0  0  0  0  0  0  0  0  0  0  0
    5.2395    1.4280    0.0000 C   0  0  3  0  0  0  0  0  0  0  0  0
    6.2177    1.6359    0.0000 C   0  0  3  0  0  0  0  0  0  0  0  0
    4.4964    2.0971    0.0000 C   0  0  0  0  0  0  0  0  0  0  0  0
    6.6244    2.5494    0.0000 C   0  0  0  0  0  0  0  0  0  0  0  0
    6.0486    0.0267    0.0000 C   0  0  0  0  0  0  0  0  0  0  0  0
    4.2690   -0.0665    0.0000 C   0  0  0  0  0  0  0  0  0  0  0  0
    4.7043    3.0753    0.0000 C   0  0  0  0  0  0  0  0  0  0  0  0
    3.5453    1.7881    0.0000 C   0  0  0  0  0  0  0  0  0  0  0  0
    6.0366    3.3585    0.0000 C   0  0  0  0  0  0  0  0  0  0  0  0
    7.6190    2.6540    0.0000 C   0  0  0  0  0  0  0  0  0  0  0  0
    4.2690   -1.0665    0.0000 C   0  0  0  0  0  0  0  0  0  0  0  0
    3.9612    3.7444    0.0000 C   0  0  0  0  0  0  0  0  0  0  0  0
    2.8022    2.4572    0.0000 C   0  0  0  0  0  0  0  0  0  0  0  0
    6.4434    4.2720    0.0000 C   0  0  0  0  0  0  0  0  0  0  0  0
    8.0257    3.5675    0.0000 C   0  0  0  0  0  0  0  0  0  0  0  0
    3.0101    3.4354    0.0000 C   0  0  0  0  0  0  0  0  0  0  0  0
    7.4379    4.3765    0.0000 C   0  0  0  0  0  0  0  0  0  0  0  0
    3.4030   -1.5665    0.0000 C   0  0  0  0  0  0  0  0  0  0  0  0
    5.1350   -1.5665    0.0000 C   0  0  0  0  0  0  0  0  0  0  0  0
    3.4030   -2.5665    0.0000 C   0  0  0  0  0  0  0  0  0  0  0  0
    5.1350   -2.5665    0.0000 C   0  0  0  0  0  0  0  0  0  0  0  0
    4.2690   -3.0665    0.0000 C   0  0  0  0  0  0  0  0  0  0  0  0
    5.4000    2.0269    0.0000 H   0  0  0  0  0  0  0  0  0  0  0  0
    6.8368    1.6684    0.0000 H   0  0  0  0  0  0  0  0  0  0  0  0
    6.1775   -0.5797    0.0000 H   0  0  0  0  0  0  0  0  0  0  0  0
    5.2940    3.2669    0.0000 H   0  0  0  0  0  0  0  0  0  0  0  0
    3.4164    1.1816    0.0000 H   0  0  0  0  0  0  0  0  0  0  0  0
    5.4200    3.2936    0.0000 H   0  0  0  0  0  0  0  0  0  0  0  0
    7.9834    2.1524    0.0000 H   0  0  0  0  0  0  0  0  0  0  0  0
    4.0901    4.3508    0.0000 H   0  0  0  0  0  0  0  0  0  0  0  0
    2.2125    2.2656    0.0000 H   0  0  0  0  0  0  0  0  0  0  0  0
    6.0790    4.7736    0.0000 H   0  0  0  0  0  0  0  0  0  0  0  0
    8.6423    3.6323    0.0000 H   0  0  0  0  0  0  0  0  0  0  0  0
    2.5494    3.8502    0.0000 H   0  0  0  0  0  0  0  0  0  0  0  0
    7.6901    4.9429    0.0000 H   0  0  0  0  0  0  0  0  0  0  0  0
    5.6720   -1.2565    0.0000 H   0  0  0  0  0  0  0  0  0  0  0  0
    2.8660   -2.8765    0.0000 H   0  0  0  0  0  0  0  0  0  0  0  0
    5.6720   -2.8765    0.0000 H   0  0  0  0  0  0  0  0  0  0  0  0
    2.0000   -1.3765    0.0000 H   0  0  0  0  0  0  0  0  0  0  0  0
    4.8059   -4.3765    0.0000 H   0  0  0  0  0  0  0  0  0  0  0  0
  1 11  2  0  0  0  0
  2 23  1  0  0  0  0
  2 44  1  0  0  0  0
  3 27  1  0  0  0  0
  3 45  1  0  0  0  0
  4  6  1  0  0  0  0
  4 10  1  0  0  0  0
  4 11  1  0  0  0  0
  5  7  1  0  0  0  0
  5 10  2  0  0  0  0
  6  7  1  0  0  0  0
  6  8  1  0  0  0  0
  6 28  1  0  0  0  0
  7  9  1  0  0  0  0
  7 29  1  0  0  0  0
  8 12  2  0  0  0  0
  8 13  1  0  0  0  0
  9 14  2  0  0  0  0
  9 15  1  0  0  0  0
 10 30  1  0  0  0  0
 11 16  1  0  0  0  0
 12 17  1  0  0  0  0
 12 31  1  0  0  0  0
 13 18  2  0  0  0  0
 13 32  1  0  0  0  0
 14 19  1  0  0  0  0
 14 33  1  0  0  0  0
 15 20  2  0  0  0  0
 15 34  1  0  0  0  0
 16 23  2  0  0  0  0
 16 24  1  0  0  0  0
 17 21  2  0  0  0  0
 17 35  1  0  0  0  0
 18 21  1  0  0  0  0
 18 36  1  0  0  0  0
 19 22  2  0  0  0  0
 19 37  1  0  0  0  0
 20 22  1  0  0  0  0
 20 38  1  0  0  0  0
 21 39  1  0  0  0  0
 22 40  1  0  0  0  0
 23 25  1  0  0  0  0
 24 26  2  0  0  0  0
 24 41  1  0  0  0  0
 25 27  2  0  0  0  0
 25 42  1  0  0  0  0
 26 27  1  0  0  0  0
 26 43  1  0  0  0  0
M  END
> <PUBCHEM_COMPOUND_CID>
507029
> <PUBCHEM_COMPOUND_CANONICALIZED>
1
> <PUBCHEM_CACTVS_COMPLEXITY>
542
> <PUBCHEM_CACTVS_HBOND_ACCEPTOR>
4
> <PUBCHEM_CACTVS_HBOND_DONOR>
2
> <PUBCHEM_CACTVS_ROTATABLE_BOND>
3
> <PUBCHEM_CACTVS_SUBSKEYS>
AAADceB7MABAAAAAAAAAAAAAAAAAAQAAAAAwYMAAAAAAAAABUAAAHgQACAAADCzB2AQxBoMAAgCkAiBDJACCAAEgIAgJiAAODIgIZyKCmROUcAhnwBWImAeQ8OYOIAAACAAIAABAAAAQABAAAAAAAAAAAA==
> <PUBCHEM_IUPAC_OPENEYE_NAME>
(2,4-dihydroxyphenyl)-(4,5-diphenyl-4,5-dihydroimidazol-1-yl)methanethione
> <PUBCHEM_IUPAC_CAS_NAME>
(2,4-dihydroxyphenyl)-(4,5-diphenyl-4,5-dihydroimidazol-1-yl)methanethione
> <PUBCHEM_IUPAC_NAME_MARKUP>
(2,4-dihydroxyphenyl)-(4,5-diphenyl-4,5-dihydroimidazol-1-yl)methanethione
> <PUBCHEM_IUPAC_NAME>
(2,4-dihydroxyphenyl)-(4,5-diphenyl-4,5-dihydroimidazol-1-yl)methanethione
> <PUBCHEM_IUPAC_SYSTEMATIC_NAME>
[2,4-bis(oxidanyl)phenyl]-(4,5-diphenyl-4,5-dihydroimidazol-1-yl)methanethione
> <PUBCHEM_IUPAC_TRADITIONAL_NAME>
(2,4-dihydroxyphenyl)-(4,5-diphenyl-2-imidazolin-1-yl)methanethione
> <PUBCHEM_IUPAC_INCHI>
InChI=1S/C22H18N2O2S/c25-17-11-12-18(19(26)13-17)22(27)24-14-23-20(15-7-3-1-4-8-15)21(24)16-9-5-2-6-10-16/h1-14,20-21,25-26H
> <PUBCHEM_IUPAC_INCHIKEY>
PVFQNYZSRCAFHW-UHFFFAOYSA-N
> <PUBCHEM_XLOGP3_AA>
4
> <PUBCHEM_EXACT_MASS>
374.10889899
> <PUBCHEM_MOLECULAR_FORMULA>
C22H18N2O2S
> <PUBCHEM_MOLECULAR_WEIGHT>
374.5
> <PUBCHEM_OPENEYE_CAN_SMILES>
C1=CC=C(C=C1)C2C(N(C=N2)C(=S)C3=C(C=C(C=C3)O)O)C4=CC=CC=C4
> <PUBCHEM_OPENEYE_ISO_SMILES>
C1=CC=C(C=C1)C2C(N(C=N2)C(=S)C3=C(C=C(C=C3)O)O)C4=CC=CC=C4
> <PUBCHEM_CACTVS_TPSA>
88.2
> <PUBCHEM_MONOISOTOPIC_WEIGHT>
374.10889899
> <PUBCHEM_TOTAL_CHARGE>
0
> <PUBCHEM_HEAVY_ATOM_COUNT>
27
> <PUBCHEM_ATOM_DEF_STEREO_COUNT>
0
> <PUBCHEM_ATOM_UDEF_STEREO_COUNT>
2
> <PUBCHEM_BOND_DEF_STEREO_COUNT>
0
> <PUBCHEM_BOND_UDEF_STEREO_COUNT>
0
> <PUBCHEM_ISOTOPIC_ATOM_COUNT>
0
> <PUBCHEM_COMPONENT_COUNT>
1
> <PUBCHEM_CACTVS_TAUTO_COUNT>
-1
> <PUBCHEM_COORDINATE_TYPE>
1
5
255
> <PUBCHEM_BONDANNOTATIONS>
12  17  8
13  18  8
14  19  8
15  20  8
16  23  8
16  24  8
17  21  8
18  21  8
19  22  8
20  22  8
23  25  8
24  26  8
25  27  8
26  27  8
6  8  3
7  9  3
8  12  8
8  13  8
9  14  8
9  15  8
$$$$
