507067
  -OEChem-10302200282D
121121  0     1  0  0  0  0  0999 V2000
   10.6603   -7.3100    0.0000 S   0  0  0  0  0  0  0  0  0  0  0  0
    8.0622   -6.8100    0.0000 O   0  0  0  0  0  0  0  0  0  0  0  0
    5.4641   -4.3100    0.0000 O   0  0  0  0  0  0  0  0  0  0  0  0
    6.3301   -0.8100    0.0000 O   0  0  0  0  0  0  0  0  0  0  0  0
   11.5263   -5.8100    0.0000 O   0  0  0  0  0  0  0  0  0  0  0  0
   10.6603   -4.3100    0.0000 O   0  0  0  0  0  0  0  0  0  0  0  0
    6.3301    0.1900    0.0000 O   0  0  0  0  0  0  0  0  0  0  0  0
    5.4641    3.6900    0.0000 O   0  0  0  0  0  0  0  0  0  0  0  0
    3.7320    4.6900    0.0000 O   0  0  0  0  0  0  0  0  0  0  0  0
    2.8660    3.1900    0.0000 O   0  0  0  0  0  0  0  0  0  0  0  0
    8.9282    4.6900    0.0000 O   0  0  0  0  0  0  0  0  0  0  0  0
   10.6603    3.6900    0.0000 O   0  0  0  0  0  0  0  0  0  0  0  0
    9.7942    2.1900    0.0000 O   0  0  0  0  0  0  0  0  0  0  0  0
    9.7942    8.1900    0.0000 O   0  0  0  0  0  0  0  0  0  0  0  0
    8.0622    8.1900    0.0000 O   0  0  0  0  0  0  0  0  0  0  0  0
    7.1962   -4.3100    0.0000 N   0  0  0  0  0  0  0  0  0  0  0  0
    8.9282   -5.3100    0.0000 N   0  0  0  0  0  0  0  0  0  0  0  0
    5.4641   -2.3100    0.0000 N   0  0  0  0  0  0  0  0  0  0  0  0
    4.5981    0.1900    0.0000 N   0  0  0  0  0  0  0  0  0  0  0  0
    6.3301    2.1900    0.0000 N   0  0  0  0  0  0  0  0  0  0  0  0
    7.1962    4.6900    0.0000 N   0  0  0  0  0  0  0  0  0  0  0  0
    6.3301   -6.8100    0.0000 C   0  0  0  0  0  0  0  0  0  0  0  0
    5.4641   -7.3100    0.0000 C   0  0  0  0  0  0  0  0  0  0  0  0
    7.1962   -7.3100    0.0000 C   0  0  0  0  0  0  0  0  0  0  0  0
    6.3301   -5.8100    0.0000 C   0  0  0  0  0  0  0  0  0  0  0  0
    5.4641   -8.3100    0.0000 C   0  0  0  0  0  0  0  0  0  0  0  0
    7.1962   -8.3100    0.0000 C   0  0  0  0  0  0  0  0  0  0  0  0
    6.3301   -8.8100    0.0000 C   0  0  0  0  0  0  0  0  0  0  0  0
    7.1962   -5.3100    0.0000 C   0  0  1  0  0  0  0  0  0  0  0  0
    8.0622   -5.8100    0.0000 C   0  0  0  0  0  0  0  0  0  0  0  0
    6.3301   -2.8100    0.0000 C   0  0  2  0  0  0  0  0  0  0  0  0
    6.3301   -3.8100    0.0000 C   0  0  0  0  0  0  0  0  0  0  0  0
    7.1962   -2.3100    0.0000 C   0  0  2  0  0  0  0  0  0  0  0  0
    7.1962   -1.3100    0.0000 C   0  0  0  0  0  0  0  0  0  0  0  0
    9.7942   -5.8100    0.0000 C   0  0  1  0  0  0  0  0  0  0  0  0
    8.0622   -2.8100    0.0000 C   0  0  0  0  0  0  0  0  0  0  0  0
    4.5981   -0.8100    0.0000 C   0  0  2  0  0  0  0  0  0  0  0  0
    5.4641   -1.3100    0.0000 C   0  0  0  0  0  0  0  0  0  0  0  0
    3.7320   -1.3100    0.0000 C   0  0  0  0  0  0  0  0  0  0  0  0
    8.0622   -0.8100    0.0000 C   0  0  0  0  0  0  0  0  0  0  0  0
    2.8660   -0.8100    0.0000 C   0  0  0  0  0  0  0  0  0  0  0  0
    9.7942   -6.8100    0.0000 C   0  0  0  0  0  0  0  0  0  0  0  0
   10.6603   -5.3100    0.0000 C   0  0  0  0  0  0  0  0  0  0  0  0
    5.4641    1.6900    0.0000 C   0  0  1  0  0  0  0  0  0  0  0  0
    5.4641    0.6900    0.0000 C   0  0  0  0  0  0  0  0  0  0  0  0
    2.0000   -1.3100    0.0000 C   0  0  0  0  0  0  0  0  0  0  0  0
    2.8660    0.1900    0.0000 C   0  0  0  0  0  0  0  0  0  0  0  0
    4.5981    2.1900    0.0000 C   0  0  0  0  0  0  0  0  0  0  0  0
    4.5981    3.1900    0.0000 C   0  0  0  0  0  0  0  0  0  0  0  0
    7.1962    3.6900    0.0000 C   0  0  2  0  0  0  0  0  0  0  0  0
    6.3301    3.1900    0.0000 C   0  0  0  0  0  0  0  0  0  0  0  0
    8.0622    3.1900    0.0000 C   0  0  0  0  0  0  0  0  0  0  0  0
    3.7320    3.6900    0.0000 C   0  0  0  0  0  0  0  0  0  0  0  0
    8.9282    3.6900    0.0000 C   0  0  0  0  0  0  0  0  0  0  0  0
    8.0622    5.1900    0.0000 C   0  0  0  0  0  0  0  0  0  0  0  0
    8.0622    6.1900    0.0000 C   0  0  0  0  0  0  0  0  0  0  0  0
    9.7942    3.1900    0.0000 C   0  0  0  0  0  0  0  0  0  0  0  0
    8.9282    6.6900    0.0000 C   0  0  0  0  0  0  0  0  0  0  0  0
    8.9282    7.6900    0.0000 C   0  0  0  0  0  0  0  0  0  0  0  0
    6.8671   -6.5000    0.0000 H   0  0  0  0  0  0  0  0  0  0  0  0
    5.2520   -6.7274    0.0000 H   0  0  0  0  0  0  0  0  0  0  0  0
    4.8535   -7.4177    0.0000 H   0  0  0  0  0  0  0  0  0  0  0  0
    7.8067   -7.4177    0.0000 H   0  0  0  0  0  0  0  0  0  0  0  0
    7.4082   -6.7274    0.0000 H   0  0  0  0  0  0  0  0  0  0  0  0
    6.1181   -5.2274    0.0000 H   0  0  0  0  0  0  0  0  0  0  0  0
    5.7196   -5.9177    0.0000 H   0  0  0  0  0  0  0  0  0  0  0  0
    4.8535   -8.2023    0.0000 H   0  0  0  0  0  0  0  0  0  0  0  0
    5.2520   -8.8926    0.0000 H   0  0  0  0  0  0  0  0  0  0  0  0
    7.4082   -8.8926    0.0000 H   0  0  0  0  0  0  0  0  0  0  0  0
    7.8067   -8.2023    0.0000 H   0  0  0  0  0  0  0  0  0  0  0  0
    5.9316   -9.2850    0.0000 H   0  0  0  0  0  0  0  0  0  0  0  0
    6.7287   -9.2850    0.0000 H   0  0  0  0  0  0  0  0  0  0  0  0
    6.6592   -5.0000    0.0000 H   0  0  0  0  0  0  0  0  0  0  0  0
    7.7331   -4.0000    0.0000 H   0  0  0  0  0  0  0  0  0  0  0  0
    5.7932   -3.1200    0.0000 H   0  0  0  0  0  0  0  0  0  0  0  0
    7.7331   -2.0000    0.0000 H   0  0  0  0  0  0  0  0  0  0  0  0
    8.9282   -4.6900    0.0000 H   0  0  0  0  0  0  0  0  0  0  0  0
    4.9272   -2.6200    0.0000 H   0  0  0  0  0  0  0  0  0  0  0  0
    6.9841   -0.7274    0.0000 H   0  0  0  0  0  0  0  0  0  0  0  0
    6.5856   -1.4177    0.0000 H   0  0  0  0  0  0  0  0  0  0  0  0
    9.2573   -6.1200    0.0000 H   0  0  0  0  0  0  0  0  0  0  0  0
    7.7522   -3.3469    0.0000 H   0  0  0  0  0  0  0  0  0  0  0  0
    8.5991   -3.1200    0.0000 H   0  0  0  0  0  0  0  0  0  0  0  0
    8.3722   -2.2731    0.0000 H   0  0  0  0  0  0  0  0  0  0  0  0
    5.1350   -0.5000    0.0000 H   0  0  0  0  0  0  0  0  0  0  0  0
    3.3335   -1.7850    0.0000 H   0  0  0  0  0  0  0  0  0  0  0  0
    4.1306   -1.7850    0.0000 H   0  0  0  0  0  0  0  0  0  0  0  0
    8.3722   -1.3469    0.0000 H   0  0  0  0  0  0  0  0  0  0  0  0
    8.5991   -0.5000    0.0000 H   0  0  0  0  0  0  0  0  0  0  0  0
    7.7522   -0.2731    0.0000 H   0  0  0  0  0  0  0  0  0  0  0  0
    2.8660   -1.4300    0.0000 H   0  0  0  0  0  0  0  0  0  0  0  0
    9.1836   -6.7023    0.0000 H   0  0  0  0  0  0  0  0  0  0  0  0
    9.5822   -7.3926    0.0000 H   0  0  0  0  0  0  0  0  0  0  0  0
    4.0611    0.5000    0.0000 H   0  0  0  0  0  0  0  0  0  0  0  0
    5.4641    2.3100    0.0000 H   0  0  0  0  0  0  0  0  0  0  0  0
    1.6900   -0.7731    0.0000 H   0  0  0  0  0  0  0  0  0  0  0  0
    1.4631   -1.6200    0.0000 H   0  0  0  0  0  0  0  0  0  0  0  0
    2.3100   -1.8469    0.0000 H   0  0  0  0  0  0  0  0  0  0  0  0
    3.4860    0.1900    0.0000 H   0  0  0  0  0  0  0  0  0  0  0  0
    2.8660    0.8100    0.0000 H   0  0  0  0  0  0  0  0  0  0  0  0
    2.2460    0.1900    0.0000 H   0  0  0  0  0  0  0  0  0  0  0  0
    3.9875    2.2977    0.0000 H   0  0  0  0  0  0  0  0  0  0  0  0
    4.3860    1.6074    0.0000 H   0  0  0  0  0  0  0  0  0  0  0  0
   10.6603   -7.9300    0.0000 H   0  0  0  0  0  0  0  0  0  0  0  0
    6.8671    1.8800    0.0000 H   0  0  0  0  0  0  0  0  0  0  0  0
   12.0632   -5.5000    0.0000 H   0  0  0  0  0  0  0  0  0  0  0  0
    5.2087    3.0823    0.0000 H   0  0  0  0  0  0  0  0  0  0  0  0
    4.8101    3.7726    0.0000 H   0  0  0  0  0  0  0  0  0  0  0  0
    6.6592    4.0000    0.0000 H   0  0  0  0  0  0  0  0  0  0  0  0
    7.6636    2.7151    0.0000 H   0  0  0  0  0  0  0  0  0  0  0  0
    8.4607    2.7151    0.0000 H   0  0  0  0  0  0  0  0  0  0  0  0
    6.6592    5.0000    0.0000 H   0  0  0  0  0  0  0  0  0  0  0  0
    9.3267    4.1650    0.0000 H   0  0  0  0  0  0  0  0  0  0  0  0
    8.5297    4.1650    0.0000 H   0  0  0  0  0  0  0  0  0  0  0  0
    7.8501    6.7726    0.0000 H   0  0  0  0  0  0  0  0  0  0  0  0
    7.4516    6.0823    0.0000 H   0  0  0  0  0  0  0  0  0  0  0  0
    3.1951    5.0000    0.0000 H   0  0  0  0  0  0  0  0  0  0  0  0
    9.1403    6.1074    0.0000 H   0  0  0  0  0  0  0  0  0  0  0  0
    9.5388    6.7977    0.0000 H   0  0  0  0  0  0  0  0  0  0  0  0
   11.1972    3.3800    0.0000 H   0  0  0  0  0  0  0  0  0  0  0  0
    9.7942    8.8100    0.0000 H   0  0  0  0  0  0  0  0  0  0  0  0
  1 42  1  0  0  0  0
  1104  1  0  0  0  0
  2 30  2  0  0  0  0
  3 32  2  0  0  0  0
  4 38  2  0  0  0  0
  5 43  1  0  0  0  0
  5106  1  0  0  0  0
  6 43  2  0  0  0  0
  7 45  2  0  0  0  0
  8 51  2  0  0  0  0
  9 53  1  0  0  0  0
  9117  1  0  0  0  0
 10 53  2  0  0  0  0
 11 55  2  0  0  0  0
 12 57  1  0  0  0  0
 12120  1  0  0  0  0
 13 57  2  0  0  0  0
 14 59  1  0  0  0  0
 14121  1  0  0  0  0
 15 59  2  0  0  0  0
 29 16  1  6  0  0  0
 16 32  1  0  0  0  0
 16 74  1  0  0  0  0
 17 30  1  0  0  0  0
 35 17  1  6  0  0  0
 17 77  1  0  0  0  0
 31 18  1  1  0  0  0
 18 38  1  0  0  0  0
 18 78  1  0  0  0  0
 37 19  1  6  0  0  0
 19 45  1  0  0  0  0
 19 94  1  0  0  0  0
 44 20  1  1  0  0  0
 20 51  1  0  0  0  0
 20105  1  0  0  0  0
 50 21  1  1  0  0  0
 21 55  1  0  0  0  0
 21112  1  0  0  0  0
 22 23  1  0  0  0  0
 22 24  1  0  0  0  0
 22 25  1  0  0  0  0
 22 60  1  0  0  0  0
 23 26  1  0  0  0  0
 23 61  1  0  0  0  0
 23 62  1  0  0  0  0
 24 27  1  0  0  0  0
 24 63  1  0  0  0  0
 24 64  1  0  0  0  0
 25 29  1  0  0  0  0
 25 65  1  0  0  0  0
 25 66  1  0  0  0  0
 26 28  1  0  0  0  0
 26 67  1  0  0  0  0
 26 68  1  0  0  0  0
 27 28  1  0  0  0  0
 27 69  1  0  0  0  0
 27 70  1  0  0  0  0
 28 71  1  0  0  0  0
 28 72  1  0  0  0  0
 29 30  1  0  0  0  0
 29 73  1  0  0  0  0
 31 32  1  0  0  0  0
 31 33  1  0  0  0  0
 31 75  1  0  0  0  0
 33 34  1  0  0  0  0
 33 36  1  6  0  0  0
 33 76  1  0  0  0  0
 34 40  1  0  0  0  0
 34 79  1  0  0  0  0
 34 80  1  0  0  0  0
 35 42  1  0  0  0  0
 35 43  1  0  0  0  0
 35 81  1  0  0  0  0
 36 82  1  0  0  0  0
 36 83  1  0  0  0  0
 36 84  1  0  0  0  0
 37 38  1  0  0  0  0
 37 39  1  0  0  0  0
 37 85  1  0  0  0  0
 39 41  1  0  0  0  0
 39 86  1  0  0  0  0
 39 87  1  0  0  0  0
 40 88  1  0  0  0  0
 40 89  1  0  0  0  0
 40 90  1  0  0  0  0
 41 46  1  0  0  0  0
 41 47  1  0  0  0  0
 41 91  1  0  0  0  0
 42 92  1  0  0  0  0
 42 93  1  0  0  0  0
 44 45  1  0  0  0  0
 44 48  1  0  0  0  0
 44 95  1  0  0  0  0
 46 96  1  0  0  0  0
 46 97  1  0  0  0  0
 46 98  1  0  0  0  0
 47 99  1  0  0  0  0
 47100  1  0  0  0  0
 47101  1  0  0  0  0
 48 49  1  0  0  0  0
 48102  1  0  0  0  0
 48103  1  0  0  0  0
 49 53  1  0  0  0  0
 49107  1  0  0  0  0
 49108  1  0  0  0  0
 50 51  1  0  0  0  0
 50 52  1  0  0  0  0
 50109  1  0  0  0  0
 52 54  1  0  0  0  0
 52110  1  0  0  0  0
 52111  1  0  0  0  0
 54 57  1  0  0  0  0
 54113  1  0  0  0  0
 54114  1  0  0  0  0
 55 56  1  0  0  0  0
 56 58  1  0  0  0  0
 56115  1  0  0  0  0
 56116  1  0  0  0  0
 58 59  1  0  0  0  0
 58118  1  0  0  0  0
 58119  1  0  0  0  0
M  END
> <PUBCHEM_COMPOUND_CID>
507067
> <PUBCHEM_COMPOUND_CANONICALIZED>
1
> <PUBCHEM_CACTVS_COMPLEXITY>
1490
> <PUBCHEM_CACTVS_HBOND_ACCEPTOR>
15
> <PUBCHEM_CACTVS_HBOND_DONOR>
11
> <PUBCHEM_CACTVS_ROTATABLE_BOND>
28
> <PUBCHEM_CACTVS_SUBSKEYS>
AAADcfB/vABAAAAAAAAAAAAAAAAAAAAAAAAwAAAAAAAAAAAAAAAAHgQQCAAADSjFwASCCALAAgQIAAGQGAAAAAAAAAAAAIGIAAACQBIAgCAUQAAEFgCQAAG/n4KOAAAAAAAAAAAAAAAAAAAAAAAAAAAAAA==
> <PUBCHEM_IUPAC_OPENEYE_NAME>
(4S)-5-[[(1R)-3-carboxy-1-[[(1S)-1-[[(1S,2S)-1-[[(1S)-2-[[(1R)-1-carboxy-2-sulfanyl-ethyl]amino]-1-(cyclohexylmethyl)-2-oxo-ethyl]carbamoyl]-2-methyl-butyl]carbamoyl]-3-methyl-butyl]carbamoyl]propyl]amino]-4-(3-carboxypropanoylamino)-5-oxo-pentanoic acid
> <PUBCHEM_IUPAC_CAS_NAME>
(4S)-5-[[(2R)-4-carboxy-1-[[(2S)-1-[[(2S,3S)-1-[[(2S)-1-[[(1R)-1-carboxy-2-mercaptoethyl]amino]-3-cyclohexyl-1-oxopropan-2-yl]amino]-3-methyl-1-oxopentan-2-yl]amino]-4-methyl-1-oxopentan-2-yl]amino]-1-oxobutan-2-yl]amino]-4-[(3-carboxy-1-oxopropyl)amino]-5-oxopentanoic acid
> <PUBCHEM_IUPAC_NAME_MARKUP>
(4<I>S</I>)-5-[[(2<I>R</I>)-4-carboxy-1-[[(2<I>S</I>)-1-[[(2<I>S</I>,3<I>S</I>)-1-[[(2<I>S</I>)-1-[[(1<I>R</I>)-1-carboxy-2-sulfanylethyl]amino]-3-cyclohexyl-1-oxopropan-2-yl]amino]-3-methyl-1-oxopentan-2-yl]amino]-4-methyl-1-oxopentan-2-yl]amino]-1-oxobutan-2-yl]amino]-4-(3-carboxypropanoylamino)-5-oxopentanoic acid
> <PUBCHEM_IUPAC_NAME>
(4S)-5-[[(2R)-4-carboxy-1-[[(2S)-1-[[(2S,3S)-1-[[(2S)-1-[[(1R)-1-carboxy-2-sulfanylethyl]amino]-3-cyclohexyl-1-oxopropan-2-yl]amino]-3-methyl-1-oxopentan-2-yl]amino]-4-methyl-1-oxopentan-2-yl]amino]-1-oxobutan-2-yl]amino]-4-(3-carboxypropanoylamino)-5-oxopentanoic acid
> <PUBCHEM_IUPAC_SYSTEMATIC_NAME>
(4S)-5-[[(2R)-1-[[(2S)-1-[[(2S,3S)-1-[[(2S)-3-cyclohexyl-1-oxidanylidene-1-[[(2R)-1-oxidanyl-1-oxidanylidene-3-sulfanyl-propan-2-yl]amino]propan-2-yl]amino]-3-methyl-1-oxidanylidene-pentan-2-yl]amino]-4-methyl-1-oxidanylidene-pentan-2-yl]amino]-5-oxidanyl-1,5-bis(oxidanylidene)pentan-2-yl]amino]-5-oxidanylidene-4-[(4-oxidanyl-4-oxidanylidene-butanoyl)amino]pentanoic acid
> <PUBCHEM_IUPAC_TRADITIONAL_NAME>
(4S)-5-[[(1R)-3-carboxy-1-[[(1S)-1-[[(1S,2S)-1-[[(1S)-2-[[(1R)-1-carboxy-2-mercapto-ethyl]amino]-1-(cyclohexylmethyl)-2-keto-ethyl]carbamoyl]-2-methyl-butyl]carbamoyl]-3-methyl-butyl]carbamoyl]propyl]amino]-4-(3-carboxypropanoylamino)-5-keto-valeric acid
> <PUBCHEM_IUPAC_INCHI>
InChI=1S/C38H62N6O14S/c1-5-21(4)32(37(56)42-26(18-22-9-7-6-8-10-22)35(54)43-27(19-59)38(57)58)44-36(55)25(17-20(2)3)41-34(53)24(12-15-30(48)49)40-33(52)23(11-14-29(46)47)39-28(45)13-16-31(50)51/h20-27,32,59H,5-19H2,1-4H3,(H,39,45)(H,40,52)(H,41,53)(H,42,56)(H,43,54)(H,44,55)(H,46,47)(H,48,49)(H,50,51)(H,57,58)/t21-,23-,24+,25-,26-,27-,32-/m0/s1
> <PUBCHEM_IUPAC_INCHIKEY>
ZCTHNURFQPELPM-GCFUEVNFSA-N
> <PUBCHEM_XLOGP3_AA>
2
> <PUBCHEM_EXACT_MASS>
858.40447185
> <PUBCHEM_MOLECULAR_FORMULA>
C38H62N6O14S
> <PUBCHEM_MOLECULAR_WEIGHT>
859.0
> <PUBCHEM_OPENEYE_CAN_SMILES>
CCC(C)C(C(=O)NC(CC1CCCCC1)C(=O)NC(CS)C(=O)O)NC(=O)C(CC(C)C)NC(=O)C(CCC(=O)O)NC(=O)C(CCC(=O)O)NC(=O)CCC(=O)O
> <PUBCHEM_OPENEYE_ISO_SMILES>
CC[C@H](C)[C@@H](C(=O)N[C@@H](CC1CCCCC1)C(=O)N[C@@H](CS)C(=O)O)NC(=O)[C@H](CC(C)C)NC(=O)[C@@H](CCC(=O)O)NC(=O)[C@H](CCC(=O)O)NC(=O)CCC(=O)O
> <PUBCHEM_CACTVS_TPSA>
325
> <PUBCHEM_MONOISOTOPIC_WEIGHT>
858.40447185
> <PUBCHEM_TOTAL_CHARGE>
0
> <PUBCHEM_HEAVY_ATOM_COUNT>
59
> <PUBCHEM_ATOM_DEF_STEREO_COUNT>
7
> <PUBCHEM_ATOM_UDEF_STEREO_COUNT>
0
> <PUBCHEM_BOND_DEF_STEREO_COUNT>
0
> <PUBCHEM_BOND_UDEF_STEREO_COUNT>
0
> <PUBCHEM_ISOTOPIC_ATOM_COUNT>
0
> <PUBCHEM_COMPONENT_COUNT>
1
> <PUBCHEM_CACTVS_TAUTO_COUNT>
-1
> <PUBCHEM_COORDINATE_TYPE>
1
5
255
> <PUBCHEM_BONDANNOTATIONS>
29  16  6
35  17  6
31  18  5
37  19  6
44  20  5
50  21  5
33  36  6
$$$$
