507066
  -OEChem-10302200282D
125127  0     1  0  0  0  0  0999 V2000
    2.0000    4.1348    0.0000 O   0  0  0  0  0  0  0  0  0  0  0  0
    5.4641    3.1348    0.0000 O   0  0  0  0  0  0  0  0  0  0  0  0
    6.3301    2.6348    0.0000 O   0  0  0  0  0  0  0  0  0  0  0  0
    8.9282    0.1348    0.0000 O   0  0  0  0  0  0  0  0  0  0  0  0
    9.7942   -0.3652    0.0000 O   0  0  0  0  0  0  0  0  0  0  0  0
   13.2583   -1.3652    0.0000 O   0  0  0  0  0  0  0  0  0  0  0  0
   14.9904   -0.3652    0.0000 O   0  0  0  0  0  0  0  0  0  0  0  0
   14.1244    1.1348    0.0000 O   0  0  0  0  0  0  0  0  0  0  0  0
   12.3923   -4.8652    0.0000 O   0  0  0  0  0  0  0  0  0  0  0  0
   10.6603   -5.8652    0.0000 O   0  0  0  0  0  0  0  0  0  0  0  0
    9.7942   -4.3652    0.0000 O   0  0  0  0  0  0  0  0  0  0  0  0
   14.9904   -7.3652    0.0000 O   0  0  0  0  0  0  0  0  0  0  0  0
   15.8564   -5.8652    0.0000 O   0  0  0  0  0  0  0  0  0  0  0  0
    3.7320    3.1348    0.0000 N   0  0  0  0  0  0  0  0  0  0  0  0
    5.4641    1.1348    0.0000 N   0  0  0  0  0  0  0  0  0  0  0  0
    2.0570    6.2226    0.0000 N   0  0  0  0  0  0  0  0  0  0  0  0
    3.6750    6.2226    0.0000 N   0  0  0  0  0  0  0  0  0  0  0  0
    8.0622    1.6348    0.0000 N   0  0  0  0  0  0  0  0  0  0  0  0
    2.3660    7.1736    0.0000 N   0  0  0  0  0  0  0  0  0  0  0  0
    3.3660    7.1736    0.0000 N   0  0  0  0  0  0  0  0  0  0  0  0
   10.6603    1.1348    0.0000 N   0  0  0  0  0  0  0  0  0  0  0  0
   11.5263   -1.3652    0.0000 N   0  0  0  0  0  0  0  0  0  0  0  0
   13.2583   -3.3652    0.0000 N   0  0  0  0  0  0  0  0  0  0  0  0
    3.7320    4.1348    0.0000 C   0  0  0  0  0  0  0  0  0  0  0  0
    4.2320    5.0008    0.0000 C   0  0  0  0  0  0  0  0  0  0  0  0
    4.7320    4.1348    0.0000 C   0  0  0  0  0  0  0  0  0  0  0  0
    2.8660    4.6348    0.0000 C   0  0  0  0  0  0  0  0  0  0  0  0
    3.7320    0.1348    0.0000 C   0  0  0  0  0  0  0  0  0  0  0  0
    4.5981    1.6348    0.0000 C   0  0  1  0  0  0  0  0  0  0  0  0
    3.7320    1.1348    0.0000 C   0  0  0  0  0  0  0  0  0  0  0  0
    4.5981    2.6348    0.0000 C   0  0  0  0  0  0  0  0  0  0  0  0
    2.8660   -0.3652    0.0000 C   0  0  0  0  0  0  0  0  0  0  0  0
    4.5981   -0.3652    0.0000 C   0  0  0  0  0  0  0  0  0  0  0  0
    2.8660   -1.3652    0.0000 C   0  0  0  0  0  0  0  0  0  0  0  0
    4.5981   -1.3652    0.0000 C   0  0  0  0  0  0  0  0  0  0  0  0
    3.7320   -1.8652    0.0000 C   0  0  0  0  0  0  0  0  0  0  0  0
    2.8660    5.6348    0.0000 C   0  0  0  0  0  0  0  0  0  0  0  0
    6.3301    1.6348    0.0000 C   0  0  0  0  0  0  0  0  0  0  0  0
    7.1962    1.1348    0.0000 C   0  0  2  0  0  0  0  0  0  0  0  0
    7.1962    0.1348    0.0000 C   0  0  2  0  0  0  0  0  0  0  0  0
    8.0622   -0.3652    0.0000 C   0  0  0  0  0  0  0  0  0  0  0  0
    6.3301   -0.3652    0.0000 C   0  0  0  0  0  0  0  0  0  0  0  0
    8.9282    1.1348    0.0000 C   0  0  0  0  0  0  0  0  0  0  0  0
    9.7942    1.6348    0.0000 C   0  0  2  0  0  0  0  0  0  0  0  0
    8.0622   -1.3652    0.0000 C   0  0  0  0  0  0  0  0  0  0  0  0
    9.7942    2.6348    0.0000 C   0  0  0  0  0  0  0  0  0  0  0  0
   10.6603    3.1348    0.0000 C   0  0  0  0  0  0  0  0  0  0  0  0
   10.6603    0.1348    0.0000 C   0  0  0  0  0  0  0  0  0  0  0  0
   10.6603    4.1348    0.0000 C   0  0  0  0  0  0  0  0  0  0  0  0
   11.5263    2.6348    0.0000 C   0  0  0  0  0  0  0  0  0  0  0  0
   11.5263   -0.3652    0.0000 C   0  0  1  0  0  0  0  0  0  0  0  0
   12.3923    0.1348    0.0000 C   0  0  0  0  0  0  0  0  0  0  0  0
   13.2583   -0.3652    0.0000 C   0  0  0  0  0  0  0  0  0  0  0  0
   12.3923   -1.8652    0.0000 C   0  0  0  0  0  0  0  0  0  0  0  0
   12.3923   -2.8652    0.0000 C   0  0  2  0  0  0  0  0  0  0  0  0
   11.5263   -3.3652    0.0000 C   0  0  0  0  0  0  0  0  0  0  0  0
   14.1244    0.1348    0.0000 C   0  0  0  0  0  0  0  0  0  0  0  0
   11.5263   -4.3652    0.0000 C   0  0  0  0  0  0  0  0  0  0  0  0
   13.2583   -4.3652    0.0000 C   0  0  0  0  0  0  0  0  0  0  0  0
   14.1244   -4.8652    0.0000 C   0  0  0  0  0  0  0  0  0  0  0  0
   10.6603   -4.8652    0.0000 C   0  0  0  0  0  0  0  0  0  0  0  0
   14.1244   -5.8652    0.0000 C   0  0  0  0  0  0  0  0  0  0  0  0
   14.9904   -6.3652    0.0000 C   0  0  0  0  0  0  0  0  0  0  0  0
    4.7070    5.3993    0.0000 H   0  0  0  0  0  0  0  0  0  0  0  0
    3.7571    5.3993    0.0000 H   0  0  0  0  0  0  0  0  0  0  0  0
    4.8397    3.5242    0.0000 H   0  0  0  0  0  0  0  0  0  0  0  0
    5.3147    4.3468    0.0000 H   0  0  0  0  0  0  0  0  0  0  0  0
    3.1951    2.8248    0.0000 H   0  0  0  0  0  0  0  0  0  0  0  0
    4.2690    0.4448    0.0000 H   0  0  0  0  0  0  0  0  0  0  0  0
    4.5981    1.0148    0.0000 H   0  0  0  0  0  0  0  0  0  0  0  0
    3.5200    1.7174    0.0000 H   0  0  0  0  0  0  0  0  0  0  0  0
    3.1215    1.0271    0.0000 H   0  0  0  0  0  0  0  0  0  0  0  0
    2.6540    0.2174    0.0000 H   0  0  0  0  0  0  0  0  0  0  0  0
    2.2554   -0.4729    0.0000 H   0  0  0  0  0  0  0  0  0  0  0  0
    5.2087   -0.4729    0.0000 H   0  0  0  0  0  0  0  0  0  0  0  0
    4.8101    0.2174    0.0000 H   0  0  0  0  0  0  0  0  0  0  0  0
    2.2554   -1.2576    0.0000 H   0  0  0  0  0  0  0  0  0  0  0  0
    2.6540   -1.9478    0.0000 H   0  0  0  0  0  0  0  0  0  0  0  0
    4.8101   -1.9478    0.0000 H   0  0  0  0  0  0  0  0  0  0  0  0
    5.2087   -1.2576    0.0000 H   0  0  0  0  0  0  0  0  0  0  0  0
    3.3335   -2.3402    0.0000 H   0  0  0  0  0  0  0  0  0  0  0  0
    4.1306   -2.3402    0.0000 H   0  0  0  0  0  0  0  0  0  0  0  0
    5.4641    0.5148    0.0000 H   0  0  0  0  0  0  0  0  0  0  0  0
    7.7331    0.8248    0.0000 H   0  0  0  0  0  0  0  0  0  0  0  0
    6.6592    0.4448    0.0000 H   0  0  0  0  0  0  0  0  0  0  0  0
    8.0622    2.2548    0.0000 H   0  0  0  0  0  0  0  0  0  0  0  0
    2.0016    7.6752    0.0000 H   0  0  0  0  0  0  0  0  0  0  0  0
    8.6728   -0.4729    0.0000 H   0  0  0  0  0  0  0  0  0  0  0  0
    8.2742    0.2174    0.0000 H   0  0  0  0  0  0  0  0  0  0  0  0
    6.0201    0.1717    0.0000 H   0  0  0  0  0  0  0  0  0  0  0  0
    5.7932   -0.6752    0.0000 H   0  0  0  0  0  0  0  0  0  0  0  0
    6.6401   -0.9022    0.0000 H   0  0  0  0  0  0  0  0  0  0  0  0
    9.7942    1.0148    0.0000 H   0  0  0  0  0  0  0  0  0  0  0  0
    7.4422   -1.3652    0.0000 H   0  0  0  0  0  0  0  0  0  0  0  0
    8.0622   -1.9852    0.0000 H   0  0  0  0  0  0  0  0  0  0  0  0
    8.6822   -1.3652    0.0000 H   0  0  0  0  0  0  0  0  0  0  0  0
    9.5822    3.2174    0.0000 H   0  0  0  0  0  0  0  0  0  0  0  0
    9.1836    2.5271    0.0000 H   0  0  0  0  0  0  0  0  0  0  0  0
   11.1972    3.4448    0.0000 H   0  0  0  0  0  0  0  0  0  0  0  0
   11.1972    1.4448    0.0000 H   0  0  0  0  0  0  0  0  0  0  0  0
   11.2803    4.1348    0.0000 H   0  0  0  0  0  0  0  0  0  0  0  0
   10.6603    4.7548    0.0000 H   0  0  0  0  0  0  0  0  0  0  0  0
   10.0403    4.1348    0.0000 H   0  0  0  0  0  0  0  0  0  0  0  0
   11.2163    2.0979    0.0000 H   0  0  0  0  0  0  0  0  0  0  0  0
   12.0632    2.3248    0.0000 H   0  0  0  0  0  0  0  0  0  0  0  0
   11.8363    3.1717    0.0000 H   0  0  0  0  0  0  0  0  0  0  0  0
   12.0632   -0.6752    0.0000 H   0  0  0  0  0  0  0  0  0  0  0  0
   12.7908    0.6097    0.0000 H   0  0  0  0  0  0  0  0  0  0  0  0
   11.9938    0.6097    0.0000 H   0  0  0  0  0  0  0  0  0  0  0  0
   10.9893   -1.6752    0.0000 H   0  0  0  0  0  0  0  0  0  0  0  0
   12.8598   -0.8402    0.0000 H   0  0  0  0  0  0  0  0  0  0  0  0
   13.6569   -0.8402    0.0000 H   0  0  0  0  0  0  0  0  0  0  0  0
   12.3923   -3.4852    0.0000 H   0  0  0  0  0  0  0  0  0  0  0  0
   11.3142   -2.7826    0.0000 H   0  0  0  0  0  0  0  0  0  0  0  0
   10.9157   -3.4729    0.0000 H   0  0  0  0  0  0  0  0  0  0  0  0
   13.7953   -3.0552    0.0000 H   0  0  0  0  0  0  0  0  0  0  0  0
   11.7383   -4.9478    0.0000 H   0  0  0  0  0  0  0  0  0  0  0  0
   12.1369   -4.2576    0.0000 H   0  0  0  0  0  0  0  0  0  0  0  0
   14.7349   -4.9729    0.0000 H   0  0  0  0  0  0  0  0  0  0  0  0
   14.3364   -4.2826    0.0000 H   0  0  0  0  0  0  0  0  0  0  0  0
   15.5273   -0.0552    0.0000 H   0  0  0  0  0  0  0  0  0  0  0  0
   13.5138   -5.7576    0.0000 H   0  0  0  0  0  0  0  0  0  0  0  0
   13.9123   -6.4478    0.0000 H   0  0  0  0  0  0  0  0  0  0  0  0
   10.1233   -6.1752    0.0000 H   0  0  0  0  0  0  0  0  0  0  0  0
   15.5273   -7.6752    0.0000 H   0  0  0  0  0  0  0  0  0  0  0  0
  1 27  2  0  0  0  0
  2 31  2  0  0  0  0
  3 38  2  0  0  0  0
  4 43  2  0  0  0  0
  5 48  2  0  0  0  0
  6 54  2  0  0  0  0
  7 57  1  0  0  0  0
  7121  1  0  0  0  0
  8 57  2  0  0  0  0
  9 59  2  0  0  0  0
 10 61  1  0  0  0  0
 10124  1  0  0  0  0
 11 61  2  0  0  0  0
 12 63  1  0  0  0  0
 12125  1  0  0  0  0
 13 63  2  0  0  0  0
 14 24  1  0  0  0  0
 14 31  1  0  0  0  0
 14 68  1  0  0  0  0
 29 15  1  1  0  0  0
 15 38  1  0  0  0  0
 15 83  1  0  0  0  0
 16 19  1  0  0  0  0
 16 37  2  0  0  0  0
 17 20  2  0  0  0  0
 17 37  1  0  0  0  0
 39 18  1  1  0  0  0
 18 43  1  0  0  0  0
 18 86  1  0  0  0  0
 19 20  1  0  0  0  0
 19 87  1  0  0  0  0
 44 21  1  6  0  0  0
 21 48  1  0  0  0  0
 21100  1  0  0  0  0
 51 22  1  1  0  0  0
 22 54  1  0  0  0  0
 22110  1  0  0  0  0
 55 23  1  1  0  0  0
 23 59  1  0  0  0  0
 23116  1  0  0  0  0
 24 25  1  0  0  0  0
 24 26  1  0  0  0  0
 24 27  1  0  0  0  0
 25 26  1  0  0  0  0
 25 64  1  0  0  0  0
 25 65  1  0  0  0  0
 26 66  1  0  0  0  0
 26 67  1  0  0  0  0
 27 37  1  0  0  0  0
 28 30  1  0  0  0  0
 28 32  1  0  0  0  0
 28 33  1  0  0  0  0
 28 69  1  0  0  0  0
 29 30  1  0  0  0  0
 29 31  1  0  0  0  0
 29 70  1  0  0  0  0
 30 71  1  0  0  0  0
 30 72  1  0  0  0  0
 32 34  1  0  0  0  0
 32 73  1  0  0  0  0
 32 74  1  0  0  0  0
 33 35  1  0  0  0  0
 33 75  1  0  0  0  0
 33 76  1  0  0  0  0
 34 36  1  0  0  0  0
 34 77  1  0  0  0  0
 34 78  1  0  0  0  0
 35 36  1  0  0  0  0
 35 79  1  0  0  0  0
 35 80  1  0  0  0  0
 36 81  1  0  0  0  0
 36 82  1  0  0  0  0
 38 39  1  0  0  0  0
 39 40  1  0  0  0  0
 39 84  1  0  0  0  0
 40 41  1  0  0  0  0
 40 42  1  6  0  0  0
 40 85  1  0  0  0  0
 41 45  1  0  0  0  0
 41 88  1  0  0  0  0
 41 89  1  0  0  0  0
 42 90  1  0  0  0  0
 42 91  1  0  0  0  0
 42 92  1  0  0  0  0
 43 44  1  0  0  0  0
 44 46  1  0  0  0  0
 44 93  1  0  0  0  0
 45 94  1  0  0  0  0
 45 95  1  0  0  0  0
 45 96  1  0  0  0  0
 46 47  1  0  0  0  0
 46 97  1  0  0  0  0
 46 98  1  0  0  0  0
 47 49  1  0  0  0  0
 47 50  1  0  0  0  0
 47 99  1  0  0  0  0
 48 51  1  0  0  0  0
 49101  1  0  0  0  0
 49102  1  0  0  0  0
 49103  1  0  0  0  0
 50104  1  0  0  0  0
 50105  1  0  0  0  0
 50106  1  0  0  0  0
 51 52  1  0  0  0  0
 51107  1  0  0  0  0
 52 53  1  0  0  0  0
 52108  1  0  0  0  0
 52109  1  0  0  0  0
 53 57  1  0  0  0  0
 53111  1  0  0  0  0
 53112  1  0  0  0  0
 54 55  1  0  0  0  0
 55 56  1  0  0  0  0
 55113  1  0  0  0  0
 56 58  1  0  0  0  0
 56114  1  0  0  0  0
 56115  1  0  0  0  0
 58 61  1  0  0  0  0
 58117  1  0  0  0  0
 58118  1  0  0  0  0
 59 60  1  0  0  0  0
 60 62  1  0  0  0  0
 60119  1  0  0  0  0
 60120  1  0  0  0  0
 62 63  1  0  0  0  0
 62122  1  0  0  0  0
 62123  1  0  0  0  0
M  END
> <PUBCHEM_COMPOUND_CID>
507066
> <PUBCHEM_COMPOUND_CANONICALIZED>
1
> <PUBCHEM_CACTVS_COMPLEXITY>
1670
> <PUBCHEM_CACTVS_HBOND_ACCEPTOR>
16
> <PUBCHEM_CACTVS_HBOND_DONOR>
10
> <PUBCHEM_CACTVS_ROTATABLE_BOND>
28
> <PUBCHEM_CACTVS_SUBSKEYS>
AAADcfB//AAAAAAAAAAAAAAAGAAAAWAAAAAwAAAAAAAAAAABgAAAHgAYCAAADazBgwQDGAbCAgAqAIOwOAAAAAICAAAUIIGoAAAAQBIAwCAUQAAEFgCAAAG/n4KOAAAAAAAAAAAAAAAAAAAAAAAAAAAAAA==
> <PUBCHEM_IUPAC_OPENEYE_NAME>
(4S)-5-[[(1R)-3-carboxy-1-[[(1S)-1-[[(1S,2S)-1-[[(1S)-1-(cyclohexylmethyl)-2-oxo-2-[[1-(2H-tetrazole-5-carbonyl)cyclopropyl]amino]ethyl]carbamoyl]-2-methyl-butyl]carbamoyl]-3-methyl-butyl]carbamoyl]propyl]amino]-4-(3-carboxypropanoylamino)-5-oxo-pentanoic acid
> <PUBCHEM_IUPAC_CAS_NAME>
(4S)-5-[[(2R)-4-carboxy-1-[[(2S)-1-[[(2S,3S)-1-[[(2S)-3-cyclohexyl-1-oxo-1-[[1-[oxo(2H-tetrazol-5-yl)methyl]cyclopropyl]amino]propan-2-yl]amino]-3-methyl-1-oxopentan-2-yl]amino]-4-methyl-1-oxopentan-2-yl]amino]-1-oxobutan-2-yl]amino]-4-[(3-carboxy-1-oxopropyl)amino]-5-oxopentanoic acid
> <PUBCHEM_IUPAC_NAME_MARKUP>
(4<I>S</I>)-5-[[(2<I>R</I>)-4-carboxy-1-[[(2<I>S</I>)-1-[[(2<I>S</I>,3<I>S</I>)-1-[[(2<I>S</I>)-3-cyclohexyl-1-oxo-1-[[1-(2<I>H</I>-tetrazole-5-carbonyl)cyclopropyl]amino]propan-2-yl]amino]-3-methyl-1-oxopentan-2-yl]amino]-4-methyl-1-oxopentan-2-yl]amino]-1-oxobutan-2-yl]amino]-4-(3-carboxypropanoylamino)-5-oxopentanoic acid
> <PUBCHEM_IUPAC_NAME>
(4S)-5-[[(2R)-4-carboxy-1-[[(2S)-1-[[(2S,3S)-1-[[(2S)-3-cyclohexyl-1-oxo-1-[[1-(2H-tetrazole-5-carbonyl)cyclopropyl]amino]propan-2-yl]amino]-3-methyl-1-oxopentan-2-yl]amino]-4-methyl-1-oxopentan-2-yl]amino]-1-oxobutan-2-yl]amino]-4-(3-carboxypropanoylamino)-5-oxopentanoic acid
> <PUBCHEM_IUPAC_SYSTEMATIC_NAME>
(4S)-5-[[(2R)-1-[[(2S)-1-[[(2S,3S)-1-[[(2S)-3-cyclohexyl-1-oxidanylidene-1-[[1-(2H-1,2,3,4-tetrazol-5-ylcarbonyl)cyclopropyl]amino]propan-2-yl]amino]-3-methyl-1-oxidanylidene-pentan-2-yl]amino]-4-methyl-1-oxidanylidene-pentan-2-yl]amino]-5-oxidanyl-1,5-bis(oxidanylidene)pentan-2-yl]amino]-5-oxidanylidene-4-[(4-oxidanyl-4-oxidanylidene-butanoyl)amino]pentanoic acid
> <PUBCHEM_IUPAC_TRADITIONAL_NAME>
(4S)-5-[[(1R)-3-carboxy-1-[[(1S)-1-[[(1S,2S)-1-[[(1S)-1-(cyclohexylmethyl)-2-keto-2-[[1-(2H-tetrazole-5-carbonyl)cyclopropyl]amino]ethyl]carbamoyl]-2-methyl-butyl]carbamoyl]-3-methyl-butyl]carbamoyl]propyl]amino]-4-(3-carboxypropanoylamino)-5-keto-valeric acid
> <PUBCHEM_IUPAC_INCHI>
InChI=1S/C40H62N10O13/c1-5-22(4)32(39(63)44-27(20-23-9-7-6-8-10-23)38(62)46-40(17-18-40)33(58)34-47-49-50-48-34)45-37(61)26(19-21(2)3)43-36(60)25(12-15-30(54)55)42-35(59)24(11-14-29(52)53)41-28(51)13-16-31(56)57/h21-27,32H,5-20H2,1-4H3,(H,41,51)(H,42,59)(H,43,60)(H,44,63)(H,45,61)(H,46,62)(H,52,53)(H,54,55)(H,56,57)(H,47,48,49,50)/t22-,24-,25+,26-,27-,32-/m0/s1
> <PUBCHEM_IUPAC_INCHIKEY>
UFJXINSNODDJHG-UWIAJDIOSA-N
> <PUBCHEM_XLOGP3_AA>
1.7
> <PUBCHEM_EXACT_MASS>
890.44978207
> <PUBCHEM_MOLECULAR_FORMULA>
C40H62N10O13
> <PUBCHEM_MOLECULAR_WEIGHT>
891.0
> <PUBCHEM_OPENEYE_CAN_SMILES>
CCC(C)C(C(=O)NC(CC1CCCCC1)C(=O)NC2(CC2)C(=O)C3=NNN=N3)NC(=O)C(CC(C)C)NC(=O)C(CCC(=O)O)NC(=O)C(CCC(=O)O)NC(=O)CCC(=O)O
> <PUBCHEM_OPENEYE_ISO_SMILES>
CC[C@H](C)[C@@H](C(=O)N[C@@H](CC1CCCCC1)C(=O)NC2(CC2)C(=O)C3=NNN=N3)NC(=O)[C@H](CC(C)C)NC(=O)[C@@H](CCC(=O)O)NC(=O)[C@H](CCC(=O)O)NC(=O)CCC(=O)O
> <PUBCHEM_CACTVS_TPSA>
358
> <PUBCHEM_MONOISOTOPIC_WEIGHT>
890.44978207
> <PUBCHEM_TOTAL_CHARGE>
0
> <PUBCHEM_HEAVY_ATOM_COUNT>
63
> <PUBCHEM_ATOM_DEF_STEREO_COUNT>
6
> <PUBCHEM_ATOM_UDEF_STEREO_COUNT>
0
> <PUBCHEM_BOND_DEF_STEREO_COUNT>
0
> <PUBCHEM_BOND_UDEF_STEREO_COUNT>
0
> <PUBCHEM_ISOTOPIC_ATOM_COUNT>
0
> <PUBCHEM_COMPONENT_COUNT>
1
> <PUBCHEM_CACTVS_TAUTO_COUNT>
-1
> <PUBCHEM_COORDINATE_TYPE>
1
5
255
> <PUBCHEM_BONDANNOTATIONS>
29  15  5
16  19  8
16  37  8
17  20  8
17  37  8
39  18  5
19  20  8
44  21  6
51  22  5
55  23  5
40  42  6
$$$$
