507052
  -OEChem-10302200282D
105105  0     1  0  0  0  0  0999 V2000
   10.6603   -6.1550    0.0000 S   0  0  0  0  0  0  0  0  0  0  0  0
    8.0622   -5.6550    0.0000 O   0  0  0  0  0  0  0  0  0  0  0  0
    5.4641   -3.1550    0.0000 O   0  0  0  0  0  0  0  0  0  0  0  0
    6.3301    0.3450    0.0000 O   0  0  0  0  0  0  0  0  0  0  0  0
   11.5263   -4.6550    0.0000 O   0  0  0  0  0  0  0  0  0  0  0  0
   10.6603   -3.1550    0.0000 O   0  0  0  0  0  0  0  0  0  0  0  0
    6.3301    1.3450    0.0000 O   0  0  0  0  0  0  0  0  0  0  0  0
    5.4641    4.8450    0.0000 O   0  0  0  0  0  0  0  0  0  0  0  0
    3.7320    5.8450    0.0000 O   0  0  0  0  0  0  0  0  0  0  0  0
    2.8660    4.3450    0.0000 O   0  0  0  0  0  0  0  0  0  0  0  0
    8.0622    7.3450    0.0000 O   0  0  0  0  0  0  0  0  0  0  0  0
    8.9282    5.8450    0.0000 O   0  0  0  0  0  0  0  0  0  0  0  0
    7.1962   -3.1550    0.0000 N   0  0  0  0  0  0  0  0  0  0  0  0
    8.9282   -4.1550    0.0000 N   0  0  0  0  0  0  0  0  0  0  0  0
    5.4641   -1.1550    0.0000 N   0  0  0  0  0  0  0  0  0  0  0  0
    4.5981    1.3450    0.0000 N   0  0  0  0  0  0  0  0  0  0  0  0
    6.3301    3.3450    0.0000 N   0  0  0  0  0  0  0  0  0  0  0  0
    6.3301   -5.6550    0.0000 C   0  0  0  0  0  0  0  0  0  0  0  0
    5.4641   -6.1550    0.0000 C   0  0  0  0  0  0  0  0  0  0  0  0
    7.1962   -6.1550    0.0000 C   0  0  0  0  0  0  0  0  0  0  0  0
    6.3301   -4.6550    0.0000 C   0  0  0  0  0  0  0  0  0  0  0  0
    5.4641   -7.1550    0.0000 C   0  0  0  0  0  0  0  0  0  0  0  0
    7.1962   -7.1550    0.0000 C   0  0  0  0  0  0  0  0  0  0  0  0
    6.3301   -7.6550    0.0000 C   0  0  0  0  0  0  0  0  0  0  0  0
    7.1962   -4.1550    0.0000 C   0  0  1  0  0  0  0  0  0  0  0  0
    8.0622   -4.6550    0.0000 C   0  0  0  0  0  0  0  0  0  0  0  0
    6.3301   -1.6550    0.0000 C   0  0  2  0  0  0  0  0  0  0  0  0
    6.3301   -2.6550    0.0000 C   0  0  0  0  0  0  0  0  0  0  0  0
    7.1962   -1.1550    0.0000 C   0  0  2  0  0  0  0  0  0  0  0  0
    7.1962   -0.1550    0.0000 C   0  0  0  0  0  0  0  0  0  0  0  0
    8.0622   -1.6550    0.0000 C   0  0  0  0  0  0  0  0  0  0  0  0
    4.5981    0.3450    0.0000 C   0  0  2  0  0  0  0  0  0  0  0  0
    9.7942   -4.6550    0.0000 C   0  0  1  0  0  0  0  0  0  0  0  0
    5.4641   -0.1550    0.0000 C   0  0  0  0  0  0  0  0  0  0  0  0
    3.7320   -0.1550    0.0000 C   0  0  0  0  0  0  0  0  0  0  0  0
    2.8660    0.3450    0.0000 C   0  0  0  0  0  0  0  0  0  0  0  0
    8.0622    0.3450    0.0000 C   0  0  0  0  0  0  0  0  0  0  0  0
    9.7942   -5.6550    0.0000 C   0  0  0  0  0  0  0  0  0  0  0  0
   10.6603   -4.1550    0.0000 C   0  0  0  0  0  0  0  0  0  0  0  0
    2.0000   -0.1550    0.0000 C   0  0  0  0  0  0  0  0  0  0  0  0
    2.8660    1.3450    0.0000 C   0  0  0  0  0  0  0  0  0  0  0  0
    5.4641    1.8450    0.0000 C   0  0  0  0  0  0  0  0  0  0  0  0
    5.4641    2.8450    0.0000 C   0  0  1  0  0  0  0  0  0  0  0  0
    4.5981    3.3450    0.0000 C   0  0  0  0  0  0  0  0  0  0  0  0
    4.5981    4.3450    0.0000 C   0  0  0  0  0  0  0  0  0  0  0  0
    6.3301    4.3450    0.0000 C   0  0  0  0  0  0  0  0  0  0  0  0
    7.1962    4.8450    0.0000 C   0  0  0  0  0  0  0  0  0  0  0  0
    3.7320    4.8450    0.0000 C   0  0  0  0  0  0  0  0  0  0  0  0
    7.1962    5.8450    0.0000 C   0  0  0  0  0  0  0  0  0  0  0  0
    8.0622    6.3450    0.0000 C   0  0  0  0  0  0  0  0  0  0  0  0
    6.8671   -5.3450    0.0000 H   0  0  0  0  0  0  0  0  0  0  0  0
    5.2520   -5.5724    0.0000 H   0  0  0  0  0  0  0  0  0  0  0  0
    4.8535   -6.2627    0.0000 H   0  0  0  0  0  0  0  0  0  0  0  0
    7.8067   -6.2627    0.0000 H   0  0  0  0  0  0  0  0  0  0  0  0
    7.4082   -5.5724    0.0000 H   0  0  0  0  0  0  0  0  0  0  0  0
    6.1181   -4.0724    0.0000 H   0  0  0  0  0  0  0  0  0  0  0  0
    5.7196   -4.7627    0.0000 H   0  0  0  0  0  0  0  0  0  0  0  0
    4.8535   -7.0473    0.0000 H   0  0  0  0  0  0  0  0  0  0  0  0
    5.2520   -7.7376    0.0000 H   0  0  0  0  0  0  0  0  0  0  0  0
    7.4082   -7.7376    0.0000 H   0  0  0  0  0  0  0  0  0  0  0  0
    7.8067   -7.0473    0.0000 H   0  0  0  0  0  0  0  0  0  0  0  0
    5.9316   -8.1299    0.0000 H   0  0  0  0  0  0  0  0  0  0  0  0
    6.7287   -8.1299    0.0000 H   0  0  0  0  0  0  0  0  0  0  0  0
    6.6592   -3.8450    0.0000 H   0  0  0  0  0  0  0  0  0  0  0  0
    7.7331   -2.8450    0.0000 H   0  0  0  0  0  0  0  0  0  0  0  0
    5.7932   -1.9650    0.0000 H   0  0  0  0  0  0  0  0  0  0  0  0
    7.7331   -0.8450    0.0000 H   0  0  0  0  0  0  0  0  0  0  0  0
    8.9282   -3.5350    0.0000 H   0  0  0  0  0  0  0  0  0  0  0  0
    6.9841    0.4276    0.0000 H   0  0  0  0  0  0  0  0  0  0  0  0
    6.5856   -0.2627    0.0000 H   0  0  0  0  0  0  0  0  0  0  0  0
    4.9272   -1.4650    0.0000 H   0  0  0  0  0  0  0  0  0  0  0  0
    7.7522   -2.1919    0.0000 H   0  0  0  0  0  0  0  0  0  0  0  0
    8.5991   -1.9650    0.0000 H   0  0  0  0  0  0  0  0  0  0  0  0
    8.3722   -1.1181    0.0000 H   0  0  0  0  0  0  0  0  0  0  0  0
    5.1350    0.6550    0.0000 H   0  0  0  0  0  0  0  0  0  0  0  0
    9.2573   -4.9650    0.0000 H   0  0  0  0  0  0  0  0  0  0  0  0
    3.3335   -0.6299    0.0000 H   0  0  0  0  0  0  0  0  0  0  0  0
    4.1306   -0.6299    0.0000 H   0  0  0  0  0  0  0  0  0  0  0  0
    2.8660   -0.2750    0.0000 H   0  0  0  0  0  0  0  0  0  0  0  0
    8.3722   -0.1919    0.0000 H   0  0  0  0  0  0  0  0  0  0  0  0
    8.5991    0.6550    0.0000 H   0  0  0  0  0  0  0  0  0  0  0  0
    7.7522    0.8819    0.0000 H   0  0  0  0  0  0  0  0  0  0  0  0
    4.0611    1.6550    0.0000 H   0  0  0  0  0  0  0  0  0  0  0  0
    9.1836   -5.5473    0.0000 H   0  0  0  0  0  0  0  0  0  0  0  0
    9.5822   -6.2376    0.0000 H   0  0  0  0  0  0  0  0  0  0  0  0
    1.6900    0.3819    0.0000 H   0  0  0  0  0  0  0  0  0  0  0  0
    1.4631   -0.4650    0.0000 H   0  0  0  0  0  0  0  0  0  0  0  0
    2.3100   -0.6919    0.0000 H   0  0  0  0  0  0  0  0  0  0  0  0
    3.4860    1.3450    0.0000 H   0  0  0  0  0  0  0  0  0  0  0  0
    2.8660    1.9650    0.0000 H   0  0  0  0  0  0  0  0  0  0  0  0
    2.2460    1.3450    0.0000 H   0  0  0  0  0  0  0  0  0  0  0  0
    5.4641    3.4650    0.0000 H   0  0  0  0  0  0  0  0  0  0  0  0
    3.9875    3.4527    0.0000 H   0  0  0  0  0  0  0  0  0  0  0  0
    4.3860    2.7624    0.0000 H   0  0  0  0  0  0  0  0  0  0  0  0
   10.6603   -6.7750    0.0000 H   0  0  0  0  0  0  0  0  0  0  0  0
    6.8671    3.0350    0.0000 H   0  0  0  0  0  0  0  0  0  0  0  0
    5.2087    4.2373    0.0000 H   0  0  0  0  0  0  0  0  0  0  0  0
    4.8101    4.9276    0.0000 H   0  0  0  0  0  0  0  0  0  0  0  0
   12.0632   -4.3450    0.0000 H   0  0  0  0  0  0  0  0  0  0  0  0
    7.4082    4.2624    0.0000 H   0  0  0  0  0  0  0  0  0  0  0  0
    7.8067    4.9527    0.0000 H   0  0  0  0  0  0  0  0  0  0  0  0
    6.9841    6.4276    0.0000 H   0  0  0  0  0  0  0  0  0  0  0  0
    6.5856    5.7373    0.0000 H   0  0  0  0  0  0  0  0  0  0  0  0
    3.1951    6.1550    0.0000 H   0  0  0  0  0  0  0  0  0  0  0  0
    8.5991    7.6550    0.0000 H   0  0  0  0  0  0  0  0  0  0  0  0
  1 38  1  0  0  0  0
  1 95  1  0  0  0  0
  2 26  2  0  0  0  0
  3 28  2  0  0  0  0
  4 34  2  0  0  0  0
  5 39  1  0  0  0  0
  5 99  1  0  0  0  0
  6 39  2  0  0  0  0
  7 42  2  0  0  0  0
  8 46  2  0  0  0  0
  9 48  1  0  0  0  0
  9104  1  0  0  0  0
 10 48  2  0  0  0  0
 11 50  1  0  0  0  0
 11105  1  0  0  0  0
 12 50  2  0  0  0  0
 25 13  1  6  0  0  0
 13 28  1  0  0  0  0
 13 65  1  0  0  0  0
 14 26  1  0  0  0  0
 33 14  1  6  0  0  0
 14 68  1  0  0  0  0
 27 15  1  1  0  0  0
 15 34  1  0  0  0  0
 15 71  1  0  0  0  0
 32 16  1  6  0  0  0
 16 42  1  0  0  0  0
 16 83  1  0  0  0  0
 43 17  1  1  0  0  0
 17 46  1  0  0  0  0
 17 96  1  0  0  0  0
 18 19  1  0  0  0  0
 18 20  1  0  0  0  0
 18 21  1  0  0  0  0
 18 51  1  0  0  0  0
 19 22  1  0  0  0  0
 19 52  1  0  0  0  0
 19 53  1  0  0  0  0
 20 23  1  0  0  0  0
 20 54  1  0  0  0  0
 20 55  1  0  0  0  0
 21 25  1  0  0  0  0
 21 56  1  0  0  0  0
 21 57  1  0  0  0  0
 22 24  1  0  0  0  0
 22 58  1  0  0  0  0
 22 59  1  0  0  0  0
 23 24  1  0  0  0  0
 23 60  1  0  0  0  0
 23 61  1  0  0  0  0
 24 62  1  0  0  0  0
 24 63  1  0  0  0  0
 25 26  1  0  0  0  0
 25 64  1  0  0  0  0
 27 28  1  0  0  0  0
 27 29  1  0  0  0  0
 27 66  1  0  0  0  0
 29 30  1  0  0  0  0
 29 31  1  6  0  0  0
 29 67  1  0  0  0  0
 30 37  1  0  0  0  0
 30 69  1  0  0  0  0
 30 70  1  0  0  0  0
 31 72  1  0  0  0  0
 31 73  1  0  0  0  0
 31 74  1  0  0  0  0
 32 34  1  0  0  0  0
 32 35  1  0  0  0  0
 32 75  1  0  0  0  0
 33 38  1  0  0  0  0
 33 39  1  0  0  0  0
 33 76  1  0  0  0  0
 35 36  1  0  0  0  0
 35 77  1  0  0  0  0
 35 78  1  0  0  0  0
 36 40  1  0  0  0  0
 36 41  1  0  0  0  0
 36 79  1  0  0  0  0
 37 80  1  0  0  0  0
 37 81  1  0  0  0  0
 37 82  1  0  0  0  0
 38 84  1  0  0  0  0
 38 85  1  0  0  0  0
 40 86  1  0  0  0  0
 40 87  1  0  0  0  0
 40 88  1  0  0  0  0
 41 89  1  0  0  0  0
 41 90  1  0  0  0  0
 41 91  1  0  0  0  0
 42 43  1  0  0  0  0
 43 44  1  0  0  0  0
 43 92  1  0  0  0  0
 44 45  1  0  0  0  0
 44 93  1  0  0  0  0
 44 94  1  0  0  0  0
 45 48  1  0  0  0  0
 45 97  1  0  0  0  0
 45 98  1  0  0  0  0
 46 47  1  0  0  0  0
 47 49  1  0  0  0  0
 47100  1  0  0  0  0
 47101  1  0  0  0  0
 49 50  1  0  0  0  0
 49102  1  0  0  0  0
 49103  1  0  0  0  0
M  END
> <PUBCHEM_COMPOUND_CID>
507052
> <PUBCHEM_COMPOUND_CANONICALIZED>
1
> <PUBCHEM_CACTVS_COMPLEXITY>
1190
> <PUBCHEM_CACTVS_HBOND_ACCEPTOR>
12
> <PUBCHEM_CACTVS_HBOND_DONOR>
9
> <PUBCHEM_CACTVS_ROTATABLE_BOND>
23
> <PUBCHEM_CACTVS_SUBSKEYS>
AAADcfB/vABAAAAAAAAAAAAAAAAAAAAAAAAwAAAAAAAAAAAAAAAAHgQQCAAADSjFwASCCALAAgQIAAGQGAAAAAAAAAAAAIGIAAACQBIAgCAUQAAEFgCQAAG/n4KOAAAAAAAAAAAAAAAAAAAAAAAAAAAAAA==
> <PUBCHEM_IUPAC_OPENEYE_NAME>
(4R)-4-(3-carboxypropanoylamino)-5-[[(1S)-1-[[(1S,2S)-1-[[(1S)-2-[[(1R)-1-carboxy-2-sulfanyl-ethyl]amino]-1-(cyclohexylmethyl)-2-oxo-ethyl]carbamoyl]-2-methyl-butyl]carbamoyl]-3-methyl-butyl]amino]-5-oxo-pentanoic acid
> <PUBCHEM_IUPAC_CAS_NAME>
(4R)-5-[[(2S)-1-[[(2S,3S)-1-[[(2S)-1-[[(1R)-1-carboxy-2-mercaptoethyl]amino]-3-cyclohexyl-1-oxopropan-2-yl]amino]-3-methyl-1-oxopentan-2-yl]amino]-4-methyl-1-oxopentan-2-yl]amino]-4-[(3-carboxy-1-oxopropyl)amino]-5-oxopentanoic acid
> <PUBCHEM_IUPAC_NAME_MARKUP>
(4<I>R</I>)-4-(3-carboxypropanoylamino)-5-[[(2<I>S</I>)-1-[[(2<I>S</I>,3<I>S</I>)-1-[[(2<I>S</I>)-1-[[(1<I>R</I>)-1-carboxy-2-sulfanylethyl]amino]-3-cyclohexyl-1-oxopropan-2-yl]amino]-3-methyl-1-oxopentan-2-yl]amino]-4-methyl-1-oxopentan-2-yl]amino]-5-oxopentanoic acid
> <PUBCHEM_IUPAC_NAME>
(4R)-4-(3-carboxypropanoylamino)-5-[[(2S)-1-[[(2S,3S)-1-[[(2S)-1-[[(1R)-1-carboxy-2-sulfanylethyl]amino]-3-cyclohexyl-1-oxopropan-2-yl]amino]-3-methyl-1-oxopentan-2-yl]amino]-4-methyl-1-oxopentan-2-yl]amino]-5-oxopentanoic acid
> <PUBCHEM_IUPAC_SYSTEMATIC_NAME>
(4R)-5-[[(2S)-1-[[(2S,3S)-1-[[(2S)-3-cyclohexyl-1-oxidanylidene-1-[[(2R)-1-oxidanyl-1-oxidanylidene-3-sulfanyl-propan-2-yl]amino]propan-2-yl]amino]-3-methyl-1-oxidanylidene-pentan-2-yl]amino]-4-methyl-1-oxidanylidene-pentan-2-yl]amino]-5-oxidanylidene-4-[(4-oxidanyl-4-oxidanylidene-butanoyl)amino]pentanoic acid
> <PUBCHEM_IUPAC_TRADITIONAL_NAME>
(4R)-5-[[(1S)-1-[[(1S,2S)-1-[[(1S)-2-[[(1R)-1-carboxy-2-mercapto-ethyl]amino]-1-(cyclohexylmethyl)-2-keto-ethyl]carbamoyl]-2-methyl-butyl]carbamoyl]-3-methyl-butyl]amino]-4-(3-carboxypropanoylamino)-5-keto-valeric acid
> <PUBCHEM_IUPAC_INCHI>
InChI=1S/C33H55N5O11S/c1-5-19(4)28(32(47)36-23(16-20-9-7-6-8-10-20)30(45)37-24(17-50)33(48)49)38-31(46)22(15-18(2)3)35-29(44)21(11-13-26(40)41)34-25(39)12-14-27(42)43/h18-24,28,50H,5-17H2,1-4H3,(H,34,39)(H,35,44)(H,36,47)(H,37,45)(H,38,46)(H,40,41)(H,42,43)(H,48,49)/t19-,21+,22-,23-,24-,28-/m0/s1
> <PUBCHEM_IUPAC_INCHIKEY>
ILHRVTVXNAQTQO-KUOHLNQPSA-N
> <PUBCHEM_XLOGP3_AA>
2.7
> <PUBCHEM_EXACT_MASS>
729.36187876
> <PUBCHEM_MOLECULAR_FORMULA>
C33H55N5O11S
> <PUBCHEM_MOLECULAR_WEIGHT>
729.9
> <PUBCHEM_OPENEYE_CAN_SMILES>
CCC(C)C(C(=O)NC(CC1CCCCC1)C(=O)NC(CS)C(=O)O)NC(=O)C(CC(C)C)NC(=O)C(CCC(=O)O)NC(=O)CCC(=O)O
> <PUBCHEM_OPENEYE_ISO_SMILES>
CC[C@H](C)[C@@H](C(=O)N[C@@H](CC1CCCCC1)C(=O)N[C@@H](CS)C(=O)O)NC(=O)[C@H](CC(C)C)NC(=O)[C@@H](CCC(=O)O)NC(=O)CCC(=O)O
> <PUBCHEM_CACTVS_TPSA>
258
> <PUBCHEM_MONOISOTOPIC_WEIGHT>
729.36187876
> <PUBCHEM_TOTAL_CHARGE>
0
> <PUBCHEM_HEAVY_ATOM_COUNT>
50
> <PUBCHEM_ATOM_DEF_STEREO_COUNT>
6
> <PUBCHEM_ATOM_UDEF_STEREO_COUNT>
0
> <PUBCHEM_BOND_DEF_STEREO_COUNT>
0
> <PUBCHEM_BOND_UDEF_STEREO_COUNT>
0
> <PUBCHEM_ISOTOPIC_ATOM_COUNT>
0
> <PUBCHEM_COMPONENT_COUNT>
1
> <PUBCHEM_CACTVS_TAUTO_COUNT>
-1
> <PUBCHEM_COORDINATE_TYPE>
1
5
255
> <PUBCHEM_BONDANNOTATIONS>
25  13  6
33  14  6
27  15  5
32  16  6
43  17  5
29  31  6
$$$$
