507062
  -OEChem-10302200282D
131131  0     1  0  0  0  0  0999 V2000
   12.0263   -4.9440    0.0000 F   0  0  0  0  0  0  0  0  0  0  0  0
   11.0263   -6.6760    0.0000 F   0  0  0  0  0  0  0  0  0  0  0  0
   13.2583   -6.8100    0.0000 F   0  0  0  0  0  0  0  0  0  0  0  0
   12.8923   -5.4440    0.0000 F   0  0  0  0  0  0  0  0  0  0  0  0
   11.8923   -7.1760    0.0000 F   0  0  0  0  0  0  0  0  0  0  0  0
    8.0622   -6.8100    0.0000 O   0  0  0  0  0  0  0  0  0  0  0  0
    5.4641   -4.3100    0.0000 O   0  0  0  0  0  0  0  0  0  0  0  0
    6.3301   -0.8100    0.0000 O   0  0  0  0  0  0  0  0  0  0  0  0
   10.6603   -4.3100    0.0000 O   0  0  0  0  0  0  0  0  0  0  0  0
    6.3301    0.1900    0.0000 O   0  0  0  0  0  0  0  0  0  0  0  0
    5.4641    3.6900    0.0000 O   0  0  0  0  0  0  0  0  0  0  0  0
    3.7320    4.6900    0.0000 O   0  0  0  0  0  0  0  0  0  0  0  0
    2.8660    3.1900    0.0000 O   0  0  0  0  0  0  0  0  0  0  0  0
    8.9282    4.6900    0.0000 O   0  0  0  0  0  0  0  0  0  0  0  0
   10.6603    3.6900    0.0000 O   0  0  0  0  0  0  0  0  0  0  0  0
    9.7942    2.1900    0.0000 O   0  0  0  0  0  0  0  0  0  0  0  0
    9.7942    8.1900    0.0000 O   0  0  0  0  0  0  0  0  0  0  0  0
    8.0622    8.1900    0.0000 O   0  0  0  0  0  0  0  0  0  0  0  0
    7.1962   -4.3100    0.0000 N   0  0  0  0  0  0  0  0  0  0  0  0
    8.9282   -5.3100    0.0000 N   0  0  0  0  0  0  0  0  0  0  0  0
    5.4641   -2.3100    0.0000 N   0  0  0  0  0  0  0  0  0  0  0  0
    4.5981    0.1900    0.0000 N   0  0  0  0  0  0  0  0  0  0  0  0
    6.3301    2.1900    0.0000 N   0  0  0  0  0  0  0  0  0  0  0  0
    7.1962    4.6900    0.0000 N   0  0  0  0  0  0  0  0  0  0  0  0
    6.3301   -6.8100    0.0000 C   0  0  0  0  0  0  0  0  0  0  0  0
    5.4641   -7.3100    0.0000 C   0  0  0  0  0  0  0  0  0  0  0  0
    7.1962   -7.3100    0.0000 C   0  0  0  0  0  0  0  0  0  0  0  0
    6.3301   -5.8100    0.0000 C   0  0  0  0  0  0  0  0  0  0  0  0
    5.4641   -8.3100    0.0000 C   0  0  0  0  0  0  0  0  0  0  0  0
    7.1962   -8.3100    0.0000 C   0  0  0  0  0  0  0  0  0  0  0  0
    6.3301   -8.8100    0.0000 C   0  0  0  0  0  0  0  0  0  0  0  0
    7.1962   -5.3100    0.0000 C   0  0  1  0  0  0  0  0  0  0  0  0
    8.0622   -5.8100    0.0000 C   0  0  0  0  0  0  0  0  0  0  0  0
    6.3301   -2.8100    0.0000 C   0  0  2  0  0  0  0  0  0  0  0  0
    6.3301   -3.8100    0.0000 C   0  0  0  0  0  0  0  0  0  0  0  0
    7.1962   -2.3100    0.0000 C   0  0  2  0  0  0  0  0  0  0  0  0
    9.7942   -5.8100    0.0000 C   0  0  3  0  0  0  0  0  0  0  0  0
    7.1962   -1.3100    0.0000 C   0  0  0  0  0  0  0  0  0  0  0  0
    8.0622   -2.8100    0.0000 C   0  0  0  0  0  0  0  0  0  0  0  0
    9.7942   -6.8100    0.0000 C   0  0  0  0  0  0  0  0  0  0  0  0
    4.5981   -0.8100    0.0000 C   0  0  2  0  0  0  0  0  0  0  0  0
    5.4641   -1.3100    0.0000 C   0  0  0  0  0  0  0  0  0  0  0  0
   10.6603   -5.3100    0.0000 C   0  0  0  0  0  0  0  0  0  0  0  0
    3.7320   -1.3100    0.0000 C   0  0  0  0  0  0  0  0  0  0  0  0
    8.0622   -0.8100    0.0000 C   0  0  0  0  0  0  0  0  0  0  0  0
   10.6603   -7.3100    0.0000 C   0  0  0  0  0  0  0  0  0  0  0  0
    2.8660   -0.8100    0.0000 C   0  0  0  0  0  0  0  0  0  0  0  0
   11.5263   -5.8100    0.0000 C   0  0  0  0  0  0  0  0  0  0  0  0
   10.6603   -8.3100    0.0000 C   0  0  0  0  0  0  0  0  0  0  0  0
    2.0000   -1.3100    0.0000 C   0  0  0  0  0  0  0  0  0  0  0  0
    2.8660    0.1900    0.0000 C   0  0  0  0  0  0  0  0  0  0  0  0
    5.4641    0.6900    0.0000 C   0  0  0  0  0  0  0  0  0  0  0  0
    5.4641    1.6900    0.0000 C   0  0  1  0  0  0  0  0  0  0  0  0
   12.3923   -6.3100    0.0000 C   0  0  0  0  0  0  0  0  0  0  0  0
    4.5981    2.1900    0.0000 C   0  0  0  0  0  0  0  0  0  0  0  0
    4.5981    3.1900    0.0000 C   0  0  0  0  0  0  0  0  0  0  0  0
    6.3301    3.1900    0.0000 C   0  0  0  0  0  0  0  0  0  0  0  0
    7.1962    3.6900    0.0000 C   0  0  2  0  0  0  0  0  0  0  0  0
    8.0622    3.1900    0.0000 C   0  0  0  0  0  0  0  0  0  0  0  0
    3.7320    3.6900    0.0000 C   0  0  0  0  0  0  0  0  0  0  0  0
    8.9282    3.6900    0.0000 C   0  0  0  0  0  0  0  0  0  0  0  0
    8.0622    5.1900    0.0000 C   0  0  0  0  0  0  0  0  0  0  0  0
    8.0622    6.1900    0.0000 C   0  0  0  0  0  0  0  0  0  0  0  0
    9.7942    3.1900    0.0000 C   0  0  0  0  0  0  0  0  0  0  0  0
    8.9282    6.6900    0.0000 C   0  0  0  0  0  0  0  0  0  0  0  0
    8.9282    7.6900    0.0000 C   0  0  0  0  0  0  0  0  0  0  0  0
    6.8671   -6.5000    0.0000 H   0  0  0  0  0  0  0  0  0  0  0  0
    5.2520   -6.7274    0.0000 H   0  0  0  0  0  0  0  0  0  0  0  0
    4.8535   -7.4177    0.0000 H   0  0  0  0  0  0  0  0  0  0  0  0
    7.8067   -7.4177    0.0000 H   0  0  0  0  0  0  0  0  0  0  0  0
    7.4082   -6.7274    0.0000 H   0  0  0  0  0  0  0  0  0  0  0  0
    6.1181   -5.2274    0.0000 H   0  0  0  0  0  0  0  0  0  0  0  0
    5.7196   -5.9177    0.0000 H   0  0  0  0  0  0  0  0  0  0  0  0
    4.8535   -8.2023    0.0000 H   0  0  0  0  0  0  0  0  0  0  0  0
    5.2520   -8.8926    0.0000 H   0  0  0  0  0  0  0  0  0  0  0  0
    7.4082   -8.8926    0.0000 H   0  0  0  0  0  0  0  0  0  0  0  0
    7.8067   -8.2023    0.0000 H   0  0  0  0  0  0  0  0  0  0  0  0
    5.9316   -9.2850    0.0000 H   0  0  0  0  0  0  0  0  0  0  0  0
    6.7287   -9.2850    0.0000 H   0  0  0  0  0  0  0  0  0  0  0  0
    6.6592   -5.0000    0.0000 H   0  0  0  0  0  0  0  0  0  0  0  0
    7.7331   -4.0000    0.0000 H   0  0  0  0  0  0  0  0  0  0  0  0
    5.7932   -3.1200    0.0000 H   0  0  0  0  0  0  0  0  0  0  0  0
    7.7331   -2.0000    0.0000 H   0  0  0  0  0  0  0  0  0  0  0  0
    8.9282   -4.6900    0.0000 H   0  0  0  0  0  0  0  0  0  0  0  0
    9.2573   -6.1200    0.0000 H   0  0  0  0  0  0  0  0  0  0  0  0
    4.9272   -2.6200    0.0000 H   0  0  0  0  0  0  0  0  0  0  0  0
    6.9841   -0.7274    0.0000 H   0  0  0  0  0  0  0  0  0  0  0  0
    6.5856   -1.4177    0.0000 H   0  0  0  0  0  0  0  0  0  0  0  0
    7.7522   -3.3469    0.0000 H   0  0  0  0  0  0  0  0  0  0  0  0
    8.5991   -3.1200    0.0000 H   0  0  0  0  0  0  0  0  0  0  0  0
    8.3722   -2.2731    0.0000 H   0  0  0  0  0  0  0  0  0  0  0  0
    9.1836   -6.7023    0.0000 H   0  0  0  0  0  0  0  0  0  0  0  0
    9.5822   -7.3926    0.0000 H   0  0  0  0  0  0  0  0  0  0  0  0
    5.1350   -0.5000    0.0000 H   0  0  0  0  0  0  0  0  0  0  0  0
    3.3335   -1.7850    0.0000 H   0  0  0  0  0  0  0  0  0  0  0  0
    4.1306   -1.7850    0.0000 H   0  0  0  0  0  0  0  0  0  0  0  0
    8.3722   -1.3469    0.0000 H   0  0  0  0  0  0  0  0  0  0  0  0
    8.5991   -0.5000    0.0000 H   0  0  0  0  0  0  0  0  0  0  0  0
    7.7522   -0.2731    0.0000 H   0  0  0  0  0  0  0  0  0  0  0  0
   11.2708   -7.4177    0.0000 H   0  0  0  0  0  0  0  0  0  0  0  0
   10.8723   -6.7274    0.0000 H   0  0  0  0  0  0  0  0  0  0  0  0
    2.8660   -1.4300    0.0000 H   0  0  0  0  0  0  0  0  0  0  0  0
    4.0611    0.5000    0.0000 H   0  0  0  0  0  0  0  0  0  0  0  0
   10.0403   -8.3100    0.0000 H   0  0  0  0  0  0  0  0  0  0  0  0
   10.6603   -8.9300    0.0000 H   0  0  0  0  0  0  0  0  0  0  0  0
   11.2803   -8.3100    0.0000 H   0  0  0  0  0  0  0  0  0  0  0  0
    1.6900   -0.7731    0.0000 H   0  0  0  0  0  0  0  0  0  0  0  0
    1.4631   -1.6200    0.0000 H   0  0  0  0  0  0  0  0  0  0  0  0
    2.3100   -1.8469    0.0000 H   0  0  0  0  0  0  0  0  0  0  0  0
    3.4860    0.1900    0.0000 H   0  0  0  0  0  0  0  0  0  0  0  0
    2.8660    0.8100    0.0000 H   0  0  0  0  0  0  0  0  0  0  0  0
    2.2460    0.1900    0.0000 H   0  0  0  0  0  0  0  0  0  0  0  0
    5.4641    2.3100    0.0000 H   0  0  0  0  0  0  0  0  0  0  0  0
    3.9875    2.2977    0.0000 H   0  0  0  0  0  0  0  0  0  0  0  0
    4.3860    1.6074    0.0000 H   0  0  0  0  0  0  0  0  0  0  0  0
    6.8671    1.8800    0.0000 H   0  0  0  0  0  0  0  0  0  0  0  0
    5.2087    3.0823    0.0000 H   0  0  0  0  0  0  0  0  0  0  0  0
    4.8101    3.7726    0.0000 H   0  0  0  0  0  0  0  0  0  0  0  0
    6.6592    4.0000    0.0000 H   0  0  0  0  0  0  0  0  0  0  0  0
    7.6636    2.7151    0.0000 H   0  0  0  0  0  0  0  0  0  0  0  0
    8.4607    2.7151    0.0000 H   0  0  0  0  0  0  0  0  0  0  0  0
    6.6592    5.0000    0.0000 H   0  0  0  0  0  0  0  0  0  0  0  0
    9.3267    4.1650    0.0000 H   0  0  0  0  0  0  0  0  0  0  0  0
    8.5297    4.1650    0.0000 H   0  0  0  0  0  0  0  0  0  0  0  0
    7.8501    6.7726    0.0000 H   0  0  0  0  0  0  0  0  0  0  0  0
    7.4516    6.0823    0.0000 H   0  0  0  0  0  0  0  0  0  0  0  0
    3.1951    5.0000    0.0000 H   0  0  0  0  0  0  0  0  0  0  0  0
    9.1403    6.1074    0.0000 H   0  0  0  0  0  0  0  0  0  0  0  0
    9.5388    6.7977    0.0000 H   0  0  0  0  0  0  0  0  0  0  0  0
   11.1972    3.3800    0.0000 H   0  0  0  0  0  0  0  0  0  0  0  0
    9.7942    8.8100    0.0000 H   0  0  0  0  0  0  0  0  0  0  0  0
  1 48  1  0  0  0  0
  2 48  1  0  0  0  0
  3 54  1  0  0  0  0
  4 54  1  0  0  0  0
  5 54  1  0  0  0  0
  6 33  2  0  0  0  0
  7 35  2  0  0  0  0
  8 42  2  0  0  0  0
  9 43  2  0  0  0  0
 10 52  2  0  0  0  0
 11 57  2  0  0  0  0
 12 60  1  0  0  0  0
 12127  1  0  0  0  0
 13 60  2  0  0  0  0
 14 62  2  0  0  0  0
 15 64  1  0  0  0  0
 15130  1  0  0  0  0
 16 64  2  0  0  0  0
 17 66  1  0  0  0  0
 17131  1  0  0  0  0
 18 66  2  0  0  0  0
 32 19  1  6  0  0  0
 19 35  1  0  0  0  0
 19 81  1  0  0  0  0
 20 33  1  0  0  0  0
 20 37  1  0  0  0  0
 20 84  1  0  0  0  0
 34 21  1  1  0  0  0
 21 42  1  0  0  0  0
 21 86  1  0  0  0  0
 41 22  1  6  0  0  0
 22 52  1  0  0  0  0
 22103  1  0  0  0  0
 53 23  1  1  0  0  0
 23 57  1  0  0  0  0
 23116  1  0  0  0  0
 58 24  1  1  0  0  0
 24 62  1  0  0  0  0
 24122  1  0  0  0  0
 25 26  1  0  0  0  0
 25 27  1  0  0  0  0
 25 28  1  0  0  0  0
 25 67  1  0  0  0  0
 26 29  1  0  0  0  0
 26 68  1  0  0  0  0
 26 69  1  0  0  0  0
 27 30  1  0  0  0  0
 27 70  1  0  0  0  0
 27 71  1  0  0  0  0
 28 32  1  0  0  0  0
 28 72  1  0  0  0  0
 28 73  1  0  0  0  0
 29 31  1  0  0  0  0
 29 74  1  0  0  0  0
 29 75  1  0  0  0  0
 30 31  1  0  0  0  0
 30 76  1  0  0  0  0
 30 77  1  0  0  0  0
 31 78  1  0  0  0  0
 31 79  1  0  0  0  0
 32 33  1  0  0  0  0
 32 80  1  0  0  0  0
 34 35  1  0  0  0  0
 34 36  1  0  0  0  0
 34 82  1  0  0  0  0
 36 38  1  0  0  0  0
 36 39  1  6  0  0  0
 36 83  1  0  0  0  0
 37 40  1  0  0  0  0
 37 43  1  0  0  0  0
 37 85  1  0  0  0  0
 38 45  1  0  0  0  0
 38 87  1  0  0  0  0
 38 88  1  0  0  0  0
 39 89  1  0  0  0  0
 39 90  1  0  0  0  0
 39 91  1  0  0  0  0
 40 46  1  0  0  0  0
 40 92  1  0  0  0  0
 40 93  1  0  0  0  0
 41 42  1  0  0  0  0
 41 44  1  0  0  0  0
 41 94  1  0  0  0  0
 43 48  1  0  0  0  0
 44 47  1  0  0  0  0
 44 95  1  0  0  0  0
 44 96  1  0  0  0  0
 45 97  1  0  0  0  0
 45 98  1  0  0  0  0
 45 99  1  0  0  0  0
 46 49  1  0  0  0  0
 46100  1  0  0  0  0
 46101  1  0  0  0  0
 47 50  1  0  0  0  0
 47 51  1  0  0  0  0
 47102  1  0  0  0  0
 48 54  1  0  0  0  0
 49104  1  0  0  0  0
 49105  1  0  0  0  0
 49106  1  0  0  0  0
 50107  1  0  0  0  0
 50108  1  0  0  0  0
 50109  1  0  0  0  0
 51110  1  0  0  0  0
 51111  1  0  0  0  0
 51112  1  0  0  0  0
 52 53  1  0  0  0  0
 53 55  1  0  0  0  0
 53113  1  0  0  0  0
 55 56  1  0  0  0  0
 55114  1  0  0  0  0
 55115  1  0  0  0  0
 56 60  1  0  0  0  0
 56117  1  0  0  0  0
 56118  1  0  0  0  0
 57 58  1  0  0  0  0
 58 59  1  0  0  0  0
 58119  1  0  0  0  0
 59 61  1  0  0  0  0
 59120  1  0  0  0  0
 59121  1  0  0  0  0
 61 64  1  0  0  0  0
 61123  1  0  0  0  0
 61124  1  0  0  0  0
 62 63  1  0  0  0  0
 63 65  1  0  0  0  0
 63125  1  0  0  0  0
 63126  1  0  0  0  0
 65 66  1  0  0  0  0
 65128  1  0  0  0  0
 65129  1  0  0  0  0
M  END
> <PUBCHEM_COMPOUND_CID>
507062
> <PUBCHEM_COMPOUND_CANONICALIZED>
1
> <PUBCHEM_CACTVS_COMPLEXITY>
1710
> <PUBCHEM_CACTVS_HBOND_ACCEPTOR>
18
> <PUBCHEM_CACTVS_HBOND_DONOR>
9
> <PUBCHEM_CACTVS_ROTATABLE_BOND>
30
> <PUBCHEM_CACTVS_SUBSKEYS>
AAADcfB/vcAAAAAAAAAAAAAAAAAAAAAAAAAwAAAAAAAAAAAAAAAAHwAQCAAADSzBgBQCCALAAgAIAIGQGAAAAAAAAAAAAIGIAAAAQBIAgCAUQAAEFgCAAAG/n4KOAAAAAAAAAAAAAAAAAAAAAAAAAAAAAA==
> <PUBCHEM_IUPAC_OPENEYE_NAME>
(4S)-5-[[(1R)-3-carboxy-1-[[(1S)-1-[[(1S,2S)-1-[[(1S)-1-(cyclohexylmethyl)-2-oxo-2-[(3,3,4,4,4-pentafluoro-2-oxo-1-propyl-butyl)amino]ethyl]carbamoyl]-2-methyl-butyl]carbamoyl]-3-methyl-butyl]carbamoyl]propyl]amino]-4-(3-carboxypropanoylamino)-5-oxo-pentanoic acid
> <PUBCHEM_IUPAC_CAS_NAME>
(4S)-5-[[(2R)-4-carboxy-1-[[(2S)-1-[[(2S,3S)-1-[[(2S)-3-cyclohexyl-1-oxo-1-[(1,1,1,2,2-pentafluoro-3-oxoheptan-4-yl)amino]propan-2-yl]amino]-3-methyl-1-oxopentan-2-yl]amino]-4-methyl-1-oxopentan-2-yl]amino]-1-oxobutan-2-yl]amino]-4-[(3-carboxy-1-oxopropyl)amino]-5-oxopentanoic acid
> <PUBCHEM_IUPAC_NAME_MARKUP>
(4<I>S</I>)-5-[[(2<I>R</I>)-4-carboxy-1-[[(2<I>S</I>)-1-[[(2<I>S</I>,3<I>S</I>)-1-[[(2<I>S</I>)-3-cyclohexyl-1-oxo-1-[(1,1,1,2,2-pentafluoro-3-oxoheptan-4-yl)amino]propan-2-yl]amino]-3-methyl-1-oxopentan-2-yl]amino]-4-methyl-1-oxopentan-2-yl]amino]-1-oxobutan-2-yl]amino]-4-(3-carboxypropanoylamino)-5-oxopentanoic acid
> <PUBCHEM_IUPAC_NAME>
(4S)-5-[[(2R)-4-carboxy-1-[[(2S)-1-[[(2S,3S)-1-[[(2S)-3-cyclohexyl-1-oxo-1-[(1,1,1,2,2-pentafluoro-3-oxoheptan-4-yl)amino]propan-2-yl]amino]-3-methyl-1-oxopentan-2-yl]amino]-4-methyl-1-oxopentan-2-yl]amino]-1-oxobutan-2-yl]amino]-4-(3-carboxypropanoylamino)-5-oxopentanoic acid
> <PUBCHEM_IUPAC_SYSTEMATIC_NAME>
(4S)-5-[[(2R)-1-[[(2S)-1-[[(2S,3S)-1-[[(2S)-3-cyclohexyl-1-oxidanylidene-1-[[1,1,1,2,2-pentakis(fluoranyl)-3-oxidanylidene-heptan-4-yl]amino]propan-2-yl]amino]-3-methyl-1-oxidanylidene-pentan-2-yl]amino]-4-methyl-1-oxidanylidene-pentan-2-yl]amino]-5-oxidanyl-1,5-bis(oxidanylidene)pentan-2-yl]amino]-5-oxidanylidene-4-[(4-oxidanyl-4-oxidanylidene-butanoyl)amino]pentanoic acid
> <PUBCHEM_IUPAC_TRADITIONAL_NAME>
(4S)-5-[[(1R)-3-carboxy-1-[[(1S)-1-[[(1S,2S)-1-[[(1S)-1-(cyclohexylmethyl)-2-keto-2-[(3,3,4,4,4-pentafluoro-2-keto-1-propyl-butyl)amino]ethyl]carbamoyl]-2-methyl-butyl]carbamoyl]-3-methyl-butyl]carbamoyl]propyl]amino]-4-(3-carboxypropanoylamino)-5-keto-valeric acid
> <PUBCHEM_IUPAC_INCHI>
InChI=1S/C42H65F5N6O13/c1-6-11-25(35(61)41(43,44)42(45,46)47)49-38(64)29(21-24-12-9-8-10-13-24)52-40(66)34(23(5)7-2)53-39(65)28(20-22(3)4)51-37(63)27(15-18-32(57)58)50-36(62)26(14-17-31(55)56)48-30(54)16-19-33(59)60/h22-29,34H,6-21H2,1-5H3,(H,48,54)(H,49,64)(H,50,62)(H,51,63)(H,52,66)(H,53,65)(H,55,56)(H,57,58)(H,59,60)/t23-,25?,26-,27+,28-,29-,34-/m0/s1
> <PUBCHEM_IUPAC_INCHIKEY>
INWDZIHDVXDLOQ-VUINELBVSA-N
> <PUBCHEM_XLOGP3_AA>
4.9
> <PUBCHEM_EXACT_MASS>
956.45297696
> <PUBCHEM_MOLECULAR_FORMULA>
C42H65F5N6O13
> <PUBCHEM_MOLECULAR_WEIGHT>
957.0
> <PUBCHEM_OPENEYE_CAN_SMILES>
CCCC(C(=O)C(C(F)(F)F)(F)F)NC(=O)C(CC1CCCCC1)NC(=O)C(C(C)CC)NC(=O)C(CC(C)C)NC(=O)C(CCC(=O)O)NC(=O)C(CCC(=O)O)NC(=O)CCC(=O)O
> <PUBCHEM_OPENEYE_ISO_SMILES>
CCCC(C(=O)C(C(F)(F)F)(F)F)NC(=O)[C@H](CC1CCCCC1)NC(=O)[C@H]([C@@H](C)CC)NC(=O)[C@H](CC(C)C)NC(=O)[C@@H](CCC(=O)O)NC(=O)[C@H](CCC(=O)O)NC(=O)CCC(=O)O
> <PUBCHEM_CACTVS_TPSA>
304
> <PUBCHEM_MONOISOTOPIC_WEIGHT>
956.45297696
> <PUBCHEM_TOTAL_CHARGE>
0
> <PUBCHEM_HEAVY_ATOM_COUNT>
66
> <PUBCHEM_ATOM_DEF_STEREO_COUNT>
6
> <PUBCHEM_ATOM_UDEF_STEREO_COUNT>
1
> <PUBCHEM_BOND_DEF_STEREO_COUNT>
0
> <PUBCHEM_BOND_UDEF_STEREO_COUNT>
0
> <PUBCHEM_ISOTOPIC_ATOM_COUNT>
0
> <PUBCHEM_COMPONENT_COUNT>
1
> <PUBCHEM_CACTVS_TAUTO_COUNT>
-1
> <PUBCHEM_COORDINATE_TYPE>
1
5
255
> <PUBCHEM_BONDANNOTATIONS>
32  19  6
34  21  5
41  22  6
53  23  5
58  24  5
36  39  6
37  40  3
$$$$
