507078
  -OEChem-10302200282D
 63 66  0     1  0  0  0  0  0999 V2000
    3.6608    2.4487    0.0000 F   0  0  0  0  0  0  0  0  0  0  0  0
    4.6608    2.4486    0.0000 F   0  0  0  0  0  0  0  0  0  0  0  0
    5.1608    3.3147    0.0000 F   0  0  0  0  0  0  0  0  0  0  0  0
    1.9124    3.1461    0.0000 F   0  0  0  0  0  0  0  0  0  0  0  0
    0.1307    4.1565    0.0000 F   0  0  0  0  0  0  0  0  0  0  0  0
    3.8858   11.2008    0.0000 O   0  0  0  0  0  0  0  0  0  0  0  0
    5.1591    9.5453    0.0000 O   0  0  0  0  0  0  0  0  0  0  0  0
    4.8089   12.7886    0.0000 O   0  0  0  0  0  0  0  0  0  0  0  0
    3.0768   15.7886    0.0000 O   0  0  0  0  0  0  0  0  0  0  0  0
    5.3929    6.1807    0.0000 O   0  0  0  0  0  0  0  0  0  0  0  0
    3.0768   12.7886    0.0000 N   0  0  0  0  0  0  0  0  0  0  0  0
    1.9890    9.4408    0.0000 N   0  0  0  0  0  0  0  0  0  0  0  0
    4.5268    4.6807    0.0000 N   0  0  0  0  0  0  0  0  0  0  0  0
    3.9428   14.2886    0.0000 N   0  0  0  0  0  0  0  0  0  0  0  0
    3.6608    6.1807    0.0000 N   0  0  0  0  0  0  0  0  0  0  0  0
    0.9945    9.5453    0.0000 N   0  3  0  0  0  0  0  0  0  0  0  0
    0.0000    9.6498    0.0000 N   0  5  0  0  0  0  0  0  0  0  0  0
    2.1608    1.5826    0.0000 C   0  0  0  0  0  0  0  0  0  0  0  0
    1.2948    1.0826    0.0000 C   0  0  0  0  0  0  0  0  0  0  0  0
    2.1608    0.5826    0.0000 C   0  0  0  0  0  0  0  0  0  0  0  0
    2.5768   10.2498    0.0000 C   0  0  1  0  0  0  0  0  0  0  0  0
    2.2678   11.2008    0.0000 C   0  0  0  0  0  0  0  0  0  0  0  0
    3.5768   10.2498    0.0000 C   0  0  1  0  0  0  0  0  0  0  0  0
    3.0768   11.7886    0.0000 C   0  0  1  0  0  0  0  0  0  0  0  0
    4.1646    9.4408    0.0000 C   0  0  0  0  0  0  0  0  0  0  0  0
    2.6608    2.4486    0.0000 C   0  0  0  0  0  0  0  0  0  0  0  0
    3.6608    4.1807    0.0000 C   0  0  1  0  0  0  0  0  0  0  0  0
    2.2108   13.2886    0.0000 C   0  0  0  0  0  0  0  0  0  0  0  0
    3.1608    3.3147    0.0000 C   0  0  0  0  0  0  0  0  0  0  0  0
    3.9428   13.2886    0.0000 C   0  0  0  0  0  0  0  0  0  0  0  0
    2.7948    4.6807    0.0000 C   0  0  0  0  0  0  0  0  0  0  0  0
    4.1608    3.3147    0.0000 C   0  0  0  0  0  0  0  0  0  0  0  0
    2.2108   14.2886    0.0000 C   0  0  0  0  0  0  0  0  0  0  0  0
    2.7948    5.6807    0.0000 C   0  0  0  0  0  0  0  0  0  0  0  0
    3.0768   14.7886    0.0000 C   0  0  0  0  0  0  0  0  0  0  0  0
    1.9008    4.1460    0.0000 C   0  0  0  0  0  0  0  0  0  0  0  0
    4.5268    5.6807    0.0000 C   0  0  0  0  0  0  0  0  0  0  0  0
    1.9008    6.2154    0.0000 C   0  0  0  0  0  0  0  0  0  0  0  0
    1.3448   14.7886    0.0000 C   0  0  0  0  0  0  0  0  0  0  0  0
    0.9948    4.6599    0.0000 C   0  0  0  0  0  0  0  0  0  0  0  0
    0.9948    5.7015    0.0000 C   0  0  0  0  0  0  0  0  0  0  0  0
    2.7597    1.4221    0.0000 H   0  0  0  0  0  0  0  0  0  0  0  0
    0.8963    1.5576    0.0000 H   0  0  0  0  0  0  0  0  0  0  0  0
    0.8963    0.6077    0.0000 H   0  0  0  0  0  0  0  0  0  0  0  0
    1.9488    0.0000    0.0000 H   0  0  0  0  0  0  0  0  0  0  0  0
    2.7714    0.4749    0.0000 H   0  0  0  0  0  0  0  0  0  0  0  0
    1.9645   10.3468    0.0000 H   0  0  0  0  0  0  0  0  0  0  0  0
    1.9578   11.7378    0.0000 H   0  0  0  0  0  0  0  0  0  0  0  0
    1.7014   10.9486    0.0000 H   0  0  0  0  0  0  0  0  0  0  0  0
    4.1892   10.3468    0.0000 H   0  0  0  0  0  0  0  0  0  0  0  0
    2.5244   12.0701    0.0000 H   0  0  0  0  0  0  0  0  0  0  0  0
    3.6074    9.1690    0.0000 H   0  0  0  0  0  0  0  0  0  0  0  0
    4.3355    8.8448    0.0000 H   0  0  0  0  0  0  0  0  0  0  0  0
    1.6739   12.9786    0.0000 H   0  0  0  0  0  0  0  0  0  0  0  0
    5.1468    4.6807    0.0000 H   0  0  0  0  0  0  0  0  0  0  0  0
    5.5236    9.0437    0.0000 H   0  0  0  0  0  0  0  0  0  0  0  0
    4.4798   14.5986    0.0000 H   0  0  0  0  0  0  0  0  0  0  0  0
    3.6608    6.8007    0.0000 H   0  0  0  0  0  0  0  0  0  0  0  0
    1.9080    6.8353    0.0000 H   0  0  0  0  0  0  0  0  0  0  0  0
    1.6548   15.3255    0.0000 H   0  0  0  0  0  0  0  0  0  0  0  0
    0.8078   15.0986    0.0000 H   0  0  0  0  0  0  0  0  0  0  0  0
    1.0348   14.2517    0.0000 H   0  0  0  0  0  0  0  0  0  0  0  0
    0.4590    6.0136    0.0000 H   0  0  0  0  0  0  0  0  0  0  0  0
  1 32  1  0  0  0  0
  2 32  1  0  0  0  0
  3 32  1  0  0  0  0
  4 36  1  0  0  0  0
  5 40  1  0  0  0  0
  6 23  1  0  0  0  0
  6 24  1  0  0  0  0
  7 25  1  0  0  0  0
  7 56  1  0  0  0  0
  8 30  2  0  0  0  0
  9 35  2  0  0  0  0
 10 37  2  0  0  0  0
 24 11  1  6  0  0  0
 11 28  1  0  0  0  0
 11 30  1  0  0  0  0
 12 16  2  0  0  0  0
 21 12  1  1  0  0  0
 13 27  1  0  0  0  0
 13 37  1  0  0  0  0
 13 55  1  0  0  0  0
 14 30  1  0  0  0  0
 14 35  1  0  0  0  0
 14 57  1  0  0  0  0
 15 34  1  0  0  0  0
 15 37  1  0  0  0  0
 15 58  1  0  0  0  0
 16 17  2  0  0  0  0
 18 19  1  0  0  0  0
 18 20  1  0  0  0  0
 18 26  1  0  0  0  0
 18 42  1  0  0  0  0
 19 20  1  0  0  0  0
 19 43  1  0  0  0  0
 19 44  1  0  0  0  0
 20 45  1  0  0  0  0
 20 46  1  0  0  0  0
 21 22  1  0  0  0  0
 21 23  1  0  0  0  0
 21 47  1  0  0  0  0
 22 24  1  0  0  0  0
 22 48  1  0  0  0  0
 22 49  1  0  0  0  0
 23 25  1  6  0  0  0
 23 50  1  0  0  0  0
 24 51  1  0  0  0  0
 25 52  1  0  0  0  0
 25 53  1  0  0  0  0
 26 29  3  0  0  0  0
 27 29  1  1  0  0  0
 27 31  1  0  0  0  0
 27 32  1  0  0  0  0
 28 33  2  0  0  0  0
 28 54  1  0  0  0  0
 31 34  2  0  0  0  0
 31 36  1  0  0  0  0
 33 35  1  0  0  0  0
 33 39  1  0  0  0  0
 34 38  1  0  0  0  0
 36 40  2  0  0  0  0
 38 41  2  0  0  0  0
 38 59  1  0  0  0  0
 39 60  1  0  0  0  0
 39 61  1  0  0  0  0
 39 62  1  0  0  0  0
 40 41  1  0  0  0  0
 41 63  1  0  0  0  0
M  CHG  2  16   1  17  -1
M  END
> <PUBCHEM_COMPOUND_CID>
507078
> <PUBCHEM_COMPOUND_CANONICALIZED>
1
> <PUBCHEM_CACTVS_COMPLEXITY>
1030
> <PUBCHEM_CACTVS_HBOND_ACCEPTOR>
12
> <PUBCHEM_CACTVS_HBOND_DONOR>
4
> <PUBCHEM_CACTVS_ROTATABLE_BOND>
4
> <PUBCHEM_CACTVS_SUBSKEYS>
AAADceB7ucAAAAAAAAAAAAAAGAAAASAAAAA8QIAAAAAAAACxAAAAHwAYCAAADbzhmB4zwIPABgDKEiVWUAiCAAAhAgAIiAEIZMiLMCLA0ZGPYAhulyJLyOewsMIOgAAAAAACAAAAAAAAAAQAAAAAAAAAAA==
> <PUBCHEM_IUPAC_OPENEYE_NAME>
1-[(2R,4S,5S)-4-azido-5-(hydroxymethyl)tetrahydrofuran-2-yl]-5-methyl-pyrimidine-2,4-dione;(4S)-4-(2-cyclopropylethynyl)-5,6-difluoro-4-(trifluoromethyl)-1,3-dihydroquinazolin-2-one
> <PUBCHEM_IUPAC_CAS_NAME>
1-[(2R,4S,5S)-4-azido-5-(hydroxymethyl)-2-oxolanyl]-5-methylpyrimidine-2,4-dione;(4S)-4-(2-cyclopropylethynyl)-5,6-difluoro-4-(trifluoromethyl)-1,3-dihydroquinazolin-2-one
> <PUBCHEM_IUPAC_NAME_MARKUP>
1-[(2<I>R</I>,4<I>S</I>,5<I>S</I>)-4-azido-5-(hydroxymethyl)oxolan-2-yl]-5-methylpyrimidine-2,4-dione;(4<I>S</I>)-4-(2-cyclopropylethynyl)-5,6-difluoro-4-(trifluoromethyl)-1,3-dihydroquinazolin-2-one
> <PUBCHEM_IUPAC_NAME>
1-[(2R,4S,5S)-4-azido-5-(hydroxymethyl)oxolan-2-yl]-5-methylpyrimidine-2,4-dione;(4S)-4-(2-cyclopropylethynyl)-5,6-difluoro-4-(trifluoromethyl)-1,3-dihydroquinazolin-2-one
> <PUBCHEM_IUPAC_SYSTEMATIC_NAME>
1-[(2R,4S,5S)-4-azido-5-(hydroxymethyl)oxolan-2-yl]-5-methyl-pyrimidine-2,4-dione;(4S)-4-(2-cyclopropylethynyl)-5,6-bis(fluoranyl)-4-(trifluoromethyl)-1,3-dihydroquinazolin-2-one
> <PUBCHEM_IUPAC_TRADITIONAL_NAME>
1-[(2R,4S,5S)-4-azido-5-methylol-tetrahydrofuran-2-yl]-5-methyl-pyrimidine-2,4-quinone;(4S)-4-(2-cyclopropylethynyl)-5,6-difluoro-4-(trifluoromethyl)-1,3-dihydroquinazolin-2-one
> <PUBCHEM_IUPAC_INCHI>
InChI=1S/C14H9F5N2O.C10H13N5O4/c15-8-3-4-9-10(11(8)16)13(14(17,18)19,21-12(22)20-9)6-5-7-1-2-7;1-5-3-15(10(18)12-9(5)17)8-2-6(13-14-11)7(4-16)19-8/h3-4,7H,1-2H2,(H2,20,21,22);3,6-8,16H,2,4H2,1H3,(H,12,17,18)/t13-;6-,7+,8+/m00/s1
> <PUBCHEM_IUPAC_INCHIKEY>
XXIOAPFFMJVFDK-RDTCVNLYSA-N
> <PUBCHEM_EXACT_MASS>
583.16025764
> <PUBCHEM_MOLECULAR_FORMULA>
C24H22F5N7O5
> <PUBCHEM_MOLECULAR_WEIGHT>
583.5
> <PUBCHEM_OPENEYE_CAN_SMILES>
CC1=CN(C(=O)NC1=O)C2CC(C(O2)CO)N=[N+]=[N-].C1CC1C#CC2(C3=C(C=CC(=C3F)F)NC(=O)N2)C(F)(F)F
> <PUBCHEM_OPENEYE_ISO_SMILES>
CC1=CN(C(=O)NC1=O)[C@H]2C[C@@H]([C@H](O2)CO)N=[N+]=[N-].C1CC1C#C[C@]2(C3=C(C=CC(=C3F)F)NC(=O)N2)C(F)(F)F
> <PUBCHEM_CACTVS_TPSA>
134
> <PUBCHEM_MONOISOTOPIC_WEIGHT>
583.16025764
> <PUBCHEM_TOTAL_CHARGE>
0
> <PUBCHEM_HEAVY_ATOM_COUNT>
41
> <PUBCHEM_ATOM_DEF_STEREO_COUNT>
4
> <PUBCHEM_ATOM_UDEF_STEREO_COUNT>
0
> <PUBCHEM_BOND_DEF_STEREO_COUNT>
0
> <PUBCHEM_BOND_UDEF_STEREO_COUNT>
0
> <PUBCHEM_ISOTOPIC_ATOM_COUNT>
0
> <PUBCHEM_COMPONENT_COUNT>
2
> <PUBCHEM_CACTVS_TAUTO_COUNT>
-1
> <PUBCHEM_COORDINATE_TYPE>
1
5
255
> <PUBCHEM_BONDANNOTATIONS>
24  11  6
11  28  8
11  30  8
21  12  5
14  30  8
14  35  8
23  25  6
27  29  5
28  33  8
31  34  8
31  36  8
33  35  8
34  38  8
36  40  8
38  41  8
40  41  8
$$$$
