507060
  -OEChem-10302200282D
119121  0     1  0  0  0  0  0999 V2000
    4.5981   -6.6550    0.0000 S   0  0  0  0  0  0  0  0  0  0  0  0
    6.3301   -5.6550    0.0000 O   0  0  0  0  0  0  0  0  0  0  0  0
    5.4641   -2.1550    0.0000 O   0  0  0  0  0  0  0  0  0  0  0  0
    5.5981   -6.6550    0.0000 O   0  0  0  0  0  0  0  0  0  0  0  0
    3.5981   -6.6550    0.0000 O   0  0  0  0  0  0  0  0  0  0  0  0
    5.4641   -1.1550    0.0000 O   0  0  0  0  0  0  0  0  0  0  0  0
    6.3301    2.3450    0.0000 O   0  0  0  0  0  0  0  0  0  0  0  0
    6.3301    3.3450    0.0000 O   0  0  0  0  0  0  0  0  0  0  0  0
    5.4641    6.8450    0.0000 O   0  0  0  0  0  0  0  0  0  0  0  0
    3.7320    7.8450    0.0000 O   0  0  0  0  0  0  0  0  0  0  0  0
    2.8660    6.3450    0.0000 O   0  0  0  0  0  0  0  0  0  0  0  0
    8.0622    9.3450    0.0000 O   0  0  0  0  0  0  0  0  0  0  0  0
    8.9282    7.8450    0.0000 O   0  0  0  0  0  0  0  0  0  0  0  0
    6.3301   -3.6550    0.0000 N   0  0  0  0  0  0  0  0  0  0  0  0
    4.5981   -5.6550    0.0000 N   0  0  0  0  0  0  0  0  0  0  0  0
    7.1962   -1.1550    0.0000 N   0  0  0  0  0  0  0  0  0  0  0  0
    5.4641    0.8450    0.0000 N   0  0  0  0  0  0  0  0  0  0  0  0
    4.5981    3.3450    0.0000 N   0  0  0  0  0  0  0  0  0  0  0  0
    6.3301    5.3450    0.0000 N   0  0  0  0  0  0  0  0  0  0  0  0
    5.4641   -4.1550    0.0000 C   0  0  0  0  0  0  0  0  0  0  0  0
    4.9641   -3.2890    0.0000 C   0  0  0  0  0  0  0  0  0  0  0  0
    4.4641   -4.1550    0.0000 C   0  0  0  0  0  0  0  0  0  0  0  0
    5.4641   -5.1550    0.0000 C   0  0  0  0  0  0  0  0  0  0  0  0
    8.9282   -2.1550    0.0000 C   0  0  0  0  0  0  0  0  0  0  0  0
    7.1962   -2.1550    0.0000 C   0  0  1  0  0  0  0  0  0  0  0  0
    8.0622   -2.6550    0.0000 C   0  0  0  0  0  0  0  0  0  0  0  0
    6.3301   -2.6550    0.0000 C   0  0  0  0  0  0  0  0  0  0  0  0
    9.7942   -2.6550    0.0000 C   0  0  0  0  0  0  0  0  0  0  0  0
    8.9282   -1.1550    0.0000 C   0  0  0  0  0  0  0  0  0  0  0  0
   10.6603   -2.1550    0.0000 C   0  0  0  0  0  0  0  0  0  0  0  0
    9.7942   -0.6550    0.0000 C   0  0  0  0  0  0  0  0  0  0  0  0
   10.6603   -1.1550    0.0000 C   0  0  0  0  0  0  0  0  0  0  0  0
    6.3301   -0.6550    0.0000 C   0  0  0  0  0  0  0  0  0  0  0  0
    6.3301    0.3450    0.0000 C   0  0  2  0  0  0  0  0  0  0  0  0
    7.1962    0.8450    0.0000 C   0  0  2  0  0  0  0  0  0  0  0  0
    4.5981   -7.6550    0.0000 C   0  0  0  0  0  0  0  0  0  0  0  0
    7.1962    1.8450    0.0000 C   0  0  0  0  0  0  0  0  0  0  0  0
    8.0622    0.3450    0.0000 C   0  0  0  0  0  0  0  0  0  0  0  0
    5.4641   -8.1550    0.0000 C   0  0  0  0  0  0  0  0  0  0  0  0
    3.7320   -8.1550    0.0000 C   0  0  0  0  0  0  0  0  0  0  0  0
    5.4641    1.8450    0.0000 C   0  0  0  0  0  0  0  0  0  0  0  0
    4.5981    2.3450    0.0000 C   0  0  2  0  0  0  0  0  0  0  0  0
    8.0622    2.3450    0.0000 C   0  0  0  0  0  0  0  0  0  0  0  0
    3.7320    1.8450    0.0000 C   0  0  0  0  0  0  0  0  0  0  0  0
    5.4641   -9.1550    0.0000 C   0  0  0  0  0  0  0  0  0  0  0  0
    3.7320   -9.1550    0.0000 C   0  0  0  0  0  0  0  0  0  0  0  0
    2.8660    2.3450    0.0000 C   0  0  0  0  0  0  0  0  0  0  0  0
    4.5981   -9.6550    0.0000 C   0  0  0  0  0  0  0  0  0  0  0  0
    2.0000    1.8450    0.0000 C   0  0  0  0  0  0  0  0  0  0  0  0
    2.8660    3.3450    0.0000 C   0  0  0  0  0  0  0  0  0  0  0  0
    5.4641    3.8450    0.0000 C   0  0  0  0  0  0  0  0  0  0  0  0
    5.4641    4.8450    0.0000 C   0  0  1  0  0  0  0  0  0  0  0  0
    4.5981    5.3450    0.0000 C   0  0  0  0  0  0  0  0  0  0  0  0
    4.5981    6.3450    0.0000 C   0  0  0  0  0  0  0  0  0  0  0  0
    6.3301    6.3450    0.0000 C   0  0  0  0  0  0  0  0  0  0  0  0
    7.1962    6.8450    0.0000 C   0  0  0  0  0  0  0  0  0  0  0  0
    3.7320    6.8450    0.0000 C   0  0  0  0  0  0  0  0  0  0  0  0
    7.1962    7.8450    0.0000 C   0  0  0  0  0  0  0  0  0  0  0  0
    8.0622    8.3450    0.0000 C   0  0  0  0  0  0  0  0  0  0  0  0
    5.4390   -2.8904    0.0000 H   0  0  0  0  0  0  0  0  0  0  0  0
    4.4892   -2.8904    0.0000 H   0  0  0  0  0  0  0  0  0  0  0  0
    3.8815   -3.9430    0.0000 H   0  0  0  0  0  0  0  0  0  0  0  0
    4.3564   -4.7656    0.0000 H   0  0  0  0  0  0  0  0  0  0  0  0
    6.8671   -3.9650    0.0000 H   0  0  0  0  0  0  0  0  0  0  0  0
    8.9282   -2.7750    0.0000 H   0  0  0  0  0  0  0  0  0  0  0  0
    6.6592   -1.8450    0.0000 H   0  0  0  0  0  0  0  0  0  0  0  0
    7.6636   -3.1300    0.0000 H   0  0  0  0  0  0  0  0  0  0  0  0
    8.4607   -3.1300    0.0000 H   0  0  0  0  0  0  0  0  0  0  0  0
    9.3957   -3.1300    0.0000 H   0  0  0  0  0  0  0  0  0  0  0  0
   10.1928   -3.1300    0.0000 H   0  0  0  0  0  0  0  0  0  0  0  0
    8.7162   -0.5724    0.0000 H   0  0  0  0  0  0  0  0  0  0  0  0
    8.3176   -1.2627    0.0000 H   0  0  0  0  0  0  0  0  0  0  0  0
   10.8723   -2.7376    0.0000 H   0  0  0  0  0  0  0  0  0  0  0  0
   11.2708   -2.0473    0.0000 H   0  0  0  0  0  0  0  0  0  0  0  0
   10.1928   -0.1801    0.0000 H   0  0  0  0  0  0  0  0  0  0  0  0
    9.3957   -0.1801    0.0000 H   0  0  0  0  0  0  0  0  0  0  0  0
   11.2708   -1.2627    0.0000 H   0  0  0  0  0  0  0  0  0  0  0  0
   10.8723   -0.5724    0.0000 H   0  0  0  0  0  0  0  0  0  0  0  0
    4.0611   -5.3450    0.0000 H   0  0  0  0  0  0  0  0  0  0  0  0
    7.7331   -0.8450    0.0000 H   0  0  0  0  0  0  0  0  0  0  0  0
    5.7932    0.0350    0.0000 H   0  0  0  0  0  0  0  0  0  0  0  0
    7.7331    1.1550    0.0000 H   0  0  0  0  0  0  0  0  0  0  0  0
    4.9272    0.5350    0.0000 H   0  0  0  0  0  0  0  0  0  0  0  0
    6.9841    2.4276    0.0000 H   0  0  0  0  0  0  0  0  0  0  0  0
    6.5856    1.7373    0.0000 H   0  0  0  0  0  0  0  0  0  0  0  0
    7.7522   -0.1919    0.0000 H   0  0  0  0  0  0  0  0  0  0  0  0
    8.5991    0.0350    0.0000 H   0  0  0  0  0  0  0  0  0  0  0  0
    8.3722    0.8819    0.0000 H   0  0  0  0  0  0  0  0  0  0  0  0
    6.0010   -7.8450    0.0000 H   0  0  0  0  0  0  0  0  0  0  0  0
    3.1951   -7.8450    0.0000 H   0  0  0  0  0  0  0  0  0  0  0  0
    5.1350    2.6550    0.0000 H   0  0  0  0  0  0  0  0  0  0  0  0
    8.3722    1.8081    0.0000 H   0  0  0  0  0  0  0  0  0  0  0  0
    8.5991    2.6550    0.0000 H   0  0  0  0  0  0  0  0  0  0  0  0
    7.7522    2.8819    0.0000 H   0  0  0  0  0  0  0  0  0  0  0  0
    3.3335    1.3700    0.0000 H   0  0  0  0  0  0  0  0  0  0  0  0
    4.1306    1.3700    0.0000 H   0  0  0  0  0  0  0  0  0  0  0  0
    6.0010   -9.4650    0.0000 H   0  0  0  0  0  0  0  0  0  0  0  0
    3.1951   -9.4650    0.0000 H   0  0  0  0  0  0  0  0  0  0  0  0
    2.8660    1.7250    0.0000 H   0  0  0  0  0  0  0  0  0  0  0  0
    4.0611    3.6550    0.0000 H   0  0  0  0  0  0  0  0  0  0  0  0
    4.5981  -10.2750    0.0000 H   0  0  0  0  0  0  0  0  0  0  0  0
    1.6900    2.3819    0.0000 H   0  0  0  0  0  0  0  0  0  0  0  0
    1.4631    1.5350    0.0000 H   0  0  0  0  0  0  0  0  0  0  0  0
    2.3100    1.3081    0.0000 H   0  0  0  0  0  0  0  0  0  0  0  0
    3.4860    3.3450    0.0000 H   0  0  0  0  0  0  0  0  0  0  0  0
    2.8660    3.9650    0.0000 H   0  0  0  0  0  0  0  0  0  0  0  0
    2.2460    3.3450    0.0000 H   0  0  0  0  0  0  0  0  0  0  0  0
    5.4641    5.4650    0.0000 H   0  0  0  0  0  0  0  0  0  0  0  0
    3.9875    5.4527    0.0000 H   0  0  0  0  0  0  0  0  0  0  0  0
    4.3860    4.7624    0.0000 H   0  0  0  0  0  0  0  0  0  0  0  0
    6.8671    5.0350    0.0000 H   0  0  0  0  0  0  0  0  0  0  0  0
    5.2087    6.2373    0.0000 H   0  0  0  0  0  0  0  0  0  0  0  0
    4.8101    6.9276    0.0000 H   0  0  0  0  0  0  0  0  0  0  0  0
    7.4082    6.2624    0.0000 H   0  0  0  0  0  0  0  0  0  0  0  0
    7.8067    6.9527    0.0000 H   0  0  0  0  0  0  0  0  0  0  0  0
    6.9841    8.4276    0.0000 H   0  0  0  0  0  0  0  0  0  0  0  0
    6.5856    7.7373    0.0000 H   0  0  0  0  0  0  0  0  0  0  0  0
    3.1951    8.1550    0.0000 H   0  0  0  0  0  0  0  0  0  0  0  0
    8.5991    9.6550    0.0000 H   0  0  0  0  0  0  0  0  0  0  0  0
  1  4  2  0  0  0  0
  1  5  2  0  0  0  0
  1 15  1  0  0  0  0
  1 36  1  0  0  0  0
  2 23  2  0  0  0  0
  3 27  2  0  0  0  0
  6 33  2  0  0  0  0
  7 41  2  0  0  0  0
  8 51  2  0  0  0  0
  9 55  2  0  0  0  0
 10 57  1  0  0  0  0
 10118  1  0  0  0  0
 11 57  2  0  0  0  0
 12 59  1  0  0  0  0
 12119  1  0  0  0  0
 13 59  2  0  0  0  0
 14 20  1  0  0  0  0
 14 27  1  0  0  0  0
 14 64  1  0  0  0  0
 15 23  1  0  0  0  0
 15 79  1  0  0  0  0
 25 16  1  1  0  0  0
 16 33  1  0  0  0  0
 16 80  1  0  0  0  0
 34 17  1  1  0  0  0
 17 41  1  0  0  0  0
 17 83  1  0  0  0  0
 42 18  1  6  0  0  0
 18 51  1  0  0  0  0
 18100  1  0  0  0  0
 52 19  1  1  0  0  0
 19 55  1  0  0  0  0
 19111  1  0  0  0  0
 20 21  1  0  0  0  0
 20 22  1  0  0  0  0
 20 23  1  0  0  0  0
 21 22  1  0  0  0  0
 21 60  1  0  0  0  0
 21 61  1  0  0  0  0
 22 62  1  0  0  0  0
 22 63  1  0  0  0  0
 24 26  1  0  0  0  0
 24 28  1  0  0  0  0
 24 29  1  0  0  0  0
 24 65  1  0  0  0  0
 25 26  1  0  0  0  0
 25 27  1  0  0  0  0
 25 66  1  0  0  0  0
 26 67  1  0  0  0  0
 26 68  1  0  0  0  0
 28 30  1  0  0  0  0
 28 69  1  0  0  0  0
 28 70  1  0  0  0  0
 29 31  1  0  0  0  0
 29 71  1  0  0  0  0
 29 72  1  0  0  0  0
 30 32  1  0  0  0  0
 30 73  1  0  0  0  0
 30 74  1  0  0  0  0
 31 32  1  0  0  0  0
 31 75  1  0  0  0  0
 31 76  1  0  0  0  0
 32 77  1  0  0  0  0
 32 78  1  0  0  0  0
 33 34  1  0  0  0  0
 34 35  1  0  0  0  0
 34 81  1  0  0  0  0
 35 37  1  0  0  0  0
 35 38  1  6  0  0  0
 35 82  1  0  0  0  0
 36 39  2  0  0  0  0
 36 40  1  0  0  0  0
 37 43  1  0  0  0  0
 37 84  1  0  0  0  0
 37 85  1  0  0  0  0
 38 86  1  0  0  0  0
 38 87  1  0  0  0  0
 38 88  1  0  0  0  0
 39 45  1  0  0  0  0
 39 89  1  0  0  0  0
 40 46  2  0  0  0  0
 40 90  1  0  0  0  0
 41 42  1  0  0  0  0
 42 44  1  0  0  0  0
 42 91  1  0  0  0  0
 43 92  1  0  0  0  0
 43 93  1  0  0  0  0
 43 94  1  0  0  0  0
 44 47  1  0  0  0  0
 44 95  1  0  0  0  0
 44 96  1  0  0  0  0
 45 48  2  0  0  0  0
 45 97  1  0  0  0  0
 46 48  1  0  0  0  0
 46 98  1  0  0  0  0
 47 49  1  0  0  0  0
 47 50  1  0  0  0  0
 47 99  1  0  0  0  0
 48101  1  0  0  0  0
 49102  1  0  0  0  0
 49103  1  0  0  0  0
 49104  1  0  0  0  0
 50105  1  0  0  0  0
 50106  1  0  0  0  0
 50107  1  0  0  0  0
 51 52  1  0  0  0  0
 52 53  1  0  0  0  0
 52108  1  0  0  0  0
 53 54  1  0  0  0  0
 53109  1  0  0  0  0
 53110  1  0  0  0  0
 54 57  1  0  0  0  0
 54112  1  0  0  0  0
 54113  1  0  0  0  0
 55 56  1  0  0  0  0
 56 58  1  0  0  0  0
 56114  1  0  0  0  0
 56115  1  0  0  0  0
 58 59  1  0  0  0  0
 58116  1  0  0  0  0
 58117  1  0  0  0  0
M  END
> <PUBCHEM_COMPOUND_CID>
507060
> <PUBCHEM_COMPOUND_CANONICALIZED>
1
> <PUBCHEM_CACTVS_COMPLEXITY>
1620
> <PUBCHEM_CACTVS_HBOND_ACCEPTOR>
12
> <PUBCHEM_CACTVS_HBOND_DONOR>
8
> <PUBCHEM_CACTVS_ROTATABLE_BOND>
24
> <PUBCHEM_CACTVS_SUBSKEYS>
AAADcfB/vABAAAAAAAAAAAAAGAAAAAAAAAAwYAAAAAAAAAABAAAAHgQQSAAADajB0AQyCYLAAgKIACHSGHBCABAgAAAIiJmIAIgIYDKAkTCUYAAklgCIiAe/n4KOAAAAAAAAAAAAAAAAAAAAAAAAAAAAAA==
> <PUBCHEM_IUPAC_OPENEYE_NAME>
(4R)-5-[[(1S)-1-[[(1S,2S)-1-[[(1S)-2-[[1-(benzenesulfonylcarbamoyl)cyclopropyl]amino]-1-(cyclohexylmethyl)-2-oxo-ethyl]carbamoyl]-2-methyl-butyl]carbamoyl]-3-methyl-butyl]amino]-4-(3-carboxypropanoylamino)-5-oxo-pentanoic acid
> <PUBCHEM_IUPAC_CAS_NAME>
(4R)-5-[[(2S)-1-[[(2S,3S)-1-[[(2S)-1-[[1-[benzenesulfonamido(oxo)methyl]cyclopropyl]amino]-3-cyclohexyl-1-oxopropan-2-yl]amino]-3-methyl-1-oxopentan-2-yl]amino]-4-methyl-1-oxopentan-2-yl]amino]-4-[(3-carboxy-1-oxopropyl)amino]-5-oxopentanoic acid
> <PUBCHEM_IUPAC_NAME_MARKUP>
(4<I>R</I>)-5-[[(2<I>S</I>)-1-[[(2<I>S</I>,3<I>S</I>)-1-[[(2<I>S</I>)-1-[[1-(benzenesulfonylcarbamoyl)cyclopropyl]amino]-3-cyclohexyl-1-oxopropan-2-yl]amino]-3-methyl-1-oxopentan-2-yl]amino]-4-methyl-1-oxopentan-2-yl]amino]-4-(3-carboxypropanoylamino)-5-oxopentanoic acid
> <PUBCHEM_IUPAC_NAME>
(4R)-5-[[(2S)-1-[[(2S,3S)-1-[[(2S)-1-[[1-(benzenesulfonylcarbamoyl)cyclopropyl]amino]-3-cyclohexyl-1-oxopropan-2-yl]amino]-3-methyl-1-oxopentan-2-yl]amino]-4-methyl-1-oxopentan-2-yl]amino]-4-(3-carboxypropanoylamino)-5-oxopentanoic acid
> <PUBCHEM_IUPAC_SYSTEMATIC_NAME>
(4R)-5-[[(2S)-1-[[(2S,3S)-1-[[(2S)-3-cyclohexyl-1-oxidanylidene-1-[[1-(phenylsulfonylcarbamoyl)cyclopropyl]amino]propan-2-yl]amino]-3-methyl-1-oxidanylidene-pentan-2-yl]amino]-4-methyl-1-oxidanylidene-pentan-2-yl]amino]-5-oxidanylidene-4-[(4-oxidanyl-4-oxidanylidene-butanoyl)amino]pentanoic acid
> <PUBCHEM_IUPAC_TRADITIONAL_NAME>
(4R)-5-[[(1S)-1-[[(1S,2S)-1-[[(1S)-2-[[1-(besylcarbamoyl)cyclopropyl]amino]-1-(cyclohexylmethyl)-2-keto-ethyl]carbamoyl]-2-methyl-butyl]carbamoyl]-3-methyl-butyl]amino]-4-(3-carboxypropanoylamino)-5-keto-valeric acid
> <PUBCHEM_IUPAC_INCHI>
InChI=1S/C40H60N6O12S/c1-5-25(4)34(44-36(53)29(22-24(2)3)42-35(52)28(16-18-32(48)49)41-31(47)17-19-33(50)51)38(55)43-30(23-26-12-8-6-9-13-26)37(54)45-40(20-21-40)39(56)46-59(57,58)27-14-10-7-11-15-27/h7,10-11,14-15,24-26,28-30,34H,5-6,8-9,12-13,16-23H2,1-4H3,(H,41,47)(H,42,52)(H,43,55)(H,44,53)(H,45,54)(H,46,56)(H,48,49)(H,50,51)/t25-,28+,29-,30-,34-/m0/s1
> <PUBCHEM_IUPAC_INCHIKEY>
FXKLWTBLHCNIMQ-VEINCKGESA-N
> <PUBCHEM_XLOGP3_AA>
3.6
> <PUBCHEM_EXACT_MASS>
848.39899254
> <PUBCHEM_MOLECULAR_FORMULA>
C40H60N6O12S
> <PUBCHEM_MOLECULAR_WEIGHT>
849.0
> <PUBCHEM_OPENEYE_CAN_SMILES>
CCC(C)C(C(=O)NC(CC1CCCCC1)C(=O)NC2(CC2)C(=O)NS(=O)(=O)C3=CC=CC=C3)NC(=O)C(CC(C)C)NC(=O)C(CCC(=O)O)NC(=O)CCC(=O)O
> <PUBCHEM_OPENEYE_ISO_SMILES>
CC[C@H](C)[C@@H](C(=O)N[C@@H](CC1CCCCC1)C(=O)NC2(CC2)C(=O)NS(=O)(=O)C3=CC=CC=C3)NC(=O)[C@H](CC(C)C)NC(=O)[C@@H](CCC(=O)O)NC(=O)CCC(=O)O
> <PUBCHEM_CACTVS_TPSA>
292
> <PUBCHEM_MONOISOTOPIC_WEIGHT>
848.39899254
> <PUBCHEM_TOTAL_CHARGE>
0
> <PUBCHEM_HEAVY_ATOM_COUNT>
59
> <PUBCHEM_ATOM_DEF_STEREO_COUNT>
5
> <PUBCHEM_ATOM_UDEF_STEREO_COUNT>
0
> <PUBCHEM_BOND_DEF_STEREO_COUNT>
0
> <PUBCHEM_BOND_UDEF_STEREO_COUNT>
0
> <PUBCHEM_ISOTOPIC_ATOM_COUNT>
0
> <PUBCHEM_COMPONENT_COUNT>
1
> <PUBCHEM_CACTVS_TAUTO_COUNT>
-1
> <PUBCHEM_COORDINATE_TYPE>
1
5
255
> <PUBCHEM_BONDANNOTATIONS>
25  16  5
34  17  5
42  18  6
52  19  5
35  38  6
36  39  8
36  40  8
39  45  8
40  46  8
45  48  8
46  48  8
$$$$
