507071
  -OEChem-10302200282D
130131  0     1  0  0  0  0  0999 V2000
    8.0622   -6.8100    0.0000 O   0  0  0  0  0  0  0  0  0  0  0  0
    5.4641   -4.3100    0.0000 O   0  0  0  0  0  0  0  0  0  0  0  0
    6.3301   -0.8100    0.0000 O   0  0  0  0  0  0  0  0  0  0  0  0
   10.6603   -7.3100    0.0000 O   0  0  0  0  0  0  0  0  0  0  0  0
    8.9282   -7.3100    0.0000 O   0  0  0  0  0  0  0  0  0  0  0  0
    6.3301    0.1900    0.0000 O   0  0  0  0  0  0  0  0  0  0  0  0
    5.4641    3.6900    0.0000 O   0  0  0  0  0  0  0  0  0  0  0  0
    3.7320    4.6900    0.0000 O   0  0  0  0  0  0  0  0  0  0  0  0
    2.8660    3.1900    0.0000 O   0  0  0  0  0  0  0  0  0  0  0  0
    8.9282    4.6900    0.0000 O   0  0  0  0  0  0  0  0  0  0  0  0
   10.6603    3.6900    0.0000 O   0  0  0  0  0  0  0  0  0  0  0  0
    9.7942    2.1900    0.0000 O   0  0  0  0  0  0  0  0  0  0  0  0
    9.7942    8.1900    0.0000 O   0  0  0  0  0  0  0  0  0  0  0  0
    8.0622    8.1900    0.0000 O   0  0  0  0  0  0  0  0  0  0  0  0
    7.1962   -4.3100    0.0000 N   0  0  0  0  0  0  0  0  0  0  0  0
    8.9282   -5.3100    0.0000 N   0  0  0  0  0  0  0  0  0  0  0  0
    5.4641   -2.3100    0.0000 N   0  0  0  0  0  0  0  0  0  0  0  0
    4.5981    0.1900    0.0000 N   0  0  0  0  0  0  0  0  0  0  0  0
    6.3301    2.1900    0.0000 N   0  0  0  0  0  0  0  0  0  0  0  0
    7.1962    4.6900    0.0000 N   0  0  0  0  0  0  0  0  0  0  0  0
    6.3301   -6.8100    0.0000 C   0  0  0  0  0  0  0  0  0  0  0  0
    5.4641   -7.3100    0.0000 C   0  0  0  0  0  0  0  0  0  0  0  0
    7.1962   -7.3100    0.0000 C   0  0  0  0  0  0  0  0  0  0  0  0
    6.3301   -5.8100    0.0000 C   0  0  0  0  0  0  0  0  0  0  0  0
    5.4641   -8.3100    0.0000 C   0  0  0  0  0  0  0  0  0  0  0  0
    7.1962   -8.3100    0.0000 C   0  0  0  0  0  0  0  0  0  0  0  0
    6.3301   -8.8100    0.0000 C   0  0  0  0  0  0  0  0  0  0  0  0
    7.1962   -5.3100    0.0000 C   0  0  1  0  0  0  0  0  0  0  0  0
    8.0622   -5.8100    0.0000 C   0  0  0  0  0  0  0  0  0  0  0  0
    6.3301   -2.8100    0.0000 C   0  0  2  0  0  0  0  0  0  0  0  0
    6.3301   -3.8100    0.0000 C   0  0  0  0  0  0  0  0  0  0  0  0
    7.1962   -2.3100    0.0000 C   0  0  2  0  0  0  0  0  0  0  0  0
    9.7942   -5.8100    0.0000 C   0  0  1  0  0  0  0  0  0  0  0  0
    7.1962   -1.3100    0.0000 C   0  0  0  0  0  0  0  0  0  0  0  0
    8.0622   -2.8100    0.0000 C   0  0  0  0  0  0  0  0  0  0  0  0
    4.5981   -0.8100    0.0000 C   0  0  2  0  0  0  0  0  0  0  0  0
    5.4641   -1.3100    0.0000 C   0  0  0  0  0  0  0  0  0  0  0  0
   10.6603   -5.3100    0.0000 C   0  0  0  0  0  0  0  0  0  0  0  0
    3.7320   -1.3100    0.0000 C   0  0  0  0  0  0  0  0  0  0  0  0
    8.0622   -0.8100    0.0000 C   0  0  0  0  0  0  0  0  0  0  0  0
    2.8660   -0.8100    0.0000 C   0  0  0  0  0  0  0  0  0  0  0  0
    9.7942   -6.8100    0.0000 C   0  0  0  0  0  0  0  0  0  0  0  0
   11.5263   -5.8100    0.0000 C   0  0  0  0  0  0  0  0  0  0  0  0
    2.0000   -1.3100    0.0000 C   0  0  0  0  0  0  0  0  0  0  0  0
    2.8660    0.1900    0.0000 C   0  0  0  0  0  0  0  0  0  0  0  0
    5.4641    0.6900    0.0000 C   0  0  0  0  0  0  0  0  0  0  0  0
    5.4641    1.6900    0.0000 C   0  0  1  0  0  0  0  0  0  0  0  0
    4.5981    2.1900    0.0000 C   0  0  0  0  0  0  0  0  0  0  0  0
   12.3923   -5.3100    0.0000 C   0  0  0  0  0  0  0  0  0  0  0  0
   11.5263   -6.8100    0.0000 C   0  0  0  0  0  0  0  0  0  0  0  0
    4.5981    3.1900    0.0000 C   0  0  0  0  0  0  0  0  0  0  0  0
    7.1962    3.6900    0.0000 C   0  0  2  0  0  0  0  0  0  0  0  0
    6.3301    3.1900    0.0000 C   0  0  0  0  0  0  0  0  0  0  0  0
   13.2583   -5.8100    0.0000 C   0  0  0  0  0  0  0  0  0  0  0  0
   12.3923   -7.3100    0.0000 C   0  0  0  0  0  0  0  0  0  0  0  0
   13.2583   -6.8100    0.0000 C   0  0  0  0  0  0  0  0  0  0  0  0
    8.0622    3.1900    0.0000 C   0  0  0  0  0  0  0  0  0  0  0  0
    3.7320    3.6900    0.0000 C   0  0  0  0  0  0  0  0  0  0  0  0
    8.9282    3.6900    0.0000 C   0  0  0  0  0  0  0  0  0  0  0  0
    8.0622    5.1900    0.0000 C   0  0  0  0  0  0  0  0  0  0  0  0
    8.0622    6.1900    0.0000 C   0  0  0  0  0  0  0  0  0  0  0  0
    9.7942    3.1900    0.0000 C   0  0  0  0  0  0  0  0  0  0  0  0
    8.9282    6.6900    0.0000 C   0  0  0  0  0  0  0  0  0  0  0  0
    8.9282    7.6900    0.0000 C   0  0  0  0  0  0  0  0  0  0  0  0
    6.8671   -6.5000    0.0000 H   0  0  0  0  0  0  0  0  0  0  0  0
    5.2520   -6.7274    0.0000 H   0  0  0  0  0  0  0  0  0  0  0  0
    4.8535   -7.4177    0.0000 H   0  0  0  0  0  0  0  0  0  0  0  0
    7.8067   -7.4177    0.0000 H   0  0  0  0  0  0  0  0  0  0  0  0
    7.4082   -6.7274    0.0000 H   0  0  0  0  0  0  0  0  0  0  0  0
    6.1181   -5.2274    0.0000 H   0  0  0  0  0  0  0  0  0  0  0  0
    5.7196   -5.9177    0.0000 H   0  0  0  0  0  0  0  0  0  0  0  0
    4.8535   -8.2023    0.0000 H   0  0  0  0  0  0  0  0  0  0  0  0
    5.2520   -8.8926    0.0000 H   0  0  0  0  0  0  0  0  0  0  0  0
    7.4082   -8.8926    0.0000 H   0  0  0  0  0  0  0  0  0  0  0  0
    7.8067   -8.2023    0.0000 H   0  0  0  0  0  0  0  0  0  0  0  0
    5.9316   -9.2850    0.0000 H   0  0  0  0  0  0  0  0  0  0  0  0
    6.7287   -9.2850    0.0000 H   0  0  0  0  0  0  0  0  0  0  0  0
    6.6592   -5.0000    0.0000 H   0  0  0  0  0  0  0  0  0  0  0  0
    7.7331   -4.0000    0.0000 H   0  0  0  0  0  0  0  0  0  0  0  0
    5.7932   -3.1200    0.0000 H   0  0  0  0  0  0  0  0  0  0  0  0
    7.7331   -2.0000    0.0000 H   0  0  0  0  0  0  0  0  0  0  0  0
    8.9282   -4.6900    0.0000 H   0  0  0  0  0  0  0  0  0  0  0  0
    9.2573   -6.1200    0.0000 H   0  0  0  0  0  0  0  0  0  0  0  0
    4.9272   -2.6200    0.0000 H   0  0  0  0  0  0  0  0  0  0  0  0
    6.9841   -0.7274    0.0000 H   0  0  0  0  0  0  0  0  0  0  0  0
    6.5856   -1.4177    0.0000 H   0  0  0  0  0  0  0  0  0  0  0  0
    7.7522   -3.3469    0.0000 H   0  0  0  0  0  0  0  0  0  0  0  0
    8.5991   -3.1200    0.0000 H   0  0  0  0  0  0  0  0  0  0  0  0
    8.3722   -2.2731    0.0000 H   0  0  0  0  0  0  0  0  0  0  0  0
    5.1350   -0.5000    0.0000 H   0  0  0  0  0  0  0  0  0  0  0  0
   11.0588   -4.8350    0.0000 H   0  0  0  0  0  0  0  0  0  0  0  0
   10.2617   -4.8350    0.0000 H   0  0  0  0  0  0  0  0  0  0  0  0
    3.3335   -1.7850    0.0000 H   0  0  0  0  0  0  0  0  0  0  0  0
    4.1306   -1.7850    0.0000 H   0  0  0  0  0  0  0  0  0  0  0  0
    8.3722   -1.3469    0.0000 H   0  0  0  0  0  0  0  0  0  0  0  0
    8.5991   -0.5000    0.0000 H   0  0  0  0  0  0  0  0  0  0  0  0
    7.7522   -0.2731    0.0000 H   0  0  0  0  0  0  0  0  0  0  0  0
    2.8660   -1.4300    0.0000 H   0  0  0  0  0  0  0  0  0  0  0  0
    4.0611    0.5000    0.0000 H   0  0  0  0  0  0  0  0  0  0  0  0
    1.6900   -0.7731    0.0000 H   0  0  0  0  0  0  0  0  0  0  0  0
    1.4631   -1.6200    0.0000 H   0  0  0  0  0  0  0  0  0  0  0  0
    2.3100   -1.8469    0.0000 H   0  0  0  0  0  0  0  0  0  0  0  0
    3.4860    0.1900    0.0000 H   0  0  0  0  0  0  0  0  0  0  0  0
    2.8660    0.8100    0.0000 H   0  0  0  0  0  0  0  0  0  0  0  0
    2.2460    0.1900    0.0000 H   0  0  0  0  0  0  0  0  0  0  0  0
    5.4641    2.3100    0.0000 H   0  0  0  0  0  0  0  0  0  0  0  0
    3.9875    2.2977    0.0000 H   0  0  0  0  0  0  0  0  0  0  0  0
    4.3860    1.6074    0.0000 H   0  0  0  0  0  0  0  0  0  0  0  0
   12.3923   -4.6900    0.0000 H   0  0  0  0  0  0  0  0  0  0  0  0
   10.9893   -7.1200    0.0000 H   0  0  0  0  0  0  0  0  0  0  0  0
   10.6603   -7.9300    0.0000 H   0  0  0  0  0  0  0  0  0  0  0  0
    6.8671    1.8800    0.0000 H   0  0  0  0  0  0  0  0  0  0  0  0
    5.2087    3.0823    0.0000 H   0  0  0  0  0  0  0  0  0  0  0  0
    4.8101    3.7726    0.0000 H   0  0  0  0  0  0  0  0  0  0  0  0
    6.6592    4.0000    0.0000 H   0  0  0  0  0  0  0  0  0  0  0  0
   13.7953   -5.5000    0.0000 H   0  0  0  0  0  0  0  0  0  0  0  0
   12.3923   -7.9300    0.0000 H   0  0  0  0  0  0  0  0  0  0  0  0
   13.7953   -7.1200    0.0000 H   0  0  0  0  0  0  0  0  0  0  0  0
    7.6636    2.7151    0.0000 H   0  0  0  0  0  0  0  0  0  0  0  0
    8.4607    2.7151    0.0000 H   0  0  0  0  0  0  0  0  0  0  0  0
    6.6592    5.0000    0.0000 H   0  0  0  0  0  0  0  0  0  0  0  0
    9.3267    4.1650    0.0000 H   0  0  0  0  0  0  0  0  0  0  0  0
    8.5297    4.1650    0.0000 H   0  0  0  0  0  0  0  0  0  0  0  0
    7.8501    6.7726    0.0000 H   0  0  0  0  0  0  0  0  0  0  0  0
    7.4516    6.0823    0.0000 H   0  0  0  0  0  0  0  0  0  0  0  0
    3.1951    5.0000    0.0000 H   0  0  0  0  0  0  0  0  0  0  0  0
    9.1403    6.1074    0.0000 H   0  0  0  0  0  0  0  0  0  0  0  0
    9.5388    6.7977    0.0000 H   0  0  0  0  0  0  0  0  0  0  0  0
   11.1972    3.3800    0.0000 H   0  0  0  0  0  0  0  0  0  0  0  0
    9.7942    8.8100    0.0000 H   0  0  0  0  0  0  0  0  0  0  0  0
  1 29  2  0  0  0  0
  2 31  2  0  0  0  0
  3 37  2  0  0  0  0
  4 42  1  0  0  0  0
  4111  1  0  0  0  0
  5 42  2  0  0  0  0
  6 46  2  0  0  0  0
  7 53  2  0  0  0  0
  8 58  1  0  0  0  0
  8126  1  0  0  0  0
  9 58  2  0  0  0  0
 10 60  2  0  0  0  0
 11 62  1  0  0  0  0
 11129  1  0  0  0  0
 12 62  2  0  0  0  0
 13 64  1  0  0  0  0
 13130  1  0  0  0  0
 14 64  2  0  0  0  0
 28 15  1  6  0  0  0
 15 31  1  0  0  0  0
 15 79  1  0  0  0  0
 16 29  1  0  0  0  0
 33 16  1  1  0  0  0
 16 82  1  0  0  0  0
 30 17  1  1  0  0  0
 17 37  1  0  0  0  0
 17 84  1  0  0  0  0
 36 18  1  6  0  0  0
 18 46  1  0  0  0  0
 18 99  1  0  0  0  0
 47 19  1  1  0  0  0
 19 53  1  0  0  0  0
 19112  1  0  0  0  0
 52 20  1  1  0  0  0
 20 60  1  0  0  0  0
 20121  1  0  0  0  0
 21 22  1  0  0  0  0
 21 23  1  0  0  0  0
 21 24  1  0  0  0  0
 21 65  1  0  0  0  0
 22 25  1  0  0  0  0
 22 66  1  0  0  0  0
 22 67  1  0  0  0  0
 23 26  1  0  0  0  0
 23 68  1  0  0  0  0
 23 69  1  0  0  0  0
 24 28  1  0  0  0  0
 24 70  1  0  0  0  0
 24 71  1  0  0  0  0
 25 27  1  0  0  0  0
 25 72  1  0  0  0  0
 25 73  1  0  0  0  0
 26 27  1  0  0  0  0
 26 74  1  0  0  0  0
 26 75  1  0  0  0  0
 27 76  1  0  0  0  0
 27 77  1  0  0  0  0
 28 29  1  0  0  0  0
 28 78  1  0  0  0  0
 30 31  1  0  0  0  0
 30 32  1  0  0  0  0
 30 80  1  0  0  0  0
 32 34  1  0  0  0  0
 32 35  1  6  0  0  0
 32 81  1  0  0  0  0
 33 38  1  0  0  0  0
 33 42  1  0  0  0  0
 33 83  1  0  0  0  0
 34 40  1  0  0  0  0
 34 85  1  0  0  0  0
 34 86  1  0  0  0  0
 35 87  1  0  0  0  0
 35 88  1  0  0  0  0
 35 89  1  0  0  0  0
 36 37  1  0  0  0  0
 36 39  1  0  0  0  0
 36 90  1  0  0  0  0
 38 43  1  0  0  0  0
 38 91  1  0  0  0  0
 38 92  1  0  0  0  0
 39 41  1  0  0  0  0
 39 93  1  0  0  0  0
 39 94  1  0  0  0  0
 40 95  1  0  0  0  0
 40 96  1  0  0  0  0
 40 97  1  0  0  0  0
 41 44  1  0  0  0  0
 41 45  1  0  0  0  0
 41 98  1  0  0  0  0
 43 49  2  0  0  0  0
 43 50  1  0  0  0  0
 44100  1  0  0  0  0
 44101  1  0  0  0  0
 44102  1  0  0  0  0
 45103  1  0  0  0  0
 45104  1  0  0  0  0
 45105  1  0  0  0  0
 46 47  1  0  0  0  0
 47 48  1  0  0  0  0
 47106  1  0  0  0  0
 48 51  1  0  0  0  0
 48107  1  0  0  0  0
 48108  1  0  0  0  0
 49 54  1  0  0  0  0
 49109  1  0  0  0  0
 50 55  2  0  0  0  0
 50110  1  0  0  0  0
 51 58  1  0  0  0  0
 51113  1  0  0  0  0
 51114  1  0  0  0  0
 52 53  1  0  0  0  0
 52 57  1  0  0  0  0
 52115  1  0  0  0  0
 54 56  2  0  0  0  0
 54116  1  0  0  0  0
 55 56  1  0  0  0  0
 55117  1  0  0  0  0
 56118  1  0  0  0  0
 57 59  1  0  0  0  0
 57119  1  0  0  0  0
 57120  1  0  0  0  0
 59 62  1  0  0  0  0
 59122  1  0  0  0  0
 59123  1  0  0  0  0
 60 61  1  0  0  0  0
 61 63  1  0  0  0  0
 61124  1  0  0  0  0
 61125  1  0  0  0  0
 63 64  1  0  0  0  0
 63127  1  0  0  0  0
 63128  1  0  0  0  0
M  END
> <PUBCHEM_COMPOUND_CID>
507071
> <PUBCHEM_COMPOUND_CANONICALIZED>
1
> <PUBCHEM_CACTVS_COMPLEXITY>
1610
> <PUBCHEM_CACTVS_HBOND_ACCEPTOR>
14
> <PUBCHEM_CACTVS_HBOND_DONOR>
10
> <PUBCHEM_CACTVS_ROTATABLE_BOND>
29
> <PUBCHEM_CACTVS_SUBSKEYS>
AAADcfB/vAAAAAAAAAAAAAAAAAAAAAAAAAAwYAAAAAAAAAABAAAAHgAQCAAADSjBmAQyCILAAgCIAiHSGAACAAAgAAAIiIGIAIgKYDKAkTGUYAAklgCYiAe/36KOAAAAAAAAAAAAAAAAAAAAAAAAAAAAAA==
> <PUBCHEM_IUPAC_OPENEYE_NAME>
(4S)-5-[[(1R)-3-carboxy-1-[[(1S)-1-[[(1S,2S)-1-[[(1S)-2-[[(1S)-1-carboxy-2-phenyl-ethyl]amino]-1-(cyclohexylmethyl)-2-oxo-ethyl]carbamoyl]-2-methyl-butyl]carbamoyl]-3-methyl-butyl]carbamoyl]propyl]amino]-4-(3-carboxypropanoylamino)-5-oxo-pentanoic acid
> <PUBCHEM_IUPAC_CAS_NAME>
(4S)-5-[[(2R)-4-carboxy-1-[[(2S)-1-[[(2S,3S)-1-[[(2S)-1-[[(1S)-1-carboxy-2-phenylethyl]amino]-3-cyclohexyl-1-oxopropan-2-yl]amino]-3-methyl-1-oxopentan-2-yl]amino]-4-methyl-1-oxopentan-2-yl]amino]-1-oxobutan-2-yl]amino]-4-[(3-carboxy-1-oxopropyl)amino]-5-oxopentanoic acid
> <PUBCHEM_IUPAC_NAME_MARKUP>
(4<I>S</I>)-5-[[(2<I>R</I>)-4-carboxy-1-[[(2<I>S</I>)-1-[[(2<I>S</I>,3<I>S</I>)-1-[[(2<I>S</I>)-1-[[(1<I>S</I>)-1-carboxy-2-phenylethyl]amino]-3-cyclohexyl-1-oxopropan-2-yl]amino]-3-methyl-1-oxopentan-2-yl]amino]-4-methyl-1-oxopentan-2-yl]amino]-1-oxobutan-2-yl]amino]-4-(3-carboxypropanoylamino)-5-oxopentanoic acid
> <PUBCHEM_IUPAC_NAME>
(4S)-5-[[(2R)-4-carboxy-1-[[(2S)-1-[[(2S,3S)-1-[[(2S)-1-[[(1S)-1-carboxy-2-phenylethyl]amino]-3-cyclohexyl-1-oxopropan-2-yl]amino]-3-methyl-1-oxopentan-2-yl]amino]-4-methyl-1-oxopentan-2-yl]amino]-1-oxobutan-2-yl]amino]-4-(3-carboxypropanoylamino)-5-oxopentanoic acid
> <PUBCHEM_IUPAC_SYSTEMATIC_NAME>
(4S)-5-[[(2R)-1-[[(2S)-1-[[(2S,3S)-1-[[(2S)-3-cyclohexyl-1-oxidanylidene-1-[[(2S)-1-oxidanyl-1-oxidanylidene-3-phenyl-propan-2-yl]amino]propan-2-yl]amino]-3-methyl-1-oxidanylidene-pentan-2-yl]amino]-4-methyl-1-oxidanylidene-pentan-2-yl]amino]-5-oxidanyl-1,5-bis(oxidanylidene)pentan-2-yl]amino]-5-oxidanylidene-4-[(4-oxidanyl-4-oxidanylidene-butanoyl)amino]pentanoic acid
> <PUBCHEM_IUPAC_TRADITIONAL_NAME>
(4S)-5-[[(1R)-3-carboxy-1-[[(1S)-1-[[(1S,2S)-1-[[(1S)-2-[[(1S)-1-carboxy-2-phenyl-ethyl]amino]-1-(cyclohexylmethyl)-2-keto-ethyl]carbamoyl]-2-methyl-butyl]carbamoyl]-3-methyl-butyl]carbamoyl]propyl]amino]-4-(3-carboxypropanoylamino)-5-keto-valeric acid
> <PUBCHEM_IUPAC_INCHI>
InChI=1S/C44H66N6O14/c1-5-26(4)38(43(62)48-32(23-27-12-8-6-9-13-27)41(60)49-33(44(63)64)24-28-14-10-7-11-15-28)50-42(61)31(22-25(2)3)47-40(59)30(17-20-36(54)55)46-39(58)29(16-19-35(52)53)45-34(51)18-21-37(56)57/h7,10-11,14-15,25-27,29-33,38H,5-6,8-9,12-13,16-24H2,1-4H3,(H,45,51)(H,46,58)(H,47,59)(H,48,62)(H,49,60)(H,50,61)(H,52,53)(H,54,55)(H,56,57)(H,63,64)/t26-,29-,30+,31-,32-,33-,38-/m0/s1
> <PUBCHEM_IUPAC_INCHIKEY>
KUCLYLONBHNDIW-OSDJWFIKSA-N
> <PUBCHEM_XLOGP3_AA>
3.6
> <PUBCHEM_EXACT_MASS>
902.46370080
> <PUBCHEM_MOLECULAR_FORMULA>
C44H66N6O14
> <PUBCHEM_MOLECULAR_WEIGHT>
903.0
> <PUBCHEM_OPENEYE_CAN_SMILES>
CCC(C)C(C(=O)NC(CC1CCCCC1)C(=O)NC(CC2=CC=CC=C2)C(=O)O)NC(=O)C(CC(C)C)NC(=O)C(CCC(=O)O)NC(=O)C(CCC(=O)O)NC(=O)CCC(=O)O
> <PUBCHEM_OPENEYE_ISO_SMILES>
CC[C@H](C)[C@@H](C(=O)N[C@@H](CC1CCCCC1)C(=O)N[C@@H](CC2=CC=CC=C2)C(=O)O)NC(=O)[C@H](CC(C)C)NC(=O)[C@@H](CCC(=O)O)NC(=O)[C@H](CCC(=O)O)NC(=O)CCC(=O)O
> <PUBCHEM_CACTVS_TPSA>
324
> <PUBCHEM_MONOISOTOPIC_WEIGHT>
902.46370080
> <PUBCHEM_TOTAL_CHARGE>
0
> <PUBCHEM_HEAVY_ATOM_COUNT>
64
> <PUBCHEM_ATOM_DEF_STEREO_COUNT>
7
> <PUBCHEM_ATOM_UDEF_STEREO_COUNT>
0
> <PUBCHEM_BOND_DEF_STEREO_COUNT>
0
> <PUBCHEM_BOND_UDEF_STEREO_COUNT>
0
> <PUBCHEM_ISOTOPIC_ATOM_COUNT>
0
> <PUBCHEM_COMPONENT_COUNT>
1
> <PUBCHEM_CACTVS_TAUTO_COUNT>
-1
> <PUBCHEM_COORDINATE_TYPE>
1
5
255
> <PUBCHEM_BONDANNOTATIONS>
28  15  6
33  16  5
30  17  5
36  18  6
47  19  5
52  20  5
32  35  6
43  49  8
43  50  8
49  54  8
50  55  8
54  56  8
55  56  8
$$$$
