507074
  -OEChem-10302200282D
140141  0     1  0  0  0  0  0999 V2000
    4.5981   -7.8100    0.0000 S   0  0  0  0  0  0  0  0  0  0  0  0
    5.4641   -3.3100    0.0000 O   0  0  0  0  0  0  0  0  0  0  0  0
    5.4641   -2.3100    0.0000 O   0  0  0  0  0  0  0  0  0  0  0  0
    6.3301    1.1900    0.0000 O   0  0  0  0  0  0  0  0  0  0  0  0
    6.3301   -6.8100    0.0000 O   0  0  0  0  0  0  0  0  0  0  0  0
    6.3301    2.1900    0.0000 O   0  0  0  0  0  0  0  0  0  0  0  0
    5.5981   -7.8100    0.0000 O   0  0  0  0  0  0  0  0  0  0  0  0
    3.5981   -7.8100    0.0000 O   0  0  0  0  0  0  0  0  0  0  0  0
    5.4641    5.6900    0.0000 O   0  0  0  0  0  0  0  0  0  0  0  0
    3.7320    6.6900    0.0000 O   0  0  0  0  0  0  0  0  0  0  0  0
    2.8660    5.1900    0.0000 O   0  0  0  0  0  0  0  0  0  0  0  0
    8.9282    6.6900    0.0000 O   0  0  0  0  0  0  0  0  0  0  0  0
   10.6603    5.6900    0.0000 O   0  0  0  0  0  0  0  0  0  0  0  0
    9.7942    4.1900    0.0000 O   0  0  0  0  0  0  0  0  0  0  0  0
    9.7942   10.1900    0.0000 O   0  0  0  0  0  0  0  0  0  0  0  0
    8.0622   10.1900    0.0000 O   0  0  0  0  0  0  0  0  0  0  0  0
    7.1962   -2.3100    0.0000 N   0  0  0  0  0  0  0  0  0  0  0  0
    6.3301   -4.8100    0.0000 N   0  0  0  0  0  0  0  0  0  0  0  0
    5.4641   -0.3100    0.0000 N   0  0  0  0  0  0  0  0  0  0  0  0
    4.5981    2.1900    0.0000 N   0  0  0  0  0  0  0  0  0  0  0  0
    4.5981   -6.8100    0.0000 N   0  0  0  0  0  0  0  0  0  0  0  0
    6.3301    4.1900    0.0000 N   0  0  0  0  0  0  0  0  0  0  0  0
    7.1962    6.6900    0.0000 N   0  0  0  0  0  0  0  0  0  0  0  0
    8.9282   -3.3100    0.0000 C   0  0  0  0  0  0  0  0  0  0  0  0
    9.7942   -3.8100    0.0000 C   0  0  0  0  0  0  0  0  0  0  0  0
    8.9282   -2.3100    0.0000 C   0  0  0  0  0  0  0  0  0  0  0  0
    8.0622   -3.8100    0.0000 C   0  0  0  0  0  0  0  0  0  0  0  0
   10.6603   -3.3100    0.0000 C   0  0  0  0  0  0  0  0  0  0  0  0
    9.7942   -1.8100    0.0000 C   0  0  0  0  0  0  0  0  0  0  0  0
   10.6603   -2.3100    0.0000 C   0  0  0  0  0  0  0  0  0  0  0  0
    7.1962   -3.3100    0.0000 C   0  0  1  0  0  0  0  0  0  0  0  0
    6.3301   -3.8100    0.0000 C   0  0  0  0  0  0  0  0  0  0  0  0
    6.3301   -0.8100    0.0000 C   0  0  2  0  0  0  0  0  0  0  0  0
    6.3301   -1.8100    0.0000 C   0  0  0  0  0  0  0  0  0  0  0  0
    7.1962   -0.3100    0.0000 C   0  0  2  0  0  0  0  0  0  0  0  0
    5.4641   -5.3100    0.0000 C   0  0  1  0  0  0  0  0  0  0  0  0
    7.1962    0.6900    0.0000 C   0  0  0  0  0  0  0  0  0  0  0  0
    8.0622   -0.8100    0.0000 C   0  0  0  0  0  0  0  0  0  0  0  0
    4.5981   -4.8100    0.0000 C   0  0  0  0  0  0  0  0  0  0  0  0
    4.5981    1.1900    0.0000 C   0  0  2  0  0  0  0  0  0  0  0  0
    5.4641    0.6900    0.0000 C   0  0  0  0  0  0  0  0  0  0  0  0
    5.4641   -6.3100    0.0000 C   0  0  0  0  0  0  0  0  0  0  0  0
    3.7320    0.6900    0.0000 C   0  0  0  0  0  0  0  0  0  0  0  0
    8.0622    1.1900    0.0000 C   0  0  0  0  0  0  0  0  0  0  0  0
    4.5981   -3.8100    0.0000 C   0  0  0  0  0  0  0  0  0  0  0  0
    2.8660    1.1900    0.0000 C   0  0  0  0  0  0  0  0  0  0  0  0
    3.7320   -3.3100    0.0000 C   0  0  0  0  0  0  0  0  0  0  0  0
    2.0000    0.6900    0.0000 C   0  0  0  0  0  0  0  0  0  0  0  0
    2.8660    2.1900    0.0000 C   0  0  0  0  0  0  0  0  0  0  0  0
    5.4641    2.6900    0.0000 C   0  0  0  0  0  0  0  0  0  0  0  0
    5.4641    3.6900    0.0000 C   0  0  1  0  0  0  0  0  0  0  0  0
    4.5981    4.1900    0.0000 C   0  0  0  0  0  0  0  0  0  0  0  0
    4.5981   -8.8100    0.0000 C   0  0  0  0  0  0  0  0  0  0  0  0
    4.5981    5.1900    0.0000 C   0  0  0  0  0  0  0  0  0  0  0  0
    6.3301    5.1900    0.0000 C   0  0  0  0  0  0  0  0  0  0  0  0
    7.1962    5.6900    0.0000 C   0  0  2  0  0  0  0  0  0  0  0  0
    8.0622    5.1900    0.0000 C   0  0  0  0  0  0  0  0  0  0  0  0
    5.4641   -9.3100    0.0000 C   0  0  0  0  0  0  0  0  0  0  0  0
    3.7320   -9.3100    0.0000 C   0  0  0  0  0  0  0  0  0  0  0  0
    3.7320    5.6900    0.0000 C   0  0  0  0  0  0  0  0  0  0  0  0
    8.9282    5.6900    0.0000 C   0  0  0  0  0  0  0  0  0  0  0  0
    5.4641  -10.3100    0.0000 C   0  0  0  0  0  0  0  0  0  0  0  0
    3.7320  -10.3100    0.0000 C   0  0  0  0  0  0  0  0  0  0  0  0
    8.0622    7.1900    0.0000 C   0  0  0  0  0  0  0  0  0  0  0  0
    4.5981  -10.8100    0.0000 C   0  0  0  0  0  0  0  0  0  0  0  0
    8.0622    8.1900    0.0000 C   0  0  0  0  0  0  0  0  0  0  0  0
    9.7942    5.1900    0.0000 C   0  0  0  0  0  0  0  0  0  0  0  0
    8.9282    8.6900    0.0000 C   0  0  0  0  0  0  0  0  0  0  0  0
    8.9282    9.6900    0.0000 C   0  0  0  0  0  0  0  0  0  0  0  0
    8.9282   -3.9300    0.0000 H   0  0  0  0  0  0  0  0  0  0  0  0
    9.3957   -4.2850    0.0000 H   0  0  0  0  0  0  0  0  0  0  0  0
   10.1928   -4.2850    0.0000 H   0  0  0  0  0  0  0  0  0  0  0  0
    8.7162   -1.7274    0.0000 H   0  0  0  0  0  0  0  0  0  0  0  0
    8.3176   -2.4177    0.0000 H   0  0  0  0  0  0  0  0  0  0  0  0
    7.6636   -4.2850    0.0000 H   0  0  0  0  0  0  0  0  0  0  0  0
    8.4607   -4.2850    0.0000 H   0  0  0  0  0  0  0  0  0  0  0  0
   10.8723   -3.8926    0.0000 H   0  0  0  0  0  0  0  0  0  0  0  0
   11.2708   -3.2023    0.0000 H   0  0  0  0  0  0  0  0  0  0  0  0
   10.1928   -1.3350    0.0000 H   0  0  0  0  0  0  0  0  0  0  0  0
    9.3957   -1.3350    0.0000 H   0  0  0  0  0  0  0  0  0  0  0  0
   11.2708   -2.4177    0.0000 H   0  0  0  0  0  0  0  0  0  0  0  0
   10.8723   -1.7274    0.0000 H   0  0  0  0  0  0  0  0  0  0  0  0
    6.6592   -3.0000    0.0000 H   0  0  0  0  0  0  0  0  0  0  0  0
    7.7331   -2.0000    0.0000 H   0  0  0  0  0  0  0  0  0  0  0  0
    5.7932   -1.1200    0.0000 H   0  0  0  0  0  0  0  0  0  0  0  0
    7.7331    0.0000    0.0000 H   0  0  0  0  0  0  0  0  0  0  0  0
    6.8671   -5.1200    0.0000 H   0  0  0  0  0  0  0  0  0  0  0  0
    5.4641   -4.6900    0.0000 H   0  0  0  0  0  0  0  0  0  0  0  0
    4.9272   -0.6200    0.0000 H   0  0  0  0  0  0  0  0  0  0  0  0
    6.9841    1.2726    0.0000 H   0  0  0  0  0  0  0  0  0  0  0  0
    6.5856    0.5823    0.0000 H   0  0  0  0  0  0  0  0  0  0  0  0
    7.7522   -1.3469    0.0000 H   0  0  0  0  0  0  0  0  0  0  0  0
    8.5991   -1.1200    0.0000 H   0  0  0  0  0  0  0  0  0  0  0  0
    8.3722   -0.2731    0.0000 H   0  0  0  0  0  0  0  0  0  0  0  0
    3.9875   -4.7023    0.0000 H   0  0  0  0  0  0  0  0  0  0  0  0
    4.3860   -5.3926    0.0000 H   0  0  0  0  0  0  0  0  0  0  0  0
    5.1350    1.5000    0.0000 H   0  0  0  0  0  0  0  0  0  0  0  0
    3.3335    0.2151    0.0000 H   0  0  0  0  0  0  0  0  0  0  0  0
    4.1306    0.2151    0.0000 H   0  0  0  0  0  0  0  0  0  0  0  0
    8.3722    0.6531    0.0000 H   0  0  0  0  0  0  0  0  0  0  0  0
    8.5991    1.5000    0.0000 H   0  0  0  0  0  0  0  0  0  0  0  0
    7.7522    1.7269    0.0000 H   0  0  0  0  0  0  0  0  0  0  0  0
    5.2087   -3.9177    0.0000 H   0  0  0  0  0  0  0  0  0  0  0  0
    4.8101   -3.2274    0.0000 H   0  0  0  0  0  0  0  0  0  0  0  0
    3.4030    1.5000    0.0000 H   0  0  0  0  0  0  0  0  0  0  0  0
    4.0611    2.5000    0.0000 H   0  0  0  0  0  0  0  0  0  0  0  0
    4.0611   -6.5000    0.0000 H   0  0  0  0  0  0  0  0  0  0  0  0
    4.0420   -2.7731    0.0000 H   0  0  0  0  0  0  0  0  0  0  0  0
    3.1951   -3.0000    0.0000 H   0  0  0  0  0  0  0  0  0  0  0  0
    3.4220   -3.8469    0.0000 H   0  0  0  0  0  0  0  0  0  0  0  0
    1.6900    1.2269    0.0000 H   0  0  0  0  0  0  0  0  0  0  0  0
    1.4631    0.3800    0.0000 H   0  0  0  0  0  0  0  0  0  0  0  0
    2.3100    0.1531    0.0000 H   0  0  0  0  0  0  0  0  0  0  0  0
    3.4860    2.1900    0.0000 H   0  0  0  0  0  0  0  0  0  0  0  0
    2.8660    2.8100    0.0000 H   0  0  0  0  0  0  0  0  0  0  0  0
    2.2460    2.1900    0.0000 H   0  0  0  0  0  0  0  0  0  0  0  0
    5.4641    4.3100    0.0000 H   0  0  0  0  0  0  0  0  0  0  0  0
    3.9875    4.2977    0.0000 H   0  0  0  0  0  0  0  0  0  0  0  0
    4.3860    3.6074    0.0000 H   0  0  0  0  0  0  0  0  0  0  0  0
    6.8671    3.8800    0.0000 H   0  0  0  0  0  0  0  0  0  0  0  0
    5.2087    5.0823    0.0000 H   0  0  0  0  0  0  0  0  0  0  0  0
    4.8101    5.7726    0.0000 H   0  0  0  0  0  0  0  0  0  0  0  0
    6.6592    6.0000    0.0000 H   0  0  0  0  0  0  0  0  0  0  0  0
    7.6636    4.7150    0.0000 H   0  0  0  0  0  0  0  0  0  0  0  0
    8.4607    4.7150    0.0000 H   0  0  0  0  0  0  0  0  0  0  0  0
    6.0010   -9.0000    0.0000 H   0  0  0  0  0  0  0  0  0  0  0  0
    3.1951   -9.0000    0.0000 H   0  0  0  0  0  0  0  0  0  0  0  0
    6.6592    7.0000    0.0000 H   0  0  0  0  0  0  0  0  0  0  0  0
    9.3267    6.1650    0.0000 H   0  0  0  0  0  0  0  0  0  0  0  0
    8.5297    6.1650    0.0000 H   0  0  0  0  0  0  0  0  0  0  0  0
    6.0010  -10.6200    0.0000 H   0  0  0  0  0  0  0  0  0  0  0  0
    3.1951  -10.6200    0.0000 H   0  0  0  0  0  0  0  0  0  0  0  0
    4.5981  -11.4300    0.0000 H   0  0  0  0  0  0  0  0  0  0  0  0
    7.8501    8.7726    0.0000 H   0  0  0  0  0  0  0  0  0  0  0  0
    7.4516    8.0823    0.0000 H   0  0  0  0  0  0  0  0  0  0  0  0
    3.1951    7.0000    0.0000 H   0  0  0  0  0  0  0  0  0  0  0  0
    9.1403    8.1074    0.0000 H   0  0  0  0  0  0  0  0  0  0  0  0
    9.5388    8.7977    0.0000 H   0  0  0  0  0  0  0  0  0  0  0  0
   11.1972    5.3800    0.0000 H   0  0  0  0  0  0  0  0  0  0  0  0
    9.7942   10.8100    0.0000 H   0  0  0  0  0  0  0  0  0  0  0  0
  1  7  2  0  0  0  0
  1  8  2  0  0  0  0
  1 21  1  0  0  0  0
  1 53  1  0  0  0  0
  2 32  2  0  0  0  0
  3 34  2  0  0  0  0
  4 41  2  0  0  0  0
  5 42  2  0  0  0  0
  6 50  2  0  0  0  0
  9 55  2  0  0  0  0
 10 60  1  0  0  0  0
 10136  1  0  0  0  0
 11 60  2  0  0  0  0
 12 64  2  0  0  0  0
 13 67  1  0  0  0  0
 13139  1  0  0  0  0
 14 67  2  0  0  0  0
 15 69  1  0  0  0  0
 15140  1  0  0  0  0
 16 69  2  0  0  0  0
 31 17  1  1  0  0  0
 17 34  1  0  0  0  0
 17 84  1  0  0  0  0
 18 32  1  0  0  0  0
 36 18  1  6  0  0  0
 18 87  1  0  0  0  0
 33 19  1  1  0  0  0
 19 41  1  0  0  0  0
 19 89  1  0  0  0  0
 40 20  1  6  0  0  0
 20 50  1  0  0  0  0
 20106  1  0  0  0  0
 21 42  1  0  0  0  0
 21107  1  0  0  0  0
 51 22  1  1  0  0  0
 22 55  1  0  0  0  0
 22120  1  0  0  0  0
 56 23  1  1  0  0  0
 23 64  1  0  0  0  0
 23128  1  0  0  0  0
 24 25  1  0  0  0  0
 24 26  1  0  0  0  0
 24 27  1  0  0  0  0
 24 70  1  0  0  0  0
 25 28  1  0  0  0  0
 25 71  1  0  0  0  0
 25 72  1  0  0  0  0
 26 29  1  0  0  0  0
 26 73  1  0  0  0  0
 26 74  1  0  0  0  0
 27 31  1  0  0  0  0
 27 75  1  0  0  0  0
 27 76  1  0  0  0  0
 28 30  1  0  0  0  0
 28 77  1  0  0  0  0
 28 78  1  0  0  0  0
 29 30  1  0  0  0  0
 29 79  1  0  0  0  0
 29 80  1  0  0  0  0
 30 81  1  0  0  0  0
 30 82  1  0  0  0  0
 31 32  1  0  0  0  0
 31 83  1  0  0  0  0
 33 34  1  0  0  0  0
 33 35  1  0  0  0  0
 33 85  1  0  0  0  0
 35 37  1  0  0  0  0
 35 38  1  6  0  0  0
 35 86  1  0  0  0  0
 36 39  1  0  0  0  0
 36 42  1  0  0  0  0
 36 88  1  0  0  0  0
 37 44  1  0  0  0  0
 37 90  1  0  0  0  0
 37 91  1  0  0  0  0
 38 92  1  0  0  0  0
 38 93  1  0  0  0  0
 38 94  1  0  0  0  0
 39 45  1  0  0  0  0
 39 95  1  0  0  0  0
 39 96  1  0  0  0  0
 40 41  1  0  0  0  0
 40 43  1  0  0  0  0
 40 97  1  0  0  0  0
 43 46  1  0  0  0  0
 43 98  1  0  0  0  0
 43 99  1  0  0  0  0
 44100  1  0  0  0  0
 44101  1  0  0  0  0
 44102  1  0  0  0  0
 45 47  1  0  0  0  0
 45103  1  0  0  0  0
 45104  1  0  0  0  0
 46 48  1  0  0  0  0
 46 49  1  0  0  0  0
 46105  1  0  0  0  0
 47108  1  0  0  0  0
 47109  1  0  0  0  0
 47110  1  0  0  0  0
 48111  1  0  0  0  0
 48112  1  0  0  0  0
 48113  1  0  0  0  0
 49114  1  0  0  0  0
 49115  1  0  0  0  0
 49116  1  0  0  0  0
 50 51  1  0  0  0  0
 51 52  1  0  0  0  0
 51117  1  0  0  0  0
 52 54  1  0  0  0  0
 52118  1  0  0  0  0
 52119  1  0  0  0  0
 53 58  2  0  0  0  0
 53 59  1  0  0  0  0
 54 60  1  0  0  0  0
 54121  1  0  0  0  0
 54122  1  0  0  0  0
 55 56  1  0  0  0  0
 56 57  1  0  0  0  0
 56123  1  0  0  0  0
 57 61  1  0  0  0  0
 57124  1  0  0  0  0
 57125  1  0  0  0  0
 58 62  1  0  0  0  0
 58126  1  0  0  0  0
 59 63  2  0  0  0  0
 59127  1  0  0  0  0
 61 67  1  0  0  0  0
 61129  1  0  0  0  0
 61130  1  0  0  0  0
 62 65  2  0  0  0  0
 62131  1  0  0  0  0
 63 65  1  0  0  0  0
 63132  1  0  0  0  0
 64 66  1  0  0  0  0
 65133  1  0  0  0  0
 66 68  1  0  0  0  0
 66134  1  0  0  0  0
 66135  1  0  0  0  0
 68 69  1  0  0  0  0
 68137  1  0  0  0  0
 68138  1  0  0  0  0
M  END
> <PUBCHEM_COMPOUND_CID>
507074
> <PUBCHEM_COMPOUND_CANONICALIZED>
1
> <PUBCHEM_CACTVS_COMPLEXITY>
1880
> <PUBCHEM_CACTVS_HBOND_ACCEPTOR>
15
> <PUBCHEM_CACTVS_HBOND_DONOR>
10
> <PUBCHEM_CACTVS_ROTATABLE_BOND>
31
> <PUBCHEM_CACTVS_SUBSKEYS>
AAADcfB/vABAAAAAAAAAAAAAAAAAAAAAAAAwYAAAAAAAAAABAAAAHgQQSAAADSjB0AQyCYLAAgKIACHSGHBCABAgAAAIiJmIAIgIYDKAkTCUYAAklgCIiAe/n4KOAAAAAAAAAAAAAAAAAAAAAAAAAAAAAA==
> <PUBCHEM_IUPAC_OPENEYE_NAME>
(4S)-5-[[(1R)-1-[[(1S)-1-[[(1S,2S)-1-[[(1S)-2-[[(1S)-1-(benzenesulfonylcarbamoyl)butyl]amino]-1-(cyclohexylmethyl)-2-oxo-ethyl]carbamoyl]-2-methyl-butyl]carbamoyl]-3-methyl-butyl]carbamoyl]-3-carboxy-propyl]amino]-4-(3-carboxypropanoylamino)-5-oxo-pentanoic acid
> <PUBCHEM_IUPAC_CAS_NAME>
(4S)-5-[[(2R)-1-[[(2S)-1-[[(2S,3S)-1-[[(2S)-1-[[(2S)-1-(benzenesulfonamido)-1-oxopentan-2-yl]amino]-3-cyclohexyl-1-oxopropan-2-yl]amino]-3-methyl-1-oxopentan-2-yl]amino]-4-methyl-1-oxopentan-2-yl]amino]-4-carboxy-1-oxobutan-2-yl]amino]-4-[(3-carboxy-1-oxopropyl)amino]-5-oxopentanoic acid
> <PUBCHEM_IUPAC_NAME_MARKUP>
(4<I>S</I>)-5-[[(2<I>R</I>)-1-[[(2<I>S</I>)-1-[[(2<I>S</I>,3<I>S</I>)-1-[[(2<I>S</I>)-1-[[(2<I>S</I>)-1-(benzenesulfonamido)-1-oxopentan-2-yl]amino]-3-cyclohexyl-1-oxopropan-2-yl]amino]-3-methyl-1-oxopentan-2-yl]amino]-4-methyl-1-oxopentan-2-yl]amino]-4-carboxy-1-oxobutan-2-yl]amino]-4-(3-carboxypropanoylamino)-5-oxopentanoic acid
> <PUBCHEM_IUPAC_NAME>
(4S)-5-[[(2R)-1-[[(2S)-1-[[(2S,3S)-1-[[(2S)-1-[[(2S)-1-(benzenesulfonamido)-1-oxopentan-2-yl]amino]-3-cyclohexyl-1-oxopropan-2-yl]amino]-3-methyl-1-oxopentan-2-yl]amino]-4-methyl-1-oxopentan-2-yl]amino]-4-carboxy-1-oxobutan-2-yl]amino]-4-(3-carboxypropanoylamino)-5-oxopentanoic acid
> <PUBCHEM_IUPAC_SYSTEMATIC_NAME>
(4S)-5-[[(2R)-1-[[(2S)-1-[[(2S,3S)-1-[[(2S)-3-cyclohexyl-1-oxidanylidene-1-[[(2S)-1-oxidanylidene-1-(phenylsulfonylamino)pentan-2-yl]amino]propan-2-yl]amino]-3-methyl-1-oxidanylidene-pentan-2-yl]amino]-4-methyl-1-oxidanylidene-pentan-2-yl]amino]-5-oxidanyl-1,5-bis(oxidanylidene)pentan-2-yl]amino]-5-oxidanylidene-4-[(4-oxidanyl-4-oxidanylidene-butanoyl)amino]pentanoic acid
> <PUBCHEM_IUPAC_TRADITIONAL_NAME>
(4S)-5-[[(1R)-1-[[(1S)-1-[[(1S,2S)-1-[[(1S)-2-[[(1S)-1-(besylcarbamoyl)butyl]amino]-1-(cyclohexylmethyl)-2-keto-ethyl]carbamoyl]-2-methyl-butyl]carbamoyl]-3-methyl-butyl]carbamoyl]-3-carboxy-propyl]amino]-4-(3-carboxypropanoylamino)-5-keto-valeric acid
> <PUBCHEM_IUPAC_INCHI>
InChI=1S/C46H71N7O15S/c1-6-14-31(45(65)53-69(67,68)30-17-12-9-13-18-30)48-43(63)35(26-29-15-10-8-11-16-29)51-46(66)40(28(5)7-2)52-44(64)34(25-27(3)4)50-42(62)33(20-23-38(57)58)49-41(61)32(19-22-37(55)56)47-36(54)21-24-39(59)60/h9,12-13,17-18,27-29,31-35,40H,6-8,10-11,14-16,19-26H2,1-5H3,(H,47,54)(H,48,63)(H,49,61)(H,50,62)(H,51,66)(H,52,64)(H,53,65)(H,55,56)(H,57,58)(H,59,60)/t28-,31-,32-,33+,34-,35-,40-/m0/s1
> <PUBCHEM_IUPAC_INCHIKEY>
NXYPXEXUUSPFJV-HBNMKURTSA-N
> <PUBCHEM_XLOGP3_AA>
3.8
> <PUBCHEM_EXACT_MASS>
993.47288576
> <PUBCHEM_MOLECULAR_FORMULA>
C46H71N7O15S
> <PUBCHEM_MOLECULAR_WEIGHT>
994.2
> <PUBCHEM_OPENEYE_CAN_SMILES>
CCCC(C(=O)NS(=O)(=O)C1=CC=CC=C1)NC(=O)C(CC2CCCCC2)NC(=O)C(C(C)CC)NC(=O)C(CC(C)C)NC(=O)C(CCC(=O)O)NC(=O)C(CCC(=O)O)NC(=O)CCC(=O)O
> <PUBCHEM_OPENEYE_ISO_SMILES>
CCC[C@@H](C(=O)NS(=O)(=O)C1=CC=CC=C1)NC(=O)[C@H](CC2CCCCC2)NC(=O)[C@H]([C@@H](C)CC)NC(=O)[C@H](CC(C)C)NC(=O)[C@@H](CCC(=O)O)NC(=O)[C@H](CCC(=O)O)NC(=O)CCC(=O)O
> <PUBCHEM_CACTVS_TPSA>
358
> <PUBCHEM_MONOISOTOPIC_WEIGHT>
993.47288576
> <PUBCHEM_TOTAL_CHARGE>
0
> <PUBCHEM_HEAVY_ATOM_COUNT>
69
> <PUBCHEM_ATOM_DEF_STEREO_COUNT>
7
> <PUBCHEM_ATOM_UDEF_STEREO_COUNT>
0
> <PUBCHEM_BOND_DEF_STEREO_COUNT>
0
> <PUBCHEM_BOND_UDEF_STEREO_COUNT>
0
> <PUBCHEM_ISOTOPIC_ATOM_COUNT>
0
> <PUBCHEM_COMPONENT_COUNT>
1
> <PUBCHEM_CACTVS_TAUTO_COUNT>
-1
> <PUBCHEM_COORDINATE_TYPE>
1
5
255
> <PUBCHEM_BONDANNOTATIONS>
31  17  5
36  18  6
33  19  5
40  20  6
51  22  5
56  23  5
35  38  6
53  58  8
53  59  8
58  62  8
59  63  8
62  65  8
63  65  8
$$$$
