507050
  -OEChem-10302200282D
110111  0     1  0  0  0  0  0999 V2000
    4.0000    4.5600    0.0000 F   0  0  0  0  0  0  0  0  0  0  0  0
    2.0000    4.5600    0.0000 F   0  0  0  0  0  0  0  0  0  0  0  0
    3.0000    6.5600    0.0000 F   0  0  0  0  0  0  0  0  0  0  0  0
    2.0000    5.5600    0.0000 F   0  0  0  0  0  0  0  0  0  0  0  0
    4.0000    5.5600    0.0000 F   0  0  0  0  0  0  0  0  0  0  0  0
    2.1340    3.0600    0.0000 O   0  0  0  0  0  0  0  0  0  0  0  0
    5.5981    2.0600    0.0000 O   0  0  0  0  0  0  0  0  0  0  0  0
    6.4641    1.5600    0.0000 O   0  0  0  0  0  0  0  0  0  0  0  0
    9.0622   -0.9400    0.0000 O   0  0  0  0  0  0  0  0  0  0  0  0
    9.9282   -1.4400    0.0000 O   0  0  0  0  0  0  0  0  0  0  0  0
   13.3923   -2.4400    0.0000 O   0  0  0  0  0  0  0  0  0  0  0  0
   15.1244   -1.4400    0.0000 O   0  0  0  0  0  0  0  0  0  0  0  0
   14.2583    0.0600    0.0000 O   0  0  0  0  0  0  0  0  0  0  0  0
   14.2583   -5.9400    0.0000 O   0  0  0  0  0  0  0  0  0  0  0  0
   12.5263   -5.9400    0.0000 O   0  0  0  0  0  0  0  0  0  0  0  0
    3.8660    2.0600    0.0000 N   0  0  0  0  0  0  0  0  0  0  0  0
    5.5981    0.0600    0.0000 N   0  0  0  0  0  0  0  0  0  0  0  0
    8.1962    0.5600    0.0000 N   0  0  0  0  0  0  0  0  0  0  0  0
   10.7942    0.0600    0.0000 N   0  0  0  0  0  0  0  0  0  0  0  0
   11.6603   -2.4400    0.0000 N   0  0  0  0  0  0  0  0  0  0  0  0
    3.8660    3.0600    0.0000 C   0  0  0  0  0  0  0  0  0  0  0  0
    4.3660    3.9260    0.0000 C   0  0  0  0  0  0  0  0  0  0  0  0
    4.8660    3.0600    0.0000 C   0  0  0  0  0  0  0  0  0  0  0  0
    3.0000    3.5600    0.0000 C   0  0  0  0  0  0  0  0  0  0  0  0
    3.8660   -0.9400    0.0000 C   0  0  0  0  0  0  0  0  0  0  0  0
    4.7320    0.5600    0.0000 C   0  0  1  0  0  0  0  0  0  0  0  0
    3.8660    0.0600    0.0000 C   0  0  0  0  0  0  0  0  0  0  0  0
    4.7320    1.5600    0.0000 C   0  0  0  0  0  0  0  0  0  0  0  0
    3.0000    4.5600    0.0000 C   0  0  0  0  0  0  0  0  0  0  0  0
    3.0000   -1.4400    0.0000 C   0  0  0  0  0  0  0  0  0  0  0  0
    4.7320   -1.4400    0.0000 C   0  0  0  0  0  0  0  0  0  0  0  0
    3.0000   -2.4400    0.0000 C   0  0  0  0  0  0  0  0  0  0  0  0
    4.7320   -2.4400    0.0000 C   0  0  0  0  0  0  0  0  0  0  0  0
    3.8660   -2.9400    0.0000 C   0  0  0  0  0  0  0  0  0  0  0  0
    3.0000    5.5600    0.0000 C   0  0  0  0  0  0  0  0  0  0  0  0
    6.4641    0.5600    0.0000 C   0  0  0  0  0  0  0  0  0  0  0  0
    7.3301    0.0600    0.0000 C   0  0  2  0  0  0  0  0  0  0  0  0
    7.3301   -0.9400    0.0000 C   0  0  2  0  0  0  0  0  0  0  0  0
    8.1962   -1.4400    0.0000 C   0  0  0  0  0  0  0  0  0  0  0  0
    6.4641   -1.4400    0.0000 C   0  0  0  0  0  0  0  0  0  0  0  0
    9.0622    0.0600    0.0000 C   0  0  0  0  0  0  0  0  0  0  0  0
    9.9282    0.5600    0.0000 C   0  0  2  0  0  0  0  0  0  0  0  0
    8.1962   -2.4400    0.0000 C   0  0  0  0  0  0  0  0  0  0  0  0
    9.9282    1.5600    0.0000 C   0  0  0  0  0  0  0  0  0  0  0  0
   10.7942    2.0600    0.0000 C   0  0  0  0  0  0  0  0  0  0  0  0
   10.7942    3.0600    0.0000 C   0  0  0  0  0  0  0  0  0  0  0  0
   11.6603    1.5600    0.0000 C   0  0  0  0  0  0  0  0  0  0  0  0
   10.7942   -0.9400    0.0000 C   0  0  0  0  0  0  0  0  0  0  0  0
   11.6603   -1.4400    0.0000 C   0  0  1  0  0  0  0  0  0  0  0  0
   12.5263   -0.9400    0.0000 C   0  0  0  0  0  0  0  0  0  0  0  0
   13.3923   -1.4400    0.0000 C   0  0  0  0  0  0  0  0  0  0  0  0
   12.5263   -2.9400    0.0000 C   0  0  0  0  0  0  0  0  0  0  0  0
   12.5263   -3.9400    0.0000 C   0  0  0  0  0  0  0  0  0  0  0  0
   14.2583   -0.9400    0.0000 C   0  0  0  0  0  0  0  0  0  0  0  0
   13.3923   -4.4400    0.0000 C   0  0  0  0  0  0  0  0  0  0  0  0
   13.3923   -5.4400    0.0000 C   0  0  0  0  0  0  0  0  0  0  0  0
    4.8410    4.3246    0.0000 H   0  0  0  0  0  0  0  0  0  0  0  0
    3.8911    4.3246    0.0000 H   0  0  0  0  0  0  0  0  0  0  0  0
    4.9737    2.4494    0.0000 H   0  0  0  0  0  0  0  0  0  0  0  0
    5.4486    3.2720    0.0000 H   0  0  0  0  0  0  0  0  0  0  0  0
    3.3291    1.7500    0.0000 H   0  0  0  0  0  0  0  0  0  0  0  0
    4.4030   -0.6300    0.0000 H   0  0  0  0  0  0  0  0  0  0  0  0
    4.7320   -0.0600    0.0000 H   0  0  0  0  0  0  0  0  0  0  0  0
    3.6540    0.6426    0.0000 H   0  0  0  0  0  0  0  0  0  0  0  0
    3.2554   -0.0477    0.0000 H   0  0  0  0  0  0  0  0  0  0  0  0
    2.7880   -0.8574    0.0000 H   0  0  0  0  0  0  0  0  0  0  0  0
    2.3894   -1.5477    0.0000 H   0  0  0  0  0  0  0  0  0  0  0  0
    5.3426   -1.5477    0.0000 H   0  0  0  0  0  0  0  0  0  0  0  0
    4.9441   -0.8574    0.0000 H   0  0  0  0  0  0  0  0  0  0  0  0
    2.3894   -2.3323    0.0000 H   0  0  0  0  0  0  0  0  0  0  0  0
    2.7880   -3.0226    0.0000 H   0  0  0  0  0  0  0  0  0  0  0  0
    4.9441   -3.0226    0.0000 H   0  0  0  0  0  0  0  0  0  0  0  0
    5.3426   -2.3323    0.0000 H   0  0  0  0  0  0  0  0  0  0  0  0
    3.4675   -3.4150    0.0000 H   0  0  0  0  0  0  0  0  0  0  0  0
    4.2646   -3.4150    0.0000 H   0  0  0  0  0  0  0  0  0  0  0  0
    5.5981   -0.5600    0.0000 H   0  0  0  0  0  0  0  0  0  0  0  0
    7.3301    0.6800    0.0000 H   0  0  0  0  0  0  0  0  0  0  0  0
    6.7932   -0.6300    0.0000 H   0  0  0  0  0  0  0  0  0  0  0  0
    8.1962    1.1800    0.0000 H   0  0  0  0  0  0  0  0  0  0  0  0
    8.8067   -1.5477    0.0000 H   0  0  0  0  0  0  0  0  0  0  0  0
    8.4082   -0.8574    0.0000 H   0  0  0  0  0  0  0  0  0  0  0  0
    6.1541   -0.9031    0.0000 H   0  0  0  0  0  0  0  0  0  0  0  0
    5.9272   -1.7500    0.0000 H   0  0  0  0  0  0  0  0  0  0  0  0
    6.7741   -1.9769    0.0000 H   0  0  0  0  0  0  0  0  0  0  0  0
   10.4651    0.8700    0.0000 H   0  0  0  0  0  0  0  0  0  0  0  0
    7.5762   -2.4400    0.0000 H   0  0  0  0  0  0  0  0  0  0  0  0
    8.1962   -3.0600    0.0000 H   0  0  0  0  0  0  0  0  0  0  0  0
    8.8162   -2.4400    0.0000 H   0  0  0  0  0  0  0  0  0  0  0  0
    9.7162    2.1426    0.0000 H   0  0  0  0  0  0  0  0  0  0  0  0
    9.3176    1.4523    0.0000 H   0  0  0  0  0  0  0  0  0  0  0  0
   10.2573    2.3700    0.0000 H   0  0  0  0  0  0  0  0  0  0  0  0
   11.3312    0.3700    0.0000 H   0  0  0  0  0  0  0  0  0  0  0  0
   11.4142    3.0600    0.0000 H   0  0  0  0  0  0  0  0  0  0  0  0
   10.7942    3.6800    0.0000 H   0  0  0  0  0  0  0  0  0  0  0  0
   10.1742    3.0600    0.0000 H   0  0  0  0  0  0  0  0  0  0  0  0
   11.3503    1.0231    0.0000 H   0  0  0  0  0  0  0  0  0  0  0  0
   12.1972    1.2500    0.0000 H   0  0  0  0  0  0  0  0  0  0  0  0
   11.9703    2.0969    0.0000 H   0  0  0  0  0  0  0  0  0  0  0  0
   12.1972   -1.7500    0.0000 H   0  0  0  0  0  0  0  0  0  0  0  0
   12.9248   -0.4651    0.0000 H   0  0  0  0  0  0  0  0  0  0  0  0
   12.1278   -0.4651    0.0000 H   0  0  0  0  0  0  0  0  0  0  0  0
   11.1233   -2.7500    0.0000 H   0  0  0  0  0  0  0  0  0  0  0  0
   12.9938   -1.9150    0.0000 H   0  0  0  0  0  0  0  0  0  0  0  0
   13.7908   -1.9150    0.0000 H   0  0  0  0  0  0  0  0  0  0  0  0
   11.9157   -3.8323    0.0000 H   0  0  0  0  0  0  0  0  0  0  0  0
   12.3142   -4.5226    0.0000 H   0  0  0  0  0  0  0  0  0  0  0  0
   14.0029   -4.5477    0.0000 H   0  0  0  0  0  0  0  0  0  0  0  0
   13.6044   -3.8574    0.0000 H   0  0  0  0  0  0  0  0  0  0  0  0
   15.6613   -1.1300    0.0000 H   0  0  0  0  0  0  0  0  0  0  0  0
   14.2583   -6.5600    0.0000 H   0  0  0  0  0  0  0  0  0  0  0  0
  1 29  1  0  0  0  0
  2 29  1  0  0  0  0
  3 35  1  0  0  0  0
  4 35  1  0  0  0  0
  5 35  1  0  0  0  0
  6 24  2  0  0  0  0
  7 28  2  0  0  0  0
  8 36  2  0  0  0  0
  9 41  2  0  0  0  0
 10 48  2  0  0  0  0
 11 52  2  0  0  0  0
 12 54  1  0  0  0  0
 12109  1  0  0  0  0
 13 54  2  0  0  0  0
 14 56  1  0  0  0  0
 14110  1  0  0  0  0
 15 56  2  0  0  0  0
 16 21  1  0  0  0  0
 16 28  1  0  0  0  0
 16 61  1  0  0  0  0
 26 17  1  1  0  0  0
 17 36  1  0  0  0  0
 17 76  1  0  0  0  0
 37 18  1  1  0  0  0
 18 41  1  0  0  0  0
 18 79  1  0  0  0  0
 42 19  1  6  0  0  0
 19 48  1  0  0  0  0
 19 92  1  0  0  0  0
 49 20  1  1  0  0  0
 20 52  1  0  0  0  0
 20102  1  0  0  0  0
 21 22  1  0  0  0  0
 21 23  1  0  0  0  0
 21 24  1  0  0  0  0
 22 23  1  0  0  0  0
 22 57  1  0  0  0  0
 22 58  1  0  0  0  0
 23 59  1  0  0  0  0
 23 60  1  0  0  0  0
 24 29  1  0  0  0  0
 25 27  1  0  0  0  0
 25 30  1  0  0  0  0
 25 31  1  0  0  0  0
 25 62  1  0  0  0  0
 26 27  1  0  0  0  0
 26 28  1  0  0  0  0
 26 63  1  0  0  0  0
 27 64  1  0  0  0  0
 27 65  1  0  0  0  0
 29 35  1  0  0  0  0
 30 32  1  0  0  0  0
 30 66  1  0  0  0  0
 30 67  1  0  0  0  0
 31 33  1  0  0  0  0
 31 68  1  0  0  0  0
 31 69  1  0  0  0  0
 32 34  1  0  0  0  0
 32 70  1  0  0  0  0
 32 71  1  0  0  0  0
 33 34  1  0  0  0  0
 33 72  1  0  0  0  0
 33 73  1  0  0  0  0
 34 74  1  0  0  0  0
 34 75  1  0  0  0  0
 36 37  1  0  0  0  0
 37 38  1  0  0  0  0
 37 77  1  0  0  0  0
 38 39  1  0  0  0  0
 38 40  1  6  0  0  0
 38 78  1  0  0  0  0
 39 43  1  0  0  0  0
 39 80  1  0  0  0  0
 39 81  1  0  0  0  0
 40 82  1  0  0  0  0
 40 83  1  0  0  0  0
 40 84  1  0  0  0  0
 41 42  1  0  0  0  0
 42 44  1  0  0  0  0
 42 85  1  0  0  0  0
 43 86  1  0  0  0  0
 43 87  1  0  0  0  0
 43 88  1  0  0  0  0
 44 45  1  0  0  0  0
 44 89  1  0  0  0  0
 44 90  1  0  0  0  0
 45 46  1  0  0  0  0
 45 47  1  0  0  0  0
 45 91  1  0  0  0  0
 46 93  1  0  0  0  0
 46 94  1  0  0  0  0
 46 95  1  0  0  0  0
 47 96  1  0  0  0  0
 47 97  1  0  0  0  0
 47 98  1  0  0  0  0
 48 49  1  0  0  0  0
 49 50  1  0  0  0  0
 49 99  1  0  0  0  0
 50 51  1  0  0  0  0
 50100  1  0  0  0  0
 50101  1  0  0  0  0
 51 54  1  0  0  0  0
 51103  1  0  0  0  0
 51104  1  0  0  0  0
 52 53  1  0  0  0  0
 53 55  1  0  0  0  0
 53105  1  0  0  0  0
 53106  1  0  0  0  0
 55 56  1  0  0  0  0
 55107  1  0  0  0  0
 55108  1  0  0  0  0
M  END
> <PUBCHEM_COMPOUND_CID>
507050
> <PUBCHEM_COMPOUND_CANONICALIZED>
1
> <PUBCHEM_CACTVS_COMPLEXITY>
1450
> <PUBCHEM_CACTVS_HBOND_ACCEPTOR>
15
> <PUBCHEM_CACTVS_HBOND_DONOR>
7
> <PUBCHEM_CACTVS_ROTATABLE_BOND>
23
> <PUBCHEM_CACTVS_SUBSKEYS>
AAADcfB/vcAAAAAAAAAAAAAAGAAAAAAAAAAwAAAAAAAAAAAAAAAAHwAQCAAADazBgBQCCALAAgAIAIGQGAAAAAAAAAAAAIGIAAAAQBIAgCAUQAAEFgCAAAG/n4KOAAAAAAAAAAAAAAAAAAAAAAAAAAAAAA==
> <PUBCHEM_IUPAC_OPENEYE_NAME>
(4R)-4-(3-carboxypropanoylamino)-5-[[(1S)-1-[[(1S,2S)-1-[[(1S)-1-(cyclohexylmethyl)-2-oxo-2-[[1-(2,2,3,3,3-pentafluoropropanoyl)cyclopropyl]amino]ethyl]carbamoyl]-2-methyl-butyl]carbamoyl]-3-methyl-butyl]amino]-5-oxo-pentanoic acid
> <PUBCHEM_IUPAC_CAS_NAME>
(4R)-4-[(3-carboxy-1-oxopropyl)amino]-5-[[(2S)-1-[[(2S,3S)-1-[[(2S)-3-cyclohexyl-1-oxo-1-[[1-(2,2,3,3,3-pentafluoro-1-oxopropyl)cyclopropyl]amino]propan-2-yl]amino]-3-methyl-1-oxopentan-2-yl]amino]-4-methyl-1-oxopentan-2-yl]amino]-5-oxopentanoic acid
> <PUBCHEM_IUPAC_NAME_MARKUP>
(4<I>R</I>)-4-(3-carboxypropanoylamino)-5-[[(2<I>S</I>)-1-[[(2<I>S</I>,3<I>S</I>)-1-[[(2<I>S</I>)-3-cyclohexyl-1-oxo-1-[[1-(2,2,3,3,3-pentafluoropropanoyl)cyclopropyl]amino]propan-2-yl]amino]-3-methyl-1-oxopentan-2-yl]amino]-4-methyl-1-oxopentan-2-yl]amino]-5-oxopentanoic acid
> <PUBCHEM_IUPAC_NAME>
(4R)-4-(3-carboxypropanoylamino)-5-[[(2S)-1-[[(2S,3S)-1-[[(2S)-3-cyclohexyl-1-oxo-1-[[1-(2,2,3,3,3-pentafluoropropanoyl)cyclopropyl]amino]propan-2-yl]amino]-3-methyl-1-oxopentan-2-yl]amino]-4-methyl-1-oxopentan-2-yl]amino]-5-oxopentanoic acid
> <PUBCHEM_IUPAC_SYSTEMATIC_NAME>
(4R)-5-[[(2S)-1-[[(2S,3S)-1-[[(2S)-3-cyclohexyl-1-oxidanylidene-1-[[1-[2,2,3,3,3-pentakis(fluoranyl)propanoyl]cyclopropyl]amino]propan-2-yl]amino]-3-methyl-1-oxidanylidene-pentan-2-yl]amino]-4-methyl-1-oxidanylidene-pentan-2-yl]amino]-5-oxidanylidene-4-[(4-oxidanyl-4-oxidanylidene-butanoyl)amino]pentanoic acid
> <PUBCHEM_IUPAC_TRADITIONAL_NAME>
(4R)-4-(3-carboxypropanoylamino)-5-[[(1S)-1-[[(1S,2S)-1-[[(1S)-1-(cyclohexylmethyl)-2-keto-2-[[1-(2,2,3,3,3-pentafluoropropanoyl)cyclopropyl]amino]ethyl]carbamoyl]-2-methyl-butyl]carbamoyl]-3-methyl-butyl]amino]-5-keto-valeric acid
> <PUBCHEM_IUPAC_INCHI>
InChI=1S/C36H54F5N5O10/c1-5-20(4)28(45-30(53)23(17-19(2)3)43-29(52)22(11-13-26(48)49)42-25(47)12-14-27(50)51)32(55)44-24(18-21-9-7-6-8-10-21)31(54)46-34(15-16-34)33(56)35(37,38)36(39,40)41/h19-24,28H,5-18H2,1-4H3,(H,42,47)(H,43,52)(H,44,55)(H,45,53)(H,46,54)(H,48,49)(H,50,51)/t20-,22+,23-,24-,28-/m0/s1
> <PUBCHEM_IUPAC_INCHIKEY>
HFAOQRYKKCTWBJ-HHUBCNRQSA-N
> <PUBCHEM_XLOGP3_AA>
4.7
> <PUBCHEM_EXACT_MASS>
811.37908375
> <PUBCHEM_MOLECULAR_FORMULA>
C36H54F5N5O10
> <PUBCHEM_MOLECULAR_WEIGHT>
811.8
> <PUBCHEM_OPENEYE_CAN_SMILES>
CCC(C)C(C(=O)NC(CC1CCCCC1)C(=O)NC2(CC2)C(=O)C(C(F)(F)F)(F)F)NC(=O)C(CC(C)C)NC(=O)C(CCC(=O)O)NC(=O)CCC(=O)O
> <PUBCHEM_OPENEYE_ISO_SMILES>
CC[C@H](C)[C@@H](C(=O)N[C@@H](CC1CCCCC1)C(=O)NC2(CC2)C(=O)C(C(F)(F)F)(F)F)NC(=O)[C@H](CC(C)C)NC(=O)[C@@H](CCC(=O)O)NC(=O)CCC(=O)O
> <PUBCHEM_CACTVS_TPSA>
237
> <PUBCHEM_MONOISOTOPIC_WEIGHT>
811.37908375
> <PUBCHEM_TOTAL_CHARGE>
0
> <PUBCHEM_HEAVY_ATOM_COUNT>
56
> <PUBCHEM_ATOM_DEF_STEREO_COUNT>
5
> <PUBCHEM_ATOM_UDEF_STEREO_COUNT>
0
> <PUBCHEM_BOND_DEF_STEREO_COUNT>
0
> <PUBCHEM_BOND_UDEF_STEREO_COUNT>
0
> <PUBCHEM_ISOTOPIC_ATOM_COUNT>
0
> <PUBCHEM_COMPONENT_COUNT>
1
> <PUBCHEM_CACTVS_TAUTO_COUNT>
-1
> <PUBCHEM_COORDINATE_TYPE>
1
5
255
> <PUBCHEM_BONDANNOTATIONS>
26  17  5
37  18  5
42  19  6
49  20  5
38  40  6
$$$$
