507064
  -OEChem-10302200282D
123124  0     1  0  0  0  0  0999 V2000
    2.0000    4.5950    0.0000 O   0  0  0  0  0  0  0  0  0  0  0  0
    5.4641    3.5950    0.0000 O   0  0  0  0  0  0  0  0  0  0  0  0
    2.0000    6.5950    0.0000 O   0  0  0  0  0  0  0  0  0  0  0  0
    3.7320    6.5950    0.0000 O   0  0  0  0  0  0  0  0  0  0  0  0
    6.3301    3.0950    0.0000 O   0  0  0  0  0  0  0  0  0  0  0  0
    8.9282    0.5950    0.0000 O   0  0  0  0  0  0  0  0  0  0  0  0
    9.7942    0.0950    0.0000 O   0  0  0  0  0  0  0  0  0  0  0  0
   13.2583   -0.9050    0.0000 O   0  0  0  0  0  0  0  0  0  0  0  0
   14.9904    0.0950    0.0000 O   0  0  0  0  0  0  0  0  0  0  0  0
   14.1244    1.5950    0.0000 O   0  0  0  0  0  0  0  0  0  0  0  0
   12.3923   -4.4050    0.0000 O   0  0  0  0  0  0  0  0  0  0  0  0
   10.6603   -5.4050    0.0000 O   0  0  0  0  0  0  0  0  0  0  0  0
    9.7942   -3.9050    0.0000 O   0  0  0  0  0  0  0  0  0  0  0  0
   14.9904   -6.9050    0.0000 O   0  0  0  0  0  0  0  0  0  0  0  0
   15.8564   -5.4050    0.0000 O   0  0  0  0  0  0  0  0  0  0  0  0
    3.7320    3.5950    0.0000 N   0  0  0  0  0  0  0  0  0  0  0  0
    5.4641    1.5950    0.0000 N   0  0  0  0  0  0  0  0  0  0  0  0
    8.0622    2.0950    0.0000 N   0  0  0  0  0  0  0  0  0  0  0  0
   10.6603    1.5950    0.0000 N   0  0  0  0  0  0  0  0  0  0  0  0
   11.5263   -0.9050    0.0000 N   0  0  0  0  0  0  0  0  0  0  0  0
   13.2583   -2.9050    0.0000 N   0  0  0  0  0  0  0  0  0  0  0  0
    3.7320    4.5950    0.0000 C   0  0  0  0  0  0  0  0  0  0  0  0
    4.2320    5.4610    0.0000 C   0  0  0  0  0  0  0  0  0  0  0  0
    4.7320    4.5950    0.0000 C   0  0  0  0  0  0  0  0  0  0  0  0
    3.7320    0.5950    0.0000 C   0  0  0  0  0  0  0  0  0  0  0  0
    2.8660    5.0950    0.0000 C   0  0  0  0  0  0  0  0  0  0  0  0
    3.7320    1.5950    0.0000 C   0  0  0  0  0  0  0  0  0  0  0  0
    4.5981    2.0950    0.0000 C   0  0  1  0  0  0  0  0  0  0  0  0
    4.5981    3.0950    0.0000 C   0  0  0  0  0  0  0  0  0  0  0  0
    2.8660    0.0950    0.0000 C   0  0  0  0  0  0  0  0  0  0  0  0
    4.5981    0.0950    0.0000 C   0  0  0  0  0  0  0  0  0  0  0  0
    2.8660   -0.9050    0.0000 C   0  0  0  0  0  0  0  0  0  0  0  0
    4.5981   -0.9050    0.0000 C   0  0  0  0  0  0  0  0  0  0  0  0
    3.7320   -1.4050    0.0000 C   0  0  0  0  0  0  0  0  0  0  0  0
    2.8660    6.0950    0.0000 C   0  0  0  0  0  0  0  0  0  0  0  0
    6.3301    2.0950    0.0000 C   0  0  0  0  0  0  0  0  0  0  0  0
    7.1962    1.5950    0.0000 C   0  0  2  0  0  0  0  0  0  0  0  0
    7.1962    0.5950    0.0000 C   0  0  2  0  0  0  0  0  0  0  0  0
    8.0622    0.0950    0.0000 C   0  0  0  0  0  0  0  0  0  0  0  0
    6.3301    0.0950    0.0000 C   0  0  0  0  0  0  0  0  0  0  0  0
    8.9282    1.5950    0.0000 C   0  0  0  0  0  0  0  0  0  0  0  0
    9.7942    2.0950    0.0000 C   0  0  2  0  0  0  0  0  0  0  0  0
    8.0622   -0.9050    0.0000 C   0  0  0  0  0  0  0  0  0  0  0  0
    9.7942    3.0950    0.0000 C   0  0  0  0  0  0  0  0  0  0  0  0
   10.6603    3.5950    0.0000 C   0  0  0  0  0  0  0  0  0  0  0  0
   10.6603    0.5950    0.0000 C   0  0  0  0  0  0  0  0  0  0  0  0
   10.6603    4.5950    0.0000 C   0  0  0  0  0  0  0  0  0  0  0  0
   11.5263    3.0950    0.0000 C   0  0  0  0  0  0  0  0  0  0  0  0
   11.5263    0.0950    0.0000 C   0  0  1  0  0  0  0  0  0  0  0  0
   12.3923    0.5950    0.0000 C   0  0  0  0  0  0  0  0  0  0  0  0
   13.2583    0.0950    0.0000 C   0  0  0  0  0  0  0  0  0  0  0  0
   12.3923   -1.4050    0.0000 C   0  0  0  0  0  0  0  0  0  0  0  0
   12.3923   -2.4050    0.0000 C   0  0  2  0  0  0  0  0  0  0  0  0
   11.5263   -2.9050    0.0000 C   0  0  0  0  0  0  0  0  0  0  0  0
   14.1244    0.5950    0.0000 C   0  0  0  0  0  0  0  0  0  0  0  0
   11.5263   -3.9050    0.0000 C   0  0  0  0  0  0  0  0  0  0  0  0
   13.2583   -3.9050    0.0000 C   0  0  0  0  0  0  0  0  0  0  0  0
   14.1244   -4.4050    0.0000 C   0  0  0  0  0  0  0  0  0  0  0  0
   10.6603   -4.4050    0.0000 C   0  0  0  0  0  0  0  0  0  0  0  0
   14.1244   -5.4050    0.0000 C   0  0  0  0  0  0  0  0  0  0  0  0
   14.9904   -5.9050    0.0000 C   0  0  0  0  0  0  0  0  0  0  0  0
    4.7070    5.8595    0.0000 H   0  0  0  0  0  0  0  0  0  0  0  0
    3.7571    5.8595    0.0000 H   0  0  0  0  0  0  0  0  0  0  0  0
    4.8397    3.9844    0.0000 H   0  0  0  0  0  0  0  0  0  0  0  0
    5.3147    4.8070    0.0000 H   0  0  0  0  0  0  0  0  0  0  0  0
    3.1951    3.2850    0.0000 H   0  0  0  0  0  0  0  0  0  0  0  0
    4.2690    0.9050    0.0000 H   0  0  0  0  0  0  0  0  0  0  0  0
    3.5200    2.1776    0.0000 H   0  0  0  0  0  0  0  0  0  0  0  0
    3.1215    1.4873    0.0000 H   0  0  0  0  0  0  0  0  0  0  0  0
    4.5981    1.4750    0.0000 H   0  0  0  0  0  0  0  0  0  0  0  0
    2.6540    0.6776    0.0000 H   0  0  0  0  0  0  0  0  0  0  0  0
    2.2554   -0.0127    0.0000 H   0  0  0  0  0  0  0  0  0  0  0  0
    5.2087   -0.0127    0.0000 H   0  0  0  0  0  0  0  0  0  0  0  0
    4.8101    0.6776    0.0000 H   0  0  0  0  0  0  0  0  0  0  0  0
    2.2554   -0.7973    0.0000 H   0  0  0  0  0  0  0  0  0  0  0  0
    2.6540   -1.4876    0.0000 H   0  0  0  0  0  0  0  0  0  0  0  0
    4.8101   -1.4876    0.0000 H   0  0  0  0  0  0  0  0  0  0  0  0
    5.2087   -0.7973    0.0000 H   0  0  0  0  0  0  0  0  0  0  0  0
    3.3335   -1.8800    0.0000 H   0  0  0  0  0  0  0  0  0  0  0  0
    4.1306   -1.8800    0.0000 H   0  0  0  0  0  0  0  0  0  0  0  0
    5.4641    0.9750    0.0000 H   0  0  0  0  0  0  0  0  0  0  0  0
    7.7331    1.2850    0.0000 H   0  0  0  0  0  0  0  0  0  0  0  0
    6.6592    0.9050    0.0000 H   0  0  0  0  0  0  0  0  0  0  0  0
    2.0000    7.2150    0.0000 H   0  0  0  0  0  0  0  0  0  0  0  0
    8.0622    2.7150    0.0000 H   0  0  0  0  0  0  0  0  0  0  0  0
    8.6728   -0.0127    0.0000 H   0  0  0  0  0  0  0  0  0  0  0  0
    8.2742    0.6776    0.0000 H   0  0  0  0  0  0  0  0  0  0  0  0
    6.0201    0.6319    0.0000 H   0  0  0  0  0  0  0  0  0  0  0  0
    5.7932   -0.2150    0.0000 H   0  0  0  0  0  0  0  0  0  0  0  0
    6.6401   -0.4419    0.0000 H   0  0  0  0  0  0  0  0  0  0  0  0
    9.7942    1.4750    0.0000 H   0  0  0  0  0  0  0  0  0  0  0  0
    7.4422   -0.9050    0.0000 H   0  0  0  0  0  0  0  0  0  0  0  0
    8.0622   -1.5250    0.0000 H   0  0  0  0  0  0  0  0  0  0  0  0
    8.6822   -0.9050    0.0000 H   0  0  0  0  0  0  0  0  0  0  0  0
    9.5822    3.6776    0.0000 H   0  0  0  0  0  0  0  0  0  0  0  0
    9.1836    2.9873    0.0000 H   0  0  0  0  0  0  0  0  0  0  0  0
   11.1972    3.9050    0.0000 H   0  0  0  0  0  0  0  0  0  0  0  0
   11.1972    1.9050    0.0000 H   0  0  0  0  0  0  0  0  0  0  0  0
   11.2803    4.5950    0.0000 H   0  0  0  0  0  0  0  0  0  0  0  0
   10.6603    5.2150    0.0000 H   0  0  0  0  0  0  0  0  0  0  0  0
   10.0403    4.5950    0.0000 H   0  0  0  0  0  0  0  0  0  0  0  0
   11.2163    2.5581    0.0000 H   0  0  0  0  0  0  0  0  0  0  0  0
   12.0632    2.7850    0.0000 H   0  0  0  0  0  0  0  0  0  0  0  0
   11.8363    3.6319    0.0000 H   0  0  0  0  0  0  0  0  0  0  0  0
   12.0632   -0.2150    0.0000 H   0  0  0  0  0  0  0  0  0  0  0  0
   12.7908    1.0700    0.0000 H   0  0  0  0  0  0  0  0  0  0  0  0
   11.9938    1.0700    0.0000 H   0  0  0  0  0  0  0  0  0  0  0  0
   10.9893   -1.2150    0.0000 H   0  0  0  0  0  0  0  0  0  0  0  0
   12.8598   -0.3799    0.0000 H   0  0  0  0  0  0  0  0  0  0  0  0
   13.6569   -0.3799    0.0000 H   0  0  0  0  0  0  0  0  0  0  0  0
   12.3923   -3.0250    0.0000 H   0  0  0  0  0  0  0  0  0  0  0  0
   11.3142   -2.3224    0.0000 H   0  0  0  0  0  0  0  0  0  0  0  0
   10.9157   -3.0127    0.0000 H   0  0  0  0  0  0  0  0  0  0  0  0
   13.7953   -2.5950    0.0000 H   0  0  0  0  0  0  0  0  0  0  0  0
   11.7383   -4.4876    0.0000 H   0  0  0  0  0  0  0  0  0  0  0  0
   12.1369   -3.7973    0.0000 H   0  0  0  0  0  0  0  0  0  0  0  0
   14.7349   -4.5127    0.0000 H   0  0  0  0  0  0  0  0  0  0  0  0
   14.3364   -3.8224    0.0000 H   0  0  0  0  0  0  0  0  0  0  0  0
   15.5273    0.4050    0.0000 H   0  0  0  0  0  0  0  0  0  0  0  0
   13.5138   -5.2973    0.0000 H   0  0  0  0  0  0  0  0  0  0  0  0
   13.9123   -5.9876    0.0000 H   0  0  0  0  0  0  0  0  0  0  0  0
   10.1233   -5.7150    0.0000 H   0  0  0  0  0  0  0  0  0  0  0  0
   15.5273   -7.2150    0.0000 H   0  0  0  0  0  0  0  0  0  0  0  0
  1 26  2  0  0  0  0
  2 29  2  0  0  0  0
  3 35  1  0  0  0  0
  3 84  1  0  0  0  0
  4 35  2  0  0  0  0
  5 36  2  0  0  0  0
  6 41  2  0  0  0  0
  7 46  2  0  0  0  0
  8 52  2  0  0  0  0
  9 55  1  0  0  0  0
  9119  1  0  0  0  0
 10 55  2  0  0  0  0
 11 57  2  0  0  0  0
 12 59  1  0  0  0  0
 12122  1  0  0  0  0
 13 59  2  0  0  0  0
 14 61  1  0  0  0  0
 14123  1  0  0  0  0
 15 61  2  0  0  0  0
 16 22  1  0  0  0  0
 16 29  1  0  0  0  0
 16 66  1  0  0  0  0
 28 17  1  1  0  0  0
 17 36  1  0  0  0  0
 17 81  1  0  0  0  0
 37 18  1  1  0  0  0
 18 41  1  0  0  0  0
 18 85  1  0  0  0  0
 42 19  1  6  0  0  0
 19 46  1  0  0  0  0
 19 98  1  0  0  0  0
 49 20  1  1  0  0  0
 20 52  1  0  0  0  0
 20108  1  0  0  0  0
 53 21  1  1  0  0  0
 21 57  1  0  0  0  0
 21114  1  0  0  0  0
 22 23  1  0  0  0  0
 22 24  1  0  0  0  0
 22 26  1  0  0  0  0
 23 24  1  0  0  0  0
 23 62  1  0  0  0  0
 23 63  1  0  0  0  0
 24 64  1  0  0  0  0
 24 65  1  0  0  0  0
 25 27  1  0  0  0  0
 25 30  1  0  0  0  0
 25 31  1  0  0  0  0
 25 67  1  0  0  0  0
 26 35  1  0  0  0  0
 27 28  1  0  0  0  0
 27 68  1  0  0  0  0
 27 69  1  0  0  0  0
 28 29  1  0  0  0  0
 28 70  1  0  0  0  0
 30 32  1  0  0  0  0
 30 71  1  0  0  0  0
 30 72  1  0  0  0  0
 31 33  1  0  0  0  0
 31 73  1  0  0  0  0
 31 74  1  0  0  0  0
 32 34  1  0  0  0  0
 32 75  1  0  0  0  0
 32 76  1  0  0  0  0
 33 34  1  0  0  0  0
 33 77  1  0  0  0  0
 33 78  1  0  0  0  0
 34 79  1  0  0  0  0
 34 80  1  0  0  0  0
 36 37  1  0  0  0  0
 37 38  1  0  0  0  0
 37 82  1  0  0  0  0
 38 39  1  0  0  0  0
 38 40  1  6  0  0  0
 38 83  1  0  0  0  0
 39 43  1  0  0  0  0
 39 86  1  0  0  0  0
 39 87  1  0  0  0  0
 40 88  1  0  0  0  0
 40 89  1  0  0  0  0
 40 90  1  0  0  0  0
 41 42  1  0  0  0  0
 42 44  1  0  0  0  0
 42 91  1  0  0  0  0
 43 92  1  0  0  0  0
 43 93  1  0  0  0  0
 43 94  1  0  0  0  0
 44 45  1  0  0  0  0
 44 95  1  0  0  0  0
 44 96  1  0  0  0  0
 45 47  1  0  0  0  0
 45 48  1  0  0  0  0
 45 97  1  0  0  0  0
 46 49  1  0  0  0  0
 47 99  1  0  0  0  0
 47100  1  0  0  0  0
 47101  1  0  0  0  0
 48102  1  0  0  0  0
 48103  1  0  0  0  0
 48104  1  0  0  0  0
 49 50  1  0  0  0  0
 49105  1  0  0  0  0
 50 51  1  0  0  0  0
 50106  1  0  0  0  0
 50107  1  0  0  0  0
 51 55  1  0  0  0  0
 51109  1  0  0  0  0
 51110  1  0  0  0  0
 52 53  1  0  0  0  0
 53 54  1  0  0  0  0
 53111  1  0  0  0  0
 54 56  1  0  0  0  0
 54112  1  0  0  0  0
 54113  1  0  0  0  0
 56 59  1  0  0  0  0
 56115  1  0  0  0  0
 56116  1  0  0  0  0
 57 58  1  0  0  0  0
 58 60  1  0  0  0  0
 58117  1  0  0  0  0
 58118  1  0  0  0  0
 60 61  1  0  0  0  0
 60120  1  0  0  0  0
 60121  1  0  0  0  0
M  END
> <PUBCHEM_COMPOUND_CID>
507064
> <PUBCHEM_COMPOUND_CANONICALIZED>
1
> <PUBCHEM_CACTVS_COMPLEXITY>
1640
> <PUBCHEM_CACTVS_HBOND_ACCEPTOR>
15
> <PUBCHEM_CACTVS_HBOND_DONOR>
10
> <PUBCHEM_CACTVS_ROTATABLE_BOND>
28
> <PUBCHEM_CACTVS_SUBSKEYS>
AAADcfB/vAAAAAAAAAAAAAAAGAAAAAAAAAAwAAAAAAAAAAAAAAAAHgAQCAAADazBgAQCCALAAgAIAIGQGAIAAAAAAAAAAIHIAAAAQBoAgCAUQAAGFgCAAAG/n4KOAAAAAAAAAAAAAAAAAAAAAAAAAAAAAA==
> <PUBCHEM_IUPAC_OPENEYE_NAME>
(4S)-5-[[(1R)-3-carboxy-1-[[(1S)-1-[[(1S,2S)-1-[[(1S)-1-(cyclohexylmethyl)-2-[(1-oxalocyclopropyl)amino]-2-oxo-ethyl]carbamoyl]-2-methyl-butyl]carbamoyl]-3-methyl-butyl]carbamoyl]propyl]amino]-4-(3-carboxypropanoylamino)-5-oxo-pentanoic acid
> <PUBCHEM_IUPAC_CAS_NAME>
(4S)-5-[[(2R)-4-carboxy-1-[[(2S)-1-[[(2S,3S)-1-[[(2S)-3-cyclohexyl-1-[(1-oxalocyclopropyl)amino]-1-oxopropan-2-yl]amino]-3-methyl-1-oxopentan-2-yl]amino]-4-methyl-1-oxopentan-2-yl]amino]-1-oxobutan-2-yl]amino]-4-[(3-carboxy-1-oxopropyl)amino]-5-oxopentanoic acid
> <PUBCHEM_IUPAC_NAME_MARKUP>
(4<I>S</I>)-5-[[(2<I>R</I>)-4-carboxy-1-[[(2<I>S</I>)-1-[[(2<I>S</I>,3<I>S</I>)-1-[[(2<I>S</I>)-3-cyclohexyl-1-[(1-oxalocyclopropyl)amino]-1-oxopropan-2-yl]amino]-3-methyl-1-oxopentan-2-yl]amino]-4-methyl-1-oxopentan-2-yl]amino]-1-oxobutan-2-yl]amino]-4-(3-carboxypropanoylamino)-5-oxopentanoic acid
> <PUBCHEM_IUPAC_NAME>
(4S)-5-[[(2R)-4-carboxy-1-[[(2S)-1-[[(2S,3S)-1-[[(2S)-3-cyclohexyl-1-[(1-oxalocyclopropyl)amino]-1-oxopropan-2-yl]amino]-3-methyl-1-oxopentan-2-yl]amino]-4-methyl-1-oxopentan-2-yl]amino]-1-oxobutan-2-yl]amino]-4-(3-carboxypropanoylamino)-5-oxopentanoic acid
> <PUBCHEM_IUPAC_SYSTEMATIC_NAME>
(4S)-5-[[(2R)-1-[[(2S)-1-[[(2S,3S)-1-[[(2S)-1-[[1-(carboxycarbonyl)cyclopropyl]amino]-3-cyclohexyl-1-oxidanylidene-propan-2-yl]amino]-3-methyl-1-oxidanylidene-pentan-2-yl]amino]-4-methyl-1-oxidanylidene-pentan-2-yl]amino]-5-oxidanyl-1,5-bis(oxidanylidene)pentan-2-yl]amino]-5-oxidanylidene-4-[(4-oxidanyl-4-oxidanylidene-butanoyl)amino]pentanoic acid
> <PUBCHEM_IUPAC_TRADITIONAL_NAME>
(4S)-5-[[(1R)-3-carboxy-1-[[(1S)-1-[[(1S,2S)-1-[[(1S)-1-(cyclohexylmethyl)-2-keto-2-[(1-oxalocyclopropyl)amino]ethyl]carbamoyl]-2-methyl-butyl]carbamoyl]-3-methyl-butyl]carbamoyl]propyl]amino]-4-(3-carboxypropanoylamino)-5-keto-valeric acid
> <PUBCHEM_IUPAC_INCHI>
InChI=1S/C40H62N6O15/c1-5-22(4)32(38(59)44-27(20-23-9-7-6-8-10-23)37(58)46-40(17-18-40)33(54)39(60)61)45-36(57)26(19-21(2)3)43-35(56)25(12-15-30(50)51)42-34(55)24(11-14-29(48)49)41-28(47)13-16-31(52)53/h21-27,32H,5-20H2,1-4H3,(H,41,47)(H,42,55)(H,43,56)(H,44,59)(H,45,57)(H,46,58)(H,48,49)(H,50,51)(H,52,53)(H,60,61)/t22-,24-,25+,26-,27-,32-/m0/s1
> <PUBCHEM_IUPAC_INCHIKEY>
IJJAASPOBPIVST-UWIAJDIOSA-N
> <PUBCHEM_XLOGP3_AA>
2.4
> <PUBCHEM_EXACT_MASS>
866.42731529
> <PUBCHEM_MOLECULAR_FORMULA>
C40H62N6O15
> <PUBCHEM_MOLECULAR_WEIGHT>
867.0
> <PUBCHEM_OPENEYE_CAN_SMILES>
CCC(C)C(C(=O)NC(CC1CCCCC1)C(=O)NC2(CC2)C(=O)C(=O)O)NC(=O)C(CC(C)C)NC(=O)C(CCC(=O)O)NC(=O)C(CCC(=O)O)NC(=O)CCC(=O)O
> <PUBCHEM_OPENEYE_ISO_SMILES>
CC[C@H](C)[C@@H](C(=O)N[C@@H](CC1CCCCC1)C(=O)NC2(CC2)C(=O)C(=O)O)NC(=O)[C@H](CC(C)C)NC(=O)[C@@H](CCC(=O)O)NC(=O)[C@H](CCC(=O)O)NC(=O)CCC(=O)O
> <PUBCHEM_CACTVS_TPSA>
341
> <PUBCHEM_MONOISOTOPIC_WEIGHT>
866.42731529
> <PUBCHEM_TOTAL_CHARGE>
0
> <PUBCHEM_HEAVY_ATOM_COUNT>
61
> <PUBCHEM_ATOM_DEF_STEREO_COUNT>
6
> <PUBCHEM_ATOM_UDEF_STEREO_COUNT>
0
> <PUBCHEM_BOND_DEF_STEREO_COUNT>
0
> <PUBCHEM_BOND_UDEF_STEREO_COUNT>
0
> <PUBCHEM_ISOTOPIC_ATOM_COUNT>
0
> <PUBCHEM_COMPONENT_COUNT>
1
> <PUBCHEM_CACTVS_TAUTO_COUNT>
-1
> <PUBCHEM_COORDINATE_TYPE>
1
5
255
> <PUBCHEM_BONDANNOTATIONS>
28  17  5
37  18  5
42  19  6
49  20  5
53  21  5
38  40  6
$$$$
