507057
  -OEChem-10302200282D
112113  0     1  0  0  0  0  0999 V2000
    6.3301   -5.6550    0.0000 O   0  0  0  0  0  0  0  0  0  0  0  0
    3.7320   -3.1550    0.0000 O   0  0  0  0  0  0  0  0  0  0  0  0
    4.5981    0.3450    0.0000 O   0  0  0  0  0  0  0  0  0  0  0  0
    4.5981    1.3450    0.0000 O   0  0  0  0  0  0  0  0  0  0  0  0
    5.4641    4.8450    0.0000 O   0  0  0  0  0  0  0  0  0  0  0  0
    7.1962    5.8450    0.0000 O   0  0  0  0  0  0  0  0  0  0  0  0
    8.0622    4.3450    0.0000 O   0  0  0  0  0  0  0  0  0  0  0  0
    2.8660    7.3450    0.0000 O   0  0  0  0  0  0  0  0  0  0  0  0
    2.0000    5.8450    0.0000 O   0  0  0  0  0  0  0  0  0  0  0  0
    5.4641   -3.1550    0.0000 N   0  0  0  0  0  0  0  0  0  0  0  0
    7.1962   -4.1550    0.0000 N   0  0  0  0  0  0  0  0  0  0  0  0
    5.4641   -1.1550    0.0000 N   0  0  0  0  0  0  0  0  0  0  0  0
    6.3301    1.3450    0.0000 N   0  0  0  0  0  0  0  0  0  0  0  0
    9.0327   -3.1605    0.0000 N   0  0  0  0  0  0  0  0  0  0  0  0
    9.8418   -4.5617    0.0000 N   0  0  0  0  0  0  0  0  0  0  0  0
    4.5981    3.3450    0.0000 N   0  0  0  0  0  0  0  0  0  0  0  0
   10.0109   -2.9526    0.0000 N   0  0  0  0  0  0  0  0  0  0  0  0
   10.5109   -3.8186    0.0000 N   0  0  0  0  0  0  0  0  0  0  0  0
    4.5981   -5.6550    0.0000 C   0  0  0  0  0  0  0  0  0  0  0  0
    3.7320   -6.1550    0.0000 C   0  0  0  0  0  0  0  0  0  0  0  0
    5.4641   -6.1550    0.0000 C   0  0  0  0  0  0  0  0  0  0  0  0
    4.5981   -4.6550    0.0000 C   0  0  0  0  0  0  0  0  0  0  0  0
    3.7320   -7.1550    0.0000 C   0  0  0  0  0  0  0  0  0  0  0  0
    5.4641   -7.1550    0.0000 C   0  0  0  0  0  0  0  0  0  0  0  0
    4.5981   -7.6550    0.0000 C   0  0  0  0  0  0  0  0  0  0  0  0
    5.4641   -4.1550    0.0000 C   0  0  1  0  0  0  0  0  0  0  0  0
    6.3301   -4.6550    0.0000 C   0  0  0  0  0  0  0  0  0  0  0  0
    4.5981   -1.6550    0.0000 C   0  0  2  0  0  0  0  0  0  0  0  0
    4.5981   -2.6550    0.0000 C   0  0  0  0  0  0  0  0  0  0  0  0
    3.7320   -1.1550    0.0000 C   0  0  2  0  0  0  0  0  0  0  0  0
    8.0622   -4.6550    0.0000 C   0  0  1  0  0  0  0  0  0  0  0  0
    3.7320   -0.1550    0.0000 C   0  0  0  0  0  0  0  0  0  0  0  0
    2.8660   -1.6550    0.0000 C   0  0  0  0  0  0  0  0  0  0  0  0
    6.3301    0.3450    0.0000 C   0  0  2  0  0  0  0  0  0  0  0  0
    8.0622   -5.6550    0.0000 C   0  0  0  0  0  0  0  0  0  0  0  0
    5.4641   -0.1550    0.0000 C   0  0  0  0  0  0  0  0  0  0  0  0
    7.1962   -0.1550    0.0000 C   0  0  0  0  0  0  0  0  0  0  0  0
    2.8660    0.3450    0.0000 C   0  0  0  0  0  0  0  0  0  0  0  0
    8.9282   -4.1550    0.0000 C   0  0  0  0  0  0  0  0  0  0  0  0
    8.0622    0.3450    0.0000 C   0  0  0  0  0  0  0  0  0  0  0  0
    8.9282   -6.1550    0.0000 C   0  0  0  0  0  0  0  0  0  0  0  0
    8.9282   -0.1550    0.0000 C   0  0  0  0  0  0  0  0  0  0  0  0
    8.0622    1.3450    0.0000 C   0  0  0  0  0  0  0  0  0  0  0  0
    5.4641    1.8450    0.0000 C   0  0  0  0  0  0  0  0  0  0  0  0
    5.4641    2.8450    0.0000 C   0  0  1  0  0  0  0  0  0  0  0  0
    8.9282   -7.1550    0.0000 C   0  0  0  0  0  0  0  0  0  0  0  0
    6.3301    3.3450    0.0000 C   0  0  0  0  0  0  0  0  0  0  0  0
    6.3301    4.3450    0.0000 C   0  0  0  0  0  0  0  0  0  0  0  0
    4.5981    4.3450    0.0000 C   0  0  0  0  0  0  0  0  0  0  0  0
    3.7320    4.8450    0.0000 C   0  0  0  0  0  0  0  0  0  0  0  0
    7.1962    4.8450    0.0000 C   0  0  0  0  0  0  0  0  0  0  0  0
    3.7320    5.8450    0.0000 C   0  0  0  0  0  0  0  0  0  0  0  0
    2.8660    6.3450    0.0000 C   0  0  0  0  0  0  0  0  0  0  0  0
    5.1350   -5.3450    0.0000 H   0  0  0  0  0  0  0  0  0  0  0  0
    3.5200   -5.5724    0.0000 H   0  0  0  0  0  0  0  0  0  0  0  0
    3.1215   -6.2627    0.0000 H   0  0  0  0  0  0  0  0  0  0  0  0
    6.0747   -6.2627    0.0000 H   0  0  0  0  0  0  0  0  0  0  0  0
    5.6762   -5.5724    0.0000 H   0  0  0  0  0  0  0  0  0  0  0  0
    4.3860   -4.0724    0.0000 H   0  0  0  0  0  0  0  0  0  0  0  0
    3.9875   -4.7627    0.0000 H   0  0  0  0  0  0  0  0  0  0  0  0
    3.1215   -7.0473    0.0000 H   0  0  0  0  0  0  0  0  0  0  0  0
    3.5200   -7.7376    0.0000 H   0  0  0  0  0  0  0  0  0  0  0  0
    5.6762   -7.7376    0.0000 H   0  0  0  0  0  0  0  0  0  0  0  0
    6.0747   -7.0473    0.0000 H   0  0  0  0  0  0  0  0  0  0  0  0
    4.1996   -8.1299    0.0000 H   0  0  0  0  0  0  0  0  0  0  0  0
    4.9966   -8.1299    0.0000 H   0  0  0  0  0  0  0  0  0  0  0  0
    6.0010   -3.8450    0.0000 H   0  0  0  0  0  0  0  0  0  0  0  0
    6.0010   -2.8450    0.0000 H   0  0  0  0  0  0  0  0  0  0  0  0
    4.5981   -1.0350    0.0000 H   0  0  0  0  0  0  0  0  0  0  0  0
    3.7320   -1.7750    0.0000 H   0  0  0  0  0  0  0  0  0  0  0  0
    7.1962   -3.5350    0.0000 H   0  0  0  0  0  0  0  0  0  0  0  0
    8.0622   -4.0350    0.0000 H   0  0  0  0  0  0  0  0  0  0  0  0
    4.3426   -0.2627    0.0000 H   0  0  0  0  0  0  0  0  0  0  0  0
    3.9441    0.4276    0.0000 H   0  0  0  0  0  0  0  0  0  0  0  0
    6.0010   -1.4650    0.0000 H   0  0  0  0  0  0  0  0  0  0  0  0
    2.5560   -1.1181    0.0000 H   0  0  0  0  0  0  0  0  0  0  0  0
    2.3291   -1.9650    0.0000 H   0  0  0  0  0  0  0  0  0  0  0  0
    3.1760   -2.1919    0.0000 H   0  0  0  0  0  0  0  0  0  0  0  0
    6.8671    0.6550    0.0000 H   0  0  0  0  0  0  0  0  0  0  0  0
    7.4516   -5.5473    0.0000 H   0  0  0  0  0  0  0  0  0  0  0  0
    7.8501   -6.2376    0.0000 H   0  0  0  0  0  0  0  0  0  0  0  0
    6.7976   -0.6299    0.0000 H   0  0  0  0  0  0  0  0  0  0  0  0
    7.5947   -0.6299    0.0000 H   0  0  0  0  0  0  0  0  0  0  0  0
    3.1760    0.8819    0.0000 H   0  0  0  0  0  0  0  0  0  0  0  0
    2.3291    0.6550    0.0000 H   0  0  0  0  0  0  0  0  0  0  0  0
    2.5560   -0.1919    0.0000 H   0  0  0  0  0  0  0  0  0  0  0  0
    8.0622   -0.2750    0.0000 H   0  0  0  0  0  0  0  0  0  0  0  0
    9.5388   -6.2627    0.0000 H   0  0  0  0  0  0  0  0  0  0  0  0
    9.1403   -5.5724    0.0000 H   0  0  0  0  0  0  0  0  0  0  0  0
    6.8671    1.6550    0.0000 H   0  0  0  0  0  0  0  0  0  0  0  0
    8.6182   -0.6919    0.0000 H   0  0  0  0  0  0  0  0  0  0  0  0
    9.4651   -0.4650    0.0000 H   0  0  0  0  0  0  0  0  0  0  0  0
    9.2382    0.3819    0.0000 H   0  0  0  0  0  0  0  0  0  0  0  0
    8.6822    1.3450    0.0000 H   0  0  0  0  0  0  0  0  0  0  0  0
    8.0622    1.9650    0.0000 H   0  0  0  0  0  0  0  0  0  0  0  0
    7.4422    1.3450    0.0000 H   0  0  0  0  0  0  0  0  0  0  0  0
    5.4641    3.4650    0.0000 H   0  0  0  0  0  0  0  0  0  0  0  0
    8.3082   -7.1550    0.0000 H   0  0  0  0  0  0  0  0  0  0  0  0
    8.9282   -7.7750    0.0000 H   0  0  0  0  0  0  0  0  0  0  0  0
    9.5482   -7.1550    0.0000 H   0  0  0  0  0  0  0  0  0  0  0  0
    6.5422    2.7624    0.0000 H   0  0  0  0  0  0  0  0  0  0  0  0
    6.9407    3.4527    0.0000 H   0  0  0  0  0  0  0  0  0  0  0  0
    4.0611    3.0350    0.0000 H   0  0  0  0  0  0  0  0  0  0  0  0
   10.2631   -2.3862    0.0000 H   0  0  0  0  0  0  0  0  0  0  0  0
    6.1181    4.9276    0.0000 H   0  0  0  0  0  0  0  0  0  0  0  0
    5.7196    4.2373    0.0000 H   0  0  0  0  0  0  0  0  0  0  0  0
    3.1215    4.9527    0.0000 H   0  0  0  0  0  0  0  0  0  0  0  0
    3.5200    4.2624    0.0000 H   0  0  0  0  0  0  0  0  0  0  0  0
    4.3426    5.7373    0.0000 H   0  0  0  0  0  0  0  0  0  0  0  0
    3.9441    6.4276    0.0000 H   0  0  0  0  0  0  0  0  0  0  0  0
    7.7331    6.1550    0.0000 H   0  0  0  0  0  0  0  0  0  0  0  0
    2.3291    7.6550    0.0000 H   0  0  0  0  0  0  0  0  0  0  0  0
  1 27  2  0  0  0  0
  2 29  2  0  0  0  0
  3 36  2  0  0  0  0
  4 44  2  0  0  0  0
  5 49  2  0  0  0  0
  6 51  1  0  0  0  0
  6111  1  0  0  0  0
  7 51  2  0  0  0  0
  8 53  1  0  0  0  0
  8112  1  0  0  0  0
  9 53  2  0  0  0  0
 26 10  1  6  0  0  0
 10 29  1  0  0  0  0
 10 68  1  0  0  0  0
 11 27  1  0  0  0  0
 31 11  1  6  0  0  0
 11 71  1  0  0  0  0
 28 12  1  6  0  0  0
 12 36  1  0  0  0  0
 12 75  1  0  0  0  0
 34 13  1  1  0  0  0
 13 44  1  0  0  0  0
 13 90  1  0  0  0  0
 14 17  1  0  0  0  0
 14 39  2  0  0  0  0
 15 18  2  0  0  0  0
 15 39  1  0  0  0  0
 45 16  1  6  0  0  0
 16 49  1  0  0  0  0
 16103  1  0  0  0  0
 17 18  1  0  0  0  0
 17104  1  0  0  0  0
 19 20  1  0  0  0  0
 19 21  1  0  0  0  0
 19 22  1  0  0  0  0
 19 54  1  0  0  0  0
 20 23  1  0  0  0  0
 20 55  1  0  0  0  0
 20 56  1  0  0  0  0
 21 24  1  0  0  0  0
 21 57  1  0  0  0  0
 21 58  1  0  0  0  0
 22 26  1  0  0  0  0
 22 59  1  0  0  0  0
 22 60  1  0  0  0  0
 23 25  1  0  0  0  0
 23 61  1  0  0  0  0
 23 62  1  0  0  0  0
 24 25  1  0  0  0  0
 24 63  1  0  0  0  0
 24 64  1  0  0  0  0
 25 65  1  0  0  0  0
 25 66  1  0  0  0  0
 26 27  1  0  0  0  0
 26 67  1  0  0  0  0
 28 29  1  0  0  0  0
 28 30  1  0  0  0  0
 28 69  1  0  0  0  0
 30 32  1  0  0  0  0
 30 33  1  1  0  0  0
 30 70  1  0  0  0  0
 31 35  1  0  0  0  0
 31 39  1  0  0  0  0
 31 72  1  0  0  0  0
 32 38  1  0  0  0  0
 32 73  1  0  0  0  0
 32 74  1  0  0  0  0
 33 76  1  0  0  0  0
 33 77  1  0  0  0  0
 33 78  1  0  0  0  0
 34 36  1  0  0  0  0
 34 37  1  0  0  0  0
 34 79  1  0  0  0  0
 35 41  1  0  0  0  0
 35 80  1  0  0  0  0
 35 81  1  0  0  0  0
 37 40  1  0  0  0  0
 37 82  1  0  0  0  0
 37 83  1  0  0  0  0
 38 84  1  0  0  0  0
 38 85  1  0  0  0  0
 38 86  1  0  0  0  0
 40 42  1  0  0  0  0
 40 43  1  0  0  0  0
 40 87  1  0  0  0  0
 41 46  1  0  0  0  0
 41 88  1  0  0  0  0
 41 89  1  0  0  0  0
 42 91  1  0  0  0  0
 42 92  1  0  0  0  0
 42 93  1  0  0  0  0
 43 94  1  0  0  0  0
 43 95  1  0  0  0  0
 43 96  1  0  0  0  0
 44 45  1  0  0  0  0
 45 47  1  0  0  0  0
 45 97  1  0  0  0  0
 46 98  1  0  0  0  0
 46 99  1  0  0  0  0
 46100  1  0  0  0  0
 47 48  1  0  0  0  0
 47101  1  0  0  0  0
 47102  1  0  0  0  0
 48 51  1  0  0  0  0
 48105  1  0  0  0  0
 48106  1  0  0  0  0
 49 50  1  0  0  0  0
 50 52  1  0  0  0  0
 50107  1  0  0  0  0
 50108  1  0  0  0  0
 52 53  1  0  0  0  0
 52109  1  0  0  0  0
 52110  1  0  0  0  0
M  END
> <PUBCHEM_COMPOUND_CID>
507057
> <PUBCHEM_COMPOUND_CANONICALIZED>
1
> <PUBCHEM_CACTVS_COMPLEXITY>
1230
> <PUBCHEM_CACTVS_HBOND_ACCEPTOR>
12
> <PUBCHEM_CACTVS_HBOND_DONOR>
8
> <PUBCHEM_CACTVS_ROTATABLE_BOND>
24
> <PUBCHEM_CACTVS_SUBSKEYS>
AAADcfB//AAAAAAAAAAAAAAAAAAAAWAAAAAwAAAAAAAAAAABgAAAHgAYCAAADSjBgwQDGAbCAgAqAAOwOAAAAAIAAAAUIIG4AAAAQBIAgCAUQAAEFgCAAAG/n4KOAAAAAAAAAAAAAAAAAAAAAAAAAAAAAA==
> <PUBCHEM_IUPAC_OPENEYE_NAME>
(4R)-4-(3-carboxypropanoylamino)-5-[[(1S)-1-[[(1S,2S)-1-[[(1S)-1-(cyclohexylmethyl)-2-oxo-2-[[(1S)-1-(2H-tetrazol-5-yl)butyl]amino]ethyl]carbamoyl]-2-methyl-butyl]carbamoyl]-3-methyl-butyl]amino]-5-oxo-pentanoic acid
> <PUBCHEM_IUPAC_CAS_NAME>
(4R)-4-[(3-carboxy-1-oxopropyl)amino]-5-[[(2S)-1-[[(2S,3S)-1-[[(2S)-3-cyclohexyl-1-oxo-1-[[(1S)-1-(2H-tetrazol-5-yl)butyl]amino]propan-2-yl]amino]-3-methyl-1-oxopentan-2-yl]amino]-4-methyl-1-oxopentan-2-yl]amino]-5-oxopentanoic acid
> <PUBCHEM_IUPAC_NAME_MARKUP>
(4<I>R</I>)-4-(3-carboxypropanoylamino)-5-[[(2<I>S</I>)-1-[[(2<I>S</I>,3<I>S</I>)-1-[[(2<I>S</I>)-3-cyclohexyl-1-oxo-1-[[(1<I>S</I>)-1-(2<I>H</I>-tetrazol-5-yl)butyl]amino]propan-2-yl]amino]-3-methyl-1-oxopentan-2-yl]amino]-4-methyl-1-oxopentan-2-yl]amino]-5-oxopentanoic acid
> <PUBCHEM_IUPAC_NAME>
(4R)-4-(3-carboxypropanoylamino)-5-[[(2S)-1-[[(2S,3S)-1-[[(2S)-3-cyclohexyl-1-oxo-1-[[(1S)-1-(2H-tetrazol-5-yl)butyl]amino]propan-2-yl]amino]-3-methyl-1-oxopentan-2-yl]amino]-4-methyl-1-oxopentan-2-yl]amino]-5-oxopentanoic acid
> <PUBCHEM_IUPAC_SYSTEMATIC_NAME>
(4R)-5-[[(2S)-1-[[(2S,3S)-1-[[(2S)-3-cyclohexyl-1-oxidanylidene-1-[[(1S)-1-(2H-1,2,3,4-tetrazol-5-yl)butyl]amino]propan-2-yl]amino]-3-methyl-1-oxidanylidene-pentan-2-yl]amino]-4-methyl-1-oxidanylidene-pentan-2-yl]amino]-5-oxidanylidene-4-[(4-oxidanyl-4-oxidanylidene-butanoyl)amino]pentanoic acid
> <PUBCHEM_IUPAC_TRADITIONAL_NAME>
(4R)-4-(3-carboxypropanoylamino)-5-[[(1S)-1-[[(1S,2S)-1-[[(1S)-1-(cyclohexylmethyl)-2-keto-2-[[(1S)-1-(2H-tetrazol-5-yl)butyl]amino]ethyl]carbamoyl]-2-methyl-butyl]carbamoyl]-3-methyl-butyl]amino]-5-keto-valeric acid
> <PUBCHEM_IUPAC_INCHI>
InChI=1S/C35H59N9O9/c1-6-11-23(31-41-43-44-42-31)37-33(51)26(19-22-12-9-8-10-13-22)39-35(53)30(21(5)7-2)40-34(52)25(18-20(3)4)38-32(50)24(14-16-28(46)47)36-27(45)15-17-29(48)49/h20-26,30H,6-19H2,1-5H3,(H,36,45)(H,37,51)(H,38,50)(H,39,53)(H,40,52)(H,46,47)(H,48,49)(H,41,42,43,44)/t21-,23-,24+,25-,26-,30-/m0/s1
> <PUBCHEM_IUPAC_INCHIKEY>
LSKJOGKXDHKJQJ-DUKUZKOWSA-N
> <PUBCHEM_XLOGP3_AA>
3.2
> <PUBCHEM_EXACT_MASS>
749.44357449
> <PUBCHEM_MOLECULAR_FORMULA>
C35H59N9O9
> <PUBCHEM_MOLECULAR_WEIGHT>
749.9
> <PUBCHEM_OPENEYE_CAN_SMILES>
CCCC(C1=NNN=N1)NC(=O)C(CC2CCCCC2)NC(=O)C(C(C)CC)NC(=O)C(CC(C)C)NC(=O)C(CCC(=O)O)NC(=O)CCC(=O)O
> <PUBCHEM_OPENEYE_ISO_SMILES>
CCC[C@@H](C1=NNN=N1)NC(=O)[C@H](CC2CCCCC2)NC(=O)[C@H]([C@@H](C)CC)NC(=O)[C@H](CC(C)C)NC(=O)[C@@H](CCC(=O)O)NC(=O)CCC(=O)O
> <PUBCHEM_CACTVS_TPSA>
275
> <PUBCHEM_MONOISOTOPIC_WEIGHT>
749.44357449
> <PUBCHEM_TOTAL_CHARGE>
0
> <PUBCHEM_HEAVY_ATOM_COUNT>
53
> <PUBCHEM_ATOM_DEF_STEREO_COUNT>
6
> <PUBCHEM_ATOM_UDEF_STEREO_COUNT>
0
> <PUBCHEM_BOND_DEF_STEREO_COUNT>
0
> <PUBCHEM_BOND_UDEF_STEREO_COUNT>
0
> <PUBCHEM_ISOTOPIC_ATOM_COUNT>
0
> <PUBCHEM_COMPONENT_COUNT>
1
> <PUBCHEM_CACTVS_TAUTO_COUNT>
-1
> <PUBCHEM_COORDINATE_TYPE>
1
5
255
> <PUBCHEM_BONDANNOTATIONS>
26  10  6
31  11  6
28  12  6
34  13  5
14  17  8
14  39  8
15  18  8
15  39  8
45  16  6
17  18  8
30  33  5
$$$$
