507267
  -OEChem-10302200282D
113117  0     1  0  0  0  0  0999 V2000
   10.8673    5.6233    0.0000 Cl  0  0  0  0  0  0  0  0  0  0  0  0
   10.8673    3.6233    0.0000 Cl  0  0  0  0  0  0  0  0  0  0  0  0
    3.1350    4.3100    0.0000 S   0  0  0  0  0  0  0  0  0  0  0  0
   14.1359    7.1886    0.0000 O   0  0  0  0  0  0  0  0  0  0  0  0
   16.4819    6.0968    0.0000 O   0  0  0  0  0  0  0  0  0  0  0  0
   16.4857    8.2723    0.0000 O   0  0  0  0  0  0  0  0  0  0  0  0
   13.4400    9.1578    0.0000 O   0  0  0  0  0  0  0  0  0  0  0  0
    3.1350    7.3100    0.0000 O   0  0  0  0  0  0  0  0  0  0  0  0
    4.0010    9.8100    0.0000 O   0  0  0  0  0  0  0  0  0  0  0  0
    4.1350    4.3100    0.0000 O   0  0  0  0  0  0  0  0  0  0  0  0
    2.1350    4.3100    0.0000 O   0  0  0  0  0  0  0  0  0  0  0  0
    1.5523   10.6464    0.0000 O   0  0  0  0  0  0  0  0  0  0  0  0
    3.1350    8.3100    0.0000 O   0  0  0  0  0  0  0  0  0  0  0  0
   14.4116    5.4280    0.0000 N   0  0  0  0  0  0  0  0  0  0  0  0
   14.4116    3.8186    0.0000 N   0  0  0  0  0  0  0  0  0  0  0  0
   15.9953    4.6233    0.0000 N   0  0  0  0  0  0  0  0  0  0  0  0
    3.1350    5.3100    0.0000 N   0  0  3  0  0  0  0  0  0  0  0  0
    4.8671    8.3100    0.0000 N   0  0  0  0  0  0  0  0  0  0  0  0
    3.1350    0.3100    0.0000 N   0  0  0  0  0  0  0  0  0  0  0  0
   14.7223    6.3786    0.0000 C   0  0  2  0  0  0  0  0  0  0  0  0
   15.6739    6.6859    0.0000 C   0  0  2  0  0  0  0  0  0  0  0  0
   15.6756    7.6859    0.0000 C   0  0  2  0  0  0  0  0  0  0  0  0
   14.7251    7.9966    0.0000 C   0  0  2  0  0  0  0  0  0  0  0  0
   14.4177    8.9482    0.0000 C   0  0  0  0  0  0  0  0  0  0  0  0
   13.4654    5.1233    0.0000 C   0  0  0  0  0  0  0  0  0  0  0  0
   14.9953    4.6233    0.0000 C   0  0  0  0  0  0  0  0  0  0  0  0
   13.4654    4.1233    0.0000 C   0  0  0  0  0  0  0  0  0  0  0  0
   12.5994    5.6233    0.0000 C   0  0  0  0  0  0  0  0  0  0  0  0
    4.0010    6.8100    0.0000 C   0  0  1  0  0  0  0  0  0  0  0  0
    4.8671    7.3100    0.0000 C   0  0  2  0  0  0  0  0  0  0  0  0
    4.0010    5.8100    0.0000 C   0  0  0  0  0  0  0  0  0  0  0  0
   16.4953    3.7573    0.0000 C   0  0  0  0  0  0  0  0  0  0  0  0
    2.2690    5.8100    0.0000 C   0  0  0  0  0  0  0  0  0  0  0  0
   12.5994    3.6233    0.0000 C   0  0  0  0  0  0  0  0  0  0  0  0
    5.7331    6.8100    0.0000 C   0  0  0  0  0  0  0  0  0  0  0  0
    1.4030    5.3100    0.0000 C   0  0  0  0  0  0  0  0  0  0  0  0
   11.7334    5.1233    0.0000 C   0  0  0  0  0  0  0  0  0  0  0  0
   11.7334    4.1233    0.0000 C   0  0  0  0  0  0  0  0  0  0  0  0
   17.4953    3.7573    0.0000 C   0  0  0  0  0  0  0  0  0  0  0  0
   15.9953    2.8913    0.0000 C   0  0  0  0  0  0  0  0  0  0  0  0
    6.5991    7.3100    0.0000 C   0  0  0  0  0  0  0  0  0  0  0  0
    0.5369    5.8100    0.0000 C   0  0  0  0  0  0  0  0  0  0  0  0
    1.4030    4.3100    0.0000 C   0  0  0  0  0  0  0  0  0  0  0  0
    3.1350    3.3100    0.0000 C   0  0  0  0  0  0  0  0  0  0  0  0
    3.1350   10.3100    0.0000 C   0  0  1  0  0  0  0  0  0  0  0  0
    3.0305   11.3045    0.0000 C   0  0  0  0  0  0  0  0  0  0  0  0
    4.0010    8.8100    0.0000 C   0  0  0  0  0  0  0  0  0  0  0  0
    2.2215    9.9033    0.0000 C   0  0  0  0  0  0  0  0  0  0  0  0
    2.0523   11.5124    0.0000 C   0  0  0  0  0  0  0  0  0  0  0  0
    6.5991    8.3100    0.0000 C   0  0  0  0  0  0  0  0  0  0  0  0
    7.4651    6.8100    0.0000 C   0  0  0  0  0  0  0  0  0  0  0  0
    4.0010    2.8100    0.0000 C   0  0  0  0  0  0  0  0  0  0  0  0
    2.2690    2.8100    0.0000 C   0  0  0  0  0  0  0  0  0  0  0  0
    7.4651    8.8100    0.0000 C   0  0  0  0  0  0  0  0  0  0  0  0
    8.3312    7.3100    0.0000 C   0  0  0  0  0  0  0  0  0  0  0  0
    4.0010    1.8100    0.0000 C   0  0  0  0  0  0  0  0  0  0  0  0
    2.2690    1.8100    0.0000 C   0  0  0  0  0  0  0  0  0  0  0  0
    3.1350    1.3100    0.0000 C   0  0  0  0  0  0  0  0  0  0  0  0
    8.3312    8.3100    0.0000 C   0  0  0  0  0  0  0  0  0  0  0  0
   15.1600    5.9394    0.0000 H   0  0  0  0  0  0  0  0  0  0  0  0
   16.2268    6.9664    0.0000 H   0  0  0  0  0  0  0  0  0  0  0  0
   16.2276    7.4035    0.0000 H   0  0  0  0  0  0  0  0  0  0  0  0
   14.1129    8.0946    0.0000 H   0  0  0  0  0  0  0  0  0  0  0  0
   15.0319    9.0334    0.0000 H   0  0  0  0  0  0  0  0  0  0  0  0
   14.4404    9.5678    0.0000 H   0  0  0  0  0  0  0  0  0  0  0  0
   17.0487    6.3479    0.0000 H   0  0  0  0  0  0  0  0  0  0  0  0
   16.4219    8.8890    0.0000 H   0  0  0  0  0  0  0  0  0  0  0  0
   16.3053    5.1602    0.0000 H   0  0  0  0  0  0  0  0  0  0  0  0
   12.5994    6.2433    0.0000 H   0  0  0  0  0  0  0  0  0  0  0  0
    3.4641    6.5000    0.0000 H   0  0  0  0  0  0  0  0  0  0  0  0
    4.3301    7.6200    0.0000 H   0  0  0  0  0  0  0  0  0  0  0  0
    4.2131    5.2274    0.0000 H   0  0  0  0  0  0  0  0  0  0  0  0
    4.6116    5.9177    0.0000 H   0  0  0  0  0  0  0  0  0  0  0  0
   15.8753    3.7573    0.0000 H   0  0  0  0  0  0  0  0  0  0  0  0
   13.2494    9.7478    0.0000 H   0  0  0  0  0  0  0  0  0  0  0  0
    2.6675    6.2850    0.0000 H   0  0  0  0  0  0  0  0  0  0  0  0
    1.8705    6.2850    0.0000 H   0  0  0  0  0  0  0  0  0  0  0  0
   12.5994    3.0033    0.0000 H   0  0  0  0  0  0  0  0  0  0  0  0
    5.3346    6.3350    0.0000 H   0  0  0  0  0  0  0  0  0  0  0  0
    6.1316    6.3350    0.0000 H   0  0  0  0  0  0  0  0  0  0  0  0
    1.9399    5.0000    0.0000 H   0  0  0  0  0  0  0  0  0  0  0  0
    5.4040    8.6200    0.0000 H   0  0  0  0  0  0  0  0  0  0  0  0
   17.4953    3.1373    0.0000 H   0  0  0  0  0  0  0  0  0  0  0  0
   18.1153    3.7573    0.0000 H   0  0  0  0  0  0  0  0  0  0  0  0
   17.4953    4.3773    0.0000 H   0  0  0  0  0  0  0  0  0  0  0  0
   15.4583    3.2013    0.0000 H   0  0  0  0  0  0  0  0  0  0  0  0
   15.6853    2.3543    0.0000 H   0  0  0  0  0  0  0  0  0  0  0  0
   16.5322    2.5813    0.0000 H   0  0  0  0  0  0  0  0  0  0  0  0
    0.8469    6.3469    0.0000 H   0  0  0  0  0  0  0  0  0  0  0  0
    0.0000    6.1200    0.0000 H   0  0  0  0  0  0  0  0  0  0  0  0
    0.2269    5.2731    0.0000 H   0  0  0  0  0  0  0  0  0  0  0  0
    0.7830    4.3100    0.0000 H   0  0  0  0  0  0  0  0  0  0  0  0
    1.4030    3.6900    0.0000 H   0  0  0  0  0  0  0  0  0  0  0  0
    2.0230    4.3100    0.0000 H   0  0  0  0  0  0  0  0  0  0  0  0
    3.6550   10.6477    0.0000 H   0  0  0  0  0  0  0  0  0  0  0  0
    2.5981    7.0000    0.0000 H   0  0  0  0  0  0  0  0  0  0  0  0
    3.6505   11.3045    0.0000 H   0  0  0  0  0  0  0  0  0  0  0  0
    3.0953   11.9211    0.0000 H   0  0  0  0  0  0  0  0  0  0  0  0
    1.7199    9.5388    0.0000 H   0  0  0  0  0  0  0  0  0  0  0  0
    2.5315    9.3663    0.0000 H   0  0  0  0  0  0  0  0  0  0  0  0
    2.2439   12.1021    0.0000 H   0  0  0  0  0  0  0  0  0  0  0  0
    1.4859   11.7646    0.0000 H   0  0  0  0  0  0  0  0  0  0  0  0
    6.0622    8.6200    0.0000 H   0  0  0  0  0  0  0  0  0  0  0  0
    7.4651    6.1900    0.0000 H   0  0  0  0  0  0  0  0  0  0  0  0
    4.5380    3.1200    0.0000 H   0  0  0  0  0  0  0  0  0  0  0  0
    1.7320    3.1200    0.0000 H   0  0  0  0  0  0  0  0  0  0  0  0
    7.4651    9.4300    0.0000 H   0  0  0  0  0  0  0  0  0  0  0  0
    8.8681    7.0000    0.0000 H   0  0  0  0  0  0  0  0  0  0  0  0
    4.5380    1.5000    0.0000 H   0  0  0  0  0  0  0  0  0  0  0  0
    1.7320    1.5000    0.0000 H   0  0  0  0  0  0  0  0  0  0  0  0
    8.8681    8.6200    0.0000 H   0  0  0  0  0  0  0  0  0  0  0  0
    2.5981    0.0000    0.0000 H   0  0  0  0  0  0  0  0  0  0  0  0
    3.6720    0.0000    0.0000 H   0  0  0  0  0  0  0  0  0  0  0  0
  1 37  1  0  0  0  0
  2 38  1  0  0  0  0
  3 10  2  0  0  0  0
  3 11  2  0  0  0  0
  3 17  1  0  0  0  0
  3 44  1  0  0  0  0
  4 20  1  0  0  0  0
  4 23  1  0  0  0  0
 21  5  1  6  0  0  0
  5 66  1  0  0  0  0
 22  6  1  6  0  0  0
  6 67  1  0  0  0  0
  7 24  1  0  0  0  0
  7 75  1  0  0  0  0
 29  8  1  1  0  0  0
  8 96  1  0  0  0  0
 45  9  1  6  0  0  0
  9 47  1  0  0  0  0
 12 48  1  0  0  0  0
 12 49  1  0  0  0  0
 13 47  2  0  0  0  0
 20 14  1  1  0  0  0
 14 25  1  0  0  0  0
 14 26  1  0  0  0  0
 15 26  2  0  0  0  0
 15 27  1  0  0  0  0
 16 26  1  0  0  0  0
 16 32  1  0  0  0  0
 16 68  1  0  0  0  0
 17 31  1  0  0  0  0
 17 33  1  0  0  0  0
 30 18  1  1  0  0  0
 18 47  1  0  0  0  0
 18 82  1  0  0  0  0
 19 58  1  0  0  0  0
 19112  1  0  0  0  0
 19113  1  0  0  0  0
 20 21  1  0  0  0  0
 20 60  1  0  0  0  0
 21 22  1  0  0  0  0
 21 61  1  0  0  0  0
 22 23  1  0  0  0  0
 22 62  1  0  0  0  0
 23 24  1  1  0  0  0
 23 63  1  0  0  0  0
 24 64  1  0  0  0  0
 24 65  1  0  0  0  0
 25 27  1  0  0  0  0
 25 28  2  0  0  0  0
 27 34  2  0  0  0  0
 28 37  1  0  0  0  0
 28 69  1  0  0  0  0
 29 30  1  0  0  0  0
 29 31  1  0  0  0  0
 29 70  1  0  0  0  0
 30 35  1  0  0  0  0
 30 71  1  0  0  0  0
 31 72  1  0  0  0  0
 31 73  1  0  0  0  0
 32 39  1  0  0  0  0
 32 40  1  0  0  0  0
 32 74  1  0  0  0  0
 33 36  1  0  0  0  0
 33 76  1  0  0  0  0
 33 77  1  0  0  0  0
 34 38  1  0  0  0  0
 34 78  1  0  0  0  0
 35 41  1  0  0  0  0
 35 79  1  0  0  0  0
 35 80  1  0  0  0  0
 36 42  1  0  0  0  0
 36 43  1  0  0  0  0
 36 81  1  0  0  0  0
 37 38  2  0  0  0  0
 39 83  1  0  0  0  0
 39 84  1  0  0  0  0
 39 85  1  0  0  0  0
 40 86  1  0  0  0  0
 40 87  1  0  0  0  0
 40 88  1  0  0  0  0
 41 50  2  0  0  0  0
 41 51  1  0  0  0  0
 42 89  1  0  0  0  0
 42 90  1  0  0  0  0
 42 91  1  0  0  0  0
 43 92  1  0  0  0  0
 43 93  1  0  0  0  0
 43 94  1  0  0  0  0
 44 52  2  0  0  0  0
 44 53  1  0  0  0  0
 45 46  1  0  0  0  0
 45 48  1  0  0  0  0
 45 95  1  0  0  0  0
 46 49  1  0  0  0  0
 46 97  1  0  0  0  0
 46 98  1  0  0  0  0
 48 99  1  0  0  0  0
 48100  1  0  0  0  0
 49101  1  0  0  0  0
 49102  1  0  0  0  0
 50 54  1  0  0  0  0
 50103  1  0  0  0  0
 51 55  2  0  0  0  0
 51104  1  0  0  0  0
 52 56  1  0  0  0  0
 52105  1  0  0  0  0
 53 57  2  0  0  0  0
 53106  1  0  0  0  0
 54 59  2  0  0  0  0
 54107  1  0  0  0  0
 55 59  1  0  0  0  0
 55108  1  0  0  0  0
 56 58  2  0  0  0  0
 56109  1  0  0  0  0
 57 58  1  0  0  0  0
 57110  1  0  0  0  0
 59111  1  0  0  0  0
M  END
> <PUBCHEM_COMPOUND_CID>
507267
> <PUBCHEM_COMPOUND_CANONICALIZED>
1
> <PUBCHEM_CACTVS_COMPLEXITY>
1190
> <PUBCHEM_CACTVS_HBOND_ACCEPTOR>
14
> <PUBCHEM_CACTVS_HBOND_DONOR>
7
> <PUBCHEM_CACTVS_ROTATABLE_BOND>
16
> <PUBCHEM_CACTVS_SUBSKEYS>
AAADcfB/vABGAAAAAAAAAAAAAAAAAWJEgAAwYMAAAAAAAFgB9AAAHgYQSAAADT7h3iYz2bfMFgKoAyRifHDCgD0hF6AJ2vg4dpmLeKLB25GeYAhvlgLbyCfw8KIOAARAAAIAACQACIAABAAASAAAAAAAAA==
> <PUBCHEM_IUPAC_OPENEYE_NAME>
(2S,3S,4R,5S)-2-[5,6-dichloro-2-(isopropylamino)benzimidazol-1-yl]-5-(hydroxymethyl)tetrahydrofuran-3,4-diol;[(3S)-tetrahydrofuran-3-yl] N-[(1S,2R)-3-[(4-aminophenyl)sulfonyl-isobutyl-amino]-1-benzyl-2-hydroxy-propyl]carbamate
> <PUBCHEM_IUPAC_CAS_NAME>
N-[(2S,3R)-4-[(4-aminophenyl)sulfonyl-(2-methylpropyl)amino]-3-hydroxy-1-phenylbutan-2-yl]carbamic acid [(3S)-3-oxolanyl] ester;(2S,3S,4R,5S)-2-[5,6-dichloro-2-(propan-2-ylamino)-1-benzimidazolyl]-5-(hydroxymethyl)oxolane-3,4-diol
> <PUBCHEM_IUPAC_NAME_MARKUP>
(2<I>S</I>,3<I>S</I>,4<I>R</I>,5<I>S</I>)-2-[5,6-dichloro-2-(propan-2-ylamino)benzimidazol-1-yl]-5-(hydroxymethyl)oxolane-3,4-diol;[(3<I>S</I>)-oxolan-3-yl] <I>N</I>-[(2<I>S</I>,3<I>R</I>)-4-[(4-aminophenyl)sulfonyl-(2-methylpropyl)amino]-3-hydroxy-1-phenylbutan-2-yl]carbamate
> <PUBCHEM_IUPAC_NAME>
(2S,3S,4R,5S)-2-[5,6-dichloro-2-(propan-2-ylamino)benzimidazol-1-yl]-5-(hydroxymethyl)oxolane-3,4-diol;[(3S)-oxolan-3-yl] N-[(2S,3R)-4-[(4-aminophenyl)sulfonyl-(2-methylpropyl)amino]-3-hydroxy-1-phenylbutan-2-yl]carbamate
> <PUBCHEM_IUPAC_SYSTEMATIC_NAME>
(2S,3S,4R,5S)-2-[5,6-bis(chloranyl)-2-(propan-2-ylamino)benzimidazol-1-yl]-5-(hydroxymethyl)oxolane-3,4-diol;[(3S)-oxolan-3-yl] N-[(2S,3R)-4-[(4-aminophenyl)sulfonyl-(2-methylpropyl)amino]-3-oxidanyl-1-phenyl-butan-2-yl]carbamate
> <PUBCHEM_IUPAC_TRADITIONAL_NAME>
N-[(1S,2R)-1-benzyl-2-hydroxy-3-[isobutyl(sulfanilyl)amino]propyl]carbamic acid [(3S)-tetrahydrofuran-3-yl] ester;(2S,3S,4R,5S)-2-[5,6-dichloro-2-(isopropylamino)benzimidazol-1-yl]-5-methylol-tetrahydrofuran-3,4-diol
> <PUBCHEM_IUPAC_INCHI>
InChI=1S/C25H35N3O6S.C15H19Cl2N3O4/c1-18(2)15-28(35(31,32)22-10-8-20(26)9-11-22)16-24(29)23(14-19-6-4-3-5-7-19)27-25(30)34-21-12-13-33-17-21;1-6(2)18-15-19-9-3-7(16)8(17)4-10(9)20(15)14-13(23)12(22)11(5-21)24-14/h3-11,18,21,23-24,29H,12-17,26H2,1-2H3,(H,27,30);3-4,6,11-14,21-23H,5H2,1-2H3,(H,18,19)/t21-,23-,24+;11-,12-,13-,14-/m00/s1
> <PUBCHEM_IUPAC_INCHIKEY>
ANZWCCNJMFIWLH-FIYUFGNWSA-N
> <PUBCHEM_EXACT_MASS>
880.2999185
> <PUBCHEM_MOLECULAR_FORMULA>
C40H54Cl2N6O10S
> <PUBCHEM_MOLECULAR_WEIGHT>
881.9
> <PUBCHEM_OPENEYE_CAN_SMILES>
CC(C)CN(CC(C(CC1=CC=CC=C1)NC(=O)OC2CCOC2)O)S(=O)(=O)C3=CC=C(C=C3)N.CC(C)NC1=NC2=CC(=C(C=C2N1C3C(C(C(O3)CO)O)O)Cl)Cl
> <PUBCHEM_OPENEYE_ISO_SMILES>
CC(C)CN(C[C@H]([C@H](CC1=CC=CC=C1)NC(=O)O[C@H]2CCOC2)O)S(=O)(=O)C3=CC=C(C=C3)N.CC(C)NC1=NC2=CC(=C(C=C2N1[C@@H]3[C@H]([C@H]([C@@H](O3)CO)O)O)Cl)Cl
> <PUBCHEM_CACTVS_TPSA>
239
> <PUBCHEM_MONOISOTOPIC_WEIGHT>
880.2999185
> <PUBCHEM_TOTAL_CHARGE>
0
> <PUBCHEM_HEAVY_ATOM_COUNT>
59
> <PUBCHEM_ATOM_DEF_STEREO_COUNT>
7
> <PUBCHEM_ATOM_UDEF_STEREO_COUNT>
0
> <PUBCHEM_BOND_DEF_STEREO_COUNT>
0
> <PUBCHEM_BOND_UDEF_STEREO_COUNT>
0
> <PUBCHEM_ISOTOPIC_ATOM_COUNT>
0
> <PUBCHEM_COMPONENT_COUNT>
2
> <PUBCHEM_CACTVS_TAUTO_COUNT>
-1
> <PUBCHEM_COORDINATE_TYPE>
1
5
255
> <PUBCHEM_BONDANNOTATIONS>
20  14  5
14  25  8
14  26  8
15  26  8
15  27  8
30  18  5
23  24  5
25  27  8
25  28  8
27  34  8
28  37  8
34  38  8
37  38  8
41  50  8
41  51  8
44  52  8
44  53  8
21  5  6
50  54  8
51  55  8
52  56  8
53  57  8
54  59  8
55  59  8
56  58  8
57  58  8
22  6  6
29  8  5
45  9  6
$$$$
