507244
  -OEChem-10302200282D
 40 43  0     1  0  0  0  0  0999 V2000
   13.7284   -1.3088    0.0000 Br  0  0  0  0  0  0  0  0  0  0  0  0
    4.6870   -0.7155    0.0000 O   0  0  0  0  0  0  0  0  0  0  0  0
    4.1111    1.8072    0.0000 O   0  0  0  0  0  0  0  0  0  0  0  0
    2.6166   -0.9905    0.0000 O   0  0  0  0  0  0  0  0  0  0  0  0
    9.1448   -2.1135    0.0000 O   0  0  0  0  0  0  0  0  0  0  0  0
    5.6005   -2.3088    0.0000 O   0  0  0  0  0  0  0  0  0  0  0  0
    6.4666   -0.8088    0.0000 N   0  0  0  0  0  0  0  0  0  0  0  0
    7.3326   -2.3088    0.0000 N   0  0  0  0  0  0  0  0  0  0  0  0
    4.5179    0.8936    0.0000 C   0  0  1  0  0  0  0  0  0  0  0  0
    5.6005   -0.3088    0.0000 C   0  0  1  0  0  0  0  0  0  0  0  0
    5.4960    0.6857    0.0000 C   0  0  0  0  0  0  0  0  0  0  0  0
    4.0179    0.0276    0.0000 C   0  0  1  0  0  0  0  0  0  0  0  0
    3.0233   -0.0769    0.0000 C   0  0  0  0  0  0  0  0  0  0  0  0
    7.3326   -0.3088    0.0000 C   0  0  0  0  0  0  0  0  0  0  0  0
    6.4666   -1.8088    0.0000 C   0  0  0  0  0  0  0  0  0  0  0  0
    8.1986   -0.8088    0.0000 C   0  0  0  0  0  0  0  0  0  0  0  0
    8.1986   -1.8088    0.0000 C   0  0  0  0  0  0  0  0  0  0  0  0
    9.1448   -0.5041    0.0000 C   0  0  0  0  0  0  0  0  0  0  0  0
    9.7284   -1.3088    0.0000 C   0  0  0  0  0  0  0  0  0  0  0  0
   10.7284   -1.3088    0.0000 C   0  0  0  0  0  0  0  0  0  0  0  0
   11.2284   -0.4428    0.0000 C   0  0  0  0  0  0  0  0  0  0  0  0
   11.2284   -2.1748    0.0000 C   0  0  0  0  0  0  0  0  0  0  0  0
   12.2284   -0.4428    0.0000 C   0  0  0  0  0  0  0  0  0  0  0  0
   12.2284   -2.1748    0.0000 C   0  0  0  0  0  0  0  0  0  0  0  0
   12.7284   -1.3088    0.0000 C   0  0  0  0  0  0  0  0  0  0  0  0
    4.9080    1.3755    0.0000 H   0  0  0  0  0  0  0  0  0  0  0  0
    5.5681   -0.9279    0.0000 H   0  0  0  0  0  0  0  0  0  0  0  0
    6.1160    0.6857    0.0000 H   0  0  0  0  0  0  0  0  0  0  0  0
    5.5608    1.3023    0.0000 H   0  0  0  0  0  0  0  0  0  0  0  0
    3.7957   -0.5512    0.0000 H   0  0  0  0  0  0  0  0  0  0  0  0
    3.0666    0.5416    0.0000 H   0  0  0  0  0  0  0  0  0  0  0  0
    2.4218    0.0731    0.0000 H   0  0  0  0  0  0  0  0  0  0  0  0
    7.3326    0.3112    0.0000 H   0  0  0  0  0  0  0  0  0  0  0  0
    4.4756    2.3088    0.0000 H   0  0  0  0  0  0  0  0  0  0  0  0
    9.3374    0.0853    0.0000 H   0  0  0  0  0  0  0  0  0  0  0  0
    2.0000   -1.0553    0.0000 H   0  0  0  0  0  0  0  0  0  0  0  0
   10.9184    0.0942    0.0000 H   0  0  0  0  0  0  0  0  0  0  0  0
   10.9184   -2.7118    0.0000 H   0  0  0  0  0  0  0  0  0  0  0  0
   12.5384    0.0942    0.0000 H   0  0  0  0  0  0  0  0  0  0  0  0
   12.5384   -2.7118    0.0000 H   0  0  0  0  0  0  0  0  0  0  0  0
  1 25  1  0  0  0  0
  2 10  1  0  0  0  0
  2 12  1  0  0  0  0
  9  3  1  1  0  0  0
  3 34  1  0  0  0  0
  4 13  1  0  0  0  0
  4 36  1  0  0  0  0
  5 17  1  0  0  0  0
  5 19  1  0  0  0  0
  6 15  2  0  0  0  0
 10  7  1  6  0  0  0
  7 14  1  0  0  0  0
  7 15  1  0  0  0  0
  8 15  1  0  0  0  0
  8 17  2  0  0  0  0
  9 11  1  0  0  0  0
  9 12  1  0  0  0  0
  9 26  1  0  0  0  0
 10 11  1  0  0  0  0
 10 27  1  0  0  0  0
 11 28  1  0  0  0  0
 11 29  1  0  0  0  0
 12 13  1  6  0  0  0
 12 30  1  0  0  0  0
 13 31  1  0  0  0  0
 13 32  1  0  0  0  0
 14 16  2  0  0  0  0
 14 33  1  0  0  0  0
 16 17  1  0  0  0  0
 16 18  1  0  0  0  0
 18 19  2  0  0  0  0
 18 35  1  0  0  0  0
 19 20  1  0  0  0  0
 20 21  2  0  0  0  0
 20 22  1  0  0  0  0
 21 23  1  0  0  0  0
 21 37  1  0  0  0  0
 22 24  2  0  0  0  0
 22 38  1  0  0  0  0
 23 25  2  0  0  0  0
 23 39  1  0  0  0  0
 24 25  1  0  0  0  0
 24 40  1  0  0  0  0
M  END
> <PUBCHEM_COMPOUND_CID>
507244
> <PUBCHEM_COMPOUND_CANONICALIZED>
1
> <PUBCHEM_CACTVS_COMPLEXITY>
653
> <PUBCHEM_CACTVS_HBOND_ACCEPTOR>
5
> <PUBCHEM_CACTVS_HBOND_DONOR>
2
> <PUBCHEM_CACTVS_ROTATABLE_BOND>
3
> <PUBCHEM_CACTVS_SUBSKEYS>
AAADccB7OAAAEAAAAAAAAAAAAAAAASIAAAAwQAAAAAAAAEABAAAAHgBACAABrBThmAYxAIMABgCoAiBmVAACCAAgIAQIiAAoCLiJNiKAsRiOcAAnxgMLqhew8CIOAgAAAAAAAAAEAAAAAAAAAAAAAAAAAA==
> <PUBCHEM_IUPAC_OPENEYE_NAME>
6-(4-bromophenyl)-3-[(2R,4S,5R)-4-hydroxy-5-(hydroxymethyl)tetrahydrofuran-2-yl]furo[2,3-d]pyrimidin-2-one
> <PUBCHEM_IUPAC_CAS_NAME>
6-(4-bromophenyl)-3-[(2R,4S,5R)-4-hydroxy-5-(hydroxymethyl)-2-oxolanyl]-2-furo[2,3-d]pyrimidinone
> <PUBCHEM_IUPAC_NAME_MARKUP>
6-(4-bromophenyl)-3-[(2<I>R</I>,4<I>S</I>,5<I>R</I>)-4-hydroxy-5-(hydroxymethyl)oxolan-2-yl]furo[2,3-d]pyrimidin-2-one
> <PUBCHEM_IUPAC_NAME>
6-(4-bromophenyl)-3-[(2R,4S,5R)-4-hydroxy-5-(hydroxymethyl)oxolan-2-yl]furo[2,3-d]pyrimidin-2-one
> <PUBCHEM_IUPAC_SYSTEMATIC_NAME>
6-(4-bromophenyl)-3-[(2R,4S,5R)-5-(hydroxymethyl)-4-oxidanyl-oxolan-2-yl]furo[2,3-d]pyrimidin-2-one
> <PUBCHEM_IUPAC_TRADITIONAL_NAME>
6-(4-bromophenyl)-3-[(2R,4S,5R)-4-hydroxy-5-methylol-tetrahydrofuran-2-yl]furo[2,3-d]pyrimidin-2-one
> <PUBCHEM_IUPAC_INCHI>
InChI=1S/C17H15BrN2O5/c18-11-3-1-9(2-4-11)13-5-10-7-20(17(23)19-16(10)25-13)15-6-12(22)14(8-21)24-15/h1-5,7,12,14-15,21-22H,6,8H2/t12-,14+,15+/m0/s1
> <PUBCHEM_IUPAC_INCHIKEY>
CJVPBSWJQFUILW-NWANDNLSSA-N
> <PUBCHEM_XLOGP3_AA>
1.8
> <PUBCHEM_EXACT_MASS>
406.01643
> <PUBCHEM_MOLECULAR_FORMULA>
C17H15BrN2O5
> <PUBCHEM_MOLECULAR_WEIGHT>
407.2
> <PUBCHEM_OPENEYE_CAN_SMILES>
C1C(C(OC1N2C=C3C=C(OC3=NC2=O)C4=CC=C(C=C4)Br)CO)O
> <PUBCHEM_OPENEYE_ISO_SMILES>
C1[C@@H]([C@H](O[C@H]1N2C=C3C=C(OC3=NC2=O)C4=CC=C(C=C4)Br)CO)O
> <PUBCHEM_CACTVS_TPSA>
91.6
> <PUBCHEM_MONOISOTOPIC_WEIGHT>
406.01643
> <PUBCHEM_TOTAL_CHARGE>
0
> <PUBCHEM_HEAVY_ATOM_COUNT>
25
> <PUBCHEM_ATOM_DEF_STEREO_COUNT>
3
> <PUBCHEM_ATOM_UDEF_STEREO_COUNT>
0
> <PUBCHEM_BOND_DEF_STEREO_COUNT>
0
> <PUBCHEM_BOND_UDEF_STEREO_COUNT>
0
> <PUBCHEM_ISOTOPIC_ATOM_COUNT>
0
> <PUBCHEM_COMPONENT_COUNT>
1
> <PUBCHEM_CACTVS_TAUTO_COUNT>
-1
> <PUBCHEM_COORDINATE_TYPE>
1
5
255
> <PUBCHEM_BONDANNOTATIONS>
12  13  6
14  16  8
16  17  8
16  18  8
18  19  8
20  21  8
20  22  8
21  23  8
22  24  8
23  25  8
24  25  8
9  3  5
5  17  8
5  19  8
10  7  6
7  14  8
7  15  8
8  15  8
8  17  8
$$$$
