507273
  -OEChem-10302200282D
 80 88  0     1  0  0  0  0  0999 V2000
    9.4247   -0.0804    0.0000 O   0  0  0  0  0  0  0  0  0  0  0  0
    5.4648   -3.6981    0.0000 O   0  0  0  0  0  0  0  0  0  0  0  0
    4.3666    0.3920    0.0000 O   0  0  0  0  0  0  0  0  0  0  0  0
    8.0380    1.4974    0.0000 O   0  0  0  0  0  0  0  0  0  0  0  0
    5.6054    1.6025    0.0000 O   0  0  0  0  0  0  0  0  0  0  0  0
    6.3463    1.1256    0.0000 O   0  0  0  0  0  0  0  0  0  0  0  0
    6.0344   -0.0756    0.0000 N   0  0  0  0  0  0  0  0  0  0  0  0
    7.5141   -0.1535    0.0000 N   0  0  0  0  0  0  0  0  0  0  0  0
    7.7516   -0.5287    0.0000 C   0  0  0  0  0  0  0  0  0  0  0  0
    6.5642   -2.3598    0.0000 C   0  0  0  0  0  0  0  0  0  0  0  0
    7.7516    0.8855    0.0000 C   0  0  0  0  0  0  0  0  0  0  0  0
    6.4936   -1.8162    0.0000 C   0  0  0  0  0  0  0  0  0  0  0  0
    7.0445    0.1784    0.0000 C   0  0  3  0  0  0  0  0  0  0  0  0
    8.4588    0.1784    0.0000 C   0  0  3  0  0  0  0  0  0  0  0  0
    5.7570   -1.0797    0.0000 C   0  0  3  0  0  0  0  0  0  0  0  0
    6.8114   -0.8668    0.0000 C   0  0  3  0  0  0  0  0  0  0  0  0
    7.4976   -1.5389    0.0000 C   0  0  1  0  0  0  0  0  0  0  0  0
    8.0948   -1.0799    0.0000 C   0  0  2  0  0  0  0  0  0  0  0  0
    8.7176   -0.7875    0.0000 C   0  0  0  0  0  0  0  0  0  0  0  0
    6.4008   -3.3463    0.0000 C   0  0  0  0  0  0  0  0  0  0  0  0
    7.7676   -2.5017    0.0000 C   0  0  0  0  0  0  0  0  0  0  0  0
    9.0339   -1.4235    0.0000 C   0  0  0  0  0  0  0  0  0  0  0  0
    5.3355    0.6396    0.0000 C   0  0  0  0  0  0  0  0  0  0  0  0
    7.2995    0.8232    0.0000 C   0  0  0  0  0  0  0  0  0  0  0  0
    8.7364   -2.7494    0.0000 C   0  0  0  0  0  0  0  0  0  0  0  0
    9.8010   -0.7820    0.0000 C   0  0  0  0  0  0  0  0  0  0  0  0
    7.0687   -3.2170    0.0000 C   0  0  0  0  0  0  0  0  0  0  0  0
    9.2058   -2.4086    0.0000 C   0  0  0  0  0  0  0  0  0  0  0  0
    9.0064   -3.7122    0.0000 C   0  0  0  0  0  0  0  0  0  0  0  0
   10.7401   -1.1257    0.0000 C   0  0  0  0  0  0  0  0  0  0  0  0
    7.3386   -4.1798    0.0000 C   0  0  0  0  0  0  0  0  0  0  0  0
   10.1449   -2.7522    0.0000 C   0  0  0  0  0  0  0  0  0  0  0  0
    8.3075   -4.4275    0.0000 C   0  0  0  0  0  0  0  0  0  0  0  0
   10.9121   -2.1108    0.0000 C   0  0  0  0  0  0  0  0  0  0  0  0
    3.6677    1.1072    0.0000 C   0  0  0  0  0  0  0  0  0  0  0  0
    7.8234    2.4741    0.0000 C   0  0  0  0  0  0  0  0  0  0  0  0
    2.6989    0.8596    0.0000 C   0  0  0  0  0  0  0  0  0  0  0  0
    6.8702    2.7766    0.0000 C   0  0  0  0  0  0  0  0  0  0  0  0
    3.9377    2.0701    0.0000 C   0  0  0  0  0  0  0  0  0  0  0  0
    8.5619    3.1483    0.0000 C   0  0  0  0  0  0  0  0  0  0  0  0
    2.0000    1.5748    0.0000 C   0  0  0  0  0  0  0  0  0  0  0  0
    6.6556    3.7532    0.0000 C   0  0  0  0  0  0  0  0  0  0  0  0
    3.2388    2.7853    0.0000 C   0  0  0  0  0  0  0  0  0  0  0  0
    8.3473    4.1250    0.0000 C   0  0  0  0  0  0  0  0  0  0  0  0
    2.2700    2.5377    0.0000 C   0  0  0  0  0  0  0  0  0  0  0  0
    7.3941    4.4275    0.0000 C   0  0  0  0  0  0  0  0  0  0  0  0
    7.7516    1.5055    0.0000 H   0  0  0  0  0  0  0  0  0  0  0  0
    6.3354   -2.4157    0.0000 H   0  0  0  0  0  0  0  0  0  0  0  0
    6.7387    0.7177    0.0000 H   0  0  0  0  0  0  0  0  0  0  0  0
    9.0788    0.1784    0.0000 H   0  0  0  0  0  0  0  0  0  0  0  0
    5.1437   -1.1702    0.0000 H   0  0  0  0  0  0  0  0  0  0  0  0
    6.2830   -0.5424    0.0000 H   0  0  0  0  0  0  0  0  0  0  0  0
    8.1175   -1.5305    0.0000 H   0  0  0  0  0  0  0  0  0  0  0  0
    8.2014   -1.6907    0.0000 H   0  0  0  0  0  0  0  0  0  0  0  0
    8.4555   -1.3494    0.0000 H   0  0  0  0  0  0  0  0  0  0  0  0
    9.2254   -1.1431    0.0000 H   0  0  0  0  0  0  0  0  0  0  0  0
    6.5148   -3.9558    0.0000 H   0  0  0  0  0  0  0  0  0  0  0  0
    7.0208   -3.3399    0.0000 H   0  0  0  0  0  0  0  0  0  0  0  0
    9.2642    0.5185    0.0000 H   0  0  0  0  0  0  0  0  0  0  0  0
    5.3635   -4.3098    0.0000 H   0  0  0  0  0  0  0  0  0  0  0  0
    9.1697   -2.3059    0.0000 H   0  0  0  0  0  0  0  0  0  0  0  0
    9.6944   -0.1713    0.0000 H   0  0  0  0  0  0  0  0  0  0  0  0
    6.4680   -3.0634    0.0000 H   0  0  0  0  0  0  0  0  0  0  0  0
    8.7302   -2.8064    0.0000 H   0  0  0  0  0  0  0  0  0  0  0  0
    9.6071   -3.8658    0.0000 H   0  0  0  0  0  0  0  0  0  0  0  0
   11.2157   -0.7279    0.0000 H   0  0  0  0  0  0  0  0  0  0  0  0
    6.9053   -4.6233    0.0000 H   0  0  0  0  0  0  0  0  0  0  0  0
   10.2516   -3.3630    0.0000 H   0  0  0  0  0  0  0  0  0  0  0  0
    8.4749   -5.0244    0.0000 H   0  0  0  0  0  0  0  0  0  0  0  0
   11.4943   -2.3238    0.0000 H   0  0  0  0  0  0  0  0  0  0  0  0
    2.5315    0.2626    0.0000 H   0  0  0  0  0  0  0  0  0  0  0  0
    6.4124    2.3585    0.0000 H   0  0  0  0  0  0  0  0  0  0  0  0
    4.5384    2.2236    0.0000 H   0  0  0  0  0  0  0  0  0  0  0  0
    9.1529    2.9608    0.0000 H   0  0  0  0  0  0  0  0  0  0  0  0
    1.3993    1.4213    0.0000 H   0  0  0  0  0  0  0  0  0  0  0  0
    6.0646    3.9408    0.0000 H   0  0  0  0  0  0  0  0  0  0  0  0
    3.4062    3.3823    0.0000 H   0  0  0  0  0  0  0  0  0  0  0  0
    8.8052    4.5430    0.0000 H   0  0  0  0  0  0  0  0  0  0  0  0
    1.8367    2.9811    0.0000 H   0  0  0  0  0  0  0  0  0  0  0  0
    7.2611    5.0330    0.0000 H   0  0  0  0  0  0  0  0  0  0  0  0
  1 19  1  0  0  0  0
  1 59  1  0  0  0  0
  2 20  1  0  0  0  0
  2 60  1  0  0  0  0
  3 23  1  0  0  0  0
  3 35  1  0  0  0  0
  4 24  1  0  0  0  0
  4 36  1  0  0  0  0
  5 23  2  0  0  0  0
  6 24  2  0  0  0  0
  7 13  1  0  0  0  0
  7 15  1  0  0  0  0
  7 23  1  0  0  0  0
  8 14  1  0  0  0  0
  8 16  1  0  0  0  0
  8 24  1  0  0  0  0
  9 13  1  0  0  0  0
  9 14  1  0  0  0  0
  9 17  1  0  0  0  0
  9 19  1  0  0  0  0
 10 15  1  0  0  0  0
 10 16  1  0  0  0  0
 10 18  1  0  0  0  0
 10 20  1  0  0  0  0
 11 13  1  0  0  0  0
 11 14  1  0  0  0  0
 11 18  1  0  0  0  0
 11 47  1  0  0  0  0
 12 15  1  0  0  0  0
 12 16  1  0  0  0  0
 12 17  1  0  0  0  0
 12 48  1  0  0  0  0
 13 49  1  0  0  0  0
 14 50  1  0  0  0  0
 15 51  1  0  0  0  0
 16 52  1  0  0  0  0
 17 21  1  6  0  0  0
 17 53  1  0  0  0  0
 18 22  1  6  0  0  0
 18 54  1  0  0  0  0
 19 55  1  0  0  0  0
 19 56  1  0  0  0  0
 20 57  1  0  0  0  0
 20 58  1  0  0  0  0
 21 25  2  0  0  0  0
 21 27  1  0  0  0  0
 22 26  2  0  0  0  0
 22 28  1  0  0  0  0
 25 29  1  0  0  0  0
 25 61  1  0  0  0  0
 26 30  1  0  0  0  0
 26 62  1  0  0  0  0
 27 31  2  0  0  0  0
 27 63  1  0  0  0  0
 28 32  2  0  0  0  0
 28 64  1  0  0  0  0
 29 33  2  0  0  0  0
 29 65  1  0  0  0  0
 30 34  2  0  0  0  0
 30 66  1  0  0  0  0
 31 33  1  0  0  0  0
 31 67  1  0  0  0  0
 32 34  1  0  0  0  0
 32 68  1  0  0  0  0
 33 69  1  0  0  0  0
 34 70  1  0  0  0  0
 35 37  2  0  0  0  0
 35 39  1  0  0  0  0
 36 38  2  0  0  0  0
 36 40  1  0  0  0  0
 37 41  1  0  0  0  0
 37 71  1  0  0  0  0
 38 42  1  0  0  0  0
 38 72  1  0  0  0  0
 39 43  2  0  0  0  0
 39 73  1  0  0  0  0
 40 44  2  0  0  0  0
 40 74  1  0  0  0  0
 41 45  2  0  0  0  0
 41 75  1  0  0  0  0
 42 46  2  0  0  0  0
 42 76  1  0  0  0  0
 43 45  1  0  0  0  0
 43 77  1  0  0  0  0
 44 46  1  0  0  0  0
 44 78  1  0  0  0  0
 45 79  1  0  0  0  0
 46 80  1  0  0  0  0
M  END
> <PUBCHEM_COMPOUND_CID>
507273
> <PUBCHEM_COMPOUND_CANONICALIZED>
1
> <PUBCHEM_CACTVS_COMPLEXITY>
1060
> <PUBCHEM_CACTVS_HBOND_ACCEPTOR>
6
> <PUBCHEM_CACTVS_HBOND_DONOR>
2
> <PUBCHEM_CACTVS_ROTATABLE_BOND>
8
> <PUBCHEM_CACTVS_SUBSKEYS>
AAADcfB/OAAAAAAAAAAAAAAAAABgwAAAAAA8ePHiAAAAAAABVAAAHgAACAAADyzhmAYwDoMABgCIAiBCGAACCAAgIAAIiAAOCIgMNiKE8RqMciAmxhGIqAeQ0PMPgAAAAAAAAAAAAAAAAAAAAAAAAAAAAA==
> <PUBCHEM_IUPAC_OPENEYE_NAME>
diphenyl (6R,12S)-1,5-bis(hydroxymethyl)-6,12-diphenyl-3,9-diazapentacyclo[6.4.0.02,7.04,11.05,10]dodecane-3,9-dicarboxylate
> <PUBCHEM_IUPAC_CAS_NAME>
(6R,12S)-1,5-bis(hydroxymethyl)-6,12-diphenyl-3,9-diazapentacyclo[6.4.0.02,7.04,11.05,10]dodecane-3,9-dicarboxylic acid diphenyl ester
> <PUBCHEM_IUPAC_NAME_MARKUP>
diphenyl (6<I>R</I>,12<I>S</I>)-1,5-bis(hydroxymethyl)-6,12-diphenyl-3,9-diazapentacyclo[6.4.0.0<SUP>2,7</SUP>.0<SUP>4,11</SUP>.0<SUP>5,10</SUP>]dodecane-3,9-dicarboxylate
> <PUBCHEM_IUPAC_NAME>
diphenyl (6R,12S)-1,5-bis(hydroxymethyl)-6,12-diphenyl-3,9-diazapentacyclo[6.4.0.02,7.04,11.05,10]dodecane-3,9-dicarboxylate
> <PUBCHEM_IUPAC_SYSTEMATIC_NAME>
diphenyl (6R,12S)-1,5-bis(hydroxymethyl)-6,12-diphenyl-3,9-diazapentacyclo[6.4.0.02,7.04,11.05,10]dodecane-3,9-dicarboxylate
> <PUBCHEM_IUPAC_TRADITIONAL_NAME>
(6R,12S)-1,5-dimethylol-6,12-diphenyl-3,9-diazapentacyclo[6.4.0.02,7.04,11.05,10]dodecane-3,9-dicarboxylic acid diphenyl ester
> <PUBCHEM_IUPAC_INCHI>
InChI=1S/C38H34N2O6/c41-21-37-29(23-13-5-1-6-14-23)27-31-38(22-42)30(24-15-7-2-8-16-24)28(33(37)39(31)35(43)45-25-17-9-3-10-18-25)34(37)40(32(27)38)36(44)46-26-19-11-4-12-20-26/h1-20,27-34,41-42H,21-22H2/t27?,28?,29-,30+,31?,32?,33?,34?,37?,38?
> <PUBCHEM_IUPAC_INCHIKEY>
JOGUXZBUKZOXCC-CFLIEMQQSA-N
> <PUBCHEM_XLOGP3_AA>
5.2
> <PUBCHEM_EXACT_MASS>
614.24168681
> <PUBCHEM_MOLECULAR_FORMULA>
C38H34N2O6
> <PUBCHEM_MOLECULAR_WEIGHT>
614.7
> <PUBCHEM_OPENEYE_CAN_SMILES>
C1=CC=C(C=C1)C2C3C4C5(C3N(C6C2(C(C6C5C7=CC=CC=C7)N4C(=O)OC8=CC=CC=C8)CO)C(=O)OC9=CC=CC=C9)CO
> <PUBCHEM_OPENEYE_ISO_SMILES>
C1=CC=C(C=C1)[C@H]2C3C4C5(C3N(C6C2(C(C6[C@H]5C7=CC=CC=C7)N4C(=O)OC8=CC=CC=C8)CO)C(=O)OC9=CC=CC=C9)CO
> <PUBCHEM_CACTVS_TPSA>
99.5
> <PUBCHEM_MONOISOTOPIC_WEIGHT>
614.24168681
> <PUBCHEM_TOTAL_CHARGE>
0
> <PUBCHEM_HEAVY_ATOM_COUNT>
46
> <PUBCHEM_ATOM_DEF_STEREO_COUNT>
2
> <PUBCHEM_ATOM_UDEF_STEREO_COUNT>
4
> <PUBCHEM_BOND_DEF_STEREO_COUNT>
0
> <PUBCHEM_BOND_UDEF_STEREO_COUNT>
0
> <PUBCHEM_ISOTOPIC_ATOM_COUNT>
0
> <PUBCHEM_COMPONENT_COUNT>
1
> <PUBCHEM_CACTVS_TAUTO_COUNT>
-1
> <PUBCHEM_COORDINATE_TYPE>
1
5
255
> <PUBCHEM_BONDANNOTATIONS>
17  21  6
18  22  6
21  25  8
21  27  8
22  26  8
22  28  8
25  29  8
26  30  8
27  31  8
28  32  8
29  33  8
30  34  8
31  33  8
32  34  8
35  37  8
35  39  8
36  38  8
36  40  8
37  41  8
38  42  8
39  43  8
40  44  8
41  45  8
42  46  8
43  45  8
44  46  8
13  7  3
15  7  3
14  8  3
16  8  3
$$$$
