507265
  -OEChem-10302200282D
 71 74  0     1  0  0  0  0  0999 V2000
    0.0000    3.2690    0.0000 Cl  0  0  0  0  0  0  0  0  0  0  0  0
    0.0000    1.2690    0.0000 Cl  0  0  0  0  0  0  0  0  0  0  0  0
    3.2686    4.8343    0.0000 O   0  0  0  0  0  0  0  0  0  0  0  0
    5.6146    3.7424    0.0000 O   0  0  0  0  0  0  0  0  0  0  0  0
    5.6183    5.9180    0.0000 O   0  0  0  0  0  0  0  0  0  0  0  0
    2.5726    6.8035    0.0000 O   0  0  0  0  0  0  0  0  0  0  0  0
    4.7014   12.5676    0.0000 O   0  0  0  0  0  0  0  0  0  0  0  0
    4.5735    9.8939    0.0000 O   0  0  0  0  0  0  0  0  0  0  0  0
    5.6245   14.1553    0.0000 O   0  0  0  0  0  0  0  0  0  0  0  0
    3.8924   17.1553    0.0000 O   0  0  0  0  0  0  0  0  0  0  0  0
    3.5443    3.0737    0.0000 N   0  0  0  0  0  0  0  0  0  0  0  0
    3.5443    1.4642    0.0000 N   0  0  0  0  0  0  0  0  0  0  0  0
    5.1279    2.2690    0.0000 N   0  0  0  0  0  0  0  0  0  0  0  0
    3.8924   14.1553    0.0000 N   0  0  0  0  0  0  0  0  0  0  0  0
    4.7584   15.6553    0.0000 N   0  0  0  0  0  0  0  0  0  0  0  0
    3.8550    4.0242    0.0000 C   0  0  2  0  0  0  0  0  0  0  0  0
    4.8066    4.3316    0.0000 C   0  0  2  0  0  0  0  0  0  0  0  0
    4.8083    5.3316    0.0000 C   0  0  2  0  0  0  0  0  0  0  0  0
    3.8578    5.6423    0.0000 C   0  0  2  0  0  0  0  0  0  0  0  0
    3.5504    6.5939    0.0000 C   0  0  0  0  0  0  0  0  0  0  0  0
    2.5981    2.7690    0.0000 C   0  0  0  0  0  0  0  0  0  0  0  0
    4.1279    2.2690    0.0000 C   0  0  0  0  0  0  0  0  0  0  0  0
    2.5981    1.7690    0.0000 C   0  0  0  0  0  0  0  0  0  0  0  0
    1.7320    3.2690    0.0000 C   0  0  0  0  0  0  0  0  0  0  0  0
    5.6279    1.4030    0.0000 C   0  0  0  0  0  0  0  0  0  0  0  0
    1.7320    1.2690    0.0000 C   0  0  0  0  0  0  0  0  0  0  0  0
    0.8660    2.7690    0.0000 C   0  0  0  0  0  0  0  0  0  0  0  0
    0.8660    1.7690    0.0000 C   0  0  0  0  0  0  0  0  0  0  0  0
    6.6279    1.4030    0.0000 C   0  0  0  0  0  0  0  0  0  0  0  0
    5.1279    0.5369    0.0000 C   0  0  0  0  0  0  0  0  0  0  0  0
    3.8924   13.1553    0.0000 C   0  0  1  0  0  0  0  0  0  0  0  0
    4.3924   11.6165    0.0000 C   0  0  1  0  0  0  0  0  0  0  0  0
    3.0834   12.5676    0.0000 C   0  0  0  0  0  0  0  0  0  0  0  0
    3.3924   11.6165    0.0000 C   0  0  0  0  0  0  0  0  0  0  0  0
    4.9802   10.8075    0.0000 C   0  0  0  0  0  0  0  0  0  0  0  0
    3.0264   14.6553    0.0000 C   0  0  0  0  0  0  0  0  0  0  0  0
    4.7584   14.6553    0.0000 C   0  0  0  0  0  0  0  0  0  0  0  0
    3.0264   15.6553    0.0000 C   0  0  0  0  0  0  0  0  0  0  0  0
    3.8924   16.1553    0.0000 C   0  0  0  0  0  0  0  0  0  0  0  0
    2.1604   16.1553    0.0000 C   0  0  0  0  0  0  0  0  0  0  0  0
    4.2926    3.5851    0.0000 H   0  0  0  0  0  0  0  0  0  0  0  0
    5.3595    4.6121    0.0000 H   0  0  0  0  0  0  0  0  0  0  0  0
    5.3602    5.0492    0.0000 H   0  0  0  0  0  0  0  0  0  0  0  0
    3.2456    5.7403    0.0000 H   0  0  0  0  0  0  0  0  0  0  0  0
    4.1645    6.6791    0.0000 H   0  0  0  0  0  0  0  0  0  0  0  0
    3.5731    7.2134    0.0000 H   0  0  0  0  0  0  0  0  0  0  0  0
    6.1814    3.9936    0.0000 H   0  0  0  0  0  0  0  0  0  0  0  0
    5.5546    6.5347    0.0000 H   0  0  0  0  0  0  0  0  0  0  0  0
    5.4379    2.8059    0.0000 H   0  0  0  0  0  0  0  0  0  0  0  0
    1.7320    3.8890    0.0000 H   0  0  0  0  0  0  0  0  0  0  0  0
    5.0079    1.4030    0.0000 H   0  0  0  0  0  0  0  0  0  0  0  0
    2.3820    7.3934    0.0000 H   0  0  0  0  0  0  0  0  0  0  0  0
    1.7320    0.6490    0.0000 H   0  0  0  0  0  0  0  0  0  0  0  0
    6.6279    0.7830    0.0000 H   0  0  0  0  0  0  0  0  0  0  0  0
    7.2479    1.4030    0.0000 H   0  0  0  0  0  0  0  0  0  0  0  0
    6.6279    2.0230    0.0000 H   0  0  0  0  0  0  0  0  0  0  0  0
    4.5910    0.8469    0.0000 H   0  0  0  0  0  0  0  0  0  0  0  0
    4.8179    0.0000    0.0000 H   0  0  0  0  0  0  0  0  0  0  0  0
    5.6648    0.2269    0.0000 H   0  0  0  0  0  0  0  0  0  0  0  0
    4.4448   13.4368    0.0000 H   0  0  0  0  0  0  0  0  0  0  0  0
    5.0048   11.7135    0.0000 H   0  0  0  0  0  0  0  0  0  0  0  0
    2.4938   12.7591    0.0000 H   0  0  0  0  0  0  0  0  0  0  0  0
    3.0280   11.1149    0.0000 H   0  0  0  0  0  0  0  0  0  0  0  0
    5.4942   10.4608    0.0000 H   0  0  0  0  0  0  0  0  0  0  0  0
    5.4109   11.2535    0.0000 H   0  0  0  0  0  0  0  0  0  0  0  0
    2.4895   14.3453    0.0000 H   0  0  0  0  0  0  0  0  0  0  0  0
    5.2954   15.9653    0.0000 H   0  0  0  0  0  0  0  0  0  0  0  0
    2.4704   16.6923    0.0000 H   0  0  0  0  0  0  0  0  0  0  0  0
    1.6234   16.4653    0.0000 H   0  0  0  0  0  0  0  0  0  0  0  0
    1.8504   15.6184    0.0000 H   0  0  0  0  0  0  0  0  0  0  0  0
    4.9379    9.3924    0.0000 H   0  0  0  0  0  0  0  0  0  0  0  0
  1 27  1  0  0  0  0
  2 28  1  0  0  0  0
  3 16  1  0  0  0  0
  3 19  1  0  0  0  0
 17  4  1  6  0  0  0
  4 47  1  0  0  0  0
 18  5  1  6  0  0  0
  5 48  1  0  0  0  0
  6 20  1  0  0  0  0
  6 52  1  0  0  0  0
  7 31  1  0  0  0  0
  7 32  1  0  0  0  0
  8 35  1  0  0  0  0
  8 71  1  0  0  0  0
  9 37  2  0  0  0  0
 10 39  2  0  0  0  0
 16 11  1  1  0  0  0
 11 21  1  0  0  0  0
 11 22  1  0  0  0  0
 12 22  2  0  0  0  0
 12 23  1  0  0  0  0
 13 22  1  0  0  0  0
 13 25  1  0  0  0  0
 13 49  1  0  0  0  0
 31 14  1  6  0  0  0
 14 36  1  0  0  0  0
 14 37  1  0  0  0  0
 15 37  1  0  0  0  0
 15 39  1  0  0  0  0
 15 67  1  0  0  0  0
 16 17  1  0  0  0  0
 16 41  1  0  0  0  0
 17 18  1  0  0  0  0
 17 42  1  0  0  0  0
 18 19  1  0  0  0  0
 18 43  1  0  0  0  0
 19 20  1  1  0  0  0
 19 44  1  0  0  0  0
 20 45  1  0  0  0  0
 20 46  1  0  0  0  0
 21 23  1  0  0  0  0
 21 24  2  0  0  0  0
 23 26  2  0  0  0  0
 24 27  1  0  0  0  0
 24 50  1  0  0  0  0
 25 29  1  0  0  0  0
 25 30  1  0  0  0  0
 25 51  1  0  0  0  0
 26 28  1  0  0  0  0
 26 53  1  0  0  0  0
 27 28  2  0  0  0  0
 29 54  1  0  0  0  0
 29 55  1  0  0  0  0
 29 56  1  0  0  0  0
 30 57  1  0  0  0  0
 30 58  1  0  0  0  0
 30 59  1  0  0  0  0
 31 33  1  0  0  0  0
 31 60  1  0  0  0  0
 32 34  1  0  0  0  0
 32 35  1  6  0  0  0
 32 61  1  0  0  0  0
 33 34  2  0  0  0  0
 33 62  1  0  0  0  0
 34 63  1  0  0  0  0
 35 64  1  0  0  0  0
 35 65  1  0  0  0  0
 36 38  2  0  0  0  0
 36 66  1  0  0  0  0
 38 39  1  0  0  0  0
 38 40  1  0  0  0  0
 40 68  1  0  0  0  0
 40 69  1  0  0  0  0
 40 70  1  0  0  0  0
M  END
> <PUBCHEM_COMPOUND_CID>
507265
> <PUBCHEM_COMPOUND_CANONICALIZED>
1
> <PUBCHEM_CACTVS_COMPLEXITY>
835
> <PUBCHEM_CACTVS_HBOND_ACCEPTOR>
10
> <PUBCHEM_CACTVS_HBOND_DONOR>
6
> <PUBCHEM_CACTVS_ROTATABLE_BOND>
6
> <PUBCHEM_CACTVS_SUBSKEYS>
AAADceB7vAAGAAAAAAAAAAAAAAAAAWJEAAAwQAAAAAAAAFgB8AAAHgIQCAAADD7hliYz0LfMFgCoAyV2dACCgC0hF6AJ2uE4dtiLfKLBu5GecAhv1yLb6OfwMAIAAABAAAIAACQAAIAABAAASAAAAAAAAA==
> <PUBCHEM_IUPAC_OPENEYE_NAME>
(2S,3S,4R,5S)-2-[5,6-dichloro-2-(isopropylamino)benzimidazol-1-yl]-5-(hydroxymethyl)tetrahydrofuran-3,4-diol;1-[(2R,5S)-5-(hydroxymethyl)-2,5-dihydrofuran-2-yl]-5-methyl-pyrimidine-2,4-dione
> <PUBCHEM_IUPAC_CAS_NAME>
(2S,3S,4R,5S)-2-[5,6-dichloro-2-(propan-2-ylamino)-1-benzimidazolyl]-5-(hydroxymethyl)oxolane-3,4-diol;1-[(2R,5S)-5-(hydroxymethyl)-2,5-dihydrofuran-2-yl]-5-methylpyrimidine-2,4-dione
> <PUBCHEM_IUPAC_NAME_MARKUP>
(2<I>S</I>,3<I>S</I>,4<I>R</I>,5<I>S</I>)-2-[5,6-dichloro-2-(propan-2-ylamino)benzimidazol-1-yl]-5-(hydroxymethyl)oxolane-3,4-diol;1-[(2<I>R</I>,5<I>S</I>)-5-(hydroxymethyl)-2,5-dihydrofuran-2-yl]-5-methylpyrimidine-2,4-dione
> <PUBCHEM_IUPAC_NAME>
(2S,3S,4R,5S)-2-[5,6-dichloro-2-(propan-2-ylamino)benzimidazol-1-yl]-5-(hydroxymethyl)oxolane-3,4-diol;1-[(2R,5S)-5-(hydroxymethyl)-2,5-dihydrofuran-2-yl]-5-methylpyrimidine-2,4-dione
> <PUBCHEM_IUPAC_SYSTEMATIC_NAME>
(2S,3S,4R,5S)-2-[5,6-bis(chloranyl)-2-(propan-2-ylamino)benzimidazol-1-yl]-5-(hydroxymethyl)oxolane-3,4-diol;1-[(2R,5S)-5-(hydroxymethyl)-2,5-dihydrofuran-2-yl]-5-methyl-pyrimidine-2,4-dione
> <PUBCHEM_IUPAC_TRADITIONAL_NAME>
(2S,3S,4R,5S)-2-[5,6-dichloro-2-(isopropylamino)benzimidazol-1-yl]-5-methylol-tetrahydrofuran-3,4-diol;5-methyl-1-[(2R,5S)-5-methylol-2,5-dihydrofuran-2-yl]pyrimidine-2,4-quinone
> <PUBCHEM_IUPAC_INCHI>
InChI=1S/C15H19Cl2N3O4.C10H12N2O4/c1-6(2)18-15-19-9-3-7(16)8(17)4-10(9)20(15)14-13(23)12(22)11(5-21)24-14;1-6-4-12(10(15)11-9(6)14)8-3-2-7(5-13)16-8/h3-4,6,11-14,21-23H,5H2,1-2H3,(H,18,19);2-4,7-8,13H,5H2,1H3,(H,11,14,15)/t11-,12-,13-,14-;7-,8+/m00/s1
> <PUBCHEM_IUPAC_INCHIKEY>
HZBGUADHZHDDFW-NSUCOYAVSA-N
> <PUBCHEM_EXACT_MASS>
599.1549684
> <PUBCHEM_MOLECULAR_FORMULA>
C25H31Cl2N5O8
> <PUBCHEM_MOLECULAR_WEIGHT>
600.4
> <PUBCHEM_OPENEYE_CAN_SMILES>
CC1=CN(C(=O)NC1=O)C2C=CC(O2)CO.CC(C)NC1=NC2=CC(=C(C=C2N1C3C(C(C(O3)CO)O)O)Cl)Cl
> <PUBCHEM_OPENEYE_ISO_SMILES>
CC1=CN(C(=O)NC1=O)[C@H]2C=C[C@H](O2)CO.CC(C)NC1=NC2=CC(=C(C=C2N1[C@@H]3[C@H]([C@H]([C@@H](O3)CO)O)O)Cl)Cl
> <PUBCHEM_CACTVS_TPSA>
179
> <PUBCHEM_MONOISOTOPIC_WEIGHT>
599.1549684
> <PUBCHEM_TOTAL_CHARGE>
0
> <PUBCHEM_HEAVY_ATOM_COUNT>
40
> <PUBCHEM_ATOM_DEF_STEREO_COUNT>
6
> <PUBCHEM_ATOM_UDEF_STEREO_COUNT>
0
> <PUBCHEM_BOND_DEF_STEREO_COUNT>
0
> <PUBCHEM_BOND_UDEF_STEREO_COUNT>
0
> <PUBCHEM_ISOTOPIC_ATOM_COUNT>
0
> <PUBCHEM_COMPONENT_COUNT>
2
> <PUBCHEM_CACTVS_TAUTO_COUNT>
-1
> <PUBCHEM_COORDINATE_TYPE>
1
5
255
> <PUBCHEM_BONDANNOTATIONS>
16  11  5
11  21  8
11  22  8
12  22  8
12  23  8
31  14  6
14  36  8
14  37  8
15  37  8
15  39  8
19  20  5
21  23  8
21  24  8
23  26  8
24  27  8
26  28  8
27  28  8
32  35  6
36  38  8
38  39  8
17  4  6
18  5  6
$$$$
