507296
  -OEChem-10302200282D
 45 47  0     1  0  0  0  0  0999 V2000
    6.3981   -0.7277    0.0000 S   0  0  0  0  0  0  0  0  0  0  0  0
    6.8981    0.1383    0.0000 O   0  0  0  0  0  0  0  0  0  0  0  0
    5.8981   -1.5937    0.0000 O   0  0  0  0  0  0  0  0  0  0  0  0
    4.6660   -0.7277    0.0000 N   0  0  0  0  0  0  0  0  0  0  0  0
    7.2641   -1.2277    0.0000 C   0  0  3  0  0  0  0  0  0  0  0  0
    5.5321   -0.2277    0.0000 C   0  0  0  0  0  0  0  0  0  0  0  0
    8.1301   -0.7277    0.0000 C   0  0  0  0  0  0  0  0  0  0  0  0
    3.8000   -0.2277    0.0000 C   0  0  0  0  0  0  0  0  0  0  0  0
    3.8000    0.7723    0.0000 C   0  0  0  0  0  0  0  0  0  0  0  0
    4.6660    1.2723    0.0000 C   0  0  0  0  0  0  0  0  0  0  0  0
    7.2641   -2.2277    0.0000 C   0  0  0  0  0  0  0  0  0  0  0  0
    5.5321    0.7723    0.0000 C   0  0  0  0  0  0  0  0  0  0  0  0
    2.9061   -0.7624    0.0000 C   0  0  0  0  0  0  0  0  0  0  0  0
    2.9176   -1.7623    0.0000 C   0  0  0  0  0  0  0  0  0  0  0  0
    2.9061    1.3070    0.0000 C   0  0  0  0  0  0  0  0  0  0  0  0
    8.1301    0.2723    0.0000 C   0  0  0  0  0  0  0  0  0  0  0  0
    8.9962   -1.2277    0.0000 C   0  0  0  0  0  0  0  0  0  0  0  0
    2.0000   -0.2485    0.0000 C   0  0  0  0  0  0  0  0  0  0  0  0
    4.6660    2.2723    0.0000 C   0  0  0  0  0  0  0  0  0  0  0  0
    2.0000    0.7931    0.0000 C   0  0  0  0  0  0  0  0  0  0  0  0
    2.0574   -2.2723    0.0000 C   0  0  0  0  0  0  0  0  0  0  0  0
    8.9962    0.7723    0.0000 C   0  0  0  0  0  0  0  0  0  0  0  0
    9.8622   -0.7277    0.0000 C   0  0  0  0  0  0  0  0  0  0  0  0
    9.8622    0.2723    0.0000 C   0  0  0  0  0  0  0  0  0  0  0  0
    6.7272   -1.5377    0.0000 H   0  0  0  0  0  0  0  0  0  0  0  0
    6.6441   -2.2277    0.0000 H   0  0  0  0  0  0  0  0  0  0  0  0
    7.2641   -2.8477    0.0000 H   0  0  0  0  0  0  0  0  0  0  0  0
    7.8841   -2.2277    0.0000 H   0  0  0  0  0  0  0  0  0  0  0  0
    6.0690    1.0823    0.0000 H   0  0  0  0  0  0  0  0  0  0  0  0
    3.1364   -2.3424    0.0000 H   0  0  0  0  0  0  0  0  0  0  0  0
    3.5269   -1.6476    0.0000 H   0  0  0  0  0  0  0  0  0  0  0  0
    2.9132    1.9269    0.0000 H   0  0  0  0  0  0  0  0  0  0  0  0
    7.5932    0.5823    0.0000 H   0  0  0  0  0  0  0  0  0  0  0  0
    8.9962   -1.8477    0.0000 H   0  0  0  0  0  0  0  0  0  0  0  0
    1.4643   -0.5606    0.0000 H   0  0  0  0  0  0  0  0  0  0  0  0
    5.2860    2.2723    0.0000 H   0  0  0  0  0  0  0  0  0  0  0  0
    4.6660    2.8923    0.0000 H   0  0  0  0  0  0  0  0  0  0  0  0
    4.0460    2.2723    0.0000 H   0  0  0  0  0  0  0  0  0  0  0  0
    1.4643    1.1052    0.0000 H   0  0  0  0  0  0  0  0  0  0  0  0
    1.7413   -1.7390    0.0000 H   0  0  0  0  0  0  0  0  0  0  0  0
    1.5241   -2.5885    0.0000 H   0  0  0  0  0  0  0  0  0  0  0  0
    2.3736   -2.8056    0.0000 H   0  0  0  0  0  0  0  0  0  0  0  0
    8.9962    1.3923    0.0000 H   0  0  0  0  0  0  0  0  0  0  0  0
   10.3991   -1.0377    0.0000 H   0  0  0  0  0  0  0  0  0  0  0  0
   10.3991    0.5823    0.0000 H   0  0  0  0  0  0  0  0  0  0  0  0
  1  2  2  0  0  0  0
  1  3  2  0  0  0  0
  1  5  1  0  0  0  0
  1  6  1  0  0  0  0
  4  6  2  0  0  0  0
  4  8  1  0  0  0  0
  5  7  1  0  0  0  0
  5 11  1  0  0  0  0
  5 25  1  0  0  0  0
  6 12  1  0  0  0  0
  7 16  2  0  0  0  0
  7 17  1  0  0  0  0
  8  9  1  0  0  0  0
  8 13  2  0  0  0  0
  9 10  1  0  0  0  0
  9 15  2  0  0  0  0
 10 12  2  0  0  0  0
 10 19  1  0  0  0  0
 11 26  1  0  0  0  0
 11 27  1  0  0  0  0
 11 28  1  0  0  0  0
 12 29  1  0  0  0  0
 13 14  1  0  0  0  0
 13 18  1  0  0  0  0
 14 21  1  0  0  0  0
 14 30  1  0  0  0  0
 14 31  1  0  0  0  0
 15 20  1  0  0  0  0
 15 32  1  0  0  0  0
 16 22  1  0  0  0  0
 16 33  1  0  0  0  0
 17 23  2  0  0  0  0
 17 34  1  0  0  0  0
 18 20  2  0  0  0  0
 18 35  1  0  0  0  0
 19 36  1  0  0  0  0
 19 37  1  0  0  0  0
 19 38  1  0  0  0  0
 20 39  1  0  0  0  0
 21 40  1  0  0  0  0
 21 41  1  0  0  0  0
 21 42  1  0  0  0  0
 22 24  2  0  0  0  0
 22 43  1  0  0  0  0
 23 24  1  0  0  0  0
 23 44  1  0  0  0  0
 24 45  1  0  0  0  0
M  END
> <PUBCHEM_COMPOUND_CID>
507296
> <PUBCHEM_COMPOUND_CANONICALIZED>
1
> <PUBCHEM_CACTVS_COMPLEXITY>
506
> <PUBCHEM_CACTVS_HBOND_ACCEPTOR>
3
> <PUBCHEM_CACTVS_HBOND_DONOR>
0
> <PUBCHEM_CACTVS_ROTATABLE_BOND>
4
> <PUBCHEM_CACTVS_SUBSKEYS>
AAADceB6MABAAAAAAAAAAAAAAAAAAAAAAAA8YIAAAAAAAACx9AAAHAQAAAAADAiFXgCywfIIEAqgAyRiRHDK0CBhCjAImDgwZJgIIOLgkZGEIAhggADoyAcQgMAOgAACAAACAAAAAAQAAAQAAAAAAAAAAA==
> <PUBCHEM_IUPAC_OPENEYE_NAME>
8-ethyl-4-methyl-2-(1-phenylethylsulfonyl)quinoline
> <PUBCHEM_IUPAC_CAS_NAME>
8-ethyl-4-methyl-2-(1-phenylethylsulfonyl)quinoline
> <PUBCHEM_IUPAC_NAME_MARKUP>
8-ethyl-4-methyl-2-(1-phenylethylsulfonyl)quinoline
> <PUBCHEM_IUPAC_NAME>
8-ethyl-4-methyl-2-(1-phenylethylsulfonyl)quinoline
> <PUBCHEM_IUPAC_SYSTEMATIC_NAME>
8-ethyl-4-methyl-2-(1-phenylethylsulfonyl)quinoline
> <PUBCHEM_IUPAC_TRADITIONAL_NAME>
8-ethyl-4-methyl-2-(1-phenylethylsulfonyl)quinoline
> <PUBCHEM_IUPAC_INCHI>
InChI=1S/C20H21NO2S/c1-4-16-11-8-12-18-14(2)13-19(21-20(16)18)24(22,23)15(3)17-9-6-5-7-10-17/h5-13,15H,4H2,1-3H3
> <PUBCHEM_IUPAC_INCHIKEY>
XVUVGMKZTHYNNU-UHFFFAOYSA-N
> <PUBCHEM_XLOGP3_AA>
4.8
> <PUBCHEM_EXACT_MASS>
339.12930009
> <PUBCHEM_MOLECULAR_FORMULA>
C20H21NO2S
> <PUBCHEM_MOLECULAR_WEIGHT>
339.5
> <PUBCHEM_OPENEYE_CAN_SMILES>
CCC1=C2C(=CC=C1)C(=CC(=N2)S(=O)(=O)C(C)C3=CC=CC=C3)C
> <PUBCHEM_OPENEYE_ISO_SMILES>
CCC1=C2C(=CC=C1)C(=CC(=N2)S(=O)(=O)C(C)C3=CC=CC=C3)C
> <PUBCHEM_CACTVS_TPSA>
55.4
> <PUBCHEM_MONOISOTOPIC_WEIGHT>
339.12930009
> <PUBCHEM_TOTAL_CHARGE>
0
> <PUBCHEM_HEAVY_ATOM_COUNT>
24
> <PUBCHEM_ATOM_DEF_STEREO_COUNT>
0
> <PUBCHEM_ATOM_UDEF_STEREO_COUNT>
1
> <PUBCHEM_BOND_DEF_STEREO_COUNT>
0
> <PUBCHEM_BOND_UDEF_STEREO_COUNT>
0
> <PUBCHEM_ISOTOPIC_ATOM_COUNT>
0
> <PUBCHEM_COMPONENT_COUNT>
1
> <PUBCHEM_CACTVS_TAUTO_COUNT>
-1
> <PUBCHEM_COORDINATE_TYPE>
1
5
255
> <PUBCHEM_BONDANNOTATIONS>
10  12  8
13  18  8
15  20  8
16  22  8
17  23  8
18  20  8
22  24  8
23  24  8
4  6  8
4  8  8
5  11  3
6  12  8
7  16  8
7  17  8
8  13  8
8  9  8
9  10  8
9  15  8
$$$$
