507271
  -OEChem-10302200282D
 64 70  0     1  0  0  0  0  0999 V2000
    3.0981   -2.2856    0.0000 O   0  0  0  0  0  0  0  0  0  0  0  0
    7.0580    1.3321    0.0000 O   0  0  0  0  0  0  0  0  0  0  0  0
    3.2388    3.0150    0.0000 O   0  0  0  0  0  0  0  0  0  0  0  0
    3.7753    2.3159    0.0000 O   0  0  0  0  0  0  0  0  0  0  0  0
    3.6677    1.3369    0.0000 N   0  0  0  0  0  0  0  0  0  0  0  0
    5.1475    1.2590    0.0000 N   0  0  0  0  0  0  0  0  0  0  0  0
    4.1976   -0.9473    0.0000 C   0  0  0  0  0  0  0  0  0  0  0  0
    5.3850    0.8838    0.0000 C   0  0  0  0  0  0  0  0  0  0  0  0
    4.1269   -0.4037    0.0000 C   0  0  0  0  0  0  0  0  0  0  0  0
    5.3850    2.2980    0.0000 C   0  0  0  0  0  0  0  0  0  0  0  0
    3.3904    0.3328    0.0000 C   0  0  3  0  0  0  0  0  0  0  0  0
    4.4448    0.5457    0.0000 C   0  0  3  0  0  0  0  0  0  0  0  0
    4.6779    1.5909    0.0000 C   0  0  3  0  0  0  0  0  0  0  0  0
    6.0921    1.5909    0.0000 C   0  0  3  0  0  0  0  0  0  0  0  0
    5.7281    0.3326    0.0000 C   0  0  2  0  0  0  0  0  0  0  0  0
    5.1310   -0.1264    0.0000 C   0  0  1  0  0  0  0  0  0  0  0  0
    4.0342   -1.9338    0.0000 C   0  0  0  0  0  0  0  0  0  0  0  0
    6.3509    0.6250    0.0000 C   0  0  0  0  0  0  0  0  0  0  0  0
    6.6672   -0.0110    0.0000 C   0  0  0  0  0  0  0  0  0  0  0  0
    5.4009   -1.0892    0.0000 C   0  0  0  0  0  0  0  0  0  0  0  0
    2.9689    2.0521    0.0000 C   0  0  0  0  0  0  0  0  0  0  0  0
    4.7665    2.1836    0.0000 C   0  0  0  0  0  0  0  0  0  0  0  0
    7.4344    0.6305    0.0000 C   0  0  0  0  0  0  0  0  0  0  0  0
    4.7021   -1.8045    0.0000 C   0  0  0  0  0  0  0  0  0  0  0  0
    6.8392   -0.9961    0.0000 C   0  0  0  0  0  0  0  0  0  0  0  0
    6.3698   -1.3369    0.0000 C   0  0  0  0  0  0  0  0  0  0  0  0
    2.0000    1.8045    0.0000 C   0  0  0  0  0  0  0  0  0  0  0  0
    5.3768    2.9758    0.0000 C   0  0  0  0  0  0  0  0  0  0  0  0
    8.3735    0.2868    0.0000 C   0  0  0  0  0  0  0  0  0  0  0  0
    4.9720   -2.7673    0.0000 C   0  0  0  0  0  0  0  0  0  0  0  0
    7.7783   -1.3398    0.0000 C   0  0  0  0  0  0  0  0  0  0  0  0
    6.6398   -2.2997    0.0000 C   0  0  0  0  0  0  0  0  0  0  0  0
    8.5455   -0.6983    0.0000 C   0  0  0  0  0  0  0  0  0  0  0  0
    5.9409   -3.0150    0.0000 C   0  0  0  0  0  0  0  0  0  0  0  0
    3.9688   -1.0032    0.0000 H   0  0  0  0  0  0  0  0  0  0  0  0
    5.3850    2.9180    0.0000 H   0  0  0  0  0  0  0  0  0  0  0  0
    2.7770    0.2423    0.0000 H   0  0  0  0  0  0  0  0  0  0  0  0
    3.9164    0.8701    0.0000 H   0  0  0  0  0  0  0  0  0  0  0  0
    4.3721    2.1302    0.0000 H   0  0  0  0  0  0  0  0  0  0  0  0
    6.7121    1.5909    0.0000 H   0  0  0  0  0  0  0  0  0  0  0  0
    6.2038    0.7303    0.0000 H   0  0  0  0  0  0  0  0  0  0  0  0
    5.7509   -0.1180    0.0000 H   0  0  0  0  0  0  0  0  0  0  0  0
    4.1482   -2.5433    0.0000 H   0  0  0  0  0  0  0  0  0  0  0  0
    4.6542   -1.9274    0.0000 H   0  0  0  0  0  0  0  0  0  0  0  0
    6.0889    0.0631    0.0000 H   0  0  0  0  0  0  0  0  0  0  0  0
    6.8588    0.2694    0.0000 H   0  0  0  0  0  0  0  0  0  0  0  0
    2.9968   -2.8973    0.0000 H   0  0  0  0  0  0  0  0  0  0  0  0
    6.8976    1.9310    0.0000 H   0  0  0  0  0  0  0  0  0  0  0  0
    7.3278    1.2412    0.0000 H   0  0  0  0  0  0  0  0  0  0  0  0
    4.1014   -1.6509    0.0000 H   0  0  0  0  0  0  0  0  0  0  0  0
    6.3636   -1.3938    0.0000 H   0  0  0  0  0  0  0  0  0  0  0  0
    6.8031   -0.8934    0.0000 H   0  0  0  0  0  0  0  0  0  0  0  0
    1.8465    2.4052    0.0000 H   0  0  0  0  0  0  0  0  0  0  0  0
    1.3993    1.6509    0.0000 H   0  0  0  0  0  0  0  0  0  0  0  0
    2.1535    1.2038    0.0000 H   0  0  0  0  0  0  0  0  0  0  0  0
    5.8680    2.5974    0.0000 H   0  0  0  0  0  0  0  0  0  0  0  0
    5.7551    3.4670    0.0000 H   0  0  0  0  0  0  0  0  0  0  0  0
    4.8856    3.3541    0.0000 H   0  0  0  0  0  0  0  0  0  0  0  0
    8.8491    0.6846    0.0000 H   0  0  0  0  0  0  0  0  0  0  0  0
    4.5387   -3.2108    0.0000 H   0  0  0  0  0  0  0  0  0  0  0  0
    7.8849   -1.9505    0.0000 H   0  0  0  0  0  0  0  0  0  0  0  0
    7.2404   -2.4533    0.0000 H   0  0  0  0  0  0  0  0  0  0  0  0
    9.1277   -0.9113    0.0000 H   0  0  0  0  0  0  0  0  0  0  0  0
    6.1083   -3.6120    0.0000 H   0  0  0  0  0  0  0  0  0  0  0  0
  1 17  1  0  0  0  0
  1 47  1  0  0  0  0
  2 18  1  0  0  0  0
  2 48  1  0  0  0  0
  3 21  2  0  0  0  0
  4 22  2  0  0  0  0
  5 11  1  0  0  0  0
  5 13  1  0  0  0  0
  5 21  1  0  0  0  0
  6 12  1  0  0  0  0
  6 14  1  0  0  0  0
  6 22  1  0  0  0  0
  7 11  1  0  0  0  0
  7 12  1  0  0  0  0
  7 15  1  0  0  0  0
  7 17  1  0  0  0  0
  8 13  1  0  0  0  0
  8 14  1  0  0  0  0
  8 16  1  0  0  0  0
  8 18  1  0  0  0  0
  9 11  1  0  0  0  0
  9 12  1  0  0  0  0
  9 16  1  0  0  0  0
  9 35  1  0  0  0  0
 10 13  1  0  0  0  0
 10 14  1  0  0  0  0
 10 15  1  0  0  0  0
 10 36  1  0  0  0  0
 11 37  1  0  0  0  0
 12 38  1  0  0  0  0
 13 39  1  0  0  0  0
 14 40  1  0  0  0  0
 15 19  1  6  0  0  0
 15 41  1  0  0  0  0
 16 20  1  6  0  0  0
 16 42  1  0  0  0  0
 17 43  1  0  0  0  0
 17 44  1  0  0  0  0
 18 45  1  0  0  0  0
 18 46  1  0  0  0  0
 19 23  2  0  0  0  0
 19 25  1  0  0  0  0
 20 24  2  0  0  0  0
 20 26  1  0  0  0  0
 21 27  1  0  0  0  0
 22 28  1  0  0  0  0
 23 29  1  0  0  0  0
 23 49  1  0  0  0  0
 24 30  1  0  0  0  0
 24 50  1  0  0  0  0
 25 31  2  0  0  0  0
 25 51  1  0  0  0  0
 26 32  2  0  0  0  0
 26 52  1  0  0  0  0
 27 53  1  0  0  0  0
 27 54  1  0  0  0  0
 27 55  1  0  0  0  0
 28 56  1  0  0  0  0
 28 57  1  0  0  0  0
 28 58  1  0  0  0  0
 29 33  2  0  0  0  0
 29 59  1  0  0  0  0
 30 34  2  0  0  0  0
 30 60  1  0  0  0  0
 31 33  1  0  0  0  0
 31 61  1  0  0  0  0
 32 34  1  0  0  0  0
 32 62  1  0  0  0  0
 33 63  1  0  0  0  0
 34 64  1  0  0  0  0
M  END
> <PUBCHEM_COMPOUND_CID>
507271
> <PUBCHEM_COMPOUND_CANONICALIZED>
1
> <PUBCHEM_CACTVS_COMPLEXITY>
797
> <PUBCHEM_CACTVS_HBOND_ACCEPTOR>
4
> <PUBCHEM_CACTVS_HBOND_DONOR>
2
> <PUBCHEM_CACTVS_ROTATABLE_BOND>
4
> <PUBCHEM_CACTVS_SUBSKEYS>
AAADceB7OAAAAAAAAAAAAAAAAABgwAAAAAA8eLFiAAAAAAABQAAAHgAACAAADyjhmAYyAIMAAgCIAiFSEAACAAAgAAAIiAAIAIgIMCKA0RCEYAAmhgCIiAeQ0PMPgAAAAAAAAAAAAAAAAAAAAAAAAAAAAA==
> <PUBCHEM_IUPAC_OPENEYE_NAME>
1-[(6S,12R)-9-acetyl-1,5-bis(hydroxymethyl)-6,12-diphenyl-3,9-diazapentacyclo[6.4.0.02,7.04,11.05,10]dodecan-3-yl]ethanone
> <PUBCHEM_IUPAC_CAS_NAME>
1-[(6S,12R)-9-acetyl-1,5-bis(hydroxymethyl)-6,12-diphenyl-3,9-diazapentacyclo[6.4.0.02,7.04,11.05,10]dodecan-3-yl]ethanone
> <PUBCHEM_IUPAC_NAME_MARKUP>
1-[(6<I>S</I>,12<I>R</I>)-9-acetyl-1,5-bis(hydroxymethyl)-6,12-diphenyl-3,9-diazapentacyclo[6.4.0.0<SUP>2,7</SUP>.0<SUP>4,11</SUP>.0<SUP>5,10</SUP>]dodecan-3-yl]ethanone
> <PUBCHEM_IUPAC_NAME>
1-[(6S,12R)-9-acetyl-1,5-bis(hydroxymethyl)-6,12-diphenyl-3,9-diazapentacyclo[6.4.0.02,7.04,11.05,10]dodecan-3-yl]ethanone
> <PUBCHEM_IUPAC_SYSTEMATIC_NAME>
1-[(6S,12R)-9-ethanoyl-1,5-bis(hydroxymethyl)-6,12-diphenyl-3,9-diazapentacyclo[6.4.0.02,7.04,11.05,10]dodecan-3-yl]ethanone
> <PUBCHEM_IUPAC_TRADITIONAL_NAME>
1-[(6S,12R)-9-acetyl-1,5-dimethylol-6,12-diphenyl-3,9-diazapentacyclo[6.4.0.02,7.04,11.05,10]dodecan-3-yl]ethanone
> <PUBCHEM_IUPAC_INCHI>
InChI=1S/C28H30N2O4/c1-15(33)29-23-19-21(17-9-5-3-6-10-17)27(13-31)24(29)20-22(18-11-7-4-8-12-18)28(23,14-32)25(19)30(16(2)34)26(20)27/h3-12,19-26,31-32H,13-14H2,1-2H3/t19?,20?,21-,22+,23?,24?,25?,26?,27?,28?
> <PUBCHEM_IUPAC_INCHIKEY>
TWAKWIDBBATZIP-FJTCQKHVSA-N
> <PUBCHEM_XLOGP3_AA>
1.2
> <PUBCHEM_EXACT_MASS>
458.22055744
> <PUBCHEM_MOLECULAR_FORMULA>
C28H30N2O4
> <PUBCHEM_MOLECULAR_WEIGHT>
458.5
> <PUBCHEM_OPENEYE_CAN_SMILES>
CC(=O)N1C2C3C(C4(C1C5C4N(C3C2(C5C6=CC=CC=C6)CO)C(=O)C)CO)C7=CC=CC=C7
> <PUBCHEM_OPENEYE_ISO_SMILES>
CC(=O)N1C2C3[C@@H](C4(C1C5C4N(C3C2([C@@H]5C6=CC=CC=C6)CO)C(=O)C)CO)C7=CC=CC=C7
> <PUBCHEM_CACTVS_TPSA>
81.1
> <PUBCHEM_MONOISOTOPIC_WEIGHT>
458.22055744
> <PUBCHEM_TOTAL_CHARGE>
0
> <PUBCHEM_HEAVY_ATOM_COUNT>
34
> <PUBCHEM_ATOM_DEF_STEREO_COUNT>
2
> <PUBCHEM_ATOM_UDEF_STEREO_COUNT>
4
> <PUBCHEM_BOND_DEF_STEREO_COUNT>
0
> <PUBCHEM_BOND_UDEF_STEREO_COUNT>
0
> <PUBCHEM_ISOTOPIC_ATOM_COUNT>
0
> <PUBCHEM_COMPONENT_COUNT>
1
> <PUBCHEM_CACTVS_TAUTO_COUNT>
-1
> <PUBCHEM_COORDINATE_TYPE>
1
5
255
> <PUBCHEM_BONDANNOTATIONS>
15  19  6
16  20  6
19  23  8
19  25  8
20  24  8
20  26  8
23  29  8
24  30  8
25  31  8
26  32  8
29  33  8
30  34  8
31  33  8
32  34  8
11  5  3
13  5  3
12  6  3
14  6  3
$$$$
