507274
  -OEChem-10302200282D
 84 90  0     1  0  0  0  0  0999 V2000
    3.4874    0.4272    0.0000 O   0  0  0  0  0  0  0  0  0  0  0  0
    7.4473   -3.1906    0.0000 O   0  0  0  0  0  0  0  0  0  0  0  0
    5.1687    2.0708    0.0000 O   0  0  0  0  0  0  0  0  0  0  0  0
    8.5558    0.0030    0.0000 O   0  0  0  0  0  0  0  0  0  0  0  0
    6.7701    1.4109    0.0000 O   0  0  0  0  0  0  0  0  0  0  0  0
    8.0882    1.6707    0.0000 O   0  0  0  0  0  0  0  0  0  0  0  0
    5.3980    0.3540    0.0000 N   0  0  0  0  0  0  0  0  0  0  0  0
    6.8777    0.4319    0.0000 N   0  0  0  0  0  0  0  0  0  0  0  0
    5.1604   -0.0212    0.0000 C   0  0  0  0  0  0  0  0  0  0  0  0
    6.3479   -1.8523    0.0000 C   0  0  0  0  0  0  0  0  0  0  0  0
    5.1604    1.3930    0.0000 C   0  0  0  0  0  0  0  0  0  0  0  0
    6.4185   -1.3087    0.0000 C   0  0  0  0  0  0  0  0  0  0  0  0
    4.4533    0.6859    0.0000 C   0  0  3  0  0  0  0  0  0  0  0  0
    5.8675    0.6859    0.0000 C   0  0  3  0  0  0  0  0  0  0  0  0
    6.1007   -0.3593    0.0000 C   0  0  3  0  0  0  0  0  0  0  0  0
    7.1551   -0.5722    0.0000 C   0  0  3  0  0  0  0  0  0  0  0  0
    5.4145   -1.0314    0.0000 C   0  0  1  0  0  0  0  0  0  0  0  0
    4.8173   -0.5724    0.0000 C   0  0  2  0  0  0  0  0  0  0  0  0
    4.1945   -0.2800    0.0000 C   0  0  0  0  0  0  0  0  0  0  0  0
    6.5113   -2.8388    0.0000 C   0  0  0  0  0  0  0  0  0  0  0  0
    5.1445   -1.9942    0.0000 C   0  0  0  0  0  0  0  0  0  0  0  0
    3.8782   -0.9160    0.0000 C   0  0  0  0  0  0  0  0  0  0  0  0
    5.7789    1.2786    0.0000 C   0  0  0  0  0  0  0  0  0  0  0  0
    7.8406    0.7018    0.0000 C   0  0  0  0  0  0  0  0  0  0  0  0
    4.1756   -2.2418    0.0000 C   0  0  0  0  0  0  0  0  0  0  0  0
    3.1111   -0.2745    0.0000 C   0  0  0  0  0  0  0  0  0  0  0  0
    5.8435   -2.7094    0.0000 C   0  0  0  0  0  0  0  0  0  0  0  0
    3.7062   -1.9011    0.0000 C   0  0  0  0  0  0  0  0  0  0  0  0
    3.9056   -3.2047    0.0000 C   0  0  0  0  0  0  0  0  0  0  0  0
    2.1720   -0.6182    0.0000 C   0  0  0  0  0  0  0  0  0  0  0  0
    5.5735   -3.6723    0.0000 C   0  0  0  0  0  0  0  0  0  0  0  0
    2.7671   -2.2447    0.0000 C   0  0  0  0  0  0  0  0  0  0  0  0
    5.5497    2.9954    0.0000 C   0  0  0  0  0  0  0  0  0  0  0  0
    9.5187    0.2729    0.0000 C   0  0  0  0  0  0  0  0  0  0  0  0
    4.6046   -3.9200    0.0000 C   0  0  0  0  0  0  0  0  0  0  0  0
    2.0000   -1.6033    0.0000 C   0  0  0  0  0  0  0  0  0  0  0  0
    5.9306    3.9200    0.0000 C   0  0  0  0  0  0  0  0  0  0  0  0
    4.6251    3.3764    0.0000 C   0  0  0  0  0  0  0  0  0  0  0  0
    6.5409    3.1277    0.0000 C   0  0  0  0  0  0  0  0  0  0  0  0
   10.4816    0.5429    0.0000 C   0  0  0  0  0  0  0  0  0  0  0  0
    9.7887   -0.6899    0.0000 C   0  0  0  0  0  0  0  0  0  0  0  0
    9.2487    1.2358    0.0000 C   0  0  0  0  0  0  0  0  0  0  0  0
    5.1604    2.0130    0.0000 H   0  0  0  0  0  0  0  0  0  0  0  0
    6.5767   -1.9082    0.0000 H   0  0  0  0  0  0  0  0  0  0  0  0
    3.8333    0.6859    0.0000 H   0  0  0  0  0  0  0  0  0  0  0  0
    6.1734    1.2252    0.0000 H   0  0  0  0  0  0  0  0  0  0  0  0
    6.6291   -0.0349    0.0000 H   0  0  0  0  0  0  0  0  0  0  0  0
    7.7684   -0.6627    0.0000 H   0  0  0  0  0  0  0  0  0  0  0  0
    4.7946   -1.0230    0.0000 H   0  0  0  0  0  0  0  0  0  0  0  0
    4.3417   -0.1747    0.0000 H   0  0  0  0  0  0  0  0  0  0  0  0
    3.6866   -0.6356    0.0000 H   0  0  0  0  0  0  0  0  0  0  0  0
    4.4565   -0.8419    0.0000 H   0  0  0  0  0  0  0  0  0  0  0  0
    5.8913   -2.8324    0.0000 H   0  0  0  0  0  0  0  0  0  0  0  0
    6.3972   -3.4482    0.0000 H   0  0  0  0  0  0  0  0  0  0  0  0
    3.6480    1.0260    0.0000 H   0  0  0  0  0  0  0  0  0  0  0  0
    7.5486   -3.8023    0.0000 H   0  0  0  0  0  0  0  0  0  0  0  0
    3.7423   -1.7984    0.0000 H   0  0  0  0  0  0  0  0  0  0  0  0
    3.2177    0.3362    0.0000 H   0  0  0  0  0  0  0  0  0  0  0  0
    6.4441   -2.5559    0.0000 H   0  0  0  0  0  0  0  0  0  0  0  0
    4.1819   -2.2988    0.0000 H   0  0  0  0  0  0  0  0  0  0  0  0
    3.3050   -3.3582    0.0000 H   0  0  0  0  0  0  0  0  0  0  0  0
    1.6964   -0.2204    0.0000 H   0  0  0  0  0  0  0  0  0  0  0  0
    6.0068   -4.1158    0.0000 H   0  0  0  0  0  0  0  0  0  0  0  0
    2.6605   -2.8555    0.0000 H   0  0  0  0  0  0  0  0  0  0  0  0
    4.4372   -4.5169    0.0000 H   0  0  0  0  0  0  0  0  0  0  0  0
    1.4178   -1.8163    0.0000 H   0  0  0  0  0  0  0  0  0  0  0  0
    6.5039    3.6838    0.0000 H   0  0  0  0  0  0  0  0  0  0  0  0
    6.1668    4.4932    0.0000 H   0  0  0  0  0  0  0  0  0  0  0  0
    5.3574    4.1562    0.0000 H   0  0  0  0  0  0  0  0  0  0  0  0
    4.8613    3.9496    0.0000 H   0  0  0  0  0  0  0  0  0  0  0  0
    4.0518    3.6126    0.0000 H   0  0  0  0  0  0  0  0  0  0  0  0
    4.3889    2.8031    0.0000 H   0  0  0  0  0  0  0  0  0  0  0  0
    6.6229    2.5132    0.0000 H   0  0  0  0  0  0  0  0  0  0  0  0
    7.1554    3.2098    0.0000 H   0  0  0  0  0  0  0  0  0  0  0  0
    6.4588    3.7423    0.0000 H   0  0  0  0  0  0  0  0  0  0  0  0
   10.6489   -0.0541    0.0000 H   0  0  0  0  0  0  0  0  0  0  0  0
   11.0785    0.7103    0.0000 H   0  0  0  0  0  0  0  0  0  0  0  0
   10.3142    1.1399    0.0000 H   0  0  0  0  0  0  0  0  0  0  0  0
    9.1917   -0.8573    0.0000 H   0  0  0  0  0  0  0  0  0  0  0  0
    9.9560   -1.2869    0.0000 H   0  0  0  0  0  0  0  0  0  0  0  0
   10.3856   -0.5226    0.0000 H   0  0  0  0  0  0  0  0  0  0  0  0
    9.8457    1.4032    0.0000 H   0  0  0  0  0  0  0  0  0  0  0  0
    9.0813    1.8328    0.0000 H   0  0  0  0  0  0  0  0  0  0  0  0
    8.6518    1.0684    0.0000 H   0  0  0  0  0  0  0  0  0  0  0  0
  1 19  1  0  0  0  0
  1 55  1  0  0  0  0
  2 20  1  0  0  0  0
  2 56  1  0  0  0  0
  3 23  1  0  0  0  0
  3 33  1  0  0  0  0
  4 24  1  0  0  0  0
  4 34  1  0  0  0  0
  5 23  2  0  0  0  0
  6 24  2  0  0  0  0
  7 13  1  0  0  0  0
  7 15  1  0  0  0  0
  7 23  1  0  0  0  0
  8 14  1  0  0  0  0
  8 16  1  0  0  0  0
  8 24  1  0  0  0  0
  9 13  1  0  0  0  0
  9 14  1  0  0  0  0
  9 17  1  0  0  0  0
  9 19  1  0  0  0  0
 10 15  1  0  0  0  0
 10 16  1  0  0  0  0
 10 18  1  0  0  0  0
 10 20  1  0  0  0  0
 11 13  1  0  0  0  0
 11 14  1  0  0  0  0
 11 18  1  0  0  0  0
 11 43  1  0  0  0  0
 12 15  1  0  0  0  0
 12 16  1  0  0  0  0
 12 17  1  0  0  0  0
 12 44  1  0  0  0  0
 13 45  1  0  0  0  0
 14 46  1  0  0  0  0
 15 47  1  0  0  0  0
 16 48  1  0  0  0  0
 17 21  1  1  0  0  0
 17 49  1  0  0  0  0
 18 22  1  1  0  0  0
 18 50  1  0  0  0  0
 19 51  1  0  0  0  0
 19 52  1  0  0  0  0
 20 53  1  0  0  0  0
 20 54  1  0  0  0  0
 21 25  2  0  0  0  0
 21 27  1  0  0  0  0
 22 26  2  0  0  0  0
 22 28  1  0  0  0  0
 25 29  1  0  0  0  0
 25 57  1  0  0  0  0
 26 30  1  0  0  0  0
 26 58  1  0  0  0  0
 27 31  2  0  0  0  0
 27 59  1  0  0  0  0
 28 32  2  0  0  0  0
 28 60  1  0  0  0  0
 29 35  2  0  0  0  0
 29 61  1  0  0  0  0
 30 36  2  0  0  0  0
 30 62  1  0  0  0  0
 31 35  1  0  0  0  0
 31 63  1  0  0  0  0
 32 36  1  0  0  0  0
 32 64  1  0  0  0  0
 33 37  1  0  0  0  0
 33 38  1  0  0  0  0
 33 39  1  0  0  0  0
 34 40  1  0  0  0  0
 34 41  1  0  0  0  0
 34 42  1  0  0  0  0
 35 65  1  0  0  0  0
 36 66  1  0  0  0  0
 37 67  1  0  0  0  0
 37 68  1  0  0  0  0
 37 69  1  0  0  0  0
 38 70  1  0  0  0  0
 38 71  1  0  0  0  0
 38 72  1  0  0  0  0
 39 73  1  0  0  0  0
 39 74  1  0  0  0  0
 39 75  1  0  0  0  0
 40 76  1  0  0  0  0
 40 77  1  0  0  0  0
 40 78  1  0  0  0  0
 41 79  1  0  0  0  0
 41 80  1  0  0  0  0
 41 81  1  0  0  0  0
 42 82  1  0  0  0  0
 42 83  1  0  0  0  0
 42 84  1  0  0  0  0
M  END
> <PUBCHEM_COMPOUND_CID>
507274
> <PUBCHEM_COMPOUND_CANONICALIZED>
1
> <PUBCHEM_CACTVS_COMPLEXITY>
988
> <PUBCHEM_CACTVS_HBOND_ACCEPTOR>
6
> <PUBCHEM_CACTVS_HBOND_DONOR>
2
> <PUBCHEM_CACTVS_ROTATABLE_BOND>
8
> <PUBCHEM_CACTVS_SUBSKEYS>
AAADcfB/OAAAAAAAAAAAAAAAAABgwAAAAAA8eLFiAAAAAAABQAAAHgAACAAAD2zhmAYyCIMABgCIAiBCGAACAAAgAAAIiAAIAIgIMCKA0RCMYAAmhgCIiAeQ0PMPgAAAAAAAAAAAAAAAAAAAAAAAAAAAAA==
> <PUBCHEM_IUPAC_OPENEYE_NAME>
ditert-butyl (6R,12S)-1,5-bis(hydroxymethyl)-6,12-diphenyl-3,9-diazapentacyclo[6.4.0.02,7.04,11.05,10]dodecane-3,9-dicarboxylate
> <PUBCHEM_IUPAC_CAS_NAME>
(6R,12S)-1,5-bis(hydroxymethyl)-6,12-diphenyl-3,9-diazapentacyclo[6.4.0.02,7.04,11.05,10]dodecane-3,9-dicarboxylic acid ditert-butyl ester
> <PUBCHEM_IUPAC_NAME_MARKUP>
di<I>tert</I>-butyl (6<I>R</I>,12<I>S</I>)-1,5-bis(hydroxymethyl)-6,12-diphenyl-3,9-diazapentacyclo[6.4.0.0<SUP>2,7</SUP>.0<SUP>4,11</SUP>.0<SUP>5,10</SUP>]dodecane-3,9-dicarboxylate
> <PUBCHEM_IUPAC_NAME>
ditert-butyl (6R,12S)-1,5-bis(hydroxymethyl)-6,12-diphenyl-3,9-diazapentacyclo[6.4.0.02,7.04,11.05,10]dodecane-3,9-dicarboxylate
> <PUBCHEM_IUPAC_SYSTEMATIC_NAME>
ditert-butyl (6R,12S)-1,5-bis(hydroxymethyl)-6,12-diphenyl-3,9-diazapentacyclo[6.4.0.02,7.04,11.05,10]dodecane-3,9-dicarboxylate
> <PUBCHEM_IUPAC_TRADITIONAL_NAME>
(6R,12S)-1,5-dimethylol-6,12-diphenyl-3,9-diazapentacyclo[6.4.0.02,7.04,11.05,10]dodecane-3,9-dicarboxylic acid ditert-butyl ester
> <PUBCHEM_IUPAC_INCHI>
InChI=1S/C34H42N2O6/c1-31(2,3)41-29(39)35-25-21-23(19-13-9-7-10-14-19)33(17-37)26(35)22-24(20-15-11-8-12-16-20)34(25,18-38)27(21)36(28(22)33)30(40)42-32(4,5)6/h7-16,21-28,37-38H,17-18H2,1-6H3/t21?,22?,23-,24+,25?,26?,27?,28?,33?,34?
> <PUBCHEM_IUPAC_INCHIKEY>
KBWWJFSRNXHQCU-CKGKSJGYSA-N
> <PUBCHEM_XLOGP3_AA>
4
> <PUBCHEM_EXACT_MASS>
574.30428706
> <PUBCHEM_MOLECULAR_FORMULA>
C34H42N2O6
> <PUBCHEM_MOLECULAR_WEIGHT>
574.7
> <PUBCHEM_OPENEYE_CAN_SMILES>
CC(C)(C)OC(=O)N1C2C3C(C4(C1C5C4N(C3C2(C5C6=CC=CC=C6)CO)C(=O)OC(C)(C)C)CO)C7=CC=CC=C7
> <PUBCHEM_OPENEYE_ISO_SMILES>
CC(C)(C)OC(=O)N1C2C3[C@@H](C4(C1C5C4N(C3C2([C@@H]5C6=CC=CC=C6)CO)C(=O)OC(C)(C)C)CO)C7=CC=CC=C7
> <PUBCHEM_CACTVS_TPSA>
99.5
> <PUBCHEM_MONOISOTOPIC_WEIGHT>
574.30428706
> <PUBCHEM_TOTAL_CHARGE>
0
> <PUBCHEM_HEAVY_ATOM_COUNT>
42
> <PUBCHEM_ATOM_DEF_STEREO_COUNT>
2
> <PUBCHEM_ATOM_UDEF_STEREO_COUNT>
4
> <PUBCHEM_BOND_DEF_STEREO_COUNT>
0
> <PUBCHEM_BOND_UDEF_STEREO_COUNT>
0
> <PUBCHEM_ISOTOPIC_ATOM_COUNT>
0
> <PUBCHEM_COMPONENT_COUNT>
1
> <PUBCHEM_CACTVS_TAUTO_COUNT>
-1
> <PUBCHEM_COORDINATE_TYPE>
1
5
255
> <PUBCHEM_BONDANNOTATIONS>
17  21  5
18  22  5
21  25  8
21  27  8
22  26  8
22  28  8
25  29  8
26  30  8
27  31  8
28  32  8
29  35  8
30  36  8
31  35  8
32  36  8
13  7  3
15  7  3
14  8  3
16  8  3
$$$$
