507263
  -OEChem-10302200282D
 69 72  0     1  0  0  0  0  0999 V2000
    5.1339    3.6088    0.0000 Cl  0  0  0  0  0  0  0  0  0  0  0  0
    5.1339    1.6088    0.0000 Cl  0  0  0  0  0  0  0  0  0  0  0  0
    0.9030    2.2242    0.0000 S   0  0  0  0  0  0  0  0  0  0  0  0
    8.4025    5.1740    0.0000 O   0  0  0  0  0  0  0  0  0  0  0  0
   10.7484    4.0822    0.0000 O   0  0  0  0  0  0  0  0  0  0  0  0
   10.7522    6.2578    0.0000 O   0  0  0  0  0  0  0  0  0  0  0  0
    7.7065    7.1432    0.0000 O   0  0  0  0  0  0  0  0  0  0  0  0
    2.2120    3.1752    0.0000 O   0  0  0  0  0  0  0  0  0  0  0  0
    2.0840    0.5016    0.0000 O   0  0  0  0  0  0  0  0  0  0  0  0
    3.1350    4.7630    0.0000 O   0  0  0  0  0  0  0  0  0  0  0  0
    8.6782    3.4135    0.0000 N   0  0  0  0  0  0  0  0  0  0  0  0
    8.6782    1.8040    0.0000 N   0  0  0  0  0  0  0  0  0  0  0  0
   10.2618    2.6088    0.0000 N   0  0  0  0  0  0  0  0  0  0  0  0
    1.4030    4.7630    0.0000 N   0  0  0  0  0  0  0  0  0  0  0  0
    2.2690    6.2630    0.0000 N   0  0  0  0  0  0  0  0  0  0  0  0
    1.4030    7.7630    0.0000 N   0  0  0  0  0  0  0  0  0  0  0  0
    8.9888    4.3640    0.0000 C   0  0  2  0  0  0  0  0  0  0  0  0
    9.9404    4.6714    0.0000 C   0  0  2  0  0  0  0  0  0  0  0  0
    9.9422    5.6714    0.0000 C   0  0  2  0  0  0  0  0  0  0  0  0
    8.9916    5.9820    0.0000 C   0  0  2  0  0  0  0  0  0  0  0  0
    8.6843    6.9336    0.0000 C   0  0  0  0  0  0  0  0  0  0  0  0
    7.7320    3.1088    0.0000 C   0  0  0  0  0  0  0  0  0  0  0  0
    9.2618    2.6088    0.0000 C   0  0  0  0  0  0  0  0  0  0  0  0
    7.7320    2.1088    0.0000 C   0  0  0  0  0  0  0  0  0  0  0  0
    6.8659    3.6088    0.0000 C   0  0  0  0  0  0  0  0  0  0  0  0
   10.7618    1.7427    0.0000 C   0  0  0  0  0  0  0  0  0  0  0  0
    6.8659    1.6088    0.0000 C   0  0  0  0  0  0  0  0  0  0  0  0
    5.9999    3.1088    0.0000 C   0  0  0  0  0  0  0  0  0  0  0  0
    5.9999    2.1088    0.0000 C   0  0  0  0  0  0  0  0  0  0  0  0
   11.7618    1.7427    0.0000 C   0  0  0  0  0  0  0  0  0  0  0  0
   10.2618    0.8767    0.0000 C   0  0  0  0  0  0  0  0  0  0  0  0
    1.4030    3.7630    0.0000 C   0  0  2  0  0  0  0  0  0  0  0  0
    0.5939    3.1752    0.0000 C   0  0  0  0  0  0  0  0  0  0  0  0
    1.9030    2.2242    0.0000 C   0  0  1  0  0  0  0  0  0  0  0  0
    2.4907    1.4151    0.0000 C   0  0  0  0  0  0  0  0  0  0  0  0
    0.5369    5.2630    0.0000 C   0  0  0  0  0  0  0  0  0  0  0  0
    2.2690    5.2630    0.0000 C   0  0  0  0  0  0  0  0  0  0  0  0
    0.5369    6.2630    0.0000 C   0  0  0  0  0  0  0  0  0  0  0  0
    1.4030    6.7630    0.0000 C   0  0  0  0  0  0  0  0  0  0  0  0
    9.4265    3.9248    0.0000 H   0  0  0  0  0  0  0  0  0  0  0  0
   10.4933    4.9519    0.0000 H   0  0  0  0  0  0  0  0  0  0  0  0
   10.4941    5.3890    0.0000 H   0  0  0  0  0  0  0  0  0  0  0  0
    8.3794    6.0801    0.0000 H   0  0  0  0  0  0  0  0  0  0  0  0
    9.2984    7.0189    0.0000 H   0  0  0  0  0  0  0  0  0  0  0  0
    8.7070    7.5532    0.0000 H   0  0  0  0  0  0  0  0  0  0  0  0
   11.3153    4.3334    0.0000 H   0  0  0  0  0  0  0  0  0  0  0  0
   10.6885    6.8745    0.0000 H   0  0  0  0  0  0  0  0  0  0  0  0
   10.5718    3.1457    0.0000 H   0  0  0  0  0  0  0  0  0  0  0  0
    6.8659    4.2288    0.0000 H   0  0  0  0  0  0  0  0  0  0  0  0
   10.1418    1.7427    0.0000 H   0  0  0  0  0  0  0  0  0  0  0  0
    7.5159    7.7332    0.0000 H   0  0  0  0  0  0  0  0  0  0  0  0
    6.8659    0.9888    0.0000 H   0  0  0  0  0  0  0  0  0  0  0  0
   11.7618    1.1227    0.0000 H   0  0  0  0  0  0  0  0  0  0  0  0
   12.3818    1.7427    0.0000 H   0  0  0  0  0  0  0  0  0  0  0  0
   11.7618    2.3627    0.0000 H   0  0  0  0  0  0  0  0  0  0  0  0
    9.7248    1.1867    0.0000 H   0  0  0  0  0  0  0  0  0  0  0  0
    9.9518    0.3398    0.0000 H   0  0  0  0  0  0  0  0  0  0  0  0
   10.7987    0.5667    0.0000 H   0  0  0  0  0  0  0  0  0  0  0  0
    1.9554    4.0445    0.0000 H   0  0  0  0  0  0  0  0  0  0  0  0
    0.2839    3.7122    0.0000 H   0  0  0  0  0  0  0  0  0  0  0  0
    0.0275    2.9230    0.0000 H   0  0  0  0  0  0  0  0  0  0  0  0
    2.5153    2.3211    0.0000 H   0  0  0  0  0  0  0  0  0  0  0  0
    3.0048    1.0684    0.0000 H   0  0  0  0  0  0  0  0  0  0  0  0
    2.9214    1.8611    0.0000 H   0  0  0  0  0  0  0  0  0  0  0  0
    0.0000    4.9530    0.0000 H   0  0  0  0  0  0  0  0  0  0  0  0
    0.0000    6.5730    0.0000 H   0  0  0  0  0  0  0  0  0  0  0  0
    2.4484    0.0000    0.0000 H   0  0  0  0  0  0  0  0  0  0  0  0
    0.8660    8.0730    0.0000 H   0  0  0  0  0  0  0  0  0  0  0  0
    1.9399    8.0730    0.0000 H   0  0  0  0  0  0  0  0  0  0  0  0
  1 28  1  0  0  0  0
  2 29  1  0  0  0  0
  3 33  1  0  0  0  0
  3 34  1  0  0  0  0
  4 17  1  0  0  0  0
  4 20  1  0  0  0  0
 18  5  1  6  0  0  0
  5 46  1  0  0  0  0
 19  6  1  6  0  0  0
  6 47  1  0  0  0  0
  7 21  1  0  0  0  0
  7 51  1  0  0  0  0
  8 32  1  0  0  0  0
  8 34  1  0  0  0  0
  9 35  1  0  0  0  0
  9 67  1  0  0  0  0
 10 37  2  0  0  0  0
 17 11  1  1  0  0  0
 11 22  1  0  0  0  0
 11 23  1  0  0  0  0
 12 23  2  0  0  0  0
 12 24  1  0  0  0  0
 13 23  1  0  0  0  0
 13 26  1  0  0  0  0
 13 48  1  0  0  0  0
 32 14  1  1  0  0  0
 14 36  1  0  0  0  0
 14 37  1  0  0  0  0
 15 37  1  0  0  0  0
 15 39  2  0  0  0  0
 16 39  1  0  0  0  0
 16 68  1  0  0  0  0
 16 69  1  0  0  0  0
 17 18  1  0  0  0  0
 17 40  1  0  0  0  0
 18 19  1  0  0  0  0
 18 41  1  0  0  0  0
 19 20  1  0  0  0  0
 19 42  1  0  0  0  0
 20 21  1  1  0  0  0
 20 43  1  0  0  0  0
 21 44  1  0  0  0  0
 21 45  1  0  0  0  0
 22 24  1  0  0  0  0
 22 25  2  0  0  0  0
 24 27  2  0  0  0  0
 25 28  1  0  0  0  0
 25 49  1  0  0  0  0
 26 30  1  0  0  0  0
 26 31  1  0  0  0  0
 26 50  1  0  0  0  0
 27 29  1  0  0  0  0
 27 52  1  0  0  0  0
 28 29  2  0  0  0  0
 30 53  1  0  0  0  0
 30 54  1  0  0  0  0
 30 55  1  0  0  0  0
 31 56  1  0  0  0  0
 31 57  1  0  0  0  0
 31 58  1  0  0  0  0
 32 33  1  0  0  0  0
 32 59  1  0  0  0  0
 33 60  1  0  0  0  0
 33 61  1  0  0  0  0
 34 35  1  1  0  0  0
 34 62  1  0  0  0  0
 35 63  1  0  0  0  0
 35 64  1  0  0  0  0
 36 38  2  0  0  0  0
 36 65  1  0  0  0  0
 38 39  1  0  0  0  0
 38 66  1  0  0  0  0
M  END
> <PUBCHEM_COMPOUND_CID>
507263
> <PUBCHEM_COMPOUND_CANONICALIZED>
1
> <PUBCHEM_CACTVS_COMPLEXITY>
778
> <PUBCHEM_CACTVS_HBOND_ACCEPTOR>
10
> <PUBCHEM_CACTVS_HBOND_DONOR>
6
> <PUBCHEM_CACTVS_ROTATABLE_BOND>
6
> <PUBCHEM_CACTVS_SUBSKEYS>
AAADceB7uABGAAAAAAAAAAAAAAAAAWJEgAAwQAAAAAAAAFgB8AAAHgYQCAAACD7l1iaz0LfMFgioASZmdACCgC0hF7AJ2uA4dpiLeKLBmpGeYAhvlgL7yCfwMAIAAABAAAIAACQAAIAABAAASAAAAAAAAA==
> <PUBCHEM_IUPAC_OPENEYE_NAME>
4-amino-1-[(2R,5S)-2-(hydroxymethyl)-1,3-oxathiolan-5-yl]pyrimidin-2-one;(2S,3S,4R,5S)-2-[5,6-dichloro-2-(isopropylamino)benzimidazol-1-yl]-5-(hydroxymethyl)tetrahydrofuran-3,4-diol
> <PUBCHEM_IUPAC_CAS_NAME>
4-amino-1-[(2R,5S)-2-(hydroxymethyl)-1,3-oxathiolan-5-yl]-2-pyrimidinone;(2S,3S,4R,5S)-2-[5,6-dichloro-2-(propan-2-ylamino)-1-benzimidazolyl]-5-(hydroxymethyl)oxolane-3,4-diol
> <PUBCHEM_IUPAC_NAME_MARKUP>
4-amino-1-[(2<I>R</I>,5<I>S</I>)-2-(hydroxymethyl)-1,3-oxathiolan-5-yl]pyrimidin-2-one;(2<I>S</I>,3<I>S</I>,4<I>R</I>,5<I>S</I>)-2-[5,6-dichloro-2-(propan-2-ylamino)benzimidazol-1-yl]-5-(hydroxymethyl)oxolane-3,4-diol
> <PUBCHEM_IUPAC_NAME>
4-amino-1-[(2R,5S)-2-(hydroxymethyl)-1,3-oxathiolan-5-yl]pyrimidin-2-one;(2S,3S,4R,5S)-2-[5,6-dichloro-2-(propan-2-ylamino)benzimidazol-1-yl]-5-(hydroxymethyl)oxolane-3,4-diol
> <PUBCHEM_IUPAC_SYSTEMATIC_NAME>
4-azanyl-1-[(2R,5S)-2-(hydroxymethyl)-1,3-oxathiolan-5-yl]pyrimidin-2-one;(2S,3S,4R,5S)-2-[5,6-bis(chloranyl)-2-(propan-2-ylamino)benzimidazol-1-yl]-5-(hydroxymethyl)oxolane-3,4-diol
> <PUBCHEM_IUPAC_TRADITIONAL_NAME>
4-amino-1-[(2R,5S)-2-methylol-1,3-oxathiolan-5-yl]pyrimidin-2-one;(2S,3S,4R,5S)-2-[5,6-dichloro-2-(isopropylamino)benzimidazol-1-yl]-5-methylol-tetrahydrofuran-3,4-diol
> <PUBCHEM_IUPAC_INCHI>
InChI=1S/C15H19Cl2N3O4.C8H11N3O3S/c1-6(2)18-15-19-9-3-7(16)8(17)4-10(9)20(15)14-13(23)12(22)11(5-21)24-14;9-5-1-2-11(8(13)10-5)6-4-15-7(3-12)14-6/h3-4,6,11-14,21-23H,5H2,1-2H3,(H,18,19);1-2,6-7,12H,3-4H2,(H2,9,10,13)/t11-,12-,13-,14-;6-,7+/m00/s1
> <PUBCHEM_IUPAC_INCHIKEY>
NWKHPBJVVBEWBT-YWALBLDSSA-N
> <PUBCHEM_EXACT_MASS>
604.1273739
> <PUBCHEM_MOLECULAR_FORMULA>
C23H30Cl2N6O7S
> <PUBCHEM_MOLECULAR_WEIGHT>
605.5
> <PUBCHEM_OPENEYE_CAN_SMILES>
CC(C)NC1=NC2=CC(=C(C=C2N1C3C(C(C(O3)CO)O)O)Cl)Cl.C1C(OC(S1)CO)N2C=CC(=NC2=O)N
> <PUBCHEM_OPENEYE_ISO_SMILES>
CC(C)NC1=NC2=CC(=C(C=C2N1[C@@H]3[C@H]([C@H]([C@@H](O3)CO)O)O)Cl)Cl.C1[C@H](O[C@H](S1)CO)N2C=CC(=NC2=O)N
> <PUBCHEM_CACTVS_TPSA>
213
> <PUBCHEM_MONOISOTOPIC_WEIGHT>
604.1273739
> <PUBCHEM_TOTAL_CHARGE>
0
> <PUBCHEM_HEAVY_ATOM_COUNT>
39
> <PUBCHEM_ATOM_DEF_STEREO_COUNT>
6
> <PUBCHEM_ATOM_UDEF_STEREO_COUNT>
0
> <PUBCHEM_BOND_DEF_STEREO_COUNT>
0
> <PUBCHEM_BOND_UDEF_STEREO_COUNT>
0
> <PUBCHEM_ISOTOPIC_ATOM_COUNT>
0
> <PUBCHEM_COMPONENT_COUNT>
2
> <PUBCHEM_CACTVS_TAUTO_COUNT>
-1
> <PUBCHEM_COORDINATE_TYPE>
1
5
255
> <PUBCHEM_BONDANNOTATIONS>
17  11  5
11  22  8
11  23  8
12  23  8
12  24  8
32  14  5
14  36  8
14  37  8
15  37  8
15  39  8
20  21  5
22  24  8
22  25  8
24  27  8
25  28  8
27  29  8
28  29  8
34  35  5
36  38  8
38  39  8
18  5  6
19  6  6
$$$$
