507351
  -OEChem-10302200282D
 36 38  0     1  0  0  0  0  0999 V2000
    9.8106   -1.5346    0.0000 Br  0  0  0  0  0  0  0  0  0  0  0  0
    6.3301   -1.5000    0.0000 O   0  0  0  0  0  0  0  0  0  0  0  0
    5.4641   -0.0000    0.0000 N   0  0  0  0  0  0  0  0  0  0  0  0
    8.0622   -0.5000    0.0000 N   0  0  0  0  0  0  0  0  0  0  0  0
   10.7282    1.0208    0.0000 N   0  0  0  0  0  0  0  0  0  0  0  0
    4.5981   -0.5000    0.0000 C   0  0  2  0  0  0  0  0  0  0  0  0
    3.7320   -0.0000    0.0000 C   0  0  0  0  0  0  0  0  0  0  0  0
    4.5981   -1.5000    0.0000 C   0  0  0  0  0  0  0  0  0  0  0  0
    6.3301   -0.5000    0.0000 C   0  0  0  0  0  0  0  0  0  0  0  0
    7.1962   -0.0000    0.0000 C   0  0  0  0  0  0  0  0  0  0  0  0
    2.8660   -0.5000    0.0000 C   0  0  0  0  0  0  0  0  0  0  0  0
    3.7320    1.0000    0.0000 C   0  0  0  0  0  0  0  0  0  0  0  0
    8.9282    1.0000    0.0000 C   0  0  0  0  0  0  0  0  0  0  0  0
    8.9282   -0.0000    0.0000 C   0  0  0  0  0  0  0  0  0  0  0  0
    7.1962    1.0000    0.0000 C   0  0  0  0  0  0  0  0  0  0  0  0
    8.0622    1.5000    0.0000 C   0  0  0  0  0  0  0  0  0  0  0  0
    2.0000   -0.0000    0.0000 C   0  0  0  0  0  0  0  0  0  0  0  0
    2.8660    1.5000    0.0000 C   0  0  0  0  0  0  0  0  0  0  0  0
    2.0000    1.0000    0.0000 C   0  0  0  0  0  0  0  0  0  0  0  0
    9.8222   -0.5347    0.0000 C   0  0  0  0  0  0  0  0  0  0  0  0
    9.8222    1.5346    0.0000 C   0  0  0  0  0  0  0  0  0  0  0  0
   10.7282   -0.0208    0.0000 C   0  0  0  0  0  0  0  0  0  0  0  0
    4.5981    0.1200    0.0000 H   0  0  0  0  0  0  0  0  0  0  0  0
    5.4641    0.6200    0.0000 H   0  0  0  0  0  0  0  0  0  0  0  0
    3.9781   -1.5000    0.0000 H   0  0  0  0  0  0  0  0  0  0  0  0
    4.5981   -2.1200    0.0000 H   0  0  0  0  0  0  0  0  0  0  0  0
    5.2181   -1.5000    0.0000 H   0  0  0  0  0  0  0  0  0  0  0  0
    2.8660   -1.1200    0.0000 H   0  0  0  0  0  0  0  0  0  0  0  0
    4.2690    1.3100    0.0000 H   0  0  0  0  0  0  0  0  0  0  0  0
    6.6592    1.3100    0.0000 H   0  0  0  0  0  0  0  0  0  0  0  0
    8.0622    2.1200    0.0000 H   0  0  0  0  0  0  0  0  0  0  0  0
    1.4631   -0.3100    0.0000 H   0  0  0  0  0  0  0  0  0  0  0  0
    2.8660    2.1200    0.0000 H   0  0  0  0  0  0  0  0  0  0  0  0
    1.4631    1.3100    0.0000 H   0  0  0  0  0  0  0  0  0  0  0  0
    9.8150    2.1546    0.0000 H   0  0  0  0  0  0  0  0  0  0  0  0
   11.2639   -0.3329    0.0000 H   0  0  0  0  0  0  0  0  0  0  0  0
  1 20  1  0  0  0  0
  2  9  2  0  0  0  0
  6  3  1  1  0  0  0
  3  9  1  0  0  0  0
  3 24  1  0  0  0  0
  4 10  2  0  0  0  0
  4 14  1  0  0  0  0
  5 21  1  0  0  0  0
  5 22  2  0  0  0  0
  6  7  1  0  0  0  0
  6  8  1  0  0  0  0
  6 23  1  0  0  0  0
  7 11  2  0  0  0  0
  7 12  1  0  0  0  0
  8 25  1  0  0  0  0
  8 26  1  0  0  0  0
  8 27  1  0  0  0  0
  9 10  1  0  0  0  0
 10 15  1  0  0  0  0
 11 17  1  0  0  0  0
 11 28  1  0  0  0  0
 12 18  2  0  0  0  0
 12 29  1  0  0  0  0
 13 14  1  0  0  0  0
 13 16  1  0  0  0  0
 13 21  2  0  0  0  0
 14 20  2  0  0  0  0
 15 16  2  0  0  0  0
 15 30  1  0  0  0  0
 16 31  1  0  0  0  0
 17 19  2  0  0  0  0
 17 32  1  0  0  0  0
 18 19  1  0  0  0  0
 18 33  1  0  0  0  0
 19 34  1  0  0  0  0
 20 22  1  0  0  0  0
 21 35  1  0  0  0  0
 22 36  1  0  0  0  0
M  END
> <PUBCHEM_COMPOUND_CID>
507351
> <PUBCHEM_COMPOUND_CANONICALIZED>
1
> <PUBCHEM_CACTVS_COMPLEXITY>
386
> <PUBCHEM_CACTVS_HBOND_ACCEPTOR>
3
> <PUBCHEM_CACTVS_HBOND_DONOR>
1
> <PUBCHEM_CACTVS_ROTATABLE_BOND>
3
> <PUBCHEM_CACTVS_SUBSKEYS>
AAADccB7IAAAEAAAAAAAAAAAAAAAAAAAAAA8WIAAAAAAAACx/AAAHgBQAAABrCjBngQ+wPLIEACoAzV3VACCgCA3AiQI2KG4ZPgIYPLA1fGUJQhglgDIy5cYiICOAAAAAAAAAAAAAAAAAAAAAAAAAAAAAA==
> <PUBCHEM_IUPAC_OPENEYE_NAME>
8-bromo-N-[(1S)-1-phenylethyl]-1,6-naphthyridine-2-carboxamide
> <PUBCHEM_IUPAC_CAS_NAME>
8-bromo-N-[(1S)-1-phenylethyl]-1,6-naphthyridine-2-carboxamide
> <PUBCHEM_IUPAC_NAME_MARKUP>
8-bromo-<I>N</I>-[(1<I>S</I>)-1-phenylethyl]-1,6-naphthyridine-2-carboxamide
> <PUBCHEM_IUPAC_NAME>
8-bromo-N-[(1S)-1-phenylethyl]-1,6-naphthyridine-2-carboxamide
> <PUBCHEM_IUPAC_SYSTEMATIC_NAME>
8-bromanyl-N-[(1S)-1-phenylethyl]-1,6-naphthyridine-2-carboxamide
> <PUBCHEM_IUPAC_TRADITIONAL_NAME>
8-bromo-N-[(1S)-1-phenylethyl]-1,6-naphthyridine-2-carboxamide
> <PUBCHEM_IUPAC_INCHI>
InChI=1S/C17H14BrN3O/c1-11(12-5-3-2-4-6-12)20-17(22)15-8-7-13-9-19-10-14(18)16(13)21-15/h2-11H,1H3,(H,20,22)/t11-/m0/s1
> <PUBCHEM_IUPAC_INCHIKEY>
ACAYUFUIPRLKTJ-NSHDSACASA-N
> <PUBCHEM_XLOGP3_AA>
3.3
> <PUBCHEM_EXACT_MASS>
355.03202
> <PUBCHEM_MOLECULAR_FORMULA>
C17H14BrN3O
> <PUBCHEM_MOLECULAR_WEIGHT>
356.2
> <PUBCHEM_OPENEYE_CAN_SMILES>
CC(C1=CC=CC=C1)NC(=O)C2=NC3=C(C=NC=C3C=C2)Br
> <PUBCHEM_OPENEYE_ISO_SMILES>
C[C@@H](C1=CC=CC=C1)NC(=O)C2=NC3=C(C=NC=C3C=C2)Br
> <PUBCHEM_CACTVS_TPSA>
54.9
> <PUBCHEM_MONOISOTOPIC_WEIGHT>
355.03202
> <PUBCHEM_TOTAL_CHARGE>
0
> <PUBCHEM_HEAVY_ATOM_COUNT>
22
> <PUBCHEM_ATOM_DEF_STEREO_COUNT>
1
> <PUBCHEM_ATOM_UDEF_STEREO_COUNT>
0
> <PUBCHEM_BOND_DEF_STEREO_COUNT>
0
> <PUBCHEM_BOND_UDEF_STEREO_COUNT>
0
> <PUBCHEM_ISOTOPIC_ATOM_COUNT>
0
> <PUBCHEM_COMPONENT_COUNT>
1
> <PUBCHEM_CACTVS_TAUTO_COUNT>
-1
> <PUBCHEM_COORDINATE_TYPE>
1
5
255
> <PUBCHEM_BONDANNOTATIONS>
10  15  8
11  17  8
12  18  8
13  14  8
13  16  8
13  21  8
14  20  8
15  16  8
17  19  8
18  19  8
20  22  8
6  3  5
4  10  8
4  14  8
5  21  8
5  22  8
7  11  8
7  12  8
$$$$
