507494
  -OEChem-10302200282D
 81 83  0     1  0  0  0  0  0999 V2000
    2.0000    3.2500    0.0000 Cl  0  0  0  0  0  0  0  0  0  0  0  0
    3.7320   -0.7500    0.0000 S   0  0  0  0  0  0  0  0  0  0  0  0
    5.4641   -2.7500    0.0000 O   0  0  0  0  0  0  0  0  0  0  0  0
    8.9282   -3.7500    0.0000 O   0  0  0  0  0  0  0  0  0  0  0  0
    6.3301    0.7500    0.0000 O   0  0  0  0  0  0  0  0  0  0  0  0
   11.5263   -1.2500    0.0000 O   0  0  0  0  0  0  0  0  0  0  0  0
    8.0622    0.7500    0.0000 O   0  0  0  0  0  0  0  0  0  0  0  0
   15.0706   -2.4453    0.0000 O   0  0  0  0  0  0  0  0  0  0  0  0
   15.0706   -4.0547    0.0000 O   0  0  0  0  0  0  0  0  0  0  0  0
    9.7942    0.7500    0.0000 O   0  0  0  0  0  0  0  0  0  0  0  0
    8.0622   -2.2500    0.0000 N   0  0  0  0  0  0  0  0  0  0  0  0
    6.3301   -1.2500    0.0000 N   0  0  0  0  0  0  0  0  0  0  0  0
   10.6603   -2.7500    0.0000 N   0  0  0  0  0  0  0  0  0  0  0  0
    4.5981    0.7500    0.0000 N   0  0  0  0  0  0  0  0  0  0  0  0
    7.1962   -2.7500    0.0000 C   0  0  1  0  0  0  0  0  0  0  0  0
    7.1962   -3.7500    0.0000 C   0  0  0  0  0  0  0  0  0  0  0  0
    6.3301   -4.2500    0.0000 C   0  0  0  0  0  0  0  0  0  0  0  0
    9.7942   -2.2500    0.0000 C   0  0  2  0  0  0  0  0  0  0  0  0
    6.3301   -2.2500    0.0000 C   0  0  0  0  0  0  0  0  0  0  0  0
    6.3301   -5.2500    0.0000 C   0  0  0  0  0  0  0  0  0  0  0  0
    5.4641   -3.7500    0.0000 C   0  0  0  0  0  0  0  0  0  0  0  0
    8.9282   -2.7500    0.0000 C   0  0  0  0  0  0  0  0  0  0  0  0
    9.7942   -1.2500    0.0000 C   0  0  0  0  0  0  0  0  0  0  0  0
    5.4641   -0.7500    0.0000 C   0  0  1  0  0  0  0  0  0  0  0  0
    8.9282   -0.7500    0.0000 C   0  0  0  0  0  0  0  0  0  0  0  0
    4.5981   -1.2500    0.0000 C   0  0  0  0  0  0  0  0  0  0  0  0
    5.4641    0.2500    0.0000 C   0  0  0  0  0  0  0  0  0  0  0  0
   11.5263   -2.2500    0.0000 C   0  0  0  0  0  0  0  0  0  0  0  0
    4.5981    1.7500    0.0000 C   0  0  0  0  0  0  0  0  0  0  0  0
   12.3923   -2.7500    0.0000 C   0  0  0  0  0  0  0  0  0  0  0  0
    8.9282    0.2500    0.0000 C   0  0  0  0  0  0  0  0  0  0  0  0
    3.7320    2.2500    0.0000 C   0  0  0  0  0  0  0  0  0  0  0  0
   13.2583   -2.2500    0.0000 C   0  0  0  0  0  0  0  0  0  0  0  0
   12.3923   -3.7500    0.0000 C   0  0  0  0  0  0  0  0  0  0  0  0
    3.7320    3.2500    0.0000 C   0  0  0  0  0  0  0  0  0  0  0  0
   14.1244   -2.7500    0.0000 C   0  0  0  0  0  0  0  0  0  0  0  0
   14.1244   -3.7500    0.0000 C   0  0  0  0  0  0  0  0  0  0  0  0
   13.2583   -4.2500    0.0000 C   0  0  0  0  0  0  0  0  0  0  0  0
    2.8660    3.7500    0.0000 C   0  0  0  0  0  0  0  0  0  0  0  0
    4.5981    3.7500    0.0000 C   0  0  0  0  0  0  0  0  0  0  0  0
   15.6542   -3.2500    0.0000 C   0  0  0  0  0  0  0  0  0  0  0  0
    2.8660    4.7500    0.0000 C   0  0  0  0  0  0  0  0  0  0  0  0
    4.5981    4.7500    0.0000 C   0  0  0  0  0  0  0  0  0  0  0  0
    3.7320    5.2500    0.0000 C   0  0  0  0  0  0  0  0  0  0  0  0
    7.7331   -3.0600    0.0000 H   0  0  0  0  0  0  0  0  0  0  0  0
    7.4082   -4.3326    0.0000 H   0  0  0  0  0  0  0  0  0  0  0  0
    7.8067   -3.6423    0.0000 H   0  0  0  0  0  0  0  0  0  0  0  0
    6.8671   -4.5600    0.0000 H   0  0  0  0  0  0  0  0  0  0  0  0
    8.0622   -1.6300    0.0000 H   0  0  0  0  0  0  0  0  0  0  0  0
    9.7942   -2.8700    0.0000 H   0  0  0  0  0  0  0  0  0  0  0  0
    5.7101   -5.2500    0.0000 H   0  0  0  0  0  0  0  0  0  0  0  0
    6.3301   -5.8700    0.0000 H   0  0  0  0  0  0  0  0  0  0  0  0
    6.9501   -5.2500    0.0000 H   0  0  0  0  0  0  0  0  0  0  0  0
    5.7741   -3.2131    0.0000 H   0  0  0  0  0  0  0  0  0  0  0  0
    4.9272   -3.4400    0.0000 H   0  0  0  0  0  0  0  0  0  0  0  0
    5.1541   -4.2869    0.0000 H   0  0  0  0  0  0  0  0  0  0  0  0
   10.4048   -1.3577    0.0000 H   0  0  0  0  0  0  0  0  0  0  0  0
   10.0063   -0.6674    0.0000 H   0  0  0  0  0  0  0  0  0  0  0  0
    6.8671   -0.9400    0.0000 H   0  0  0  0  0  0  0  0  0  0  0  0
    5.4641   -1.3700    0.0000 H   0  0  0  0  0  0  0  0  0  0  0  0
   10.6603   -3.3700    0.0000 H   0  0  0  0  0  0  0  0  0  0  0  0
    8.3176   -0.6423    0.0000 H   0  0  0  0  0  0  0  0  0  0  0  0
    8.7162   -1.3326    0.0000 H   0  0  0  0  0  0  0  0  0  0  0  0
    4.1996   -1.7250    0.0000 H   0  0  0  0  0  0  0  0  0  0  0  0
    4.9966   -1.7250    0.0000 H   0  0  0  0  0  0  0  0  0  0  0  0
    4.0611    0.4400    0.0000 H   0  0  0  0  0  0  0  0  0  0  0  0
    5.2087    1.6423    0.0000 H   0  0  0  0  0  0  0  0  0  0  0  0
    4.8101    2.3326    0.0000 H   0  0  0  0  0  0  0  0  0  0  0  0
    3.1215    2.3577    0.0000 H   0  0  0  0  0  0  0  0  0  0  0  0
    3.5200    1.6674    0.0000 H   0  0  0  0  0  0  0  0  0  0  0  0
   13.2583   -1.6300    0.0000 H   0  0  0  0  0  0  0  0  0  0  0  0
    3.1951   -1.0600    0.0000 H   0  0  0  0  0  0  0  0  0  0  0  0
   11.8554   -4.0600    0.0000 H   0  0  0  0  0  0  0  0  0  0  0  0
   13.2583   -4.8700    0.0000 H   0  0  0  0  0  0  0  0  0  0  0  0
    8.0622    1.3700    0.0000 H   0  0  0  0  0  0  0  0  0  0  0  0
    5.1350    3.4400    0.0000 H   0  0  0  0  0  0  0  0  0  0  0  0
   16.1151   -3.6647    0.0000 H   0  0  0  0  0  0  0  0  0  0  0  0
   16.1151   -2.8353    0.0000 H   0  0  0  0  0  0  0  0  0  0  0  0
    2.3291    5.0600    0.0000 H   0  0  0  0  0  0  0  0  0  0  0  0
    5.1350    5.0600    0.0000 H   0  0  0  0  0  0  0  0  0  0  0  0
    3.7320    5.8700    0.0000 H   0  0  0  0  0  0  0  0  0  0  0  0
  1 39  1  0  0  0  0
  2 26  1  0  0  0  0
  2 72  1  0  0  0  0
  3 19  2  0  0  0  0
  4 22  2  0  0  0  0
  5 27  2  0  0  0  0
  6 28  2  0  0  0  0
  7 31  1  0  0  0  0
  7 75  1  0  0  0  0
  8 36  1  0  0  0  0
  8 41  1  0  0  0  0
  9 37  1  0  0  0  0
  9 41  1  0  0  0  0
 10 31  2  0  0  0  0
 15 11  1  1  0  0  0
 11 22  1  0  0  0  0
 11 49  1  0  0  0  0
 12 19  1  0  0  0  0
 24 12  1  1  0  0  0
 12 59  1  0  0  0  0
 18 13  1  6  0  0  0
 13 28  1  0  0  0  0
 13 61  1  0  0  0  0
 14 27  1  0  0  0  0
 14 29  1  0  0  0  0
 14 66  1  0  0  0  0
 15 16  1  0  0  0  0
 15 19  1  0  0  0  0
 15 45  1  0  0  0  0
 16 17  1  0  0  0  0
 16 46  1  0  0  0  0
 16 47  1  0  0  0  0
 17 20  1  0  0  0  0
 17 21  1  0  0  0  0
 17 48  1  0  0  0  0
 18 22  1  0  0  0  0
 18 23  1  0  0  0  0
 18 50  1  0  0  0  0
 20 51  1  0  0  0  0
 20 52  1  0  0  0  0
 20 53  1  0  0  0  0
 21 54  1  0  0  0  0
 21 55  1  0  0  0  0
 21 56  1  0  0  0  0
 23 25  1  0  0  0  0
 23 57  1  0  0  0  0
 23 58  1  0  0  0  0
 24 26  1  0  0  0  0
 24 27  1  0  0  0  0
 24 60  1  0  0  0  0
 25 31  1  0  0  0  0
 25 62  1  0  0  0  0
 25 63  1  0  0  0  0
 26 64  1  0  0  0  0
 26 65  1  0  0  0  0
 28 30  1  0  0  0  0
 29 32  1  0  0  0  0
 29 67  1  0  0  0  0
 29 68  1  0  0  0  0
 30 33  2  0  0  0  0
 30 34  1  0  0  0  0
 32 35  1  0  0  0  0
 32 69  1  0  0  0  0
 32 70  1  0  0  0  0
 33 36  1  0  0  0  0
 33 71  1  0  0  0  0
 34 38  2  0  0  0  0
 34 73  1  0  0  0  0
 35 39  1  0  0  0  0
 35 40  2  0  0  0  0
 36 37  2  0  0  0  0
 37 38  1  0  0  0  0
 38 74  1  0  0  0  0
 39 42  2  0  0  0  0
 40 43  1  0  0  0  0
 40 76  1  0  0  0  0
 41 77  1  0  0  0  0
 41 78  1  0  0  0  0
 42 44  1  0  0  0  0
 42 79  1  0  0  0  0
 43 44  2  0  0  0  0
 43 80  1  0  0  0  0
 44 81  1  0  0  0  0
M  END
> <PUBCHEM_COMPOUND_CID>
507494
> <PUBCHEM_COMPOUND_CANONICALIZED>
1
> <PUBCHEM_CACTVS_COMPLEXITY>
1000
> <PUBCHEM_CACTVS_HBOND_ACCEPTOR>
9
> <PUBCHEM_CACTVS_HBOND_DONOR>
6
> <PUBCHEM_CACTVS_ROTATABLE_BOND>
16
> <PUBCHEM_CACTVS_SUBSKEYS>
AAADcfB7vABEAAAAAAAAAAAAAAAAASAAAAAwYAAAAAAAAEgBQAAAHgYQCAAADS7F2CeyDoLABgSIAiHSGACCCAAkJQAIiIGOjsgdZjKFtzu0cSpk1hGOqYe+35LOIAABAAABQABAAAIAAAKAAAAAAAAAAA==
> <PUBCHEM_IUPAC_OPENEYE_NAME>
(4S)-4-(1,3-benzodioxole-5-carbonylamino)-5-[[(1S)-1-[[(1R)-2-[2-(2-chlorophenyl)ethylamino]-2-oxo-1-(sulfanylmethyl)ethyl]carbamoyl]-3-methyl-butyl]amino]-5-oxo-pentanoic acid
> <PUBCHEM_IUPAC_CAS_NAME>
(4S)-4-[[1,3-benzodioxol-5-yl(oxo)methyl]amino]-5-[[(2S)-1-[[(2R)-1-[2-(2-chlorophenyl)ethylamino]-3-mercapto-1-oxopropan-2-yl]amino]-4-methyl-1-oxopentan-2-yl]amino]-5-oxopentanoic acid
> <PUBCHEM_IUPAC_NAME_MARKUP>
(4<I>S</I>)-4-(1,3-benzodioxole-5-carbonylamino)-5-[[(2<I>S</I>)-1-[[(2<I>R</I>)-1-[2-(2-chlorophenyl)ethylamino]-1-oxo-3-sulfanylpropan-2-yl]amino]-4-methyl-1-oxopentan-2-yl]amino]-5-oxopentanoic acid
> <PUBCHEM_IUPAC_NAME>
(4S)-4-(1,3-benzodioxole-5-carbonylamino)-5-[[(2S)-1-[[(2R)-1-[2-(2-chlorophenyl)ethylamino]-1-oxo-3-sulfanylpropan-2-yl]amino]-4-methyl-1-oxopentan-2-yl]amino]-5-oxopentanoic acid
> <PUBCHEM_IUPAC_SYSTEMATIC_NAME>
(4S)-4-(1,3-benzodioxol-5-ylcarbonylamino)-5-[[(2S)-1-[[(2R)-1-[2-(2-chlorophenyl)ethylamino]-1-oxidanylidene-3-sulfanyl-propan-2-yl]amino]-4-methyl-1-oxidanylidene-pentan-2-yl]amino]-5-oxidanylidene-pentanoic acid
> <PUBCHEM_IUPAC_TRADITIONAL_NAME>
(4S)-5-[[(1S)-1-[[(1R)-2-[2-(2-chlorophenyl)ethylamino]-2-keto-1-(mercaptomethyl)ethyl]carbamoyl]-3-methyl-butyl]amino]-5-keto-4-(piperonyloylamino)valeric acid
> <PUBCHEM_IUPAC_INCHI>
InChI=1S/C30H37ClN4O8S/c1-17(2)13-22(30(41)35-23(15-44)28(39)32-12-11-18-5-3-4-6-20(18)31)34-29(40)21(8-10-26(36)37)33-27(38)19-7-9-24-25(14-19)43-16-42-24/h3-7,9,14,17,21-23,44H,8,10-13,15-16H2,1-2H3,(H,32,39)(H,33,38)(H,34,40)(H,35,41)(H,36,37)/t21-,22-,23-/m0/s1
> <PUBCHEM_IUPAC_INCHIKEY>
NZHVMFGPMDKOKT-VABKMULXSA-N
> <PUBCHEM_XLOGP3_AA>
3.6
> <PUBCHEM_EXACT_MASS>
648.2020630
> <PUBCHEM_MOLECULAR_FORMULA>
C30H37ClN4O8S
> <PUBCHEM_MOLECULAR_WEIGHT>
649.2
> <PUBCHEM_OPENEYE_CAN_SMILES>
CC(C)CC(C(=O)NC(CS)C(=O)NCCC1=CC=CC=C1Cl)NC(=O)C(CCC(=O)O)NC(=O)C2=CC3=C(C=C2)OCO3
> <PUBCHEM_OPENEYE_ISO_SMILES>
CC(C)C[C@@H](C(=O)N[C@@H](CS)C(=O)NCCC1=CC=CC=C1Cl)NC(=O)[C@H](CCC(=O)O)NC(=O)C2=CC3=C(C=C2)OCO3
> <PUBCHEM_CACTVS_TPSA>
173
> <PUBCHEM_MONOISOTOPIC_WEIGHT>
648.2020630
> <PUBCHEM_TOTAL_CHARGE>
0
> <PUBCHEM_HEAVY_ATOM_COUNT>
44
> <PUBCHEM_ATOM_DEF_STEREO_COUNT>
3
> <PUBCHEM_ATOM_UDEF_STEREO_COUNT>
0
> <PUBCHEM_BOND_DEF_STEREO_COUNT>
0
> <PUBCHEM_BOND_UDEF_STEREO_COUNT>
0
> <PUBCHEM_ISOTOPIC_ATOM_COUNT>
0
> <PUBCHEM_COMPONENT_COUNT>
1
> <PUBCHEM_CACTVS_TAUTO_COUNT>
-1
> <PUBCHEM_COORDINATE_TYPE>
1
5
255
> <PUBCHEM_BONDANNOTATIONS>
15  11  5
24  12  5
18  13  6
30  33  8
30  34  8
33  36  8
34  38  8
35  39  8
35  40  8
36  37  8
37  38  8
39  42  8
40  43  8
42  44  8
43  44  8
$$$$
