507428
  -OEChem-10302200282D
 92 92  0     1  0  0  0  0  0999 V2000
    6.8671    3.5000    0.0000 F   0  0  0  0  0  0  0  0  0  0  0  0
    8.5991    3.5000    0.0000 F   0  0  0  0  0  0  0  0  0  0  0  0
   10.3312    0.5000    0.0000 O   0  0  0  0  0  0  0  0  0  0  0  0
   11.1972    0.0000    0.0000 O   0  0  0  0  0  0  0  0  0  0  0  0
   13.7953   -2.5000    0.0000 O   0  0  0  0  0  0  0  0  0  0  0  0
    9.4651    0.0000    0.0000 O   0  0  0  0  0  0  0  0  0  0  0  0
   14.6613   -1.0000    0.0000 O   0  0  0  0  0  0  0  0  0  0  0  0
    2.5369   -3.0000    0.0000 O   0  0  0  0  0  0  0  0  0  0  0  0
    3.4030   -1.5000    0.0000 O   0  0  0  0  0  0  0  0  0  0  0  0
   12.0632    1.5000    0.0000 N   0  0  0  0  0  0  0  0  0  0  0  0
    9.4651    2.0000    0.0000 N   0  0  0  0  0  0  0  0  0  0  0  0
   12.9292   -1.0000    0.0000 N   0  0  0  0  0  0  0  0  0  0  0  0
    7.7331    0.0000    0.0000 N   0  0  0  0  0  0  0  0  0  0  0  0
   11.1972    2.0000    0.0000 C   0  0  1  0  0  0  0  0  0  0  0  0
   11.1972    3.0000    0.0000 C   0  0  0  0  0  0  0  0  0  0  0  0
   12.0632    3.5000    0.0000 C   0  0  0  0  0  0  0  0  0  0  0  0
   12.9292    0.0000    0.0000 C   0  0  1  0  0  0  0  0  0  0  0  0
   13.7953    0.5000    0.0000 C   0  0  0  0  0  0  0  0  0  0  0  0
   10.3312    1.5000    0.0000 C   0  0  0  0  0  0  0  0  0  0  0  0
   12.0632    0.5000    0.0000 C   0  0  0  0  0  0  0  0  0  0  0  0
    8.5991    1.5000    0.0000 C   0  0  1  0  0  0  0  0  0  0  0  0
   12.0632    4.5000    0.0000 C   0  0  0  0  0  0  0  0  0  0  0  0
   12.9292    3.0000    0.0000 C   0  0  0  0  0  0  0  0  0  0  0  0
   14.6613    0.0000    0.0000 C   0  0  0  0  0  0  0  0  0  0  0  0
   13.7953    1.5000    0.0000 C   0  0  0  0  0  0  0  0  0  0  0  0
    7.7331    2.0000    0.0000 C   0  0  0  0  0  0  0  0  0  0  0  0
    8.5991    0.5000    0.0000 C   0  0  0  0  0  0  0  0  0  0  0  0
    7.7331   -1.0000    0.0000 C   0  0  0  0  0  0  0  0  0  0  0  0
    7.7331    3.0000    0.0000 C   0  0  0  0  0  0  0  0  0  0  0  0
    6.8671   -1.5000    0.0000 C   0  0  0  0  0  0  0  0  0  0  0  0
   13.7953   -1.5000    0.0000 C   0  0  0  0  0  0  0  0  0  0  0  0
    6.8671   -2.5000    0.0000 C   0  0  0  0  0  0  0  0  0  0  0  0
    6.0010   -3.0000    0.0000 C   0  0  0  0  0  0  0  0  0  0  0  0
   14.6613   -3.0000    0.0000 C   0  0  0  0  0  0  0  0  0  0  0  0
    5.1350   -2.5000    0.0000 C   0  0  0  0  0  0  0  0  0  0  0  0
   14.6613   -4.0000    0.0000 C   0  0  0  0  0  0  0  0  0  0  0  0
    7.7331   -3.0000    0.0000 C   0  0  0  0  0  0  0  0  0  0  0  0
    6.0010   -4.0000    0.0000 C   0  0  0  0  0  0  0  0  0  0  0  0
    4.2690   -3.0000    0.0000 C   0  0  0  0  0  0  0  0  0  0  0  0
    7.7331   -4.0000    0.0000 C   0  0  0  0  0  0  0  0  0  0  0  0
   15.5273   -4.5000    0.0000 C   0  0  0  0  0  0  0  0  0  0  0  0
   13.7953   -4.5000    0.0000 C   0  0  0  0  0  0  0  0  0  0  0  0
    6.8671   -4.5000    0.0000 C   0  0  0  0  0  0  0  0  0  0  0  0
    3.4030   -2.5000    0.0000 C   0  0  0  0  0  0  0  0  0  0  0  0
   11.1972    1.3800    0.0000 H   0  0  0  0  0  0  0  0  0  0  0  0
   10.9851    3.5826    0.0000 H   0  0  0  0  0  0  0  0  0  0  0  0
   10.5866    2.8923    0.0000 H   0  0  0  0  0  0  0  0  0  0  0  0
   12.6002    3.8100    0.0000 H   0  0  0  0  0  0  0  0  0  0  0  0
   12.3923   -0.3100    0.0000 H   0  0  0  0  0  0  0  0  0  0  0  0
   14.3322    0.8100    0.0000 H   0  0  0  0  0  0  0  0  0  0  0  0
   12.6002    1.8100    0.0000 H   0  0  0  0  0  0  0  0  0  0  0  0
    8.5991    2.1200    0.0000 H   0  0  0  0  0  0  0  0  0  0  0  0
   12.6832    4.5000    0.0000 H   0  0  0  0  0  0  0  0  0  0  0  0
   12.0632    5.1200    0.0000 H   0  0  0  0  0  0  0  0  0  0  0  0
   11.4432    4.5000    0.0000 H   0  0  0  0  0  0  0  0  0  0  0  0
   12.6192    2.4631    0.0000 H   0  0  0  0  0  0  0  0  0  0  0  0
   13.4662    2.6900    0.0000 H   0  0  0  0  0  0  0  0  0  0  0  0
   13.2392    3.5369    0.0000 H   0  0  0  0  0  0  0  0  0  0  0  0
    9.4651    2.6200    0.0000 H   0  0  0  0  0  0  0  0  0  0  0  0
   14.3513   -0.5369    0.0000 H   0  0  0  0  0  0  0  0  0  0  0  0
   15.1982   -0.3100    0.0000 H   0  0  0  0  0  0  0  0  0  0  0  0
   14.9713    0.5369    0.0000 H   0  0  0  0  0  0  0  0  0  0  0  0
   14.4153    1.5000    0.0000 H   0  0  0  0  0  0  0  0  0  0  0  0
   13.7953    2.1200    0.0000 H   0  0  0  0  0  0  0  0  0  0  0  0
   13.1753    1.5000    0.0000 H   0  0  0  0  0  0  0  0  0  0  0  0
   12.3923   -1.3100    0.0000 H   0  0  0  0  0  0  0  0  0  0  0  0
    7.1225    2.1077    0.0000 H   0  0  0  0  0  0  0  0  0  0  0  0
    7.5210    1.4174    0.0000 H   0  0  0  0  0  0  0  0  0  0  0  0
    7.9451   -1.5826    0.0000 H   0  0  0  0  0  0  0  0  0  0  0  0
    8.3437   -0.8923    0.0000 H   0  0  0  0  0  0  0  0  0  0  0  0
    7.1962    0.3100    0.0000 H   0  0  0  0  0  0  0  0  0  0  0  0
    7.7331    3.6200    0.0000 H   0  0  0  0  0  0  0  0  0  0  0  0
    6.6550   -0.9174    0.0000 H   0  0  0  0  0  0  0  0  0  0  0  0
    6.2565   -1.6077    0.0000 H   0  0  0  0  0  0  0  0  0  0  0  0
   15.2719   -3.1077    0.0000 H   0  0  0  0  0  0  0  0  0  0  0  0
   14.8733   -2.4174    0.0000 H   0  0  0  0  0  0  0  0  0  0  0  0
    5.5335   -2.0250    0.0000 H   0  0  0  0  0  0  0  0  0  0  0  0
    4.7365   -2.0250    0.0000 H   0  0  0  0  0  0  0  0  0  0  0  0
   14.1244   -3.6900    0.0000 H   0  0  0  0  0  0  0  0  0  0  0  0
    8.2700   -2.6900    0.0000 H   0  0  0  0  0  0  0  0  0  0  0  0
    5.4641   -4.3100    0.0000 H   0  0  0  0  0  0  0  0  0  0  0  0
    3.8705   -3.4750    0.0000 H   0  0  0  0  0  0  0  0  0  0  0  0
    4.6675   -3.4750    0.0000 H   0  0  0  0  0  0  0  0  0  0  0  0
    8.2700   -4.3100    0.0000 H   0  0  0  0  0  0  0  0  0  0  0  0
   15.2173   -5.0369    0.0000 H   0  0  0  0  0  0  0  0  0  0  0  0
   16.0643   -4.8100    0.0000 H   0  0  0  0  0  0  0  0  0  0  0  0
   15.8373   -3.9631    0.0000 H   0  0  0  0  0  0  0  0  0  0  0  0
   13.4853   -3.9631    0.0000 H   0  0  0  0  0  0  0  0  0  0  0  0
   13.2583   -4.8100    0.0000 H   0  0  0  0  0  0  0  0  0  0  0  0
   14.1053   -5.0369    0.0000 H   0  0  0  0  0  0  0  0  0  0  0  0
    6.8671   -5.1200    0.0000 H   0  0  0  0  0  0  0  0  0  0  0  0
    2.0000   -2.6900    0.0000 H   0  0  0  0  0  0  0  0  0  0  0  0
  1 29  1  0  0  0  0
  2 29  1  0  0  0  0
  3 19  2  0  0  0  0
  4 20  2  0  0  0  0
  5 31  1  0  0  0  0
  5 34  1  0  0  0  0
  6 27  2  0  0  0  0
  7 31  2  0  0  0  0
  8 44  1  0  0  0  0
  8 92  1  0  0  0  0
  9 44  2  0  0  0  0
 14 10  1  6  0  0  0
 10 20  1  0  0  0  0
 10 51  1  0  0  0  0
 11 19  1  0  0  0  0
 21 11  1  6  0  0  0
 11 59  1  0  0  0  0
 17 12  1  6  0  0  0
 12 31  1  0  0  0  0
 12 66  1  0  0  0  0
 13 27  1  0  0  0  0
 13 28  1  0  0  0  0
 13 71  1  0  0  0  0
 14 15  1  0  0  0  0
 14 19  1  0  0  0  0
 14 45  1  0  0  0  0
 15 16  1  0  0  0  0
 15 46  1  0  0  0  0
 15 47  1  0  0  0  0
 16 22  1  0  0  0  0
 16 23  1  0  0  0  0
 16 48  1  0  0  0  0
 17 18  1  0  0  0  0
 17 20  1  0  0  0  0
 17 49  1  0  0  0  0
 18 24  1  0  0  0  0
 18 25  1  0  0  0  0
 18 50  1  0  0  0  0
 21 26  1  0  0  0  0
 21 27  1  0  0  0  0
 21 52  1  0  0  0  0
 22 53  1  0  0  0  0
 22 54  1  0  0  0  0
 22 55  1  0  0  0  0
 23 56  1  0  0  0  0
 23 57  1  0  0  0  0
 23 58  1  0  0  0  0
 24 60  1  0  0  0  0
 24 61  1  0  0  0  0
 24 62  1  0  0  0  0
 25 63  1  0  0  0  0
 25 64  1  0  0  0  0
 25 65  1  0  0  0  0
 26 29  1  0  0  0  0
 26 67  1  0  0  0  0
 26 68  1  0  0  0  0
 28 30  1  0  0  0  0
 28 69  1  0  0  0  0
 28 70  1  0  0  0  0
 29 72  1  0  0  0  0
 30 32  1  0  0  0  0
 30 73  1  0  0  0  0
 30 74  1  0  0  0  0
 32 33  1  0  0  0  0
 32 37  2  0  0  0  0
 33 35  1  0  0  0  0
 33 38  2  0  0  0  0
 34 36  1  0  0  0  0
 34 75  1  0  0  0  0
 34 76  1  0  0  0  0
 35 39  1  0  0  0  0
 35 77  1  0  0  0  0
 35 78  1  0  0  0  0
 36 41  1  0  0  0  0
 36 42  1  0  0  0  0
 36 79  1  0  0  0  0
 37 40  1  0  0  0  0
 37 80  1  0  0  0  0
 38 43  1  0  0  0  0
 38 81  1  0  0  0  0
 39 44  1  0  0  0  0
 39 82  1  0  0  0  0
 39 83  1  0  0  0  0
 40 43  2  0  0  0  0
 40 84  1  0  0  0  0
 41 85  1  0  0  0  0
 41 86  1  0  0  0  0
 41 87  1  0  0  0  0
 42 88  1  0  0  0  0
 42 89  1  0  0  0  0
 42 90  1  0  0  0  0
 43 91  1  0  0  0  0
M  END
> <PUBCHEM_COMPOUND_CID>
507428
> <PUBCHEM_COMPOUND_CANONICALIZED>
1
> <PUBCHEM_CACTVS_COMPLEXITY>
933
> <PUBCHEM_CACTVS_HBOND_ACCEPTOR>
9
> <PUBCHEM_CACTVS_HBOND_DONOR>
5
> <PUBCHEM_CACTVS_ROTATABLE_BOND>
20
> <PUBCHEM_CACTVS_SUBSKEYS>
AAADcfB7uYAAAAAAAAAAAAAAAAAAAAAAAAAwAAAAAAAAAAABAAAAHwAQCAAADSjhmBYyCILABgCIAiHSGAACAAAgAAAIiIGIAIkIYDKAkTGcYAAklgCIiAeYyLCOgAAAAAAQAAAAAAAAACAAAAAAAAAAAA==
> <PUBCHEM_IUPAC_OPENEYE_NAME>
3-[2-[2-[[(2S)-4,4-difluoro-2-[[(2S)-2-[[(2S)-2-(isobutoxycarbonylamino)-3-methyl-butanoyl]amino]-4-methyl-pentanoyl]amino]butanoyl]amino]ethyl]phenyl]propanoic acid
> <PUBCHEM_IUPAC_CAS_NAME>
3-[2-[2-[[(2S)-4,4-difluoro-2-[[(2S)-4-methyl-2-[[(2S)-3-methyl-2-[[2-methylpropoxy(oxo)methyl]amino]-1-oxobutyl]amino]-1-oxopentyl]amino]-1-oxobutyl]amino]ethyl]phenyl]propanoic acid
> <PUBCHEM_IUPAC_NAME_MARKUP>
3-[2-[2-[[(2<I>S</I>)-4,4-difluoro-2-[[(2<I>S</I>)-4-methyl-2-[[(2<I>S</I>)-3-methyl-2-(2-methylpropoxycarbonylamino)butanoyl]amino]pentanoyl]amino]butanoyl]amino]ethyl]phenyl]propanoic acid
> <PUBCHEM_IUPAC_NAME>
3-[2-[2-[[(2S)-4,4-difluoro-2-[[(2S)-4-methyl-2-[[(2S)-3-methyl-2-(2-methylpropoxycarbonylamino)butanoyl]amino]pentanoyl]amino]butanoyl]amino]ethyl]phenyl]propanoic acid
> <PUBCHEM_IUPAC_SYSTEMATIC_NAME>
3-[2-[2-[[(2S)-4,4-bis(fluoranyl)-2-[[(2S)-4-methyl-2-[[(2S)-3-methyl-2-(2-methylpropoxycarbonylamino)butanoyl]amino]pentanoyl]amino]butanoyl]amino]ethyl]phenyl]propanoic acid
> <PUBCHEM_IUPAC_TRADITIONAL_NAME>
3-[2-[2-[[(2S)-4,4-difluoro-2-[[(2S)-2-[[(2S)-2-(isobutoxycarbonylamino)-3-methyl-butanoyl]amino]-4-methyl-pentanoyl]amino]butanoyl]amino]ethyl]phenyl]propionic acid
> <PUBCHEM_IUPAC_INCHI>
InChI=1S/C31H48F2N4O7/c1-18(2)15-23(36-30(42)27(20(5)6)37-31(43)44-17-19(3)4)29(41)35-24(16-25(32)33)28(40)34-14-13-22-10-8-7-9-21(22)11-12-26(38)39/h7-10,18-20,23-25,27H,11-17H2,1-6H3,(H,34,40)(H,35,41)(H,36,42)(H,37,43)(H,38,39)/t23-,24-,27-/m0/s1
> <PUBCHEM_IUPAC_INCHIKEY>
XJPRNXXJGBYXJB-DPZBCOQUSA-N
> <PUBCHEM_XLOGP3_AA>
5.4
> <PUBCHEM_EXACT_MASS>
626.34910621
> <PUBCHEM_MOLECULAR_FORMULA>
C31H48F2N4O7
> <PUBCHEM_MOLECULAR_WEIGHT>
626.7
> <PUBCHEM_OPENEYE_CAN_SMILES>
CC(C)CC(C(=O)NC(CC(F)F)C(=O)NCCC1=CC=CC=C1CCC(=O)O)NC(=O)C(C(C)C)NC(=O)OCC(C)C
> <PUBCHEM_OPENEYE_ISO_SMILES>
CC(C)C[C@@H](C(=O)N[C@@H](CC(F)F)C(=O)NCCC1=CC=CC=C1CCC(=O)O)NC(=O)[C@H](C(C)C)NC(=O)OCC(C)C
> <PUBCHEM_CACTVS_TPSA>
163
> <PUBCHEM_MONOISOTOPIC_WEIGHT>
626.34910621
> <PUBCHEM_TOTAL_CHARGE>
0
> <PUBCHEM_HEAVY_ATOM_COUNT>
44
> <PUBCHEM_ATOM_DEF_STEREO_COUNT>
3
> <PUBCHEM_ATOM_UDEF_STEREO_COUNT>
0
> <PUBCHEM_BOND_DEF_STEREO_COUNT>
0
> <PUBCHEM_BOND_UDEF_STEREO_COUNT>
0
> <PUBCHEM_ISOTOPIC_ATOM_COUNT>
0
> <PUBCHEM_COMPONENT_COUNT>
1
> <PUBCHEM_CACTVS_TAUTO_COUNT>
-1
> <PUBCHEM_COORDINATE_TYPE>
1
5
255
> <PUBCHEM_BONDANNOTATIONS>
14  10  6
21  11  6
17  12  6
32  33  8
32  37  8
33  38  8
37  40  8
38  43  8
40  43  8
$$$$
