507488
  -OEChem-10302200282D
 78 78  0     1  0  0  0  0  0999 V2000
    7.2425   -0.5486    0.0000 S   0  0  0  0  0  0  0  0  0  0  0  0
    2.8090   -6.0280    0.0000 S   0  0  0  0  0  0  0  0  0  0  0  0
    8.2370   -0.6532    0.0000 O   0  0  0  0  0  0  0  0  0  0  0  0
    8.8248    0.1559    0.0000 O   0  0  0  0  0  0  0  0  0  0  0  0
   10.1814    3.4964    0.0000 O   0  0  0  0  0  0  0  0  0  0  0  0
    6.8804   -3.9938    0.0000 O   0  0  0  0  0  0  0  0  0  0  0  0
   11.5827    2.4784    0.0000 O   0  0  0  0  0  0  0  0  0  0  0  0
   13.5717    2.2693    0.0000 O   0  0  0  0  0  0  0  0  0  0  0  0
   13.3906    0.5468    0.0000 O   0  0  0  0  0  0  0  0  0  0  0  0
   10.2260   -0.8622    0.0000 N   0  0  0  0  0  0  0  0  0  0  0  0
    8.0559   -2.3757    0.0000 N   0  0  0  0  0  0  0  0  0  0  0  0
   10.0003    1.7739    0.0000 N   0  0  0  0  0  0  0  0  0  0  0  0
    5.4791   -2.9757    0.0000 N   0  0  0  0  0  0  0  0  0  0  0  0
   10.0450   -2.5848    0.0000 C   0  0  0  0  0  0  0  0  0  0  0  0
    9.6382   -1.6712    0.0000 C   0  0  1  0  0  0  0  0  0  0  0  0
   11.0395   -2.6893    0.0000 C   0  0  0  0  0  0  0  0  0  0  0  0
    8.6437   -1.5667    0.0000 C   0  0  0  0  0  0  0  0  0  0  0  0
   10.4071    0.8603    0.0000 C   0  0  2  0  0  0  0  0  0  0  0  0
   11.4462   -3.6028    0.0000 C   0  0  0  0  0  0  0  0  0  0  0  0
   11.6273   -1.8803    0.0000 C   0  0  0  0  0  0  0  0  0  0  0  0
    9.8193    0.0513    0.0000 C   0  0  0  0  0  0  0  0  0  0  0  0
   11.4016    0.7558    0.0000 C   0  0  0  0  0  0  0  0  0  0  0  0
    7.0614   -2.2712    0.0000 C   0  0  1  0  0  0  0  0  0  0  0  0
   11.9894    1.5648    0.0000 C   0  0  0  0  0  0  0  0  0  0  0  0
    6.6547   -1.3576    0.0000 C   0  0  0  0  0  0  0  0  0  0  0  0
    6.4736   -3.0802    0.0000 C   0  0  0  0  0  0  0  0  0  0  0  0
   10.5881    2.5829    0.0000 C   0  0  0  0  0  0  0  0  0  0  0  0
    4.8913   -3.7847    0.0000 C   0  0  0  0  0  0  0  0  0  0  0  0
   12.9839    1.4603    0.0000 C   0  0  0  0  0  0  0  0  0  0  0  0
   10.3624    5.2190    0.0000 C   0  0  0  0  0  0  0  0  0  0  0  0
   10.7692    4.3055    0.0000 C   0  0  0  0  0  0  0  0  0  0  0  0
    3.8968   -3.6802    0.0000 C   0  0  0  0  0  0  0  0  0  0  0  0
    3.3090   -4.4892    0.0000 C   0  0  0  0  0  0  0  0  0  0  0  0
   10.9502    6.0280    0.0000 C   0  0  0  0  0  0  0  0  0  0  0  0
    9.3679    5.3235    0.0000 C   0  0  0  0  0  0  0  0  0  0  0  0
    2.3090   -4.4892    0.0000 C   0  0  0  0  0  0  0  0  0  0  0  0
    3.6180   -5.4402    0.0000 C   0  0  0  0  0  0  0  0  0  0  0  0
    2.0000   -5.4402    0.0000 C   0  0  0  0  0  0  0  0  0  0  0  0
    9.4434   -2.7348    0.0000 H   0  0  0  0  0  0  0  0  0  0  0  0
   10.0882   -3.2033    0.0000 H   0  0  0  0  0  0  0  0  0  0  0  0
    9.3861   -1.1048    0.0000 H   0  0  0  0  0  0  0  0  0  0  0  0
   10.7873   -2.1229    0.0000 H   0  0  0  0  0  0  0  0  0  0  0  0
   10.8426   -0.9270    0.0000 H   0  0  0  0  0  0  0  0  0  0  0  0
   10.7715    1.3619    0.0000 H   0  0  0  0  0  0  0  0  0  0  0  0
   10.8798   -3.8550    0.0000 H   0  0  0  0  0  0  0  0  0  0  0  0
   11.6984   -4.1692    0.0000 H   0  0  0  0  0  0  0  0  0  0  0  0
   12.0126   -3.3507    0.0000 H   0  0  0  0  0  0  0  0  0  0  0  0
   12.1289   -2.2447    0.0000 H   0  0  0  0  0  0  0  0  0  0  0  0
   11.9917   -1.3787    0.0000 H   0  0  0  0  0  0  0  0  0  0  0  0
   11.1257   -1.5159    0.0000 H   0  0  0  0  0  0  0  0  0  0  0  0
   11.2307    0.1598    0.0000 H   0  0  0  0  0  0  0  0  0  0  0  0
   11.9589    0.4840    0.0000 H   0  0  0  0  0  0  0  0  0  0  0  0
    8.3081   -2.9421    0.0000 H   0  0  0  0  0  0  0  0  0  0  0  0
    7.4258   -1.7696    0.0000 H   0  0  0  0  0  0  0  0  0  0  0  0
    9.3837    1.8387    0.0000 H   0  0  0  0  0  0  0  0  0  0  0  0
   12.1603    2.1608    0.0000 H   0  0  0  0  0  0  0  0  0  0  0  0
   11.4321    1.8366    0.0000 H   0  0  0  0  0  0  0  0  0  0  0  0
    6.2240   -0.9117    0.0000 H   0  0  0  0  0  0  0  0  0  0  0  0
    6.1407   -1.7044    0.0000 H   0  0  0  0  0  0  0  0  0  0  0  0
    5.2269   -2.4093    0.0000 H   0  0  0  0  0  0  0  0  0  0  0  0
    4.7204   -4.3807    0.0000 H   0  0  0  0  0  0  0  0  0  0  0  0
    5.4486   -4.0565    0.0000 H   0  0  0  0  0  0  0  0  0  0  0  0
   10.9790    5.1542    0.0000 H   0  0  0  0  0  0  0  0  0  0  0  0
   11.1999    3.8595    0.0000 H   0  0  0  0  0  0  0  0  0  0  0  0
   11.2832    4.6522    0.0000 H   0  0  0  0  0  0  0  0  0  0  0  0
    4.0677   -3.0842    0.0000 H   0  0  0  0  0  0  0  0  0  0  0  0
    3.3396   -3.4084    0.0000 H   0  0  0  0  0  0  0  0  0  0  0  0
    6.9903    0.0178    0.0000 H   0  0  0  0  0  0  0  0  0  0  0  0
   11.4518    5.6636    0.0000 H   0  0  0  0  0  0  0  0  0  0  0  0
   11.3147    6.5296    0.0000 H   0  0  0  0  0  0  0  0  0  0  0  0
   10.4486    6.3925    0.0000 H   0  0  0  0  0  0  0  0  0  0  0  0
    9.4327    5.9402    0.0000 H   0  0  0  0  0  0  0  0  0  0  0  0
    8.7513    5.3884    0.0000 H   0  0  0  0  0  0  0  0  0  0  0  0
    9.3031    4.7069    0.0000 H   0  0  0  0  0  0  0  0  0  0  0  0
   14.1883    2.2045    0.0000 H   0  0  0  0  0  0  0  0  0  0  0  0
    1.9446   -3.9876    0.0000 H   0  0  0  0  0  0  0  0  0  0  0  0
    4.2077   -5.6318    0.0000 H   0  0  0  0  0  0  0  0  0  0  0  0
    1.4103   -5.6318    0.0000 H   0  0  0  0  0  0  0  0  0  0  0  0
  1 25  1  0  0  0  0
  1 68  1  0  0  0  0
  2 37  1  0  0  0  0
  2 38  1  0  0  0  0
  3 17  2  0  0  0  0
  4 21  2  0  0  0  0
  5 27  1  0  0  0  0
  5 31  1  0  0  0  0
  6 26  2  0  0  0  0
  7 27  2  0  0  0  0
  8 29  1  0  0  0  0
  8 75  1  0  0  0  0
  9 29  2  0  0  0  0
 15 10  1  1  0  0  0
 10 21  1  0  0  0  0
 10 43  1  0  0  0  0
 11 17  1  0  0  0  0
 23 11  1  6  0  0  0
 11 53  1  0  0  0  0
 18 12  1  1  0  0  0
 12 27  1  0  0  0  0
 12 55  1  0  0  0  0
 13 26  1  0  0  0  0
 13 28  1  0  0  0  0
 13 60  1  0  0  0  0
 14 15  1  0  0  0  0
 14 16  1  0  0  0  0
 14 39  1  0  0  0  0
 14 40  1  0  0  0  0
 15 17  1  0  0  0  0
 15 41  1  0  0  0  0
 16 19  1  0  0  0  0
 16 20  1  0  0  0  0
 16 42  1  0  0  0  0
 18 21  1  0  0  0  0
 18 22  1  0  0  0  0
 18 44  1  0  0  0  0
 19 45  1  0  0  0  0
 19 46  1  0  0  0  0
 19 47  1  0  0  0  0
 20 48  1  0  0  0  0
 20 49  1  0  0  0  0
 20 50  1  0  0  0  0
 22 24  1  0  0  0  0
 22 51  1  0  0  0  0
 22 52  1  0  0  0  0
 23 25  1  0  0  0  0
 23 26  1  0  0  0  0
 23 54  1  0  0  0  0
 24 29  1  0  0  0  0
 24 56  1  0  0  0  0
 24 57  1  0  0  0  0
 25 58  1  0  0  0  0
 25 59  1  0  0  0  0
 28 32  1  0  0  0  0
 28 61  1  0  0  0  0
 28 62  1  0  0  0  0
 30 31  1  0  0  0  0
 30 34  1  0  0  0  0
 30 35  1  0  0  0  0
 30 63  1  0  0  0  0
 31 64  1  0  0  0  0
 31 65  1  0  0  0  0
 32 33  1  0  0  0  0
 32 66  1  0  0  0  0
 32 67  1  0  0  0  0
 33 36  1  0  0  0  0
 33 37  2  0  0  0  0
 34 69  1  0  0  0  0
 34 70  1  0  0  0  0
 34 71  1  0  0  0  0
 35 72  1  0  0  0  0
 35 73  1  0  0  0  0
 35 74  1  0  0  0  0
 36 38  2  0  0  0  0
 36 76  1  0  0  0  0
 37 77  1  0  0  0  0
 38 78  1  0  0  0  0
M  END
> <PUBCHEM_COMPOUND_CID>
507488
> <PUBCHEM_COMPOUND_CANONICALIZED>
1
> <PUBCHEM_CACTVS_COMPLEXITY>
798
> <PUBCHEM_CACTVS_HBOND_ACCEPTOR>
9
> <PUBCHEM_CACTVS_HBOND_DONOR>
6
> <PUBCHEM_CACTVS_ROTATABLE_BOND>
18
> <PUBCHEM_CACTVS_SUBSKEYS>
AAADcfB7uABgAAAAAAAAAAAAAAAAASAAAAAAAAAAAAAAAAABgAAAHgQQCAAADSjl2AayCYLABgyMAiHSGAADAIAgCBBIiJmIAIkIYBIgkSGcQAAklgCoCAK8FwIOAAAAAAAAAAAAAAAAAAAAAAAAAAAAAA==
> <PUBCHEM_IUPAC_OPENEYE_NAME>
(4S)-4-(isobutoxycarbonylamino)-5-[[(1S)-3-methyl-1-[[(1R)-2-oxo-1-(sulfanylmethyl)-2-[2-(3-thienyl)ethylamino]ethyl]carbamoyl]butyl]amino]-5-oxo-pentanoic acid
> <PUBCHEM_IUPAC_CAS_NAME>
(4S)-5-[[(2S)-1-[[(2R)-3-mercapto-1-oxo-1-[2-(3-thiophenyl)ethylamino]propan-2-yl]amino]-4-methyl-1-oxopentan-2-yl]amino]-4-[[2-methylpropoxy(oxo)methyl]amino]-5-oxopentanoic acid
> <PUBCHEM_IUPAC_NAME_MARKUP>
(4<I>S</I>)-5-[[(2<I>S</I>)-4-methyl-1-oxo-1-[[(2<I>R</I>)-1-oxo-3-sulfanyl-1-(2-thiophen-3-ylethylamino)propan-2-yl]amino]pentan-2-yl]amino]-4-(2-methylpropoxycarbonylamino)-5-oxopentanoic acid
> <PUBCHEM_IUPAC_NAME>
(4S)-5-[[(2S)-4-methyl-1-oxo-1-[[(2R)-1-oxo-3-sulfanyl-1-(2-thiophen-3-ylethylamino)propan-2-yl]amino]pentan-2-yl]amino]-4-(2-methylpropoxycarbonylamino)-5-oxopentanoic acid
> <PUBCHEM_IUPAC_SYSTEMATIC_NAME>
(4S)-5-[[(2S)-4-methyl-1-oxidanylidene-1-[[(2R)-1-oxidanylidene-3-sulfanyl-1-(2-thiophen-3-ylethylamino)propan-2-yl]amino]pentan-2-yl]amino]-4-(2-methylpropoxycarbonylamino)-5-oxidanylidene-pentanoic acid
> <PUBCHEM_IUPAC_TRADITIONAL_NAME>
(4S)-4-(isobutoxycarbonylamino)-5-keto-5-[[(1S)-1-[[(1R)-2-keto-1-(mercaptomethyl)-2-[2-(3-thienyl)ethylamino]ethyl]carbamoyl]-3-methyl-butyl]amino]valeric acid
> <PUBCHEM_IUPAC_INCHI>
InChI=1S/C25H40N4O7S2/c1-15(2)11-19(24(34)28-20(13-37)22(32)26-9-7-17-8-10-38-14-17)27-23(33)18(5-6-21(30)31)29-25(35)36-12-16(3)4/h8,10,14-16,18-20,37H,5-7,9,11-13H2,1-4H3,(H,26,32)(H,27,33)(H,28,34)(H,29,35)(H,30,31)/t18-,19-,20-/m0/s1
> <PUBCHEM_IUPAC_INCHIKEY>
YNTYVEZXRJTLCE-UFYCRDLUSA-N
> <PUBCHEM_XLOGP3_AA>
2.9
> <PUBCHEM_EXACT_MASS>
572.23384197
> <PUBCHEM_MOLECULAR_FORMULA>
C25H40N4O7S2
> <PUBCHEM_MOLECULAR_WEIGHT>
572.7
> <PUBCHEM_OPENEYE_CAN_SMILES>
CC(C)CC(C(=O)NC(CS)C(=O)NCCC1=CSC=C1)NC(=O)C(CCC(=O)O)NC(=O)OCC(C)C
> <PUBCHEM_OPENEYE_ISO_SMILES>
CC(C)C[C@@H](C(=O)N[C@@H](CS)C(=O)NCCC1=CSC=C1)NC(=O)[C@H](CCC(=O)O)NC(=O)OCC(C)C
> <PUBCHEM_CACTVS_TPSA>
192
> <PUBCHEM_MONOISOTOPIC_WEIGHT>
572.23384197
> <PUBCHEM_TOTAL_CHARGE>
0
> <PUBCHEM_HEAVY_ATOM_COUNT>
38
> <PUBCHEM_ATOM_DEF_STEREO_COUNT>
3
> <PUBCHEM_ATOM_UDEF_STEREO_COUNT>
0
> <PUBCHEM_BOND_DEF_STEREO_COUNT>
0
> <PUBCHEM_BOND_UDEF_STEREO_COUNT>
0
> <PUBCHEM_ISOTOPIC_ATOM_COUNT>
0
> <PUBCHEM_COMPONENT_COUNT>
1
> <PUBCHEM_CACTVS_TAUTO_COUNT>
-1
> <PUBCHEM_COORDINATE_TYPE>
1
5
255
> <PUBCHEM_BONDANNOTATIONS>
15  10  5
23  11  6
18  12  5
2  37  8
2  38  8
33  36  8
33  37  8
36  38  8
$$$$
