507406
  -OEChem-10302200282D
 98102  0     1  0  0  0  0  0999 V2000
    6.2619   -4.7984    0.0000 O   0  0  0  0  0  0  0  0  0  0  0  0
    5.6103   -1.1421    0.0000 O   0  0  0  0  0  0  0  0  0  0  0  0
    7.9244   -2.4245    0.0000 O   0  0  0  0  0  0  0  0  0  0  0  0
    9.2136   -1.2677    0.0000 O   0  0  0  0  0  0  0  0  0  0  0  0
    6.8994    0.0147    0.0000 O   0  0  0  0  0  0  0  0  0  0  0  0
    6.6353   -3.5812    0.0000 O   0  0  0  0  0  0  0  0  0  0  0  0
    8.1886    1.1714    0.0000 O   0  0  0  0  0  0  0  0  0  0  0  0
   11.7920    1.0458    0.0000 O   0  0  0  0  0  0  0  0  0  0  0  0
    4.9889   -3.0431    0.0000 N   0  0  0  0  0  0  0  0  0  0  0  0
    9.8349    0.6333    0.0000 N   0  0  0  0  0  0  0  0  0  0  0  0
   11.4348    2.7406    0.0000 N   0  0  0  0  0  0  0  0  0  0  0  0
   13.7024    4.1035    0.0000 N   0  0  0  0  0  0  0  0  0  0  0  0
    4.6783   -3.9936    0.0000 C   0  0  3  0  0  0  0  0  0  0  0  0
    5.2619   -4.7984    0.0000 C   0  0  3  0  0  0  0  0  0  0  0  0
    4.6783   -5.6031    0.0000 C   0  0  0  0  0  0  0  0  0  0  0  0
    3.7320   -4.2984    0.0000 C   0  0  0  0  0  0  0  0  0  0  0  0
    3.7320   -5.2984    0.0000 C   0  0  0  0  0  0  0  0  0  0  0  0
    6.2781   -1.8864    0.0000 C   0  0  2  0  0  0  0  0  0  0  0  0
    7.2566   -1.6802    0.0000 C   0  0  1  0  0  0  0  0  0  0  0  0
    2.8660   -3.7984    0.0000 C   0  0  0  0  0  0  0  0  0  0  0  0
    5.9674   -2.8369    0.0000 C   0  0  0  0  0  0  0  0  0  0  0  0
    2.8660   -5.7984    0.0000 C   0  0  0  0  0  0  0  0  0  0  0  0
    7.5673   -0.7296    0.0000 C   0  0  2  0  0  0  0  0  0  0  0  0
    8.5458   -0.5234    0.0000 C   0  0  2  0  0  0  0  0  0  0  0  0
    2.0000   -4.2984    0.0000 C   0  0  0  0  0  0  0  0  0  0  0  0
    2.0000   -5.2984    0.0000 C   0  0  0  0  0  0  0  0  0  0  0  0
   10.1456    1.5838    0.0000 C   0  0  1  0  0  0  0  0  0  0  0  0
    8.8564    0.4271    0.0000 C   0  0  0  0  0  0  0  0  0  0  0  0
    9.4778    2.3282    0.0000 C   0  0  0  0  0  0  0  0  0  0  0  0
    5.9209   -0.1916    0.0000 C   0  0  0  0  0  0  0  0  0  0  0  0
   11.1241    1.7901    0.0000 C   0  0  0  0  0  0  0  0  0  0  0  0
    9.7884    3.2787    0.0000 C   0  0  0  0  0  0  0  0  0  0  0  0
    8.4993    2.1219    0.0000 C   0  0  0  0  0  0  0  0  0  0  0  0
   10.1921   -1.0615    0.0000 C   0  0  0  0  0  0  0  0  0  0  0  0
    5.2531    0.5528    0.0000 C   0  0  0  0  0  0  0  0  0  0  0  0
   10.8600   -1.8058    0.0000 C   0  0  0  0  0  0  0  0  0  0  0  0
    4.2746    0.3465    0.0000 C   0  0  0  0  0  0  0  0  0  0  0  0
    5.5637    1.5033    0.0000 C   0  0  0  0  0  0  0  0  0  0  0  0
   12.4133    2.9468    0.0000 C   0  0  0  0  0  0  0  0  0  0  0  0
   10.5493   -2.7563    0.0000 C   0  0  0  0  0  0  0  0  0  0  0  0
   11.8385   -1.5996    0.0000 C   0  0  0  0  0  0  0  0  0  0  0  0
    3.6067    1.0908    0.0000 C   0  0  0  0  0  0  0  0  0  0  0  0
    4.8959    2.2476    0.0000 C   0  0  0  0  0  0  0  0  0  0  0  0
   12.7239    3.8973    0.0000 C   0  0  0  0  0  0  0  0  0  0  0  0
    3.9174    2.0414    0.0000 C   0  0  0  0  0  0  0  0  0  0  0  0
   11.2171   -3.5006    0.0000 C   0  0  0  0  0  0  0  0  0  0  0  0
   12.5063   -2.3439    0.0000 C   0  0  0  0  0  0  0  0  0  0  0  0
   12.1957   -3.2944    0.0000 C   0  0  0  0  0  0  0  0  0  0  0  0
   12.0561    4.6416    0.0000 C   0  0  0  0  0  0  0  0  0  0  0  0
   12.3668    5.5921    0.0000 C   0  0  0  0  0  0  0  0  0  0  0  0
   14.0131    5.0541    0.0000 C   0  0  0  0  0  0  0  0  0  0  0  0
   13.3453    5.7984    0.0000 C   0  0  0  0  0  0  0  0  0  0  0  0
    5.2908   -3.8974    0.0000 H   0  0  0  0  0  0  0  0  0  0  0  0
    5.5436   -4.2461    0.0000 H   0  0  0  0  0  0  0  0  0  0  0  0
    4.4272   -6.1700    0.0000 H   0  0  0  0  0  0  0  0  0  0  0  0
    5.2156   -5.9123    0.0000 H   0  0  0  0  0  0  0  0  0  0  0  0
    4.5749   -2.5816    0.0000 H   0  0  0  0  0  0  0  0  0  0  0  0
    5.6714   -2.0142    0.0000 H   0  0  0  0  0  0  0  0  0  0  0  0
    7.0640   -2.2695    0.0000 H   0  0  0  0  0  0  0  0  0  0  0  0
    2.8660   -3.1784    0.0000 H   0  0  0  0  0  0  0  0  0  0  0  0
    2.8660   -6.4184    0.0000 H   0  0  0  0  0  0  0  0  0  0  0  0
    6.9606   -0.8575    0.0000 H   0  0  0  0  0  0  0  0  0  0  0  0
    8.3532   -1.1127    0.0000 H   0  0  0  0  0  0  0  0  0  0  0  0
    6.5719   -5.3353    0.0000 H   0  0  0  0  0  0  0  0  0  0  0  0
    1.4631   -3.9884    0.0000 H   0  0  0  0  0  0  0  0  0  0  0  0
    1.4631   -5.6084    0.0000 H   0  0  0  0  0  0  0  0  0  0  0  0
   10.5597    1.1224    0.0000 H   0  0  0  0  0  0  0  0  0  0  0  0
    9.2852    1.7388    0.0000 H   0  0  0  0  0  0  0  0  0  0  0  0
   10.2490    0.1719    0.0000 H   0  0  0  0  0  0  0  0  0  0  0  0
    8.5311   -2.2966    0.0000 H   0  0  0  0  0  0  0  0  0  0  0  0
    7.0920    0.6040    0.0000 H   0  0  0  0  0  0  0  0  0  0  0  0
    6.4678   -0.4836    0.0000 H   0  0  0  0  0  0  0  0  0  0  0  0
    6.3035    0.2964    0.0000 H   0  0  0  0  0  0  0  0  0  0  0  0
   10.3777    3.0861    0.0000 H   0  0  0  0  0  0  0  0  0  0  0  0
    9.9810    3.8680    0.0000 H   0  0  0  0  0  0  0  0  0  0  0  0
    9.1991    3.4713    0.0000 H   0  0  0  0  0  0  0  0  0  0  0  0
    8.3714    2.7286    0.0000 H   0  0  0  0  0  0  0  0  0  0  0  0
    7.8926    1.9941    0.0000 H   0  0  0  0  0  0  0  0  0  0  0  0
    8.6271    1.5152    0.0000 H   0  0  0  0  0  0  0  0  0  0  0  0
   10.7185   -0.7339    0.0000 H   0  0  0  0  0  0  0  0  0  0  0  0
    9.9609   -0.4862    0.0000 H   0  0  0  0  0  0  0  0  0  0  0  0
   11.0207    3.2020    0.0000 H   0  0  0  0  0  0  0  0  0  0  0  0
    4.0820   -0.2428    0.0000 H   0  0  0  0  0  0  0  0  0  0  0  0
    6.1704    1.6311    0.0000 H   0  0  0  0  0  0  0  0  0  0  0  0
   12.4338    2.3271    0.0000 H   0  0  0  0  0  0  0  0  0  0  0  0
   13.0271    2.8594    0.0000 H   0  0  0  0  0  0  0  0  0  0  0  0
    9.9426   -2.8842    0.0000 H   0  0  0  0  0  0  0  0  0  0  0  0
   12.0311   -1.0103    0.0000 H   0  0  0  0  0  0  0  0  0  0  0  0
    3.0000    0.9630    0.0000 H   0  0  0  0  0  0  0  0  0  0  0  0
    5.0885    2.8369    0.0000 H   0  0  0  0  0  0  0  0  0  0  0  0
    3.5033    2.5028    0.0000 H   0  0  0  0  0  0  0  0  0  0  0  0
   11.0245   -4.0899    0.0000 H   0  0  0  0  0  0  0  0  0  0  0  0
   13.1130   -2.2160    0.0000 H   0  0  0  0  0  0  0  0  0  0  0  0
   12.6097   -3.7559    0.0000 H   0  0  0  0  0  0  0  0  0  0  0  0
   11.4494    4.5138    0.0000 H   0  0  0  0  0  0  0  0  0  0  0  0
   11.9527    6.0536    0.0000 H   0  0  0  0  0  0  0  0  0  0  0  0
   14.6198    5.1819    0.0000 H   0  0  0  0  0  0  0  0  0  0  0  0
   13.5379    6.3877    0.0000 H   0  0  0  0  0  0  0  0  0  0  0  0
  1 14  1  0  0  0  0
  1 64  1  0  0  0  0
 18  2  1  6  0  0  0
  2 30  1  0  0  0  0
 19  3  1  1  0  0  0
  3 70  1  0  0  0  0
 24  4  1  6  0  0  0
  4 34  1  0  0  0  0
 23  5  1  1  0  0  0
  5 71  1  0  0  0  0
  6 21  2  0  0  0  0
  7 28  2  0  0  0  0
  8 31  2  0  0  0  0
  9 13  1  0  0  0  0
  9 21  1  0  0  0  0
  9 57  1  0  0  0  0
 27 10  1  1  0  0  0
 10 28  1  0  0  0  0
 10 69  1  0  0  0  0
 11 31  1  0  0  0  0
 11 39  1  0  0  0  0
 11 82  1  0  0  0  0
 12 44  1  0  0  0  0
 12 51  2  0  0  0  0
 13 14  1  0  0  0  0
 13 16  1  0  0  0  0
 13 53  1  0  0  0  0
 14 15  1  0  0  0  0
 14 54  1  0  0  0  0
 15 17  1  0  0  0  0
 15 55  1  0  0  0  0
 15 56  1  0  0  0  0
 16 17  1  0  0  0  0
 16 20  2  0  0  0  0
 17 22  2  0  0  0  0
 18 19  1  0  0  0  0
 18 21  1  0  0  0  0
 18 58  1  0  0  0  0
 19 23  1  0  0  0  0
 19 59  1  0  0  0  0
 20 25  1  0  0  0  0
 20 60  1  0  0  0  0
 22 26  1  0  0  0  0
 22 61  1  0  0  0  0
 23 24  1  0  0  0  0
 23 62  1  0  0  0  0
 24 28  1  0  0  0  0
 24 63  1  0  0  0  0
 25 26  2  0  0  0  0
 25 65  1  0  0  0  0
 26 66  1  0  0  0  0
 27 29  1  0  0  0  0
 27 31  1  0  0  0  0
 27 67  1  0  0  0  0
 29 32  1  0  0  0  0
 29 33  1  0  0  0  0
 29 68  1  0  0  0  0
 30 35  1  0  0  0  0
 30 72  1  0  0  0  0
 30 73  1  0  0  0  0
 32 74  1  0  0  0  0
 32 75  1  0  0  0  0
 32 76  1  0  0  0  0
 33 77  1  0  0  0  0
 33 78  1  0  0  0  0
 33 79  1  0  0  0  0
 34 36  1  0  0  0  0
 34 80  1  0  0  0  0
 34 81  1  0  0  0  0
 35 37  2  0  0  0  0
 35 38  1  0  0  0  0
 36 40  2  0  0  0  0
 36 41  1  0  0  0  0
 37 42  1  0  0  0  0
 37 83  1  0  0  0  0
 38 43  2  0  0  0  0
 38 84  1  0  0  0  0
 39 44  1  0  0  0  0
 39 85  1  0  0  0  0
 39 86  1  0  0  0  0
 40 46  1  0  0  0  0
 40 87  1  0  0  0  0
 41 47  2  0  0  0  0
 41 88  1  0  0  0  0
 42 45  2  0  0  0  0
 42 89  1  0  0  0  0
 43 45  1  0  0  0  0
 43 90  1  0  0  0  0
 44 49  2  0  0  0  0
 45 91  1  0  0  0  0
 46 48  2  0  0  0  0
 46 92  1  0  0  0  0
 47 48  1  0  0  0  0
 47 93  1  0  0  0  0
 48 94  1  0  0  0  0
 49 50  1  0  0  0  0
 49 95  1  0  0  0  0
 50 52  2  0  0  0  0
 50 96  1  0  0  0  0
 51 52  1  0  0  0  0
 51 97  1  0  0  0  0
 52 98  1  0  0  0  0
M  END
> <PUBCHEM_COMPOUND_CID>
507406
> <PUBCHEM_COMPOUND_CANONICALIZED>
1
> <PUBCHEM_CACTVS_COMPLEXITY>
1120
> <PUBCHEM_CACTVS_HBOND_ACCEPTOR>
9
> <PUBCHEM_CACTVS_HBOND_DONOR>
6
> <PUBCHEM_CACTVS_ROTATABLE_BOND>
17
> <PUBCHEM_CACTVS_SUBSKEYS>
AAADcfB/vAAAAAAAAAAAAAAAAAAAAYAAAAA8YMEAAAAAAGAB1AAAHgAQCAAADTzhngY+gJLIFgCoAzV3VAKCgCAxAiAI2KH4bJgLdvbAsb2XcAhn9gHb6Af63KJOgAAAAAAQAAAAAAAAACAAAKAACQgAAA==
> <PUBCHEM_IUPAC_OPENEYE_NAME>
(2R,3R,4R,5R)-2,5-dibenzyloxy-3,4-dihydroxy-N-(2-hydroxyindan-1-yl)-N'-[(1S)-2-methyl-1-(2-pyridylmethylcarbamoyl)propyl]hexanediamide
> <PUBCHEM_IUPAC_CAS_NAME>
(2R,3R,4R,5R)-3,4-dihydroxy-N-(2-hydroxy-2,3-dihydro-1H-inden-1-yl)-N'-[(2S)-3-methyl-1-oxo-1-(2-pyridinylmethylamino)butan-2-yl]-2,5-bis(phenylmethoxy)hexanediamide
> <PUBCHEM_IUPAC_NAME_MARKUP>
(2<I>R</I>,3<I>R</I>,4<I>R</I>,5<I>R</I>)-3,4-dihydroxy-<I>N</I>-(2-hydroxy-2,3-dihydro-1<I>H</I>-inden-1-yl)-<I>N</I>&apos;-[(2<I>S</I>)-3-methyl-1-oxo-1-(pyridin-2-ylmethylamino)butan-2-yl]-2,5-bis(phenylmethoxy)hexanediamide
> <PUBCHEM_IUPAC_NAME>
(2R,3R,4R,5R)-3,4-dihydroxy-N-(2-hydroxy-2,3-dihydro-1H-inden-1-yl)-N'-[(2S)-3-methyl-1-oxo-1-(pyridin-2-ylmethylamino)butan-2-yl]-2,5-bis(phenylmethoxy)hexanediamide
> <PUBCHEM_IUPAC_SYSTEMATIC_NAME>
(2R,3R,4R,5R)-N-[(2S)-3-methyl-1-oxidanylidene-1-(pyridin-2-ylmethylamino)butan-2-yl]-3,4-bis(oxidanyl)-N'-(2-oxidanyl-2,3-dihydro-1H-inden-1-yl)-2,5-bis(phenylmethoxy)hexanediamide
> <PUBCHEM_IUPAC_TRADITIONAL_NAME>
(2R,3R,4R,5R)-2,5-dibenzoxy-3,4-dihydroxy-N-(2-hydroxyindan-1-yl)-N'-[(1S)-2-methyl-1-(2-pyridylmethylcarbamoyl)propyl]adipamide
> <PUBCHEM_IUPAC_INCHI>
InChI=1S/C40H46N4O8/c1-25(2)32(38(48)42-22-29-18-11-12-20-41-29)43-39(49)36(51-23-26-13-5-3-6-14-26)34(46)35(47)37(52-24-27-15-7-4-8-16-27)40(50)44-33-30-19-10-9-17-28(30)21-31(33)45/h3-20,25,31-37,45-47H,21-24H2,1-2H3,(H,42,48)(H,43,49)(H,44,50)/t31?,32-,33?,34+,35+,36+,37+/m0/s1
> <PUBCHEM_IUPAC_INCHIKEY>
ILZIUKFKJYHHGR-MDIHAHGRSA-N
> <PUBCHEM_XLOGP3_AA>
3.1
> <PUBCHEM_EXACT_MASS>
710.33156444
> <PUBCHEM_MOLECULAR_FORMULA>
C40H46N4O8
> <PUBCHEM_MOLECULAR_WEIGHT>
710.8
> <PUBCHEM_OPENEYE_CAN_SMILES>
CC(C)C(C(=O)NCC1=CC=CC=N1)NC(=O)C(C(C(C(C(=O)NC2C(CC3=CC=CC=C23)O)OCC4=CC=CC=C4)O)O)OCC5=CC=CC=C5
> <PUBCHEM_OPENEYE_ISO_SMILES>
CC(C)[C@@H](C(=O)NCC1=CC=CC=N1)NC(=O)[C@@H]([C@@H]([C@H]([C@H](C(=O)NC2C(CC3=CC=CC=C23)O)OCC4=CC=CC=C4)O)O)OCC5=CC=CC=C5
> <PUBCHEM_CACTVS_TPSA>
179
> <PUBCHEM_MONOISOTOPIC_WEIGHT>
710.33156444
> <PUBCHEM_TOTAL_CHARGE>
0
> <PUBCHEM_HEAVY_ATOM_COUNT>
52
> <PUBCHEM_ATOM_DEF_STEREO_COUNT>
5
> <PUBCHEM_ATOM_UDEF_STEREO_COUNT>
2
> <PUBCHEM_BOND_DEF_STEREO_COUNT>
0
> <PUBCHEM_BOND_UDEF_STEREO_COUNT>
0
> <PUBCHEM_ISOTOPIC_ATOM_COUNT>
0
> <PUBCHEM_COMPONENT_COUNT>
1
> <PUBCHEM_CACTVS_TAUTO_COUNT>
-1
> <PUBCHEM_COORDINATE_TYPE>
1
5
255
> <PUBCHEM_BONDANNOTATIONS>
14  1  3
27  10  5
12  44  8
12  51  8
16  17  8
16  20  8
17  22  8
18  2  6
20  25  8
22  26  8
25  26  8
19  3  5
35  37  8
35  38  8
36  40  8
36  41  8
37  42  8
38  43  8
24  4  6
40  46  8
41  47  8
42  45  8
43  45  8
44  49  8
46  48  8
47  48  8
49  50  8
23  5  5
50  52  8
51  52  8
13  9  3
$$$$
