507474
  -OEChem-10302200282D
 86 86  0     1  0  0  0  0  0999 V2000
    9.4651    0.0600    0.0000 S   0  0  0  0  0  0  0  0  0  0  0  0
    9.4651   -0.9400    0.0000 O   0  0  0  0  0  0  0  0  0  0  0  0
   10.3312   -1.4400    0.0000 O   0  0  0  0  0  0  0  0  0  0  0  0
   13.7953   -2.4400    0.0000 O   0  0  0  0  0  0  0  0  0  0  0  0
    6.0010    0.0600    0.0000 O   0  0  0  0  0  0  0  0  0  0  0  0
   12.9292   -5.9400    0.0000 O   0  0  0  0  0  0  0  0  0  0  0  0
   12.9292   -3.9400    0.0000 O   0  0  0  0  0  0  0  0  0  0  0  0
   11.1972   -5.9400    0.0000 O   0  0  0  0  0  0  0  0  0  0  0  0
    4.2690    6.0600    0.0000 O   0  0  0  0  0  0  0  0  0  0  0  0
    2.5369    5.0600    0.0000 O   0  0  0  0  0  0  0  0  0  0  0  0
    9.4651   -2.9400    0.0000 N   0  0  0  0  0  0  0  0  0  0  0  0
    7.7331   -0.9400    0.0000 N   0  0  0  0  0  0  0  0  0  0  0  0
   12.0632   -2.4400    0.0000 N   0  0  0  0  0  0  0  0  0  0  0  0
    6.8671    1.5600    0.0000 N   0  0  0  0  0  0  0  0  0  0  0  0
    7.7331   -2.9400    0.0000 C   0  0  0  0  0  0  0  0  0  0  0  0
    8.5991   -2.4400    0.0000 C   0  0  1  0  0  0  0  0  0  0  0  0
    7.7331   -3.9400    0.0000 C   0  0  0  0  0  0  0  0  0  0  0  0
    8.5991   -1.4400    0.0000 C   0  0  0  0  0  0  0  0  0  0  0  0
   11.1972   -2.9400    0.0000 C   0  0  2  0  0  0  0  0  0  0  0  0
    6.8671   -4.4400    0.0000 C   0  0  0  0  0  0  0  0  0  0  0  0
    8.5991   -4.4400    0.0000 C   0  0  0  0  0  0  0  0  0  0  0  0
   10.3312   -2.4400    0.0000 C   0  0  0  0  0  0  0  0  0  0  0  0
   11.1972   -3.9400    0.0000 C   0  0  0  0  0  0  0  0  0  0  0  0
    7.7331    0.0600    0.0000 C   0  0  1  0  0  0  0  0  0  0  0  0
   12.0632   -4.4400    0.0000 C   0  0  0  0  0  0  0  0  0  0  0  0
    8.5991    0.5600    0.0000 C   0  0  0  0  0  0  0  0  0  0  0  0
    6.8671    0.5600    0.0000 C   0  0  0  0  0  0  0  0  0  0  0  0
    6.0010    2.0600    0.0000 C   0  0  0  0  0  0  0  0  0  0  0  0
   12.9292   -2.9400    0.0000 C   0  0  0  0  0  0  0  0  0  0  0  0
    6.0010    3.0600    0.0000 C   0  0  0  0  0  0  0  0  0  0  0  0
   12.0632   -5.4400    0.0000 C   0  0  0  0  0  0  0  0  0  0  0  0
   15.5273   -2.4400    0.0000 C   0  0  0  0  0  0  0  0  0  0  0  0
   14.6613   -2.9400    0.0000 C   0  0  0  0  0  0  0  0  0  0  0  0
    5.1350    3.5600    0.0000 C   0  0  0  0  0  0  0  0  0  0  0  0
   16.3933   -2.9400    0.0000 C   0  0  0  0  0  0  0  0  0  0  0  0
   15.5273   -1.4400    0.0000 C   0  0  0  0  0  0  0  0  0  0  0  0
    5.1350    4.5600    0.0000 C   0  0  0  0  0  0  0  0  0  0  0  0
    4.2690    3.0600    0.0000 C   0  0  0  0  0  0  0  0  0  0  0  0
    4.2690    5.0600    0.0000 C   0  0  0  0  0  0  0  0  0  0  0  0
    3.4030    3.5600    0.0000 C   0  0  0  0  0  0  0  0  0  0  0  0
    3.4030    4.5600    0.0000 C   0  0  0  0  0  0  0  0  0  0  0  0
    5.1350    6.5600    0.0000 C   0  0  0  0  0  0  0  0  0  0  0  0
    7.5210   -2.3574    0.0000 H   0  0  0  0  0  0  0  0  0  0  0  0
    7.1225   -3.0477    0.0000 H   0  0  0  0  0  0  0  0  0  0  0  0
    8.5991   -3.0600    0.0000 H   0  0  0  0  0  0  0  0  0  0  0  0
    7.7331   -4.5600    0.0000 H   0  0  0  0  0  0  0  0  0  0  0  0
    9.4651   -3.5600    0.0000 H   0  0  0  0  0  0  0  0  0  0  0  0
   11.1972   -2.3200    0.0000 H   0  0  0  0  0  0  0  0  0  0  0  0
    6.5571   -3.9031    0.0000 H   0  0  0  0  0  0  0  0  0  0  0  0
    6.3301   -4.7500    0.0000 H   0  0  0  0  0  0  0  0  0  0  0  0
    7.1771   -4.9769    0.0000 H   0  0  0  0  0  0  0  0  0  0  0  0
    8.2891   -4.9769    0.0000 H   0  0  0  0  0  0  0  0  0  0  0  0
    9.1360   -4.7500    0.0000 H   0  0  0  0  0  0  0  0  0  0  0  0
    8.9091   -3.9031    0.0000 H   0  0  0  0  0  0  0  0  0  0  0  0
   10.5866   -3.8323    0.0000 H   0  0  0  0  0  0  0  0  0  0  0  0
   10.9851   -4.5226    0.0000 H   0  0  0  0  0  0  0  0  0  0  0  0
    7.1962   -1.2500    0.0000 H   0  0  0  0  0  0  0  0  0  0  0  0
    8.2700   -0.2500    0.0000 H   0  0  0  0  0  0  0  0  0  0  0  0
   12.0632   -1.8200    0.0000 H   0  0  0  0  0  0  0  0  0  0  0  0
   12.6738   -4.5477    0.0000 H   0  0  0  0  0  0  0  0  0  0  0  0
   12.2753   -3.8574    0.0000 H   0  0  0  0  0  0  0  0  0  0  0  0
    8.9976    1.0350    0.0000 H   0  0  0  0  0  0  0  0  0  0  0  0
    8.2006    1.0350    0.0000 H   0  0  0  0  0  0  0  0  0  0  0  0
    7.4040    1.8700    0.0000 H   0  0  0  0  0  0  0  0  0  0  0  0
    5.3905    2.1677    0.0000 H   0  0  0  0  0  0  0  0  0  0  0  0
    5.7890    1.4774    0.0000 H   0  0  0  0  0  0  0  0  0  0  0  0
    6.6116    2.9523    0.0000 H   0  0  0  0  0  0  0  0  0  0  0  0
    6.2131    3.6426    0.0000 H   0  0  0  0  0  0  0  0  0  0  0  0
   15.5273   -3.0600    0.0000 H   0  0  0  0  0  0  0  0  0  0  0  0
   14.2628   -3.4150    0.0000 H   0  0  0  0  0  0  0  0  0  0  0  0
   15.0598   -3.4150    0.0000 H   0  0  0  0  0  0  0  0  0  0  0  0
   10.0021    0.3700    0.0000 H   0  0  0  0  0  0  0  0  0  0  0  0
   16.0833   -3.4769    0.0000 H   0  0  0  0  0  0  0  0  0  0  0  0
   16.9303   -3.2500    0.0000 H   0  0  0  0  0  0  0  0  0  0  0  0
   16.7033   -2.4031    0.0000 H   0  0  0  0  0  0  0  0  0  0  0  0
   16.1473   -1.4400    0.0000 H   0  0  0  0  0  0  0  0  0  0  0  0
   15.5273   -0.8200    0.0000 H   0  0  0  0  0  0  0  0  0  0  0  0
   14.9073   -1.4400    0.0000 H   0  0  0  0  0  0  0  0  0  0  0  0
    5.6720    4.8700    0.0000 H   0  0  0  0  0  0  0  0  0  0  0  0
    4.2690    2.4400    0.0000 H   0  0  0  0  0  0  0  0  0  0  0  0
   12.9292   -6.5600    0.0000 H   0  0  0  0  0  0  0  0  0  0  0  0
    2.8660    3.2500    0.0000 H   0  0  0  0  0  0  0  0  0  0  0  0
    2.0000    4.7500    0.0000 H   0  0  0  0  0  0  0  0  0  0  0  0
    5.4450    6.0231    0.0000 H   0  0  0  0  0  0  0  0  0  0  0  0
    5.6720    6.8700    0.0000 H   0  0  0  0  0  0  0  0  0  0  0  0
    4.8250    7.0969    0.0000 H   0  0  0  0  0  0  0  0  0  0  0  0
  1 26  1  0  0  0  0
  1 72  1  0  0  0  0
  2 18  2  0  0  0  0
  3 22  2  0  0  0  0
  4 29  1  0  0  0  0
  4 33  1  0  0  0  0
  5 27  2  0  0  0  0
  6 31  1  0  0  0  0
  6 81  1  0  0  0  0
  7 29  2  0  0  0  0
  8 31  2  0  0  0  0
  9 39  1  0  0  0  0
  9 42  1  0  0  0  0
 10 41  1  0  0  0  0
 10 83  1  0  0  0  0
 16 11  1  1  0  0  0
 11 22  1  0  0  0  0
 11 47  1  0  0  0  0
 12 18  1  0  0  0  0
 24 12  1  6  0  0  0
 12 57  1  0  0  0  0
 19 13  1  1  0  0  0
 13 29  1  0  0  0  0
 13 59  1  0  0  0  0
 14 27  1  0  0  0  0
 14 28  1  0  0  0  0
 14 64  1  0  0  0  0
 15 16  1  0  0  0  0
 15 17  1  0  0  0  0
 15 43  1  0  0  0  0
 15 44  1  0  0  0  0
 16 18  1  0  0  0  0
 16 45  1  0  0  0  0
 17 20  1  0  0  0  0
 17 21  1  0  0  0  0
 17 46  1  0  0  0  0
 19 22  1  0  0  0  0
 19 23  1  0  0  0  0
 19 48  1  0  0  0  0
 20 49  1  0  0  0  0
 20 50  1  0  0  0  0
 20 51  1  0  0  0  0
 21 52  1  0  0  0  0
 21 53  1  0  0  0  0
 21 54  1  0  0  0  0
 23 25  1  0  0  0  0
 23 55  1  0  0  0  0
 23 56  1  0  0  0  0
 24 26  1  0  0  0  0
 24 27  1  0  0  0  0
 24 58  1  0  0  0  0
 25 31  1  0  0  0  0
 25 60  1  0  0  0  0
 25 61  1  0  0  0  0
 26 62  1  0  0  0  0
 26 63  1  0  0  0  0
 28 30  1  0  0  0  0
 28 65  1  0  0  0  0
 28 66  1  0  0  0  0
 30 34  1  0  0  0  0
 30 67  1  0  0  0  0
 30 68  1  0  0  0  0
 32 33  1  0  0  0  0
 32 35  1  0  0  0  0
 32 36  1  0  0  0  0
 32 69  1  0  0  0  0
 33 70  1  0  0  0  0
 33 71  1  0  0  0  0
 34 37  2  0  0  0  0
 34 38  1  0  0  0  0
 35 73  1  0  0  0  0
 35 74  1  0  0  0  0
 35 75  1  0  0  0  0
 36 76  1  0  0  0  0
 36 77  1  0  0  0  0
 36 78  1  0  0  0  0
 37 39  1  0  0  0  0
 37 79  1  0  0  0  0
 38 40  2  0  0  0  0
 38 80  1  0  0  0  0
 39 41  2  0  0  0  0
 40 41  1  0  0  0  0
 40 82  1  0  0  0  0
 42 84  1  0  0  0  0
 42 85  1  0  0  0  0
 42 86  1  0  0  0  0
M  END
> <PUBCHEM_COMPOUND_CID>
507474
> <PUBCHEM_COMPOUND_CANONICALIZED>
1
> <PUBCHEM_CACTVS_COMPLEXITY>
889
> <PUBCHEM_CACTVS_HBOND_ACCEPTOR>
10
> <PUBCHEM_CACTVS_HBOND_DONOR>
7
> <PUBCHEM_CACTVS_ROTATABLE_BOND>
19
> <PUBCHEM_CACTVS_SUBSKEYS>
AAADcfB7vABAAAAAAAAAAAAAAAAAAAAAAAAwAAAAAAAAAAABAAAAHgQQCAAADSzl2AayDoLABgSIAiHSGAACCAAgIAAIiIGOiIkNZjKGsTuccCMk1hGLuAe817IOIAABAAAAQABAAAIAAACAAAAAAAAAAA==
> <PUBCHEM_IUPAC_OPENEYE_NAME>
(4S)-5-[[(1S)-1-[[(1R)-2-[2-(4-hydroxy-3-methoxy-phenyl)ethylamino]-2-oxo-1-(sulfanylmethyl)ethyl]carbamoyl]-3-methyl-butyl]amino]-4-(isobutoxycarbonylamino)-5-oxo-pentanoic acid
> <PUBCHEM_IUPAC_CAS_NAME>
(4S)-5-[[(2S)-1-[[(2R)-1-[2-(4-hydroxy-3-methoxyphenyl)ethylamino]-3-mercapto-1-oxopropan-2-yl]amino]-4-methyl-1-oxopentan-2-yl]amino]-4-[[2-methylpropoxy(oxo)methyl]amino]-5-oxopentanoic acid
> <PUBCHEM_IUPAC_NAME_MARKUP>
(4<I>S</I>)-5-[[(2<I>S</I>)-1-[[(2<I>R</I>)-1-[2-(4-hydroxy-3-methoxyphenyl)ethylamino]-1-oxo-3-sulfanylpropan-2-yl]amino]-4-methyl-1-oxopentan-2-yl]amino]-4-(2-methylpropoxycarbonylamino)-5-oxopentanoic acid
> <PUBCHEM_IUPAC_NAME>
(4S)-5-[[(2S)-1-[[(2R)-1-[2-(4-hydroxy-3-methoxyphenyl)ethylamino]-1-oxo-3-sulfanylpropan-2-yl]amino]-4-methyl-1-oxopentan-2-yl]amino]-4-(2-methylpropoxycarbonylamino)-5-oxopentanoic acid
> <PUBCHEM_IUPAC_SYSTEMATIC_NAME>
(4S)-5-[[(2S)-1-[[(2R)-1-[2-(3-methoxy-4-oxidanyl-phenyl)ethylamino]-1-oxidanylidene-3-sulfanyl-propan-2-yl]amino]-4-methyl-1-oxidanylidene-pentan-2-yl]amino]-4-(2-methylpropoxycarbonylamino)-5-oxidanylidene-pentanoic acid
> <PUBCHEM_IUPAC_TRADITIONAL_NAME>
(4S)-5-[[(1S)-1-[[(1R)-2-(homovanillylamino)-2-keto-1-(mercaptomethyl)ethyl]carbamoyl]-3-methyl-butyl]amino]-4-(isobutoxycarbonylamino)-5-keto-valeric acid
> <PUBCHEM_IUPAC_INCHI>
InChI=1S/C28H44N4O9S/c1-16(2)12-20(30-26(37)19(7-9-24(34)35)32-28(39)41-14-17(3)4)27(38)31-21(15-42)25(36)29-11-10-18-6-8-22(33)23(13-18)40-5/h6,8,13,16-17,19-21,33,42H,7,9-12,14-15H2,1-5H3,(H,29,36)(H,30,37)(H,31,38)(H,32,39)(H,34,35)/t19-,20-,21-/m0/s1
> <PUBCHEM_IUPAC_INCHIKEY>
CTKHTUQGYKXYIN-ACRUOGEOSA-N
> <PUBCHEM_XLOGP3_AA>
2.8
> <PUBCHEM_EXACT_MASS>
612.28290017
> <PUBCHEM_MOLECULAR_FORMULA>
C28H44N4O9S
> <PUBCHEM_MOLECULAR_WEIGHT>
612.7
> <PUBCHEM_OPENEYE_CAN_SMILES>
CC(C)CC(C(=O)NC(CS)C(=O)NCCC1=CC(=C(C=C1)O)OC)NC(=O)C(CCC(=O)O)NC(=O)OCC(C)C
> <PUBCHEM_OPENEYE_ISO_SMILES>
CC(C)C[C@@H](C(=O)N[C@@H](CS)C(=O)NCCC1=CC(=C(C=C1)O)OC)NC(=O)[C@H](CCC(=O)O)NC(=O)OCC(C)C
> <PUBCHEM_CACTVS_TPSA>
193
> <PUBCHEM_MONOISOTOPIC_WEIGHT>
612.28290017
> <PUBCHEM_TOTAL_CHARGE>
0
> <PUBCHEM_HEAVY_ATOM_COUNT>
42
> <PUBCHEM_ATOM_DEF_STEREO_COUNT>
3
> <PUBCHEM_ATOM_UDEF_STEREO_COUNT>
0
> <PUBCHEM_BOND_DEF_STEREO_COUNT>
0
> <PUBCHEM_BOND_UDEF_STEREO_COUNT>
0
> <PUBCHEM_ISOTOPIC_ATOM_COUNT>
0
> <PUBCHEM_COMPONENT_COUNT>
1
> <PUBCHEM_CACTVS_TAUTO_COUNT>
-1
> <PUBCHEM_COORDINATE_TYPE>
1
5
255
> <PUBCHEM_BONDANNOTATIONS>
16  11  5
24  12  6
19  13  5
34  37  8
34  38  8
37  39  8
38  40  8
39  41  8
40  41  8
$$$$
