507486
  -OEChem-10302200282D
 91 92  0     1  0  0  0  0  0999 V2000
    7.2101    0.7027    0.0000 S   0  0  0  0  0  0  0  0  0  0  0  0
    8.1886    0.9089    0.0000 O   0  0  0  0  0  0  0  0  0  0  0  0
    8.4993    1.8595    0.0000 O   0  0  0  0  0  0  0  0  0  0  0  0
    7.9244   -2.6869    0.0000 O   0  0  0  0  0  0  0  0  0  0  0  0
    8.7634    5.4553    0.0000 O   0  0  0  0  0  0  0  0  0  0  0  0
   12.3668    5.3297    0.0000 O   0  0  0  0  0  0  0  0  0  0  0  0
   10.4097    4.9172    0.0000 O   0  0  0  0  0  0  0  0  0  0  0  0
    6.2781   -7.9728    0.0000 O   0  0  0  0  0  0  0  0  0  0  0  0
   12.7239    3.6349    0.0000 O   0  0  0  0  0  0  0  0  0  0  0  0
    6.6353   -6.2780    0.0000 O   0  0  0  0  0  0  0  0  0  0  0  0
   10.1456    1.3214    0.0000 N   0  0  0  0  0  0  0  0  0  0  0  0
    8.5458   -0.7859    0.0000 N   0  0  0  0  0  0  0  0  0  0  0  0
    4.6783   -5.8656    0.0000 N   0  0  0  0  0  0  0  0  0  0  0  0
    6.2781   -2.1488    0.0000 N   0  0  0  0  0  0  0  0  0  0  0  0
    9.1206    3.7605    0.0000 N   0  0  0  0  0  0  0  0  0  0  0  0
    9.8349    0.3709    0.0000 C   0  0  1  0  0  0  0  0  0  0  0  0
   10.5028   -0.3734    0.0000 C   0  0  0  0  0  0  0  0  0  0  0  0
   11.4813   -0.1672    0.0000 C   0  0  0  0  0  0  0  0  0  0  0  0
    8.8564    0.1646    0.0000 C   0  0  0  0  0  0  0  0  0  0  0  0
    9.7884    3.0162    0.0000 C   0  0  2  0  0  0  0  0  0  0  0  0
   12.1491   -0.9115    0.0000 C   0  0  0  0  0  0  0  0  0  0  0  0
   11.7920    0.7833    0.0000 C   0  0  0  0  0  0  0  0  0  0  0  0
    7.5673   -0.9921    0.0000 C   0  0  2  0  0  0  0  0  0  0  0  0
    9.4778    2.0657    0.0000 C   0  0  0  0  0  0  0  0  0  0  0  0
    4.6783   -4.2561    0.0000 C   0  0  0  0  0  0  0  0  0  0  0  0
    4.9889   -3.3056    0.0000 C   0  0  0  0  0  0  0  0  0  0  0  0
   10.7669    3.2224    0.0000 C   0  0  0  0  0  0  0  0  0  0  0  0
    3.7320   -4.5608    0.0000 C   0  0  0  0  0  0  0  0  0  0  0  0
    3.7320   -5.5608    0.0000 C   0  0  0  0  0  0  0  0  0  0  0  0
    5.9674   -3.0994    0.0000 C   0  0  0  0  0  0  0  0  0  0  0  0
    5.2619   -5.0608    0.0000 C   0  0  0  0  0  0  0  0  0  0  0  0
    7.2566   -1.9426    0.0000 C   0  0  0  0  0  0  0  0  0  0  0  0
    6.8994   -0.2478    0.0000 C   0  0  0  0  0  0  0  0  0  0  0  0
   11.0776    4.1730    0.0000 C   0  0  0  0  0  0  0  0  0  0  0  0
    4.9889   -6.8161    0.0000 C   0  0  0  0  0  0  0  0  0  0  0  0
    2.8660   -4.0608    0.0000 C   0  0  0  0  0  0  0  0  0  0  0  0
    2.8660   -6.0608    0.0000 C   0  0  0  0  0  0  0  0  0  0  0  0
    2.0000   -4.5608    0.0000 C   0  0  0  0  0  0  0  0  0  0  0  0
    2.0000   -5.5608    0.0000 C   0  0  0  0  0  0  0  0  0  0  0  0
    9.4312    4.7110    0.0000 C   0  0  0  0  0  0  0  0  0  0  0  0
   12.0561    4.3792    0.0000 C   0  0  0  0  0  0  0  0  0  0  0  0
    5.9674   -7.0223    0.0000 C   0  0  0  0  0  0  0  0  0  0  0  0
    8.4062    7.1502    0.0000 C   0  0  0  0  0  0  0  0  0  0  0  0
    9.0741    6.4058    0.0000 C   0  0  0  0  0  0  0  0  0  0  0  0
    8.7169    8.1007    0.0000 C   0  0  0  0  0  0  0  0  0  0  0  0
    7.4277    6.9439    0.0000 C   0  0  0  0  0  0  0  0  0  0  0  0
    9.4209    0.8323    0.0000 H   0  0  0  0  0  0  0  0  0  0  0  0
    9.9764   -0.7011    0.0000 H   0  0  0  0  0  0  0  0  0  0  0  0
   10.7340   -0.9487    0.0000 H   0  0  0  0  0  0  0  0  0  0  0  0
   11.0672    0.2942    0.0000 H   0  0  0  0  0  0  0  0  0  0  0  0
   10.7523    1.4492    0.0000 H   0  0  0  0  0  0  0  0  0  0  0  0
    9.9810    3.6055    0.0000 H   0  0  0  0  0  0  0  0  0  0  0  0
   11.6877   -1.3256    0.0000 H   0  0  0  0  0  0  0  0  0  0  0  0
   12.5632   -1.3730    0.0000 H   0  0  0  0  0  0  0  0  0  0  0  0
   12.6106   -0.4975    0.0000 H   0  0  0  0  0  0  0  0  0  0  0  0
   12.3813    0.5907    0.0000 H   0  0  0  0  0  0  0  0  0  0  0  0
   11.9846    1.3726    0.0000 H   0  0  0  0  0  0  0  0  0  0  0  0
   11.2026    0.9759    0.0000 H   0  0  0  0  0  0  0  0  0  0  0  0
    7.9813   -1.4536    0.0000 H   0  0  0  0  0  0  0  0  0  0  0  0
    8.9598   -1.2473    0.0000 H   0  0  0  0  0  0  0  0  0  0  0  0
    4.9684   -2.6859    0.0000 H   0  0  0  0  0  0  0  0  0  0  0  0
    4.3751   -3.2182    0.0000 H   0  0  0  0  0  0  0  0  0  0  0  0
   10.7875    2.6028    0.0000 H   0  0  0  0  0  0  0  0  0  0  0  0
   11.3807    3.1351    0.0000 H   0  0  0  0  0  0  0  0  0  0  0  0
    5.9880   -3.7190    0.0000 H   0  0  0  0  0  0  0  0  0  0  0  0
    6.5812   -3.1867    0.0000 H   0  0  0  0  0  0  0  0  0  0  0  0
    5.8819   -5.0608    0.0000 H   0  0  0  0  0  0  0  0  0  0  0  0
    6.3525    0.0442    0.0000 H   0  0  0  0  0  0  0  0  0  0  0  0
    6.5169   -0.7357    0.0000 H   0  0  0  0  0  0  0  0  0  0  0  0
    5.8640   -1.6874    0.0000 H   0  0  0  0  0  0  0  0  0  0  0  0
    8.5139    3.6326    0.0000 H   0  0  0  0  0  0  0  0  0  0  0  0
   11.0570    4.7926    0.0000 H   0  0  0  0  0  0  0  0  0  0  0  0
   10.4638    4.2603    0.0000 H   0  0  0  0  0  0  0  0  0  0  0  0
    4.3751   -6.9034    0.0000 H   0  0  0  0  0  0  0  0  0  0  0  0
    4.9684   -7.4357    0.0000 H   0  0  0  0  0  0  0  0  0  0  0  0
    2.8660   -3.4408    0.0000 H   0  0  0  0  0  0  0  0  0  0  0  0
    2.8660   -6.6808    0.0000 H   0  0  0  0  0  0  0  0  0  0  0  0
    1.4631   -4.2508    0.0000 H   0  0  0  0  0  0  0  0  0  0  0  0
    1.4631   -5.8708    0.0000 H   0  0  0  0  0  0  0  0  0  0  0  0
    8.2136    6.5608    0.0000 H   0  0  0  0  0  0  0  0  0  0  0  0
    9.6210    6.1138    0.0000 H   0  0  0  0  0  0  0  0  0  0  0  0
    9.4566    6.8938    0.0000 H   0  0  0  0  0  0  0  0  0  0  0  0
    6.7960    1.1642    0.0000 H   0  0  0  0  0  0  0  0  0  0  0  0
    9.3062    7.9081    0.0000 H   0  0  0  0  0  0  0  0  0  0  0  0
    8.9095    8.6900    0.0000 H   0  0  0  0  0  0  0  0  0  0  0  0
    8.1276    8.2933    0.0000 H   0  0  0  0  0  0  0  0  0  0  0  0
    7.2999    7.5506    0.0000 H   0  0  0  0  0  0  0  0  0  0  0  0
    6.8210    6.8161    0.0000 H   0  0  0  0  0  0  0  0  0  0  0  0
    7.5556    6.3373    0.0000 H   0  0  0  0  0  0  0  0  0  0  0  0
   12.9734    5.4575    0.0000 H   0  0  0  0  0  0  0  0  0  0  0  0
    6.8848   -8.1007    0.0000 H   0  0  0  0  0  0  0  0  0  0  0  0
  1 33  1  0  0  0  0
  1 83  1  0  0  0  0
  2 19  2  0  0  0  0
  3 24  2  0  0  0  0
  4 32  2  0  0  0  0
  5 40  1  0  0  0  0
  5 44  1  0  0  0  0
  6 41  1  0  0  0  0
  6 90  1  0  0  0  0
  7 40  2  0  0  0  0
  8 42  1  0  0  0  0
  8 91  1  0  0  0  0
  9 41  2  0  0  0  0
 10 42  2  0  0  0  0
 16 11  1  1  0  0  0
 11 24  1  0  0  0  0
 11 51  1  0  0  0  0
 12 19  1  0  0  0  0
 23 12  1  6  0  0  0
 12 60  1  0  0  0  0
 13 29  1  0  0  0  0
 13 31  1  0  0  0  0
 13 35  1  0  0  0  0
 14 30  1  0  0  0  0
 14 32  1  0  0  0  0
 14 70  1  0  0  0  0
 20 15  1  1  0  0  0
 15 40  1  0  0  0  0
 15 71  1  0  0  0  0
 16 17  1  0  0  0  0
 16 19  1  0  0  0  0
 16 47  1  0  0  0  0
 17 18  1  0  0  0  0
 17 48  1  0  0  0  0
 17 49  1  0  0  0  0
 18 21  1  0  0  0  0
 18 22  1  0  0  0  0
 18 50  1  0  0  0  0
 20 24  1  0  0  0  0
 20 27  1  0  0  0  0
 20 52  1  0  0  0  0
 21 53  1  0  0  0  0
 21 54  1  0  0  0  0
 21 55  1  0  0  0  0
 22 56  1  0  0  0  0
 22 57  1  0  0  0  0
 22 58  1  0  0  0  0
 23 32  1  0  0  0  0
 23 33  1  0  0  0  0
 23 59  1  0  0  0  0
 25 26  1  0  0  0  0
 25 28  1  0  0  0  0
 25 31  2  0  0  0  0
 26 30  1  0  0  0  0
 26 61  1  0  0  0  0
 26 62  1  0  0  0  0
 27 34  1  0  0  0  0
 27 63  1  0  0  0  0
 27 64  1  0  0  0  0
 28 29  1  0  0  0  0
 28 36  2  0  0  0  0
 29 37  2  0  0  0  0
 30 65  1  0  0  0  0
 30 66  1  0  0  0  0
 31 67  1  0  0  0  0
 33 68  1  0  0  0  0
 33 69  1  0  0  0  0
 34 41  1  0  0  0  0
 34 72  1  0  0  0  0
 34 73  1  0  0  0  0
 35 42  1  0  0  0  0
 35 74  1  0  0  0  0
 35 75  1  0  0  0  0
 36 38  1  0  0  0  0
 36 76  1  0  0  0  0
 37 39  1  0  0  0  0
 37 77  1  0  0  0  0
 38 39  2  0  0  0  0
 38 78  1  0  0  0  0
 39 79  1  0  0  0  0
 43 44  1  0  0  0  0
 43 45  1  0  0  0  0
 43 46  1  0  0  0  0
 43 80  1  0  0  0  0
 44 81  1  0  0  0  0
 44 82  1  0  0  0  0
 45 84  1  0  0  0  0
 45 85  1  0  0  0  0
 45 86  1  0  0  0  0
 46 87  1  0  0  0  0
 46 88  1  0  0  0  0
 46 89  1  0  0  0  0
M  END
> <PUBCHEM_COMPOUND_CID>
507486
> <PUBCHEM_COMPOUND_CANONICALIZED>
1
> <PUBCHEM_CACTVS_COMPLEXITY>
1060
> <PUBCHEM_CACTVS_HBOND_ACCEPTOR>
10
> <PUBCHEM_CACTVS_HBOND_DONOR>
7
> <PUBCHEM_CACTVS_ROTATABLE_BOND>
20
> <PUBCHEM_CACTVS_SUBSKEYS>
AAADcfB7vABAAAAAAAAAAAAAAAAAAWAAAAAwAAAAAAAAAFgB8AAAHgQQCAAADSjl3ga+yPPMFgSoAzX3XACCgCAxAiAI2KG4ZJkKYPLAkbGcYAhklgDYyAe8l8IOgAAAAAACAAAAAAAAAAQAAAAAAAAAAA==
> <PUBCHEM_IUPAC_OPENEYE_NAME>
(4S)-5-[[(1S)-1-[[(1R)-2-[2-[1-(carboxymethyl)indol-3-yl]ethylamino]-2-oxo-1-(sulfanylmethyl)ethyl]carbamoyl]-3-methyl-butyl]amino]-4-(isobutoxycarbonylamino)-5-oxo-pentanoic acid
> <PUBCHEM_IUPAC_CAS_NAME>
(4S)-5-[[(2S)-1-[[(2R)-1-[2-[1-(carboxymethyl)-3-indolyl]ethylamino]-3-mercapto-1-oxopropan-2-yl]amino]-4-methyl-1-oxopentan-2-yl]amino]-4-[[2-methylpropoxy(oxo)methyl]amino]-5-oxopentanoic acid
> <PUBCHEM_IUPAC_NAME_MARKUP>
(4<I>S</I>)-5-[[(2<I>S</I>)-1-[[(2<I>R</I>)-1-[2-[1-(carboxymethyl)indol-3-yl]ethylamino]-1-oxo-3-sulfanylpropan-2-yl]amino]-4-methyl-1-oxopentan-2-yl]amino]-4-(2-methylpropoxycarbonylamino)-5-oxopentanoic acid
> <PUBCHEM_IUPAC_NAME>
(4S)-5-[[(2S)-1-[[(2R)-1-[2-[1-(carboxymethyl)indol-3-yl]ethylamino]-1-oxo-3-sulfanylpropan-2-yl]amino]-4-methyl-1-oxopentan-2-yl]amino]-4-(2-methylpropoxycarbonylamino)-5-oxopentanoic acid
> <PUBCHEM_IUPAC_SYSTEMATIC_NAME>
(4S)-5-[[(2S)-1-[[(2R)-1-[2-[1-(2-hydroxy-2-oxoethyl)indol-3-yl]ethylamino]-1-oxidanylidene-3-sulfanyl-propan-2-yl]amino]-4-methyl-1-oxidanylidene-pentan-2-yl]amino]-4-(2-methylpropoxycarbonylamino)-5-oxidanylidene-pentanoic acid
> <PUBCHEM_IUPAC_TRADITIONAL_NAME>
(4S)-5-[[(1S)-1-[[(1R)-2-[2-[1-(carboxymethyl)indol-3-yl]ethylamino]-2-keto-1-(mercaptomethyl)ethyl]carbamoyl]-3-methyl-butyl]amino]-4-(isobutoxycarbonylamino)-5-keto-valeric acid
> <PUBCHEM_IUPAC_INCHI>
InChI=1S/C31H45N5O9S/c1-18(2)13-23(33-29(42)22(9-10-26(37)38)35-31(44)45-16-19(3)4)30(43)34-24(17-46)28(41)32-12-11-20-14-36(15-27(39)40)25-8-6-5-7-21(20)25/h5-8,14,18-19,22-24,46H,9-13,15-17H2,1-4H3,(H,32,41)(H,33,42)(H,34,43)(H,35,44)(H,37,38)(H,39,40)/t22-,23-,24-/m0/s1
> <PUBCHEM_IUPAC_INCHIKEY>
AUPQLTUPQCXJIK-HJOGWXRNSA-N
> <PUBCHEM_XLOGP3_AA>
3
> <PUBCHEM_EXACT_MASS>
663.29379920
> <PUBCHEM_MOLECULAR_FORMULA>
C31H45N5O9S
> <PUBCHEM_MOLECULAR_WEIGHT>
663.8
> <PUBCHEM_OPENEYE_CAN_SMILES>
CC(C)CC(C(=O)NC(CS)C(=O)NCCC1=CN(C2=CC=CC=C21)CC(=O)O)NC(=O)C(CCC(=O)O)NC(=O)OCC(C)C
> <PUBCHEM_OPENEYE_ISO_SMILES>
CC(C)C[C@@H](C(=O)N[C@@H](CS)C(=O)NCCC1=CN(C2=CC=CC=C21)CC(=O)O)NC(=O)[C@H](CCC(=O)O)NC(=O)OCC(C)C
> <PUBCHEM_CACTVS_TPSA>
206
> <PUBCHEM_MONOISOTOPIC_WEIGHT>
663.29379920
> <PUBCHEM_TOTAL_CHARGE>
0
> <PUBCHEM_HEAVY_ATOM_COUNT>
46
> <PUBCHEM_ATOM_DEF_STEREO_COUNT>
3
> <PUBCHEM_ATOM_UDEF_STEREO_COUNT>
0
> <PUBCHEM_BOND_DEF_STEREO_COUNT>
0
> <PUBCHEM_BOND_UDEF_STEREO_COUNT>
0
> <PUBCHEM_ISOTOPIC_ATOM_COUNT>
0
> <PUBCHEM_COMPONENT_COUNT>
1
> <PUBCHEM_CACTVS_TAUTO_COUNT>
-1
> <PUBCHEM_COORDINATE_TYPE>
1
5
255
> <PUBCHEM_BONDANNOTATIONS>
16  11  5
23  12  6
13  29  8
13  31  8
20  15  5
25  28  8
25  31  8
28  29  8
28  36  8
29  37  8
36  38  8
37  39  8
38  39  8
$$$$
