507471
  -OEChem-10302200282D
 81 81  0     1  0  0  0  0  0999 V2000
    2.0000   -7.0000    0.0000 Cl  0  0  0  0  0  0  0  0  0  0  0  0
    3.7320   -8.0000    0.0000 Cl  0  0  0  0  0  0  0  0  0  0  0  0
    4.5981    0.5000    0.0000 S   0  0  0  0  0  0  0  0  0  0  0  0
    5.4641    1.0000    0.0000 O   0  0  0  0  0  0  0  0  0  0  0  0
    5.4641    2.0000    0.0000 O   0  0  0  0  0  0  0  0  0  0  0  0
    4.5981    5.5000    0.0000 O   0  0  0  0  0  0  0  0  0  0  0  0
    6.3301   -2.5000    0.0000 O   0  0  0  0  0  0  0  0  0  0  0  0
    8.0622    6.5000    0.0000 O   0  0  0  0  0  0  0  0  0  0  0  0
    6.3301    5.5000    0.0000 O   0  0  0  0  0  0  0  0  0  0  0  0
    8.9282    5.0000    0.0000 O   0  0  0  0  0  0  0  0  0  0  0  0
    7.1962    2.0000    0.0000 N   0  0  0  0  0  0  0  0  0  0  0  0
    6.3301   -0.5000    0.0000 N   0  0  0  0  0  0  0  0  0  0  0  0
    5.4641    4.0000    0.0000 N   0  0  0  0  0  0  0  0  0  0  0  0
    4.5981   -2.5000    0.0000 N   0  0  0  0  0  0  0  0  0  0  0  0
    8.0622    0.5000    0.0000 C   0  0  0  0  0  0  0  0  0  0  0  0
    7.1962    1.0000    0.0000 C   0  0  1  0  0  0  0  0  0  0  0  0
    8.9282    1.0000    0.0000 C   0  0  0  0  0  0  0  0  0  0  0  0
    6.3301    0.5000    0.0000 C   0  0  0  0  0  0  0  0  0  0  0  0
    6.3301    3.5000    0.0000 C   0  0  2  0  0  0  0  0  0  0  0  0
    9.7942    0.5000    0.0000 C   0  0  0  0  0  0  0  0  0  0  0  0
    8.9282    2.0000    0.0000 C   0  0  0  0  0  0  0  0  0  0  0  0
    6.3301    2.5000    0.0000 C   0  0  0  0  0  0  0  0  0  0  0  0
    7.1962    4.0000    0.0000 C   0  0  0  0  0  0  0  0  0  0  0  0
    5.4641   -1.0000    0.0000 C   0  0  1  0  0  0  0  0  0  0  0  0
    7.1962    5.0000    0.0000 C   0  0  0  0  0  0  0  0  0  0  0  0
    4.5981   -0.5000    0.0000 C   0  0  0  0  0  0  0  0  0  0  0  0
    5.4641   -2.0000    0.0000 C   0  0  0  0  0  0  0  0  0  0  0  0
    5.4641    5.0000    0.0000 C   0  0  0  0  0  0  0  0  0  0  0  0
    4.5981   -3.5000    0.0000 C   0  0  0  0  0  0  0  0  0  0  0  0
    8.0622    5.5000    0.0000 C   0  0  0  0  0  0  0  0  0  0  0  0
    3.7320    7.0000    0.0000 C   0  0  0  0  0  0  0  0  0  0  0  0
    3.7320   -4.0000    0.0000 C   0  0  0  0  0  0  0  0  0  0  0  0
    4.5981    6.5000    0.0000 C   0  0  0  0  0  0  0  0  0  0  0  0
    3.7320   -5.0000    0.0000 C   0  0  0  0  0  0  0  0  0  0  0  0
    3.7320    8.0000    0.0000 C   0  0  0  0  0  0  0  0  0  0  0  0
    2.8660    6.5000    0.0000 C   0  0  0  0  0  0  0  0  0  0  0  0
    2.8660   -5.5000    0.0000 C   0  0  0  0  0  0  0  0  0  0  0  0
    4.5981   -5.5000    0.0000 C   0  0  0  0  0  0  0  0  0  0  0  0
    2.8660   -6.5000    0.0000 C   0  0  0  0  0  0  0  0  0  0  0  0
    4.5981   -6.5000    0.0000 C   0  0  0  0  0  0  0  0  0  0  0  0
    3.7320   -7.0000    0.0000 C   0  0  0  0  0  0  0  0  0  0  0  0
    7.6636    0.0251    0.0000 H   0  0  0  0  0  0  0  0  0  0  0  0
    8.4607    0.0251    0.0000 H   0  0  0  0  0  0  0  0  0  0  0  0
    6.6592    1.3100    0.0000 H   0  0  0  0  0  0  0  0  0  0  0  0
    9.4651    1.3100    0.0000 H   0  0  0  0  0  0  0  0  0  0  0  0
    7.7331    2.3100    0.0000 H   0  0  0  0  0  0  0  0  0  0  0  0
    5.7932    3.1900    0.0000 H   0  0  0  0  0  0  0  0  0  0  0  0
    9.4842   -0.0369    0.0000 H   0  0  0  0  0  0  0  0  0  0  0  0
   10.3312    0.1900    0.0000 H   0  0  0  0  0  0  0  0  0  0  0  0
   10.1042    1.0369    0.0000 H   0  0  0  0  0  0  0  0  0  0  0  0
    9.5482    2.0000    0.0000 H   0  0  0  0  0  0  0  0  0  0  0  0
    8.9282    2.6200    0.0000 H   0  0  0  0  0  0  0  0  0  0  0  0
    8.3082    2.0000    0.0000 H   0  0  0  0  0  0  0  0  0  0  0  0
    7.4082    3.4174    0.0000 H   0  0  0  0  0  0  0  0  0  0  0  0
    7.8067    4.1077    0.0000 H   0  0  0  0  0  0  0  0  0  0  0  0
    6.8671   -0.8100    0.0000 H   0  0  0  0  0  0  0  0  0  0  0  0
    5.4641   -0.3800    0.0000 H   0  0  0  0  0  0  0  0  0  0  0  0
    4.9272    3.6900    0.0000 H   0  0  0  0  0  0  0  0  0  0  0  0
    6.9841    5.5826    0.0000 H   0  0  0  0  0  0  0  0  0  0  0  0
    6.5856    4.8923    0.0000 H   0  0  0  0  0  0  0  0  0  0  0  0
    3.9875   -0.3923    0.0000 H   0  0  0  0  0  0  0  0  0  0  0  0
    4.3860   -1.0826    0.0000 H   0  0  0  0  0  0  0  0  0  0  0  0
    4.0611   -2.1900    0.0000 H   0  0  0  0  0  0  0  0  0  0  0  0
    4.8101   -4.0826    0.0000 H   0  0  0  0  0  0  0  0  0  0  0  0
    5.2087   -3.3923    0.0000 H   0  0  0  0  0  0  0  0  0  0  0  0
    3.7320    6.3800    0.0000 H   0  0  0  0  0  0  0  0  0  0  0  0
    3.5200   -3.4174    0.0000 H   0  0  0  0  0  0  0  0  0  0  0  0
    3.1215   -4.1077    0.0000 H   0  0  0  0  0  0  0  0  0  0  0  0
    5.2087    6.3923    0.0000 H   0  0  0  0  0  0  0  0  0  0  0  0
    4.8101    7.0826    0.0000 H   0  0  0  0  0  0  0  0  0  0  0  0
    4.0611    0.8100    0.0000 H   0  0  0  0  0  0  0  0  0  0  0  0
    4.3520    8.0000    0.0000 H   0  0  0  0  0  0  0  0  0  0  0  0
    3.7320    8.6200    0.0000 H   0  0  0  0  0  0  0  0  0  0  0  0
    3.1120    8.0000    0.0000 H   0  0  0  0  0  0  0  0  0  0  0  0
    2.5560    7.0369    0.0000 H   0  0  0  0  0  0  0  0  0  0  0  0
    2.3291    6.1900    0.0000 H   0  0  0  0  0  0  0  0  0  0  0  0
    3.1760    5.9631    0.0000 H   0  0  0  0  0  0  0  0  0  0  0  0
    2.3291   -5.1900    0.0000 H   0  0  0  0  0  0  0  0  0  0  0  0
    5.1350   -5.1900    0.0000 H   0  0  0  0  0  0  0  0  0  0  0  0
    8.5991    6.8100    0.0000 H   0  0  0  0  0  0  0  0  0  0  0  0
    5.1350   -6.8100    0.0000 H   0  0  0  0  0  0  0  0  0  0  0  0
  1 39  1  0  0  0  0
  2 41  1  0  0  0  0
  3 26  1  0  0  0  0
  3 71  1  0  0  0  0
  4 18  2  0  0  0  0
  5 22  2  0  0  0  0
  6 28  1  0  0  0  0
  6 33  1  0  0  0  0
  7 27  2  0  0  0  0
  8 30  1  0  0  0  0
  8 80  1  0  0  0  0
  9 28  2  0  0  0  0
 10 30  2  0  0  0  0
 16 11  1  1  0  0  0
 11 22  1  0  0  0  0
 11 46  1  0  0  0  0
 12 18  1  0  0  0  0
 24 12  1  6  0  0  0
 12 56  1  0  0  0  0
 19 13  1  1  0  0  0
 13 28  1  0  0  0  0
 13 58  1  0  0  0  0
 14 27  1  0  0  0  0
 14 29  1  0  0  0  0
 14 63  1  0  0  0  0
 15 16  1  0  0  0  0
 15 17  1  0  0  0  0
 15 42  1  0  0  0  0
 15 43  1  0  0  0  0
 16 18  1  0  0  0  0
 16 44  1  0  0  0  0
 17 20  1  0  0  0  0
 17 21  1  0  0  0  0
 17 45  1  0  0  0  0
 19 22  1  0  0  0  0
 19 23  1  0  0  0  0
 19 47  1  0  0  0  0
 20 48  1  0  0  0  0
 20 49  1  0  0  0  0
 20 50  1  0  0  0  0
 21 51  1  0  0  0  0
 21 52  1  0  0  0  0
 21 53  1  0  0  0  0
 23 25  1  0  0  0  0
 23 54  1  0  0  0  0
 23 55  1  0  0  0  0
 24 26  1  0  0  0  0
 24 27  1  0  0  0  0
 24 57  1  0  0  0  0
 25 30  1  0  0  0  0
 25 59  1  0  0  0  0
 25 60  1  0  0  0  0
 26 61  1  0  0  0  0
 26 62  1  0  0  0  0
 29 32  1  0  0  0  0
 29 64  1  0  0  0  0
 29 65  1  0  0  0  0
 31 33  1  0  0  0  0
 31 35  1  0  0  0  0
 31 36  1  0  0  0  0
 31 66  1  0  0  0  0
 32 34  1  0  0  0  0
 32 67  1  0  0  0  0
 32 68  1  0  0  0  0
 33 69  1  0  0  0  0
 33 70  1  0  0  0  0
 34 37  2  0  0  0  0
 34 38  1  0  0  0  0
 35 72  1  0  0  0  0
 35 73  1  0  0  0  0
 35 74  1  0  0  0  0
 36 75  1  0  0  0  0
 36 76  1  0  0  0  0
 36 77  1  0  0  0  0
 37 39  1  0  0  0  0
 37 78  1  0  0  0  0
 38 40  2  0  0  0  0
 38 79  1  0  0  0  0
 39 41  2  0  0  0  0
 40 41  1  0  0  0  0
 40 81  1  0  0  0  0
M  END
> <PUBCHEM_COMPOUND_CID>
507471
> <PUBCHEM_COMPOUND_CANONICALIZED>
1
> <PUBCHEM_CACTVS_COMPLEXITY>
881
> <PUBCHEM_CACTVS_HBOND_ACCEPTOR>
8
> <PUBCHEM_CACTVS_HBOND_DONOR>
6
> <PUBCHEM_CACTVS_ROTATABLE_BOND>
18
> <PUBCHEM_CACTVS_SUBSKEYS>
AAADcfB7uABGAAAAAAAAAAAAAAAAAAAAAAAwAAAAAAAAAAABAAAAHgYQCAAADSrl2CayCILABgSIAiHSGAACAAAgBQAIisGIAokIYDKBkzGcYAAklgCIiAe8l4IOBAAAIAAAAAQIAABAAAAACAAAAAAAAA==
> <PUBCHEM_IUPAC_OPENEYE_NAME>
(4S)-5-[[(1S)-1-[[(1R)-2-[2-(3,4-dichlorophenyl)ethylamino]-2-oxo-1-(sulfanylmethyl)ethyl]carbamoyl]-3-methyl-butyl]amino]-4-(isobutoxycarbonylamino)-5-oxo-pentanoic acid
> <PUBCHEM_IUPAC_CAS_NAME>
(4S)-5-[[(2S)-1-[[(2R)-1-[2-(3,4-dichlorophenyl)ethylamino]-3-mercapto-1-oxopropan-2-yl]amino]-4-methyl-1-oxopentan-2-yl]amino]-4-[[2-methylpropoxy(oxo)methyl]amino]-5-oxopentanoic acid
> <PUBCHEM_IUPAC_NAME_MARKUP>
(4<I>S</I>)-5-[[(2<I>S</I>)-1-[[(2<I>R</I>)-1-[2-(3,4-dichlorophenyl)ethylamino]-1-oxo-3-sulfanylpropan-2-yl]amino]-4-methyl-1-oxopentan-2-yl]amino]-4-(2-methylpropoxycarbonylamino)-5-oxopentanoic acid
> <PUBCHEM_IUPAC_NAME>
(4S)-5-[[(2S)-1-[[(2R)-1-[2-(3,4-dichlorophenyl)ethylamino]-1-oxo-3-sulfanylpropan-2-yl]amino]-4-methyl-1-oxopentan-2-yl]amino]-4-(2-methylpropoxycarbonylamino)-5-oxopentanoic acid
> <PUBCHEM_IUPAC_SYSTEMATIC_NAME>
(4S)-5-[[(2S)-1-[[(2R)-1-[2-(3,4-dichlorophenyl)ethylamino]-1-oxidanylidene-3-sulfanyl-propan-2-yl]amino]-4-methyl-1-oxidanylidene-pentan-2-yl]amino]-4-(2-methylpropoxycarbonylamino)-5-oxidanylidene-pentanoic acid
> <PUBCHEM_IUPAC_TRADITIONAL_NAME>
(4S)-5-[[(1S)-1-[[(1R)-2-[2-(3,4-dichlorophenyl)ethylamino]-2-keto-1-(mercaptomethyl)ethyl]carbamoyl]-3-methyl-butyl]amino]-4-(isobutoxycarbonylamino)-5-keto-valeric acid
> <PUBCHEM_IUPAC_INCHI>
InChI=1S/C27H40Cl2N4O7S/c1-15(2)11-21(31-25(37)20(7-8-23(34)35)33-27(39)40-13-16(3)4)26(38)32-22(14-41)24(36)30-10-9-17-5-6-18(28)19(29)12-17/h5-6,12,15-16,20-22,41H,7-11,13-14H2,1-4H3,(H,30,36)(H,31,37)(H,32,38)(H,33,39)(H,34,35)/t20-,21-,22-/m0/s1
> <PUBCHEM_IUPAC_INCHIKEY>
NMGFAOSQJCHJOG-FKBYEOEOSA-N
> <PUBCHEM_XLOGP3_AA>
4.5
> <PUBCHEM_EXACT_MASS>
634.1994762
> <PUBCHEM_MOLECULAR_FORMULA>
C27H40Cl2N4O7S
> <PUBCHEM_MOLECULAR_WEIGHT>
635.6
> <PUBCHEM_OPENEYE_CAN_SMILES>
CC(C)CC(C(=O)NC(CS)C(=O)NCCC1=CC(=C(C=C1)Cl)Cl)NC(=O)C(CCC(=O)O)NC(=O)OCC(C)C
> <PUBCHEM_OPENEYE_ISO_SMILES>
CC(C)C[C@@H](C(=O)N[C@@H](CS)C(=O)NCCC1=CC(=C(C=C1)Cl)Cl)NC(=O)[C@H](CCC(=O)O)NC(=O)OCC(C)C
> <PUBCHEM_CACTVS_TPSA>
164
> <PUBCHEM_MONOISOTOPIC_WEIGHT>
634.1994762
> <PUBCHEM_TOTAL_CHARGE>
0
> <PUBCHEM_HEAVY_ATOM_COUNT>
41
> <PUBCHEM_ATOM_DEF_STEREO_COUNT>
3
> <PUBCHEM_ATOM_UDEF_STEREO_COUNT>
0
> <PUBCHEM_BOND_DEF_STEREO_COUNT>
0
> <PUBCHEM_BOND_UDEF_STEREO_COUNT>
0
> <PUBCHEM_ISOTOPIC_ATOM_COUNT>
0
> <PUBCHEM_COMPONENT_COUNT>
1
> <PUBCHEM_CACTVS_TAUTO_COUNT>
-1
> <PUBCHEM_COORDINATE_TYPE>
1
5
255
> <PUBCHEM_BONDANNOTATIONS>
16  11  5
24  12  6
19  13  5
34  37  8
34  38  8
37  39  8
38  40  8
39  41  8
40  41  8
$$$$
