507495
  -OEChem-10302200282D
 85 87  0     1  0  0  0  0  0999 V2000
    2.8660   -1.5000    0.0000 S   0  0  0  0  0  0  0  0  0  0  0  0
    4.5981   -3.5000    0.0000 O   0  0  0  0  0  0  0  0  0  0  0  0
    8.0622   -4.5000    0.0000 O   0  0  0  0  0  0  0  0  0  0  0  0
    5.4641    0.0000    0.0000 O   0  0  0  0  0  0  0  0  0  0  0  0
   10.6603   -2.0000    0.0000 O   0  0  0  0  0  0  0  0  0  0  0  0
    7.1962    0.0000    0.0000 O   0  0  0  0  0  0  0  0  0  0  0  0
   14.2045   -3.1953    0.0000 O   0  0  0  0  0  0  0  0  0  0  0  0
    8.9282    0.0000    0.0000 O   0  0  0  0  0  0  0  0  0  0  0  0
   14.2045   -4.8047    0.0000 O   0  0  0  0  0  0  0  0  0  0  0  0
    2.8660    5.5000    0.0000 O   0  0  0  0  0  0  0  0  0  0  0  0
    7.1962   -3.0000    0.0000 N   0  0  0  0  0  0  0  0  0  0  0  0
    5.4641   -2.0000    0.0000 N   0  0  0  0  0  0  0  0  0  0  0  0
    9.7942   -3.5000    0.0000 N   0  0  0  0  0  0  0  0  0  0  0  0
    3.7320    0.0000    0.0000 N   0  0  0  0  0  0  0  0  0  0  0  0
    6.3301   -4.5000    0.0000 C   0  0  0  0  0  0  0  0  0  0  0  0
    6.3301   -3.5000    0.0000 C   0  0  1  0  0  0  0  0  0  0  0  0
    5.4641   -5.0000    0.0000 C   0  0  0  0  0  0  0  0  0  0  0  0
    5.4641   -3.0000    0.0000 C   0  0  0  0  0  0  0  0  0  0  0  0
    8.9282   -3.0000    0.0000 C   0  0  2  0  0  0  0  0  0  0  0  0
    5.4641   -6.0000    0.0000 C   0  0  0  0  0  0  0  0  0  0  0  0
    4.5981   -4.5000    0.0000 C   0  0  0  0  0  0  0  0  0  0  0  0
    8.0622   -3.5000    0.0000 C   0  0  0  0  0  0  0  0  0  0  0  0
    8.9282   -2.0000    0.0000 C   0  0  0  0  0  0  0  0  0  0  0  0
    4.5981   -1.5000    0.0000 C   0  0  1  0  0  0  0  0  0  0  0  0
    8.0622   -1.5000    0.0000 C   0  0  0  0  0  0  0  0  0  0  0  0
    3.7320   -2.0000    0.0000 C   0  0  0  0  0  0  0  0  0  0  0  0
    4.5981   -0.5000    0.0000 C   0  0  0  0  0  0  0  0  0  0  0  0
   10.6603   -3.0000    0.0000 C   0  0  0  0  0  0  0  0  0  0  0  0
    3.7320    1.0000    0.0000 C   0  0  0  0  0  0  0  0  0  0  0  0
    8.0622   -0.5000    0.0000 C   0  0  0  0  0  0  0  0  0  0  0  0
   11.5263   -3.5000    0.0000 C   0  0  0  0  0  0  0  0  0  0  0  0
    2.8660    1.5000    0.0000 C   0  0  0  0  0  0  0  0  0  0  0  0
   12.3923   -3.0000    0.0000 C   0  0  0  0  0  0  0  0  0  0  0  0
    2.8660    2.5000    0.0000 C   0  0  0  0  0  0  0  0  0  0  0  0
   11.5263   -4.5000    0.0000 C   0  0  0  0  0  0  0  0  0  0  0  0
   13.2583   -3.5000    0.0000 C   0  0  0  0  0  0  0  0  0  0  0  0
   13.2583   -4.5000    0.0000 C   0  0  0  0  0  0  0  0  0  0  0  0
   12.3923   -5.0000    0.0000 C   0  0  0  0  0  0  0  0  0  0  0  0
    3.7320    3.0000    0.0000 C   0  0  0  0  0  0  0  0  0  0  0  0
    2.0000    3.0000    0.0000 C   0  0  0  0  0  0  0  0  0  0  0  0
   14.7882   -4.0000    0.0000 C   0  0  0  0  0  0  0  0  0  0  0  0
    3.7320    4.0000    0.0000 C   0  0  0  0  0  0  0  0  0  0  0  0
    2.0000    4.0000    0.0000 C   0  0  0  0  0  0  0  0  0  0  0  0
    2.8660    4.5000    0.0000 C   0  0  0  0  0  0  0  0  0  0  0  0
    2.0000    6.0000    0.0000 C   0  0  0  0  0  0  0  0  0  0  0  0
    6.8671   -3.8100    0.0000 H   0  0  0  0  0  0  0  0  0  0  0  0
    6.5422   -5.0826    0.0000 H   0  0  0  0  0  0  0  0  0  0  0  0
    6.9407   -4.3923    0.0000 H   0  0  0  0  0  0  0  0  0  0  0  0
    5.4641   -4.3800    0.0000 H   0  0  0  0  0  0  0  0  0  0  0  0
    7.1962   -2.3800    0.0000 H   0  0  0  0  0  0  0  0  0  0  0  0
    9.4651   -2.6900    0.0000 H   0  0  0  0  0  0  0  0  0  0  0  0
    4.8441   -6.0000    0.0000 H   0  0  0  0  0  0  0  0  0  0  0  0
    5.4641   -6.6200    0.0000 H   0  0  0  0  0  0  0  0  0  0  0  0
    6.0841   -6.0000    0.0000 H   0  0  0  0  0  0  0  0  0  0  0  0
    4.9081   -3.9631    0.0000 H   0  0  0  0  0  0  0  0  0  0  0  0
    4.0611   -4.1900    0.0000 H   0  0  0  0  0  0  0  0  0  0  0  0
    4.2881   -5.0369    0.0000 H   0  0  0  0  0  0  0  0  0  0  0  0
    9.5388   -2.1077    0.0000 H   0  0  0  0  0  0  0  0  0  0  0  0
    9.1403   -1.4174    0.0000 H   0  0  0  0  0  0  0  0  0  0  0  0
    6.0010   -1.6900    0.0000 H   0  0  0  0  0  0  0  0  0  0  0  0
    4.5981   -2.1200    0.0000 H   0  0  0  0  0  0  0  0  0  0  0  0
    9.7942   -4.1200    0.0000 H   0  0  0  0  0  0  0  0  0  0  0  0
    7.4516   -1.3923    0.0000 H   0  0  0  0  0  0  0  0  0  0  0  0
    7.8501   -2.0826    0.0000 H   0  0  0  0  0  0  0  0  0  0  0  0
    3.3335   -2.4750    0.0000 H   0  0  0  0  0  0  0  0  0  0  0  0
    4.1306   -2.4750    0.0000 H   0  0  0  0  0  0  0  0  0  0  0  0
    3.1951   -0.3100    0.0000 H   0  0  0  0  0  0  0  0  0  0  0  0
    4.3426    0.8923    0.0000 H   0  0  0  0  0  0  0  0  0  0  0  0
    3.9441    1.5826    0.0000 H   0  0  0  0  0  0  0  0  0  0  0  0
    2.2554    1.6077    0.0000 H   0  0  0  0  0  0  0  0  0  0  0  0
    2.6540    0.9174    0.0000 H   0  0  0  0  0  0  0  0  0  0  0  0
   12.3923   -2.3800    0.0000 H   0  0  0  0  0  0  0  0  0  0  0  0
    2.3291   -1.8100    0.0000 H   0  0  0  0  0  0  0  0  0  0  0  0
   10.9893   -4.8100    0.0000 H   0  0  0  0  0  0  0  0  0  0  0  0
   12.3923   -5.6200    0.0000 H   0  0  0  0  0  0  0  0  0  0  0  0
    4.2690    2.6900    0.0000 H   0  0  0  0  0  0  0  0  0  0  0  0
    1.4631    2.6900    0.0000 H   0  0  0  0  0  0  0  0  0  0  0  0
    7.1962    0.6200    0.0000 H   0  0  0  0  0  0  0  0  0  0  0  0
   15.2490   -4.4147    0.0000 H   0  0  0  0  0  0  0  0  0  0  0  0
   15.2490   -3.5853    0.0000 H   0  0  0  0  0  0  0  0  0  0  0  0
    4.2690    4.3100    0.0000 H   0  0  0  0  0  0  0  0  0  0  0  0
    1.4631    4.3100    0.0000 H   0  0  0  0  0  0  0  0  0  0  0  0
    2.3100    6.5369    0.0000 H   0  0  0  0  0  0  0  0  0  0  0  0
    1.4631    6.3100    0.0000 H   0  0  0  0  0  0  0  0  0  0  0  0
    1.6900    5.4631    0.0000 H   0  0  0  0  0  0  0  0  0  0  0  0
  1 26  1  0  0  0  0
  1 73  1  0  0  0  0
  2 18  2  0  0  0  0
  3 22  2  0  0  0  0
  4 27  2  0  0  0  0
  5 28  2  0  0  0  0
  6 30  1  0  0  0  0
  6 78  1  0  0  0  0
  7 36  1  0  0  0  0
  7 41  1  0  0  0  0
  8 30  2  0  0  0  0
  9 37  1  0  0  0  0
  9 41  1  0  0  0  0
 10 44  1  0  0  0  0
 10 45  1  0  0  0  0
 16 11  1  1  0  0  0
 11 22  1  0  0  0  0
 11 50  1  0  0  0  0
 12 18  1  0  0  0  0
 24 12  1  1  0  0  0
 12 60  1  0  0  0  0
 19 13  1  6  0  0  0
 13 28  1  0  0  0  0
 13 62  1  0  0  0  0
 14 27  1  0  0  0  0
 14 29  1  0  0  0  0
 14 67  1  0  0  0  0
 15 16  1  0  0  0  0
 15 17  1  0  0  0  0
 15 47  1  0  0  0  0
 15 48  1  0  0  0  0
 16 18  1  0  0  0  0
 16 46  1  0  0  0  0
 17 20  1  0  0  0  0
 17 21  1  0  0  0  0
 17 49  1  0  0  0  0
 19 22  1  0  0  0  0
 19 23  1  0  0  0  0
 19 51  1  0  0  0  0
 20 52  1  0  0  0  0
 20 53  1  0  0  0  0
 20 54  1  0  0  0  0
 21 55  1  0  0  0  0
 21 56  1  0  0  0  0
 21 57  1  0  0  0  0
 23 25  1  0  0  0  0
 23 58  1  0  0  0  0
 23 59  1  0  0  0  0
 24 26  1  0  0  0  0
 24 27  1  0  0  0  0
 24 61  1  0  0  0  0
 25 30  1  0  0  0  0
 25 63  1  0  0  0  0
 25 64  1  0  0  0  0
 26 65  1  0  0  0  0
 26 66  1  0  0  0  0
 28 31  1  0  0  0  0
 29 32  1  0  0  0  0
 29 68  1  0  0  0  0
 29 69  1  0  0  0  0
 31 33  2  0  0  0  0
 31 35  1  0  0  0  0
 32 34  1  0  0  0  0
 32 70  1  0  0  0  0
 32 71  1  0  0  0  0
 33 36  1  0  0  0  0
 33 72  1  0  0  0  0
 34 39  2  0  0  0  0
 34 40  1  0  0  0  0
 35 38  2  0  0  0  0
 35 74  1  0  0  0  0
 36 37  2  0  0  0  0
 37 38  1  0  0  0  0
 38 75  1  0  0  0  0
 39 42  1  0  0  0  0
 39 76  1  0  0  0  0
 40 43  2  0  0  0  0
 40 77  1  0  0  0  0
 41 79  1  0  0  0  0
 41 80  1  0  0  0  0
 42 44  2  0  0  0  0
 42 81  1  0  0  0  0
 43 44  1  0  0  0  0
 43 82  1  0  0  0  0
 45 83  1  0  0  0  0
 45 84  1  0  0  0  0
 45 85  1  0  0  0  0
M  END
> <PUBCHEM_COMPOUND_CID>
507495
> <PUBCHEM_COMPOUND_CANONICALIZED>
1
> <PUBCHEM_CACTVS_COMPLEXITY>
1010
> <PUBCHEM_CACTVS_HBOND_ACCEPTOR>
10
> <PUBCHEM_CACTVS_HBOND_DONOR>
6
> <PUBCHEM_CACTVS_ROTATABLE_BOND>
17
> <PUBCHEM_CACTVS_SUBSKEYS>
AAADcfB7vABAAAAAAAAAAAAAAAAAASAAAAAwYAAAAAAAAEgBQAAAHgQQCAAADSzF2AeyDoLABgSIAiHSGACCCAAkIAAIiIGOjMgdZjKEtTu0cSpk1hGOqYe+35LOIAABAAAAQABAAAIAAACAAAAAAAAAAA==
> <PUBCHEM_IUPAC_OPENEYE_NAME>
(4S)-4-(1,3-benzodioxole-5-carbonylamino)-5-[[(1S)-1-[[(1R)-2-[2-(4-methoxyphenyl)ethylamino]-2-oxo-1-(sulfanylmethyl)ethyl]carbamoyl]-3-methyl-butyl]amino]-5-oxo-pentanoic acid
> <PUBCHEM_IUPAC_CAS_NAME>
(4S)-4-[[1,3-benzodioxol-5-yl(oxo)methyl]amino]-5-[[(2S)-1-[[(2R)-3-mercapto-1-[2-(4-methoxyphenyl)ethylamino]-1-oxopropan-2-yl]amino]-4-methyl-1-oxopentan-2-yl]amino]-5-oxopentanoic acid
> <PUBCHEM_IUPAC_NAME_MARKUP>
(4<I>S</I>)-4-(1,3-benzodioxole-5-carbonylamino)-5-[[(2<I>S</I>)-1-[[(2<I>R</I>)-1-[2-(4-methoxyphenyl)ethylamino]-1-oxo-3-sulfanylpropan-2-yl]amino]-4-methyl-1-oxopentan-2-yl]amino]-5-oxopentanoic acid
> <PUBCHEM_IUPAC_NAME>
(4S)-4-(1,3-benzodioxole-5-carbonylamino)-5-[[(2S)-1-[[(2R)-1-[2-(4-methoxyphenyl)ethylamino]-1-oxo-3-sulfanylpropan-2-yl]amino]-4-methyl-1-oxopentan-2-yl]amino]-5-oxopentanoic acid
> <PUBCHEM_IUPAC_SYSTEMATIC_NAME>
(4S)-4-(1,3-benzodioxol-5-ylcarbonylamino)-5-[[(2S)-1-[[(2R)-1-[2-(4-methoxyphenyl)ethylamino]-1-oxidanylidene-3-sulfanyl-propan-2-yl]amino]-4-methyl-1-oxidanylidene-pentan-2-yl]amino]-5-oxidanylidene-pentanoic acid
> <PUBCHEM_IUPAC_TRADITIONAL_NAME>
(4S)-5-keto-5-[[(1S)-1-[[(1R)-2-keto-1-(mercaptomethyl)-2-[2-(4-methoxyphenyl)ethylamino]ethyl]carbamoyl]-3-methyl-butyl]amino]-4-(piperonyloylamino)valeric acid
> <PUBCHEM_IUPAC_INCHI>
InChI=1S/C31H40N4O9S/c1-18(2)14-23(31(41)35-24(16-45)29(39)32-13-12-19-4-7-21(42-3)8-5-19)34-30(40)22(9-11-27(36)37)33-28(38)20-6-10-25-26(15-20)44-17-43-25/h4-8,10,15,18,22-24,45H,9,11-14,16-17H2,1-3H3,(H,32,39)(H,33,38)(H,34,40)(H,35,41)(H,36,37)/t22-,23-,24-/m0/s1
> <PUBCHEM_IUPAC_INCHIKEY>
HRLUQYOBBFBQFQ-HJOGWXRNSA-N
> <PUBCHEM_XLOGP3_AA>
2.9
> <PUBCHEM_EXACT_MASS>
644.25160004
> <PUBCHEM_MOLECULAR_FORMULA>
C31H40N4O9S
> <PUBCHEM_MOLECULAR_WEIGHT>
644.7
> <PUBCHEM_OPENEYE_CAN_SMILES>
CC(C)CC(C(=O)NC(CS)C(=O)NCCC1=CC=C(C=C1)OC)NC(=O)C(CCC(=O)O)NC(=O)C2=CC3=C(C=C2)OCO3
> <PUBCHEM_OPENEYE_ISO_SMILES>
CC(C)C[C@@H](C(=O)N[C@@H](CS)C(=O)NCCC1=CC=C(C=C1)OC)NC(=O)[C@H](CCC(=O)O)NC(=O)C2=CC3=C(C=C2)OCO3
> <PUBCHEM_CACTVS_TPSA>
182
> <PUBCHEM_MONOISOTOPIC_WEIGHT>
644.25160004
> <PUBCHEM_TOTAL_CHARGE>
0
> <PUBCHEM_HEAVY_ATOM_COUNT>
45
> <PUBCHEM_ATOM_DEF_STEREO_COUNT>
3
> <PUBCHEM_ATOM_UDEF_STEREO_COUNT>
0
> <PUBCHEM_BOND_DEF_STEREO_COUNT>
0
> <PUBCHEM_BOND_UDEF_STEREO_COUNT>
0
> <PUBCHEM_ISOTOPIC_ATOM_COUNT>
0
> <PUBCHEM_COMPONENT_COUNT>
1
> <PUBCHEM_CACTVS_TAUTO_COUNT>
-1
> <PUBCHEM_COORDINATE_TYPE>
1
5
255
> <PUBCHEM_BONDANNOTATIONS>
16  11  5
24  12  5
19  13  6
31  33  8
31  35  8
33  36  8
34  39  8
34  40  8
35  38  8
36  37  8
37  38  8
39  42  8
40  43  8
42  44  8
43  44  8
$$$$
