507415
  -OEChem-10302200282D
 88 89  0     1  0  0  0  0  0999 V2000
    8.6200   -0.2321    0.0000 S   0  0  0  0  0  0  0  0  0  0  0  0
    8.6200   -3.6962    0.0000 O   0  0  0  0  0  0  0  0  0  0  0  0
    7.6200   -0.2321    0.0000 O   0  0  0  0  0  0  0  0  0  0  0  0
    7.1200    0.6340    0.0000 O   0  0  0  0  0  0  0  0  0  0  0  0
    6.1200    4.0981    0.0000 O   0  0  0  0  0  0  0  0  0  0  0  0
    4.6200    3.2320    0.0000 O   0  0  0  0  0  0  0  0  0  0  0  0
    2.6200    3.2320    0.0000 O   0  0  0  0  0  0  0  0  0  0  0  0
    2.6200    1.5000    0.0000 O   0  0  0  0  0  0  0  0  0  0  0  0
   10.1200   -2.8301    0.0000 N   0  0  0  0  0  0  0  0  0  0  0  0
    7.6200   -1.9641    0.0000 N   0  0  0  0  0  0  0  0  0  0  0  0
    5.6200   -0.2321    0.0000 N   0  0  0  0  0  0  0  0  0  0  0  0
    6.1200    2.3660    0.0000 N   0  0  0  0  0  0  0  0  0  0  0  0
   11.6200   -3.6962    0.0000 C   0  0  0  0  0  0  0  0  0  0  0  0
   12.6200   -3.6962    0.0000 C   0  0  0  0  0  0  0  0  0  0  0  0
   11.6200   -2.6962    0.0000 C   0  0  0  0  0  0  0  0  0  0  0  0
   12.6200   -2.6962    0.0000 C   0  0  0  0  0  0  0  0  0  0  0  0
   10.6200   -3.6962    0.0000 C   0  0  0  0  0  0  0  0  0  0  0  0
   11.6200   -4.6962    0.0000 C   0  0  0  0  0  0  0  0  0  0  0  0
   12.4860   -5.1962    0.0000 C   0  0  0  0  0  0  0  0  0  0  0  0
   10.7540   -5.1962    0.0000 C   0  0  0  0  0  0  0  0  0  0  0  0
    9.1200   -2.8301    0.0000 C   0  0  0  0  0  0  0  0  0  0  0  0
   12.4860   -6.1962    0.0000 C   0  0  0  0  0  0  0  0  0  0  0  0
   10.7540   -6.1962    0.0000 C   0  0  0  0  0  0  0  0  0  0  0  0
    8.6200   -1.9641    0.0000 C   0  0  2  0  0  0  0  0  0  0  0  0
   11.6200   -6.6962    0.0000 C   0  0  0  0  0  0  0  0  0  0  0  0
    9.1200   -1.0981    0.0000 C   0  0  0  0  0  0  0  0  0  0  0  0
    6.1200   -1.0981    0.0000 C   0  0  2  0  0  0  0  0  0  0  0  0
    7.1200   -1.0981    0.0000 C   0  0  0  0  0  0  0  0  0  0  0  0
    5.6200   -1.9641    0.0000 C   0  0  0  0  0  0  0  0  0  0  0  0
    4.6200   -1.9641    0.0000 C   0  0  0  0  0  0  0  0  0  0  0  0
    4.1200   -2.8301    0.0000 C   0  0  0  0  0  0  0  0  0  0  0  0
    4.1200   -1.0981    0.0000 C   0  0  0  0  0  0  0  0  0  0  0  0
    6.1200    0.6340    0.0000 C   0  0  0  0  0  0  0  0  0  0  0  0
    5.6200    1.5000    0.0000 C   0  0  2  0  0  0  0  0  0  0  0  0
    4.6200    1.5000    0.0000 C   0  0  0  0  0  0  0  0  0  0  0  0
    4.1200    2.3660    0.0000 C   0  0  0  0  0  0  0  0  0  0  0  0
    5.6200    3.2320    0.0000 C   0  0  0  0  0  0  0  0  0  0  0  0
    3.1200    2.3660    0.0000 C   0  0  0  0  0  0  0  0  0  0  0  0
    6.1200    5.8301    0.0000 C   0  0  0  0  0  0  0  0  0  0  0  0
    5.6200    4.9641    0.0000 C   0  0  0  0  0  0  0  0  0  0  0  0
    5.6200    6.6962    0.0000 C   0  0  0  0  0  0  0  0  0  0  0  0
    7.1200    5.8301    0.0000 C   0  0  0  0  0  0  0  0  0  0  0  0
   12.6200   -4.3162    0.0000 H   0  0  0  0  0  0  0  0  0  0  0  0
   13.2400   -3.6962    0.0000 H   0  0  0  0  0  0  0  0  0  0  0  0
   11.6200   -2.0762    0.0000 H   0  0  0  0  0  0  0  0  0  0  0  0
   11.0000   -2.6962    0.0000 H   0  0  0  0  0  0  0  0  0  0  0  0
   13.2400   -2.6962    0.0000 H   0  0  0  0  0  0  0  0  0  0  0  0
   12.6200   -2.0762    0.0000 H   0  0  0  0  0  0  0  0  0  0  0  0
   10.0374   -3.9082    0.0000 H   0  0  0  0  0  0  0  0  0  0  0  0
   10.7277   -4.3067    0.0000 H   0  0  0  0  0  0  0  0  0  0  0  0
   10.4300   -2.2932    0.0000 H   0  0  0  0  0  0  0  0  0  0  0  0
   13.0230   -4.8862    0.0000 H   0  0  0  0  0  0  0  0  0  0  0  0
   10.2170   -4.8862    0.0000 H   0  0  0  0  0  0  0  0  0  0  0  0
   13.0230   -6.5062    0.0000 H   0  0  0  0  0  0  0  0  0  0  0  0
   10.2170   -6.5062    0.0000 H   0  0  0  0  0  0  0  0  0  0  0  0
    8.3100   -2.5010    0.0000 H   0  0  0  0  0  0  0  0  0  0  0  0
   11.6200   -7.3162    0.0000 H   0  0  0  0  0  0  0  0  0  0  0  0
    9.5950   -1.4966    0.0000 H   0  0  0  0  0  0  0  0  0  0  0  0
    9.5950   -0.6995    0.0000 H   0  0  0  0  0  0  0  0  0  0  0  0
    7.3100   -2.5010    0.0000 H   0  0  0  0  0  0  0  0  0  0  0  0
    5.5000   -1.0981    0.0000 H   0  0  0  0  0  0  0  0  0  0  0  0
    5.5123   -2.5747    0.0000 H   0  0  0  0  0  0  0  0  0  0  0  0
    6.2026   -2.1761    0.0000 H   0  0  0  0  0  0  0  0  0  0  0  0
    4.9300   -2.5010    0.0000 H   0  0  0  0  0  0  0  0  0  0  0  0
    5.0000   -0.2321    0.0000 H   0  0  0  0  0  0  0  0  0  0  0  0
    8.9300    0.3049    0.0000 H   0  0  0  0  0  0  0  0  0  0  0  0
    3.5831   -2.5201    0.0000 H   0  0  0  0  0  0  0  0  0  0  0  0
    3.8100   -3.3671    0.0000 H   0  0  0  0  0  0  0  0  0  0  0  0
    4.6569   -3.1401    0.0000 H   0  0  0  0  0  0  0  0  0  0  0  0
    4.6569   -0.7881    0.0000 H   0  0  0  0  0  0  0  0  0  0  0  0
    3.8100   -0.5611    0.0000 H   0  0  0  0  0  0  0  0  0  0  0  0
    3.5831   -1.4081    0.0000 H   0  0  0  0  0  0  0  0  0  0  0  0
    6.2400    1.5000    0.0000 H   0  0  0  0  0  0  0  0  0  0  0  0
    4.0374    1.2880    0.0000 H   0  0  0  0  0  0  0  0  0  0  0  0
    4.7277    0.8894    0.0000 H   0  0  0  0  0  0  0  0  0  0  0  0
    6.7400    2.3660    0.0000 H   0  0  0  0  0  0  0  0  0  0  0  0
    4.7026    2.5781    0.0000 H   0  0  0  0  0  0  0  0  0  0  0  0
    4.0123    2.9766    0.0000 H   0  0  0  0  0  0  0  0  0  0  0  0
    6.4300    6.3671    0.0000 H   0  0  0  0  0  0  0  0  0  0  0  0
    5.1450    5.3626    0.0000 H   0  0  0  0  0  0  0  0  0  0  0  0
    5.1450    4.5656    0.0000 H   0  0  0  0  0  0  0  0  0  0  0  0
    6.1569    7.0062    0.0000 H   0  0  0  0  0  0  0  0  0  0  0  0
    5.3100    7.2331    0.0000 H   0  0  0  0  0  0  0  0  0  0  0  0
    5.0831    6.3862    0.0000 H   0  0  0  0  0  0  0  0  0  0  0  0
    7.1200    5.2101    0.0000 H   0  0  0  0  0  0  0  0  0  0  0  0
    7.7400    5.8301    0.0000 H   0  0  0  0  0  0  0  0  0  0  0  0
    7.1200    6.4501    0.0000 H   0  0  0  0  0  0  0  0  0  0  0  0
    2.0000    3.2320    0.0000 H   0  0  0  0  0  0  0  0  0  0  0  0
  1 26  1  0  0  0  0
  1 66  1  0  0  0  0
  2 21  2  0  0  0  0
  3 28  2  0  0  0  0
  4 33  2  0  0  0  0
  5 37  1  0  0  0  0
  5 40  1  0  0  0  0
  6 37  2  0  0  0  0
  7 38  1  0  0  0  0
  7 88  1  0  0  0  0
  8 38  2  0  0  0  0
  9 17  1  0  0  0  0
  9 21  1  0  0  0  0
  9 51  1  0  0  0  0
 24 10  1  1  0  0  0
 10 28  1  0  0  0  0
 10 60  1  0  0  0  0
 27 11  1  6  0  0  0
 11 33  1  0  0  0  0
 11 65  1  0  0  0  0
 34 12  1  6  0  0  0
 12 37  1  0  0  0  0
 12 76  1  0  0  0  0
 13 14  1  0  0  0  0
 13 15  1  0  0  0  0
 13 17  1  0  0  0  0
 13 18  1  0  0  0  0
 14 16  1  0  0  0  0
 14 43  1  0  0  0  0
 14 44  1  0  0  0  0
 15 16  1  0  0  0  0
 15 45  1  0  0  0  0
 15 46  1  0  0  0  0
 16 47  1  0  0  0  0
 16 48  1  0  0  0  0
 17 49  1  0  0  0  0
 17 50  1  0  0  0  0
 18 19  2  0  0  0  0
 18 20  1  0  0  0  0
 19 22  1  0  0  0  0
 19 52  1  0  0  0  0
 20 23  2  0  0  0  0
 20 53  1  0  0  0  0
 21 24  1  0  0  0  0
 22 25  2  0  0  0  0
 22 54  1  0  0  0  0
 23 25  1  0  0  0  0
 23 55  1  0  0  0  0
 24 26  1  0  0  0  0
 24 56  1  0  0  0  0
 25 57  1  0  0  0  0
 26 58  1  0  0  0  0
 26 59  1  0  0  0  0
 27 28  1  0  0  0  0
 27 29  1  0  0  0  0
 27 61  1  0  0  0  0
 29 30  1  0  0  0  0
 29 62  1  0  0  0  0
 29 63  1  0  0  0  0
 30 31  1  0  0  0  0
 30 32  1  0  0  0  0
 30 64  1  0  0  0  0
 31 67  1  0  0  0  0
 31 68  1  0  0  0  0
 31 69  1  0  0  0  0
 32 70  1  0  0  0  0
 32 71  1  0  0  0  0
 32 72  1  0  0  0  0
 33 34  1  0  0  0  0
 34 35  1  0  0  0  0
 34 73  1  0  0  0  0
 35 36  1  0  0  0  0
 35 74  1  0  0  0  0
 35 75  1  0  0  0  0
 36 38  1  0  0  0  0
 36 77  1  0  0  0  0
 36 78  1  0  0  0  0
 39 40  1  0  0  0  0
 39 41  1  0  0  0  0
 39 42  1  0  0  0  0
 39 79  1  0  0  0  0
 40 80  1  0  0  0  0
 40 81  1  0  0  0  0
 41 82  1  0  0  0  0
 41 83  1  0  0  0  0
 41 84  1  0  0  0  0
 42 85  1  0  0  0  0
 42 86  1  0  0  0  0
 42 87  1  0  0  0  0
M  END
> <PUBCHEM_COMPOUND_CID>
507415
> <PUBCHEM_COMPOUND_CANONICALIZED>
1
> <PUBCHEM_CACTVS_COMPLEXITY>
919
> <PUBCHEM_CACTVS_HBOND_ACCEPTOR>
8
> <PUBCHEM_CACTVS_HBOND_DONOR>
6
> <PUBCHEM_CACTVS_ROTATABLE_BOND>
18
> <PUBCHEM_CACTVS_SUBSKEYS>
AAADcfB7uABAAAAAAAAAAAAAAABgAAAAAAAwAAAAAAAAAAABAAAAHgQQCAAADyjl2AayCILABgSIAiHSGAACAAAgAAAIiIGIAIkIYDKAkTGcYAAklgCIiAe8l8IPgAAAAAAAAAAAAAAAAAAAAAAAAAAAAA==
> <PUBCHEM_IUPAC_OPENEYE_NAME>
(4S)-4-(isobutoxycarbonylamino)-5-[[(1S)-3-methyl-1-[[(1R)-2-oxo-2-[(1-phenylcyclobutyl)methylamino]-1-(sulfanylmethyl)ethyl]carbamoyl]butyl]amino]-5-oxo-pentanoic acid
> <PUBCHEM_IUPAC_CAS_NAME>
(4S)-5-[[(2S)-1-[[(2R)-3-mercapto-1-oxo-1-[(1-phenylcyclobutyl)methylamino]propan-2-yl]amino]-4-methyl-1-oxopentan-2-yl]amino]-4-[[2-methylpropoxy(oxo)methyl]amino]-5-oxopentanoic acid
> <PUBCHEM_IUPAC_NAME_MARKUP>
(4<I>S</I>)-5-[[(2<I>S</I>)-4-methyl-1-oxo-1-[[(2<I>R</I>)-1-oxo-1-[(1-phenylcyclobutyl)methylamino]-3-sulfanylpropan-2-yl]amino]pentan-2-yl]amino]-4-(2-methylpropoxycarbonylamino)-5-oxopentanoic acid
> <PUBCHEM_IUPAC_NAME>
(4S)-5-[[(2S)-4-methyl-1-oxo-1-[[(2R)-1-oxo-1-[(1-phenylcyclobutyl)methylamino]-3-sulfanylpropan-2-yl]amino]pentan-2-yl]amino]-4-(2-methylpropoxycarbonylamino)-5-oxopentanoic acid
> <PUBCHEM_IUPAC_SYSTEMATIC_NAME>
(4S)-5-[[(2S)-4-methyl-1-oxidanylidene-1-[[(2R)-1-oxidanylidene-1-[(1-phenylcyclobutyl)methylamino]-3-sulfanyl-propan-2-yl]amino]pentan-2-yl]amino]-4-(2-methylpropoxycarbonylamino)-5-oxidanylidene-pentanoic acid
> <PUBCHEM_IUPAC_TRADITIONAL_NAME>
(4S)-4-(isobutoxycarbonylamino)-5-keto-5-[[(1S)-1-[[(1R)-2-keto-1-(mercaptomethyl)-2-[(1-phenylcyclobutyl)methylamino]ethyl]carbamoyl]-3-methyl-butyl]amino]valeric acid
> <PUBCHEM_IUPAC_INCHI>
InChI=1S/C30H46N4O7S/c1-19(2)15-23(32-27(38)22(11-12-25(35)36)34-29(40)41-16-20(3)4)28(39)33-24(17-42)26(37)31-18-30(13-8-14-30)21-9-6-5-7-10-21/h5-7,9-10,19-20,22-24,42H,8,11-18H2,1-4H3,(H,31,37)(H,32,38)(H,33,39)(H,34,40)(H,35,36)/t22-,23-,24-/m0/s1
> <PUBCHEM_IUPAC_INCHIKEY>
HAECPKJTGWEKIP-HJOGWXRNSA-N
> <PUBCHEM_XLOGP3_AA>
4
> <PUBCHEM_EXACT_MASS>
606.30872099
> <PUBCHEM_MOLECULAR_FORMULA>
C30H46N4O7S
> <PUBCHEM_MOLECULAR_WEIGHT>
606.8
> <PUBCHEM_OPENEYE_CAN_SMILES>
CC(C)CC(C(=O)NC(CS)C(=O)NCC1(CCC1)C2=CC=CC=C2)NC(=O)C(CCC(=O)O)NC(=O)OCC(C)C
> <PUBCHEM_OPENEYE_ISO_SMILES>
CC(C)C[C@@H](C(=O)N[C@@H](CS)C(=O)NCC1(CCC1)C2=CC=CC=C2)NC(=O)[C@H](CCC(=O)O)NC(=O)OCC(C)C
> <PUBCHEM_CACTVS_TPSA>
164
> <PUBCHEM_MONOISOTOPIC_WEIGHT>
606.30872099
> <PUBCHEM_TOTAL_CHARGE>
0
> <PUBCHEM_HEAVY_ATOM_COUNT>
42
> <PUBCHEM_ATOM_DEF_STEREO_COUNT>
3
> <PUBCHEM_ATOM_UDEF_STEREO_COUNT>
0
> <PUBCHEM_BOND_DEF_STEREO_COUNT>
0
> <PUBCHEM_BOND_UDEF_STEREO_COUNT>
0
> <PUBCHEM_ISOTOPIC_ATOM_COUNT>
0
> <PUBCHEM_COMPONENT_COUNT>
1
> <PUBCHEM_CACTVS_TAUTO_COUNT>
-1
> <PUBCHEM_COORDINATE_TYPE>
1
5
255
> <PUBCHEM_BONDANNOTATIONS>
24  10  5
27  11  6
34  12  6
18  19  8
18  20  8
19  22  8
20  23  8
22  25  8
23  25  8
$$$$
