507477
  -OEChem-10302200282D
 50 53  0     1  0  0  0  0  0999 V2000
    6.6353   -1.5361    0.0000 O   0  0  0  0  0  0  0  0  0  0  0  0
    4.3211   -0.2537    0.0000 O   0  0  0  0  0  0  0  0  0  0  0  0
    2.8660   -0.7533    0.0000 O   0  0  0  0  0  0  0  0  0  0  0  0
    6.8994    2.0598    0.0000 N   0  0  3  0  0  0  0  0  0  0  0  0
    6.2781    0.1587    0.0000 N   0  0  0  0  0  0  0  0  0  0  0  0
    4.6783   -3.5580    0.0000 N   0  0  0  0  0  0  0  0  0  0  0  0
    2.8660   -3.7533    0.0000 N   0  0  0  0  0  0  0  0  0  0  0  0
    7.2566    0.3650    0.0000 C   0  0  1  0  0  0  0  0  0  0  0  0
    7.5673    1.3155    0.0000 C   0  0  0  0  0  0  0  0  0  0  0  0
    5.9209    1.8536    0.0000 C   0  0  0  0  0  0  0  0  0  0  0  0
    5.6103    0.9030    0.0000 C   0  0  0  0  0  0  0  0  0  0  0  0
    7.2101    3.0103    0.0000 C   0  0  0  0  0  0  0  0  0  0  0  0
    7.9244   -0.3793    0.0000 C   0  0  0  0  0  0  0  0  0  0  0  0
    5.9674   -0.7918    0.0000 C   0  0  0  0  0  0  0  0  0  0  0  0
    8.1886    3.2165    0.0000 C   0  0  0  0  0  0  0  0  0  0  0  0
    4.9889   -0.9980    0.0000 C   0  0  0  0  0  0  0  0  0  0  0  0
    4.6783   -1.9485    0.0000 C   0  0  0  0  0  0  0  0  0  0  0  0
    8.4993    4.1670    0.0000 C   0  0  0  0  0  0  0  0  0  0  0  0
    8.8564    2.4722    0.0000 C   0  0  0  0  0  0  0  0  0  0  0  0
    3.7320   -2.2533    0.0000 C   0  0  0  0  0  0  0  0  0  0  0  0
    3.7320   -3.2533    0.0000 C   0  0  0  0  0  0  0  0  0  0  0  0
    5.2619   -2.7533    0.0000 C   0  0  0  0  0  0  0  0  0  0  0  0
    9.4778    4.3733    0.0000 C   0  0  0  0  0  0  0  0  0  0  0  0
    9.8349    2.6784    0.0000 C   0  0  0  0  0  0  0  0  0  0  0  0
    2.8660   -1.7533    0.0000 C   0  0  0  0  0  0  0  0  0  0  0  0
   10.1456    3.6290    0.0000 C   0  0  0  0  0  0  0  0  0  0  0  0
    2.0000   -2.2533    0.0000 C   0  0  0  0  0  0  0  0  0  0  0  0
    2.0000   -3.2533    0.0000 C   0  0  0  0  0  0  0  0  0  0  0  0
    7.0640   -0.2244    0.0000 H   0  0  0  0  0  0  0  0  0  0  0  0
    8.1142    1.0235    0.0000 H   0  0  0  0  0  0  0  0  0  0  0  0
    7.9498    1.8034    0.0000 H   0  0  0  0  0  0  0  0  0  0  0  0
    5.9004    2.4732    0.0000 H   0  0  0  0  0  0  0  0  0  0  0  0
    5.3071    1.9409    0.0000 H   0  0  0  0  0  0  0  0  0  0  0  0
    5.0633    1.1951    0.0000 H   0  0  0  0  0  0  0  0  0  0  0  0
    5.2277    0.4151    0.0000 H   0  0  0  0  0  0  0  0  0  0  0  0
    7.1895    3.6300    0.0000 H   0  0  0  0  0  0  0  0  0  0  0  0
    6.5963    3.0976    0.0000 H   0  0  0  0  0  0  0  0  0  0  0  0
    7.4630   -0.7934    0.0000 H   0  0  0  0  0  0  0  0  0  0  0  0
    8.3385   -0.8408    0.0000 H   0  0  0  0  0  0  0  0  0  0  0  0
    8.3859    0.0347    0.0000 H   0  0  0  0  0  0  0  0  0  0  0  0
    8.0852    4.6285    0.0000 H   0  0  0  0  0  0  0  0  0  0  0  0
    8.6638    1.8829    0.0000 H   0  0  0  0  0  0  0  0  0  0  0  0
    5.8819   -2.7533    0.0000 H   0  0  0  0  0  0  0  0  0  0  0  0
    4.8709   -4.1473    0.0000 H   0  0  0  0  0  0  0  0  0  0  0  0
    9.6704    4.9626    0.0000 H   0  0  0  0  0  0  0  0  0  0  0  0
   10.2490    2.2170    0.0000 H   0  0  0  0  0  0  0  0  0  0  0  0
    2.8660   -4.3733    0.0000 H   0  0  0  0  0  0  0  0  0  0  0  0
   10.7523    3.7568    0.0000 H   0  0  0  0  0  0  0  0  0  0  0  0
    1.4631   -1.9433    0.0000 H   0  0  0  0  0  0  0  0  0  0  0  0
    1.4631   -3.5633    0.0000 H   0  0  0  0  0  0  0  0  0  0  0  0
  1 14  2  0  0  0  0
  2 16  2  0  0  0  0
  3 25  2  0  0  0  0
  4  9  1  0  0  0  0
  4 10  1  0  0  0  0
  4 12  1  0  0  0  0
  5  8  1  0  0  0  0
  5 11  1  0  0  0  0
  5 14  1  0  0  0  0
  6 21  1  0  0  0  0
  6 22  1  0  0  0  0
  6 44  1  0  0  0  0
  7 21  1  0  0  0  0
  7 28  1  0  0  0  0
  7 47  1  0  0  0  0
  8  9  1  0  0  0  0
  8 13  1  1  0  0  0
  8 29  1  0  0  0  0
  9 30  1  0  0  0  0
  9 31  1  0  0  0  0
 10 11  1  0  0  0  0
 10 32  1  0  0  0  0
 10 33  1  0  0  0  0
 11 34  1  0  0  0  0
 11 35  1  0  0  0  0
 12 15  1  0  0  0  0
 12 36  1  0  0  0  0
 12 37  1  0  0  0  0
 13 38  1  0  0  0  0
 13 39  1  0  0  0  0
 13 40  1  0  0  0  0
 14 16  1  0  0  0  0
 15 18  2  0  0  0  0
 15 19  1  0  0  0  0
 16 17  1  0  0  0  0
 17 20  1  0  0  0  0
 17 22  2  0  0  0  0
 18 23  1  0  0  0  0
 18 41  1  0  0  0  0
 19 24  2  0  0  0  0
 19 42  1  0  0  0  0
 20 21  2  0  0  0  0
 20 25  1  0  0  0  0
 22 43  1  0  0  0  0
 23 26  2  0  0  0  0
 23 45  1  0  0  0  0
 24 26  1  0  0  0  0
 24 46  1  0  0  0  0
 25 27  1  0  0  0  0
 26 48  1  0  0  0  0
 27 28  2  0  0  0  0
 27 49  1  0  0  0  0
 28 50  1  0  0  0  0
M  END
> <PUBCHEM_COMPOUND_CID>
507477
> <PUBCHEM_COMPOUND_CANONICALIZED>
1
> <PUBCHEM_CACTVS_COMPLEXITY>
658
> <PUBCHEM_CACTVS_HBOND_ACCEPTOR>
5
> <PUBCHEM_CACTVS_HBOND_DONOR>
2
> <PUBCHEM_CACTVS_ROTATABLE_BOND>
4
> <PUBCHEM_CACTVS_SUBSKEYS>
AAADceB7sAAAAAAAAAAAAAAAAAAAAWAAAAA8QIAAAAAAAEABwAAAHgAQAAAADCzBmgQ/sJPJkACoArN3dACCgCm1AiAJ2aGoRNiIYHrAlbGUIYhohgLIyecdiwAugAAAAAAAAAAAAAAAAAAAAAAAAAAAAA==
> <PUBCHEM_IUPAC_OPENEYE_NAME>
1-[(2R)-4-benzyl-2-methyl-piperazin-1-yl]-2-(4-oxo-1,7-dihydropyrrolo[2,3-b]pyridin-3-yl)ethane-1,2-dione
> <PUBCHEM_IUPAC_CAS_NAME>
1-[(2R)-2-methyl-4-(phenylmethyl)-1-piperazinyl]-2-(4-oxo-1,7-dihydropyrrolo[2,3-b]pyridin-3-yl)ethane-1,2-dione
> <PUBCHEM_IUPAC_NAME_MARKUP>
1-[(2<I>R</I>)-4-benzyl-2-methylpiperazin-1-yl]-2-(4-oxo-1,7-dihydropyrrolo[2,3-b]pyridin-3-yl)ethane-1,2-dione
> <PUBCHEM_IUPAC_NAME>
1-[(2R)-4-benzyl-2-methylpiperazin-1-yl]-2-(4-oxo-1,7-dihydropyrrolo[2,3-b]pyridin-3-yl)ethane-1,2-dione
> <PUBCHEM_IUPAC_SYSTEMATIC_NAME>
1-[(2R)-2-methyl-4-(phenylmethyl)piperazin-1-yl]-2-(4-oxidanylidene-1,7-dihydropyrrolo[2,3-b]pyridin-3-yl)ethane-1,2-dione
> <PUBCHEM_IUPAC_TRADITIONAL_NAME>
1-[(2R)-4-benzyl-2-methyl-piperazino]-2-(4-keto-1,7-dihydropyrrolo[2,3-b]pyridin-3-yl)ethane-1,2-dione
> <PUBCHEM_IUPAC_INCHI>
InChI=1S/C21H22N4O3/c1-14-12-24(13-15-5-3-2-4-6-15)9-10-25(14)21(28)19(27)16-11-23-20-18(16)17(26)7-8-22-20/h2-8,11,14H,9-10,12-13H2,1H3,(H2,22,23,26)/t14-/m1/s1
> <PUBCHEM_IUPAC_INCHIKEY>
LGVFYCBRSMGWMY-CQSZACIVSA-N
> <PUBCHEM_XLOGP3_AA>
1.8
> <PUBCHEM_EXACT_MASS>
378.16919058
> <PUBCHEM_MOLECULAR_FORMULA>
C21H22N4O3
> <PUBCHEM_MOLECULAR_WEIGHT>
378.4
> <PUBCHEM_OPENEYE_CAN_SMILES>
CC1CN(CCN1C(=O)C(=O)C2=CNC3=C2C(=O)C=CN3)CC4=CC=CC=C4
> <PUBCHEM_OPENEYE_ISO_SMILES>
C[C@@H]1CN(CCN1C(=O)C(=O)C2=CNC3=C2C(=O)C=CN3)CC4=CC=CC=C4
> <PUBCHEM_CACTVS_TPSA>
85.5
> <PUBCHEM_MONOISOTOPIC_WEIGHT>
378.16919058
> <PUBCHEM_TOTAL_CHARGE>
0
> <PUBCHEM_HEAVY_ATOM_COUNT>
28
> <PUBCHEM_ATOM_DEF_STEREO_COUNT>
1
> <PUBCHEM_ATOM_UDEF_STEREO_COUNT>
0
> <PUBCHEM_BOND_DEF_STEREO_COUNT>
0
> <PUBCHEM_BOND_UDEF_STEREO_COUNT>
0
> <PUBCHEM_ISOTOPIC_ATOM_COUNT>
0
> <PUBCHEM_COMPONENT_COUNT>
1
> <PUBCHEM_CACTVS_TAUTO_COUNT>
-1
> <PUBCHEM_COORDINATE_TYPE>
1
5
255
> <PUBCHEM_BONDANNOTATIONS>
15  18  8
15  19  8
17  20  8
17  22  8
18  23  8
19  24  8
20  21  8
20  25  8
23  26  8
24  26  8
25  27  8
27  28  8
6  21  8
6  22  8
7  21  8
7  28  8
8  13  5
$$$$
