507461
  -OEChem-10302200282D
 98 99  0     1  0  0  0  0  0999 V2000
    7.1962   -2.7500    0.0000 S   0  0  0  0  0  0  0  0  0  0  0  0
    8.0622    5.7500    0.0000 S   0  0  0  0  0  0  0  0  0  0  0  0
    6.3301   -3.2500    0.0000 O   0  0  0  0  0  0  0  0  0  0  0  0
    6.3301   -4.2500    0.0000 O   0  0  0  0  0  0  0  0  0  0  0  0
    7.1962   -7.7500    0.0000 O   0  0  0  0  0  0  0  0  0  0  0  0
    5.4641    0.2500    0.0000 O   0  0  0  0  0  0  0  0  0  0  0  0
    3.7320   -8.7500    0.0000 O   0  0  0  0  0  0  0  0  0  0  0  0
    5.4641   -7.7500    0.0000 O   0  0  0  0  0  0  0  0  0  0  0  0
    2.8660   -7.2500    0.0000 O   0  0  0  0  0  0  0  0  0  0  0  0
    9.0622    5.7500    0.0000 O   0  0  0  0  0  0  0  0  0  0  0  0
    7.0622    5.7500    0.0000 O   0  0  0  0  0  0  0  0  0  0  0  0
    9.7942    6.7500    0.0000 O   0  0  0  0  0  0  0  0  0  0  0  0
    4.5981   -4.2500    0.0000 N   0  0  0  0  0  0  0  0  0  0  0  0
    5.4641   -1.7500    0.0000 N   0  0  0  0  0  0  0  0  0  0  0  0
    6.3301   -6.2500    0.0000 N   0  0  0  0  0  0  0  0  0  0  0  0
    7.1962    0.2500    0.0000 N   0  0  0  0  0  0  0  0  0  0  0  0
    8.0622    6.7500    0.0000 N   0  0  0  0  0  0  0  0  0  0  0  0
    3.7320   -2.7500    0.0000 C   0  0  0  0  0  0  0  0  0  0  0  0
    4.5981   -3.2500    0.0000 C   0  0  1  0  0  0  0  0  0  0  0  0
    2.8660   -3.2500    0.0000 C   0  0  0  0  0  0  0  0  0  0  0  0
    5.4641   -2.7500    0.0000 C   0  0  0  0  0  0  0  0  0  0  0  0
    2.0000   -2.7500    0.0000 C   0  0  0  0  0  0  0  0  0  0  0  0
    2.8660   -4.2500    0.0000 C   0  0  0  0  0  0  0  0  0  0  0  0
    5.4641   -5.7500    0.0000 C   0  0  2  0  0  0  0  0  0  0  0  0
    5.4641   -4.7500    0.0000 C   0  0  0  0  0  0  0  0  0  0  0  0
    4.5981   -6.2500    0.0000 C   0  0  0  0  0  0  0  0  0  0  0  0
    6.3301   -1.2500    0.0000 C   0  0  1  0  0  0  0  0  0  0  0  0
    4.5981   -7.2500    0.0000 C   0  0  0  0  0  0  0  0  0  0  0  0
    7.1962   -1.7500    0.0000 C   0  0  0  0  0  0  0  0  0  0  0  0
    6.3301   -0.2500    0.0000 C   0  0  0  0  0  0  0  0  0  0  0  0
    7.1962    1.2500    0.0000 C   0  0  0  0  0  0  0  0  0  0  0  0
    6.3301   -7.2500    0.0000 C   0  0  0  0  0  0  0  0  0  0  0  0
    8.0622    1.7500    0.0000 C   0  0  0  0  0  0  0  0  0  0  0  0
    3.7320   -7.7500    0.0000 C   0  0  0  0  0  0  0  0  0  0  0  0
    8.0622    2.7500    0.0000 C   0  0  0  0  0  0  0  0  0  0  0  0
    8.0622   -9.2500    0.0000 C   0  0  0  0  0  0  0  0  0  0  0  0
    7.1962   -8.7500    0.0000 C   0  0  0  0  0  0  0  0  0  0  0  0
    7.1962    3.2500    0.0000 C   0  0  0  0  0  0  0  0  0  0  0  0
    8.9282    3.2500    0.0000 C   0  0  0  0  0  0  0  0  0  0  0  0
    8.0622    4.7500    0.0000 C   0  0  0  0  0  0  0  0  0  0  0  0
    8.0622  -10.2500    0.0000 C   0  0  0  0  0  0  0  0  0  0  0  0
    8.9282   -8.7500    0.0000 C   0  0  0  0  0  0  0  0  0  0  0  0
    7.1962    4.2500    0.0000 C   0  0  0  0  0  0  0  0  0  0  0  0
    8.9282    4.2500    0.0000 C   0  0  0  0  0  0  0  0  0  0  0  0
    8.9282    7.2500    0.0000 C   0  0  0  0  0  0  0  0  0  0  0  0
    8.9282    8.2500    0.0000 C   0  0  0  0  0  0  0  0  0  0  0  0
    8.0622    8.7500    0.0000 C   0  0  0  0  0  0  0  0  0  0  0  0
    9.7942    8.7500    0.0000 C   0  0  0  0  0  0  0  0  0  0  0  0
    8.0622    9.7500    0.0000 C   0  0  0  0  0  0  0  0  0  0  0  0
    9.7942    9.7500    0.0000 C   0  0  0  0  0  0  0  0  0  0  0  0
    8.9282   10.2500    0.0000 C   0  0  0  0  0  0  0  0  0  0  0  0
    4.1306   -2.2750    0.0000 H   0  0  0  0  0  0  0  0  0  0  0  0
    3.3335   -2.2750    0.0000 H   0  0  0  0  0  0  0  0  0  0  0  0
    5.1350   -3.5600    0.0000 H   0  0  0  0  0  0  0  0  0  0  0  0
    2.8660   -2.6300    0.0000 H   0  0  0  0  0  0  0  0  0  0  0  0
    4.0611   -4.5600    0.0000 H   0  0  0  0  0  0  0  0  0  0  0  0
    2.3100   -2.2131    0.0000 H   0  0  0  0  0  0  0  0  0  0  0  0
    1.4631   -2.4400    0.0000 H   0  0  0  0  0  0  0  0  0  0  0  0
    1.6900   -3.2869    0.0000 H   0  0  0  0  0  0  0  0  0  0  0  0
    2.2460   -4.2500    0.0000 H   0  0  0  0  0  0  0  0  0  0  0  0
    2.8660   -4.8700    0.0000 H   0  0  0  0  0  0  0  0  0  0  0  0
    3.4860   -4.2500    0.0000 H   0  0  0  0  0  0  0  0  0  0  0  0
    5.4641   -6.3700    0.0000 H   0  0  0  0  0  0  0  0  0  0  0  0
    4.3860   -5.6674    0.0000 H   0  0  0  0  0  0  0  0  0  0  0  0
    3.9875   -6.3577    0.0000 H   0  0  0  0  0  0  0  0  0  0  0  0
    4.9272   -1.4400    0.0000 H   0  0  0  0  0  0  0  0  0  0  0  0
    5.7932   -0.9400    0.0000 H   0  0  0  0  0  0  0  0  0  0  0  0
    6.8671   -5.9400    0.0000 H   0  0  0  0  0  0  0  0  0  0  0  0
    4.8101   -7.8326    0.0000 H   0  0  0  0  0  0  0  0  0  0  0  0
    5.2087   -7.1423    0.0000 H   0  0  0  0  0  0  0  0  0  0  0  0
    7.8067   -1.8577    0.0000 H   0  0  0  0  0  0  0  0  0  0  0  0
    7.4082   -1.1674    0.0000 H   0  0  0  0  0  0  0  0  0  0  0  0
    7.7331   -0.0600    0.0000 H   0  0  0  0  0  0  0  0  0  0  0  0
    6.9841    1.8326    0.0000 H   0  0  0  0  0  0  0  0  0  0  0  0
    6.5856    1.1423    0.0000 H   0  0  0  0  0  0  0  0  0  0  0  0
    8.2742    1.1674    0.0000 H   0  0  0  0  0  0  0  0  0  0  0  0
    8.6728    1.8577    0.0000 H   0  0  0  0  0  0  0  0  0  0  0  0
    8.0622   -8.6300    0.0000 H   0  0  0  0  0  0  0  0  0  0  0  0
    6.5856   -8.6423    0.0000 H   0  0  0  0  0  0  0  0  0  0  0  0
    6.9841   -9.3326    0.0000 H   0  0  0  0  0  0  0  0  0  0  0  0
    7.7331   -3.0600    0.0000 H   0  0  0  0  0  0  0  0  0  0  0  0
    6.6592    2.9400    0.0000 H   0  0  0  0  0  0  0  0  0  0  0  0
    9.4651    2.9400    0.0000 H   0  0  0  0  0  0  0  0  0  0  0  0
    7.4422  -10.2500    0.0000 H   0  0  0  0  0  0  0  0  0  0  0  0
    8.0622  -10.8700    0.0000 H   0  0  0  0  0  0  0  0  0  0  0  0
    8.6822  -10.2500    0.0000 H   0  0  0  0  0  0  0  0  0  0  0  0
    9.2382   -9.2869    0.0000 H   0  0  0  0  0  0  0  0  0  0  0  0
    9.4651   -8.4400    0.0000 H   0  0  0  0  0  0  0  0  0  0  0  0
    8.6182   -8.2131    0.0000 H   0  0  0  0  0  0  0  0  0  0  0  0
    6.6592    4.5600    0.0000 H   0  0  0  0  0  0  0  0  0  0  0  0
    9.4651    4.5600    0.0000 H   0  0  0  0  0  0  0  0  0  0  0  0
    3.1951   -9.0600    0.0000 H   0  0  0  0  0  0  0  0  0  0  0  0
    7.5252    7.0600    0.0000 H   0  0  0  0  0  0  0  0  0  0  0  0
    7.5252    8.4400    0.0000 H   0  0  0  0  0  0  0  0  0  0  0  0
   10.3312    8.4400    0.0000 H   0  0  0  0  0  0  0  0  0  0  0  0
    7.5252   10.0600    0.0000 H   0  0  0  0  0  0  0  0  0  0  0  0
   10.3312   10.0600    0.0000 H   0  0  0  0  0  0  0  0  0  0  0  0
    8.9282   10.8700    0.0000 H   0  0  0  0  0  0  0  0  0  0  0  0
  1 29  1  0  0  0  0
  1 81  1  0  0  0  0
  2 10  2  0  0  0  0
  2 11  2  0  0  0  0
  2 17  1  0  0  0  0
  2 40  1  0  0  0  0
  3 21  2  0  0  0  0
  4 25  2  0  0  0  0
  5 32  1  0  0  0  0
  5 37  1  0  0  0  0
  6 30  2  0  0  0  0
  7 34  1  0  0  0  0
  7 92  1  0  0  0  0
  8 32  2  0  0  0  0
  9 34  2  0  0  0  0
 12 45  2  0  0  0  0
 19 13  1  1  0  0  0
 13 25  1  0  0  0  0
 13 56  1  0  0  0  0
 14 21  1  0  0  0  0
 27 14  1  6  0  0  0
 14 66  1  0  0  0  0
 24 15  1  1  0  0  0
 15 32  1  0  0  0  0
 15 68  1  0  0  0  0
 16 30  1  0  0  0  0
 16 31  1  0  0  0  0
 16 73  1  0  0  0  0
 17 45  1  0  0  0  0
 17 93  1  0  0  0  0
 18 19  1  0  0  0  0
 18 20  1  0  0  0  0
 18 52  1  0  0  0  0
 18 53  1  0  0  0  0
 19 21  1  0  0  0  0
 19 54  1  0  0  0  0
 20 22  1  0  0  0  0
 20 23  1  0  0  0  0
 20 55  1  0  0  0  0
 22 57  1  0  0  0  0
 22 58  1  0  0  0  0
 22 59  1  0  0  0  0
 23 60  1  0  0  0  0
 23 61  1  0  0  0  0
 23 62  1  0  0  0  0
 24 25  1  0  0  0  0
 24 26  1  0  0  0  0
 24 63  1  0  0  0  0
 26 28  1  0  0  0  0
 26 64  1  0  0  0  0
 26 65  1  0  0  0  0
 27 29  1  0  0  0  0
 27 30  1  0  0  0  0
 27 67  1  0  0  0  0
 28 34  1  0  0  0  0
 28 69  1  0  0  0  0
 28 70  1  0  0  0  0
 29 71  1  0  0  0  0
 29 72  1  0  0  0  0
 31 33  1  0  0  0  0
 31 74  1  0  0  0  0
 31 75  1  0  0  0  0
 33 35  1  0  0  0  0
 33 76  1  0  0  0  0
 33 77  1  0  0  0  0
 35 38  2  0  0  0  0
 35 39  1  0  0  0  0
 36 37  1  0  0  0  0
 36 41  1  0  0  0  0
 36 42  1  0  0  0  0
 36 78  1  0  0  0  0
 37 79  1  0  0  0  0
 37 80  1  0  0  0  0
 38 43  1  0  0  0  0
 38 82  1  0  0  0  0
 39 44  2  0  0  0  0
 39 83  1  0  0  0  0
 40 43  2  0  0  0  0
 40 44  1  0  0  0  0
 41 84  1  0  0  0  0
 41 85  1  0  0  0  0
 41 86  1  0  0  0  0
 42 87  1  0  0  0  0
 42 88  1  0  0  0  0
 42 89  1  0  0  0  0
 43 90  1  0  0  0  0
 44 91  1  0  0  0  0
 45 46  1  0  0  0  0
 46 47  2  0  0  0  0
 46 48  1  0  0  0  0
 47 49  1  0  0  0  0
 47 94  1  0  0  0  0
 48 50  2  0  0  0  0
 48 95  1  0  0  0  0
 49 51  2  0  0  0  0
 49 96  1  0  0  0  0
 50 51  1  0  0  0  0
 50 97  1  0  0  0  0
 51 98  1  0  0  0  0
M  END
> <PUBCHEM_COMPOUND_CID>
507461
> <PUBCHEM_COMPOUND_CANONICALIZED>
1
> <PUBCHEM_CACTVS_COMPLEXITY>
1280
> <PUBCHEM_CACTVS_HBOND_ACCEPTOR>
11
> <PUBCHEM_CACTVS_HBOND_DONOR>
7
> <PUBCHEM_CACTVS_ROTATABLE_BOND>
21
> <PUBCHEM_CACTVS_SUBSKEYS>
AAADcfB/vABgAAAAAAAAAAAAAAAAAAAAAAAwYAAAAAAAAAABQAAAHgQQSAAADSjl2AayCYLABgaIAiHSGHDCABAkAAAIiJmIBMkIYDKAlTGcYQBklgCIiYe8n4KOEAAAAAAAAAAgAAAAAAAAAAAAAAAAAA==
> <PUBCHEM_IUPAC_OPENEYE_NAME>
(4S)-5-[[(1S)-1-[[(1R)-2-[2-[4-(benzoylsulfamoyl)phenyl]ethylamino]-2-oxo-1-(sulfanylmethyl)ethyl]carbamoyl]-3-methyl-butyl]amino]-4-(isobutoxycarbonylamino)-5-oxo-pentanoic acid
> <PUBCHEM_IUPAC_CAS_NAME>
(4S)-5-[[(2S)-1-[[(2R)-1-[2-[4-(benzoylsulfamoyl)phenyl]ethylamino]-3-mercapto-1-oxopropan-2-yl]amino]-4-methyl-1-oxopentan-2-yl]amino]-4-[[2-methylpropoxy(oxo)methyl]amino]-5-oxopentanoic acid
> <PUBCHEM_IUPAC_NAME_MARKUP>
(4<I>S</I>)-5-[[(2<I>S</I>)-1-[[(2<I>R</I>)-1-[2-[4-(benzoylsulfamoyl)phenyl]ethylamino]-1-oxo-3-sulfanylpropan-2-yl]amino]-4-methyl-1-oxopentan-2-yl]amino]-4-(2-methylpropoxycarbonylamino)-5-oxopentanoic acid
> <PUBCHEM_IUPAC_NAME>
(4S)-5-[[(2S)-1-[[(2R)-1-[2-[4-(benzoylsulfamoyl)phenyl]ethylamino]-1-oxo-3-sulfanylpropan-2-yl]amino]-4-methyl-1-oxopentan-2-yl]amino]-4-(2-methylpropoxycarbonylamino)-5-oxopentanoic acid
> <PUBCHEM_IUPAC_SYSTEMATIC_NAME>
(4S)-5-[[(2S)-4-methyl-1-oxidanylidene-1-[[(2R)-1-oxidanylidene-1-[2-[4-(phenylcarbonylsulfamoyl)phenyl]ethylamino]-3-sulfanyl-propan-2-yl]amino]pentan-2-yl]amino]-4-(2-methylpropoxycarbonylamino)-5-oxidanylidene-pentanoic acid
> <PUBCHEM_IUPAC_TRADITIONAL_NAME>
(4S)-5-[[(1S)-1-[[(1R)-2-[2-[4-(benzoylsulfamoyl)phenyl]ethylamino]-2-keto-1-(mercaptomethyl)ethyl]carbamoyl]-3-methyl-butyl]amino]-4-(isobutoxycarbonylamino)-5-keto-valeric acid
> <PUBCHEM_IUPAC_INCHI>
InChI=1S/C34H47N5O10S2/c1-21(2)18-27(36-32(44)26(14-15-29(40)41)38-34(46)49-19-22(3)4)33(45)37-28(20-50)31(43)35-17-16-23-10-12-25(13-11-23)51(47,48)39-30(42)24-8-6-5-7-9-24/h5-13,21-22,26-28,50H,14-20H2,1-4H3,(H,35,43)(H,36,44)(H,37,45)(H,38,46)(H,39,42)(H,40,41)/t26-,27-,28-/m0/s1
> <PUBCHEM_IUPAC_INCHIKEY>
FCKKBOVAFSFIPG-KCHLEUMXSA-N
> <PUBCHEM_XLOGP3_AA>
3.6
> <PUBCHEM_EXACT_MASS>
749.27643506
> <PUBCHEM_MOLECULAR_FORMULA>
C34H47N5O10S2
> <PUBCHEM_MOLECULAR_WEIGHT>
749.9
> <PUBCHEM_OPENEYE_CAN_SMILES>
CC(C)CC(C(=O)NC(CS)C(=O)NCCC1=CC=C(C=C1)S(=O)(=O)NC(=O)C2=CC=CC=C2)NC(=O)C(CCC(=O)O)NC(=O)OCC(C)C
> <PUBCHEM_OPENEYE_ISO_SMILES>
CC(C)C[C@@H](C(=O)N[C@@H](CS)C(=O)NCCC1=CC=C(C=C1)S(=O)(=O)NC(=O)C2=CC=CC=C2)NC(=O)[C@H](CCC(=O)O)NC(=O)OCC(C)C
> <PUBCHEM_CACTVS_TPSA>
236
> <PUBCHEM_MONOISOTOPIC_WEIGHT>
749.27643506
> <PUBCHEM_TOTAL_CHARGE>
0
> <PUBCHEM_HEAVY_ATOM_COUNT>
51
> <PUBCHEM_ATOM_DEF_STEREO_COUNT>
3
> <PUBCHEM_ATOM_UDEF_STEREO_COUNT>
0
> <PUBCHEM_BOND_DEF_STEREO_COUNT>
0
> <PUBCHEM_BOND_UDEF_STEREO_COUNT>
0
> <PUBCHEM_ISOTOPIC_ATOM_COUNT>
0
> <PUBCHEM_COMPONENT_COUNT>
1
> <PUBCHEM_CACTVS_TAUTO_COUNT>
-1
> <PUBCHEM_COORDINATE_TYPE>
1
5
255
> <PUBCHEM_BONDANNOTATIONS>
19  13  5
27  14  6
24  15  5
35  38  8
35  39  8
38  43  8
39  44  8
40  43  8
40  44  8
46  47  8
46  48  8
47  49  8
48  50  8
49  51  8
50  51  8
$$$$
