507490
  -OEChem-10302200282D
 87 88  0     1  0  0  0  0  0999 V2000
    9.4651   -0.0000    0.0000 S   0  0  0  0  0  0  0  0  0  0  0  0
    8.5991    0.5000    0.0000 O   0  0  0  0  0  0  0  0  0  0  0  0
    7.7331   -0.0000    0.0000 O   0  0  0  0  0  0  0  0  0  0  0  0
    5.1350   -2.5000    0.0000 O   0  0  0  0  0  0  0  0  0  0  0  0
   11.1972    3.0000    0.0000 O   0  0  0  0  0  0  0  0  0  0  0  0
    2.5369    0.0000    0.0000 O   0  0  0  0  0  0  0  0  0  0  0  0
    4.2690   -1.0000    0.0000 O   0  0  0  0  0  0  0  0  0  0  0  0
    3.4030    1.5000    0.0000 O   0  0  0  0  0  0  0  0  0  0  0  0
    6.8671    1.5000    0.0000 N   0  0  0  0  0  0  0  0  0  0  0  0
    9.4651    2.0000    0.0000 N   0  0  0  0  0  0  0  0  0  0  0  0
    6.0010   -1.0000    0.0000 N   0  0  0  0  0  0  0  0  0  0  0  0
   12.0632    1.5000    0.0000 N   0  0  0  0  0  0  0  0  0  0  0  0
    7.7331    3.0000    0.0000 C   0  0  0  0  0  0  0  0  0  0  0  0
    7.7331    2.0000    0.0000 C   0  0  1  0  0  0  0  0  0  0  0  0
    6.8671    3.5000    0.0000 C   0  0  0  0  0  0  0  0  0  0  0  0
    8.5991    1.5000    0.0000 C   0  0  0  0  0  0  0  0  0  0  0  0
    6.0010    0.0000    0.0000 C   0  0  2  0  0  0  0  0  0  0  0  0
    6.8671    4.5000    0.0000 C   0  0  0  0  0  0  0  0  0  0  0  0
    6.0010    3.0000    0.0000 C   0  0  0  0  0  0  0  0  0  0  0  0
    6.8671    0.5000    0.0000 C   0  0  0  0  0  0  0  0  0  0  0  0
    5.1350    0.5000    0.0000 C   0  0  0  0  0  0  0  0  0  0  0  0
   10.3312    1.5000    0.0000 C   0  0  1  0  0  0  0  0  0  0  0  0
    4.2690    0.0000    0.0000 C   0  0  0  0  0  0  0  0  0  0  0  0
   10.3312    0.5000    0.0000 C   0  0  0  0  0  0  0  0  0  0  0  0
   11.1972    2.0000    0.0000 C   0  0  0  0  0  0  0  0  0  0  0  0
   12.9292    2.0000    0.0000 C   0  0  0  0  0  0  0  0  0  0  0  0
   13.7953    1.5000    0.0000 C   0  0  0  0  0  0  0  0  0  0  0  0
    5.1350   -1.5000    0.0000 C   0  0  0  0  0  0  0  0  0  0  0  0
   14.6613    2.0000    0.0000 C   0  0  0  0  0  0  0  0  0  0  0  0
    3.4030    0.5000    0.0000 C   0  0  0  0  0  0  0  0  0  0  0  0
    4.2690   -4.0000    0.0000 C   0  0  0  0  0  0  0  0  0  0  0  0
    4.2690   -3.0000    0.0000 C   0  0  0  0  0  0  0  0  0  0  0  0
   15.5273    1.5000    0.0000 C   0  0  0  0  0  0  0  0  0  0  0  0
   16.3933    2.0000    0.0000 C   0  0  0  0  0  0  0  0  0  0  0  0
   14.6613    3.0000    0.0000 C   0  0  0  0  0  0  0  0  0  0  0  0
   16.3933    3.0000    0.0000 C   0  0  0  0  0  0  0  0  0  0  0  0
   15.5273    3.5000    0.0000 C   0  0  0  0  0  0  0  0  0  0  0  0
    3.4030   -4.5000    0.0000 C   0  0  0  0  0  0  0  0  0  0  0  0
    5.1350   -4.5000    0.0000 C   0  0  0  0  0  0  0  0  0  0  0  0
   17.2873    1.4653    0.0000 C   0  0  0  0  0  0  0  0  0  0  0  0
   17.2873    3.5347    0.0000 C   0  0  0  0  0  0  0  0  0  0  0  0
   18.1934    1.9792    0.0000 C   0  0  0  0  0  0  0  0  0  0  0  0
   18.1934    3.0208    0.0000 C   0  0  0  0  0  0  0  0  0  0  0  0
    8.3437    2.8923    0.0000 H   0  0  0  0  0  0  0  0  0  0  0  0
    7.9451    3.5826    0.0000 H   0  0  0  0  0  0  0  0  0  0  0  0
    7.7331    1.3800    0.0000 H   0  0  0  0  0  0  0  0  0  0  0  0
    6.3301    3.8100    0.0000 H   0  0  0  0  0  0  0  0  0  0  0  0
    6.3301    1.8100    0.0000 H   0  0  0  0  0  0  0  0  0  0  0  0
    6.5380   -0.3100    0.0000 H   0  0  0  0  0  0  0  0  0  0  0  0
    7.4871    4.5000    0.0000 H   0  0  0  0  0  0  0  0  0  0  0  0
    6.8671    5.1200    0.0000 H   0  0  0  0  0  0  0  0  0  0  0  0
    6.2471    4.5000    0.0000 H   0  0  0  0  0  0  0  0  0  0  0  0
    5.6910    3.5369    0.0000 H   0  0  0  0  0  0  0  0  0  0  0  0
    5.4641    2.6900    0.0000 H   0  0  0  0  0  0  0  0  0  0  0  0
    6.3110    2.4631    0.0000 H   0  0  0  0  0  0  0  0  0  0  0  0
    5.5335    0.9749    0.0000 H   0  0  0  0  0  0  0  0  0  0  0  0
    4.7365    0.9749    0.0000 H   0  0  0  0  0  0  0  0  0  0  0  0
    9.7942    1.1900    0.0000 H   0  0  0  0  0  0  0  0  0  0  0  0
    9.4651    2.6200    0.0000 H   0  0  0  0  0  0  0  0  0  0  0  0
    6.5380   -1.3100    0.0000 H   0  0  0  0  0  0  0  0  0  0  0  0
    3.8705   -0.4749    0.0000 H   0  0  0  0  0  0  0  0  0  0  0  0
    4.6675   -0.4749    0.0000 H   0  0  0  0  0  0  0  0  0  0  0  0
   10.5432   -0.0826    0.0000 H   0  0  0  0  0  0  0  0  0  0  0  0
   10.9417    0.6077    0.0000 H   0  0  0  0  0  0  0  0  0  0  0  0
   13.3278    2.4750    0.0000 H   0  0  0  0  0  0  0  0  0  0  0  0
   12.5307    2.4750    0.0000 H   0  0  0  0  0  0  0  0  0  0  0  0
   12.0632    0.8800    0.0000 H   0  0  0  0  0  0  0  0  0  0  0  0
   13.3967    1.0250    0.0000 H   0  0  0  0  0  0  0  0  0  0  0  0
   14.1938    1.0250    0.0000 H   0  0  0  0  0  0  0  0  0  0  0  0
    4.2690   -4.6200    0.0000 H   0  0  0  0  0  0  0  0  0  0  0  0
    4.0569   -2.4174    0.0000 H   0  0  0  0  0  0  0  0  0  0  0  0
    3.6584   -3.1077    0.0000 H   0  0  0  0  0  0  0  0  0  0  0  0
   15.5273    0.8800    0.0000 H   0  0  0  0  0  0  0  0  0  0  0  0
    9.4651   -0.6200    0.0000 H   0  0  0  0  0  0  0  0  0  0  0  0
   14.1244    3.3100    0.0000 H   0  0  0  0  0  0  0  0  0  0  0  0
   15.5273    4.1200    0.0000 H   0  0  0  0  0  0  0  0  0  0  0  0
    3.0930   -3.9631    0.0000 H   0  0  0  0  0  0  0  0  0  0  0  0
    2.8660   -4.8100    0.0000 H   0  0  0  0  0  0  0  0  0  0  0  0
    3.7130   -5.0369    0.0000 H   0  0  0  0  0  0  0  0  0  0  0  0
    4.8250   -5.0369    0.0000 H   0  0  0  0  0  0  0  0  0  0  0  0
    5.6720   -4.8100    0.0000 H   0  0  0  0  0  0  0  0  0  0  0  0
    5.4450   -3.9631    0.0000 H   0  0  0  0  0  0  0  0  0  0  0  0
   17.2801    0.8454    0.0000 H   0  0  0  0  0  0  0  0  0  0  0  0
   17.2801    4.1546    0.0000 H   0  0  0  0  0  0  0  0  0  0  0  0
    2.0000    0.3100    0.0000 H   0  0  0  0  0  0  0  0  0  0  0  0
   18.7291    1.6671    0.0000 H   0  0  0  0  0  0  0  0  0  0  0  0
   18.7291    3.3329    0.0000 H   0  0  0  0  0  0  0  0  0  0  0  0
  1 24  1  0  0  0  0
  1 74  1  0  0  0  0
  2 16  2  0  0  0  0
  3 20  2  0  0  0  0
  4 28  1  0  0  0  0
  4 32  1  0  0  0  0
  5 25  2  0  0  0  0
  6 30  1  0  0  0  0
  6 85  1  0  0  0  0
  7 28  2  0  0  0  0
  8 30  2  0  0  0  0
 14  9  1  1  0  0  0
  9 20  1  0  0  0  0
  9 48  1  0  0  0  0
 10 16  1  0  0  0  0
 22 10  1  6  0  0  0
 10 59  1  0  0  0  0
 17 11  1  1  0  0  0
 11 28  1  0  0  0  0
 11 60  1  0  0  0  0
 12 25  1  0  0  0  0
 12 26  1  0  0  0  0
 12 67  1  0  0  0  0
 13 14  1  0  0  0  0
 13 15  1  0  0  0  0
 13 44  1  0  0  0  0
 13 45  1  0  0  0  0
 14 16  1  0  0  0  0
 14 46  1  0  0  0  0
 15 18  1  0  0  0  0
 15 19  1  0  0  0  0
 15 47  1  0  0  0  0
 17 20  1  0  0  0  0
 17 21  1  0  0  0  0
 17 49  1  0  0  0  0
 18 50  1  0  0  0  0
 18 51  1  0  0  0  0
 18 52  1  0  0  0  0
 19 53  1  0  0  0  0
 19 54  1  0  0  0  0
 19 55  1  0  0  0  0
 21 23  1  0  0  0  0
 21 56  1  0  0  0  0
 21 57  1  0  0  0  0
 22 24  1  0  0  0  0
 22 25  1  0  0  0  0
 22 58  1  0  0  0  0
 23 30  1  0  0  0  0
 23 61  1  0  0  0  0
 23 62  1  0  0  0  0
 24 63  1  0  0  0  0
 24 64  1  0  0  0  0
 26 27  1  0  0  0  0
 26 65  1  0  0  0  0
 26 66  1  0  0  0  0
 27 29  1  0  0  0  0
 27 68  1  0  0  0  0
 27 69  1  0  0  0  0
 29 33  2  0  0  0  0
 29 35  1  0  0  0  0
 31 32  1  0  0  0  0
 31 38  1  0  0  0  0
 31 39  1  0  0  0  0
 31 70  1  0  0  0  0
 32 71  1  0  0  0  0
 32 72  1  0  0  0  0
 33 34  1  0  0  0  0
 33 73  1  0  0  0  0
 34 36  1  0  0  0  0
 34 40  2  0  0  0  0
 35 37  2  0  0  0  0
 35 75  1  0  0  0  0
 36 37  1  0  0  0  0
 36 41  2  0  0  0  0
 37 76  1  0  0  0  0
 38 77  1  0  0  0  0
 38 78  1  0  0  0  0
 38 79  1  0  0  0  0
 39 80  1  0  0  0  0
 39 81  1  0  0  0  0
 39 82  1  0  0  0  0
 40 42  1  0  0  0  0
 40 83  1  0  0  0  0
 41 43  1  0  0  0  0
 41 84  1  0  0  0  0
 42 43  2  0  0  0  0
 42 86  1  0  0  0  0
 43 87  1  0  0  0  0
M  END
> <PUBCHEM_COMPOUND_CID>
507490
> <PUBCHEM_COMPOUND_CANONICALIZED>
1
> <PUBCHEM_CACTVS_COMPLEXITY>
932
> <PUBCHEM_CACTVS_HBOND_ACCEPTOR>
8
> <PUBCHEM_CACTVS_HBOND_DONOR>
6
> <PUBCHEM_CACTVS_ROTATABLE_BOND>
18
> <PUBCHEM_CACTVS_SUBSKEYS>
AAADcfB7uABAAAAAAAAAAAAAAAAAAAAAAAAwYAAAAAAAAADBUAAAHgQQCAAADSjl2AayCMLABgSIAiHSGAACAAAgAAAIiIGIAIkIYDKAkTGcYAAklgCIiAe8l8IOwAACAAAQAACAAAQAACAAAAAAAAAAAA==
> <PUBCHEM_IUPAC_OPENEYE_NAME>
(4S)-4-(isobutoxycarbonylamino)-5-[[(1S)-3-methyl-1-[[(1R)-2-[2-(2-naphthyl)ethylamino]-2-oxo-1-(sulfanylmethyl)ethyl]carbamoyl]butyl]amino]-5-oxo-pentanoic acid
> <PUBCHEM_IUPAC_CAS_NAME>
(4S)-5-[[(2S)-1-[[(2R)-3-mercapto-1-[2-(2-naphthalenyl)ethylamino]-1-oxopropan-2-yl]amino]-4-methyl-1-oxopentan-2-yl]amino]-4-[[2-methylpropoxy(oxo)methyl]amino]-5-oxopentanoic acid
> <PUBCHEM_IUPAC_NAME_MARKUP>
(4<I>S</I>)-5-[[(2<I>S</I>)-4-methyl-1-[[(2<I>R</I>)-1-(2-naphthalen-2-ylethylamino)-1-oxo-3-sulfanylpropan-2-yl]amino]-1-oxopentan-2-yl]amino]-4-(2-methylpropoxycarbonylamino)-5-oxopentanoic acid
> <PUBCHEM_IUPAC_NAME>
(4S)-5-[[(2S)-4-methyl-1-[[(2R)-1-(2-naphthalen-2-ylethylamino)-1-oxo-3-sulfanylpropan-2-yl]amino]-1-oxopentan-2-yl]amino]-4-(2-methylpropoxycarbonylamino)-5-oxopentanoic acid
> <PUBCHEM_IUPAC_SYSTEMATIC_NAME>
(4S)-5-[[(2S)-4-methyl-1-[[(2R)-1-(2-naphthalen-2-ylethylamino)-1-oxidanylidene-3-sulfanyl-propan-2-yl]amino]-1-oxidanylidene-pentan-2-yl]amino]-4-(2-methylpropoxycarbonylamino)-5-oxidanylidene-pentanoic acid
> <PUBCHEM_IUPAC_TRADITIONAL_NAME>
(4S)-4-(isobutoxycarbonylamino)-5-keto-5-[[(1S)-1-[[(1R)-2-keto-1-(mercaptomethyl)-2-[2-(2-naphthyl)ethylamino]ethyl]carbamoyl]-3-methyl-butyl]amino]valeric acid
> <PUBCHEM_IUPAC_INCHI>
InChI=1S/C31H44N4O7S/c1-19(2)15-25(33-29(39)24(11-12-27(36)37)35-31(41)42-17-20(3)4)30(40)34-26(18-43)28(38)32-14-13-21-9-10-22-7-5-6-8-23(22)16-21/h5-10,16,19-20,24-26,43H,11-15,17-18H2,1-4H3,(H,32,38)(H,33,39)(H,34,40)(H,35,41)(H,36,37)/t24-,25-,26-/m0/s1
> <PUBCHEM_IUPAC_INCHIKEY>
XZXMOSSDYIBDOQ-GSDHBNRESA-N
> <PUBCHEM_XLOGP3_AA>
4.5
> <PUBCHEM_EXACT_MASS>
616.29307093
> <PUBCHEM_MOLECULAR_FORMULA>
C31H44N4O7S
> <PUBCHEM_MOLECULAR_WEIGHT>
616.8
> <PUBCHEM_OPENEYE_CAN_SMILES>
CC(C)CC(C(=O)NC(CS)C(=O)NCCC1=CC2=CC=CC=C2C=C1)NC(=O)C(CCC(=O)O)NC(=O)OCC(C)C
> <PUBCHEM_OPENEYE_ISO_SMILES>
CC(C)C[C@@H](C(=O)N[C@@H](CS)C(=O)NCCC1=CC2=CC=CC=C2C=C1)NC(=O)[C@H](CCC(=O)O)NC(=O)OCC(C)C
> <PUBCHEM_CACTVS_TPSA>
164
> <PUBCHEM_MONOISOTOPIC_WEIGHT>
616.29307093
> <PUBCHEM_TOTAL_CHARGE>
0
> <PUBCHEM_HEAVY_ATOM_COUNT>
43
> <PUBCHEM_ATOM_DEF_STEREO_COUNT>
3
> <PUBCHEM_ATOM_UDEF_STEREO_COUNT>
0
> <PUBCHEM_BOND_DEF_STEREO_COUNT>
0
> <PUBCHEM_BOND_UDEF_STEREO_COUNT>
0
> <PUBCHEM_ISOTOPIC_ATOM_COUNT>
0
> <PUBCHEM_COMPONENT_COUNT>
1
> <PUBCHEM_CACTVS_TAUTO_COUNT>
-1
> <PUBCHEM_COORDINATE_TYPE>
1
5
255
> <PUBCHEM_BONDANNOTATIONS>
22  10  6
17  11  5
29  33  8
29  35  8
33  34  8
34  36  8
34  40  8
35  37  8
36  37  8
36  41  8
40  42  8
41  43  8
42  43  8
14  9  5
$$$$
