507402
  -OEChem-10302200282D
 88 93  0     1  0  0  0  0  0999 V2000
    8.5620    3.5935    0.0000 O   0  0  0  0  0  0  0  0  0  0  0  0
    6.2619   -3.5935    0.0000 O   0  0  0  0  0  0  0  0  0  0  0  0
    9.2136   -0.0628    0.0000 O   0  0  0  0  0  0  0  0  0  0  0  0
    5.6103    0.0628    0.0000 O   0  0  0  0  0  0  0  0  0  0  0  0
    6.8994    1.2196    0.0000 O   0  0  0  0  0  0  0  0  0  0  0  0
    7.9244   -1.2196    0.0000 O   0  0  0  0  0  0  0  0  0  0  0  0
    8.1886    2.3763    0.0000 O   0  0  0  0  0  0  0  0  0  0  0  0
    6.6353   -2.3763    0.0000 O   0  0  0  0  0  0  0  0  0  0  0  0
    9.8349    1.8382    0.0000 N   0  0  0  0  0  0  0  0  0  0  0  0
    4.9889   -1.8382    0.0000 N   0  0  0  0  0  0  0  0  0  0  0  0
   10.1456    2.7887    0.0000 C   0  0  3  0  0  0  0  0  0  0  0  0
    4.6783   -2.7887    0.0000 C   0  0  2  0  0  0  0  0  0  0  0  0
    9.5620    3.5935    0.0000 C   0  0  3  0  0  0  0  0  0  0  0  0
    5.2619   -3.5935    0.0000 C   0  0  3  0  0  0  0  0  0  0  0  0
   10.1456    4.3982    0.0000 C   0  0  0  0  0  0  0  0  0  0  0  0
    4.6783   -4.3982    0.0000 C   0  0  0  0  0  0  0  0  0  0  0  0
   11.0918    3.0935    0.0000 C   0  0  0  0  0  0  0  0  0  0  0  0
    3.7320   -3.0935    0.0000 C   0  0  0  0  0  0  0  0  0  0  0  0
   11.0918    4.0935    0.0000 C   0  0  0  0  0  0  0  0  0  0  0  0
    3.7320   -4.0935    0.0000 C   0  0  0  0  0  0  0  0  0  0  0  0
    7.5673    0.4753    0.0000 C   0  0  2  0  0  0  0  0  0  0  0  0
    7.2566   -0.4753    0.0000 C   0  0  2  0  0  0  0  0  0  0  0  0
    8.5458    0.6815    0.0000 C   0  0  2  0  0  0  0  0  0  0  0  0
    6.2781   -0.6815    0.0000 C   0  0  2  0  0  0  0  0  0  0  0  0
    8.8564    1.6320    0.0000 C   0  0  0  0  0  0  0  0  0  0  0  0
    5.9674   -1.6320    0.0000 C   0  0  0  0  0  0  0  0  0  0  0  0
   11.9579    2.5935    0.0000 C   0  0  0  0  0  0  0  0  0  0  0  0
    2.8660   -2.5935    0.0000 C   0  0  0  0  0  0  0  0  0  0  0  0
   11.9579    4.5935    0.0000 C   0  0  0  0  0  0  0  0  0  0  0  0
    2.8660   -4.5935    0.0000 C   0  0  0  0  0  0  0  0  0  0  0  0
   12.8239    3.0935    0.0000 C   0  0  0  0  0  0  0  0  0  0  0  0
    2.0000   -3.0935    0.0000 C   0  0  0  0  0  0  0  0  0  0  0  0
   12.8239    4.0935    0.0000 C   0  0  0  0  0  0  0  0  0  0  0  0
    2.0000   -4.0935    0.0000 C   0  0  0  0  0  0  0  0  0  0  0  0
   10.1921    0.1434    0.0000 C   0  0  0  0  0  0  0  0  0  0  0  0
    5.9209    1.0133    0.0000 C   0  0  0  0  0  0  0  0  0  0  0  0
   10.8600   -0.6009    0.0000 C   0  0  0  0  0  0  0  0  0  0  0  0
    5.2531    1.7576    0.0000 C   0  0  0  0  0  0  0  0  0  0  0  0
   11.8385   -0.3947    0.0000 C   0  0  0  0  0  0  0  0  0  0  0  0
   10.5493   -1.5514    0.0000 C   0  0  0  0  0  0  0  0  0  0  0  0
    5.5637    2.7082    0.0000 C   0  0  0  0  0  0  0  0  0  0  0  0
    4.2746    1.5514    0.0000 C   0  0  0  0  0  0  0  0  0  0  0  0
   12.5063   -1.1390    0.0000 C   0  0  0  0  0  0  0  0  0  0  0  0
   11.2171   -2.2957    0.0000 C   0  0  0  0  0  0  0  0  0  0  0  0
    4.8959    3.4525    0.0000 C   0  0  0  0  0  0  0  0  0  0  0  0
    3.6067    2.2957    0.0000 C   0  0  0  0  0  0  0  0  0  0  0  0
   12.1957   -2.0895    0.0000 C   0  0  0  0  0  0  0  0  0  0  0  0
    3.9174    3.2462    0.0000 C   0  0  0  0  0  0  0  0  0  0  0  0
   10.5831    2.3494    0.0000 H   0  0  0  0  0  0  0  0  0  0  0  0
    5.2908   -2.6925    0.0000 H   0  0  0  0  0  0  0  0  0  0  0  0
    9.2803    4.1458    0.0000 H   0  0  0  0  0  0  0  0  0  0  0  0
    5.5436   -4.1458    0.0000 H   0  0  0  0  0  0  0  0  0  0  0  0
   10.3966    4.9651    0.0000 H   0  0  0  0  0  0  0  0  0  0  0  0
    9.6082    4.7074    0.0000 H   0  0  0  0  0  0  0  0  0  0  0  0
    4.4272   -4.9651    0.0000 H   0  0  0  0  0  0  0  0  0  0  0  0
    5.2156   -4.7074    0.0000 H   0  0  0  0  0  0  0  0  0  0  0  0
    6.9606    0.3474    0.0000 H   0  0  0  0  0  0  0  0  0  0  0  0
    7.0640   -1.0646    0.0000 H   0  0  0  0  0  0  0  0  0  0  0  0
   10.2490    1.3768    0.0000 H   0  0  0  0  0  0  0  0  0  0  0  0
    4.5749   -1.3768    0.0000 H   0  0  0  0  0  0  0  0  0  0  0  0
    8.3532    0.0922    0.0000 H   0  0  0  0  0  0  0  0  0  0  0  0
    5.6714   -0.8093    0.0000 H   0  0  0  0  0  0  0  0  0  0  0  0
   11.9579    1.9735    0.0000 H   0  0  0  0  0  0  0  0  0  0  0  0
    2.8660   -1.9735    0.0000 H   0  0  0  0  0  0  0  0  0  0  0  0
   11.9579    5.2135    0.0000 H   0  0  0  0  0  0  0  0  0  0  0  0
    2.8660   -5.2135    0.0000 H   0  0  0  0  0  0  0  0  0  0  0  0
    8.2520    4.1304    0.0000 H   0  0  0  0  0  0  0  0  0  0  0  0
    6.5719   -4.1304    0.0000 H   0  0  0  0  0  0  0  0  0  0  0  0
   13.3608    2.7835    0.0000 H   0  0  0  0  0  0  0  0  0  0  0  0
    1.4631   -2.7835    0.0000 H   0  0  0  0  0  0  0  0  0  0  0  0
   13.3608    4.4035    0.0000 H   0  0  0  0  0  0  0  0  0  0  0  0
    1.4631   -4.4035    0.0000 H   0  0  0  0  0  0  0  0  0  0  0  0
    7.0920    1.8089    0.0000 H   0  0  0  0  0  0  0  0  0  0  0  0
    8.5311   -1.0917    0.0000 H   0  0  0  0  0  0  0  0  0  0  0  0
   10.7185    0.4710    0.0000 H   0  0  0  0  0  0  0  0  0  0  0  0
    9.9609    0.7187    0.0000 H   0  0  0  0  0  0  0  0  0  0  0  0
    6.4678    0.7213    0.0000 H   0  0  0  0  0  0  0  0  0  0  0  0
    6.3035    1.5012    0.0000 H   0  0  0  0  0  0  0  0  0  0  0  0
   12.0311    0.1946    0.0000 H   0  0  0  0  0  0  0  0  0  0  0  0
    9.9426   -1.6793    0.0000 H   0  0  0  0  0  0  0  0  0  0  0  0
    6.1704    2.8360    0.0000 H   0  0  0  0  0  0  0  0  0  0  0  0
    4.0820    0.9621    0.0000 H   0  0  0  0  0  0  0  0  0  0  0  0
   13.1130   -1.0111    0.0000 H   0  0  0  0  0  0  0  0  0  0  0  0
   11.0245   -2.8850    0.0000 H   0  0  0  0  0  0  0  0  0  0  0  0
    5.0885    4.0418    0.0000 H   0  0  0  0  0  0  0  0  0  0  0  0
    3.0000    2.1679    0.0000 H   0  0  0  0  0  0  0  0  0  0  0  0
   12.6097   -2.5510    0.0000 H   0  0  0  0  0  0  0  0  0  0  0  0
    3.5033    3.7077    0.0000 H   0  0  0  0  0  0  0  0  0  0  0  0
  1 13  1  0  0  0  0
  1 67  1  0  0  0  0
  2 14  1  0  0  0  0
  2 68  1  0  0  0  0
 23  3  1  6  0  0  0
  3 35  1  0  0  0  0
 24  4  1  6  0  0  0
  4 36  1  0  0  0  0
 21  5  1  1  0  0  0
  5 73  1  0  0  0  0
 22  6  1  1  0  0  0
  6 74  1  0  0  0  0
  7 25  2  0  0  0  0
  8 26  2  0  0  0  0
  9 11  1  0  0  0  0
  9 25  1  0  0  0  0
  9 59  1  0  0  0  0
 12 10  1  6  0  0  0
 10 26  1  0  0  0  0
 10 60  1  0  0  0  0
 11 13  1  0  0  0  0
 11 17  1  0  0  0  0
 11 49  1  0  0  0  0
 12 14  1  0  0  0  0
 12 18  1  0  0  0  0
 12 50  1  0  0  0  0
 13 15  1  0  0  0  0
 13 51  1  0  0  0  0
 14 16  1  0  0  0  0
 14 52  1  0  0  0  0
 15 19  1  0  0  0  0
 15 53  1  0  0  0  0
 15 54  1  0  0  0  0
 16 20  1  0  0  0  0
 16 55  1  0  0  0  0
 16 56  1  0  0  0  0
 17 19  1  0  0  0  0
 17 27  2  0  0  0  0
 18 20  1  0  0  0  0
 18 28  2  0  0  0  0
 19 29  2  0  0  0  0
 20 30  2  0  0  0  0
 21 22  1  0  0  0  0
 21 23  1  0  0  0  0
 21 57  1  0  0  0  0
 22 24  1  0  0  0  0
 22 58  1  0  0  0  0
 23 25  1  0  0  0  0
 23 61  1  0  0  0  0
 24 26  1  0  0  0  0
 24 62  1  0  0  0  0
 27 31  1  0  0  0  0
 27 63  1  0  0  0  0
 28 32  1  0  0  0  0
 28 64  1  0  0  0  0
 29 33  1  0  0  0  0
 29 65  1  0  0  0  0
 30 34  1  0  0  0  0
 30 66  1  0  0  0  0
 31 33  2  0  0  0  0
 31 69  1  0  0  0  0
 32 34  2  0  0  0  0
 32 70  1  0  0  0  0
 33 71  1  0  0  0  0
 34 72  1  0  0  0  0
 35 37  1  0  0  0  0
 35 75  1  0  0  0  0
 35 76  1  0  0  0  0
 36 38  1  0  0  0  0
 36 77  1  0  0  0  0
 36 78  1  0  0  0  0
 37 39  2  0  0  0  0
 37 40  1  0  0  0  0
 38 41  2  0  0  0  0
 38 42  1  0  0  0  0
 39 43  1  0  0  0  0
 39 79  1  0  0  0  0
 40 44  2  0  0  0  0
 40 80  1  0  0  0  0
 41 45  1  0  0  0  0
 41 81  1  0  0  0  0
 42 46  2  0  0  0  0
 42 82  1  0  0  0  0
 43 47  2  0  0  0  0
 43 83  1  0  0  0  0
 44 47  1  0  0  0  0
 44 84  1  0  0  0  0
 45 48  2  0  0  0  0
 45 85  1  0  0  0  0
 46 48  1  0  0  0  0
 46 86  1  0  0  0  0
 47 87  1  0  0  0  0
 48 88  1  0  0  0  0
M  END
> <PUBCHEM_COMPOUND_CID>
507402
> <PUBCHEM_COMPOUND_CANONICALIZED>
1
> <PUBCHEM_CACTVS_COMPLEXITY>
954
> <PUBCHEM_CACTVS_HBOND_ACCEPTOR>
8
> <PUBCHEM_CACTVS_HBOND_DONOR>
6
> <PUBCHEM_CACTVS_ROTATABLE_BOND>
13
> <PUBCHEM_CACTVS_SUBSKEYS>
AAADcfB/PAAAAAAAAAAAAAAAAAAAAYMAAAAwYMGAAAAAAGABVAAAHgAQCAAADDzhmAYwAILABgCIAiFSEAKCAAAgAAAIiIFIDIgLNjaAsR2HcAhn9gGbqAf63KJOgAAAAAAQAAAAAAAAACAAAKAACQgAAA==
> <PUBCHEM_IUPAC_OPENEYE_NAME>
(2R,3R,4R,5R)-2,5-dibenzyloxy-3,4-dihydroxy-N-[(1S)-2-hydroxyindan-1-yl]-N'-(2-hydroxyindan-1-yl)hexanediamide
> <PUBCHEM_IUPAC_CAS_NAME>
(2R,3R,4R,5R)-3,4-dihydroxy-N-[(1S)-2-hydroxy-2,3-dihydro-1H-inden-1-yl]-N'-(2-hydroxy-2,3-dihydro-1H-inden-1-yl)-2,5-bis(phenylmethoxy)hexanediamide
> <PUBCHEM_IUPAC_NAME_MARKUP>
(2<I>R</I>,3<I>R</I>,4<I>R</I>,5<I>R</I>)-3,4-dihydroxy-<I>N</I>-[(1<I>S</I>)-2-hydroxy-2,3-dihydro-1<I>H</I>-inden-1-yl]-<I>N</I>&apos;-(2-hydroxy-2,3-dihydro-1<I>H</I>-inden-1-yl)-2,5-bis(phenylmethoxy)hexanediamide
> <PUBCHEM_IUPAC_NAME>
(2R,3R,4R,5R)-3,4-dihydroxy-N-[(1S)-2-hydroxy-2,3-dihydro-1H-inden-1-yl]-N'-(2-hydroxy-2,3-dihydro-1H-inden-1-yl)-2,5-bis(phenylmethoxy)hexanediamide
> <PUBCHEM_IUPAC_SYSTEMATIC_NAME>
(2R,3R,4R,5R)-3,4-bis(oxidanyl)-N-[(1S)-2-oxidanyl-2,3-dihydro-1H-inden-1-yl]-N'-(2-oxidanyl-2,3-dihydro-1H-inden-1-yl)-2,5-bis(phenylmethoxy)hexanediamide
> <PUBCHEM_IUPAC_TRADITIONAL_NAME>
(2R,3R,4R,5R)-2,5-dibenzoxy-3,4-dihydroxy-N-[(1S)-2-hydroxyindan-1-yl]-N'-(2-hydroxyindan-1-yl)adipamide
> <PUBCHEM_IUPAC_INCHI>
InChI=1S/C38H40N2O8/c41-29-19-25-15-7-9-17-27(25)31(29)39-37(45)35(47-21-23-11-3-1-4-12-23)33(43)34(44)36(48-22-24-13-5-2-6-14-24)38(46)40-32-28-18-10-8-16-26(28)20-30(32)42/h1-18,29-36,41-44H,19-22H2,(H,39,45)(H,40,46)/t29?,30?,31-,32?,33+,34+,35+,36+/m0/s1
> <PUBCHEM_IUPAC_INCHIKEY>
UOHMQWQGAJAUGT-PPQFYXGYSA-N
> <PUBCHEM_XLOGP3_AA>
3.4
> <PUBCHEM_EXACT_MASS>
652.27846624
> <PUBCHEM_MOLECULAR_FORMULA>
C38H40N2O8
> <PUBCHEM_MOLECULAR_WEIGHT>
652.7
> <PUBCHEM_OPENEYE_CAN_SMILES>
C1C(C(C2=CC=CC=C21)NC(=O)C(C(C(C(C(=O)NC3C(CC4=CC=CC=C34)O)OCC5=CC=CC=C5)O)O)OCC6=CC=CC=C6)O
> <PUBCHEM_OPENEYE_ISO_SMILES>
C1C([C@H](C2=CC=CC=C21)NC(=O)[C@@H]([C@@H]([C@H]([C@H](C(=O)NC3C(CC4=CC=CC=C34)O)OCC5=CC=CC=C5)O)O)OCC6=CC=CC=C6)O
> <PUBCHEM_CACTVS_TPSA>
158
> <PUBCHEM_MONOISOTOPIC_WEIGHT>
652.27846624
> <PUBCHEM_TOTAL_CHARGE>
0
> <PUBCHEM_HEAVY_ATOM_COUNT>
48
> <PUBCHEM_ATOM_DEF_STEREO_COUNT>
5
> <PUBCHEM_ATOM_UDEF_STEREO_COUNT>
3
> <PUBCHEM_BOND_DEF_STEREO_COUNT>
0
> <PUBCHEM_BOND_UDEF_STEREO_COUNT>
0
> <PUBCHEM_ISOTOPIC_ATOM_COUNT>
0
> <PUBCHEM_COMPONENT_COUNT>
1
> <PUBCHEM_CACTVS_TAUTO_COUNT>
-1
> <PUBCHEM_COORDINATE_TYPE>
1
5
255
> <PUBCHEM_BONDANNOTATIONS>
13  1  3
12  10  6
17  19  8
17  27  8
18  20  8
18  28  8
19  29  8
14  2  3
20  30  8
27  31  8
28  32  8
29  33  8
23  3  6
30  34  8
31  33  8
32  34  8
37  39  8
37  40  8
38  41  8
38  42  8
39  43  8
24  4  6
40  44  8
41  45  8
42  46  8
43  47  8
44  47  8
45  48  8
46  48  8
21  5  5
22  6  5
11  9  3
$$$$
