507449
  -OEChem-10302200282D
 93 93  0     1  0  0  0  0  0999 V2000
    7.1962   -1.0000    0.0000 S   0  0  0  0  0  0  0  0  0  0  0  0
    6.3301   -1.5000    0.0000 O   0  0  0  0  0  0  0  0  0  0  0  0
    6.3301   -2.5000    0.0000 O   0  0  0  0  0  0  0  0  0  0  0  0
    7.1962   -6.0000    0.0000 O   0  0  0  0  0  0  0  0  0  0  0  0
    5.4641    2.0000    0.0000 O   0  0  0  0  0  0  0  0  0  0  0  0
    3.7320   -7.0000    0.0000 O   0  0  0  0  0  0  0  0  0  0  0  0
    5.4641   -6.0000    0.0000 O   0  0  0  0  0  0  0  0  0  0  0  0
    2.8660   -5.5000    0.0000 O   0  0  0  0  0  0  0  0  0  0  0  0
    4.5981   -2.5000    0.0000 N   0  0  0  0  0  0  0  0  0  0  0  0
    5.4641    0.0000    0.0000 N   0  0  0  0  0  0  0  0  0  0  0  0
    6.3301   -4.5000    0.0000 N   0  0  0  0  0  0  0  0  0  0  0  0
    7.1962    2.0000    0.0000 N   0  0  0  0  0  0  0  0  0  0  0  0
    3.7320   -1.0000    0.0000 C   0  0  0  0  0  0  0  0  0  0  0  0
    4.5981   -1.5000    0.0000 C   0  0  1  0  0  0  0  0  0  0  0  0
    2.8660   -1.5000    0.0000 C   0  0  0  0  0  0  0  0  0  0  0  0
    8.0622    7.5000    0.0000 C   0  0  0  0  0  0  0  0  0  0  0  0
    5.4641   -1.0000    0.0000 C   0  0  0  0  0  0  0  0  0  0  0  0
    2.0000   -1.0000    0.0000 C   0  0  0  0  0  0  0  0  0  0  0  0
    2.8660   -2.5000    0.0000 C   0  0  0  0  0  0  0  0  0  0  0  0
    5.4641   -4.0000    0.0000 C   0  0  2  0  0  0  0  0  0  0  0  0
    8.0622    6.5000    0.0000 C   0  0  0  0  0  0  0  0  0  0  0  0
    5.4641   -3.0000    0.0000 C   0  0  0  0  0  0  0  0  0  0  0  0
    6.3301    0.5000    0.0000 C   0  0  2  0  0  0  0  0  0  0  0  0
    4.5981   -4.5000    0.0000 C   0  0  0  0  0  0  0  0  0  0  0  0
    8.0622    8.5000    0.0000 C   0  0  0  0  0  0  0  0  0  0  0  0
    9.0622    7.5000    0.0000 C   0  0  0  0  0  0  0  0  0  0  0  0
    7.0622    7.5000    0.0000 C   0  0  0  0  0  0  0  0  0  0  0  0
    8.0622    4.5000    0.0000 C   0  0  0  0  0  0  0  0  0  0  0  0
    8.0622    3.5000    0.0000 C   0  0  0  0  0  0  0  0  0  0  0  0
    7.1962    6.0000    0.0000 C   0  0  0  0  0  0  0  0  0  0  0  0
    8.9282    6.0000    0.0000 C   0  0  0  0  0  0  0  0  0  0  0  0
    7.1962    3.0000    0.0000 C   0  0  0  0  0  0  0  0  0  0  0  0
    6.3301    1.5000    0.0000 C   0  0  0  0  0  0  0  0  0  0  0  0
    4.5981   -5.5000    0.0000 C   0  0  0  0  0  0  0  0  0  0  0  0
    7.1962    0.0000    0.0000 C   0  0  0  0  0  0  0  0  0  0  0  0
    7.1962    5.0000    0.0000 C   0  0  0  0  0  0  0  0  0  0  0  0
    8.9282    5.0000    0.0000 C   0  0  0  0  0  0  0  0  0  0  0  0
    6.3301   -5.5000    0.0000 C   0  0  0  0  0  0  0  0  0  0  0  0
    3.7320   -6.0000    0.0000 C   0  0  0  0  0  0  0  0  0  0  0  0
    8.0622   -7.5000    0.0000 C   0  0  0  0  0  0  0  0  0  0  0  0
    7.1962   -7.0000    0.0000 C   0  0  0  0  0  0  0  0  0  0  0  0
    8.0622   -8.5000    0.0000 C   0  0  0  0  0  0  0  0  0  0  0  0
    8.9282   -7.0000    0.0000 C   0  0  0  0  0  0  0  0  0  0  0  0
    4.1306   -0.5251    0.0000 H   0  0  0  0  0  0  0  0  0  0  0  0
    3.3335   -0.5251    0.0000 H   0  0  0  0  0  0  0  0  0  0  0  0
    5.1350   -1.8100    0.0000 H   0  0  0  0  0  0  0  0  0  0  0  0
    2.8660   -0.8800    0.0000 H   0  0  0  0  0  0  0  0  0  0  0  0
    4.0611   -2.8100    0.0000 H   0  0  0  0  0  0  0  0  0  0  0  0
    5.4641   -4.6200    0.0000 H   0  0  0  0  0  0  0  0  0  0  0  0
    2.3100   -0.4631    0.0000 H   0  0  0  0  0  0  0  0  0  0  0  0
    1.4631   -0.6900    0.0000 H   0  0  0  0  0  0  0  0  0  0  0  0
    1.6900   -1.5369    0.0000 H   0  0  0  0  0  0  0  0  0  0  0  0
    2.2460   -2.5000    0.0000 H   0  0  0  0  0  0  0  0  0  0  0  0
    2.8660   -3.1200    0.0000 H   0  0  0  0  0  0  0  0  0  0  0  0
    3.4860   -2.5000    0.0000 H   0  0  0  0  0  0  0  0  0  0  0  0
    5.7932    0.8100    0.0000 H   0  0  0  0  0  0  0  0  0  0  0  0
    4.9272    0.3100    0.0000 H   0  0  0  0  0  0  0  0  0  0  0  0
    4.3860   -3.9174    0.0000 H   0  0  0  0  0  0  0  0  0  0  0  0
    3.9875   -4.6077    0.0000 H   0  0  0  0  0  0  0  0  0  0  0  0
    8.6822    8.5000    0.0000 H   0  0  0  0  0  0  0  0  0  0  0  0
    8.0622    9.1200    0.0000 H   0  0  0  0  0  0  0  0  0  0  0  0
    7.4422    8.5000    0.0000 H   0  0  0  0  0  0  0  0  0  0  0  0
    9.0622    6.8800    0.0000 H   0  0  0  0  0  0  0  0  0  0  0  0
    9.6822    7.5000    0.0000 H   0  0  0  0  0  0  0  0  0  0  0  0
    9.0622    8.1200    0.0000 H   0  0  0  0  0  0  0  0  0  0  0  0
    7.0622    8.1200    0.0000 H   0  0  0  0  0  0  0  0  0  0  0  0
    6.4422    7.5000    0.0000 H   0  0  0  0  0  0  0  0  0  0  0  0
    7.0622    6.8800    0.0000 H   0  0  0  0  0  0  0  0  0  0  0  0
    8.2742    2.9174    0.0000 H   0  0  0  0  0  0  0  0  0  0  0  0
    8.6728    3.6077    0.0000 H   0  0  0  0  0  0  0  0  0  0  0  0
    6.6592    6.3100    0.0000 H   0  0  0  0  0  0  0  0  0  0  0  0
    9.4651    6.3100    0.0000 H   0  0  0  0  0  0  0  0  0  0  0  0
    6.9841    3.5826    0.0000 H   0  0  0  0  0  0  0  0  0  0  0  0
    6.5856    2.8923    0.0000 H   0  0  0  0  0  0  0  0  0  0  0  0
    6.8671   -4.1900    0.0000 H   0  0  0  0  0  0  0  0  0  0  0  0
    4.8101   -6.0826    0.0000 H   0  0  0  0  0  0  0  0  0  0  0  0
    5.2087   -5.3923    0.0000 H   0  0  0  0  0  0  0  0  0  0  0  0
    7.8067   -0.1077    0.0000 H   0  0  0  0  0  0  0  0  0  0  0  0
    7.4082    0.5826    0.0000 H   0  0  0  0  0  0  0  0  0  0  0  0
    6.6592    4.6900    0.0000 H   0  0  0  0  0  0  0  0  0  0  0  0
    9.4651    4.6900    0.0000 H   0  0  0  0  0  0  0  0  0  0  0  0
    7.7331    1.6900    0.0000 H   0  0  0  0  0  0  0  0  0  0  0  0
    8.0622   -6.8800    0.0000 H   0  0  0  0  0  0  0  0  0  0  0  0
    6.5856   -6.8923    0.0000 H   0  0  0  0  0  0  0  0  0  0  0  0
    6.9841   -7.5826    0.0000 H   0  0  0  0  0  0  0  0  0  0  0  0
    7.7331   -1.3100    0.0000 H   0  0  0  0  0  0  0  0  0  0  0  0
    7.4422   -8.5000    0.0000 H   0  0  0  0  0  0  0  0  0  0  0  0
    8.0622   -9.1200    0.0000 H   0  0  0  0  0  0  0  0  0  0  0  0
    8.6822   -8.5000    0.0000 H   0  0  0  0  0  0  0  0  0  0  0  0
    9.2382   -7.5369    0.0000 H   0  0  0  0  0  0  0  0  0  0  0  0
    9.4651   -6.6900    0.0000 H   0  0  0  0  0  0  0  0  0  0  0  0
    8.6182   -6.4631    0.0000 H   0  0  0  0  0  0  0  0  0  0  0  0
    3.1951   -7.3100    0.0000 H   0  0  0  0  0  0  0  0  0  0  0  0
  1 35  1  0  0  0  0
  1 86  1  0  0  0  0
  2 17  2  0  0  0  0
  3 22  2  0  0  0  0
  4 38  1  0  0  0  0
  4 41  1  0  0  0  0
  5 33  2  0  0  0  0
  6 39  1  0  0  0  0
  6 93  1  0  0  0  0
  7 38  2  0  0  0  0
  8 39  2  0  0  0  0
 14  9  1  1  0  0  0
  9 22  1  0  0  0  0
  9 48  1  0  0  0  0
 10 17  1  0  0  0  0
 23 10  1  6  0  0  0
 10 57  1  0  0  0  0
 20 11  1  1  0  0  0
 11 38  1  0  0  0  0
 11 75  1  0  0  0  0
 12 32  1  0  0  0  0
 12 33  1  0  0  0  0
 12 82  1  0  0  0  0
 13 14  1  0  0  0  0
 13 15  1  0  0  0  0
 13 44  1  0  0  0  0
 13 45  1  0  0  0  0
 14 17  1  0  0  0  0
 14 46  1  0  0  0  0
 15 18  1  0  0  0  0
 15 19  1  0  0  0  0
 15 47  1  0  0  0  0
 16 21  1  0  0  0  0
 16 25  1  0  0  0  0
 16 26  1  0  0  0  0
 16 27  1  0  0  0  0
 18 50  1  0  0  0  0
 18 51  1  0  0  0  0
 18 52  1  0  0  0  0
 19 53  1  0  0  0  0
 19 54  1  0  0  0  0
 19 55  1  0  0  0  0
 20 22  1  0  0  0  0
 20 24  1  0  0  0  0
 20 49  1  0  0  0  0
 21 30  2  0  0  0  0
 21 31  1  0  0  0  0
 23 33  1  0  0  0  0
 23 35  1  0  0  0  0
 23 56  1  0  0  0  0
 24 34  1  0  0  0  0
 24 58  1  0  0  0  0
 24 59  1  0  0  0  0
 25 60  1  0  0  0  0
 25 61  1  0  0  0  0
 25 62  1  0  0  0  0
 26 63  1  0  0  0  0
 26 64  1  0  0  0  0
 26 65  1  0  0  0  0
 27 66  1  0  0  0  0
 27 67  1  0  0  0  0
 27 68  1  0  0  0  0
 28 29  1  0  0  0  0
 28 36  2  0  0  0  0
 28 37  1  0  0  0  0
 29 32  1  0  0  0  0
 29 69  1  0  0  0  0
 29 70  1  0  0  0  0
 30 36  1  0  0  0  0
 30 71  1  0  0  0  0
 31 37  2  0  0  0  0
 31 72  1  0  0  0  0
 32 73  1  0  0  0  0
 32 74  1  0  0  0  0
 34 39  1  0  0  0  0
 34 76  1  0  0  0  0
 34 77  1  0  0  0  0
 35 78  1  0  0  0  0
 35 79  1  0  0  0  0
 36 80  1  0  0  0  0
 37 81  1  0  0  0  0
 40 41  1  0  0  0  0
 40 42  1  0  0  0  0
 40 43  1  0  0  0  0
 40 83  1  0  0  0  0
 41 84  1  0  0  0  0
 41 85  1  0  0  0  0
 42 87  1  0  0  0  0
 42 88  1  0  0  0  0
 42 89  1  0  0  0  0
 43 90  1  0  0  0  0
 43 91  1  0  0  0  0
 43 92  1  0  0  0  0
M  END
> <PUBCHEM_COMPOUND_CID>
507449
> <PUBCHEM_COMPOUND_CANONICALIZED>
1
> <PUBCHEM_CACTVS_COMPLEXITY>
914
> <PUBCHEM_CACTVS_HBOND_ACCEPTOR>
8
> <PUBCHEM_CACTVS_HBOND_DONOR>
6
> <PUBCHEM_CACTVS_ROTATABLE_BOND>
19
> <PUBCHEM_CACTVS_SUBSKEYS>
AAADcfB7uABAAAAAAAAAAAAAAAAAAAAAAAAwAAAAAAAAAAABAAAAHgQQCAAADyjl2AayCILABgSIAiHSGAACAAAgAAAIiIGIAIkIYDKAkTGcYAAklgCIiAe8l8IPwAAAAAAAAACAAAAAAAAAAAAAAAAAAA==
> <PUBCHEM_IUPAC_OPENEYE_NAME>
(4S)-5-[[(1S)-1-[[(1R)-2-[2-(4-tert-butylphenyl)ethylamino]-2-oxo-1-(sulfanylmethyl)ethyl]carbamoyl]-3-methyl-butyl]amino]-4-(isobutoxycarbonylamino)-5-oxo-pentanoic acid
> <PUBCHEM_IUPAC_CAS_NAME>
(4S)-5-[[(2S)-1-[[(2R)-1-[2-(4-tert-butylphenyl)ethylamino]-3-mercapto-1-oxopropan-2-yl]amino]-4-methyl-1-oxopentan-2-yl]amino]-4-[[2-methylpropoxy(oxo)methyl]amino]-5-oxopentanoic acid
> <PUBCHEM_IUPAC_NAME_MARKUP>
(4<I>S</I>)-5-[[(2<I>S</I>)-1-[[(2<I>R</I>)-1-[2-(4-<I>tert</I>-butylphenyl)ethylamino]-1-oxo-3-sulfanylpropan-2-yl]amino]-4-methyl-1-oxopentan-2-yl]amino]-4-(2-methylpropoxycarbonylamino)-5-oxopentanoic acid
> <PUBCHEM_IUPAC_NAME>
(4S)-5-[[(2S)-1-[[(2R)-1-[2-(4-tert-butylphenyl)ethylamino]-1-oxo-3-sulfanylpropan-2-yl]amino]-4-methyl-1-oxopentan-2-yl]amino]-4-(2-methylpropoxycarbonylamino)-5-oxopentanoic acid
> <PUBCHEM_IUPAC_SYSTEMATIC_NAME>
(4S)-5-[[(2S)-1-[[(2R)-1-[2-(4-tert-butylphenyl)ethylamino]-1-oxidanylidene-3-sulfanyl-propan-2-yl]amino]-4-methyl-1-oxidanylidene-pentan-2-yl]amino]-4-(2-methylpropoxycarbonylamino)-5-oxidanylidene-pentanoic acid
> <PUBCHEM_IUPAC_TRADITIONAL_NAME>
(4S)-5-[[(1S)-1-[[(1R)-2-[2-(4-tert-butylphenyl)ethylamino]-2-keto-1-(mercaptomethyl)ethyl]carbamoyl]-3-methyl-butyl]amino]-4-(isobutoxycarbonylamino)-5-keto-valeric acid
> <PUBCHEM_IUPAC_INCHI>
InChI=1S/C31H50N4O7S/c1-19(2)16-24(33-28(39)23(12-13-26(36)37)35-30(41)42-17-20(3)4)29(40)34-25(18-43)27(38)32-15-14-21-8-10-22(11-9-21)31(5,6)7/h8-11,19-20,23-25,43H,12-18H2,1-7H3,(H,32,38)(H,33,39)(H,34,40)(H,35,41)(H,36,37)/t23-,24-,25-/m0/s1
> <PUBCHEM_IUPAC_INCHIKEY>
XTQOZRFRVAAGOE-SDHOMARFSA-N
> <PUBCHEM_XLOGP3_AA>
4.9
> <PUBCHEM_EXACT_MASS>
622.34002112
> <PUBCHEM_MOLECULAR_FORMULA>
C31H50N4O7S
> <PUBCHEM_MOLECULAR_WEIGHT>
622.8
> <PUBCHEM_OPENEYE_CAN_SMILES>
CC(C)CC(C(=O)NC(CS)C(=O)NCCC1=CC=C(C=C1)C(C)(C)C)NC(=O)C(CCC(=O)O)NC(=O)OCC(C)C
> <PUBCHEM_OPENEYE_ISO_SMILES>
CC(C)C[C@@H](C(=O)N[C@@H](CS)C(=O)NCCC1=CC=C(C=C1)C(C)(C)C)NC(=O)[C@H](CCC(=O)O)NC(=O)OCC(C)C
> <PUBCHEM_CACTVS_TPSA>
164
> <PUBCHEM_MONOISOTOPIC_WEIGHT>
622.34002112
> <PUBCHEM_TOTAL_CHARGE>
0
> <PUBCHEM_HEAVY_ATOM_COUNT>
43
> <PUBCHEM_ATOM_DEF_STEREO_COUNT>
3
> <PUBCHEM_ATOM_UDEF_STEREO_COUNT>
0
> <PUBCHEM_BOND_DEF_STEREO_COUNT>
0
> <PUBCHEM_BOND_UDEF_STEREO_COUNT>
0
> <PUBCHEM_ISOTOPIC_ATOM_COUNT>
0
> <PUBCHEM_COMPONENT_COUNT>
1
> <PUBCHEM_CACTVS_TAUTO_COUNT>
-1
> <PUBCHEM_COORDINATE_TYPE>
1
5
255
> <PUBCHEM_BONDANNOTATIONS>
23  10  6
20  11  5
21  30  8
21  31  8
28  36  8
28  37  8
30  36  8
31  37  8
14  9  5
$$$$
