507491
  -OEChem-10302200282D
 80 80  0     1  0  0  0  0  0999 V2000
    8.9282   -0.8100    0.0000 S   0  0  0  0  0  0  0  0  0  0  0  0
    8.9282    0.1900    0.0000 O   0  0  0  0  0  0  0  0  0  0  0  0
    8.0622    0.6900    0.0000 O   0  0  0  0  0  0  0  0  0  0  0  0
    4.5981    1.6900    0.0000 O   0  0  0  0  0  0  0  0  0  0  0  0
   12.3923   -0.8100    0.0000 O   0  0  0  0  0  0  0  0  0  0  0  0
    5.4641    3.1900    0.0000 O   0  0  0  0  0  0  0  0  0  0  0  0
    5.4641    5.1900    0.0000 O   0  0  0  0  0  0  0  0  0  0  0  0
    7.1962    5.1900    0.0000 O   0  0  0  0  0  0  0  0  0  0  0  0
    8.9282    2.1900    0.0000 N   0  0  0  0  0  0  0  0  0  0  0  0
   10.6603    0.1900    0.0000 N   0  0  0  0  0  0  0  0  0  0  0  0
    6.3301    1.6900    0.0000 N   0  0  0  0  0  0  0  0  0  0  0  0
   11.5263   -2.3100    0.0000 N   0  0  0  0  0  0  0  0  0  0  0  0
   14.1244   -5.8100    0.0000 N   0  0  0  0  0  0  0  0  0  0  0  0
   10.6603    2.1900    0.0000 C   0  0  0  0  0  0  0  0  0  0  0  0
    9.7942    1.6900    0.0000 C   0  0  1  0  0  0  0  0  0  0  0  0
   10.6603    3.1900    0.0000 C   0  0  0  0  0  0  0  0  0  0  0  0
    9.7942    0.6900    0.0000 C   0  0  0  0  0  0  0  0  0  0  0  0
    7.1962    2.1900    0.0000 C   0  0  2  0  0  0  0  0  0  0  0  0
   11.5263    3.6900    0.0000 C   0  0  0  0  0  0  0  0  0  0  0  0
    9.7942    3.6900    0.0000 C   0  0  0  0  0  0  0  0  0  0  0  0
    8.0622    1.6900    0.0000 C   0  0  0  0  0  0  0  0  0  0  0  0
    7.1962    3.1900    0.0000 C   0  0  0  0  0  0  0  0  0  0  0  0
   10.6603   -0.8100    0.0000 C   0  0  1  0  0  0  0  0  0  0  0  0
    6.3301    3.6900    0.0000 C   0  0  0  0  0  0  0  0  0  0  0  0
    9.7942   -1.3100    0.0000 C   0  0  0  0  0  0  0  0  0  0  0  0
   11.5263   -1.3100    0.0000 C   0  0  0  0  0  0  0  0  0  0  0  0
    5.4641    2.1900    0.0000 C   0  0  0  0  0  0  0  0  0  0  0  0
   12.3923   -2.8100    0.0000 C   0  0  0  0  0  0  0  0  0  0  0  0
    6.3301    4.6900    0.0000 C   0  0  0  0  0  0  0  0  0  0  0  0
    2.8660    1.6900    0.0000 C   0  0  0  0  0  0  0  0  0  0  0  0
    3.7320    2.1900    0.0000 C   0  0  0  0  0  0  0  0  0  0  0  0
   12.3923   -3.8100    0.0000 C   0  0  0  0  0  0  0  0  0  0  0  0
    2.0000    2.1900    0.0000 C   0  0  0  0  0  0  0  0  0  0  0  0
    2.8660    0.6900    0.0000 C   0  0  0  0  0  0  0  0  0  0  0  0
   13.2583   -4.3100    0.0000 C   0  0  0  0  0  0  0  0  0  0  0  0
   14.1244   -3.8100    0.0000 C   0  0  0  0  0  0  0  0  0  0  0  0
   13.2583   -5.3100    0.0000 C   0  0  0  0  0  0  0  0  0  0  0  0
   14.9904   -4.3100    0.0000 C   0  0  0  0  0  0  0  0  0  0  0  0
   14.9904   -5.3100    0.0000 C   0  0  0  0  0  0  0  0  0  0  0  0
   10.8723    1.6074    0.0000 H   0  0  0  0  0  0  0  0  0  0  0  0
   11.2708    2.2977    0.0000 H   0  0  0  0  0  0  0  0  0  0  0  0
    9.2573    1.3800    0.0000 H   0  0  0  0  0  0  0  0  0  0  0  0
   11.1972    2.8800    0.0000 H   0  0  0  0  0  0  0  0  0  0  0  0
    8.9282    2.8100    0.0000 H   0  0  0  0  0  0  0  0  0  0  0  0
    6.6592    2.5000    0.0000 H   0  0  0  0  0  0  0  0  0  0  0  0
   11.8363    3.1531    0.0000 H   0  0  0  0  0  0  0  0  0  0  0  0
   12.0632    4.0000    0.0000 H   0  0  0  0  0  0  0  0  0  0  0  0
   11.2163    4.2269    0.0000 H   0  0  0  0  0  0  0  0  0  0  0  0
   10.1042    4.2269    0.0000 H   0  0  0  0  0  0  0  0  0  0  0  0
    9.2573    4.0000    0.0000 H   0  0  0  0  0  0  0  0  0  0  0  0
    9.4842    3.1531    0.0000 H   0  0  0  0  0  0  0  0  0  0  0  0
    7.8067    3.0823    0.0000 H   0  0  0  0  0  0  0  0  0  0  0  0
    7.4082    3.7726    0.0000 H   0  0  0  0  0  0  0  0  0  0  0  0
   11.1972    0.5000    0.0000 H   0  0  0  0  0  0  0  0  0  0  0  0
   11.1972   -0.5000    0.0000 H   0  0  0  0  0  0  0  0  0  0  0  0
    6.3301    1.0700    0.0000 H   0  0  0  0  0  0  0  0  0  0  0  0
    5.7196    3.7977    0.0000 H   0  0  0  0  0  0  0  0  0  0  0  0
    6.1181    3.1074    0.0000 H   0  0  0  0  0  0  0  0  0  0  0  0
    9.3957   -1.7850    0.0000 H   0  0  0  0  0  0  0  0  0  0  0  0
   10.1928   -1.7850    0.0000 H   0  0  0  0  0  0  0  0  0  0  0  0
   10.9893   -2.6200    0.0000 H   0  0  0  0  0  0  0  0  0  0  0  0
   13.0029   -2.9177    0.0000 H   0  0  0  0  0  0  0  0  0  0  0  0
   12.6044   -2.2274    0.0000 H   0  0  0  0  0  0  0  0  0  0  0  0
    2.8660    2.3100    0.0000 H   0  0  0  0  0  0  0  0  0  0  0  0
    4.1306    2.6650    0.0000 H   0  0  0  0  0  0  0  0  0  0  0  0
    3.3335    2.6650    0.0000 H   0  0  0  0  0  0  0  0  0  0  0  0
   11.7817   -3.7023    0.0000 H   0  0  0  0  0  0  0  0  0  0  0  0
   12.1803   -4.3926    0.0000 H   0  0  0  0  0  0  0  0  0  0  0  0
    8.3913   -1.1200    0.0000 H   0  0  0  0  0  0  0  0  0  0  0  0
    2.3100    2.7269    0.0000 H   0  0  0  0  0  0  0  0  0  0  0  0
    1.4631    2.5000    0.0000 H   0  0  0  0  0  0  0  0  0  0  0  0
    1.6900    1.6531    0.0000 H   0  0  0  0  0  0  0  0  0  0  0  0
    2.2460    0.6900    0.0000 H   0  0  0  0  0  0  0  0  0  0  0  0
    2.8660    0.0700    0.0000 H   0  0  0  0  0  0  0  0  0  0  0  0
    3.4860    0.6900    0.0000 H   0  0  0  0  0  0  0  0  0  0  0  0
    5.4641    5.8100    0.0000 H   0  0  0  0  0  0  0  0  0  0  0  0
   14.1244   -3.1900    0.0000 H   0  0  0  0  0  0  0  0  0  0  0  0
   12.7214   -5.6200    0.0000 H   0  0  0  0  0  0  0  0  0  0  0  0
   15.5273   -4.0000    0.0000 H   0  0  0  0  0  0  0  0  0  0  0  0
   15.5273   -5.6200    0.0000 H   0  0  0  0  0  0  0  0  0  0  0  0
  1 25  1  0  0  0  0
  1 69  1  0  0  0  0
  2 17  2  0  0  0  0
  3 21  2  0  0  0  0
  4 27  1  0  0  0  0
  4 31  1  0  0  0  0
  5 26  2  0  0  0  0
  6 27  2  0  0  0  0
  7 29  1  0  0  0  0
  7 76  1  0  0  0  0
  8 29  2  0  0  0  0
 15  9  1  1  0  0  0
  9 21  1  0  0  0  0
  9 44  1  0  0  0  0
 10 17  1  0  0  0  0
 23 10  1  6  0  0  0
 10 54  1  0  0  0  0
 18 11  1  1  0  0  0
 11 27  1  0  0  0  0
 11 56  1  0  0  0  0
 12 26  1  0  0  0  0
 12 28  1  0  0  0  0
 12 61  1  0  0  0  0
 13 37  1  0  0  0  0
 13 39  2  0  0  0  0
 14 15  1  0  0  0  0
 14 16  1  0  0  0  0
 14 40  1  0  0  0  0
 14 41  1  0  0  0  0
 15 17  1  0  0  0  0
 15 42  1  0  0  0  0
 16 19  1  0  0  0  0
 16 20  1  0  0  0  0
 16 43  1  0  0  0  0
 18 21  1  0  0  0  0
 18 22  1  0  0  0  0
 18 45  1  0  0  0  0
 19 46  1  0  0  0  0
 19 47  1  0  0  0  0
 19 48  1  0  0  0  0
 20 49  1  0  0  0  0
 20 50  1  0  0  0  0
 20 51  1  0  0  0  0
 22 24  1  0  0  0  0
 22 52  1  0  0  0  0
 22 53  1  0  0  0  0
 23 25  1  0  0  0  0
 23 26  1  0  0  0  0
 23 55  1  0  0  0  0
 24 29  1  0  0  0  0
 24 57  1  0  0  0  0
 24 58  1  0  0  0  0
 25 59  1  0  0  0  0
 25 60  1  0  0  0  0
 28 32  1  0  0  0  0
 28 62  1  0  0  0  0
 28 63  1  0  0  0  0
 30 31  1  0  0  0  0
 30 33  1  0  0  0  0
 30 34  1  0  0  0  0
 30 64  1  0  0  0  0
 31 65  1  0  0  0  0
 31 66  1  0  0  0  0
 32 35  1  0  0  0  0
 32 67  1  0  0  0  0
 32 68  1  0  0  0  0
 33 70  1  0  0  0  0
 33 71  1  0  0  0  0
 33 72  1  0  0  0  0
 34 73  1  0  0  0  0
 34 74  1  0  0  0  0
 34 75  1  0  0  0  0
 35 36  1  0  0  0  0
 35 37  2  0  0  0  0
 36 38  2  0  0  0  0
 36 77  1  0  0  0  0
 37 78  1  0  0  0  0
 38 39  1  0  0  0  0
 38 79  1  0  0  0  0
 39 80  1  0  0  0  0
M  END
> <PUBCHEM_COMPOUND_CID>
507491
> <PUBCHEM_COMPOUND_CANONICALIZED>
1
> <PUBCHEM_CACTVS_COMPLEXITY>
812
> <PUBCHEM_CACTVS_HBOND_ACCEPTOR>
9
> <PUBCHEM_CACTVS_HBOND_DONOR>
6
> <PUBCHEM_CACTVS_ROTATABLE_BOND>
18
> <PUBCHEM_CACTVS_SUBSKEYS>
AAADcfB7uABAAAAAAAAAAAAAAAAAAAAAAAAsAAAAAAAAAAABgAAAHgQQCAAADSjl2ga+iJLIFgSoAjH3XACCgCAxAiAI2KG4ZJkIYPLAkbGcYAhklgDIyAe8FwIOAAAAAAAAAAAAAAAAAAAAAAAAAAAAAA==
> <PUBCHEM_IUPAC_OPENEYE_NAME>
(4S)-4-(isobutoxycarbonylamino)-5-[[(1S)-3-methyl-1-[[(1R)-2-oxo-2-[2-(3-pyridyl)ethylamino]-1-(sulfanylmethyl)ethyl]carbamoyl]butyl]amino]-5-oxo-pentanoic acid
> <PUBCHEM_IUPAC_CAS_NAME>
(4S)-5-[[(2S)-1-[[(2R)-3-mercapto-1-oxo-1-[2-(3-pyridinyl)ethylamino]propan-2-yl]amino]-4-methyl-1-oxopentan-2-yl]amino]-4-[[2-methylpropoxy(oxo)methyl]amino]-5-oxopentanoic acid
> <PUBCHEM_IUPAC_NAME_MARKUP>
(4<I>S</I>)-5-[[(2<I>S</I>)-4-methyl-1-oxo-1-[[(2<I>R</I>)-1-oxo-1-(2-pyridin-3-ylethylamino)-3-sulfanylpropan-2-yl]amino]pentan-2-yl]amino]-4-(2-methylpropoxycarbonylamino)-5-oxopentanoic acid
> <PUBCHEM_IUPAC_NAME>
(4S)-5-[[(2S)-4-methyl-1-oxo-1-[[(2R)-1-oxo-1-(2-pyridin-3-ylethylamino)-3-sulfanylpropan-2-yl]amino]pentan-2-yl]amino]-4-(2-methylpropoxycarbonylamino)-5-oxopentanoic acid
> <PUBCHEM_IUPAC_SYSTEMATIC_NAME>
(4S)-5-[[(2S)-4-methyl-1-oxidanylidene-1-[[(2R)-1-oxidanylidene-1-(2-pyridin-3-ylethylamino)-3-sulfanyl-propan-2-yl]amino]pentan-2-yl]amino]-4-(2-methylpropoxycarbonylamino)-5-oxidanylidene-pentanoic acid
> <PUBCHEM_IUPAC_TRADITIONAL_NAME>
(4S)-4-(isobutoxycarbonylamino)-5-keto-5-[[(1S)-1-[[(1R)-2-keto-1-(mercaptomethyl)-2-[2-(3-pyridyl)ethylamino]ethyl]carbamoyl]-3-methyl-butyl]amino]valeric acid
> <PUBCHEM_IUPAC_INCHI>
InChI=1S/C26H41N5O7S/c1-16(2)12-20(29-24(35)19(7-8-22(32)33)31-26(37)38-14-17(3)4)25(36)30-21(15-39)23(34)28-11-9-18-6-5-10-27-13-18/h5-6,10,13,16-17,19-21,39H,7-9,11-12,14-15H2,1-4H3,(H,28,34)(H,29,35)(H,30,36)(H,31,37)(H,32,33)/t19-,20-,21-/m0/s1
> <PUBCHEM_IUPAC_INCHIKEY>
DFAJSFRSAKONPU-ACRUOGEOSA-N
> <PUBCHEM_XLOGP3_AA>
2.1
> <PUBCHEM_EXACT_MASS>
567.27266984
> <PUBCHEM_MOLECULAR_FORMULA>
C26H41N5O7S
> <PUBCHEM_MOLECULAR_WEIGHT>
567.7
> <PUBCHEM_OPENEYE_CAN_SMILES>
CC(C)CC(C(=O)NC(CS)C(=O)NCCC1=CN=CC=C1)NC(=O)C(CCC(=O)O)NC(=O)OCC(C)C
> <PUBCHEM_OPENEYE_ISO_SMILES>
CC(C)C[C@@H](C(=O)N[C@@H](CS)C(=O)NCCC1=CN=CC=C1)NC(=O)[C@H](CCC(=O)O)NC(=O)OCC(C)C
> <PUBCHEM_CACTVS_TPSA>
177
> <PUBCHEM_MONOISOTOPIC_WEIGHT>
567.27266984
> <PUBCHEM_TOTAL_CHARGE>
0
> <PUBCHEM_HEAVY_ATOM_COUNT>
39
> <PUBCHEM_ATOM_DEF_STEREO_COUNT>
3
> <PUBCHEM_ATOM_UDEF_STEREO_COUNT>
0
> <PUBCHEM_BOND_DEF_STEREO_COUNT>
0
> <PUBCHEM_BOND_UDEF_STEREO_COUNT>
0
> <PUBCHEM_ISOTOPIC_ATOM_COUNT>
0
> <PUBCHEM_COMPONENT_COUNT>
1
> <PUBCHEM_CACTVS_TAUTO_COUNT>
-1
> <PUBCHEM_COORDINATE_TYPE>
1
5
255
> <PUBCHEM_BONDANNOTATIONS>
23  10  6
18  11  5
13  37  8
13  39  8
35  36  8
35  37  8
36  38  8
38  39  8
15  9  5
$$$$
