507489
  -OEChem-10302200282D
 78 78  0     1  0  0  0  0  0999 V2000
    8.5812    1.1404    0.0000 S   0  0  0  0  0  0  0  0  0  0  0  0
    2.8090    3.0759    0.0000 S   0  0  0  0  0  0  0  0  0  0  0  0
    8.7891    0.1623    0.0000 O   0  0  0  0  0  0  0  0  0  0  0  0
    9.7402   -0.1468    0.0000 O   0  0  0  0  0  0  0  0  0  0  0  0
   13.3365   -0.4047    0.0000 O   0  0  0  0  0  0  0  0  0  0  0  0
    5.1928    0.4202    0.0000 O   0  0  0  0  0  0  0  0  0  0  0  0
   12.8013   -2.0520    0.0000 O   0  0  0  0  0  0  0  0  0  0  0  0
   13.2171   -4.0082    0.0000 O   0  0  0  0  0  0  0  0  0  0  0  0
   11.5229   -4.3684    0.0000 O   0  0  0  0  0  0  0  0  0  0  0  0
    9.2050   -1.7940    0.0000 N   0  0  0  0  0  0  0  0  0  0  0  0
    7.0949   -0.1979    0.0000 N   0  0  0  0  0  0  0  0  0  0  0  0
   11.6423   -0.7648    0.0000 N   0  0  0  0  0  0  0  0  0  0  0  0
    5.7281    2.0675    0.0000 N   0  0  0  0  0  0  0  0  0  0  0  0
    7.5108   -2.1542    0.0000 C   0  0  0  0  0  0  0  0  0  0  0  0
    8.2539   -1.4850    0.0000 C   0  0  1  0  0  0  0  0  0  0  0  0
    7.7187   -3.1323    0.0000 C   0  0  0  0  0  0  0  0  0  0  0  0
    8.0460   -0.5069    0.0000 C   0  0  0  0  0  0  0  0  0  0  0  0
   10.8992   -1.4339    0.0000 C   0  0  2  0  0  0  0  0  0  0  0  0
    6.9755   -3.8014    0.0000 C   0  0  0  0  0  0  0  0  0  0  0  0
    8.6697   -3.4413    0.0000 C   0  0  0  0  0  0  0  0  0  0  0  0
    9.9481   -1.1249    0.0000 C   0  0  0  0  0  0  0  0  0  0  0  0
   11.1071   -2.4121    0.0000 C   0  0  0  0  0  0  0  0  0  0  0  0
    6.8870    0.7803    0.0000 C   0  0  1  0  0  0  0  0  0  0  0  0
   12.0581   -2.7211    0.0000 C   0  0  0  0  0  0  0  0  0  0  0  0
    7.6302    1.4494    0.0000 C   0  0  0  0  0  0  0  0  0  0  0  0
    5.9360    1.0893    0.0000 C   0  0  0  0  0  0  0  0  0  0  0  0
   12.5934   -1.0738    0.0000 C   0  0  0  0  0  0  0  0  0  0  0  0
    4.7770    2.3765    0.0000 C   0  0  0  0  0  0  0  0  0  0  0  0
   12.2660   -3.6992    0.0000 C   0  0  0  0  0  0  0  0  0  0  0  0
   15.0307   -0.0446    0.0000 C   0  0  0  0  0  0  0  0  0  0  0  0
   14.2876   -0.7137    0.0000 C   0  0  0  0  0  0  0  0  0  0  0  0
    4.5691    3.3546    0.0000 C   0  0  0  0  0  0  0  0  0  0  0  0
   15.9818   -0.3536    0.0000 C   0  0  0  0  0  0  0  0  0  0  0  0
   14.8228    0.9336    0.0000 C   0  0  0  0  0  0  0  0  0  0  0  0
    3.6180    3.6636    0.0000 C   0  0  0  0  0  0  0  0  0  0  0  0
    3.3090    4.6147    0.0000 C   0  0  0  0  0  0  0  0  0  0  0  0
    2.3090    4.6147    0.0000 C   0  0  0  0  0  0  0  0  0  0  0  0
    2.0000    3.6636    0.0000 C   0  0  0  0  0  0  0  0  0  0  0  0
    7.1822   -1.6284    0.0000 H   0  0  0  0  0  0  0  0  0  0  0  0
    6.9359   -2.3864    0.0000 H   0  0  0  0  0  0  0  0  0  0  0  0
    8.7147   -1.0702    0.0000 H   0  0  0  0  0  0  0  0  0  0  0  0
    7.8476   -3.7388    0.0000 H   0  0  0  0  0  0  0  0  0  0  0  0
    9.3339   -2.4005    0.0000 H   0  0  0  0  0  0  0  0  0  0  0  0
   10.7703   -0.8275    0.0000 H   0  0  0  0  0  0  0  0  0  0  0  0
    6.5607   -3.3407    0.0000 H   0  0  0  0  0  0  0  0  0  0  0  0
    6.5148   -4.2163    0.0000 H   0  0  0  0  0  0  0  0  0  0  0  0
    7.3904   -4.2622    0.0000 H   0  0  0  0  0  0  0  0  0  0  0  0
    8.4781   -4.0310    0.0000 H   0  0  0  0  0  0  0  0  0  0  0  0
    9.2594   -3.6329    0.0000 H   0  0  0  0  0  0  0  0  0  0  0  0
    8.8613   -2.8517    0.0000 H   0  0  0  0  0  0  0  0  0  0  0  0
   10.4875   -2.4337    0.0000 H   0  0  0  0  0  0  0  0  0  0  0  0
   11.0208   -3.0260    0.0000 H   0  0  0  0  0  0  0  0  0  0  0  0
    6.6342   -0.6127    0.0000 H   0  0  0  0  0  0  0  0  0  0  0  0
    6.4263    0.3654    0.0000 H   0  0  0  0  0  0  0  0  0  0  0  0
   11.5134   -0.1583    0.0000 H   0  0  0  0  0  0  0  0  0  0  0  0
   12.6778   -2.6994    0.0000 H   0  0  0  0  0  0  0  0  0  0  0  0
   12.1444   -2.1071    0.0000 H   0  0  0  0  0  0  0  0  0  0  0  0
    7.9212    1.9968    0.0000 H   0  0  0  0  0  0  0  0  0  0  0  0
    7.1416    1.8311    0.0000 H   0  0  0  0  0  0  0  0  0  0  0  0
    6.1888    2.4823    0.0000 H   0  0  0  0  0  0  0  0  0  0  0  0
    4.1574    2.3548    0.0000 H   0  0  0  0  0  0  0  0  0  0  0  0
    4.6907    1.7625    0.0000 H   0  0  0  0  0  0  0  0  0  0  0  0
   15.1596   -0.6510    0.0000 H   0  0  0  0  0  0  0  0  0  0  0  0
   13.9965   -1.2611    0.0000 H   0  0  0  0  0  0  0  0  0  0  0  0
   14.7761   -1.0954    0.0000 H   0  0  0  0  0  0  0  0  0  0  0  0
    5.1887    3.3763    0.0000 H   0  0  0  0  0  0  0  0  0  0  0  0
    4.6554    3.9686    0.0000 H   0  0  0  0  0  0  0  0  0  0  0  0
    9.0420    1.5553    0.0000 H   0  0  0  0  0  0  0  0  0  0  0  0
   15.7902   -0.9432    0.0000 H   0  0  0  0  0  0  0  0  0  0  0  0
   16.5714   -0.5452    0.0000 H   0  0  0  0  0  0  0  0  0  0  0  0
   16.1734    0.2361    0.0000 H   0  0  0  0  0  0  0  0  0  0  0  0
   15.4293    1.0625    0.0000 H   0  0  0  0  0  0  0  0  0  0  0  0
   14.6939    1.5400    0.0000 H   0  0  0  0  0  0  0  0  0  0  0  0
   14.2163    0.8047    0.0000 H   0  0  0  0  0  0  0  0  0  0  0  0
   13.3460   -4.6147    0.0000 H   0  0  0  0  0  0  0  0  0  0  0  0
    3.6734    5.1163    0.0000 H   0  0  0  0  0  0  0  0  0  0  0  0
    1.9446    5.1163    0.0000 H   0  0  0  0  0  0  0  0  0  0  0  0
    1.4103    3.4720    0.0000 H   0  0  0  0  0  0  0  0  0  0  0  0
  1 25  1  0  0  0  0
  1 68  1  0  0  0  0
  2 35  1  0  0  0  0
  2 38  1  0  0  0  0
  3 17  2  0  0  0  0
  4 21  2  0  0  0  0
  5 27  1  0  0  0  0
  5 31  1  0  0  0  0
  6 26  2  0  0  0  0
  7 27  2  0  0  0  0
  8 29  1  0  0  0  0
  8 75  1  0  0  0  0
  9 29  2  0  0  0  0
 15 10  1  1  0  0  0
 10 21  1  0  0  0  0
 10 43  1  0  0  0  0
 11 17  1  0  0  0  0
 23 11  1  6  0  0  0
 11 53  1  0  0  0  0
 18 12  1  1  0  0  0
 12 27  1  0  0  0  0
 12 55  1  0  0  0  0
 13 26  1  0  0  0  0
 13 28  1  0  0  0  0
 13 60  1  0  0  0  0
 14 15  1  0  0  0  0
 14 16  1  0  0  0  0
 14 39  1  0  0  0  0
 14 40  1  0  0  0  0
 15 17  1  0  0  0  0
 15 41  1  0  0  0  0
 16 19  1  0  0  0  0
 16 20  1  0  0  0  0
 16 42  1  0  0  0  0
 18 21  1  0  0  0  0
 18 22  1  0  0  0  0
 18 44  1  0  0  0  0
 19 45  1  0  0  0  0
 19 46  1  0  0  0  0
 19 47  1  0  0  0  0
 20 48  1  0  0  0  0
 20 49  1  0  0  0  0
 20 50  1  0  0  0  0
 22 24  1  0  0  0  0
 22 51  1  0  0  0  0
 22 52  1  0  0  0  0
 23 25  1  0  0  0  0
 23 26  1  0  0  0  0
 23 54  1  0  0  0  0
 24 29  1  0  0  0  0
 24 56  1  0  0  0  0
 24 57  1  0  0  0  0
 25 58  1  0  0  0  0
 25 59  1  0  0  0  0
 28 32  1  0  0  0  0
 28 61  1  0  0  0  0
 28 62  1  0  0  0  0
 30 31  1  0  0  0  0
 30 33  1  0  0  0  0
 30 34  1  0  0  0  0
 30 63  1  0  0  0  0
 31 64  1  0  0  0  0
 31 65  1  0  0  0  0
 32 35  1  0  0  0  0
 32 66  1  0  0  0  0
 32 67  1  0  0  0  0
 33 69  1  0  0  0  0
 33 70  1  0  0  0  0
 33 71  1  0  0  0  0
 34 72  1  0  0  0  0
 34 73  1  0  0  0  0
 34 74  1  0  0  0  0
 35 36  2  0  0  0  0
 36 37  1  0  0  0  0
 36 76  1  0  0  0  0
 37 38  2  0  0  0  0
 37 77  1  0  0  0  0
 38 78  1  0  0  0  0
M  END
> <PUBCHEM_COMPOUND_CID>
507489
> <PUBCHEM_COMPOUND_CANONICALIZED>
1
> <PUBCHEM_CACTVS_COMPLEXITY>
798
> <PUBCHEM_CACTVS_HBOND_ACCEPTOR>
9
> <PUBCHEM_CACTVS_HBOND_DONOR>
6
> <PUBCHEM_CACTVS_ROTATABLE_BOND>
18
> <PUBCHEM_CACTVS_SUBSKEYS>
AAADcfB7uABgAAAAAAAAAAAAAAAAASAAAAAAAAAAAAAAAAABgAAAHgQQCAAADSjl0AayCYLABgyMACHSGAADAIAgCBBIiJmIAIkIYDKgkTGcQAAklgCoiAe8FwIMAAAAAAAAAAAAAAAAAAAAAAAAAAAAAA==
> <PUBCHEM_IUPAC_OPENEYE_NAME>
(4S)-4-(isobutoxycarbonylamino)-5-[[(1S)-3-methyl-1-[[(1R)-2-oxo-1-(sulfanylmethyl)-2-[2-(2-thienyl)ethylamino]ethyl]carbamoyl]butyl]amino]-5-oxo-pentanoic acid
> <PUBCHEM_IUPAC_CAS_NAME>
(4S)-5-[[(2S)-1-[[(2R)-3-mercapto-1-oxo-1-(2-thiophen-2-ylethylamino)propan-2-yl]amino]-4-methyl-1-oxopentan-2-yl]amino]-4-[[2-methylpropoxy(oxo)methyl]amino]-5-oxopentanoic acid
> <PUBCHEM_IUPAC_NAME_MARKUP>
(4<I>S</I>)-5-[[(2<I>S</I>)-4-methyl-1-oxo-1-[[(2<I>R</I>)-1-oxo-3-sulfanyl-1-(2-thiophen-2-ylethylamino)propan-2-yl]amino]pentan-2-yl]amino]-4-(2-methylpropoxycarbonylamino)-5-oxopentanoic acid
> <PUBCHEM_IUPAC_NAME>
(4S)-5-[[(2S)-4-methyl-1-oxo-1-[[(2R)-1-oxo-3-sulfanyl-1-(2-thiophen-2-ylethylamino)propan-2-yl]amino]pentan-2-yl]amino]-4-(2-methylpropoxycarbonylamino)-5-oxopentanoic acid
> <PUBCHEM_IUPAC_SYSTEMATIC_NAME>
(4S)-5-[[(2S)-4-methyl-1-oxidanylidene-1-[[(2R)-1-oxidanylidene-3-sulfanyl-1-(2-thiophen-2-ylethylamino)propan-2-yl]amino]pentan-2-yl]amino]-4-(2-methylpropoxycarbonylamino)-5-oxidanylidene-pentanoic acid
> <PUBCHEM_IUPAC_TRADITIONAL_NAME>
(4S)-4-(isobutoxycarbonylamino)-5-keto-5-[[(1S)-1-[[(1R)-2-keto-1-(mercaptomethyl)-2-[2-(2-thienyl)ethylamino]ethyl]carbamoyl]-3-methyl-butyl]amino]valeric acid
> <PUBCHEM_IUPAC_INCHI>
InChI=1S/C25H40N4O7S2/c1-15(2)12-19(24(34)28-20(14-37)22(32)26-10-9-17-6-5-11-38-17)27-23(33)18(7-8-21(30)31)29-25(35)36-13-16(3)4/h5-6,11,15-16,18-20,37H,7-10,12-14H2,1-4H3,(H,26,32)(H,27,33)(H,28,34)(H,29,35)(H,30,31)/t18-,19-,20-/m0/s1
> <PUBCHEM_IUPAC_INCHIKEY>
KBVPMDJYKIGTAL-UFYCRDLUSA-N
> <PUBCHEM_XLOGP3_AA>
2.9
> <PUBCHEM_EXACT_MASS>
572.23384197
> <PUBCHEM_MOLECULAR_FORMULA>
C25H40N4O7S2
> <PUBCHEM_MOLECULAR_WEIGHT>
572.7
> <PUBCHEM_OPENEYE_CAN_SMILES>
CC(C)CC(C(=O)NC(CS)C(=O)NCCC1=CC=CS1)NC(=O)C(CCC(=O)O)NC(=O)OCC(C)C
> <PUBCHEM_OPENEYE_ISO_SMILES>
CC(C)C[C@@H](C(=O)N[C@@H](CS)C(=O)NCCC1=CC=CS1)NC(=O)[C@H](CCC(=O)O)NC(=O)OCC(C)C
> <PUBCHEM_CACTVS_TPSA>
192
> <PUBCHEM_MONOISOTOPIC_WEIGHT>
572.23384197
> <PUBCHEM_TOTAL_CHARGE>
0
> <PUBCHEM_HEAVY_ATOM_COUNT>
38
> <PUBCHEM_ATOM_DEF_STEREO_COUNT>
3
> <PUBCHEM_ATOM_UDEF_STEREO_COUNT>
0
> <PUBCHEM_BOND_DEF_STEREO_COUNT>
0
> <PUBCHEM_BOND_UDEF_STEREO_COUNT>
0
> <PUBCHEM_ISOTOPIC_ATOM_COUNT>
0
> <PUBCHEM_COMPONENT_COUNT>
1
> <PUBCHEM_CACTVS_TAUTO_COUNT>
-1
> <PUBCHEM_COORDINATE_TYPE>
1
5
255
> <PUBCHEM_BONDANNOTATIONS>
15  10  5
23  11  6
18  12  5
2  35  8
2  38  8
35  36  8
36  37  8
37  38  8
$$$$
