507462
  -OEChem-10302200282D
109110  0     1  0  0  0  0  0999 V2000
    7.1962   -4.2500    0.0000 S   0  0  0  0  0  0  0  0  0  0  0  0
    8.0622    4.2500    0.0000 S   0  0  0  0  0  0  0  0  0  0  0  0
    6.3301   -4.7500    0.0000 O   0  0  0  0  0  0  0  0  0  0  0  0
    6.3301   -5.7500    0.0000 O   0  0  0  0  0  0  0  0  0  0  0  0
    7.1962   -9.2500    0.0000 O   0  0  0  0  0  0  0  0  0  0  0  0
    5.4641   -1.2500    0.0000 O   0  0  0  0  0  0  0  0  0  0  0  0
    3.7320  -10.2500    0.0000 O   0  0  0  0  0  0  0  0  0  0  0  0
    5.4641   -9.2500    0.0000 O   0  0  0  0  0  0  0  0  0  0  0  0
    2.8660   -8.7500    0.0000 O   0  0  0  0  0  0  0  0  0  0  0  0
    9.0622    4.2500    0.0000 O   0  0  0  0  0  0  0  0  0  0  0  0
    7.0622    4.2500    0.0000 O   0  0  0  0  0  0  0  0  0  0  0  0
    9.7942    5.2500    0.0000 O   0  0  0  0  0  0  0  0  0  0  0  0
    4.5981   -5.7500    0.0000 N   0  0  0  0  0  0  0  0  0  0  0  0
    5.4641   -3.2500    0.0000 N   0  0  0  0  0  0  0  0  0  0  0  0
    6.3301   -7.7500    0.0000 N   0  0  0  0  0  0  0  0  0  0  0  0
    7.1962   -1.2500    0.0000 N   0  0  0  0  0  0  0  0  0  0  0  0
    8.0622    5.2500    0.0000 N   0  0  0  0  0  0  0  0  0  0  0  0
    8.0622    7.2500    0.0000 N   0  0  0  0  0  0  0  0  0  0  0  0
    3.7320   -4.2500    0.0000 C   0  0  0  0  0  0  0  0  0  0  0  0
    4.5981   -4.7500    0.0000 C   0  0  1  0  0  0  0  0  0  0  0  0
    2.8660   -4.7500    0.0000 C   0  0  0  0  0  0  0  0  0  0  0  0
    5.4641   -4.2500    0.0000 C   0  0  0  0  0  0  0  0  0  0  0  0
    2.0000   -4.2500    0.0000 C   0  0  0  0  0  0  0  0  0  0  0  0
    2.8660   -5.7500    0.0000 C   0  0  0  0  0  0  0  0  0  0  0  0
    5.4641   -7.2500    0.0000 C   0  0  2  0  0  0  0  0  0  0  0  0
    5.4641   -6.2500    0.0000 C   0  0  0  0  0  0  0  0  0  0  0  0
    4.5981   -7.7500    0.0000 C   0  0  0  0  0  0  0  0  0  0  0  0
    6.3301   -2.7500    0.0000 C   0  0  1  0  0  0  0  0  0  0  0  0
    4.5981   -8.7500    0.0000 C   0  0  0  0  0  0  0  0  0  0  0  0
    7.1962   -3.2500    0.0000 C   0  0  0  0  0  0  0  0  0  0  0  0
    6.3301   -1.7500    0.0000 C   0  0  0  0  0  0  0  0  0  0  0  0
    7.1962   -0.2500    0.0000 C   0  0  0  0  0  0  0  0  0  0  0  0
    6.3301   -8.7500    0.0000 C   0  0  0  0  0  0  0  0  0  0  0  0
    8.0622    0.2500    0.0000 C   0  0  0  0  0  0  0  0  0  0  0  0
    3.7320   -9.2500    0.0000 C   0  0  0  0  0  0  0  0  0  0  0  0
    8.0622    1.2500    0.0000 C   0  0  0  0  0  0  0  0  0  0  0  0
    8.0622  -10.7500    0.0000 C   0  0  0  0  0  0  0  0  0  0  0  0
    7.1962  -10.2500    0.0000 C   0  0  0  0  0  0  0  0  0  0  0  0
    7.1962    1.7500    0.0000 C   0  0  0  0  0  0  0  0  0  0  0  0
    8.9282    1.7500    0.0000 C   0  0  0  0  0  0  0  0  0  0  0  0
    8.0622    3.2500    0.0000 C   0  0  0  0  0  0  0  0  0  0  0  0
    8.0622  -11.7500    0.0000 C   0  0  0  0  0  0  0  0  0  0  0  0
    8.9282  -10.2500    0.0000 C   0  0  0  0  0  0  0  0  0  0  0  0
    7.1962    2.7500    0.0000 C   0  0  0  0  0  0  0  0  0  0  0  0
    8.9282    2.7500    0.0000 C   0  0  0  0  0  0  0  0  0  0  0  0
    9.7942   10.2500    0.0000 C   0  0  0  0  0  0  0  0  0  0  0  0
    8.9282    9.7500    0.0000 C   0  0  0  0  0  0  0  0  0  0  0  0
    9.7942   11.2500    0.0000 C   0  0  0  0  0  0  0  0  0  0  0  0
    8.9282    8.7500    0.0000 C   0  0  0  0  0  0  0  0  0  0  0  0
    9.7942    8.2500    0.0000 C   0  0  0  0  0  0  0  0  0  0  0  0
    8.9282    6.7500    0.0000 C   0  0  0  0  0  0  0  0  0  0  0  0
    8.9282    5.7500    0.0000 C   0  0  0  0  0  0  0  0  0  0  0  0
   10.6603   11.7500    0.0000 C   0  0  0  0  0  0  0  0  0  0  0  0
    8.0622    8.2500    0.0000 C   0  0  0  0  0  0  0  0  0  0  0  0
    9.7942    7.2500    0.0000 C   0  0  0  0  0  0  0  0  0  0  0  0
    4.1306   -3.7750    0.0000 H   0  0  0  0  0  0  0  0  0  0  0  0
    3.3335   -3.7750    0.0000 H   0  0  0  0  0  0  0  0  0  0  0  0
    5.1350   -5.0600    0.0000 H   0  0  0  0  0  0  0  0  0  0  0  0
    2.8660   -4.1300    0.0000 H   0  0  0  0  0  0  0  0  0  0  0  0
    4.0611   -6.0600    0.0000 H   0  0  0  0  0  0  0  0  0  0  0  0
    2.3100   -3.7131    0.0000 H   0  0  0  0  0  0  0  0  0  0  0  0
    1.4631   -3.9400    0.0000 H   0  0  0  0  0  0  0  0  0  0  0  0
    1.6900   -4.7869    0.0000 H   0  0  0  0  0  0  0  0  0  0  0  0
    2.2460   -5.7500    0.0000 H   0  0  0  0  0  0  0  0  0  0  0  0
    2.8660   -6.3700    0.0000 H   0  0  0  0  0  0  0  0  0  0  0  0
    3.4860   -5.7500    0.0000 H   0  0  0  0  0  0  0  0  0  0  0  0
    5.4641   -7.8700    0.0000 H   0  0  0  0  0  0  0  0  0  0  0  0
    4.3860   -7.1674    0.0000 H   0  0  0  0  0  0  0  0  0  0  0  0
    3.9875   -7.8577    0.0000 H   0  0  0  0  0  0  0  0  0  0  0  0
    4.9272   -2.9400    0.0000 H   0  0  0  0  0  0  0  0  0  0  0  0
    5.7932   -2.4400    0.0000 H   0  0  0  0  0  0  0  0  0  0  0  0
    6.8671   -7.4400    0.0000 H   0  0  0  0  0  0  0  0  0  0  0  0
    4.8101   -9.3326    0.0000 H   0  0  0  0  0  0  0  0  0  0  0  0
    5.2087   -8.6423    0.0000 H   0  0  0  0  0  0  0  0  0  0  0  0
    7.8067   -3.3577    0.0000 H   0  0  0  0  0  0  0  0  0  0  0  0
    7.4082   -2.6674    0.0000 H   0  0  0  0  0  0  0  0  0  0  0  0
    7.7331   -1.5600    0.0000 H   0  0  0  0  0  0  0  0  0  0  0  0
    6.9841    0.3326    0.0000 H   0  0  0  0  0  0  0  0  0  0  0  0
    6.5856   -0.3577    0.0000 H   0  0  0  0  0  0  0  0  0  0  0  0
    8.2742   -0.3326    0.0000 H   0  0  0  0  0  0  0  0  0  0  0  0
    8.6728    0.3577    0.0000 H   0  0  0  0  0  0  0  0  0  0  0  0
    8.0622  -10.1300    0.0000 H   0  0  0  0  0  0  0  0  0  0  0  0
    6.5856  -10.1423    0.0000 H   0  0  0  0  0  0  0  0  0  0  0  0
    6.9841  -10.8326    0.0000 H   0  0  0  0  0  0  0  0  0  0  0  0
    7.7331   -4.5600    0.0000 H   0  0  0  0  0  0  0  0  0  0  0  0
    6.6592    1.4400    0.0000 H   0  0  0  0  0  0  0  0  0  0  0  0
    9.4651    1.4400    0.0000 H   0  0  0  0  0  0  0  0  0  0  0  0
    7.4422  -11.7500    0.0000 H   0  0  0  0  0  0  0  0  0  0  0  0
    8.0622  -12.3700    0.0000 H   0  0  0  0  0  0  0  0  0  0  0  0
    8.6822  -11.7500    0.0000 H   0  0  0  0  0  0  0  0  0  0  0  0
    9.2382  -10.7869    0.0000 H   0  0  0  0  0  0  0  0  0  0  0  0
    9.4651   -9.9400    0.0000 H   0  0  0  0  0  0  0  0  0  0  0  0
    8.6182   -9.7131    0.0000 H   0  0  0  0  0  0  0  0  0  0  0  0
    6.6592    3.0600    0.0000 H   0  0  0  0  0  0  0  0  0  0  0  0
    9.4651    3.0600    0.0000 H   0  0  0  0  0  0  0  0  0  0  0  0
    3.1951  -10.5600    0.0000 H   0  0  0  0  0  0  0  0  0  0  0  0
   10.0063    9.6674    0.0000 H   0  0  0  0  0  0  0  0  0  0  0  0
   10.4048   10.3577    0.0000 H   0  0  0  0  0  0  0  0  0  0  0  0
    8.7162   10.3326    0.0000 H   0  0  0  0  0  0  0  0  0  0  0  0
    8.3176    9.6423    0.0000 H   0  0  0  0  0  0  0  0  0  0  0  0
    9.5822   11.8326    0.0000 H   0  0  0  0  0  0  0  0  0  0  0  0
    9.1836   11.1423    0.0000 H   0  0  0  0  0  0  0  0  0  0  0  0
    7.5252    5.5600    0.0000 H   0  0  0  0  0  0  0  0  0  0  0  0
   10.3312    8.5600    0.0000 H   0  0  0  0  0  0  0  0  0  0  0  0
   10.9703   11.2131    0.0000 H   0  0  0  0  0  0  0  0  0  0  0  0
   11.1972   12.0600    0.0000 H   0  0  0  0  0  0  0  0  0  0  0  0
   10.3503   12.2869    0.0000 H   0  0  0  0  0  0  0  0  0  0  0  0
    7.5252    8.5600    0.0000 H   0  0  0  0  0  0  0  0  0  0  0  0
   10.3312    6.9400    0.0000 H   0  0  0  0  0  0  0  0  0  0  0  0
  1 30  1  0  0  0  0
  1 85  1  0  0  0  0
  2 10  2  0  0  0  0
  2 11  2  0  0  0  0
  2 17  1  0  0  0  0
  2 41  1  0  0  0  0
  3 22  2  0  0  0  0
  4 26  2  0  0  0  0
  5 33  1  0  0  0  0
  5 38  1  0  0  0  0
  6 31  2  0  0  0  0
  7 35  1  0  0  0  0
  7 96  1  0  0  0  0
  8 33  2  0  0  0  0
  9 35  2  0  0  0  0
 12 52  2  0  0  0  0
 20 13  1  1  0  0  0
 13 26  1  0  0  0  0
 13 60  1  0  0  0  0
 14 22  1  0  0  0  0
 28 14  1  6  0  0  0
 14 70  1  0  0  0  0
 25 15  1  1  0  0  0
 15 33  1  0  0  0  0
 15 72  1  0  0  0  0
 16 31  1  0  0  0  0
 16 32  1  0  0  0  0
 16 77  1  0  0  0  0
 17 52  1  0  0  0  0
 17103  1  0  0  0  0
 18 51  2  0  0  0  0
 18 54  1  0  0  0  0
 19 20  1  0  0  0  0
 19 21  1  0  0  0  0
 19 56  1  0  0  0  0
 19 57  1  0  0  0  0
 20 22  1  0  0  0  0
 20 58  1  0  0  0  0
 21 23  1  0  0  0  0
 21 24  1  0  0  0  0
 21 59  1  0  0  0  0
 23 61  1  0  0  0  0
 23 62  1  0  0  0  0
 23 63  1  0  0  0  0
 24 64  1  0  0  0  0
 24 65  1  0  0  0  0
 24 66  1  0  0  0  0
 25 26  1  0  0  0  0
 25 27  1  0  0  0  0
 25 67  1  0  0  0  0
 27 29  1  0  0  0  0
 27 68  1  0  0  0  0
 27 69  1  0  0  0  0
 28 30  1  0  0  0  0
 28 31  1  0  0  0  0
 28 71  1  0  0  0  0
 29 35  1  0  0  0  0
 29 73  1  0  0  0  0
 29 74  1  0  0  0  0
 30 75  1  0  0  0  0
 30 76  1  0  0  0  0
 32 34  1  0  0  0  0
 32 78  1  0  0  0  0
 32 79  1  0  0  0  0
 34 36  1  0  0  0  0
 34 80  1  0  0  0  0
 34 81  1  0  0  0  0
 36 39  2  0  0  0  0
 36 40  1  0  0  0  0
 37 38  1  0  0  0  0
 37 42  1  0  0  0  0
 37 43  1  0  0  0  0
 37 82  1  0  0  0  0
 38 83  1  0  0  0  0
 38 84  1  0  0  0  0
 39 44  1  0  0  0  0
 39 86  1  0  0  0  0
 40 45  2  0  0  0  0
 40 87  1  0  0  0  0
 41 44  2  0  0  0  0
 41 45  1  0  0  0  0
 42 88  1  0  0  0  0
 42 89  1  0  0  0  0
 42 90  1  0  0  0  0
 43 91  1  0  0  0  0
 43 92  1  0  0  0  0
 43 93  1  0  0  0  0
 44 94  1  0  0  0  0
 45 95  1  0  0  0  0
 46 47  1  0  0  0  0
 46 48  1  0  0  0  0
 46 97  1  0  0  0  0
 46 98  1  0  0  0  0
 47 49  1  0  0  0  0
 47 99  1  0  0  0  0
 47100  1  0  0  0  0
 48 53  1  0  0  0  0
 48101  1  0  0  0  0
 48102  1  0  0  0  0
 49 50  1  0  0  0  0
 49 54  2  0  0  0  0
 50 55  2  0  0  0  0
 50104  1  0  0  0  0
 51 52  1  0  0  0  0
 51 55  1  0  0  0  0
 53105  1  0  0  0  0
 53106  1  0  0  0  0
 53107  1  0  0  0  0
 54108  1  0  0  0  0
 55109  1  0  0  0  0
M  END
> <PUBCHEM_COMPOUND_CID>
507462
> <PUBCHEM_COMPOUND_CANONICALIZED>
1
> <PUBCHEM_CACTVS_COMPLEXITY>
1370
> <PUBCHEM_CACTVS_HBOND_ACCEPTOR>
12
> <PUBCHEM_CACTVS_HBOND_DONOR>
7
> <PUBCHEM_CACTVS_ROTATABLE_BOND>
24
> <PUBCHEM_CACTVS_SUBSKEYS>
AAADcfB/vABgAAAAAAAAAAAAAAAAAAAAAAA8QAAAAAAAAAABwAAAHgQQSAAADSjl3ga+iZLIFgaoAzX3XHDCgDA3AiAI2Lm4ZNkIYPLAlbGcYQhklgDIyYe8n4KOEAAAAAAAAAAgAAAAAAAAAAAAAAAAAA==
> <PUBCHEM_IUPAC_OPENEYE_NAME>
(4S)-5-[[(1S)-1-[[(1R)-2-[2-[4-[(5-butylpyridine-2-carbonyl)sulfamoyl]phenyl]ethylamino]-2-oxo-1-(sulfanylmethyl)ethyl]carbamoyl]-3-methyl-butyl]amino]-4-(isobutoxycarbonylamino)-5-oxo-pentanoic acid
> <PUBCHEM_IUPAC_CAS_NAME>
(4S)-5-[[(2S)-1-[[(2R)-1-[2-[4-[[(5-butyl-2-pyridinyl)-oxomethyl]sulfamoyl]phenyl]ethylamino]-3-mercapto-1-oxopropan-2-yl]amino]-4-methyl-1-oxopentan-2-yl]amino]-4-[[2-methylpropoxy(oxo)methyl]amino]-5-oxopentanoic acid
> <PUBCHEM_IUPAC_NAME_MARKUP>
(4<I>S</I>)-5-[[(2<I>S</I>)-1-[[(2<I>R</I>)-1-[2-[4-[(5-butylpyridine-2-carbonyl)sulfamoyl]phenyl]ethylamino]-1-oxo-3-sulfanylpropan-2-yl]amino]-4-methyl-1-oxopentan-2-yl]amino]-4-(2-methylpropoxycarbonylamino)-5-oxopentanoic acid
> <PUBCHEM_IUPAC_NAME>
(4S)-5-[[(2S)-1-[[(2R)-1-[2-[4-[(5-butylpyridine-2-carbonyl)sulfamoyl]phenyl]ethylamino]-1-oxo-3-sulfanylpropan-2-yl]amino]-4-methyl-1-oxopentan-2-yl]amino]-4-(2-methylpropoxycarbonylamino)-5-oxopentanoic acid
> <PUBCHEM_IUPAC_SYSTEMATIC_NAME>
(4S)-5-[[(2S)-1-[[(2R)-1-[2-[4-[(5-butylpyridin-2-yl)carbonylsulfamoyl]phenyl]ethylamino]-1-oxidanylidene-3-sulfanyl-propan-2-yl]amino]-4-methyl-1-oxidanylidene-pentan-2-yl]amino]-4-(2-methylpropoxycarbonylamino)-5-oxidanylidene-pentanoic acid
> <PUBCHEM_IUPAC_TRADITIONAL_NAME>
(4S)-5-[[(1S)-1-[[(1R)-2-[2-[4-[(5-butylpicolinoyl)sulfamoyl]phenyl]ethylamino]-2-keto-1-(mercaptomethyl)ethyl]carbamoyl]-3-methyl-butyl]amino]-4-(isobutoxycarbonylamino)-5-keto-valeric acid
> <PUBCHEM_IUPAC_INCHI>
InChI=1S/C37H54N6O10S2/c1-6-7-8-26-11-14-28(39-20-26)36(49)43-55(51,52)27-12-9-25(10-13-27)17-18-38-33(46)31(22-54)41-35(48)30(19-23(2)3)40-34(47)29(15-16-32(44)45)42-37(50)53-21-24(4)5/h9-14,20,23-24,29-31,54H,6-8,15-19,21-22H2,1-5H3,(H,38,46)(H,40,47)(H,41,48)(H,42,50)(H,43,49)(H,44,45)/t29-,30-,31-/m0/s1
> <PUBCHEM_IUPAC_INCHIKEY>
JFCOBALVEPTDFR-CHQNGUEUSA-N
> <PUBCHEM_XLOGP3_AA>
4.8
> <PUBCHEM_EXACT_MASS>
806.33428429
> <PUBCHEM_MOLECULAR_FORMULA>
C37H54N6O10S2
> <PUBCHEM_MOLECULAR_WEIGHT>
807.0
> <PUBCHEM_OPENEYE_CAN_SMILES>
CCCCC1=CN=C(C=C1)C(=O)NS(=O)(=O)C2=CC=C(C=C2)CCNC(=O)C(CS)NC(=O)C(CC(C)C)NC(=O)C(CCC(=O)O)NC(=O)OCC(C)C
> <PUBCHEM_OPENEYE_ISO_SMILES>
CCCCC1=CN=C(C=C1)C(=O)NS(=O)(=O)C2=CC=C(C=C2)CCNC(=O)[C@H](CS)NC(=O)[C@H](CC(C)C)NC(=O)[C@H](CCC(=O)O)NC(=O)OCC(C)C
> <PUBCHEM_CACTVS_TPSA>
248
> <PUBCHEM_MONOISOTOPIC_WEIGHT>
806.33428429
> <PUBCHEM_TOTAL_CHARGE>
0
> <PUBCHEM_HEAVY_ATOM_COUNT>
55
> <PUBCHEM_ATOM_DEF_STEREO_COUNT>
3
> <PUBCHEM_ATOM_UDEF_STEREO_COUNT>
0
> <PUBCHEM_BOND_DEF_STEREO_COUNT>
0
> <PUBCHEM_BOND_UDEF_STEREO_COUNT>
0
> <PUBCHEM_ISOTOPIC_ATOM_COUNT>
0
> <PUBCHEM_COMPONENT_COUNT>
1
> <PUBCHEM_CACTVS_TAUTO_COUNT>
-1
> <PUBCHEM_COORDINATE_TYPE>
1
5
255
> <PUBCHEM_BONDANNOTATIONS>
20  13  5
28  14  6
25  15  5
18  51  8
18  54  8
36  39  8
36  40  8
39  44  8
40  45  8
41  44  8
41  45  8
49  50  8
49  54  8
50  55  8
51  55  8
$$$$
