507447
  -OEChem-10302200282D
 82 82  0     1  0  0  0  0  0999 V2000
    3.7320    0.6550    0.0000 S   0  0  0  0  0  0  0  0  0  0  0  0
    4.5981    1.1550    0.0000 O   0  0  0  0  0  0  0  0  0  0  0  0
    4.5981    2.1550    0.0000 O   0  0  0  0  0  0  0  0  0  0  0  0
    3.7320    5.6550    0.0000 O   0  0  0  0  0  0  0  0  0  0  0  0
    5.4641   -2.3450    0.0000 O   0  0  0  0  0  0  0  0  0  0  0  0
    7.1962    6.6550    0.0000 O   0  0  0  0  0  0  0  0  0  0  0  0
    5.4641    5.6550    0.0000 O   0  0  0  0  0  0  0  0  0  0  0  0
    8.0622    5.1550    0.0000 O   0  0  0  0  0  0  0  0  0  0  0  0
    2.8660   -7.8450    0.0000 O   0  0  0  0  0  0  0  0  0  0  0  0
    6.3301    2.1550    0.0000 N   0  0  0  0  0  0  0  0  0  0  0  0
    5.4641   -0.3450    0.0000 N   0  0  0  0  0  0  0  0  0  0  0  0
    4.5981    4.1550    0.0000 N   0  0  0  0  0  0  0  0  0  0  0  0
    3.7320   -2.3450    0.0000 N   0  0  0  0  0  0  0  0  0  0  0  0
    7.1962    0.6550    0.0000 C   0  0  0  0  0  0  0  0  0  0  0  0
    6.3301    1.1550    0.0000 C   0  0  1  0  0  0  0  0  0  0  0  0
    8.0622    1.1550    0.0000 C   0  0  0  0  0  0  0  0  0  0  0  0
    5.4641    0.6550    0.0000 C   0  0  0  0  0  0  0  0  0  0  0  0
    5.4641    3.6550    0.0000 C   0  0  2  0  0  0  0  0  0  0  0  0
    8.9282    0.6550    0.0000 C   0  0  0  0  0  0  0  0  0  0  0  0
    8.0622    2.1550    0.0000 C   0  0  0  0  0  0  0  0  0  0  0  0
    5.4641    2.6550    0.0000 C   0  0  0  0  0  0  0  0  0  0  0  0
    6.3301    4.1550    0.0000 C   0  0  0  0  0  0  0  0  0  0  0  0
    4.5981   -0.8450    0.0000 C   0  0  1  0  0  0  0  0  0  0  0  0
    6.3301    5.1550    0.0000 C   0  0  0  0  0  0  0  0  0  0  0  0
    3.7320   -0.3450    0.0000 C   0  0  0  0  0  0  0  0  0  0  0  0
    4.5981   -1.8450    0.0000 C   0  0  0  0  0  0  0  0  0  0  0  0
    4.5981    5.1550    0.0000 C   0  0  0  0  0  0  0  0  0  0  0  0
    3.7320   -3.3450    0.0000 C   0  0  0  0  0  0  0  0  0  0  0  0
    7.1962    5.6550    0.0000 C   0  0  0  0  0  0  0  0  0  0  0  0
    2.8660   -3.8450    0.0000 C   0  0  0  0  0  0  0  0  0  0  0  0
    2.8660    7.1550    0.0000 C   0  0  0  0  0  0  0  0  0  0  0  0
    3.7320    6.6550    0.0000 C   0  0  0  0  0  0  0  0  0  0  0  0
    2.8660   -4.8450    0.0000 C   0  0  0  0  0  0  0  0  0  0  0  0
    2.8660    8.1550    0.0000 C   0  0  0  0  0  0  0  0  0  0  0  0
    2.0000    6.6550    0.0000 C   0  0  0  0  0  0  0  0  0  0  0  0
    3.7320   -5.3450    0.0000 C   0  0  0  0  0  0  0  0  0  0  0  0
    2.0000   -5.3450    0.0000 C   0  0  0  0  0  0  0  0  0  0  0  0
    3.7320   -6.3450    0.0000 C   0  0  0  0  0  0  0  0  0  0  0  0
    2.0000   -6.3450    0.0000 C   0  0  0  0  0  0  0  0  0  0  0  0
    2.8660   -6.8450    0.0000 C   0  0  0  0  0  0  0  0  0  0  0  0
    6.7976    0.1801    0.0000 H   0  0  0  0  0  0  0  0  0  0  0  0
    7.5947    0.1801    0.0000 H   0  0  0  0  0  0  0  0  0  0  0  0
    6.8671    1.4650    0.0000 H   0  0  0  0  0  0  0  0  0  0  0  0
    8.0622    0.5350    0.0000 H   0  0  0  0  0  0  0  0  0  0  0  0
    6.8671    2.4650    0.0000 H   0  0  0  0  0  0  0  0  0  0  0  0
    4.9272    3.3450    0.0000 H   0  0  0  0  0  0  0  0  0  0  0  0
    8.6182    0.1181    0.0000 H   0  0  0  0  0  0  0  0  0  0  0  0
    9.4651    0.3450    0.0000 H   0  0  0  0  0  0  0  0  0  0  0  0
    9.2382    1.1919    0.0000 H   0  0  0  0  0  0  0  0  0  0  0  0
    8.6822    2.1550    0.0000 H   0  0  0  0  0  0  0  0  0  0  0  0
    8.0622    2.7750    0.0000 H   0  0  0  0  0  0  0  0  0  0  0  0
    7.4422    2.1550    0.0000 H   0  0  0  0  0  0  0  0  0  0  0  0
    6.5422    3.5724    0.0000 H   0  0  0  0  0  0  0  0  0  0  0  0
    6.9407    4.2627    0.0000 H   0  0  0  0  0  0  0  0  0  0  0  0
    6.0010   -0.6550    0.0000 H   0  0  0  0  0  0  0  0  0  0  0  0
    4.5981   -0.2250    0.0000 H   0  0  0  0  0  0  0  0  0  0  0  0
    4.0611    3.8450    0.0000 H   0  0  0  0  0  0  0  0  0  0  0  0
    6.1181    5.7376    0.0000 H   0  0  0  0  0  0  0  0  0  0  0  0
    5.7196    5.0473    0.0000 H   0  0  0  0  0  0  0  0  0  0  0  0
    3.1215   -0.2373    0.0000 H   0  0  0  0  0  0  0  0  0  0  0  0
    3.5200   -0.9276    0.0000 H   0  0  0  0  0  0  0  0  0  0  0  0
    3.1951   -2.0350    0.0000 H   0  0  0  0  0  0  0  0  0  0  0  0
    3.9441   -3.9276    0.0000 H   0  0  0  0  0  0  0  0  0  0  0  0
    4.3426   -3.2373    0.0000 H   0  0  0  0  0  0  0  0  0  0  0  0
    2.6540   -3.2624    0.0000 H   0  0  0  0  0  0  0  0  0  0  0  0
    2.2554   -3.9527    0.0000 H   0  0  0  0  0  0  0  0  0  0  0  0
    2.8660    6.5350    0.0000 H   0  0  0  0  0  0  0  0  0  0  0  0
    4.3426    6.5473    0.0000 H   0  0  0  0  0  0  0  0  0  0  0  0
    3.9441    7.2376    0.0000 H   0  0  0  0  0  0  0  0  0  0  0  0
    3.1951    0.9650    0.0000 H   0  0  0  0  0  0  0  0  0  0  0  0
    3.4860    8.1550    0.0000 H   0  0  0  0  0  0  0  0  0  0  0  0
    2.8660    8.7750    0.0000 H   0  0  0  0  0  0  0  0  0  0  0  0
    2.2460    8.1550    0.0000 H   0  0  0  0  0  0  0  0  0  0  0  0
    1.6900    7.1919    0.0000 H   0  0  0  0  0  0  0  0  0  0  0  0
    1.4631    6.3450    0.0000 H   0  0  0  0  0  0  0  0  0  0  0  0
    2.3100    6.1181    0.0000 H   0  0  0  0  0  0  0  0  0  0  0  0
    4.2690   -5.0350    0.0000 H   0  0  0  0  0  0  0  0  0  0  0  0
    1.4631   -5.0350    0.0000 H   0  0  0  0  0  0  0  0  0  0  0  0
    7.7331    6.9650    0.0000 H   0  0  0  0  0  0  0  0  0  0  0  0
    4.2690   -6.6550    0.0000 H   0  0  0  0  0  0  0  0  0  0  0  0
    1.4631   -6.6550    0.0000 H   0  0  0  0  0  0  0  0  0  0  0  0
    2.3291   -8.1550    0.0000 H   0  0  0  0  0  0  0  0  0  0  0  0
  1 25  1  0  0  0  0
  1 70  1  0  0  0  0
  2 17  2  0  0  0  0
  3 21  2  0  0  0  0
  4 27  1  0  0  0  0
  4 32  1  0  0  0  0
  5 26  2  0  0  0  0
  6 29  1  0  0  0  0
  6 79  1  0  0  0  0
  7 27  2  0  0  0  0
  8 29  2  0  0  0  0
  9 40  1  0  0  0  0
  9 82  1  0  0  0  0
 15 10  1  1  0  0  0
 10 21  1  0  0  0  0
 10 45  1  0  0  0  0
 11 17  1  0  0  0  0
 23 11  1  6  0  0  0
 11 55  1  0  0  0  0
 18 12  1  1  0  0  0
 12 27  1  0  0  0  0
 12 57  1  0  0  0  0
 13 26  1  0  0  0  0
 13 28  1  0  0  0  0
 13 62  1  0  0  0  0
 14 15  1  0  0  0  0
 14 16  1  0  0  0  0
 14 41  1  0  0  0  0
 14 42  1  0  0  0  0
 15 17  1  0  0  0  0
 15 43  1  0  0  0  0
 16 19  1  0  0  0  0
 16 20  1  0  0  0  0
 16 44  1  0  0  0  0
 18 21  1  0  0  0  0
 18 22  1  0  0  0  0
 18 46  1  0  0  0  0
 19 47  1  0  0  0  0
 19 48  1  0  0  0  0
 19 49  1  0  0  0  0
 20 50  1  0  0  0  0
 20 51  1  0  0  0  0
 20 52  1  0  0  0  0
 22 24  1  0  0  0  0
 22 53  1  0  0  0  0
 22 54  1  0  0  0  0
 23 25  1  0  0  0  0
 23 26  1  0  0  0  0
 23 56  1  0  0  0  0
 24 29  1  0  0  0  0
 24 58  1  0  0  0  0
 24 59  1  0  0  0  0
 25 60  1  0  0  0  0
 25 61  1  0  0  0  0
 28 30  1  0  0  0  0
 28 63  1  0  0  0  0
 28 64  1  0  0  0  0
 30 33  1  0  0  0  0
 30 65  1  0  0  0  0
 30 66  1  0  0  0  0
 31 32  1  0  0  0  0
 31 34  1  0  0  0  0
 31 35  1  0  0  0  0
 31 67  1  0  0  0  0
 32 68  1  0  0  0  0
 32 69  1  0  0  0  0
 33 36  2  0  0  0  0
 33 37  1  0  0  0  0
 34 71  1  0  0  0  0
 34 72  1  0  0  0  0
 34 73  1  0  0  0  0
 35 74  1  0  0  0  0
 35 75  1  0  0  0  0
 35 76  1  0  0  0  0
 36 38  1  0  0  0  0
 36 77  1  0  0  0  0
 37 39  2  0  0  0  0
 37 78  1  0  0  0  0
 38 40  2  0  0  0  0
 38 80  1  0  0  0  0
 39 40  1  0  0  0  0
 39 81  1  0  0  0  0
M  END
> <PUBCHEM_COMPOUND_CID>
507447
> <PUBCHEM_COMPOUND_CANONICALIZED>
1
> <PUBCHEM_CACTVS_COMPLEXITY>
833
> <PUBCHEM_CACTVS_HBOND_ACCEPTOR>
9
> <PUBCHEM_CACTVS_HBOND_DONOR>
7
> <PUBCHEM_CACTVS_ROTATABLE_BOND>
18
> <PUBCHEM_CACTVS_SUBSKEYS>
AAADcfB7vABAAAAAAAAAAAAAAAAAAAAAAAAwAAAAAAAAAAABAAAAHgQQCAAADSzl2AayDoLABgSIAiHSGAACAAAgIAAIiIGOCIkIZjKCkTOccAAk1hGImAe814IOIAAAAAAAAABAAAAAAAAAAAAAAAAAAA==
> <PUBCHEM_IUPAC_OPENEYE_NAME>
(4S)-5-[[(1S)-1-[[(1R)-2-[2-(4-hydroxyphenyl)ethylamino]-2-oxo-1-(sulfanylmethyl)ethyl]carbamoyl]-3-methyl-butyl]amino]-4-(isobutoxycarbonylamino)-5-oxo-pentanoic acid
> <PUBCHEM_IUPAC_CAS_NAME>
(4S)-5-[[(2S)-1-[[(2R)-1-[2-(4-hydroxyphenyl)ethylamino]-3-mercapto-1-oxopropan-2-yl]amino]-4-methyl-1-oxopentan-2-yl]amino]-4-[[2-methylpropoxy(oxo)methyl]amino]-5-oxopentanoic acid
> <PUBCHEM_IUPAC_NAME_MARKUP>
(4<I>S</I>)-5-[[(2<I>S</I>)-1-[[(2<I>R</I>)-1-[2-(4-hydroxyphenyl)ethylamino]-1-oxo-3-sulfanylpropan-2-yl]amino]-4-methyl-1-oxopentan-2-yl]amino]-4-(2-methylpropoxycarbonylamino)-5-oxopentanoic acid
> <PUBCHEM_IUPAC_NAME>
(4S)-5-[[(2S)-1-[[(2R)-1-[2-(4-hydroxyphenyl)ethylamino]-1-oxo-3-sulfanylpropan-2-yl]amino]-4-methyl-1-oxopentan-2-yl]amino]-4-(2-methylpropoxycarbonylamino)-5-oxopentanoic acid
> <PUBCHEM_IUPAC_SYSTEMATIC_NAME>
(4S)-5-[[(2S)-1-[[(2R)-1-[2-(4-hydroxyphenyl)ethylamino]-1-oxidanylidene-3-sulfanyl-propan-2-yl]amino]-4-methyl-1-oxidanylidene-pentan-2-yl]amino]-4-(2-methylpropoxycarbonylamino)-5-oxidanylidene-pentanoic acid
> <PUBCHEM_IUPAC_TRADITIONAL_NAME>
(4S)-5-[[(1S)-1-[[(1R)-2-[2-(4-hydroxyphenyl)ethylamino]-2-keto-1-(mercaptomethyl)ethyl]carbamoyl]-3-methyl-butyl]amino]-4-(isobutoxycarbonylamino)-5-keto-valeric acid
> <PUBCHEM_IUPAC_INCHI>
InChI=1S/C27H42N4O8S/c1-16(2)13-21(29-25(36)20(9-10-23(33)34)31-27(38)39-14-17(3)4)26(37)30-22(15-40)24(35)28-12-11-18-5-7-19(32)8-6-18/h5-8,16-17,20-22,32,40H,9-15H2,1-4H3,(H,28,35)(H,29,36)(H,30,37)(H,31,38)(H,33,34)/t20-,21-,22-/m0/s1
> <PUBCHEM_IUPAC_INCHIKEY>
LRGAOCZWCKDILW-FKBYEOEOSA-N
> <PUBCHEM_XLOGP3_AA>
2.8
> <PUBCHEM_EXACT_MASS>
582.27233548
> <PUBCHEM_MOLECULAR_FORMULA>
C27H42N4O8S
> <PUBCHEM_MOLECULAR_WEIGHT>
582.7
> <PUBCHEM_OPENEYE_CAN_SMILES>
CC(C)CC(C(=O)NC(CS)C(=O)NCCC1=CC=C(C=C1)O)NC(=O)C(CCC(=O)O)NC(=O)OCC(C)C
> <PUBCHEM_OPENEYE_ISO_SMILES>
CC(C)C[C@@H](C(=O)N[C@@H](CS)C(=O)NCCC1=CC=C(C=C1)O)NC(=O)[C@H](CCC(=O)O)NC(=O)OCC(C)C
> <PUBCHEM_CACTVS_TPSA>
184
> <PUBCHEM_MONOISOTOPIC_WEIGHT>
582.27233548
> <PUBCHEM_TOTAL_CHARGE>
0
> <PUBCHEM_HEAVY_ATOM_COUNT>
40
> <PUBCHEM_ATOM_DEF_STEREO_COUNT>
3
> <PUBCHEM_ATOM_UDEF_STEREO_COUNT>
0
> <PUBCHEM_BOND_DEF_STEREO_COUNT>
0
> <PUBCHEM_BOND_UDEF_STEREO_COUNT>
0
> <PUBCHEM_ISOTOPIC_ATOM_COUNT>
0
> <PUBCHEM_COMPONENT_COUNT>
1
> <PUBCHEM_CACTVS_TAUTO_COUNT>
-1
> <PUBCHEM_COORDINATE_TYPE>
1
5
255
> <PUBCHEM_BONDANNOTATIONS>
15  10  5
23  11  6
18  12  5
33  36  8
33  37  8
36  38  8
37  39  8
38  40  8
39  40  8
$$$$
