507405
  -OEChem-10302200282D
 83 87  0     1  0  0  0  0  0999 V2000
   10.7669    4.6416    0.0000 Cl  0  0  0  0  0  0  0  0  0  0  0  0
    6.5422    2.8662    0.0000 F   0  0  0  0  0  0  0  0  0  0  0  0
    9.5708   -1.8058    0.0000 F   0  0  0  0  0  0  0  0  0  0  0  0
   11.4813    1.2520    0.0000 F   0  0  0  0  0  0  0  0  0  0  0  0
    6.2619   -3.6416    0.0000 O   0  0  0  0  0  0  0  0  0  0  0  0
    5.6103    0.0147    0.0000 O   0  0  0  0  0  0  0  0  0  0  0  0
    7.9244   -1.2677    0.0000 O   0  0  0  0  0  0  0  0  0  0  0  0
    6.8994    1.1714    0.0000 O   0  0  0  0  0  0  0  0  0  0  0  0
    9.2136   -0.1110    0.0000 O   0  0  0  0  0  0  0  0  0  0  0  0
    6.6353   -2.4245    0.0000 O   0  0  0  0  0  0  0  0  0  0  0  0
    8.1886    2.3282    0.0000 O   0  0  0  0  0  0  0  0  0  0  0  0
    4.9889   -1.8864    0.0000 N   0  0  0  0  0  0  0  0  0  0  0  0
    9.8349    1.7901    0.0000 N   0  0  0  0  0  0  0  0  0  0  0  0
    4.6783   -2.8369    0.0000 C   0  0  2  0  0  0  0  0  0  0  0  0
    5.2619   -3.6416    0.0000 C   0  0  3  0  0  0  0  0  0  0  0  0
    4.6783   -4.4464    0.0000 C   0  0  0  0  0  0  0  0  0  0  0  0
    3.7320   -3.1416    0.0000 C   0  0  0  0  0  0  0  0  0  0  0  0
    3.7320   -4.1416    0.0000 C   0  0  0  0  0  0  0  0  0  0  0  0
    6.2781   -0.7296    0.0000 C   0  0  2  0  0  0  0  0  0  0  0  0
    7.2566   -0.5234    0.0000 C   0  0  3  0  0  0  0  0  0  0  0  0
    2.8660   -2.6416    0.0000 C   0  0  0  0  0  0  0  0  0  0  0  0
    5.9674   -1.6802    0.0000 C   0  0  0  0  0  0  0  0  0  0  0  0
    2.8660   -4.6416    0.0000 C   0  0  0  0  0  0  0  0  0  0  0  0
    7.5673    0.4271    0.0000 C   0  0  3  0  0  0  0  0  0  0  0  0
    2.0000   -3.1416    0.0000 C   0  0  0  0  0  0  0  0  0  0  0  0
    8.5458    0.6333    0.0000 C   0  0  3  0  0  0  0  0  0  0  0  0
    2.0000   -4.1416    0.0000 C   0  0  0  0  0  0  0  0  0  0  0  0
    8.8564    1.5838    0.0000 C   0  0  0  0  0  0  0  0  0  0  0  0
    5.9209    0.9652    0.0000 C   0  0  0  0  0  0  0  0  0  0  0  0
   10.1921    0.0952    0.0000 C   0  0  0  0  0  0  0  0  0  0  0  0
    5.2531    1.7095    0.0000 C   0  0  0  0  0  0  0  0  0  0  0  0
   10.1456    2.7406    0.0000 C   0  0  0  0  0  0  0  0  0  0  0  0
   10.8600   -0.6491    0.0000 C   0  0  0  0  0  0  0  0  0  0  0  0
    5.5637    2.6600    0.0000 C   0  0  0  0  0  0  0  0  0  0  0  0
    4.2746    1.5033    0.0000 C   0  0  0  0  0  0  0  0  0  0  0  0
   11.1241    2.9468    0.0000 C   0  0  0  0  0  0  0  0  0  0  0  0
   10.5493   -1.5996    0.0000 C   0  0  0  0  0  0  0  0  0  0  0  0
   11.8385   -0.4428    0.0000 C   0  0  0  0  0  0  0  0  0  0  0  0
    4.8959    3.4043    0.0000 C   0  0  0  0  0  0  0  0  0  0  0  0
    3.6067    2.2476    0.0000 C   0  0  0  0  0  0  0  0  0  0  0  0
    3.9174    3.1981    0.0000 C   0  0  0  0  0  0  0  0  0  0  0  0
   11.4348    3.8973    0.0000 C   0  0  0  0  0  0  0  0  0  0  0  0
   11.7920    2.2025    0.0000 C   0  0  0  0  0  0  0  0  0  0  0  0
   11.2171   -2.3439    0.0000 C   0  0  0  0  0  0  0  0  0  0  0  0
   12.5063   -1.1871    0.0000 C   0  0  0  0  0  0  0  0  0  0  0  0
   12.1957   -2.1377    0.0000 C   0  0  0  0  0  0  0  0  0  0  0  0
   12.4133    4.1035    0.0000 C   0  0  0  0  0  0  0  0  0  0  0  0
   12.7705    2.4087    0.0000 C   0  0  0  0  0  0  0  0  0  0  0  0
   13.0811    3.3592    0.0000 C   0  0  0  0  0  0  0  0  0  0  0  0
    5.2908   -2.7407    0.0000 H   0  0  0  0  0  0  0  0  0  0  0  0
    5.5436   -3.0893    0.0000 H   0  0  0  0  0  0  0  0  0  0  0  0
    4.4272   -5.0133    0.0000 H   0  0  0  0  0  0  0  0  0  0  0  0
    5.2156   -4.7556    0.0000 H   0  0  0  0  0  0  0  0  0  0  0  0
    4.5749   -1.4249    0.0000 H   0  0  0  0  0  0  0  0  0  0  0  0
    5.6714   -0.8575    0.0000 H   0  0  0  0  0  0  0  0  0  0  0  0
    7.0640   -1.1127    0.0000 H   0  0  0  0  0  0  0  0  0  0  0  0
    2.8660   -2.0216    0.0000 H   0  0  0  0  0  0  0  0  0  0  0  0
    2.8660   -5.2616    0.0000 H   0  0  0  0  0  0  0  0  0  0  0  0
    6.9606    0.2992    0.0000 H   0  0  0  0  0  0  0  0  0  0  0  0
    6.5719   -4.1786    0.0000 H   0  0  0  0  0  0  0  0  0  0  0  0
    1.4631   -2.8316    0.0000 H   0  0  0  0  0  0  0  0  0  0  0  0
    8.3532    0.0440    0.0000 H   0  0  0  0  0  0  0  0  0  0  0  0
    1.4631   -4.4516    0.0000 H   0  0  0  0  0  0  0  0  0  0  0  0
    8.5311   -1.1399    0.0000 H   0  0  0  0  0  0  0  0  0  0  0  0
    6.4678    0.6732    0.0000 H   0  0  0  0  0  0  0  0  0  0  0  0
    6.3035    1.4531    0.0000 H   0  0  0  0  0  0  0  0  0  0  0  0
    7.0920    1.7607    0.0000 H   0  0  0  0  0  0  0  0  0  0  0  0
   10.7185    0.4229    0.0000 H   0  0  0  0  0  0  0  0  0  0  0  0
    9.9609    0.6705    0.0000 H   0  0  0  0  0  0  0  0  0  0  0  0
   10.2490    1.3286    0.0000 H   0  0  0  0  0  0  0  0  0  0  0  0
   10.1250    3.3602    0.0000 H   0  0  0  0  0  0  0  0  0  0  0  0
    9.5318    2.8279    0.0000 H   0  0  0  0  0  0  0  0  0  0  0  0
    4.0820    0.9139    0.0000 H   0  0  0  0  0  0  0  0  0  0  0  0
   12.0311    0.1465    0.0000 H   0  0  0  0  0  0  0  0  0  0  0  0
    5.0885    3.9936    0.0000 H   0  0  0  0  0  0  0  0  0  0  0  0
    3.0000    2.1197    0.0000 H   0  0  0  0  0  0  0  0  0  0  0  0
    3.5033    3.6596    0.0000 H   0  0  0  0  0  0  0  0  0  0  0  0
   11.0245   -2.9332    0.0000 H   0  0  0  0  0  0  0  0  0  0  0  0
   13.1130   -1.0593    0.0000 H   0  0  0  0  0  0  0  0  0  0  0  0
   12.6097   -2.5991    0.0000 H   0  0  0  0  0  0  0  0  0  0  0  0
   12.6059    4.6929    0.0000 H   0  0  0  0  0  0  0  0  0  0  0  0
   13.1845    1.9472    0.0000 H   0  0  0  0  0  0  0  0  0  0  0  0
   13.6878    3.4871    0.0000 H   0  0  0  0  0  0  0  0  0  0  0  0
  1 42  1  0  0  0  0
  2 34  1  0  0  0  0
  3 37  1  0  0  0  0
  4 43  1  0  0  0  0
  5 15  1  0  0  0  0
  5 60  1  0  0  0  0
 19  6  1  6  0  0  0
  6 29  1  0  0  0  0
  7 20  1  0  0  0  0
  7 64  1  0  0  0  0
  8 24  1  0  0  0  0
  8 67  1  0  0  0  0
  9 26  1  0  0  0  0
  9 30  1  0  0  0  0
 10 22  2  0  0  0  0
 11 28  2  0  0  0  0
 14 12  1  6  0  0  0
 12 22  1  0  0  0  0
 12 54  1  0  0  0  0
 13 28  1  0  0  0  0
 13 32  1  0  0  0  0
 13 70  1  0  0  0  0
 14 15  1  0  0  0  0
 14 17  1  0  0  0  0
 14 50  1  0  0  0  0
 15 16  1  0  0  0  0
 15 51  1  0  0  0  0
 16 18  1  0  0  0  0
 16 52  1  0  0  0  0
 16 53  1  0  0  0  0
 17 18  1  0  0  0  0
 17 21  2  0  0  0  0
 18 23  2  0  0  0  0
 19 20  1  0  0  0  0
 19 22  1  0  0  0  0
 19 55  1  0  0  0  0
 20 24  1  0  0  0  0
 20 56  1  0  0  0  0
 21 25  1  0  0  0  0
 21 57  1  0  0  0  0
 23 27  1  0  0  0  0
 23 58  1  0  0  0  0
 24 26  1  0  0  0  0
 24 59  1  0  0  0  0
 25 27  2  0  0  0  0
 25 61  1  0  0  0  0
 26 28  1  0  0  0  0
 26 62  1  0  0  0  0
 27 63  1  0  0  0  0
 29 31  1  0  0  0  0
 29 65  1  0  0  0  0
 29 66  1  0  0  0  0
 30 33  1  0  0  0  0
 30 68  1  0  0  0  0
 30 69  1  0  0  0  0
 31 34  1  0  0  0  0
 31 35  2  0  0  0  0
 32 36  1  0  0  0  0
 32 71  1  0  0  0  0
 32 72  1  0  0  0  0
 33 37  1  0  0  0  0
 33 38  2  0  0  0  0
 34 39  2  0  0  0  0
 35 40  1  0  0  0  0
 35 73  1  0  0  0  0
 36 42  1  0  0  0  0
 36 43  2  0  0  0  0
 37 44  2  0  0  0  0
 38 45  1  0  0  0  0
 38 74  1  0  0  0  0
 39 41  1  0  0  0  0
 39 75  1  0  0  0  0
 40 41  2  0  0  0  0
 40 76  1  0  0  0  0
 41 77  1  0  0  0  0
 42 47  2  0  0  0  0
 43 48  1  0  0  0  0
 44 46  1  0  0  0  0
 44 78  1  0  0  0  0
 45 46  2  0  0  0  0
 45 79  1  0  0  0  0
 46 80  1  0  0  0  0
 47 49  1  0  0  0  0
 47 81  1  0  0  0  0
 48 49  2  0  0  0  0
 48 82  1  0  0  0  0
 49 83  1  0  0  0  0
M  END
> <PUBCHEM_COMPOUND_CID>
507405
> <PUBCHEM_COMPOUND_CANONICALIZED>
1
> <PUBCHEM_CACTVS_COMPLEXITY>
1070
> <PUBCHEM_CACTVS_HBOND_ACCEPTOR>
10
> <PUBCHEM_CACTVS_HBOND_DONOR>
5
> <PUBCHEM_CACTVS_ROTATABLE_BOND>
14
> <PUBCHEM_CACTVS_SUBSKEYS>
AAADcfB/OYAEAAAAAAAAAAAAAAAAAYAAAAAwYMGAAAAAAGABVAAAHwIQCAAADD7hmC4wAILABgCIAiFSEAKCAAAgBQAIiIFIDogLNjaBsx2HcAhn9gGbqAf63KJOgAAAAAARAAAAAAAAACIAAKAACQgAAA==
> <PUBCHEM_IUPAC_OPENEYE_NAME>
(5R)-N-[(2-chloro-6-fluoro-phenyl)methyl]-2,5-bis[(2-fluorophenyl)methoxy]-3,4-dihydroxy-N'-[(1S)-2-hydroxyindan-1-yl]hexanediamide
> <PUBCHEM_IUPAC_CAS_NAME>
(5R)-N-[(2-chloro-6-fluorophenyl)methyl]-2,5-bis[(2-fluorophenyl)methoxy]-3,4-dihydroxy-N'-[(1S)-2-hydroxy-2,3-dihydro-1H-inden-1-yl]hexanediamide
> <PUBCHEM_IUPAC_NAME_MARKUP>
(5<I>R</I>)-<I>N</I>-[(2-chloro-6-fluorophenyl)methyl]-2,5-bis[(2-fluorophenyl)methoxy]-3,4-dihydroxy-<I>N</I>&apos;-[(1<I>S</I>)-2-hydroxy-2,3-dihydro-1<I>H</I>-inden-1-yl]hexanediamide
> <PUBCHEM_IUPAC_NAME>
(5R)-N-[(2-chloro-6-fluorophenyl)methyl]-2,5-bis[(2-fluorophenyl)methoxy]-3,4-dihydroxy-N'-[(1S)-2-hydroxy-2,3-dihydro-1H-inden-1-yl]hexanediamide
> <PUBCHEM_IUPAC_SYSTEMATIC_NAME>
(5R)-N-[(2-chloranyl-6-fluoranyl-phenyl)methyl]-2,5-bis[(2-fluorophenyl)methoxy]-3,4-bis(oxidanyl)-N'-[(1S)-2-oxidanyl-2,3-dihydro-1H-inden-1-yl]hexanediamide
> <PUBCHEM_IUPAC_TRADITIONAL_NAME>
(5R)-N-(2-chloro-6-fluoro-benzyl)-2,5-bis[(2-fluorobenzyl)oxy]-3,4-dihydroxy-N'-[(1S)-2-hydroxyindan-1-yl]adipamide
> <PUBCHEM_IUPAC_INCHI>
InChI=1S/C36H34ClF3N2O7/c37-25-12-7-15-28(40)24(25)17-41-35(46)33(48-18-21-9-2-5-13-26(21)38)31(44)32(45)34(49-19-22-10-3-6-14-27(22)39)36(47)42-30-23-11-4-1-8-20(23)16-29(30)43/h1-15,29-34,43-45H,16-19H2,(H,41,46)(H,42,47)/t29?,30-,31?,32?,33?,34+/m0/s1
> <PUBCHEM_IUPAC_INCHIKEY>
KDGPSDKJIJPNSV-IMLYLWGVSA-N
> <PUBCHEM_XLOGP3_AA>
4.4
> <PUBCHEM_EXACT_MASS>
698.2006636
> <PUBCHEM_MOLECULAR_FORMULA>
C36H34ClF3N2O7
> <PUBCHEM_MOLECULAR_WEIGHT>
699.1
> <PUBCHEM_OPENEYE_CAN_SMILES>
C1C(C(C2=CC=CC=C21)NC(=O)C(C(C(C(C(=O)NCC3=C(C=CC=C3Cl)F)OCC4=CC=CC=C4F)O)O)OCC5=CC=CC=C5F)O
> <PUBCHEM_OPENEYE_ISO_SMILES>
C1C([C@H](C2=CC=CC=C21)NC(=O)[C@@H](C(C(C(C(=O)NCC3=C(C=CC=C3Cl)F)OCC4=CC=CC=C4F)O)O)OCC5=CC=CC=C5F)O
> <PUBCHEM_CACTVS_TPSA>
137
> <PUBCHEM_MONOISOTOPIC_WEIGHT>
698.2006636
> <PUBCHEM_TOTAL_CHARGE>
0
> <PUBCHEM_HEAVY_ATOM_COUNT>
49
> <PUBCHEM_ATOM_DEF_STEREO_COUNT>
2
> <PUBCHEM_ATOM_UDEF_STEREO_COUNT>
4
> <PUBCHEM_BOND_DEF_STEREO_COUNT>
0
> <PUBCHEM_BOND_UDEF_STEREO_COUNT>
0
> <PUBCHEM_ISOTOPIC_ATOM_COUNT>
0
> <PUBCHEM_COMPONENT_COUNT>
1
> <PUBCHEM_CACTVS_TAUTO_COUNT>
-1
> <PUBCHEM_COORDINATE_TYPE>
1
5
255
> <PUBCHEM_BONDANNOTATIONS>
14  12  6
17  18  8
17  21  8
18  23  8
21  25  8
23  27  8
25  27  8
26  28  3
31  34  8
31  35  8
33  37  8
33  38  8
34  39  8
35  40  8
36  42  8
36  43  8
37  44  8
38  45  8
39  41  8
40  41  8
42  47  8
43  48  8
44  46  8
45  46  8
47  49  8
48  49  8
15  5  3
19  6  6
20  7  3
24  8  3
$$$$
