507484
  -OEChem-10302200282D
 84 84  0     1  0  0  0  0  0999 V2000
    4.5981   -1.0600    0.0000 S   0  0  0  0  0  0  0  0  0  0  0  0
    2.0000    4.4400    0.0000 F   0  0  0  0  0  0  0  0  0  0  0  0
    5.4641   -1.5600    0.0000 O   0  0  0  0  0  0  0  0  0  0  0  0
    5.4641   -2.5600    0.0000 O   0  0  0  0  0  0  0  0  0  0  0  0
    4.5981   -6.0600    0.0000 O   0  0  0  0  0  0  0  0  0  0  0  0
    6.3301    1.9400    0.0000 O   0  0  0  0  0  0  0  0  0  0  0  0
    8.0622   -7.0600    0.0000 O   0  0  0  0  0  0  0  0  0  0  0  0
    6.3301   -6.0600    0.0000 O   0  0  0  0  0  0  0  0  0  0  0  0
    8.9282   -5.5600    0.0000 O   0  0  0  0  0  0  0  0  0  0  0  0
    4.5981    7.9400    0.0000 O   0  0  0  0  0  0  0  0  0  0  0  0
    2.8660    7.9400    0.0000 O   0  0  0  0  0  0  0  0  0  0  0  0
    7.1962   -2.5600    0.0000 N   0  0  0  0  0  0  0  0  0  0  0  0
    6.3301   -0.0600    0.0000 N   0  0  0  0  0  0  0  0  0  0  0  0
    5.4641   -4.5600    0.0000 N   0  0  0  0  0  0  0  0  0  0  0  0
    4.5981    1.9400    0.0000 N   0  0  0  0  0  0  0  0  0  0  0  0
    8.0622   -1.0600    0.0000 C   0  0  0  0  0  0  0  0  0  0  0  0
    7.1962   -1.5600    0.0000 C   0  0  1  0  0  0  0  0  0  0  0  0
    8.9282   -1.5600    0.0000 C   0  0  0  0  0  0  0  0  0  0  0  0
    6.3301   -1.0600    0.0000 C   0  0  0  0  0  0  0  0  0  0  0  0
    6.3301   -4.0600    0.0000 C   0  0  2  0  0  0  0  0  0  0  0  0
    9.7942   -1.0600    0.0000 C   0  0  0  0  0  0  0  0  0  0  0  0
    8.9282   -2.5600    0.0000 C   0  0  0  0  0  0  0  0  0  0  0  0
    6.3301   -3.0600    0.0000 C   0  0  0  0  0  0  0  0  0  0  0  0
    7.1962   -4.5600    0.0000 C   0  0  0  0  0  0  0  0  0  0  0  0
    5.4641    0.4400    0.0000 C   0  0  1  0  0  0  0  0  0  0  0  0
    7.1962   -5.5600    0.0000 C   0  0  0  0  0  0  0  0  0  0  0  0
    4.5981   -0.0600    0.0000 C   0  0  0  0  0  0  0  0  0  0  0  0
    5.4641    1.4400    0.0000 C   0  0  0  0  0  0  0  0  0  0  0  0
    5.4641   -5.5600    0.0000 C   0  0  0  0  0  0  0  0  0  0  0  0
    4.5981    2.9400    0.0000 C   0  0  0  0  0  0  0  0  0  0  0  0
    8.0622   -6.0600    0.0000 C   0  0  0  0  0  0  0  0  0  0  0  0
    3.7320    3.4400    0.0000 C   0  0  0  0  0  0  0  0  0  0  0  0
    3.7320   -7.5600    0.0000 C   0  0  0  0  0  0  0  0  0  0  0  0
    4.5981   -7.0600    0.0000 C   0  0  0  0  0  0  0  0  0  0  0  0
    3.7320    4.4400    0.0000 C   0  0  0  0  0  0  0  0  0  0  0  0
    3.7320   -8.5600    0.0000 C   0  0  0  0  0  0  0  0  0  0  0  0
    2.8660   -7.0600    0.0000 C   0  0  0  0  0  0  0  0  0  0  0  0
    2.8660    4.9400    0.0000 C   0  0  0  0  0  0  0  0  0  0  0  0
    4.5981    4.9400    0.0000 C   0  0  0  0  0  0  0  0  0  0  0  0
    2.8660    5.9400    0.0000 C   0  0  0  0  0  0  0  0  0  0  0  0
    4.5981    5.9400    0.0000 C   0  0  0  0  0  0  0  0  0  0  0  0
    3.7320    6.4400    0.0000 C   0  0  0  0  0  0  0  0  0  0  0  0
    3.7320    7.4400    0.0000 C   0  0  0  0  0  0  0  0  0  0  0  0
    8.4607   -0.5851    0.0000 H   0  0  0  0  0  0  0  0  0  0  0  0
    7.6636   -0.5851    0.0000 H   0  0  0  0  0  0  0  0  0  0  0  0
    6.6592   -1.8700    0.0000 H   0  0  0  0  0  0  0  0  0  0  0  0
    9.4651   -1.8700    0.0000 H   0  0  0  0  0  0  0  0  0  0  0  0
    7.7331   -2.8700    0.0000 H   0  0  0  0  0  0  0  0  0  0  0  0
    5.7932   -3.7500    0.0000 H   0  0  0  0  0  0  0  0  0  0  0  0
   10.1042   -1.5969    0.0000 H   0  0  0  0  0  0  0  0  0  0  0  0
   10.3312   -0.7500    0.0000 H   0  0  0  0  0  0  0  0  0  0  0  0
    9.4842   -0.5231    0.0000 H   0  0  0  0  0  0  0  0  0  0  0  0
    8.3082   -2.5600    0.0000 H   0  0  0  0  0  0  0  0  0  0  0  0
    8.9282   -3.1800    0.0000 H   0  0  0  0  0  0  0  0  0  0  0  0
    9.5482   -2.5600    0.0000 H   0  0  0  0  0  0  0  0  0  0  0  0
    7.8067   -4.6677    0.0000 H   0  0  0  0  0  0  0  0  0  0  0  0
    7.4082   -3.9774    0.0000 H   0  0  0  0  0  0  0  0  0  0  0  0
    6.8671    0.2500    0.0000 H   0  0  0  0  0  0  0  0  0  0  0  0
    5.4641   -0.1800    0.0000 H   0  0  0  0  0  0  0  0  0  0  0  0
    4.9272   -4.2500    0.0000 H   0  0  0  0  0  0  0  0  0  0  0  0
    6.5856   -5.4523    0.0000 H   0  0  0  0  0  0  0  0  0  0  0  0
    6.9841   -6.1426    0.0000 H   0  0  0  0  0  0  0  0  0  0  0  0
    4.3860    0.5226    0.0000 H   0  0  0  0  0  0  0  0  0  0  0  0
    3.9875   -0.1677    0.0000 H   0  0  0  0  0  0  0  0  0  0  0  0
    4.0611    1.6300    0.0000 H   0  0  0  0  0  0  0  0  0  0  0  0
    5.2087    2.8323    0.0000 H   0  0  0  0  0  0  0  0  0  0  0  0
    4.8101    3.5226    0.0000 H   0  0  0  0  0  0  0  0  0  0  0  0
    3.1215    3.5477    0.0000 H   0  0  0  0  0  0  0  0  0  0  0  0
    3.5200    2.8574    0.0000 H   0  0  0  0  0  0  0  0  0  0  0  0
    3.7320   -6.9400    0.0000 H   0  0  0  0  0  0  0  0  0  0  0  0
    4.8101   -7.6426    0.0000 H   0  0  0  0  0  0  0  0  0  0  0  0
    5.2087   -6.9523    0.0000 H   0  0  0  0  0  0  0  0  0  0  0  0
    4.0611   -1.3700    0.0000 H   0  0  0  0  0  0  0  0  0  0  0  0
    3.1120   -8.5600    0.0000 H   0  0  0  0  0  0  0  0  0  0  0  0
    3.7320   -9.1800    0.0000 H   0  0  0  0  0  0  0  0  0  0  0  0
    4.3520   -8.5600    0.0000 H   0  0  0  0  0  0  0  0  0  0  0  0
    3.1760   -6.5231    0.0000 H   0  0  0  0  0  0  0  0  0  0  0  0
    2.3291   -6.7500    0.0000 H   0  0  0  0  0  0  0  0  0  0  0  0
    2.5560   -7.5969    0.0000 H   0  0  0  0  0  0  0  0  0  0  0  0
    5.1350    4.6300    0.0000 H   0  0  0  0  0  0  0  0  0  0  0  0
    8.5991   -7.3700    0.0000 H   0  0  0  0  0  0  0  0  0  0  0  0
    2.3291    6.2500    0.0000 H   0  0  0  0  0  0  0  0  0  0  0  0
    5.1350    6.2500    0.0000 H   0  0  0  0  0  0  0  0  0  0  0  0
    4.5981    8.5600    0.0000 H   0  0  0  0  0  0  0  0  0  0  0  0
  1 27  1  0  0  0  0
  1 73  1  0  0  0  0
  2 38  1  0  0  0  0
  3 19  2  0  0  0  0
  4 23  2  0  0  0  0
  5 29  1  0  0  0  0
  5 34  1  0  0  0  0
  6 28  2  0  0  0  0
  7 31  1  0  0  0  0
  7 81  1  0  0  0  0
  8 29  2  0  0  0  0
  9 31  2  0  0  0  0
 10 43  1  0  0  0  0
 10 84  1  0  0  0  0
 11 43  2  0  0  0  0
 17 12  1  6  0  0  0
 12 23  1  0  0  0  0
 12 48  1  0  0  0  0
 13 19  1  0  0  0  0
 25 13  1  1  0  0  0
 13 58  1  0  0  0  0
 20 14  1  6  0  0  0
 14 29  1  0  0  0  0
 14 60  1  0  0  0  0
 15 28  1  0  0  0  0
 15 30  1  0  0  0  0
 15 65  1  0  0  0  0
 16 17  1  0  0  0  0
 16 18  1  0  0  0  0
 16 44  1  0  0  0  0
 16 45  1  0  0  0  0
 17 19  1  0  0  0  0
 17 46  1  0  0  0  0
 18 21  1  0  0  0  0
 18 22  1  0  0  0  0
 18 47  1  0  0  0  0
 20 23  1  0  0  0  0
 20 24  1  0  0  0  0
 20 49  1  0  0  0  0
 21 50  1  0  0  0  0
 21 51  1  0  0  0  0
 21 52  1  0  0  0  0
 22 53  1  0  0  0  0
 22 54  1  0  0  0  0
 22 55  1  0  0  0  0
 24 26  1  0  0  0  0
 24 56  1  0  0  0  0
 24 57  1  0  0  0  0
 25 27  1  0  0  0  0
 25 28  1  0  0  0  0
 25 59  1  0  0  0  0
 26 31  1  0  0  0  0
 26 61  1  0  0  0  0
 26 62  1  0  0  0  0
 27 63  1  0  0  0  0
 27 64  1  0  0  0  0
 30 32  1  0  0  0  0
 30 66  1  0  0  0  0
 30 67  1  0  0  0  0
 32 35  1  0  0  0  0
 32 68  1  0  0  0  0
 32 69  1  0  0  0  0
 33 34  1  0  0  0  0
 33 36  1  0  0  0  0
 33 37  1  0  0  0  0
 33 70  1  0  0  0  0
 34 71  1  0  0  0  0
 34 72  1  0  0  0  0
 35 38  2  0  0  0  0
 35 39  1  0  0  0  0
 36 74  1  0  0  0  0
 36 75  1  0  0  0  0
 36 76  1  0  0  0  0
 37 77  1  0  0  0  0
 37 78  1  0  0  0  0
 37 79  1  0  0  0  0
 38 40  1  0  0  0  0
 39 41  2  0  0  0  0
 39 80  1  0  0  0  0
 40 42  2  0  0  0  0
 40 82  1  0  0  0  0
 41 42  1  0  0  0  0
 41 83  1  0  0  0  0
 42 43  1  0  0  0  0
M  END
> <PUBCHEM_COMPOUND_CID>
507484
> <PUBCHEM_COMPOUND_CANONICALIZED>
1
> <PUBCHEM_CACTVS_COMPLEXITY>
969
> <PUBCHEM_CACTVS_HBOND_ACCEPTOR>
11
> <PUBCHEM_CACTVS_HBOND_DONOR>
7
> <PUBCHEM_CACTVS_ROTATABLE_BOND>
19
> <PUBCHEM_CACTVS_SUBSKEYS>
AAADcfB7vQBAAAAAAAAAAAAAAAAAAAAAAAAwAAAAAAAAAAABAAAAHwQQCAAADSjl2A6yCILABgSIAiHSGAACAAAkAAAIiIGICMkIZjKAlTGccQAk1gGImYe83/KOQAAAAAAAAACAAAAAAAAAAAAAAAAAAA==
> <PUBCHEM_IUPAC_OPENEYE_NAME>
4-[2-[[(2R)-2-[[(2S)-2-[[(2S)-4-carboxy-2-(isobutoxycarbonylamino)butanoyl]amino]-4-methyl-pentanoyl]amino]-3-sulfanyl-propanoyl]amino]ethyl]-3-fluoro-benzoic acid
> <PUBCHEM_IUPAC_CAS_NAME>
4-[2-[[(2R)-2-[[(2S)-2-[[(2S)-4-carboxy-2-[[2-methylpropoxy(oxo)methyl]amino]-1-oxobutyl]amino]-4-methyl-1-oxopentyl]amino]-3-mercapto-1-oxopropyl]amino]ethyl]-3-fluorobenzoic acid
> <PUBCHEM_IUPAC_NAME_MARKUP>
4-[2-[[(2<I>R</I>)-2-[[(2<I>S</I>)-2-[[(2<I>S</I>)-4-carboxy-2-(2-methylpropoxycarbonylamino)butanoyl]amino]-4-methylpentanoyl]amino]-3-sulfanylpropanoyl]amino]ethyl]-3-fluorobenzoic acid
> <PUBCHEM_IUPAC_NAME>
4-[2-[[(2R)-2-[[(2S)-2-[[(2S)-4-carboxy-2-(2-methylpropoxycarbonylamino)butanoyl]amino]-4-methylpentanoyl]amino]-3-sulfanylpropanoyl]amino]ethyl]-3-fluorobenzoic acid
> <PUBCHEM_IUPAC_SYSTEMATIC_NAME>
3-fluoranyl-4-[2-[[(2R)-2-[[(2S)-4-methyl-2-[[(2S)-2-(2-methylpropoxycarbonylamino)-5-oxidanyl-5-oxidanylidene-pentanoyl]amino]pentanoyl]amino]-3-sulfanyl-propanoyl]amino]ethyl]benzoic acid
> <PUBCHEM_IUPAC_TRADITIONAL_NAME>
4-[2-[[(2R)-2-[[(2S)-2-[[(2S)-4-carboxy-2-(isobutoxycarbonylamino)butanoyl]amino]-4-methyl-pentanoyl]amino]-3-mercapto-propanoyl]amino]ethyl]-3-fluoro-benzoic acid
> <PUBCHEM_IUPAC_INCHI>
InChI=1S/C28H41FN4O9S/c1-15(2)11-21(31-25(37)20(7-8-23(34)35)33-28(41)42-13-16(3)4)26(38)32-22(14-43)24(36)30-10-9-17-5-6-18(27(39)40)12-19(17)29/h5-6,12,15-16,20-22,43H,7-11,13-14H2,1-4H3,(H,30,36)(H,31,37)(H,32,38)(H,33,41)(H,34,35)(H,39,40)/t20-,21-,22-/m0/s1
> <PUBCHEM_IUPAC_INCHIKEY>
OJXNCGPNGMCSGM-FKBYEOEOSA-N
> <PUBCHEM_XLOGP3_AA>
2.8
> <PUBCHEM_EXACT_MASS>
628.25782823
> <PUBCHEM_MOLECULAR_FORMULA>
C28H41FN4O9S
> <PUBCHEM_MOLECULAR_WEIGHT>
628.7
> <PUBCHEM_OPENEYE_CAN_SMILES>
CC(C)CC(C(=O)NC(CS)C(=O)NCCC1=C(C=C(C=C1)C(=O)O)F)NC(=O)C(CCC(=O)O)NC(=O)OCC(C)C
> <PUBCHEM_OPENEYE_ISO_SMILES>
CC(C)C[C@@H](C(=O)N[C@@H](CS)C(=O)NCCC1=C(C=C(C=C1)C(=O)O)F)NC(=O)[C@H](CCC(=O)O)NC(=O)OCC(C)C
> <PUBCHEM_CACTVS_TPSA>
201
> <PUBCHEM_MONOISOTOPIC_WEIGHT>
628.25782823
> <PUBCHEM_TOTAL_CHARGE>
0
> <PUBCHEM_HEAVY_ATOM_COUNT>
43
> <PUBCHEM_ATOM_DEF_STEREO_COUNT>
3
> <PUBCHEM_ATOM_UDEF_STEREO_COUNT>
0
> <PUBCHEM_BOND_DEF_STEREO_COUNT>
0
> <PUBCHEM_BOND_UDEF_STEREO_COUNT>
0
> <PUBCHEM_ISOTOPIC_ATOM_COUNT>
0
> <PUBCHEM_COMPONENT_COUNT>
1
> <PUBCHEM_CACTVS_TAUTO_COUNT>
-1
> <PUBCHEM_COORDINATE_TYPE>
1
5
255
> <PUBCHEM_BONDANNOTATIONS>
17  12  6
25  13  5
20  14  6
35  38  8
35  39  8
38  40  8
39  41  8
40  42  8
41  42  8
$$$$
