507478
  -OEChem-10302200282D
 56 59  0     1  0  0  0  0  0999 V2000
    2.0000    1.0917    0.0000 F   0  0  0  0  0  0  0  0  0  0  0  0
    3.0000    2.0917    0.0000 F   0  0  0  0  0  0  0  0  0  0  0  0
    4.0000    1.0917    0.0000 F   0  0  0  0  0  0  0  0  0  0  0  0
    7.6353   -1.1911    0.0000 O   0  0  0  0  0  0  0  0  0  0  0  0
    7.5422    4.0996    0.0000 O   0  0  0  0  0  0  0  0  0  0  0  0
    5.3211    0.0913    0.0000 O   0  0  0  0  0  0  0  0  0  0  0  0
    3.8660   -0.4083    0.0000 O   0  0  0  0  0  0  0  0  0  0  0  0
    3.8660   -4.4083    0.0000 O   0  0  0  0  0  0  0  0  0  0  0  0
    7.2781    0.5037    0.0000 N   0  0  0  0  0  0  0  0  0  0  0  0
    7.8994    2.4048    0.0000 N   0  0  0  0  0  0  0  0  0  0  0  0
    5.6783   -3.2130    0.0000 N   0  0  0  0  0  0  0  0  0  0  0  0
    3.8660   -3.4083    0.0000 N   0  0  0  0  0  0  0  0  0  0  0  0
    8.2566    0.7100    0.0000 C   0  0  1  0  0  0  0  0  0  0  0  0
    8.5673    1.6605    0.0000 C   0  0  0  0  0  0  0  0  0  0  0  0
    6.6103    1.2480    0.0000 C   0  0  0  0  0  0  0  0  0  0  0  0
    6.9209    2.1986    0.0000 C   0  0  0  0  0  0  0  0  0  0  0  0
    8.9244   -0.0343    0.0000 C   0  0  0  0  0  0  0  0  0  0  0  0
    6.9674   -0.4468    0.0000 C   0  0  0  0  0  0  0  0  0  0  0  0
    8.2101    3.3553    0.0000 C   0  0  0  0  0  0  0  0  0  0  0  0
    5.9889   -0.6530    0.0000 C   0  0  0  0  0  0  0  0  0  0  0  0
    9.1886    3.5615    0.0000 C   0  0  0  0  0  0  0  0  0  0  0  0
    5.6783   -1.6035    0.0000 C   0  0  0  0  0  0  0  0  0  0  0  0
    4.7320   -1.9083    0.0000 C   0  0  0  0  0  0  0  0  0  0  0  0
    4.7320   -2.9083    0.0000 C   0  0  0  0  0  0  0  0  0  0  0  0
    6.2619   -2.4083    0.0000 C   0  0  0  0  0  0  0  0  0  0  0  0
    9.4993    4.5120    0.0000 C   0  0  0  0  0  0  0  0  0  0  0  0
    9.8564    2.8172    0.0000 C   0  0  0  0  0  0  0  0  0  0  0  0
    3.8660   -1.4083    0.0000 C   0  0  0  0  0  0  0  0  0  0  0  0
    3.0000   -1.9083    0.0000 C   0  0  0  0  0  0  0  0  0  0  0  0
   10.4778    4.7183    0.0000 C   0  0  0  0  0  0  0  0  0  0  0  0
   10.8349    3.0234    0.0000 C   0  0  0  0  0  0  0  0  0  0  0  0
    3.0000   -2.9083    0.0000 C   0  0  0  0  0  0  0  0  0  0  0  0
   11.1456    3.9740    0.0000 C   0  0  0  0  0  0  0  0  0  0  0  0
    3.0000    0.0917    0.0000 C   0  0  0  0  0  0  0  0  0  0  0  0
    3.0000    1.0917    0.0000 C   0  0  0  0  0  0  0  0  0  0  0  0
    8.0640    0.1206    0.0000 H   0  0  0  0  0  0  0  0  0  0  0  0
    9.1142    1.3685    0.0000 H   0  0  0  0  0  0  0  0  0  0  0  0
    8.9498    2.1484    0.0000 H   0  0  0  0  0  0  0  0  0  0  0  0
    6.0633    1.5401    0.0000 H   0  0  0  0  0  0  0  0  0  0  0  0
    6.2277    0.7601    0.0000 H   0  0  0  0  0  0  0  0  0  0  0  0
    6.9004    2.8182    0.0000 H   0  0  0  0  0  0  0  0  0  0  0  0
    6.3071    2.2859    0.0000 H   0  0  0  0  0  0  0  0  0  0  0  0
    8.4630   -0.4484    0.0000 H   0  0  0  0  0  0  0  0  0  0  0  0
    9.3385   -0.4958    0.0000 H   0  0  0  0  0  0  0  0  0  0  0  0
    9.3859    0.3797    0.0000 H   0  0  0  0  0  0  0  0  0  0  0  0
    6.8819   -2.4083    0.0000 H   0  0  0  0  0  0  0  0  0  0  0  0
    9.0852    4.9735    0.0000 H   0  0  0  0  0  0  0  0  0  0  0  0
    9.6638    2.2279    0.0000 H   0  0  0  0  0  0  0  0  0  0  0  0
    2.4631   -1.5983    0.0000 H   0  0  0  0  0  0  0  0  0  0  0  0
   10.6704    5.3076    0.0000 H   0  0  0  0  0  0  0  0  0  0  0  0
   11.2490    2.5620    0.0000 H   0  0  0  0  0  0  0  0  0  0  0  0
    2.4631   -3.2183    0.0000 H   0  0  0  0  0  0  0  0  0  0  0  0
   11.7523    4.1018    0.0000 H   0  0  0  0  0  0  0  0  0  0  0  0
    2.3894    0.1994    0.0000 H   0  0  0  0  0  0  0  0  0  0  0  0
    2.7880   -0.4909    0.0000 H   0  0  0  0  0  0  0  0  0  0  0  0
    3.3291   -4.7183    0.0000 H   0  0  0  0  0  0  0  0  0  0  0  0
  1 35  1  0  0  0  0
  2 35  1  0  0  0  0
  3 35  1  0  0  0  0
  4 18  2  0  0  0  0
  5 19  2  0  0  0  0
  6 20  2  0  0  0  0
  7 28  1  0  0  0  0
  7 34  1  0  0  0  0
  8 12  1  0  0  0  0
  8 56  1  0  0  0  0
  9 13  1  0  0  0  0
  9 15  1  0  0  0  0
  9 18  1  0  0  0  0
 10 14  1  0  0  0  0
 10 16  1  0  0  0  0
 10 19  1  0  0  0  0
 11 24  2  0  0  0  0
 11 25  1  0  0  0  0
 12 24  1  0  0  0  0
 12 32  1  0  0  0  0
 13 14  1  0  0  0  0
 13 17  1  1  0  0  0
 13 36  1  0  0  0  0
 14 37  1  0  0  0  0
 14 38  1  0  0  0  0
 15 16  1  0  0  0  0
 15 39  1  0  0  0  0
 15 40  1  0  0  0  0
 16 41  1  0  0  0  0
 16 42  1  0  0  0  0
 17 43  1  0  0  0  0
 17 44  1  0  0  0  0
 17 45  1  0  0  0  0
 18 20  1  0  0  0  0
 19 21  1  0  0  0  0
 20 22  1  0  0  0  0
 21 26  2  0  0  0  0
 21 27  1  0  0  0  0
 22 23  1  0  0  0  0
 22 25  2  0  0  0  0
 23 24  1  0  0  0  0
 23 28  2  0  0  0  0
 25 46  1  0  0  0  0
 26 30  1  0  0  0  0
 26 47  1  0  0  0  0
 27 31  2  0  0  0  0
 27 48  1  0  0  0  0
 28 29  1  0  0  0  0
 29 32  2  0  0  0  0
 29 49  1  0  0  0  0
 30 33  2  0  0  0  0
 30 50  1  0  0  0  0
 31 33  1  0  0  0  0
 31 51  1  0  0  0  0
 32 52  1  0  0  0  0
 33 53  1  0  0  0  0
 34 35  1  0  0  0  0
 34 54  1  0  0  0  0
 34 55  1  0  0  0  0
M  END
> <PUBCHEM_COMPOUND_CID>
507478
> <PUBCHEM_COMPOUND_CANONICALIZED>
1
> <PUBCHEM_CACTVS_COMPLEXITY>
807
> <PUBCHEM_CACTVS_HBOND_ACCEPTOR>
9
> <PUBCHEM_CACTVS_HBOND_DONOR>
1
> <PUBCHEM_CACTVS_ROTATABLE_BOND>
5
> <PUBCHEM_CACTVS_SUBSKEYS>
AAADceB7uYAAAAAAAAAAAAAAAAAAAWAAAAA8WIAAAAAAAFgBwAAAHwAECAAADCzhmxY/tt8YFACoArN3dACCiCk1IqAp2CG+bNiMbnrEvbuWOajuxhvI6ee+nQLOgAAAAAAAAAAAAAAAAAAAAAAAAAAAAA==
> <PUBCHEM_IUPAC_OPENEYE_NAME>
1-[(2R)-4-benzoyl-2-methyl-piperazin-1-yl]-2-[7-hydroxy-4-(2,2,2-trifluoroethoxy)pyrrolo[2,3-b]pyridin-3-yl]ethane-1,2-dione
> <PUBCHEM_IUPAC_CAS_NAME>
1-[(2R)-4-benzoyl-2-methyl-1-piperazinyl]-2-[7-hydroxy-4-(2,2,2-trifluoroethoxy)-3-pyrrolo[2,3-b]pyridinyl]ethane-1,2-dione
> <PUBCHEM_IUPAC_NAME_MARKUP>
1-[(2<I>R</I>)-4-benzoyl-2-methylpiperazin-1-yl]-2-[7-hydroxy-4-(2,2,2-trifluoroethoxy)pyrrolo[2,3-b]pyridin-3-yl]ethane-1,2-dione
> <PUBCHEM_IUPAC_NAME>
1-[(2R)-4-benzoyl-2-methylpiperazin-1-yl]-2-[7-hydroxy-4-(2,2,2-trifluoroethoxy)pyrrolo[2,3-b]pyridin-3-yl]ethane-1,2-dione
> <PUBCHEM_IUPAC_SYSTEMATIC_NAME>
1-[(2R)-2-methyl-4-(phenylcarbonyl)piperazin-1-yl]-2-[7-oxidanyl-4-[2,2,2-tris(fluoranyl)ethoxy]pyrrolo[2,3-b]pyridin-3-yl]ethane-1,2-dione
> <PUBCHEM_IUPAC_TRADITIONAL_NAME>
1-[(2R)-4-benzoyl-2-methyl-piperazino]-2-[7-hydroxy-4-(2,2,2-trifluoroethoxy)pyrrolo[2,3-b]pyridin-3-yl]ethane-1,2-dione
> <PUBCHEM_IUPAC_INCHI>
InChI=1S/C23H21F3N4O5/c1-14-12-28(21(32)15-5-3-2-4-6-15)9-10-29(14)22(33)19(31)16-11-27-20-18(16)17(7-8-30(20)34)35-13-23(24,25)26/h2-8,11,14,34H,9-10,12-13H2,1H3/t14-/m1/s1
> <PUBCHEM_IUPAC_INCHIKEY>
ZSJVQKODMWGLMQ-CQSZACIVSA-N
> <PUBCHEM_XLOGP3_AA>
2.9
> <PUBCHEM_EXACT_MASS>
490.14640427
> <PUBCHEM_MOLECULAR_FORMULA>
C23H21F3N4O5
> <PUBCHEM_MOLECULAR_WEIGHT>
490.4
> <PUBCHEM_OPENEYE_CAN_SMILES>
CC1CN(CCN1C(=O)C(=O)C2=CN=C3C2=C(C=CN3O)OCC(F)(F)F)C(=O)C4=CC=CC=C4
> <PUBCHEM_OPENEYE_ISO_SMILES>
C[C@@H]1CN(CCN1C(=O)C(=O)C2=CN=C3C2=C(C=CN3O)OCC(F)(F)F)C(=O)C4=CC=CC=C4
> <PUBCHEM_CACTVS_TPSA>
105
> <PUBCHEM_MONOISOTOPIC_WEIGHT>
490.14640427
> <PUBCHEM_TOTAL_CHARGE>
0
> <PUBCHEM_HEAVY_ATOM_COUNT>
35
> <PUBCHEM_ATOM_DEF_STEREO_COUNT>
1
> <PUBCHEM_ATOM_UDEF_STEREO_COUNT>
0
> <PUBCHEM_BOND_DEF_STEREO_COUNT>
0
> <PUBCHEM_BOND_UDEF_STEREO_COUNT>
0
> <PUBCHEM_ISOTOPIC_ATOM_COUNT>
0
> <PUBCHEM_COMPONENT_COUNT>
1
> <PUBCHEM_CACTVS_TAUTO_COUNT>
-1
> <PUBCHEM_COORDINATE_TYPE>
1
5
255
> <PUBCHEM_BONDANNOTATIONS>
11  24  8
11  25  8
12  24  8
12  32  8
13  17  5
21  26  8
21  27  8
22  23  8
22  25  8
23  28  8
26  30  8
27  31  8
28  29  8
29  32  8
30  33  8
31  33  8
$$$$
