507487
  -OEChem-10302200282D
 85 86  0     1  0  0  0  0  0999 V2000
    7.2101   -0.1202    0.0000 S   0  0  0  0  0  0  0  0  0  0  0  0
    8.1886    0.0861    0.0000 O   0  0  0  0  0  0  0  0  0  0  0  0
    8.4993    1.0366    0.0000 O   0  0  0  0  0  0  0  0  0  0  0  0
    8.7634    4.6324    0.0000 O   0  0  0  0  0  0  0  0  0  0  0  0
    7.9244   -3.5098    0.0000 O   0  0  0  0  0  0  0  0  0  0  0  0
   12.3668    4.5068    0.0000 O   0  0  0  0  0  0  0  0  0  0  0  0
   10.4097    4.0944    0.0000 O   0  0  0  0  0  0  0  0  0  0  0  0
   12.7239    2.8120    0.0000 O   0  0  0  0  0  0  0  0  0  0  0  0
   10.1456    0.4985    0.0000 N   0  0  0  0  0  0  0  0  0  0  0  0
    8.5458   -1.6088    0.0000 N   0  0  0  0  0  0  0  0  0  0  0  0
    9.1206    2.9376    0.0000 N   0  0  0  0  0  0  0  0  0  0  0  0
    6.2781   -2.9717    0.0000 N   0  0  0  0  0  0  0  0  0  0  0  0
    4.6783   -6.6884    0.0000 N   0  0  0  0  0  0  0  0  0  0  0  0
    9.8349   -0.4520    0.0000 C   0  0  1  0  0  0  0  0  0  0  0  0
   10.5028   -1.1963    0.0000 C   0  0  0  0  0  0  0  0  0  0  0  0
   11.4813   -0.9901    0.0000 C   0  0  0  0  0  0  0  0  0  0  0  0
    8.8564   -0.6583    0.0000 C   0  0  0  0  0  0  0  0  0  0  0  0
    9.7884    2.1933    0.0000 C   0  0  2  0  0  0  0  0  0  0  0  0
   12.1491   -1.7344    0.0000 C   0  0  0  0  0  0  0  0  0  0  0  0
   11.7920   -0.0396    0.0000 C   0  0  0  0  0  0  0  0  0  0  0  0
    9.4778    1.2428    0.0000 C   0  0  0  0  0  0  0  0  0  0  0  0
    7.5673   -1.8150    0.0000 C   0  0  2  0  0  0  0  0  0  0  0  0
   10.7669    2.3995    0.0000 C   0  0  0  0  0  0  0  0  0  0  0  0
   11.0776    3.3500    0.0000 C   0  0  0  0  0  0  0  0  0  0  0  0
    7.2566   -2.7655    0.0000 C   0  0  0  0  0  0  0  0  0  0  0  0
    6.8994   -1.0707    0.0000 C   0  0  0  0  0  0  0  0  0  0  0  0
    4.9889   -4.1285    0.0000 C   0  0  0  0  0  0  0  0  0  0  0  0
    5.9674   -3.9222    0.0000 C   0  0  0  0  0  0  0  0  0  0  0  0
    4.6783   -5.0790    0.0000 C   0  0  0  0  0  0  0  0  0  0  0  0
    3.7320   -5.3837    0.0000 C   0  0  0  0  0  0  0  0  0  0  0  0
    3.7320   -6.3837    0.0000 C   0  0  0  0  0  0  0  0  0  0  0  0
    5.2619   -5.8837    0.0000 C   0  0  0  0  0  0  0  0  0  0  0  0
    9.4312    3.8881    0.0000 C   0  0  0  0  0  0  0  0  0  0  0  0
   12.0561    3.5563    0.0000 C   0  0  0  0  0  0  0  0  0  0  0  0
    2.8660   -4.8837    0.0000 C   0  0  0  0  0  0  0  0  0  0  0  0
    8.4062    6.3273    0.0000 C   0  0  0  0  0  0  0  0  0  0  0  0
    9.0741    5.5830    0.0000 C   0  0  0  0  0  0  0  0  0  0  0  0
    2.8660   -6.8837    0.0000 C   0  0  0  0  0  0  0  0  0  0  0  0
    2.0000   -5.3837    0.0000 C   0  0  0  0  0  0  0  0  0  0  0  0
    2.0000   -6.3837    0.0000 C   0  0  0  0  0  0  0  0  0  0  0  0
    8.7169    7.2778    0.0000 C   0  0  0  0  0  0  0  0  0  0  0  0
    7.4277    6.1210    0.0000 C   0  0  0  0  0  0  0  0  0  0  0  0
    9.4209    0.0094    0.0000 H   0  0  0  0  0  0  0  0  0  0  0  0
    9.9764   -1.5240    0.0000 H   0  0  0  0  0  0  0  0  0  0  0  0
   10.7340   -1.7716    0.0000 H   0  0  0  0  0  0  0  0  0  0  0  0
   11.0672   -0.5286    0.0000 H   0  0  0  0  0  0  0  0  0  0  0  0
   10.7523    0.6263    0.0000 H   0  0  0  0  0  0  0  0  0  0  0  0
    9.9810    2.7826    0.0000 H   0  0  0  0  0  0  0  0  0  0  0  0
   11.6877   -2.1485    0.0000 H   0  0  0  0  0  0  0  0  0  0  0  0
   12.5632   -2.1959    0.0000 H   0  0  0  0  0  0  0  0  0  0  0  0
   12.6106   -1.3204    0.0000 H   0  0  0  0  0  0  0  0  0  0  0  0
   12.3813   -0.2322    0.0000 H   0  0  0  0  0  0  0  0  0  0  0  0
   11.9846    0.5497    0.0000 H   0  0  0  0  0  0  0  0  0  0  0  0
   11.2026    0.1530    0.0000 H   0  0  0  0  0  0  0  0  0  0  0  0
    7.9813   -2.2765    0.0000 H   0  0  0  0  0  0  0  0  0  0  0  0
    8.9598   -2.0702    0.0000 H   0  0  0  0  0  0  0  0  0  0  0  0
   10.7875    1.7799    0.0000 H   0  0  0  0  0  0  0  0  0  0  0  0
   11.3807    2.3122    0.0000 H   0  0  0  0  0  0  0  0  0  0  0  0
    8.5139    2.8098    0.0000 H   0  0  0  0  0  0  0  0  0  0  0  0
   11.0570    3.9697    0.0000 H   0  0  0  0  0  0  0  0  0  0  0  0
   10.4638    3.4374    0.0000 H   0  0  0  0  0  0  0  0  0  0  0  0
    6.3525   -0.7787    0.0000 H   0  0  0  0  0  0  0  0  0  0  0  0
    6.5169   -1.5586    0.0000 H   0  0  0  0  0  0  0  0  0  0  0  0
    4.9684   -3.5088    0.0000 H   0  0  0  0  0  0  0  0  0  0  0  0
    4.3751   -4.0411    0.0000 H   0  0  0  0  0  0  0  0  0  0  0  0
    5.9880   -4.5419    0.0000 H   0  0  0  0  0  0  0  0  0  0  0  0
    6.5812   -4.0096    0.0000 H   0  0  0  0  0  0  0  0  0  0  0  0
    5.8640   -2.5103    0.0000 H   0  0  0  0  0  0  0  0  0  0  0  0
    5.8819   -5.8837    0.0000 H   0  0  0  0  0  0  0  0  0  0  0  0
    4.8709   -7.2778    0.0000 H   0  0  0  0  0  0  0  0  0  0  0  0
    2.8660   -4.2637    0.0000 H   0  0  0  0  0  0  0  0  0  0  0  0
    8.2136    5.7379    0.0000 H   0  0  0  0  0  0  0  0  0  0  0  0
    9.6210    5.2909    0.0000 H   0  0  0  0  0  0  0  0  0  0  0  0
    9.4566    6.0709    0.0000 H   0  0  0  0  0  0  0  0  0  0  0  0
    2.8660   -7.5037    0.0000 H   0  0  0  0  0  0  0  0  0  0  0  0
    6.7960    0.3413    0.0000 H   0  0  0  0  0  0  0  0  0  0  0  0
    1.4631   -5.0737    0.0000 H   0  0  0  0  0  0  0  0  0  0  0  0
    1.4631   -6.6937    0.0000 H   0  0  0  0  0  0  0  0  0  0  0  0
    9.3062    7.0852    0.0000 H   0  0  0  0  0  0  0  0  0  0  0  0
    8.9095    7.8671    0.0000 H   0  0  0  0  0  0  0  0  0  0  0  0
    8.1276    7.4704    0.0000 H   0  0  0  0  0  0  0  0  0  0  0  0
    7.2999    6.7277    0.0000 H   0  0  0  0  0  0  0  0  0  0  0  0
    6.8210    5.9932    0.0000 H   0  0  0  0  0  0  0  0  0  0  0  0
    7.5556    5.5144    0.0000 H   0  0  0  0  0  0  0  0  0  0  0  0
   12.9734    4.6346    0.0000 H   0  0  0  0  0  0  0  0  0  0  0  0
  1 26  1  0  0  0  0
  1 76  1  0  0  0  0
  2 17  2  0  0  0  0
  3 21  2  0  0  0  0
  4 33  1  0  0  0  0
  4 37  1  0  0  0  0
  5 25  2  0  0  0  0
  6 34  1  0  0  0  0
  6 85  1  0  0  0  0
  7 33  2  0  0  0  0
  8 34  2  0  0  0  0
 14  9  1  1  0  0  0
  9 21  1  0  0  0  0
  9 47  1  0  0  0  0
 10 17  1  0  0  0  0
 22 10  1  6  0  0  0
 10 56  1  0  0  0  0
 18 11  1  1  0  0  0
 11 33  1  0  0  0  0
 11 59  1  0  0  0  0
 12 25  1  0  0  0  0
 12 28  1  0  0  0  0
 12 68  1  0  0  0  0
 13 31  1  0  0  0  0
 13 32  1  0  0  0  0
 13 70  1  0  0  0  0
 14 15  1  0  0  0  0
 14 17  1  0  0  0  0
 14 43  1  0  0  0  0
 15 16  1  0  0  0  0
 15 44  1  0  0  0  0
 15 45  1  0  0  0  0
 16 19  1  0  0  0  0
 16 20  1  0  0  0  0
 16 46  1  0  0  0  0
 18 21  1  0  0  0  0
 18 23  1  0  0  0  0
 18 48  1  0  0  0  0
 19 49  1  0  0  0  0
 19 50  1  0  0  0  0
 19 51  1  0  0  0  0
 20 52  1  0  0  0  0
 20 53  1  0  0  0  0
 20 54  1  0  0  0  0
 22 25  1  0  0  0  0
 22 26  1  0  0  0  0
 22 55  1  0  0  0  0
 23 24  1  0  0  0  0
 23 57  1  0  0  0  0
 23 58  1  0  0  0  0
 24 34  1  0  0  0  0
 24 60  1  0  0  0  0
 24 61  1  0  0  0  0
 26 62  1  0  0  0  0
 26 63  1  0  0  0  0
 27 28  1  0  0  0  0
 27 29  1  0  0  0  0
 27 64  1  0  0  0  0
 27 65  1  0  0  0  0
 28 66  1  0  0  0  0
 28 67  1  0  0  0  0
 29 30  1  0  0  0  0
 29 32  2  0  0  0  0
 30 31  1  0  0  0  0
 30 35  2  0  0  0  0
 31 38  2  0  0  0  0
 32 69  1  0  0  0  0
 35 39  1  0  0  0  0
 35 71  1  0  0  0  0
 36 37  1  0  0  0  0
 36 41  1  0  0  0  0
 36 42  1  0  0  0  0
 36 72  1  0  0  0  0
 37 73  1  0  0  0  0
 37 74  1  0  0  0  0
 38 40  1  0  0  0  0
 38 75  1  0  0  0  0
 39 40  2  0  0  0  0
 39 77  1  0  0  0  0
 40 78  1  0  0  0  0
 41 79  1  0  0  0  0
 41 80  1  0  0  0  0
 41 81  1  0  0  0  0
 42 82  1  0  0  0  0
 42 83  1  0  0  0  0
 42 84  1  0  0  0  0
M  END
> <PUBCHEM_COMPOUND_CID>
507487
> <PUBCHEM_COMPOUND_CANONICALIZED>
1
> <PUBCHEM_CACTVS_COMPLEXITY>
919
> <PUBCHEM_CACTVS_HBOND_ACCEPTOR>
8
> <PUBCHEM_CACTVS_HBOND_DONOR>
7
> <PUBCHEM_CACTVS_ROTATABLE_BOND>
18
> <PUBCHEM_CACTVS_SUBSKEYS>
AAADcfB7uABAAAAAAAAAAAAAAAAAAWAAAAAwAAAAAAAAAFgB8AAAHgQQCAAADSjl3ga+yPLJlgSoAzX3XACCgCAxAiAI2aG4ZJkIYPLAkbGcYAhklgDIyAe8l8IOgAAAAAACAAAAAAAAAAQAAAAAAAAAAA==
> <PUBCHEM_IUPAC_OPENEYE_NAME>
(4S)-5-[[(1S)-1-[[(1R)-2-[2-(1H-indol-3-yl)ethylamino]-2-oxo-1-(sulfanylmethyl)ethyl]carbamoyl]-3-methyl-butyl]amino]-4-(isobutoxycarbonylamino)-5-oxo-pentanoic acid
> <PUBCHEM_IUPAC_CAS_NAME>
(4S)-5-[[(2S)-1-[[(2R)-1-[2-(1H-indol-3-yl)ethylamino]-3-mercapto-1-oxopropan-2-yl]amino]-4-methyl-1-oxopentan-2-yl]amino]-4-[[2-methylpropoxy(oxo)methyl]amino]-5-oxopentanoic acid
> <PUBCHEM_IUPAC_NAME_MARKUP>
(4<I>S</I>)-5-[[(2<I>S</I>)-1-[[(2<I>R</I>)-1-[2-(1<I>H</I>-indol-3-yl)ethylamino]-1-oxo-3-sulfanylpropan-2-yl]amino]-4-methyl-1-oxopentan-2-yl]amino]-4-(2-methylpropoxycarbonylamino)-5-oxopentanoic acid
> <PUBCHEM_IUPAC_NAME>
(4S)-5-[[(2S)-1-[[(2R)-1-[2-(1H-indol-3-yl)ethylamino]-1-oxo-3-sulfanylpropan-2-yl]amino]-4-methyl-1-oxopentan-2-yl]amino]-4-(2-methylpropoxycarbonylamino)-5-oxopentanoic acid
> <PUBCHEM_IUPAC_SYSTEMATIC_NAME>
(4S)-5-[[(2S)-1-[[(2R)-1-[2-(1H-indol-3-yl)ethylamino]-1-oxidanylidene-3-sulfanyl-propan-2-yl]amino]-4-methyl-1-oxidanylidene-pentan-2-yl]amino]-4-(2-methylpropoxycarbonylamino)-5-oxidanylidene-pentanoic acid
> <PUBCHEM_IUPAC_TRADITIONAL_NAME>
(4S)-5-[[(1S)-1-[[(1R)-2-[2-(1H-indol-3-yl)ethylamino]-2-keto-1-(mercaptomethyl)ethyl]carbamoyl]-3-methyl-butyl]amino]-4-(isobutoxycarbonylamino)-5-keto-valeric acid
> <PUBCHEM_IUPAC_INCHI>
InChI=1S/C29H43N5O7S/c1-17(2)13-23(32-27(38)22(9-10-25(35)36)34-29(40)41-15-18(3)4)28(39)33-24(16-42)26(37)30-12-11-19-14-31-21-8-6-5-7-20(19)21/h5-8,14,17-18,22-24,31,42H,9-13,15-16H2,1-4H3,(H,30,37)(H,32,38)(H,33,39)(H,34,40)(H,35,36)/t22-,23-,24-/m0/s1
> <PUBCHEM_IUPAC_INCHIKEY>
OSLQGWZIMUIONK-HJOGWXRNSA-N
> <PUBCHEM_XLOGP3_AA>
3.3
> <PUBCHEM_EXACT_MASS>
605.28831990
> <PUBCHEM_MOLECULAR_FORMULA>
C29H43N5O7S
> <PUBCHEM_MOLECULAR_WEIGHT>
605.7
> <PUBCHEM_OPENEYE_CAN_SMILES>
CC(C)CC(C(=O)NC(CS)C(=O)NCCC1=CNC2=CC=CC=C21)NC(=O)C(CCC(=O)O)NC(=O)OCC(C)C
> <PUBCHEM_OPENEYE_ISO_SMILES>
CC(C)C[C@@H](C(=O)N[C@@H](CS)C(=O)NCCC1=CNC2=CC=CC=C21)NC(=O)[C@H](CCC(=O)O)NC(=O)OCC(C)C
> <PUBCHEM_CACTVS_TPSA>
180
> <PUBCHEM_MONOISOTOPIC_WEIGHT>
605.28831990
> <PUBCHEM_TOTAL_CHARGE>
0
> <PUBCHEM_HEAVY_ATOM_COUNT>
42
> <PUBCHEM_ATOM_DEF_STEREO_COUNT>
3
> <PUBCHEM_ATOM_UDEF_STEREO_COUNT>
0
> <PUBCHEM_BOND_DEF_STEREO_COUNT>
0
> <PUBCHEM_BOND_UDEF_STEREO_COUNT>
0
> <PUBCHEM_ISOTOPIC_ATOM_COUNT>
0
> <PUBCHEM_COMPONENT_COUNT>
1
> <PUBCHEM_CACTVS_TAUTO_COUNT>
-1
> <PUBCHEM_COORDINATE_TYPE>
1
5
255
> <PUBCHEM_BONDANNOTATIONS>
22  10  6
18  11  5
13  31  8
13  32  8
29  30  8
29  32  8
30  31  8
30  35  8
31  38  8
35  39  8
38  40  8
39  40  8
14  9  5
$$$$
