507424
  -OEChem-10302200282D
 84 84  0     1  0  0  0  0  0999 V2000
    9.4651   -0.0000    0.0000 S   0  0  0  0  0  0  0  0  0  0  0  0
   15.5273    0.5000    0.0000 F   0  0  0  0  0  0  0  0  0  0  0  0
   16.5273   -0.5000    0.0000 F   0  0  0  0  0  0  0  0  0  0  0  0
   14.5273   -0.5000    0.0000 F   0  0  0  0  0  0  0  0  0  0  0  0
    8.5991   -0.5000    0.0000 O   0  0  0  0  0  0  0  0  0  0  0  0
    7.7331   -0.0000    0.0000 O   0  0  0  0  0  0  0  0  0  0  0  0
    5.1350    2.5000    0.0000 O   0  0  0  0  0  0  0  0  0  0  0  0
   11.1972   -3.0000    0.0000 O   0  0  0  0  0  0  0  0  0  0  0  0
    2.5369    0.0000    0.0000 O   0  0  0  0  0  0  0  0  0  0  0  0
    4.2690    1.0000    0.0000 O   0  0  0  0  0  0  0  0  0  0  0  0
    3.4030   -1.5000    0.0000 O   0  0  0  0  0  0  0  0  0  0  0  0
    6.8671   -1.5000    0.0000 N   0  0  0  0  0  0  0  0  0  0  0  0
    9.4651   -2.0000    0.0000 N   0  0  0  0  0  0  0  0  0  0  0  0
    6.0010    1.0000    0.0000 N   0  0  0  0  0  0  0  0  0  0  0  0
   12.0632   -1.5000    0.0000 N   0  0  0  0  0  0  0  0  0  0  0  0
    7.7331   -3.0000    0.0000 C   0  0  0  0  0  0  0  0  0  0  0  0
    7.7331   -2.0000    0.0000 C   0  0  1  0  0  0  0  0  0  0  0  0
    6.8671   -3.5000    0.0000 C   0  0  0  0  0  0  0  0  0  0  0  0
    8.5991   -1.5000    0.0000 C   0  0  0  0  0  0  0  0  0  0  0  0
    6.0010   -0.0000    0.0000 C   0  0  2  0  0  0  0  0  0  0  0  0
    6.8671   -4.5000    0.0000 C   0  0  0  0  0  0  0  0  0  0  0  0
    6.0010   -3.0000    0.0000 C   0  0  0  0  0  0  0  0  0  0  0  0
    6.8671   -0.5000    0.0000 C   0  0  0  0  0  0  0  0  0  0  0  0
    5.1350   -0.5000    0.0000 C   0  0  0  0  0  0  0  0  0  0  0  0
   10.3312   -1.5000    0.0000 C   0  0  1  0  0  0  0  0  0  0  0  0
    4.2690    0.0000    0.0000 C   0  0  0  0  0  0  0  0  0  0  0  0
   10.3312   -0.5000    0.0000 C   0  0  0  0  0  0  0  0  0  0  0  0
   11.1972   -2.0000    0.0000 C   0  0  0  0  0  0  0  0  0  0  0  0
   12.9292   -2.0000    0.0000 C   0  0  0  0  0  0  0  0  0  0  0  0
   13.7953   -1.5000    0.0000 C   0  0  0  0  0  0  0  0  0  0  0  0
    5.1350    1.5000    0.0000 C   0  0  0  0  0  0  0  0  0  0  0  0
    3.4030   -0.5000    0.0000 C   0  0  0  0  0  0  0  0  0  0  0  0
   14.6613   -2.0000    0.0000 C   0  0  0  0  0  0  0  0  0  0  0  0
    4.2690    4.0000    0.0000 C   0  0  0  0  0  0  0  0  0  0  0  0
    4.2690    3.0000    0.0000 C   0  0  0  0  0  0  0  0  0  0  0  0
   15.5273   -1.5000    0.0000 C   0  0  0  0  0  0  0  0  0  0  0  0
   14.6613   -3.0000    0.0000 C   0  0  0  0  0  0  0  0  0  0  0  0
    3.4030    4.5000    0.0000 C   0  0  0  0  0  0  0  0  0  0  0  0
    5.1350    4.5000    0.0000 C   0  0  0  0  0  0  0  0  0  0  0  0
   16.3933   -2.0000    0.0000 C   0  0  0  0  0  0  0  0  0  0  0  0
   15.5273   -0.5000    0.0000 C   0  0  0  0  0  0  0  0  0  0  0  0
   15.5273   -3.5000    0.0000 C   0  0  0  0  0  0  0  0  0  0  0  0
   16.3933   -3.0000    0.0000 C   0  0  0  0  0  0  0  0  0  0  0  0
    7.9451   -3.5826    0.0000 H   0  0  0  0  0  0  0  0  0  0  0  0
    8.3437   -2.8923    0.0000 H   0  0  0  0  0  0  0  0  0  0  0  0
    7.7331   -1.3800    0.0000 H   0  0  0  0  0  0  0  0  0  0  0  0
    6.3301   -3.8100    0.0000 H   0  0  0  0  0  0  0  0  0  0  0  0
    6.3301   -1.8100    0.0000 H   0  0  0  0  0  0  0  0  0  0  0  0
    6.5380    0.3100    0.0000 H   0  0  0  0  0  0  0  0  0  0  0  0
    6.2471   -4.5000    0.0000 H   0  0  0  0  0  0  0  0  0  0  0  0
    6.8671   -5.1200    0.0000 H   0  0  0  0  0  0  0  0  0  0  0  0
    7.4871   -4.5000    0.0000 H   0  0  0  0  0  0  0  0  0  0  0  0
    6.3110   -2.4631    0.0000 H   0  0  0  0  0  0  0  0  0  0  0  0
    5.4641   -2.6900    0.0000 H   0  0  0  0  0  0  0  0  0  0  0  0
    5.6910   -3.5369    0.0000 H   0  0  0  0  0  0  0  0  0  0  0  0
    4.7365   -0.9749    0.0000 H   0  0  0  0  0  0  0  0  0  0  0  0
    5.5335   -0.9749    0.0000 H   0  0  0  0  0  0  0  0  0  0  0  0
    9.7942   -1.1900    0.0000 H   0  0  0  0  0  0  0  0  0  0  0  0
    9.4651   -2.6200    0.0000 H   0  0  0  0  0  0  0  0  0  0  0  0
    6.5380    1.3100    0.0000 H   0  0  0  0  0  0  0  0  0  0  0  0
    4.6675    0.4749    0.0000 H   0  0  0  0  0  0  0  0  0  0  0  0
    3.8705    0.4749    0.0000 H   0  0  0  0  0  0  0  0  0  0  0  0
   10.9417   -0.6077    0.0000 H   0  0  0  0  0  0  0  0  0  0  0  0
   10.5432    0.0826    0.0000 H   0  0  0  0  0  0  0  0  0  0  0  0
   12.5307   -2.4750    0.0000 H   0  0  0  0  0  0  0  0  0  0  0  0
   13.3278   -2.4750    0.0000 H   0  0  0  0  0  0  0  0  0  0  0  0
   12.0632   -0.8800    0.0000 H   0  0  0  0  0  0  0  0  0  0  0  0
   14.1938   -1.0250    0.0000 H   0  0  0  0  0  0  0  0  0  0  0  0
   13.3967   -1.0250    0.0000 H   0  0  0  0  0  0  0  0  0  0  0  0
    4.2690    4.6200    0.0000 H   0  0  0  0  0  0  0  0  0  0  0  0
    3.6584    3.1077    0.0000 H   0  0  0  0  0  0  0  0  0  0  0  0
    4.0569    2.4174    0.0000 H   0  0  0  0  0  0  0  0  0  0  0  0
    9.4651    0.6200    0.0000 H   0  0  0  0  0  0  0  0  0  0  0  0
   14.1244   -3.3100    0.0000 H   0  0  0  0  0  0  0  0  0  0  0  0
    3.7130    5.0369    0.0000 H   0  0  0  0  0  0  0  0  0  0  0  0
    2.8660    4.8100    0.0000 H   0  0  0  0  0  0  0  0  0  0  0  0
    3.0930    3.9631    0.0000 H   0  0  0  0  0  0  0  0  0  0  0  0
    5.4450    3.9631    0.0000 H   0  0  0  0  0  0  0  0  0  0  0  0
    5.6720    4.8100    0.0000 H   0  0  0  0  0  0  0  0  0  0  0  0
    4.8250    5.0369    0.0000 H   0  0  0  0  0  0  0  0  0  0  0  0
   16.9303   -1.6900    0.0000 H   0  0  0  0  0  0  0  0  0  0  0  0
   15.5273   -4.1200    0.0000 H   0  0  0  0  0  0  0  0  0  0  0  0
   16.9303   -3.3100    0.0000 H   0  0  0  0  0  0  0  0  0  0  0  0
    2.0000   -0.3100    0.0000 H   0  0  0  0  0  0  0  0  0  0  0  0
  1 27  1  0  0  0  0
  1 73  1  0  0  0  0
  2 41  1  0  0  0  0
  3 41  1  0  0  0  0
  4 41  1  0  0  0  0
  5 19  2  0  0  0  0
  6 23  2  0  0  0  0
  7 31  1  0  0  0  0
  7 35  1  0  0  0  0
  8 28  2  0  0  0  0
  9 32  1  0  0  0  0
  9 84  1  0  0  0  0
 10 31  2  0  0  0  0
 11 32  2  0  0  0  0
 17 12  1  6  0  0  0
 12 23  1  0  0  0  0
 12 48  1  0  0  0  0
 13 19  1  0  0  0  0
 25 13  1  1  0  0  0
 13 59  1  0  0  0  0
 20 14  1  6  0  0  0
 14 31  1  0  0  0  0
 14 60  1  0  0  0  0
 15 28  1  0  0  0  0
 15 29  1  0  0  0  0
 15 67  1  0  0  0  0
 16 17  1  0  0  0  0
 16 18  1  0  0  0  0
 16 44  1  0  0  0  0
 16 45  1  0  0  0  0
 17 19  1  0  0  0  0
 17 46  1  0  0  0  0
 18 21  1  0  0  0  0
 18 22  1  0  0  0  0
 18 47  1  0  0  0  0
 20 23  1  0  0  0  0
 20 24  1  0  0  0  0
 20 49  1  0  0  0  0
 21 50  1  0  0  0  0
 21 51  1  0  0  0  0
 21 52  1  0  0  0  0
 22 53  1  0  0  0  0
 22 54  1  0  0  0  0
 22 55  1  0  0  0  0
 24 26  1  0  0  0  0
 24 56  1  0  0  0  0
 24 57  1  0  0  0  0
 25 27  1  0  0  0  0
 25 28  1  0  0  0  0
 25 58  1  0  0  0  0
 26 32  1  0  0  0  0
 26 61  1  0  0  0  0
 26 62  1  0  0  0  0
 27 63  1  0  0  0  0
 27 64  1  0  0  0  0
 29 30  1  0  0  0  0
 29 65  1  0  0  0  0
 29 66  1  0  0  0  0
 30 33  1  0  0  0  0
 30 68  1  0  0  0  0
 30 69  1  0  0  0  0
 33 36  1  0  0  0  0
 33 37  2  0  0  0  0
 34 35  1  0  0  0  0
 34 38  1  0  0  0  0
 34 39  1  0  0  0  0
 34 70  1  0  0  0  0
 35 71  1  0  0  0  0
 35 72  1  0  0  0  0
 36 40  2  0  0  0  0
 36 41  1  0  0  0  0
 37 42  1  0  0  0  0
 37 74  1  0  0  0  0
 38 75  1  0  0  0  0
 38 76  1  0  0  0  0
 38 77  1  0  0  0  0
 39 78  1  0  0  0  0
 39 79  1  0  0  0  0
 39 80  1  0  0  0  0
 40 43  1  0  0  0  0
 40 81  1  0  0  0  0
 42 43  2  0  0  0  0
 42 82  1  0  0  0  0
 43 83  1  0  0  0  0
M  END
> <PUBCHEM_COMPOUND_CID>
507424
> <PUBCHEM_COMPOUND_CANONICALIZED>
1
> <PUBCHEM_CACTVS_COMPLEXITY>
937
> <PUBCHEM_CACTVS_HBOND_ACCEPTOR>
11
> <PUBCHEM_CACTVS_HBOND_DONOR>
6
> <PUBCHEM_CACTVS_ROTATABLE_BOND>
18
> <PUBCHEM_CACTVS_SUBSKEYS>
AAADcfB7uYBAAAAAAAAAAAAAAAAAAAAAAAAwAAAAAAAAAAABAAAAHwQQCAAADSjl2BayCILABgSIAiHSGAACAAAgAAAIiIGIAIkIYDKAkTGcYAAklgCIiAe8l4IOgAAAAAAQAAAAAAAAACAAAAAAAAAAAA==
> <PUBCHEM_IUPAC_OPENEYE_NAME>
(4S)-4-(isobutoxycarbonylamino)-5-[[(1S)-3-methyl-1-[[(1R)-2-oxo-1-(sulfanylmethyl)-2-[2-[2-(trifluoromethyl)phenyl]ethylamino]ethyl]carbamoyl]butyl]amino]-5-oxo-pentanoic acid
> <PUBCHEM_IUPAC_CAS_NAME>
(4S)-5-[[(2S)-1-[[(2R)-3-mercapto-1-oxo-1-[2-[2-(trifluoromethyl)phenyl]ethylamino]propan-2-yl]amino]-4-methyl-1-oxopentan-2-yl]amino]-4-[[2-methylpropoxy(oxo)methyl]amino]-5-oxopentanoic acid
> <PUBCHEM_IUPAC_NAME_MARKUP>
(4<I>S</I>)-5-[[(2<I>S</I>)-4-methyl-1-oxo-1-[[(2<I>R</I>)-1-oxo-3-sulfanyl-1-[2-[2-(trifluoromethyl)phenyl]ethylamino]propan-2-yl]amino]pentan-2-yl]amino]-4-(2-methylpropoxycarbonylamino)-5-oxopentanoic acid
> <PUBCHEM_IUPAC_NAME>
(4S)-5-[[(2S)-4-methyl-1-oxo-1-[[(2R)-1-oxo-3-sulfanyl-1-[2-[2-(trifluoromethyl)phenyl]ethylamino]propan-2-yl]amino]pentan-2-yl]amino]-4-(2-methylpropoxycarbonylamino)-5-oxopentanoic acid
> <PUBCHEM_IUPAC_SYSTEMATIC_NAME>
(4S)-5-[[(2S)-4-methyl-1-oxidanylidene-1-[[(2R)-1-oxidanylidene-3-sulfanyl-1-[2-[2-(trifluoromethyl)phenyl]ethylamino]propan-2-yl]amino]pentan-2-yl]amino]-4-(2-methylpropoxycarbonylamino)-5-oxidanylidene-pentanoic acid
> <PUBCHEM_IUPAC_TRADITIONAL_NAME>
(4S)-4-(isobutoxycarbonylamino)-5-keto-5-[[(1S)-1-[[(1R)-2-keto-1-(mercaptomethyl)-2-[2-[2-(trifluoromethyl)phenyl]ethylamino]ethyl]carbamoyl]-3-methyl-butyl]amino]valeric acid
> <PUBCHEM_IUPAC_INCHI>
InChI=1S/C28H41F3N4O7S/c1-16(2)13-21(33-25(39)20(9-10-23(36)37)35-27(41)42-14-17(3)4)26(40)34-22(15-43)24(38)32-12-11-18-7-5-6-8-19(18)28(29,30)31/h5-8,16-17,20-22,43H,9-15H2,1-4H3,(H,32,38)(H,33,39)(H,34,40)(H,35,41)(H,36,37)/t20-,21-,22-/m0/s1
> <PUBCHEM_IUPAC_INCHIKEY>
YOCSXZBOOPKSTO-FKBYEOEOSA-N
> <PUBCHEM_XLOGP3_AA>
4.1
> <PUBCHEM_EXACT_MASS>
634.26480532
> <PUBCHEM_MOLECULAR_FORMULA>
C28H41F3N4O7S
> <PUBCHEM_MOLECULAR_WEIGHT>
634.7
> <PUBCHEM_OPENEYE_CAN_SMILES>
CC(C)CC(C(=O)NC(CS)C(=O)NCCC1=CC=CC=C1C(F)(F)F)NC(=O)C(CCC(=O)O)NC(=O)OCC(C)C
> <PUBCHEM_OPENEYE_ISO_SMILES>
CC(C)C[C@@H](C(=O)N[C@@H](CS)C(=O)NCCC1=CC=CC=C1C(F)(F)F)NC(=O)[C@H](CCC(=O)O)NC(=O)OCC(C)C
> <PUBCHEM_CACTVS_TPSA>
164
> <PUBCHEM_MONOISOTOPIC_WEIGHT>
634.26480532
> <PUBCHEM_TOTAL_CHARGE>
0
> <PUBCHEM_HEAVY_ATOM_COUNT>
43
> <PUBCHEM_ATOM_DEF_STEREO_COUNT>
3
> <PUBCHEM_ATOM_UDEF_STEREO_COUNT>
0
> <PUBCHEM_BOND_DEF_STEREO_COUNT>
0
> <PUBCHEM_BOND_UDEF_STEREO_COUNT>
0
> <PUBCHEM_ISOTOPIC_ATOM_COUNT>
0
> <PUBCHEM_COMPONENT_COUNT>
1
> <PUBCHEM_CACTVS_TAUTO_COUNT>
-1
> <PUBCHEM_COORDINATE_TYPE>
1
5
255
> <PUBCHEM_BONDANNOTATIONS>
17  12  6
25  13  5
20  14  6
33  36  8
33  37  8
36  40  8
37  42  8
40  43  8
42  43  8
$$$$
