507444
  -OEChem-10302200282D
 86 87  0     1  0  0  0  0  0999 V2000
    4.5981    0.5000    0.0000 S   0  0  0  0  0  0  0  0  0  0  0  0
    5.4641    1.0000    0.0000 O   0  0  0  0  0  0  0  0  0  0  0  0
    5.4641    2.0000    0.0000 O   0  0  0  0  0  0  0  0  0  0  0  0
    6.3301   -2.5000    0.0000 O   0  0  0  0  0  0  0  0  0  0  0  0
    4.5981    5.5000    0.0000 O   0  0  0  0  0  0  0  0  0  0  0  0
    8.0622    6.5000    0.0000 O   0  0  0  0  0  0  0  0  0  0  0  0
    6.3301    5.5000    0.0000 O   0  0  0  0  0  0  0  0  0  0  0  0
    8.9282    5.0000    0.0000 O   0  0  0  0  0  0  0  0  0  0  0  0
    3.7320   -8.0000    0.0000 O   0  0  0  0  0  0  0  0  0  0  0  0
    7.1962    2.0000    0.0000 N   0  0  0  0  0  0  0  0  0  0  0  0
    6.3301   -0.5000    0.0000 N   0  0  0  0  0  0  0  0  0  0  0  0
    5.4641    4.0000    0.0000 N   0  0  0  0  0  0  0  0  0  0  0  0
    4.5981   -2.5000    0.0000 N   0  0  0  0  0  0  0  0  0  0  0  0
    8.0622    0.5000    0.0000 C   0  0  0  0  0  0  0  0  0  0  0  0
    7.1962    1.0000    0.0000 C   0  0  1  0  0  0  0  0  0  0  0  0
    8.9282    1.0000    0.0000 C   0  0  0  0  0  0  0  0  0  0  0  0
    6.3301    0.5000    0.0000 C   0  0  0  0  0  0  0  0  0  0  0  0
    9.7942    0.5000    0.0000 C   0  0  0  0  0  0  0  0  0  0  0  0
    8.9282    2.0000    0.0000 C   0  0  0  0  0  0  0  0  0  0  0  0
    6.3301    3.5000    0.0000 C   0  0  2  0  0  0  0  0  0  0  0  0
    6.3301    2.5000    0.0000 C   0  0  0  0  0  0  0  0  0  0  0  0
    5.4641   -1.0000    0.0000 C   0  0  1  0  0  0  0  0  0  0  0  0
    7.1962    4.0000    0.0000 C   0  0  0  0  0  0  0  0  0  0  0  0
    7.1962    5.0000    0.0000 C   0  0  0  0  0  0  0  0  0  0  0  0
    4.5981   -0.5000    0.0000 C   0  0  0  0  0  0  0  0  0  0  0  0
    5.4641   -2.0000    0.0000 C   0  0  0  0  0  0  0  0  0  0  0  0
    4.5981   -3.5000    0.0000 C   0  0  0  0  0  0  0  0  0  0  0  0
    5.4641    5.0000    0.0000 C   0  0  0  0  0  0  0  0  0  0  0  0
    3.7320   -4.0000    0.0000 C   0  0  0  0  0  0  0  0  0  0  0  0
    8.0622    5.5000    0.0000 C   0  0  0  0  0  0  0  0  0  0  0  0
    3.7320   -5.0000    0.0000 C   0  0  0  0  0  0  0  0  0  0  0  0
    4.5981   -5.5000    0.0000 C   0  0  0  0  0  0  0  0  0  0  0  0
    2.8660   -5.5000    0.0000 C   0  0  0  0  0  0  0  0  0  0  0  0
    4.5981    6.5000    0.0000 C   0  0  0  0  0  0  0  0  0  0  0  0
    4.5981   -6.5000    0.0000 C   0  0  0  0  0  0  0  0  0  0  0  0
    2.8660   -6.5000    0.0000 C   0  0  0  0  0  0  0  0  0  0  0  0
    3.7320   -7.0000    0.0000 C   0  0  0  0  0  0  0  0  0  0  0  0
    3.7320    7.0000    0.0000 C   0  0  0  0  0  0  0  0  0  0  0  0
    3.7320    8.0000    0.0000 C   0  0  0  0  0  0  0  0  0  0  0  0
    2.8660    6.5000    0.0000 C   0  0  0  0  0  0  0  0  0  0  0  0
    2.8660    8.5000    0.0000 C   0  0  0  0  0  0  0  0  0  0  0  0
    2.0000    7.0000    0.0000 C   0  0  0  0  0  0  0  0  0  0  0  0
    2.0000    8.0000    0.0000 C   0  0  0  0  0  0  0  0  0  0  0  0
    2.8660   -8.5000    0.0000 C   0  0  0  0  0  0  0  0  0  0  0  0
    7.6636    0.0251    0.0000 H   0  0  0  0  0  0  0  0  0  0  0  0
    8.4607    0.0251    0.0000 H   0  0  0  0  0  0  0  0  0  0  0  0
    6.6592    1.3100    0.0000 H   0  0  0  0  0  0  0  0  0  0  0  0
    9.4651    1.3100    0.0000 H   0  0  0  0  0  0  0  0  0  0  0  0
    7.7331    2.3100    0.0000 H   0  0  0  0  0  0  0  0  0  0  0  0
    9.4842   -0.0369    0.0000 H   0  0  0  0  0  0  0  0  0  0  0  0
   10.3312    0.1900    0.0000 H   0  0  0  0  0  0  0  0  0  0  0  0
   10.1042    1.0369    0.0000 H   0  0  0  0  0  0  0  0  0  0  0  0
    9.5482    2.0000    0.0000 H   0  0  0  0  0  0  0  0  0  0  0  0
    8.9282    2.6200    0.0000 H   0  0  0  0  0  0  0  0  0  0  0  0
    8.3082    2.0000    0.0000 H   0  0  0  0  0  0  0  0  0  0  0  0
    5.7932    3.1900    0.0000 H   0  0  0  0  0  0  0  0  0  0  0  0
    6.8671   -0.8100    0.0000 H   0  0  0  0  0  0  0  0  0  0  0  0
    5.4641   -0.3800    0.0000 H   0  0  0  0  0  0  0  0  0  0  0  0
    7.4082    3.4174    0.0000 H   0  0  0  0  0  0  0  0  0  0  0  0
    7.8067    4.1077    0.0000 H   0  0  0  0  0  0  0  0  0  0  0  0
    6.9841    5.5826    0.0000 H   0  0  0  0  0  0  0  0  0  0  0  0
    6.5856    4.8923    0.0000 H   0  0  0  0  0  0  0  0  0  0  0  0
    4.9272    3.6900    0.0000 H   0  0  0  0  0  0  0  0  0  0  0  0
    3.9875   -0.3923    0.0000 H   0  0  0  0  0  0  0  0  0  0  0  0
    4.3860   -1.0826    0.0000 H   0  0  0  0  0  0  0  0  0  0  0  0
    4.0611   -2.1900    0.0000 H   0  0  0  0  0  0  0  0  0  0  0  0
    4.8101   -4.0826    0.0000 H   0  0  0  0  0  0  0  0  0  0  0  0
    5.2087   -3.3923    0.0000 H   0  0  0  0  0  0  0  0  0  0  0  0
    3.5200   -3.4174    0.0000 H   0  0  0  0  0  0  0  0  0  0  0  0
    3.1215   -4.1077    0.0000 H   0  0  0  0  0  0  0  0  0  0  0  0
    4.0611    0.8100    0.0000 H   0  0  0  0  0  0  0  0  0  0  0  0
    5.1350   -5.1900    0.0000 H   0  0  0  0  0  0  0  0  0  0  0  0
    2.3291   -5.1900    0.0000 H   0  0  0  0  0  0  0  0  0  0  0  0
    5.2087    6.3923    0.0000 H   0  0  0  0  0  0  0  0  0  0  0  0
    4.8101    7.0826    0.0000 H   0  0  0  0  0  0  0  0  0  0  0  0
    8.5991    6.8100    0.0000 H   0  0  0  0  0  0  0  0  0  0  0  0
    5.1350   -6.8100    0.0000 H   0  0  0  0  0  0  0  0  0  0  0  0
    2.3291   -6.8100    0.0000 H   0  0  0  0  0  0  0  0  0  0  0  0
    4.2690    8.3100    0.0000 H   0  0  0  0  0  0  0  0  0  0  0  0
    2.8660    5.8800    0.0000 H   0  0  0  0  0  0  0  0  0  0  0  0
    2.8660    9.1200    0.0000 H   0  0  0  0  0  0  0  0  0  0  0  0
    1.4631    6.6900    0.0000 H   0  0  0  0  0  0  0  0  0  0  0  0
    1.4631    8.3100    0.0000 H   0  0  0  0  0  0  0  0  0  0  0  0
    2.5560   -7.9631    0.0000 H   0  0  0  0  0  0  0  0  0  0  0  0
    2.3291   -8.8100    0.0000 H   0  0  0  0  0  0  0  0  0  0  0  0
    3.1760   -9.0369    0.0000 H   0  0  0  0  0  0  0  0  0  0  0  0
  1 25  1  0  0  0  0
  1 71  1  0  0  0  0
  2 17  2  0  0  0  0
  3 21  2  0  0  0  0
  4 26  2  0  0  0  0
  5 28  1  0  0  0  0
  5 34  1  0  0  0  0
  6 30  1  0  0  0  0
  6 76  1  0  0  0  0
  7 28  2  0  0  0  0
  8 30  2  0  0  0  0
  9 37  1  0  0  0  0
  9 44  1  0  0  0  0
 15 10  1  1  0  0  0
 10 21  1  0  0  0  0
 10 49  1  0  0  0  0
 11 17  1  0  0  0  0
 22 11  1  6  0  0  0
 11 57  1  0  0  0  0
 20 12  1  1  0  0  0
 12 28  1  0  0  0  0
 12 63  1  0  0  0  0
 13 26  1  0  0  0  0
 13 27  1  0  0  0  0
 13 66  1  0  0  0  0
 14 15  1  0  0  0  0
 14 16  1  0  0  0  0
 14 45  1  0  0  0  0
 14 46  1  0  0  0  0
 15 17  1  0  0  0  0
 15 47  1  0  0  0  0
 16 18  1  0  0  0  0
 16 19  1  0  0  0  0
 16 48  1  0  0  0  0
 18 50  1  0  0  0  0
 18 51  1  0  0  0  0
 18 52  1  0  0  0  0
 19 53  1  0  0  0  0
 19 54  1  0  0  0  0
 19 55  1  0  0  0  0
 20 21  1  0  0  0  0
 20 23  1  0  0  0  0
 20 56  1  0  0  0  0
 22 25  1  0  0  0  0
 22 26  1  0  0  0  0
 22 58  1  0  0  0  0
 23 24  1  0  0  0  0
 23 59  1  0  0  0  0
 23 60  1  0  0  0  0
 24 30  1  0  0  0  0
 24 61  1  0  0  0  0
 24 62  1  0  0  0  0
 25 64  1  0  0  0  0
 25 65  1  0  0  0  0
 27 29  1  0  0  0  0
 27 67  1  0  0  0  0
 27 68  1  0  0  0  0
 29 31  1  0  0  0  0
 29 69  1  0  0  0  0
 29 70  1  0  0  0  0
 31 32  2  0  0  0  0
 31 33  1  0  0  0  0
 32 35  1  0  0  0  0
 32 72  1  0  0  0  0
 33 36  2  0  0  0  0
 33 73  1  0  0  0  0
 34 38  1  0  0  0  0
 34 74  1  0  0  0  0
 34 75  1  0  0  0  0
 35 37  2  0  0  0  0
 35 77  1  0  0  0  0
 36 37  1  0  0  0  0
 36 78  1  0  0  0  0
 38 39  2  0  0  0  0
 38 40  1  0  0  0  0
 39 41  1  0  0  0  0
 39 79  1  0  0  0  0
 40 42  2  0  0  0  0
 40 80  1  0  0  0  0
 41 43  2  0  0  0  0
 41 81  1  0  0  0  0
 42 43  1  0  0  0  0
 42 82  1  0  0  0  0
 43 83  1  0  0  0  0
 44 84  1  0  0  0  0
 44 85  1  0  0  0  0
 44 86  1  0  0  0  0
M  END
> <PUBCHEM_COMPOUND_CID>
507444
> <PUBCHEM_COMPOUND_CANONICALIZED>
1
> <PUBCHEM_CACTVS_COMPLEXITY>
922
> <PUBCHEM_CACTVS_HBOND_ACCEPTOR>
9
> <PUBCHEM_CACTVS_HBOND_DONOR>
6
> <PUBCHEM_CACTVS_ROTATABLE_BOND>
19
> <PUBCHEM_CACTVS_SUBSKEYS>
AAADcfB7vABAAAAAAAAAAAAAAAAAAAAAAAAwYAAAAAAAAAABQAAAHgQQCAAADSzl2AayDoLABgSIAiHSGAACCAAgIAAIiIGOCIkMZjKEsTuccCAk1hGIqAe816IOIAAAAAAAAABAAAAAAAAAAAAAAAAAAA==
> <PUBCHEM_IUPAC_OPENEYE_NAME>
(4S)-4-(benzyloxycarbonylamino)-5-[[(1S)-1-[[(1R)-2-[2-(4-methoxyphenyl)ethylamino]-2-oxo-1-(sulfanylmethyl)ethyl]carbamoyl]-3-methyl-butyl]amino]-5-oxo-pentanoic acid
> <PUBCHEM_IUPAC_CAS_NAME>
(4S)-5-[[(2S)-1-[[(2R)-3-mercapto-1-[2-(4-methoxyphenyl)ethylamino]-1-oxopropan-2-yl]amino]-4-methyl-1-oxopentan-2-yl]amino]-5-oxo-4-(phenylmethoxycarbonylamino)pentanoic acid
> <PUBCHEM_IUPAC_NAME_MARKUP>
(4<I>S</I>)-5-[[(2<I>S</I>)-1-[[(2<I>R</I>)-1-[2-(4-methoxyphenyl)ethylamino]-1-oxo-3-sulfanylpropan-2-yl]amino]-4-methyl-1-oxopentan-2-yl]amino]-5-oxo-4-(phenylmethoxycarbonylamino)pentanoic acid
> <PUBCHEM_IUPAC_NAME>
(4S)-5-[[(2S)-1-[[(2R)-1-[2-(4-methoxyphenyl)ethylamino]-1-oxo-3-sulfanylpropan-2-yl]amino]-4-methyl-1-oxopentan-2-yl]amino]-5-oxo-4-(phenylmethoxycarbonylamino)pentanoic acid
> <PUBCHEM_IUPAC_SYSTEMATIC_NAME>
(4S)-5-[[(2S)-1-[[(2R)-1-[2-(4-methoxyphenyl)ethylamino]-1-oxidanylidene-3-sulfanyl-propan-2-yl]amino]-4-methyl-1-oxidanylidene-pentan-2-yl]amino]-5-oxidanylidene-4-(phenylmethoxycarbonylamino)pentanoic acid
> <PUBCHEM_IUPAC_TRADITIONAL_NAME>
(4S)-4-(benzyloxycarbonylamino)-5-keto-5-[[(1S)-1-[[(1R)-2-keto-1-(mercaptomethyl)-2-[2-(4-methoxyphenyl)ethylamino]ethyl]carbamoyl]-3-methyl-butyl]amino]valeric acid
> <PUBCHEM_IUPAC_INCHI>
InChI=1S/C31H42N4O8S/c1-20(2)17-25(30(40)34-26(19-44)28(38)32-16-15-21-9-11-23(42-3)12-10-21)33-29(39)24(13-14-27(36)37)35-31(41)43-18-22-7-5-4-6-8-22/h4-12,20,24-26,44H,13-19H2,1-3H3,(H,32,38)(H,33,39)(H,34,40)(H,35,41)(H,36,37)/t24-,25-,26-/m0/s1
> <PUBCHEM_IUPAC_INCHIKEY>
MZFVFQOPVGOOLL-GSDHBNRESA-N
> <PUBCHEM_XLOGP3_AA>
3.3
> <PUBCHEM_EXACT_MASS>
630.27233548
> <PUBCHEM_MOLECULAR_FORMULA>
C31H42N4O8S
> <PUBCHEM_MOLECULAR_WEIGHT>
630.8
> <PUBCHEM_OPENEYE_CAN_SMILES>
CC(C)CC(C(=O)NC(CS)C(=O)NCCC1=CC=C(C=C1)OC)NC(=O)C(CCC(=O)O)NC(=O)OCC2=CC=CC=C2
> <PUBCHEM_OPENEYE_ISO_SMILES>
CC(C)C[C@@H](C(=O)N[C@@H](CS)C(=O)NCCC1=CC=C(C=C1)OC)NC(=O)[C@H](CCC(=O)O)NC(=O)OCC2=CC=CC=C2
> <PUBCHEM_CACTVS_TPSA>
173
> <PUBCHEM_MONOISOTOPIC_WEIGHT>
630.27233548
> <PUBCHEM_TOTAL_CHARGE>
0
> <PUBCHEM_HEAVY_ATOM_COUNT>
44
> <PUBCHEM_ATOM_DEF_STEREO_COUNT>
3
> <PUBCHEM_ATOM_UDEF_STEREO_COUNT>
0
> <PUBCHEM_BOND_DEF_STEREO_COUNT>
0
> <PUBCHEM_BOND_UDEF_STEREO_COUNT>
0
> <PUBCHEM_ISOTOPIC_ATOM_COUNT>
0
> <PUBCHEM_COMPONENT_COUNT>
1
> <PUBCHEM_CACTVS_TAUTO_COUNT>
-1
> <PUBCHEM_COORDINATE_TYPE>
1
5
255
> <PUBCHEM_BONDANNOTATIONS>
15  10  5
22  11  6
20  12  5
31  32  8
31  33  8
32  35  8
33  36  8
35  37  8
36  37  8
38  39  8
38  40  8
39  41  8
40  42  8
41  43  8
42  43  8
$$$$
