507475
  -OEChem-10302200282D
 85 85  0     1  0  0  0  0  0999 V2000
    2.0000   -6.7500    0.0000 Br  0  0  0  0  0  0  0  0  0  0  0  0
    4.5981    0.7500    0.0000 S   0  0  0  0  0  0  0  0  0  0  0  0
    5.4641    1.2500    0.0000 O   0  0  0  0  0  0  0  0  0  0  0  0
    5.4641    2.2500    0.0000 O   0  0  0  0  0  0  0  0  0  0  0  0
    4.5981    5.7500    0.0000 O   0  0  0  0  0  0  0  0  0  0  0  0
    6.3301   -2.2500    0.0000 O   0  0  0  0  0  0  0  0  0  0  0  0
    8.0622    6.7500    0.0000 O   0  0  0  0  0  0  0  0  0  0  0  0
    6.3301    5.7500    0.0000 O   0  0  0  0  0  0  0  0  0  0  0  0
    8.9282    5.2500    0.0000 O   0  0  0  0  0  0  0  0  0  0  0  0
    3.7320   -7.7500    0.0000 O   0  0  0  0  0  0  0  0  0  0  0  0
    7.1962    2.2500    0.0000 N   0  0  0  0  0  0  0  0  0  0  0  0
    6.3301   -0.2500    0.0000 N   0  0  0  0  0  0  0  0  0  0  0  0
    5.4641    4.2500    0.0000 N   0  0  0  0  0  0  0  0  0  0  0  0
    4.5981   -2.2500    0.0000 N   0  0  0  0  0  0  0  0  0  0  0  0
    8.0622    0.7500    0.0000 C   0  0  0  0  0  0  0  0  0  0  0  0
    7.1962    1.2500    0.0000 C   0  0  1  0  0  0  0  0  0  0  0  0
    8.9282    1.2500    0.0000 C   0  0  0  0  0  0  0  0  0  0  0  0
    6.3301    0.7500    0.0000 C   0  0  0  0  0  0  0  0  0  0  0  0
    6.3301    3.7500    0.0000 C   0  0  2  0  0  0  0  0  0  0  0  0
    9.7942    0.7500    0.0000 C   0  0  0  0  0  0  0  0  0  0  0  0
    8.9282    2.2500    0.0000 C   0  0  0  0  0  0  0  0  0  0  0  0
    6.3301    2.7500    0.0000 C   0  0  0  0  0  0  0  0  0  0  0  0
    7.1962    4.2500    0.0000 C   0  0  0  0  0  0  0  0  0  0  0  0
    5.4641   -0.7500    0.0000 C   0  0  1  0  0  0  0  0  0  0  0  0
    7.1962    5.2500    0.0000 C   0  0  0  0  0  0  0  0  0  0  0  0
    4.5981   -0.2500    0.0000 C   0  0  0  0  0  0  0  0  0  0  0  0
    5.4641   -1.7500    0.0000 C   0  0  0  0  0  0  0  0  0  0  0  0
    5.4641    5.2500    0.0000 C   0  0  0  0  0  0  0  0  0  0  0  0
    4.5981   -3.2500    0.0000 C   0  0  0  0  0  0  0  0  0  0  0  0
    8.0622    5.7500    0.0000 C   0  0  0  0  0  0  0  0  0  0  0  0
    3.7320   -3.7500    0.0000 C   0  0  0  0  0  0  0  0  0  0  0  0
    3.7320    7.2500    0.0000 C   0  0  0  0  0  0  0  0  0  0  0  0
    4.5981    6.7500    0.0000 C   0  0  0  0  0  0  0  0  0  0  0  0
    3.7320   -4.7500    0.0000 C   0  0  0  0  0  0  0  0  0  0  0  0
    3.7320    8.2500    0.0000 C   0  0  0  0  0  0  0  0  0  0  0  0
    2.8660    6.7500    0.0000 C   0  0  0  0  0  0  0  0  0  0  0  0
    2.8660   -5.2500    0.0000 C   0  0  0  0  0  0  0  0  0  0  0  0
    4.5981   -5.2500    0.0000 C   0  0  0  0  0  0  0  0  0  0  0  0
    2.8660   -6.2500    0.0000 C   0  0  0  0  0  0  0  0  0  0  0  0
    4.5981   -6.2500    0.0000 C   0  0  0  0  0  0  0  0  0  0  0  0
    3.7320   -6.7500    0.0000 C   0  0  0  0  0  0  0  0  0  0  0  0
    4.5981   -8.2500    0.0000 C   0  0  0  0  0  0  0  0  0  0  0  0
    7.6636    0.2751    0.0000 H   0  0  0  0  0  0  0  0  0  0  0  0
    8.4607    0.2751    0.0000 H   0  0  0  0  0  0  0  0  0  0  0  0
    6.6592    1.5600    0.0000 H   0  0  0  0  0  0  0  0  0  0  0  0
    9.4651    1.5600    0.0000 H   0  0  0  0  0  0  0  0  0  0  0  0
    7.7331    2.5600    0.0000 H   0  0  0  0  0  0  0  0  0  0  0  0
    5.7932    3.4400    0.0000 H   0  0  0  0  0  0  0  0  0  0  0  0
    9.4842    0.2131    0.0000 H   0  0  0  0  0  0  0  0  0  0  0  0
   10.3312    0.4400    0.0000 H   0  0  0  0  0  0  0  0  0  0  0  0
   10.1042    1.2869    0.0000 H   0  0  0  0  0  0  0  0  0  0  0  0
    9.5482    2.2500    0.0000 H   0  0  0  0  0  0  0  0  0  0  0  0
    8.9282    2.8700    0.0000 H   0  0  0  0  0  0  0  0  0  0  0  0
    8.3082    2.2500    0.0000 H   0  0  0  0  0  0  0  0  0  0  0  0
    7.4082    3.6674    0.0000 H   0  0  0  0  0  0  0  0  0  0  0  0
    7.8067    4.3577    0.0000 H   0  0  0  0  0  0  0  0  0  0  0  0
    6.8671   -0.5600    0.0000 H   0  0  0  0  0  0  0  0  0  0  0  0
    5.4641   -0.1300    0.0000 H   0  0  0  0  0  0  0  0  0  0  0  0
    4.9272    3.9400    0.0000 H   0  0  0  0  0  0  0  0  0  0  0  0
    6.9841    5.8326    0.0000 H   0  0  0  0  0  0  0  0  0  0  0  0
    6.5856    5.1423    0.0000 H   0  0  0  0  0  0  0  0  0  0  0  0
    3.9875   -0.1423    0.0000 H   0  0  0  0  0  0  0  0  0  0  0  0
    4.3860   -0.8326    0.0000 H   0  0  0  0  0  0  0  0  0  0  0  0
    4.0611   -1.9400    0.0000 H   0  0  0  0  0  0  0  0  0  0  0  0
    4.8101   -3.8326    0.0000 H   0  0  0  0  0  0  0  0  0  0  0  0
    5.2087   -3.1423    0.0000 H   0  0  0  0  0  0  0  0  0  0  0  0
    3.5200   -3.1674    0.0000 H   0  0  0  0  0  0  0  0  0  0  0  0
    3.1215   -3.8577    0.0000 H   0  0  0  0  0  0  0  0  0  0  0  0
    3.7320    6.6300    0.0000 H   0  0  0  0  0  0  0  0  0  0  0  0
    5.2087    6.6423    0.0000 H   0  0  0  0  0  0  0  0  0  0  0  0
    4.8101    7.3326    0.0000 H   0  0  0  0  0  0  0  0  0  0  0  0
    4.0611    1.0600    0.0000 H   0  0  0  0  0  0  0  0  0  0  0  0
    4.3520    8.2500    0.0000 H   0  0  0  0  0  0  0  0  0  0  0  0
    3.7320    8.8700    0.0000 H   0  0  0  0  0  0  0  0  0  0  0  0
    3.1120    8.2500    0.0000 H   0  0  0  0  0  0  0  0  0  0  0  0
    2.5560    7.2869    0.0000 H   0  0  0  0  0  0  0  0  0  0  0  0
    2.3291    6.4400    0.0000 H   0  0  0  0  0  0  0  0  0  0  0  0
    3.1760    6.2131    0.0000 H   0  0  0  0  0  0  0  0  0  0  0  0
    2.3291   -4.9400    0.0000 H   0  0  0  0  0  0  0  0  0  0  0  0
    5.1350   -4.9400    0.0000 H   0  0  0  0  0  0  0  0  0  0  0  0
    8.5991    7.0600    0.0000 H   0  0  0  0  0  0  0  0  0  0  0  0
    5.1350   -6.5600    0.0000 H   0  0  0  0  0  0  0  0  0  0  0  0
    4.2881   -8.7869    0.0000 H   0  0  0  0  0  0  0  0  0  0  0  0
    5.1350   -8.5600    0.0000 H   0  0  0  0  0  0  0  0  0  0  0  0
    4.9081   -7.7131    0.0000 H   0  0  0  0  0  0  0  0  0  0  0  0
  1 39  1  0  0  0  0
  2 26  1  0  0  0  0
  2 72  1  0  0  0  0
  3 18  2  0  0  0  0
  4 22  2  0  0  0  0
  5 28  1  0  0  0  0
  5 33  1  0  0  0  0
  6 27  2  0  0  0  0
  7 30  1  0  0  0  0
  7 81  1  0  0  0  0
  8 28  2  0  0  0  0
  9 30  2  0  0  0  0
 10 41  1  0  0  0  0
 10 42  1  0  0  0  0
 16 11  1  1  0  0  0
 11 22  1  0  0  0  0
 11 47  1  0  0  0  0
 12 18  1  0  0  0  0
 24 12  1  6  0  0  0
 12 57  1  0  0  0  0
 19 13  1  1  0  0  0
 13 28  1  0  0  0  0
 13 59  1  0  0  0  0
 14 27  1  0  0  0  0
 14 29  1  0  0  0  0
 14 64  1  0  0  0  0
 15 16  1  0  0  0  0
 15 17  1  0  0  0  0
 15 43  1  0  0  0  0
 15 44  1  0  0  0  0
 16 18  1  0  0  0  0
 16 45  1  0  0  0  0
 17 20  1  0  0  0  0
 17 21  1  0  0  0  0
 17 46  1  0  0  0  0
 19 22  1  0  0  0  0
 19 23  1  0  0  0  0
 19 48  1  0  0  0  0
 20 49  1  0  0  0  0
 20 50  1  0  0  0  0
 20 51  1  0  0  0  0
 21 52  1  0  0  0  0
 21 53  1  0  0  0  0
 21 54  1  0  0  0  0
 23 25  1  0  0  0  0
 23 55  1  0  0  0  0
 23 56  1  0  0  0  0
 24 26  1  0  0  0  0
 24 27  1  0  0  0  0
 24 58  1  0  0  0  0
 25 30  1  0  0  0  0
 25 60  1  0  0  0  0
 25 61  1  0  0  0  0
 26 62  1  0  0  0  0
 26 63  1  0  0  0  0
 29 31  1  0  0  0  0
 29 65  1  0  0  0  0
 29 66  1  0  0  0  0
 31 34  1  0  0  0  0
 31 67  1  0  0  0  0
 31 68  1  0  0  0  0
 32 33  1  0  0  0  0
 32 35  1  0  0  0  0
 32 36  1  0  0  0  0
 32 69  1  0  0  0  0
 33 70  1  0  0  0  0
 33 71  1  0  0  0  0
 34 37  2  0  0  0  0
 34 38  1  0  0  0  0
 35 73  1  0  0  0  0
 35 74  1  0  0  0  0
 35 75  1  0  0  0  0
 36 76  1  0  0  0  0
 36 77  1  0  0  0  0
 36 78  1  0  0  0  0
 37 39  1  0  0  0  0
 37 79  1  0  0  0  0
 38 40  2  0  0  0  0
 38 80  1  0  0  0  0
 39 41  2  0  0  0  0
 40 41  1  0  0  0  0
 40 82  1  0  0  0  0
 42 83  1  0  0  0  0
 42 84  1  0  0  0  0
 42 85  1  0  0  0  0
M  END
> <PUBCHEM_COMPOUND_CID>
507475
> <PUBCHEM_COMPOUND_CANONICALIZED>
1
> <PUBCHEM_CACTVS_COMPLEXITY>
894
> <PUBCHEM_CACTVS_HBOND_ACCEPTOR>
9
> <PUBCHEM_CACTVS_HBOND_DONOR>
6
> <PUBCHEM_CACTVS_ROTATABLE_BOND>
19
> <PUBCHEM_CACTVS_SUBSKEYS>
AAADcfB7vABAEAAAAAAAAAAAAAAAAAAAAAAwAAAAAAAAAAABAAAAHgRQCAABrSzl2AayDoLABgSIAiHSGAACCAAgIAQIiIGOCKkMZjKEsTuccCAk1hGIqhe814IOIAAAEAAABABAAAAgAAAIAAAAAAAAAA==
> <PUBCHEM_IUPAC_OPENEYE_NAME>
(4S)-5-[[(1S)-1-[[(1R)-2-[2-(3-bromo-4-methoxy-phenyl)ethylamino]-2-oxo-1-(sulfanylmethyl)ethyl]carbamoyl]-3-methyl-butyl]amino]-4-(isobutoxycarbonylamino)-5-oxo-pentanoic acid
> <PUBCHEM_IUPAC_CAS_NAME>
(4S)-5-[[(2S)-1-[[(2R)-1-[2-(3-bromo-4-methoxyphenyl)ethylamino]-3-mercapto-1-oxopropan-2-yl]amino]-4-methyl-1-oxopentan-2-yl]amino]-4-[[2-methylpropoxy(oxo)methyl]amino]-5-oxopentanoic acid
> <PUBCHEM_IUPAC_NAME_MARKUP>
(4<I>S</I>)-5-[[(2<I>S</I>)-1-[[(2<I>R</I>)-1-[2-(3-bromo-4-methoxyphenyl)ethylamino]-1-oxo-3-sulfanylpropan-2-yl]amino]-4-methyl-1-oxopentan-2-yl]amino]-4-(2-methylpropoxycarbonylamino)-5-oxopentanoic acid
> <PUBCHEM_IUPAC_NAME>
(4S)-5-[[(2S)-1-[[(2R)-1-[2-(3-bromo-4-methoxyphenyl)ethylamino]-1-oxo-3-sulfanylpropan-2-yl]amino]-4-methyl-1-oxopentan-2-yl]amino]-4-(2-methylpropoxycarbonylamino)-5-oxopentanoic acid
> <PUBCHEM_IUPAC_SYSTEMATIC_NAME>
(4S)-5-[[(2S)-1-[[(2R)-1-[2-(3-bromanyl-4-methoxy-phenyl)ethylamino]-1-oxidanylidene-3-sulfanyl-propan-2-yl]amino]-4-methyl-1-oxidanylidene-pentan-2-yl]amino]-4-(2-methylpropoxycarbonylamino)-5-oxidanylidene-pentanoic acid
> <PUBCHEM_IUPAC_TRADITIONAL_NAME>
(4S)-5-[[(1S)-1-[[(1R)-2-[2-(3-bromo-4-methoxy-phenyl)ethylamino]-2-keto-1-(mercaptomethyl)ethyl]carbamoyl]-3-methyl-butyl]amino]-4-(isobutoxycarbonylamino)-5-keto-valeric acid
> <PUBCHEM_IUPAC_INCHI>
InChI=1S/C28H43BrN4O8S/c1-16(2)12-21(31-26(37)20(7-9-24(34)35)33-28(39)41-14-17(3)4)27(38)32-22(15-42)25(36)30-11-10-18-6-8-23(40-5)19(29)13-18/h6,8,13,16-17,20-22,42H,7,9-12,14-15H2,1-5H3,(H,30,36)(H,31,37)(H,32,38)(H,33,39)(H,34,35)/t20-,21-,22-/m0/s1
> <PUBCHEM_IUPAC_INCHIKEY>
MAPCLHXUQFFRDU-FKBYEOEOSA-N
> <PUBCHEM_XLOGP3_AA>
3.9
> <PUBCHEM_EXACT_MASS>
674.19850
> <PUBCHEM_MOLECULAR_FORMULA>
C28H43BrN4O8S
> <PUBCHEM_MOLECULAR_WEIGHT>
675.6
> <PUBCHEM_OPENEYE_CAN_SMILES>
CC(C)CC(C(=O)NC(CS)C(=O)NCCC1=CC(=C(C=C1)OC)Br)NC(=O)C(CCC(=O)O)NC(=O)OCC(C)C
> <PUBCHEM_OPENEYE_ISO_SMILES>
CC(C)C[C@@H](C(=O)N[C@@H](CS)C(=O)NCCC1=CC(=C(C=C1)OC)Br)NC(=O)[C@H](CCC(=O)O)NC(=O)OCC(C)C
> <PUBCHEM_CACTVS_TPSA>
173
> <PUBCHEM_MONOISOTOPIC_WEIGHT>
674.19850
> <PUBCHEM_TOTAL_CHARGE>
0
> <PUBCHEM_HEAVY_ATOM_COUNT>
42
> <PUBCHEM_ATOM_DEF_STEREO_COUNT>
3
> <PUBCHEM_ATOM_UDEF_STEREO_COUNT>
0
> <PUBCHEM_BOND_DEF_STEREO_COUNT>
0
> <PUBCHEM_BOND_UDEF_STEREO_COUNT>
0
> <PUBCHEM_ISOTOPIC_ATOM_COUNT>
0
> <PUBCHEM_COMPONENT_COUNT>
1
> <PUBCHEM_CACTVS_TAUTO_COUNT>
-1
> <PUBCHEM_COORDINATE_TYPE>
1
5
255
> <PUBCHEM_BONDANNOTATIONS>
16  11  5
24  12  6
19  13  5
34  37  8
34  38  8
37  39  8
38  40  8
39  41  8
40  41  8
$$$$
