507459
  -OEChem-10302200282D
 91 91  0     1  0  0  0  0  0999 V2000
    7.1962   -1.7500    0.0000 S   0  0  0  0  0  0  0  0  0  0  0  0
    8.0622    6.7500    0.0000 S   0  0  0  0  0  0  0  0  0  0  0  0
    6.3301   -2.2500    0.0000 O   0  0  0  0  0  0  0  0  0  0  0  0
    6.3301   -3.2500    0.0000 O   0  0  0  0  0  0  0  0  0  0  0  0
    7.1962   -6.7500    0.0000 O   0  0  0  0  0  0  0  0  0  0  0  0
    5.4641    1.2500    0.0000 O   0  0  0  0  0  0  0  0  0  0  0  0
    3.7320   -7.7500    0.0000 O   0  0  0  0  0  0  0  0  0  0  0  0
    5.4641   -6.7500    0.0000 O   0  0  0  0  0  0  0  0  0  0  0  0
    2.8660   -6.2500    0.0000 O   0  0  0  0  0  0  0  0  0  0  0  0
    9.0622    6.7500    0.0000 O   0  0  0  0  0  0  0  0  0  0  0  0
    7.0622    6.7500    0.0000 O   0  0  0  0  0  0  0  0  0  0  0  0
    9.7942    7.7500    0.0000 O   0  0  0  0  0  0  0  0  0  0  0  0
    4.5981   -3.2500    0.0000 N   0  0  0  0  0  0  0  0  0  0  0  0
    5.4641   -0.7500    0.0000 N   0  0  0  0  0  0  0  0  0  0  0  0
    6.3301   -5.2500    0.0000 N   0  0  0  0  0  0  0  0  0  0  0  0
    7.1962    1.2500    0.0000 N   0  0  0  0  0  0  0  0  0  0  0  0
    8.0622    7.7500    0.0000 N   0  0  0  0  0  0  0  0  0  0  0  0
    3.7320   -1.7500    0.0000 C   0  0  0  0  0  0  0  0  0  0  0  0
    4.5981   -2.2500    0.0000 C   0  0  1  0  0  0  0  0  0  0  0  0
    2.8660   -2.2500    0.0000 C   0  0  0  0  0  0  0  0  0  0  0  0
    5.4641   -1.7500    0.0000 C   0  0  0  0  0  0  0  0  0  0  0  0
    5.4641   -4.7500    0.0000 C   0  0  2  0  0  0  0  0  0  0  0  0
    2.0000   -1.7500    0.0000 C   0  0  0  0  0  0  0  0  0  0  0  0
    2.8660   -3.2500    0.0000 C   0  0  0  0  0  0  0  0  0  0  0  0
    5.4641   -3.7500    0.0000 C   0  0  0  0  0  0  0  0  0  0  0  0
    4.5981   -5.2500    0.0000 C   0  0  0  0  0  0  0  0  0  0  0  0
    6.3301   -0.2500    0.0000 C   0  0  1  0  0  0  0  0  0  0  0  0
    4.5981   -6.2500    0.0000 C   0  0  0  0  0  0  0  0  0  0  0  0
    7.1962   -0.7500    0.0000 C   0  0  0  0  0  0  0  0  0  0  0  0
    6.3301    0.7500    0.0000 C   0  0  0  0  0  0  0  0  0  0  0  0
    7.1962    2.2500    0.0000 C   0  0  0  0  0  0  0  0  0  0  0  0
    6.3301   -6.2500    0.0000 C   0  0  0  0  0  0  0  0  0  0  0  0
    8.0622    2.7500    0.0000 C   0  0  0  0  0  0  0  0  0  0  0  0
    3.7320   -6.7500    0.0000 C   0  0  0  0  0  0  0  0  0  0  0  0
    8.0622    3.7500    0.0000 C   0  0  0  0  0  0  0  0  0  0  0  0
    8.0622   -8.2500    0.0000 C   0  0  0  0  0  0  0  0  0  0  0  0
    7.1962   -7.7500    0.0000 C   0  0  0  0  0  0  0  0  0  0  0  0
    7.1962    4.2500    0.0000 C   0  0  0  0  0  0  0  0  0  0  0  0
    8.9282    4.2500    0.0000 C   0  0  0  0  0  0  0  0  0  0  0  0
    8.0622   -9.2500    0.0000 C   0  0  0  0  0  0  0  0  0  0  0  0
    8.9282   -7.7500    0.0000 C   0  0  0  0  0  0  0  0  0  0  0  0
    8.0622    5.7500    0.0000 C   0  0  0  0  0  0  0  0  0  0  0  0
    7.1962    5.2500    0.0000 C   0  0  0  0  0  0  0  0  0  0  0  0
    8.9282    5.2500    0.0000 C   0  0  0  0  0  0  0  0  0  0  0  0
    8.9282    8.2500    0.0000 C   0  0  0  0  0  0  0  0  0  0  0  0
    8.9282    9.2500    0.0000 C   0  0  0  0  0  0  0  0  0  0  0  0
    4.1306   -1.2750    0.0000 H   0  0  0  0  0  0  0  0  0  0  0  0
    3.3335   -1.2750    0.0000 H   0  0  0  0  0  0  0  0  0  0  0  0
    5.1350   -2.5600    0.0000 H   0  0  0  0  0  0  0  0  0  0  0  0
    2.8660   -1.6300    0.0000 H   0  0  0  0  0  0  0  0  0  0  0  0
    4.0611   -3.5600    0.0000 H   0  0  0  0  0  0  0  0  0  0  0  0
    5.4641   -5.3700    0.0000 H   0  0  0  0  0  0  0  0  0  0  0  0
    2.3100   -1.2131    0.0000 H   0  0  0  0  0  0  0  0  0  0  0  0
    1.4631   -1.4400    0.0000 H   0  0  0  0  0  0  0  0  0  0  0  0
    1.6900   -2.2869    0.0000 H   0  0  0  0  0  0  0  0  0  0  0  0
    2.2460   -3.2500    0.0000 H   0  0  0  0  0  0  0  0  0  0  0  0
    2.8660   -3.8700    0.0000 H   0  0  0  0  0  0  0  0  0  0  0  0
    3.4860   -3.2500    0.0000 H   0  0  0  0  0  0  0  0  0  0  0  0
    4.3860   -4.6674    0.0000 H   0  0  0  0  0  0  0  0  0  0  0  0
    3.9875   -5.3577    0.0000 H   0  0  0  0  0  0  0  0  0  0  0  0
    5.7932    0.0600    0.0000 H   0  0  0  0  0  0  0  0  0  0  0  0
    4.9272   -0.4400    0.0000 H   0  0  0  0  0  0  0  0  0  0  0  0
    6.8671   -4.9400    0.0000 H   0  0  0  0  0  0  0  0  0  0  0  0
    4.8101   -6.8326    0.0000 H   0  0  0  0  0  0  0  0  0  0  0  0
    5.2087   -6.1423    0.0000 H   0  0  0  0  0  0  0  0  0  0  0  0
    7.8067   -0.8577    0.0000 H   0  0  0  0  0  0  0  0  0  0  0  0
    7.4082   -0.1674    0.0000 H   0  0  0  0  0  0  0  0  0  0  0  0
    7.7331    0.9400    0.0000 H   0  0  0  0  0  0  0  0  0  0  0  0
    6.9841    2.8326    0.0000 H   0  0  0  0  0  0  0  0  0  0  0  0
    6.5856    2.1423    0.0000 H   0  0  0  0  0  0  0  0  0  0  0  0
    8.2742    2.1674    0.0000 H   0  0  0  0  0  0  0  0  0  0  0  0
    8.6728    2.8577    0.0000 H   0  0  0  0  0  0  0  0  0  0  0  0
    8.0622   -7.6300    0.0000 H   0  0  0  0  0  0  0  0  0  0  0  0
    6.5856   -7.6423    0.0000 H   0  0  0  0  0  0  0  0  0  0  0  0
    6.9841   -8.3326    0.0000 H   0  0  0  0  0  0  0  0  0  0  0  0
    7.7331   -2.0600    0.0000 H   0  0  0  0  0  0  0  0  0  0  0  0
    6.6592    3.9400    0.0000 H   0  0  0  0  0  0  0  0  0  0  0  0
    9.4651    3.9400    0.0000 H   0  0  0  0  0  0  0  0  0  0  0  0
    7.4422   -9.2500    0.0000 H   0  0  0  0  0  0  0  0  0  0  0  0
    8.0622   -9.8700    0.0000 H   0  0  0  0  0  0  0  0  0  0  0  0
    8.6822   -9.2500    0.0000 H   0  0  0  0  0  0  0  0  0  0  0  0
    9.2382   -8.2869    0.0000 H   0  0  0  0  0  0  0  0  0  0  0  0
    9.4651   -7.4400    0.0000 H   0  0  0  0  0  0  0  0  0  0  0  0
    8.6182   -7.2131    0.0000 H   0  0  0  0  0  0  0  0  0  0  0  0
    6.6592    5.5600    0.0000 H   0  0  0  0  0  0  0  0  0  0  0  0
    9.4651    5.5600    0.0000 H   0  0  0  0  0  0  0  0  0  0  0  0
    3.1951   -8.0600    0.0000 H   0  0  0  0  0  0  0  0  0  0  0  0
    7.5252    8.0600    0.0000 H   0  0  0  0  0  0  0  0  0  0  0  0
    9.5482    9.2500    0.0000 H   0  0  0  0  0  0  0  0  0  0  0  0
    8.9282    9.8700    0.0000 H   0  0  0  0  0  0  0  0  0  0  0  0
    8.3082    9.2500    0.0000 H   0  0  0  0  0  0  0  0  0  0  0  0
  1 29  1  0  0  0  0
  1 76  1  0  0  0  0
  2 10  2  0  0  0  0
  2 11  2  0  0  0  0
  2 17  1  0  0  0  0
  2 42  1  0  0  0  0
  3 21  2  0  0  0  0
  4 25  2  0  0  0  0
  5 32  1  0  0  0  0
  5 37  1  0  0  0  0
  6 30  2  0  0  0  0
  7 34  1  0  0  0  0
  7 87  1  0  0  0  0
  8 32  2  0  0  0  0
  9 34  2  0  0  0  0
 12 45  2  0  0  0  0
 19 13  1  1  0  0  0
 13 25  1  0  0  0  0
 13 51  1  0  0  0  0
 14 21  1  0  0  0  0
 27 14  1  6  0  0  0
 14 62  1  0  0  0  0
 22 15  1  1  0  0  0
 15 32  1  0  0  0  0
 15 63  1  0  0  0  0
 16 30  1  0  0  0  0
 16 31  1  0  0  0  0
 16 68  1  0  0  0  0
 17 45  1  0  0  0  0
 17 88  1  0  0  0  0
 18 19  1  0  0  0  0
 18 20  1  0  0  0  0
 18 47  1  0  0  0  0
 18 48  1  0  0  0  0
 19 21  1  0  0  0  0
 19 49  1  0  0  0  0
 20 23  1  0  0  0  0
 20 24  1  0  0  0  0
 20 50  1  0  0  0  0
 22 25  1  0  0  0  0
 22 26  1  0  0  0  0
 22 52  1  0  0  0  0
 23 53  1  0  0  0  0
 23 54  1  0  0  0  0
 23 55  1  0  0  0  0
 24 56  1  0  0  0  0
 24 57  1  0  0  0  0
 24 58  1  0  0  0  0
 26 28  1  0  0  0  0
 26 59  1  0  0  0  0
 26 60  1  0  0  0  0
 27 29  1  0  0  0  0
 27 30  1  0  0  0  0
 27 61  1  0  0  0  0
 28 34  1  0  0  0  0
 28 64  1  0  0  0  0
 28 65  1  0  0  0  0
 29 66  1  0  0  0  0
 29 67  1  0  0  0  0
 31 33  1  0  0  0  0
 31 69  1  0  0  0  0
 31 70  1  0  0  0  0
 33 35  1  0  0  0  0
 33 71  1  0  0  0  0
 33 72  1  0  0  0  0
 35 38  2  0  0  0  0
 35 39  1  0  0  0  0
 36 37  1  0  0  0  0
 36 40  1  0  0  0  0
 36 41  1  0  0  0  0
 36 73  1  0  0  0  0
 37 74  1  0  0  0  0
 37 75  1  0  0  0  0
 38 43  1  0  0  0  0
 38 77  1  0  0  0  0
 39 44  2  0  0  0  0
 39 78  1  0  0  0  0
 40 79  1  0  0  0  0
 40 80  1  0  0  0  0
 40 81  1  0  0  0  0
 41 82  1  0  0  0  0
 41 83  1  0  0  0  0
 41 84  1  0  0  0  0
 42 43  2  0  0  0  0
 42 44  1  0  0  0  0
 43 85  1  0  0  0  0
 44 86  1  0  0  0  0
 45 46  1  0  0  0  0
 46 89  1  0  0  0  0
 46 90  1  0  0  0  0
 46 91  1  0  0  0  0
M  END
> <PUBCHEM_COMPOUND_CID>
507459
> <PUBCHEM_COMPOUND_CANONICALIZED>
1
> <PUBCHEM_CACTVS_COMPLEXITY>
1150
> <PUBCHEM_CACTVS_HBOND_ACCEPTOR>
11
> <PUBCHEM_CACTVS_HBOND_DONOR>
7
> <PUBCHEM_CACTVS_ROTATABLE_BOND>
20
> <PUBCHEM_CACTVS_SUBSKEYS>
AAADcfB7vABgAAAAAAAAAAAAAAAAAAAAAAAwAAAAAAAAAAABAAAAHgQQSAAADSjl2AayCYLABgaIAiHSGHBCABAgAAAIiJmIAIkIYDKAkTGcYAAklgCIiAe8l4IOEAAAAAAAAAAgAAAAAAAAAAAAAAAAAA==
> <PUBCHEM_IUPAC_OPENEYE_NAME>
(4S)-5-[[(1S)-1-[[(1R)-2-[2-[4-(acetylsulfamoyl)phenyl]ethylamino]-2-oxo-1-(sulfanylmethyl)ethyl]carbamoyl]-3-methyl-butyl]amino]-4-(isobutoxycarbonylamino)-5-oxo-pentanoic acid
> <PUBCHEM_IUPAC_CAS_NAME>
(4S)-5-[[(2S)-1-[[(2R)-1-[2-[4-(acetylsulfamoyl)phenyl]ethylamino]-3-mercapto-1-oxopropan-2-yl]amino]-4-methyl-1-oxopentan-2-yl]amino]-4-[[2-methylpropoxy(oxo)methyl]amino]-5-oxopentanoic acid
> <PUBCHEM_IUPAC_NAME_MARKUP>
(4<I>S</I>)-5-[[(2<I>S</I>)-1-[[(2<I>R</I>)-1-[2-[4-(acetylsulfamoyl)phenyl]ethylamino]-1-oxo-3-sulfanylpropan-2-yl]amino]-4-methyl-1-oxopentan-2-yl]amino]-4-(2-methylpropoxycarbonylamino)-5-oxopentanoic acid
> <PUBCHEM_IUPAC_NAME>
(4S)-5-[[(2S)-1-[[(2R)-1-[2-[4-(acetylsulfamoyl)phenyl]ethylamino]-1-oxo-3-sulfanylpropan-2-yl]amino]-4-methyl-1-oxopentan-2-yl]amino]-4-(2-methylpropoxycarbonylamino)-5-oxopentanoic acid
> <PUBCHEM_IUPAC_SYSTEMATIC_NAME>
(4S)-5-[[(2S)-1-[[(2R)-1-[2-[4-(ethanoylsulfamoyl)phenyl]ethylamino]-1-oxidanylidene-3-sulfanyl-propan-2-yl]amino]-4-methyl-1-oxidanylidene-pentan-2-yl]amino]-4-(2-methylpropoxycarbonylamino)-5-oxidanylidene-pentanoic acid
> <PUBCHEM_IUPAC_TRADITIONAL_NAME>
(4S)-5-[[(1S)-1-[[(1R)-2-[2-[4-(acetylsulfamoyl)phenyl]ethylamino]-2-keto-1-(mercaptomethyl)ethyl]carbamoyl]-3-methyl-butyl]amino]-4-(isobutoxycarbonylamino)-5-keto-valeric acid
> <PUBCHEM_IUPAC_INCHI>
InChI=1S/C29H45N5O10S2/c1-17(2)14-23(31-27(39)22(10-11-25(36)37)33-29(41)44-15-18(3)4)28(40)32-24(16-45)26(38)30-13-12-20-6-8-21(9-7-20)46(42,43)34-19(5)35/h6-9,17-18,22-24,45H,10-16H2,1-5H3,(H,30,38)(H,31,39)(H,32,40)(H,33,41)(H,34,35)(H,36,37)/t22-,23-,24-/m0/s1
> <PUBCHEM_IUPAC_INCHIKEY>
SKRXGSIHAQEVSB-HJOGWXRNSA-N
> <PUBCHEM_XLOGP3_AA>
1.9
> <PUBCHEM_EXACT_MASS>
687.26078500
> <PUBCHEM_MOLECULAR_FORMULA>
C29H45N5O10S2
> <PUBCHEM_MOLECULAR_WEIGHT>
687.8
> <PUBCHEM_OPENEYE_CAN_SMILES>
CC(C)CC(C(=O)NC(CS)C(=O)NCCC1=CC=C(C=C1)S(=O)(=O)NC(=O)C)NC(=O)C(CCC(=O)O)NC(=O)OCC(C)C
> <PUBCHEM_OPENEYE_ISO_SMILES>
CC(C)C[C@@H](C(=O)N[C@@H](CS)C(=O)NCCC1=CC=C(C=C1)S(=O)(=O)NC(=O)C)NC(=O)[C@H](CCC(=O)O)NC(=O)OCC(C)C
> <PUBCHEM_CACTVS_TPSA>
236
> <PUBCHEM_MONOISOTOPIC_WEIGHT>
687.26078500
> <PUBCHEM_TOTAL_CHARGE>
0
> <PUBCHEM_HEAVY_ATOM_COUNT>
46
> <PUBCHEM_ATOM_DEF_STEREO_COUNT>
3
> <PUBCHEM_ATOM_UDEF_STEREO_COUNT>
0
> <PUBCHEM_BOND_DEF_STEREO_COUNT>
0
> <PUBCHEM_BOND_UDEF_STEREO_COUNT>
0
> <PUBCHEM_ISOTOPIC_ATOM_COUNT>
0
> <PUBCHEM_COMPONENT_COUNT>
1
> <PUBCHEM_CACTVS_TAUTO_COUNT>
-1
> <PUBCHEM_COORDINATE_TYPE>
1
5
255
> <PUBCHEM_BONDANNOTATIONS>
19  13  5
27  14  6
22  15  5
35  38  8
35  39  8
38  43  8
39  44  8
42  43  8
42  44  8
$$$$
