507425
  -OEChem-10302200282D
 92 93  0     1  0  0  0  0  0999 V2000
    9.4651   -0.0000    0.0000 S   0  0  0  0  0  0  0  0  0  0  0  0
    8.5991   -0.5000    0.0000 O   0  0  0  0  0  0  0  0  0  0  0  0
    7.7331   -0.0000    0.0000 O   0  0  0  0  0  0  0  0  0  0  0  0
    5.1350    2.5000    0.0000 O   0  0  0  0  0  0  0  0  0  0  0  0
   11.1972   -3.0000    0.0000 O   0  0  0  0  0  0  0  0  0  0  0  0
    2.5369    0.0000    0.0000 O   0  0  0  0  0  0  0  0  0  0  0  0
    4.2690    1.0000    0.0000 O   0  0  0  0  0  0  0  0  0  0  0  0
    3.4030   -1.5000    0.0000 O   0  0  0  0  0  0  0  0  0  0  0  0
   15.5273   -0.5000    0.0000 O   0  0  0  0  0  0  0  0  0  0  0  0
    6.8671   -1.5000    0.0000 N   0  0  0  0  0  0  0  0  0  0  0  0
    9.4651   -2.0000    0.0000 N   0  0  0  0  0  0  0  0  0  0  0  0
    6.0010    1.0000    0.0000 N   0  0  0  0  0  0  0  0  0  0  0  0
   12.0632   -1.5000    0.0000 N   0  0  0  0  0  0  0  0  0  0  0  0
    7.7331   -3.0000    0.0000 C   0  0  0  0  0  0  0  0  0  0  0  0
    7.7331   -2.0000    0.0000 C   0  0  1  0  0  0  0  0  0  0  0  0
    6.8671   -3.5000    0.0000 C   0  0  0  0  0  0  0  0  0  0  0  0
    8.5991   -1.5000    0.0000 C   0  0  0  0  0  0  0  0  0  0  0  0
    6.0010   -0.0000    0.0000 C   0  0  2  0  0  0  0  0  0  0  0  0
    6.8671   -4.5000    0.0000 C   0  0  0  0  0  0  0  0  0  0  0  0
    6.0010   -3.0000    0.0000 C   0  0  0  0  0  0  0  0  0  0  0  0
    6.8671   -0.5000    0.0000 C   0  0  0  0  0  0  0  0  0  0  0  0
    5.1350   -0.5000    0.0000 C   0  0  0  0  0  0  0  0  0  0  0  0
   10.3312   -1.5000    0.0000 C   0  0  1  0  0  0  0  0  0  0  0  0
    4.2690    0.0000    0.0000 C   0  0  0  0  0  0  0  0  0  0  0  0
   10.3312   -0.5000    0.0000 C   0  0  0  0  0  0  0  0  0  0  0  0
   11.1972   -2.0000    0.0000 C   0  0  0  0  0  0  0  0  0  0  0  0
   12.9292   -2.0000    0.0000 C   0  0  0  0  0  0  0  0  0  0  0  0
    5.1350    1.5000    0.0000 C   0  0  0  0  0  0  0  0  0  0  0  0
   13.7953   -1.5000    0.0000 C   0  0  0  0  0  0  0  0  0  0  0  0
    3.4030   -0.5000    0.0000 C   0  0  0  0  0  0  0  0  0  0  0  0
    4.2690    4.0000    0.0000 C   0  0  0  0  0  0  0  0  0  0  0  0
    4.2690    3.0000    0.0000 C   0  0  0  0  0  0  0  0  0  0  0  0
   14.6613   -2.0000    0.0000 C   0  0  0  0  0  0  0  0  0  0  0  0
    3.4030    4.5000    0.0000 C   0  0  0  0  0  0  0  0  0  0  0  0
    5.1350    4.5000    0.0000 C   0  0  0  0  0  0  0  0  0  0  0  0
   15.5273   -1.5000    0.0000 C   0  0  0  0  0  0  0  0  0  0  0  0
   14.6613   -3.0000    0.0000 C   0  0  0  0  0  0  0  0  0  0  0  0
   16.3933   -2.0000    0.0000 C   0  0  0  0  0  0  0  0  0  0  0  0
   15.5273   -3.5000    0.0000 C   0  0  0  0  0  0  0  0  0  0  0  0
   16.3933   -3.0000    0.0000 C   0  0  0  0  0  0  0  0  0  0  0  0
   16.3933   -0.0000    0.0000 C   0  0  0  0  0  0  0  0  0  0  0  0
   16.3933    1.0000    0.0000 C   0  0  0  0  0  0  0  0  0  0  0  0
   17.2594   -0.5000    0.0000 C   0  0  0  0  0  0  0  0  0  0  0  0
   17.2594    1.5000    0.0000 C   0  0  0  0  0  0  0  0  0  0  0  0
   18.1254   -0.0000    0.0000 C   0  0  0  0  0  0  0  0  0  0  0  0
   18.1254    1.0000    0.0000 C   0  0  0  0  0  0  0  0  0  0  0  0
    7.9451   -3.5826    0.0000 H   0  0  0  0  0  0  0  0  0  0  0  0
    8.3437   -2.8923    0.0000 H   0  0  0  0  0  0  0  0  0  0  0  0
    7.7331   -1.3800    0.0000 H   0  0  0  0  0  0  0  0  0  0  0  0
    6.3301   -3.8100    0.0000 H   0  0  0  0  0  0  0  0  0  0  0  0
    6.3301   -1.8100    0.0000 H   0  0  0  0  0  0  0  0  0  0  0  0
    6.5380    0.3100    0.0000 H   0  0  0  0  0  0  0  0  0  0  0  0
    6.2471   -4.5000    0.0000 H   0  0  0  0  0  0  0  0  0  0  0  0
    6.8671   -5.1200    0.0000 H   0  0  0  0  0  0  0  0  0  0  0  0
    7.4871   -4.5000    0.0000 H   0  0  0  0  0  0  0  0  0  0  0  0
    6.3110   -2.4631    0.0000 H   0  0  0  0  0  0  0  0  0  0  0  0
    5.4641   -2.6900    0.0000 H   0  0  0  0  0  0  0  0  0  0  0  0
    5.6910   -3.5369    0.0000 H   0  0  0  0  0  0  0  0  0  0  0  0
    4.7365   -0.9749    0.0000 H   0  0  0  0  0  0  0  0  0  0  0  0
    5.5335   -0.9749    0.0000 H   0  0  0  0  0  0  0  0  0  0  0  0
    9.4651   -2.6200    0.0000 H   0  0  0  0  0  0  0  0  0  0  0  0
    9.7942   -1.1900    0.0000 H   0  0  0  0  0  0  0  0  0  0  0  0
    6.5380    1.3100    0.0000 H   0  0  0  0  0  0  0  0  0  0  0  0
    4.6675    0.4749    0.0000 H   0  0  0  0  0  0  0  0  0  0  0  0
    3.8705    0.4749    0.0000 H   0  0  0  0  0  0  0  0  0  0  0  0
   10.9417   -0.6077    0.0000 H   0  0  0  0  0  0  0  0  0  0  0  0
   10.5432    0.0826    0.0000 H   0  0  0  0  0  0  0  0  0  0  0  0
   12.0632   -0.8800    0.0000 H   0  0  0  0  0  0  0  0  0  0  0  0
   12.5307   -2.4750    0.0000 H   0  0  0  0  0  0  0  0  0  0  0  0
   13.3278   -2.4750    0.0000 H   0  0  0  0  0  0  0  0  0  0  0  0
   14.1938   -1.0250    0.0000 H   0  0  0  0  0  0  0  0  0  0  0  0
   13.3967   -1.0250    0.0000 H   0  0  0  0  0  0  0  0  0  0  0  0
    4.2690    4.6200    0.0000 H   0  0  0  0  0  0  0  0  0  0  0  0
    3.6584    3.1077    0.0000 H   0  0  0  0  0  0  0  0  0  0  0  0
    4.0569    2.4174    0.0000 H   0  0  0  0  0  0  0  0  0  0  0  0
    9.4651    0.6200    0.0000 H   0  0  0  0  0  0  0  0  0  0  0  0
    3.7130    5.0369    0.0000 H   0  0  0  0  0  0  0  0  0  0  0  0
    2.8660    4.8100    0.0000 H   0  0  0  0  0  0  0  0  0  0  0  0
    3.0930    3.9631    0.0000 H   0  0  0  0  0  0  0  0  0  0  0  0
    5.4450    3.9631    0.0000 H   0  0  0  0  0  0  0  0  0  0  0  0
    5.6720    4.8100    0.0000 H   0  0  0  0  0  0  0  0  0  0  0  0
    4.8250    5.0369    0.0000 H   0  0  0  0  0  0  0  0  0  0  0  0
   14.1244   -3.3100    0.0000 H   0  0  0  0  0  0  0  0  0  0  0  0
    2.0000   -0.3100    0.0000 H   0  0  0  0  0  0  0  0  0  0  0  0
   16.9303   -1.6900    0.0000 H   0  0  0  0  0  0  0  0  0  0  0  0
   15.5273   -4.1200    0.0000 H   0  0  0  0  0  0  0  0  0  0  0  0
   16.9303   -3.3100    0.0000 H   0  0  0  0  0  0  0  0  0  0  0  0
   15.8564    1.3100    0.0000 H   0  0  0  0  0  0  0  0  0  0  0  0
   17.2594   -1.1200    0.0000 H   0  0  0  0  0  0  0  0  0  0  0  0
   17.2594    2.1200    0.0000 H   0  0  0  0  0  0  0  0  0  0  0  0
   18.6623   -0.3100    0.0000 H   0  0  0  0  0  0  0  0  0  0  0  0
   18.6623    1.3100    0.0000 H   0  0  0  0  0  0  0  0  0  0  0  0
  1 25  1  0  0  0  0
  1 76  1  0  0  0  0
  2 17  2  0  0  0  0
  3 21  2  0  0  0  0
  4 28  1  0  0  0  0
  4 32  1  0  0  0  0
  5 26  2  0  0  0  0
  6 30  1  0  0  0  0
  6 84  1  0  0  0  0
  7 28  2  0  0  0  0
  8 30  2  0  0  0  0
  9 36  1  0  0  0  0
  9 41  1  0  0  0  0
 15 10  1  6  0  0  0
 10 21  1  0  0  0  0
 10 51  1  0  0  0  0
 11 17  1  0  0  0  0
 23 11  1  1  0  0  0
 11 61  1  0  0  0  0
 18 12  1  6  0  0  0
 12 28  1  0  0  0  0
 12 63  1  0  0  0  0
 13 26  1  0  0  0  0
 13 27  1  0  0  0  0
 13 68  1  0  0  0  0
 14 15  1  0  0  0  0
 14 16  1  0  0  0  0
 14 47  1  0  0  0  0
 14 48  1  0  0  0  0
 15 17  1  0  0  0  0
 15 49  1  0  0  0  0
 16 19  1  0  0  0  0
 16 20  1  0  0  0  0
 16 50  1  0  0  0  0
 18 21  1  0  0  0  0
 18 22  1  0  0  0  0
 18 52  1  0  0  0  0
 19 53  1  0  0  0  0
 19 54  1  0  0  0  0
 19 55  1  0  0  0  0
 20 56  1  0  0  0  0
 20 57  1  0  0  0  0
 20 58  1  0  0  0  0
 22 24  1  0  0  0  0
 22 59  1  0  0  0  0
 22 60  1  0  0  0  0
 23 25  1  0  0  0  0
 23 26  1  0  0  0  0
 23 62  1  0  0  0  0
 24 30  1  0  0  0  0
 24 64  1  0  0  0  0
 24 65  1  0  0  0  0
 25 66  1  0  0  0  0
 25 67  1  0  0  0  0
 27 29  1  0  0  0  0
 27 69  1  0  0  0  0
 27 70  1  0  0  0  0
 29 33  1  0  0  0  0
 29 71  1  0  0  0  0
 29 72  1  0  0  0  0
 31 32  1  0  0  0  0
 31 34  1  0  0  0  0
 31 35  1  0  0  0  0
 31 73  1  0  0  0  0
 32 74  1  0  0  0  0
 32 75  1  0  0  0  0
 33 36  1  0  0  0  0
 33 37  2  0  0  0  0
 34 77  1  0  0  0  0
 34 78  1  0  0  0  0
 34 79  1  0  0  0  0
 35 80  1  0  0  0  0
 35 81  1  0  0  0  0
 35 82  1  0  0  0  0
 36 38  2  0  0  0  0
 37 39  1  0  0  0  0
 37 83  1  0  0  0  0
 38 40  1  0  0  0  0
 38 85  1  0  0  0  0
 39 40  2  0  0  0  0
 39 86  1  0  0  0  0
 40 87  1  0  0  0  0
 41 42  2  0  0  0  0
 41 43  1  0  0  0  0
 42 44  1  0  0  0  0
 42 88  1  0  0  0  0
 43 45  2  0  0  0  0
 43 89  1  0  0  0  0
 44 46  2  0  0  0  0
 44 90  1  0  0  0  0
 45 46  1  0  0  0  0
 45 91  1  0  0  0  0
 46 92  1  0  0  0  0
M  END
> <PUBCHEM_COMPOUND_CID>
507425
> <PUBCHEM_COMPOUND_CANONICALIZED>
1
> <PUBCHEM_CACTVS_COMPLEXITY>
975
> <PUBCHEM_CACTVS_HBOND_ACCEPTOR>
9
> <PUBCHEM_CACTVS_HBOND_DONOR>
6
> <PUBCHEM_CACTVS_ROTATABLE_BOND>
20
> <PUBCHEM_CACTVS_SUBSKEYS>
AAADcfB/vABAAAAAAAAAAAAAAAAAAAAAAAAwYAAAAAAAAAABQAAAHgQQCAAADSzl2AayDoLABgSIAiHSGAACCAAgIAAIiIGOCIkMZjKEsTueeCCk1hGIqAe816IOAAAAAAAIAAAAAAAAABAAAAAAAAAAAA==
> <PUBCHEM_IUPAC_OPENEYE_NAME>
(4S)-4-(isobutoxycarbonylamino)-5-[[(1S)-3-methyl-1-[[(1R)-2-oxo-2-[2-(2-phenoxyphenyl)ethylamino]-1-(sulfanylmethyl)ethyl]carbamoyl]butyl]amino]-5-oxo-pentanoic acid
> <PUBCHEM_IUPAC_CAS_NAME>
(4S)-5-[[(2S)-1-[[(2R)-3-mercapto-1-oxo-1-[2-(2-phenoxyphenyl)ethylamino]propan-2-yl]amino]-4-methyl-1-oxopentan-2-yl]amino]-4-[[2-methylpropoxy(oxo)methyl]amino]-5-oxopentanoic acid
> <PUBCHEM_IUPAC_NAME_MARKUP>
(4<I>S</I>)-5-[[(2<I>S</I>)-4-methyl-1-oxo-1-[[(2<I>R</I>)-1-oxo-1-[2-(2-phenoxyphenyl)ethylamino]-3-sulfanylpropan-2-yl]amino]pentan-2-yl]amino]-4-(2-methylpropoxycarbonylamino)-5-oxopentanoic acid
> <PUBCHEM_IUPAC_NAME>
(4S)-5-[[(2S)-4-methyl-1-oxo-1-[[(2R)-1-oxo-1-[2-(2-phenoxyphenyl)ethylamino]-3-sulfanylpropan-2-yl]amino]pentan-2-yl]amino]-4-(2-methylpropoxycarbonylamino)-5-oxopentanoic acid
> <PUBCHEM_IUPAC_SYSTEMATIC_NAME>
(4S)-5-[[(2S)-4-methyl-1-oxidanylidene-1-[[(2R)-1-oxidanylidene-1-[2-(2-phenoxyphenyl)ethylamino]-3-sulfanyl-propan-2-yl]amino]pentan-2-yl]amino]-4-(2-methylpropoxycarbonylamino)-5-oxidanylidene-pentanoic acid
> <PUBCHEM_IUPAC_TRADITIONAL_NAME>
(4S)-4-(isobutoxycarbonylamino)-5-keto-5-[[(1S)-1-[[(1R)-2-keto-1-(mercaptomethyl)-2-[2-(2-phenoxyphenyl)ethylamino]ethyl]carbamoyl]-3-methyl-butyl]amino]valeric acid
> <PUBCHEM_IUPAC_INCHI>
InChI=1S/C33H46N4O8S/c1-21(2)18-26(35-31(41)25(14-15-29(38)39)37-33(43)44-19-22(3)4)32(42)36-27(20-46)30(40)34-17-16-23-10-8-9-13-28(23)45-24-11-6-5-7-12-24/h5-13,21-22,25-27,46H,14-20H2,1-4H3,(H,34,40)(H,35,41)(H,36,42)(H,37,43)(H,38,39)/t25-,26-,27-/m0/s1
> <PUBCHEM_IUPAC_INCHIKEY>
YBMDVZFLXPCXOH-QKDODKLFSA-N
> <PUBCHEM_XLOGP3_AA>
4.7
> <PUBCHEM_EXACT_MASS>
658.30363561
> <PUBCHEM_MOLECULAR_FORMULA>
C33H46N4O8S
> <PUBCHEM_MOLECULAR_WEIGHT>
658.8
> <PUBCHEM_OPENEYE_CAN_SMILES>
CC(C)CC(C(=O)NC(CS)C(=O)NCCC1=CC=CC=C1OC2=CC=CC=C2)NC(=O)C(CCC(=O)O)NC(=O)OCC(C)C
> <PUBCHEM_OPENEYE_ISO_SMILES>
CC(C)C[C@@H](C(=O)N[C@@H](CS)C(=O)NCCC1=CC=CC=C1OC2=CC=CC=C2)NC(=O)[C@H](CCC(=O)O)NC(=O)OCC(C)C
> <PUBCHEM_CACTVS_TPSA>
173
> <PUBCHEM_MONOISOTOPIC_WEIGHT>
658.30363561
> <PUBCHEM_TOTAL_CHARGE>
0
> <PUBCHEM_HEAVY_ATOM_COUNT>
46
> <PUBCHEM_ATOM_DEF_STEREO_COUNT>
3
> <PUBCHEM_ATOM_UDEF_STEREO_COUNT>
0
> <PUBCHEM_BOND_DEF_STEREO_COUNT>
0
> <PUBCHEM_BOND_UDEF_STEREO_COUNT>
0
> <PUBCHEM_ISOTOPIC_ATOM_COUNT>
0
> <PUBCHEM_COMPONENT_COUNT>
1
> <PUBCHEM_CACTVS_TAUTO_COUNT>
-1
> <PUBCHEM_COORDINATE_TYPE>
1
5
255
> <PUBCHEM_BONDANNOTATIONS>
15  10  6
23  11  5
18  12  6
33  36  8
33  37  8
36  38  8
37  39  8
38  40  8
39  40  8
41  42  8
41  43  8
42  44  8
43  45  8
44  46  8
45  46  8
$$$$
