507499
  -OEChem-10302200282D
 81 82  0     1  0  0  0  0  0999 V2000
    2.8660    4.3100    0.0000 Cl  0  0  0  0  0  0  0  0  0  0  0  0
    7.1962    3.8100    0.0000 S   0  0  0  0  0  0  0  0  0  0  0  0
    8.0622    1.3100    0.0000 O   0  0  0  0  0  0  0  0  0  0  0  0
    7.1962   -2.1900    0.0000 O   0  0  0  0  0  0  0  0  0  0  0  0
    4.5981    2.3100    0.0000 O   0  0  0  0  0  0  0  0  0  0  0  0
    3.7320   -3.1900    0.0000 O   0  0  0  0  0  0  0  0  0  0  0  0
    3.7320    0.8100    0.0000 O   0  0  0  0  0  0  0  0  0  0  0  0
    2.8660   -0.6900    0.0000 O   0  0  0  0  0  0  0  0  0  0  0  0
    6.3301   -6.6900    0.0000 O   0  0  0  0  0  0  0  0  0  0  0  0
    6.3301   -0.6900    0.0000 N   0  0  0  0  0  0  0  0  0  0  0  0
    6.3301    1.3100    0.0000 N   0  0  0  0  0  0  0  0  0  0  0  0
    5.4641   -3.1900    0.0000 N   0  0  0  0  0  0  0  0  0  0  0  0
    5.4641    3.8100    0.0000 N   0  0  0  0  0  0  0  0  0  0  0  0
    2.8660   -4.6900    0.0000 N   0  0  0  0  0  0  0  0  0  0  0  0
    7.1962   -0.1900    0.0000 C   0  0  1  0  0  0  0  0  0  0  0  0
    8.0622   -0.6900    0.0000 C   0  0  0  0  0  0  0  0  0  0  0  0
    8.9282   -0.1900    0.0000 C   0  0  0  0  0  0  0  0  0  0  0  0
    7.1962    0.8100    0.0000 C   0  0  0  0  0  0  0  0  0  0  0  0
    5.4641   -2.1900    0.0000 C   0  0  2  0  0  0  0  0  0  0  0  0
    9.7942   -0.6900    0.0000 C   0  0  0  0  0  0  0  0  0  0  0  0
    8.9282    0.8100    0.0000 C   0  0  0  0  0  0  0  0  0  0  0  0
    6.3301   -1.6900    0.0000 C   0  0  0  0  0  0  0  0  0  0  0  0
    4.5981   -1.6900    0.0000 C   0  0  0  0  0  0  0  0  0  0  0  0
    6.3301    2.3100    0.0000 C   0  0  1  0  0  0  0  0  0  0  0  0
    4.5981   -0.6900    0.0000 C   0  0  0  0  0  0  0  0  0  0  0  0
    7.1962    2.8100    0.0000 C   0  0  0  0  0  0  0  0  0  0  0  0
    5.4641    2.8100    0.0000 C   0  0  0  0  0  0  0  0  0  0  0  0
    4.5981   -3.6900    0.0000 C   0  0  0  0  0  0  0  0  0  0  0  0
    4.5981    4.3100    0.0000 C   0  0  0  0  0  0  0  0  0  0  0  0
    3.7320   -0.1900    0.0000 C   0  0  0  0  0  0  0  0  0  0  0  0
    4.5981    5.3100    0.0000 C   0  0  0  0  0  0  0  0  0  0  0  0
    4.5981   -4.6900    0.0000 C   0  0  0  0  0  0  0  0  0  0  0  0
    3.7320    5.8100    0.0000 C   0  0  0  0  0  0  0  0  0  0  0  0
    3.7320   -5.1900    0.0000 C   0  0  0  0  0  0  0  0  0  0  0  0
    5.4641   -5.1900    0.0000 C   0  0  0  0  0  0  0  0  0  0  0  0
    3.7320   -6.1900    0.0000 C   0  0  0  0  0  0  0  0  0  0  0  0
    2.8660    5.3100    0.0000 C   0  0  0  0  0  0  0  0  0  0  0  0
    3.7320    6.8100    0.0000 C   0  0  0  0  0  0  0  0  0  0  0  0
    5.4641   -6.1900    0.0000 C   0  0  0  0  0  0  0  0  0  0  0  0
    4.5981   -6.6900    0.0000 C   0  0  0  0  0  0  0  0  0  0  0  0
    2.0000    5.8100    0.0000 C   0  0  0  0  0  0  0  0  0  0  0  0
    2.8660    7.3100    0.0000 C   0  0  0  0  0  0  0  0  0  0  0  0
    2.0000    6.8100    0.0000 C   0  0  0  0  0  0  0  0  0  0  0  0
    6.6592    0.1200    0.0000 H   0  0  0  0  0  0  0  0  0  0  0  0
    7.6636   -1.1650    0.0000 H   0  0  0  0  0  0  0  0  0  0  0  0
    8.4607   -1.1650    0.0000 H   0  0  0  0  0  0  0  0  0  0  0  0
    9.4651    0.1200    0.0000 H   0  0  0  0  0  0  0  0  0  0  0  0
    5.7932   -0.3800    0.0000 H   0  0  0  0  0  0  0  0  0  0  0  0
    6.0010   -2.5000    0.0000 H   0  0  0  0  0  0  0  0  0  0  0  0
    9.4842   -1.2269    0.0000 H   0  0  0  0  0  0  0  0  0  0  0  0
   10.3312   -1.0000    0.0000 H   0  0  0  0  0  0  0  0  0  0  0  0
   10.1042   -0.1531    0.0000 H   0  0  0  0  0  0  0  0  0  0  0  0
    9.5482    0.8100    0.0000 H   0  0  0  0  0  0  0  0  0  0  0  0
    8.9282    1.4300    0.0000 H   0  0  0  0  0  0  0  0  0  0  0  0
    8.3082    0.8100    0.0000 H   0  0  0  0  0  0  0  0  0  0  0  0
    3.9875   -1.5823    0.0000 H   0  0  0  0  0  0  0  0  0  0  0  0
    4.3860   -2.2726    0.0000 H   0  0  0  0  0  0  0  0  0  0  0  0
    5.7932    1.0000    0.0000 H   0  0  0  0  0  0  0  0  0  0  0  0
    6.8671    2.0000    0.0000 H   0  0  0  0  0  0  0  0  0  0  0  0
    6.0010   -3.5000    0.0000 H   0  0  0  0  0  0  0  0  0  0  0  0
    5.2087   -0.7977    0.0000 H   0  0  0  0  0  0  0  0  0  0  0  0
    4.8101   -0.1074    0.0000 H   0  0  0  0  0  0  0  0  0  0  0  0
    7.4082    2.2274    0.0000 H   0  0  0  0  0  0  0  0  0  0  0  0
    7.8067    2.9177    0.0000 H   0  0  0  0  0  0  0  0  0  0  0  0
    6.0010    4.1200    0.0000 H   0  0  0  0  0  0  0  0  0  0  0  0
    3.9875    4.4177    0.0000 H   0  0  0  0  0  0  0  0  0  0  0  0
    4.3860    3.7274    0.0000 H   0  0  0  0  0  0  0  0  0  0  0  0
    5.2087    5.2023    0.0000 H   0  0  0  0  0  0  0  0  0  0  0  0
    4.8101    5.8926    0.0000 H   0  0  0  0  0  0  0  0  0  0  0  0
    7.7331    4.1200    0.0000 H   0  0  0  0  0  0  0  0  0  0  0  0
    6.0010   -4.8800    0.0000 H   0  0  0  0  0  0  0  0  0  0  0  0
    3.1951   -6.5000    0.0000 H   0  0  0  0  0  0  0  0  0  0  0  0
    4.2690    7.1200    0.0000 H   0  0  0  0  0  0  0  0  0  0  0  0
    3.1951    1.1200    0.0000 H   0  0  0  0  0  0  0  0  0  0  0  0
    4.5981   -7.3100    0.0000 H   0  0  0  0  0  0  0  0  0  0  0  0
    2.3291   -5.0000    0.0000 H   0  0  0  0  0  0  0  0  0  0  0  0
    2.8660   -4.0700    0.0000 H   0  0  0  0  0  0  0  0  0  0  0  0
    1.4631    5.5000    0.0000 H   0  0  0  0  0  0  0  0  0  0  0  0
    2.8660    7.9300    0.0000 H   0  0  0  0  0  0  0  0  0  0  0  0
    1.4631    7.1200    0.0000 H   0  0  0  0  0  0  0  0  0  0  0  0
    6.3301   -7.3100    0.0000 H   0  0  0  0  0  0  0  0  0  0  0  0
  1 37  1  0  0  0  0
  2 26  1  0  0  0  0
  2 70  1  0  0  0  0
  3 18  2  0  0  0  0
  4 22  2  0  0  0  0
  5 27  2  0  0  0  0
  6 28  2  0  0  0  0
  7 30  1  0  0  0  0
  7 74  1  0  0  0  0
  8 30  2  0  0  0  0
  9 39  1  0  0  0  0
  9 81  1  0  0  0  0
 15 10  1  6  0  0  0
 10 22  1  0  0  0  0
 10 48  1  0  0  0  0
 11 18  1  0  0  0  0
 24 11  1  6  0  0  0
 11 58  1  0  0  0  0
 19 12  1  1  0  0  0
 12 28  1  0  0  0  0
 12 60  1  0  0  0  0
 13 27  1  0  0  0  0
 13 29  1  0  0  0  0
 13 65  1  0  0  0  0
 14 34  1  0  0  0  0
 14 76  1  0  0  0  0
 14 77  1  0  0  0  0
 15 16  1  0  0  0  0
 15 18  1  0  0  0  0
 15 44  1  0  0  0  0
 16 17  1  0  0  0  0
 16 45  1  0  0  0  0
 16 46  1  0  0  0  0
 17 20  1  0  0  0  0
 17 21  1  0  0  0  0
 17 47  1  0  0  0  0
 19 22  1  0  0  0  0
 19 23  1  0  0  0  0
 19 49  1  0  0  0  0
 20 50  1  0  0  0  0
 20 51  1  0  0  0  0
 20 52  1  0  0  0  0
 21 53  1  0  0  0  0
 21 54  1  0  0  0  0
 21 55  1  0  0  0  0
 23 25  1  0  0  0  0
 23 56  1  0  0  0  0
 23 57  1  0  0  0  0
 24 26  1  0  0  0  0
 24 27  1  0  0  0  0
 24 59  1  0  0  0  0
 25 30  1  0  0  0  0
 25 61  1  0  0  0  0
 25 62  1  0  0  0  0
 26 63  1  0  0  0  0
 26 64  1  0  0  0  0
 28 32  1  0  0  0  0
 29 31  1  0  0  0  0
 29 66  1  0  0  0  0
 29 67  1  0  0  0  0
 31 33  1  0  0  0  0
 31 68  1  0  0  0  0
 31 69  1  0  0  0  0
 32 34  2  0  0  0  0
 32 35  1  0  0  0  0
 33 37  1  0  0  0  0
 33 38  2  0  0  0  0
 34 36  1  0  0  0  0
 35 39  2  0  0  0  0
 35 71  1  0  0  0  0
 36 40  2  0  0  0  0
 36 72  1  0  0  0  0
 37 41  2  0  0  0  0
 38 42  1  0  0  0  0
 38 73  1  0  0  0  0
 39 40  1  0  0  0  0
 40 75  1  0  0  0  0
 41 43  1  0  0  0  0
 41 78  1  0  0  0  0
 42 43  2  0  0  0  0
 42 79  1  0  0  0  0
 43 80  1  0  0  0  0
M  END
> <PUBCHEM_COMPOUND_CID>
507499
> <PUBCHEM_COMPOUND_CANONICALIZED>
1
> <PUBCHEM_CACTVS_COMPLEXITY>
958
> <PUBCHEM_CACTVS_HBOND_ACCEPTOR>
9
> <PUBCHEM_CACTVS_HBOND_DONOR>
8
> <PUBCHEM_CACTVS_ROTATABLE_BOND>
16
> <PUBCHEM_CACTVS_SUBSKEYS>
AAADcfB7uABEAAAAAAAAAAAAAAAAAAAAAAAwYAAAAAAAAAABQAAAHgYQCAAADS7F2CSyzoLAAgSIAiXSWACCAAAkJwAIiIGObsgIZjqD17OUcYhk1hGI2ce+35KOAEABAAADAAAAgAIAAAYAAAAAAAAAAA==
> <PUBCHEM_IUPAC_OPENEYE_NAME>
(4S)-4-[(2-amino-5-hydroxy-benzoyl)amino]-5-[[(1S)-1-[[(1R)-2-[2-(2-chlorophenyl)ethylamino]-2-oxo-1-(sulfanylmethyl)ethyl]carbamoyl]-3-methyl-butyl]amino]-5-oxo-pentanoic acid
> <PUBCHEM_IUPAC_CAS_NAME>
(4S)-4-[[(2-amino-5-hydroxyphenyl)-oxomethyl]amino]-5-[[(2S)-1-[[(2R)-1-[2-(2-chlorophenyl)ethylamino]-3-mercapto-1-oxopropan-2-yl]amino]-4-methyl-1-oxopentan-2-yl]amino]-5-oxopentanoic acid
> <PUBCHEM_IUPAC_NAME_MARKUP>
(4<I>S</I>)-4-[(2-amino-5-hydroxybenzoyl)amino]-5-[[(2<I>S</I>)-1-[[(2<I>R</I>)-1-[2-(2-chlorophenyl)ethylamino]-1-oxo-3-sulfanylpropan-2-yl]amino]-4-methyl-1-oxopentan-2-yl]amino]-5-oxopentanoic acid
> <PUBCHEM_IUPAC_NAME>
(4S)-4-[(2-amino-5-hydroxybenzoyl)amino]-5-[[(2S)-1-[[(2R)-1-[2-(2-chlorophenyl)ethylamino]-1-oxo-3-sulfanylpropan-2-yl]amino]-4-methyl-1-oxopentan-2-yl]amino]-5-oxopentanoic acid
> <PUBCHEM_IUPAC_SYSTEMATIC_NAME>
(4S)-4-[(2-azanyl-5-oxidanyl-phenyl)carbonylamino]-5-[[(2S)-1-[[(2R)-1-[2-(2-chlorophenyl)ethylamino]-1-oxidanylidene-3-sulfanyl-propan-2-yl]amino]-4-methyl-1-oxidanylidene-pentan-2-yl]amino]-5-oxidanylidene-pentanoic acid
> <PUBCHEM_IUPAC_TRADITIONAL_NAME>
(4S)-4-[(2-amino-5-hydroxy-benzoyl)amino]-5-[[(1S)-1-[[(1R)-2-[2-(2-chlorophenyl)ethylamino]-2-keto-1-(mercaptomethyl)ethyl]carbamoyl]-3-methyl-butyl]amino]-5-keto-valeric acid
> <PUBCHEM_IUPAC_INCHI>
InChI=1S/C29H38ClN5O7S/c1-16(2)13-23(29(42)35-24(15-43)27(40)32-12-11-17-5-3-4-6-20(17)30)34-28(41)22(9-10-25(37)38)33-26(39)19-14-18(36)7-8-21(19)31/h3-8,14,16,22-24,36,43H,9-13,15,31H2,1-2H3,(H,32,40)(H,33,39)(H,34,41)(H,35,42)(H,37,38)/t22-,23-,24-/m0/s1
> <PUBCHEM_IUPAC_INCHIKEY>
PVDIWMCNFORTNE-HJOGWXRNSA-N
> <PUBCHEM_XLOGP3_AA>
3.3
> <PUBCHEM_EXACT_MASS>
635.2180474
> <PUBCHEM_MOLECULAR_FORMULA>
C29H38ClN5O7S
> <PUBCHEM_MOLECULAR_WEIGHT>
636.2
> <PUBCHEM_OPENEYE_CAN_SMILES>
CC(C)CC(C(=O)NC(CS)C(=O)NCCC1=CC=CC=C1Cl)NC(=O)C(CCC(=O)O)NC(=O)C2=C(C=CC(=C2)O)N
> <PUBCHEM_OPENEYE_ISO_SMILES>
CC(C)C[C@@H](C(=O)N[C@@H](CS)C(=O)NCCC1=CC=CC=C1Cl)NC(=O)[C@H](CCC(=O)O)NC(=O)C2=C(C=CC(=C2)O)N
> <PUBCHEM_CACTVS_TPSA>
201
> <PUBCHEM_MONOISOTOPIC_WEIGHT>
635.2180474
> <PUBCHEM_TOTAL_CHARGE>
0
> <PUBCHEM_HEAVY_ATOM_COUNT>
43
> <PUBCHEM_ATOM_DEF_STEREO_COUNT>
3
> <PUBCHEM_ATOM_UDEF_STEREO_COUNT>
0
> <PUBCHEM_BOND_DEF_STEREO_COUNT>
0
> <PUBCHEM_BOND_UDEF_STEREO_COUNT>
0
> <PUBCHEM_ISOTOPIC_ATOM_COUNT>
0
> <PUBCHEM_COMPONENT_COUNT>
1
> <PUBCHEM_CACTVS_TAUTO_COUNT>
-1
> <PUBCHEM_COORDINATE_TYPE>
1
5
255
> <PUBCHEM_BONDANNOTATIONS>
15  10  6
24  11  6
19  12  5
32  34  8
32  35  8
33  37  8
33  38  8
34  36  8
35  39  8
36  40  8
37  41  8
38  42  8
39  40  8
41  43  8
42  43  8
$$$$
