507451
  -OEChem-10302200282D
 84 84  0     1  0  0  0  0  0999 V2000
    7.1962   -1.0600    0.0000 S   0  0  0  0  0  0  0  0  0  0  0  0
    6.3301   -2.5600    0.0000 O   0  0  0  0  0  0  0  0  0  0  0  0
    6.3301   -1.5600    0.0000 O   0  0  0  0  0  0  0  0  0  0  0  0
    7.1962   -6.0600    0.0000 O   0  0  0  0  0  0  0  0  0  0  0  0
    5.4641    1.9400    0.0000 O   0  0  0  0  0  0  0  0  0  0  0  0
    5.4641   -6.0600    0.0000 O   0  0  0  0  0  0  0  0  0  0  0  0
    8.9282    7.9400    0.0000 O   0  0  0  0  0  0  0  0  0  0  0  0
    7.1962    7.9400    0.0000 O   0  0  0  0  0  0  0  0  0  0  0  0
    4.5981   -2.5600    0.0000 N   0  0  0  0  0  0  0  0  0  0  0  0
    6.3301   -4.5600    0.0000 N   0  0  0  0  0  0  0  0  0  0  0  0
    5.4641   -0.0600    0.0000 N   0  0  0  0  0  0  0  0  0  0  0  0
    7.1962    1.9400    0.0000 N   0  0  0  0  0  0  0  0  0  0  0  0
    4.5981   -1.5600    0.0000 C   0  0  1  0  0  0  0  0  0  0  0  0
    3.7320   -1.0600    0.0000 C   0  0  0  0  0  0  0  0  0  0  0  0
    2.8660   -1.5600    0.0000 C   0  0  0  0  0  0  0  0  0  0  0  0
    5.4641   -4.0600    0.0000 C   0  0  1  0  0  0  0  0  0  0  0  0
    4.5981   -4.5600    0.0000 C   0  0  0  0  0  0  0  0  0  0  0  0
    5.4641   -3.0600    0.0000 C   0  0  0  0  0  0  0  0  0  0  0  0
    5.4641   -1.0600    0.0000 C   0  0  0  0  0  0  0  0  0  0  0  0
    2.0000   -1.0600    0.0000 C   0  0  0  0  0  0  0  0  0  0  0  0
    2.8660   -2.5600    0.0000 C   0  0  0  0  0  0  0  0  0  0  0  0
    4.5981   -5.5600    0.0000 C   0  0  0  0  0  0  0  0  0  0  0  0
    3.7320   -4.0600    0.0000 C   0  0  0  0  0  0  0  0  0  0  0  0
    6.3301    0.4400    0.0000 C   0  0  1  0  0  0  0  0  0  0  0  0
    7.1962   -0.0600    0.0000 C   0  0  0  0  0  0  0  0  0  0  0  0
    6.3301    1.4400    0.0000 C   0  0  0  0  0  0  0  0  0  0  0  0
    6.3301   -5.5600    0.0000 C   0  0  0  0  0  0  0  0  0  0  0  0
    7.1962    2.9400    0.0000 C   0  0  0  0  0  0  0  0  0  0  0  0
    8.0622   -7.5600    0.0000 C   0  0  0  0  0  0  0  0  0  0  0  0
    7.1962   -7.0600    0.0000 C   0  0  0  0  0  0  0  0  0  0  0  0
    8.0622    3.4400    0.0000 C   0  0  0  0  0  0  0  0  0  0  0  0
    8.0622    4.4400    0.0000 C   0  0  0  0  0  0  0  0  0  0  0  0
    8.0622   -8.5600    0.0000 C   0  0  0  0  0  0  0  0  0  0  0  0
    8.9282   -7.0600    0.0000 C   0  0  0  0  0  0  0  0  0  0  0  0
    8.9282    4.9400    0.0000 C   0  0  0  0  0  0  0  0  0  0  0  0
    7.1962    4.9400    0.0000 C   0  0  0  0  0  0  0  0  0  0  0  0
    8.9282    5.9400    0.0000 C   0  0  0  0  0  0  0  0  0  0  0  0
    7.1962    5.9400    0.0000 C   0  0  0  0  0  0  0  0  0  0  0  0
    8.0622    6.4400    0.0000 C   0  0  0  0  0  0  0  0  0  0  0  0
    8.0622    7.4400    0.0000 C   0  0  0  0  0  0  0  0  0  0  0  0
    5.1350   -1.8700    0.0000 H   0  0  0  0  0  0  0  0  0  0  0  0
    4.1306   -0.5851    0.0000 H   0  0  0  0  0  0  0  0  0  0  0  0
    3.3335   -0.5851    0.0000 H   0  0  0  0  0  0  0  0  0  0  0  0
    2.8660   -0.9400    0.0000 H   0  0  0  0  0  0  0  0  0  0  0  0
    5.4641   -4.6800    0.0000 H   0  0  0  0  0  0  0  0  0  0  0  0
    4.5981   -3.9400    0.0000 H   0  0  0  0  0  0  0  0  0  0  0  0
    4.0611   -2.8700    0.0000 H   0  0  0  0  0  0  0  0  0  0  0  0
    2.3100   -0.5231    0.0000 H   0  0  0  0  0  0  0  0  0  0  0  0
    1.4631   -0.7500    0.0000 H   0  0  0  0  0  0  0  0  0  0  0  0
    1.6900   -1.5969    0.0000 H   0  0  0  0  0  0  0  0  0  0  0  0
    2.2460   -2.5600    0.0000 H   0  0  0  0  0  0  0  0  0  0  0  0
    2.8660   -3.1800    0.0000 H   0  0  0  0  0  0  0  0  0  0  0  0
    3.4860   -2.5600    0.0000 H   0  0  0  0  0  0  0  0  0  0  0  0
    3.9781   -5.5600    0.0000 H   0  0  0  0  0  0  0  0  0  0  0  0
    4.5981   -6.1800    0.0000 H   0  0  0  0  0  0  0  0  0  0  0  0
    5.2181   -5.5600    0.0000 H   0  0  0  0  0  0  0  0  0  0  0  0
    4.0420   -3.5231    0.0000 H   0  0  0  0  0  0  0  0  0  0  0  0
    3.1951   -3.7500    0.0000 H   0  0  0  0  0  0  0  0  0  0  0  0
    3.4220   -4.5969    0.0000 H   0  0  0  0  0  0  0  0  0  0  0  0
    6.8671   -4.2500    0.0000 H   0  0  0  0  0  0  0  0  0  0  0  0
    4.9272    0.2500    0.0000 H   0  0  0  0  0  0  0  0  0  0  0  0
    5.7932    0.7500    0.0000 H   0  0  0  0  0  0  0  0  0  0  0  0
    7.8067   -0.1677    0.0000 H   0  0  0  0  0  0  0  0  0  0  0  0
    7.4082    0.5226    0.0000 H   0  0  0  0  0  0  0  0  0  0  0  0
    7.7331    1.6300    0.0000 H   0  0  0  0  0  0  0  0  0  0  0  0
    6.9841    3.5226    0.0000 H   0  0  0  0  0  0  0  0  0  0  0  0
    6.5856    2.8323    0.0000 H   0  0  0  0  0  0  0  0  0  0  0  0
    8.0622   -6.9400    0.0000 H   0  0  0  0  0  0  0  0  0  0  0  0
    6.5856   -6.9523    0.0000 H   0  0  0  0  0  0  0  0  0  0  0  0
    6.9841   -7.6426    0.0000 H   0  0  0  0  0  0  0  0  0  0  0  0
    8.2742    2.8574    0.0000 H   0  0  0  0  0  0  0  0  0  0  0  0
    8.6728    3.5477    0.0000 H   0  0  0  0  0  0  0  0  0  0  0  0
    7.7331   -1.3700    0.0000 H   0  0  0  0  0  0  0  0  0  0  0  0
    7.4422   -8.5600    0.0000 H   0  0  0  0  0  0  0  0  0  0  0  0
    8.0622   -9.1800    0.0000 H   0  0  0  0  0  0  0  0  0  0  0  0
    8.6822   -8.5600    0.0000 H   0  0  0  0  0  0  0  0  0  0  0  0
    9.2382   -7.5969    0.0000 H   0  0  0  0  0  0  0  0  0  0  0  0
    9.4651   -6.7500    0.0000 H   0  0  0  0  0  0  0  0  0  0  0  0
    8.6182   -6.5231    0.0000 H   0  0  0  0  0  0  0  0  0  0  0  0
    9.4651    4.6300    0.0000 H   0  0  0  0  0  0  0  0  0  0  0  0
    6.6592    4.6300    0.0000 H   0  0  0  0  0  0  0  0  0  0  0  0
    9.4651    6.2500    0.0000 H   0  0  0  0  0  0  0  0  0  0  0  0
    6.6592    6.2500    0.0000 H   0  0  0  0  0  0  0  0  0  0  0  0
    8.9282    8.5600    0.0000 H   0  0  0  0  0  0  0  0  0  0  0  0
  1 25  1  0  0  0  0
  1 73  1  0  0  0  0
  2 18  2  0  0  0  0
  3 19  2  0  0  0  0
  4 27  1  0  0  0  0
  4 30  1  0  0  0  0
  5 26  2  0  0  0  0
  6 27  2  0  0  0  0
  7 40  1  0  0  0  0
  7 84  1  0  0  0  0
  8 40  2  0  0  0  0
 13  9  1  1  0  0  0
  9 18  1  0  0  0  0
  9 47  1  0  0  0  0
 16 10  1  1  0  0  0
 10 27  1  0  0  0  0
 10 60  1  0  0  0  0
 11 19  1  0  0  0  0
 24 11  1  6  0  0  0
 11 61  1  0  0  0  0
 12 26  1  0  0  0  0
 12 28  1  0  0  0  0
 12 65  1  0  0  0  0
 13 14  1  0  0  0  0
 13 19  1  0  0  0  0
 13 41  1  0  0  0  0
 14 15  1  0  0  0  0
 14 42  1  0  0  0  0
 14 43  1  0  0  0  0
 15 20  1  0  0  0  0
 15 21  1  0  0  0  0
 15 44  1  0  0  0  0
 16 17  1  0  0  0  0
 16 18  1  0  0  0  0
 16 45  1  0  0  0  0
 17 22  1  0  0  0  0
 17 23  1  0  0  0  0
 17 46  1  0  0  0  0
 20 48  1  0  0  0  0
 20 49  1  0  0  0  0
 20 50  1  0  0  0  0
 21 51  1  0  0  0  0
 21 52  1  0  0  0  0
 21 53  1  0  0  0  0
 22 54  1  0  0  0  0
 22 55  1  0  0  0  0
 22 56  1  0  0  0  0
 23 57  1  0  0  0  0
 23 58  1  0  0  0  0
 23 59  1  0  0  0  0
 24 25  1  0  0  0  0
 24 26  1  0  0  0  0
 24 62  1  0  0  0  0
 25 63  1  0  0  0  0
 25 64  1  0  0  0  0
 28 31  1  0  0  0  0
 28 66  1  0  0  0  0
 28 67  1  0  0  0  0
 29 30  1  0  0  0  0
 29 33  1  0  0  0  0
 29 34  1  0  0  0  0
 29 68  1  0  0  0  0
 30 69  1  0  0  0  0
 30 70  1  0  0  0  0
 31 32  1  0  0  0  0
 31 71  1  0  0  0  0
 31 72  1  0  0  0  0
 32 35  2  0  0  0  0
 32 36  1  0  0  0  0
 33 74  1  0  0  0  0
 33 75  1  0  0  0  0
 33 76  1  0  0  0  0
 34 77  1  0  0  0  0
 34 78  1  0  0  0  0
 34 79  1  0  0  0  0
 35 37  1  0  0  0  0
 35 80  1  0  0  0  0
 36 38  2  0  0  0  0
 36 81  1  0  0  0  0
 37 39  2  0  0  0  0
 37 82  1  0  0  0  0
 38 39  1  0  0  0  0
 38 83  1  0  0  0  0
 39 40  1  0  0  0  0
M  END
> <PUBCHEM_COMPOUND_CID>
507451
> <PUBCHEM_COMPOUND_CANONICALIZED>
1
> <PUBCHEM_CACTVS_COMPLEXITY>
845
> <PUBCHEM_CACTVS_HBOND_ACCEPTOR>
8
> <PUBCHEM_CACTVS_HBOND_DONOR>
6
> <PUBCHEM_CACTVS_ROTATABLE_BOND>
17
> <PUBCHEM_CACTVS_SUBSKEYS>
AAADcfB7uABAAAAAAAAAAAAAAAAAAAAAAAAwAAAAAAAAAAABAAAAHgQQCAAADSjl2AayCILABgSIAiHSGAACAAAkAAAIiIGICMkIZjKAlTGccQAk1gGImYeYyPCOQAAAAAAAAACAAAAAAAAAAAAAAAAAAA==
> <PUBCHEM_IUPAC_OPENEYE_NAME>
4-[2-[[(2R)-2-[[(2S)-2-[[(2S)-2-(isobutoxycarbonylamino)-3-methyl-butanoyl]amino]-4-methyl-pentanoyl]amino]-3-sulfanyl-propanoyl]amino]ethyl]benzoic acid
> <PUBCHEM_IUPAC_CAS_NAME>
4-[2-[[(2R)-3-mercapto-2-[[(2S)-4-methyl-2-[[(2S)-3-methyl-2-[[2-methylpropoxy(oxo)methyl]amino]-1-oxobutyl]amino]-1-oxopentyl]amino]-1-oxopropyl]amino]ethyl]benzoic acid
> <PUBCHEM_IUPAC_NAME_MARKUP>
4-[2-[[(2<I>R</I>)-2-[[(2<I>S</I>)-4-methyl-2-[[(2<I>S</I>)-3-methyl-2-(2-methylpropoxycarbonylamino)butanoyl]amino]pentanoyl]amino]-3-sulfanylpropanoyl]amino]ethyl]benzoic acid
> <PUBCHEM_IUPAC_NAME>
4-[2-[[(2R)-2-[[(2S)-4-methyl-2-[[(2S)-3-methyl-2-(2-methylpropoxycarbonylamino)butanoyl]amino]pentanoyl]amino]-3-sulfanylpropanoyl]amino]ethyl]benzoic acid
> <PUBCHEM_IUPAC_SYSTEMATIC_NAME>
4-[2-[[(2R)-2-[[(2S)-4-methyl-2-[[(2S)-3-methyl-2-(2-methylpropoxycarbonylamino)butanoyl]amino]pentanoyl]amino]-3-sulfanyl-propanoyl]amino]ethyl]benzoic acid
> <PUBCHEM_IUPAC_TRADITIONAL_NAME>
4-[2-[[(2R)-2-[[(2S)-2-[[(2S)-2-(isobutoxycarbonylamino)-3-methyl-butanoyl]amino]-4-methyl-pentanoyl]amino]-3-mercapto-propanoyl]amino]ethyl]benzoic acid
> <PUBCHEM_IUPAC_INCHI>
InChI=1S/C28H44N4O7S/c1-16(2)13-21(30-26(35)23(18(5)6)32-28(38)39-14-17(3)4)25(34)31-22(15-40)24(33)29-12-11-19-7-9-20(10-8-19)27(36)37/h7-10,16-18,21-23,40H,11-15H2,1-6H3,(H,29,33)(H,30,35)(H,31,34)(H,32,38)(H,36,37)/t21-,22-,23-/m0/s1
> <PUBCHEM_IUPAC_INCHIKEY>
DXNUVQWAUDWRRZ-VABKMULXSA-N
> <PUBCHEM_XLOGP3_AA>
4.2
> <PUBCHEM_EXACT_MASS>
580.29307093
> <PUBCHEM_MOLECULAR_FORMULA>
C28H44N4O7S
> <PUBCHEM_MOLECULAR_WEIGHT>
580.7
> <PUBCHEM_OPENEYE_CAN_SMILES>
CC(C)CC(C(=O)NC(CS)C(=O)NCCC1=CC=C(C=C1)C(=O)O)NC(=O)C(C(C)C)NC(=O)OCC(C)C
> <PUBCHEM_OPENEYE_ISO_SMILES>
CC(C)C[C@@H](C(=O)N[C@@H](CS)C(=O)NCCC1=CC=C(C=C1)C(=O)O)NC(=O)[C@H](C(C)C)NC(=O)OCC(C)C
> <PUBCHEM_CACTVS_TPSA>
164
> <PUBCHEM_MONOISOTOPIC_WEIGHT>
580.29307093
> <PUBCHEM_TOTAL_CHARGE>
0
> <PUBCHEM_HEAVY_ATOM_COUNT>
40
> <PUBCHEM_ATOM_DEF_STEREO_COUNT>
3
> <PUBCHEM_ATOM_UDEF_STEREO_COUNT>
0
> <PUBCHEM_BOND_DEF_STEREO_COUNT>
0
> <PUBCHEM_BOND_UDEF_STEREO_COUNT>
0
> <PUBCHEM_ISOTOPIC_ATOM_COUNT>
0
> <PUBCHEM_COMPONENT_COUNT>
1
> <PUBCHEM_CACTVS_TAUTO_COUNT>
-1
> <PUBCHEM_COORDINATE_TYPE>
1
5
255
> <PUBCHEM_BONDANNOTATIONS>
16  10  5
24  11  6
32  35  8
32  36  8
35  37  8
36  38  8
37  39  8
38  39  8
13  9  5
$$$$
