507435
  -OEChem-10302200282D
 40 43  0     1  0  0  0  0  0999 V2000
    5.8055    1.4698    0.0000 O   0  0  0  0  0  0  0  0  0  0  0  0
    7.3452    1.9672    0.0000 O   0  0  0  0  0  0  0  0  0  0  0  0
    6.7577    3.9714    0.0000 O   0  0  0  0  0  0  0  0  0  0  0  0
    4.2690   -3.0955    0.0000 N   0  0  0  0  0  0  0  0  0  0  0  0
    6.0812   -0.2907    0.0000 N   0  0  0  0  0  0  0  0  0  0  0  0
    6.0812   -1.9002    0.0000 N   0  0  0  0  0  0  0  0  0  0  0  0
    3.4030   -1.5955    0.0000 N   0  0  0  0  0  0  0  0  0  0  0  0
    4.2690   -0.0955    0.0000 N   0  0  0  0  0  0  0  0  0  0  0  0
    2.5369   -0.0955    0.0000 N   0  0  0  0  0  0  0  0  0  0  0  0
    3.4030   -3.5955    0.0000 C   0  0  0  0  0  0  0  0  0  0  0  0
    2.4370   -3.3366    0.0000 C   0  0  0  0  0  0  0  0  0  0  0  0
    3.1441   -4.5614    0.0000 C   0  0  0  0  0  0  0  0  0  0  0  0
    2.1782   -4.3026    0.0000 C   0  0  0  0  0  0  0  0  0  0  0  0
    6.3919    0.6598    0.0000 C   0  0  1  0  0  0  0  0  0  0  0  0
    4.2690   -2.0955    0.0000 C   0  0  0  0  0  0  0  0  0  0  0  0
    5.1350   -1.5955    0.0000 C   0  0  0  0  0  0  0  0  0  0  0  0
    7.3435    0.9672    0.0000 C   0  0  0  0  0  0  0  0  0  0  0  0
    5.1350   -0.5955    0.0000 C   0  0  0  0  0  0  0  0  0  0  0  0
    6.3947    2.2778    0.0000 C   0  0  1  0  0  0  0  0  0  0  0  0
    6.6648   -1.0955    0.0000 C   0  0  0  0  0  0  0  0  0  0  0  0
    6.0873    3.2294    0.0000 C   0  0  0  0  0  0  0  0  0  0  0  0
    3.4030   -0.5955    0.0000 C   0  0  0  0  0  0  0  0  0  0  0  0
    3.8948   -3.9729    0.0000 H   0  0  0  0  0  0  0  0  0  0  0  0
    2.5975   -2.7378    0.0000 H   0  0  0  0  0  0  0  0  0  0  0  0
    1.8382   -3.1762    0.0000 H   0  0  0  0  0  0  0  0  0  0  0  0
    2.9837   -5.1603    0.0000 H   0  0  0  0  0  0  0  0  0  0  0  0
    3.7430   -4.7218    0.0000 H   0  0  0  0  0  0  0  0  0  0  0  0
    1.5793   -4.1421    0.0000 H   0  0  0  0  0  0  0  0  0  0  0  0
    2.0178   -4.9014    0.0000 H   0  0  0  0  0  0  0  0  0  0  0  0
    4.8059   -3.4055    0.0000 H   0  0  0  0  0  0  0  0  0  0  0  0
    5.7794    0.5639    0.0000 H   0  0  0  0  0  0  0  0  0  0  0  0
    7.4713    0.3605    0.0000 H   0  0  0  0  0  0  0  0  0  0  0  0
    7.9602    1.0309    0.0000 H   0  0  0  0  0  0  0  0  0  0  0  0
    5.7825    2.3759    0.0000 H   0  0  0  0  0  0  0  0  0  0  0  0
    7.2848   -1.0955    0.0000 H   0  0  0  0  0  0  0  0  0  0  0  0
    5.7065    3.7186    0.0000 H   0  0  0  0  0  0  0  0  0  0  0  0
    5.5394    2.9393    0.0000 H   0  0  0  0  0  0  0  0  0  0  0  0
    6.5672    4.5614    0.0000 H   0  0  0  0  0  0  0  0  0  0  0  0
    2.0000   -0.4055    0.0000 H   0  0  0  0  0  0  0  0  0  0  0  0
    2.5369    0.5245    0.0000 H   0  0  0  0  0  0  0  0  0  0  0  0
  1 14  1  0  0  0  0
  1 19  1  0  0  0  0
  2 17  1  0  0  0  0
  2 19  1  0  0  0  0
  3 21  1  0  0  0  0
  3 38  1  0  0  0  0
  4 10  1  0  0  0  0
  4 15  1  0  0  0  0
  4 30  1  0  0  0  0
 14  5  1  6  0  0  0
  5 18  1  0  0  0  0
  5 20  1  0  0  0  0
  6 16  1  0  0  0  0
  6 20  2  0  0  0  0
  7 15  1  0  0  0  0
  7 22  2  0  0  0  0
  8 18  2  0  0  0  0
  8 22  1  0  0  0  0
  9 22  1  0  0  0  0
  9 39  1  0  0  0  0
  9 40  1  0  0  0  0
 10 11  1  0  0  0  0
 10 12  1  0  0  0  0
 10 23  1  0  0  0  0
 11 13  1  0  0  0  0
 11 24  1  0  0  0  0
 11 25  1  0  0  0  0
 12 13  1  0  0  0  0
 12 26  1  0  0  0  0
 12 27  1  0  0  0  0
 13 28  1  0  0  0  0
 13 29  1  0  0  0  0
 14 17  1  0  0  0  0
 14 31  1  0  0  0  0
 15 16  2  0  0  0  0
 16 18  1  0  0  0  0
 17 32  1  0  0  0  0
 17 33  1  0  0  0  0
 19 21  1  6  0  0  0
 19 34  1  0  0  0  0
 20 35  1  0  0  0  0
 21 36  1  0  0  0  0
 21 37  1  0  0  0  0
M  END
> <PUBCHEM_COMPOUND_CID>
507435
> <PUBCHEM_COMPOUND_CANONICALIZED>
1
> <PUBCHEM_CACTVS_COMPLEXITY>
398
> <PUBCHEM_CACTVS_HBOND_ACCEPTOR>
8
> <PUBCHEM_CACTVS_HBOND_DONOR>
3
> <PUBCHEM_CACTVS_ROTATABLE_BOND>
4
> <PUBCHEM_CACTVS_SUBSKEYS>
AAADceBzsAAAAAAAAAAAAAAAAABgAWJAAAAsAAAAAAAAAFgB+AAAHgAQCAAACCjxlwcF+L/MFgCgAQZhZACAgC0REKABUKAoVBCTWABAyEA/BAgIEALXACAAAAAAAAAAAAAAAAAAAAAAAAAAAAAAAAAAAA==
> <PUBCHEM_IUPAC_OPENEYE_NAME>
[(2R,4R)-4-[2-amino-6-(cyclobutylamino)purin-9-yl]-1,3-dioxolan-2-yl]methanol
> <PUBCHEM_IUPAC_CAS_NAME>
[(2R,4R)-4-[2-amino-6-(cyclobutylamino)-9-purinyl]-1,3-dioxolan-2-yl]methanol
> <PUBCHEM_IUPAC_NAME_MARKUP>
[(2<I>R</I>,4<I>R</I>)-4-[2-amino-6-(cyclobutylamino)purin-9-yl]-1,3-dioxolan-2-yl]methanol
> <PUBCHEM_IUPAC_NAME>
[(2R,4R)-4-[2-amino-6-(cyclobutylamino)purin-9-yl]-1,3-dioxolan-2-yl]methanol
> <PUBCHEM_IUPAC_SYSTEMATIC_NAME>
[(2R,4R)-4-[2-azanyl-6-(cyclobutylamino)purin-9-yl]-1,3-dioxolan-2-yl]methanol
> <PUBCHEM_IUPAC_TRADITIONAL_NAME>
[(2R,4R)-4-[2-amino-6-(cyclobutylamino)purin-9-yl]-1,3-dioxolan-2-yl]methanol
> <PUBCHEM_IUPAC_INCHI>
InChI=1S/C13H18N6O3/c14-13-17-11(16-7-2-1-3-7)10-12(18-13)19(6-15-10)8-5-21-9(4-20)22-8/h6-9,20H,1-5H2,(H3,14,16,17,18)/t8-,9-/m1/s1
> <PUBCHEM_IUPAC_INCHIKEY>
ASODDDMBNNCHFM-RKDXNWHRSA-N
> <PUBCHEM_XLOGP3_AA>
0
> <PUBCHEM_EXACT_MASS>
306.14403846
> <PUBCHEM_MOLECULAR_FORMULA>
C13H18N6O3
> <PUBCHEM_MOLECULAR_WEIGHT>
306.32
> <PUBCHEM_OPENEYE_CAN_SMILES>
C1CC(C1)NC2=C3C(=NC(=N2)N)N(C=N3)C4COC(O4)CO
> <PUBCHEM_OPENEYE_ISO_SMILES>
C1CC(C1)NC2=C3C(=NC(=N2)N)N(C=N3)[C@H]4CO[C@H](O4)CO
> <PUBCHEM_CACTVS_TPSA>
120
> <PUBCHEM_MONOISOTOPIC_WEIGHT>
306.14403846
> <PUBCHEM_TOTAL_CHARGE>
0
> <PUBCHEM_HEAVY_ATOM_COUNT>
22
> <PUBCHEM_ATOM_DEF_STEREO_COUNT>
2
> <PUBCHEM_ATOM_UDEF_STEREO_COUNT>
0
> <PUBCHEM_BOND_DEF_STEREO_COUNT>
0
> <PUBCHEM_BOND_UDEF_STEREO_COUNT>
0
> <PUBCHEM_ISOTOPIC_ATOM_COUNT>
0
> <PUBCHEM_COMPONENT_COUNT>
1
> <PUBCHEM_CACTVS_TAUTO_COUNT>
-1
> <PUBCHEM_COORDINATE_TYPE>
1
5
255
> <PUBCHEM_BONDANNOTATIONS>
15  16  8
16  18  8
19  21  6
14  5  6
5  18  8
5  20  8
6  16  8
6  20  8
7  15  8
7  22  8
8  18  8
8  22  8
$$$$
