507479
  -OEChem-10302200282D
 88 89  0     1  0  0  0  0  0999 V2000
    2.0000    4.5412    0.0000 Cl  0  0  0  0  0  0  0  0  0  0  0  0
    4.5981   -0.9588    0.0000 S   0  0  0  0  0  0  0  0  0  0  0  0
    4.5981   -5.9588    0.0000 O   0  0  0  0  0  0  0  0  0  0  0  0
    6.3301   -5.9588    0.0000 O   0  0  0  0  0  0  0  0  0  0  0  0
    5.4641   -2.4588    0.0000 O   0  0  0  0  0  0  0  0  0  0  0  0
    5.4641   -1.4588    0.0000 O   0  0  0  0  0  0  0  0  0  0  0  0
    6.3301    2.0412    0.0000 O   0  0  0  0  0  0  0  0  0  0  0  0
    4.5981    8.0412    0.0000 O   0  0  0  0  0  0  0  0  0  0  0  0
    2.8660    8.0412    0.0000 O   0  0  0  0  0  0  0  0  0  0  0  0
    5.4641   -4.4588    0.0000 N   0  0  0  0  0  0  0  0  0  0  0  0
    7.1962   -2.4588    0.0000 N   0  0  0  0  0  0  0  0  0  0  0  0
    6.3301    0.0412    0.0000 N   0  0  0  0  0  0  0  0  0  0  0  0
    4.5981    2.0412    0.0000 N   0  0  0  0  0  0  0  0  0  0  0  0
    3.7320   -7.4588    0.0000 C   0  0  0  0  0  0  0  0  0  0  0  0
    3.6275   -8.4533    0.0000 C   0  0  0  0  0  0  0  0  0  0  0  0
    2.8185   -7.0520    0.0000 C   0  0  0  0  0  0  0  0  0  0  0  0
    2.6494   -8.6612    0.0000 C   0  0  0  0  0  0  0  0  0  0  0  0
    2.1494   -7.7952    0.0000 C   0  0  0  0  0  0  0  0  0  0  0  0
    4.5981   -6.9588    0.0000 C   0  0  0  0  0  0  0  0  0  0  0  0
    6.3301   -3.9588    0.0000 C   0  0  1  0  0  0  0  0  0  0  0  0
    7.1962   -4.4588    0.0000 C   0  0  0  0  0  0  0  0  0  0  0  0
    5.4641   -5.4588    0.0000 C   0  0  0  0  0  0  0  0  0  0  0  0
    7.1962   -1.4588    0.0000 C   0  0  1  0  0  0  0  0  0  0  0  0
    8.0622   -0.9588    0.0000 C   0  0  0  0  0  0  0  0  0  0  0  0
    8.9282   -1.4588    0.0000 C   0  0  0  0  0  0  0  0  0  0  0  0
    6.3301   -2.9588    0.0000 C   0  0  0  0  0  0  0  0  0  0  0  0
    7.1962   -5.4588    0.0000 C   0  0  0  0  0  0  0  0  0  0  0  0
    8.0622   -3.9588    0.0000 C   0  0  0  0  0  0  0  0  0  0  0  0
    6.3301   -0.9588    0.0000 C   0  0  0  0  0  0  0  0  0  0  0  0
    9.7942   -0.9588    0.0000 C   0  0  0  0  0  0  0  0  0  0  0  0
    8.9282   -2.4588    0.0000 C   0  0  0  0  0  0  0  0  0  0  0  0
    5.4641    0.5412    0.0000 C   0  0  1  0  0  0  0  0  0  0  0  0
    4.5981    0.0412    0.0000 C   0  0  0  0  0  0  0  0  0  0  0  0
    5.4641    1.5412    0.0000 C   0  0  0  0  0  0  0  0  0  0  0  0
    4.5981    3.0412    0.0000 C   0  0  0  0  0  0  0  0  0  0  0  0
    3.7320    3.5412    0.0000 C   0  0  0  0  0  0  0  0  0  0  0  0
    3.7320    4.5412    0.0000 C   0  0  0  0  0  0  0  0  0  0  0  0
    2.8660    5.0412    0.0000 C   0  0  0  0  0  0  0  0  0  0  0  0
    4.5981    5.0412    0.0000 C   0  0  0  0  0  0  0  0  0  0  0  0
    2.8660    6.0412    0.0000 C   0  0  0  0  0  0  0  0  0  0  0  0
    4.5981    6.0412    0.0000 C   0  0  0  0  0  0  0  0  0  0  0  0
    3.7320    6.5412    0.0000 C   0  0  0  0  0  0  0  0  0  0  0  0
    3.7320    7.5412    0.0000 C   0  0  0  0  0  0  0  0  0  0  0  0
    3.6996   -6.8396    0.0000 H   0  0  0  0  0  0  0  0  0  0  0  0
    3.6923   -9.0699    0.0000 H   0  0  0  0  0  0  0  0  0  0  0  0
    4.2475   -8.4533    0.0000 H   0  0  0  0  0  0  0  0  0  0  0  0
    3.1285   -6.5151    0.0000 H   0  0  0  0  0  0  0  0  0  0  0  0
    2.3169   -6.6876    0.0000 H   0  0  0  0  0  0  0  0  0  0  0  0
    2.0830   -8.9134    0.0000 H   0  0  0  0  0  0  0  0  0  0  0  0
    2.8410   -9.2509    0.0000 H   0  0  0  0  0  0  0  0  0  0  0  0
    1.7345   -7.3344    0.0000 H   0  0  0  0  0  0  0  0  0  0  0  0
    1.6478   -8.1596    0.0000 H   0  0  0  0  0  0  0  0  0  0  0  0
    4.8101   -7.5414    0.0000 H   0  0  0  0  0  0  0  0  0  0  0  0
    5.2087   -6.8511    0.0000 H   0  0  0  0  0  0  0  0  0  0  0  0
    5.7932   -3.6488    0.0000 H   0  0  0  0  0  0  0  0  0  0  0  0
    6.6592   -4.7688    0.0000 H   0  0  0  0  0  0  0  0  0  0  0  0
    6.6592   -1.7688    0.0000 H   0  0  0  0  0  0  0  0  0  0  0  0
    8.4607   -0.4838    0.0000 H   0  0  0  0  0  0  0  0  0  0  0  0
    7.6636   -0.4838    0.0000 H   0  0  0  0  0  0  0  0  0  0  0  0
    4.9272   -4.1488    0.0000 H   0  0  0  0  0  0  0  0  0  0  0  0
    9.4651   -1.7688    0.0000 H   0  0  0  0  0  0  0  0  0  0  0  0
    7.7331   -2.7688    0.0000 H   0  0  0  0  0  0  0  0  0  0  0  0
    6.5762   -5.4588    0.0000 H   0  0  0  0  0  0  0  0  0  0  0  0
    7.1962   -6.0788    0.0000 H   0  0  0  0  0  0  0  0  0  0  0  0
    7.8162   -5.4588    0.0000 H   0  0  0  0  0  0  0  0  0  0  0  0
    8.3722   -4.4957    0.0000 H   0  0  0  0  0  0  0  0  0  0  0  0
    8.5991   -3.6488    0.0000 H   0  0  0  0  0  0  0  0  0  0  0  0
    7.7522   -3.4218    0.0000 H   0  0  0  0  0  0  0  0  0  0  0  0
   10.1042   -1.4957    0.0000 H   0  0  0  0  0  0  0  0  0  0  0  0
   10.3312   -0.6488    0.0000 H   0  0  0  0  0  0  0  0  0  0  0  0
    9.4842   -0.4218    0.0000 H   0  0  0  0  0  0  0  0  0  0  0  0
    8.3082   -2.4588    0.0000 H   0  0  0  0  0  0  0  0  0  0  0  0
    8.9282   -3.0788    0.0000 H   0  0  0  0  0  0  0  0  0  0  0  0
    9.5482   -2.4588    0.0000 H   0  0  0  0  0  0  0  0  0  0  0  0
    6.8671    0.3512    0.0000 H   0  0  0  0  0  0  0  0  0  0  0  0
    5.4641   -0.0788    0.0000 H   0  0  0  0  0  0  0  0  0  0  0  0
    4.3860    0.6238    0.0000 H   0  0  0  0  0  0  0  0  0  0  0  0
    3.9875   -0.0664    0.0000 H   0  0  0  0  0  0  0  0  0  0  0  0
    4.0611    1.7312    0.0000 H   0  0  0  0  0  0  0  0  0  0  0  0
    5.2087    2.9336    0.0000 H   0  0  0  0  0  0  0  0  0  0  0  0
    4.8101    3.6238    0.0000 H   0  0  0  0  0  0  0  0  0  0  0  0
    3.1215    3.6489    0.0000 H   0  0  0  0  0  0  0  0  0  0  0  0
    3.5200    2.9586    0.0000 H   0  0  0  0  0  0  0  0  0  0  0  0
    4.0611   -1.2688    0.0000 H   0  0  0  0  0  0  0  0  0  0  0  0
    5.1350    4.7312    0.0000 H   0  0  0  0  0  0  0  0  0  0  0  0
    2.3291    6.3512    0.0000 H   0  0  0  0  0  0  0  0  0  0  0  0
    5.1350    6.3512    0.0000 H   0  0  0  0  0  0  0  0  0  0  0  0
    4.5981    8.6612    0.0000 H   0  0  0  0  0  0  0  0  0  0  0  0
  1 38  1  0  0  0  0
  2 33  1  0  0  0  0
  2 84  1  0  0  0  0
  3 19  1  0  0  0  0
  3 22  1  0  0  0  0
  4 22  2  0  0  0  0
  5 26  2  0  0  0  0
  6 29  2  0  0  0  0
  7 34  2  0  0  0  0
  8 43  1  0  0  0  0
  8 88  1  0  0  0  0
  9 43  2  0  0  0  0
 20 10  1  6  0  0  0
 10 22  1  0  0  0  0
 10 60  1  0  0  0  0
 23 11  1  6  0  0  0
 11 26  1  0  0  0  0
 11 62  1  0  0  0  0
 12 29  1  0  0  0  0
 32 12  1  1  0  0  0
 12 75  1  0  0  0  0
 13 34  1  0  0  0  0
 13 35  1  0  0  0  0
 13 79  1  0  0  0  0
 14 15  1  0  0  0  0
 14 16  1  0  0  0  0
 14 19  1  0  0  0  0
 14 44  1  0  0  0  0
 15 17  1  0  0  0  0
 15 45  1  0  0  0  0
 15 46  1  0  0  0  0
 16 18  1  0  0  0  0
 16 47  1  0  0  0  0
 16 48  1  0  0  0  0
 17 18  1  0  0  0  0
 17 49  1  0  0  0  0
 17 50  1  0  0  0  0
 18 51  1  0  0  0  0
 18 52  1  0  0  0  0
 19 53  1  0  0  0  0
 19 54  1  0  0  0  0
 20 21  1  0  0  0  0
 20 26  1  0  0  0  0
 20 55  1  0  0  0  0
 21 27  1  0  0  0  0
 21 28  1  0  0  0  0
 21 56  1  0  0  0  0
 23 24  1  0  0  0  0
 23 29  1  0  0  0  0
 23 57  1  0  0  0  0
 24 25  1  0  0  0  0
 24 58  1  0  0  0  0
 24 59  1  0  0  0  0
 25 30  1  0  0  0  0
 25 31  1  0  0  0  0
 25 61  1  0  0  0  0
 27 63  1  0  0  0  0
 27 64  1  0  0  0  0
 27 65  1  0  0  0  0
 28 66  1  0  0  0  0
 28 67  1  0  0  0  0
 28 68  1  0  0  0  0
 30 69  1  0  0  0  0
 30 70  1  0  0  0  0
 30 71  1  0  0  0  0
 31 72  1  0  0  0  0
 31 73  1  0  0  0  0
 31 74  1  0  0  0  0
 32 33  1  0  0  0  0
 32 34  1  0  0  0  0
 32 76  1  0  0  0  0
 33 77  1  0  0  0  0
 33 78  1  0  0  0  0
 35 36  1  0  0  0  0
 35 80  1  0  0  0  0
 35 81  1  0  0  0  0
 36 37  1  0  0  0  0
 36 82  1  0  0  0  0
 36 83  1  0  0  0  0
 37 38  2  0  0  0  0
 37 39  1  0  0  0  0
 38 40  1  0  0  0  0
 39 41  2  0  0  0  0
 39 85  1  0  0  0  0
 40 42  2  0  0  0  0
 40 86  1  0  0  0  0
 41 42  1  0  0  0  0
 41 87  1  0  0  0  0
 42 43  1  0  0  0  0
M  END
> <PUBCHEM_COMPOUND_CID>
507479
> <PUBCHEM_COMPOUND_CANONICALIZED>
1
> <PUBCHEM_CACTVS_COMPLEXITY>
948
> <PUBCHEM_CACTVS_HBOND_ACCEPTOR>
8
> <PUBCHEM_CACTVS_HBOND_DONOR>
6
> <PUBCHEM_CACTVS_ROTATABLE_BOND>
17
> <PUBCHEM_CACTVS_SUBSKEYS>
AAADcfB7uABEAAAAAAAAAAAAAAAAAYAAAAAwAAAAAAAAAAABAAAAHgYQCAAADSrl2CayCILABgSIAiHSGAACAAAkBQAIiIGICskIZjKBlzGccQAk1gGImYeYyPCOQAAAIAABAACAAABAAAIAAAAAAAAAAA==
> <PUBCHEM_IUPAC_OPENEYE_NAME>
3-chloro-4-[2-[[(2R)-2-[[(2S)-2-[[(2S)-2-(cyclopentylmethoxycarbonylamino)-3-methyl-butanoyl]amino]-4-methyl-pentanoyl]amino]-3-sulfanyl-propanoyl]amino]ethyl]benzoic acid
> <PUBCHEM_IUPAC_CAS_NAME>
3-chloro-4-[2-[[(2R)-2-[[(2S)-2-[[(2S)-2-[[cyclopentylmethoxy(oxo)methyl]amino]-3-methyl-1-oxobutyl]amino]-4-methyl-1-oxopentyl]amino]-3-mercapto-1-oxopropyl]amino]ethyl]benzoic acid
> <PUBCHEM_IUPAC_NAME_MARKUP>
3-chloro-4-[2-[[(2<I>R</I>)-2-[[(2<I>S</I>)-2-[[(2<I>S</I>)-2-(cyclopentylmethoxycarbonylamino)-3-methylbutanoyl]amino]-4-methylpentanoyl]amino]-3-sulfanylpropanoyl]amino]ethyl]benzoic acid
> <PUBCHEM_IUPAC_NAME>
3-chloro-4-[2-[[(2R)-2-[[(2S)-2-[[(2S)-2-(cyclopentylmethoxycarbonylamino)-3-methylbutanoyl]amino]-4-methylpentanoyl]amino]-3-sulfanylpropanoyl]amino]ethyl]benzoic acid
> <PUBCHEM_IUPAC_SYSTEMATIC_NAME>
3-chloranyl-4-[2-[[(2R)-2-[[(2S)-2-[[(2S)-2-(cyclopentylmethoxycarbonylamino)-3-methyl-butanoyl]amino]-4-methyl-pentanoyl]amino]-3-sulfanyl-propanoyl]amino]ethyl]benzoic acid
> <PUBCHEM_IUPAC_TRADITIONAL_NAME>
3-chloro-4-[2-[[(2R)-2-[[(2S)-2-[[(2S)-2-(cyclopentylmethoxycarbonylamino)-3-methyl-butanoyl]amino]-4-methyl-pentanoyl]amino]-3-mercapto-propanoyl]amino]ethyl]benzoic acid
> <PUBCHEM_IUPAC_INCHI>
InChI=1S/C30H45ClN4O7S/c1-17(2)13-23(33-28(38)25(18(3)4)35-30(41)42-15-19-7-5-6-8-19)27(37)34-24(16-43)26(36)32-12-11-20-9-10-21(29(39)40)14-22(20)31/h9-10,14,17-19,23-25,43H,5-8,11-13,15-16H2,1-4H3,(H,32,36)(H,33,38)(H,34,37)(H,35,41)(H,39,40)/t23-,24-,25-/m0/s1
> <PUBCHEM_IUPAC_INCHIKEY>
GKMRESLRMGRMLK-SDHOMARFSA-N
> <PUBCHEM_XLOGP3_AA>
5.3
> <PUBCHEM_EXACT_MASS>
640.2697487
> <PUBCHEM_MOLECULAR_FORMULA>
C30H45ClN4O7S
> <PUBCHEM_MOLECULAR_WEIGHT>
641.2
> <PUBCHEM_OPENEYE_CAN_SMILES>
CC(C)CC(C(=O)NC(CS)C(=O)NCCC1=C(C=C(C=C1)C(=O)O)Cl)NC(=O)C(C(C)C)NC(=O)OCC2CCCC2
> <PUBCHEM_OPENEYE_ISO_SMILES>
CC(C)C[C@@H](C(=O)N[C@@H](CS)C(=O)NCCC1=C(C=C(C=C1)C(=O)O)Cl)NC(=O)[C@H](C(C)C)NC(=O)OCC2CCCC2
> <PUBCHEM_CACTVS_TPSA>
164
> <PUBCHEM_MONOISOTOPIC_WEIGHT>
640.2697487
> <PUBCHEM_TOTAL_CHARGE>
0
> <PUBCHEM_HEAVY_ATOM_COUNT>
43
> <PUBCHEM_ATOM_DEF_STEREO_COUNT>
3
> <PUBCHEM_ATOM_UDEF_STEREO_COUNT>
0
> <PUBCHEM_BOND_DEF_STEREO_COUNT>
0
> <PUBCHEM_BOND_UDEF_STEREO_COUNT>
0
> <PUBCHEM_ISOTOPIC_ATOM_COUNT>
0
> <PUBCHEM_COMPONENT_COUNT>
1
> <PUBCHEM_CACTVS_TAUTO_COUNT>
-1
> <PUBCHEM_COORDINATE_TYPE>
1
5
255
> <PUBCHEM_BONDANNOTATIONS>
20  10  6
23  11  6
32  12  5
37  38  8
37  39  8
38  40  8
39  41  8
40  42  8
41  42  8
$$$$
