507423
  -OEChem-10302200282D
 88 88  0     1  0  0  0  0  0999 V2000
    6.3301    0.0000    0.0000 S   0  0  0  0  0  0  0  0  0  0  0  0
    7.1962    0.5000    0.0000 O   0  0  0  0  0  0  0  0  0  0  0  0
    7.1962    1.5000    0.0000 O   0  0  0  0  0  0  0  0  0  0  0  0
    6.3301    5.0000    0.0000 O   0  0  0  0  0  0  0  0  0  0  0  0
    8.0622   -3.0000    0.0000 O   0  0  0  0  0  0  0  0  0  0  0  0
    9.7942    6.0000    0.0000 O   0  0  0  0  0  0  0  0  0  0  0  0
    8.0622    5.0000    0.0000 O   0  0  0  0  0  0  0  0  0  0  0  0
   10.6603    4.5000    0.0000 O   0  0  0  0  0  0  0  0  0  0  0  0
    3.7320   -5.5000    0.0000 O   0  0  0  0  0  0  0  0  0  0  0  0
    8.9282    1.5000    0.0000 N   0  0  0  0  0  0  0  0  0  0  0  0
    8.0622   -1.0000    0.0000 N   0  0  0  0  0  0  0  0  0  0  0  0
    7.1962    3.5000    0.0000 N   0  0  0  0  0  0  0  0  0  0  0  0
    6.3301   -3.0000    0.0000 N   0  0  0  0  0  0  0  0  0  0  0  0
    9.7942    0.0000    0.0000 C   0  0  0  0  0  0  0  0  0  0  0  0
    8.9282    0.5000    0.0000 C   0  0  1  0  0  0  0  0  0  0  0  0
   10.6603    0.5000    0.0000 C   0  0  0  0  0  0  0  0  0  0  0  0
    8.0622    0.0000    0.0000 C   0  0  0  0  0  0  0  0  0  0  0  0
    8.0622    3.0000    0.0000 C   0  0  2  0  0  0  0  0  0  0  0  0
   11.5263    0.0000    0.0000 C   0  0  0  0  0  0  0  0  0  0  0  0
   10.6603    1.5000    0.0000 C   0  0  0  0  0  0  0  0  0  0  0  0
    8.0622    2.0000    0.0000 C   0  0  0  0  0  0  0  0  0  0  0  0
    8.9282    3.5000    0.0000 C   0  0  0  0  0  0  0  0  0  0  0  0
    7.1962   -1.5000    0.0000 C   0  0  1  0  0  0  0  0  0  0  0  0
    8.9282    4.5000    0.0000 C   0  0  0  0  0  0  0  0  0  0  0  0
    6.3301   -1.0000    0.0000 C   0  0  0  0  0  0  0  0  0  0  0  0
    7.1962   -2.5000    0.0000 C   0  0  0  0  0  0  0  0  0  0  0  0
    6.3301   -4.0000    0.0000 C   0  0  0  0  0  0  0  0  0  0  0  0
    7.1962    4.5000    0.0000 C   0  0  0  0  0  0  0  0  0  0  0  0
    5.4641   -4.5000    0.0000 C   0  0  0  0  0  0  0  0  0  0  0  0
    9.7942    5.0000    0.0000 C   0  0  0  0  0  0  0  0  0  0  0  0
    5.4641    6.5000    0.0000 C   0  0  0  0  0  0  0  0  0  0  0  0
    6.3301    6.0000    0.0000 C   0  0  0  0  0  0  0  0  0  0  0  0
    5.4641   -5.5000    0.0000 C   0  0  0  0  0  0  0  0  0  0  0  0
    5.4641    7.5000    0.0000 C   0  0  0  0  0  0  0  0  0  0  0  0
    4.5981    6.0000    0.0000 C   0  0  0  0  0  0  0  0  0  0  0  0
    4.5981   -6.0000    0.0000 C   0  0  0  0  0  0  0  0  0  0  0  0
    6.3301   -6.0000    0.0000 C   0  0  0  0  0  0  0  0  0  0  0  0
    4.5981   -7.0000    0.0000 C   0  0  0  0  0  0  0  0  0  0  0  0
    6.3301   -7.0000    0.0000 C   0  0  0  0  0  0  0  0  0  0  0  0
    5.4641   -7.5000    0.0000 C   0  0  0  0  0  0  0  0  0  0  0  0
    2.8660   -6.0000    0.0000 C   0  0  0  0  0  0  0  0  0  0  0  0
    2.0000   -5.5000    0.0000 C   0  0  0  0  0  0  0  0  0  0  0  0
    9.3957   -0.4749    0.0000 H   0  0  0  0  0  0  0  0  0  0  0  0
   10.1928   -0.4749    0.0000 H   0  0  0  0  0  0  0  0  0  0  0  0
    9.4651    0.8100    0.0000 H   0  0  0  0  0  0  0  0  0  0  0  0
   11.1972    0.8100    0.0000 H   0  0  0  0  0  0  0  0  0  0  0  0
    9.4651    1.8100    0.0000 H   0  0  0  0  0  0  0  0  0  0  0  0
    8.0622    3.6200    0.0000 H   0  0  0  0  0  0  0  0  0  0  0  0
   11.2163   -0.5369    0.0000 H   0  0  0  0  0  0  0  0  0  0  0  0
   12.0632   -0.3100    0.0000 H   0  0  0  0  0  0  0  0  0  0  0  0
   11.8363    0.5369    0.0000 H   0  0  0  0  0  0  0  0  0  0  0  0
   11.2803    1.5000    0.0000 H   0  0  0  0  0  0  0  0  0  0  0  0
   10.6603    2.1200    0.0000 H   0  0  0  0  0  0  0  0  0  0  0  0
   10.0403    1.5000    0.0000 H   0  0  0  0  0  0  0  0  0  0  0  0
    9.1403    2.9174    0.0000 H   0  0  0  0  0  0  0  0  0  0  0  0
    9.5388    3.6077    0.0000 H   0  0  0  0  0  0  0  0  0  0  0  0
    8.5991   -1.3100    0.0000 H   0  0  0  0  0  0  0  0  0  0  0  0
    7.7331   -1.8100    0.0000 H   0  0  0  0  0  0  0  0  0  0  0  0
    6.6592    3.1900    0.0000 H   0  0  0  0  0  0  0  0  0  0  0  0
    8.7162    5.0826    0.0000 H   0  0  0  0  0  0  0  0  0  0  0  0
    8.3176    4.3923    0.0000 H   0  0  0  0  0  0  0  0  0  0  0  0
    5.7196   -0.8923    0.0000 H   0  0  0  0  0  0  0  0  0  0  0  0
    6.1181   -1.5826    0.0000 H   0  0  0  0  0  0  0  0  0  0  0  0
    5.7932   -2.6900    0.0000 H   0  0  0  0  0  0  0  0  0  0  0  0
    6.5422   -4.5826    0.0000 H   0  0  0  0  0  0  0  0  0  0  0  0
    6.9407   -3.8923    0.0000 H   0  0  0  0  0  0  0  0  0  0  0  0
    5.2520   -3.9174    0.0000 H   0  0  0  0  0  0  0  0  0  0  0  0
    4.8535   -4.6077    0.0000 H   0  0  0  0  0  0  0  0  0  0  0  0
    5.4641    5.8800    0.0000 H   0  0  0  0  0  0  0  0  0  0  0  0
    6.9407    5.8923    0.0000 H   0  0  0  0  0  0  0  0  0  0  0  0
    6.5422    6.5826    0.0000 H   0  0  0  0  0  0  0  0  0  0  0  0
    5.7932    0.3100    0.0000 H   0  0  0  0  0  0  0  0  0  0  0  0
    6.0841    7.5000    0.0000 H   0  0  0  0  0  0  0  0  0  0  0  0
    5.4641    8.1200    0.0000 H   0  0  0  0  0  0  0  0  0  0  0  0
    4.8441    7.5000    0.0000 H   0  0  0  0  0  0  0  0  0  0  0  0
    4.2881    6.5369    0.0000 H   0  0  0  0  0  0  0  0  0  0  0  0
    4.0611    5.6900    0.0000 H   0  0  0  0  0  0  0  0  0  0  0  0
    4.9081    5.4631    0.0000 H   0  0  0  0  0  0  0  0  0  0  0  0
    6.8671   -5.6900    0.0000 H   0  0  0  0  0  0  0  0  0  0  0  0
   10.3312    6.3100    0.0000 H   0  0  0  0  0  0  0  0  0  0  0  0
    4.0611   -7.3100    0.0000 H   0  0  0  0  0  0  0  0  0  0  0  0
    6.8671   -7.3100    0.0000 H   0  0  0  0  0  0  0  0  0  0  0  0
    5.4641   -8.1200    0.0000 H   0  0  0  0  0  0  0  0  0  0  0  0
    2.4675   -6.4750    0.0000 H   0  0  0  0  0  0  0  0  0  0  0  0
    3.2646   -6.4750    0.0000 H   0  0  0  0  0  0  0  0  0  0  0  0
    2.3100   -4.9631    0.0000 H   0  0  0  0  0  0  0  0  0  0  0  0
    1.4631   -5.1900    0.0000 H   0  0  0  0  0  0  0  0  0  0  0  0
    1.6900   -6.0369    0.0000 H   0  0  0  0  0  0  0  0  0  0  0  0
  1 25  1  0  0  0  0
  1 72  1  0  0  0  0
  2 17  2  0  0  0  0
  3 21  2  0  0  0  0
  4 28  1  0  0  0  0
  4 32  1  0  0  0  0
  5 26  2  0  0  0  0
  6 30  1  0  0  0  0
  6 80  1  0  0  0  0
  7 28  2  0  0  0  0
  8 30  2  0  0  0  0
  9 36  1  0  0  0  0
  9 41  1  0  0  0  0
 15 10  1  1  0  0  0
 10 21  1  0  0  0  0
 10 47  1  0  0  0  0
 11 17  1  0  0  0  0
 23 11  1  6  0  0  0
 11 57  1  0  0  0  0
 18 12  1  1  0  0  0
 12 28  1  0  0  0  0
 12 59  1  0  0  0  0
 13 26  1  0  0  0  0
 13 27  1  0  0  0  0
 13 64  1  0  0  0  0
 14 15  1  0  0  0  0
 14 16  1  0  0  0  0
 14 43  1  0  0  0  0
 14 44  1  0  0  0  0
 15 17  1  0  0  0  0
 15 45  1  0  0  0  0
 16 19  1  0  0  0  0
 16 20  1  0  0  0  0
 16 46  1  0  0  0  0
 18 21  1  0  0  0  0
 18 22  1  0  0  0  0
 18 48  1  0  0  0  0
 19 49  1  0  0  0  0
 19 50  1  0  0  0  0
 19 51  1  0  0  0  0
 20 52  1  0  0  0  0
 20 53  1  0  0  0  0
 20 54  1  0  0  0  0
 22 24  1  0  0  0  0
 22 55  1  0  0  0  0
 22 56  1  0  0  0  0
 23 25  1  0  0  0  0
 23 26  1  0  0  0  0
 23 58  1  0  0  0  0
 24 30  1  0  0  0  0
 24 60  1  0  0  0  0
 24 61  1  0  0  0  0
 25 62  1  0  0  0  0
 25 63  1  0  0  0  0
 27 29  1  0  0  0  0
 27 65  1  0  0  0  0
 27 66  1  0  0  0  0
 29 33  1  0  0  0  0
 29 67  1  0  0  0  0
 29 68  1  0  0  0  0
 31 32  1  0  0  0  0
 31 34  1  0  0  0  0
 31 35  1  0  0  0  0
 31 69  1  0  0  0  0
 32 70  1  0  0  0  0
 32 71  1  0  0  0  0
 33 36  1  0  0  0  0
 33 37  2  0  0  0  0
 34 73  1  0  0  0  0
 34 74  1  0  0  0  0
 34 75  1  0  0  0  0
 35 76  1  0  0  0  0
 35 77  1  0  0  0  0
 35 78  1  0  0  0  0
 36 38  2  0  0  0  0
 37 39  1  0  0  0  0
 37 79  1  0  0  0  0
 38 40  1  0  0  0  0
 38 81  1  0  0  0  0
 39 40  2  0  0  0  0
 39 82  1  0  0  0  0
 40 83  1  0  0  0  0
 41 42  1  0  0  0  0
 41 84  1  0  0  0  0
 41 85  1  0  0  0  0
 42 86  1  0  0  0  0
 42 87  1  0  0  0  0
 42 88  1  0  0  0  0
M  END
> <PUBCHEM_COMPOUND_CID>
507423
> <PUBCHEM_COMPOUND_CANONICALIZED>
1
> <PUBCHEM_CACTVS_COMPLEXITY>
873
> <PUBCHEM_CACTVS_HBOND_ACCEPTOR>
9
> <PUBCHEM_CACTVS_HBOND_DONOR>
6
> <PUBCHEM_CACTVS_ROTATABLE_BOND>
20
> <PUBCHEM_CACTVS_SUBSKEYS>
AAADcfB7vABAAAAAAAAAAAAAAAAAAAAAAAAwAAAAAAAAAAABAAAAHgQQCAAADSzl2AayDoLABgSIAiHSGAACCAAgIAAIiIGOCIkMZjKEsTueeCCk1hGIqAe816IOAAAAAAAIAAAAAAAAABAAAAAAAAAAAA==
> <PUBCHEM_IUPAC_OPENEYE_NAME>
(4S)-5-[[(1S)-1-[[(1R)-2-[2-(2-ethoxyphenyl)ethylamino]-2-oxo-1-(sulfanylmethyl)ethyl]carbamoyl]-3-methyl-butyl]amino]-4-(isobutoxycarbonylamino)-5-oxo-pentanoic acid
> <PUBCHEM_IUPAC_CAS_NAME>
(4S)-5-[[(2S)-1-[[(2R)-1-[2-(2-ethoxyphenyl)ethylamino]-3-mercapto-1-oxopropan-2-yl]amino]-4-methyl-1-oxopentan-2-yl]amino]-4-[[2-methylpropoxy(oxo)methyl]amino]-5-oxopentanoic acid
> <PUBCHEM_IUPAC_NAME_MARKUP>
(4<I>S</I>)-5-[[(2<I>S</I>)-1-[[(2<I>R</I>)-1-[2-(2-ethoxyphenyl)ethylamino]-1-oxo-3-sulfanylpropan-2-yl]amino]-4-methyl-1-oxopentan-2-yl]amino]-4-(2-methylpropoxycarbonylamino)-5-oxopentanoic acid
> <PUBCHEM_IUPAC_NAME>
(4S)-5-[[(2S)-1-[[(2R)-1-[2-(2-ethoxyphenyl)ethylamino]-1-oxo-3-sulfanylpropan-2-yl]amino]-4-methyl-1-oxopentan-2-yl]amino]-4-(2-methylpropoxycarbonylamino)-5-oxopentanoic acid
> <PUBCHEM_IUPAC_SYSTEMATIC_NAME>
(4S)-5-[[(2S)-1-[[(2R)-1-[2-(2-ethoxyphenyl)ethylamino]-1-oxidanylidene-3-sulfanyl-propan-2-yl]amino]-4-methyl-1-oxidanylidene-pentan-2-yl]amino]-4-(2-methylpropoxycarbonylamino)-5-oxidanylidene-pentanoic acid
> <PUBCHEM_IUPAC_TRADITIONAL_NAME>
(4S)-4-(isobutoxycarbonylamino)-5-keto-5-[[(1S)-1-[[(1R)-2-keto-1-(mercaptomethyl)-2-(2-o-phenetylethylamino)ethyl]carbamoyl]-3-methyl-butyl]amino]valeric acid
> <PUBCHEM_IUPAC_INCHI>
InChI=1S/C29H46N4O8S/c1-6-40-24-10-8-7-9-20(24)13-14-30-26(36)23(17-42)32-28(38)22(15-18(2)3)31-27(37)21(11-12-25(34)35)33-29(39)41-16-19(4)5/h7-10,18-19,21-23,42H,6,11-17H2,1-5H3,(H,30,36)(H,31,37)(H,32,38)(H,33,39)(H,34,35)/t21-,22-,23-/m0/s1
> <PUBCHEM_IUPAC_INCHIKEY>
VAFAJYVYJIXGRK-VABKMULXSA-N
> <PUBCHEM_XLOGP3_AA>
3.5
> <PUBCHEM_EXACT_MASS>
610.30363561
> <PUBCHEM_MOLECULAR_FORMULA>
C29H46N4O8S
> <PUBCHEM_MOLECULAR_WEIGHT>
610.8
> <PUBCHEM_OPENEYE_CAN_SMILES>
CCOC1=CC=CC=C1CCNC(=O)C(CS)NC(=O)C(CC(C)C)NC(=O)C(CCC(=O)O)NC(=O)OCC(C)C
> <PUBCHEM_OPENEYE_ISO_SMILES>
CCOC1=CC=CC=C1CCNC(=O)[C@H](CS)NC(=O)[C@H](CC(C)C)NC(=O)[C@H](CCC(=O)O)NC(=O)OCC(C)C
> <PUBCHEM_CACTVS_TPSA>
173
> <PUBCHEM_MONOISOTOPIC_WEIGHT>
610.30363561
> <PUBCHEM_TOTAL_CHARGE>
0
> <PUBCHEM_HEAVY_ATOM_COUNT>
42
> <PUBCHEM_ATOM_DEF_STEREO_COUNT>
3
> <PUBCHEM_ATOM_UDEF_STEREO_COUNT>
0
> <PUBCHEM_BOND_DEF_STEREO_COUNT>
0
> <PUBCHEM_BOND_UDEF_STEREO_COUNT>
0
> <PUBCHEM_ISOTOPIC_ATOM_COUNT>
0
> <PUBCHEM_COMPONENT_COUNT>
1
> <PUBCHEM_CACTVS_TAUTO_COUNT>
-1
> <PUBCHEM_COORDINATE_TYPE>
1
5
255
> <PUBCHEM_BONDANNOTATIONS>
15  10  5
23  11  6
18  12  5
33  36  8
33  37  8
36  38  8
37  39  8
38  40  8
39  40  8
$$$$
