507432
  -OEChem-10302200282D
 82 82  0     1  0  0  0  0  0999 V2000
    4.5981    0.3100    0.0000 S   0  0  0  0  0  0  0  0  0  0  0  0
    5.4641    0.8100    0.0000 O   0  0  0  0  0  0  0  0  0  0  0  0
    5.4641    1.8100    0.0000 O   0  0  0  0  0  0  0  0  0  0  0  0
    4.5981    5.3100    0.0000 O   0  0  0  0  0  0  0  0  0  0  0  0
    6.3301   -2.6900    0.0000 O   0  0  0  0  0  0  0  0  0  0  0  0
    8.0622    6.3100    0.0000 O   0  0  0  0  0  0  0  0  0  0  0  0
    6.3301    5.3100    0.0000 O   0  0  0  0  0  0  0  0  0  0  0  0
    8.9282    4.8100    0.0000 O   0  0  0  0  0  0  0  0  0  0  0  0
    2.0000   -7.1900    0.0000 O   0  0  0  0  0  0  0  0  0  0  0  0
    7.1962    1.8100    0.0000 N   0  0  0  0  0  0  0  0  0  0  0  0
    6.3301   -0.6900    0.0000 N   0  0  0  0  0  0  0  0  0  0  0  0
    5.4641    3.8100    0.0000 N   0  0  0  0  0  0  0  0  0  0  0  0
    4.5981   -2.6900    0.0000 N   0  0  0  0  0  0  0  0  0  0  0  0
    8.0622    0.3100    0.0000 C   0  0  0  0  0  0  0  0  0  0  0  0
    7.1962    0.8100    0.0000 C   0  0  1  0  0  0  0  0  0  0  0  0
    8.9282    0.8100    0.0000 C   0  0  0  0  0  0  0  0  0  0  0  0
    6.3301    0.3100    0.0000 C   0  0  0  0  0  0  0  0  0  0  0  0
    6.3301    3.3100    0.0000 C   0  0  2  0  0  0  0  0  0  0  0  0
    9.7942    0.3100    0.0000 C   0  0  0  0  0  0  0  0  0  0  0  0
    8.9282    1.8100    0.0000 C   0  0  0  0  0  0  0  0  0  0  0  0
    6.3301    2.3100    0.0000 C   0  0  0  0  0  0  0  0  0  0  0  0
    7.1962    3.8100    0.0000 C   0  0  0  0  0  0  0  0  0  0  0  0
    5.4641   -1.1900    0.0000 C   0  0  1  0  0  0  0  0  0  0  0  0
    7.1962    4.8100    0.0000 C   0  0  0  0  0  0  0  0  0  0  0  0
    4.5981   -0.6900    0.0000 C   0  0  0  0  0  0  0  0  0  0  0  0
    5.4641   -2.1900    0.0000 C   0  0  0  0  0  0  0  0  0  0  0  0
    5.4641    4.8100    0.0000 C   0  0  0  0  0  0  0  0  0  0  0  0
    4.5981   -3.6900    0.0000 C   0  0  0  0  0  0  0  0  0  0  0  0
    8.0622    5.3100    0.0000 C   0  0  0  0  0  0  0  0  0  0  0  0
    3.7320   -4.1900    0.0000 C   0  0  0  0  0  0  0  0  0  0  0  0
    3.7320    6.8100    0.0000 C   0  0  0  0  0  0  0  0  0  0  0  0
    4.5981    6.3100    0.0000 C   0  0  0  0  0  0  0  0  0  0  0  0
    3.7320   -5.1900    0.0000 C   0  0  0  0  0  0  0  0  0  0  0  0
    3.7320    7.8100    0.0000 C   0  0  0  0  0  0  0  0  0  0  0  0
    2.8660    6.3100    0.0000 C   0  0  0  0  0  0  0  0  0  0  0  0
    2.8660   -5.6900    0.0000 C   0  0  0  0  0  0  0  0  0  0  0  0
    4.5981   -5.6900    0.0000 C   0  0  0  0  0  0  0  0  0  0  0  0
    2.8660   -6.6900    0.0000 C   0  0  0  0  0  0  0  0  0  0  0  0
    4.5981   -6.6900    0.0000 C   0  0  0  0  0  0  0  0  0  0  0  0
    3.7320   -7.1900    0.0000 C   0  0  0  0  0  0  0  0  0  0  0  0
    7.6636   -0.1649    0.0000 H   0  0  0  0  0  0  0  0  0  0  0  0
    8.4607   -0.1649    0.0000 H   0  0  0  0  0  0  0  0  0  0  0  0
    6.6592    1.1200    0.0000 H   0  0  0  0  0  0  0  0  0  0  0  0
    9.4651    1.1200    0.0000 H   0  0  0  0  0  0  0  0  0  0  0  0
    7.7331    2.1200    0.0000 H   0  0  0  0  0  0  0  0  0  0  0  0
    5.7932    3.0000    0.0000 H   0  0  0  0  0  0  0  0  0  0  0  0
    9.4842   -0.2269    0.0000 H   0  0  0  0  0  0  0  0  0  0  0  0
   10.3312   -0.0000    0.0000 H   0  0  0  0  0  0  0  0  0  0  0  0
   10.1042    0.8469    0.0000 H   0  0  0  0  0  0  0  0  0  0  0  0
    9.5482    1.8100    0.0000 H   0  0  0  0  0  0  0  0  0  0  0  0
    8.9282    2.4300    0.0000 H   0  0  0  0  0  0  0  0  0  0  0  0
    8.3082    1.8100    0.0000 H   0  0  0  0  0  0  0  0  0  0  0  0
    7.4082    3.2274    0.0000 H   0  0  0  0  0  0  0  0  0  0  0  0
    7.8067    3.9177    0.0000 H   0  0  0  0  0  0  0  0  0  0  0  0
    6.8671   -1.0000    0.0000 H   0  0  0  0  0  0  0  0  0  0  0  0
    6.0010   -1.5000    0.0000 H   0  0  0  0  0  0  0  0  0  0  0  0
    4.9272    3.5000    0.0000 H   0  0  0  0  0  0  0  0  0  0  0  0
    6.9841    5.3926    0.0000 H   0  0  0  0  0  0  0  0  0  0  0  0
    6.5856    4.7023    0.0000 H   0  0  0  0  0  0  0  0  0  0  0  0
    3.9875   -0.5823    0.0000 H   0  0  0  0  0  0  0  0  0  0  0  0
    4.3860   -1.2726    0.0000 H   0  0  0  0  0  0  0  0  0  0  0  0
    4.0611   -2.3800    0.0000 H   0  0  0  0  0  0  0  0  0  0  0  0
    4.8101   -4.2726    0.0000 H   0  0  0  0  0  0  0  0  0  0  0  0
    5.2087   -3.5823    0.0000 H   0  0  0  0  0  0  0  0  0  0  0  0
    3.5200   -3.6074    0.0000 H   0  0  0  0  0  0  0  0  0  0  0  0
    3.1215   -4.2977    0.0000 H   0  0  0  0  0  0  0  0  0  0  0  0
    3.7320    6.1900    0.0000 H   0  0  0  0  0  0  0  0  0  0  0  0
    5.2087    6.2023    0.0000 H   0  0  0  0  0  0  0  0  0  0  0  0
    4.8101    6.8926    0.0000 H   0  0  0  0  0  0  0  0  0  0  0  0
    4.0611    0.6200    0.0000 H   0  0  0  0  0  0  0  0  0  0  0  0
    4.3520    7.8100    0.0000 H   0  0  0  0  0  0  0  0  0  0  0  0
    3.7320    8.4300    0.0000 H   0  0  0  0  0  0  0  0  0  0  0  0
    3.1120    7.8100    0.0000 H   0  0  0  0  0  0  0  0  0  0  0  0
    2.5560    6.8469    0.0000 H   0  0  0  0  0  0  0  0  0  0  0  0
    2.3291    6.0000    0.0000 H   0  0  0  0  0  0  0  0  0  0  0  0
    3.1760    5.7731    0.0000 H   0  0  0  0  0  0  0  0  0  0  0  0
    2.3291   -5.3800    0.0000 H   0  0  0  0  0  0  0  0  0  0  0  0
    5.1350   -5.3800    0.0000 H   0  0  0  0  0  0  0  0  0  0  0  0
    8.5991    6.6200    0.0000 H   0  0  0  0  0  0  0  0  0  0  0  0
    5.1350   -7.0000    0.0000 H   0  0  0  0  0  0  0  0  0  0  0  0
    3.7320   -7.8100    0.0000 H   0  0  0  0  0  0  0  0  0  0  0  0
    2.0000   -7.8100    0.0000 H   0  0  0  0  0  0  0  0  0  0  0  0
  1 25  1  0  0  0  0
  1 70  1  0  0  0  0
  2 17  2  0  0  0  0
  3 21  2  0  0  0  0
  4 27  1  0  0  0  0
  4 32  1  0  0  0  0
  5 26  2  0  0  0  0
  6 29  1  0  0  0  0
  6 79  1  0  0  0  0
  7 27  2  0  0  0  0
  8 29  2  0  0  0  0
  9 38  1  0  0  0  0
  9 82  1  0  0  0  0
 15 10  1  1  0  0  0
 10 21  1  0  0  0  0
 10 45  1  0  0  0  0
 11 17  1  0  0  0  0
 23 11  1  6  0  0  0
 11 55  1  0  0  0  0
 18 12  1  1  0  0  0
 12 27  1  0  0  0  0
 12 57  1  0  0  0  0
 13 26  1  0  0  0  0
 13 28  1  0  0  0  0
 13 62  1  0  0  0  0
 14 15  1  0  0  0  0
 14 16  1  0  0  0  0
 14 41  1  0  0  0  0
 14 42  1  0  0  0  0
 15 17  1  0  0  0  0
 15 43  1  0  0  0  0
 16 19  1  0  0  0  0
 16 20  1  0  0  0  0
 16 44  1  0  0  0  0
 18 21  1  0  0  0  0
 18 22  1  0  0  0  0
 18 46  1  0  0  0  0
 19 47  1  0  0  0  0
 19 48  1  0  0  0  0
 19 49  1  0  0  0  0
 20 50  1  0  0  0  0
 20 51  1  0  0  0  0
 20 52  1  0  0  0  0
 22 24  1  0  0  0  0
 22 53  1  0  0  0  0
 22 54  1  0  0  0  0
 23 25  1  0  0  0  0
 23 26  1  0  0  0  0
 23 56  1  0  0  0  0
 24 29  1  0  0  0  0
 24 58  1  0  0  0  0
 24 59  1  0  0  0  0
 25 60  1  0  0  0  0
 25 61  1  0  0  0  0
 28 30  1  0  0  0  0
 28 63  1  0  0  0  0
 28 64  1  0  0  0  0
 30 33  1  0  0  0  0
 30 65  1  0  0  0  0
 30 66  1  0  0  0  0
 31 32  1  0  0  0  0
 31 34  1  0  0  0  0
 31 35  1  0  0  0  0
 31 67  1  0  0  0  0
 32 68  1  0  0  0  0
 32 69  1  0  0  0  0
 33 36  2  0  0  0  0
 33 37  1  0  0  0  0
 34 71  1  0  0  0  0
 34 72  1  0  0  0  0
 34 73  1  0  0  0  0
 35 74  1  0  0  0  0
 35 75  1  0  0  0  0
 35 76  1  0  0  0  0
 36 38  1  0  0  0  0
 36 77  1  0  0  0  0
 37 39  2  0  0  0  0
 37 78  1  0  0  0  0
 38 40  2  0  0  0  0
 39 40  1  0  0  0  0
 39 80  1  0  0  0  0
 40 81  1  0  0  0  0
M  END
> <PUBCHEM_COMPOUND_CID>
507432
> <PUBCHEM_COMPOUND_CANONICALIZED>
1
> <PUBCHEM_CACTVS_COMPLEXITY>
841
> <PUBCHEM_CACTVS_HBOND_ACCEPTOR>
9
> <PUBCHEM_CACTVS_HBOND_DONOR>
7
> <PUBCHEM_CACTVS_ROTATABLE_BOND>
18
> <PUBCHEM_CACTVS_SUBSKEYS>
AAADcfB7vABAAAAAAAAAAAAAAAAAAAAAAAAwAAAAAAAAAAABAAAAHgQQCAAADSzl2AayDoLABgSIAiHSGAACAAAgIAAIiIGOCIkIZjKCkTOccAAk1hGImAe817IOAAABAAAAAAAAAAIAAAAAAAAAAAAAAA==
> <PUBCHEM_IUPAC_OPENEYE_NAME>
(4S)-5-[[(1S)-1-[[(1R)-2-[2-(3-hydroxyphenyl)ethylamino]-2-oxo-1-(sulfanylmethyl)ethyl]carbamoyl]-3-methyl-butyl]amino]-4-(isobutoxycarbonylamino)-5-oxo-pentanoic acid
> <PUBCHEM_IUPAC_CAS_NAME>
(4S)-5-[[(2S)-1-[[(2R)-1-[2-(3-hydroxyphenyl)ethylamino]-3-mercapto-1-oxopropan-2-yl]amino]-4-methyl-1-oxopentan-2-yl]amino]-4-[[2-methylpropoxy(oxo)methyl]amino]-5-oxopentanoic acid
> <PUBCHEM_IUPAC_NAME_MARKUP>
(4<I>S</I>)-5-[[(2<I>S</I>)-1-[[(2<I>R</I>)-1-[2-(3-hydroxyphenyl)ethylamino]-1-oxo-3-sulfanylpropan-2-yl]amino]-4-methyl-1-oxopentan-2-yl]amino]-4-(2-methylpropoxycarbonylamino)-5-oxopentanoic acid
> <PUBCHEM_IUPAC_NAME>
(4S)-5-[[(2S)-1-[[(2R)-1-[2-(3-hydroxyphenyl)ethylamino]-1-oxo-3-sulfanylpropan-2-yl]amino]-4-methyl-1-oxopentan-2-yl]amino]-4-(2-methylpropoxycarbonylamino)-5-oxopentanoic acid
> <PUBCHEM_IUPAC_SYSTEMATIC_NAME>
(4S)-5-[[(2S)-1-[[(2R)-1-[2-(3-hydroxyphenyl)ethylamino]-1-oxidanylidene-3-sulfanyl-propan-2-yl]amino]-4-methyl-1-oxidanylidene-pentan-2-yl]amino]-4-(2-methylpropoxycarbonylamino)-5-oxidanylidene-pentanoic acid
> <PUBCHEM_IUPAC_TRADITIONAL_NAME>
(4S)-5-[[(1S)-1-[[(1R)-2-[2-(3-hydroxyphenyl)ethylamino]-2-keto-1-(mercaptomethyl)ethyl]carbamoyl]-3-methyl-butyl]amino]-4-(isobutoxycarbonylamino)-5-keto-valeric acid
> <PUBCHEM_IUPAC_INCHI>
InChI=1S/C27H42N4O8S/c1-16(2)12-21(29-25(36)20(8-9-23(33)34)31-27(38)39-14-17(3)4)26(37)30-22(15-40)24(35)28-11-10-18-6-5-7-19(32)13-18/h5-7,13,16-17,20-22,32,40H,8-12,14-15H2,1-4H3,(H,28,35)(H,29,36)(H,30,37)(H,31,38)(H,33,34)/t20-,21-,22-/m0/s1
> <PUBCHEM_IUPAC_INCHIKEY>
BCWPXTSEVXNJPO-FKBYEOEOSA-N
> <PUBCHEM_XLOGP3_AA>
2.8
> <PUBCHEM_EXACT_MASS>
582.27233548
> <PUBCHEM_MOLECULAR_FORMULA>
C27H42N4O8S
> <PUBCHEM_MOLECULAR_WEIGHT>
582.7
> <PUBCHEM_OPENEYE_CAN_SMILES>
CC(C)CC(C(=O)NC(CS)C(=O)NCCC1=CC(=CC=C1)O)NC(=O)C(CCC(=O)O)NC(=O)OCC(C)C
> <PUBCHEM_OPENEYE_ISO_SMILES>
CC(C)C[C@@H](C(=O)N[C@@H](CS)C(=O)NCCC1=CC(=CC=C1)O)NC(=O)[C@H](CCC(=O)O)NC(=O)OCC(C)C
> <PUBCHEM_CACTVS_TPSA>
184
> <PUBCHEM_MONOISOTOPIC_WEIGHT>
582.27233548
> <PUBCHEM_TOTAL_CHARGE>
0
> <PUBCHEM_HEAVY_ATOM_COUNT>
40
> <PUBCHEM_ATOM_DEF_STEREO_COUNT>
3
> <PUBCHEM_ATOM_UDEF_STEREO_COUNT>
0
> <PUBCHEM_BOND_DEF_STEREO_COUNT>
0
> <PUBCHEM_BOND_UDEF_STEREO_COUNT>
0
> <PUBCHEM_ISOTOPIC_ATOM_COUNT>
0
> <PUBCHEM_COMPONENT_COUNT>
1
> <PUBCHEM_CACTVS_TAUTO_COUNT>
-1
> <PUBCHEM_COORDINATE_TYPE>
1
5
255
> <PUBCHEM_BONDANNOTATIONS>
15  10  5
23  11  6
18  12  5
33  36  8
33  37  8
36  38  8
37  39  8
38  40  8
39  40  8
$$$$
