507466
  -OEChem-10302200282D
 81 81  0     1  0  0  0  0  0999 V2000
    2.0000   -4.7500    0.0000 Cl  0  0  0  0  0  0  0  0  0  0  0  0
    3.7320   -7.7500    0.0000 Cl  0  0  0  0  0  0  0  0  0  0  0  0
    4.5981    0.7500    0.0000 S   0  0  0  0  0  0  0  0  0  0  0  0
    5.4641    1.2500    0.0000 O   0  0  0  0  0  0  0  0  0  0  0  0
    5.4641    2.2500    0.0000 O   0  0  0  0  0  0  0  0  0  0  0  0
    4.5981    5.7500    0.0000 O   0  0  0  0  0  0  0  0  0  0  0  0
    6.3301   -2.2500    0.0000 O   0  0  0  0  0  0  0  0  0  0  0  0
    6.3301    5.7500    0.0000 O   0  0  0  0  0  0  0  0  0  0  0  0
    8.0622    6.7500    0.0000 O   0  0  0  0  0  0  0  0  0  0  0  0
    8.9282    5.2500    0.0000 O   0  0  0  0  0  0  0  0  0  0  0  0
    7.1962    2.2500    0.0000 N   0  0  0  0  0  0  0  0  0  0  0  0
    6.3301   -0.2500    0.0000 N   0  0  0  0  0  0  0  0  0  0  0  0
    5.4641    4.2500    0.0000 N   0  0  0  0  0  0  0  0  0  0  0  0
    4.5981   -2.2500    0.0000 N   0  0  0  0  0  0  0  0  0  0  0  0
    7.1962    1.2500    0.0000 C   0  0  1  0  0  0  0  0  0  0  0  0
    8.0622    0.7500    0.0000 C   0  0  0  0  0  0  0  0  0  0  0  0
    8.9282    1.2500    0.0000 C   0  0  0  0  0  0  0  0  0  0  0  0
    6.3301    3.7500    0.0000 C   0  0  2  0  0  0  0  0  0  0  0  0
    6.3301    0.7500    0.0000 C   0  0  0  0  0  0  0  0  0  0  0  0
    9.7942    0.7500    0.0000 C   0  0  0  0  0  0  0  0  0  0  0  0
    8.9282    2.2500    0.0000 C   0  0  0  0  0  0  0  0  0  0  0  0
    6.3301    2.7500    0.0000 C   0  0  0  0  0  0  0  0  0  0  0  0
    7.1962    4.2500    0.0000 C   0  0  0  0  0  0  0  0  0  0  0  0
    5.4641   -0.7500    0.0000 C   0  0  1  0  0  0  0  0  0  0  0  0
    7.1962    5.2500    0.0000 C   0  0  0  0  0  0  0  0  0  0  0  0
    4.5981   -0.2500    0.0000 C   0  0  0  0  0  0  0  0  0  0  0  0
    5.4641   -1.7500    0.0000 C   0  0  0  0  0  0  0  0  0  0  0  0
    4.5981    6.7500    0.0000 C   0  0  0  0  0  0  0  0  0  0  0  0
    5.4641    5.2500    0.0000 C   0  0  0  0  0  0  0  0  0  0  0  0
    4.5981   -3.2500    0.0000 C   0  0  0  0  0  0  0  0  0  0  0  0
    8.0622    5.7500    0.0000 C   0  0  0  0  0  0  0  0  0  0  0  0
    4.5981    7.7500    0.0000 C   0  0  0  0  0  0  0  0  0  0  0  0
    3.5981    6.7500    0.0000 C   0  0  0  0  0  0  0  0  0  0  0  0
    5.5981    6.7500    0.0000 C   0  0  0  0  0  0  0  0  0  0  0  0
    3.7320   -3.7500    0.0000 C   0  0  0  0  0  0  0  0  0  0  0  0
    3.7320   -4.7500    0.0000 C   0  0  0  0  0  0  0  0  0  0  0  0
    2.8660   -5.2500    0.0000 C   0  0  0  0  0  0  0  0  0  0  0  0
    4.5981   -5.2500    0.0000 C   0  0  0  0  0  0  0  0  0  0  0  0
    2.8660   -6.2500    0.0000 C   0  0  0  0  0  0  0  0  0  0  0  0
    4.5981   -6.2500    0.0000 C   0  0  0  0  0  0  0  0  0  0  0  0
    3.7320   -6.7500    0.0000 C   0  0  0  0  0  0  0  0  0  0  0  0
    6.6592    1.5600    0.0000 H   0  0  0  0  0  0  0  0  0  0  0  0
    7.6636    0.2751    0.0000 H   0  0  0  0  0  0  0  0  0  0  0  0
    8.4607    0.2751    0.0000 H   0  0  0  0  0  0  0  0  0  0  0  0
    9.4651    1.5600    0.0000 H   0  0  0  0  0  0  0  0  0  0  0  0
    7.7331    2.5600    0.0000 H   0  0  0  0  0  0  0  0  0  0  0  0
    5.7932    3.4400    0.0000 H   0  0  0  0  0  0  0  0  0  0  0  0
    9.4842    0.2131    0.0000 H   0  0  0  0  0  0  0  0  0  0  0  0
   10.3312    0.4400    0.0000 H   0  0  0  0  0  0  0  0  0  0  0  0
   10.1042    1.2869    0.0000 H   0  0  0  0  0  0  0  0  0  0  0  0
    9.5482    2.2500    0.0000 H   0  0  0  0  0  0  0  0  0  0  0  0
    8.9282    2.8700    0.0000 H   0  0  0  0  0  0  0  0  0  0  0  0
    8.3082    2.2500    0.0000 H   0  0  0  0  0  0  0  0  0  0  0  0
    7.4082    3.6674    0.0000 H   0  0  0  0  0  0  0  0  0  0  0  0
    7.8067    4.3577    0.0000 H   0  0  0  0  0  0  0  0  0  0  0  0
    6.8671   -0.5600    0.0000 H   0  0  0  0  0  0  0  0  0  0  0  0
    5.4641   -0.1300    0.0000 H   0  0  0  0  0  0  0  0  0  0  0  0
    4.9272    3.9400    0.0000 H   0  0  0  0  0  0  0  0  0  0  0  0
    6.9841    5.8326    0.0000 H   0  0  0  0  0  0  0  0  0  0  0  0
    6.5856    5.1423    0.0000 H   0  0  0  0  0  0  0  0  0  0  0  0
    3.9875   -0.1423    0.0000 H   0  0  0  0  0  0  0  0  0  0  0  0
    4.3860   -0.8326    0.0000 H   0  0  0  0  0  0  0  0  0  0  0  0
    4.0611   -1.9400    0.0000 H   0  0  0  0  0  0  0  0  0  0  0  0
    4.8101   -3.8326    0.0000 H   0  0  0  0  0  0  0  0  0  0  0  0
    5.2087   -3.1423    0.0000 H   0  0  0  0  0  0  0  0  0  0  0  0
    5.2181    7.7500    0.0000 H   0  0  0  0  0  0  0  0  0  0  0  0
    4.5981    8.3700    0.0000 H   0  0  0  0  0  0  0  0  0  0  0  0
    3.9781    7.7500    0.0000 H   0  0  0  0  0  0  0  0  0  0  0  0
    3.5981    7.3700    0.0000 H   0  0  0  0  0  0  0  0  0  0  0  0
    2.9781    6.7500    0.0000 H   0  0  0  0  0  0  0  0  0  0  0  0
    3.5981    6.1300    0.0000 H   0  0  0  0  0  0  0  0  0  0  0  0
    5.5981    6.1300    0.0000 H   0  0  0  0  0  0  0  0  0  0  0  0
    6.2181    6.7500    0.0000 H   0  0  0  0  0  0  0  0  0  0  0  0
    5.5981    7.3700    0.0000 H   0  0  0  0  0  0  0  0  0  0  0  0
    3.5200   -3.1674    0.0000 H   0  0  0  0  0  0  0  0  0  0  0  0
    3.1215   -3.8577    0.0000 H   0  0  0  0  0  0  0  0  0  0  0  0
    4.0611    1.0600    0.0000 H   0  0  0  0  0  0  0  0  0  0  0  0
    8.5991    7.0600    0.0000 H   0  0  0  0  0  0  0  0  0  0  0  0
    5.1350   -4.9400    0.0000 H   0  0  0  0  0  0  0  0  0  0  0  0
    2.3291   -6.5600    0.0000 H   0  0  0  0  0  0  0  0  0  0  0  0
    5.1350   -6.5600    0.0000 H   0  0  0  0  0  0  0  0  0  0  0  0
  1 37  1  0  0  0  0
  2 41  1  0  0  0  0
  3 26  1  0  0  0  0
  3 77  1  0  0  0  0
  4 19  2  0  0  0  0
  5 22  2  0  0  0  0
  6 28  1  0  0  0  0
  6 29  1  0  0  0  0
  7 27  2  0  0  0  0
  8 29  2  0  0  0  0
  9 31  1  0  0  0  0
  9 78  1  0  0  0  0
 10 31  2  0  0  0  0
 15 11  1  1  0  0  0
 11 22  1  0  0  0  0
 11 46  1  0  0  0  0
 12 19  1  0  0  0  0
 24 12  1  6  0  0  0
 12 56  1  0  0  0  0
 18 13  1  1  0  0  0
 13 29  1  0  0  0  0
 13 58  1  0  0  0  0
 14 27  1  0  0  0  0
 14 30  1  0  0  0  0
 14 63  1  0  0  0  0
 15 16  1  0  0  0  0
 15 19  1  0  0  0  0
 15 42  1  0  0  0  0
 16 17  1  0  0  0  0
 16 43  1  0  0  0  0
 16 44  1  0  0  0  0
 17 20  1  0  0  0  0
 17 21  1  0  0  0  0
 17 45  1  0  0  0  0
 18 22  1  0  0  0  0
 18 23  1  0  0  0  0
 18 47  1  0  0  0  0
 20 48  1  0  0  0  0
 20 49  1  0  0  0  0
 20 50  1  0  0  0  0
 21 51  1  0  0  0  0
 21 52  1  0  0  0  0
 21 53  1  0  0  0  0
 23 25  1  0  0  0  0
 23 54  1  0  0  0  0
 23 55  1  0  0  0  0
 24 26  1  0  0  0  0
 24 27  1  0  0  0  0
 24 57  1  0  0  0  0
 25 31  1  0  0  0  0
 25 59  1  0  0  0  0
 25 60  1  0  0  0  0
 26 61  1  0  0  0  0
 26 62  1  0  0  0  0
 28 32  1  0  0  0  0
 28 33  1  0  0  0  0
 28 34  1  0  0  0  0
 30 35  1  0  0  0  0
 30 64  1  0  0  0  0
 30 65  1  0  0  0  0
 32 66  1  0  0  0  0
 32 67  1  0  0  0  0
 32 68  1  0  0  0  0
 33 69  1  0  0  0  0
 33 70  1  0  0  0  0
 33 71  1  0  0  0  0
 34 72  1  0  0  0  0
 34 73  1  0  0  0  0
 34 74  1  0  0  0  0
 35 36  1  0  0  0  0
 35 75  1  0  0  0  0
 35 76  1  0  0  0  0
 36 37  2  0  0  0  0
 36 38  1  0  0  0  0
 37 39  1  0  0  0  0
 38 40  2  0  0  0  0
 38 79  1  0  0  0  0
 39 41  2  0  0  0  0
 39 80  1  0  0  0  0
 40 41  1  0  0  0  0
 40 81  1  0  0  0  0
M  END
> <PUBCHEM_COMPOUND_CID>
507466
> <PUBCHEM_COMPOUND_CANONICALIZED>
1
> <PUBCHEM_CACTVS_COMPLEXITY>
903
> <PUBCHEM_CACTVS_HBOND_ACCEPTOR>
8
> <PUBCHEM_CACTVS_HBOND_DONOR>
6
> <PUBCHEM_CACTVS_ROTATABLE_BOND>
17
> <PUBCHEM_CACTVS_SUBSKEYS>
AAADcfB7uABGAAAAAAAAAAAAAAAAAAAAAAAwAAAAAAAAAAABAAAAHgYQCAAADW7F2CSyCILABgSIAiHSGAACAAAgBQAIiIGIAokIYDKBkzGcYAAklgCIiAe8l4IOBAAAAACBAAAIAAAAAQIAAAAAAAAAAA==
> <PUBCHEM_IUPAC_OPENEYE_NAME>
(4S)-4-(tert-butoxycarbonylamino)-5-[[(1S)-1-[[(1R)-2-[2-(2,4-dichlorophenyl)ethylamino]-2-oxo-1-(sulfanylmethyl)ethyl]carbamoyl]-3-methyl-butyl]amino]-5-oxo-pentanoic acid
> <PUBCHEM_IUPAC_CAS_NAME>
(4S)-5-[[(2S)-1-[[(2R)-1-[2-(2,4-dichlorophenyl)ethylamino]-3-mercapto-1-oxopropan-2-yl]amino]-4-methyl-1-oxopentan-2-yl]amino]-4-[[(2-methylpropan-2-yl)oxy-oxomethyl]amino]-5-oxopentanoic acid
> <PUBCHEM_IUPAC_NAME_MARKUP>
(4<I>S</I>)-5-[[(2<I>S</I>)-1-[[(2<I>R</I>)-1-[2-(2,4-dichlorophenyl)ethylamino]-1-oxo-3-sulfanylpropan-2-yl]amino]-4-methyl-1-oxopentan-2-yl]amino]-4-[(2-methylpropan-2-yl)oxycarbonylamino]-5-oxopentanoic acid
> <PUBCHEM_IUPAC_NAME>
(4S)-5-[[(2S)-1-[[(2R)-1-[2-(2,4-dichlorophenyl)ethylamino]-1-oxo-3-sulfanylpropan-2-yl]amino]-4-methyl-1-oxopentan-2-yl]amino]-4-[(2-methylpropan-2-yl)oxycarbonylamino]-5-oxopentanoic acid
> <PUBCHEM_IUPAC_SYSTEMATIC_NAME>
(4S)-5-[[(2S)-1-[[(2R)-1-[2-(2,4-dichlorophenyl)ethylamino]-1-oxidanylidene-3-sulfanyl-propan-2-yl]amino]-4-methyl-1-oxidanylidene-pentan-2-yl]amino]-4-[(2-methylpropan-2-yl)oxycarbonylamino]-5-oxidanylidene-pentanoic acid
> <PUBCHEM_IUPAC_TRADITIONAL_NAME>
(4S)-4-(tert-butoxycarbonylamino)-5-[[(1S)-1-[[(1R)-2-[2-(2,4-dichlorophenyl)ethylamino]-2-keto-1-(mercaptomethyl)ethyl]carbamoyl]-3-methyl-butyl]amino]-5-keto-valeric acid
> <PUBCHEM_IUPAC_INCHI>
InChI=1S/C27H40Cl2N4O7S/c1-15(2)12-20(31-24(37)19(8-9-22(34)35)33-26(39)40-27(3,4)5)25(38)32-21(14-41)23(36)30-11-10-16-6-7-17(28)13-18(16)29/h6-7,13,15,19-21,41H,8-12,14H2,1-5H3,(H,30,36)(H,31,37)(H,32,38)(H,33,39)(H,34,35)/t19-,20-,21-/m0/s1
> <PUBCHEM_IUPAC_INCHIKEY>
HGKPBDNOEXDIGU-ACRUOGEOSA-N
> <PUBCHEM_XLOGP3_AA>
4.1
> <PUBCHEM_EXACT_MASS>
634.1994762
> <PUBCHEM_MOLECULAR_FORMULA>
C27H40Cl2N4O7S
> <PUBCHEM_MOLECULAR_WEIGHT>
635.6
> <PUBCHEM_OPENEYE_CAN_SMILES>
CC(C)CC(C(=O)NC(CS)C(=O)NCCC1=C(C=C(C=C1)Cl)Cl)NC(=O)C(CCC(=O)O)NC(=O)OC(C)(C)C
> <PUBCHEM_OPENEYE_ISO_SMILES>
CC(C)C[C@@H](C(=O)N[C@@H](CS)C(=O)NCCC1=C(C=C(C=C1)Cl)Cl)NC(=O)[C@H](CCC(=O)O)NC(=O)OC(C)(C)C
> <PUBCHEM_CACTVS_TPSA>
164
> <PUBCHEM_MONOISOTOPIC_WEIGHT>
634.1994762
> <PUBCHEM_TOTAL_CHARGE>
0
> <PUBCHEM_HEAVY_ATOM_COUNT>
41
> <PUBCHEM_ATOM_DEF_STEREO_COUNT>
3
> <PUBCHEM_ATOM_UDEF_STEREO_COUNT>
0
> <PUBCHEM_BOND_DEF_STEREO_COUNT>
0
> <PUBCHEM_BOND_UDEF_STEREO_COUNT>
0
> <PUBCHEM_ISOTOPIC_ATOM_COUNT>
0
> <PUBCHEM_COMPONENT_COUNT>
1
> <PUBCHEM_CACTVS_TAUTO_COUNT>
-1
> <PUBCHEM_COORDINATE_TYPE>
1
5
255
> <PUBCHEM_BONDANNOTATIONS>
15  11  5
24  12  6
18  13  5
36  37  8
36  38  8
37  39  8
38  40  8
39  41  8
40  41  8
$$$$
