507485
  -OEChem-10302200282D
 86 86  0     1  0  0  0  0  0999 V2000
    5.4641    4.5600    0.0000 F   0  0  0  0  0  0  0  0  0  0  0  0
    3.7320    4.5600    0.0000 F   0  0  0  0  0  0  0  0  0  0  0  0
    2.0000   -1.4400    0.0000 F   0  0  0  0  0  0  0  0  0  0  0  0
    5.4641   -1.4400    0.0000 F   0  0  0  0  0  0  0  0  0  0  0  0
    7.1962    1.5600    0.0000 O   0  0  0  0  0  0  0  0  0  0  0  0
    8.0622    1.0600    0.0000 O   0  0  0  0  0  0  0  0  0  0  0  0
   10.6603   -1.4400    0.0000 O   0  0  0  0  0  0  0  0  0  0  0  0
    6.3301    1.0600    0.0000 O   0  0  0  0  0  0  0  0  0  0  0  0
   11.5263    0.0600    0.0000 O   0  0  0  0  0  0  0  0  0  0  0  0
    2.8660   -4.9400    0.0000 O   0  0  0  0  0  0  0  0  0  0  0  0
    4.5981   -4.9400    0.0000 O   0  0  0  0  0  0  0  0  0  0  0  0
    8.9282    2.5600    0.0000 N   0  0  0  0  0  0  0  0  0  0  0  0
    6.3301    3.0600    0.0000 N   0  0  0  0  0  0  0  0  0  0  0  0
    9.7942    0.0600    0.0000 N   0  0  0  0  0  0  0  0  0  0  0  0
    4.5981    1.0600    0.0000 N   0  0  0  0  0  0  0  0  0  0  0  0
    8.0622    3.0600    0.0000 C   0  0  1  0  0  0  0  0  0  0  0  0
    8.0622    4.0600    0.0000 C   0  0  0  0  0  0  0  0  0  0  0  0
    8.9282    4.5600    0.0000 C   0  0  0  0  0  0  0  0  0  0  0  0
    9.7942    1.0600    0.0000 C   0  0  1  0  0  0  0  0  0  0  0  0
   10.6603    1.5600    0.0000 C   0  0  0  0  0  0  0  0  0  0  0  0
    7.1962    2.5600    0.0000 C   0  0  0  0  0  0  0  0  0  0  0  0
    8.9282    1.5600    0.0000 C   0  0  0  0  0  0  0  0  0  0  0  0
    8.9282    5.5600    0.0000 C   0  0  0  0  0  0  0  0  0  0  0  0
    9.7942    4.0600    0.0000 C   0  0  0  0  0  0  0  0  0  0  0  0
    5.4641    2.5600    0.0000 C   0  0  1  0  0  0  0  0  0  0  0  0
   11.5263    1.0600    0.0000 C   0  0  0  0  0  0  0  0  0  0  0  0
   10.6603    2.5600    0.0000 C   0  0  0  0  0  0  0  0  0  0  0  0
    4.5981    3.0600    0.0000 C   0  0  0  0  0  0  0  0  0  0  0  0
    5.4641    1.5600    0.0000 C   0  0  0  0  0  0  0  0  0  0  0  0
    4.5981    4.0600    0.0000 C   0  0  0  0  0  0  0  0  0  0  0  0
   10.6603   -0.4400    0.0000 C   0  0  0  0  0  0  0  0  0  0  0  0
    4.5981    0.0600    0.0000 C   0  0  0  0  0  0  0  0  0  0  0  0
    3.7320   -0.4400    0.0000 C   0  0  0  0  0  0  0  0  0  0  0  0
   11.5263   -1.9400    0.0000 C   0  0  0  0  0  0  0  0  0  0  0  0
   11.5263   -2.9400    0.0000 C   0  0  0  0  0  0  0  0  0  0  0  0
    3.7320   -1.4400    0.0000 C   0  0  0  0  0  0  0  0  0  0  0  0
   12.3923   -3.4400    0.0000 C   0  0  0  0  0  0  0  0  0  0  0  0
   10.6603   -3.4400    0.0000 C   0  0  0  0  0  0  0  0  0  0  0  0
    2.8660   -1.9400    0.0000 C   0  0  0  0  0  0  0  0  0  0  0  0
    4.5981   -1.9400    0.0000 C   0  0  0  0  0  0  0  0  0  0  0  0
    2.8660   -2.9400    0.0000 C   0  0  0  0  0  0  0  0  0  0  0  0
    4.5981   -2.9400    0.0000 C   0  0  0  0  0  0  0  0  0  0  0  0
    3.7320   -3.4400    0.0000 C   0  0  0  0  0  0  0  0  0  0  0  0
    3.7320   -4.4400    0.0000 C   0  0  0  0  0  0  0  0  0  0  0  0
    8.0622    2.4400    0.0000 H   0  0  0  0  0  0  0  0  0  0  0  0
    7.8501    4.6426    0.0000 H   0  0  0  0  0  0  0  0  0  0  0  0
    7.4516    3.9523    0.0000 H   0  0  0  0  0  0  0  0  0  0  0  0
    9.4651    4.8700    0.0000 H   0  0  0  0  0  0  0  0  0  0  0  0
    9.2573    0.7500    0.0000 H   0  0  0  0  0  0  0  0  0  0  0  0
   11.1972    1.8700    0.0000 H   0  0  0  0  0  0  0  0  0  0  0  0
    9.4651    2.8700    0.0000 H   0  0  0  0  0  0  0  0  0  0  0  0
    9.5482    5.5600    0.0000 H   0  0  0  0  0  0  0  0  0  0  0  0
    8.9282    6.1800    0.0000 H   0  0  0  0  0  0  0  0  0  0  0  0
    8.3082    5.5600    0.0000 H   0  0  0  0  0  0  0  0  0  0  0  0
    9.4842    3.5231    0.0000 H   0  0  0  0  0  0  0  0  0  0  0  0
   10.3312    3.7500    0.0000 H   0  0  0  0  0  0  0  0  0  0  0  0
   10.1042    4.5969    0.0000 H   0  0  0  0  0  0  0  0  0  0  0  0
    5.4641    3.1800    0.0000 H   0  0  0  0  0  0  0  0  0  0  0  0
    6.3301    3.6800    0.0000 H   0  0  0  0  0  0  0  0  0  0  0  0
   11.2163    0.5231    0.0000 H   0  0  0  0  0  0  0  0  0  0  0  0
   12.0632    0.7500    0.0000 H   0  0  0  0  0  0  0  0  0  0  0  0
   11.8363    1.5969    0.0000 H   0  0  0  0  0  0  0  0  0  0  0  0
   11.2803    2.5600    0.0000 H   0  0  0  0  0  0  0  0  0  0  0  0
   10.6603    3.1800    0.0000 H   0  0  0  0  0  0  0  0  0  0  0  0
   10.0403    2.5600    0.0000 H   0  0  0  0  0  0  0  0  0  0  0  0
    9.2573   -0.2500    0.0000 H   0  0  0  0  0  0  0  0  0  0  0  0
    3.9875    3.1677    0.0000 H   0  0  0  0  0  0  0  0  0  0  0  0
    4.3860    2.4774    0.0000 H   0  0  0  0  0  0  0  0  0  0  0  0
    4.5981    4.6800    0.0000 H   0  0  0  0  0  0  0  0  0  0  0  0
    4.0611    1.3700    0.0000 H   0  0  0  0  0  0  0  0  0  0  0  0
    4.8101   -0.5226    0.0000 H   0  0  0  0  0  0  0  0  0  0  0  0
    5.2087    0.1677    0.0000 H   0  0  0  0  0  0  0  0  0  0  0  0
    3.5200    0.1426    0.0000 H   0  0  0  0  0  0  0  0  0  0  0  0
    3.1215   -0.5477    0.0000 H   0  0  0  0  0  0  0  0  0  0  0  0
   12.1369   -2.0477    0.0000 H   0  0  0  0  0  0  0  0  0  0  0  0
   11.7383   -1.3574    0.0000 H   0  0  0  0  0  0  0  0  0  0  0  0
   12.0632   -2.6300    0.0000 H   0  0  0  0  0  0  0  0  0  0  0  0
   12.0823   -3.9769    0.0000 H   0  0  0  0  0  0  0  0  0  0  0  0
   12.9292   -3.7500    0.0000 H   0  0  0  0  0  0  0  0  0  0  0  0
   12.7023   -2.9031    0.0000 H   0  0  0  0  0  0  0  0  0  0  0  0
   10.3503   -2.9031    0.0000 H   0  0  0  0  0  0  0  0  0  0  0  0
   10.1233   -3.7500    0.0000 H   0  0  0  0  0  0  0  0  0  0  0  0
   10.9703   -3.9769    0.0000 H   0  0  0  0  0  0  0  0  0  0  0  0
    2.3291   -3.2500    0.0000 H   0  0  0  0  0  0  0  0  0  0  0  0
    5.1350   -3.2500    0.0000 H   0  0  0  0  0  0  0  0  0  0  0  0
    2.8660   -5.5600    0.0000 H   0  0  0  0  0  0  0  0  0  0  0  0
  1 30  1  0  0  0  0
  2 30  1  0  0  0  0
  3 39  1  0  0  0  0
  4 40  1  0  0  0  0
  5 21  2  0  0  0  0
  6 22  2  0  0  0  0
  7 31  1  0  0  0  0
  7 34  1  0  0  0  0
  8 29  2  0  0  0  0
  9 31  2  0  0  0  0
 10 44  1  0  0  0  0
 10 86  1  0  0  0  0
 11 44  2  0  0  0  0
 16 12  1  6  0  0  0
 12 22  1  0  0  0  0
 12 51  1  0  0  0  0
 13 21  1  0  0  0  0
 25 13  1  6  0  0  0
 13 59  1  0  0  0  0
 19 14  1  6  0  0  0
 14 31  1  0  0  0  0
 14 66  1  0  0  0  0
 15 29  1  0  0  0  0
 15 32  1  0  0  0  0
 15 70  1  0  0  0  0
 16 17  1  0  0  0  0
 16 21  1  0  0  0  0
 16 45  1  0  0  0  0
 17 18  1  0  0  0  0
 17 46  1  0  0  0  0
 17 47  1  0  0  0  0
 18 23  1  0  0  0  0
 18 24  1  0  0  0  0
 18 48  1  0  0  0  0
 19 20  1  0  0  0  0
 19 22  1  0  0  0  0
 19 49  1  0  0  0  0
 20 26  1  0  0  0  0
 20 27  1  0  0  0  0
 20 50  1  0  0  0  0
 23 52  1  0  0  0  0
 23 53  1  0  0  0  0
 23 54  1  0  0  0  0
 24 55  1  0  0  0  0
 24 56  1  0  0  0  0
 24 57  1  0  0  0  0
 25 28  1  0  0  0  0
 25 29  1  0  0  0  0
 25 58  1  0  0  0  0
 26 60  1  0  0  0  0
 26 61  1  0  0  0  0
 26 62  1  0  0  0  0
 27 63  1  0  0  0  0
 27 64  1  0  0  0  0
 27 65  1  0  0  0  0
 28 30  1  0  0  0  0
 28 67  1  0  0  0  0
 28 68  1  0  0  0  0
 30 69  1  0  0  0  0
 32 33  1  0  0  0  0
 32 71  1  0  0  0  0
 32 72  1  0  0  0  0
 33 36  1  0  0  0  0
 33 73  1  0  0  0  0
 33 74  1  0  0  0  0
 34 35  1  0  0  0  0
 34 75  1  0  0  0  0
 34 76  1  0  0  0  0
 35 37  1  0  0  0  0
 35 38  1  0  0  0  0
 35 77  1  0  0  0  0
 36 39  2  0  0  0  0
 36 40  1  0  0  0  0
 37 78  1  0  0  0  0
 37 79  1  0  0  0  0
 37 80  1  0  0  0  0
 38 81  1  0  0  0  0
 38 82  1  0  0  0  0
 38 83  1  0  0  0  0
 39 41  1  0  0  0  0
 40 42  2  0  0  0  0
 41 43  2  0  0  0  0
 41 84  1  0  0  0  0
 42 43  1  0  0  0  0
 42 85  1  0  0  0  0
 43 44  1  0  0  0  0
M  END
> <PUBCHEM_COMPOUND_CID>
507485
> <PUBCHEM_COMPOUND_CANONICALIZED>
1
> <PUBCHEM_CACTVS_COMPLEXITY>
958
> <PUBCHEM_CACTVS_HBOND_ACCEPTOR>
11
> <PUBCHEM_CACTVS_HBOND_DONOR>
5
> <PUBCHEM_CACTVS_ROTATABLE_BOND>
18
> <PUBCHEM_CACTVS_SUBSKEYS>
AAADcfB7ucAAAAAAAAAAAAAAAAAAAAAAAAAwAAAAAAAAAAABAAAAHwAQCAAADSjhmB4yCILABgCIAiHSGAACAAAkAAAAiIGICMkIZjKAlTGccQAk1gGImYeYyPCOQAAAAAAAAACAAAAAAAAAAAAAAAAAAA==
> <PUBCHEM_IUPAC_OPENEYE_NAME>
4-[2-[[(2S)-4,4-difluoro-2-[[(2S)-2-[[(2S)-2-(isobutoxycarbonylamino)-3-methyl-butanoyl]amino]-4-methyl-pentanoyl]amino]butanoyl]amino]ethyl]-3,5-difluoro-benzoic acid
> <PUBCHEM_IUPAC_CAS_NAME>
4-[2-[[(2S)-4,4-difluoro-2-[[(2S)-4-methyl-2-[[(2S)-3-methyl-2-[[2-methylpropoxy(oxo)methyl]amino]-1-oxobutyl]amino]-1-oxopentyl]amino]-1-oxobutyl]amino]ethyl]-3,5-difluorobenzoic acid
> <PUBCHEM_IUPAC_NAME_MARKUP>
4-[2-[[(2<I>S</I>)-4,4-difluoro-2-[[(2<I>S</I>)-4-methyl-2-[[(2<I>S</I>)-3-methyl-2-(2-methylpropoxycarbonylamino)butanoyl]amino]pentanoyl]amino]butanoyl]amino]ethyl]-3,5-difluorobenzoic acid
> <PUBCHEM_IUPAC_NAME>
4-[2-[[(2S)-4,4-difluoro-2-[[(2S)-4-methyl-2-[[(2S)-3-methyl-2-(2-methylpropoxycarbonylamino)butanoyl]amino]pentanoyl]amino]butanoyl]amino]ethyl]-3,5-difluorobenzoic acid
> <PUBCHEM_IUPAC_SYSTEMATIC_NAME>
4-[2-[[(2S)-4,4-bis(fluoranyl)-2-[[(2S)-4-methyl-2-[[(2S)-3-methyl-2-(2-methylpropoxycarbonylamino)butanoyl]amino]pentanoyl]amino]butanoyl]amino]ethyl]-3,5-bis(fluoranyl)benzoic acid
> <PUBCHEM_IUPAC_TRADITIONAL_NAME>
4-[2-[[(2S)-4,4-difluoro-2-[[(2S)-2-[[(2S)-2-(isobutoxycarbonylamino)-3-methyl-butanoyl]amino]-4-methyl-pentanoyl]amino]butanoyl]amino]ethyl]-3,5-difluoro-benzoic acid
> <PUBCHEM_IUPAC_INCHI>
InChI=1S/C29H42F4N4O7/c1-14(2)9-21(36-27(40)24(16(5)6)37-29(43)44-13-15(3)4)26(39)35-22(12-23(32)33)25(38)34-8-7-18-19(30)10-17(28(41)42)11-20(18)31/h10-11,14-16,21-24H,7-9,12-13H2,1-6H3,(H,34,38)(H,35,39)(H,36,40)(H,37,43)(H,41,42)/t21-,22-,24-/m0/s1
> <PUBCHEM_IUPAC_INCHIKEY>
PNZPPAFNQZUOHS-FIXSFTCYSA-N
> <PUBCHEM_XLOGP3_AA>
5.3
> <PUBCHEM_EXACT_MASS>
634.29896234
> <PUBCHEM_MOLECULAR_FORMULA>
C29H42F4N4O7
> <PUBCHEM_MOLECULAR_WEIGHT>
634.7
> <PUBCHEM_OPENEYE_CAN_SMILES>
CC(C)CC(C(=O)NC(CC(F)F)C(=O)NCCC1=C(C=C(C=C1F)C(=O)O)F)NC(=O)C(C(C)C)NC(=O)OCC(C)C
> <PUBCHEM_OPENEYE_ISO_SMILES>
CC(C)C[C@@H](C(=O)N[C@@H](CC(F)F)C(=O)NCCC1=C(C=C(C=C1F)C(=O)O)F)NC(=O)[C@H](C(C)C)NC(=O)OCC(C)C
> <PUBCHEM_CACTVS_TPSA>
163
> <PUBCHEM_MONOISOTOPIC_WEIGHT>
634.29896234
> <PUBCHEM_TOTAL_CHARGE>
0
> <PUBCHEM_HEAVY_ATOM_COUNT>
44
> <PUBCHEM_ATOM_DEF_STEREO_COUNT>
3
> <PUBCHEM_ATOM_UDEF_STEREO_COUNT>
0
> <PUBCHEM_BOND_DEF_STEREO_COUNT>
0
> <PUBCHEM_BOND_UDEF_STEREO_COUNT>
0
> <PUBCHEM_ISOTOPIC_ATOM_COUNT>
0
> <PUBCHEM_COMPONENT_COUNT>
1
> <PUBCHEM_CACTVS_TAUTO_COUNT>
-1
> <PUBCHEM_COORDINATE_TYPE>
1
5
255
> <PUBCHEM_BONDANNOTATIONS>
16  12  6
25  13  6
19  14  6
36  39  8
36  40  8
39  41  8
40  42  8
41  43  8
42  43  8
$$$$
