507416
  -OEChem-10302200282D
 87 87  0     1  0  0  0  0  0999 V2000
    4.5981   -4.0000    0.0000 Cl  0  0  0  0  0  0  0  0  0  0  0  0
    8.0622    0.0000    0.0000 S   0  0  0  0  0  0  0  0  0  0  0  0
    8.9282    0.5000    0.0000 O   0  0  0  0  0  0  0  0  0  0  0  0
    9.7942    0.0000    0.0000 O   0  0  0  0  0  0  0  0  0  0  0  0
    6.3301    3.0000    0.0000 O   0  0  0  0  0  0  0  0  0  0  0  0
   12.3923   -2.5000    0.0000 O   0  0  0  0  0  0  0  0  0  0  0  0
    2.0000    0.5000    0.0000 O   0  0  0  0  0  0  0  0  0  0  0  0
    2.8660   -1.0000    0.0000 O   0  0  0  0  0  0  0  0  0  0  0  0
   14.9904    0.0000    0.0000 O   0  0  0  0  0  0  0  0  0  0  0  0
   13.2583   -1.0000    0.0000 O   0  0  0  0  0  0  0  0  0  0  0  0
   14.1244    1.5000    0.0000 O   0  0  0  0  0  0  0  0  0  0  0  0
   10.6603    1.5000    0.0000 N   0  0  0  0  0  0  0  0  0  0  0  0
    8.0622    2.0000    0.0000 N   0  0  0  0  0  0  0  0  0  0  0  0
    5.4641    1.5000    0.0000 N   0  0  0  0  0  0  0  0  0  0  0  0
   11.5263   -1.0000    0.0000 N   0  0  0  0  0  0  0  0  0  0  0  0
    9.7942    2.0000    0.0000 C   0  0  1  0  0  0  0  0  0  0  0  0
    9.7942    3.0000    0.0000 C   0  0  0  0  0  0  0  0  0  0  0  0
   10.6603    3.5000    0.0000 C   0  0  0  0  0  0  0  0  0  0  0  0
    8.9282    1.5000    0.0000 C   0  0  0  0  0  0  0  0  0  0  0  0
   11.5263    0.0000    0.0000 C   0  0  2  0  0  0  0  0  0  0  0  0
   10.6603    4.5000    0.0000 C   0  0  0  0  0  0  0  0  0  0  0  0
   11.5263    3.0000    0.0000 C   0  0  0  0  0  0  0  0  0  0  0  0
    7.1962    1.5000    0.0000 C   0  0  2  0  0  0  0  0  0  0  0  0
    4.5981    0.0000    0.0000 C   0  0  3  0  0  0  0  0  0  0  0  0
   10.6603    0.5000    0.0000 C   0  0  0  0  0  0  0  0  0  0  0  0
    5.4641    0.5000    0.0000 C   0  0  0  0  0  0  0  0  0  0  0  0
   12.3923    0.5000    0.0000 C   0  0  0  0  0  0  0  0  0  0  0  0
    6.3301    2.0000    0.0000 C   0  0  0  0  0  0  0  0  0  0  0  0
    3.7320    0.5000    0.0000 C   0  0  0  0  0  0  0  0  0  0  0  0
    4.5981   -1.0000    0.0000 C   0  0  0  0  0  0  0  0  0  0  0  0
    7.1962    0.5000    0.0000 C   0  0  0  0  0  0  0  0  0  0  0  0
   13.2583    0.0000    0.0000 C   0  0  0  0  0  0  0  0  0  0  0  0
    5.4641   -1.5000    0.0000 C   0  0  0  0  0  0  0  0  0  0  0  0
    3.7320   -1.5000    0.0000 C   0  0  0  0  0  0  0  0  0  0  0  0
    2.8660    0.0000    0.0000 C   0  0  0  0  0  0  0  0  0  0  0  0
   12.3923   -1.5000    0.0000 C   0  0  0  0  0  0  0  0  0  0  0  0
   14.1244    0.5000    0.0000 C   0  0  0  0  0  0  0  0  0  0  0  0
    5.4641   -2.5000    0.0000 C   0  0  0  0  0  0  0  0  0  0  0  0
    3.7320   -2.5000    0.0000 C   0  0  0  0  0  0  0  0  0  0  0  0
   13.2583   -4.0000    0.0000 C   0  0  0  0  0  0  0  0  0  0  0  0
   13.2583   -3.0000    0.0000 C   0  0  0  0  0  0  0  0  0  0  0  0
    4.5981   -3.0000    0.0000 C   0  0  0  0  0  0  0  0  0  0  0  0
   14.1244   -4.5000    0.0000 C   0  0  0  0  0  0  0  0  0  0  0  0
   12.3923   -4.5000    0.0000 C   0  0  0  0  0  0  0  0  0  0  0  0
    9.7942    1.3800    0.0000 H   0  0  0  0  0  0  0  0  0  0  0  0
    9.5822    3.5826    0.0000 H   0  0  0  0  0  0  0  0  0  0  0  0
    9.1836    2.8923    0.0000 H   0  0  0  0  0  0  0  0  0  0  0  0
   11.1972    3.8100    0.0000 H   0  0  0  0  0  0  0  0  0  0  0  0
   11.1972    1.8100    0.0000 H   0  0  0  0  0  0  0  0  0  0  0  0
   12.0632   -0.3100    0.0000 H   0  0  0  0  0  0  0  0  0  0  0  0
   11.2803    4.5000    0.0000 H   0  0  0  0  0  0  0  0  0  0  0  0
   10.6603    5.1200    0.0000 H   0  0  0  0  0  0  0  0  0  0  0  0
   10.0403    4.5000    0.0000 H   0  0  0  0  0  0  0  0  0  0  0  0
   11.2163    2.4631    0.0000 H   0  0  0  0  0  0  0  0  0  0  0  0
   12.0632    2.6900    0.0000 H   0  0  0  0  0  0  0  0  0  0  0  0
   11.8363    3.5369    0.0000 H   0  0  0  0  0  0  0  0  0  0  0  0
    7.7331    1.1900    0.0000 H   0  0  0  0  0  0  0  0  0  0  0  0
    4.5981    0.6200    0.0000 H   0  0  0  0  0  0  0  0  0  0  0  0
    8.0622    2.6200    0.0000 H   0  0  0  0  0  0  0  0  0  0  0  0
    5.6762   -0.0826    0.0000 H   0  0  0  0  0  0  0  0  0  0  0  0
    6.0747    0.6077    0.0000 H   0  0  0  0  0  0  0  0  0  0  0  0
   12.7908    0.9749    0.0000 H   0  0  0  0  0  0  0  0  0  0  0  0
   11.9938    0.9749    0.0000 H   0  0  0  0  0  0  0  0  0  0  0  0
    4.1306    0.9749    0.0000 H   0  0  0  0  0  0  0  0  0  0  0  0
    3.3335    0.9749    0.0000 H   0  0  0  0  0  0  0  0  0  0  0  0
    4.9272    1.8100    0.0000 H   0  0  0  0  0  0  0  0  0  0  0  0
    6.5856    0.6077    0.0000 H   0  0  0  0  0  0  0  0  0  0  0  0
    6.9841   -0.0826    0.0000 H   0  0  0  0  0  0  0  0  0  0  0  0
   10.9893   -1.3100    0.0000 H   0  0  0  0  0  0  0  0  0  0  0  0
   12.8598   -0.4749    0.0000 H   0  0  0  0  0  0  0  0  0  0  0  0
   13.6569   -0.4749    0.0000 H   0  0  0  0  0  0  0  0  0  0  0  0
    6.0010   -1.1900    0.0000 H   0  0  0  0  0  0  0  0  0  0  0  0
    3.1951   -1.1900    0.0000 H   0  0  0  0  0  0  0  0  0  0  0  0
    6.0010   -2.8100    0.0000 H   0  0  0  0  0  0  0  0  0  0  0  0
    3.1951   -2.8100    0.0000 H   0  0  0  0  0  0  0  0  0  0  0  0
   13.7953   -3.6900    0.0000 H   0  0  0  0  0  0  0  0  0  0  0  0
    8.0622   -0.6200    0.0000 H   0  0  0  0  0  0  0  0  0  0  0  0
   13.8689   -3.1077    0.0000 H   0  0  0  0  0  0  0  0  0  0  0  0
   13.4704   -2.4174    0.0000 H   0  0  0  0  0  0  0  0  0  0  0  0
   13.8144   -5.0369    0.0000 H   0  0  0  0  0  0  0  0  0  0  0  0
   14.6613   -4.8100    0.0000 H   0  0  0  0  0  0  0  0  0  0  0  0
   14.4344   -3.9631    0.0000 H   0  0  0  0  0  0  0  0  0  0  0  0
   12.0823   -3.9631    0.0000 H   0  0  0  0  0  0  0  0  0  0  0  0
   11.8554   -4.8100    0.0000 H   0  0  0  0  0  0  0  0  0  0  0  0
   12.7023   -5.0369    0.0000 H   0  0  0  0  0  0  0  0  0  0  0  0
    2.0000    1.1200    0.0000 H   0  0  0  0  0  0  0  0  0  0  0  0
   15.5273    0.3100    0.0000 H   0  0  0  0  0  0  0  0  0  0  0  0
  1 42  1  0  0  0  0
  2 31  1  0  0  0  0
  2 77  1  0  0  0  0
  3 19  2  0  0  0  0
  4 25  2  0  0  0  0
  5 28  2  0  0  0  0
  6 36  1  0  0  0  0
  6 41  1  0  0  0  0
  7 35  1  0  0  0  0
  7 86  1  0  0  0  0
  8 35  2  0  0  0  0
  9 37  1  0  0  0  0
  9 87  1  0  0  0  0
 10 36  2  0  0  0  0
 11 37  2  0  0  0  0
 16 12  1  6  0  0  0
 12 25  1  0  0  0  0
 12 49  1  0  0  0  0
 13 19  1  0  0  0  0
 23 13  1  1  0  0  0
 13 59  1  0  0  0  0
 14 26  1  0  0  0  0
 14 28  1  0  0  0  0
 14 66  1  0  0  0  0
 20 15  1  6  0  0  0
 15 36  1  0  0  0  0
 15 69  1  0  0  0  0
 16 17  1  0  0  0  0
 16 19  1  0  0  0  0
 16 45  1  0  0  0  0
 17 18  1  0  0  0  0
 17 46  1  0  0  0  0
 17 47  1  0  0  0  0
 18 21  1  0  0  0  0
 18 22  1  0  0  0  0
 18 48  1  0  0  0  0
 20 25  1  0  0  0  0
 20 27  1  0  0  0  0
 20 50  1  0  0  0  0
 21 51  1  0  0  0  0
 21 52  1  0  0  0  0
 21 53  1  0  0  0  0
 22 54  1  0  0  0  0
 22 55  1  0  0  0  0
 22 56  1  0  0  0  0
 23 28  1  0  0  0  0
 23 31  1  0  0  0  0
 23 57  1  0  0  0  0
 24 26  1  0  0  0  0
 24 29  1  0  0  0  0
 24 30  1  0  0  0  0
 24 58  1  0  0  0  0
 26 60  1  0  0  0  0
 26 61  1  0  0  0  0
 27 32  1  0  0  0  0
 27 62  1  0  0  0  0
 27 63  1  0  0  0  0
 29 35  1  0  0  0  0
 29 64  1  0  0  0  0
 29 65  1  0  0  0  0
 30 33  2  0  0  0  0
 30 34  1  0  0  0  0
 31 67  1  0  0  0  0
 31 68  1  0  0  0  0
 32 37  1  0  0  0  0
 32 70  1  0  0  0  0
 32 71  1  0  0  0  0
 33 38  1  0  0  0  0
 33 72  1  0  0  0  0
 34 39  2  0  0  0  0
 34 73  1  0  0  0  0
 38 42  2  0  0  0  0
 38 74  1  0  0  0  0
 39 42  1  0  0  0  0
 39 75  1  0  0  0  0
 40 41  1  0  0  0  0
 40 43  1  0  0  0  0
 40 44  1  0  0  0  0
 40 76  1  0  0  0  0
 41 78  1  0  0  0  0
 41 79  1  0  0  0  0
 43 80  1  0  0  0  0
 43 81  1  0  0  0  0
 43 82  1  0  0  0  0
 44 83  1  0  0  0  0
 44 84  1  0  0  0  0
 44 85  1  0  0  0  0
M  END
> <PUBCHEM_COMPOUND_CID>
507416
> <PUBCHEM_COMPOUND_CANONICALIZED>
1
> <PUBCHEM_CACTVS_COMPLEXITY>
977
> <PUBCHEM_CACTVS_HBOND_ACCEPTOR>
10
> <PUBCHEM_CACTVS_HBOND_DONOR>
7
> <PUBCHEM_CACTVS_ROTATABLE_BOND>
20
> <PUBCHEM_CACTVS_SUBSKEYS>
AAADcfB7vABEAAAAAAAAAAAAAAAAAAAAAAAwAAAAAAAAAAABAAAAHgYQCAAADSrl2CayCILABgSIAiHSGAACAAAgBQAIiIGIAokIYDKBkzGcYAAklgCIiAe83+KOhAAAAAAAAAAIAAAAAAAAAAAAAAAAAA==
> <PUBCHEM_IUPAC_OPENEYE_NAME>
(4S)-5-[[(1S)-1-[[(1R)-2-[[3-carboxy-2-(4-chlorophenyl)propyl]amino]-2-oxo-1-(sulfanylmethyl)ethyl]carbamoyl]-3-methyl-butyl]amino]-4-(isobutoxycarbonylamino)-5-oxo-pentanoic acid
> <PUBCHEM_IUPAC_CAS_NAME>
(4S)-5-[[(2S)-1-[[(2R)-1-[[3-carboxy-2-(4-chlorophenyl)propyl]amino]-3-mercapto-1-oxopropan-2-yl]amino]-4-methyl-1-oxopentan-2-yl]amino]-4-[[2-methylpropoxy(oxo)methyl]amino]-5-oxopentanoic acid
> <PUBCHEM_IUPAC_NAME_MARKUP>
(4<I>S</I>)-5-[[(2<I>S</I>)-1-[[(2<I>R</I>)-1-[[3-carboxy-2-(4-chlorophenyl)propyl]amino]-1-oxo-3-sulfanylpropan-2-yl]amino]-4-methyl-1-oxopentan-2-yl]amino]-4-(2-methylpropoxycarbonylamino)-5-oxopentanoic acid
> <PUBCHEM_IUPAC_NAME>
(4S)-5-[[(2S)-1-[[(2R)-1-[[3-carboxy-2-(4-chlorophenyl)propyl]amino]-1-oxo-3-sulfanylpropan-2-yl]amino]-4-methyl-1-oxopentan-2-yl]amino]-4-(2-methylpropoxycarbonylamino)-5-oxopentanoic acid
> <PUBCHEM_IUPAC_SYSTEMATIC_NAME>
(4S)-5-[[(2S)-1-[[(2R)-1-[[2-(4-chlorophenyl)-4-oxidanyl-4-oxidanylidene-butyl]amino]-1-oxidanylidene-3-sulfanyl-propan-2-yl]amino]-4-methyl-1-oxidanylidene-pentan-2-yl]amino]-4-(2-methylpropoxycarbonylamino)-5-oxidanylidene-pentanoic acid
> <PUBCHEM_IUPAC_TRADITIONAL_NAME>
(4S)-5-[[(1S)-1-[[(1R)-2-[[3-carboxy-2-(4-chlorophenyl)propyl]amino]-2-keto-1-(mercaptomethyl)ethyl]carbamoyl]-3-methyl-butyl]amino]-4-(isobutoxycarbonylamino)-5-keto-valeric acid
> <PUBCHEM_IUPAC_INCHI>
InChI=1S/C29H43ClN4O9S/c1-16(2)11-22(32-27(40)21(9-10-24(35)36)34-29(42)43-14-17(3)4)28(41)33-23(15-44)26(39)31-13-19(12-25(37)38)18-5-7-20(30)8-6-18/h5-8,16-17,19,21-23,44H,9-15H2,1-4H3,(H,31,39)(H,32,40)(H,33,41)(H,34,42)(H,35,36)(H,37,38)/t19?,21-,22-,23-/m0/s1
> <PUBCHEM_IUPAC_INCHIKEY>
PBKPDLJAMMXFDH-UFLDAFBVSA-N
> <PUBCHEM_XLOGP3_AA>
3.1
> <PUBCHEM_EXACT_MASS>
658.2439278
> <PUBCHEM_MOLECULAR_FORMULA>
C29H43ClN4O9S
> <PUBCHEM_MOLECULAR_WEIGHT>
659.2
> <PUBCHEM_OPENEYE_CAN_SMILES>
CC(C)CC(C(=O)NC(CS)C(=O)NCC(CC(=O)O)C1=CC=C(C=C1)Cl)NC(=O)C(CCC(=O)O)NC(=O)OCC(C)C
> <PUBCHEM_OPENEYE_ISO_SMILES>
CC(C)C[C@@H](C(=O)N[C@@H](CS)C(=O)NCC(CC(=O)O)C1=CC=C(C=C1)Cl)NC(=O)[C@H](CCC(=O)O)NC(=O)OCC(C)C
> <PUBCHEM_CACTVS_TPSA>
201
> <PUBCHEM_MONOISOTOPIC_WEIGHT>
658.2439278
> <PUBCHEM_TOTAL_CHARGE>
0
> <PUBCHEM_HEAVY_ATOM_COUNT>
44
> <PUBCHEM_ATOM_DEF_STEREO_COUNT>
3
> <PUBCHEM_ATOM_UDEF_STEREO_COUNT>
1
> <PUBCHEM_BOND_DEF_STEREO_COUNT>
0
> <PUBCHEM_BOND_UDEF_STEREO_COUNT>
0
> <PUBCHEM_ISOTOPIC_ATOM_COUNT>
0
> <PUBCHEM_COMPONENT_COUNT>
1
> <PUBCHEM_CACTVS_TAUTO_COUNT>
-1
> <PUBCHEM_COORDINATE_TYPE>
1
5
255
> <PUBCHEM_BONDANNOTATIONS>
16  12  6
23  13  5
20  15  6
24  29  3
30  33  8
30  34  8
33  38  8
34  39  8
38  42  8
39  42  8
$$$$
