507460
  -OEChem-10302200282D
 97 97  0     1  0  0  0  0  0999 V2000
    7.1962   -2.0000    0.0000 S   0  0  0  0  0  0  0  0  0  0  0  0
    8.0622    6.5000    0.0000 S   0  0  0  0  0  0  0  0  0  0  0  0
    6.3301   -2.5000    0.0000 O   0  0  0  0  0  0  0  0  0  0  0  0
    6.3301   -3.5000    0.0000 O   0  0  0  0  0  0  0  0  0  0  0  0
    7.1962   -7.0000    0.0000 O   0  0  0  0  0  0  0  0  0  0  0  0
    5.4641    1.0000    0.0000 O   0  0  0  0  0  0  0  0  0  0  0  0
    3.7320   -8.0000    0.0000 O   0  0  0  0  0  0  0  0  0  0  0  0
    5.4641   -7.0000    0.0000 O   0  0  0  0  0  0  0  0  0  0  0  0
    2.8660   -6.5000    0.0000 O   0  0  0  0  0  0  0  0  0  0  0  0
    9.0622    6.5000    0.0000 O   0  0  0  0  0  0  0  0  0  0  0  0
    7.0622    6.5000    0.0000 O   0  0  0  0  0  0  0  0  0  0  0  0
    9.7942    7.5000    0.0000 O   0  0  0  0  0  0  0  0  0  0  0  0
    4.5981   -3.5000    0.0000 N   0  0  0  0  0  0  0  0  0  0  0  0
    5.4641   -1.0000    0.0000 N   0  0  0  0  0  0  0  0  0  0  0  0
    6.3301   -5.5000    0.0000 N   0  0  0  0  0  0  0  0  0  0  0  0
    7.1962    1.0000    0.0000 N   0  0  0  0  0  0  0  0  0  0  0  0
    8.0622    7.5000    0.0000 N   0  0  0  0  0  0  0  0  0  0  0  0
    3.7320   -2.0000    0.0000 C   0  0  0  0  0  0  0  0  0  0  0  0
    4.5981   -2.5000    0.0000 C   0  0  1  0  0  0  0  0  0  0  0  0
    2.8660   -2.5000    0.0000 C   0  0  0  0  0  0  0  0  0  0  0  0
    5.4641   -2.0000    0.0000 C   0  0  0  0  0  0  0  0  0  0  0  0
    2.0000   -2.0000    0.0000 C   0  0  0  0  0  0  0  0  0  0  0  0
    2.8660   -3.5000    0.0000 C   0  0  0  0  0  0  0  0  0  0  0  0
    5.4641   -5.0000    0.0000 C   0  0  2  0  0  0  0  0  0  0  0  0
    5.4641   -4.0000    0.0000 C   0  0  0  0  0  0  0  0  0  0  0  0
    4.5981   -5.5000    0.0000 C   0  0  0  0  0  0  0  0  0  0  0  0
    6.3301   -0.5000    0.0000 C   0  0  1  0  0  0  0  0  0  0  0  0
    4.5981   -6.5000    0.0000 C   0  0  0  0  0  0  0  0  0  0  0  0
    7.1962   -1.0000    0.0000 C   0  0  0  0  0  0  0  0  0  0  0  0
    6.3301    0.5000    0.0000 C   0  0  0  0  0  0  0  0  0  0  0  0
    7.1962    2.0000    0.0000 C   0  0  0  0  0  0  0  0  0  0  0  0
    8.0622    2.5000    0.0000 C   0  0  0  0  0  0  0  0  0  0  0  0
    6.3301   -6.5000    0.0000 C   0  0  0  0  0  0  0  0  0  0  0  0
    3.7320   -7.0000    0.0000 C   0  0  0  0  0  0  0  0  0  0  0  0
    8.0622    3.5000    0.0000 C   0  0  0  0  0  0  0  0  0  0  0  0
    8.0622   -8.5000    0.0000 C   0  0  0  0  0  0  0  0  0  0  0  0
    7.1962   -8.0000    0.0000 C   0  0  0  0  0  0  0  0  0  0  0  0
    7.1962    4.0000    0.0000 C   0  0  0  0  0  0  0  0  0  0  0  0
    8.9282    4.0000    0.0000 C   0  0  0  0  0  0  0  0  0  0  0  0
    8.0622    5.5000    0.0000 C   0  0  0  0  0  0  0  0  0  0  0  0
    7.1962    5.0000    0.0000 C   0  0  0  0  0  0  0  0  0  0  0  0
    8.9282    5.0000    0.0000 C   0  0  0  0  0  0  0  0  0  0  0  0
    8.0622   -9.5000    0.0000 C   0  0  0  0  0  0  0  0  0  0  0  0
    8.9282   -8.0000    0.0000 C   0  0  0  0  0  0  0  0  0  0  0  0
    8.9282    9.0000    0.0000 C   0  0  0  0  0  0  0  0  0  0  0  0
    8.9282    8.0000    0.0000 C   0  0  0  0  0  0  0  0  0  0  0  0
    9.7942    9.5000    0.0000 C   0  0  0  0  0  0  0  0  0  0  0  0
    8.0622    9.5000    0.0000 C   0  0  0  0  0  0  0  0  0  0  0  0
    4.1306   -1.5250    0.0000 H   0  0  0  0  0  0  0  0  0  0  0  0
    3.3335   -1.5250    0.0000 H   0  0  0  0  0  0  0  0  0  0  0  0
    5.1350   -2.8100    0.0000 H   0  0  0  0  0  0  0  0  0  0  0  0
    2.8660   -1.8800    0.0000 H   0  0  0  0  0  0  0  0  0  0  0  0
    4.0611   -3.8100    0.0000 H   0  0  0  0  0  0  0  0  0  0  0  0
    2.3100   -1.4631    0.0000 H   0  0  0  0  0  0  0  0  0  0  0  0
    1.4631   -1.6900    0.0000 H   0  0  0  0  0  0  0  0  0  0  0  0
    1.6900   -2.5369    0.0000 H   0  0  0  0  0  0  0  0  0  0  0  0
    2.2460   -3.5000    0.0000 H   0  0  0  0  0  0  0  0  0  0  0  0
    2.8660   -4.1200    0.0000 H   0  0  0  0  0  0  0  0  0  0  0  0
    3.4860   -3.5000    0.0000 H   0  0  0  0  0  0  0  0  0  0  0  0
    5.4641   -5.6200    0.0000 H   0  0  0  0  0  0  0  0  0  0  0  0
    4.3860   -4.9174    0.0000 H   0  0  0  0  0  0  0  0  0  0  0  0
    3.9875   -5.6077    0.0000 H   0  0  0  0  0  0  0  0  0  0  0  0
    5.7932   -0.1900    0.0000 H   0  0  0  0  0  0  0  0  0  0  0  0
    4.9272   -0.6900    0.0000 H   0  0  0  0  0  0  0  0  0  0  0  0
    6.8671   -5.1900    0.0000 H   0  0  0  0  0  0  0  0  0  0  0  0
    4.8101   -7.0826    0.0000 H   0  0  0  0  0  0  0  0  0  0  0  0
    5.2087   -6.3923    0.0000 H   0  0  0  0  0  0  0  0  0  0  0  0
    7.8067   -1.1077    0.0000 H   0  0  0  0  0  0  0  0  0  0  0  0
    7.4082   -0.4174    0.0000 H   0  0  0  0  0  0  0  0  0  0  0  0
    7.7331    0.6900    0.0000 H   0  0  0  0  0  0  0  0  0  0  0  0
    6.9841    2.5826    0.0000 H   0  0  0  0  0  0  0  0  0  0  0  0
    6.5856    1.8923    0.0000 H   0  0  0  0  0  0  0  0  0  0  0  0
    8.2742    1.9174    0.0000 H   0  0  0  0  0  0  0  0  0  0  0  0
    8.6728    2.6077    0.0000 H   0  0  0  0  0  0  0  0  0  0  0  0
    8.0622   -7.8800    0.0000 H   0  0  0  0  0  0  0  0  0  0  0  0
    6.5856   -7.8923    0.0000 H   0  0  0  0  0  0  0  0  0  0  0  0
    6.9841   -8.5826    0.0000 H   0  0  0  0  0  0  0  0  0  0  0  0
    7.7331   -2.3100    0.0000 H   0  0  0  0  0  0  0  0  0  0  0  0
    6.6592    3.6900    0.0000 H   0  0  0  0  0  0  0  0  0  0  0  0
    9.4651    3.6900    0.0000 H   0  0  0  0  0  0  0  0  0  0  0  0
    6.6592    5.3100    0.0000 H   0  0  0  0  0  0  0  0  0  0  0  0
    9.4651    5.3100    0.0000 H   0  0  0  0  0  0  0  0  0  0  0  0
    7.4422   -9.5000    0.0000 H   0  0  0  0  0  0  0  0  0  0  0  0
    8.0622  -10.1200    0.0000 H   0  0  0  0  0  0  0  0  0  0  0  0
    8.6822   -9.5000    0.0000 H   0  0  0  0  0  0  0  0  0  0  0  0
    9.2382   -8.5369    0.0000 H   0  0  0  0  0  0  0  0  0  0  0  0
    9.4651   -7.6900    0.0000 H   0  0  0  0  0  0  0  0  0  0  0  0
    8.6182   -7.4631    0.0000 H   0  0  0  0  0  0  0  0  0  0  0  0
    9.4651    8.6900    0.0000 H   0  0  0  0  0  0  0  0  0  0  0  0
    7.5252    7.8100    0.0000 H   0  0  0  0  0  0  0  0  0  0  0  0
    3.1951   -8.3100    0.0000 H   0  0  0  0  0  0  0  0  0  0  0  0
   10.1042    8.9631    0.0000 H   0  0  0  0  0  0  0  0  0  0  0  0
   10.3312    9.8100    0.0000 H   0  0  0  0  0  0  0  0  0  0  0  0
    9.4842   10.0369    0.0000 H   0  0  0  0  0  0  0  0  0  0  0  0
    8.3722   10.0369    0.0000 H   0  0  0  0  0  0  0  0  0  0  0  0
    7.5252    9.8100    0.0000 H   0  0  0  0  0  0  0  0  0  0  0  0
    7.7522    8.9631    0.0000 H   0  0  0  0  0  0  0  0  0  0  0  0
  1 29  1  0  0  0  0
  1 78  1  0  0  0  0
  2 10  2  0  0  0  0
  2 11  2  0  0  0  0
  2 17  1  0  0  0  0
  2 40  1  0  0  0  0
  3 21  2  0  0  0  0
  4 25  2  0  0  0  0
  5 33  1  0  0  0  0
  5 37  1  0  0  0  0
  6 30  2  0  0  0  0
  7 34  1  0  0  0  0
  7 91  1  0  0  0  0
  8 33  2  0  0  0  0
  9 34  2  0  0  0  0
 12 46  2  0  0  0  0
 19 13  1  1  0  0  0
 13 25  1  0  0  0  0
 13 53  1  0  0  0  0
 14 21  1  0  0  0  0
 27 14  1  6  0  0  0
 14 64  1  0  0  0  0
 24 15  1  1  0  0  0
 15 33  1  0  0  0  0
 15 65  1  0  0  0  0
 16 30  1  0  0  0  0
 16 31  1  0  0  0  0
 16 70  1  0  0  0  0
 17 46  1  0  0  0  0
 17 90  1  0  0  0  0
 18 19  1  0  0  0  0
 18 20  1  0  0  0  0
 18 49  1  0  0  0  0
 18 50  1  0  0  0  0
 19 21  1  0  0  0  0
 19 51  1  0  0  0  0
 20 22  1  0  0  0  0
 20 23  1  0  0  0  0
 20 52  1  0  0  0  0
 22 54  1  0  0  0  0
 22 55  1  0  0  0  0
 22 56  1  0  0  0  0
 23 57  1  0  0  0  0
 23 58  1  0  0  0  0
 23 59  1  0  0  0  0
 24 25  1  0  0  0  0
 24 26  1  0  0  0  0
 24 60  1  0  0  0  0
 26 28  1  0  0  0  0
 26 61  1  0  0  0  0
 26 62  1  0  0  0  0
 27 29  1  0  0  0  0
 27 30  1  0  0  0  0
 27 63  1  0  0  0  0
 28 34  1  0  0  0  0
 28 66  1  0  0  0  0
 28 67  1  0  0  0  0
 29 68  1  0  0  0  0
 29 69  1  0  0  0  0
 31 32  1  0  0  0  0
 31 71  1  0  0  0  0
 31 72  1  0  0  0  0
 32 35  1  0  0  0  0
 32 73  1  0  0  0  0
 32 74  1  0  0  0  0
 35 38  2  0  0  0  0
 35 39  1  0  0  0  0
 36 37  1  0  0  0  0
 36 43  1  0  0  0  0
 36 44  1  0  0  0  0
 36 75  1  0  0  0  0
 37 76  1  0  0  0  0
 37 77  1  0  0  0  0
 38 41  1  0  0  0  0
 38 79  1  0  0  0  0
 39 42  2  0  0  0  0
 39 80  1  0  0  0  0
 40 41  2  0  0  0  0
 40 42  1  0  0  0  0
 41 81  1  0  0  0  0
 42 82  1  0  0  0  0
 43 83  1  0  0  0  0
 43 84  1  0  0  0  0
 43 85  1  0  0  0  0
 44 86  1  0  0  0  0
 44 87  1  0  0  0  0
 44 88  1  0  0  0  0
 45 46  1  0  0  0  0
 45 47  1  0  0  0  0
 45 48  1  0  0  0  0
 45 89  1  0  0  0  0
 47 92  1  0  0  0  0
 47 93  1  0  0  0  0
 47 94  1  0  0  0  0
 48 95  1  0  0  0  0
 48 96  1  0  0  0  0
 48 97  1  0  0  0  0
M  END
> <PUBCHEM_COMPOUND_CID>
507460
> <PUBCHEM_COMPOUND_CANONICALIZED>
1
> <PUBCHEM_CACTVS_COMPLEXITY>
1200
> <PUBCHEM_CACTVS_HBOND_ACCEPTOR>
11
> <PUBCHEM_CACTVS_HBOND_DONOR>
7
> <PUBCHEM_CACTVS_ROTATABLE_BOND>
21
> <PUBCHEM_CACTVS_SUBSKEYS>
AAADcfB7vABgAAAAAAAAAAAAAAAAAAAAAAAwAAAAAAAAAAABAAAAHgQQSAAADSjl2AayCYLABgaIAiHSGHBCABAgAAAIiJmIAIkIYDKAkTGcYAAklgCIiAe8l4IOEAAAAAAAAAAgAAAAAAAAAAAAAAAAAA==
> <PUBCHEM_IUPAC_OPENEYE_NAME>
(4S)-4-(isobutoxycarbonylamino)-5-[[(1S)-3-methyl-1-[[(1R)-2-[2-[4-(2-methylpropanoylsulfamoyl)phenyl]ethylamino]-2-oxo-1-(sulfanylmethyl)ethyl]carbamoyl]butyl]amino]-5-oxo-pentanoic acid
> <PUBCHEM_IUPAC_CAS_NAME>
(4S)-5-[[(2S)-1-[[(2R)-3-mercapto-1-[2-[4-[(2-methyl-1-oxopropyl)sulfamoyl]phenyl]ethylamino]-1-oxopropan-2-yl]amino]-4-methyl-1-oxopentan-2-yl]amino]-4-[[2-methylpropoxy(oxo)methyl]amino]-5-oxopentanoic acid
> <PUBCHEM_IUPAC_NAME_MARKUP>
(4<I>S</I>)-5-[[(2<I>S</I>)-4-methyl-1-[[(2<I>R</I>)-1-[2-[4-(2-methylpropanoylsulfamoyl)phenyl]ethylamino]-1-oxo-3-sulfanylpropan-2-yl]amino]-1-oxopentan-2-yl]amino]-4-(2-methylpropoxycarbonylamino)-5-oxopentanoic acid
> <PUBCHEM_IUPAC_NAME>
(4S)-5-[[(2S)-4-methyl-1-[[(2R)-1-[2-[4-(2-methylpropanoylsulfamoyl)phenyl]ethylamino]-1-oxo-3-sulfanylpropan-2-yl]amino]-1-oxopentan-2-yl]amino]-4-(2-methylpropoxycarbonylamino)-5-oxopentanoic acid
> <PUBCHEM_IUPAC_SYSTEMATIC_NAME>
(4S)-5-[[(2S)-4-methyl-1-[[(2R)-1-[2-[4-(2-methylpropanoylsulfamoyl)phenyl]ethylamino]-1-oxidanylidene-3-sulfanyl-propan-2-yl]amino]-1-oxidanylidene-pentan-2-yl]amino]-4-(2-methylpropoxycarbonylamino)-5-oxidanylidene-pentanoic acid
> <PUBCHEM_IUPAC_TRADITIONAL_NAME>
(4S)-4-(isobutoxycarbonylamino)-5-[[(1S)-1-[[(1R)-2-[2-[4-(isobutyrylsulfamoyl)phenyl]ethylamino]-2-keto-1-(mercaptomethyl)ethyl]carbamoyl]-3-methyl-butyl]amino]-5-keto-valeric acid
> <PUBCHEM_IUPAC_INCHI>
InChI=1S/C31H49N5O10S2/c1-18(2)15-24(33-29(41)23(11-12-26(37)38)35-31(43)46-16-19(3)4)30(42)34-25(17-47)28(40)32-14-13-21-7-9-22(10-8-21)48(44,45)36-27(39)20(5)6/h7-10,18-20,23-25,47H,11-17H2,1-6H3,(H,32,40)(H,33,41)(H,34,42)(H,35,43)(H,36,39)(H,37,38)/t23-,24-,25-/m0/s1
> <PUBCHEM_IUPAC_INCHIKEY>
SDSBUPDYHHKXAE-SDHOMARFSA-N
> <PUBCHEM_XLOGP3_AA>
3
> <PUBCHEM_EXACT_MASS>
715.29208512
> <PUBCHEM_MOLECULAR_FORMULA>
C31H49N5O10S2
> <PUBCHEM_MOLECULAR_WEIGHT>
715.9
> <PUBCHEM_OPENEYE_CAN_SMILES>
CC(C)CC(C(=O)NC(CS)C(=O)NCCC1=CC=C(C=C1)S(=O)(=O)NC(=O)C(C)C)NC(=O)C(CCC(=O)O)NC(=O)OCC(C)C
> <PUBCHEM_OPENEYE_ISO_SMILES>
CC(C)C[C@@H](C(=O)N[C@@H](CS)C(=O)NCCC1=CC=C(C=C1)S(=O)(=O)NC(=O)C(C)C)NC(=O)[C@H](CCC(=O)O)NC(=O)OCC(C)C
> <PUBCHEM_CACTVS_TPSA>
236
> <PUBCHEM_MONOISOTOPIC_WEIGHT>
715.29208512
> <PUBCHEM_TOTAL_CHARGE>
0
> <PUBCHEM_HEAVY_ATOM_COUNT>
48
> <PUBCHEM_ATOM_DEF_STEREO_COUNT>
3
> <PUBCHEM_ATOM_UDEF_STEREO_COUNT>
0
> <PUBCHEM_BOND_DEF_STEREO_COUNT>
0
> <PUBCHEM_BOND_UDEF_STEREO_COUNT>
0
> <PUBCHEM_ISOTOPIC_ATOM_COUNT>
0
> <PUBCHEM_COMPONENT_COUNT>
1
> <PUBCHEM_CACTVS_TAUTO_COUNT>
-1
> <PUBCHEM_COORDINATE_TYPE>
1
5
255
> <PUBCHEM_BONDANNOTATIONS>
19  13  5
27  14  6
24  15  5
35  38  8
35  39  8
38  41  8
39  42  8
40  41  8
40  42  8
$$$$
