507473
  -OEChem-10302200282D
 89 89  0     1  0  0  0  0  0999 V2000
    5.4641    0.5000    0.0000 S   0  0  0  0  0  0  0  0  0  0  0  0
    6.3301    1.0000    0.0000 O   0  0  0  0  0  0  0  0  0  0  0  0
    6.3301    2.0000    0.0000 O   0  0  0  0  0  0  0  0  0  0  0  0
    5.4641    5.5000    0.0000 O   0  0  0  0  0  0  0  0  0  0  0  0
    7.1962   -2.5000    0.0000 O   0  0  0  0  0  0  0  0  0  0  0  0
    8.9282    6.5000    0.0000 O   0  0  0  0  0  0  0  0  0  0  0  0
    7.1962    5.5000    0.0000 O   0  0  0  0  0  0  0  0  0  0  0  0
    9.7942    5.0000    0.0000 O   0  0  0  0  0  0  0  0  0  0  0  0
    2.8660   -5.0000    0.0000 O   0  0  0  0  0  0  0  0  0  0  0  0
    6.3301   -7.0000    0.0000 O   0  0  0  0  0  0  0  0  0  0  0  0
    8.0622    2.0000    0.0000 N   0  0  0  0  0  0  0  0  0  0  0  0
    7.1962   -0.5000    0.0000 N   0  0  0  0  0  0  0  0  0  0  0  0
    6.3301    4.0000    0.0000 N   0  0  0  0  0  0  0  0  0  0  0  0
    5.4641   -2.5000    0.0000 N   0  0  0  0  0  0  0  0  0  0  0  0
    8.9282    0.5000    0.0000 C   0  0  0  0  0  0  0  0  0  0  0  0
    8.0622    1.0000    0.0000 C   0  0  1  0  0  0  0  0  0  0  0  0
    9.7942    1.0000    0.0000 C   0  0  0  0  0  0  0  0  0  0  0  0
    7.1962    0.5000    0.0000 C   0  0  0  0  0  0  0  0  0  0  0  0
    7.1962    3.5000    0.0000 C   0  0  2  0  0  0  0  0  0  0  0  0
   10.6603    0.5000    0.0000 C   0  0  0  0  0  0  0  0  0  0  0  0
    9.7942    2.0000    0.0000 C   0  0  0  0  0  0  0  0  0  0  0  0
    7.1962    2.5000    0.0000 C   0  0  0  0  0  0  0  0  0  0  0  0
    8.0622    4.0000    0.0000 C   0  0  0  0  0  0  0  0  0  0  0  0
    6.3301   -1.0000    0.0000 C   0  0  1  0  0  0  0  0  0  0  0  0
    8.0622    5.0000    0.0000 C   0  0  0  0  0  0  0  0  0  0  0  0
    5.4641   -0.5000    0.0000 C   0  0  0  0  0  0  0  0  0  0  0  0
    6.3301   -2.0000    0.0000 C   0  0  0  0  0  0  0  0  0  0  0  0
    5.4641   -3.5000    0.0000 C   0  0  0  0  0  0  0  0  0  0  0  0
    6.3301    5.0000    0.0000 C   0  0  0  0  0  0  0  0  0  0  0  0
    4.5981   -4.0000    0.0000 C   0  0  0  0  0  0  0  0  0  0  0  0
    8.9282    5.5000    0.0000 C   0  0  0  0  0  0  0  0  0  0  0  0
    4.5981    7.0000    0.0000 C   0  0  0  0  0  0  0  0  0  0  0  0
    5.4641    6.5000    0.0000 C   0  0  0  0  0  0  0  0  0  0  0  0
    4.5981   -5.0000    0.0000 C   0  0  0  0  0  0  0  0  0  0  0  0
    3.7320   -5.5000    0.0000 C   0  0  0  0  0  0  0  0  0  0  0  0
    4.5981    8.0000    0.0000 C   0  0  0  0  0  0  0  0  0  0  0  0
    3.7320    6.5000    0.0000 C   0  0  0  0  0  0  0  0  0  0  0  0
    5.4641   -5.5000    0.0000 C   0  0  0  0  0  0  0  0  0  0  0  0
    5.4641   -6.5000    0.0000 C   0  0  0  0  0  0  0  0  0  0  0  0
    3.7320   -6.5000    0.0000 C   0  0  0  0  0  0  0  0  0  0  0  0
    4.5981   -7.0000    0.0000 C   0  0  0  0  0  0  0  0  0  0  0  0
    2.0000   -5.5000    0.0000 C   0  0  0  0  0  0  0  0  0  0  0  0
    6.3301   -8.0000    0.0000 C   0  0  0  0  0  0  0  0  0  0  0  0
    8.5297    0.0251    0.0000 H   0  0  0  0  0  0  0  0  0  0  0  0
    9.3267    0.0251    0.0000 H   0  0  0  0  0  0  0  0  0  0  0  0
    7.5252    1.3100    0.0000 H   0  0  0  0  0  0  0  0  0  0  0  0
    9.2573    1.3100    0.0000 H   0  0  0  0  0  0  0  0  0  0  0  0
    8.5991    2.3100    0.0000 H   0  0  0  0  0  0  0  0  0  0  0  0
    6.6592    3.1900    0.0000 H   0  0  0  0  0  0  0  0  0  0  0  0
   10.3503   -0.0369    0.0000 H   0  0  0  0  0  0  0  0  0  0  0  0
   11.1972    0.1900    0.0000 H   0  0  0  0  0  0  0  0  0  0  0  0
   10.9703    1.0369    0.0000 H   0  0  0  0  0  0  0  0  0  0  0  0
   10.4142    2.0000    0.0000 H   0  0  0  0  0  0  0  0  0  0  0  0
    9.7942    2.6200    0.0000 H   0  0  0  0  0  0  0  0  0  0  0  0
    9.1742    2.0000    0.0000 H   0  0  0  0  0  0  0  0  0  0  0  0
    8.2742    3.4174    0.0000 H   0  0  0  0  0  0  0  0  0  0  0  0
    8.6728    4.1077    0.0000 H   0  0  0  0  0  0  0  0  0  0  0  0
    6.8671   -1.3100    0.0000 H   0  0  0  0  0  0  0  0  0  0  0  0
    7.7331   -0.8100    0.0000 H   0  0  0  0  0  0  0  0  0  0  0  0
    5.7932    3.6900    0.0000 H   0  0  0  0  0  0  0  0  0  0  0  0
    7.8501    5.5826    0.0000 H   0  0  0  0  0  0  0  0  0  0  0  0
    7.4516    4.8923    0.0000 H   0  0  0  0  0  0  0  0  0  0  0  0
    4.8535   -0.3923    0.0000 H   0  0  0  0  0  0  0  0  0  0  0  0
    5.2520   -1.0826    0.0000 H   0  0  0  0  0  0  0  0  0  0  0  0
    4.9272   -2.1900    0.0000 H   0  0  0  0  0  0  0  0  0  0  0  0
    5.6762   -4.0826    0.0000 H   0  0  0  0  0  0  0  0  0  0  0  0
    6.0747   -3.3923    0.0000 H   0  0  0  0  0  0  0  0  0  0  0  0
    4.3860   -3.4174    0.0000 H   0  0  0  0  0  0  0  0  0  0  0  0
    3.9875   -4.1077    0.0000 H   0  0  0  0  0  0  0  0  0  0  0  0
    4.5981    6.3800    0.0000 H   0  0  0  0  0  0  0  0  0  0  0  0
    6.0747    6.3923    0.0000 H   0  0  0  0  0  0  0  0  0  0  0  0
    5.6762    7.0826    0.0000 H   0  0  0  0  0  0  0  0  0  0  0  0
    4.9272    0.8100    0.0000 H   0  0  0  0  0  0  0  0  0  0  0  0
    5.2181    8.0000    0.0000 H   0  0  0  0  0  0  0  0  0  0  0  0
    4.5981    8.6200    0.0000 H   0  0  0  0  0  0  0  0  0  0  0  0
    3.9781    8.0000    0.0000 H   0  0  0  0  0  0  0  0  0  0  0  0
    3.4220    7.0369    0.0000 H   0  0  0  0  0  0  0  0  0  0  0  0
    3.1951    6.1900    0.0000 H   0  0  0  0  0  0  0  0  0  0  0  0
    4.0420    5.9631    0.0000 H   0  0  0  0  0  0  0  0  0  0  0  0
    6.0010   -5.1900    0.0000 H   0  0  0  0  0  0  0  0  0  0  0  0
    3.1951   -6.8100    0.0000 H   0  0  0  0  0  0  0  0  0  0  0  0
    9.4651    6.8100    0.0000 H   0  0  0  0  0  0  0  0  0  0  0  0
    4.5981   -7.6200    0.0000 H   0  0  0  0  0  0  0  0  0  0  0  0
    1.6900   -4.9631    0.0000 H   0  0  0  0  0  0  0  0  0  0  0  0
    1.4631   -5.8100    0.0000 H   0  0  0  0  0  0  0  0  0  0  0  0
    2.3100   -6.0369    0.0000 H   0  0  0  0  0  0  0  0  0  0  0  0
    5.7101   -8.0000    0.0000 H   0  0  0  0  0  0  0  0  0  0  0  0
    6.3301   -8.6200    0.0000 H   0  0  0  0  0  0  0  0  0  0  0  0
    6.9501   -8.0000    0.0000 H   0  0  0  0  0  0  0  0  0  0  0  0
  1 26  1  0  0  0  0
  1 73  1  0  0  0  0
  2 18  2  0  0  0  0
  3 22  2  0  0  0  0
  4 29  1  0  0  0  0
  4 33  1  0  0  0  0
  5 27  2  0  0  0  0
  6 31  1  0  0  0  0
  6 82  1  0  0  0  0
  7 29  2  0  0  0  0
  8 31  2  0  0  0  0
  9 35  1  0  0  0  0
  9 42  1  0  0  0  0
 10 39  1  0  0  0  0
 10 43  1  0  0  0  0
 16 11  1  1  0  0  0
 11 22  1  0  0  0  0
 11 48  1  0  0  0  0
 12 18  1  0  0  0  0
 24 12  1  6  0  0  0
 12 59  1  0  0  0  0
 19 13  1  1  0  0  0
 13 29  1  0  0  0  0
 13 60  1  0  0  0  0
 14 27  1  0  0  0  0
 14 28  1  0  0  0  0
 14 65  1  0  0  0  0
 15 16  1  0  0  0  0
 15 17  1  0  0  0  0
 15 44  1  0  0  0  0
 15 45  1  0  0  0  0
 16 18  1  0  0  0  0
 16 46  1  0  0  0  0
 17 20  1  0  0  0  0
 17 21  1  0  0  0  0
 17 47  1  0  0  0  0
 19 22  1  0  0  0  0
 19 23  1  0  0  0  0
 19 49  1  0  0  0  0
 20 50  1  0  0  0  0
 20 51  1  0  0  0  0
 20 52  1  0  0  0  0
 21 53  1  0  0  0  0
 21 54  1  0  0  0  0
 21 55  1  0  0  0  0
 23 25  1  0  0  0  0
 23 56  1  0  0  0  0
 23 57  1  0  0  0  0
 24 26  1  0  0  0  0
 24 27  1  0  0  0  0
 24 58  1  0  0  0  0
 25 31  1  0  0  0  0
 25 61  1  0  0  0  0
 25 62  1  0  0  0  0
 26 63  1  0  0  0  0
 26 64  1  0  0  0  0
 28 30  1  0  0  0  0
 28 66  1  0  0  0  0
 28 67  1  0  0  0  0
 30 34  1  0  0  0  0
 30 68  1  0  0  0  0
 30 69  1  0  0  0  0
 32 33  1  0  0  0  0
 32 36  1  0  0  0  0
 32 37  1  0  0  0  0
 32 70  1  0  0  0  0
 33 71  1  0  0  0  0
 33 72  1  0  0  0  0
 34 35  2  0  0  0  0
 34 38  1  0  0  0  0
 35 40  1  0  0  0  0
 36 74  1  0  0  0  0
 36 75  1  0  0  0  0
 36 76  1  0  0  0  0
 37 77  1  0  0  0  0
 37 78  1  0  0  0  0
 37 79  1  0  0  0  0
 38 39  2  0  0  0  0
 38 80  1  0  0  0  0
 39 41  1  0  0  0  0
 40 41  2  0  0  0  0
 40 81  1  0  0  0  0
 41 83  1  0  0  0  0
 42 84  1  0  0  0  0
 42 85  1  0  0  0  0
 42 86  1  0  0  0  0
 43 87  1  0  0  0  0
 43 88  1  0  0  0  0
 43 89  1  0  0  0  0
M  END
> <PUBCHEM_COMPOUND_CID>
507473
> <PUBCHEM_COMPOUND_CANONICALIZED>
1
> <PUBCHEM_CACTVS_COMPLEXITY>
905
> <PUBCHEM_CACTVS_HBOND_ACCEPTOR>
10
> <PUBCHEM_CACTVS_HBOND_DONOR>
6
> <PUBCHEM_CACTVS_ROTATABLE_BOND>
20
> <PUBCHEM_CACTVS_SUBSKEYS>
AAADcfB7vABAAAAAAAAAAAAAAAAAAAAAAAAwAAAAAAAAAAABAAAAHgQQCAAADSzl2AayDoLABgSIAiHSGAACCAAgIAAIiIGOCIkMZjKEsTuccCAk1hGIqAf817IOAQABAAAIAAACAAIAABAAAAAAAAAAAA==
> <PUBCHEM_IUPAC_OPENEYE_NAME>
(4S)-5-[[(1S)-1-[[(1R)-2-[2-(2,5-dimethoxyphenyl)ethylamino]-2-oxo-1-(sulfanylmethyl)ethyl]carbamoyl]-3-methyl-butyl]amino]-4-(isobutoxycarbonylamino)-5-oxo-pentanoic acid
> <PUBCHEM_IUPAC_CAS_NAME>
(4S)-5-[[(2S)-1-[[(2R)-1-[2-(2,5-dimethoxyphenyl)ethylamino]-3-mercapto-1-oxopropan-2-yl]amino]-4-methyl-1-oxopentan-2-yl]amino]-4-[[2-methylpropoxy(oxo)methyl]amino]-5-oxopentanoic acid
> <PUBCHEM_IUPAC_NAME_MARKUP>
(4<I>S</I>)-5-[[(2<I>S</I>)-1-[[(2<I>R</I>)-1-[2-(2,5-dimethoxyphenyl)ethylamino]-1-oxo-3-sulfanylpropan-2-yl]amino]-4-methyl-1-oxopentan-2-yl]amino]-4-(2-methylpropoxycarbonylamino)-5-oxopentanoic acid
> <PUBCHEM_IUPAC_NAME>
(4S)-5-[[(2S)-1-[[(2R)-1-[2-(2,5-dimethoxyphenyl)ethylamino]-1-oxo-3-sulfanylpropan-2-yl]amino]-4-methyl-1-oxopentan-2-yl]amino]-4-(2-methylpropoxycarbonylamino)-5-oxopentanoic acid
> <PUBCHEM_IUPAC_SYSTEMATIC_NAME>
(4S)-5-[[(2S)-1-[[(2R)-1-[2-(2,5-dimethoxyphenyl)ethylamino]-1-oxidanylidene-3-sulfanyl-propan-2-yl]amino]-4-methyl-1-oxidanylidene-pentan-2-yl]amino]-4-(2-methylpropoxycarbonylamino)-5-oxidanylidene-pentanoic acid
> <PUBCHEM_IUPAC_TRADITIONAL_NAME>
(4S)-5-[[(1S)-1-[[(1R)-2-[2-(2,5-dimethoxyphenyl)ethylamino]-2-keto-1-(mercaptomethyl)ethyl]carbamoyl]-3-methyl-butyl]amino]-4-(isobutoxycarbonylamino)-5-keto-valeric acid
> <PUBCHEM_IUPAC_INCHI>
InChI=1S/C29H46N4O9S/c1-17(2)13-22(31-27(37)21(8-10-25(34)35)33-29(39)42-15-18(3)4)28(38)32-23(16-43)26(36)30-12-11-19-14-20(40-5)7-9-24(19)41-6/h7,9,14,17-18,21-23,43H,8,10-13,15-16H2,1-6H3,(H,30,36)(H,31,37)(H,32,38)(H,33,39)(H,34,35)/t21-,22-,23-/m0/s1
> <PUBCHEM_IUPAC_INCHIKEY>
LRCLNYPEGBSXAD-VABKMULXSA-N
> <PUBCHEM_XLOGP3_AA>
3.1
> <PUBCHEM_EXACT_MASS>
626.29855023
> <PUBCHEM_MOLECULAR_FORMULA>
C29H46N4O9S
> <PUBCHEM_MOLECULAR_WEIGHT>
626.8
> <PUBCHEM_OPENEYE_CAN_SMILES>
CC(C)CC(C(=O)NC(CS)C(=O)NCCC1=C(C=CC(=C1)OC)OC)NC(=O)C(CCC(=O)O)NC(=O)OCC(C)C
> <PUBCHEM_OPENEYE_ISO_SMILES>
CC(C)C[C@@H](C(=O)N[C@@H](CS)C(=O)NCCC1=C(C=CC(=C1)OC)OC)NC(=O)[C@H](CCC(=O)O)NC(=O)OCC(C)C
> <PUBCHEM_CACTVS_TPSA>
182
> <PUBCHEM_MONOISOTOPIC_WEIGHT>
626.29855023
> <PUBCHEM_TOTAL_CHARGE>
0
> <PUBCHEM_HEAVY_ATOM_COUNT>
43
> <PUBCHEM_ATOM_DEF_STEREO_COUNT>
3
> <PUBCHEM_ATOM_UDEF_STEREO_COUNT>
0
> <PUBCHEM_BOND_DEF_STEREO_COUNT>
0
> <PUBCHEM_BOND_UDEF_STEREO_COUNT>
0
> <PUBCHEM_ISOTOPIC_ATOM_COUNT>
0
> <PUBCHEM_COMPONENT_COUNT>
1
> <PUBCHEM_CACTVS_TAUTO_COUNT>
-1
> <PUBCHEM_COORDINATE_TYPE>
1
5
255
> <PUBCHEM_BONDANNOTATIONS>
16  11  5
24  12  6
19  13  5
34  35  8
34  38  8
35  40  8
38  39  8
39  41  8
40  41  8
$$$$
