507434
  -OEChem-10302200282D
 84 84  0     1  0  0  0  0  0999 V2000
    8.9282   -0.1900    0.0000 S   0  0  0  0  0  0  0  0  0  0  0  0
   14.1244    6.8100    0.0000 F   0  0  0  0  0  0  0  0  0  0  0  0
   15.1244    5.8100    0.0000 F   0  0  0  0  0  0  0  0  0  0  0  0
   13.1244    5.8100    0.0000 F   0  0  0  0  0  0  0  0  0  0  0  0
    8.9282   -1.1900    0.0000 O   0  0  0  0  0  0  0  0  0  0  0  0
    8.0622   -1.6900    0.0000 O   0  0  0  0  0  0  0  0  0  0  0  0
    4.5981   -2.6900    0.0000 O   0  0  0  0  0  0  0  0  0  0  0  0
   12.3923   -0.1900    0.0000 O   0  0  0  0  0  0  0  0  0  0  0  0
    5.4641   -6.1900    0.0000 O   0  0  0  0  0  0  0  0  0  0  0  0
    5.4641   -4.1900    0.0000 O   0  0  0  0  0  0  0  0  0  0  0  0
    7.1962   -6.1900    0.0000 O   0  0  0  0  0  0  0  0  0  0  0  0
    8.9282   -3.1900    0.0000 N   0  0  0  0  0  0  0  0  0  0  0  0
   10.6603   -1.1900    0.0000 N   0  0  0  0  0  0  0  0  0  0  0  0
    6.3301   -2.6900    0.0000 N   0  0  0  0  0  0  0  0  0  0  0  0
   11.5263    1.3100    0.0000 N   0  0  0  0  0  0  0  0  0  0  0  0
   10.6603   -3.1900    0.0000 C   0  0  0  0  0  0  0  0  0  0  0  0
    9.7942   -2.6900    0.0000 C   0  0  1  0  0  0  0  0  0  0  0  0
   10.6603   -4.1900    0.0000 C   0  0  0  0  0  0  0  0  0  0  0  0
    9.7942   -1.6900    0.0000 C   0  0  0  0  0  0  0  0  0  0  0  0
    7.1962   -3.1900    0.0000 C   0  0  2  0  0  0  0  0  0  0  0  0
   11.5263   -4.6900    0.0000 C   0  0  0  0  0  0  0  0  0  0  0  0
    9.7942   -4.6900    0.0000 C   0  0  0  0  0  0  0  0  0  0  0  0
    8.0622   -2.6900    0.0000 C   0  0  0  0  0  0  0  0  0  0  0  0
    7.1962   -4.1900    0.0000 C   0  0  0  0  0  0  0  0  0  0  0  0
   10.6603   -0.1900    0.0000 C   0  0  1  0  0  0  0  0  0  0  0  0
    6.3301   -4.6900    0.0000 C   0  0  0  0  0  0  0  0  0  0  0  0
    9.7942    0.3100    0.0000 C   0  0  0  0  0  0  0  0  0  0  0  0
   11.5263    0.3100    0.0000 C   0  0  0  0  0  0  0  0  0  0  0  0
   12.3923    1.8100    0.0000 C   0  0  0  0  0  0  0  0  0  0  0  0
    5.4641   -3.1900    0.0000 C   0  0  0  0  0  0  0  0  0  0  0  0
   12.3923    2.8100    0.0000 C   0  0  0  0  0  0  0  0  0  0  0  0
    6.3301   -5.6900    0.0000 C   0  0  0  0  0  0  0  0  0  0  0  0
    2.8660   -2.6900    0.0000 C   0  0  0  0  0  0  0  0  0  0  0  0
    3.7320   -3.1900    0.0000 C   0  0  0  0  0  0  0  0  0  0  0  0
   13.2583    3.3100    0.0000 C   0  0  0  0  0  0  0  0  0  0  0  0
    2.0000   -3.1900    0.0000 C   0  0  0  0  0  0  0  0  0  0  0  0
    2.8660   -1.6900    0.0000 C   0  0  0  0  0  0  0  0  0  0  0  0
   13.2583    4.3100    0.0000 C   0  0  0  0  0  0  0  0  0  0  0  0
   14.1244    2.8100    0.0000 C   0  0  0  0  0  0  0  0  0  0  0  0
   14.1244    4.8100    0.0000 C   0  0  0  0  0  0  0  0  0  0  0  0
   14.9904    3.3100    0.0000 C   0  0  0  0  0  0  0  0  0  0  0  0
   14.9904    4.3100    0.0000 C   0  0  0  0  0  0  0  0  0  0  0  0
   14.1244    5.8100    0.0000 C   0  0  0  0  0  0  0  0  0  0  0  0
   11.2708   -3.2977    0.0000 H   0  0  0  0  0  0  0  0  0  0  0  0
   10.8723   -2.6074    0.0000 H   0  0  0  0  0  0  0  0  0  0  0  0
    9.2573   -2.3800    0.0000 H   0  0  0  0  0  0  0  0  0  0  0  0
   11.1972   -3.8800    0.0000 H   0  0  0  0  0  0  0  0  0  0  0  0
    8.9282   -3.8100    0.0000 H   0  0  0  0  0  0  0  0  0  0  0  0
    6.6592   -3.5000    0.0000 H   0  0  0  0  0  0  0  0  0  0  0  0
   11.2163   -5.2269    0.0000 H   0  0  0  0  0  0  0  0  0  0  0  0
   12.0632   -5.0000    0.0000 H   0  0  0  0  0  0  0  0  0  0  0  0
   11.8363   -4.1531    0.0000 H   0  0  0  0  0  0  0  0  0  0  0  0
    9.4842   -4.1531    0.0000 H   0  0  0  0  0  0  0  0  0  0  0  0
    9.2573   -5.0000    0.0000 H   0  0  0  0  0  0  0  0  0  0  0  0
   10.1042   -5.2269    0.0000 H   0  0  0  0  0  0  0  0  0  0  0  0
    7.4082   -4.7726    0.0000 H   0  0  0  0  0  0  0  0  0  0  0  0
    7.8067   -4.0823    0.0000 H   0  0  0  0  0  0  0  0  0  0  0  0
   11.1972   -0.5000    0.0000 H   0  0  0  0  0  0  0  0  0  0  0  0
   11.1972   -1.5000    0.0000 H   0  0  0  0  0  0  0  0  0  0  0  0
    6.3301   -2.0700    0.0000 H   0  0  0  0  0  0  0  0  0  0  0  0
    6.1181   -4.1074    0.0000 H   0  0  0  0  0  0  0  0  0  0  0  0
    5.7196   -4.7977    0.0000 H   0  0  0  0  0  0  0  0  0  0  0  0
   10.1928    0.7849    0.0000 H   0  0  0  0  0  0  0  0  0  0  0  0
    9.3957    0.7849    0.0000 H   0  0  0  0  0  0  0  0  0  0  0  0
   10.9893    1.6200    0.0000 H   0  0  0  0  0  0  0  0  0  0  0  0
   12.6044    1.2274    0.0000 H   0  0  0  0  0  0  0  0  0  0  0  0
   13.0029    1.9177    0.0000 H   0  0  0  0  0  0  0  0  0  0  0  0
   12.1803    3.3926    0.0000 H   0  0  0  0  0  0  0  0  0  0  0  0
   11.7817    2.7023    0.0000 H   0  0  0  0  0  0  0  0  0  0  0  0
    2.8660   -3.3100    0.0000 H   0  0  0  0  0  0  0  0  0  0  0  0
    3.3335   -3.6650    0.0000 H   0  0  0  0  0  0  0  0  0  0  0  0
    4.1306   -3.6650    0.0000 H   0  0  0  0  0  0  0  0  0  0  0  0
    8.3913    0.1200    0.0000 H   0  0  0  0  0  0  0  0  0  0  0  0
    1.6900   -2.6531    0.0000 H   0  0  0  0  0  0  0  0  0  0  0  0
    1.4631   -3.5000    0.0000 H   0  0  0  0  0  0  0  0  0  0  0  0
    2.3100   -3.7269    0.0000 H   0  0  0  0  0  0  0  0  0  0  0  0
    3.4860   -1.6900    0.0000 H   0  0  0  0  0  0  0  0  0  0  0  0
    2.8660   -1.0700    0.0000 H   0  0  0  0  0  0  0  0  0  0  0  0
    2.2460   -1.6900    0.0000 H   0  0  0  0  0  0  0  0  0  0  0  0
   12.7214    4.6200    0.0000 H   0  0  0  0  0  0  0  0  0  0  0  0
   14.1244    2.1900    0.0000 H   0  0  0  0  0  0  0  0  0  0  0  0
    5.4641   -6.8100    0.0000 H   0  0  0  0  0  0  0  0  0  0  0  0
   15.5273    3.0000    0.0000 H   0  0  0  0  0  0  0  0  0  0  0  0
   15.5273    4.6200    0.0000 H   0  0  0  0  0  0  0  0  0  0  0  0
  1 27  1  0  0  0  0
  1 73  1  0  0  0  0
  2 43  1  0  0  0  0
  3 43  1  0  0  0  0
  4 43  1  0  0  0  0
  5 19  2  0  0  0  0
  6 23  2  0  0  0  0
  7 30  1  0  0  0  0
  7 34  1  0  0  0  0
  8 28  2  0  0  0  0
  9 32  1  0  0  0  0
  9 82  1  0  0  0  0
 10 30  2  0  0  0  0
 11 32  2  0  0  0  0
 17 12  1  6  0  0  0
 12 23  1  0  0  0  0
 12 48  1  0  0  0  0
 13 19  1  0  0  0  0
 25 13  1  1  0  0  0
 13 59  1  0  0  0  0
 20 14  1  6  0  0  0
 14 30  1  0  0  0  0
 14 60  1  0  0  0  0
 15 28  1  0  0  0  0
 15 29  1  0  0  0  0
 15 65  1  0  0  0  0
 16 17  1  0  0  0  0
 16 18  1  0  0  0  0
 16 44  1  0  0  0  0
 16 45  1  0  0  0  0
 17 19  1  0  0  0  0
 17 46  1  0  0  0  0
 18 21  1  0  0  0  0
 18 22  1  0  0  0  0
 18 47  1  0  0  0  0
 20 23  1  0  0  0  0
 20 24  1  0  0  0  0
 20 49  1  0  0  0  0
 21 50  1  0  0  0  0
 21 51  1  0  0  0  0
 21 52  1  0  0  0  0
 22 53  1  0  0  0  0
 22 54  1  0  0  0  0
 22 55  1  0  0  0  0
 24 26  1  0  0  0  0
 24 56  1  0  0  0  0
 24 57  1  0  0  0  0
 25 27  1  0  0  0  0
 25 28  1  0  0  0  0
 25 58  1  0  0  0  0
 26 32  1  0  0  0  0
 26 61  1  0  0  0  0
 26 62  1  0  0  0  0
 27 63  1  0  0  0  0
 27 64  1  0  0  0  0
 29 31  1  0  0  0  0
 29 66  1  0  0  0  0
 29 67  1  0  0  0  0
 31 35  1  0  0  0  0
 31 68  1  0  0  0  0
 31 69  1  0  0  0  0
 33 34  1  0  0  0  0
 33 36  1  0  0  0  0
 33 37  1  0  0  0  0
 33 70  1  0  0  0  0
 34 71  1  0  0  0  0
 34 72  1  0  0  0  0
 35 38  2  0  0  0  0
 35 39  1  0  0  0  0
 36 74  1  0  0  0  0
 36 75  1  0  0  0  0
 36 76  1  0  0  0  0
 37 77  1  0  0  0  0
 37 78  1  0  0  0  0
 37 79  1  0  0  0  0
 38 40  1  0  0  0  0
 38 80  1  0  0  0  0
 39 41  2  0  0  0  0
 39 81  1  0  0  0  0
 40 42  2  0  0  0  0
 40 43  1  0  0  0  0
 41 42  1  0  0  0  0
 41 83  1  0  0  0  0
 42 84  1  0  0  0  0
M  END
> <PUBCHEM_COMPOUND_CID>
507434
> <PUBCHEM_COMPOUND_CANONICALIZED>
1
> <PUBCHEM_CACTVS_COMPLEXITY>
937
> <PUBCHEM_CACTVS_HBOND_ACCEPTOR>
11
> <PUBCHEM_CACTVS_HBOND_DONOR>
6
> <PUBCHEM_CACTVS_ROTATABLE_BOND>
18
> <PUBCHEM_CACTVS_SUBSKEYS>
AAADcfB7uYBAAAAAAAAAAAAAAAAAAAAAAAAwAAAAAAAAAAABAAAAHwQQCAAADSjl2BayCILABgSIAiHSGAACAAAgAAAIiIGIAIkIYDKAkTGcYAAklgCIiAe8l8IOAAACAAAAAAAAAAQAAAAAAAAAAAAAAA==
> <PUBCHEM_IUPAC_OPENEYE_NAME>
(4S)-4-(isobutoxycarbonylamino)-5-[[(1S)-3-methyl-1-[[(1R)-2-oxo-1-(sulfanylmethyl)-2-[2-[3-(trifluoromethyl)phenyl]ethylamino]ethyl]carbamoyl]butyl]amino]-5-oxo-pentanoic acid
> <PUBCHEM_IUPAC_CAS_NAME>
(4S)-5-[[(2S)-1-[[(2R)-3-mercapto-1-oxo-1-[2-[3-(trifluoromethyl)phenyl]ethylamino]propan-2-yl]amino]-4-methyl-1-oxopentan-2-yl]amino]-4-[[2-methylpropoxy(oxo)methyl]amino]-5-oxopentanoic acid
> <PUBCHEM_IUPAC_NAME_MARKUP>
(4<I>S</I>)-5-[[(2<I>S</I>)-4-methyl-1-oxo-1-[[(2<I>R</I>)-1-oxo-3-sulfanyl-1-[2-[3-(trifluoromethyl)phenyl]ethylamino]propan-2-yl]amino]pentan-2-yl]amino]-4-(2-methylpropoxycarbonylamino)-5-oxopentanoic acid
> <PUBCHEM_IUPAC_NAME>
(4S)-5-[[(2S)-4-methyl-1-oxo-1-[[(2R)-1-oxo-3-sulfanyl-1-[2-[3-(trifluoromethyl)phenyl]ethylamino]propan-2-yl]amino]pentan-2-yl]amino]-4-(2-methylpropoxycarbonylamino)-5-oxopentanoic acid
> <PUBCHEM_IUPAC_SYSTEMATIC_NAME>
(4S)-5-[[(2S)-4-methyl-1-oxidanylidene-1-[[(2R)-1-oxidanylidene-3-sulfanyl-1-[2-[3-(trifluoromethyl)phenyl]ethylamino]propan-2-yl]amino]pentan-2-yl]amino]-4-(2-methylpropoxycarbonylamino)-5-oxidanylidene-pentanoic acid
> <PUBCHEM_IUPAC_TRADITIONAL_NAME>
(4S)-4-(isobutoxycarbonylamino)-5-keto-5-[[(1S)-1-[[(1R)-2-keto-1-(mercaptomethyl)-2-[2-[3-(trifluoromethyl)phenyl]ethylamino]ethyl]carbamoyl]-3-methyl-butyl]amino]valeric acid
> <PUBCHEM_IUPAC_INCHI>
InChI=1S/C28H41F3N4O7S/c1-16(2)12-21(33-25(39)20(8-9-23(36)37)35-27(41)42-14-17(3)4)26(40)34-22(15-43)24(38)32-11-10-18-6-5-7-19(13-18)28(29,30)31/h5-7,13,16-17,20-22,43H,8-12,14-15H2,1-4H3,(H,32,38)(H,33,39)(H,34,40)(H,35,41)(H,36,37)/t20-,21-,22-/m0/s1
> <PUBCHEM_IUPAC_INCHIKEY>
ZOLVFTAVHSXBIK-FKBYEOEOSA-N
> <PUBCHEM_XLOGP3_AA>
4.1
> <PUBCHEM_EXACT_MASS>
634.26480532
> <PUBCHEM_MOLECULAR_FORMULA>
C28H41F3N4O7S
> <PUBCHEM_MOLECULAR_WEIGHT>
634.7
> <PUBCHEM_OPENEYE_CAN_SMILES>
CC(C)CC(C(=O)NC(CS)C(=O)NCCC1=CC(=CC=C1)C(F)(F)F)NC(=O)C(CCC(=O)O)NC(=O)OCC(C)C
> <PUBCHEM_OPENEYE_ISO_SMILES>
CC(C)C[C@@H](C(=O)N[C@@H](CS)C(=O)NCCC1=CC(=CC=C1)C(F)(F)F)NC(=O)[C@H](CCC(=O)O)NC(=O)OCC(C)C
> <PUBCHEM_CACTVS_TPSA>
164
> <PUBCHEM_MONOISOTOPIC_WEIGHT>
634.26480532
> <PUBCHEM_TOTAL_CHARGE>
0
> <PUBCHEM_HEAVY_ATOM_COUNT>
43
> <PUBCHEM_ATOM_DEF_STEREO_COUNT>
3
> <PUBCHEM_ATOM_UDEF_STEREO_COUNT>
0
> <PUBCHEM_BOND_DEF_STEREO_COUNT>
0
> <PUBCHEM_BOND_UDEF_STEREO_COUNT>
0
> <PUBCHEM_ISOTOPIC_ATOM_COUNT>
0
> <PUBCHEM_COMPONENT_COUNT>
1
> <PUBCHEM_CACTVS_TAUTO_COUNT>
-1
> <PUBCHEM_COORDINATE_TYPE>
1
5
255
> <PUBCHEM_BONDANNOTATIONS>
17  12  6
25  13  5
20  14  6
35  38  8
35  39  8
38  40  8
39  41  8
40  42  8
41  42  8
$$$$
