507498
  -OEChem-10302200282D
 83 84  0     1  0  0  0  0  0999 V2000
    8.0622    4.0000    0.0000 S   0  0  0  0  0  0  0  0  0  0  0  0
    8.9282    1.5000    0.0000 O   0  0  0  0  0  0  0  0  0  0  0  0
    8.0622   -2.0000    0.0000 O   0  0  0  0  0  0  0  0  0  0  0  0
    5.4641    2.5000    0.0000 O   0  0  0  0  0  0  0  0  0  0  0  0
    4.5981   -3.0000    0.0000 O   0  0  0  0  0  0  0  0  0  0  0  0
    4.5981    1.0000    0.0000 O   0  0  0  0  0  0  0  0  0  0  0  0
    3.7320   -0.5000    0.0000 O   0  0  0  0  0  0  0  0  0  0  0  0
    2.0000    7.5000    0.0000 O   0  0  0  0  0  0  0  0  0  0  0  0
    7.1962   -0.5000    0.0000 N   0  0  0  0  0  0  0  0  0  0  0  0
    7.1962    1.5000    0.0000 N   0  0  0  0  0  0  0  0  0  0  0  0
    6.3301   -3.0000    0.0000 N   0  0  0  0  0  0  0  0  0  0  0  0
    6.3301    4.0000    0.0000 N   0  0  0  0  0  0  0  0  0  0  0  0
    5.4641   -8.5000    0.0000 N   0  0  0  0  0  0  0  0  0  0  0  0
    8.9282   -0.5000    0.0000 C   0  0  0  0  0  0  0  0  0  0  0  0
    8.0622    0.0000    0.0000 C   0  0  1  0  0  0  0  0  0  0  0  0
    9.7942    0.0000    0.0000 C   0  0  0  0  0  0  0  0  0  0  0  0
    8.0622    1.0000    0.0000 C   0  0  0  0  0  0  0  0  0  0  0  0
    6.3301   -2.0000    0.0000 C   0  0  2  0  0  0  0  0  0  0  0  0
   10.6603   -0.5000    0.0000 C   0  0  0  0  0  0  0  0  0  0  0  0
    9.7942    1.0000    0.0000 C   0  0  0  0  0  0  0  0  0  0  0  0
    7.1962   -1.5000    0.0000 C   0  0  0  0  0  0  0  0  0  0  0  0
    5.4641   -1.5000    0.0000 C   0  0  0  0  0  0  0  0  0  0  0  0
    7.1962    2.5000    0.0000 C   0  0  1  0  0  0  0  0  0  0  0  0
    5.4641   -0.5000    0.0000 C   0  0  0  0  0  0  0  0  0  0  0  0
    8.0622    3.0000    0.0000 C   0  0  0  0  0  0  0  0  0  0  0  0
    6.3301    3.0000    0.0000 C   0  0  0  0  0  0  0  0  0  0  0  0
    5.4641   -3.5000    0.0000 C   0  0  0  0  0  0  0  0  0  0  0  0
    5.4641    4.5000    0.0000 C   0  0  0  0  0  0  0  0  0  0  0  0
    4.5981    0.0000    0.0000 C   0  0  0  0  0  0  0  0  0  0  0  0
    5.4641    5.5000    0.0000 C   0  0  0  0  0  0  0  0  0  0  0  0
    5.4641   -4.5000    0.0000 C   0  0  0  0  0  0  0  0  0  0  0  0
    4.5981    6.0000    0.0000 C   0  0  0  0  0  0  0  0  0  0  0  0
    4.5981   -5.0000    0.0000 C   0  0  0  0  0  0  0  0  0  0  0  0
    6.3301   -5.0000    0.0000 C   0  0  0  0  0  0  0  0  0  0  0  0
    4.5981    7.0000    0.0000 C   0  0  0  0  0  0  0  0  0  0  0  0
    3.7320    5.5000    0.0000 C   0  0  0  0  0  0  0  0  0  0  0  0
    4.5981   -6.0000    0.0000 C   0  0  0  0  0  0  0  0  0  0  0  0
    6.3301   -6.0000    0.0000 C   0  0  0  0  0  0  0  0  0  0  0  0
    3.7320    7.5000    0.0000 C   0  0  0  0  0  0  0  0  0  0  0  0
    2.8660    6.0000    0.0000 C   0  0  0  0  0  0  0  0  0  0  0  0
    2.8660    7.0000    0.0000 C   0  0  0  0  0  0  0  0  0  0  0  0
    5.4641   -6.5000    0.0000 C   0  0  0  0  0  0  0  0  0  0  0  0
    5.4641   -7.5000    0.0000 C   0  0  0  0  0  0  0  0  0  0  0  0
    2.0000    8.5000    0.0000 C   0  0  0  0  0  0  0  0  0  0  0  0
    8.5297   -0.9749    0.0000 H   0  0  0  0  0  0  0  0  0  0  0  0
    9.3267   -0.9749    0.0000 H   0  0  0  0  0  0  0  0  0  0  0  0
    8.0622   -0.6200    0.0000 H   0  0  0  0  0  0  0  0  0  0  0  0
    9.2573    0.3100    0.0000 H   0  0  0  0  0  0  0  0  0  0  0  0
    6.6592   -0.1900    0.0000 H   0  0  0  0  0  0  0  0  0  0  0  0
    6.8671   -2.3100    0.0000 H   0  0  0  0  0  0  0  0  0  0  0  0
   10.3503   -1.0369    0.0000 H   0  0  0  0  0  0  0  0  0  0  0  0
   11.1972   -0.8100    0.0000 H   0  0  0  0  0  0  0  0  0  0  0  0
   10.9703    0.0369    0.0000 H   0  0  0  0  0  0  0  0  0  0  0  0
   10.4142    1.0000    0.0000 H   0  0  0  0  0  0  0  0  0  0  0  0
    9.7942    1.6200    0.0000 H   0  0  0  0  0  0  0  0  0  0  0  0
    9.1742    1.0000    0.0000 H   0  0  0  0  0  0  0  0  0  0  0  0
    4.8535   -1.3923    0.0000 H   0  0  0  0  0  0  0  0  0  0  0  0
    5.2520   -2.0826    0.0000 H   0  0  0  0  0  0  0  0  0  0  0  0
    6.6592    1.1900    0.0000 H   0  0  0  0  0  0  0  0  0  0  0  0
    6.6592    2.1900    0.0000 H   0  0  0  0  0  0  0  0  0  0  0  0
    6.8671   -3.3100    0.0000 H   0  0  0  0  0  0  0  0  0  0  0  0
    6.0747   -0.6077    0.0000 H   0  0  0  0  0  0  0  0  0  0  0  0
    5.6762    0.0826    0.0000 H   0  0  0  0  0  0  0  0  0  0  0  0
    8.2742    2.4174    0.0000 H   0  0  0  0  0  0  0  0  0  0  0  0
    8.6728    3.1077    0.0000 H   0  0  0  0  0  0  0  0  0  0  0  0
    6.8671    4.3100    0.0000 H   0  0  0  0  0  0  0  0  0  0  0  0
    4.8535    4.6077    0.0000 H   0  0  0  0  0  0  0  0  0  0  0  0
    5.2520    3.9174    0.0000 H   0  0  0  0  0  0  0  0  0  0  0  0
    6.0747    5.3923    0.0000 H   0  0  0  0  0  0  0  0  0  0  0  0
    5.6762    6.0826    0.0000 H   0  0  0  0  0  0  0  0  0  0  0  0
    8.5991    4.3100    0.0000 H   0  0  0  0  0  0  0  0  0  0  0  0
    4.0611   -4.6900    0.0000 H   0  0  0  0  0  0  0  0  0  0  0  0
    6.8671   -4.6900    0.0000 H   0  0  0  0  0  0  0  0  0  0  0  0
    5.1350    7.3100    0.0000 H   0  0  0  0  0  0  0  0  0  0  0  0
    3.7320    4.8800    0.0000 H   0  0  0  0  0  0  0  0  0  0  0  0
    4.0611    1.3100    0.0000 H   0  0  0  0  0  0  0  0  0  0  0  0
    4.0611   -6.3100    0.0000 H   0  0  0  0  0  0  0  0  0  0  0  0
    6.8671   -6.3100    0.0000 H   0  0  0  0  0  0  0  0  0  0  0  0
    3.7320    8.1200    0.0000 H   0  0  0  0  0  0  0  0  0  0  0  0
    2.3291    5.6900    0.0000 H   0  0  0  0  0  0  0  0  0  0  0  0
    2.6200    8.5000    0.0000 H   0  0  0  0  0  0  0  0  0  0  0  0
    2.0000    9.1200    0.0000 H   0  0  0  0  0  0  0  0  0  0  0  0
    1.3800    8.5000    0.0000 H   0  0  0  0  0  0  0  0  0  0  0  0
  1 25  1  0  0  0  0
  1 71  1  0  0  0  0
  2 17  2  0  0  0  0
  3 21  2  0  0  0  0
  4 26  2  0  0  0  0
  5 27  2  0  0  0  0
  6 29  1  0  0  0  0
  6 76  1  0  0  0  0
  7 29  2  0  0  0  0
  8 41  1  0  0  0  0
  8 44  1  0  0  0  0
 15  9  1  6  0  0  0
  9 21  1  0  0  0  0
  9 49  1  0  0  0  0
 10 17  1  0  0  0  0
 23 10  1  6  0  0  0
 10 59  1  0  0  0  0
 18 11  1  1  0  0  0
 11 27  1  0  0  0  0
 11 61  1  0  0  0  0
 12 26  1  0  0  0  0
 12 28  1  0  0  0  0
 12 66  1  0  0  0  0
 13 43  3  0  0  0  0
 14 15  1  0  0  0  0
 14 16  1  0  0  0  0
 14 45  1  0  0  0  0
 14 46  1  0  0  0  0
 15 17  1  0  0  0  0
 15 47  1  0  0  0  0
 16 19  1  0  0  0  0
 16 20  1  0  0  0  0
 16 48  1  0  0  0  0
 18 21  1  0  0  0  0
 18 22  1  0  0  0  0
 18 50  1  0  0  0  0
 19 51  1  0  0  0  0
 19 52  1  0  0  0  0
 19 53  1  0  0  0  0
 20 54  1  0  0  0  0
 20 55  1  0  0  0  0
 20 56  1  0  0  0  0
 22 24  1  0  0  0  0
 22 57  1  0  0  0  0
 22 58  1  0  0  0  0
 23 25  1  0  0  0  0
 23 26  1  0  0  0  0
 23 60  1  0  0  0  0
 24 29  1  0  0  0  0
 24 62  1  0  0  0  0
 24 63  1  0  0  0  0
 25 64  1  0  0  0  0
 25 65  1  0  0  0  0
 27 31  1  0  0  0  0
 28 30  1  0  0  0  0
 28 67  1  0  0  0  0
 28 68  1  0  0  0  0
 30 32  1  0  0  0  0
 30 69  1  0  0  0  0
 30 70  1  0  0  0  0
 31 33  2  0  0  0  0
 31 34  1  0  0  0  0
 32 35  2  0  0  0  0
 32 36  1  0  0  0  0
 33 37  1  0  0  0  0
 33 72  1  0  0  0  0
 34 38  2  0  0  0  0
 34 73  1  0  0  0  0
 35 39  1  0  0  0  0
 35 74  1  0  0  0  0
 36 40  2  0  0  0  0
 36 75  1  0  0  0  0
 37 42  2  0  0  0  0
 37 77  1  0  0  0  0
 38 42  1  0  0  0  0
 38 78  1  0  0  0  0
 39 41  2  0  0  0  0
 39 79  1  0  0  0  0
 40 41  1  0  0  0  0
 40 80  1  0  0  0  0
 42 43  1  0  0  0  0
 44 81  1  0  0  0  0
 44 82  1  0  0  0  0
 44 83  1  0  0  0  0
M  END
> <PUBCHEM_COMPOUND_CID>
507498
> <PUBCHEM_COMPOUND_CANONICALIZED>
1
> <PUBCHEM_CACTVS_COMPLEXITY>
1020
> <PUBCHEM_CACTVS_HBOND_ACCEPTOR>
9
> <PUBCHEM_CACTVS_HBOND_DONOR>
6
> <PUBCHEM_CACTVS_ROTATABLE_BOND>
17
> <PUBCHEM_CACTVS_SUBSKEYS>
AAADcfB7uABAAAAAAAAAAAAAAAAAAAAAAAAwYAAAAAAAAAABQAAAHgQQCAAADSzF2AayDoLABgSYBiHSGACiCAAkIAAIiIGODMgM5jKEtTuUcShk1hGIqY+834KOYAAAAAAAAADAAAAAAAAAAAAAAAAAAA==
> <PUBCHEM_IUPAC_OPENEYE_NAME>
(4S)-4-[(4-cyanobenzoyl)amino]-5-[[(1S)-1-[[(1R)-2-[2-(4-methoxyphenyl)ethylamino]-2-oxo-1-(sulfanylmethyl)ethyl]carbamoyl]-3-methyl-butyl]amino]-5-oxo-pentanoic acid
> <PUBCHEM_IUPAC_CAS_NAME>
(4S)-4-[[(4-cyanophenyl)-oxomethyl]amino]-5-[[(2S)-1-[[(2R)-3-mercapto-1-[2-(4-methoxyphenyl)ethylamino]-1-oxopropan-2-yl]amino]-4-methyl-1-oxopentan-2-yl]amino]-5-oxopentanoic acid
> <PUBCHEM_IUPAC_NAME_MARKUP>
(4<I>S</I>)-4-[(4-cyanobenzoyl)amino]-5-[[(2<I>S</I>)-1-[[(2<I>R</I>)-1-[2-(4-methoxyphenyl)ethylamino]-1-oxo-3-sulfanylpropan-2-yl]amino]-4-methyl-1-oxopentan-2-yl]amino]-5-oxopentanoic acid
> <PUBCHEM_IUPAC_NAME>
(4S)-4-[(4-cyanobenzoyl)amino]-5-[[(2S)-1-[[(2R)-1-[2-(4-methoxyphenyl)ethylamino]-1-oxo-3-sulfanylpropan-2-yl]amino]-4-methyl-1-oxopentan-2-yl]amino]-5-oxopentanoic acid
> <PUBCHEM_IUPAC_SYSTEMATIC_NAME>
(4S)-4-[(4-cyanophenyl)carbonylamino]-5-[[(2S)-1-[[(2R)-1-[2-(4-methoxyphenyl)ethylamino]-1-oxidanylidene-3-sulfanyl-propan-2-yl]amino]-4-methyl-1-oxidanylidene-pentan-2-yl]amino]-5-oxidanylidene-pentanoic acid
> <PUBCHEM_IUPAC_TRADITIONAL_NAME>
(4S)-4-[(4-cyanobenzoyl)amino]-5-keto-5-[[(1S)-1-[[(1R)-2-keto-1-(mercaptomethyl)-2-[2-(4-methoxyphenyl)ethylamino]ethyl]carbamoyl]-3-methyl-butyl]amino]valeric acid
> <PUBCHEM_IUPAC_INCHI>
InChI=1S/C31H39N5O7S/c1-19(2)16-25(31(42)36-26(18-44)29(40)33-15-14-20-6-10-23(43-3)11-7-20)35-30(41)24(12-13-27(37)38)34-28(39)22-8-4-21(17-32)5-9-22/h4-11,19,24-26,44H,12-16,18H2,1-3H3,(H,33,40)(H,34,39)(H,35,41)(H,36,42)(H,37,38)/t24-,25-,26-/m0/s1
> <PUBCHEM_IUPAC_INCHIKEY>
SMNYHQFRCLCDCZ-GSDHBNRESA-N
> <PUBCHEM_XLOGP3_AA>
2.8
> <PUBCHEM_EXACT_MASS>
625.25701977
> <PUBCHEM_MOLECULAR_FORMULA>
C31H39N5O7S
> <PUBCHEM_MOLECULAR_WEIGHT>
625.7
> <PUBCHEM_OPENEYE_CAN_SMILES>
CC(C)CC(C(=O)NC(CS)C(=O)NCCC1=CC=C(C=C1)OC)NC(=O)C(CCC(=O)O)NC(=O)C2=CC=C(C=C2)C#N
> <PUBCHEM_OPENEYE_ISO_SMILES>
CC(C)C[C@@H](C(=O)N[C@@H](CS)C(=O)NCCC1=CC=C(C=C1)OC)NC(=O)[C@H](CCC(=O)O)NC(=O)C2=CC=C(C=C2)C#N
> <PUBCHEM_CACTVS_TPSA>
188
> <PUBCHEM_MONOISOTOPIC_WEIGHT>
625.25701977
> <PUBCHEM_TOTAL_CHARGE>
0
> <PUBCHEM_HEAVY_ATOM_COUNT>
44
> <PUBCHEM_ATOM_DEF_STEREO_COUNT>
3
> <PUBCHEM_ATOM_UDEF_STEREO_COUNT>
0
> <PUBCHEM_BOND_DEF_STEREO_COUNT>
0
> <PUBCHEM_BOND_UDEF_STEREO_COUNT>
0
> <PUBCHEM_ISOTOPIC_ATOM_COUNT>
0
> <PUBCHEM_COMPONENT_COUNT>
1
> <PUBCHEM_CACTVS_TAUTO_COUNT>
-1
> <PUBCHEM_COORDINATE_TYPE>
1
5
255
> <PUBCHEM_BONDANNOTATIONS>
23  10  6
18  11  5
31  33  8
31  34  8
32  35  8
32  36  8
33  37  8
34  38  8
35  39  8
36  40  8
37  42  8
38  42  8
39  41  8
40  41  8
15  9  6
$$$$
