507448
  -OEChem-10302200282D
 83 83  0     1  0  0  0  0  0999 V2000
    7.1962   -0.7500    0.0000 S   0  0  0  0  0  0  0  0  0  0  0  0
    6.3301   -1.2500    0.0000 O   0  0  0  0  0  0  0  0  0  0  0  0
    6.3301   -2.2500    0.0000 O   0  0  0  0  0  0  0  0  0  0  0  0
    7.1962   -5.7500    0.0000 O   0  0  0  0  0  0  0  0  0  0  0  0
    5.4641    2.2500    0.0000 O   0  0  0  0  0  0  0  0  0  0  0  0
    3.7320   -6.7500    0.0000 O   0  0  0  0  0  0  0  0  0  0  0  0
    5.4641   -5.7500    0.0000 O   0  0  0  0  0  0  0  0  0  0  0  0
    2.8660   -5.2500    0.0000 O   0  0  0  0  0  0  0  0  0  0  0  0
    8.9282    8.2500    0.0000 O   0  5  0  0  0  0  0  0  0  0  0  0
    7.1962    8.2500    0.0000 O   0  0  0  0  0  0  0  0  0  0  0  0
    4.5981   -2.2500    0.0000 N   0  0  0  0  0  0  0  0  0  0  0  0
    5.4641    0.2500    0.0000 N   0  0  0  0  0  0  0  0  0  0  0  0
    6.3301   -4.2500    0.0000 N   0  0  0  0  0  0  0  0  0  0  0  0
    7.1962    2.2500    0.0000 N   0  0  0  0  0  0  0  0  0  0  0  0
    8.0622    7.7500    0.0000 N   0  3  0  0  0  0  0  0  0  0  0  0
    3.7320   -0.7500    0.0000 C   0  0  0  0  0  0  0  0  0  0  0  0
    4.5981   -1.2500    0.0000 C   0  0  1  0  0  0  0  0  0  0  0  0
    2.8660   -1.2500    0.0000 C   0  0  0  0  0  0  0  0  0  0  0  0
    5.4641   -0.7500    0.0000 C   0  0  0  0  0  0  0  0  0  0  0  0
    5.4641   -3.7500    0.0000 C   0  0  2  0  0  0  0  0  0  0  0  0
    2.0000   -0.7500    0.0000 C   0  0  0  0  0  0  0  0  0  0  0  0
    2.8660   -2.2500    0.0000 C   0  0  0  0  0  0  0  0  0  0  0  0
    5.4641   -2.7500    0.0000 C   0  0  0  0  0  0  0  0  0  0  0  0
    4.5981   -4.2500    0.0000 C   0  0  0  0  0  0  0  0  0  0  0  0
    6.3301    0.7500    0.0000 C   0  0  1  0  0  0  0  0  0  0  0  0
    4.5981   -5.2500    0.0000 C   0  0  0  0  0  0  0  0  0  0  0  0
    7.1962    0.2500    0.0000 C   0  0  0  0  0  0  0  0  0  0  0  0
    6.3301    1.7500    0.0000 C   0  0  0  0  0  0  0  0  0  0  0  0
    6.3301   -5.2500    0.0000 C   0  0  0  0  0  0  0  0  0  0  0  0
    7.1962    3.2500    0.0000 C   0  0  0  0  0  0  0  0  0  0  0  0
    3.7320   -5.7500    0.0000 C   0  0  0  0  0  0  0  0  0  0  0  0
    8.0622    3.7500    0.0000 C   0  0  0  0  0  0  0  0  0  0  0  0
    8.0622   -7.2500    0.0000 C   0  0  0  0  0  0  0  0  0  0  0  0
    7.1962   -6.7500    0.0000 C   0  0  0  0  0  0  0  0  0  0  0  0
    8.0622    4.7500    0.0000 C   0  0  0  0  0  0  0  0  0  0  0  0
    8.0622   -8.2500    0.0000 C   0  0  0  0  0  0  0  0  0  0  0  0
    8.9282   -6.7500    0.0000 C   0  0  0  0  0  0  0  0  0  0  0  0
    7.1962    5.2500    0.0000 C   0  0  0  0  0  0  0  0  0  0  0  0
    8.9282    5.2500    0.0000 C   0  0  0  0  0  0  0  0  0  0  0  0
    7.1962    6.2500    0.0000 C   0  0  0  0  0  0  0  0  0  0  0  0
    8.9282    6.2500    0.0000 C   0  0  0  0  0  0  0  0  0  0  0  0
    8.0622    6.7500    0.0000 C   0  0  0  0  0  0  0  0  0  0  0  0
    4.1306   -0.2751    0.0000 H   0  0  0  0  0  0  0  0  0  0  0  0
    3.3335   -0.2751    0.0000 H   0  0  0  0  0  0  0  0  0  0  0  0
    5.1350   -1.5600    0.0000 H   0  0  0  0  0  0  0  0  0  0  0  0
    2.8660   -0.6300    0.0000 H   0  0  0  0  0  0  0  0  0  0  0  0
    4.0611   -2.5600    0.0000 H   0  0  0  0  0  0  0  0  0  0  0  0
    5.4641   -4.3700    0.0000 H   0  0  0  0  0  0  0  0  0  0  0  0
    2.3100   -0.2131    0.0000 H   0  0  0  0  0  0  0  0  0  0  0  0
    1.4631   -0.4400    0.0000 H   0  0  0  0  0  0  0  0  0  0  0  0
    1.6900   -1.2869    0.0000 H   0  0  0  0  0  0  0  0  0  0  0  0
    2.2460   -2.2500    0.0000 H   0  0  0  0  0  0  0  0  0  0  0  0
    2.8660   -2.8700    0.0000 H   0  0  0  0  0  0  0  0  0  0  0  0
    3.4860   -2.2500    0.0000 H   0  0  0  0  0  0  0  0  0  0  0  0
    4.3860   -3.6674    0.0000 H   0  0  0  0  0  0  0  0  0  0  0  0
    3.9875   -4.3577    0.0000 H   0  0  0  0  0  0  0  0  0  0  0  0
    4.9272    0.5600    0.0000 H   0  0  0  0  0  0  0  0  0  0  0  0
    5.7932    1.0600    0.0000 H   0  0  0  0  0  0  0  0  0  0  0  0
    6.8671   -3.9400    0.0000 H   0  0  0  0  0  0  0  0  0  0  0  0
    4.8101   -5.8326    0.0000 H   0  0  0  0  0  0  0  0  0  0  0  0
    5.2087   -5.1423    0.0000 H   0  0  0  0  0  0  0  0  0  0  0  0
    7.8067    0.1423    0.0000 H   0  0  0  0  0  0  0  0  0  0  0  0
    7.4082    0.8326    0.0000 H   0  0  0  0  0  0  0  0  0  0  0  0
    7.7331    1.9400    0.0000 H   0  0  0  0  0  0  0  0  0  0  0  0
    6.9841    3.8326    0.0000 H   0  0  0  0  0  0  0  0  0  0  0  0
    6.5856    3.1423    0.0000 H   0  0  0  0  0  0  0  0  0  0  0  0
    8.2742    3.1674    0.0000 H   0  0  0  0  0  0  0  0  0  0  0  0
    8.6728    3.8577    0.0000 H   0  0  0  0  0  0  0  0  0  0  0  0
    8.0622   -6.6300    0.0000 H   0  0  0  0  0  0  0  0  0  0  0  0
    6.5856   -6.6423    0.0000 H   0  0  0  0  0  0  0  0  0  0  0  0
    6.9841   -7.3326    0.0000 H   0  0  0  0  0  0  0  0  0  0  0  0
    7.7331   -1.0600    0.0000 H   0  0  0  0  0  0  0  0  0  0  0  0
    7.4422   -8.2500    0.0000 H   0  0  0  0  0  0  0  0  0  0  0  0
    8.0622   -8.8700    0.0000 H   0  0  0  0  0  0  0  0  0  0  0  0
    8.6822   -8.2500    0.0000 H   0  0  0  0  0  0  0  0  0  0  0  0
    9.2382   -7.2869    0.0000 H   0  0  0  0  0  0  0  0  0  0  0  0
    9.4651   -6.4400    0.0000 H   0  0  0  0  0  0  0  0  0  0  0  0
    8.6182   -6.2131    0.0000 H   0  0  0  0  0  0  0  0  0  0  0  0
    6.6592    4.9400    0.0000 H   0  0  0  0  0  0  0  0  0  0  0  0
    9.4651    4.9400    0.0000 H   0  0  0  0  0  0  0  0  0  0  0  0
    3.1951   -7.0600    0.0000 H   0  0  0  0  0  0  0  0  0  0  0  0
    6.6592    6.5600    0.0000 H   0  0  0  0  0  0  0  0  0  0  0  0
    9.4651    6.5600    0.0000 H   0  0  0  0  0  0  0  0  0  0  0  0
  1 27  1  0  0  0  0
  1 72  1  0  0  0  0
  2 19  2  0  0  0  0
  3 23  2  0  0  0  0
  4 29  1  0  0  0  0
  4 34  1  0  0  0  0
  5 28  2  0  0  0  0
  6 31  1  0  0  0  0
  6 81  1  0  0  0  0
  7 29  2  0  0  0  0
  8 31  2  0  0  0  0
  9 15  1  0  0  0  0
 10 15  2  0  0  0  0
 17 11  1  1  0  0  0
 11 23  1  0  0  0  0
 11 47  1  0  0  0  0
 12 19  1  0  0  0  0
 25 12  1  6  0  0  0
 12 57  1  0  0  0  0
 20 13  1  1  0  0  0
 13 29  1  0  0  0  0
 13 59  1  0  0  0  0
 14 28  1  0  0  0  0
 14 30  1  0  0  0  0
 14 64  1  0  0  0  0
 15 42  1  0  0  0  0
 16 17  1  0  0  0  0
 16 18  1  0  0  0  0
 16 43  1  0  0  0  0
 16 44  1  0  0  0  0
 17 19  1  0  0  0  0
 17 45  1  0  0  0  0
 18 21  1  0  0  0  0
 18 22  1  0  0  0  0
 18 46  1  0  0  0  0
 20 23  1  0  0  0  0
 20 24  1  0  0  0  0
 20 48  1  0  0  0  0
 21 49  1  0  0  0  0
 21 50  1  0  0  0  0
 21 51  1  0  0  0  0
 22 52  1  0  0  0  0
 22 53  1  0  0  0  0
 22 54  1  0  0  0  0
 24 26  1  0  0  0  0
 24 55  1  0  0  0  0
 24 56  1  0  0  0  0
 25 27  1  0  0  0  0
 25 28  1  0  0  0  0
 25 58  1  0  0  0  0
 26 31  1  0  0  0  0
 26 60  1  0  0  0  0
 26 61  1  0  0  0  0
 27 62  1  0  0  0  0
 27 63  1  0  0  0  0
 30 32  1  0  0  0  0
 30 65  1  0  0  0  0
 30 66  1  0  0  0  0
 32 35  1  0  0  0  0
 32 67  1  0  0  0  0
 32 68  1  0  0  0  0
 33 34  1  0  0  0  0
 33 36  1  0  0  0  0
 33 37  1  0  0  0  0
 33 69  1  0  0  0  0
 34 70  1  0  0  0  0
 34 71  1  0  0  0  0
 35 38  2  0  0  0  0
 35 39  1  0  0  0  0
 36 73  1  0  0  0  0
 36 74  1  0  0  0  0
 36 75  1  0  0  0  0
 37 76  1  0  0  0  0
 37 77  1  0  0  0  0
 37 78  1  0  0  0  0
 38 40  1  0  0  0  0
 38 79  1  0  0  0  0
 39 41  2  0  0  0  0
 39 80  1  0  0  0  0
 40 42  2  0  0  0  0
 40 82  1  0  0  0  0
 41 42  1  0  0  0  0
 41 83  1  0  0  0  0
M  CHG  2   9  -1  15   1
M  END
> <PUBCHEM_COMPOUND_CID>
507448
> <PUBCHEM_COMPOUND_CANONICALIZED>
1
> <PUBCHEM_CACTVS_COMPLEXITY>
920
> <PUBCHEM_CACTVS_HBOND_ACCEPTOR>
10
> <PUBCHEM_CACTVS_HBOND_DONOR>
6
> <PUBCHEM_CACTVS_ROTATABLE_BOND>
18
> <PUBCHEM_CACTVS_SUBSKEYS>
AAADcfB7vABAAAAAAAAAAAAAAAAAAAAAAAAwAAAAAAAAAAABAAAAHgQUCAAADSjl2AayyILQRgSJAiXSWwCCAAAgAgAoiIGIZIsIYDKAkbGcYABklgCIyAe8l4IOCAAAAAAAAAAQAAAAAAAAAAAAAAAAAA==
> <PUBCHEM_IUPAC_OPENEYE_NAME>
(4S)-4-(isobutoxycarbonylamino)-5-[[(1S)-3-methyl-1-[[(1R)-2-[2-(4-nitrophenyl)ethylamino]-2-oxo-1-(sulfanylmethyl)ethyl]carbamoyl]butyl]amino]-5-oxo-pentanoic acid
> <PUBCHEM_IUPAC_CAS_NAME>
(4S)-5-[[(2S)-1-[[(2R)-3-mercapto-1-[2-(4-nitrophenyl)ethylamino]-1-oxopropan-2-yl]amino]-4-methyl-1-oxopentan-2-yl]amino]-4-[[2-methylpropoxy(oxo)methyl]amino]-5-oxopentanoic acid
> <PUBCHEM_IUPAC_NAME_MARKUP>
(4<I>S</I>)-5-[[(2<I>S</I>)-4-methyl-1-[[(2<I>R</I>)-1-[2-(4-nitrophenyl)ethylamino]-1-oxo-3-sulfanylpropan-2-yl]amino]-1-oxopentan-2-yl]amino]-4-(2-methylpropoxycarbonylamino)-5-oxopentanoic acid
> <PUBCHEM_IUPAC_NAME>
(4S)-5-[[(2S)-4-methyl-1-[[(2R)-1-[2-(4-nitrophenyl)ethylamino]-1-oxo-3-sulfanylpropan-2-yl]amino]-1-oxopentan-2-yl]amino]-4-(2-methylpropoxycarbonylamino)-5-oxopentanoic acid
> <PUBCHEM_IUPAC_SYSTEMATIC_NAME>
(4S)-5-[[(2S)-4-methyl-1-[[(2R)-1-[2-(4-nitrophenyl)ethylamino]-1-oxidanylidene-3-sulfanyl-propan-2-yl]amino]-1-oxidanylidene-pentan-2-yl]amino]-4-(2-methylpropoxycarbonylamino)-5-oxidanylidene-pentanoic acid
> <PUBCHEM_IUPAC_TRADITIONAL_NAME>
(4S)-4-(isobutoxycarbonylamino)-5-keto-5-[[(1S)-1-[[(1R)-2-keto-1-(mercaptomethyl)-2-[2-(4-nitrophenyl)ethylamino]ethyl]carbamoyl]-3-methyl-butyl]amino]valeric acid
> <PUBCHEM_IUPAC_INCHI>
InChI=1S/C27H41N5O9S/c1-16(2)13-21(29-25(36)20(9-10-23(33)34)31-27(38)41-14-17(3)4)26(37)30-22(15-42)24(35)28-12-11-18-5-7-19(8-6-18)32(39)40/h5-8,16-17,20-22,42H,9-15H2,1-4H3,(H,28,35)(H,29,36)(H,30,37)(H,31,38)(H,33,34)/t20-,21-,22-/m0/s1
> <PUBCHEM_IUPAC_INCHIKEY>
ZEOGHGSNVYFSDX-FKBYEOEOSA-N
> <PUBCHEM_XLOGP3_AA>
3
> <PUBCHEM_EXACT_MASS>
611.26249908
> <PUBCHEM_MOLECULAR_FORMULA>
C27H41N5O9S
> <PUBCHEM_MOLECULAR_WEIGHT>
611.7
> <PUBCHEM_OPENEYE_CAN_SMILES>
CC(C)CC(C(=O)NC(CS)C(=O)NCCC1=CC=C(C=C1)[N+](=O)[O-])NC(=O)C(CCC(=O)O)NC(=O)OCC(C)C
> <PUBCHEM_OPENEYE_ISO_SMILES>
CC(C)C[C@@H](C(=O)N[C@@H](CS)C(=O)NCCC1=CC=C(C=C1)[N+](=O)[O-])NC(=O)[C@H](CCC(=O)O)NC(=O)OCC(C)C
> <PUBCHEM_CACTVS_TPSA>
210
> <PUBCHEM_MONOISOTOPIC_WEIGHT>
611.26249908
> <PUBCHEM_TOTAL_CHARGE>
0
> <PUBCHEM_HEAVY_ATOM_COUNT>
42
> <PUBCHEM_ATOM_DEF_STEREO_COUNT>
3
> <PUBCHEM_ATOM_UDEF_STEREO_COUNT>
0
> <PUBCHEM_BOND_DEF_STEREO_COUNT>
0
> <PUBCHEM_BOND_UDEF_STEREO_COUNT>
0
> <PUBCHEM_ISOTOPIC_ATOM_COUNT>
0
> <PUBCHEM_COMPONENT_COUNT>
1
> <PUBCHEM_CACTVS_TAUTO_COUNT>
-1
> <PUBCHEM_COORDINATE_TYPE>
1
5
255
> <PUBCHEM_BONDANNOTATIONS>
17  11  5
25  12  6
20  13  5
35  38  8
35  39  8
38  40  8
39  41  8
40  42  8
41  42  8
$$$$
