507468
  -OEChem-10302200282D
 82 83  0     1  0  0  0  0  0999 V2000
    2.0000   -5.2500    0.0000 Cl  0  0  0  0  0  0  0  0  0  0  0  0
    3.7320   -8.2500    0.0000 Cl  0  0  0  0  0  0  0  0  0  0  0  0
    4.5981    0.2500    0.0000 S   0  0  0  0  0  0  0  0  0  0  0  0
    5.4641    0.7500    0.0000 O   0  0  0  0  0  0  0  0  0  0  0  0
    5.4641    1.7500    0.0000 O   0  0  0  0  0  0  0  0  0  0  0  0
    6.3301   -2.7500    0.0000 O   0  0  0  0  0  0  0  0  0  0  0  0
    4.5981    5.2500    0.0000 O   0  0  0  0  0  0  0  0  0  0  0  0
    8.0622    6.2500    0.0000 O   0  0  0  0  0  0  0  0  0  0  0  0
    6.3301    5.2500    0.0000 O   0  0  0  0  0  0  0  0  0  0  0  0
    8.9282    4.7500    0.0000 O   0  0  0  0  0  0  0  0  0  0  0  0
    7.1962    1.7500    0.0000 N   0  0  0  0  0  0  0  0  0  0  0  0
    6.3301   -0.7500    0.0000 N   0  0  0  0  0  0  0  0  0  0  0  0
    5.4641    3.7500    0.0000 N   0  0  0  0  0  0  0  0  0  0  0  0
    4.5981   -2.7500    0.0000 N   0  0  0  0  0  0  0  0  0  0  0  0
    8.0622    0.2500    0.0000 C   0  0  0  0  0  0  0  0  0  0  0  0
    7.1962    0.7500    0.0000 C   0  0  1  0  0  0  0  0  0  0  0  0
    8.9282    0.7500    0.0000 C   0  0  0  0  0  0  0  0  0  0  0  0
    6.3301    0.2500    0.0000 C   0  0  0  0  0  0  0  0  0  0  0  0
    9.7942    0.2500    0.0000 C   0  0  0  0  0  0  0  0  0  0  0  0
    8.9282    1.7500    0.0000 C   0  0  0  0  0  0  0  0  0  0  0  0
    6.3301    3.2500    0.0000 C   0  0  2  0  0  0  0  0  0  0  0  0
    6.3301    2.2500    0.0000 C   0  0  0  0  0  0  0  0  0  0  0  0
    7.1962    3.7500    0.0000 C   0  0  0  0  0  0  0  0  0  0  0  0
    5.4641   -1.2500    0.0000 C   0  0  1  0  0  0  0  0  0  0  0  0
    7.1962    4.7500    0.0000 C   0  0  0  0  0  0  0  0  0  0  0  0
    4.5981   -0.7500    0.0000 C   0  0  0  0  0  0  0  0  0  0  0  0
    5.4641   -2.2500    0.0000 C   0  0  0  0  0  0  0  0  0  0  0  0
    4.5981   -3.7500    0.0000 C   0  0  0  0  0  0  0  0  0  0  0  0
    5.4641    4.7500    0.0000 C   0  0  0  0  0  0  0  0  0  0  0  0
    8.0622    5.2500    0.0000 C   0  0  0  0  0  0  0  0  0  0  0  0
    3.7320   -4.2500    0.0000 C   0  0  0  0  0  0  0  0  0  0  0  0
    3.7320   -5.2500    0.0000 C   0  0  0  0  0  0  0  0  0  0  0  0
    4.5981    6.2500    0.0000 C   0  0  0  0  0  0  0  0  0  0  0  0
    2.8660   -5.7500    0.0000 C   0  0  0  0  0  0  0  0  0  0  0  0
    4.5981   -5.7500    0.0000 C   0  0  0  0  0  0  0  0  0  0  0  0
    3.7320    6.7500    0.0000 C   0  0  0  0  0  0  0  0  0  0  0  0
    2.8660   -6.7500    0.0000 C   0  0  0  0  0  0  0  0  0  0  0  0
    4.5981   -6.7500    0.0000 C   0  0  0  0  0  0  0  0  0  0  0  0
    3.7320   -7.2500    0.0000 C   0  0  0  0  0  0  0  0  0  0  0  0
    3.7320    7.7500    0.0000 C   0  0  0  0  0  0  0  0  0  0  0  0
    2.8660    6.2500    0.0000 C   0  0  0  0  0  0  0  0  0  0  0  0
    2.8660    8.2500    0.0000 C   0  0  0  0  0  0  0  0  0  0  0  0
    2.0000    6.7500    0.0000 C   0  0  0  0  0  0  0  0  0  0  0  0
    2.0000    7.7500    0.0000 C   0  0  0  0  0  0  0  0  0  0  0  0
    7.6636   -0.2249    0.0000 H   0  0  0  0  0  0  0  0  0  0  0  0
    8.4607   -0.2249    0.0000 H   0  0  0  0  0  0  0  0  0  0  0  0
    6.6592    1.0600    0.0000 H   0  0  0  0  0  0  0  0  0  0  0  0
    9.4651    1.0600    0.0000 H   0  0  0  0  0  0  0  0  0  0  0  0
    7.7331    2.0600    0.0000 H   0  0  0  0  0  0  0  0  0  0  0  0
    9.4842   -0.2869    0.0000 H   0  0  0  0  0  0  0  0  0  0  0  0
   10.3312   -0.0600    0.0000 H   0  0  0  0  0  0  0  0  0  0  0  0
   10.1042    0.7869    0.0000 H   0  0  0  0  0  0  0  0  0  0  0  0
    9.5482    1.7500    0.0000 H   0  0  0  0  0  0  0  0  0  0  0  0
    8.9282    2.3700    0.0000 H   0  0  0  0  0  0  0  0  0  0  0  0
    8.3082    1.7500    0.0000 H   0  0  0  0  0  0  0  0  0  0  0  0
    5.7932    2.9400    0.0000 H   0  0  0  0  0  0  0  0  0  0  0  0
    6.8671   -1.0600    0.0000 H   0  0  0  0  0  0  0  0  0  0  0  0
    7.4082    3.1674    0.0000 H   0  0  0  0  0  0  0  0  0  0  0  0
    7.8067    3.8577    0.0000 H   0  0  0  0  0  0  0  0  0  0  0  0
    5.4641   -0.6300    0.0000 H   0  0  0  0  0  0  0  0  0  0  0  0
    6.9841    5.3326    0.0000 H   0  0  0  0  0  0  0  0  0  0  0  0
    6.5856    4.6423    0.0000 H   0  0  0  0  0  0  0  0  0  0  0  0
    4.9272    3.4400    0.0000 H   0  0  0  0  0  0  0  0  0  0  0  0
    3.9875   -0.6423    0.0000 H   0  0  0  0  0  0  0  0  0  0  0  0
    4.3860   -1.3326    0.0000 H   0  0  0  0  0  0  0  0  0  0  0  0
    4.0611   -2.4400    0.0000 H   0  0  0  0  0  0  0  0  0  0  0  0
    4.8101   -4.3326    0.0000 H   0  0  0  0  0  0  0  0  0  0  0  0
    5.2087   -3.6423    0.0000 H   0  0  0  0  0  0  0  0  0  0  0  0
    3.5200   -3.6674    0.0000 H   0  0  0  0  0  0  0  0  0  0  0  0
    3.1215   -4.3577    0.0000 H   0  0  0  0  0  0  0  0  0  0  0  0
    4.0611    0.5600    0.0000 H   0  0  0  0  0  0  0  0  0  0  0  0
    5.2087    6.1423    0.0000 H   0  0  0  0  0  0  0  0  0  0  0  0
    4.8101    6.8326    0.0000 H   0  0  0  0  0  0  0  0  0  0  0  0
    5.1350   -5.4400    0.0000 H   0  0  0  0  0  0  0  0  0  0  0  0
    8.5991    6.5600    0.0000 H   0  0  0  0  0  0  0  0  0  0  0  0
    2.3291   -7.0600    0.0000 H   0  0  0  0  0  0  0  0  0  0  0  0
    5.1350   -7.0600    0.0000 H   0  0  0  0  0  0  0  0  0  0  0  0
    4.2690    8.0600    0.0000 H   0  0  0  0  0  0  0  0  0  0  0  0
    2.8660    5.6300    0.0000 H   0  0  0  0  0  0  0  0  0  0  0  0
    2.8660    8.8700    0.0000 H   0  0  0  0  0  0  0  0  0  0  0  0
    1.4631    6.4400    0.0000 H   0  0  0  0  0  0  0  0  0  0  0  0
    1.4631    8.0600    0.0000 H   0  0  0  0  0  0  0  0  0  0  0  0
  1 34  1  0  0  0  0
  2 39  1  0  0  0  0
  3 26  1  0  0  0  0
  3 71  1  0  0  0  0
  4 18  2  0  0  0  0
  5 22  2  0  0  0  0
  6 27  2  0  0  0  0
  7 29  1  0  0  0  0
  7 33  1  0  0  0  0
  8 30  1  0  0  0  0
  8 75  1  0  0  0  0
  9 29  2  0  0  0  0
 10 30  2  0  0  0  0
 16 11  1  1  0  0  0
 11 22  1  0  0  0  0
 11 49  1  0  0  0  0
 12 18  1  0  0  0  0
 24 12  1  6  0  0  0
 12 57  1  0  0  0  0
 21 13  1  1  0  0  0
 13 29  1  0  0  0  0
 13 63  1  0  0  0  0
 14 27  1  0  0  0  0
 14 28  1  0  0  0  0
 14 66  1  0  0  0  0
 15 16  1  0  0  0  0
 15 17  1  0  0  0  0
 15 45  1  0  0  0  0
 15 46  1  0  0  0  0
 16 18  1  0  0  0  0
 16 47  1  0  0  0  0
 17 19  1  0  0  0  0
 17 20  1  0  0  0  0
 17 48  1  0  0  0  0
 19 50  1  0  0  0  0
 19 51  1  0  0  0  0
 19 52  1  0  0  0  0
 20 53  1  0  0  0  0
 20 54  1  0  0  0  0
 20 55  1  0  0  0  0
 21 22  1  0  0  0  0
 21 23  1  0  0  0  0
 21 56  1  0  0  0  0
 23 25  1  0  0  0  0
 23 58  1  0  0  0  0
 23 59  1  0  0  0  0
 24 26  1  0  0  0  0
 24 27  1  0  0  0  0
 24 60  1  0  0  0  0
 25 30  1  0  0  0  0
 25 61  1  0  0  0  0
 25 62  1  0  0  0  0
 26 64  1  0  0  0  0
 26 65  1  0  0  0  0
 28 31  1  0  0  0  0
 28 67  1  0  0  0  0
 28 68  1  0  0  0  0
 31 32  1  0  0  0  0
 31 69  1  0  0  0  0
 31 70  1  0  0  0  0
 32 34  2  0  0  0  0
 32 35  1  0  0  0  0
 33 36  1  0  0  0  0
 33 72  1  0  0  0  0
 33 73  1  0  0  0  0
 34 37  1  0  0  0  0
 35 38  2  0  0  0  0
 35 74  1  0  0  0  0
 36 40  2  0  0  0  0
 36 41  1  0  0  0  0
 37 39  2  0  0  0  0
 37 76  1  0  0  0  0
 38 39  1  0  0  0  0
 38 77  1  0  0  0  0
 40 42  1  0  0  0  0
 40 78  1  0  0  0  0
 41 43  2  0  0  0  0
 41 79  1  0  0  0  0
 42 44  2  0  0  0  0
 42 80  1  0  0  0  0
 43 44  1  0  0  0  0
 43 81  1  0  0  0  0
 44 82  1  0  0  0  0
M  END
> <PUBCHEM_COMPOUND_CID>
507468
> <PUBCHEM_COMPOUND_CANONICALIZED>
1
> <PUBCHEM_CACTVS_COMPLEXITY>
954
> <PUBCHEM_CACTVS_HBOND_ACCEPTOR>
8
> <PUBCHEM_CACTVS_HBOND_DONOR>
6
> <PUBCHEM_CACTVS_ROTATABLE_BOND>
18
> <PUBCHEM_CACTVS_SUBSKEYS>
AAADcfB7uABGAAAAAAAAAAAAAAAAAAAAAAAwYAAAAAAAAAABQAAAHgYQCAAADSrl2CayCILABgSIAiHSGAACAAAgBQAIiIGICokIZjKBszmccAAk1gGIqAe816IOBAAAAACBAAAIAAAAAQIAAAAAAAAAAA==
> <PUBCHEM_IUPAC_OPENEYE_NAME>
(4S)-4-(benzyloxycarbonylamino)-5-[[(1S)-1-[[(1R)-2-[2-(2,4-dichlorophenyl)ethylamino]-2-oxo-1-(sulfanylmethyl)ethyl]carbamoyl]-3-methyl-butyl]amino]-5-oxo-pentanoic acid
> <PUBCHEM_IUPAC_CAS_NAME>
(4S)-5-[[(2S)-1-[[(2R)-1-[2-(2,4-dichlorophenyl)ethylamino]-3-mercapto-1-oxopropan-2-yl]amino]-4-methyl-1-oxopentan-2-yl]amino]-5-oxo-4-(phenylmethoxycarbonylamino)pentanoic acid
> <PUBCHEM_IUPAC_NAME_MARKUP>
(4<I>S</I>)-5-[[(2<I>S</I>)-1-[[(2<I>R</I>)-1-[2-(2,4-dichlorophenyl)ethylamino]-1-oxo-3-sulfanylpropan-2-yl]amino]-4-methyl-1-oxopentan-2-yl]amino]-5-oxo-4-(phenylmethoxycarbonylamino)pentanoic acid
> <PUBCHEM_IUPAC_NAME>
(4S)-5-[[(2S)-1-[[(2R)-1-[2-(2,4-dichlorophenyl)ethylamino]-1-oxo-3-sulfanylpropan-2-yl]amino]-4-methyl-1-oxopentan-2-yl]amino]-5-oxo-4-(phenylmethoxycarbonylamino)pentanoic acid
> <PUBCHEM_IUPAC_SYSTEMATIC_NAME>
(4S)-5-[[(2S)-1-[[(2R)-1-[2-(2,4-dichlorophenyl)ethylamino]-1-oxidanylidene-3-sulfanyl-propan-2-yl]amino]-4-methyl-1-oxidanylidene-pentan-2-yl]amino]-5-oxidanylidene-4-(phenylmethoxycarbonylamino)pentanoic acid
> <PUBCHEM_IUPAC_TRADITIONAL_NAME>
(4S)-4-(benzyloxycarbonylamino)-5-[[(1S)-1-[[(1R)-2-[2-(2,4-dichlorophenyl)ethylamino]-2-keto-1-(mercaptomethyl)ethyl]carbamoyl]-3-methyl-butyl]amino]-5-keto-valeric acid
> <PUBCHEM_IUPAC_INCHI>
InChI=1S/C30H38Cl2N4O7S/c1-18(2)14-24(29(41)35-25(17-44)27(39)33-13-12-20-8-9-21(31)15-22(20)32)34-28(40)23(10-11-26(37)38)36-30(42)43-16-19-6-4-3-5-7-19/h3-9,15,18,23-25,44H,10-14,16-17H2,1-2H3,(H,33,39)(H,34,40)(H,35,41)(H,36,42)(H,37,38)/t23-,24-,25-/m0/s1
> <PUBCHEM_IUPAC_INCHIKEY>
IWKZDKGUZOYBQE-SDHOMARFSA-N
> <PUBCHEM_XLOGP3_AA>
4.6
> <PUBCHEM_EXACT_MASS>
668.1838261
> <PUBCHEM_MOLECULAR_FORMULA>
C30H38Cl2N4O7S
> <PUBCHEM_MOLECULAR_WEIGHT>
669.6
> <PUBCHEM_OPENEYE_CAN_SMILES>
CC(C)CC(C(=O)NC(CS)C(=O)NCCC1=C(C=C(C=C1)Cl)Cl)NC(=O)C(CCC(=O)O)NC(=O)OCC2=CC=CC=C2
> <PUBCHEM_OPENEYE_ISO_SMILES>
CC(C)C[C@@H](C(=O)N[C@@H](CS)C(=O)NCCC1=C(C=C(C=C1)Cl)Cl)NC(=O)[C@H](CCC(=O)O)NC(=O)OCC2=CC=CC=C2
> <PUBCHEM_CACTVS_TPSA>
164
> <PUBCHEM_MONOISOTOPIC_WEIGHT>
668.1838261
> <PUBCHEM_TOTAL_CHARGE>
0
> <PUBCHEM_HEAVY_ATOM_COUNT>
44
> <PUBCHEM_ATOM_DEF_STEREO_COUNT>
3
> <PUBCHEM_ATOM_UDEF_STEREO_COUNT>
0
> <PUBCHEM_BOND_DEF_STEREO_COUNT>
0
> <PUBCHEM_BOND_UDEF_STEREO_COUNT>
0
> <PUBCHEM_ISOTOPIC_ATOM_COUNT>
0
> <PUBCHEM_COMPONENT_COUNT>
1
> <PUBCHEM_CACTVS_TAUTO_COUNT>
-1
> <PUBCHEM_COORDINATE_TYPE>
1
5
255
> <PUBCHEM_BONDANNOTATIONS>
16  11  5
24  12  6
21  13  5
32  34  8
32  35  8
34  37  8
35  38  8
36  40  8
36  41  8
37  39  8
38  39  8
40  42  8
41  43  8
42  44  8
43  44  8
$$$$
