507445
  -OEChem-10302200282D
 88 88  0     1  0  0  0  0  0999 V2000
    3.7320    1.2500    0.0000 S   0  0  0  0  0  0  0  0  0  0  0  0
    4.5981    1.7500    0.0000 O   0  0  0  0  0  0  0  0  0  0  0  0
    4.5981    2.7500    0.0000 O   0  0  0  0  0  0  0  0  0  0  0  0
    3.7320    6.2500    0.0000 O   0  0  0  0  0  0  0  0  0  0  0  0
    5.4641   -1.7500    0.0000 O   0  0  0  0  0  0  0  0  0  0  0  0
    7.1962    7.2500    0.0000 O   0  0  0  0  0  0  0  0  0  0  0  0
    5.4641    6.2500    0.0000 O   0  0  0  0  0  0  0  0  0  0  0  0
    8.0622    5.7500    0.0000 O   0  0  0  0  0  0  0  0  0  0  0  0
    2.8660   -7.2500    0.0000 O   0  0  0  0  0  0  0  0  0  0  0  0
    6.3301    2.7500    0.0000 N   0  0  0  0  0  0  0  0  0  0  0  0
    5.4641    0.2500    0.0000 N   0  0  0  0  0  0  0  0  0  0  0  0
    4.5981    4.7500    0.0000 N   0  0  0  0  0  0  0  0  0  0  0  0
    3.7320   -1.7500    0.0000 N   0  0  0  0  0  0  0  0  0  0  0  0
    7.1962    1.2500    0.0000 C   0  0  0  0  0  0  0  0  0  0  0  0
    6.3301    1.7500    0.0000 C   0  0  1  0  0  0  0  0  0  0  0  0
    8.0622    1.7500    0.0000 C   0  0  0  0  0  0  0  0  0  0  0  0
    5.4641    1.2500    0.0000 C   0  0  0  0  0  0  0  0  0  0  0  0
    5.4641    4.2500    0.0000 C   0  0  2  0  0  0  0  0  0  0  0  0
    8.9282    1.2500    0.0000 C   0  0  0  0  0  0  0  0  0  0  0  0
    8.0622    2.7500    0.0000 C   0  0  0  0  0  0  0  0  0  0  0  0
    5.4641    3.2500    0.0000 C   0  0  0  0  0  0  0  0  0  0  0  0
    6.3301    4.7500    0.0000 C   0  0  0  0  0  0  0  0  0  0  0  0
    4.5981   -0.2500    0.0000 C   0  0  1  0  0  0  0  0  0  0  0  0
    6.3301    5.7500    0.0000 C   0  0  0  0  0  0  0  0  0  0  0  0
    3.7320    0.2500    0.0000 C   0  0  0  0  0  0  0  0  0  0  0  0
    4.5981   -1.2500    0.0000 C   0  0  0  0  0  0  0  0  0  0  0  0
    4.5981    5.7500    0.0000 C   0  0  0  0  0  0  0  0  0  0  0  0
    3.7320   -2.7500    0.0000 C   0  0  0  0  0  0  0  0  0  0  0  0
    7.1962    6.2500    0.0000 C   0  0  0  0  0  0  0  0  0  0  0  0
    2.8660   -3.2500    0.0000 C   0  0  0  0  0  0  0  0  0  0  0  0
    2.8660    7.7500    0.0000 C   0  0  0  0  0  0  0  0  0  0  0  0
    3.7320    7.2500    0.0000 C   0  0  0  0  0  0  0  0  0  0  0  0
    2.8660   -4.2500    0.0000 C   0  0  0  0  0  0  0  0  0  0  0  0
    2.8660    8.7500    0.0000 C   0  0  0  0  0  0  0  0  0  0  0  0
    2.0000    7.2500    0.0000 C   0  0  0  0  0  0  0  0  0  0  0  0
    3.7320   -4.7500    0.0000 C   0  0  0  0  0  0  0  0  0  0  0  0
    2.0000   -4.7500    0.0000 C   0  0  0  0  0  0  0  0  0  0  0  0
    3.7320   -5.7500    0.0000 C   0  0  0  0  0  0  0  0  0  0  0  0
    2.0000   -5.7500    0.0000 C   0  0  0  0  0  0  0  0  0  0  0  0
    2.8660   -6.2500    0.0000 C   0  0  0  0  0  0  0  0  0  0  0  0
    2.0000   -7.7500    0.0000 C   0  0  0  0  0  0  0  0  0  0  0  0
    2.0000   -8.7500    0.0000 C   0  0  0  0  0  0  0  0  0  0  0  0
    6.7976    0.7751    0.0000 H   0  0  0  0  0  0  0  0  0  0  0  0
    7.5947    0.7751    0.0000 H   0  0  0  0  0  0  0  0  0  0  0  0
    6.8671    2.0600    0.0000 H   0  0  0  0  0  0  0  0  0  0  0  0
    8.0622    1.1300    0.0000 H   0  0  0  0  0  0  0  0  0  0  0  0
    6.8671    3.0600    0.0000 H   0  0  0  0  0  0  0  0  0  0  0  0
    5.4641    4.8700    0.0000 H   0  0  0  0  0  0  0  0  0  0  0  0
    8.6182    0.7131    0.0000 H   0  0  0  0  0  0  0  0  0  0  0  0
    9.4651    0.9400    0.0000 H   0  0  0  0  0  0  0  0  0  0  0  0
    9.2382    1.7869    0.0000 H   0  0  0  0  0  0  0  0  0  0  0  0
    8.6822    2.7500    0.0000 H   0  0  0  0  0  0  0  0  0  0  0  0
    8.0622    3.3700    0.0000 H   0  0  0  0  0  0  0  0  0  0  0  0
    7.4422    2.7500    0.0000 H   0  0  0  0  0  0  0  0  0  0  0  0
    6.5422    4.1674    0.0000 H   0  0  0  0  0  0  0  0  0  0  0  0
    6.9407    4.8577    0.0000 H   0  0  0  0  0  0  0  0  0  0  0  0
    6.0010   -0.0600    0.0000 H   0  0  0  0  0  0  0  0  0  0  0  0
    4.5981    0.3700    0.0000 H   0  0  0  0  0  0  0  0  0  0  0  0
    4.0611    4.4400    0.0000 H   0  0  0  0  0  0  0  0  0  0  0  0
    6.1181    6.3326    0.0000 H   0  0  0  0  0  0  0  0  0  0  0  0
    5.7196    5.6423    0.0000 H   0  0  0  0  0  0  0  0  0  0  0  0
    3.1215    0.3577    0.0000 H   0  0  0  0  0  0  0  0  0  0  0  0
    3.5200   -0.3326    0.0000 H   0  0  0  0  0  0  0  0  0  0  0  0
    3.1951   -1.4400    0.0000 H   0  0  0  0  0  0  0  0  0  0  0  0
    3.9441   -3.3326    0.0000 H   0  0  0  0  0  0  0  0  0  0  0  0
    4.3426   -2.6423    0.0000 H   0  0  0  0  0  0  0  0  0  0  0  0
    2.6540   -2.6674    0.0000 H   0  0  0  0  0  0  0  0  0  0  0  0
    2.2554   -3.3577    0.0000 H   0  0  0  0  0  0  0  0  0  0  0  0
    2.8660    7.1300    0.0000 H   0  0  0  0  0  0  0  0  0  0  0  0
    4.3426    7.1423    0.0000 H   0  0  0  0  0  0  0  0  0  0  0  0
    3.9441    7.8326    0.0000 H   0  0  0  0  0  0  0  0  0  0  0  0
    3.1951    1.5600    0.0000 H   0  0  0  0  0  0  0  0  0  0  0  0
    3.4860    8.7500    0.0000 H   0  0  0  0  0  0  0  0  0  0  0  0
    2.8660    9.3700    0.0000 H   0  0  0  0  0  0  0  0  0  0  0  0
    2.2460    8.7500    0.0000 H   0  0  0  0  0  0  0  0  0  0  0  0
    1.6900    7.7869    0.0000 H   0  0  0  0  0  0  0  0  0  0  0  0
    1.4631    6.9400    0.0000 H   0  0  0  0  0  0  0  0  0  0  0  0
    2.3100    6.7131    0.0000 H   0  0  0  0  0  0  0  0  0  0  0  0
    4.2690   -4.4400    0.0000 H   0  0  0  0  0  0  0  0  0  0  0  0
    1.4631   -4.4400    0.0000 H   0  0  0  0  0  0  0  0  0  0  0  0
    7.7331    7.5600    0.0000 H   0  0  0  0  0  0  0  0  0  0  0  0
    4.2690   -6.0600    0.0000 H   0  0  0  0  0  0  0  0  0  0  0  0
    1.4631   -6.0600    0.0000 H   0  0  0  0  0  0  0  0  0  0  0  0
    1.7880   -7.1674    0.0000 H   0  0  0  0  0  0  0  0  0  0  0  0
    1.3894   -7.8577    0.0000 H   0  0  0  0  0  0  0  0  0  0  0  0
    1.3800   -8.7500    0.0000 H   0  0  0  0  0  0  0  0  0  0  0  0
    2.0000   -9.3700    0.0000 H   0  0  0  0  0  0  0  0  0  0  0  0
    2.6200   -8.7500    0.0000 H   0  0  0  0  0  0  0  0  0  0  0  0
  1 25  1  0  0  0  0
  1 72  1  0  0  0  0
  2 17  2  0  0  0  0
  3 21  2  0  0  0  0
  4 27  1  0  0  0  0
  4 32  1  0  0  0  0
  5 26  2  0  0  0  0
  6 29  1  0  0  0  0
  6 81  1  0  0  0  0
  7 27  2  0  0  0  0
  8 29  2  0  0  0  0
  9 40  1  0  0  0  0
  9 41  1  0  0  0  0
 15 10  1  1  0  0  0
 10 21  1  0  0  0  0
 10 47  1  0  0  0  0
 11 17  1  0  0  0  0
 23 11  1  6  0  0  0
 11 57  1  0  0  0  0
 18 12  1  1  0  0  0
 12 27  1  0  0  0  0
 12 59  1  0  0  0  0
 13 26  1  0  0  0  0
 13 28  1  0  0  0  0
 13 64  1  0  0  0  0
 14 15  1  0  0  0  0
 14 16  1  0  0  0  0
 14 43  1  0  0  0  0
 14 44  1  0  0  0  0
 15 17  1  0  0  0  0
 15 45  1  0  0  0  0
 16 19  1  0  0  0  0
 16 20  1  0  0  0  0
 16 46  1  0  0  0  0
 18 21  1  0  0  0  0
 18 22  1  0  0  0  0
 18 48  1  0  0  0  0
 19 49  1  0  0  0  0
 19 50  1  0  0  0  0
 19 51  1  0  0  0  0
 20 52  1  0  0  0  0
 20 53  1  0  0  0  0
 20 54  1  0  0  0  0
 22 24  1  0  0  0  0
 22 55  1  0  0  0  0
 22 56  1  0  0  0  0
 23 25  1  0  0  0  0
 23 26  1  0  0  0  0
 23 58  1  0  0  0  0
 24 29  1  0  0  0  0
 24 60  1  0  0  0  0
 24 61  1  0  0  0  0
 25 62  1  0  0  0  0
 25 63  1  0  0  0  0
 28 30  1  0  0  0  0
 28 65  1  0  0  0  0
 28 66  1  0  0  0  0
 30 33  1  0  0  0  0
 30 67  1  0  0  0  0
 30 68  1  0  0  0  0
 31 32  1  0  0  0  0
 31 34  1  0  0  0  0
 31 35  1  0  0  0  0
 31 69  1  0  0  0  0
 32 70  1  0  0  0  0
 32 71  1  0  0  0  0
 33 36  2  0  0  0  0
 33 37  1  0  0  0  0
 34 73  1  0  0  0  0
 34 74  1  0  0  0  0
 34 75  1  0  0  0  0
 35 76  1  0  0  0  0
 35 77  1  0  0  0  0
 35 78  1  0  0  0  0
 36 38  1  0  0  0  0
 36 79  1  0  0  0  0
 37 39  2  0  0  0  0
 37 80  1  0  0  0  0
 38 40  2  0  0  0  0
 38 82  1  0  0  0  0
 39 40  1  0  0  0  0
 39 83  1  0  0  0  0
 41 42  1  0  0  0  0
 41 84  1  0  0  0  0
 41 85  1  0  0  0  0
 42 86  1  0  0  0  0
 42 87  1  0  0  0  0
 42 88  1  0  0  0  0
M  END
> <PUBCHEM_COMPOUND_CID>
507445
> <PUBCHEM_COMPOUND_CANONICALIZED>
1
> <PUBCHEM_CACTVS_COMPLEXITY>
865
> <PUBCHEM_CACTVS_HBOND_ACCEPTOR>
9
> <PUBCHEM_CACTVS_HBOND_DONOR>
6
> <PUBCHEM_CACTVS_ROTATABLE_BOND>
20
> <PUBCHEM_CACTVS_SUBSKEYS>
AAADcfB7vABAAAAAAAAAAAAAAAAAAAAAAAAwAAAAAAAAAAABAAAAHgQQCAAADSzl2AayDoLABgSIAiHSGAACCAAgIAAIiIGOCIkMZjKEsTueeCCk1hGIqAe814IOIAAAAAAAAABAAAAAAAAAAAAAAAAAAA==
> <PUBCHEM_IUPAC_OPENEYE_NAME>
(4S)-5-[[(1S)-1-[[(1R)-2-[2-(4-ethoxyphenyl)ethylamino]-2-oxo-1-(sulfanylmethyl)ethyl]carbamoyl]-3-methyl-butyl]amino]-4-(isobutoxycarbonylamino)-5-oxo-pentanoic acid
> <PUBCHEM_IUPAC_CAS_NAME>
(4S)-5-[[(2S)-1-[[(2R)-1-[2-(4-ethoxyphenyl)ethylamino]-3-mercapto-1-oxopropan-2-yl]amino]-4-methyl-1-oxopentan-2-yl]amino]-4-[[2-methylpropoxy(oxo)methyl]amino]-5-oxopentanoic acid
> <PUBCHEM_IUPAC_NAME_MARKUP>
(4<I>S</I>)-5-[[(2<I>S</I>)-1-[[(2<I>R</I>)-1-[2-(4-ethoxyphenyl)ethylamino]-1-oxo-3-sulfanylpropan-2-yl]amino]-4-methyl-1-oxopentan-2-yl]amino]-4-(2-methylpropoxycarbonylamino)-5-oxopentanoic acid
> <PUBCHEM_IUPAC_NAME>
(4S)-5-[[(2S)-1-[[(2R)-1-[2-(4-ethoxyphenyl)ethylamino]-1-oxo-3-sulfanylpropan-2-yl]amino]-4-methyl-1-oxopentan-2-yl]amino]-4-(2-methylpropoxycarbonylamino)-5-oxopentanoic acid
> <PUBCHEM_IUPAC_SYSTEMATIC_NAME>
(4S)-5-[[(2S)-1-[[(2R)-1-[2-(4-ethoxyphenyl)ethylamino]-1-oxidanylidene-3-sulfanyl-propan-2-yl]amino]-4-methyl-1-oxidanylidene-pentan-2-yl]amino]-4-(2-methylpropoxycarbonylamino)-5-oxidanylidene-pentanoic acid
> <PUBCHEM_IUPAC_TRADITIONAL_NAME>
(4S)-4-(isobutoxycarbonylamino)-5-keto-5-[[(1S)-1-[[(1R)-2-keto-1-(mercaptomethyl)-2-(2-p-phenetylethylamino)ethyl]carbamoyl]-3-methyl-butyl]amino]valeric acid
> <PUBCHEM_IUPAC_INCHI>
InChI=1S/C29H46N4O8S/c1-6-40-21-9-7-20(8-10-21)13-14-30-26(36)24(17-42)32-28(38)23(15-18(2)3)31-27(37)22(11-12-25(34)35)33-29(39)41-16-19(4)5/h7-10,18-19,22-24,42H,6,11-17H2,1-5H3,(H,30,36)(H,31,37)(H,32,38)(H,33,39)(H,34,35)/t22-,23-,24-/m0/s1
> <PUBCHEM_IUPAC_INCHIKEY>
ZDUAHWOBRNLSFD-HJOGWXRNSA-N
> <PUBCHEM_XLOGP3_AA>
3.5
> <PUBCHEM_EXACT_MASS>
610.30363561
> <PUBCHEM_MOLECULAR_FORMULA>
C29H46N4O8S
> <PUBCHEM_MOLECULAR_WEIGHT>
610.8
> <PUBCHEM_OPENEYE_CAN_SMILES>
CCOC1=CC=C(C=C1)CCNC(=O)C(CS)NC(=O)C(CC(C)C)NC(=O)C(CCC(=O)O)NC(=O)OCC(C)C
> <PUBCHEM_OPENEYE_ISO_SMILES>
CCOC1=CC=C(C=C1)CCNC(=O)[C@H](CS)NC(=O)[C@H](CC(C)C)NC(=O)[C@H](CCC(=O)O)NC(=O)OCC(C)C
> <PUBCHEM_CACTVS_TPSA>
173
> <PUBCHEM_MONOISOTOPIC_WEIGHT>
610.30363561
> <PUBCHEM_TOTAL_CHARGE>
0
> <PUBCHEM_HEAVY_ATOM_COUNT>
42
> <PUBCHEM_ATOM_DEF_STEREO_COUNT>
3
> <PUBCHEM_ATOM_UDEF_STEREO_COUNT>
0
> <PUBCHEM_BOND_DEF_STEREO_COUNT>
0
> <PUBCHEM_BOND_UDEF_STEREO_COUNT>
0
> <PUBCHEM_ISOTOPIC_ATOM_COUNT>
0
> <PUBCHEM_COMPONENT_COUNT>
1
> <PUBCHEM_CACTVS_TAUTO_COUNT>
-1
> <PUBCHEM_COORDINATE_TYPE>
1
5
255
> <PUBCHEM_BONDANNOTATIONS>
15  10  5
23  11  6
18  12  5
33  36  8
33  37  8
36  38  8
37  39  8
38  40  8
39  40  8
$$$$
