507588
  -OEChem-10302200282D
 86 88  0     1  0  0  0  0  0999 V2000
   13.7335    3.7920    0.0000 Cl  0  0  0  0  0  0  0  0  0  0  0  0
   10.2335    1.1939    0.0000 S   0  0  0  0  0  0  0  0  0  0  0  0
    6.9390   -0.7675    0.0000 O   0  0  0  0  0  0  0  0  0  0  0  0
    7.7335    0.3279    0.0000 O   0  0  0  0  0  0  0  0  0  0  0  0
    5.2462   -3.9510    0.0000 O   0  0  0  0  0  0  0  0  0  0  0  0
    8.7335    3.7920    0.0000 O   0  0  0  0  0  0  0  0  0  0  0  0
    3.9570   -2.7942    0.0000 O   0  0  0  0  0  0  0  0  0  0  0  0
    2.0000   -2.3818    0.0000 O   0  0  0  0  0  0  0  0  0  0  0  0
    2.3572   -0.6870    0.0000 O   0  0  0  0  0  0  0  0  0  0  0  0
    5.6499    0.3892    0.0000 N   0  0  0  0  0  0  0  0  0  0  0  0
    7.7335    2.0600    0.0000 N   0  0  0  0  0  0  0  0  0  0  0  0
    5.6034   -2.2561    0.0000 N   0  0  0  0  0  0  0  0  0  0  0  0
   10.2335    2.9260    0.0000 N   0  0  0  0  0  0  0  0  0  0  0  0
    4.7037    1.6939    0.0000 C   0  0  3  0  0  0  0  0  0  0  0  0
    4.7037    0.6939    0.0000 C   0  0  3  0  0  0  0  0  0  0  0  0
    5.6499    1.9987    0.0000 C   0  0  0  0  0  0  0  0  0  0  0  0
    6.2335    1.1939    0.0000 C   0  0  1  0  0  0  0  0  0  0  0  0
    3.8376    2.1939    0.0000 C   0  0  0  0  0  0  0  0  0  0  0  0
    3.8376    0.1939    0.0000 C   0  0  0  0  0  0  0  0  0  0  0  0
    2.9716    1.6939    0.0000 C   0  0  0  0  0  0  0  0  0  0  0  0
    2.9716    0.6939    0.0000 C   0  0  0  0  0  0  0  0  0  0  0  0
    5.9605   -0.5613    0.0000 C   0  0  0  0  0  0  0  0  0  0  0  0
    7.2335    1.1939    0.0000 C   0  0  0  0  0  0  0  0  0  0  0  0
    5.2927   -1.3056    0.0000 C   0  0  1  0  0  0  0  0  0  0  0  0
    4.3142   -1.0994    0.0000 C   0  0  0  0  0  0  0  0  0  0  0  0
    8.7335    2.0600    0.0000 C   0  0  1  0  0  0  0  0  0  0  0  0
    3.6464   -1.8437    0.0000 C   0  0  0  0  0  0  0  0  0  0  0  0
    9.2335    1.1939    0.0000 C   0  0  0  0  0  0  0  0  0  0  0  0
    9.2335    2.9260    0.0000 C   0  0  0  0  0  0  0  0  0  0  0  0
    4.9355   -3.0004    0.0000 C   0  0  0  0  0  0  0  0  0  0  0  0
    2.6678   -1.6375    0.0000 C   0  0  0  0  0  0  0  0  0  0  0  0
   10.7335    3.7920    0.0000 C   0  0  0  0  0  0  0  0  0  0  0  0
    4.5783   -4.6953    0.0000 C   0  0  0  0  0  0  0  0  0  0  0  0
    4.8890   -5.6458    0.0000 C   0  0  0  0  0  0  0  0  0  0  0  0
   11.7335    3.7920    0.0000 C   0  0  0  0  0  0  0  0  0  0  0  0
    4.2212   -6.3901    0.0000 C   0  0  0  0  0  0  0  0  0  0  0  0
    5.8675   -5.8520    0.0000 C   0  0  0  0  0  0  0  0  0  0  0  0
   12.2335    4.6580    0.0000 C   0  0  0  0  0  0  0  0  0  0  0  0
   13.2335    4.6580    0.0000 C   0  0  0  0  0  0  0  0  0  0  0  0
   11.7335    5.5241    0.0000 C   0  0  0  0  0  0  0  0  0  0  0  0
   13.7335    5.5241    0.0000 C   0  0  0  0  0  0  0  0  0  0  0  0
   12.2335    6.3901    0.0000 C   0  0  0  0  0  0  0  0  0  0  0  0
   13.2335    6.3901    0.0000 C   0  0  0  0  0  0  0  0  0  0  0  0
    4.7693    2.3104    0.0000 H   0  0  0  0  0  0  0  0  0  0  0  0
    4.7693    0.0774    0.0000 H   0  0  0  0  0  0  0  0  0  0  0  0
    6.1873    2.3079    0.0000 H   0  0  0  0  0  0  0  0  0  0  0  0
    5.3989    2.5656    0.0000 H   0  0  0  0  0  0  0  0  0  0  0  0
    6.5152    0.6416    0.0000 H   0  0  0  0  0  0  0  0  0  0  0  0
    4.2362    2.6689    0.0000 H   0  0  0  0  0  0  0  0  0  0  0  0
    3.4391    2.6689    0.0000 H   0  0  0  0  0  0  0  0  0  0  0  0
    3.4391   -0.2810    0.0000 H   0  0  0  0  0  0  0  0  0  0  0  0
    4.2362   -0.2810    0.0000 H   0  0  0  0  0  0  0  0  0  0  0  0
    2.7596    2.2765    0.0000 H   0  0  0  0  0  0  0  0  0  0  0  0
    2.3610    1.5863    0.0000 H   0  0  0  0  0  0  0  0  0  0  0  0
    2.3610    0.8016    0.0000 H   0  0  0  0  0  0  0  0  0  0  0  0
    2.7596    0.1113    0.0000 H   0  0  0  0  0  0  0  0  0  0  0  0
    4.8786   -1.7671    0.0000 H   0  0  0  0  0  0  0  0  0  0  0  0
    7.4235    2.5969    0.0000 H   0  0  0  0  0  0  0  0  0  0  0  0
    4.5454   -0.5241    0.0000 H   0  0  0  0  0  0  0  0  0  0  0  0
    3.7878   -0.7718    0.0000 H   0  0  0  0  0  0  0  0  0  0  0  0
    8.4235    2.5969    0.0000 H   0  0  0  0  0  0  0  0  0  0  0  0
    6.2100   -2.3840    0.0000 H   0  0  0  0  0  0  0  0  0  0  0  0
    3.4151   -2.4190    0.0000 H   0  0  0  0  0  0  0  0  0  0  0  0
    4.1727   -2.1713    0.0000 H   0  0  0  0  0  0  0  0  0  0  0  0
    8.6509    0.9819    0.0000 H   0  0  0  0  0  0  0  0  0  0  0  0
    9.3412    0.5834    0.0000 H   0  0  0  0  0  0  0  0  0  0  0  0
   10.5435    2.3890    0.0000 H   0  0  0  0  0  0  0  0  0  0  0  0
   10.5435    0.6570    0.0000 H   0  0  0  0  0  0  0  0  0  0  0  0
   10.8412    4.4026    0.0000 H   0  0  0  0  0  0  0  0  0  0  0  0
   10.1509    4.0041    0.0000 H   0  0  0  0  0  0  0  0  0  0  0  0
    4.1958   -4.2074    0.0000 H   0  0  0  0  0  0  0  0  0  0  0  0
    4.0314   -4.9873    0.0000 H   0  0  0  0  0  0  0  0  0  0  0  0
    2.1926   -2.9711    0.0000 H   0  0  0  0  0  0  0  0  0  0  0  0
    5.3031   -5.1843    0.0000 H   0  0  0  0  0  0  0  0  0  0  0  0
   11.6258    3.1814    0.0000 H   0  0  0  0  0  0  0  0  0  0  0  0
   12.3161    3.5800    0.0000 H   0  0  0  0  0  0  0  0  0  0  0  0
    3.7597   -5.9760    0.0000 H   0  0  0  0  0  0  0  0  0  0  0  0
    3.8071   -6.8516    0.0000 H   0  0  0  0  0  0  0  0  0  0  0  0
    4.6826   -6.8042    0.0000 H   0  0  0  0  0  0  0  0  0  0  0  0
    5.7396   -6.4587    0.0000 H   0  0  0  0  0  0  0  0  0  0  0  0
    6.4742   -5.9799    0.0000 H   0  0  0  0  0  0  0  0  0  0  0  0
    5.9954   -5.2453    0.0000 H   0  0  0  0  0  0  0  0  0  0  0  0
   11.1135    5.5241    0.0000 H   0  0  0  0  0  0  0  0  0  0  0  0
   14.3535    5.5241    0.0000 H   0  0  0  0  0  0  0  0  0  0  0  0
   11.9235    6.9270    0.0000 H   0  0  0  0  0  0  0  0  0  0  0  0
   13.5435    6.9270    0.0000 H   0  0  0  0  0  0  0  0  0  0  0  0
  1 39  1  0  0  0  0
  2 28  1  0  0  0  0
  2 68  1  0  0  0  0
  3 22  2  0  0  0  0
  4 23  2  0  0  0  0
  5 30  1  0  0  0  0
  5 33  1  0  0  0  0
  6 29  2  0  0  0  0
  7 30  2  0  0  0  0
  8 31  1  0  0  0  0
  8 73  1  0  0  0  0
  9 31  2  0  0  0  0
 10 15  1  0  0  0  0
 10 17  1  0  0  0  0
 10 22  1  0  0  0  0
 11 23  1  0  0  0  0
 26 11  1  6  0  0  0
 11 58  1  0  0  0  0
 24 12  1  6  0  0  0
 12 30  1  0  0  0  0
 12 62  1  0  0  0  0
 13 29  1  0  0  0  0
 13 32  1  0  0  0  0
 13 67  1  0  0  0  0
 14 15  1  0  0  0  0
 14 16  1  0  0  0  0
 14 18  1  0  0  0  0
 14 44  1  0  0  0  0
 15 19  1  0  0  0  0
 15 45  1  0  0  0  0
 16 17  1  0  0  0  0
 16 46  1  0  0  0  0
 16 47  1  0  0  0  0
 17 23  1  1  0  0  0
 17 48  1  0  0  0  0
 18 20  1  0  0  0  0
 18 49  1  0  0  0  0
 18 50  1  0  0  0  0
 19 21  1  0  0  0  0
 19 51  1  0  0  0  0
 19 52  1  0  0  0  0
 20 21  1  0  0  0  0
 20 53  1  0  0  0  0
 20 54  1  0  0  0  0
 21 55  1  0  0  0  0
 21 56  1  0  0  0  0
 22 24  1  0  0  0  0
 24 25  1  0  0  0  0
 24 57  1  0  0  0  0
 25 27  1  0  0  0  0
 25 59  1  0  0  0  0
 25 60  1  0  0  0  0
 26 28  1  0  0  0  0
 26 29  1  0  0  0  0
 26 61  1  0  0  0  0
 27 31  1  0  0  0  0
 27 63  1  0  0  0  0
 27 64  1  0  0  0  0
 28 65  1  0  0  0  0
 28 66  1  0  0  0  0
 32 35  1  0  0  0  0
 32 69  1  0  0  0  0
 32 70  1  0  0  0  0
 33 34  1  0  0  0  0
 33 71  1  0  0  0  0
 33 72  1  0  0  0  0
 34 36  1  0  0  0  0
 34 37  1  0  0  0  0
 34 74  1  0  0  0  0
 35 38  1  0  0  0  0
 35 75  1  0  0  0  0
 35 76  1  0  0  0  0
 36 77  1  0  0  0  0
 36 78  1  0  0  0  0
 36 79  1  0  0  0  0
 37 80  1  0  0  0  0
 37 81  1  0  0  0  0
 37 82  1  0  0  0  0
 38 39  1  0  0  0  0
 38 40  2  0  0  0  0
 39 41  2  0  0  0  0
 40 42  1  0  0  0  0
 40 83  1  0  0  0  0
 41 43  1  0  0  0  0
 41 84  1  0  0  0  0
 42 43  2  0  0  0  0
 42 85  1  0  0  0  0
 43 86  1  0  0  0  0
M  END
> <PUBCHEM_COMPOUND_CID>
507588
> <PUBCHEM_COMPOUND_CANONICALIZED>
1
> <PUBCHEM_CACTVS_COMPLEXITY>
986
> <PUBCHEM_CACTVS_HBOND_ACCEPTOR>
8
> <PUBCHEM_CACTVS_HBOND_DONOR>
5
> <PUBCHEM_CACTVS_ROTATABLE_BOND>
15
> <PUBCHEM_CACTVS_SUBSKEYS>
AAADcfB7uABEAAAAAAAAAAAAAAAAAWAAAAAwYAAAAAAAAFgBAAAAHgYQCAAADSrl2CayCIPABgSIAiHSGAACAAAgBQAIiIGIAokIYDKBkzGcYAAklgCIiAe8n4KeAAAAAAABAAAAAAAAAAYAAAAAAAAAAA==
> <PUBCHEM_IUPAC_OPENEYE_NAME>
(4R)-5-[(2S)-2-[[(1R)-2-[2-(2-chlorophenyl)ethylamino]-2-oxo-1-(sulfanylmethyl)ethyl]carbamoyl]-2,3,3a,4,5,6,7,7a-octahydroindol-1-yl]-4-(isobutoxycarbonylamino)-5-oxo-pentanoic acid
> <PUBCHEM_IUPAC_CAS_NAME>
(4R)-5-[(2S)-2-[[[(2R)-1-[2-(2-chlorophenyl)ethylamino]-3-mercapto-1-oxopropan-2-yl]amino]-oxomethyl]-2,3,3a,4,5,6,7,7a-octahydroindol-1-yl]-4-[[2-methylpropoxy(oxo)methyl]amino]-5-oxopentanoic acid
> <PUBCHEM_IUPAC_NAME_MARKUP>
(4<I>R</I>)-5-[(2<I>S</I>)-2-[[(2<I>R</I>)-1-[2-(2-chlorophenyl)ethylamino]-1-oxo-3-sulfanylpropan-2-yl]carbamoyl]-2,3,3<I>a</I>,4,5,6,7,7<I>a</I>-octahydroindol-1-yl]-4-(2-methylpropoxycarbonylamino)-5-oxopentanoic acid
> <PUBCHEM_IUPAC_NAME>
(4R)-5-[(2S)-2-[[(2R)-1-[2-(2-chlorophenyl)ethylamino]-1-oxo-3-sulfanylpropan-2-yl]carbamoyl]-2,3,3a,4,5,6,7,7a-octahydroindol-1-yl]-4-(2-methylpropoxycarbonylamino)-5-oxopentanoic acid
> <PUBCHEM_IUPAC_SYSTEMATIC_NAME>
(4R)-5-[(2S)-2-[[(2R)-1-[2-(2-chlorophenyl)ethylamino]-1-oxidanylidene-3-sulfanyl-propan-2-yl]carbamoyl]-2,3,3a,4,5,6,7,7a-octahydroindol-1-yl]-4-(2-methylpropoxycarbonylamino)-5-oxidanylidene-pentanoic acid
> <PUBCHEM_IUPAC_TRADITIONAL_NAME>
(4R)-5-[(2S)-2-[[(1R)-2-[2-(2-chlorophenyl)ethylamino]-2-keto-1-(mercaptomethyl)ethyl]carbamoyl]-2,3,3a,4,5,6,7,7a-octahydroindol-1-yl]-4-(isobutoxycarbonylamino)-5-keto-valeric acid
> <PUBCHEM_IUPAC_INCHI>
InChI=1S/C30H43ClN4O7S/c1-18(2)16-42-30(41)34-22(11-12-26(36)37)29(40)35-24-10-6-4-8-20(24)15-25(35)28(39)33-23(17-43)27(38)32-14-13-19-7-3-5-9-21(19)31/h3,5,7,9,18,20,22-25,43H,4,6,8,10-17H2,1-2H3,(H,32,38)(H,33,39)(H,34,41)(H,36,37)/t20?,22-,23+,24?,25+/m1/s1
> <PUBCHEM_IUPAC_INCHIKEY>
AVIJSWLDKDDQRX-FKDYJEHXSA-N
> <PUBCHEM_XLOGP3_AA>
4.2
> <PUBCHEM_EXACT_MASS>
638.2540986
> <PUBCHEM_MOLECULAR_FORMULA>
C30H43ClN4O7S
> <PUBCHEM_MOLECULAR_WEIGHT>
639.2
> <PUBCHEM_OPENEYE_CAN_SMILES>
CC(C)COC(=O)NC(CCC(=O)O)C(=O)N1C2CCCCC2CC1C(=O)NC(CS)C(=O)NCCC3=CC=CC=C3Cl
> <PUBCHEM_OPENEYE_ISO_SMILES>
CC(C)COC(=O)N[C@H](CCC(=O)O)C(=O)N1[C@@H](CC2C1CCCC2)C(=O)N[C@@H](CS)C(=O)NCCC3=CC=CC=C3Cl
> <PUBCHEM_CACTVS_TPSA>
155
> <PUBCHEM_MONOISOTOPIC_WEIGHT>
638.2540986
> <PUBCHEM_TOTAL_CHARGE>
0
> <PUBCHEM_HEAVY_ATOM_COUNT>
43
> <PUBCHEM_ATOM_DEF_STEREO_COUNT>
3
> <PUBCHEM_ATOM_UDEF_STEREO_COUNT>
2
> <PUBCHEM_BOND_DEF_STEREO_COUNT>
0
> <PUBCHEM_BOND_UDEF_STEREO_COUNT>
0
> <PUBCHEM_ISOTOPIC_ATOM_COUNT>
0
> <PUBCHEM_COMPONENT_COUNT>
1
> <PUBCHEM_CACTVS_TAUTO_COUNT>
-1
> <PUBCHEM_COORDINATE_TYPE>
1
5
255
> <PUBCHEM_BONDANNOTATIONS>
26  11  6
24  12  6
14  18  3
15  19  3
17  23  5
38  39  8
38  40  8
39  41  8
40  42  8
41  43  8
42  43  8
$$$$
