507577
  -OEChem-10302200282D
 91 92  0     1  0  0  0  0  0999 V2000
    8.0622   -1.0600    0.0000 S   0  0  0  0  0  0  0  0  0  0  0  0
    7.1962   -1.5600    0.0000 O   0  0  0  0  0  0  0  0  0  0  0  0
    7.1962   -2.5600    0.0000 O   0  0  0  0  0  0  0  0  0  0  0  0
    6.3301    1.9400    0.0000 O   0  0  0  0  0  0  0  0  0  0  0  0
    8.0622   -6.0600    0.0000 O   0  0  0  0  0  0  0  0  0  0  0  0
    6.3301   -6.0600    0.0000 O   0  0  0  0  0  0  0  0  0  0  0  0
    4.5981   -7.0600    0.0000 O   0  0  0  0  0  0  0  0  0  0  0  0
    3.7320   -5.5600    0.0000 O   0  0  0  0  0  0  0  0  0  0  0  0
    9.7942    7.9400    0.0000 O   0  0  0  0  0  0  0  0  0  0  0  0
    8.0622    7.9400    0.0000 O   0  0  0  0  0  0  0  0  0  0  0  0
    5.4641   -2.5600    0.0000 N   0  0  0  0  0  0  0  0  0  0  0  0
    6.3301   -0.0600    0.0000 N   0  0  0  0  0  0  0  0  0  0  0  0
    7.1962   -4.5600    0.0000 N   0  0  0  0  0  0  0  0  0  0  0  0
    8.0622    1.9400    0.0000 N   0  0  0  0  0  0  0  0  0  0  0  0
    3.7320   -1.5600    0.0000 C   0  0  0  0  0  0  0  0  0  0  0  0
    2.8660   -1.0600    0.0000 C   0  0  0  0  0  0  0  0  0  0  0  0
    3.7320   -2.5600    0.0000 C   0  0  0  0  0  0  0  0  0  0  0  0
    4.5981   -1.0600    0.0000 C   0  0  0  0  0  0  0  0  0  0  0  0
    2.0000   -1.5600    0.0000 C   0  0  0  0  0  0  0  0  0  0  0  0
    2.8660   -3.0600    0.0000 C   0  0  0  0  0  0  0  0  0  0  0  0
    2.0000   -2.5600    0.0000 C   0  0  0  0  0  0  0  0  0  0  0  0
    5.4641   -1.5600    0.0000 C   0  0  1  0  0  0  0  0  0  0  0  0
    6.3301   -1.0600    0.0000 C   0  0  0  0  0  0  0  0  0  0  0  0
    6.3301   -3.0600    0.0000 C   0  0  0  0  0  0  0  0  0  0  0  0
    6.3301   -4.0600    0.0000 C   0  0  2  0  0  0  0  0  0  0  0  0
    7.1962    0.4400    0.0000 C   0  0  1  0  0  0  0  0  0  0  0  0
    5.4641   -4.5600    0.0000 C   0  0  0  0  0  0  0  0  0  0  0  0
    8.0622   -0.0600    0.0000 C   0  0  0  0  0  0  0  0  0  0  0  0
    7.1962    1.4400    0.0000 C   0  0  0  0  0  0  0  0  0  0  0  0
    5.4641   -5.5600    0.0000 C   0  0  0  0  0  0  0  0  0  0  0  0
    7.1962   -5.5600    0.0000 C   0  0  0  0  0  0  0  0  0  0  0  0
    8.0622    2.9400    0.0000 C   0  0  0  0  0  0  0  0  0  0  0  0
    4.5981   -6.0600    0.0000 C   0  0  0  0  0  0  0  0  0  0  0  0
    8.9282    3.4400    0.0000 C   0  0  0  0  0  0  0  0  0  0  0  0
    8.0622   -7.0600    0.0000 C   0  0  0  0  0  0  0  0  0  0  0  0
    8.9282   -7.5600    0.0000 C   0  0  0  0  0  0  0  0  0  0  0  0
    8.9282    4.4400    0.0000 C   0  0  0  0  0  0  0  0  0  0  0  0
    8.9282   -8.5600    0.0000 C   0  0  0  0  0  0  0  0  0  0  0  0
    9.7942   -7.0600    0.0000 C   0  0  0  0  0  0  0  0  0  0  0  0
    9.7942    4.9400    0.0000 C   0  0  0  0  0  0  0  0  0  0  0  0
    8.0622    4.9400    0.0000 C   0  0  0  0  0  0  0  0  0  0  0  0
    9.7942    5.9400    0.0000 C   0  0  0  0  0  0  0  0  0  0  0  0
    8.0622    5.9400    0.0000 C   0  0  0  0  0  0  0  0  0  0  0  0
    8.9282    6.4400    0.0000 C   0  0  0  0  0  0  0  0  0  0  0  0
    8.9282    7.4400    0.0000 C   0  0  0  0  0  0  0  0  0  0  0  0
    3.7320   -0.9400    0.0000 H   0  0  0  0  0  0  0  0  0  0  0  0
    3.2646   -0.5851    0.0000 H   0  0  0  0  0  0  0  0  0  0  0  0
    2.4675   -0.5851    0.0000 H   0  0  0  0  0  0  0  0  0  0  0  0
    3.9441   -3.1426    0.0000 H   0  0  0  0  0  0  0  0  0  0  0  0
    4.3426   -2.4523    0.0000 H   0  0  0  0  0  0  0  0  0  0  0  0
    4.9966   -0.5851    0.0000 H   0  0  0  0  0  0  0  0  0  0  0  0
    4.1996   -0.5851    0.0000 H   0  0  0  0  0  0  0  0  0  0  0  0
    1.7880   -0.9774    0.0000 H   0  0  0  0  0  0  0  0  0  0  0  0
    1.3894   -1.6677    0.0000 H   0  0  0  0  0  0  0  0  0  0  0  0
    2.4675   -3.5350    0.0000 H   0  0  0  0  0  0  0  0  0  0  0  0
    3.2646   -3.5350    0.0000 H   0  0  0  0  0  0  0  0  0  0  0  0
    1.3894   -2.4523    0.0000 H   0  0  0  0  0  0  0  0  0  0  0  0
    1.7880   -3.1426    0.0000 H   0  0  0  0  0  0  0  0  0  0  0  0
    6.0010   -1.8700    0.0000 H   0  0  0  0  0  0  0  0  0  0  0  0
    4.9272   -2.8700    0.0000 H   0  0  0  0  0  0  0  0  0  0  0  0
    5.7932    0.2500    0.0000 H   0  0  0  0  0  0  0  0  0  0  0  0
    6.8671   -3.7500    0.0000 H   0  0  0  0  0  0  0  0  0  0  0  0
    6.6592    0.7500    0.0000 H   0  0  0  0  0  0  0  0  0  0  0  0
    5.2520   -3.9774    0.0000 H   0  0  0  0  0  0  0  0  0  0  0  0
    4.8535   -4.6677    0.0000 H   0  0  0  0  0  0  0  0  0  0  0  0
    8.6728   -0.1677    0.0000 H   0  0  0  0  0  0  0  0  0  0  0  0
    8.2742    0.5226    0.0000 H   0  0  0  0  0  0  0  0  0  0  0  0
    7.7331   -4.2500    0.0000 H   0  0  0  0  0  0  0  0  0  0  0  0
    5.6762   -6.1426    0.0000 H   0  0  0  0  0  0  0  0  0  0  0  0
    6.0747   -5.4523    0.0000 H   0  0  0  0  0  0  0  0  0  0  0  0
    8.5991    1.6300    0.0000 H   0  0  0  0  0  0  0  0  0  0  0  0
    7.8501    3.5226    0.0000 H   0  0  0  0  0  0  0  0  0  0  0  0
    7.4516    2.8323    0.0000 H   0  0  0  0  0  0  0  0  0  0  0  0
    8.5991   -1.3700    0.0000 H   0  0  0  0  0  0  0  0  0  0  0  0
    9.1403    2.8574    0.0000 H   0  0  0  0  0  0  0  0  0  0  0  0
    9.5388    3.5477    0.0000 H   0  0  0  0  0  0  0  0  0  0  0  0
    7.4516   -6.9523    0.0000 H   0  0  0  0  0  0  0  0  0  0  0  0
    7.8501   -7.6426    0.0000 H   0  0  0  0  0  0  0  0  0  0  0  0
    9.4651   -7.8700    0.0000 H   0  0  0  0  0  0  0  0  0  0  0  0
    4.0611   -7.3700    0.0000 H   0  0  0  0  0  0  0  0  0  0  0  0
    8.3082   -8.5600    0.0000 H   0  0  0  0  0  0  0  0  0  0  0  0
    8.9282   -9.1800    0.0000 H   0  0  0  0  0  0  0  0  0  0  0  0
    9.5482   -8.5600    0.0000 H   0  0  0  0  0  0  0  0  0  0  0  0
   10.1042   -7.5969    0.0000 H   0  0  0  0  0  0  0  0  0  0  0  0
   10.3312   -6.7500    0.0000 H   0  0  0  0  0  0  0  0  0  0  0  0
    9.4842   -6.5231    0.0000 H   0  0  0  0  0  0  0  0  0  0  0  0
   10.3312    4.6300    0.0000 H   0  0  0  0  0  0  0  0  0  0  0  0
    7.5252    4.6300    0.0000 H   0  0  0  0  0  0  0  0  0  0  0  0
   10.3312    6.2500    0.0000 H   0  0  0  0  0  0  0  0  0  0  0  0
    7.5252    6.2500    0.0000 H   0  0  0  0  0  0  0  0  0  0  0  0
    9.7942    8.5600    0.0000 H   0  0  0  0  0  0  0  0  0  0  0  0
  1 28  1  0  0  0  0
  1 74  1  0  0  0  0
  2 23  2  0  0  0  0
  3 24  2  0  0  0  0
  4 29  2  0  0  0  0
  5 31  1  0  0  0  0
  5 35  1  0  0  0  0
  6 31  2  0  0  0  0
  7 33  1  0  0  0  0
  7 80  1  0  0  0  0
  8 33  2  0  0  0  0
  9 45  1  0  0  0  0
  9 91  1  0  0  0  0
 10 45  2  0  0  0  0
 22 11  1  1  0  0  0
 11 24  1  0  0  0  0
 11 60  1  0  0  0  0
 12 23  1  0  0  0  0
 26 12  1  6  0  0  0
 12 61  1  0  0  0  0
 25 13  1  1  0  0  0
 13 31  1  0  0  0  0
 13 68  1  0  0  0  0
 14 29  1  0  0  0  0
 14 32  1  0  0  0  0
 14 71  1  0  0  0  0
 15 16  1  0  0  0  0
 15 17  1  0  0  0  0
 15 18  1  0  0  0  0
 15 46  1  0  0  0  0
 16 19  1  0  0  0  0
 16 47  1  0  0  0  0
 16 48  1  0  0  0  0
 17 20  1  0  0  0  0
 17 49  1  0  0  0  0
 17 50  1  0  0  0  0
 18 22  1  0  0  0  0
 18 51  1  0  0  0  0
 18 52  1  0  0  0  0
 19 21  1  0  0  0  0
 19 53  1  0  0  0  0
 19 54  1  0  0  0  0
 20 21  1  0  0  0  0
 20 55  1  0  0  0  0
 20 56  1  0  0  0  0
 21 57  1  0  0  0  0
 21 58  1  0  0  0  0
 22 23  1  0  0  0  0
 22 59  1  0  0  0  0
 24 25  1  0  0  0  0
 25 27  1  0  0  0  0
 25 62  1  0  0  0  0
 26 28  1  0  0  0  0
 26 29  1  0  0  0  0
 26 63  1  0  0  0  0
 27 30  1  0  0  0  0
 27 64  1  0  0  0  0
 27 65  1  0  0  0  0
 28 66  1  0  0  0  0
 28 67  1  0  0  0  0
 30 33  1  0  0  0  0
 30 69  1  0  0  0  0
 30 70  1  0  0  0  0
 32 34  1  0  0  0  0
 32 72  1  0  0  0  0
 32 73  1  0  0  0  0
 34 37  1  0  0  0  0
 34 75  1  0  0  0  0
 34 76  1  0  0  0  0
 35 36  1  0  0  0  0
 35 77  1  0  0  0  0
 35 78  1  0  0  0  0
 36 38  1  0  0  0  0
 36 39  1  0  0  0  0
 36 79  1  0  0  0  0
 37 40  2  0  0  0  0
 37 41  1  0  0  0  0
 38 81  1  0  0  0  0
 38 82  1  0  0  0  0
 38 83  1  0  0  0  0
 39 84  1  0  0  0  0
 39 85  1  0  0  0  0
 39 86  1  0  0  0  0
 40 42  1  0  0  0  0
 40 87  1  0  0  0  0
 41 43  2  0  0  0  0
 41 88  1  0  0  0  0
 42 44  2  0  0  0  0
 42 89  1  0  0  0  0
 43 44  1  0  0  0  0
 43 90  1  0  0  0  0
 44 45  1  0  0  0  0
M  END
> <PUBCHEM_COMPOUND_CID>
507577
> <PUBCHEM_COMPOUND_CANONICALIZED>
1
> <PUBCHEM_CACTVS_COMPLEXITY>
998
> <PUBCHEM_CACTVS_HBOND_ACCEPTOR>
10
> <PUBCHEM_CACTVS_HBOND_DONOR>
7
> <PUBCHEM_CACTVS_ROTATABLE_BOND>
19
> <PUBCHEM_CACTVS_SUBSKEYS>
AAADcfB7vABAAAAAAAAAAAAAAAAAAAAAAAAwYAAAAAAAAAABAAAAHgQQCAAADSjl2AayCILABgSIAiHSGAACAAAkAAAIiIGICMkIZjKAlTGccQAk1gGImYe83/KOQAAAAAAAAACAAAAAAAAAAAAAAAAAAA==
> <PUBCHEM_IUPAC_OPENEYE_NAME>
4-[2-[[(2R)-2-[[(2S)-2-[[(2S)-4-carboxy-2-(isobutoxycarbonylamino)butanoyl]amino]-3-cyclohexyl-propanoyl]amino]-3-sulfanyl-propanoyl]amino]ethyl]benzoic acid
> <PUBCHEM_IUPAC_CAS_NAME>
4-[2-[[(2R)-2-[[(2S)-2-[[(2S)-4-carboxy-2-[[2-methylpropoxy(oxo)methyl]amino]-1-oxobutyl]amino]-3-cyclohexyl-1-oxopropyl]amino]-3-mercapto-1-oxopropyl]amino]ethyl]benzoic acid
> <PUBCHEM_IUPAC_NAME_MARKUP>
4-[2-[[(2<I>R</I>)-2-[[(2<I>S</I>)-2-[[(2<I>S</I>)-4-carboxy-2-(2-methylpropoxycarbonylamino)butanoyl]amino]-3-cyclohexylpropanoyl]amino]-3-sulfanylpropanoyl]amino]ethyl]benzoic acid
> <PUBCHEM_IUPAC_NAME>
4-[2-[[(2R)-2-[[(2S)-2-[[(2S)-4-carboxy-2-(2-methylpropoxycarbonylamino)butanoyl]amino]-3-cyclohexylpropanoyl]amino]-3-sulfanylpropanoyl]amino]ethyl]benzoic acid
> <PUBCHEM_IUPAC_SYSTEMATIC_NAME>
4-[2-[[(2R)-2-[[(2S)-3-cyclohexyl-2-[[(2S)-2-(2-methylpropoxycarbonylamino)-5-oxidanyl-5-oxidanylidene-pentanoyl]amino]propanoyl]amino]-3-sulfanyl-propanoyl]amino]ethyl]benzoic acid
> <PUBCHEM_IUPAC_TRADITIONAL_NAME>
4-[2-[[(2R)-2-[[(2S)-2-[[(2S)-4-carboxy-2-(isobutoxycarbonylamino)butanoyl]amino]-3-cyclohexyl-propanoyl]amino]-3-mercapto-propanoyl]amino]ethyl]benzoic acid
> <PUBCHEM_IUPAC_INCHI>
InChI=1S/C31H46N4O9S/c1-19(2)17-44-31(43)35-23(12-13-26(36)37)28(39)33-24(16-21-6-4-3-5-7-21)29(40)34-25(18-45)27(38)32-15-14-20-8-10-22(11-9-20)30(41)42/h8-11,19,21,23-25,45H,3-7,12-18H2,1-2H3,(H,32,38)(H,33,39)(H,34,40)(H,35,43)(H,36,37)(H,41,42)/t23-,24-,25-/m0/s1
> <PUBCHEM_IUPAC_INCHIKEY>
VOVWQDIUUDTUFG-SDHOMARFSA-N
> <PUBCHEM_XLOGP3_AA>
4.1
> <PUBCHEM_EXACT_MASS>
650.29855023
> <PUBCHEM_MOLECULAR_FORMULA>
C31H46N4O9S
> <PUBCHEM_MOLECULAR_WEIGHT>
650.8
> <PUBCHEM_OPENEYE_CAN_SMILES>
CC(C)COC(=O)NC(CCC(=O)O)C(=O)NC(CC1CCCCC1)C(=O)NC(CS)C(=O)NCCC2=CC=C(C=C2)C(=O)O
> <PUBCHEM_OPENEYE_ISO_SMILES>
CC(C)COC(=O)N[C@@H](CCC(=O)O)C(=O)N[C@@H](CC1CCCCC1)C(=O)N[C@@H](CS)C(=O)NCCC2=CC=C(C=C2)C(=O)O
> <PUBCHEM_CACTVS_TPSA>
201
> <PUBCHEM_MONOISOTOPIC_WEIGHT>
650.29855023
> <PUBCHEM_TOTAL_CHARGE>
0
> <PUBCHEM_HEAVY_ATOM_COUNT>
45
> <PUBCHEM_ATOM_DEF_STEREO_COUNT>
3
> <PUBCHEM_ATOM_UDEF_STEREO_COUNT>
0
> <PUBCHEM_BOND_DEF_STEREO_COUNT>
0
> <PUBCHEM_BOND_UDEF_STEREO_COUNT>
0
> <PUBCHEM_ISOTOPIC_ATOM_COUNT>
0
> <PUBCHEM_COMPONENT_COUNT>
1
> <PUBCHEM_CACTVS_TAUTO_COUNT>
-1
> <PUBCHEM_COORDINATE_TYPE>
1
5
255
> <PUBCHEM_BONDANNOTATIONS>
22  11  5
26  12  6
25  13  5
37  40  8
37  41  8
40  42  8
41  43  8
42  44  8
43  44  8
$$$$
