507502
  -OEChem-10302200282D
 91 93  0     1  0  0  0  0  0999 V2000
    2.0000    3.2500    0.0000 Cl  0  0  0  0  0  0  0  0  0  0  0  0
    3.7320   -0.7500    0.0000 S   0  0  0  0  0  0  0  0  0  0  0  0
    5.4641   -2.7500    0.0000 O   0  0  0  0  0  0  0  0  0  0  0  0
    8.9282   -3.7500    0.0000 O   0  0  0  0  0  0  0  0  0  0  0  0
    6.3301    0.7500    0.0000 O   0  0  0  0  0  0  0  0  0  0  0  0
   11.5263   -1.2500    0.0000 O   0  0  0  0  0  0  0  0  0  0  0  0
    8.0622    0.7500    0.0000 O   0  0  0  0  0  0  0  0  0  0  0  0
    9.7942    0.7500    0.0000 O   0  0  0  0  0  0  0  0  0  0  0  0
   15.8564   -0.7500    0.0000 O   0  0  0  0  0  0  0  0  0  0  0  0
   14.9904   -2.2500    0.0000 O   0  0  0  0  0  0  0  0  0  0  0  0
    8.0622   -2.2500    0.0000 N   0  0  0  0  0  0  0  0  0  0  0  0
    6.3301   -1.2500    0.0000 N   0  0  0  0  0  0  0  0  0  0  0  0
   10.6603   -2.7500    0.0000 N   0  0  0  0  0  0  0  0  0  0  0  0
    4.5981    0.7500    0.0000 N   0  0  0  0  0  0  0  0  0  0  0  0
    7.1962   -3.7500    0.0000 C   0  0  0  0  0  0  0  0  0  0  0  0
    7.1962   -2.7500    0.0000 C   0  0  1  0  0  0  0  0  0  0  0  0
    6.3301   -4.2500    0.0000 C   0  0  0  0  0  0  0  0  0  0  0  0
    9.7942   -2.2500    0.0000 C   0  0  2  0  0  0  0  0  0  0  0  0
    6.3301   -2.2500    0.0000 C   0  0  0  0  0  0  0  0  0  0  0  0
    6.3301   -5.2500    0.0000 C   0  0  0  0  0  0  0  0  0  0  0  0
    5.4641   -3.7500    0.0000 C   0  0  0  0  0  0  0  0  0  0  0  0
    8.9282   -2.7500    0.0000 C   0  0  0  0  0  0  0  0  0  0  0  0
    9.7942   -1.2500    0.0000 C   0  0  0  0  0  0  0  0  0  0  0  0
    5.4641   -0.7500    0.0000 C   0  0  1  0  0  0  0  0  0  0  0  0
    8.9282   -0.7500    0.0000 C   0  0  0  0  0  0  0  0  0  0  0  0
    4.5981   -1.2500    0.0000 C   0  0  0  0  0  0  0  0  0  0  0  0
    5.4641    0.2500    0.0000 C   0  0  0  0  0  0  0  0  0  0  0  0
   11.5263   -2.2500    0.0000 C   0  0  0  0  0  0  0  0  0  0  0  0
   12.3923   -2.7500    0.0000 C   0  0  0  0  0  0  0  0  0  0  0  0
    4.5981    1.7500    0.0000 C   0  0  0  0  0  0  0  0  0  0  0  0
    8.9282    0.2500    0.0000 C   0  0  0  0  0  0  0  0  0  0  0  0
   13.2583   -2.2500    0.0000 C   0  0  0  0  0  0  0  0  0  0  0  0
    3.7320    2.2500    0.0000 C   0  0  0  0  0  0  0  0  0  0  0  0
   12.3923   -3.7500    0.0000 C   0  0  0  0  0  0  0  0  0  0  0  0
   13.2583   -1.2500    0.0000 C   0  0  0  0  0  0  0  0  0  0  0  0
    3.7320    3.2500    0.0000 C   0  0  0  0  0  0  0  0  0  0  0  0
   14.1244   -2.7500    0.0000 C   0  0  0  0  0  0  0  0  0  0  0  0
   13.2583   -4.2500    0.0000 C   0  0  0  0  0  0  0  0  0  0  0  0
   14.1244   -3.7500    0.0000 C   0  0  0  0  0  0  0  0  0  0  0  0
   14.1244   -0.7500    0.0000 C   0  0  0  0  0  0  0  0  0  0  0  0
   12.3923   -0.7500    0.0000 C   0  0  0  0  0  0  0  0  0  0  0  0
    2.8660    3.7500    0.0000 C   0  0  0  0  0  0  0  0  0  0  0  0
    4.5981    3.7500    0.0000 C   0  0  0  0  0  0  0  0  0  0  0  0
   14.1244    0.2500    0.0000 C   0  0  0  0  0  0  0  0  0  0  0  0
   12.3923    0.2500    0.0000 C   0  0  0  0  0  0  0  0  0  0  0  0
   13.2583    0.7500    0.0000 C   0  0  0  0  0  0  0  0  0  0  0  0
    2.8660    4.7500    0.0000 C   0  0  0  0  0  0  0  0  0  0  0  0
    4.5981    4.7500    0.0000 C   0  0  0  0  0  0  0  0  0  0  0  0
   14.9904   -1.2500    0.0000 C   0  0  0  0  0  0  0  0  0  0  0  0
    3.7320    5.2500    0.0000 C   0  0  0  0  0  0  0  0  0  0  0  0
    7.4082   -4.3326    0.0000 H   0  0  0  0  0  0  0  0  0  0  0  0
    7.8067   -3.6423    0.0000 H   0  0  0  0  0  0  0  0  0  0  0  0
    7.7331   -3.0600    0.0000 H   0  0  0  0  0  0  0  0  0  0  0  0
    6.8671   -4.5600    0.0000 H   0  0  0  0  0  0  0  0  0  0  0  0
    8.0622   -1.6300    0.0000 H   0  0  0  0  0  0  0  0  0  0  0  0
    9.7942   -2.8700    0.0000 H   0  0  0  0  0  0  0  0  0  0  0  0
    5.7101   -5.2500    0.0000 H   0  0  0  0  0  0  0  0  0  0  0  0
    6.3301   -5.8700    0.0000 H   0  0  0  0  0  0  0  0  0  0  0  0
    6.9501   -5.2500    0.0000 H   0  0  0  0  0  0  0  0  0  0  0  0
    5.7741   -3.2131    0.0000 H   0  0  0  0  0  0  0  0  0  0  0  0
    4.9272   -3.4400    0.0000 H   0  0  0  0  0  0  0  0  0  0  0  0
    5.1541   -4.2869    0.0000 H   0  0  0  0  0  0  0  0  0  0  0  0
   10.4048   -1.3577    0.0000 H   0  0  0  0  0  0  0  0  0  0  0  0
   10.0063   -0.6674    0.0000 H   0  0  0  0  0  0  0  0  0  0  0  0
    6.8671   -0.9400    0.0000 H   0  0  0  0  0  0  0  0  0  0  0  0
    5.4641   -1.3700    0.0000 H   0  0  0  0  0  0  0  0  0  0  0  0
   10.6603   -3.3700    0.0000 H   0  0  0  0  0  0  0  0  0  0  0  0
    8.3176   -0.6423    0.0000 H   0  0  0  0  0  0  0  0  0  0  0  0
    8.7162   -1.3326    0.0000 H   0  0  0  0  0  0  0  0  0  0  0  0
    4.1996   -1.7250    0.0000 H   0  0  0  0  0  0  0  0  0  0  0  0
    4.9966   -1.7250    0.0000 H   0  0  0  0  0  0  0  0  0  0  0  0
    4.0611    0.4400    0.0000 H   0  0  0  0  0  0  0  0  0  0  0  0
    5.2087    1.6423    0.0000 H   0  0  0  0  0  0  0  0  0  0  0  0
    4.8101    2.3326    0.0000 H   0  0  0  0  0  0  0  0  0  0  0  0
    3.1215    2.3577    0.0000 H   0  0  0  0  0  0  0  0  0  0  0  0
    3.5200    1.6674    0.0000 H   0  0  0  0  0  0  0  0  0  0  0  0
   11.8554   -4.0600    0.0000 H   0  0  0  0  0  0  0  0  0  0  0  0
    3.1951   -1.0600    0.0000 H   0  0  0  0  0  0  0  0  0  0  0  0
   14.6613   -2.4400    0.0000 H   0  0  0  0  0  0  0  0  0  0  0  0
   13.2583   -4.8700    0.0000 H   0  0  0  0  0  0  0  0  0  0  0  0
   14.6613   -4.0600    0.0000 H   0  0  0  0  0  0  0  0  0  0  0  0
   11.8554   -1.0600    0.0000 H   0  0  0  0  0  0  0  0  0  0  0  0
    8.0622    1.3700    0.0000 H   0  0  0  0  0  0  0  0  0  0  0  0
    5.1350    3.4400    0.0000 H   0  0  0  0  0  0  0  0  0  0  0  0
   14.6613    0.5600    0.0000 H   0  0  0  0  0  0  0  0  0  0  0  0
   11.8554    0.5600    0.0000 H   0  0  0  0  0  0  0  0  0  0  0  0
   13.2583    1.3700    0.0000 H   0  0  0  0  0  0  0  0  0  0  0  0
    2.3291    5.0600    0.0000 H   0  0  0  0  0  0  0  0  0  0  0  0
    5.1350    5.0600    0.0000 H   0  0  0  0  0  0  0  0  0  0  0  0
    3.7320    5.8700    0.0000 H   0  0  0  0  0  0  0  0  0  0  0  0
   16.3933   -1.0600    0.0000 H   0  0  0  0  0  0  0  0  0  0  0  0
  1 42  1  0  0  0  0
  2 26  1  0  0  0  0
  2 78  1  0  0  0  0
  3 19  2  0  0  0  0
  4 22  2  0  0  0  0
  5 27  2  0  0  0  0
  6 28  2  0  0  0  0
  7 31  1  0  0  0  0
  7 83  1  0  0  0  0
  8 31  2  0  0  0  0
  9 49  1  0  0  0  0
  9 91  1  0  0  0  0
 10 49  2  0  0  0  0
 16 11  1  1  0  0  0
 11 22  1  0  0  0  0
 11 55  1  0  0  0  0
 12 19  1  0  0  0  0
 24 12  1  1  0  0  0
 12 65  1  0  0  0  0
 18 13  1  6  0  0  0
 13 28  1  0  0  0  0
 13 67  1  0  0  0  0
 14 27  1  0  0  0  0
 14 30  1  0  0  0  0
 14 72  1  0  0  0  0
 15 16  1  0  0  0  0
 15 17  1  0  0  0  0
 15 51  1  0  0  0  0
 15 52  1  0  0  0  0
 16 19  1  0  0  0  0
 16 53  1  0  0  0  0
 17 20  1  0  0  0  0
 17 21  1  0  0  0  0
 17 54  1  0  0  0  0
 18 22  1  0  0  0  0
 18 23  1  0  0  0  0
 18 56  1  0  0  0  0
 20 57  1  0  0  0  0
 20 58  1  0  0  0  0
 20 59  1  0  0  0  0
 21 60  1  0  0  0  0
 21 61  1  0  0  0  0
 21 62  1  0  0  0  0
 23 25  1  0  0  0  0
 23 63  1  0  0  0  0
 23 64  1  0  0  0  0
 24 26  1  0  0  0  0
 24 27  1  0  0  0  0
 24 66  1  0  0  0  0
 25 31  1  0  0  0  0
 25 68  1  0  0  0  0
 25 69  1  0  0  0  0
 26 70  1  0  0  0  0
 26 71  1  0  0  0  0
 28 29  1  0  0  0  0
 29 32  1  0  0  0  0
 29 34  2  0  0  0  0
 30 33  1  0  0  0  0
 30 73  1  0  0  0  0
 30 74  1  0  0  0  0
 32 35  1  0  0  0  0
 32 37  2  0  0  0  0
 33 36  1  0  0  0  0
 33 75  1  0  0  0  0
 33 76  1  0  0  0  0
 34 38  1  0  0  0  0
 34 77  1  0  0  0  0
 35 40  1  0  0  0  0
 35 41  2  0  0  0  0
 36 42  1  0  0  0  0
 36 43  2  0  0  0  0
 37 39  1  0  0  0  0
 37 79  1  0  0  0  0
 38 39  2  0  0  0  0
 38 80  1  0  0  0  0
 39 81  1  0  0  0  0
 40 44  2  0  0  0  0
 40 49  1  0  0  0  0
 41 45  1  0  0  0  0
 41 82  1  0  0  0  0
 42 47  2  0  0  0  0
 43 48  1  0  0  0  0
 43 84  1  0  0  0  0
 44 46  1  0  0  0  0
 44 85  1  0  0  0  0
 45 46  2  0  0  0  0
 45 86  1  0  0  0  0
 46 87  1  0  0  0  0
 47 50  1  0  0  0  0
 47 88  1  0  0  0  0
 48 50  2  0  0  0  0
 48 89  1  0  0  0  0
 50 90  1  0  0  0  0
M  END
> <PUBCHEM_COMPOUND_CID>
507502
> <PUBCHEM_COMPOUND_CANONICALIZED>
1
> <PUBCHEM_CACTVS_COMPLEXITY>
1170
> <PUBCHEM_CACTVS_HBOND_ACCEPTOR>
9
> <PUBCHEM_CACTVS_HBOND_DONOR>
7
> <PUBCHEM_CACTVS_ROTATABLE_BOND>
18
> <PUBCHEM_CACTVS_SUBSKEYS>
AAADcfB/vABEAAAAAAAAAAAAAAAAAAAAAAAwYMAAAAAAAAABUAAAHgYQCAAADSrF2CSyCILAAgSIAiHSGACCAAAkBQAIiIGIDsgIZjKBlzGUcQhk1gGImYe83/KOgAAAAAARAAAAAAAAACIAAAAAAAAAAA==
> <PUBCHEM_IUPAC_OPENEYE_NAME>
2-[2-[[(1S)-3-carboxy-1-[[(1S)-1-[[(1R)-2-[2-(2-chlorophenyl)ethylamino]-2-oxo-1-(sulfanylmethyl)ethyl]carbamoyl]-3-methyl-butyl]carbamoyl]propyl]carbamoyl]phenyl]benzoic acid
> <PUBCHEM_IUPAC_CAS_NAME>
2-[2-[[[(2S)-4-carboxy-1-[[(2S)-1-[[(2R)-1-[2-(2-chlorophenyl)ethylamino]-3-mercapto-1-oxopropan-2-yl]amino]-4-methyl-1-oxopentan-2-yl]amino]-1-oxobutan-2-yl]amino]-oxomethyl]phenyl]benzoic acid
> <PUBCHEM_IUPAC_NAME_MARKUP>
2-[2-[[(2<I>S</I>)-4-carboxy-1-[[(2<I>S</I>)-1-[[(2<I>R</I>)-1-[2-(2-chlorophenyl)ethylamino]-1-oxo-3-sulfanylpropan-2-yl]amino]-4-methyl-1-oxopentan-2-yl]amino]-1-oxobutan-2-yl]carbamoyl]phenyl]benzoic acid
> <PUBCHEM_IUPAC_NAME>
2-[2-[[(2S)-4-carboxy-1-[[(2S)-1-[[(2R)-1-[2-(2-chlorophenyl)ethylamino]-1-oxo-3-sulfanylpropan-2-yl]amino]-4-methyl-1-oxopentan-2-yl]amino]-1-oxobutan-2-yl]carbamoyl]phenyl]benzoic acid
> <PUBCHEM_IUPAC_SYSTEMATIC_NAME>
2-[2-[[(2S)-1-[[(2S)-1-[[(2R)-1-[2-(2-chlorophenyl)ethylamino]-1-oxidanylidene-3-sulfanyl-propan-2-yl]amino]-4-methyl-1-oxidanylidene-pentan-2-yl]amino]-5-oxidanyl-1,5-bis(oxidanylidene)pentan-2-yl]carbamoyl]phenyl]benzoic acid
> <PUBCHEM_IUPAC_TRADITIONAL_NAME>
2-[2-[[(1S)-3-carboxy-1-[[(1S)-1-[[(1R)-2-[2-(2-chlorophenyl)ethylamino]-2-keto-1-(mercaptomethyl)ethyl]carbamoyl]-3-methyl-butyl]carbamoyl]propyl]carbamoyl]phenyl]benzoic acid
> <PUBCHEM_IUPAC_INCHI>
InChI=1S/C36H41ClN4O8S/c1-21(2)19-29(35(47)41-30(20-50)33(45)38-18-17-22-9-3-8-14-27(22)37)40-34(46)28(15-16-31(42)43)39-32(44)25-12-6-4-10-23(25)24-11-5-7-13-26(24)36(48)49/h3-14,21,28-30,50H,15-20H2,1-2H3,(H,38,45)(H,39,44)(H,40,46)(H,41,47)(H,42,43)(H,48,49)/t28-,29-,30-/m0/s1
> <PUBCHEM_IUPAC_INCHIKEY>
QVUJOFDUYCVEOC-DTXPUJKBSA-N
> <PUBCHEM_XLOGP3_AA>
4.9
> <PUBCHEM_EXACT_MASS>
724.2333631
> <PUBCHEM_MOLECULAR_FORMULA>
C36H41ClN4O8S
> <PUBCHEM_MOLECULAR_WEIGHT>
725.3
> <PUBCHEM_OPENEYE_CAN_SMILES>
CC(C)CC(C(=O)NC(CS)C(=O)NCCC1=CC=CC=C1Cl)NC(=O)C(CCC(=O)O)NC(=O)C2=CC=CC=C2C3=CC=CC=C3C(=O)O
> <PUBCHEM_OPENEYE_ISO_SMILES>
CC(C)C[C@@H](C(=O)N[C@@H](CS)C(=O)NCCC1=CC=CC=C1Cl)NC(=O)[C@H](CCC(=O)O)NC(=O)C2=CC=CC=C2C3=CC=CC=C3C(=O)O
> <PUBCHEM_CACTVS_TPSA>
192
> <PUBCHEM_MONOISOTOPIC_WEIGHT>
724.2333631
> <PUBCHEM_TOTAL_CHARGE>
0
> <PUBCHEM_HEAVY_ATOM_COUNT>
50
> <PUBCHEM_ATOM_DEF_STEREO_COUNT>
3
> <PUBCHEM_ATOM_UDEF_STEREO_COUNT>
0
> <PUBCHEM_BOND_DEF_STEREO_COUNT>
0
> <PUBCHEM_BOND_UDEF_STEREO_COUNT>
0
> <PUBCHEM_ISOTOPIC_ATOM_COUNT>
0
> <PUBCHEM_COMPONENT_COUNT>
1
> <PUBCHEM_CACTVS_TAUTO_COUNT>
-1
> <PUBCHEM_COORDINATE_TYPE>
1
5
255
> <PUBCHEM_BONDANNOTATIONS>
16  11  5
24  12  5
18  13  6
29  32  8
29  34  8
32  37  8
34  38  8
35  40  8
35  41  8
36  42  8
36  43  8
37  39  8
38  39  8
40  44  8
41  45  8
42  47  8
43  48  8
44  46  8
45  46  8
47  50  8
48  50  8
$$$$
