507516
  -OEChem-10302200282D
 87 88  0     1  0  0  0  0  0999 V2000
    3.4030   -5.2500    0.0000 Cl  0  0  0  0  0  0  0  0  0  0  0  0
    5.1350   -8.2500    0.0000 Cl  0  0  0  0  0  0  0  0  0  0  0  0
    6.0010    0.2500    0.0000 S   0  0  0  0  0  0  0  0  0  0  0  0
    6.8671    0.7500    0.0000 O   0  0  0  0  0  0  0  0  0  0  0  0
    6.8671    1.7500    0.0000 O   0  0  0  0  0  0  0  0  0  0  0  0
    7.7331   -2.7500    0.0000 O   0  0  0  0  0  0  0  0  0  0  0  0
    7.7331    5.2500    0.0000 O   0  0  0  0  0  0  0  0  0  0  0  0
    9.4651    6.2500    0.0000 O   0  0  0  0  0  0  0  0  0  0  0  0
   10.3312    4.7500    0.0000 O   0  0  0  0  0  0  0  0  0  0  0  0
    2.5369    6.2500    0.0000 O   0  0  0  0  0  0  0  0  0  0  0  0
    3.4030    7.7500    0.0000 O   0  0  0  0  0  0  0  0  0  0  0  0
    8.5991    1.7500    0.0000 N   0  0  0  0  0  0  0  0  0  0  0  0
    7.7331   -0.7500    0.0000 N   0  0  0  0  0  0  0  0  0  0  0  0
    6.8671    3.7500    0.0000 N   0  0  0  0  0  0  0  0  0  0  0  0
    6.0010   -2.7500    0.0000 N   0  0  0  0  0  0  0  0  0  0  0  0
    8.5991    0.7500    0.0000 C   0  0  1  0  0  0  0  0  0  0  0  0
    9.4651    0.2500    0.0000 C   0  0  0  0  0  0  0  0  0  0  0  0
   10.3312    0.7500    0.0000 C   0  0  0  0  0  0  0  0  0  0  0  0
    7.7331    3.2500    0.0000 C   0  0  2  0  0  0  0  0  0  0  0  0
    7.7331    0.2500    0.0000 C   0  0  0  0  0  0  0  0  0  0  0  0
   11.1972    0.2500    0.0000 C   0  0  0  0  0  0  0  0  0  0  0  0
   10.3312    1.7500    0.0000 C   0  0  0  0  0  0  0  0  0  0  0  0
    7.7331    2.2500    0.0000 C   0  0  0  0  0  0  0  0  0  0  0  0
    8.5991    3.7500    0.0000 C   0  0  0  0  0  0  0  0  0  0  0  0
    6.8671   -1.2500    0.0000 C   0  0  1  0  0  0  0  0  0  0  0  0
    8.5991    4.7500    0.0000 C   0  0  0  0  0  0  0  0  0  0  0  0
    6.0010   -0.7500    0.0000 C   0  0  0  0  0  0  0  0  0  0  0  0
    6.8671   -2.2500    0.0000 C   0  0  0  0  0  0  0  0  0  0  0  0
    6.8671    4.7500    0.0000 C   0  0  0  0  0  0  0  0  0  0  0  0
    6.0010    5.2500    0.0000 C   0  0  0  0  0  0  0  0  0  0  0  0
    6.0010    6.2500    0.0000 C   0  0  0  0  0  0  0  0  0  0  0  0
    9.4651    5.2500    0.0000 C   0  0  0  0  0  0  0  0  0  0  0  0
    6.0010   -3.7500    0.0000 C   0  0  0  0  0  0  0  0  0  0  0  0
    5.1350   -4.2500    0.0000 C   0  0  0  0  0  0  0  0  0  0  0  0
    5.1350    6.7500    0.0000 C   0  0  0  0  0  0  0  0  0  0  0  0
    6.8671    6.7500    0.0000 C   0  0  0  0  0  0  0  0  0  0  0  0
    5.1350   -5.2500    0.0000 C   0  0  0  0  0  0  0  0  0  0  0  0
    4.2690    6.2500    0.0000 C   0  0  0  0  0  0  0  0  0  0  0  0
    5.1350    7.7500    0.0000 C   0  0  0  0  0  0  0  0  0  0  0  0
    6.8671    7.7500    0.0000 C   0  0  0  0  0  0  0  0  0  0  0  0
    6.0010    8.2500    0.0000 C   0  0  0  0  0  0  0  0  0  0  0  0
    4.2690   -5.7500    0.0000 C   0  0  0  0  0  0  0  0  0  0  0  0
    6.0010   -5.7500    0.0000 C   0  0  0  0  0  0  0  0  0  0  0  0
    3.4030    6.7500    0.0000 C   0  0  0  0  0  0  0  0  0  0  0  0
    4.2690   -6.7500    0.0000 C   0  0  0  0  0  0  0  0  0  0  0  0
    6.0010   -6.7500    0.0000 C   0  0  0  0  0  0  0  0  0  0  0  0
    5.1350   -7.2500    0.0000 C   0  0  0  0  0  0  0  0  0  0  0  0
    8.0622    1.0600    0.0000 H   0  0  0  0  0  0  0  0  0  0  0  0
    9.0666   -0.2249    0.0000 H   0  0  0  0  0  0  0  0  0  0  0  0
    9.8637   -0.2249    0.0000 H   0  0  0  0  0  0  0  0  0  0  0  0
   10.8681    1.0600    0.0000 H   0  0  0  0  0  0  0  0  0  0  0  0
    9.1360    2.0600    0.0000 H   0  0  0  0  0  0  0  0  0  0  0  0
    7.7331    3.8700    0.0000 H   0  0  0  0  0  0  0  0  0  0  0  0
   10.8872   -0.2869    0.0000 H   0  0  0  0  0  0  0  0  0  0  0  0
   11.7341   -0.0600    0.0000 H   0  0  0  0  0  0  0  0  0  0  0  0
   11.5072    0.7869    0.0000 H   0  0  0  0  0  0  0  0  0  0  0  0
   10.9512    1.7500    0.0000 H   0  0  0  0  0  0  0  0  0  0  0  0
   10.3312    2.3700    0.0000 H   0  0  0  0  0  0  0  0  0  0  0  0
    9.7112    1.7500    0.0000 H   0  0  0  0  0  0  0  0  0  0  0  0
    8.8112    3.1674    0.0000 H   0  0  0  0  0  0  0  0  0  0  0  0
    9.2097    3.8577    0.0000 H   0  0  0  0  0  0  0  0  0  0  0  0
    8.2700   -1.0600    0.0000 H   0  0  0  0  0  0  0  0  0  0  0  0
    7.4040   -1.5600    0.0000 H   0  0  0  0  0  0  0  0  0  0  0  0
    6.3301    3.4400    0.0000 H   0  0  0  0  0  0  0  0  0  0  0  0
    8.3871    5.3326    0.0000 H   0  0  0  0  0  0  0  0  0  0  0  0
    7.9885    4.6423    0.0000 H   0  0  0  0  0  0  0  0  0  0  0  0
    5.3905   -0.6423    0.0000 H   0  0  0  0  0  0  0  0  0  0  0  0
    5.7890   -1.3326    0.0000 H   0  0  0  0  0  0  0  0  0  0  0  0
    5.3905    5.3577    0.0000 H   0  0  0  0  0  0  0  0  0  0  0  0
    5.7890    4.6674    0.0000 H   0  0  0  0  0  0  0  0  0  0  0  0
    5.4641   -2.4400    0.0000 H   0  0  0  0  0  0  0  0  0  0  0  0
    6.2131   -4.3326    0.0000 H   0  0  0  0  0  0  0  0  0  0  0  0
    6.6116   -3.6423    0.0000 H   0  0  0  0  0  0  0  0  0  0  0  0
    4.9230   -3.6674    0.0000 H   0  0  0  0  0  0  0  0  0  0  0  0
    4.5244   -4.3577    0.0000 H   0  0  0  0  0  0  0  0  0  0  0  0
    7.4040    6.4400    0.0000 H   0  0  0  0  0  0  0  0  0  0  0  0
    5.4641    0.5600    0.0000 H   0  0  0  0  0  0  0  0  0  0  0  0
    3.8705    5.7750    0.0000 H   0  0  0  0  0  0  0  0  0  0  0  0
    4.6675    5.7750    0.0000 H   0  0  0  0  0  0  0  0  0  0  0  0
    4.5981    8.0600    0.0000 H   0  0  0  0  0  0  0  0  0  0  0  0
    7.4040    8.0600    0.0000 H   0  0  0  0  0  0  0  0  0  0  0  0
    6.0010    8.8700    0.0000 H   0  0  0  0  0  0  0  0  0  0  0  0
   10.0021    6.5600    0.0000 H   0  0  0  0  0  0  0  0  0  0  0  0
    6.5380   -5.4400    0.0000 H   0  0  0  0  0  0  0  0  0  0  0  0
    3.7320   -7.0600    0.0000 H   0  0  0  0  0  0  0  0  0  0  0  0
    6.5380   -7.0600    0.0000 H   0  0  0  0  0  0  0  0  0  0  0  0
    2.0000    6.5600    0.0000 H   0  0  0  0  0  0  0  0  0  0  0  0
  1 42  1  0  0  0  0
  2 47  1  0  0  0  0
  3 27  1  0  0  0  0
  3 77  1  0  0  0  0
  4 20  2  0  0  0  0
  5 23  2  0  0  0  0
  6 28  2  0  0  0  0
  7 29  2  0  0  0  0
  8 32  1  0  0  0  0
  8 83  1  0  0  0  0
  9 32  2  0  0  0  0
 10 44  1  0  0  0  0
 10 87  1  0  0  0  0
 11 44  2  0  0  0  0
 16 12  1  1  0  0  0
 12 23  1  0  0  0  0
 12 52  1  0  0  0  0
 13 20  1  0  0  0  0
 25 13  1  6  0  0  0
 13 62  1  0  0  0  0
 19 14  1  1  0  0  0
 14 29  1  0  0  0  0
 14 64  1  0  0  0  0
 15 28  1  0  0  0  0
 15 33  1  0  0  0  0
 15 71  1  0  0  0  0
 16 17  1  0  0  0  0
 16 20  1  0  0  0  0
 16 48  1  0  0  0  0
 17 18  1  0  0  0  0
 17 49  1  0  0  0  0
 17 50  1  0  0  0  0
 18 21  1  0  0  0  0
 18 22  1  0  0  0  0
 18 51  1  0  0  0  0
 19 23  1  0  0  0  0
 19 24  1  0  0  0  0
 19 53  1  0  0  0  0
 21 54  1  0  0  0  0
 21 55  1  0  0  0  0
 21 56  1  0  0  0  0
 22 57  1  0  0  0  0
 22 58  1  0  0  0  0
 22 59  1  0  0  0  0
 24 26  1  0  0  0  0
 24 60  1  0  0  0  0
 24 61  1  0  0  0  0
 25 27  1  0  0  0  0
 25 28  1  0  0  0  0
 25 63  1  0  0  0  0
 26 32  1  0  0  0  0
 26 65  1  0  0  0  0
 26 66  1  0  0  0  0
 27 67  1  0  0  0  0
 27 68  1  0  0  0  0
 29 30  1  0  0  0  0
 30 31  1  0  0  0  0
 30 69  1  0  0  0  0
 30 70  1  0  0  0  0
 31 35  1  0  0  0  0
 31 36  2  0  0  0  0
 33 34  1  0  0  0  0
 33 72  1  0  0  0  0
 33 73  1  0  0  0  0
 34 37  1  0  0  0  0
 34 74  1  0  0  0  0
 34 75  1  0  0  0  0
 35 38  1  0  0  0  0
 35 39  2  0  0  0  0
 36 40  1  0  0  0  0
 36 76  1  0  0  0  0
 37 42  2  0  0  0  0
 37 43  1  0  0  0  0
 38 44  1  0  0  0  0
 38 78  1  0  0  0  0
 38 79  1  0  0  0  0
 39 41  1  0  0  0  0
 39 80  1  0  0  0  0
 40 41  2  0  0  0  0
 40 81  1  0  0  0  0
 41 82  1  0  0  0  0
 42 45  1  0  0  0  0
 43 46  2  0  0  0  0
 43 84  1  0  0  0  0
 45 47  2  0  0  0  0
 45 85  1  0  0  0  0
 46 47  1  0  0  0  0
 46 86  1  0  0  0  0
M  END
> <PUBCHEM_COMPOUND_CID>
507516
> <PUBCHEM_COMPOUND_CANONICALIZED>
1
> <PUBCHEM_CACTVS_COMPLEXITY>
1080
> <PUBCHEM_CACTVS_HBOND_ACCEPTOR>
9
> <PUBCHEM_CACTVS_HBOND_DONOR>
7
> <PUBCHEM_CACTVS_ROTATABLE_BOND>
19
> <PUBCHEM_CACTVS_SUBSKEYS>
AAADcfB/vABGAAAAAAAAAAAAAAAAAAAAAAAwYAAAAAAAAAABQAAAHgYQCAAADSrF2CSyCILAAgSIAiHSGAACAAAgBQAIiIGIAogIYDKBlzGUYAAk1gGIiAe836KOhAAAAACRAAAIAAAAASIAAAAAAAAAAA==
> <PUBCHEM_IUPAC_OPENEYE_NAME>
(4S)-4-[[2-[2-(carboxymethyl)phenyl]acetyl]amino]-5-[[(1S)-1-[[(1R)-2-[2-(2,4-dichlorophenyl)ethylamino]-2-oxo-1-(sulfanylmethyl)ethyl]carbamoyl]-3-methyl-butyl]amino]-5-oxo-pentanoic acid
> <PUBCHEM_IUPAC_CAS_NAME>
(4S)-4-[[2-[2-(carboxymethyl)phenyl]-1-oxoethyl]amino]-5-[[(2S)-1-[[(2R)-1-[2-(2,4-dichlorophenyl)ethylamino]-3-mercapto-1-oxopropan-2-yl]amino]-4-methyl-1-oxopentan-2-yl]amino]-5-oxopentanoic acid
> <PUBCHEM_IUPAC_NAME_MARKUP>
(4<I>S</I>)-4-[[2-[2-(carboxymethyl)phenyl]acetyl]amino]-5-[[(2<I>S</I>)-1-[[(2<I>R</I>)-1-[2-(2,4-dichlorophenyl)ethylamino]-1-oxo-3-sulfanylpropan-2-yl]amino]-4-methyl-1-oxopentan-2-yl]amino]-5-oxopentanoic acid
> <PUBCHEM_IUPAC_NAME>
(4S)-4-[[2-[2-(carboxymethyl)phenyl]acetyl]amino]-5-[[(2S)-1-[[(2R)-1-[2-(2,4-dichlorophenyl)ethylamino]-1-oxo-3-sulfanylpropan-2-yl]amino]-4-methyl-1-oxopentan-2-yl]amino]-5-oxopentanoic acid
> <PUBCHEM_IUPAC_SYSTEMATIC_NAME>
(4S)-5-[[(2S)-1-[[(2R)-1-[2-(2,4-dichlorophenyl)ethylamino]-1-oxidanylidene-3-sulfanyl-propan-2-yl]amino]-4-methyl-1-oxidanylidene-pentan-2-yl]amino]-4-[2-[2-(2-hydroxy-2-oxoethyl)phenyl]ethanoylamino]-5-oxidanylidene-pentanoic acid
> <PUBCHEM_IUPAC_TRADITIONAL_NAME>
(4S)-4-[[2-[2-(carboxymethyl)phenyl]acetyl]amino]-5-[[(1S)-1-[[(1R)-2-[2-(2,4-dichlorophenyl)ethylamino]-2-keto-1-(mercaptomethyl)ethyl]carbamoyl]-3-methyl-butyl]amino]-5-keto-valeric acid
> <PUBCHEM_IUPAC_INCHI>
InChI=1S/C32H40Cl2N4O8S/c1-18(2)13-25(32(46)38-26(17-47)30(44)35-12-11-19-7-8-22(33)16-23(19)34)37-31(45)24(9-10-28(40)41)36-27(39)14-20-5-3-4-6-21(20)15-29(42)43/h3-8,16,18,24-26,47H,9-15,17H2,1-2H3,(H,35,44)(H,36,39)(H,37,45)(H,38,46)(H,40,41)(H,42,43)/t24-,25-,26-/m0/s1
> <PUBCHEM_IUPAC_INCHIKEY>
PTFTWSPBUCCGKK-GSDHBNRESA-N
> <PUBCHEM_XLOGP3_AA>
3.8
> <PUBCHEM_EXACT_MASS>
710.1943908
> <PUBCHEM_MOLECULAR_FORMULA>
C32H40Cl2N4O8S
> <PUBCHEM_MOLECULAR_WEIGHT>
711.7
> <PUBCHEM_OPENEYE_CAN_SMILES>
CC(C)CC(C(=O)NC(CS)C(=O)NCCC1=C(C=C(C=C1)Cl)Cl)NC(=O)C(CCC(=O)O)NC(=O)CC2=CC=CC=C2CC(=O)O
> <PUBCHEM_OPENEYE_ISO_SMILES>
CC(C)C[C@@H](C(=O)N[C@@H](CS)C(=O)NCCC1=C(C=C(C=C1)Cl)Cl)NC(=O)[C@H](CCC(=O)O)NC(=O)CC2=CC=CC=C2CC(=O)O
> <PUBCHEM_CACTVS_TPSA>
192
> <PUBCHEM_MONOISOTOPIC_WEIGHT>
710.1943908
> <PUBCHEM_TOTAL_CHARGE>
0
> <PUBCHEM_HEAVY_ATOM_COUNT>
47
> <PUBCHEM_ATOM_DEF_STEREO_COUNT>
3
> <PUBCHEM_ATOM_UDEF_STEREO_COUNT>
0
> <PUBCHEM_BOND_DEF_STEREO_COUNT>
0
> <PUBCHEM_BOND_UDEF_STEREO_COUNT>
0
> <PUBCHEM_ISOTOPIC_ATOM_COUNT>
0
> <PUBCHEM_COMPONENT_COUNT>
1
> <PUBCHEM_CACTVS_TAUTO_COUNT>
-1
> <PUBCHEM_COORDINATE_TYPE>
1
5
255
> <PUBCHEM_BONDANNOTATIONS>
16  12  5
25  13  6
19  14  5
31  35  8
31  36  8
35  39  8
36  40  8
37  42  8
37  43  8
39  41  8
40  41  8
42  45  8
43  46  8
45  47  8
46  47  8
$$$$
