507567
  -OEChem-10302200282D
136139  0     1  0  0  0  0  0999 V2000
   11.5263    4.5600    0.0000 S   0  0  0  0  0  0  0  0  0  0  0  0
   12.3923    2.0600    0.0000 O   0  0  0  0  0  0  0  0  0  0  0  0
   11.5263   -1.4400    0.0000 O   0  0  0  0  0  0  0  0  0  0  0  0
    8.0622   -2.4400    0.0000 O   0  0  0  0  0  0  0  0  0  0  0  0
    8.9282    3.0600    0.0000 O   0  0  0  0  0  0  0  0  0  0  0  0
    8.0622    1.5600    0.0000 O   0  0  0  0  0  0  0  0  0  0  0  0
    7.1962    0.0600    0.0000 O   0  0  0  0  0  0  0  0  0  0  0  0
    7.1962   -2.9400    0.0000 O   0  0  0  0  0  0  0  0  0  0  0  0
    4.5981   -5.4400    0.0000 O   0  0  0  0  0  0  0  0  0  0  0  0
    4.5981   -7.4400    0.0000 O   0  0  0  0  0  0  0  0  0  0  0  0
    6.3301   -7.4400    0.0000 O   0  0  0  0  0  0  0  0  0  0  0  0
    2.8660   -1.4400    0.0000 O   0  0  0  0  0  0  0  0  0  0  0  0
    2.0000   -2.9400    0.0000 O   0  0  0  0  0  0  0  0  0  0  0  0
    3.7320   -5.9400    0.0000 O   0  0  0  0  0  0  0  0  0  0  0  0
   10.6603    0.0600    0.0000 N   0  0  0  0  0  0  0  0  0  0  0  0
   10.6603    2.0600    0.0000 N   0  0  0  0  0  0  0  0  0  0  0  0
    9.7942   -2.4400    0.0000 N   0  0  0  0  0  0  0  0  0  0  0  0
    8.0622   -4.4400    0.0000 N   0  0  0  0  0  0  0  0  0  0  0  0
    9.7942    4.5600    0.0000 N   0  0  0  0  0  0  0  0  0  0  0  0
    5.4641   -3.9400    0.0000 N   0  0  0  0  0  0  0  0  0  0  0  0
    2.8660   -4.4400    0.0000 N   0  0  0  0  0  0  0  0  0  0  0  0
    8.0622    7.5600    0.0000 N   0  0  0  0  0  0  0  0  0  0  0  0
   13.2583    0.5600    0.0000 C   0  0  0  0  0  0  0  0  0  0  0  0
   13.2583    1.5600    0.0000 C   0  0  0  0  0  0  0  0  0  0  0  0
   14.1244    0.0600    0.0000 C   0  0  0  0  0  0  0  0  0  0  0  0
   14.1244    2.0600    0.0000 C   0  0  0  0  0  0  0  0  0  0  0  0
   14.9904    0.5600    0.0000 C   0  0  0  0  0  0  0  0  0  0  0  0
   12.3923    0.0600    0.0000 C   0  0  0  0  0  0  0  0  0  0  0  0
   14.9904    1.5600    0.0000 C   0  0  0  0  0  0  0  0  0  0  0  0
   11.5263    0.5600    0.0000 C   0  0  1  0  0  0  0  0  0  0  0  0
   11.5263    1.5600    0.0000 C   0  0  0  0  0  0  0  0  0  0  0  0
   10.6603   -0.9400    0.0000 C   0  0  0  0  0  0  0  0  0  0  0  0
    9.7942   -1.4400    0.0000 C   0  0  2  0  0  0  0  0  0  0  0  0
   10.6603    3.0600    0.0000 C   0  0  1  0  0  0  0  0  0  0  0  0
    8.9282   -0.9400    0.0000 C   0  0  0  0  0  0  0  0  0  0  0  0
    8.9282   -3.9400    0.0000 C   0  0  2  0  0  0  0  0  0  0  0  0
   11.5263    3.5600    0.0000 C   0  0  0  0  0  0  0  0  0  0  0  0
    8.9282   -2.9400    0.0000 C   0  0  0  0  0  0  0  0  0  0  0  0
    8.9282    0.0600    0.0000 C   0  0  0  0  0  0  0  0  0  0  0  0
    9.7942   -4.4400    0.0000 C   0  0  0  0  0  0  0  0  0  0  0  0
    9.7942    3.5600    0.0000 C   0  0  0  0  0  0  0  0  0  0  0  0
    9.7942   -5.4400    0.0000 C   0  0  0  0  0  0  0  0  0  0  0  0
   10.7942   -4.4400    0.0000 C   0  0  0  0  0  0  0  0  0  0  0  0
    8.0622    0.5600    0.0000 C   0  0  0  0  0  0  0  0  0  0  0  0
    7.1962   -3.9400    0.0000 C   0  0  0  0  0  0  0  0  0  0  0  0
    6.3301   -4.4400    0.0000 C   0  0  2  0  0  0  0  0  0  0  0  0
    8.9282    5.0600    0.0000 C   0  0  0  0  0  0  0  0  0  0  0  0
   10.6603   -5.9400    0.0000 C   0  0  0  0  0  0  0  0  0  0  0  0
   11.2942   -5.3060    0.0000 C   0  0  0  0  0  0  0  0  0  0  0  0
    8.9282   -5.9400    0.0000 C   0  0  0  0  0  0  0  0  0  0  0  0
   11.2942   -3.5740    0.0000 C   0  0  0  0  0  0  0  0  0  0  0  0
    6.3301   -5.4400    0.0000 C   0  0  0  0  0  0  0  0  0  0  0  0
    8.9282    6.0600    0.0000 C   0  0  0  0  0  0  0  0  0  0  0  0
   10.6603   -6.9400    0.0000 C   0  0  0  0  0  0  0  0  0  0  0  0
   12.2942   -5.3060    0.0000 C   0  0  0  0  0  0  0  0  0  0  0  0
    8.9282   -6.9400    0.0000 C   0  0  0  0  0  0  0  0  0  0  0  0
   12.2942   -3.5740    0.0000 C   0  0  0  0  0  0  0  0  0  0  0  0
    5.4641   -5.9400    0.0000 C   0  0  0  0  0  0  0  0  0  0  0  0
    9.7942   -7.4400    0.0000 C   0  0  0  0  0  0  0  0  0  0  0  0
   12.7942   -4.4400    0.0000 C   0  0  0  0  0  0  0  0  0  0  0  0
    4.5981   -4.4400    0.0000 C   0  0  0  0  0  0  0  0  0  0  0  0
    3.7320   -3.9400    0.0000 C   0  0  2  0  0  0  0  0  0  0  0  0
    8.0622    6.5600    0.0000 C   0  0  0  0  0  0  0  0  0  0  0  0
    5.4641   -6.9400    0.0000 C   0  0  0  0  0  0  0  0  0  0  0  0
    3.7320   -2.9400    0.0000 C   0  0  0  0  0  0  0  0  0  0  0  0
    7.1962    6.0600    0.0000 C   0  0  0  0  0  0  0  0  0  0  0  0
    2.8660   -2.4400    0.0000 C   0  0  0  0  0  0  0  0  0  0  0  0
    2.8660   -5.4400    0.0000 C   0  0  0  0  0  0  0  0  0  0  0  0
    6.3301    6.5600    0.0000 C   0  0  0  0  0  0  0  0  0  0  0  0
    7.1962    8.0600    0.0000 C   0  0  0  0  0  0  0  0  0  0  0  0
    6.3301    7.5600    0.0000 C   0  0  0  0  0  0  0  0  0  0  0  0
    2.0000   -5.9400    0.0000 C   0  0  0  0  0  0  0  0  0  0  0  0
   13.2583   -0.0600    0.0000 H   0  0  0  0  0  0  0  0  0  0  0  0
   13.0463    2.1426    0.0000 H   0  0  0  0  0  0  0  0  0  0  0  0
   12.6477    1.4523    0.0000 H   0  0  0  0  0  0  0  0  0  0  0  0
   13.7258   -0.4149    0.0000 H   0  0  0  0  0  0  0  0  0  0  0  0
   14.5229   -0.4149    0.0000 H   0  0  0  0  0  0  0  0  0  0  0  0
   14.5229    2.5349    0.0000 H   0  0  0  0  0  0  0  0  0  0  0  0
   13.7258    2.5349    0.0000 H   0  0  0  0  0  0  0  0  0  0  0  0
   15.2024   -0.0226    0.0000 H   0  0  0  0  0  0  0  0  0  0  0  0
   15.6010    0.6677    0.0000 H   0  0  0  0  0  0  0  0  0  0  0  0
   11.9938   -0.4149    0.0000 H   0  0  0  0  0  0  0  0  0  0  0  0
   12.7908   -0.4149    0.0000 H   0  0  0  0  0  0  0  0  0  0  0  0
   15.6010    1.4523    0.0000 H   0  0  0  0  0  0  0  0  0  0  0  0
   15.2024    2.1426    0.0000 H   0  0  0  0  0  0  0  0  0  0  0  0
   10.9893    0.8700    0.0000 H   0  0  0  0  0  0  0  0  0  0  0  0
   10.1233    0.3700    0.0000 H   0  0  0  0  0  0  0  0  0  0  0  0
   10.1233    1.7500    0.0000 H   0  0  0  0  0  0  0  0  0  0  0  0
    9.2573   -1.7500    0.0000 H   0  0  0  0  0  0  0  0  0  0  0  0
   11.1972    2.7500    0.0000 H   0  0  0  0  0  0  0  0  0  0  0  0
    8.3176   -0.8323    0.0000 H   0  0  0  0  0  0  0  0  0  0  0  0
    8.7162   -1.5226    0.0000 H   0  0  0  0  0  0  0  0  0  0  0  0
   10.3312   -2.7500    0.0000 H   0  0  0  0  0  0  0  0  0  0  0  0
    8.9282   -4.5600    0.0000 H   0  0  0  0  0  0  0  0  0  0  0  0
   11.7383    2.9774    0.0000 H   0  0  0  0  0  0  0  0  0  0  0  0
   12.1369    3.6677    0.0000 H   0  0  0  0  0  0  0  0  0  0  0  0
    9.5388   -0.0477    0.0000 H   0  0  0  0  0  0  0  0  0  0  0  0
    9.1403    0.6426    0.0000 H   0  0  0  0  0  0  0  0  0  0  0  0
    9.9547   -3.8411    0.0000 H   0  0  0  0  0  0  0  0  0  0  0  0
    8.0622   -5.0600    0.0000 H   0  0  0  0  0  0  0  0  0  0  0  0
   10.3312    4.8700    0.0000 H   0  0  0  0  0  0  0  0  0  0  0  0
    5.7932   -4.7500    0.0000 H   0  0  0  0  0  0  0  0  0  0  0  0
   12.0632    4.8700    0.0000 H   0  0  0  0  0  0  0  0  0  0  0  0
    8.3176    5.1677    0.0000 H   0  0  0  0  0  0  0  0  0  0  0  0
    8.7162    4.4774    0.0000 H   0  0  0  0  0  0  0  0  0  0  0  0
   11.1972   -5.6300    0.0000 H   0  0  0  0  0  0  0  0  0  0  0  0
   10.9842   -5.8430    0.0000 H   0  0  0  0  0  0  0  0  0  0  0  0
    8.3913   -5.6300    0.0000 H   0  0  0  0  0  0  0  0  0  0  0  0
   10.9842   -3.0370    0.0000 H   0  0  0  0  0  0  0  0  0  0  0  0
    6.5422   -6.0226    0.0000 H   0  0  0  0  0  0  0  0  0  0  0  0
    6.9407   -5.3323    0.0000 H   0  0  0  0  0  0  0  0  0  0  0  0
    5.4641   -3.3200    0.0000 H   0  0  0  0  0  0  0  0  0  0  0  0
    9.5388    5.9523    0.0000 H   0  0  0  0  0  0  0  0  0  0  0  0
    9.1403    6.6426    0.0000 H   0  0  0  0  0  0  0  0  0  0  0  0
    5.2520   -5.3574    0.0000 H   0  0  0  0  0  0  0  0  0  0  0  0
    4.8535   -6.0477    0.0000 H   0  0  0  0  0  0  0  0  0  0  0  0
   11.1972   -7.2500    0.0000 H   0  0  0  0  0  0  0  0  0  0  0  0
   12.6042   -5.8430    0.0000 H   0  0  0  0  0  0  0  0  0  0  0  0
    8.3913   -7.2500    0.0000 H   0  0  0  0  0  0  0  0  0  0  0  0
   12.6042   -3.0370    0.0000 H   0  0  0  0  0  0  0  0  0  0  0  0
    7.5252    1.8700    0.0000 H   0  0  0  0  0  0  0  0  0  0  0  0
    9.7942   -8.0600    0.0000 H   0  0  0  0  0  0  0  0  0  0  0  0
   13.4142   -4.4400    0.0000 H   0  0  0  0  0  0  0  0  0  0  0  0
    3.7320   -4.5600    0.0000 H   0  0  0  0  0  0  0  0  0  0  0  0
    4.3426   -3.0477    0.0000 H   0  0  0  0  0  0  0  0  0  0  0  0
    3.9441   -2.3574    0.0000 H   0  0  0  0  0  0  0  0  0  0  0  0
    2.3291   -4.1300    0.0000 H   0  0  0  0  0  0  0  0  0  0  0  0
    7.1962    5.4400    0.0000 H   0  0  0  0  0  0  0  0  0  0  0  0
    4.5981   -8.0600    0.0000 H   0  0  0  0  0  0  0  0  0  0  0  0
    5.7932    6.2500    0.0000 H   0  0  0  0  0  0  0  0  0  0  0  0
    7.1962    8.6800    0.0000 H   0  0  0  0  0  0  0  0  0  0  0  0
    5.7932    7.8700    0.0000 H   0  0  0  0  0  0  0  0  0  0  0  0
    1.6900   -5.4031    0.0000 H   0  0  0  0  0  0  0  0  0  0  0  0
    1.4631   -6.2500    0.0000 H   0  0  0  0  0  0  0  0  0  0  0  0
    2.3100   -6.4769    0.0000 H   0  0  0  0  0  0  0  0  0  0  0  0
    2.3291   -1.1300    0.0000 H   0  0  0  0  0  0  0  0  0  0  0  0
  1 37  1  0  0  0  0
  1103  1  0  0  0  0
  2 31  2  0  0  0  0
  3 32  2  0  0  0  0
  4 38  2  0  0  0  0
  5 41  2  0  0  0  0
  6 44  1  0  0  0  0
  6121  1  0  0  0  0
  7 44  2  0  0  0  0
  8 45  2  0  0  0  0
  9 61  2  0  0  0  0
 10 64  1  0  0  0  0
 10129  1  0  0  0  0
 11 64  2  0  0  0  0
 12 67  1  0  0  0  0
 12136  1  0  0  0  0
 13 67  2  0  0  0  0
 14 68  2  0  0  0  0
 30 15  1  6  0  0  0
 15 32  1  0  0  0  0
 15 87  1  0  0  0  0
 16 31  1  0  0  0  0
 34 16  1  6  0  0  0
 16 88  1  0  0  0  0
 33 17  1  1  0  0  0
 17 38  1  0  0  0  0
 17 93  1  0  0  0  0
 36 18  1  6  0  0  0
 18 45  1  0  0  0  0
 18100  1  0  0  0  0
 19 41  1  0  0  0  0
 19 47  1  0  0  0  0
 19101  1  0  0  0  0
 46 20  1  6  0  0  0
 20 61  1  0  0  0  0
 20112  1  0  0  0  0
 62 21  1  1  0  0  0
 21 68  1  0  0  0  0
 21127  1  0  0  0  0
 22 63  1  0  0  0  0
 22 70  2  0  0  0  0
 23 24  1  0  0  0  0
 23 25  1  0  0  0  0
 23 28  1  0  0  0  0
 23 73  1  0  0  0  0
 24 26  1  0  0  0  0
 24 74  1  0  0  0  0
 24 75  1  0  0  0  0
 25 27  1  0  0  0  0
 25 76  1  0  0  0  0
 25 77  1  0  0  0  0
 26 29  1  0  0  0  0
 26 78  1  0  0  0  0
 26 79  1  0  0  0  0
 27 29  1  0  0  0  0
 27 80  1  0  0  0  0
 27 81  1  0  0  0  0
 28 30  1  0  0  0  0
 28 82  1  0  0  0  0
 28 83  1  0  0  0  0
 29 84  1  0  0  0  0
 29 85  1  0  0  0  0
 30 31  1  0  0  0  0
 30 86  1  0  0  0  0
 32 33  1  0  0  0  0
 33 35  1  0  0  0  0
 33 89  1  0  0  0  0
 34 37  1  0  0  0  0
 34 41  1  0  0  0  0
 34 90  1  0  0  0  0
 35 39  1  0  0  0  0
 35 91  1  0  0  0  0
 35 92  1  0  0  0  0
 36 38  1  0  0  0  0
 36 40  1  0  0  0  0
 36 94  1  0  0  0  0
 37 95  1  0  0  0  0
 37 96  1  0  0  0  0
 39 44  1  0  0  0  0
 39 97  1  0  0  0  0
 39 98  1  0  0  0  0
 40 42  1  0  0  0  0
 40 43  1  0  0  0  0
 40 99  1  0  0  0  0
 42 48  2  0  0  0  0
 42 50  1  0  0  0  0
 43 49  2  0  0  0  0
 43 51  1  0  0  0  0
 45 46  1  0  0  0  0
 46 52  1  0  0  0  0
 46102  1  0  0  0  0
 47 53  1  0  0  0  0
 47104  1  0  0  0  0
 47105  1  0  0  0  0
 48 54  1  0  0  0  0
 48106  1  0  0  0  0
 49 55  1  0  0  0  0
 49107  1  0  0  0  0
 50 56  2  0  0  0  0
 50108  1  0  0  0  0
 51 57  2  0  0  0  0
 51109  1  0  0  0  0
 52 58  1  0  0  0  0
 52110  1  0  0  0  0
 52111  1  0  0  0  0
 53 63  1  0  0  0  0
 53113  1  0  0  0  0
 53114  1  0  0  0  0
 54 59  2  0  0  0  0
 54117  1  0  0  0  0
 55 60  2  0  0  0  0
 55118  1  0  0  0  0
 56 59  1  0  0  0  0
 56119  1  0  0  0  0
 57 60  1  0  0  0  0
 57120  1  0  0  0  0
 58 64  1  0  0  0  0
 58115  1  0  0  0  0
 58116  1  0  0  0  0
 59122  1  0  0  0  0
 60123  1  0  0  0  0
 61 62  1  0  0  0  0
 62 65  1  0  0  0  0
 62124  1  0  0  0  0
 63 66  2  0  0  0  0
 65 67  1  0  0  0  0
 65125  1  0  0  0  0
 65126  1  0  0  0  0
 66 69  1  0  0  0  0
 66128  1  0  0  0  0
 68 72  1  0  0  0  0
 69 71  2  0  0  0  0
 69130  1  0  0  0  0
 70 71  1  0  0  0  0
 70131  1  0  0  0  0
 71132  1  0  0  0  0
 72133  1  0  0  0  0
 72134  1  0  0  0  0
 72135  1  0  0  0  0
M  END
> <PUBCHEM_COMPOUND_CID>
507567
> <PUBCHEM_COMPOUND_CANONICALIZED>
1
> <PUBCHEM_CACTVS_COMPLEXITY>
1820
> <PUBCHEM_CACTVS_HBOND_ACCEPTOR>
15
> <PUBCHEM_CACTVS_HBOND_DONOR>
11
> <PUBCHEM_CACTVS_ROTATABLE_BOND>
29
> <PUBCHEM_CACTVS_SUBSKEYS>
AAADcfB//ABAAAAAAAAAAAAAAAAAAAAAAAA8YMEAAAAAAAAB0AAAHgQQCAAADSjF3gS+iJLIEgSoAzX3XACCgCAxAiAI2KG4ZJgIYPrA0bGUYAhmlgDIyAe/n8KOgAAAAAAAAAAAAAAAAAAAAAAAAAAAAA==
> <PUBCHEM_IUPAC_OPENEYE_NAME>
(4S)-4-[[(2S)-2-acetamido-3-carboxy-propanoyl]amino]-5-[[(1S)-1-benzhydryl-2-[[(1S)-3-carboxy-1-[[(1S)-1-(cyclohexylmethyl)-2-oxo-2-[[(1R)-2-oxo-2-[2-(2-pyridyl)ethylamino]-1-(sulfanylmethyl)ethyl]amino]ethyl]carbamoyl]propyl]amino]-2-oxo-ethyl]amino]-5-oxo-pentanoic acid
> <PUBCHEM_IUPAC_CAS_NAME>
(4S)-4-[[(2S)-2-acetamido-3-carboxy-1-oxopropyl]amino]-5-[[(2S)-1-[[(2S)-4-carboxy-1-[[(2S)-3-cyclohexyl-1-[[(2R)-3-mercapto-1-oxo-1-[2-(2-pyridinyl)ethylamino]propan-2-yl]amino]-1-oxopropan-2-yl]amino]-1-oxobutan-2-yl]amino]-1-oxo-3,3-diphenylpropan-2-yl]amino]-5-oxopentanoic acid
> <PUBCHEM_IUPAC_NAME_MARKUP>
(4<I>S</I>)-4-[[(2<I>S</I>)-2-acetamido-3-carboxypropanoyl]amino]-5-[[(2<I>S</I>)-1-[[(2<I>S</I>)-4-carboxy-1-[[(2<I>S</I>)-3-cyclohexyl-1-oxo-1-[[(2<I>R</I>)-1-oxo-1-(2-pyridin-2-ylethylamino)-3-sulfanylpropan-2-yl]amino]propan-2-yl]amino]-1-oxobutan-2-yl]amino]-1-oxo-3,3-diphenylpropan-2-yl]amino]-5-oxopentanoic acid
> <PUBCHEM_IUPAC_NAME>
(4S)-4-[[(2S)-2-acetamido-3-carboxypropanoyl]amino]-5-[[(2S)-1-[[(2S)-4-carboxy-1-[[(2S)-3-cyclohexyl-1-oxo-1-[[(2R)-1-oxo-1-(2-pyridin-2-ylethylamino)-3-sulfanylpropan-2-yl]amino]propan-2-yl]amino]-1-oxobutan-2-yl]amino]-1-oxo-3,3-diphenylpropan-2-yl]amino]-5-oxopentanoic acid
> <PUBCHEM_IUPAC_SYSTEMATIC_NAME>
(4S)-4-[[(2S)-2-acetamido-4-oxidanyl-4-oxidanylidene-butanoyl]amino]-5-[[(2S)-1-[[(2S)-1-[[(2S)-3-cyclohexyl-1-oxidanylidene-1-[[(2R)-1-oxidanylidene-1-(2-pyridin-2-ylethylamino)-3-sulfanyl-propan-2-yl]amino]propan-2-yl]amino]-5-oxidanyl-1,5-bis(oxidanylidene)pentan-2-yl]amino]-1-oxidanylidene-3,3-diphenyl-propan-2-yl]amino]-5-oxidanylidene-pentanoic acid
> <PUBCHEM_IUPAC_TRADITIONAL_NAME>
(4S)-4-[[(2S)-2-acetamido-3-carboxy-propanoyl]amino]-5-[[(1S)-1-benzhydryl-2-[[(1S)-3-carboxy-1-[[(1S)-1-(cyclohexylmethyl)-2-keto-2-[[(1R)-2-keto-1-(mercaptomethyl)-2-[2-(2-pyridyl)ethylamino]ethyl]amino]ethyl]carbamoyl]propyl]amino]-2-keto-ethyl]amino]-5-keto-valeric acid
> <PUBCHEM_IUPAC_INCHI>
InChI=1S/C50H64N8O13S/c1-30(59)53-38(28-42(64)65)49(70)54-36(21-23-41(62)63)47(68)58-44(43(32-15-7-3-8-16-32)33-17-9-4-10-18-33)50(71)55-35(20-22-40(60)61)46(67)56-37(27-31-13-5-2-6-14-31)48(69)57-39(29-72)45(66)52-26-24-34-19-11-12-25-51-34/h3-4,7-12,15-19,25,31,35-39,43-44,72H,2,5-6,13-14,20-24,26-29H2,1H3,(H,52,66)(H,53,59)(H,54,70)(H,55,71)(H,56,67)(H,57,69)(H,58,68)(H,60,61)(H,62,63)(H,64,65)/t35-,36-,37-,38-,39-,44-/m0/s1
> <PUBCHEM_IUPAC_INCHIKEY>
LLICHNYQDQVHMR-JNLIVQRCSA-N
> <PUBCHEM_XLOGP3_AA>
2.7
> <PUBCHEM_EXACT_MASS>
1016.43135530
> <PUBCHEM_MOLECULAR_FORMULA>
C50H64N8O13S
> <PUBCHEM_MOLECULAR_WEIGHT>
1017.2
> <PUBCHEM_OPENEYE_CAN_SMILES>
CC(=O)NC(CC(=O)O)C(=O)NC(CCC(=O)O)C(=O)NC(C(C1=CC=CC=C1)C2=CC=CC=C2)C(=O)NC(CCC(=O)O)C(=O)NC(CC3CCCCC3)C(=O)NC(CS)C(=O)NCCC4=CC=CC=N4
> <PUBCHEM_OPENEYE_ISO_SMILES>
CC(=O)N[C@@H](CC(=O)O)C(=O)N[C@@H](CCC(=O)O)C(=O)N[C@@H](C(C1=CC=CC=C1)C2=CC=CC=C2)C(=O)N[C@@H](CCC(=O)O)C(=O)N[C@@H](CC3CCCCC3)C(=O)N[C@@H](CS)C(=O)NCCC4=CC=CC=N4
> <PUBCHEM_CACTVS_TPSA>
330
> <PUBCHEM_MONOISOTOPIC_WEIGHT>
1016.43135530
> <PUBCHEM_TOTAL_CHARGE>
0
> <PUBCHEM_HEAVY_ATOM_COUNT>
72
> <PUBCHEM_ATOM_DEF_STEREO_COUNT>
6
> <PUBCHEM_ATOM_UDEF_STEREO_COUNT>
0
> <PUBCHEM_BOND_DEF_STEREO_COUNT>
0
> <PUBCHEM_BOND_UDEF_STEREO_COUNT>
0
> <PUBCHEM_ISOTOPIC_ATOM_COUNT>
0
> <PUBCHEM_COMPONENT_COUNT>
1
> <PUBCHEM_CACTVS_TAUTO_COUNT>
-1
> <PUBCHEM_COORDINATE_TYPE>
1
5
255
> <PUBCHEM_BONDANNOTATIONS>
30  15  6
34  16  6
33  17  5
36  18  6
46  20  6
62  21  5
22  63  8
22  70  8
42  48  8
42  50  8
43  49  8
43  51  8
48  54  8
49  55  8
50  56  8
51  57  8
54  59  8
55  60  8
56  59  8
57  60  8
63  66  8
66  69  8
69  71  8
70  71  8
$$$$
