507525
  -OEChem-10302200282D
 87 88  0     1  0  0  0  0  0999 V2000
    2.0000   -5.7500    0.0000 Cl  0  0  0  0  0  0  0  0  0  0  0  0
    4.5981   -0.2500    0.0000 S   0  0  0  0  0  0  0  0  0  0  0  0
    6.3301    4.7500    0.0000 O   0  0  0  0  0  0  0  0  0  0  0  0
    5.4641    1.2500    0.0000 O   0  0  0  0  0  0  0  0  0  0  0  0
    5.4641    0.2500    0.0000 O   0  0  0  0  0  0  0  0  0  0  0  0
    8.0622    5.7500    0.0000 O   0  0  0  0  0  0  0  0  0  0  0  0
    8.9282    4.2500    0.0000 O   0  0  0  0  0  0  0  0  0  0  0  0
    6.3301   -3.2500    0.0000 O   0  0  0  0  0  0  0  0  0  0  0  0
    5.4641    3.2500    0.0000 N   0  0  0  0  0  0  0  0  0  0  0  0
    7.1962    1.2500    0.0000 N   0  0  0  0  0  0  0  0  0  0  0  0
    6.3301   -1.2500    0.0000 N   0  0  0  0  0  0  0  0  0  0  0  0
    4.5981   -3.2500    0.0000 N   0  0  0  0  0  0  0  0  0  0  0  0
    4.5981    5.7500    0.0000 C   0  0  0  0  0  0  0  0  0  0  0  0
    3.7320    6.2500    0.0000 C   0  0  0  0  0  0  0  0  0  0  0  0
    5.4641    6.2500    0.0000 C   0  0  0  0  0  0  0  0  0  0  0  0
    3.7320    7.2500    0.0000 C   0  0  0  0  0  0  0  0  0  0  0  0
    5.4641    7.2500    0.0000 C   0  0  0  0  0  0  0  0  0  0  0  0
    4.5981    7.7500    0.0000 C   0  0  0  0  0  0  0  0  0  0  0  0
    4.5981    4.7500    0.0000 C   0  0  0  0  0  0  0  0  0  0  0  0
    5.4641    4.2500    0.0000 C   0  0  0  0  0  0  0  0  0  0  0  0
    6.3301    2.7500    0.0000 C   0  0  1  0  0  0  0  0  0  0  0  0
    7.1962    3.2500    0.0000 C   0  0  0  0  0  0  0  0  0  0  0  0
    7.1962    0.2500    0.0000 C   0  0  1  0  0  0  0  0  0  0  0  0
    6.3301    1.7500    0.0000 C   0  0  0  0  0  0  0  0  0  0  0  0
    8.0622   -0.2500    0.0000 C   0  0  0  0  0  0  0  0  0  0  0  0
    8.9282    0.2500    0.0000 C   0  0  0  0  0  0  0  0  0  0  0  0
    7.1962    4.2500    0.0000 C   0  0  0  0  0  0  0  0  0  0  0  0
    6.3301   -0.2500    0.0000 C   0  0  0  0  0  0  0  0  0  0  0  0
    9.7942   -0.2500    0.0000 C   0  0  0  0  0  0  0  0  0  0  0  0
    8.9282    1.2500    0.0000 C   0  0  0  0  0  0  0  0  0  0  0  0
    5.4641   -1.7500    0.0000 C   0  0  1  0  0  0  0  0  0  0  0  0
    8.0622    4.7500    0.0000 C   0  0  0  0  0  0  0  0  0  0  0  0
    4.5981   -1.2500    0.0000 C   0  0  0  0  0  0  0  0  0  0  0  0
    5.4641   -2.7500    0.0000 C   0  0  0  0  0  0  0  0  0  0  0  0
    4.5981   -4.2500    0.0000 C   0  0  0  0  0  0  0  0  0  0  0  0
    3.7320   -4.7500    0.0000 C   0  0  0  0  0  0  0  0  0  0  0  0
    3.7320   -5.7500    0.0000 C   0  0  0  0  0  0  0  0  0  0  0  0
    2.8660   -6.2500    0.0000 C   0  0  0  0  0  0  0  0  0  0  0  0
    4.5981   -6.2500    0.0000 C   0  0  0  0  0  0  0  0  0  0  0  0
    2.8660   -7.2500    0.0000 C   0  0  0  0  0  0  0  0  0  0  0  0
    4.5981   -7.2500    0.0000 C   0  0  0  0  0  0  0  0  0  0  0  0
    3.7320   -7.7500    0.0000 C   0  0  0  0  0  0  0  0  0  0  0  0
    5.1350    5.4400    0.0000 H   0  0  0  0  0  0  0  0  0  0  0  0
    3.1215    6.3577    0.0000 H   0  0  0  0  0  0  0  0  0  0  0  0
    3.5200    5.6674    0.0000 H   0  0  0  0  0  0  0  0  0  0  0  0
    5.6762    5.6674    0.0000 H   0  0  0  0  0  0  0  0  0  0  0  0
    6.0747    6.3577    0.0000 H   0  0  0  0  0  0  0  0  0  0  0  0
    3.5200    7.8326    0.0000 H   0  0  0  0  0  0  0  0  0  0  0  0
    3.1215    7.1423    0.0000 H   0  0  0  0  0  0  0  0  0  0  0  0
    6.0747    7.1423    0.0000 H   0  0  0  0  0  0  0  0  0  0  0  0
    5.6762    7.8326    0.0000 H   0  0  0  0  0  0  0  0  0  0  0  0
    4.9966    8.2250    0.0000 H   0  0  0  0  0  0  0  0  0  0  0  0
    4.1996    8.2250    0.0000 H   0  0  0  0  0  0  0  0  0  0  0  0
    3.9875    4.8577    0.0000 H   0  0  0  0  0  0  0  0  0  0  0  0
    4.3860    4.1674    0.0000 H   0  0  0  0  0  0  0  0  0  0  0  0
    5.7932    2.4400    0.0000 H   0  0  0  0  0  0  0  0  0  0  0  0
    4.9272    2.9400    0.0000 H   0  0  0  0  0  0  0  0  0  0  0  0
    7.4082    2.6674    0.0000 H   0  0  0  0  0  0  0  0  0  0  0  0
    7.8067    3.3577    0.0000 H   0  0  0  0  0  0  0  0  0  0  0  0
    6.6592    0.5600    0.0000 H   0  0  0  0  0  0  0  0  0  0  0  0
    7.6636   -0.7249    0.0000 H   0  0  0  0  0  0  0  0  0  0  0  0
    8.4607   -0.7249    0.0000 H   0  0  0  0  0  0  0  0  0  0  0  0
    9.4651    0.5600    0.0000 H   0  0  0  0  0  0  0  0  0  0  0  0
    7.7331    1.5600    0.0000 H   0  0  0  0  0  0  0  0  0  0  0  0
    6.9841    4.8326    0.0000 H   0  0  0  0  0  0  0  0  0  0  0  0
    6.5856    4.1423    0.0000 H   0  0  0  0  0  0  0  0  0  0  0  0
    9.4842   -0.7869    0.0000 H   0  0  0  0  0  0  0  0  0  0  0  0
   10.3312   -0.5600    0.0000 H   0  0  0  0  0  0  0  0  0  0  0  0
   10.1042    0.2869    0.0000 H   0  0  0  0  0  0  0  0  0  0  0  0
    9.5482    1.2500    0.0000 H   0  0  0  0  0  0  0  0  0  0  0  0
    8.9282    1.8700    0.0000 H   0  0  0  0  0  0  0  0  0  0  0  0
    8.3082    1.2500    0.0000 H   0  0  0  0  0  0  0  0  0  0  0  0
    6.8671   -1.5600    0.0000 H   0  0  0  0  0  0  0  0  0  0  0  0
    5.4641   -1.1300    0.0000 H   0  0  0  0  0  0  0  0  0  0  0  0
    3.9875   -1.1423    0.0000 H   0  0  0  0  0  0  0  0  0  0  0  0
    4.3860   -1.8326    0.0000 H   0  0  0  0  0  0  0  0  0  0  0  0
    4.0611   -2.9400    0.0000 H   0  0  0  0  0  0  0  0  0  0  0  0
    4.8101   -4.8326    0.0000 H   0  0  0  0  0  0  0  0  0  0  0  0
    5.2087   -4.1423    0.0000 H   0  0  0  0  0  0  0  0  0  0  0  0
    8.5991    6.0600    0.0000 H   0  0  0  0  0  0  0  0  0  0  0  0
    3.5200   -4.1674    0.0000 H   0  0  0  0  0  0  0  0  0  0  0  0
    3.1215   -4.8577    0.0000 H   0  0  0  0  0  0  0  0  0  0  0  0
    4.0611    0.0600    0.0000 H   0  0  0  0  0  0  0  0  0  0  0  0
    5.1350   -5.9400    0.0000 H   0  0  0  0  0  0  0  0  0  0  0  0
    2.3291   -7.5600    0.0000 H   0  0  0  0  0  0  0  0  0  0  0  0
    5.1350   -7.5600    0.0000 H   0  0  0  0  0  0  0  0  0  0  0  0
    3.7320   -8.3700    0.0000 H   0  0  0  0  0  0  0  0  0  0  0  0
  1 38  1  0  0  0  0
  2 33  1  0  0  0  0
  2 83  1  0  0  0  0
  3 20  2  0  0  0  0
  4 24  2  0  0  0  0
  5 28  2  0  0  0  0
  6 32  1  0  0  0  0
  6 80  1  0  0  0  0
  7 32  2  0  0  0  0
  8 34  2  0  0  0  0
  9 20  1  0  0  0  0
 21  9  1  1  0  0  0
  9 57  1  0  0  0  0
 23 10  1  1  0  0  0
 10 24  1  0  0  0  0
 10 64  1  0  0  0  0
 11 28  1  0  0  0  0
 31 11  1  6  0  0  0
 11 73  1  0  0  0  0
 12 34  1  0  0  0  0
 12 35  1  0  0  0  0
 12 77  1  0  0  0  0
 13 14  1  0  0  0  0
 13 15  1  0  0  0  0
 13 19  1  0  0  0  0
 13 43  1  0  0  0  0
 14 16  1  0  0  0  0
 14 44  1  0  0  0  0
 14 45  1  0  0  0  0
 15 17  1  0  0  0  0
 15 46  1  0  0  0  0
 15 47  1  0  0  0  0
 16 18  1  0  0  0  0
 16 48  1  0  0  0  0
 16 49  1  0  0  0  0
 17 18  1  0  0  0  0
 17 50  1  0  0  0  0
 17 51  1  0  0  0  0
 18 52  1  0  0  0  0
 18 53  1  0  0  0  0
 19 20  1  0  0  0  0
 19 54  1  0  0  0  0
 19 55  1  0  0  0  0
 21 22  1  0  0  0  0
 21 24  1  0  0  0  0
 21 56  1  0  0  0  0
 22 27  1  0  0  0  0
 22 58  1  0  0  0  0
 22 59  1  0  0  0  0
 23 25  1  0  0  0  0
 23 28  1  0  0  0  0
 23 60  1  0  0  0  0
 25 26  1  0  0  0  0
 25 61  1  0  0  0  0
 25 62  1  0  0  0  0
 26 29  1  0  0  0  0
 26 30  1  0  0  0  0
 26 63  1  0  0  0  0
 27 32  1  0  0  0  0
 27 65  1  0  0  0  0
 27 66  1  0  0  0  0
 29 67  1  0  0  0  0
 29 68  1  0  0  0  0
 29 69  1  0  0  0  0
 30 70  1  0  0  0  0
 30 71  1  0  0  0  0
 30 72  1  0  0  0  0
 31 33  1  0  0  0  0
 31 34  1  0  0  0  0
 31 74  1  0  0  0  0
 33 75  1  0  0  0  0
 33 76  1  0  0  0  0
 35 36  1  0  0  0  0
 35 78  1  0  0  0  0
 35 79  1  0  0  0  0
 36 37  1  0  0  0  0
 36 81  1  0  0  0  0
 36 82  1  0  0  0  0
 37 38  1  0  0  0  0
 37 39  2  0  0  0  0
 38 40  2  0  0  0  0
 39 41  1  0  0  0  0
 39 84  1  0  0  0  0
 40 42  1  0  0  0  0
 40 85  1  0  0  0  0
 41 42  2  0  0  0  0
 41 86  1  0  0  0  0
 42 87  1  0  0  0  0
M  END
> <PUBCHEM_COMPOUND_CID>
507525
> <PUBCHEM_COMPOUND_CANONICALIZED>
1
> <PUBCHEM_CACTVS_COMPLEXITY>
901
> <PUBCHEM_CACTVS_HBOND_ACCEPTOR>
7
> <PUBCHEM_CACTVS_HBOND_DONOR>
6
> <PUBCHEM_CACTVS_ROTATABLE_BOND>
17
> <PUBCHEM_CACTVS_SUBSKEYS>
AAADcfB7uABEAAAAAAAAAAAAAAAAAAAAAAAwYAAAAAAAAAABAAAAHgYQCAAADSrF2CSyCILAAgSIAiHSGAACAAAgBQAIiIGIAogIYDKBkzGUYAAklgCIiAe8n4KOAAAAAAABAAAAAAAAAAIAAAAAAAAAAA==
> <PUBCHEM_IUPAC_OPENEYE_NAME>
(4S)-5-[[(1S)-1-[[(1R)-2-[2-(2-chlorophenyl)ethylamino]-2-oxo-1-(sulfanylmethyl)ethyl]carbamoyl]-3-methyl-butyl]amino]-4-[(2-cyclohexylacetyl)amino]-5-oxo-pentanoic acid
> <PUBCHEM_IUPAC_CAS_NAME>
(4S)-5-[[(2S)-1-[[(2R)-1-[2-(2-chlorophenyl)ethylamino]-3-mercapto-1-oxopropan-2-yl]amino]-4-methyl-1-oxopentan-2-yl]amino]-4-[(2-cyclohexyl-1-oxoethyl)amino]-5-oxopentanoic acid
> <PUBCHEM_IUPAC_NAME_MARKUP>
(4<I>S</I>)-5-[[(2<I>S</I>)-1-[[(2<I>R</I>)-1-[2-(2-chlorophenyl)ethylamino]-1-oxo-3-sulfanylpropan-2-yl]amino]-4-methyl-1-oxopentan-2-yl]amino]-4-[(2-cyclohexylacetyl)amino]-5-oxopentanoic acid
> <PUBCHEM_IUPAC_NAME>
(4S)-5-[[(2S)-1-[[(2R)-1-[2-(2-chlorophenyl)ethylamino]-1-oxo-3-sulfanylpropan-2-yl]amino]-4-methyl-1-oxopentan-2-yl]amino]-4-[(2-cyclohexylacetyl)amino]-5-oxopentanoic acid
> <PUBCHEM_IUPAC_SYSTEMATIC_NAME>
(4S)-5-[[(2S)-1-[[(2R)-1-[2-(2-chlorophenyl)ethylamino]-1-oxidanylidene-3-sulfanyl-propan-2-yl]amino]-4-methyl-1-oxidanylidene-pentan-2-yl]amino]-4-(2-cyclohexylethanoylamino)-5-oxidanylidene-pentanoic acid
> <PUBCHEM_IUPAC_TRADITIONAL_NAME>
(4S)-5-[[(1S)-1-[[(1R)-2-[2-(2-chlorophenyl)ethylamino]-2-keto-1-(mercaptomethyl)ethyl]carbamoyl]-3-methyl-butyl]amino]-4-[(2-cyclohexylacetyl)amino]-5-keto-valeric acid
> <PUBCHEM_IUPAC_INCHI>
InChI=1S/C30H45ClN4O6S/c1-19(2)16-24(30(41)35-25(18-42)28(39)32-15-14-21-10-6-7-11-22(21)31)34-29(40)23(12-13-27(37)38)33-26(36)17-20-8-4-3-5-9-20/h6-7,10-11,19-20,23-25,42H,3-5,8-9,12-18H2,1-2H3,(H,32,39)(H,33,36)(H,34,40)(H,35,41)(H,37,38)/t23-,24-,25-/m0/s1
> <PUBCHEM_IUPAC_INCHIKEY>
AEIXGBGHIIEJPT-SDHOMARFSA-N
> <PUBCHEM_XLOGP3_AA>
4.8
> <PUBCHEM_EXACT_MASS>
624.2748340
> <PUBCHEM_MOLECULAR_FORMULA>
C30H45ClN4O6S
> <PUBCHEM_MOLECULAR_WEIGHT>
625.2
> <PUBCHEM_OPENEYE_CAN_SMILES>
CC(C)CC(C(=O)NC(CS)C(=O)NCCC1=CC=CC=C1Cl)NC(=O)C(CCC(=O)O)NC(=O)CC2CCCCC2
> <PUBCHEM_OPENEYE_ISO_SMILES>
CC(C)C[C@@H](C(=O)N[C@@H](CS)C(=O)NCCC1=CC=CC=C1Cl)NC(=O)[C@H](CCC(=O)O)NC(=O)CC2CCCCC2
> <PUBCHEM_CACTVS_TPSA>
155
> <PUBCHEM_MONOISOTOPIC_WEIGHT>
624.2748340
> <PUBCHEM_TOTAL_CHARGE>
0
> <PUBCHEM_HEAVY_ATOM_COUNT>
42
> <PUBCHEM_ATOM_DEF_STEREO_COUNT>
3
> <PUBCHEM_ATOM_UDEF_STEREO_COUNT>
0
> <PUBCHEM_BOND_DEF_STEREO_COUNT>
0
> <PUBCHEM_BOND_UDEF_STEREO_COUNT>
0
> <PUBCHEM_ISOTOPIC_ATOM_COUNT>
0
> <PUBCHEM_COMPONENT_COUNT>
1
> <PUBCHEM_CACTVS_TAUTO_COUNT>
-1
> <PUBCHEM_COORDINATE_TYPE>
1
5
255
> <PUBCHEM_BONDANNOTATIONS>
23  10  5
31  11  6
37  38  8
37  39  8
38  40  8
39  41  8
40  42  8
41  42  8
21  9  5
$$$$
