507595
  -OEChem-10302200282D
 96 97  0     1  0  0  0  0  0999 V2000
    5.4641    3.2249    0.0000 F   0  0  0  0  0  0  0  0  0  0  0  0
    3.7320    3.2249    0.0000 F   0  0  0  0  0  0  0  0  0  0  0  0
    2.0000   -2.7751    0.0000 F   0  0  0  0  0  0  0  0  0  0  0  0
    5.4641   -2.7751    0.0000 F   0  0  0  0  0  0  0  0  0  0  0  0
    9.5516    3.8409    0.0000 O   0  0  0  0  0  0  0  0  0  0  0  0
    8.4405   -0.3291    0.0000 O   0  0  0  0  0  0  0  0  0  0  0  0
    7.1962    0.2249    0.0000 O   0  0  0  0  0  0  0  0  0  0  0  0
   10.9528    4.8590    0.0000 O   0  0  0  0  0  0  0  0  0  0  0  0
   11.5016   -2.2343    0.0000 O   0  0  0  0  0  0  0  0  0  0  0  0
    6.3301   -0.2751    0.0000 O   0  0  0  0  0  0  0  0  0  0  0  0
   12.0368   -0.5870    0.0000 O   0  0  0  0  0  0  0  0  0  0  0  0
   13.3486    5.9816    0.0000 O   0  0  0  0  0  0  0  0  0  0  0  0
    2.8660   -6.2751    0.0000 O   0  0  0  0  0  0  0  0  0  0  0  0
    4.5981   -6.2751    0.0000 O   0  0  0  0  0  0  0  0  0  0  0  0
    8.9757    1.3182    0.0000 N   0  0  0  0  0  0  0  0  0  0  0  0
    6.3301    1.7249    0.0000 N   0  0  0  0  0  0  0  0  0  0  0  0
   10.3426   -0.9471    0.0000 N   0  0  0  0  0  0  0  0  0  0  0  0
    4.5981   -0.2751    0.0000 N   0  0  0  0  0  0  0  0  0  0  0  0
    8.0622    1.7249    0.0000 C   0  0  1  0  0  0  0  0  0  0  0  0
    9.1448    2.9273    0.0000 C   0  0  2  0  0  0  0  0  0  0  0  0
    8.1667    2.7194    0.0000 C   0  0  0  0  0  0  0  0  0  0  0  0
    9.6448    2.0613    0.0000 C   0  0  0  0  0  0  0  0  0  0  0  0
    9.1836    0.3400    0.0000 C   0  0  0  0  0  0  0  0  0  0  0  0
   10.1347    0.0310    0.0000 C   0  0  2  0  0  0  0  0  0  0  0  0
    7.1962    1.2249    0.0000 C   0  0  0  0  0  0  0  0  0  0  0  0
   10.8778    0.7001    0.0000 C   0  0  0  0  0  0  0  0  0  0  0  0
    5.4641    1.2249    0.0000 C   0  0  1  0  0  0  0  0  0  0  0  0
   10.5461    3.9454    0.0000 C   0  0  0  0  0  0  0  0  0  0  0  0
   11.8289    0.3911    0.0000 C   0  0  0  0  0  0  0  0  0  0  0  0
   10.6699    1.6783    0.0000 C   0  0  0  0  0  0  0  0  0  0  0  0
    4.5981    1.7249    0.0000 C   0  0  0  0  0  0  0  0  0  0  0  0
    5.4641    0.2249    0.0000 C   0  0  0  0  0  0  0  0  0  0  0  0
   11.2937   -1.2562    0.0000 C   0  0  0  0  0  0  0  0  0  0  0  0
    4.5981    2.7249    0.0000 C   0  0  0  0  0  0  0  0  0  0  0  0
   11.9474    4.9635    0.0000 C   0  0  0  0  0  0  0  0  0  0  0  0
    4.5981   -1.2751    0.0000 C   0  0  0  0  0  0  0  0  0  0  0  0
   12.4526   -2.5433    0.0000 C   0  0  0  0  0  0  0  0  0  0  0  0
   12.3541    5.8770    0.0000 C   0  0  0  0  0  0  0  0  0  0  0  0
   12.6605   -3.5215    0.0000 C   0  0  0  0  0  0  0  0  0  0  0  0
    3.7320   -1.7751    0.0000 C   0  0  0  0  0  0  0  0  0  0  0  0
    3.7320   -2.7751    0.0000 C   0  0  0  0  0  0  0  0  0  0  0  0
   13.6116   -3.8305    0.0000 C   0  0  0  0  0  0  0  0  0  0  0  0
   11.9174   -4.1906    0.0000 C   0  0  0  0  0  0  0  0  0  0  0  0
    2.8660   -3.2751    0.0000 C   0  0  0  0  0  0  0  0  0  0  0  0
    4.5981   -3.2751    0.0000 C   0  0  0  0  0  0  0  0  0  0  0  0
   13.7554    6.8951    0.0000 C   0  0  0  0  0  0  0  0  0  0  0  0
    2.8660   -4.2751    0.0000 C   0  0  0  0  0  0  0  0  0  0  0  0
    4.5981   -4.2751    0.0000 C   0  0  0  0  0  0  0  0  0  0  0  0
    3.7320   -4.7751    0.0000 C   0  0  0  0  0  0  0  0  0  0  0  0
    3.7320   -5.7751    0.0000 C   0  0  0  0  0  0  0  0  0  0  0  0
    8.0946    1.1058    0.0000 H   0  0  0  0  0  0  0  0  0  0  0  0
    8.7547    3.4092    0.0000 H   0  0  0  0  0  0  0  0  0  0  0  0
    8.1019    3.3360    0.0000 H   0  0  0  0  0  0  0  0  0  0  0  0
    7.5467    2.7194    0.0000 H   0  0  0  0  0  0  0  0  0  0  0  0
   10.0597    1.6006    0.0000 H   0  0  0  0  0  0  0  0  0  0  0  0
   10.1464    2.4257    0.0000 H   0  0  0  0  0  0  0  0  0  0  0  0
   10.7243   -0.1606    0.0000 H   0  0  0  0  0  0  0  0  0  0  0  0
   10.2882    0.8917    0.0000 H   0  0  0  0  0  0  0  0  0  0  0  0
    6.3301    2.3449    0.0000 H   0  0  0  0  0  0  0  0  0  0  0  0
    5.4641    1.8449    0.0000 H   0  0  0  0  0  0  0  0  0  0  0  0
    9.8818   -1.3620    0.0000 H   0  0  0  0  0  0  0  0  0  0  0  0
   10.5029    3.3269    0.0000 H   0  0  0  0  0  0  0  0  0  0  0  0
   11.1477    3.7954    0.0000 H   0  0  0  0  0  0  0  0  0  0  0  0
   11.6373   -0.1985    0.0000 H   0  0  0  0  0  0  0  0  0  0  0  0
   12.4185    0.1995    0.0000 H   0  0  0  0  0  0  0  0  0  0  0  0
   12.0205    0.9808    0.0000 H   0  0  0  0  0  0  0  0  0  0  0  0
   11.2764    1.8072    0.0000 H   0  0  0  0  0  0  0  0  0  0  0  0
   10.5410    2.2847    0.0000 H   0  0  0  0  0  0  0  0  0  0  0  0
   10.0635    1.5494    0.0000 H   0  0  0  0  0  0  0  0  0  0  0  0
    3.9875    1.8326    0.0000 H   0  0  0  0  0  0  0  0  0  0  0  0
    4.3860    1.1423    0.0000 H   0  0  0  0  0  0  0  0  0  0  0  0
    4.5981    3.3449    0.0000 H   0  0  0  0  0  0  0  0  0  0  0  0
    4.0611    0.0349    0.0000 H   0  0  0  0  0  0  0  0  0  0  0  0
   11.9041    4.3450    0.0000 H   0  0  0  0  0  0  0  0  0  0  0  0
   12.5490    4.8135    0.0000 H   0  0  0  0  0  0  0  0  0  0  0  0
    4.8101   -1.8577    0.0000 H   0  0  0  0  0  0  0  0  0  0  0  0
    5.2087   -1.1674    0.0000 H   0  0  0  0  0  0  0  0  0  0  0  0
   13.0723   -2.5217    0.0000 H   0  0  0  0  0  0  0  0  0  0  0  0
   12.5389   -1.9294    0.0000 H   0  0  0  0  0  0  0  0  0  0  0  0
   12.3974    6.4955    0.0000 H   0  0  0  0  0  0  0  0  0  0  0  0
   11.7525    6.0270    0.0000 H   0  0  0  0  0  0  0  0  0  0  0  0
    3.5200   -1.1925    0.0000 H   0  0  0  0  0  0  0  0  0  0  0  0
    3.1215   -1.8828    0.0000 H   0  0  0  0  0  0  0  0  0  0  0  0
   12.7894   -4.1279    0.0000 H   0  0  0  0  0  0  0  0  0  0  0  0
   13.4200   -4.4201    0.0000 H   0  0  0  0  0  0  0  0  0  0  0  0
   14.2013   -4.0221    0.0000 H   0  0  0  0  0  0  0  0  0  0  0  0
   13.8032   -3.2408    0.0000 H   0  0  0  0  0  0  0  0  0  0  0  0
   11.5025   -3.7299    0.0000 H   0  0  0  0  0  0  0  0  0  0  0  0
   11.4566   -4.6055    0.0000 H   0  0  0  0  0  0  0  0  0  0  0  0
   12.3323   -4.6514    0.0000 H   0  0  0  0  0  0  0  0  0  0  0  0
   14.3218    6.6429    0.0000 H   0  0  0  0  0  0  0  0  0  0  0  0
   14.0075    7.4615    0.0000 H   0  0  0  0  0  0  0  0  0  0  0  0
   13.1890    7.1473    0.0000 H   0  0  0  0  0  0  0  0  0  0  0  0
    2.3291   -4.5851    0.0000 H   0  0  0  0  0  0  0  0  0  0  0  0
    5.1350   -4.5851    0.0000 H   0  0  0  0  0  0  0  0  0  0  0  0
    2.8660   -6.8951    0.0000 H   0  0  0  0  0  0  0  0  0  0  0  0
  1 34  1  0  0  0  0
  2 34  1  0  0  0  0
  3 44  1  0  0  0  0
  4 45  1  0  0  0  0
 20  5  1  1  0  0  0
  5 28  1  0  0  0  0
  6 23  2  0  0  0  0
  7 25  2  0  0  0  0
  8 28  1  0  0  0  0
  8 35  1  0  0  0  0
  9 33  1  0  0  0  0
  9 37  1  0  0  0  0
 10 32  2  0  0  0  0
 11 33  2  0  0  0  0
 12 38  1  0  0  0  0
 12 46  1  0  0  0  0
 13 50  1  0  0  0  0
 13 96  1  0  0  0  0
 14 50  2  0  0  0  0
 15 19  1  0  0  0  0
 15 22  1  0  0  0  0
 15 23  1  0  0  0  0
 16 25  1  0  0  0  0
 27 16  1  6  0  0  0
 16 59  1  0  0  0  0
 24 17  1  6  0  0  0
 17 33  1  0  0  0  0
 17 61  1  0  0  0  0
 18 32  1  0  0  0  0
 18 36  1  0  0  0  0
 18 73  1  0  0  0  0
 19 21  1  0  0  0  0
 19 25  1  6  0  0  0
 19 51  1  0  0  0  0
 20 21  1  0  0  0  0
 20 22  1  0  0  0  0
 20 52  1  0  0  0  0
 21 53  1  0  0  0  0
 21 54  1  0  0  0  0
 22 55  1  0  0  0  0
 22 56  1  0  0  0  0
 23 24  1  0  0  0  0
 24 26  1  0  0  0  0
 24 57  1  0  0  0  0
 26 29  1  0  0  0  0
 26 30  1  0  0  0  0
 26 58  1  0  0  0  0
 27 31  1  0  0  0  0
 27 32  1  0  0  0  0
 27 60  1  0  0  0  0
 28 62  1  0  0  0  0
 28 63  1  0  0  0  0
 29 64  1  0  0  0  0
 29 65  1  0  0  0  0
 29 66  1  0  0  0  0
 30 67  1  0  0  0  0
 30 68  1  0  0  0  0
 30 69  1  0  0  0  0
 31 34  1  0  0  0  0
 31 70  1  0  0  0  0
 31 71  1  0  0  0  0
 34 72  1  0  0  0  0
 35 38  1  0  0  0  0
 35 74  1  0  0  0  0
 35 75  1  0  0  0  0
 36 40  1  0  0  0  0
 36 76  1  0  0  0  0
 36 77  1  0  0  0  0
 37 39  1  0  0  0  0
 37 78  1  0  0  0  0
 37 79  1  0  0  0  0
 38 80  1  0  0  0  0
 38 81  1  0  0  0  0
 39 42  1  0  0  0  0
 39 43  1  0  0  0  0
 39 84  1  0  0  0  0
 40 41  1  0  0  0  0
 40 82  1  0  0  0  0
 40 83  1  0  0  0  0
 41 44  2  0  0  0  0
 41 45  1  0  0  0  0
 42 85  1  0  0  0  0
 42 86  1  0  0  0  0
 42 87  1  0  0  0  0
 43 88  1  0  0  0  0
 43 89  1  0  0  0  0
 43 90  1  0  0  0  0
 44 47  1  0  0  0  0
 45 48  2  0  0  0  0
 46 91  1  0  0  0  0
 46 92  1  0  0  0  0
 46 93  1  0  0  0  0
 47 49  2  0  0  0  0
 47 94  1  0  0  0  0
 48 49  1  0  0  0  0
 48 95  1  0  0  0  0
 49 50  1  0  0  0  0
M  END
> <PUBCHEM_COMPOUND_CID>
507595
> <PUBCHEM_COMPOUND_CANONICALIZED>
1
> <PUBCHEM_CACTVS_COMPLEXITY>
1110
> <PUBCHEM_CACTVS_HBOND_ACCEPTOR>
14
> <PUBCHEM_CACTVS_HBOND_DONOR>
4
> <PUBCHEM_CACTVS_ROTATABLE_BOND>
21
> <PUBCHEM_CACTVS_SUBSKEYS>
AAADcfB/vcAAAAAAAAAAAAAAAAAAAWAAAAAwAAAAAAAAAAABAAAAHwAQCAAADTzhmB8yCIPABgCIAiHSGAACAAAkAAAAiIGICMkbZjKAlTG9cQAm1gGemYe6yfCOQAAAAAAAAACAAAAAAAAAAAAAAAAAAA==
> <PUBCHEM_IUPAC_OPENEYE_NAME>
4-[2-[[(2S)-4,4-difluoro-2-[[(2S,4R)-1-[(2S)-2-(isobutoxycarbonylamino)-3-methyl-butanoyl]-4-(2-methoxyethoxymethoxy)pyrrolidine-2-carbonyl]amino]butanoyl]amino]ethyl]-3,5-difluoro-benzoic acid
> <PUBCHEM_IUPAC_CAS_NAME>
4-[2-[[(2S)-4,4-difluoro-2-[[[(2S,4R)-4-(2-methoxyethoxymethoxy)-1-[(2S)-3-methyl-2-[[2-methylpropoxy(oxo)methyl]amino]-1-oxobutyl]-2-pyrrolidinyl]-oxomethyl]amino]-1-oxobutyl]amino]ethyl]-3,5-difluorobenzoic acid
> <PUBCHEM_IUPAC_NAME_MARKUP>
4-[2-[[(2<I>S</I>)-4,4-difluoro-2-[[(2<I>S</I>,4<I>R</I>)-4-(2-methoxyethoxymethoxy)-1-[(2<I>S</I>)-3-methyl-2-(2-methylpropoxycarbonylamino)butanoyl]pyrrolidine-2-carbonyl]amino]butanoyl]amino]ethyl]-3,5-difluorobenzoic acid
> <PUBCHEM_IUPAC_NAME>
4-[2-[[(2S)-4,4-difluoro-2-[[(2S,4R)-4-(2-methoxyethoxymethoxy)-1-[(2S)-3-methyl-2-(2-methylpropoxycarbonylamino)butanoyl]pyrrolidine-2-carbonyl]amino]butanoyl]amino]ethyl]-3,5-difluorobenzoic acid
> <PUBCHEM_IUPAC_SYSTEMATIC_NAME>
4-[2-[[(2S)-4,4-bis(fluoranyl)-2-[[(2S,4R)-4-(2-methoxyethoxymethoxy)-1-[(2S)-3-methyl-2-(2-methylpropoxycarbonylamino)butanoyl]pyrrolidin-2-yl]carbonylamino]butanoyl]amino]ethyl]-3,5-bis(fluoranyl)benzoic acid
> <PUBCHEM_IUPAC_TRADITIONAL_NAME>
4-[2-[[(2S)-4,4-difluoro-2-[[(2S,4R)-1-[(2S)-2-(isobutoxycarbonylamino)-3-methyl-butanoyl]-4-(2-methoxyethoxymethoxy)prolyl]amino]butanoyl]amino]ethyl]-3,5-difluoro-benzoic acid
> <PUBCHEM_IUPAC_INCHI>
InChI=1S/C32H46F4N4O10/c1-17(2)15-49-32(46)39-27(18(3)4)30(43)40-14-20(50-16-48-9-8-47-5)12-25(40)29(42)38-24(13-26(35)36)28(41)37-7-6-21-22(33)10-19(31(44)45)11-23(21)34/h10-11,17-18,20,24-27H,6-9,12-16H2,1-5H3,(H,37,41)(H,38,42)(H,39,46)(H,44,45)/t20-,24+,25+,27+/m1/s1
> <PUBCHEM_IUPAC_INCHIKEY>
KVUHBPSOBQAYGF-GIPULPQISA-N
> <PUBCHEM_XLOGP3_AA>
3.7
> <PUBCHEM_EXACT_MASS>
722.31500633
> <PUBCHEM_MOLECULAR_FORMULA>
C32H46F4N4O10
> <PUBCHEM_MOLECULAR_WEIGHT>
722.7
> <PUBCHEM_OPENEYE_CAN_SMILES>
CC(C)COC(=O)NC(C(C)C)C(=O)N1CC(CC1C(=O)NC(CC(F)F)C(=O)NCCC2=C(C=C(C=C2F)C(=O)O)F)OCOCCOC
> <PUBCHEM_OPENEYE_ISO_SMILES>
CC(C)COC(=O)N[C@@H](C(C)C)C(=O)N1C[C@@H](C[C@H]1C(=O)N[C@@H](CC(F)F)C(=O)NCCC2=C(C=C(C=C2F)C(=O)O)F)OCOCCOC
> <PUBCHEM_CACTVS_TPSA>
182
> <PUBCHEM_MONOISOTOPIC_WEIGHT>
722.31500633
> <PUBCHEM_TOTAL_CHARGE>
0
> <PUBCHEM_HEAVY_ATOM_COUNT>
50
> <PUBCHEM_ATOM_DEF_STEREO_COUNT>
4
> <PUBCHEM_ATOM_UDEF_STEREO_COUNT>
0
> <PUBCHEM_BOND_DEF_STEREO_COUNT>
0
> <PUBCHEM_BOND_UDEF_STEREO_COUNT>
0
> <PUBCHEM_ISOTOPIC_ATOM_COUNT>
0
> <PUBCHEM_COMPONENT_COUNT>
1
> <PUBCHEM_CACTVS_TAUTO_COUNT>
-1
> <PUBCHEM_COORDINATE_TYPE>
1
5
255
> <PUBCHEM_BONDANNOTATIONS>
27  16  6
24  17  6
19  25  6
41  44  8
41  45  8
44  47  8
45  48  8
47  49  8
48  49  8
20  5  5
$$$$
