507546
  -OEChem-10302200282D
 76 77  0     1  0  0  0  0  0999 V2000
    2.0000   -5.2694    0.0000 Cl  0  0  0  0  0  0  0  0  0  0  0  0
    5.4641    4.7306    0.0000 S   0  0  0  0  0  0  0  0  0  0  0  0
    4.5981    0.2306    0.0000 S   0  0  0  0  0  0  0  0  0  0  0  0
    4.6551    6.3184    0.0000 S   0  0  0  0  0  0  0  0  0  0  0  0
    5.4641    0.7306    0.0000 O   0  0  0  0  0  0  0  0  0  0  0  0
    5.4641    1.7306    0.0000 O   0  0  0  0  0  0  0  0  0  0  0  0
    4.4641    4.7306    0.0000 O   0  0  0  0  0  0  0  0  0  0  0  0
    6.4641    4.7306    0.0000 O   0  0  0  0  0  0  0  0  0  0  0  0
    6.3301   -2.7694    0.0000 O   0  0  0  0  0  0  0  0  0  0  0  0
    8.9282    4.7306    0.0000 O   0  0  0  0  0  0  0  0  0  0  0  0
    8.0622    6.2306    0.0000 O   0  0  0  0  0  0  0  0  0  0  0  0
    7.1962    1.7306    0.0000 N   0  0  0  0  0  0  0  0  0  0  0  0
    6.3301   -0.7694    0.0000 N   0  0  0  0  0  0  0  0  0  0  0  0
    5.4641    3.7306    0.0000 N   0  0  0  0  0  0  0  0  0  0  0  0
    4.5981   -2.7694    0.0000 N   0  0  0  0  0  0  0  0  0  0  0  0
    7.1962    0.7306    0.0000 C   0  0  1  0  0  0  0  0  0  0  0  0
    8.0622    0.2306    0.0000 C   0  0  0  0  0  0  0  0  0  0  0  0
    8.9282    0.7306    0.0000 C   0  0  0  0  0  0  0  0  0  0  0  0
    6.3301    3.2306    0.0000 C   0  0  2  0  0  0  0  0  0  0  0  0
    6.3301    0.2306    0.0000 C   0  0  0  0  0  0  0  0  0  0  0  0
    6.3301    2.2306    0.0000 C   0  0  0  0  0  0  0  0  0  0  0  0
    7.1962    3.7306    0.0000 C   0  0  0  0  0  0  0  0  0  0  0  0
    9.7942    0.2306    0.0000 C   0  0  0  0  0  0  0  0  0  0  0  0
    8.9282    1.7306    0.0000 C   0  0  0  0  0  0  0  0  0  0  0  0
    5.4641   -1.2694    0.0000 C   0  0  1  0  0  0  0  0  0  0  0  0
    7.1962    4.7306    0.0000 C   0  0  0  0  0  0  0  0  0  0  0  0
    4.5981   -0.7694    0.0000 C   0  0  0  0  0  0  0  0  0  0  0  0
    5.4641   -2.2694    0.0000 C   0  0  0  0  0  0  0  0  0  0  0  0
    5.4641    5.7306    0.0000 C   0  0  0  0  0  0  0  0  0  0  0  0
    8.0622    5.2306    0.0000 C   0  0  0  0  0  0  0  0  0  0  0  0
    4.5981   -3.7694    0.0000 C   0  0  0  0  0  0  0  0  0  0  0  0
    3.7320   -4.2694    0.0000 C   0  0  0  0  0  0  0  0  0  0  0  0
    6.2731    6.3184    0.0000 C   0  0  0  0  0  0  0  0  0  0  0  0
    3.7320   -5.2694    0.0000 C   0  0  0  0  0  0  0  0  0  0  0  0
    5.9641    7.2694    0.0000 C   0  0  0  0  0  0  0  0  0  0  0  0
    4.9641    7.2694    0.0000 C   0  0  0  0  0  0  0  0  0  0  0  0
    2.8660   -5.7694    0.0000 C   0  0  0  0  0  0  0  0  0  0  0  0
    4.5981   -5.7694    0.0000 C   0  0  0  0  0  0  0  0  0  0  0  0
    2.8660   -6.7694    0.0000 C   0  0  0  0  0  0  0  0  0  0  0  0
    4.5981   -6.7694    0.0000 C   0  0  0  0  0  0  0  0  0  0  0  0
    3.7320   -7.2694    0.0000 C   0  0  0  0  0  0  0  0  0  0  0  0
    6.6592    1.0406    0.0000 H   0  0  0  0  0  0  0  0  0  0  0  0
    7.6636   -0.2444    0.0000 H   0  0  0  0  0  0  0  0  0  0  0  0
    8.4607   -0.2444    0.0000 H   0  0  0  0  0  0  0  0  0  0  0  0
    9.4651    1.0406    0.0000 H   0  0  0  0  0  0  0  0  0  0  0  0
    5.7932    2.9206    0.0000 H   0  0  0  0  0  0  0  0  0  0  0  0
    7.7331    2.0406    0.0000 H   0  0  0  0  0  0  0  0  0  0  0  0
    7.4082    3.1480    0.0000 H   0  0  0  0  0  0  0  0  0  0  0  0
    7.8067    3.8382    0.0000 H   0  0  0  0  0  0  0  0  0  0  0  0
    9.4842   -0.3064    0.0000 H   0  0  0  0  0  0  0  0  0  0  0  0
   10.3312   -0.0794    0.0000 H   0  0  0  0  0  0  0  0  0  0  0  0
   10.1042    0.7675    0.0000 H   0  0  0  0  0  0  0  0  0  0  0  0
    9.5482    1.7306    0.0000 H   0  0  0  0  0  0  0  0  0  0  0  0
    8.9282    2.3506    0.0000 H   0  0  0  0  0  0  0  0  0  0  0  0
    8.3082    1.7306    0.0000 H   0  0  0  0  0  0  0  0  0  0  0  0
    6.8671   -1.0794    0.0000 H   0  0  0  0  0  0  0  0  0  0  0  0
    5.4641   -0.6494    0.0000 H   0  0  0  0  0  0  0  0  0  0  0  0
    4.9272    3.4206    0.0000 H   0  0  0  0  0  0  0  0  0  0  0  0
    6.9841    5.3132    0.0000 H   0  0  0  0  0  0  0  0  0  0  0  0
    6.5856    4.6229    0.0000 H   0  0  0  0  0  0  0  0  0  0  0  0
    3.9875   -0.6618    0.0000 H   0  0  0  0  0  0  0  0  0  0  0  0
    4.3860   -1.3520    0.0000 H   0  0  0  0  0  0  0  0  0  0  0  0
    4.0611   -2.4594    0.0000 H   0  0  0  0  0  0  0  0  0  0  0  0
    4.8101   -4.3520    0.0000 H   0  0  0  0  0  0  0  0  0  0  0  0
    5.2087   -3.6618    0.0000 H   0  0  0  0  0  0  0  0  0  0  0  0
    3.5200   -3.6868    0.0000 H   0  0  0  0  0  0  0  0  0  0  0  0
    3.1215   -4.3771    0.0000 H   0  0  0  0  0  0  0  0  0  0  0  0
    6.8628    6.1268    0.0000 H   0  0  0  0  0  0  0  0  0  0  0  0
    4.0611    0.5406    0.0000 H   0  0  0  0  0  0  0  0  0  0  0  0
    6.3285    7.7710    0.0000 H   0  0  0  0  0  0  0  0  0  0  0  0
    4.5997    7.7710    0.0000 H   0  0  0  0  0  0  0  0  0  0  0  0
    9.4651    5.0406    0.0000 H   0  0  0  0  0  0  0  0  0  0  0  0
    5.1350   -5.4594    0.0000 H   0  0  0  0  0  0  0  0  0  0  0  0
    2.3291   -7.0794    0.0000 H   0  0  0  0  0  0  0  0  0  0  0  0
    5.1350   -7.0794    0.0000 H   0  0  0  0  0  0  0  0  0  0  0  0
    3.7320   -7.8894    0.0000 H   0  0  0  0  0  0  0  0  0  0  0  0
  1 37  1  0  0  0  0
  2  7  2  0  0  0  0
  2  8  2  0  0  0  0
  2 14  1  0  0  0  0
  2 29  1  0  0  0  0
  3 27  1  0  0  0  0
  3 69  1  0  0  0  0
  4 29  1  0  0  0  0
  4 36  1  0  0  0  0
  5 20  2  0  0  0  0
  6 21  2  0  0  0  0
  9 28  2  0  0  0  0
 10 30  1  0  0  0  0
 10 72  1  0  0  0  0
 11 30  2  0  0  0  0
 16 12  1  1  0  0  0
 12 21  1  0  0  0  0
 12 47  1  0  0  0  0
 13 20  1  0  0  0  0
 25 13  1  6  0  0  0
 13 56  1  0  0  0  0
 19 14  1  1  0  0  0
 14 58  1  0  0  0  0
 15 28  1  0  0  0  0
 15 31  1  0  0  0  0
 15 63  1  0  0  0  0
 16 17  1  0  0  0  0
 16 20  1  0  0  0  0
 16 42  1  0  0  0  0
 17 18  1  0  0  0  0
 17 43  1  0  0  0  0
 17 44  1  0  0  0  0
 18 23  1  0  0  0  0
 18 24  1  0  0  0  0
 18 45  1  0  0  0  0
 19 21  1  0  0  0  0
 19 22  1  0  0  0  0
 19 46  1  0  0  0  0
 22 26  1  0  0  0  0
 22 48  1  0  0  0  0
 22 49  1  0  0  0  0
 23 50  1  0  0  0  0
 23 51  1  0  0  0  0
 23 52  1  0  0  0  0
 24 53  1  0  0  0  0
 24 54  1  0  0  0  0
 24 55  1  0  0  0  0
 25 27  1  0  0  0  0
 25 28  1  0  0  0  0
 25 57  1  0  0  0  0
 26 30  1  0  0  0  0
 26 59  1  0  0  0  0
 26 60  1  0  0  0  0
 27 61  1  0  0  0  0
 27 62  1  0  0  0  0
 29 33  2  0  0  0  0
 31 32  1  0  0  0  0
 31 64  1  0  0  0  0
 31 65  1  0  0  0  0
 32 34  1  0  0  0  0
 32 66  1  0  0  0  0
 32 67  1  0  0  0  0
 33 35  1  0  0  0  0
 33 68  1  0  0  0  0
 34 37  1  0  0  0  0
 34 38  2  0  0  0  0
 35 36  2  0  0  0  0
 35 70  1  0  0  0  0
 36 71  1  0  0  0  0
 37 39  2  0  0  0  0
 38 40  1  0  0  0  0
 38 73  1  0  0  0  0
 39 41  1  0  0  0  0
 39 74  1  0  0  0  0
 40 41  2  0  0  0  0
 40 75  1  0  0  0  0
 41 76  1  0  0  0  0
M  END
> <PUBCHEM_COMPOUND_CID>
507546
> <PUBCHEM_COMPOUND_CANONICALIZED>
1
> <PUBCHEM_CACTVS_COMPLEXITY>
996
> <PUBCHEM_CACTVS_HBOND_ACCEPTOR>
10
> <PUBCHEM_CACTVS_HBOND_DONOR>
6
> <PUBCHEM_CACTVS_ROTATABLE_BOND>
17
> <PUBCHEM_CACTVS_SUBSKEYS>
AAADcfB7uABkAAAAAAAAAAAAAAAAASAAAAAwAAAAAAAAAAABwAAAHgYQSAAADSrF2CSyCYLAAg6MAiHSGHBDAZAgDRBIiJmIAogIYDKhkzGUYAAklgCoiAe8l4IOAAAAAAABAAAAAAAAAAIAAAAAAAAAAA==
> <PUBCHEM_IUPAC_OPENEYE_NAME>
(4S)-5-[[(1S)-1-[[(1R)-2-[2-(2-chlorophenyl)ethylamino]-2-oxo-1-(sulfanylmethyl)ethyl]carbamoyl]-3-methyl-butyl]amino]-5-oxo-4-(2-thienylsulfonylamino)pentanoic acid
> <PUBCHEM_IUPAC_CAS_NAME>
(4S)-5-[[(2S)-1-[[(2R)-1-[2-(2-chlorophenyl)ethylamino]-3-mercapto-1-oxopropan-2-yl]amino]-4-methyl-1-oxopentan-2-yl]amino]-5-oxo-4-(thiophen-2-ylsulfonylamino)pentanoic acid
> <PUBCHEM_IUPAC_NAME_MARKUP>
(4<I>S</I>)-5-[[(2<I>S</I>)-1-[[(2<I>R</I>)-1-[2-(2-chlorophenyl)ethylamino]-1-oxo-3-sulfanylpropan-2-yl]amino]-4-methyl-1-oxopentan-2-yl]amino]-5-oxo-4-(thiophen-2-ylsulfonylamino)pentanoic acid
> <PUBCHEM_IUPAC_NAME>
(4S)-5-[[(2S)-1-[[(2R)-1-[2-(2-chlorophenyl)ethylamino]-1-oxo-3-sulfanylpropan-2-yl]amino]-4-methyl-1-oxopentan-2-yl]amino]-5-oxo-4-(thiophen-2-ylsulfonylamino)pentanoic acid
> <PUBCHEM_IUPAC_SYSTEMATIC_NAME>
(4S)-5-[[(2S)-1-[[(2R)-1-[2-(2-chlorophenyl)ethylamino]-1-oxidanylidene-3-sulfanyl-propan-2-yl]amino]-4-methyl-1-oxidanylidene-pentan-2-yl]amino]-5-oxidanylidene-4-(thiophen-2-ylsulfonylamino)pentanoic acid
> <PUBCHEM_IUPAC_TRADITIONAL_NAME>
(4S)-5-[[(1S)-1-[[(1R)-2-[2-(2-chlorophenyl)ethylamino]-2-keto-1-(mercaptomethyl)ethyl]carbamoyl]-3-methyl-butyl]amino]-5-keto-4-(2-thienylsulfonylamino)valeric acid
> <PUBCHEM_IUPAC_INCHI>
InChI=1S/C26H35ClN4O7S3/c1-16(2)14-20(26(36)30-21(15-39)24(34)28-12-11-17-6-3-4-7-18(17)27)29-25(35)19(9-10-22(32)33)31-41(37,38)23-8-5-13-40-23/h3-8,13,16,19-21,31,39H,9-12,14-15H2,1-2H3,(H,28,34)(H,29,35)(H,30,36)(H,32,33)/t19-,20-,21-/m0/s1
> <PUBCHEM_IUPAC_INCHIKEY>
FZMLMGSRKYBLFZ-ACRUOGEOSA-N
> <PUBCHEM_XLOGP3_AA>
3.5
> <PUBCHEM_EXACT_MASS>
646.1356407
> <PUBCHEM_MOLECULAR_FORMULA>
C26H35ClN4O7S3
> <PUBCHEM_MOLECULAR_WEIGHT>
647.2
> <PUBCHEM_OPENEYE_CAN_SMILES>
CC(C)CC(C(=O)NC(CS)C(=O)NCCC1=CC=CC=C1Cl)NC(=O)C(CCC(=O)O)NS(=O)(=O)C2=CC=CS2
> <PUBCHEM_OPENEYE_ISO_SMILES>
CC(C)C[C@@H](C(=O)N[C@@H](CS)C(=O)NCCC1=CC=CC=C1Cl)NC(=O)[C@H](CCC(=O)O)NS(=O)(=O)C2=CC=CS2
> <PUBCHEM_CACTVS_TPSA>
208
> <PUBCHEM_MONOISOTOPIC_WEIGHT>
646.1356407
> <PUBCHEM_TOTAL_CHARGE>
0
> <PUBCHEM_HEAVY_ATOM_COUNT>
41
> <PUBCHEM_ATOM_DEF_STEREO_COUNT>
3
> <PUBCHEM_ATOM_UDEF_STEREO_COUNT>
0
> <PUBCHEM_BOND_DEF_STEREO_COUNT>
0
> <PUBCHEM_BOND_UDEF_STEREO_COUNT>
0
> <PUBCHEM_ISOTOPIC_ATOM_COUNT>
0
> <PUBCHEM_COMPONENT_COUNT>
1
> <PUBCHEM_CACTVS_TAUTO_COUNT>
-1
> <PUBCHEM_COORDINATE_TYPE>
1
5
255
> <PUBCHEM_BONDANNOTATIONS>
16  12  5
25  13  6
19  14  5
29  33  8
33  35  8
34  37  8
34  38  8
35  36  8
37  39  8
38  40  8
39  41  8
4  29  8
4  36  8
40  41  8
$$$$
