507503
  -OEChem-10302200282D
 81 83  0     1  0  0  0  0  0999 V2000
   14.2619    3.0311    0.0000 Cl  0  0  0  0  0  0  0  0  0  0  0  0
   13.7619   -1.2990    0.0000 S   0  0  0  0  0  0  0  0  0  0  0  0
    4.6783    0.4943    0.0000 S   0  0  0  0  0  0  0  0  0  0  0  0
   11.2619   -2.1651    0.0000 O   0  0  0  0  0  0  0  0  0  0  0  0
    7.7619   -1.2990    0.0000 O   0  0  0  0  0  0  0  0  0  0  0  0
   12.2619    1.2990    0.0000 O   0  0  0  0  0  0  0  0  0  0  0  0
    6.7619    2.1651    0.0000 O   0  0  0  0  0  0  0  0  0  0  0  0
   10.7619    2.1651    0.0000 O   0  0  0  0  0  0  0  0  0  0  0  0
    9.2619    3.0311    0.0000 O   0  0  0  0  0  0  0  0  0  0  0  0
    9.2619   -0.4330    0.0000 N   0  0  0  0  0  0  0  0  0  0  0  0
   11.2619   -0.4330    0.0000 N   0  0  0  0  0  0  0  0  0  0  0  0
    6.7619    0.4330    0.0000 N   0  0  0  0  0  0  0  0  0  0  0  0
   13.7619    0.4330    0.0000 N   0  0  0  0  0  0  0  0  0  0  0  0
    9.7619   -1.2990    0.0000 C   0  0  1  0  0  0  0  0  0  0  0  0
    9.2619   -2.1651    0.0000 C   0  0  0  0  0  0  0  0  0  0  0  0
    9.7619   -3.0311    0.0000 C   0  0  0  0  0  0  0  0  0  0  0  0
   10.7619   -1.2990    0.0000 C   0  0  0  0  0  0  0  0  0  0  0  0
    7.7619    0.4330    0.0000 C   0  0  2  0  0  0  0  0  0  0  0  0
    9.2619   -3.8971    0.0000 C   0  0  0  0  0  0  0  0  0  0  0  0
   10.7619   -3.0311    0.0000 C   0  0  0  0  0  0  0  0  0  0  0  0
    8.2619   -0.4330    0.0000 C   0  0  0  0  0  0  0  0  0  0  0  0
    8.2619    1.2990    0.0000 C   0  0  0  0  0  0  0  0  0  0  0  0
   12.2619   -0.4330    0.0000 C   0  0  1  0  0  0  0  0  0  0  0  0
    9.2619    1.2990    0.0000 C   0  0  0  0  0  0  0  0  0  0  0  0
   12.7619   -1.2990    0.0000 C   0  0  0  0  0  0  0  0  0  0  0  0
   12.7619    0.4330    0.0000 C   0  0  0  0  0  0  0  0  0  0  0  0
    6.2619    1.2990    0.0000 C   0  0  0  0  0  0  0  0  0  0  0  0
   14.2619    1.2990    0.0000 C   0  0  0  0  0  0  0  0  0  0  0  0
    9.7619    2.1651    0.0000 C   0  0  0  0  0  0  0  0  0  0  0  0
    5.2619    1.2990    0.0000 C   0  0  0  0  0  0  0  0  0  0  0  0
   15.2619    1.2990    0.0000 C   0  0  0  0  0  0  0  0  0  0  0  0
    4.6783    2.1038    0.0000 C   0  0  0  0  0  0  0  0  0  0  0  0
    3.7320    1.7990    0.0000 C   0  0  0  0  0  0  0  0  0  0  0  0
   15.7619    2.1651    0.0000 C   0  0  0  0  0  0  0  0  0  0  0  0
    3.7320    0.7990    0.0000 C   0  0  0  0  0  0  0  0  0  0  0  0
    2.8660    2.2990    0.0000 C   0  0  0  0  0  0  0  0  0  0  0  0
    2.8660    0.2990    0.0000 C   0  0  0  0  0  0  0  0  0  0  0  0
   15.2619    3.0311    0.0000 C   0  0  0  0  0  0  0  0  0  0  0  0
   16.7619    2.1651    0.0000 C   0  0  0  0  0  0  0  0  0  0  0  0
    2.0000    1.7990    0.0000 C   0  0  0  0  0  0  0  0  0  0  0  0
    2.0000    0.7990    0.0000 C   0  0  0  0  0  0  0  0  0  0  0  0
   15.7619    3.8971    0.0000 C   0  0  0  0  0  0  0  0  0  0  0  0
   17.2619    3.0311    0.0000 C   0  0  0  0  0  0  0  0  0  0  0  0
   16.7619    3.8971    0.0000 C   0  0  0  0  0  0  0  0  0  0  0  0
    9.1419   -1.2990    0.0000 H   0  0  0  0  0  0  0  0  0  0  0  0
    8.7869   -1.7665    0.0000 H   0  0  0  0  0  0  0  0  0  0  0  0
    8.7869   -2.5636    0.0000 H   0  0  0  0  0  0  0  0  0  0  0  0
   10.0719   -2.4942    0.0000 H   0  0  0  0  0  0  0  0  0  0  0  0
    9.5719    0.1039    0.0000 H   0  0  0  0  0  0  0  0  0  0  0  0
    7.4519    0.9699    0.0000 H   0  0  0  0  0  0  0  0  0  0  0  0
    8.7249   -3.5871    0.0000 H   0  0  0  0  0  0  0  0  0  0  0  0
    8.9519   -4.4340    0.0000 H   0  0  0  0  0  0  0  0  0  0  0  0
    9.7988   -4.2071    0.0000 H   0  0  0  0  0  0  0  0  0  0  0  0
   10.7619   -3.6511    0.0000 H   0  0  0  0  0  0  0  0  0  0  0  0
   11.3819   -3.0311    0.0000 H   0  0  0  0  0  0  0  0  0  0  0  0
   10.7619   -2.4111    0.0000 H   0  0  0  0  0  0  0  0  0  0  0  0
    8.3695    1.9096    0.0000 H   0  0  0  0  0  0  0  0  0  0  0  0
    7.6793    1.5111    0.0000 H   0  0  0  0  0  0  0  0  0  0  0  0
   10.9519    0.1039    0.0000 H   0  0  0  0  0  0  0  0  0  0  0  0
   11.9519   -0.9699    0.0000 H   0  0  0  0  0  0  0  0  0  0  0  0
    6.4519   -0.1039    0.0000 H   0  0  0  0  0  0  0  0  0  0  0  0
    9.1542    0.6885    0.0000 H   0  0  0  0  0  0  0  0  0  0  0  0
    9.8445    1.0870    0.0000 H   0  0  0  0  0  0  0  0  0  0  0  0
   12.1793   -1.5111    0.0000 H   0  0  0  0  0  0  0  0  0  0  0  0
   12.8695   -1.9096    0.0000 H   0  0  0  0  0  0  0  0  0  0  0  0
   14.0719   -0.1039    0.0000 H   0  0  0  0  0  0  0  0  0  0  0  0
   14.3695    1.9096    0.0000 H   0  0  0  0  0  0  0  0  0  0  0  0
   13.6793    1.5111    0.0000 H   0  0  0  0  0  0  0  0  0  0  0  0
   15.1542    0.6885    0.0000 H   0  0  0  0  0  0  0  0  0  0  0  0
   15.8445    1.0870    0.0000 H   0  0  0  0  0  0  0  0  0  0  0  0
    4.8709    2.6931    0.0000 H   0  0  0  0  0  0  0  0  0  0  0  0
   14.0719   -1.8360    0.0000 H   0  0  0  0  0  0  0  0  0  0  0  0
    2.8660    2.9190    0.0000 H   0  0  0  0  0  0  0  0  0  0  0  0
    2.8660   -0.3210    0.0000 H   0  0  0  0  0  0  0  0  0  0  0  0
   17.0719    1.6281    0.0000 H   0  0  0  0  0  0  0  0  0  0  0  0
   11.0719    2.7020    0.0000 H   0  0  0  0  0  0  0  0  0  0  0  0
    1.4631    2.1090    0.0000 H   0  0  0  0  0  0  0  0  0  0  0  0
    1.4631    0.4890    0.0000 H   0  0  0  0  0  0  0  0  0  0  0  0
   15.4519    4.4340    0.0000 H   0  0  0  0  0  0  0  0  0  0  0  0
   17.8819    3.0311    0.0000 H   0  0  0  0  0  0  0  0  0  0  0  0
   17.0719    4.4340    0.0000 H   0  0  0  0  0  0  0  0  0  0  0  0
  1 38  1  0  0  0  0
  2 25  1  0  0  0  0
  2 72  1  0  0  0  0
  3 30  1  0  0  0  0
  3 35  1  0  0  0  0
  4 17  2  0  0  0  0
  5 21  2  0  0  0  0
  6 26  2  0  0  0  0
  7 27  2  0  0  0  0
  8 29  1  0  0  0  0
  8 76  1  0  0  0  0
  9 29  2  0  0  0  0
 14 10  1  6  0  0  0
 10 21  1  0  0  0  0
 10 49  1  0  0  0  0
 11 17  1  0  0  0  0
 23 11  1  6  0  0  0
 11 59  1  0  0  0  0
 18 12  1  1  0  0  0
 12 27  1  0  0  0  0
 12 61  1  0  0  0  0
 13 26  1  0  0  0  0
 13 28  1  0  0  0  0
 13 66  1  0  0  0  0
 14 15  1  0  0  0  0
 14 17  1  0  0  0  0
 14 45  1  0  0  0  0
 15 16  1  0  0  0  0
 15 46  1  0  0  0  0
 15 47  1  0  0  0  0
 16 19  1  0  0  0  0
 16 20  1  0  0  0  0
 16 48  1  0  0  0  0
 18 21  1  0  0  0  0
 18 22  1  0  0  0  0
 18 50  1  0  0  0  0
 19 51  1  0  0  0  0
 19 52  1  0  0  0  0
 19 53  1  0  0  0  0
 20 54  1  0  0  0  0
 20 55  1  0  0  0  0
 20 56  1  0  0  0  0
 22 24  1  0  0  0  0
 22 57  1  0  0  0  0
 22 58  1  0  0  0  0
 23 25  1  0  0  0  0
 23 26  1  0  0  0  0
 23 60  1  0  0  0  0
 24 29  1  0  0  0  0
 24 62  1  0  0  0  0
 24 63  1  0  0  0  0
 25 64  1  0  0  0  0
 25 65  1  0  0  0  0
 27 30  1  0  0  0  0
 28 31  1  0  0  0  0
 28 67  1  0  0  0  0
 28 68  1  0  0  0  0
 30 32  2  0  0  0  0
 31 34  1  0  0  0  0
 31 69  1  0  0  0  0
 31 70  1  0  0  0  0
 32 33  1  0  0  0  0
 32 71  1  0  0  0  0
 33 35  1  0  0  0  0
 33 36  2  0  0  0  0
 34 38  1  0  0  0  0
 34 39  2  0  0  0  0
 35 37  2  0  0  0  0
 36 40  1  0  0  0  0
 36 73  1  0  0  0  0
 37 41  1  0  0  0  0
 37 74  1  0  0  0  0
 38 42  2  0  0  0  0
 39 43  1  0  0  0  0
 39 75  1  0  0  0  0
 40 41  2  0  0  0  0
 40 77  1  0  0  0  0
 41 78  1  0  0  0  0
 42 44  1  0  0  0  0
 42 79  1  0  0  0  0
 43 44  2  0  0  0  0
 43 80  1  0  0  0  0
 44 81  1  0  0  0  0
M  END
> <PUBCHEM_COMPOUND_CID>
507503
> <PUBCHEM_COMPOUND_CANONICALIZED>
1
> <PUBCHEM_CACTVS_COMPLEXITY>
1000
> <PUBCHEM_CACTVS_HBOND_ACCEPTOR>
8
> <PUBCHEM_CACTVS_HBOND_DONOR>
6
> <PUBCHEM_CACTVS_ROTATABLE_BOND>
16
> <PUBCHEM_CACTVS_SUBSKEYS>
AAADcfB7uABkAAAAAAAAAAAAAAAAASAAAAAwYAAAAAAAAEgB9AAAHgYQCAAADSrF2CSyCcLAAgyMAiHSGACDAIAkDRBIiJmIBsgIYDKhlzGUYQhklgCoiYe8n4KOAAAAAAAFAAAAAAAAAAoAAAAAAAAAAA==
> <PUBCHEM_IUPAC_OPENEYE_NAME>
(4S)-4-(benzothiophene-2-carbonylamino)-5-[[(1S)-1-[[(1R)-2-[2-(2-chlorophenyl)ethylamino]-2-oxo-1-(sulfanylmethyl)ethyl]carbamoyl]-3-methyl-butyl]amino]-5-oxo-pentanoic acid
> <PUBCHEM_IUPAC_CAS_NAME>
(4S)-4-[[1-benzothiophen-2-yl(oxo)methyl]amino]-5-[[(2S)-1-[[(2R)-1-[2-(2-chlorophenyl)ethylamino]-3-mercapto-1-oxopropan-2-yl]amino]-4-methyl-1-oxopentan-2-yl]amino]-5-oxopentanoic acid
> <PUBCHEM_IUPAC_NAME_MARKUP>
(4<I>S</I>)-4-(1-benzothiophene-2-carbonylamino)-5-[[(2<I>S</I>)-1-[[(2<I>R</I>)-1-[2-(2-chlorophenyl)ethylamino]-1-oxo-3-sulfanylpropan-2-yl]amino]-4-methyl-1-oxopentan-2-yl]amino]-5-oxopentanoic acid
> <PUBCHEM_IUPAC_NAME>
(4S)-4-(1-benzothiophene-2-carbonylamino)-5-[[(2S)-1-[[(2R)-1-[2-(2-chlorophenyl)ethylamino]-1-oxo-3-sulfanylpropan-2-yl]amino]-4-methyl-1-oxopentan-2-yl]amino]-5-oxopentanoic acid
> <PUBCHEM_IUPAC_SYSTEMATIC_NAME>
(4S)-4-(1-benzothiophen-2-ylcarbonylamino)-5-[[(2S)-1-[[(2R)-1-[2-(2-chlorophenyl)ethylamino]-1-oxidanylidene-3-sulfanyl-propan-2-yl]amino]-4-methyl-1-oxidanylidene-pentan-2-yl]amino]-5-oxidanylidene-pentanoic acid
> <PUBCHEM_IUPAC_TRADITIONAL_NAME>
(4S)-4-(benzothiophene-2-carbonylamino)-5-[[(1S)-1-[[(1R)-2-[2-(2-chlorophenyl)ethylamino]-2-keto-1-(mercaptomethyl)ethyl]carbamoyl]-3-methyl-butyl]amino]-5-keto-valeric acid
> <PUBCHEM_IUPAC_INCHI>
InChI=1S/C31H37ClN4O6S2/c1-18(2)15-23(30(41)36-24(17-43)28(39)33-14-13-19-7-3-5-9-21(19)32)35-29(40)22(11-12-27(37)38)34-31(42)26-16-20-8-4-6-10-25(20)44-26/h3-10,16,18,22-24,43H,11-15,17H2,1-2H3,(H,33,39)(H,34,42)(H,35,40)(H,36,41)(H,37,38)/t22-,23-,24-/m0/s1
> <PUBCHEM_IUPAC_INCHIKEY>
KTBCPFTVJFINHM-HJOGWXRNSA-N
> <PUBCHEM_XLOGP3_AA>
5.1
> <PUBCHEM_EXACT_MASS>
660.1843050
> <PUBCHEM_MOLECULAR_FORMULA>
C31H37ClN4O6S2
> <PUBCHEM_MOLECULAR_WEIGHT>
661.2
> <PUBCHEM_OPENEYE_CAN_SMILES>
CC(C)CC(C(=O)NC(CS)C(=O)NCCC1=CC=CC=C1Cl)NC(=O)C(CCC(=O)O)NC(=O)C2=CC3=CC=CC=C3S2
> <PUBCHEM_OPENEYE_ISO_SMILES>
CC(C)C[C@@H](C(=O)N[C@@H](CS)C(=O)NCCC1=CC=CC=C1Cl)NC(=O)[C@H](CCC(=O)O)NC(=O)C2=CC3=CC=CC=C3S2
> <PUBCHEM_CACTVS_TPSA>
183
> <PUBCHEM_MONOISOTOPIC_WEIGHT>
660.1843050
> <PUBCHEM_TOTAL_CHARGE>
0
> <PUBCHEM_HEAVY_ATOM_COUNT>
44
> <PUBCHEM_ATOM_DEF_STEREO_COUNT>
3
> <PUBCHEM_ATOM_UDEF_STEREO_COUNT>
0
> <PUBCHEM_BOND_DEF_STEREO_COUNT>
0
> <PUBCHEM_BOND_UDEF_STEREO_COUNT>
0
> <PUBCHEM_ISOTOPIC_ATOM_COUNT>
0
> <PUBCHEM_COMPONENT_COUNT>
1
> <PUBCHEM_CACTVS_TAUTO_COUNT>
-1
> <PUBCHEM_COORDINATE_TYPE>
1
5
255
> <PUBCHEM_BONDANNOTATIONS>
14  10  6
23  11  6
18  12  5
3  30  8
3  35  8
30  32  8
32  33  8
33  35  8
33  36  8
34  38  8
34  39  8
35  37  8
36  40  8
37  41  8
38  42  8
39  43  8
40  41  8
42  44  8
43  44  8
$$$$
