507538
  -OEChem-10302200282D
 83 83  0     1  0  0  0  0  0999 V2000
    2.0000   -6.0600    0.0000 Cl  0  0  0  0  0  0  0  0  0  0  0  0
    4.5981   -0.5600    0.0000 S   0  0  0  0  0  0  0  0  0  0  0  0
    5.4641   -0.0600    0.0000 O   0  0  0  0  0  0  0  0  0  0  0  0
    5.4641    0.9400    0.0000 O   0  0  0  0  0  0  0  0  0  0  0  0
    6.3301    4.4400    0.0000 O   0  0  0  0  0  0  0  0  0  0  0  0
    6.3301   -3.5600    0.0000 O   0  0  0  0  0  0  0  0  0  0  0  0
    8.0622    5.4400    0.0000 O   0  0  0  0  0  0  0  0  0  0  0  0
    8.9282    3.9400    0.0000 O   0  0  0  0  0  0  0  0  0  0  0  0
    2.8660    7.4400    0.0000 O   0  0  0  0  0  0  0  0  0  0  0  0
    4.5981    7.4400    0.0000 O   0  0  0  0  0  0  0  0  0  0  0  0
    7.1962    0.9400    0.0000 N   0  0  0  0  0  0  0  0  0  0  0  0
    5.4641    2.9400    0.0000 N   0  0  0  0  0  0  0  0  0  0  0  0
    6.3301   -1.5600    0.0000 N   0  0  0  0  0  0  0  0  0  0  0  0
    4.5981   -3.5600    0.0000 N   0  0  0  0  0  0  0  0  0  0  0  0
    7.1962   -0.0600    0.0000 C   0  0  1  0  0  0  0  0  0  0  0  0
    8.0622   -0.5600    0.0000 C   0  0  0  0  0  0  0  0  0  0  0  0
    8.9282   -0.0600    0.0000 C   0  0  0  0  0  0  0  0  0  0  0  0
    6.3301    2.4400    0.0000 C   0  0  2  0  0  0  0  0  0  0  0  0
    6.3301   -0.5600    0.0000 C   0  0  0  0  0  0  0  0  0  0  0  0
    6.3301    1.4400    0.0000 C   0  0  0  0  0  0  0  0  0  0  0  0
    7.1962    2.9400    0.0000 C   0  0  0  0  0  0  0  0  0  0  0  0
    9.7942   -0.5600    0.0000 C   0  0  0  0  0  0  0  0  0  0  0  0
    8.9282    0.9400    0.0000 C   0  0  0  0  0  0  0  0  0  0  0  0
    4.5981    5.4400    0.0000 C   0  0  3  0  0  0  0  0  0  0  0  0
    4.5981    4.4400    0.0000 C   0  0  0  0  0  0  0  0  0  0  0  0
    5.4641   -2.0600    0.0000 C   0  0  1  0  0  0  0  0  0  0  0  0
    5.4641    3.9400    0.0000 C   0  0  0  0  0  0  0  0  0  0  0  0
    7.1962    3.9400    0.0000 C   0  0  0  0  0  0  0  0  0  0  0  0
    3.7320    5.9400    0.0000 C   0  0  0  0  0  0  0  0  0  0  0  0
    5.4641    5.9400    0.0000 C   0  0  0  0  0  0  0  0  0  0  0  0
    4.5981   -1.5600    0.0000 C   0  0  0  0  0  0  0  0  0  0  0  0
    5.4641   -3.0600    0.0000 C   0  0  0  0  0  0  0  0  0  0  0  0
    8.0622    4.4400    0.0000 C   0  0  0  0  0  0  0  0  0  0  0  0
    4.5981   -4.5600    0.0000 C   0  0  0  0  0  0  0  0  0  0  0  0
    3.7320    6.9400    0.0000 C   0  0  0  0  0  0  0  0  0  0  0  0
    3.7320   -5.0600    0.0000 C   0  0  0  0  0  0  0  0  0  0  0  0
    3.7320   -6.0600    0.0000 C   0  0  0  0  0  0  0  0  0  0  0  0
    2.8660   -6.5600    0.0000 C   0  0  0  0  0  0  0  0  0  0  0  0
    4.5981   -6.5600    0.0000 C   0  0  0  0  0  0  0  0  0  0  0  0
    2.8660   -7.5600    0.0000 C   0  0  0  0  0  0  0  0  0  0  0  0
    4.5981   -7.5600    0.0000 C   0  0  0  0  0  0  0  0  0  0  0  0
    3.7320   -8.0600    0.0000 C   0  0  0  0  0  0  0  0  0  0  0  0
    6.6592    0.2500    0.0000 H   0  0  0  0  0  0  0  0  0  0  0  0
    7.6636   -1.0350    0.0000 H   0  0  0  0  0  0  0  0  0  0  0  0
    8.4607   -1.0350    0.0000 H   0  0  0  0  0  0  0  0  0  0  0  0
    9.4651    0.2500    0.0000 H   0  0  0  0  0  0  0  0  0  0  0  0
    5.7932    2.1300    0.0000 H   0  0  0  0  0  0  0  0  0  0  0  0
    7.7331    1.2500    0.0000 H   0  0  0  0  0  0  0  0  0  0  0  0
    7.4082    2.3574    0.0000 H   0  0  0  0  0  0  0  0  0  0  0  0
    7.8067    3.0477    0.0000 H   0  0  0  0  0  0  0  0  0  0  0  0
    9.4842   -1.0969    0.0000 H   0  0  0  0  0  0  0  0  0  0  0  0
   10.3312   -0.8700    0.0000 H   0  0  0  0  0  0  0  0  0  0  0  0
   10.1042   -0.0231    0.0000 H   0  0  0  0  0  0  0  0  0  0  0  0
    9.5482    0.9400    0.0000 H   0  0  0  0  0  0  0  0  0  0  0  0
    8.9282    1.5600    0.0000 H   0  0  0  0  0  0  0  0  0  0  0  0
    8.3082    0.9400    0.0000 H   0  0  0  0  0  0  0  0  0  0  0  0
    4.5981    6.0600    0.0000 H   0  0  0  0  0  0  0  0  0  0  0  0
    4.9272    2.6300    0.0000 H   0  0  0  0  0  0  0  0  0  0  0  0
    3.9875    4.5477    0.0000 H   0  0  0  0  0  0  0  0  0  0  0  0
    4.3860    3.8574    0.0000 H   0  0  0  0  0  0  0  0  0  0  0  0
    6.8671   -1.8700    0.0000 H   0  0  0  0  0  0  0  0  0  0  0  0
    5.4641   -1.4400    0.0000 H   0  0  0  0  0  0  0  0  0  0  0  0
    6.9841    4.5226    0.0000 H   0  0  0  0  0  0  0  0  0  0  0  0
    6.5856    3.8323    0.0000 H   0  0  0  0  0  0  0  0  0  0  0  0
    3.1215    6.0477    0.0000 H   0  0  0  0  0  0  0  0  0  0  0  0
    3.5200    5.3574    0.0000 H   0  0  0  0  0  0  0  0  0  0  0  0
    5.7741    5.4031    0.0000 H   0  0  0  0  0  0  0  0  0  0  0  0
    6.0010    6.2500    0.0000 H   0  0  0  0  0  0  0  0  0  0  0  0
    5.1541    6.4769    0.0000 H   0  0  0  0  0  0  0  0  0  0  0  0
    3.9875   -1.4523    0.0000 H   0  0  0  0  0  0  0  0  0  0  0  0
    4.3860   -2.1426    0.0000 H   0  0  0  0  0  0  0  0  0  0  0  0
    4.0611   -3.2500    0.0000 H   0  0  0  0  0  0  0  0  0  0  0  0
    4.8101   -5.1426    0.0000 H   0  0  0  0  0  0  0  0  0  0  0  0
    5.2087   -4.4523    0.0000 H   0  0  0  0  0  0  0  0  0  0  0  0
    3.5200   -4.4774    0.0000 H   0  0  0  0  0  0  0  0  0  0  0  0
    3.1215   -5.1677    0.0000 H   0  0  0  0  0  0  0  0  0  0  0  0
    4.0611   -0.2500    0.0000 H   0  0  0  0  0  0  0  0  0  0  0  0
    8.5991    5.7500    0.0000 H   0  0  0  0  0  0  0  0  0  0  0  0
    2.8660    8.0600    0.0000 H   0  0  0  0  0  0  0  0  0  0  0  0
    5.1350   -6.2500    0.0000 H   0  0  0  0  0  0  0  0  0  0  0  0
    2.3291   -7.8700    0.0000 H   0  0  0  0  0  0  0  0  0  0  0  0
    5.1350   -7.8700    0.0000 H   0  0  0  0  0  0  0  0  0  0  0  0
    3.7320   -8.6800    0.0000 H   0  0  0  0  0  0  0  0  0  0  0  0
  1 38  1  0  0  0  0
  2 31  1  0  0  0  0
  2 77  1  0  0  0  0
  3 19  2  0  0  0  0
  4 20  2  0  0  0  0
  5 27  2  0  0  0  0
  6 32  2  0  0  0  0
  7 33  1  0  0  0  0
  7 78  1  0  0  0  0
  8 33  2  0  0  0  0
  9 35  1  0  0  0  0
  9 79  1  0  0  0  0
 10 35  2  0  0  0  0
 15 11  1  1  0  0  0
 11 20  1  0  0  0  0
 11 48  1  0  0  0  0
 18 12  1  1  0  0  0
 12 27  1  0  0  0  0
 12 58  1  0  0  0  0
 13 19  1  0  0  0  0
 26 13  1  6  0  0  0
 13 61  1  0  0  0  0
 14 32  1  0  0  0  0
 14 34  1  0  0  0  0
 14 72  1  0  0  0  0
 15 16  1  0  0  0  0
 15 19  1  0  0  0  0
 15 43  1  0  0  0  0
 16 17  1  0  0  0  0
 16 44  1  0  0  0  0
 16 45  1  0  0  0  0
 17 22  1  0  0  0  0
 17 23  1  0  0  0  0
 17 46  1  0  0  0  0
 18 20  1  0  0  0  0
 18 21  1  0  0  0  0
 18 47  1  0  0  0  0
 21 28  1  0  0  0  0
 21 49  1  0  0  0  0
 21 50  1  0  0  0  0
 22 51  1  0  0  0  0
 22 52  1  0  0  0  0
 22 53  1  0  0  0  0
 23 54  1  0  0  0  0
 23 55  1  0  0  0  0
 23 56  1  0  0  0  0
 24 25  1  0  0  0  0
 24 29  1  0  0  0  0
 24 30  1  0  0  0  0
 24 57  1  0  0  0  0
 25 27  1  0  0  0  0
 25 59  1  0  0  0  0
 25 60  1  0  0  0  0
 26 31  1  0  0  0  0
 26 32  1  0  0  0  0
 26 62  1  0  0  0  0
 28 33  1  0  0  0  0
 28 63  1  0  0  0  0
 28 64  1  0  0  0  0
 29 35  1  0  0  0  0
 29 65  1  0  0  0  0
 29 66  1  0  0  0  0
 30 67  1  0  0  0  0
 30 68  1  0  0  0  0
 30 69  1  0  0  0  0
 31 70  1  0  0  0  0
 31 71  1  0  0  0  0
 34 36  1  0  0  0  0
 34 73  1  0  0  0  0
 34 74  1  0  0  0  0
 36 37  1  0  0  0  0
 36 75  1  0  0  0  0
 36 76  1  0  0  0  0
 37 38  1  0  0  0  0
 37 39  2  0  0  0  0
 38 40  2  0  0  0  0
 39 41  1  0  0  0  0
 39 80  1  0  0  0  0
 40 42  1  0  0  0  0
 40 81  1  0  0  0  0
 41 42  2  0  0  0  0
 41 82  1  0  0  0  0
 42 83  1  0  0  0  0
M  END
> <PUBCHEM_COMPOUND_CID>
507538
> <PUBCHEM_COMPOUND_CANONICALIZED>
1
> <PUBCHEM_CACTVS_COMPLEXITY>
938
> <PUBCHEM_CACTVS_HBOND_ACCEPTOR>
9
> <PUBCHEM_CACTVS_HBOND_DONOR>
7
> <PUBCHEM_CACTVS_ROTATABLE_BOND>
19
> <PUBCHEM_CACTVS_SUBSKEYS>
AAADcfB7vABEAAAAAAAAAAAAAAAAAAAAAAAwAAAAAAAAAAABAAAAHgYQCAAADSrF2CSyCILAAgSIAiHSGAACAAAgBQAIiIGIAogIYDKBkzGUYAAklgCIiAe8l4IOAAAAAAABAAAAAAAAAAIAAAAAAAAAAA==
> <PUBCHEM_IUPAC_OPENEYE_NAME>
5-[[(1S)-3-carboxy-1-[[(1S)-1-[[(1R)-2-[2-(2-chlorophenyl)ethylamino]-2-oxo-1-(sulfanylmethyl)ethyl]carbamoyl]-3-methyl-butyl]carbamoyl]propyl]amino]-3-methyl-5-oxo-pentanoic acid
> <PUBCHEM_IUPAC_CAS_NAME>
5-[[(2S)-4-carboxy-1-[[(2S)-1-[[(2R)-1-[2-(2-chlorophenyl)ethylamino]-3-mercapto-1-oxopropan-2-yl]amino]-4-methyl-1-oxopentan-2-yl]amino]-1-oxobutan-2-yl]amino]-3-methyl-5-oxopentanoic acid
> <PUBCHEM_IUPAC_NAME_MARKUP>
5-[[(2<I>S</I>)-4-carboxy-1-[[(2<I>S</I>)-1-[[(2<I>R</I>)-1-[2-(2-chlorophenyl)ethylamino]-1-oxo-3-sulfanylpropan-2-yl]amino]-4-methyl-1-oxopentan-2-yl]amino]-1-oxobutan-2-yl]amino]-3-methyl-5-oxopentanoic acid
> <PUBCHEM_IUPAC_NAME>
5-[[(2S)-4-carboxy-1-[[(2S)-1-[[(2R)-1-[2-(2-chlorophenyl)ethylamino]-1-oxo-3-sulfanylpropan-2-yl]amino]-4-methyl-1-oxopentan-2-yl]amino]-1-oxobutan-2-yl]amino]-3-methyl-5-oxopentanoic acid
> <PUBCHEM_IUPAC_SYSTEMATIC_NAME>
5-[[(2S)-1-[[(2S)-1-[[(2R)-1-[2-(2-chlorophenyl)ethylamino]-1-oxidanylidene-3-sulfanyl-propan-2-yl]amino]-4-methyl-1-oxidanylidene-pentan-2-yl]amino]-5-oxidanyl-1,5-bis(oxidanylidene)pentan-2-yl]amino]-3-methyl-5-oxidanylidene-pentanoic acid
> <PUBCHEM_IUPAC_TRADITIONAL_NAME>
5-[[(1S)-3-carboxy-1-[[(1S)-1-[[(1R)-2-[2-(2-chlorophenyl)ethylamino]-2-keto-1-(mercaptomethyl)ethyl]carbamoyl]-3-methyl-butyl]carbamoyl]propyl]amino]-5-keto-3-methyl-valeric acid
> <PUBCHEM_IUPAC_INCHI>
InChI=1S/C28H41ClN4O8S/c1-16(2)12-21(28(41)33-22(15-42)26(39)30-11-10-18-6-4-5-7-19(18)29)32-27(40)20(8-9-24(35)36)31-23(34)13-17(3)14-25(37)38/h4-7,16-17,20-22,42H,8-15H2,1-3H3,(H,30,39)(H,31,34)(H,32,40)(H,33,41)(H,35,36)(H,37,38)/t17?,20-,21-,22-/m0/s1
> <PUBCHEM_IUPAC_INCHIKEY>
XMMVNNIPZKYWTK-LOOWFBELSA-N
> <PUBCHEM_XLOGP3_AA>
2.3
> <PUBCHEM_EXACT_MASS>
628.2333631
> <PUBCHEM_MOLECULAR_FORMULA>
C28H41ClN4O8S
> <PUBCHEM_MOLECULAR_WEIGHT>
629.2
> <PUBCHEM_OPENEYE_CAN_SMILES>
CC(C)CC(C(=O)NC(CS)C(=O)NCCC1=CC=CC=C1Cl)NC(=O)C(CCC(=O)O)NC(=O)CC(C)CC(=O)O
> <PUBCHEM_OPENEYE_ISO_SMILES>
CC(C)C[C@@H](C(=O)N[C@@H](CS)C(=O)NCCC1=CC=CC=C1Cl)NC(=O)[C@H](CCC(=O)O)NC(=O)CC(C)CC(=O)O
> <PUBCHEM_CACTVS_TPSA>
192
> <PUBCHEM_MONOISOTOPIC_WEIGHT>
628.2333631
> <PUBCHEM_TOTAL_CHARGE>
0
> <PUBCHEM_HEAVY_ATOM_COUNT>
42
> <PUBCHEM_ATOM_DEF_STEREO_COUNT>
3
> <PUBCHEM_ATOM_UDEF_STEREO_COUNT>
1
> <PUBCHEM_BOND_DEF_STEREO_COUNT>
0
> <PUBCHEM_BOND_UDEF_STEREO_COUNT>
0
> <PUBCHEM_ISOTOPIC_ATOM_COUNT>
0
> <PUBCHEM_COMPONENT_COUNT>
1
> <PUBCHEM_CACTVS_TAUTO_COUNT>
-1
> <PUBCHEM_COORDINATE_TYPE>
1
5
255
> <PUBCHEM_BONDANNOTATIONS>
15  11  5
18  12  5
26  13  6
24  30  3
37  38  8
37  39  8
38  40  8
39  41  8
40  42  8
41  42  8
$$$$
