507575
  -OEChem-10302200282D
 81 81  0     1  0  0  0  0  0999 V2000
    2.0000   -5.5000    0.0000 Cl  0  0  0  0  0  0  0  0  0  0  0  0
    4.5981    0.0000    0.0000 S   0  0  0  0  0  0  0  0  0  0  0  0
    5.4641    0.5000    0.0000 O   0  0  0  0  0  0  0  0  0  0  0  0
    8.9282    1.5000    0.0000 O   0  0  0  0  0  0  0  0  0  0  0  0
    9.7942    5.0000    0.0000 O   0  0  0  0  0  0  0  0  0  0  0  0
    6.3301   -3.0000    0.0000 O   0  0  0  0  0  0  0  0  0  0  0  0
    6.3301    6.0000    0.0000 O   0  0  0  0  0  0  0  0  0  0  0  0
    8.0622    5.0000    0.0000 O   0  0  0  0  0  0  0  0  0  0  0  0
    5.4641    4.5000    0.0000 O   0  0  0  0  0  0  0  0  0  0  0  0
    7.1962    1.5000    0.0000 N   0  0  0  0  0  0  0  0  0  0  0  0
    6.3301   -1.0000    0.0000 N   0  0  0  0  0  0  0  0  0  0  0  0
    8.9282    3.5000    0.0000 N   0  0  0  0  0  0  0  0  0  0  0  0
    4.5981   -3.0000    0.0000 N   0  0  0  0  0  0  0  0  0  0  0  0
    7.1962    0.5000    0.0000 C   0  0  1  0  0  0  0  0  0  0  0  0
    8.0622    0.0000    0.0000 C   0  0  0  0  0  0  0  0  0  0  0  0
    8.9282    0.5000    0.0000 C   0  0  0  0  0  0  0  0  0  0  0  0
    8.0622    3.0000    0.0000 C   0  0  2  0  0  0  0  0  0  0  0  0
    6.3301    0.0000    0.0000 C   0  0  0  0  0  0  0  0  0  0  0  0
    9.7942    0.0000    0.0000 C   0  0  0  0  0  0  0  0  0  0  0  0
    8.0622    2.0000    0.0000 C   0  0  0  0  0  0  0  0  0  0  0  0
    7.1962    3.5000    0.0000 C   0  0  0  0  0  0  0  0  0  0  0  0
    5.4641   -1.5000    0.0000 C   0  0  1  0  0  0  0  0  0  0  0  0
    7.1962    4.5000    0.0000 C   0  0  0  0  0  0  0  0  0  0  0  0
   10.6603    0.5000    0.0000 C   0  0  0  0  0  0  0  0  0  0  0  0
    4.5981   -1.0000    0.0000 C   0  0  0  0  0  0  0  0  0  0  0  0
    5.4641   -2.5000    0.0000 C   0  0  0  0  0  0  0  0  0  0  0  0
    8.9282    4.5000    0.0000 C   0  0  0  0  0  0  0  0  0  0  0  0
    4.5981   -4.0000    0.0000 C   0  0  0  0  0  0  0  0  0  0  0  0
   10.6603    6.5000    0.0000 C   0  0  0  0  0  0  0  0  0  0  0  0
    6.3301    5.0000    0.0000 C   0  0  0  0  0  0  0  0  0  0  0  0
    3.7320   -4.5000    0.0000 C   0  0  0  0  0  0  0  0  0  0  0  0
    9.7942    6.0000    0.0000 C   0  0  0  0  0  0  0  0  0  0  0  0
    3.7320   -5.5000    0.0000 C   0  0  0  0  0  0  0  0  0  0  0  0
   10.6603    7.5000    0.0000 C   0  0  0  0  0  0  0  0  0  0  0  0
   11.5263    6.0000    0.0000 C   0  0  0  0  0  0  0  0  0  0  0  0
    2.8660   -6.0000    0.0000 C   0  0  0  0  0  0  0  0  0  0  0  0
    4.5981   -6.0000    0.0000 C   0  0  0  0  0  0  0  0  0  0  0  0
    2.8660   -7.0000    0.0000 C   0  0  0  0  0  0  0  0  0  0  0  0
    4.5981   -7.0000    0.0000 C   0  0  0  0  0  0  0  0  0  0  0  0
    3.7320   -7.5000    0.0000 C   0  0  0  0  0  0  0  0  0  0  0  0
    6.6592    0.8100    0.0000 H   0  0  0  0  0  0  0  0  0  0  0  0
    7.6636   -0.4749    0.0000 H   0  0  0  0  0  0  0  0  0  0  0  0
    8.4607   -0.4749    0.0000 H   0  0  0  0  0  0  0  0  0  0  0  0
    9.3267    0.9749    0.0000 H   0  0  0  0  0  0  0  0  0  0  0  0
    8.5297    0.9749    0.0000 H   0  0  0  0  0  0  0  0  0  0  0  0
    8.0622    3.6200    0.0000 H   0  0  0  0  0  0  0  0  0  0  0  0
    6.6592    1.8100    0.0000 H   0  0  0  0  0  0  0  0  0  0  0  0
    9.3957   -0.4749    0.0000 H   0  0  0  0  0  0  0  0  0  0  0  0
   10.1928   -0.4749    0.0000 H   0  0  0  0  0  0  0  0  0  0  0  0
    6.5856    3.6077    0.0000 H   0  0  0  0  0  0  0  0  0  0  0  0
    6.9841    2.9174    0.0000 H   0  0  0  0  0  0  0  0  0  0  0  0
    5.4641   -0.8800    0.0000 H   0  0  0  0  0  0  0  0  0  0  0  0
    6.8671   -1.3100    0.0000 H   0  0  0  0  0  0  0  0  0  0  0  0
    7.8067    4.3923    0.0000 H   0  0  0  0  0  0  0  0  0  0  0  0
    7.4082    5.0826    0.0000 H   0  0  0  0  0  0  0  0  0  0  0  0
    9.4651    3.1900    0.0000 H   0  0  0  0  0  0  0  0  0  0  0  0
   10.9703   -0.0369    0.0000 H   0  0  0  0  0  0  0  0  0  0  0  0
   11.1972    0.8100    0.0000 H   0  0  0  0  0  0  0  0  0  0  0  0
   10.3503    1.0369    0.0000 H   0  0  0  0  0  0  0  0  0  0  0  0
    3.9875   -0.8923    0.0000 H   0  0  0  0  0  0  0  0  0  0  0  0
    4.3860   -1.5826    0.0000 H   0  0  0  0  0  0  0  0  0  0  0  0
    4.0611   -2.6900    0.0000 H   0  0  0  0  0  0  0  0  0  0  0  0
    4.8101   -4.5826    0.0000 H   0  0  0  0  0  0  0  0  0  0  0  0
    5.2087   -3.8923    0.0000 H   0  0  0  0  0  0  0  0  0  0  0  0
   11.1972    6.8100    0.0000 H   0  0  0  0  0  0  0  0  0  0  0  0
    3.5200   -3.9174    0.0000 H   0  0  0  0  0  0  0  0  0  0  0  0
    3.1215   -4.6077    0.0000 H   0  0  0  0  0  0  0  0  0  0  0  0
    9.5822    6.5826    0.0000 H   0  0  0  0  0  0  0  0  0  0  0  0
    9.1836    5.8923    0.0000 H   0  0  0  0  0  0  0  0  0  0  0  0
    4.0611    0.3100    0.0000 H   0  0  0  0  0  0  0  0  0  0  0  0
   11.2803    7.5000    0.0000 H   0  0  0  0  0  0  0  0  0  0  0  0
   10.6603    8.1200    0.0000 H   0  0  0  0  0  0  0  0  0  0  0  0
   10.0403    7.5000    0.0000 H   0  0  0  0  0  0  0  0  0  0  0  0
   11.2163    5.4631    0.0000 H   0  0  0  0  0  0  0  0  0  0  0  0
   12.0632    5.6900    0.0000 H   0  0  0  0  0  0  0  0  0  0  0  0
   11.8363    6.5369    0.0000 H   0  0  0  0  0  0  0  0  0  0  0  0
    5.1350   -5.6900    0.0000 H   0  0  0  0  0  0  0  0  0  0  0  0
    5.7932    6.3100    0.0000 H   0  0  0  0  0  0  0  0  0  0  0  0
    2.3291   -7.3100    0.0000 H   0  0  0  0  0  0  0  0  0  0  0  0
    5.1350   -7.3100    0.0000 H   0  0  0  0  0  0  0  0  0  0  0  0
    3.7320   -8.1200    0.0000 H   0  0  0  0  0  0  0  0  0  0  0  0
  1 36  1  0  0  0  0
  2 25  1  0  0  0  0
  2 70  1  0  0  0  0
  3 18  2  0  0  0  0
  4 20  2  0  0  0  0
  5 27  1  0  0  0  0
  5 32  1  0  0  0  0
  6 26  2  0  0  0  0
  7 30  1  0  0  0  0
  7 78  1  0  0  0  0
  8 27  2  0  0  0  0
  9 30  2  0  0  0  0
 14 10  1  1  0  0  0
 10 20  1  0  0  0  0
 10 47  1  0  0  0  0
 11 18  1  0  0  0  0
 22 11  1  6  0  0  0
 11 53  1  0  0  0  0
 17 12  1  6  0  0  0
 12 27  1  0  0  0  0
 12 56  1  0  0  0  0
 13 26  1  0  0  0  0
 13 28  1  0  0  0  0
 13 62  1  0  0  0  0
 14 15  1  0  0  0  0
 14 18  1  0  0  0  0
 14 41  1  0  0  0  0
 15 16  1  0  0  0  0
 15 42  1  0  0  0  0
 15 43  1  0  0  0  0
 16 19  1  0  0  0  0
 16 44  1  0  0  0  0
 16 45  1  0  0  0  0
 17 20  1  0  0  0  0
 17 21  1  0  0  0  0
 17 46  1  0  0  0  0
 19 24  1  0  0  0  0
 19 48  1  0  0  0  0
 19 49  1  0  0  0  0
 21 23  1  0  0  0  0
 21 50  1  0  0  0  0
 21 51  1  0  0  0  0
 22 25  1  0  0  0  0
 22 26  1  0  0  0  0
 22 52  1  0  0  0  0
 23 30  1  0  0  0  0
 23 54  1  0  0  0  0
 23 55  1  0  0  0  0
 24 57  1  0  0  0  0
 24 58  1  0  0  0  0
 24 59  1  0  0  0  0
 25 60  1  0  0  0  0
 25 61  1  0  0  0  0
 28 31  1  0  0  0  0
 28 63  1  0  0  0  0
 28 64  1  0  0  0  0
 29 32  1  0  0  0  0
 29 34  1  0  0  0  0
 29 35  1  0  0  0  0
 29 65  1  0  0  0  0
 31 33  1  0  0  0  0
 31 66  1  0  0  0  0
 31 67  1  0  0  0  0
 32 68  1  0  0  0  0
 32 69  1  0  0  0  0
 33 36  1  0  0  0  0
 33 37  2  0  0  0  0
 34 71  1  0  0  0  0
 34 72  1  0  0  0  0
 34 73  1  0  0  0  0
 35 74  1  0  0  0  0
 35 75  1  0  0  0  0
 35 76  1  0  0  0  0
 36 38  2  0  0  0  0
 37 39  1  0  0  0  0
 37 77  1  0  0  0  0
 38 40  1  0  0  0  0
 38 79  1  0  0  0  0
 39 40  2  0  0  0  0
 39 80  1  0  0  0  0
 40 81  1  0  0  0  0
M  END
> <PUBCHEM_COMPOUND_CID>
507575
> <PUBCHEM_COMPOUND_CANONICALIZED>
1
> <PUBCHEM_CACTVS_COMPLEXITY>
833
> <PUBCHEM_CACTVS_HBOND_ACCEPTOR>
8
> <PUBCHEM_CACTVS_HBOND_DONOR>
6
> <PUBCHEM_CACTVS_ROTATABLE_BOND>
19
> <PUBCHEM_CACTVS_SUBSKEYS>
AAADcfB7uABEAAAAAAAAAAAAAAAAAAAAAAAwAAAAAAAAAAABAAAAHgYQCAAADSrl2CayCILABgSIAiHSGAACAAAgBQAIiIGIAokIYDKBkzGcYAAklgCIiAe8n4IOAAAAAAABAAAAAAAAAAIAAAAAAAAAAA==
> <PUBCHEM_IUPAC_OPENEYE_NAME>
(4S)-5-[[(1S)-1-[[(1R)-2-[2-(2-chlorophenyl)ethylamino]-2-oxo-1-(sulfanylmethyl)ethyl]carbamoyl]pentyl]amino]-4-(isobutoxycarbonylamino)-5-oxo-pentanoic acid
> <PUBCHEM_IUPAC_CAS_NAME>
(4S)-5-[[(2S)-1-[[(2R)-1-[2-(2-chlorophenyl)ethylamino]-3-mercapto-1-oxopropan-2-yl]amino]-1-oxohexan-2-yl]amino]-4-[[2-methylpropoxy(oxo)methyl]amino]-5-oxopentanoic acid
> <PUBCHEM_IUPAC_NAME_MARKUP>
(4<I>S</I>)-5-[[(2<I>S</I>)-1-[[(2<I>R</I>)-1-[2-(2-chlorophenyl)ethylamino]-1-oxo-3-sulfanylpropan-2-yl]amino]-1-oxohexan-2-yl]amino]-4-(2-methylpropoxycarbonylamino)-5-oxopentanoic acid
> <PUBCHEM_IUPAC_NAME>
(4S)-5-[[(2S)-1-[[(2R)-1-[2-(2-chlorophenyl)ethylamino]-1-oxo-3-sulfanylpropan-2-yl]amino]-1-oxohexan-2-yl]amino]-4-(2-methylpropoxycarbonylamino)-5-oxopentanoic acid
> <PUBCHEM_IUPAC_SYSTEMATIC_NAME>
(4S)-5-[[(2S)-1-[[(2R)-1-[2-(2-chlorophenyl)ethylamino]-1-oxidanylidene-3-sulfanyl-propan-2-yl]amino]-1-oxidanylidene-hexan-2-yl]amino]-4-(2-methylpropoxycarbonylamino)-5-oxidanylidene-pentanoic acid
> <PUBCHEM_IUPAC_TRADITIONAL_NAME>
(4S)-5-[[(1S)-1-[[(1R)-2-[2-(2-chlorophenyl)ethylamino]-2-keto-1-(mercaptomethyl)ethyl]carbamoyl]pentyl]amino]-4-(isobutoxycarbonylamino)-5-keto-valeric acid
> <PUBCHEM_IUPAC_INCHI>
InChI=1S/C27H41ClN4O7S/c1-4-5-10-20(30-26(37)21(11-12-23(33)34)32-27(38)39-15-17(2)3)25(36)31-22(16-40)24(35)29-14-13-18-8-6-7-9-19(18)28/h6-9,17,20-22,40H,4-5,10-16H2,1-3H3,(H,29,35)(H,30,37)(H,31,36)(H,32,38)(H,33,34)/t20-,21-,22-/m0/s1
> <PUBCHEM_IUPAC_INCHIKEY>
FPPWPJLJGVBONK-FKBYEOEOSA-N
> <PUBCHEM_XLOGP3_AA>
3.9
> <PUBCHEM_EXACT_MASS>
600.2384485
> <PUBCHEM_MOLECULAR_FORMULA>
C27H41ClN4O7S
> <PUBCHEM_MOLECULAR_WEIGHT>
601.2
> <PUBCHEM_OPENEYE_CAN_SMILES>
CCCCC(C(=O)NC(CS)C(=O)NCCC1=CC=CC=C1Cl)NC(=O)C(CCC(=O)O)NC(=O)OCC(C)C
> <PUBCHEM_OPENEYE_ISO_SMILES>
CCCC[C@@H](C(=O)N[C@@H](CS)C(=O)NCCC1=CC=CC=C1Cl)NC(=O)[C@H](CCC(=O)O)NC(=O)OCC(C)C
> <PUBCHEM_CACTVS_TPSA>
164
> <PUBCHEM_MONOISOTOPIC_WEIGHT>
600.2384485
> <PUBCHEM_TOTAL_CHARGE>
0
> <PUBCHEM_HEAVY_ATOM_COUNT>
40
> <PUBCHEM_ATOM_DEF_STEREO_COUNT>
3
> <PUBCHEM_ATOM_UDEF_STEREO_COUNT>
0
> <PUBCHEM_BOND_DEF_STEREO_COUNT>
0
> <PUBCHEM_BOND_UDEF_STEREO_COUNT>
0
> <PUBCHEM_ISOTOPIC_ATOM_COUNT>
0
> <PUBCHEM_COMPONENT_COUNT>
1
> <PUBCHEM_CACTVS_TAUTO_COUNT>
-1
> <PUBCHEM_COORDINATE_TYPE>
1
5
255
> <PUBCHEM_BONDANNOTATIONS>
14  10  5
22  11  6
17  12  6
33  36  8
33  37  8
36  38  8
37  39  8
38  40  8
39  40  8
$$$$
