507589
  -OEChem-10302200282D
 85 87  0     1  0  0  0  0  0999 V2000
   10.7335    3.5235    0.0000 Cl  0  0  0  0  0  0  0  0  0  0  0  0
   10.7335   -1.6726    0.0000 F   0  0  0  0  0  0  0  0  0  0  0  0
   10.7335    0.0594    0.0000 F   0  0  0  0  0  0  0  0  0  0  0  0
    6.9390   -2.7681    0.0000 O   0  0  0  0  0  0  0  0  0  0  0  0
    7.7335   -1.6726    0.0000 O   0  0  0  0  0  0  0  0  0  0  0  0
    5.2462   -5.9515    0.0000 O   0  0  0  0  0  0  0  0  0  0  0  0
   10.2335    0.9255    0.0000 O   0  0  0  0  0  0  0  0  0  0  0  0
    3.9570   -4.7947    0.0000 O   0  0  0  0  0  0  0  0  0  0  0  0
    2.0000   -4.3823    0.0000 O   0  0  0  0  0  0  0  0  0  0  0  0
    2.3572   -2.6875    0.0000 O   0  0  0  0  0  0  0  0  0  0  0  0
   10.2335    7.8537    0.0000 O   0  0  0  0  0  0  0  0  0  0  0  0
   11.7335    6.9876    0.0000 O   0  0  0  0  0  0  0  0  0  0  0  0
    5.6499   -1.6113    0.0000 N   0  0  0  0  0  0  0  0  0  0  0  0
    7.7335    0.0594    0.0000 N   0  0  0  0  0  0  0  0  0  0  0  0
    5.6034   -4.2567    0.0000 N   0  0  0  0  0  0  0  0  0  0  0  0
    8.7335    1.7915    0.0000 N   0  0  0  0  0  0  0  0  0  0  0  0
    6.2335   -0.8066    0.0000 C   0  0  1  0  0  0  0  0  0  0  0  0
    5.6499   -0.0019    0.0000 C   0  0  0  0  0  0  0  0  0  0  0  0
    4.7037   -0.3066    0.0000 C   0  0  0  0  0  0  0  0  0  0  0  0
    4.7037   -1.3066    0.0000 C   0  0  0  0  0  0  0  0  0  0  0  0
    5.9605   -2.5618    0.0000 C   0  0  0  0  0  0  0  0  0  0  0  0
    7.2335   -0.8066    0.0000 C   0  0  0  0  0  0  0  0  0  0  0  0
    5.2927   -3.3061    0.0000 C   0  0  1  0  0  0  0  0  0  0  0  0
    3.8376    0.1934    0.0000 C   0  0  0  0  0  0  0  0  0  0  0  0
    3.8376   -1.8066    0.0000 C   0  0  0  0  0  0  0  0  0  0  0  0
    4.3142   -3.0999    0.0000 C   0  0  0  0  0  0  0  0  0  0  0  0
    8.7335    0.0594    0.0000 C   0  0  1  0  0  0  0  0  0  0  0  0
    2.9716   -0.3066    0.0000 C   0  0  0  0  0  0  0  0  0  0  0  0
    2.9716   -1.3066    0.0000 C   0  0  0  0  0  0  0  0  0  0  0  0
    9.2335   -0.8066    0.0000 C   0  0  0  0  0  0  0  0  0  0  0  0
    3.6464   -3.8442    0.0000 C   0  0  0  0  0  0  0  0  0  0  0  0
    9.2335    0.9255    0.0000 C   0  0  0  0  0  0  0  0  0  0  0  0
   10.2335   -0.8066    0.0000 C   0  0  0  0  0  0  0  0  0  0  0  0
    4.9355   -5.0010    0.0000 C   0  0  0  0  0  0  0  0  0  0  0  0
    2.6678   -3.6380    0.0000 C   0  0  0  0  0  0  0  0  0  0  0  0
    9.2335    2.6575    0.0000 C   0  0  0  0  0  0  0  0  0  0  0  0
    8.7335    3.5235    0.0000 C   0  0  0  0  0  0  0  0  0  0  0  0
    4.5783   -6.6958    0.0000 C   0  0  0  0  0  0  0  0  0  0  0  0
    4.8890   -7.6463    0.0000 C   0  0  0  0  0  0  0  0  0  0  0  0
    9.2335    4.3896    0.0000 C   0  0  0  0  0  0  0  0  0  0  0  0
    4.2212   -8.3906    0.0000 C   0  0  0  0  0  0  0  0  0  0  0  0
    5.8675   -7.8525    0.0000 C   0  0  0  0  0  0  0  0  0  0  0  0
   10.2335    4.3896    0.0000 C   0  0  0  0  0  0  0  0  0  0  0  0
    8.7335    5.2556    0.0000 C   0  0  0  0  0  0  0  0  0  0  0  0
   10.7335    5.2556    0.0000 C   0  0  0  0  0  0  0  0  0  0  0  0
    9.2335    6.1216    0.0000 C   0  0  0  0  0  0  0  0  0  0  0  0
   10.2335    6.1216    0.0000 C   0  0  0  0  0  0  0  0  0  0  0  0
   10.7335    6.9876    0.0000 C   0  0  0  0  0  0  0  0  0  0  0  0
    6.5152   -1.3589    0.0000 H   0  0  0  0  0  0  0  0  0  0  0  0
    6.1873    0.3074    0.0000 H   0  0  0  0  0  0  0  0  0  0  0  0
    5.3989    0.5651    0.0000 H   0  0  0  0  0  0  0  0  0  0  0  0
    4.8786   -3.7676    0.0000 H   0  0  0  0  0  0  0  0  0  0  0  0
    3.8376    0.8134    0.0000 H   0  0  0  0  0  0  0  0  0  0  0  0
    3.8376   -2.4266    0.0000 H   0  0  0  0  0  0  0  0  0  0  0  0
    4.5454   -2.5247    0.0000 H   0  0  0  0  0  0  0  0  0  0  0  0
    3.7878   -2.7723    0.0000 H   0  0  0  0  0  0  0  0  0  0  0  0
    7.4235    0.5964    0.0000 H   0  0  0  0  0  0  0  0  0  0  0  0
    8.4235   -0.4775    0.0000 H   0  0  0  0  0  0  0  0  0  0  0  0
    2.4347    0.0034    0.0000 H   0  0  0  0  0  0  0  0  0  0  0  0
    2.4347   -1.6166    0.0000 H   0  0  0  0  0  0  0  0  0  0  0  0
    6.2100   -4.3845    0.0000 H   0  0  0  0  0  0  0  0  0  0  0  0
    8.6509   -1.0186    0.0000 H   0  0  0  0  0  0  0  0  0  0  0  0
    9.3412   -1.4172    0.0000 H   0  0  0  0  0  0  0  0  0  0  0  0
    3.4151   -4.4195    0.0000 H   0  0  0  0  0  0  0  0  0  0  0  0
    4.1727   -4.1719    0.0000 H   0  0  0  0  0  0  0  0  0  0  0  0
    9.9235   -1.3435    0.0000 H   0  0  0  0  0  0  0  0  0  0  0  0
    8.1135    1.7915    0.0000 H   0  0  0  0  0  0  0  0  0  0  0  0
    9.7084    2.2590    0.0000 H   0  0  0  0  0  0  0  0  0  0  0  0
    9.7084    3.0560    0.0000 H   0  0  0  0  0  0  0  0  0  0  0  0
    8.2585    3.9221    0.0000 H   0  0  0  0  0  0  0  0  0  0  0  0
    8.2585    3.1250    0.0000 H   0  0  0  0  0  0  0  0  0  0  0  0
    4.1958   -6.2079    0.0000 H   0  0  0  0  0  0  0  0  0  0  0  0
    4.0314   -6.9878    0.0000 H   0  0  0  0  0  0  0  0  0  0  0  0
    5.3031   -7.1848    0.0000 H   0  0  0  0  0  0  0  0  0  0  0  0
    2.1926   -4.9716    0.0000 H   0  0  0  0  0  0  0  0  0  0  0  0
    3.7597   -7.9765    0.0000 H   0  0  0  0  0  0  0  0  0  0  0  0
    3.8071   -8.8521    0.0000 H   0  0  0  0  0  0  0  0  0  0  0  0
    4.6826   -8.8047    0.0000 H   0  0  0  0  0  0  0  0  0  0  0  0
    5.7396   -8.4592    0.0000 H   0  0  0  0  0  0  0  0  0  0  0  0
    6.4742   -7.9804    0.0000 H   0  0  0  0  0  0  0  0  0  0  0  0
    5.9954   -7.2458    0.0000 H   0  0  0  0  0  0  0  0  0  0  0  0
    8.1135    5.2556    0.0000 H   0  0  0  0  0  0  0  0  0  0  0  0
   11.3535    5.2556    0.0000 H   0  0  0  0  0  0  0  0  0  0  0  0
    8.9235    6.6586    0.0000 H   0  0  0  0  0  0  0  0  0  0  0  0
   10.5435    8.3906    0.0000 H   0  0  0  0  0  0  0  0  0  0  0  0
  1 43  1  0  0  0  0
  2 33  1  0  0  0  0
  3 33  1  0  0  0  0
  4 21  2  0  0  0  0
  5 22  2  0  0  0  0
  6 34  1  0  0  0  0
  6 38  1  0  0  0  0
  7 32  2  0  0  0  0
  8 34  2  0  0  0  0
  9 35  1  0  0  0  0
  9 75  1  0  0  0  0
 10 35  2  0  0  0  0
 11 48  1  0  0  0  0
 11 85  1  0  0  0  0
 12 48  2  0  0  0  0
 13 17  1  0  0  0  0
 13 20  1  0  0  0  0
 13 21  1  0  0  0  0
 14 22  1  0  0  0  0
 27 14  1  6  0  0  0
 14 57  1  0  0  0  0
 23 15  1  6  0  0  0
 15 34  1  0  0  0  0
 15 61  1  0  0  0  0
 16 32  1  0  0  0  0
 16 36  1  0  0  0  0
 16 67  1  0  0  0  0
 17 18  1  0  0  0  0
 17 22  1  1  0  0  0
 17 49  1  0  0  0  0
 18 19  1  0  0  0  0
 18 50  1  0  0  0  0
 18 51  1  0  0  0  0
 19 20  1  0  0  0  0
 19 24  2  0  0  0  0
 20 25  2  0  0  0  0
 21 23  1  0  0  0  0
 23 26  1  0  0  0  0
 23 52  1  0  0  0  0
 24 28  1  0  0  0  0
 24 53  1  0  0  0  0
 25 29  1  0  0  0  0
 25 54  1  0  0  0  0
 26 31  1  0  0  0  0
 26 55  1  0  0  0  0
 26 56  1  0  0  0  0
 27 30  1  0  0  0  0
 27 32  1  0  0  0  0
 27 58  1  0  0  0  0
 28 29  2  0  0  0  0
 28 59  1  0  0  0  0
 29 60  1  0  0  0  0
 30 33  1  0  0  0  0
 30 62  1  0  0  0  0
 30 63  1  0  0  0  0
 31 35  1  0  0  0  0
 31 64  1  0  0  0  0
 31 65  1  0  0  0  0
 33 66  1  0  0  0  0
 36 37  1  0  0  0  0
 36 68  1  0  0  0  0
 36 69  1  0  0  0  0
 37 40  1  0  0  0  0
 37 70  1  0  0  0  0
 37 71  1  0  0  0  0
 38 39  1  0  0  0  0
 38 72  1  0  0  0  0
 38 73  1  0  0  0  0
 39 41  1  0  0  0  0
 39 42  1  0  0  0  0
 39 74  1  0  0  0  0
 40 43  2  0  0  0  0
 40 44  1  0  0  0  0
 41 76  1  0  0  0  0
 41 77  1  0  0  0  0
 41 78  1  0  0  0  0
 42 79  1  0  0  0  0
 42 80  1  0  0  0  0
 42 81  1  0  0  0  0
 43 45  1  0  0  0  0
 44 46  2  0  0  0  0
 44 82  1  0  0  0  0
 45 47  2  0  0  0  0
 45 83  1  0  0  0  0
 46 47  1  0  0  0  0
 46 84  1  0  0  0  0
 47 48  1  0  0  0  0
M  END
> <PUBCHEM_COMPOUND_CID>
507589
> <PUBCHEM_COMPOUND_CANONICALIZED>
1
> <PUBCHEM_CACTVS_COMPLEXITY>
1160
> <PUBCHEM_CACTVS_HBOND_ACCEPTOR>
11
> <PUBCHEM_CACTVS_HBOND_DONOR>
5
> <PUBCHEM_CACTVS_ROTATABLE_BOND>
17
> <PUBCHEM_CACTVS_SUBSKEYS>
AAADcfB/vYAEAAAAAAAAAAAAAAAAAWAAAAAwYAAAAAAAAFgBQAAAHwIQCAAADSrhmDYyyIPABgCIAiXSWACCAAAlBwAIiIGIbskIZjLBl7GccQhk1gHI2Ye83/KeQAAAIAADAACAAABAAAYAAAAAAAAAAA==
> <PUBCHEM_IUPAC_OPENEYE_NAME>
4-[2-[[(2S)-2-[[(2S)-1-[(2R)-4-carboxy-2-(isobutoxycarbonylamino)butanoyl]indoline-2-carbonyl]amino]-4,4-difluoro-butanoyl]amino]ethyl]-3-chloro-benzoic acid
> <PUBCHEM_IUPAC_CAS_NAME>
4-[2-[[(2S)-2-[[[(2S)-1-[(2R)-4-carboxy-2-[[2-methylpropoxy(oxo)methyl]amino]-1-oxobutyl]-2,3-dihydroindol-2-yl]-oxomethyl]amino]-4,4-difluoro-1-oxobutyl]amino]ethyl]-3-chlorobenzoic acid
> <PUBCHEM_IUPAC_NAME_MARKUP>
4-[2-[[(2<I>S</I>)-2-[[(2<I>S</I>)-1-[(2<I>R</I>)-4-carboxy-2-(2-methylpropoxycarbonylamino)butanoyl]-2,3-dihydroindole-2-carbonyl]amino]-4,4-difluorobutanoyl]amino]ethyl]-3-chlorobenzoic acid
> <PUBCHEM_IUPAC_NAME>
4-[2-[[(2S)-2-[[(2S)-1-[(2R)-4-carboxy-2-(2-methylpropoxycarbonylamino)butanoyl]-2,3-dihydroindole-2-carbonyl]amino]-4,4-difluorobutanoyl]amino]ethyl]-3-chlorobenzoic acid
> <PUBCHEM_IUPAC_SYSTEMATIC_NAME>
4-[2-[[(2S)-4,4-bis(fluoranyl)-2-[[(2S)-1-[(2R)-2-(2-methylpropoxycarbonylamino)-5-oxidanyl-5-oxidanylidene-pentanoyl]-2,3-dihydroindol-2-yl]carbonylamino]butanoyl]amino]ethyl]-3-chloranyl-benzoic acid
> <PUBCHEM_IUPAC_TRADITIONAL_NAME>
4-[2-[[(2S)-2-[[(2S)-1-[(2R)-4-carboxy-2-(isobutoxycarbonylamino)butanoyl]indoline-2-carbonyl]amino]-4,4-difluoro-butanoyl]amino]ethyl]-3-chloro-benzoic acid
> <PUBCHEM_IUPAC_INCHI>
InChI=1S/C32H37ClF2N4O9/c1-17(2)16-48-32(47)38-22(9-10-27(40)41)30(44)39-24-6-4-3-5-19(24)14-25(39)29(43)37-23(15-26(34)35)28(42)36-12-11-18-7-8-20(31(45)46)13-21(18)33/h3-8,13,17,22-23,25-26H,9-12,14-16H2,1-2H3,(H,36,42)(H,37,43)(H,38,47)(H,40,41)(H,45,46)/t22-,23+,25+/m1/s1
> <PUBCHEM_IUPAC_INCHIKEY>
OBFXEWOUJXHGQT-CUYJMHBOSA-N
> <PUBCHEM_XLOGP3_AA>
4.4
> <PUBCHEM_EXACT_MASS>
694.2217128
> <PUBCHEM_MOLECULAR_FORMULA>
C32H37ClF2N4O9
> <PUBCHEM_MOLECULAR_WEIGHT>
695.1
> <PUBCHEM_OPENEYE_CAN_SMILES>
CC(C)COC(=O)NC(CCC(=O)O)C(=O)N1C(CC2=CC=CC=C21)C(=O)NC(CC(F)F)C(=O)NCCC3=C(C=C(C=C3)C(=O)O)Cl
> <PUBCHEM_OPENEYE_ISO_SMILES>
CC(C)COC(=O)N[C@H](CCC(=O)O)C(=O)N1[C@@H](CC2=CC=CC=C21)C(=O)N[C@@H](CC(F)F)C(=O)NCCC3=C(C=C(C=C3)C(=O)O)Cl
> <PUBCHEM_CACTVS_TPSA>
191
> <PUBCHEM_MONOISOTOPIC_WEIGHT>
694.2217128
> <PUBCHEM_TOTAL_CHARGE>
0
> <PUBCHEM_HEAVY_ATOM_COUNT>
48
> <PUBCHEM_ATOM_DEF_STEREO_COUNT>
3
> <PUBCHEM_ATOM_UDEF_STEREO_COUNT>
0
> <PUBCHEM_BOND_DEF_STEREO_COUNT>
0
> <PUBCHEM_BOND_UDEF_STEREO_COUNT>
0
> <PUBCHEM_ISOTOPIC_ATOM_COUNT>
0
> <PUBCHEM_COMPONENT_COUNT>
1
> <PUBCHEM_CACTVS_TAUTO_COUNT>
-1
> <PUBCHEM_COORDINATE_TYPE>
1
5
255
> <PUBCHEM_BONDANNOTATIONS>
27  14  6
23  15  6
17  22  5
19  20  8
19  24  8
20  25  8
24  28  8
25  29  8
28  29  8
40  43  8
40  44  8
43  45  8
44  46  8
45  47  8
46  47  8
$$$$
