507545
  -OEChem-10302200282D
 85 87  0     1  0  0  0  0  0999 V2000
    2.8660   -3.7073    0.0000 Cl  0  0  0  0  0  0  0  0  0  0  0  0
   12.3923    1.7927    0.0000 S   0  0  0  0  0  0  0  0  0  0  0  0
    7.1962   -4.2073    0.0000 S   0  0  0  0  0  0  0  0  0  0  0  0
   12.3923   -1.2073    0.0000 O   0  0  0  0  0  0  0  0  0  0  0  0
    9.7942   -3.7073    0.0000 O   0  0  0  0  0  0  0  0  0  0  0  0
   11.3923    1.7927    0.0000 O   0  0  0  0  0  0  0  0  0  0  0  0
   13.3923    1.7927    0.0000 O   0  0  0  0  0  0  0  0  0  0  0  0
    7.1962   -1.2073    0.0000 O   0  0  0  0  0  0  0  0  0  0  0  0
    8.0622    0.2927    0.0000 O   0  0  0  0  0  0  0  0  0  0  0  0
    8.9282    1.7927    0.0000 O   0  0  0  0  0  0  0  0  0  0  0  0
   10.6603   -1.2073    0.0000 N   0  0  0  0  0  0  0  0  0  0  0  0
   12.3923    0.7927    0.0000 N   0  0  0  0  0  0  0  0  0  0  0  0
    8.9282   -2.2073    0.0000 N   0  0  0  0  0  0  0  0  0  0  0  0
    6.3301   -2.7073    0.0000 N   0  0  0  0  0  0  0  0  0  0  0  0
   10.6603   -2.2073    0.0000 C   0  0  1  0  0  0  0  0  0  0  0  0
   11.5263   -2.7073    0.0000 C   0  0  0  0  0  0  0  0  0  0  0  0
   11.5263   -3.7073    0.0000 C   0  0  0  0  0  0  0  0  0  0  0  0
   11.5263    0.2927    0.0000 C   0  0  2  0  0  0  0  0  0  0  0  0
   11.5263   -0.7073    0.0000 C   0  0  0  0  0  0  0  0  0  0  0  0
   10.6603    0.7927    0.0000 C   0  0  0  0  0  0  0  0  0  0  0  0
    9.7942   -2.7073    0.0000 C   0  0  0  0  0  0  0  0  0  0  0  0
   12.3923   -4.2073    0.0000 C   0  0  0  0  0  0  0  0  0  0  0  0
   10.6603   -4.2073    0.0000 C   0  0  0  0  0  0  0  0  0  0  0  0
    8.0622   -2.7073    0.0000 C   0  0  1  0  0  0  0  0  0  0  0  0
    9.7942    0.2927    0.0000 C   0  0  0  0  0  0  0  0  0  0  0  0
   12.3923    2.7927    0.0000 C   0  0  0  0  0  0  0  0  0  0  0  0
   13.2583    3.2927    0.0000 C   0  0  0  0  0  0  0  0  0  0  0  0
    8.0622   -3.7073    0.0000 C   0  0  0  0  0  0  0  0  0  0  0  0
    7.1962   -2.2073    0.0000 C   0  0  0  0  0  0  0  0  0  0  0  0
   11.5263    3.2927    0.0000 C   0  0  0  0  0  0  0  0  0  0  0  0
   13.2583    4.2927    0.0000 C   0  0  0  0  0  0  0  0  0  0  0  0
    8.9282    0.7927    0.0000 C   0  0  0  0  0  0  0  0  0  0  0  0
   14.1523    2.7580    0.0000 C   0  0  0  0  0  0  0  0  0  0  0  0
    5.4641   -2.2073    0.0000 C   0  0  0  0  0  0  0  0  0  0  0  0
   11.5263    4.2927    0.0000 C   0  0  0  0  0  0  0  0  0  0  0  0
   12.3923    4.7927    0.0000 C   0  0  0  0  0  0  0  0  0  0  0  0
   14.1523    4.8273    0.0000 C   0  0  0  0  0  0  0  0  0  0  0  0
    4.5981   -2.7073    0.0000 C   0  0  0  0  0  0  0  0  0  0  0  0
   15.0583    3.2718    0.0000 C   0  0  0  0  0  0  0  0  0  0  0  0
   15.0583    4.3135    0.0000 C   0  0  0  0  0  0  0  0  0  0  0  0
    3.7320   -2.2073    0.0000 C   0  0  0  0  0  0  0  0  0  0  0  0
    2.8660   -2.7073    0.0000 C   0  0  0  0  0  0  0  0  0  0  0  0
    3.7320   -1.2073    0.0000 C   0  0  0  0  0  0  0  0  0  0  0  0
    2.0000   -2.2073    0.0000 C   0  0  0  0  0  0  0  0  0  0  0  0
    2.8660   -0.7073    0.0000 C   0  0  0  0  0  0  0  0  0  0  0  0
    2.0000   -1.2073    0.0000 C   0  0  0  0  0  0  0  0  0  0  0  0
   11.1972   -1.8973    0.0000 H   0  0  0  0  0  0  0  0  0  0  0  0
   12.1369   -2.8150    0.0000 H   0  0  0  0  0  0  0  0  0  0  0  0
   11.7383   -2.1247    0.0000 H   0  0  0  0  0  0  0  0  0  0  0  0
   12.0632   -3.3973    0.0000 H   0  0  0  0  0  0  0  0  0  0  0  0
   12.0632   -0.0173    0.0000 H   0  0  0  0  0  0  0  0  0  0  0  0
   10.1233   -0.8973    0.0000 H   0  0  0  0  0  0  0  0  0  0  0  0
   11.0588    1.2676    0.0000 H   0  0  0  0  0  0  0  0  0  0  0  0
   10.2617    1.2676    0.0000 H   0  0  0  0  0  0  0  0  0  0  0  0
   12.0823   -4.7443    0.0000 H   0  0  0  0  0  0  0  0  0  0  0  0
   12.9292   -4.5173    0.0000 H   0  0  0  0  0  0  0  0  0  0  0  0
   12.7023   -3.6704    0.0000 H   0  0  0  0  0  0  0  0  0  0  0  0
   10.3503   -3.6704    0.0000 H   0  0  0  0  0  0  0  0  0  0  0  0
   10.1233   -4.5173    0.0000 H   0  0  0  0  0  0  0  0  0  0  0  0
   10.9703   -4.7443    0.0000 H   0  0  0  0  0  0  0  0  0  0  0  0
   12.9292    0.4827    0.0000 H   0  0  0  0  0  0  0  0  0  0  0  0
    8.9282   -1.5873    0.0000 H   0  0  0  0  0  0  0  0  0  0  0  0
    8.0622   -2.0873    0.0000 H   0  0  0  0  0  0  0  0  0  0  0  0
    9.3957   -0.1823    0.0000 H   0  0  0  0  0  0  0  0  0  0  0  0
   10.1928   -0.1823    0.0000 H   0  0  0  0  0  0  0  0  0  0  0  0
    8.2742   -4.2899    0.0000 H   0  0  0  0  0  0  0  0  0  0  0  0
    8.6728   -3.5997    0.0000 H   0  0  0  0  0  0  0  0  0  0  0  0
   10.9893    2.9827    0.0000 H   0  0  0  0  0  0  0  0  0  0  0  0
    6.3301   -3.3273    0.0000 H   0  0  0  0  0  0  0  0  0  0  0  0
   14.1451    2.1380    0.0000 H   0  0  0  0  0  0  0  0  0  0  0  0
    5.8626   -1.7324    0.0000 H   0  0  0  0  0  0  0  0  0  0  0  0
    5.0656   -1.7324    0.0000 H   0  0  0  0  0  0  0  0  0  0  0  0
   10.9893    4.6027    0.0000 H   0  0  0  0  0  0  0  0  0  0  0  0
   12.3923    5.4127    0.0000 H   0  0  0  0  0  0  0  0  0  0  0  0
   14.1451    5.4473    0.0000 H   0  0  0  0  0  0  0  0  0  0  0  0
    4.1996   -3.1823    0.0000 H   0  0  0  0  0  0  0  0  0  0  0  0
    4.9966   -3.1823    0.0000 H   0  0  0  0  0  0  0  0  0  0  0  0
   15.5941    2.9598    0.0000 H   0  0  0  0  0  0  0  0  0  0  0  0
   15.5941    4.6255    0.0000 H   0  0  0  0  0  0  0  0  0  0  0  0
    7.1962   -4.8273    0.0000 H   0  0  0  0  0  0  0  0  0  0  0  0
    7.5252    0.6027    0.0000 H   0  0  0  0  0  0  0  0  0  0  0  0
    4.2690   -0.8973    0.0000 H   0  0  0  0  0  0  0  0  0  0  0  0
    1.4631   -2.5173    0.0000 H   0  0  0  0  0  0  0  0  0  0  0  0
    2.8660   -0.0873    0.0000 H   0  0  0  0  0  0  0  0  0  0  0  0
    1.4631   -0.8973    0.0000 H   0  0  0  0  0  0  0  0  0  0  0  0
  1 42  1  0  0  0  0
  2  6  2  0  0  0  0
  2  7  2  0  0  0  0
  2 12  1  0  0  0  0
  2 26  1  0  0  0  0
  3 28  1  0  0  0  0
  3 80  1  0  0  0  0
  4 19  2  0  0  0  0
  5 21  2  0  0  0  0
  8 29  2  0  0  0  0
  9 32  1  0  0  0  0
  9 81  1  0  0  0  0
 10 32  2  0  0  0  0
 15 11  1  1  0  0  0
 11 19  1  0  0  0  0
 11 52  1  0  0  0  0
 18 12  1  6  0  0  0
 12 61  1  0  0  0  0
 13 21  1  0  0  0  0
 24 13  1  1  0  0  0
 13 62  1  0  0  0  0
 14 29  1  0  0  0  0
 14 34  1  0  0  0  0
 14 69  1  0  0  0  0
 15 16  1  0  0  0  0
 15 21  1  0  0  0  0
 15 47  1  0  0  0  0
 16 17  1  0  0  0  0
 16 48  1  0  0  0  0
 16 49  1  0  0  0  0
 17 22  1  0  0  0  0
 17 23  1  0  0  0  0
 17 50  1  0  0  0  0
 18 19  1  0  0  0  0
 18 20  1  0  0  0  0
 18 51  1  0  0  0  0
 20 25  1  0  0  0  0
 20 53  1  0  0  0  0
 20 54  1  0  0  0  0
 22 55  1  0  0  0  0
 22 56  1  0  0  0  0
 22 57  1  0  0  0  0
 23 58  1  0  0  0  0
 23 59  1  0  0  0  0
 23 60  1  0  0  0  0
 24 28  1  0  0  0  0
 24 29  1  0  0  0  0
 24 63  1  0  0  0  0
 25 32  1  0  0  0  0
 25 64  1  0  0  0  0
 25 65  1  0  0  0  0
 26 27  1  0  0  0  0
 26 30  2  0  0  0  0
 27 31  1  0  0  0  0
 27 33  2  0  0  0  0
 28 66  1  0  0  0  0
 28 67  1  0  0  0  0
 30 35  1  0  0  0  0
 30 68  1  0  0  0  0
 31 36  1  0  0  0  0
 31 37  2  0  0  0  0
 33 39  1  0  0  0  0
 33 70  1  0  0  0  0
 34 38  1  0  0  0  0
 34 71  1  0  0  0  0
 34 72  1  0  0  0  0
 35 36  2  0  0  0  0
 35 73  1  0  0  0  0
 36 74  1  0  0  0  0
 37 40  1  0  0  0  0
 37 75  1  0  0  0  0
 38 41  1  0  0  0  0
 38 76  1  0  0  0  0
 38 77  1  0  0  0  0
 39 40  2  0  0  0  0
 39 78  1  0  0  0  0
 40 79  1  0  0  0  0
 41 42  1  0  0  0  0
 41 43  2  0  0  0  0
 42 44  2  0  0  0  0
 43 45  1  0  0  0  0
 43 82  1  0  0  0  0
 44 46  1  0  0  0  0
 44 83  1  0  0  0  0
 45 46  2  0  0  0  0
 45 84  1  0  0  0  0
 46 85  1  0  0  0  0
M  END
> <PUBCHEM_COMPOUND_CID>
507545
> <PUBCHEM_COMPOUND_CANONICALIZED>
1
> <PUBCHEM_CACTVS_COMPLEXITY>
1140
> <PUBCHEM_CACTVS_HBOND_ACCEPTOR>
9
> <PUBCHEM_CACTVS_HBOND_DONOR>
6
> <PUBCHEM_CACTVS_ROTATABLE_BOND>
17
> <PUBCHEM_CACTVS_SUBSKEYS>
AAADcfB/uABkAAAAAAAAAAAAAAAAAAAAAAAwYMAAAAAAAADBVAAAHgYQSAAADSrF2CSyCcLAAgaIAiHSGHBCABAgBQAIiJmIAogIYDKBkzGUYAAklgCIiAe8l4IOgAAAgAAVAAAAAAEAACoAAAAAAAAAAA==
> <PUBCHEM_IUPAC_OPENEYE_NAME>
(4S)-5-[[(1S)-1-[[(1R)-2-[2-(2-chlorophenyl)ethylamino]-2-oxo-1-(sulfanylmethyl)ethyl]carbamoyl]-3-methyl-butyl]amino]-4-(1-naphthylsulfonylamino)-5-oxo-pentanoic acid
> <PUBCHEM_IUPAC_CAS_NAME>
(4S)-5-[[(2S)-1-[[(2R)-1-[2-(2-chlorophenyl)ethylamino]-3-mercapto-1-oxopropan-2-yl]amino]-4-methyl-1-oxopentan-2-yl]amino]-4-(1-naphthalenylsulfonylamino)-5-oxopentanoic acid
> <PUBCHEM_IUPAC_NAME_MARKUP>
(4<I>S</I>)-5-[[(2<I>S</I>)-1-[[(2<I>R</I>)-1-[2-(2-chlorophenyl)ethylamino]-1-oxo-3-sulfanylpropan-2-yl]amino]-4-methyl-1-oxopentan-2-yl]amino]-4-(naphthalen-1-ylsulfonylamino)-5-oxopentanoic acid
> <PUBCHEM_IUPAC_NAME>
(4S)-5-[[(2S)-1-[[(2R)-1-[2-(2-chlorophenyl)ethylamino]-1-oxo-3-sulfanylpropan-2-yl]amino]-4-methyl-1-oxopentan-2-yl]amino]-4-(naphthalen-1-ylsulfonylamino)-5-oxopentanoic acid
> <PUBCHEM_IUPAC_SYSTEMATIC_NAME>
(4S)-5-[[(2S)-1-[[(2R)-1-[2-(2-chlorophenyl)ethylamino]-1-oxidanylidene-3-sulfanyl-propan-2-yl]amino]-4-methyl-1-oxidanylidene-pentan-2-yl]amino]-4-(naphthalen-1-ylsulfonylamino)-5-oxidanylidene-pentanoic acid
> <PUBCHEM_IUPAC_TRADITIONAL_NAME>
(4S)-5-[[(1S)-1-[[(1R)-2-[2-(2-chlorophenyl)ethylamino]-2-keto-1-(mercaptomethyl)ethyl]carbamoyl]-3-methyl-butyl]amino]-5-keto-4-(1-naphthylsulfonylamino)valeric acid
> <PUBCHEM_IUPAC_INCHI>
InChI=1S/C32H39ClN4O7S2/c1-20(2)18-26(32(42)36-27(19-45)30(40)34-17-16-22-9-4-6-12-24(22)33)35-31(41)25(14-15-29(38)39)37-46(43,44)28-13-7-10-21-8-3-5-11-23(21)28/h3-13,20,25-27,37,45H,14-19H2,1-2H3,(H,34,40)(H,35,41)(H,36,42)(H,38,39)/t25-,26-,27-/m0/s1
> <PUBCHEM_IUPAC_INCHIKEY>
VOCQFKOAOSPAQS-QKDODKLFSA-N
> <PUBCHEM_XLOGP3_AA>
4.7
> <PUBCHEM_EXACT_MASS>
690.1948696
> <PUBCHEM_MOLECULAR_FORMULA>
C32H39ClN4O7S2
> <PUBCHEM_MOLECULAR_WEIGHT>
691.3
> <PUBCHEM_OPENEYE_CAN_SMILES>
CC(C)CC(C(=O)NC(CS)C(=O)NCCC1=CC=CC=C1Cl)NC(=O)C(CCC(=O)O)NS(=O)(=O)C2=CC=CC3=CC=CC=C32
> <PUBCHEM_OPENEYE_ISO_SMILES>
CC(C)C[C@@H](C(=O)N[C@@H](CS)C(=O)NCCC1=CC=CC=C1Cl)NC(=O)[C@H](CCC(=O)O)NS(=O)(=O)C2=CC=CC3=CC=CC=C32
> <PUBCHEM_CACTVS_TPSA>
180
> <PUBCHEM_MONOISOTOPIC_WEIGHT>
690.1948696
> <PUBCHEM_TOTAL_CHARGE>
0
> <PUBCHEM_HEAVY_ATOM_COUNT>
46
> <PUBCHEM_ATOM_DEF_STEREO_COUNT>
3
> <PUBCHEM_ATOM_UDEF_STEREO_COUNT>
0
> <PUBCHEM_BOND_DEF_STEREO_COUNT>
0
> <PUBCHEM_BOND_UDEF_STEREO_COUNT>
0
> <PUBCHEM_ISOTOPIC_ATOM_COUNT>
0
> <PUBCHEM_COMPONENT_COUNT>
1
> <PUBCHEM_CACTVS_TAUTO_COUNT>
-1
> <PUBCHEM_COORDINATE_TYPE>
1
5
255
> <PUBCHEM_BONDANNOTATIONS>
15  11  5
18  12  6
24  13  5
26  27  8
26  30  8
27  31  8
27  33  8
30  35  8
31  36  8
31  37  8
33  39  8
35  36  8
37  40  8
39  40  8
41  42  8
41  43  8
42  44  8
43  45  8
44  46  8
45  46  8
$$$$
