507519
  -OEChem-10302200282D
 78 78  0     1  0  0  0  0  0999 V2000
    2.0000   -5.5000    0.0000 Cl  0  0  0  0  0  0  0  0  0  0  0  0
    4.5981    0.0000    0.0000 S   0  0  0  0  0  0  0  0  0  0  0  0
    5.4641    0.5000    0.0000 O   0  0  0  0  0  0  0  0  0  0  0  0
    5.4641    1.5000    0.0000 O   0  0  0  0  0  0  0  0  0  0  0  0
    6.3301   -3.0000    0.0000 O   0  0  0  0  0  0  0  0  0  0  0  0
    6.3301    5.0000    0.0000 O   0  0  0  0  0  0  0  0  0  0  0  0
    8.0622    6.0000    0.0000 O   0  0  0  0  0  0  0  0  0  0  0  0
    8.9282    4.5000    0.0000 O   0  0  0  0  0  0  0  0  0  0  0  0
    7.1962    1.5000    0.0000 N   0  0  0  0  0  0  0  0  0  0  0  0
    6.3301   -1.0000    0.0000 N   0  0  0  0  0  0  0  0  0  0  0  0
    5.4641    3.5000    0.0000 N   0  0  0  0  0  0  0  0  0  0  0  0
    4.5981   -3.0000    0.0000 N   0  0  0  0  0  0  0  0  0  0  0  0
    7.1962    0.5000    0.0000 C   0  0  1  0  0  0  0  0  0  0  0  0
    8.0622    0.0000    0.0000 C   0  0  0  0  0  0  0  0  0  0  0  0
    8.9282    0.5000    0.0000 C   0  0  0  0  0  0  0  0  0  0  0  0
    6.3301    3.0000    0.0000 C   0  0  2  0  0  0  0  0  0  0  0  0
    6.3301    0.0000    0.0000 C   0  0  0  0  0  0  0  0  0  0  0  0
    9.7942    0.0000    0.0000 C   0  0  0  0  0  0  0  0  0  0  0  0
    8.9282    1.5000    0.0000 C   0  0  0  0  0  0  0  0  0  0  0  0
    6.3301    2.0000    0.0000 C   0  0  0  0  0  0  0  0  0  0  0  0
    7.1962    3.5000    0.0000 C   0  0  0  0  0  0  0  0  0  0  0  0
    5.4641   -1.5000    0.0000 C   0  0  1  0  0  0  0  0  0  0  0  0
    7.1962    4.5000    0.0000 C   0  0  0  0  0  0  0  0  0  0  0  0
    4.5981   -1.0000    0.0000 C   0  0  0  0  0  0  0  0  0  0  0  0
    5.4641   -2.5000    0.0000 C   0  0  0  0  0  0  0  0  0  0  0  0
    5.4641    4.5000    0.0000 C   0  0  0  0  0  0  0  0  0  0  0  0
    4.5981    5.0000    0.0000 C   0  0  0  0  0  0  0  0  0  0  0  0
    4.5981   -4.0000    0.0000 C   0  0  0  0  0  0  0  0  0  0  0  0
    8.0622    5.0000    0.0000 C   0  0  0  0  0  0  0  0  0  0  0  0
    3.7320   -4.5000    0.0000 C   0  0  0  0  0  0  0  0  0  0  0  0
    4.5981    6.0000    0.0000 C   0  0  0  0  0  0  0  0  0  0  0  0
    3.7320   -5.5000    0.0000 C   0  0  0  0  0  0  0  0  0  0  0  0
    3.7320    6.5000    0.0000 C   0  0  0  0  0  0  0  0  0  0  0  0
    2.8660   -6.0000    0.0000 C   0  0  0  0  0  0  0  0  0  0  0  0
    4.5981   -6.0000    0.0000 C   0  0  0  0  0  0  0  0  0  0  0  0
    2.8660   -7.0000    0.0000 C   0  0  0  0  0  0  0  0  0  0  0  0
    4.5981   -7.0000    0.0000 C   0  0  0  0  0  0  0  0  0  0  0  0
    3.7320   -7.5000    0.0000 C   0  0  0  0  0  0  0  0  0  0  0  0
    3.7320    7.5000    0.0000 C   0  0  0  0  0  0  0  0  0  0  0  0
    6.6592    0.8100    0.0000 H   0  0  0  0  0  0  0  0  0  0  0  0
    7.6636   -0.4749    0.0000 H   0  0  0  0  0  0  0  0  0  0  0  0
    8.4607   -0.4749    0.0000 H   0  0  0  0  0  0  0  0  0  0  0  0
    9.4651    0.8100    0.0000 H   0  0  0  0  0  0  0  0  0  0  0  0
    7.7331    1.8100    0.0000 H   0  0  0  0  0  0  0  0  0  0  0  0
    5.7932    2.6900    0.0000 H   0  0  0  0  0  0  0  0  0  0  0  0
    9.4842   -0.5369    0.0000 H   0  0  0  0  0  0  0  0  0  0  0  0
   10.3312   -0.3100    0.0000 H   0  0  0  0  0  0  0  0  0  0  0  0
   10.1042    0.5369    0.0000 H   0  0  0  0  0  0  0  0  0  0  0  0
    9.5482    1.5000    0.0000 H   0  0  0  0  0  0  0  0  0  0  0  0
    8.9282    2.1200    0.0000 H   0  0  0  0  0  0  0  0  0  0  0  0
    8.3082    1.5000    0.0000 H   0  0  0  0  0  0  0  0  0  0  0  0
    7.4082    2.9174    0.0000 H   0  0  0  0  0  0  0  0  0  0  0  0
    7.8067    3.6077    0.0000 H   0  0  0  0  0  0  0  0  0  0  0  0
    6.8671   -1.3100    0.0000 H   0  0  0  0  0  0  0  0  0  0  0  0
    5.4641   -0.8800    0.0000 H   0  0  0  0  0  0  0  0  0  0  0  0
    4.9272    3.1900    0.0000 H   0  0  0  0  0  0  0  0  0  0  0  0
    6.9841    5.0826    0.0000 H   0  0  0  0  0  0  0  0  0  0  0  0
    6.5856    4.3923    0.0000 H   0  0  0  0  0  0  0  0  0  0  0  0
    3.9875   -0.8923    0.0000 H   0  0  0  0  0  0  0  0  0  0  0  0
    4.3860   -1.5826    0.0000 H   0  0  0  0  0  0  0  0  0  0  0  0
    4.0611   -2.6900    0.0000 H   0  0  0  0  0  0  0  0  0  0  0  0
    3.9875    5.1077    0.0000 H   0  0  0  0  0  0  0  0  0  0  0  0
    4.3860    4.4174    0.0000 H   0  0  0  0  0  0  0  0  0  0  0  0
    4.8101   -4.5826    0.0000 H   0  0  0  0  0  0  0  0  0  0  0  0
    5.2087   -3.8923    0.0000 H   0  0  0  0  0  0  0  0  0  0  0  0
    3.5200   -3.9174    0.0000 H   0  0  0  0  0  0  0  0  0  0  0  0
    3.1215   -4.6077    0.0000 H   0  0  0  0  0  0  0  0  0  0  0  0
    5.2087    5.8923    0.0000 H   0  0  0  0  0  0  0  0  0  0  0  0
    4.8101    6.5826    0.0000 H   0  0  0  0  0  0  0  0  0  0  0  0
    4.0611    0.3100    0.0000 H   0  0  0  0  0  0  0  0  0  0  0  0
    3.1951    6.1900    0.0000 H   0  0  0  0  0  0  0  0  0  0  0  0
    5.1350   -5.6900    0.0000 H   0  0  0  0  0  0  0  0  0  0  0  0
    8.5991    6.3100    0.0000 H   0  0  0  0  0  0  0  0  0  0  0  0
    2.3291   -7.3100    0.0000 H   0  0  0  0  0  0  0  0  0  0  0  0
    5.1350   -7.3100    0.0000 H   0  0  0  0  0  0  0  0  0  0  0  0
    3.7320   -8.1200    0.0000 H   0  0  0  0  0  0  0  0  0  0  0  0
    4.2690    7.8100    0.0000 H   0  0  0  0  0  0  0  0  0  0  0  0
    3.1951    7.8100    0.0000 H   0  0  0  0  0  0  0  0  0  0  0  0
  1 34  1  0  0  0  0
  2 24  1  0  0  0  0
  2 70  1  0  0  0  0
  3 17  2  0  0  0  0
  4 20  2  0  0  0  0
  5 25  2  0  0  0  0
  6 26  2  0  0  0  0
  7 29  1  0  0  0  0
  7 73  1  0  0  0  0
  8 29  2  0  0  0  0
 13  9  1  1  0  0  0
  9 20  1  0  0  0  0
  9 44  1  0  0  0  0
 10 17  1  0  0  0  0
 22 10  1  6  0  0  0
 10 54  1  0  0  0  0
 16 11  1  1  0  0  0
 11 26  1  0  0  0  0
 11 56  1  0  0  0  0
 12 25  1  0  0  0  0
 12 28  1  0  0  0  0
 12 61  1  0  0  0  0
 13 14  1  0  0  0  0
 13 17  1  0  0  0  0
 13 40  1  0  0  0  0
 14 15  1  0  0  0  0
 14 41  1  0  0  0  0
 14 42  1  0  0  0  0
 15 18  1  0  0  0  0
 15 19  1  0  0  0  0
 15 43  1  0  0  0  0
 16 20  1  0  0  0  0
 16 21  1  0  0  0  0
 16 45  1  0  0  0  0
 18 46  1  0  0  0  0
 18 47  1  0  0  0  0
 18 48  1  0  0  0  0
 19 49  1  0  0  0  0
 19 50  1  0  0  0  0
 19 51  1  0  0  0  0
 21 23  1  0  0  0  0
 21 52  1  0  0  0  0
 21 53  1  0  0  0  0
 22 24  1  0  0  0  0
 22 25  1  0  0  0  0
 22 55  1  0  0  0  0
 23 29  1  0  0  0  0
 23 57  1  0  0  0  0
 23 58  1  0  0  0  0
 24 59  1  0  0  0  0
 24 60  1  0  0  0  0
 26 27  1  0  0  0  0
 27 31  1  0  0  0  0
 27 62  1  0  0  0  0
 27 63  1  0  0  0  0
 28 30  1  0  0  0  0
 28 64  1  0  0  0  0
 28 65  1  0  0  0  0
 30 32  1  0  0  0  0
 30 66  1  0  0  0  0
 30 67  1  0  0  0  0
 31 33  1  0  0  0  0
 31 68  1  0  0  0  0
 31 69  1  0  0  0  0
 32 34  1  0  0  0  0
 32 35  2  0  0  0  0
 33 39  2  0  0  0  0
 33 71  1  0  0  0  0
 34 36  2  0  0  0  0
 35 37  1  0  0  0  0
 35 72  1  0  0  0  0
 36 38  1  0  0  0  0
 36 74  1  0  0  0  0
 37 38  2  0  0  0  0
 37 75  1  0  0  0  0
 38 76  1  0  0  0  0
 39 77  1  0  0  0  0
 39 78  1  0  0  0  0
M  END
> <PUBCHEM_COMPOUND_CID>
507519
> <PUBCHEM_COMPOUND_CANONICALIZED>
1
> <PUBCHEM_CACTVS_COMPLEXITY>
843
> <PUBCHEM_CACTVS_HBOND_ACCEPTOR>
7
> <PUBCHEM_CACTVS_HBOND_DONOR>
6
> <PUBCHEM_CACTVS_ROTATABLE_BOND>
18
> <PUBCHEM_CACTVS_SUBSKEYS>
AAADcfB7uABEAAAAAAAAAAAAAAAAAAAAAAAwAAAAAAAAAAABAAAAHgYQCAAADSrF2CSyCILAAgSIAiHSGAACAAAgBQAIiIGIAogIYDKBkzGUYAAklgCIiAe8l4IOAAAAAAABAAAAAAAAAAIAAAAAAAAAAA==
> <PUBCHEM_IUPAC_OPENEYE_NAME>
(4S)-5-[[(1S)-1-[[(1R)-2-[2-(2-chlorophenyl)ethylamino]-2-oxo-1-(sulfanylmethyl)ethyl]carbamoyl]-3-methyl-butyl]amino]-5-oxo-4-(pent-4-enoylamino)pentanoic acid
> <PUBCHEM_IUPAC_CAS_NAME>
(4S)-5-[[(2S)-1-[[(2R)-1-[2-(2-chlorophenyl)ethylamino]-3-mercapto-1-oxopropan-2-yl]amino]-4-methyl-1-oxopentan-2-yl]amino]-5-oxo-4-(1-oxopent-4-enylamino)pentanoic acid
> <PUBCHEM_IUPAC_NAME_MARKUP>
(4<I>S</I>)-5-[[(2<I>S</I>)-1-[[(2<I>R</I>)-1-[2-(2-chlorophenyl)ethylamino]-1-oxo-3-sulfanylpropan-2-yl]amino]-4-methyl-1-oxopentan-2-yl]amino]-5-oxo-4-(pent-4-enoylamino)pentanoic acid
> <PUBCHEM_IUPAC_NAME>
(4S)-5-[[(2S)-1-[[(2R)-1-[2-(2-chlorophenyl)ethylamino]-1-oxo-3-sulfanylpropan-2-yl]amino]-4-methyl-1-oxopentan-2-yl]amino]-5-oxo-4-(pent-4-enoylamino)pentanoic acid
> <PUBCHEM_IUPAC_SYSTEMATIC_NAME>
(4S)-5-[[(2S)-1-[[(2R)-1-[2-(2-chlorophenyl)ethylamino]-1-oxidanylidene-3-sulfanyl-propan-2-yl]amino]-4-methyl-1-oxidanylidene-pentan-2-yl]amino]-5-oxidanylidene-4-(pent-4-enoylamino)pentanoic acid
> <PUBCHEM_IUPAC_TRADITIONAL_NAME>
(4S)-5-[[(1S)-1-[[(1R)-2-[2-(2-chlorophenyl)ethylamino]-2-keto-1-(mercaptomethyl)ethyl]carbamoyl]-3-methyl-butyl]amino]-5-keto-4-(pent-4-enoylamino)valeric acid
> <PUBCHEM_IUPAC_INCHI>
InChI=1S/C27H39ClN4O6S/c1-4-5-10-23(33)30-20(11-12-24(34)35)26(37)31-21(15-17(2)3)27(38)32-22(16-39)25(36)29-14-13-18-8-6-7-9-19(18)28/h4,6-9,17,20-22,39H,1,5,10-16H2,2-3H3,(H,29,36)(H,30,33)(H,31,37)(H,32,38)(H,34,35)/t20-,21-,22-/m0/s1
> <PUBCHEM_IUPAC_INCHIKEY>
GDDXNVGCBQBVOC-FKBYEOEOSA-N
> <PUBCHEM_XLOGP3_AA>
3.1
> <PUBCHEM_EXACT_MASS>
582.2278838
> <PUBCHEM_MOLECULAR_FORMULA>
C27H39ClN4O6S
> <PUBCHEM_MOLECULAR_WEIGHT>
583.1
> <PUBCHEM_OPENEYE_CAN_SMILES>
CC(C)CC(C(=O)NC(CS)C(=O)NCCC1=CC=CC=C1Cl)NC(=O)C(CCC(=O)O)NC(=O)CCC=C
> <PUBCHEM_OPENEYE_ISO_SMILES>
CC(C)C[C@@H](C(=O)N[C@@H](CS)C(=O)NCCC1=CC=CC=C1Cl)NC(=O)[C@H](CCC(=O)O)NC(=O)CCC=C
> <PUBCHEM_CACTVS_TPSA>
155
> <PUBCHEM_MONOISOTOPIC_WEIGHT>
582.2278838
> <PUBCHEM_TOTAL_CHARGE>
0
> <PUBCHEM_HEAVY_ATOM_COUNT>
39
> <PUBCHEM_ATOM_DEF_STEREO_COUNT>
3
> <PUBCHEM_ATOM_UDEF_STEREO_COUNT>
0
> <PUBCHEM_BOND_DEF_STEREO_COUNT>
0
> <PUBCHEM_BOND_UDEF_STEREO_COUNT>
0
> <PUBCHEM_ISOTOPIC_ATOM_COUNT>
0
> <PUBCHEM_COMPONENT_COUNT>
1
> <PUBCHEM_CACTVS_TAUTO_COUNT>
-1
> <PUBCHEM_COORDINATE_TYPE>
1
5
255
> <PUBCHEM_BONDANNOTATIONS>
22  10  6
16  11  5
32  34  8
32  35  8
34  36  8
35  37  8
36  38  8
37  38  8
13  9  5
$$$$
