507532
  -OEChem-10302200282D
 90 90  0     1  0  0  0  0  0999 V2000
    3.7320    0.0950    0.0000 S   0  0  0  0  0  0  0  0  0  0  0  0
    5.4641    5.0950    0.0000 O   0  0  0  0  0  0  0  0  0  0  0  0
    4.5981    1.5950    0.0000 O   0  0  0  0  0  0  0  0  0  0  0  0
    4.5981    0.5950    0.0000 O   0  0  0  0  0  0  0  0  0  0  0  0
    2.8660    8.5950    0.0000 O   0  0  0  0  0  0  0  0  0  0  0  0
    2.0000    7.0950    0.0000 O   0  0  0  0  0  0  0  0  0  0  0  0
    7.1962    6.0950    0.0000 O   0  0  0  0  0  0  0  0  0  0  0  0
    5.4641   -2.9050    0.0000 O   0  0  0  0  0  0  0  0  0  0  0  0
    8.0622    4.5950    0.0000 O   0  0  0  0  0  0  0  0  0  0  0  0
    2.8660   -8.4050    0.0000 O   0  0  0  0  0  0  0  0  0  0  0  0
    4.5981    3.5950    0.0000 N   0  0  0  0  0  0  0  0  0  0  0  0
    6.3301    1.5950    0.0000 N   0  0  0  0  0  0  0  0  0  0  0  0
    5.4641   -0.9050    0.0000 N   0  0  0  0  0  0  0  0  0  0  0  0
    3.7320   -2.9050    0.0000 N   0  0  0  0  0  0  0  0  0  0  0  0
    3.7320    6.0950    0.0000 C   0  0  0  0  0  0  0  0  0  0  0  0
    3.7320    5.0950    0.0000 C   0  0  0  0  0  0  0  0  0  0  0  0
    6.3301    0.5950    0.0000 C   0  0  1  0  0  0  0  0  0  0  0  0
    3.7320    7.0950    0.0000 C   0  0  0  0  0  0  0  0  0  0  0  0
    7.1962    0.0950    0.0000 C   0  0  0  0  0  0  0  0  0  0  0  0
    5.4641    3.0950    0.0000 C   0  0  1  0  0  0  0  0  0  0  0  0
    2.7320    6.0950    0.0000 C   0  0  0  0  0  0  0  0  0  0  0  0
    4.7320    6.0950    0.0000 C   0  0  0  0  0  0  0  0  0  0  0  0
    8.0622    0.5950    0.0000 C   0  0  0  0  0  0  0  0  0  0  0  0
    4.5981    4.5950    0.0000 C   0  0  0  0  0  0  0  0  0  0  0  0
    6.3301    3.5950    0.0000 C   0  0  0  0  0  0  0  0  0  0  0  0
    5.4641    2.0950    0.0000 C   0  0  0  0  0  0  0  0  0  0  0  0
    5.4641    0.0950    0.0000 C   0  0  0  0  0  0  0  0  0  0  0  0
    8.9282    0.0950    0.0000 C   0  0  0  0  0  0  0  0  0  0  0  0
    8.0622    1.5950    0.0000 C   0  0  0  0  0  0  0  0  0  0  0  0
    2.8660    7.5950    0.0000 C   0  0  0  0  0  0  0  0  0  0  0  0
    6.3301    4.5950    0.0000 C   0  0  0  0  0  0  0  0  0  0  0  0
    4.5981   -1.4050    0.0000 C   0  0  1  0  0  0  0  0  0  0  0  0
    3.7320   -0.9050    0.0000 C   0  0  0  0  0  0  0  0  0  0  0  0
    4.5981   -2.4050    0.0000 C   0  0  0  0  0  0  0  0  0  0  0  0
    7.1962    5.0950    0.0000 C   0  0  0  0  0  0  0  0  0  0  0  0
    3.7320   -3.9050    0.0000 C   0  0  0  0  0  0  0  0  0  0  0  0
    2.8660   -4.4050    0.0000 C   0  0  0  0  0  0  0  0  0  0  0  0
    2.8660   -5.4050    0.0000 C   0  0  0  0  0  0  0  0  0  0  0  0
    3.7320   -5.9050    0.0000 C   0  0  0  0  0  0  0  0  0  0  0  0
    2.0000   -5.9050    0.0000 C   0  0  0  0  0  0  0  0  0  0  0  0
    3.7320   -6.9050    0.0000 C   0  0  0  0  0  0  0  0  0  0  0  0
    2.0000   -6.9050    0.0000 C   0  0  0  0  0  0  0  0  0  0  0  0
    2.8660   -7.4050    0.0000 C   0  0  0  0  0  0  0  0  0  0  0  0
    2.0000   -8.9050    0.0000 C   0  0  0  0  0  0  0  0  0  0  0  0
    3.1215    5.2027    0.0000 H   0  0  0  0  0  0  0  0  0  0  0  0
    3.5200    4.5124    0.0000 H   0  0  0  0  0  0  0  0  0  0  0  0
    6.8671    0.9050    0.0000 H   0  0  0  0  0  0  0  0  0  0  0  0
    4.3426    6.9873    0.0000 H   0  0  0  0  0  0  0  0  0  0  0  0
    3.9441    7.6776    0.0000 H   0  0  0  0  0  0  0  0  0  0  0  0
    6.7976   -0.3799    0.0000 H   0  0  0  0  0  0  0  0  0  0  0  0
    7.5947   -0.3799    0.0000 H   0  0  0  0  0  0  0  0  0  0  0  0
    5.4641    3.7150    0.0000 H   0  0  0  0  0  0  0  0  0  0  0  0
    2.7320    6.7150    0.0000 H   0  0  0  0  0  0  0  0  0  0  0  0
    2.1120    6.0950    0.0000 H   0  0  0  0  0  0  0  0  0  0  0  0
    2.7320    5.4750    0.0000 H   0  0  0  0  0  0  0  0  0  0  0  0
    4.7320    5.4750    0.0000 H   0  0  0  0  0  0  0  0  0  0  0  0
    5.3520    6.0950    0.0000 H   0  0  0  0  0  0  0  0  0  0  0  0
    4.7320    6.7150    0.0000 H   0  0  0  0  0  0  0  0  0  0  0  0
    8.0622   -0.0250    0.0000 H   0  0  0  0  0  0  0  0  0  0  0  0
    4.0611    3.2850    0.0000 H   0  0  0  0  0  0  0  0  0  0  0  0
    6.5422    3.0124    0.0000 H   0  0  0  0  0  0  0  0  0  0  0  0
    6.9407    3.7027    0.0000 H   0  0  0  0  0  0  0  0  0  0  0  0
    6.8671    1.9050    0.0000 H   0  0  0  0  0  0  0  0  0  0  0  0
    8.6182   -0.4419    0.0000 H   0  0  0  0  0  0  0  0  0  0  0  0
    9.4651   -0.2150    0.0000 H   0  0  0  0  0  0  0  0  0  0  0  0
    9.2382    0.6319    0.0000 H   0  0  0  0  0  0  0  0  0  0  0  0
    8.6822    1.5950    0.0000 H   0  0  0  0  0  0  0  0  0  0  0  0
    8.0622    2.2150    0.0000 H   0  0  0  0  0  0  0  0  0  0  0  0
    7.4422    1.5950    0.0000 H   0  0  0  0  0  0  0  0  0  0  0  0
    6.1181    5.1776    0.0000 H   0  0  0  0  0  0  0  0  0  0  0  0
    5.7196    4.4873    0.0000 H   0  0  0  0  0  0  0  0  0  0  0  0
    6.0010   -1.2150    0.0000 H   0  0  0  0  0  0  0  0  0  0  0  0
    4.5981   -0.7850    0.0000 H   0  0  0  0  0  0  0  0  0  0  0  0
    3.1215   -0.7973    0.0000 H   0  0  0  0  0  0  0  0  0  0  0  0
    3.5200   -1.4876    0.0000 H   0  0  0  0  0  0  0  0  0  0  0  0
    2.3291    8.9050    0.0000 H   0  0  0  0  0  0  0  0  0  0  0  0
    3.1951   -2.5950    0.0000 H   0  0  0  0  0  0  0  0  0  0  0  0
    3.9441   -4.4876    0.0000 H   0  0  0  0  0  0  0  0  0  0  0  0
    4.3426   -3.7973    0.0000 H   0  0  0  0  0  0  0  0  0  0  0  0
    2.6540   -3.8224    0.0000 H   0  0  0  0  0  0  0  0  0  0  0  0
    2.2554   -4.5127    0.0000 H   0  0  0  0  0  0  0  0  0  0  0  0
    3.1951    0.4050    0.0000 H   0  0  0  0  0  0  0  0  0  0  0  0
    7.7331    6.4050    0.0000 H   0  0  0  0  0  0  0  0  0  0  0  0
    4.2690   -5.5950    0.0000 H   0  0  0  0  0  0  0  0  0  0  0  0
    1.4631   -5.5950    0.0000 H   0  0  0  0  0  0  0  0  0  0  0  0
    4.2690   -7.2150    0.0000 H   0  0  0  0  0  0  0  0  0  0  0  0
    1.4631   -7.2150    0.0000 H   0  0  0  0  0  0  0  0  0  0  0  0
    1.6900   -8.3681    0.0000 H   0  0  0  0  0  0  0  0  0  0  0  0
    1.4631   -9.2150    0.0000 H   0  0  0  0  0  0  0  0  0  0  0  0
    2.3100   -9.4419    0.0000 H   0  0  0  0  0  0  0  0  0  0  0  0
  1 33  1  0  0  0  0
  1 82  1  0  0  0  0
  2 24  2  0  0  0  0
  3 26  2  0  0  0  0
  4 27  2  0  0  0  0
  5 30  1  0  0  0  0
  5 76  1  0  0  0  0
  6 30  2  0  0  0  0
  7 35  1  0  0  0  0
  7 83  1  0  0  0  0
  8 34  2  0  0  0  0
  9 35  2  0  0  0  0
 10 43  1  0  0  0  0
 10 44  1  0  0  0  0
 20 11  1  1  0  0  0
 11 24  1  0  0  0  0
 11 60  1  0  0  0  0
 17 12  1  1  0  0  0
 12 26  1  0  0  0  0
 12 63  1  0  0  0  0
 13 27  1  0  0  0  0
 32 13  1  6  0  0  0
 13 72  1  0  0  0  0
 14 34  1  0  0  0  0
 14 36  1  0  0  0  0
 14 77  1  0  0  0  0
 15 16  1  0  0  0  0
 15 18  1  0  0  0  0
 15 21  1  0  0  0  0
 15 22  1  0  0  0  0
 16 24  1  0  0  0  0
 16 45  1  0  0  0  0
 16 46  1  0  0  0  0
 17 19  1  0  0  0  0
 17 27  1  0  0  0  0
 17 47  1  0  0  0  0
 18 30  1  0  0  0  0
 18 48  1  0  0  0  0
 18 49  1  0  0  0  0
 19 23  1  0  0  0  0
 19 50  1  0  0  0  0
 19 51  1  0  0  0  0
 20 25  1  0  0  0  0
 20 26  1  0  0  0  0
 20 52  1  0  0  0  0
 21 53  1  0  0  0  0
 21 54  1  0  0  0  0
 21 55  1  0  0  0  0
 22 56  1  0  0  0  0
 22 57  1  0  0  0  0
 22 58  1  0  0  0  0
 23 28  1  0  0  0  0
 23 29  1  0  0  0  0
 23 59  1  0  0  0  0
 25 31  1  0  0  0  0
 25 61  1  0  0  0  0
 25 62  1  0  0  0  0
 28 64  1  0  0  0  0
 28 65  1  0  0  0  0
 28 66  1  0  0  0  0
 29 67  1  0  0  0  0
 29 68  1  0  0  0  0
 29 69  1  0  0  0  0
 31 35  1  0  0  0  0
 31 70  1  0  0  0  0
 31 71  1  0  0  0  0
 32 33  1  0  0  0  0
 32 34  1  0  0  0  0
 32 73  1  0  0  0  0
 33 74  1  0  0  0  0
 33 75  1  0  0  0  0
 36 37  1  0  0  0  0
 36 78  1  0  0  0  0
 36 79  1  0  0  0  0
 37 38  1  0  0  0  0
 37 80  1  0  0  0  0
 37 81  1  0  0  0  0
 38 39  2  0  0  0  0
 38 40  1  0  0  0  0
 39 41  1  0  0  0  0
 39 84  1  0  0  0  0
 40 42  2  0  0  0  0
 40 85  1  0  0  0  0
 41 43  2  0  0  0  0
 41 86  1  0  0  0  0
 42 43  1  0  0  0  0
 42 87  1  0  0  0  0
 44 88  1  0  0  0  0
 44 89  1  0  0  0  0
 44 90  1  0  0  0  0
M  END
> <PUBCHEM_COMPOUND_CID>
507532
> <PUBCHEM_COMPOUND_CANONICALIZED>
1
> <PUBCHEM_CACTVS_COMPLEXITY>
984
> <PUBCHEM_CACTVS_HBOND_ACCEPTOR>
10
> <PUBCHEM_CACTVS_HBOND_DONOR>
7
> <PUBCHEM_CACTVS_ROTATABLE_BOND>
20
> <PUBCHEM_CACTVS_SUBSKEYS>
AAADcfB7vABAAAAAAAAAAAAAAAAAAAAAAAAwAAAAAAAAAAABAAAAHgQQCAAADyzF2AayDoLABgSIAiHSGAACCAAgIAAIiIGOCIgMZjKEsTuUcCAk1hGIqAe814IPIAAAAAAAAABAAAAAAAAAAAAAAAAAAA==
> <PUBCHEM_IUPAC_OPENEYE_NAME>
5-[[(1S)-3-carboxy-1-[[(1S)-1-[[(1R)-2-[2-(4-methoxyphenyl)ethylamino]-2-oxo-1-(sulfanylmethyl)ethyl]carbamoyl]-3-methyl-butyl]carbamoyl]propyl]amino]-3,3-dimethyl-5-oxo-pentanoic acid
> <PUBCHEM_IUPAC_CAS_NAME>
5-[[(2S)-4-carboxy-1-[[(2S)-1-[[(2R)-3-mercapto-1-[2-(4-methoxyphenyl)ethylamino]-1-oxopropan-2-yl]amino]-4-methyl-1-oxopentan-2-yl]amino]-1-oxobutan-2-yl]amino]-3,3-dimethyl-5-oxopentanoic acid
> <PUBCHEM_IUPAC_NAME_MARKUP>
5-[[(2<I>S</I>)-4-carboxy-1-[[(2<I>S</I>)-1-[[(2<I>R</I>)-1-[2-(4-methoxyphenyl)ethylamino]-1-oxo-3-sulfanylpropan-2-yl]amino]-4-methyl-1-oxopentan-2-yl]amino]-1-oxobutan-2-yl]amino]-3,3-dimethyl-5-oxopentanoic acid
> <PUBCHEM_IUPAC_NAME>
5-[[(2S)-4-carboxy-1-[[(2S)-1-[[(2R)-1-[2-(4-methoxyphenyl)ethylamino]-1-oxo-3-sulfanylpropan-2-yl]amino]-4-methyl-1-oxopentan-2-yl]amino]-1-oxobutan-2-yl]amino]-3,3-dimethyl-5-oxopentanoic acid
> <PUBCHEM_IUPAC_SYSTEMATIC_NAME>
5-[[(2S)-1-[[(2S)-1-[[(2R)-1-[2-(4-methoxyphenyl)ethylamino]-1-oxidanylidene-3-sulfanyl-propan-2-yl]amino]-4-methyl-1-oxidanylidene-pentan-2-yl]amino]-5-oxidanyl-1,5-bis(oxidanylidene)pentan-2-yl]amino]-3,3-dimethyl-5-oxidanylidene-pentanoic acid
> <PUBCHEM_IUPAC_TRADITIONAL_NAME>
5-[[(1S)-3-carboxy-1-[[(1S)-1-[[(1R)-2-keto-1-(mercaptomethyl)-2-[2-(4-methoxyphenyl)ethylamino]ethyl]carbamoyl]-3-methyl-butyl]carbamoyl]propyl]amino]-5-keto-3,3-dimethyl-valeric acid
> <PUBCHEM_IUPAC_INCHI>
InChI=1S/C30H46N4O9S/c1-18(2)14-22(29(42)34-23(17-44)27(40)31-13-12-19-6-8-20(43-5)9-7-19)33-28(41)21(10-11-25(36)37)32-24(35)15-30(3,4)16-26(38)39/h6-9,18,21-23,44H,10-17H2,1-5H3,(H,31,40)(H,32,35)(H,33,41)(H,34,42)(H,36,37)(H,38,39)/t21-,22-,23-/m0/s1
> <PUBCHEM_IUPAC_INCHIKEY>
KHWBKUIDCRZGEK-VABKMULXSA-N
> <PUBCHEM_XLOGP3_AA>
2.1
> <PUBCHEM_EXACT_MASS>
638.29855023
> <PUBCHEM_MOLECULAR_FORMULA>
C30H46N4O9S
> <PUBCHEM_MOLECULAR_WEIGHT>
638.8
> <PUBCHEM_OPENEYE_CAN_SMILES>
CC(C)CC(C(=O)NC(CS)C(=O)NCCC1=CC=C(C=C1)OC)NC(=O)C(CCC(=O)O)NC(=O)CC(C)(C)CC(=O)O
> <PUBCHEM_OPENEYE_ISO_SMILES>
CC(C)C[C@@H](C(=O)N[C@@H](CS)C(=O)NCCC1=CC=C(C=C1)OC)NC(=O)[C@H](CCC(=O)O)NC(=O)CC(C)(C)CC(=O)O
> <PUBCHEM_CACTVS_TPSA>
201
> <PUBCHEM_MONOISOTOPIC_WEIGHT>
638.29855023
> <PUBCHEM_TOTAL_CHARGE>
0
> <PUBCHEM_HEAVY_ATOM_COUNT>
44
> <PUBCHEM_ATOM_DEF_STEREO_COUNT>
3
> <PUBCHEM_ATOM_UDEF_STEREO_COUNT>
0
> <PUBCHEM_BOND_DEF_STEREO_COUNT>
0
> <PUBCHEM_BOND_UDEF_STEREO_COUNT>
0
> <PUBCHEM_ISOTOPIC_ATOM_COUNT>
0
> <PUBCHEM_COMPONENT_COUNT>
1
> <PUBCHEM_CACTVS_TAUTO_COUNT>
-1
> <PUBCHEM_COORDINATE_TYPE>
1
5
255
> <PUBCHEM_BONDANNOTATIONS>
20  11  5
17  12  5
32  13  6
38  39  8
38  40  8
39  41  8
40  42  8
41  43  8
42  43  8
$$$$
