507514
  -OEChem-10302200282D
 82 83  0     1  0  0  0  0  0999 V2000
    3.7320    0.7306    0.0000 S   0  0  0  0  0  0  0  0  0  0  0  0
    4.5411    7.3184    0.0000 S   0  0  0  0  0  0  0  0  0  0  0  0
    4.5981    1.2306    0.0000 O   0  0  0  0  0  0  0  0  0  0  0  0
    4.5981    2.2306    0.0000 O   0  0  0  0  0  0  0  0  0  0  0  0
    5.4641   -2.2694    0.0000 O   0  0  0  0  0  0  0  0  0  0  0  0
    5.4641    5.7306    0.0000 O   0  0  0  0  0  0  0  0  0  0  0  0
    7.1962    6.7306    0.0000 O   0  0  0  0  0  0  0  0  0  0  0  0
    8.0622    5.2306    0.0000 O   0  0  0  0  0  0  0  0  0  0  0  0
    2.8660   -7.7694    0.0000 O   0  0  0  0  0  0  0  0  0  0  0  0
    6.3301    2.2306    0.0000 N   0  0  0  0  0  0  0  0  0  0  0  0
    5.4641   -0.2694    0.0000 N   0  0  0  0  0  0  0  0  0  0  0  0
    4.5981    4.2306    0.0000 N   0  0  0  0  0  0  0  0  0  0  0  0
    3.7320   -2.2694    0.0000 N   0  0  0  0  0  0  0  0  0  0  0  0
    6.3301    1.2306    0.0000 C   0  0  1  0  0  0  0  0  0  0  0  0
    7.1962    0.7306    0.0000 C   0  0  0  0  0  0  0  0  0  0  0  0
    8.0622    1.2306    0.0000 C   0  0  0  0  0  0  0  0  0  0  0  0
    5.4641    0.7306    0.0000 C   0  0  0  0  0  0  0  0  0  0  0  0
    5.4641    3.7306    0.0000 C   0  0  2  0  0  0  0  0  0  0  0  0
    8.9282    0.7306    0.0000 C   0  0  0  0  0  0  0  0  0  0  0  0
    8.0622    2.2306    0.0000 C   0  0  0  0  0  0  0  0  0  0  0  0
    5.4641    2.7306    0.0000 C   0  0  0  0  0  0  0  0  0  0  0  0
    6.3301    4.2306    0.0000 C   0  0  0  0  0  0  0  0  0  0  0  0
    4.5981   -0.7694    0.0000 C   0  0  1  0  0  0  0  0  0  0  0  0
    6.3301    5.2306    0.0000 C   0  0  0  0  0  0  0  0  0  0  0  0
    3.7320   -0.2694    0.0000 C   0  0  0  0  0  0  0  0  0  0  0  0
    4.5981   -1.7694    0.0000 C   0  0  0  0  0  0  0  0  0  0  0  0
    4.5981    5.2306    0.0000 C   0  0  0  0  0  0  0  0  0  0  0  0
    3.7320   -3.2694    0.0000 C   0  0  0  0  0  0  0  0  0  0  0  0
    3.7320    5.7306    0.0000 C   0  0  0  0  0  0  0  0  0  0  0  0
    7.1962    5.7306    0.0000 C   0  0  0  0  0  0  0  0  0  0  0  0
    2.8660   -3.7694    0.0000 C   0  0  0  0  0  0  0  0  0  0  0  0
    2.8660   -4.7694    0.0000 C   0  0  0  0  0  0  0  0  0  0  0  0
    3.7320    6.7306    0.0000 C   0  0  0  0  0  0  0  0  0  0  0  0
    3.7320   -5.2694    0.0000 C   0  0  0  0  0  0  0  0  0  0  0  0
    2.0000   -5.2694    0.0000 C   0  0  0  0  0  0  0  0  0  0  0  0
    2.9230    7.3184    0.0000 C   0  0  0  0  0  0  0  0  0  0  0  0
    3.7320   -6.2694    0.0000 C   0  0  0  0  0  0  0  0  0  0  0  0
    2.0000   -6.2694    0.0000 C   0  0  0  0  0  0  0  0  0  0  0  0
    2.8660   -6.7694    0.0000 C   0  0  0  0  0  0  0  0  0  0  0  0
    3.2320    8.2694    0.0000 C   0  0  0  0  0  0  0  0  0  0  0  0
    4.2320    8.2694    0.0000 C   0  0  0  0  0  0  0  0  0  0  0  0
    2.0000   -8.2694    0.0000 C   0  0  0  0  0  0  0  0  0  0  0  0
    6.8671    1.5406    0.0000 H   0  0  0  0  0  0  0  0  0  0  0  0
    6.7976    0.2556    0.0000 H   0  0  0  0  0  0  0  0  0  0  0  0
    7.5947    0.2556    0.0000 H   0  0  0  0  0  0  0  0  0  0  0  0
    8.0622    0.6106    0.0000 H   0  0  0  0  0  0  0  0  0  0  0  0
    6.8671    2.5406    0.0000 H   0  0  0  0  0  0  0  0  0  0  0  0
    5.4641    4.3506    0.0000 H   0  0  0  0  0  0  0  0  0  0  0  0
    8.6182    0.1936    0.0000 H   0  0  0  0  0  0  0  0  0  0  0  0
    9.4651    0.4206    0.0000 H   0  0  0  0  0  0  0  0  0  0  0  0
    9.2382    1.2675    0.0000 H   0  0  0  0  0  0  0  0  0  0  0  0
    8.6822    2.2306    0.0000 H   0  0  0  0  0  0  0  0  0  0  0  0
    8.0622    2.8506    0.0000 H   0  0  0  0  0  0  0  0  0  0  0  0
    7.4422    2.2306    0.0000 H   0  0  0  0  0  0  0  0  0  0  0  0
    6.5422    3.6480    0.0000 H   0  0  0  0  0  0  0  0  0  0  0  0
    6.9407    4.3382    0.0000 H   0  0  0  0  0  0  0  0  0  0  0  0
    6.0010   -0.5794    0.0000 H   0  0  0  0  0  0  0  0  0  0  0  0
    4.5981   -0.1494    0.0000 H   0  0  0  0  0  0  0  0  0  0  0  0
    4.0611    3.9206    0.0000 H   0  0  0  0  0  0  0  0  0  0  0  0
    6.1181    5.8132    0.0000 H   0  0  0  0  0  0  0  0  0  0  0  0
    5.7196    5.1229    0.0000 H   0  0  0  0  0  0  0  0  0  0  0  0
    3.1215   -0.1618    0.0000 H   0  0  0  0  0  0  0  0  0  0  0  0
    3.5200   -0.8520    0.0000 H   0  0  0  0  0  0  0  0  0  0  0  0
    3.1951   -1.9594    0.0000 H   0  0  0  0  0  0  0  0  0  0  0  0
    3.9441   -3.8520    0.0000 H   0  0  0  0  0  0  0  0  0  0  0  0
    4.3426   -3.1618    0.0000 H   0  0  0  0  0  0  0  0  0  0  0  0
    3.1215    5.8382    0.0000 H   0  0  0  0  0  0  0  0  0  0  0  0
    3.5200    5.1480    0.0000 H   0  0  0  0  0  0  0  0  0  0  0  0
    2.6540   -3.1868    0.0000 H   0  0  0  0  0  0  0  0  0  0  0  0
    2.2554   -3.8771    0.0000 H   0  0  0  0  0  0  0  0  0  0  0  0
    3.1951    1.0406    0.0000 H   0  0  0  0  0  0  0  0  0  0  0  0
    4.2690   -4.9594    0.0000 H   0  0  0  0  0  0  0  0  0  0  0  0
    1.4631   -4.9594    0.0000 H   0  0  0  0  0  0  0  0  0  0  0  0
    2.3334    7.1268    0.0000 H   0  0  0  0  0  0  0  0  0  0  0  0
    7.7331    7.0406    0.0000 H   0  0  0  0  0  0  0  0  0  0  0  0
    4.2690   -6.5794    0.0000 H   0  0  0  0  0  0  0  0  0  0  0  0
    1.4631   -6.5794    0.0000 H   0  0  0  0  0  0  0  0  0  0  0  0
    2.8676    8.7710    0.0000 H   0  0  0  0  0  0  0  0  0  0  0  0
    4.5965    8.7710    0.0000 H   0  0  0  0  0  0  0  0  0  0  0  0
    1.6900   -7.7325    0.0000 H   0  0  0  0  0  0  0  0  0  0  0  0
    1.4631   -8.5794    0.0000 H   0  0  0  0  0  0  0  0  0  0  0  0
    2.3100   -8.8064    0.0000 H   0  0  0  0  0  0  0  0  0  0  0  0
  1 25  1  0  0  0  0
  1 71  1  0  0  0  0
  2 33  1  0  0  0  0
  2 41  1  0  0  0  0
  3 17  2  0  0  0  0
  4 21  2  0  0  0  0
  5 26  2  0  0  0  0
  6 27  2  0  0  0  0
  7 30  1  0  0  0  0
  7 75  1  0  0  0  0
  8 30  2  0  0  0  0
  9 39  1  0  0  0  0
  9 42  1  0  0  0  0
 14 10  1  1  0  0  0
 10 21  1  0  0  0  0
 10 47  1  0  0  0  0
 11 17  1  0  0  0  0
 23 11  1  6  0  0  0
 11 57  1  0  0  0  0
 18 12  1  1  0  0  0
 12 27  1  0  0  0  0
 12 59  1  0  0  0  0
 13 26  1  0  0  0  0
 13 28  1  0  0  0  0
 13 64  1  0  0  0  0
 14 15  1  0  0  0  0
 14 17  1  0  0  0  0
 14 43  1  0  0  0  0
 15 16  1  0  0  0  0
 15 44  1  0  0  0  0
 15 45  1  0  0  0  0
 16 19  1  0  0  0  0
 16 20  1  0  0  0  0
 16 46  1  0  0  0  0
 18 21  1  0  0  0  0
 18 22  1  0  0  0  0
 18 48  1  0  0  0  0
 19 49  1  0  0  0  0
 19 50  1  0  0  0  0
 19 51  1  0  0  0  0
 20 52  1  0  0  0  0
 20 53  1  0  0  0  0
 20 54  1  0  0  0  0
 22 24  1  0  0  0  0
 22 55  1  0  0  0  0
 22 56  1  0  0  0  0
 23 25  1  0  0  0  0
 23 26  1  0  0  0  0
 23 58  1  0  0  0  0
 24 30  1  0  0  0  0
 24 60  1  0  0  0  0
 24 61  1  0  0  0  0
 25 62  1  0  0  0  0
 25 63  1  0  0  0  0
 27 29  1  0  0  0  0
 28 31  1  0  0  0  0
 28 65  1  0  0  0  0
 28 66  1  0  0  0  0
 29 33  1  0  0  0  0
 29 67  1  0  0  0  0
 29 68  1  0  0  0  0
 31 32  1  0  0  0  0
 31 69  1  0  0  0  0
 31 70  1  0  0  0  0
 32 34  2  0  0  0  0
 32 35  1  0  0  0  0
 33 36  2  0  0  0  0
 34 37  1  0  0  0  0
 34 72  1  0  0  0  0
 35 38  2  0  0  0  0
 35 73  1  0  0  0  0
 36 40  1  0  0  0  0
 36 74  1  0  0  0  0
 37 39  2  0  0  0  0
 37 76  1  0  0  0  0
 38 39  1  0  0  0  0
 38 77  1  0  0  0  0
 40 41  2  0  0  0  0
 40 78  1  0  0  0  0
 41 79  1  0  0  0  0
 42 80  1  0  0  0  0
 42 81  1  0  0  0  0
 42 82  1  0  0  0  0
M  END
> <PUBCHEM_COMPOUND_CID>
507514
> <PUBCHEM_COMPOUND_CANONICALIZED>
1
> <PUBCHEM_CACTVS_COMPLEXITY>
899
> <PUBCHEM_CACTVS_HBOND_ACCEPTOR>
9
> <PUBCHEM_CACTVS_HBOND_DONOR>
6
> <PUBCHEM_CACTVS_ROTATABLE_BOND>
18
> <PUBCHEM_CACTVS_SUBSKEYS>
AAADcfB7uABgAAAAAAAAAAAAAAAAASAAAAAwAAAAAAAAAAABwAAAHgQQCAAADSzF2AayD4LABgyMAiHSGAADCIAgKBBIiJmOCIgMZjKktTuUcCAk1hGoqAe834IOIAAAAAAAAABAAAAAAAAAAAAAAAAAAA==
> <PUBCHEM_IUPAC_OPENEYE_NAME>
(4S)-5-[[(1S)-1-[[(1R)-2-[2-(4-methoxyphenyl)ethylamino]-2-oxo-1-(sulfanylmethyl)ethyl]carbamoyl]-3-methyl-butyl]amino]-5-oxo-4-[[2-(2-thienyl)acetyl]amino]pentanoic acid
> <PUBCHEM_IUPAC_CAS_NAME>
(4S)-5-[[(2S)-1-[[(2R)-3-mercapto-1-[2-(4-methoxyphenyl)ethylamino]-1-oxopropan-2-yl]amino]-4-methyl-1-oxopentan-2-yl]amino]-5-oxo-4-[(1-oxo-2-thiophen-2-ylethyl)amino]pentanoic acid
> <PUBCHEM_IUPAC_NAME_MARKUP>
(4<I>S</I>)-5-[[(2<I>S</I>)-1-[[(2<I>R</I>)-1-[2-(4-methoxyphenyl)ethylamino]-1-oxo-3-sulfanylpropan-2-yl]amino]-4-methyl-1-oxopentan-2-yl]amino]-5-oxo-4-[(2-thiophen-2-ylacetyl)amino]pentanoic acid
> <PUBCHEM_IUPAC_NAME>
(4S)-5-[[(2S)-1-[[(2R)-1-[2-(4-methoxyphenyl)ethylamino]-1-oxo-3-sulfanylpropan-2-yl]amino]-4-methyl-1-oxopentan-2-yl]amino]-5-oxo-4-[(2-thiophen-2-ylacetyl)amino]pentanoic acid
> <PUBCHEM_IUPAC_SYSTEMATIC_NAME>
(4S)-5-[[(2S)-1-[[(2R)-1-[2-(4-methoxyphenyl)ethylamino]-1-oxidanylidene-3-sulfanyl-propan-2-yl]amino]-4-methyl-1-oxidanylidene-pentan-2-yl]amino]-5-oxidanylidene-4-(2-thiophen-2-ylethanoylamino)pentanoic acid
> <PUBCHEM_IUPAC_TRADITIONAL_NAME>
(4S)-5-keto-5-[[(1S)-1-[[(1R)-2-keto-1-(mercaptomethyl)-2-[2-(4-methoxyphenyl)ethylamino]ethyl]carbamoyl]-3-methyl-butyl]amino]-4-[[2-(2-thienyl)acetyl]amino]valeric acid
> <PUBCHEM_IUPAC_INCHI>
InChI=1S/C29H40N4O7S2/c1-18(2)15-23(32-28(38)22(10-11-26(35)36)31-25(34)16-21-5-4-14-42-21)29(39)33-24(17-41)27(37)30-13-12-19-6-8-20(40-3)9-7-19/h4-9,14,18,22-24,41H,10-13,15-17H2,1-3H3,(H,30,37)(H,31,34)(H,32,38)(H,33,39)(H,35,36)/t22-,23-,24-/m0/s1
> <PUBCHEM_IUPAC_INCHIKEY>
PWNVXJCSZRVQBZ-HJOGWXRNSA-N
> <PUBCHEM_XLOGP3_AA>
2.8
> <PUBCHEM_EXACT_MASS>
620.23384197
> <PUBCHEM_MOLECULAR_FORMULA>
C29H40N4O7S2
> <PUBCHEM_MOLECULAR_WEIGHT>
620.8
> <PUBCHEM_OPENEYE_CAN_SMILES>
CC(C)CC(C(=O)NC(CS)C(=O)NCCC1=CC=C(C=C1)OC)NC(=O)C(CCC(=O)O)NC(=O)CC2=CC=CS2
> <PUBCHEM_OPENEYE_ISO_SMILES>
CC(C)C[C@@H](C(=O)N[C@@H](CS)C(=O)NCCC1=CC=C(C=C1)OC)NC(=O)[C@H](CCC(=O)O)NC(=O)CC2=CC=CS2
> <PUBCHEM_CACTVS_TPSA>
192
> <PUBCHEM_MONOISOTOPIC_WEIGHT>
620.23384197
> <PUBCHEM_TOTAL_CHARGE>
0
> <PUBCHEM_HEAVY_ATOM_COUNT>
42
> <PUBCHEM_ATOM_DEF_STEREO_COUNT>
3
> <PUBCHEM_ATOM_UDEF_STEREO_COUNT>
0
> <PUBCHEM_BOND_DEF_STEREO_COUNT>
0
> <PUBCHEM_BOND_UDEF_STEREO_COUNT>
0
> <PUBCHEM_ISOTOPIC_ATOM_COUNT>
0
> <PUBCHEM_COMPONENT_COUNT>
1
> <PUBCHEM_CACTVS_TAUTO_COUNT>
-1
> <PUBCHEM_COORDINATE_TYPE>
1
5
255
> <PUBCHEM_BONDANNOTATIONS>
14  10  5
23  11  6
18  12  5
2  33  8
2  41  8
32  34  8
32  35  8
33  36  8
34  37  8
35  38  8
36  40  8
37  39  8
38  39  8
40  41  8
$$$$
