507574
  -OEChem-10302200282D
 88 90  0     1  0  0  0  0  0999 V2000
    2.8660    3.2327    0.0000 Cl  0  0  0  0  0  0  0  0  0  0  0  0
    7.1962    3.7327    0.0000 S   0  0  0  0  0  0  0  0  0  0  0  0
    9.7942    3.2327    0.0000 O   0  0  0  0  0  0  0  0  0  0  0  0
   12.3923    0.7327    0.0000 O   0  0  0  0  0  0  0  0  0  0  0  0
   13.2583   -2.7673    0.0000 O   0  0  0  0  0  0  0  0  0  0  0  0
    7.1962    0.7327    0.0000 O   0  0  0  0  0  0  0  0  0  0  0  0
    9.7942   -3.7673    0.0000 O   0  0  0  0  0  0  0  0  0  0  0  0
   11.5263   -2.7673    0.0000 O   0  0  0  0  0  0  0  0  0  0  0  0
    8.9282   -2.2673    0.0000 O   0  0  0  0  0  0  0  0  0  0  0  0
   10.6603    0.7327    0.0000 N   0  0  0  0  0  0  0  0  0  0  0  0
    8.9282    1.7327    0.0000 N   0  0  0  0  0  0  0  0  0  0  0  0
   12.3923   -1.2673    0.0000 N   0  0  0  0  0  0  0  0  0  0  0  0
    6.3301    2.2327    0.0000 N   0  0  0  0  0  0  0  0  0  0  0  0
   10.6603    1.7327    0.0000 C   0  0  1  0  0  0  0  0  0  0  0  0
   11.5263    2.2327    0.0000 C   0  0  0  0  0  0  0  0  0  0  0  0
   11.5263    3.2327    0.0000 C   0  0  0  0  0  0  0  0  0  0  0  0
   11.5263   -0.7673    0.0000 C   0  0  2  0  0  0  0  0  0  0  0  0
    9.7942    2.2327    0.0000 C   0  0  0  0  0  0  0  0  0  0  0  0
   11.5263    0.2327    0.0000 C   0  0  0  0  0  0  0  0  0  0  0  0
   10.6603   -1.2673    0.0000 C   0  0  0  0  0  0  0  0  0  0  0  0
   12.3923    3.7327    0.0000 C   0  0  0  0  0  0  0  0  0  0  0  0
    8.0622    2.2327    0.0000 C   0  0  1  0  0  0  0  0  0  0  0  0
   12.3923    4.7327    0.0000 C   0  0  0  0  0  0  0  0  0  0  0  0
   10.6603    3.7327    0.0000 C   0  0  0  0  0  0  0  0  0  0  0  0
   10.6603   -2.2673    0.0000 C   0  0  0  0  0  0  0  0  0  0  0  0
   13.2862    3.1980    0.0000 C   0  0  0  0  0  0  0  0  0  0  0  0
   11.5263    5.2327    0.0000 C   0  0  0  0  0  0  0  0  0  0  0  0
   10.6603    4.7327    0.0000 C   0  0  0  0  0  0  0  0  0  0  0  0
    8.0622    3.2327    0.0000 C   0  0  0  0  0  0  0  0  0  0  0  0
    7.1962    1.7327    0.0000 C   0  0  0  0  0  0  0  0  0  0  0  0
   13.2862    5.2673    0.0000 C   0  0  0  0  0  0  0  0  0  0  0  0
   14.1923    3.7118    0.0000 C   0  0  0  0  0  0  0  0  0  0  0  0
   12.3923   -2.2673    0.0000 C   0  0  0  0  0  0  0  0  0  0  0  0
    5.4641    1.7327    0.0000 C   0  0  0  0  0  0  0  0  0  0  0  0
   14.1923    4.7535    0.0000 C   0  0  0  0  0  0  0  0  0  0  0  0
    9.7942   -2.7673    0.0000 C   0  0  0  0  0  0  0  0  0  0  0  0
   14.1244   -4.2673    0.0000 C   0  0  0  0  0  0  0  0  0  0  0  0
    4.5981    2.2327    0.0000 C   0  0  0  0  0  0  0  0  0  0  0  0
   13.2583   -3.7673    0.0000 C   0  0  0  0  0  0  0  0  0  0  0  0
    3.7320    1.7327    0.0000 C   0  0  0  0  0  0  0  0  0  0  0  0
   14.1244   -5.2673    0.0000 C   0  0  0  0  0  0  0  0  0  0  0  0
   14.9904   -3.7673    0.0000 C   0  0  0  0  0  0  0  0  0  0  0  0
    2.8660    2.2327    0.0000 C   0  0  0  0  0  0  0  0  0  0  0  0
    3.7320    0.7327    0.0000 C   0  0  0  0  0  0  0  0  0  0  0  0
    2.0000    1.7327    0.0000 C   0  0  0  0  0  0  0  0  0  0  0  0
    2.8660    0.2327    0.0000 C   0  0  0  0  0  0  0  0  0  0  0  0
    2.0000    0.7327    0.0000 C   0  0  0  0  0  0  0  0  0  0  0  0
   11.1972    1.4227    0.0000 H   0  0  0  0  0  0  0  0  0  0  0  0
   11.7383    1.6501    0.0000 H   0  0  0  0  0  0  0  0  0  0  0  0
   12.1369    2.3403    0.0000 H   0  0  0  0  0  0  0  0  0  0  0  0
   12.0632   -0.4573    0.0000 H   0  0  0  0  0  0  0  0  0  0  0  0
   10.1233    0.4227    0.0000 H   0  0  0  0  0  0  0  0  0  0  0  0
   10.4482   -0.6847    0.0000 H   0  0  0  0  0  0  0  0  0  0  0  0
   10.0497   -1.3750    0.0000 H   0  0  0  0  0  0  0  0  0  0  0  0
    8.0622    1.6127    0.0000 H   0  0  0  0  0  0  0  0  0  0  0  0
    8.9282    1.1127    0.0000 H   0  0  0  0  0  0  0  0  0  0  0  0
   10.1233    3.4227    0.0000 H   0  0  0  0  0  0  0  0  0  0  0  0
   10.8723   -2.8499    0.0000 H   0  0  0  0  0  0  0  0  0  0  0  0
   11.2708   -2.1597    0.0000 H   0  0  0  0  0  0  0  0  0  0  0  0
   12.9292   -0.9573    0.0000 H   0  0  0  0  0  0  0  0  0  0  0  0
   13.2791    2.5780    0.0000 H   0  0  0  0  0  0  0  0  0  0  0  0
   11.5263    5.8527    0.0000 H   0  0  0  0  0  0  0  0  0  0  0  0
   10.1233    5.0427    0.0000 H   0  0  0  0  0  0  0  0  0  0  0  0
    8.6728    3.1250    0.0000 H   0  0  0  0  0  0  0  0  0  0  0  0
    8.2742    3.8153    0.0000 H   0  0  0  0  0  0  0  0  0  0  0  0
   13.2791    5.8873    0.0000 H   0  0  0  0  0  0  0  0  0  0  0  0
   14.7281    3.3998    0.0000 H   0  0  0  0  0  0  0  0  0  0  0  0
    6.3301    2.8527    0.0000 H   0  0  0  0  0  0  0  0  0  0  0  0
    5.0656    1.2577    0.0000 H   0  0  0  0  0  0  0  0  0  0  0  0
    5.8626    1.2577    0.0000 H   0  0  0  0  0  0  0  0  0  0  0  0
   14.7281    5.0656    0.0000 H   0  0  0  0  0  0  0  0  0  0  0  0
   13.5874   -4.5773    0.0000 H   0  0  0  0  0  0  0  0  0  0  0  0
    4.9966    2.7076    0.0000 H   0  0  0  0  0  0  0  0  0  0  0  0
    4.1996    2.7076    0.0000 H   0  0  0  0  0  0  0  0  0  0  0  0
   12.6477   -3.6597    0.0000 H   0  0  0  0  0  0  0  0  0  0  0  0
   13.0463   -4.3499    0.0000 H   0  0  0  0  0  0  0  0  0  0  0  0
    7.1962    4.3527    0.0000 H   0  0  0  0  0  0  0  0  0  0  0  0
   13.5044   -5.2673    0.0000 H   0  0  0  0  0  0  0  0  0  0  0  0
   14.1244   -5.8873    0.0000 H   0  0  0  0  0  0  0  0  0  0  0  0
   14.7444   -5.2673    0.0000 H   0  0  0  0  0  0  0  0  0  0  0  0
   15.3004   -4.3043    0.0000 H   0  0  0  0  0  0  0  0  0  0  0  0
   15.5273   -3.4573    0.0000 H   0  0  0  0  0  0  0  0  0  0  0  0
   14.6804   -3.2304    0.0000 H   0  0  0  0  0  0  0  0  0  0  0  0
    4.2690    0.4227    0.0000 H   0  0  0  0  0  0  0  0  0  0  0  0
    9.2573   -4.0773    0.0000 H   0  0  0  0  0  0  0  0  0  0  0  0
    1.4631    2.0427    0.0000 H   0  0  0  0  0  0  0  0  0  0  0  0
    2.8660   -0.3873    0.0000 H   0  0  0  0  0  0  0  0  0  0  0  0
    1.4631    0.4227    0.0000 H   0  0  0  0  0  0  0  0  0  0  0  0
  1 43  1  0  0  0  0
  2 29  1  0  0  0  0
  2 77  1  0  0  0  0
  3 18  2  0  0  0  0
  4 19  2  0  0  0  0
  5 33  1  0  0  0  0
  5 39  1  0  0  0  0
  6 30  2  0  0  0  0
  7 36  1  0  0  0  0
  7 85  1  0  0  0  0
  8 33  2  0  0  0  0
  9 36  2  0  0  0  0
 14 10  1  6  0  0  0
 10 19  1  0  0  0  0
 10 52  1  0  0  0  0
 11 18  1  0  0  0  0
 22 11  1  6  0  0  0
 11 56  1  0  0  0  0
 17 12  1  1  0  0  0
 12 33  1  0  0  0  0
 12 60  1  0  0  0  0
 13 30  1  0  0  0  0
 13 34  1  0  0  0  0
 13 68  1  0  0  0  0
 14 15  1  0  0  0  0
 14 18  1  0  0  0  0
 14 48  1  0  0  0  0
 15 16  1  0  0  0  0
 15 49  1  0  0  0  0
 15 50  1  0  0  0  0
 16 21  1  0  0  0  0
 16 24  2  0  0  0  0
 17 19  1  0  0  0  0
 17 20  1  0  0  0  0
 17 51  1  0  0  0  0
 20 25  1  0  0  0  0
 20 53  1  0  0  0  0
 20 54  1  0  0  0  0
 21 23  1  0  0  0  0
 21 26  2  0  0  0  0
 22 29  1  0  0  0  0
 22 30  1  0  0  0  0
 22 55  1  0  0  0  0
 23 27  1  0  0  0  0
 23 31  2  0  0  0  0
 24 28  1  0  0  0  0
 24 57  1  0  0  0  0
 25 36  1  0  0  0  0
 25 58  1  0  0  0  0
 25 59  1  0  0  0  0
 26 32  1  0  0  0  0
 26 61  1  0  0  0  0
 27 28  2  0  0  0  0
 27 62  1  0  0  0  0
 28 63  1  0  0  0  0
 29 64  1  0  0  0  0
 29 65  1  0  0  0  0
 31 35  1  0  0  0  0
 31 66  1  0  0  0  0
 32 35  2  0  0  0  0
 32 67  1  0  0  0  0
 34 38  1  0  0  0  0
 34 69  1  0  0  0  0
 34 70  1  0  0  0  0
 35 71  1  0  0  0  0
 37 39  1  0  0  0  0
 37 41  1  0  0  0  0
 37 42  1  0  0  0  0
 37 72  1  0  0  0  0
 38 40  1  0  0  0  0
 38 73  1  0  0  0  0
 38 74  1  0  0  0  0
 39 75  1  0  0  0  0
 39 76  1  0  0  0  0
 40 43  1  0  0  0  0
 40 44  2  0  0  0  0
 41 78  1  0  0  0  0
 41 79  1  0  0  0  0
 41 80  1  0  0  0  0
 42 81  1  0  0  0  0
 42 82  1  0  0  0  0
 42 83  1  0  0  0  0
 43 45  2  0  0  0  0
 44 46  1  0  0  0  0
 44 84  1  0  0  0  0
 45 47  1  0  0  0  0
 45 86  1  0  0  0  0
 46 47  2  0  0  0  0
 46 87  1  0  0  0  0
 47 88  1  0  0  0  0
M  END
> <PUBCHEM_COMPOUND_CID>
507574
> <PUBCHEM_COMPOUND_CANONICALIZED>
1
> <PUBCHEM_CACTVS_COMPLEXITY>
1050
> <PUBCHEM_CACTVS_HBOND_ACCEPTOR>
8
> <PUBCHEM_CACTVS_HBOND_DONOR>
6
> <PUBCHEM_CACTVS_ROTATABLE_BOND>
18
> <PUBCHEM_CACTVS_SUBSKEYS>
AAADcfB/uABEAAAAAAAAAAAAAAAAAAAAAAAwYMAAAAAAAADBVAAAHgYQCAAADSrl2CayCMLABgSIAiHSGAACAAAgBQAIiIGIAokIYDKBkzGcYAAklgCIiAe8n8KOgAACAAARAAAAAAQAACIAAAAAAAAAAA==
> <PUBCHEM_IUPAC_OPENEYE_NAME>
(4S)-5-[[(1S)-2-[[(1R)-2-[2-(2-chlorophenyl)ethylamino]-2-oxo-1-(sulfanylmethyl)ethyl]amino]-1-(1-naphthylmethyl)-2-oxo-ethyl]amino]-4-(isobutoxycarbonylamino)-5-oxo-pentanoic acid
> <PUBCHEM_IUPAC_CAS_NAME>
(4S)-5-[[(2S)-1-[[(2R)-1-[2-(2-chlorophenyl)ethylamino]-3-mercapto-1-oxopropan-2-yl]amino]-3-(1-naphthalenyl)-1-oxopropan-2-yl]amino]-4-[[2-methylpropoxy(oxo)methyl]amino]-5-oxopentanoic acid
> <PUBCHEM_IUPAC_NAME_MARKUP>
(4<I>S</I>)-5-[[(2<I>S</I>)-1-[[(2<I>R</I>)-1-[2-(2-chlorophenyl)ethylamino]-1-oxo-3-sulfanylpropan-2-yl]amino]-3-naphthalen-1-yl-1-oxopropan-2-yl]amino]-4-(2-methylpropoxycarbonylamino)-5-oxopentanoic acid
> <PUBCHEM_IUPAC_NAME>
(4S)-5-[[(2S)-1-[[(2R)-1-[2-(2-chlorophenyl)ethylamino]-1-oxo-3-sulfanylpropan-2-yl]amino]-3-naphthalen-1-yl-1-oxopropan-2-yl]amino]-4-(2-methylpropoxycarbonylamino)-5-oxopentanoic acid
> <PUBCHEM_IUPAC_SYSTEMATIC_NAME>
(4S)-5-[[(2S)-1-[[(2R)-1-[2-(2-chlorophenyl)ethylamino]-1-oxidanylidene-3-sulfanyl-propan-2-yl]amino]-3-naphthalen-1-yl-1-oxidanylidene-propan-2-yl]amino]-4-(2-methylpropoxycarbonylamino)-5-oxidanylidene-pentanoic acid
> <PUBCHEM_IUPAC_TRADITIONAL_NAME>
(4S)-5-[[(1S)-2-[[(1R)-2-[2-(2-chlorophenyl)ethylamino]-2-keto-1-(mercaptomethyl)ethyl]amino]-2-keto-1-(1-naphthylmethyl)ethyl]amino]-4-(isobutoxycarbonylamino)-5-keto-valeric acid
> <PUBCHEM_IUPAC_INCHI>
InChI=1S/C34H41ClN4O7S/c1-21(2)19-46-34(45)39-27(14-15-30(40)41)32(43)37-28(18-24-11-7-10-22-8-3-5-12-25(22)24)33(44)38-29(20-47)31(42)36-17-16-23-9-4-6-13-26(23)35/h3-13,21,27-29,47H,14-20H2,1-2H3,(H,36,42)(H,37,43)(H,38,44)(H,39,45)(H,40,41)/t27-,28-,29-/m0/s1
> <PUBCHEM_IUPAC_INCHIKEY>
OFRWBTKMYFUTJD-AWCRTANDSA-N
> <PUBCHEM_XLOGP3_AA>
5.3
> <PUBCHEM_EXACT_MASS>
684.2384485
> <PUBCHEM_MOLECULAR_FORMULA>
C34H41ClN4O7S
> <PUBCHEM_MOLECULAR_WEIGHT>
685.2
> <PUBCHEM_OPENEYE_CAN_SMILES>
CC(C)COC(=O)NC(CCC(=O)O)C(=O)NC(CC1=CC=CC2=CC=CC=C21)C(=O)NC(CS)C(=O)NCCC3=CC=CC=C3Cl
> <PUBCHEM_OPENEYE_ISO_SMILES>
CC(C)COC(=O)N[C@@H](CCC(=O)O)C(=O)N[C@@H](CC1=CC=CC2=CC=CC=C21)C(=O)N[C@@H](CS)C(=O)NCCC3=CC=CC=C3Cl
> <PUBCHEM_CACTVS_TPSA>
164
> <PUBCHEM_MONOISOTOPIC_WEIGHT>
684.2384485
> <PUBCHEM_TOTAL_CHARGE>
0
> <PUBCHEM_HEAVY_ATOM_COUNT>
47
> <PUBCHEM_ATOM_DEF_STEREO_COUNT>
3
> <PUBCHEM_ATOM_UDEF_STEREO_COUNT>
0
> <PUBCHEM_BOND_DEF_STEREO_COUNT>
0
> <PUBCHEM_BOND_UDEF_STEREO_COUNT>
0
> <PUBCHEM_ISOTOPIC_ATOM_COUNT>
0
> <PUBCHEM_COMPONENT_COUNT>
1
> <PUBCHEM_CACTVS_TAUTO_COUNT>
-1
> <PUBCHEM_COORDINATE_TYPE>
1
5
255
> <PUBCHEM_BONDANNOTATIONS>
14  10  6
22  11  6
17  12  5
16  21  8
16  24  8
21  23  8
21  26  8
23  27  8
23  31  8
24  28  8
26  32  8
27  28  8
31  35  8
32  35  8
40  43  8
40  44  8
43  45  8
44  46  8
45  47  8
46  47  8
$$$$
