507524
  -OEChem-10302200282D
 87 88  0     1  0  0  0  0  0999 V2000
    2.8660    5.0600    0.0000 Cl  0  0  0  0  0  0  0  0  0  0  0  0
    7.1962    4.5600    0.0000 S   0  0  0  0  0  0  0  0  0  0  0  0
    3.7320   -2.4400    0.0000 O   0  0  0  0  0  0  0  0  0  0  0  0
    3.7320   -7.4400    0.0000 O   0  0  0  0  0  0  0  0  0  0  0  0
    5.4641   -7.4400    0.0000 O   0  0  0  0  0  0  0  0  0  0  0  0
    7.1962   -1.4400    0.0000 O   0  0  0  0  0  0  0  0  0  0  0  0
    8.0622    2.0600    0.0000 O   0  0  0  0  0  0  0  0  0  0  0  0
    3.7320    1.5600    0.0000 O   0  0  0  0  0  0  0  0  0  0  0  0
    2.8660    0.0600    0.0000 O   0  0  0  0  0  0  0  0  0  0  0  0
    4.5981    3.0600    0.0000 O   0  0  0  0  0  0  0  0  0  0  0  0
    5.4641   -2.4400    0.0000 N   0  0  0  0  0  0  0  0  0  0  0  0
    6.3301    0.0600    0.0000 N   0  0  0  0  0  0  0  0  0  0  0  0
    6.3301    2.0600    0.0000 N   0  0  0  0  0  0  0  0  0  0  0  0
    5.4641    4.5600    0.0000 N   0  0  0  0  0  0  0  0  0  0  0  0
    4.5981   -3.9400    0.0000 C   0  0  0  0  0  0  0  0  0  0  0  0
    4.5981   -5.9400    0.0000 C   0  0  0  0  0  0  0  0  0  0  0  0
    3.7320   -4.4400    0.0000 C   0  0  0  0  0  0  0  0  0  0  0  0
    5.4641   -4.4400    0.0000 C   0  0  0  0  0  0  0  0  0  0  0  0
    3.7320   -5.4400    0.0000 C   0  0  0  0  0  0  0  0  0  0  0  0
    5.4641   -5.4400    0.0000 C   0  0  0  0  0  0  0  0  0  0  0  0
    4.5981   -2.9400    0.0000 C   0  0  0  0  0  0  0  0  0  0  0  0
    4.5981   -6.9400    0.0000 C   0  0  0  0  0  0  0  0  0  0  0  0
    5.4641   -1.4400    0.0000 C   0  0  1  0  0  0  0  0  0  0  0  0
    4.5981   -0.9400    0.0000 C   0  0  0  0  0  0  0  0  0  0  0  0
    6.3301   -0.9400    0.0000 C   0  0  0  0  0  0  0  0  0  0  0  0
    7.1962    0.5600    0.0000 C   0  0  1  0  0  0  0  0  0  0  0  0
    8.0622    0.0600    0.0000 C   0  0  0  0  0  0  0  0  0  0  0  0
    8.9282    0.5600    0.0000 C   0  0  0  0  0  0  0  0  0  0  0  0
    4.5981    0.0600    0.0000 C   0  0  0  0  0  0  0  0  0  0  0  0
    7.1962    1.5600    0.0000 C   0  0  0  0  0  0  0  0  0  0  0  0
    9.7942    0.0600    0.0000 C   0  0  0  0  0  0  0  0  0  0  0  0
    8.9282    1.5600    0.0000 C   0  0  0  0  0  0  0  0  0  0  0  0
    3.7320    0.5600    0.0000 C   0  0  0  0  0  0  0  0  0  0  0  0
    6.3301    3.0600    0.0000 C   0  0  1  0  0  0  0  0  0  0  0  0
    7.1962    3.5600    0.0000 C   0  0  0  0  0  0  0  0  0  0  0  0
    5.4641    3.5600    0.0000 C   0  0  0  0  0  0  0  0  0  0  0  0
    4.5981    5.0600    0.0000 C   0  0  0  0  0  0  0  0  0  0  0  0
    4.5981    6.0600    0.0000 C   0  0  0  0  0  0  0  0  0  0  0  0
    3.7320    6.5600    0.0000 C   0  0  0  0  0  0  0  0  0  0  0  0
    2.8660    6.0600    0.0000 C   0  0  0  0  0  0  0  0  0  0  0  0
    3.7320    7.5600    0.0000 C   0  0  0  0  0  0  0  0  0  0  0  0
    2.0000    6.5600    0.0000 C   0  0  0  0  0  0  0  0  0  0  0  0
    2.8660    8.0600    0.0000 C   0  0  0  0  0  0  0  0  0  0  0  0
    2.0000    7.5600    0.0000 C   0  0  0  0  0  0  0  0  0  0  0  0
    5.1350   -3.6300    0.0000 H   0  0  0  0  0  0  0  0  0  0  0  0
    5.1350   -6.2500    0.0000 H   0  0  0  0  0  0  0  0  0  0  0  0
    3.5200   -3.8574    0.0000 H   0  0  0  0  0  0  0  0  0  0  0  0
    3.1215   -4.5477    0.0000 H   0  0  0  0  0  0  0  0  0  0  0  0
    6.0747   -4.5477    0.0000 H   0  0  0  0  0  0  0  0  0  0  0  0
    5.6762   -3.8574    0.0000 H   0  0  0  0  0  0  0  0  0  0  0  0
    3.1215   -5.3323    0.0000 H   0  0  0  0  0  0  0  0  0  0  0  0
    3.5200   -6.0226    0.0000 H   0  0  0  0  0  0  0  0  0  0  0  0
    5.6762   -6.0226    0.0000 H   0  0  0  0  0  0  0  0  0  0  0  0
    6.0747   -5.3323    0.0000 H   0  0  0  0  0  0  0  0  0  0  0  0
    6.0010   -2.7500    0.0000 H   0  0  0  0  0  0  0  0  0  0  0  0
    6.0010   -1.7500    0.0000 H   0  0  0  0  0  0  0  0  0  0  0  0
    3.9875   -0.8323    0.0000 H   0  0  0  0  0  0  0  0  0  0  0  0
    4.3860   -1.5226    0.0000 H   0  0  0  0  0  0  0  0  0  0  0  0
    6.6592    0.8700    0.0000 H   0  0  0  0  0  0  0  0  0  0  0  0
    7.6636   -0.4149    0.0000 H   0  0  0  0  0  0  0  0  0  0  0  0
    8.4607   -0.4149    0.0000 H   0  0  0  0  0  0  0  0  0  0  0  0
    5.7932    0.3700    0.0000 H   0  0  0  0  0  0  0  0  0  0  0  0
    3.7320   -8.0600    0.0000 H   0  0  0  0  0  0  0  0  0  0  0  0
    9.4651    0.8700    0.0000 H   0  0  0  0  0  0  0  0  0  0  0  0
    5.2087   -0.0477    0.0000 H   0  0  0  0  0  0  0  0  0  0  0  0
    4.8101    0.6426    0.0000 H   0  0  0  0  0  0  0  0  0  0  0  0
    9.4842   -0.4769    0.0000 H   0  0  0  0  0  0  0  0  0  0  0  0
   10.3312   -0.2500    0.0000 H   0  0  0  0  0  0  0  0  0  0  0  0
   10.1042    0.5969    0.0000 H   0  0  0  0  0  0  0  0  0  0  0  0
    9.5482    1.5600    0.0000 H   0  0  0  0  0  0  0  0  0  0  0  0
    8.9282    2.1800    0.0000 H   0  0  0  0  0  0  0  0  0  0  0  0
    8.3082    1.5600    0.0000 H   0  0  0  0  0  0  0  0  0  0  0  0
    5.7932    1.7500    0.0000 H   0  0  0  0  0  0  0  0  0  0  0  0
    6.8671    2.7500    0.0000 H   0  0  0  0  0  0  0  0  0  0  0  0
    7.4082    2.9774    0.0000 H   0  0  0  0  0  0  0  0  0  0  0  0
    7.8067    3.6677    0.0000 H   0  0  0  0  0  0  0  0  0  0  0  0
    6.0010    4.8700    0.0000 H   0  0  0  0  0  0  0  0  0  0  0  0
    3.1951    1.8700    0.0000 H   0  0  0  0  0  0  0  0  0  0  0  0
    3.9875    5.1677    0.0000 H   0  0  0  0  0  0  0  0  0  0  0  0
    4.3860    4.4774    0.0000 H   0  0  0  0  0  0  0  0  0  0  0  0
    5.2087    5.9523    0.0000 H   0  0  0  0  0  0  0  0  0  0  0  0
    4.8101    6.6426    0.0000 H   0  0  0  0  0  0  0  0  0  0  0  0
    7.7331    4.8700    0.0000 H   0  0  0  0  0  0  0  0  0  0  0  0
    4.2690    7.8700    0.0000 H   0  0  0  0  0  0  0  0  0  0  0  0
    1.4631    6.2500    0.0000 H   0  0  0  0  0  0  0  0  0  0  0  0
    2.8660    8.6800    0.0000 H   0  0  0  0  0  0  0  0  0  0  0  0
    1.4631    7.8700    0.0000 H   0  0  0  0  0  0  0  0  0  0  0  0
  1 40  1  0  0  0  0
  2 35  1  0  0  0  0
  2 83  1  0  0  0  0
  3 21  2  0  0  0  0
  4 22  1  0  0  0  0
  4 63  1  0  0  0  0
  5 22  2  0  0  0  0
  6 25  2  0  0  0  0
  7 30  2  0  0  0  0
  8 33  1  0  0  0  0
  8 78  1  0  0  0  0
  9 33  2  0  0  0  0
 10 36  2  0  0  0  0
 11 21  1  0  0  0  0
 23 11  1  1  0  0  0
 11 55  1  0  0  0  0
 12 25  1  0  0  0  0
 26 12  1  6  0  0  0
 12 62  1  0  0  0  0
 13 30  1  0  0  0  0
 34 13  1  6  0  0  0
 13 73  1  0  0  0  0
 14 36  1  0  0  0  0
 14 37  1  0  0  0  0
 14 77  1  0  0  0  0
 15 17  1  0  0  0  0
 15 18  1  0  0  0  0
 15 21  1  0  0  0  0
 15 45  1  0  0  0  0
 16 19  1  0  0  0  0
 16 20  1  0  0  0  0
 16 22  1  0  0  0  0
 16 46  1  0  0  0  0
 17 19  1  0  0  0  0
 17 47  1  0  0  0  0
 17 48  1  0  0  0  0
 18 20  1  0  0  0  0
 18 49  1  0  0  0  0
 18 50  1  0  0  0  0
 19 51  1  0  0  0  0
 19 52  1  0  0  0  0
 20 53  1  0  0  0  0
 20 54  1  0  0  0  0
 23 24  1  0  0  0  0
 23 25  1  0  0  0  0
 23 56  1  0  0  0  0
 24 29  1  0  0  0  0
 24 57  1  0  0  0  0
 24 58  1  0  0  0  0
 26 27  1  0  0  0  0
 26 30  1  0  0  0  0
 26 59  1  0  0  0  0
 27 28  1  0  0  0  0
 27 60  1  0  0  0  0
 27 61  1  0  0  0  0
 28 31  1  0  0  0  0
 28 32  1  0  0  0  0
 28 64  1  0  0  0  0
 29 33  1  0  0  0  0
 29 65  1  0  0  0  0
 29 66  1  0  0  0  0
 31 67  1  0  0  0  0
 31 68  1  0  0  0  0
 31 69  1  0  0  0  0
 32 70  1  0  0  0  0
 32 71  1  0  0  0  0
 32 72  1  0  0  0  0
 34 35  1  0  0  0  0
 34 36  1  0  0  0  0
 34 74  1  0  0  0  0
 35 75  1  0  0  0  0
 35 76  1  0  0  0  0
 37 38  1  0  0  0  0
 37 79  1  0  0  0  0
 37 80  1  0  0  0  0
 38 39  1  0  0  0  0
 38 81  1  0  0  0  0
 38 82  1  0  0  0  0
 39 40  1  0  0  0  0
 39 41  2  0  0  0  0
 40 42  2  0  0  0  0
 41 43  1  0  0  0  0
 41 84  1  0  0  0  0
 42 44  1  0  0  0  0
 42 85  1  0  0  0  0
 43 44  2  0  0  0  0
 43 86  1  0  0  0  0
 44 87  1  0  0  0  0
M  END
> <PUBCHEM_COMPOUND_CID>
507524
> <PUBCHEM_COMPOUND_CANONICALIZED>
1
> <PUBCHEM_CACTVS_COMPLEXITY>
1010
> <PUBCHEM_CACTVS_HBOND_ACCEPTOR>
9
> <PUBCHEM_CACTVS_HBOND_DONOR>
7
> <PUBCHEM_CACTVS_ROTATABLE_BOND>
17
> <PUBCHEM_CACTVS_SUBSKEYS>
AAADcfB7vABEAAAAAAAAAAAAAAAAAAAAAAAwYAAAAAAAAAABAAAAHgYQCAAADSrF2CSyCILAAgSIAiHSGAACAAAgBQAIiIGIAogIYDKBkzGUYAAklgCIiAe837KOAAAAAAABAACAAAAAAAIAAAAAAAAAAA==
> <PUBCHEM_IUPAC_OPENEYE_NAME>
4-[[(1S)-3-carboxy-1-[[(1S)-1-[[(1R)-2-[2-(2-chlorophenyl)ethylamino]-2-oxo-1-(sulfanylmethyl)ethyl]carbamoyl]-3-methyl-butyl]carbamoyl]propyl]carbamoyl]cyclohexanecarboxylic acid
> <PUBCHEM_IUPAC_CAS_NAME>
4-[[[(2S)-4-carboxy-1-[[(2S)-1-[[(2R)-1-[2-(2-chlorophenyl)ethylamino]-3-mercapto-1-oxopropan-2-yl]amino]-4-methyl-1-oxopentan-2-yl]amino]-1-oxobutan-2-yl]amino]-oxomethyl]-1-cyclohexanecarboxylic acid
> <PUBCHEM_IUPAC_NAME_MARKUP>
4-[[(2<I>S</I>)-4-carboxy-1-[[(2<I>S</I>)-1-[[(2<I>R</I>)-1-[2-(2-chlorophenyl)ethylamino]-1-oxo-3-sulfanylpropan-2-yl]amino]-4-methyl-1-oxopentan-2-yl]amino]-1-oxobutan-2-yl]carbamoyl]cyclohexane-1-carboxylic acid
> <PUBCHEM_IUPAC_NAME>
4-[[(2S)-4-carboxy-1-[[(2S)-1-[[(2R)-1-[2-(2-chlorophenyl)ethylamino]-1-oxo-3-sulfanylpropan-2-yl]amino]-4-methyl-1-oxopentan-2-yl]amino]-1-oxobutan-2-yl]carbamoyl]cyclohexane-1-carboxylic acid
> <PUBCHEM_IUPAC_SYSTEMATIC_NAME>
4-[[(2S)-1-[[(2S)-1-[[(2R)-1-[2-(2-chlorophenyl)ethylamino]-1-oxidanylidene-3-sulfanyl-propan-2-yl]amino]-4-methyl-1-oxidanylidene-pentan-2-yl]amino]-5-oxidanyl-1,5-bis(oxidanylidene)pentan-2-yl]carbamoyl]cyclohexane-1-carboxylic acid
> <PUBCHEM_IUPAC_TRADITIONAL_NAME>
4-[[(1S)-3-carboxy-1-[[(1S)-1-[[(1R)-2-[2-(2-chlorophenyl)ethylamino]-2-keto-1-(mercaptomethyl)ethyl]carbamoyl]-3-methyl-butyl]carbamoyl]propyl]carbamoyl]cyclohexanecarboxylic acid
> <PUBCHEM_IUPAC_INCHI>
InChI=1S/C30H43ClN4O8S/c1-17(2)15-23(29(41)35-24(16-44)27(39)32-14-13-18-5-3-4-6-21(18)31)34-28(40)22(11-12-25(36)37)33-26(38)19-7-9-20(10-8-19)30(42)43/h3-6,17,19-20,22-24,44H,7-16H2,1-2H3,(H,32,39)(H,33,38)(H,34,40)(H,35,41)(H,36,37)(H,42,43)/t19?,20?,22-,23-,24-/m0/s1
> <PUBCHEM_IUPAC_INCHIKEY>
WJYOSNBLIBGHDP-QOGFHCCCSA-N
> <PUBCHEM_XLOGP3_AA>
2.8
> <PUBCHEM_EXACT_MASS>
654.2490132
> <PUBCHEM_MOLECULAR_FORMULA>
C30H43ClN4O8S
> <PUBCHEM_MOLECULAR_WEIGHT>
655.2
> <PUBCHEM_OPENEYE_CAN_SMILES>
CC(C)CC(C(=O)NC(CS)C(=O)NCCC1=CC=CC=C1Cl)NC(=O)C(CCC(=O)O)NC(=O)C2CCC(CC2)C(=O)O
> <PUBCHEM_OPENEYE_ISO_SMILES>
CC(C)C[C@@H](C(=O)N[C@@H](CS)C(=O)NCCC1=CC=CC=C1Cl)NC(=O)[C@H](CCC(=O)O)NC(=O)C2CCC(CC2)C(=O)O
> <PUBCHEM_CACTVS_TPSA>
192
> <PUBCHEM_MONOISOTOPIC_WEIGHT>
654.2490132
> <PUBCHEM_TOTAL_CHARGE>
0
> <PUBCHEM_HEAVY_ATOM_COUNT>
44
> <PUBCHEM_ATOM_DEF_STEREO_COUNT>
3
> <PUBCHEM_ATOM_UDEF_STEREO_COUNT>
0
> <PUBCHEM_BOND_DEF_STEREO_COUNT>
0
> <PUBCHEM_BOND_UDEF_STEREO_COUNT>
0
> <PUBCHEM_ISOTOPIC_ATOM_COUNT>
0
> <PUBCHEM_COMPONENT_COUNT>
1
> <PUBCHEM_CACTVS_TAUTO_COUNT>
-1
> <PUBCHEM_COORDINATE_TYPE>
1
5
255
> <PUBCHEM_BONDANNOTATIONS>
23  11  5
26  12  6
34  13  6
39  40  8
39  41  8
40  42  8
41  43  8
42  44  8
43  44  8
$$$$
