507551
  -OEChem-10302200282D
108111  0     1  0  0  0  0  0999 V2000
    5.4641    4.2500    0.0000 S   0  0  0  0  0  0  0  0  0  0  0  0
    4.5981    1.7500    0.0000 O   0  0  0  0  0  0  0  0  0  0  0  0
    5.4641   -1.7500    0.0000 O   0  0  0  0  0  0  0  0  0  0  0  0
    8.9282   -2.7500    0.0000 O   0  0  0  0  0  0  0  0  0  0  0  0
    8.0622    2.7500    0.0000 O   0  0  0  0  0  0  0  0  0  0  0  0
    8.9282    1.2500    0.0000 O   0  0  0  0  0  0  0  0  0  0  0  0
    9.7942   -0.2500    0.0000 O   0  0  0  0  0  0  0  0  0  0  0  0
    5.6962   -3.8840    0.0000 O   0  0  0  0  0  0  0  0  0  0  0  0
    6.3301   -0.2500    0.0000 N   0  0  0  0  0  0  0  0  0  0  0  0
    6.3301    1.7500    0.0000 N   0  0  0  0  0  0  0  0  0  0  0  0
    7.1962   -2.7500    0.0000 N   0  0  0  0  0  0  0  0  0  0  0  0
    7.1962   -4.7500    0.0000 N   0  0  0  0  0  0  0  0  0  0  0  0
    7.1962    4.2500    0.0000 N   0  0  0  0  0  0  0  0  0  0  0  0
    3.7320    0.2500    0.0000 C   0  0  0  0  0  0  0  0  0  0  0  0
    3.7320    1.2500    0.0000 C   0  0  0  0  0  0  0  0  0  0  0  0
    2.8660   -0.2500    0.0000 C   0  0  0  0  0  0  0  0  0  0  0  0
    4.5981   -0.2500    0.0000 C   0  0  0  0  0  0  0  0  0  0  0  0
    2.8660    1.7500    0.0000 C   0  0  0  0  0  0  0  0  0  0  0  0
    2.0000    0.2500    0.0000 C   0  0  0  0  0  0  0  0  0  0  0  0
    2.0000    1.2500    0.0000 C   0  0  0  0  0  0  0  0  0  0  0  0
    5.4641    0.2500    0.0000 C   0  0  1  0  0  0  0  0  0  0  0  0
    5.4641    1.2500    0.0000 C   0  0  0  0  0  0  0  0  0  0  0  0
    6.3301   -1.2500    0.0000 C   0  0  0  0  0  0  0  0  0  0  0  0
    7.1962   -1.7500    0.0000 C   0  0  2  0  0  0  0  0  0  0  0  0
    6.3301    2.7500    0.0000 C   0  0  1  0  0  0  0  0  0  0  0  0
    8.0622   -1.2500    0.0000 C   0  0  0  0  0  0  0  0  0  0  0  0
    8.0622   -4.2500    0.0000 C   0  0  2  0  0  0  0  0  0  0  0  0
    5.4641    3.2500    0.0000 C   0  0  0  0  0  0  0  0  0  0  0  0
    8.0622   -3.2500    0.0000 C   0  0  0  0  0  0  0  0  0  0  0  0
    8.9282   -4.7500    0.0000 C   0  0  0  0  0  0  0  0  0  0  0  0
    8.0622   -0.2500    0.0000 C   0  0  0  0  0  0  0  0  0  0  0  0
    7.1962    3.2500    0.0000 C   0  0  0  0  0  0  0  0  0  0  0  0
    8.9282   -5.7500    0.0000 C   0  0  0  0  0  0  0  0  0  0  0  0
    9.7942   -4.2500    0.0000 C   0  0  0  0  0  0  0  0  0  0  0  0
    8.9282    0.2500    0.0000 C   0  0  0  0  0  0  0  0  0  0  0  0
    8.0622    4.7500    0.0000 C   0  0  0  0  0  0  0  0  0  0  0  0
    8.0622   -6.2500    0.0000 C   0  0  0  0  0  0  0  0  0  0  0  0
    9.7942   -3.2500    0.0000 C   0  0  0  0  0  0  0  0  0  0  0  0
    9.7942   -6.2500    0.0000 C   0  0  0  0  0  0  0  0  0  0  0  0
   10.6603   -4.7500    0.0000 C   0  0  0  0  0  0  0  0  0  0  0  0
    6.1962   -4.7500    0.0000 C   0  0  0  0  0  0  0  0  0  0  0  0
    8.0622    5.7500    0.0000 C   0  0  0  0  0  0  0  0  0  0  0  0
    8.0622   -7.2500    0.0000 C   0  0  0  0  0  0  0  0  0  0  0  0
   10.6603   -2.7500    0.0000 C   0  0  0  0  0  0  0  0  0  0  0  0
    9.7942   -7.2500    0.0000 C   0  0  0  0  0  0  0  0  0  0  0  0
   11.5263   -4.2500    0.0000 C   0  0  0  0  0  0  0  0  0  0  0  0
    8.9282   -7.7500    0.0000 C   0  0  0  0  0  0  0  0  0  0  0  0
   11.5263   -3.2500    0.0000 C   0  0  0  0  0  0  0  0  0  0  0  0
    5.6961   -5.6159    0.0000 C   0  0  0  0  0  0  0  0  0  0  0  0
    8.9282    6.2500    0.0000 C   0  0  0  0  0  0  0  0  0  0  0  0
    9.7942    5.7500    0.0000 C   0  0  0  0  0  0  0  0  0  0  0  0
    8.9282    7.2500    0.0000 C   0  0  0  0  0  0  0  0  0  0  0  0
   10.6603    6.2500    0.0000 C   0  0  0  0  0  0  0  0  0  0  0  0
    9.7942    7.7500    0.0000 C   0  0  0  0  0  0  0  0  0  0  0  0
   10.6603    7.2500    0.0000 C   0  0  0  0  0  0  0  0  0  0  0  0
    3.7320   -0.3700    0.0000 H   0  0  0  0  0  0  0  0  0  0  0  0
    4.3426    1.1423    0.0000 H   0  0  0  0  0  0  0  0  0  0  0  0
    3.9441    1.8326    0.0000 H   0  0  0  0  0  0  0  0  0  0  0  0
    2.4675   -0.7249    0.0000 H   0  0  0  0  0  0  0  0  0  0  0  0
    3.2646   -0.7249    0.0000 H   0  0  0  0  0  0  0  0  0  0  0  0
    4.1996   -0.7249    0.0000 H   0  0  0  0  0  0  0  0  0  0  0  0
    4.9966   -0.7249    0.0000 H   0  0  0  0  0  0  0  0  0  0  0  0
    3.2646    2.2250    0.0000 H   0  0  0  0  0  0  0  0  0  0  0  0
    2.4675    2.2250    0.0000 H   0  0  0  0  0  0  0  0  0  0  0  0
    1.3894    0.3577    0.0000 H   0  0  0  0  0  0  0  0  0  0  0  0
    1.7880   -0.3326    0.0000 H   0  0  0  0  0  0  0  0  0  0  0  0
    1.7880    1.8326    0.0000 H   0  0  0  0  0  0  0  0  0  0  0  0
    1.3894    1.1423    0.0000 H   0  0  0  0  0  0  0  0  0  0  0  0
    5.4641   -0.3700    0.0000 H   0  0  0  0  0  0  0  0  0  0  0  0
    6.8671    0.0600    0.0000 H   0  0  0  0  0  0  0  0  0  0  0  0
    6.6592   -2.0600    0.0000 H   0  0  0  0  0  0  0  0  0  0  0  0
    6.8671    1.4400    0.0000 H   0  0  0  0  0  0  0  0  0  0  0  0
    6.8671    2.4400    0.0000 H   0  0  0  0  0  0  0  0  0  0  0  0
    8.2742   -1.8326    0.0000 H   0  0  0  0  0  0  0  0  0  0  0  0
    8.6728   -1.1423    0.0000 H   0  0  0  0  0  0  0  0  0  0  0  0
    6.6592   -3.0600    0.0000 H   0  0  0  0  0  0  0  0  0  0  0  0
    8.0622   -4.8700    0.0000 H   0  0  0  0  0  0  0  0  0  0  0  0
    8.9282   -4.1300    0.0000 H   0  0  0  0  0  0  0  0  0  0  0  0
    4.8535    3.3577    0.0000 H   0  0  0  0  0  0  0  0  0  0  0  0
    5.2520    2.6674    0.0000 H   0  0  0  0  0  0  0  0  0  0  0  0
    7.8501    0.3326    0.0000 H   0  0  0  0  0  0  0  0  0  0  0  0
    7.4516   -0.3577    0.0000 H   0  0  0  0  0  0  0  0  0  0  0  0
    7.1962   -5.3700    0.0000 H   0  0  0  0  0  0  0  0  0  0  0  0
    6.6592    4.5600    0.0000 H   0  0  0  0  0  0  0  0  0  0  0  0
    4.9272    4.5600    0.0000 H   0  0  0  0  0  0  0  0  0  0  0  0
    8.2742    4.1674    0.0000 H   0  0  0  0  0  0  0  0  0  0  0  0
    8.6728    4.8577    0.0000 H   0  0  0  0  0  0  0  0  0  0  0  0
    7.5252   -5.9400    0.0000 H   0  0  0  0  0  0  0  0  0  0  0  0
    9.2573   -2.9400    0.0000 H   0  0  0  0  0  0  0  0  0  0  0  0
   10.3312   -5.9400    0.0000 H   0  0  0  0  0  0  0  0  0  0  0  0
   10.6603   -5.3700    0.0000 H   0  0  0  0  0  0  0  0  0  0  0  0
    7.8501    6.3326    0.0000 H   0  0  0  0  0  0  0  0  0  0  0  0
    7.4516    5.6423    0.0000 H   0  0  0  0  0  0  0  0  0  0  0  0
    7.5252   -7.5600    0.0000 H   0  0  0  0  0  0  0  0  0  0  0  0
   10.6603   -2.1300    0.0000 H   0  0  0  0  0  0  0  0  0  0  0  0
   10.3312   -7.5600    0.0000 H   0  0  0  0  0  0  0  0  0  0  0  0
   12.0632   -4.5600    0.0000 H   0  0  0  0  0  0  0  0  0  0  0  0
    8.9282   -8.3700    0.0000 H   0  0  0  0  0  0  0  0  0  0  0  0
   12.0632   -2.9400    0.0000 H   0  0  0  0  0  0  0  0  0  0  0  0
    5.1592   -5.3059    0.0000 H   0  0  0  0  0  0  0  0  0  0  0  0
    5.3861   -6.1528    0.0000 H   0  0  0  0  0  0  0  0  0  0  0  0
    6.2330   -5.9260    0.0000 H   0  0  0  0  0  0  0  0  0  0  0  0
    9.4651    1.5600    0.0000 H   0  0  0  0  0  0  0  0  0  0  0  0
    9.7942    5.1300    0.0000 H   0  0  0  0  0  0  0  0  0  0  0  0
    8.3913    7.5600    0.0000 H   0  0  0  0  0  0  0  0  0  0  0  0
   11.1972    5.9400    0.0000 H   0  0  0  0  0  0  0  0  0  0  0  0
    9.7942    8.3700    0.0000 H   0  0  0  0  0  0  0  0  0  0  0  0
   11.1972    7.5600    0.0000 H   0  0  0  0  0  0  0  0  0  0  0  0
  1 28  1  0  0  0  0
  1 85  1  0  0  0  0
  2 22  2  0  0  0  0
  3 23  2  0  0  0  0
  4 29  2  0  0  0  0
  5 32  2  0  0  0  0
  6 35  1  0  0  0  0
  6103  1  0  0  0  0
  7 35  2  0  0  0  0
  8 41  2  0  0  0  0
 21  9  1  1  0  0  0
  9 23  1  0  0  0  0
  9 70  1  0  0  0  0
 10 22  1  0  0  0  0
 25 10  1  1  0  0  0
 10 72  1  0  0  0  0
 24 11  1  6  0  0  0
 11 29  1  0  0  0  0
 11 76  1  0  0  0  0
 27 12  1  6  0  0  0
 12 41  1  0  0  0  0
 12 83  1  0  0  0  0
 13 32  1  0  0  0  0
 13 36  1  0  0  0  0
 13 84  1  0  0  0  0
 14 15  1  0  0  0  0
 14 16  1  0  0  0  0
 14 17  1  0  0  0  0
 14 56  1  0  0  0  0
 15 18  1  0  0  0  0
 15 57  1  0  0  0  0
 15 58  1  0  0  0  0
 16 19  1  0  0  0  0
 16 59  1  0  0  0  0
 16 60  1  0  0  0  0
 17 21  1  0  0  0  0
 17 61  1  0  0  0  0
 17 62  1  0  0  0  0
 18 20  1  0  0  0  0
 18 63  1  0  0  0  0
 18 64  1  0  0  0  0
 19 20  1  0  0  0  0
 19 65  1  0  0  0  0
 19 66  1  0  0  0  0
 20 67  1  0  0  0  0
 20 68  1  0  0  0  0
 21 22  1  0  0  0  0
 21 69  1  0  0  0  0
 23 24  1  0  0  0  0
 24 26  1  0  0  0  0
 24 71  1  0  0  0  0
 25 28  1  0  0  0  0
 25 32  1  0  0  0  0
 25 73  1  0  0  0  0
 26 31  1  0  0  0  0
 26 74  1  0  0  0  0
 26 75  1  0  0  0  0
 27 29  1  0  0  0  0
 27 30  1  0  0  0  0
 27 77  1  0  0  0  0
 28 79  1  0  0  0  0
 28 80  1  0  0  0  0
 30 33  1  0  0  0  0
 30 34  1  0  0  0  0
 30 78  1  0  0  0  0
 31 35  1  0  0  0  0
 31 81  1  0  0  0  0
 31 82  1  0  0  0  0
 33 37  2  0  0  0  0
 33 39  1  0  0  0  0
 34 38  2  0  0  0  0
 34 40  1  0  0  0  0
 36 42  1  0  0  0  0
 36 86  1  0  0  0  0
 36 87  1  0  0  0  0
 37 43  1  0  0  0  0
 37 88  1  0  0  0  0
 38 44  1  0  0  0  0
 38 89  1  0  0  0  0
 39 45  2  0  0  0  0
 39 90  1  0  0  0  0
 40 46  2  0  0  0  0
 40 91  1  0  0  0  0
 41 49  1  0  0  0  0
 42 50  1  0  0  0  0
 42 92  1  0  0  0  0
 42 93  1  0  0  0  0
 43 47  2  0  0  0  0
 43 94  1  0  0  0  0
 44 48  2  0  0  0  0
 44 95  1  0  0  0  0
 45 47  1  0  0  0  0
 45 96  1  0  0  0  0
 46 48  1  0  0  0  0
 46 97  1  0  0  0  0
 47 98  1  0  0  0  0
 48 99  1  0  0  0  0
 49100  1  0  0  0  0
 49101  1  0  0  0  0
 49102  1  0  0  0  0
 50 51  2  0  0  0  0
 50 52  1  0  0  0  0
 51 53  1  0  0  0  0
 51104  1  0  0  0  0
 52 54  2  0  0  0  0
 52105  1  0  0  0  0
 53 55  2  0  0  0  0
 53106  1  0  0  0  0
 54 55  1  0  0  0  0
 54107  1  0  0  0  0
 55108  1  0  0  0  0
M  END
> <PUBCHEM_COMPOUND_CID>
507551
> <PUBCHEM_COMPOUND_CANONICALIZED>
1
> <PUBCHEM_CACTVS_COMPLEXITY>
1230
> <PUBCHEM_CACTVS_HBOND_ACCEPTOR>
8
> <PUBCHEM_CACTVS_HBOND_DONOR>
7
> <PUBCHEM_CACTVS_ROTATABLE_BOND>
20
> <PUBCHEM_CACTVS_SUBSKEYS>
AAADcfB/uABAAAAAAAAAAAAAAAAAAAAAAAAwYMGAAAAAAAABUAAAHgQQCAAADSjF2ASyCILAAgSIAiHSGAACAAAgAAAIiIGIAIgIYDKAkTGUYAAklgCIiAe8n8KOgAAAAAAAAAAAAAAAAAAAAAAAAAAAAA==
> <PUBCHEM_IUPAC_OPENEYE_NAME>
(4S)-4-[[(2S)-2-acetamido-3,3-diphenyl-propanoyl]amino]-5-[[(1S)-1-(cyclohexylmethyl)-2-oxo-2-[[(1R)-2-oxo-2-(2-phenylethylamino)-1-(sulfanylmethyl)ethyl]amino]ethyl]amino]-5-oxo-pentanoic acid
> <PUBCHEM_IUPAC_CAS_NAME>
(4S)-4-[[(2S)-2-acetamido-1-oxo-3,3-diphenylpropyl]amino]-5-[[(2S)-3-cyclohexyl-1-[[(2R)-3-mercapto-1-oxo-1-(2-phenylethylamino)propan-2-yl]amino]-1-oxopropan-2-yl]amino]-5-oxopentanoic acid
> <PUBCHEM_IUPAC_NAME_MARKUP>
(4<I>S</I>)-4-[[(2<I>S</I>)-2-acetamido-3,3-diphenylpropanoyl]amino]-5-[[(2<I>S</I>)-3-cyclohexyl-1-oxo-1-[[(2<I>R</I>)-1-oxo-1-(2-phenylethylamino)-3-sulfanylpropan-2-yl]amino]propan-2-yl]amino]-5-oxopentanoic acid
> <PUBCHEM_IUPAC_NAME>
(4S)-4-[[(2S)-2-acetamido-3,3-diphenylpropanoyl]amino]-5-[[(2S)-3-cyclohexyl-1-oxo-1-[[(2R)-1-oxo-1-(2-phenylethylamino)-3-sulfanylpropan-2-yl]amino]propan-2-yl]amino]-5-oxopentanoic acid
> <PUBCHEM_IUPAC_SYSTEMATIC_NAME>
(4S)-4-[[(2S)-2-acetamido-3,3-diphenyl-propanoyl]amino]-5-[[(2S)-3-cyclohexyl-1-oxidanylidene-1-[[(2R)-1-oxidanylidene-1-(2-phenylethylamino)-3-sulfanyl-propan-2-yl]amino]propan-2-yl]amino]-5-oxidanylidene-pentanoic acid
> <PUBCHEM_IUPAC_TRADITIONAL_NAME>
(4S)-4-[[(2S)-2-acetamido-3,3-diphenyl-propanoyl]amino]-5-[[(1S)-1-(cyclohexylmethyl)-2-keto-2-[[(1R)-2-keto-1-(mercaptomethyl)-2-(phenethylamino)ethyl]amino]ethyl]amino]-5-keto-valeric acid
> <PUBCHEM_IUPAC_INCHI>
InChI=1S/C42H53N5O7S/c1-28(48)44-38(37(31-18-10-4-11-19-31)32-20-12-5-13-21-32)42(54)45-33(22-23-36(49)50)40(52)46-34(26-30-16-8-3-9-17-30)41(53)47-35(27-55)39(51)43-25-24-29-14-6-2-7-15-29/h2,4-7,10-15,18-21,30,33-35,37-38,55H,3,8-9,16-17,22-27H2,1H3,(H,43,51)(H,44,48)(H,45,54)(H,46,52)(H,47,53)(H,49,50)/t33-,34-,35-,38-/m0/s1
> <PUBCHEM_IUPAC_INCHIKEY>
QMRAOZUQLFDJRG-RNHIQORTSA-N
> <PUBCHEM_XLOGP3_AA>
5.7
> <PUBCHEM_EXACT_MASS>
771.36657022
> <PUBCHEM_MOLECULAR_FORMULA>
C42H53N5O7S
> <PUBCHEM_MOLECULAR_WEIGHT>
772.0
> <PUBCHEM_OPENEYE_CAN_SMILES>
CC(=O)NC(C(C1=CC=CC=C1)C2=CC=CC=C2)C(=O)NC(CCC(=O)O)C(=O)NC(CC3CCCCC3)C(=O)NC(CS)C(=O)NCCC4=CC=CC=C4
> <PUBCHEM_OPENEYE_ISO_SMILES>
CC(=O)N[C@@H](C(C1=CC=CC=C1)C2=CC=CC=C2)C(=O)N[C@@H](CCC(=O)O)C(=O)N[C@@H](CC3CCCCC3)C(=O)N[C@@H](CS)C(=O)NCCC4=CC=CC=C4
> <PUBCHEM_CACTVS_TPSA>
184
> <PUBCHEM_MONOISOTOPIC_WEIGHT>
771.36657022
> <PUBCHEM_TOTAL_CHARGE>
0
> <PUBCHEM_HEAVY_ATOM_COUNT>
55
> <PUBCHEM_ATOM_DEF_STEREO_COUNT>
4
> <PUBCHEM_ATOM_UDEF_STEREO_COUNT>
0
> <PUBCHEM_BOND_DEF_STEREO_COUNT>
0
> <PUBCHEM_BOND_UDEF_STEREO_COUNT>
0
> <PUBCHEM_ISOTOPIC_ATOM_COUNT>
0
> <PUBCHEM_COMPONENT_COUNT>
1
> <PUBCHEM_CACTVS_TAUTO_COUNT>
-1
> <PUBCHEM_COORDINATE_TYPE>
1
5
255
> <PUBCHEM_BONDANNOTATIONS>
25  10  5
24  11  6
27  12  6
33  37  8
33  39  8
34  38  8
34  40  8
37  43  8
38  44  8
39  45  8
40  46  8
43  47  8
44  48  8
45  47  8
46  48  8
50  51  8
50  52  8
51  53  8
52  54  8
53  55  8
54  55  8
21  9  5
$$$$
