507587
  -OEChem-10302200282D
 74 75  0     1  0  0  0  0  0999 V2000
    2.0000   -5.7918    0.0000 Cl  0  0  0  0  0  0  0  0  0  0  0  0
    4.5981   -0.2918    0.0000 S   0  0  0  0  0  0  0  0  0  0  0  0
    5.6065    1.5628    0.0000 O   0  0  0  0  0  0  0  0  0  0  0  0
    5.4641    0.2082    0.0000 O   0  0  0  0  0  0  0  0  0  0  0  0
    5.4871    5.1664    0.0000 O   0  0  0  0  0  0  0  0  0  0  0  0
    6.3301   -3.2918    0.0000 O   0  0  0  0  0  0  0  0  0  0  0  0
    7.1813    4.8063    0.0000 O   0  0  0  0  0  0  0  0  0  0  0  0
    9.0834    5.4243    0.0000 O   0  0  0  0  0  0  0  0  0  0  0  0
    9.6186    3.7770    0.0000 O   0  0  0  0  0  0  0  0  0  0  0  0
    7.3007    1.2027    0.0000 N   0  0  0  0  0  0  0  0  0  0  0  0
    6.3301   -1.2918    0.0000 N   0  0  0  0  0  0  0  0  0  0  0  0
    6.0223    3.5191    0.0000 N   0  0  0  0  0  0  0  0  0  0  0  0
    4.5981   -3.2918    0.0000 N   0  0  0  0  0  0  0  0  0  0  0  0
    7.1962    0.2082    0.0000 C   0  0  1  0  0  0  0  0  0  0  0  0
    8.1097   -0.1986    0.0000 C   0  0  0  0  0  0  0  0  0  0  0  0
    6.7654    2.8500    0.0000 C   0  0  1  0  0  0  0  0  0  0  0  0
    6.5575    1.8718    0.0000 C   0  0  0  0  0  0  0  0  0  0  0  0
    8.2788    1.4106    0.0000 C   0  0  0  0  0  0  0  0  0  0  0  0
    8.7788    0.5446    0.0000 C   0  0  0  0  0  0  0  0  0  0  0  0
    6.3301   -0.2918    0.0000 C   0  0  0  0  0  0  0  0  0  0  0  0
    7.7165    3.1590    0.0000 C   0  0  0  0  0  0  0  0  0  0  0  0
    5.4641   -1.7918    0.0000 C   0  0  1  0  0  0  0  0  0  0  0  0
    7.9244    4.1372    0.0000 C   0  0  0  0  0  0  0  0  0  0  0  0
    4.5981   -1.2918    0.0000 C   0  0  0  0  0  0  0  0  0  0  0  0
    5.4641   -2.7918    0.0000 C   0  0  0  0  0  0  0  0  0  0  0  0
    6.2302    4.4973    0.0000 C   0  0  0  0  0  0  0  0  0  0  0  0
    8.8755    4.4462    0.0000 C   0  0  0  0  0  0  0  0  0  0  0  0
    4.5981   -4.2918    0.0000 C   0  0  0  0  0  0  0  0  0  0  0  0
    4.9518    6.8137    0.0000 C   0  0  0  0  0  0  0  0  0  0  0  0
    5.6950    6.1445    0.0000 C   0  0  0  0  0  0  0  0  0  0  0  0
    3.7320   -4.7918    0.0000 C   0  0  0  0  0  0  0  0  0  0  0  0
    3.7320   -5.7918    0.0000 C   0  0  0  0  0  0  0  0  0  0  0  0
    5.1598    7.7918    0.0000 C   0  0  0  0  0  0  0  0  0  0  0  0
    4.0008    6.5046    0.0000 C   0  0  0  0  0  0  0  0  0  0  0  0
    2.8660   -6.2918    0.0000 C   0  0  0  0  0  0  0  0  0  0  0  0
    4.5981   -6.2918    0.0000 C   0  0  0  0  0  0  0  0  0  0  0  0
    2.8660   -7.2918    0.0000 C   0  0  0  0  0  0  0  0  0  0  0  0
    4.5981   -7.2918    0.0000 C   0  0  0  0  0  0  0  0  0  0  0  0
    3.7320   -7.7918    0.0000 C   0  0  0  0  0  0  0  0  0  0  0  0
    6.6762    0.5459    0.0000 H   0  0  0  0  0  0  0  0  0  0  0  0
    7.7997   -0.7355    0.0000 H   0  0  0  0  0  0  0  0  0  0  0  0
    8.6113   -0.5630    0.0000 H   0  0  0  0  0  0  0  0  0  0  0  0
    6.1758    2.6584    0.0000 H   0  0  0  0  0  0  0  0  0  0  0  0
    8.5310    1.9770    0.0000 H   0  0  0  0  0  0  0  0  0  0  0  0
    9.3954    0.4798    0.0000 H   0  0  0  0  0  0  0  0  0  0  0  0
    7.8028    2.5450    0.0000 H   0  0  0  0  0  0  0  0  0  0  0  0
    8.3361    3.1374    0.0000 H   0  0  0  0  0  0  0  0  0  0  0  0
    6.8671   -1.6018    0.0000 H   0  0  0  0  0  0  0  0  0  0  0  0
    5.4641   -1.1718    0.0000 H   0  0  0  0  0  0  0  0  0  0  0  0
    5.4326    3.3275    0.0000 H   0  0  0  0  0  0  0  0  0  0  0  0
    7.8381    4.7511    0.0000 H   0  0  0  0  0  0  0  0  0  0  0  0
    7.3048    4.1588    0.0000 H   0  0  0  0  0  0  0  0  0  0  0  0
    3.9875   -1.1842    0.0000 H   0  0  0  0  0  0  0  0  0  0  0  0
    4.3860   -1.8744    0.0000 H   0  0  0  0  0  0  0  0  0  0  0  0
    4.0611   -2.9818    0.0000 H   0  0  0  0  0  0  0  0  0  0  0  0
    4.8101   -4.8744    0.0000 H   0  0  0  0  0  0  0  0  0  0  0  0
    5.2087   -4.1842    0.0000 H   0  0  0  0  0  0  0  0  0  0  0  0
    4.8229    6.2072    0.0000 H   0  0  0  0  0  0  0  0  0  0  0  0
    6.2698    5.9123    0.0000 H   0  0  0  0  0  0  0  0  0  0  0  0
    6.0235    6.6703    0.0000 H   0  0  0  0  0  0  0  0  0  0  0  0
    3.5200   -4.2092    0.0000 H   0  0  0  0  0  0  0  0  0  0  0  0
    3.1215   -4.8995    0.0000 H   0  0  0  0  0  0  0  0  0  0  0  0
    4.0611    0.0182    0.0000 H   0  0  0  0  0  0  0  0  0  0  0  0
    5.7662    7.6629    0.0000 H   0  0  0  0  0  0  0  0  0  0  0  0
    5.2886    8.3983    0.0000 H   0  0  0  0  0  0  0  0  0  0  0  0
    4.5533    7.9207    0.0000 H   0  0  0  0  0  0  0  0  0  0  0  0
    3.8092    7.0943    0.0000 H   0  0  0  0  0  0  0  0  0  0  0  0
    3.4111    6.3131    0.0000 H   0  0  0  0  0  0  0  0  0  0  0  0
    4.1924    5.9150    0.0000 H   0  0  0  0  0  0  0  0  0  0  0  0
    9.6730    5.6159    0.0000 H   0  0  0  0  0  0  0  0  0  0  0  0
    5.1350   -5.9818    0.0000 H   0  0  0  0  0  0  0  0  0  0  0  0
    2.3291   -7.6018    0.0000 H   0  0  0  0  0  0  0  0  0  0  0  0
    5.1350   -7.6018    0.0000 H   0  0  0  0  0  0  0  0  0  0  0  0
    3.7320   -8.4118    0.0000 H   0  0  0  0  0  0  0  0  0  0  0  0
  1 35  1  0  0  0  0
  2 24  1  0  0  0  0
  2 63  1  0  0  0  0
  3 17  2  0  0  0  0
  4 20  2  0  0  0  0
  5 26  1  0  0  0  0
  5 30  1  0  0  0  0
  6 25  2  0  0  0  0
  7 26  2  0  0  0  0
  8 27  1  0  0  0  0
  8 70  1  0  0  0  0
  9 27  2  0  0  0  0
 10 14  1  0  0  0  0
 10 17  1  0  0  0  0
 10 18  1  0  0  0  0
 11 20  1  0  0  0  0
 22 11  1  6  0  0  0
 11 48  1  0  0  0  0
 16 12  1  6  0  0  0
 12 26  1  0  0  0  0
 12 50  1  0  0  0  0
 13 25  1  0  0  0  0
 13 28  1  0  0  0  0
 13 55  1  0  0  0  0
 14 15  1  0  0  0  0
 14 20  1  1  0  0  0
 14 40  1  0  0  0  0
 15 19  1  0  0  0  0
 15 41  1  0  0  0  0
 15 42  1  0  0  0  0
 16 17  1  0  0  0  0
 16 21  1  0  0  0  0
 16 43  1  0  0  0  0
 18 19  2  0  0  0  0
 18 44  1  0  0  0  0
 19 45  1  0  0  0  0
 21 23  1  0  0  0  0
 21 46  1  0  0  0  0
 21 47  1  0  0  0  0
 22 24  1  0  0  0  0
 22 25  1  0  0  0  0
 22 49  1  0  0  0  0
 23 27  1  0  0  0  0
 23 51  1  0  0  0  0
 23 52  1  0  0  0  0
 24 53  1  0  0  0  0
 24 54  1  0  0  0  0
 28 31  1  0  0  0  0
 28 56  1  0  0  0  0
 28 57  1  0  0  0  0
 29 30  1  0  0  0  0
 29 33  1  0  0  0  0
 29 34  1  0  0  0  0
 29 58  1  0  0  0  0
 30 59  1  0  0  0  0
 30 60  1  0  0  0  0
 31 32  1  0  0  0  0
 31 61  1  0  0  0  0
 31 62  1  0  0  0  0
 32 35  1  0  0  0  0
 32 36  2  0  0  0  0
 33 64  1  0  0  0  0
 33 65  1  0  0  0  0
 33 66  1  0  0  0  0
 34 67  1  0  0  0  0
 34 68  1  0  0  0  0
 34 69  1  0  0  0  0
 35 37  2  0  0  0  0
 36 38  1  0  0  0  0
 36 71  1  0  0  0  0
 37 39  1  0  0  0  0
 37 72  1  0  0  0  0
 38 39  2  0  0  0  0
 38 73  1  0  0  0  0
 39 74  1  0  0  0  0
M  END
> <PUBCHEM_COMPOUND_CID>
507587
> <PUBCHEM_COMPOUND_CANONICALIZED>
1
> <PUBCHEM_CACTVS_COMPLEXITY>
904
> <PUBCHEM_CACTVS_HBOND_ACCEPTOR>
8
> <PUBCHEM_CACTVS_HBOND_DONOR>
5
> <PUBCHEM_CACTVS_ROTATABLE_BOND>
15
> <PUBCHEM_CACTVS_SUBSKEYS>
AAADcfB7uABEAAAAAAAAAAAAAAAAAQAAAAAwAAAAAAAAAAABAAAAHgYQCAAADSrl2CayCIPABgSIAiHWWAACAAAgBwAIiIGIAokIYDKBkzGcYAAklgCIiAe8l4IOAAAAAAABAAAAAAAAAAIAAAAAAAAAAA==
> <PUBCHEM_IUPAC_OPENEYE_NAME>
(4R)-5-[(2S)-2-[[(1R)-2-[2-(2-chlorophenyl)ethylamino]-2-oxo-1-(sulfanylmethyl)ethyl]carbamoyl]-2,3-dihydropyrrol-1-yl]-4-(isobutoxycarbonylamino)-5-oxo-pentanoic acid
> <PUBCHEM_IUPAC_CAS_NAME>
(4R)-5-[(2S)-2-[[[(2R)-1-[2-(2-chlorophenyl)ethylamino]-3-mercapto-1-oxopropan-2-yl]amino]-oxomethyl]-2,3-dihydropyrrol-1-yl]-4-[[2-methylpropoxy(oxo)methyl]amino]-5-oxopentanoic acid
> <PUBCHEM_IUPAC_NAME_MARKUP>
(4<I>R</I>)-5-[(2<I>S</I>)-2-[[(2<I>R</I>)-1-[2-(2-chlorophenyl)ethylamino]-1-oxo-3-sulfanylpropan-2-yl]carbamoyl]-2,3-dihydropyrrol-1-yl]-4-(2-methylpropoxycarbonylamino)-5-oxopentanoic acid
> <PUBCHEM_IUPAC_NAME>
(4R)-5-[(2S)-2-[[(2R)-1-[2-(2-chlorophenyl)ethylamino]-1-oxo-3-sulfanylpropan-2-yl]carbamoyl]-2,3-dihydropyrrol-1-yl]-4-(2-methylpropoxycarbonylamino)-5-oxopentanoic acid
> <PUBCHEM_IUPAC_SYSTEMATIC_NAME>
(4R)-5-[(2S)-2-[[(2R)-1-[2-(2-chlorophenyl)ethylamino]-1-oxidanylidene-3-sulfanyl-propan-2-yl]carbamoyl]-2,3-dihydropyrrol-1-yl]-4-(2-methylpropoxycarbonylamino)-5-oxidanylidene-pentanoic acid
> <PUBCHEM_IUPAC_TRADITIONAL_NAME>
(4R)-5-[(2S)-2-[[(1R)-2-[2-(2-chlorophenyl)ethylamino]-2-keto-1-(mercaptomethyl)ethyl]carbamoyl]-2-pyrrolin-1-yl]-4-(isobutoxycarbonylamino)-5-keto-valeric acid
> <PUBCHEM_IUPAC_INCHI>
InChI=1S/C26H35ClN4O7S/c1-16(2)14-38-26(37)30-19(9-10-22(32)33)25(36)31-13-5-8-21(31)24(35)29-20(15-39)23(34)28-12-11-17-6-3-4-7-18(17)27/h3-7,13,16,19-21,39H,8-12,14-15H2,1-2H3,(H,28,34)(H,29,35)(H,30,37)(H,32,33)/t19-,20+,21+/m1/s1
> <PUBCHEM_IUPAC_INCHIKEY>
IEFXVJFYBCFIHO-HKBOAZHASA-N
> <PUBCHEM_XLOGP3_AA>
2.8
> <PUBCHEM_EXACT_MASS>
582.1914983
> <PUBCHEM_MOLECULAR_FORMULA>
C26H35ClN4O7S
> <PUBCHEM_MOLECULAR_WEIGHT>
583.1
> <PUBCHEM_OPENEYE_CAN_SMILES>
CC(C)COC(=O)NC(CCC(=O)O)C(=O)N1C=CCC1C(=O)NC(CS)C(=O)NCCC2=CC=CC=C2Cl
> <PUBCHEM_OPENEYE_ISO_SMILES>
CC(C)COC(=O)N[C@H](CCC(=O)O)C(=O)N1C=CC[C@H]1C(=O)N[C@@H](CS)C(=O)NCCC2=CC=CC=C2Cl
> <PUBCHEM_CACTVS_TPSA>
155
> <PUBCHEM_MONOISOTOPIC_WEIGHT>
582.1914983
> <PUBCHEM_TOTAL_CHARGE>
0
> <PUBCHEM_HEAVY_ATOM_COUNT>
39
> <PUBCHEM_ATOM_DEF_STEREO_COUNT>
3
> <PUBCHEM_ATOM_UDEF_STEREO_COUNT>
0
> <PUBCHEM_BOND_DEF_STEREO_COUNT>
0
> <PUBCHEM_BOND_UDEF_STEREO_COUNT>
0
> <PUBCHEM_ISOTOPIC_ATOM_COUNT>
0
> <PUBCHEM_COMPONENT_COUNT>
1
> <PUBCHEM_CACTVS_TAUTO_COUNT>
-1
> <PUBCHEM_COORDINATE_TYPE>
1
5
255
> <PUBCHEM_BONDANNOTATIONS>
22  11  6
16  12  6
14  20  5
32  35  8
32  36  8
35  37  8
36  38  8
37  39  8
38  39  8
$$$$
