507557
  -OEChem-10302200282D
137140  0     1  0  0  0  0  0999 V2000
    5.4641    8.0600    0.0000 Cl  0  0  0  0  0  0  0  0  0  0  0  0
   11.5263    4.5600    0.0000 S   0  0  0  0  0  0  0  0  0  0  0  0
   12.3923    2.0600    0.0000 O   0  0  0  0  0  0  0  0  0  0  0  0
   11.5263   -1.4400    0.0000 O   0  0  0  0  0  0  0  0  0  0  0  0
    8.0622   -2.4400    0.0000 O   0  0  0  0  0  0  0  0  0  0  0  0
    8.9282    3.0600    0.0000 O   0  0  0  0  0  0  0  0  0  0  0  0
    8.0622    1.5600    0.0000 O   0  0  0  0  0  0  0  0  0  0  0  0
    7.1962    0.0600    0.0000 O   0  0  0  0  0  0  0  0  0  0  0  0
    7.1962   -2.9400    0.0000 O   0  0  0  0  0  0  0  0  0  0  0  0
    4.5981   -5.4400    0.0000 O   0  0  0  0  0  0  0  0  0  0  0  0
    4.5981   -7.4400    0.0000 O   0  0  0  0  0  0  0  0  0  0  0  0
    6.3301   -7.4400    0.0000 O   0  0  0  0  0  0  0  0  0  0  0  0
    2.8660   -1.4400    0.0000 O   0  0  0  0  0  0  0  0  0  0  0  0
    2.0000   -2.9400    0.0000 O   0  0  0  0  0  0  0  0  0  0  0  0
    3.7320   -5.9400    0.0000 O   0  0  0  0  0  0  0  0  0  0  0  0
   10.6603    0.0600    0.0000 N   0  0  0  0  0  0  0  0  0  0  0  0
   10.6603    2.0600    0.0000 N   0  0  0  0  0  0  0  0  0  0  0  0
    9.7942   -2.4400    0.0000 N   0  0  0  0  0  0  0  0  0  0  0  0
    8.0622   -4.4400    0.0000 N   0  0  0  0  0  0  0  0  0  0  0  0
    9.7942    4.5600    0.0000 N   0  0  0  0  0  0  0  0  0  0  0  0
    5.4641   -3.9400    0.0000 N   0  0  0  0  0  0  0  0  0  0  0  0
    2.8660   -4.4400    0.0000 N   0  0  0  0  0  0  0  0  0  0  0  0
   13.2583    0.5600    0.0000 C   0  0  0  0  0  0  0  0  0  0  0  0
   13.2583    1.5600    0.0000 C   0  0  0  0  0  0  0  0  0  0  0  0
   14.1244    0.0600    0.0000 C   0  0  0  0  0  0  0  0  0  0  0  0
   14.1244    2.0600    0.0000 C   0  0  0  0  0  0  0  0  0  0  0  0
   14.9904    0.5600    0.0000 C   0  0  0  0  0  0  0  0  0  0  0  0
   12.3923    0.0600    0.0000 C   0  0  0  0  0  0  0  0  0  0  0  0
   14.9904    1.5600    0.0000 C   0  0  0  0  0  0  0  0  0  0  0  0
   11.5263    0.5600    0.0000 C   0  0  1  0  0  0  0  0  0  0  0  0
   11.5263    1.5600    0.0000 C   0  0  0  0  0  0  0  0  0  0  0  0
   10.6603   -0.9400    0.0000 C   0  0  0  0  0  0  0  0  0  0  0  0
    9.7942   -1.4400    0.0000 C   0  0  2  0  0  0  0  0  0  0  0  0
   10.6603    3.0600    0.0000 C   0  0  1  0  0  0  0  0  0  0  0  0
    8.9282   -0.9400    0.0000 C   0  0  0  0  0  0  0  0  0  0  0  0
    8.9282   -3.9400    0.0000 C   0  0  2  0  0  0  0  0  0  0  0  0
   11.5263    3.5600    0.0000 C   0  0  0  0  0  0  0  0  0  0  0  0
    8.9282   -2.9400    0.0000 C   0  0  0  0  0  0  0  0  0  0  0  0
    8.9282    0.0600    0.0000 C   0  0  0  0  0  0  0  0  0  0  0  0
    9.7942   -4.4400    0.0000 C   0  0  0  0  0  0  0  0  0  0  0  0
    9.7942    3.5600    0.0000 C   0  0  0  0  0  0  0  0  0  0  0  0
    9.7942   -5.4400    0.0000 C   0  0  0  0  0  0  0  0  0  0  0  0
   10.7942   -4.4400    0.0000 C   0  0  0  0  0  0  0  0  0  0  0  0
    8.0622    0.5600    0.0000 C   0  0  0  0  0  0  0  0  0  0  0  0
    7.1962   -3.9400    0.0000 C   0  0  0  0  0  0  0  0  0  0  0  0
    6.3301   -4.4400    0.0000 C   0  0  2  0  0  0  0  0  0  0  0  0
    8.9282    5.0600    0.0000 C   0  0  0  0  0  0  0  0  0  0  0  0
   10.6603   -5.9400    0.0000 C   0  0  0  0  0  0  0  0  0  0  0  0
   11.2942   -5.3060    0.0000 C   0  0  0  0  0  0  0  0  0  0  0  0
    8.9282   -5.9400    0.0000 C   0  0  0  0  0  0  0  0  0  0  0  0
   11.2942   -3.5740    0.0000 C   0  0  0  0  0  0  0  0  0  0  0  0
    6.3301   -5.4400    0.0000 C   0  0  0  0  0  0  0  0  0  0  0  0
    8.9282    6.0600    0.0000 C   0  0  0  0  0  0  0  0  0  0  0  0
   10.6603   -6.9400    0.0000 C   0  0  0  0  0  0  0  0  0  0  0  0
   12.2942   -5.3060    0.0000 C   0  0  0  0  0  0  0  0  0  0  0  0
    8.9282   -6.9400    0.0000 C   0  0  0  0  0  0  0  0  0  0  0  0
   12.2942   -3.5740    0.0000 C   0  0  0  0  0  0  0  0  0  0  0  0
    5.4641   -5.9400    0.0000 C   0  0  0  0  0  0  0  0  0  0  0  0
    9.7942   -7.4400    0.0000 C   0  0  0  0  0  0  0  0  0  0  0  0
   12.7942   -4.4400    0.0000 C   0  0  0  0  0  0  0  0  0  0  0  0
    4.5981   -4.4400    0.0000 C   0  0  0  0  0  0  0  0  0  0  0  0
    8.0622    6.5600    0.0000 C   0  0  0  0  0  0  0  0  0  0  0  0
    3.7320   -3.9400    0.0000 C   0  0  2  0  0  0  0  0  0  0  0  0
    5.4641   -6.9400    0.0000 C   0  0  0  0  0  0  0  0  0  0  0  0
    3.7320   -2.9400    0.0000 C   0  0  0  0  0  0  0  0  0  0  0  0
    8.0622    7.5600    0.0000 C   0  0  0  0  0  0  0  0  0  0  0  0
    7.1962    6.0600    0.0000 C   0  0  0  0  0  0  0  0  0  0  0  0
    2.8660   -2.4400    0.0000 C   0  0  0  0  0  0  0  0  0  0  0  0
    7.1962    8.0600    0.0000 C   0  0  0  0  0  0  0  0  0  0  0  0
    6.3301    6.5600    0.0000 C   0  0  0  0  0  0  0  0  0  0  0  0
    2.8660   -5.4400    0.0000 C   0  0  0  0  0  0  0  0  0  0  0  0
    6.3301    7.5600    0.0000 C   0  0  0  0  0  0  0  0  0  0  0  0
    2.0000   -5.9400    0.0000 C   0  0  0  0  0  0  0  0  0  0  0  0
   13.2583   -0.0600    0.0000 H   0  0  0  0  0  0  0  0  0  0  0  0
   13.0463    2.1426    0.0000 H   0  0  0  0  0  0  0  0  0  0  0  0
   12.6477    1.4523    0.0000 H   0  0  0  0  0  0  0  0  0  0  0  0
   13.7258   -0.4149    0.0000 H   0  0  0  0  0  0  0  0  0  0  0  0
   14.5229   -0.4149    0.0000 H   0  0  0  0  0  0  0  0  0  0  0  0
   14.5229    2.5349    0.0000 H   0  0  0  0  0  0  0  0  0  0  0  0
   13.7258    2.5349    0.0000 H   0  0  0  0  0  0  0  0  0  0  0  0
   15.2024   -0.0226    0.0000 H   0  0  0  0  0  0  0  0  0  0  0  0
   15.6010    0.6677    0.0000 H   0  0  0  0  0  0  0  0  0  0  0  0
   11.9938   -0.4149    0.0000 H   0  0  0  0  0  0  0  0  0  0  0  0
   12.7908   -0.4149    0.0000 H   0  0  0  0  0  0  0  0  0  0  0  0
   15.6010    1.4523    0.0000 H   0  0  0  0  0  0  0  0  0  0  0  0
   15.2024    2.1426    0.0000 H   0  0  0  0  0  0  0  0  0  0  0  0
   10.9893    0.8700    0.0000 H   0  0  0  0  0  0  0  0  0  0  0  0
   10.1233    0.3700    0.0000 H   0  0  0  0  0  0  0  0  0  0  0  0
   10.1233    1.7500    0.0000 H   0  0  0  0  0  0  0  0  0  0  0  0
    9.2573   -1.7500    0.0000 H   0  0  0  0  0  0  0  0  0  0  0  0
   11.1972    2.7500    0.0000 H   0  0  0  0  0  0  0  0  0  0  0  0
    8.3176   -0.8323    0.0000 H   0  0  0  0  0  0  0  0  0  0  0  0
    8.7162   -1.5226    0.0000 H   0  0  0  0  0  0  0  0  0  0  0  0
   10.3312   -2.7500    0.0000 H   0  0  0  0  0  0  0  0  0  0  0  0
    8.9282   -4.5600    0.0000 H   0  0  0  0  0  0  0  0  0  0  0  0
   11.7383    2.9774    0.0000 H   0  0  0  0  0  0  0  0  0  0  0  0
   12.1369    3.6677    0.0000 H   0  0  0  0  0  0  0  0  0  0  0  0
    9.5388   -0.0477    0.0000 H   0  0  0  0  0  0  0  0  0  0  0  0
    9.1403    0.6426    0.0000 H   0  0  0  0  0  0  0  0  0  0  0  0
    9.9547   -3.8411    0.0000 H   0  0  0  0  0  0  0  0  0  0  0  0
    8.0622   -5.0600    0.0000 H   0  0  0  0  0  0  0  0  0  0  0  0
   10.3312    4.8700    0.0000 H   0  0  0  0  0  0  0  0  0  0  0  0
    5.7932   -4.7500    0.0000 H   0  0  0  0  0  0  0  0  0  0  0  0
   12.0632    4.8700    0.0000 H   0  0  0  0  0  0  0  0  0  0  0  0
    8.3176    5.1677    0.0000 H   0  0  0  0  0  0  0  0  0  0  0  0
    8.7162    4.4774    0.0000 H   0  0  0  0  0  0  0  0  0  0  0  0
   11.1972   -5.6300    0.0000 H   0  0  0  0  0  0  0  0  0  0  0  0
   10.9842   -5.8430    0.0000 H   0  0  0  0  0  0  0  0  0  0  0  0
    8.3913   -5.6300    0.0000 H   0  0  0  0  0  0  0  0  0  0  0  0
   10.9842   -3.0370    0.0000 H   0  0  0  0  0  0  0  0  0  0  0  0
    6.5422   -6.0226    0.0000 H   0  0  0  0  0  0  0  0  0  0  0  0
    6.9407   -5.3323    0.0000 H   0  0  0  0  0  0  0  0  0  0  0  0
    9.5388    5.9523    0.0000 H   0  0  0  0  0  0  0  0  0  0  0  0
    9.1403    6.6426    0.0000 H   0  0  0  0  0  0  0  0  0  0  0  0
    5.4641   -3.3200    0.0000 H   0  0  0  0  0  0  0  0  0  0  0  0
    5.2520   -5.3574    0.0000 H   0  0  0  0  0  0  0  0  0  0  0  0
    4.8535   -6.0477    0.0000 H   0  0  0  0  0  0  0  0  0  0  0  0
   11.1972   -7.2500    0.0000 H   0  0  0  0  0  0  0  0  0  0  0  0
   12.6042   -5.8430    0.0000 H   0  0  0  0  0  0  0  0  0  0  0  0
    8.3913   -7.2500    0.0000 H   0  0  0  0  0  0  0  0  0  0  0  0
   12.6042   -3.0370    0.0000 H   0  0  0  0  0  0  0  0  0  0  0  0
    7.5252    1.8700    0.0000 H   0  0  0  0  0  0  0  0  0  0  0  0
    9.7942   -8.0600    0.0000 H   0  0  0  0  0  0  0  0  0  0  0  0
   13.4142   -4.4400    0.0000 H   0  0  0  0  0  0  0  0  0  0  0  0
    3.7320   -4.5600    0.0000 H   0  0  0  0  0  0  0  0  0  0  0  0
    4.3426   -3.0477    0.0000 H   0  0  0  0  0  0  0  0  0  0  0  0
    3.9441   -2.3574    0.0000 H   0  0  0  0  0  0  0  0  0  0  0  0
    2.3291   -4.1300    0.0000 H   0  0  0  0  0  0  0  0  0  0  0  0
    8.5991    7.8700    0.0000 H   0  0  0  0  0  0  0  0  0  0  0  0
    7.1962    5.4400    0.0000 H   0  0  0  0  0  0  0  0  0  0  0  0
    7.1962    8.6800    0.0000 H   0  0  0  0  0  0  0  0  0  0  0  0
    5.7932    6.2500    0.0000 H   0  0  0  0  0  0  0  0  0  0  0  0
    4.5981   -8.0600    0.0000 H   0  0  0  0  0  0  0  0  0  0  0  0
    1.6900   -5.4031    0.0000 H   0  0  0  0  0  0  0  0  0  0  0  0
    1.4631   -6.2500    0.0000 H   0  0  0  0  0  0  0  0  0  0  0  0
    2.3100   -6.4769    0.0000 H   0  0  0  0  0  0  0  0  0  0  0  0
    2.3291   -1.1300    0.0000 H   0  0  0  0  0  0  0  0  0  0  0  0
  1 72  1  0  0  0  0
  2 37  1  0  0  0  0
  2104  1  0  0  0  0
  3 31  2  0  0  0  0
  4 32  2  0  0  0  0
  5 38  2  0  0  0  0
  6 41  2  0  0  0  0
  7 44  1  0  0  0  0
  7122  1  0  0  0  0
  8 44  2  0  0  0  0
  9 45  2  0  0  0  0
 10 61  2  0  0  0  0
 11 64  1  0  0  0  0
 11133  1  0  0  0  0
 12 64  2  0  0  0  0
 13 68  1  0  0  0  0
 13137  1  0  0  0  0
 14 68  2  0  0  0  0
 15 71  2  0  0  0  0
 30 16  1  6  0  0  0
 16 32  1  0  0  0  0
 16 88  1  0  0  0  0
 17 31  1  0  0  0  0
 34 17  1  6  0  0  0
 17 89  1  0  0  0  0
 33 18  1  1  0  0  0
 18 38  1  0  0  0  0
 18 94  1  0  0  0  0
 36 19  1  6  0  0  0
 19 45  1  0  0  0  0
 19101  1  0  0  0  0
 20 41  1  0  0  0  0
 20 47  1  0  0  0  0
 20102  1  0  0  0  0
 46 21  1  6  0  0  0
 21 61  1  0  0  0  0
 21115  1  0  0  0  0
 63 22  1  1  0  0  0
 22 71  1  0  0  0  0
 22128  1  0  0  0  0
 23 24  1  0  0  0  0
 23 25  1  0  0  0  0
 23 28  1  0  0  0  0
 23 74  1  0  0  0  0
 24 26  1  0  0  0  0
 24 75  1  0  0  0  0
 24 76  1  0  0  0  0
 25 27  1  0  0  0  0
 25 77  1  0  0  0  0
 25 78  1  0  0  0  0
 26 29  1  0  0  0  0
 26 79  1  0  0  0  0
 26 80  1  0  0  0  0
 27 29  1  0  0  0  0
 27 81  1  0  0  0  0
 27 82  1  0  0  0  0
 28 30  1  0  0  0  0
 28 83  1  0  0  0  0
 28 84  1  0  0  0  0
 29 85  1  0  0  0  0
 29 86  1  0  0  0  0
 30 31  1  0  0  0  0
 30 87  1  0  0  0  0
 32 33  1  0  0  0  0
 33 35  1  0  0  0  0
 33 90  1  0  0  0  0
 34 37  1  0  0  0  0
 34 41  1  0  0  0  0
 34 91  1  0  0  0  0
 35 39  1  0  0  0  0
 35 92  1  0  0  0  0
 35 93  1  0  0  0  0
 36 38  1  0  0  0  0
 36 40  1  0  0  0  0
 36 95  1  0  0  0  0
 37 96  1  0  0  0  0
 37 97  1  0  0  0  0
 39 44  1  0  0  0  0
 39 98  1  0  0  0  0
 39 99  1  0  0  0  0
 40 42  1  0  0  0  0
 40 43  1  0  0  0  0
 40100  1  0  0  0  0
 42 48  2  0  0  0  0
 42 50  1  0  0  0  0
 43 49  2  0  0  0  0
 43 51  1  0  0  0  0
 45 46  1  0  0  0  0
 46 52  1  0  0  0  0
 46103  1  0  0  0  0
 47 53  1  0  0  0  0
 47105  1  0  0  0  0
 47106  1  0  0  0  0
 48 54  1  0  0  0  0
 48107  1  0  0  0  0
 49 55  1  0  0  0  0
 49108  1  0  0  0  0
 50 56  2  0  0  0  0
 50109  1  0  0  0  0
 51 57  2  0  0  0  0
 51110  1  0  0  0  0
 52 58  1  0  0  0  0
 52111  1  0  0  0  0
 52112  1  0  0  0  0
 53 62  1  0  0  0  0
 53113  1  0  0  0  0
 53114  1  0  0  0  0
 54 59  2  0  0  0  0
 54118  1  0  0  0  0
 55 60  2  0  0  0  0
 55119  1  0  0  0  0
 56 59  1  0  0  0  0
 56120  1  0  0  0  0
 57 60  1  0  0  0  0
 57121  1  0  0  0  0
 58 64  1  0  0  0  0
 58116  1  0  0  0  0
 58117  1  0  0  0  0
 59123  1  0  0  0  0
 60124  1  0  0  0  0
 61 63  1  0  0  0  0
 62 66  2  0  0  0  0
 62 67  1  0  0  0  0
 63 65  1  0  0  0  0
 63125  1  0  0  0  0
 65 68  1  0  0  0  0
 65126  1  0  0  0  0
 65127  1  0  0  0  0
 66 69  1  0  0  0  0
 66129  1  0  0  0  0
 67 70  2  0  0  0  0
 67130  1  0  0  0  0
 69 72  2  0  0  0  0
 69131  1  0  0  0  0
 70 72  1  0  0  0  0
 70132  1  0  0  0  0
 71 73  1  0  0  0  0
 73134  1  0  0  0  0
 73135  1  0  0  0  0
 73136  1  0  0  0  0
M  END
> <PUBCHEM_COMPOUND_CID>
507557
> <PUBCHEM_COMPOUND_CANONICALIZED>
1
> <PUBCHEM_CACTVS_COMPLEXITY>
1850
> <PUBCHEM_CACTVS_HBOND_ACCEPTOR>
14
> <PUBCHEM_CACTVS_HBOND_DONOR>
11
> <PUBCHEM_CACTVS_ROTATABLE_BOND>
29
> <PUBCHEM_CACTVS_SUBSKEYS>
AAADcfB/vABEAAAAAAAAAAAAAAAAAAAAAAAwYMGAAAAAAAABUAAAHgYQCAAADSrF2CSyCILAAgSIAiHSGAACAAAgBQAIiIGIAogIYDqBkzGUYAAmlgCIiAe/n8KOhAAAAAAAAAAIAAAAAAAAAAAAAAAAAA==
> <PUBCHEM_IUPAC_OPENEYE_NAME>
(4S)-4-[[(2S)-2-acetamido-3-carboxy-propanoyl]amino]-5-[[(1S)-1-benzhydryl-2-[[(1S)-3-carboxy-1-[[(1S)-2-[[(1R)-2-[2-(4-chlorophenyl)ethylamino]-2-oxo-1-(sulfanylmethyl)ethyl]amino]-1-(cyclohexylmethyl)-2-oxo-ethyl]carbamoyl]propyl]amino]-2-oxo-ethyl]amino]-5-oxo-pentanoic acid
> <PUBCHEM_IUPAC_CAS_NAME>
(4S)-4-[[(2S)-2-acetamido-3-carboxy-1-oxopropyl]amino]-5-[[(2S)-1-[[(2S)-4-carboxy-1-[[(2S)-1-[[(2R)-1-[2-(4-chlorophenyl)ethylamino]-3-mercapto-1-oxopropan-2-yl]amino]-3-cyclohexyl-1-oxopropan-2-yl]amino]-1-oxobutan-2-yl]amino]-1-oxo-3,3-diphenylpropan-2-yl]amino]-5-oxopentanoic acid
> <PUBCHEM_IUPAC_NAME_MARKUP>
(4<I>S</I>)-4-[[(2<I>S</I>)-2-acetamido-3-carboxypropanoyl]amino]-5-[[(2<I>S</I>)-1-[[(2<I>S</I>)-4-carboxy-1-[[(2<I>S</I>)-1-[[(2<I>R</I>)-1-[2-(4-chlorophenyl)ethylamino]-1-oxo-3-sulfanylpropan-2-yl]amino]-3-cyclohexyl-1-oxopropan-2-yl]amino]-1-oxobutan-2-yl]amino]-1-oxo-3,3-diphenylpropan-2-yl]amino]-5-oxopentanoic acid
> <PUBCHEM_IUPAC_NAME>
(4S)-4-[[(2S)-2-acetamido-3-carboxypropanoyl]amino]-5-[[(2S)-1-[[(2S)-4-carboxy-1-[[(2S)-1-[[(2R)-1-[2-(4-chlorophenyl)ethylamino]-1-oxo-3-sulfanylpropan-2-yl]amino]-3-cyclohexyl-1-oxopropan-2-yl]amino]-1-oxobutan-2-yl]amino]-1-oxo-3,3-diphenylpropan-2-yl]amino]-5-oxopentanoic acid
> <PUBCHEM_IUPAC_SYSTEMATIC_NAME>
(4S)-4-[[(2S)-2-acetamido-4-oxidanyl-4-oxidanylidene-butanoyl]amino]-5-[[(2S)-1-[[(2S)-1-[[(2S)-1-[[(2R)-1-[2-(4-chlorophenyl)ethylamino]-1-oxidanylidene-3-sulfanyl-propan-2-yl]amino]-3-cyclohexyl-1-oxidanylidene-propan-2-yl]amino]-5-oxidanyl-1,5-bis(oxidanylidene)pentan-2-yl]amino]-1-oxidanylidene-3,3-diphenyl-propan-2-yl]amino]-5-oxidanylidene-pentanoic acid
> <PUBCHEM_IUPAC_TRADITIONAL_NAME>
(4S)-4-[[(2S)-2-acetamido-3-carboxy-propanoyl]amino]-5-[[(1S)-1-benzhydryl-2-[[(1S)-3-carboxy-1-[[(1S)-2-[[(1R)-2-[2-(4-chlorophenyl)ethylamino]-2-keto-1-(mercaptomethyl)ethyl]amino]-1-(cyclohexylmethyl)-2-keto-ethyl]carbamoyl]propyl]amino]-2-keto-ethyl]amino]-5-keto-valeric acid
> <PUBCHEM_IUPAC_INCHI>
InChI=1S/C51H64ClN7O13S/c1-30(60)54-39(28-43(65)66)50(71)55-37(22-24-42(63)64)48(69)59-45(44(33-13-7-3-8-14-33)34-15-9-4-10-16-34)51(72)56-36(21-23-41(61)62)47(68)57-38(27-32-11-5-2-6-12-32)49(70)58-40(29-73)46(67)53-26-25-31-17-19-35(52)20-18-31/h3-4,7-10,13-20,32,36-40,44-45,73H,2,5-6,11-12,21-29H2,1H3,(H,53,67)(H,54,60)(H,55,71)(H,56,72)(H,57,68)(H,58,70)(H,59,69)(H,61,62)(H,63,64)(H,65,66)/t36-,37-,38-,39-,40-,45-/m0/s1
> <PUBCHEM_IUPAC_INCHIKEY>
BJCJZFSWAKEVOK-VUKWIJDPSA-N
> <PUBCHEM_XLOGP3_AA>
4.4
> <PUBCHEM_EXACT_MASS>
1049.3971340
> <PUBCHEM_MOLECULAR_FORMULA>
C51H64ClN7O13S
> <PUBCHEM_MOLECULAR_WEIGHT>
1050.6
> <PUBCHEM_OPENEYE_CAN_SMILES>
CC(=O)NC(CC(=O)O)C(=O)NC(CCC(=O)O)C(=O)NC(C(C1=CC=CC=C1)C2=CC=CC=C2)C(=O)NC(CCC(=O)O)C(=O)NC(CC3CCCCC3)C(=O)NC(CS)C(=O)NCCC4=CC=C(C=C4)Cl
> <PUBCHEM_OPENEYE_ISO_SMILES>
CC(=O)N[C@@H](CC(=O)O)C(=O)N[C@@H](CCC(=O)O)C(=O)N[C@@H](C(C1=CC=CC=C1)C2=CC=CC=C2)C(=O)N[C@@H](CCC(=O)O)C(=O)N[C@@H](CC3CCCCC3)C(=O)N[C@@H](CS)C(=O)NCCC4=CC=C(C=C4)Cl
> <PUBCHEM_CACTVS_TPSA>
317
> <PUBCHEM_MONOISOTOPIC_WEIGHT>
1049.3971340
> <PUBCHEM_TOTAL_CHARGE>
0
> <PUBCHEM_HEAVY_ATOM_COUNT>
73
> <PUBCHEM_ATOM_DEF_STEREO_COUNT>
6
> <PUBCHEM_ATOM_UDEF_STEREO_COUNT>
0
> <PUBCHEM_BOND_DEF_STEREO_COUNT>
0
> <PUBCHEM_BOND_UDEF_STEREO_COUNT>
0
> <PUBCHEM_ISOTOPIC_ATOM_COUNT>
0
> <PUBCHEM_COMPONENT_COUNT>
1
> <PUBCHEM_CACTVS_TAUTO_COUNT>
-1
> <PUBCHEM_COORDINATE_TYPE>
1
5
255
> <PUBCHEM_BONDANNOTATIONS>
30  16  6
34  17  6
33  18  5
36  19  6
46  21  6
63  22  5
42  48  8
42  50  8
43  49  8
43  51  8
48  54  8
49  55  8
50  56  8
51  57  8
54  59  8
55  60  8
56  59  8
57  60  8
62  66  8
62  67  8
66  69  8
67  70  8
69  72  8
70  72  8
$$$$
