507543
  -OEChem-10302200282D
 83 84  0     1  0  0  0  0  0999 V2000
    4.5981    5.2500    0.0000 S   0  0  0  0  0  0  0  0  0  0  0  0
    3.7320    0.7500    0.0000 S   0  0  0  0  0  0  0  0  0  0  0  0
    4.5981    1.2500    0.0000 O   0  0  0  0  0  0  0  0  0  0  0  0
    4.5981    2.2500    0.0000 O   0  0  0  0  0  0  0  0  0  0  0  0
    3.5981    5.2500    0.0000 O   0  0  0  0  0  0  0  0  0  0  0  0
    5.5981    5.2500    0.0000 O   0  0  0  0  0  0  0  0  0  0  0  0
    5.4641   -2.2500    0.0000 O   0  0  0  0  0  0  0  0  0  0  0  0
    8.0622    5.2500    0.0000 O   0  0  0  0  0  0  0  0  0  0  0  0
    7.1962    6.7500    0.0000 O   0  0  0  0  0  0  0  0  0  0  0  0
    2.8660   -7.7500    0.0000 O   0  0  0  0  0  0  0  0  0  0  0  0
    6.3301    2.2500    0.0000 N   0  0  0  0  0  0  0  0  0  0  0  0
    4.5981    4.2500    0.0000 N   0  0  0  0  0  0  0  0  0  0  0  0
    5.4641   -0.2500    0.0000 N   0  0  0  0  0  0  0  0  0  0  0  0
    3.7320   -2.2500    0.0000 N   0  0  0  0  0  0  0  0  0  0  0  0
    6.3301    1.2500    0.0000 C   0  0  1  0  0  0  0  0  0  0  0  0
    7.1962    0.7500    0.0000 C   0  0  0  0  0  0  0  0  0  0  0  0
    8.0622    1.2500    0.0000 C   0  0  0  0  0  0  0  0  0  0  0  0
    5.4641    3.7500    0.0000 C   0  0  2  0  0  0  0  0  0  0  0  0
    5.4641    0.7500    0.0000 C   0  0  0  0  0  0  0  0  0  0  0  0
    5.4641    2.7500    0.0000 C   0  0  0  0  0  0  0  0  0  0  0  0
    6.3301    4.2500    0.0000 C   0  0  0  0  0  0  0  0  0  0  0  0
    8.9282    0.7500    0.0000 C   0  0  0  0  0  0  0  0  0  0  0  0
    8.0622    2.2500    0.0000 C   0  0  0  0  0  0  0  0  0  0  0  0
    4.5981   -0.7500    0.0000 C   0  0  1  0  0  0  0  0  0  0  0  0
    6.3301    5.2500    0.0000 C   0  0  0  0  0  0  0  0  0  0  0  0
    3.7320   -0.2500    0.0000 C   0  0  0  0  0  0  0  0  0  0  0  0
    4.5981   -1.7500    0.0000 C   0  0  0  0  0  0  0  0  0  0  0  0
    4.5981    6.2500    0.0000 C   0  0  0  0  0  0  0  0  0  0  0  0
    7.1962    5.7500    0.0000 C   0  0  0  0  0  0  0  0  0  0  0  0
    3.7320   -3.2500    0.0000 C   0  0  0  0  0  0  0  0  0  0  0  0
    2.8660   -3.7500    0.0000 C   0  0  0  0  0  0  0  0  0  0  0  0
    5.4641    6.7500    0.0000 C   0  0  0  0  0  0  0  0  0  0  0  0
    3.7320    6.7500    0.0000 C   0  0  0  0  0  0  0  0  0  0  0  0
    2.8660   -4.7500    0.0000 C   0  0  0  0  0  0  0  0  0  0  0  0
    5.4641    7.7500    0.0000 C   0  0  0  0  0  0  0  0  0  0  0  0
    3.7320    7.7500    0.0000 C   0  0  0  0  0  0  0  0  0  0  0  0
    4.5981    8.2500    0.0000 C   0  0  0  0  0  0  0  0  0  0  0  0
    3.7320   -5.2500    0.0000 C   0  0  0  0  0  0  0  0  0  0  0  0
    2.0000   -5.2500    0.0000 C   0  0  0  0  0  0  0  0  0  0  0  0
    3.7320   -6.2500    0.0000 C   0  0  0  0  0  0  0  0  0  0  0  0
    2.0000   -6.2500    0.0000 C   0  0  0  0  0  0  0  0  0  0  0  0
    2.8660   -6.7500    0.0000 C   0  0  0  0  0  0  0  0  0  0  0  0
    2.0000   -8.2500    0.0000 C   0  0  0  0  0  0  0  0  0  0  0  0
    6.8671    1.5600    0.0000 H   0  0  0  0  0  0  0  0  0  0  0  0
    6.7976    0.2751    0.0000 H   0  0  0  0  0  0  0  0  0  0  0  0
    7.5947    0.2751    0.0000 H   0  0  0  0  0  0  0  0  0  0  0  0
    8.0622    0.6300    0.0000 H   0  0  0  0  0  0  0  0  0  0  0  0
    5.4641    4.3700    0.0000 H   0  0  0  0  0  0  0  0  0  0  0  0
    6.8671    2.5600    0.0000 H   0  0  0  0  0  0  0  0  0  0  0  0
    6.5422    3.6674    0.0000 H   0  0  0  0  0  0  0  0  0  0  0  0
    6.9407    4.3577    0.0000 H   0  0  0  0  0  0  0  0  0  0  0  0
    8.6182    0.2131    0.0000 H   0  0  0  0  0  0  0  0  0  0  0  0
    9.4651    0.4400    0.0000 H   0  0  0  0  0  0  0  0  0  0  0  0
    9.2382    1.2869    0.0000 H   0  0  0  0  0  0  0  0  0  0  0  0
    8.6822    2.2500    0.0000 H   0  0  0  0  0  0  0  0  0  0  0  0
    8.0622    2.8700    0.0000 H   0  0  0  0  0  0  0  0  0  0  0  0
    7.4422    2.2500    0.0000 H   0  0  0  0  0  0  0  0  0  0  0  0
    4.0611    3.9400    0.0000 H   0  0  0  0  0  0  0  0  0  0  0  0
    6.0010   -0.5600    0.0000 H   0  0  0  0  0  0  0  0  0  0  0  0
    4.5981   -0.1300    0.0000 H   0  0  0  0  0  0  0  0  0  0  0  0
    6.1181    5.8326    0.0000 H   0  0  0  0  0  0  0  0  0  0  0  0
    5.7196    5.1423    0.0000 H   0  0  0  0  0  0  0  0  0  0  0  0
    3.1215   -0.1423    0.0000 H   0  0  0  0  0  0  0  0  0  0  0  0
    3.5200   -0.8326    0.0000 H   0  0  0  0  0  0  0  0  0  0  0  0
    3.1951   -1.9400    0.0000 H   0  0  0  0  0  0  0  0  0  0  0  0
    3.9441   -3.8326    0.0000 H   0  0  0  0  0  0  0  0  0  0  0  0
    4.3426   -3.1423    0.0000 H   0  0  0  0  0  0  0  0  0  0  0  0
    2.6540   -3.1674    0.0000 H   0  0  0  0  0  0  0  0  0  0  0  0
    2.2554   -3.8577    0.0000 H   0  0  0  0  0  0  0  0  0  0  0  0
    6.0010    6.4400    0.0000 H   0  0  0  0  0  0  0  0  0  0  0  0
    3.1951    6.4400    0.0000 H   0  0  0  0  0  0  0  0  0  0  0  0
    3.1951    1.0600    0.0000 H   0  0  0  0  0  0  0  0  0  0  0  0
    6.0010    8.0600    0.0000 H   0  0  0  0  0  0  0  0  0  0  0  0
    3.1951    8.0600    0.0000 H   0  0  0  0  0  0  0  0  0  0  0  0
    4.5981    8.8700    0.0000 H   0  0  0  0  0  0  0  0  0  0  0  0
    8.5991    5.5600    0.0000 H   0  0  0  0  0  0  0  0  0  0  0  0
    4.2690   -4.9400    0.0000 H   0  0  0  0  0  0  0  0  0  0  0  0
    1.4631   -4.9400    0.0000 H   0  0  0  0  0  0  0  0  0  0  0  0
    4.2690   -6.5600    0.0000 H   0  0  0  0  0  0  0  0  0  0  0  0
    1.4631   -6.5600    0.0000 H   0  0  0  0  0  0  0  0  0  0  0  0
    1.6900   -7.7131    0.0000 H   0  0  0  0  0  0  0  0  0  0  0  0
    1.4631   -8.5600    0.0000 H   0  0  0  0  0  0  0  0  0  0  0  0
    2.3100   -8.7869    0.0000 H   0  0  0  0  0  0  0  0  0  0  0  0
  1  5  2  0  0  0  0
  1  6  2  0  0  0  0
  1 12  1  0  0  0  0
  1 28  1  0  0  0  0
  2 26  1  0  0  0  0
  2 72  1  0  0  0  0
  3 19  2  0  0  0  0
  4 20  2  0  0  0  0
  7 27  2  0  0  0  0
  8 29  1  0  0  0  0
  8 76  1  0  0  0  0
  9 29  2  0  0  0  0
 10 42  1  0  0  0  0
 10 43  1  0  0  0  0
 15 11  1  1  0  0  0
 11 20  1  0  0  0  0
 11 49  1  0  0  0  0
 18 12  1  1  0  0  0
 12 58  1  0  0  0  0
 13 19  1  0  0  0  0
 24 13  1  6  0  0  0
 13 59  1  0  0  0  0
 14 27  1  0  0  0  0
 14 30  1  0  0  0  0
 14 65  1  0  0  0  0
 15 16  1  0  0  0  0
 15 19  1  0  0  0  0
 15 44  1  0  0  0  0
 16 17  1  0  0  0  0
 16 45  1  0  0  0  0
 16 46  1  0  0  0  0
 17 22  1  0  0  0  0
 17 23  1  0  0  0  0
 17 47  1  0  0  0  0
 18 20  1  0  0  0  0
 18 21  1  0  0  0  0
 18 48  1  0  0  0  0
 21 25  1  0  0  0  0
 21 50  1  0  0  0  0
 21 51  1  0  0  0  0
 22 52  1  0  0  0  0
 22 53  1  0  0  0  0
 22 54  1  0  0  0  0
 23 55  1  0  0  0  0
 23 56  1  0  0  0  0
 23 57  1  0  0  0  0
 24 26  1  0  0  0  0
 24 27  1  0  0  0  0
 24 60  1  0  0  0  0
 25 29  1  0  0  0  0
 25 61  1  0  0  0  0
 25 62  1  0  0  0  0
 26 63  1  0  0  0  0
 26 64  1  0  0  0  0
 28 32  2  0  0  0  0
 28 33  1  0  0  0  0
 30 31  1  0  0  0  0
 30 66  1  0  0  0  0
 30 67  1  0  0  0  0
 31 34  1  0  0  0  0
 31 68  1  0  0  0  0
 31 69  1  0  0  0  0
 32 35  1  0  0  0  0
 32 70  1  0  0  0  0
 33 36  2  0  0  0  0
 33 71  1  0  0  0  0
 34 38  2  0  0  0  0
 34 39  1  0  0  0  0
 35 37  2  0  0  0  0
 35 73  1  0  0  0  0
 36 37  1  0  0  0  0
 36 74  1  0  0  0  0
 37 75  1  0  0  0  0
 38 40  1  0  0  0  0
 38 77  1  0  0  0  0
 39 41  2  0  0  0  0
 39 78  1  0  0  0  0
 40 42  2  0  0  0  0
 40 79  1  0  0  0  0
 41 42  1  0  0  0  0
 41 80  1  0  0  0  0
 43 81  1  0  0  0  0
 43 82  1  0  0  0  0
 43 83  1  0  0  0  0
M  END
> <PUBCHEM_COMPOUND_CID>
507543
> <PUBCHEM_COMPOUND_CANONICALIZED>
1
> <PUBCHEM_CACTVS_COMPLEXITY>
1010
> <PUBCHEM_CACTVS_HBOND_ACCEPTOR>
10
> <PUBCHEM_CACTVS_HBOND_DONOR>
6
> <PUBCHEM_CACTVS_ROTATABLE_BOND>
18
> <PUBCHEM_CACTVS_SUBSKEYS>
AAADcfB7vABgAAAAAAAAAAAAAAAAAAAAAAAwYAAAAAAAAAABQAAAHgQQSAAADSzF2AayD4LABgaIAiHSGHBCCBAgIAAIiJmOCIgMZjKEsTuUcCAk1hGIqAe814IOIAAAAAAAAABAAAAAAAAAAAAAAAAAAA==
> <PUBCHEM_IUPAC_OPENEYE_NAME>
(4S)-4-(benzenesulfonamido)-5-[[(1S)-1-[[(1R)-2-[2-(4-methoxyphenyl)ethylamino]-2-oxo-1-(sulfanylmethyl)ethyl]carbamoyl]-3-methyl-butyl]amino]-5-oxo-pentanoic acid
> <PUBCHEM_IUPAC_CAS_NAME>
(4S)-4-(benzenesulfonamido)-5-[[(2S)-1-[[(2R)-3-mercapto-1-[2-(4-methoxyphenyl)ethylamino]-1-oxopropan-2-yl]amino]-4-methyl-1-oxopentan-2-yl]amino]-5-oxopentanoic acid
> <PUBCHEM_IUPAC_NAME_MARKUP>
(4<I>S</I>)-4-(benzenesulfonamido)-5-[[(2<I>S</I>)-1-[[(2<I>R</I>)-1-[2-(4-methoxyphenyl)ethylamino]-1-oxo-3-sulfanylpropan-2-yl]amino]-4-methyl-1-oxopentan-2-yl]amino]-5-oxopentanoic acid
> <PUBCHEM_IUPAC_NAME>
(4S)-4-(benzenesulfonamido)-5-[[(2S)-1-[[(2R)-1-[2-(4-methoxyphenyl)ethylamino]-1-oxo-3-sulfanylpropan-2-yl]amino]-4-methyl-1-oxopentan-2-yl]amino]-5-oxopentanoic acid
> <PUBCHEM_IUPAC_SYSTEMATIC_NAME>
(4S)-5-[[(2S)-1-[[(2R)-1-[2-(4-methoxyphenyl)ethylamino]-1-oxidanylidene-3-sulfanyl-propan-2-yl]amino]-4-methyl-1-oxidanylidene-pentan-2-yl]amino]-5-oxidanylidene-4-(phenylsulfonylamino)pentanoic acid
> <PUBCHEM_IUPAC_TRADITIONAL_NAME>
(4S)-4-(benzenesulfonamido)-5-keto-5-[[(1S)-1-[[(1R)-2-keto-1-(mercaptomethyl)-2-[2-(4-methoxyphenyl)ethylamino]ethyl]carbamoyl]-3-methyl-butyl]amino]valeric acid
> <PUBCHEM_IUPAC_INCHI>
InChI=1S/C29H40N4O8S2/c1-19(2)17-24(29(38)32-25(18-42)27(36)30-16-15-20-9-11-21(41-3)12-10-20)31-28(37)23(13-14-26(34)35)33-43(39,40)22-7-5-4-6-8-22/h4-12,19,23-25,33,42H,13-18H2,1-3H3,(H,30,36)(H,31,37)(H,32,38)(H,34,35)/t23-,24-,25-/m0/s1
> <PUBCHEM_IUPAC_INCHIKEY>
BDWUPSQLJJXCHG-SDHOMARFSA-N
> <PUBCHEM_XLOGP3_AA>
2.8
> <PUBCHEM_EXACT_MASS>
636.22875659
> <PUBCHEM_MOLECULAR_FORMULA>
C29H40N4O8S2
> <PUBCHEM_MOLECULAR_WEIGHT>
636.8
> <PUBCHEM_OPENEYE_CAN_SMILES>
CC(C)CC(C(=O)NC(CS)C(=O)NCCC1=CC=C(C=C1)OC)NC(=O)C(CCC(=O)O)NS(=O)(=O)C2=CC=CC=C2
> <PUBCHEM_OPENEYE_ISO_SMILES>
CC(C)C[C@@H](C(=O)N[C@@H](CS)C(=O)NCCC1=CC=C(C=C1)OC)NC(=O)[C@H](CCC(=O)O)NS(=O)(=O)C2=CC=CC=C2
> <PUBCHEM_CACTVS_TPSA>
189
> <PUBCHEM_MONOISOTOPIC_WEIGHT>
636.22875659
> <PUBCHEM_TOTAL_CHARGE>
0
> <PUBCHEM_HEAVY_ATOM_COUNT>
43
> <PUBCHEM_ATOM_DEF_STEREO_COUNT>
3
> <PUBCHEM_ATOM_UDEF_STEREO_COUNT>
0
> <PUBCHEM_BOND_DEF_STEREO_COUNT>
0
> <PUBCHEM_BOND_UDEF_STEREO_COUNT>
0
> <PUBCHEM_ISOTOPIC_ATOM_COUNT>
0
> <PUBCHEM_COMPONENT_COUNT>
1
> <PUBCHEM_CACTVS_TAUTO_COUNT>
-1
> <PUBCHEM_COORDINATE_TYPE>
1
5
255
> <PUBCHEM_BONDANNOTATIONS>
15  11  5
18  12  5
24  13  6
28  32  8
28  33  8
32  35  8
33  36  8
34  38  8
34  39  8
35  37  8
36  37  8
38  40  8
39  41  8
40  42  8
41  42  8
$$$$
