507581
  -OEChem-10302200282D
 91 92  0     1  0  0  0  0  0999 V2000
    2.0000   -5.5000    0.0000 Cl  0  0  0  0  0  0  0  0  0  0  0  0
    4.5981    0.0000    0.0000 S   0  0  0  0  0  0  0  0  0  0  0  0
    5.4641    0.5000    0.0000 O   0  0  0  0  0  0  0  0  0  0  0  0
    8.9282    1.5000    0.0000 O   0  0  0  0  0  0  0  0  0  0  0  0
    9.7942    5.0000    0.0000 O   0  0  0  0  0  0  0  0  0  0  0  0
   10.6603    0.5000    0.0000 O   0  0  0  0  0  0  0  0  0  0  0  0
    6.3301   -3.0000    0.0000 O   0  0  0  0  0  0  0  0  0  0  0  0
    9.7942   -1.0000    0.0000 O   0  0  0  0  0  0  0  0  0  0  0  0
    6.3301    6.0000    0.0000 O   0  0  0  0  0  0  0  0  0  0  0  0
    8.0622    5.0000    0.0000 O   0  0  0  0  0  0  0  0  0  0  0  0
    5.4641    4.5000    0.0000 O   0  0  0  0  0  0  0  0  0  0  0  0
    7.1962    1.5000    0.0000 N   0  0  0  0  0  0  0  0  0  0  0  0
    6.3301   -1.0000    0.0000 N   0  0  0  0  0  0  0  0  0  0  0  0
    8.9282    3.5000    0.0000 N   0  0  0  0  0  0  0  0  0  0  0  0
    4.5981   -3.0000    0.0000 N   0  0  0  0  0  0  0  0  0  0  0  0
    7.1962    0.5000    0.0000 C   0  0  1  0  0  0  0  0  0  0  0  0
    8.0622    0.0000    0.0000 C   0  0  0  0  0  0  0  0  0  0  0  0
    8.0622    3.0000    0.0000 C   0  0  1  0  0  0  0  0  0  0  0  0
    7.1962    3.5000    0.0000 C   0  0  0  0  0  0  0  0  0  0  0  0
    6.3301    0.0000    0.0000 C   0  0  0  0  0  0  0  0  0  0  0  0
    8.0622    2.0000    0.0000 C   0  0  0  0  0  0  0  0  0  0  0  0
    8.9282    0.5000    0.0000 C   0  0  0  0  0  0  0  0  0  0  0  0
    5.4641   -1.5000    0.0000 C   0  0  1  0  0  0  0  0  0  0  0  0
    7.1962    4.5000    0.0000 C   0  0  0  0  0  0  0  0  0  0  0  0
    4.5981   -1.0000    0.0000 C   0  0  0  0  0  0  0  0  0  0  0  0
    5.4641   -2.5000    0.0000 C   0  0  0  0  0  0  0  0  0  0  0  0
    9.7942    0.0000    0.0000 C   0  0  0  0  0  0  0  0  0  0  0  0
    8.9282    4.5000    0.0000 C   0  0  0  0  0  0  0  0  0  0  0  0
    4.5981   -4.0000    0.0000 C   0  0  0  0  0  0  0  0  0  0  0  0
   10.6603    6.5000    0.0000 C   0  0  0  0  0  0  0  0  0  0  0  0
    6.3301    5.0000    0.0000 C   0  0  0  0  0  0  0  0  0  0  0  0
    3.7320   -4.5000    0.0000 C   0  0  0  0  0  0  0  0  0  0  0  0
    9.7942    6.0000    0.0000 C   0  0  0  0  0  0  0  0  0  0  0  0
    3.7320   -5.5000    0.0000 C   0  0  0  0  0  0  0  0  0  0  0  0
   10.6603    7.5000    0.0000 C   0  0  0  0  0  0  0  0  0  0  0  0
   11.5263    6.0000    0.0000 C   0  0  0  0  0  0  0  0  0  0  0  0
   11.5263    0.0000    0.0000 C   0  0  0  0  0  0  0  0  0  0  0  0
    2.8660   -6.0000    0.0000 C   0  0  0  0  0  0  0  0  0  0  0  0
    4.5981   -6.0000    0.0000 C   0  0  0  0  0  0  0  0  0  0  0  0
   12.3923    0.5000    0.0000 C   0  0  0  0  0  0  0  0  0  0  0  0
    2.8660   -7.0000    0.0000 C   0  0  0  0  0  0  0  0  0  0  0  0
    4.5981   -7.0000    0.0000 C   0  0  0  0  0  0  0  0  0  0  0  0
    3.7320   -7.5000    0.0000 C   0  0  0  0  0  0  0  0  0  0  0  0
   12.3923    1.5000    0.0000 C   0  0  0  0  0  0  0  0  0  0  0  0
   13.2583   -0.0000    0.0000 C   0  0  0  0  0  0  0  0  0  0  0  0
   13.2583    2.0000    0.0000 C   0  0  0  0  0  0  0  0  0  0  0  0
   14.1244    0.5000    0.0000 C   0  0  0  0  0  0  0  0  0  0  0  0
   14.1244    1.5000    0.0000 C   0  0  0  0  0  0  0  0  0  0  0  0
    6.6592    0.8100    0.0000 H   0  0  0  0  0  0  0  0  0  0  0  0
    7.6636   -0.4749    0.0000 H   0  0  0  0  0  0  0  0  0  0  0  0
    8.4607   -0.4749    0.0000 H   0  0  0  0  0  0  0  0  0  0  0  0
    8.0622    3.6200    0.0000 H   0  0  0  0  0  0  0  0  0  0  0  0
    6.6592    1.8100    0.0000 H   0  0  0  0  0  0  0  0  0  0  0  0
    6.5856    3.6077    0.0000 H   0  0  0  0  0  0  0  0  0  0  0  0
    6.9841    2.9174    0.0000 H   0  0  0  0  0  0  0  0  0  0  0  0
    9.3267    0.9749    0.0000 H   0  0  0  0  0  0  0  0  0  0  0  0
    8.5297    0.9749    0.0000 H   0  0  0  0  0  0  0  0  0  0  0  0
    5.4641   -0.8800    0.0000 H   0  0  0  0  0  0  0  0  0  0  0  0
    6.8671   -1.3100    0.0000 H   0  0  0  0  0  0  0  0  0  0  0  0
    7.8067    4.3923    0.0000 H   0  0  0  0  0  0  0  0  0  0  0  0
    7.4082    5.0826    0.0000 H   0  0  0  0  0  0  0  0  0  0  0  0
    9.4651    3.1900    0.0000 H   0  0  0  0  0  0  0  0  0  0  0  0
    3.9875   -0.8923    0.0000 H   0  0  0  0  0  0  0  0  0  0  0  0
    4.3860   -1.5826    0.0000 H   0  0  0  0  0  0  0  0  0  0  0  0
    4.0611   -2.6900    0.0000 H   0  0  0  0  0  0  0  0  0  0  0  0
    4.8101   -4.5826    0.0000 H   0  0  0  0  0  0  0  0  0  0  0  0
    5.2087   -3.8923    0.0000 H   0  0  0  0  0  0  0  0  0  0  0  0
   11.1972    6.8100    0.0000 H   0  0  0  0  0  0  0  0  0  0  0  0
    3.5200   -3.9174    0.0000 H   0  0  0  0  0  0  0  0  0  0  0  0
    3.1215   -4.6077    0.0000 H   0  0  0  0  0  0  0  0  0  0  0  0
    9.5822    6.5826    0.0000 H   0  0  0  0  0  0  0  0  0  0  0  0
    9.1836    5.8923    0.0000 H   0  0  0  0  0  0  0  0  0  0  0  0
   11.2803    7.5000    0.0000 H   0  0  0  0  0  0  0  0  0  0  0  0
   10.6603    8.1200    0.0000 H   0  0  0  0  0  0  0  0  0  0  0  0
   10.0403    7.5000    0.0000 H   0  0  0  0  0  0  0  0  0  0  0  0
   11.2163    5.4631    0.0000 H   0  0  0  0  0  0  0  0  0  0  0  0
   12.0632    5.6900    0.0000 H   0  0  0  0  0  0  0  0  0  0  0  0
   11.8363    6.5369    0.0000 H   0  0  0  0  0  0  0  0  0  0  0  0
    4.0611    0.3100    0.0000 H   0  0  0  0  0  0  0  0  0  0  0  0
   11.1278   -0.4749    0.0000 H   0  0  0  0  0  0  0  0  0  0  0  0
   11.9248   -0.4749    0.0000 H   0  0  0  0  0  0  0  0  0  0  0  0
    5.1350   -5.6900    0.0000 H   0  0  0  0  0  0  0  0  0  0  0  0
    5.7932    6.3100    0.0000 H   0  0  0  0  0  0  0  0  0  0  0  0
    2.3291   -7.3100    0.0000 H   0  0  0  0  0  0  0  0  0  0  0  0
    5.1350   -7.3100    0.0000 H   0  0  0  0  0  0  0  0  0  0  0  0
    3.7320   -8.1200    0.0000 H   0  0  0  0  0  0  0  0  0  0  0  0
   11.8554    1.8100    0.0000 H   0  0  0  0  0  0  0  0  0  0  0  0
   13.2583   -0.6200    0.0000 H   0  0  0  0  0  0  0  0  0  0  0  0
   13.2583    2.6200    0.0000 H   0  0  0  0  0  0  0  0  0  0  0  0
   14.6613    0.1900    0.0000 H   0  0  0  0  0  0  0  0  0  0  0  0
   14.6613    1.8100    0.0000 H   0  0  0  0  0  0  0  0  0  0  0  0
  1 38  1  0  0  0  0
  2 25  1  0  0  0  0
  2 79  1  0  0  0  0
  3 20  2  0  0  0  0
  4 21  2  0  0  0  0
  5 28  1  0  0  0  0
  5 33  1  0  0  0  0
  6 27  1  0  0  0  0
  6 37  1  0  0  0  0
  7 26  2  0  0  0  0
  8 27  2  0  0  0  0
  9 31  1  0  0  0  0
  9 83  1  0  0  0  0
 10 28  2  0  0  0  0
 11 31  2  0  0  0  0
 16 12  1  1  0  0  0
 12 21  1  0  0  0  0
 12 53  1  0  0  0  0
 13 20  1  0  0  0  0
 23 13  1  6  0  0  0
 13 59  1  0  0  0  0
 18 14  1  6  0  0  0
 14 28  1  0  0  0  0
 14 62  1  0  0  0  0
 15 26  1  0  0  0  0
 15 29  1  0  0  0  0
 15 65  1  0  0  0  0
 16 17  1  0  0  0  0
 16 20  1  0  0  0  0
 16 49  1  0  0  0  0
 17 22  1  0  0  0  0
 17 50  1  0  0  0  0
 17 51  1  0  0  0  0
 18 19  1  0  0  0  0
 18 21  1  0  0  0  0
 18 52  1  0  0  0  0
 19 24  1  0  0  0  0
 19 54  1  0  0  0  0
 19 55  1  0  0  0  0
 22 27  1  0  0  0  0
 22 56  1  0  0  0  0
 22 57  1  0  0  0  0
 23 25  1  0  0  0  0
 23 26  1  0  0  0  0
 23 58  1  0  0  0  0
 24 31  1  0  0  0  0
 24 60  1  0  0  0  0
 24 61  1  0  0  0  0
 25 63  1  0  0  0  0
 25 64  1  0  0  0  0
 29 32  1  0  0  0  0
 29 66  1  0  0  0  0
 29 67  1  0  0  0  0
 30 33  1  0  0  0  0
 30 35  1  0  0  0  0
 30 36  1  0  0  0  0
 30 68  1  0  0  0  0
 32 34  1  0  0  0  0
 32 69  1  0  0  0  0
 32 70  1  0  0  0  0
 33 71  1  0  0  0  0
 33 72  1  0  0  0  0
 34 38  1  0  0  0  0
 34 39  2  0  0  0  0
 35 73  1  0  0  0  0
 35 74  1  0  0  0  0
 35 75  1  0  0  0  0
 36 76  1  0  0  0  0
 36 77  1  0  0  0  0
 36 78  1  0  0  0  0
 37 40  1  0  0  0  0
 37 80  1  0  0  0  0
 37 81  1  0  0  0  0
 38 41  2  0  0  0  0
 39 42  1  0  0  0  0
 39 82  1  0  0  0  0
 40 44  2  0  0  0  0
 40 45  1  0  0  0  0
 41 43  1  0  0  0  0
 41 84  1  0  0  0  0
 42 43  2  0  0  0  0
 42 85  1  0  0  0  0
 43 86  1  0  0  0  0
 44 46  1  0  0  0  0
 44 87  1  0  0  0  0
 45 47  2  0  0  0  0
 45 88  1  0  0  0  0
 46 48  2  0  0  0  0
 46 89  1  0  0  0  0
 47 48  1  0  0  0  0
 47 90  1  0  0  0  0
 48 91  1  0  0  0  0
M  END
> <PUBCHEM_COMPOUND_CID>
507581
> <PUBCHEM_COMPOUND_CANONICALIZED>
1
> <PUBCHEM_CACTVS_COMPLEXITY>
1060
> <PUBCHEM_CACTVS_HBOND_ACCEPTOR>
10
> <PUBCHEM_CACTVS_HBOND_DONOR>
6
> <PUBCHEM_CACTVS_ROTATABLE_BOND>
22
> <PUBCHEM_CACTVS_SUBSKEYS>
AAADcfB/vABEAAAAAAAAAAAAAAAAAAAAAAAwYAAAAAAAAAABQAAAHgYQCAAADSrl2CayCILABgSIAiHSGAACAAAgBQAIiIGICokIZjKBszmecAAk1gGIqAe816IOAAAAAAABAAAAAAAAAAIAAAAAAAAAAA==
> <PUBCHEM_IUPAC_OPENEYE_NAME>
(4S)-5-[[(1S)-4-benzyloxy-1-[[(1R)-2-[2-(2-chlorophenyl)ethylamino]-2-oxo-1-(sulfanylmethyl)ethyl]carbamoyl]-4-oxo-butyl]amino]-4-(isobutoxycarbonylamino)-5-oxo-pentanoic acid
> <PUBCHEM_IUPAC_CAS_NAME>
(4S)-5-[[(2S)-1-[[(2R)-1-[2-(2-chlorophenyl)ethylamino]-3-mercapto-1-oxopropan-2-yl]amino]-1,5-dioxo-5-phenylmethoxypentan-2-yl]amino]-4-[[2-methylpropoxy(oxo)methyl]amino]-5-oxopentanoic acid
> <PUBCHEM_IUPAC_NAME_MARKUP>
(4<I>S</I>)-5-[[(2<I>S</I>)-1-[[(2<I>R</I>)-1-[2-(2-chlorophenyl)ethylamino]-1-oxo-3-sulfanylpropan-2-yl]amino]-1,5-dioxo-5-phenylmethoxypentan-2-yl]amino]-4-(2-methylpropoxycarbonylamino)-5-oxopentanoic acid
> <PUBCHEM_IUPAC_NAME>
(4S)-5-[[(2S)-1-[[(2R)-1-[2-(2-chlorophenyl)ethylamino]-1-oxo-3-sulfanylpropan-2-yl]amino]-1,5-dioxo-5-phenylmethoxypentan-2-yl]amino]-4-(2-methylpropoxycarbonylamino)-5-oxopentanoic acid
> <PUBCHEM_IUPAC_SYSTEMATIC_NAME>
(4S)-5-[[(2S)-1-[[(2R)-1-[2-(2-chlorophenyl)ethylamino]-1-oxidanylidene-3-sulfanyl-propan-2-yl]amino]-1,5-bis(oxidanylidene)-5-phenylmethoxy-pentan-2-yl]amino]-4-(2-methylpropoxycarbonylamino)-5-oxidanylidene-pentanoic acid
> <PUBCHEM_IUPAC_TRADITIONAL_NAME>
(4S)-5-[[(1S)-4-benzoxy-1-[[(1R)-2-[2-(2-chlorophenyl)ethylamino]-2-keto-1-(mercaptomethyl)ethyl]carbamoyl]-4-keto-butyl]amino]-4-(isobutoxycarbonylamino)-5-keto-valeric acid
> <PUBCHEM_IUPAC_INCHI>
InChI=1S/C33H43ClN4O9S/c1-21(2)18-47-33(45)38-26(12-14-28(39)40)32(44)36-25(13-15-29(41)46-19-22-8-4-3-5-9-22)31(43)37-27(20-48)30(42)35-17-16-23-10-6-7-11-24(23)34/h3-11,21,25-27,48H,12-20H2,1-2H3,(H,35,42)(H,36,44)(H,37,43)(H,38,45)(H,39,40)/t25-,26-,27-/m0/s1
> <PUBCHEM_IUPAC_INCHIKEY>
DXLXZJKRAITZOG-QKDODKLFSA-N
> <PUBCHEM_XLOGP3_AA>
3.8
> <PUBCHEM_EXACT_MASS>
706.2439278
> <PUBCHEM_MOLECULAR_FORMULA>
C33H43ClN4O9S
> <PUBCHEM_MOLECULAR_WEIGHT>
707.2
> <PUBCHEM_OPENEYE_CAN_SMILES>
CC(C)COC(=O)NC(CCC(=O)O)C(=O)NC(CCC(=O)OCC1=CC=CC=C1)C(=O)NC(CS)C(=O)NCCC2=CC=CC=C2Cl
> <PUBCHEM_OPENEYE_ISO_SMILES>
CC(C)COC(=O)N[C@@H](CCC(=O)O)C(=O)N[C@@H](CCC(=O)OCC1=CC=CC=C1)C(=O)N[C@@H](CS)C(=O)NCCC2=CC=CC=C2Cl
> <PUBCHEM_CACTVS_TPSA>
190
> <PUBCHEM_MONOISOTOPIC_WEIGHT>
706.2439278
> <PUBCHEM_TOTAL_CHARGE>
0
> <PUBCHEM_HEAVY_ATOM_COUNT>
48
> <PUBCHEM_ATOM_DEF_STEREO_COUNT>
3
> <PUBCHEM_ATOM_UDEF_STEREO_COUNT>
0
> <PUBCHEM_BOND_DEF_STEREO_COUNT>
0
> <PUBCHEM_BOND_UDEF_STEREO_COUNT>
0
> <PUBCHEM_ISOTOPIC_ATOM_COUNT>
0
> <PUBCHEM_COMPONENT_COUNT>
1
> <PUBCHEM_CACTVS_TAUTO_COUNT>
-1
> <PUBCHEM_COORDINATE_TYPE>
1
5
255
> <PUBCHEM_BONDANNOTATIONS>
16  12  5
23  13  6
18  14  6
34  38  8
34  39  8
38  41  8
39  42  8
40  44  8
40  45  8
41  43  8
42  43  8
44  46  8
45  47  8
46  48  8
47  48  8
$$$$
