507542
  -OEChem-10302200282D
 79 80  0     1  0  0  0  0  0999 V2000
   12.5263    3.6900    0.0000 Cl  0  0  0  0  0  0  0  0  0  0  0  0
    3.0000   -1.8100    0.0000 S   0  0  0  0  0  0  0  0  0  0  0  0
    8.1962    4.1900    0.0000 S   0  0  0  0  0  0  0  0  0  0  0  0
    5.5981    3.6900    0.0000 O   0  0  0  0  0  0  0  0  0  0  0  0
    3.0000    1.1900    0.0000 O   0  0  0  0  0  0  0  0  0  0  0  0
    4.0000   -1.8100    0.0000 O   0  0  0  0  0  0  0  0  0  0  0  0
    2.0000   -1.8100    0.0000 O   0  0  0  0  0  0  0  0  0  0  0  0
    8.1962    1.1900    0.0000 O   0  0  0  0  0  0  0  0  0  0  0  0
    7.3301   -0.3100    0.0000 O   0  0  0  0  0  0  0  0  0  0  0  0
    6.4641   -1.8100    0.0000 O   0  0  0  0  0  0  0  0  0  0  0  0
    4.7320    1.1900    0.0000 N   0  0  0  0  0  0  0  0  0  0  0  0
    3.0000   -0.8100    0.0000 N   0  0  0  0  0  0  0  0  0  0  0  0
    6.4641    2.1900    0.0000 N   0  0  0  0  0  0  0  0  0  0  0  0
    9.0622    2.6900    0.0000 N   0  0  0  0  0  0  0  0  0  0  0  0
    4.7320    2.1900    0.0000 C   0  0  1  0  0  0  0  0  0  0  0  0
    3.8660    2.6900    0.0000 C   0  0  0  0  0  0  0  0  0  0  0  0
    3.8660    3.6900    0.0000 C   0  0  0  0  0  0  0  0  0  0  0  0
    3.8660   -0.3100    0.0000 C   0  0  2  0  0  0  0  0  0  0  0  0
    5.5981    2.6900    0.0000 C   0  0  0  0  0  0  0  0  0  0  0  0
    3.8660    0.6900    0.0000 C   0  0  0  0  0  0  0  0  0  0  0  0
    4.7320   -0.8100    0.0000 C   0  0  0  0  0  0  0  0  0  0  0  0
    3.0000    4.1900    0.0000 C   0  0  0  0  0  0  0  0  0  0  0  0
    4.7320    4.1900    0.0000 C   0  0  0  0  0  0  0  0  0  0  0  0
    7.3301    2.6900    0.0000 C   0  0  1  0  0  0  0  0  0  0  0  0
    5.5981   -0.3100    0.0000 C   0  0  0  0  0  0  0  0  0  0  0  0
    7.3301    3.6900    0.0000 C   0  0  0  0  0  0  0  0  0  0  0  0
    8.1962    2.1900    0.0000 C   0  0  0  0  0  0  0  0  0  0  0  0
    3.0000   -2.8100    0.0000 C   0  0  0  0  0  0  0  0  0  0  0  0
    6.4641   -0.8100    0.0000 C   0  0  0  0  0  0  0  0  0  0  0  0
    9.9282    2.1900    0.0000 C   0  0  0  0  0  0  0  0  0  0  0  0
   10.7942    2.6900    0.0000 C   0  0  0  0  0  0  0  0  0  0  0  0
    3.8660   -3.3100    0.0000 C   0  0  0  0  0  0  0  0  0  0  0  0
    2.1340   -3.3100    0.0000 C   0  0  0  0  0  0  0  0  0  0  0  0
   11.6603    2.1900    0.0000 C   0  0  0  0  0  0  0  0  0  0  0  0
    3.8660   -4.3100    0.0000 C   0  0  0  0  0  0  0  0  0  0  0  0
    2.1340   -4.3100    0.0000 C   0  0  0  0  0  0  0  0  0  0  0  0
    3.0000   -4.8100    0.0000 C   0  0  0  0  0  0  0  0  0  0  0  0
   12.5263    2.6900    0.0000 C   0  0  0  0  0  0  0  0  0  0  0  0
   11.6603    1.1900    0.0000 C   0  0  0  0  0  0  0  0  0  0  0  0
   13.3923    2.1900    0.0000 C   0  0  0  0  0  0  0  0  0  0  0  0
   12.5263    0.6900    0.0000 C   0  0  0  0  0  0  0  0  0  0  0  0
   13.3923    1.1900    0.0000 C   0  0  0  0  0  0  0  0  0  0  0  0
    5.2690    1.8800    0.0000 H   0  0  0  0  0  0  0  0  0  0  0  0
    3.2554    2.7977    0.0000 H   0  0  0  0  0  0  0  0  0  0  0  0
    3.6540    2.1074    0.0000 H   0  0  0  0  0  0  0  0  0  0  0  0
    3.8660    4.3100    0.0000 H   0  0  0  0  0  0  0  0  0  0  0  0
    3.8660   -0.9300    0.0000 H   0  0  0  0  0  0  0  0  0  0  0  0
    5.2690    0.8800    0.0000 H   0  0  0  0  0  0  0  0  0  0  0  0
    4.3335   -1.2850    0.0000 H   0  0  0  0  0  0  0  0  0  0  0  0
    5.1306   -1.2850    0.0000 H   0  0  0  0  0  0  0  0  0  0  0  0
    3.3100    4.7269    0.0000 H   0  0  0  0  0  0  0  0  0  0  0  0
    2.4631    4.5000    0.0000 H   0  0  0  0  0  0  0  0  0  0  0  0
    2.6900    3.6531    0.0000 H   0  0  0  0  0  0  0  0  0  0  0  0
    5.0420    3.6531    0.0000 H   0  0  0  0  0  0  0  0  0  0  0  0
    5.2690    4.5000    0.0000 H   0  0  0  0  0  0  0  0  0  0  0  0
    4.4220    4.7269    0.0000 H   0  0  0  0  0  0  0  0  0  0  0  0
    2.4631   -0.5000    0.0000 H   0  0  0  0  0  0  0  0  0  0  0  0
    6.4641    1.5700    0.0000 H   0  0  0  0  0  0  0  0  0  0  0  0
    7.3301    2.0700    0.0000 H   0  0  0  0  0  0  0  0  0  0  0  0
    5.9966    0.1649    0.0000 H   0  0  0  0  0  0  0  0  0  0  0  0
    5.1996    0.1649    0.0000 H   0  0  0  0  0  0  0  0  0  0  0  0
    7.1181    4.2726    0.0000 H   0  0  0  0  0  0  0  0  0  0  0  0
    6.7196    3.5823    0.0000 H   0  0  0  0  0  0  0  0  0  0  0  0
    9.0622    3.3100    0.0000 H   0  0  0  0  0  0  0  0  0  0  0  0
    9.5297    1.7150    0.0000 H   0  0  0  0  0  0  0  0  0  0  0  0
   10.3267    1.7150    0.0000 H   0  0  0  0  0  0  0  0  0  0  0  0
   11.1928    3.1650    0.0000 H   0  0  0  0  0  0  0  0  0  0  0  0
   10.3957    3.1650    0.0000 H   0  0  0  0  0  0  0  0  0  0  0  0
    4.4030   -3.0000    0.0000 H   0  0  0  0  0  0  0  0  0  0  0  0
    1.5970   -3.0000    0.0000 H   0  0  0  0  0  0  0  0  0  0  0  0
    8.1962    4.8100    0.0000 H   0  0  0  0  0  0  0  0  0  0  0  0
    4.4030   -4.6200    0.0000 H   0  0  0  0  0  0  0  0  0  0  0  0
    1.5970   -4.6200    0.0000 H   0  0  0  0  0  0  0  0  0  0  0  0
    3.0000   -5.4300    0.0000 H   0  0  0  0  0  0  0  0  0  0  0  0
    7.8671   -0.6200    0.0000 H   0  0  0  0  0  0  0  0  0  0  0  0
   11.1233    0.8800    0.0000 H   0  0  0  0  0  0  0  0  0  0  0  0
   13.9292    2.5000    0.0000 H   0  0  0  0  0  0  0  0  0  0  0  0
   12.5263    0.0700    0.0000 H   0  0  0  0  0  0  0  0  0  0  0  0
   13.9292    0.8800    0.0000 H   0  0  0  0  0  0  0  0  0  0  0  0
  1 38  1  0  0  0  0
  2  6  2  0  0  0  0
  2  7  2  0  0  0  0
  2 12  1  0  0  0  0
  2 28  1  0  0  0  0
  3 26  1  0  0  0  0
  3 71  1  0  0  0  0
  4 19  2  0  0  0  0
  5 20  2  0  0  0  0
  8 27  2  0  0  0  0
  9 29  1  0  0  0  0
  9 75  1  0  0  0  0
 10 29  2  0  0  0  0
 15 11  1  1  0  0  0
 11 20  1  0  0  0  0
 11 48  1  0  0  0  0
 18 12  1  6  0  0  0
 12 57  1  0  0  0  0
 13 19  1  0  0  0  0
 24 13  1  1  0  0  0
 13 58  1  0  0  0  0
 14 27  1  0  0  0  0
 14 30  1  0  0  0  0
 14 64  1  0  0  0  0
 15 16  1  0  0  0  0
 15 19  1  0  0  0  0
 15 43  1  0  0  0  0
 16 17  1  0  0  0  0
 16 44  1  0  0  0  0
 16 45  1  0  0  0  0
 17 22  1  0  0  0  0
 17 23  1  0  0  0  0
 17 46  1  0  0  0  0
 18 20  1  0  0  0  0
 18 21  1  0  0  0  0
 18 47  1  0  0  0  0
 21 25  1  0  0  0  0
 21 49  1  0  0  0  0
 21 50  1  0  0  0  0
 22 51  1  0  0  0  0
 22 52  1  0  0  0  0
 22 53  1  0  0  0  0
 23 54  1  0  0  0  0
 23 55  1  0  0  0  0
 23 56  1  0  0  0  0
 24 26  1  0  0  0  0
 24 27  1  0  0  0  0
 24 59  1  0  0  0  0
 25 29  1  0  0  0  0
 25 60  1  0  0  0  0
 25 61  1  0  0  0  0
 26 62  1  0  0  0  0
 26 63  1  0  0  0  0
 28 32  2  0  0  0  0
 28 33  1  0  0  0  0
 30 31  1  0  0  0  0
 30 65  1  0  0  0  0
 30 66  1  0  0  0  0
 31 34  1  0  0  0  0
 31 67  1  0  0  0  0
 31 68  1  0  0  0  0
 32 35  1  0  0  0  0
 32 69  1  0  0  0  0
 33 36  2  0  0  0  0
 33 70  1  0  0  0  0
 34 38  1  0  0  0  0
 34 39  2  0  0  0  0
 35 37  2  0  0  0  0
 35 72  1  0  0  0  0
 36 37  1  0  0  0  0
 36 73  1  0  0  0  0
 37 74  1  0  0  0  0
 38 40  2  0  0  0  0
 39 41  1  0  0  0  0
 39 76  1  0  0  0  0
 40 42  1  0  0  0  0
 40 77  1  0  0  0  0
 41 42  2  0  0  0  0
 41 78  1  0  0  0  0
 42 79  1  0  0  0  0
M  END
> <PUBCHEM_COMPOUND_CID>
507542
> <PUBCHEM_COMPOUND_CANONICALIZED>
1
> <PUBCHEM_CACTVS_COMPLEXITY>
1000
> <PUBCHEM_CACTVS_HBOND_ACCEPTOR>
9
> <PUBCHEM_CACTVS_HBOND_DONOR>
6
> <PUBCHEM_CACTVS_ROTATABLE_BOND>
17
> <PUBCHEM_CACTVS_SUBSKEYS>
AAADcfB7uABkAAAAAAAAAAAAAAAAAAAAAAAwYAAAAAAAAAABQAAAHgYQSAAADSrF2CSyCYLAAgaIAiHSGHBCABAgBQAIiJmIAogIYDKBkzGUYAAklgCIiAe8l4IOAAAAAAABAAAAAAAAAAIAAAAAAAAAAA==
> <PUBCHEM_IUPAC_OPENEYE_NAME>
(4S)-4-(benzenesulfonamido)-5-[[(1S)-1-[[(1R)-2-[2-(2-chlorophenyl)ethylamino]-2-oxo-1-(sulfanylmethyl)ethyl]carbamoyl]-3-methyl-butyl]amino]-5-oxo-pentanoic acid
> <PUBCHEM_IUPAC_CAS_NAME>
(4S)-4-(benzenesulfonamido)-5-[[(2S)-1-[[(2R)-1-[2-(2-chlorophenyl)ethylamino]-3-mercapto-1-oxopropan-2-yl]amino]-4-methyl-1-oxopentan-2-yl]amino]-5-oxopentanoic acid
> <PUBCHEM_IUPAC_NAME_MARKUP>
(4<I>S</I>)-4-(benzenesulfonamido)-5-[[(2<I>S</I>)-1-[[(2<I>R</I>)-1-[2-(2-chlorophenyl)ethylamino]-1-oxo-3-sulfanylpropan-2-yl]amino]-4-methyl-1-oxopentan-2-yl]amino]-5-oxopentanoic acid
> <PUBCHEM_IUPAC_NAME>
(4S)-4-(benzenesulfonamido)-5-[[(2S)-1-[[(2R)-1-[2-(2-chlorophenyl)ethylamino]-1-oxo-3-sulfanylpropan-2-yl]amino]-4-methyl-1-oxopentan-2-yl]amino]-5-oxopentanoic acid
> <PUBCHEM_IUPAC_SYSTEMATIC_NAME>
(4S)-5-[[(2S)-1-[[(2R)-1-[2-(2-chlorophenyl)ethylamino]-1-oxidanylidene-3-sulfanyl-propan-2-yl]amino]-4-methyl-1-oxidanylidene-pentan-2-yl]amino]-5-oxidanylidene-4-(phenylsulfonylamino)pentanoic acid
> <PUBCHEM_IUPAC_TRADITIONAL_NAME>
(4S)-4-(benzenesulfonamido)-5-[[(1S)-1-[[(1R)-2-[2-(2-chlorophenyl)ethylamino]-2-keto-1-(mercaptomethyl)ethyl]carbamoyl]-3-methyl-butyl]amino]-5-keto-valeric acid
> <PUBCHEM_IUPAC_INCHI>
InChI=1S/C28H37ClN4O7S2/c1-18(2)16-23(28(38)32-24(17-41)26(36)30-15-14-19-8-6-7-11-21(19)29)31-27(37)22(12-13-25(34)35)33-42(39,40)20-9-4-3-5-10-20/h3-11,18,22-24,33,41H,12-17H2,1-2H3,(H,30,36)(H,31,37)(H,32,38)(H,34,35)/t22-,23-,24-/m0/s1
> <PUBCHEM_IUPAC_INCHIKEY>
KMUKTCZYBUVMME-HJOGWXRNSA-N
> <PUBCHEM_XLOGP3_AA>
3.4
> <PUBCHEM_EXACT_MASS>
640.1792196
> <PUBCHEM_MOLECULAR_FORMULA>
C28H37ClN4O7S2
> <PUBCHEM_MOLECULAR_WEIGHT>
641.2
> <PUBCHEM_OPENEYE_CAN_SMILES>
CC(C)CC(C(=O)NC(CS)C(=O)NCCC1=CC=CC=C1Cl)NC(=O)C(CCC(=O)O)NS(=O)(=O)C2=CC=CC=C2
> <PUBCHEM_OPENEYE_ISO_SMILES>
CC(C)C[C@@H](C(=O)N[C@@H](CS)C(=O)NCCC1=CC=CC=C1Cl)NC(=O)[C@H](CCC(=O)O)NS(=O)(=O)C2=CC=CC=C2
> <PUBCHEM_CACTVS_TPSA>
180
> <PUBCHEM_MONOISOTOPIC_WEIGHT>
640.1792196
> <PUBCHEM_TOTAL_CHARGE>
0
> <PUBCHEM_HEAVY_ATOM_COUNT>
42
> <PUBCHEM_ATOM_DEF_STEREO_COUNT>
3
> <PUBCHEM_ATOM_UDEF_STEREO_COUNT>
0
> <PUBCHEM_BOND_DEF_STEREO_COUNT>
0
> <PUBCHEM_BOND_UDEF_STEREO_COUNT>
0
> <PUBCHEM_ISOTOPIC_ATOM_COUNT>
0
> <PUBCHEM_COMPONENT_COUNT>
1
> <PUBCHEM_CACTVS_TAUTO_COUNT>
-1
> <PUBCHEM_COORDINATE_TYPE>
1
5
255
> <PUBCHEM_BONDANNOTATIONS>
15  11  5
18  12  6
24  13  5
28  32  8
28  33  8
32  35  8
33  36  8
34  38  8
34  39  8
35  37  8
36  37  8
38  40  8
39  41  8
40  42  8
41  42  8
$$$$
