507583
  -OEChem-10302200282D
 83 85  0     1  0  0  0  0  0999 V2000
    9.8024    5.8097    0.0000 Cl  0  0  0  0  0  0  0  0  0  0  0  0
    8.4980    1.6505    0.0000 S   0  0  0  0  0  0  0  0  0  0  0  0
    6.9844   -0.5196    0.0000 O   0  0  0  0  0  0  0  0  0  0  0  0
    5.0528   -2.6897    0.0000 O   0  0  0  0  0  0  0  0  0  0  0  0
    5.7573    2.8707    0.0000 O   0  0  0  0  0  0  0  0  0  0  0  0
    7.3754   -5.4476    0.0000 O   0  0  0  0  0  0  0  0  0  0  0  0
    8.3934   -4.0463    0.0000 O   0  0  0  0  0  0  0  0  0  0  0  0
   10.2205   -3.2328    0.0000 O   0  0  0  0  0  0  0  0  0  0  0  0
    9.5160   -1.6505    0.0000 O   0  0  0  0  0  0  0  0  0  0  0  0
    6.0709   -1.2884    0.0000 N   0  0  0  0  0  0  0  0  0  0  0  0
    5.9664    0.8817    0.0000 N   0  0  0  0  0  0  0  0  0  0  0  0
    6.6709   -3.8652    0.0000 N   0  0  0  0  0  0  0  0  0  0  0  0
    7.4799    3.0518    0.0000 N   0  0  0  0  0  0  0  0  0  0  0  0
    5.2619   -0.7006    0.0000 C   0  0  0  0  0  0  0  0  0  0  0  0
    4.6783    0.1041    0.0000 C   0  0  0  0  0  0  0  0  0  0  0  0
    4.6783   -1.5054    0.0000 C   0  0  0  0  0  0  0  0  0  0  0  0
    3.7320   -0.2006    0.0000 C   0  0  0  0  0  0  0  0  0  0  0  0
    3.7320   -1.2006    0.0000 C   0  0  0  0  0  0  0  0  0  0  0  0
    6.0709   -0.1128    0.0000 C   0  0  0  0  0  0  0  0  0  0  0  0
    2.8660    0.2994    0.0000 C   0  0  0  0  0  0  0  0  0  0  0  0
    2.8660   -1.7006    0.0000 C   0  0  0  0  0  0  0  0  0  0  0  0
    5.9664   -2.2829    0.0000 C   0  0  0  0  0  0  0  0  0  0  0  0
    6.7754   -2.8707    0.0000 C   0  0  2  0  0  0  0  0  0  0  0  0
    2.0000   -0.2006    0.0000 C   0  0  0  0  0  0  0  0  0  0  0  0
    2.0000   -1.2006    0.0000 C   0  0  0  0  0  0  0  0  0  0  0  0
    6.7754    1.4695    0.0000 C   0  0  1  0  0  0  0  0  0  0  0  0
    7.6889   -2.4640    0.0000 C   0  0  0  0  0  0  0  0  0  0  0  0
    7.6889    1.0627    0.0000 C   0  0  0  0  0  0  0  0  0  0  0  0
    6.6709    2.4640    0.0000 C   0  0  0  0  0  0  0  0  0  0  0  0
    8.4980   -3.0518    0.0000 C   0  0  0  0  0  0  0  0  0  0  0  0
    7.4799   -4.4530    0.0000 C   0  0  0  0  0  0  0  0  0  0  0  0
    9.4115   -2.6450    0.0000 C   0  0  0  0  0  0  0  0  0  0  0  0
    7.3754    4.0463    0.0000 C   0  0  0  0  0  0  0  0  0  0  0  0
    8.1844    4.6341    0.0000 C   0  0  0  0  0  0  0  0  0  0  0  0
    8.1844   -6.0353    0.0000 C   0  0  0  0  0  0  0  0  0  0  0  0
    8.0798   -7.0299    0.0000 C   0  0  0  0  0  0  0  0  0  0  0  0
    8.0798    5.6286    0.0000 C   0  0  0  0  0  0  0  0  0  0  0  0
    8.8888   -7.6176    0.0000 C   0  0  0  0  0  0  0  0  0  0  0  0
    7.1663   -7.4366    0.0000 C   0  0  0  0  0  0  0  0  0  0  0  0
    8.8888    6.2164    0.0000 C   0  0  0  0  0  0  0  0  0  0  0  0
    7.1663    6.0353    0.0000 C   0  0  0  0  0  0  0  0  0  0  0  0
    8.7843    7.2109    0.0000 C   0  0  0  0  0  0  0  0  0  0  0  0
    7.0618    7.0299    0.0000 C   0  0  0  0  0  0  0  0  0  0  0  0
    7.8708    7.6176    0.0000 C   0  0  0  0  0  0  0  0  0  0  0  0
    5.2156    0.4133    0.0000 H   0  0  0  0  0  0  0  0  0  0  0  0
    4.4272    0.6710    0.0000 H   0  0  0  0  0  0  0  0  0  0  0  0
    4.4272   -2.0723    0.0000 H   0  0  0  0  0  0  0  0  0  0  0  0
    5.2156   -1.8146    0.0000 H   0  0  0  0  0  0  0  0  0  0  0  0
    6.6373   -1.0362    0.0000 H   0  0  0  0  0  0  0  0  0  0  0  0
    2.8660    0.9194    0.0000 H   0  0  0  0  0  0  0  0  0  0  0  0
    2.8660   -2.3206    0.0000 H   0  0  0  0  0  0  0  0  0  0  0  0
    5.4000    1.1338    0.0000 H   0  0  0  0  0  0  0  0  0  0  0  0
    7.2770   -3.2352    0.0000 H   0  0  0  0  0  0  0  0  0  0  0  0
    1.4631    0.1094    0.0000 H   0  0  0  0  0  0  0  0  0  0  0  0
    1.4631   -1.5106    0.0000 H   0  0  0  0  0  0  0  0  0  0  0  0
    6.8402    0.8529    0.0000 H   0  0  0  0  0  0  0  0  0  0  0  0
    8.1349   -2.0333    0.0000 H   0  0  0  0  0  0  0  0  0  0  0  0
    7.3422   -1.9500    0.0000 H   0  0  0  0  0  0  0  0  0  0  0  0
    7.3422    0.5487    0.0000 H   0  0  0  0  0  0  0  0  0  0  0  0
    8.1349    0.6320    0.0000 H   0  0  0  0  0  0  0  0  0  0  0  0
    6.1045   -4.1174    0.0000 H   0  0  0  0  0  0  0  0  0  0  0  0
    8.0520   -3.4825    0.0000 H   0  0  0  0  0  0  0  0  0  0  0  0
    8.8446   -3.5658    0.0000 H   0  0  0  0  0  0  0  0  0  0  0  0
    8.0463    2.7996    0.0000 H   0  0  0  0  0  0  0  0  0  0  0  0
    7.1036    4.6035    0.0000 H   0  0  0  0  0  0  0  0  0  0  0  0
    6.7794    3.8754    0.0000 H   0  0  0  0  0  0  0  0  0  0  0  0
    9.0643    1.3983    0.0000 H   0  0  0  0  0  0  0  0  0  0  0  0
    8.4561    4.0768    0.0000 H   0  0  0  0  0  0  0  0  0  0  0  0
    8.7803    4.8050    0.0000 H   0  0  0  0  0  0  0  0  0  0  0  0
    8.7803   -6.2062    0.0000 H   0  0  0  0  0  0  0  0  0  0  0  0
    8.4561   -5.4781    0.0000 H   0  0  0  0  0  0  0  0  0  0  0  0
    7.5782   -6.6654    0.0000 H   0  0  0  0  0  0  0  0  0  0  0  0
   10.7869   -2.9806    0.0000 H   0  0  0  0  0  0  0  0  0  0  0  0
    8.5244   -8.1192    0.0000 H   0  0  0  0  0  0  0  0  0  0  0  0
    9.3904   -7.9821    0.0000 H   0  0  0  0  0  0  0  0  0  0  0  0
    9.2533   -7.1160    0.0000 H   0  0  0  0  0  0  0  0  0  0  0  0
    6.9141   -6.8702    0.0000 H   0  0  0  0  0  0  0  0  0  0  0  0
    6.5999   -7.6888    0.0000 H   0  0  0  0  0  0  0  0  0  0  0  0
    7.4185   -8.0030    0.0000 H   0  0  0  0  0  0  0  0  0  0  0  0
    6.6647    5.6709    0.0000 H   0  0  0  0  0  0  0  0  0  0  0  0
    9.2859    7.5753    0.0000 H   0  0  0  0  0  0  0  0  0  0  0  0
    6.4954    7.2820    0.0000 H   0  0  0  0  0  0  0  0  0  0  0  0
    7.8060    8.2342    0.0000 H   0  0  0  0  0  0  0  0  0  0  0  0
  1 40  1  0  0  0  0
  2 28  1  0  0  0  0
  2 67  1  0  0  0  0
  3 19  2  0  0  0  0
  4 22  2  0  0  0  0
  5 29  2  0  0  0  0
  6 31  1  0  0  0  0
  6 35  1  0  0  0  0
  7 31  2  0  0  0  0
  8 32  1  0  0  0  0
  8 73  1  0  0  0  0
  9 32  2  0  0  0  0
 10 14  1  0  0  0  0
 10 22  1  0  0  0  0
 10 49  1  0  0  0  0
 11 19  1  0  0  0  0
 26 11  1  6  0  0  0
 11 52  1  0  0  0  0
 23 12  1  6  0  0  0
 12 31  1  0  0  0  0
 12 61  1  0  0  0  0
 13 29  1  0  0  0  0
 13 33  1  0  0  0  0
 13 64  1  0  0  0  0
 14 15  1  0  0  0  0
 14 16  1  0  0  0  0
 14 19  1  0  0  0  0
 15 17  1  0  0  0  0
 15 45  1  0  0  0  0
 15 46  1  0  0  0  0
 16 18  1  0  0  0  0
 16 47  1  0  0  0  0
 16 48  1  0  0  0  0
 17 18  1  0  0  0  0
 17 20  2  0  0  0  0
 18 21  2  0  0  0  0
 20 24  1  0  0  0  0
 20 50  1  0  0  0  0
 21 25  1  0  0  0  0
 21 51  1  0  0  0  0
 22 23  1  0  0  0  0
 23 27  1  0  0  0  0
 23 53  1  0  0  0  0
 24 25  2  0  0  0  0
 24 54  1  0  0  0  0
 25 55  1  0  0  0  0
 26 28  1  0  0  0  0
 26 29  1  0  0  0  0
 26 56  1  0  0  0  0
 27 30  1  0  0  0  0
 27 57  1  0  0  0  0
 27 58  1  0  0  0  0
 28 59  1  0  0  0  0
 28 60  1  0  0  0  0
 30 32  1  0  0  0  0
 30 62  1  0  0  0  0
 30 63  1  0  0  0  0
 33 34  1  0  0  0  0
 33 65  1  0  0  0  0
 33 66  1  0  0  0  0
 34 37  1  0  0  0  0
 34 68  1  0  0  0  0
 34 69  1  0  0  0  0
 35 36  1  0  0  0  0
 35 70  1  0  0  0  0
 35 71  1  0  0  0  0
 36 38  1  0  0  0  0
 36 39  1  0  0  0  0
 36 72  1  0  0  0  0
 37 40  1  0  0  0  0
 37 41  2  0  0  0  0
 38 74  1  0  0  0  0
 38 75  1  0  0  0  0
 38 76  1  0  0  0  0
 39 77  1  0  0  0  0
 39 78  1  0  0  0  0
 39 79  1  0  0  0  0
 40 42  2  0  0  0  0
 41 43  1  0  0  0  0
 41 80  1  0  0  0  0
 42 44  1  0  0  0  0
 42 81  1  0  0  0  0
 43 44  2  0  0  0  0
 43 82  1  0  0  0  0
 44 83  1  0  0  0  0
M  END
> <PUBCHEM_COMPOUND_CID>
507583
> <PUBCHEM_COMPOUND_CANONICALIZED>
1
> <PUBCHEM_CACTVS_COMPLEXITY>
1000
> <PUBCHEM_CACTVS_HBOND_ACCEPTOR>
8
> <PUBCHEM_CACTVS_HBOND_DONOR>
6
> <PUBCHEM_CACTVS_ROTATABLE_BOND>
16
> <PUBCHEM_CACTVS_SUBSKEYS>
AAADcfB7uABEAAAAAAAAAAAAAAAAAYAAAAAwYAAAAAAAAGABQAAAHgYQCAAADarl2CayCILABgSIAiHSGAACAAAgBQAIiIGIAokIYDKBkzGcYAAklgCIiAe8n8KOgAAAAAARAAAAAAAAACIAASAACAAAAA==
> <PUBCHEM_IUPAC_OPENEYE_NAME>
(4S)-5-[[2-[[(1R)-2-[2-(2-chlorophenyl)ethylamino]-2-oxo-1-(sulfanylmethyl)ethyl]carbamoyl]indan-2-yl]amino]-4-(isobutoxycarbonylamino)-5-oxo-pentanoic acid
> <PUBCHEM_IUPAC_CAS_NAME>
(4S)-5-[[2-[[[(2R)-1-[2-(2-chlorophenyl)ethylamino]-3-mercapto-1-oxopropan-2-yl]amino]-oxomethyl]-1,3-dihydroinden-2-yl]amino]-4-[[2-methylpropoxy(oxo)methyl]amino]-5-oxopentanoic acid
> <PUBCHEM_IUPAC_NAME_MARKUP>
(4<I>S</I>)-5-[[2-[[(2<I>R</I>)-1-[2-(2-chlorophenyl)ethylamino]-1-oxo-3-sulfanylpropan-2-yl]carbamoyl]-1,3-dihydroinden-2-yl]amino]-4-(2-methylpropoxycarbonylamino)-5-oxopentanoic acid
> <PUBCHEM_IUPAC_NAME>
(4S)-5-[[2-[[(2R)-1-[2-(2-chlorophenyl)ethylamino]-1-oxo-3-sulfanylpropan-2-yl]carbamoyl]-1,3-dihydroinden-2-yl]amino]-4-(2-methylpropoxycarbonylamino)-5-oxopentanoic acid
> <PUBCHEM_IUPAC_SYSTEMATIC_NAME>
(4S)-5-[[2-[[(2R)-1-[2-(2-chlorophenyl)ethylamino]-1-oxidanylidene-3-sulfanyl-propan-2-yl]carbamoyl]-1,3-dihydroinden-2-yl]amino]-4-(2-methylpropoxycarbonylamino)-5-oxidanylidene-pentanoic acid
> <PUBCHEM_IUPAC_TRADITIONAL_NAME>
(4S)-5-[[2-[[(1R)-2-[2-(2-chlorophenyl)ethylamino]-2-keto-1-(mercaptomethyl)ethyl]carbamoyl]indan-2-yl]amino]-4-(isobutoxycarbonylamino)-5-keto-valeric acid
> <PUBCHEM_IUPAC_INCHI>
InChI=1S/C31H39ClN4O7S/c1-19(2)17-43-30(42)35-24(11-12-26(37)38)28(40)36-31(15-21-8-3-4-9-22(21)16-31)29(41)34-25(18-44)27(39)33-14-13-20-7-5-6-10-23(20)32/h3-10,19,24-25,44H,11-18H2,1-2H3,(H,33,39)(H,34,41)(H,35,42)(H,36,40)(H,37,38)/t24-,25-/m0/s1
> <PUBCHEM_IUPAC_INCHIKEY>
OCYDWKIMGDWDFU-DQEYMECFSA-N
> <PUBCHEM_XLOGP3_AA>
4
> <PUBCHEM_EXACT_MASS>
646.2227985
> <PUBCHEM_MOLECULAR_FORMULA>
C31H39ClN4O7S
> <PUBCHEM_MOLECULAR_WEIGHT>
647.2
> <PUBCHEM_OPENEYE_CAN_SMILES>
CC(C)COC(=O)NC(CCC(=O)O)C(=O)NC1(CC2=CC=CC=C2C1)C(=O)NC(CS)C(=O)NCCC3=CC=CC=C3Cl
> <PUBCHEM_OPENEYE_ISO_SMILES>
CC(C)COC(=O)N[C@@H](CCC(=O)O)C(=O)NC1(CC2=CC=CC=C2C1)C(=O)N[C@@H](CS)C(=O)NCCC3=CC=CC=C3Cl
> <PUBCHEM_CACTVS_TPSA>
164
> <PUBCHEM_MONOISOTOPIC_WEIGHT>
646.2227985
> <PUBCHEM_TOTAL_CHARGE>
0
> <PUBCHEM_HEAVY_ATOM_COUNT>
44
> <PUBCHEM_ATOM_DEF_STEREO_COUNT>
2
> <PUBCHEM_ATOM_UDEF_STEREO_COUNT>
0
> <PUBCHEM_BOND_DEF_STEREO_COUNT>
0
> <PUBCHEM_BOND_UDEF_STEREO_COUNT>
0
> <PUBCHEM_ISOTOPIC_ATOM_COUNT>
0
> <PUBCHEM_COMPONENT_COUNT>
1
> <PUBCHEM_CACTVS_TAUTO_COUNT>
-1
> <PUBCHEM_COORDINATE_TYPE>
1
5
255
> <PUBCHEM_BONDANNOTATIONS>
26  11  6
23  12  6
17  18  8
17  20  8
18  21  8
20  24  8
21  25  8
24  25  8
37  40  8
37  41  8
40  42  8
41  43  8
42  44  8
43  44  8
$$$$
