507518
  -OEChem-10302200282D
 87 88  0     1  0  0  0  0  0999 V2000
    2.0000   -6.6550    0.0000 Cl  0  0  0  0  0  0  0  0  0  0  0  0
    3.7320   -9.6550    0.0000 Cl  0  0  0  0  0  0  0  0  0  0  0  0
    4.5981   -1.1550    0.0000 S   0  0  0  0  0  0  0  0  0  0  0  0
    5.4641   -0.6550    0.0000 O   0  0  0  0  0  0  0  0  0  0  0  0
    5.4641    0.3450    0.0000 O   0  0  0  0  0  0  0  0  0  0  0  0
    6.3301   -4.1550    0.0000 O   0  0  0  0  0  0  0  0  0  0  0  0
    6.3301    3.8450    0.0000 O   0  0  0  0  0  0  0  0  0  0  0  0
    8.0622    4.8450    0.0000 O   0  0  0  0  0  0  0  0  0  0  0  0
    8.9282    3.3450    0.0000 O   0  0  0  0  0  0  0  0  0  0  0  0
    3.7320    9.3450    0.0000 O   0  0  0  0  0  0  0  0  0  0  0  0
    2.8660    7.8450    0.0000 O   0  0  0  0  0  0  0  0  0  0  0  0
    7.1962    0.3450    0.0000 N   0  0  0  0  0  0  0  0  0  0  0  0
    6.3301   -2.1550    0.0000 N   0  0  0  0  0  0  0  0  0  0  0  0
    5.4641    2.3450    0.0000 N   0  0  0  0  0  0  0  0  0  0  0  0
    4.5981   -4.1550    0.0000 N   0  0  0  0  0  0  0  0  0  0  0  0
    7.1962   -0.6550    0.0000 C   0  0  1  0  0  0  0  0  0  0  0  0
    8.0622   -1.1550    0.0000 C   0  0  0  0  0  0  0  0  0  0  0  0
    8.9282   -0.6550    0.0000 C   0  0  0  0  0  0  0  0  0  0  0  0
    6.3301    1.8450    0.0000 C   0  0  2  0  0  0  0  0  0  0  0  0
    6.3301   -1.1550    0.0000 C   0  0  0  0  0  0  0  0  0  0  0  0
    9.7942   -1.1550    0.0000 C   0  0  0  0  0  0  0  0  0  0  0  0
    8.9282    0.3450    0.0000 C   0  0  0  0  0  0  0  0  0  0  0  0
    6.3301    0.8450    0.0000 C   0  0  0  0  0  0  0  0  0  0  0  0
    7.1962    2.3450    0.0000 C   0  0  0  0  0  0  0  0  0  0  0  0
    5.4641   -2.6550    0.0000 C   0  0  1  0  0  0  0  0  0  0  0  0
    7.1962    3.3450    0.0000 C   0  0  0  0  0  0  0  0  0  0  0  0
    4.5981   -2.1550    0.0000 C   0  0  0  0  0  0  0  0  0  0  0  0
    5.4641   -3.6550    0.0000 C   0  0  0  0  0  0  0  0  0  0  0  0
    5.4641    3.3450    0.0000 C   0  0  0  0  0  0  0  0  0  0  0  0
    4.5981    3.8450    0.0000 C   0  0  0  0  0  0  0  0  0  0  0  0
    4.5981   -5.1550    0.0000 C   0  0  0  0  0  0  0  0  0  0  0  0
    8.0622    3.8450    0.0000 C   0  0  0  0  0  0  0  0  0  0  0  0
    4.5981    4.8450    0.0000 C   0  0  0  0  0  0  0  0  0  0  0  0
    3.7320   -5.6550    0.0000 C   0  0  0  0  0  0  0  0  0  0  0  0
    3.7320   -6.6550    0.0000 C   0  0  0  0  0  0  0  0  0  0  0  0
    5.4641    5.3450    0.0000 C   0  0  0  0  0  0  0  0  0  0  0  0
    3.7320    5.3450    0.0000 C   0  0  0  0  0  0  0  0  0  0  0  0
    4.5981    6.8450    0.0000 C   0  0  0  0  0  0  0  0  0  0  0  0
    5.4641    6.3450    0.0000 C   0  0  0  0  0  0  0  0  0  0  0  0
    3.7320    6.3450    0.0000 C   0  0  0  0  0  0  0  0  0  0  0  0
    2.8660   -7.1550    0.0000 C   0  0  0  0  0  0  0  0  0  0  0  0
    4.5981   -7.1550    0.0000 C   0  0  0  0  0  0  0  0  0  0  0  0
    4.5981    7.8450    0.0000 C   0  0  0  0  0  0  0  0  0  0  0  0
    2.8660   -8.1550    0.0000 C   0  0  0  0  0  0  0  0  0  0  0  0
    4.5981   -8.1550    0.0000 C   0  0  0  0  0  0  0  0  0  0  0  0
    3.7320   -8.6550    0.0000 C   0  0  0  0  0  0  0  0  0  0  0  0
    3.7320    8.3450    0.0000 C   0  0  0  0  0  0  0  0  0  0  0  0
    6.6592   -0.3450    0.0000 H   0  0  0  0  0  0  0  0  0  0  0  0
    7.6636   -1.6300    0.0000 H   0  0  0  0  0  0  0  0  0  0  0  0
    8.4607   -1.6300    0.0000 H   0  0  0  0  0  0  0  0  0  0  0  0
    9.4651   -0.3450    0.0000 H   0  0  0  0  0  0  0  0  0  0  0  0
    7.7331    0.6550    0.0000 H   0  0  0  0  0  0  0  0  0  0  0  0
    5.7932    1.5350    0.0000 H   0  0  0  0  0  0  0  0  0  0  0  0
    9.4842   -1.6919    0.0000 H   0  0  0  0  0  0  0  0  0  0  0  0
   10.3312   -1.4650    0.0000 H   0  0  0  0  0  0  0  0  0  0  0  0
   10.1042   -0.6181    0.0000 H   0  0  0  0  0  0  0  0  0  0  0  0
    9.5482    0.3450    0.0000 H   0  0  0  0  0  0  0  0  0  0  0  0
    8.9282    0.9650    0.0000 H   0  0  0  0  0  0  0  0  0  0  0  0
    8.3082    0.3450    0.0000 H   0  0  0  0  0  0  0  0  0  0  0  0
    7.4082    1.7624    0.0000 H   0  0  0  0  0  0  0  0  0  0  0  0
    7.8067    2.4527    0.0000 H   0  0  0  0  0  0  0  0  0  0  0  0
    6.8671   -2.4650    0.0000 H   0  0  0  0  0  0  0  0  0  0  0  0
    5.4641   -2.0350    0.0000 H   0  0  0  0  0  0  0  0  0  0  0  0
    4.9272    2.0350    0.0000 H   0  0  0  0  0  0  0  0  0  0  0  0
    6.9841    3.9276    0.0000 H   0  0  0  0  0  0  0  0  0  0  0  0
    6.5856    3.2373    0.0000 H   0  0  0  0  0  0  0  0  0  0  0  0
    3.9875   -2.0473    0.0000 H   0  0  0  0  0  0  0  0  0  0  0  0
    4.3860   -2.7376    0.0000 H   0  0  0  0  0  0  0  0  0  0  0  0
    3.9875    3.9527    0.0000 H   0  0  0  0  0  0  0  0  0  0  0  0
    4.3860    3.2624    0.0000 H   0  0  0  0  0  0  0  0  0  0  0  0
    4.0611   -3.8450    0.0000 H   0  0  0  0  0  0  0  0  0  0  0  0
    4.8101   -5.7376    0.0000 H   0  0  0  0  0  0  0  0  0  0  0  0
    5.2087   -5.0473    0.0000 H   0  0  0  0  0  0  0  0  0  0  0  0
    3.5200   -5.0724    0.0000 H   0  0  0  0  0  0  0  0  0  0  0  0
    3.1215   -5.7627    0.0000 H   0  0  0  0  0  0  0  0  0  0  0  0
    4.0611   -0.8450    0.0000 H   0  0  0  0  0  0  0  0  0  0  0  0
    6.0010    5.0350    0.0000 H   0  0  0  0  0  0  0  0  0  0  0  0
    3.1951    5.0350    0.0000 H   0  0  0  0  0  0  0  0  0  0  0  0
    6.0010    6.6550    0.0000 H   0  0  0  0  0  0  0  0  0  0  0  0
    3.1951    6.6550    0.0000 H   0  0  0  0  0  0  0  0  0  0  0  0
    8.5991    5.1550    0.0000 H   0  0  0  0  0  0  0  0  0  0  0  0
    5.1350   -6.8450    0.0000 H   0  0  0  0  0  0  0  0  0  0  0  0
    5.2087    7.7373    0.0000 H   0  0  0  0  0  0  0  0  0  0  0  0
    4.8101    8.4276    0.0000 H   0  0  0  0  0  0  0  0  0  0  0  0
    2.3291   -8.4650    0.0000 H   0  0  0  0  0  0  0  0  0  0  0  0
    5.1350   -8.4650    0.0000 H   0  0  0  0  0  0  0  0  0  0  0  0
    3.1951    9.6550    0.0000 H   0  0  0  0  0  0  0  0  0  0  0  0
  1 41  1  0  0  0  0
  2 46  1  0  0  0  0
  3 27  1  0  0  0  0
  3 76  1  0  0  0  0
  4 20  2  0  0  0  0
  5 23  2  0  0  0  0
  6 28  2  0  0  0  0
  7 29  2  0  0  0  0
  8 32  1  0  0  0  0
  8 81  1  0  0  0  0
  9 32  2  0  0  0  0
 10 47  1  0  0  0  0
 10 87  1  0  0  0  0
 11 47  2  0  0  0  0
 16 12  1  1  0  0  0
 12 23  1  0  0  0  0
 12 52  1  0  0  0  0
 13 20  1  0  0  0  0
 25 13  1  6  0  0  0
 13 62  1  0  0  0  0
 19 14  1  1  0  0  0
 14 29  1  0  0  0  0
 14 64  1  0  0  0  0
 15 28  1  0  0  0  0
 15 31  1  0  0  0  0
 15 71  1  0  0  0  0
 16 17  1  0  0  0  0
 16 20  1  0  0  0  0
 16 48  1  0  0  0  0
 17 18  1  0  0  0  0
 17 49  1  0  0  0  0
 17 50  1  0  0  0  0
 18 21  1  0  0  0  0
 18 22  1  0  0  0  0
 18 51  1  0  0  0  0
 19 23  1  0  0  0  0
 19 24  1  0  0  0  0
 19 53  1  0  0  0  0
 21 54  1  0  0  0  0
 21 55  1  0  0  0  0
 21 56  1  0  0  0  0
 22 57  1  0  0  0  0
 22 58  1  0  0  0  0
 22 59  1  0  0  0  0
 24 26  1  0  0  0  0
 24 60  1  0  0  0  0
 24 61  1  0  0  0  0
 25 27  1  0  0  0  0
 25 28  1  0  0  0  0
 25 63  1  0  0  0  0
 26 32  1  0  0  0  0
 26 65  1  0  0  0  0
 26 66  1  0  0  0  0
 27 67  1  0  0  0  0
 27 68  1  0  0  0  0
 29 30  1  0  0  0  0
 30 33  1  0  0  0  0
 30 69  1  0  0  0  0
 30 70  1  0  0  0  0
 31 34  1  0  0  0  0
 31 72  1  0  0  0  0
 31 73  1  0  0  0  0
 33 36  2  0  0  0  0
 33 37  1  0  0  0  0
 34 35  1  0  0  0  0
 34 74  1  0  0  0  0
 34 75  1  0  0  0  0
 35 41  2  0  0  0  0
 35 42  1  0  0  0  0
 36 39  1  0  0  0  0
 36 77  1  0  0  0  0
 37 40  2  0  0  0  0
 37 78  1  0  0  0  0
 38 39  2  0  0  0  0
 38 40  1  0  0  0  0
 38 43  1  0  0  0  0
 39 79  1  0  0  0  0
 40 80  1  0  0  0  0
 41 44  1  0  0  0  0
 42 45  2  0  0  0  0
 42 82  1  0  0  0  0
 43 47  1  0  0  0  0
 43 83  1  0  0  0  0
 43 84  1  0  0  0  0
 44 46  2  0  0  0  0
 44 85  1  0  0  0  0
 45 46  1  0  0  0  0
 45 86  1  0  0  0  0
M  END
> <PUBCHEM_COMPOUND_CID>
507518
> <PUBCHEM_COMPOUND_CANONICALIZED>
1
> <PUBCHEM_CACTVS_COMPLEXITY>
1080
> <PUBCHEM_CACTVS_HBOND_ACCEPTOR>
9
> <PUBCHEM_CACTVS_HBOND_DONOR>
7
> <PUBCHEM_CACTVS_ROTATABLE_BOND>
19
> <PUBCHEM_CACTVS_SUBSKEYS>
AAADcfB/vABGAAAAAAAAAAAAAAAAAAAAAAAwYAAAAAAAAAABQAAAHgYQCAAADSrF2CSyCILAAgSIAiHSGAACAAAgBQAIiIGIAogIYDKBlzGUYAAk1gGIiAe83+KORAAAAACBAACIAAAAAQIAAAAAAAAAAA==
> <PUBCHEM_IUPAC_OPENEYE_NAME>
(4S)-4-[[2-[4-(carboxymethyl)phenyl]acetyl]amino]-5-[[(1S)-1-[[(1R)-2-[2-(2,4-dichlorophenyl)ethylamino]-2-oxo-1-(sulfanylmethyl)ethyl]carbamoyl]-3-methyl-butyl]amino]-5-oxo-pentanoic acid
> <PUBCHEM_IUPAC_CAS_NAME>
(4S)-4-[[2-[4-(carboxymethyl)phenyl]-1-oxoethyl]amino]-5-[[(2S)-1-[[(2R)-1-[2-(2,4-dichlorophenyl)ethylamino]-3-mercapto-1-oxopropan-2-yl]amino]-4-methyl-1-oxopentan-2-yl]amino]-5-oxopentanoic acid
> <PUBCHEM_IUPAC_NAME_MARKUP>
(4<I>S</I>)-4-[[2-[4-(carboxymethyl)phenyl]acetyl]amino]-5-[[(2<I>S</I>)-1-[[(2<I>R</I>)-1-[2-(2,4-dichlorophenyl)ethylamino]-1-oxo-3-sulfanylpropan-2-yl]amino]-4-methyl-1-oxopentan-2-yl]amino]-5-oxopentanoic acid
> <PUBCHEM_IUPAC_NAME>
(4S)-4-[[2-[4-(carboxymethyl)phenyl]acetyl]amino]-5-[[(2S)-1-[[(2R)-1-[2-(2,4-dichlorophenyl)ethylamino]-1-oxo-3-sulfanylpropan-2-yl]amino]-4-methyl-1-oxopentan-2-yl]amino]-5-oxopentanoic acid
> <PUBCHEM_IUPAC_SYSTEMATIC_NAME>
(4S)-5-[[(2S)-1-[[(2R)-1-[2-(2,4-dichlorophenyl)ethylamino]-1-oxidanylidene-3-sulfanyl-propan-2-yl]amino]-4-methyl-1-oxidanylidene-pentan-2-yl]amino]-4-[2-[4-(2-hydroxy-2-oxoethyl)phenyl]ethanoylamino]-5-oxidanylidene-pentanoic acid
> <PUBCHEM_IUPAC_TRADITIONAL_NAME>
(4S)-4-[[2-[4-(carboxymethyl)phenyl]acetyl]amino]-5-[[(1S)-1-[[(1R)-2-[2-(2,4-dichlorophenyl)ethylamino]-2-keto-1-(mercaptomethyl)ethyl]carbamoyl]-3-methyl-butyl]amino]-5-keto-valeric acid
> <PUBCHEM_IUPAC_INCHI>
InChI=1S/C32H40Cl2N4O8S/c1-18(2)13-25(32(46)38-26(17-47)30(44)35-12-11-21-7-8-22(33)16-23(21)34)37-31(45)24(9-10-28(40)41)36-27(39)14-19-3-5-20(6-4-19)15-29(42)43/h3-8,16,18,24-26,47H,9-15,17H2,1-2H3,(H,35,44)(H,36,39)(H,37,45)(H,38,46)(H,40,41)(H,42,43)/t24-,25-,26-/m0/s1
> <PUBCHEM_IUPAC_INCHIKEY>
CVHZUYDNIUDMMI-GSDHBNRESA-N
> <PUBCHEM_XLOGP3_AA>
3.8
> <PUBCHEM_EXACT_MASS>
710.1943908
> <PUBCHEM_MOLECULAR_FORMULA>
C32H40Cl2N4O8S
> <PUBCHEM_MOLECULAR_WEIGHT>
711.7
> <PUBCHEM_OPENEYE_CAN_SMILES>
CC(C)CC(C(=O)NC(CS)C(=O)NCCC1=C(C=C(C=C1)Cl)Cl)NC(=O)C(CCC(=O)O)NC(=O)CC2=CC=C(C=C2)CC(=O)O
> <PUBCHEM_OPENEYE_ISO_SMILES>
CC(C)C[C@@H](C(=O)N[C@@H](CS)C(=O)NCCC1=C(C=C(C=C1)Cl)Cl)NC(=O)[C@H](CCC(=O)O)NC(=O)CC2=CC=C(C=C2)CC(=O)O
> <PUBCHEM_CACTVS_TPSA>
192
> <PUBCHEM_MONOISOTOPIC_WEIGHT>
710.1943908
> <PUBCHEM_TOTAL_CHARGE>
0
> <PUBCHEM_HEAVY_ATOM_COUNT>
47
> <PUBCHEM_ATOM_DEF_STEREO_COUNT>
3
> <PUBCHEM_ATOM_UDEF_STEREO_COUNT>
0
> <PUBCHEM_BOND_DEF_STEREO_COUNT>
0
> <PUBCHEM_BOND_UDEF_STEREO_COUNT>
0
> <PUBCHEM_ISOTOPIC_ATOM_COUNT>
0
> <PUBCHEM_COMPONENT_COUNT>
1
> <PUBCHEM_CACTVS_TAUTO_COUNT>
-1
> <PUBCHEM_COORDINATE_TYPE>
1
5
255
> <PUBCHEM_BONDANNOTATIONS>
16  12  5
25  13  6
19  14  5
33  36  8
33  37  8
35  41  8
35  42  8
36  39  8
37  40  8
38  39  8
38  40  8
41  44  8
42  45  8
44  46  8
45  46  8
$$$$
