507597
  -OEChem-10302200282D
 90 92  0     1  0  0  0  0  0999 V2000
    2.0000   -5.7918    0.0000 Cl  0  0  0  0  0  0  0  0  0  0  0  0
    4.5981   -0.2918    0.0000 S   0  0  0  0  0  0  0  0  0  0  0  0
    9.7734    0.4401    0.0000 O   0  0  0  0  0  0  0  0  0  0  0  0
    5.6065    1.5628    0.0000 O   0  0  0  0  0  0  0  0  0  0  0  0
    5.4641    0.2082    0.0000 O   0  0  0  0  0  0  0  0  0  0  0  0
    5.4871    5.1664    0.0000 O   0  0  0  0  0  0  0  0  0  0  0  0
    6.3301   -3.2918    0.0000 O   0  0  0  0  0  0  0  0  0  0  0  0
    7.1813    4.8063    0.0000 O   0  0  0  0  0  0  0  0  0  0  0  0
    9.0834    5.4243    0.0000 O   0  0  0  0  0  0  0  0  0  0  0  0
    9.6186    3.7770    0.0000 O   0  0  0  0  0  0  0  0  0  0  0  0
    7.3007    1.2027    0.0000 N   0  0  0  0  0  0  0  0  0  0  0  0
    6.3301   -1.2918    0.0000 N   0  0  0  0  0  0  0  0  0  0  0  0
    6.0223    3.5191    0.0000 N   0  0  0  0  0  0  0  0  0  0  0  0
    4.5981   -3.2918    0.0000 N   0  0  0  0  0  0  0  0  0  0  0  0
    7.1962    0.2082    0.0000 C   0  0  1  0  0  0  0  0  0  0  0  0
    8.7788    0.5446    0.0000 C   0  0  2  0  0  0  0  0  0  0  0  0
    8.1097   -0.1986    0.0000 C   0  0  0  0  0  0  0  0  0  0  0  0
    8.2788    1.4106    0.0000 C   0  0  0  0  0  0  0  0  0  0  0  0
    6.5575    1.8718    0.0000 C   0  0  0  0  0  0  0  0  0  0  0  0
    6.3301   -0.2918    0.0000 C   0  0  0  0  0  0  0  0  0  0  0  0
    6.7654    2.8500    0.0000 C   0  0  2  0  0  0  0  0  0  0  0  0
    7.7165    3.1590    0.0000 C   0  0  0  0  0  0  0  0  0  0  0  0
   10.3611    1.2491    0.0000 C   0  0  0  0  0  0  0  0  0  0  0  0
    5.4641   -1.7918    0.0000 C   0  0  1  0  0  0  0  0  0  0  0  0
    7.9244    4.1372    0.0000 C   0  0  0  0  0  0  0  0  0  0  0  0
   11.3557    1.1446    0.0000 C   0  0  0  0  0  0  0  0  0  0  0  0
    4.5981   -1.2918    0.0000 C   0  0  0  0  0  0  0  0  0  0  0  0
    5.4641   -2.7918    0.0000 C   0  0  0  0  0  0  0  0  0  0  0  0
    6.2302    4.4973    0.0000 C   0  0  0  0  0  0  0  0  0  0  0  0
    8.8755    4.4462    0.0000 C   0  0  0  0  0  0  0  0  0  0  0  0
   11.7624    0.2310    0.0000 C   0  0  0  0  0  0  0  0  0  0  0  0
   11.9434    1.9536    0.0000 C   0  0  0  0  0  0  0  0  0  0  0  0
    4.5981   -4.2918    0.0000 C   0  0  0  0  0  0  0  0  0  0  0  0
   12.7569    0.1265    0.0000 C   0  0  0  0  0  0  0  0  0  0  0  0
   12.9380    1.8490    0.0000 C   0  0  0  0  0  0  0  0  0  0  0  0
    5.6950    6.1445    0.0000 C   0  0  0  0  0  0  0  0  0  0  0  0
   13.3447    0.9355    0.0000 C   0  0  0  0  0  0  0  0  0  0  0  0
    4.9518    6.8137    0.0000 C   0  0  0  0  0  0  0  0  0  0  0  0
    3.7320   -4.7918    0.0000 C   0  0  0  0  0  0  0  0  0  0  0  0
    3.7320   -5.7918    0.0000 C   0  0  0  0  0  0  0  0  0  0  0  0
    5.1598    7.7918    0.0000 C   0  0  0  0  0  0  0  0  0  0  0  0
    4.0008    6.5046    0.0000 C   0  0  0  0  0  0  0  0  0  0  0  0
    2.8660   -6.2918    0.0000 C   0  0  0  0  0  0  0  0  0  0  0  0
    4.5981   -6.2918    0.0000 C   0  0  0  0  0  0  0  0  0  0  0  0
    2.8660   -7.2918    0.0000 C   0  0  0  0  0  0  0  0  0  0  0  0
    4.5981   -7.2918    0.0000 C   0  0  0  0  0  0  0  0  0  0  0  0
    3.7320   -7.7918    0.0000 C   0  0  0  0  0  0  0  0  0  0  0  0
    6.6762    0.5459    0.0000 H   0  0  0  0  0  0  0  0  0  0  0  0
    9.1165    1.0646    0.0000 H   0  0  0  0  0  0  0  0  0  0  0  0
    7.7997   -0.7355    0.0000 H   0  0  0  0  0  0  0  0  0  0  0  0
    8.6113   -0.5630    0.0000 H   0  0  0  0  0  0  0  0  0  0  0  0
    8.8452    1.6628    0.0000 H   0  0  0  0  0  0  0  0  0  0  0  0
    8.0872    2.0003    0.0000 H   0  0  0  0  0  0  0  0  0  0  0  0
    6.1758    2.6584    0.0000 H   0  0  0  0  0  0  0  0  0  0  0  0
    7.8028    2.5450    0.0000 H   0  0  0  0  0  0  0  0  0  0  0  0
    8.3361    3.1374    0.0000 H   0  0  0  0  0  0  0  0  0  0  0  0
    6.8671   -1.6018    0.0000 H   0  0  0  0  0  0  0  0  0  0  0  0
   10.5320    1.8451    0.0000 H   0  0  0  0  0  0  0  0  0  0  0  0
    9.8039    1.5209    0.0000 H   0  0  0  0  0  0  0  0  0  0  0  0
    5.4641   -1.1718    0.0000 H   0  0  0  0  0  0  0  0  0  0  0  0
    5.4326    3.3275    0.0000 H   0  0  0  0  0  0  0  0  0  0  0  0
    7.8381    4.7511    0.0000 H   0  0  0  0  0  0  0  0  0  0  0  0
    7.3048    4.1588    0.0000 H   0  0  0  0  0  0  0  0  0  0  0  0
    3.9875   -1.1842    0.0000 H   0  0  0  0  0  0  0  0  0  0  0  0
    4.3860   -1.8744    0.0000 H   0  0  0  0  0  0  0  0  0  0  0  0
   11.3980   -0.2706    0.0000 H   0  0  0  0  0  0  0  0  0  0  0  0
   11.6913    2.5200    0.0000 H   0  0  0  0  0  0  0  0  0  0  0  0
    4.0611   -2.9818    0.0000 H   0  0  0  0  0  0  0  0  0  0  0  0
    4.8101   -4.8744    0.0000 H   0  0  0  0  0  0  0  0  0  0  0  0
    5.2087   -4.1842    0.0000 H   0  0  0  0  0  0  0  0  0  0  0  0
    4.0611    0.0182    0.0000 H   0  0  0  0  0  0  0  0  0  0  0  0
   13.0091   -0.4399    0.0000 H   0  0  0  0  0  0  0  0  0  0  0  0
   13.3024    2.3506    0.0000 H   0  0  0  0  0  0  0  0  0  0  0  0
    6.2698    5.9123    0.0000 H   0  0  0  0  0  0  0  0  0  0  0  0
    6.0235    6.6703    0.0000 H   0  0  0  0  0  0  0  0  0  0  0  0
   13.9613    0.8707    0.0000 H   0  0  0  0  0  0  0  0  0  0  0  0
    4.8229    6.2072    0.0000 H   0  0  0  0  0  0  0  0  0  0  0  0
    3.5200   -4.2092    0.0000 H   0  0  0  0  0  0  0  0  0  0  0  0
    3.1215   -4.8995    0.0000 H   0  0  0  0  0  0  0  0  0  0  0  0
    9.6730    5.6159    0.0000 H   0  0  0  0  0  0  0  0  0  0  0  0
    5.7662    7.6629    0.0000 H   0  0  0  0  0  0  0  0  0  0  0  0
    5.2886    8.3983    0.0000 H   0  0  0  0  0  0  0  0  0  0  0  0
    4.5533    7.9207    0.0000 H   0  0  0  0  0  0  0  0  0  0  0  0
    3.8092    7.0943    0.0000 H   0  0  0  0  0  0  0  0  0  0  0  0
    3.4111    6.3131    0.0000 H   0  0  0  0  0  0  0  0  0  0  0  0
    4.1924    5.9150    0.0000 H   0  0  0  0  0  0  0  0  0  0  0  0
    5.1350   -5.9818    0.0000 H   0  0  0  0  0  0  0  0  0  0  0  0
    2.3291   -7.6018    0.0000 H   0  0  0  0  0  0  0  0  0  0  0  0
    5.1350   -7.6018    0.0000 H   0  0  0  0  0  0  0  0  0  0  0  0
    3.7320   -8.4118    0.0000 H   0  0  0  0  0  0  0  0  0  0  0  0
  1 43  1  0  0  0  0
  2 27  1  0  0  0  0
  2 71  1  0  0  0  0
 16  3  1  6  0  0  0
  3 23  1  0  0  0  0
  4 19  2  0  0  0  0
  5 20  2  0  0  0  0
  6 29  1  0  0  0  0
  6 36  1  0  0  0  0
  7 28  2  0  0  0  0
  8 29  2  0  0  0  0
  9 30  1  0  0  0  0
  9 80  1  0  0  0  0
 10 30  2  0  0  0  0
 11 15  1  0  0  0  0
 11 18  1  0  0  0  0
 11 19  1  0  0  0  0
 12 20  1  0  0  0  0
 24 12  1  6  0  0  0
 12 57  1  0  0  0  0
 21 13  1  1  0  0  0
 13 29  1  0  0  0  0
 13 61  1  0  0  0  0
 14 28  1  0  0  0  0
 14 33  1  0  0  0  0
 14 68  1  0  0  0  0
 15 17  1  0  0  0  0
 15 20  1  1  0  0  0
 15 48  1  0  0  0  0
 16 17  1  0  0  0  0
 16 18  1  0  0  0  0
 16 49  1  0  0  0  0
 17 50  1  0  0  0  0
 17 51  1  0  0  0  0
 18 52  1  0  0  0  0
 18 53  1  0  0  0  0
 19 21  1  0  0  0  0
 21 22  1  0  0  0  0
 21 54  1  0  0  0  0
 22 25  1  0  0  0  0
 22 55  1  0  0  0  0
 22 56  1  0  0  0  0
 23 26  1  0  0  0  0
 23 58  1  0  0  0  0
 23 59  1  0  0  0  0
 24 27  1  0  0  0  0
 24 28  1  0  0  0  0
 24 60  1  0  0  0  0
 25 30  1  0  0  0  0
 25 62  1  0  0  0  0
 25 63  1  0  0  0  0
 26 31  2  0  0  0  0
 26 32  1  0  0  0  0
 27 64  1  0  0  0  0
 27 65  1  0  0  0  0
 31 34  1  0  0  0  0
 31 66  1  0  0  0  0
 32 35  2  0  0  0  0
 32 67  1  0  0  0  0
 33 39  1  0  0  0  0
 33 69  1  0  0  0  0
 33 70  1  0  0  0  0
 34 37  2  0  0  0  0
 34 72  1  0  0  0  0
 35 37  1  0  0  0  0
 35 73  1  0  0  0  0
 36 38  1  0  0  0  0
 36 74  1  0  0  0  0
 36 75  1  0  0  0  0
 37 76  1  0  0  0  0
 38 41  1  0  0  0  0
 38 42  1  0  0  0  0
 38 77  1  0  0  0  0
 39 40  1  0  0  0  0
 39 78  1  0  0  0  0
 39 79  1  0  0  0  0
 40 43  1  0  0  0  0
 40 44  2  0  0  0  0
 41 81  1  0  0  0  0
 41 82  1  0  0  0  0
 41 83  1  0  0  0  0
 42 84  1  0  0  0  0
 42 85  1  0  0  0  0
 42 86  1  0  0  0  0
 43 45  2  0  0  0  0
 44 46  1  0  0  0  0
 44 87  1  0  0  0  0
 45 47  1  0  0  0  0
 45 88  1  0  0  0  0
 46 47  2  0  0  0  0
 46 89  1  0  0  0  0
 47 90  1  0  0  0  0
M  END
> <PUBCHEM_COMPOUND_CID>
507597
> <PUBCHEM_COMPOUND_CANONICALIZED>
1
> <PUBCHEM_CACTVS_COMPLEXITY>
1050
> <PUBCHEM_CACTVS_HBOND_ACCEPTOR>
9
> <PUBCHEM_CACTVS_HBOND_DONOR>
5
> <PUBCHEM_CACTVS_ROTATABLE_BOND>
18
> <PUBCHEM_CACTVS_SUBSKEYS>
AAADcfB/vABEAAAAAAAAAAAAAAAAAWAAAAAwYAAAAAAAAAABQAAAHgYQCAAADT7l2CayCIPABgSIAiHSGAACAAAgBQAIiIGICokKZjKBszmfcAAm1gGYqAe+16IOAAAAAAABAAAAAAAAAAIAAAAAAAAAAA==
> <PUBCHEM_IUPAC_OPENEYE_NAME>
(4S)-5-[(2S,4R)-4-benzyloxy-2-[[(1R)-2-[2-(2-chlorophenyl)ethylamino]-2-oxo-1-(sulfanylmethyl)ethyl]carbamoyl]pyrrolidin-1-yl]-4-(isobutoxycarbonylamino)-5-oxo-pentanoic acid
> <PUBCHEM_IUPAC_CAS_NAME>
(4S)-5-[(2S,4R)-2-[[[(2R)-1-[2-(2-chlorophenyl)ethylamino]-3-mercapto-1-oxopropan-2-yl]amino]-oxomethyl]-4-phenylmethoxy-1-pyrrolidinyl]-4-[[2-methylpropoxy(oxo)methyl]amino]-5-oxopentanoic acid
> <PUBCHEM_IUPAC_NAME_MARKUP>
(4<I>S</I>)-5-[(2<I>S</I>,4<I>R</I>)-2-[[(2<I>R</I>)-1-[2-(2-chlorophenyl)ethylamino]-1-oxo-3-sulfanylpropan-2-yl]carbamoyl]-4-phenylmethoxypyrrolidin-1-yl]-4-(2-methylpropoxycarbonylamino)-5-oxopentanoic acid
> <PUBCHEM_IUPAC_NAME>
(4S)-5-[(2S,4R)-2-[[(2R)-1-[2-(2-chlorophenyl)ethylamino]-1-oxo-3-sulfanylpropan-2-yl]carbamoyl]-4-phenylmethoxypyrrolidin-1-yl]-4-(2-methylpropoxycarbonylamino)-5-oxopentanoic acid
> <PUBCHEM_IUPAC_SYSTEMATIC_NAME>
(4S)-5-[(2S,4R)-2-[[(2R)-1-[2-(2-chlorophenyl)ethylamino]-1-oxidanylidene-3-sulfanyl-propan-2-yl]carbamoyl]-4-phenylmethoxy-pyrrolidin-1-yl]-4-(2-methylpropoxycarbonylamino)-5-oxidanylidene-pentanoic acid
> <PUBCHEM_IUPAC_TRADITIONAL_NAME>
(4S)-5-[(2S,4R)-4-benzoxy-2-[[(1R)-2-[2-(2-chlorophenyl)ethylamino]-2-keto-1-(mercaptomethyl)ethyl]carbamoyl]pyrrolidino]-4-(isobutoxycarbonylamino)-5-keto-valeric acid
> <PUBCHEM_IUPAC_INCHI>
InChI=1S/C33H43ClN4O8S/c1-21(2)18-46-33(44)37-26(12-13-29(39)40)32(43)38-17-24(45-19-22-8-4-3-5-9-22)16-28(38)31(42)36-27(20-47)30(41)35-15-14-23-10-6-7-11-25(23)34/h3-11,21,24,26-28,47H,12-20H2,1-2H3,(H,35,41)(H,36,42)(H,37,44)(H,39,40)/t24-,26+,27+,28+/m1/s1
> <PUBCHEM_IUPAC_INCHIKEY>
DMMYLGUXXFWGDU-DALQOBCZSA-N
> <PUBCHEM_XLOGP3_AA>
3.9
> <PUBCHEM_EXACT_MASS>
690.2490132
> <PUBCHEM_MOLECULAR_FORMULA>
C33H43ClN4O8S
> <PUBCHEM_MOLECULAR_WEIGHT>
691.2
> <PUBCHEM_OPENEYE_CAN_SMILES>
CC(C)COC(=O)NC(CCC(=O)O)C(=O)N1CC(CC1C(=O)NC(CS)C(=O)NCCC2=CC=CC=C2Cl)OCC3=CC=CC=C3
> <PUBCHEM_OPENEYE_ISO_SMILES>
CC(C)COC(=O)N[C@@H](CCC(=O)O)C(=O)N1C[C@@H](C[C@H]1C(=O)N[C@@H](CS)C(=O)NCCC2=CC=CC=C2Cl)OCC3=CC=CC=C3
> <PUBCHEM_CACTVS_TPSA>
164
> <PUBCHEM_MONOISOTOPIC_WEIGHT>
690.2490132
> <PUBCHEM_TOTAL_CHARGE>
0
> <PUBCHEM_HEAVY_ATOM_COUNT>
47
> <PUBCHEM_ATOM_DEF_STEREO_COUNT>
4
> <PUBCHEM_ATOM_UDEF_STEREO_COUNT>
0
> <PUBCHEM_BOND_DEF_STEREO_COUNT>
0
> <PUBCHEM_BOND_UDEF_STEREO_COUNT>
0
> <PUBCHEM_ISOTOPIC_ATOM_COUNT>
0
> <PUBCHEM_COMPONENT_COUNT>
1
> <PUBCHEM_CACTVS_TAUTO_COUNT>
-1
> <PUBCHEM_COORDINATE_TYPE>
1
5
255
> <PUBCHEM_BONDANNOTATIONS>
24  12  6
21  13  5
15  20  5
26  31  8
26  32  8
16  3  6
31  34  8
32  35  8
34  37  8
35  37  8
40  43  8
40  44  8
43  45  8
44  46  8
45  47  8
46  47  8
$$$$
