507504
  -OEChem-10302200282D
 85 87  0     1  0  0  0  0  0999 V2000
   13.7619   -1.7320    0.0000 S   0  0  0  0  0  0  0  0  0  0  0  0
    4.6783    0.0613    0.0000 S   0  0  0  0  0  0  0  0  0  0  0  0
   11.2619   -2.5981    0.0000 O   0  0  0  0  0  0  0  0  0  0  0  0
    7.7619   -1.7320    0.0000 O   0  0  0  0  0  0  0  0  0  0  0  0
   12.2619    0.8660    0.0000 O   0  0  0  0  0  0  0  0  0  0  0  0
    6.7619    1.7320    0.0000 O   0  0  0  0  0  0  0  0  0  0  0  0
   10.7619    1.7320    0.0000 O   0  0  0  0  0  0  0  0  0  0  0  0
    9.2619    2.5981    0.0000 O   0  0  0  0  0  0  0  0  0  0  0  0
   17.2619    4.3301    0.0000 O   0  0  0  0  0  0  0  0  0  0  0  0
    9.2619   -0.8660    0.0000 N   0  0  0  0  0  0  0  0  0  0  0  0
   11.2619   -0.8660    0.0000 N   0  0  0  0  0  0  0  0  0  0  0  0
    6.7619    0.0000    0.0000 N   0  0  0  0  0  0  0  0  0  0  0  0
   13.7619    0.0000    0.0000 N   0  0  0  0  0  0  0  0  0  0  0  0
    9.2619   -2.5981    0.0000 C   0  0  0  0  0  0  0  0  0  0  0  0
    9.7619   -1.7320    0.0000 C   0  0  1  0  0  0  0  0  0  0  0  0
    9.7619   -3.4641    0.0000 C   0  0  0  0  0  0  0  0  0  0  0  0
   10.7619   -1.7320    0.0000 C   0  0  0  0  0  0  0  0  0  0  0  0
    7.7619    0.0000    0.0000 C   0  0  2  0  0  0  0  0  0  0  0  0
    9.2619   -4.3301    0.0000 C   0  0  0  0  0  0  0  0  0  0  0  0
   10.7619   -3.4641    0.0000 C   0  0  0  0  0  0  0  0  0  0  0  0
    8.2619   -0.8660    0.0000 C   0  0  0  0  0  0  0  0  0  0  0  0
    8.2619    0.8660    0.0000 C   0  0  0  0  0  0  0  0  0  0  0  0
   12.2619   -0.8660    0.0000 C   0  0  1  0  0  0  0  0  0  0  0  0
    9.2619    0.8660    0.0000 C   0  0  0  0  0  0  0  0  0  0  0  0
   12.7619   -1.7320    0.0000 C   0  0  0  0  0  0  0  0  0  0  0  0
   12.7619    0.0000    0.0000 C   0  0  0  0  0  0  0  0  0  0  0  0
    6.2619    0.8660    0.0000 C   0  0  0  0  0  0  0  0  0  0  0  0
   14.2619    0.8660    0.0000 C   0  0  0  0  0  0  0  0  0  0  0  0
    9.7619    1.7320    0.0000 C   0  0  0  0  0  0  0  0  0  0  0  0
    5.2619    0.8660    0.0000 C   0  0  0  0  0  0  0  0  0  0  0  0
   15.2619    0.8660    0.0000 C   0  0  0  0  0  0  0  0  0  0  0  0
    4.6783    1.6708    0.0000 C   0  0  0  0  0  0  0  0  0  0  0  0
   15.7619    1.7320    0.0000 C   0  0  0  0  0  0  0  0  0  0  0  0
    3.7320    1.3660    0.0000 C   0  0  0  0  0  0  0  0  0  0  0  0
    3.7320    0.3660    0.0000 C   0  0  0  0  0  0  0  0  0  0  0  0
   16.7619    1.7320    0.0000 C   0  0  0  0  0  0  0  0  0  0  0  0
   15.2619    2.5981    0.0000 C   0  0  0  0  0  0  0  0  0  0  0  0
    2.8660    1.8660    0.0000 C   0  0  0  0  0  0  0  0  0  0  0  0
    2.8660   -0.1340    0.0000 C   0  0  0  0  0  0  0  0  0  0  0  0
   17.2619    2.5981    0.0000 C   0  0  0  0  0  0  0  0  0  0  0  0
   15.7619    3.4641    0.0000 C   0  0  0  0  0  0  0  0  0  0  0  0
    2.0000    1.3660    0.0000 C   0  0  0  0  0  0  0  0  0  0  0  0
    2.0000    0.3660    0.0000 C   0  0  0  0  0  0  0  0  0  0  0  0
   16.7619    3.4641    0.0000 C   0  0  0  0  0  0  0  0  0  0  0  0
   18.2619    4.3301    0.0000 C   0  0  0  0  0  0  0  0  0  0  0  0
    8.7869   -2.1996    0.0000 H   0  0  0  0  0  0  0  0  0  0  0  0
    8.7869   -2.9966    0.0000 H   0  0  0  0  0  0  0  0  0  0  0  0
   10.0719   -1.1951    0.0000 H   0  0  0  0  0  0  0  0  0  0  0  0
    9.1419   -3.4641    0.0000 H   0  0  0  0  0  0  0  0  0  0  0  0
    9.5719   -0.3291    0.0000 H   0  0  0  0  0  0  0  0  0  0  0  0
    7.4519    0.5369    0.0000 H   0  0  0  0  0  0  0  0  0  0  0  0
    8.7249   -4.0201    0.0000 H   0  0  0  0  0  0  0  0  0  0  0  0
    8.9519   -4.8671    0.0000 H   0  0  0  0  0  0  0  0  0  0  0  0
    9.7988   -4.6401    0.0000 H   0  0  0  0  0  0  0  0  0  0  0  0
   10.7619   -4.0841    0.0000 H   0  0  0  0  0  0  0  0  0  0  0  0
   11.3819   -3.4641    0.0000 H   0  0  0  0  0  0  0  0  0  0  0  0
   10.7619   -2.8441    0.0000 H   0  0  0  0  0  0  0  0  0  0  0  0
    8.3695    1.4766    0.0000 H   0  0  0  0  0  0  0  0  0  0  0  0
    7.6793    1.0781    0.0000 H   0  0  0  0  0  0  0  0  0  0  0  0
   10.9519   -0.3291    0.0000 H   0  0  0  0  0  0  0  0  0  0  0  0
   11.9519   -1.4030    0.0000 H   0  0  0  0  0  0  0  0  0  0  0  0
    6.4519   -0.5369    0.0000 H   0  0  0  0  0  0  0  0  0  0  0  0
    9.1542    0.2554    0.0000 H   0  0  0  0  0  0  0  0  0  0  0  0
    9.8445    0.6540    0.0000 H   0  0  0  0  0  0  0  0  0  0  0  0
   12.1793   -1.9441    0.0000 H   0  0  0  0  0  0  0  0  0  0  0  0
   12.8695   -2.3426    0.0000 H   0  0  0  0  0  0  0  0  0  0  0  0
   14.0719   -0.5369    0.0000 H   0  0  0  0  0  0  0  0  0  0  0  0
   14.3695    1.4766    0.0000 H   0  0  0  0  0  0  0  0  0  0  0  0
   13.6793    1.0781    0.0000 H   0  0  0  0  0  0  0  0  0  0  0  0
   15.1542    0.2554    0.0000 H   0  0  0  0  0  0  0  0  0  0  0  0
   15.8445    0.6540    0.0000 H   0  0  0  0  0  0  0  0  0  0  0  0
    4.8709    2.2601    0.0000 H   0  0  0  0  0  0  0  0  0  0  0  0
   14.0719   -2.2690    0.0000 H   0  0  0  0  0  0  0  0  0  0  0  0
   17.0719    1.1951    0.0000 H   0  0  0  0  0  0  0  0  0  0  0  0
   14.6419    2.5981    0.0000 H   0  0  0  0  0  0  0  0  0  0  0  0
    2.8660    2.4860    0.0000 H   0  0  0  0  0  0  0  0  0  0  0  0
   11.0719    2.2690    0.0000 H   0  0  0  0  0  0  0  0  0  0  0  0
    2.8660   -0.7540    0.0000 H   0  0  0  0  0  0  0  0  0  0  0  0
   17.8819    2.5981    0.0000 H   0  0  0  0  0  0  0  0  0  0  0  0
   15.4519    4.0010    0.0000 H   0  0  0  0  0  0  0  0  0  0  0  0
    1.4631    1.6760    0.0000 H   0  0  0  0  0  0  0  0  0  0  0  0
    1.4631    0.0560    0.0000 H   0  0  0  0  0  0  0  0  0  0  0  0
   18.2619    3.7101    0.0000 H   0  0  0  0  0  0  0  0  0  0  0  0
   18.8819    4.3301    0.0000 H   0  0  0  0  0  0  0  0  0  0  0  0
   18.2619    4.9501    0.0000 H   0  0  0  0  0  0  0  0  0  0  0  0
  1 25  1  0  0  0  0
  1 73  1  0  0  0  0
  2 30  1  0  0  0  0
  2 35  1  0  0  0  0
  3 17  2  0  0  0  0
  4 21  2  0  0  0  0
  5 26  2  0  0  0  0
  6 27  2  0  0  0  0
  7 29  1  0  0  0  0
  7 77  1  0  0  0  0
  8 29  2  0  0  0  0
  9 44  1  0  0  0  0
  9 45  1  0  0  0  0
 15 10  1  6  0  0  0
 10 21  1  0  0  0  0
 10 50  1  0  0  0  0
 11 17  1  0  0  0  0
 23 11  1  6  0  0  0
 11 60  1  0  0  0  0
 18 12  1  1  0  0  0
 12 27  1  0  0  0  0
 12 62  1  0  0  0  0
 13 26  1  0  0  0  0
 13 28  1  0  0  0  0
 13 67  1  0  0  0  0
 14 15  1  0  0  0  0
 14 16  1  0  0  0  0
 14 46  1  0  0  0  0
 14 47  1  0  0  0  0
 15 17  1  0  0  0  0
 15 48  1  0  0  0  0
 16 19  1  0  0  0  0
 16 20  1  0  0  0  0
 16 49  1  0  0  0  0
 18 21  1  0  0  0  0
 18 22  1  0  0  0  0
 18 51  1  0  0  0  0
 19 52  1  0  0  0  0
 19 53  1  0  0  0  0
 19 54  1  0  0  0  0
 20 55  1  0  0  0  0
 20 56  1  0  0  0  0
 20 57  1  0  0  0  0
 22 24  1  0  0  0  0
 22 58  1  0  0  0  0
 22 59  1  0  0  0  0
 23 25  1  0  0  0  0
 23 26  1  0  0  0  0
 23 61  1  0  0  0  0
 24 29  1  0  0  0  0
 24 63  1  0  0  0  0
 24 64  1  0  0  0  0
 25 65  1  0  0  0  0
 25 66  1  0  0  0  0
 27 30  1  0  0  0  0
 28 31  1  0  0  0  0
 28 68  1  0  0  0  0
 28 69  1  0  0  0  0
 30 32  2  0  0  0  0
 31 33  1  0  0  0  0
 31 70  1  0  0  0  0
 31 71  1  0  0  0  0
 32 34  1  0  0  0  0
 32 72  1  0  0  0  0
 33 36  2  0  0  0  0
 33 37  1  0  0  0  0
 34 35  1  0  0  0  0
 34 38  2  0  0  0  0
 35 39  2  0  0  0  0
 36 40  1  0  0  0  0
 36 74  1  0  0  0  0
 37 41  2  0  0  0  0
 37 75  1  0  0  0  0
 38 42  1  0  0  0  0
 38 76  1  0  0  0  0
 39 43  1  0  0  0  0
 39 78  1  0  0  0  0
 40 44  2  0  0  0  0
 40 79  1  0  0  0  0
 41 44  1  0  0  0  0
 41 80  1  0  0  0  0
 42 43  2  0  0  0  0
 42 81  1  0  0  0  0
 43 82  1  0  0  0  0
 45 83  1  0  0  0  0
 45 84  1  0  0  0  0
 45 85  1  0  0  0  0
M  END
> <PUBCHEM_COMPOUND_CID>
507504
> <PUBCHEM_COMPOUND_CANONICALIZED>
1
> <PUBCHEM_CACTVS_COMPLEXITY>
1010
> <PUBCHEM_CACTVS_HBOND_ACCEPTOR>
9
> <PUBCHEM_CACTVS_HBOND_DONOR>
6
> <PUBCHEM_CACTVS_ROTATABLE_BOND>
17
> <PUBCHEM_CACTVS_SUBSKEYS>
AAADcfB/uABgAAAAAAAAAAAAAAAAASAAAAAwYAAAAAAAAEgB9AAAHgQQCAAADSzF2AayD8LABgyMAiHSGACDCIAkKBBIiJmODMgMZjKktTuUcShk1hGoqYe834KOIAAAAAAEAABAAAAAAAgAAAAAAAAAAA==
> <PUBCHEM_IUPAC_OPENEYE_NAME>
(4S)-4-(benzothiophene-2-carbonylamino)-5-[[(1S)-1-[[(1R)-2-[2-(4-methoxyphenyl)ethylamino]-2-oxo-1-(sulfanylmethyl)ethyl]carbamoyl]-3-methyl-butyl]amino]-5-oxo-pentanoic acid
> <PUBCHEM_IUPAC_CAS_NAME>
(4S)-4-[[1-benzothiophen-2-yl(oxo)methyl]amino]-5-[[(2S)-1-[[(2R)-3-mercapto-1-[2-(4-methoxyphenyl)ethylamino]-1-oxopropan-2-yl]amino]-4-methyl-1-oxopentan-2-yl]amino]-5-oxopentanoic acid
> <PUBCHEM_IUPAC_NAME_MARKUP>
(4<I>S</I>)-4-(1-benzothiophene-2-carbonylamino)-5-[[(2<I>S</I>)-1-[[(2<I>R</I>)-1-[2-(4-methoxyphenyl)ethylamino]-1-oxo-3-sulfanylpropan-2-yl]amino]-4-methyl-1-oxopentan-2-yl]amino]-5-oxopentanoic acid
> <PUBCHEM_IUPAC_NAME>
(4S)-4-(1-benzothiophene-2-carbonylamino)-5-[[(2S)-1-[[(2R)-1-[2-(4-methoxyphenyl)ethylamino]-1-oxo-3-sulfanylpropan-2-yl]amino]-4-methyl-1-oxopentan-2-yl]amino]-5-oxopentanoic acid
> <PUBCHEM_IUPAC_SYSTEMATIC_NAME>
(4S)-4-(1-benzothiophen-2-ylcarbonylamino)-5-[[(2S)-1-[[(2R)-1-[2-(4-methoxyphenyl)ethylamino]-1-oxidanylidene-3-sulfanyl-propan-2-yl]amino]-4-methyl-1-oxidanylidene-pentan-2-yl]amino]-5-oxidanylidene-pentanoic acid
> <PUBCHEM_IUPAC_TRADITIONAL_NAME>
(4S)-4-(benzothiophene-2-carbonylamino)-5-keto-5-[[(1S)-1-[[(1R)-2-keto-1-(mercaptomethyl)-2-[2-(4-methoxyphenyl)ethylamino]ethyl]carbamoyl]-3-methyl-butyl]amino]valeric acid
> <PUBCHEM_IUPAC_INCHI>
InChI=1S/C32H40N4O7S2/c1-19(2)16-24(31(41)36-25(18-44)29(39)33-15-14-20-8-10-22(43-3)11-9-20)35-30(40)23(12-13-28(37)38)34-32(42)27-17-21-6-4-5-7-26(21)45-27/h4-11,17,19,23-25,44H,12-16,18H2,1-3H3,(H,33,39)(H,34,42)(H,35,40)(H,36,41)(H,37,38)/t23-,24-,25-/m0/s1
> <PUBCHEM_IUPAC_INCHIKEY>
LCLUTHGXSSVDCS-SDHOMARFSA-N
> <PUBCHEM_XLOGP3_AA>
4.4
> <PUBCHEM_EXACT_MASS>
656.23384197
> <PUBCHEM_MOLECULAR_FORMULA>
C32H40N4O7S2
> <PUBCHEM_MOLECULAR_WEIGHT>
656.8
> <PUBCHEM_OPENEYE_CAN_SMILES>
CC(C)CC(C(=O)NC(CS)C(=O)NCCC1=CC=C(C=C1)OC)NC(=O)C(CCC(=O)O)NC(=O)C2=CC3=CC=CC=C3S2
> <PUBCHEM_OPENEYE_ISO_SMILES>
CC(C)C[C@@H](C(=O)N[C@@H](CS)C(=O)NCCC1=CC=C(C=C1)OC)NC(=O)[C@H](CCC(=O)O)NC(=O)C2=CC3=CC=CC=C3S2
> <PUBCHEM_CACTVS_TPSA>
192
> <PUBCHEM_MONOISOTOPIC_WEIGHT>
656.23384197
> <PUBCHEM_TOTAL_CHARGE>
0
> <PUBCHEM_HEAVY_ATOM_COUNT>
45
> <PUBCHEM_ATOM_DEF_STEREO_COUNT>
3
> <PUBCHEM_ATOM_UDEF_STEREO_COUNT>
0
> <PUBCHEM_BOND_DEF_STEREO_COUNT>
0
> <PUBCHEM_BOND_UDEF_STEREO_COUNT>
0
> <PUBCHEM_ISOTOPIC_ATOM_COUNT>
0
> <PUBCHEM_COMPONENT_COUNT>
1
> <PUBCHEM_CACTVS_TAUTO_COUNT>
-1
> <PUBCHEM_COORDINATE_TYPE>
1
5
255
> <PUBCHEM_BONDANNOTATIONS>
15  10  6
23  11  6
18  12  5
2  30  8
2  35  8
30  32  8
32  34  8
33  36  8
33  37  8
34  35  8
34  38  8
35  39  8
36  40  8
37  41  8
38  42  8
39  43  8
40  44  8
41  44  8
42  43  8
$$$$
