507572
  -OEChem-10302200282D
 79 80  0     1  0  0  0  0  0999 V2000
    2.0000   -5.5000    0.0000 Cl  0  0  0  0  0  0  0  0  0  0  0  0
    9.0327    1.4945    0.0000 S   0  0  0  0  0  0  0  0  0  0  0  0
    4.5981    0.0000    0.0000 S   0  0  0  0  0  0  0  0  0  0  0  0
    5.4641    1.5000    0.0000 O   0  0  0  0  0  0  0  0  0  0  0  0
    5.4641    0.5000    0.0000 O   0  0  0  0  0  0  0  0  0  0  0  0
    4.5981    5.0000    0.0000 O   0  0  0  0  0  0  0  0  0  0  0  0
    6.3301   -3.0000    0.0000 O   0  0  0  0  0  0  0  0  0  0  0  0
    8.0622    6.0000    0.0000 O   0  0  0  0  0  0  0  0  0  0  0  0
    6.3301    5.0000    0.0000 O   0  0  0  0  0  0  0  0  0  0  0  0
    8.9282    4.5000    0.0000 O   0  0  0  0  0  0  0  0  0  0  0  0
    7.1962    1.5000    0.0000 N   0  0  0  0  0  0  0  0  0  0  0  0
    6.3301   -1.0000    0.0000 N   0  0  0  0  0  0  0  0  0  0  0  0
    5.4641    3.5000    0.0000 N   0  0  0  0  0  0  0  0  0  0  0  0
    4.5981   -3.0000    0.0000 N   0  0  0  0  0  0  0  0  0  0  0  0
    7.1962    0.5000    0.0000 C   0  0  1  0  0  0  0  0  0  0  0  0
    6.3301    3.0000    0.0000 C   0  0  1  0  0  0  0  0  0  0  0  0
    8.0622    0.0000    0.0000 C   0  0  0  0  0  0  0  0  0  0  0  0
    7.1962    3.5000    0.0000 C   0  0  0  0  0  0  0  0  0  0  0  0
    6.3301    2.0000    0.0000 C   0  0  0  0  0  0  0  0  0  0  0  0
    6.3301    0.0000    0.0000 C   0  0  0  0  0  0  0  0  0  0  0  0
    5.4641   -1.5000    0.0000 C   0  0  1  0  0  0  0  0  0  0  0  0
    7.1962    4.5000    0.0000 C   0  0  0  0  0  0  0  0  0  0  0  0
    8.9282    0.5000    0.0000 C   0  0  0  0  0  0  0  0  0  0  0  0
    4.5981   -1.0000    0.0000 C   0  0  0  0  0  0  0  0  0  0  0  0
    5.4641   -2.5000    0.0000 C   0  0  0  0  0  0  0  0  0  0  0  0
    9.8418    0.0933    0.0000 C   0  0  0  0  0  0  0  0  0  0  0  0
    4.5981   -4.0000    0.0000 C   0  0  0  0  0  0  0  0  0  0  0  0
    5.4641    4.5000    0.0000 C   0  0  0  0  0  0  0  0  0  0  0  0
    3.7320    6.5000    0.0000 C   0  0  0  0  0  0  0  0  0  0  0  0
    3.7320   -4.5000    0.0000 C   0  0  0  0  0  0  0  0  0  0  0  0
    4.5981    6.0000    0.0000 C   0  0  0  0  0  0  0  0  0  0  0  0
    8.0622    5.0000    0.0000 C   0  0  0  0  0  0  0  0  0  0  0  0
   10.5109    0.8364    0.0000 C   0  0  0  0  0  0  0  0  0  0  0  0
   10.0109    1.7024    0.0000 C   0  0  0  0  0  0  0  0  0  0  0  0
    3.7320   -5.5000    0.0000 C   0  0  0  0  0  0  0  0  0  0  0  0
    3.7320    7.5000    0.0000 C   0  0  0  0  0  0  0  0  0  0  0  0
    2.8660    6.0000    0.0000 C   0  0  0  0  0  0  0  0  0  0  0  0
    2.8660   -6.0000    0.0000 C   0  0  0  0  0  0  0  0  0  0  0  0
    4.5981   -6.0000    0.0000 C   0  0  0  0  0  0  0  0  0  0  0  0
    2.8660   -7.0000    0.0000 C   0  0  0  0  0  0  0  0  0  0  0  0
    4.5981   -7.0000    0.0000 C   0  0  0  0  0  0  0  0  0  0  0  0
    3.7320   -7.5000    0.0000 C   0  0  0  0  0  0  0  0  0  0  0  0
    6.6592    0.8100    0.0000 H   0  0  0  0  0  0  0  0  0  0  0  0
    5.7932    2.6900    0.0000 H   0  0  0  0  0  0  0  0  0  0  0  0
    7.6636   -0.4749    0.0000 H   0  0  0  0  0  0  0  0  0  0  0  0
    8.4607   -0.4749    0.0000 H   0  0  0  0  0  0  0  0  0  0  0  0
    7.4082    2.9174    0.0000 H   0  0  0  0  0  0  0  0  0  0  0  0
    7.8067    3.6077    0.0000 H   0  0  0  0  0  0  0  0  0  0  0  0
    7.7331    1.8100    0.0000 H   0  0  0  0  0  0  0  0  0  0  0  0
    5.4641   -0.8800    0.0000 H   0  0  0  0  0  0  0  0  0  0  0  0
    6.8671   -1.3100    0.0000 H   0  0  0  0  0  0  0  0  0  0  0  0
    6.9841    5.0826    0.0000 H   0  0  0  0  0  0  0  0  0  0  0  0
    6.5856    4.3923    0.0000 H   0  0  0  0  0  0  0  0  0  0  0  0
    4.9272    3.1900    0.0000 H   0  0  0  0  0  0  0  0  0  0  0  0
    3.9875   -0.8923    0.0000 H   0  0  0  0  0  0  0  0  0  0  0  0
    4.3860   -1.5826    0.0000 H   0  0  0  0  0  0  0  0  0  0  0  0
    9.9706   -0.5132    0.0000 H   0  0  0  0  0  0  0  0  0  0  0  0
    4.8101   -4.5826    0.0000 H   0  0  0  0  0  0  0  0  0  0  0  0
    5.2087   -3.8923    0.0000 H   0  0  0  0  0  0  0  0  0  0  0  0
    4.0611   -2.6900    0.0000 H   0  0  0  0  0  0  0  0  0  0  0  0
    3.7320    5.8800    0.0000 H   0  0  0  0  0  0  0  0  0  0  0  0
    3.5200   -3.9174    0.0000 H   0  0  0  0  0  0  0  0  0  0  0  0
    3.1215   -4.6077    0.0000 H   0  0  0  0  0  0  0  0  0  0  0  0
    5.2087    5.8923    0.0000 H   0  0  0  0  0  0  0  0  0  0  0  0
    4.8101    6.5826    0.0000 H   0  0  0  0  0  0  0  0  0  0  0  0
   11.1275    0.7716    0.0000 H   0  0  0  0  0  0  0  0  0  0  0  0
   10.2631    2.2688    0.0000 H   0  0  0  0  0  0  0  0  0  0  0  0
    4.3520    7.5000    0.0000 H   0  0  0  0  0  0  0  0  0  0  0  0
    3.7320    8.1200    0.0000 H   0  0  0  0  0  0  0  0  0  0  0  0
    3.1120    7.5000    0.0000 H   0  0  0  0  0  0  0  0  0  0  0  0
    2.5560    6.5369    0.0000 H   0  0  0  0  0  0  0  0  0  0  0  0
    2.3291    5.6900    0.0000 H   0  0  0  0  0  0  0  0  0  0  0  0
    3.1760    5.4631    0.0000 H   0  0  0  0  0  0  0  0  0  0  0  0
    4.0611    0.3100    0.0000 H   0  0  0  0  0  0  0  0  0  0  0  0
    5.1350   -5.6900    0.0000 H   0  0  0  0  0  0  0  0  0  0  0  0
    8.5991    6.3100    0.0000 H   0  0  0  0  0  0  0  0  0  0  0  0
    2.3291   -7.3100    0.0000 H   0  0  0  0  0  0  0  0  0  0  0  0
    5.1350   -7.3100    0.0000 H   0  0  0  0  0  0  0  0  0  0  0  0
    3.7320   -8.1200    0.0000 H   0  0  0  0  0  0  0  0  0  0  0  0
  1 38  1  0  0  0  0
  2 23  1  0  0  0  0
  2 34  1  0  0  0  0
  3 24  1  0  0  0  0
  3 74  1  0  0  0  0
  4 19  2  0  0  0  0
  5 20  2  0  0  0  0
  6 28  1  0  0  0  0
  6 31  1  0  0  0  0
  7 25  2  0  0  0  0
  8 32  1  0  0  0  0
  8 76  1  0  0  0  0
  9 28  2  0  0  0  0
 10 32  2  0  0  0  0
 15 11  1  1  0  0  0
 11 19  1  0  0  0  0
 11 49  1  0  0  0  0
 12 20  1  0  0  0  0
 21 12  1  6  0  0  0
 12 51  1  0  0  0  0
 16 13  1  1  0  0  0
 13 28  1  0  0  0  0
 13 54  1  0  0  0  0
 14 25  1  0  0  0  0
 14 27  1  0  0  0  0
 14 60  1  0  0  0  0
 15 17  1  0  0  0  0
 15 20  1  0  0  0  0
 15 43  1  0  0  0  0
 16 18  1  0  0  0  0
 16 19  1  0  0  0  0
 16 44  1  0  0  0  0
 17 23  1  0  0  0  0
 17 45  1  0  0  0  0
 17 46  1  0  0  0  0
 18 22  1  0  0  0  0
 18 47  1  0  0  0  0
 18 48  1  0  0  0  0
 21 24  1  0  0  0  0
 21 25  1  0  0  0  0
 21 50  1  0  0  0  0
 22 32  1  0  0  0  0
 22 52  1  0  0  0  0
 22 53  1  0  0  0  0
 23 26  2  0  0  0  0
 24 55  1  0  0  0  0
 24 56  1  0  0  0  0
 26 33  1  0  0  0  0
 26 57  1  0  0  0  0
 27 30  1  0  0  0  0
 27 58  1  0  0  0  0
 27 59  1  0  0  0  0
 29 31  1  0  0  0  0
 29 36  1  0  0  0  0
 29 37  1  0  0  0  0
 29 61  1  0  0  0  0
 30 35  1  0  0  0  0
 30 62  1  0  0  0  0
 30 63  1  0  0  0  0
 31 64  1  0  0  0  0
 31 65  1  0  0  0  0
 33 34  2  0  0  0  0
 33 66  1  0  0  0  0
 34 67  1  0  0  0  0
 35 38  1  0  0  0  0
 35 39  2  0  0  0  0
 36 68  1  0  0  0  0
 36 69  1  0  0  0  0
 36 70  1  0  0  0  0
 37 71  1  0  0  0  0
 37 72  1  0  0  0  0
 37 73  1  0  0  0  0
 38 40  2  0  0  0  0
 39 41  1  0  0  0  0
 39 75  1  0  0  0  0
 40 42  1  0  0  0  0
 40 77  1  0  0  0  0
 41 42  2  0  0  0  0
 41 78  1  0  0  0  0
 42 79  1  0  0  0  0
M  END
> <PUBCHEM_COMPOUND_CID>
507572
> <PUBCHEM_COMPOUND_CANONICALIZED>
1
> <PUBCHEM_CACTVS_COMPLEXITY>
914
> <PUBCHEM_CACTVS_HBOND_ACCEPTOR>
9
> <PUBCHEM_CACTVS_HBOND_DONOR>
6
> <PUBCHEM_CACTVS_ROTATABLE_BOND>
18
> <PUBCHEM_CACTVS_SUBSKEYS>
AAADcfB7uABkAAAAAAAAAAAAAAAAASAAAAAwAAAAAAAAAAABwAAAHgYQCAAADSrl2CayCYLABgyMAiHSGAADAIAgDRBIiJmIAokIYDKhkzGcYAAklgCoiAe8n4KOAAAAAAABAAAAAAAAAAIAAAAAAAAAAA==
> <PUBCHEM_IUPAC_OPENEYE_NAME>
(4S)-5-[[(1S)-2-[[(1R)-2-[2-(2-chlorophenyl)ethylamino]-2-oxo-1-(sulfanylmethyl)ethyl]amino]-2-oxo-1-(2-thienylmethyl)ethyl]amino]-4-(isobutoxycarbonylamino)-5-oxo-pentanoic acid
> <PUBCHEM_IUPAC_CAS_NAME>
(4S)-5-[[(2S)-1-[[(2R)-1-[2-(2-chlorophenyl)ethylamino]-3-mercapto-1-oxopropan-2-yl]amino]-1-oxo-3-thiophen-2-ylpropan-2-yl]amino]-4-[[2-methylpropoxy(oxo)methyl]amino]-5-oxopentanoic acid
> <PUBCHEM_IUPAC_NAME_MARKUP>
(4<I>S</I>)-5-[[(2<I>S</I>)-1-[[(2<I>R</I>)-1-[2-(2-chlorophenyl)ethylamino]-1-oxo-3-sulfanylpropan-2-yl]amino]-1-oxo-3-thiophen-2-ylpropan-2-yl]amino]-4-(2-methylpropoxycarbonylamino)-5-oxopentanoic acid
> <PUBCHEM_IUPAC_NAME>
(4S)-5-[[(2S)-1-[[(2R)-1-[2-(2-chlorophenyl)ethylamino]-1-oxo-3-sulfanylpropan-2-yl]amino]-1-oxo-3-thiophen-2-ylpropan-2-yl]amino]-4-(2-methylpropoxycarbonylamino)-5-oxopentanoic acid
> <PUBCHEM_IUPAC_SYSTEMATIC_NAME>
(4S)-5-[[(2S)-1-[[(2R)-1-[2-(2-chlorophenyl)ethylamino]-1-oxidanylidene-3-sulfanyl-propan-2-yl]amino]-1-oxidanylidene-3-thiophen-2-yl-propan-2-yl]amino]-4-(2-methylpropoxycarbonylamino)-5-oxidanylidene-pentanoic acid
> <PUBCHEM_IUPAC_TRADITIONAL_NAME>
(4S)-5-[[(1S)-2-[[(1R)-2-[2-(2-chlorophenyl)ethylamino]-2-keto-1-(mercaptomethyl)ethyl]amino]-2-keto-1-(2-thenyl)ethyl]amino]-4-(isobutoxycarbonylamino)-5-keto-valeric acid
> <PUBCHEM_IUPAC_INCHI>
InChI=1S/C28H37ClN4O7S2/c1-17(2)15-40-28(39)33-21(9-10-24(34)35)26(37)31-22(14-19-7-5-13-42-19)27(38)32-23(16-41)25(36)30-12-11-18-6-3-4-8-20(18)29/h3-8,13,17,21-23,41H,9-12,14-16H2,1-2H3,(H,30,36)(H,31,37)(H,32,38)(H,33,39)(H,34,35)/t21-,22-,23-/m0/s1
> <PUBCHEM_IUPAC_INCHIKEY>
PFFOWIUFOJBAQK-VABKMULXSA-N
> <PUBCHEM_XLOGP3_AA>
3.8
> <PUBCHEM_EXACT_MASS>
640.1792196
> <PUBCHEM_MOLECULAR_FORMULA>
C28H37ClN4O7S2
> <PUBCHEM_MOLECULAR_WEIGHT>
641.2
> <PUBCHEM_OPENEYE_CAN_SMILES>
CC(C)COC(=O)NC(CCC(=O)O)C(=O)NC(CC1=CC=CS1)C(=O)NC(CS)C(=O)NCCC2=CC=CC=C2Cl
> <PUBCHEM_OPENEYE_ISO_SMILES>
CC(C)COC(=O)N[C@@H](CCC(=O)O)C(=O)N[C@@H](CC1=CC=CS1)C(=O)N[C@@H](CS)C(=O)NCCC2=CC=CC=C2Cl
> <PUBCHEM_CACTVS_TPSA>
192
> <PUBCHEM_MONOISOTOPIC_WEIGHT>
640.1792196
> <PUBCHEM_TOTAL_CHARGE>
0
> <PUBCHEM_HEAVY_ATOM_COUNT>
42
> <PUBCHEM_ATOM_DEF_STEREO_COUNT>
3
> <PUBCHEM_ATOM_UDEF_STEREO_COUNT>
0
> <PUBCHEM_BOND_DEF_STEREO_COUNT>
0
> <PUBCHEM_BOND_UDEF_STEREO_COUNT>
0
> <PUBCHEM_ISOTOPIC_ATOM_COUNT>
0
> <PUBCHEM_COMPONENT_COUNT>
1
> <PUBCHEM_CACTVS_TAUTO_COUNT>
-1
> <PUBCHEM_COORDINATE_TYPE>
1
5
255
> <PUBCHEM_BONDANNOTATIONS>
15  11  5
21  12  6
16  13  5
2  23  8
2  34  8
23  26  8
26  33  8
33  34  8
35  38  8
35  39  8
38  40  8
39  41  8
40  42  8
41  42  8
$$$$
