507513
  -OEChem-10302200282D
 78 79  0     1  0  0  0  0  0999 V2000
    2.0000   -5.5194    0.0000 Cl  0  0  0  0  0  0  0  0  0  0  0  0
    4.5981   -0.0194    0.0000 S   0  0  0  0  0  0  0  0  0  0  0  0
    5.0981    7.5194    0.0000 S   0  0  0  0  0  0  0  0  0  0  0  0
    5.4641    0.4806    0.0000 O   0  0  0  0  0  0  0  0  0  0  0  0
    5.4641    1.4806    0.0000 O   0  0  0  0  0  0  0  0  0  0  0  0
    6.3301   -3.0194    0.0000 O   0  0  0  0  0  0  0  0  0  0  0  0
    6.3301    4.9806    0.0000 O   0  0  0  0  0  0  0  0  0  0  0  0
    8.0622    5.9806    0.0000 O   0  0  0  0  0  0  0  0  0  0  0  0
    8.9282    4.4806    0.0000 O   0  0  0  0  0  0  0  0  0  0  0  0
    7.1962    1.4806    0.0000 N   0  0  0  0  0  0  0  0  0  0  0  0
    6.3301   -1.0194    0.0000 N   0  0  0  0  0  0  0  0  0  0  0  0
    5.4641    3.4806    0.0000 N   0  0  0  0  0  0  0  0  0  0  0  0
    4.5981   -3.0194    0.0000 N   0  0  0  0  0  0  0  0  0  0  0  0
    7.1962    0.4806    0.0000 C   0  0  1  0  0  0  0  0  0  0  0  0
    8.0622   -0.0194    0.0000 C   0  0  0  0  0  0  0  0  0  0  0  0
    8.9282    0.4806    0.0000 C   0  0  0  0  0  0  0  0  0  0  0  0
    6.3301    2.9806    0.0000 C   0  0  2  0  0  0  0  0  0  0  0  0
    6.3301   -0.0194    0.0000 C   0  0  0  0  0  0  0  0  0  0  0  0
    9.7942   -0.0194    0.0000 C   0  0  0  0  0  0  0  0  0  0  0  0
    8.9282    1.4806    0.0000 C   0  0  0  0  0  0  0  0  0  0  0  0
    6.3301    1.9806    0.0000 C   0  0  0  0  0  0  0  0  0  0  0  0
    7.1962    3.4806    0.0000 C   0  0  0  0  0  0  0  0  0  0  0  0
    5.4641   -1.5194    0.0000 C   0  0  1  0  0  0  0  0  0  0  0  0
    7.1962    4.4806    0.0000 C   0  0  0  0  0  0  0  0  0  0  0  0
    4.5981   -1.0194    0.0000 C   0  0  0  0  0  0  0  0  0  0  0  0
    5.4641   -2.5194    0.0000 C   0  0  0  0  0  0  0  0  0  0  0  0
    5.4641    4.4806    0.0000 C   0  0  0  0  0  0  0  0  0  0  0  0
    4.5981   -4.0194    0.0000 C   0  0  0  0  0  0  0  0  0  0  0  0
    4.5981    4.9806    0.0000 C   0  0  0  0  0  0  0  0  0  0  0  0
    8.0622    4.9806    0.0000 C   0  0  0  0  0  0  0  0  0  0  0  0
    3.7320   -4.5194    0.0000 C   0  0  0  0  0  0  0  0  0  0  0  0
    4.5981    5.9806    0.0000 C   0  0  0  0  0  0  0  0  0  0  0  0
    3.7320   -5.5194    0.0000 C   0  0  0  0  0  0  0  0  0  0  0  0
    3.7891    6.5684    0.0000 C   0  0  0  0  0  0  0  0  0  0  0  0
    5.4071    6.5684    0.0000 C   0  0  0  0  0  0  0  0  0  0  0  0
    2.8660   -6.0194    0.0000 C   0  0  0  0  0  0  0  0  0  0  0  0
    4.5981   -6.0194    0.0000 C   0  0  0  0  0  0  0  0  0  0  0  0
    4.0981    7.5194    0.0000 C   0  0  0  0  0  0  0  0  0  0  0  0
    2.8660   -7.0194    0.0000 C   0  0  0  0  0  0  0  0  0  0  0  0
    4.5981   -7.0194    0.0000 C   0  0  0  0  0  0  0  0  0  0  0  0
    3.7320   -7.5194    0.0000 C   0  0  0  0  0  0  0  0  0  0  0  0
    6.6592    0.7906    0.0000 H   0  0  0  0  0  0  0  0  0  0  0  0
    7.6636   -0.4944    0.0000 H   0  0  0  0  0  0  0  0  0  0  0  0
    8.4607   -0.4944    0.0000 H   0  0  0  0  0  0  0  0  0  0  0  0
    9.4651    0.7906    0.0000 H   0  0  0  0  0  0  0  0  0  0  0  0
    7.7331    1.7906    0.0000 H   0  0  0  0  0  0  0  0  0  0  0  0
    5.7932    2.6706    0.0000 H   0  0  0  0  0  0  0  0  0  0  0  0
    9.4842   -0.5564    0.0000 H   0  0  0  0  0  0  0  0  0  0  0  0
   10.3312   -0.3294    0.0000 H   0  0  0  0  0  0  0  0  0  0  0  0
   10.1042    0.5175    0.0000 H   0  0  0  0  0  0  0  0  0  0  0  0
    9.5482    1.4806    0.0000 H   0  0  0  0  0  0  0  0  0  0  0  0
    8.9282    2.1006    0.0000 H   0  0  0  0  0  0  0  0  0  0  0  0
    8.3082    1.4806    0.0000 H   0  0  0  0  0  0  0  0  0  0  0  0
    7.4082    2.8980    0.0000 H   0  0  0  0  0  0  0  0  0  0  0  0
    7.8067    3.5882    0.0000 H   0  0  0  0  0  0  0  0  0  0  0  0
    6.8671   -1.3294    0.0000 H   0  0  0  0  0  0  0  0  0  0  0  0
    5.4641   -0.8994    0.0000 H   0  0  0  0  0  0  0  0  0  0  0  0
    4.9272    3.1706    0.0000 H   0  0  0  0  0  0  0  0  0  0  0  0
    6.9841    5.0632    0.0000 H   0  0  0  0  0  0  0  0  0  0  0  0
    6.5856    4.3729    0.0000 H   0  0  0  0  0  0  0  0  0  0  0  0
    3.9875   -0.9118    0.0000 H   0  0  0  0  0  0  0  0  0  0  0  0
    4.3860   -1.6020    0.0000 H   0  0  0  0  0  0  0  0  0  0  0  0
    4.0611   -2.7094    0.0000 H   0  0  0  0  0  0  0  0  0  0  0  0
    4.8101   -4.6020    0.0000 H   0  0  0  0  0  0  0  0  0  0  0  0
    5.2087   -3.9118    0.0000 H   0  0  0  0  0  0  0  0  0  0  0  0
    3.9875    5.0882    0.0000 H   0  0  0  0  0  0  0  0  0  0  0  0
    4.3860    4.3980    0.0000 H   0  0  0  0  0  0  0  0  0  0  0  0
    3.5200   -3.9368    0.0000 H   0  0  0  0  0  0  0  0  0  0  0  0
    3.1215   -4.6271    0.0000 H   0  0  0  0  0  0  0  0  0  0  0  0
    4.0611    0.2906    0.0000 H   0  0  0  0  0  0  0  0  0  0  0  0
    3.1994    6.3768    0.0000 H   0  0  0  0  0  0  0  0  0  0  0  0
    5.9967    6.3768    0.0000 H   0  0  0  0  0  0  0  0  0  0  0  0
    5.1350   -5.7094    0.0000 H   0  0  0  0  0  0  0  0  0  0  0  0
    8.5991    6.2906    0.0000 H   0  0  0  0  0  0  0  0  0  0  0  0
    3.7336    8.0210    0.0000 H   0  0  0  0  0  0  0  0  0  0  0  0
    2.3291   -7.3294    0.0000 H   0  0  0  0  0  0  0  0  0  0  0  0
    5.1350   -7.3294    0.0000 H   0  0  0  0  0  0  0  0  0  0  0  0
    3.7320   -8.1394    0.0000 H   0  0  0  0  0  0  0  0  0  0  0  0
  1 36  1  0  0  0  0
  2 25  1  0  0  0  0
  2 70  1  0  0  0  0
  3 35  1  0  0  0  0
  3 38  1  0  0  0  0
  4 18  2  0  0  0  0
  5 21  2  0  0  0  0
  6 26  2  0  0  0  0
  7 27  2  0  0  0  0
  8 30  1  0  0  0  0
  8 74  1  0  0  0  0
  9 30  2  0  0  0  0
 14 10  1  1  0  0  0
 10 21  1  0  0  0  0
 10 46  1  0  0  0  0
 11 18  1  0  0  0  0
 23 11  1  6  0  0  0
 11 56  1  0  0  0  0
 17 12  1  1  0  0  0
 12 27  1  0  0  0  0
 12 58  1  0  0  0  0
 13 26  1  0  0  0  0
 13 28  1  0  0  0  0
 13 63  1  0  0  0  0
 14 15  1  0  0  0  0
 14 18  1  0  0  0  0
 14 42  1  0  0  0  0
 15 16  1  0  0  0  0
 15 43  1  0  0  0  0
 15 44  1  0  0  0  0
 16 19  1  0  0  0  0
 16 20  1  0  0  0  0
 16 45  1  0  0  0  0
 17 21  1  0  0  0  0
 17 22  1  0  0  0  0
 17 47  1  0  0  0  0
 19 48  1  0  0  0  0
 19 49  1  0  0  0  0
 19 50  1  0  0  0  0
 20 51  1  0  0  0  0
 20 52  1  0  0  0  0
 20 53  1  0  0  0  0
 22 24  1  0  0  0  0
 22 54  1  0  0  0  0
 22 55  1  0  0  0  0
 23 25  1  0  0  0  0
 23 26  1  0  0  0  0
 23 57  1  0  0  0  0
 24 30  1  0  0  0  0
 24 59  1  0  0  0  0
 24 60  1  0  0  0  0
 25 61  1  0  0  0  0
 25 62  1  0  0  0  0
 27 29  1  0  0  0  0
 28 31  1  0  0  0  0
 28 64  1  0  0  0  0
 28 65  1  0  0  0  0
 29 32  1  0  0  0  0
 29 66  1  0  0  0  0
 29 67  1  0  0  0  0
 31 33  1  0  0  0  0
 31 68  1  0  0  0  0
 31 69  1  0  0  0  0
 32 34  1  0  0  0  0
 32 35  2  0  0  0  0
 33 36  1  0  0  0  0
 33 37  2  0  0  0  0
 34 38  2  0  0  0  0
 34 71  1  0  0  0  0
 35 72  1  0  0  0  0
 36 39  2  0  0  0  0
 37 40  1  0  0  0  0
 37 73  1  0  0  0  0
 38 75  1  0  0  0  0
 39 41  1  0  0  0  0
 39 76  1  0  0  0  0
 40 41  2  0  0  0  0
 40 77  1  0  0  0  0
 41 78  1  0  0  0  0
M  END
> <PUBCHEM_COMPOUND_CID>
507513
> <PUBCHEM_COMPOUND_CANONICALIZED>
1
> <PUBCHEM_CACTVS_COMPLEXITY>
896
> <PUBCHEM_CACTVS_HBOND_ACCEPTOR>
8
> <PUBCHEM_CACTVS_HBOND_DONOR>
6
> <PUBCHEM_CACTVS_ROTATABLE_BOND>
17
> <PUBCHEM_CACTVS_SUBSKEYS>
AAADcfB7uABkAAAAAAAAAAAAAAAAASAAAAAwAAAAAAAAAAABwAAAHgYQCAAADSrF2CSyCYLAAgyMAiHSGAADAIAgDRBIiJmIAogIYDKhlzGUYAAklgCoiAe8l4IOAAAAAAABAAAAAAAAAAIAAAAAAAAAAA==
> <PUBCHEM_IUPAC_OPENEYE_NAME>
(4S)-5-[[(1S)-1-[[(1R)-2-[2-(2-chlorophenyl)ethylamino]-2-oxo-1-(sulfanylmethyl)ethyl]carbamoyl]-3-methyl-butyl]amino]-5-oxo-4-[[2-(3-thienyl)acetyl]amino]pentanoic acid
> <PUBCHEM_IUPAC_CAS_NAME>
(4S)-5-[[(2S)-1-[[(2R)-1-[2-(2-chlorophenyl)ethylamino]-3-mercapto-1-oxopropan-2-yl]amino]-4-methyl-1-oxopentan-2-yl]amino]-5-oxo-4-[[1-oxo-2-(3-thiophenyl)ethyl]amino]pentanoic acid
> <PUBCHEM_IUPAC_NAME_MARKUP>
(4<I>S</I>)-5-[[(2<I>S</I>)-1-[[(2<I>R</I>)-1-[2-(2-chlorophenyl)ethylamino]-1-oxo-3-sulfanylpropan-2-yl]amino]-4-methyl-1-oxopentan-2-yl]amino]-5-oxo-4-[(2-thiophen-3-ylacetyl)amino]pentanoic acid
> <PUBCHEM_IUPAC_NAME>
(4S)-5-[[(2S)-1-[[(2R)-1-[2-(2-chlorophenyl)ethylamino]-1-oxo-3-sulfanylpropan-2-yl]amino]-4-methyl-1-oxopentan-2-yl]amino]-5-oxo-4-[(2-thiophen-3-ylacetyl)amino]pentanoic acid
> <PUBCHEM_IUPAC_SYSTEMATIC_NAME>
(4S)-5-[[(2S)-1-[[(2R)-1-[2-(2-chlorophenyl)ethylamino]-1-oxidanylidene-3-sulfanyl-propan-2-yl]amino]-4-methyl-1-oxidanylidene-pentan-2-yl]amino]-5-oxidanylidene-4-(2-thiophen-3-ylethanoylamino)pentanoic acid
> <PUBCHEM_IUPAC_TRADITIONAL_NAME>
(4S)-5-[[(1S)-1-[[(1R)-2-[2-(2-chlorophenyl)ethylamino]-2-keto-1-(mercaptomethyl)ethyl]carbamoyl]-3-methyl-butyl]amino]-5-keto-4-[[2-(3-thienyl)acetyl]amino]valeric acid
> <PUBCHEM_IUPAC_INCHI>
InChI=1S/C28H37ClN4O6S2/c1-17(2)13-22(28(39)33-23(15-40)26(37)30-11-9-19-5-3-4-6-20(19)29)32-27(38)21(7-8-25(35)36)31-24(34)14-18-10-12-41-16-18/h3-6,10,12,16-17,21-23,40H,7-9,11,13-15H2,1-2H3,(H,30,37)(H,31,34)(H,32,38)(H,33,39)(H,35,36)/t21-,22-,23-/m0/s1
> <PUBCHEM_IUPAC_INCHIKEY>
OFSYKSRUCMVRHP-VABKMULXSA-N
> <PUBCHEM_XLOGP3_AA>
3.4
> <PUBCHEM_EXACT_MASS>
624.1843050
> <PUBCHEM_MOLECULAR_FORMULA>
C28H37ClN4O6S2
> <PUBCHEM_MOLECULAR_WEIGHT>
625.2
> <PUBCHEM_OPENEYE_CAN_SMILES>
CC(C)CC(C(=O)NC(CS)C(=O)NCCC1=CC=CC=C1Cl)NC(=O)C(CCC(=O)O)NC(=O)CC2=CSC=C2
> <PUBCHEM_OPENEYE_ISO_SMILES>
CC(C)C[C@@H](C(=O)N[C@@H](CS)C(=O)NCCC1=CC=CC=C1Cl)NC(=O)[C@H](CCC(=O)O)NC(=O)CC2=CSC=C2
> <PUBCHEM_CACTVS_TPSA>
183
> <PUBCHEM_MONOISOTOPIC_WEIGHT>
624.1843050
> <PUBCHEM_TOTAL_CHARGE>
0
> <PUBCHEM_HEAVY_ATOM_COUNT>
41
> <PUBCHEM_ATOM_DEF_STEREO_COUNT>
3
> <PUBCHEM_ATOM_UDEF_STEREO_COUNT>
0
> <PUBCHEM_BOND_DEF_STEREO_COUNT>
0
> <PUBCHEM_BOND_UDEF_STEREO_COUNT>
0
> <PUBCHEM_ISOTOPIC_ATOM_COUNT>
0
> <PUBCHEM_COMPONENT_COUNT>
1
> <PUBCHEM_CACTVS_TAUTO_COUNT>
-1
> <PUBCHEM_COORDINATE_TYPE>
1
5
255
> <PUBCHEM_BONDANNOTATIONS>
14  10  5
23  11  6
17  12  5
3  35  8
3  38  8
32  34  8
32  35  8
33  36  8
33  37  8
34  38  8
36  39  8
37  40  8
39  41  8
40  41  8
$$$$
