507562
  -OEChem-10302200282D
145148  0     1  0  0  0  0  0999 V2000
    6.0010   -1.7500    0.0000 S   0  0  0  0  0  0  0  0  0  0  0  0
    6.8671   -1.2500    0.0000 O   0  0  0  0  0  0  0  0  0  0  0  0
    6.8671   -0.2500    0.0000 O   0  0  0  0  0  0  0  0  0  0  0  0
    7.7331    3.2500    0.0000 O   0  0  0  0  0  0  0  0  0  0  0  0
    7.7331   -4.7500    0.0000 O   0  0  0  0  0  0  0  0  0  0  0  0
    9.4651    4.2500    0.0000 O   0  0  0  0  0  0  0  0  0  0  0  0
   10.3312    2.7500    0.0000 O   0  0  0  0  0  0  0  0  0  0  0  0
    7.7331    4.2500    0.0000 O   0  0  0  0  0  0  0  0  0  0  0  0
    6.8671    7.7500    0.0000 O   0  0  0  0  0  0  0  0  0  0  0  0
    3.4030   -7.2500    0.0000 O   0  0  0  0  0  0  0  0  0  0  0  0
    8.5991    8.7500    0.0000 O   0  0  0  0  0  0  0  0  0  0  0  0
    9.4651    7.2500    0.0000 O   0  0  0  0  0  0  0  0  0  0  0  0
    6.8671   -9.2500    0.0000 O   0  0  0  0  0  0  0  0  0  0  0  0
    2.5369    7.2500    0.0000 O   0  0  0  0  0  0  0  0  0  0  0  0
    3.4030    8.7500    0.0000 O   0  0  0  0  0  0  0  0  0  0  0  0
    6.8671    8.7500    0.0000 O   0  0  0  0  0  0  0  0  0  0  0  0
    8.5991   -0.2500    0.0000 N   0  0  0  0  0  0  0  0  0  0  0  0
    7.7331   -2.7500    0.0000 N   0  0  0  0  0  0  0  0  0  0  0  0
    6.8671    1.7500    0.0000 N   0  0  0  0  0  0  0  0  0  0  0  0
    6.0010    4.2500    0.0000 N   0  0  0  0  0  0  0  0  0  0  0  0
    6.0010   -4.7500    0.0000 N   0  0  0  0  0  0  0  0  0  0  0  0
    6.0010    6.2500    0.0000 N   0  0  0  0  0  0  0  0  0  0  0  0
    5.1350    8.7500    0.0000 N   0  0  0  0  0  0  0  0  0  0  0  0
   10.3312   -1.2500    0.0000 C   0  0  0  0  0  0  0  0  0  0  0  0
   11.1972   -1.7500    0.0000 C   0  0  0  0  0  0  0  0  0  0  0  0
   10.3312   -0.2500    0.0000 C   0  0  0  0  0  0  0  0  0  0  0  0
   12.0632   -1.2500    0.0000 C   0  0  0  0  0  0  0  0  0  0  0  0
   11.1972    0.2500    0.0000 C   0  0  0  0  0  0  0  0  0  0  0  0
    9.4651   -1.7500    0.0000 C   0  0  0  0  0  0  0  0  0  0  0  0
   12.0632   -0.2500    0.0000 C   0  0  0  0  0  0  0  0  0  0  0  0
    8.5991   -1.2500    0.0000 C   0  0  1  0  0  0  0  0  0  0  0  0
    7.7331   -1.7500    0.0000 C   0  0  0  0  0  0  0  0  0  0  0  0
    7.7331    0.2500    0.0000 C   0  0  0  0  0  0  0  0  0  0  0  0
    7.7331    1.2500    0.0000 C   0  0  2  0  0  0  0  0  0  0  0  0
    6.8671   -3.2500    0.0000 C   0  0  1  0  0  0  0  0  0  0  0  0
    8.5991    1.7500    0.0000 C   0  0  0  0  0  0  0  0  0  0  0  0
    6.0010   -2.7500    0.0000 C   0  0  0  0  0  0  0  0  0  0  0  0
    6.0010    3.2500    0.0000 C   0  0  2  0  0  0  0  0  0  0  0  0
    8.5991    2.7500    0.0000 C   0  0  0  0  0  0  0  0  0  0  0  0
    6.8671    2.7500    0.0000 C   0  0  0  0  0  0  0  0  0  0  0  0
    6.8671   -4.2500    0.0000 C   0  0  0  0  0  0  0  0  0  0  0  0
    5.1350    2.7500    0.0000 C   0  0  0  0  0  0  0  0  0  0  0  0
    4.2690    3.2500    0.0000 C   0  0  0  0  0  0  0  0  0  0  0  0
    4.6351    1.8839    0.0000 C   0  0  0  0  0  0  0  0  0  0  0  0
    9.4651    3.2500    0.0000 C   0  0  0  0  0  0  0  0  0  0  0  0
    6.8671    4.7500    0.0000 C   0  0  0  0  0  0  0  0  0  0  0  0
    6.0010   -5.7500    0.0000 C   0  0  0  0  0  0  0  0  0  0  0  0
    6.8671    5.7500    0.0000 C   0  0  2  0  0  0  0  0  0  0  0  0
    4.2690    4.2500    0.0000 C   0  0  0  0  0  0  0  0  0  0  0  0
    3.6350    1.8839    0.0000 C   0  0  0  0  0  0  0  0  0  0  0  0
    3.4030    2.7500    0.0000 C   0  0  0  0  0  0  0  0  0  0  0  0
    5.1350    1.0180    0.0000 C   0  0  0  0  0  0  0  0  0  0  0  0
    7.7331    6.2500    0.0000 C   0  0  0  0  0  0  0  0  0  0  0  0
    5.1350   -6.2500    0.0000 C   0  0  0  0  0  0  0  0  0  0  0  0
    3.4030    4.7500    0.0000 C   0  0  0  0  0  0  0  0  0  0  0  0
    3.1350    1.0179    0.0000 C   0  0  0  0  0  0  0  0  0  0  0  0
    2.5369    3.2500    0.0000 C   0  0  0  0  0  0  0  0  0  0  0  0
    4.6350    0.1519    0.0000 C   0  0  0  0  0  0  0  0  0  0  0  0
    7.7331    7.2500    0.0000 C   0  0  0  0  0  0  0  0  0  0  0  0
    2.5369    4.2500    0.0000 C   0  0  0  0  0  0  0  0  0  0  0  0
    3.6351    0.1519    0.0000 C   0  0  0  0  0  0  0  0  0  0  0  0
    5.1350   -7.2500    0.0000 C   0  0  0  0  0  0  0  0  0  0  0  0
    6.0010    7.2500    0.0000 C   0  0  0  0  0  0  0  0  0  0  0  0
    5.1350    7.7500    0.0000 C   0  0  2  0  0  0  0  0  0  0  0  0
    8.5991    7.7500    0.0000 C   0  0  0  0  0  0  0  0  0  0  0  0
    4.2690   -7.7500    0.0000 C   0  0  0  0  0  0  0  0  0  0  0  0
    6.0010   -7.7500    0.0000 C   0  0  0  0  0  0  0  0  0  0  0  0
    4.2690    7.2500    0.0000 C   0  0  0  0  0  0  0  0  0  0  0  0
    6.0010   -8.7500    0.0000 C   0  0  0  0  0  0  0  0  0  0  0  0
    4.2690   -8.7500    0.0000 C   0  0  0  0  0  0  0  0  0  0  0  0
    5.1350   -9.2500    0.0000 C   0  0  0  0  0  0  0  0  0  0  0  0
    3.4030    7.7500    0.0000 C   0  0  0  0  0  0  0  0  0  0  0  0
    6.0010    9.2500    0.0000 C   0  0  0  0  0  0  0  0  0  0  0  0
    6.0010   10.2500    0.0000 C   0  0  0  0  0  0  0  0  0  0  0  0
    2.5369   -7.7500    0.0000 C   0  0  0  0  0  0  0  0  0  0  0  0
    6.8671  -10.2500    0.0000 C   0  0  0  0  0  0  0  0  0  0  0  0
    9.7942   -0.9400    0.0000 H   0  0  0  0  0  0  0  0  0  0  0  0
   10.7987   -2.2250    0.0000 H   0  0  0  0  0  0  0  0  0  0  0  0
   11.5957   -2.2250    0.0000 H   0  0  0  0  0  0  0  0  0  0  0  0
   10.1191    0.3326    0.0000 H   0  0  0  0  0  0  0  0  0  0  0  0
    9.7206   -0.3577    0.0000 H   0  0  0  0  0  0  0  0  0  0  0  0
   12.2753   -1.8326    0.0000 H   0  0  0  0  0  0  0  0  0  0  0  0
   12.6738   -1.1423    0.0000 H   0  0  0  0  0  0  0  0  0  0  0  0
   11.5957    0.7249    0.0000 H   0  0  0  0  0  0  0  0  0  0  0  0
   10.7987    0.7249    0.0000 H   0  0  0  0  0  0  0  0  0  0  0  0
    9.0666   -2.2250    0.0000 H   0  0  0  0  0  0  0  0  0  0  0  0
    9.8637   -2.2250    0.0000 H   0  0  0  0  0  0  0  0  0  0  0  0
   12.6738   -0.3577    0.0000 H   0  0  0  0  0  0  0  0  0  0  0  0
   12.2753    0.3326    0.0000 H   0  0  0  0  0  0  0  0  0  0  0  0
    8.0622   -0.9400    0.0000 H   0  0  0  0  0  0  0  0  0  0  0  0
    9.1360    0.0600    0.0000 H   0  0  0  0  0  0  0  0  0  0  0  0
    8.2700   -3.0600    0.0000 H   0  0  0  0  0  0  0  0  0  0  0  0
    7.7331    1.8700    0.0000 H   0  0  0  0  0  0  0  0  0  0  0  0
    7.4040   -3.5600    0.0000 H   0  0  0  0  0  0  0  0  0  0  0  0
    8.8112    1.1674    0.0000 H   0  0  0  0  0  0  0  0  0  0  0  0
    9.2097    1.8577    0.0000 H   0  0  0  0  0  0  0  0  0  0  0  0
    6.3301    1.4400    0.0000 H   0  0  0  0  0  0  0  0  0  0  0  0
    5.3905   -2.6423    0.0000 H   0  0  0  0  0  0  0  0  0  0  0  0
    5.7890   -3.3326    0.0000 H   0  0  0  0  0  0  0  0  0  0  0  0
    6.5380    3.5600    0.0000 H   0  0  0  0  0  0  0  0  0  0  0  0
    8.3871    3.3326    0.0000 H   0  0  0  0  0  0  0  0  0  0  0  0
    7.9885    2.6423    0.0000 H   0  0  0  0  0  0  0  0  0  0  0  0
    5.5734    2.3116    0.0000 H   0  0  0  0  0  0  0  0  0  0  0  0
    5.4641    4.5600    0.0000 H   0  0  0  0  0  0  0  0  0  0  0  0
    5.4641   -4.4400    0.0000 H   0  0  0  0  0  0  0  0  0  0  0  0
    5.4641   -1.4400    0.0000 H   0  0  0  0  0  0  0  0  0  0  0  0
    6.2131   -6.3326    0.0000 H   0  0  0  0  0  0  0  0  0  0  0  0
    6.6116   -5.6423    0.0000 H   0  0  0  0  0  0  0  0  0  0  0  0
    6.3301    5.4400    0.0000 H   0  0  0  0  0  0  0  0  0  0  0  0
    4.8059    4.5600    0.0000 H   0  0  0  0  0  0  0  0  0  0  0  0
    3.3250    2.4209    0.0000 H   0  0  0  0  0  0  0  0  0  0  0  0
    3.4030    2.1300    0.0000 H   0  0  0  0  0  0  0  0  0  0  0  0
    5.7550    1.0179    0.0000 H   0  0  0  0  0  0  0  0  0  0  0  0
    7.9451    5.6674    0.0000 H   0  0  0  0  0  0  0  0  0  0  0  0
    8.3437    6.3577    0.0000 H   0  0  0  0  0  0  0  0  0  0  0  0
    4.9230   -5.6674    0.0000 H   0  0  0  0  0  0  0  0  0  0  0  0
    4.5244   -6.3577    0.0000 H   0  0  0  0  0  0  0  0  0  0  0  0
    5.4641    5.9400    0.0000 H   0  0  0  0  0  0  0  0  0  0  0  0
    3.4030    5.3700    0.0000 H   0  0  0  0  0  0  0  0  0  0  0  0
    2.5150    1.0179    0.0000 H   0  0  0  0  0  0  0  0  0  0  0  0
    2.0000    2.9400    0.0000 H   0  0  0  0  0  0  0  0  0  0  0  0
    4.9450   -0.3850    0.0000 H   0  0  0  0  0  0  0  0  0  0  0  0
   10.0021    4.5600    0.0000 H   0  0  0  0  0  0  0  0  0  0  0  0
    7.5210    7.8326    0.0000 H   0  0  0  0  0  0  0  0  0  0  0  0
    7.1225    7.1423    0.0000 H   0  0  0  0  0  0  0  0  0  0  0  0
    2.0000    4.5600    0.0000 H   0  0  0  0  0  0  0  0  0  0  0  0
    3.3251   -0.3851    0.0000 H   0  0  0  0  0  0  0  0  0  0  0  0
    5.6720    8.0600    0.0000 H   0  0  0  0  0  0  0  0  0  0  0  0
    6.5380   -7.4400    0.0000 H   0  0  0  0  0  0  0  0  0  0  0  0
    3.8705    6.7750    0.0000 H   0  0  0  0  0  0  0  0  0  0  0  0
    4.6675    6.7750    0.0000 H   0  0  0  0  0  0  0  0  0  0  0  0
    4.5981    9.0600    0.0000 H   0  0  0  0  0  0  0  0  0  0  0  0
    3.7320   -9.0600    0.0000 H   0  0  0  0  0  0  0  0  0  0  0  0
    5.1350   -9.8700    0.0000 H   0  0  0  0  0  0  0  0  0  0  0  0
    9.1360    9.0600    0.0000 H   0  0  0  0  0  0  0  0  0  0  0  0
    6.6210   10.2500    0.0000 H   0  0  0  0  0  0  0  0  0  0  0  0
    6.0010   10.8700    0.0000 H   0  0  0  0  0  0  0  0  0  0  0  0
    5.3810   10.2500    0.0000 H   0  0  0  0  0  0  0  0  0  0  0  0
    2.2269   -7.2131    0.0000 H   0  0  0  0  0  0  0  0  0  0  0  0
    2.0000   -8.0600    0.0000 H   0  0  0  0  0  0  0  0  0  0  0  0
    2.8469   -8.2869    0.0000 H   0  0  0  0  0  0  0  0  0  0  0  0
    2.0000    7.5600    0.0000 H   0  0  0  0  0  0  0  0  0  0  0  0
    6.2471  -10.2500    0.0000 H   0  0  0  0  0  0  0  0  0  0  0  0
    6.8671  -10.8700    0.0000 H   0  0  0  0  0  0  0  0  0  0  0  0
    7.4871  -10.2500    0.0000 H   0  0  0  0  0  0  0  0  0  0  0  0
  1 37  1  0  0  0  0
  1106  1  0  0  0  0
  2 32  2  0  0  0  0
  3 33  2  0  0  0  0
  4 40  2  0  0  0  0
  5 41  2  0  0  0  0
  6 45  1  0  0  0  0
  6123  1  0  0  0  0
  7 45  2  0  0  0  0
  8 46  2  0  0  0  0
  9 63  2  0  0  0  0
 10 66  1  0  0  0  0
 10 75  1  0  0  0  0
 11 65  1  0  0  0  0
 11135  1  0  0  0  0
 12 65  2  0  0  0  0
 13 69  1  0  0  0  0
 13 76  1  0  0  0  0
 14 72  1  0  0  0  0
 14142  1  0  0  0  0
 15 72  2  0  0  0  0
 16 73  2  0  0  0  0
 31 17  1  1  0  0  0
 17 33  1  0  0  0  0
 17 91  1  0  0  0  0
 18 32  1  0  0  0  0
 35 18  1  6  0  0  0
 18 92  1  0  0  0  0
 34 19  1  1  0  0  0
 19 40  1  0  0  0  0
 19 97  1  0  0  0  0
 38 20  1  6  0  0  0
 20 46  1  0  0  0  0
 20104  1  0  0  0  0
 21 41  1  0  0  0  0
 21 47  1  0  0  0  0
 21105  1  0  0  0  0
 48 22  1  1  0  0  0
 22 63  1  0  0  0  0
 22118  1  0  0  0  0
 64 23  1  6  0  0  0
 23 73  1  0  0  0  0
 23132  1  0  0  0  0
 24 25  1  0  0  0  0
 24 26  1  0  0  0  0
 24 29  1  0  0  0  0
 24 77  1  0  0  0  0
 25 27  1  0  0  0  0
 25 78  1  0  0  0  0
 25 79  1  0  0  0  0
 26 28  1  0  0  0  0
 26 80  1  0  0  0  0
 26 81  1  0  0  0  0
 27 30  1  0  0  0  0
 27 82  1  0  0  0  0
 27 83  1  0  0  0  0
 28 30  1  0  0  0  0
 28 84  1  0  0  0  0
 28 85  1  0  0  0  0
 29 31  1  0  0  0  0
 29 86  1  0  0  0  0
 29 87  1  0  0  0  0
 30 88  1  0  0  0  0
 30 89  1  0  0  0  0
 31 32  1  0  0  0  0
 31 90  1  0  0  0  0
 33 34  1  0  0  0  0
 34 36  1  0  0  0  0
 34 93  1  0  0  0  0
 35 37  1  0  0  0  0
 35 41  1  0  0  0  0
 35 94  1  0  0  0  0
 36 39  1  0  0  0  0
 36 95  1  0  0  0  0
 36 96  1  0  0  0  0
 37 98  1  0  0  0  0
 37 99  1  0  0  0  0
 38 40  1  0  0  0  0
 38 42  1  0  0  0  0
 38100  1  0  0  0  0
 39 45  1  0  0  0  0
 39101  1  0  0  0  0
 39102  1  0  0  0  0
 42 43  1  0  0  0  0
 42 44  1  0  0  0  0
 42103  1  0  0  0  0
 43 49  2  0  0  0  0
 43 51  1  0  0  0  0
 44 50  2  0  0  0  0
 44 52  1  0  0  0  0
 46 48  1  0  0  0  0
 47 54  1  0  0  0  0
 47107  1  0  0  0  0
 47108  1  0  0  0  0
 48 53  1  0  0  0  0
 48109  1  0  0  0  0
 49 55  1  0  0  0  0
 49110  1  0  0  0  0
 50 56  1  0  0  0  0
 50111  1  0  0  0  0
 51 57  2  0  0  0  0
 51112  1  0  0  0  0
 52 58  2  0  0  0  0
 52113  1  0  0  0  0
 53 59  1  0  0  0  0
 53114  1  0  0  0  0
 53115  1  0  0  0  0
 54 62  1  0  0  0  0
 54116  1  0  0  0  0
 54117  1  0  0  0  0
 55 60  2  0  0  0  0
 55119  1  0  0  0  0
 56 61  2  0  0  0  0
 56120  1  0  0  0  0
 57 60  1  0  0  0  0
 57121  1  0  0  0  0
 58 61  1  0  0  0  0
 58122  1  0  0  0  0
 59 65  1  0  0  0  0
 59124  1  0  0  0  0
 59125  1  0  0  0  0
 60126  1  0  0  0  0
 61127  1  0  0  0  0
 62 66  2  0  0  0  0
 62 67  1  0  0  0  0
 63 64  1  0  0  0  0
 64 68  1  0  0  0  0
 64128  1  0  0  0  0
 66 70  1  0  0  0  0
 67 69  2  0  0  0  0
 67129  1  0  0  0  0
 68 72  1  0  0  0  0
 68130  1  0  0  0  0
 68131  1  0  0  0  0
 69 71  1  0  0  0  0
 70 71  2  0  0  0  0
 70133  1  0  0  0  0
 71134  1  0  0  0  0
 73 74  1  0  0  0  0
 74136  1  0  0  0  0
 74137  1  0  0  0  0
 74138  1  0  0  0  0
 75139  1  0  0  0  0
 75140  1  0  0  0  0
 75141  1  0  0  0  0
 76143  1  0  0  0  0
 76144  1  0  0  0  0
 76145  1  0  0  0  0
M  END
> <PUBCHEM_COMPOUND_CID>
507562
> <PUBCHEM_COMPOUND_CANONICALIZED>
1
> <PUBCHEM_CACTVS_COMPLEXITY>
1930
> <PUBCHEM_CACTVS_HBOND_ACCEPTOR>
16
> <PUBCHEM_CACTVS_HBOND_DONOR>
11
> <PUBCHEM_CACTVS_ROTATABLE_BOND>
31
> <PUBCHEM_CACTVS_SUBSKEYS>
AAADcfB/vABAAAAAAAAAAAAAAAAAAAAAAAAwYMGAAAAAAAABUAAAHgQQCAAADSzF2AayDoLABgSIAiHSGAACCAAgIAAIiIGOCIgMZjqEsTuUcCAm1hGIqAf/3/KOgQABAAAIAAACAAIAABAAAAAAAAAAAA==
> <PUBCHEM_IUPAC_OPENEYE_NAME>
(4S)-4-[[(2S)-2-acetamido-3-carboxy-propanoyl]amino]-5-[[(1S)-1-benzhydryl-2-[[(1S)-3-carboxy-1-[[(1S)-1-(cyclohexylmethyl)-2-[[(1R)-2-[2-(2,5-dimethoxyphenyl)ethylamino]-2-oxo-1-(sulfanylmethyl)ethyl]amino]-2-oxo-ethyl]carbamoyl]propyl]amino]-2-oxo-ethyl]amino]-5-oxo-pentanoic acid
> <PUBCHEM_IUPAC_CAS_NAME>
(4S)-4-[[(2S)-2-acetamido-3-carboxy-1-oxopropyl]amino]-5-[[(2S)-1-[[(2S)-4-carboxy-1-[[(2S)-3-cyclohexyl-1-[[(2R)-1-[2-(2,5-dimethoxyphenyl)ethylamino]-3-mercapto-1-oxopropan-2-yl]amino]-1-oxopropan-2-yl]amino]-1-oxobutan-2-yl]amino]-1-oxo-3,3-diphenylpropan-2-yl]amino]-5-oxopentanoic acid
> <PUBCHEM_IUPAC_NAME_MARKUP>
(4<I>S</I>)-4-[[(2<I>S</I>)-2-acetamido-3-carboxypropanoyl]amino]-5-[[(2<I>S</I>)-1-[[(2<I>S</I>)-4-carboxy-1-[[(2<I>S</I>)-3-cyclohexyl-1-[[(2<I>R</I>)-1-[2-(2,5-dimethoxyphenyl)ethylamino]-1-oxo-3-sulfanylpropan-2-yl]amino]-1-oxopropan-2-yl]amino]-1-oxobutan-2-yl]amino]-1-oxo-3,3-diphenylpropan-2-yl]amino]-5-oxopentanoic acid
> <PUBCHEM_IUPAC_NAME>
(4S)-4-[[(2S)-2-acetamido-3-carboxypropanoyl]amino]-5-[[(2S)-1-[[(2S)-4-carboxy-1-[[(2S)-3-cyclohexyl-1-[[(2R)-1-[2-(2,5-dimethoxyphenyl)ethylamino]-1-oxo-3-sulfanylpropan-2-yl]amino]-1-oxopropan-2-yl]amino]-1-oxobutan-2-yl]amino]-1-oxo-3,3-diphenylpropan-2-yl]amino]-5-oxopentanoic acid
> <PUBCHEM_IUPAC_SYSTEMATIC_NAME>
(4S)-4-[[(2S)-2-acetamido-4-oxidanyl-4-oxidanylidene-butanoyl]amino]-5-[[(2S)-1-[[(2S)-1-[[(2S)-3-cyclohexyl-1-[[(2R)-1-[2-(2,5-dimethoxyphenyl)ethylamino]-1-oxidanylidene-3-sulfanyl-propan-2-yl]amino]-1-oxidanylidene-propan-2-yl]amino]-5-oxidanyl-1,5-bis(oxidanylidene)pentan-2-yl]amino]-1-oxidanylidene-3,3-diphenyl-propan-2-yl]amino]-5-oxidanylidene-pentanoic acid
> <PUBCHEM_IUPAC_TRADITIONAL_NAME>
(4S)-4-[[(2S)-2-acetamido-3-carboxy-propanoyl]amino]-5-[[(1S)-1-benzhydryl-2-[[(1S)-3-carboxy-1-[[(1S)-1-(cyclohexylmethyl)-2-[[(1R)-2-[2-(2,5-dimethoxyphenyl)ethylamino]-2-keto-1-(mercaptomethyl)ethyl]amino]-2-keto-ethyl]carbamoyl]propyl]amino]-2-keto-ethyl]amino]-5-keto-valeric acid
> <PUBCHEM_IUPAC_INCHI>
InChI=1S/C53H69N7O15S/c1-31(61)55-40(29-45(66)67)52(72)56-38(21-24-44(64)65)50(70)60-47(46(33-15-9-5-10-16-33)34-17-11-6-12-18-34)53(73)57-37(20-23-43(62)63)49(69)58-39(27-32-13-7-4-8-14-32)51(71)59-41(30-76)48(68)54-26-25-35-28-36(74-2)19-22-42(35)75-3/h5-6,9-12,15-19,22,28,32,37-41,46-47,76H,4,7-8,13-14,20-21,23-27,29-30H2,1-3H3,(H,54,68)(H,55,61)(H,56,72)(H,57,73)(H,58,69)(H,59,71)(H,60,70)(H,62,63)(H,64,65)(H,66,67)/t37-,38-,39-,40-,41-,47-/m0/s1
> <PUBCHEM_IUPAC_INCHIKEY>
GSFZTJUGWBRJJB-BZDJNNGWSA-N
> <PUBCHEM_XLOGP3_AA>
3.7
> <PUBCHEM_EXACT_MASS>
1075.45723569
> <PUBCHEM_MOLECULAR_FORMULA>
C53H69N7O15S
> <PUBCHEM_MOLECULAR_WEIGHT>
1076.2
> <PUBCHEM_OPENEYE_CAN_SMILES>
CC(=O)NC(CC(=O)O)C(=O)NC(CCC(=O)O)C(=O)NC(C(C1=CC=CC=C1)C2=CC=CC=C2)C(=O)NC(CCC(=O)O)C(=O)NC(CC3CCCCC3)C(=O)NC(CS)C(=O)NCCC4=C(C=CC(=C4)OC)OC
> <PUBCHEM_OPENEYE_ISO_SMILES>
CC(=O)N[C@@H](CC(=O)O)C(=O)N[C@@H](CCC(=O)O)C(=O)N[C@@H](C(C1=CC=CC=C1)C2=CC=CC=C2)C(=O)N[C@@H](CCC(=O)O)C(=O)N[C@@H](CC3CCCCC3)C(=O)N[C@@H](CS)C(=O)NCCC4=C(C=CC(=C4)OC)OC
> <PUBCHEM_CACTVS_TPSA>
335
> <PUBCHEM_MONOISOTOPIC_WEIGHT>
1075.45723569
> <PUBCHEM_TOTAL_CHARGE>
0
> <PUBCHEM_HEAVY_ATOM_COUNT>
76
> <PUBCHEM_ATOM_DEF_STEREO_COUNT>
6
> <PUBCHEM_ATOM_UDEF_STEREO_COUNT>
0
> <PUBCHEM_BOND_DEF_STEREO_COUNT>
0
> <PUBCHEM_BOND_UDEF_STEREO_COUNT>
0
> <PUBCHEM_ISOTOPIC_ATOM_COUNT>
0
> <PUBCHEM_COMPONENT_COUNT>
1
> <PUBCHEM_CACTVS_TAUTO_COUNT>
-1
> <PUBCHEM_COORDINATE_TYPE>
1
5
255
> <PUBCHEM_BONDANNOTATIONS>
31  17  5
35  18  6
34  19  5
38  20  6
48  22  5
64  23  6
43  49  8
43  51  8
44  50  8
44  52  8
49  55  8
50  56  8
51  57  8
52  58  8
55  60  8
56  61  8
57  60  8
58  61  8
62  66  8
62  67  8
66  70  8
67  69  8
69  71  8
70  71  8
$$$$
