507563
  -OEChem-10302200282D
145148  0     1  0  0  0  0  0999 V2000
    9.7942    0.8100    0.0000 S   0  0  0  0  0  0  0  0  0  0  0  0
    9.7942   -0.1900    0.0000 O   0  0  0  0  0  0  0  0  0  0  0  0
   10.6603   -0.6900    0.0000 O   0  0  0  0  0  0  0  0  0  0  0  0
   13.2583   -3.1900    0.0000 O   0  0  0  0  0  0  0  0  0  0  0  0
    6.3301    0.8100    0.0000 O   0  0  0  0  0  0  0  0  0  0  0  0
   13.2583   -5.1900    0.0000 O   0  0  0  0  0  0  0  0  0  0  0  0
   11.5263   -5.1900    0.0000 O   0  0  0  0  0  0  0  0  0  0  0  0
   14.1244   -3.6900    0.0000 O   0  0  0  0  0  0  0  0  0  0  0  0
   17.5885   -4.6900    0.0000 O   0  0  0  0  0  0  0  0  0  0  0  0
   17.5885   -6.6900    0.0000 O   0  0  0  0  0  0  0  0  0  0  0  0
   15.8564   -6.6900    0.0000 O   0  0  0  0  0  0  0  0  0  0  0  0
    4.5981    6.8100    0.0000 O   0  0  0  0  0  0  0  0  0  0  0  0
    2.8660    5.8100    0.0000 O   0  0  0  0  0  0  0  0  0  0  0  0
   19.3205   -0.6900    0.0000 O   0  0  0  0  0  0  0  0  0  0  0  0
   20.1865   -2.1900    0.0000 O   0  0  0  0  0  0  0  0  0  0  0  0
   18.4545   -5.1900    0.0000 O   0  0  0  0  0  0  0  0  0  0  0  0
    9.7942   -2.1900    0.0000 N   0  0  0  0  0  0  0  0  0  0  0  0
    8.0622   -0.1900    0.0000 N   0  0  0  0  0  0  0  0  0  0  0  0
   12.3923   -1.6900    0.0000 N   0  0  0  0  0  0  0  0  0  0  0  0
   14.9904   -2.1900    0.0000 N   0  0  0  0  0  0  0  0  0  0  0  0
    7.1962    2.3100    0.0000 N   0  0  0  0  0  0  0  0  0  0  0  0
   16.7224   -3.1900    0.0000 N   0  0  0  0  0  0  0  0  0  0  0  0
   19.3205   -3.6900    0.0000 N   0  0  0  0  0  0  0  0  0  0  0  0
    8.0622   -3.1900    0.0000 C   0  0  0  0  0  0  0  0  0  0  0  0
    7.1962   -3.6900    0.0000 C   0  0  0  0  0  0  0  0  0  0  0  0
    8.9282   -3.6900    0.0000 C   0  0  0  0  0  0  0  0  0  0  0  0
    7.1962   -4.6900    0.0000 C   0  0  0  0  0  0  0  0  0  0  0  0
    8.9282   -4.6900    0.0000 C   0  0  0  0  0  0  0  0  0  0  0  0
    8.0622   -2.1900    0.0000 C   0  0  0  0  0  0  0  0  0  0  0  0
    8.0622   -5.1900    0.0000 C   0  0  0  0  0  0  0  0  0  0  0  0
    8.9282   -1.6900    0.0000 C   0  0  1  0  0  0  0  0  0  0  0  0
    8.9282   -0.6900    0.0000 C   0  0  0  0  0  0  0  0  0  0  0  0
   10.6603   -1.6900    0.0000 C   0  0  0  0  0  0  0  0  0  0  0  0
   11.5263   -2.1900    0.0000 C   0  0  2  0  0  0  0  0  0  0  0  0
    8.0622    0.8100    0.0000 C   0  0  1  0  0  0  0  0  0  0  0  0
   11.5263   -3.1900    0.0000 C   0  0  0  0  0  0  0  0  0  0  0  0
    8.9282    1.3100    0.0000 C   0  0  0  0  0  0  0  0  0  0  0  0
   14.1244   -1.6900    0.0000 C   0  0  2  0  0  0  0  0  0  0  0  0
   12.3923   -3.6900    0.0000 C   0  0  0  0  0  0  0  0  0  0  0  0
   13.2583   -2.1900    0.0000 C   0  0  0  0  0  0  0  0  0  0  0  0
    7.1962    1.3100    0.0000 C   0  0  0  0  0  0  0  0  0  0  0  0
   14.1244   -0.6900    0.0000 C   0  0  0  0  0  0  0  0  0  0  0  0
   14.9904   -0.1900    0.0000 C   0  0  0  0  0  0  0  0  0  0  0  0
   13.6244    0.1760    0.0000 C   0  0  0  0  0  0  0  0  0  0  0  0
   12.3923   -4.6900    0.0000 C   0  0  0  0  0  0  0  0  0  0  0  0
   14.9904   -3.1900    0.0000 C   0  0  0  0  0  0  0  0  0  0  0  0
    6.3301    2.8100    0.0000 C   0  0  0  0  0  0  0  0  0  0  0  0
   15.8564   -3.6900    0.0000 C   0  0  2  0  0  0  0  0  0  0  0  0
   15.8564   -0.6900    0.0000 C   0  0  0  0  0  0  0  0  0  0  0  0
   14.1244    1.0420    0.0000 C   0  0  0  0  0  0  0  0  0  0  0  0
   14.9904    0.8100    0.0000 C   0  0  0  0  0  0  0  0  0  0  0  0
   12.6244    0.1761    0.0000 C   0  0  0  0  0  0  0  0  0  0  0  0
   15.8564   -4.6900    0.0000 C   0  0  0  0  0  0  0  0  0  0  0  0
    6.3301    3.8100    0.0000 C   0  0  0  0  0  0  0  0  0  0  0  0
   16.7224   -0.1900    0.0000 C   0  0  0  0  0  0  0  0  0  0  0  0
   13.6244    1.9081    0.0000 C   0  0  0  0  0  0  0  0  0  0  0  0
   15.8564    1.3100    0.0000 C   0  0  0  0  0  0  0  0  0  0  0  0
   12.1244    1.0420    0.0000 C   0  0  0  0  0  0  0  0  0  0  0  0
   16.7224   -5.1900    0.0000 C   0  0  0  0  0  0  0  0  0  0  0  0
   16.7224    0.8100    0.0000 C   0  0  0  0  0  0  0  0  0  0  0  0
   12.6244    1.9081    0.0000 C   0  0  0  0  0  0  0  0  0  0  0  0
    5.4641    4.3100    0.0000 C   0  0  0  0  0  0  0  0  0  0  0  0
   17.5885   -3.6900    0.0000 C   0  0  0  0  0  0  0  0  0  0  0  0
   18.4545   -3.1900    0.0000 C   0  0  2  0  0  0  0  0  0  0  0  0
   16.7224   -6.1900    0.0000 C   0  0  0  0  0  0  0  0  0  0  0  0
    5.4641    5.3100    0.0000 C   0  0  0  0  0  0  0  0  0  0  0  0
   18.4545   -2.1900    0.0000 C   0  0  0  0  0  0  0  0  0  0  0  0
    4.5981    3.8100    0.0000 C   0  0  0  0  0  0  0  0  0  0  0  0
    4.5981    5.8100    0.0000 C   0  0  0  0  0  0  0  0  0  0  0  0
    3.7320    4.3100    0.0000 C   0  0  0  0  0  0  0  0  0  0  0  0
    3.7320    5.3100    0.0000 C   0  0  0  0  0  0  0  0  0  0  0  0
   19.3205   -1.6900    0.0000 C   0  0  0  0  0  0  0  0  0  0  0  0
   19.3205   -4.6900    0.0000 C   0  0  0  0  0  0  0  0  0  0  0  0
   20.1865   -5.1900    0.0000 C   0  0  0  0  0  0  0  0  0  0  0  0
    5.4641    7.3100    0.0000 C   0  0  0  0  0  0  0  0  0  0  0  0
    2.0000    5.3100    0.0000 C   0  0  0  0  0  0  0  0  0  0  0  0
    7.5252   -2.8800    0.0000 H   0  0  0  0  0  0  0  0  0  0  0  0
    6.9841   -3.1074    0.0000 H   0  0  0  0  0  0  0  0  0  0  0  0
    6.5856   -3.7977    0.0000 H   0  0  0  0  0  0  0  0  0  0  0  0
    9.5388   -3.7977    0.0000 H   0  0  0  0  0  0  0  0  0  0  0  0
    9.1403   -3.1074    0.0000 H   0  0  0  0  0  0  0  0  0  0  0  0
    6.5856   -4.5823    0.0000 H   0  0  0  0  0  0  0  0  0  0  0  0
    6.9841   -5.2726    0.0000 H   0  0  0  0  0  0  0  0  0  0  0  0
    9.1403   -5.2726    0.0000 H   0  0  0  0  0  0  0  0  0  0  0  0
    9.5388   -4.5823    0.0000 H   0  0  0  0  0  0  0  0  0  0  0  0
    7.8501   -1.6074    0.0000 H   0  0  0  0  0  0  0  0  0  0  0  0
    7.4516   -2.2977    0.0000 H   0  0  0  0  0  0  0  0  0  0  0  0
    7.6636   -5.6650    0.0000 H   0  0  0  0  0  0  0  0  0  0  0  0
    8.4607   -5.6650    0.0000 H   0  0  0  0  0  0  0  0  0  0  0  0
    9.4651   -1.3800    0.0000 H   0  0  0  0  0  0  0  0  0  0  0  0
    9.7942   -2.8100    0.0000 H   0  0  0  0  0  0  0  0  0  0  0  0
    7.5252   -0.5000    0.0000 H   0  0  0  0  0  0  0  0  0  0  0  0
   12.0632   -2.5000    0.0000 H   0  0  0  0  0  0  0  0  0  0  0  0
    7.5252    0.5000    0.0000 H   0  0  0  0  0  0  0  0  0  0  0  0
   10.9157   -3.0823    0.0000 H   0  0  0  0  0  0  0  0  0  0  0  0
   11.3142   -3.7726    0.0000 H   0  0  0  0  0  0  0  0  0  0  0  0
   12.3923   -1.0700    0.0000 H   0  0  0  0  0  0  0  0  0  0  0  0
    9.3267    1.7850    0.0000 H   0  0  0  0  0  0  0  0  0  0  0  0
    8.5297    1.7850    0.0000 H   0  0  0  0  0  0  0  0  0  0  0  0
   14.1244   -2.3100    0.0000 H   0  0  0  0  0  0  0  0  0  0  0  0
   13.0029   -3.7977    0.0000 H   0  0  0  0  0  0  0  0  0  0  0  0
   12.6044   -3.1074    0.0000 H   0  0  0  0  0  0  0  0  0  0  0  0
   13.5255   -0.8505    0.0000 H   0  0  0  0  0  0  0  0  0  0  0  0
   15.5273   -1.8800    0.0000 H   0  0  0  0  0  0  0  0  0  0  0  0
    7.7331    2.6200    0.0000 H   0  0  0  0  0  0  0  0  0  0  0  0
   10.3312    1.1200    0.0000 H   0  0  0  0  0  0  0  0  0  0  0  0
   16.3933   -4.0000    0.0000 H   0  0  0  0  0  0  0  0  0  0  0  0
    5.7196    2.9177    0.0000 H   0  0  0  0  0  0  0  0  0  0  0  0
    6.1181    2.2274    0.0000 H   0  0  0  0  0  0  0  0  0  0  0  0
   15.8564   -1.3100    0.0000 H   0  0  0  0  0  0  0  0  0  0  0  0
   14.7444    1.0420    0.0000 H   0  0  0  0  0  0  0  0  0  0  0  0
   14.4534    1.1200    0.0000 H   0  0  0  0  0  0  0  0  0  0  0  0
   12.3144   -0.3608    0.0000 H   0  0  0  0  0  0  0  0  0  0  0  0
   15.2458   -4.5823    0.0000 H   0  0  0  0  0  0  0  0  0  0  0  0
   15.6444   -5.2726    0.0000 H   0  0  0  0  0  0  0  0  0  0  0  0
    6.9407    3.7023    0.0000 H   0  0  0  0  0  0  0  0  0  0  0  0
    6.5422    4.3926    0.0000 H   0  0  0  0  0  0  0  0  0  0  0  0
   16.7224   -2.5700    0.0000 H   0  0  0  0  0  0  0  0  0  0  0  0
   17.2594   -0.5000    0.0000 H   0  0  0  0  0  0  0  0  0  0  0  0
   13.9344    2.4450    0.0000 H   0  0  0  0  0  0  0  0  0  0  0  0
   15.8564    1.9300    0.0000 H   0  0  0  0  0  0  0  0  0  0  0  0
   11.5044    1.0420    0.0000 H   0  0  0  0  0  0  0  0  0  0  0  0
   13.2583   -5.8100    0.0000 H   0  0  0  0  0  0  0  0  0  0  0  0
   17.3330   -5.2977    0.0000 H   0  0  0  0  0  0  0  0  0  0  0  0
   16.9345   -4.6074    0.0000 H   0  0  0  0  0  0  0  0  0  0  0  0
   17.2594    1.1200    0.0000 H   0  0  0  0  0  0  0  0  0  0  0  0
   12.3144    2.4450    0.0000 H   0  0  0  0  0  0  0  0  0  0  0  0
   18.4545   -3.8100    0.0000 H   0  0  0  0  0  0  0  0  0  0  0  0
   18.2424   -1.6074    0.0000 H   0  0  0  0  0  0  0  0  0  0  0  0
   17.8439   -2.2977    0.0000 H   0  0  0  0  0  0  0  0  0  0  0  0
    6.0010    5.6200    0.0000 H   0  0  0  0  0  0  0  0  0  0  0  0
    4.5981    3.1900    0.0000 H   0  0  0  0  0  0  0  0  0  0  0  0
   19.8574   -3.3800    0.0000 H   0  0  0  0  0  0  0  0  0  0  0  0
    3.1951    4.0000    0.0000 H   0  0  0  0  0  0  0  0  0  0  0  0
   17.5885   -7.3100    0.0000 H   0  0  0  0  0  0  0  0  0  0  0  0
   19.8765   -5.7269    0.0000 H   0  0  0  0  0  0  0  0  0  0  0  0
   20.7235   -5.5000    0.0000 H   0  0  0  0  0  0  0  0  0  0  0  0
   20.4965   -4.6531    0.0000 H   0  0  0  0  0  0  0  0  0  0  0  0
   19.8574   -0.3800    0.0000 H   0  0  0  0  0  0  0  0  0  0  0  0
    5.7741    6.7731    0.0000 H   0  0  0  0  0  0  0  0  0  0  0  0
    6.0010    7.6200    0.0000 H   0  0  0  0  0  0  0  0  0  0  0  0
    5.1541    7.8469    0.0000 H   0  0  0  0  0  0  0  0  0  0  0  0
    1.6900    5.8469    0.0000 H   0  0  0  0  0  0  0  0  0  0  0  0
    1.4631    5.0000    0.0000 H   0  0  0  0  0  0  0  0  0  0  0  0
    2.3100    4.7731    0.0000 H   0  0  0  0  0  0  0  0  0  0  0  0
  1 37  1  0  0  0  0
  1106  1  0  0  0  0
  2 32  2  0  0  0  0
  3 33  2  0  0  0  0
  4 40  2  0  0  0  0
  5 41  2  0  0  0  0
  6 45  1  0  0  0  0
  6123  1  0  0  0  0
  7 45  2  0  0  0  0
  8 46  2  0  0  0  0
  9 63  2  0  0  0  0
 10 65  1  0  0  0  0
 10135  1  0  0  0  0
 11 65  2  0  0  0  0
 12 69  1  0  0  0  0
 12 75  1  0  0  0  0
 13 71  1  0  0  0  0
 13 76  1  0  0  0  0
 14 72  1  0  0  0  0
 14139  1  0  0  0  0
 15 72  2  0  0  0  0
 16 73  2  0  0  0  0
 31 17  1  1  0  0  0
 17 33  1  0  0  0  0
 17 91  1  0  0  0  0
 18 32  1  0  0  0  0
 35 18  1  6  0  0  0
 18 92  1  0  0  0  0
 34 19  1  1  0  0  0
 19 40  1  0  0  0  0
 19 97  1  0  0  0  0
 38 20  1  6  0  0  0
 20 46  1  0  0  0  0
 20104  1  0  0  0  0
 21 41  1  0  0  0  0
 21 47  1  0  0  0  0
 21105  1  0  0  0  0
 48 22  1  1  0  0  0
 22 63  1  0  0  0  0
 22118  1  0  0  0  0
 64 23  1  6  0  0  0
 23 73  1  0  0  0  0
 23133  1  0  0  0  0
 24 25  1  0  0  0  0
 24 26  1  0  0  0  0
 24 29  1  0  0  0  0
 24 77  1  0  0  0  0
 25 27  1  0  0  0  0
 25 78  1  0  0  0  0
 25 79  1  0  0  0  0
 26 28  1  0  0  0  0
 26 80  1  0  0  0  0
 26 81  1  0  0  0  0
 27 30  1  0  0  0  0
 27 82  1  0  0  0  0
 27 83  1  0  0  0  0
 28 30  1  0  0  0  0
 28 84  1  0  0  0  0
 28 85  1  0  0  0  0
 29 31  1  0  0  0  0
 29 86  1  0  0  0  0
 29 87  1  0  0  0  0
 30 88  1  0  0  0  0
 30 89  1  0  0  0  0
 31 32  1  0  0  0  0
 31 90  1  0  0  0  0
 33 34  1  0  0  0  0
 34 36  1  0  0  0  0
 34 93  1  0  0  0  0
 35 37  1  0  0  0  0
 35 41  1  0  0  0  0
 35 94  1  0  0  0  0
 36 39  1  0  0  0  0
 36 95  1  0  0  0  0
 36 96  1  0  0  0  0
 37 98  1  0  0  0  0
 37 99  1  0  0  0  0
 38 40  1  0  0  0  0
 38 42  1  0  0  0  0
 38100  1  0  0  0  0
 39 45  1  0  0  0  0
 39101  1  0  0  0  0
 39102  1  0  0  0  0
 42 43  1  0  0  0  0
 42 44  1  0  0  0  0
 42103  1  0  0  0  0
 43 49  2  0  0  0  0
 43 51  1  0  0  0  0
 44 50  2  0  0  0  0
 44 52  1  0  0  0  0
 46 48  1  0  0  0  0
 47 54  1  0  0  0  0
 47108  1  0  0  0  0
 47109  1  0  0  0  0
 48 53  1  0  0  0  0
 48107  1  0  0  0  0
 49 55  1  0  0  0  0
 49110  1  0  0  0  0
 50 56  1  0  0  0  0
 50111  1  0  0  0  0
 51 57  2  0  0  0  0
 51112  1  0  0  0  0
 52 58  2  0  0  0  0
 52113  1  0  0  0  0
 53 59  1  0  0  0  0
 53114  1  0  0  0  0
 53115  1  0  0  0  0
 54 62  1  0  0  0  0
 54116  1  0  0  0  0
 54117  1  0  0  0  0
 55 60  2  0  0  0  0
 55119  1  0  0  0  0
 56 61  2  0  0  0  0
 56120  1  0  0  0  0
 57 60  1  0  0  0  0
 57121  1  0  0  0  0
 58 61  1  0  0  0  0
 58122  1  0  0  0  0
 59 65  1  0  0  0  0
 59124  1  0  0  0  0
 59125  1  0  0  0  0
 60126  1  0  0  0  0
 61127  1  0  0  0  0
 62 66  2  0  0  0  0
 62 68  1  0  0  0  0
 63 64  1  0  0  0  0
 64 67  1  0  0  0  0
 64128  1  0  0  0  0
 66 69  1  0  0  0  0
 66131  1  0  0  0  0
 67 72  1  0  0  0  0
 67129  1  0  0  0  0
 67130  1  0  0  0  0
 68 70  2  0  0  0  0
 68132  1  0  0  0  0
 69 71  2  0  0  0  0
 70 71  1  0  0  0  0
 70134  1  0  0  0  0
 73 74  1  0  0  0  0
 74136  1  0  0  0  0
 74137  1  0  0  0  0
 74138  1  0  0  0  0
 75140  1  0  0  0  0
 75141  1  0  0  0  0
 75142  1  0  0  0  0
 76143  1  0  0  0  0
 76144  1  0  0  0  0
 76145  1  0  0  0  0
M  END
> <PUBCHEM_COMPOUND_CID>
507563
> <PUBCHEM_COMPOUND_CANONICALIZED>
1
> <PUBCHEM_CACTVS_COMPLEXITY>
1930
> <PUBCHEM_CACTVS_HBOND_ACCEPTOR>
16
> <PUBCHEM_CACTVS_HBOND_DONOR>
11
> <PUBCHEM_CACTVS_ROTATABLE_BOND>
31
> <PUBCHEM_CACTVS_SUBSKEYS>
AAADcfB/vABAAAAAAAAAAAAAAAAAAAAAAAAwYMGAAAAAAAABUAAAHgQQCAAADSzF2AayDoLABgSIAiHSGAACCAAgIAAIiIGOiIgNZjqEsTuUcCIm1hGKqAe/3/KOoAABAAAAQABAAAIAAACAAAAAAAAAAA==
> <PUBCHEM_IUPAC_OPENEYE_NAME>
(4S)-4-[[(2S)-2-acetamido-3-carboxy-propanoyl]amino]-5-[[(1S)-1-benzhydryl-2-[[(1S)-3-carboxy-1-[[(1S)-1-(cyclohexylmethyl)-2-[[(1R)-2-[2-(3,4-dimethoxyphenyl)ethylamino]-2-oxo-1-(sulfanylmethyl)ethyl]amino]-2-oxo-ethyl]carbamoyl]propyl]amino]-2-oxo-ethyl]amino]-5-oxo-pentanoic acid
> <PUBCHEM_IUPAC_CAS_NAME>
(4S)-4-[[(2S)-2-acetamido-3-carboxy-1-oxopropyl]amino]-5-[[(2S)-1-[[(2S)-4-carboxy-1-[[(2S)-3-cyclohexyl-1-[[(2R)-1-[2-(3,4-dimethoxyphenyl)ethylamino]-3-mercapto-1-oxopropan-2-yl]amino]-1-oxopropan-2-yl]amino]-1-oxobutan-2-yl]amino]-1-oxo-3,3-diphenylpropan-2-yl]amino]-5-oxopentanoic acid
> <PUBCHEM_IUPAC_NAME_MARKUP>
(4<I>S</I>)-4-[[(2<I>S</I>)-2-acetamido-3-carboxypropanoyl]amino]-5-[[(2<I>S</I>)-1-[[(2<I>S</I>)-4-carboxy-1-[[(2<I>S</I>)-3-cyclohexyl-1-[[(2<I>R</I>)-1-[2-(3,4-dimethoxyphenyl)ethylamino]-1-oxo-3-sulfanylpropan-2-yl]amino]-1-oxopropan-2-yl]amino]-1-oxobutan-2-yl]amino]-1-oxo-3,3-diphenylpropan-2-yl]amino]-5-oxopentanoic acid
> <PUBCHEM_IUPAC_NAME>
(4S)-4-[[(2S)-2-acetamido-3-carboxypropanoyl]amino]-5-[[(2S)-1-[[(2S)-4-carboxy-1-[[(2S)-3-cyclohexyl-1-[[(2R)-1-[2-(3,4-dimethoxyphenyl)ethylamino]-1-oxo-3-sulfanylpropan-2-yl]amino]-1-oxopropan-2-yl]amino]-1-oxobutan-2-yl]amino]-1-oxo-3,3-diphenylpropan-2-yl]amino]-5-oxopentanoic acid
> <PUBCHEM_IUPAC_SYSTEMATIC_NAME>
(4S)-4-[[(2S)-2-acetamido-4-oxidanyl-4-oxidanylidene-butanoyl]amino]-5-[[(2S)-1-[[(2S)-1-[[(2S)-3-cyclohexyl-1-[[(2R)-1-[2-(3,4-dimethoxyphenyl)ethylamino]-1-oxidanylidene-3-sulfanyl-propan-2-yl]amino]-1-oxidanylidene-propan-2-yl]amino]-5-oxidanyl-1,5-bis(oxidanylidene)pentan-2-yl]amino]-1-oxidanylidene-3,3-diphenyl-propan-2-yl]amino]-5-oxidanylidene-pentanoic acid
> <PUBCHEM_IUPAC_TRADITIONAL_NAME>
(4S)-4-[[(2S)-2-acetamido-3-carboxy-propanoyl]amino]-5-[[(1S)-1-benzhydryl-2-[[(1S)-3-carboxy-1-[[(1S)-1-(cyclohexylmethyl)-2-[[(1R)-2-(homoveratrylamino)-2-keto-1-(mercaptomethyl)ethyl]amino]-2-keto-ethyl]carbamoyl]propyl]amino]-2-keto-ethyl]amino]-5-keto-valeric acid
> <PUBCHEM_IUPAC_INCHI>
InChI=1S/C53H69N7O15S/c1-31(61)55-39(29-45(66)67)52(72)56-37(21-24-44(64)65)50(70)60-47(46(34-15-9-5-10-16-34)35-17-11-6-12-18-35)53(73)57-36(20-23-43(62)63)49(69)58-38(27-32-13-7-4-8-14-32)51(71)59-40(30-76)48(68)54-26-25-33-19-22-41(74-2)42(28-33)75-3/h5-6,9-12,15-19,22,28,32,36-40,46-47,76H,4,7-8,13-14,20-21,23-27,29-30H2,1-3H3,(H,54,68)(H,55,61)(H,56,72)(H,57,73)(H,58,69)(H,59,71)(H,60,70)(H,62,63)(H,64,65)(H,66,67)/t36-,37-,38-,39-,40-,47-/m0/s1
> <PUBCHEM_IUPAC_INCHIKEY>
DASQMMXYPBXJJQ-JMLFORQESA-N
> <PUBCHEM_XLOGP3_AA>
3.7
> <PUBCHEM_EXACT_MASS>
1075.45723569
> <PUBCHEM_MOLECULAR_FORMULA>
C53H69N7O15S
> <PUBCHEM_MOLECULAR_WEIGHT>
1076.2
> <PUBCHEM_OPENEYE_CAN_SMILES>
CC(=O)NC(CC(=O)O)C(=O)NC(CCC(=O)O)C(=O)NC(C(C1=CC=CC=C1)C2=CC=CC=C2)C(=O)NC(CCC(=O)O)C(=O)NC(CC3CCCCC3)C(=O)NC(CS)C(=O)NCCC4=CC(=C(C=C4)OC)OC
> <PUBCHEM_OPENEYE_ISO_SMILES>
CC(=O)N[C@@H](CC(=O)O)C(=O)N[C@@H](CCC(=O)O)C(=O)N[C@@H](C(C1=CC=CC=C1)C2=CC=CC=C2)C(=O)N[C@@H](CCC(=O)O)C(=O)N[C@@H](CC3CCCCC3)C(=O)N[C@@H](CS)C(=O)NCCC4=CC(=C(C=C4)OC)OC
> <PUBCHEM_CACTVS_TPSA>
335
> <PUBCHEM_MONOISOTOPIC_WEIGHT>
1075.45723569
> <PUBCHEM_TOTAL_CHARGE>
0
> <PUBCHEM_HEAVY_ATOM_COUNT>
76
> <PUBCHEM_ATOM_DEF_STEREO_COUNT>
6
> <PUBCHEM_ATOM_UDEF_STEREO_COUNT>
0
> <PUBCHEM_BOND_DEF_STEREO_COUNT>
0
> <PUBCHEM_BOND_UDEF_STEREO_COUNT>
0
> <PUBCHEM_ISOTOPIC_ATOM_COUNT>
0
> <PUBCHEM_COMPONENT_COUNT>
1
> <PUBCHEM_CACTVS_TAUTO_COUNT>
-1
> <PUBCHEM_COORDINATE_TYPE>
1
5
255
> <PUBCHEM_BONDANNOTATIONS>
31  17  5
35  18  6
34  19  5
38  20  6
48  22  5
64  23  6
43  49  8
43  51  8
44  50  8
44  52  8
49  55  8
50  56  8
51  57  8
52  58  8
55  60  8
56  61  8
57  60  8
58  61  8
62  66  8
62  68  8
66  69  8
68  70  8
69  71  8
70  71  8
$$$$
