507501
  -OEChem-10302200282D
 94 96  0     1  0  0  0  0  0999 V2000
    2.6723   -8.6739    0.0000 Br  0  0  0  0  0  0  0  0  0  0  0  0
    3.7601    5.6739    0.0000 Cl  0  0  0  0  0  0  0  0  0  0  0  0
    8.0902    5.1739    0.0000 S   0  0  0  0  0  0  0  0  0  0  0  0
    8.9562    2.6739    0.0000 O   0  0  0  0  0  0  0  0  0  0  0  0
    8.0902   -0.8261    0.0000 O   0  0  0  0  0  0  0  0  0  0  0  0
    5.4921    3.6739    0.0000 O   0  0  0  0  0  0  0  0  0  0  0  0
    4.6261   -1.8261    0.0000 O   0  0  0  0  0  0  0  0  0  0  0  0
    4.6261    2.1739    0.0000 O   0  0  0  0  0  0  0  0  0  0  0  0
    3.7601    0.6739    0.0000 O   0  0  0  0  0  0  0  0  0  0  0  0
    7.2242    0.6739    0.0000 N   0  0  0  0  0  0  0  0  0  0  0  0
    7.2242    2.6739    0.0000 N   0  0  0  0  0  0  0  0  0  0  0  0
    6.3582   -1.8261    0.0000 N   0  0  0  0  0  0  0  0  0  0  0  0
    6.3582    5.1739    0.0000 N   0  0  0  0  0  0  0  0  0  0  0  0
    3.7601   -6.3261    0.0000 N   0  0  0  0  0  0  0  0  0  0  0  0
    4.5691   -6.9139    0.0000 N   0  0  0  0  0  0  0  0  0  0  0  0
    8.9562    0.6739    0.0000 C   0  0  0  0  0  0  0  0  0  0  0  0
    8.0902    1.1739    0.0000 C   0  0  1  0  0  0  0  0  0  0  0  0
    9.8222    1.1739    0.0000 C   0  0  0  0  0  0  0  0  0  0  0  0
    6.3582   -0.8261    0.0000 C   0  0  2  0  0  0  0  0  0  0  0  0
    8.0902    2.1739    0.0000 C   0  0  0  0  0  0  0  0  0  0  0  0
   10.6883    0.6739    0.0000 C   0  0  0  0  0  0  0  0  0  0  0  0
    9.8222    2.1739    0.0000 C   0  0  0  0  0  0  0  0  0  0  0  0
    7.2242   -0.3261    0.0000 C   0  0  0  0  0  0  0  0  0  0  0  0
    5.4921   -0.3261    0.0000 C   0  0  0  0  0  0  0  0  0  0  0  0
    7.2242    3.6739    0.0000 C   0  0  1  0  0  0  0  0  0  0  0  0
    5.4921    0.6739    0.0000 C   0  0  0  0  0  0  0  0  0  0  0  0
    8.0902    4.1739    0.0000 C   0  0  0  0  0  0  0  0  0  0  0  0
    6.3582    4.1739    0.0000 C   0  0  0  0  0  0  0  0  0  0  0  0
    5.4921   -2.3261    0.0000 C   0  0  0  0  0  0  0  0  0  0  0  0
    5.4921   -3.3261    0.0000 C   0  0  0  0  0  0  0  0  0  0  0  0
    4.6261    1.1739    0.0000 C   0  0  0  0  0  0  0  0  0  0  0  0
    5.4921    5.6739    0.0000 C   0  0  0  0  0  0  0  0  0  0  0  0
    4.6261   -4.8261    0.0000 C   0  0  0  0  0  0  0  0  0  0  0  0
    4.6261   -3.8261    0.0000 C   0  0  0  0  0  0  0  0  0  0  0  0
    3.7601   -5.3261    0.0000 C   0  0  0  0  0  0  0  0  0  0  0  0
    5.4921    6.6739    0.0000 C   0  0  0  0  0  0  0  0  0  0  0  0
    6.3582   -3.8261    0.0000 C   0  0  0  0  0  0  0  0  0  0  0  0
    5.4921   -5.3261    0.0000 C   0  0  0  0  0  0  0  0  0  0  0  0
    6.3582   -4.8261    0.0000 C   0  0  0  0  0  0  0  0  0  0  0  0
    4.6261    7.1739    0.0000 C   0  0  0  0  0  0  0  0  0  0  0  0
    2.9511   -6.9139    0.0000 C   0  0  0  0  0  0  0  0  0  0  0  0
    3.2601   -7.8649    0.0000 C   0  0  0  0  0  0  0  0  0  0  0  0
    4.2601   -7.8649    0.0000 C   0  0  0  0  0  0  0  0  0  0  0  0
    2.0000   -6.6048    0.0000 C   0  0  0  0  0  0  0  0  0  0  0  0
    3.7601    6.6739    0.0000 C   0  0  0  0  0  0  0  0  0  0  0  0
    4.6261    8.1739    0.0000 C   0  0  0  0  0  0  0  0  0  0  0  0
    4.8479   -8.6739    0.0000 C   0  0  0  0  0  0  0  0  0  0  0  0
    2.8940    7.1739    0.0000 C   0  0  0  0  0  0  0  0  0  0  0  0
    3.7601    8.6739    0.0000 C   0  0  0  0  0  0  0  0  0  0  0  0
    2.8940    8.1739    0.0000 C   0  0  0  0  0  0  0  0  0  0  0  0
    8.5577    0.1990    0.0000 H   0  0  0  0  0  0  0  0  0  0  0  0
    9.3547    0.1990    0.0000 H   0  0  0  0  0  0  0  0  0  0  0  0
    8.0902    0.5539    0.0000 H   0  0  0  0  0  0  0  0  0  0  0  0
   10.3592    1.4839    0.0000 H   0  0  0  0  0  0  0  0  0  0  0  0
    6.6872    0.9839    0.0000 H   0  0  0  0  0  0  0  0  0  0  0  0
    6.8951   -1.1361    0.0000 H   0  0  0  0  0  0  0  0  0  0  0  0
   10.3783    0.1370    0.0000 H   0  0  0  0  0  0  0  0  0  0  0  0
   11.2252    0.3639    0.0000 H   0  0  0  0  0  0  0  0  0  0  0  0
   10.9983    1.2109    0.0000 H   0  0  0  0  0  0  0  0  0  0  0  0
   10.4423    2.1739    0.0000 H   0  0  0  0  0  0  0  0  0  0  0  0
    9.8222    2.7939    0.0000 H   0  0  0  0  0  0  0  0  0  0  0  0
    9.2022    2.1739    0.0000 H   0  0  0  0  0  0  0  0  0  0  0  0
    4.8815   -0.2184    0.0000 H   0  0  0  0  0  0  0  0  0  0  0  0
    5.2801   -0.9087    0.0000 H   0  0  0  0  0  0  0  0  0  0  0  0
    6.6872    2.3639    0.0000 H   0  0  0  0  0  0  0  0  0  0  0  0
    7.7611    3.3639    0.0000 H   0  0  0  0  0  0  0  0  0  0  0  0
    6.8951   -2.1361    0.0000 H   0  0  0  0  0  0  0  0  0  0  0  0
    6.1027    0.5663    0.0000 H   0  0  0  0  0  0  0  0  0  0  0  0
    5.7042    1.2565    0.0000 H   0  0  0  0  0  0  0  0  0  0  0  0
    8.3023    3.5913    0.0000 H   0  0  0  0  0  0  0  0  0  0  0  0
    8.7008    4.2816    0.0000 H   0  0  0  0  0  0  0  0  0  0  0  0
    6.8951    5.4839    0.0000 H   0  0  0  0  0  0  0  0  0  0  0  0
    4.8815    5.7816    0.0000 H   0  0  0  0  0  0  0  0  0  0  0  0
    5.2801    5.0913    0.0000 H   0  0  0  0  0  0  0  0  0  0  0  0
    4.0892   -3.5161    0.0000 H   0  0  0  0  0  0  0  0  0  0  0  0
    3.5480   -4.7435    0.0000 H   0  0  0  0  0  0  0  0  0  0  0  0
    3.1495   -5.4337    0.0000 H   0  0  0  0  0  0  0  0  0  0  0  0
    6.1027    6.5663    0.0000 H   0  0  0  0  0  0  0  0  0  0  0  0
    5.7042    7.2565    0.0000 H   0  0  0  0  0  0  0  0  0  0  0  0
    6.8951   -3.5161    0.0000 H   0  0  0  0  0  0  0  0  0  0  0  0
    8.6271    5.4839    0.0000 H   0  0  0  0  0  0  0  0  0  0  0  0
    5.4921   -5.9461    0.0000 H   0  0  0  0  0  0  0  0  0  0  0  0
    6.8951   -5.1361    0.0000 H   0  0  0  0  0  0  0  0  0  0  0  0
    4.0892    2.4839    0.0000 H   0  0  0  0  0  0  0  0  0  0  0  0
    2.1916   -6.0152    0.0000 H   0  0  0  0  0  0  0  0  0  0  0  0
    1.4103   -6.4132    0.0000 H   0  0  0  0  0  0  0  0  0  0  0  0
    1.8084   -7.1945    0.0000 H   0  0  0  0  0  0  0  0  0  0  0  0
    5.1630    8.4839    0.0000 H   0  0  0  0  0  0  0  0  0  0  0  0
    4.3463   -9.0384    0.0000 H   0  0  0  0  0  0  0  0  0  0  0  0
    5.2123   -9.1755    0.0000 H   0  0  0  0  0  0  0  0  0  0  0  0
    5.3494   -8.3095    0.0000 H   0  0  0  0  0  0  0  0  0  0  0  0
    2.3571    6.8639    0.0000 H   0  0  0  0  0  0  0  0  0  0  0  0
    3.7601    9.2939    0.0000 H   0  0  0  0  0  0  0  0  0  0  0  0
    2.3571    8.4839    0.0000 H   0  0  0  0  0  0  0  0  0  0  0  0
  1 42  1  0  0  0  0
  2 45  1  0  0  0  0
  3 27  1  0  0  0  0
  3 81  1  0  0  0  0
  4 20  2  0  0  0  0
  5 23  2  0  0  0  0
  6 28  2  0  0  0  0
  7 29  2  0  0  0  0
  8 31  1  0  0  0  0
  8 84  1  0  0  0  0
  9 31  2  0  0  0  0
 17 10  1  6  0  0  0
 10 23  1  0  0  0  0
 10 55  1  0  0  0  0
 11 20  1  0  0  0  0
 25 11  1  6  0  0  0
 11 65  1  0  0  0  0
 19 12  1  1  0  0  0
 12 29  1  0  0  0  0
 12 67  1  0  0  0  0
 13 28  1  0  0  0  0
 13 32  1  0  0  0  0
 13 72  1  0  0  0  0
 14 15  1  0  0  0  0
 14 35  1  0  0  0  0
 14 41  1  0  0  0  0
 15 43  2  0  0  0  0
 16 17  1  0  0  0  0
 16 18  1  0  0  0  0
 16 51  1  0  0  0  0
 16 52  1  0  0  0  0
 17 20  1  0  0  0  0
 17 53  1  0  0  0  0
 18 21  1  0  0  0  0
 18 22  1  0  0  0  0
 18 54  1  0  0  0  0
 19 23  1  0  0  0  0
 19 24  1  0  0  0  0
 19 56  1  0  0  0  0
 21 57  1  0  0  0  0
 21 58  1  0  0  0  0
 21 59  1  0  0  0  0
 22 60  1  0  0  0  0
 22 61  1  0  0  0  0
 22 62  1  0  0  0  0
 24 26  1  0  0  0  0
 24 63  1  0  0  0  0
 24 64  1  0  0  0  0
 25 27  1  0  0  0  0
 25 28  1  0  0  0  0
 25 66  1  0  0  0  0
 26 31  1  0  0  0  0
 26 68  1  0  0  0  0
 26 69  1  0  0  0  0
 27 70  1  0  0  0  0
 27 71  1  0  0  0  0
 29 30  1  0  0  0  0
 30 34  1  0  0  0  0
 30 37  2  0  0  0  0
 32 36  1  0  0  0  0
 32 73  1  0  0  0  0
 32 74  1  0  0  0  0
 33 34  2  0  0  0  0
 33 35  1  0  0  0  0
 33 38  1  0  0  0  0
 34 75  1  0  0  0  0
 35 76  1  0  0  0  0
 35 77  1  0  0  0  0
 36 40  1  0  0  0  0
 36 78  1  0  0  0  0
 36 79  1  0  0  0  0
 37 39  1  0  0  0  0
 37 80  1  0  0  0  0
 38 39  2  0  0  0  0
 38 82  1  0  0  0  0
 39 83  1  0  0  0  0
 40 45  1  0  0  0  0
 40 46  2  0  0  0  0
 41 42  2  0  0  0  0
 41 44  1  0  0  0  0
 42 43  1  0  0  0  0
 43 47  1  0  0  0  0
 44 85  1  0  0  0  0
 44 86  1  0  0  0  0
 44 87  1  0  0  0  0
 45 48  2  0  0  0  0
 46 49  1  0  0  0  0
 46 88  1  0  0  0  0
 47 89  1  0  0  0  0
 47 90  1  0  0  0  0
 47 91  1  0  0  0  0
 48 50  1  0  0  0  0
 48 92  1  0  0  0  0
 49 50  2  0  0  0  0
 49 93  1  0  0  0  0
 50 94  1  0  0  0  0
M  END
> <PUBCHEM_COMPOUND_CID>
507501
> <PUBCHEM_COMPOUND_CANONICALIZED>
1
> <PUBCHEM_CACTVS_COMPLEXITY>
1160
> <PUBCHEM_CACTVS_HBOND_ACCEPTOR>
8
> <PUBCHEM_CACTVS_HBOND_DONOR>
6
> <PUBCHEM_CACTVS_ROTATABLE_BOND>
18
> <PUBCHEM_CACTVS_SUBSKEYS>
AAADcfB/uABEEAAAAAAAAAAAAAAAAWAAAAAwYAAAAAAAAAAB0AAAHgZYCAABrSrF3iSyiJLIAgSqAyXyXACSBAAlhQQY2KG4RvgIYDLB1/GU5QhkngDIyYe8n8KOAAACAAABAAAAAAQAAAIAAAAAAAAAAA==
> <PUBCHEM_IUPAC_OPENEYE_NAME>
(4S)-4-[[3-[(4-bromo-3,5-dimethyl-pyrazol-1-yl)methyl]benzoyl]amino]-5-[[(1S)-1-[[(1R)-2-[2-(2-chlorophenyl)ethylamino]-2-oxo-1-(sulfanylmethyl)ethyl]carbamoyl]-3-methyl-butyl]amino]-5-oxo-pentanoic acid
> <PUBCHEM_IUPAC_CAS_NAME>
(4S)-4-[[[3-[(4-bromo-3,5-dimethyl-1-pyrazolyl)methyl]phenyl]-oxomethyl]amino]-5-[[(2S)-1-[[(2R)-1-[2-(2-chlorophenyl)ethylamino]-3-mercapto-1-oxopropan-2-yl]amino]-4-methyl-1-oxopentan-2-yl]amino]-5-oxopentanoic acid
> <PUBCHEM_IUPAC_NAME_MARKUP>
(4<I>S</I>)-4-[[3-[(4-bromo-3,5-dimethylpyrazol-1-yl)methyl]benzoyl]amino]-5-[[(2<I>S</I>)-1-[[(2<I>R</I>)-1-[2-(2-chlorophenyl)ethylamino]-1-oxo-3-sulfanylpropan-2-yl]amino]-4-methyl-1-oxopentan-2-yl]amino]-5-oxopentanoic acid
> <PUBCHEM_IUPAC_NAME>
(4S)-4-[[3-[(4-bromo-3,5-dimethylpyrazol-1-yl)methyl]benzoyl]amino]-5-[[(2S)-1-[[(2R)-1-[2-(2-chlorophenyl)ethylamino]-1-oxo-3-sulfanylpropan-2-yl]amino]-4-methyl-1-oxopentan-2-yl]amino]-5-oxopentanoic acid
> <PUBCHEM_IUPAC_SYSTEMATIC_NAME>
(4S)-4-[[3-[(4-bromanyl-3,5-dimethyl-pyrazol-1-yl)methyl]phenyl]carbonylamino]-5-[[(2S)-1-[[(2R)-1-[2-(2-chlorophenyl)ethylamino]-1-oxidanylidene-3-sulfanyl-propan-2-yl]amino]-4-methyl-1-oxidanylidene-pentan-2-yl]amino]-5-oxidanylidene-pentanoic acid
> <PUBCHEM_IUPAC_TRADITIONAL_NAME>
(4S)-4-[[3-[(4-bromo-3,5-dimethyl-pyrazol-1-yl)methyl]benzoyl]amino]-5-[[(1S)-1-[[(1R)-2-[2-(2-chlorophenyl)ethylamino]-2-keto-1-(mercaptomethyl)ethyl]carbamoyl]-3-methyl-butyl]amino]-5-keto-valeric acid
> <PUBCHEM_IUPAC_INCHI>
InChI=1S/C35H44BrClN6O6S/c1-20(2)16-28(35(49)41-29(19-50)33(47)38-15-14-24-9-5-6-11-26(24)37)40-34(48)27(12-13-30(44)45)39-32(46)25-10-7-8-23(17-25)18-43-22(4)31(36)21(3)42-43/h5-11,17,20,27-29,50H,12-16,18-19H2,1-4H3,(H,38,47)(H,39,46)(H,40,48)(H,41,49)(H,44,45)/t27-,28-,29-/m0/s1
> <PUBCHEM_IUPAC_INCHIKEY>
VFNFTNNWWBLVRM-AWCRTANDSA-N
> <PUBCHEM_XLOGP3_AA>
5.2
> <PUBCHEM_EXACT_MASS>
790.19149
> <PUBCHEM_MOLECULAR_FORMULA>
C35H44BrClN6O6S
> <PUBCHEM_MOLECULAR_WEIGHT>
792.2
> <PUBCHEM_OPENEYE_CAN_SMILES>
CC1=C(C(=NN1CC2=CC(=CC=C2)C(=O)NC(CCC(=O)O)C(=O)NC(CC(C)C)C(=O)NC(CS)C(=O)NCCC3=CC=CC=C3Cl)C)Br
> <PUBCHEM_OPENEYE_ISO_SMILES>
CC1=C(C(=NN1CC2=CC(=CC=C2)C(=O)N[C@@H](CCC(=O)O)C(=O)N[C@@H](CC(C)C)C(=O)N[C@@H](CS)C(=O)NCCC3=CC=CC=C3Cl)C)Br
> <PUBCHEM_CACTVS_TPSA>
173
> <PUBCHEM_MONOISOTOPIC_WEIGHT>
790.19149
> <PUBCHEM_TOTAL_CHARGE>
0
> <PUBCHEM_HEAVY_ATOM_COUNT>
50
> <PUBCHEM_ATOM_DEF_STEREO_COUNT>
3
> <PUBCHEM_ATOM_UDEF_STEREO_COUNT>
0
> <PUBCHEM_BOND_DEF_STEREO_COUNT>
0
> <PUBCHEM_BOND_UDEF_STEREO_COUNT>
0
> <PUBCHEM_ISOTOPIC_ATOM_COUNT>
0
> <PUBCHEM_COMPONENT_COUNT>
1
> <PUBCHEM_CACTVS_TAUTO_COUNT>
-1
> <PUBCHEM_COORDINATE_TYPE>
1
5
255
> <PUBCHEM_BONDANNOTATIONS>
17  10  6
25  11  6
19  12  5
14  15  8
14  41  8
15  43  8
30  34  8
30  37  8
33  34  8
33  38  8
37  39  8
38  39  8
40  45  8
40  46  8
41  42  8
42  43  8
45  48  8
46  49  8
48  50  8
49  50  8
$$$$
