507550
  -OEChem-10302200282D
108111  0     1  0  0  0  0  0999 V2000
    6.3301    6.2500    0.0000 F   0  0  0  0  0  0  0  0  0  0  0  0
    4.5981    6.2500    0.0000 F   0  0  0  0  0  0  0  0  0  0  0  0
    4.5981    3.2500    0.0000 O   0  0  0  0  0  0  0  0  0  0  0  0
    5.4641   -0.2500    0.0000 O   0  0  0  0  0  0  0  0  0  0  0  0
    8.9282   -1.2500    0.0000 O   0  0  0  0  0  0  0  0  0  0  0  0
    7.1962    5.7500    0.0000 O   0  0  0  0  0  0  0  0  0  0  0  0
    8.9282    4.7500    0.0000 O   0  0  0  0  0  0  0  0  0  0  0  0
    8.9282    2.7500    0.0000 O   0  0  0  0  0  0  0  0  0  0  0  0
    9.7942    1.2500    0.0000 O   0  0  0  0  0  0  0  0  0  0  0  0
    5.6962   -2.3840    0.0000 O   0  0  0  0  0  0  0  0  0  0  0  0
    6.3301    1.2500    0.0000 N   0  0  0  0  0  0  0  0  0  0  0  0
    6.3301    3.2500    0.0000 N   0  0  0  0  0  0  0  0  0  0  0  0
    7.1962   -1.2500    0.0000 N   0  0  0  0  0  0  0  0  0  0  0  0
    7.1962   -3.2500    0.0000 N   0  0  0  0  0  0  0  0  0  0  0  0
    8.0622    4.2500    0.0000 N   0  0  0  0  0  0  0  0  0  0  0  0
    3.7320    1.7500    0.0000 C   0  0  0  0  0  0  0  0  0  0  0  0
    3.7320    2.7500    0.0000 C   0  0  0  0  0  0  0  0  0  0  0  0
    2.8660    1.2500    0.0000 C   0  0  0  0  0  0  0  0  0  0  0  0
    4.5981    1.2500    0.0000 C   0  0  0  0  0  0  0  0  0  0  0  0
    2.8660    3.2500    0.0000 C   0  0  0  0  0  0  0  0  0  0  0  0
    2.0000    1.7500    0.0000 C   0  0  0  0  0  0  0  0  0  0  0  0
    2.0000    2.7500    0.0000 C   0  0  0  0  0  0  0  0  0  0  0  0
    5.4641    1.7500    0.0000 C   0  0  1  0  0  0  0  0  0  0  0  0
    5.4641    2.7500    0.0000 C   0  0  0  0  0  0  0  0  0  0  0  0
    6.3301    0.2500    0.0000 C   0  0  0  0  0  0  0  0  0  0  0  0
    7.1962   -0.2500    0.0000 C   0  0  2  0  0  0  0  0  0  0  0  0
    6.3301    4.2500    0.0000 C   0  0  1  0  0  0  0  0  0  0  0  0
    8.0622    0.2500    0.0000 C   0  0  0  0  0  0  0  0  0  0  0  0
    5.4641    4.7500    0.0000 C   0  0  0  0  0  0  0  0  0  0  0  0
    8.0622   -2.7500    0.0000 C   0  0  2  0  0  0  0  0  0  0  0  0
    8.0622   -1.7500    0.0000 C   0  0  0  0  0  0  0  0  0  0  0  0
    8.0622    1.2500    0.0000 C   0  0  0  0  0  0  0  0  0  0  0  0
    8.9282   -3.2500    0.0000 C   0  0  0  0  0  0  0  0  0  0  0  0
    7.1962    4.7500    0.0000 C   0  0  0  0  0  0  0  0  0  0  0  0
    5.4641    5.7500    0.0000 C   0  0  0  0  0  0  0  0  0  0  0  0
    8.9282   -4.2500    0.0000 C   0  0  0  0  0  0  0  0  0  0  0  0
    9.7942   -2.7500    0.0000 C   0  0  0  0  0  0  0  0  0  0  0  0
    8.9282    1.7500    0.0000 C   0  0  0  0  0  0  0  0  0  0  0  0
    9.7942   -4.7500    0.0000 C   0  0  0  0  0  0  0  0  0  0  0  0
   10.6603   -3.2500    0.0000 C   0  0  0  0  0  0  0  0  0  0  0  0
    8.0622   -4.7500    0.0000 C   0  0  0  0  0  0  0  0  0  0  0  0
    9.7942   -1.7500    0.0000 C   0  0  0  0  0  0  0  0  0  0  0  0
    6.1962   -3.2500    0.0000 C   0  0  0  0  0  0  0  0  0  0  0  0
    9.7942   -5.7500    0.0000 C   0  0  0  0  0  0  0  0  0  0  0  0
   11.5263   -2.7500    0.0000 C   0  0  0  0  0  0  0  0  0  0  0  0
    8.0622   -5.7500    0.0000 C   0  0  0  0  0  0  0  0  0  0  0  0
   10.6603   -1.2500    0.0000 C   0  0  0  0  0  0  0  0  0  0  0  0
    8.9282   -6.2500    0.0000 C   0  0  0  0  0  0  0  0  0  0  0  0
   11.5263   -1.7500    0.0000 C   0  0  0  0  0  0  0  0  0  0  0  0
    5.6961   -4.1159    0.0000 C   0  0  0  0  0  0  0  0  0  0  0  0
    9.7942    4.2500    0.0000 C   0  0  0  0  0  0  0  0  0  0  0  0
   10.6603    4.7500    0.0000 C   0  0  0  0  0  0  0  0  0  0  0  0
   11.5263    4.2500    0.0000 C   0  0  0  0  0  0  0  0  0  0  0  0
   10.6603    5.7500    0.0000 C   0  0  0  0  0  0  0  0  0  0  0  0
   12.3923    4.7500    0.0000 C   0  0  0  0  0  0  0  0  0  0  0  0
   11.5263    6.2500    0.0000 C   0  0  0  0  0  0  0  0  0  0  0  0
   12.3923    5.7500    0.0000 C   0  0  0  0  0  0  0  0  0  0  0  0
    3.7320    1.1300    0.0000 H   0  0  0  0  0  0  0  0  0  0  0  0
    4.3426    2.6423    0.0000 H   0  0  0  0  0  0  0  0  0  0  0  0
    3.9441    3.3326    0.0000 H   0  0  0  0  0  0  0  0  0  0  0  0
    2.4675    0.7751    0.0000 H   0  0  0  0  0  0  0  0  0  0  0  0
    3.2646    0.7751    0.0000 H   0  0  0  0  0  0  0  0  0  0  0  0
    4.1996    0.7751    0.0000 H   0  0  0  0  0  0  0  0  0  0  0  0
    4.9966    0.7751    0.0000 H   0  0  0  0  0  0  0  0  0  0  0  0
    3.2646    3.7250    0.0000 H   0  0  0  0  0  0  0  0  0  0  0  0
    2.4675    3.7250    0.0000 H   0  0  0  0  0  0  0  0  0  0  0  0
    1.3894    1.8577    0.0000 H   0  0  0  0  0  0  0  0  0  0  0  0
    1.7880    1.1674    0.0000 H   0  0  0  0  0  0  0  0  0  0  0  0
    1.7880    3.3326    0.0000 H   0  0  0  0  0  0  0  0  0  0  0  0
    1.3894    2.6423    0.0000 H   0  0  0  0  0  0  0  0  0  0  0  0
    5.4641    1.1300    0.0000 H   0  0  0  0  0  0  0  0  0  0  0  0
    6.8671    1.5600    0.0000 H   0  0  0  0  0  0  0  0  0  0  0  0
    6.8671    2.9400    0.0000 H   0  0  0  0  0  0  0  0  0  0  0  0
    6.6592   -0.5600    0.0000 H   0  0  0  0  0  0  0  0  0  0  0  0
    6.8671    3.9400    0.0000 H   0  0  0  0  0  0  0  0  0  0  0  0
    8.2742   -0.3326    0.0000 H   0  0  0  0  0  0  0  0  0  0  0  0
    8.6728    0.3577    0.0000 H   0  0  0  0  0  0  0  0  0  0  0  0
    6.6592   -1.5600    0.0000 H   0  0  0  0  0  0  0  0  0  0  0  0
    4.8535    4.8577    0.0000 H   0  0  0  0  0  0  0  0  0  0  0  0
    5.2520    4.1674    0.0000 H   0  0  0  0  0  0  0  0  0  0  0  0
    8.0622   -3.3700    0.0000 H   0  0  0  0  0  0  0  0  0  0  0  0
    8.9282   -2.6300    0.0000 H   0  0  0  0  0  0  0  0  0  0  0  0
    7.8501    1.8326    0.0000 H   0  0  0  0  0  0  0  0  0  0  0  0
    7.4516    1.1423    0.0000 H   0  0  0  0  0  0  0  0  0  0  0  0
    5.4641    6.3700    0.0000 H   0  0  0  0  0  0  0  0  0  0  0  0
    7.1962   -3.8700    0.0000 H   0  0  0  0  0  0  0  0  0  0  0  0
    8.0622    3.6300    0.0000 H   0  0  0  0  0  0  0  0  0  0  0  0
   10.3312   -4.4400    0.0000 H   0  0  0  0  0  0  0  0  0  0  0  0
   10.6603   -3.8700    0.0000 H   0  0  0  0  0  0  0  0  0  0  0  0
    7.5252   -4.4400    0.0000 H   0  0  0  0  0  0  0  0  0  0  0  0
    9.2573   -1.4400    0.0000 H   0  0  0  0  0  0  0  0  0  0  0  0
   10.3312   -6.0600    0.0000 H   0  0  0  0  0  0  0  0  0  0  0  0
   12.0632   -3.0600    0.0000 H   0  0  0  0  0  0  0  0  0  0  0  0
    7.5252   -6.0600    0.0000 H   0  0  0  0  0  0  0  0  0  0  0  0
   10.6603   -0.6300    0.0000 H   0  0  0  0  0  0  0  0  0  0  0  0
    8.9282   -6.8700    0.0000 H   0  0  0  0  0  0  0  0  0  0  0  0
   12.0632   -1.4400    0.0000 H   0  0  0  0  0  0  0  0  0  0  0  0
    5.1592   -3.8059    0.0000 H   0  0  0  0  0  0  0  0  0  0  0  0
    5.3861   -4.6528    0.0000 H   0  0  0  0  0  0  0  0  0  0  0  0
    6.2330   -4.4260    0.0000 H   0  0  0  0  0  0  0  0  0  0  0  0
    9.4651    3.0600    0.0000 H   0  0  0  0  0  0  0  0  0  0  0  0
    9.3957    3.7750    0.0000 H   0  0  0  0  0  0  0  0  0  0  0  0
   10.1928    3.7750    0.0000 H   0  0  0  0  0  0  0  0  0  0  0  0
   11.5263    3.6300    0.0000 H   0  0  0  0  0  0  0  0  0  0  0  0
   10.1233    6.0600    0.0000 H   0  0  0  0  0  0  0  0  0  0  0  0
   12.9292    4.4400    0.0000 H   0  0  0  0  0  0  0  0  0  0  0  0
   11.5263    6.8700    0.0000 H   0  0  0  0  0  0  0  0  0  0  0  0
   12.9292    6.0600    0.0000 H   0  0  0  0  0  0  0  0  0  0  0  0
  1 35  1  0  0  0  0
  2 35  1  0  0  0  0
  3 24  2  0  0  0  0
  4 25  2  0  0  0  0
  5 31  2  0  0  0  0
  6 34  2  0  0  0  0
  7 15  1  0  0  0  0
  7 51  1  0  0  0  0
  8 38  1  0  0  0  0
  8101  1  0  0  0  0
  9 38  2  0  0  0  0
 10 43  2  0  0  0  0
 23 11  1  1  0  0  0
 11 25  1  0  0  0  0
 11 72  1  0  0  0  0
 12 24  1  0  0  0  0
 27 12  1  1  0  0  0
 12 73  1  0  0  0  0
 26 13  1  6  0  0  0
 13 31  1  0  0  0  0
 13 78  1  0  0  0  0
 30 14  1  6  0  0  0
 14 43  1  0  0  0  0
 14 86  1  0  0  0  0
 15 34  1  0  0  0  0
 15 87  1  0  0  0  0
 16 17  1  0  0  0  0
 16 18  1  0  0  0  0
 16 19  1  0  0  0  0
 16 58  1  0  0  0  0
 17 20  1  0  0  0  0
 17 59  1  0  0  0  0
 17 60  1  0  0  0  0
 18 21  1  0  0  0  0
 18 61  1  0  0  0  0
 18 62  1  0  0  0  0
 19 23  1  0  0  0  0
 19 63  1  0  0  0  0
 19 64  1  0  0  0  0
 20 22  1  0  0  0  0
 20 65  1  0  0  0  0
 20 66  1  0  0  0  0
 21 22  1  0  0  0  0
 21 67  1  0  0  0  0
 21 68  1  0  0  0  0
 22 69  1  0  0  0  0
 22 70  1  0  0  0  0
 23 24  1  0  0  0  0
 23 71  1  0  0  0  0
 25 26  1  0  0  0  0
 26 28  1  0  0  0  0
 26 74  1  0  0  0  0
 27 29  1  0  0  0  0
 27 34  1  0  0  0  0
 27 75  1  0  0  0  0
 28 32  1  0  0  0  0
 28 76  1  0  0  0  0
 28 77  1  0  0  0  0
 29 35  1  0  0  0  0
 29 79  1  0  0  0  0
 29 80  1  0  0  0  0
 30 31  1  0  0  0  0
 30 33  1  0  0  0  0
 30 81  1  0  0  0  0
 32 38  1  0  0  0  0
 32 83  1  0  0  0  0
 32 84  1  0  0  0  0
 33 36  1  0  0  0  0
 33 37  1  0  0  0  0
 33 82  1  0  0  0  0
 35 85  1  0  0  0  0
 36 39  2  0  0  0  0
 36 41  1  0  0  0  0
 37 40  2  0  0  0  0
 37 42  1  0  0  0  0
 39 44  1  0  0  0  0
 39 88  1  0  0  0  0
 40 45  1  0  0  0  0
 40 89  1  0  0  0  0
 41 46  2  0  0  0  0
 41 90  1  0  0  0  0
 42 47  2  0  0  0  0
 42 91  1  0  0  0  0
 43 50  1  0  0  0  0
 44 48  2  0  0  0  0
 44 92  1  0  0  0  0
 45 49  2  0  0  0  0
 45 93  1  0  0  0  0
 46 48  1  0  0  0  0
 46 94  1  0  0  0  0
 47 49  1  0  0  0  0
 47 95  1  0  0  0  0
 48 96  1  0  0  0  0
 49 97  1  0  0  0  0
 50 98  1  0  0  0  0
 50 99  1  0  0  0  0
 50100  1  0  0  0  0
 51 52  1  0  0  0  0
 51102  1  0  0  0  0
 51103  1  0  0  0  0
 52 53  2  0  0  0  0
 52 54  1  0  0  0  0
 53 55  1  0  0  0  0
 53104  1  0  0  0  0
 54 56  2  0  0  0  0
 54105  1  0  0  0  0
 55 57  2  0  0  0  0
 55106  1  0  0  0  0
 56 57  1  0  0  0  0
 56107  1  0  0  0  0
 57108  1  0  0  0  0
M  END
> <PUBCHEM_COMPOUND_CID>
507550
> <PUBCHEM_COMPOUND_CANONICALIZED>
1
> <PUBCHEM_CACTVS_COMPLEXITY>
1280
> <PUBCHEM_CACTVS_HBOND_ACCEPTOR>
10
> <PUBCHEM_CACTVS_HBOND_DONOR>
6
> <PUBCHEM_CACTVS_ROTATABLE_BOND>
21
> <PUBCHEM_CACTVS_SUBSKEYS>
AAADcfB/vYAAAAAAAAAAAAAAAAAAAAAAAAAwYMGAAAAAAAABUAAAHwAUCAAADSjhmBYyCILQAgCIAiHSGAACAAAgAAAoiIGICIgIZjKAkTGUcAAk1gGIiAe83+KOgAAAAAAAAAAAAAAAAAAAAAAAAAAAAA==
> <PUBCHEM_IUPAC_OPENEYE_NAME>
(4S)-4-[[(2S)-2-acetamido-3,3-diphenyl-propanoyl]amino]-5-[[(1S)-2-[[(1S)-1-(benzyloxycarbamoyl)-3,3-difluoro-propyl]amino]-1-(cyclohexylmethyl)-2-oxo-ethyl]amino]-5-oxo-pentanoic acid
> <PUBCHEM_IUPAC_CAS_NAME>
(4S)-4-[[(2S)-2-acetamido-1-oxo-3,3-diphenylpropyl]amino]-5-[[(2S)-3-cyclohexyl-1-[[(2S)-4,4-difluoro-1-oxo-1-(phenylmethoxyamino)butan-2-yl]amino]-1-oxopropan-2-yl]amino]-5-oxopentanoic acid
> <PUBCHEM_IUPAC_NAME_MARKUP>
(4<I>S</I>)-4-[[(2<I>S</I>)-2-acetamido-3,3-diphenylpropanoyl]amino]-5-[[(2<I>S</I>)-3-cyclohexyl-1-[[(2<I>S</I>)-4,4-difluoro-1-oxo-1-(phenylmethoxyamino)butan-2-yl]amino]-1-oxopropan-2-yl]amino]-5-oxopentanoic acid
> <PUBCHEM_IUPAC_NAME>
(4S)-4-[[(2S)-2-acetamido-3,3-diphenylpropanoyl]amino]-5-[[(2S)-3-cyclohexyl-1-[[(2S)-4,4-difluoro-1-oxo-1-(phenylmethoxyamino)butan-2-yl]amino]-1-oxopropan-2-yl]amino]-5-oxopentanoic acid
> <PUBCHEM_IUPAC_SYSTEMATIC_NAME>
(4S)-4-[[(2S)-2-acetamido-3,3-diphenyl-propanoyl]amino]-5-[[(2S)-1-[[(2S)-4,4-bis(fluoranyl)-1-oxidanylidene-1-(phenylmethoxyamino)butan-2-yl]amino]-3-cyclohexyl-1-oxidanylidene-propan-2-yl]amino]-5-oxidanylidene-pentanoic acid
> <PUBCHEM_IUPAC_TRADITIONAL_NAME>
(4S)-4-[[(2S)-2-acetamido-3,3-diphenyl-propanoyl]amino]-5-[[(1S)-2-[[(1S)-1-(benzoxycarbamoyl)-3,3-difluoro-propyl]amino]-1-(cyclohexylmethyl)-2-keto-ethyl]amino]-5-keto-valeric acid
> <PUBCHEM_IUPAC_INCHI>
InChI=1S/C42H51F2N5O8/c1-27(50)45-38(37(30-18-10-4-11-19-30)31-20-12-5-13-21-31)42(56)46-32(22-23-36(51)52)39(53)47-33(24-28-14-6-2-7-15-28)40(54)48-34(25-35(43)44)41(55)49-57-26-29-16-8-3-9-17-29/h3-5,8-13,16-21,28,32-35,37-38H,2,6-7,14-15,22-26H2,1H3,(H,45,50)(H,46,56)(H,47,53)(H,48,54)(H,49,55)(H,51,52)/t32-,33-,34-,38-/m0/s1
> <PUBCHEM_IUPAC_INCHIKEY>
CEKXZQCJOSOVAZ-QFOROZRWSA-N
> <PUBCHEM_XLOGP3_AA>
6.2
> <PUBCHEM_EXACT_MASS>
791.37056993
> <PUBCHEM_MOLECULAR_FORMULA>
C42H51F2N5O8
> <PUBCHEM_MOLECULAR_WEIGHT>
791.9
> <PUBCHEM_OPENEYE_CAN_SMILES>
CC(=O)NC(C(C1=CC=CC=C1)C2=CC=CC=C2)C(=O)NC(CCC(=O)O)C(=O)NC(CC3CCCCC3)C(=O)NC(CC(F)F)C(=O)NOCC4=CC=CC=C4
> <PUBCHEM_OPENEYE_ISO_SMILES>
CC(=O)N[C@@H](C(C1=CC=CC=C1)C2=CC=CC=C2)C(=O)N[C@@H](CCC(=O)O)C(=O)N[C@@H](CC3CCCCC3)C(=O)N[C@@H](CC(F)F)C(=O)NOCC4=CC=CC=C4
> <PUBCHEM_CACTVS_TPSA>
192
> <PUBCHEM_MONOISOTOPIC_WEIGHT>
791.37056993
> <PUBCHEM_TOTAL_CHARGE>
0
> <PUBCHEM_HEAVY_ATOM_COUNT>
57
> <PUBCHEM_ATOM_DEF_STEREO_COUNT>
4
> <PUBCHEM_ATOM_UDEF_STEREO_COUNT>
0
> <PUBCHEM_BOND_DEF_STEREO_COUNT>
0
> <PUBCHEM_BOND_UDEF_STEREO_COUNT>
0
> <PUBCHEM_ISOTOPIC_ATOM_COUNT>
0
> <PUBCHEM_COMPONENT_COUNT>
1
> <PUBCHEM_CACTVS_TAUTO_COUNT>
-1
> <PUBCHEM_COORDINATE_TYPE>
1
5
255
> <PUBCHEM_BONDANNOTATIONS>
23  11  5
27  12  5
26  13  6
30  14  6
36  39  8
36  41  8
37  40  8
37  42  8
39  44  8
40  45  8
41  46  8
42  47  8
44  48  8
45  49  8
46  48  8
47  49  8
52  53  8
52  54  8
53  55  8
54  56  8
55  57  8
56  57  8
$$$$
