507627
  -OEChem-10302200282D
101104  0     1  0  0  0  0  0999 V2000
    5.4641    3.8385    0.0000 F   0  0  0  0  0  0  0  0  0  0  0  0
    3.7320    3.8385    0.0000 F   0  0  0  0  0  0  0  0  0  0  0  0
    5.4641   -2.1615    0.0000 F   0  0  0  0  0  0  0  0  0  0  0  0
    2.0000   -2.1615    0.0000 F   0  0  0  0  0  0  0  0  0  0  0  0
    8.4405    0.2844    0.0000 O   0  0  0  0  0  0  0  0  0  0  0  0
    7.1962    0.8385    0.0000 O   0  0  0  0  0  0  0  0  0  0  0  0
   12.5720    1.6738    0.0000 O   0  0  0  0  0  0  0  0  0  0  0  0
   12.0368    0.0265    0.0000 O   0  0  0  0  0  0  0  0  0  0  0  0
    6.3301    0.3385    0.0000 O   0  0  0  0  0  0  0  0  0  0  0  0
    2.8660   -5.6615    0.0000 O   0  0  0  0  0  0  0  0  0  0  0  0
    4.5981   -5.6615    0.0000 O   0  0  0  0  0  0  0  0  0  0  0  0
    8.9757    1.9317    0.0000 N   0  0  0  0  0  0  0  0  0  0  0  0
   10.8778    1.3137    0.0000 N   0  0  0  0  0  0  0  0  0  0  0  0
    6.3301    2.3385    0.0000 N   0  0  0  0  0  0  0  0  0  0  0  0
    4.5981    0.3385    0.0000 N   0  0  0  0  0  0  0  0  0  0  0  0
    9.1448    3.5409    0.0000 C   0  0  2  0  0  0  0  0  0  0  0  0
    9.5516    4.4544    0.0000 C   0  0  0  0  0  0  0  0  0  0  0  0
    8.1667    3.3330    0.0000 C   0  0  0  0  0  0  0  0  0  0  0  0
    9.6448    2.6749    0.0000 C   0  0  0  0  0  0  0  0  0  0  0  0
    8.0622    2.3385    0.0000 C   0  0  1  0  0  0  0  0  0  0  0  0
    8.9638    5.2635    0.0000 C   0  0  0  0  0  0  0  0  0  0  0  0
   10.5461    4.5590    0.0000 C   0  0  0  0  0  0  0  0  0  0  0  0
    9.3705    6.1770    0.0000 C   0  0  0  0  0  0  0  0  0  0  0  0
   10.9528    5.4725    0.0000 C   0  0  0  0  0  0  0  0  0  0  0  0
   10.3651    6.2815    0.0000 C   0  0  0  0  0  0  0  0  0  0  0  0
   10.3426   -0.3336    0.0000 C   0  0  0  0  0  0  0  0  0  0  0  0
   10.1347    0.6446    0.0000 C   0  0  1  0  0  0  0  0  0  0  0  0
    9.1836    0.9536    0.0000 C   0  0  0  0  0  0  0  0  0  0  0  0
    7.1962    1.8385    0.0000 C   0  0  0  0  0  0  0  0  0  0  0  0
   11.2561   -0.7403    0.0000 C   0  0  0  0  0  0  0  0  0  0  0  0
    9.6735   -1.0767    0.0000 C   0  0  0  0  0  0  0  0  0  0  0  0
   11.1516   -1.7348    0.0000 C   0  0  0  0  0  0  0  0  0  0  0  0
   10.1735   -1.9428    0.0000 C   0  0  0  0  0  0  0  0  0  0  0  0
    5.4641    1.8385    0.0000 C   0  0  1  0  0  0  0  0  0  0  0  0
   11.8289    1.0047    0.0000 C   0  0  0  0  0  0  0  0  0  0  0  0
    4.5981    2.3385    0.0000 C   0  0  0  0  0  0  0  0  0  0  0  0
    5.4641    0.8385    0.0000 C   0  0  0  0  0  0  0  0  0  0  0  0
    4.5981    3.3385    0.0000 C   0  0  0  0  0  0  0  0  0  0  0  0
   13.5231    1.3648    0.0000 C   0  0  0  0  0  0  0  0  0  0  0  0
    4.5981   -0.6615    0.0000 C   0  0  0  0  0  0  0  0  0  0  0  0
   14.2662    2.0339    0.0000 C   0  0  0  0  0  0  0  0  0  0  0  0
    3.7320   -1.1615    0.0000 C   0  0  0  0  0  0  0  0  0  0  0  0
   15.2173    1.7249    0.0000 C   0  0  0  0  0  0  0  0  0  0  0  0
   14.0583    3.0121    0.0000 C   0  0  0  0  0  0  0  0  0  0  0  0
    3.7320   -2.1615    0.0000 C   0  0  0  0  0  0  0  0  0  0  0  0
    4.5981   -2.6615    0.0000 C   0  0  0  0  0  0  0  0  0  0  0  0
    2.8660   -2.6615    0.0000 C   0  0  0  0  0  0  0  0  0  0  0  0
    4.5981   -3.6615    0.0000 C   0  0  0  0  0  0  0  0  0  0  0  0
    2.8660   -3.6615    0.0000 C   0  0  0  0  0  0  0  0  0  0  0  0
    3.7320   -4.1615    0.0000 C   0  0  0  0  0  0  0  0  0  0  0  0
    3.7320   -5.1615    0.0000 C   0  0  0  0  0  0  0  0  0  0  0  0
    8.6099    4.2015    0.0000 H   0  0  0  0  0  0  0  0  0  0  0  0
    9.9160    3.9528    0.0000 H   0  0  0  0  0  0  0  0  0  0  0  0
    8.1019    3.9496    0.0000 H   0  0  0  0  0  0  0  0  0  0  0  0
    7.5467    3.3330    0.0000 H   0  0  0  0  0  0  0  0  0  0  0  0
   10.0597    2.2141    0.0000 H   0  0  0  0  0  0  0  0  0  0  0  0
   10.1464    3.0393    0.0000 H   0  0  0  0  0  0  0  0  0  0  0  0
    8.0946    1.7193    0.0000 H   0  0  0  0  0  0  0  0  0  0  0  0
    8.4498    5.6102    0.0000 H   0  0  0  0  0  0  0  0  0  0  0  0
    8.5331    4.8175    0.0000 H   0  0  0  0  0  0  0  0  0  0  0  0
   10.5029    3.9405    0.0000 H   0  0  0  0  0  0  0  0  0  0  0  0
   11.1477    4.4090    0.0000 H   0  0  0  0  0  0  0  0  0  0  0  0
    9.4138    6.7955    0.0000 H   0  0  0  0  0  0  0  0  0  0  0  0
    8.7690    6.3270    0.0000 H   0  0  0  0  0  0  0  0  0  0  0  0
   11.4669    5.1258    0.0000 H   0  0  0  0  0  0  0  0  0  0  0  0
   11.3835    5.9185    0.0000 H   0  0  0  0  0  0  0  0  0  0  0  0
   10.9223    6.5533    0.0000 H   0  0  0  0  0  0  0  0  0  0  0  0
   10.1942    6.8775    0.0000 H   0  0  0  0  0  0  0  0  0  0  0  0
    9.7437   -0.1731    0.0000 H   0  0  0  0  0  0  0  0  0  0  0  0
   10.0058    1.2510    0.0000 H   0  0  0  0  0  0  0  0  0  0  0  0
   11.8626   -0.8692    0.0000 H   0  0  0  0  0  0  0  0  0  0  0  0
   11.4477   -0.1507    0.0000 H   0  0  0  0  0  0  0  0  0  0  0  0
    9.2586   -0.6160    0.0000 H   0  0  0  0  0  0  0  0  0  0  0  0
    9.1719   -1.4412    0.0000 H   0  0  0  0  0  0  0  0  0  0  0  0
   11.2164   -2.3514    0.0000 H   0  0  0  0  0  0  0  0  0  0  0  0
   11.7716   -1.7348    0.0000 H   0  0  0  0  0  0  0  0  0  0  0  0
    9.6071   -2.1949    0.0000 H   0  0  0  0  0  0  0  0  0  0  0  0
   10.3651   -2.5324    0.0000 H   0  0  0  0  0  0  0  0  0  0  0  0
   10.7489    1.9202    0.0000 H   0  0  0  0  0  0  0  0  0  0  0  0
    6.3301    2.9585    0.0000 H   0  0  0  0  0  0  0  0  0  0  0  0
    5.4641    2.4585    0.0000 H   0  0  0  0  0  0  0  0  0  0  0  0
    3.9875    2.4461    0.0000 H   0  0  0  0  0  0  0  0  0  0  0  0
    4.3860    1.7559    0.0000 H   0  0  0  0  0  0  0  0  0  0  0  0
    4.5981    3.9585    0.0000 H   0  0  0  0  0  0  0  0  0  0  0  0
    4.0611    0.6485    0.0000 H   0  0  0  0  0  0  0  0  0  0  0  0
   13.2320    0.8174    0.0000 H   0  0  0  0  0  0  0  0  0  0  0  0
   14.0117    0.9831    0.0000 H   0  0  0  0  0  0  0  0  0  0  0  0
    4.8101   -1.2441    0.0000 H   0  0  0  0  0  0  0  0  0  0  0  0
    5.2087   -0.5539    0.0000 H   0  0  0  0  0  0  0  0  0  0  0  0
   13.6766    2.2255    0.0000 H   0  0  0  0  0  0  0  0  0  0  0  0
    3.5200   -0.5789    0.0000 H   0  0  0  0  0  0  0  0  0  0  0  0
    3.1215   -1.2692    0.0000 H   0  0  0  0  0  0  0  0  0  0  0  0
   15.0257    1.1353    0.0000 H   0  0  0  0  0  0  0  0  0  0  0  0
   15.8070    1.5333    0.0000 H   0  0  0  0  0  0  0  0  0  0  0  0
   15.4089    2.3146    0.0000 H   0  0  0  0  0  0  0  0  0  0  0  0
   14.6648    3.1410    0.0000 H   0  0  0  0  0  0  0  0  0  0  0  0
   13.9294    3.6185    0.0000 H   0  0  0  0  0  0  0  0  0  0  0  0
   13.4519    2.8832    0.0000 H   0  0  0  0  0  0  0  0  0  0  0  0
    5.1350   -3.9715    0.0000 H   0  0  0  0  0  0  0  0  0  0  0  0
    2.3291   -3.9715    0.0000 H   0  0  0  0  0  0  0  0  0  0  0  0
    2.8660   -6.2815    0.0000 H   0  0  0  0  0  0  0  0  0  0  0  0
  1 38  1  0  0  0  0
  2 38  1  0  0  0  0
  3 46  1  0  0  0  0
  4 47  1  0  0  0  0
  5 28  2  0  0  0  0
  6 29  2  0  0  0  0
  7 35  1  0  0  0  0
  7 39  1  0  0  0  0
  8 35  2  0  0  0  0
  9 37  2  0  0  0  0
 10 51  1  0  0  0  0
 10101  1  0  0  0  0
 11 51  2  0  0  0  0
 12 19  1  0  0  0  0
 12 20  1  0  0  0  0
 12 28  1  0  0  0  0
 27 13  1  1  0  0  0
 13 35  1  0  0  0  0
 13 79  1  0  0  0  0
 14 29  1  0  0  0  0
 34 14  1  6  0  0  0
 14 80  1  0  0  0  0
 15 37  1  0  0  0  0
 15 40  1  0  0  0  0
 15 85  1  0  0  0  0
 16 17  1  0  0  0  0
 16 18  1  0  0  0  0
 16 19  1  0  0  0  0
 16 52  1  6  0  0  0
 17 21  1  0  0  0  0
 17 22  1  0  0  0  0
 17 53  1  0  0  0  0
 18 20  1  0  0  0  0
 18 54  1  0  0  0  0
 18 55  1  0  0  0  0
 19 56  1  0  0  0  0
 19 57  1  0  0  0  0
 20 29  1  6  0  0  0
 20 58  1  0  0  0  0
 21 23  1  0  0  0  0
 21 59  1  0  0  0  0
 21 60  1  0  0  0  0
 22 24  1  0  0  0  0
 22 61  1  0  0  0  0
 22 62  1  0  0  0  0
 23 25  1  0  0  0  0
 23 63  1  0  0  0  0
 23 64  1  0  0  0  0
 24 25  1  0  0  0  0
 24 65  1  0  0  0  0
 24 66  1  0  0  0  0
 25 67  1  0  0  0  0
 25 68  1  0  0  0  0
 26 27  1  0  0  0  0
 26 30  1  0  0  0  0
 26 31  1  0  0  0  0
 26 69  1  0  0  0  0
 27 28  1  0  0  0  0
 27 70  1  0  0  0  0
 30 32  1  0  0  0  0
 30 71  1  0  0  0  0
 30 72  1  0  0  0  0
 31 33  1  0  0  0  0
 31 73  1  0  0  0  0
 31 74  1  0  0  0  0
 32 33  1  0  0  0  0
 32 75  1  0  0  0  0
 32 76  1  0  0  0  0
 33 77  1  0  0  0  0
 33 78  1  0  0  0  0
 34 36  1  0  0  0  0
 34 37  1  0  0  0  0
 34 81  1  0  0  0  0
 36 38  1  0  0  0  0
 36 82  1  0  0  0  0
 36 83  1  0  0  0  0
 38 84  1  0  0  0  0
 39 41  1  0  0  0  0
 39 86  1  0  0  0  0
 39 87  1  0  0  0  0
 40 42  1  0  0  0  0
 40 88  1  0  0  0  0
 40 89  1  0  0  0  0
 41 43  1  0  0  0  0
 41 44  1  0  0  0  0
 41 90  1  0  0  0  0
 42 45  1  0  0  0  0
 42 91  1  0  0  0  0
 42 92  1  0  0  0  0
 43 93  1  0  0  0  0
 43 94  1  0  0  0  0
 43 95  1  0  0  0  0
 44 96  1  0  0  0  0
 44 97  1  0  0  0  0
 44 98  1  0  0  0  0
 45 46  2  0  0  0  0
 45 47  1  0  0  0  0
 46 48  1  0  0  0  0
 47 49  2  0  0  0  0
 48 50  2  0  0  0  0
 48 99  1  0  0  0  0
 49 50  1  0  0  0  0
 49100  1  0  0  0  0
 50 51  1  0  0  0  0
M  END
> <PUBCHEM_COMPOUND_CID>
507627
> <PUBCHEM_COMPOUND_CANONICALIZED>
1
> <PUBCHEM_CACTVS_COMPLEXITY>
1190
> <PUBCHEM_CACTVS_HBOND_ACCEPTOR>
11
> <PUBCHEM_CACTVS_HBOND_DONOR>
4
> <PUBCHEM_CACTVS_ROTATABLE_BOND>
16
> <PUBCHEM_CACTVS_SUBSKEYS>
AAADcfB/ucAAAAAAAAAAAAAAAAAAAeIAAAAwYAAAAAAAAAABAAAAHwAQCAAADSjhmB4yCIPABgCIAiHSGAACAAAkAAAAiIGICMkIZjKAlTGccQAk1gGImYeYyfCOwAAAAAAAAACAAAAAAAAAAAAAAAAAAA==
> <PUBCHEM_IUPAC_OPENEYE_NAME>
4-[2-[[(2S)-2-[[(2S,4S)-4-cyclohexyl-1-[(2S)-2-cyclopentyl-2-(isobutoxycarbonylamino)acetyl]pyrrolidine-2-carbonyl]amino]-4,4-difluoro-butanoyl]amino]ethyl]-3,5-difluoro-benzoic acid
> <PUBCHEM_IUPAC_CAS_NAME>
4-[2-[[(2S)-2-[[[(2S,4S)-4-cyclohexyl-1-[(2S)-2-cyclopentyl-2-[[2-methylpropoxy(oxo)methyl]amino]-1-oxoethyl]-2-pyrrolidinyl]-oxomethyl]amino]-4,4-difluoro-1-oxobutyl]amino]ethyl]-3,5-difluorobenzoic acid
> <PUBCHEM_IUPAC_NAME_MARKUP>
4-[2-[[(2<I>S</I>)-2-[[(2<I>S</I>,4<I>S</I>)-4-cyclohexyl-1-[(2<I>S</I>)-2-cyclopentyl-2-(2-methylpropoxycarbonylamino)acetyl]pyrrolidine-2-carbonyl]amino]-4,4-difluorobutanoyl]amino]ethyl]-3,5-difluorobenzoic acid
> <PUBCHEM_IUPAC_NAME>
4-[2-[[(2S)-2-[[(2S,4S)-4-cyclohexyl-1-[(2S)-2-cyclopentyl-2-(2-methylpropoxycarbonylamino)acetyl]pyrrolidine-2-carbonyl]amino]-4,4-difluorobutanoyl]amino]ethyl]-3,5-difluorobenzoic acid
> <PUBCHEM_IUPAC_SYSTEMATIC_NAME>
4-[2-[[(2S)-2-[[(2S,4S)-4-cyclohexyl-1-[(2S)-2-cyclopentyl-2-(2-methylpropoxycarbonylamino)ethanoyl]pyrrolidin-2-yl]carbonylamino]-4,4-bis(fluoranyl)butanoyl]amino]ethyl]-3,5-bis(fluoranyl)benzoic acid
> <PUBCHEM_IUPAC_TRADITIONAL_NAME>
4-[2-[[(2S)-2-[[(2S,4S)-4-cyclohexyl-1-[(2S)-2-cyclopentyl-2-(isobutoxycarbonylamino)acetyl]prolyl]amino]-4,4-difluoro-butanoyl]amino]ethyl]-3,5-difluoro-benzoic acid
> <PUBCHEM_IUPAC_INCHI>
InChI=1S/C36H50F4N4O7/c1-20(2)19-51-36(50)43-31(22-10-6-7-11-22)34(47)44-18-24(21-8-4-3-5-9-21)16-29(44)33(46)42-28(17-30(39)40)32(45)41-13-12-25-26(37)14-23(35(48)49)15-27(25)38/h14-15,20-22,24,28-31H,3-13,16-19H2,1-2H3,(H,41,45)(H,42,46)(H,43,50)(H,48,49)/t24-,28+,29+,31+/m1/s1
> <PUBCHEM_IUPAC_INCHIKEY>
GQUOLTKENFLXMA-IAYSKZJSSA-N
> <PUBCHEM_XLOGP3_AA>
7.4
> <PUBCHEM_EXACT_MASS>
726.36156259
> <PUBCHEM_MOLECULAR_FORMULA>
C36H50F4N4O7
> <PUBCHEM_MOLECULAR_WEIGHT>
726.8
> <PUBCHEM_OPENEYE_CAN_SMILES>
CC(C)COC(=O)NC(C1CCCC1)C(=O)N2CC(CC2C(=O)NC(CC(F)F)C(=O)NCCC3=C(C=C(C=C3F)C(=O)O)F)C4CCCCC4
> <PUBCHEM_OPENEYE_ISO_SMILES>
CC(C)COC(=O)N[C@@H](C1CCCC1)C(=O)N2C[C@@H](C[C@H]2C(=O)N[C@@H](CC(F)F)C(=O)NCCC3=C(C=C(C=C3F)C(=O)O)F)C4CCCCC4
> <PUBCHEM_CACTVS_TPSA>
154
> <PUBCHEM_MONOISOTOPIC_WEIGHT>
726.36156259
> <PUBCHEM_TOTAL_CHARGE>
0
> <PUBCHEM_HEAVY_ATOM_COUNT>
51
> <PUBCHEM_ATOM_DEF_STEREO_COUNT>
4
> <PUBCHEM_ATOM_UDEF_STEREO_COUNT>
0
> <PUBCHEM_BOND_DEF_STEREO_COUNT>
0
> <PUBCHEM_BOND_UDEF_STEREO_COUNT>
0
> <PUBCHEM_ISOTOPIC_ATOM_COUNT>
0
> <PUBCHEM_COMPONENT_COUNT>
1
> <PUBCHEM_CACTVS_TAUTO_COUNT>
-1
> <PUBCHEM_COORDINATE_TYPE>
1
5
255
> <PUBCHEM_BONDANNOTATIONS>
27  13  5
34  14  6
16  52  6
20  29  6
45  46  8
45  47  8
46  48  8
47  49  8
48  50  8
49  50  8
$$$$
