507661
  -OEChem-10302200282D
101104  0     1  0  0  0  0  0999 V2000
   11.2619    0.8159    0.0000 F   0  0  0  0  0  0  0  0  0  0  0  0
   11.2619    2.5479    0.0000 F   0  0  0  0  0  0  0  0  0  0  0  0
    7.7079   -2.1605    0.0000 O   0  0  0  0  0  0  0  0  0  0  0  0
    8.2619   -0.9162    0.0000 O   0  0  0  0  0  0  0  0  0  0  0  0
    5.8027   -5.2216    0.0000 O   0  0  0  0  0  0  0  0  0  0  0  0
    7.7619   -0.0502    0.0000 O   0  0  0  0  0  0  0  0  0  0  0  0
    7.4499   -5.7568    0.0000 O   0  0  0  0  0  0  0  0  0  0  0  0
    3.9639    6.7423    0.0000 O   0  0  0  0  0  0  0  0  0  0  0  0
    5.6103    6.2042    0.0000 O   0  0  0  0  0  0  0  0  0  0  0  0
    9.3551   -2.6958    0.0000 N   0  0  0  0  0  0  0  0  0  0  0  0
    9.7619   -0.0502    0.0000 N   0  0  0  0  0  0  0  0  0  0  0  0
    7.0898   -4.0626    0.0000 N   0  0  0  0  0  0  0  0  0  0  0  0
    7.7619    1.6819    0.0000 N   0  0  0  0  0  0  0  0  0  0  0  0
    4.6783    1.7432    0.0000 N   0  0  0  0  0  0  0  0  0  0  0  0
   10.9643   -2.8649    0.0000 C   0  0  2  0  0  0  0  0  0  0  0  0
    9.7619   -1.7822    0.0000 C   0  0  1  0  0  0  0  0  0  0  0  0
   10.7564   -1.8867    0.0000 C   0  0  0  0  0  0  0  0  0  0  0  0
   10.0983   -3.3649    0.0000 C   0  0  0  0  0  0  0  0  0  0  0  0
   11.8779   -3.2716    0.0000 C   0  0  0  0  0  0  0  0  0  0  0  0
    8.3770   -2.9037    0.0000 C   0  0  0  0  0  0  0  0  0  0  0  0
    9.2619   -0.9162    0.0000 C   0  0  0  0  0  0  0  0  0  0  0  0
    8.0680   -3.8547    0.0000 C   0  0  2  0  0  0  0  0  0  0  0  0
    8.7371   -4.5979    0.0000 C   0  0  0  0  0  0  0  0  0  0  0  0
   11.9824   -4.2661    0.0000 C   0  0  0  0  0  0  0  0  0  0  0  0
   12.6869   -2.6838    0.0000 C   0  0  0  0  0  0  0  0  0  0  0  0
    9.2619    0.8159    0.0000 C   0  0  1  0  0  0  0  0  0  0  0  0
    8.4281   -5.5489    0.0000 C   0  0  0  0  0  0  0  0  0  0  0  0
    9.7153   -4.3900    0.0000 C   0  0  0  0  0  0  0  0  0  0  0  0
   12.8959   -4.6729    0.0000 C   0  0  0  0  0  0  0  0  0  0  0  0
   13.6004   -3.0906    0.0000 C   0  0  0  0  0  0  0  0  0  0  0  0
    9.7619    1.6819    0.0000 C   0  0  0  0  0  0  0  0  0  0  0  0
   13.7049   -4.0851    0.0000 C   0  0  0  0  0  0  0  0  0  0  0  0
    8.2619    0.8159    0.0000 C   0  0  0  0  0  0  0  0  0  0  0  0
    6.7808   -5.0137    0.0000 C   0  0  0  0  0  0  0  0  0  0  0  0
   10.7619    1.6819    0.0000 C   0  0  0  0  0  0  0  0  0  0  0  0
    6.7619    1.6819    0.0000 C   0  0  0  0  0  0  0  0  0  0  0  0
    6.2619    2.5479    0.0000 C   0  0  0  0  0  0  0  0  0  0  0  0
    5.2619    2.5479    0.0000 C   0  0  0  0  0  0  0  0  0  0  0  0
    4.6783    3.3527    0.0000 C   0  0  0  0  0  0  0  0  0  0  0  0
    5.4936   -6.1726    0.0000 C   0  0  0  0  0  0  0  0  0  0  0  0
    3.7320    3.0479    0.0000 C   0  0  0  0  0  0  0  0  0  0  0  0
    3.7320    2.0479    0.0000 C   0  0  0  0  0  0  0  0  0  0  0  0
    4.9889    4.3032    0.0000 C   0  0  0  0  0  0  0  0  0  0  0  0
    4.5155   -6.3806    0.0000 C   0  0  0  0  0  0  0  0  0  0  0  0
    4.3211    5.0475    0.0000 C   0  0  0  0  0  0  0  0  0  0  0  0
    2.8660    3.5479    0.0000 C   0  0  0  0  0  0  0  0  0  0  0  0
    2.8660    1.5479    0.0000 C   0  0  0  0  0  0  0  0  0  0  0  0
    4.2065   -7.3316    0.0000 C   0  0  0  0  0  0  0  0  0  0  0  0
    3.8464   -5.6374    0.0000 C   0  0  0  0  0  0  0  0  0  0  0  0
    2.0000    3.0479    0.0000 C   0  0  0  0  0  0  0  0  0  0  0  0
    2.0000    2.0479    0.0000 C   0  0  0  0  0  0  0  0  0  0  0  0
    4.6318    5.9980    0.0000 C   0  0  0  0  0  0  0  0  0  0  0  0
   10.9968   -3.4840    0.0000 H   0  0  0  0  0  0  0  0  0  0  0  0
    9.1427   -1.8146    0.0000 H   0  0  0  0  0  0  0  0  0  0  0  0
   11.3730   -1.8219    0.0000 H   0  0  0  0  0  0  0  0  0  0  0  0
   10.7564   -1.2667    0.0000 H   0  0  0  0  0  0  0  0  0  0  0  0
    9.6375   -3.7797    0.0000 H   0  0  0  0  0  0  0  0  0  0  0  0
   10.4627   -3.8665    0.0000 H   0  0  0  0  0  0  0  0  0  0  0  0
    7.8764   -4.4444    0.0000 H   0  0  0  0  0  0  0  0  0  0  0  0
    8.9287   -4.0082    0.0000 H   0  0  0  0  0  0  0  0  0  0  0  0
   10.3819   -0.0502    0.0000 H   0  0  0  0  0  0  0  0  0  0  0  0
   11.4808   -4.6306    0.0000 H   0  0  0  0  0  0  0  0  0  0  0  0
   12.6221   -2.0672    0.0000 H   0  0  0  0  0  0  0  0  0  0  0  0
    9.8819    0.8159    0.0000 H   0  0  0  0  0  0  0  0  0  0  0  0
    6.6750   -3.6019    0.0000 H   0  0  0  0  0  0  0  0  0  0  0  0
    7.8384   -5.3573    0.0000 H   0  0  0  0  0  0  0  0  0  0  0  0
    8.2365   -6.1386    0.0000 H   0  0  0  0  0  0  0  0  0  0  0  0
    9.0178   -5.7405    0.0000 H   0  0  0  0  0  0  0  0  0  0  0  0
    9.8442   -4.9964    0.0000 H   0  0  0  0  0  0  0  0  0  0  0  0
   10.3217   -4.2610    0.0000 H   0  0  0  0  0  0  0  0  0  0  0  0
    9.5864   -3.7835    0.0000 H   0  0  0  0  0  0  0  0  0  0  0  0
   12.9607   -5.2895    0.0000 H   0  0  0  0  0  0  0  0  0  0  0  0
   14.1020   -2.7261    0.0000 H   0  0  0  0  0  0  0  0  0  0  0  0
    9.8695    2.2925    0.0000 H   0  0  0  0  0  0  0  0  0  0  0  0
    9.1793    1.8940    0.0000 H   0  0  0  0  0  0  0  0  0  0  0  0
   14.2713   -4.3373    0.0000 H   0  0  0  0  0  0  0  0  0  0  0  0
   11.3819    1.6819    0.0000 H   0  0  0  0  0  0  0  0  0  0  0  0
    8.0719    2.2188    0.0000 H   0  0  0  0  0  0  0  0  0  0  0  0
    6.1793    1.4699    0.0000 H   0  0  0  0  0  0  0  0  0  0  0  0
    6.8695    1.0713    0.0000 H   0  0  0  0  0  0  0  0  0  0  0  0
    6.8445    2.7600    0.0000 H   0  0  0  0  0  0  0  0  0  0  0  0
    6.1542    3.1585    0.0000 H   0  0  0  0  0  0  0  0  0  0  0  0
    5.5153   -6.7923    0.0000 H   0  0  0  0  0  0  0  0  0  0  0  0
    6.1076   -6.2589    0.0000 H   0  0  0  0  0  0  0  0  0  0  0  0
    4.8709    1.1539    0.0000 H   0  0  0  0  0  0  0  0  0  0  0  0
    5.5359    4.0112    0.0000 H   0  0  0  0  0  0  0  0  0  0  0  0
    5.3715    4.7911    0.0000 H   0  0  0  0  0  0  0  0  0  0  0  0
    3.9090   -6.5095    0.0000 H   0  0  0  0  0  0  0  0  0  0  0  0
    3.7742    5.3395    0.0000 H   0  0  0  0  0  0  0  0  0  0  0  0
    3.9385    4.5596    0.0000 H   0  0  0  0  0  0  0  0  0  0  0  0
    2.8660    4.1679    0.0000 H   0  0  0  0  0  0  0  0  0  0  0  0
    2.8660    0.9279    0.0000 H   0  0  0  0  0  0  0  0  0  0  0  0
    3.6168   -7.1400    0.0000 H   0  0  0  0  0  0  0  0  0  0  0  0
    4.0149   -7.9213    0.0000 H   0  0  0  0  0  0  0  0  0  0  0  0
    4.7961   -7.5232    0.0000 H   0  0  0  0  0  0  0  0  0  0  0  0
    4.3071   -5.2226    0.0000 H   0  0  0  0  0  0  0  0  0  0  0  0
    3.4315   -5.1767    0.0000 H   0  0  0  0  0  0  0  0  0  0  0  0
    3.3856   -6.0523    0.0000 H   0  0  0  0  0  0  0  0  0  0  0  0
    1.4631    3.3579    0.0000 H   0  0  0  0  0  0  0  0  0  0  0  0
    1.4631    1.7379    0.0000 H   0  0  0  0  0  0  0  0  0  0  0  0
    4.1565    7.3316    0.0000 H   0  0  0  0  0  0  0  0  0  0  0  0
  1 35  1  0  0  0  0
  2 35  1  0  0  0  0
  3 20  2  0  0  0  0
  4 21  2  0  0  0  0
  5 34  1  0  0  0  0
  5 40  1  0  0  0  0
  6 33  2  0  0  0  0
  7 34  2  0  0  0  0
  8 52  1  0  0  0  0
  8101  1  0  0  0  0
  9 52  2  0  0  0  0
 10 16  1  0  0  0  0
 10 18  1  0  0  0  0
 10 20  1  0  0  0  0
 11 21  1  0  0  0  0
 26 11  1  6  0  0  0
 11 61  1  0  0  0  0
 22 12  1  6  0  0  0
 12 34  1  0  0  0  0
 12 65  1  0  0  0  0
 13 33  1  0  0  0  0
 13 36  1  0  0  0  0
 13 78  1  0  0  0  0
 14 38  1  0  0  0  0
 14 42  1  0  0  0  0
 14 85  1  0  0  0  0
 15 17  1  0  0  0  0
 15 18  1  0  0  0  0
 15 19  1  1  0  0  0
 15 53  1  0  0  0  0
 16 17  1  0  0  0  0
 16 21  1  6  0  0  0
 16 54  1  0  0  0  0
 17 55  1  0  0  0  0
 17 56  1  0  0  0  0
 18 57  1  0  0  0  0
 18 58  1  0  0  0  0
 19 24  2  0  0  0  0
 19 25  1  0  0  0  0
 20 22  1  0  0  0  0
 22 23  1  0  0  0  0
 22 59  1  0  0  0  0
 23 27  1  0  0  0  0
 23 28  1  0  0  0  0
 23 60  1  0  0  0  0
 24 29  1  0  0  0  0
 24 62  1  0  0  0  0
 25 30  2  0  0  0  0
 25 63  1  0  0  0  0
 26 31  1  0  0  0  0
 26 33  1  0  0  0  0
 26 64  1  0  0  0  0
 27 66  1  0  0  0  0
 27 67  1  0  0  0  0
 27 68  1  0  0  0  0
 28 69  1  0  0  0  0
 28 70  1  0  0  0  0
 28 71  1  0  0  0  0
 29 32  2  0  0  0  0
 29 72  1  0  0  0  0
 30 32  1  0  0  0  0
 30 73  1  0  0  0  0
 31 35  1  0  0  0  0
 31 74  1  0  0  0  0
 31 75  1  0  0  0  0
 32 76  1  0  0  0  0
 35 77  1  0  0  0  0
 36 37  1  0  0  0  0
 36 79  1  0  0  0  0
 36 80  1  0  0  0  0
 37 38  1  0  0  0  0
 37 81  1  0  0  0  0
 37 82  1  0  0  0  0
 38 39  2  0  0  0  0
 39 41  1  0  0  0  0
 39 43  1  0  0  0  0
 40 44  1  0  0  0  0
 40 83  1  0  0  0  0
 40 84  1  0  0  0  0
 41 42  1  0  0  0  0
 41 46  2  0  0  0  0
 42 47  2  0  0  0  0
 43 45  1  0  0  0  0
 43 86  1  0  0  0  0
 43 87  1  0  0  0  0
 44 48  1  0  0  0  0
 44 49  1  0  0  0  0
 44 88  1  0  0  0  0
 45 52  1  0  0  0  0
 45 89  1  0  0  0  0
 45 90  1  0  0  0  0
 46 50  1  0  0  0  0
 46 91  1  0  0  0  0
 47 51  1  0  0  0  0
 47 92  1  0  0  0  0
 48 93  1  0  0  0  0
 48 94  1  0  0  0  0
 48 95  1  0  0  0  0
 49 96  1  0  0  0  0
 49 97  1  0  0  0  0
 49 98  1  0  0  0  0
 50 51  2  0  0  0  0
 50 99  1  0  0  0  0
 51100  1  0  0  0  0
M  END
> <PUBCHEM_COMPOUND_CID>
507661
> <PUBCHEM_COMPOUND_CANONICALIZED>
1
> <PUBCHEM_CACTVS_COMPLEXITY>
1220
> <PUBCHEM_CACTVS_HBOND_ACCEPTOR>
9
> <PUBCHEM_CACTVS_HBOND_DONOR>
5
> <PUBCHEM_CACTVS_ROTATABLE_BOND>
18
> <PUBCHEM_CACTVS_SUBSKEYS>
AAADcfB/uYAAAAAAAAAAAAAAAAAAAWLAAAAwYAAAAAAAAFgB9AAAHwAQCAAADSjhnhYyyPPJlgCoAyXyXACCgCAhAiAImaG4ZJkIYPLA0bGcYAhklgDIyAeY2fOegAAAAAACAAAAAAAAAAQAAAAAAAAAAA==
> <PUBCHEM_IUPAC_OPENEYE_NAME>
3-[2-[2-[[(2S)-4,4-difluoro-2-[[(2S,4S)-1-[(2S)-2-(isobutoxycarbonylamino)-3-methyl-butanoyl]-4-phenyl-pyrrolidine-2-carbonyl]amino]butanoyl]amino]ethyl]-1H-indol-3-yl]propanoic acid
> <PUBCHEM_IUPAC_CAS_NAME>
3-[2-[2-[[(2S)-4,4-difluoro-2-[[[(2S,4S)-1-[(2S)-3-methyl-2-[[2-methylpropoxy(oxo)methyl]amino]-1-oxobutyl]-4-phenyl-2-pyrrolidinyl]-oxomethyl]amino]-1-oxobutyl]amino]ethyl]-1H-indol-3-yl]propanoic acid
> <PUBCHEM_IUPAC_NAME_MARKUP>
3-[2-[2-[[(2<I>S</I>)-4,4-difluoro-2-[[(2<I>S</I>,4<I>S</I>)-1-[(2<I>S</I>)-3-methyl-2-(2-methylpropoxycarbonylamino)butanoyl]-4-phenylpyrrolidine-2-carbonyl]amino]butanoyl]amino]ethyl]-1<I>H</I>-indol-3-yl]propanoic acid
> <PUBCHEM_IUPAC_NAME>
3-[2-[2-[[(2S)-4,4-difluoro-2-[[(2S,4S)-1-[(2S)-3-methyl-2-(2-methylpropoxycarbonylamino)butanoyl]-4-phenylpyrrolidine-2-carbonyl]amino]butanoyl]amino]ethyl]-1H-indol-3-yl]propanoic acid
> <PUBCHEM_IUPAC_SYSTEMATIC_NAME>
3-[2-[2-[[(2S)-4,4-bis(fluoranyl)-2-[[(2S,4S)-1-[(2S)-3-methyl-2-(2-methylpropoxycarbonylamino)butanoyl]-4-phenyl-pyrrolidin-2-yl]carbonylamino]butanoyl]amino]ethyl]-1H-indol-3-yl]propanoic acid
> <PUBCHEM_IUPAC_TRADITIONAL_NAME>
3-[2-[2-[[(2S)-4,4-difluoro-2-[[(2S,4S)-1-[(2S)-2-(isobutoxycarbonylamino)-3-methyl-butanoyl]-4-phenyl-prolyl]amino]butanoyl]amino]ethyl]-1H-indol-3-yl]propionic acid
> <PUBCHEM_IUPAC_INCHI>
InChI=1S/C38H49F2N5O7/c1-22(2)21-52-38(51)44-34(23(3)4)37(50)45-20-25(24-10-6-5-7-11-24)18-31(45)36(49)43-30(19-32(39)40)35(48)41-17-16-29-27(14-15-33(46)47)26-12-8-9-13-28(26)42-29/h5-13,22-23,25,30-32,34,42H,14-21H2,1-4H3,(H,41,48)(H,43,49)(H,44,51)(H,46,47)/t25-,30+,31+,34+/m1/s1
> <PUBCHEM_IUPAC_INCHIKEY>
MJFRMMRLMYCRFV-ABPGDMOISA-N
> <PUBCHEM_XLOGP3_AA>
5.9
> <PUBCHEM_EXACT_MASS>
725.36000524
> <PUBCHEM_MOLECULAR_FORMULA>
C38H49F2N5O7
> <PUBCHEM_MOLECULAR_WEIGHT>
725.8
> <PUBCHEM_OPENEYE_CAN_SMILES>
CC(C)COC(=O)NC(C(C)C)C(=O)N1CC(CC1C(=O)NC(CC(F)F)C(=O)NCCC2=C(C3=CC=CC=C3N2)CCC(=O)O)C4=CC=CC=C4
> <PUBCHEM_OPENEYE_ISO_SMILES>
CC(C)COC(=O)N[C@@H](C(C)C)C(=O)N1C[C@@H](C[C@H]1C(=O)N[C@@H](CC(F)F)C(=O)NCCC2=C(C3=CC=CC=C3N2)CCC(=O)O)C4=CC=CC=C4
> <PUBCHEM_CACTVS_TPSA>
170
> <PUBCHEM_MONOISOTOPIC_WEIGHT>
725.36000524
> <PUBCHEM_TOTAL_CHARGE>
0
> <PUBCHEM_HEAVY_ATOM_COUNT>
52
> <PUBCHEM_ATOM_DEF_STEREO_COUNT>
4
> <PUBCHEM_ATOM_UDEF_STEREO_COUNT>
0
> <PUBCHEM_BOND_DEF_STEREO_COUNT>
0
> <PUBCHEM_BOND_UDEF_STEREO_COUNT>
0
> <PUBCHEM_ISOTOPIC_ATOM_COUNT>
0
> <PUBCHEM_COMPONENT_COUNT>
1
> <PUBCHEM_CACTVS_TAUTO_COUNT>
-1
> <PUBCHEM_COORDINATE_TYPE>
1
5
255
> <PUBCHEM_BONDANNOTATIONS>
26  11  6
22  12  6
14  38  8
14  42  8
15  19  5
16  21  6
19  24  8
19  25  8
24  29  8
25  30  8
29  32  8
30  32  8
38  39  8
39  41  8
41  42  8
41  46  8
42  47  8
46  50  8
47  51  8
50  51  8
$$$$
