507640
  -OEChem-10302200282D
 98100  0     1  0  0  0  0  0999 V2000
    9.5516    4.8067    0.0000 S   0  0  0  0  0  0  0  0  0  0  0  0
    3.7320    4.1907    0.0000 F   0  0  0  0  0  0  0  0  0  0  0  0
    5.4641    4.1907    0.0000 F   0  0  0  0  0  0  0  0  0  0  0  0
    5.4641   -1.8093    0.0000 F   0  0  0  0  0  0  0  0  0  0  0  0
    2.0000   -1.8093    0.0000 F   0  0  0  0  0  0  0  0  0  0  0  0
    8.4405    0.6367    0.0000 O   0  0  0  0  0  0  0  0  0  0  0  0
    7.1962    1.1907    0.0000 O   0  0  0  0  0  0  0  0  0  0  0  0
   11.5016   -1.2685    0.0000 O   0  0  0  0  0  0  0  0  0  0  0  0
    6.3301    0.6907    0.0000 O   0  0  0  0  0  0  0  0  0  0  0  0
   12.0368    0.3788    0.0000 O   0  0  0  0  0  0  0  0  0  0  0  0
    2.8660   -5.3093    0.0000 O   0  0  0  0  0  0  0  0  0  0  0  0
    4.5981   -5.3093    0.0000 O   0  0  0  0  0  0  0  0  0  0  0  0
    8.9757    2.2840    0.0000 N   0  0  0  0  0  0  0  0  0  0  0  0
    6.3301    2.6907    0.0000 N   0  0  0  0  0  0  0  0  0  0  0  0
   10.3426    0.0187    0.0000 N   0  0  0  0  0  0  0  0  0  0  0  0
    4.5981    0.6907    0.0000 N   0  0  0  0  0  0  0  0  0  0  0  0
    9.1448    3.8931    0.0000 C   0  0  2  0  0  0  0  0  0  0  0  0
    8.0622    2.6907    0.0000 C   0  0  1  0  0  0  0  0  0  0  0  0
    8.1667    3.6852    0.0000 C   0  0  0  0  0  0  0  0  0  0  0  0
    9.6448    3.0271    0.0000 C   0  0  0  0  0  0  0  0  0  0  0  0
   10.5461    4.9112    0.0000 C   0  0  0  0  0  0  0  0  0  0  0  0
   10.9528    5.8248    0.0000 C   0  0  0  0  0  0  0  0  0  0  0  0
   11.1339    4.1022    0.0000 C   0  0  0  0  0  0  0  0  0  0  0  0
   11.9474    5.9293    0.0000 C   0  0  0  0  0  0  0  0  0  0  0  0
   12.1284    4.2067    0.0000 C   0  0  0  0  0  0  0  0  0  0  0  0
   12.5352    5.1203    0.0000 C   0  0  0  0  0  0  0  0  0  0  0  0
    9.1836    1.3058    0.0000 C   0  0  0  0  0  0  0  0  0  0  0  0
    7.1962    2.1907    0.0000 C   0  0  0  0  0  0  0  0  0  0  0  0
   10.1347    0.9968    0.0000 C   0  0  2  0  0  0  0  0  0  0  0  0
   10.8778    1.6659    0.0000 C   0  0  0  0  0  0  0  0  0  0  0  0
    5.4641    2.1907    0.0000 C   0  0  1  0  0  0  0  0  0  0  0  0
   11.8289    1.3569    0.0000 C   0  0  0  0  0  0  0  0  0  0  0  0
   10.6699    2.6441    0.0000 C   0  0  0  0  0  0  0  0  0  0  0  0
    4.5981    2.6907    0.0000 C   0  0  0  0  0  0  0  0  0  0  0  0
    5.4641    1.1907    0.0000 C   0  0  0  0  0  0  0  0  0  0  0  0
   11.2937   -0.2904    0.0000 C   0  0  0  0  0  0  0  0  0  0  0  0
    4.5981    3.6907    0.0000 C   0  0  0  0  0  0  0  0  0  0  0  0
    4.5981   -0.3093    0.0000 C   0  0  0  0  0  0  0  0  0  0  0  0
   12.4526   -1.5775    0.0000 C   0  0  0  0  0  0  0  0  0  0  0  0
    3.7320   -0.8093    0.0000 C   0  0  0  0  0  0  0  0  0  0  0  0
   12.6605   -2.5557    0.0000 C   0  0  0  0  0  0  0  0  0  0  0  0
    3.7320   -1.8093    0.0000 C   0  0  0  0  0  0  0  0  0  0  0  0
   13.6116   -2.8647    0.0000 C   0  0  0  0  0  0  0  0  0  0  0  0
   11.9174   -3.2248    0.0000 C   0  0  0  0  0  0  0  0  0  0  0  0
    4.5981   -2.3093    0.0000 C   0  0  0  0  0  0  0  0  0  0  0  0
    2.8660   -2.3093    0.0000 C   0  0  0  0  0  0  0  0  0  0  0  0
    4.5981   -3.3093    0.0000 C   0  0  0  0  0  0  0  0  0  0  0  0
    2.8660   -3.3093    0.0000 C   0  0  0  0  0  0  0  0  0  0  0  0
    3.7320   -3.8093    0.0000 C   0  0  0  0  0  0  0  0  0  0  0  0
    3.7320   -4.8093    0.0000 C   0  0  0  0  0  0  0  0  0  0  0  0
    8.7547    4.3750    0.0000 H   0  0  0  0  0  0  0  0  0  0  0  0
    8.0946    2.0716    0.0000 H   0  0  0  0  0  0  0  0  0  0  0  0
    8.1019    4.3018    0.0000 H   0  0  0  0  0  0  0  0  0  0  0  0
    7.5467    3.6852    0.0000 H   0  0  0  0  0  0  0  0  0  0  0  0
   10.0597    2.5664    0.0000 H   0  0  0  0  0  0  0  0  0  0  0  0
   10.1464    3.3915    0.0000 H   0  0  0  0  0  0  0  0  0  0  0  0
   10.1817    5.4128    0.0000 H   0  0  0  0  0  0  0  0  0  0  0  0
   10.9961    6.4432    0.0000 H   0  0  0  0  0  0  0  0  0  0  0  0
   10.3513    5.9748    0.0000 H   0  0  0  0  0  0  0  0  0  0  0  0
   10.5766    3.8304    0.0000 H   0  0  0  0  0  0  0  0  0  0  0  0
   11.3048    3.5062    0.0000 H   0  0  0  0  0  0  0  0  0  0  0  0
   12.5046    6.2011    0.0000 H   0  0  0  0  0  0  0  0  0  0  0  0
   11.7765    6.5253    0.0000 H   0  0  0  0  0  0  0  0  0  0  0  0
   12.0852    3.5882    0.0000 H   0  0  0  0  0  0  0  0  0  0  0  0
   12.7300    4.0567    0.0000 H   0  0  0  0  0  0  0  0  0  0  0  0
   13.0492    4.7736    0.0000 H   0  0  0  0  0  0  0  0  0  0  0  0
   12.9658    5.5663    0.0000 H   0  0  0  0  0  0  0  0  0  0  0  0
    9.6739    0.5819    0.0000 H   0  0  0  0  0  0  0  0  0  0  0  0
   11.0067    1.0595    0.0000 H   0  0  0  0  0  0  0  0  0  0  0  0
    6.3301    3.3107    0.0000 H   0  0  0  0  0  0  0  0  0  0  0  0
    5.4641    2.8107    0.0000 H   0  0  0  0  0  0  0  0  0  0  0  0
    9.8818   -0.3962    0.0000 H   0  0  0  0  0  0  0  0  0  0  0  0
   11.6373    0.7673    0.0000 H   0  0  0  0  0  0  0  0  0  0  0  0
   12.4185    1.1653    0.0000 H   0  0  0  0  0  0  0  0  0  0  0  0
   12.0205    1.9466    0.0000 H   0  0  0  0  0  0  0  0  0  0  0  0
   11.2764    2.7730    0.0000 H   0  0  0  0  0  0  0  0  0  0  0  0
   10.5410    3.2505    0.0000 H   0  0  0  0  0  0  0  0  0  0  0  0
   10.0635    2.5152    0.0000 H   0  0  0  0  0  0  0  0  0  0  0  0
    3.9875    2.7984    0.0000 H   0  0  0  0  0  0  0  0  0  0  0  0
    4.3860    2.1081    0.0000 H   0  0  0  0  0  0  0  0  0  0  0  0
    4.5981    4.3107    0.0000 H   0  0  0  0  0  0  0  0  0  0  0  0
    4.0611    1.0007    0.0000 H   0  0  0  0  0  0  0  0  0  0  0  0
    4.8101   -0.8919    0.0000 H   0  0  0  0  0  0  0  0  0  0  0  0
    5.2087   -0.2016    0.0000 H   0  0  0  0  0  0  0  0  0  0  0  0
   13.0723   -1.5559    0.0000 H   0  0  0  0  0  0  0  0  0  0  0  0
   12.5389   -0.9636    0.0000 H   0  0  0  0  0  0  0  0  0  0  0  0
    3.5200   -0.2267    0.0000 H   0  0  0  0  0  0  0  0  0  0  0  0
    3.1215   -0.9170    0.0000 H   0  0  0  0  0  0  0  0  0  0  0  0
   12.7894   -3.1621    0.0000 H   0  0  0  0  0  0  0  0  0  0  0  0
   13.4200   -3.4543    0.0000 H   0  0  0  0  0  0  0  0  0  0  0  0
   14.2013   -3.0563    0.0000 H   0  0  0  0  0  0  0  0  0  0  0  0
   13.8032   -2.2750    0.0000 H   0  0  0  0  0  0  0  0  0  0  0  0
   11.5025   -2.7640    0.0000 H   0  0  0  0  0  0  0  0  0  0  0  0
   11.4566   -3.6397    0.0000 H   0  0  0  0  0  0  0  0  0  0  0  0
   12.3323   -3.6856    0.0000 H   0  0  0  0  0  0  0  0  0  0  0  0
    5.1350   -3.6193    0.0000 H   0  0  0  0  0  0  0  0  0  0  0  0
    2.3291   -3.6193    0.0000 H   0  0  0  0  0  0  0  0  0  0  0  0
    2.8660   -5.9293    0.0000 H   0  0  0  0  0  0  0  0  0  0  0  0
 17  1  1  1  0  0  0
  1 21  1  0  0  0  0
  2 37  1  0  0  0  0
  3 37  1  0  0  0  0
  4 45  1  0  0  0  0
  5 46  1  0  0  0  0
  6 27  2  0  0  0  0
  7 28  2  0  0  0  0
  8 36  1  0  0  0  0
  8 39  1  0  0  0  0
  9 35  2  0  0  0  0
 10 36  2  0  0  0  0
 11 50  1  0  0  0  0
 11 98  1  0  0  0  0
 12 50  2  0  0  0  0
 13 18  1  0  0  0  0
 13 20  1  0  0  0  0
 13 27  1  0  0  0  0
 14 28  1  0  0  0  0
 31 14  1  6  0  0  0
 14 70  1  0  0  0  0
 29 15  1  6  0  0  0
 15 36  1  0  0  0  0
 15 72  1  0  0  0  0
 16 35  1  0  0  0  0
 16 38  1  0  0  0  0
 16 82  1  0  0  0  0
 17 19  1  0  0  0  0
 17 20  1  0  0  0  0
 17 51  1  0  0  0  0
 18 19  1  0  0  0  0
 18 28  1  6  0  0  0
 18 52  1  0  0  0  0
 19 53  1  0  0  0  0
 19 54  1  0  0  0  0
 20 55  1  0  0  0  0
 20 56  1  0  0  0  0
 21 22  1  0  0  0  0
 21 23  1  0  0  0  0
 21 57  1  0  0  0  0
 22 24  1  0  0  0  0
 22 58  1  0  0  0  0
 22 59  1  0  0  0  0
 23 25  1  0  0  0  0
 23 60  1  0  0  0  0
 23 61  1  0  0  0  0
 24 26  1  0  0  0  0
 24 62  1  0  0  0  0
 24 63  1  0  0  0  0
 25 26  1  0  0  0  0
 25 64  1  0  0  0  0
 25 65  1  0  0  0  0
 26 66  1  0  0  0  0
 26 67  1  0  0  0  0
 27 29  1  0  0  0  0
 29 30  1  0  0  0  0
 29 68  1  0  0  0  0
 30 32  1  0  0  0  0
 30 33  1  0  0  0  0
 30 69  1  0  0  0  0
 31 34  1  0  0  0  0
 31 35  1  0  0  0  0
 31 71  1  0  0  0  0
 32 73  1  0  0  0  0
 32 74  1  0  0  0  0
 32 75  1  0  0  0  0
 33 76  1  0  0  0  0
 33 77  1  0  0  0  0
 33 78  1  0  0  0  0
 34 37  1  0  0  0  0
 34 79  1  0  0  0  0
 34 80  1  0  0  0  0
 37 81  1  0  0  0  0
 38 40  1  0  0  0  0
 38 83  1  0  0  0  0
 38 84  1  0  0  0  0
 39 41  1  0  0  0  0
 39 85  1  0  0  0  0
 39 86  1  0  0  0  0
 40 42  1  0  0  0  0
 40 87  1  0  0  0  0
 40 88  1  0  0  0  0
 41 43  1  0  0  0  0
 41 44  1  0  0  0  0
 41 89  1  0  0  0  0
 42 45  2  0  0  0  0
 42 46  1  0  0  0  0
 43 90  1  0  0  0  0
 43 91  1  0  0  0  0
 43 92  1  0  0  0  0
 44 93  1  0  0  0  0
 44 94  1  0  0  0  0
 44 95  1  0  0  0  0
 45 47  1  0  0  0  0
 46 48  2  0  0  0  0
 47 49  2  0  0  0  0
 47 96  1  0  0  0  0
 48 49  1  0  0  0  0
 48 97  1  0  0  0  0
 49 50  1  0  0  0  0
M  END
> <PUBCHEM_COMPOUND_CID>
507640
> <PUBCHEM_COMPOUND_CANONICALIZED>
1
> <PUBCHEM_CACTVS_COMPLEXITY>
1150
> <PUBCHEM_CACTVS_HBOND_ACCEPTOR>
12
> <PUBCHEM_CACTVS_HBOND_DONOR>
4
> <PUBCHEM_CACTVS_ROTATABLE_BOND>
17
> <PUBCHEM_CACTVS_SUBSKEYS>
AAADcfB/ucBAAAAAAAAAAAAAAAAAAWAAAAAwYAAAAAAAAAABAAAAHwQQCAAADSjl2B6yCIPABgiIAiHSGAACAAAkABAAiIGICMkIZjKglTGccQAk1gGomYeYyfCOQAAAAAAAAACAAAAAAAAAAAAAAAAAAA==
> <PUBCHEM_IUPAC_OPENEYE_NAME>
4-[2-[[(2S)-2-[[(2S,4R)-4-cyclohexylsulfanyl-1-[(2S)-2-(isobutoxycarbonylamino)-3-methyl-butanoyl]pyrrolidine-2-carbonyl]amino]-4,4-difluoro-butanoyl]amino]ethyl]-3,5-difluoro-benzoic acid
> <PUBCHEM_IUPAC_CAS_NAME>
4-[2-[[(2S)-2-[[[(2S,4R)-4-(cyclohexylthio)-1-[(2S)-3-methyl-2-[[2-methylpropoxy(oxo)methyl]amino]-1-oxobutyl]-2-pyrrolidinyl]-oxomethyl]amino]-4,4-difluoro-1-oxobutyl]amino]ethyl]-3,5-difluorobenzoic acid
> <PUBCHEM_IUPAC_NAME_MARKUP>
4-[2-[[(2<I>S</I>)-2-[[(2<I>S</I>,4<I>R</I>)-4-cyclohexylsulfanyl-1-[(2<I>S</I>)-3-methyl-2-(2-methylpropoxycarbonylamino)butanoyl]pyrrolidine-2-carbonyl]amino]-4,4-difluorobutanoyl]amino]ethyl]-3,5-difluorobenzoic acid
> <PUBCHEM_IUPAC_NAME>
4-[2-[[(2S)-2-[[(2S,4R)-4-cyclohexylsulfanyl-1-[(2S)-3-methyl-2-(2-methylpropoxycarbonylamino)butanoyl]pyrrolidine-2-carbonyl]amino]-4,4-difluorobutanoyl]amino]ethyl]-3,5-difluorobenzoic acid
> <PUBCHEM_IUPAC_SYSTEMATIC_NAME>
4-[2-[[(2S)-2-[[(2S,4R)-4-cyclohexylsulfanyl-1-[(2S)-3-methyl-2-(2-methylpropoxycarbonylamino)butanoyl]pyrrolidin-2-yl]carbonylamino]-4,4-bis(fluoranyl)butanoyl]amino]ethyl]-3,5-bis(fluoranyl)benzoic acid
> <PUBCHEM_IUPAC_TRADITIONAL_NAME>
4-[2-[[(2S)-2-[[(2S,4R)-4-(cyclohexylthio)-1-[(2S)-2-(isobutoxycarbonylamino)-3-methyl-butanoyl]prolyl]amino]-4,4-difluoro-butanoyl]amino]ethyl]-3,5-difluoro-benzoic acid
> <PUBCHEM_IUPAC_INCHI>
InChI=1S/C34H48F4N4O7S/c1-18(2)17-49-34(48)41-29(19(3)4)32(45)42-16-22(50-21-8-6-5-7-9-21)14-27(42)31(44)40-26(15-28(37)38)30(43)39-11-10-23-24(35)12-20(33(46)47)13-25(23)36/h12-13,18-19,21-22,26-29H,5-11,14-17H2,1-4H3,(H,39,43)(H,40,44)(H,41,48)(H,46,47)/t22-,26+,27+,29+/m1/s1
> <PUBCHEM_IUPAC_INCHIKEY>
CWTXMTXQIDJDBU-NLALRGLNSA-N
> <PUBCHEM_XLOGP3_AA>
6.5
> <PUBCHEM_EXACT_MASS>
732.31798370
> <PUBCHEM_MOLECULAR_FORMULA>
C34H48F4N4O7S
> <PUBCHEM_MOLECULAR_WEIGHT>
732.8
> <PUBCHEM_OPENEYE_CAN_SMILES>
CC(C)COC(=O)NC(C(C)C)C(=O)N1CC(CC1C(=O)NC(CC(F)F)C(=O)NCCC2=C(C=C(C=C2F)C(=O)O)F)SC3CCCCC3
> <PUBCHEM_OPENEYE_ISO_SMILES>
CC(C)COC(=O)N[C@@H](C(C)C)C(=O)N1C[C@@H](C[C@H]1C(=O)N[C@@H](CC(F)F)C(=O)NCCC2=C(C=C(C=C2F)C(=O)O)F)SC3CCCCC3
> <PUBCHEM_CACTVS_TPSA>
179
> <PUBCHEM_MONOISOTOPIC_WEIGHT>
732.31798370
> <PUBCHEM_TOTAL_CHARGE>
0
> <PUBCHEM_HEAVY_ATOM_COUNT>
50
> <PUBCHEM_ATOM_DEF_STEREO_COUNT>
4
> <PUBCHEM_ATOM_UDEF_STEREO_COUNT>
0
> <PUBCHEM_BOND_DEF_STEREO_COUNT>
0
> <PUBCHEM_BOND_UDEF_STEREO_COUNT>
0
> <PUBCHEM_ISOTOPIC_ATOM_COUNT>
0
> <PUBCHEM_COMPONENT_COUNT>
1
> <PUBCHEM_CACTVS_TAUTO_COUNT>
-1
> <PUBCHEM_COORDINATE_TYPE>
1
5
255
> <PUBCHEM_BONDANNOTATIONS>
17  1  5
31  14  6
29  15  6
18  28  6
42  45  8
42  46  8
45  47  8
46  48  8
47  49  8
48  49  8
$$$$
