507602
  -OEChem-10302200282D
 89 91  0     1  0  0  0  0  0999 V2000
    9.1643   -0.7682    0.0000 S   0  0  0  0  0  0  0  0  0  0  0  0
    8.1559   -2.6228    0.0000 O   0  0  0  0  0  0  0  0  0  0  0  0
    8.2983   -1.2682    0.0000 O   0  0  0  0  0  0  0  0  0  0  0  0
    8.2753   -6.2264    0.0000 O   0  0  0  0  0  0  0  0  0  0  0  0
    7.4323    2.2318    0.0000 O   0  0  0  0  0  0  0  0  0  0  0  0
    6.5811   -5.8663    0.0000 O   0  0  0  0  0  0  0  0  0  0  0  0
    4.6790   -6.4843    0.0000 O   0  0  0  0  0  0  0  0  0  0  0  0
    4.1438   -4.8370    0.0000 O   0  0  0  0  0  0  0  0  0  0  0  0
   10.8964    8.2318    0.0000 O   0  0  0  0  0  0  0  0  0  0  0  0
    9.1643    8.2318    0.0000 O   0  0  0  0  0  0  0  0  0  0  0  0
    6.4617   -2.2627    0.0000 N   0  0  0  0  0  0  0  0  0  0  0  0
    7.4323    0.2318    0.0000 N   0  0  0  0  0  0  0  0  0  0  0  0
    7.7401   -4.5791    0.0000 N   0  0  0  0  0  0  0  0  0  0  0  0
    9.1643    2.2318    0.0000 N   0  0  0  0  0  0  0  0  0  0  0  0
    4.9836   -1.6046    0.0000 C   0  0  2  0  0  0  0  0  0  0  0  0
    6.5662   -1.2682    0.0000 C   0  0  1  0  0  0  0  0  0  0  0  0
    5.6527   -0.8614    0.0000 C   0  0  0  0  0  0  0  0  0  0  0  0
    5.4836   -2.4706    0.0000 C   0  0  0  0  0  0  0  0  0  0  0  0
    3.9890   -1.5001    0.0000 C   0  0  0  0  0  0  0  0  0  0  0  0
    7.2049   -2.9318    0.0000 C   0  0  0  0  0  0  0  0  0  0  0  0
    7.4323   -0.7682    0.0000 C   0  0  0  0  0  0  0  0  0  0  0  0
    6.9970   -3.9100    0.0000 C   0  0  2  0  0  0  0  0  0  0  0  0
    3.4013   -2.3091    0.0000 C   0  0  0  0  0  0  0  0  0  0  0  0
    3.5823   -0.5865    0.0000 C   0  0  0  0  0  0  0  0  0  0  0  0
    6.0459   -4.2190    0.0000 C   0  0  0  0  0  0  0  0  0  0  0  0
    8.2983    0.7318    0.0000 C   0  0  1  0  0  0  0  0  0  0  0  0
    2.4067   -2.2045    0.0000 C   0  0  0  0  0  0  0  0  0  0  0  0
    2.5878   -0.4820    0.0000 C   0  0  0  0  0  0  0  0  0  0  0  0
    5.8380   -5.1972    0.0000 C   0  0  0  0  0  0  0  0  0  0  0  0
    2.0000   -1.2910    0.0000 C   0  0  0  0  0  0  0  0  0  0  0  0
    9.1643    0.2318    0.0000 C   0  0  0  0  0  0  0  0  0  0  0  0
    8.2983    1.7318    0.0000 C   0  0  0  0  0  0  0  0  0  0  0  0
    7.5322   -5.5573    0.0000 C   0  0  0  0  0  0  0  0  0  0  0  0
    4.8869   -5.5062    0.0000 C   0  0  0  0  0  0  0  0  0  0  0  0
    9.1643    3.2318    0.0000 C   0  0  0  0  0  0  0  0  0  0  0  0
    8.0674   -7.2045    0.0000 C   0  0  0  0  0  0  0  0  0  0  0  0
   10.0303    3.7318    0.0000 C   0  0  0  0  0  0  0  0  0  0  0  0
    8.8106   -7.8737    0.0000 C   0  0  0  0  0  0  0  0  0  0  0  0
   10.0303    4.7318    0.0000 C   0  0  0  0  0  0  0  0  0  0  0  0
    8.6026   -8.8518    0.0000 C   0  0  0  0  0  0  0  0  0  0  0  0
    9.7616   -7.5646    0.0000 C   0  0  0  0  0  0  0  0  0  0  0  0
   10.8964    5.2318    0.0000 C   0  0  0  0  0  0  0  0  0  0  0  0
    9.1643    5.2318    0.0000 C   0  0  0  0  0  0  0  0  0  0  0  0
   10.8964    6.2318    0.0000 C   0  0  0  0  0  0  0  0  0  0  0  0
    9.1643    6.2318    0.0000 C   0  0  0  0  0  0  0  0  0  0  0  0
   10.0303    6.7318    0.0000 C   0  0  0  0  0  0  0  0  0  0  0  0
   10.0303    7.7318    0.0000 C   0  0  0  0  0  0  0  0  0  0  0  0
    4.7614   -1.0258    0.0000 H   0  0  0  0  0  0  0  0  0  0  0  0
    7.0862   -1.6059    0.0000 H   0  0  0  0  0  0  0  0  0  0  0  0
    5.9627   -0.3245    0.0000 H   0  0  0  0  0  0  0  0  0  0  0  0
    5.1511   -0.4970    0.0000 H   0  0  0  0  0  0  0  0  0  0  0  0
    4.9172   -2.7228    0.0000 H   0  0  0  0  0  0  0  0  0  0  0  0
    5.6752   -3.0603    0.0000 H   0  0  0  0  0  0  0  0  0  0  0  0
    6.8680   -4.5164    0.0000 H   0  0  0  0  0  0  0  0  0  0  0  0
    3.6534   -2.8755    0.0000 H   0  0  0  0  0  0  0  0  0  0  0  0
    3.9467   -0.0849    0.0000 H   0  0  0  0  0  0  0  0  0  0  0  0
    6.8953    0.5418    0.0000 H   0  0  0  0  0  0  0  0  0  0  0  0
    5.9596   -3.6050    0.0000 H   0  0  0  0  0  0  0  0  0  0  0  0
    5.4263   -4.1974    0.0000 H   0  0  0  0  0  0  0  0  0  0  0  0
    7.7614    1.0418    0.0000 H   0  0  0  0  0  0  0  0  0  0  0  0
    8.3298   -4.3875    0.0000 H   0  0  0  0  0  0  0  0  0  0  0  0
    2.0423   -2.7061    0.0000 H   0  0  0  0  0  0  0  0  0  0  0  0
    2.3356    0.0844    0.0000 H   0  0  0  0  0  0  0  0  0  0  0  0
    5.9243   -5.8111    0.0000 H   0  0  0  0  0  0  0  0  0  0  0  0
    6.4576   -5.2188    0.0000 H   0  0  0  0  0  0  0  0  0  0  0  0
    1.3834   -1.2262    0.0000 H   0  0  0  0  0  0  0  0  0  0  0  0
    9.7749    0.1242    0.0000 H   0  0  0  0  0  0  0  0  0  0  0  0
    9.3764    0.8144    0.0000 H   0  0  0  0  0  0  0  0  0  0  0  0
    9.7012    1.9218    0.0000 H   0  0  0  0  0  0  0  0  0  0  0  0
    9.7012   -1.0782    0.0000 H   0  0  0  0  0  0  0  0  0  0  0  0
    8.9523    3.8144    0.0000 H   0  0  0  0  0  0  0  0  0  0  0  0
    8.5537    3.1242    0.0000 H   0  0  0  0  0  0  0  0  0  0  0  0
    7.4926   -6.9723    0.0000 H   0  0  0  0  0  0  0  0  0  0  0  0
    7.7389   -7.7303    0.0000 H   0  0  0  0  0  0  0  0  0  0  0  0
   10.2424    3.1492    0.0000 H   0  0  0  0  0  0  0  0  0  0  0  0
   10.6409    3.8395    0.0000 H   0  0  0  0  0  0  0  0  0  0  0  0
    8.9395   -7.2672    0.0000 H   0  0  0  0  0  0  0  0  0  0  0  0
    4.0893   -6.6759    0.0000 H   0  0  0  0  0  0  0  0  0  0  0  0
    7.9962   -8.7229    0.0000 H   0  0  0  0  0  0  0  0  0  0  0  0
    8.4737   -9.4583    0.0000 H   0  0  0  0  0  0  0  0  0  0  0  0
    9.2091   -8.9807    0.0000 H   0  0  0  0  0  0  0  0  0  0  0  0
    9.9532   -8.1543    0.0000 H   0  0  0  0  0  0  0  0  0  0  0  0
   10.3513   -7.3731    0.0000 H   0  0  0  0  0  0  0  0  0  0  0  0
    9.5700   -6.9750    0.0000 H   0  0  0  0  0  0  0  0  0  0  0  0
   11.4333    4.9218    0.0000 H   0  0  0  0  0  0  0  0  0  0  0  0
    8.6274    4.9218    0.0000 H   0  0  0  0  0  0  0  0  0  0  0  0
   11.4333    6.5418    0.0000 H   0  0  0  0  0  0  0  0  0  0  0  0
    8.6274    6.5418    0.0000 H   0  0  0  0  0  0  0  0  0  0  0  0
   10.8964    8.8518    0.0000 H   0  0  0  0  0  0  0  0  0  0  0  0
  1 31  1  0  0  0  0
  1 70  1  0  0  0  0
  2 20  2  0  0  0  0
  3 21  2  0  0  0  0
  4 33  1  0  0  0  0
  4 36  1  0  0  0  0
  5 32  2  0  0  0  0
  6 33  2  0  0  0  0
  7 34  1  0  0  0  0
  7 78  1  0  0  0  0
  8 34  2  0  0  0  0
  9 47  1  0  0  0  0
  9 89  1  0  0  0  0
 10 47  2  0  0  0  0
 11 16  1  0  0  0  0
 11 18  1  0  0  0  0
 11 20  1  0  0  0  0
 12 21  1  0  0  0  0
 26 12  1  6  0  0  0
 12 57  1  0  0  0  0
 22 13  1  1  0  0  0
 13 33  1  0  0  0  0
 13 61  1  0  0  0  0
 14 32  1  0  0  0  0
 14 35  1  0  0  0  0
 14 69  1  0  0  0  0
 15 17  1  0  0  0  0
 15 18  1  0  0  0  0
 15 19  1  6  0  0  0
 15 48  1  0  0  0  0
 16 17  1  0  0  0  0
 16 21  1  1  0  0  0
 16 49  1  0  0  0  0
 17 50  1  0  0  0  0
 17 51  1  0  0  0  0
 18 52  1  0  0  0  0
 18 53  1  0  0  0  0
 19 23  2  0  0  0  0
 19 24  1  0  0  0  0
 20 22  1  0  0  0  0
 22 25  1  0  0  0  0
 22 54  1  0  0  0  0
 23 27  1  0  0  0  0
 23 55  1  0  0  0  0
 24 28  2  0  0  0  0
 24 56  1  0  0  0  0
 25 29  1  0  0  0  0
 25 58  1  0  0  0  0
 25 59  1  0  0  0  0
 26 31  1  0  0  0  0
 26 32  1  0  0  0  0
 26 60  1  0  0  0  0
 27 30  2  0  0  0  0
 27 62  1  0  0  0  0
 28 30  1  0  0  0  0
 28 63  1  0  0  0  0
 29 34  1  0  0  0  0
 29 64  1  0  0  0  0
 29 65  1  0  0  0  0
 30 66  1  0  0  0  0
 31 67  1  0  0  0  0
 31 68  1  0  0  0  0
 35 37  1  0  0  0  0
 35 71  1  0  0  0  0
 35 72  1  0  0  0  0
 36 38  1  0  0  0  0
 36 73  1  0  0  0  0
 36 74  1  0  0  0  0
 37 39  1  0  0  0  0
 37 75  1  0  0  0  0
 37 76  1  0  0  0  0
 38 40  1  0  0  0  0
 38 41  1  0  0  0  0
 38 77  1  0  0  0  0
 39 42  2  0  0  0  0
 39 43  1  0  0  0  0
 40 79  1  0  0  0  0
 40 80  1  0  0  0  0
 40 81  1  0  0  0  0
 41 82  1  0  0  0  0
 41 83  1  0  0  0  0
 41 84  1  0  0  0  0
 42 44  1  0  0  0  0
 42 85  1  0  0  0  0
 43 45  2  0  0  0  0
 43 86  1  0  0  0  0
 44 46  2  0  0  0  0
 44 87  1  0  0  0  0
 45 46  1  0  0  0  0
 45 88  1  0  0  0  0
 46 47  1  0  0  0  0
M  END
> <PUBCHEM_COMPOUND_CID>
507602
> <PUBCHEM_COMPOUND_CANONICALIZED>
1
> <PUBCHEM_CACTVS_COMPLEXITY>
1090
> <PUBCHEM_CACTVS_HBOND_ACCEPTOR>
10
> <PUBCHEM_CACTVS_HBOND_DONOR>
6
> <PUBCHEM_CACTVS_ROTATABLE_BOND>
17
> <PUBCHEM_CACTVS_SUBSKEYS>
AAADcfB/vABAAAAAAAAAAAAAAAAAAWAAAAAwYAAAAAAAAAABQAAAHgQQCAAADSjl2AayCIPABgSIAiHSGAACAAAkAAAIiIGICMkIZjKAlTGccQAk1gGImYe83/KOwAAAAAAAAACAAAAAAAAAAAAAAAAAAA==
> <PUBCHEM_IUPAC_OPENEYE_NAME>
4-[2-[[(2R)-2-[[(2S,4S)-1-[(2S)-4-carboxy-2-(isobutoxycarbonylamino)butanoyl]-4-phenyl-pyrrolidine-2-carbonyl]amino]-3-sulfanyl-propanoyl]amino]ethyl]benzoic acid
> <PUBCHEM_IUPAC_CAS_NAME>
4-[2-[[(2R)-2-[[[(2S,4S)-1-[(2S)-4-carboxy-2-[[2-methylpropoxy(oxo)methyl]amino]-1-oxobutyl]-4-phenyl-2-pyrrolidinyl]-oxomethyl]amino]-3-mercapto-1-oxopropyl]amino]ethyl]benzoic acid
> <PUBCHEM_IUPAC_NAME_MARKUP>
4-[2-[[(2<I>R</I>)-2-[[(2<I>S</I>,4<I>S</I>)-1-[(2<I>S</I>)-4-carboxy-2-(2-methylpropoxycarbonylamino)butanoyl]-4-phenylpyrrolidine-2-carbonyl]amino]-3-sulfanylpropanoyl]amino]ethyl]benzoic acid
> <PUBCHEM_IUPAC_NAME>
4-[2-[[(2R)-2-[[(2S,4S)-1-[(2S)-4-carboxy-2-(2-methylpropoxycarbonylamino)butanoyl]-4-phenylpyrrolidine-2-carbonyl]amino]-3-sulfanylpropanoyl]amino]ethyl]benzoic acid
> <PUBCHEM_IUPAC_SYSTEMATIC_NAME>
4-[2-[[(2R)-2-[[(2S,4S)-1-[(2S)-2-(2-methylpropoxycarbonylamino)-5-oxidanyl-5-oxidanylidene-pentanoyl]-4-phenyl-pyrrolidin-2-yl]carbonylamino]-3-sulfanyl-propanoyl]amino]ethyl]benzoic acid
> <PUBCHEM_IUPAC_TRADITIONAL_NAME>
4-[2-[[(2R)-2-[[(2S,4S)-1-[(2S)-4-carboxy-2-(isobutoxycarbonylamino)butanoyl]-4-phenyl-prolyl]amino]-3-mercapto-propanoyl]amino]ethyl]benzoic acid
> <PUBCHEM_IUPAC_INCHI>
InChI=1S/C33H42N4O9S/c1-20(2)18-46-33(45)36-25(12-13-28(38)39)31(42)37-17-24(22-6-4-3-5-7-22)16-27(37)30(41)35-26(19-47)29(40)34-15-14-21-8-10-23(11-9-21)32(43)44/h3-11,20,24-27,47H,12-19H2,1-2H3,(H,34,40)(H,35,41)(H,36,45)(H,38,39)(H,43,44)/t24-,25+,26+,27+/m1/s1
> <PUBCHEM_IUPAC_INCHIKEY>
SRFILEADBYYNLB-WKAQUBQDSA-N
> <PUBCHEM_XLOGP3_AA>
3.1
> <PUBCHEM_EXACT_MASS>
670.26725010
> <PUBCHEM_MOLECULAR_FORMULA>
C33H42N4O9S
> <PUBCHEM_MOLECULAR_WEIGHT>
670.8
> <PUBCHEM_OPENEYE_CAN_SMILES>
CC(C)COC(=O)NC(CCC(=O)O)C(=O)N1CC(CC1C(=O)NC(CS)C(=O)NCCC2=CC=C(C=C2)C(=O)O)C3=CC=CC=C3
> <PUBCHEM_OPENEYE_ISO_SMILES>
CC(C)COC(=O)N[C@@H](CCC(=O)O)C(=O)N1C[C@@H](C[C@H]1C(=O)N[C@@H](CS)C(=O)NCCC2=CC=C(C=C2)C(=O)O)C3=CC=CC=C3
> <PUBCHEM_CACTVS_TPSA>
192
> <PUBCHEM_MONOISOTOPIC_WEIGHT>
670.26725010
> <PUBCHEM_TOTAL_CHARGE>
0
> <PUBCHEM_HEAVY_ATOM_COUNT>
47
> <PUBCHEM_ATOM_DEF_STEREO_COUNT>
4
> <PUBCHEM_ATOM_UDEF_STEREO_COUNT>
0
> <PUBCHEM_BOND_DEF_STEREO_COUNT>
0
> <PUBCHEM_BOND_UDEF_STEREO_COUNT>
0
> <PUBCHEM_ISOTOPIC_ATOM_COUNT>
0
> <PUBCHEM_COMPONENT_COUNT>
1
> <PUBCHEM_CACTVS_TAUTO_COUNT>
-1
> <PUBCHEM_COORDINATE_TYPE>
1
5
255
> <PUBCHEM_BONDANNOTATIONS>
26  12  6
22  13  5
15  19  6
16  21  5
19  23  8
19  24  8
23  27  8
24  28  8
27  30  8
28  30  8
39  42  8
39  43  8
42  44  8
43  45  8
44  46  8
45  46  8
$$$$
