507606
  -OEChem-10302200282D
 89 91  0     1  0  0  0  0  0999 V2000
    9.1643   -0.7682    0.0000 S   0  0  0  0  0  0  0  0  0  0  0  0
    8.1559   -2.6228    0.0000 O   0  0  0  0  0  0  0  0  0  0  0  0
    8.2983   -1.2682    0.0000 O   0  0  0  0  0  0  0  0  0  0  0  0
    8.2753   -6.2264    0.0000 O   0  0  0  0  0  0  0  0  0  0  0  0
    6.5811   -5.8663    0.0000 O   0  0  0  0  0  0  0  0  0  0  0  0
    7.4323    2.2318    0.0000 O   0  0  0  0  0  0  0  0  0  0  0  0
   10.8964    8.2318    0.0000 O   0  0  0  0  0  0  0  0  0  0  0  0
    9.1643    8.2318    0.0000 O   0  0  0  0  0  0  0  0  0  0  0  0
    6.4617   -2.2627    0.0000 N   0  0  0  0  0  0  0  0  0  0  0  0
    7.4323    0.2318    0.0000 N   0  0  0  0  0  0  0  0  0  0  0  0
    7.7401   -4.5791    0.0000 N   0  0  0  0  0  0  0  0  0  0  0  0
    9.1643    2.2318    0.0000 N   0  0  0  0  0  0  0  0  0  0  0  0
    4.9836   -1.6046    0.0000 C   0  0  2  0  0  0  0  0  0  0  0  0
    6.5662   -1.2682    0.0000 C   0  0  1  0  0  0  0  0  0  0  0  0
    5.6527   -0.8614    0.0000 C   0  0  0  0  0  0  0  0  0  0  0  0
    5.4836   -2.4706    0.0000 C   0  0  0  0  0  0  0  0  0  0  0  0
    3.9890   -1.5001    0.0000 C   0  0  0  0  0  0  0  0  0  0  0  0
    7.2049   -2.9318    0.0000 C   0  0  0  0  0  0  0  0  0  0  0  0
    7.4323   -0.7682    0.0000 C   0  0  0  0  0  0  0  0  0  0  0  0
    6.9970   -3.9100    0.0000 C   0  0  2  0  0  0  0  0  0  0  0  0
    6.0459   -4.2190    0.0000 C   0  0  0  0  0  0  0  0  0  0  0  0
    3.4013   -2.3091    0.0000 C   0  0  0  0  0  0  0  0  0  0  0  0
    3.5823   -0.5865    0.0000 C   0  0  0  0  0  0  0  0  0  0  0  0
    8.2983    0.7318    0.0000 C   0  0  1  0  0  0  0  0  0  0  0  0
    5.8380   -5.1972    0.0000 C   0  0  0  0  0  0  0  0  0  0  0  0
    5.3027   -3.5499    0.0000 C   0  0  0  0  0  0  0  0  0  0  0  0
    2.4067   -2.2045    0.0000 C   0  0  0  0  0  0  0  0  0  0  0  0
    2.5878   -0.4820    0.0000 C   0  0  0  0  0  0  0  0  0  0  0  0
    2.0000   -1.2910    0.0000 C   0  0  0  0  0  0  0  0  0  0  0  0
    9.1643    0.2318    0.0000 C   0  0  0  0  0  0  0  0  0  0  0  0
    7.5322   -5.5573    0.0000 C   0  0  0  0  0  0  0  0  0  0  0  0
    8.2983    1.7318    0.0000 C   0  0  0  0  0  0  0  0  0  0  0  0
    9.1643    3.2318    0.0000 C   0  0  0  0  0  0  0  0  0  0  0  0
    8.0674   -7.2045    0.0000 C   0  0  0  0  0  0  0  0  0  0  0  0
    8.8106   -7.8737    0.0000 C   0  0  0  0  0  0  0  0  0  0  0  0
   10.0303    3.7318    0.0000 C   0  0  0  0  0  0  0  0  0  0  0  0
    8.6026   -8.8518    0.0000 C   0  0  0  0  0  0  0  0  0  0  0  0
    9.7616   -7.5646    0.0000 C   0  0  0  0  0  0  0  0  0  0  0  0
   10.0303    4.7318    0.0000 C   0  0  0  0  0  0  0  0  0  0  0  0
   10.8964    5.2318    0.0000 C   0  0  0  0  0  0  0  0  0  0  0  0
    9.1643    5.2318    0.0000 C   0  0  0  0  0  0  0  0  0  0  0  0
   10.8964    6.2318    0.0000 C   0  0  0  0  0  0  0  0  0  0  0  0
    9.1643    6.2318    0.0000 C   0  0  0  0  0  0  0  0  0  0  0  0
   10.0303    6.7318    0.0000 C   0  0  0  0  0  0  0  0  0  0  0  0
   10.0303    7.7318    0.0000 C   0  0  0  0  0  0  0  0  0  0  0  0
    4.7614   -1.0258    0.0000 H   0  0  0  0  0  0  0  0  0  0  0  0
    7.0862   -1.6059    0.0000 H   0  0  0  0  0  0  0  0  0  0  0  0
    5.9627   -0.3245    0.0000 H   0  0  0  0  0  0  0  0  0  0  0  0
    5.1511   -0.4970    0.0000 H   0  0  0  0  0  0  0  0  0  0  0  0
    4.9172   -2.7228    0.0000 H   0  0  0  0  0  0  0  0  0  0  0  0
    5.6752   -3.0603    0.0000 H   0  0  0  0  0  0  0  0  0  0  0  0
    6.8680   -4.5164    0.0000 H   0  0  0  0  0  0  0  0  0  0  0  0
    5.4562   -4.4106    0.0000 H   0  0  0  0  0  0  0  0  0  0  0  0
    3.6534   -2.8755    0.0000 H   0  0  0  0  0  0  0  0  0  0  0  0
    3.9467   -0.0849    0.0000 H   0  0  0  0  0  0  0  0  0  0  0  0
    6.8953    0.5418    0.0000 H   0  0  0  0  0  0  0  0  0  0  0  0
    8.3298   -4.3875    0.0000 H   0  0  0  0  0  0  0  0  0  0  0  0
    7.7614    1.0418    0.0000 H   0  0  0  0  0  0  0  0  0  0  0  0
    5.2315   -5.0682    0.0000 H   0  0  0  0  0  0  0  0  0  0  0  0
    5.7091   -5.8036    0.0000 H   0  0  0  0  0  0  0  0  0  0  0  0
    6.4444   -5.3261    0.0000 H   0  0  0  0  0  0  0  0  0  0  0  0
    5.7176   -3.0891    0.0000 H   0  0  0  0  0  0  0  0  0  0  0  0
    4.8420   -3.1350    0.0000 H   0  0  0  0  0  0  0  0  0  0  0  0
    4.8879   -4.0106    0.0000 H   0  0  0  0  0  0  0  0  0  0  0  0
    2.0423   -2.7061    0.0000 H   0  0  0  0  0  0  0  0  0  0  0  0
    2.3356    0.0844    0.0000 H   0  0  0  0  0  0  0  0  0  0  0  0
    1.3834   -1.2262    0.0000 H   0  0  0  0  0  0  0  0  0  0  0  0
    9.7749    0.1242    0.0000 H   0  0  0  0  0  0  0  0  0  0  0  0
    9.3764    0.8144    0.0000 H   0  0  0  0  0  0  0  0  0  0  0  0
    9.7012    1.9218    0.0000 H   0  0  0  0  0  0  0  0  0  0  0  0
    9.7012   -1.0782    0.0000 H   0  0  0  0  0  0  0  0  0  0  0  0
    8.9523    3.8144    0.0000 H   0  0  0  0  0  0  0  0  0  0  0  0
    8.5537    3.1242    0.0000 H   0  0  0  0  0  0  0  0  0  0  0  0
    7.4926   -6.9723    0.0000 H   0  0  0  0  0  0  0  0  0  0  0  0
    7.7389   -7.7303    0.0000 H   0  0  0  0  0  0  0  0  0  0  0  0
    8.9395   -7.2672    0.0000 H   0  0  0  0  0  0  0  0  0  0  0  0
   10.2424    3.1492    0.0000 H   0  0  0  0  0  0  0  0  0  0  0  0
   10.6409    3.8395    0.0000 H   0  0  0  0  0  0  0  0  0  0  0  0
    7.9962   -8.7229    0.0000 H   0  0  0  0  0  0  0  0  0  0  0  0
    8.4737   -9.4583    0.0000 H   0  0  0  0  0  0  0  0  0  0  0  0
    9.2091   -8.9807    0.0000 H   0  0  0  0  0  0  0  0  0  0  0  0
    9.9532   -8.1543    0.0000 H   0  0  0  0  0  0  0  0  0  0  0  0
   10.3513   -7.3731    0.0000 H   0  0  0  0  0  0  0  0  0  0  0  0
    9.5700   -6.9750    0.0000 H   0  0  0  0  0  0  0  0  0  0  0  0
   11.4333    4.9218    0.0000 H   0  0  0  0  0  0  0  0  0  0  0  0
    8.6274    4.9218    0.0000 H   0  0  0  0  0  0  0  0  0  0  0  0
   11.4333    6.5418    0.0000 H   0  0  0  0  0  0  0  0  0  0  0  0
    8.6274    6.5418    0.0000 H   0  0  0  0  0  0  0  0  0  0  0  0
   10.8964    8.8518    0.0000 H   0  0  0  0  0  0  0  0  0  0  0  0
  1 30  1  0  0  0  0
  1 71  1  0  0  0  0
  2 18  2  0  0  0  0
  3 19  2  0  0  0  0
  4 31  1  0  0  0  0
  4 34  1  0  0  0  0
  5 31  2  0  0  0  0
  6 32  2  0  0  0  0
  7 45  1  0  0  0  0
  7 89  1  0  0  0  0
  8 45  2  0  0  0  0
  9 14  1  0  0  0  0
  9 16  1  0  0  0  0
  9 18  1  0  0  0  0
 10 19  1  0  0  0  0
 24 10  1  6  0  0  0
 10 56  1  0  0  0  0
 20 11  1  1  0  0  0
 11 31  1  0  0  0  0
 11 57  1  0  0  0  0
 12 32  1  0  0  0  0
 12 33  1  0  0  0  0
 12 70  1  0  0  0  0
 13 15  1  0  0  0  0
 13 16  1  0  0  0  0
 13 17  1  6  0  0  0
 13 46  1  0  0  0  0
 14 15  1  0  0  0  0
 14 19  1  1  0  0  0
 14 47  1  0  0  0  0
 15 48  1  0  0  0  0
 15 49  1  0  0  0  0
 16 50  1  0  0  0  0
 16 51  1  0  0  0  0
 17 22  2  0  0  0  0
 17 23  1  0  0  0  0
 18 20  1  0  0  0  0
 20 21  1  0  0  0  0
 20 52  1  0  0  0  0
 21 25  1  0  0  0  0
 21 26  1  0  0  0  0
 21 53  1  0  0  0  0
 22 27  1  0  0  0  0
 22 54  1  0  0  0  0
 23 28  2  0  0  0  0
 23 55  1  0  0  0  0
 24 30  1  0  0  0  0
 24 32  1  0  0  0  0
 24 58  1  0  0  0  0
 25 59  1  0  0  0  0
 25 60  1  0  0  0  0
 25 61  1  0  0  0  0
 26 62  1  0  0  0  0
 26 63  1  0  0  0  0
 26 64  1  0  0  0  0
 27 29  2  0  0  0  0
 27 65  1  0  0  0  0
 28 29  1  0  0  0  0
 28 66  1  0  0  0  0
 29 67  1  0  0  0  0
 30 68  1  0  0  0  0
 30 69  1  0  0  0  0
 33 36  1  0  0  0  0
 33 72  1  0  0  0  0
 33 73  1  0  0  0  0
 34 35  1  0  0  0  0
 34 74  1  0  0  0  0
 34 75  1  0  0  0  0
 35 37  1  0  0  0  0
 35 38  1  0  0  0  0
 35 76  1  0  0  0  0
 36 39  1  0  0  0  0
 36 77  1  0  0  0  0
 36 78  1  0  0  0  0
 37 79  1  0  0  0  0
 37 80  1  0  0  0  0
 37 81  1  0  0  0  0
 38 82  1  0  0  0  0
 38 83  1  0  0  0  0
 38 84  1  0  0  0  0
 39 40  2  0  0  0  0
 39 41  1  0  0  0  0
 40 42  1  0  0  0  0
 40 85  1  0  0  0  0
 41 43  2  0  0  0  0
 41 86  1  0  0  0  0
 42 44  2  0  0  0  0
 42 87  1  0  0  0  0
 43 44  1  0  0  0  0
 43 88  1  0  0  0  0
 44 45  1  0  0  0  0
M  END
> <PUBCHEM_COMPOUND_CID>
507606
> <PUBCHEM_COMPOUND_CANONICALIZED>
1
> <PUBCHEM_CACTVS_COMPLEXITY>
1010
> <PUBCHEM_CACTVS_HBOND_ACCEPTOR>
8
> <PUBCHEM_CACTVS_HBOND_DONOR>
5
> <PUBCHEM_CACTVS_ROTATABLE_BOND>
15
> <PUBCHEM_CACTVS_SUBSKEYS>
AAADcfB/uABAAAAAAAAAAAAAAAAAAWAAAAAwYAAAAAAAAAABQAAAHgQQCAAADSjl2AayCIPABgSIAiHSGAACAAAkAAAIiIGICMkIZjKAlTGccQAk1gGImYeYyfCOwAAAAAAAAACAAAAAAAAAAAAAAAAAAA==
> <PUBCHEM_IUPAC_OPENEYE_NAME>
4-[2-[[(2R)-2-[[(2S,4S)-1-[(2S)-2-(isobutoxycarbonylamino)-3-methyl-butanoyl]-4-phenyl-pyrrolidine-2-carbonyl]amino]-3-sulfanyl-propanoyl]amino]ethyl]benzoic acid
> <PUBCHEM_IUPAC_CAS_NAME>
4-[2-[[(2R)-3-mercapto-2-[[[(2S,4S)-1-[(2S)-3-methyl-2-[[2-methylpropoxy(oxo)methyl]amino]-1-oxobutyl]-4-phenyl-2-pyrrolidinyl]-oxomethyl]amino]-1-oxopropyl]amino]ethyl]benzoic acid
> <PUBCHEM_IUPAC_NAME_MARKUP>
4-[2-[[(2<I>R</I>)-2-[[(2<I>S</I>,4<I>S</I>)-1-[(2<I>S</I>)-3-methyl-2-(2-methylpropoxycarbonylamino)butanoyl]-4-phenylpyrrolidine-2-carbonyl]amino]-3-sulfanylpropanoyl]amino]ethyl]benzoic acid
> <PUBCHEM_IUPAC_NAME>
4-[2-[[(2R)-2-[[(2S,4S)-1-[(2S)-3-methyl-2-(2-methylpropoxycarbonylamino)butanoyl]-4-phenylpyrrolidine-2-carbonyl]amino]-3-sulfanylpropanoyl]amino]ethyl]benzoic acid
> <PUBCHEM_IUPAC_SYSTEMATIC_NAME>
4-[2-[[(2R)-2-[[(2S,4S)-1-[(2S)-3-methyl-2-(2-methylpropoxycarbonylamino)butanoyl]-4-phenyl-pyrrolidin-2-yl]carbonylamino]-3-sulfanyl-propanoyl]amino]ethyl]benzoic acid
> <PUBCHEM_IUPAC_TRADITIONAL_NAME>
4-[2-[[(2R)-2-[[(2S,4S)-1-[(2S)-2-(isobutoxycarbonylamino)-3-methyl-butanoyl]-4-phenyl-prolyl]amino]-3-mercapto-propanoyl]amino]ethyl]benzoic acid
> <PUBCHEM_IUPAC_INCHI>
InChI=1S/C33H44N4O7S/c1-20(2)18-44-33(43)36-28(21(3)4)31(40)37-17-25(23-8-6-5-7-9-23)16-27(37)30(39)35-26(19-45)29(38)34-15-14-22-10-12-24(13-11-22)32(41)42/h5-13,20-21,25-28,45H,14-19H2,1-4H3,(H,34,38)(H,35,39)(H,36,43)(H,41,42)/t25-,26+,27+,28+/m1/s1
> <PUBCHEM_IUPAC_INCHIKEY>
ZFZWLVWDWINMJT-UNFRKHOWSA-N
> <PUBCHEM_XLOGP3_AA>
4.6
> <PUBCHEM_EXACT_MASS>
640.29307093
> <PUBCHEM_MOLECULAR_FORMULA>
C33H44N4O7S
> <PUBCHEM_MOLECULAR_WEIGHT>
640.8
> <PUBCHEM_OPENEYE_CAN_SMILES>
CC(C)COC(=O)NC(C(C)C)C(=O)N1CC(CC1C(=O)NC(CS)C(=O)NCCC2=CC=C(C=C2)C(=O)O)C3=CC=CC=C3
> <PUBCHEM_OPENEYE_ISO_SMILES>
CC(C)COC(=O)N[C@@H](C(C)C)C(=O)N1C[C@@H](C[C@H]1C(=O)N[C@@H](CS)C(=O)NCCC2=CC=C(C=C2)C(=O)O)C3=CC=CC=C3
> <PUBCHEM_CACTVS_TPSA>
155
> <PUBCHEM_MONOISOTOPIC_WEIGHT>
640.29307093
> <PUBCHEM_TOTAL_CHARGE>
0
> <PUBCHEM_HEAVY_ATOM_COUNT>
45
> <PUBCHEM_ATOM_DEF_STEREO_COUNT>
4
> <PUBCHEM_ATOM_UDEF_STEREO_COUNT>
0
> <PUBCHEM_BOND_DEF_STEREO_COUNT>
0
> <PUBCHEM_BOND_UDEF_STEREO_COUNT>
0
> <PUBCHEM_ISOTOPIC_ATOM_COUNT>
0
> <PUBCHEM_COMPONENT_COUNT>
1
> <PUBCHEM_CACTVS_TAUTO_COUNT>
-1
> <PUBCHEM_COORDINATE_TYPE>
1
5
255
> <PUBCHEM_BONDANNOTATIONS>
24  10  6
20  11  5
13  17  6
14  19  5
17  22  8
17  23  8
22  27  8
23  28  8
27  29  8
28  29  8
39  40  8
39  41  8
40  42  8
41  43  8
42  44  8
43  44  8
$$$$
