507670
  -OEChem-10302200282D
 74 77  0     1  0  0  0  0  0999 V2000
   11.6027   -1.5937    0.0000 S   0  0  0  0  0  0  0  0  0  0  0  0
    3.7320    3.8385    0.0000 F   0  0  0  0  0  0  0  0  0  0  0  0
    5.4641    3.8385    0.0000 F   0  0  0  0  0  0  0  0  0  0  0  0
    2.0000   -2.1615    0.0000 F   0  0  0  0  0  0  0  0  0  0  0  0
    5.4641   -2.1615    0.0000 F   0  0  0  0  0  0  0  0  0  0  0  0
    7.1962    0.8385    0.0000 O   0  0  0  0  0  0  0  0  0  0  0  0
    8.4405    0.2844    0.0000 O   0  0  0  0  0  0  0  0  0  0  0  0
   10.8778    1.3137    0.0000 O   0  0  0  0  0  0  0  0  0  0  0  0
    6.3301    0.3385    0.0000 O   0  0  0  0  0  0  0  0  0  0  0  0
    2.8660   -5.6615    0.0000 O   0  0  0  0  0  0  0  0  0  0  0  0
    4.5981   -5.6615    0.0000 O   0  0  0  0  0  0  0  0  0  0  0  0
    8.9757    1.9317    0.0000 N   0  0  0  0  0  0  0  0  0  0  0  0
    6.3301    2.3385    0.0000 N   0  0  0  0  0  0  0  0  0  0  0  0
    4.5981    0.3385    0.0000 N   0  0  0  0  0  0  0  0  0  0  0  0
    9.1448    3.5409    0.0000 C   0  0  2  0  0  0  0  0  0  0  0  0
    8.0622    2.3385    0.0000 C   0  0  3  0  0  0  0  0  0  0  0  0
    8.1667    3.3330    0.0000 C   0  0  0  0  0  0  0  0  0  0  0  0
    9.6448    2.6749    0.0000 C   0  0  0  0  0  0  0  0  0  0  0  0
    9.5516    4.4544    0.0000 C   0  0  0  0  0  0  0  0  0  0  0  0
    7.1962    1.8385    0.0000 C   0  0  0  0  0  0  0  0  0  0  0  0
    9.1836    0.9536    0.0000 C   0  0  0  0  0  0  0  0  0  0  0  0
   10.5461    4.5590    0.0000 C   0  0  0  0  0  0  0  0  0  0  0  0
    8.9638    5.2635    0.0000 C   0  0  0  0  0  0  0  0  0  0  0  0
    5.4641    1.8385    0.0000 C   0  0  1  0  0  0  0  0  0  0  0  0
   10.1347    0.6446    0.0000 C   0  0  0  0  0  0  0  0  0  0  0  0
   10.9528    5.4725    0.0000 C   0  0  0  0  0  0  0  0  0  0  0  0
    9.3705    6.1770    0.0000 C   0  0  0  0  0  0  0  0  0  0  0  0
    4.5981    2.3385    0.0000 C   0  0  0  0  0  0  0  0  0  0  0  0
   10.3651    6.2815    0.0000 C   0  0  0  0  0  0  0  0  0  0  0  0
   10.3426   -0.3336    0.0000 C   0  0  0  0  0  0  0  0  0  0  0  0
    5.4641    0.8385    0.0000 C   0  0  0  0  0  0  0  0  0  0  0  0
    4.5981    3.3385    0.0000 C   0  0  0  0  0  0  0  0  0  0  0  0
   11.2937   -0.6426    0.0000 C   0  0  0  0  0  0  0  0  0  0  0  0
    4.5981   -0.6615    0.0000 C   0  0  0  0  0  0  0  0  0  0  0  0
    3.7320   -1.1615    0.0000 C   0  0  0  0  0  0  0  0  0  0  0  0
   12.1027   -0.0548    0.0000 C   0  0  0  0  0  0  0  0  0  0  0  0
    3.7320   -2.1615    0.0000 C   0  0  0  0  0  0  0  0  0  0  0  0
   12.9117   -0.6426    0.0000 C   0  0  0  0  0  0  0  0  0  0  0  0
   12.6027   -1.5937    0.0000 C   0  0  0  0  0  0  0  0  0  0  0  0
    2.8660   -2.6615    0.0000 C   0  0  0  0  0  0  0  0  0  0  0  0
    4.5981   -2.6615    0.0000 C   0  0  0  0  0  0  0  0  0  0  0  0
    2.8660   -3.6615    0.0000 C   0  0  0  0  0  0  0  0  0  0  0  0
    4.5981   -3.6615    0.0000 C   0  0  0  0  0  0  0  0  0  0  0  0
    3.7320   -4.1615    0.0000 C   0  0  0  0  0  0  0  0  0  0  0  0
    3.7320   -5.1615    0.0000 C   0  0  0  0  0  0  0  0  0  0  0  0
    8.7547    4.0227    0.0000 H   0  0  0  0  0  0  0  0  0  0  0  0
    8.0946    1.7193    0.0000 H   0  0  0  0  0  0  0  0  0  0  0  0
    8.1019    3.9496    0.0000 H   0  0  0  0  0  0  0  0  0  0  0  0
    7.5467    3.3330    0.0000 H   0  0  0  0  0  0  0  0  0  0  0  0
   10.0597    2.2141    0.0000 H   0  0  0  0  0  0  0  0  0  0  0  0
   10.1464    3.0393    0.0000 H   0  0  0  0  0  0  0  0  0  0  0  0
    6.3301    2.9585    0.0000 H   0  0  0  0  0  0  0  0  0  0  0  0
   10.9105    4.0574    0.0000 H   0  0  0  0  0  0  0  0  0  0  0  0
    8.3472    5.1986    0.0000 H   0  0  0  0  0  0  0  0  0  0  0  0
    5.4641    2.4585    0.0000 H   0  0  0  0  0  0  0  0  0  0  0  0
    3.9875    2.4461    0.0000 H   0  0  0  0  0  0  0  0  0  0  0  0
    4.3860    1.7559    0.0000 H   0  0  0  0  0  0  0  0  0  0  0  0
   11.5695    5.5373    0.0000 H   0  0  0  0  0  0  0  0  0  0  0  0
    9.0061    6.6786    0.0000 H   0  0  0  0  0  0  0  0  0  0  0  0
   10.6172    6.8479    0.0000 H   0  0  0  0  0  0  0  0  0  0  0  0
    9.7230   -0.3552    0.0000 H   0  0  0  0  0  0  0  0  0  0  0  0
   10.2563   -0.9476    0.0000 H   0  0  0  0  0  0  0  0  0  0  0  0
    4.5981    3.9585    0.0000 H   0  0  0  0  0  0  0  0  0  0  0  0
    4.0611    0.6485    0.0000 H   0  0  0  0  0  0  0  0  0  0  0  0
    4.8101   -1.2441    0.0000 H   0  0  0  0  0  0  0  0  0  0  0  0
    5.2087   -0.5539    0.0000 H   0  0  0  0  0  0  0  0  0  0  0  0
    3.5200   -0.5789    0.0000 H   0  0  0  0  0  0  0  0  0  0  0  0
    3.1215   -1.2692    0.0000 H   0  0  0  0  0  0  0  0  0  0  0  0
   12.1027    0.5652    0.0000 H   0  0  0  0  0  0  0  0  0  0  0  0
   13.5013   -0.4510    0.0000 H   0  0  0  0  0  0  0  0  0  0  0  0
   12.9671   -2.0952    0.0000 H   0  0  0  0  0  0  0  0  0  0  0  0
    2.3291   -3.9715    0.0000 H   0  0  0  0  0  0  0  0  0  0  0  0
    5.1350   -3.9715    0.0000 H   0  0  0  0  0  0  0  0  0  0  0  0
    2.8660   -6.2815    0.0000 H   0  0  0  0  0  0  0  0  0  0  0  0
  1 33  1  0  0  0  0
  1 39  1  0  0  0  0
  2 32  1  0  0  0  0
  3 32  1  0  0  0  0
  4 40  1  0  0  0  0
  5 41  1  0  0  0  0
  6 20  2  0  0  0  0
  7 21  2  0  0  0  0
  8 25  2  0  0  0  0
  9 31  2  0  0  0  0
 10 45  1  0  0  0  0
 10 74  1  0  0  0  0
 11 45  2  0  0  0  0
 12 16  1  0  0  0  0
 12 18  1  0  0  0  0
 12 21  1  0  0  0  0
 13 20  1  0  0  0  0
 24 13  1  6  0  0  0
 13 52  1  0  0  0  0
 14 31  1  0  0  0  0
 14 34  1  0  0  0  0
 14 64  1  0  0  0  0
 15 17  1  0  0  0  0
 15 18  1  0  0  0  0
 15 19  1  1  0  0  0
 15 46  1  0  0  0  0
 16 17  1  0  0  0  0
 16 20  1  0  0  0  0
 16 47  1  0  0  0  0
 17 48  1  0  0  0  0
 17 49  1  0  0  0  0
 18 50  1  0  0  0  0
 18 51  1  0  0  0  0
 19 22  2  0  0  0  0
 19 23  1  0  0  0  0
 21 25  1  0  0  0  0
 22 26  1  0  0  0  0
 22 53  1  0  0  0  0
 23 27  2  0  0  0  0
 23 54  1  0  0  0  0
 24 28  1  0  0  0  0
 24 31  1  0  0  0  0
 24 55  1  0  0  0  0
 25 30  1  0  0  0  0
 26 29  2  0  0  0  0
 26 58  1  0  0  0  0
 27 29  1  0  0  0  0
 27 59  1  0  0  0  0
 28 32  1  0  0  0  0
 28 56  1  0  0  0  0
 28 57  1  0  0  0  0
 29 60  1  0  0  0  0
 30 33  1  0  0  0  0
 30 61  1  0  0  0  0
 30 62  1  0  0  0  0
 32 63  1  0  0  0  0
 33 36  2  0  0  0  0
 34 35  1  0  0  0  0
 34 65  1  0  0  0  0
 34 66  1  0  0  0  0
 35 37  1  0  0  0  0
 35 67  1  0  0  0  0
 35 68  1  0  0  0  0
 36 38  1  0  0  0  0
 36 69  1  0  0  0  0
 37 40  2  0  0  0  0
 37 41  1  0  0  0  0
 38 39  2  0  0  0  0
 38 70  1  0  0  0  0
 39 71  1  0  0  0  0
 40 42  1  0  0  0  0
 41 43  2  0  0  0  0
 42 44  2  0  0  0  0
 42 72  1  0  0  0  0
 43 44  1  0  0  0  0
 43 73  1  0  0  0  0
 44 45  1  0  0  0  0
M  END
> <PUBCHEM_COMPOUND_CID>
507670
> <PUBCHEM_COMPOUND_CANONICALIZED>
1
> <PUBCHEM_CACTVS_COMPLEXITY>
1070
> <PUBCHEM_CACTVS_HBOND_ACCEPTOR>
11
> <PUBCHEM_CACTVS_HBOND_DONOR>
3
> <PUBCHEM_CACTVS_ROTATABLE_BOND>
13
> <PUBCHEM_CACTVS_SUBSKEYS>
AAADceB7OcBAAAAAAAAAAAAAAAAAAWJAAAAwYAAAAAAAAAAB0AAAHwQQCAAADSzF2BywCYPAAgiMAqHSGAADAIAkCBBIiJmICMgIZjKglTGUcQAk1gGomYeYyfCOwAAAAAAAAACAAAAAAAAAAAAAAAAAAA==
> <PUBCHEM_IUPAC_OPENEYE_NAME>
4-[2-[[(2S)-4,4-difluoro-2-[[(4S)-1-[2-oxo-3-(2-thienyl)propanoyl]-4-phenyl-pyrrolidine-2-carbonyl]amino]butanoyl]amino]ethyl]-3,5-difluoro-benzoic acid
> <PUBCHEM_IUPAC_CAS_NAME>
4-[2-[[(2S)-2-[[[(4S)-1-(1,2-dioxo-3-thiophen-2-ylpropyl)-4-phenyl-2-pyrrolidinyl]-oxomethyl]amino]-4,4-difluoro-1-oxobutyl]amino]ethyl]-3,5-difluorobenzoic acid
> <PUBCHEM_IUPAC_NAME_MARKUP>
4-[2-[[(2<I>S</I>)-4,4-difluoro-2-[[(4<I>S</I>)-1-(2-oxo-3-thiophen-2-ylpropanoyl)-4-phenylpyrrolidine-2-carbonyl]amino]butanoyl]amino]ethyl]-3,5-difluorobenzoic acid
> <PUBCHEM_IUPAC_NAME>
4-[2-[[(2S)-4,4-difluoro-2-[[(4S)-1-(2-oxo-3-thiophen-2-ylpropanoyl)-4-phenylpyrrolidine-2-carbonyl]amino]butanoyl]amino]ethyl]-3,5-difluorobenzoic acid
> <PUBCHEM_IUPAC_SYSTEMATIC_NAME>
4-[2-[[(2S)-4,4-bis(fluoranyl)-2-[[(4S)-1-(2-oxidanylidene-3-thiophen-2-yl-propanoyl)-4-phenyl-pyrrolidin-2-yl]carbonylamino]butanoyl]amino]ethyl]-3,5-bis(fluoranyl)benzoic acid
> <PUBCHEM_IUPAC_TRADITIONAL_NAME>
4-[2-[[(2S)-4,4-difluoro-2-[[(4S)-1-[2-keto-3-(2-thienyl)propanoyl]-4-phenyl-prolyl]amino]butanoyl]amino]ethyl]-3,5-difluoro-benzoic acid
> <PUBCHEM_IUPAC_INCHI>
InChI=1S/C31H29F4N3O6S/c32-22-11-18(31(43)44)12-23(33)21(22)8-9-36-28(40)24(15-27(34)35)37-29(41)25-13-19(17-5-2-1-3-6-17)16-38(25)30(42)26(39)14-20-7-4-10-45-20/h1-7,10-12,19,24-25,27H,8-9,13-16H2,(H,36,40)(H,37,41)(H,43,44)/t19-,24+,25?/m1/s1
> <PUBCHEM_IUPAC_INCHIKEY>
AMJBVFGLIZZFGW-DGACUGMISA-N
> <PUBCHEM_XLOGP3_AA>
4.4
> <PUBCHEM_EXACT_MASS>
647.17131948
> <PUBCHEM_MOLECULAR_FORMULA>
C31H29F4N3O6S
> <PUBCHEM_MOLECULAR_WEIGHT>
647.6
> <PUBCHEM_OPENEYE_CAN_SMILES>
C1C(CN(C1C(=O)NC(CC(F)F)C(=O)NCCC2=C(C=C(C=C2F)C(=O)O)F)C(=O)C(=O)CC3=CC=CS3)C4=CC=CC=C4
> <PUBCHEM_OPENEYE_ISO_SMILES>
C1[C@H](CN(C1C(=O)N[C@@H](CC(F)F)C(=O)NCCC2=C(C=C(C=C2F)C(=O)O)F)C(=O)C(=O)CC3=CC=CS3)C4=CC=CC=C4
> <PUBCHEM_CACTVS_TPSA>
161
> <PUBCHEM_MONOISOTOPIC_WEIGHT>
647.17131948
> <PUBCHEM_TOTAL_CHARGE>
0
> <PUBCHEM_HEAVY_ATOM_COUNT>
45
> <PUBCHEM_ATOM_DEF_STEREO_COUNT>
2
> <PUBCHEM_ATOM_UDEF_STEREO_COUNT>
1
> <PUBCHEM_BOND_DEF_STEREO_COUNT>
0
> <PUBCHEM_BOND_UDEF_STEREO_COUNT>
0
> <PUBCHEM_ISOTOPIC_ATOM_COUNT>
0
> <PUBCHEM_COMPONENT_COUNT>
1
> <PUBCHEM_CACTVS_TAUTO_COUNT>
-1
> <PUBCHEM_COORDINATE_TYPE>
1
5
255
> <PUBCHEM_BONDANNOTATIONS>
1  33  8
1  39  8
24  13  6
15  19  5
16  20  3
19  22  8
19  23  8
22  26  8
23  27  8
26  29  8
27  29  8
33  36  8
36  38  8
37  40  8
37  41  8
38  39  8
40  42  8
41  43  8
42  44  8
43  44  8
$$$$
