507664
  -OEChem-10302200282D
 92 95  0     1  0  0  0  0  0999 V2000
    8.1886    4.1141    0.0000 F   0  0  0  0  0  0  0  0  0  0  0  0
    6.5422    4.6522    0.0000 F   0  0  0  0  0  0  0  0  0  0  0  0
    9.9136   -0.1887    0.0000 O   0  0  0  0  0  0  0  0  0  0  0  0
    8.9030    0.7244    0.0000 O   0  0  0  0  0  0  0  0  0  0  0  0
   12.2314   -2.9506    0.0000 O   0  0  0  0  0  0  0  0  0  0  0  0
    7.9244    0.5182    0.0000 O   0  0  0  0  0  0  0  0  0  0  0  0
   13.2519   -1.5511    0.0000 O   0  0  0  0  0  0  0  0  0  0  0  0
   15.0804   -0.7408    0.0000 O   0  0  0  0  0  0  0  0  0  0  0  0
   14.3786    0.8427    0.0000 O   0  0  0  0  0  0  0  0  0  0  0  0
   10.9341    1.2108    0.0000 N   0  0  0  0  0  0  0  0  0  0  0  0
    8.5458    2.4193    0.0000 N   0  0  0  0  0  0  0  0  0  0  0  0
   11.5296   -1.3671    0.0000 N   0  0  0  0  0  0  0  0  0  0  0  0
    6.2781    1.0563    0.0000 N   0  0  0  0  0  0  0  0  0  0  0  0
    4.6783   -2.6604    0.0000 N   0  0  0  0  0  0  0  0  0  0  0  0
   11.5948    2.6878    0.0000 C   0  0  2  0  0  0  0  0  0  0  0  0
   10.1921    1.8812    0.0000 C   0  0  1  0  0  0  0  0  0  0  0  0
   10.6004    2.7940    0.0000 C   0  0  0  0  0  0  0  0  0  0  0  0
   11.8010    1.7093    0.0000 C   0  0  0  0  0  0  0  0  0  0  0  0
   12.2652    3.4298    0.0000 C   0  0  0  0  0  0  0  0  0  0  0  0
   10.8279    0.2164    0.0000 C   0  0  0  0  0  0  0  0  0  0  0  0
    9.2136    1.6750    0.0000 C   0  0  0  0  0  0  0  0  0  0  0  0
   11.6359   -0.3728    0.0000 C   0  0  2  0  0  0  0  0  0  0  0  0
   13.2430    3.2202    0.0000 C   0  0  0  0  0  0  0  0  0  0  0  0
   11.9578    4.3814    0.0000 C   0  0  0  0  0  0  0  0  0  0  0  0
   12.5501    0.0324    0.0000 C   0  0  0  0  0  0  0  0  0  0  0  0
    7.5673    2.2130    0.0000 C   0  0  1  0  0  0  0  0  0  0  0  0
   13.9134    3.9621    0.0000 C   0  0  0  0  0  0  0  0  0  0  0  0
   12.6282    5.1233    0.0000 C   0  0  0  0  0  0  0  0  0  0  0  0
   13.3581   -0.5568    0.0000 C   0  0  0  0  0  0  0  0  0  0  0  0
    6.8994    2.9574    0.0000 C   0  0  0  0  0  0  0  0  0  0  0  0
   13.6060    4.9137    0.0000 C   0  0  0  0  0  0  0  0  0  0  0  0
    7.2566    1.2625    0.0000 C   0  0  0  0  0  0  0  0  0  0  0  0
   12.3376   -1.9563    0.0000 C   0  0  0  0  0  0  0  0  0  0  0  0
    7.2101    3.9079    0.0000 C   0  0  0  0  0  0  0  0  0  0  0  0
   14.2724   -0.1516    0.0000 C   0  0  0  0  0  0  0  0  0  0  0  0
    5.9674    0.1058    0.0000 C   0  0  0  0  0  0  0  0  0  0  0  0
    4.9889   -0.1004    0.0000 C   0  0  0  0  0  0  0  0  0  0  0  0
   13.0394   -3.5398    0.0000 C   0  0  0  0  0  0  0  0  0  0  0  0
    4.6783   -1.0510    0.0000 C   0  0  0  0  0  0  0  0  0  0  0  0
   12.9331   -4.5342    0.0000 C   0  0  0  0  0  0  0  0  0  0  0  0
    3.7320   -1.3557    0.0000 C   0  0  0  0  0  0  0  0  0  0  0  0
    5.2619   -1.8557    0.0000 C   0  0  0  0  0  0  0  0  0  0  0  0
    3.7320   -2.3557    0.0000 C   0  0  0  0  0  0  0  0  0  0  0  0
   13.7411   -5.1233    0.0000 C   0  0  0  0  0  0  0  0  0  0  0  0
   12.0189   -4.9393    0.0000 C   0  0  0  0  0  0  0  0  0  0  0  0
    2.8660   -0.8557    0.0000 C   0  0  0  0  0  0  0  0  0  0  0  0
    2.8660   -2.8557    0.0000 C   0  0  0  0  0  0  0  0  0  0  0  0
    2.0000   -1.3557    0.0000 C   0  0  0  0  0  0  0  0  0  0  0  0
    2.0000   -2.3557    0.0000 C   0  0  0  0  0  0  0  0  0  0  0  0
   11.3736    3.2670    0.0000 H   0  0  0  0  0  0  0  0  0  0  0  0
   10.0306    1.2826    0.0000 H   0  0  0  0  0  0  0  0  0  0  0  0
   10.7304    3.4002    0.0000 H   0  0  0  0  0  0  0  0  0  0  0  0
   10.0111    2.9866    0.0000 H   0  0  0  0  0  0  0  0  0  0  0  0
   12.0522    1.1424    0.0000 H   0  0  0  0  0  0  0  0  0  0  0  0
   12.3910    1.8998    0.0000 H   0  0  0  0  0  0  0  0  0  0  0  0
   11.0690   -0.6240    0.0000 H   0  0  0  0  0  0  0  0  0  0  0  0
    8.7384    3.0086    0.0000 H   0  0  0  0  0  0  0  0  0  0  0  0
   13.4336    2.6302    0.0000 H   0  0  0  0  0  0  0  0  0  0  0  0
   11.3516    4.5113    0.0000 H   0  0  0  0  0  0  0  0  0  0  0  0
   12.9968    0.4623    0.0000 H   0  0  0  0  0  0  0  0  0  0  0  0
   12.2043    0.5470    0.0000 H   0  0  0  0  0  0  0  0  0  0  0  0
    7.9813    1.7516    0.0000 H   0  0  0  0  0  0  0  0  0  0  0  0
   10.9628   -1.6183    0.0000 H   0  0  0  0  0  0  0  0  0  0  0  0
   14.5196    3.8322    0.0000 H   0  0  0  0  0  0  0  0  0  0  0  0
   12.4377    5.7133    0.0000 H   0  0  0  0  0  0  0  0  0  0  0  0
   12.9114   -0.9867    0.0000 H   0  0  0  0  0  0  0  0  0  0  0  0
   13.7039   -1.0714    0.0000 H   0  0  0  0  0  0  0  0  0  0  0  0
    6.3525    3.2494    0.0000 H   0  0  0  0  0  0  0  0  0  0  0  0
    6.5169    2.4694    0.0000 H   0  0  0  0  0  0  0  0  0  0  0  0
   14.0217    5.3738    0.0000 H   0  0  0  0  0  0  0  0  0  0  0  0
    7.6242    3.4464    0.0000 H   0  0  0  0  0  0  0  0  0  0  0  0
    5.8640    1.5178    0.0000 H   0  0  0  0  0  0  0  0  0  0  0  0
    5.9880   -0.5139    0.0000 H   0  0  0  0  0  0  0  0  0  0  0  0
    6.5812    0.0184    0.0000 H   0  0  0  0  0  0  0  0  0  0  0  0
    4.9684    0.5192    0.0000 H   0  0  0  0  0  0  0  0  0  0  0  0
    4.3751   -0.0131    0.0000 H   0  0  0  0  0  0  0  0  0  0  0  0
   13.6350   -3.7117    0.0000 H   0  0  0  0  0  0  0  0  0  0  0  0
   13.3121   -2.9830    0.0000 H   0  0  0  0  0  0  0  0  0  0  0  0
   12.4321   -4.1688    0.0000 H   0  0  0  0  0  0  0  0  0  0  0  0
   15.6472   -0.4896    0.0000 H   0  0  0  0  0  0  0  0  0  0  0  0
    5.8819   -1.8557    0.0000 H   0  0  0  0  0  0  0  0  0  0  0  0
    4.8709   -3.2497    0.0000 H   0  0  0  0  0  0  0  0  0  0  0  0
   13.3758   -5.6243    0.0000 H   0  0  0  0  0  0  0  0  0  0  0  0
   14.2421   -5.4886    0.0000 H   0  0  0  0  0  0  0  0  0  0  0  0
   14.1064   -4.6224    0.0000 H   0  0  0  0  0  0  0  0  0  0  0  0
   11.7677   -4.3725    0.0000 H   0  0  0  0  0  0  0  0  0  0  0  0
   11.4520   -5.1905    0.0000 H   0  0  0  0  0  0  0  0  0  0  0  0
   12.2701   -5.5061    0.0000 H   0  0  0  0  0  0  0  0  0  0  0  0
    2.8660   -0.2357    0.0000 H   0  0  0  0  0  0  0  0  0  0  0  0
    2.8660   -3.4757    0.0000 H   0  0  0  0  0  0  0  0  0  0  0  0
    1.4631   -1.0457    0.0000 H   0  0  0  0  0  0  0  0  0  0  0  0
    1.4631   -2.6657    0.0000 H   0  0  0  0  0  0  0  0  0  0  0  0
  1 34  1  0  0  0  0
  2 34  1  0  0  0  0
  3 20  2  0  0  0  0
  4 21  2  0  0  0  0
  5 33  1  0  0  0  0
  5 38  1  0  0  0  0
  6 32  2  0  0  0  0
  7 33  2  0  0  0  0
  8 35  1  0  0  0  0
  8 80  1  0  0  0  0
  9 35  2  0  0  0  0
 10 16  1  0  0  0  0
 10 18  1  0  0  0  0
 10 20  1  0  0  0  0
 11 21  1  0  0  0  0
 26 11  1  6  0  0  0
 11 57  1  0  0  0  0
 22 12  1  6  0  0  0
 12 33  1  0  0  0  0
 12 63  1  0  0  0  0
 13 32  1  0  0  0  0
 13 36  1  0  0  0  0
 13 72  1  0  0  0  0
 14 42  1  0  0  0  0
 14 43  1  0  0  0  0
 14 82  1  0  0  0  0
 15 17  1  0  0  0  0
 15 18  1  0  0  0  0
 15 19  1  1  0  0  0
 15 50  1  0  0  0  0
 16 17  1  0  0  0  0
 16 21  1  6  0  0  0
 16 51  1  0  0  0  0
 17 52  1  0  0  0  0
 17 53  1  0  0  0  0
 18 54  1  0  0  0  0
 18 55  1  0  0  0  0
 19 23  2  0  0  0  0
 19 24  1  0  0  0  0
 20 22  1  0  0  0  0
 22 25  1  0  0  0  0
 22 56  1  0  0  0  0
 23 27  1  0  0  0  0
 23 58  1  0  0  0  0
 24 28  2  0  0  0  0
 24 59  1  0  0  0  0
 25 29  1  0  0  0  0
 25 60  1  0  0  0  0
 25 61  1  0  0  0  0
 26 30  1  0  0  0  0
 26 32  1  0  0  0  0
 26 62  1  0  0  0  0
 27 31  2  0  0  0  0
 27 64  1  0  0  0  0
 28 31  1  0  0  0  0
 28 65  1  0  0  0  0
 29 35  1  0  0  0  0
 29 66  1  0  0  0  0
 29 67  1  0  0  0  0
 30 34  1  0  0  0  0
 30 68  1  0  0  0  0
 30 69  1  0  0  0  0
 31 70  1  0  0  0  0
 34 71  1  0  0  0  0
 36 37  1  0  0  0  0
 36 73  1  0  0  0  0
 36 74  1  0  0  0  0
 37 39  1  0  0  0  0
 37 75  1  0  0  0  0
 37 76  1  0  0  0  0
 38 40  1  0  0  0  0
 38 77  1  0  0  0  0
 38 78  1  0  0  0  0
 39 41  1  0  0  0  0
 39 42  2  0  0  0  0
 40 44  1  0  0  0  0
 40 45  1  0  0  0  0
 40 79  1  0  0  0  0
 41 43  1  0  0  0  0
 41 46  2  0  0  0  0
 42 81  1  0  0  0  0
 43 47  2  0  0  0  0
 44 83  1  0  0  0  0
 44 84  1  0  0  0  0
 44 85  1  0  0  0  0
 45 86  1  0  0  0  0
 45 87  1  0  0  0  0
 45 88  1  0  0  0  0
 46 48  1  0  0  0  0
 46 89  1  0  0  0  0
 47 49  1  0  0  0  0
 47 90  1  0  0  0  0
 48 49  2  0  0  0  0
 48 91  1  0  0  0  0
 49 92  1  0  0  0  0
M  END
> <PUBCHEM_COMPOUND_CID>
507664
> <PUBCHEM_COMPOUND_CANONICALIZED>
1
> <PUBCHEM_CACTVS_COMPLEXITY>
1140
> <PUBCHEM_CACTVS_HBOND_ACCEPTOR>
9
> <PUBCHEM_CACTVS_HBOND_DONOR>
5
> <PUBCHEM_CACTVS_ROTATABLE_BOND>
17
> <PUBCHEM_CACTVS_SUBSKEYS>
AAADcfB/uYAAAAAAAAAAAAAAAAAAAWLAAAAwYAAAAAAAAFgB9AAAHwAQCAAADSjhnhY+yPPJlgCoAzX3XACCgCAxAiAI2aG4ZJkIYPLAkbGcYAhklgDIyAe8n8KOgAAAAAACAAAAAAAAAAQAAAAAAAAAAA==
> <PUBCHEM_IUPAC_OPENEYE_NAME>
(4S)-5-[(2S,4S)-2-[[(1S)-3,3-difluoro-1-[2-(1H-indol-3-yl)ethylcarbamoyl]propyl]carbamoyl]-4-phenyl-pyrrolidin-1-yl]-4-(isobutoxycarbonylamino)-5-oxo-pentanoic acid
> <PUBCHEM_IUPAC_CAS_NAME>
(4S)-5-[(2S,4S)-2-[[[(2S)-4,4-difluoro-1-[2-(1H-indol-3-yl)ethylamino]-1-oxobutan-2-yl]amino]-oxomethyl]-4-phenyl-1-pyrrolidinyl]-4-[[2-methylpropoxy(oxo)methyl]amino]-5-oxopentanoic acid
> <PUBCHEM_IUPAC_NAME_MARKUP>
(4<I>S</I>)-5-[(2<I>S</I>,4<I>S</I>)-2-[[(2<I>S</I>)-4,4-difluoro-1-[2-(1<I>H</I>-indol-3-yl)ethylamino]-1-oxobutan-2-yl]carbamoyl]-4-phenylpyrrolidin-1-yl]-4-(2-methylpropoxycarbonylamino)-5-oxopentanoic acid
> <PUBCHEM_IUPAC_NAME>
(4S)-5-[(2S,4S)-2-[[(2S)-4,4-difluoro-1-[2-(1H-indol-3-yl)ethylamino]-1-oxobutan-2-yl]carbamoyl]-4-phenylpyrrolidin-1-yl]-4-(2-methylpropoxycarbonylamino)-5-oxopentanoic acid
> <PUBCHEM_IUPAC_SYSTEMATIC_NAME>
(4S)-5-[(2S,4S)-2-[[(2S)-4,4-bis(fluoranyl)-1-[2-(1H-indol-3-yl)ethylamino]-1-oxidanylidene-butan-2-yl]carbamoyl]-4-phenyl-pyrrolidin-1-yl]-4-(2-methylpropoxycarbonylamino)-5-oxidanylidene-pentanoic acid
> <PUBCHEM_IUPAC_TRADITIONAL_NAME>
(4S)-5-[(2S,4S)-2-[[(1S)-3,3-difluoro-1-[2-(1H-indol-3-yl)ethylcarbamoyl]propyl]carbamoyl]-4-phenyl-pyrrolidino]-4-(isobutoxycarbonylamino)-5-keto-valeric acid
> <PUBCHEM_IUPAC_INCHI>
InChI=1S/C35H43F2N5O7/c1-21(2)20-49-35(48)41-27(12-13-31(43)44)34(47)42-19-24(22-8-4-3-5-9-22)16-29(42)33(46)40-28(17-30(36)37)32(45)38-15-14-23-18-39-26-11-7-6-10-25(23)26/h3-11,18,21,24,27-30,39H,12-17,19-20H2,1-2H3,(H,38,45)(H,40,46)(H,41,48)(H,43,44)/t24-,27+,28+,29+/m1/s1
> <PUBCHEM_IUPAC_INCHIKEY>
UKGNTQPCAFEWPV-KHUDPXOFSA-N
> <PUBCHEM_XLOGP3_AA>
4.6
> <PUBCHEM_EXACT_MASS>
683.31305505
> <PUBCHEM_MOLECULAR_FORMULA>
C35H43F2N5O7
> <PUBCHEM_MOLECULAR_WEIGHT>
683.7
> <PUBCHEM_OPENEYE_CAN_SMILES>
CC(C)COC(=O)NC(CCC(=O)O)C(=O)N1CC(CC1C(=O)NC(CC(F)F)C(=O)NCCC2=CNC3=CC=CC=C32)C4=CC=CC=C4
> <PUBCHEM_OPENEYE_ISO_SMILES>
CC(C)COC(=O)N[C@@H](CCC(=O)O)C(=O)N1C[C@@H](C[C@H]1C(=O)N[C@@H](CC(F)F)C(=O)NCCC2=CNC3=CC=CC=C32)C4=CC=CC=C4
> <PUBCHEM_CACTVS_TPSA>
170
> <PUBCHEM_MONOISOTOPIC_WEIGHT>
683.31305505
> <PUBCHEM_TOTAL_CHARGE>
0
> <PUBCHEM_HEAVY_ATOM_COUNT>
49
> <PUBCHEM_ATOM_DEF_STEREO_COUNT>
4
> <PUBCHEM_ATOM_UDEF_STEREO_COUNT>
0
> <PUBCHEM_BOND_DEF_STEREO_COUNT>
0
> <PUBCHEM_BOND_UDEF_STEREO_COUNT>
0
> <PUBCHEM_ISOTOPIC_ATOM_COUNT>
0
> <PUBCHEM_COMPONENT_COUNT>
1
> <PUBCHEM_CACTVS_TAUTO_COUNT>
-1
> <PUBCHEM_COORDINATE_TYPE>
1
5
255
> <PUBCHEM_BONDANNOTATIONS>
26  11  6
22  12  6
14  42  8
14  43  8
15  19  5
16  21  6
19  23  8
19  24  8
23  27  8
24  28  8
27  31  8
28  31  8
39  41  8
39  42  8
41  43  8
41  46  8
43  47  8
46  48  8
47  49  8
48  49  8
$$$$
