507612
  -OEChem-10302200282D
 93 96  0     1  0  0  0  0  0999 V2000
    2.0000    4.1916    0.0000 Cl  0  0  0  0  0  0  0  0  0  0  0  0
    4.5981   -1.3083    0.0000 S   0  0  0  0  0  0  0  0  0  0  0  0
    5.6065   -3.1630    0.0000 O   0  0  0  0  0  0  0  0  0  0  0  0
    5.4641   -1.8084    0.0000 O   0  0  0  0  0  0  0  0  0  0  0  0
    8.8755   -6.0463    0.0000 O   0  0  0  0  0  0  0  0  0  0  0  0
    7.1813   -6.4065    0.0000 O   0  0  0  0  0  0  0  0  0  0  0  0
    6.3301    1.6916    0.0000 O   0  0  0  0  0  0  0  0  0  0  0  0
    4.5981    7.6916    0.0000 O   0  0  0  0  0  0  0  0  0  0  0  0
    2.8660    7.6916    0.0000 O   0  0  0  0  0  0  0  0  0  0  0  0
    7.3007   -2.8029    0.0000 N   0  0  0  0  0  0  0  0  0  0  0  0
    7.7165   -4.7592    0.0000 N   0  0  0  0  0  0  0  0  0  0  0  0
    6.3301   -0.3084    0.0000 N   0  0  0  0  0  0  0  0  0  0  0  0
    4.5981    1.6916    0.0000 N   0  0  0  0  0  0  0  0  0  0  0  0
    6.0223   -5.1193    0.0000 C   0  0  0  0  0  0  0  0  0  0  0  0
    6.7654   -4.4502    0.0000 C   0  0  1  0  0  0  0  0  0  0  0  0
    5.0442   -4.9114    0.0000 C   0  0  0  0  0  0  0  0  0  0  0  0
    6.1268   -6.1138    0.0000 C   0  0  0  0  0  0  0  0  0  0  0  0
    7.1962   -1.8084    0.0000 C   0  0  1  0  0  0  0  0  0  0  0  0
    8.7788   -2.1448    0.0000 C   0  0  2  0  0  0  0  0  0  0  0  0
    4.5442   -5.7774    0.0000 C   0  0  0  0  0  0  0  0  0  0  0  0
    5.2133   -6.5205    0.0000 C   0  0  0  0  0  0  0  0  0  0  0  0
    8.1097   -1.4016    0.0000 C   0  0  0  0  0  0  0  0  0  0  0  0
    8.2788   -3.0108    0.0000 C   0  0  0  0  0  0  0  0  0  0  0  0
    6.5575   -3.4720    0.0000 C   0  0  0  0  0  0  0  0  0  0  0  0
    9.7734   -2.0402    0.0000 C   0  0  0  0  0  0  0  0  0  0  0  0
    6.3301   -1.3083    0.0000 C   0  0  0  0  0  0  0  0  0  0  0  0
   10.1801   -1.1267    0.0000 C   0  0  0  0  0  0  0  0  0  0  0  0
   10.3611   -2.8492    0.0000 C   0  0  0  0  0  0  0  0  0  0  0  0
    7.9244   -5.7373    0.0000 C   0  0  0  0  0  0  0  0  0  0  0  0
    5.4641    0.1916    0.0000 C   0  0  1  0  0  0  0  0  0  0  0  0
   11.1746   -1.0222    0.0000 C   0  0  0  0  0  0  0  0  0  0  0  0
   11.3557   -2.7447    0.0000 C   0  0  0  0  0  0  0  0  0  0  0  0
   11.7624   -1.8312    0.0000 C   0  0  0  0  0  0  0  0  0  0  0  0
    4.5981   -0.3084    0.0000 C   0  0  0  0  0  0  0  0  0  0  0  0
    5.4641    1.1917    0.0000 C   0  0  0  0  0  0  0  0  0  0  0  0
    9.0834   -7.0245    0.0000 C   0  0  0  0  0  0  0  0  0  0  0  0
   10.0344   -7.3335    0.0000 C   0  0  0  0  0  0  0  0  0  0  0  0
    4.5981    2.6916    0.0000 C   0  0  0  0  0  0  0  0  0  0  0  0
   10.2424   -8.3116    0.0000 C   0  0  0  0  0  0  0  0  0  0  0  0
   10.7776   -6.6644    0.0000 C   0  0  0  0  0  0  0  0  0  0  0  0
    3.7320    3.1916    0.0000 C   0  0  0  0  0  0  0  0  0  0  0  0
    3.7320    4.1916    0.0000 C   0  0  0  0  0  0  0  0  0  0  0  0
    2.8660    4.6916    0.0000 C   0  0  0  0  0  0  0  0  0  0  0  0
    4.5981    4.6916    0.0000 C   0  0  0  0  0  0  0  0  0  0  0  0
    2.8660    5.6916    0.0000 C   0  0  0  0  0  0  0  0  0  0  0  0
    4.5981    5.6916    0.0000 C   0  0  0  0  0  0  0  0  0  0  0  0
    3.7320    6.1916    0.0000 C   0  0  0  0  0  0  0  0  0  0  0  0
    3.7320    7.1916    0.0000 C   0  0  0  0  0  0  0  0  0  0  0  0
    5.8618   -4.5204    0.0000 H   0  0  0  0  0  0  0  0  0  0  0  0
    6.8944   -5.0566    0.0000 H   0  0  0  0  0  0  0  0  0  0  0  0
    5.2358   -4.3217    0.0000 H   0  0  0  0  0  0  0  0  0  0  0  0
    4.4778   -4.6592    0.0000 H   0  0  0  0  0  0  0  0  0  0  0  0
    6.3184   -6.7035    0.0000 H   0  0  0  0  0  0  0  0  0  0  0  0
    6.7333   -5.9849    0.0000 H   0  0  0  0  0  0  0  0  0  0  0  0
    6.6762   -2.1460    0.0000 H   0  0  0  0  0  0  0  0  0  0  0  0
    9.1165   -2.6647    0.0000 H   0  0  0  0  0  0  0  0  0  0  0  0
    4.0426   -5.4130    0.0000 H   0  0  0  0  0  0  0  0  0  0  0  0
    4.1293   -6.2382    0.0000 H   0  0  0  0  0  0  0  0  0  0  0  0
    4.7117   -6.8850    0.0000 H   0  0  0  0  0  0  0  0  0  0  0  0
    5.5233   -7.0575    0.0000 H   0  0  0  0  0  0  0  0  0  0  0  0
    8.6113   -1.0372    0.0000 H   0  0  0  0  0  0  0  0  0  0  0  0
    7.7997   -0.8647    0.0000 H   0  0  0  0  0  0  0  0  0  0  0  0
    8.0872   -3.6004    0.0000 H   0  0  0  0  0  0  0  0  0  0  0  0
    8.8452   -3.2630    0.0000 H   0  0  0  0  0  0  0  0  0  0  0  0
    8.1773   -4.3443    0.0000 H   0  0  0  0  0  0  0  0  0  0  0  0
    6.8671    0.0016    0.0000 H   0  0  0  0  0  0  0  0  0  0  0  0
    9.8157   -0.6251    0.0000 H   0  0  0  0  0  0  0  0  0  0  0  0
   10.1090   -3.4156    0.0000 H   0  0  0  0  0  0  0  0  0  0  0  0
    5.4641   -0.4284    0.0000 H   0  0  0  0  0  0  0  0  0  0  0  0
   11.4268   -0.4558    0.0000 H   0  0  0  0  0  0  0  0  0  0  0  0
   11.7201   -3.2463    0.0000 H   0  0  0  0  0  0  0  0  0  0  0  0
   12.3790   -1.7664    0.0000 H   0  0  0  0  0  0  0  0  0  0  0  0
    4.3860    0.2743    0.0000 H   0  0  0  0  0  0  0  0  0  0  0  0
    3.9875   -0.4160    0.0000 H   0  0  0  0  0  0  0  0  0  0  0  0
    8.4638   -7.0461    0.0000 H   0  0  0  0  0  0  0  0  0  0  0  0
    8.9971   -7.6384    0.0000 H   0  0  0  0  0  0  0  0  0  0  0  0
   10.6241   -7.5251    0.0000 H   0  0  0  0  0  0  0  0  0  0  0  0
    4.0611    1.3816    0.0000 H   0  0  0  0  0  0  0  0  0  0  0  0
    4.0611   -1.6184    0.0000 H   0  0  0  0  0  0  0  0  0  0  0  0
    5.2087    2.5840    0.0000 H   0  0  0  0  0  0  0  0  0  0  0  0
    4.8101    3.2743    0.0000 H   0  0  0  0  0  0  0  0  0  0  0  0
    9.6359   -8.4406    0.0000 H   0  0  0  0  0  0  0  0  0  0  0  0
   10.3713   -8.9181    0.0000 H   0  0  0  0  0  0  0  0  0  0  0  0
   10.8488   -8.1827    0.0000 H   0  0  0  0  0  0  0  0  0  0  0  0
   11.1924   -7.1251    0.0000 H   0  0  0  0  0  0  0  0  0  0  0  0
   11.2383   -6.2495    0.0000 H   0  0  0  0  0  0  0  0  0  0  0  0
   10.3627   -6.2036    0.0000 H   0  0  0  0  0  0  0  0  0  0  0  0
    3.1215    3.2993    0.0000 H   0  0  0  0  0  0  0  0  0  0  0  0
    3.5200    2.6090    0.0000 H   0  0  0  0  0  0  0  0  0  0  0  0
    5.1350    4.3816    0.0000 H   0  0  0  0  0  0  0  0  0  0  0  0
    2.3291    6.0016    0.0000 H   0  0  0  0  0  0  0  0  0  0  0  0
    5.1350    6.0016    0.0000 H   0  0  0  0  0  0  0  0  0  0  0  0
    4.5981    8.3116    0.0000 H   0  0  0  0  0  0  0  0  0  0  0  0
  1 43  1  0  0  0  0
  2 34  1  0  0  0  0
  2 79  1  0  0  0  0
  3 24  2  0  0  0  0
  4 26  2  0  0  0  0
  5 29  1  0  0  0  0
  5 36  1  0  0  0  0
  6 29  2  0  0  0  0
  7 35  2  0  0  0  0
  8 48  1  0  0  0  0
  8 93  1  0  0  0  0
  9 48  2  0  0  0  0
 10 18  1  0  0  0  0
 10 23  1  0  0  0  0
 10 24  1  0  0  0  0
 15 11  1  1  0  0  0
 11 29  1  0  0  0  0
 11 65  1  0  0  0  0
 12 26  1  0  0  0  0
 30 12  1  1  0  0  0
 12 66  1  0  0  0  0
 13 35  1  0  0  0  0
 13 38  1  0  0  0  0
 13 78  1  0  0  0  0
 14 15  1  0  0  0  0
 14 16  1  0  0  0  0
 14 17  1  0  0  0  0
 14 49  1  0  0  0  0
 15 24  1  0  0  0  0
 15 50  1  0  0  0  0
 16 20  1  0  0  0  0
 16 51  1  0  0  0  0
 16 52  1  0  0  0  0
 17 21  1  0  0  0  0
 17 53  1  0  0  0  0
 17 54  1  0  0  0  0
 18 22  1  0  0  0  0
 18 26  1  6  0  0  0
 18 55  1  0  0  0  0
 19 22  1  0  0  0  0
 19 23  1  0  0  0  0
 19 25  1  1  0  0  0
 19 56  1  0  0  0  0
 20 21  1  0  0  0  0
 20 57  1  0  0  0  0
 20 58  1  0  0  0  0
 21 59  1  0  0  0  0
 21 60  1  0  0  0  0
 22 61  1  0  0  0  0
 22 62  1  0  0  0  0
 23 63  1  0  0  0  0
 23 64  1  0  0  0  0
 25 27  2  0  0  0  0
 25 28  1  0  0  0  0
 27 31  1  0  0  0  0
 27 67  1  0  0  0  0
 28 32  2  0  0  0  0
 28 68  1  0  0  0  0
 30 34  1  0  0  0  0
 30 35  1  0  0  0  0
 30 69  1  0  0  0  0
 31 33  2  0  0  0  0
 31 70  1  0  0  0  0
 32 33  1  0  0  0  0
 32 71  1  0  0  0  0
 33 72  1  0  0  0  0
 34 73  1  0  0  0  0
 34 74  1  0  0  0  0
 36 37  1  0  0  0  0
 36 75  1  0  0  0  0
 36 76  1  0  0  0  0
 37 39  1  0  0  0  0
 37 40  1  0  0  0  0
 37 77  1  0  0  0  0
 38 41  1  0  0  0  0
 38 80  1  0  0  0  0
 38 81  1  0  0  0  0
 39 82  1  0  0  0  0
 39 83  1  0  0  0  0
 39 84  1  0  0  0  0
 40 85  1  0  0  0  0
 40 86  1  0  0  0  0
 40 87  1  0  0  0  0
 41 42  1  0  0  0  0
 41 88  1  0  0  0  0
 41 89  1  0  0  0  0
 42 43  2  0  0  0  0
 42 44  1  0  0  0  0
 43 45  1  0  0  0  0
 44 46  2  0  0  0  0
 44 90  1  0  0  0  0
 45 47  2  0  0  0  0
 45 91  1  0  0  0  0
 46 47  1  0  0  0  0
 46 92  1  0  0  0  0
 47 48  1  0  0  0  0
M  END
> <PUBCHEM_COMPOUND_CID>
507612
> <PUBCHEM_COMPOUND_CANONICALIZED>
1
> <PUBCHEM_CACTVS_COMPLEXITY>
1120
> <PUBCHEM_CACTVS_HBOND_ACCEPTOR>
8
> <PUBCHEM_CACTVS_HBOND_DONOR>
5
> <PUBCHEM_CACTVS_ROTATABLE_BOND>
15
> <PUBCHEM_CACTVS_SUBSKEYS>
AAADcfB/uABEAAAAAAAAAAAAAAAAAeIAAAAwYAAAAAAAAAABQAAAHgYQCAAADSrl2CayCIPABgSIAiHSGAACAAAkBQAIiIGICskIZjKBlzGccQAk1gGImYeYyfCOwAAAIAABAACAAABAAAIAAAAAAAAAAA==
> <PUBCHEM_IUPAC_OPENEYE_NAME>
3-chloro-4-[2-[[(2R)-2-[[(2S,4S)-1-[(2S)-2-cyclopentyl-2-(isobutoxycarbonylamino)acetyl]-4-phenyl-pyrrolidine-2-carbonyl]amino]-3-sulfanyl-propanoyl]amino]ethyl]benzoic acid
> <PUBCHEM_IUPAC_CAS_NAME>
3-chloro-4-[2-[[(2R)-2-[[[(2S,4S)-1-[(2S)-2-cyclopentyl-2-[[2-methylpropoxy(oxo)methyl]amino]-1-oxoethyl]-4-phenyl-2-pyrrolidinyl]-oxomethyl]amino]-3-mercapto-1-oxopropyl]amino]ethyl]benzoic acid
> <PUBCHEM_IUPAC_NAME_MARKUP>
3-chloro-4-[2-[[(2<I>R</I>)-2-[[(2<I>S</I>,4<I>S</I>)-1-[(2<I>S</I>)-2-cyclopentyl-2-(2-methylpropoxycarbonylamino)acetyl]-4-phenylpyrrolidine-2-carbonyl]amino]-3-sulfanylpropanoyl]amino]ethyl]benzoic acid
> <PUBCHEM_IUPAC_NAME>
3-chloro-4-[2-[[(2R)-2-[[(2S,4S)-1-[(2S)-2-cyclopentyl-2-(2-methylpropoxycarbonylamino)acetyl]-4-phenylpyrrolidine-2-carbonyl]amino]-3-sulfanylpropanoyl]amino]ethyl]benzoic acid
> <PUBCHEM_IUPAC_SYSTEMATIC_NAME>
3-chloranyl-4-[2-[[(2R)-2-[[(2S,4S)-1-[(2S)-2-cyclopentyl-2-(2-methylpropoxycarbonylamino)ethanoyl]-4-phenyl-pyrrolidin-2-yl]carbonylamino]-3-sulfanyl-propanoyl]amino]ethyl]benzoic acid
> <PUBCHEM_IUPAC_TRADITIONAL_NAME>
3-chloro-4-[2-[[(2R)-2-[[(2S,4S)-1-[(2S)-2-cyclopentyl-2-(isobutoxycarbonylamino)acetyl]-4-phenyl-prolyl]amino]-3-mercapto-propanoyl]amino]ethyl]benzoic acid
> <PUBCHEM_IUPAC_INCHI>
InChI=1S/C35H45ClN4O7S/c1-21(2)19-47-35(46)39-30(24-10-6-7-11-24)33(43)40-18-26(22-8-4-3-5-9-22)17-29(40)32(42)38-28(20-48)31(41)37-15-14-23-12-13-25(34(44)45)16-27(23)36/h3-5,8-9,12-13,16,21,24,26,28-30,48H,6-7,10-11,14-15,17-20H2,1-2H3,(H,37,41)(H,38,42)(H,39,46)(H,44,45)/t26-,28+,29+,30+/m1/s1
> <PUBCHEM_IUPAC_INCHIKEY>
KCIRDTISYKJZHI-ZRJFKUPHSA-N
> <PUBCHEM_XLOGP3_AA>
5.7
> <PUBCHEM_EXACT_MASS>
700.2697487
> <PUBCHEM_MOLECULAR_FORMULA>
C35H45ClN4O7S
> <PUBCHEM_MOLECULAR_WEIGHT>
701.3
> <PUBCHEM_OPENEYE_CAN_SMILES>
CC(C)COC(=O)NC(C1CCCC1)C(=O)N2CC(CC2C(=O)NC(CS)C(=O)NCCC3=C(C=C(C=C3)C(=O)O)Cl)C4=CC=CC=C4
> <PUBCHEM_OPENEYE_ISO_SMILES>
CC(C)COC(=O)N[C@@H](C1CCCC1)C(=O)N2C[C@@H](C[C@H]2C(=O)N[C@@H](CS)C(=O)NCCC3=C(C=C(C=C3)C(=O)O)Cl)C4=CC=CC=C4
> <PUBCHEM_CACTVS_TPSA>
155
> <PUBCHEM_MONOISOTOPIC_WEIGHT>
700.2697487
> <PUBCHEM_TOTAL_CHARGE>
0
> <PUBCHEM_HEAVY_ATOM_COUNT>
48
> <PUBCHEM_ATOM_DEF_STEREO_COUNT>
4
> <PUBCHEM_ATOM_UDEF_STEREO_COUNT>
0
> <PUBCHEM_BOND_DEF_STEREO_COUNT>
0
> <PUBCHEM_BOND_UDEF_STEREO_COUNT>
0
> <PUBCHEM_ISOTOPIC_ATOM_COUNT>
0
> <PUBCHEM_COMPONENT_COUNT>
1
> <PUBCHEM_CACTVS_TAUTO_COUNT>
-1
> <PUBCHEM_COORDINATE_TYPE>
1
5
255
> <PUBCHEM_BONDANNOTATIONS>
15  11  5
30  12  5
18  26  6
19  25  5
25  27  8
25  28  8
27  31  8
28  32  8
31  33  8
32  33  8
42  43  8
42  44  8
43  45  8
44  46  8
45  47  8
46  47  8
$$$$
