507659
  -OEChem-10302200282D
105108  0     1  0  0  0  0  0999 V2000
    8.9282    8.5352    0.0000 Br  0  0  0  0  0  0  0  0  0  0  0  0
    2.0000   -1.4648    0.0000 F   0  0  0  0  0  0  0  0  0  0  0  0
    2.8660   -2.9648    0.0000 F   0  0  0  0  0  0  0  0  0  0  0  0
    7.4321   -3.7654    0.0000 O   0  0  0  0  0  0  0  0  0  0  0  0
    6.3301   -2.9648    0.0000 O   0  0  0  0  0  0  0  0  0  0  0  0
   10.6126   -5.4638    0.0000 O   0  0  0  0  0  0  0  0  0  0  0  0
    6.3301   -1.9648    0.0000 O   0  0  0  0  0  0  0  0  0  0  0  0
    9.4536   -6.7510    0.0000 O   0  0  0  0  0  0  0  0  0  0  0  0
    8.0622    4.0352    0.0000 O   0  0  0  0  0  0  0  0  0  0  0  0
   10.6603    4.5352    0.0000 O   0  0  0  0  0  0  0  0  0  0  0  0
    9.7942    3.0352    0.0000 O   0  0  0  0  0  0  0  0  0  0  0  0
    6.2731   -5.0526    0.0000 N   0  0  0  0  0  0  0  0  0  0  0  0
    4.5981   -2.9648    0.0000 N   0  0  0  0  0  0  0  0  0  0  0  0
    8.9184   -5.1037    0.0000 N   0  0  0  0  0  0  0  0  0  0  0  0
    5.4641   -0.4648    0.0000 N   0  0  0  0  0  0  0  0  0  0  0  0
    4.9641   -6.0036    0.0000 C   0  0  2  0  0  0  0  0  0  0  0  0
    5.4641   -4.4648    0.0000 C   0  0  1  0  0  0  0  0  0  0  0  0
    4.6551   -5.0526    0.0000 C   0  0  0  0  0  0  0  0  0  0  0  0
    5.9641   -6.0036    0.0000 C   0  0  0  0  0  0  0  0  0  0  0  0
    4.3763   -6.8126    0.0000 C   0  0  0  0  0  0  0  0  0  0  0  0
    7.2242   -4.7436    0.0000 C   0  0  0  0  0  0  0  0  0  0  0  0
    5.4641   -3.4648    0.0000 C   0  0  0  0  0  0  0  0  0  0  0  0
    7.9673   -5.4127    0.0000 C   0  0  2  0  0  0  0  0  0  0  0  0
    7.7594   -6.3908    0.0000 C   0  0  0  0  0  0  0  0  0  0  0  0
    3.3818   -6.7081    0.0000 C   0  0  0  0  0  0  0  0  0  0  0  0
    4.7830   -7.7262    0.0000 C   0  0  0  0  0  0  0  0  0  0  0  0
    4.5981   -1.9648    0.0000 C   0  0  1  0  0  0  0  0  0  0  0  0
    8.5026   -7.0600    0.0000 C   0  0  0  0  0  0  0  0  0  0  0  0
    6.8084   -6.6998    0.0000 C   0  0  0  0  0  0  0  0  0  0  0  0
    2.7940   -7.5171    0.0000 C   0  0  0  0  0  0  0  0  0  0  0  0
    4.1953   -8.5352    0.0000 C   0  0  0  0  0  0  0  0  0  0  0  0
    3.7320   -1.4648    0.0000 C   0  0  0  0  0  0  0  0  0  0  0  0
    3.2008   -8.4307    0.0000 C   0  0  0  0  0  0  0  0  0  0  0  0
    5.4641   -1.4648    0.0000 C   0  0  0  0  0  0  0  0  0  0  0  0
    9.6615   -5.7728    0.0000 C   0  0  0  0  0  0  0  0  0  0  0  0
    2.8660   -1.9648    0.0000 C   0  0  0  0  0  0  0  0  0  0  0  0
    6.3301    0.0352    0.0000 C   0  0  0  0  0  0  0  0  0  0  0  0
   11.3557   -6.1329    0.0000 C   0  0  0  0  0  0  0  0  0  0  0  0
    6.3301    1.0352    0.0000 C   0  0  0  0  0  0  0  0  0  0  0  0
   12.3068   -5.8239    0.0000 C   0  0  0  0  0  0  0  0  0  0  0  0
    7.1962    1.5352    0.0000 C   0  0  0  0  0  0  0  0  0  0  0  0
   13.0499   -6.4930    0.0000 C   0  0  0  0  0  0  0  0  0  0  0  0
   12.5147   -4.8458    0.0000 C   0  0  0  0  0  0  0  0  0  0  0  0
    7.1962    2.5352    0.0000 C   0  0  0  0  0  0  0  0  0  0  0  0
    8.0622    1.0352    0.0000 C   0  0  0  0  0  0  0  0  0  0  0  0
    8.0622    3.0352    0.0000 C   0  0  0  0  0  0  0  0  0  0  0  0
    8.9282    1.5352    0.0000 C   0  0  0  0  0  0  0  0  0  0  0  0
    8.9282    2.5352    0.0000 C   0  0  0  0  0  0  0  0  0  0  0  0
    8.9282    4.5352    0.0000 C   0  0  3  0  0  0  0  0  0  0  0  0
    8.9282    5.5352    0.0000 C   0  0  0  0  0  0  0  0  0  0  0  0
    9.7942    4.0352    0.0000 C   0  0  0  0  0  0  0  0  0  0  0  0
    9.7942    6.0352    0.0000 C   0  0  0  0  0  0  0  0  0  0  0  0
    8.0622    6.0352    0.0000 C   0  0  0  0  0  0  0  0  0  0  0  0
    9.7942    7.0352    0.0000 C   0  0  0  0  0  0  0  0  0  0  0  0
    8.0622    7.0352    0.0000 C   0  0  0  0  0  0  0  0  0  0  0  0
    8.9282    7.5352    0.0000 C   0  0  0  0  0  0  0  0  0  0  0  0
    4.3517   -5.9066    0.0000 H   0  0  0  0  0  0  0  0  0  0  0  0
    6.0165   -4.1833    0.0000 H   0  0  0  0  0  0  0  0  0  0  0  0
    4.3451   -4.5156    0.0000 H   0  0  0  0  0  0  0  0  0  0  0  0
    4.0887   -5.3048    0.0000 H   0  0  0  0  0  0  0  0  0  0  0  0
    5.8993   -6.6202    0.0000 H   0  0  0  0  0  0  0  0  0  0  0  0
    6.5706   -6.1325    0.0000 H   0  0  0  0  0  0  0  0  0  0  0  0
    8.0962   -4.8062    0.0000 H   0  0  0  0  0  0  0  0  0  0  0  0
    8.3491   -6.1992    0.0000 H   0  0  0  0  0  0  0  0  0  0  0  0
    4.0611   -3.2748    0.0000 H   0  0  0  0  0  0  0  0  0  0  0  0
    3.1296   -6.1417    0.0000 H   0  0  0  0  0  0  0  0  0  0  0  0
    5.3997   -7.7910    0.0000 H   0  0  0  0  0  0  0  0  0  0  0  0
    5.1350   -2.2748    0.0000 H   0  0  0  0  0  0  0  0  0  0  0  0
    9.0473   -4.4972    0.0000 H   0  0  0  0  0  0  0  0  0  0  0  0
    8.0877   -7.5207    0.0000 H   0  0  0  0  0  0  0  0  0  0  0  0
    8.9633   -7.4748    0.0000 H   0  0  0  0  0  0  0  0  0  0  0  0
    8.9174   -6.5992    0.0000 H   0  0  0  0  0  0  0  0  0  0  0  0
    6.6168   -6.1102    0.0000 H   0  0  0  0  0  0  0  0  0  0  0  0
    6.2187   -6.8914    0.0000 H   0  0  0  0  0  0  0  0  0  0  0  0
    6.9999   -7.2895    0.0000 H   0  0  0  0  0  0  0  0  0  0  0  0
    2.1774   -7.4523    0.0000 H   0  0  0  0  0  0  0  0  0  0  0  0
    4.4474   -9.1016    0.0000 H   0  0  0  0  0  0  0  0  0  0  0  0
    4.1306   -0.9898    0.0000 H   0  0  0  0  0  0  0  0  0  0  0  0
    3.3335   -0.9898    0.0000 H   0  0  0  0  0  0  0  0  0  0  0  0
    2.8363   -8.9323    0.0000 H   0  0  0  0  0  0  0  0  0  0  0  0
    2.8660   -1.3448    0.0000 H   0  0  0  0  0  0  0  0  0  0  0  0
    4.9272   -0.1548    0.0000 H   0  0  0  0  0  0  0  0  0  0  0  0
    6.5422   -0.5474    0.0000 H   0  0  0  0  0  0  0  0  0  0  0  0
    6.9407    0.1429    0.0000 H   0  0  0  0  0  0  0  0  0  0  0  0
   10.8672   -6.5146    0.0000 H   0  0  0  0  0  0  0  0  0  0  0  0
   11.6468   -6.6803    0.0000 H   0  0  0  0  0  0  0  0  0  0  0  0
    6.1181    1.6178    0.0000 H   0  0  0  0  0  0  0  0  0  0  0  0
    5.7196    0.9275    0.0000 H   0  0  0  0  0  0  0  0  0  0  0  0
   12.8964   -5.6323    0.0000 H   0  0  0  0  0  0  0  0  0  0  0  0
   12.6351   -6.9538    0.0000 H   0  0  0  0  0  0  0  0  0  0  0  0
   13.5107   -6.9079    0.0000 H   0  0  0  0  0  0  0  0  0  0  0  0
   13.4648   -6.0323    0.0000 H   0  0  0  0  0  0  0  0  0  0  0  0
   13.1211   -4.9747    0.0000 H   0  0  0  0  0  0  0  0  0  0  0  0
   12.6436   -4.2393    0.0000 H   0  0  0  0  0  0  0  0  0  0  0  0
   11.9082   -4.7168    0.0000 H   0  0  0  0  0  0  0  0  0  0  0  0
    6.6592    2.8452    0.0000 H   0  0  0  0  0  0  0  0  0  0  0  0
    8.0622    0.4152    0.0000 H   0  0  0  0  0  0  0  0  0  0  0  0
    9.4651    1.2252    0.0000 H   0  0  0  0  0  0  0  0  0  0  0  0
    9.4651    2.8452    0.0000 H   0  0  0  0  0  0  0  0  0  0  0  0
    8.9282    3.9152    0.0000 H   0  0  0  0  0  0  0  0  0  0  0  0
   10.3312    5.7252    0.0000 H   0  0  0  0  0  0  0  0  0  0  0  0
    7.5252    5.7252    0.0000 H   0  0  0  0  0  0  0  0  0  0  0  0
   10.3312    7.3452    0.0000 H   0  0  0  0  0  0  0  0  0  0  0  0
    7.5252    7.3452    0.0000 H   0  0  0  0  0  0  0  0  0  0  0  0
   11.1972    4.2252    0.0000 H   0  0  0  0  0  0  0  0  0  0  0  0
  1 56  1  0  0  0  0
  2 36  1  0  0  0  0
  3 36  1  0  0  0  0
  4 21  2  0  0  0  0
  5 22  2  0  0  0  0
  6 35  1  0  0  0  0
  6 38  1  0  0  0  0
  7 34  2  0  0  0  0
  8 35  2  0  0  0  0
  9 46  1  0  0  0  0
  9 49  1  0  0  0  0
 10 51  1  0  0  0  0
 10105  1  0  0  0  0
 11 51  2  0  0  0  0
 12 17  1  0  0  0  0
 12 19  1  0  0  0  0
 12 21  1  0  0  0  0
 13 22  1  0  0  0  0
 27 13  1  1  0  0  0
 13 65  1  0  0  0  0
 23 14  1  1  0  0  0
 14 35  1  0  0  0  0
 14 69  1  0  0  0  0
 15 34  1  0  0  0  0
 15 37  1  0  0  0  0
 15 82  1  0  0  0  0
 16 18  1  0  0  0  0
 16 19  1  0  0  0  0
 16 20  1  6  0  0  0
 16 57  1  0  0  0  0
 17 18  1  0  0  0  0
 17 22  1  1  0  0  0
 17 58  1  0  0  0  0
 18 59  1  0  0  0  0
 18 60  1  0  0  0  0
 19 61  1  0  0  0  0
 19 62  1  0  0  0  0
 20 25  2  0  0  0  0
 20 26  1  0  0  0  0
 21 23  1  0  0  0  0
 23 24  1  0  0  0  0
 23 63  1  0  0  0  0
 24 28  1  0  0  0  0
 24 29  1  0  0  0  0
 24 64  1  0  0  0  0
 25 30  1  0  0  0  0
 25 66  1  0  0  0  0
 26 31  2  0  0  0  0
 26 67  1  0  0  0  0
 27 32  1  0  0  0  0
 27 34  1  0  0  0  0
 27 68  1  0  0  0  0
 28 70  1  0  0  0  0
 28 71  1  0  0  0  0
 28 72  1  0  0  0  0
 29 73  1  0  0  0  0
 29 74  1  0  0  0  0
 29 75  1  0  0  0  0
 30 33  2  0  0  0  0
 30 76  1  0  0  0  0
 31 33  1  0  0  0  0
 31 77  1  0  0  0  0
 32 36  1  0  0  0  0
 32 78  1  0  0  0  0
 32 79  1  0  0  0  0
 33 80  1  0  0  0  0
 36 81  1  0  0  0  0
 37 39  1  0  0  0  0
 37 83  1  0  0  0  0
 37 84  1  0  0  0  0
 38 40  1  0  0  0  0
 38 85  1  0  0  0  0
 38 86  1  0  0  0  0
 39 41  1  0  0  0  0
 39 87  1  0  0  0  0
 39 88  1  0  0  0  0
 40 42  1  0  0  0  0
 40 43  1  0  0  0  0
 40 89  1  0  0  0  0
 41 44  2  0  0  0  0
 41 45  1  0  0  0  0
 42 90  1  0  0  0  0
 42 91  1  0  0  0  0
 42 92  1  0  0  0  0
 43 93  1  0  0  0  0
 43 94  1  0  0  0  0
 43 95  1  0  0  0  0
 44 46  1  0  0  0  0
 44 96  1  0  0  0  0
 45 47  2  0  0  0  0
 45 97  1  0  0  0  0
 46 48  2  0  0  0  0
 47 48  1  0  0  0  0
 47 98  1  0  0  0  0
 48 99  1  0  0  0  0
 49 50  1  0  0  0  0
 49 51  1  0  0  0  0
 49100  1  0  0  0  0
 50 52  2  0  0  0  0
 50 53  1  0  0  0  0
 52 54  1  0  0  0  0
 52101  1  0  0  0  0
 53 55  2  0  0  0  0
 53102  1  0  0  0  0
 54 56  2  0  0  0  0
 54103  1  0  0  0  0
 55 56  1  0  0  0  0
 55104  1  0  0  0  0
M  END
> <PUBCHEM_COMPOUND_CID>
507659
> <PUBCHEM_COMPOUND_CANONICALIZED>
1
> <PUBCHEM_CACTVS_COMPLEXITY>
1300
> <PUBCHEM_CACTVS_HBOND_ACCEPTOR>
10
> <PUBCHEM_CACTVS_HBOND_DONOR>
4
> <PUBCHEM_CACTVS_ROTATABLE_BOND>
19
> <PUBCHEM_CACTVS_SUBSKEYS>
AAADcfB/vYAAEAAAAAAAAAAAAAAAAWAAAAAwYMAAAAAAAAABUAAAHwBQCAABrTzhmBYyDoPABgCIAiHSGAICCAAgIAQIiIHOCKkNZjKEtT+eeCCk1hGLqheY2fKOggABAAAAAAAEAAIAAAAAAAAAAAAAAA==
> <PUBCHEM_IUPAC_OPENEYE_NAME>
2-(4-bromophenyl)-2-[3-[2-[[(2S)-4,4-difluoro-2-[[(2S,4S)-1-[(2S)-2-(isobutoxycarbonylamino)-3-methyl-butanoyl]-4-phenyl-pyrrolidine-2-carbonyl]amino]butanoyl]amino]ethyl]phenoxy]acetic acid
> <PUBCHEM_IUPAC_CAS_NAME>
2-(4-bromophenyl)-2-[3-[2-[[(2S)-4,4-difluoro-2-[[[(2S,4S)-1-[(2S)-3-methyl-2-[[2-methylpropoxy(oxo)methyl]amino]-1-oxobutyl]-4-phenyl-2-pyrrolidinyl]-oxomethyl]amino]-1-oxobutyl]amino]ethyl]phenoxy]acetic acid
> <PUBCHEM_IUPAC_NAME_MARKUP>
2-(4-bromophenyl)-2-[3-[2-[[(2<I>S</I>)-4,4-difluoro-2-[[(2<I>S</I>,4<I>S</I>)-1-[(2<I>S</I>)-3-methyl-2-(2-methylpropoxycarbonylamino)butanoyl]-4-phenylpyrrolidine-2-carbonyl]amino]butanoyl]amino]ethyl]phenoxy]acetic acid
> <PUBCHEM_IUPAC_NAME>
2-(4-bromophenyl)-2-[3-[2-[[(2S)-4,4-difluoro-2-[[(2S,4S)-1-[(2S)-3-methyl-2-(2-methylpropoxycarbonylamino)butanoyl]-4-phenylpyrrolidine-2-carbonyl]amino]butanoyl]amino]ethyl]phenoxy]acetic acid
> <PUBCHEM_IUPAC_SYSTEMATIC_NAME>
2-[3-[2-[[(2S)-4,4-bis(fluoranyl)-2-[[(2S,4S)-1-[(2S)-3-methyl-2-(2-methylpropoxycarbonylamino)butanoyl]-4-phenyl-pyrrolidin-2-yl]carbonylamino]butanoyl]amino]ethyl]phenoxy]-2-(4-bromophenyl)ethanoic acid
> <PUBCHEM_IUPAC_TRADITIONAL_NAME>
2-(4-bromophenyl)-2-[3-[2-[[(2S)-4,4-difluoro-2-[[(2S,4S)-1-[(2S)-2-(isobutoxycarbonylamino)-3-methyl-butanoyl]-4-phenyl-prolyl]amino]butanoyl]amino]ethyl]phenoxy]acetic acid
> <PUBCHEM_IUPAC_INCHI>
InChI=1S/C41H49BrF2N4O8/c1-24(2)23-55-41(54)47-35(25(3)4)39(51)48-22-29(27-10-6-5-7-11-27)20-33(48)38(50)46-32(21-34(43)44)37(49)45-18-17-26-9-8-12-31(19-26)56-36(40(52)53)28-13-15-30(42)16-14-28/h5-16,19,24-25,29,32-36H,17-18,20-23H2,1-4H3,(H,45,49)(H,46,50)(H,47,54)(H,52,53)/t29-,32+,33+,35+,36?/m1/s1
> <PUBCHEM_IUPAC_INCHIKEY>
WDMWCBMNIWPRNI-YIBZMMDLSA-N
> <PUBCHEM_XLOGP3_AA>
7.9
> <PUBCHEM_EXACT_MASS>
842.27018
> <PUBCHEM_MOLECULAR_FORMULA>
C41H49BrF2N4O8
> <PUBCHEM_MOLECULAR_WEIGHT>
843.7
> <PUBCHEM_OPENEYE_CAN_SMILES>
CC(C)COC(=O)NC(C(C)C)C(=O)N1CC(CC1C(=O)NC(CC(F)F)C(=O)NCCC2=CC(=CC=C2)OC(C3=CC=C(C=C3)Br)C(=O)O)C4=CC=CC=C4
> <PUBCHEM_OPENEYE_ISO_SMILES>
CC(C)COC(=O)N[C@@H](C(C)C)C(=O)N1C[C@@H](C[C@H]1C(=O)N[C@@H](CC(F)F)C(=O)NCCC2=CC(=CC=C2)OC(C3=CC=C(C=C3)Br)C(=O)O)C4=CC=CC=C4
> <PUBCHEM_CACTVS_TPSA>
163
> <PUBCHEM_MONOISOTOPIC_WEIGHT>
842.27018
> <PUBCHEM_TOTAL_CHARGE>
0
> <PUBCHEM_HEAVY_ATOM_COUNT>
56
> <PUBCHEM_ATOM_DEF_STEREO_COUNT>
4
> <PUBCHEM_ATOM_UDEF_STEREO_COUNT>
1
> <PUBCHEM_BOND_DEF_STEREO_COUNT>
0
> <PUBCHEM_BOND_UDEF_STEREO_COUNT>
0
> <PUBCHEM_ISOTOPIC_ATOM_COUNT>
0
> <PUBCHEM_COMPONENT_COUNT>
1
> <PUBCHEM_CACTVS_TAUTO_COUNT>
-1
> <PUBCHEM_COORDINATE_TYPE>
1
5
255
> <PUBCHEM_BONDANNOTATIONS>
27  13  5
23  14  5
16  20  6
17  22  5
20  25  8
20  26  8
25  30  8
26  31  8
30  33  8
31  33  8
41  44  8
41  45  8
44  46  8
45  47  8
46  48  8
47  48  8
49  51  3
50  52  8
50  53  8
52  54  8
53  55  8
54  56  8
55  56  8
$$$$
