507610
  -OEChem-10302200282D
 89 91  0     1  0  0  0  0  0999 V2000
    2.0000    4.7318    0.0000 Cl  0  0  0  0  0  0  0  0  0  0  0  0
    4.5981   -0.7682    0.0000 S   0  0  0  0  0  0  0  0  0  0  0  0
    5.6065   -2.6228    0.0000 O   0  0  0  0  0  0  0  0  0  0  0  0
    5.4641   -1.2682    0.0000 O   0  0  0  0  0  0  0  0  0  0  0  0
    5.4871   -6.2264    0.0000 O   0  0  0  0  0  0  0  0  0  0  0  0
    6.3301    2.2318    0.0000 O   0  0  0  0  0  0  0  0  0  0  0  0
    7.1813   -5.8663    0.0000 O   0  0  0  0  0  0  0  0  0  0  0  0
    9.0834   -6.4843    0.0000 O   0  0  0  0  0  0  0  0  0  0  0  0
    9.6186   -4.8370    0.0000 O   0  0  0  0  0  0  0  0  0  0  0  0
    4.5981    8.2318    0.0000 O   0  0  0  0  0  0  0  0  0  0  0  0
    2.8660    8.2318    0.0000 O   0  0  0  0  0  0  0  0  0  0  0  0
    7.3007   -2.2627    0.0000 N   0  0  0  0  0  0  0  0  0  0  0  0
    6.3301    0.2318    0.0000 N   0  0  0  0  0  0  0  0  0  0  0  0
    6.0223   -4.5791    0.0000 N   0  0  0  0  0  0  0  0  0  0  0  0
    4.5981    2.2318    0.0000 N   0  0  0  0  0  0  0  0  0  0  0  0
    8.7788   -1.6046    0.0000 C   0  0  2  0  0  0  0  0  0  0  0  0
    7.1962   -1.2682    0.0000 C   0  0  1  0  0  0  0  0  0  0  0  0
    8.1097   -0.8614    0.0000 C   0  0  0  0  0  0  0  0  0  0  0  0
    8.2788   -2.4706    0.0000 C   0  0  0  0  0  0  0  0  0  0  0  0
    9.7734   -1.5001    0.0000 C   0  0  0  0  0  0  0  0  0  0  0  0
    6.5575   -2.9318    0.0000 C   0  0  0  0  0  0  0  0  0  0  0  0
    6.3301   -0.7682    0.0000 C   0  0  0  0  0  0  0  0  0  0  0  0
    6.7654   -3.9100    0.0000 C   0  0  2  0  0  0  0  0  0  0  0  0
   10.1801   -0.5865    0.0000 C   0  0  0  0  0  0  0  0  0  0  0  0
   10.3611   -2.3091    0.0000 C   0  0  0  0  0  0  0  0  0  0  0  0
    7.7165   -4.2190    0.0000 C   0  0  0  0  0  0  0  0  0  0  0  0
    5.4641    0.7318    0.0000 C   0  0  1  0  0  0  0  0  0  0  0  0
   11.1746   -0.4820    0.0000 C   0  0  0  0  0  0  0  0  0  0  0  0
   11.3557   -2.2045    0.0000 C   0  0  0  0  0  0  0  0  0  0  0  0
    7.9244   -5.1972    0.0000 C   0  0  0  0  0  0  0  0  0  0  0  0
   11.7624   -1.2910    0.0000 C   0  0  0  0  0  0  0  0  0  0  0  0
    4.5981    0.2318    0.0000 C   0  0  0  0  0  0  0  0  0  0  0  0
    5.4641    1.7318    0.0000 C   0  0  0  0  0  0  0  0  0  0  0  0
    6.2302   -5.5573    0.0000 C   0  0  0  0  0  0  0  0  0  0  0  0
    8.8755   -5.5062    0.0000 C   0  0  0  0  0  0  0  0  0  0  0  0
    4.5981    3.2318    0.0000 C   0  0  0  0  0  0  0  0  0  0  0  0
    5.6950   -7.2045    0.0000 C   0  0  0  0  0  0  0  0  0  0  0  0
    3.7320    3.7318    0.0000 C   0  0  0  0  0  0  0  0  0  0  0  0
    4.9518   -7.8737    0.0000 C   0  0  0  0  0  0  0  0  0  0  0  0
    3.7320    4.7318    0.0000 C   0  0  0  0  0  0  0  0  0  0  0  0
    5.1598   -8.8518    0.0000 C   0  0  0  0  0  0  0  0  0  0  0  0
    4.0008   -7.5646    0.0000 C   0  0  0  0  0  0  0  0  0  0  0  0
    2.8660    5.2318    0.0000 C   0  0  0  0  0  0  0  0  0  0  0  0
    4.5981    5.2318    0.0000 C   0  0  0  0  0  0  0  0  0  0  0  0
    2.8660    6.2318    0.0000 C   0  0  0  0  0  0  0  0  0  0  0  0
    4.5981    6.2318    0.0000 C   0  0  0  0  0  0  0  0  0  0  0  0
    3.7320    6.7318    0.0000 C   0  0  0  0  0  0  0  0  0  0  0  0
    3.7320    7.7318    0.0000 C   0  0  0  0  0  0  0  0  0  0  0  0
    9.0010   -1.0258    0.0000 H   0  0  0  0  0  0  0  0  0  0  0  0
    6.6762   -1.6059    0.0000 H   0  0  0  0  0  0  0  0  0  0  0  0
    8.6113   -0.4970    0.0000 H   0  0  0  0  0  0  0  0  0  0  0  0
    7.7997   -0.3245    0.0000 H   0  0  0  0  0  0  0  0  0  0  0  0
    8.0872   -3.0603    0.0000 H   0  0  0  0  0  0  0  0  0  0  0  0
    8.8452   -2.7228    0.0000 H   0  0  0  0  0  0  0  0  0  0  0  0
    6.1758   -3.7184    0.0000 H   0  0  0  0  0  0  0  0  0  0  0  0
    9.8157   -0.0849    0.0000 H   0  0  0  0  0  0  0  0  0  0  0  0
   10.1090   -2.8755    0.0000 H   0  0  0  0  0  0  0  0  0  0  0  0
    6.8671    0.5418    0.0000 H   0  0  0  0  0  0  0  0  0  0  0  0
    8.3361   -4.1974    0.0000 H   0  0  0  0  0  0  0  0  0  0  0  0
    7.8028   -3.6050    0.0000 H   0  0  0  0  0  0  0  0  0  0  0  0
    5.4641    0.1118    0.0000 H   0  0  0  0  0  0  0  0  0  0  0  0
    5.4326   -4.3875    0.0000 H   0  0  0  0  0  0  0  0  0  0  0  0
   11.4268    0.0844    0.0000 H   0  0  0  0  0  0  0  0  0  0  0  0
   11.7201   -2.7061    0.0000 H   0  0  0  0  0  0  0  0  0  0  0  0
    7.3048   -5.2188    0.0000 H   0  0  0  0  0  0  0  0  0  0  0  0
    7.8381   -5.8111    0.0000 H   0  0  0  0  0  0  0  0  0  0  0  0
   12.3790   -1.2262    0.0000 H   0  0  0  0  0  0  0  0  0  0  0  0
    4.3860    0.8144    0.0000 H   0  0  0  0  0  0  0  0  0  0  0  0
    3.9875    0.1242    0.0000 H   0  0  0  0  0  0  0  0  0  0  0  0
    4.0611    1.9218    0.0000 H   0  0  0  0  0  0  0  0  0  0  0  0
    4.0611   -1.0782    0.0000 H   0  0  0  0  0  0  0  0  0  0  0  0
    5.2087    3.1242    0.0000 H   0  0  0  0  0  0  0  0  0  0  0  0
    4.8101    3.8144    0.0000 H   0  0  0  0  0  0  0  0  0  0  0  0
    6.0235   -7.7303    0.0000 H   0  0  0  0  0  0  0  0  0  0  0  0
    6.2698   -6.9723    0.0000 H   0  0  0  0  0  0  0  0  0  0  0  0
    3.1215    3.8395    0.0000 H   0  0  0  0  0  0  0  0  0  0  0  0
    3.5200    3.1492    0.0000 H   0  0  0  0  0  0  0  0  0  0  0  0
    4.8229   -7.2672    0.0000 H   0  0  0  0  0  0  0  0  0  0  0  0
    9.6730   -6.6759    0.0000 H   0  0  0  0  0  0  0  0  0  0  0  0
    4.5533   -8.9807    0.0000 H   0  0  0  0  0  0  0  0  0  0  0  0
    5.2886   -9.4583    0.0000 H   0  0  0  0  0  0  0  0  0  0  0  0
    5.7662   -8.7229    0.0000 H   0  0  0  0  0  0  0  0  0  0  0  0
    4.1924   -6.9750    0.0000 H   0  0  0  0  0  0  0  0  0  0  0  0
    3.4111   -7.3731    0.0000 H   0  0  0  0  0  0  0  0  0  0  0  0
    3.8092   -8.1543    0.0000 H   0  0  0  0  0  0  0  0  0  0  0  0
    5.1350    4.9218    0.0000 H   0  0  0  0  0  0  0  0  0  0  0  0
    2.3291    6.5418    0.0000 H   0  0  0  0  0  0  0  0  0  0  0  0
    5.1350    6.5418    0.0000 H   0  0  0  0  0  0  0  0  0  0  0  0
    4.5981    8.8518    0.0000 H   0  0  0  0  0  0  0  0  0  0  0  0
  1 43  1  0  0  0  0
  2 32  1  0  0  0  0
  2 71  1  0  0  0  0
  3 21  2  0  0  0  0
  4 22  2  0  0  0  0
  5 34  1  0  0  0  0
  5 37  1  0  0  0  0
  6 33  2  0  0  0  0
  7 34  2  0  0  0  0
  8 35  1  0  0  0  0
  8 79  1  0  0  0  0
  9 35  2  0  0  0  0
 10 48  1  0  0  0  0
 10 89  1  0  0  0  0
 11 48  2  0  0  0  0
 12 17  1  0  0  0  0
 12 19  1  0  0  0  0
 12 21  1  0  0  0  0
 13 22  1  0  0  0  0
 27 13  1  1  0  0  0
 13 58  1  0  0  0  0
 23 14  1  6  0  0  0
 14 34  1  0  0  0  0
 14 62  1  0  0  0  0
 15 33  1  0  0  0  0
 15 36  1  0  0  0  0
 15 70  1  0  0  0  0
 16 18  1  0  0  0  0
 16 19  1  0  0  0  0
 16 20  1  1  0  0  0
 16 49  1  0  0  0  0
 17 18  1  0  0  0  0
 17 22  1  6  0  0  0
 17 50  1  0  0  0  0
 18 51  1  0  0  0  0
 18 52  1  0  0  0  0
 19 53  1  0  0  0  0
 19 54  1  0  0  0  0
 20 24  2  0  0  0  0
 20 25  1  0  0  0  0
 21 23  1  0  0  0  0
 23 26  1  0  0  0  0
 23 55  1  0  0  0  0
 24 28  1  0  0  0  0
 24 56  1  0  0  0  0
 25 29  2  0  0  0  0
 25 57  1  0  0  0  0
 26 30  1  0  0  0  0
 26 59  1  0  0  0  0
 26 60  1  0  0  0  0
 27 32  1  0  0  0  0
 27 33  1  0  0  0  0
 27 61  1  0  0  0  0
 28 31  2  0  0  0  0
 28 63  1  0  0  0  0
 29 31  1  0  0  0  0
 29 64  1  0  0  0  0
 30 35  1  0  0  0  0
 30 65  1  0  0  0  0
 30 66  1  0  0  0  0
 31 67  1  0  0  0  0
 32 68  1  0  0  0  0
 32 69  1  0  0  0  0
 36 38  1  0  0  0  0
 36 72  1  0  0  0  0
 36 73  1  0  0  0  0
 37 39  1  0  0  0  0
 37 74  1  0  0  0  0
 37 75  1  0  0  0  0
 38 40  1  0  0  0  0
 38 76  1  0  0  0  0
 38 77  1  0  0  0  0
 39 41  1  0  0  0  0
 39 42  1  0  0  0  0
 39 78  1  0  0  0  0
 40 43  2  0  0  0  0
 40 44  1  0  0  0  0
 41 80  1  0  0  0  0
 41 81  1  0  0  0  0
 41 82  1  0  0  0  0
 42 83  1  0  0  0  0
 42 84  1  0  0  0  0
 42 85  1  0  0  0  0
 43 45  1  0  0  0  0
 44 46  2  0  0  0  0
 44 86  1  0  0  0  0
 45 47  2  0  0  0  0
 45 87  1  0  0  0  0
 46 47  1  0  0  0  0
 46 88  1  0  0  0  0
 47 48  1  0  0  0  0
M  END
> <PUBCHEM_COMPOUND_CID>
507610
> <PUBCHEM_COMPOUND_CANONICALIZED>
1
> <PUBCHEM_CACTVS_COMPLEXITY>
1140
> <PUBCHEM_CACTVS_HBOND_ACCEPTOR>
10
> <PUBCHEM_CACTVS_HBOND_DONOR>
6
> <PUBCHEM_CACTVS_ROTATABLE_BOND>
17
> <PUBCHEM_CACTVS_SUBSKEYS>
AAADcfB/vABEAAAAAAAAAAAAAAAAAWAAAAAwYAAAAAAAAAABQAAAHgYQCAAADSrl2CayCIPABgSIAiHSGAACAAAkBQAIiIGICskIZjKBlzGccQAk1gGImYe83/KOwAAAIAABAACAAABAAAIAAAAAAAAAAA==
> <PUBCHEM_IUPAC_OPENEYE_NAME>
4-[2-[[(2R)-2-[[(2S,4S)-1-[(2S)-4-carboxy-2-(isobutoxycarbonylamino)butanoyl]-4-phenyl-pyrrolidine-2-carbonyl]amino]-3-sulfanyl-propanoyl]amino]ethyl]-3-chloro-benzoic acid
> <PUBCHEM_IUPAC_CAS_NAME>
4-[2-[[(2R)-2-[[[(2S,4S)-1-[(2S)-4-carboxy-2-[[2-methylpropoxy(oxo)methyl]amino]-1-oxobutyl]-4-phenyl-2-pyrrolidinyl]-oxomethyl]amino]-3-mercapto-1-oxopropyl]amino]ethyl]-3-chlorobenzoic acid
> <PUBCHEM_IUPAC_NAME_MARKUP>
4-[2-[[(2<I>R</I>)-2-[[(2<I>S</I>,4<I>S</I>)-1-[(2<I>S</I>)-4-carboxy-2-(2-methylpropoxycarbonylamino)butanoyl]-4-phenylpyrrolidine-2-carbonyl]amino]-3-sulfanylpropanoyl]amino]ethyl]-3-chlorobenzoic acid
> <PUBCHEM_IUPAC_NAME>
4-[2-[[(2R)-2-[[(2S,4S)-1-[(2S)-4-carboxy-2-(2-methylpropoxycarbonylamino)butanoyl]-4-phenylpyrrolidine-2-carbonyl]amino]-3-sulfanylpropanoyl]amino]ethyl]-3-chlorobenzoic acid
> <PUBCHEM_IUPAC_SYSTEMATIC_NAME>
3-chloranyl-4-[2-[[(2R)-2-[[(2S,4S)-1-[(2S)-2-(2-methylpropoxycarbonylamino)-5-oxidanyl-5-oxidanylidene-pentanoyl]-4-phenyl-pyrrolidin-2-yl]carbonylamino]-3-sulfanyl-propanoyl]amino]ethyl]benzoic acid
> <PUBCHEM_IUPAC_TRADITIONAL_NAME>
4-[2-[[(2R)-2-[[(2S,4S)-1-[(2S)-4-carboxy-2-(isobutoxycarbonylamino)butanoyl]-4-phenyl-prolyl]amino]-3-mercapto-propanoyl]amino]ethyl]-3-chloro-benzoic acid
> <PUBCHEM_IUPAC_INCHI>
InChI=1S/C33H41ClN4O9S/c1-19(2)17-47-33(46)37-25(10-11-28(39)40)31(43)38-16-23(20-6-4-3-5-7-20)15-27(38)30(42)36-26(18-48)29(41)35-13-12-21-8-9-22(32(44)45)14-24(21)34/h3-9,14,19,23,25-27,48H,10-13,15-18H2,1-2H3,(H,35,41)(H,36,42)(H,37,46)(H,39,40)(H,44,45)/t23-,25+,26+,27+/m1/s1
> <PUBCHEM_IUPAC_INCHIKEY>
MUICGFLEZGIUOP-BDGPUAICSA-N
> <PUBCHEM_XLOGP3_AA>
3.7
> <PUBCHEM_EXACT_MASS>
704.2282778
> <PUBCHEM_MOLECULAR_FORMULA>
C33H41ClN4O9S
> <PUBCHEM_MOLECULAR_WEIGHT>
705.2
> <PUBCHEM_OPENEYE_CAN_SMILES>
CC(C)COC(=O)NC(CCC(=O)O)C(=O)N1CC(CC1C(=O)NC(CS)C(=O)NCCC2=C(C=C(C=C2)C(=O)O)Cl)C3=CC=CC=C3
> <PUBCHEM_OPENEYE_ISO_SMILES>
CC(C)COC(=O)N[C@@H](CCC(=O)O)C(=O)N1C[C@@H](C[C@H]1C(=O)N[C@@H](CS)C(=O)NCCC2=C(C=C(C=C2)C(=O)O)Cl)C3=CC=CC=C3
> <PUBCHEM_CACTVS_TPSA>
192
> <PUBCHEM_MONOISOTOPIC_WEIGHT>
704.2282778
> <PUBCHEM_TOTAL_CHARGE>
0
> <PUBCHEM_HEAVY_ATOM_COUNT>
48
> <PUBCHEM_ATOM_DEF_STEREO_COUNT>
4
> <PUBCHEM_ATOM_UDEF_STEREO_COUNT>
0
> <PUBCHEM_BOND_DEF_STEREO_COUNT>
0
> <PUBCHEM_BOND_UDEF_STEREO_COUNT>
0
> <PUBCHEM_ISOTOPIC_ATOM_COUNT>
0
> <PUBCHEM_COMPONENT_COUNT>
1
> <PUBCHEM_CACTVS_TAUTO_COUNT>
-1
> <PUBCHEM_COORDINATE_TYPE>
1
5
255
> <PUBCHEM_BONDANNOTATIONS>
27  13  5
23  14  6
16  20  5
17  22  6
20  24  8
20  25  8
24  28  8
25  29  8
28  31  8
29  31  8
40  43  8
40  44  8
43  45  8
44  46  8
45  47  8
46  47  8
$$$$
