507619
  -OEChem-10302200282D
 97 99  0     1  0  0  0  0  0999 V2000
    4.5981    4.3385    0.0000 F   0  0  0  0  0  0  0  0  0  0  0  0
    3.5981    3.3385    0.0000 F   0  0  0  0  0  0  0  0  0  0  0  0
    5.5981    3.3385    0.0000 F   0  0  0  0  0  0  0  0  0  0  0  0
    5.4641   -2.1615    0.0000 F   0  0  0  0  0  0  0  0  0  0  0  0
    2.0000   -2.1615    0.0000 F   0  0  0  0  0  0  0  0  0  0  0  0
    8.4405    0.2844    0.0000 O   0  0  0  0  0  0  0  0  0  0  0  0
    7.1962    0.8385    0.0000 O   0  0  0  0  0  0  0  0  0  0  0  0
   11.5016   -1.6208    0.0000 O   0  0  0  0  0  0  0  0  0  0  0  0
    6.3301    0.3385    0.0000 O   0  0  0  0  0  0  0  0  0  0  0  0
   12.0368    0.0265    0.0000 O   0  0  0  0  0  0  0  0  0  0  0  0
    2.8660   -5.6615    0.0000 O   0  0  0  0  0  0  0  0  0  0  0  0
    4.5981   -5.6615    0.0000 O   0  0  0  0  0  0  0  0  0  0  0  0
    8.9757    1.9317    0.0000 N   0  0  0  0  0  0  0  0  0  0  0  0
    6.3301    2.3385    0.0000 N   0  0  0  0  0  0  0  0  0  0  0  0
   10.3426   -0.3336    0.0000 N   0  0  0  0  0  0  0  0  0  0  0  0
    4.5981    0.3385    0.0000 N   0  0  0  0  0  0  0  0  0  0  0  0
    9.1448    3.5409    0.0000 C   0  0  2  0  0  0  0  0  0  0  0  0
    9.5516    4.4544    0.0000 C   0  0  0  0  0  0  0  0  0  0  0  0
    8.1667    3.3330    0.0000 C   0  0  0  0  0  0  0  0  0  0  0  0
    9.6448    2.6749    0.0000 C   0  0  0  0  0  0  0  0  0  0  0  0
    8.0622    2.3385    0.0000 C   0  0  1  0  0  0  0  0  0  0  0  0
    8.9638    5.2635    0.0000 C   0  0  0  0  0  0  0  0  0  0  0  0
   10.5461    4.5590    0.0000 C   0  0  0  0  0  0  0  0  0  0  0  0
    9.3705    6.1770    0.0000 C   0  0  0  0  0  0  0  0  0  0  0  0
   10.9528    5.4725    0.0000 C   0  0  0  0  0  0  0  0  0  0  0  0
   10.3651    6.2815    0.0000 C   0  0  0  0  0  0  0  0  0  0  0  0
    9.1836    0.9536    0.0000 C   0  0  0  0  0  0  0  0  0  0  0  0
    7.1962    1.8385    0.0000 C   0  0  0  0  0  0  0  0  0  0  0  0
   10.1347    0.6446    0.0000 C   0  0  2  0  0  0  0  0  0  0  0  0
   10.8778    1.3137    0.0000 C   0  0  0  0  0  0  0  0  0  0  0  0
    5.4641    1.8385    0.0000 C   0  0  1  0  0  0  0  0  0  0  0  0
   11.8289    1.0047    0.0000 C   0  0  0  0  0  0  0  0  0  0  0  0
   10.6699    2.2918    0.0000 C   0  0  0  0  0  0  0  0  0  0  0  0
    4.5981    2.3385    0.0000 C   0  0  0  0  0  0  0  0  0  0  0  0
    5.4641    0.8385    0.0000 C   0  0  0  0  0  0  0  0  0  0  0  0
   11.2937   -0.6426    0.0000 C   0  0  0  0  0  0  0  0  0  0  0  0
    4.5981    3.3385    0.0000 C   0  0  0  0  0  0  0  0  0  0  0  0
    4.5981   -0.6615    0.0000 C   0  0  0  0  0  0  0  0  0  0  0  0
   12.4526   -1.9298    0.0000 C   0  0  0  0  0  0  0  0  0  0  0  0
    3.7320   -1.1615    0.0000 C   0  0  0  0  0  0  0  0  0  0  0  0
   12.6605   -2.9079    0.0000 C   0  0  0  0  0  0  0  0  0  0  0  0
    3.7320   -2.1615    0.0000 C   0  0  0  0  0  0  0  0  0  0  0  0
   13.6116   -3.2169    0.0000 C   0  0  0  0  0  0  0  0  0  0  0  0
   11.9174   -3.5770    0.0000 C   0  0  0  0  0  0  0  0  0  0  0  0
    4.5981   -2.6615    0.0000 C   0  0  0  0  0  0  0  0  0  0  0  0
    2.8660   -2.6615    0.0000 C   0  0  0  0  0  0  0  0  0  0  0  0
    4.5981   -3.6615    0.0000 C   0  0  0  0  0  0  0  0  0  0  0  0
    2.8660   -3.6615    0.0000 C   0  0  0  0  0  0  0  0  0  0  0  0
    3.7320   -4.1615    0.0000 C   0  0  0  0  0  0  0  0  0  0  0  0
    3.7320   -5.1615    0.0000 C   0  0  0  0  0  0  0  0  0  0  0  0
    8.6099    4.2015    0.0000 H   0  0  0  0  0  0  0  0  0  0  0  0
    9.9160    3.9528    0.0000 H   0  0  0  0  0  0  0  0  0  0  0  0
    8.1019    3.9496    0.0000 H   0  0  0  0  0  0  0  0  0  0  0  0
    7.5467    3.3330    0.0000 H   0  0  0  0  0  0  0  0  0  0  0  0
   10.0597    2.2141    0.0000 H   0  0  0  0  0  0  0  0  0  0  0  0
   10.1464    3.0393    0.0000 H   0  0  0  0  0  0  0  0  0  0  0  0
    8.0946    1.7193    0.0000 H   0  0  0  0  0  0  0  0  0  0  0  0
    8.4498    5.6102    0.0000 H   0  0  0  0  0  0  0  0  0  0  0  0
    8.5331    4.8175    0.0000 H   0  0  0  0  0  0  0  0  0  0  0  0
   10.5029    3.9405    0.0000 H   0  0  0  0  0  0  0  0  0  0  0  0
   11.1477    4.4090    0.0000 H   0  0  0  0  0  0  0  0  0  0  0  0
    9.4138    6.7955    0.0000 H   0  0  0  0  0  0  0  0  0  0  0  0
    8.7690    6.3270    0.0000 H   0  0  0  0  0  0  0  0  0  0  0  0
   11.4669    5.1258    0.0000 H   0  0  0  0  0  0  0  0  0  0  0  0
   11.3835    5.9185    0.0000 H   0  0  0  0  0  0  0  0  0  0  0  0
   10.9223    6.5533    0.0000 H   0  0  0  0  0  0  0  0  0  0  0  0
   10.1942    6.8775    0.0000 H   0  0  0  0  0  0  0  0  0  0  0  0
    9.6739    0.2297    0.0000 H   0  0  0  0  0  0  0  0  0  0  0  0
    6.3301    2.9585    0.0000 H   0  0  0  0  0  0  0  0  0  0  0  0
   11.0067    0.7072    0.0000 H   0  0  0  0  0  0  0  0  0  0  0  0
    5.4641    2.4585    0.0000 H   0  0  0  0  0  0  0  0  0  0  0  0
    9.8818   -0.7484    0.0000 H   0  0  0  0  0  0  0  0  0  0  0  0
   11.6373    0.4150    0.0000 H   0  0  0  0  0  0  0  0  0  0  0  0
   12.4185    0.8131    0.0000 H   0  0  0  0  0  0  0  0  0  0  0  0
   12.0205    1.5943    0.0000 H   0  0  0  0  0  0  0  0  0  0  0  0
   11.2764    2.4208    0.0000 H   0  0  0  0  0  0  0  0  0  0  0  0
   10.5410    2.8983    0.0000 H   0  0  0  0  0  0  0  0  0  0  0  0
   10.0635    2.1629    0.0000 H   0  0  0  0  0  0  0  0  0  0  0  0
    3.9875    2.4461    0.0000 H   0  0  0  0  0  0  0  0  0  0  0  0
    4.3860    1.7559    0.0000 H   0  0  0  0  0  0  0  0  0  0  0  0
    4.0611    0.6485    0.0000 H   0  0  0  0  0  0  0  0  0  0  0  0
    4.8101   -1.2441    0.0000 H   0  0  0  0  0  0  0  0  0  0  0  0
    5.2087   -0.5539    0.0000 H   0  0  0  0  0  0  0  0  0  0  0  0
   13.0723   -1.9081    0.0000 H   0  0  0  0  0  0  0  0  0  0  0  0
   12.5389   -1.3158    0.0000 H   0  0  0  0  0  0  0  0  0  0  0  0
    3.5200   -0.5789    0.0000 H   0  0  0  0  0  0  0  0  0  0  0  0
    3.1215   -1.2692    0.0000 H   0  0  0  0  0  0  0  0  0  0  0  0
   12.7894   -3.5144    0.0000 H   0  0  0  0  0  0  0  0  0  0  0  0
   13.4200   -3.8066    0.0000 H   0  0  0  0  0  0  0  0  0  0  0  0
   14.2013   -3.4085    0.0000 H   0  0  0  0  0  0  0  0  0  0  0  0
   13.8032   -2.6273    0.0000 H   0  0  0  0  0  0  0  0  0  0  0  0
   11.5025   -3.1163    0.0000 H   0  0  0  0  0  0  0  0  0  0  0  0
   11.4566   -3.9919    0.0000 H   0  0  0  0  0  0  0  0  0  0  0  0
   12.3323   -4.0378    0.0000 H   0  0  0  0  0  0  0  0  0  0  0  0
    5.1350   -3.9715    0.0000 H   0  0  0  0  0  0  0  0  0  0  0  0
    2.3291   -3.9715    0.0000 H   0  0  0  0  0  0  0  0  0  0  0  0
    2.8660   -6.2815    0.0000 H   0  0  0  0  0  0  0  0  0  0  0  0
  1 37  1  0  0  0  0
  2 37  1  0  0  0  0
  3 37  1  0  0  0  0
  4 45  1  0  0  0  0
  5 46  1  0  0  0  0
  6 27  2  0  0  0  0
  7 28  2  0  0  0  0
  8 36  1  0  0  0  0
  8 39  1  0  0  0  0
  9 35  2  0  0  0  0
 10 36  2  0  0  0  0
 11 50  1  0  0  0  0
 11 97  1  0  0  0  0
 12 50  2  0  0  0  0
 13 20  1  0  0  0  0
 13 21  1  0  0  0  0
 13 27  1  0  0  0  0
 14 28  1  0  0  0  0
 31 14  1  6  0  0  0
 14 69  1  0  0  0  0
 29 15  1  6  0  0  0
 15 36  1  0  0  0  0
 15 72  1  0  0  0  0
 16 35  1  0  0  0  0
 16 38  1  0  0  0  0
 16 81  1  0  0  0  0
 17 18  1  0  0  0  0
 17 19  1  0  0  0  0
 17 20  1  0  0  0  0
 17 51  1  6  0  0  0
 18 22  1  0  0  0  0
 18 23  1  0  0  0  0
 18 52  1  0  0  0  0
 19 21  1  0  0  0  0
 19 53  1  0  0  0  0
 19 54  1  0  0  0  0
 20 55  1  0  0  0  0
 20 56  1  0  0  0  0
 21 28  1  6  0  0  0
 21 57  1  0  0  0  0
 22 24  1  0  0  0  0
 22 58  1  0  0  0  0
 22 59  1  0  0  0  0
 23 25  1  0  0  0  0
 23 60  1  0  0  0  0
 23 61  1  0  0  0  0
 24 26  1  0  0  0  0
 24 62  1  0  0  0  0
 24 63  1  0  0  0  0
 25 26  1  0  0  0  0
 25 64  1  0  0  0  0
 25 65  1  0  0  0  0
 26 66  1  0  0  0  0
 26 67  1  0  0  0  0
 27 29  1  0  0  0  0
 29 30  1  0  0  0  0
 29 68  1  0  0  0  0
 30 32  1  0  0  0  0
 30 33  1  0  0  0  0
 30 70  1  0  0  0  0
 31 34  1  0  0  0  0
 31 35  1  0  0  0  0
 31 71  1  0  0  0  0
 32 73  1  0  0  0  0
 32 74  1  0  0  0  0
 32 75  1  0  0  0  0
 33 76  1  0  0  0  0
 33 77  1  0  0  0  0
 33 78  1  0  0  0  0
 34 37  1  0  0  0  0
 34 79  1  0  0  0  0
 34 80  1  0  0  0  0
 38 40  1  0  0  0  0
 38 82  1  0  0  0  0
 38 83  1  0  0  0  0
 39 41  1  0  0  0  0
 39 84  1  0  0  0  0
 39 85  1  0  0  0  0
 40 42  1  0  0  0  0
 40 86  1  0  0  0  0
 40 87  1  0  0  0  0
 41 43  1  0  0  0  0
 41 44  1  0  0  0  0
 41 88  1  0  0  0  0
 42 45  2  0  0  0  0
 42 46  1  0  0  0  0
 43 89  1  0  0  0  0
 43 90  1  0  0  0  0
 43 91  1  0  0  0  0
 44 92  1  0  0  0  0
 44 93  1  0  0  0  0
 44 94  1  0  0  0  0
 45 47  1  0  0  0  0
 46 48  2  0  0  0  0
 47 49  2  0  0  0  0
 47 95  1  0  0  0  0
 48 49  1  0  0  0  0
 48 96  1  0  0  0  0
 49 50  1  0  0  0  0
M  END
> <PUBCHEM_COMPOUND_CID>
507619
> <PUBCHEM_COMPOUND_CANONICALIZED>
1
> <PUBCHEM_CACTVS_COMPLEXITY>
1170
> <PUBCHEM_CACTVS_HBOND_ACCEPTOR>
12
> <PUBCHEM_CACTVS_HBOND_DONOR>
4
> <PUBCHEM_CACTVS_ROTATABLE_BOND>
15
> <PUBCHEM_CACTVS_SUBSKEYS>
AAADcfB/ucAAAAAAAAAAAAAAAAAAAWAAAAAwYAAAAAAAAAABAAAAHwAQCAAADSjhmB4yCIPABgCIAiHSGAACAAAkAAAAiIGICMkIZjKAlTGccQAk1gGImYeYyfCOwAAAAAAAAACAAAAAAAAAAAAAAAAAAA==
> <PUBCHEM_IUPAC_OPENEYE_NAME>
4-[2-[[(2S)-2-[[(2S,4S)-4-cyclohexyl-1-[(2S)-2-(isobutoxycarbonylamino)-3-methyl-butanoyl]pyrrolidine-2-carbonyl]amino]-4,4,4-trifluoro-butanoyl]amino]ethyl]-3,5-difluoro-benzoic acid
> <PUBCHEM_IUPAC_CAS_NAME>
4-[2-[[(2S)-2-[[[(2S,4S)-4-cyclohexyl-1-[(2S)-3-methyl-2-[[2-methylpropoxy(oxo)methyl]amino]-1-oxobutyl]-2-pyrrolidinyl]-oxomethyl]amino]-4,4,4-trifluoro-1-oxobutyl]amino]ethyl]-3,5-difluorobenzoic acid
> <PUBCHEM_IUPAC_NAME_MARKUP>
4-[2-[[(2<I>S</I>)-2-[[(2<I>S</I>,4<I>S</I>)-4-cyclohexyl-1-[(2<I>S</I>)-3-methyl-2-(2-methylpropoxycarbonylamino)butanoyl]pyrrolidine-2-carbonyl]amino]-4,4,4-trifluorobutanoyl]amino]ethyl]-3,5-difluorobenzoic acid
> <PUBCHEM_IUPAC_NAME>
4-[2-[[(2S)-2-[[(2S,4S)-4-cyclohexyl-1-[(2S)-3-methyl-2-(2-methylpropoxycarbonylamino)butanoyl]pyrrolidine-2-carbonyl]amino]-4,4,4-trifluorobutanoyl]amino]ethyl]-3,5-difluorobenzoic acid
> <PUBCHEM_IUPAC_SYSTEMATIC_NAME>
4-[2-[[(2S)-2-[[(2S,4S)-4-cyclohexyl-1-[(2S)-3-methyl-2-(2-methylpropoxycarbonylamino)butanoyl]pyrrolidin-2-yl]carbonylamino]-4,4,4-tris(fluoranyl)butanoyl]amino]ethyl]-3,5-bis(fluoranyl)benzoic acid
> <PUBCHEM_IUPAC_TRADITIONAL_NAME>
4-[2-[[(2S)-2-[[(2S,4S)-4-cyclohexyl-1-[(2S)-2-(isobutoxycarbonylamino)-3-methyl-butanoyl]prolyl]amino]-4,4,4-trifluoro-butanoyl]amino]ethyl]-3,5-difluoro-benzoic acid
> <PUBCHEM_IUPAC_INCHI>
InChI=1S/C34H47F5N4O7/c1-18(2)17-50-33(49)42-28(19(3)4)31(46)43-16-22(20-8-6-5-7-9-20)14-27(43)30(45)41-26(15-34(37,38)39)29(44)40-11-10-23-24(35)12-21(32(47)48)13-25(23)36/h12-13,18-20,22,26-28H,5-11,14-17H2,1-4H3,(H,40,44)(H,41,45)(H,42,49)(H,47,48)/t22-,26+,27+,28+/m1/s1
> <PUBCHEM_IUPAC_INCHIKEY>
ASSIGMONZSDNIB-DRBLOIPVSA-N
> <PUBCHEM_XLOGP3_AA>
7.2
> <PUBCHEM_EXACT_MASS>
718.33649066
> <PUBCHEM_MOLECULAR_FORMULA>
C34H47F5N4O7
> <PUBCHEM_MOLECULAR_WEIGHT>
718.8
> <PUBCHEM_OPENEYE_CAN_SMILES>
CC(C)COC(=O)NC(C(C)C)C(=O)N1CC(CC1C(=O)NC(CC(F)(F)F)C(=O)NCCC2=C(C=C(C=C2F)C(=O)O)F)C3CCCCC3
> <PUBCHEM_OPENEYE_ISO_SMILES>
CC(C)COC(=O)N[C@@H](C(C)C)C(=O)N1C[C@@H](C[C@H]1C(=O)N[C@@H](CC(F)(F)F)C(=O)NCCC2=C(C=C(C=C2F)C(=O)O)F)C3CCCCC3
> <PUBCHEM_CACTVS_TPSA>
154
> <PUBCHEM_MONOISOTOPIC_WEIGHT>
718.33649066
> <PUBCHEM_TOTAL_CHARGE>
0
> <PUBCHEM_HEAVY_ATOM_COUNT>
50
> <PUBCHEM_ATOM_DEF_STEREO_COUNT>
4
> <PUBCHEM_ATOM_UDEF_STEREO_COUNT>
0
> <PUBCHEM_BOND_DEF_STEREO_COUNT>
0
> <PUBCHEM_BOND_UDEF_STEREO_COUNT>
0
> <PUBCHEM_ISOTOPIC_ATOM_COUNT>
0
> <PUBCHEM_COMPONENT_COUNT>
1
> <PUBCHEM_CACTVS_TAUTO_COUNT>
-1
> <PUBCHEM_COORDINATE_TYPE>
1
5
255
> <PUBCHEM_BONDANNOTATIONS>
31  14  6
29  15  6
17  51  6
21  28  6
42  45  8
42  46  8
45  47  8
46  48  8
47  49  8
48  49  8
$$$$
