507639
  -OEChem-10302200282D
 93 94  0     1  0  0  0  0  0999 V2000
    9.5516    4.4022    0.0000 S   0  0  0  0  0  0  0  0  0  0  0  0
    3.7320    3.7862    0.0000 F   0  0  0  0  0  0  0  0  0  0  0  0
    5.4641    3.7862    0.0000 F   0  0  0  0  0  0  0  0  0  0  0  0
    5.4641   -2.2138    0.0000 F   0  0  0  0  0  0  0  0  0  0  0  0
    2.0000   -2.2138    0.0000 F   0  0  0  0  0  0  0  0  0  0  0  0
   10.4651    3.9954    0.0000 O   0  0  0  0  0  0  0  0  0  0  0  0
    8.6380    4.8089    0.0000 O   0  0  0  0  0  0  0  0  0  0  0  0
    8.4405    0.2322    0.0000 O   0  0  0  0  0  0  0  0  0  0  0  0
    7.1962    0.7862    0.0000 O   0  0  0  0  0  0  0  0  0  0  0  0
   11.5016   -1.6730    0.0000 O   0  0  0  0  0  0  0  0  0  0  0  0
    6.3301    0.2862    0.0000 O   0  0  0  0  0  0  0  0  0  0  0  0
   12.0368   -0.0257    0.0000 O   0  0  0  0  0  0  0  0  0  0  0  0
    2.8660   -5.7138    0.0000 O   0  0  0  0  0  0  0  0  0  0  0  0
    4.5981   -5.7138    0.0000 O   0  0  0  0  0  0  0  0  0  0  0  0
    8.9757    1.8795    0.0000 N   0  0  0  0  0  0  0  0  0  0  0  0
    6.3301    2.2862    0.0000 N   0  0  0  0  0  0  0  0  0  0  0  0
   10.3426   -0.3858    0.0000 N   0  0  0  0  0  0  0  0  0  0  0  0
    4.5981    0.2862    0.0000 N   0  0  0  0  0  0  0  0  0  0  0  0
    9.1448    3.4886    0.0000 C   0  0  2  0  0  0  0  0  0  0  0  0
    8.1667    3.2807    0.0000 C   0  0  0  0  0  0  0  0  0  0  0  0
    8.0622    2.2862    0.0000 C   0  0  1  0  0  0  0  0  0  0  0  0
    9.6448    2.6226    0.0000 C   0  0  0  0  0  0  0  0  0  0  0  0
    9.1836    0.9013    0.0000 C   0  0  0  0  0  0  0  0  0  0  0  0
    9.9583    5.3157    0.0000 C   0  0  0  0  0  0  0  0  0  0  0  0
    7.1962    1.7862    0.0000 C   0  0  0  0  0  0  0  0  0  0  0  0
   10.1347    0.5923    0.0000 C   0  0  2  0  0  0  0  0  0  0  0  0
   10.8778    1.2614    0.0000 C   0  0  0  0  0  0  0  0  0  0  0  0
   10.9528    5.4202    0.0000 C   0  0  0  0  0  0  0  0  0  0  0  0
    5.4641    1.7862    0.0000 C   0  0  1  0  0  0  0  0  0  0  0  0
   11.8289    0.9524    0.0000 C   0  0  0  0  0  0  0  0  0  0  0  0
   10.6699    2.2396    0.0000 C   0  0  0  0  0  0  0  0  0  0  0  0
   11.3596    6.3338    0.0000 C   0  0  0  0  0  0  0  0  0  0  0  0
    4.5981    2.2862    0.0000 C   0  0  0  0  0  0  0  0  0  0  0  0
    5.4641    0.7862    0.0000 C   0  0  0  0  0  0  0  0  0  0  0  0
   11.2937   -0.6949    0.0000 C   0  0  0  0  0  0  0  0  0  0  0  0
    4.5981    3.2862    0.0000 C   0  0  0  0  0  0  0  0  0  0  0  0
    4.5981   -0.7138    0.0000 C   0  0  0  0  0  0  0  0  0  0  0  0
   12.4526   -1.9820    0.0000 C   0  0  0  0  0  0  0  0  0  0  0  0
    3.7320   -1.2138    0.0000 C   0  0  0  0  0  0  0  0  0  0  0  0
   12.6605   -2.9602    0.0000 C   0  0  0  0  0  0  0  0  0  0  0  0
    3.7320   -2.2138    0.0000 C   0  0  0  0  0  0  0  0  0  0  0  0
   13.6116   -3.2692    0.0000 C   0  0  0  0  0  0  0  0  0  0  0  0
   11.9174   -3.6293    0.0000 C   0  0  0  0  0  0  0  0  0  0  0  0
    4.5981   -2.7138    0.0000 C   0  0  0  0  0  0  0  0  0  0  0  0
    2.8660   -2.7138    0.0000 C   0  0  0  0  0  0  0  0  0  0  0  0
    4.5981   -3.7138    0.0000 C   0  0  0  0  0  0  0  0  0  0  0  0
    2.8660   -3.7138    0.0000 C   0  0  0  0  0  0  0  0  0  0  0  0
    3.7320   -4.2138    0.0000 C   0  0  0  0  0  0  0  0  0  0  0  0
    3.7320   -5.2138    0.0000 C   0  0  0  0  0  0  0  0  0  0  0  0
    8.7547    3.9705    0.0000 H   0  0  0  0  0  0  0  0  0  0  0  0
    8.1019    3.8973    0.0000 H   0  0  0  0  0  0  0  0  0  0  0  0
    7.5467    3.2807    0.0000 H   0  0  0  0  0  0  0  0  0  0  0  0
    8.0946    1.6670    0.0000 H   0  0  0  0  0  0  0  0  0  0  0  0
   10.0597    2.1619    0.0000 H   0  0  0  0  0  0  0  0  0  0  0  0
   10.1464    2.9870    0.0000 H   0  0  0  0  0  0  0  0  0  0  0  0
   10.0016    5.9342    0.0000 H   0  0  0  0  0  0  0  0  0  0  0  0
    9.3567    5.4657    0.0000 H   0  0  0  0  0  0  0  0  0  0  0  0
   10.7243    0.4007    0.0000 H   0  0  0  0  0  0  0  0  0  0  0  0
   10.2882    1.4530    0.0000 H   0  0  0  0  0  0  0  0  0  0  0  0
   10.9096    4.8018    0.0000 H   0  0  0  0  0  0  0  0  0  0  0  0
   11.5544    5.2703    0.0000 H   0  0  0  0  0  0  0  0  0  0  0  0
    6.3301    2.9062    0.0000 H   0  0  0  0  0  0  0  0  0  0  0  0
    5.4641    2.4062    0.0000 H   0  0  0  0  0  0  0  0  0  0  0  0
    9.8818   -0.8007    0.0000 H   0  0  0  0  0  0  0  0  0  0  0  0
   11.6373    0.3628    0.0000 H   0  0  0  0  0  0  0  0  0  0  0  0
   12.4185    0.7608    0.0000 H   0  0  0  0  0  0  0  0  0  0  0  0
   12.0205    1.5421    0.0000 H   0  0  0  0  0  0  0  0  0  0  0  0
   11.2764    2.3685    0.0000 H   0  0  0  0  0  0  0  0  0  0  0  0
   10.5410    2.8460    0.0000 H   0  0  0  0  0  0  0  0  0  0  0  0
   10.0635    2.1107    0.0000 H   0  0  0  0  0  0  0  0  0  0  0  0
   11.9260    6.0816    0.0000 H   0  0  0  0  0  0  0  0  0  0  0  0
   11.6118    6.9002    0.0000 H   0  0  0  0  0  0  0  0  0  0  0  0
   10.7932    6.5860    0.0000 H   0  0  0  0  0  0  0  0  0  0  0  0
    3.9875    2.3939    0.0000 H   0  0  0  0  0  0  0  0  0  0  0  0
    4.3860    1.7036    0.0000 H   0  0  0  0  0  0  0  0  0  0  0  0
    4.5981    3.9062    0.0000 H   0  0  0  0  0  0  0  0  0  0  0  0
    4.0611    0.5962    0.0000 H   0  0  0  0  0  0  0  0  0  0  0  0
    4.8101   -1.2964    0.0000 H   0  0  0  0  0  0  0  0  0  0  0  0
    5.2087   -0.6061    0.0000 H   0  0  0  0  0  0  0  0  0  0  0  0
   13.0723   -1.9604    0.0000 H   0  0  0  0  0  0  0  0  0  0  0  0
   12.5389   -1.3681    0.0000 H   0  0  0  0  0  0  0  0  0  0  0  0
    3.5200   -0.6312    0.0000 H   0  0  0  0  0  0  0  0  0  0  0  0
    3.1215   -1.3215    0.0000 H   0  0  0  0  0  0  0  0  0  0  0  0
   12.7894   -3.5666    0.0000 H   0  0  0  0  0  0  0  0  0  0  0  0
   13.4200   -3.8588    0.0000 H   0  0  0  0  0  0  0  0  0  0  0  0
   14.2013   -3.4608    0.0000 H   0  0  0  0  0  0  0  0  0  0  0  0
   13.8032   -2.6795    0.0000 H   0  0  0  0  0  0  0  0  0  0  0  0
   11.5025   -3.1686    0.0000 H   0  0  0  0  0  0  0  0  0  0  0  0
   11.4566   -4.0442    0.0000 H   0  0  0  0  0  0  0  0  0  0  0  0
   12.3323   -4.0901    0.0000 H   0  0  0  0  0  0  0  0  0  0  0  0
    5.1350   -4.0238    0.0000 H   0  0  0  0  0  0  0  0  0  0  0  0
    2.3291   -4.0238    0.0000 H   0  0  0  0  0  0  0  0  0  0  0  0
    2.8660   -6.3338    0.0000 H   0  0  0  0  0  0  0  0  0  0  0  0
  1  6  2  0  0  0  0
  1  7  2  0  0  0  0
 19  1  1  1  0  0  0
  1 24  1  0  0  0  0
  2 36  1  0  0  0  0
  3 36  1  0  0  0  0
  4 44  1  0  0  0  0
  5 45  1  0  0  0  0
  8 23  2  0  0  0  0
  9 25  2  0  0  0  0
 10 35  1  0  0  0  0
 10 38  1  0  0  0  0
 11 34  2  0  0  0  0
 12 35  2  0  0  0  0
 13 49  1  0  0  0  0
 13 93  1  0  0  0  0
 14 49  2  0  0  0  0
 15 21  1  0  0  0  0
 15 22  1  0  0  0  0
 15 23  1  0  0  0  0
 16 25  1  0  0  0  0
 29 16  1  6  0  0  0
 16 62  1  0  0  0  0
 26 17  1  6  0  0  0
 17 35  1  0  0  0  0
 17 64  1  0  0  0  0
 18 34  1  0  0  0  0
 18 37  1  0  0  0  0
 18 77  1  0  0  0  0
 19 20  1  0  0  0  0
 19 22  1  0  0  0  0
 19 50  1  0  0  0  0
 20 21  1  0  0  0  0
 20 51  1  0  0  0  0
 20 52  1  0  0  0  0
 21 25  1  6  0  0  0
 21 53  1  0  0  0  0
 22 54  1  0  0  0  0
 22 55  1  0  0  0  0
 23 26  1  0  0  0  0
 24 28  1  0  0  0  0
 24 56  1  0  0  0  0
 24 57  1  0  0  0  0
 26 27  1  0  0  0  0
 26 58  1  0  0  0  0
 27 30  1  0  0  0  0
 27 31  1  0  0  0  0
 27 59  1  0  0  0  0
 28 32  1  0  0  0  0
 28 60  1  0  0  0  0
 28 61  1  0  0  0  0
 29 33  1  0  0  0  0
 29 34  1  0  0  0  0
 29 63  1  0  0  0  0
 30 65  1  0  0  0  0
 30 66  1  0  0  0  0
 30 67  1  0  0  0  0
 31 68  1  0  0  0  0
 31 69  1  0  0  0  0
 31 70  1  0  0  0  0
 32 71  1  0  0  0  0
 32 72  1  0  0  0  0
 32 73  1  0  0  0  0
 33 36  1  0  0  0  0
 33 74  1  0  0  0  0
 33 75  1  0  0  0  0
 36 76  1  0  0  0  0
 37 39  1  0  0  0  0
 37 78  1  0  0  0  0
 37 79  1  0  0  0  0
 38 40  1  0  0  0  0
 38 80  1  0  0  0  0
 38 81  1  0  0  0  0
 39 41  1  0  0  0  0
 39 82  1  0  0  0  0
 39 83  1  0  0  0  0
 40 42  1  0  0  0  0
 40 43  1  0  0  0  0
 40 84  1  0  0  0  0
 41 44  2  0  0  0  0
 41 45  1  0  0  0  0
 42 85  1  0  0  0  0
 42 86  1  0  0  0  0
 42 87  1  0  0  0  0
 43 88  1  0  0  0  0
 43 89  1  0  0  0  0
 43 90  1  0  0  0  0
 44 46  1  0  0  0  0
 45 47  2  0  0  0  0
 46 48  2  0  0  0  0
 46 91  1  0  0  0  0
 47 48  1  0  0  0  0
 47 92  1  0  0  0  0
 48 49  1  0  0  0  0
M  END
> <PUBCHEM_COMPOUND_CID>
507639
> <PUBCHEM_COMPOUND_CANONICALIZED>
1
> <PUBCHEM_CACTVS_COMPLEXITY>
1260
> <PUBCHEM_CACTVS_HBOND_ACCEPTOR>
13
> <PUBCHEM_CACTVS_HBOND_DONOR>
4
> <PUBCHEM_CACTVS_ROTATABLE_BOND>
18
> <PUBCHEM_CACTVS_SUBSKEYS>
AAADcfB7vcBAAAAAAAAAAAAAAAAAAWAAAAAwAAAAAAAAAAABAAAAHwQQCAAADSjl2B6yCIPABgqIAiHSGHBCAAAkABAAiIGICMkIZjKglTGccQAk1gGomYeYyfCOQAAAAAAAAACAAAAAAAAAAAAAAAAAAA==
> <PUBCHEM_IUPAC_OPENEYE_NAME>
4-[2-[[(2S)-4,4-difluoro-2-[[(2S,4R)-1-[(2S)-2-(isobutoxycarbonylamino)-3-methyl-butanoyl]-4-propylsulfonyl-pyrrolidine-2-carbonyl]amino]butanoyl]amino]ethyl]-3,5-difluoro-benzoic acid
> <PUBCHEM_IUPAC_CAS_NAME>
4-[2-[[(2S)-4,4-difluoro-2-[[[(2S,4R)-1-[(2S)-3-methyl-2-[[2-methylpropoxy(oxo)methyl]amino]-1-oxobutyl]-4-propylsulfonyl-2-pyrrolidinyl]-oxomethyl]amino]-1-oxobutyl]amino]ethyl]-3,5-difluorobenzoic acid
> <PUBCHEM_IUPAC_NAME_MARKUP>
4-[2-[[(2<I>S</I>)-4,4-difluoro-2-[[(2<I>S</I>,4<I>R</I>)-1-[(2<I>S</I>)-3-methyl-2-(2-methylpropoxycarbonylamino)butanoyl]-4-propylsulfonylpyrrolidine-2-carbonyl]amino]butanoyl]amino]ethyl]-3,5-difluorobenzoic acid
> <PUBCHEM_IUPAC_NAME>
4-[2-[[(2S)-4,4-difluoro-2-[[(2S,4R)-1-[(2S)-3-methyl-2-(2-methylpropoxycarbonylamino)butanoyl]-4-propylsulfonylpyrrolidine-2-carbonyl]amino]butanoyl]amino]ethyl]-3,5-difluorobenzoic acid
> <PUBCHEM_IUPAC_SYSTEMATIC_NAME>
4-[2-[[(2S)-4,4-bis(fluoranyl)-2-[[(2S,4R)-1-[(2S)-3-methyl-2-(2-methylpropoxycarbonylamino)butanoyl]-4-propylsulfonyl-pyrrolidin-2-yl]carbonylamino]butanoyl]amino]ethyl]-3,5-bis(fluoranyl)benzoic acid
> <PUBCHEM_IUPAC_TRADITIONAL_NAME>
4-[2-[[(2S)-4,4-difluoro-2-[[(2S,4R)-1-[(2S)-2-(isobutoxycarbonylamino)-3-methyl-butanoyl]-4-propylsulfonyl-prolyl]amino]butanoyl]amino]ethyl]-3,5-difluoro-benzoic acid
> <PUBCHEM_IUPAC_INCHI>
InChI=1S/C31H44F4N4O9S/c1-6-9-49(46,47)19-12-24(39(14-19)29(42)26(17(4)5)38-31(45)48-15-16(2)3)28(41)37-23(13-25(34)35)27(40)36-8-7-20-21(32)10-18(30(43)44)11-22(20)33/h10-11,16-17,19,23-26H,6-9,12-15H2,1-5H3,(H,36,40)(H,37,41)(H,38,45)(H,43,44)/t19-,23+,24+,26+/m1/s1
> <PUBCHEM_IUPAC_INCHIKEY>
HRAYYSUSHJZFRT-ITAOHFDISA-N
> <PUBCHEM_XLOGP3_AA>
4.3
> <PUBCHEM_EXACT_MASS>
724.27651282
> <PUBCHEM_MOLECULAR_FORMULA>
C31H44F4N4O9S
> <PUBCHEM_MOLECULAR_WEIGHT>
724.8
> <PUBCHEM_OPENEYE_CAN_SMILES>
CCCS(=O)(=O)C1CC(N(C1)C(=O)C(C(C)C)NC(=O)OCC(C)C)C(=O)NC(CC(F)F)C(=O)NCCC2=C(C=C(C=C2F)C(=O)O)F
> <PUBCHEM_OPENEYE_ISO_SMILES>
CCCS(=O)(=O)[C@@H]1C[C@H](N(C1)C(=O)[C@H](C(C)C)NC(=O)OCC(C)C)C(=O)N[C@@H](CC(F)F)C(=O)NCCC2=C(C=C(C=C2F)C(=O)O)F
> <PUBCHEM_CACTVS_TPSA>
197
> <PUBCHEM_MONOISOTOPIC_WEIGHT>
724.27651282
> <PUBCHEM_TOTAL_CHARGE>
0
> <PUBCHEM_HEAVY_ATOM_COUNT>
49
> <PUBCHEM_ATOM_DEF_STEREO_COUNT>
4
> <PUBCHEM_ATOM_UDEF_STEREO_COUNT>
0
> <PUBCHEM_BOND_DEF_STEREO_COUNT>
0
> <PUBCHEM_BOND_UDEF_STEREO_COUNT>
0
> <PUBCHEM_ISOTOPIC_ATOM_COUNT>
0
> <PUBCHEM_COMPONENT_COUNT>
1
> <PUBCHEM_CACTVS_TAUTO_COUNT>
-1
> <PUBCHEM_COORDINATE_TYPE>
1
5
255
> <PUBCHEM_BONDANNOTATIONS>
19  1  5
29  16  6
26  17  6
21  25  6
41  44  8
41  45  8
44  46  8
45  47  8
46  48  8
47  48  8
$$$$
