507683
  -OEChem-10302200282D
 86 88  0     1  0  0  0  0  0999 V2000
    5.4641    2.4602    0.0000 F   0  0  0  0  0  0  0  0  0  0  0  0
    3.7320    2.4602    0.0000 F   0  0  0  0  0  0  0  0  0  0  0  0
    2.0000   -3.5398    0.0000 F   0  0  0  0  0  0  0  0  0  0  0  0
    5.4641   -3.5398    0.0000 F   0  0  0  0  0  0  0  0  0  0  0  0
    9.5516    3.0762    0.0000 O   0  0  0  0  0  0  0  0  0  0  0  0
    8.4405   -1.0938    0.0000 O   0  0  0  0  0  0  0  0  0  0  0  0
    7.1962   -0.5398    0.0000 O   0  0  0  0  0  0  0  0  0  0  0  0
   10.8778   -0.0645    0.0000 O   0  0  0  0  0  0  0  0  0  0  0  0
   12.0355    5.2967    0.0000 O   0  0  0  0  0  0  0  0  0  0  0  0
    6.3301   -1.0398    0.0000 O   0  0  0  0  0  0  0  0  0  0  0  0
    2.8660   -7.0398    0.0000 O   0  0  0  0  0  0  0  0  0  0  0  0
    4.5981   -7.0398    0.0000 O   0  0  0  0  0  0  0  0  0  0  0  0
    8.9757    0.5535    0.0000 N   0  0  0  0  0  0  0  0  0  0  0  0
    6.3301    0.9602    0.0000 N   0  0  0  0  0  0  0  0  0  0  0  0
    4.5981   -1.0398    0.0000 N   0  0  0  0  0  0  0  0  0  0  0  0
   10.4528    4.9603    0.0000 N   0  0  0  0  0  0  0  0  0  0  0  0
   11.9310    4.3022    0.0000 N   0  0  0  0  0  0  0  0  0  0  0  0
    8.0622    0.9602    0.0000 C   0  0  3  0  0  0  0  0  0  0  0  0
    9.1448    2.1627    0.0000 C   0  0  2  0  0  0  0  0  0  0  0  0
    8.1667    1.9548    0.0000 C   0  0  0  0  0  0  0  0  0  0  0  0
    9.6448    1.2966    0.0000 C   0  0  0  0  0  0  0  0  0  0  0  0
    9.1836   -0.4246    0.0000 C   0  0  0  0  0  0  0  0  0  0  0  0
    7.1962    0.4602    0.0000 C   0  0  0  0  0  0  0  0  0  0  0  0
   10.1347   -0.7337    0.0000 C   0  0  2  0  0  0  0  0  0  0  0  0
   10.3426   -1.7118    0.0000 C   0  0  0  0  0  0  0  0  0  0  0  0
    5.4641    0.4602    0.0000 C   0  0  1  0  0  0  0  0  0  0  0  0
   10.5461    3.1808    0.0000 C   0  0  0  0  0  0  0  0  0  0  0  0
   11.2937   -2.0208    0.0000 C   0  0  0  0  0  0  0  0  0  0  0  0
    9.5995   -2.3809    0.0000 C   0  0  0  0  0  0  0  0  0  0  0  0
    4.5981    0.9602    0.0000 C   0  0  0  0  0  0  0  0  0  0  0  0
   10.9528    4.0943    0.0000 C   0  0  0  0  0  0  0  0  0  0  0  0
    5.4641   -0.5398    0.0000 C   0  0  0  0  0  0  0  0  0  0  0  0
    4.5981    1.9602    0.0000 C   0  0  0  0  0  0  0  0  0  0  0  0
   10.9141    6.6816    0.0000 C   0  0  0  0  0  0  0  0  0  0  0  0
   11.1220    5.7035    0.0000 C   0  0  0  0  0  0  0  0  0  0  0  0
    4.5981   -2.0398    0.0000 C   0  0  0  0  0  0  0  0  0  0  0  0
   10.7062    7.6598    0.0000 C   0  0  0  0  0  0  0  0  0  0  0  0
   11.8922    6.8895    0.0000 C   0  0  0  0  0  0  0  0  0  0  0  0
    9.9359    6.4737    0.0000 C   0  0  0  0  0  0  0  0  0  0  0  0
    3.7320   -2.5398    0.0000 C   0  0  0  0  0  0  0  0  0  0  0  0
    3.7320   -3.5398    0.0000 C   0  0  0  0  0  0  0  0  0  0  0  0
    2.8660   -4.0398    0.0000 C   0  0  0  0  0  0  0  0  0  0  0  0
    4.5981   -4.0398    0.0000 C   0  0  0  0  0  0  0  0  0  0  0  0
    2.8660   -5.0398    0.0000 C   0  0  0  0  0  0  0  0  0  0  0  0
    4.5981   -5.0398    0.0000 C   0  0  0  0  0  0  0  0  0  0  0  0
    3.7320   -5.5398    0.0000 C   0  0  0  0  0  0  0  0  0  0  0  0
    3.7320   -6.5398    0.0000 C   0  0  0  0  0  0  0  0  0  0  0  0
    8.0946    0.3411    0.0000 H   0  0  0  0  0  0  0  0  0  0  0  0
    8.7547    2.6445    0.0000 H   0  0  0  0  0  0  0  0  0  0  0  0
    8.1019    2.5714    0.0000 H   0  0  0  0  0  0  0  0  0  0  0  0
    7.5467    1.9548    0.0000 H   0  0  0  0  0  0  0  0  0  0  0  0
   10.0597    0.8359    0.0000 H   0  0  0  0  0  0  0  0  0  0  0  0
   10.1464    1.6611    0.0000 H   0  0  0  0  0  0  0  0  0  0  0  0
   10.7243   -0.9253    0.0000 H   0  0  0  0  0  0  0  0  0  0  0  0
    9.7530   -1.5202    0.0000 H   0  0  0  0  0  0  0  0  0  0  0  0
    6.3301    1.5802    0.0000 H   0  0  0  0  0  0  0  0  0  0  0  0
    5.4641    1.0802    0.0000 H   0  0  0  0  0  0  0  0  0  0  0  0
   10.5029    2.5623    0.0000 H   0  0  0  0  0  0  0  0  0  0  0  0
   11.1477    3.0308    0.0000 H   0  0  0  0  0  0  0  0  0  0  0  0
   11.1021   -2.6105    0.0000 H   0  0  0  0  0  0  0  0  0  0  0  0
   11.8833   -2.2124    0.0000 H   0  0  0  0  0  0  0  0  0  0  0  0
   11.4853   -1.4312    0.0000 H   0  0  0  0  0  0  0  0  0  0  0  0
    9.1846   -1.9202    0.0000 H   0  0  0  0  0  0  0  0  0  0  0  0
    9.1387   -2.7958    0.0000 H   0  0  0  0  0  0  0  0  0  0  0  0
   10.0143   -2.8417    0.0000 H   0  0  0  0  0  0  0  0  0  0  0  0
    3.9875    1.0679    0.0000 H   0  0  0  0  0  0  0  0  0  0  0  0
    4.3860    0.3776    0.0000 H   0  0  0  0  0  0  0  0  0  0  0  0
   11.4675   -0.2561    0.0000 H   0  0  0  0  0  0  0  0  0  0  0  0
    4.5981    2.5802    0.0000 H   0  0  0  0  0  0  0  0  0  0  0  0
    4.0611   -0.7298    0.0000 H   0  0  0  0  0  0  0  0  0  0  0  0
    4.8101   -2.6224    0.0000 H   0  0  0  0  0  0  0  0  0  0  0  0
    5.2087   -1.9321    0.0000 H   0  0  0  0  0  0  0  0  0  0  0  0
   11.3126    7.7887    0.0000 H   0  0  0  0  0  0  0  0  0  0  0  0
   10.5773    8.2662    0.0000 H   0  0  0  0  0  0  0  0  0  0  0  0
   10.0997    7.5308    0.0000 H   0  0  0  0  0  0  0  0  0  0  0  0
   12.0211    6.2831    0.0000 H   0  0  0  0  0  0  0  0  0  0  0  0
   12.4987    7.0184    0.0000 H   0  0  0  0  0  0  0  0  0  0  0  0
   11.7633    7.4960    0.0000 H   0  0  0  0  0  0  0  0  0  0  0  0
    9.8070    7.0802    0.0000 H   0  0  0  0  0  0  0  0  0  0  0  0
    9.3295    6.3448    0.0000 H   0  0  0  0  0  0  0  0  0  0  0  0
   10.0648    5.8672    0.0000 H   0  0  0  0  0  0  0  0  0  0  0  0
    3.5200   -1.9572    0.0000 H   0  0  0  0  0  0  0  0  0  0  0  0
    3.1215   -2.6474    0.0000 H   0  0  0  0  0  0  0  0  0  0  0  0
    2.3291   -5.3498    0.0000 H   0  0  0  0  0  0  0  0  0  0  0  0
    5.1350   -5.3498    0.0000 H   0  0  0  0  0  0  0  0  0  0  0  0
    2.8660   -7.6598    0.0000 H   0  0  0  0  0  0  0  0  0  0  0  0
  1 33  1  0  0  0  0
  2 33  1  0  0  0  0
  3 42  1  0  0  0  0
  4 43  1  0  0  0  0
 19  5  1  1  0  0  0
  5 27  1  0  0  0  0
  6 22  2  0  0  0  0
  7 23  2  0  0  0  0
 24  8  1  1  0  0  0
  8 68  1  0  0  0  0
  9 17  1  0  0  0  0
  9 35  1  0  0  0  0
 10 32  2  0  0  0  0
 11 47  1  0  0  0  0
 11 86  1  0  0  0  0
 12 47  2  0  0  0  0
 13 18  1  0  0  0  0
 13 21  1  0  0  0  0
 13 22  1  0  0  0  0
 14 23  1  0  0  0  0
 26 14  1  6  0  0  0
 14 56  1  0  0  0  0
 15 32  1  0  0  0  0
 15 36  1  0  0  0  0
 15 70  1  0  0  0  0
 16 31  1  0  0  0  0
 16 35  2  0  0  0  0
 17 31  2  0  0  0  0
 18 20  1  0  0  0  0
 18 23  1  0  0  0  0
 18 48  1  0  0  0  0
 19 20  1  0  0  0  0
 19 21  1  0  0  0  0
 19 49  1  0  0  0  0
 20 50  1  0  0  0  0
 20 51  1  0  0  0  0
 21 52  1  0  0  0  0
 21 53  1  0  0  0  0
 22 24  1  0  0  0  0
 24 25  1  0  0  0  0
 24 54  1  0  0  0  0
 25 28  1  0  0  0  0
 25 29  1  0  0  0  0
 25 55  1  0  0  0  0
 26 30  1  0  0  0  0
 26 32  1  0  0  0  0
 26 57  1  0  0  0  0
 27 31  1  0  0  0  0
 27 58  1  0  0  0  0
 27 59  1  0  0  0  0
 28 60  1  0  0  0  0
 28 61  1  0  0  0  0
 28 62  1  0  0  0  0
 29 63  1  0  0  0  0
 29 64  1  0  0  0  0
 29 65  1  0  0  0  0
 30 33  1  0  0  0  0
 30 66  1  0  0  0  0
 30 67  1  0  0  0  0
 33 69  1  0  0  0  0
 34 35  1  0  0  0  0
 34 37  1  0  0  0  0
 34 38  1  0  0  0  0
 34 39  1  0  0  0  0
 36 40  1  0  0  0  0
 36 71  1  0  0  0  0
 36 72  1  0  0  0  0
 37 73  1  0  0  0  0
 37 74  1  0  0  0  0
 37 75  1  0  0  0  0
 38 76  1  0  0  0  0
 38 77  1  0  0  0  0
 38 78  1  0  0  0  0
 39 79  1  0  0  0  0
 39 80  1  0  0  0  0
 39 81  1  0  0  0  0
 40 41  1  0  0  0  0
 40 82  1  0  0  0  0
 40 83  1  0  0  0  0
 41 42  2  0  0  0  0
 41 43  1  0  0  0  0
 42 44  1  0  0  0  0
 43 45  2  0  0  0  0
 44 46  2  0  0  0  0
 44 84  1  0  0  0  0
 45 46  1  0  0  0  0
 45 85  1  0  0  0  0
 46 47  1  0  0  0  0
M  END
> <PUBCHEM_COMPOUND_CID>
507683
> <PUBCHEM_COMPOUND_CANONICALIZED>
1
> <PUBCHEM_CACTVS_COMPLEXITY>
1090
> <PUBCHEM_CACTVS_HBOND_ACCEPTOR>
14
> <PUBCHEM_CACTVS_HBOND_DONOR>
4
> <PUBCHEM_CACTVS_ROTATABLE_BOND>
15
> <PUBCHEM_CACTVS_SUBSKEYS>
AAADcfB7vcAAAAAAAAAAAAAAAAAAAWLAAAAwAAAAAAAAAAABwAAAHwAUCAAADzzhmx4zGIfYFgCpAiPyPgYCgAkkAKAhiIH4CMiKfjKAnTGXcQAm1wOYmYe6yfCOQAAAAAAAAACAAAAAAAAAAAAAAAAAAA==
> <PUBCHEM_IUPAC_OPENEYE_NAME>
4-[2-[[(2S)-2-[[(4R)-4-[(5-tert-butyl-1,2,4-oxadiazol-3-yl)methoxy]-1-[(2S)-2-hydroxy-3-methyl-butanoyl]pyrrolidine-2-carbonyl]amino]-4,4-difluoro-butanoyl]amino]ethyl]-3,5-difluoro-benzoic acid
> <PUBCHEM_IUPAC_CAS_NAME>
4-[2-[[(2S)-2-[[[(4R)-4-[(5-tert-butyl-1,2,4-oxadiazol-3-yl)methoxy]-1-[(2S)-2-hydroxy-3-methyl-1-oxobutyl]-2-pyrrolidinyl]-oxomethyl]amino]-4,4-difluoro-1-oxobutyl]amino]ethyl]-3,5-difluorobenzoic acid
> <PUBCHEM_IUPAC_NAME_MARKUP>
4-[2-[[(2<I>S</I>)-2-[[(4<I>R</I>)-4-[(5-<I>tert</I>-butyl-1,2,4-oxadiazol-3-yl)methoxy]-1-[(2<I>S</I>)-2-hydroxy-3-methylbutanoyl]pyrrolidine-2-carbonyl]amino]-4,4-difluorobutanoyl]amino]ethyl]-3,5-difluorobenzoic acid
> <PUBCHEM_IUPAC_NAME>
4-[2-[[(2S)-2-[[(4R)-4-[(5-tert-butyl-1,2,4-oxadiazol-3-yl)methoxy]-1-[(2S)-2-hydroxy-3-methylbutanoyl]pyrrolidine-2-carbonyl]amino]-4,4-difluorobutanoyl]amino]ethyl]-3,5-difluorobenzoic acid
> <PUBCHEM_IUPAC_SYSTEMATIC_NAME>
4-[2-[[(2S)-2-[[(4R)-4-[(5-tert-butyl-1,2,4-oxadiazol-3-yl)methoxy]-1-[(2S)-3-methyl-2-oxidanyl-butanoyl]pyrrolidin-2-yl]carbonylamino]-4,4-bis(fluoranyl)butanoyl]amino]ethyl]-3,5-bis(fluoranyl)benzoic acid
> <PUBCHEM_IUPAC_TRADITIONAL_NAME>
4-[2-[[(2S)-2-[[(4R)-4-[(5-tert-butyl-1,2,4-oxadiazol-3-yl)methoxy]-1-[(2S)-2-hydroxy-3-methyl-butanoyl]prolyl]amino]-4,4-difluoro-butanoyl]amino]ethyl]-3,5-difluoro-benzoic acid
> <PUBCHEM_IUPAC_INCHI>
InChI=1S/C30H39F4N5O8/c1-14(2)24(40)27(43)39-12-16(46-13-23-37-29(47-38-23)30(3,4)5)10-21(39)26(42)36-20(11-22(33)34)25(41)35-7-6-17-18(31)8-15(28(44)45)9-19(17)32/h8-9,14,16,20-22,24,40H,6-7,10-13H2,1-5H3,(H,35,41)(H,36,42)(H,44,45)/t16-,20+,21?,24+/m1/s1
> <PUBCHEM_IUPAC_INCHIKEY>
GCBNHWZPJRFQLU-LUPPVDNHSA-N
> <PUBCHEM_XLOGP3_AA>
3.6
> <PUBCHEM_EXACT_MASS>
673.27347587
> <PUBCHEM_MOLECULAR_FORMULA>
C30H39F4N5O8
> <PUBCHEM_MOLECULAR_WEIGHT>
673.7
> <PUBCHEM_OPENEYE_CAN_SMILES>
CC(C)C(C(=O)N1CC(CC1C(=O)NC(CC(F)F)C(=O)NCCC2=C(C=C(C=C2F)C(=O)O)F)OCC3=NOC(=N3)C(C)(C)C)O
> <PUBCHEM_OPENEYE_ISO_SMILES>
CC(C)[C@@H](C(=O)N1C[C@@H](CC1C(=O)N[C@@H](CC(F)F)C(=O)NCCC2=C(C=C(C=C2F)C(=O)O)F)OCC3=NOC(=N3)C(C)(C)C)O
> <PUBCHEM_CACTVS_TPSA>
184
> <PUBCHEM_MONOISOTOPIC_WEIGHT>
673.27347587
> <PUBCHEM_TOTAL_CHARGE>
0
> <PUBCHEM_HEAVY_ATOM_COUNT>
47
> <PUBCHEM_ATOM_DEF_STEREO_COUNT>
3
> <PUBCHEM_ATOM_UDEF_STEREO_COUNT>
1
> <PUBCHEM_BOND_DEF_STEREO_COUNT>
0
> <PUBCHEM_BOND_UDEF_STEREO_COUNT>
0
> <PUBCHEM_ISOTOPIC_ATOM_COUNT>
0
> <PUBCHEM_COMPONENT_COUNT>
1
> <PUBCHEM_CACTVS_TAUTO_COUNT>
-1
> <PUBCHEM_COORDINATE_TYPE>
1
5
255
> <PUBCHEM_BONDANNOTATIONS>
26  14  6
16  31  8
16  35  8
17  31  8
18  23  3
41  42  8
41  43  8
42  44  8
43  45  8
44  46  8
45  46  8
19  5  5
24  8  5
9  17  8
9  35  8
$$$$
