507685
  -OEChem-10302200282D
 89 92  0     1  0  0  0  0  0999 V2000
    5.4641    1.9591    0.0000 F   0  0  0  0  0  0  0  0  0  0  0  0
    3.7320    1.9591    0.0000 F   0  0  0  0  0  0  0  0  0  0  0  0
    2.0000   -4.0409    0.0000 F   0  0  0  0  0  0  0  0  0  0  0  0
    5.4641   -4.0409    0.0000 F   0  0  0  0  0  0  0  0  0  0  0  0
    9.5516    2.5751    0.0000 O   0  0  0  0  0  0  0  0  0  0  0  0
    8.4405   -1.5949    0.0000 O   0  0  0  0  0  0  0  0  0  0  0  0
    7.1962   -1.0409    0.0000 O   0  0  0  0  0  0  0  0  0  0  0  0
   10.8778   -0.5657    0.0000 O   0  0  0  0  0  0  0  0  0  0  0  0
    6.3301   -1.5409    0.0000 O   0  0  0  0  0  0  0  0  0  0  0  0
    2.8660   -7.5409    0.0000 O   0  0  0  0  0  0  0  0  0  0  0  0
    4.5981   -7.5409    0.0000 O   0  0  0  0  0  0  0  0  0  0  0  0
    8.9757    0.0524    0.0000 N   0  0  0  0  0  0  0  0  0  0  0  0
    6.3301    0.4591    0.0000 N   0  0  0  0  0  0  0  0  0  0  0  0
    4.5981   -1.5409    0.0000 N   0  0  0  0  0  0  0  0  0  0  0  0
    8.0622    0.4591    0.0000 C   0  0  3  0  0  0  0  0  0  0  0  0
    9.1448    1.6615    0.0000 C   0  0  2  0  0  0  0  0  0  0  0  0
    8.1667    1.4536    0.0000 C   0  0  0  0  0  0  0  0  0  0  0  0
    9.6448    0.7955    0.0000 C   0  0  0  0  0  0  0  0  0  0  0  0
    9.1836   -0.9258    0.0000 C   0  0  0  0  0  0  0  0  0  0  0  0
    7.1962   -0.0409    0.0000 C   0  0  0  0  0  0  0  0  0  0  0  0
   10.1347   -1.2348    0.0000 C   0  0  2  0  0  0  0  0  0  0  0  0
   10.3426   -2.2129    0.0000 C   0  0  0  0  0  0  0  0  0  0  0  0
   10.5461    2.6796    0.0000 C   0  0  0  0  0  0  0  0  0  0  0  0
    5.4641   -0.0409    0.0000 C   0  0  1  0  0  0  0  0  0  0  0  0
   11.2937   -2.5220    0.0000 C   0  0  0  0  0  0  0  0  0  0  0  0
    9.5995   -2.8821    0.0000 C   0  0  0  0  0  0  0  0  0  0  0  0
    4.5981    0.4591    0.0000 C   0  0  0  0  0  0  0  0  0  0  0  0
   10.9528    3.5932    0.0000 C   0  0  0  0  0  0  0  0  0  0  0  0
    5.4641   -1.0409    0.0000 C   0  0  0  0  0  0  0  0  0  0  0  0
    4.5981    1.4591    0.0000 C   0  0  0  0  0  0  0  0  0  0  0  0
   11.9474    3.6977    0.0000 C   0  0  0  0  0  0  0  0  0  0  0  0
   10.3651    4.4022    0.0000 C   0  0  0  0  0  0  0  0  0  0  0  0
    4.5981   -2.5409    0.0000 C   0  0  0  0  0  0  0  0  0  0  0  0
   12.3541    4.6112    0.0000 C   0  0  0  0  0  0  0  0  0  0  0  0
   10.7718    5.3157    0.0000 C   0  0  0  0  0  0  0  0  0  0  0  0
   11.7663    5.4202    0.0000 C   0  0  0  0  0  0  0  0  0  0  0  0
    3.7320   -3.0409    0.0000 C   0  0  0  0  0  0  0  0  0  0  0  0
   12.1731    6.3338    0.0000 C   0  0  0  0  0  0  0  0  0  0  0  0
    3.7320   -4.0409    0.0000 C   0  0  0  0  0  0  0  0  0  0  0  0
   13.1676    6.4383    0.0000 C   0  0  0  0  0  0  0  0  0  0  0  0
   11.5853    7.1428    0.0000 C   0  0  0  0  0  0  0  0  0  0  0  0
    2.8660   -4.5409    0.0000 C   0  0  0  0  0  0  0  0  0  0  0  0
    4.5981   -4.5409    0.0000 C   0  0  0  0  0  0  0  0  0  0  0  0
    2.8660   -5.5409    0.0000 C   0  0  0  0  0  0  0  0  0  0  0  0
    4.5981   -5.5409    0.0000 C   0  0  0  0  0  0  0  0  0  0  0  0
   13.5743    7.3519    0.0000 C   0  0  0  0  0  0  0  0  0  0  0  0
   11.9920    8.0564    0.0000 C   0  0  0  0  0  0  0  0  0  0  0  0
    3.7320   -6.0409    0.0000 C   0  0  0  0  0  0  0  0  0  0  0  0
   12.9865    8.1609    0.0000 C   0  0  0  0  0  0  0  0  0  0  0  0
    3.7320   -7.0409    0.0000 C   0  0  0  0  0  0  0  0  0  0  0  0
    8.0946   -0.1600    0.0000 H   0  0  0  0  0  0  0  0  0  0  0  0
    8.7547    2.1434    0.0000 H   0  0  0  0  0  0  0  0  0  0  0  0
    8.1019    2.0702    0.0000 H   0  0  0  0  0  0  0  0  0  0  0  0
    7.5467    1.4536    0.0000 H   0  0  0  0  0  0  0  0  0  0  0  0
   10.0597    0.3348    0.0000 H   0  0  0  0  0  0  0  0  0  0  0  0
   10.1464    1.1599    0.0000 H   0  0  0  0  0  0  0  0  0  0  0  0
   10.7243   -1.4264    0.0000 H   0  0  0  0  0  0  0  0  0  0  0  0
    9.7530   -2.0214    0.0000 H   0  0  0  0  0  0  0  0  0  0  0  0
    6.3301    1.0791    0.0000 H   0  0  0  0  0  0  0  0  0  0  0  0
   10.5029    2.0611    0.0000 H   0  0  0  0  0  0  0  0  0  0  0  0
   11.1477    2.5296    0.0000 H   0  0  0  0  0  0  0  0  0  0  0  0
    5.4641    0.5791    0.0000 H   0  0  0  0  0  0  0  0  0  0  0  0
   11.1021   -3.1116    0.0000 H   0  0  0  0  0  0  0  0  0  0  0  0
   11.8833   -2.7136    0.0000 H   0  0  0  0  0  0  0  0  0  0  0  0
   11.4853   -1.9323    0.0000 H   0  0  0  0  0  0  0  0  0  0  0  0
    9.1846   -2.4213    0.0000 H   0  0  0  0  0  0  0  0  0  0  0  0
    9.1387   -3.2969    0.0000 H   0  0  0  0  0  0  0  0  0  0  0  0
   10.0143   -3.3428    0.0000 H   0  0  0  0  0  0  0  0  0  0  0  0
    3.9875    0.5668    0.0000 H   0  0  0  0  0  0  0  0  0  0  0  0
    4.3860   -0.1235    0.0000 H   0  0  0  0  0  0  0  0  0  0  0  0
   11.4675   -0.7573    0.0000 H   0  0  0  0  0  0  0  0  0  0  0  0
    4.5981    2.0791    0.0000 H   0  0  0  0  0  0  0  0  0  0  0  0
   12.3118    3.1961    0.0000 H   0  0  0  0  0  0  0  0  0  0  0  0
    9.7485    4.3374    0.0000 H   0  0  0  0  0  0  0  0  0  0  0  0
    4.0611   -1.2309    0.0000 H   0  0  0  0  0  0  0  0  0  0  0  0
    4.8101   -3.1235    0.0000 H   0  0  0  0  0  0  0  0  0  0  0  0
    5.2087   -2.4332    0.0000 H   0  0  0  0  0  0  0  0  0  0  0  0
   12.9707    4.6760    0.0000 H   0  0  0  0  0  0  0  0  0  0  0  0
   10.4074    5.8173    0.0000 H   0  0  0  0  0  0  0  0  0  0  0  0
    3.5200   -2.4583    0.0000 H   0  0  0  0  0  0  0  0  0  0  0  0
    3.1215   -3.1486    0.0000 H   0  0  0  0  0  0  0  0  0  0  0  0
   13.5320    5.9367    0.0000 H   0  0  0  0  0  0  0  0  0  0  0  0
   10.9687    7.0780    0.0000 H   0  0  0  0  0  0  0  0  0  0  0  0
    2.3291   -5.8509    0.0000 H   0  0  0  0  0  0  0  0  0  0  0  0
    5.1350   -5.8509    0.0000 H   0  0  0  0  0  0  0  0  0  0  0  0
   14.1909    7.4167    0.0000 H   0  0  0  0  0  0  0  0  0  0  0  0
   11.6276    8.5580    0.0000 H   0  0  0  0  0  0  0  0  0  0  0  0
   13.2387    8.7273    0.0000 H   0  0  0  0  0  0  0  0  0  0  0  0
    2.8660   -8.1609    0.0000 H   0  0  0  0  0  0  0  0  0  0  0  0
  1 30  1  0  0  0  0
  2 30  1  0  0  0  0
  3 42  1  0  0  0  0
  4 43  1  0  0  0  0
 16  5  1  1  0  0  0
  5 23  1  0  0  0  0
  6 19  2  0  0  0  0
  7 20  2  0  0  0  0
 21  8  1  1  0  0  0
  8 71  1  0  0  0  0
  9 29  2  0  0  0  0
 10 50  1  0  0  0  0
 10 89  1  0  0  0  0
 11 50  2  0  0  0  0
 12 15  1  0  0  0  0
 12 18  1  0  0  0  0
 12 19  1  0  0  0  0
 13 20  1  0  0  0  0
 24 13  1  6  0  0  0
 13 59  1  0  0  0  0
 14 29  1  0  0  0  0
 14 33  1  0  0  0  0
 14 75  1  0  0  0  0
 15 17  1  0  0  0  0
 15 20  1  0  0  0  0
 15 51  1  0  0  0  0
 16 17  1  0  0  0  0
 16 18  1  0  0  0  0
 16 52  1  0  0  0  0
 17 53  1  0  0  0  0
 17 54  1  0  0  0  0
 18 55  1  0  0  0  0
 18 56  1  0  0  0  0
 19 21  1  0  0  0  0
 21 22  1  0  0  0  0
 21 57  1  0  0  0  0
 22 25  1  0  0  0  0
 22 26  1  0  0  0  0
 22 58  1  0  0  0  0
 23 28  1  0  0  0  0
 23 60  1  0  0  0  0
 23 61  1  0  0  0  0
 24 27  1  0  0  0  0
 24 29  1  0  0  0  0
 24 62  1  0  0  0  0
 25 63  1  0  0  0  0
 25 64  1  0  0  0  0
 25 65  1  0  0  0  0
 26 66  1  0  0  0  0
 26 67  1  0  0  0  0
 26 68  1  0  0  0  0
 27 30  1  0  0  0  0
 27 69  1  0  0  0  0
 27 70  1  0  0  0  0
 28 31  2  0  0  0  0
 28 32  1  0  0  0  0
 30 72  1  0  0  0  0
 31 34  1  0  0  0  0
 31 73  1  0  0  0  0
 32 35  2  0  0  0  0
 32 74  1  0  0  0  0
 33 37  1  0  0  0  0
 33 76  1  0  0  0  0
 33 77  1  0  0  0  0
 34 36  2  0  0  0  0
 34 78  1  0  0  0  0
 35 36  1  0  0  0  0
 35 79  1  0  0  0  0
 36 38  1  0  0  0  0
 37 39  1  0  0  0  0
 37 80  1  0  0  0  0
 37 81  1  0  0  0  0
 38 40  2  0  0  0  0
 38 41  1  0  0  0  0
 39 42  2  0  0  0  0
 39 43  1  0  0  0  0
 40 46  1  0  0  0  0
 40 82  1  0  0  0  0
 41 47  2  0  0  0  0
 41 83  1  0  0  0  0
 42 44  1  0  0  0  0
 43 45  2  0  0  0  0
 44 48  2  0  0  0  0
 44 84  1  0  0  0  0
 45 48  1  0  0  0  0
 45 85  1  0  0  0  0
 46 49  2  0  0  0  0
 46 86  1  0  0  0  0
 47 49  1  0  0  0  0
 47 87  1  0  0  0  0
 48 50  1  0  0  0  0
 49 88  1  0  0  0  0
M  END
> <PUBCHEM_COMPOUND_CID>
507685
> <PUBCHEM_COMPOUND_CANONICALIZED>
1
> <PUBCHEM_CACTVS_COMPLEXITY>
1120
> <PUBCHEM_CACTVS_HBOND_ACCEPTOR>
11
> <PUBCHEM_CACTVS_HBOND_DONOR>
4
> <PUBCHEM_CACTVS_ROTATABLE_BOND>
15
> <PUBCHEM_CACTVS_SUBSKEYS>
AAADcfB/OcAAAAAAAAAAAAAAAAAAAWAAAAAwYMAAAAAAAAABUAAAHwAQCAAADTzhmB4yCIPABgCIAiHSGAICAAAkAAAIiIHICMgKdjKAtTmXcQAm1gGYuYe6yfCOwAAAAAAAAACAAAAAAAAAAAAAAAAAAA==
> <PUBCHEM_IUPAC_OPENEYE_NAME>
4-[2-[[(2S)-4,4-difluoro-2-[[(4R)-1-[(2S)-2-hydroxy-3-methyl-butanoyl]-4-[(4-phenylphenyl)methoxy]pyrrolidine-2-carbonyl]amino]butanoyl]amino]ethyl]-3,5-difluoro-benzoic acid
> <PUBCHEM_IUPAC_CAS_NAME>
4-[2-[[(2S)-4,4-difluoro-2-[[[(4R)-1-[(2S)-2-hydroxy-3-methyl-1-oxobutyl]-4-[(4-phenylphenyl)methoxy]-2-pyrrolidinyl]-oxomethyl]amino]-1-oxobutyl]amino]ethyl]-3,5-difluorobenzoic acid
> <PUBCHEM_IUPAC_NAME_MARKUP>
4-[2-[[(2<I>S</I>)-4,4-difluoro-2-[[(4<I>R</I>)-1-[(2<I>S</I>)-2-hydroxy-3-methylbutanoyl]-4-[(4-phenylphenyl)methoxy]pyrrolidine-2-carbonyl]amino]butanoyl]amino]ethyl]-3,5-difluorobenzoic acid
> <PUBCHEM_IUPAC_NAME>
4-[2-[[(2S)-4,4-difluoro-2-[[(4R)-1-[(2S)-2-hydroxy-3-methylbutanoyl]-4-[(4-phenylphenyl)methoxy]pyrrolidine-2-carbonyl]amino]butanoyl]amino]ethyl]-3,5-difluorobenzoic acid
> <PUBCHEM_IUPAC_SYSTEMATIC_NAME>
4-[2-[[(2S)-4,4-bis(fluoranyl)-2-[[(4R)-1-[(2S)-3-methyl-2-oxidanyl-butanoyl]-4-[(4-phenylphenyl)methoxy]pyrrolidin-2-yl]carbonylamino]butanoyl]amino]ethyl]-3,5-bis(fluoranyl)benzoic acid
> <PUBCHEM_IUPAC_TRADITIONAL_NAME>
4-[2-[[(2S)-4,4-difluoro-2-[[(4R)-1-[(2S)-2-hydroxy-3-methyl-butanoyl]-4-(4-phenylbenzyl)oxy-prolyl]amino]butanoyl]amino]ethyl]-3,5-difluoro-benzoic acid
> <PUBCHEM_IUPAC_INCHI>
InChI=1S/C36H39F4N3O7/c1-20(2)32(44)35(47)43-18-25(50-19-21-8-10-23(11-9-21)22-6-4-3-5-7-22)16-30(43)34(46)42-29(17-31(39)40)33(45)41-13-12-26-27(37)14-24(36(48)49)15-28(26)38/h3-11,14-15,20,25,29-32,44H,12-13,16-19H2,1-2H3,(H,41,45)(H,42,46)(H,48,49)/t25-,29+,30?,32+/m1/s1
> <PUBCHEM_IUPAC_INCHIKEY>
VIFHIWDGSSNVJU-OXALLMNESA-N
> <PUBCHEM_XLOGP3_AA>
5.3
> <PUBCHEM_EXACT_MASS>
701.27241324
> <PUBCHEM_MOLECULAR_FORMULA>
C36H39F4N3O7
> <PUBCHEM_MOLECULAR_WEIGHT>
701.7
> <PUBCHEM_OPENEYE_CAN_SMILES>
CC(C)C(C(=O)N1CC(CC1C(=O)NC(CC(F)F)C(=O)NCCC2=C(C=C(C=C2F)C(=O)O)F)OCC3=CC=C(C=C3)C4=CC=CC=C4)O
> <PUBCHEM_OPENEYE_ISO_SMILES>
CC(C)[C@@H](C(=O)N1C[C@@H](CC1C(=O)N[C@@H](CC(F)F)C(=O)NCCC2=C(C=C(C=C2F)C(=O)O)F)OCC3=CC=C(C=C3)C4=CC=CC=C4)O
> <PUBCHEM_CACTVS_TPSA>
145
> <PUBCHEM_MONOISOTOPIC_WEIGHT>
701.27241324
> <PUBCHEM_TOTAL_CHARGE>
0
> <PUBCHEM_HEAVY_ATOM_COUNT>
50
> <PUBCHEM_ATOM_DEF_STEREO_COUNT>
3
> <PUBCHEM_ATOM_UDEF_STEREO_COUNT>
1
> <PUBCHEM_BOND_DEF_STEREO_COUNT>
0
> <PUBCHEM_BOND_UDEF_STEREO_COUNT>
0
> <PUBCHEM_ISOTOPIC_ATOM_COUNT>
0
> <PUBCHEM_COMPONENT_COUNT>
1
> <PUBCHEM_CACTVS_TAUTO_COUNT>
-1
> <PUBCHEM_COORDINATE_TYPE>
1
5
255
> <PUBCHEM_BONDANNOTATIONS>
24  13  6
15  20  3
28  31  8
28  32  8
31  34  8
32  35  8
34  36  8
35  36  8
38  40  8
38  41  8
39  42  8
39  43  8
40  46  8
41  47  8
42  44  8
43  45  8
44  48  8
45  48  8
46  49  8
47  49  8
16  5  5
21  8  5
$$$$
