507693
  -OEChem-10302200282D
 78 80  0     1  0  0  0  0  0999 V2000
    5.4641    3.8385    0.0000 F   0  0  0  0  0  0  0  0  0  0  0  0
    3.7320    3.8385    0.0000 F   0  0  0  0  0  0  0  0  0  0  0  0
    5.4641   -2.1615    0.0000 F   0  0  0  0  0  0  0  0  0  0  0  0
    2.0000   -2.1615    0.0000 F   0  0  0  0  0  0  0  0  0  0  0  0
    8.4405    0.2844    0.0000 O   0  0  0  0  0  0  0  0  0  0  0  0
   10.8778    1.3137    0.0000 O   0  0  0  0  0  0  0  0  0  0  0  0
    7.1962    0.8385    0.0000 O   0  0  0  0  0  0  0  0  0  0  0  0
    6.3301    0.3385    0.0000 O   0  0  0  0  0  0  0  0  0  0  0  0
    2.8660   -5.6615    0.0000 O   0  0  0  0  0  0  0  0  0  0  0  0
    4.5981   -5.6615    0.0000 O   0  0  0  0  0  0  0  0  0  0  0  0
    8.9757    1.9317    0.0000 N   0  0  0  0  0  0  0  0  0  0  0  0
    6.3301    2.3385    0.0000 N   0  0  0  0  0  0  0  0  0  0  0  0
    4.5981    0.3385    0.0000 N   0  0  0  0  0  0  0  0  0  0  0  0
    9.1448    3.5409    0.0000 C   0  0  2  0  0  0  0  0  0  0  0  0
    8.0622    2.3385    0.0000 C   0  0  3  0  0  0  0  0  0  0  0  0
    8.1667    3.3330    0.0000 C   0  0  0  0  0  0  0  0  0  0  0  0
    9.6448    2.6749    0.0000 C   0  0  0  0  0  0  0  0  0  0  0  0
    9.5516    4.4544    0.0000 C   0  0  0  0  0  0  0  0  0  0  0  0
    9.1836    0.9536    0.0000 C   0  0  0  0  0  0  0  0  0  0  0  0
    7.1962    1.8385    0.0000 C   0  0  0  0  0  0  0  0  0  0  0  0
   10.1347    0.6446    0.0000 C   0  0  2  0  0  0  0  0  0  0  0  0
   10.3426   -0.3336    0.0000 C   0  0  3  0  0  0  0  0  0  0  0  0
   10.5461    4.5590    0.0000 C   0  0  0  0  0  0  0  0  0  0  0  0
    8.9638    5.2635    0.0000 C   0  0  0  0  0  0  0  0  0  0  0  0
    5.4641    1.8385    0.0000 C   0  0  1  0  0  0  0  0  0  0  0  0
   11.2937   -0.6426    0.0000 C   0  0  0  0  0  0  0  0  0  0  0  0
    9.5995   -1.0027    0.0000 C   0  0  0  0  0  0  0  0  0  0  0  0
   10.9528    5.4725    0.0000 C   0  0  0  0  0  0  0  0  0  0  0  0
    9.3705    6.1770    0.0000 C   0  0  0  0  0  0  0  0  0  0  0  0
    4.5981    2.3385    0.0000 C   0  0  0  0  0  0  0  0  0  0  0  0
   10.3651    6.2815    0.0000 C   0  0  0  0  0  0  0  0  0  0  0  0
   11.5016   -1.6208    0.0000 C   0  0  0  0  0  0  0  0  0  0  0  0
    5.4641    0.8385    0.0000 C   0  0  0  0  0  0  0  0  0  0  0  0
    4.5981    3.3385    0.0000 C   0  0  0  0  0  0  0  0  0  0  0  0
    4.5981   -0.6615    0.0000 C   0  0  0  0  0  0  0  0  0  0  0  0
    3.7320   -1.1615    0.0000 C   0  0  0  0  0  0  0  0  0  0  0  0
    3.7320   -2.1615    0.0000 C   0  0  0  0  0  0  0  0  0  0  0  0
    4.5981   -2.6615    0.0000 C   0  0  0  0  0  0  0  0  0  0  0  0
    2.8660   -2.6615    0.0000 C   0  0  0  0  0  0  0  0  0  0  0  0
    4.5981   -3.6615    0.0000 C   0  0  0  0  0  0  0  0  0  0  0  0
    2.8660   -3.6615    0.0000 C   0  0  0  0  0  0  0  0  0  0  0  0
    3.7320   -4.1615    0.0000 C   0  0  0  0  0  0  0  0  0  0  0  0
    3.7320   -5.1615    0.0000 C   0  0  0  0  0  0  0  0  0  0  0  0
    8.7547    4.0227    0.0000 H   0  0  0  0  0  0  0  0  0  0  0  0
    8.0946    1.7193    0.0000 H   0  0  0  0  0  0  0  0  0  0  0  0
    8.1019    3.9496    0.0000 H   0  0  0  0  0  0  0  0  0  0  0  0
    7.5467    3.3330    0.0000 H   0  0  0  0  0  0  0  0  0  0  0  0
   10.0597    2.2141    0.0000 H   0  0  0  0  0  0  0  0  0  0  0  0
   10.1464    3.0393    0.0000 H   0  0  0  0  0  0  0  0  0  0  0  0
   10.0058    1.2510    0.0000 H   0  0  0  0  0  0  0  0  0  0  0  0
    9.7530   -0.1420    0.0000 H   0  0  0  0  0  0  0  0  0  0  0  0
    6.3301    2.9585    0.0000 H   0  0  0  0  0  0  0  0  0  0  0  0
   10.9105    4.0574    0.0000 H   0  0  0  0  0  0  0  0  0  0  0  0
    8.3472    5.1986    0.0000 H   0  0  0  0  0  0  0  0  0  0  0  0
    5.4641    2.4585    0.0000 H   0  0  0  0  0  0  0  0  0  0  0  0
   11.9133   -0.6210    0.0000 H   0  0  0  0  0  0  0  0  0  0  0  0
   11.3799   -0.0286    0.0000 H   0  0  0  0  0  0  0  0  0  0  0  0
    9.1846   -0.5420    0.0000 H   0  0  0  0  0  0  0  0  0  0  0  0
    9.1387   -1.4176    0.0000 H   0  0  0  0  0  0  0  0  0  0  0  0
   10.0143   -1.4635    0.0000 H   0  0  0  0  0  0  0  0  0  0  0  0
   11.5695    5.5373    0.0000 H   0  0  0  0  0  0  0  0  0  0  0  0
    9.0061    6.6786    0.0000 H   0  0  0  0  0  0  0  0  0  0  0  0
   11.4675    1.1221    0.0000 H   0  0  0  0  0  0  0  0  0  0  0  0
    3.9875    2.4461    0.0000 H   0  0  0  0  0  0  0  0  0  0  0  0
    4.3860    1.7559    0.0000 H   0  0  0  0  0  0  0  0  0  0  0  0
   10.6172    6.8479    0.0000 H   0  0  0  0  0  0  0  0  0  0  0  0
   10.8951   -1.7496    0.0000 H   0  0  0  0  0  0  0  0  0  0  0  0
   11.6305   -2.2272    0.0000 H   0  0  0  0  0  0  0  0  0  0  0  0
   12.1080   -1.4918    0.0000 H   0  0  0  0  0  0  0  0  0  0  0  0
    4.5981    3.9585    0.0000 H   0  0  0  0  0  0  0  0  0  0  0  0
    4.0611    0.6485    0.0000 H   0  0  0  0  0  0  0  0  0  0  0  0
    4.8101   -1.2441    0.0000 H   0  0  0  0  0  0  0  0  0  0  0  0
    5.2087   -0.5539    0.0000 H   0  0  0  0  0  0  0  0  0  0  0  0
    3.5200   -0.5789    0.0000 H   0  0  0  0  0  0  0  0  0  0  0  0
    3.1215   -1.2692    0.0000 H   0  0  0  0  0  0  0  0  0  0  0  0
    5.1350   -3.9715    0.0000 H   0  0  0  0  0  0  0  0  0  0  0  0
    2.3291   -3.9715    0.0000 H   0  0  0  0  0  0  0  0  0  0  0  0
    2.8660   -6.2815    0.0000 H   0  0  0  0  0  0  0  0  0  0  0  0
  1 34  1  0  0  0  0
  2 34  1  0  0  0  0
  3 38  1  0  0  0  0
  4 39  1  0  0  0  0
  5 19  2  0  0  0  0
 21  6  1  1  0  0  0
  6 63  1  0  0  0  0
  7 20  2  0  0  0  0
  8 33  2  0  0  0  0
  9 43  1  0  0  0  0
  9 78  1  0  0  0  0
 10 43  2  0  0  0  0
 11 15  1  0  0  0  0
 11 17  1  0  0  0  0
 11 19  1  0  0  0  0
 12 20  1  0  0  0  0
 25 12  1  6  0  0  0
 12 52  1  0  0  0  0
 13 33  1  0  0  0  0
 13 35  1  0  0  0  0
 13 71  1  0  0  0  0
 14 16  1  0  0  0  0
 14 17  1  0  0  0  0
 14 18  1  1  0  0  0
 14 44  1  0  0  0  0
 15 16  1  0  0  0  0
 15 20  1  0  0  0  0
 15 45  1  0  0  0  0
 16 46  1  0  0  0  0
 16 47  1  0  0  0  0
 17 48  1  0  0  0  0
 17 49  1  0  0  0  0
 18 23  2  0  0  0  0
 18 24  1  0  0  0  0
 19 21  1  0  0  0  0
 21 22  1  0  0  0  0
 21 50  1  0  0  0  0
 22 26  1  0  0  0  0
 22 27  1  0  0  0  0
 22 51  1  0  0  0  0
 23 28  1  0  0  0  0
 23 53  1  0  0  0  0
 24 29  2  0  0  0  0
 24 54  1  0  0  0  0
 25 30  1  0  0  0  0
 25 33  1  0  0  0  0
 25 55  1  0  0  0  0
 26 32  1  0  0  0  0
 26 56  1  0  0  0  0
 26 57  1  0  0  0  0
 27 58  1  0  0  0  0
 27 59  1  0  0  0  0
 27 60  1  0  0  0  0
 28 31  2  0  0  0  0
 28 61  1  0  0  0  0
 29 31  1  0  0  0  0
 29 62  1  0  0  0  0
 30 34  1  0  0  0  0
 30 64  1  0  0  0  0
 30 65  1  0  0  0  0
 31 66  1  0  0  0  0
 32 67  1  0  0  0  0
 32 68  1  0  0  0  0
 32 69  1  0  0  0  0
 34 70  1  0  0  0  0
 35 36  1  0  0  0  0
 35 72  1  0  0  0  0
 35 73  1  0  0  0  0
 36 37  1  0  0  0  0
 36 74  1  0  0  0  0
 36 75  1  0  0  0  0
 37 38  2  0  0  0  0
 37 39  1  0  0  0  0
 38 40  1  0  0  0  0
 39 41  2  0  0  0  0
 40 42  2  0  0  0  0
 40 76  1  0  0  0  0
 41 42  1  0  0  0  0
 41 77  1  0  0  0  0
 42 43  1  0  0  0  0
M  END
> <PUBCHEM_COMPOUND_CID>
507693
> <PUBCHEM_COMPOUND_CANONICALIZED>
1
> <PUBCHEM_CACTVS_COMPLEXITY>
956
> <PUBCHEM_CACTVS_HBOND_ACCEPTOR>
10
> <PUBCHEM_CACTVS_HBOND_DONOR>
4
> <PUBCHEM_CACTVS_ROTATABLE_BOND>
13
> <PUBCHEM_CACTVS_SUBSKEYS>
AAADcfB7OcAAAAAAAAAAAAAAAAAAAWAAAAAwYAAAAAAAAAABQAAAHwAQCAAADTzhmB4yCIPAAgCIAiHSGAICAAAkAAAIiIHICMgKdjKAlTGUcQAk1gGYmYeYyfCOwAAAAAAAAACAAAAAAAAAAAAAAAAAAA==
> <PUBCHEM_IUPAC_OPENEYE_NAME>
4-[2-[[(2S)-4,4-difluoro-2-[[(4S)-1-[(2S)-2-hydroxy-3-methyl-pentanoyl]-4-phenyl-pyrrolidine-2-carbonyl]amino]butanoyl]amino]ethyl]-3,5-difluoro-benzoic acid
> <PUBCHEM_IUPAC_CAS_NAME>
4-[2-[[(2S)-4,4-difluoro-2-[[[(4S)-1-[(2S)-2-hydroxy-3-methyl-1-oxopentyl]-4-phenyl-2-pyrrolidinyl]-oxomethyl]amino]-1-oxobutyl]amino]ethyl]-3,5-difluorobenzoic acid
> <PUBCHEM_IUPAC_NAME_MARKUP>
4-[2-[[(2<I>S</I>)-4,4-difluoro-2-[[(4<I>S</I>)-1-[(2<I>S</I>)-2-hydroxy-3-methylpentanoyl]-4-phenylpyrrolidine-2-carbonyl]amino]butanoyl]amino]ethyl]-3,5-difluorobenzoic acid
> <PUBCHEM_IUPAC_NAME>
4-[2-[[(2S)-4,4-difluoro-2-[[(4S)-1-[(2S)-2-hydroxy-3-methylpentanoyl]-4-phenylpyrrolidine-2-carbonyl]amino]butanoyl]amino]ethyl]-3,5-difluorobenzoic acid
> <PUBCHEM_IUPAC_SYSTEMATIC_NAME>
4-[2-[[(2S)-4,4-bis(fluoranyl)-2-[[(4S)-1-[(2S)-3-methyl-2-oxidanyl-pentanoyl]-4-phenyl-pyrrolidin-2-yl]carbonylamino]butanoyl]amino]ethyl]-3,5-bis(fluoranyl)benzoic acid
> <PUBCHEM_IUPAC_TRADITIONAL_NAME>
4-[2-[[(2S)-4,4-difluoro-2-[[(4S)-1-[(2S)-2-hydroxy-3-methyl-pentanoyl]-4-phenyl-prolyl]amino]butanoyl]amino]ethyl]-3,5-difluoro-benzoic acid
> <PUBCHEM_IUPAC_INCHI>
InChI=1S/C30H35F4N3O6/c1-3-16(2)26(38)29(41)37-15-19(17-7-5-4-6-8-17)13-24(37)28(40)36-23(14-25(33)34)27(39)35-10-9-20-21(31)11-18(30(42)43)12-22(20)32/h4-8,11-12,16,19,23-26,38H,3,9-10,13-15H2,1-2H3,(H,35,39)(H,36,40)(H,42,43)/t16?,19-,23+,24?,26+/m1/s1
> <PUBCHEM_IUPAC_INCHIKEY>
UXNMKVIVZIYNQM-UVTGDQPGSA-N
> <PUBCHEM_XLOGP3_AA>
4.3
> <PUBCHEM_EXACT_MASS>
609.24619849
> <PUBCHEM_MOLECULAR_FORMULA>
C30H35F4N3O6
> <PUBCHEM_MOLECULAR_WEIGHT>
609.6
> <PUBCHEM_OPENEYE_CAN_SMILES>
CCC(C)C(C(=O)N1CC(CC1C(=O)NC(CC(F)F)C(=O)NCCC2=C(C=C(C=C2F)C(=O)O)F)C3=CC=CC=C3)O
> <PUBCHEM_OPENEYE_ISO_SMILES>
CCC(C)[C@@H](C(=O)N1C[C@@H](CC1C(=O)N[C@@H](CC(F)F)C(=O)NCCC2=C(C=C(C=C2F)C(=O)O)F)C3=CC=CC=C3)O
> <PUBCHEM_CACTVS_TPSA>
136
> <PUBCHEM_MONOISOTOPIC_WEIGHT>
609.24619849
> <PUBCHEM_TOTAL_CHARGE>
0
> <PUBCHEM_HEAVY_ATOM_COUNT>
43
> <PUBCHEM_ATOM_DEF_STEREO_COUNT>
3
> <PUBCHEM_ATOM_UDEF_STEREO_COUNT>
2
> <PUBCHEM_BOND_DEF_STEREO_COUNT>
0
> <PUBCHEM_BOND_UDEF_STEREO_COUNT>
0
> <PUBCHEM_ISOTOPIC_ATOM_COUNT>
0
> <PUBCHEM_COMPONENT_COUNT>
1
> <PUBCHEM_CACTVS_TAUTO_COUNT>
-1
> <PUBCHEM_COORDINATE_TYPE>
1
5
255
> <PUBCHEM_BONDANNOTATIONS>
25  12  6
14  18  5
15  20  3
18  23  8
18  24  8
22  27  3
23  28  8
24  29  8
28  31  8
29  31  8
37  38  8
37  39  8
38  40  8
39  41  8
40  42  8
41  42  8
21  6  5
$$$$
