507666
  -OEChem-10302200282D
 71 73  0     1  0  0  0  0  0999 V2000
    5.4641    3.8385    0.0000 F   0  0  0  0  0  0  0  0  0  0  0  0
    3.7320    3.8385    0.0000 F   0  0  0  0  0  0  0  0  0  0  0  0
    2.0000   -2.1615    0.0000 F   0  0  0  0  0  0  0  0  0  0  0  0
    5.4641   -2.1615    0.0000 F   0  0  0  0  0  0  0  0  0  0  0  0
    7.1962    0.8385    0.0000 O   0  0  0  0  0  0  0  0  0  0  0  0
    8.4405    0.2844    0.0000 O   0  0  0  0  0  0  0  0  0  0  0  0
    6.3301    0.3385    0.0000 O   0  0  0  0  0  0  0  0  0  0  0  0
   11.5016   -1.6208    0.0000 O   0  0  0  0  0  0  0  0  0  0  0  0
   12.0368    0.0265    0.0000 O   0  0  0  0  0  0  0  0  0  0  0  0
    2.8660   -5.6615    0.0000 O   0  0  0  0  0  0  0  0  0  0  0  0
    4.5981   -5.6615    0.0000 O   0  0  0  0  0  0  0  0  0  0  0  0
    8.9757    1.9317    0.0000 N   0  0  0  0  0  0  0  0  0  0  0  0
    6.3301    2.3385    0.0000 N   0  0  0  0  0  0  0  0  0  0  0  0
    4.5981    0.3385    0.0000 N   0  0  0  0  0  0  0  0  0  0  0  0
    9.1448    3.5409    0.0000 C   0  0  2  0  0  0  0  0  0  0  0  0
    8.0622    2.3385    0.0000 C   0  0  3  0  0  0  0  0  0  0  0  0
    8.1667    3.3330    0.0000 C   0  0  0  0  0  0  0  0  0  0  0  0
    9.6448    2.6749    0.0000 C   0  0  0  0  0  0  0  0  0  0  0  0
    9.5516    4.4544    0.0000 C   0  0  0  0  0  0  0  0  0  0  0  0
    7.1962    1.8385    0.0000 C   0  0  0  0  0  0  0  0  0  0  0  0
    9.1836    0.9536    0.0000 C   0  0  0  0  0  0  0  0  0  0  0  0
   10.1347    0.6446    0.0000 C   0  0  0  0  0  0  0  0  0  0  0  0
   10.5461    4.5590    0.0000 C   0  0  0  0  0  0  0  0  0  0  0  0
    8.9638    5.2635    0.0000 C   0  0  0  0  0  0  0  0  0  0  0  0
    5.4641    1.8385    0.0000 C   0  0  1  0  0  0  0  0  0  0  0  0
   10.3426   -0.3336    0.0000 C   0  0  0  0  0  0  0  0  0  0  0  0
    4.5981    2.3385    0.0000 C   0  0  0  0  0  0  0  0  0  0  0  0
   10.9528    5.4725    0.0000 C   0  0  0  0  0  0  0  0  0  0  0  0
    9.3705    6.1770    0.0000 C   0  0  0  0  0  0  0  0  0  0  0  0
   10.3651    6.2815    0.0000 C   0  0  0  0  0  0  0  0  0  0  0  0
    5.4641    0.8385    0.0000 C   0  0  0  0  0  0  0  0  0  0  0  0
    4.5981    3.3385    0.0000 C   0  0  0  0  0  0  0  0  0  0  0  0
   11.2937   -0.6426    0.0000 C   0  0  0  0  0  0  0  0  0  0  0  0
    4.5981   -0.6615    0.0000 C   0  0  0  0  0  0  0  0  0  0  0  0
    3.7320   -1.1615    0.0000 C   0  0  0  0  0  0  0  0  0  0  0  0
    3.7320   -2.1615    0.0000 C   0  0  0  0  0  0  0  0  0  0  0  0
    2.8660   -2.6615    0.0000 C   0  0  0  0  0  0  0  0  0  0  0  0
    4.5981   -2.6615    0.0000 C   0  0  0  0  0  0  0  0  0  0  0  0
    2.8660   -3.6615    0.0000 C   0  0  0  0  0  0  0  0  0  0  0  0
    4.5981   -3.6615    0.0000 C   0  0  0  0  0  0  0  0  0  0  0  0
    3.7320   -4.1615    0.0000 C   0  0  0  0  0  0  0  0  0  0  0  0
    3.7320   -5.1615    0.0000 C   0  0  0  0  0  0  0  0  0  0  0  0
    8.7547    4.0227    0.0000 H   0  0  0  0  0  0  0  0  0  0  0  0
    8.0946    1.7193    0.0000 H   0  0  0  0  0  0  0  0  0  0  0  0
    8.1019    3.9496    0.0000 H   0  0  0  0  0  0  0  0  0  0  0  0
    7.5467    3.3330    0.0000 H   0  0  0  0  0  0  0  0  0  0  0  0
   10.0597    2.2141    0.0000 H   0  0  0  0  0  0  0  0  0  0  0  0
   10.1464    3.0393    0.0000 H   0  0  0  0  0  0  0  0  0  0  0  0
    6.3301    2.9585    0.0000 H   0  0  0  0  0  0  0  0  0  0  0  0
   10.7543    0.6662    0.0000 H   0  0  0  0  0  0  0  0  0  0  0  0
   10.2210    1.2585    0.0000 H   0  0  0  0  0  0  0  0  0  0  0  0
   10.9105    4.0574    0.0000 H   0  0  0  0  0  0  0  0  0  0  0  0
    8.3472    5.1986    0.0000 H   0  0  0  0  0  0  0  0  0  0  0  0
    5.4641    2.4585    0.0000 H   0  0  0  0  0  0  0  0  0  0  0  0
    9.7230   -0.3552    0.0000 H   0  0  0  0  0  0  0  0  0  0  0  0
   10.2563   -0.9476    0.0000 H   0  0  0  0  0  0  0  0  0  0  0  0
    3.9875    2.4461    0.0000 H   0  0  0  0  0  0  0  0  0  0  0  0
    4.3860    1.7559    0.0000 H   0  0  0  0  0  0  0  0  0  0  0  0
   11.5695    5.5373    0.0000 H   0  0  0  0  0  0  0  0  0  0  0  0
    9.0061    6.6786    0.0000 H   0  0  0  0  0  0  0  0  0  0  0  0
   10.6172    6.8479    0.0000 H   0  0  0  0  0  0  0  0  0  0  0  0
    4.5981    3.9585    0.0000 H   0  0  0  0  0  0  0  0  0  0  0  0
    4.0611    0.6485    0.0000 H   0  0  0  0  0  0  0  0  0  0  0  0
    4.8101   -1.2441    0.0000 H   0  0  0  0  0  0  0  0  0  0  0  0
    5.2087   -0.5539    0.0000 H   0  0  0  0  0  0  0  0  0  0  0  0
    3.5200   -0.5789    0.0000 H   0  0  0  0  0  0  0  0  0  0  0  0
    3.1215   -1.2692    0.0000 H   0  0  0  0  0  0  0  0  0  0  0  0
   12.0912   -1.8123    0.0000 H   0  0  0  0  0  0  0  0  0  0  0  0
    2.3291   -3.9715    0.0000 H   0  0  0  0  0  0  0  0  0  0  0  0
    5.1350   -3.9715    0.0000 H   0  0  0  0  0  0  0  0  0  0  0  0
    2.8660   -6.2815    0.0000 H   0  0  0  0  0  0  0  0  0  0  0  0
  1 32  1  0  0  0  0
  2 32  1  0  0  0  0
  3 37  1  0  0  0  0
  4 38  1  0  0  0  0
  5 20  2  0  0  0  0
  6 21  2  0  0  0  0
  7 31  2  0  0  0  0
  8 33  1  0  0  0  0
  8 68  1  0  0  0  0
  9 33  2  0  0  0  0
 10 42  1  0  0  0  0
 10 71  1  0  0  0  0
 11 42  2  0  0  0  0
 12 16  1  0  0  0  0
 12 18  1  0  0  0  0
 12 21  1  0  0  0  0
 13 20  1  0  0  0  0
 25 13  1  6  0  0  0
 13 49  1  0  0  0  0
 14 31  1  0  0  0  0
 14 34  1  0  0  0  0
 14 63  1  0  0  0  0
 15 17  1  0  0  0  0
 15 18  1  0  0  0  0
 15 19  1  1  0  0  0
 15 43  1  0  0  0  0
 16 17  1  0  0  0  0
 16 20  1  0  0  0  0
 16 44  1  0  0  0  0
 17 45  1  0  0  0  0
 17 46  1  0  0  0  0
 18 47  1  0  0  0  0
 18 48  1  0  0  0  0
 19 23  2  0  0  0  0
 19 24  1  0  0  0  0
 21 22  1  0  0  0  0
 22 26  1  0  0  0  0
 22 50  1  0  0  0  0
 22 51  1  0  0  0  0
 23 28  1  0  0  0  0
 23 52  1  0  0  0  0
 24 29  2  0  0  0  0
 24 53  1  0  0  0  0
 25 27  1  0  0  0  0
 25 31  1  0  0  0  0
 25 54  1  0  0  0  0
 26 33  1  0  0  0  0
 26 55  1  0  0  0  0
 26 56  1  0  0  0  0
 27 32  1  0  0  0  0
 27 57  1  0  0  0  0
 27 58  1  0  0  0  0
 28 30  2  0  0  0  0
 28 59  1  0  0  0  0
 29 30  1  0  0  0  0
 29 60  1  0  0  0  0
 30 61  1  0  0  0  0
 32 62  1  0  0  0  0
 34 35  1  0  0  0  0
 34 64  1  0  0  0  0
 34 65  1  0  0  0  0
 35 36  1  0  0  0  0
 35 66  1  0  0  0  0
 35 67  1  0  0  0  0
 36 37  2  0  0  0  0
 36 38  1  0  0  0  0
 37 39  1  0  0  0  0
 38 40  2  0  0  0  0
 39 41  2  0  0  0  0
 39 69  1  0  0  0  0
 40 41  1  0  0  0  0
 40 70  1  0  0  0  0
 41 42  1  0  0  0  0
M  END
> <PUBCHEM_COMPOUND_CID>
507666
> <PUBCHEM_COMPOUND_CANONICALIZED>
1
> <PUBCHEM_CACTVS_COMPLEXITY>
969
> <PUBCHEM_CACTVS_HBOND_ACCEPTOR>
11
> <PUBCHEM_CACTVS_HBOND_DONOR>
4
> <PUBCHEM_CACTVS_ROTATABLE_BOND>
13
> <PUBCHEM_CACTVS_SUBSKEYS>
AAADceB7OcAAAAAAAAAAAAAAAAAAAWAAAAAwYAAAAAAAAAABQAAAHwAQCAAADSjBmBwwCIPAAgCIAiHSGAACAAAkAAAIiIGICMgIZjKAlTGUcQAk1gGImYe/yfCOwAAAAAAAAACAAAAAAAAAAAAAAAAAAA==
> <PUBCHEM_IUPAC_OPENEYE_NAME>
4-[2-[[(2S)-2-[[(4S)-1-(3-carboxypropanoyl)-4-phenyl-pyrrolidine-2-carbonyl]amino]-4,4-difluoro-butanoyl]amino]ethyl]-3,5-difluoro-benzoic acid
> <PUBCHEM_IUPAC_CAS_NAME>
4-[2-[[(2S)-2-[[[(4S)-1-(3-carboxy-1-oxopropyl)-4-phenyl-2-pyrrolidinyl]-oxomethyl]amino]-4,4-difluoro-1-oxobutyl]amino]ethyl]-3,5-difluorobenzoic acid
> <PUBCHEM_IUPAC_NAME_MARKUP>
4-[2-[[(2<I>S</I>)-2-[[(4<I>S</I>)-1-(3-carboxypropanoyl)-4-phenylpyrrolidine-2-carbonyl]amino]-4,4-difluorobutanoyl]amino]ethyl]-3,5-difluorobenzoic acid
> <PUBCHEM_IUPAC_NAME>
4-[2-[[(2S)-2-[[(4S)-1-(3-carboxypropanoyl)-4-phenylpyrrolidine-2-carbonyl]amino]-4,4-difluorobutanoyl]amino]ethyl]-3,5-difluorobenzoic acid
> <PUBCHEM_IUPAC_SYSTEMATIC_NAME>
4-[2-[[(2S)-4,4-bis(fluoranyl)-2-[[(4S)-1-(4-oxidanyl-4-oxidanylidene-butanoyl)-4-phenyl-pyrrolidin-2-yl]carbonylamino]butanoyl]amino]ethyl]-3,5-bis(fluoranyl)benzoic acid
> <PUBCHEM_IUPAC_TRADITIONAL_NAME>
4-[2-[[(2S)-2-[[(4S)-1-(3-carboxypropanoyl)-4-phenyl-prolyl]amino]-4,4-difluoro-butanoyl]amino]ethyl]-3,5-difluoro-benzoic acid
> <PUBCHEM_IUPAC_INCHI>
InChI=1S/C28H29F4N3O7/c29-19-10-16(28(41)42)11-20(30)18(19)8-9-33-26(39)21(13-23(31)32)34-27(40)22-12-17(15-4-2-1-3-5-15)14-35(22)24(36)6-7-25(37)38/h1-5,10-11,17,21-23H,6-9,12-14H2,(H,33,39)(H,34,40)(H,37,38)(H,41,42)/t17-,21+,22?/m1/s1
> <PUBCHEM_IUPAC_INCHIKEY>
ZVTHGEXMFIQAQM-HWWMDGIVSA-N
> <PUBCHEM_XLOGP3_AA>
2.7
> <PUBCHEM_EXACT_MASS>
595.19416292
> <PUBCHEM_MOLECULAR_FORMULA>
C28H29F4N3O7
> <PUBCHEM_MOLECULAR_WEIGHT>
595.5
> <PUBCHEM_OPENEYE_CAN_SMILES>
C1C(CN(C1C(=O)NC(CC(F)F)C(=O)NCCC2=C(C=C(C=C2F)C(=O)O)F)C(=O)CCC(=O)O)C3=CC=CC=C3
> <PUBCHEM_OPENEYE_ISO_SMILES>
C1[C@H](CN(C1C(=O)N[C@@H](CC(F)F)C(=O)NCCC2=C(C=C(C=C2F)C(=O)O)F)C(=O)CCC(=O)O)C3=CC=CC=C3
> <PUBCHEM_CACTVS_TPSA>
153
> <PUBCHEM_MONOISOTOPIC_WEIGHT>
595.19416292
> <PUBCHEM_TOTAL_CHARGE>
0
> <PUBCHEM_HEAVY_ATOM_COUNT>
42
> <PUBCHEM_ATOM_DEF_STEREO_COUNT>
2
> <PUBCHEM_ATOM_UDEF_STEREO_COUNT>
1
> <PUBCHEM_BOND_DEF_STEREO_COUNT>
0
> <PUBCHEM_BOND_UDEF_STEREO_COUNT>
0
> <PUBCHEM_ISOTOPIC_ATOM_COUNT>
0
> <PUBCHEM_COMPONENT_COUNT>
1
> <PUBCHEM_CACTVS_TAUTO_COUNT>
-1
> <PUBCHEM_COORDINATE_TYPE>
1
5
255
> <PUBCHEM_BONDANNOTATIONS>
25  13  6
15  19  5
16  20  3
19  23  8
19  24  8
23  28  8
24  29  8
28  30  8
29  30  8
36  37  8
36  38  8
37  39  8
38  40  8
39  41  8
40  41  8
$$$$
