507689
  -OEChem-10302200282D
 79 80  0     1  0  0  0  0  0999 V2000
    5.4641    3.7339    0.0000 F   0  0  0  0  0  0  0  0  0  0  0  0
    3.7320    3.7339    0.0000 F   0  0  0  0  0  0  0  0  0  0  0  0
    5.4641   -2.2661    0.0000 F   0  0  0  0  0  0  0  0  0  0  0  0
    2.0000   -2.2661    0.0000 F   0  0  0  0  0  0  0  0  0  0  0  0
    9.5516    4.3499    0.0000 O   0  0  0  0  0  0  0  0  0  0  0  0
    7.1962    0.7339    0.0000 O   0  0  0  0  0  0  0  0  0  0  0  0
    8.4405    0.1799    0.0000 O   0  0  0  0  0  0  0  0  0  0  0  0
   10.8778    1.2092    0.0000 O   0  0  0  0  0  0  0  0  0  0  0  0
    6.3301    0.2339    0.0000 O   0  0  0  0  0  0  0  0  0  0  0  0
    2.8660   -5.7661    0.0000 O   0  0  0  0  0  0  0  0  0  0  0  0
    4.5981   -5.7661    0.0000 O   0  0  0  0  0  0  0  0  0  0  0  0
    8.9757    1.8272    0.0000 N   0  0  0  0  0  0  0  0  0  0  0  0
    6.3301    2.2339    0.0000 N   0  0  0  0  0  0  0  0  0  0  0  0
    4.5981    0.2339    0.0000 N   0  0  0  0  0  0  0  0  0  0  0  0
    8.0622    2.2339    0.0000 C   0  0  3  0  0  0  0  0  0  0  0  0
    9.1448    3.4364    0.0000 C   0  0  2  0  0  0  0  0  0  0  0  0
    8.1667    3.2285    0.0000 C   0  0  0  0  0  0  0  0  0  0  0  0
    9.6448    2.5703    0.0000 C   0  0  0  0  0  0  0  0  0  0  0  0
    7.1962    1.7339    0.0000 C   0  0  0  0  0  0  0  0  0  0  0  0
    9.1836    0.8491    0.0000 C   0  0  0  0  0  0  0  0  0  0  0  0
   10.1347    0.5400    0.0000 C   0  0  2  0  0  0  0  0  0  0  0  0
   10.3426   -0.4381    0.0000 C   0  0  0  0  0  0  0  0  0  0  0  0
    5.4641    1.7339    0.0000 C   0  0  1  0  0  0  0  0  0  0  0  0
   10.5461    4.4544    0.0000 C   0  0  0  0  0  0  0  0  0  0  0  0
   11.2937   -0.7471    0.0000 C   0  0  0  0  0  0  0  0  0  0  0  0
    9.5995   -1.1072    0.0000 C   0  0  0  0  0  0  0  0  0  0  0  0
    4.5981    2.2339    0.0000 C   0  0  0  0  0  0  0  0  0  0  0  0
    5.4641    0.7339    0.0000 C   0  0  0  0  0  0  0  0  0  0  0  0
   10.9528    5.3680    0.0000 C   0  0  0  0  0  0  0  0  0  0  0  0
    4.5981    3.2339    0.0000 C   0  0  0  0  0  0  0  0  0  0  0  0
   11.9474    5.4725    0.0000 C   0  0  0  0  0  0  0  0  0  0  0  0
    4.5981   -0.7661    0.0000 C   0  0  0  0  0  0  0  0  0  0  0  0
    3.7320   -1.2661    0.0000 C   0  0  0  0  0  0  0  0  0  0  0  0
   12.3541    6.3861    0.0000 C   0  0  0  0  0  0  0  0  0  0  0  0
   12.5352    4.6635    0.0000 C   0  0  0  0  0  0  0  0  0  0  0  0
    3.7320   -2.2661    0.0000 C   0  0  0  0  0  0  0  0  0  0  0  0
    4.5981   -2.7661    0.0000 C   0  0  0  0  0  0  0  0  0  0  0  0
    2.8660   -2.7661    0.0000 C   0  0  0  0  0  0  0  0  0  0  0  0
    4.5981   -3.7661    0.0000 C   0  0  0  0  0  0  0  0  0  0  0  0
    2.8660   -3.7661    0.0000 C   0  0  0  0  0  0  0  0  0  0  0  0
    3.7320   -4.2661    0.0000 C   0  0  0  0  0  0  0  0  0  0  0  0
    3.7320   -5.2661    0.0000 C   0  0  0  0  0  0  0  0  0  0  0  0
    8.0946    1.6148    0.0000 H   0  0  0  0  0  0  0  0  0  0  0  0
    8.7547    3.9182    0.0000 H   0  0  0  0  0  0  0  0  0  0  0  0
    8.1019    3.8451    0.0000 H   0  0  0  0  0  0  0  0  0  0  0  0
    7.5467    3.2285    0.0000 H   0  0  0  0  0  0  0  0  0  0  0  0
   10.0597    2.1096    0.0000 H   0  0  0  0  0  0  0  0  0  0  0  0
   10.1464    2.9348    0.0000 H   0  0  0  0  0  0  0  0  0  0  0  0
   10.7243    0.3484    0.0000 H   0  0  0  0  0  0  0  0  0  0  0  0
    9.7530   -0.2465    0.0000 H   0  0  0  0  0  0  0  0  0  0  0  0
    6.3301    2.8539    0.0000 H   0  0  0  0  0  0  0  0  0  0  0  0
    5.4641    2.3539    0.0000 H   0  0  0  0  0  0  0  0  0  0  0  0
   10.5029    3.8360    0.0000 H   0  0  0  0  0  0  0  0  0  0  0  0
   11.1477    4.3044    0.0000 H   0  0  0  0  0  0  0  0  0  0  0  0
   11.1021   -1.3368    0.0000 H   0  0  0  0  0  0  0  0  0  0  0  0
   11.8833   -0.9387    0.0000 H   0  0  0  0  0  0  0  0  0  0  0  0
   11.4853   -0.1575    0.0000 H   0  0  0  0  0  0  0  0  0  0  0  0
    9.1846   -0.6465    0.0000 H   0  0  0  0  0  0  0  0  0  0  0  0
    9.1387   -1.5221    0.0000 H   0  0  0  0  0  0  0  0  0  0  0  0
   10.0143   -1.5680    0.0000 H   0  0  0  0  0  0  0  0  0  0  0  0
    3.9875    2.3416    0.0000 H   0  0  0  0  0  0  0  0  0  0  0  0
    4.3860    1.6513    0.0000 H   0  0  0  0  0  0  0  0  0  0  0  0
   11.4675    1.0176    0.0000 H   0  0  0  0  0  0  0  0  0  0  0  0
   10.5884    5.8696    0.0000 H   0  0  0  0  0  0  0  0  0  0  0  0
    4.5981    3.8539    0.0000 H   0  0  0  0  0  0  0  0  0  0  0  0
    4.0611    0.5439    0.0000 H   0  0  0  0  0  0  0  0  0  0  0  0
    4.8101   -1.3487    0.0000 H   0  0  0  0  0  0  0  0  0  0  0  0
    5.2087   -0.6584    0.0000 H   0  0  0  0  0  0  0  0  0  0  0  0
    3.5200   -0.6835    0.0000 H   0  0  0  0  0  0  0  0  0  0  0  0
    3.1215   -1.3737    0.0000 H   0  0  0  0  0  0  0  0  0  0  0  0
   12.9205    6.1339    0.0000 H   0  0  0  0  0  0  0  0  0  0  0  0
   12.6063    6.9525    0.0000 H   0  0  0  0  0  0  0  0  0  0  0  0
   11.7877    6.6382    0.0000 H   0  0  0  0  0  0  0  0  0  0  0  0
   12.0336    4.2991    0.0000 H   0  0  0  0  0  0  0  0  0  0  0  0
   12.8996    4.1619    0.0000 H   0  0  0  0  0  0  0  0  0  0  0  0
   13.0367    5.0279    0.0000 H   0  0  0  0  0  0  0  0  0  0  0  0
    5.1350   -4.0761    0.0000 H   0  0  0  0  0  0  0  0  0  0  0  0
    2.3291   -4.0761    0.0000 H   0  0  0  0  0  0  0  0  0  0  0  0
    2.8660   -6.3861    0.0000 H   0  0  0  0  0  0  0  0  0  0  0  0
  1 30  1  0  0  0  0
  2 30  1  0  0  0  0
  3 37  1  0  0  0  0
  4 38  1  0  0  0  0
 16  5  1  1  0  0  0
  5 24  1  0  0  0  0
  6 19  2  0  0  0  0
  7 20  2  0  0  0  0
 21  8  1  1  0  0  0
  8 63  1  0  0  0  0
  9 28  2  0  0  0  0
 10 42  1  0  0  0  0
 10 79  1  0  0  0  0
 11 42  2  0  0  0  0
 12 15  1  0  0  0  0
 12 18  1  0  0  0  0
 12 20  1  0  0  0  0
 13 19  1  0  0  0  0
 23 13  1  6  0  0  0
 13 51  1  0  0  0  0
 14 28  1  0  0  0  0
 14 32  1  0  0  0  0
 14 66  1  0  0  0  0
 15 17  1  0  0  0  0
 15 19  1  0  0  0  0
 15 43  1  0  0  0  0
 16 17  1  0  0  0  0
 16 18  1  0  0  0  0
 16 44  1  0  0  0  0
 17 45  1  0  0  0  0
 17 46  1  0  0  0  0
 18 47  1  0  0  0  0
 18 48  1  0  0  0  0
 20 21  1  0  0  0  0
 21 22  1  0  0  0  0
 21 49  1  0  0  0  0
 22 25  1  0  0  0  0
 22 26  1  0  0  0  0
 22 50  1  0  0  0  0
 23 27  1  0  0  0  0
 23 28  1  0  0  0  0
 23 52  1  0  0  0  0
 24 29  1  0  0  0  0
 24 53  1  0  0  0  0
 24 54  1  0  0  0  0
 25 55  1  0  0  0  0
 25 56  1  0  0  0  0
 25 57  1  0  0  0  0
 26 58  1  0  0  0  0
 26 59  1  0  0  0  0
 26 60  1  0  0  0  0
 27 30  1  0  0  0  0
 27 61  1  0  0  0  0
 27 62  1  0  0  0  0
 29 31  2  0  0  0  0
 29 64  1  0  0  0  0
 30 65  1  0  0  0  0
 31 34  1  0  0  0  0
 31 35  1  0  0  0  0
 32 33  1  0  0  0  0
 32 67  1  0  0  0  0
 32 68  1  0  0  0  0
 33 36  1  0  0  0  0
 33 69  1  0  0  0  0
 33 70  1  0  0  0  0
 34 71  1  0  0  0  0
 34 72  1  0  0  0  0
 34 73  1  0  0  0  0
 35 74  1  0  0  0  0
 35 75  1  0  0  0  0
 35 76  1  0  0  0  0
 36 37  2  0  0  0  0
 36 38  1  0  0  0  0
 37 39  1  0  0  0  0
 38 40  2  0  0  0  0
 39 41  2  0  0  0  0
 39 77  1  0  0  0  0
 40 41  1  0  0  0  0
 40 78  1  0  0  0  0
 41 42  1  0  0  0  0
M  END
> <PUBCHEM_COMPOUND_CID>
507689
> <PUBCHEM_COMPOUND_CANONICALIZED>
1
> <PUBCHEM_CACTVS_COMPLEXITY>
967
> <PUBCHEM_CACTVS_HBOND_ACCEPTOR>
11
> <PUBCHEM_CACTVS_HBOND_DONOR>
4
> <PUBCHEM_CACTVS_ROTATABLE_BOND>
14
> <PUBCHEM_CACTVS_SUBSKEYS>
AAADcfB7OcAAAAAAAAAAAAAAAAAAAWAAAAAwAAAAAAAAAAABAAAAHwAQCAAADTzhmB4yCIPABgCIAiHSGAICAAAkAAAAiIHICMgKdjKAtTGXcQAm1gGYuYe6yfCOQAAAAAAAAACAAAAAAAAAAAAAAAAAAA==
> <PUBCHEM_IUPAC_OPENEYE_NAME>
4-[2-[[(2S)-4,4-difluoro-2-[[(4R)-1-[(2S)-2-hydroxy-3-methyl-butanoyl]-4-(3-methylbut-2-enoxy)pyrrolidine-2-carbonyl]amino]butanoyl]amino]ethyl]-3,5-difluoro-benzoic acid
> <PUBCHEM_IUPAC_CAS_NAME>
4-[2-[[(2S)-4,4-difluoro-2-[[[(4R)-1-[(2S)-2-hydroxy-3-methyl-1-oxobutyl]-4-(3-methylbut-2-enoxy)-2-pyrrolidinyl]-oxomethyl]amino]-1-oxobutyl]amino]ethyl]-3,5-difluorobenzoic acid
> <PUBCHEM_IUPAC_NAME_MARKUP>
4-[2-[[(2<I>S</I>)-4,4-difluoro-2-[[(4<I>R</I>)-1-[(2<I>S</I>)-2-hydroxy-3-methylbutanoyl]-4-(3-methylbut-2-enoxy)pyrrolidine-2-carbonyl]amino]butanoyl]amino]ethyl]-3,5-difluorobenzoic acid
> <PUBCHEM_IUPAC_NAME>
4-[2-[[(2S)-4,4-difluoro-2-[[(4R)-1-[(2S)-2-hydroxy-3-methylbutanoyl]-4-(3-methylbut-2-enoxy)pyrrolidine-2-carbonyl]amino]butanoyl]amino]ethyl]-3,5-difluorobenzoic acid
> <PUBCHEM_IUPAC_SYSTEMATIC_NAME>
4-[2-[[(2S)-4,4-bis(fluoranyl)-2-[[(4R)-4-(3-methylbut-2-enoxy)-1-[(2S)-3-methyl-2-oxidanyl-butanoyl]pyrrolidin-2-yl]carbonylamino]butanoyl]amino]ethyl]-3,5-bis(fluoranyl)benzoic acid
> <PUBCHEM_IUPAC_TRADITIONAL_NAME>
4-[2-[[(2S)-4,4-difluoro-2-[[(4R)-1-[(2S)-2-hydroxy-3-methyl-butanoyl]-4-(3-methylbut-2-enoxy)prolyl]amino]butanoyl]amino]ethyl]-3,5-difluoro-benzoic acid
> <PUBCHEM_IUPAC_INCHI>
InChI=1S/C28H37F4N3O7/c1-14(2)6-8-42-17-11-22(35(13-17)27(39)24(36)15(3)4)26(38)34-21(12-23(31)32)25(37)33-7-5-18-19(29)9-16(28(40)41)10-20(18)30/h6,9-10,15,17,21-24,36H,5,7-8,11-13H2,1-4H3,(H,33,37)(H,34,38)(H,40,41)/t17-,21+,22?,24+/m1/s1
> <PUBCHEM_IUPAC_INCHIKEY>
SMEPDHUNTHLKRJ-PTZLVZROSA-N
> <PUBCHEM_XLOGP3_AA>
3.6
> <PUBCHEM_EXACT_MASS>
603.25676318
> <PUBCHEM_MOLECULAR_FORMULA>
C28H37F4N3O7
> <PUBCHEM_MOLECULAR_WEIGHT>
603.6
> <PUBCHEM_OPENEYE_CAN_SMILES>
CC(C)C(C(=O)N1CC(CC1C(=O)NC(CC(F)F)C(=O)NCCC2=C(C=C(C=C2F)C(=O)O)F)OCC=C(C)C)O
> <PUBCHEM_OPENEYE_ISO_SMILES>
CC(C)[C@@H](C(=O)N1C[C@@H](CC1C(=O)N[C@@H](CC(F)F)C(=O)NCCC2=C(C=C(C=C2F)C(=O)O)F)OCC=C(C)C)O
> <PUBCHEM_CACTVS_TPSA>
145
> <PUBCHEM_MONOISOTOPIC_WEIGHT>
603.25676318
> <PUBCHEM_TOTAL_CHARGE>
0
> <PUBCHEM_HEAVY_ATOM_COUNT>
42
> <PUBCHEM_ATOM_DEF_STEREO_COUNT>
3
> <PUBCHEM_ATOM_UDEF_STEREO_COUNT>
1
> <PUBCHEM_BOND_DEF_STEREO_COUNT>
0
> <PUBCHEM_BOND_UDEF_STEREO_COUNT>
0
> <PUBCHEM_ISOTOPIC_ATOM_COUNT>
0
> <PUBCHEM_COMPONENT_COUNT>
1
> <PUBCHEM_CACTVS_TAUTO_COUNT>
-1
> <PUBCHEM_COORDINATE_TYPE>
1
5
255
> <PUBCHEM_BONDANNOTATIONS>
23  13  6
15  19  3
36  37  8
36  38  8
37  39  8
38  40  8
39  41  8
40  41  8
16  5  5
21  8  5
$$$$
