507644
  -OEChem-10302200282D
 99102  0     1  0  0  0  0  0999 V2000
   10.1475   -4.2987    0.0000 F   0  0  0  0  0  0  0  0  0  0  0  0
   11.8795   -4.2987    0.0000 F   0  0  0  0  0  0  0  0  0  0  0  0
   10.1475    1.7013    0.0000 F   0  0  0  0  0  0  0  0  0  0  0  0
   13.6116    1.7013    0.0000 F   0  0  0  0  0  0  0  0  0  0  0  0
    7.1711   -0.7447    0.0000 O   0  0  0  0  0  0  0  0  0  0  0  0
    8.4154   -1.2987    0.0000 O   0  0  0  0  0  0  0  0  0  0  0  0
    4.1100    1.1605    0.0000 O   0  0  0  0  0  0  0  0  0  0  0  0
    9.2815   -0.7987    0.0000 O   0  0  0  0  0  0  0  0  0  0  0  0
    3.5748   -0.4867    0.0000 O   0  0  0  0  0  0  0  0  0  0  0  0
    6.6359   -2.3919    0.0000 N   0  0  0  0  0  0  0  0  0  0  0  0
    9.2815   -2.7987    0.0000 N   0  0  0  0  0  0  0  0  0  0  0  0
    5.2690   -0.1266    0.0000 N   0  0  0  0  0  0  0  0  0  0  0  0
   11.0135   -0.7987    0.0000 N   0  0  0  0  0  0  0  0  0  0  0  0
   11.0705    5.2891    0.0000 N   0  0  0  0  0  0  0  0  0  0  0  0
   12.6886    5.2891    0.0000 N   0  0  0  0  0  0  0  0  0  0  0  0
   11.3795    6.2402    0.0000 N   0  0  0  0  0  0  0  0  0  0  0  0
   12.3795    6.2402    0.0000 N   0  0  0  0  0  0  0  0  0  0  0  0
    6.4667   -4.0011    0.0000 C   0  0  2  0  0  0  0  0  0  0  0  0
    6.0600   -4.9147    0.0000 C   0  0  0  0  0  0  0  0  0  0  0  0
    7.4449   -3.7932    0.0000 C   0  0  0  0  0  0  0  0  0  0  0  0
    5.9667   -3.1351    0.0000 C   0  0  0  0  0  0  0  0  0  0  0  0
    7.5494   -2.7987    0.0000 C   0  0  1  0  0  0  0  0  0  0  0  0
    6.6478   -5.7237    0.0000 C   0  0  0  0  0  0  0  0  0  0  0  0
    5.0655   -5.0192    0.0000 C   0  0  0  0  0  0  0  0  0  0  0  0
    6.2411   -6.6372    0.0000 C   0  0  0  0  0  0  0  0  0  0  0  0
    4.6588   -5.9327    0.0000 C   0  0  0  0  0  0  0  0  0  0  0  0
    5.2465   -6.7418    0.0000 C   0  0  0  0  0  0  0  0  0  0  0  0
    6.4280   -1.4138    0.0000 C   0  0  0  0  0  0  0  0  0  0  0  0
    8.4154   -2.2987    0.0000 C   0  0  0  0  0  0  0  0  0  0  0  0
    5.4769   -1.1048    0.0000 C   0  0  2  0  0  0  0  0  0  0  0  0
    4.7338   -1.7739    0.0000 C   0  0  0  0  0  0  0  0  0  0  0  0
   10.1475   -2.2987    0.0000 C   0  0  1  0  0  0  0  0  0  0  0  0
    3.7827   -1.4649    0.0000 C   0  0  0  0  0  0  0  0  0  0  0  0
    4.9417   -2.7521    0.0000 C   0  0  0  0  0  0  0  0  0  0  0  0
   11.0135   -2.7987    0.0000 C   0  0  0  0  0  0  0  0  0  0  0  0
   10.1475   -1.2987    0.0000 C   0  0  0  0  0  0  0  0  0  0  0  0
    4.3179    0.1824    0.0000 C   0  0  0  0  0  0  0  0  0  0  0  0
   11.0135   -3.7987    0.0000 C   0  0  0  0  0  0  0  0  0  0  0  0
   11.0135    0.2013    0.0000 C   0  0  0  0  0  0  0  0  0  0  0  0
    3.1590    1.4696    0.0000 C   0  0  0  0  0  0  0  0  0  0  0  0
   11.8795    0.7013    0.0000 C   0  0  0  0  0  0  0  0  0  0  0  0
    2.9511    2.4477    0.0000 C   0  0  0  0  0  0  0  0  0  0  0  0
   11.8795    1.7013    0.0000 C   0  0  0  0  0  0  0  0  0  0  0  0
    2.0000    2.7567    0.0000 C   0  0  0  0  0  0  0  0  0  0  0  0
    3.6942    3.1168    0.0000 C   0  0  0  0  0  0  0  0  0  0  0  0
   11.0135    2.2013    0.0000 C   0  0  0  0  0  0  0  0  0  0  0  0
   12.7456    2.2013    0.0000 C   0  0  0  0  0  0  0  0  0  0  0  0
   11.0135    3.2013    0.0000 C   0  0  0  0  0  0  0  0  0  0  0  0
   12.7456    3.2013    0.0000 C   0  0  0  0  0  0  0  0  0  0  0  0
   11.8795    3.7013    0.0000 C   0  0  0  0  0  0  0  0  0  0  0  0
   11.8795    4.7013    0.0000 C   0  0  0  0  0  0  0  0  0  0  0  0
    5.6179   -4.0456    0.0000 H   0  0  0  0  0  0  0  0  0  0  0  0
    6.6766   -4.8498    0.0000 H   0  0  0  0  0  0  0  0  0  0  0  0
    7.5097   -4.4098    0.0000 H   0  0  0  0  0  0  0  0  0  0  0  0
    8.0649   -3.7932    0.0000 H   0  0  0  0  0  0  0  0  0  0  0  0
    5.5519   -2.6743    0.0000 H   0  0  0  0  0  0  0  0  0  0  0  0
    5.4652   -3.4995    0.0000 H   0  0  0  0  0  0  0  0  0  0  0  0
    7.5170   -2.1795    0.0000 H   0  0  0  0  0  0  0  0  0  0  0  0
    7.1618   -6.0704    0.0000 H   0  0  0  0  0  0  0  0  0  0  0  0
    7.0785   -5.2777    0.0000 H   0  0  0  0  0  0  0  0  0  0  0  0
    5.1087   -4.4007    0.0000 H   0  0  0  0  0  0  0  0  0  0  0  0
    4.4639   -4.8692    0.0000 H   0  0  0  0  0  0  0  0  0  0  0  0
    6.1978   -7.2557    0.0000 H   0  0  0  0  0  0  0  0  0  0  0  0
    6.8426   -6.7872    0.0000 H   0  0  0  0  0  0  0  0  0  0  0  0
    4.1447   -5.5860    0.0000 H   0  0  0  0  0  0  0  0  0  0  0  0
    4.2281   -6.3787    0.0000 H   0  0  0  0  0  0  0  0  0  0  0  0
    4.6893   -7.0135    0.0000 H   0  0  0  0  0  0  0  0  0  0  0  0
    5.4174   -7.3377    0.0000 H   0  0  0  0  0  0  0  0  0  0  0  0
    4.8872   -0.9132    0.0000 H   0  0  0  0  0  0  0  0  0  0  0  0
    9.2815   -3.4187    0.0000 H   0  0  0  0  0  0  0  0  0  0  0  0
    5.3234   -1.9655    0.0000 H   0  0  0  0  0  0  0  0  0  0  0  0
    9.6106   -1.9887    0.0000 H   0  0  0  0  0  0  0  0  0  0  0  0
    5.7297    0.2882    0.0000 H   0  0  0  0  0  0  0  0  0  0  0  0
    3.9743   -0.8752    0.0000 H   0  0  0  0  0  0  0  0  0  0  0  0
    3.1930   -1.2733    0.0000 H   0  0  0  0  0  0  0  0  0  0  0  0
    3.5911   -2.0546    0.0000 H   0  0  0  0  0  0  0  0  0  0  0  0
    4.3352   -2.8810    0.0000 H   0  0  0  0  0  0  0  0  0  0  0  0
    5.0706   -3.3585    0.0000 H   0  0  0  0  0  0  0  0  0  0  0  0
    5.5481   -2.6232    0.0000 H   0  0  0  0  0  0  0  0  0  0  0  0
   11.6241   -2.9063    0.0000 H   0  0  0  0  0  0  0  0  0  0  0  0
   11.2256   -2.2161    0.0000 H   0  0  0  0  0  0  0  0  0  0  0  0
   11.5505   -3.4887    0.0000 H   0  0  0  0  0  0  0  0  0  0  0  0
   11.5505   -1.1087    0.0000 H   0  0  0  0  0  0  0  0  0  0  0  0
   10.8015    0.7839    0.0000 H   0  0  0  0  0  0  0  0  0  0  0  0
   10.4029    0.0937    0.0000 H   0  0  0  0  0  0  0  0  0  0  0  0
    2.5394    1.4479    0.0000 H   0  0  0  0  0  0  0  0  0  0  0  0
    3.0727    0.8556    0.0000 H   0  0  0  0  0  0  0  0  0  0  0  0
   12.0916    0.1187    0.0000 H   0  0  0  0  0  0  0  0  0  0  0  0
   12.4901    0.8090    0.0000 H   0  0  0  0  0  0  0  0  0  0  0  0
    2.8222    3.0542    0.0000 H   0  0  0  0  0  0  0  0  0  0  0  0
    2.1916    3.3464    0.0000 H   0  0  0  0  0  0  0  0  0  0  0  0
    1.4103    2.9483    0.0000 H   0  0  0  0  0  0  0  0  0  0  0  0
    1.8084    2.1671    0.0000 H   0  0  0  0  0  0  0  0  0  0  0  0
    4.1091    2.6561    0.0000 H   0  0  0  0  0  0  0  0  0  0  0  0
    4.1550    3.5317    0.0000 H   0  0  0  0  0  0  0  0  0  0  0  0
    3.2793    3.5776    0.0000 H   0  0  0  0  0  0  0  0  0  0  0  0
   10.4766    3.5113    0.0000 H   0  0  0  0  0  0  0  0  0  0  0  0
   13.2825    3.5113    0.0000 H   0  0  0  0  0  0  0  0  0  0  0  0
   11.0151    6.7418    0.0000 H   0  0  0  0  0  0  0  0  0  0  0  0
  1 38  1  0  0  0  0
  2 38  1  0  0  0  0
  3 46  1  0  0  0  0
  4 47  1  0  0  0  0
  5 28  2  0  0  0  0
  6 29  2  0  0  0  0
  7 37  1  0  0  0  0
  7 40  1  0  0  0  0
  8 36  2  0  0  0  0
  9 37  2  0  0  0  0
 10 21  1  0  0  0  0
 10 22  1  0  0  0  0
 10 28  1  0  0  0  0
 11 29  1  0  0  0  0
 32 11  1  6  0  0  0
 11 70  1  0  0  0  0
 30 12  1  6  0  0  0
 12 37  1  0  0  0  0
 12 73  1  0  0  0  0
 13 36  1  0  0  0  0
 13 39  1  0  0  0  0
 13 83  1  0  0  0  0
 14 16  1  0  0  0  0
 14 51  2  0  0  0  0
 15 17  2  0  0  0  0
 15 51  1  0  0  0  0
 16 17  1  0  0  0  0
 16 99  1  0  0  0  0
 18 19  1  0  0  0  0
 18 20  1  0  0  0  0
 18 21  1  0  0  0  0
 18 52  1  6  0  0  0
 19 23  1  0  0  0  0
 19 24  1  0  0  0  0
 19 53  1  0  0  0  0
 20 22  1  0  0  0  0
 20 54  1  0  0  0  0
 20 55  1  0  0  0  0
 21 56  1  0  0  0  0
 21 57  1  0  0  0  0
 22 29  1  6  0  0  0
 22 58  1  0  0  0  0
 23 25  1  0  0  0  0
 23 59  1  0  0  0  0
 23 60  1  0  0  0  0
 24 26  1  0  0  0  0
 24 61  1  0  0  0  0
 24 62  1  0  0  0  0
 25 27  1  0  0  0  0
 25 63  1  0  0  0  0
 25 64  1  0  0  0  0
 26 27  1  0  0  0  0
 26 65  1  0  0  0  0
 26 66  1  0  0  0  0
 27 67  1  0  0  0  0
 27 68  1  0  0  0  0
 28 30  1  0  0  0  0
 30 31  1  0  0  0  0
 30 69  1  0  0  0  0
 31 33  1  0  0  0  0
 31 34  1  0  0  0  0
 31 71  1  0  0  0  0
 32 35  1  0  0  0  0
 32 36  1  0  0  0  0
 32 72  1  0  0  0  0
 33 74  1  0  0  0  0
 33 75  1  0  0  0  0
 33 76  1  0  0  0  0
 34 77  1  0  0  0  0
 34 78  1  0  0  0  0
 34 79  1  0  0  0  0
 35 38  1  0  0  0  0
 35 80  1  0  0  0  0
 35 81  1  0  0  0  0
 38 82  1  0  0  0  0
 39 41  1  0  0  0  0
 39 84  1  0  0  0  0
 39 85  1  0  0  0  0
 40 42  1  0  0  0  0
 40 86  1  0  0  0  0
 40 87  1  0  0  0  0
 41 43  1  0  0  0  0
 41 88  1  0  0  0  0
 41 89  1  0  0  0  0
 42 44  1  0  0  0  0
 42 45  1  0  0  0  0
 42 90  1  0  0  0  0
 43 46  2  0  0  0  0
 43 47  1  0  0  0  0
 44 91  1  0  0  0  0
 44 92  1  0  0  0  0
 44 93  1  0  0  0  0
 45 94  1  0  0  0  0
 45 95  1  0  0  0  0
 45 96  1  0  0  0  0
 46 48  1  0  0  0  0
 47 49  2  0  0  0  0
 48 50  2  0  0  0  0
 48 97  1  0  0  0  0
 49 50  1  0  0  0  0
 49 98  1  0  0  0  0
 50 51  1  0  0  0  0
M  END
> <PUBCHEM_COMPOUND_CID>
507644
> <PUBCHEM_COMPOUND_CANONICALIZED>
1
> <PUBCHEM_CACTVS_COMPLEXITY>
1150
> <PUBCHEM_CACTVS_HBOND_ACCEPTOR>
12
> <PUBCHEM_CACTVS_HBOND_DONOR>
4
> <PUBCHEM_CACTVS_ROTATABLE_BOND>
16
> <PUBCHEM_CACTVS_SUBSKEYS>
AAADcfB/+cAAAAAAAAAAAAAAAAAAAWLAAAAwYAAAAAAAAAABwAAAHwAYAAAADSjhmx4zGIfCBACqAiNyOACCAAIgAAAUqKGoBJkIYLKAkTGcIABglgCIiAcYicCOwAAAAAAAAACAAAAAAAAAAAAAAAAAAA==
> <PUBCHEM_IUPAC_OPENEYE_NAME>
isobutyl N-[(1S)-1-[(2S,4S)-4-cyclohexyl-2-[[(1S)-1-[2-[2,6-difluoro-4-(2H-tetrazol-5-yl)phenyl]ethylcarbamoyl]-3,3-difluoro-propyl]carbamoyl]pyrrolidine-1-carbonyl]-2-methyl-propyl]carbamate
> <PUBCHEM_IUPAC_CAS_NAME>
N-[(2S)-1-[(2S,4S)-4-cyclohexyl-2-[[[(2S)-1-[2-[2,6-difluoro-4-(2H-tetrazol-5-yl)phenyl]ethylamino]-4,4-difluoro-1-oxobutan-2-yl]amino]-oxomethyl]-1-pyrrolidinyl]-3-methyl-1-oxobutan-2-yl]carbamic acid 2-methylpropyl ester
> <PUBCHEM_IUPAC_NAME_MARKUP>
2-methylpropyl <I>N</I>-[(2<I>S</I>)-1-[(2<I>S</I>,4<I>S</I>)-4-cyclohexyl-2-[[(2<I>S</I>)-1-[2-[2,6-difluoro-4-(2<I>H</I>-tetrazol-5-yl)phenyl]ethylamino]-4,4-difluoro-1-oxobutan-2-yl]carbamoyl]pyrrolidin-1-yl]-3-methyl-1-oxobutan-2-yl]carbamate
> <PUBCHEM_IUPAC_NAME>
2-methylpropyl N-[(2S)-1-[(2S,4S)-4-cyclohexyl-2-[[(2S)-1-[2-[2,6-difluoro-4-(2H-tetrazol-5-yl)phenyl]ethylamino]-4,4-difluoro-1-oxobutan-2-yl]carbamoyl]pyrrolidin-1-yl]-3-methyl-1-oxobutan-2-yl]carbamate
> <PUBCHEM_IUPAC_SYSTEMATIC_NAME>
2-methylpropyl N-[(2S)-1-[(2S,4S)-2-[[(2S)-1-[2-[2,6-bis(fluoranyl)-4-(2H-1,2,3,4-tetrazol-5-yl)phenyl]ethylamino]-4,4-bis(fluoranyl)-1-oxidanylidene-butan-2-yl]carbamoyl]-4-cyclohexyl-pyrrolidin-1-yl]-3-methyl-1-oxidanylidene-butan-2-yl]carbamate
> <PUBCHEM_IUPAC_TRADITIONAL_NAME>
N-[(1S)-1-[(2S,4S)-4-cyclohexyl-2-[[(1S)-1-[2-[2,6-difluoro-4-(2H-tetrazol-5-yl)phenyl]ethylcarbamoyl]-3,3-difluoro-propyl]carbamoyl]pyrrolidine-1-carbonyl]-2-methyl-propyl]carbamic acid isobutyl ester
> <PUBCHEM_IUPAC_INCHI>
InChI=1S/C34H48F4N8O5/c1-18(2)17-51-34(50)41-29(19(3)4)33(49)46-16-22(20-8-6-5-7-9-20)14-27(46)32(48)40-26(15-28(37)38)31(47)39-11-10-23-24(35)12-21(13-25(23)36)30-42-44-45-43-30/h12-13,18-20,22,26-29H,5-11,14-17H2,1-4H3,(H,39,47)(H,40,48)(H,41,50)(H,42,43,44,45)/t22-,26+,27+,29+/m1/s1
> <PUBCHEM_IUPAC_INCHIKEY>
DCTIRYQEVHXMIQ-NLALRGLNSA-N
> <PUBCHEM_XLOGP3_AA>
6.6
> <PUBCHEM_EXACT_MASS>
724.36837931
> <PUBCHEM_MOLECULAR_FORMULA>
C34H48F4N8O5
> <PUBCHEM_MOLECULAR_WEIGHT>
724.8
> <PUBCHEM_OPENEYE_CAN_SMILES>
CC(C)COC(=O)NC(C(C)C)C(=O)N1CC(CC1C(=O)NC(CC(F)F)C(=O)NCCC2=C(C=C(C=C2F)C3=NNN=N3)F)C4CCCCC4
> <PUBCHEM_OPENEYE_ISO_SMILES>
CC(C)COC(=O)N[C@@H](C(C)C)C(=O)N1C[C@@H](C[C@H]1C(=O)N[C@@H](CC(F)F)C(=O)NCCC2=C(C=C(C=C2F)C3=NNN=N3)F)C4CCCCC4
> <PUBCHEM_CACTVS_TPSA>
171
> <PUBCHEM_MONOISOTOPIC_WEIGHT>
724.36837931
> <PUBCHEM_TOTAL_CHARGE>
0
> <PUBCHEM_HEAVY_ATOM_COUNT>
51
> <PUBCHEM_ATOM_DEF_STEREO_COUNT>
4
> <PUBCHEM_ATOM_UDEF_STEREO_COUNT>
0
> <PUBCHEM_BOND_DEF_STEREO_COUNT>
0
> <PUBCHEM_BOND_UDEF_STEREO_COUNT>
0
> <PUBCHEM_ISOTOPIC_ATOM_COUNT>
0
> <PUBCHEM_COMPONENT_COUNT>
1
> <PUBCHEM_CACTVS_TAUTO_COUNT>
-1
> <PUBCHEM_COORDINATE_TYPE>
1
5
255
> <PUBCHEM_BONDANNOTATIONS>
32  11  6
30  12  6
14  16  8
14  51  8
15  17  8
15  51  8
16  17  8
18  52  6
22  29  6
43  46  8
43  47  8
46  48  8
47  49  8
48  50  8
49  50  8
$$$$
