507656
  -OEChem-10302200282D
107109  0     1  0  0  0  0  0999 V2000
    5.4641    4.1835    0.0000 F   0  0  0  0  0  0  0  0  0  0  0  0
    7.1962    4.1835    0.0000 F   0  0  0  0  0  0  0  0  0  0  0  0
    3.7320   -1.8165    0.0000 F   0  0  0  0  0  0  0  0  0  0  0  0
    7.1962   -1.8165    0.0000 F   0  0  0  0  0  0  0  0  0  0  0  0
   10.1725    0.6294    0.0000 O   0  0  0  0  0  0  0  0  0  0  0  0
    8.9282    1.1835    0.0000 O   0  0  0  0  0  0  0  0  0  0  0  0
   13.2336   -1.2758    0.0000 O   0  0  0  0  0  0  0  0  0  0  0  0
    8.0622    0.6835    0.0000 O   0  0  0  0  0  0  0  0  0  0  0  0
   13.7689    0.3715    0.0000 O   0  0  0  0  0  0  0  0  0  0  0  0
    3.7320   -3.8165    0.0000 O   0  0  0  0  0  0  0  0  0  0  0  0
    2.8660   -6.3165    0.0000 O   0  0  0  0  0  0  0  0  0  0  0  0
    2.0000   -4.8165    0.0000 O   0  0  0  0  0  0  0  0  0  0  0  0
   10.7078    2.2767    0.0000 N   0  0  0  0  0  0  0  0  0  0  0  0
    8.0622    2.6835    0.0000 N   0  0  0  0  0  0  0  0  0  0  0  0
   12.0747    0.0114    0.0000 N   0  0  0  0  0  0  0  0  0  0  0  0
    6.3301    0.6835    0.0000 N   0  0  0  0  0  0  0  0  0  0  0  0
   10.8769    3.8859    0.0000 C   0  0  2  0  0  0  0  0  0  0  0  0
   11.2836    4.7994    0.0000 C   0  0  0  0  0  0  0  0  0  0  0  0
    9.8988    3.6780    0.0000 C   0  0  0  0  0  0  0  0  0  0  0  0
   11.3769    3.0199    0.0000 C   0  0  0  0  0  0  0  0  0  0  0  0
    9.7942    2.6835    0.0000 C   0  0  1  0  0  0  0  0  0  0  0  0
   10.6959    5.6085    0.0000 C   0  0  0  0  0  0  0  0  0  0  0  0
   12.2782    4.9040    0.0000 C   0  0  0  0  0  0  0  0  0  0  0  0
   11.1026    6.5220    0.0000 C   0  0  0  0  0  0  0  0  0  0  0  0
   12.6849    5.8175    0.0000 C   0  0  0  0  0  0  0  0  0  0  0  0
   12.0971    6.6265    0.0000 C   0  0  0  0  0  0  0  0  0  0  0  0
   10.9157    1.2986    0.0000 C   0  0  0  0  0  0  0  0  0  0  0  0
    8.9282    2.1835    0.0000 C   0  0  0  0  0  0  0  0  0  0  0  0
   11.8667    0.9896    0.0000 C   0  0  2  0  0  0  0  0  0  0  0  0
   12.6099    1.6587    0.0000 C   0  0  0  0  0  0  0  0  0  0  0  0
    7.1962    2.1835    0.0000 C   0  0  1  0  0  0  0  0  0  0  0  0
   13.5609    1.3497    0.0000 C   0  0  0  0  0  0  0  0  0  0  0  0
   12.4020    2.6368    0.0000 C   0  0  0  0  0  0  0  0  0  0  0  0
    6.3301    2.6835    0.0000 C   0  0  0  0  0  0  0  0  0  0  0  0
    7.1962    1.1835    0.0000 C   0  0  0  0  0  0  0  0  0  0  0  0
   13.0257   -0.2976    0.0000 C   0  0  0  0  0  0  0  0  0  0  0  0
    6.3301    3.6835    0.0000 C   0  0  0  0  0  0  0  0  0  0  0  0
   14.1847   -1.5848    0.0000 C   0  0  0  0  0  0  0  0  0  0  0  0
    6.3301   -0.3165    0.0000 C   0  0  0  0  0  0  0  0  0  0  0  0
   14.3926   -2.5629    0.0000 C   0  0  0  0  0  0  0  0  0  0  0  0
    5.4641   -0.8165    0.0000 C   0  0  0  0  0  0  0  0  0  0  0  0
   14.6005   -3.5411    0.0000 C   0  0  0  0  0  0  0  0  0  0  0  0
   15.3707   -2.3550    0.0000 C   0  0  0  0  0  0  0  0  0  0  0  0
   13.4144   -2.7708    0.0000 C   0  0  0  0  0  0  0  0  0  0  0  0
    5.4641   -1.8165    0.0000 C   0  0  0  0  0  0  0  0  0  0  0  0
    4.5981   -2.3165    0.0000 C   0  0  0  0  0  0  0  0  0  0  0  0
    6.3301   -2.3165    0.0000 C   0  0  0  0  0  0  0  0  0  0  0  0
    4.5981   -3.3165    0.0000 C   0  0  0  0  0  0  0  0  0  0  0  0
    6.3301   -3.3165    0.0000 C   0  0  0  0  0  0  0  0  0  0  0  0
    5.4641   -3.8165    0.0000 C   0  0  0  0  0  0  0  0  0  0  0  0
    3.7320   -4.8165    0.0000 C   0  0  3  0  0  0  0  0  0  0  0  0
    4.5981   -5.3165    0.0000 C   0  0  0  0  0  0  0  0  0  0  0  0
    2.8660   -5.3165    0.0000 C   0  0  0  0  0  0  0  0  0  0  0  0
   10.3420    4.5465    0.0000 H   0  0  0  0  0  0  0  0  0  0  0  0
   11.6481    4.2979    0.0000 H   0  0  0  0  0  0  0  0  0  0  0  0
    9.8340    4.2946    0.0000 H   0  0  0  0  0  0  0  0  0  0  0  0
    9.2788    3.6780    0.0000 H   0  0  0  0  0  0  0  0  0  0  0  0
   11.7918    2.5591    0.0000 H   0  0  0  0  0  0  0  0  0  0  0  0
   11.8785    3.3843    0.0000 H   0  0  0  0  0  0  0  0  0  0  0  0
    9.8267    2.0643    0.0000 H   0  0  0  0  0  0  0  0  0  0  0  0
   10.1819    5.9552    0.0000 H   0  0  0  0  0  0  0  0  0  0  0  0
   10.2652    5.1625    0.0000 H   0  0  0  0  0  0  0  0  0  0  0  0
   12.2349    4.2855    0.0000 H   0  0  0  0  0  0  0  0  0  0  0  0
   12.8797    4.7540    0.0000 H   0  0  0  0  0  0  0  0  0  0  0  0
   11.1458    7.1405    0.0000 H   0  0  0  0  0  0  0  0  0  0  0  0
   10.5010    6.6720    0.0000 H   0  0  0  0  0  0  0  0  0  0  0  0
   13.1989    5.4708    0.0000 H   0  0  0  0  0  0  0  0  0  0  0  0
   13.1156    6.2635    0.0000 H   0  0  0  0  0  0  0  0  0  0  0  0
   12.6544    6.8983    0.0000 H   0  0  0  0  0  0  0  0  0  0  0  0
   11.9262    7.2225    0.0000 H   0  0  0  0  0  0  0  0  0  0  0  0
   11.4060    0.5747    0.0000 H   0  0  0  0  0  0  0  0  0  0  0  0
    8.0622    3.3035    0.0000 H   0  0  0  0  0  0  0  0  0  0  0  0
   12.7388    1.0522    0.0000 H   0  0  0  0  0  0  0  0  0  0  0  0
    7.7331    1.8735    0.0000 H   0  0  0  0  0  0  0  0  0  0  0  0
   11.6139   -0.4034    0.0000 H   0  0  0  0  0  0  0  0  0  0  0  0
   13.3694    0.7600    0.0000 H   0  0  0  0  0  0  0  0  0  0  0  0
   14.1506    1.1581    0.0000 H   0  0  0  0  0  0  0  0  0  0  0  0
   13.7525    1.9393    0.0000 H   0  0  0  0  0  0  0  0  0  0  0  0
   13.0084    2.7658    0.0000 H   0  0  0  0  0  0  0  0  0  0  0  0
   12.2731    3.2433    0.0000 H   0  0  0  0  0  0  0  0  0  0  0  0
   11.7955    2.5079    0.0000 H   0  0  0  0  0  0  0  0  0  0  0  0
    5.7196    2.7911    0.0000 H   0  0  0  0  0  0  0  0  0  0  0  0
    6.1181    2.1009    0.0000 H   0  0  0  0  0  0  0  0  0  0  0  0
    6.8671    3.3735    0.0000 H   0  0  0  0  0  0  0  0  0  0  0  0
    5.7932    0.9935    0.0000 H   0  0  0  0  0  0  0  0  0  0  0  0
   14.8043   -1.5631    0.0000 H   0  0  0  0  0  0  0  0  0  0  0  0
   14.2710   -0.9708    0.0000 H   0  0  0  0  0  0  0  0  0  0  0  0
    6.5422   -0.8991    0.0000 H   0  0  0  0  0  0  0  0  0  0  0  0
    6.9407   -0.2089    0.0000 H   0  0  0  0  0  0  0  0  0  0  0  0
    5.2520   -0.2339    0.0000 H   0  0  0  0  0  0  0  0  0  0  0  0
    4.8535   -0.9242    0.0000 H   0  0  0  0  0  0  0  0  0  0  0  0
   13.9941   -3.6700    0.0000 H   0  0  0  0  0  0  0  0  0  0  0  0
   14.7294   -4.1475    0.0000 H   0  0  0  0  0  0  0  0  0  0  0  0
   15.2070   -3.4122    0.0000 H   0  0  0  0  0  0  0  0  0  0  0  0
   15.4996   -2.9614    0.0000 H   0  0  0  0  0  0  0  0  0  0  0  0
   15.9772   -2.2261    0.0000 H   0  0  0  0  0  0  0  0  0  0  0  0
   15.2418   -1.7486    0.0000 H   0  0  0  0  0  0  0  0  0  0  0  0
   13.2855   -2.1644    0.0000 H   0  0  0  0  0  0  0  0  0  0  0  0
   12.8080   -2.8997    0.0000 H   0  0  0  0  0  0  0  0  0  0  0  0
   13.5433   -3.3773    0.0000 H   0  0  0  0  0  0  0  0  0  0  0  0
    6.8671   -3.6265    0.0000 H   0  0  0  0  0  0  0  0  0  0  0  0
    5.4641   -4.4365    0.0000 H   0  0  0  0  0  0  0  0  0  0  0  0
    4.2690   -4.5065    0.0000 H   0  0  0  0  0  0  0  0  0  0  0  0
    4.2881   -5.8535    0.0000 H   0  0  0  0  0  0  0  0  0  0  0  0
    5.1350   -5.6265    0.0000 H   0  0  0  0  0  0  0  0  0  0  0  0
    4.9081   -4.7796    0.0000 H   0  0  0  0  0  0  0  0  0  0  0  0
    2.3291   -6.6265    0.0000 H   0  0  0  0  0  0  0  0  0  0  0  0
  1 37  1  0  0  0  0
  2 37  1  0  0  0  0
  3 46  1  0  0  0  0
  4 47  1  0  0  0  0
  5 27  2  0  0  0  0
  6 28  2  0  0  0  0
  7 36  1  0  0  0  0
  7 38  1  0  0  0  0
  8 35  2  0  0  0  0
  9 36  2  0  0  0  0
 10 48  1  0  0  0  0
 10 51  1  0  0  0  0
 11 53  1  0  0  0  0
 11107  1  0  0  0  0
 12 53  2  0  0  0  0
 13 20  1  0  0  0  0
 13 21  1  0  0  0  0
 13 27  1  0  0  0  0
 14 28  1  0  0  0  0
 31 14  1  6  0  0  0
 14 72  1  0  0  0  0
 29 15  1  6  0  0  0
 15 36  1  0  0  0  0
 15 75  1  0  0  0  0
 16 35  1  0  0  0  0
 16 39  1  0  0  0  0
 16 85  1  0  0  0  0
 17 18  1  0  0  0  0
 17 19  1  0  0  0  0
 17 20  1  0  0  0  0
 17 54  1  6  0  0  0
 18 22  1  0  0  0  0
 18 23  1  0  0  0  0
 18 55  1  0  0  0  0
 19 21  1  0  0  0  0
 19 56  1  0  0  0  0
 19 57  1  0  0  0  0
 20 58  1  0  0  0  0
 20 59  1  0  0  0  0
 21 28  1  6  0  0  0
 21 60  1  0  0  0  0
 22 24  1  0  0  0  0
 22 61  1  0  0  0  0
 22 62  1  0  0  0  0
 23 25  1  0  0  0  0
 23 63  1  0  0  0  0
 23 64  1  0  0  0  0
 24 26  1  0  0  0  0
 24 65  1  0  0  0  0
 24 66  1  0  0  0  0
 25 26  1  0  0  0  0
 25 67  1  0  0  0  0
 25 68  1  0  0  0  0
 26 69  1  0  0  0  0
 26 70  1  0  0  0  0
 27 29  1  0  0  0  0
 29 30  1  0  0  0  0
 29 71  1  0  0  0  0
 30 32  1  0  0  0  0
 30 33  1  0  0  0  0
 30 73  1  0  0  0  0
 31 34  1  0  0  0  0
 31 35  1  0  0  0  0
 31 74  1  0  0  0  0
 32 76  1  0  0  0  0
 32 77  1  0  0  0  0
 32 78  1  0  0  0  0
 33 79  1  0  0  0  0
 33 80  1  0  0  0  0
 33 81  1  0  0  0  0
 34 37  1  0  0  0  0
 34 82  1  0  0  0  0
 34 83  1  0  0  0  0
 37 84  1  0  0  0  0
 38 40  1  0  0  0  0
 38 86  1  0  0  0  0
 38 87  1  0  0  0  0
 39 41  1  0  0  0  0
 39 88  1  0  0  0  0
 39 89  1  0  0  0  0
 40 42  1  0  0  0  0
 40 43  1  0  0  0  0
 40 44  1  0  0  0  0
 41 45  1  0  0  0  0
 41 90  1  0  0  0  0
 41 91  1  0  0  0  0
 42 92  1  0  0  0  0
 42 93  1  0  0  0  0
 42 94  1  0  0  0  0
 43 95  1  0  0  0  0
 43 96  1  0  0  0  0
 43 97  1  0  0  0  0
 44 98  1  0  0  0  0
 44 99  1  0  0  0  0
 44100  1  0  0  0  0
 45 46  1  0  0  0  0
 45 47  2  0  0  0  0
 46 48  2  0  0  0  0
 47 49  1  0  0  0  0
 48 50  1  0  0  0  0
 49 50  2  0  0  0  0
 49101  1  0  0  0  0
 50102  1  0  0  0  0
 51 52  1  0  0  0  0
 51 53  1  0  0  0  0
 51103  1  0  0  0  0
 52104  1  0  0  0  0
 52105  1  0  0  0  0
 52106  1  0  0  0  0
M  END
> <PUBCHEM_COMPOUND_CID>
507656
> <PUBCHEM_COMPOUND_CANONICALIZED>
1
> <PUBCHEM_CACTVS_COMPLEXITY>
1250
> <PUBCHEM_CACTVS_HBOND_ACCEPTOR>
12
> <PUBCHEM_CACTVS_HBOND_DONOR>
4
> <PUBCHEM_CACTVS_ROTATABLE_BOND>
18
> <PUBCHEM_CACTVS_SUBSKEYS>
AAADcfB/vcAAAAAAAAAAAAAAAAAAAWAAAAAwYAAAAAAAAAABAAAAHwAQCAAADzzhmB4yDoPABgCIAiHSGAICCAAgIAAIiIHOCIkNZjKEsD+eeCCk1hGLqAeY2fKOgAABAAAAAAAAAAIAAAAAAAAAAAAAAA==
> <PUBCHEM_IUPAC_OPENEYE_NAME>
2-[3-[2-[[(2S)-2-[[(2S,4S)-4-cyclohexyl-1-[(2S)-2-(2,2-dimethylpropoxycarbonylamino)-3-methyl-butanoyl]pyrrolidine-2-carbonyl]amino]-4,4-difluoro-butanoyl]amino]ethyl]-2,4-difluoro-phenoxy]propanoic acid
> <PUBCHEM_IUPAC_CAS_NAME>
2-[3-[2-[[(2S)-2-[[[(2S,4S)-4-cyclohexyl-1-[(2S)-2-[[2,2-dimethylpropoxy(oxo)methyl]amino]-3-methyl-1-oxobutyl]-2-pyrrolidinyl]-oxomethyl]amino]-4,4-difluoro-1-oxobutyl]amino]ethyl]-2,4-difluorophenoxy]propanoic acid
> <PUBCHEM_IUPAC_NAME_MARKUP>
2-[3-[2-[[(2<I>S</I>)-2-[[(2<I>S</I>,4<I>S</I>)-4-cyclohexyl-1-[(2<I>S</I>)-2-(2,2-dimethylpropoxycarbonylamino)-3-methylbutanoyl]pyrrolidine-2-carbonyl]amino]-4,4-difluorobutanoyl]amino]ethyl]-2,4-difluorophenoxy]propanoic acid
> <PUBCHEM_IUPAC_NAME>
2-[3-[2-[[(2S)-2-[[(2S,4S)-4-cyclohexyl-1-[(2S)-2-(2,2-dimethylpropoxycarbonylamino)-3-methylbutanoyl]pyrrolidine-2-carbonyl]amino]-4,4-difluorobutanoyl]amino]ethyl]-2,4-difluorophenoxy]propanoic acid
> <PUBCHEM_IUPAC_SYSTEMATIC_NAME>
2-[3-[2-[[(2S)-2-[[(2S,4S)-4-cyclohexyl-1-[(2S)-2-(2,2-dimethylpropoxycarbonylamino)-3-methyl-butanoyl]pyrrolidin-2-yl]carbonylamino]-4,4-bis(fluoranyl)butanoyl]amino]ethyl]-2,4-bis(fluoranyl)phenoxy]propanoic acid
> <PUBCHEM_IUPAC_TRADITIONAL_NAME>
2-[3-[2-[[(2S)-2-[[(2S,4S)-4-cyclohexyl-1-[(2S)-3-methyl-2-(neopentyloxycarbonylamino)butanoyl]prolyl]amino]-4,4-difluoro-butanoyl]amino]ethyl]-2,4-difluoro-phenoxy]propionic acid
> <PUBCHEM_IUPAC_INCHI>
InChI=1S/C37H54F4N4O8/c1-20(2)31(44-36(51)52-19-37(4,5)6)34(48)45-18-23(22-10-8-7-9-11-22)16-27(45)33(47)43-26(17-29(39)40)32(46)42-15-14-24-25(38)12-13-28(30(24)41)53-21(3)35(49)50/h12-13,20-23,26-27,29,31H,7-11,14-19H2,1-6H3,(H,42,46)(H,43,47)(H,44,51)(H,49,50)/t21?,23-,26+,27+,31+/m1/s1
> <PUBCHEM_IUPAC_INCHIKEY>
CKADYWWXOCFWSD-OREDKOAVSA-N
> <PUBCHEM_XLOGP3_AA>
7.8
> <PUBCHEM_EXACT_MASS>
758.38777734
> <PUBCHEM_MOLECULAR_FORMULA>
C37H54F4N4O8
> <PUBCHEM_MOLECULAR_WEIGHT>
758.8
> <PUBCHEM_OPENEYE_CAN_SMILES>
CC(C)C(C(=O)N1CC(CC1C(=O)NC(CC(F)F)C(=O)NCCC2=C(C=CC(=C2F)OC(C)C(=O)O)F)C3CCCCC3)NC(=O)OCC(C)(C)C
> <PUBCHEM_OPENEYE_ISO_SMILES>
CC(C)[C@@H](C(=O)N1C[C@@H](C[C@H]1C(=O)N[C@@H](CC(F)F)C(=O)NCCC2=C(C=CC(=C2F)OC(C)C(=O)O)F)C3CCCCC3)NC(=O)OCC(C)(C)C
> <PUBCHEM_CACTVS_TPSA>
163
> <PUBCHEM_MONOISOTOPIC_WEIGHT>
758.38777734
> <PUBCHEM_TOTAL_CHARGE>
0
> <PUBCHEM_HEAVY_ATOM_COUNT>
53
> <PUBCHEM_ATOM_DEF_STEREO_COUNT>
4
> <PUBCHEM_ATOM_UDEF_STEREO_COUNT>
1
> <PUBCHEM_BOND_DEF_STEREO_COUNT>
0
> <PUBCHEM_BOND_UDEF_STEREO_COUNT>
0
> <PUBCHEM_ISOTOPIC_ATOM_COUNT>
0
> <PUBCHEM_COMPONENT_COUNT>
1
> <PUBCHEM_CACTVS_TAUTO_COUNT>
-1
> <PUBCHEM_COORDINATE_TYPE>
1
5
255
> <PUBCHEM_BONDANNOTATIONS>
31  14  6
29  15  6
17  54  6
21  28  6
45  46  8
45  47  8
46  48  8
47  49  8
48  50  8
49  50  8
51  52  3
$$$$
