507605
  -OEChem-10302200282D
 90 93  0     1  0  0  0  0  0999 V2000
    9.1643   -0.6137    0.0000 S   0  0  0  0  0  0  0  0  0  0  0  0
    8.1559   -2.4683    0.0000 O   0  0  0  0  0  0  0  0  0  0  0  0
    8.2983   -1.1137    0.0000 O   0  0  0  0  0  0  0  0  0  0  0  0
    6.5811   -5.7118    0.0000 O   0  0  0  0  0  0  0  0  0  0  0  0
    7.4323    2.3863    0.0000 O   0  0  0  0  0  0  0  0  0  0  0  0
    9.2264   -5.7629    0.0000 O   0  0  0  0  0  0  0  0  0  0  0  0
    4.6790   -6.3298    0.0000 O   0  0  0  0  0  0  0  0  0  0  0  0
    4.1438   -4.6825    0.0000 O   0  0  0  0  0  0  0  0  0  0  0  0
   10.8964    8.3863    0.0000 O   0  0  0  0  0  0  0  0  0  0  0  0
    9.1643    8.3863    0.0000 O   0  0  0  0  0  0  0  0  0  0  0  0
    6.4617   -2.1082    0.0000 N   0  0  0  0  0  0  0  0  0  0  0  0
    7.4323    0.3863    0.0000 N   0  0  0  0  0  0  0  0  0  0  0  0
    7.7401   -4.4246    0.0000 N   0  0  0  0  0  0  0  0  0  0  0  0
    9.1643    2.3863    0.0000 N   0  0  0  0  0  0  0  0  0  0  0  0
    4.9836   -1.4501    0.0000 C   0  0  2  0  0  0  0  0  0  0  0  0
    6.5662   -1.1137    0.0000 C   0  0  1  0  0  0  0  0  0  0  0  0
    5.6527   -0.7069    0.0000 C   0  0  0  0  0  0  0  0  0  0  0  0
    5.4836   -2.3161    0.0000 C   0  0  0  0  0  0  0  0  0  0  0  0
    3.9890   -1.3456    0.0000 C   0  0  0  0  0  0  0  0  0  0  0  0
    7.2049   -2.7773    0.0000 C   0  0  0  0  0  0  0  0  0  0  0  0
    7.4323   -0.6137    0.0000 C   0  0  0  0  0  0  0  0  0  0  0  0
    6.9970   -3.7555    0.0000 C   0  0  2  0  0  0  0  0  0  0  0  0
    3.5823   -0.4320    0.0000 C   0  0  0  0  0  0  0  0  0  0  0  0
    3.4013   -2.1546    0.0000 C   0  0  0  0  0  0  0  0  0  0  0  0
    6.0459   -4.0645    0.0000 C   0  0  0  0  0  0  0  0  0  0  0  0
    8.2983    0.8863    0.0000 C   0  0  1  0  0  0  0  0  0  0  0  0
    2.5878   -0.3275    0.0000 C   0  0  0  0  0  0  0  0  0  0  0  0
    2.4067   -2.0500    0.0000 C   0  0  0  0  0  0  0  0  0  0  0  0
    5.8380   -5.0426    0.0000 C   0  0  0  0  0  0  0  0  0  0  0  0
    2.0000   -1.1365    0.0000 C   0  0  0  0  0  0  0  0  0  0  0  0
    9.1643    0.3863    0.0000 C   0  0  0  0  0  0  0  0  0  0  0  0
    7.5322   -5.4028    0.0000 C   0  0  0  0  0  0  0  0  0  0  0  0
    8.2983    1.8863    0.0000 C   0  0  0  0  0  0  0  0  0  0  0  0
    8.2753   -6.0719    0.0000 C   0  0  2  0  0  0  0  0  0  0  0  0
    4.8869   -5.3517    0.0000 C   0  0  0  0  0  0  0  0  0  0  0  0
    8.0674   -7.0500    0.0000 C   0  0  0  0  0  0  0  0  0  0  0  0
    9.1643    3.3863    0.0000 C   0  0  0  0  0  0  0  0  0  0  0  0
   10.0303    3.8863    0.0000 C   0  0  0  0  0  0  0  0  0  0  0  0
    7.1164   -7.3590    0.0000 C   0  0  0  0  0  0  0  0  0  0  0  0
    8.8106   -7.7192    0.0000 C   0  0  0  0  0  0  0  0  0  0  0  0
   10.0303    4.8863    0.0000 C   0  0  0  0  0  0  0  0  0  0  0  0
    6.9084   -8.3372    0.0000 C   0  0  0  0  0  0  0  0  0  0  0  0
    8.6026   -8.6973    0.0000 C   0  0  0  0  0  0  0  0  0  0  0  0
    7.6516   -9.0063    0.0000 C   0  0  0  0  0  0  0  0  0  0  0  0
   10.8964    5.3863    0.0000 C   0  0  0  0  0  0  0  0  0  0  0  0
    9.1643    5.3863    0.0000 C   0  0  0  0  0  0  0  0  0  0  0  0
   10.8964    6.3863    0.0000 C   0  0  0  0  0  0  0  0  0  0  0  0
    9.1643    6.3863    0.0000 C   0  0  0  0  0  0  0  0  0  0  0  0
   10.0303    6.8863    0.0000 C   0  0  0  0  0  0  0  0  0  0  0  0
   10.0303    7.8863    0.0000 C   0  0  0  0  0  0  0  0  0  0  0  0
    4.6459   -1.9701    0.0000 H   0  0  0  0  0  0  0  0  0  0  0  0
    7.0862   -1.4514    0.0000 H   0  0  0  0  0  0  0  0  0  0  0  0
    5.9627   -0.1700    0.0000 H   0  0  0  0  0  0  0  0  0  0  0  0
    5.1511   -0.3425    0.0000 H   0  0  0  0  0  0  0  0  0  0  0  0
    4.9172   -2.5683    0.0000 H   0  0  0  0  0  0  0  0  0  0  0  0
    5.6752   -2.9058    0.0000 H   0  0  0  0  0  0  0  0  0  0  0  0
    6.8680   -4.3619    0.0000 H   0  0  0  0  0  0  0  0  0  0  0  0
    3.9467    0.0696    0.0000 H   0  0  0  0  0  0  0  0  0  0  0  0
    3.6534   -2.7210    0.0000 H   0  0  0  0  0  0  0  0  0  0  0  0
    6.8953    0.6963    0.0000 H   0  0  0  0  0  0  0  0  0  0  0  0
    5.9596   -3.4505    0.0000 H   0  0  0  0  0  0  0  0  0  0  0  0
    5.4263   -4.0428    0.0000 H   0  0  0  0  0  0  0  0  0  0  0  0
    7.7614    1.1963    0.0000 H   0  0  0  0  0  0  0  0  0  0  0  0
    8.3298   -4.2330    0.0000 H   0  0  0  0  0  0  0  0  0  0  0  0
    2.3356    0.2389    0.0000 H   0  0  0  0  0  0  0  0  0  0  0  0
    2.0423   -2.5516    0.0000 H   0  0  0  0  0  0  0  0  0  0  0  0
    5.9243   -5.6566    0.0000 H   0  0  0  0  0  0  0  0  0  0  0  0
    6.4576   -5.0643    0.0000 H   0  0  0  0  0  0  0  0  0  0  0  0
    1.3834   -1.0717    0.0000 H   0  0  0  0  0  0  0  0  0  0  0  0
    9.7749    0.2787    0.0000 H   0  0  0  0  0  0  0  0  0  0  0  0
    9.3764    0.9689    0.0000 H   0  0  0  0  0  0  0  0  0  0  0  0
    8.7361   -6.4867    0.0000 H   0  0  0  0  0  0  0  0  0  0  0  0
    9.7012    2.0763    0.0000 H   0  0  0  0  0  0  0  0  0  0  0  0
    9.7012   -0.9237    0.0000 H   0  0  0  0  0  0  0  0  0  0  0  0
    8.9523    3.9689    0.0000 H   0  0  0  0  0  0  0  0  0  0  0  0
    8.5537    3.2787    0.0000 H   0  0  0  0  0  0  0  0  0  0  0  0
   10.2424    3.3037    0.0000 H   0  0  0  0  0  0  0  0  0  0  0  0
   10.6409    3.9940    0.0000 H   0  0  0  0  0  0  0  0  0  0  0  0
    9.6871   -6.1777    0.0000 H   0  0  0  0  0  0  0  0  0  0  0  0
    4.0893   -6.5214    0.0000 H   0  0  0  0  0  0  0  0  0  0  0  0
    6.6556   -6.9442    0.0000 H   0  0  0  0  0  0  0  0  0  0  0  0
    9.4002   -7.5276    0.0000 H   0  0  0  0  0  0  0  0  0  0  0  0
    6.3188   -8.5288    0.0000 H   0  0  0  0  0  0  0  0  0  0  0  0
    9.0634   -9.1122    0.0000 H   0  0  0  0  0  0  0  0  0  0  0  0
    7.5227   -9.6128    0.0000 H   0  0  0  0  0  0  0  0  0  0  0  0
   11.4333    5.0763    0.0000 H   0  0  0  0  0  0  0  0  0  0  0  0
    8.6274    5.0763    0.0000 H   0  0  0  0  0  0  0  0  0  0  0  0
   11.4333    6.6963    0.0000 H   0  0  0  0  0  0  0  0  0  0  0  0
    8.6274    6.6963    0.0000 H   0  0  0  0  0  0  0  0  0  0  0  0
   10.8964    9.0063    0.0000 H   0  0  0  0  0  0  0  0  0  0  0  0
  1 31  1  0  0  0  0
  1 74  1  0  0  0  0
  2 20  2  0  0  0  0
  3 21  2  0  0  0  0
  4 32  2  0  0  0  0
  5 33  2  0  0  0  0
 34  6  1  1  0  0  0
  6 79  1  0  0  0  0
  7 35  1  0  0  0  0
  7 80  1  0  0  0  0
  8 35  2  0  0  0  0
  9 50  1  0  0  0  0
  9 90  1  0  0  0  0
 10 50  2  0  0  0  0
 11 16  1  0  0  0  0
 11 18  1  0  0  0  0
 11 20  1  0  0  0  0
 12 21  1  0  0  0  0
 26 12  1  6  0  0  0
 12 60  1  0  0  0  0
 22 13  1  1  0  0  0
 13 32  1  0  0  0  0
 13 64  1  0  0  0  0
 14 33  1  0  0  0  0
 14 37  1  0  0  0  0
 14 73  1  0  0  0  0
 15 17  1  0  0  0  0
 15 18  1  0  0  0  0
 15 19  1  6  0  0  0
 15 51  1  0  0  0  0
 16 17  1  0  0  0  0
 16 21  1  1  0  0  0
 16 52  1  0  0  0  0
 17 53  1  0  0  0  0
 17 54  1  0  0  0  0
 18 55  1  0  0  0  0
 18 56  1  0  0  0  0
 19 23  2  0  0  0  0
 19 24  1  0  0  0  0
 20 22  1  0  0  0  0
 22 25  1  0  0  0  0
 22 57  1  0  0  0  0
 23 27  1  0  0  0  0
 23 58  1  0  0  0  0
 24 28  2  0  0  0  0
 24 59  1  0  0  0  0
 25 29  1  0  0  0  0
 25 61  1  0  0  0  0
 25 62  1  0  0  0  0
 26 31  1  0  0  0  0
 26 33  1  0  0  0  0
 26 63  1  0  0  0  0
 27 30  2  0  0  0  0
 27 65  1  0  0  0  0
 28 30  1  0  0  0  0
 28 66  1  0  0  0  0
 29 35  1  0  0  0  0
 29 67  1  0  0  0  0
 29 68  1  0  0  0  0
 30 69  1  0  0  0  0
 31 70  1  0  0  0  0
 31 71  1  0  0  0  0
 32 34  1  0  0  0  0
 34 36  1  0  0  0  0
 34 72  1  0  0  0  0
 36 39  2  0  0  0  0
 36 40  1  0  0  0  0
 37 38  1  0  0  0  0
 37 75  1  0  0  0  0
 37 76  1  0  0  0  0
 38 41  1  0  0  0  0
 38 77  1  0  0  0  0
 38 78  1  0  0  0  0
 39 42  1  0  0  0  0
 39 81  1  0  0  0  0
 40 43  2  0  0  0  0
 40 82  1  0  0  0  0
 41 45  2  0  0  0  0
 41 46  1  0  0  0  0
 42 44  2  0  0  0  0
 42 83  1  0  0  0  0
 43 44  1  0  0  0  0
 43 84  1  0  0  0  0
 44 85  1  0  0  0  0
 45 47  1  0  0  0  0
 45 86  1  0  0  0  0
 46 48  2  0  0  0  0
 46 87  1  0  0  0  0
 47 49  2  0  0  0  0
 47 88  1  0  0  0  0
 48 49  1  0  0  0  0
 48 89  1  0  0  0  0
 49 50  1  0  0  0  0
M  END
> <PUBCHEM_COMPOUND_CID>
507605
> <PUBCHEM_COMPOUND_CANONICALIZED>
1
> <PUBCHEM_CACTVS_COMPLEXITY>
1180
> <PUBCHEM_CACTVS_HBOND_ACCEPTOR>
10
> <PUBCHEM_CACTVS_HBOND_DONOR>
7
> <PUBCHEM_CACTVS_ROTATABLE_BOND>
16
> <PUBCHEM_CACTVS_SUBSKEYS>
AAADcfB/vABAAAAAAAAAAAAAAAAAAWAAAAAwYMAAAAAAAAABUAAAHgQQCAAADTzl2AawCIPAAgSIAiHSGAICAAAkAAAIiIHICMgKdjKAlTGUcQAk1gGYmYe83/KOwAAAAAAAAACAAAAAAAAAAAAAAAAAAA==
> <PUBCHEM_IUPAC_OPENEYE_NAME>
4-[2-[[(2R)-2-[[(2S,4S)-1-[(2S)-4-carboxy-2-[[(2S)-2-hydroxy-2-phenyl-acetyl]amino]butanoyl]-4-phenyl-pyrrolidine-2-carbonyl]amino]-3-sulfanyl-propanoyl]amino]ethyl]benzoic acid
> <PUBCHEM_IUPAC_CAS_NAME>
4-[2-[[(2R)-2-[[[(2S,4S)-1-[(2S)-4-carboxy-2-[[(2S)-2-hydroxy-1-oxo-2-phenylethyl]amino]-1-oxobutyl]-4-phenyl-2-pyrrolidinyl]-oxomethyl]amino]-3-mercapto-1-oxopropyl]amino]ethyl]benzoic acid
> <PUBCHEM_IUPAC_NAME_MARKUP>
4-[2-[[(2<I>R</I>)-2-[[(2<I>S</I>,4<I>S</I>)-1-[(2<I>S</I>)-4-carboxy-2-[[(2<I>S</I>)-2-hydroxy-2-phenylacetyl]amino]butanoyl]-4-phenylpyrrolidine-2-carbonyl]amino]-3-sulfanylpropanoyl]amino]ethyl]benzoic acid
> <PUBCHEM_IUPAC_NAME>
4-[2-[[(2R)-2-[[(2S,4S)-1-[(2S)-4-carboxy-2-[[(2S)-2-hydroxy-2-phenylacetyl]amino]butanoyl]-4-phenylpyrrolidine-2-carbonyl]amino]-3-sulfanylpropanoyl]amino]ethyl]benzoic acid
> <PUBCHEM_IUPAC_SYSTEMATIC_NAME>
4-[2-[[(2R)-2-[[(2S,4S)-1-[(2S)-5-oxidanyl-5-oxidanylidene-2-[[(2S)-2-oxidanyl-2-phenyl-ethanoyl]amino]pentanoyl]-4-phenyl-pyrrolidin-2-yl]carbonylamino]-3-sulfanyl-propanoyl]amino]ethyl]benzoic acid
> <PUBCHEM_IUPAC_TRADITIONAL_NAME>
4-[2-[[(2R)-2-[[(2S,4S)-1-[(2S)-4-carboxy-2-[[(2S)-2-hydroxy-2-phenyl-acetyl]amino]butanoyl]-4-phenyl-prolyl]amino]-3-mercapto-propanoyl]amino]ethyl]benzoic acid
> <PUBCHEM_IUPAC_INCHI>
InChI=1S/C36H40N4O9S/c41-30(42)16-15-27(38-34(46)31(43)24-9-5-2-6-10-24)35(47)40-20-26(23-7-3-1-4-8-23)19-29(40)33(45)39-28(21-50)32(44)37-18-17-22-11-13-25(14-12-22)36(48)49/h1-14,26-29,31,43,50H,15-21H2,(H,37,44)(H,38,46)(H,39,45)(H,41,42)(H,48,49)/t26-,27+,28+,29+,31+/m1/s1
> <PUBCHEM_IUPAC_INCHIKEY>
YRNNMRGUBWTZHV-QSXRPSNWSA-N
> <PUBCHEM_XLOGP3_AA>
2.4
> <PUBCHEM_EXACT_MASS>
704.25160004
> <PUBCHEM_MOLECULAR_FORMULA>
C36H40N4O9S
> <PUBCHEM_MOLECULAR_WEIGHT>
704.8
> <PUBCHEM_OPENEYE_CAN_SMILES>
C1C(CN(C1C(=O)NC(CS)C(=O)NCCC2=CC=C(C=C2)C(=O)O)C(=O)C(CCC(=O)O)NC(=O)C(C3=CC=CC=C3)O)C4=CC=CC=C4
> <PUBCHEM_OPENEYE_ISO_SMILES>
C1[C@H](CN([C@@H]1C(=O)N[C@@H](CS)C(=O)NCCC2=CC=C(C=C2)C(=O)O)C(=O)[C@H](CCC(=O)O)NC(=O)[C@H](C3=CC=CC=C3)O)C4=CC=CC=C4
> <PUBCHEM_CACTVS_TPSA>
203
> <PUBCHEM_MONOISOTOPIC_WEIGHT>
704.25160004
> <PUBCHEM_TOTAL_CHARGE>
0
> <PUBCHEM_HEAVY_ATOM_COUNT>
50
> <PUBCHEM_ATOM_DEF_STEREO_COUNT>
5
> <PUBCHEM_ATOM_UDEF_STEREO_COUNT>
0
> <PUBCHEM_BOND_DEF_STEREO_COUNT>
0
> <PUBCHEM_BOND_UDEF_STEREO_COUNT>
0
> <PUBCHEM_ISOTOPIC_ATOM_COUNT>
0
> <PUBCHEM_COMPONENT_COUNT>
1
> <PUBCHEM_CACTVS_TAUTO_COUNT>
-1
> <PUBCHEM_COORDINATE_TYPE>
1
5
255
> <PUBCHEM_BONDANNOTATIONS>
26  12  6
22  13  5
15  19  6
16  21  5
19  23  8
19  24  8
23  27  8
24  28  8
27  30  8
28  30  8
36  39  8
36  40  8
39  42  8
40  43  8
41  45  8
41  46  8
42  44  8
43  44  8
45  47  8
46  48  8
47  49  8
48  49  8
34  6  5
$$$$
