507601
  -OEChem-10302200282D
 92 94  0     1  0  0  0  0  0999 V2000
    6.6105    3.3262    0.0000 F   0  0  0  0  0  0  0  0  0  0  0  0
    8.0118    4.3442    0.0000 F   0  0  0  0  0  0  0  0  0  0  0  0
    9.7751    1.9172    0.0000 O   0  0  0  0  0  0  0  0  0  0  0  0
   11.1372    1.9172    0.0000 O   0  0  0  0  0  0  0  0  0  0  0  0
   14.7086    2.4126    0.0000 O   0  0  0  0  0  0  0  0  0  0  0  0
    6.2038    2.4126    0.0000 O   0  0  0  0  0  0  0  0  0  0  0  0
   14.5275    0.6900    0.0000 O   0  0  0  0  0  0  0  0  0  0  0  0
   15.3410   -1.1370    0.0000 O   0  0  0  0  0  0  0  0  0  0  0  0
   13.7587   -1.8415    0.0000 O   0  0  0  0  0  0  0  0  0  0  0  0
   10.9562    0.1946    0.0000 N   0  0  0  0  0  0  0  0  0  0  0  0
    8.3739    0.8991    0.0000 N   0  0  0  0  0  0  0  0  0  0  0  0
   13.1263    1.7081    0.0000 N   0  0  0  0  0  0  0  0  0  0  0  0
    6.3848    0.6900    0.0000 N   0  0  0  0  0  0  0  0  0  0  0  0
   10.4562   -1.3442    0.0000 C   0  0  2  0  0  0  0  0  0  0  0  0
    9.9562    0.1946    0.0000 C   0  0  1  0  0  0  0  0  0  0  0  0
    9.6472   -0.7564    0.0000 C   0  0  0  0  0  0  0  0  0  0  0  0
   11.2652   -0.7564    0.0000 C   0  0  0  0  0  0  0  0  0  0  0  0
   10.4562   -2.3442    0.0000 C   0  0  0  0  0  0  0  0  0  0  0  0
    9.3684    1.0036    0.0000 C   0  0  0  0  0  0  0  0  0  0  0  0
   11.5440    1.0036    0.0000 C   0  0  0  0  0  0  0  0  0  0  0  0
   12.5385    0.8991    0.0000 C   0  0  2  0  0  0  0  0  0  0  0  0
   11.3222   -2.8442    0.0000 C   0  0  0  0  0  0  0  0  0  0  0  0
    9.5902   -2.8442    0.0000 C   0  0  0  0  0  0  0  0  0  0  0  0
   12.9452   -0.0144    0.0000 C   0  0  0  0  0  0  0  0  0  0  0  0
    7.7861    1.7081    0.0000 C   0  0  1  0  0  0  0  0  0  0  0  0
   11.3222   -3.8442    0.0000 C   0  0  0  0  0  0  0  0  0  0  0  0
    9.5902   -3.8442    0.0000 C   0  0  0  0  0  0  0  0  0  0  0  0
    8.1928    2.6217    0.0000 C   0  0  0  0  0  0  0  0  0  0  0  0
   13.9397   -0.1190    0.0000 C   0  0  0  0  0  0  0  0  0  0  0  0
    6.7916    1.6036    0.0000 C   0  0  0  0  0  0  0  0  0  0  0  0
   10.4562   -4.3442    0.0000 C   0  0  0  0  0  0  0  0  0  0  0  0
   14.1208    1.6036    0.0000 C   0  0  0  0  0  0  0  0  0  0  0  0
    7.6050    3.4307    0.0000 C   0  0  0  0  0  0  0  0  0  0  0  0
    5.3903    0.5855    0.0000 C   0  0  0  0  0  0  0  0  0  0  0  0
    3.9890   -0.4326    0.0000 C   0  0  0  0  0  0  0  0  0  0  0  0
    4.9836   -0.3280    0.0000 C   0  0  0  0  0  0  0  0  0  0  0  0
    3.5823   -1.3461    0.0000 C   0  0  0  0  0  0  0  0  0  0  0  0
    2.5878   -1.4506    0.0000 C   0  0  0  0  0  0  0  0  0  0  0  0
    2.0000   -0.6416    0.0000 C   0  0  0  0  0  0  0  0  0  0  0  0
   14.3465   -1.0325    0.0000 C   0  0  0  0  0  0  0  0  0  0  0  0
    2.4067    0.2719    0.0000 C   0  0  0  0  0  0  0  0  0  0  0  0
    3.4013    0.3765    0.0000 C   0  0  0  0  0  0  0  0  0  0  0  0
   15.7031    2.3081    0.0000 C   0  0  0  0  0  0  0  0  0  0  0  0
   16.2909    3.1171    0.0000 C   0  0  0  0  0  0  0  0  0  0  0  0
   17.2854    3.0126    0.0000 C   0  0  0  0  0  0  0  0  0  0  0  0
   15.8841    4.0306    0.0000 C   0  0  0  0  0  0  0  0  0  0  0  0
    9.9038   -1.6257    0.0000 H   0  0  0  0  0  0  0  0  0  0  0  0
   10.2376    0.7470    0.0000 H   0  0  0  0  0  0  0  0  0  0  0  0
    9.0808   -0.5043    0.0000 H   0  0  0  0  0  0  0  0  0  0  0  0
    9.3372   -1.2934    0.0000 H   0  0  0  0  0  0  0  0  0  0  0  0
   11.5752   -1.2934    0.0000 H   0  0  0  0  0  0  0  0  0  0  0  0
   11.8316   -0.5043    0.0000 H   0  0  0  0  0  0  0  0  0  0  0  0
   13.1551    0.8343    0.0000 H   0  0  0  0  0  0  0  0  0  0  0  0
    8.1217    0.3327    0.0000 H   0  0  0  0  0  0  0  0  0  0  0  0
   11.8591   -2.5342    0.0000 H   0  0  0  0  0  0  0  0  0  0  0  0
    9.0532   -2.5342    0.0000 H   0  0  0  0  0  0  0  0  0  0  0  0
   12.3436   -0.1644    0.0000 H   0  0  0  0  0  0  0  0  0  0  0  0
   12.9885   -0.6329    0.0000 H   0  0  0  0  0  0  0  0  0  0  0  0
    7.5339    1.1417    0.0000 H   0  0  0  0  0  0  0  0  0  0  0  0
   12.8741    2.2745    0.0000 H   0  0  0  0  0  0  0  0  0  0  0  0
   11.8591   -4.1542    0.0000 H   0  0  0  0  0  0  0  0  0  0  0  0
    9.0532   -4.1542    0.0000 H   0  0  0  0  0  0  0  0  0  0  0  0
    8.7068    2.2750    0.0000 H   0  0  0  0  0  0  0  0  0  0  0  0
    8.6235    3.0677    0.0000 H   0  0  0  0  0  0  0  0  0  0  0  0
   14.5413    0.0310    0.0000 H   0  0  0  0  0  0  0  0  0  0  0  0
   13.8965    0.4995    0.0000 H   0  0  0  0  0  0  0  0  0  0  0  0
   10.4562   -4.9642    0.0000 H   0  0  0  0  0  0  0  0  0  0  0  0
    6.7492    0.1885    0.0000 H   0  0  0  0  0  0  0  0  0  0  0  0
    7.3529    2.8643    0.0000 H   0  0  0  0  0  0  0  0  0  0  0  0
    5.4336    1.2040    0.0000 H   0  0  0  0  0  0  0  0  0  0  0  0
    4.7887    0.7355    0.0000 H   0  0  0  0  0  0  0  0  0  0  0  0
    4.9403   -0.9465    0.0000 H   0  0  0  0  0  0  0  0  0  0  0  0
    5.5851   -0.4780    0.0000 H   0  0  0  0  0  0  0  0  0  0  0  0
    3.5391   -1.9646    0.0000 H   0  0  0  0  0  0  0  0  0  0  0  0
    4.1839   -1.4961    0.0000 H   0  0  0  0  0  0  0  0  0  0  0  0
    2.0305   -1.7224    0.0000 H   0  0  0  0  0  0  0  0  0  0  0  0
    2.7587   -2.0466    0.0000 H   0  0  0  0  0  0  0  0  0  0  0  0
    1.4860   -0.2949    0.0000 H   0  0  0  0  0  0  0  0  0  0  0  0
    1.5693   -1.0876    0.0000 H   0  0  0  0  0  0  0  0  0  0  0  0
    2.4500    0.8904    0.0000 H   0  0  0  0  0  0  0  0  0  0  0  0
    1.8052    0.4219    0.0000 H   0  0  0  0  0  0  0  0  0  0  0  0
    3.6534    0.9429    0.0000 H   0  0  0  0  0  0  0  0  0  0  0  0
   15.5322    1.7121    0.0000 H   0  0  0  0  0  0  0  0  0  0  0  0
   16.2603    2.0363    0.0000 H   0  0  0  0  0  0  0  0  0  0  0  0
   16.6553    3.6187    0.0000 H   0  0  0  0  0  0  0  0  0  0  0  0
   15.5932   -1.7034    0.0000 H   0  0  0  0  0  0  0  0  0  0  0  0
   17.2206    2.3960    0.0000 H   0  0  0  0  0  0  0  0  0  0  0  0
   17.9020    2.9478    0.0000 H   0  0  0  0  0  0  0  0  0  0  0  0
   17.3502    3.6292    0.0000 H   0  0  0  0  0  0  0  0  0  0  0  0
   16.4505    4.2828    0.0000 H   0  0  0  0  0  0  0  0  0  0  0  0
   15.6320    4.5970    0.0000 H   0  0  0  0  0  0  0  0  0  0  0  0
   15.3177    3.7785    0.0000 H   0  0  0  0  0  0  0  0  0  0  0  0
  1 33  1  0  0  0  0
  2 33  1  0  0  0  0
  3 19  2  0  0  0  0
  4 20  2  0  0  0  0
  5 32  1  0  0  0  0
  5 43  1  0  0  0  0
  6 30  2  0  0  0  0
  7 32  2  0  0  0  0
  8 40  1  0  0  0  0
  8 86  1  0  0  0  0
  9 40  2  0  0  0  0
 10 15  1  0  0  0  0
 10 17  1  0  0  0  0
 10 20  1  0  0  0  0
 11 19  1  0  0  0  0
 25 11  1  6  0  0  0
 11 54  1  0  0  0  0
 21 12  1  1  0  0  0
 12 32  1  0  0  0  0
 12 60  1  0  0  0  0
 13 30  1  0  0  0  0
 13 34  1  0  0  0  0
 13 68  1  0  0  0  0
 14 16  1  0  0  0  0
 14 17  1  0  0  0  0
 14 18  1  6  0  0  0
 14 47  1  0  0  0  0
 15 16  1  0  0  0  0
 15 19  1  1  0  0  0
 15 48  1  0  0  0  0
 16 49  1  0  0  0  0
 16 50  1  0  0  0  0
 17 51  1  0  0  0  0
 17 52  1  0  0  0  0
 18 22  2  0  0  0  0
 18 23  1  0  0  0  0
 20 21  1  0  0  0  0
 21 24  1  0  0  0  0
 21 53  1  0  0  0  0
 22 26  1  0  0  0  0
 22 55  1  0  0  0  0
 23 27  2  0  0  0  0
 23 56  1  0  0  0  0
 24 29  1  0  0  0  0
 24 57  1  0  0  0  0
 24 58  1  0  0  0  0
 25 28  1  0  0  0  0
 25 30  1  0  0  0  0
 25 59  1  0  0  0  0
 26 31  2  0  0  0  0
 26 61  1  0  0  0  0
 27 31  1  0  0  0  0
 27 62  1  0  0  0  0
 28 33  1  0  0  0  0
 28 63  1  0  0  0  0
 28 64  1  0  0  0  0
 29 40  1  0  0  0  0
 29 65  1  0  0  0  0
 29 66  1  0  0  0  0
 31 67  1  0  0  0  0
 33 69  1  0  0  0  0
 34 36  1  0  0  0  0
 34 70  1  0  0  0  0
 34 71  1  0  0  0  0
 35 36  1  0  0  0  0
 35 37  1  0  0  0  0
 35 42  2  0  0  0  0
 36 72  1  0  0  0  0
 36 73  1  0  0  0  0
 37 38  1  0  0  0  0
 37 74  1  0  0  0  0
 37 75  1  0  0  0  0
 38 39  1  0  0  0  0
 38 76  1  0  0  0  0
 38 77  1  0  0  0  0
 39 41  1  0  0  0  0
 39 78  1  0  0  0  0
 39 79  1  0  0  0  0
 41 42  1  0  0  0  0
 41 80  1  0  0  0  0
 41 81  1  0  0  0  0
 42 82  1  0  0  0  0
 43 44  1  0  0  0  0
 43 83  1  0  0  0  0
 43 84  1  0  0  0  0
 44 45  1  0  0  0  0
 44 46  1  0  0  0  0
 44 85  1  0  0  0  0
 45 87  1  0  0  0  0
 45 88  1  0  0  0  0
 45 89  1  0  0  0  0
 46 90  1  0  0  0  0
 46 91  1  0  0  0  0
 46 92  1  0  0  0  0
M  END
> <PUBCHEM_COMPOUND_CID>
507601
> <PUBCHEM_COMPOUND_CANONICALIZED>
1
> <PUBCHEM_CACTVS_COMPLEXITY>
1080
> <PUBCHEM_CACTVS_HBOND_ACCEPTOR>
9
> <PUBCHEM_CACTVS_HBOND_DONOR>
4
> <PUBCHEM_CACTVS_ROTATABLE_BOND>
17
> <PUBCHEM_CACTVS_SUBSKEYS>
AAADcfB/uYAAAAAAAAAAAAAAAAAAAWAAAAAwQAAAAAAAAAABAAAAHwAQCAAADSjhmBYyCIPABgCIAiHSGAACAAAgAAAIiIGIAIkIYDKAkTGcYAAklgCIiAe8n8KOgAAAAAAAAAAAAAAAAAAAAAAAAAAAAA==
> <PUBCHEM_IUPAC_OPENEYE_NAME>
(4S)-5-[(2S,4S)-2-[[(1S)-1-[2-(cyclohexen-1-yl)ethylcarbamoyl]-3,3-difluoro-propyl]carbamoyl]-4-phenyl-pyrrolidin-1-yl]-4-(isobutoxycarbonylamino)-5-oxo-pentanoic acid
> <PUBCHEM_IUPAC_CAS_NAME>
(4S)-5-[(2S,4S)-2-[[[(2S)-1-[2-(1-cyclohexenyl)ethylamino]-4,4-difluoro-1-oxobutan-2-yl]amino]-oxomethyl]-4-phenyl-1-pyrrolidinyl]-4-[[2-methylpropoxy(oxo)methyl]amino]-5-oxopentanoic acid
> <PUBCHEM_IUPAC_NAME_MARKUP>
(4<I>S</I>)-5-[(2<I>S</I>,4<I>S</I>)-2-[[(2<I>S</I>)-1-[2-(cyclohexen-1-yl)ethylamino]-4,4-difluoro-1-oxobutan-2-yl]carbamoyl]-4-phenylpyrrolidin-1-yl]-4-(2-methylpropoxycarbonylamino)-5-oxopentanoic acid
> <PUBCHEM_IUPAC_NAME>
(4S)-5-[(2S,4S)-2-[[(2S)-1-[2-(cyclohexen-1-yl)ethylamino]-4,4-difluoro-1-oxobutan-2-yl]carbamoyl]-4-phenylpyrrolidin-1-yl]-4-(2-methylpropoxycarbonylamino)-5-oxopentanoic acid
> <PUBCHEM_IUPAC_SYSTEMATIC_NAME>
(4S)-5-[(2S,4S)-2-[[(2S)-1-[2-(cyclohexen-1-yl)ethylamino]-4,4-bis(fluoranyl)-1-oxidanylidene-butan-2-yl]carbamoyl]-4-phenyl-pyrrolidin-1-yl]-4-(2-methylpropoxycarbonylamino)-5-oxidanylidene-pentanoic acid
> <PUBCHEM_IUPAC_TRADITIONAL_NAME>
(4S)-5-[(2S,4S)-2-[[(1S)-1-[2-(cyclohexen-1-yl)ethylcarbamoyl]-3,3-difluoro-propyl]carbamoyl]-4-phenyl-pyrrolidino]-4-(isobutoxycarbonylamino)-5-keto-valeric acid
> <PUBCHEM_IUPAC_INCHI>
InChI=1S/C33H46F2N4O7/c1-21(2)20-46-33(45)38-25(13-14-29(40)41)32(44)39-19-24(23-11-7-4-8-12-23)17-27(39)31(43)37-26(18-28(34)35)30(42)36-16-15-22-9-5-3-6-10-22/h4,7-9,11-12,21,24-28H,3,5-6,10,13-20H2,1-2H3,(H,36,42)(H,37,43)(H,38,45)(H,40,41)/t24-,25+,26+,27+/m1/s1
> <PUBCHEM_IUPAC_INCHIKEY>
LMDPQNKSRQJVOA-WKAQUBQDSA-N
> <PUBCHEM_XLOGP3_AA>
4.6
> <PUBCHEM_EXACT_MASS>
648.33345614
> <PUBCHEM_MOLECULAR_FORMULA>
C33H46F2N4O7
> <PUBCHEM_MOLECULAR_WEIGHT>
648.7
> <PUBCHEM_OPENEYE_CAN_SMILES>
CC(C)COC(=O)NC(CCC(=O)O)C(=O)N1CC(CC1C(=O)NC(CC(F)F)C(=O)NCCC2=CCCCC2)C3=CC=CC=C3
> <PUBCHEM_OPENEYE_ISO_SMILES>
CC(C)COC(=O)N[C@@H](CCC(=O)O)C(=O)N1C[C@@H](C[C@H]1C(=O)N[C@@H](CC(F)F)C(=O)NCCC2=CCCCC2)C3=CC=CC=C3
> <PUBCHEM_CACTVS_TPSA>
154
> <PUBCHEM_MONOISOTOPIC_WEIGHT>
648.33345614
> <PUBCHEM_TOTAL_CHARGE>
0
> <PUBCHEM_HEAVY_ATOM_COUNT>
46
> <PUBCHEM_ATOM_DEF_STEREO_COUNT>
4
> <PUBCHEM_ATOM_UDEF_STEREO_COUNT>
0
> <PUBCHEM_BOND_DEF_STEREO_COUNT>
0
> <PUBCHEM_BOND_UDEF_STEREO_COUNT>
0
> <PUBCHEM_ISOTOPIC_ATOM_COUNT>
0
> <PUBCHEM_COMPONENT_COUNT>
1
> <PUBCHEM_CACTVS_TAUTO_COUNT>
-1
> <PUBCHEM_COORDINATE_TYPE>
1
5
255
> <PUBCHEM_BONDANNOTATIONS>
25  11  6
21  12  5
14  18  6
15  19  5
18  22  8
18  23  8
22  26  8
23  27  8
26  31  8
27  31  8
$$$$
