507691
  -OEChem-10302200282D
 82 84  0     1  0  0  0  0  0999 V2000
    5.4641    4.1907    0.0000 F   0  0  0  0  0  0  0  0  0  0  0  0
    3.7320    4.1907    0.0000 F   0  0  0  0  0  0  0  0  0  0  0  0
    5.4641   -1.8093    0.0000 F   0  0  0  0  0  0  0  0  0  0  0  0
    2.0000   -1.8093    0.0000 F   0  0  0  0  0  0  0  0  0  0  0  0
    9.5516    4.8067    0.0000 O   0  0  0  0  0  0  0  0  0  0  0  0
    7.1962    1.1907    0.0000 O   0  0  0  0  0  0  0  0  0  0  0  0
    8.4405    0.6367    0.0000 O   0  0  0  0  0  0  0  0  0  0  0  0
   10.8778    1.6659    0.0000 O   0  0  0  0  0  0  0  0  0  0  0  0
    6.3301    0.6907    0.0000 O   0  0  0  0  0  0  0  0  0  0  0  0
    2.8660   -5.3093    0.0000 O   0  0  0  0  0  0  0  0  0  0  0  0
    4.5981   -5.3093    0.0000 O   0  0  0  0  0  0  0  0  0  0  0  0
    8.9757    2.2840    0.0000 N   0  0  0  0  0  0  0  0  0  0  0  0
    6.3301    2.6907    0.0000 N   0  0  0  0  0  0  0  0  0  0  0  0
    4.5981    0.6907    0.0000 N   0  0  0  0  0  0  0  0  0  0  0  0
    9.1448    3.8931    0.0000 C   0  0  2  0  0  0  0  0  0  0  0  0
    8.1667    3.6852    0.0000 C   0  0  0  0  0  0  0  0  0  0  0  0
    8.0622    2.6907    0.0000 C   0  0  3  0  0  0  0  0  0  0  0  0
    9.6448    3.0271    0.0000 C   0  0  0  0  0  0  0  0  0  0  0  0
   10.5461    4.9112    0.0000 C   0  0  0  0  0  0  0  0  0  0  0  0
   10.9528    5.8248    0.0000 C   0  0  0  0  0  0  0  0  0  0  0  0
   11.1339    4.1022    0.0000 C   0  0  0  0  0  0  0  0  0  0  0  0
   11.9474    5.9293    0.0000 C   0  0  0  0  0  0  0  0  0  0  0  0
   12.1284    4.2067    0.0000 C   0  0  0  0  0  0  0  0  0  0  0  0
   12.5352    5.1203    0.0000 C   0  0  0  0  0  0  0  0  0  0  0  0
    7.1962    2.1907    0.0000 C   0  0  0  0  0  0  0  0  0  0  0  0
    9.1836    1.3058    0.0000 C   0  0  0  0  0  0  0  0  0  0  0  0
   10.1347    0.9968    0.0000 C   0  0  2  0  0  0  0  0  0  0  0  0
   10.3426    0.0187    0.0000 C   0  0  0  0  0  0  0  0  0  0  0  0
    5.4641    2.1907    0.0000 C   0  0  1  0  0  0  0  0  0  0  0  0
   11.2937   -0.2904    0.0000 C   0  0  0  0  0  0  0  0  0  0  0  0
    9.5995   -0.6505    0.0000 C   0  0  0  0  0  0  0  0  0  0  0  0
    4.5981    2.6907    0.0000 C   0  0  0  0  0  0  0  0  0  0  0  0
    5.4641    1.1907    0.0000 C   0  0  0  0  0  0  0  0  0  0  0  0
    4.5981    3.6907    0.0000 C   0  0  0  0  0  0  0  0  0  0  0  0
    4.5981   -0.3093    0.0000 C   0  0  0  0  0  0  0  0  0  0  0  0
    3.7320   -0.8093    0.0000 C   0  0  0  0  0  0  0  0  0  0  0  0
    3.7320   -1.8093    0.0000 C   0  0  0  0  0  0  0  0  0  0  0  0
    4.5981   -2.3093    0.0000 C   0  0  0  0  0  0  0  0  0  0  0  0
    2.8660   -2.3093    0.0000 C   0  0  0  0  0  0  0  0  0  0  0  0
    4.5981   -3.3093    0.0000 C   0  0  0  0  0  0  0  0  0  0  0  0
    2.8660   -3.3093    0.0000 C   0  0  0  0  0  0  0  0  0  0  0  0
    3.7320   -3.8093    0.0000 C   0  0  0  0  0  0  0  0  0  0  0  0
    3.7320   -4.8093    0.0000 C   0  0  0  0  0  0  0  0  0  0  0  0
    8.7547    4.3750    0.0000 H   0  0  0  0  0  0  0  0  0  0  0  0
    8.1019    4.3018    0.0000 H   0  0  0  0  0  0  0  0  0  0  0  0
    7.5467    3.6852    0.0000 H   0  0  0  0  0  0  0  0  0  0  0  0
    8.0946    2.0716    0.0000 H   0  0  0  0  0  0  0  0  0  0  0  0
   10.0597    2.5664    0.0000 H   0  0  0  0  0  0  0  0  0  0  0  0
   10.1464    3.3915    0.0000 H   0  0  0  0  0  0  0  0  0  0  0  0
   10.1817    5.4128    0.0000 H   0  0  0  0  0  0  0  0  0  0  0  0
   10.9961    6.4432    0.0000 H   0  0  0  0  0  0  0  0  0  0  0  0
   10.3513    5.9748    0.0000 H   0  0  0  0  0  0  0  0  0  0  0  0
   10.5766    3.8304    0.0000 H   0  0  0  0  0  0  0  0  0  0  0  0
   11.3048    3.5062    0.0000 H   0  0  0  0  0  0  0  0  0  0  0  0
   12.5046    6.2011    0.0000 H   0  0  0  0  0  0  0  0  0  0  0  0
   11.7765    6.5253    0.0000 H   0  0  0  0  0  0  0  0  0  0  0  0
   12.0852    3.5882    0.0000 H   0  0  0  0  0  0  0  0  0  0  0  0
   12.7300    4.0567    0.0000 H   0  0  0  0  0  0  0  0  0  0  0  0
   13.0492    4.7736    0.0000 H   0  0  0  0  0  0  0  0  0  0  0  0
   12.9658    5.5663    0.0000 H   0  0  0  0  0  0  0  0  0  0  0  0
   10.0058    1.6033    0.0000 H   0  0  0  0  0  0  0  0  0  0  0  0
    6.3301    3.3107    0.0000 H   0  0  0  0  0  0  0  0  0  0  0  0
    9.7530    0.2103    0.0000 H   0  0  0  0  0  0  0  0  0  0  0  0
    5.4641    2.8107    0.0000 H   0  0  0  0  0  0  0  0  0  0  0  0
   11.1021   -0.8800    0.0000 H   0  0  0  0  0  0  0  0  0  0  0  0
   11.8833   -0.4819    0.0000 H   0  0  0  0  0  0  0  0  0  0  0  0
   11.4853    0.2993    0.0000 H   0  0  0  0  0  0  0  0  0  0  0  0
    9.1846   -0.1897    0.0000 H   0  0  0  0  0  0  0  0  0  0  0  0
    9.1387   -1.0653    0.0000 H   0  0  0  0  0  0  0  0  0  0  0  0
   10.0143   -1.1112    0.0000 H   0  0  0  0  0  0  0  0  0  0  0  0
    3.9875    2.7984    0.0000 H   0  0  0  0  0  0  0  0  0  0  0  0
    4.3860    2.1081    0.0000 H   0  0  0  0  0  0  0  0  0  0  0  0
   11.4675    1.4744    0.0000 H   0  0  0  0  0  0  0  0  0  0  0  0
    4.5981    4.3107    0.0000 H   0  0  0  0  0  0  0  0  0  0  0  0
    4.0611    1.0007    0.0000 H   0  0  0  0  0  0  0  0  0  0  0  0
    4.8101   -0.8919    0.0000 H   0  0  0  0  0  0  0  0  0  0  0  0
    5.2087   -0.2016    0.0000 H   0  0  0  0  0  0  0  0  0  0  0  0
    3.5200   -0.2267    0.0000 H   0  0  0  0  0  0  0  0  0  0  0  0
    3.1215   -0.9170    0.0000 H   0  0  0  0  0  0  0  0  0  0  0  0
    5.1350   -3.6193    0.0000 H   0  0  0  0  0  0  0  0  0  0  0  0
    2.3291   -3.6193    0.0000 H   0  0  0  0  0  0  0  0  0  0  0  0
    2.8660   -5.9293    0.0000 H   0  0  0  0  0  0  0  0  0  0  0  0
  1 34  1  0  0  0  0
  2 34  1  0  0  0  0
  3 38  1  0  0  0  0
  4 39  1  0  0  0  0
 15  5  1  1  0  0  0
  5 19  1  0  0  0  0
  6 25  2  0  0  0  0
  7 26  2  0  0  0  0
 27  8  1  1  0  0  0
  8 73  1  0  0  0  0
  9 33  2  0  0  0  0
 10 43  1  0  0  0  0
 10 82  1  0  0  0  0
 11 43  2  0  0  0  0
 12 17  1  0  0  0  0
 12 18  1  0  0  0  0
 12 26  1  0  0  0  0
 13 25  1  0  0  0  0
 29 13  1  6  0  0  0
 13 62  1  0  0  0  0
 14 33  1  0  0  0  0
 14 35  1  0  0  0  0
 14 75  1  0  0  0  0
 15 16  1  0  0  0  0
 15 18  1  0  0  0  0
 15 44  1  0  0  0  0
 16 17  1  0  0  0  0
 16 45  1  0  0  0  0
 16 46  1  0  0  0  0
 17 25  1  0  0  0  0
 17 47  1  0  0  0  0
 18 48  1  0  0  0  0
 18 49  1  0  0  0  0
 19 20  1  0  0  0  0
 19 21  1  0  0  0  0
 19 50  1  0  0  0  0
 20 22  1  0  0  0  0
 20 51  1  0  0  0  0
 20 52  1  0  0  0  0
 21 23  1  0  0  0  0
 21 53  1  0  0  0  0
 21 54  1  0  0  0  0
 22 24  1  0  0  0  0
 22 55  1  0  0  0  0
 22 56  1  0  0  0  0
 23 24  1  0  0  0  0
 23 57  1  0  0  0  0
 23 58  1  0  0  0  0
 24 59  1  0  0  0  0
 24 60  1  0  0  0  0
 26 27  1  0  0  0  0
 27 28  1  0  0  0  0
 27 61  1  0  0  0  0
 28 30  1  0  0  0  0
 28 31  1  0  0  0  0
 28 63  1  0  0  0  0
 29 32  1  0  0  0  0
 29 33  1  0  0  0  0
 29 64  1  0  0  0  0
 30 65  1  0  0  0  0
 30 66  1  0  0  0  0
 30 67  1  0  0  0  0
 31 68  1  0  0  0  0
 31 69  1  0  0  0  0
 31 70  1  0  0  0  0
 32 34  1  0  0  0  0
 32 71  1  0  0  0  0
 32 72  1  0  0  0  0
 34 74  1  0  0  0  0
 35 36  1  0  0  0  0
 35 76  1  0  0  0  0
 35 77  1  0  0  0  0
 36 37  1  0  0  0  0
 36 78  1  0  0  0  0
 36 79  1  0  0  0  0
 37 38  2  0  0  0  0
 37 39  1  0  0  0  0
 38 40  1  0  0  0  0
 39 41  2  0  0  0  0
 40 42  2  0  0  0  0
 40 80  1  0  0  0  0
 41 42  1  0  0  0  0
 41 81  1  0  0  0  0
 42 43  1  0  0  0  0
M  END
> <PUBCHEM_COMPOUND_CID>
507691
> <PUBCHEM_COMPOUND_CANONICALIZED>
1
> <PUBCHEM_CACTVS_COMPLEXITY>
956
> <PUBCHEM_CACTVS_HBOND_ACCEPTOR>
11
> <PUBCHEM_CACTVS_HBOND_DONOR>
4
> <PUBCHEM_CACTVS_ROTATABLE_BOND>
13
> <PUBCHEM_CACTVS_SUBSKEYS>
AAADcfB7OcAAAAAAAAAAAAAAAAAAAWAAAAAwYAAAAAAAAAABAAAAHwAQCAAADTzhmB4yCIPABgCIAiHSGAICAAAkAAAAiIHICMgKdjKAlTGXcQAm1gGYmYe6yfCOQAAAAAAAAACAAAAAAAAAAAAAAAAAAA==
> <PUBCHEM_IUPAC_OPENEYE_NAME>
4-[2-[[(2S)-2-[[(4R)-4-(cyclohexoxy)-1-[(2S)-2-hydroxy-3-methyl-butanoyl]pyrrolidine-2-carbonyl]amino]-4,4-difluoro-butanoyl]amino]ethyl]-3,5-difluoro-benzoic acid
> <PUBCHEM_IUPAC_CAS_NAME>
4-[2-[[(2S)-2-[[[(4R)-4-cyclohexyloxy-1-[(2S)-2-hydroxy-3-methyl-1-oxobutyl]-2-pyrrolidinyl]-oxomethyl]amino]-4,4-difluoro-1-oxobutyl]amino]ethyl]-3,5-difluorobenzoic acid
> <PUBCHEM_IUPAC_NAME_MARKUP>
4-[2-[[(2<I>S</I>)-2-[[(4<I>R</I>)-4-cyclohexyloxy-1-[(2<I>S</I>)-2-hydroxy-3-methylbutanoyl]pyrrolidine-2-carbonyl]amino]-4,4-difluorobutanoyl]amino]ethyl]-3,5-difluorobenzoic acid
> <PUBCHEM_IUPAC_NAME>
4-[2-[[(2S)-2-[[(4R)-4-cyclohexyloxy-1-[(2S)-2-hydroxy-3-methylbutanoyl]pyrrolidine-2-carbonyl]amino]-4,4-difluorobutanoyl]amino]ethyl]-3,5-difluorobenzoic acid
> <PUBCHEM_IUPAC_SYSTEMATIC_NAME>
4-[2-[[(2S)-2-[[(4R)-4-cyclohexyloxy-1-[(2S)-3-methyl-2-oxidanyl-butanoyl]pyrrolidin-2-yl]carbonylamino]-4,4-bis(fluoranyl)butanoyl]amino]ethyl]-3,5-bis(fluoranyl)benzoic acid
> <PUBCHEM_IUPAC_TRADITIONAL_NAME>
4-[2-[[(2S)-2-[[(4R)-4-(cyclohexoxy)-1-[(2S)-2-hydroxy-3-methyl-butanoyl]prolyl]amino]-4,4-difluoro-butanoyl]amino]ethyl]-3,5-difluoro-benzoic acid
> <PUBCHEM_IUPAC_INCHI>
InChI=1S/C29H39F4N3O7/c1-15(2)25(37)28(40)36-14-18(43-17-6-4-3-5-7-17)12-23(36)27(39)35-22(13-24(32)33)26(38)34-9-8-19-20(30)10-16(29(41)42)11-21(19)31/h10-11,15,17-18,22-25,37H,3-9,12-14H2,1-2H3,(H,34,38)(H,35,39)(H,41,42)/t18-,22+,23?,25+/m1/s1
> <PUBCHEM_IUPAC_INCHIKEY>
OFAOMLKVABQNBU-URVYHALTSA-N
> <PUBCHEM_XLOGP3_AA>
3.9
> <PUBCHEM_EXACT_MASS>
617.27241324
> <PUBCHEM_MOLECULAR_FORMULA>
C29H39F4N3O7
> <PUBCHEM_MOLECULAR_WEIGHT>
617.6
> <PUBCHEM_OPENEYE_CAN_SMILES>
CC(C)C(C(=O)N1CC(CC1C(=O)NC(CC(F)F)C(=O)NCCC2=C(C=C(C=C2F)C(=O)O)F)OC3CCCCC3)O
> <PUBCHEM_OPENEYE_ISO_SMILES>
CC(C)[C@@H](C(=O)N1C[C@@H](CC1C(=O)N[C@@H](CC(F)F)C(=O)NCCC2=C(C=C(C=C2F)C(=O)O)F)OC3CCCCC3)O
> <PUBCHEM_CACTVS_TPSA>
145
> <PUBCHEM_MONOISOTOPIC_WEIGHT>
617.27241324
> <PUBCHEM_TOTAL_CHARGE>
0
> <PUBCHEM_HEAVY_ATOM_COUNT>
43
> <PUBCHEM_ATOM_DEF_STEREO_COUNT>
3
> <PUBCHEM_ATOM_UDEF_STEREO_COUNT>
1
> <PUBCHEM_BOND_DEF_STEREO_COUNT>
0
> <PUBCHEM_BOND_UDEF_STEREO_COUNT>
0
> <PUBCHEM_ISOTOPIC_ATOM_COUNT>
0
> <PUBCHEM_COMPONENT_COUNT>
1
> <PUBCHEM_CACTVS_TAUTO_COUNT>
-1
> <PUBCHEM_COORDINATE_TYPE>
1
5
255
> <PUBCHEM_BONDANNOTATIONS>
29  13  6
17  25  3
37  38  8
37  39  8
38  40  8
39  41  8
40  42  8
41  42  8
15  5  5
27  8  5
$$$$
