507611
  -OEChem-10302200282D
 89 91  0     1  0  0  0  0  0999 V2000
    2.0000    4.7318    0.0000 Cl  0  0  0  0  0  0  0  0  0  0  0  0
    4.5981   -0.7682    0.0000 S   0  0  0  0  0  0  0  0  0  0  0  0
    5.6065   -2.6228    0.0000 O   0  0  0  0  0  0  0  0  0  0  0  0
    5.4641   -1.2682    0.0000 O   0  0  0  0  0  0  0  0  0  0  0  0
    5.4871   -6.2264    0.0000 O   0  0  0  0  0  0  0  0  0  0  0  0
    7.1813   -5.8663    0.0000 O   0  0  0  0  0  0  0  0  0  0  0  0
    6.3301    2.2318    0.0000 O   0  0  0  0  0  0  0  0  0  0  0  0
    4.5981    8.2318    0.0000 O   0  0  0  0  0  0  0  0  0  0  0  0
    2.8660    8.2318    0.0000 O   0  0  0  0  0  0  0  0  0  0  0  0
    7.3007   -2.2627    0.0000 N   0  0  0  0  0  0  0  0  0  0  0  0
    6.3301    0.2318    0.0000 N   0  0  0  0  0  0  0  0  0  0  0  0
    6.0223   -4.5791    0.0000 N   0  0  0  0  0  0  0  0  0  0  0  0
    4.5981    2.2318    0.0000 N   0  0  0  0  0  0  0  0  0  0  0  0
    8.7788   -1.6046    0.0000 C   0  0  2  0  0  0  0  0  0  0  0  0
    7.1962   -1.2682    0.0000 C   0  0  1  0  0  0  0  0  0  0  0  0
    8.1097   -0.8614    0.0000 C   0  0  0  0  0  0  0  0  0  0  0  0
    8.2788   -2.4706    0.0000 C   0  0  0  0  0  0  0  0  0  0  0  0
    9.7734   -1.5001    0.0000 C   0  0  0  0  0  0  0  0  0  0  0  0
    6.5575   -2.9318    0.0000 C   0  0  0  0  0  0  0  0  0  0  0  0
    6.3301   -0.7682    0.0000 C   0  0  0  0  0  0  0  0  0  0  0  0
    6.7654   -3.9100    0.0000 C   0  0  2  0  0  0  0  0  0  0  0  0
    7.7165   -4.2190    0.0000 C   0  0  0  0  0  0  0  0  0  0  0  0
   10.1801   -0.5865    0.0000 C   0  0  0  0  0  0  0  0  0  0  0  0
   10.3611   -2.3091    0.0000 C   0  0  0  0  0  0  0  0  0  0  0  0
    5.4641    0.7318    0.0000 C   0  0  1  0  0  0  0  0  0  0  0  0
    7.9244   -5.1972    0.0000 C   0  0  0  0  0  0  0  0  0  0  0  0
    8.4596   -3.5499    0.0000 C   0  0  0  0  0  0  0  0  0  0  0  0
   11.1746   -0.4820    0.0000 C   0  0  0  0  0  0  0  0  0  0  0  0
   11.3557   -2.2045    0.0000 C   0  0  0  0  0  0  0  0  0  0  0  0
   11.7624   -1.2910    0.0000 C   0  0  0  0  0  0  0  0  0  0  0  0
    4.5981    0.2318    0.0000 C   0  0  0  0  0  0  0  0  0  0  0  0
    6.2302   -5.5573    0.0000 C   0  0  0  0  0  0  0  0  0  0  0  0
    5.4641    1.7318    0.0000 C   0  0  0  0  0  0  0  0  0  0  0  0
    4.5981    3.2318    0.0000 C   0  0  0  0  0  0  0  0  0  0  0  0
    5.6950   -7.2045    0.0000 C   0  0  0  0  0  0  0  0  0  0  0  0
    4.9518   -7.8737    0.0000 C   0  0  0  0  0  0  0  0  0  0  0  0
    3.7320    3.7318    0.0000 C   0  0  0  0  0  0  0  0  0  0  0  0
    5.1598   -8.8518    0.0000 C   0  0  0  0  0  0  0  0  0  0  0  0
    4.0008   -7.5646    0.0000 C   0  0  0  0  0  0  0  0  0  0  0  0
    3.7320    4.7318    0.0000 C   0  0  0  0  0  0  0  0  0  0  0  0
    2.8660    5.2318    0.0000 C   0  0  0  0  0  0  0  0  0  0  0  0
    4.5981    5.2318    0.0000 C   0  0  0  0  0  0  0  0  0  0  0  0
    2.8660    6.2318    0.0000 C   0  0  0  0  0  0  0  0  0  0  0  0
    4.5981    6.2318    0.0000 C   0  0  0  0  0  0  0  0  0  0  0  0
    3.7320    6.7318    0.0000 C   0  0  0  0  0  0  0  0  0  0  0  0
    3.7320    7.7318    0.0000 C   0  0  0  0  0  0  0  0  0  0  0  0
    9.0010   -1.0258    0.0000 H   0  0  0  0  0  0  0  0  0  0  0  0
    6.6762   -1.6059    0.0000 H   0  0  0  0  0  0  0  0  0  0  0  0
    8.6113   -0.4970    0.0000 H   0  0  0  0  0  0  0  0  0  0  0  0
    7.7997   -0.3245    0.0000 H   0  0  0  0  0  0  0  0  0  0  0  0
    8.0872   -3.0603    0.0000 H   0  0  0  0  0  0  0  0  0  0  0  0
    8.8452   -2.7228    0.0000 H   0  0  0  0  0  0  0  0  0  0  0  0
    6.1758   -3.7184    0.0000 H   0  0  0  0  0  0  0  0  0  0  0  0
    7.2558   -4.6339    0.0000 H   0  0  0  0  0  0  0  0  0  0  0  0
    9.8157   -0.0849    0.0000 H   0  0  0  0  0  0  0  0  0  0  0  0
   10.1090   -2.8755    0.0000 H   0  0  0  0  0  0  0  0  0  0  0  0
    6.8671    0.5418    0.0000 H   0  0  0  0  0  0  0  0  0  0  0  0
    5.4326   -4.3875    0.0000 H   0  0  0  0  0  0  0  0  0  0  0  0
    5.4641    0.1118    0.0000 H   0  0  0  0  0  0  0  0  0  0  0  0
    7.3180   -5.3261    0.0000 H   0  0  0  0  0  0  0  0  0  0  0  0
    8.0533   -5.8036    0.0000 H   0  0  0  0  0  0  0  0  0  0  0  0
    8.5309   -5.0682    0.0000 H   0  0  0  0  0  0  0  0  0  0  0  0
    8.8745   -4.0106    0.0000 H   0  0  0  0  0  0  0  0  0  0  0  0
    8.9204   -3.1350    0.0000 H   0  0  0  0  0  0  0  0  0  0  0  0
    8.0448   -3.0891    0.0000 H   0  0  0  0  0  0  0  0  0  0  0  0
   11.4268    0.0844    0.0000 H   0  0  0  0  0  0  0  0  0  0  0  0
   11.7201   -2.7061    0.0000 H   0  0  0  0  0  0  0  0  0  0  0  0
   12.3790   -1.2262    0.0000 H   0  0  0  0  0  0  0  0  0  0  0  0
    4.3860    0.8144    0.0000 H   0  0  0  0  0  0  0  0  0  0  0  0
    3.9875    0.1242    0.0000 H   0  0  0  0  0  0  0  0  0  0  0  0
    4.0611    1.9218    0.0000 H   0  0  0  0  0  0  0  0  0  0  0  0
    4.0611   -1.0782    0.0000 H   0  0  0  0  0  0  0  0  0  0  0  0
    5.2087    3.1242    0.0000 H   0  0  0  0  0  0  0  0  0  0  0  0
    4.8101    3.8144    0.0000 H   0  0  0  0  0  0  0  0  0  0  0  0
    6.0235   -7.7303    0.0000 H   0  0  0  0  0  0  0  0  0  0  0  0
    6.2698   -6.9723    0.0000 H   0  0  0  0  0  0  0  0  0  0  0  0
    4.8229   -7.2672    0.0000 H   0  0  0  0  0  0  0  0  0  0  0  0
    3.1215    3.8395    0.0000 H   0  0  0  0  0  0  0  0  0  0  0  0
    3.5200    3.1492    0.0000 H   0  0  0  0  0  0  0  0  0  0  0  0
    4.5533   -8.9807    0.0000 H   0  0  0  0  0  0  0  0  0  0  0  0
    5.2886   -9.4583    0.0000 H   0  0  0  0  0  0  0  0  0  0  0  0
    5.7662   -8.7229    0.0000 H   0  0  0  0  0  0  0  0  0  0  0  0
    4.1924   -6.9750    0.0000 H   0  0  0  0  0  0  0  0  0  0  0  0
    3.4111   -7.3731    0.0000 H   0  0  0  0  0  0  0  0  0  0  0  0
    3.8092   -8.1543    0.0000 H   0  0  0  0  0  0  0  0  0  0  0  0
    5.1350    4.9218    0.0000 H   0  0  0  0  0  0  0  0  0  0  0  0
    2.3291    6.5418    0.0000 H   0  0  0  0  0  0  0  0  0  0  0  0
    5.1350    6.5418    0.0000 H   0  0  0  0  0  0  0  0  0  0  0  0
    4.5981    8.8518    0.0000 H   0  0  0  0  0  0  0  0  0  0  0  0
  1 41  1  0  0  0  0
  2 31  1  0  0  0  0
  2 72  1  0  0  0  0
  3 19  2  0  0  0  0
  4 20  2  0  0  0  0
  5 32  1  0  0  0  0
  5 35  1  0  0  0  0
  6 32  2  0  0  0  0
  7 33  2  0  0  0  0
  8 46  1  0  0  0  0
  8 89  1  0  0  0  0
  9 46  2  0  0  0  0
 10 15  1  0  0  0  0
 10 17  1  0  0  0  0
 10 19  1  0  0  0  0
 11 20  1  0  0  0  0
 25 11  1  1  0  0  0
 11 57  1  0  0  0  0
 21 12  1  6  0  0  0
 12 32  1  0  0  0  0
 12 58  1  0  0  0  0
 13 33  1  0  0  0  0
 13 34  1  0  0  0  0
 13 71  1  0  0  0  0
 14 16  1  0  0  0  0
 14 17  1  0  0  0  0
 14 18  1  1  0  0  0
 14 47  1  0  0  0  0
 15 16  1  0  0  0  0
 15 20  1  6  0  0  0
 15 48  1  0  0  0  0
 16 49  1  0  0  0  0
 16 50  1  0  0  0  0
 17 51  1  0  0  0  0
 17 52  1  0  0  0  0
 18 23  2  0  0  0  0
 18 24  1  0  0  0  0
 19 21  1  0  0  0  0
 21 22  1  0  0  0  0
 21 53  1  0  0  0  0
 22 26  1  0  0  0  0
 22 27  1  0  0  0  0
 22 54  1  0  0  0  0
 23 28  1  0  0  0  0
 23 55  1  0  0  0  0
 24 29  2  0  0  0  0
 24 56  1  0  0  0  0
 25 31  1  0  0  0  0
 25 33  1  0  0  0  0
 25 59  1  0  0  0  0
 26 60  1  0  0  0  0
 26 61  1  0  0  0  0
 26 62  1  0  0  0  0
 27 63  1  0  0  0  0
 27 64  1  0  0  0  0
 27 65  1  0  0  0  0
 28 30  2  0  0  0  0
 28 66  1  0  0  0  0
 29 30  1  0  0  0  0
 29 67  1  0  0  0  0
 30 68  1  0  0  0  0
 31 69  1  0  0  0  0
 31 70  1  0  0  0  0
 34 37  1  0  0  0  0
 34 73  1  0  0  0  0
 34 74  1  0  0  0  0
 35 36  1  0  0  0  0
 35 75  1  0  0  0  0
 35 76  1  0  0  0  0
 36 38  1  0  0  0  0
 36 39  1  0  0  0  0
 36 77  1  0  0  0  0
 37 40  1  0  0  0  0
 37 78  1  0  0  0  0
 37 79  1  0  0  0  0
 38 80  1  0  0  0  0
 38 81  1  0  0  0  0
 38 82  1  0  0  0  0
 39 83  1  0  0  0  0
 39 84  1  0  0  0  0
 39 85  1  0  0  0  0
 40 41  2  0  0  0  0
 40 42  1  0  0  0  0
 41 43  1  0  0  0  0
 42 44  2  0  0  0  0
 42 86  1  0  0  0  0
 43 45  2  0  0  0  0
 43 87  1  0  0  0  0
 44 45  1  0  0  0  0
 44 88  1  0  0  0  0
 45 46  1  0  0  0  0
M  END
> <PUBCHEM_COMPOUND_CID>
507611
> <PUBCHEM_COMPOUND_CANONICALIZED>
1
> <PUBCHEM_CACTVS_COMPLEXITY>
1060
> <PUBCHEM_CACTVS_HBOND_ACCEPTOR>
8
> <PUBCHEM_CACTVS_HBOND_DONOR>
5
> <PUBCHEM_CACTVS_ROTATABLE_BOND>
15
> <PUBCHEM_CACTVS_SUBSKEYS>
AAADcfB/uABEAAAAAAAAAAAAAAAAAWAAAAAwYAAAAAAAAAABQAAAHgYQCAAADSrl2CayCIPABgSIAiHSGAACAAAkBQAIiIGICskIZjKBlzGccQAk1gGImYeYyfCOwAAAIAABAACAAABAAAIAAAAAAAAAAA==
> <PUBCHEM_IUPAC_OPENEYE_NAME>
3-chloro-4-[2-[[(2R)-2-[[(2S,4S)-1-[(2S)-2-(isobutoxycarbonylamino)-3-methyl-butanoyl]-4-phenyl-pyrrolidine-2-carbonyl]amino]-3-sulfanyl-propanoyl]amino]ethyl]benzoic acid
> <PUBCHEM_IUPAC_CAS_NAME>
3-chloro-4-[2-[[(2R)-3-mercapto-2-[[[(2S,4S)-1-[(2S)-3-methyl-2-[[2-methylpropoxy(oxo)methyl]amino]-1-oxobutyl]-4-phenyl-2-pyrrolidinyl]-oxomethyl]amino]-1-oxopropyl]amino]ethyl]benzoic acid
> <PUBCHEM_IUPAC_NAME_MARKUP>
3-chloro-4-[2-[[(2<I>R</I>)-2-[[(2<I>S</I>,4<I>S</I>)-1-[(2<I>S</I>)-3-methyl-2-(2-methylpropoxycarbonylamino)butanoyl]-4-phenylpyrrolidine-2-carbonyl]amino]-3-sulfanylpropanoyl]amino]ethyl]benzoic acid
> <PUBCHEM_IUPAC_NAME>
3-chloro-4-[2-[[(2R)-2-[[(2S,4S)-1-[(2S)-3-methyl-2-(2-methylpropoxycarbonylamino)butanoyl]-4-phenylpyrrolidine-2-carbonyl]amino]-3-sulfanylpropanoyl]amino]ethyl]benzoic acid
> <PUBCHEM_IUPAC_SYSTEMATIC_NAME>
3-chloranyl-4-[2-[[(2R)-2-[[(2S,4S)-1-[(2S)-3-methyl-2-(2-methylpropoxycarbonylamino)butanoyl]-4-phenyl-pyrrolidin-2-yl]carbonylamino]-3-sulfanyl-propanoyl]amino]ethyl]benzoic acid
> <PUBCHEM_IUPAC_TRADITIONAL_NAME>
3-chloro-4-[2-[[(2R)-2-[[(2S,4S)-1-[(2S)-2-(isobutoxycarbonylamino)-3-methyl-butanoyl]-4-phenyl-prolyl]amino]-3-mercapto-propanoyl]amino]ethyl]benzoic acid
> <PUBCHEM_IUPAC_INCHI>
InChI=1S/C33H43ClN4O7S/c1-19(2)17-45-33(44)37-28(20(3)4)31(41)38-16-24(21-8-6-5-7-9-21)15-27(38)30(40)36-26(18-46)29(39)35-13-12-22-10-11-23(32(42)43)14-25(22)34/h5-11,14,19-20,24,26-28,46H,12-13,15-18H2,1-4H3,(H,35,39)(H,36,40)(H,37,44)(H,42,43)/t24-,26+,27+,28+/m1/s1
> <PUBCHEM_IUPAC_INCHIKEY>
LCJLLSNUSFKXLL-DALQOBCZSA-N
> <PUBCHEM_XLOGP3_AA>
5.2
> <PUBCHEM_EXACT_MASS>
674.2540986
> <PUBCHEM_MOLECULAR_FORMULA>
C33H43ClN4O7S
> <PUBCHEM_MOLECULAR_WEIGHT>
675.2
> <PUBCHEM_OPENEYE_CAN_SMILES>
CC(C)COC(=O)NC(C(C)C)C(=O)N1CC(CC1C(=O)NC(CS)C(=O)NCCC2=C(C=C(C=C2)C(=O)O)Cl)C3=CC=CC=C3
> <PUBCHEM_OPENEYE_ISO_SMILES>
CC(C)COC(=O)N[C@@H](C(C)C)C(=O)N1C[C@@H](C[C@H]1C(=O)N[C@@H](CS)C(=O)NCCC2=C(C=C(C=C2)C(=O)O)Cl)C3=CC=CC=C3
> <PUBCHEM_CACTVS_TPSA>
155
> <PUBCHEM_MONOISOTOPIC_WEIGHT>
674.2540986
> <PUBCHEM_TOTAL_CHARGE>
0
> <PUBCHEM_HEAVY_ATOM_COUNT>
46
> <PUBCHEM_ATOM_DEF_STEREO_COUNT>
4
> <PUBCHEM_ATOM_UDEF_STEREO_COUNT>
0
> <PUBCHEM_BOND_DEF_STEREO_COUNT>
0
> <PUBCHEM_BOND_UDEF_STEREO_COUNT>
0
> <PUBCHEM_ISOTOPIC_ATOM_COUNT>
0
> <PUBCHEM_COMPONENT_COUNT>
1
> <PUBCHEM_CACTVS_TAUTO_COUNT>
-1
> <PUBCHEM_COORDINATE_TYPE>
1
5
255
> <PUBCHEM_BONDANNOTATIONS>
25  11  5
21  12  6
14  18  5
15  20  6
18  23  8
18  24  8
23  28  8
24  29  8
28  30  8
29  30  8
40  41  8
40  42  8
41  43  8
42  44  8
43  45  8
44  45  8
$$$$
