507603
  -OEChem-10302200282D
 93 97  0     1  0  0  0  0  0999 V2000
    8.4820    5.1593    0.0000 S   0  0  0  0  0  0  0  0  0  0  0  0
    4.5353   -0.4314    0.0000 S   0  0  0  0  0  0  0  0  0  0  0  0
    8.4820    2.1593    0.0000 O   0  0  0  0  0  0  0  0  0  0  0  0
    8.3396    0.8046    0.0000 O   0  0  0  0  0  0  0  0  0  0  0  0
    7.4820    5.1593    0.0000 O   0  0  0  0  0  0  0  0  0  0  0  0
    9.4820    5.1593    0.0000 O   0  0  0  0  0  0  0  0  0  0  0  0
    6.7648   -2.4388    0.0000 O   0  0  0  0  0  0  0  0  0  0  0  0
    5.0178    5.1593    0.0000 O   0  0  0  0  0  0  0  0  0  0  0  0
    4.1518    3.6593    0.0000 O   0  0  0  0  0  0  0  0  0  0  0  0
    2.1289   -7.5875    0.0000 O   0  0  0  0  0  0  0  0  0  0  0  0
    3.8231   -7.9476    0.0000 O   0  0  0  0  0  0  0  0  0  0  0  0
    6.7499    2.1593    0.0000 N   0  0  0  0  0  0  0  0  0  0  0  0
    7.1806   -0.4825    0.0000 N   0  0  0  0  0  0  0  0  0  0  0  0
    8.4820    4.1593    0.0000 N   0  0  0  0  0  0  0  0  0  0  0  0
    5.0706   -2.0787    0.0000 N   0  0  0  0  0  0  0  0  0  0  0  0
    5.1672    1.8229    0.0000 C   0  0  2  0  0  0  0  0  0  0  0  0
    6.6454    1.1648    0.0000 C   0  0  1  0  0  0  0  0  0  0  0  0
    5.6672    0.9568    0.0000 C   0  0  0  0  0  0  0  0  0  0  0  0
    5.8364    2.5660    0.0000 C   0  0  0  0  0  0  0  0  0  0  0  0
    4.1727    1.9274    0.0000 C   0  0  0  0  0  0  0  0  0  0  0  0
    7.6159    2.6593    0.0000 C   0  0  0  0  0  0  0  0  0  0  0  0
    7.3885    0.4956    0.0000 C   0  0  0  0  0  0  0  0  0  0  0  0
    7.6159    3.6593    0.0000 C   0  0  2  0  0  0  0  0  0  0  0  0
    6.7499    4.1593    0.0000 C   0  0  0  0  0  0  0  0  0  0  0  0
    3.5849    1.1184    0.0000 C   0  0  0  0  0  0  0  0  0  0  0  0
    3.7660    2.8409    0.0000 C   0  0  0  0  0  0  0  0  0  0  0  0
    6.2296   -0.7915    0.0000 C   0  0  1  0  0  0  0  0  0  0  0  0
    5.8839    3.6593    0.0000 C   0  0  0  0  0  0  0  0  0  0  0  0
    2.5904    1.2229    0.0000 C   0  0  0  0  0  0  0  0  0  0  0  0
    2.7714    2.9455    0.0000 C   0  0  0  0  0  0  0  0  0  0  0  0
    2.1837    2.1364    0.0000 C   0  0  0  0  0  0  0  0  0  0  0  0
    5.4864   -0.1224    0.0000 C   0  0  0  0  0  0  0  0  0  0  0  0
    6.0216   -1.7697    0.0000 C   0  0  0  0  0  0  0  0  0  0  0  0
    8.4820    6.1593    0.0000 C   0  0  0  0  0  0  0  0  0  0  0  0
    5.0178    4.1593    0.0000 C   0  0  0  0  0  0  0  0  0  0  0  0
    9.3480    6.6593    0.0000 C   0  0  0  0  0  0  0  0  0  0  0  0
    7.6159    6.6593    0.0000 C   0  0  0  0  0  0  0  0  0  0  0  0
    9.3480    7.6593    0.0000 C   0  0  0  0  0  0  0  0  0  0  0  0
    4.8627   -3.0569    0.0000 C   0  0  0  0  0  0  0  0  0  0  0  0
    7.6159    7.6593    0.0000 C   0  0  0  0  0  0  0  0  0  0  0  0
   10.2419    6.1246    0.0000 C   0  0  0  0  0  0  0  0  0  0  0  0
    8.4820    8.1593    0.0000 C   0  0  0  0  0  0  0  0  0  0  0  0
    3.9116   -3.3659    0.0000 C   0  0  0  0  0  0  0  0  0  0  0  0
   10.2419    8.1939    0.0000 C   0  0  0  0  0  0  0  0  0  0  0  0
   11.1480    6.6385    0.0000 C   0  0  0  0  0  0  0  0  0  0  0  0
   11.1480    7.6801    0.0000 C   0  0  0  0  0  0  0  0  0  0  0  0
    3.7037   -4.3440    0.0000 C   0  0  0  0  0  0  0  0  0  0  0  0
    4.4468   -5.0132    0.0000 C   0  0  0  0  0  0  0  0  0  0  0  0
    2.7526   -4.6530    0.0000 C   0  0  0  0  0  0  0  0  0  0  0  0
    4.2389   -5.9913    0.0000 C   0  0  0  0  0  0  0  0  0  0  0  0
    2.5447   -5.6312    0.0000 C   0  0  0  0  0  0  0  0  0  0  0  0
    3.2879   -6.3003    0.0000 C   0  0  0  0  0  0  0  0  0  0  0  0
    3.0800   -7.2785    0.0000 C   0  0  0  0  0  0  0  0  0  0  0  0
    4.9450    2.4017    0.0000 H   0  0  0  0  0  0  0  0  0  0  0  0
    7.2242    1.3869    0.0000 H   0  0  0  0  0  0  0  0  0  0  0  0
    5.1008    0.7047    0.0000 H   0  0  0  0  0  0  0  0  0  0  0  0
    5.8588    0.3672    0.0000 H   0  0  0  0  0  0  0  0  0  0  0  0
    6.1464    3.1029    0.0000 H   0  0  0  0  0  0  0  0  0  0  0  0
    5.3348    2.9304    0.0000 H   0  0  0  0  0  0  0  0  0  0  0  0
    8.1529    3.3493    0.0000 H   0  0  0  0  0  0  0  0  0  0  0  0
    7.1484    4.6342    0.0000 H   0  0  0  0  0  0  0  0  0  0  0  0
    6.3514    4.6342    0.0000 H   0  0  0  0  0  0  0  0  0  0  0  0
    3.8371    0.5520    0.0000 H   0  0  0  0  0  0  0  0  0  0  0  0
    4.1304    3.3425    0.0000 H   0  0  0  0  0  0  0  0  0  0  0  0
    7.6414   -0.8974    0.0000 H   0  0  0  0  0  0  0  0  0  0  0  0
    9.0189    3.8493    0.0000 H   0  0  0  0  0  0  0  0  0  0  0  0
    6.6903   -1.2064    0.0000 H   0  0  0  0  0  0  0  0  0  0  0  0
    5.4853    3.1843    0.0000 H   0  0  0  0  0  0  0  0  0  0  0  0
    6.2824    3.1843    0.0000 H   0  0  0  0  0  0  0  0  0  0  0  0
    2.2260    0.7213    0.0000 H   0  0  0  0  0  0  0  0  0  0  0  0
    2.5193    3.5119    0.0000 H   0  0  0  0  0  0  0  0  0  0  0  0
    1.5670    2.2013    0.0000 H   0  0  0  0  0  0  0  0  0  0  0  0
    5.9750    0.2593    0.0000 H   0  0  0  0  0  0  0  0  0  0  0  0
    5.1953    0.4250    0.0000 H   0  0  0  0  0  0  0  0  0  0  0  0
    4.6098   -1.6638    0.0000 H   0  0  0  0  0  0  0  0  0  0  0  0
    7.0790    6.3493    0.0000 H   0  0  0  0  0  0  0  0  0  0  0  0
    4.0746   -0.0166    0.0000 H   0  0  0  0  0  0  0  0  0  0  0  0
    4.9490   -3.6708    0.0000 H   0  0  0  0  0  0  0  0  0  0  0  0
    5.4823   -3.0785    0.0000 H   0  0  0  0  0  0  0  0  0  0  0  0
    7.0790    7.9693    0.0000 H   0  0  0  0  0  0  0  0  0  0  0  0
   10.2347    5.5046    0.0000 H   0  0  0  0  0  0  0  0  0  0  0  0
    8.4820    8.7793    0.0000 H   0  0  0  0  0  0  0  0  0  0  0  0
    4.4809    5.4693    0.0000 H   0  0  0  0  0  0  0  0  0  0  0  0
    3.8253   -2.7519    0.0000 H   0  0  0  0  0  0  0  0  0  0  0  0
    3.2920   -3.3442    0.0000 H   0  0  0  0  0  0  0  0  0  0  0  0
   10.2347    8.8139    0.0000 H   0  0  0  0  0  0  0  0  0  0  0  0
   11.6837    6.3264    0.0000 H   0  0  0  0  0  0  0  0  0  0  0  0
   11.6837    7.9922    0.0000 H   0  0  0  0  0  0  0  0  0  0  0  0
    5.0365   -4.8216    0.0000 H   0  0  0  0  0  0  0  0  0  0  0  0
    2.2919   -4.2382    0.0000 H   0  0  0  0  0  0  0  0  0  0  0  0
    4.6997   -6.4062    0.0000 H   0  0  0  0  0  0  0  0  0  0  0  0
    1.9551   -5.8228    0.0000 H   0  0  0  0  0  0  0  0  0  0  0  0
    2.0000   -8.1939    0.0000 H   0  0  0  0  0  0  0  0  0  0  0  0
  1  5  2  0  0  0  0
  1  6  2  0  0  0  0
  1 14  1  0  0  0  0
  1 34  1  0  0  0  0
  2 32  1  0  0  0  0
  2 77  1  0  0  0  0
  3 21  2  0  0  0  0
  4 22  2  0  0  0  0
  7 33  2  0  0  0  0
  8 35  1  0  0  0  0
  8 83  1  0  0  0  0
  9 35  2  0  0  0  0
 10 53  1  0  0  0  0
 10 93  1  0  0  0  0
 11 53  2  0  0  0  0
 12 17  1  0  0  0  0
 12 19  1  0  0  0  0
 12 21  1  0  0  0  0
 13 22  1  0  0  0  0
 27 13  1  6  0  0  0
 13 65  1  0  0  0  0
 23 14  1  6  0  0  0
 14 66  1  0  0  0  0
 15 33  1  0  0  0  0
 15 39  1  0  0  0  0
 15 75  1  0  0  0  0
 16 18  1  0  0  0  0
 16 19  1  0  0  0  0
 16 20  1  1  0  0  0
 16 54  1  0  0  0  0
 17 18  1  0  0  0  0
 17 22  1  6  0  0  0
 17 55  1  0  0  0  0
 18 56  1  0  0  0  0
 18 57  1  0  0  0  0
 19 58  1  0  0  0  0
 19 59  1  0  0  0  0
 20 25  2  0  0  0  0
 20 26  1  0  0  0  0
 21 23  1  0  0  0  0
 23 24  1  0  0  0  0
 23 60  1  0  0  0  0
 24 28  1  0  0  0  0
 24 61  1  0  0  0  0
 24 62  1  0  0  0  0
 25 29  1  0  0  0  0
 25 63  1  0  0  0  0
 26 30  2  0  0  0  0
 26 64  1  0  0  0  0
 27 32  1  0  0  0  0
 27 33  1  0  0  0  0
 27 67  1  0  0  0  0
 28 35  1  0  0  0  0
 28 68  1  0  0  0  0
 28 69  1  0  0  0  0
 29 31  2  0  0  0  0
 29 70  1  0  0  0  0
 30 31  1  0  0  0  0
 30 71  1  0  0  0  0
 31 72  1  0  0  0  0
 32 73  1  0  0  0  0
 32 74  1  0  0  0  0
 34 36  1  0  0  0  0
 34 37  2  0  0  0  0
 36 38  1  0  0  0  0
 36 41  2  0  0  0  0
 37 40  1  0  0  0  0
 37 76  1  0  0  0  0
 38 42  1  0  0  0  0
 38 44  2  0  0  0  0
 39 43  1  0  0  0  0
 39 78  1  0  0  0  0
 39 79  1  0  0  0  0
 40 42  2  0  0  0  0
 40 80  1  0  0  0  0
 41 45  1  0  0  0  0
 41 81  1  0  0  0  0
 42 82  1  0  0  0  0
 43 47  1  0  0  0  0
 43 84  1  0  0  0  0
 43 85  1  0  0  0  0
 44 46  1  0  0  0  0
 44 86  1  0  0  0  0
 45 46  2  0  0  0  0
 45 87  1  0  0  0  0
 46 88  1  0  0  0  0
 47 48  2  0  0  0  0
 47 49  1  0  0  0  0
 48 50  1  0  0  0  0
 48 89  1  0  0  0  0
 49 51  2  0  0  0  0
 49 90  1  0  0  0  0
 50 52  2  0  0  0  0
 50 91  1  0  0  0  0
 51 52  1  0  0  0  0
 51 92  1  0  0  0  0
 52 53  1  0  0  0  0
M  END
> <PUBCHEM_COMPOUND_CID>
507603
> <PUBCHEM_COMPOUND_CANONICALIZED>
1
> <PUBCHEM_CACTVS_COMPLEXITY>
1390
> <PUBCHEM_CACTVS_HBOND_ACCEPTOR>
11
> <PUBCHEM_CACTVS_HBOND_DONOR>
6
> <PUBCHEM_CACTVS_ROTATABLE_BOND>
16
> <PUBCHEM_CACTVS_SUBSKEYS>
AAADcfB/vABgAAAAAAAAAAAAAAAAAWAAAAAwYMGAAAAAAADBVAAAHgQQSAAADSjF2ASwCcPAAgaIAiHSGHBCABAkAAAIiJmICMgIZjKAlTGUcQAk1gGImYe83/KOwAAAgAAUAACAAAEAACgAAAAAAAAAAA==
> <PUBCHEM_IUPAC_OPENEYE_NAME>
4-[2-[[(2R)-2-[[(2S,4S)-1-[(2S)-4-carboxy-2-(1-naphthylsulfonylamino)butanoyl]-4-phenyl-pyrrolidine-2-carbonyl]amino]-3-sulfanyl-propanoyl]amino]ethyl]benzoic acid
> <PUBCHEM_IUPAC_CAS_NAME>
4-[2-[[(2R)-2-[[[(2S,4S)-1-[(2S)-4-carboxy-2-(1-naphthalenylsulfonylamino)-1-oxobutyl]-4-phenyl-2-pyrrolidinyl]-oxomethyl]amino]-3-mercapto-1-oxopropyl]amino]ethyl]benzoic acid
> <PUBCHEM_IUPAC_NAME_MARKUP>
4-[2-[[(2<I>R</I>)-2-[[(2<I>S</I>,4<I>S</I>)-1-[(2<I>S</I>)-4-carboxy-2-(naphthalen-1-ylsulfonylamino)butanoyl]-4-phenylpyrrolidine-2-carbonyl]amino]-3-sulfanylpropanoyl]amino]ethyl]benzoic acid
> <PUBCHEM_IUPAC_NAME>
4-[2-[[(2R)-2-[[(2S,4S)-1-[(2S)-4-carboxy-2-(naphthalen-1-ylsulfonylamino)butanoyl]-4-phenylpyrrolidine-2-carbonyl]amino]-3-sulfanylpropanoyl]amino]ethyl]benzoic acid
> <PUBCHEM_IUPAC_SYSTEMATIC_NAME>
4-[2-[[(2R)-2-[[(2S,4S)-1-[(2S)-2-(naphthalen-1-ylsulfonylamino)-5-oxidanyl-5-oxidanylidene-pentanoyl]-4-phenyl-pyrrolidin-2-yl]carbonylamino]-3-sulfanyl-propanoyl]amino]ethyl]benzoic acid
> <PUBCHEM_IUPAC_TRADITIONAL_NAME>
4-[2-[[(2R)-2-[[(2S,4S)-1-[(2S)-4-carboxy-2-(1-naphthylsulfonylamino)butanoyl]-4-phenyl-prolyl]amino]-3-mercapto-propanoyl]amino]ethyl]benzoic acid
> <PUBCHEM_IUPAC_INCHI>
InChI=1S/C38H40N4O9S2/c43-34(44)18-17-30(41-53(50,51)33-12-6-10-26-9-4-5-11-29(26)33)37(47)42-22-28(25-7-2-1-3-8-25)21-32(42)36(46)40-31(23-52)35(45)39-20-19-24-13-15-27(16-14-24)38(48)49/h1-16,28,30-32,41,52H,17-23H2,(H,39,45)(H,40,46)(H,43,44)(H,48,49)/t28-,30+,31+,32+/m1/s1
> <PUBCHEM_IUPAC_INCHIKEY>
XGULUQRWMXGUDG-DNUNIWOASA-N
> <PUBCHEM_XLOGP3_AA>
4
> <PUBCHEM_EXACT_MASS>
760.22367121
> <PUBCHEM_MOLECULAR_FORMULA>
C38H40N4O9S2
> <PUBCHEM_MOLECULAR_WEIGHT>
760.9
> <PUBCHEM_OPENEYE_CAN_SMILES>
C1C(CN(C1C(=O)NC(CS)C(=O)NCCC2=CC=C(C=C2)C(=O)O)C(=O)C(CCC(=O)O)NS(=O)(=O)C3=CC=CC4=CC=CC=C43)C5=CC=CC=C5
> <PUBCHEM_OPENEYE_ISO_SMILES>
C1[C@H](CN([C@@H]1C(=O)N[C@@H](CS)C(=O)NCCC2=CC=C(C=C2)C(=O)O)C(=O)[C@H](CCC(=O)O)NS(=O)(=O)C3=CC=CC4=CC=CC=C43)C5=CC=CC=C5
> <PUBCHEM_CACTVS_TPSA>
209
> <PUBCHEM_MONOISOTOPIC_WEIGHT>
760.22367121
> <PUBCHEM_TOTAL_CHARGE>
0
> <PUBCHEM_HEAVY_ATOM_COUNT>
53
> <PUBCHEM_ATOM_DEF_STEREO_COUNT>
4
> <PUBCHEM_ATOM_UDEF_STEREO_COUNT>
0
> <PUBCHEM_BOND_DEF_STEREO_COUNT>
0
> <PUBCHEM_BOND_UDEF_STEREO_COUNT>
0
> <PUBCHEM_ISOTOPIC_ATOM_COUNT>
0
> <PUBCHEM_COMPONENT_COUNT>
1
> <PUBCHEM_CACTVS_TAUTO_COUNT>
-1
> <PUBCHEM_COORDINATE_TYPE>
1
5
255
> <PUBCHEM_BONDANNOTATIONS>
27  13  6
23  14  6
16  20  5
17  22  6
20  25  8
20  26  8
25  29  8
26  30  8
29  31  8
30  31  8
34  36  8
34  37  8
36  38  8
36  41  8
37  40  8
38  42  8
38  44  8
40  42  8
41  45  8
44  46  8
45  46  8
47  48  8
47  49  8
48  50  8
49  51  8
50  52  8
51  52  8
$$$$
