507660
  -OEChem-10302200282D
105108  0     1  0  0  0  0  0999 V2000
    2.0000   -1.2215    0.0000 Cl  0  0  0  0  0  0  0  0  0  0  0  0
    7.1962   -7.2215    0.0000 Cl  0  0  0  0  0  0  0  0  0  0  0  0
    3.7320    4.7785    0.0000 F   0  0  0  0  0  0  0  0  0  0  0  0
    5.4641    4.7785    0.0000 F   0  0  0  0  0  0  0  0  0  0  0  0
    8.4405    1.2244    0.0000 O   0  0  0  0  0  0  0  0  0  0  0  0
    7.1962    1.7785    0.0000 O   0  0  0  0  0  0  0  0  0  0  0  0
   11.5016   -0.6807    0.0000 O   0  0  0  0  0  0  0  0  0  0  0  0
    6.3301    1.2785    0.0000 O   0  0  0  0  0  0  0  0  0  0  0  0
   12.0368    0.9665    0.0000 O   0  0  0  0  0  0  0  0  0  0  0  0
    5.4641   -3.2215    0.0000 O   0  0  0  0  0  0  0  0  0  0  0  0
    4.5981   -5.7215    0.0000 O   0  0  0  0  0  0  0  0  0  0  0  0
    3.7320   -4.2215    0.0000 O   0  0  0  0  0  0  0  0  0  0  0  0
    8.9757    2.8717    0.0000 N   0  0  0  0  0  0  0  0  0  0  0  0
    6.3301    3.2785    0.0000 N   0  0  0  0  0  0  0  0  0  0  0  0
   10.3426    0.6064    0.0000 N   0  0  0  0  0  0  0  0  0  0  0  0
    4.5981    1.2785    0.0000 N   0  0  0  0  0  0  0  0  0  0  0  0
    9.1448    4.4809    0.0000 C   0  0  2  0  0  0  0  0  0  0  0  0
    8.0622    3.2785    0.0000 C   0  0  1  0  0  0  0  0  0  0  0  0
    8.1667    4.2730    0.0000 C   0  0  0  0  0  0  0  0  0  0  0  0
    9.6448    3.6149    0.0000 C   0  0  0  0  0  0  0  0  0  0  0  0
    9.5516    5.3944    0.0000 C   0  0  0  0  0  0  0  0  0  0  0  0
    9.1836    1.8936    0.0000 C   0  0  0  0  0  0  0  0  0  0  0  0
    7.1962    2.7785    0.0000 C   0  0  0  0  0  0  0  0  0  0  0  0
   10.1347    1.5846    0.0000 C   0  0  2  0  0  0  0  0  0  0  0  0
   10.8778    2.2537    0.0000 C   0  0  0  0  0  0  0  0  0  0  0  0
   10.5461    5.4990    0.0000 C   0  0  0  0  0  0  0  0  0  0  0  0
    8.9638    6.2035    0.0000 C   0  0  0  0  0  0  0  0  0  0  0  0
    5.4641    2.7785    0.0000 C   0  0  1  0  0  0  0  0  0  0  0  0
   11.8289    1.9447    0.0000 C   0  0  0  0  0  0  0  0  0  0  0  0
   10.6699    3.2318    0.0000 C   0  0  0  0  0  0  0  0  0  0  0  0
   10.9528    6.4125    0.0000 C   0  0  0  0  0  0  0  0  0  0  0  0
    9.3705    7.1170    0.0000 C   0  0  0  0  0  0  0  0  0  0  0  0
    4.5981    3.2785    0.0000 C   0  0  0  0  0  0  0  0  0  0  0  0
   10.3651    7.2215    0.0000 C   0  0  0  0  0  0  0  0  0  0  0  0
    5.4641    1.7785    0.0000 C   0  0  0  0  0  0  0  0  0  0  0  0
   11.2937    0.2974    0.0000 C   0  0  0  0  0  0  0  0  0  0  0  0
    4.5981    4.2785    0.0000 C   0  0  0  0  0  0  0  0  0  0  0  0
    4.5981    0.2785    0.0000 C   0  0  0  0  0  0  0  0  0  0  0  0
   12.4526   -0.9898    0.0000 C   0  0  0  0  0  0  0  0  0  0  0  0
    3.7320   -0.2215    0.0000 C   0  0  0  0  0  0  0  0  0  0  0  0
   12.6605   -1.9679    0.0000 C   0  0  0  0  0  0  0  0  0  0  0  0
    3.7320   -1.2215    0.0000 C   0  0  0  0  0  0  0  0  0  0  0  0
   13.6116   -2.2769    0.0000 C   0  0  0  0  0  0  0  0  0  0  0  0
   11.9174   -2.6370    0.0000 C   0  0  0  0  0  0  0  0  0  0  0  0
    4.5981   -1.7215    0.0000 C   0  0  0  0  0  0  0  0  0  0  0  0
    2.8660   -1.7215    0.0000 C   0  0  0  0  0  0  0  0  0  0  0  0
    4.5981   -2.7215    0.0000 C   0  0  0  0  0  0  0  0  0  0  0  0
    2.8660   -2.7215    0.0000 C   0  0  0  0  0  0  0  0  0  0  0  0
    3.7320   -3.2215    0.0000 C   0  0  0  0  0  0  0  0  0  0  0  0
    5.4641   -4.2215    0.0000 C   0  0  3  0  0  0  0  0  0  0  0  0
    6.3301   -4.7215    0.0000 C   0  0  0  0  0  0  0  0  0  0  0  0
    4.5981   -4.7215    0.0000 C   0  0  0  0  0  0  0  0  0  0  0  0
    6.3301   -5.7215    0.0000 C   0  0  0  0  0  0  0  0  0  0  0  0
    7.1962   -4.2215    0.0000 C   0  0  0  0  0  0  0  0  0  0  0  0
    7.1962   -6.2215    0.0000 C   0  0  0  0  0  0  0  0  0  0  0  0
    8.0622   -4.7215    0.0000 C   0  0  0  0  0  0  0  0  0  0  0  0
    8.0622   -5.7215    0.0000 C   0  0  0  0  0  0  0  0  0  0  0  0
    8.7547    4.9627    0.0000 H   0  0  0  0  0  0  0  0  0  0  0  0
    8.0946    2.6593    0.0000 H   0  0  0  0  0  0  0  0  0  0  0  0
    8.1019    4.8896    0.0000 H   0  0  0  0  0  0  0  0  0  0  0  0
    7.5467    4.2730    0.0000 H   0  0  0  0  0  0  0  0  0  0  0  0
   10.0597    3.1541    0.0000 H   0  0  0  0  0  0  0  0  0  0  0  0
   10.1464    3.9793    0.0000 H   0  0  0  0  0  0  0  0  0  0  0  0
    9.6739    1.1697    0.0000 H   0  0  0  0  0  0  0  0  0  0  0  0
   11.0067    1.6472    0.0000 H   0  0  0  0  0  0  0  0  0  0  0  0
    6.3301    3.8985    0.0000 H   0  0  0  0  0  0  0  0  0  0  0  0
   10.9105    4.9974    0.0000 H   0  0  0  0  0  0  0  0  0  0  0  0
    8.3472    6.1386    0.0000 H   0  0  0  0  0  0  0  0  0  0  0  0
    5.4641    3.3985    0.0000 H   0  0  0  0  0  0  0  0  0  0  0  0
    9.8818    0.1916    0.0000 H   0  0  0  0  0  0  0  0  0  0  0  0
   11.6373    1.3550    0.0000 H   0  0  0  0  0  0  0  0  0  0  0  0
   12.4185    1.7531    0.0000 H   0  0  0  0  0  0  0  0  0  0  0  0
   12.0205    2.5343    0.0000 H   0  0  0  0  0  0  0  0  0  0  0  0
   11.2764    3.3608    0.0000 H   0  0  0  0  0  0  0  0  0  0  0  0
   10.5410    3.8383    0.0000 H   0  0  0  0  0  0  0  0  0  0  0  0
   10.0635    3.1029    0.0000 H   0  0  0  0  0  0  0  0  0  0  0  0
   11.5695    6.4773    0.0000 H   0  0  0  0  0  0  0  0  0  0  0  0
    9.0061    7.6186    0.0000 H   0  0  0  0  0  0  0  0  0  0  0  0
    3.9875    3.3861    0.0000 H   0  0  0  0  0  0  0  0  0  0  0  0
    4.3860    2.6959    0.0000 H   0  0  0  0  0  0  0  0  0  0  0  0
   10.6172    7.7879    0.0000 H   0  0  0  0  0  0  0  0  0  0  0  0
    4.5981    4.8985    0.0000 H   0  0  0  0  0  0  0  0  0  0  0  0
    4.0611    1.5885    0.0000 H   0  0  0  0  0  0  0  0  0  0  0  0
    4.8101   -0.3041    0.0000 H   0  0  0  0  0  0  0  0  0  0  0  0
    5.2087    0.3861    0.0000 H   0  0  0  0  0  0  0  0  0  0  0  0
   13.0723   -0.9681    0.0000 H   0  0  0  0  0  0  0  0  0  0  0  0
   12.5389   -0.3758    0.0000 H   0  0  0  0  0  0  0  0  0  0  0  0
    3.5200    0.3611    0.0000 H   0  0  0  0  0  0  0  0  0  0  0  0
    3.1215   -0.3292    0.0000 H   0  0  0  0  0  0  0  0  0  0  0  0
   12.0709   -1.7763    0.0000 H   0  0  0  0  0  0  0  0  0  0  0  0
   13.4200   -2.8666    0.0000 H   0  0  0  0  0  0  0  0  0  0  0  0
   14.2013   -2.4685    0.0000 H   0  0  0  0  0  0  0  0  0  0  0  0
   13.8032   -1.6873    0.0000 H   0  0  0  0  0  0  0  0  0  0  0  0
   11.5025   -2.1763    0.0000 H   0  0  0  0  0  0  0  0  0  0  0  0
   11.4566   -3.0519    0.0000 H   0  0  0  0  0  0  0  0  0  0  0  0
   12.3323   -3.0978    0.0000 H   0  0  0  0  0  0  0  0  0  0  0  0
    5.1350   -1.4115    0.0000 H   0  0  0  0  0  0  0  0  0  0  0  0
    2.3291   -3.0315    0.0000 H   0  0  0  0  0  0  0  0  0  0  0  0
    3.7320   -3.8415    0.0000 H   0  0  0  0  0  0  0  0  0  0  0  0
    6.0010   -3.9115    0.0000 H   0  0  0  0  0  0  0  0  0  0  0  0
    5.7932   -6.0315    0.0000 H   0  0  0  0  0  0  0  0  0  0  0  0
    7.1962   -3.6015    0.0000 H   0  0  0  0  0  0  0  0  0  0  0  0
    8.5991   -4.4115    0.0000 H   0  0  0  0  0  0  0  0  0  0  0  0
    8.5991   -6.0315    0.0000 H   0  0  0  0  0  0  0  0  0  0  0  0
    4.0611   -6.0315    0.0000 H   0  0  0  0  0  0  0  0  0  0  0  0
  1 46  1  0  0  0  0
  2 55  1  0  0  0  0
  3 37  1  0  0  0  0
  4 37  1  0  0  0  0
  5 22  2  0  0  0  0
  6 23  2  0  0  0  0
  7 36  1  0  0  0  0
  7 39  1  0  0  0  0
  8 35  2  0  0  0  0
  9 36  2  0  0  0  0
 10 47  1  0  0  0  0
 10 50  1  0  0  0  0
 11 52  1  0  0  0  0
 11105  1  0  0  0  0
 12 52  2  0  0  0  0
 13 18  1  0  0  0  0
 13 20  1  0  0  0  0
 13 22  1  0  0  0  0
 14 23  1  0  0  0  0
 28 14  1  6  0  0  0
 14 66  1  0  0  0  0
 24 15  1  6  0  0  0
 15 36  1  0  0  0  0
 15 70  1  0  0  0  0
 16 35  1  0  0  0  0
 16 38  1  0  0  0  0
 16 83  1  0  0  0  0
 17 19  1  0  0  0  0
 17 20  1  0  0  0  0
 17 21  1  1  0  0  0
 17 58  1  0  0  0  0
 18 19  1  0  0  0  0
 18 23  1  6  0  0  0
 18 59  1  0  0  0  0
 19 60  1  0  0  0  0
 19 61  1  0  0  0  0
 20 62  1  0  0  0  0
 20 63  1  0  0  0  0
 21 26  2  0  0  0  0
 21 27  1  0  0  0  0
 22 24  1  0  0  0  0
 24 25  1  0  0  0  0
 24 64  1  0  0  0  0
 25 29  1  0  0  0  0
 25 30  1  0  0  0  0
 25 65  1  0  0  0  0
 26 31  1  0  0  0  0
 26 67  1  0  0  0  0
 27 32  2  0  0  0  0
 27 68  1  0  0  0  0
 28 33  1  0  0  0  0
 28 35  1  0  0  0  0
 28 69  1  0  0  0  0
 29 71  1  0  0  0  0
 29 72  1  0  0  0  0
 29 73  1  0  0  0  0
 30 74  1  0  0  0  0
 30 75  1  0  0  0  0
 30 76  1  0  0  0  0
 31 34  2  0  0  0  0
 31 77  1  0  0  0  0
 32 34  1  0  0  0  0
 32 78  1  0  0  0  0
 33 37  1  0  0  0  0
 33 79  1  0  0  0  0
 33 80  1  0  0  0  0
 34 81  1  0  0  0  0
 37 82  1  0  0  0  0
 38 40  1  0  0  0  0
 38 84  1  0  0  0  0
 38 85  1  0  0  0  0
 39 41  1  0  0  0  0
 39 86  1  0  0  0  0
 39 87  1  0  0  0  0
 40 42  1  0  0  0  0
 40 88  1  0  0  0  0
 40 89  1  0  0  0  0
 41 43  1  0  0  0  0
 41 44  1  0  0  0  0
 41 90  1  0  0  0  0
 42 45  1  0  0  0  0
 42 46  2  0  0  0  0
 43 91  1  0  0  0  0
 43 92  1  0  0  0  0
 43 93  1  0  0  0  0
 44 94  1  0  0  0  0
 44 95  1  0  0  0  0
 44 96  1  0  0  0  0
 45 47  2  0  0  0  0
 45 97  1  0  0  0  0
 46 48  1  0  0  0  0
 47 49  1  0  0  0  0
 48 49  2  0  0  0  0
 48 98  1  0  0  0  0
 49 99  1  0  0  0  0
 50 51  1  0  0  0  0
 50 52  1  0  0  0  0
 50100  1  0  0  0  0
 51 53  2  0  0  0  0
 51 54  1  0  0  0  0
 53 55  1  0  0  0  0
 53101  1  0  0  0  0
 54 56  2  0  0  0  0
 54102  1  0  0  0  0
 55 57  2  0  0  0  0
 56 57  1  0  0  0  0
 56103  1  0  0  0  0
 57104  1  0  0  0  0
M  END
> <PUBCHEM_COMPOUND_CID>
507660
> <PUBCHEM_COMPOUND_CANONICALIZED>
1
> <PUBCHEM_CACTVS_COMPLEXITY>
1340
> <PUBCHEM_CACTVS_HBOND_ACCEPTOR>
10
> <PUBCHEM_CACTVS_HBOND_DONOR>
4
> <PUBCHEM_CACTVS_ROTATABLE_BOND>
19
> <PUBCHEM_CACTVS_SUBSKEYS>
AAADcfB/vYAGAAAAAAAAAAAAAAAAAWAAAAAwYMAAAAAAAAABUAAAHwIQCAAADT7hmDYyDoPABgCIAiHSGAICCAAgJQAIiIHOCokNZjKFtz+eeCCk1hGLqAeY2fKOgCABIAABAAAAQAJAAAIAAAAAAAAAAA==
> <PUBCHEM_IUPAC_OPENEYE_NAME>
2-[4-chloro-3-[2-[[(2S)-4,4-difluoro-2-[[(2S,4S)-1-[(2S)-2-(isobutoxycarbonylamino)-3-methyl-butanoyl]-4-phenyl-pyrrolidine-2-carbonyl]amino]butanoyl]amino]ethyl]phenoxy]-2-(3-chlorophenyl)acetic acid
> <PUBCHEM_IUPAC_CAS_NAME>
2-[4-chloro-3-[2-[[(2S)-4,4-difluoro-2-[[[(2S,4S)-1-[(2S)-3-methyl-2-[[2-methylpropoxy(oxo)methyl]amino]-1-oxobutyl]-4-phenyl-2-pyrrolidinyl]-oxomethyl]amino]-1-oxobutyl]amino]ethyl]phenoxy]-2-(3-chlorophenyl)acetic acid
> <PUBCHEM_IUPAC_NAME_MARKUP>
2-[4-chloro-3-[2-[[(2<I>S</I>)-4,4-difluoro-2-[[(2<I>S</I>,4<I>S</I>)-1-[(2<I>S</I>)-3-methyl-2-(2-methylpropoxycarbonylamino)butanoyl]-4-phenylpyrrolidine-2-carbonyl]amino]butanoyl]amino]ethyl]phenoxy]-2-(3-chlorophenyl)acetic acid
> <PUBCHEM_IUPAC_NAME>
2-[4-chloro-3-[2-[[(2S)-4,4-difluoro-2-[[(2S,4S)-1-[(2S)-3-methyl-2-(2-methylpropoxycarbonylamino)butanoyl]-4-phenylpyrrolidine-2-carbonyl]amino]butanoyl]amino]ethyl]phenoxy]-2-(3-chlorophenyl)acetic acid
> <PUBCHEM_IUPAC_SYSTEMATIC_NAME>
2-[3-[2-[[(2S)-4,4-bis(fluoranyl)-2-[[(2S,4S)-1-[(2S)-3-methyl-2-(2-methylpropoxycarbonylamino)butanoyl]-4-phenyl-pyrrolidin-2-yl]carbonylamino]butanoyl]amino]ethyl]-4-chloranyl-phenoxy]-2-(3-chlorophenyl)ethanoic acid
> <PUBCHEM_IUPAC_TRADITIONAL_NAME>
2-[4-chloro-3-[2-[[(2S)-4,4-difluoro-2-[[(2S,4S)-1-[(2S)-2-(isobutoxycarbonylamino)-3-methyl-butanoyl]-4-phenyl-prolyl]amino]butanoyl]amino]ethyl]phenoxy]-2-(3-chlorophenyl)acetic acid
> <PUBCHEM_IUPAC_INCHI>
InChI=1S/C41H48Cl2F2N4O8/c1-23(2)22-56-41(55)48-35(24(3)4)39(52)49-21-28(25-9-6-5-7-10-25)19-33(49)38(51)47-32(20-34(44)45)37(50)46-16-15-26-18-30(13-14-31(26)43)57-36(40(53)54)27-11-8-12-29(42)17-27/h5-14,17-18,23-24,28,32-36H,15-16,19-22H2,1-4H3,(H,46,50)(H,47,51)(H,48,55)(H,53,54)/t28-,32+,33+,35+,36?/m1/s1
> <PUBCHEM_IUPAC_INCHIKEY>
QHWVMWXLAHGKEA-JQRVHSSUSA-N
> <PUBCHEM_XLOGP3_AA>
8.5
> <PUBCHEM_EXACT_MASS>
832.2817262
> <PUBCHEM_MOLECULAR_FORMULA>
C41H48Cl2F2N4O8
> <PUBCHEM_MOLECULAR_WEIGHT>
833.7
> <PUBCHEM_OPENEYE_CAN_SMILES>
CC(C)COC(=O)NC(C(C)C)C(=O)N1CC(CC1C(=O)NC(CC(F)F)C(=O)NCCC2=C(C=CC(=C2)OC(C3=CC(=CC=C3)Cl)C(=O)O)Cl)C4=CC=CC=C4
> <PUBCHEM_OPENEYE_ISO_SMILES>
CC(C)COC(=O)N[C@@H](C(C)C)C(=O)N1C[C@@H](C[C@H]1C(=O)N[C@@H](CC(F)F)C(=O)NCCC2=C(C=CC(=C2)OC(C3=CC(=CC=C3)Cl)C(=O)O)Cl)C4=CC=CC=C4
> <PUBCHEM_CACTVS_TPSA>
163
> <PUBCHEM_MONOISOTOPIC_WEIGHT>
832.2817262
> <PUBCHEM_TOTAL_CHARGE>
0
> <PUBCHEM_HEAVY_ATOM_COUNT>
57
> <PUBCHEM_ATOM_DEF_STEREO_COUNT>
4
> <PUBCHEM_ATOM_UDEF_STEREO_COUNT>
1
> <PUBCHEM_BOND_DEF_STEREO_COUNT>
0
> <PUBCHEM_BOND_UDEF_STEREO_COUNT>
0
> <PUBCHEM_ISOTOPIC_ATOM_COUNT>
0
> <PUBCHEM_COMPONENT_COUNT>
1
> <PUBCHEM_CACTVS_TAUTO_COUNT>
-1
> <PUBCHEM_COORDINATE_TYPE>
1
5
255
> <PUBCHEM_BONDANNOTATIONS>
28  14  6
24  15  6
17  21  5
18  23  6
21  26  8
21  27  8
26  31  8
27  32  8
31  34  8
32  34  8
42  45  8
42  46  8
45  47  8
46  48  8
47  49  8
48  49  8
50  52  3
51  53  8
51  54  8
53  55  8
54  56  8
55  57  8
56  57  8
$$$$
