507629
  -OEChem-10302200282D
 95 98  0     1  0  0  0  0  0999 V2000
    5.4641    3.8385    0.0000 F   0  0  0  0  0  0  0  0  0  0  0  0
    3.7320    3.8385    0.0000 F   0  0  0  0  0  0  0  0  0  0  0  0
    5.4641   -2.1615    0.0000 F   0  0  0  0  0  0  0  0  0  0  0  0
    2.0000   -2.1615    0.0000 F   0  0  0  0  0  0  0  0  0  0  0  0
    8.4405    0.2844    0.0000 O   0  0  0  0  0  0  0  0  0  0  0  0
    7.1962    0.8385    0.0000 O   0  0  0  0  0  0  0  0  0  0  0  0
   11.5016   -1.6208    0.0000 O   0  0  0  0  0  0  0  0  0  0  0  0
   12.0368    0.0265    0.0000 O   0  0  0  0  0  0  0  0  0  0  0  0
    6.3301    0.3385    0.0000 O   0  0  0  0  0  0  0  0  0  0  0  0
    2.8660   -5.6615    0.0000 O   0  0  0  0  0  0  0  0  0  0  0  0
    4.5981   -5.6615    0.0000 O   0  0  0  0  0  0  0  0  0  0  0  0
    8.9757    1.9317    0.0000 N   0  0  0  0  0  0  0  0  0  0  0  0
    6.3301    2.3385    0.0000 N   0  0  0  0  0  0  0  0  0  0  0  0
   10.3426   -0.3336    0.0000 N   0  0  0  0  0  0  0  0  0  0  0  0
    4.5981    0.3385    0.0000 N   0  0  0  0  0  0  0  0  0  0  0  0
    9.1448    3.5409    0.0000 C   0  0  2  0  0  0  0  0  0  0  0  0
    9.5516    4.4544    0.0000 C   0  0  0  0  0  0  0  0  0  0  0  0
    8.1667    3.3330    0.0000 C   0  0  0  0  0  0  0  0  0  0  0  0
    9.6448    2.6749    0.0000 C   0  0  0  0  0  0  0  0  0  0  0  0
    8.0622    2.3385    0.0000 C   0  0  1  0  0  0  0  0  0  0  0  0
    8.9638    5.2635    0.0000 C   0  0  0  0  0  0  0  0  0  0  0  0
   10.5461    4.5590    0.0000 C   0  0  0  0  0  0  0  0  0  0  0  0
    9.3705    6.1770    0.0000 C   0  0  0  0  0  0  0  0  0  0  0  0
   10.9528    5.4725    0.0000 C   0  0  0  0  0  0  0  0  0  0  0  0
   10.3651    6.2815    0.0000 C   0  0  0  0  0  0  0  0  0  0  0  0
    9.1836    0.9536    0.0000 C   0  0  0  0  0  0  0  0  0  0  0  0
    7.1962    1.8385    0.0000 C   0  0  0  0  0  0  0  0  0  0  0  0
   10.1347    0.6446    0.0000 C   0  0  2  0  0  0  0  0  0  0  0  0
   12.6605   -2.9079    0.0000 C   0  0  0  0  0  0  0  0  0  0  0  0
   10.8778    1.3137    0.0000 C   0  0  0  0  0  0  0  0  0  0  0  0
   13.3297   -3.6511    0.0000 C   0  0  0  0  0  0  0  0  0  0  0  0
   12.3515   -3.8590    0.0000 C   0  0  0  0  0  0  0  0  0  0  0  0
    5.4641    1.8385    0.0000 C   0  0  1  0  0  0  0  0  0  0  0  0
   12.4526   -1.9298    0.0000 C   0  0  0  0  0  0  0  0  0  0  0  0
   11.8289    1.0047    0.0000 C   0  0  0  0  0  0  0  0  0  0  0  0
   10.6699    2.2918    0.0000 C   0  0  0  0  0  0  0  0  0  0  0  0
   11.2937   -0.6426    0.0000 C   0  0  0  0  0  0  0  0  0  0  0  0
    4.5981    2.3385    0.0000 C   0  0  0  0  0  0  0  0  0  0  0  0
    5.4641    0.8385    0.0000 C   0  0  0  0  0  0  0  0  0  0  0  0
    4.5981    3.3385    0.0000 C   0  0  0  0  0  0  0  0  0  0  0  0
    4.5981   -0.6615    0.0000 C   0  0  0  0  0  0  0  0  0  0  0  0
    3.7320   -1.1615    0.0000 C   0  0  0  0  0  0  0  0  0  0  0  0
    3.7320   -2.1615    0.0000 C   0  0  0  0  0  0  0  0  0  0  0  0
    4.5981   -2.6615    0.0000 C   0  0  0  0  0  0  0  0  0  0  0  0
    2.8660   -2.6615    0.0000 C   0  0  0  0  0  0  0  0  0  0  0  0
    4.5981   -3.6615    0.0000 C   0  0  0  0  0  0  0  0  0  0  0  0
    2.8660   -3.6615    0.0000 C   0  0  0  0  0  0  0  0  0  0  0  0
    3.7320   -4.1615    0.0000 C   0  0  0  0  0  0  0  0  0  0  0  0
    3.7320   -5.1615    0.0000 C   0  0  0  0  0  0  0  0  0  0  0  0
    8.6099    4.2015    0.0000 H   0  0  0  0  0  0  0  0  0  0  0  0
    9.9160    3.9528    0.0000 H   0  0  0  0  0  0  0  0  0  0  0  0
    8.1019    3.9496    0.0000 H   0  0  0  0  0  0  0  0  0  0  0  0
    7.5467    3.3330    0.0000 H   0  0  0  0  0  0  0  0  0  0  0  0
   10.0597    2.2141    0.0000 H   0  0  0  0  0  0  0  0  0  0  0  0
   10.1464    3.0393    0.0000 H   0  0  0  0  0  0  0  0  0  0  0  0
    8.0946    1.7193    0.0000 H   0  0  0  0  0  0  0  0  0  0  0  0
    8.4498    5.6102    0.0000 H   0  0  0  0  0  0  0  0  0  0  0  0
    8.5331    4.8175    0.0000 H   0  0  0  0  0  0  0  0  0  0  0  0
   10.5029    3.9405    0.0000 H   0  0  0  0  0  0  0  0  0  0  0  0
   11.1477    4.4090    0.0000 H   0  0  0  0  0  0  0  0  0  0  0  0
    9.4138    6.7955    0.0000 H   0  0  0  0  0  0  0  0  0  0  0  0
    8.7690    6.3270    0.0000 H   0  0  0  0  0  0  0  0  0  0  0  0
   11.4669    5.1258    0.0000 H   0  0  0  0  0  0  0  0  0  0  0  0
   11.3835    5.9185    0.0000 H   0  0  0  0  0  0  0  0  0  0  0  0
   10.9223    6.5533    0.0000 H   0  0  0  0  0  0  0  0  0  0  0  0
   10.1942    6.8775    0.0000 H   0  0  0  0  0  0  0  0  0  0  0  0
    9.6739    0.2297    0.0000 H   0  0  0  0  0  0  0  0  0  0  0  0
   12.0414   -2.8755    0.0000 H   0  0  0  0  0  0  0  0  0  0  0  0
   11.0067    0.7072    0.0000 H   0  0  0  0  0  0  0  0  0  0  0  0
    6.3301    2.9585    0.0000 H   0  0  0  0  0  0  0  0  0  0  0  0
   13.5619   -4.2259    0.0000 H   0  0  0  0  0  0  0  0  0  0  0  0
   13.8555   -3.3225    0.0000 H   0  0  0  0  0  0  0  0  0  0  0  0
   11.7376   -3.7727    0.0000 H   0  0  0  0  0  0  0  0  0  0  0  0
   12.3732   -4.4786    0.0000 H   0  0  0  0  0  0  0  0  0  0  0  0
    9.8818   -0.7484    0.0000 H   0  0  0  0  0  0  0  0  0  0  0  0
    5.4641    2.4585    0.0000 H   0  0  0  0  0  0  0  0  0  0  0  0
   13.0723   -1.9081    0.0000 H   0  0  0  0  0  0  0  0  0  0  0  0
   12.5389   -1.3158    0.0000 H   0  0  0  0  0  0  0  0  0  0  0  0
   11.6373    0.4150    0.0000 H   0  0  0  0  0  0  0  0  0  0  0  0
   12.4185    0.8131    0.0000 H   0  0  0  0  0  0  0  0  0  0  0  0
   12.0205    1.5943    0.0000 H   0  0  0  0  0  0  0  0  0  0  0  0
   11.2764    2.4208    0.0000 H   0  0  0  0  0  0  0  0  0  0  0  0
   10.5410    2.8983    0.0000 H   0  0  0  0  0  0  0  0  0  0  0  0
   10.0635    2.1629    0.0000 H   0  0  0  0  0  0  0  0  0  0  0  0
    3.9875    2.4461    0.0000 H   0  0  0  0  0  0  0  0  0  0  0  0
    4.3860    1.7559    0.0000 H   0  0  0  0  0  0  0  0  0  0  0  0
    4.5981    3.9585    0.0000 H   0  0  0  0  0  0  0  0  0  0  0  0
    4.0611    0.6485    0.0000 H   0  0  0  0  0  0  0  0  0  0  0  0
    4.8101   -1.2441    0.0000 H   0  0  0  0  0  0  0  0  0  0  0  0
    5.2087   -0.5539    0.0000 H   0  0  0  0  0  0  0  0  0  0  0  0
    3.5200   -0.5789    0.0000 H   0  0  0  0  0  0  0  0  0  0  0  0
    3.1215   -1.2692    0.0000 H   0  0  0  0  0  0  0  0  0  0  0  0
    5.1350   -3.9715    0.0000 H   0  0  0  0  0  0  0  0  0  0  0  0
    2.3291   -3.9715    0.0000 H   0  0  0  0  0  0  0  0  0  0  0  0
    2.8660   -6.2815    0.0000 H   0  0  0  0  0  0  0  0  0  0  0  0
  1 40  1  0  0  0  0
  2 40  1  0  0  0  0
  3 44  1  0  0  0  0
  4 45  1  0  0  0  0
  5 26  2  0  0  0  0
  6 27  2  0  0  0  0
  7 34  1  0  0  0  0
  7 37  1  0  0  0  0
  8 37  2  0  0  0  0
  9 39  2  0  0  0  0
 10 49  1  0  0  0  0
 10 95  1  0  0  0  0
 11 49  2  0  0  0  0
 12 19  1  0  0  0  0
 12 20  1  0  0  0  0
 12 26  1  0  0  0  0
 13 27  1  0  0  0  0
 33 13  1  6  0  0  0
 13 70  1  0  0  0  0
 28 14  1  6  0  0  0
 14 37  1  0  0  0  0
 14 75  1  0  0  0  0
 15 39  1  0  0  0  0
 15 41  1  0  0  0  0
 15 88  1  0  0  0  0
 16 17  1  0  0  0  0
 16 18  1  0  0  0  0
 16 19  1  0  0  0  0
 16 50  1  6  0  0  0
 17 21  1  0  0  0  0
 17 22  1  0  0  0  0
 17 51  1  0  0  0  0
 18 20  1  0  0  0  0
 18 52  1  0  0  0  0
 18 53  1  0  0  0  0
 19 54  1  0  0  0  0
 19 55  1  0  0  0  0
 20 27  1  6  0  0  0
 20 56  1  0  0  0  0
 21 23  1  0  0  0  0
 21 57  1  0  0  0  0
 21 58  1  0  0  0  0
 22 24  1  0  0  0  0
 22 59  1  0  0  0  0
 22 60  1  0  0  0  0
 23 25  1  0  0  0  0
 23 61  1  0  0  0  0
 23 62  1  0  0  0  0
 24 25  1  0  0  0  0
 24 63  1  0  0  0  0
 24 64  1  0  0  0  0
 25 65  1  0  0  0  0
 25 66  1  0  0  0  0
 26 28  1  0  0  0  0
 28 30  1  0  0  0  0
 28 67  1  0  0  0  0
 29 31  1  0  0  0  0
 29 32  1  0  0  0  0
 29 34  1  0  0  0  0
 29 68  1  0  0  0  0
 30 35  1  0  0  0  0
 30 36  1  0  0  0  0
 30 69  1  0  0  0  0
 31 32  1  0  0  0  0
 31 71  1  0  0  0  0
 31 72  1  0  0  0  0
 32 73  1  0  0  0  0
 32 74  1  0  0  0  0
 33 38  1  0  0  0  0
 33 39  1  0  0  0  0
 33 76  1  0  0  0  0
 34 77  1  0  0  0  0
 34 78  1  0  0  0  0
 35 79  1  0  0  0  0
 35 80  1  0  0  0  0
 35 81  1  0  0  0  0
 36 82  1  0  0  0  0
 36 83  1  0  0  0  0
 36 84  1  0  0  0  0
 38 40  1  0  0  0  0
 38 85  1  0  0  0  0
 38 86  1  0  0  0  0
 40 87  1  0  0  0  0
 41 42  1  0  0  0  0
 41 89  1  0  0  0  0
 41 90  1  0  0  0  0
 42 43  1  0  0  0  0
 42 91  1  0  0  0  0
 42 92  1  0  0  0  0
 43 44  2  0  0  0  0
 43 45  1  0  0  0  0
 44 46  1  0  0  0  0
 45 47  2  0  0  0  0
 46 48  2  0  0  0  0
 46 93  1  0  0  0  0
 47 48  1  0  0  0  0
 47 94  1  0  0  0  0
 48 49  1  0  0  0  0
M  END
> <PUBCHEM_COMPOUND_CID>
507629
> <PUBCHEM_COMPOUND_CANONICALIZED>
1
> <PUBCHEM_CACTVS_COMPLEXITY>
1160
> <PUBCHEM_CACTVS_HBOND_ACCEPTOR>
11
> <PUBCHEM_CACTVS_HBOND_DONOR>
4
> <PUBCHEM_CACTVS_ROTATABLE_BOND>
16
> <PUBCHEM_CACTVS_SUBSKEYS>
AAADcfB/ucAAAAAAAAAAAAAAGAAAAWAAAAAwYAAAAAAAAAABAAAAHwAQCAAADSjhmB4yCIPABgCIAiHSGAACAAAkAAAAiIGICMkIZjKAlTGccQAk1gGImYeYyfCOwAAAAAAAAACAAAAAAAAAAAAAAAAAAA==
> <PUBCHEM_IUPAC_OPENEYE_NAME>
4-[2-[[(2S)-2-[[(2S,4S)-4-cyclohexyl-1-[(2S)-2-(cyclopropylmethoxycarbonylamino)-3-methyl-butanoyl]pyrrolidine-2-carbonyl]amino]-4,4-difluoro-butanoyl]amino]ethyl]-3,5-difluoro-benzoic acid
> <PUBCHEM_IUPAC_CAS_NAME>
4-[2-[[(2S)-2-[[[(2S,4S)-4-cyclohexyl-1-[(2S)-2-[[cyclopropylmethoxy(oxo)methyl]amino]-3-methyl-1-oxobutyl]-2-pyrrolidinyl]-oxomethyl]amino]-4,4-difluoro-1-oxobutyl]amino]ethyl]-3,5-difluorobenzoic acid
> <PUBCHEM_IUPAC_NAME_MARKUP>
4-[2-[[(2<I>S</I>)-2-[[(2<I>S</I>,4<I>S</I>)-4-cyclohexyl-1-[(2<I>S</I>)-2-(cyclopropylmethoxycarbonylamino)-3-methylbutanoyl]pyrrolidine-2-carbonyl]amino]-4,4-difluorobutanoyl]amino]ethyl]-3,5-difluorobenzoic acid
> <PUBCHEM_IUPAC_NAME>
4-[2-[[(2S)-2-[[(2S,4S)-4-cyclohexyl-1-[(2S)-2-(cyclopropylmethoxycarbonylamino)-3-methylbutanoyl]pyrrolidine-2-carbonyl]amino]-4,4-difluorobutanoyl]amino]ethyl]-3,5-difluorobenzoic acid
> <PUBCHEM_IUPAC_SYSTEMATIC_NAME>
4-[2-[[(2S)-2-[[(2S,4S)-4-cyclohexyl-1-[(2S)-2-(cyclopropylmethoxycarbonylamino)-3-methyl-butanoyl]pyrrolidin-2-yl]carbonylamino]-4,4-bis(fluoranyl)butanoyl]amino]ethyl]-3,5-bis(fluoranyl)benzoic acid
> <PUBCHEM_IUPAC_TRADITIONAL_NAME>
4-[2-[[(2S)-2-[[(2S,4S)-4-cyclohexyl-1-[(2S)-2-(cyclopropylmethoxycarbonylamino)-3-methyl-butanoyl]prolyl]amino]-4,4-difluoro-butanoyl]amino]ethyl]-3,5-difluoro-benzoic acid
> <PUBCHEM_IUPAC_INCHI>
InChI=1S/C34H46F4N4O7/c1-18(2)29(41-34(48)49-17-19-8-9-19)32(45)42-16-22(20-6-4-3-5-7-20)14-27(42)31(44)40-26(15-28(37)38)30(43)39-11-10-23-24(35)12-21(33(46)47)13-25(23)36/h12-13,18-20,22,26-29H,3-11,14-17H2,1-2H3,(H,39,43)(H,40,44)(H,41,48)(H,46,47)/t22-,26+,27+,29+/m1/s1
> <PUBCHEM_IUPAC_INCHIKEY>
ADTAPHVBCYHBRZ-NLALRGLNSA-N
> <PUBCHEM_XLOGP3_AA>
6.4
> <PUBCHEM_EXACT_MASS>
698.33026247
> <PUBCHEM_MOLECULAR_FORMULA>
C34H46F4N4O7
> <PUBCHEM_MOLECULAR_WEIGHT>
698.7
> <PUBCHEM_OPENEYE_CAN_SMILES>
CC(C)C(C(=O)N1CC(CC1C(=O)NC(CC(F)F)C(=O)NCCC2=C(C=C(C=C2F)C(=O)O)F)C3CCCCC3)NC(=O)OCC4CC4
> <PUBCHEM_OPENEYE_ISO_SMILES>
CC(C)[C@@H](C(=O)N1C[C@@H](C[C@H]1C(=O)N[C@@H](CC(F)F)C(=O)NCCC2=C(C=C(C=C2F)C(=O)O)F)C3CCCCC3)NC(=O)OCC4CC4
> <PUBCHEM_CACTVS_TPSA>
154
> <PUBCHEM_MONOISOTOPIC_WEIGHT>
698.33026247
> <PUBCHEM_TOTAL_CHARGE>
0
> <PUBCHEM_HEAVY_ATOM_COUNT>
49
> <PUBCHEM_ATOM_DEF_STEREO_COUNT>
4
> <PUBCHEM_ATOM_UDEF_STEREO_COUNT>
0
> <PUBCHEM_BOND_DEF_STEREO_COUNT>
0
> <PUBCHEM_BOND_UDEF_STEREO_COUNT>
0
> <PUBCHEM_ISOTOPIC_ATOM_COUNT>
0
> <PUBCHEM_COMPONENT_COUNT>
1
> <PUBCHEM_CACTVS_TAUTO_COUNT>
-1
> <PUBCHEM_COORDINATE_TYPE>
1
5
255
> <PUBCHEM_BONDANNOTATIONS>
33  13  6
28  14  6
16  50  6
20  27  6
43  44  8
43  45  8
44  46  8
45  47  8
46  48  8
47  48  8
$$$$
