507665
  -OEChem-10302200282D
114118  0     1  0  0  0  0  0999 V2000
   13.5529    0.4040    0.0000 F   0  0  0  0  0  0  0  0  0  0  0  0
   12.8484    1.9863    0.0000 F   0  0  0  0  0  0  0  0  0  0  0  0
   12.8695   -3.8781    0.0000 F   0  0  0  0  0  0  0  0  0  0  0  0
   16.0341   -2.4692    0.0000 F   0  0  0  0  0  0  0  0  0  0  0  0
    6.3981    0.0622    0.0000 O   0  0  0  0  0  0  0  0  0  0  0  0
    9.7480    2.7828    0.0000 O   0  0  0  0  0  0  0  0  0  0  0  0
   10.4291    1.6031    0.0000 O   0  0  0  0  0  0  0  0  0  0  0  0
    6.9902    5.1053    0.0000 O   0  0  0  0  0  0  0  0  0  0  0  0
    5.5889    4.0872    0.0000 O   0  0  0  0  0  0  0  0  0  0  0  0
   11.0615   -1.9465    0.0000 O   0  0  0  0  0  0  0  0  0  0  0  0
    2.8680   -2.9619    0.0000 O   0  0  0  0  0  0  0  0  0  0  0  0
   16.6665   -6.0188    0.0000 O   0  0  0  0  0  0  0  0  0  0  0  0
   15.0842   -6.7233    0.0000 O   0  0  0  0  0  0  0  0  0  0  0  0
    8.3468    1.7647    0.0000 N   0  0  0  0  0  0  0  0  0  0  0  0
    7.1712    3.3827    0.0000 N   0  0  0  0  0  0  0  0  0  0  0  0
   10.2480   -0.1194    0.0000 N   0  0  0  0  0  0  0  0  0  0  0  0
   12.6438   -1.2420    0.0000 N   0  0  0  0  0  0  0  0  0  0  0  0
    6.3981   -2.9378    0.0000 N   0  0  0  0  0  0  0  0  0  0  0  0
    8.8468    0.8986    0.0000 C   0  0  1  0  0  0  0  0  0  0  0  0
    7.2641    0.5622    0.0000 C   0  0  2  0  0  0  0  0  0  0  0  0
    8.1776    0.1555    0.0000 C   0  0  0  0  0  0  0  0  0  0  0  0
    7.3686    1.5568    0.0000 C   0  0  0  0  0  0  0  0  0  0  0  0
    8.1657    3.4872    0.0000 C   0  0  1  0  0  0  0  0  0  0  0  0
    8.5725    4.4008    0.0000 C   0  0  0  0  0  0  0  0  0  0  0  0
    8.7535    2.6782    0.0000 C   0  0  0  0  0  0  0  0  0  0  0  0
    9.8413    0.7941    0.0000 C   0  0  0  0  0  0  0  0  0  0  0  0
    8.9792    5.3143    0.0000 C   0  0  0  0  0  0  0  0  0  0  0  0
    7.6589    4.8075    0.0000 C   0  0  0  0  0  0  0  0  0  0  0  0
    9.4860    3.9940    0.0000 C   0  0  0  0  0  0  0  0  0  0  0  0
   11.2426   -0.2240    0.0000 C   0  0  1  0  0  0  0  0  0  0  0  0
    6.3981   -0.9378    0.0000 C   0  0  0  0  0  0  0  0  0  0  0  0
    6.5834    4.1917    0.0000 C   0  0  0  0  0  0  0  0  0  0  0  0
   11.8303    0.5851    0.0000 C   0  0  0  0  0  0  0  0  0  0  0  0
    5.5320   -1.4378    0.0000 C   0  0  0  0  0  0  0  0  0  0  0  0
    7.2641   -1.4378    0.0000 C   0  0  0  0  0  0  0  0  0  0  0  0
   11.6493   -1.1375    0.0000 C   0  0  0  0  0  0  0  0  0  0  0  0
    5.5320   -2.4378    0.0000 C   0  0  0  0  0  0  0  0  0  0  0  0
    6.4024    5.9143    0.0000 C   0  0  0  0  0  0  0  0  0  0  0  0
   12.7439    0.9918    0.0000 C   0  0  0  0  0  0  0  0  0  0  0  0
    7.2641   -2.4378    0.0000 C   0  0  0  0  0  0  0  0  0  0  0  0
    4.6381   -0.9031    0.0000 C   0  0  0  0  0  0  0  0  0  0  0  0
    4.6381   -2.9724    0.0000 C   0  0  0  0  0  0  0  0  0  0  0  0
   13.0505   -2.1556    0.0000 C   0  0  0  0  0  0  0  0  0  0  0  0
    3.7320   -1.4170    0.0000 C   0  0  0  0  0  0  0  0  0  0  0  0
    8.1301   -2.9378    0.0000 C   0  0  0  0  0  0  0  0  0  0  0  0
    5.8146    6.7233    0.0000 C   0  0  0  0  0  0  0  0  0  0  0  0
    7.2114    6.5021    0.0000 C   0  0  0  0  0  0  0  0  0  0  0  0
    5.5934    5.3265    0.0000 C   0  0  0  0  0  0  0  0  0  0  0  0
    3.7320   -2.4586    0.0000 C   0  0  0  0  0  0  0  0  0  0  0  0
   14.0451   -2.2601    0.0000 C   0  0  0  0  0  0  0  0  0  0  0  0
    8.9962   -2.4378    0.0000 C   0  0  0  0  0  0  0  0  0  0  0  0
    8.1301   -3.9378    0.0000 C   0  0  0  0  0  0  0  0  0  0  0  0
   14.4518   -3.1736    0.0000 C   0  0  0  0  0  0  0  0  0  0  0  0
    9.8622   -2.9378    0.0000 C   0  0  0  0  0  0  0  0  0  0  0  0
    8.9962   -4.4378    0.0000 C   0  0  0  0  0  0  0  0  0  0  0  0
    9.8622   -3.9378    0.0000 C   0  0  0  0  0  0  0  0  0  0  0  0
    2.0000   -2.4652    0.0000 C   0  0  0  0  0  0  0  0  0  0  0  0
   13.8640   -3.9827    0.0000 C   0  0  0  0  0  0  0  0  0  0  0  0
   15.4463   -3.2782    0.0000 C   0  0  0  0  0  0  0  0  0  0  0  0
   14.2708   -4.8962    0.0000 C   0  0  0  0  0  0  0  0  0  0  0  0
   15.8531   -4.1917    0.0000 C   0  0  0  0  0  0  0  0  0  0  0  0
   15.2653   -5.0007    0.0000 C   0  0  0  0  0  0  0  0  0  0  0  0
   15.6720   -5.9143    0.0000 C   0  0  0  0  0  0  0  0  0  0  0  0
    9.1844    1.4186    0.0000 H   0  0  0  0  0  0  0  0  0  0  0  0
    6.7441    0.8999    0.0000 H   0  0  0  0  0  0  0  0  0  0  0  0
    7.8676   -0.3814    0.0000 H   0  0  0  0  0  0  0  0  0  0  0  0
    8.6792   -0.2089    0.0000 H   0  0  0  0  0  0  0  0  0  0  0  0
    7.3038    2.1734    0.0000 H   0  0  0  0  0  0  0  0  0  0  0  0
    6.7486    1.5568    0.0000 H   0  0  0  0  0  0  0  0  0  0  0  0
    7.8013    3.9888    0.0000 H   0  0  0  0  0  0  0  0  0  0  0  0
    9.5456    5.0622    0.0000 H   0  0  0  0  0  0  0  0  0  0  0  0
    9.2314    5.8807    0.0000 H   0  0  0  0  0  0  0  0  0  0  0  0
    8.4128    5.5665    0.0000 H   0  0  0  0  0  0  0  0  0  0  0  0
    7.9111    5.3739    0.0000 H   0  0  0  0  0  0  0  0  0  0  0  0
    7.0925    5.0597    0.0000 H   0  0  0  0  0  0  0  0  0  0  0  0
    7.4067    4.2411    0.0000 H   0  0  0  0  0  0  0  0  0  0  0  0
    9.2338    3.4276    0.0000 H   0  0  0  0  0  0  0  0  0  0  0  0
   10.0524    3.7419    0.0000 H   0  0  0  0  0  0  0  0  0  0  0  0
    9.7382    4.5604    0.0000 H   0  0  0  0  0  0  0  0  0  0  0  0
    6.9190    2.8163    0.0000 H   0  0  0  0  0  0  0  0  0  0  0  0
    9.8836   -0.6210    0.0000 H   0  0  0  0  0  0  0  0  0  0  0  0
   10.8781   -0.7255    0.0000 H   0  0  0  0  0  0  0  0  0  0  0  0
   11.7871    1.2035    0.0000 H   0  0  0  0  0  0  0  0  0  0  0  0
   12.2205    0.1032    0.0000 H   0  0  0  0  0  0  0  0  0  0  0  0
    7.8010   -1.1278    0.0000 H   0  0  0  0  0  0  0  0  0  0  0  0
   12.6791    0.3752    0.0000 H   0  0  0  0  0  0  0  0  0  0  0  0
    4.6453   -0.2831    0.0000 H   0  0  0  0  0  0  0  0  0  0  0  0
   13.2102   -0.9899    0.0000 H   0  0  0  0  0  0  0  0  0  0  0  0
    4.6453   -3.5924    0.0000 H   0  0  0  0  0  0  0  0  0  0  0  0
   12.4490   -2.3056    0.0000 H   0  0  0  0  0  0  0  0  0  0  0  0
   13.0938   -2.7741    0.0000 H   0  0  0  0  0  0  0  0  0  0  0  0
    3.1963   -1.1049    0.0000 H   0  0  0  0  0  0  0  0  0  0  0  0
    6.3162    7.0877    0.0000 H   0  0  0  0  0  0  0  0  0  0  0  0
    5.4502    7.2249    0.0000 H   0  0  0  0  0  0  0  0  0  0  0  0
    5.3130    6.3589    0.0000 H   0  0  0  0  0  0  0  0  0  0  0  0
    7.5758    6.0005    0.0000 H   0  0  0  0  0  0  0  0  0  0  0  0
    7.7130    6.8665    0.0000 H   0  0  0  0  0  0  0  0  0  0  0  0
    6.8470    7.0037    0.0000 H   0  0  0  0  0  0  0  0  0  0  0  0
    5.2289    5.8281    0.0000 H   0  0  0  0  0  0  0  0  0  0  0  0
    5.0918    4.9621    0.0000 H   0  0  0  0  0  0  0  0  0  0  0  0
    5.9578    4.8249    0.0000 H   0  0  0  0  0  0  0  0  0  0  0  0
   14.6467   -2.1101    0.0000 H   0  0  0  0  0  0  0  0  0  0  0  0
   14.0018   -1.6416    0.0000 H   0  0  0  0  0  0  0  0  0  0  0  0
    8.9962   -1.8178    0.0000 H   0  0  0  0  0  0  0  0  0  0  0  0
    7.5932   -4.2478    0.0000 H   0  0  0  0  0  0  0  0  0  0  0  0
   10.3991   -2.6278    0.0000 H   0  0  0  0  0  0  0  0  0  0  0  0
    8.9962   -5.0578    0.0000 H   0  0  0  0  0  0  0  0  0  0  0  0
   10.3991   -4.2478    0.0000 H   0  0  0  0  0  0  0  0  0  0  0  0
    2.3079   -1.9271    0.0000 H   0  0  0  0  0  0  0  0  0  0  0  0
    1.4619   -2.1573    0.0000 H   0  0  0  0  0  0  0  0  0  0  0  0
    1.6921   -3.0034    0.0000 H   0  0  0  0  0  0  0  0  0  0  0  0
   13.9063   -5.3978    0.0000 H   0  0  0  0  0  0  0  0  0  0  0  0
   16.4697   -4.2565    0.0000 H   0  0  0  0  0  0  0  0  0  0  0  0
   16.9187   -6.5852    0.0000 H   0  0  0  0  0  0  0  0  0  0  0  0
  1 39  1  0  0  0  0
  2 39  1  0  0  0  0
  3 58  1  0  0  0  0
  4 59  1  0  0  0  0
 20  5  1  1  0  0  0
  5 31  1  0  0  0  0
  6 25  2  0  0  0  0
  7 26  2  0  0  0  0
  8 32  1  0  0  0  0
  8 38  1  0  0  0  0
  9 32  2  0  0  0  0
 10 36  2  0  0  0  0
 11 49  1  0  0  0  0
 11 57  1  0  0  0  0
 12 63  1  0  0  0  0
 12114  1  0  0  0  0
 13 63  2  0  0  0  0
 14 19  1  0  0  0  0
 14 22  1  0  0  0  0
 14 25  1  0  0  0  0
 23 15  1  1  0  0  0
 15 32  1  0  0  0  0
 15 80  1  0  0  0  0
 16 26  1  0  0  0  0
 30 16  1  1  0  0  0
 16 81  1  0  0  0  0
 17 36  1  0  0  0  0
 17 43  1  0  0  0  0
 17 88  1  0  0  0  0
 18 37  1  0  0  0  0
 18 40  2  0  0  0  0
 19 21  1  0  0  0  0
 19 26  1  6  0  0  0
 19 64  1  0  0  0  0
 20 21  1  0  0  0  0
 20 22  1  0  0  0  0
 20 65  1  0  0  0  0
 21 66  1  0  0  0  0
 21 67  1  0  0  0  0
 22 68  1  0  0  0  0
 22 69  1  0  0  0  0
 23 24  1  0  0  0  0
 23 25  1  0  0  0  0
 23 70  1  0  0  0  0
 24 27  1  0  0  0  0
 24 28  1  0  0  0  0
 24 29  1  0  0  0  0
 27 71  1  0  0  0  0
 27 72  1  0  0  0  0
 27 73  1  0  0  0  0
 28 74  1  0  0  0  0
 28 75  1  0  0  0  0
 28 76  1  0  0  0  0
 29 77  1  0  0  0  0
 29 78  1  0  0  0  0
 29 79  1  0  0  0  0
 30 33  1  0  0  0  0
 30 36  1  0  0  0  0
 30 82  1  0  0  0  0
 31 34  1  0  0  0  0
 31 35  2  0  0  0  0
 33 39  1  0  0  0  0
 33 83  1  0  0  0  0
 33 84  1  0  0  0  0
 34 37  2  0  0  0  0
 34 41  1  0  0  0  0
 35 40  1  0  0  0  0
 35 85  1  0  0  0  0
 37 42  1  0  0  0  0
 38 46  1  0  0  0  0
 38 47  1  0  0  0  0
 38 48  1  0  0  0  0
 39 86  1  0  0  0  0
 40 45  1  0  0  0  0
 41 44  2  0  0  0  0
 41 87  1  0  0  0  0
 42 49  2  0  0  0  0
 42 89  1  0  0  0  0
 43 50  1  0  0  0  0
 43 90  1  0  0  0  0
 43 91  1  0  0  0  0
 44 49  1  0  0  0  0
 44 92  1  0  0  0  0
 45 51  2  0  0  0  0
 45 52  1  0  0  0  0
 46 93  1  0  0  0  0
 46 94  1  0  0  0  0
 46 95  1  0  0  0  0
 47 96  1  0  0  0  0
 47 97  1  0  0  0  0
 47 98  1  0  0  0  0
 48 99  1  0  0  0  0
 48100  1  0  0  0  0
 48101  1  0  0  0  0
 50 53  1  0  0  0  0
 50102  1  0  0  0  0
 50103  1  0  0  0  0
 51 54  1  0  0  0  0
 51104  1  0  0  0  0
 52 55  2  0  0  0  0
 52105  1  0  0  0  0
 53 58  2  0  0  0  0
 53 59  1  0  0  0  0
 54 56  2  0  0  0  0
 54106  1  0  0  0  0
 55 56  1  0  0  0  0
 55107  1  0  0  0  0
 56108  1  0  0  0  0
 57109  1  0  0  0  0
 57110  1  0  0  0  0
 57111  1  0  0  0  0
 58 60  1  0  0  0  0
 59 61  2  0  0  0  0
 60 62  2  0  0  0  0
 60112  1  0  0  0  0
 61 62  1  0  0  0  0
 61113  1  0  0  0  0
 62 63  1  0  0  0  0
M  END
> <PUBCHEM_COMPOUND_CID>
507665
> <PUBCHEM_COMPOUND_CANONICALIZED>
1
> <PUBCHEM_CACTVS_COMPLEXITY>
1560
> <PUBCHEM_CACTVS_HBOND_ACCEPTOR>
14
> <PUBCHEM_CACTVS_HBOND_DONOR>
4
> <PUBCHEM_CACTVS_ROTATABLE_BOND>
18
> <PUBCHEM_CACTVS_SUBSKEYS>
AAADcfB/vcAAAAAAAAAAAAAAAAAAAWAAAAA8YMEAAAAAAACx9AAAHwAQCAAADnzhnh4yzvPIFgCoAyXyXACCiCAlIiAImKG+bNkOZvLEtbufeSjm1hnY+Ye6+f+PYAAAAgACAADAAAAEAAQAAAAAAAAAAA==
> <PUBCHEM_IUPAC_OPENEYE_NAME>
4-[2-[[(2S)-2-[[(2S,4R)-1-[(2S)-2-(tert-butoxycarbonylamino)-3,3-dimethyl-butanoyl]-4-[(7-methoxy-2-phenyl-4-quinolyl)oxy]pyrrolidine-2-carbonyl]amino]-4,4-difluoro-butanoyl]amino]ethyl]-3,5-difluoro-benzoic acid
> <PUBCHEM_IUPAC_CAS_NAME>
4-[2-[[(2S)-2-[[[(2S,4R)-1-[(2S)-3,3-dimethyl-2-[[(2-methylpropan-2-yl)oxy-oxomethyl]amino]-1-oxobutyl]-4-[(7-methoxy-2-phenyl-4-quinolinyl)oxy]-2-pyrrolidinyl]-oxomethyl]amino]-4,4-difluoro-1-oxobutyl]amino]ethyl]-3,5-difluorobenzoic acid
> <PUBCHEM_IUPAC_NAME_MARKUP>
4-[2-[[(2<I>S</I>)-2-[[(2<I>S</I>,4<I>R</I>)-1-[(2<I>S</I>)-3,3-dimethyl-2-[(2-methylpropan-2-yl)oxycarbonylamino]butanoyl]-4-(7-methoxy-2-phenylquinolin-4-yl)oxypyrrolidine-2-carbonyl]amino]-4,4-difluorobutanoyl]amino]ethyl]-3,5-difluorobenzoic acid
> <PUBCHEM_IUPAC_NAME>
4-[2-[[(2S)-2-[[(2S,4R)-1-[(2S)-3,3-dimethyl-2-[(2-methylpropan-2-yl)oxycarbonylamino]butanoyl]-4-(7-methoxy-2-phenylquinolin-4-yl)oxypyrrolidine-2-carbonyl]amino]-4,4-difluorobutanoyl]amino]ethyl]-3,5-difluorobenzoic acid
> <PUBCHEM_IUPAC_SYSTEMATIC_NAME>
4-[2-[[(2S)-2-[[(2S,4R)-1-[(2S)-3,3-dimethyl-2-[(2-methylpropan-2-yl)oxycarbonylamino]butanoyl]-4-(7-methoxy-2-phenyl-quinolin-4-yl)oxy-pyrrolidin-2-yl]carbonylamino]-4,4-bis(fluoranyl)butanoyl]amino]ethyl]-3,5-bis(fluoranyl)benzoic acid
> <PUBCHEM_IUPAC_TRADITIONAL_NAME>
4-[2-[[(2S)-2-[[(2S,4R)-1-[(2S)-2-(tert-butoxycarbonylamino)-3,3-dimethyl-butanoyl]-4-[(7-methoxy-2-phenyl-4-quinolyl)oxy]prolyl]amino]-4,4-difluoro-butanoyl]amino]ethyl]-3,5-difluoro-benzoic acid
> <PUBCHEM_IUPAC_INCHI>
InChI=1S/C45H51F4N5O9/c1-44(2,3)38(53-43(60)63-45(4,5)6)41(57)54-23-27(62-36-21-32(24-11-9-8-10-12-24)51-33-19-26(61-7)13-14-29(33)36)20-35(54)40(56)52-34(22-37(48)49)39(55)50-16-15-28-30(46)17-25(42(58)59)18-31(28)47/h8-14,17-19,21,27,34-35,37-38H,15-16,20,22-23H2,1-7H3,(H,50,55)(H,52,56)(H,53,60)(H,58,59)/t27-,34+,35+,38-/m1/s1
> <PUBCHEM_IUPAC_INCHIKEY>
OJIDVGWUFLHFRB-LSKJEZPYSA-N
> <PUBCHEM_XLOGP3_AA>
7.6
> <PUBCHEM_EXACT_MASS>
881.36229087
> <PUBCHEM_MOLECULAR_FORMULA>
C45H51F4N5O9
> <PUBCHEM_MOLECULAR_WEIGHT>
881.9
> <PUBCHEM_OPENEYE_CAN_SMILES>
CC(C)(C)C(C(=O)N1CC(CC1C(=O)NC(CC(F)F)C(=O)NCCC2=C(C=C(C=C2F)C(=O)O)F)OC3=CC(=NC4=C3C=CC(=C4)OC)C5=CC=CC=C5)NC(=O)OC(C)(C)C
> <PUBCHEM_OPENEYE_ISO_SMILES>
CC(C)(C)[C@@H](C(=O)N1C[C@@H](C[C@H]1C(=O)N[C@@H](CC(F)F)C(=O)NCCC2=C(C=C(C=C2F)C(=O)O)F)OC3=CC(=NC4=C3C=CC(=C4)OC)C5=CC=CC=C5)NC(=O)OC(C)(C)C
> <PUBCHEM_CACTVS_TPSA>
186
> <PUBCHEM_MONOISOTOPIC_WEIGHT>
881.36229087
> <PUBCHEM_TOTAL_CHARGE>
0
> <PUBCHEM_HEAVY_ATOM_COUNT>
63
> <PUBCHEM_ATOM_DEF_STEREO_COUNT>
4
> <PUBCHEM_ATOM_UDEF_STEREO_COUNT>
0
> <PUBCHEM_BOND_DEF_STEREO_COUNT>
0
> <PUBCHEM_BOND_UDEF_STEREO_COUNT>
0
> <PUBCHEM_ISOTOPIC_ATOM_COUNT>
0
> <PUBCHEM_COMPONENT_COUNT>
1
> <PUBCHEM_CACTVS_TAUTO_COUNT>
-1
> <PUBCHEM_COORDINATE_TYPE>
1
5
255
> <PUBCHEM_BONDANNOTATIONS>
23  15  5
30  16  5
18  37  8
18  40  8
19  26  6
31  34  8
31  35  8
34  37  8
34  41  8
35  40  8
37  42  8
41  44  8
42  49  8
44  49  8
45  51  8
45  52  8
20  5  5
51  54  8
52  55  8
53  58  8
53  59  8
54  56  8
55  56  8
58  60  8
59  61  8
60  62  8
61  62  8
$$$$
