507687
  -OEChem-10302200282D
 79 81  0     1  0  0  0  0  0999 V2000
   10.1840    7.0383    0.0000 Cl  0  0  0  0  0  0  0  0  0  0  0  0
   12.1731    7.2473    0.0000 Cl  0  0  0  0  0  0  0  0  0  0  0  0
    3.7320    2.8727    0.0000 F   0  0  0  0  0  0  0  0  0  0  0  0
    5.4641    2.8727    0.0000 F   0  0  0  0  0  0  0  0  0  0  0  0
    5.4641   -3.1273    0.0000 F   0  0  0  0  0  0  0  0  0  0  0  0
    2.0000   -3.1273    0.0000 F   0  0  0  0  0  0  0  0  0  0  0  0
    9.5516    3.4886    0.0000 O   0  0  0  0  0  0  0  0  0  0  0  0
    7.1962   -0.1273    0.0000 O   0  0  0  0  0  0  0  0  0  0  0  0
    8.4405   -0.6814    0.0000 O   0  0  0  0  0  0  0  0  0  0  0  0
   10.8778    0.3479    0.0000 O   0  0  0  0  0  0  0  0  0  0  0  0
    6.3301   -0.6273    0.0000 O   0  0  0  0  0  0  0  0  0  0  0  0
    2.8660   -6.6273    0.0000 O   0  0  0  0  0  0  0  0  0  0  0  0
    4.5981   -6.6273    0.0000 O   0  0  0  0  0  0  0  0  0  0  0  0
    8.9757    0.9659    0.0000 N   0  0  0  0  0  0  0  0  0  0  0  0
    6.3301    1.3727    0.0000 N   0  0  0  0  0  0  0  0  0  0  0  0
    4.5981   -0.6273    0.0000 N   0  0  0  0  0  0  0  0  0  0  0  0
    8.0622    1.3727    0.0000 C   0  0  3  0  0  0  0  0  0  0  0  0
    9.1448    2.5751    0.0000 C   0  0  2  0  0  0  0  0  0  0  0  0
    8.1667    2.3672    0.0000 C   0  0  0  0  0  0  0  0  0  0  0  0
    9.6448    1.7091    0.0000 C   0  0  0  0  0  0  0  0  0  0  0  0
    7.1962    0.8727    0.0000 C   0  0  0  0  0  0  0  0  0  0  0  0
    9.1836   -0.0122    0.0000 C   0  0  0  0  0  0  0  0  0  0  0  0
   10.1347   -0.3212    0.0000 C   0  0  2  0  0  0  0  0  0  0  0  0
   10.3426   -1.2994    0.0000 C   0  0  0  0  0  0  0  0  0  0  0  0
    5.4641    0.8727    0.0000 C   0  0  1  0  0  0  0  0  0  0  0  0
   10.5461    3.5932    0.0000 C   0  0  0  0  0  0  0  0  0  0  0  0
   11.2937   -1.6084    0.0000 C   0  0  0  0  0  0  0  0  0  0  0  0
    9.5995   -1.9685    0.0000 C   0  0  0  0  0  0  0  0  0  0  0  0
    4.5981    1.3727    0.0000 C   0  0  0  0  0  0  0  0  0  0  0  0
   10.9528    4.5067    0.0000 C   0  0  0  0  0  0  0  0  0  0  0  0
    5.4641   -0.1273    0.0000 C   0  0  0  0  0  0  0  0  0  0  0  0
    4.5981    2.3727    0.0000 C   0  0  0  0  0  0  0  0  0  0  0  0
   10.3651    5.3157    0.0000 C   0  0  0  0  0  0  0  0  0  0  0  0
   11.9474    4.6112    0.0000 C   0  0  0  0  0  0  0  0  0  0  0  0
    4.5981   -1.6273    0.0000 C   0  0  0  0  0  0  0  0  0  0  0  0
   10.7718    6.2293    0.0000 C   0  0  0  0  0  0  0  0  0  0  0  0
   12.3541    5.5248    0.0000 C   0  0  0  0  0  0  0  0  0  0  0  0
    3.7320   -2.1273    0.0000 C   0  0  0  0  0  0  0  0  0  0  0  0
   11.7663    6.3338    0.0000 C   0  0  0  0  0  0  0  0  0  0  0  0
    3.7320   -3.1273    0.0000 C   0  0  0  0  0  0  0  0  0  0  0  0
    4.5981   -3.6273    0.0000 C   0  0  0  0  0  0  0  0  0  0  0  0
    2.8660   -3.6273    0.0000 C   0  0  0  0  0  0  0  0  0  0  0  0
    4.5981   -4.6273    0.0000 C   0  0  0  0  0  0  0  0  0  0  0  0
    2.8660   -4.6273    0.0000 C   0  0  0  0  0  0  0  0  0  0  0  0
    3.7320   -5.1273    0.0000 C   0  0  0  0  0  0  0  0  0  0  0  0
    3.7320   -6.1273    0.0000 C   0  0  0  0  0  0  0  0  0  0  0  0
    8.0946    0.7535    0.0000 H   0  0  0  0  0  0  0  0  0  0  0  0
    8.7547    3.0569    0.0000 H   0  0  0  0  0  0  0  0  0  0  0  0
    8.1019    2.9838    0.0000 H   0  0  0  0  0  0  0  0  0  0  0  0
    7.5467    2.3672    0.0000 H   0  0  0  0  0  0  0  0  0  0  0  0
   10.0597    1.2483    0.0000 H   0  0  0  0  0  0  0  0  0  0  0  0
   10.1464    2.0735    0.0000 H   0  0  0  0  0  0  0  0  0  0  0  0
   10.0058    0.2852    0.0000 H   0  0  0  0  0  0  0  0  0  0  0  0
    9.7530   -1.1078    0.0000 H   0  0  0  0  0  0  0  0  0  0  0  0
    6.3301    1.9927    0.0000 H   0  0  0  0  0  0  0  0  0  0  0  0
    5.4641    1.4927    0.0000 H   0  0  0  0  0  0  0  0  0  0  0  0
   10.5029    2.9747    0.0000 H   0  0  0  0  0  0  0  0  0  0  0  0
   11.1477    3.4432    0.0000 H   0  0  0  0  0  0  0  0  0  0  0  0
   11.1021   -2.1981    0.0000 H   0  0  0  0  0  0  0  0  0  0  0  0
   11.8833   -1.8000    0.0000 H   0  0  0  0  0  0  0  0  0  0  0  0
   11.4853   -1.0188    0.0000 H   0  0  0  0  0  0  0  0  0  0  0  0
    9.1846   -1.5078    0.0000 H   0  0  0  0  0  0  0  0  0  0  0  0
    9.1387   -2.3834    0.0000 H   0  0  0  0  0  0  0  0  0  0  0  0
   10.0143   -2.4293    0.0000 H   0  0  0  0  0  0  0  0  0  0  0  0
    3.9875    1.4803    0.0000 H   0  0  0  0  0  0  0  0  0  0  0  0
    4.3860    0.7900    0.0000 H   0  0  0  0  0  0  0  0  0  0  0  0
   11.4675    0.1563    0.0000 H   0  0  0  0  0  0  0  0  0  0  0  0
    4.5981    2.9927    0.0000 H   0  0  0  0  0  0  0  0  0  0  0  0
    4.0611   -0.3173    0.0000 H   0  0  0  0  0  0  0  0  0  0  0  0
    9.7485    5.2509    0.0000 H   0  0  0  0  0  0  0  0  0  0  0  0
   12.3118    4.1096    0.0000 H   0  0  0  0  0  0  0  0  0  0  0  0
    4.8101   -2.2100    0.0000 H   0  0  0  0  0  0  0  0  0  0  0  0
    5.2087   -1.5197    0.0000 H   0  0  0  0  0  0  0  0  0  0  0  0
    3.5200   -1.5447    0.0000 H   0  0  0  0  0  0  0  0  0  0  0  0
    3.1215   -2.2350    0.0000 H   0  0  0  0  0  0  0  0  0  0  0  0
   12.9707    5.5896    0.0000 H   0  0  0  0  0  0  0  0  0  0  0  0
    5.1350   -4.9373    0.0000 H   0  0  0  0  0  0  0  0  0  0  0  0
    2.3291   -4.9373    0.0000 H   0  0  0  0  0  0  0  0  0  0  0  0
    2.8660   -7.2473    0.0000 H   0  0  0  0  0  0  0  0  0  0  0  0
  1 36  1  0  0  0  0
  2 39  1  0  0  0  0
  3 32  1  0  0  0  0
  4 32  1  0  0  0  0
  5 41  1  0  0  0  0
  6 42  1  0  0  0  0
 18  7  1  1  0  0  0
  7 26  1  0  0  0  0
  8 21  2  0  0  0  0
  9 22  2  0  0  0  0
 23 10  1  1  0  0  0
 10 67  1  0  0  0  0
 11 31  2  0  0  0  0
 12 46  1  0  0  0  0
 12 79  1  0  0  0  0
 13 46  2  0  0  0  0
 14 17  1  0  0  0  0
 14 20  1  0  0  0  0
 14 22  1  0  0  0  0
 15 21  1  0  0  0  0
 25 15  1  6  0  0  0
 15 55  1  0  0  0  0
 16 31  1  0  0  0  0
 16 35  1  0  0  0  0
 16 69  1  0  0  0  0
 17 19  1  0  0  0  0
 17 21  1  0  0  0  0
 17 47  1  0  0  0  0
 18 19  1  0  0  0  0
 18 20  1  0  0  0  0
 18 48  1  0  0  0  0
 19 49  1  0  0  0  0
 19 50  1  0  0  0  0
 20 51  1  0  0  0  0
 20 52  1  0  0  0  0
 22 23  1  0  0  0  0
 23 24  1  0  0  0  0
 23 53  1  0  0  0  0
 24 27  1  0  0  0  0
 24 28  1  0  0  0  0
 24 54  1  0  0  0  0
 25 29  1  0  0  0  0
 25 31  1  0  0  0  0
 25 56  1  0  0  0  0
 26 30  1  0  0  0  0
 26 57  1  0  0  0  0
 26 58  1  0  0  0  0
 27 59  1  0  0  0  0
 27 60  1  0  0  0  0
 27 61  1  0  0  0  0
 28 62  1  0  0  0  0
 28 63  1  0  0  0  0
 28 64  1  0  0  0  0
 29 32  1  0  0  0  0
 29 65  1  0  0  0  0
 29 66  1  0  0  0  0
 30 33  2  0  0  0  0
 30 34  1  0  0  0  0
 32 68  1  0  0  0  0
 33 36  1  0  0  0  0
 33 70  1  0  0  0  0
 34 37  2  0  0  0  0
 34 71  1  0  0  0  0
 35 38  1  0  0  0  0
 35 72  1  0  0  0  0
 35 73  1  0  0  0  0
 36 39  2  0  0  0  0
 37 39  1  0  0  0  0
 37 76  1  0  0  0  0
 38 40  1  0  0  0  0
 38 74  1  0  0  0  0
 38 75  1  0  0  0  0
 40 41  2  0  0  0  0
 40 42  1  0  0  0  0
 41 43  1  0  0  0  0
 42 44  2  0  0  0  0
 43 45  2  0  0  0  0
 43 77  1  0  0  0  0
 44 45  1  0  0  0  0
 44 78  1  0  0  0  0
 45 46  1  0  0  0  0
M  END
> <PUBCHEM_COMPOUND_CID>
507687
> <PUBCHEM_COMPOUND_CANONICALIZED>
1
> <PUBCHEM_CACTVS_COMPLEXITY>
1050
> <PUBCHEM_CACTVS_HBOND_ACCEPTOR>
11
> <PUBCHEM_CACTVS_HBOND_DONOR>
4
> <PUBCHEM_CACTVS_ROTATABLE_BOND>
14
> <PUBCHEM_CACTVS_SUBSKEYS>
AAADcfB7OcAGAAAAAAAAAAAAAAAAAWAAAAAwYAAAAAAAAAABQAAAHwIQCAAADT7hmD4yCIPABgCIAiHSGAICAAAkBQAIisHICsgKdjKBtzmXcQAm1gGYuYe6yfCORAAAIAAAAASIAABAAAAACAAAAAAAAA==
> <PUBCHEM_IUPAC_OPENEYE_NAME>
4-[2-[[(2S)-2-[[(4R)-4-[(3,4-dichlorophenyl)methoxy]-1-[(2S)-2-hydroxy-3-methyl-butanoyl]pyrrolidine-2-carbonyl]amino]-4,4-difluoro-butanoyl]amino]ethyl]-3,5-difluoro-benzoic acid
> <PUBCHEM_IUPAC_CAS_NAME>
4-[2-[[(2S)-2-[[[(4R)-4-[(3,4-dichlorophenyl)methoxy]-1-[(2S)-2-hydroxy-3-methyl-1-oxobutyl]-2-pyrrolidinyl]-oxomethyl]amino]-4,4-difluoro-1-oxobutyl]amino]ethyl]-3,5-difluorobenzoic acid
> <PUBCHEM_IUPAC_NAME_MARKUP>
4-[2-[[(2<I>S</I>)-2-[[(4<I>R</I>)-4-[(3,4-dichlorophenyl)methoxy]-1-[(2<I>S</I>)-2-hydroxy-3-methylbutanoyl]pyrrolidine-2-carbonyl]amino]-4,4-difluorobutanoyl]amino]ethyl]-3,5-difluorobenzoic acid
> <PUBCHEM_IUPAC_NAME>
4-[2-[[(2S)-2-[[(4R)-4-[(3,4-dichlorophenyl)methoxy]-1-[(2S)-2-hydroxy-3-methylbutanoyl]pyrrolidine-2-carbonyl]amino]-4,4-difluorobutanoyl]amino]ethyl]-3,5-difluorobenzoic acid
> <PUBCHEM_IUPAC_SYSTEMATIC_NAME>
4-[2-[[(2S)-2-[[(4R)-4-[(3,4-dichlorophenyl)methoxy]-1-[(2S)-3-methyl-2-oxidanyl-butanoyl]pyrrolidin-2-yl]carbonylamino]-4,4-bis(fluoranyl)butanoyl]amino]ethyl]-3,5-bis(fluoranyl)benzoic acid
> <PUBCHEM_IUPAC_TRADITIONAL_NAME>
4-[2-[[(2S)-2-[[(4R)-4-(3,4-dichlorobenzyl)oxy-1-[(2S)-2-hydroxy-3-methyl-butanoyl]prolyl]amino]-4,4-difluoro-butanoyl]amino]ethyl]-3,5-difluoro-benzoic acid
> <PUBCHEM_IUPAC_INCHI>
InChI=1S/C30H33Cl2F4N3O7/c1-14(2)26(40)29(43)39-12-17(46-13-15-3-4-19(31)20(32)7-15)10-24(39)28(42)38-23(11-25(35)36)27(41)37-6-5-18-21(33)8-16(30(44)45)9-22(18)34/h3-4,7-9,14,17,23-26,40H,5-6,10-13H2,1-2H3,(H,37,41)(H,38,42)(H,44,45)/t17-,23+,24?,26+/m1/s1
> <PUBCHEM_IUPAC_INCHIKEY>
RVTJNVFIDMQFIH-IPRNIJSTSA-N
> <PUBCHEM_XLOGP3_AA>
4.9
> <PUBCHEM_EXACT_MASS>
693.1631684
> <PUBCHEM_MOLECULAR_FORMULA>
C30H33Cl2F4N3O7
> <PUBCHEM_MOLECULAR_WEIGHT>
694.5
> <PUBCHEM_OPENEYE_CAN_SMILES>
CC(C)C(C(=O)N1CC(CC1C(=O)NC(CC(F)F)C(=O)NCCC2=C(C=C(C=C2F)C(=O)O)F)OCC3=CC(=C(C=C3)Cl)Cl)O
> <PUBCHEM_OPENEYE_ISO_SMILES>
CC(C)[C@@H](C(=O)N1C[C@@H](CC1C(=O)N[C@@H](CC(F)F)C(=O)NCCC2=C(C=C(C=C2F)C(=O)O)F)OCC3=CC(=C(C=C3)Cl)Cl)O
> <PUBCHEM_CACTVS_TPSA>
145
> <PUBCHEM_MONOISOTOPIC_WEIGHT>
693.1631684
> <PUBCHEM_TOTAL_CHARGE>
0
> <PUBCHEM_HEAVY_ATOM_COUNT>
46
> <PUBCHEM_ATOM_DEF_STEREO_COUNT>
3
> <PUBCHEM_ATOM_UDEF_STEREO_COUNT>
1
> <PUBCHEM_BOND_DEF_STEREO_COUNT>
0
> <PUBCHEM_BOND_UDEF_STEREO_COUNT>
0
> <PUBCHEM_ISOTOPIC_ATOM_COUNT>
0
> <PUBCHEM_COMPONENT_COUNT>
1
> <PUBCHEM_CACTVS_TAUTO_COUNT>
-1
> <PUBCHEM_COORDINATE_TYPE>
1
5
255
> <PUBCHEM_BONDANNOTATIONS>
23  10  5
25  15  6
17  21  3
30  33  8
30  34  8
33  36  8
34  37  8
36  39  8
37  39  8
40  41  8
40  42  8
41  43  8
42  44  8
43  45  8
44  45  8
18  7  5
$$$$
