507615
  -OEChem-10302200282D
 91 93  0     1  0  0  0  0  0999 V2000
    5.4641   -4.7318    0.0000 F   0  0  0  0  0  0  0  0  0  0  0  0
    2.0000   -4.7318    0.0000 F   0  0  0  0  0  0  0  0  0  0  0  0
    5.6065    2.6228    0.0000 O   0  0  0  0  0  0  0  0  0  0  0  0
    5.4641    1.2682    0.0000 O   0  0  0  0  0  0  0  0  0  0  0  0
    5.4871    6.2264    0.0000 O   0  0  0  0  0  0  0  0  0  0  0  0
    6.3301   -2.2318    0.0000 O   0  0  0  0  0  0  0  0  0  0  0  0
    7.1813    5.8663    0.0000 O   0  0  0  0  0  0  0  0  0  0  0  0
    2.8660   -8.2318    0.0000 O   0  0  0  0  0  0  0  0  0  0  0  0
    4.5981   -8.2318    0.0000 O   0  0  0  0  0  0  0  0  0  0  0  0
    7.3007    2.2627    0.0000 N   0  0  0  0  0  0  0  0  0  0  0  0
    6.3301   -0.2318    0.0000 N   0  0  0  0  0  0  0  0  0  0  0  0
    6.0223    4.5791    0.0000 N   0  0  0  0  0  0  0  0  0  0  0  0
    4.5981   -2.2318    0.0000 N   0  0  0  0  0  0  0  0  0  0  0  0
    8.7788    1.6046    0.0000 C   0  0  2  0  0  0  0  0  0  0  0  0
    7.1962    1.2682    0.0000 C   0  0  1  0  0  0  0  0  0  0  0  0
    8.1097    0.8614    0.0000 C   0  0  0  0  0  0  0  0  0  0  0  0
    8.2788    2.4706    0.0000 C   0  0  0  0  0  0  0  0  0  0  0  0
    9.7734    1.5001    0.0000 C   0  0  0  0  0  0  0  0  0  0  0  0
    6.5575    2.9318    0.0000 C   0  0  0  0  0  0  0  0  0  0  0  0
    6.3301    0.7682    0.0000 C   0  0  0  0  0  0  0  0  0  0  0  0
    6.7654    3.9100    0.0000 C   0  0  2  0  0  0  0  0  0  0  0  0
    7.7165    4.2190    0.0000 C   0  0  0  0  0  0  0  0  0  0  0  0
   10.1801    0.5865    0.0000 C   0  0  0  0  0  0  0  0  0  0  0  0
   10.3611    2.3091    0.0000 C   0  0  0  0  0  0  0  0  0  0  0  0
    5.4641   -0.7318    0.0000 C   0  0  1  0  0  0  0  0  0  0  0  0
    7.9244    5.1972    0.0000 C   0  0  0  0  0  0  0  0  0  0  0  0
    8.4596    3.5499    0.0000 C   0  0  0  0  0  0  0  0  0  0  0  0
   11.1746    0.4820    0.0000 C   0  0  0  0  0  0  0  0  0  0  0  0
   11.3557    2.2045    0.0000 C   0  0  0  0  0  0  0  0  0  0  0  0
    4.5981   -0.2318    0.0000 C   0  0  0  0  0  0  0  0  0  0  0  0
   11.7624    1.2910    0.0000 C   0  0  0  0  0  0  0  0  0  0  0  0
    5.4641   -1.7318    0.0000 C   0  0  0  0  0  0  0  0  0  0  0  0
    6.2302    5.5573    0.0000 C   0  0  0  0  0  0  0  0  0  0  0  0
    4.5981    0.7682    0.0000 C   0  0  0  0  0  0  0  0  0  0  0  0
    4.5981   -3.2318    0.0000 C   0  0  0  0  0  0  0  0  0  0  0  0
    5.6950    7.2045    0.0000 C   0  0  0  0  0  0  0  0  0  0  0  0
    3.7320   -3.7318    0.0000 C   0  0  0  0  0  0  0  0  0  0  0  0
    4.9518    7.8737    0.0000 C   0  0  0  0  0  0  0  0  0  0  0  0
    3.7320   -4.7318    0.0000 C   0  0  0  0  0  0  0  0  0  0  0  0
    5.1598    8.8518    0.0000 C   0  0  0  0  0  0  0  0  0  0  0  0
    4.0008    7.5646    0.0000 C   0  0  0  0  0  0  0  0  0  0  0  0
    4.5981   -5.2318    0.0000 C   0  0  0  0  0  0  0  0  0  0  0  0
    2.8660   -5.2318    0.0000 C   0  0  0  0  0  0  0  0  0  0  0  0
    4.5981   -6.2318    0.0000 C   0  0  0  0  0  0  0  0  0  0  0  0
    2.8660   -6.2318    0.0000 C   0  0  0  0  0  0  0  0  0  0  0  0
    3.7320   -6.7318    0.0000 C   0  0  0  0  0  0  0  0  0  0  0  0
    3.7320   -7.7318    0.0000 C   0  0  0  0  0  0  0  0  0  0  0  0
    9.0010    1.0258    0.0000 H   0  0  0  0  0  0  0  0  0  0  0  0
    6.6762    1.6059    0.0000 H   0  0  0  0  0  0  0  0  0  0  0  0
    7.7997    0.3245    0.0000 H   0  0  0  0  0  0  0  0  0  0  0  0
    8.6113    0.4970    0.0000 H   0  0  0  0  0  0  0  0  0  0  0  0
    8.8452    2.7228    0.0000 H   0  0  0  0  0  0  0  0  0  0  0  0
    8.0872    3.0603    0.0000 H   0  0  0  0  0  0  0  0  0  0  0  0
    6.1758    3.7184    0.0000 H   0  0  0  0  0  0  0  0  0  0  0  0
    7.2558    4.6339    0.0000 H   0  0  0  0  0  0  0  0  0  0  0  0
    6.8671   -0.5418    0.0000 H   0  0  0  0  0  0  0  0  0  0  0  0
    9.8157    0.0849    0.0000 H   0  0  0  0  0  0  0  0  0  0  0  0
   10.1090    2.8755    0.0000 H   0  0  0  0  0  0  0  0  0  0  0  0
    5.4641   -0.1118    0.0000 H   0  0  0  0  0  0  0  0  0  0  0  0
    5.4326    4.3875    0.0000 H   0  0  0  0  0  0  0  0  0  0  0  0
    8.5309    5.0682    0.0000 H   0  0  0  0  0  0  0  0  0  0  0  0
    8.0533    5.8036    0.0000 H   0  0  0  0  0  0  0  0  0  0  0  0
    7.3180    5.3261    0.0000 H   0  0  0  0  0  0  0  0  0  0  0  0
    8.0448    3.0891    0.0000 H   0  0  0  0  0  0  0  0  0  0  0  0
    8.9204    3.1350    0.0000 H   0  0  0  0  0  0  0  0  0  0  0  0
    8.8745    4.0106    0.0000 H   0  0  0  0  0  0  0  0  0  0  0  0
   11.4268   -0.0844    0.0000 H   0  0  0  0  0  0  0  0  0  0  0  0
   11.7201    2.7061    0.0000 H   0  0  0  0  0  0  0  0  0  0  0  0
    3.9875   -0.1242    0.0000 H   0  0  0  0  0  0  0  0  0  0  0  0
    4.3860   -0.8144    0.0000 H   0  0  0  0  0  0  0  0  0  0  0  0
   12.3790    1.2262    0.0000 H   0  0  0  0  0  0  0  0  0  0  0  0
    5.2181    0.7682    0.0000 H   0  0  0  0  0  0  0  0  0  0  0  0
    4.5981    1.3882    0.0000 H   0  0  0  0  0  0  0  0  0  0  0  0
    3.9781    0.7682    0.0000 H   0  0  0  0  0  0  0  0  0  0  0  0
    4.0611   -1.9218    0.0000 H   0  0  0  0  0  0  0  0  0  0  0  0
    4.8101   -3.8144    0.0000 H   0  0  0  0  0  0  0  0  0  0  0  0
    5.2087   -3.1242    0.0000 H   0  0  0  0  0  0  0  0  0  0  0  0
    6.2698    6.9723    0.0000 H   0  0  0  0  0  0  0  0  0  0  0  0
    6.0235    7.7303    0.0000 H   0  0  0  0  0  0  0  0  0  0  0  0
    3.5200   -3.1492    0.0000 H   0  0  0  0  0  0  0  0  0  0  0  0
    3.1215   -3.8395    0.0000 H   0  0  0  0  0  0  0  0  0  0  0  0
    4.8229    7.2672    0.0000 H   0  0  0  0  0  0  0  0  0  0  0  0
    5.7662    8.7229    0.0000 H   0  0  0  0  0  0  0  0  0  0  0  0
    5.2886    9.4583    0.0000 H   0  0  0  0  0  0  0  0  0  0  0  0
    4.5533    8.9807    0.0000 H   0  0  0  0  0  0  0  0  0  0  0  0
    3.8092    8.1543    0.0000 H   0  0  0  0  0  0  0  0  0  0  0  0
    3.4111    7.3731    0.0000 H   0  0  0  0  0  0  0  0  0  0  0  0
    4.1924    6.9750    0.0000 H   0  0  0  0  0  0  0  0  0  0  0  0
    5.1350   -6.5418    0.0000 H   0  0  0  0  0  0  0  0  0  0  0  0
    2.3291   -6.5418    0.0000 H   0  0  0  0  0  0  0  0  0  0  0  0
    2.8660   -8.8518    0.0000 H   0  0  0  0  0  0  0  0  0  0  0  0
  1 42  1  0  0  0  0
  2 43  1  0  0  0  0
  3 19  2  0  0  0  0
  4 20  2  0  0  0  0
  5 33  1  0  0  0  0
  5 36  1  0  0  0  0
  6 32  2  0  0  0  0
  7 33  2  0  0  0  0
  8 47  1  0  0  0  0
  8 91  1  0  0  0  0
  9 47  2  0  0  0  0
 10 15  1  0  0  0  0
 10 17  1  0  0  0  0
 10 19  1  0  0  0  0
 11 20  1  0  0  0  0
 25 11  1  6  0  0  0
 11 56  1  0  0  0  0
 21 12  1  1  0  0  0
 12 33  1  0  0  0  0
 12 60  1  0  0  0  0
 13 32  1  0  0  0  0
 13 35  1  0  0  0  0
 13 75  1  0  0  0  0
 14 16  1  0  0  0  0
 14 17  1  0  0  0  0
 14 18  1  6  0  0  0
 14 48  1  0  0  0  0
 15 16  1  0  0  0  0
 15 20  1  1  0  0  0
 15 49  1  0  0  0  0
 16 50  1  0  0  0  0
 16 51  1  0  0  0  0
 17 52  1  0  0  0  0
 17 53  1  0  0  0  0
 18 23  2  0  0  0  0
 18 24  1  0  0  0  0
 19 21  1  0  0  0  0
 21 22  1  0  0  0  0
 21 54  1  0  0  0  0
 22 26  1  0  0  0  0
 22 27  1  0  0  0  0
 22 55  1  0  0  0  0
 23 28  1  0  0  0  0
 23 57  1  0  0  0  0
 24 29  2  0  0  0  0
 24 58  1  0  0  0  0
 25 30  1  0  0  0  0
 25 32  1  0  0  0  0
 25 59  1  0  0  0  0
 26 61  1  0  0  0  0
 26 62  1  0  0  0  0
 26 63  1  0  0  0  0
 27 64  1  0  0  0  0
 27 65  1  0  0  0  0
 27 66  1  0  0  0  0
 28 31  2  0  0  0  0
 28 67  1  0  0  0  0
 29 31  1  0  0  0  0
 29 68  1  0  0  0  0
 30 34  1  0  0  0  0
 30 69  1  0  0  0  0
 30 70  1  0  0  0  0
 31 71  1  0  0  0  0
 34 72  1  0  0  0  0
 34 73  1  0  0  0  0
 34 74  1  0  0  0  0
 35 37  1  0  0  0  0
 35 76  1  0  0  0  0
 35 77  1  0  0  0  0
 36 38  1  0  0  0  0
 36 78  1  0  0  0  0
 36 79  1  0  0  0  0
 37 39  1  0  0  0  0
 37 80  1  0  0  0  0
 37 81  1  0  0  0  0
 38 40  1  0  0  0  0
 38 41  1  0  0  0  0
 38 82  1  0  0  0  0
 39 42  2  0  0  0  0
 39 43  1  0  0  0  0
 40 83  1  0  0  0  0
 40 84  1  0  0  0  0
 40 85  1  0  0  0  0
 41 86  1  0  0  0  0
 41 87  1  0  0  0  0
 41 88  1  0  0  0  0
 42 44  1  0  0  0  0
 43 45  2  0  0  0  0
 44 46  2  0  0  0  0
 44 89  1  0  0  0  0
 45 46  1  0  0  0  0
 45 90  1  0  0  0  0
 46 47  1  0  0  0  0
M  END
> <PUBCHEM_COMPOUND_CID>
507615
> <PUBCHEM_COMPOUND_CANONICALIZED>
1
> <PUBCHEM_CACTVS_COMPLEXITY>
1070
> <PUBCHEM_CACTVS_HBOND_ACCEPTOR>
9
> <PUBCHEM_CACTVS_HBOND_DONOR>
4
> <PUBCHEM_CACTVS_ROTATABLE_BOND>
15
> <PUBCHEM_CACTVS_SUBSKEYS>
AAADcfB/uYAAAAAAAAAAAAAAAAAAAWAAAAAwYAAAAAAAAAABQAAAHwAQCAAADSjhmA4yCIPABgCIAiHSGAACAAAkAAAIiIGICMkIZjKAlTGccQAk1gGImYeYyfCOwAAAAAAAAACAAAAAAAAAAAAAAAAAAA==
> <PUBCHEM_IUPAC_OPENEYE_NAME>
3,5-difluoro-4-[2-[[(2S)-2-[[(2S,4S)-1-[(2S)-2-(isobutoxycarbonylamino)-3-methyl-butanoyl]-4-phenyl-pyrrolidine-2-carbonyl]amino]butanoyl]amino]ethyl]benzoic acid
> <PUBCHEM_IUPAC_CAS_NAME>
3,5-difluoro-4-[2-[[(2S)-2-[[[(2S,4S)-1-[(2S)-3-methyl-2-[[2-methylpropoxy(oxo)methyl]amino]-1-oxobutyl]-4-phenyl-2-pyrrolidinyl]-oxomethyl]amino]-1-oxobutyl]amino]ethyl]benzoic acid
> <PUBCHEM_IUPAC_NAME_MARKUP>
3,5-difluoro-4-[2-[[(2<I>S</I>)-2-[[(2<I>S</I>,4<I>S</I>)-1-[(2<I>S</I>)-3-methyl-2-(2-methylpropoxycarbonylamino)butanoyl]-4-phenylpyrrolidine-2-carbonyl]amino]butanoyl]amino]ethyl]benzoic acid
> <PUBCHEM_IUPAC_NAME>
3,5-difluoro-4-[2-[[(2S)-2-[[(2S,4S)-1-[(2S)-3-methyl-2-(2-methylpropoxycarbonylamino)butanoyl]-4-phenylpyrrolidine-2-carbonyl]amino]butanoyl]amino]ethyl]benzoic acid
> <PUBCHEM_IUPAC_SYSTEMATIC_NAME>
3,5-bis(fluoranyl)-4-[2-[[(2S)-2-[[(2S,4S)-1-[(2S)-3-methyl-2-(2-methylpropoxycarbonylamino)butanoyl]-4-phenyl-pyrrolidin-2-yl]carbonylamino]butanoyl]amino]ethyl]benzoic acid
> <PUBCHEM_IUPAC_TRADITIONAL_NAME>
3,5-difluoro-4-[2-[[(2S)-2-[[(2S,4S)-1-[(2S)-2-(isobutoxycarbonylamino)-3-methyl-butanoyl]-4-phenyl-prolyl]amino]butanoyl]amino]ethyl]benzoic acid
> <PUBCHEM_IUPAC_INCHI>
InChI=1S/C34H44F2N4O7/c1-6-27(30(41)37-13-12-24-25(35)14-22(33(44)45)15-26(24)36)38-31(42)28-16-23(21-10-8-7-9-11-21)17-40(28)32(43)29(20(4)5)39-34(46)47-18-19(2)3/h7-11,14-15,19-20,23,27-29H,6,12-13,16-18H2,1-5H3,(H,37,41)(H,38,42)(H,39,46)(H,44,45)/t23-,27+,28+,29+/m1/s1
> <PUBCHEM_IUPAC_INCHIKEY>
QPVKUKHMQGTBMU-KERJZVRCSA-N
> <PUBCHEM_XLOGP3_AA>
5.4
> <PUBCHEM_EXACT_MASS>
658.31780608
> <PUBCHEM_MOLECULAR_FORMULA>
C34H44F2N4O7
> <PUBCHEM_MOLECULAR_WEIGHT>
658.7
> <PUBCHEM_OPENEYE_CAN_SMILES>
CCC(C(=O)NCCC1=C(C=C(C=C1F)C(=O)O)F)NC(=O)C2CC(CN2C(=O)C(C(C)C)NC(=O)OCC(C)C)C3=CC=CC=C3
> <PUBCHEM_OPENEYE_ISO_SMILES>
CC[C@@H](C(=O)NCCC1=C(C=C(C=C1F)C(=O)O)F)NC(=O)[C@@H]2C[C@H](CN2C(=O)[C@H](C(C)C)NC(=O)OCC(C)C)C3=CC=CC=C3
> <PUBCHEM_CACTVS_TPSA>
154
> <PUBCHEM_MONOISOTOPIC_WEIGHT>
658.31780608
> <PUBCHEM_TOTAL_CHARGE>
0
> <PUBCHEM_HEAVY_ATOM_COUNT>
47
> <PUBCHEM_ATOM_DEF_STEREO_COUNT>
4
> <PUBCHEM_ATOM_UDEF_STEREO_COUNT>
0
> <PUBCHEM_BOND_DEF_STEREO_COUNT>
0
> <PUBCHEM_BOND_UDEF_STEREO_COUNT>
0
> <PUBCHEM_ISOTOPIC_ATOM_COUNT>
0
> <PUBCHEM_COMPONENT_COUNT>
1
> <PUBCHEM_CACTVS_TAUTO_COUNT>
-1
> <PUBCHEM_COORDINATE_TYPE>
1
5
255
> <PUBCHEM_BONDANNOTATIONS>
25  11  6
21  12  5
14  18  6
15  20  5
18  23  8
18  24  8
23  28  8
24  29  8
28  31  8
29  31  8
39  42  8
39  43  8
42  44  8
43  45  8
44  46  8
45  46  8
$$$$
