507624
  -OEChem-10302200282D
 94 96  0     1  0  0  0  0  0999 V2000
    5.4641    3.8385    0.0000 F   0  0  0  0  0  0  0  0  0  0  0  0
    3.7320    3.8385    0.0000 F   0  0  0  0  0  0  0  0  0  0  0  0
    2.0000   -2.1615    0.0000 F   0  0  0  0  0  0  0  0  0  0  0  0
    5.4641   -2.1615    0.0000 F   0  0  0  0  0  0  0  0  0  0  0  0
    8.4405    0.2844    0.0000 O   0  0  0  0  0  0  0  0  0  0  0  0
    7.1962    0.8385    0.0000 O   0  0  0  0  0  0  0  0  0  0  0  0
   11.5016   -1.6208    0.0000 O   0  0  0  0  0  0  0  0  0  0  0  0
   12.0368    0.0265    0.0000 O   0  0  0  0  0  0  0  0  0  0  0  0
    6.3301    0.3385    0.0000 O   0  0  0  0  0  0  0  0  0  0  0  0
    2.8660   -5.6615    0.0000 O   0  0  0  0  0  0  0  0  0  0  0  0
    4.5981   -5.6615    0.0000 O   0  0  0  0  0  0  0  0  0  0  0  0
    8.9757    1.9317    0.0000 N   0  0  0  0  0  0  0  0  0  0  0  0
    6.3301    2.3385    0.0000 N   0  0  0  0  0  0  0  0  0  0  0  0
   10.3426   -0.3336    0.0000 N   0  0  0  0  0  0  0  0  0  0  0  0
    4.5981    0.3385    0.0000 N   0  0  0  0  0  0  0  0  0  0  0  0
    9.1448    3.5409    0.0000 C   0  0  2  0  0  0  0  0  0  0  0  0
    8.0622    2.3385    0.0000 C   0  0  1  0  0  0  0  0  0  0  0  0
    8.1667    3.3330    0.0000 C   0  0  0  0  0  0  0  0  0  0  0  0
    9.6448    2.6749    0.0000 C   0  0  0  0  0  0  0  0  0  0  0  0
    9.5516    4.4544    0.0000 C   0  0  0  0  0  0  0  0  0  0  0  0
    9.1836    0.9536    0.0000 C   0  0  0  0  0  0  0  0  0  0  0  0
   10.1347    0.6446    0.0000 C   0  0  2  0  0  0  0  0  0  0  0  0
    7.1962    1.8385    0.0000 C   0  0  0  0  0  0  0  0  0  0  0  0
   10.8778    1.3137    0.0000 C   0  0  2  0  0  0  0  0  0  0  0  0
    8.9638    5.2635    0.0000 C   0  0  0  0  0  0  0  0  0  0  0  0
   10.5461    4.5590    0.0000 C   0  0  0  0  0  0  0  0  0  0  0  0
   11.8289    1.0047    0.0000 C   0  0  0  0  0  0  0  0  0  0  0  0
   10.6699    2.2918    0.0000 C   0  0  0  0  0  0  0  0  0  0  0  0
    5.4641    1.8385    0.0000 C   0  0  1  0  0  0  0  0  0  0  0  0
    9.3705    6.1770    0.0000 C   0  0  0  0  0  0  0  0  0  0  0  0
   10.9528    5.4725    0.0000 C   0  0  0  0  0  0  0  0  0  0  0  0
   12.5720    1.6738    0.0000 C   0  0  0  0  0  0  0  0  0  0  0  0
    4.5981    2.3385    0.0000 C   0  0  0  0  0  0  0  0  0  0  0  0
   10.3651    6.2815    0.0000 C   0  0  0  0  0  0  0  0  0  0  0  0
   11.2937   -0.6426    0.0000 C   0  0  0  0  0  0  0  0  0  0  0  0
    5.4641    0.8385    0.0000 C   0  0  0  0  0  0  0  0  0  0  0  0
    4.5981    3.3385    0.0000 C   0  0  0  0  0  0  0  0  0  0  0  0
    4.5981   -0.6615    0.0000 C   0  0  0  0  0  0  0  0  0  0  0  0
   12.4526   -1.9298    0.0000 C   0  0  0  0  0  0  0  0  0  0  0  0
   12.6605   -2.9079    0.0000 C   0  0  0  0  0  0  0  0  0  0  0  0
    3.7320   -1.1615    0.0000 C   0  0  0  0  0  0  0  0  0  0  0  0
   13.6116   -3.2169    0.0000 C   0  0  0  0  0  0  0  0  0  0  0  0
   11.9174   -3.5770    0.0000 C   0  0  0  0  0  0  0  0  0  0  0  0
    3.7320   -2.1615    0.0000 C   0  0  0  0  0  0  0  0  0  0  0  0
    2.8660   -2.6615    0.0000 C   0  0  0  0  0  0  0  0  0  0  0  0
    4.5981   -2.6615    0.0000 C   0  0  0  0  0  0  0  0  0  0  0  0
    2.8660   -3.6615    0.0000 C   0  0  0  0  0  0  0  0  0  0  0  0
    4.5981   -3.6615    0.0000 C   0  0  0  0  0  0  0  0  0  0  0  0
    3.7320   -4.1615    0.0000 C   0  0  0  0  0  0  0  0  0  0  0  0
    3.7320   -5.1615    0.0000 C   0  0  0  0  0  0  0  0  0  0  0  0
    8.7547    4.0227    0.0000 H   0  0  0  0  0  0  0  0  0  0  0  0
    8.0946    1.7193    0.0000 H   0  0  0  0  0  0  0  0  0  0  0  0
    8.1019    3.9496    0.0000 H   0  0  0  0  0  0  0  0  0  0  0  0
    7.5467    3.3330    0.0000 H   0  0  0  0  0  0  0  0  0  0  0  0
   10.0597    2.2141    0.0000 H   0  0  0  0  0  0  0  0  0  0  0  0
   10.1464    3.0393    0.0000 H   0  0  0  0  0  0  0  0  0  0  0  0
   10.7243    0.4530    0.0000 H   0  0  0  0  0  0  0  0  0  0  0  0
   10.2882    1.5053    0.0000 H   0  0  0  0  0  0  0  0  0  0  0  0
    6.3301    2.9585    0.0000 H   0  0  0  0  0  0  0  0  0  0  0  0
    8.3472    5.1986    0.0000 H   0  0  0  0  0  0  0  0  0  0  0  0
   10.9105    4.0574    0.0000 H   0  0  0  0  0  0  0  0  0  0  0  0
   11.5378    0.4572    0.0000 H   0  0  0  0  0  0  0  0  0  0  0  0
   12.3175    0.6230    0.0000 H   0  0  0  0  0  0  0  0  0  0  0  0
    9.8818   -0.7484    0.0000 H   0  0  0  0  0  0  0  0  0  0  0  0
   11.2764    2.4208    0.0000 H   0  0  0  0  0  0  0  0  0  0  0  0
   10.5410    2.8983    0.0000 H   0  0  0  0  0  0  0  0  0  0  0  0
   10.0635    2.1629    0.0000 H   0  0  0  0  0  0  0  0  0  0  0  0
    5.4641    2.4585    0.0000 H   0  0  0  0  0  0  0  0  0  0  0  0
    9.0061    6.6786    0.0000 H   0  0  0  0  0  0  0  0  0  0  0  0
   11.5695    5.5373    0.0000 H   0  0  0  0  0  0  0  0  0  0  0  0
   12.9869    1.2131    0.0000 H   0  0  0  0  0  0  0  0  0  0  0  0
   13.0328    2.0887    0.0000 H   0  0  0  0  0  0  0  0  0  0  0  0
   12.1572    2.1346    0.0000 H   0  0  0  0  0  0  0  0  0  0  0  0
    3.9875    2.4461    0.0000 H   0  0  0  0  0  0  0  0  0  0  0  0
    4.3860    1.7559    0.0000 H   0  0  0  0  0  0  0  0  0  0  0  0
   10.6172    6.8479    0.0000 H   0  0  0  0  0  0  0  0  0  0  0  0
    4.5981    3.9585    0.0000 H   0  0  0  0  0  0  0  0  0  0  0  0
    4.0611    0.6485    0.0000 H   0  0  0  0  0  0  0  0  0  0  0  0
    4.8101   -1.2441    0.0000 H   0  0  0  0  0  0  0  0  0  0  0  0
    5.2087   -0.5539    0.0000 H   0  0  0  0  0  0  0  0  0  0  0  0
   13.0723   -1.9081    0.0000 H   0  0  0  0  0  0  0  0  0  0  0  0
   12.5389   -1.3158    0.0000 H   0  0  0  0  0  0  0  0  0  0  0  0
   12.7894   -3.5144    0.0000 H   0  0  0  0  0  0  0  0  0  0  0  0
    3.5200   -0.5789    0.0000 H   0  0  0  0  0  0  0  0  0  0  0  0
    3.1215   -1.2692    0.0000 H   0  0  0  0  0  0  0  0  0  0  0  0
   13.4200   -3.8066    0.0000 H   0  0  0  0  0  0  0  0  0  0  0  0
   14.2013   -3.4085    0.0000 H   0  0  0  0  0  0  0  0  0  0  0  0
   13.8032   -2.6273    0.0000 H   0  0  0  0  0  0  0  0  0  0  0  0
   11.5025   -3.1163    0.0000 H   0  0  0  0  0  0  0  0  0  0  0  0
   11.4566   -3.9919    0.0000 H   0  0  0  0  0  0  0  0  0  0  0  0
   12.3323   -4.0378    0.0000 H   0  0  0  0  0  0  0  0  0  0  0  0
    2.3291   -3.9715    0.0000 H   0  0  0  0  0  0  0  0  0  0  0  0
    5.1350   -3.9715    0.0000 H   0  0  0  0  0  0  0  0  0  0  0  0
    2.8660   -6.2815    0.0000 H   0  0  0  0  0  0  0  0  0  0  0  0
  1 37  1  0  0  0  0
  2 37  1  0  0  0  0
  3 45  1  0  0  0  0
  4 46  1  0  0  0  0
  5 21  2  0  0  0  0
  6 23  2  0  0  0  0
  7 35  1  0  0  0  0
  7 39  1  0  0  0  0
  8 35  2  0  0  0  0
  9 36  2  0  0  0  0
 10 50  1  0  0  0  0
 10 94  1  0  0  0  0
 11 50  2  0  0  0  0
 12 17  1  0  0  0  0
 12 19  1  0  0  0  0
 12 21  1  0  0  0  0
 13 23  1  0  0  0  0
 29 13  1  6  0  0  0
 13 59  1  0  0  0  0
 22 14  1  6  0  0  0
 14 35  1  0  0  0  0
 14 64  1  0  0  0  0
 15 36  1  0  0  0  0
 15 38  1  0  0  0  0
 15 78  1  0  0  0  0
 16 18  1  0  0  0  0
 16 19  1  0  0  0  0
 16 20  1  1  0  0  0
 16 51  1  0  0  0  0
 17 18  1  0  0  0  0
 17 23  1  6  0  0  0
 17 52  1  0  0  0  0
 18 53  1  0  0  0  0
 18 54  1  0  0  0  0
 19 55  1  0  0  0  0
 19 56  1  0  0  0  0
 20 25  2  0  0  0  0
 20 26  1  0  0  0  0
 21 22  1  0  0  0  0
 22 24  1  0  0  0  0
 22 57  1  0  0  0  0
 24 27  1  0  0  0  0
 24 28  1  1  0  0  0
 24 58  1  0  0  0  0
 25 30  1  0  0  0  0
 25 60  1  0  0  0  0
 26 31  2  0  0  0  0
 26 61  1  0  0  0  0
 27 32  1  0  0  0  0
 27 62  1  0  0  0  0
 27 63  1  0  0  0  0
 28 65  1  0  0  0  0
 28 66  1  0  0  0  0
 28 67  1  0  0  0  0
 29 33  1  0  0  0  0
 29 36  1  0  0  0  0
 29 68  1  0  0  0  0
 30 34  2  0  0  0  0
 30 69  1  0  0  0  0
 31 34  1  0  0  0  0
 31 70  1  0  0  0  0
 32 71  1  0  0  0  0
 32 72  1  0  0  0  0
 32 73  1  0  0  0  0
 33 37  1  0  0  0  0
 33 74  1  0  0  0  0
 33 75  1  0  0  0  0
 34 76  1  0  0  0  0
 37 77  1  0  0  0  0
 38 41  1  0  0  0  0
 38 79  1  0  0  0  0
 38 80  1  0  0  0  0
 39 40  1  0  0  0  0
 39 81  1  0  0  0  0
 39 82  1  0  0  0  0
 40 42  1  0  0  0  0
 40 43  1  0  0  0  0
 40 83  1  0  0  0  0
 41 44  1  0  0  0  0
 41 84  1  0  0  0  0
 41 85  1  0  0  0  0
 42 86  1  0  0  0  0
 42 87  1  0  0  0  0
 42 88  1  0  0  0  0
 43 89  1  0  0  0  0
 43 90  1  0  0  0  0
 43 91  1  0  0  0  0
 44 45  2  0  0  0  0
 44 46  1  0  0  0  0
 45 47  1  0  0  0  0
 46 48  2  0  0  0  0
 47 49  2  0  0  0  0
 47 92  1  0  0  0  0
 48 49  1  0  0  0  0
 48 93  1  0  0  0  0
 49 50  1  0  0  0  0
M  END
> <PUBCHEM_COMPOUND_CID>
507624
> <PUBCHEM_COMPOUND_CANONICALIZED>
1
> <PUBCHEM_CACTVS_COMPLEXITY>
1150
> <PUBCHEM_CACTVS_HBOND_ACCEPTOR>
11
> <PUBCHEM_CACTVS_HBOND_DONOR>
4
> <PUBCHEM_CACTVS_ROTATABLE_BOND>
17
> <PUBCHEM_CACTVS_SUBSKEYS>
AAADcfB/ucAAAAAAAAAAAAAAAAAAAWAAAAAwYAAAAAAAAAABQAAAHwAQCAAADSjhmB4yCIPABgCIAiHSGAACAAAkAAAIiIGICMkIZjKAlTGccQAk1gGImYeYyfCOwAAAAAAAAACAAAAAAAAAAAAAAAAAAA==
> <PUBCHEM_IUPAC_OPENEYE_NAME>
4-[2-[[(2S)-4,4-difluoro-2-[[(2S,4S)-1-[(2S,3S)-2-(isobutoxycarbonylamino)-3-methyl-pentanoyl]-4-phenyl-pyrrolidine-2-carbonyl]amino]butanoyl]amino]ethyl]-3,5-difluoro-benzoic acid
> <PUBCHEM_IUPAC_CAS_NAME>
4-[2-[[(2S)-4,4-difluoro-2-[[[(2S,4S)-1-[(2S,3S)-3-methyl-2-[[2-methylpropoxy(oxo)methyl]amino]-1-oxopentyl]-4-phenyl-2-pyrrolidinyl]-oxomethyl]amino]-1-oxobutyl]amino]ethyl]-3,5-difluorobenzoic acid
> <PUBCHEM_IUPAC_NAME_MARKUP>
4-[2-[[(2<I>S</I>)-4,4-difluoro-2-[[(2<I>S</I>,4<I>S</I>)-1-[(2<I>S</I>,3<I>S</I>)-3-methyl-2-(2-methylpropoxycarbonylamino)pentanoyl]-4-phenylpyrrolidine-2-carbonyl]amino]butanoyl]amino]ethyl]-3,5-difluorobenzoic acid
> <PUBCHEM_IUPAC_NAME>
4-[2-[[(2S)-4,4-difluoro-2-[[(2S,4S)-1-[(2S,3S)-3-methyl-2-(2-methylpropoxycarbonylamino)pentanoyl]-4-phenylpyrrolidine-2-carbonyl]amino]butanoyl]amino]ethyl]-3,5-difluorobenzoic acid
> <PUBCHEM_IUPAC_SYSTEMATIC_NAME>
4-[2-[[(2S)-4,4-bis(fluoranyl)-2-[[(2S,4S)-1-[(2S,3S)-3-methyl-2-(2-methylpropoxycarbonylamino)pentanoyl]-4-phenyl-pyrrolidin-2-yl]carbonylamino]butanoyl]amino]ethyl]-3,5-bis(fluoranyl)benzoic acid
> <PUBCHEM_IUPAC_TRADITIONAL_NAME>
4-[2-[[(2S)-4,4-difluoro-2-[[(2S,4S)-1-[(2S,3S)-2-(isobutoxycarbonylamino)-3-methyl-pentanoyl]-4-phenyl-prolyl]amino]butanoyl]amino]ethyl]-3,5-difluoro-benzoic acid
> <PUBCHEM_IUPAC_INCHI>
InChI=1S/C35H44F4N4O7/c1-5-20(4)30(42-35(49)50-18-19(2)3)33(46)43-17-23(21-9-7-6-8-10-21)15-28(43)32(45)41-27(16-29(38)39)31(44)40-12-11-24-25(36)13-22(34(47)48)14-26(24)37/h6-10,13-14,19-20,23,27-30H,5,11-12,15-18H2,1-4H3,(H,40,44)(H,41,45)(H,42,49)(H,47,48)/t20-,23+,27-,28-,30-/m0/s1
> <PUBCHEM_IUPAC_INCHIKEY>
YKYJJLGAJKGKNQ-VVZOESQBSA-N
> <PUBCHEM_XLOGP3_AA>
6.1
> <PUBCHEM_EXACT_MASS>
708.31461240
> <PUBCHEM_MOLECULAR_FORMULA>
C35H44F4N4O7
> <PUBCHEM_MOLECULAR_WEIGHT>
708.7
> <PUBCHEM_OPENEYE_CAN_SMILES>
CCC(C)C(C(=O)N1CC(CC1C(=O)NC(CC(F)F)C(=O)NCCC2=C(C=C(C=C2F)C(=O)O)F)C3=CC=CC=C3)NC(=O)OCC(C)C
> <PUBCHEM_OPENEYE_ISO_SMILES>
CC[C@H](C)[C@@H](C(=O)N1C[C@@H](C[C@H]1C(=O)N[C@@H](CC(F)F)C(=O)NCCC2=C(C=C(C=C2F)C(=O)O)F)C3=CC=CC=C3)NC(=O)OCC(C)C
> <PUBCHEM_CACTVS_TPSA>
154
> <PUBCHEM_MONOISOTOPIC_WEIGHT>
708.31461240
> <PUBCHEM_TOTAL_CHARGE>
0
> <PUBCHEM_HEAVY_ATOM_COUNT>
50
> <PUBCHEM_ATOM_DEF_STEREO_COUNT>
5
> <PUBCHEM_ATOM_UDEF_STEREO_COUNT>
0
> <PUBCHEM_BOND_DEF_STEREO_COUNT>
0
> <PUBCHEM_BOND_UDEF_STEREO_COUNT>
0
> <PUBCHEM_ISOTOPIC_ATOM_COUNT>
0
> <PUBCHEM_COMPONENT_COUNT>
1
> <PUBCHEM_CACTVS_TAUTO_COUNT>
-1
> <PUBCHEM_COORDINATE_TYPE>
1
5
255
> <PUBCHEM_BONDANNOTATIONS>
29  13  6
22  14  6
16  20  5
17  23  6
20  25  8
20  26  8
24  28  5
25  30  8
26  31  8
30  34  8
31  34  8
44  45  8
44  46  8
45  47  8
46  48  8
47  49  8
48  49  8
$$$$
