507646
  -OEChem-10302200282D
104106  0     1  0  0  0  0  0999 V2000
   12.7456    5.9715    0.0000 S   0  0  0  0  0  0  0  0  0  0  0  0
   11.8795   -4.5285    0.0000 F   0  0  0  0  0  0  0  0  0  0  0  0
   10.1475   -4.5285    0.0000 F   0  0  0  0  0  0  0  0  0  0  0  0
   10.1475    1.4715    0.0000 F   0  0  0  0  0  0  0  0  0  0  0  0
   13.6116    1.4715    0.0000 F   0  0  0  0  0  0  0  0  0  0  0  0
    7.1711   -0.9744    0.0000 O   0  0  0  0  0  0  0  0  0  0  0  0
    8.4154   -1.5285    0.0000 O   0  0  0  0  0  0  0  0  0  0  0  0
    4.1100    0.9307    0.0000 O   0  0  0  0  0  0  0  0  0  0  0  0
    9.2815   -1.0285    0.0000 O   0  0  0  0  0  0  0  0  0  0  0  0
    3.5748   -0.7165    0.0000 O   0  0  0  0  0  0  0  0  0  0  0  0
   11.0135    4.9715    0.0000 O   0  0  0  0  0  0  0  0  0  0  0  0
   13.7456    5.9715    0.0000 O   0  0  0  0  0  0  0  0  0  0  0  0
   11.7456    5.9715    0.0000 O   0  0  0  0  0  0  0  0  0  0  0  0
    6.6359   -2.6217    0.0000 N   0  0  0  0  0  0  0  0  0  0  0  0
    9.2815   -3.0285    0.0000 N   0  0  0  0  0  0  0  0  0  0  0  0
    5.2690   -0.3564    0.0000 N   0  0  0  0  0  0  0  0  0  0  0  0
   11.0135   -1.0285    0.0000 N   0  0  0  0  0  0  0  0  0  0  0  0
   12.7456    4.9715    0.0000 N   0  0  0  0  0  0  0  0  0  0  0  0
    6.4667   -4.2309    0.0000 C   0  0  2  0  0  0  0  0  0  0  0  0
    6.0600   -5.1444    0.0000 C   0  0  0  0  0  0  0  0  0  0  0  0
    7.4449   -4.0230    0.0000 C   0  0  0  0  0  0  0  0  0  0  0  0
    5.9667   -3.3649    0.0000 C   0  0  0  0  0  0  0  0  0  0  0  0
    7.5494   -3.0285    0.0000 C   0  0  1  0  0  0  0  0  0  0  0  0
    6.6478   -5.9535    0.0000 C   0  0  0  0  0  0  0  0  0  0  0  0
    5.0655   -5.2490    0.0000 C   0  0  0  0  0  0  0  0  0  0  0  0
    6.2411   -6.8670    0.0000 C   0  0  0  0  0  0  0  0  0  0  0  0
    4.6588   -6.1625    0.0000 C   0  0  0  0  0  0  0  0  0  0  0  0
    5.2465   -6.9715    0.0000 C   0  0  0  0  0  0  0  0  0  0  0  0
    6.4280   -1.6436    0.0000 C   0  0  0  0  0  0  0  0  0  0  0  0
    8.4154   -2.5285    0.0000 C   0  0  0  0  0  0  0  0  0  0  0  0
    5.4769   -1.3346    0.0000 C   0  0  2  0  0  0  0  0  0  0  0  0
    4.7338   -2.0037    0.0000 C   0  0  0  0  0  0  0  0  0  0  0  0
   10.1475   -2.5285    0.0000 C   0  0  1  0  0  0  0  0  0  0  0  0
    3.7827   -1.6947    0.0000 C   0  0  0  0  0  0  0  0  0  0  0  0
    4.9417   -2.9818    0.0000 C   0  0  0  0  0  0  0  0  0  0  0  0
   11.0135   -3.0285    0.0000 C   0  0  0  0  0  0  0  0  0  0  0  0
   10.1475   -1.5285    0.0000 C   0  0  0  0  0  0  0  0  0  0  0  0
    4.3179   -0.0474    0.0000 C   0  0  0  0  0  0  0  0  0  0  0  0
   11.0135   -4.0285    0.0000 C   0  0  0  0  0  0  0  0  0  0  0  0
   11.0135   -0.0285    0.0000 C   0  0  0  0  0  0  0  0  0  0  0  0
    3.1590    1.2398    0.0000 C   0  0  0  0  0  0  0  0  0  0  0  0
   11.8795    0.4715    0.0000 C   0  0  0  0  0  0  0  0  0  0  0  0
    2.9511    2.2179    0.0000 C   0  0  0  0  0  0  0  0  0  0  0  0
   11.8795    1.4715    0.0000 C   0  0  0  0  0  0  0  0  0  0  0  0
    2.0000    2.5269    0.0000 C   0  0  0  0  0  0  0  0  0  0  0  0
    3.6942    2.8870    0.0000 C   0  0  0  0  0  0  0  0  0  0  0  0
   11.0135    1.9715    0.0000 C   0  0  0  0  0  0  0  0  0  0  0  0
   12.7456    1.9715    0.0000 C   0  0  0  0  0  0  0  0  0  0  0  0
   11.0135    2.9715    0.0000 C   0  0  0  0  0  0  0  0  0  0  0  0
   12.7456    2.9715    0.0000 C   0  0  0  0  0  0  0  0  0  0  0  0
   11.8795    3.4715    0.0000 C   0  0  0  0  0  0  0  0  0  0  0  0
   11.8795    4.4715    0.0000 C   0  0  0  0  0  0  0  0  0  0  0  0
   12.7456    6.9715    0.0000 C   0  0  0  0  0  0  0  0  0  0  0  0
    5.6179   -4.2754    0.0000 H   0  0  0  0  0  0  0  0  0  0  0  0
    6.6766   -5.0796    0.0000 H   0  0  0  0  0  0  0  0  0  0  0  0
    7.5097   -4.6396    0.0000 H   0  0  0  0  0  0  0  0  0  0  0  0
    8.0649   -4.0230    0.0000 H   0  0  0  0  0  0  0  0  0  0  0  0
    5.5519   -2.9041    0.0000 H   0  0  0  0  0  0  0  0  0  0  0  0
    5.4652   -3.7293    0.0000 H   0  0  0  0  0  0  0  0  0  0  0  0
    7.5170   -2.4093    0.0000 H   0  0  0  0  0  0  0  0  0  0  0  0
    7.1618   -6.3002    0.0000 H   0  0  0  0  0  0  0  0  0  0  0  0
    7.0785   -5.5075    0.0000 H   0  0  0  0  0  0  0  0  0  0  0  0
    5.1087   -4.6305    0.0000 H   0  0  0  0  0  0  0  0  0  0  0  0
    4.4639   -5.0990    0.0000 H   0  0  0  0  0  0  0  0  0  0  0  0
    6.1978   -7.4855    0.0000 H   0  0  0  0  0  0  0  0  0  0  0  0
    6.8426   -7.0170    0.0000 H   0  0  0  0  0  0  0  0  0  0  0  0
    4.1447   -5.8158    0.0000 H   0  0  0  0  0  0  0  0  0  0  0  0
    4.2281   -6.6085    0.0000 H   0  0  0  0  0  0  0  0  0  0  0  0
    4.6893   -7.2433    0.0000 H   0  0  0  0  0  0  0  0  0  0  0  0
    5.4174   -7.5675    0.0000 H   0  0  0  0  0  0  0  0  0  0  0  0
    4.8872   -1.1430    0.0000 H   0  0  0  0  0  0  0  0  0  0  0  0
    9.2815   -3.6485    0.0000 H   0  0  0  0  0  0  0  0  0  0  0  0
    5.3234   -2.1953    0.0000 H   0  0  0  0  0  0  0  0  0  0  0  0
    9.6106   -2.2185    0.0000 H   0  0  0  0  0  0  0  0  0  0  0  0
    5.7297    0.0584    0.0000 H   0  0  0  0  0  0  0  0  0  0  0  0
    3.9743   -1.1050    0.0000 H   0  0  0  0  0  0  0  0  0  0  0  0
    3.1930   -1.5031    0.0000 H   0  0  0  0  0  0  0  0  0  0  0  0
    3.5911   -2.2843    0.0000 H   0  0  0  0  0  0  0  0  0  0  0  0
    4.3352   -3.1108    0.0000 H   0  0  0  0  0  0  0  0  0  0  0  0
    5.0706   -3.5883    0.0000 H   0  0  0  0  0  0  0  0  0  0  0  0
    5.5481   -2.8529    0.0000 H   0  0  0  0  0  0  0  0  0  0  0  0
   11.6241   -3.1361    0.0000 H   0  0  0  0  0  0  0  0  0  0  0  0
   11.2256   -2.4459    0.0000 H   0  0  0  0  0  0  0  0  0  0  0  0
   11.5505   -3.7185    0.0000 H   0  0  0  0  0  0  0  0  0  0  0  0
   11.5505   -1.3385    0.0000 H   0  0  0  0  0  0  0  0  0  0  0  0
   10.8015    0.5541    0.0000 H   0  0  0  0  0  0  0  0  0  0  0  0
   10.4029   -0.1361    0.0000 H   0  0  0  0  0  0  0  0  0  0  0  0
    2.5394    1.2181    0.0000 H   0  0  0  0  0  0  0  0  0  0  0  0
    3.0727    0.6258    0.0000 H   0  0  0  0  0  0  0  0  0  0  0  0
   12.0916   -0.1111    0.0000 H   0  0  0  0  0  0  0  0  0  0  0  0
   12.4901    0.5792    0.0000 H   0  0  0  0  0  0  0  0  0  0  0  0
    2.4903    1.8030    0.0000 H   0  0  0  0  0  0  0  0  0  0  0  0
    2.1916    3.1166    0.0000 H   0  0  0  0  0  0  0  0  0  0  0  0
    1.4103    2.7185    0.0000 H   0  0  0  0  0  0  0  0  0  0  0  0
    1.8084    1.9373    0.0000 H   0  0  0  0  0  0  0  0  0  0  0  0
    4.1091    2.4263    0.0000 H   0  0  0  0  0  0  0  0  0  0  0  0
    4.1550    3.3019    0.0000 H   0  0  0  0  0  0  0  0  0  0  0  0
    3.2793    3.3478    0.0000 H   0  0  0  0  0  0  0  0  0  0  0  0
   10.4766    3.2815    0.0000 H   0  0  0  0  0  0  0  0  0  0  0  0
   13.2825    3.2815    0.0000 H   0  0  0  0  0  0  0  0  0  0  0  0
   13.2825    4.6615    0.0000 H   0  0  0  0  0  0  0  0  0  0  0  0
   13.3656    6.9715    0.0000 H   0  0  0  0  0  0  0  0  0  0  0  0
   12.7456    7.5915    0.0000 H   0  0  0  0  0  0  0  0  0  0  0  0
   12.1256    6.9715    0.0000 H   0  0  0  0  0  0  0  0  0  0  0  0
  1 12  2  0  0  0  0
  1 13  2  0  0  0  0
  1 18  1  0  0  0  0
  1 53  1  0  0  0  0
  2 39  1  0  0  0  0
  3 39  1  0  0  0  0
  4 47  1  0  0  0  0
  5 48  1  0  0  0  0
  6 29  2  0  0  0  0
  7 30  2  0  0  0  0
  8 38  1  0  0  0  0
  8 41  1  0  0  0  0
  9 37  2  0  0  0  0
 10 38  2  0  0  0  0
 11 52  2  0  0  0  0
 14 22  1  0  0  0  0
 14 23  1  0  0  0  0
 14 29  1  0  0  0  0
 15 30  1  0  0  0  0
 33 15  1  6  0  0  0
 15 72  1  0  0  0  0
 31 16  1  6  0  0  0
 16 38  1  0  0  0  0
 16 75  1  0  0  0  0
 17 37  1  0  0  0  0
 17 40  1  0  0  0  0
 17 85  1  0  0  0  0
 18 52  1  0  0  0  0
 18101  1  0  0  0  0
 19 20  1  0  0  0  0
 19 21  1  0  0  0  0
 19 22  1  0  0  0  0
 19 54  1  6  0  0  0
 20 24  1  0  0  0  0
 20 25  1  0  0  0  0
 20 55  1  0  0  0  0
 21 23  1  0  0  0  0
 21 56  1  0  0  0  0
 21 57  1  0  0  0  0
 22 58  1  0  0  0  0
 22 59  1  0  0  0  0
 23 30  1  6  0  0  0
 23 60  1  0  0  0  0
 24 26  1  0  0  0  0
 24 61  1  0  0  0  0
 24 62  1  0  0  0  0
 25 27  1  0  0  0  0
 25 63  1  0  0  0  0
 25 64  1  0  0  0  0
 26 28  1  0  0  0  0
 26 65  1  0  0  0  0
 26 66  1  0  0  0  0
 27 28  1  0  0  0  0
 27 67  1  0  0  0  0
 27 68  1  0  0  0  0
 28 69  1  0  0  0  0
 28 70  1  0  0  0  0
 29 31  1  0  0  0  0
 31 32  1  0  0  0  0
 31 71  1  0  0  0  0
 32 34  1  0  0  0  0
 32 35  1  0  0  0  0
 32 73  1  0  0  0  0
 33 36  1  0  0  0  0
 33 37  1  0  0  0  0
 33 74  1  0  0  0  0
 34 76  1  0  0  0  0
 34 77  1  0  0  0  0
 34 78  1  0  0  0  0
 35 79  1  0  0  0  0
 35 80  1  0  0  0  0
 35 81  1  0  0  0  0
 36 39  1  0  0  0  0
 36 82  1  0  0  0  0
 36 83  1  0  0  0  0
 39 84  1  0  0  0  0
 40 42  1  0  0  0  0
 40 86  1  0  0  0  0
 40 87  1  0  0  0  0
 41 43  1  0  0  0  0
 41 88  1  0  0  0  0
 41 89  1  0  0  0  0
 42 44  1  0  0  0  0
 42 90  1  0  0  0  0
 42 91  1  0  0  0  0
 43 45  1  0  0  0  0
 43 46  1  0  0  0  0
 43 92  1  0  0  0  0
 44 47  2  0  0  0  0
 44 48  1  0  0  0  0
 45 93  1  0  0  0  0
 45 94  1  0  0  0  0
 45 95  1  0  0  0  0
 46 96  1  0  0  0  0
 46 97  1  0  0  0  0
 46 98  1  0  0  0  0
 47 49  1  0  0  0  0
 48 50  2  0  0  0  0
 49 51  2  0  0  0  0
 49 99  1  0  0  0  0
 50 51  1  0  0  0  0
 50100  1  0  0  0  0
 51 52  1  0  0  0  0
 53102  1  0  0  0  0
 53103  1  0  0  0  0
 53104  1  0  0  0  0
M  END
> <PUBCHEM_COMPOUND_CID>
507646
> <PUBCHEM_COMPOUND_CANONICALIZED>
1
> <PUBCHEM_CACTVS_COMPLEXITY>
1370
> <PUBCHEM_CACTVS_HBOND_ACCEPTOR>
12
> <PUBCHEM_CACTVS_HBOND_DONOR>
4
> <PUBCHEM_CACTVS_ROTATABLE_BOND>
17
> <PUBCHEM_CACTVS_SUBSKEYS>
AAADcfB/vcBAAAAAAAAAAAAAAAAAAWAAAAAwYAAAAAAAAAABAAAAHwQQQAAADSjhmB6yCIPABAKIAiFSGHCCAAAkAAAAiIGIBMkIYDKAlTGcIQBglgCIiYcYicCOwAAAAAAAAACAAAAAAAAAAAAAAAAAAA==
> <PUBCHEM_IUPAC_OPENEYE_NAME>
isobutyl N-[(1S)-1-[(2S,4S)-4-cyclohexyl-2-[[(1S)-1-[2-[2,6-difluoro-4-(methylsulfonylcarbamoyl)phenyl]ethylcarbamoyl]-3,3-difluoro-propyl]carbamoyl]pyrrolidine-1-carbonyl]-2-methyl-propyl]carbamate
> <PUBCHEM_IUPAC_CAS_NAME>
N-[(2S)-1-[(2S,4S)-4-cyclohexyl-2-[[[(2S)-1-[2-[2,6-difluoro-4-[methanesulfonamido(oxo)methyl]phenyl]ethylamino]-4,4-difluoro-1-oxobutan-2-yl]amino]-oxomethyl]-1-pyrrolidinyl]-3-methyl-1-oxobutan-2-yl]carbamic acid 2-methylpropyl ester
> <PUBCHEM_IUPAC_NAME_MARKUP>
2-methylpropyl <I>N</I>-[(2<I>S</I>)-1-[(2<I>S</I>,4<I>S</I>)-4-cyclohexyl-2-[[(2<I>S</I>)-1-[2-[2,6-difluoro-4-(methylsulfonylcarbamoyl)phenyl]ethylamino]-4,4-difluoro-1-oxobutan-2-yl]carbamoyl]pyrrolidin-1-yl]-3-methyl-1-oxobutan-2-yl]carbamate
> <PUBCHEM_IUPAC_NAME>
2-methylpropyl N-[(2S)-1-[(2S,4S)-4-cyclohexyl-2-[[(2S)-1-[2-[2,6-difluoro-4-(methylsulfonylcarbamoyl)phenyl]ethylamino]-4,4-difluoro-1-oxobutan-2-yl]carbamoyl]pyrrolidin-1-yl]-3-methyl-1-oxobutan-2-yl]carbamate
> <PUBCHEM_IUPAC_SYSTEMATIC_NAME>
2-methylpropyl N-[(2S)-1-[(2S,4S)-2-[[(2S)-1-[2-[2,6-bis(fluoranyl)-4-(methylsulfonylcarbamoyl)phenyl]ethylamino]-4,4-bis(fluoranyl)-1-oxidanylidene-butan-2-yl]carbamoyl]-4-cyclohexyl-pyrrolidin-1-yl]-3-methyl-1-oxidanylidene-butan-2-yl]carbamate
> <PUBCHEM_IUPAC_TRADITIONAL_NAME>
N-[(1S)-1-[(2S,4S)-4-cyclohexyl-2-[[(1S)-1-[2-[2,6-difluoro-4-(mesylcarbamoyl)phenyl]ethylcarbamoyl]-3,3-difluoro-propyl]carbamoyl]pyrrolidine-1-carbonyl]-2-methyl-propyl]carbamic acid isobutyl ester
> <PUBCHEM_IUPAC_INCHI>
InChI=1S/C35H51F4N5O8S/c1-19(2)18-52-35(49)42-30(20(3)4)34(48)44-17-23(21-9-7-6-8-10-21)15-28(44)33(47)41-27(16-29(38)39)32(46)40-12-11-24-25(36)13-22(14-26(24)37)31(45)43-53(5,50)51/h13-14,19-21,23,27-30H,6-12,15-18H2,1-5H3,(H,40,46)(H,41,47)(H,42,49)(H,43,45)/t23-,27+,28+,30+/m1/s1
> <PUBCHEM_IUPAC_INCHIKEY>
DBUUNQACFOZVQH-PBNCGBIJSA-N
> <PUBCHEM_XLOGP3_AA>
6.3
> <PUBCHEM_EXACT_MASS>
777.33944742
> <PUBCHEM_MOLECULAR_FORMULA>
C35H51F4N5O8S
> <PUBCHEM_MOLECULAR_WEIGHT>
777.9
> <PUBCHEM_OPENEYE_CAN_SMILES>
CC(C)COC(=O)NC(C(C)C)C(=O)N1CC(CC1C(=O)NC(CC(F)F)C(=O)NCCC2=C(C=C(C=C2F)C(=O)NS(=O)(=O)C)F)C3CCCCC3
> <PUBCHEM_OPENEYE_ISO_SMILES>
CC(C)COC(=O)N[C@@H](C(C)C)C(=O)N1C[C@@H](C[C@H]1C(=O)N[C@@H](CC(F)F)C(=O)NCCC2=C(C=C(C=C2F)C(=O)NS(=O)(=O)C)F)C3CCCCC3
> <PUBCHEM_CACTVS_TPSA>
189
> <PUBCHEM_MONOISOTOPIC_WEIGHT>
777.33944742
> <PUBCHEM_TOTAL_CHARGE>
0
> <PUBCHEM_HEAVY_ATOM_COUNT>
53
> <PUBCHEM_ATOM_DEF_STEREO_COUNT>
4
> <PUBCHEM_ATOM_UDEF_STEREO_COUNT>
0
> <PUBCHEM_BOND_DEF_STEREO_COUNT>
0
> <PUBCHEM_BOND_UDEF_STEREO_COUNT>
0
> <PUBCHEM_ISOTOPIC_ATOM_COUNT>
0
> <PUBCHEM_COMPONENT_COUNT>
1
> <PUBCHEM_CACTVS_TAUTO_COUNT>
-1
> <PUBCHEM_COORDINATE_TYPE>
1
5
255
> <PUBCHEM_BONDANNOTATIONS>
33  15  6
31  16  6
19  54  6
23  30  6
44  47  8
44  48  8
47  49  8
48  50  8
49  51  8
50  51  8
$$$$
