507607
  -OEChem-10302200282D
 91 93  0     1  0  0  0  0  0999 V2000
   10.1475   -3.8385    0.0000 F   0  0  0  0  0  0  0  0  0  0  0  0
   11.8795   -3.8385    0.0000 F   0  0  0  0  0  0  0  0  0  0  0  0
    7.1711   -0.2844    0.0000 O   0  0  0  0  0  0  0  0  0  0  0  0
    8.4154   -0.8385    0.0000 O   0  0  0  0  0  0  0  0  0  0  0  0
    4.1100    1.6208    0.0000 O   0  0  0  0  0  0  0  0  0  0  0  0
    9.2815   -0.3385    0.0000 O   0  0  0  0  0  0  0  0  0  0  0  0
    3.5748   -0.0265    0.0000 O   0  0  0  0  0  0  0  0  0  0  0  0
   12.7456    5.6615    0.0000 O   0  0  0  0  0  0  0  0  0  0  0  0
   11.0135    5.6615    0.0000 O   0  0  0  0  0  0  0  0  0  0  0  0
    6.6359   -1.9317    0.0000 N   0  0  0  0  0  0  0  0  0  0  0  0
    9.2815   -2.3385    0.0000 N   0  0  0  0  0  0  0  0  0  0  0  0
    5.2690    0.3336    0.0000 N   0  0  0  0  0  0  0  0  0  0  0  0
   11.0135   -0.3385    0.0000 N   0  0  0  0  0  0  0  0  0  0  0  0
    6.4667   -3.5409    0.0000 C   0  0  2  0  0  0  0  0  0  0  0  0
    7.5494   -2.3385    0.0000 C   0  0  1  0  0  0  0  0  0  0  0  0
    7.4449   -3.3330    0.0000 C   0  0  0  0  0  0  0  0  0  0  0  0
    5.9667   -2.6749    0.0000 C   0  0  0  0  0  0  0  0  0  0  0  0
    6.0600   -4.4544    0.0000 C   0  0  0  0  0  0  0  0  0  0  0  0
    6.4280   -0.9536    0.0000 C   0  0  0  0  0  0  0  0  0  0  0  0
    8.4154   -1.8385    0.0000 C   0  0  0  0  0  0  0  0  0  0  0  0
    5.4769   -0.6446    0.0000 C   0  0  2  0  0  0  0  0  0  0  0  0
    4.7338   -1.3137    0.0000 C   0  0  0  0  0  0  0  0  0  0  0  0
    5.0655   -4.5590    0.0000 C   0  0  0  0  0  0  0  0  0  0  0  0
    6.6478   -5.2635    0.0000 C   0  0  0  0  0  0  0  0  0  0  0  0
   10.1475   -1.8385    0.0000 C   0  0  1  0  0  0  0  0  0  0  0  0
    3.7827   -1.0047    0.0000 C   0  0  0  0  0  0  0  0  0  0  0  0
    4.9417   -2.2918    0.0000 C   0  0  0  0  0  0  0  0  0  0  0  0
    4.6588   -5.4725    0.0000 C   0  0  0  0  0  0  0  0  0  0  0  0
    6.2411   -6.1770    0.0000 C   0  0  0  0  0  0  0  0  0  0  0  0
   11.0135   -2.3385    0.0000 C   0  0  0  0  0  0  0  0  0  0  0  0
    5.2465   -6.2815    0.0000 C   0  0  0  0  0  0  0  0  0  0  0  0
   10.1475   -0.8385    0.0000 C   0  0  0  0  0  0  0  0  0  0  0  0
    4.3179    0.6426    0.0000 C   0  0  0  0  0  0  0  0  0  0  0  0
   11.0135   -3.3385    0.0000 C   0  0  0  0  0  0  0  0  0  0  0  0
   11.0135    0.6615    0.0000 C   0  0  0  0  0  0  0  0  0  0  0  0
    3.1590    1.9298    0.0000 C   0  0  0  0  0  0  0  0  0  0  0  0
   11.8795    1.1615    0.0000 C   0  0  0  0  0  0  0  0  0  0  0  0
    2.9511    2.9079    0.0000 C   0  0  0  0  0  0  0  0  0  0  0  0
   11.8795    2.1615    0.0000 C   0  0  0  0  0  0  0  0  0  0  0  0
    2.0000    3.2169    0.0000 C   0  0  0  0  0  0  0  0  0  0  0  0
    3.6942    3.5770    0.0000 C   0  0  0  0  0  0  0  0  0  0  0  0
   12.7456    2.6615    0.0000 C   0  0  0  0  0  0  0  0  0  0  0  0
   11.0135    2.6615    0.0000 C   0  0  0  0  0  0  0  0  0  0  0  0
   12.7456    3.6615    0.0000 C   0  0  0  0  0  0  0  0  0  0  0  0
   11.0135    3.6615    0.0000 C   0  0  0  0  0  0  0  0  0  0  0  0
   11.8795    4.1615    0.0000 C   0  0  0  0  0  0  0  0  0  0  0  0
   11.8795    5.1615    0.0000 C   0  0  0  0  0  0  0  0  0  0  0  0
    5.8476   -3.5734    0.0000 H   0  0  0  0  0  0  0  0  0  0  0  0
    7.5170   -1.7193    0.0000 H   0  0  0  0  0  0  0  0  0  0  0  0
    7.5097   -3.9496    0.0000 H   0  0  0  0  0  0  0  0  0  0  0  0
    8.0649   -3.3330    0.0000 H   0  0  0  0  0  0  0  0  0  0  0  0
    5.5519   -2.2141    0.0000 H   0  0  0  0  0  0  0  0  0  0  0  0
    5.4652   -3.0393    0.0000 H   0  0  0  0  0  0  0  0  0  0  0  0
    4.8872   -0.4530    0.0000 H   0  0  0  0  0  0  0  0  0  0  0  0
    5.3234   -1.5053    0.0000 H   0  0  0  0  0  0  0  0  0  0  0  0
    9.2815   -2.9585    0.0000 H   0  0  0  0  0  0  0  0  0  0  0  0
    4.7011   -4.0574    0.0000 H   0  0  0  0  0  0  0  0  0  0  0  0
    7.2644   -5.1986    0.0000 H   0  0  0  0  0  0  0  0  0  0  0  0
    9.6106   -1.5285    0.0000 H   0  0  0  0  0  0  0  0  0  0  0  0
    5.7297    0.7484    0.0000 H   0  0  0  0  0  0  0  0  0  0  0  0
    3.9743   -0.4150    0.0000 H   0  0  0  0  0  0  0  0  0  0  0  0
    3.1930   -0.8131    0.0000 H   0  0  0  0  0  0  0  0  0  0  0  0
    3.5911   -1.5943    0.0000 H   0  0  0  0  0  0  0  0  0  0  0  0
    4.3352   -2.4208    0.0000 H   0  0  0  0  0  0  0  0  0  0  0  0
    5.0706   -2.8983    0.0000 H   0  0  0  0  0  0  0  0  0  0  0  0
    5.5481   -2.1629    0.0000 H   0  0  0  0  0  0  0  0  0  0  0  0
    4.0421   -5.5373    0.0000 H   0  0  0  0  0  0  0  0  0  0  0  0
    6.6055   -6.6786    0.0000 H   0  0  0  0  0  0  0  0  0  0  0  0
   11.6241   -2.4461    0.0000 H   0  0  0  0  0  0  0  0  0  0  0  0
   11.2256   -1.7559    0.0000 H   0  0  0  0  0  0  0  0  0  0  0  0
    4.9944   -6.8479    0.0000 H   0  0  0  0  0  0  0  0  0  0  0  0
   11.5505   -3.0285    0.0000 H   0  0  0  0  0  0  0  0  0  0  0  0
   11.5505   -0.6485    0.0000 H   0  0  0  0  0  0  0  0  0  0  0  0
   10.8015    1.2441    0.0000 H   0  0  0  0  0  0  0  0  0  0  0  0
   10.4029    0.5539    0.0000 H   0  0  0  0  0  0  0  0  0  0  0  0
    2.5394    1.9081    0.0000 H   0  0  0  0  0  0  0  0  0  0  0  0
    3.0727    1.3158    0.0000 H   0  0  0  0  0  0  0  0  0  0  0  0
   12.0916    0.5789    0.0000 H   0  0  0  0  0  0  0  0  0  0  0  0
   12.4901    1.2692    0.0000 H   0  0  0  0  0  0  0  0  0  0  0  0
    2.4903    2.4931    0.0000 H   0  0  0  0  0  0  0  0  0  0  0  0
    2.1916    3.8066    0.0000 H   0  0  0  0  0  0  0  0  0  0  0  0
    1.4103    3.4085    0.0000 H   0  0  0  0  0  0  0  0  0  0  0  0
    1.8084    2.6273    0.0000 H   0  0  0  0  0  0  0  0  0  0  0  0
    4.1091    3.1163    0.0000 H   0  0  0  0  0  0  0  0  0  0  0  0
    4.1550    3.9919    0.0000 H   0  0  0  0  0  0  0  0  0  0  0  0
    3.2793    4.0378    0.0000 H   0  0  0  0  0  0  0  0  0  0  0  0
   13.2825    2.3515    0.0000 H   0  0  0  0  0  0  0  0  0  0  0  0
   10.4766    2.3515    0.0000 H   0  0  0  0  0  0  0  0  0  0  0  0
   13.2825    3.9715    0.0000 H   0  0  0  0  0  0  0  0  0  0  0  0
   10.4766    3.9715    0.0000 H   0  0  0  0  0  0  0  0  0  0  0  0
   12.7456    6.2815    0.0000 H   0  0  0  0  0  0  0  0  0  0  0  0
  1 34  1  0  0  0  0
  2 34  1  0  0  0  0
  3 19  2  0  0  0  0
  4 20  2  0  0  0  0
  5 33  1  0  0  0  0
  5 36  1  0  0  0  0
  6 32  2  0  0  0  0
  7 33  2  0  0  0  0
  8 47  1  0  0  0  0
  8 91  1  0  0  0  0
  9 47  2  0  0  0  0
 10 15  1  0  0  0  0
 10 17  1  0  0  0  0
 10 19  1  0  0  0  0
 11 20  1  0  0  0  0
 25 11  1  6  0  0  0
 11 56  1  0  0  0  0
 21 12  1  6  0  0  0
 12 33  1  0  0  0  0
 12 60  1  0  0  0  0
 13 32  1  0  0  0  0
 13 35  1  0  0  0  0
 13 73  1  0  0  0  0
 14 16  1  0  0  0  0
 14 17  1  0  0  0  0
 14 18  1  1  0  0  0
 14 48  1  0  0  0  0
 15 16  1  0  0  0  0
 15 20  1  6  0  0  0
 15 49  1  0  0  0  0
 16 50  1  0  0  0  0
 16 51  1  0  0  0  0
 17 52  1  0  0  0  0
 17 53  1  0  0  0  0
 18 23  2  0  0  0  0
 18 24  1  0  0  0  0
 19 21  1  0  0  0  0
 21 22  1  0  0  0  0
 21 54  1  0  0  0  0
 22 26  1  0  0  0  0
 22 27  1  0  0  0  0
 22 55  1  0  0  0  0
 23 28  1  0  0  0  0
 23 57  1  0  0  0  0
 24 29  2  0  0  0  0
 24 58  1  0  0  0  0
 25 30  1  0  0  0  0
 25 32  1  0  0  0  0
 25 59  1  0  0  0  0
 26 61  1  0  0  0  0
 26 62  1  0  0  0  0
 26 63  1  0  0  0  0
 27 64  1  0  0  0  0
 27 65  1  0  0  0  0
 27 66  1  0  0  0  0
 28 31  2  0  0  0  0
 28 67  1  0  0  0  0
 29 31  1  0  0  0  0
 29 68  1  0  0  0  0
 30 34  1  0  0  0  0
 30 69  1  0  0  0  0
 30 70  1  0  0  0  0
 31 71  1  0  0  0  0
 34 72  1  0  0  0  0
 35 37  1  0  0  0  0
 35 74  1  0  0  0  0
 35 75  1  0  0  0  0
 36 38  1  0  0  0  0
 36 76  1  0  0  0  0
 36 77  1  0  0  0  0
 37 39  1  0  0  0  0
 37 78  1  0  0  0  0
 37 79  1  0  0  0  0
 38 40  1  0  0  0  0
 38 41  1  0  0  0  0
 38 80  1  0  0  0  0
 39 42  2  0  0  0  0
 39 43  1  0  0  0  0
 40 81  1  0  0  0  0
 40 82  1  0  0  0  0
 40 83  1  0  0  0  0
 41 84  1  0  0  0  0
 41 85  1  0  0  0  0
 41 86  1  0  0  0  0
 42 44  1  0  0  0  0
 42 87  1  0  0  0  0
 43 45  2  0  0  0  0
 43 88  1  0  0  0  0
 44 46  2  0  0  0  0
 44 89  1  0  0  0  0
 45 46  1  0  0  0  0
 45 90  1  0  0  0  0
 46 47  1  0  0  0  0
M  END
> <PUBCHEM_COMPOUND_CID>
507607
> <PUBCHEM_COMPOUND_CANONICALIZED>
1
> <PUBCHEM_CACTVS_COMPLEXITY>
1060
> <PUBCHEM_CACTVS_HBOND_ACCEPTOR>
9
> <PUBCHEM_CACTVS_HBOND_DONOR>
4
> <PUBCHEM_CACTVS_ROTATABLE_BOND>
16
> <PUBCHEM_CACTVS_SUBSKEYS>
AAADcfB/uYAAAAAAAAAAAAAAAAAAAWAAAAAwYAAAAAAAAAABQAAAHwAQCAAADSjhmBYyCIPABgCIAiHSGAACAAAkAAAIiIGICMkIZjKAlTGccQAk1gGImYeYyfCOwAAAAAAAAACAAAAAAAAAAAAAAAAAAA==
> <PUBCHEM_IUPAC_OPENEYE_NAME>
4-[2-[[(2S)-4,4-difluoro-2-[[(2S,4S)-1-[(2S)-2-(isobutoxycarbonylamino)-3-methyl-butanoyl]-4-phenyl-pyrrolidine-2-carbonyl]amino]butanoyl]amino]ethyl]benzoic acid
> <PUBCHEM_IUPAC_CAS_NAME>
4-[2-[[(2S)-4,4-difluoro-2-[[[(2S,4S)-1-[(2S)-3-methyl-2-[[2-methylpropoxy(oxo)methyl]amino]-1-oxobutyl]-4-phenyl-2-pyrrolidinyl]-oxomethyl]amino]-1-oxobutyl]amino]ethyl]benzoic acid
> <PUBCHEM_IUPAC_NAME_MARKUP>
4-[2-[[(2<I>S</I>)-4,4-difluoro-2-[[(2<I>S</I>,4<I>S</I>)-1-[(2<I>S</I>)-3-methyl-2-(2-methylpropoxycarbonylamino)butanoyl]-4-phenylpyrrolidine-2-carbonyl]amino]butanoyl]amino]ethyl]benzoic acid
> <PUBCHEM_IUPAC_NAME>
4-[2-[[(2S)-4,4-difluoro-2-[[(2S,4S)-1-[(2S)-3-methyl-2-(2-methylpropoxycarbonylamino)butanoyl]-4-phenylpyrrolidine-2-carbonyl]amino]butanoyl]amino]ethyl]benzoic acid
> <PUBCHEM_IUPAC_SYSTEMATIC_NAME>
4-[2-[[(2S)-4,4-bis(fluoranyl)-2-[[(2S,4S)-1-[(2S)-3-methyl-2-(2-methylpropoxycarbonylamino)butanoyl]-4-phenyl-pyrrolidin-2-yl]carbonylamino]butanoyl]amino]ethyl]benzoic acid
> <PUBCHEM_IUPAC_TRADITIONAL_NAME>
4-[2-[[(2S)-4,4-difluoro-2-[[(2S,4S)-1-[(2S)-2-(isobutoxycarbonylamino)-3-methyl-butanoyl]-4-phenyl-prolyl]amino]butanoyl]amino]ethyl]benzoic acid
> <PUBCHEM_IUPAC_INCHI>
InChI=1S/C34H44F2N4O7/c1-20(2)19-47-34(46)39-29(21(3)4)32(43)40-18-25(23-8-6-5-7-9-23)16-27(40)31(42)38-26(17-28(35)36)30(41)37-15-14-22-10-12-24(13-11-22)33(44)45/h5-13,20-21,25-29H,14-19H2,1-4H3,(H,37,41)(H,38,42)(H,39,46)(H,44,45)/t25-,26+,27+,29+/m1/s1
> <PUBCHEM_IUPAC_INCHIKEY>
JJOZVTHZARRTNH-COROXYKFSA-N
> <PUBCHEM_XLOGP3_AA>
5.5
> <PUBCHEM_EXACT_MASS>
658.31780608
> <PUBCHEM_MOLECULAR_FORMULA>
C34H44F2N4O7
> <PUBCHEM_MOLECULAR_WEIGHT>
658.7
> <PUBCHEM_OPENEYE_CAN_SMILES>
CC(C)COC(=O)NC(C(C)C)C(=O)N1CC(CC1C(=O)NC(CC(F)F)C(=O)NCCC2=CC=C(C=C2)C(=O)O)C3=CC=CC=C3
> <PUBCHEM_OPENEYE_ISO_SMILES>
CC(C)COC(=O)N[C@@H](C(C)C)C(=O)N1C[C@@H](C[C@H]1C(=O)N[C@@H](CC(F)F)C(=O)NCCC2=CC=C(C=C2)C(=O)O)C3=CC=CC=C3
> <PUBCHEM_CACTVS_TPSA>
154
> <PUBCHEM_MONOISOTOPIC_WEIGHT>
658.31780608
> <PUBCHEM_TOTAL_CHARGE>
0
> <PUBCHEM_HEAVY_ATOM_COUNT>
47
> <PUBCHEM_ATOM_DEF_STEREO_COUNT>
4
> <PUBCHEM_ATOM_UDEF_STEREO_COUNT>
0
> <PUBCHEM_BOND_DEF_STEREO_COUNT>
0
> <PUBCHEM_BOND_UDEF_STEREO_COUNT>
0
> <PUBCHEM_ISOTOPIC_ATOM_COUNT>
0
> <PUBCHEM_COMPONENT_COUNT>
1
> <PUBCHEM_CACTVS_TAUTO_COUNT>
-1
> <PUBCHEM_COORDINATE_TYPE>
1
5
255
> <PUBCHEM_BONDANNOTATIONS>
25  11  6
21  12  6
14  18  5
15  20  6
18  23  8
18  24  8
23  28  8
24  29  8
28  31  8
29  31  8
39  42  8
39  43  8
42  44  8
43  45  8
44  46  8
45  46  8
$$$$
