507698
  -OEChem-10302200282D
 73 76  0     1  0  0  0  0  0999 V2000
    5.4641    3.8385    0.0000 F   0  0  0  0  0  0  0  0  0  0  0  0
    3.7320    3.8385    0.0000 F   0  0  0  0  0  0  0  0  0  0  0  0
    2.0000   -2.1615    0.0000 F   0  0  0  0  0  0  0  0  0  0  0  0
    5.4641   -2.1615    0.0000 F   0  0  0  0  0  0  0  0  0  0  0  0
   10.8778    1.3137    0.0000 O   0  0  0  0  0  0  0  0  0  0  0  0
    8.4405    0.2844    0.0000 O   0  0  0  0  0  0  0  0  0  0  0  0
    7.1962    0.8385    0.0000 O   0  0  0  0  0  0  0  0  0  0  0  0
    6.3301    0.3385    0.0000 O   0  0  0  0  0  0  0  0  0  0  0  0
    2.8660   -5.6615    0.0000 O   0  0  0  0  0  0  0  0  0  0  0  0
    4.5981   -5.6615    0.0000 O   0  0  0  0  0  0  0  0  0  0  0  0
    8.9757    1.9317    0.0000 N   0  0  0  0  0  0  0  0  0  0  0  0
    6.3301    2.3385    0.0000 N   0  0  0  0  0  0  0  0  0  0  0  0
    4.5981    0.3385    0.0000 N   0  0  0  0  0  0  0  0  0  0  0  0
   10.3426   -0.3336    0.0000 C   0  0  0  0  0  0  0  0  0  0  0  0
   11.0117   -1.0767    0.0000 C   0  0  0  0  0  0  0  0  0  0  0  0
   10.0336   -1.2846    0.0000 C   0  0  0  0  0  0  0  0  0  0  0  0
   10.1347    0.6446    0.0000 C   0  0  3  0  0  0  0  0  0  0  0  0
    8.0622    2.3385    0.0000 C   0  0  3  0  0  0  0  0  0  0  0  0
    9.1448    3.5409    0.0000 C   0  0  2  0  0  0  0  0  0  0  0  0
    8.1667    3.3330    0.0000 C   0  0  0  0  0  0  0  0  0  0  0  0
    9.6448    2.6749    0.0000 C   0  0  0  0  0  0  0  0  0  0  0  0
    9.1836    0.9536    0.0000 C   0  0  0  0  0  0  0  0  0  0  0  0
    9.5516    4.4544    0.0000 C   0  0  0  0  0  0  0  0  0  0  0  0
    7.1962    1.8385    0.0000 C   0  0  0  0  0  0  0  0  0  0  0  0
   10.5461    4.5590    0.0000 C   0  0  0  0  0  0  0  0  0  0  0  0
    8.9638    5.2635    0.0000 C   0  0  0  0  0  0  0  0  0  0  0  0
    5.4641    1.8385    0.0000 C   0  0  1  0  0  0  0  0  0  0  0  0
   10.9528    5.4725    0.0000 C   0  0  0  0  0  0  0  0  0  0  0  0
    9.3705    6.1770    0.0000 C   0  0  0  0  0  0  0  0  0  0  0  0
    4.5981    2.3385    0.0000 C   0  0  0  0  0  0  0  0  0  0  0  0
   10.3651    6.2815    0.0000 C   0  0  0  0  0  0  0  0  0  0  0  0
    5.4641    0.8385    0.0000 C   0  0  0  0  0  0  0  0  0  0  0  0
    4.5981    3.3385    0.0000 C   0  0  0  0  0  0  0  0  0  0  0  0
    4.5981   -0.6615    0.0000 C   0  0  0  0  0  0  0  0  0  0  0  0
    3.7320   -1.1615    0.0000 C   0  0  0  0  0  0  0  0  0  0  0  0
    3.7320   -2.1615    0.0000 C   0  0  0  0  0  0  0  0  0  0  0  0
    2.8660   -2.6615    0.0000 C   0  0  0  0  0  0  0  0  0  0  0  0
    4.5981   -2.6615    0.0000 C   0  0  0  0  0  0  0  0  0  0  0  0
    2.8660   -3.6615    0.0000 C   0  0  0  0  0  0  0  0  0  0  0  0
    4.5981   -3.6615    0.0000 C   0  0  0  0  0  0  0  0  0  0  0  0
    3.7320   -4.1615    0.0000 C   0  0  0  0  0  0  0  0  0  0  0  0
    3.7320   -5.1615    0.0000 C   0  0  0  0  0  0  0  0  0  0  0  0
    9.7234   -0.3011    0.0000 H   0  0  0  0  0  0  0  0  0  0  0  0
   11.2440   -1.6516    0.0000 H   0  0  0  0  0  0  0  0  0  0  0  0
   11.5375   -0.7482    0.0000 H   0  0  0  0  0  0  0  0  0  0  0  0
    9.4196   -1.1984    0.0000 H   0  0  0  0  0  0  0  0  0  0  0  0
   10.0552   -1.9043    0.0000 H   0  0  0  0  0  0  0  0  0  0  0  0
   10.0058    1.2510    0.0000 H   0  0  0  0  0  0  0  0  0  0  0  0
    8.0946    1.7193    0.0000 H   0  0  0  0  0  0  0  0  0  0  0  0
    8.7547    4.0227    0.0000 H   0  0  0  0  0  0  0  0  0  0  0  0
    8.1019    3.9496    0.0000 H   0  0  0  0  0  0  0  0  0  0  0  0
    7.5467    3.3330    0.0000 H   0  0  0  0  0  0  0  0  0  0  0  0
   10.0597    2.2141    0.0000 H   0  0  0  0  0  0  0  0  0  0  0  0
   10.1464    3.0393    0.0000 H   0  0  0  0  0  0  0  0  0  0  0  0
   11.4675    1.1221    0.0000 H   0  0  0  0  0  0  0  0  0  0  0  0
    6.3301    2.9585    0.0000 H   0  0  0  0  0  0  0  0  0  0  0  0
   10.9105    4.0574    0.0000 H   0  0  0  0  0  0  0  0  0  0  0  0
    8.3472    5.1986    0.0000 H   0  0  0  0  0  0  0  0  0  0  0  0
    5.4641    2.4585    0.0000 H   0  0  0  0  0  0  0  0  0  0  0  0
   11.5695    5.5373    0.0000 H   0  0  0  0  0  0  0  0  0  0  0  0
    9.0061    6.6786    0.0000 H   0  0  0  0  0  0  0  0  0  0  0  0
    3.9875    2.4461    0.0000 H   0  0  0  0  0  0  0  0  0  0  0  0
    4.3860    1.7559    0.0000 H   0  0  0  0  0  0  0  0  0  0  0  0
   10.6172    6.8479    0.0000 H   0  0  0  0  0  0  0  0  0  0  0  0
    4.5981    3.9585    0.0000 H   0  0  0  0  0  0  0  0  0  0  0  0
    4.0611    0.6485    0.0000 H   0  0  0  0  0  0  0  0  0  0  0  0
    4.8101   -1.2441    0.0000 H   0  0  0  0  0  0  0  0  0  0  0  0
    5.2087   -0.5539    0.0000 H   0  0  0  0  0  0  0  0  0  0  0  0
    3.5200   -0.5789    0.0000 H   0  0  0  0  0  0  0  0  0  0  0  0
    3.1215   -1.2692    0.0000 H   0  0  0  0  0  0  0  0  0  0  0  0
    2.3291   -3.9715    0.0000 H   0  0  0  0  0  0  0  0  0  0  0  0
    5.1350   -3.9715    0.0000 H   0  0  0  0  0  0  0  0  0  0  0  0
    2.8660   -6.2815    0.0000 H   0  0  0  0  0  0  0  0  0  0  0  0
  1 33  1  0  0  0  0
  2 33  1  0  0  0  0
  3 37  1  0  0  0  0
  4 38  1  0  0  0  0
  5 17  1  0  0  0  0
  5 55  1  0  0  0  0
  6 22  2  0  0  0  0
  7 24  2  0  0  0  0
  8 32  2  0  0  0  0
  9 42  1  0  0  0  0
  9 73  1  0  0  0  0
 10 42  2  0  0  0  0
 11 18  1  0  0  0  0
 11 21  1  0  0  0  0
 11 22  1  0  0  0  0
 12 24  1  0  0  0  0
 27 12  1  6  0  0  0
 12 56  1  0  0  0  0
 13 32  1  0  0  0  0
 13 34  1  0  0  0  0
 13 66  1  0  0  0  0
 14 15  1  0  0  0  0
 14 16  1  0  0  0  0
 14 17  1  0  0  0  0
 14 43  1  0  0  0  0
 15 16  1  0  0  0  0
 15 44  1  0  0  0  0
 15 45  1  0  0  0  0
 16 46  1  0  0  0  0
 16 47  1  0  0  0  0
 17 22  1  0  0  0  0
 17 48  1  0  0  0  0
 18 20  1  0  0  0  0
 18 24  1  0  0  0  0
 18 49  1  0  0  0  0
 19 20  1  0  0  0  0
 19 21  1  0  0  0  0
 19 23  1  1  0  0  0
 19 50  1  0  0  0  0
 20 51  1  0  0  0  0
 20 52  1  0  0  0  0
 21 53  1  0  0  0  0
 21 54  1  0  0  0  0
 23 25  2  0  0  0  0
 23 26  1  0  0  0  0
 25 28  1  0  0  0  0
 25 57  1  0  0  0  0
 26 29  2  0  0  0  0
 26 58  1  0  0  0  0
 27 30  1  0  0  0  0
 27 32  1  0  0  0  0
 27 59  1  0  0  0  0
 28 31  2  0  0  0  0
 28 60  1  0  0  0  0
 29 31  1  0  0  0  0
 29 61  1  0  0  0  0
 30 33  1  0  0  0  0
 30 62  1  0  0  0  0
 30 63  1  0  0  0  0
 31 64  1  0  0  0  0
 33 65  1  0  0  0  0
 34 35  1  0  0  0  0
 34 67  1  0  0  0  0
 34 68  1  0  0  0  0
 35 36  1  0  0  0  0
 35 69  1  0  0  0  0
 35 70  1  0  0  0  0
 36 37  2  0  0  0  0
 36 38  1  0  0  0  0
 37 39  1  0  0  0  0
 38 40  2  0  0  0  0
 39 41  2  0  0  0  0
 39 71  1  0  0  0  0
 40 41  1  0  0  0  0
 40 72  1  0  0  0  0
 41 42  1  0  0  0  0
M  END
> <PUBCHEM_COMPOUND_CID>
507698
> <PUBCHEM_COMPOUND_CANONICALIZED>
1
> <PUBCHEM_CACTVS_COMPLEXITY>
967
> <PUBCHEM_CACTVS_HBOND_ACCEPTOR>
10
> <PUBCHEM_CACTVS_HBOND_DONOR>
4
> <PUBCHEM_CACTVS_ROTATABLE_BOND>
12
> <PUBCHEM_CACTVS_SUBSKEYS>
AAADceB7OcAAAAAAAAAAAAAAGAAAAWAAAAAwYAAAAAAAAAABQAAAHwAQCAAADTzhmB4wCIPAAgCIAiHSGAICAAAkAAAIiIHICMgKdjKAlTGUcQAk1gGYmYeYyfCOwAAAAAAAAACAAAAAAAAAAAAAAAAAAA==
> <PUBCHEM_IUPAC_OPENEYE_NAME>
4-[2-[[(2S)-2-[[(4S)-1-(2-cyclopropyl-2-hydroxy-acetyl)-4-phenyl-pyrrolidine-2-carbonyl]amino]-4,4-difluoro-butanoyl]amino]ethyl]-3,5-difluoro-benzoic acid
> <PUBCHEM_IUPAC_CAS_NAME>
4-[2-[[(2S)-2-[[[(4S)-1-(2-cyclopropyl-2-hydroxy-1-oxoethyl)-4-phenyl-2-pyrrolidinyl]-oxomethyl]amino]-4,4-difluoro-1-oxobutyl]amino]ethyl]-3,5-difluorobenzoic acid
> <PUBCHEM_IUPAC_NAME_MARKUP>
4-[2-[[(2<I>S</I>)-2-[[(4<I>S</I>)-1-(2-cyclopropyl-2-hydroxyacetyl)-4-phenylpyrrolidine-2-carbonyl]amino]-4,4-difluorobutanoyl]amino]ethyl]-3,5-difluorobenzoic acid
> <PUBCHEM_IUPAC_NAME>
4-[2-[[(2S)-2-[[(4S)-1-(2-cyclopropyl-2-hydroxyacetyl)-4-phenylpyrrolidine-2-carbonyl]amino]-4,4-difluorobutanoyl]amino]ethyl]-3,5-difluorobenzoic acid
> <PUBCHEM_IUPAC_SYSTEMATIC_NAME>
4-[2-[[(2S)-2-[[(4S)-1-(2-cyclopropyl-2-oxidanyl-ethanoyl)-4-phenyl-pyrrolidin-2-yl]carbonylamino]-4,4-bis(fluoranyl)butanoyl]amino]ethyl]-3,5-bis(fluoranyl)benzoic acid
> <PUBCHEM_IUPAC_TRADITIONAL_NAME>
4-[2-[[(2S)-2-[[(4S)-1-(2-cyclopropyl-2-hydroxy-acetyl)-4-phenyl-prolyl]amino]-4,4-difluoro-butanoyl]amino]ethyl]-3,5-difluoro-benzoic acid
> <PUBCHEM_IUPAC_INCHI>
InChI=1S/C29H31F4N3O6/c30-20-10-17(29(41)42)11-21(31)19(20)8-9-34-26(38)22(13-24(32)33)35-27(39)23-12-18(15-4-2-1-3-5-15)14-36(23)28(40)25(37)16-6-7-16/h1-5,10-11,16,18,22-25,37H,6-9,12-14H2,(H,34,38)(H,35,39)(H,41,42)/t18-,22+,23?,25?/m1/s1
> <PUBCHEM_IUPAC_INCHIKEY>
VOFNIBVMZSSUAO-RHHPDWGYSA-N
> <PUBCHEM_XLOGP3_AA>
3.4
> <PUBCHEM_EXACT_MASS>
593.21489837
> <PUBCHEM_MOLECULAR_FORMULA>
C29H31F4N3O6
> <PUBCHEM_MOLECULAR_WEIGHT>
593.6
> <PUBCHEM_OPENEYE_CAN_SMILES>
C1CC1C(C(=O)N2CC(CC2C(=O)NC(CC(F)F)C(=O)NCCC3=C(C=C(C=C3F)C(=O)O)F)C4=CC=CC=C4)O
> <PUBCHEM_OPENEYE_ISO_SMILES>
C1CC1C(C(=O)N2C[C@@H](CC2C(=O)N[C@@H](CC(F)F)C(=O)NCCC3=C(C=C(C=C3F)C(=O)O)F)C4=CC=CC=C4)O
> <PUBCHEM_CACTVS_TPSA>
136
> <PUBCHEM_MONOISOTOPIC_WEIGHT>
593.21489837
> <PUBCHEM_TOTAL_CHARGE>
0
> <PUBCHEM_HEAVY_ATOM_COUNT>
42
> <PUBCHEM_ATOM_DEF_STEREO_COUNT>
2
> <PUBCHEM_ATOM_UDEF_STEREO_COUNT>
2
> <PUBCHEM_BOND_DEF_STEREO_COUNT>
0
> <PUBCHEM_BOND_UDEF_STEREO_COUNT>
0
> <PUBCHEM_ISOTOPIC_ATOM_COUNT>
0
> <PUBCHEM_COMPONENT_COUNT>
1
> <PUBCHEM_CACTVS_TAUTO_COUNT>
-1
> <PUBCHEM_COORDINATE_TYPE>
1
5
255
> <PUBCHEM_BONDANNOTATIONS>
27  12  6
18  24  3
19  23  5
23  25  8
23  26  8
25  28  8
26  29  8
28  31  8
29  31  8
36  37  8
36  38  8
37  39  8
38  40  8
39  41  8
40  41  8
17  5  3
$$$$
