507651
  -OEChem-10302200282D
 95 97  0     1  0  0  0  0  0999 V2000
    7.1962    4.1835    0.0000 F   0  0  0  0  0  0  0  0  0  0  0  0
    5.4641    4.1835    0.0000 F   0  0  0  0  0  0  0  0  0  0  0  0
   10.1725    0.6294    0.0000 O   0  0  0  0  0  0  0  0  0  0  0  0
    8.9282    1.1835    0.0000 O   0  0  0  0  0  0  0  0  0  0  0  0
   13.2336   -1.2758    0.0000 O   0  0  0  0  0  0  0  0  0  0  0  0
    8.0622    0.6835    0.0000 O   0  0  0  0  0  0  0  0  0  0  0  0
   13.7689    0.3715    0.0000 O   0  0  0  0  0  0  0  0  0  0  0  0
    3.7320   -3.8165    0.0000 O   0  0  0  0  0  0  0  0  0  0  0  0
    2.8660   -6.3165    0.0000 O   0  0  0  0  0  0  0  0  0  0  0  0
    2.0000   -4.8165    0.0000 O   0  0  0  0  0  0  0  0  0  0  0  0
   10.7078    2.2767    0.0000 N   0  0  0  0  0  0  0  0  0  0  0  0
    8.0622    2.6835    0.0000 N   0  0  0  0  0  0  0  0  0  0  0  0
   12.0747    0.0114    0.0000 N   0  0  0  0  0  0  0  0  0  0  0  0
    6.3301    0.6835    0.0000 N   0  0  0  0  0  0  0  0  0  0  0  0
   10.8769    3.8859    0.0000 C   0  0  2  0  0  0  0  0  0  0  0  0
    9.7942    2.6835    0.0000 C   0  0  1  0  0  0  0  0  0  0  0  0
    9.8988    3.6780    0.0000 C   0  0  0  0  0  0  0  0  0  0  0  0
   11.3769    3.0199    0.0000 C   0  0  0  0  0  0  0  0  0  0  0  0
   11.2836    4.7994    0.0000 C   0  0  0  0  0  0  0  0  0  0  0  0
   10.9157    1.2986    0.0000 C   0  0  0  0  0  0  0  0  0  0  0  0
    8.9282    2.1835    0.0000 C   0  0  0  0  0  0  0  0  0  0  0  0
   11.8667    0.9896    0.0000 C   0  0  2  0  0  0  0  0  0  0  0  0
   12.6099    1.6587    0.0000 C   0  0  0  0  0  0  0  0  0  0  0  0
   12.2782    4.9040    0.0000 C   0  0  0  0  0  0  0  0  0  0  0  0
   10.6959    5.6085    0.0000 C   0  0  0  0  0  0  0  0  0  0  0  0
    7.1962    2.1835    0.0000 C   0  0  1  0  0  0  0  0  0  0  0  0
   13.5609    1.3497    0.0000 C   0  0  0  0  0  0  0  0  0  0  0  0
   12.4020    2.6368    0.0000 C   0  0  0  0  0  0  0  0  0  0  0  0
   12.6849    5.8175    0.0000 C   0  0  0  0  0  0  0  0  0  0  0  0
   11.1026    6.5220    0.0000 C   0  0  0  0  0  0  0  0  0  0  0  0
    6.3301    2.6835    0.0000 C   0  0  0  0  0  0  0  0  0  0  0  0
   12.0971    6.6265    0.0000 C   0  0  0  0  0  0  0  0  0  0  0  0
    7.1962    1.1835    0.0000 C   0  0  0  0  0  0  0  0  0  0  0  0
   13.0257   -0.2976    0.0000 C   0  0  0  0  0  0  0  0  0  0  0  0
    6.3301    3.6835    0.0000 C   0  0  0  0  0  0  0  0  0  0  0  0
    6.3301   -0.3165    0.0000 C   0  0  0  0  0  0  0  0  0  0  0  0
   14.1847   -1.5848    0.0000 C   0  0  0  0  0  0  0  0  0  0  0  0
    5.4641   -0.8165    0.0000 C   0  0  0  0  0  0  0  0  0  0  0  0
   14.3926   -2.5629    0.0000 C   0  0  0  0  0  0  0  0  0  0  0  0
    5.4641   -1.8165    0.0000 C   0  0  0  0  0  0  0  0  0  0  0  0
   15.3436   -2.8719    0.0000 C   0  0  0  0  0  0  0  0  0  0  0  0
   13.6494   -3.2320    0.0000 C   0  0  0  0  0  0  0  0  0  0  0  0
    4.5981   -2.3165    0.0000 C   0  0  0  0  0  0  0  0  0  0  0  0
    6.3301   -2.3165    0.0000 C   0  0  0  0  0  0  0  0  0  0  0  0
    4.5981   -3.3165    0.0000 C   0  0  0  0  0  0  0  0  0  0  0  0
    6.3301   -3.3165    0.0000 C   0  0  0  0  0  0  0  0  0  0  0  0
    5.4641   -3.8165    0.0000 C   0  0  0  0  0  0  0  0  0  0  0  0
    3.7320   -4.8165    0.0000 C   0  0  0  0  0  0  0  0  0  0  0  0
    2.8660   -5.3165    0.0000 C   0  0  0  0  0  0  0  0  0  0  0  0
   10.4867    4.3677    0.0000 H   0  0  0  0  0  0  0  0  0  0  0  0
    9.8267    2.0643    0.0000 H   0  0  0  0  0  0  0  0  0  0  0  0
    9.8340    4.2946    0.0000 H   0  0  0  0  0  0  0  0  0  0  0  0
    9.2788    3.6780    0.0000 H   0  0  0  0  0  0  0  0  0  0  0  0
   11.7918    2.5591    0.0000 H   0  0  0  0  0  0  0  0  0  0  0  0
   11.8785    3.3843    0.0000 H   0  0  0  0  0  0  0  0  0  0  0  0
   11.4060    0.5747    0.0000 H   0  0  0  0  0  0  0  0  0  0  0  0
   12.7388    1.0522    0.0000 H   0  0  0  0  0  0  0  0  0  0  0  0
    8.0622    3.3035    0.0000 H   0  0  0  0  0  0  0  0  0  0  0  0
   12.6426    4.4024    0.0000 H   0  0  0  0  0  0  0  0  0  0  0  0
   10.0793    5.5437    0.0000 H   0  0  0  0  0  0  0  0  0  0  0  0
    7.7331    1.8735    0.0000 H   0  0  0  0  0  0  0  0  0  0  0  0
   11.6139   -0.4034    0.0000 H   0  0  0  0  0  0  0  0  0  0  0  0
   13.3694    0.7600    0.0000 H   0  0  0  0  0  0  0  0  0  0  0  0
   14.1506    1.1581    0.0000 H   0  0  0  0  0  0  0  0  0  0  0  0
   13.7525    1.9393    0.0000 H   0  0  0  0  0  0  0  0  0  0  0  0
   13.0084    2.7658    0.0000 H   0  0  0  0  0  0  0  0  0  0  0  0
   12.2731    3.2433    0.0000 H   0  0  0  0  0  0  0  0  0  0  0  0
   11.7955    2.5079    0.0000 H   0  0  0  0  0  0  0  0  0  0  0  0
   13.3015    5.8823    0.0000 H   0  0  0  0  0  0  0  0  0  0  0  0
   10.7382    7.0236    0.0000 H   0  0  0  0  0  0  0  0  0  0  0  0
    5.7196    2.7911    0.0000 H   0  0  0  0  0  0  0  0  0  0  0  0
    6.1181    2.1009    0.0000 H   0  0  0  0  0  0  0  0  0  0  0  0
   12.3493    7.1929    0.0000 H   0  0  0  0  0  0  0  0  0  0  0  0
    6.8671    3.3735    0.0000 H   0  0  0  0  0  0  0  0  0  0  0  0
    5.7932    0.9935    0.0000 H   0  0  0  0  0  0  0  0  0  0  0  0
    6.5422   -0.8991    0.0000 H   0  0  0  0  0  0  0  0  0  0  0  0
    6.9407   -0.2089    0.0000 H   0  0  0  0  0  0  0  0  0  0  0  0
   14.8043   -1.5631    0.0000 H   0  0  0  0  0  0  0  0  0  0  0  0
   14.2710   -0.9708    0.0000 H   0  0  0  0  0  0  0  0  0  0  0  0
    5.2520   -0.2339    0.0000 H   0  0  0  0  0  0  0  0  0  0  0  0
    4.8535   -0.9242    0.0000 H   0  0  0  0  0  0  0  0  0  0  0  0
   14.5215   -3.1694    0.0000 H   0  0  0  0  0  0  0  0  0  0  0  0
   15.1521   -3.4616    0.0000 H   0  0  0  0  0  0  0  0  0  0  0  0
   15.9333   -3.0635    0.0000 H   0  0  0  0  0  0  0  0  0  0  0  0
   15.5352   -2.2823    0.0000 H   0  0  0  0  0  0  0  0  0  0  0  0
   13.2346   -2.7713    0.0000 H   0  0  0  0  0  0  0  0  0  0  0  0
   13.1887   -3.6469    0.0000 H   0  0  0  0  0  0  0  0  0  0  0  0
   14.0643   -3.6928    0.0000 H   0  0  0  0  0  0  0  0  0  0  0  0
    4.0611   -2.0065    0.0000 H   0  0  0  0  0  0  0  0  0  0  0  0
    6.8671   -2.0065    0.0000 H   0  0  0  0  0  0  0  0  0  0  0  0
    6.8671   -3.6265    0.0000 H   0  0  0  0  0  0  0  0  0  0  0  0
    5.4641   -4.4365    0.0000 H   0  0  0  0  0  0  0  0  0  0  0  0
    3.9441   -5.3991    0.0000 H   0  0  0  0  0  0  0  0  0  0  0  0
    4.3426   -4.7089    0.0000 H   0  0  0  0  0  0  0  0  0  0  0  0
    2.3291   -6.6265    0.0000 H   0  0  0  0  0  0  0  0  0  0  0  0
  1 35  1  0  0  0  0
  2 35  1  0  0  0  0
  3 20  2  0  0  0  0
  4 21  2  0  0  0  0
  5 34  1  0  0  0  0
  5 37  1  0  0  0  0
  6 33  2  0  0  0  0
  7 34  2  0  0  0  0
  8 45  1  0  0  0  0
  8 48  1  0  0  0  0
  9 49  1  0  0  0  0
  9 95  1  0  0  0  0
 10 49  2  0  0  0  0
 11 16  1  0  0  0  0
 11 18  1  0  0  0  0
 11 20  1  0  0  0  0
 12 21  1  0  0  0  0
 26 12  1  6  0  0  0
 12 58  1  0  0  0  0
 22 13  1  6  0  0  0
 13 34  1  0  0  0  0
 13 62  1  0  0  0  0
 14 33  1  0  0  0  0
 14 36  1  0  0  0  0
 14 75  1  0  0  0  0
 15 17  1  0  0  0  0
 15 18  1  0  0  0  0
 15 19  1  1  0  0  0
 15 50  1  0  0  0  0
 16 17  1  0  0  0  0
 16 21  1  6  0  0  0
 16 51  1  0  0  0  0
 17 52  1  0  0  0  0
 17 53  1  0  0  0  0
 18 54  1  0  0  0  0
 18 55  1  0  0  0  0
 19 24  2  0  0  0  0
 19 25  1  0  0  0  0
 20 22  1  0  0  0  0
 22 23  1  0  0  0  0
 22 56  1  0  0  0  0
 23 27  1  0  0  0  0
 23 28  1  0  0  0  0
 23 57  1  0  0  0  0
 24 29  1  0  0  0  0
 24 59  1  0  0  0  0
 25 30  2  0  0  0  0
 25 60  1  0  0  0  0
 26 31  1  0  0  0  0
 26 33  1  0  0  0  0
 26 61  1  0  0  0  0
 27 63  1  0  0  0  0
 27 64  1  0  0  0  0
 27 65  1  0  0  0  0
 28 66  1  0  0  0  0
 28 67  1  0  0  0  0
 28 68  1  0  0  0  0
 29 32  2  0  0  0  0
 29 69  1  0  0  0  0
 30 32  1  0  0  0  0
 30 70  1  0  0  0  0
 31 35  1  0  0  0  0
 31 71  1  0  0  0  0
 31 72  1  0  0  0  0
 32 73  1  0  0  0  0
 35 74  1  0  0  0  0
 36 38  1  0  0  0  0
 36 76  1  0  0  0  0
 36 77  1  0  0  0  0
 37 39  1  0  0  0  0
 37 78  1  0  0  0  0
 37 79  1  0  0  0  0
 38 40  1  0  0  0  0
 38 80  1  0  0  0  0
 38 81  1  0  0  0  0
 39 41  1  0  0  0  0
 39 42  1  0  0  0  0
 39 82  1  0  0  0  0
 40 43  2  0  0  0  0
 40 44  1  0  0  0  0
 41 83  1  0  0  0  0
 41 84  1  0  0  0  0
 41 85  1  0  0  0  0
 42 86  1  0  0  0  0
 42 87  1  0  0  0  0
 42 88  1  0  0  0  0
 43 45  1  0  0  0  0
 43 89  1  0  0  0  0
 44 46  2  0  0  0  0
 44 90  1  0  0  0  0
 45 47  2  0  0  0  0
 46 47  1  0  0  0  0
 46 91  1  0  0  0  0
 47 92  1  0  0  0  0
 48 49  1  0  0  0  0
 48 93  1  0  0  0  0
 48 94  1  0  0  0  0
M  END
> <PUBCHEM_COMPOUND_CID>
507651
> <PUBCHEM_COMPOUND_CANONICALIZED>
1
> <PUBCHEM_CACTVS_COMPLEXITY>
1100
> <PUBCHEM_CACTVS_HBOND_ACCEPTOR>
10
> <PUBCHEM_CACTVS_HBOND_DONOR>
4
> <PUBCHEM_CACTVS_ROTATABLE_BOND>
18
> <PUBCHEM_CACTVS_SUBSKEYS>
AAADcfB/vYAAAAAAAAAAAAAAAAAAAWAAAAAwYAAAAAAAAAABQAAAHwAQCAAADSzhmBYyDoPABgCIAiHSGAICCAAgIAAIiIHOCIkNZjKEsT+eOCCk1hGLqAeY2fKOgAABAAAAAAAAAAIAAAAAAAAAAAAAAA==
> <PUBCHEM_IUPAC_OPENEYE_NAME>
2-[3-[2-[[(2S)-4,4-difluoro-2-[[(2S,4S)-1-[(2S)-2-(isobutoxycarbonylamino)-3-methyl-butanoyl]-4-phenyl-pyrrolidine-2-carbonyl]amino]butanoyl]amino]ethyl]phenoxy]acetic acid
> <PUBCHEM_IUPAC_CAS_NAME>
2-[3-[2-[[(2S)-4,4-difluoro-2-[[[(2S,4S)-1-[(2S)-3-methyl-2-[[2-methylpropoxy(oxo)methyl]amino]-1-oxobutyl]-4-phenyl-2-pyrrolidinyl]-oxomethyl]amino]-1-oxobutyl]amino]ethyl]phenoxy]acetic acid
> <PUBCHEM_IUPAC_NAME_MARKUP>
2-[3-[2-[[(2<I>S</I>)-4,4-difluoro-2-[[(2<I>S</I>,4<I>S</I>)-1-[(2<I>S</I>)-3-methyl-2-(2-methylpropoxycarbonylamino)butanoyl]-4-phenylpyrrolidine-2-carbonyl]amino]butanoyl]amino]ethyl]phenoxy]acetic acid
> <PUBCHEM_IUPAC_NAME>
2-[3-[2-[[(2S)-4,4-difluoro-2-[[(2S,4S)-1-[(2S)-3-methyl-2-(2-methylpropoxycarbonylamino)butanoyl]-4-phenylpyrrolidine-2-carbonyl]amino]butanoyl]amino]ethyl]phenoxy]acetic acid
> <PUBCHEM_IUPAC_SYSTEMATIC_NAME>
2-[3-[2-[[(2S)-4,4-bis(fluoranyl)-2-[[(2S,4S)-1-[(2S)-3-methyl-2-(2-methylpropoxycarbonylamino)butanoyl]-4-phenyl-pyrrolidin-2-yl]carbonylamino]butanoyl]amino]ethyl]phenoxy]ethanoic acid
> <PUBCHEM_IUPAC_TRADITIONAL_NAME>
2-[3-[2-[[(2S)-4,4-difluoro-2-[[(2S,4S)-1-[(2S)-2-(isobutoxycarbonylamino)-3-methyl-butanoyl]-4-phenyl-prolyl]amino]butanoyl]amino]ethyl]phenoxy]acetic acid
> <PUBCHEM_IUPAC_INCHI>
InChI=1S/C35H46F2N4O8/c1-21(2)19-49-35(47)40-31(22(3)4)34(46)41-18-25(24-10-6-5-7-11-24)16-28(41)33(45)39-27(17-29(36)37)32(44)38-14-13-23-9-8-12-26(15-23)48-20-30(42)43/h5-12,15,21-22,25,27-29,31H,13-14,16-20H2,1-4H3,(H,38,44)(H,39,45)(H,40,47)(H,42,43)/t25-,27+,28+,31+/m1/s1
> <PUBCHEM_IUPAC_INCHIKEY>
JVYHZMUYJASSBQ-SRLHSOGQSA-N
> <PUBCHEM_XLOGP3_AA>
5.5
> <PUBCHEM_EXACT_MASS>
688.32837076
> <PUBCHEM_MOLECULAR_FORMULA>
C35H46F2N4O8
> <PUBCHEM_MOLECULAR_WEIGHT>
688.8
> <PUBCHEM_OPENEYE_CAN_SMILES>
CC(C)COC(=O)NC(C(C)C)C(=O)N1CC(CC1C(=O)NC(CC(F)F)C(=O)NCCC2=CC(=CC=C2)OCC(=O)O)C3=CC=CC=C3
> <PUBCHEM_OPENEYE_ISO_SMILES>
CC(C)COC(=O)N[C@@H](C(C)C)C(=O)N1C[C@@H](C[C@H]1C(=O)N[C@@H](CC(F)F)C(=O)NCCC2=CC(=CC=C2)OCC(=O)O)C3=CC=CC=C3
> <PUBCHEM_CACTVS_TPSA>
163
> <PUBCHEM_MONOISOTOPIC_WEIGHT>
688.32837076
> <PUBCHEM_TOTAL_CHARGE>
0
> <PUBCHEM_HEAVY_ATOM_COUNT>
49
> <PUBCHEM_ATOM_DEF_STEREO_COUNT>
4
> <PUBCHEM_ATOM_UDEF_STEREO_COUNT>
0
> <PUBCHEM_BOND_DEF_STEREO_COUNT>
0
> <PUBCHEM_BOND_UDEF_STEREO_COUNT>
0
> <PUBCHEM_ISOTOPIC_ATOM_COUNT>
0
> <PUBCHEM_COMPONENT_COUNT>
1
> <PUBCHEM_CACTVS_TAUTO_COUNT>
-1
> <PUBCHEM_COORDINATE_TYPE>
1
5
255
> <PUBCHEM_BONDANNOTATIONS>
26  12  6
22  13  6
15  19  5
16  21  6
19  24  8
19  25  8
24  29  8
25  30  8
29  32  8
30  32  8
40  43  8
40  44  8
43  45  8
44  46  8
45  47  8
46  47  8
$$$$
