507684
  -OEChem-10302200282D
 76 78  0     1  0  0  0  0  0999 V2000
    5.4641    3.7457    0.0000 F   0  0  0  0  0  0  0  0  0  0  0  0
    3.7320    3.7457    0.0000 F   0  0  0  0  0  0  0  0  0  0  0  0
    2.0000   -2.2543    0.0000 F   0  0  0  0  0  0  0  0  0  0  0  0
    5.4641   -2.2543    0.0000 F   0  0  0  0  0  0  0  0  0  0  0  0
    9.5516    4.3617    0.0000 O   0  0  0  0  0  0  0  0  0  0  0  0
    7.1962    0.7457    0.0000 O   0  0  0  0  0  0  0  0  0  0  0  0
    8.4405    0.1917    0.0000 O   0  0  0  0  0  0  0  0  0  0  0  0
   10.8778    1.2209    0.0000 O   0  0  0  0  0  0  0  0  0  0  0  0
    6.3301    0.2457    0.0000 O   0  0  0  0  0  0  0  0  0  0  0  0
    2.8660   -5.7543    0.0000 O   0  0  0  0  0  0  0  0  0  0  0  0
    4.5981   -5.7543    0.0000 O   0  0  0  0  0  0  0  0  0  0  0  0
    8.9757    1.8390    0.0000 N   0  0  0  0  0  0  0  0  0  0  0  0
    6.3301    2.2457    0.0000 N   0  0  0  0  0  0  0  0  0  0  0  0
    4.5981    0.2457    0.0000 N   0  0  0  0  0  0  0  0  0  0  0  0
   10.9528    5.3798    0.0000 C   0  0  0  0  0  0  0  0  0  0  0  0
   10.8483    6.3743    0.0000 C   0  0  0  0  0  0  0  0  0  0  0  0
   11.7619    5.9676    0.0000 C   0  0  0  0  0  0  0  0  0  0  0  0
   10.5461    4.4662    0.0000 C   0  0  0  0  0  0  0  0  0  0  0  0
    9.1448    3.4482    0.0000 C   0  0  2  0  0  0  0  0  0  0  0  0
    8.1667    3.2402    0.0000 C   0  0  0  0  0  0  0  0  0  0  0  0
    8.0622    2.2457    0.0000 C   0  0  3  0  0  0  0  0  0  0  0  0
    9.6448    2.5821    0.0000 C   0  0  0  0  0  0  0  0  0  0  0  0
    7.1962    1.7457    0.0000 C   0  0  0  0  0  0  0  0  0  0  0  0
    9.1836    0.8608    0.0000 C   0  0  0  0  0  0  0  0  0  0  0  0
   10.1347    0.5518    0.0000 C   0  0  2  0  0  0  0  0  0  0  0  0
   10.3426   -0.4263    0.0000 C   0  0  0  0  0  0  0  0  0  0  0  0
    5.4641    1.7457    0.0000 C   0  0  1  0  0  0  0  0  0  0  0  0
   11.2937   -0.7354    0.0000 C   0  0  0  0  0  0  0  0  0  0  0  0
    9.5995   -1.0955    0.0000 C   0  0  0  0  0  0  0  0  0  0  0  0
    4.5981    2.2457    0.0000 C   0  0  0  0  0  0  0  0  0  0  0  0
    5.4641    0.7457    0.0000 C   0  0  0  0  0  0  0  0  0  0  0  0
    4.5981    3.2457    0.0000 C   0  0  0  0  0  0  0  0  0  0  0  0
    4.5981   -0.7543    0.0000 C   0  0  0  0  0  0  0  0  0  0  0  0
    3.7320   -1.2543    0.0000 C   0  0  0  0  0  0  0  0  0  0  0  0
    3.7320   -2.2543    0.0000 C   0  0  0  0  0  0  0  0  0  0  0  0
    2.8660   -2.7543    0.0000 C   0  0  0  0  0  0  0  0  0  0  0  0
    4.5981   -2.7543    0.0000 C   0  0  0  0  0  0  0  0  0  0  0  0
    2.8660   -3.7543    0.0000 C   0  0  0  0  0  0  0  0  0  0  0  0
    4.5981   -3.7543    0.0000 C   0  0  0  0  0  0  0  0  0  0  0  0
    3.7320   -4.2543    0.0000 C   0  0  0  0  0  0  0  0  0  0  0  0
    3.7320   -5.2543    0.0000 C   0  0  0  0  0  0  0  0  0  0  0  0
   11.4347    4.9896    0.0000 H   0  0  0  0  0  0  0  0  0  0  0  0
   10.9983    6.9759    0.0000 H   0  0  0  0  0  0  0  0  0  0  0  0
   10.2298    6.4175    0.0000 H   0  0  0  0  0  0  0  0  0  0  0  0
   12.2079    5.5369    0.0000 H   0  0  0  0  0  0  0  0  0  0  0  0
   12.1086    6.4816    0.0000 H   0  0  0  0  0  0  0  0  0  0  0  0
   10.5029    3.8477    0.0000 H   0  0  0  0  0  0  0  0  0  0  0  0
   11.1477    4.3162    0.0000 H   0  0  0  0  0  0  0  0  0  0  0  0
    8.7547    3.9300    0.0000 H   0  0  0  0  0  0  0  0  0  0  0  0
    8.1019    3.8568    0.0000 H   0  0  0  0  0  0  0  0  0  0  0  0
    7.5467    3.2402    0.0000 H   0  0  0  0  0  0  0  0  0  0  0  0
    8.0946    1.6266    0.0000 H   0  0  0  0  0  0  0  0  0  0  0  0
   10.0597    2.1214    0.0000 H   0  0  0  0  0  0  0  0  0  0  0  0
   10.1464    2.9465    0.0000 H   0  0  0  0  0  0  0  0  0  0  0  0
   10.0058    1.1583    0.0000 H   0  0  0  0  0  0  0  0  0  0  0  0
    6.3301    2.8657    0.0000 H   0  0  0  0  0  0  0  0  0  0  0  0
    9.7530   -0.2347    0.0000 H   0  0  0  0  0  0  0  0  0  0  0  0
    5.4641    2.3657    0.0000 H   0  0  0  0  0  0  0  0  0  0  0  0
   11.1021   -1.3250    0.0000 H   0  0  0  0  0  0  0  0  0  0  0  0
   11.8833   -0.9269    0.0000 H   0  0  0  0  0  0  0  0  0  0  0  0
   11.4853   -0.1457    0.0000 H   0  0  0  0  0  0  0  0  0  0  0  0
    9.1846   -0.6347    0.0000 H   0  0  0  0  0  0  0  0  0  0  0  0
    9.1387   -1.5103    0.0000 H   0  0  0  0  0  0  0  0  0  0  0  0
   10.0143   -1.5562    0.0000 H   0  0  0  0  0  0  0  0  0  0  0  0
    3.9875    2.3534    0.0000 H   0  0  0  0  0  0  0  0  0  0  0  0
    4.3860    1.6631    0.0000 H   0  0  0  0  0  0  0  0  0  0  0  0
   11.4675    1.0294    0.0000 H   0  0  0  0  0  0  0  0  0  0  0  0
    4.5981    3.8657    0.0000 H   0  0  0  0  0  0  0  0  0  0  0  0
    4.0611    0.5557    0.0000 H   0  0  0  0  0  0  0  0  0  0  0  0
    4.8101   -1.3369    0.0000 H   0  0  0  0  0  0  0  0  0  0  0  0
    5.2087   -0.6466    0.0000 H   0  0  0  0  0  0  0  0  0  0  0  0
    3.5200   -0.6717    0.0000 H   0  0  0  0  0  0  0  0  0  0  0  0
    3.1215   -1.3620    0.0000 H   0  0  0  0  0  0  0  0  0  0  0  0
    2.3291   -4.0643    0.0000 H   0  0  0  0  0  0  0  0  0  0  0  0
    5.1350   -4.0643    0.0000 H   0  0  0  0  0  0  0  0  0  0  0  0
    2.8660   -6.3743    0.0000 H   0  0  0  0  0  0  0  0  0  0  0  0
  1 32  1  0  0  0  0
  2 32  1  0  0  0  0
  3 36  1  0  0  0  0
  4 37  1  0  0  0  0
  5 18  1  0  0  0  0
 19  5  1  1  0  0  0
  6 23  2  0  0  0  0
  7 24  2  0  0  0  0
 25  8  1  1  0  0  0
  8 67  1  0  0  0  0
  9 31  2  0  0  0  0
 10 41  1  0  0  0  0
 10 76  1  0  0  0  0
 11 41  2  0  0  0  0
 12 21  1  0  0  0  0
 12 22  1  0  0  0  0
 12 24  1  0  0  0  0
 13 23  1  0  0  0  0
 27 13  1  6  0  0  0
 13 56  1  0  0  0  0
 14 31  1  0  0  0  0
 14 33  1  0  0  0  0
 14 69  1  0  0  0  0
 15 16  1  0  0  0  0
 15 17  1  0  0  0  0
 15 18  1  0  0  0  0
 15 42  1  0  0  0  0
 16 17  1  0  0  0  0
 16 43  1  0  0  0  0
 16 44  1  0  0  0  0
 17 45  1  0  0  0  0
 17 46  1  0  0  0  0
 18 47  1  0  0  0  0
 18 48  1  0  0  0  0
 19 20  1  0  0  0  0
 19 22  1  0  0  0  0
 19 49  1  0  0  0  0
 20 21  1  0  0  0  0
 20 50  1  0  0  0  0
 20 51  1  0  0  0  0
 21 23  1  0  0  0  0
 21 52  1  0  0  0  0
 22 53  1  0  0  0  0
 22 54  1  0  0  0  0
 24 25  1  0  0  0  0
 25 26  1  0  0  0  0
 25 55  1  0  0  0  0
 26 28  1  0  0  0  0
 26 29  1  0  0  0  0
 26 57  1  0  0  0  0
 27 30  1  0  0  0  0
 27 31  1  0  0  0  0
 27 58  1  0  0  0  0
 28 59  1  0  0  0  0
 28 60  1  0  0  0  0
 28 61  1  0  0  0  0
 29 62  1  0  0  0  0
 29 63  1  0  0  0  0
 29 64  1  0  0  0  0
 30 32  1  0  0  0  0
 30 65  1  0  0  0  0
 30 66  1  0  0  0  0
 32 68  1  0  0  0  0
 33 34  1  0  0  0  0
 33 70  1  0  0  0  0
 33 71  1  0  0  0  0
 34 35  1  0  0  0  0
 34 72  1  0  0  0  0
 34 73  1  0  0  0  0
 35 36  2  0  0  0  0
 35 37  1  0  0  0  0
 36 38  1  0  0  0  0
 37 39  2  0  0  0  0
 38 40  2  0  0  0  0
 38 74  1  0  0  0  0
 39 40  1  0  0  0  0
 39 75  1  0  0  0  0
 40 41  1  0  0  0  0
M  END
> <PUBCHEM_COMPOUND_CID>
507684
> <PUBCHEM_COMPOUND_CANONICALIZED>
1
> <PUBCHEM_CACTVS_COMPLEXITY>
927
> <PUBCHEM_CACTVS_HBOND_ACCEPTOR>
11
> <PUBCHEM_CACTVS_HBOND_DONOR>
4
> <PUBCHEM_CACTVS_ROTATABLE_BOND>
14
> <PUBCHEM_CACTVS_SUBSKEYS>
AAADcfB7OcAAAAAAAAAAAAAAGAAAAWAAAAAwAAAAAAAAAAABAAAAHwAQCAAADTzhmB4yCIPABgCIAiHSGAICAAAkAAAAiIHICMgKdjKAlTGXcQAm1gGYmYe6yfCOQAAAAAAAAACAAAAAAAAAAAAAAAAAAA==
> <PUBCHEM_IUPAC_OPENEYE_NAME>
4-[2-[[(2S)-2-[[(4R)-4-(cyclopropylmethoxy)-1-[(2S)-2-hydroxy-3-methyl-butanoyl]pyrrolidine-2-carbonyl]amino]-4,4-difluoro-butanoyl]amino]ethyl]-3,5-difluoro-benzoic acid
> <PUBCHEM_IUPAC_CAS_NAME>
4-[2-[[(2S)-2-[[[(4R)-4-(cyclopropylmethoxy)-1-[(2S)-2-hydroxy-3-methyl-1-oxobutyl]-2-pyrrolidinyl]-oxomethyl]amino]-4,4-difluoro-1-oxobutyl]amino]ethyl]-3,5-difluorobenzoic acid
> <PUBCHEM_IUPAC_NAME_MARKUP>
4-[2-[[(2<I>S</I>)-2-[[(4<I>R</I>)-4-(cyclopropylmethoxy)-1-[(2<I>S</I>)-2-hydroxy-3-methylbutanoyl]pyrrolidine-2-carbonyl]amino]-4,4-difluorobutanoyl]amino]ethyl]-3,5-difluorobenzoic acid
> <PUBCHEM_IUPAC_NAME>
4-[2-[[(2S)-2-[[(4R)-4-(cyclopropylmethoxy)-1-[(2S)-2-hydroxy-3-methylbutanoyl]pyrrolidine-2-carbonyl]amino]-4,4-difluorobutanoyl]amino]ethyl]-3,5-difluorobenzoic acid
> <PUBCHEM_IUPAC_SYSTEMATIC_NAME>
4-[2-[[(2S)-2-[[(4R)-4-(cyclopropylmethoxy)-1-[(2S)-3-methyl-2-oxidanyl-butanoyl]pyrrolidin-2-yl]carbonylamino]-4,4-bis(fluoranyl)butanoyl]amino]ethyl]-3,5-bis(fluoranyl)benzoic acid
> <PUBCHEM_IUPAC_TRADITIONAL_NAME>
4-[2-[[(2S)-2-[[(4R)-4-(cyclopropylmethoxy)-1-[(2S)-2-hydroxy-3-methyl-butanoyl]prolyl]amino]-4,4-difluoro-butanoyl]amino]ethyl]-3,5-difluoro-benzoic acid
> <PUBCHEM_IUPAC_INCHI>
InChI=1S/C27H35F4N3O7/c1-13(2)23(35)26(38)34-11-16(41-12-14-3-4-14)9-21(34)25(37)33-20(10-22(30)31)24(36)32-6-5-17-18(28)7-15(27(39)40)8-19(17)29/h7-8,13-14,16,20-23,35H,3-6,9-12H2,1-2H3,(H,32,36)(H,33,37)(H,39,40)/t16-,20+,21?,23+/m1/s1
> <PUBCHEM_IUPAC_INCHIKEY>
HYUUIDBSCFDBKR-HMUXABSVSA-N
> <PUBCHEM_XLOGP3_AA>
2.9
> <PUBCHEM_EXACT_MASS>
589.24111311
> <PUBCHEM_MOLECULAR_FORMULA>
C27H35F4N3O7
> <PUBCHEM_MOLECULAR_WEIGHT>
589.6
> <PUBCHEM_OPENEYE_CAN_SMILES>
CC(C)C(C(=O)N1CC(CC1C(=O)NC(CC(F)F)C(=O)NCCC2=C(C=C(C=C2F)C(=O)O)F)OCC3CC3)O
> <PUBCHEM_OPENEYE_ISO_SMILES>
CC(C)[C@@H](C(=O)N1C[C@@H](CC1C(=O)N[C@@H](CC(F)F)C(=O)NCCC2=C(C=C(C=C2F)C(=O)O)F)OCC3CC3)O
> <PUBCHEM_CACTVS_TPSA>
145
> <PUBCHEM_MONOISOTOPIC_WEIGHT>
589.24111311
> <PUBCHEM_TOTAL_CHARGE>
0
> <PUBCHEM_HEAVY_ATOM_COUNT>
41
> <PUBCHEM_ATOM_DEF_STEREO_COUNT>
3
> <PUBCHEM_ATOM_UDEF_STEREO_COUNT>
1
> <PUBCHEM_BOND_DEF_STEREO_COUNT>
0
> <PUBCHEM_BOND_UDEF_STEREO_COUNT>
0
> <PUBCHEM_ISOTOPIC_ATOM_COUNT>
0
> <PUBCHEM_COMPONENT_COUNT>
1
> <PUBCHEM_CACTVS_TAUTO_COUNT>
-1
> <PUBCHEM_COORDINATE_TYPE>
1
5
255
> <PUBCHEM_BONDANNOTATIONS>
27  13  6
21  23  3
35  36  8
35  37  8
36  38  8
37  39  8
38  40  8
39  40  8
19  5  5
25  8  5
$$$$
