507675
  -OEChem-10302200282D
 77 80  0     1  0  0  0  0  0999 V2000
    4.5981   -4.1257    0.0000 F   0  0  0  0  0  0  0  0  0  0  0  0
    2.8660   -4.1257    0.0000 F   0  0  0  0  0  0  0  0  0  0  0  0
    6.3301   -1.1257    0.0000 O   0  0  0  0  0  0  0  0  0  0  0  0
    5.6065   -3.9803    0.0000 O   0  0  0  0  0  0  0  0  0  0  0  0
    7.7165   -5.5765    0.0000 O   0  0  0  0  0  0  0  0  0  0  0  0
    5.4641   -0.6257    0.0000 O   0  0  0  0  0  0  0  0  0  0  0  0
    7.3007   -3.6202    0.0000 N   0  0  0  0  0  0  0  0  0  0  0  0
    5.4641   -2.6257    0.0000 N   0  0  0  0  0  0  0  0  0  0  0  0
    3.7320   -0.6257    0.0000 N   0  0  0  0  0  0  0  0  0  0  0  0
    2.0570    5.4621    0.0000 N   0  0  0  0  0  0  0  0  0  0  0  0
    3.6750    5.4621    0.0000 N   0  0  0  0  0  0  0  0  0  0  0  0
    2.3660    6.4132    0.0000 N   0  0  0  0  0  0  0  0  0  0  0  0
    3.3660    6.4132    0.0000 N   0  0  0  0  0  0  0  0  0  0  0  0
    8.7788   -2.9621    0.0000 C   0  0  2  0  0  0  0  0  0  0  0  0
    7.1962   -2.6257    0.0000 C   0  0  3  0  0  0  0  0  0  0  0  0
    8.1097   -2.2189    0.0000 C   0  0  0  0  0  0  0  0  0  0  0  0
    8.2788   -3.8281    0.0000 C   0  0  0  0  0  0  0  0  0  0  0  0
    9.7734   -2.8576    0.0000 C   0  0  0  0  0  0  0  0  0  0  0  0
    6.3301   -2.1257    0.0000 C   0  0  0  0  0  0  0  0  0  0  0  0
    6.5575   -4.2893    0.0000 C   0  0  0  0  0  0  0  0  0  0  0  0
    6.7654   -5.2675    0.0000 C   0  0  2  0  0  0  0  0  0  0  0  0
    6.0223   -5.9366    0.0000 C   0  0  0  0  0  0  0  0  0  0  0  0
   10.3611   -3.6666    0.0000 C   0  0  0  0  0  0  0  0  0  0  0  0
   10.1801   -1.9440    0.0000 C   0  0  0  0  0  0  0  0  0  0  0  0
    4.5981   -2.1257    0.0000 C   0  0  1  0  0  0  0  0  0  0  0  0
   11.3557   -3.5620    0.0000 C   0  0  0  0  0  0  0  0  0  0  0  0
   11.1746   -1.8395    0.0000 C   0  0  0  0  0  0  0  0  0  0  0  0
    6.2302   -6.9148    0.0000 C   0  0  0  0  0  0  0  0  0  0  0  0
    5.0712   -5.6276    0.0000 C   0  0  0  0  0  0  0  0  0  0  0  0
    3.7320   -2.6257    0.0000 C   0  0  0  0  0  0  0  0  0  0  0  0
   11.7624   -2.6485    0.0000 C   0  0  0  0  0  0  0  0  0  0  0  0
    4.5981   -1.1257    0.0000 C   0  0  0  0  0  0  0  0  0  0  0  0
    3.7320   -3.6257    0.0000 C   0  0  0  0  0  0  0  0  0  0  0  0
    3.7320    0.3743    0.0000 C   0  0  0  0  0  0  0  0  0  0  0  0
    2.8660    0.8743    0.0000 C   0  0  0  0  0  0  0  0  0  0  0  0
    2.8660    1.8743    0.0000 C   0  0  0  0  0  0  0  0  0  0  0  0
    3.7320    2.3743    0.0000 C   0  0  0  0  0  0  0  0  0  0  0  0
    2.0000    2.3743    0.0000 C   0  0  0  0  0  0  0  0  0  0  0  0
    3.7320    3.3743    0.0000 C   0  0  0  0  0  0  0  0  0  0  0  0
    2.0000    3.3743    0.0000 C   0  0  0  0  0  0  0  0  0  0  0  0
    2.8660    3.8743    0.0000 C   0  0  0  0  0  0  0  0  0  0  0  0
    2.8660    4.8743    0.0000 C   0  0  0  0  0  0  0  0  0  0  0  0
    9.1165   -3.4821    0.0000 H   0  0  0  0  0  0  0  0  0  0  0  0
    6.6762   -2.9634    0.0000 H   0  0  0  0  0  0  0  0  0  0  0  0
    8.6113   -1.8545    0.0000 H   0  0  0  0  0  0  0  0  0  0  0  0
    7.7997   -1.6820    0.0000 H   0  0  0  0  0  0  0  0  0  0  0  0
    8.0872   -4.4178    0.0000 H   0  0  0  0  0  0  0  0  0  0  0  0
    8.8452   -4.0803    0.0000 H   0  0  0  0  0  0  0  0  0  0  0  0
    7.2262   -4.8526    0.0000 H   0  0  0  0  0  0  0  0  0  0  0  0
    6.6120   -6.1282    0.0000 H   0  0  0  0  0  0  0  0  0  0  0  0
    5.4641   -3.2457    0.0000 H   0  0  0  0  0  0  0  0  0  0  0  0
   10.1090   -4.2330    0.0000 H   0  0  0  0  0  0  0  0  0  0  0  0
    9.8157   -1.4424    0.0000 H   0  0  0  0  0  0  0  0  0  0  0  0
    4.5981   -2.7457    0.0000 H   0  0  0  0  0  0  0  0  0  0  0  0
   11.7201   -4.0636    0.0000 H   0  0  0  0  0  0  0  0  0  0  0  0
   11.4268   -1.2731    0.0000 H   0  0  0  0  0  0  0  0  0  0  0  0
    5.6238   -7.0437    0.0000 H   0  0  0  0  0  0  0  0  0  0  0  0
    6.3591   -7.5212    0.0000 H   0  0  0  0  0  0  0  0  0  0  0  0
    6.8367   -6.7858    0.0000 H   0  0  0  0  0  0  0  0  0  0  0  0
    5.2628   -5.0379    0.0000 H   0  0  0  0  0  0  0  0  0  0  0  0
    4.4816   -5.4360    0.0000 H   0  0  0  0  0  0  0  0  0  0  0  0
    4.8797   -6.2172    0.0000 H   0  0  0  0  0  0  0  0  0  0  0  0
    3.5200   -2.0431    0.0000 H   0  0  0  0  0  0  0  0  0  0  0  0
    3.1215   -2.7333    0.0000 H   0  0  0  0  0  0  0  0  0  0  0  0
    7.8454   -6.1830    0.0000 H   0  0  0  0  0  0  0  0  0  0  0  0
   12.3790   -2.5837    0.0000 H   0  0  0  0  0  0  0  0  0  0  0  0
    3.7320   -4.2457    0.0000 H   0  0  0  0  0  0  0  0  0  0  0  0
    3.1951   -0.9357    0.0000 H   0  0  0  0  0  0  0  0  0  0  0  0
    4.3426    0.2667    0.0000 H   0  0  0  0  0  0  0  0  0  0  0  0
    3.9441    0.9569    0.0000 H   0  0  0  0  0  0  0  0  0  0  0  0
    2.2554    0.9820    0.0000 H   0  0  0  0  0  0  0  0  0  0  0  0
    2.6540    0.2917    0.0000 H   0  0  0  0  0  0  0  0  0  0  0  0
    4.2690    2.0643    0.0000 H   0  0  0  0  0  0  0  0  0  0  0  0
    1.4631    2.0643    0.0000 H   0  0  0  0  0  0  0  0  0  0  0  0
    4.2690    3.6843    0.0000 H   0  0  0  0  0  0  0  0  0  0  0  0
    1.4631    3.6843    0.0000 H   0  0  0  0  0  0  0  0  0  0  0  0
    2.0016    6.9148    0.0000 H   0  0  0  0  0  0  0  0  0  0  0  0
  1 33  1  0  0  0  0
  2 33  1  0  0  0  0
  3 19  2  0  0  0  0
  4 20  2  0  0  0  0
 21  5  1  1  0  0  0
  5 65  1  0  0  0  0
  6 32  2  0  0  0  0
  7 15  1  0  0  0  0
  7 17  1  0  0  0  0
  7 20  1  0  0  0  0
  8 19  1  0  0  0  0
 25  8  1  1  0  0  0
  8 51  1  0  0  0  0
  9 32  1  0  0  0  0
  9 34  1  0  0  0  0
  9 68  1  0  0  0  0
 10 12  1  0  0  0  0
 10 42  2  0  0  0  0
 11 13  2  0  0  0  0
 11 42  1  0  0  0  0
 12 13  1  0  0  0  0
 12 77  1  0  0  0  0
 14 16  1  0  0  0  0
 14 17  1  0  0  0  0
 14 18  1  1  0  0  0
 14 43  1  0  0  0  0
 15 16  1  0  0  0  0
 15 19  1  0  0  0  0
 15 44  1  0  0  0  0
 16 45  1  0  0  0  0
 16 46  1  0  0  0  0
 17 47  1  0  0  0  0
 17 48  1  0  0  0  0
 18 23  2  0  0  0  0
 18 24  1  0  0  0  0
 20 21  1  0  0  0  0
 21 22  1  0  0  0  0
 21 49  1  0  0  0  0
 22 28  1  0  0  0  0
 22 29  1  0  0  0  0
 22 50  1  0  0  0  0
 23 26  1  0  0  0  0
 23 52  1  0  0  0  0
 24 27  2  0  0  0  0
 24 53  1  0  0  0  0
 25 30  1  0  0  0  0
 25 32  1  0  0  0  0
 25 54  1  0  0  0  0
 26 31  2  0  0  0  0
 26 55  1  0  0  0  0
 27 31  1  0  0  0  0
 27 56  1  0  0  0  0
 28 57  1  0  0  0  0
 28 58  1  0  0  0  0
 28 59  1  0  0  0  0
 29 60  1  0  0  0  0
 29 61  1  0  0  0  0
 29 62  1  0  0  0  0
 30 33  1  0  0  0  0
 30 63  1  0  0  0  0
 30 64  1  0  0  0  0
 31 66  1  0  0  0  0
 33 67  1  0  0  0  0
 34 35  1  0  0  0  0
 34 69  1  0  0  0  0
 34 70  1  0  0  0  0
 35 36  1  0  0  0  0
 35 71  1  0  0  0  0
 35 72  1  0  0  0  0
 36 37  2  0  0  0  0
 36 38  1  0  0  0  0
 37 39  1  0  0  0  0
 37 73  1  0  0  0  0
 38 40  2  0  0  0  0
 38 74  1  0  0  0  0
 39 41  2  0  0  0  0
 39 75  1  0  0  0  0
 40 41  1  0  0  0  0
 40 76  1  0  0  0  0
 41 42  1  0  0  0  0
M  END
> <PUBCHEM_COMPOUND_CID>
507675
> <PUBCHEM_COMPOUND_CANONICALIZED>
1
> <PUBCHEM_CACTVS_COMPLEXITY>
899
> <PUBCHEM_CACTVS_HBOND_ACCEPTOR>
9
> <PUBCHEM_CACTVS_HBOND_DONOR>
4
> <PUBCHEM_CACTVS_ROTATABLE_BOND>
12
> <PUBCHEM_CACTVS_SUBSKEYS>
AAADcfB7uYAAAAAAAAAAAAAAAAAAAWLAAAAwYAAAAAAAAAAB0AAAHwAYCAAADTzhmxYzEIfCAgCqAiNyMAKCAAIgAAAcqKHoBJgKcLKAkTGUYABglgCYiAcYicCOwAAAAAAAAACAAAAAAAAAAAAAAAAAAA==
> <PUBCHEM_IUPAC_OPENEYE_NAME>
(4S)-N-[(1S)-3,3-difluoro-1-[2-[4-(2H-tetrazol-5-yl)phenyl]ethylcarbamoyl]propyl]-1-[(2S)-2-hydroxy-3-methyl-butanoyl]-4-phenyl-pyrrolidine-2-carboxamide
> <PUBCHEM_IUPAC_CAS_NAME>
(4S)-N-[(2S)-4,4-difluoro-1-oxo-1-[2-[4-(2H-tetrazol-5-yl)phenyl]ethylamino]butan-2-yl]-1-[(2S)-2-hydroxy-3-methyl-1-oxobutyl]-4-phenyl-2-pyrrolidinecarboxamide
> <PUBCHEM_IUPAC_NAME_MARKUP>
(4<I>S</I>)-<I>N</I>-[(2<I>S</I>)-4,4-difluoro-1-oxo-1-[2-[4-(2<I>H</I>-tetrazol-5-yl)phenyl]ethylamino]butan-2-yl]-1-[(2<I>S</I>)-2-hydroxy-3-methylbutanoyl]-4-phenylpyrrolidine-2-carboxamide
> <PUBCHEM_IUPAC_NAME>
(4S)-N-[(2S)-4,4-difluoro-1-oxo-1-[2-[4-(2H-tetrazol-5-yl)phenyl]ethylamino]butan-2-yl]-1-[(2S)-2-hydroxy-3-methylbutanoyl]-4-phenylpyrrolidine-2-carboxamide
> <PUBCHEM_IUPAC_SYSTEMATIC_NAME>
(4S)-N-[(2S)-4,4-bis(fluoranyl)-1-oxidanylidene-1-[2-[4-(2H-1,2,3,4-tetrazol-5-yl)phenyl]ethylamino]butan-2-yl]-1-[(2S)-3-methyl-2-oxidanyl-butanoyl]-4-phenyl-pyrrolidine-2-carboxamide
> <PUBCHEM_IUPAC_TRADITIONAL_NAME>
(4S)-N-[(1S)-3,3-difluoro-1-[2-[4-(2H-tetrazol-5-yl)phenyl]ethylcarbamoyl]propyl]-1-[(2S)-2-hydroxy-3-methyl-butanoyl]-4-phenyl-pyrrolidine-2-carboxamide
> <PUBCHEM_IUPAC_INCHI>
InChI=1S/C29H35F2N7O4/c1-17(2)25(39)29(42)38-16-21(19-6-4-3-5-7-19)14-23(38)28(41)33-22(15-24(30)31)27(40)32-13-12-18-8-10-20(11-9-18)26-34-36-37-35-26/h3-11,17,21-25,39H,12-16H2,1-2H3,(H,32,40)(H,33,41)(H,34,35,36,37)/t21-,22+,23?,25+/m1/s1
> <PUBCHEM_IUPAC_INCHIKEY>
JHVOOENAXNIJSN-XLINIJFUSA-N
> <PUBCHEM_XLOGP3_AA>
3.5
> <PUBCHEM_EXACT_MASS>
583.27185895
> <PUBCHEM_MOLECULAR_FORMULA>
C29H35F2N7O4
> <PUBCHEM_MOLECULAR_WEIGHT>
583.6
> <PUBCHEM_OPENEYE_CAN_SMILES>
CC(C)C(C(=O)N1CC(CC1C(=O)NC(CC(F)F)C(=O)NCCC2=CC=C(C=C2)C3=NNN=N3)C4=CC=CC=C4)O
> <PUBCHEM_OPENEYE_ISO_SMILES>
CC(C)[C@@H](C(=O)N1C[C@@H](CC1C(=O)N[C@@H](CC(F)F)C(=O)NCCC2=CC=C(C=C2)C3=NNN=N3)C4=CC=CC=C4)O
> <PUBCHEM_CACTVS_TPSA>
153
> <PUBCHEM_MONOISOTOPIC_WEIGHT>
583.27185895
> <PUBCHEM_TOTAL_CHARGE>
0
> <PUBCHEM_HEAVY_ATOM_COUNT>
42
> <PUBCHEM_ATOM_DEF_STEREO_COUNT>
3
> <PUBCHEM_ATOM_UDEF_STEREO_COUNT>
1
> <PUBCHEM_BOND_DEF_STEREO_COUNT>
0
> <PUBCHEM_BOND_UDEF_STEREO_COUNT>
0
> <PUBCHEM_ISOTOPIC_ATOM_COUNT>
0
> <PUBCHEM_COMPONENT_COUNT>
1
> <PUBCHEM_CACTVS_TAUTO_COUNT>
-1
> <PUBCHEM_COORDINATE_TYPE>
1
5
255
> <PUBCHEM_BONDANNOTATIONS>
10  12  8
10  42  8
11  13  8
11  42  8
12  13  8
14  18  5
15  19  3
18  23  8
18  24  8
23  26  8
24  27  8
26  31  8
27  31  8
36  37  8
36  38  8
37  39  8
38  40  8
39  41  8
40  41  8
21  5  5
25  8  5
$$$$
