507622
  -OEChem-10302200282D
 97 99  0     1  0  0  0  0  0999 V2000
    2.0000    2.1615    0.0000 Cl  0  0  0  0  0  0  0  0  0  0  0  0
    3.7320   -3.8385    0.0000 F   0  0  0  0  0  0  0  0  0  0  0  0
    5.4641   -3.8385    0.0000 F   0  0  0  0  0  0  0  0  0  0  0  0
    8.4405   -0.2844    0.0000 O   0  0  0  0  0  0  0  0  0  0  0  0
    7.1962   -0.8385    0.0000 O   0  0  0  0  0  0  0  0  0  0  0  0
   11.5016    1.6208    0.0000 O   0  0  0  0  0  0  0  0  0  0  0  0
    6.3301   -0.3385    0.0000 O   0  0  0  0  0  0  0  0  0  0  0  0
   12.0368   -0.0265    0.0000 O   0  0  0  0  0  0  0  0  0  0  0  0
    4.5981    5.6615    0.0000 O   0  0  0  0  0  0  0  0  0  0  0  0
    2.8660    5.6615    0.0000 O   0  0  0  0  0  0  0  0  0  0  0  0
    8.9757   -1.9317    0.0000 N   0  0  0  0  0  0  0  0  0  0  0  0
    6.3301   -2.3385    0.0000 N   0  0  0  0  0  0  0  0  0  0  0  0
   10.3426    0.3336    0.0000 N   0  0  0  0  0  0  0  0  0  0  0  0
    4.5981   -0.3385    0.0000 N   0  0  0  0  0  0  0  0  0  0  0  0
    9.1448   -3.5409    0.0000 C   0  0  2  0  0  0  0  0  0  0  0  0
    9.5516   -4.4544    0.0000 C   0  0  0  0  0  0  0  0  0  0  0  0
    8.1667   -3.3330    0.0000 C   0  0  0  0  0  0  0  0  0  0  0  0
    9.6448   -2.6749    0.0000 C   0  0  0  0  0  0  0  0  0  0  0  0
    8.0622   -2.3385    0.0000 C   0  0  1  0  0  0  0  0  0  0  0  0
   10.5461   -4.5590    0.0000 C   0  0  0  0  0  0  0  0  0  0  0  0
    8.9638   -5.2635    0.0000 C   0  0  0  0  0  0  0  0  0  0  0  0
   10.9528   -5.4725    0.0000 C   0  0  0  0  0  0  0  0  0  0  0  0
    9.3705   -6.1770    0.0000 C   0  0  0  0  0  0  0  0  0  0  0  0
   10.3651   -6.2815    0.0000 C   0  0  0  0  0  0  0  0  0  0  0  0
    9.1836   -0.9536    0.0000 C   0  0  0  0  0  0  0  0  0  0  0  0
    7.1962   -1.8385    0.0000 C   0  0  0  0  0  0  0  0  0  0  0  0
   10.1347   -0.6446    0.0000 C   0  0  2  0  0  0  0  0  0  0  0  0
   10.8778   -1.3137    0.0000 C   0  0  0  0  0  0  0  0  0  0  0  0
    5.4641   -1.8385    0.0000 C   0  0  1  0  0  0  0  0  0  0  0  0
   11.8289   -1.0047    0.0000 C   0  0  0  0  0  0  0  0  0  0  0  0
   10.6699   -2.2918    0.0000 C   0  0  0  0  0  0  0  0  0  0  0  0
    4.5981   -2.3385    0.0000 C   0  0  0  0  0  0  0  0  0  0  0  0
    5.4641   -0.8385    0.0000 C   0  0  0  0  0  0  0  0  0  0  0  0
   11.2937    0.6426    0.0000 C   0  0  0  0  0  0  0  0  0  0  0  0
    4.5981   -3.3385    0.0000 C   0  0  0  0  0  0  0  0  0  0  0  0
    4.5981    0.6615    0.0000 C   0  0  0  0  0  0  0  0  0  0  0  0
   12.4526    1.9298    0.0000 C   0  0  0  0  0  0  0  0  0  0  0  0
    3.7320    1.1615    0.0000 C   0  0  0  0  0  0  0  0  0  0  0  0
   12.6605    2.9079    0.0000 C   0  0  0  0  0  0  0  0  0  0  0  0
    3.7320    2.1615    0.0000 C   0  0  0  0  0  0  0  0  0  0  0  0
   13.6116    3.2169    0.0000 C   0  0  0  0  0  0  0  0  0  0  0  0
   11.9174    3.5770    0.0000 C   0  0  0  0  0  0  0  0  0  0  0  0
    2.8660    2.6615    0.0000 C   0  0  0  0  0  0  0  0  0  0  0  0
    4.5981    2.6615    0.0000 C   0  0  0  0  0  0  0  0  0  0  0  0
    2.8660    3.6615    0.0000 C   0  0  0  0  0  0  0  0  0  0  0  0
    4.5981    3.6615    0.0000 C   0  0  0  0  0  0  0  0  0  0  0  0
    3.7320    4.1615    0.0000 C   0  0  0  0  0  0  0  0  0  0  0  0
    3.7320    5.1615    0.0000 C   0  0  0  0  0  0  0  0  0  0  0  0
    8.6099   -4.2015    0.0000 H   0  0  0  0  0  0  0  0  0  0  0  0
    9.9160   -3.9528    0.0000 H   0  0  0  0  0  0  0  0  0  0  0  0
    7.5467   -3.3330    0.0000 H   0  0  0  0  0  0  0  0  0  0  0  0
    8.1019   -3.9496    0.0000 H   0  0  0  0  0  0  0  0  0  0  0  0
   10.1464   -3.0393    0.0000 H   0  0  0  0  0  0  0  0  0  0  0  0
   10.0597   -2.2141    0.0000 H   0  0  0  0  0  0  0  0  0  0  0  0
    8.0946   -1.7193    0.0000 H   0  0  0  0  0  0  0  0  0  0  0  0
   11.1477   -4.4090    0.0000 H   0  0  0  0  0  0  0  0  0  0  0  0
   10.5029   -3.9405    0.0000 H   0  0  0  0  0  0  0  0  0  0  0  0
    8.5331   -4.8175    0.0000 H   0  0  0  0  0  0  0  0  0  0  0  0
    8.4498   -5.6102    0.0000 H   0  0  0  0  0  0  0  0  0  0  0  0
   11.3835   -5.9185    0.0000 H   0  0  0  0  0  0  0  0  0  0  0  0
   11.4669   -5.1258    0.0000 H   0  0  0  0  0  0  0  0  0  0  0  0
    8.7690   -6.3270    0.0000 H   0  0  0  0  0  0  0  0  0  0  0  0
    9.4138   -6.7955    0.0000 H   0  0  0  0  0  0  0  0  0  0  0  0
   10.1942   -6.8775    0.0000 H   0  0  0  0  0  0  0  0  0  0  0  0
   10.9223   -6.5533    0.0000 H   0  0  0  0  0  0  0  0  0  0  0  0
    9.6739   -0.2297    0.0000 H   0  0  0  0  0  0  0  0  0  0  0  0
    6.3301   -2.9585    0.0000 H   0  0  0  0  0  0  0  0  0  0  0  0
   11.0067   -0.7072    0.0000 H   0  0  0  0  0  0  0  0  0  0  0  0
    5.4641   -2.4585    0.0000 H   0  0  0  0  0  0  0  0  0  0  0  0
    9.8818    0.7484    0.0000 H   0  0  0  0  0  0  0  0  0  0  0  0
   12.0205   -1.5943    0.0000 H   0  0  0  0  0  0  0  0  0  0  0  0
   12.4185   -0.8131    0.0000 H   0  0  0  0  0  0  0  0  0  0  0  0
   11.6373   -0.4150    0.0000 H   0  0  0  0  0  0  0  0  0  0  0  0
   10.0635   -2.1629    0.0000 H   0  0  0  0  0  0  0  0  0  0  0  0
   10.5410   -2.8983    0.0000 H   0  0  0  0  0  0  0  0  0  0  0  0
   11.2764   -2.4208    0.0000 H   0  0  0  0  0  0  0  0  0  0  0  0
    4.3860   -1.7559    0.0000 H   0  0  0  0  0  0  0  0  0  0  0  0
    3.9875   -2.4461    0.0000 H   0  0  0  0  0  0  0  0  0  0  0  0
    4.5981   -3.9585    0.0000 H   0  0  0  0  0  0  0  0  0  0  0  0
    4.0611   -0.6485    0.0000 H   0  0  0  0  0  0  0  0  0  0  0  0
    5.2087    0.5539    0.0000 H   0  0  0  0  0  0  0  0  0  0  0  0
    4.8101    1.2441    0.0000 H   0  0  0  0  0  0  0  0  0  0  0  0
   12.5389    1.3158    0.0000 H   0  0  0  0  0  0  0  0  0  0  0  0
   13.0723    1.9081    0.0000 H   0  0  0  0  0  0  0  0  0  0  0  0
    3.1215    1.2692    0.0000 H   0  0  0  0  0  0  0  0  0  0  0  0
    3.5200    0.5789    0.0000 H   0  0  0  0  0  0  0  0  0  0  0  0
   12.7894    3.5144    0.0000 H   0  0  0  0  0  0  0  0  0  0  0  0
   13.8032    2.6273    0.0000 H   0  0  0  0  0  0  0  0  0  0  0  0
   14.2013    3.4085    0.0000 H   0  0  0  0  0  0  0  0  0  0  0  0
   13.4200    3.8066    0.0000 H   0  0  0  0  0  0  0  0  0  0  0  0
   12.3323    4.0378    0.0000 H   0  0  0  0  0  0  0  0  0  0  0  0
   11.4566    3.9919    0.0000 H   0  0  0  0  0  0  0  0  0  0  0  0
   11.5025    3.1163    0.0000 H   0  0  0  0  0  0  0  0  0  0  0  0
    5.1350    2.3515    0.0000 H   0  0  0  0  0  0  0  0  0  0  0  0
    2.3291    3.9715    0.0000 H   0  0  0  0  0  0  0  0  0  0  0  0
    5.1350    3.9715    0.0000 H   0  0  0  0  0  0  0  0  0  0  0  0
    4.5981    6.2815    0.0000 H   0  0  0  0  0  0  0  0  0  0  0  0
  1 43  1  0  0  0  0
  2 35  1  0  0  0  0
  3 35  1  0  0  0  0
  4 25  2  0  0  0  0
  5 26  2  0  0  0  0
  6 34  1  0  0  0  0
  6 37  1  0  0  0  0
  7 33  2  0  0  0  0
  8 34  2  0  0  0  0
  9 48  1  0  0  0  0
  9 97  1  0  0  0  0
 10 48  2  0  0  0  0
 11 18  1  0  0  0  0
 11 19  1  0  0  0  0
 11 25  1  0  0  0  0
 12 26  1  0  0  0  0
 29 12  1  1  0  0  0
 12 67  1  0  0  0  0
 27 13  1  1  0  0  0
 13 34  1  0  0  0  0
 13 70  1  0  0  0  0
 14 33  1  0  0  0  0
 14 36  1  0  0  0  0
 14 80  1  0  0  0  0
 15 16  1  0  0  0  0
 15 17  1  0  0  0  0
 15 18  1  0  0  0  0
 15 49  1  1  0  0  0
 16 20  1  0  0  0  0
 16 21  1  0  0  0  0
 16 50  1  0  0  0  0
 17 19  1  0  0  0  0
 17 51  1  0  0  0  0
 17 52  1  0  0  0  0
 18 53  1  0  0  0  0
 18 54  1  0  0  0  0
 19 26  1  1  0  0  0
 19 55  1  0  0  0  0
 20 22  1  0  0  0  0
 20 56  1  0  0  0  0
 20 57  1  0  0  0  0
 21 23  1  0  0  0  0
 21 58  1  0  0  0  0
 21 59  1  0  0  0  0
 22 24  1  0  0  0  0
 22 60  1  0  0  0  0
 22 61  1  0  0  0  0
 23 24  1  0  0  0  0
 23 62  1  0  0  0  0
 23 63  1  0  0  0  0
 24 64  1  0  0  0  0
 24 65  1  0  0  0  0
 25 27  1  0  0  0  0
 27 28  1  0  0  0  0
 27 66  1  0  0  0  0
 28 30  1  0  0  0  0
 28 31  1  0  0  0  0
 28 68  1  0  0  0  0
 29 32  1  0  0  0  0
 29 33  1  0  0  0  0
 29 69  1  0  0  0  0
 30 71  1  0  0  0  0
 30 72  1  0  0  0  0
 30 73  1  0  0  0  0
 31 74  1  0  0  0  0
 31 75  1  0  0  0  0
 31 76  1  0  0  0  0
 32 35  1  0  0  0  0
 32 77  1  0  0  0  0
 32 78  1  0  0  0  0
 35 79  1  0  0  0  0
 36 38  1  0  0  0  0
 36 81  1  0  0  0  0
 36 82  1  0  0  0  0
 37 39  1  0  0  0  0
 37 83  1  0  0  0  0
 37 84  1  0  0  0  0
 38 40  1  0  0  0  0
 38 85  1  0  0  0  0
 38 86  1  0  0  0  0
 39 41  1  0  0  0  0
 39 42  1  0  0  0  0
 39 87  1  0  0  0  0
 40 43  2  0  0  0  0
 40 44  1  0  0  0  0
 41 88  1  0  0  0  0
 41 89  1  0  0  0  0
 41 90  1  0  0  0  0
 42 91  1  0  0  0  0
 42 92  1  0  0  0  0
 42 93  1  0  0  0  0
 43 45  1  0  0  0  0
 44 46  2  0  0  0  0
 44 94  1  0  0  0  0
 45 47  2  0  0  0  0
 45 95  1  0  0  0  0
 46 47  1  0  0  0  0
 46 96  1  0  0  0  0
 47 48  1  0  0  0  0
M  END
> <PUBCHEM_COMPOUND_CID>
507622
> <PUBCHEM_COMPOUND_CANONICALIZED>
1
> <PUBCHEM_CACTVS_COMPLEXITY>
1110
> <PUBCHEM_CACTVS_HBOND_ACCEPTOR>
9
> <PUBCHEM_CACTVS_HBOND_DONOR>
4
> <PUBCHEM_CACTVS_ROTATABLE_BOND>
16
> <PUBCHEM_CACTVS_SUBSKEYS>
AAADcfB/uYAEAAAAAAAAAAAAAAAAAWAAAAAwYAAAAAAAAAABAAAAHwIQCAAADSrhmDYyCIPABgCIAiHSGAACAAAkBQAIiIGICskIZjKBlzGccQAk1gGImYeYyfCOwAAAIAABAACAAABAAAIAAAAAAAAAAA==
> <PUBCHEM_IUPAC_OPENEYE_NAME>
3-chloro-4-[2-[[(2S)-2-[[(2S,4S)-4-cyclohexyl-1-[(2S)-2-(isobutoxycarbonylamino)-3-methyl-butanoyl]pyrrolidine-2-carbonyl]amino]-4,4-difluoro-butanoyl]amino]ethyl]benzoic acid
> <PUBCHEM_IUPAC_CAS_NAME>
3-chloro-4-[2-[[(2S)-2-[[[(2S,4S)-4-cyclohexyl-1-[(2S)-3-methyl-2-[[2-methylpropoxy(oxo)methyl]amino]-1-oxobutyl]-2-pyrrolidinyl]-oxomethyl]amino]-4,4-difluoro-1-oxobutyl]amino]ethyl]benzoic acid
> <PUBCHEM_IUPAC_NAME_MARKUP>
3-chloro-4-[2-[[(2<I>S</I>)-2-[[(2<I>S</I>,4<I>S</I>)-4-cyclohexyl-1-[(2<I>S</I>)-3-methyl-2-(2-methylpropoxycarbonylamino)butanoyl]pyrrolidine-2-carbonyl]amino]-4,4-difluorobutanoyl]amino]ethyl]benzoic acid
> <PUBCHEM_IUPAC_NAME>
3-chloro-4-[2-[[(2S)-2-[[(2S,4S)-4-cyclohexyl-1-[(2S)-3-methyl-2-(2-methylpropoxycarbonylamino)butanoyl]pyrrolidine-2-carbonyl]amino]-4,4-difluorobutanoyl]amino]ethyl]benzoic acid
> <PUBCHEM_IUPAC_SYSTEMATIC_NAME>
3-chloranyl-4-[2-[[(2S)-2-[[(2S,4S)-4-cyclohexyl-1-[(2S)-3-methyl-2-(2-methylpropoxycarbonylamino)butanoyl]pyrrolidin-2-yl]carbonylamino]-4,4-bis(fluoranyl)butanoyl]amino]ethyl]benzoic acid
> <PUBCHEM_IUPAC_TRADITIONAL_NAME>
3-chloro-4-[2-[[(2S)-2-[[(2S,4S)-4-cyclohexyl-1-[(2S)-2-(isobutoxycarbonylamino)-3-methyl-butanoyl]prolyl]amino]-4,4-difluoro-butanoyl]amino]ethyl]benzoic acid
> <PUBCHEM_IUPAC_INCHI>
InChI=1S/C34H49ClF2N4O7/c1-19(2)18-48-34(47)40-29(20(3)4)32(44)41-17-24(21-8-6-5-7-9-21)15-27(41)31(43)39-26(16-28(36)37)30(42)38-13-12-22-10-11-23(33(45)46)14-25(22)35/h10-11,14,19-21,24,26-29H,5-9,12-13,15-18H2,1-4H3,(H,38,42)(H,39,43)(H,40,47)(H,45,46)/t24-,26+,27+,29+/m1/s1
> <PUBCHEM_IUPAC_INCHIKEY>
ZKFNRJXUJFWWIS-BZTWYALFSA-N
> <PUBCHEM_XLOGP3_AA>
7.4
> <PUBCHEM_EXACT_MASS>
698.3257839
> <PUBCHEM_MOLECULAR_FORMULA>
C34H49ClF2N4O7
> <PUBCHEM_MOLECULAR_WEIGHT>
699.2
> <PUBCHEM_OPENEYE_CAN_SMILES>
CC(C)COC(=O)NC(C(C)C)C(=O)N1CC(CC1C(=O)NC(CC(F)F)C(=O)NCCC2=C(C=C(C=C2)C(=O)O)Cl)C3CCCCC3
> <PUBCHEM_OPENEYE_ISO_SMILES>
CC(C)COC(=O)N[C@@H](C(C)C)C(=O)N1C[C@@H](C[C@H]1C(=O)N[C@@H](CC(F)F)C(=O)NCCC2=C(C=C(C=C2)C(=O)O)Cl)C3CCCCC3
> <PUBCHEM_CACTVS_TPSA>
154
> <PUBCHEM_MONOISOTOPIC_WEIGHT>
698.3257839
> <PUBCHEM_TOTAL_CHARGE>
0
> <PUBCHEM_HEAVY_ATOM_COUNT>
48
> <PUBCHEM_ATOM_DEF_STEREO_COUNT>
4
> <PUBCHEM_ATOM_UDEF_STEREO_COUNT>
0
> <PUBCHEM_BOND_DEF_STEREO_COUNT>
0
> <PUBCHEM_BOND_UDEF_STEREO_COUNT>
0
> <PUBCHEM_ISOTOPIC_ATOM_COUNT>
0
> <PUBCHEM_COMPONENT_COUNT>
1
> <PUBCHEM_CACTVS_TAUTO_COUNT>
-1
> <PUBCHEM_COORDINATE_TYPE>
1
5
255
> <PUBCHEM_BONDANNOTATIONS>
29  12  5
27  13  5
15  49  5
19  26  5
40  43  8
40  44  8
43  45  8
44  46  8
45  47  8
46  47  8
$$$$
