507616
  -OEChem-10302200282D
 95 97  0     1  0  0  0  0  0999 V2000
    5.4641    3.3294    0.0000 F   0  0  0  0  0  0  0  0  0  0  0  0
    3.7320    3.3294    0.0000 F   0  0  0  0  0  0  0  0  0  0  0  0
    5.4641   -2.6706    0.0000 F   0  0  0  0  0  0  0  0  0  0  0  0
    2.0000   -2.6706    0.0000 F   0  0  0  0  0  0  0  0  0  0  0  0
    9.5516    3.9454    0.0000 O   0  0  0  0  0  0  0  0  0  0  0  0
    8.4405   -0.2246    0.0000 O   0  0  0  0  0  0  0  0  0  0  0  0
    7.1962    0.3294    0.0000 O   0  0  0  0  0  0  0  0  0  0  0  0
   11.5016   -2.1298    0.0000 O   0  0  0  0  0  0  0  0  0  0  0  0
    6.3301   -0.1706    0.0000 O   0  0  0  0  0  0  0  0  0  0  0  0
   12.0368   -0.4825    0.0000 O   0  0  0  0  0  0  0  0  0  0  0  0
    2.8660   -6.1706    0.0000 O   0  0  0  0  0  0  0  0  0  0  0  0
    4.5981   -6.1706    0.0000 O   0  0  0  0  0  0  0  0  0  0  0  0
    8.9757    1.4227    0.0000 N   0  0  0  0  0  0  0  0  0  0  0  0
    6.3301    1.8294    0.0000 N   0  0  0  0  0  0  0  0  0  0  0  0
   10.3426   -0.8426    0.0000 N   0  0  0  0  0  0  0  0  0  0  0  0
    4.5981   -0.1706    0.0000 N   0  0  0  0  0  0  0  0  0  0  0  0
    8.0622    1.8294    0.0000 C   0  0  1  0  0  0  0  0  0  0  0  0
    9.1448    3.0319    0.0000 C   0  0  2  0  0  0  0  0  0  0  0  0
    8.1667    2.8240    0.0000 C   0  0  0  0  0  0  0  0  0  0  0  0
    9.6448    2.1658    0.0000 C   0  0  0  0  0  0  0  0  0  0  0  0
    9.1836    0.4445    0.0000 C   0  0  0  0  0  0  0  0  0  0  0  0
   10.1347    0.1355    0.0000 C   0  0  2  0  0  0  0  0  0  0  0  0
    7.1962    1.3294    0.0000 C   0  0  0  0  0  0  0  0  0  0  0  0
   10.8778    0.8047    0.0000 C   0  0  0  0  0  0  0  0  0  0  0  0
   10.5461    4.0499    0.0000 C   0  0  0  0  0  0  0  0  0  0  0  0
    5.4641    1.3294    0.0000 C   0  0  1  0  0  0  0  0  0  0  0  0
   11.8289    0.4956    0.0000 C   0  0  0  0  0  0  0  0  0  0  0  0
   10.6699    1.7828    0.0000 C   0  0  0  0  0  0  0  0  0  0  0  0
    4.5981    1.8294    0.0000 C   0  0  0  0  0  0  0  0  0  0  0  0
   10.9528    4.9635    0.0000 C   0  0  0  0  0  0  0  0  0  0  0  0
    5.4641    0.3294    0.0000 C   0  0  0  0  0  0  0  0  0  0  0  0
   11.2937   -1.1516    0.0000 C   0  0  0  0  0  0  0  0  0  0  0  0
    4.5981    2.8294    0.0000 C   0  0  0  0  0  0  0  0  0  0  0  0
   11.9474    5.0680    0.0000 C   0  0  0  0  0  0  0  0  0  0  0  0
   10.3651    5.7725    0.0000 C   0  0  0  0  0  0  0  0  0  0  0  0
    4.5981   -1.1706    0.0000 C   0  0  0  0  0  0  0  0  0  0  0  0
   12.4526   -2.4388    0.0000 C   0  0  0  0  0  0  0  0  0  0  0  0
   12.3541    5.9816    0.0000 C   0  0  0  0  0  0  0  0  0  0  0  0
   10.7718    6.6860    0.0000 C   0  0  0  0  0  0  0  0  0  0  0  0
    3.7320   -1.6706    0.0000 C   0  0  0  0  0  0  0  0  0  0  0  0
   12.6605   -3.4170    0.0000 C   0  0  0  0  0  0  0  0  0  0  0  0
   11.7663    6.7906    0.0000 C   0  0  0  0  0  0  0  0  0  0  0  0
    3.7320   -2.6706    0.0000 C   0  0  0  0  0  0  0  0  0  0  0  0
   13.6116   -3.7260    0.0000 C   0  0  0  0  0  0  0  0  0  0  0  0
   11.9174   -4.0861    0.0000 C   0  0  0  0  0  0  0  0  0  0  0  0
    4.5981   -3.1706    0.0000 C   0  0  0  0  0  0  0  0  0  0  0  0
    2.8660   -3.1706    0.0000 C   0  0  0  0  0  0  0  0  0  0  0  0
    4.5981   -4.1706    0.0000 C   0  0  0  0  0  0  0  0  0  0  0  0
    2.8660   -4.1706    0.0000 C   0  0  0  0  0  0  0  0  0  0  0  0
    3.7320   -4.6706    0.0000 C   0  0  0  0  0  0  0  0  0  0  0  0
    3.7320   -5.6706    0.0000 C   0  0  0  0  0  0  0  0  0  0  0  0
    8.0946    1.2103    0.0000 H   0  0  0  0  0  0  0  0  0  0  0  0
    8.7547    3.5137    0.0000 H   0  0  0  0  0  0  0  0  0  0  0  0
    8.1019    3.4406    0.0000 H   0  0  0  0  0  0  0  0  0  0  0  0
    7.5467    2.8240    0.0000 H   0  0  0  0  0  0  0  0  0  0  0  0
   10.0597    1.7051    0.0000 H   0  0  0  0  0  0  0  0  0  0  0  0
   10.1464    2.5303    0.0000 H   0  0  0  0  0  0  0  0  0  0  0  0
    9.6739   -0.2793    0.0000 H   0  0  0  0  0  0  0  0  0  0  0  0
   11.0067    0.1982    0.0000 H   0  0  0  0  0  0  0  0  0  0  0  0
    6.3301    2.4494    0.0000 H   0  0  0  0  0  0  0  0  0  0  0  0
   10.5029    3.4314    0.0000 H   0  0  0  0  0  0  0  0  0  0  0  0
   11.1477    3.8999    0.0000 H   0  0  0  0  0  0  0  0  0  0  0  0
    5.4641    1.9494    0.0000 H   0  0  0  0  0  0  0  0  0  0  0  0
    9.8818   -1.2575    0.0000 H   0  0  0  0  0  0  0  0  0  0  0  0
   11.6373   -0.0940    0.0000 H   0  0  0  0  0  0  0  0  0  0  0  0
   12.4185    0.3040    0.0000 H   0  0  0  0  0  0  0  0  0  0  0  0
   12.0205    1.0853    0.0000 H   0  0  0  0  0  0  0  0  0  0  0  0
   11.2764    1.9117    0.0000 H   0  0  0  0  0  0  0  0  0  0  0  0
   10.5410    2.3893    0.0000 H   0  0  0  0  0  0  0  0  0  0  0  0
   10.0635    1.6539    0.0000 H   0  0  0  0  0  0  0  0  0  0  0  0
    3.9875    1.9371    0.0000 H   0  0  0  0  0  0  0  0  0  0  0  0
    4.3860    1.2468    0.0000 H   0  0  0  0  0  0  0  0  0  0  0  0
    4.5981    3.4494    0.0000 H   0  0  0  0  0  0  0  0  0  0  0  0
   12.3118    4.5664    0.0000 H   0  0  0  0  0  0  0  0  0  0  0  0
    9.7485    5.7077    0.0000 H   0  0  0  0  0  0  0  0  0  0  0  0
    4.0611    0.1394    0.0000 H   0  0  0  0  0  0  0  0  0  0  0  0
    4.8101   -1.7532    0.0000 H   0  0  0  0  0  0  0  0  0  0  0  0
    5.2087   -1.0629    0.0000 H   0  0  0  0  0  0  0  0  0  0  0  0
   13.0723   -2.4172    0.0000 H   0  0  0  0  0  0  0  0  0  0  0  0
   12.5389   -1.8248    0.0000 H   0  0  0  0  0  0  0  0  0  0  0  0
   12.9707    6.0464    0.0000 H   0  0  0  0  0  0  0  0  0  0  0  0
   10.4074    7.1876    0.0000 H   0  0  0  0  0  0  0  0  0  0  0  0
    3.5200   -1.0880    0.0000 H   0  0  0  0  0  0  0  0  0  0  0  0
    3.1215   -1.7782    0.0000 H   0  0  0  0  0  0  0  0  0  0  0  0
   12.7894   -4.0234    0.0000 H   0  0  0  0  0  0  0  0  0  0  0  0
   12.0185    7.3570    0.0000 H   0  0  0  0  0  0  0  0  0  0  0  0
   13.4200   -4.3156    0.0000 H   0  0  0  0  0  0  0  0  0  0  0  0
   14.2013   -3.9176    0.0000 H   0  0  0  0  0  0  0  0  0  0  0  0
   13.8032   -3.1363    0.0000 H   0  0  0  0  0  0  0  0  0  0  0  0
   11.5025   -3.6253    0.0000 H   0  0  0  0  0  0  0  0  0  0  0  0
   11.4566   -4.5009    0.0000 H   0  0  0  0  0  0  0  0  0  0  0  0
   12.3323   -4.5468    0.0000 H   0  0  0  0  0  0  0  0  0  0  0  0
    5.1350   -4.4806    0.0000 H   0  0  0  0  0  0  0  0  0  0  0  0
    2.3291   -4.4806    0.0000 H   0  0  0  0  0  0  0  0  0  0  0  0
    2.8660   -6.7906    0.0000 H   0  0  0  0  0  0  0  0  0  0  0  0
  1 33  1  0  0  0  0
  2 33  1  0  0  0  0
  3 46  1  0  0  0  0
  4 47  1  0  0  0  0
 18  5  1  1  0  0  0
  5 25  1  0  0  0  0
  6 21  2  0  0  0  0
  7 23  2  0  0  0  0
  8 32  1  0  0  0  0
  8 37  1  0  0  0  0
  9 31  2  0  0  0  0
 10 32  2  0  0  0  0
 11 51  1  0  0  0  0
 11 95  1  0  0  0  0
 12 51  2  0  0  0  0
 13 17  1  0  0  0  0
 13 20  1  0  0  0  0
 13 21  1  0  0  0  0
 14 23  1  0  0  0  0
 26 14  1  6  0  0  0
 14 60  1  0  0  0  0
 22 15  1  6  0  0  0
 15 32  1  0  0  0  0
 15 64  1  0  0  0  0
 16 31  1  0  0  0  0
 16 36  1  0  0  0  0
 16 76  1  0  0  0  0
 17 19  1  0  0  0  0
 17 23  1  6  0  0  0
 17 52  1  0  0  0  0
 18 19  1  0  0  0  0
 18 20  1  0  0  0  0
 18 53  1  0  0  0  0
 19 54  1  0  0  0  0
 19 55  1  0  0  0  0
 20 56  1  0  0  0  0
 20 57  1  0  0  0  0
 21 22  1  0  0  0  0
 22 24  1  0  0  0  0
 22 58  1  0  0  0  0
 24 27  1  0  0  0  0
 24 28  1  0  0  0  0
 24 59  1  0  0  0  0
 25 30  1  0  0  0  0
 25 61  1  0  0  0  0
 25 62  1  0  0  0  0
 26 29  1  0  0  0  0
 26 31  1  0  0  0  0
 26 63  1  0  0  0  0
 27 65  1  0  0  0  0
 27 66  1  0  0  0  0
 27 67  1  0  0  0  0
 28 68  1  0  0  0  0
 28 69  1  0  0  0  0
 28 70  1  0  0  0  0
 29 33  1  0  0  0  0
 29 71  1  0  0  0  0
 29 72  1  0  0  0  0
 30 34  2  0  0  0  0
 30 35  1  0  0  0  0
 33 73  1  0  0  0  0
 34 38  1  0  0  0  0
 34 74  1  0  0  0  0
 35 39  2  0  0  0  0
 35 75  1  0  0  0  0
 36 40  1  0  0  0  0
 36 77  1  0  0  0  0
 36 78  1  0  0  0  0
 37 41  1  0  0  0  0
 37 79  1  0  0  0  0
 37 80  1  0  0  0  0
 38 42  2  0  0  0  0
 38 81  1  0  0  0  0
 39 42  1  0  0  0  0
 39 82  1  0  0  0  0
 40 43  1  0  0  0  0
 40 83  1  0  0  0  0
 40 84  1  0  0  0  0
 41 44  1  0  0  0  0
 41 45  1  0  0  0  0
 41 85  1  0  0  0  0
 42 86  1  0  0  0  0
 43 46  2  0  0  0  0
 43 47  1  0  0  0  0
 44 87  1  0  0  0  0
 44 88  1  0  0  0  0
 44 89  1  0  0  0  0
 45 90  1  0  0  0  0
 45 91  1  0  0  0  0
 45 92  1  0  0  0  0
 46 48  1  0  0  0  0
 47 49  2  0  0  0  0
 48 50  2  0  0  0  0
 48 93  1  0  0  0  0
 49 50  1  0  0  0  0
 49 94  1  0  0  0  0
 50 51  1  0  0  0  0
M  END
> <PUBCHEM_COMPOUND_CID>
507616
> <PUBCHEM_COMPOUND_CANONICALIZED>
1
> <PUBCHEM_CACTVS_COMPLEXITY>
1160
> <PUBCHEM_CACTVS_HBOND_ACCEPTOR>
12
> <PUBCHEM_CACTVS_HBOND_DONOR>
4
> <PUBCHEM_CACTVS_ROTATABLE_BOND>
18
> <PUBCHEM_CACTVS_SUBSKEYS>
AAADcfB/vcAAAAAAAAAAAAAAAAAAAWAAAAAwYAAAAAAAAAABQAAAHwAQCAAADTzhmB4yCIPABgCIAiHSGAACAAAkAAAIiIGICMkKZjKAtTmfcQAm1gGYuYe6yfCOQAAAAAAAAACAAAAAAAAAAAAAAAAAAA==
> <PUBCHEM_IUPAC_OPENEYE_NAME>
4-[2-[[(2S)-2-[[(2S,4R)-4-benzyloxy-1-[(2S)-2-(isobutoxycarbonylamino)-3-methyl-butanoyl]pyrrolidine-2-carbonyl]amino]-4,4-difluoro-butanoyl]amino]ethyl]-3,5-difluoro-benzoic acid
> <PUBCHEM_IUPAC_CAS_NAME>
4-[2-[[(2S)-4,4-difluoro-2-[[[(2S,4R)-1-[(2S)-3-methyl-2-[[2-methylpropoxy(oxo)methyl]amino]-1-oxobutyl]-4-phenylmethoxy-2-pyrrolidinyl]-oxomethyl]amino]-1-oxobutyl]amino]ethyl]-3,5-difluorobenzoic acid
> <PUBCHEM_IUPAC_NAME_MARKUP>
4-[2-[[(2<I>S</I>)-4,4-difluoro-2-[[(2<I>S</I>,4<I>R</I>)-1-[(2<I>S</I>)-3-methyl-2-(2-methylpropoxycarbonylamino)butanoyl]-4-phenylmethoxypyrrolidine-2-carbonyl]amino]butanoyl]amino]ethyl]-3,5-difluorobenzoic acid
> <PUBCHEM_IUPAC_NAME>
4-[2-[[(2S)-4,4-difluoro-2-[[(2S,4R)-1-[(2S)-3-methyl-2-(2-methylpropoxycarbonylamino)butanoyl]-4-phenylmethoxypyrrolidine-2-carbonyl]amino]butanoyl]amino]ethyl]-3,5-difluorobenzoic acid
> <PUBCHEM_IUPAC_SYSTEMATIC_NAME>
4-[2-[[(2S)-4,4-bis(fluoranyl)-2-[[(2S,4R)-1-[(2S)-3-methyl-2-(2-methylpropoxycarbonylamino)butanoyl]-4-phenylmethoxy-pyrrolidin-2-yl]carbonylamino]butanoyl]amino]ethyl]-3,5-bis(fluoranyl)benzoic acid
> <PUBCHEM_IUPAC_TRADITIONAL_NAME>
4-[2-[[(2S)-2-[[(2S,4R)-4-benzoxy-1-[(2S)-2-(isobutoxycarbonylamino)-3-methyl-butanoyl]prolyl]amino]-4,4-difluoro-butanoyl]amino]ethyl]-3,5-difluoro-benzoic acid
> <PUBCHEM_IUPAC_INCHI>
InChI=1S/C35H44F4N4O8/c1-19(2)17-51-35(49)42-30(20(3)4)33(46)43-16-23(50-18-21-8-6-5-7-9-21)14-28(43)32(45)41-27(15-29(38)39)31(44)40-11-10-24-25(36)12-22(34(47)48)13-26(24)37/h5-9,12-13,19-20,23,27-30H,10-11,14-18H2,1-4H3,(H,40,44)(H,41,45)(H,42,49)(H,47,48)/t23-,27+,28+,30+/m1/s1
> <PUBCHEM_IUPAC_INCHIKEY>
HEPRFYCVWWRMAE-PBNCGBIJSA-N
> <PUBCHEM_XLOGP3_AA>
5.4
> <PUBCHEM_EXACT_MASS>
724.30952702
> <PUBCHEM_MOLECULAR_FORMULA>
C35H44F4N4O8
> <PUBCHEM_MOLECULAR_WEIGHT>
724.7
> <PUBCHEM_OPENEYE_CAN_SMILES>
CC(C)COC(=O)NC(C(C)C)C(=O)N1CC(CC1C(=O)NC(CC(F)F)C(=O)NCCC2=C(C=C(C=C2F)C(=O)O)F)OCC3=CC=CC=C3
> <PUBCHEM_OPENEYE_ISO_SMILES>
CC(C)COC(=O)N[C@@H](C(C)C)C(=O)N1C[C@@H](C[C@H]1C(=O)N[C@@H](CC(F)F)C(=O)NCCC2=C(C=C(C=C2F)C(=O)O)F)OCC3=CC=CC=C3
> <PUBCHEM_CACTVS_TPSA>
163
> <PUBCHEM_MONOISOTOPIC_WEIGHT>
724.30952702
> <PUBCHEM_TOTAL_CHARGE>
0
> <PUBCHEM_HEAVY_ATOM_COUNT>
51
> <PUBCHEM_ATOM_DEF_STEREO_COUNT>
4
> <PUBCHEM_ATOM_UDEF_STEREO_COUNT>
0
> <PUBCHEM_BOND_DEF_STEREO_COUNT>
0
> <PUBCHEM_BOND_UDEF_STEREO_COUNT>
0
> <PUBCHEM_ISOTOPIC_ATOM_COUNT>
0
> <PUBCHEM_COMPONENT_COUNT>
1
> <PUBCHEM_CACTVS_TAUTO_COUNT>
-1
> <PUBCHEM_COORDINATE_TYPE>
1
5
255
> <PUBCHEM_BONDANNOTATIONS>
26  14  6
22  15  6
17  23  6
30  34  8
30  35  8
34  38  8
35  39  8
38  42  8
39  42  8
43  46  8
43  47  8
46  48  8
47  49  8
48  50  8
49  50  8
18  5  5
$$$$
