507678
  -OEChem-10302200282D
 79 81  0     1  0  0  0  0  0999 V2000
    5.4641    3.3294    0.0000 F   0  0  0  0  0  0  0  0  0  0  0  0
    3.7320    3.3294    0.0000 F   0  0  0  0  0  0  0  0  0  0  0  0
    2.0000   -2.6706    0.0000 F   0  0  0  0  0  0  0  0  0  0  0  0
    5.4641   -2.6706    0.0000 F   0  0  0  0  0  0  0  0  0  0  0  0
    9.5516    3.9454    0.0000 O   0  0  0  0  0  0  0  0  0  0  0  0
    7.1962    0.3294    0.0000 O   0  0  0  0  0  0  0  0  0  0  0  0
    8.4405   -0.2246    0.0000 O   0  0  0  0  0  0  0  0  0  0  0  0
   10.8778    0.8047    0.0000 O   0  0  0  0  0  0  0  0  0  0  0  0
    6.3301   -0.1706    0.0000 O   0  0  0  0  0  0  0  0  0  0  0  0
    2.8660   -6.1706    0.0000 O   0  0  0  0  0  0  0  0  0  0  0  0
    4.5981   -6.1706    0.0000 O   0  0  0  0  0  0  0  0  0  0  0  0
    8.9757    1.4227    0.0000 N   0  0  0  0  0  0  0  0  0  0  0  0
    6.3301    1.8294    0.0000 N   0  0  0  0  0  0  0  0  0  0  0  0
    4.5981   -0.1706    0.0000 N   0  0  0  0  0  0  0  0  0  0  0  0
    8.0622    1.8294    0.0000 C   0  0  3  0  0  0  0  0  0  0  0  0
    9.1448    3.0319    0.0000 C   0  0  2  0  0  0  0  0  0  0  0  0
    8.1667    2.8240    0.0000 C   0  0  0  0  0  0  0  0  0  0  0  0
    9.6448    2.1658    0.0000 C   0  0  0  0  0  0  0  0  0  0  0  0
    7.1962    1.3294    0.0000 C   0  0  0  0  0  0  0  0  0  0  0  0
    9.1836    0.4445    0.0000 C   0  0  0  0  0  0  0  0  0  0  0  0
   10.1347    0.1355    0.0000 C   0  0  2  0  0  0  0  0  0  0  0  0
   10.3426   -0.8426    0.0000 C   0  0  0  0  0  0  0  0  0  0  0  0
    5.4641    1.3294    0.0000 C   0  0  1  0  0  0  0  0  0  0  0  0
   10.5461    4.0499    0.0000 C   0  0  0  0  0  0  0  0  0  0  0  0
   11.2937   -1.1516    0.0000 C   0  0  0  0  0  0  0  0  0  0  0  0
    9.5995   -1.5118    0.0000 C   0  0  0  0  0  0  0  0  0  0  0  0
    4.5981    1.8294    0.0000 C   0  0  0  0  0  0  0  0  0  0  0  0
   10.9528    4.9635    0.0000 C   0  0  0  0  0  0  0  0  0  0  0  0
    5.4641    0.3294    0.0000 C   0  0  0  0  0  0  0  0  0  0  0  0
    4.5981    2.8294    0.0000 C   0  0  0  0  0  0  0  0  0  0  0  0
   11.9474    5.0680    0.0000 C   0  0  0  0  0  0  0  0  0  0  0  0
   10.3651    5.7725    0.0000 C   0  0  0  0  0  0  0  0  0  0  0  0
    4.5981   -1.1706    0.0000 C   0  0  0  0  0  0  0  0  0  0  0  0
    3.7320   -1.6706    0.0000 C   0  0  0  0  0  0  0  0  0  0  0  0
   12.3541    5.9816    0.0000 C   0  0  0  0  0  0  0  0  0  0  0  0
   10.7718    6.6860    0.0000 C   0  0  0  0  0  0  0  0  0  0  0  0
   11.7663    6.7906    0.0000 C   0  0  0  0  0  0  0  0  0  0  0  0
    3.7320   -2.6706    0.0000 C   0  0  0  0  0  0  0  0  0  0  0  0
    2.8660   -3.1706    0.0000 C   0  0  0  0  0  0  0  0  0  0  0  0
    4.5981   -3.1706    0.0000 C   0  0  0  0  0  0  0  0  0  0  0  0
    2.8660   -4.1706    0.0000 C   0  0  0  0  0  0  0  0  0  0  0  0
    4.5981   -4.1706    0.0000 C   0  0  0  0  0  0  0  0  0  0  0  0
    3.7320   -4.6706    0.0000 C   0  0  0  0  0  0  0  0  0  0  0  0
    3.7320   -5.6706    0.0000 C   0  0  0  0  0  0  0  0  0  0  0  0
    8.0946    1.2103    0.0000 H   0  0  0  0  0  0  0  0  0  0  0  0
    8.7547    3.5137    0.0000 H   0  0  0  0  0  0  0  0  0  0  0  0
    8.1019    3.4406    0.0000 H   0  0  0  0  0  0  0  0  0  0  0  0
    7.5467    2.8240    0.0000 H   0  0  0  0  0  0  0  0  0  0  0  0
   10.0597    1.7051    0.0000 H   0  0  0  0  0  0  0  0  0  0  0  0
   10.1464    2.5303    0.0000 H   0  0  0  0  0  0  0  0  0  0  0  0
   10.0058    0.7420    0.0000 H   0  0  0  0  0  0  0  0  0  0  0  0
    9.7530   -0.6510    0.0000 H   0  0  0  0  0  0  0  0  0  0  0  0
    6.3301    2.4494    0.0000 H   0  0  0  0  0  0  0  0  0  0  0  0
    5.4641    1.9494    0.0000 H   0  0  0  0  0  0  0  0  0  0  0  0
   10.5029    3.4314    0.0000 H   0  0  0  0  0  0  0  0  0  0  0  0
   11.1477    3.8999    0.0000 H   0  0  0  0  0  0  0  0  0  0  0  0
   11.1021   -1.7413    0.0000 H   0  0  0  0  0  0  0  0  0  0  0  0
   11.8833   -1.3432    0.0000 H   0  0  0  0  0  0  0  0  0  0  0  0
   11.4853   -0.5620    0.0000 H   0  0  0  0  0  0  0  0  0  0  0  0
    9.1846   -1.0510    0.0000 H   0  0  0  0  0  0  0  0  0  0  0  0
    9.1387   -1.9266    0.0000 H   0  0  0  0  0  0  0  0  0  0  0  0
   10.0143   -1.9725    0.0000 H   0  0  0  0  0  0  0  0  0  0  0  0
    3.9875    1.9371    0.0000 H   0  0  0  0  0  0  0  0  0  0  0  0
    4.3860    1.2468    0.0000 H   0  0  0  0  0  0  0  0  0  0  0  0
   11.4675    0.6131    0.0000 H   0  0  0  0  0  0  0  0  0  0  0  0
    4.5981    3.4494    0.0000 H   0  0  0  0  0  0  0  0  0  0  0  0
    4.0611    0.1394    0.0000 H   0  0  0  0  0  0  0  0  0  0  0  0
   12.3118    4.5664    0.0000 H   0  0  0  0  0  0  0  0  0  0  0  0
    9.7485    5.7077    0.0000 H   0  0  0  0  0  0  0  0  0  0  0  0
    4.8101   -1.7532    0.0000 H   0  0  0  0  0  0  0  0  0  0  0  0
    5.2087   -1.0629    0.0000 H   0  0  0  0  0  0  0  0  0  0  0  0
    3.5200   -1.0880    0.0000 H   0  0  0  0  0  0  0  0  0  0  0  0
    3.1215   -1.7782    0.0000 H   0  0  0  0  0  0  0  0  0  0  0  0
   12.9707    6.0464    0.0000 H   0  0  0  0  0  0  0  0  0  0  0  0
   10.4074    7.1876    0.0000 H   0  0  0  0  0  0  0  0  0  0  0  0
   12.0185    7.3570    0.0000 H   0  0  0  0  0  0  0  0  0  0  0  0
    2.3291   -4.4806    0.0000 H   0  0  0  0  0  0  0  0  0  0  0  0
    5.1350   -4.4806    0.0000 H   0  0  0  0  0  0  0  0  0  0  0  0
    2.8660   -6.7906    0.0000 H   0  0  0  0  0  0  0  0  0  0  0  0
  1 30  1  0  0  0  0
  2 30  1  0  0  0  0
  3 39  1  0  0  0  0
  4 40  1  0  0  0  0
 16  5  1  1  0  0  0
  5 24  1  0  0  0  0
  6 19  2  0  0  0  0
  7 20  2  0  0  0  0
 21  8  1  1  0  0  0
  8 65  1  0  0  0  0
  9 29  2  0  0  0  0
 10 44  1  0  0  0  0
 10 79  1  0  0  0  0
 11 44  2  0  0  0  0
 12 15  1  0  0  0  0
 12 18  1  0  0  0  0
 12 20  1  0  0  0  0
 13 19  1  0  0  0  0
 23 13  1  6  0  0  0
 13 53  1  0  0  0  0
 14 29  1  0  0  0  0
 14 33  1  0  0  0  0
 14 67  1  0  0  0  0
 15 17  1  0  0  0  0
 15 19  1  0  0  0  0
 15 45  1  0  0  0  0
 16 17  1  0  0  0  0
 16 18  1  0  0  0  0
 16 46  1  0  0  0  0
 17 47  1  0  0  0  0
 17 48  1  0  0  0  0
 18 49  1  0  0  0  0
 18 50  1  0  0  0  0
 20 21  1  0  0  0  0
 21 22  1  0  0  0  0
 21 51  1  0  0  0  0
 22 25  1  0  0  0  0
 22 26  1  0  0  0  0
 22 52  1  0  0  0  0
 23 27  1  0  0  0  0
 23 29  1  0  0  0  0
 23 54  1  0  0  0  0
 24 28  1  0  0  0  0
 24 55  1  0  0  0  0
 24 56  1  0  0  0  0
 25 57  1  0  0  0  0
 25 58  1  0  0  0  0
 25 59  1  0  0  0  0
 26 60  1  0  0  0  0
 26 61  1  0  0  0  0
 26 62  1  0  0  0  0
 27 30  1  0  0  0  0
 27 63  1  0  0  0  0
 27 64  1  0  0  0  0
 28 31  2  0  0  0  0
 28 32  1  0  0  0  0
 30 66  1  0  0  0  0
 31 35  1  0  0  0  0
 31 68  1  0  0  0  0
 32 36  2  0  0  0  0
 32 69  1  0  0  0  0
 33 34  1  0  0  0  0
 33 70  1  0  0  0  0
 33 71  1  0  0  0  0
 34 38  1  0  0  0  0
 34 72  1  0  0  0  0
 34 73  1  0  0  0  0
 35 37  2  0  0  0  0
 35 74  1  0  0  0  0
 36 37  1  0  0  0  0
 36 75  1  0  0  0  0
 37 76  1  0  0  0  0
 38 39  2  0  0  0  0
 38 40  1  0  0  0  0
 39 41  1  0  0  0  0
 40 42  2  0  0  0  0
 41 43  2  0  0  0  0
 41 77  1  0  0  0  0
 42 43  1  0  0  0  0
 42 78  1  0  0  0  0
 43 44  1  0  0  0  0
M  END
> <PUBCHEM_COMPOUND_CID>
507678
> <PUBCHEM_COMPOUND_CANONICALIZED>
1
> <PUBCHEM_CACTVS_COMPLEXITY>
972
> <PUBCHEM_CACTVS_HBOND_ACCEPTOR>
11
> <PUBCHEM_CACTVS_HBOND_DONOR>
4
> <PUBCHEM_CACTVS_ROTATABLE_BOND>
14
> <PUBCHEM_CACTVS_SUBSKEYS>
AAADcfB7OcAAAAAAAAAAAAAAAAAAAWAAAAAwYAAAAAAAAAABQAAAHwAQCAAADTzhmB4yCIPABgCIAiHSGAICAAAkAAAIiIHICMgKdjKAtTmXcQAm1gGYuYe6yfCOQAAAAAAAAACAAAAAAAAAAAAAAAAAAA==
> <PUBCHEM_IUPAC_OPENEYE_NAME>
4-[2-[[(2S)-2-[[(4R)-4-benzyloxy-1-[(2S)-2-hydroxy-3-methyl-butanoyl]pyrrolidine-2-carbonyl]amino]-4,4-difluoro-butanoyl]amino]ethyl]-3,5-difluoro-benzoic acid
> <PUBCHEM_IUPAC_CAS_NAME>
4-[2-[[(2S)-4,4-difluoro-2-[[[(4R)-1-[(2S)-2-hydroxy-3-methyl-1-oxobutyl]-4-phenylmethoxy-2-pyrrolidinyl]-oxomethyl]amino]-1-oxobutyl]amino]ethyl]-3,5-difluorobenzoic acid
> <PUBCHEM_IUPAC_NAME_MARKUP>
4-[2-[[(2<I>S</I>)-4,4-difluoro-2-[[(4<I>R</I>)-1-[(2<I>S</I>)-2-hydroxy-3-methylbutanoyl]-4-phenylmethoxypyrrolidine-2-carbonyl]amino]butanoyl]amino]ethyl]-3,5-difluorobenzoic acid
> <PUBCHEM_IUPAC_NAME>
4-[2-[[(2S)-4,4-difluoro-2-[[(4R)-1-[(2S)-2-hydroxy-3-methylbutanoyl]-4-phenylmethoxypyrrolidine-2-carbonyl]amino]butanoyl]amino]ethyl]-3,5-difluorobenzoic acid
> <PUBCHEM_IUPAC_SYSTEMATIC_NAME>
4-[2-[[(2S)-4,4-bis(fluoranyl)-2-[[(4R)-1-[(2S)-3-methyl-2-oxidanyl-butanoyl]-4-phenylmethoxy-pyrrolidin-2-yl]carbonylamino]butanoyl]amino]ethyl]-3,5-bis(fluoranyl)benzoic acid
> <PUBCHEM_IUPAC_TRADITIONAL_NAME>
4-[2-[[(2S)-2-[[(4R)-4-benzoxy-1-[(2S)-2-hydroxy-3-methyl-butanoyl]prolyl]amino]-4,4-difluoro-butanoyl]amino]ethyl]-3,5-difluoro-benzoic acid
> <PUBCHEM_IUPAC_INCHI>
InChI=1S/C30H35F4N3O7/c1-16(2)26(38)29(41)37-14-19(44-15-17-6-4-3-5-7-17)12-24(37)28(40)36-23(13-25(33)34)27(39)35-9-8-20-21(31)10-18(30(42)43)11-22(20)32/h3-7,10-11,16,19,23-26,38H,8-9,12-15H2,1-2H3,(H,35,39)(H,36,40)(H,42,43)/t19-,23+,24?,26+/m1/s1
> <PUBCHEM_IUPAC_INCHIKEY>
NTZNXYKQIFHOSQ-KIIQDQBHSA-N
> <PUBCHEM_XLOGP3_AA>
3.6
> <PUBCHEM_EXACT_MASS>
625.24111311
> <PUBCHEM_MOLECULAR_FORMULA>
C30H35F4N3O7
> <PUBCHEM_MOLECULAR_WEIGHT>
625.6
> <PUBCHEM_OPENEYE_CAN_SMILES>
CC(C)C(C(=O)N1CC(CC1C(=O)NC(CC(F)F)C(=O)NCCC2=C(C=C(C=C2F)C(=O)O)F)OCC3=CC=CC=C3)O
> <PUBCHEM_OPENEYE_ISO_SMILES>
CC(C)[C@@H](C(=O)N1C[C@@H](CC1C(=O)N[C@@H](CC(F)F)C(=O)NCCC2=C(C=C(C=C2F)C(=O)O)F)OCC3=CC=CC=C3)O
> <PUBCHEM_CACTVS_TPSA>
145
> <PUBCHEM_MONOISOTOPIC_WEIGHT>
625.24111311
> <PUBCHEM_TOTAL_CHARGE>
0
> <PUBCHEM_HEAVY_ATOM_COUNT>
44
> <PUBCHEM_ATOM_DEF_STEREO_COUNT>
3
> <PUBCHEM_ATOM_UDEF_STEREO_COUNT>
1
> <PUBCHEM_BOND_DEF_STEREO_COUNT>
0
> <PUBCHEM_BOND_UDEF_STEREO_COUNT>
0
> <PUBCHEM_ISOTOPIC_ATOM_COUNT>
0
> <PUBCHEM_COMPONENT_COUNT>
1
> <PUBCHEM_CACTVS_TAUTO_COUNT>
-1
> <PUBCHEM_COORDINATE_TYPE>
1
5
255
> <PUBCHEM_BONDANNOTATIONS>
23  13  6
15  19  3
28  31  8
28  32  8
31  35  8
32  36  8
35  37  8
36  37  8
38  39  8
38  40  8
39  41  8
40  42  8
41  43  8
42  43  8
16  5  5
21  8  5
$$$$
