507726
  -OEChem-10302200282D
 69 71  0     1  0  0  0  0  0999 V2000
    3.7320    1.9510    0.0000 S   0  0  0  0  0  0  0  0  0  0  0  0
    2.8660   -3.5490    0.0000 F   0  0  0  0  0  0  0  0  0  0  0  0
    5.4641    1.9510    0.0000 O   0  0  0  0  0  0  0  0  0  0  0  0
    4.7320    1.9510    0.0000 O   0  0  0  0  0  0  0  0  0  0  0  0
    2.7320    1.9510    0.0000 O   0  0  0  0  0  0  0  0  0  0  0  0
    8.6962    1.8170    0.0000 O   0  0  0  0  0  0  0  0  0  0  0  0
    7.1962    2.6830    0.0000 O   0  0  0  0  0  0  0  0  0  0  0  0
    3.7320    0.9510    0.0000 N   0  0  3  0  0  0  0  0  0  0  0  0
    7.1962    0.9510    0.0000 N   0  0  0  0  0  0  0  0  0  0  0  0
    3.7320    2.9510    0.0000 N   0  0  0  0  0  0  0  0  0  0  0  0
    5.4641    0.9510    0.0000 C   0  0  1  0  0  0  0  0  0  0  0  0
    6.3301    0.4510    0.0000 C   0  0  2  0  0  0  0  0  0  0  0  0
    4.5981    0.4510    0.0000 C   0  0  0  0  0  0  0  0  0  0  0  0
    6.3301   -0.5490    0.0000 C   0  0  0  0  0  0  0  0  0  0  0  0
    2.8660    0.4510    0.0000 C   0  0  0  0  0  0  0  0  0  0  0  0
    7.1962   -1.0490    0.0000 C   0  0  0  0  0  0  0  0  0  0  0  0
    2.8660   -0.5490    0.0000 C   0  0  0  0  0  0  0  0  0  0  0  0
    7.6962    1.8170    0.0000 C   0  0  0  0  0  0  0  0  0  0  0  0
    8.0622   -0.5490    0.0000 C   0  0  0  0  0  0  0  0  0  0  0  0
    7.1962   -2.0490    0.0000 C   0  0  0  0  0  0  0  0  0  0  0  0
    2.8660    3.4510    0.0000 C   0  0  0  0  0  0  0  0  0  0  0  0
    4.5981    3.4510    0.0000 C   0  0  0  0  0  0  0  0  0  0  0  0
    2.0000   -1.0490    0.0000 C   0  0  0  0  0  0  0  0  0  0  0  0
    3.7320   -1.0490    0.0000 C   0  0  0  0  0  0  0  0  0  0  0  0
    8.9282   -1.0490    0.0000 C   0  0  0  0  0  0  0  0  0  0  0  0
    8.0622   -2.5490    0.0000 C   0  0  0  0  0  0  0  0  0  0  0  0
    8.9282   -2.0490    0.0000 C   0  0  0  0  0  0  0  0  0  0  0  0
    2.0000   -2.0490    0.0000 C   0  0  0  0  0  0  0  0  0  0  0  0
    3.7320   -2.0490    0.0000 C   0  0  0  0  0  0  0  0  0  0  0  0
    2.8660   -2.5490    0.0000 C   0  0  0  0  0  0  0  0  0  0  0  0
    9.1962    2.6830    0.0000 C   0  0  0  0  0  0  0  0  0  0  0  0
   10.1962    2.6830    0.0000 C   0  0  0  0  0  0  0  0  0  0  0  0
   10.6962    3.5490    0.0000 C   0  0  0  0  0  0  0  0  0  0  0  0
   10.6962    1.8170    0.0000 C   0  0  0  0  0  0  0  0  0  0  0  0
   11.6962    3.5490    0.0000 C   0  0  0  0  0  0  0  0  0  0  0  0
   11.6962    1.8170    0.0000 C   0  0  0  0  0  0  0  0  0  0  0  0
   12.1962    2.6830    0.0000 C   0  0  0  0  0  0  0  0  0  0  0  0
    6.0010    1.2610    0.0000 H   0  0  0  0  0  0  0  0  0  0  0  0
    6.8671    0.1410    0.0000 H   0  0  0  0  0  0  0  0  0  0  0  0
    4.1996   -0.0240    0.0000 H   0  0  0  0  0  0  0  0  0  0  0  0
    4.9966   -0.0240    0.0000 H   0  0  0  0  0  0  0  0  0  0  0  0
    5.7196   -0.4414    0.0000 H   0  0  0  0  0  0  0  0  0  0  0  0
    6.1181   -1.1316    0.0000 H   0  0  0  0  0  0  0  0  0  0  0  0
    2.6540    1.0336    0.0000 H   0  0  0  0  0  0  0  0  0  0  0  0
    2.2554    0.3433    0.0000 H   0  0  0  0  0  0  0  0  0  0  0  0
    7.7331    0.6410    0.0000 H   0  0  0  0  0  0  0  0  0  0  0  0
    5.7741    2.4879    0.0000 H   0  0  0  0  0  0  0  0  0  0  0  0
    8.0622    0.0710    0.0000 H   0  0  0  0  0  0  0  0  0  0  0  0
    6.6592   -2.3590    0.0000 H   0  0  0  0  0  0  0  0  0  0  0  0
    3.1760    3.9879    0.0000 H   0  0  0  0  0  0  0  0  0  0  0  0
    2.3291    3.7610    0.0000 H   0  0  0  0  0  0  0  0  0  0  0  0
    2.5560    2.9140    0.0000 H   0  0  0  0  0  0  0  0  0  0  0  0
    4.9081    2.9140    0.0000 H   0  0  0  0  0  0  0  0  0  0  0  0
    5.1350    3.7610    0.0000 H   0  0  0  0  0  0  0  0  0  0  0  0
    4.2881    3.9879    0.0000 H   0  0  0  0  0  0  0  0  0  0  0  0
    1.4631   -0.7390    0.0000 H   0  0  0  0  0  0  0  0  0  0  0  0
    4.2690   -0.7390    0.0000 H   0  0  0  0  0  0  0  0  0  0  0  0
    9.4651   -0.7390    0.0000 H   0  0  0  0  0  0  0  0  0  0  0  0
    8.0622   -3.1690    0.0000 H   0  0  0  0  0  0  0  0  0  0  0  0
    9.4651   -2.3590    0.0000 H   0  0  0  0  0  0  0  0  0  0  0  0
    1.4631   -2.3590    0.0000 H   0  0  0  0  0  0  0  0  0  0  0  0
    4.2690   -2.3590    0.0000 H   0  0  0  0  0  0  0  0  0  0  0  0
    9.3038    3.2936    0.0000 H   0  0  0  0  0  0  0  0  0  0  0  0
    8.6135    2.8951    0.0000 H   0  0  0  0  0  0  0  0  0  0  0  0
   10.3862    4.0860    0.0000 H   0  0  0  0  0  0  0  0  0  0  0  0
   10.3862    1.2800    0.0000 H   0  0  0  0  0  0  0  0  0  0  0  0
   12.0062    4.0860    0.0000 H   0  0  0  0  0  0  0  0  0  0  0  0
   12.0062    1.2800    0.0000 H   0  0  0  0  0  0  0  0  0  0  0  0
   12.8162    2.6830    0.0000 H   0  0  0  0  0  0  0  0  0  0  0  0
  1  4  2  0  0  0  0
  1  5  2  0  0  0  0
  1  8  1  0  0  0  0
  1 10  1  0  0  0  0
  2 30  1  0  0  0  0
 11  3  1  1  0  0  0
  3 47  1  0  0  0  0
  6 18  1  0  0  0  0
  6 31  1  0  0  0  0
  7 18  2  0  0  0  0
  8 13  1  0  0  0  0
  8 15  1  0  0  0  0
 12  9  1  1  0  0  0
  9 18  1  0  0  0  0
  9 46  1  0  0  0  0
 10 21  1  0  0  0  0
 10 22  1  0  0  0  0
 11 12  1  0  0  0  0
 11 13  1  0  0  0  0
 11 38  1  0  0  0  0
 12 14  1  0  0  0  0
 12 39  1  0  0  0  0
 13 40  1  0  0  0  0
 13 41  1  0  0  0  0
 14 16  1  0  0  0  0
 14 42  1  0  0  0  0
 14 43  1  0  0  0  0
 15 17  1  0  0  0  0
 15 44  1  0  0  0  0
 15 45  1  0  0  0  0
 16 19  2  0  0  0  0
 16 20  1  0  0  0  0
 17 23  2  0  0  0  0
 17 24  1  0  0  0  0
 19 25  1  0  0  0  0
 19 48  1  0  0  0  0
 20 26  2  0  0  0  0
 20 49  1  0  0  0  0
 21 50  1  0  0  0  0
 21 51  1  0  0  0  0
 21 52  1  0  0  0  0
 22 53  1  0  0  0  0
 22 54  1  0  0  0  0
 22 55  1  0  0  0  0
 23 28  1  0  0  0  0
 23 56  1  0  0  0  0
 24 29  2  0  0  0  0
 24 57  1  0  0  0  0
 25 27  2  0  0  0  0
 25 58  1  0  0  0  0
 26 27  1  0  0  0  0
 26 59  1  0  0  0  0
 27 60  1  0  0  0  0
 28 30  2  0  0  0  0
 28 61  1  0  0  0  0
 29 30  1  0  0  0  0
 29 62  1  0  0  0  0
 31 32  1  0  0  0  0
 31 63  1  0  0  0  0
 31 64  1  0  0  0  0
 32 33  2  0  0  0  0
 32 34  1  0  0  0  0
 33 35  1  0  0  0  0
 33 65  1  0  0  0  0
 34 36  2  0  0  0  0
 34 66  1  0  0  0  0
 35 37  2  0  0  0  0
 35 67  1  0  0  0  0
 36 37  1  0  0  0  0
 36 68  1  0  0  0  0
 37 69  1  0  0  0  0
M  END
> <PUBCHEM_COMPOUND_CID>
507726
> <PUBCHEM_COMPOUND_CANONICALIZED>
1
> <PUBCHEM_CACTVS_COMPLEXITY>
773
> <PUBCHEM_CACTVS_HBOND_ACCEPTOR>
8
> <PUBCHEM_CACTVS_HBOND_DONOR>
2
> <PUBCHEM_CACTVS_ROTATABLE_BOND>
13
> <PUBCHEM_CACTVS_SUBSKEYS>
AAADcfB7OQBAAAAAAAAAAAAAAAAAAAAAAAAwYMAAAAAAAAABUAAAHwAQSAAADDzhmA4yCILABgCIAiBCGDCCAAAgAAAIiIAIDIkKNiKA8RmMcAhk1gGYqAeQwKAOAAAAAAAAAAAAAAAAAAAAAAAAAAAAAA==
> <PUBCHEM_IUPAC_OPENEYE_NAME>
benzyl N-[(1S,2R)-1-benzyl-3-[dimethylsulfamoyl-[(4-fluorophenyl)methyl]amino]-2-hydroxy-propyl]carbamate
> <PUBCHEM_IUPAC_CAS_NAME>
N-[(2S,3R)-4-[dimethylsulfamoyl-[(4-fluorophenyl)methyl]amino]-3-hydroxy-1-phenylbutan-2-yl]carbamic acid (phenylmethyl) ester
> <PUBCHEM_IUPAC_NAME_MARKUP>
benzyl <I>N</I>-[(2<I>S</I>,3<I>R</I>)-4-[dimethylsulfamoyl-[(4-fluorophenyl)methyl]amino]-3-hydroxy-1-phenylbutan-2-yl]carbamate
> <PUBCHEM_IUPAC_NAME>
benzyl N-[(2S,3R)-4-[dimethylsulfamoyl-[(4-fluorophenyl)methyl]amino]-3-hydroxy-1-phenylbutan-2-yl]carbamate
> <PUBCHEM_IUPAC_SYSTEMATIC_NAME>
(phenylmethyl) N-[(2S,3R)-4-[dimethylsulfamoyl-[(4-fluorophenyl)methyl]amino]-3-oxidanyl-1-phenyl-butan-2-yl]carbamate
> <PUBCHEM_IUPAC_TRADITIONAL_NAME>
N-[(1S,2R)-1-benzyl-3-[dimethylsulfamoyl-(4-fluorobenzyl)amino]-2-hydroxy-propyl]carbamic acid benzyl ester
> <PUBCHEM_IUPAC_INCHI>
InChI=1S/C27H32FN3O5S/c1-30(2)37(34,35)31(18-22-13-15-24(28)16-14-22)19-26(32)25(17-21-9-5-3-6-10-21)29-27(33)36-20-23-11-7-4-8-12-23/h3-16,25-26,32H,17-20H2,1-2H3,(H,29,33)/t25-,26+/m0/s1
> <PUBCHEM_IUPAC_INCHIKEY>
HBBQUNNIEFPXMY-IZZNHLLZSA-N
> <PUBCHEM_XLOGP3_AA>
3.6
> <PUBCHEM_EXACT_MASS>
529.20467047
> <PUBCHEM_MOLECULAR_FORMULA>
C27H32FN3O5S
> <PUBCHEM_MOLECULAR_WEIGHT>
529.6
> <PUBCHEM_OPENEYE_CAN_SMILES>
CN(C)S(=O)(=O)N(CC1=CC=C(C=C1)F)CC(C(CC2=CC=CC=C2)NC(=O)OCC3=CC=CC=C3)O
> <PUBCHEM_OPENEYE_ISO_SMILES>
CN(C)S(=O)(=O)N(CC1=CC=C(C=C1)F)C[C@H]([C@H](CC2=CC=CC=C2)NC(=O)OCC3=CC=CC=C3)O
> <PUBCHEM_CACTVS_TPSA>
108
> <PUBCHEM_MONOISOTOPIC_WEIGHT>
529.20467047
> <PUBCHEM_TOTAL_CHARGE>
0
> <PUBCHEM_HEAVY_ATOM_COUNT>
37
> <PUBCHEM_ATOM_DEF_STEREO_COUNT>
2
> <PUBCHEM_ATOM_UDEF_STEREO_COUNT>
0
> <PUBCHEM_BOND_DEF_STEREO_COUNT>
0
> <PUBCHEM_BOND_UDEF_STEREO_COUNT>
0
> <PUBCHEM_ISOTOPIC_ATOM_COUNT>
0
> <PUBCHEM_COMPONENT_COUNT>
1
> <PUBCHEM_CACTVS_TAUTO_COUNT>
-1
> <PUBCHEM_COORDINATE_TYPE>
1
5
255
> <PUBCHEM_BONDANNOTATIONS>
16  19  8
16  20  8
17  23  8
17  24  8
19  25  8
20  26  8
23  28  8
24  29  8
25  27  8
26  27  8
28  30  8
29  30  8
11  3  5
32  33  8
32  34  8
33  35  8
34  36  8
35  37  8
36  37  8
12  9  5
$$$$
