507781
  -OEChem-10302200282D
 55 58  0     1  0  0  0  0  0999 V2000
    6.6353   -0.8901    0.0000 O   0  0  0  0  0  0  0  0  0  0  0  0
    6.5422    4.4006    0.0000 O   0  0  0  0  0  0  0  0  0  0  0  0
    4.3211    0.3923    0.0000 O   0  0  0  0  0  0  0  0  0  0  0  0
    6.2781    0.8047    0.0000 N   0  0  0  0  0  0  0  0  0  0  0  0
    6.8994    2.7058    0.0000 N   0  0  0  0  0  0  0  0  0  0  0  0
    4.6783   -2.9120    0.0000 N   0  0  0  0  0  0  0  0  0  0  0  0
    2.8660   -3.1073    0.0000 N   0  0  0  0  0  0  0  0  0  0  0  0
    7.2566    1.0110    0.0000 C   0  0  1  0  0  0  0  0  0  0  0  0
    7.5673    1.9615    0.0000 C   0  0  0  0  0  0  0  0  0  0  0  0
    5.6103    1.5490    0.0000 C   0  0  0  0  0  0  0  0  0  0  0  0
    5.9209    2.4996    0.0000 C   0  0  0  0  0  0  0  0  0  0  0  0
    7.9244    0.2666    0.0000 C   0  0  0  0  0  0  0  0  0  0  0  0
    5.9674   -0.1458    0.0000 C   0  0  0  0  0  0  0  0  0  0  0  0
    7.2101    3.6563    0.0000 C   0  0  0  0  0  0  0  0  0  0  0  0
    4.9889   -0.3520    0.0000 C   0  0  0  0  0  0  0  0  0  0  0  0
    4.6783   -1.3025    0.0000 C   0  0  0  0  0  0  0  0  0  0  0  0
    8.1886    3.8625    0.0000 C   0  0  0  0  0  0  0  0  0  0  0  0
    3.7320   -1.6073    0.0000 C   0  0  0  0  0  0  0  0  0  0  0  0
    5.2619   -2.1073    0.0000 C   0  0  0  0  0  0  0  0  0  0  0  0
    3.7320   -2.6073    0.0000 C   0  0  0  0  0  0  0  0  0  0  0  0
    4.9889   -3.8625    0.0000 C   0  0  0  0  0  0  0  0  0  0  0  0
    8.4993    4.8130    0.0000 C   0  0  0  0  0  0  0  0  0  0  0  0
    8.8564    3.1182    0.0000 C   0  0  0  0  0  0  0  0  0  0  0  0
    2.8660   -1.1073    0.0000 C   0  0  0  0  0  0  0  0  0  0  0  0
    2.0000   -1.6073    0.0000 C   0  0  0  0  0  0  0  0  0  0  0  0
    9.4778    5.0193    0.0000 C   0  0  0  0  0  0  0  0  0  0  0  0
    9.8349    3.3244    0.0000 C   0  0  0  0  0  0  0  0  0  0  0  0
    2.0000   -2.6073    0.0000 C   0  0  0  0  0  0  0  0  0  0  0  0
    5.9674   -4.0687    0.0000 C   0  0  0  0  0  0  0  0  0  0  0  0
   10.1456    4.2749    0.0000 C   0  0  0  0  0  0  0  0  0  0  0  0
    6.2781   -5.0193    0.0000 C   0  0  0  0  0  0  0  0  0  0  0  0
    7.0640    0.4216    0.0000 H   0  0  0  0  0  0  0  0  0  0  0  0
    8.1142    1.6694    0.0000 H   0  0  0  0  0  0  0  0  0  0  0  0
    7.9498    2.4494    0.0000 H   0  0  0  0  0  0  0  0  0  0  0  0
    5.0633    1.8410    0.0000 H   0  0  0  0  0  0  0  0  0  0  0  0
    5.2277    1.0611    0.0000 H   0  0  0  0  0  0  0  0  0  0  0  0
    5.9004    3.1192    0.0000 H   0  0  0  0  0  0  0  0  0  0  0  0
    5.3071    2.5869    0.0000 H   0  0  0  0  0  0  0  0  0  0  0  0
    7.4630   -0.1474    0.0000 H   0  0  0  0  0  0  0  0  0  0  0  0
    8.3385   -0.1948    0.0000 H   0  0  0  0  0  0  0  0  0  0  0  0
    8.3859    0.6807    0.0000 H   0  0  0  0  0  0  0  0  0  0  0  0
    5.8819   -2.1073    0.0000 H   0  0  0  0  0  0  0  0  0  0  0  0
    4.3751   -3.9499    0.0000 H   0  0  0  0  0  0  0  0  0  0  0  0
    4.9684   -4.4822    0.0000 H   0  0  0  0  0  0  0  0  0  0  0  0
    8.0852    5.2745    0.0000 H   0  0  0  0  0  0  0  0  0  0  0  0
    8.6638    2.5289    0.0000 H   0  0  0  0  0  0  0  0  0  0  0  0
    2.8660   -0.4873    0.0000 H   0  0  0  0  0  0  0  0  0  0  0  0
    1.4631   -1.2973    0.0000 H   0  0  0  0  0  0  0  0  0  0  0  0
    9.6704    5.6086    0.0000 H   0  0  0  0  0  0  0  0  0  0  0  0
   10.2490    2.8630    0.0000 H   0  0  0  0  0  0  0  0  0  0  0  0
    1.4631   -2.9173    0.0000 H   0  0  0  0  0  0  0  0  0  0  0  0
    6.3815   -3.6073    0.0000 H   0  0  0  0  0  0  0  0  0  0  0  0
   10.7523    4.4028    0.0000 H   0  0  0  0  0  0  0  0  0  0  0  0
    5.8640   -5.4807    0.0000 H   0  0  0  0  0  0  0  0  0  0  0  0
    6.8848   -5.1471    0.0000 H   0  0  0  0  0  0  0  0  0  0  0  0
  1 13  2  0  0  0  0
  2 14  2  0  0  0  0
  3 15  2  0  0  0  0
  4  8  1  0  0  0  0
  4 10  1  0  0  0  0
  4 13  1  0  0  0  0
  5  9  1  0  0  0  0
  5 11  1  0  0  0  0
  5 14  1  0  0  0  0
  6 19  1  0  0  0  0
  6 20  1  0  0  0  0
  6 21  1  0  0  0  0
  7 20  1  0  0  0  0
  7 28  2  0  0  0  0
  8  9  1  0  0  0  0
  8 12  1  1  0  0  0
  8 32  1  0  0  0  0
  9 33  1  0  0  0  0
  9 34  1  0  0  0  0
 10 11  1  0  0  0  0
 10 35  1  0  0  0  0
 10 36  1  0  0  0  0
 11 37  1  0  0  0  0
 11 38  1  0  0  0  0
 12 39  1  0  0  0  0
 12 40  1  0  0  0  0
 12 41  1  0  0  0  0
 13 15  1  0  0  0  0
 14 17  1  0  0  0  0
 15 16  1  0  0  0  0
 16 18  1  0  0  0  0
 16 19  2  0  0  0  0
 17 22  2  0  0  0  0
 17 23  1  0  0  0  0
 18 20  2  0  0  0  0
 18 24  1  0  0  0  0
 19 42  1  0  0  0  0
 21 29  1  0  0  0  0
 21 43  1  0  0  0  0
 21 44  1  0  0  0  0
 22 26  1  0  0  0  0
 22 45  1  0  0  0  0
 23 27  2  0  0  0  0
 23 46  1  0  0  0  0
 24 25  2  0  0  0  0
 24 47  1  0  0  0  0
 25 28  1  0  0  0  0
 25 48  1  0  0  0  0
 26 30  2  0  0  0  0
 26 49  1  0  0  0  0
 27 30  1  0  0  0  0
 27 50  1  0  0  0  0
 28 51  1  0  0  0  0
 29 31  2  0  0  0  0
 29 52  1  0  0  0  0
 30 53  1  0  0  0  0
 31 54  1  0  0  0  0
 31 55  1  0  0  0  0
M  END
> <PUBCHEM_COMPOUND_CID>
507781
> <PUBCHEM_COMPOUND_CANONICALIZED>
1
> <PUBCHEM_CACTVS_COMPLEXITY>
705
> <PUBCHEM_CACTVS_HBOND_ACCEPTOR>
4
> <PUBCHEM_CACTVS_HBOND_DONOR>
0
> <PUBCHEM_CACTVS_ROTATABLE_BOND>
5
> <PUBCHEM_CACTVS_SUBSKEYS>
AAADceB7sAAAAAAAAAAAAAAAAAAAAWAAAAA8WIAAAAAAAFgB/AAAHgAAAAAADCzBmwQ/sN8MEACoArN3dACCgCk1AqAJ2CG4ZNiIaPrAnbGUIYhohgLIyecciQCOgAAAAAAAAAAAAAAAAAAAAAAAAAAAAA==
> <PUBCHEM_IUPAC_OPENEYE_NAME>
1-(1-allylpyrrolo[2,3-b]pyridin-3-yl)-2-[(2R)-4-benzoyl-2-methyl-piperazin-1-yl]ethane-1,2-dione
> <PUBCHEM_IUPAC_CAS_NAME>
1-[(2R)-4-benzoyl-2-methyl-1-piperazinyl]-2-(1-prop-2-enyl-3-pyrrolo[2,3-b]pyridinyl)ethane-1,2-dione
> <PUBCHEM_IUPAC_NAME_MARKUP>
1-[(2<I>R</I>)-4-benzoyl-2-methylpiperazin-1-yl]-2-(1-prop-2-enylpyrrolo[2,3-b]pyridin-3-yl)ethane-1,2-dione
> <PUBCHEM_IUPAC_NAME>
1-[(2R)-4-benzoyl-2-methylpiperazin-1-yl]-2-(1-prop-2-enylpyrrolo[2,3-b]pyridin-3-yl)ethane-1,2-dione
> <PUBCHEM_IUPAC_SYSTEMATIC_NAME>
1-[(2R)-2-methyl-4-(phenylcarbonyl)piperazin-1-yl]-2-(1-prop-2-enylpyrrolo[2,3-b]pyridin-3-yl)ethane-1,2-dione
> <PUBCHEM_IUPAC_TRADITIONAL_NAME>
1-(1-allylpyrrolo[2,3-b]pyridin-3-yl)-2-[(2R)-4-benzoyl-2-methyl-piperazino]ethane-1,2-dione
> <PUBCHEM_IUPAC_INCHI>
InChI=1S/C24H24N4O3/c1-3-12-26-16-20(19-10-7-11-25-22(19)26)21(29)24(31)28-14-13-27(15-17(28)2)23(30)18-8-5-4-6-9-18/h3-11,16-17H,1,12-15H2,2H3/t17-/m1/s1
> <PUBCHEM_IUPAC_INCHIKEY>
RDUSYRIJGKIJLR-QGZVFWFLSA-N
> <PUBCHEM_XLOGP3_AA>
2.7
> <PUBCHEM_EXACT_MASS>
416.18484064
> <PUBCHEM_MOLECULAR_FORMULA>
C24H24N4O3
> <PUBCHEM_MOLECULAR_WEIGHT>
416.5
> <PUBCHEM_OPENEYE_CAN_SMILES>
CC1CN(CCN1C(=O)C(=O)C2=CN(C3=C2C=CC=N3)CC=C)C(=O)C4=CC=CC=C4
> <PUBCHEM_OPENEYE_ISO_SMILES>
C[C@@H]1CN(CCN1C(=O)C(=O)C2=CN(C3=C2C=CC=N3)CC=C)C(=O)C4=CC=CC=C4
> <PUBCHEM_CACTVS_TPSA>
75.5
> <PUBCHEM_MONOISOTOPIC_WEIGHT>
416.18484064
> <PUBCHEM_TOTAL_CHARGE>
0
> <PUBCHEM_HEAVY_ATOM_COUNT>
31
> <PUBCHEM_ATOM_DEF_STEREO_COUNT>
1
> <PUBCHEM_ATOM_UDEF_STEREO_COUNT>
0
> <PUBCHEM_BOND_DEF_STEREO_COUNT>
0
> <PUBCHEM_BOND_UDEF_STEREO_COUNT>
0
> <PUBCHEM_ISOTOPIC_ATOM_COUNT>
0
> <PUBCHEM_COMPONENT_COUNT>
1
> <PUBCHEM_CACTVS_TAUTO_COUNT>
-1
> <PUBCHEM_COORDINATE_TYPE>
1
5
255
> <PUBCHEM_BONDANNOTATIONS>
16  18  8
16  19  8
17  22  8
17  23  8
18  20  8
18  24  8
22  26  8
23  27  8
24  25  8
25  28  8
26  30  8
27  30  8
6  19  8
6  20  8
7  20  8
7  28  8
8  12  5
$$$$
