507730
  -OEChem-10302200282D
 72 74  0     1  0  0  0  0  0999 V2000
    5.4641    2.3988    0.0000 S   0  0  0  0  0  0  0  0  0  0  0  0
    4.9641    3.2648    0.0000 O   0  0  0  0  0  0  0  0  0  0  0  0
    5.9641    1.5328    0.0000 O   0  0  0  0  0  0  0  0  0  0  0  0
    2.8660    0.8988    0.0000 O   0  0  0  0  0  0  0  0  0  0  0  0
    6.3301   -1.1012    0.0000 O   0  0  0  0  0  0  0  0  0  0  0  0
    5.4641    0.3988    0.0000 O   0  0  0  0  0  0  0  0  0  0  0  0
    6.3301    2.8988    0.0000 N   0  0  0  0  0  0  0  0  0  0  0  0
    4.5981    1.8988    0.0000 N   0  0  3  0  0  0  0  0  0  0  0  0
    4.5981   -1.1012    0.0000 N   0  0  0  0  0  0  0  0  0  0  0  0
    7.2437    2.4920    0.0000 C   0  0  0  0  0  0  0  0  0  0  0  0
    6.4347    3.8933    0.0000 C   0  0  0  0  0  0  0  0  0  0  0  0
    7.9128    3.2352    0.0000 C   0  0  0  0  0  0  0  0  0  0  0  0
    7.4128    4.1012    0.0000 C   0  0  0  0  0  0  0  0  0  0  0  0
    4.5981    0.8988    0.0000 C   0  0  0  0  0  0  0  0  0  0  0  0
    3.7320    2.3988    0.0000 C   0  0  0  0  0  0  0  0  0  0  0  0
    3.7320    0.3988    0.0000 C   0  0  2  0  0  0  0  0  0  0  0  0
    3.7320   -0.6012    0.0000 C   0  0  2  0  0  0  0  0  0  0  0  0
    3.7320    3.3988    0.0000 C   0  0  0  0  0  0  0  0  0  0  0  0
    2.8660   -1.1012    0.0000 C   0  0  0  0  0  0  0  0  0  0  0  0
    2.8660    3.8988    0.0000 C   0  0  0  0  0  0  0  0  0  0  0  0
    4.5981    3.8988    0.0000 C   0  0  0  0  0  0  0  0  0  0  0  0
    2.8660   -2.1012    0.0000 C   0  0  0  0  0  0  0  0  0  0  0  0
    5.4641   -0.6012    0.0000 C   0  0  0  0  0  0  0  0  0  0  0  0
    3.7320   -2.6012    0.0000 C   0  0  0  0  0  0  0  0  0  0  0  0
    2.0000   -2.6012    0.0000 C   0  0  0  0  0  0  0  0  0  0  0  0
    3.7320   -3.6012    0.0000 C   0  0  0  0  0  0  0  0  0  0  0  0
    2.0000   -3.6012    0.0000 C   0  0  0  0  0  0  0  0  0  0  0  0
    2.8660   -4.1012    0.0000 C   0  0  0  0  0  0  0  0  0  0  0  0
    7.1962   -0.6012    0.0000 C   0  0  0  0  0  0  0  0  0  0  0  0
    8.0622   -1.1012    0.0000 C   0  0  0  0  0  0  0  0  0  0  0  0
    8.9282   -0.6012    0.0000 C   0  0  0  0  0  0  0  0  0  0  0  0
    8.0622   -2.1012    0.0000 C   0  0  0  0  0  0  0  0  0  0  0  0
    9.7942   -1.1012    0.0000 C   0  0  0  0  0  0  0  0  0  0  0  0
    8.9282   -2.6012    0.0000 C   0  0  0  0  0  0  0  0  0  0  0  0
    9.7942   -2.1012    0.0000 C   0  0  0  0  0  0  0  0  0  0  0  0
    6.9337    1.9551    0.0000 H   0  0  0  0  0  0  0  0  0  0  0  0
    7.7453    2.1276    0.0000 H   0  0  0  0  0  0  0  0  0  0  0  0
    6.3698    4.5099    0.0000 H   0  0  0  0  0  0  0  0  0  0  0  0
    5.8147    3.8933    0.0000 H   0  0  0  0  0  0  0  0  0  0  0  0
    8.3277    2.7744    0.0000 H   0  0  0  0  0  0  0  0  0  0  0  0
    8.4144    3.5996    0.0000 H   0  0  0  0  0  0  0  0  0  0  0  0
    7.9792    4.3534    0.0000 H   0  0  0  0  0  0  0  0  0  0  0  0
    7.2212    4.6909    0.0000 H   0  0  0  0  0  0  0  0  0  0  0  0
    4.8101    0.3162    0.0000 H   0  0  0  0  0  0  0  0  0  0  0  0
    5.2087    1.0064    0.0000 H   0  0  0  0  0  0  0  0  0  0  0  0
    3.1215    2.5064    0.0000 H   0  0  0  0  0  0  0  0  0  0  0  0
    3.5200    1.8162    0.0000 H   0  0  0  0  0  0  0  0  0  0  0  0
    3.7320    1.0188    0.0000 H   0  0  0  0  0  0  0  0  0  0  0  0
    3.7320   -1.2212    0.0000 H   0  0  0  0  0  0  0  0  0  0  0  0
    3.7320    4.0188    0.0000 H   0  0  0  0  0  0  0  0  0  0  0  0
    2.6540   -0.5186    0.0000 H   0  0  0  0  0  0  0  0  0  0  0  0
    2.2554   -1.2089    0.0000 H   0  0  0  0  0  0  0  0  0  0  0  0
    3.1760    4.4357    0.0000 H   0  0  0  0  0  0  0  0  0  0  0  0
    2.3291    4.2088    0.0000 H   0  0  0  0  0  0  0  0  0  0  0  0
    2.5560    3.3618    0.0000 H   0  0  0  0  0  0  0  0  0  0  0  0
    4.9081    3.3618    0.0000 H   0  0  0  0  0  0  0  0  0  0  0  0
    5.1350    4.2088    0.0000 H   0  0  0  0  0  0  0  0  0  0  0  0
    4.2881    4.4357    0.0000 H   0  0  0  0  0  0  0  0  0  0  0  0
    4.5981   -1.7212    0.0000 H   0  0  0  0  0  0  0  0  0  0  0  0
    2.8660    1.5188    0.0000 H   0  0  0  0  0  0  0  0  0  0  0  0
    4.2690   -2.2912    0.0000 H   0  0  0  0  0  0  0  0  0  0  0  0
    1.4631   -2.2912    0.0000 H   0  0  0  0  0  0  0  0  0  0  0  0
    4.2690   -3.9112    0.0000 H   0  0  0  0  0  0  0  0  0  0  0  0
    1.4631   -3.9112    0.0000 H   0  0  0  0  0  0  0  0  0  0  0  0
    2.8660   -4.7212    0.0000 H   0  0  0  0  0  0  0  0  0  0  0  0
    7.5947   -0.1263    0.0000 H   0  0  0  0  0  0  0  0  0  0  0  0
    6.7976   -0.1263    0.0000 H   0  0  0  0  0  0  0  0  0  0  0  0
    8.9282    0.0188    0.0000 H   0  0  0  0  0  0  0  0  0  0  0  0
    7.5252   -2.4112    0.0000 H   0  0  0  0  0  0  0  0  0  0  0  0
   10.3312   -0.7912    0.0000 H   0  0  0  0  0  0  0  0  0  0  0  0
    8.9282   -3.2212    0.0000 H   0  0  0  0  0  0  0  0  0  0  0  0
   10.3312   -2.4112    0.0000 H   0  0  0  0  0  0  0  0  0  0  0  0
  1  2  2  0  0  0  0
  1  3  2  0  0  0  0
  1  7  1  0  0  0  0
  1  8  1  0  0  0  0
 16  4  1  6  0  0  0
  4 60  1  0  0  0  0
  5 23  1  0  0  0  0
  5 29  1  0  0  0  0
  6 23  2  0  0  0  0
  7 10  1  0  0  0  0
  7 11  1  0  0  0  0
  8 14  1  0  0  0  0
  8 15  1  0  0  0  0
 17  9  1  1  0  0  0
  9 23  1  0  0  0  0
  9 59  1  0  0  0  0
 10 12  1  0  0  0  0
 10 36  1  0  0  0  0
 10 37  1  0  0  0  0
 11 13  1  0  0  0  0
 11 38  1  0  0  0  0
 11 39  1  0  0  0  0
 12 13  1  0  0  0  0
 12 40  1  0  0  0  0
 12 41  1  0  0  0  0
 13 42  1  0  0  0  0
 13 43  1  0  0  0  0
 14 16  1  0  0  0  0
 14 44  1  0  0  0  0
 14 45  1  0  0  0  0
 15 18  1  0  0  0  0
 15 46  1  0  0  0  0
 15 47  1  0  0  0  0
 16 17  1  0  0  0  0
 16 48  1  0  0  0  0
 17 19  1  0  0  0  0
 17 49  1  0  0  0  0
 18 20  1  0  0  0  0
 18 21  1  0  0  0  0
 18 50  1  0  0  0  0
 19 22  1  0  0  0  0
 19 51  1  0  0  0  0
 19 52  1  0  0  0  0
 20 53  1  0  0  0  0
 20 54  1  0  0  0  0
 20 55  1  0  0  0  0
 21 56  1  0  0  0  0
 21 57  1  0  0  0  0
 21 58  1  0  0  0  0
 22 24  2  0  0  0  0
 22 25  1  0  0  0  0
 24 26  1  0  0  0  0
 24 61  1  0  0  0  0
 25 27  2  0  0  0  0
 25 62  1  0  0  0  0
 26 28  2  0  0  0  0
 26 63  1  0  0  0  0
 27 28  1  0  0  0  0
 27 64  1  0  0  0  0
 28 65  1  0  0  0  0
 29 30  1  0  0  0  0
 29 66  1  0  0  0  0
 29 67  1  0  0  0  0
 30 31  2  0  0  0  0
 30 32  1  0  0  0  0
 31 33  1  0  0  0  0
 31 68  1  0  0  0  0
 32 34  2  0  0  0  0
 32 69  1  0  0  0  0
 33 35  2  0  0  0  0
 33 70  1  0  0  0  0
 34 35  1  0  0  0  0
 34 71  1  0  0  0  0
 35 72  1  0  0  0  0
M  END
> <PUBCHEM_COMPOUND_CID>
507730
> <PUBCHEM_COMPOUND_CANONICALIZED>
1
> <PUBCHEM_CACTVS_COMPLEXITY>
724
> <PUBCHEM_CACTVS_HBOND_ACCEPTOR>
7
> <PUBCHEM_CACTVS_HBOND_DONOR>
2
> <PUBCHEM_CACTVS_ROTATABLE_BOND>
13
> <PUBCHEM_CACTVS_SUBSKEYS>
AAADcfB7OABAAAAAAAAAAAAAAAAAAWAAAAAwYAAAAAAAAAABQAAAHgAQSAAADTzhmAYyCILABgCIAiBCGDACAAAgAAAIiIAICIkKNiKA8RmMcAAk1gGYqAeQwKAOAAAAAAAAAAAAAAAAAAAAAAAAAAAAAA==
> <PUBCHEM_IUPAC_OPENEYE_NAME>
benzyl N-[(1S,2R)-1-benzyl-2-hydroxy-3-[isobutyl(pyrrolidin-1-ylsulfonyl)amino]propyl]carbamate
> <PUBCHEM_IUPAC_CAS_NAME>
N-[(2S,3R)-3-hydroxy-4-[2-methylpropyl(1-pyrrolidinylsulfonyl)amino]-1-phenylbutan-2-yl]carbamic acid (phenylmethyl) ester
> <PUBCHEM_IUPAC_NAME_MARKUP>
benzyl <I>N</I>-[(2<I>S</I>,3<I>R</I>)-3-hydroxy-4-[2-methylpropyl(pyrrolidin-1-ylsulfonyl)amino]-1-phenylbutan-2-yl]carbamate
> <PUBCHEM_IUPAC_NAME>
benzyl N-[(2S,3R)-3-hydroxy-4-[2-methylpropyl(pyrrolidin-1-ylsulfonyl)amino]-1-phenylbutan-2-yl]carbamate
> <PUBCHEM_IUPAC_SYSTEMATIC_NAME>
(phenylmethyl) N-[(2S,3R)-4-[2-methylpropyl(pyrrolidin-1-ylsulfonyl)amino]-3-oxidanyl-1-phenyl-butan-2-yl]carbamate
> <PUBCHEM_IUPAC_TRADITIONAL_NAME>
N-[(1S,2R)-1-benzyl-2-hydroxy-3-[isobutyl(pyrrolidinosulfonyl)amino]propyl]carbamic acid benzyl ester
> <PUBCHEM_IUPAC_INCHI>
InChI=1S/C26H37N3O5S/c1-21(2)18-29(35(32,33)28-15-9-10-16-28)19-25(30)24(17-22-11-5-3-6-12-22)27-26(31)34-20-23-13-7-4-8-14-23/h3-8,11-14,21,24-25,30H,9-10,15-20H2,1-2H3,(H,27,31)/t24-,25+/m0/s1
> <PUBCHEM_IUPAC_INCHIKEY>
NWJNUEVLEVWQDT-LOSJGSFVSA-N
> <PUBCHEM_XLOGP3_AA>
3.9
> <PUBCHEM_EXACT_MASS>
503.24539246
> <PUBCHEM_MOLECULAR_FORMULA>
C26H37N3O5S
> <PUBCHEM_MOLECULAR_WEIGHT>
503.7
> <PUBCHEM_OPENEYE_CAN_SMILES>
CC(C)CN(CC(C(CC1=CC=CC=C1)NC(=O)OCC2=CC=CC=C2)O)S(=O)(=O)N3CCCC3
> <PUBCHEM_OPENEYE_ISO_SMILES>
CC(C)CN(C[C@H]([C@H](CC1=CC=CC=C1)NC(=O)OCC2=CC=CC=C2)O)S(=O)(=O)N3CCCC3
> <PUBCHEM_CACTVS_TPSA>
108
> <PUBCHEM_MONOISOTOPIC_WEIGHT>
503.24539246
> <PUBCHEM_TOTAL_CHARGE>
0
> <PUBCHEM_HEAVY_ATOM_COUNT>
35
> <PUBCHEM_ATOM_DEF_STEREO_COUNT>
2
> <PUBCHEM_ATOM_UDEF_STEREO_COUNT>
0
> <PUBCHEM_BOND_DEF_STEREO_COUNT>
0
> <PUBCHEM_BOND_UDEF_STEREO_COUNT>
0
> <PUBCHEM_ISOTOPIC_ATOM_COUNT>
0
> <PUBCHEM_COMPONENT_COUNT>
1
> <PUBCHEM_CACTVS_TAUTO_COUNT>
-1
> <PUBCHEM_COORDINATE_TYPE>
1
5
255
> <PUBCHEM_BONDANNOTATIONS>
22  24  8
22  25  8
24  26  8
25  27  8
26  28  8
27  28  8
30  31  8
30  32  8
31  33  8
32  34  8
33  35  8
34  35  8
16  4  6
17  9  5
$$$$
