507712
  -OEChem-10302200282D
 89 92  0     1  0  0  0  0  0999 V2000
   12.5321    2.3998    0.0000 Cl  0  0  0  0  0  0  0  0  0  0  0  0
    5.1956   -4.3791    0.0000 S   0  0  0  0  0  0  0  0  0  0  0  0
    8.0321    4.9978    0.0000 F   0  0  0  0  0  0  0  0  0  0  0  0
    9.5321    4.1318    0.0000 F   0  0  0  0  0  0  0  0  0  0  0  0
    7.0321   -1.9304    0.0000 O   0  0  0  0  0  0  0  0  0  0  0  0
    6.5321    2.3998    0.0000 O   0  0  0  0  0  0  0  0  0  0  0  0
    7.2260   -4.8689    0.0000 O   0  0  0  0  0  0  0  0  0  0  0  0
    7.5861   -3.1747    0.0000 O   0  0  0  0  0  0  0  0  0  0  0  0
   10.0321    3.2658    0.0000 O   0  0  0  0  0  0  0  0  0  0  0  0
   16.0321   -0.1983    0.0000 O   0  0  0  0  0  0  0  0  0  0  0  0
   16.0321    1.5337    0.0000 O   0  0  0  0  0  0  0  0  0  0  0  0
    4.6660   -1.5643    0.0000 N   0  0  0  0  0  0  0  0  0  0  0  0
    7.0321   -0.1983    0.0000 N   0  0  0  0  0  0  0  0  0  0  0  0
    8.0321    1.5337    0.0000 N   0  0  0  0  0  0  0  0  0  0  0  0
   10.0321    1.5337    0.0000 N   0  0  0  0  0  0  0  0  0  0  0  0
    5.5321   -1.0643    0.0000 C   0  0  3  0  0  0  0  0  0  0  0  0
    5.5321   -0.0644    0.0000 C   0  0  0  0  0  0  0  0  0  0  0  0
    6.0321   -1.9304    0.0000 C   0  0  0  0  0  0  0  0  0  0  0  0
    4.6660    0.4356    0.0000 C   0  0  0  0  0  0  0  0  0  0  0  0
    6.5321   -1.0643    0.0000 C   0  0  0  0  0  0  0  0  0  0  0  0
    3.8000   -0.0644    0.0000 C   0  0  0  0  0  0  0  0  0  0  0  0
    3.8000   -1.0643    0.0000 C   0  0  0  0  0  0  0  0  0  0  0  0
    6.5321    0.6677    0.0000 C   0  0  1  0  0  0  0  0  0  0  0  0
    5.5321   -2.7964    0.0000 C   0  0  0  0  0  0  0  0  0  0  0  0
    5.5321    0.6677    0.0000 C   0  0  0  0  0  0  0  0  0  0  0  0
    2.9061    0.4703    0.0000 C   0  0  0  0  0  0  0  0  0  0  0  0
    2.9061   -1.5990    0.0000 C   0  0  0  0  0  0  0  0  0  0  0  0
    5.0321    1.5337    0.0000 C   0  0  0  0  0  0  0  0  0  0  0  0
    7.0321    1.5337    0.0000 C   0  0  0  0  0  0  0  0  0  0  0  0
    5.9388   -3.7100    0.0000 C   0  0  0  0  0  0  0  0  0  0  0  0
    4.5375   -2.9009    0.0000 C   0  0  0  0  0  0  0  0  0  0  0  0
    2.0000   -0.0435    0.0000 C   0  0  0  0  0  0  0  0  0  0  0  0
    2.0000   -1.0852    0.0000 C   0  0  0  0  0  0  0  0  0  0  0  0
    4.0321    1.5337    0.0000 C   0  0  0  0  0  0  0  0  0  0  0  0
    5.5321    2.3998    0.0000 C   0  0  0  0  0  0  0  0  0  0  0  0
    4.3296   -3.8791    0.0000 C   0  0  0  0  0  0  0  0  0  0  0  0
    8.5321    2.3998    0.0000 C   0  0  1  0  0  0  0  0  0  0  0  0
    6.9169   -3.9179    0.0000 C   0  0  0  0  0  0  0  0  0  0  0  0
    8.0321    3.2658    0.0000 C   0  0  0  0  0  0  0  0  0  0  0  0
    9.5321    2.3998    0.0000 C   0  0  0  0  0  0  0  0  0  0  0  0
    8.5321    4.1318    0.0000 C   0  0  0  0  0  0  0  0  0  0  0  0
   11.0321    1.5337    0.0000 C   0  0  0  0  0  0  0  0  0  0  0  0
   11.5321    0.6677    0.0000 C   0  0  0  0  0  0  0  0  0  0  0  0
   12.5321    0.6677    0.0000 C   0  0  0  0  0  0  0  0  0  0  0  0
   13.0321    1.5337    0.0000 C   0  0  0  0  0  0  0  0  0  0  0  0
   13.0321   -0.1983    0.0000 C   0  0  0  0  0  0  0  0  0  0  0  0
   14.0321    1.5337    0.0000 C   0  0  0  0  0  0  0  0  0  0  0  0
   14.0321   -0.1983    0.0000 C   0  0  0  0  0  0  0  0  0  0  0  0
   14.5321    0.6677    0.0000 C   0  0  0  0  0  0  0  0  0  0  0  0
   15.5321    0.6677    0.0000 C   0  0  0  0  0  0  0  0  0  0  0  0
    6.1426   -0.1720    0.0000 H   0  0  0  0  0  0  0  0  0  0  0  0
    5.7441    0.5183    0.0000 H   0  0  0  0  0  0  0  0  0  0  0  0
    6.5070   -2.3289    0.0000 H   0  0  0  0  0  0  0  0  0  0  0  0
    6.5070   -1.5318    0.0000 H   0  0  0  0  0  0  0  0  0  0  0  0
    5.0646    0.9106    0.0000 H   0  0  0  0  0  0  0  0  0  0  0  0
    4.2675    0.9106    0.0000 H   0  0  0  0  0  0  0  0  0  0  0  0
    4.6660   -2.1843    0.0000 H   0  0  0  0  0  0  0  0  0  0  0  0
    7.1521    0.6677    0.0000 H   0  0  0  0  0  0  0  0  0  0  0  0
    7.6521   -0.1983    0.0000 H   0  0  0  0  0  0  0  0  0  0  0  0
    4.9494    0.4556    0.0000 H   0  0  0  0  0  0  0  0  0  0  0  0
    5.6397    0.0571    0.0000 H   0  0  0  0  0  0  0  0  0  0  0  0
    2.9132    1.0903    0.0000 H   0  0  0  0  0  0  0  0  0  0  0  0
    2.9132   -2.2190    0.0000 H   0  0  0  0  0  0  0  0  0  0  0  0
    5.6521    1.5337    0.0000 H   0  0  0  0  0  0  0  0  0  0  0  0
    4.1227   -2.4402    0.0000 H   0  0  0  0  0  0  0  0  0  0  0  0
    1.4643    0.2685    0.0000 H   0  0  0  0  0  0  0  0  0  0  0  0
    1.4643   -1.3972    0.0000 H   0  0  0  0  0  0  0  0  0  0  0  0
    4.0321    2.1537    0.0000 H   0  0  0  0  0  0  0  0  0  0  0  0
    3.4121    1.5337    0.0000 H   0  0  0  0  0  0  0  0  0  0  0  0
    4.0321    0.9137    0.0000 H   0  0  0  0  0  0  0  0  0  0  0  0
    6.0690    2.0898    0.0000 H   0  0  0  0  0  0  0  0  0  0  0  0
    5.8421    2.9367    0.0000 H   0  0  0  0  0  0  0  0  0  0  0  0
    4.9951    2.7098    0.0000 H   0  0  0  0  0  0  0  0  0  0  0  0
    8.3421    0.9968    0.0000 H   0  0  0  0  0  0  0  0  0  0  0  0
    3.7632   -4.1313    0.0000 H   0  0  0  0  0  0  0  0  0  0  0  0
    7.9121    2.3998    0.0000 H   0  0  0  0  0  0  0  0  0  0  0  0
    7.5571    3.6643    0.0000 H   0  0  0  0  0  0  0  0  0  0  0  0
    7.5571    2.8672    0.0000 H   0  0  0  0  0  0  0  0  0  0  0  0
    8.8421    3.5949    0.0000 H   0  0  0  0  0  0  0  0  0  0  0  0
    9.7221    0.9968    0.0000 H   0  0  0  0  0  0  0  0  0  0  0  0
   11.6147    1.7458    0.0000 H   0  0  0  0  0  0  0  0  0  0  0  0
   10.9244    2.1443    0.0000 H   0  0  0  0  0  0  0  0  0  0  0  0
    7.8324   -4.9978    0.0000 H   0  0  0  0  0  0  0  0  0  0  0  0
   10.9495    0.4556    0.0000 H   0  0  0  0  0  0  0  0  0  0  0  0
   11.6397    0.0571    0.0000 H   0  0  0  0  0  0  0  0  0  0  0  0
   12.7221   -0.7353    0.0000 H   0  0  0  0  0  0  0  0  0  0  0  0
   14.3421    2.0707    0.0000 H   0  0  0  0  0  0  0  0  0  0  0  0
   14.3421   -0.7353    0.0000 H   0  0  0  0  0  0  0  0  0  0  0  0
   16.6521   -0.1983    0.0000 H   0  0  0  0  0  0  0  0  0  0  0  0
  1 45  1  0  0  0  0
  2 30  1  0  0  0  0
  2 36  1  0  0  0  0
  3 41  1  0  0  0  0
  4 41  1  0  0  0  0
  5 20  2  0  0  0  0
  6 29  2  0  0  0  0
  7 38  1  0  0  0  0
  7 83  1  0  0  0  0
  8 38  2  0  0  0  0
  9 40  2  0  0  0  0
 10 50  1  0  0  0  0
 10 89  1  0  0  0  0
 11 50  2  0  0  0  0
 12 16  1  0  0  0  0
 12 22  1  0  0  0  0
 12 57  1  0  0  0  0
 13 20  1  0  0  0  0
 23 13  1  1  0  0  0
 13 59  1  0  0  0  0
 14 29  1  0  0  0  0
 37 14  1  1  0  0  0
 14 74  1  0  0  0  0
 15 40  1  0  0  0  0
 15 42  1  0  0  0  0
 15 80  1  0  0  0  0
 16 17  1  0  0  0  0
 16 18  1  0  0  0  0
 16 20  1  0  0  0  0
 17 19  1  0  0  0  0
 17 51  1  0  0  0  0
 17 52  1  0  0  0  0
 18 24  1  0  0  0  0
 18 53  1  0  0  0  0
 18 54  1  0  0  0  0
 19 21  1  0  0  0  0
 19 55  1  0  0  0  0
 19 56  1  0  0  0  0
 21 22  1  0  0  0  0
 21 26  2  0  0  0  0
 22 27  2  0  0  0  0
 23 25  1  0  0  0  0
 23 29  1  0  0  0  0
 23 58  1  0  0  0  0
 24 30  2  0  0  0  0
 24 31  1  0  0  0  0
 25 28  1  0  0  0  0
 25 60  1  0  0  0  0
 25 61  1  0  0  0  0
 26 32  1  0  0  0  0
 26 62  1  0  0  0  0
 27 33  1  0  0  0  0
 27 63  1  0  0  0  0
 28 34  1  0  0  0  0
 28 35  1  0  0  0  0
 28 64  1  0  0  0  0
 30 38  1  0  0  0  0
 31 36  2  0  0  0  0
 31 65  1  0  0  0  0
 32 33  2  0  0  0  0
 32 66  1  0  0  0  0
 33 67  1  0  0  0  0
 34 68  1  0  0  0  0
 34 69  1  0  0  0  0
 34 70  1  0  0  0  0
 35 71  1  0  0  0  0
 35 72  1  0  0  0  0
 35 73  1  0  0  0  0
 36 75  1  0  0  0  0
 37 39  1  0  0  0  0
 37 40  1  0  0  0  0
 37 76  1  0  0  0  0
 39 41  1  0  0  0  0
 39 77  1  0  0  0  0
 39 78  1  0  0  0  0
 41 79  1  0  0  0  0
 42 43  1  0  0  0  0
 42 81  1  0  0  0  0
 42 82  1  0  0  0  0
 43 44  1  0  0  0  0
 43 84  1  0  0  0  0
 43 85  1  0  0  0  0
 44 45  2  0  0  0  0
 44 46  1  0  0  0  0
 45 47  1  0  0  0  0
 46 48  2  0  0  0  0
 46 86  1  0  0  0  0
 47 49  2  0  0  0  0
 47 87  1  0  0  0  0
 48 49  1  0  0  0  0
 48 88  1  0  0  0  0
 49 50  1  0  0  0  0
M  END
> <PUBCHEM_COMPOUND_CID>
507712
> <PUBCHEM_COMPOUND_CANONICALIZED>
1
> <PUBCHEM_CACTVS_COMPLEXITY>
1220
> <PUBCHEM_CACTVS_HBOND_ACCEPTOR>
11
> <PUBCHEM_CACTVS_HBOND_DONOR>
6
> <PUBCHEM_CACTVS_ROTATABLE_BOND>
16
> <PUBCHEM_CACTVS_SUBSKEYS>
AAADcfB/uYBEAAAAAAAAAAAAAAAAASAAAAA8YIAAAAAAAACx0AAAHwYQCAAADarF2DSyyYLAAgiMAiXSWACDAIAlDxBIiJmIbsgIZjLhl7GUcQhk1gHo2YeY2fOeQAAAIAADAACAAABAAAYAAAAAAAAAAA==
> <PUBCHEM_IUPAC_OPENEYE_NAME>
3-[[2-[[(1S)-1-[[(1S)-1-[2-(4-carboxy-2-chloro-phenyl)ethylcarbamoyl]-3,3-difluoro-propyl]carbamoyl]-3-methyl-butyl]carbamoyl]-3,4-dihydro-1H-quinolin-2-yl]methyl]thiophene-2-carboxylic acid
> <PUBCHEM_IUPAC_CAS_NAME>
3-[[2-[[[(2S)-1-[[(2S)-1-[2-(4-carboxy-2-chlorophenyl)ethylamino]-4,4-difluoro-1-oxobutan-2-yl]amino]-4-methyl-1-oxopentan-2-yl]amino]-oxomethyl]-3,4-dihydro-1H-quinolin-2-yl]methyl]-2-thiophenecarboxylic acid
> <PUBCHEM_IUPAC_NAME_MARKUP>
3-[[2-[[(2<I>S</I>)-1-[[(2<I>S</I>)-1-[2-(4-carboxy-2-chlorophenyl)ethylamino]-4,4-difluoro-1-oxobutan-2-yl]amino]-4-methyl-1-oxopentan-2-yl]carbamoyl]-3,4-dihydro-1<I>H</I>-quinolin-2-yl]methyl]thiophene-2-carboxylic acid
> <PUBCHEM_IUPAC_NAME>
3-[[2-[[(2S)-1-[[(2S)-1-[2-(4-carboxy-2-chlorophenyl)ethylamino]-4,4-difluoro-1-oxobutan-2-yl]amino]-4-methyl-1-oxopentan-2-yl]carbamoyl]-3,4-dihydro-1H-quinolin-2-yl]methyl]thiophene-2-carboxylic acid
> <PUBCHEM_IUPAC_SYSTEMATIC_NAME>
3-[[2-[[(2S)-1-[[(2S)-1-[2-(4-carboxy-2-chloranyl-phenyl)ethylamino]-4,4-bis(fluoranyl)-1-oxidanylidene-butan-2-yl]amino]-4-methyl-1-oxidanylidene-pentan-2-yl]carbamoyl]-3,4-dihydro-1H-quinolin-2-yl]methyl]thiophene-2-carboxylic acid
> <PUBCHEM_IUPAC_TRADITIONAL_NAME>
3-[[2-[[(1S)-1-[[(1S)-1-[2-(4-carboxy-2-chloro-phenyl)ethylcarbamoyl]-3,3-difluoro-propyl]carbamoyl]-3-methyl-butyl]carbamoyl]-3,4-dihydro-1H-quinolin-2-yl]methyl]-2-thenoic acid
> <PUBCHEM_IUPAC_INCHI>
InChI=1S/C35H39ClF2N4O7S/c1-19(2)15-26(31(44)40-27(17-28(37)38)30(43)39-13-10-20-7-8-22(32(45)46)16-24(20)36)41-34(49)35(18-23-11-14-50-29(23)33(47)48)12-9-21-5-3-4-6-25(21)42-35/h3-8,11,14,16,19,26-28,42H,9-10,12-13,15,17-18H2,1-2H3,(H,39,43)(H,40,44)(H,41,49)(H,45,46)(H,47,48)/t26-,27-,35?/m0/s1
> <PUBCHEM_IUPAC_INCHIKEY>
GPNAWQDDOVXJOX-PAYYDGORSA-N
> <PUBCHEM_XLOGP3_AA>
6.8
> <PUBCHEM_EXACT_MASS>
732.2196048
> <PUBCHEM_MOLECULAR_FORMULA>
C35H39ClF2N4O7S
> <PUBCHEM_MOLECULAR_WEIGHT>
733.2
> <PUBCHEM_OPENEYE_CAN_SMILES>
CC(C)CC(C(=O)NC(CC(F)F)C(=O)NCCC1=C(C=C(C=C1)C(=O)O)Cl)NC(=O)C2(CCC3=CC=CC=C3N2)CC4=C(SC=C4)C(=O)O
> <PUBCHEM_OPENEYE_ISO_SMILES>
CC(C)C[C@@H](C(=O)N[C@@H](CC(F)F)C(=O)NCCC1=C(C=C(C=C1)C(=O)O)Cl)NC(=O)C2(CCC3=CC=CC=C3N2)CC4=C(SC=C4)C(=O)O
> <PUBCHEM_CACTVS_TPSA>
202
> <PUBCHEM_MONOISOTOPIC_WEIGHT>
732.2196048
> <PUBCHEM_TOTAL_CHARGE>
0
> <PUBCHEM_HEAVY_ATOM_COUNT>
50
> <PUBCHEM_ATOM_DEF_STEREO_COUNT>
2
> <PUBCHEM_ATOM_UDEF_STEREO_COUNT>
1
> <PUBCHEM_BOND_DEF_STEREO_COUNT>
0
> <PUBCHEM_BOND_UDEF_STEREO_COUNT>
0
> <PUBCHEM_ISOTOPIC_ATOM_COUNT>
0
> <PUBCHEM_COMPONENT_COUNT>
1
> <PUBCHEM_CACTVS_TAUTO_COUNT>
-1
> <PUBCHEM_COORDINATE_TYPE>
1
5
255
> <PUBCHEM_BONDANNOTATIONS>
23  13  5
37  14  5
16  18  3
2  30  8
2  36  8
21  22  8
21  26  8
22  27  8
24  30  8
24  31  8
26  32  8
27  33  8
31  36  8
32  33  8
44  45  8
44  46  8
45  47  8
46  48  8
47  49  8
48  49  8
$$$$
