507720
  -OEChem-10302200282D
 80 82  0     1  0  0  0  0  0999 V2000
    5.4641    3.5600    0.0000 F   0  0  0  0  0  0  0  0  0  0  0  0
    3.7320    3.5600    0.0000 F   0  0  0  0  0  0  0  0  0  0  0  0
    2.0000   -2.4400    0.0000 F   0  0  0  0  0  0  0  0  0  0  0  0
    5.4641   -2.4400    0.0000 F   0  0  0  0  0  0  0  0  0  0  0  0
    7.1962    0.5600    0.0000 O   0  0  0  0  0  0  0  0  0  0  0  0
    6.3301    0.0600    0.0000 O   0  0  0  0  0  0  0  0  0  0  0  0
    9.7942    3.0600    0.0000 O   0  0  0  0  0  0  0  0  0  0  0  0
   12.3923    6.5600    0.0000 O   0  0  0  0  0  0  0  0  0  0  0  0
   10.6603    6.5600    0.0000 O   0  0  0  0  0  0  0  0  0  0  0  0
    2.8660   -5.9400    0.0000 O   0  0  0  0  0  0  0  0  0  0  0  0
    4.5981   -5.9400    0.0000 O   0  0  0  0  0  0  0  0  0  0  0  0
    8.0622    3.0600    0.0000 N   0  0  0  0  0  0  0  0  0  0  0  0
    6.3301    2.0600    0.0000 N   0  0  0  0  0  0  0  0  0  0  0  0
    4.5981    0.0600    0.0000 N   0  0  0  0  0  0  0  0  0  0  0  0
    8.9282    1.5600    0.0000 C   0  0  0  0  0  0  0  0  0  0  0  0
    8.0622    2.0600    0.0000 C   0  0  1  0  0  0  0  0  0  0  0  0
    8.9282    0.5600    0.0000 C   0  0  0  0  0  0  0  0  0  0  0  0
    7.1962    1.5600    0.0000 C   0  0  0  0  0  0  0  0  0  0  0  0
    5.4641    1.5600    0.0000 C   0  0  1  0  0  0  0  0  0  0  0  0
    9.7942    0.0600    0.0000 C   0  0  0  0  0  0  0  0  0  0  0  0
    8.0622    0.0600    0.0000 C   0  0  0  0  0  0  0  0  0  0  0  0
    4.5981    2.0600    0.0000 C   0  0  0  0  0  0  0  0  0  0  0  0
    5.4641    0.5600    0.0000 C   0  0  0  0  0  0  0  0  0  0  0  0
    8.9282    3.5600    0.0000 C   0  0  0  0  0  0  0  0  0  0  0  0
    4.5981    3.0600    0.0000 C   0  0  0  0  0  0  0  0  0  0  0  0
    8.9282    4.5600    0.0000 C   0  0  0  0  0  0  0  0  0  0  0  0
    4.5981   -0.9400    0.0000 C   0  0  0  0  0  0  0  0  0  0  0  0
    3.7320   -1.4400    0.0000 C   0  0  0  0  0  0  0  0  0  0  0  0
    9.7942    5.0600    0.0000 C   0  0  0  0  0  0  0  0  0  0  0  0
    8.0622    5.0600    0.0000 C   0  0  0  0  0  0  0  0  0  0  0  0
    3.7320   -2.4400    0.0000 C   0  0  0  0  0  0  0  0  0  0  0  0
   10.6603    4.5600    0.0000 C   0  0  0  0  0  0  0  0  0  0  0  0
    9.7942    6.0600    0.0000 C   0  0  0  0  0  0  0  0  0  0  0  0
    8.0622    6.0600    0.0000 C   0  0  0  0  0  0  0  0  0  0  0  0
    8.9282    6.5600    0.0000 C   0  0  0  0  0  0  0  0  0  0  0  0
   11.5263    5.0600    0.0000 C   0  0  0  0  0  0  0  0  0  0  0  0
    2.8660   -2.9400    0.0000 C   0  0  0  0  0  0  0  0  0  0  0  0
    4.5981   -2.9400    0.0000 C   0  0  0  0  0  0  0  0  0  0  0  0
   10.6603    3.5600    0.0000 C   0  0  0  0  0  0  0  0  0  0  0  0
    2.8660   -3.9400    0.0000 C   0  0  0  0  0  0  0  0  0  0  0  0
    4.5981   -3.9400    0.0000 C   0  0  0  0  0  0  0  0  0  0  0  0
   12.3923    4.5600    0.0000 C   0  0  0  0  0  0  0  0  0  0  0  0
    3.7320   -4.4400    0.0000 C   0  0  0  0  0  0  0  0  0  0  0  0
   11.5263    3.0600    0.0000 C   0  0  0  0  0  0  0  0  0  0  0  0
   12.3923    3.5600    0.0000 C   0  0  0  0  0  0  0  0  0  0  0  0
   11.5263    6.0600    0.0000 C   0  0  0  0  0  0  0  0  0  0  0  0
    3.7320   -5.4400    0.0000 C   0  0  0  0  0  0  0  0  0  0  0  0
    9.5388    1.4523    0.0000 H   0  0  0  0  0  0  0  0  0  0  0  0
    9.1403    2.1426    0.0000 H   0  0  0  0  0  0  0  0  0  0  0  0
    7.5252    2.3700    0.0000 H   0  0  0  0  0  0  0  0  0  0  0  0
    9.4651    0.8700    0.0000 H   0  0  0  0  0  0  0  0  0  0  0  0
    5.4641    2.1800    0.0000 H   0  0  0  0  0  0  0  0  0  0  0  0
    9.4842   -0.4769    0.0000 H   0  0  0  0  0  0  0  0  0  0  0  0
   10.3312   -0.2500    0.0000 H   0  0  0  0  0  0  0  0  0  0  0  0
   10.1042    0.5969    0.0000 H   0  0  0  0  0  0  0  0  0  0  0  0
    7.7522    0.5969    0.0000 H   0  0  0  0  0  0  0  0  0  0  0  0
    7.5252   -0.2500    0.0000 H   0  0  0  0  0  0  0  0  0  0  0  0
    8.3722   -0.4769    0.0000 H   0  0  0  0  0  0  0  0  0  0  0  0
    7.5252    3.3700    0.0000 H   0  0  0  0  0  0  0  0  0  0  0  0
    6.3301    2.6800    0.0000 H   0  0  0  0  0  0  0  0  0  0  0  0
    3.9875    2.1677    0.0000 H   0  0  0  0  0  0  0  0  0  0  0  0
    4.3860    1.4774    0.0000 H   0  0  0  0  0  0  0  0  0  0  0  0
    4.5981    3.6800    0.0000 H   0  0  0  0  0  0  0  0  0  0  0  0
    4.0611    0.3700    0.0000 H   0  0  0  0  0  0  0  0  0  0  0  0
    4.8101   -1.5226    0.0000 H   0  0  0  0  0  0  0  0  0  0  0  0
    5.2087   -0.8323    0.0000 H   0  0  0  0  0  0  0  0  0  0  0  0
    3.5200   -0.8574    0.0000 H   0  0  0  0  0  0  0  0  0  0  0  0
    3.1215   -1.5477    0.0000 H   0  0  0  0  0  0  0  0  0  0  0  0
    7.5252    4.7500    0.0000 H   0  0  0  0  0  0  0  0  0  0  0  0
   10.3312    6.3700    0.0000 H   0  0  0  0  0  0  0  0  0  0  0  0
    7.5252    6.3700    0.0000 H   0  0  0  0  0  0  0  0  0  0  0  0
    8.9282    7.1800    0.0000 H   0  0  0  0  0  0  0  0  0  0  0  0
   10.1233    3.2500    0.0000 H   0  0  0  0  0  0  0  0  0  0  0  0
    2.3291   -4.2500    0.0000 H   0  0  0  0  0  0  0  0  0  0  0  0
    5.1350   -4.2500    0.0000 H   0  0  0  0  0  0  0  0  0  0  0  0
   12.9292    4.8700    0.0000 H   0  0  0  0  0  0  0  0  0  0  0  0
   11.5263    2.4400    0.0000 H   0  0  0  0  0  0  0  0  0  0  0  0
   12.9292    3.2500    0.0000 H   0  0  0  0  0  0  0  0  0  0  0  0
   12.9292    6.2500    0.0000 H   0  0  0  0  0  0  0  0  0  0  0  0
    2.8660   -6.5600    0.0000 H   0  0  0  0  0  0  0  0  0  0  0  0
  1 25  1  0  0  0  0
  2 25  1  0  0  0  0
  3 37  1  0  0  0  0
  4 38  1  0  0  0  0
  5 18  2  0  0  0  0
  6 23  2  0  0  0  0
  7 24  2  0  0  0  0
  8 46  1  0  0  0  0
  8 79  1  0  0  0  0
  9 46  2  0  0  0  0
 10 47  1  0  0  0  0
 10 80  1  0  0  0  0
 11 47  2  0  0  0  0
 16 12  1  1  0  0  0
 12 24  1  0  0  0  0
 12 59  1  0  0  0  0
 13 18  1  0  0  0  0
 19 13  1  6  0  0  0
 13 60  1  0  0  0  0
 14 23  1  0  0  0  0
 14 27  1  0  0  0  0
 14 64  1  0  0  0  0
 15 16  1  0  0  0  0
 15 17  1  0  0  0  0
 15 48  1  0  0  0  0
 15 49  1  0  0  0  0
 16 18  1  0  0  0  0
 16 50  1  0  0  0  0
 17 20  1  0  0  0  0
 17 21  1  0  0  0  0
 17 51  1  0  0  0  0
 19 22  1  0  0  0  0
 19 23  1  0  0  0  0
 19 52  1  0  0  0  0
 20 53  1  0  0  0  0
 20 54  1  0  0  0  0
 20 55  1  0  0  0  0
 21 56  1  0  0  0  0
 21 57  1  0  0  0  0
 21 58  1  0  0  0  0
 22 25  1  0  0  0  0
 22 61  1  0  0  0  0
 22 62  1  0  0  0  0
 24 26  1  0  0  0  0
 25 63  1  0  0  0  0
 26 29  1  0  0  0  0
 26 30  2  0  0  0  0
 27 28  1  0  0  0  0
 27 65  1  0  0  0  0
 27 66  1  0  0  0  0
 28 31  1  0  0  0  0
 28 67  1  0  0  0  0
 28 68  1  0  0  0  0
 29 32  1  0  0  0  0
 29 33  2  0  0  0  0
 30 34  1  0  0  0  0
 30 69  1  0  0  0  0
 31 37  2  0  0  0  0
 31 38  1  0  0  0  0
 32 36  1  0  0  0  0
 32 39  2  0  0  0  0
 33 35  1  0  0  0  0
 33 70  1  0  0  0  0
 34 35  2  0  0  0  0
 34 71  1  0  0  0  0
 35 72  1  0  0  0  0
 36 42  2  0  0  0  0
 36 46  1  0  0  0  0
 37 40  1  0  0  0  0
 38 41  2  0  0  0  0
 39 44  1  0  0  0  0
 39 73  1  0  0  0  0
 40 43  2  0  0  0  0
 40 74  1  0  0  0  0
 41 43  1  0  0  0  0
 41 75  1  0  0  0  0
 42 45  1  0  0  0  0
 42 76  1  0  0  0  0
 43 47  1  0  0  0  0
 44 45  2  0  0  0  0
 44 77  1  0  0  0  0
 45 78  1  0  0  0  0
M  END
> <PUBCHEM_COMPOUND_CID>
507720
> <PUBCHEM_COMPOUND_CANONICALIZED>
1
> <PUBCHEM_CACTVS_COMPLEXITY>
1080
> <PUBCHEM_CACTVS_HBOND_ACCEPTOR>
11
> <PUBCHEM_CACTVS_HBOND_DONOR>
5
> <PUBCHEM_CACTVS_ROTATABLE_BOND>
15
> <PUBCHEM_CACTVS_SUBSKEYS>
AAADcfB/OcAAAAAAAAAAAAAAAAAAAAAAAAAwYMAAAAAAAAABUAAAHwAQCAAADSjBmBwyCILAAgCIAiHSGACCAAAkAAAIiIGIDMgIZjKAlTGUcQhk1gGImYeYyPCOwAAAAAAQAACAAAAAACAAAAAAAAAAAA==
> <PUBCHEM_IUPAC_OPENEYE_NAME>
4-[2-[[(2S)-2-[[(2S)-2-[[2-(2-carboxyphenyl)benzoyl]amino]-4-methyl-pentanoyl]amino]-4,4-difluoro-butanoyl]amino]ethyl]-3,5-difluoro-benzoic acid
> <PUBCHEM_IUPAC_CAS_NAME>
4-[2-[[(2S)-2-[[(2S)-2-[[[2-(2-carboxyphenyl)phenyl]-oxomethyl]amino]-4-methyl-1-oxopentyl]amino]-4,4-difluoro-1-oxobutyl]amino]ethyl]-3,5-difluorobenzoic acid
> <PUBCHEM_IUPAC_NAME_MARKUP>
4-[2-[[(2<I>S</I>)-2-[[(2<I>S</I>)-2-[[2-(2-carboxyphenyl)benzoyl]amino]-4-methylpentanoyl]amino]-4,4-difluorobutanoyl]amino]ethyl]-3,5-difluorobenzoic acid
> <PUBCHEM_IUPAC_NAME>
4-[2-[[(2S)-2-[[(2S)-2-[[2-(2-carboxyphenyl)benzoyl]amino]-4-methylpentanoyl]amino]-4,4-difluorobutanoyl]amino]ethyl]-3,5-difluorobenzoic acid
> <PUBCHEM_IUPAC_SYSTEMATIC_NAME>
4-[2-[[(2S)-2-[[(2S)-2-[[2-(2-carboxyphenyl)phenyl]carbonylamino]-4-methyl-pentanoyl]amino]-4,4-bis(fluoranyl)butanoyl]amino]ethyl]-3,5-bis(fluoranyl)benzoic acid
> <PUBCHEM_IUPAC_TRADITIONAL_NAME>
4-[2-[[(2S)-2-[[(2S)-2-[[2-(2-carboxyphenyl)benzoyl]amino]-4-methyl-pentanoyl]amino]-4,4-difluoro-butanoyl]amino]ethyl]-3,5-difluoro-benzoic acid
> <PUBCHEM_IUPAC_INCHI>
InChI=1S/C33H33F4N3O7/c1-17(2)13-26(39-29(41)21-9-5-3-7-19(21)20-8-4-6-10-22(20)33(46)47)31(43)40-27(16-28(36)37)30(42)38-12-11-23-24(34)14-18(32(44)45)15-25(23)35/h3-10,14-15,17,26-28H,11-13,16H2,1-2H3,(H,38,42)(H,39,41)(H,40,43)(H,44,45)(H,46,47)/t26-,27-/m0/s1
> <PUBCHEM_IUPAC_INCHIKEY>
RHRSGZXDOLIEGN-SVBPBHIXSA-N
> <PUBCHEM_XLOGP3_AA>
5.7
> <PUBCHEM_EXACT_MASS>
659.22546305
> <PUBCHEM_MOLECULAR_FORMULA>
C33H33F4N3O7
> <PUBCHEM_MOLECULAR_WEIGHT>
659.6
> <PUBCHEM_OPENEYE_CAN_SMILES>
CC(C)CC(C(=O)NC(CC(F)F)C(=O)NCCC1=C(C=C(C=C1F)C(=O)O)F)NC(=O)C2=CC=CC=C2C3=CC=CC=C3C(=O)O
> <PUBCHEM_OPENEYE_ISO_SMILES>
CC(C)C[C@@H](C(=O)N[C@@H](CC(F)F)C(=O)NCCC1=C(C=C(C=C1F)C(=O)O)F)NC(=O)C2=CC=CC=C2C3=CC=CC=C3C(=O)O
> <PUBCHEM_CACTVS_TPSA>
162
> <PUBCHEM_MONOISOTOPIC_WEIGHT>
659.22546305
> <PUBCHEM_TOTAL_CHARGE>
0
> <PUBCHEM_HEAVY_ATOM_COUNT>
47
> <PUBCHEM_ATOM_DEF_STEREO_COUNT>
2
> <PUBCHEM_ATOM_UDEF_STEREO_COUNT>
0
> <PUBCHEM_BOND_DEF_STEREO_COUNT>
0
> <PUBCHEM_BOND_UDEF_STEREO_COUNT>
0
> <PUBCHEM_ISOTOPIC_ATOM_COUNT>
0
> <PUBCHEM_COMPONENT_COUNT>
1
> <PUBCHEM_CACTVS_TAUTO_COUNT>
-1
> <PUBCHEM_COORDINATE_TYPE>
1
5
255
> <PUBCHEM_BONDANNOTATIONS>
16  12  5
19  13  6
26  29  8
26  30  8
29  33  8
30  34  8
31  37  8
31  38  8
32  36  8
32  39  8
33  35  8
34  35  8
36  42  8
37  40  8
38  41  8
39  44  8
40  43  8
41  43  8
42  45  8
44  45  8
$$$$
