507756
  -OEChem-10302200282D
 59 62  0     1  0  0  0  0  0999 V2000
    3.7320   -0.4083    0.0000 S   0  0  0  0  0  0  0  0  0  0  0  0
    7.5013   -1.1911    0.0000 O   0  0  0  0  0  0  0  0  0  0  0  0
    7.4083    4.0996    0.0000 O   0  0  0  0  0  0  0  0  0  0  0  0
    5.1871    0.0913    0.0000 O   0  0  0  0  0  0  0  0  0  0  0  0
    3.7320   -4.4083    0.0000 O   0  0  0  0  0  0  0  0  0  0  0  0
    7.1441    0.5037    0.0000 N   0  0  0  0  0  0  0  0  0  0  0  0
    7.7654    2.4048    0.0000 N   0  0  0  0  0  0  0  0  0  0  0  0
    5.5443   -3.2130    0.0000 N   0  0  0  0  0  0  0  0  0  0  0  0
    3.7320   -3.4083    0.0000 N   0  0  0  0  0  0  0  0  0  0  0  0
    8.1226    0.7100    0.0000 C   0  0  1  0  0  0  0  0  0  0  0  0
    8.4333    1.6605    0.0000 C   0  0  0  0  0  0  0  0  0  0  0  0
    6.4763    1.2480    0.0000 C   0  0  0  0  0  0  0  0  0  0  0  0
    6.7870    2.1986    0.0000 C   0  0  0  0  0  0  0  0  0  0  0  0
    8.7905   -0.0343    0.0000 C   0  0  0  0  0  0  0  0  0  0  0  0
    6.8335   -0.4468    0.0000 C   0  0  0  0  0  0  0  0  0  0  0  0
    8.0761    3.3553    0.0000 C   0  0  0  0  0  0  0  0  0  0  0  0
    5.8550   -0.6530    0.0000 C   0  0  0  0  0  0  0  0  0  0  0  0
    9.0546    3.5615    0.0000 C   0  0  0  0  0  0  0  0  0  0  0  0
    5.5443   -1.6035    0.0000 C   0  0  0  0  0  0  0  0  0  0  0  0
    4.5981   -1.9083    0.0000 C   0  0  0  0  0  0  0  0  0  0  0  0
    4.5981   -2.9083    0.0000 C   0  0  0  0  0  0  0  0  0  0  0  0
    6.1279   -2.4083    0.0000 C   0  0  0  0  0  0  0  0  0  0  0  0
    9.3653    4.5120    0.0000 C   0  0  0  0  0  0  0  0  0  0  0  0
    9.7225    2.8172    0.0000 C   0  0  0  0  0  0  0  0  0  0  0  0
    3.7320   -1.4083    0.0000 C   0  0  0  0  0  0  0  0  0  0  0  0
    2.8660   -1.9083    0.0000 C   0  0  0  0  0  0  0  0  0  0  0  0
   10.3438    4.7183    0.0000 C   0  0  0  0  0  0  0  0  0  0  0  0
   10.7010    3.0234    0.0000 C   0  0  0  0  0  0  0  0  0  0  0  0
    2.8660   -2.9083    0.0000 C   0  0  0  0  0  0  0  0  0  0  0  0
   11.0116    3.9740    0.0000 C   0  0  0  0  0  0  0  0  0  0  0  0
    2.8660    0.0917    0.0000 C   0  0  0  0  0  0  0  0  0  0  0  0
    2.8660    1.0917    0.0000 C   0  0  0  0  0  0  0  0  0  0  0  0
    2.0000    1.5917    0.0000 C   0  0  0  0  0  0  0  0  0  0  0  0
    7.9300    0.1206    0.0000 H   0  0  0  0  0  0  0  0  0  0  0  0
    8.9802    1.3685    0.0000 H   0  0  0  0  0  0  0  0  0  0  0  0
    8.8158    2.1484    0.0000 H   0  0  0  0  0  0  0  0  0  0  0  0
    5.9294    1.5401    0.0000 H   0  0  0  0  0  0  0  0  0  0  0  0
    6.0937    0.7601    0.0000 H   0  0  0  0  0  0  0  0  0  0  0  0
    6.7664    2.8182    0.0000 H   0  0  0  0  0  0  0  0  0  0  0  0
    6.1731    2.2859    0.0000 H   0  0  0  0  0  0  0  0  0  0  0  0
    8.3290   -0.4484    0.0000 H   0  0  0  0  0  0  0  0  0  0  0  0
    9.2045   -0.4958    0.0000 H   0  0  0  0  0  0  0  0  0  0  0  0
    9.2519    0.3797    0.0000 H   0  0  0  0  0  0  0  0  0  0  0  0
    6.7479   -2.4083    0.0000 H   0  0  0  0  0  0  0  0  0  0  0  0
    8.9512    4.9735    0.0000 H   0  0  0  0  0  0  0  0  0  0  0  0
    9.5298    2.2279    0.0000 H   0  0  0  0  0  0  0  0  0  0  0  0
    2.3291   -1.5983    0.0000 H   0  0  0  0  0  0  0  0  0  0  0  0
   10.5364    5.3076    0.0000 H   0  0  0  0  0  0  0  0  0  0  0  0
   11.1150    2.5620    0.0000 H   0  0  0  0  0  0  0  0  0  0  0  0
    2.3291   -3.2183    0.0000 H   0  0  0  0  0  0  0  0  0  0  0  0
   11.6183    4.1018    0.0000 H   0  0  0  0  0  0  0  0  0  0  0  0
    2.2554    0.1994    0.0000 H   0  0  0  0  0  0  0  0  0  0  0  0
    2.6540   -0.4909    0.0000 H   0  0  0  0  0  0  0  0  0  0  0  0
    3.4766    0.9841    0.0000 H   0  0  0  0  0  0  0  0  0  0  0  0
    3.0781    1.6744    0.0000 H   0  0  0  0  0  0  0  0  0  0  0  0
    3.1951   -4.7183    0.0000 H   0  0  0  0  0  0  0  0  0  0  0  0
    2.3100    2.1287    0.0000 H   0  0  0  0  0  0  0  0  0  0  0  0
    1.4631    1.9017    0.0000 H   0  0  0  0  0  0  0  0  0  0  0  0
    1.6900    1.0548    0.0000 H   0  0  0  0  0  0  0  0  0  0  0  0
  1 25  1  0  0  0  0
  1 31  1  0  0  0  0
  2 15  2  0  0  0  0
  3 16  2  0  0  0  0
  4 17  2  0  0  0  0
  5  9  1  0  0  0  0
  5 56  1  0  0  0  0
  6 10  1  0  0  0  0
  6 12  1  0  0  0  0
  6 15  1  0  0  0  0
  7 11  1  0  0  0  0
  7 13  1  0  0  0  0
  7 16  1  0  0  0  0
  8 21  2  0  0  0  0
  8 22  1  0  0  0  0
  9 21  1  0  0  0  0
  9 29  1  0  0  0  0
 10 11  1  0  0  0  0
 10 14  1  1  0  0  0
 10 34  1  0  0  0  0
 11 35  1  0  0  0  0
 11 36  1  0  0  0  0
 12 13  1  0  0  0  0
 12 37  1  0  0  0  0
 12 38  1  0  0  0  0
 13 39  1  0  0  0  0
 13 40  1  0  0  0  0
 14 41  1  0  0  0  0
 14 42  1  0  0  0  0
 14 43  1  0  0  0  0
 15 17  1  0  0  0  0
 16 18  1  0  0  0  0
 17 19  1  0  0  0  0
 18 23  2  0  0  0  0
 18 24  1  0  0  0  0
 19 20  1  0  0  0  0
 19 22  2  0  0  0  0
 20 21  1  0  0  0  0
 20 25  2  0  0  0  0
 22 44  1  0  0  0  0
 23 27  1  0  0  0  0
 23 45  1  0  0  0  0
 24 28  2  0  0  0  0
 24 46  1  0  0  0  0
 25 26  1  0  0  0  0
 26 29  2  0  0  0  0
 26 47  1  0  0  0  0
 27 30  2  0  0  0  0
 27 48  1  0  0  0  0
 28 30  1  0  0  0  0
 28 49  1  0  0  0  0
 29 50  1  0  0  0  0
 30 51  1  0  0  0  0
 31 32  1  0  0  0  0
 31 52  1  0  0  0  0
 31 53  1  0  0  0  0
 32 33  1  0  0  0  0
 32 54  1  0  0  0  0
 32 55  1  0  0  0  0
 33 57  1  0  0  0  0
 33 58  1  0  0  0  0
 33 59  1  0  0  0  0
M  END
> <PUBCHEM_COMPOUND_CID>
507756
> <PUBCHEM_COMPOUND_CANONICALIZED>
1
> <PUBCHEM_CACTVS_COMPLEXITY>
731
> <PUBCHEM_CACTVS_HBOND_ACCEPTOR>
6
> <PUBCHEM_CACTVS_HBOND_DONOR>
1
> <PUBCHEM_CACTVS_ROTATABLE_BOND>
6
> <PUBCHEM_CACTVS_SUBSKEYS>
AAADceB7uABAAAAAAAAAAAAAAAAAAWAAAAA8WIAAAAAAAFgBwAAAHgQECAAADCzF2wS/sd8YEAioArN3dACCgCk1CrAp2Dm4ZNiIaHrgnbGUIYxohgLoyecciQCOgAAAAAAAAAAAAAAAAAAAAAAAAAAAAA==
> <PUBCHEM_IUPAC_OPENEYE_NAME>
1-[(2R)-4-benzoyl-2-methyl-piperazin-1-yl]-2-(7-hydroxy-4-propylsulfanyl-pyrrolo[2,3-b]pyridin-3-yl)ethane-1,2-dione
> <PUBCHEM_IUPAC_CAS_NAME>
1-[(2R)-4-benzoyl-2-methyl-1-piperazinyl]-2-[7-hydroxy-4-(propylthio)-3-pyrrolo[2,3-b]pyridinyl]ethane-1,2-dione
> <PUBCHEM_IUPAC_NAME_MARKUP>
1-[(2<I>R</I>)-4-benzoyl-2-methylpiperazin-1-yl]-2-(7-hydroxy-4-propylsulfanylpyrrolo[2,3-b]pyridin-3-yl)ethane-1,2-dione
> <PUBCHEM_IUPAC_NAME>
1-[(2R)-4-benzoyl-2-methylpiperazin-1-yl]-2-(7-hydroxy-4-propylsulfanylpyrrolo[2,3-b]pyridin-3-yl)ethane-1,2-dione
> <PUBCHEM_IUPAC_SYSTEMATIC_NAME>
1-[(2R)-2-methyl-4-(phenylcarbonyl)piperazin-1-yl]-2-(7-oxidanyl-4-propylsulfanyl-pyrrolo[2,3-b]pyridin-3-yl)ethane-1,2-dione
> <PUBCHEM_IUPAC_TRADITIONAL_NAME>
1-[(2R)-4-benzoyl-2-methyl-piperazino]-2-[7-hydroxy-4-(propylthio)pyrrolo[2,3-b]pyridin-3-yl]ethane-1,2-dione
> <PUBCHEM_IUPAC_INCHI>
InChI=1S/C24H26N4O4S/c1-3-13-33-19-9-10-28(32)22-20(19)18(14-25-22)21(29)24(31)27-12-11-26(15-16(27)2)23(30)17-7-5-4-6-8-17/h4-10,14,16,32H,3,11-13,15H2,1-2H3/t16-/m1/s1
> <PUBCHEM_IUPAC_INCHIKEY>
BNRDRESGARHAHB-MRXNPFEDSA-N
> <PUBCHEM_XLOGP3_AA>
3.2
> <PUBCHEM_EXACT_MASS>
466.16747650
> <PUBCHEM_MOLECULAR_FORMULA>
C24H26N4O4S
> <PUBCHEM_MOLECULAR_WEIGHT>
466.6
> <PUBCHEM_OPENEYE_CAN_SMILES>
CCCSC1=C2C(=CN=C2N(C=C1)O)C(=O)C(=O)N3CCN(CC3C)C(=O)C4=CC=CC=C4
> <PUBCHEM_OPENEYE_ISO_SMILES>
CCCSC1=C2C(=CN=C2N(C=C1)O)C(=O)C(=O)N3CCN(C[C@H]3C)C(=O)C4=CC=CC=C4
> <PUBCHEM_CACTVS_TPSA>
121
> <PUBCHEM_MONOISOTOPIC_WEIGHT>
466.16747650
> <PUBCHEM_TOTAL_CHARGE>
0
> <PUBCHEM_HEAVY_ATOM_COUNT>
33
> <PUBCHEM_ATOM_DEF_STEREO_COUNT>
1
> <PUBCHEM_ATOM_UDEF_STEREO_COUNT>
0
> <PUBCHEM_BOND_DEF_STEREO_COUNT>
0
> <PUBCHEM_BOND_UDEF_STEREO_COUNT>
0
> <PUBCHEM_ISOTOPIC_ATOM_COUNT>
0
> <PUBCHEM_COMPONENT_COUNT>
1
> <PUBCHEM_CACTVS_TAUTO_COUNT>
-1
> <PUBCHEM_COORDINATE_TYPE>
1
5
255
> <PUBCHEM_BONDANNOTATIONS>
10  14  5
18  23  8
18  24  8
19  20  8
19  22  8
20  25  8
23  27  8
24  28  8
25  26  8
26  29  8
27  30  8
28  30  8
8  21  8
8  22  8
9  21  8
9  29  8
$$$$
