507731
  -OEChem-10302200282D
 75 77  0     1  0  0  0  0  0999 V2000
    7.1962    3.0000    0.0000 S   0  0  0  0  0  0  0  0  0  0  0  0
    6.1962    3.0000    0.0000 O   0  0  0  0  0  0  0  0  0  0  0  0
    8.1962    3.0000    0.0000 O   0  0  0  0  0  0  0  0  0  0  0  0
    7.1962    0.0000    0.0000 O   0  0  0  0  0  0  0  0  0  0  0  0
    6.3301   -2.5000    0.0000 O   0  0  0  0  0  0  0  0  0  0  0  0
    7.1962   -1.0000    0.0000 O   0  0  0  0  0  0  0  0  0  0  0  0
    7.1962    4.0000    0.0000 N   0  0  0  0  0  0  0  0  0  0  0  0
    7.1962    2.0000    0.0000 N   0  0  3  0  0  0  0  0  0  0  0  0
    5.4641   -1.0000    0.0000 N   0  0  0  0  0  0  0  0  0  0  0  0
    6.3301    4.5000    0.0000 C   0  0  0  0  0  0  0  0  0  0  0  0
    8.0622    4.5000    0.0000 C   0  0  0  0  0  0  0  0  0  0  0  0
    6.3301    5.5000    0.0000 C   0  0  0  0  0  0  0  0  0  0  0  0
    8.0622    5.5000    0.0000 C   0  0  0  0  0  0  0  0  0  0  0  0
    7.1962    6.0000    0.0000 C   0  0  0  0  0  0  0  0  0  0  0  0
    6.3301    1.5000    0.0000 C   0  0  0  0  0  0  0  0  0  0  0  0
    8.0622    1.5000    0.0000 C   0  0  0  0  0  0  0  0  0  0  0  0
    6.3301    0.5000    0.0000 C   0  0  2  0  0  0  0  0  0  0  0  0
    5.4641    0.0000    0.0000 C   0  0  2  0  0  0  0  0  0  0  0  0
    8.9282    2.0000    0.0000 C   0  0  0  0  0  0  0  0  0  0  0  0
    4.5981    0.5000    0.0000 C   0  0  0  0  0  0  0  0  0  0  0  0
    9.7942    1.5000    0.0000 C   0  0  0  0  0  0  0  0  0  0  0  0
    8.9282    3.0000    0.0000 C   0  0  0  0  0  0  0  0  0  0  0  0
    3.7320   -0.0000    0.0000 C   0  0  0  0  0  0  0  0  0  0  0  0
    6.3301   -1.5000    0.0000 C   0  0  0  0  0  0  0  0  0  0  0  0
    3.7320   -1.0000    0.0000 C   0  0  0  0  0  0  0  0  0  0  0  0
    2.8660    0.5000    0.0000 C   0  0  0  0  0  0  0  0  0  0  0  0
    2.8660   -1.5000    0.0000 C   0  0  0  0  0  0  0  0  0  0  0  0
    2.0000    0.0000    0.0000 C   0  0  0  0  0  0  0  0  0  0  0  0
    2.0000   -1.0000    0.0000 C   0  0  0  0  0  0  0  0  0  0  0  0
    7.1962   -3.0000    0.0000 C   0  0  0  0  0  0  0  0  0  0  0  0
    7.1962   -4.0000    0.0000 C   0  0  0  0  0  0  0  0  0  0  0  0
    8.0622   -4.5000    0.0000 C   0  0  0  0  0  0  0  0  0  0  0  0
    6.3301   -4.5000    0.0000 C   0  0  0  0  0  0  0  0  0  0  0  0
    8.0622   -5.5000    0.0000 C   0  0  0  0  0  0  0  0  0  0  0  0
    6.3301   -5.5000    0.0000 C   0  0  0  0  0  0  0  0  0  0  0  0
    7.1962   -6.0000    0.0000 C   0  0  0  0  0  0  0  0  0  0  0  0
    5.7196    4.6077    0.0000 H   0  0  0  0  0  0  0  0  0  0  0  0
    6.1181    3.9174    0.0000 H   0  0  0  0  0  0  0  0  0  0  0  0
    8.2742    3.9174    0.0000 H   0  0  0  0  0  0  0  0  0  0  0  0
    8.6728    4.6077    0.0000 H   0  0  0  0  0  0  0  0  0  0  0  0
    6.1181    6.0826    0.0000 H   0  0  0  0  0  0  0  0  0  0  0  0
    5.7196    5.3923    0.0000 H   0  0  0  0  0  0  0  0  0  0  0  0
    8.6728    5.3923    0.0000 H   0  0  0  0  0  0  0  0  0  0  0  0
    8.2742    6.0826    0.0000 H   0  0  0  0  0  0  0  0  0  0  0  0
    7.5947    6.4750    0.0000 H   0  0  0  0  0  0  0  0  0  0  0  0
    6.7976    6.4750    0.0000 H   0  0  0  0  0  0  0  0  0  0  0  0
    6.1181    2.0826    0.0000 H   0  0  0  0  0  0  0  0  0  0  0  0
    5.7196    1.3923    0.0000 H   0  0  0  0  0  0  0  0  0  0  0  0
    7.6636    1.0250    0.0000 H   0  0  0  0  0  0  0  0  0  0  0  0
    8.4607    1.0250    0.0000 H   0  0  0  0  0  0  0  0  0  0  0  0
    6.8671    0.8100    0.0000 H   0  0  0  0  0  0  0  0  0  0  0  0
    6.0010   -0.3100    0.0000 H   0  0  0  0  0  0  0  0  0  0  0  0
    9.4651    2.3100    0.0000 H   0  0  0  0  0  0  0  0  0  0  0  0
    4.9966    0.9749    0.0000 H   0  0  0  0  0  0  0  0  0  0  0  0
    4.1996    0.9749    0.0000 H   0  0  0  0  0  0  0  0  0  0  0  0
    9.4842    0.9631    0.0000 H   0  0  0  0  0  0  0  0  0  0  0  0
   10.3312    1.1900    0.0000 H   0  0  0  0  0  0  0  0  0  0  0  0
   10.1042    2.0369    0.0000 H   0  0  0  0  0  0  0  0  0  0  0  0
    9.5482    3.0000    0.0000 H   0  0  0  0  0  0  0  0  0  0  0  0
    8.9282    3.6200    0.0000 H   0  0  0  0  0  0  0  0  0  0  0  0
    8.3082    3.0000    0.0000 H   0  0  0  0  0  0  0  0  0  0  0  0
    4.9272   -1.3100    0.0000 H   0  0  0  0  0  0  0  0  0  0  0  0
    7.7331    0.3100    0.0000 H   0  0  0  0  0  0  0  0  0  0  0  0
    4.2690   -1.3100    0.0000 H   0  0  0  0  0  0  0  0  0  0  0  0
    2.8660    1.1200    0.0000 H   0  0  0  0  0  0  0  0  0  0  0  0
    2.8660   -2.1200    0.0000 H   0  0  0  0  0  0  0  0  0  0  0  0
    1.4631    0.3100    0.0000 H   0  0  0  0  0  0  0  0  0  0  0  0
    1.4631   -1.3100    0.0000 H   0  0  0  0  0  0  0  0  0  0  0  0
    7.8067   -3.1077    0.0000 H   0  0  0  0  0  0  0  0  0  0  0  0
    7.4082   -2.4174    0.0000 H   0  0  0  0  0  0  0  0  0  0  0  0
    8.5991   -4.1900    0.0000 H   0  0  0  0  0  0  0  0  0  0  0  0
    5.7932   -4.1900    0.0000 H   0  0  0  0  0  0  0  0  0  0  0  0
    8.5991   -5.8100    0.0000 H   0  0  0  0  0  0  0  0  0  0  0  0
    5.7932   -5.8100    0.0000 H   0  0  0  0  0  0  0  0  0  0  0  0
    7.1962   -6.6200    0.0000 H   0  0  0  0  0  0  0  0  0  0  0  0
  1  2  2  0  0  0  0
  1  3  2  0  0  0  0
  1  7  1  0  0  0  0
  1  8  1  0  0  0  0
 17  4  1  1  0  0  0
  4 63  1  0  0  0  0
  5 24  1  0  0  0  0
  5 30  1  0  0  0  0
  6 24  2  0  0  0  0
  7 10  1  0  0  0  0
  7 11  1  0  0  0  0
  8 15  1  0  0  0  0
  8 16  1  0  0  0  0
 18  9  1  1  0  0  0
  9 24  1  0  0  0  0
  9 62  1  0  0  0  0
 10 12  1  0  0  0  0
 10 37  1  0  0  0  0
 10 38  1  0  0  0  0
 11 13  1  0  0  0  0
 11 39  1  0  0  0  0
 11 40  1  0  0  0  0
 12 14  1  0  0  0  0
 12 41  1  0  0  0  0
 12 42  1  0  0  0  0
 13 14  1  0  0  0  0
 13 43  1  0  0  0  0
 13 44  1  0  0  0  0
 14 45  1  0  0  0  0
 14 46  1  0  0  0  0
 15 17  1  0  0  0  0
 15 47  1  0  0  0  0
 15 48  1  0  0  0  0
 16 19  1  0  0  0  0
 16 49  1  0  0  0  0
 16 50  1  0  0  0  0
 17 18  1  0  0  0  0
 17 51  1  0  0  0  0
 18 20  1  0  0  0  0
 18 52  1  0  0  0  0
 19 21  1  0  0  0  0
 19 22  1  0  0  0  0
 19 53  1  0  0  0  0
 20 23  1  0  0  0  0
 20 54  1  0  0  0  0
 20 55  1  0  0  0  0
 21 56  1  0  0  0  0
 21 57  1  0  0  0  0
 21 58  1  0  0  0  0
 22 59  1  0  0  0  0
 22 60  1  0  0  0  0
 22 61  1  0  0  0  0
 23 25  2  0  0  0  0
 23 26  1  0  0  0  0
 25 27  1  0  0  0  0
 25 64  1  0  0  0  0
 26 28  2  0  0  0  0
 26 65  1  0  0  0  0
 27 29  2  0  0  0  0
 27 66  1  0  0  0  0
 28 29  1  0  0  0  0
 28 67  1  0  0  0  0
 29 68  1  0  0  0  0
 30 31  1  0  0  0  0
 30 69  1  0  0  0  0
 30 70  1  0  0  0  0
 31 32  2  0  0  0  0
 31 33  1  0  0  0  0
 32 34  1  0  0  0  0
 32 71  1  0  0  0  0
 33 35  2  0  0  0  0
 33 72  1  0  0  0  0
 34 36  2  0  0  0  0
 34 73  1  0  0  0  0
 35 36  1  0  0  0  0
 35 74  1  0  0  0  0
 36 75  1  0  0  0  0
M  END
> <PUBCHEM_COMPOUND_CID>
507731
> <PUBCHEM_COMPOUND_CANONICALIZED>
1
> <PUBCHEM_CACTVS_COMPLEXITY>
739
> <PUBCHEM_CACTVS_HBOND_ACCEPTOR>
7
> <PUBCHEM_CACTVS_HBOND_DONOR>
2
> <PUBCHEM_CACTVS_ROTATABLE_BOND>
13
> <PUBCHEM_CACTVS_SUBSKEYS>
AAADcfB7OABAAAAAAAAAAAAAAAAAAAAAAAA8YIAAAAAAAAABQAAAHgAQSAAADTzhmAYyCILABgCIAiBCGDACAAAgAAAIiIAICIkKNiKA8RmMcAAk1gGYqAeQwKAOAAAAAAAAAAAAAAAAAAAAAAAAAAAAAA==
> <PUBCHEM_IUPAC_OPENEYE_NAME>
benzyl N-[(1S,2R)-1-benzyl-2-hydroxy-3-[isobutyl(1-piperidylsulfonyl)amino]propyl]carbamate
> <PUBCHEM_IUPAC_CAS_NAME>
N-[(2S,3R)-3-hydroxy-4-[2-methylpropyl(1-piperidinylsulfonyl)amino]-1-phenylbutan-2-yl]carbamic acid (phenylmethyl) ester
> <PUBCHEM_IUPAC_NAME_MARKUP>
benzyl <I>N</I>-[(2<I>S</I>,3<I>R</I>)-3-hydroxy-4-[2-methylpropyl(piperidin-1-ylsulfonyl)amino]-1-phenylbutan-2-yl]carbamate
> <PUBCHEM_IUPAC_NAME>
benzyl N-[(2S,3R)-3-hydroxy-4-[2-methylpropyl(piperidin-1-ylsulfonyl)amino]-1-phenylbutan-2-yl]carbamate
> <PUBCHEM_IUPAC_SYSTEMATIC_NAME>
(phenylmethyl) N-[(2S,3R)-4-[2-methylpropyl(piperidin-1-ylsulfonyl)amino]-3-oxidanyl-1-phenyl-butan-2-yl]carbamate
> <PUBCHEM_IUPAC_TRADITIONAL_NAME>
N-[(1S,2R)-1-benzyl-2-hydroxy-3-[isobutyl(piperidinosulfonyl)amino]propyl]carbamic acid benzyl ester
> <PUBCHEM_IUPAC_INCHI>
InChI=1S/C27H39N3O5S/c1-22(2)19-30(36(33,34)29-16-10-5-11-17-29)20-26(31)25(18-23-12-6-3-7-13-23)28-27(32)35-21-24-14-8-4-9-15-24/h3-4,6-9,12-15,22,25-26,31H,5,10-11,16-21H2,1-2H3,(H,28,32)/t25-,26+/m0/s1
> <PUBCHEM_IUPAC_INCHIKEY>
UWHCRKAKOWYWSL-IZZNHLLZSA-N
> <PUBCHEM_XLOGP3_AA>
4.2
> <PUBCHEM_EXACT_MASS>
517.26104253
> <PUBCHEM_MOLECULAR_FORMULA>
C27H39N3O5S
> <PUBCHEM_MOLECULAR_WEIGHT>
517.7
> <PUBCHEM_OPENEYE_CAN_SMILES>
CC(C)CN(CC(C(CC1=CC=CC=C1)NC(=O)OCC2=CC=CC=C2)O)S(=O)(=O)N3CCCCC3
> <PUBCHEM_OPENEYE_ISO_SMILES>
CC(C)CN(C[C@H]([C@H](CC1=CC=CC=C1)NC(=O)OCC2=CC=CC=C2)O)S(=O)(=O)N3CCCCC3
> <PUBCHEM_CACTVS_TPSA>
108
> <PUBCHEM_MONOISOTOPIC_WEIGHT>
517.26104253
> <PUBCHEM_TOTAL_CHARGE>
0
> <PUBCHEM_HEAVY_ATOM_COUNT>
36
> <PUBCHEM_ATOM_DEF_STEREO_COUNT>
2
> <PUBCHEM_ATOM_UDEF_STEREO_COUNT>
0
> <PUBCHEM_BOND_DEF_STEREO_COUNT>
0
> <PUBCHEM_BOND_UDEF_STEREO_COUNT>
0
> <PUBCHEM_ISOTOPIC_ATOM_COUNT>
0
> <PUBCHEM_COMPONENT_COUNT>
1
> <PUBCHEM_CACTVS_TAUTO_COUNT>
-1
> <PUBCHEM_COORDINATE_TYPE>
1
5
255
> <PUBCHEM_BONDANNOTATIONS>
23  25  8
23  26  8
25  27  8
26  28  8
27  29  8
28  29  8
31  32  8
31  33  8
32  34  8
33  35  8
34  36  8
35  36  8
17  4  5
18  9  5
$$$$
