507705
  -OEChem-10302200282D
 84 87  0     1  0  0  0  0  0999 V2000
    5.1003   -0.6664    0.0000 S   0  0  0  0  0  0  0  0  0  0  0  0
   11.4476   -1.8906    0.0000 S   0  0  0  0  0  0  0  0  0  0  0  0
    5.9664   -4.3310    0.0000 O   0  0  0  0  0  0  0  0  0  0  0  0
    9.5160   -3.6986    0.0000 O   0  0  0  0  0  0  0  0  0  0  0  0
    4.9481    2.0059    0.0000 O   0  0  0  0  0  0  0  0  0  0  0  0
    9.0206   -0.1273    0.0000 O   0  0  0  0  0  0  0  0  0  0  0  0
    3.6610    0.8470    0.0000 O   0  0  0  0  0  0  0  0  0  0  0  0
   13.0929    5.4778    0.0000 O   0  0  0  0  0  0  0  0  0  0  0  0
   11.3703    5.6588    0.0000 O   0  0  0  0  0  0  0  0  0  0  0  0
    4.6783   -3.5534    0.0000 N   0  0  0  0  0  0  0  0  0  0  0  0
    6.9844   -2.9298    0.0000 N   0  0  0  0  0  0  0  0  0  0  0  0
    8.8115   -2.1163    0.0000 N   0  0  0  0  0  0  0  0  0  0  0  0
   10.7432   -0.3083    0.0000 N   0  0  0  0  0  0  0  0  0  0  0  0
    5.2619   -2.7487    0.0000 C   0  0  3  0  0  0  0  0  0  0  0  0
    4.6783   -1.9440    0.0000 C   0  0  0  0  0  0  0  0  0  0  0  0
    6.0709   -2.1609    0.0000 C   0  0  0  0  0  0  0  0  0  0  0  0
    3.7320   -2.2487    0.0000 C   0  0  0  0  0  0  0  0  0  0  0  0
    3.7320   -3.2487    0.0000 C   0  0  0  0  0  0  0  0  0  0  0  0
    6.0709   -3.3365    0.0000 C   0  0  0  0  0  0  0  0  0  0  0  0
    7.7935   -3.5176    0.0000 C   0  0  1  0  0  0  0  0  0  0  0  0
    5.9664   -1.1664    0.0000 C   0  0  0  0  0  0  0  0  0  0  0  0
    7.6889   -4.5121    0.0000 C   0  0  0  0  0  0  0  0  0  0  0  0
    2.8660   -1.7487    0.0000 C   0  0  0  0  0  0  0  0  0  0  0  0
    2.8660   -3.7487    0.0000 C   0  0  0  0  0  0  0  0  0  0  0  0
    8.4980   -5.0999    0.0000 C   0  0  0  0  0  0  0  0  0  0  0  0
    2.0000   -2.2487    0.0000 C   0  0  0  0  0  0  0  0  0  0  0  0
    8.7070   -3.1108    0.0000 C   0  0  0  0  0  0  0  0  0  0  0  0
    2.0000   -3.2487    0.0000 C   0  0  0  0  0  0  0  0  0  0  0  0
    6.7095   -0.4973    0.0000 C   0  0  0  0  0  0  0  0  0  0  0  0
    8.3934   -6.0944    0.0000 C   0  0  0  0  0  0  0  0  0  0  0  0
    9.4115   -4.6931    0.0000 C   0  0  0  0  0  0  0  0  0  0  0  0
    6.3028    0.4163    0.0000 C   0  0  0  0  0  0  0  0  0  0  0  0
    5.3082    0.3117    0.0000 C   0  0  0  0  0  0  0  0  0  0  0  0
    9.7251   -1.7096    0.0000 C   0  0  1  0  0  0  0  0  0  0  0  0
   10.5341   -2.2973    0.0000 C   0  0  0  0  0  0  0  0  0  0  0  0
    9.8296   -0.7150    0.0000 C   0  0  0  0  0  0  0  0  0  0  0  0
    4.6391    1.0549    0.0000 C   0  0  0  0  0  0  0  0  0  0  0  0
   10.8477    0.6862    0.0000 C   0  0  0  0  0  0  0  0  0  0  0  0
   11.7612    1.0930    0.0000 C   0  0  0  0  0  0  0  0  0  0  0  0
   11.8658    2.0875    0.0000 C   0  0  0  0  0  0  0  0  0  0  0  0
   11.0567    2.6753    0.0000 C   0  0  0  0  0  0  0  0  0  0  0  0
   12.7793    2.4942    0.0000 C   0  0  0  0  0  0  0  0  0  0  0  0
   11.1613    3.6698    0.0000 C   0  0  0  0  0  0  0  0  0  0  0  0
   12.8838    3.4887    0.0000 C   0  0  0  0  0  0  0  0  0  0  0  0
   12.0748    4.0765    0.0000 C   0  0  0  0  0  0  0  0  0  0  0  0
   12.1793    5.0710    0.0000 C   0  0  0  0  0  0  0  0  0  0  0  0
    5.2156   -1.6348    0.0000 H   0  0  0  0  0  0  0  0  0  0  0  0
    4.4272   -1.3771    0.0000 H   0  0  0  0  0  0  0  0  0  0  0  0
    6.3427   -2.7182    0.0000 H   0  0  0  0  0  0  0  0  0  0  0  0
    6.6669   -1.9900    0.0000 H   0  0  0  0  0  0  0  0  0  0  0  0
    4.8709   -4.1428    0.0000 H   0  0  0  0  0  0  0  0  0  0  0  0
    7.2271   -3.7697    0.0000 H   0  0  0  0  0  0  0  0  0  0  0  0
    7.0492   -2.3132    0.0000 H   0  0  0  0  0  0  0  0  0  0  0  0
    7.0930   -4.3412    0.0000 H   0  0  0  0  0  0  0  0  0  0  0  0
    7.4171   -5.0693    0.0000 H   0  0  0  0  0  0  0  0  0  0  0  0
    2.8660   -1.1287    0.0000 H   0  0  0  0  0  0  0  0  0  0  0  0
    2.8660   -4.3687    0.0000 H   0  0  0  0  0  0  0  0  0  0  0  0
    8.5628   -4.4833    0.0000 H   0  0  0  0  0  0  0  0  0  0  0  0
    1.4631   -1.9387    0.0000 H   0  0  0  0  0  0  0  0  0  0  0  0
    1.4631   -3.5587    0.0000 H   0  0  0  0  0  0  0  0  0  0  0  0
    7.3160   -0.6262    0.0000 H   0  0  0  0  0  0  0  0  0  0  0  0
    7.7768   -6.0296    0.0000 H   0  0  0  0  0  0  0  0  0  0  0  0
    8.3286   -6.7110    0.0000 H   0  0  0  0  0  0  0  0  0  0  0  0
    9.0100   -6.1592    0.0000 H   0  0  0  0  0  0  0  0  0  0  0  0
    9.6637   -5.2595    0.0000 H   0  0  0  0  0  0  0  0  0  0  0  0
    9.9779   -4.4410    0.0000 H   0  0  0  0  0  0  0  0  0  0  0  0
    9.1593   -4.1267    0.0000 H   0  0  0  0  0  0  0  0  0  0  0  0
    8.3099   -1.7519    0.0000 H   0  0  0  0  0  0  0  0  0  0  0  0
    6.6128    0.9532    0.0000 H   0  0  0  0  0  0  0  0  0  0  0  0
    9.6603   -2.3262    0.0000 H   0  0  0  0  0  0  0  0  0  0  0  0
   10.0881   -2.7280    0.0000 H   0  0  0  0  0  0  0  0  0  0  0  0
   10.8808   -2.8114    0.0000 H   0  0  0  0  0  0  0  0  0  0  0  0
   11.2447   -0.6727    0.0000 H   0  0  0  0  0  0  0  0  0  0  0  0
   10.6977    1.2878    0.0000 H   0  0  0  0  0  0  0  0  0  0  0  0
   10.2292    0.6430    0.0000 H   0  0  0  0  0  0  0  0  0  0  0  0
   11.9112    0.4914    0.0000 H   0  0  0  0  0  0  0  0  0  0  0  0
   12.3797    1.1362    0.0000 H   0  0  0  0  0  0  0  0  0  0  0  0
   11.9492   -2.2550    0.0000 H   0  0  0  0  0  0  0  0  0  0  0  0
    4.5333    2.4667    0.0000 H   0  0  0  0  0  0  0  0  0  0  0  0
   10.4903    2.4231    0.0000 H   0  0  0  0  0  0  0  0  0  0  0  0
   13.2809    2.1298    0.0000 H   0  0  0  0  0  0  0  0  0  0  0  0
   10.6597    4.0342    0.0000 H   0  0  0  0  0  0  0  0  0  0  0  0
   13.4502    3.7409    0.0000 H   0  0  0  0  0  0  0  0  0  0  0  0
   13.1577    6.0944    0.0000 H   0  0  0  0  0  0  0  0  0  0  0  0
  1 21  1  0  0  0  0
  1 33  1  0  0  0  0
  2 35  1  0  0  0  0
  2 78  1  0  0  0  0
  3 19  2  0  0  0  0
  4 27  2  0  0  0  0
  5 37  1  0  0  0  0
  5 79  1  0  0  0  0
  6 36  2  0  0  0  0
  7 37  2  0  0  0  0
  8 46  1  0  0  0  0
  8 84  1  0  0  0  0
  9 46  2  0  0  0  0
 10 14  1  0  0  0  0
 10 18  1  0  0  0  0
 10 51  1  0  0  0  0
 11 19  1  0  0  0  0
 20 11  1  6  0  0  0
 11 53  1  0  0  0  0
 12 27  1  0  0  0  0
 34 12  1  6  0  0  0
 12 68  1  0  0  0  0
 13 36  1  0  0  0  0
 13 38  1  0  0  0  0
 13 73  1  0  0  0  0
 14 15  1  0  0  0  0
 14 16  1  0  0  0  0
 14 19  1  0  0  0  0
 15 17  1  0  0  0  0
 15 47  1  0  0  0  0
 15 48  1  0  0  0  0
 16 21  1  0  0  0  0
 16 49  1  0  0  0  0
 16 50  1  0  0  0  0
 17 18  1  0  0  0  0
 17 23  2  0  0  0  0
 18 24  2  0  0  0  0
 20 22  1  0  0  0  0
 20 27  1  0  0  0  0
 20 52  1  0  0  0  0
 21 29  2  0  0  0  0
 22 25  1  0  0  0  0
 22 54  1  0  0  0  0
 22 55  1  0  0  0  0
 23 26  1  0  0  0  0
 23 56  1  0  0  0  0
 24 28  1  0  0  0  0
 24 57  1  0  0  0  0
 25 30  1  0  0  0  0
 25 31  1  0  0  0  0
 25 58  1  0  0  0  0
 26 28  2  0  0  0  0
 26 59  1  0  0  0  0
 28 60  1  0  0  0  0
 29 32  1  0  0  0  0
 29 61  1  0  0  0  0
 30 62  1  0  0  0  0
 30 63  1  0  0  0  0
 30 64  1  0  0  0  0
 31 65  1  0  0  0  0
 31 66  1  0  0  0  0
 31 67  1  0  0  0  0
 32 33  2  0  0  0  0
 32 69  1  0  0  0  0
 33 37  1  0  0  0  0
 34 35  1  0  0  0  0
 34 36  1  0  0  0  0
 34 70  1  0  0  0  0
 35 71  1  0  0  0  0
 35 72  1  0  0  0  0
 38 39  1  0  0  0  0
 38 74  1  0  0  0  0
 38 75  1  0  0  0  0
 39 40  1  0  0  0  0
 39 76  1  0  0  0  0
 39 77  1  0  0  0  0
 40 41  2  0  0  0  0
 40 42  1  0  0  0  0
 41 43  1  0  0  0  0
 41 80  1  0  0  0  0
 42 44  2  0  0  0  0
 42 81  1  0  0  0  0
 43 45  2  0  0  0  0
 43 82  1  0  0  0  0
 44 45  1  0  0  0  0
 44 83  1  0  0  0  0
 45 46  1  0  0  0  0
M  END
> <PUBCHEM_COMPOUND_CID>
507705
> <PUBCHEM_COMPOUND_CANONICALIZED>
1
> <PUBCHEM_CACTVS_COMPLEXITY>
1100
> <PUBCHEM_CACTVS_HBOND_ACCEPTOR>
10
> <PUBCHEM_CACTVS_HBOND_DONOR>
7
> <PUBCHEM_CACTVS_ROTATABLE_BOND>
15
> <PUBCHEM_CACTVS_SUBSKEYS>
AAADcfB/uABgAAAAAAAAAAAAAAAAAWJAAAAwYAAAAAAAAFgB0AAAHgQQCAAADajF2ASyyYLAAgyMAiXSWACDAIAlChBIiJmIbMgIZjLglbGUcQhk1gHo2YeYyfCeQAAAAAACAACAAAAAAAQAAAAAAAAAAA==
> <PUBCHEM_IUPAC_OPENEYE_NAME>
5-[[2-[[(1S)-1-[[(1R)-2-[2-(4-carboxyphenyl)ethylamino]-2-oxo-1-(sulfanylmethyl)ethyl]carbamoyl]-3-methyl-butyl]carbamoyl]indolin-2-yl]methyl]thiophene-2-carboxylic acid
> <PUBCHEM_IUPAC_CAS_NAME>
5-[[2-[[[(2S)-1-[[(2R)-1-[2-(4-carboxyphenyl)ethylamino]-3-mercapto-1-oxopropan-2-yl]amino]-4-methyl-1-oxopentan-2-yl]amino]-oxomethyl]-1,3-dihydroindol-2-yl]methyl]-2-thiophenecarboxylic acid
> <PUBCHEM_IUPAC_NAME_MARKUP>
5-[[2-[[(2<I>S</I>)-1-[[(2<I>R</I>)-1-[2-(4-carboxyphenyl)ethylamino]-1-oxo-3-sulfanylpropan-2-yl]amino]-4-methyl-1-oxopentan-2-yl]carbamoyl]-1,3-dihydroindol-2-yl]methyl]thiophene-2-carboxylic acid
> <PUBCHEM_IUPAC_NAME>
5-[[2-[[(2S)-1-[[(2R)-1-[2-(4-carboxyphenyl)ethylamino]-1-oxo-3-sulfanylpropan-2-yl]amino]-4-methyl-1-oxopentan-2-yl]carbamoyl]-1,3-dihydroindol-2-yl]methyl]thiophene-2-carboxylic acid
> <PUBCHEM_IUPAC_SYSTEMATIC_NAME>
5-[[2-[[(2S)-1-[[(2R)-1-[2-(4-carboxyphenyl)ethylamino]-1-oxidanylidene-3-sulfanyl-propan-2-yl]amino]-4-methyl-1-oxidanylidene-pentan-2-yl]carbamoyl]-1,3-dihydroindol-2-yl]methyl]thiophene-2-carboxylic acid
> <PUBCHEM_IUPAC_TRADITIONAL_NAME>
5-[[2-[[(1S)-1-[[(1R)-2-[2-(4-carboxyphenyl)ethylamino]-2-keto-1-(mercaptomethyl)ethyl]carbamoyl]-3-methyl-butyl]carbamoyl]indolin-2-yl]methyl]-2-thenoic acid
> <PUBCHEM_IUPAC_INCHI>
InChI=1S/C33H38N4O7S2/c1-19(2)15-25(29(39)35-26(18-45)28(38)34-14-13-20-7-9-21(10-8-20)30(40)41)36-32(44)33(16-22-5-3-4-6-24(22)37-33)17-23-11-12-27(46-23)31(42)43/h3-12,19,25-26,37,45H,13-18H2,1-2H3,(H,34,38)(H,35,39)(H,36,44)(H,40,41)(H,42,43)/t25-,26-,33?/m0/s1
> <PUBCHEM_IUPAC_INCHIKEY>
AEALSGPEIVJGGC-XEIHLUHKSA-N
> <PUBCHEM_XLOGP3_AA>
4.9
> <PUBCHEM_EXACT_MASS>
666.21819191
> <PUBCHEM_MOLECULAR_FORMULA>
C33H38N4O7S2
> <PUBCHEM_MOLECULAR_WEIGHT>
666.8
> <PUBCHEM_OPENEYE_CAN_SMILES>
CC(C)CC(C(=O)NC(CS)C(=O)NCCC1=CC=C(C=C1)C(=O)O)NC(=O)C2(CC3=CC=CC=C3N2)CC4=CC=C(S4)C(=O)O
> <PUBCHEM_OPENEYE_ISO_SMILES>
CC(C)C[C@@H](C(=O)N[C@@H](CS)C(=O)NCCC1=CC=C(C=C1)C(=O)O)NC(=O)C2(CC3=CC=CC=C3N2)CC4=CC=C(S4)C(=O)O
> <PUBCHEM_CACTVS_TPSA>
203
> <PUBCHEM_MONOISOTOPIC_WEIGHT>
666.21819191
> <PUBCHEM_TOTAL_CHARGE>
0
> <PUBCHEM_HEAVY_ATOM_COUNT>
46
> <PUBCHEM_ATOM_DEF_STEREO_COUNT>
2
> <PUBCHEM_ATOM_UDEF_STEREO_COUNT>
1
> <PUBCHEM_BOND_DEF_STEREO_COUNT>
0
> <PUBCHEM_BOND_UDEF_STEREO_COUNT>
0
> <PUBCHEM_ISOTOPIC_ATOM_COUNT>
0
> <PUBCHEM_COMPONENT_COUNT>
1
> <PUBCHEM_CACTVS_TAUTO_COUNT>
-1
> <PUBCHEM_COORDINATE_TYPE>
1
5
255
> <PUBCHEM_BONDANNOTATIONS>
1  21  8
1  33  8
20  11  6
34  12  6
14  16  3
17  18  8
17  23  8
18  24  8
21  29  8
23  26  8
24  28  8
26  28  8
29  32  8
32  33  8
40  41  8
40  42  8
41  43  8
42  44  8
43  45  8
44  45  8
$$$$
