507755
  -OEChem-10302200282D
 56 59  0     1  0  0  0  0  0999 V2000
    6.6353   -1.1911    0.0000 O   0  0  0  0  0  0  0  0  0  0  0  0
    6.5422    4.0996    0.0000 O   0  0  0  0  0  0  0  0  0  0  0  0
    4.3211    0.0913    0.0000 O   0  0  0  0  0  0  0  0  0  0  0  0
    2.8660   -0.4083    0.0000 O   0  0  0  0  0  0  0  0  0  0  0  0
    2.8660   -4.4083    0.0000 O   0  0  0  0  0  0  0  0  0  0  0  0
    6.2781    0.5037    0.0000 N   0  0  0  0  0  0  0  0  0  0  0  0
    6.8994    2.4048    0.0000 N   0  0  0  0  0  0  0  0  0  0  0  0
    4.6783   -3.2130    0.0000 N   0  0  0  0  0  0  0  0  0  0  0  0
    2.8660   -3.4083    0.0000 N   0  0  0  0  0  0  0  0  0  0  0  0
    7.2566    0.7100    0.0000 C   0  0  1  0  0  0  0  0  0  0  0  0
    7.5673    1.6605    0.0000 C   0  0  0  0  0  0  0  0  0  0  0  0
    5.6103    1.2480    0.0000 C   0  0  0  0  0  0  0  0  0  0  0  0
    5.9209    2.1986    0.0000 C   0  0  0  0  0  0  0  0  0  0  0  0
    7.9244   -0.0343    0.0000 C   0  0  0  0  0  0  0  0  0  0  0  0
    5.9674   -0.4468    0.0000 C   0  0  0  0  0  0  0  0  0  0  0  0
    7.2101    3.3553    0.0000 C   0  0  0  0  0  0  0  0  0  0  0  0
    4.9889   -0.6530    0.0000 C   0  0  0  0  0  0  0  0  0  0  0  0
    8.1886    3.5615    0.0000 C   0  0  0  0  0  0  0  0  0  0  0  0
    4.6783   -1.6035    0.0000 C   0  0  0  0  0  0  0  0  0  0  0  0
    3.7320   -1.9083    0.0000 C   0  0  0  0  0  0  0  0  0  0  0  0
    3.7320   -2.9083    0.0000 C   0  0  0  0  0  0  0  0  0  0  0  0
    5.2619   -2.4083    0.0000 C   0  0  0  0  0  0  0  0  0  0  0  0
    8.4993    4.5120    0.0000 C   0  0  0  0  0  0  0  0  0  0  0  0
    8.8564    2.8172    0.0000 C   0  0  0  0  0  0  0  0  0  0  0  0
    2.8660   -1.4083    0.0000 C   0  0  0  0  0  0  0  0  0  0  0  0
    2.0000   -1.9083    0.0000 C   0  0  0  0  0  0  0  0  0  0  0  0
    9.4778    4.7183    0.0000 C   0  0  0  0  0  0  0  0  0  0  0  0
    9.8349    3.0234    0.0000 C   0  0  0  0  0  0  0  0  0  0  0  0
    2.0000   -2.9083    0.0000 C   0  0  0  0  0  0  0  0  0  0  0  0
   10.1456    3.9740    0.0000 C   0  0  0  0  0  0  0  0  0  0  0  0
    2.0000    0.0917    0.0000 C   0  0  0  0  0  0  0  0  0  0  0  0
    2.0000    1.0917    0.0000 C   0  0  0  0  0  0  0  0  0  0  0  0
    7.0640    0.1206    0.0000 H   0  0  0  0  0  0  0  0  0  0  0  0
    8.1142    1.3685    0.0000 H   0  0  0  0  0  0  0  0  0  0  0  0
    7.9498    2.1484    0.0000 H   0  0  0  0  0  0  0  0  0  0  0  0
    5.0633    1.5401    0.0000 H   0  0  0  0  0  0  0  0  0  0  0  0
    5.2277    0.7601    0.0000 H   0  0  0  0  0  0  0  0  0  0  0  0
    5.9004    2.8182    0.0000 H   0  0  0  0  0  0  0  0  0  0  0  0
    5.3071    2.2859    0.0000 H   0  0  0  0  0  0  0  0  0  0  0  0
    7.4630   -0.4484    0.0000 H   0  0  0  0  0  0  0  0  0  0  0  0
    8.3385   -0.4958    0.0000 H   0  0  0  0  0  0  0  0  0  0  0  0
    8.3859    0.3797    0.0000 H   0  0  0  0  0  0  0  0  0  0  0  0
    5.8819   -2.4083    0.0000 H   0  0  0  0  0  0  0  0  0  0  0  0
    8.0852    4.9735    0.0000 H   0  0  0  0  0  0  0  0  0  0  0  0
    8.6638    2.2279    0.0000 H   0  0  0  0  0  0  0  0  0  0  0  0
    1.4631   -1.5983    0.0000 H   0  0  0  0  0  0  0  0  0  0  0  0
    9.6704    5.3076    0.0000 H   0  0  0  0  0  0  0  0  0  0  0  0
   10.2490    2.5620    0.0000 H   0  0  0  0  0  0  0  0  0  0  0  0
    1.4631   -3.2183    0.0000 H   0  0  0  0  0  0  0  0  0  0  0  0
   10.7523    4.1018    0.0000 H   0  0  0  0  0  0  0  0  0  0  0  0
    1.3894    0.1994    0.0000 H   0  0  0  0  0  0  0  0  0  0  0  0
    1.7880   -0.4909    0.0000 H   0  0  0  0  0  0  0  0  0  0  0  0
    2.3291   -4.7183    0.0000 H   0  0  0  0  0  0  0  0  0  0  0  0
    2.6200    1.0917    0.0000 H   0  0  0  0  0  0  0  0  0  0  0  0
    2.0000    1.7117    0.0000 H   0  0  0  0  0  0  0  0  0  0  0  0
    1.3800    1.0917    0.0000 H   0  0  0  0  0  0  0  0  0  0  0  0
  1 15  2  0  0  0  0
  2 16  2  0  0  0  0
  3 17  2  0  0  0  0
  4 25  1  0  0  0  0
  4 31  1  0  0  0  0
  5  9  1  0  0  0  0
  5 53  1  0  0  0  0
  6 10  1  0  0  0  0
  6 12  1  0  0  0  0
  6 15  1  0  0  0  0
  7 11  1  0  0  0  0
  7 13  1  0  0  0  0
  7 16  1  0  0  0  0
  8 21  2  0  0  0  0
  8 22  1  0  0  0  0
  9 21  1  0  0  0  0
  9 29  1  0  0  0  0
 10 11  1  0  0  0  0
 10 14  1  1  0  0  0
 10 33  1  0  0  0  0
 11 34  1  0  0  0  0
 11 35  1  0  0  0  0
 12 13  1  0  0  0  0
 12 36  1  0  0  0  0
 12 37  1  0  0  0  0
 13 38  1  0  0  0  0
 13 39  1  0  0  0  0
 14 40  1  0  0  0  0
 14 41  1  0  0  0  0
 14 42  1  0  0  0  0
 15 17  1  0  0  0  0
 16 18  1  0  0  0  0
 17 19  1  0  0  0  0
 18 23  2  0  0  0  0
 18 24  1  0  0  0  0
 19 20  1  0  0  0  0
 19 22  2  0  0  0  0
 20 21  1  0  0  0  0
 20 25  2  0  0  0  0
 22 43  1  0  0  0  0
 23 27  1  0  0  0  0
 23 44  1  0  0  0  0
 24 28  2  0  0  0  0
 24 45  1  0  0  0  0
 25 26  1  0  0  0  0
 26 29  2  0  0  0  0
 26 46  1  0  0  0  0
 27 30  2  0  0  0  0
 27 47  1  0  0  0  0
 28 30  1  0  0  0  0
 28 48  1  0  0  0  0
 29 49  1  0  0  0  0
 30 50  1  0  0  0  0
 31 32  1  0  0  0  0
 31 51  1  0  0  0  0
 31 52  1  0  0  0  0
 32 54  1  0  0  0  0
 32 55  1  0  0  0  0
 32 56  1  0  0  0  0
M  END
> <PUBCHEM_COMPOUND_CID>
507755
> <PUBCHEM_COMPOUND_CANONICALIZED>
1
> <PUBCHEM_CACTVS_COMPLEXITY>
713
> <PUBCHEM_CACTVS_HBOND_ACCEPTOR>
6
> <PUBCHEM_CACTVS_HBOND_DONOR>
1
> <PUBCHEM_CACTVS_ROTATABLE_BOND>
5
> <PUBCHEM_CACTVS_SUBSKEYS>
AAADceB7uAAAAAAAAAAAAAAAAAAAAWAAAAA8WIAAAAAAAFgBwAAAHgAECAAADCzhmwY/tt8YFACoArN3dACCiCk1IqAp2CG+bNiMbnrEvbuWOajuxhvI6ee+nQLOgAAAAAAAAAAAAAAAAAAAAAAAAAAAAA==
> <PUBCHEM_IUPAC_OPENEYE_NAME>
1-[(2R)-4-benzoyl-2-methyl-piperazin-1-yl]-2-(4-ethoxy-7-hydroxy-pyrrolo[2,3-b]pyridin-3-yl)ethane-1,2-dione
> <PUBCHEM_IUPAC_CAS_NAME>
1-[(2R)-4-benzoyl-2-methyl-1-piperazinyl]-2-(4-ethoxy-7-hydroxy-3-pyrrolo[2,3-b]pyridinyl)ethane-1,2-dione
> <PUBCHEM_IUPAC_NAME_MARKUP>
1-[(2<I>R</I>)-4-benzoyl-2-methylpiperazin-1-yl]-2-(4-ethoxy-7-hydroxypyrrolo[2,3-b]pyridin-3-yl)ethane-1,2-dione
> <PUBCHEM_IUPAC_NAME>
1-[(2R)-4-benzoyl-2-methylpiperazin-1-yl]-2-(4-ethoxy-7-hydroxypyrrolo[2,3-b]pyridin-3-yl)ethane-1,2-dione
> <PUBCHEM_IUPAC_SYSTEMATIC_NAME>
1-(4-ethoxy-7-oxidanyl-pyrrolo[2,3-b]pyridin-3-yl)-2-[(2R)-2-methyl-4-(phenylcarbonyl)piperazin-1-yl]ethane-1,2-dione
> <PUBCHEM_IUPAC_TRADITIONAL_NAME>
1-[(2R)-4-benzoyl-2-methyl-piperazino]-2-(4-ethoxy-7-hydroxy-pyrrolo[2,3-b]pyridin-3-yl)ethane-1,2-dione
> <PUBCHEM_IUPAC_INCHI>
InChI=1S/C23H24N4O5/c1-3-32-18-9-10-27(31)21-19(18)17(13-24-21)20(28)23(30)26-12-11-25(14-15(26)2)22(29)16-7-5-4-6-8-16/h4-10,13,15,31H,3,11-12,14H2,1-2H3/t15-/m1/s1
> <PUBCHEM_IUPAC_INCHIKEY>
IFIVUABXWULCKA-OAHLLOKOSA-N
> <PUBCHEM_XLOGP3_AA>
2.2
> <PUBCHEM_EXACT_MASS>
436.17466988
> <PUBCHEM_MOLECULAR_FORMULA>
C23H24N4O5
> <PUBCHEM_MOLECULAR_WEIGHT>
436.5
> <PUBCHEM_OPENEYE_CAN_SMILES>
CCOC1=C2C(=CN=C2N(C=C1)O)C(=O)C(=O)N3CCN(CC3C)C(=O)C4=CC=CC=C4
> <PUBCHEM_OPENEYE_ISO_SMILES>
CCOC1=C2C(=CN=C2N(C=C1)O)C(=O)C(=O)N3CCN(C[C@H]3C)C(=O)C4=CC=CC=C4
> <PUBCHEM_CACTVS_TPSA>
105
> <PUBCHEM_MONOISOTOPIC_WEIGHT>
436.17466988
> <PUBCHEM_TOTAL_CHARGE>
0
> <PUBCHEM_HEAVY_ATOM_COUNT>
32
> <PUBCHEM_ATOM_DEF_STEREO_COUNT>
1
> <PUBCHEM_ATOM_UDEF_STEREO_COUNT>
0
> <PUBCHEM_BOND_DEF_STEREO_COUNT>
0
> <PUBCHEM_BOND_UDEF_STEREO_COUNT>
0
> <PUBCHEM_ISOTOPIC_ATOM_COUNT>
0
> <PUBCHEM_COMPONENT_COUNT>
1
> <PUBCHEM_CACTVS_TAUTO_COUNT>
-1
> <PUBCHEM_COORDINATE_TYPE>
1
5
255
> <PUBCHEM_BONDANNOTATIONS>
10  14  5
18  23  8
18  24  8
19  20  8
19  22  8
20  25  8
23  27  8
24  28  8
25  26  8
26  29  8
27  30  8
28  30  8
8  21  8
8  22  8
9  21  8
9  29  8
$$$$
