507788
  -OEChem-10302200282D
 52 55  0     1  0  0  0  0  0999 V2000
    6.6353   -1.0961    0.0000 O   0  0  0  0  0  0  0  0  0  0  0  0
    6.5422    4.1946    0.0000 O   0  0  0  0  0  0  0  0  0  0  0  0
    4.3211    0.1863    0.0000 O   0  0  0  0  0  0  0  0  0  0  0  0
    2.8660   -4.3133    0.0000 O   0  0  0  0  0  0  0  0  0  0  0  0
    6.2781    0.5987    0.0000 N   0  0  0  0  0  0  0  0  0  0  0  0
    6.8994    2.4998    0.0000 N   0  0  0  0  0  0  0  0  0  0  0  0
    4.6783   -3.1180    0.0000 N   0  0  0  0  0  0  0  0  0  0  0  0
    2.0000   -2.8133    0.0000 N   0  0  0  0  0  0  0  0  0  0  0  0
    5.6103    1.3430    0.0000 C   0  0  1  0  0  0  0  0  0  0  0  0
    5.9209    2.2936    0.0000 C   0  0  0  0  0  0  0  0  0  0  0  0
    7.2566    0.8050    0.0000 C   0  0  0  0  0  0  0  0  0  0  0  0
    7.5673    1.7555    0.0000 C   0  0  0  0  0  0  0  0  0  0  0  0
    4.6318    1.1368    0.0000 C   0  0  0  0  0  0  0  0  0  0  0  0
    5.9674   -0.3518    0.0000 C   0  0  0  0  0  0  0  0  0  0  0  0
    7.2101    3.4503    0.0000 C   0  0  0  0  0  0  0  0  0  0  0  0
    4.9889   -0.5580    0.0000 C   0  0  0  0  0  0  0  0  0  0  0  0
    8.1886    3.6565    0.0000 C   0  0  0  0  0  0  0  0  0  0  0  0
    4.6783   -1.5085    0.0000 C   0  0  0  0  0  0  0  0  0  0  0  0
    3.7320   -1.8133    0.0000 C   0  0  0  0  0  0  0  0  0  0  0  0
    3.7320   -2.8133    0.0000 C   0  0  0  0  0  0  0  0  0  0  0  0
    5.2619   -2.3133    0.0000 C   0  0  0  0  0  0  0  0  0  0  0  0
    8.4993    4.6070    0.0000 C   0  0  0  0  0  0  0  0  0  0  0  0
    8.8564    2.9122    0.0000 C   0  0  0  0  0  0  0  0  0  0  0  0
    2.8660   -1.3133    0.0000 C   0  0  0  0  0  0  0  0  0  0  0  0
    2.8660   -3.3133    0.0000 C   0  0  0  0  0  0  0  0  0  0  0  0
    9.4778    4.8133    0.0000 C   0  0  0  0  0  0  0  0  0  0  0  0
    9.8349    3.1184    0.0000 C   0  0  0  0  0  0  0  0  0  0  0  0
    2.0000   -1.8133    0.0000 C   0  0  0  0  0  0  0  0  0  0  0  0
   10.1456    4.0690    0.0000 C   0  0  0  0  0  0  0  0  0  0  0  0
    2.0000   -4.8133    0.0000 C   0  0  0  0  0  0  0  0  0  0  0  0
    5.4176    0.7537    0.0000 H   0  0  0  0  0  0  0  0  0  0  0  0
    5.9004    2.9132    0.0000 H   0  0  0  0  0  0  0  0  0  0  0  0
    5.3071    2.3809    0.0000 H   0  0  0  0  0  0  0  0  0  0  0  0
    7.2772    0.1853    0.0000 H   0  0  0  0  0  0  0  0  0  0  0  0
    7.8704    0.7176    0.0000 H   0  0  0  0  0  0  0  0  0  0  0  0
    8.1142    1.4635    0.0000 H   0  0  0  0  0  0  0  0  0  0  0  0
    7.9498    2.2434    0.0000 H   0  0  0  0  0  0  0  0  0  0  0  0
    4.5039    1.7435    0.0000 H   0  0  0  0  0  0  0  0  0  0  0  0
    4.0251    1.0090    0.0000 H   0  0  0  0  0  0  0  0  0  0  0  0
    4.7596    0.5301    0.0000 H   0  0  0  0  0  0  0  0  0  0  0  0
    5.8819   -2.3133    0.0000 H   0  0  0  0  0  0  0  0  0  0  0  0
    8.0852    5.0685    0.0000 H   0  0  0  0  0  0  0  0  0  0  0  0
    8.6638    2.3229    0.0000 H   0  0  0  0  0  0  0  0  0  0  0  0
    4.8709   -3.7073    0.0000 H   0  0  0  0  0  0  0  0  0  0  0  0
    2.8660   -0.6933    0.0000 H   0  0  0  0  0  0  0  0  0  0  0  0
    9.6704    5.4026    0.0000 H   0  0  0  0  0  0  0  0  0  0  0  0
   10.2490    2.6570    0.0000 H   0  0  0  0  0  0  0  0  0  0  0  0
    1.4631   -1.5033    0.0000 H   0  0  0  0  0  0  0  0  0  0  0  0
   10.7523    4.1968    0.0000 H   0  0  0  0  0  0  0  0  0  0  0  0
    1.6900   -4.2763    0.0000 H   0  0  0  0  0  0  0  0  0  0  0  0
    1.4631   -5.1233    0.0000 H   0  0  0  0  0  0  0  0  0  0  0  0
    2.3100   -5.3502    0.0000 H   0  0  0  0  0  0  0  0  0  0  0  0
  1 14  2  0  0  0  0
  2 15  2  0  0  0  0
  3 16  2  0  0  0  0
  4 25  1  0  0  0  0
  4 30  1  0  0  0  0
  5  9  1  0  0  0  0
  5 11  1  0  0  0  0
  5 14  1  0  0  0  0
  6 10  1  0  0  0  0
  6 12  1  0  0  0  0
  6 15  1  0  0  0  0
  7 20  1  0  0  0  0
  7 21  1  0  0  0  0
  7 44  1  0  0  0  0
  8 25  2  0  0  0  0
  8 28  1  0  0  0  0
  9 10  1  0  0  0  0
  9 13  1  6  0  0  0
  9 31  1  0  0  0  0
 10 32  1  0  0  0  0
 10 33  1  0  0  0  0
 11 12  1  0  0  0  0
 11 34  1  0  0  0  0
 11 35  1  0  0  0  0
 12 36  1  0  0  0  0
 12 37  1  0  0  0  0
 13 38  1  0  0  0  0
 13 39  1  0  0  0  0
 13 40  1  0  0  0  0
 14 16  1  0  0  0  0
 15 17  1  0  0  0  0
 16 18  1  0  0  0  0
 17 22  2  0  0  0  0
 17 23  1  0  0  0  0
 18 19  1  0  0  0  0
 18 21  2  0  0  0  0
 19 20  2  0  0  0  0
 19 24  1  0  0  0  0
 20 25  1  0  0  0  0
 21 41  1  0  0  0  0
 22 26  1  0  0  0  0
 22 42  1  0  0  0  0
 23 27  2  0  0  0  0
 23 43  1  0  0  0  0
 24 28  2  0  0  0  0
 24 45  1  0  0  0  0
 26 29  2  0  0  0  0
 26 46  1  0  0  0  0
 27 29  1  0  0  0  0
 27 47  1  0  0  0  0
 28 48  1  0  0  0  0
 29 49  1  0  0  0  0
 30 50  1  0  0  0  0
 30 51  1  0  0  0  0
 30 52  1  0  0  0  0
M  END
> <PUBCHEM_COMPOUND_CID>
507788
> <PUBCHEM_COMPOUND_CANONICALIZED>
1
> <PUBCHEM_CACTVS_COMPLEXITY>
666
> <PUBCHEM_CACTVS_HBOND_ACCEPTOR>
5
> <PUBCHEM_CACTVS_HBOND_DONOR>
1
> <PUBCHEM_CACTVS_ROTATABLE_BOND>
4
> <PUBCHEM_CACTVS_SUBSKEYS>
AAADceB7uAAAAAAAAAAAAAAAAAAAAWAAAAA8WIAAAAAAAFgB/AAAHgAQAAAADCzBngY+xPPJlACoA7V3VASCiCQ1ciAI2aG9fNgOZvrEtbuVMahkxhHY6cec3QCegAAAAAAAAAAAAAAAAAAAAAAAAAAAAA==
> <PUBCHEM_IUPAC_OPENEYE_NAME>
1-[(2R)-4-benzoyl-2-methyl-piperazin-1-yl]-2-(7-methoxy-1H-pyrrolo[2,3-c]pyridin-3-yl)ethane-1,2-dione
> <PUBCHEM_IUPAC_CAS_NAME>
1-[(2R)-4-benzoyl-2-methyl-1-piperazinyl]-2-(7-methoxy-1H-pyrrolo[2,3-c]pyridin-3-yl)ethane-1,2-dione
> <PUBCHEM_IUPAC_NAME_MARKUP>
1-[(2<I>R</I>)-4-benzoyl-2-methylpiperazin-1-yl]-2-(7-methoxy-1<I>H</I>-pyrrolo[2,3-c]pyridin-3-yl)ethane-1,2-dione
> <PUBCHEM_IUPAC_NAME>
1-[(2R)-4-benzoyl-2-methylpiperazin-1-yl]-2-(7-methoxy-1H-pyrrolo[2,3-c]pyridin-3-yl)ethane-1,2-dione
> <PUBCHEM_IUPAC_SYSTEMATIC_NAME>
1-(7-methoxy-1H-pyrrolo[2,3-c]pyridin-3-yl)-2-[(2R)-2-methyl-4-(phenylcarbonyl)piperazin-1-yl]ethane-1,2-dione
> <PUBCHEM_IUPAC_TRADITIONAL_NAME>
1-[(2R)-4-benzoyl-2-methyl-piperazino]-2-(7-methoxy-1H-pyrrolo[2,3-c]pyridin-3-yl)ethane-1,2-dione
> <PUBCHEM_IUPAC_INCHI>
InChI=1S/C22H22N4O4/c1-14-13-25(21(28)15-6-4-3-5-7-15)10-11-26(14)22(29)19(27)17-12-24-18-16(17)8-9-23-20(18)30-2/h3-9,12,14,24H,10-11,13H2,1-2H3/t14-/m1/s1
> <PUBCHEM_IUPAC_INCHIKEY>
XYYNHXJWNCGBRG-CQSZACIVSA-N
> <PUBCHEM_XLOGP3_AA>
2
> <PUBCHEM_EXACT_MASS>
406.16410520
> <PUBCHEM_MOLECULAR_FORMULA>
C22H22N4O4
> <PUBCHEM_MOLECULAR_WEIGHT>
406.4
> <PUBCHEM_OPENEYE_CAN_SMILES>
CC1CN(CCN1C(=O)C(=O)C2=CNC3=C2C=CN=C3OC)C(=O)C4=CC=CC=C4
> <PUBCHEM_OPENEYE_ISO_SMILES>
C[C@@H]1CN(CCN1C(=O)C(=O)C2=CNC3=C2C=CN=C3OC)C(=O)C4=CC=CC=C4
> <PUBCHEM_CACTVS_TPSA>
95.6
> <PUBCHEM_MONOISOTOPIC_WEIGHT>
406.16410520
> <PUBCHEM_TOTAL_CHARGE>
0
> <PUBCHEM_HEAVY_ATOM_COUNT>
30
> <PUBCHEM_ATOM_DEF_STEREO_COUNT>
1
> <PUBCHEM_ATOM_UDEF_STEREO_COUNT>
0
> <PUBCHEM_BOND_DEF_STEREO_COUNT>
0
> <PUBCHEM_BOND_UDEF_STEREO_COUNT>
0
> <PUBCHEM_ISOTOPIC_ATOM_COUNT>
0
> <PUBCHEM_COMPONENT_COUNT>
1
> <PUBCHEM_CACTVS_TAUTO_COUNT>
-1
> <PUBCHEM_COORDINATE_TYPE>
1
5
255
> <PUBCHEM_BONDANNOTATIONS>
17  22  8
17  23  8
18  19  8
18  21  8
19  20  8
19  24  8
20  25  8
22  26  8
23  27  8
24  28  8
26  29  8
27  29  8
7  20  8
7  21  8
8  25  8
8  28  8
9  13  6
$$$$
