507770
  -OEChem-10302200282D
 49 52  0     1  0  0  0  0  0999 V2000
    7.5013   -1.5361    0.0000 O   0  0  0  0  0  0  0  0  0  0  0  0
    7.4083    3.7546    0.0000 O   0  0  0  0  0  0  0  0  0  0  0  0
    5.1871   -0.2537    0.0000 O   0  0  0  0  0  0  0  0  0  0  0  0
    2.0000   -3.7533    0.0000 O   0  0  0  0  0  0  0  0  0  0  0  0
    7.1441    0.1587    0.0000 N   0  0  0  0  0  0  0  0  0  0  0  0
    7.7654    2.0598    0.0000 N   0  0  0  0  0  0  0  0  0  0  0  0
    5.5443   -3.5580    0.0000 N   0  0  0  0  0  0  0  0  0  0  0  0
    3.7320   -3.7533    0.0000 N   0  0  0  0  0  0  0  0  0  0  0  0
    8.1226    0.3650    0.0000 C   0  0  1  0  0  0  0  0  0  0  0  0
    8.4333    1.3155    0.0000 C   0  0  0  0  0  0  0  0  0  0  0  0
    6.4763    0.9030    0.0000 C   0  0  0  0  0  0  0  0  0  0  0  0
    6.7870    1.8536    0.0000 C   0  0  0  0  0  0  0  0  0  0  0  0
    8.7905   -0.3793    0.0000 C   0  0  0  0  0  0  0  0  0  0  0  0
    6.8335   -0.7918    0.0000 C   0  0  0  0  0  0  0  0  0  0  0  0
    8.0761    3.0103    0.0000 C   0  0  0  0  0  0  0  0  0  0  0  0
    5.8550   -0.9980    0.0000 C   0  0  0  0  0  0  0  0  0  0  0  0
    9.0546    3.2165    0.0000 C   0  0  0  0  0  0  0  0  0  0  0  0
    5.5443   -1.9485    0.0000 C   0  0  0  0  0  0  0  0  0  0  0  0
    4.5981   -2.2533    0.0000 C   0  0  0  0  0  0  0  0  0  0  0  0
    4.5981   -3.2533    0.0000 C   0  0  0  0  0  0  0  0  0  0  0  0
    6.1279   -2.7533    0.0000 C   0  0  0  0  0  0  0  0  0  0  0  0
    9.3653    4.1670    0.0000 C   0  0  0  0  0  0  0  0  0  0  0  0
    9.7225    2.4722    0.0000 C   0  0  0  0  0  0  0  0  0  0  0  0
    3.7320   -1.7533    0.0000 C   0  0  0  0  0  0  0  0  0  0  0  0
    2.8660   -2.2533    0.0000 C   0  0  0  0  0  0  0  0  0  0  0  0
   10.3438    4.3733    0.0000 C   0  0  0  0  0  0  0  0  0  0  0  0
   10.7010    2.6784    0.0000 C   0  0  0  0  0  0  0  0  0  0  0  0
    2.8660   -3.2533    0.0000 C   0  0  0  0  0  0  0  0  0  0  0  0
   11.0116    3.6290    0.0000 C   0  0  0  0  0  0  0  0  0  0  0  0
    7.9300   -0.2244    0.0000 H   0  0  0  0  0  0  0  0  0  0  0  0
    8.9802    1.0235    0.0000 H   0  0  0  0  0  0  0  0  0  0  0  0
    8.8158    1.8034    0.0000 H   0  0  0  0  0  0  0  0  0  0  0  0
    5.9294    1.1951    0.0000 H   0  0  0  0  0  0  0  0  0  0  0  0
    6.0937    0.4151    0.0000 H   0  0  0  0  0  0  0  0  0  0  0  0
    6.7664    2.4732    0.0000 H   0  0  0  0  0  0  0  0  0  0  0  0
    6.1731    1.9409    0.0000 H   0  0  0  0  0  0  0  0  0  0  0  0
    8.3290   -0.7934    0.0000 H   0  0  0  0  0  0  0  0  0  0  0  0
    9.2045   -0.8408    0.0000 H   0  0  0  0  0  0  0  0  0  0  0  0
    9.2519    0.0347    0.0000 H   0  0  0  0  0  0  0  0  0  0  0  0
    6.7479   -2.7533    0.0000 H   0  0  0  0  0  0  0  0  0  0  0  0
    5.7369   -4.1473    0.0000 H   0  0  0  0  0  0  0  0  0  0  0  0
    8.9512    4.6285    0.0000 H   0  0  0  0  0  0  0  0  0  0  0  0
    9.5298    1.8829    0.0000 H   0  0  0  0  0  0  0  0  0  0  0  0
    3.7320   -1.1333    0.0000 H   0  0  0  0  0  0  0  0  0  0  0  0
    3.7320   -4.3733    0.0000 H   0  0  0  0  0  0  0  0  0  0  0  0
    2.3291   -1.9433    0.0000 H   0  0  0  0  0  0  0  0  0  0  0  0
   10.5364    4.9626    0.0000 H   0  0  0  0  0  0  0  0  0  0  0  0
   11.1150    2.2170    0.0000 H   0  0  0  0  0  0  0  0  0  0  0  0
   11.6183    3.7568    0.0000 H   0  0  0  0  0  0  0  0  0  0  0  0
  1 14  2  0  0  0  0
  2 15  2  0  0  0  0
  3 16  2  0  0  0  0
  4 28  2  0  0  0  0
  5  9  1  0  0  0  0
  5 11  1  0  0  0  0
  5 14  1  0  0  0  0
  6 10  1  0  0  0  0
  6 12  1  0  0  0  0
  6 15  1  0  0  0  0
  7 20  1  0  0  0  0
  7 21  1  0  0  0  0
  7 41  1  0  0  0  0
  8 20  1  0  0  0  0
  8 28  1  0  0  0  0
  8 45  1  0  0  0  0
  9 10  1  0  0  0  0
  9 13  1  1  0  0  0
  9 30  1  0  0  0  0
 10 31  1  0  0  0  0
 10 32  1  0  0  0  0
 11 12  1  0  0  0  0
 11 33  1  0  0  0  0
 11 34  1  0  0  0  0
 12 35  1  0  0  0  0
 12 36  1  0  0  0  0
 13 37  1  0  0  0  0
 13 38  1  0  0  0  0
 13 39  1  0  0  0  0
 14 16  1  0  0  0  0
 15 17  1  0  0  0  0
 16 18  1  0  0  0  0
 17 22  2  0  0  0  0
 17 23  1  0  0  0  0
 18 19  1  0  0  0  0
 18 21  2  0  0  0  0
 19 20  2  0  0  0  0
 19 24  1  0  0  0  0
 21 40  1  0  0  0  0
 22 26  1  0  0  0  0
 22 42  1  0  0  0  0
 23 27  2  0  0  0  0
 23 43  1  0  0  0  0
 24 25  2  0  0  0  0
 24 44  1  0  0  0  0
 25 28  1  0  0  0  0
 25 46  1  0  0  0  0
 26 29  2  0  0  0  0
 26 47  1  0  0  0  0
 27 29  1  0  0  0  0
 27 48  1  0  0  0  0
 29 49  1  0  0  0  0
M  END
> <PUBCHEM_COMPOUND_CID>
507770
> <PUBCHEM_COMPOUND_CANONICALIZED>
1
> <PUBCHEM_CACTVS_COMPLEXITY>
730
> <PUBCHEM_CACTVS_HBOND_ACCEPTOR>
4
> <PUBCHEM_CACTVS_HBOND_DONOR>
2
> <PUBCHEM_CACTVS_ROTATABLE_BOND>
3
> <PUBCHEM_CACTVS_SUBSKEYS>
AAADceB7uAAAAAAAAAAAAAAAAAAAAWAAAAA8QIAAAAAAAEABwAAAHgAQAAAADCzBmgQ/sJPJkACoArN3dACCgCm1ACAJ2aGoRNiIYHrAnbGUIYholwLIyecciQCOgAAAAAAAAAAAAAAAAAAAAAAAAAAAAA==
> <PUBCHEM_IUPAC_OPENEYE_NAME>
1-[(2R)-4-benzoyl-2-methyl-piperazin-1-yl]-2-(6-oxo-1,7-dihydropyrrolo[2,3-b]pyridin-3-yl)ethane-1,2-dione
> <PUBCHEM_IUPAC_CAS_NAME>
1-[(2R)-4-benzoyl-2-methyl-1-piperazinyl]-2-(6-oxo-1,7-dihydropyrrolo[2,3-b]pyridin-3-yl)ethane-1,2-dione
> <PUBCHEM_IUPAC_NAME_MARKUP>
1-[(2<I>R</I>)-4-benzoyl-2-methylpiperazin-1-yl]-2-(6-oxo-1,7-dihydropyrrolo[2,3-b]pyridin-3-yl)ethane-1,2-dione
> <PUBCHEM_IUPAC_NAME>
1-[(2R)-4-benzoyl-2-methylpiperazin-1-yl]-2-(6-oxo-1,7-dihydropyrrolo[2,3-b]pyridin-3-yl)ethane-1,2-dione
> <PUBCHEM_IUPAC_SYSTEMATIC_NAME>
1-[(2R)-2-methyl-4-(phenylcarbonyl)piperazin-1-yl]-2-(6-oxidanylidene-1,7-dihydropyrrolo[2,3-b]pyridin-3-yl)ethane-1,2-dione
> <PUBCHEM_IUPAC_TRADITIONAL_NAME>
1-[(2R)-4-benzoyl-2-methyl-piperazino]-2-(6-keto-1,7-dihydropyrrolo[2,3-b]pyridin-3-yl)ethane-1,2-dione
> <PUBCHEM_IUPAC_INCHI>
InChI=1S/C21H20N4O4/c1-13-12-24(20(28)14-5-3-2-4-6-14)9-10-25(13)21(29)18(27)16-11-22-19-15(16)7-8-17(26)23-19/h2-8,11,13H,9-10,12H2,1H3,(H2,22,23,26)/t13-/m1/s1
> <PUBCHEM_IUPAC_INCHIKEY>
VBDSDOUJLMRWFC-CYBMUJFWSA-N
> <PUBCHEM_XLOGP3_AA>
1.2
> <PUBCHEM_EXACT_MASS>
392.14845513
> <PUBCHEM_MOLECULAR_FORMULA>
C21H20N4O4
> <PUBCHEM_MOLECULAR_WEIGHT>
392.4
> <PUBCHEM_OPENEYE_CAN_SMILES>
CC1CN(CCN1C(=O)C(=O)C2=CNC3=C2C=CC(=O)N3)C(=O)C4=CC=CC=C4
> <PUBCHEM_OPENEYE_ISO_SMILES>
C[C@@H]1CN(CCN1C(=O)C(=O)C2=CNC3=C2C=CC(=O)N3)C(=O)C4=CC=CC=C4
> <PUBCHEM_CACTVS_TPSA>
103
> <PUBCHEM_MONOISOTOPIC_WEIGHT>
392.14845513
> <PUBCHEM_TOTAL_CHARGE>
0
> <PUBCHEM_HEAVY_ATOM_COUNT>
29
> <PUBCHEM_ATOM_DEF_STEREO_COUNT>
1
> <PUBCHEM_ATOM_UDEF_STEREO_COUNT>
0
> <PUBCHEM_BOND_DEF_STEREO_COUNT>
0
> <PUBCHEM_BOND_UDEF_STEREO_COUNT>
0
> <PUBCHEM_ISOTOPIC_ATOM_COUNT>
0
> <PUBCHEM_COMPONENT_COUNT>
1
> <PUBCHEM_CACTVS_TAUTO_COUNT>
-1
> <PUBCHEM_COORDINATE_TYPE>
1
5
255
> <PUBCHEM_BONDANNOTATIONS>
17  22  8
17  23  8
18  19  8
18  21  8
19  20  8
19  24  8
22  26  8
23  27  8
24  25  8
25  28  8
26  29  8
27  29  8
7  20  8
7  21  8
8  20  8
8  28  8
9  13  5
$$$$
