507790
  -OEChem-10302200282D
 49 52  0     1  0  0  0  0  0999 V2000
    8.0382   -1.8461    0.0000 O   0  0  0  0  0  0  0  0  0  0  0  0
    7.9452    3.4446    0.0000 O   0  0  0  0  0  0  0  0  0  0  0  0
    5.7240   -0.5637    0.0000 O   0  0  0  0  0  0  0  0  0  0  0  0
    2.5369   -4.0633    0.0000 O   0  0  0  0  0  0  0  0  0  0  0  0
    7.6811   -0.1513    0.0000 N   0  0  0  0  0  0  0  0  0  0  0  0
    8.3024    1.7498    0.0000 N   0  0  0  0  0  0  0  0  0  0  0  0
    6.0812   -3.8680    0.0000 N   0  0  0  0  0  0  0  0  0  0  0  0
    3.4030   -3.5633    0.0000 N   0  0  0  0  0  0  0  0  0  0  0  0
    7.0132    0.5930    0.0000 C   0  0  1  0  0  0  0  0  0  0  0  0
    7.3239    1.5436    0.0000 C   0  0  0  0  0  0  0  0  0  0  0  0
    8.6596    0.0550    0.0000 C   0  0  0  0  0  0  0  0  0  0  0  0
    8.9702    1.0055    0.0000 C   0  0  0  0  0  0  0  0  0  0  0  0
    6.0347    0.3868    0.0000 C   0  0  0  0  0  0  0  0  0  0  0  0
    7.3704   -1.1018    0.0000 C   0  0  0  0  0  0  0  0  0  0  0  0
    8.6130    2.7003    0.0000 C   0  0  0  0  0  0  0  0  0  0  0  0
    6.3919   -1.3080    0.0000 C   0  0  0  0  0  0  0  0  0  0  0  0
    9.5916    2.9065    0.0000 C   0  0  0  0  0  0  0  0  0  0  0  0
    6.0812   -2.2585    0.0000 C   0  0  0  0  0  0  0  0  0  0  0  0
    5.1350   -2.5633    0.0000 C   0  0  0  0  0  0  0  0  0  0  0  0
    9.9022    3.8570    0.0000 C   0  0  0  0  0  0  0  0  0  0  0  0
   10.2594    2.1622    0.0000 C   0  0  0  0  0  0  0  0  0  0  0  0
    5.1350   -3.5633    0.0000 C   0  0  0  0  0  0  0  0  0  0  0  0
    6.6648   -3.0633    0.0000 C   0  0  0  0  0  0  0  0  0  0  0  0
    4.2690   -2.0633    0.0000 C   0  0  0  0  0  0  0  0  0  0  0  0
   10.8807    4.0633    0.0000 C   0  0  0  0  0  0  0  0  0  0  0  0
   11.2379    2.3684    0.0000 C   0  0  0  0  0  0  0  0  0  0  0  0
    4.2690   -4.0633    0.0000 C   0  0  0  0  0  0  0  0  0  0  0  0
    3.4030   -2.5633    0.0000 C   0  0  0  0  0  0  0  0  0  0  0  0
   11.5486    3.3190    0.0000 C   0  0  0  0  0  0  0  0  0  0  0  0
    6.8206    0.0037    0.0000 H   0  0  0  0  0  0  0  0  0  0  0  0
    7.3033    2.1632    0.0000 H   0  0  0  0  0  0  0  0  0  0  0  0
    6.7101    1.6309    0.0000 H   0  0  0  0  0  0  0  0  0  0  0  0
    8.6801   -0.5647    0.0000 H   0  0  0  0  0  0  0  0  0  0  0  0
    9.2734   -0.0324    0.0000 H   0  0  0  0  0  0  0  0  0  0  0  0
    9.5172    0.7135    0.0000 H   0  0  0  0  0  0  0  0  0  0  0  0
    9.3528    1.4934    0.0000 H   0  0  0  0  0  0  0  0  0  0  0  0
    5.9069    0.9935    0.0000 H   0  0  0  0  0  0  0  0  0  0  0  0
    5.4280    0.2590    0.0000 H   0  0  0  0  0  0  0  0  0  0  0  0
    6.1626   -0.2199    0.0000 H   0  0  0  0  0  0  0  0  0  0  0  0
    9.4881    4.3185    0.0000 H   0  0  0  0  0  0  0  0  0  0  0  0
   10.0668    1.5729    0.0000 H   0  0  0  0  0  0  0  0  0  0  0  0
    7.2848   -3.0633    0.0000 H   0  0  0  0  0  0  0  0  0  0  0  0
    4.2690   -1.4433    0.0000 H   0  0  0  0  0  0  0  0  0  0  0  0
    4.2690   -4.6833    0.0000 H   0  0  0  0  0  0  0  0  0  0  0  0
   11.0733    4.6526    0.0000 H   0  0  0  0  0  0  0  0  0  0  0  0
   11.6520    1.9070    0.0000 H   0  0  0  0  0  0  0  0  0  0  0  0
    2.8660   -2.2533    0.0000 H   0  0  0  0  0  0  0  0  0  0  0  0
   12.1552    3.4468    0.0000 H   0  0  0  0  0  0  0  0  0  0  0  0
    2.0000   -3.7533    0.0000 H   0  0  0  0  0  0  0  0  0  0  0  0
  1 14  2  0  0  0  0
  2 15  2  0  0  0  0
  3 16  2  0  0  0  0
  4  8  1  0  0  0  0
  4 49  1  0  0  0  0
  5  9  1  0  0  0  0
  5 11  1  0  0  0  0
  5 14  1  0  0  0  0
  6 10  1  0  0  0  0
  6 12  1  0  0  0  0
  6 15  1  0  0  0  0
  7 22  1  0  0  0  0
  7 23  2  0  0  0  0
  8 27  1  0  0  0  0
  8 28  1  0  0  0  0
  9 10  1  0  0  0  0
  9 13  1  6  0  0  0
  9 30  1  0  0  0  0
 10 31  1  0  0  0  0
 10 32  1  0  0  0  0
 11 12  1  0  0  0  0
 11 33  1  0  0  0  0
 11 34  1  0  0  0  0
 12 35  1  0  0  0  0
 12 36  1  0  0  0  0
 13 37  1  0  0  0  0
 13 38  1  0  0  0  0
 13 39  1  0  0  0  0
 14 16  1  0  0  0  0
 15 17  1  0  0  0  0
 16 18  1  0  0  0  0
 17 20  2  0  0  0  0
 17 21  1  0  0  0  0
 18 19  2  0  0  0  0
 18 23  1  0  0  0  0
 19 22  1  0  0  0  0
 19 24  1  0  0  0  0
 20 25  1  0  0  0  0
 20 40  1  0  0  0  0
 21 26  2  0  0  0  0
 21 41  1  0  0  0  0
 22 27  2  0  0  0  0
 23 42  1  0  0  0  0
 24 28  2  0  0  0  0
 24 43  1  0  0  0  0
 25 29  2  0  0  0  0
 25 45  1  0  0  0  0
 26 29  1  0  0  0  0
 26 46  1  0  0  0  0
 27 44  1  0  0  0  0
 28 47  1  0  0  0  0
 29 48  1  0  0  0  0
M  END
> <PUBCHEM_COMPOUND_CID>
507790
> <PUBCHEM_COMPOUND_CANONICALIZED>
1
> <PUBCHEM_CACTVS_COMPLEXITY>
651
> <PUBCHEM_CACTVS_HBOND_ACCEPTOR>
5
> <PUBCHEM_CACTVS_HBOND_DONOR>
1
> <PUBCHEM_CACTVS_ROTATABLE_BOND>
3
> <PUBCHEM_CACTVS_SUBSKEYS>
AAADceB7uAAAAAAAAAAAAAAAAAAAAWAAAAA8WIAAAAAAAFgBwAAAHgAECAAADCzBngQ+wPMYEACoA7V3VACCgCQ1EiAo2CG4dNgIYPrAlbGUIYhghgDIyccciQCegAAAAAAAAAAAAAAAAAAAAAAAAAAAAA==
> <PUBCHEM_IUPAC_OPENEYE_NAME>
1-[(2R)-4-benzoyl-2-methyl-piperazin-1-yl]-2-(6-hydroxypyrrolo[2,3-c]pyridin-3-yl)ethane-1,2-dione
> <PUBCHEM_IUPAC_CAS_NAME>
1-[(2R)-4-benzoyl-2-methyl-1-piperazinyl]-2-(6-hydroxy-3-pyrrolo[2,3-c]pyridinyl)ethane-1,2-dione
> <PUBCHEM_IUPAC_NAME_MARKUP>
1-[(2<I>R</I>)-4-benzoyl-2-methylpiperazin-1-yl]-2-(6-hydroxypyrrolo[2,3-c]pyridin-3-yl)ethane-1,2-dione
> <PUBCHEM_IUPAC_NAME>
1-[(2R)-4-benzoyl-2-methylpiperazin-1-yl]-2-(6-hydroxypyrrolo[2,3-c]pyridin-3-yl)ethane-1,2-dione
> <PUBCHEM_IUPAC_SYSTEMATIC_NAME>
1-[(2R)-2-methyl-4-(phenylcarbonyl)piperazin-1-yl]-2-(6-oxidanylpyrrolo[2,3-c]pyridin-3-yl)ethane-1,2-dione
> <PUBCHEM_IUPAC_TRADITIONAL_NAME>
1-[(2R)-4-benzoyl-2-methyl-piperazino]-2-(6-hydroxypyrrolo[2,3-c]pyridin-3-yl)ethane-1,2-dione
> <PUBCHEM_IUPAC_INCHI>
InChI=1S/C21H20N4O4/c1-14-12-23(20(27)15-5-3-2-4-6-15)9-10-25(14)21(28)19(26)17-11-22-18-13-24(29)8-7-16(17)18/h2-8,11,13-14,29H,9-10,12H2,1H3/t14-/m1/s1
> <PUBCHEM_IUPAC_INCHIKEY>
FPDAXPMEDJLPNY-CQSZACIVSA-N
> <PUBCHEM_XLOGP3_AA>
1.4
> <PUBCHEM_EXACT_MASS>
392.14845513
> <PUBCHEM_MOLECULAR_FORMULA>
C21H20N4O4
> <PUBCHEM_MOLECULAR_WEIGHT>
392.4
> <PUBCHEM_OPENEYE_CAN_SMILES>
CC1CN(CCN1C(=O)C(=O)C2=C3C=CN(C=C3N=C2)O)C(=O)C4=CC=CC=C4
> <PUBCHEM_OPENEYE_ISO_SMILES>
C[C@@H]1CN(CCN1C(=O)C(=O)C2=C3C=CN(C=C3N=C2)O)C(=O)C4=CC=CC=C4
> <PUBCHEM_CACTVS_TPSA>
95.7
> <PUBCHEM_MONOISOTOPIC_WEIGHT>
392.14845513
> <PUBCHEM_TOTAL_CHARGE>
0
> <PUBCHEM_HEAVY_ATOM_COUNT>
29
> <PUBCHEM_ATOM_DEF_STEREO_COUNT>
1
> <PUBCHEM_ATOM_UDEF_STEREO_COUNT>
0
> <PUBCHEM_BOND_DEF_STEREO_COUNT>
0
> <PUBCHEM_BOND_UDEF_STEREO_COUNT>
0
> <PUBCHEM_ISOTOPIC_ATOM_COUNT>
0
> <PUBCHEM_COMPONENT_COUNT>
1
> <PUBCHEM_CACTVS_TAUTO_COUNT>
-1
> <PUBCHEM_COORDINATE_TYPE>
1
5
255
> <PUBCHEM_BONDANNOTATIONS>
17  20  8
17  21  8
18  19  8
18  23  8
19  24  8
20  25  8
21  26  8
22  27  8
24  28  8
25  29  8
26  29  8
7  22  8
7  23  8
8  27  8
8  28  8
9  13  6
$$$$
