507723
  -OEChem-10302200282D
 91 93  0     1  0  0  0  0  0999 V2000
    2.0000    3.0000    0.0000 F   0  0  0  0  0  0  0  0  0  0  0  0
    2.8660    1.5000    0.0000 F   0  0  0  0  0  0  0  0  0  0  0  0
    4.5981    4.5000    0.0000 O   0  0  0  0  0  0  0  0  0  0  0  0
    3.7320    1.0000    0.0000 O   0  0  0  0  0  0  0  0  0  0  0  0
    8.0622    5.5000    0.0000 O   0  0  0  0  0  0  0  0  0  0  0  0
   12.3923    6.0000    0.0000 O   0  0  0  0  0  0  0  0  0  0  0  0
   11.5263    4.5000    0.0000 O   0  0  0  0  0  0  0  0  0  0  0  0
    3.7320   -6.0000    0.0000 O   0  0  0  0  0  0  0  0  0  0  0  0
    2.8660   -4.5000    0.0000 O   0  0  0  0  0  0  0  0  0  0  0  0
    7.1962    4.0000    0.0000 N   0  0  0  0  0  0  0  0  0  0  0  0
    5.4641    3.0000    0.0000 N   0  0  0  0  0  0  0  0  0  0  0  0
    5.4641    1.0000    0.0000 N   0  0  0  0  0  0  0  0  0  0  0  0
    4.5981   -3.5000    0.0000 N   0  0  0  0  0  0  0  0  0  0  0  0
    6.3301    5.5000    0.0000 C   0  0  0  0  0  0  0  0  0  0  0  0
    6.3301    4.5000    0.0000 C   0  0  1  0  0  0  0  0  0  0  0  0
    5.4641    6.0000    0.0000 C   0  0  0  0  0  0  0  0  0  0  0  0
    5.4641    4.0000    0.0000 C   0  0  0  0  0  0  0  0  0  0  0  0
    4.5981    2.5000    0.0000 C   0  0  1  0  0  0  0  0  0  0  0  0
    5.4641    7.0000    0.0000 C   0  0  0  0  0  0  0  0  0  0  0  0
    4.5981    5.5000    0.0000 C   0  0  0  0  0  0  0  0  0  0  0  0
    3.7320    3.0000    0.0000 C   0  0  0  0  0  0  0  0  0  0  0  0
    4.5981    1.5000    0.0000 C   0  0  0  0  0  0  0  0  0  0  0  0
    8.0622    4.5000    0.0000 C   0  0  0  0  0  0  0  0  0  0  0  0
    2.8660    2.5000    0.0000 C   0  0  0  0  0  0  0  0  0  0  0  0
    8.9282    4.0000    0.0000 C   0  0  0  0  0  0  0  0  0  0  0  0
    5.4641   -0.0000    0.0000 C   0  0  0  0  0  0  0  0  0  0  0  0
    6.3301   -0.5000    0.0000 C   0  0  0  0  0  0  0  0  0  0  0  0
    9.7942    4.5000    0.0000 C   0  0  0  0  0  0  0  0  0  0  0  0
    6.3301   -1.5000    0.0000 C   0  0  0  0  0  0  0  0  0  0  0  0
    8.9282    3.0000    0.0000 C   0  0  0  0  0  0  0  0  0  0  0  0
    9.7942    5.5000    0.0000 C   0  0  0  0  0  0  0  0  0  0  0  0
   10.6603    4.0000    0.0000 C   0  0  0  0  0  0  0  0  0  0  0  0
    9.7942    2.5000    0.0000 C   0  0  0  0  0  0  0  0  0  0  0  0
    5.4641   -2.0000    0.0000 C   0  0  0  0  0  0  0  0  0  0  0  0
   10.6603    3.0000    0.0000 C   0  0  0  0  0  0  0  0  0  0  0  0
    7.1962   -2.0000    0.0000 C   0  0  0  0  0  0  0  0  0  0  0  0
   10.6603    6.0000    0.0000 C   0  0  0  0  0  0  0  0  0  0  0  0
    5.4641   -3.0000    0.0000 C   0  0  0  0  0  0  0  0  0  0  0  0
    8.9282    6.0000    0.0000 C   0  0  0  0  0  0  0  0  0  0  0  0
    7.1962   -3.0000    0.0000 C   0  0  0  0  0  0  0  0  0  0  0  0
    6.3301   -3.5000    0.0000 C   0  0  0  0  0  0  0  0  0  0  0  0
   10.6603    7.0000    0.0000 C   0  0  0  0  0  0  0  0  0  0  0  0
    8.9282    7.0000    0.0000 C   0  0  0  0  0  0  0  0  0  0  0  0
    9.7942    7.5000    0.0000 C   0  0  0  0  0  0  0  0  0  0  0  0
   11.5263    5.5000    0.0000 C   0  0  0  0  0  0  0  0  0  0  0  0
    4.5981   -4.5000    0.0000 C   0  0  0  0  0  0  0  0  0  0  0  0
    3.7320   -5.0000    0.0000 C   0  0  0  0  0  0  0  0  0  0  0  0
    2.8660   -6.5000    0.0000 C   0  0  0  0  0  0  0  0  0  0  0  0
    2.8660   -7.5000    0.0000 C   0  0  0  0  0  0  0  0  0  0  0  0
    6.9407    5.3923    0.0000 H   0  0  0  0  0  0  0  0  0  0  0  0
    6.5422    6.0826    0.0000 H   0  0  0  0  0  0  0  0  0  0  0  0
    6.8671    4.8100    0.0000 H   0  0  0  0  0  0  0  0  0  0  0  0
    5.4641    5.3800    0.0000 H   0  0  0  0  0  0  0  0  0  0  0  0
    4.5981    3.1200    0.0000 H   0  0  0  0  0  0  0  0  0  0  0  0
    6.0841    7.0000    0.0000 H   0  0  0  0  0  0  0  0  0  0  0  0
    5.4641    7.6200    0.0000 H   0  0  0  0  0  0  0  0  0  0  0  0
    4.8441    7.0000    0.0000 H   0  0  0  0  0  0  0  0  0  0  0  0
    4.2881    6.0369    0.0000 H   0  0  0  0  0  0  0  0  0  0  0  0
    4.0611    5.1900    0.0000 H   0  0  0  0  0  0  0  0  0  0  0  0
    4.9081    4.9631    0.0000 H   0  0  0  0  0  0  0  0  0  0  0  0
    7.1962    3.3800    0.0000 H   0  0  0  0  0  0  0  0  0  0  0  0
    6.0010    2.6900    0.0000 H   0  0  0  0  0  0  0  0  0  0  0  0
    4.1306    3.4750    0.0000 H   0  0  0  0  0  0  0  0  0  0  0  0
    3.3335    3.4750    0.0000 H   0  0  0  0  0  0  0  0  0  0  0  0
    2.8660    3.1200    0.0000 H   0  0  0  0  0  0  0  0  0  0  0  0
    6.0010    1.3100    0.0000 H   0  0  0  0  0  0  0  0  0  0  0  0
    4.8535    0.1077    0.0000 H   0  0  0  0  0  0  0  0  0  0  0  0
    5.2520   -0.5826    0.0000 H   0  0  0  0  0  0  0  0  0  0  0  0
    6.9407   -0.6077    0.0000 H   0  0  0  0  0  0  0  0  0  0  0  0
    6.5422    0.0826    0.0000 H   0  0  0  0  0  0  0  0  0  0  0  0
    8.3913    2.6900    0.0000 H   0  0  0  0  0  0  0  0  0  0  0  0
   11.1972    4.3100    0.0000 H   0  0  0  0  0  0  0  0  0  0  0  0
    9.7942    1.8800    0.0000 H   0  0  0  0  0  0  0  0  0  0  0  0
    4.9272   -1.6900    0.0000 H   0  0  0  0  0  0  0  0  0  0  0  0
   11.1972    2.6900    0.0000 H   0  0  0  0  0  0  0  0  0  0  0  0
    7.7331   -1.6900    0.0000 H   0  0  0  0  0  0  0  0  0  0  0  0
    8.3913    5.6900    0.0000 H   0  0  0  0  0  0  0  0  0  0  0  0
    7.7331   -3.3100    0.0000 H   0  0  0  0  0  0  0  0  0  0  0  0
    6.3301   -4.1200    0.0000 H   0  0  0  0  0  0  0  0  0  0  0  0
   11.1972    7.3100    0.0000 H   0  0  0  0  0  0  0  0  0  0  0  0
    8.3913    7.3100    0.0000 H   0  0  0  0  0  0  0  0  0  0  0  0
    4.0611   -3.1900    0.0000 H   0  0  0  0  0  0  0  0  0  0  0  0
    9.7942    8.1200    0.0000 H   0  0  0  0  0  0  0  0  0  0  0  0
    4.8101   -5.0826    0.0000 H   0  0  0  0  0  0  0  0  0  0  0  0
    5.2087   -4.3923    0.0000 H   0  0  0  0  0  0  0  0  0  0  0  0
   12.9292    5.6900    0.0000 H   0  0  0  0  0  0  0  0  0  0  0  0
    2.6540   -5.9174    0.0000 H   0  0  0  0  0  0  0  0  0  0  0  0
    2.2554   -6.6077    0.0000 H   0  0  0  0  0  0  0  0  0  0  0  0
    2.2460   -7.5000    0.0000 H   0  0  0  0  0  0  0  0  0  0  0  0
    2.8660   -8.1200    0.0000 H   0  0  0  0  0  0  0  0  0  0  0  0
    3.4860   -7.5000    0.0000 H   0  0  0  0  0  0  0  0  0  0  0  0
  1 24  1  0  0  0  0
  2 24  1  0  0  0  0
  3 17  2  0  0  0  0
  4 22  2  0  0  0  0
  5 23  2  0  0  0  0
  6 45  1  0  0  0  0
  6 86  1  0  0  0  0
  7 45  2  0  0  0  0
  8 47  1  0  0  0  0
  8 48  1  0  0  0  0
  9 47  2  0  0  0  0
 15 10  1  6  0  0  0
 10 23  1  0  0  0  0
 10 61  1  0  0  0  0
 11 17  1  0  0  0  0
 18 11  1  6  0  0  0
 11 62  1  0  0  0  0
 12 22  1  0  0  0  0
 12 26  1  0  0  0  0
 12 66  1  0  0  0  0
 13 38  1  0  0  0  0
 13 46  1  0  0  0  0
 13 82  1  0  0  0  0
 14 15  1  0  0  0  0
 14 16  1  0  0  0  0
 14 50  1  0  0  0  0
 14 51  1  0  0  0  0
 15 17  1  0  0  0  0
 15 52  1  0  0  0  0
 16 19  1  0  0  0  0
 16 20  1  0  0  0  0
 16 53  1  0  0  0  0
 18 21  1  0  0  0  0
 18 22  1  0  0  0  0
 18 54  1  0  0  0  0
 19 55  1  0  0  0  0
 19 56  1  0  0  0  0
 19 57  1  0  0  0  0
 20 58  1  0  0  0  0
 20 59  1  0  0  0  0
 20 60  1  0  0  0  0
 21 24  1  0  0  0  0
 21 63  1  0  0  0  0
 21 64  1  0  0  0  0
 23 25  1  0  0  0  0
 24 65  1  0  0  0  0
 25 28  1  0  0  0  0
 25 30  2  0  0  0  0
 26 27  1  0  0  0  0
 26 67  1  0  0  0  0
 26 68  1  0  0  0  0
 27 29  1  0  0  0  0
 27 69  1  0  0  0  0
 27 70  1  0  0  0  0
 28 31  1  0  0  0  0
 28 32  2  0  0  0  0
 29 34  2  0  0  0  0
 29 36  1  0  0  0  0
 30 33  1  0  0  0  0
 30 71  1  0  0  0  0
 31 37  1  0  0  0  0
 31 39  2  0  0  0  0
 32 35  1  0  0  0  0
 32 72  1  0  0  0  0
 33 35  2  0  0  0  0
 33 73  1  0  0  0  0
 34 38  1  0  0  0  0
 34 74  1  0  0  0  0
 35 75  1  0  0  0  0
 36 40  2  0  0  0  0
 36 76  1  0  0  0  0
 37 42  2  0  0  0  0
 37 45  1  0  0  0  0
 38 41  2  0  0  0  0
 39 43  1  0  0  0  0
 39 77  1  0  0  0  0
 40 41  1  0  0  0  0
 40 78  1  0  0  0  0
 41 79  1  0  0  0  0
 42 44  1  0  0  0  0
 42 80  1  0  0  0  0
 43 44  2  0  0  0  0
 43 81  1  0  0  0  0
 44 83  1  0  0  0  0
 46 47  1  0  0  0  0
 46 84  1  0  0  0  0
 46 85  1  0  0  0  0
 48 49  1  0  0  0  0
 48 87  1  0  0  0  0
 48 88  1  0  0  0  0
 49 89  1  0  0  0  0
 49 90  1  0  0  0  0
 49 91  1  0  0  0  0
M  END
> <PUBCHEM_COMPOUND_CID>
507723
> <PUBCHEM_COMPOUND_CANONICALIZED>
1
> <PUBCHEM_CACTVS_COMPLEXITY>
1090
> <PUBCHEM_CACTVS_HBOND_ACCEPTOR>
10
> <PUBCHEM_CACTVS_HBOND_DONOR>
5
> <PUBCHEM_CACTVS_ROTATABLE_BOND>
19
> <PUBCHEM_CACTVS_SUBSKEYS>
AAADcfB/uYAAAAAAAAAAAAAAAAAAAAAAAAAwYMAAAAAAAAABUAAAHwAQCAAADSjhmBYyyILABgCIAiXSWACCAAAlAgAIiIGIbMgKZjLAlbGXcQhk1gHY2YeYyPCOgAAAQAAQAAAAAACAACAAAAAAAAAAAA==
> <PUBCHEM_IUPAC_OPENEYE_NAME>
2-[2-[[(1S)-1-[[(1S)-1-[2-[3-[(2-ethoxy-2-oxo-ethyl)amino]phenyl]ethylcarbamoyl]-3,3-difluoro-propyl]carbamoyl]-3-methyl-butyl]carbamoyl]phenyl]benzoic acid
> <PUBCHEM_IUPAC_CAS_NAME>
2-[2-[[[(2S)-1-[[(2S)-1-[2-[3-[(2-ethoxy-2-oxoethyl)amino]phenyl]ethylamino]-4,4-difluoro-1-oxobutan-2-yl]amino]-4-methyl-1-oxopentan-2-yl]amino]-oxomethyl]phenyl]benzoic acid
> <PUBCHEM_IUPAC_NAME_MARKUP>
2-[2-[[(2<I>S</I>)-1-[[(2<I>S</I>)-1-[2-[3-[(2-ethoxy-2-oxoethyl)amino]phenyl]ethylamino]-4,4-difluoro-1-oxobutan-2-yl]amino]-4-methyl-1-oxopentan-2-yl]carbamoyl]phenyl]benzoic acid
> <PUBCHEM_IUPAC_NAME>
2-[2-[[(2S)-1-[[(2S)-1-[2-[3-[(2-ethoxy-2-oxoethyl)amino]phenyl]ethylamino]-4,4-difluoro-1-oxobutan-2-yl]amino]-4-methyl-1-oxopentan-2-yl]carbamoyl]phenyl]benzoic acid
> <PUBCHEM_IUPAC_SYSTEMATIC_NAME>
2-[2-[[(2S)-1-[[(2S)-1-[2-[3-[(2-ethoxy-2-oxidanylidene-ethyl)amino]phenyl]ethylamino]-4,4-bis(fluoranyl)-1-oxidanylidene-butan-2-yl]amino]-4-methyl-1-oxidanylidene-pentan-2-yl]carbamoyl]phenyl]benzoic acid
> <PUBCHEM_IUPAC_TRADITIONAL_NAME>
2-[2-[[(1S)-1-[[(1S)-1-[2-[3-[(2-ethoxy-2-keto-ethyl)amino]phenyl]ethylcarbamoyl]-3,3-difluoro-propyl]carbamoyl]-3-methyl-butyl]carbamoyl]phenyl]benzoic acid
> <PUBCHEM_IUPAC_INCHI>
InChI=1S/C36H42F2N4O7/c1-4-49-32(43)21-40-24-11-9-10-23(19-24)16-17-39-34(45)30(20-31(37)38)42-35(46)29(18-22(2)3)41-33(44)27-14-7-5-12-25(27)26-13-6-8-15-28(26)36(47)48/h5-15,19,22,29-31,40H,4,16-18,20-21H2,1-3H3,(H,39,45)(H,41,44)(H,42,46)(H,47,48)/t29-,30-/m0/s1
> <PUBCHEM_IUPAC_INCHIKEY>
QBRZXLBIPWPXQY-KYJUHHDHSA-N
> <PUBCHEM_XLOGP3_AA>
6.2
> <PUBCHEM_EXACT_MASS>
680.30215602
> <PUBCHEM_MOLECULAR_FORMULA>
C36H42F2N4O7
> <PUBCHEM_MOLECULAR_WEIGHT>
680.7
> <PUBCHEM_OPENEYE_CAN_SMILES>
CCOC(=O)CNC1=CC=CC(=C1)CCNC(=O)C(CC(F)F)NC(=O)C(CC(C)C)NC(=O)C2=CC=CC=C2C3=CC=CC=C3C(=O)O
> <PUBCHEM_OPENEYE_ISO_SMILES>
CCOC(=O)CNC1=CC=CC(=C1)CCNC(=O)[C@H](CC(F)F)NC(=O)[C@H](CC(C)C)NC(=O)C2=CC=CC=C2C3=CC=CC=C3C(=O)O
> <PUBCHEM_CACTVS_TPSA>
163
> <PUBCHEM_MONOISOTOPIC_WEIGHT>
680.30215602
> <PUBCHEM_TOTAL_CHARGE>
0
> <PUBCHEM_HEAVY_ATOM_COUNT>
49
> <PUBCHEM_ATOM_DEF_STEREO_COUNT>
2
> <PUBCHEM_ATOM_UDEF_STEREO_COUNT>
0
> <PUBCHEM_BOND_DEF_STEREO_COUNT>
0
> <PUBCHEM_BOND_UDEF_STEREO_COUNT>
0
> <PUBCHEM_ISOTOPIC_ATOM_COUNT>
0
> <PUBCHEM_COMPONENT_COUNT>
1
> <PUBCHEM_CACTVS_TAUTO_COUNT>
-1
> <PUBCHEM_COORDINATE_TYPE>
1
5
255
> <PUBCHEM_BONDANNOTATIONS>
15  10  6
18  11  6
25  28  8
25  30  8
28  32  8
29  34  8
29  36  8
30  33  8
31  37  8
31  39  8
32  35  8
33  35  8
34  38  8
36  40  8
37  42  8
38  41  8
39  43  8
40  41  8
42  44  8
43  44  8
$$$$
