507724
  -OEChem-10302200282D
 40 43  0     1  0  0  0  0  0999 V2000
    2.5369    4.1936    0.0000 O   0  0  0  0  0  0  0  0  0  0  0  0
    7.3435   -1.8690    0.0000 O   0  0  0  0  0  0  0  0  0  0  0  0
    4.2690    4.1936    0.0000 O   0  0  0  0  0  0  0  0  0  0  0  0
    6.3947   -3.1796    0.0000 O   0  0  0  0  0  0  0  0  0  0  0  0
    8.0524   -4.4501    0.0000 O   0  0  0  0  0  0  0  0  0  0  0  0
    4.2690    2.1936    0.0000 N   0  0  0  0  0  0  0  0  0  0  0  0
    6.0812   -0.6111    0.0000 N   0  0  0  0  0  0  0  0  0  0  0  0
    3.4030    0.6936    0.0000 N   0  0  0  0  0  0  0  0  0  0  0  0
    6.0812    0.9984    0.0000 N   0  0  0  0  0  0  0  0  0  0  0  0
    4.2690   -0.8064    0.0000 N   0  0  0  0  0  0  0  0  0  0  0  0
    2.5369   -0.8064    0.0000 N   0  0  0  0  0  0  0  0  0  0  0  0
    3.4030    2.6936    0.0000 C   0  0  0  0  0  0  0  0  0  0  0  0
    2.4030    2.6936    0.0000 C   0  0  0  0  0  0  0  0  0  0  0  0
    2.9030    1.8276    0.0000 C   0  0  0  0  0  0  0  0  0  0  0  0
    3.4030    3.6936    0.0000 C   0  0  0  0  0  0  0  0  0  0  0  0
    4.2690    1.1936    0.0000 C   0  0  0  0  0  0  0  0  0  0  0  0
    6.3919   -1.5616    0.0000 C   0  0  1  0  0  0  0  0  0  0  0  0
    5.1350    0.6936    0.0000 C   0  0  0  0  0  0  0  0  0  0  0  0
    5.1350   -0.3064    0.0000 C   0  0  0  0  0  0  0  0  0  0  0  0
    5.8055   -2.3716    0.0000 C   0  0  0  0  0  0  0  0  0  0  0  0
    7.3452   -2.8690    0.0000 C   0  0  1  0  0  0  0  0  0  0  0  0
    6.6648    0.1936    0.0000 C   0  0  0  0  0  0  0  0  0  0  0  0
    3.4030   -0.3064    0.0000 C   0  0  0  0  0  0  0  0  0  0  0  0
    8.1552   -3.4554    0.0000 C   0  0  0  0  0  0  0  0  0  0  0  0
    2.2953    3.3042    0.0000 H   0  0  0  0  0  0  0  0  0  0  0  0
    1.8204    2.4816    0.0000 H   0  0  0  0  0  0  0  0  0  0  0  0
    2.4280    1.4291    0.0000 H   0  0  0  0  0  0  0  0  0  0  0  0
    3.3779    1.4291    0.0000 H   0  0  0  0  0  0  0  0  0  0  0  0
    4.8059    2.5036    0.0000 H   0  0  0  0  0  0  0  0  0  0  0  0
    5.7794   -1.4657    0.0000 H   0  0  0  0  0  0  0  0  0  0  0  0
    5.3440   -1.9576    0.0000 H   0  0  0  0  0  0  0  0  0  0  0  0
    5.3455   -2.7873    0.0000 H   0  0  0  0  0  0  0  0  0  0  0  0
    7.2493   -3.4815    0.0000 H   0  0  0  0  0  0  0  0  0  0  0  0
    2.5369    4.8136    0.0000 H   0  0  0  0  0  0  0  0  0  0  0  0
    7.2848    0.1936    0.0000 H   0  0  0  0  0  0  0  0  0  0  0  0
    8.7515   -3.6252    0.0000 H   0  0  0  0  0  0  0  0  0  0  0  0
    8.4261   -2.8976    0.0000 H   0  0  0  0  0  0  0  0  0  0  0  0
    2.5369   -1.4264    0.0000 H   0  0  0  0  0  0  0  0  0  0  0  0
    2.0000   -0.4964    0.0000 H   0  0  0  0  0  0  0  0  0  0  0  0
    8.5547   -4.8136    0.0000 H   0  0  0  0  0  0  0  0  0  0  0  0
  1 15  1  0  0  0  0
  1 34  1  0  0  0  0
  2 17  1  0  0  0  0
  2 21  1  0  0  0  0
  3 15  2  0  0  0  0
  4 20  1  0  0  0  0
  4 21  1  0  0  0  0
  5 24  1  0  0  0  0
  5 40  1  0  0  0  0
  6 12  1  0  0  0  0
  6 16  1  0  0  0  0
  6 29  1  0  0  0  0
 17  7  1  6  0  0  0
  7 19  1  0  0  0  0
  7 22  1  0  0  0  0
  8 16  1  0  0  0  0
  8 23  2  0  0  0  0
  9 18  1  0  0  0  0
  9 22  2  0  0  0  0
 10 19  2  0  0  0  0
 10 23  1  0  0  0  0
 11 23  1  0  0  0  0
 11 38  1  0  0  0  0
 11 39  1  0  0  0  0
 12 13  1  0  0  0  0
 12 14  1  0  0  0  0
 12 15  1  0  0  0  0
 13 14  1  0  0  0  0
 13 25  1  0  0  0  0
 13 26  1  0  0  0  0
 14 27  1  0  0  0  0
 14 28  1  0  0  0  0
 16 18  2  0  0  0  0
 17 20  1  0  0  0  0
 17 30  1  0  0  0  0
 18 19  1  0  0  0  0
 20 31  1  0  0  0  0
 20 32  1  0  0  0  0
 21 24  1  6  0  0  0
 21 33  1  0  0  0  0
 22 35  1  0  0  0  0
 24 36  1  0  0  0  0
 24 37  1  0  0  0  0
M  END
> <PUBCHEM_COMPOUND_CID>
507724
> <PUBCHEM_COMPOUND_CANONICALIZED>
1
> <PUBCHEM_CACTVS_COMPLEXITY>
505
> <PUBCHEM_CACTVS_HBOND_ACCEPTOR>
10
> <PUBCHEM_CACTVS_HBOND_DONOR>
4
> <PUBCHEM_CACTVS_ROTATABLE_BOND>
5
> <PUBCHEM_CACTVS_SUBSKEYS>
AAADceBzuAAAAAAAAAAAAAAAGAAAAWJAAAAsAAAAAAAAAFgB+AAAHgAQCAAADIjxlwcF+L/MFgCoAQbxbACAgC0REKABUCGoVBCTWBBASGA/RAgMEALXACAAAAAAAAAAAAAAAAAAAAAAAAAAAAAAAAAAAA==
> <PUBCHEM_IUPAC_OPENEYE_NAME>
1-[[2-amino-9-[(2R,4R)-2-(hydroxymethyl)-1,3-dioxolan-4-yl]purin-6-yl]amino]cyclopropanecarboxylic acid
> <PUBCHEM_IUPAC_CAS_NAME>
1-[[2-amino-9-[(2R,4R)-2-(hydroxymethyl)-1,3-dioxolan-4-yl]-6-purinyl]amino]-1-cyclopropanecarboxylic acid
> <PUBCHEM_IUPAC_NAME_MARKUP>
1-[[2-amino-9-[(2<I>R</I>,4<I>R</I>)-2-(hydroxymethyl)-1,3-dioxolan-4-yl]purin-6-yl]amino]cyclopropane-1-carboxylic acid
> <PUBCHEM_IUPAC_NAME>
1-[[2-amino-9-[(2R,4R)-2-(hydroxymethyl)-1,3-dioxolan-4-yl]purin-6-yl]amino]cyclopropane-1-carboxylic acid
> <PUBCHEM_IUPAC_SYSTEMATIC_NAME>
1-[[2-azanyl-9-[(2R,4R)-2-(hydroxymethyl)-1,3-dioxolan-4-yl]purin-6-yl]amino]cyclopropane-1-carboxylic acid
> <PUBCHEM_IUPAC_TRADITIONAL_NAME>
1-[[2-amino-9-[(2R,4R)-2-methylol-1,3-dioxolan-4-yl]purin-6-yl]amino]cyclopropanecarboxylic acid
> <PUBCHEM_IUPAC_INCHI>
InChI=1S/C13H16N6O5/c14-12-16-9(18-13(1-2-13)11(21)22)8-10(17-12)19(5-15-8)6-4-23-7(3-20)24-6/h5-7,20H,1-4H2,(H,21,22)(H3,14,16,17,18)/t6-,7-/m1/s1
> <PUBCHEM_IUPAC_INCHIKEY>
DOYKUKZEBYJTGY-RNFRBKRXSA-N
> <PUBCHEM_XLOGP3_AA>
-1
> <PUBCHEM_EXACT_MASS>
336.11821763
> <PUBCHEM_MOLECULAR_FORMULA>
C13H16N6O5
> <PUBCHEM_MOLECULAR_WEIGHT>
336.30
> <PUBCHEM_OPENEYE_CAN_SMILES>
C1CC1(C(=O)O)NC2=C3C(=NC(=N2)N)N(C=N3)C4COC(O4)CO
> <PUBCHEM_OPENEYE_ISO_SMILES>
C1CC1(C(=O)O)NC2=C3C(=NC(=N2)N)N(C=N3)[C@H]4CO[C@H](O4)CO
> <PUBCHEM_CACTVS_TPSA>
158
> <PUBCHEM_MONOISOTOPIC_WEIGHT>
336.11821763
> <PUBCHEM_TOTAL_CHARGE>
0
> <PUBCHEM_HEAVY_ATOM_COUNT>
24
> <PUBCHEM_ATOM_DEF_STEREO_COUNT>
2
> <PUBCHEM_ATOM_UDEF_STEREO_COUNT>
0
> <PUBCHEM_BOND_DEF_STEREO_COUNT>
0
> <PUBCHEM_BOND_UDEF_STEREO_COUNT>
0
> <PUBCHEM_ISOTOPIC_ATOM_COUNT>
0
> <PUBCHEM_COMPONENT_COUNT>
1
> <PUBCHEM_CACTVS_TAUTO_COUNT>
-1
> <PUBCHEM_COORDINATE_TYPE>
1
5
255
> <PUBCHEM_BONDANNOTATIONS>
10  19  8
10  23  8
16  18  8
18  19  8
21  24  6
17  7  6
7  19  8
7  22  8
8  16  8
8  23  8
9  18  8
9  22  8
$$$$
