507719
  -OEChem-10302200282D
 75 77  0     1  0  0  0  0  0999 V2000
    4.5981   -3.0000    0.0000 Cl  0  0  0  0  0  0  0  0  0  0  0  0
    2.8660   -6.0000    0.0000 Cl  0  0  0  0  0  0  0  0  0  0  0  0
    2.8660    1.0000    0.0000 S   0  0  0  0  0  0  0  0  0  0  0  0
    4.5981    3.0000    0.0000 O   0  0  0  0  0  0  0  0  0  0  0  0
    8.0622    4.0000    0.0000 O   0  0  0  0  0  0  0  0  0  0  0  0
    5.4641   -0.5000    0.0000 O   0  0  0  0  0  0  0  0  0  0  0  0
   12.3923    4.5000    0.0000 O   0  0  0  0  0  0  0  0  0  0  0  0
   11.5263    3.0000    0.0000 O   0  0  0  0  0  0  0  0  0  0  0  0
    7.1962    2.5000    0.0000 N   0  0  0  0  0  0  0  0  0  0  0  0
    5.4641    1.5000    0.0000 N   0  0  0  0  0  0  0  0  0  0  0  0
    3.7320   -0.5000    0.0000 N   0  0  0  0  0  0  0  0  0  0  0  0
    6.3301    4.0000    0.0000 C   0  0  0  0  0  0  0  0  0  0  0  0
    6.3301    3.0000    0.0000 C   0  0  1  0  0  0  0  0  0  0  0  0
    5.4641    4.5000    0.0000 C   0  0  0  0  0  0  0  0  0  0  0  0
    5.4641    2.5000    0.0000 C   0  0  0  0  0  0  0  0  0  0  0  0
    5.4641    5.5000    0.0000 C   0  0  0  0  0  0  0  0  0  0  0  0
    4.5981    4.0000    0.0000 C   0  0  0  0  0  0  0  0  0  0  0  0
    4.5981    1.0000    0.0000 C   0  0  1  0  0  0  0  0  0  0  0  0
    8.0622    3.0000    0.0000 C   0  0  0  0  0  0  0  0  0  0  0  0
    3.7320    1.5000    0.0000 C   0  0  0  0  0  0  0  0  0  0  0  0
    4.5981    0.0000    0.0000 C   0  0  0  0  0  0  0  0  0  0  0  0
    8.9282    2.5000    0.0000 C   0  0  0  0  0  0  0  0  0  0  0  0
    9.7942    3.0000    0.0000 C   0  0  0  0  0  0  0  0  0  0  0  0
    3.7320   -1.5000    0.0000 C   0  0  0  0  0  0  0  0  0  0  0  0
    2.8660   -2.0000    0.0000 C   0  0  0  0  0  0  0  0  0  0  0  0
    8.9282    1.5000    0.0000 C   0  0  0  0  0  0  0  0  0  0  0  0
    9.7942    4.0000    0.0000 C   0  0  0  0  0  0  0  0  0  0  0  0
   10.6603    2.5000    0.0000 C   0  0  0  0  0  0  0  0  0  0  0  0
    2.8660   -3.0000    0.0000 C   0  0  0  0  0  0  0  0  0  0  0  0
    9.7942    1.0000    0.0000 C   0  0  0  0  0  0  0  0  0  0  0  0
   10.6603    1.5000    0.0000 C   0  0  0  0  0  0  0  0  0  0  0  0
   10.6603    4.5000    0.0000 C   0  0  0  0  0  0  0  0  0  0  0  0
    8.9282    4.5000    0.0000 C   0  0  0  0  0  0  0  0  0  0  0  0
    3.7320   -3.5000    0.0000 C   0  0  0  0  0  0  0  0  0  0  0  0
    2.0000   -3.5000    0.0000 C   0  0  0  0  0  0  0  0  0  0  0  0
   10.6603    5.5000    0.0000 C   0  0  0  0  0  0  0  0  0  0  0  0
    8.9282    5.5000    0.0000 C   0  0  0  0  0  0  0  0  0  0  0  0
    9.7942    6.0000    0.0000 C   0  0  0  0  0  0  0  0  0  0  0  0
    3.7320   -4.5000    0.0000 C   0  0  0  0  0  0  0  0  0  0  0  0
    2.0000   -4.5000    0.0000 C   0  0  0  0  0  0  0  0  0  0  0  0
   11.5263    4.0000    0.0000 C   0  0  0  0  0  0  0  0  0  0  0  0
    2.8660   -5.0000    0.0000 C   0  0  0  0  0  0  0  0  0  0  0  0
    6.9407    3.8923    0.0000 H   0  0  0  0  0  0  0  0  0  0  0  0
    6.5422    4.5826    0.0000 H   0  0  0  0  0  0  0  0  0  0  0  0
    6.8671    3.3100    0.0000 H   0  0  0  0  0  0  0  0  0  0  0  0
    5.4641    3.8800    0.0000 H   0  0  0  0  0  0  0  0  0  0  0  0
    6.0841    5.5000    0.0000 H   0  0  0  0  0  0  0  0  0  0  0  0
    5.4641    6.1200    0.0000 H   0  0  0  0  0  0  0  0  0  0  0  0
    4.8441    5.5000    0.0000 H   0  0  0  0  0  0  0  0  0  0  0  0
    4.2881    4.5369    0.0000 H   0  0  0  0  0  0  0  0  0  0  0  0
    4.0611    3.6900    0.0000 H   0  0  0  0  0  0  0  0  0  0  0  0
    4.9081    3.4631    0.0000 H   0  0  0  0  0  0  0  0  0  0  0  0
    7.1962    1.8800    0.0000 H   0  0  0  0  0  0  0  0  0  0  0  0
    4.5981    1.6200    0.0000 H   0  0  0  0  0  0  0  0  0  0  0  0
    6.0010    1.1900    0.0000 H   0  0  0  0  0  0  0  0  0  0  0  0
    4.1306    1.9750    0.0000 H   0  0  0  0  0  0  0  0  0  0  0  0
    3.3335    1.9750    0.0000 H   0  0  0  0  0  0  0  0  0  0  0  0
    3.1951   -0.1900    0.0000 H   0  0  0  0  0  0  0  0  0  0  0  0
    3.9441   -2.0826    0.0000 H   0  0  0  0  0  0  0  0  0  0  0  0
    4.3426   -1.3923    0.0000 H   0  0  0  0  0  0  0  0  0  0  0  0
    2.6540   -1.4174    0.0000 H   0  0  0  0  0  0  0  0  0  0  0  0
    2.2554   -2.1077    0.0000 H   0  0  0  0  0  0  0  0  0  0  0  0
    8.3913    1.1900    0.0000 H   0  0  0  0  0  0  0  0  0  0  0  0
   11.1972    2.8100    0.0000 H   0  0  0  0  0  0  0  0  0  0  0  0
    9.7942    0.3800    0.0000 H   0  0  0  0  0  0  0  0  0  0  0  0
    2.3291    1.3100    0.0000 H   0  0  0  0  0  0  0  0  0  0  0  0
   11.1972    1.1900    0.0000 H   0  0  0  0  0  0  0  0  0  0  0  0
    8.3913    4.1900    0.0000 H   0  0  0  0  0  0  0  0  0  0  0  0
    1.4631   -3.1900    0.0000 H   0  0  0  0  0  0  0  0  0  0  0  0
   11.1972    5.8100    0.0000 H   0  0  0  0  0  0  0  0  0  0  0  0
    8.3913    5.8100    0.0000 H   0  0  0  0  0  0  0  0  0  0  0  0
    9.7942    6.6200    0.0000 H   0  0  0  0  0  0  0  0  0  0  0  0
    4.2690   -4.8100    0.0000 H   0  0  0  0  0  0  0  0  0  0  0  0
    1.4631   -4.8100    0.0000 H   0  0  0  0  0  0  0  0  0  0  0  0
   12.9292    4.1900    0.0000 H   0  0  0  0  0  0  0  0  0  0  0  0
  1 34  1  0  0  0  0
  2 42  1  0  0  0  0
  3 20  1  0  0  0  0
  3 66  1  0  0  0  0
  4 15  2  0  0  0  0
  5 19  2  0  0  0  0
  6 21  2  0  0  0  0
  7 41  1  0  0  0  0
  7 75  1  0  0  0  0
  8 41  2  0  0  0  0
 13  9  1  6  0  0  0
  9 19  1  0  0  0  0
  9 53  1  0  0  0  0
 10 15  1  0  0  0  0
 18 10  1  6  0  0  0
 10 55  1  0  0  0  0
 11 21  1  0  0  0  0
 11 24  1  0  0  0  0
 11 58  1  0  0  0  0
 12 13  1  0  0  0  0
 12 14  1  0  0  0  0
 12 43  1  0  0  0  0
 12 44  1  0  0  0  0
 13 15  1  0  0  0  0
 13 45  1  0  0  0  0
 14 16  1  0  0  0  0
 14 17  1  0  0  0  0
 14 46  1  0  0  0  0
 16 47  1  0  0  0  0
 16 48  1  0  0  0  0
 16 49  1  0  0  0  0
 17 50  1  0  0  0  0
 17 51  1  0  0  0  0
 17 52  1  0  0  0  0
 18 20  1  0  0  0  0
 18 21  1  0  0  0  0
 18 54  1  0  0  0  0
 19 22  1  0  0  0  0
 20 56  1  0  0  0  0
 20 57  1  0  0  0  0
 22 23  1  0  0  0  0
 22 26  2  0  0  0  0
 23 27  1  0  0  0  0
 23 28  2  0  0  0  0
 24 25  1  0  0  0  0
 24 59  1  0  0  0  0
 24 60  1  0  0  0  0
 25 29  1  0  0  0  0
 25 61  1  0  0  0  0
 25 62  1  0  0  0  0
 26 30  1  0  0  0  0
 26 63  1  0  0  0  0
 27 32  1  0  0  0  0
 27 33  2  0  0  0  0
 28 31  1  0  0  0  0
 28 64  1  0  0  0  0
 29 34  2  0  0  0  0
 29 35  1  0  0  0  0
 30 31  2  0  0  0  0
 30 65  1  0  0  0  0
 31 67  1  0  0  0  0
 32 36  2  0  0  0  0
 32 41  1  0  0  0  0
 33 37  1  0  0  0  0
 33 68  1  0  0  0  0
 34 39  1  0  0  0  0
 35 40  2  0  0  0  0
 35 69  1  0  0  0  0
 36 38  1  0  0  0  0
 36 70  1  0  0  0  0
 37 38  2  0  0  0  0
 37 71  1  0  0  0  0
 38 72  1  0  0  0  0
 39 42  2  0  0  0  0
 39 73  1  0  0  0  0
 40 42  1  0  0  0  0
 40 74  1  0  0  0  0
M  END
> <PUBCHEM_COMPOUND_CID>
507719
> <PUBCHEM_COMPOUND_CANONICALIZED>
1
> <PUBCHEM_CACTVS_COMPLEXITY>
925
> <PUBCHEM_CACTVS_HBOND_ACCEPTOR>
6
> <PUBCHEM_CACTVS_HBOND_DONOR>
5
> <PUBCHEM_CACTVS_ROTATABLE_BOND>
13
> <PUBCHEM_CACTVS_SUBSKEYS>
AAADcfB7OABGAAAAAAAAAAAAAAAAAAAAAAAwYMAAAAAAAAABUAAAHgYQCAAADSrF2CSyCILAAgSIAiHSGACCAAAkBQAIiIGIDsgIZjKBlzGUcQhk1gGImYeYyPCOhAAAAACRAAAIAAAAASIAAAAAAAAAAA==
> <PUBCHEM_IUPAC_OPENEYE_NAME>
2-[2-[[(1S)-1-[[(1R)-2-[2-(2,4-dichlorophenyl)ethylamino]-2-oxo-1-(sulfanylmethyl)ethyl]carbamoyl]-3-methyl-butyl]carbamoyl]phenyl]benzoic acid
> <PUBCHEM_IUPAC_CAS_NAME>
2-[2-[[[(2S)-1-[[(2R)-1-[2-(2,4-dichlorophenyl)ethylamino]-3-mercapto-1-oxopropan-2-yl]amino]-4-methyl-1-oxopentan-2-yl]amino]-oxomethyl]phenyl]benzoic acid
> <PUBCHEM_IUPAC_NAME_MARKUP>
2-[2-[[(2<I>S</I>)-1-[[(2<I>R</I>)-1-[2-(2,4-dichlorophenyl)ethylamino]-1-oxo-3-sulfanylpropan-2-yl]amino]-4-methyl-1-oxopentan-2-yl]carbamoyl]phenyl]benzoic acid
> <PUBCHEM_IUPAC_NAME>
2-[2-[[(2S)-1-[[(2R)-1-[2-(2,4-dichlorophenyl)ethylamino]-1-oxo-3-sulfanylpropan-2-yl]amino]-4-methyl-1-oxopentan-2-yl]carbamoyl]phenyl]benzoic acid
> <PUBCHEM_IUPAC_SYSTEMATIC_NAME>
2-[2-[[(2S)-1-[[(2R)-1-[2-(2,4-dichlorophenyl)ethylamino]-1-oxidanylidene-3-sulfanyl-propan-2-yl]amino]-4-methyl-1-oxidanylidene-pentan-2-yl]carbamoyl]phenyl]benzoic acid
> <PUBCHEM_IUPAC_TRADITIONAL_NAME>
2-[2-[[(1S)-1-[[(1R)-2-[2-(2,4-dichlorophenyl)ethylamino]-2-keto-1-(mercaptomethyl)ethyl]carbamoyl]-3-methyl-butyl]carbamoyl]phenyl]benzoic acid
> <PUBCHEM_IUPAC_INCHI>
InChI=1S/C31H33Cl2N3O5S/c1-18(2)15-26(30(39)36-27(17-42)29(38)34-14-13-19-11-12-20(32)16-25(19)33)35-28(37)23-9-5-3-7-21(23)22-8-4-6-10-24(22)31(40)41/h3-12,16,18,26-27,42H,13-15,17H2,1-2H3,(H,34,38)(H,35,37)(H,36,39)(H,40,41)/t26-,27-/m0/s1
> <PUBCHEM_IUPAC_INCHIKEY>
ACNTVHRDXCXEMX-SVBPBHIXSA-N
> <PUBCHEM_XLOGP3_AA>
6.3
> <PUBCHEM_EXACT_MASS>
629.1517977
> <PUBCHEM_MOLECULAR_FORMULA>
C31H33Cl2N3O5S
> <PUBCHEM_MOLECULAR_WEIGHT>
630.6
> <PUBCHEM_OPENEYE_CAN_SMILES>
CC(C)CC(C(=O)NC(CS)C(=O)NCCC1=C(C=C(C=C1)Cl)Cl)NC(=O)C2=CC=CC=C2C3=CC=CC=C3C(=O)O
> <PUBCHEM_OPENEYE_ISO_SMILES>
CC(C)C[C@@H](C(=O)N[C@@H](CS)C(=O)NCCC1=C(C=C(C=C1)Cl)Cl)NC(=O)C2=CC=CC=C2C3=CC=CC=C3C(=O)O
> <PUBCHEM_CACTVS_TPSA>
126
> <PUBCHEM_MONOISOTOPIC_WEIGHT>
629.1517977
> <PUBCHEM_TOTAL_CHARGE>
0
> <PUBCHEM_HEAVY_ATOM_COUNT>
42
> <PUBCHEM_ATOM_DEF_STEREO_COUNT>
2
> <PUBCHEM_ATOM_UDEF_STEREO_COUNT>
0
> <PUBCHEM_BOND_DEF_STEREO_COUNT>
0
> <PUBCHEM_BOND_UDEF_STEREO_COUNT>
0
> <PUBCHEM_ISOTOPIC_ATOM_COUNT>
0
> <PUBCHEM_COMPONENT_COUNT>
1
> <PUBCHEM_CACTVS_TAUTO_COUNT>
-1
> <PUBCHEM_COORDINATE_TYPE>
1
5
255
> <PUBCHEM_BONDANNOTATIONS>
18  10  6
22  23  8
22  26  8
23  28  8
26  30  8
27  32  8
27  33  8
28  31  8
29  34  8
29  35  8
30  31  8
32  36  8
33  37  8
34  39  8
35  40  8
36  38  8
37  38  8
39  42  8
40  42  8
13  9  6
$$$$
