507714
  -OEChem-10302200282D
 92 95  0     1  0  0  0  0  0999 V2000
   12.5321    3.2996    0.0000 Cl  0  0  0  0  0  0  0  0  0  0  0  0
    8.0321    5.8976    0.0000 F   0  0  0  0  0  0  0  0  0  0  0  0
    9.5321    5.0316    0.0000 F   0  0  0  0  0  0  0  0  0  0  0  0
    7.0321   -1.0306    0.0000 O   0  0  0  0  0  0  0  0  0  0  0  0
    6.5321    3.2996    0.0000 O   0  0  0  0  0  0  0  0  0  0  0  0
    5.5321   -5.3607    0.0000 O   0  0  0  0  0  0  0  0  0  0  0  0
   10.0321    4.1656    0.0000 O   0  0  0  0  0  0  0  0  0  0  0  0
    7.0321   -4.4947    0.0000 O   0  0  0  0  0  0  0  0  0  0  0  0
   16.0321    0.7015    0.0000 O   0  0  0  0  0  0  0  0  0  0  0  0
   16.0321    2.4335    0.0000 O   0  0  0  0  0  0  0  0  0  0  0  0
    4.6660   -0.6645    0.0000 N   0  0  0  0  0  0  0  0  0  0  0  0
    7.0321    0.7015    0.0000 N   0  0  0  0  0  0  0  0  0  0  0  0
    8.0321    2.4335    0.0000 N   0  0  0  0  0  0  0  0  0  0  0  0
   10.0321    2.4335    0.0000 N   0  0  0  0  0  0  0  0  0  0  0  0
    5.5321   -0.1645    0.0000 C   0  0  3  0  0  0  0  0  0  0  0  0
    5.5321    0.8355    0.0000 C   0  0  0  0  0  0  0  0  0  0  0  0
    6.0321   -1.0306    0.0000 C   0  0  0  0  0  0  0  0  0  0  0  0
    4.6660    1.3355    0.0000 C   0  0  0  0  0  0  0  0  0  0  0  0
    6.5321   -0.1645    0.0000 C   0  0  0  0  0  0  0  0  0  0  0  0
    3.8000    0.8355    0.0000 C   0  0  0  0  0  0  0  0  0  0  0  0
    3.8000   -0.1645    0.0000 C   0  0  0  0  0  0  0  0  0  0  0  0
    6.5321    1.5675    0.0000 C   0  0  1  0  0  0  0  0  0  0  0  0
    5.5321   -1.8966    0.0000 C   0  0  0  0  0  0  0  0  0  0  0  0
    5.5321    1.5675    0.0000 C   0  0  0  0  0  0  0  0  0  0  0  0
    2.9061    1.3701    0.0000 C   0  0  0  0  0  0  0  0  0  0  0  0
    2.9061   -0.6992    0.0000 C   0  0  0  0  0  0  0  0  0  0  0  0
    5.0321    2.4335    0.0000 C   0  0  0  0  0  0  0  0  0  0  0  0
    7.0321    2.4335    0.0000 C   0  0  0  0  0  0  0  0  0  0  0  0
    6.0321   -2.7626    0.0000 C   0  0  0  0  0  0  0  0  0  0  0  0
    4.5321   -1.8966    0.0000 C   0  0  0  0  0  0  0  0  0  0  0  0
    2.0000    0.8563    0.0000 C   0  0  0  0  0  0  0  0  0  0  0  0
    2.0000   -0.1854    0.0000 C   0  0  0  0  0  0  0  0  0  0  0  0
    4.0321    2.4335    0.0000 C   0  0  0  0  0  0  0  0  0  0  0  0
    5.5321    3.2996    0.0000 C   0  0  0  0  0  0  0  0  0  0  0  0
    5.5321   -3.6286    0.0000 C   0  0  0  0  0  0  0  0  0  0  0  0
    8.5321    3.2996    0.0000 C   0  0  1  0  0  0  0  0  0  0  0  0
    4.0321   -2.7626    0.0000 C   0  0  0  0  0  0  0  0  0  0  0  0
    4.5321   -3.6286    0.0000 C   0  0  0  0  0  0  0  0  0  0  0  0
    8.0321    4.1656    0.0000 C   0  0  0  0  0  0  0  0  0  0  0  0
    9.5321    3.2996    0.0000 C   0  0  0  0  0  0  0  0  0  0  0  0
    6.0321   -4.4947    0.0000 C   0  0  0  0  0  0  0  0  0  0  0  0
    8.5321    5.0316    0.0000 C   0  0  0  0  0  0  0  0  0  0  0  0
   11.0321    2.4335    0.0000 C   0  0  0  0  0  0  0  0  0  0  0  0
   11.5321    1.5675    0.0000 C   0  0  0  0  0  0  0  0  0  0  0  0
   12.5321    1.5675    0.0000 C   0  0  0  0  0  0  0  0  0  0  0  0
   13.0321    2.4335    0.0000 C   0  0  0  0  0  0  0  0  0  0  0  0
   13.0321    0.7015    0.0000 C   0  0  0  0  0  0  0  0  0  0  0  0
   14.0321    2.4335    0.0000 C   0  0  0  0  0  0  0  0  0  0  0  0
   14.0321    0.7015    0.0000 C   0  0  0  0  0  0  0  0  0  0  0  0
   14.5321    1.5675    0.0000 C   0  0  0  0  0  0  0  0  0  0  0  0
   15.5321    1.5675    0.0000 C   0  0  0  0  0  0  0  0  0  0  0  0
    6.1426    0.7278    0.0000 H   0  0  0  0  0  0  0  0  0  0  0  0
    5.7441    1.4181    0.0000 H   0  0  0  0  0  0  0  0  0  0  0  0
    6.5070   -1.4291    0.0000 H   0  0  0  0  0  0  0  0  0  0  0  0
    6.5070   -0.6320    0.0000 H   0  0  0  0  0  0  0  0  0  0  0  0
    5.0646    1.8104    0.0000 H   0  0  0  0  0  0  0  0  0  0  0  0
    4.2675    1.8104    0.0000 H   0  0  0  0  0  0  0  0  0  0  0  0
    4.6660   -1.2845    0.0000 H   0  0  0  0  0  0  0  0  0  0  0  0
    6.2221    1.0306    0.0000 H   0  0  0  0  0  0  0  0  0  0  0  0
    7.6521    0.7015    0.0000 H   0  0  0  0  0  0  0  0  0  0  0  0
    4.9494    1.3554    0.0000 H   0  0  0  0  0  0  0  0  0  0  0  0
    5.6397    0.9569    0.0000 H   0  0  0  0  0  0  0  0  0  0  0  0
    2.9132    1.9901    0.0000 H   0  0  0  0  0  0  0  0  0  0  0  0
    2.9132   -1.3192    0.0000 H   0  0  0  0  0  0  0  0  0  0  0  0
    4.7221    1.8966    0.0000 H   0  0  0  0  0  0  0  0  0  0  0  0
    6.6521   -2.7626    0.0000 H   0  0  0  0  0  0  0  0  0  0  0  0
    4.2221   -1.3597    0.0000 H   0  0  0  0  0  0  0  0  0  0  0  0
    1.4643    1.1683    0.0000 H   0  0  0  0  0  0  0  0  0  0  0  0
    1.4643   -0.4974    0.0000 H   0  0  0  0  0  0  0  0  0  0  0  0
    4.0321    3.0535    0.0000 H   0  0  0  0  0  0  0  0  0  0  0  0
    3.4121    2.4335    0.0000 H   0  0  0  0  0  0  0  0  0  0  0  0
    4.0321    1.8135    0.0000 H   0  0  0  0  0  0  0  0  0  0  0  0
    6.0690    2.9896    0.0000 H   0  0  0  0  0  0  0  0  0  0  0  0
    5.8421    3.8365    0.0000 H   0  0  0  0  0  0  0  0  0  0  0  0
    4.9951    3.6096    0.0000 H   0  0  0  0  0  0  0  0  0  0  0  0
    8.3421    1.8966    0.0000 H   0  0  0  0  0  0  0  0  0  0  0  0
    7.9121    3.2996    0.0000 H   0  0  0  0  0  0  0  0  0  0  0  0
    3.4121   -2.7626    0.0000 H   0  0  0  0  0  0  0  0  0  0  0  0
    4.2221   -4.1656    0.0000 H   0  0  0  0  0  0  0  0  0  0  0  0
    7.5571    4.5641    0.0000 H   0  0  0  0  0  0  0  0  0  0  0  0
    7.5571    3.7670    0.0000 H   0  0  0  0  0  0  0  0  0  0  0  0
    7.9121    5.0316    0.0000 H   0  0  0  0  0  0  0  0  0  0  0  0
    9.7221    1.8966    0.0000 H   0  0  0  0  0  0  0  0  0  0  0  0
   11.6147    2.6456    0.0000 H   0  0  0  0  0  0  0  0  0  0  0  0
   10.9244    3.0441    0.0000 H   0  0  0  0  0  0  0  0  0  0  0  0
   10.9495    1.3554    0.0000 H   0  0  0  0  0  0  0  0  0  0  0  0
   11.6397    0.9569    0.0000 H   0  0  0  0  0  0  0  0  0  0  0  0
    5.8421   -5.8976    0.0000 H   0  0  0  0  0  0  0  0  0  0  0  0
   12.7221    0.1645    0.0000 H   0  0  0  0  0  0  0  0  0  0  0  0
   14.3421    2.9705    0.0000 H   0  0  0  0  0  0  0  0  0  0  0  0
   14.3421    0.1645    0.0000 H   0  0  0  0  0  0  0  0  0  0  0  0
   16.6521    0.7015    0.0000 H   0  0  0  0  0  0  0  0  0  0  0  0
  1 46  1  0  0  0  0
  2 42  1  0  0  0  0
  3 42  1  0  0  0  0
  4 19  2  0  0  0  0
  5 28  2  0  0  0  0
  6 41  1  0  0  0  0
  6 88  1  0  0  0  0
  7 40  2  0  0  0  0
  8 41  2  0  0  0  0
  9 51  1  0  0  0  0
  9 92  1  0  0  0  0
 10 51  2  0  0  0  0
 11 15  1  0  0  0  0
 11 21  1  0  0  0  0
 11 58  1  0  0  0  0
 12 19  1  0  0  0  0
 22 12  1  1  0  0  0
 12 60  1  0  0  0  0
 13 28  1  0  0  0  0
 36 13  1  1  0  0  0
 13 76  1  0  0  0  0
 14 40  1  0  0  0  0
 14 43  1  0  0  0  0
 14 83  1  0  0  0  0
 15 16  1  0  0  0  0
 15 17  1  0  0  0  0
 15 19  1  0  0  0  0
 16 18  1  0  0  0  0
 16 52  1  0  0  0  0
 16 53  1  0  0  0  0
 17 23  1  0  0  0  0
 17 54  1  0  0  0  0
 17 55  1  0  0  0  0
 18 20  1  0  0  0  0
 18 56  1  0  0  0  0
 18 57  1  0  0  0  0
 20 21  1  0  0  0  0
 20 25  2  0  0  0  0
 21 26  2  0  0  0  0
 22 24  1  0  0  0  0
 22 28  1  0  0  0  0
 22 59  1  0  0  0  0
 23 29  2  0  0  0  0
 23 30  1  0  0  0  0
 24 27  1  0  0  0  0
 24 61  1  0  0  0  0
 24 62  1  0  0  0  0
 25 31  1  0  0  0  0
 25 63  1  0  0  0  0
 26 32  1  0  0  0  0
 26 64  1  0  0  0  0
 27 33  1  0  0  0  0
 27 34  1  0  0  0  0
 27 65  1  0  0  0  0
 29 35  1  0  0  0  0
 29 66  1  0  0  0  0
 30 37  2  0  0  0  0
 30 67  1  0  0  0  0
 31 32  2  0  0  0  0
 31 68  1  0  0  0  0
 32 69  1  0  0  0  0
 33 70  1  0  0  0  0
 33 71  1  0  0  0  0
 33 72  1  0  0  0  0
 34 73  1  0  0  0  0
 34 74  1  0  0  0  0
 34 75  1  0  0  0  0
 35 38  2  0  0  0  0
 35 41  1  0  0  0  0
 36 39  1  0  0  0  0
 36 40  1  0  0  0  0
 36 77  1  0  0  0  0
 37 38  1  0  0  0  0
 37 78  1  0  0  0  0
 38 79  1  0  0  0  0
 39 42  1  0  0  0  0
 39 80  1  0  0  0  0
 39 81  1  0  0  0  0
 42 82  1  0  0  0  0
 43 44  1  0  0  0  0
 43 84  1  0  0  0  0
 43 85  1  0  0  0  0
 44 45  1  0  0  0  0
 44 86  1  0  0  0  0
 44 87  1  0  0  0  0
 45 46  2  0  0  0  0
 45 47  1  0  0  0  0
 46 48  1  0  0  0  0
 47 49  2  0  0  0  0
 47 89  1  0  0  0  0
 48 50  2  0  0  0  0
 48 90  1  0  0  0  0
 49 50  1  0  0  0  0
 49 91  1  0  0  0  0
 50 51  1  0  0  0  0
M  END
> <PUBCHEM_COMPOUND_CID>
507714
> <PUBCHEM_COMPOUND_CANONICALIZED>
1
> <PUBCHEM_CACTVS_COMPLEXITY>
1230
> <PUBCHEM_CACTVS_HBOND_ACCEPTOR>
10
> <PUBCHEM_CACTVS_HBOND_DONOR>
6
> <PUBCHEM_CACTVS_ROTATABLE_BOND>
16
> <PUBCHEM_CACTVS_SUBSKEYS>
AAADcfB/uYAEAAAAAAAAAAAAAAAAAAAAAAA8YMEAAAAAAACxUAAAHwIQCAAADarBmDQyyILAAgCIAiXSWACCAAAlBwAIiIGIbsgIZjLBl7GUcQhk1gHI2YeYyPCOQAACIAADAACAAARAAAYAAAAAAAAAAA==
> <PUBCHEM_IUPAC_OPENEYE_NAME>
4-[2-[[(2S)-2-[[(2S)-2-[[2-[(3-carboxyphenyl)methyl]-3,4-dihydro-1H-quinoline-2-carbonyl]amino]-4-methyl-pentanoyl]amino]-4,4-difluoro-butanoyl]amino]ethyl]-3-chloro-benzoic acid
> <PUBCHEM_IUPAC_CAS_NAME>
4-[2-[[(2S)-2-[[(2S)-2-[[[2-[(3-carboxyphenyl)methyl]-3,4-dihydro-1H-quinolin-2-yl]-oxomethyl]amino]-4-methyl-1-oxopentyl]amino]-4,4-difluoro-1-oxobutyl]amino]ethyl]-3-chlorobenzoic acid
> <PUBCHEM_IUPAC_NAME_MARKUP>
4-[2-[[(2<I>S</I>)-2-[[(2<I>S</I>)-2-[[2-[(3-carboxyphenyl)methyl]-3,4-dihydro-1<I>H</I>-quinoline-2-carbonyl]amino]-4-methylpentanoyl]amino]-4,4-difluorobutanoyl]amino]ethyl]-3-chlorobenzoic acid
> <PUBCHEM_IUPAC_NAME>
4-[2-[[(2S)-2-[[(2S)-2-[[2-[(3-carboxyphenyl)methyl]-3,4-dihydro-1H-quinoline-2-carbonyl]amino]-4-methylpentanoyl]amino]-4,4-difluorobutanoyl]amino]ethyl]-3-chlorobenzoic acid
> <PUBCHEM_IUPAC_SYSTEMATIC_NAME>
4-[2-[[(2S)-2-[[(2S)-2-[[2-[(3-carboxyphenyl)methyl]-3,4-dihydro-1H-quinolin-2-yl]carbonylamino]-4-methyl-pentanoyl]amino]-4,4-bis(fluoranyl)butanoyl]amino]ethyl]-3-chloranyl-benzoic acid
> <PUBCHEM_IUPAC_TRADITIONAL_NAME>
4-[2-[[(2S)-2-[[(2S)-2-[[2-(3-carboxybenzyl)-3,4-dihydro-1H-quinoline-2-carbonyl]amino]-4-methyl-pentanoyl]amino]-4,4-difluoro-butanoyl]amino]ethyl]-3-chloro-benzoic acid
> <PUBCHEM_IUPAC_INCHI>
InChI=1S/C37H41ClF2N4O7/c1-21(2)16-29(33(46)42-30(19-31(39)40)32(45)41-15-13-23-10-11-26(35(49)50)18-27(23)38)43-36(51)37(14-12-24-7-3-4-9-28(24)44-37)20-22-6-5-8-25(17-22)34(47)48/h3-11,17-18,21,29-31,44H,12-16,19-20H2,1-2H3,(H,41,45)(H,42,46)(H,43,51)(H,47,48)(H,49,50)/t29-,30-,37?/m0/s1
> <PUBCHEM_IUPAC_INCHIKEY>
MWNCTZKWZHSVNR-KLCUDZNTSA-N
> <PUBCHEM_XLOGP3_AA>
6.8
> <PUBCHEM_EXACT_MASS>
726.2631837
> <PUBCHEM_MOLECULAR_FORMULA>
C37H41ClF2N4O7
> <PUBCHEM_MOLECULAR_WEIGHT>
727.2
> <PUBCHEM_OPENEYE_CAN_SMILES>
CC(C)CC(C(=O)NC(CC(F)F)C(=O)NCCC1=C(C=C(C=C1)C(=O)O)Cl)NC(=O)C2(CCC3=CC=CC=C3N2)CC4=CC(=CC=C4)C(=O)O
> <PUBCHEM_OPENEYE_ISO_SMILES>
CC(C)C[C@@H](C(=O)N[C@@H](CC(F)F)C(=O)NCCC1=C(C=C(C=C1)C(=O)O)Cl)NC(=O)C2(CCC3=CC=CC=C3N2)CC4=CC(=CC=C4)C(=O)O
> <PUBCHEM_CACTVS_TPSA>
174
> <PUBCHEM_MONOISOTOPIC_WEIGHT>
726.2631837
> <PUBCHEM_TOTAL_CHARGE>
0
> <PUBCHEM_HEAVY_ATOM_COUNT>
51
> <PUBCHEM_ATOM_DEF_STEREO_COUNT>
2
> <PUBCHEM_ATOM_UDEF_STEREO_COUNT>
1
> <PUBCHEM_BOND_DEF_STEREO_COUNT>
0
> <PUBCHEM_BOND_UDEF_STEREO_COUNT>
0
> <PUBCHEM_ISOTOPIC_ATOM_COUNT>
0
> <PUBCHEM_COMPONENT_COUNT>
1
> <PUBCHEM_CACTVS_TAUTO_COUNT>
-1
> <PUBCHEM_COORDINATE_TYPE>
1
5
255
> <PUBCHEM_BONDANNOTATIONS>
22  12  5
36  13  5
15  17  3
20  21  8
20  25  8
21  26  8
23  29  8
23  30  8
25  31  8
26  32  8
29  35  8
30  37  8
31  32  8
35  38  8
37  38  8
45  46  8
45  47  8
46  48  8
47  49  8
48  50  8
49  50  8
$$$$
