507752
  -OEChem-10302200282D
 49 52  0     1  0  0  0  0  0999 V2000
    6.6353   -1.1911    0.0000 O   0  0  0  0  0  0  0  0  0  0  0  0
    6.5422    4.0996    0.0000 O   0  0  0  0  0  0  0  0  0  0  0  0
    4.3211    0.0913    0.0000 O   0  0  0  0  0  0  0  0  0  0  0  0
    2.8660   -4.4083    0.0000 O   0  0  0  0  0  0  0  0  0  0  0  0
    6.2781    0.5037    0.0000 N   0  0  0  0  0  0  0  0  0  0  0  0
    6.8994    2.4048    0.0000 N   0  0  0  0  0  0  0  0  0  0  0  0
    4.6783   -3.2130    0.0000 N   0  0  0  0  0  0  0  0  0  0  0  0
    2.8660   -3.4083    0.0000 N   0  0  0  0  0  0  0  0  0  0  0  0
    5.6103    1.2480    0.0000 C   0  0  1  0  0  0  0  0  0  0  0  0
    5.9209    2.1986    0.0000 C   0  0  0  0  0  0  0  0  0  0  0  0
    7.2566    0.7100    0.0000 C   0  0  0  0  0  0  0  0  0  0  0  0
    7.5673    1.6605    0.0000 C   0  0  0  0  0  0  0  0  0  0  0  0
    4.6318    1.0418    0.0000 C   0  0  0  0  0  0  0  0  0  0  0  0
    5.9674   -0.4468    0.0000 C   0  0  0  0  0  0  0  0  0  0  0  0
    7.2101    3.3553    0.0000 C   0  0  0  0  0  0  0  0  0  0  0  0
    4.9889   -0.6530    0.0000 C   0  0  0  0  0  0  0  0  0  0  0  0
    8.1886    3.5615    0.0000 C   0  0  0  0  0  0  0  0  0  0  0  0
    4.6783   -1.6035    0.0000 C   0  0  0  0  0  0  0  0  0  0  0  0
    3.7320   -1.9083    0.0000 C   0  0  0  0  0  0  0  0  0  0  0  0
    8.4993    4.5120    0.0000 C   0  0  0  0  0  0  0  0  0  0  0  0
    8.8564    2.8172    0.0000 C   0  0  0  0  0  0  0  0  0  0  0  0
    3.7320   -2.9083    0.0000 C   0  0  0  0  0  0  0  0  0  0  0  0
    5.2619   -2.4083    0.0000 C   0  0  0  0  0  0  0  0  0  0  0  0
    2.8660   -1.4083    0.0000 C   0  0  0  0  0  0  0  0  0  0  0  0
    9.4778    4.7183    0.0000 C   0  0  0  0  0  0  0  0  0  0  0  0
    9.8349    3.0234    0.0000 C   0  0  0  0  0  0  0  0  0  0  0  0
    2.0000   -1.9083    0.0000 C   0  0  0  0  0  0  0  0  0  0  0  0
   10.1456    3.9740    0.0000 C   0  0  0  0  0  0  0  0  0  0  0  0
    2.0000   -2.9083    0.0000 C   0  0  0  0  0  0  0  0  0  0  0  0
    5.4176    0.6587    0.0000 H   0  0  0  0  0  0  0  0  0  0  0  0
    5.9004    2.8182    0.0000 H   0  0  0  0  0  0  0  0  0  0  0  0
    5.3071    2.2859    0.0000 H   0  0  0  0  0  0  0  0  0  0  0  0
    7.2772    0.0903    0.0000 H   0  0  0  0  0  0  0  0  0  0  0  0
    7.8704    0.6226    0.0000 H   0  0  0  0  0  0  0  0  0  0  0  0
    8.1142    1.3685    0.0000 H   0  0  0  0  0  0  0  0  0  0  0  0
    7.9498    2.1484    0.0000 H   0  0  0  0  0  0  0  0  0  0  0  0
    4.5039    1.6485    0.0000 H   0  0  0  0  0  0  0  0  0  0  0  0
    4.0251    0.9140    0.0000 H   0  0  0  0  0  0  0  0  0  0  0  0
    4.7596    0.4351    0.0000 H   0  0  0  0  0  0  0  0  0  0  0  0
    8.0852    4.9735    0.0000 H   0  0  0  0  0  0  0  0  0  0  0  0
    8.6638    2.2279    0.0000 H   0  0  0  0  0  0  0  0  0  0  0  0
    5.8819   -2.4083    0.0000 H   0  0  0  0  0  0  0  0  0  0  0  0
    2.8660   -0.7883    0.0000 H   0  0  0  0  0  0  0  0  0  0  0  0
    9.6704    5.3076    0.0000 H   0  0  0  0  0  0  0  0  0  0  0  0
   10.2490    2.5620    0.0000 H   0  0  0  0  0  0  0  0  0  0  0  0
    1.4631   -1.5983    0.0000 H   0  0  0  0  0  0  0  0  0  0  0  0
   10.7523    4.1018    0.0000 H   0  0  0  0  0  0  0  0  0  0  0  0
    1.4631   -3.2183    0.0000 H   0  0  0  0  0  0  0  0  0  0  0  0
    2.3291   -4.7183    0.0000 H   0  0  0  0  0  0  0  0  0  0  0  0
  1 14  2  0  0  0  0
  2 15  2  0  0  0  0
  3 16  2  0  0  0  0
  4  8  1  0  0  0  0
  4 49  1  0  0  0  0
  5  9  1  0  0  0  0
  5 11  1  0  0  0  0
  5 14  1  0  0  0  0
  6 10  1  0  0  0  0
  6 12  1  0  0  0  0
  6 15  1  0  0  0  0
  7 22  2  0  0  0  0
  7 23  1  0  0  0  0
  8 22  1  0  0  0  0
  8 29  1  0  0  0  0
  9 10  1  0  0  0  0
  9 13  1  6  0  0  0
  9 30  1  0  0  0  0
 10 31  1  0  0  0  0
 10 32  1  0  0  0  0
 11 12  1  0  0  0  0
 11 33  1  0  0  0  0
 11 34  1  0  0  0  0
 12 35  1  0  0  0  0
 12 36  1  0  0  0  0
 13 37  1  0  0  0  0
 13 38  1  0  0  0  0
 13 39  1  0  0  0  0
 14 16  1  0  0  0  0
 15 17  1  0  0  0  0
 16 18  1  0  0  0  0
 17 20  2  0  0  0  0
 17 21  1  0  0  0  0
 18 19  1  0  0  0  0
 18 23  2  0  0  0  0
 19 22  1  0  0  0  0
 19 24  2  0  0  0  0
 20 25  1  0  0  0  0
 20 40  1  0  0  0  0
 21 26  2  0  0  0  0
 21 41  1  0  0  0  0
 23 42  1  0  0  0  0
 24 27  1  0  0  0  0
 24 43  1  0  0  0  0
 25 28  2  0  0  0  0
 25 44  1  0  0  0  0
 26 28  1  0  0  0  0
 26 45  1  0  0  0  0
 27 29  2  0  0  0  0
 27 46  1  0  0  0  0
 28 47  1  0  0  0  0
 29 48  1  0  0  0  0
M  END
> <PUBCHEM_COMPOUND_CID>
507752
> <PUBCHEM_COMPOUND_CANONICALIZED>
1
> <PUBCHEM_CACTVS_COMPLEXITY>
651
> <PUBCHEM_CACTVS_HBOND_ACCEPTOR>
5
> <PUBCHEM_CACTVS_HBOND_DONOR>
1
> <PUBCHEM_CACTVS_ROTATABLE_BOND>
3
> <PUBCHEM_CACTVS_SUBSKEYS>
AAADceB7uAAAAAAAAAAAAAAAAAAAAWAAAAA8WIAAAAAAAFgBwAAAHgAECAAADCzBmwQ/sN8YEACoArN3dACCgCk1AqAp2CG4ZNiIaPrAnbGUIYhohgLIyecciQCOgAAAAAAAAAAAAAAAAAAAAAAAAAAAAA==
> <PUBCHEM_IUPAC_OPENEYE_NAME>
1-[(2R)-4-benzoyl-2-methyl-piperazin-1-yl]-2-(7-hydroxypyrrolo[2,3-b]pyridin-3-yl)ethane-1,2-dione
> <PUBCHEM_IUPAC_CAS_NAME>
1-[(2R)-4-benzoyl-2-methyl-1-piperazinyl]-2-(7-hydroxy-3-pyrrolo[2,3-b]pyridinyl)ethane-1,2-dione
> <PUBCHEM_IUPAC_NAME_MARKUP>
1-[(2<I>R</I>)-4-benzoyl-2-methylpiperazin-1-yl]-2-(7-hydroxypyrrolo[2,3-b]pyridin-3-yl)ethane-1,2-dione
> <PUBCHEM_IUPAC_NAME>
1-[(2R)-4-benzoyl-2-methylpiperazin-1-yl]-2-(7-hydroxypyrrolo[2,3-b]pyridin-3-yl)ethane-1,2-dione
> <PUBCHEM_IUPAC_SYSTEMATIC_NAME>
1-[(2R)-2-methyl-4-(phenylcarbonyl)piperazin-1-yl]-2-(7-oxidanylpyrrolo[2,3-b]pyridin-3-yl)ethane-1,2-dione
> <PUBCHEM_IUPAC_TRADITIONAL_NAME>
1-[(2R)-4-benzoyl-2-methyl-piperazino]-2-(7-hydroxypyrrolo[2,3-b]pyridin-3-yl)ethane-1,2-dione
> <PUBCHEM_IUPAC_INCHI>
InChI=1S/C21H20N4O4/c1-14-13-23(20(27)15-6-3-2-4-7-15)10-11-24(14)21(28)18(26)17-12-22-19-16(17)8-5-9-25(19)29/h2-9,12,14,29H,10-11,13H2,1H3/t14-/m1/s1
> <PUBCHEM_IUPAC_INCHIKEY>
IQODVUKIVAFZGA-CQSZACIVSA-N
> <PUBCHEM_XLOGP3_AA>
1.8
> <PUBCHEM_EXACT_MASS>
392.14845513
> <PUBCHEM_MOLECULAR_FORMULA>
C21H20N4O4
> <PUBCHEM_MOLECULAR_WEIGHT>
392.4
> <PUBCHEM_OPENEYE_CAN_SMILES>
CC1CN(CCN1C(=O)C(=O)C2=CN=C3C2=CC=CN3O)C(=O)C4=CC=CC=C4
> <PUBCHEM_OPENEYE_ISO_SMILES>
C[C@@H]1CN(CCN1C(=O)C(=O)C2=CN=C3C2=CC=CN3O)C(=O)C4=CC=CC=C4
> <PUBCHEM_CACTVS_TPSA>
95.7
> <PUBCHEM_MONOISOTOPIC_WEIGHT>
392.14845513
> <PUBCHEM_TOTAL_CHARGE>
0
> <PUBCHEM_HEAVY_ATOM_COUNT>
29
> <PUBCHEM_ATOM_DEF_STEREO_COUNT>
1
> <PUBCHEM_ATOM_UDEF_STEREO_COUNT>
0
> <PUBCHEM_BOND_DEF_STEREO_COUNT>
0
> <PUBCHEM_BOND_UDEF_STEREO_COUNT>
0
> <PUBCHEM_ISOTOPIC_ATOM_COUNT>
0
> <PUBCHEM_COMPONENT_COUNT>
1
> <PUBCHEM_CACTVS_TAUTO_COUNT>
-1
> <PUBCHEM_COORDINATE_TYPE>
1
5
255
> <PUBCHEM_BONDANNOTATIONS>
17  20  8
17  21  8
18  19  8
18  23  8
19  24  8
20  25  8
21  26  8
24  27  8
25  28  8
26  28  8
27  29  8
7  22  8
7  23  8
8  22  8
8  29  8
9  13  6
$$$$
