507722
  -OEChem-10302200282D
 85 87  0     1  0  0  0  0  0999 V2000
    2.0000    2.4050    0.0000 F   0  0  0  0  0  0  0  0  0  0  0  0
    2.8660    0.9050    0.0000 F   0  0  0  0  0  0  0  0  0  0  0  0
    4.5981    3.9050    0.0000 O   0  0  0  0  0  0  0  0  0  0  0  0
    3.7320    0.4050    0.0000 O   0  0  0  0  0  0  0  0  0  0  0  0
    8.0622    4.9050    0.0000 O   0  0  0  0  0  0  0  0  0  0  0  0
   12.3923    5.4050    0.0000 O   0  0  0  0  0  0  0  0  0  0  0  0
   11.5263    3.9050    0.0000 O   0  0  0  0  0  0  0  0  0  0  0  0
    3.7320   -6.5950    0.0000 O   0  0  0  0  0  0  0  0  0  0  0  0
    2.8660   -5.0950    0.0000 O   0  0  0  0  0  0  0  0  0  0  0  0
    7.1962    3.4050    0.0000 N   0  0  0  0  0  0  0  0  0  0  0  0
    5.4641    2.4050    0.0000 N   0  0  0  0  0  0  0  0  0  0  0  0
    5.4641    0.4050    0.0000 N   0  0  0  0  0  0  0  0  0  0  0  0
    4.5981   -4.0950    0.0000 N   0  0  0  0  0  0  0  0  0  0  0  0
    6.3301    4.9050    0.0000 C   0  0  0  0  0  0  0  0  0  0  0  0
    6.3301    3.9050    0.0000 C   0  0  1  0  0  0  0  0  0  0  0  0
    5.4641    5.4050    0.0000 C   0  0  0  0  0  0  0  0  0  0  0  0
    5.4641    3.4050    0.0000 C   0  0  0  0  0  0  0  0  0  0  0  0
    4.5981    1.9050    0.0000 C   0  0  1  0  0  0  0  0  0  0  0  0
    5.4641    6.4050    0.0000 C   0  0  0  0  0  0  0  0  0  0  0  0
    4.5981    4.9050    0.0000 C   0  0  0  0  0  0  0  0  0  0  0  0
    3.7320    2.4050    0.0000 C   0  0  0  0  0  0  0  0  0  0  0  0
    4.5981    0.9050    0.0000 C   0  0  0  0  0  0  0  0  0  0  0  0
    8.0622    3.9050    0.0000 C   0  0  0  0  0  0  0  0  0  0  0  0
    2.8660    1.9050    0.0000 C   0  0  0  0  0  0  0  0  0  0  0  0
    8.9282    3.4050    0.0000 C   0  0  0  0  0  0  0  0  0  0  0  0
    5.4641   -0.5950    0.0000 C   0  0  0  0  0  0  0  0  0  0  0  0
    6.3301   -1.0950    0.0000 C   0  0  0  0  0  0  0  0  0  0  0  0
    9.7942    3.9050    0.0000 C   0  0  0  0  0  0  0  0  0  0  0  0
    6.3301   -2.0950    0.0000 C   0  0  0  0  0  0  0  0  0  0  0  0
    8.9282    2.4050    0.0000 C   0  0  0  0  0  0  0  0  0  0  0  0
    9.7942    4.9050    0.0000 C   0  0  0  0  0  0  0  0  0  0  0  0
   10.6603    3.4050    0.0000 C   0  0  0  0  0  0  0  0  0  0  0  0
    9.7942    1.9050    0.0000 C   0  0  0  0  0  0  0  0  0  0  0  0
    5.4641   -2.5950    0.0000 C   0  0  0  0  0  0  0  0  0  0  0  0
   10.6603    2.4050    0.0000 C   0  0  0  0  0  0  0  0  0  0  0  0
    7.1962   -2.5950    0.0000 C   0  0  0  0  0  0  0  0  0  0  0  0
   10.6603    5.4050    0.0000 C   0  0  0  0  0  0  0  0  0  0  0  0
    5.4641   -3.5950    0.0000 C   0  0  0  0  0  0  0  0  0  0  0  0
    8.9282    5.4050    0.0000 C   0  0  0  0  0  0  0  0  0  0  0  0
    7.1962   -3.5950    0.0000 C   0  0  0  0  0  0  0  0  0  0  0  0
    6.3301   -4.0950    0.0000 C   0  0  0  0  0  0  0  0  0  0  0  0
   10.6603    6.4050    0.0000 C   0  0  0  0  0  0  0  0  0  0  0  0
    8.9282    6.4050    0.0000 C   0  0  0  0  0  0  0  0  0  0  0  0
    9.7942    6.9050    0.0000 C   0  0  0  0  0  0  0  0  0  0  0  0
   11.5263    4.9050    0.0000 C   0  0  0  0  0  0  0  0  0  0  0  0
    4.5981   -5.0950    0.0000 C   0  0  0  0  0  0  0  0  0  0  0  0
    3.7320   -5.5950    0.0000 C   0  0  0  0  0  0  0  0  0  0  0  0
    6.9407    4.7973    0.0000 H   0  0  0  0  0  0  0  0  0  0  0  0
    6.5422    5.4876    0.0000 H   0  0  0  0  0  0  0  0  0  0  0  0
    6.8671    4.2150    0.0000 H   0  0  0  0  0  0  0  0  0  0  0  0
    5.4641    4.7850    0.0000 H   0  0  0  0  0  0  0  0  0  0  0  0
    4.5981    2.5250    0.0000 H   0  0  0  0  0  0  0  0  0  0  0  0
    6.0841    6.4050    0.0000 H   0  0  0  0  0  0  0  0  0  0  0  0
    5.4641    7.0250    0.0000 H   0  0  0  0  0  0  0  0  0  0  0  0
    4.8441    6.4050    0.0000 H   0  0  0  0  0  0  0  0  0  0  0  0
    4.2881    5.4419    0.0000 H   0  0  0  0  0  0  0  0  0  0  0  0
    4.0611    4.5950    0.0000 H   0  0  0  0  0  0  0  0  0  0  0  0
    4.9081    4.3681    0.0000 H   0  0  0  0  0  0  0  0  0  0  0  0
    7.1962    2.7850    0.0000 H   0  0  0  0  0  0  0  0  0  0  0  0
    6.0010    2.0950    0.0000 H   0  0  0  0  0  0  0  0  0  0  0  0
    4.1306    2.8800    0.0000 H   0  0  0  0  0  0  0  0  0  0  0  0
    3.3335    2.8800    0.0000 H   0  0  0  0  0  0  0  0  0  0  0  0
    2.8660    2.5250    0.0000 H   0  0  0  0  0  0  0  0  0  0  0  0
    6.0010    0.7150    0.0000 H   0  0  0  0  0  0  0  0  0  0  0  0
    4.8535   -0.4873    0.0000 H   0  0  0  0  0  0  0  0  0  0  0  0
    5.2520   -1.1776    0.0000 H   0  0  0  0  0  0  0  0  0  0  0  0
    6.9407   -1.2027    0.0000 H   0  0  0  0  0  0  0  0  0  0  0  0
    6.5422   -0.5124    0.0000 H   0  0  0  0  0  0  0  0  0  0  0  0
    8.3913    2.0950    0.0000 H   0  0  0  0  0  0  0  0  0  0  0  0
   11.1972    3.7150    0.0000 H   0  0  0  0  0  0  0  0  0  0  0  0
    9.7942    1.2850    0.0000 H   0  0  0  0  0  0  0  0  0  0  0  0
    4.9272   -2.2850    0.0000 H   0  0  0  0  0  0  0  0  0  0  0  0
   11.1972    2.0950    0.0000 H   0  0  0  0  0  0  0  0  0  0  0  0
    7.7331   -2.2850    0.0000 H   0  0  0  0  0  0  0  0  0  0  0  0
    8.3913    5.0950    0.0000 H   0  0  0  0  0  0  0  0  0  0  0  0
    7.7331   -3.9050    0.0000 H   0  0  0  0  0  0  0  0  0  0  0  0
    6.3301   -4.7150    0.0000 H   0  0  0  0  0  0  0  0  0  0  0  0
   11.1972    6.7150    0.0000 H   0  0  0  0  0  0  0  0  0  0  0  0
    8.3913    6.7150    0.0000 H   0  0  0  0  0  0  0  0  0  0  0  0
    4.0611   -3.7850    0.0000 H   0  0  0  0  0  0  0  0  0  0  0  0
    9.7942    7.5250    0.0000 H   0  0  0  0  0  0  0  0  0  0  0  0
    4.8101   -5.6776    0.0000 H   0  0  0  0  0  0  0  0  0  0  0  0
    5.2087   -4.9873    0.0000 H   0  0  0  0  0  0  0  0  0  0  0  0
   12.9292    5.0950    0.0000 H   0  0  0  0  0  0  0  0  0  0  0  0
    3.1951   -6.9050    0.0000 H   0  0  0  0  0  0  0  0  0  0  0  0
  1 24  1  0  0  0  0
  2 24  1  0  0  0  0
  3 17  2  0  0  0  0
  4 22  2  0  0  0  0
  5 23  2  0  0  0  0
  6 45  1  0  0  0  0
  6 84  1  0  0  0  0
  7 45  2  0  0  0  0
  8 47  1  0  0  0  0
  8 85  1  0  0  0  0
  9 47  2  0  0  0  0
 15 10  1  6  0  0  0
 10 23  1  0  0  0  0
 10 59  1  0  0  0  0
 11 17  1  0  0  0  0
 18 11  1  6  0  0  0
 11 60  1  0  0  0  0
 12 22  1  0  0  0  0
 12 26  1  0  0  0  0
 12 64  1  0  0  0  0
 13 38  1  0  0  0  0
 13 46  1  0  0  0  0
 13 80  1  0  0  0  0
 14 15  1  0  0  0  0
 14 16  1  0  0  0  0
 14 48  1  0  0  0  0
 14 49  1  0  0  0  0
 15 17  1  0  0  0  0
 15 50  1  0  0  0  0
 16 19  1  0  0  0  0
 16 20  1  0  0  0  0
 16 51  1  0  0  0  0
 18 21  1  0  0  0  0
 18 22  1  0  0  0  0
 18 52  1  0  0  0  0
 19 53  1  0  0  0  0
 19 54  1  0  0  0  0
 19 55  1  0  0  0  0
 20 56  1  0  0  0  0
 20 57  1  0  0  0  0
 20 58  1  0  0  0  0
 21 24  1  0  0  0  0
 21 61  1  0  0  0  0
 21 62  1  0  0  0  0
 23 25  1  0  0  0  0
 24 63  1  0  0  0  0
 25 28  1  0  0  0  0
 25 30  2  0  0  0  0
 26 27  1  0  0  0  0
 26 65  1  0  0  0  0
 26 66  1  0  0  0  0
 27 29  1  0  0  0  0
 27 67  1  0  0  0  0
 27 68  1  0  0  0  0
 28 31  1  0  0  0  0
 28 32  2  0  0  0  0
 29 34  2  0  0  0  0
 29 36  1  0  0  0  0
 30 33  1  0  0  0  0
 30 69  1  0  0  0  0
 31 37  1  0  0  0  0
 31 39  2  0  0  0  0
 32 35  1  0  0  0  0
 32 70  1  0  0  0  0
 33 35  2  0  0  0  0
 33 71  1  0  0  0  0
 34 38  1  0  0  0  0
 34 72  1  0  0  0  0
 35 73  1  0  0  0  0
 36 40  2  0  0  0  0
 36 74  1  0  0  0  0
 37 42  2  0  0  0  0
 37 45  1  0  0  0  0
 38 41  2  0  0  0  0
 39 43  1  0  0  0  0
 39 75  1  0  0  0  0
 40 41  1  0  0  0  0
 40 76  1  0  0  0  0
 41 77  1  0  0  0  0
 42 44  1  0  0  0  0
 42 78  1  0  0  0  0
 43 44  2  0  0  0  0
 43 79  1  0  0  0  0
 44 81  1  0  0  0  0
 46 47  1  0  0  0  0
 46 82  1  0  0  0  0
 46 83  1  0  0  0  0
M  END
> <PUBCHEM_COMPOUND_CID>
507722
> <PUBCHEM_COMPOUND_CANONICALIZED>
1
> <PUBCHEM_CACTVS_COMPLEXITY>
1060
> <PUBCHEM_CACTVS_HBOND_ACCEPTOR>
10
> <PUBCHEM_CACTVS_HBOND_DONOR>
6
> <PUBCHEM_CACTVS_ROTATABLE_BOND>
17
> <PUBCHEM_CACTVS_SUBSKEYS>
AAADcfB/uYAAAAAAAAAAAAAAAAAAAAAAAAAwYMAAAAAAAAABUAAAHwAQCAAADSjBmBQyyILAAgCIAiXSWACCAAAlAgAIiIGIbMgKZjLAlbGUcQhk1gHY2YeYyPCOgAAAQAAQAAAAAACAACAAAAAAAAAAAA==
> <PUBCHEM_IUPAC_OPENEYE_NAME>
2-[2-[[(1S)-1-[[(1S)-1-[2-[3-(carboxymethylamino)phenyl]ethylcarbamoyl]-3,3-difluoro-propyl]carbamoyl]-3-methyl-butyl]carbamoyl]phenyl]benzoic acid
> <PUBCHEM_IUPAC_CAS_NAME>
2-[2-[[[(2S)-1-[[(2S)-1-[2-[3-(carboxymethylamino)phenyl]ethylamino]-4,4-difluoro-1-oxobutan-2-yl]amino]-4-methyl-1-oxopentan-2-yl]amino]-oxomethyl]phenyl]benzoic acid
> <PUBCHEM_IUPAC_NAME_MARKUP>
2-[2-[[(2<I>S</I>)-1-[[(2<I>S</I>)-1-[2-[3-(carboxymethylamino)phenyl]ethylamino]-4,4-difluoro-1-oxobutan-2-yl]amino]-4-methyl-1-oxopentan-2-yl]carbamoyl]phenyl]benzoic acid
> <PUBCHEM_IUPAC_NAME>
2-[2-[[(2S)-1-[[(2S)-1-[2-[3-(carboxymethylamino)phenyl]ethylamino]-4,4-difluoro-1-oxobutan-2-yl]amino]-4-methyl-1-oxopentan-2-yl]carbamoyl]phenyl]benzoic acid
> <PUBCHEM_IUPAC_SYSTEMATIC_NAME>
2-[2-[[(2S)-1-[[(2S)-4,4-bis(fluoranyl)-1-[2-[3-(2-hydroxy-2-oxoethylamino)phenyl]ethylamino]-1-oxidanylidene-butan-2-yl]amino]-4-methyl-1-oxidanylidene-pentan-2-yl]carbamoyl]phenyl]benzoic acid
> <PUBCHEM_IUPAC_TRADITIONAL_NAME>
2-[2-[[(1S)-1-[[(1S)-1-[2-[3-(carboxymethylamino)phenyl]ethylcarbamoyl]-3,3-difluoro-propyl]carbamoyl]-3-methyl-butyl]carbamoyl]phenyl]benzoic acid
> <PUBCHEM_IUPAC_INCHI>
InChI=1S/C34H38F2N4O7/c1-20(2)16-27(39-31(43)25-12-5-3-10-23(25)24-11-4-6-13-26(24)34(46)47)33(45)40-28(18-29(35)36)32(44)37-15-14-21-8-7-9-22(17-21)38-19-30(41)42/h3-13,17,20,27-29,38H,14-16,18-19H2,1-2H3,(H,37,44)(H,39,43)(H,40,45)(H,41,42)(H,46,47)/t27-,28-/m0/s1
> <PUBCHEM_IUPAC_INCHIKEY>
IDSWRWDTYIDDOJ-NSOVKSMOSA-N
> <PUBCHEM_XLOGP3_AA>
5.5
> <PUBCHEM_EXACT_MASS>
652.27085589
> <PUBCHEM_MOLECULAR_FORMULA>
C34H38F2N4O7
> <PUBCHEM_MOLECULAR_WEIGHT>
652.7
> <PUBCHEM_OPENEYE_CAN_SMILES>
CC(C)CC(C(=O)NC(CC(F)F)C(=O)NCCC1=CC(=CC=C1)NCC(=O)O)NC(=O)C2=CC=CC=C2C3=CC=CC=C3C(=O)O
> <PUBCHEM_OPENEYE_ISO_SMILES>
CC(C)C[C@@H](C(=O)N[C@@H](CC(F)F)C(=O)NCCC1=CC(=CC=C1)NCC(=O)O)NC(=O)C2=CC=CC=C2C3=CC=CC=C3C(=O)O
> <PUBCHEM_CACTVS_TPSA>
174
> <PUBCHEM_MONOISOTOPIC_WEIGHT>
652.27085589
> <PUBCHEM_TOTAL_CHARGE>
0
> <PUBCHEM_HEAVY_ATOM_COUNT>
47
> <PUBCHEM_ATOM_DEF_STEREO_COUNT>
2
> <PUBCHEM_ATOM_UDEF_STEREO_COUNT>
0
> <PUBCHEM_BOND_DEF_STEREO_COUNT>
0
> <PUBCHEM_BOND_UDEF_STEREO_COUNT>
0
> <PUBCHEM_ISOTOPIC_ATOM_COUNT>
0
> <PUBCHEM_COMPONENT_COUNT>
1
> <PUBCHEM_CACTVS_TAUTO_COUNT>
-1
> <PUBCHEM_COORDINATE_TYPE>
1
5
255
> <PUBCHEM_BONDANNOTATIONS>
15  10  6
18  11  6
25  28  8
25  30  8
28  32  8
29  34  8
29  36  8
30  33  8
31  37  8
31  39  8
32  35  8
33  35  8
34  38  8
36  40  8
37  42  8
38  41  8
39  43  8
40  41  8
42  44  8
43  44  8
$$$$
