507711
  -OEChem-10302200282D
 73 75  0     1  0  0  0  0  0999 V2000
    9.3100    1.1300    0.0000 F   0  0  0  0  0  0  0  0  0  0  0  0
   10.8100    0.2640    0.0000 F   0  0  0  0  0  0  0  0  0  0  0  0
    6.3100    2.8621    0.0000 F   0  0  0  0  0  0  0  0  0  0  0  0
    3.3100    1.1300    0.0000 F   0  0  0  0  0  0  0  0  0  0  0  0
    6.8100   -4.9321    0.0000 O   0  0  0  0  0  0  0  0  0  0  0  0
    9.3100   -2.3341    0.0000 O   0  0  0  0  0  0  0  0  0  0  0  0
    8.3100    1.1300    0.0000 O   0  0  0  0  0  0  0  0  0  0  0  0
    2.3100    4.5941    0.0000 O   0  0  0  0  0  0  0  0  0  0  0  0
    3.8100    5.4602    0.0000 O   0  0  0  0  0  0  0  0  0  0  0  0
    4.7264   -4.8708    0.0000 N   0  0  0  0  0  0  0  0  0  0  0  0
    6.8100   -3.2001    0.0000 N   0  0  0  0  0  0  0  0  0  0  0  0
    7.8100   -1.4680    0.0000 N   0  0  0  0  0  0  0  0  0  0  0  0
    6.8100    0.2640    0.0000 N   0  0  0  0  0  0  0  0  0  0  0  0
    5.3100   -4.0661    0.0000 C   0  0  3  0  0  0  0  0  0  0  0  0
    7.8100   -3.2001    0.0000 C   0  0  1  0  0  0  0  0  0  0  0  0
    8.3100   -4.0661    0.0000 C   0  0  0  0  0  0  0  0  0  0  0  0
    4.7264   -3.2614    0.0000 C   0  0  0  0  0  0  0  0  0  0  0  0
    9.3100   -4.0661    0.0000 C   0  0  0  0  0  0  0  0  0  0  0  0
    3.7802   -3.5661    0.0000 C   0  0  0  0  0  0  0  0  0  0  0  0
    6.3100   -4.0661    0.0000 C   0  0  0  0  0  0  0  0  0  0  0  0
    3.7802   -4.5661    0.0000 C   0  0  0  0  0  0  0  0  0  0  0  0
    8.3100   -2.3341    0.0000 C   0  0  0  0  0  0  0  0  0  0  0  0
    8.3100   -0.6020    0.0000 C   0  0  1  0  0  0  0  0  0  0  0  0
    9.8100   -4.9321    0.0000 C   0  0  0  0  0  0  0  0  0  0  0  0
    9.8100   -3.2001    0.0000 C   0  0  0  0  0  0  0  0  0  0  0  0
    2.9141   -3.0661    0.0000 C   0  0  0  0  0  0  0  0  0  0  0  0
    2.9141   -5.0661    0.0000 C   0  0  0  0  0  0  0  0  0  0  0  0
    9.3100   -0.6020    0.0000 C   0  0  0  0  0  0  0  0  0  0  0  0
    2.0481   -3.5661    0.0000 C   0  0  0  0  0  0  0  0  0  0  0  0
    2.0481   -4.5661    0.0000 C   0  0  0  0  0  0  0  0  0  0  0  0
    7.8100    0.2640    0.0000 C   0  0  0  0  0  0  0  0  0  0  0  0
    9.8100    0.2640    0.0000 C   0  0  0  0  0  0  0  0  0  0  0  0
    6.3100    1.1300    0.0000 C   0  0  0  0  0  0  0  0  0  0  0  0
    5.3100    1.1300    0.0000 C   0  0  0  0  0  0  0  0  0  0  0  0
    4.8100    1.9961    0.0000 C   0  0  0  0  0  0  0  0  0  0  0  0
    5.3100    2.8621    0.0000 C   0  0  0  0  0  0  0  0  0  0  0  0
    3.8100    1.9961    0.0000 C   0  0  0  0  0  0  0  0  0  0  0  0
    4.8100    3.7281    0.0000 C   0  0  0  0  0  0  0  0  0  0  0  0
    3.3100    2.8621    0.0000 C   0  0  0  0  0  0  0  0  0  0  0  0
    3.8100    3.7281    0.0000 C   0  0  0  0  0  0  0  0  0  0  0  0
    3.3100    4.5941    0.0000 C   0  0  0  0  0  0  0  0  0  0  0  0
    5.5917   -4.6184    0.0000 H   0  0  0  0  0  0  0  0  0  0  0  0
    7.5000   -3.7370    0.0000 H   0  0  0  0  0  0  0  0  0  0  0  0
    7.7274   -4.2782    0.0000 H   0  0  0  0  0  0  0  0  0  0  0  0
    8.4177   -4.6767    0.0000 H   0  0  0  0  0  0  0  0  0  0  0  0
    5.2638   -2.9522    0.0000 H   0  0  0  0  0  0  0  0  0  0  0  0
    4.4754   -2.6945    0.0000 H   0  0  0  0  0  0  0  0  0  0  0  0
    9.0000   -3.5292    0.0000 H   0  0  0  0  0  0  0  0  0  0  0  0
    4.9190   -5.4602    0.0000 H   0  0  0  0  0  0  0  0  0  0  0  0
    6.5000   -2.6632    0.0000 H   0  0  0  0  0  0  0  0  0  0  0  0
    8.6200   -1.1389    0.0000 H   0  0  0  0  0  0  0  0  0  0  0  0
    9.2731   -5.2421    0.0000 H   0  0  0  0  0  0  0  0  0  0  0  0
   10.1200   -5.4691    0.0000 H   0  0  0  0  0  0  0  0  0  0  0  0
   10.3469   -4.6221    0.0000 H   0  0  0  0  0  0  0  0  0  0  0  0
   10.3469   -3.5101    0.0000 H   0  0  0  0  0  0  0  0  0  0  0  0
   10.1200   -2.6632    0.0000 H   0  0  0  0  0  0  0  0  0  0  0  0
    9.2731   -2.8901    0.0000 H   0  0  0  0  0  0  0  0  0  0  0  0
    7.1900   -1.4680    0.0000 H   0  0  0  0  0  0  0  0  0  0  0  0
    2.9141   -2.4461    0.0000 H   0  0  0  0  0  0  0  0  0  0  0  0
    2.9141   -5.6861    0.0000 H   0  0  0  0  0  0  0  0  0  0  0  0
    9.2023   -1.2126    0.0000 H   0  0  0  0  0  0  0  0  0  0  0  0
    9.8926   -0.8141    0.0000 H   0  0  0  0  0  0  0  0  0  0  0  0
    1.5112   -3.2561    0.0000 H   0  0  0  0  0  0  0  0  0  0  0  0
    1.5112   -4.8761    0.0000 H   0  0  0  0  0  0  0  0  0  0  0  0
    9.1900    0.2640    0.0000 H   0  0  0  0  0  0  0  0  0  0  0  0
    6.5000   -0.2729    0.0000 H   0  0  0  0  0  0  0  0  0  0  0  0
    6.8926    1.3421    0.0000 H   0  0  0  0  0  0  0  0  0  0  0  0
    6.2023    1.7406    0.0000 H   0  0  0  0  0  0  0  0  0  0  0  0
    4.7274    0.9180    0.0000 H   0  0  0  0  0  0  0  0  0  0  0  0
    5.4177    0.5195    0.0000 H   0  0  0  0  0  0  0  0  0  0  0  0
    5.1200    4.2650    0.0000 H   0  0  0  0  0  0  0  0  0  0  0  0
    2.6900    2.8621    0.0000 H   0  0  0  0  0  0  0  0  0  0  0  0
    2.0000    5.1311    0.0000 H   0  0  0  0  0  0  0  0  0  0  0  0
  1 32  1  0  0  0  0
  2 32  1  0  0  0  0
  3 36  1  0  0  0  0
  4 37  1  0  0  0  0
  5 20  2  0  0  0  0
  6 22  2  0  0  0  0
  7 31  2  0  0  0  0
  8 41  1  0  0  0  0
  8 73  1  0  0  0  0
  9 41  2  0  0  0  0
 10 14  1  0  0  0  0
 10 21  1  0  0  0  0
 10 49  1  0  0  0  0
 15 11  1  6  0  0  0
 11 20  1  0  0  0  0
 11 50  1  0  0  0  0
 12 22  1  0  0  0  0
 23 12  1  6  0  0  0
 12 58  1  0  0  0  0
 13 31  1  0  0  0  0
 13 33  1  0  0  0  0
 13 66  1  0  0  0  0
 14 17  1  0  0  0  0
 14 20  1  0  0  0  0
 14 42  1  0  0  0  0
 15 16  1  0  0  0  0
 15 22  1  0  0  0  0
 15 43  1  0  0  0  0
 16 18  1  0  0  0  0
 16 44  1  0  0  0  0
 16 45  1  0  0  0  0
 17 19  1  0  0  0  0
 17 46  1  0  0  0  0
 17 47  1  0  0  0  0
 18 24  1  0  0  0  0
 18 25  1  0  0  0  0
 18 48  1  0  0  0  0
 19 21  1  0  0  0  0
 19 26  2  0  0  0  0
 21 27  2  0  0  0  0
 23 28  1  0  0  0  0
 23 31  1  0  0  0  0
 23 51  1  0  0  0  0
 24 52  1  0  0  0  0
 24 53  1  0  0  0  0
 24 54  1  0  0  0  0
 25 55  1  0  0  0  0
 25 56  1  0  0  0  0
 25 57  1  0  0  0  0
 26 29  1  0  0  0  0
 26 59  1  0  0  0  0
 27 30  1  0  0  0  0
 27 60  1  0  0  0  0
 28 32  1  0  0  0  0
 28 61  1  0  0  0  0
 28 62  1  0  0  0  0
 29 30  2  0  0  0  0
 29 63  1  0  0  0  0
 30 64  1  0  0  0  0
 32 65  1  0  0  0  0
 33 34  1  0  0  0  0
 33 67  1  0  0  0  0
 33 68  1  0  0  0  0
 34 35  1  0  0  0  0
 34 69  1  0  0  0  0
 34 70  1  0  0  0  0
 35 36  2  0  0  0  0
 35 37  1  0  0  0  0
 36 38  1  0  0  0  0
 37 39  2  0  0  0  0
 38 40  2  0  0  0  0
 38 71  1  0  0  0  0
 39 40  1  0  0  0  0
 39 72  1  0  0  0  0
 40 41  1  0  0  0  0
M  END
> <PUBCHEM_COMPOUND_CID>
507711
> <PUBCHEM_COMPOUND_CANONICALIZED>
1
> <PUBCHEM_CACTVS_COMPLEXITY>
914
> <PUBCHEM_CACTVS_HBOND_ACCEPTOR>
10
> <PUBCHEM_CACTVS_HBOND_DONOR>
5
> <PUBCHEM_CACTVS_ROTATABLE_BOND>
13
> <PUBCHEM_CACTVS_SUBSKEYS>
AAADcfB7ucAAAAAAAAAAAAAAAAAAAWAAAAAwYAAAAAAAAFgBQAAAHwAQCAAADSjBmBwyyILAAgCIAiXSWACCAAAlAgAIiIGIbMgIZjLAlbGUcQhk1gHI2YeYyfCeQAAAAAACAACAAAAAAAQAAAAAAAAAAA==
> <PUBCHEM_IUPAC_OPENEYE_NAME>
4-[2-[[(2S)-4,4-difluoro-2-[[(2S)-2-(indoline-2-carbonylamino)-4-methyl-pentanoyl]amino]butanoyl]amino]ethyl]-3,5-difluoro-benzoic acid
> <PUBCHEM_IUPAC_CAS_NAME>
4-[2-[[(2S)-2-[[(2S)-2-[[2,3-dihydro-1H-indol-2-yl(oxo)methyl]amino]-4-methyl-1-oxopentyl]amino]-4,4-difluoro-1-oxobutyl]amino]ethyl]-3,5-difluorobenzoic acid
> <PUBCHEM_IUPAC_NAME_MARKUP>
4-[2-[[(2<I>S</I>)-2-[[(2<I>S</I>)-2-(2,3-dihydro-1<I>H</I>-indole-2-carbonylamino)-4-methylpentanoyl]amino]-4,4-difluorobutanoyl]amino]ethyl]-3,5-difluorobenzoic acid
> <PUBCHEM_IUPAC_NAME>
4-[2-[[(2S)-2-[[(2S)-2-(2,3-dihydro-1H-indole-2-carbonylamino)-4-methylpentanoyl]amino]-4,4-difluorobutanoyl]amino]ethyl]-3,5-difluorobenzoic acid
> <PUBCHEM_IUPAC_SYSTEMATIC_NAME>
4-[2-[[(2S)-2-[[(2S)-2-(2,3-dihydro-1H-indol-2-ylcarbonylamino)-4-methyl-pentanoyl]amino]-4,4-bis(fluoranyl)butanoyl]amino]ethyl]-3,5-bis(fluoranyl)benzoic acid
> <PUBCHEM_IUPAC_TRADITIONAL_NAME>
4-[2-[[(2S)-4,4-difluoro-2-[[(2S)-2-(indoline-2-carbonylamino)-4-methyl-pentanoyl]amino]butanoyl]amino]ethyl]-3,5-difluoro-benzoic acid
> <PUBCHEM_IUPAC_INCHI>
InChI=1S/C28H32F4N4O5/c1-14(2)9-21(35-27(39)22-12-15-5-3-4-6-20(15)34-22)26(38)36-23(13-24(31)32)25(37)33-8-7-17-18(29)10-16(28(40)41)11-19(17)30/h3-6,10-11,14,21-24,34H,7-9,12-13H2,1-2H3,(H,33,37)(H,35,39)(H,36,38)(H,40,41)/t21-,22?,23-/m0/s1
> <PUBCHEM_IUPAC_INCHIKEY>
XXPKNWDFMGRXSP-LIMDNCRJSA-N
> <PUBCHEM_XLOGP3_AA>
4.7
> <PUBCHEM_EXACT_MASS>
580.23088278
> <PUBCHEM_MOLECULAR_FORMULA>
C28H32F4N4O5
> <PUBCHEM_MOLECULAR_WEIGHT>
580.6
> <PUBCHEM_OPENEYE_CAN_SMILES>
CC(C)CC(C(=O)NC(CC(F)F)C(=O)NCCC1=C(C=C(C=C1F)C(=O)O)F)NC(=O)C2CC3=CC=CC=C3N2
> <PUBCHEM_OPENEYE_ISO_SMILES>
CC(C)C[C@@H](C(=O)N[C@@H](CC(F)F)C(=O)NCCC1=C(C=C(C=C1F)C(=O)O)F)NC(=O)C2CC3=CC=CC=C3N2
> <PUBCHEM_CACTVS_TPSA>
137
> <PUBCHEM_MONOISOTOPIC_WEIGHT>
580.23088278
> <PUBCHEM_TOTAL_CHARGE>
0
> <PUBCHEM_HEAVY_ATOM_COUNT>
41
> <PUBCHEM_ATOM_DEF_STEREO_COUNT>
2
> <PUBCHEM_ATOM_UDEF_STEREO_COUNT>
1
> <PUBCHEM_BOND_DEF_STEREO_COUNT>
0
> <PUBCHEM_BOND_UDEF_STEREO_COUNT>
0
> <PUBCHEM_ISOTOPIC_ATOM_COUNT>
0
> <PUBCHEM_COMPONENT_COUNT>
1
> <PUBCHEM_CACTVS_TAUTO_COUNT>
-1
> <PUBCHEM_COORDINATE_TYPE>
1
5
255
> <PUBCHEM_BONDANNOTATIONS>
15  11  6
23  12  6
14  20  3
19  21  8
19  26  8
21  27  8
26  29  8
27  30  8
29  30  8
35  36  8
35  37  8
36  38  8
37  39  8
38  40  8
39  40  8
$$$$
