507709
  -OEChem-10302200282D
 87 91  0     1  0  0  0  0  0999 V2000
    6.3028    4.8912    0.0000 S   0  0  0  0  0  0  0  0  0  0  0  0
   11.5522    3.5788    0.0000 F   0  0  0  0  0  0  0  0  0  0  0  0
   12.2567    1.9965    0.0000 F   0  0  0  0  0  0  0  0  0  0  0  0
    5.9664    0.1439    0.0000 O   0  0  0  0  0  0  0  0  0  0  0  0
    8.8115    2.3586    0.0000 O   0  0  0  0  0  0  0  0  0  0  0  0
    8.3568    4.5128    0.0000 O   0  0  0  0  0  0  0  0  0  0  0  0
    7.9967    2.8186    0.0000 O   0  0  0  0  0  0  0  0  0  0  0  0
   12.1521    1.0020    0.0000 O   0  0  0  0  0  0  0  0  0  0  0  0
    4.6783    0.9214    0.0000 N   0  0  0  0  0  0  0  0  0  0  0  0
    6.9844    1.5451    0.0000 N   0  0  0  0  0  0  0  0  0  0  0  0
    9.5160    0.7763    0.0000 N   0  0  0  0  0  0  0  0  0  0  0  0
   11.1341   -0.3993    0.0000 N   0  0  0  0  0  0  0  0  0  0  0  0
   12.6467   -3.5634    0.0000 N   0  0  0  0  0  0  0  0  0  0  0  0
    5.2619    1.7262    0.0000 C   0  0  3  0  0  0  0  0  0  0  0  0
    4.6783    2.5309    0.0000 C   0  0  0  0  0  0  0  0  0  0  0  0
    6.0709    2.3140    0.0000 C   0  0  0  0  0  0  0  0  0  0  0  0
    3.7320    2.2262    0.0000 C   0  0  0  0  0  0  0  0  0  0  0  0
    3.7320    1.2262    0.0000 C   0  0  0  0  0  0  0  0  0  0  0  0
    6.0709    1.1384    0.0000 C   0  0  0  0  0  0  0  0  0  0  0  0
    7.7935    0.9573    0.0000 C   0  0  1  0  0  0  0  0  0  0  0  0
    5.9664    3.3085    0.0000 C   0  0  0  0  0  0  0  0  0  0  0  0
    7.6889   -0.0372    0.0000 C   0  0  0  0  0  0  0  0  0  0  0  0
    2.8660    2.7262    0.0000 C   0  0  0  0  0  0  0  0  0  0  0  0
    2.8660    0.7262    0.0000 C   0  0  0  0  0  0  0  0  0  0  0  0
    8.0957   -0.9507    0.0000 C   0  0  0  0  0  0  0  0  0  0  0  0
    8.7070    1.3641    0.0000 C   0  0  0  0  0  0  0  0  0  0  0  0
    6.7095    3.9776    0.0000 C   0  0  0  0  0  0  0  0  0  0  0  0
    2.0000    2.2262    0.0000 C   0  0  0  0  0  0  0  0  0  0  0  0
    2.0000    1.2262    0.0000 C   0  0  0  0  0  0  0  0  0  0  0  0
    5.1003    3.8085    0.0000 C   0  0  0  0  0  0  0  0  0  0  0  0
    7.5079   -1.7597    0.0000 C   0  0  0  0  0  0  0  0  0  0  0  0
    9.0902   -1.0552    0.0000 C   0  0  0  0  0  0  0  0  0  0  0  0
   10.4296    1.1830    0.0000 C   0  0  1  0  0  0  0  0  0  0  0  0
    5.3082    4.7866    0.0000 C   0  0  0  0  0  0  0  0  0  0  0  0
    7.6877    3.7697    0.0000 C   0  0  0  0  0  0  0  0  0  0  0  0
   10.5341    2.1776    0.0000 C   0  0  0  0  0  0  0  0  0  0  0  0
   11.2386    0.5952    0.0000 C   0  0  0  0  0  0  0  0  0  0  0  0
   11.4476    2.5843    0.0000 C   0  0  0  0  0  0  0  0  0  0  0  0
   11.9431   -0.9871    0.0000 C   0  0  0  0  0  0  0  0  0  0  0  0
   11.8385   -1.9816    0.0000 C   0  0  0  0  0  0  0  0  0  0  0  0
   12.6476   -2.5694    0.0000 C   0  0  0  0  0  0  0  0  0  0  0  0
   13.5927   -2.2614    0.0000 C   0  0  0  0  0  0  0  0  0  0  0  0
   13.5913   -3.8731    0.0000 C   0  0  0  0  0  0  0  0  0  0  0  0
   14.1791   -3.0641    0.0000 C   0  0  0  0  0  0  0  0  0  0  0  0
   13.9981   -4.7866    0.0000 C   0  0  0  0  0  0  0  0  0  0  0  0
   15.1736   -3.1686    0.0000 C   0  0  0  0  0  0  0  0  0  0  0  0
   14.9926   -4.8912    0.0000 C   0  0  0  0  0  0  0  0  0  0  0  0
   15.5804   -4.0821    0.0000 C   0  0  0  0  0  0  0  0  0  0  0  0
    5.2156    2.8401    0.0000 H   0  0  0  0  0  0  0  0  0  0  0  0
    4.4272    3.0978    0.0000 H   0  0  0  0  0  0  0  0  0  0  0  0
    6.3427    1.7567    0.0000 H   0  0  0  0  0  0  0  0  0  0  0  0
    6.6669    2.4849    0.0000 H   0  0  0  0  0  0  0  0  0  0  0  0
    4.8709    0.3321    0.0000 H   0  0  0  0  0  0  0  0  0  0  0  0
    7.2271    0.7052    0.0000 H   0  0  0  0  0  0  0  0  0  0  0  0
    7.0492    2.1617    0.0000 H   0  0  0  0  0  0  0  0  0  0  0  0
    7.1317    0.2346    0.0000 H   0  0  0  0  0  0  0  0  0  0  0  0
    8.3013    0.0598    0.0000 H   0  0  0  0  0  0  0  0  0  0  0  0
    2.8660    3.3462    0.0000 H   0  0  0  0  0  0  0  0  0  0  0  0
    2.8660    0.1062    0.0000 H   0  0  0  0  0  0  0  0  0  0  0  0
    7.4791   -0.8859    0.0000 H   0  0  0  0  0  0  0  0  0  0  0  0
    1.4631    2.5362    0.0000 H   0  0  0  0  0  0  0  0  0  0  0  0
    1.4631    0.9162    0.0000 H   0  0  0  0  0  0  0  0  0  0  0  0
    4.5339    3.5563    0.0000 H   0  0  0  0  0  0  0  0  0  0  0  0
    7.0063   -1.3953    0.0000 H   0  0  0  0  0  0  0  0  0  0  0  0
    7.1435   -2.2613    0.0000 H   0  0  0  0  0  0  0  0  0  0  0  0
    8.0095   -2.1242    0.0000 H   0  0  0  0  0  0  0  0  0  0  0  0
    9.0254   -1.6719    0.0000 H   0  0  0  0  0  0  0  0  0  0  0  0
    9.7068   -1.1201    0.0000 H   0  0  0  0  0  0  0  0  0  0  0  0
    9.1550   -0.4386    0.0000 H   0  0  0  0  0  0  0  0  0  0  0  0
    9.4512    0.1597    0.0000 H   0  0  0  0  0  0  0  0  0  0  0  0
    9.9280    1.5475    0.0000 H   0  0  0  0  0  0  0  0  0  0  0  0
    4.8934    5.2474    0.0000 H   0  0  0  0  0  0  0  0  0  0  0  0
   10.3841    2.7791    0.0000 H   0  0  0  0  0  0  0  0  0  0  0  0
    9.9156    2.1343    0.0000 H   0  0  0  0  0  0  0  0  0  0  0  0
   12.0140    2.8365    0.0000 H   0  0  0  0  0  0  0  0  0  0  0  0
   10.5677   -0.6515    0.0000 H   0  0  0  0  0  0  0  0  0  0  0  0
   12.5391   -1.1580    0.0000 H   0  0  0  0  0  0  0  0  0  0  0  0
   12.2149   -0.4298    0.0000 H   0  0  0  0  0  0  0  0  0  0  0  0
   11.2426   -1.8107    0.0000 H   0  0  0  0  0  0  0  0  0  0  0  0
   11.5668   -2.5388    0.0000 H   0  0  0  0  0  0  0  0  0  0  0  0
    8.9632    4.3839    0.0000 H   0  0  0  0  0  0  0  0  0  0  0  0
   12.1445   -3.9270    0.0000 H   0  0  0  0  0  0  0  0  0  0  0  0
   13.7833   -1.6714    0.0000 H   0  0  0  0  0  0  0  0  0  0  0  0
   13.6336   -5.2882    0.0000 H   0  0  0  0  0  0  0  0  0  0  0  0
   15.5381   -2.6670    0.0000 H   0  0  0  0  0  0  0  0  0  0  0  0
   15.2448   -5.4576    0.0000 H   0  0  0  0  0  0  0  0  0  0  0  0
   16.1970   -4.1470    0.0000 H   0  0  0  0  0  0  0  0  0  0  0  0
  1 27  1  0  0  0  0
  1 34  1  0  0  0  0
  2 38  1  0  0  0  0
  3 38  1  0  0  0  0
  4 19  2  0  0  0  0
  5 26  2  0  0  0  0
  6 35  1  0  0  0  0
  6 81  1  0  0  0  0
  7 35  2  0  0  0  0
  8 37  2  0  0  0  0
  9 14  1  0  0  0  0
  9 18  1  0  0  0  0
  9 53  1  0  0  0  0
 10 19  1  0  0  0  0
 20 10  1  6  0  0  0
 10 55  1  0  0  0  0
 11 26  1  0  0  0  0
 33 11  1  1  0  0  0
 11 70  1  0  0  0  0
 12 37  1  0  0  0  0
 12 39  1  0  0  0  0
 12 76  1  0  0  0  0
 13 41  1  0  0  0  0
 13 43  1  0  0  0  0
 13 82  1  0  0  0  0
 14 15  1  0  0  0  0
 14 16  1  0  0  0  0
 14 19  1  0  0  0  0
 15 17  1  0  0  0  0
 15 49  1  0  0  0  0
 15 50  1  0  0  0  0
 16 21  1  0  0  0  0
 16 51  1  0  0  0  0
 16 52  1  0  0  0  0
 17 18  1  0  0  0  0
 17 23  2  0  0  0  0
 18 24  2  0  0  0  0
 20 22  1  0  0  0  0
 20 26  1  0  0  0  0
 20 54  1  0  0  0  0
 21 27  2  0  0  0  0
 21 30  1  0  0  0  0
 22 25  1  0  0  0  0
 22 56  1  0  0  0  0
 22 57  1  0  0  0  0
 23 28  1  0  0  0  0
 23 58  1  0  0  0  0
 24 29  1  0  0  0  0
 24 59  1  0  0  0  0
 25 31  1  0  0  0  0
 25 32  1  0  0  0  0
 25 60  1  0  0  0  0
 27 35  1  0  0  0  0
 28 29  2  0  0  0  0
 28 61  1  0  0  0  0
 29 62  1  0  0  0  0
 30 34  2  0  0  0  0
 30 63  1  0  0  0  0
 31 64  1  0  0  0  0
 31 65  1  0  0  0  0
 31 66  1  0  0  0  0
 32 67  1  0  0  0  0
 32 68  1  0  0  0  0
 32 69  1  0  0  0  0
 33 36  1  0  0  0  0
 33 37  1  0  0  0  0
 33 71  1  0  0  0  0
 34 72  1  0  0  0  0
 36 38  1  0  0  0  0
 36 73  1  0  0  0  0
 36 74  1  0  0  0  0
 38 75  1  0  0  0  0
 39 40  1  0  0  0  0
 39 77  1  0  0  0  0
 39 78  1  0  0  0  0
 40 41  1  0  0  0  0
 40 79  1  0  0  0  0
 40 80  1  0  0  0  0
 41 42  2  0  0  0  0
 42 44  1  0  0  0  0
 42 83  1  0  0  0  0
 43 44  1  0  0  0  0
 43 45  2  0  0  0  0
 44 46  2  0  0  0  0
 45 47  1  0  0  0  0
 45 84  1  0  0  0  0
 46 48  1  0  0  0  0
 46 85  1  0  0  0  0
 47 48  2  0  0  0  0
 47 86  1  0  0  0  0
 48 87  1  0  0  0  0
M  END
> <PUBCHEM_COMPOUND_CID>
507709
> <PUBCHEM_COMPOUND_CANONICALIZED>
1
> <PUBCHEM_CACTVS_COMPLEXITY>
1150
> <PUBCHEM_CACTVS_HBOND_ACCEPTOR>
9
> <PUBCHEM_CACTVS_HBOND_DONOR>
6
> <PUBCHEM_CACTVS_ROTATABLE_BOND>
15
> <PUBCHEM_CACTVS_SUBSKEYS>
AAADcfB/uYBAAAAAAAAAAAAAAAAAAWLEgAAwYAAAAAAAAFgB/AAAHwQQCAAADajF3hSyyfLJkgisAyXyXACDgKAlCjBImbm4bNgIZvLg1bGUcQhk1gHo2QeY2fOeAAAAAAACAAAAAAAAAAQAAAAAAAAAAA==
> <PUBCHEM_IUPAC_OPENEYE_NAME>
3-[[2-[[(1S)-1-[[(1S)-3,3-difluoro-1-[2-(1H-indol-2-yl)ethylcarbamoyl]propyl]carbamoyl]-3-methyl-butyl]carbamoyl]indolin-2-yl]methyl]thiophene-2-carboxylic acid
> <PUBCHEM_IUPAC_CAS_NAME>
3-[[2-[[[(2S)-1-[[(2S)-4,4-difluoro-1-[2-(1H-indol-2-yl)ethylamino]-1-oxobutan-2-yl]amino]-4-methyl-1-oxopentan-2-yl]amino]-oxomethyl]-1,3-dihydroindol-2-yl]methyl]-2-thiophenecarboxylic acid
> <PUBCHEM_IUPAC_NAME_MARKUP>
3-[[2-[[(2<I>S</I>)-1-[[(2<I>S</I>)-4,4-difluoro-1-[2-(1<I>H</I>-indol-2-yl)ethylamino]-1-oxobutan-2-yl]amino]-4-methyl-1-oxopentan-2-yl]carbamoyl]-1,3-dihydroindol-2-yl]methyl]thiophene-2-carboxylic acid
> <PUBCHEM_IUPAC_NAME>
3-[[2-[[(2S)-1-[[(2S)-4,4-difluoro-1-[2-(1H-indol-2-yl)ethylamino]-1-oxobutan-2-yl]amino]-4-methyl-1-oxopentan-2-yl]carbamoyl]-1,3-dihydroindol-2-yl]methyl]thiophene-2-carboxylic acid
> <PUBCHEM_IUPAC_SYSTEMATIC_NAME>
3-[[2-[[(2S)-1-[[(2S)-4,4-bis(fluoranyl)-1-[2-(1H-indol-2-yl)ethylamino]-1-oxidanylidene-butan-2-yl]amino]-4-methyl-1-oxidanylidene-pentan-2-yl]carbamoyl]-1,3-dihydroindol-2-yl]methyl]thiophene-2-carboxylic acid
> <PUBCHEM_IUPAC_TRADITIONAL_NAME>
3-[[2-[[(1S)-1-[[(1S)-3,3-difluoro-1-[2-(1H-indol-2-yl)ethylcarbamoyl]propyl]carbamoyl]-3-methyl-butyl]carbamoyl]indolin-2-yl]methyl]-2-thenoic acid
> <PUBCHEM_IUPAC_INCHI>
InChI=1S/C35H39F2N5O5S/c1-20(2)15-27(32(44)40-28(17-29(36)37)31(43)38-13-11-24-16-21-7-3-5-9-25(21)39-24)41-34(47)35(18-22-8-4-6-10-26(22)42-35)19-23-12-14-48-30(23)33(45)46/h3-10,12,14,16,20,27-29,39,42H,11,13,15,17-19H2,1-2H3,(H,38,43)(H,40,44)(H,41,47)(H,45,46)/t27-,28-,35?/m0/s1
> <PUBCHEM_IUPAC_INCHIKEY>
BYOADWMTEQMPSR-DFYGCWKOSA-N
> <PUBCHEM_XLOGP3_AA>
6.4
> <PUBCHEM_EXACT_MASS>
679.26399686
> <PUBCHEM_MOLECULAR_FORMULA>
C35H39F2N5O5S
> <PUBCHEM_MOLECULAR_WEIGHT>
679.8
> <PUBCHEM_OPENEYE_CAN_SMILES>
CC(C)CC(C(=O)NC(CC(F)F)C(=O)NCCC1=CC2=CC=CC=C2N1)NC(=O)C3(CC4=CC=CC=C4N3)CC5=C(SC=C5)C(=O)O
> <PUBCHEM_OPENEYE_ISO_SMILES>
CC(C)C[C@@H](C(=O)N[C@@H](CC(F)F)C(=O)NCCC1=CC2=CC=CC=C2N1)NC(=O)C3(CC4=CC=CC=C4N3)CC5=C(SC=C5)C(=O)O
> <PUBCHEM_CACTVS_TPSA>
181
> <PUBCHEM_MONOISOTOPIC_WEIGHT>
679.26399686
> <PUBCHEM_TOTAL_CHARGE>
0
> <PUBCHEM_HEAVY_ATOM_COUNT>
48
> <PUBCHEM_ATOM_DEF_STEREO_COUNT>
2
> <PUBCHEM_ATOM_UDEF_STEREO_COUNT>
1
> <PUBCHEM_BOND_DEF_STEREO_COUNT>
0
> <PUBCHEM_BOND_UDEF_STEREO_COUNT>
0
> <PUBCHEM_ISOTOPIC_ATOM_COUNT>
0
> <PUBCHEM_COMPONENT_COUNT>
1
> <PUBCHEM_CACTVS_TAUTO_COUNT>
-1
> <PUBCHEM_COORDINATE_TYPE>
1
5
255
> <PUBCHEM_BONDANNOTATIONS>
1  27  8
1  34  8
20  10  6
33  11  5
13  41  8
13  43  8
14  16  3
17  18  8
17  23  8
18  24  8
21  27  8
21  30  8
23  28  8
24  29  8
28  29  8
30  34  8
41  42  8
42  44  8
43  44  8
43  45  8
44  46  8
45  47  8
46  48  8
47  48  8
$$$$
