507847
  -OEChem-10302200282D
 53 56  0     1  0  0  0  0  0999 V2000
    3.4030   -0.0033    0.0000 F   0  0  0  0  0  0  0  0  0  0  0  0
    7.1722   -0.7861    0.0000 O   0  0  0  0  0  0  0  0  0  0  0  0
    7.0792    4.5046    0.0000 O   0  0  0  0  0  0  0  0  0  0  0  0
    4.8580    0.4963    0.0000 O   0  0  0  0  0  0  0  0  0  0  0  0
    4.2690   -4.5033    0.0000 O   0  0  0  0  0  0  0  0  0  0  0  0
    6.8150    0.9087    0.0000 N   0  0  0  0  0  0  0  0  0  0  0  0
    7.4364    2.8098    0.0000 N   0  0  0  0  0  0  0  0  0  0  0  0
    5.2152   -2.8080    0.0000 N   0  0  0  0  0  0  0  0  0  0  0  0
    2.5369   -4.5033    0.0000 N   0  0  0  0  0  0  0  0  0  0  0  0
    7.7935    1.1150    0.0000 C   0  0  1  0  0  0  0  0  0  0  0  0
    8.1042    2.0655    0.0000 C   0  0  0  0  0  0  0  0  0  0  0  0
    6.1472    1.6530    0.0000 C   0  0  0  0  0  0  0  0  0  0  0  0
    6.4579    2.6036    0.0000 C   0  0  0  0  0  0  0  0  0  0  0  0
    8.4614    0.3707    0.0000 C   0  0  0  0  0  0  0  0  0  0  0  0
    6.5044   -0.0418    0.0000 C   0  0  0  0  0  0  0  0  0  0  0  0
    7.7470    3.7603    0.0000 C   0  0  0  0  0  0  0  0  0  0  0  0
    5.5259   -0.2480    0.0000 C   0  0  0  0  0  0  0  0  0  0  0  0
    5.2152   -1.1985    0.0000 C   0  0  0  0  0  0  0  0  0  0  0  0
    8.7255    3.9665    0.0000 C   0  0  0  0  0  0  0  0  0  0  0  0
    4.2690   -1.5033    0.0000 C   0  0  0  0  0  0  0  0  0  0  0  0
    4.2690   -2.5033    0.0000 C   0  0  0  0  0  0  0  0  0  0  0  0
    5.7988   -2.0033    0.0000 C   0  0  0  0  0  0  0  0  0  0  0  0
    3.4030   -3.0033    0.0000 C   0  0  0  0  0  0  0  0  0  0  0  0
    3.4030   -1.0033    0.0000 C   0  0  0  0  0  0  0  0  0  0  0  0
    9.0362    4.9170    0.0000 C   0  0  0  0  0  0  0  0  0  0  0  0
    9.3934    3.2222    0.0000 C   0  0  0  0  0  0  0  0  0  0  0  0
    2.5369   -2.5033    0.0000 C   0  0  0  0  0  0  0  0  0  0  0  0
    2.5369   -1.5033    0.0000 C   0  0  0  0  0  0  0  0  0  0  0  0
   10.0147    5.1233    0.0000 C   0  0  0  0  0  0  0  0  0  0  0  0
   10.3719    3.4284    0.0000 C   0  0  0  0  0  0  0  0  0  0  0  0
    3.4030   -4.0033    0.0000 C   0  0  0  0  0  0  0  0  0  0  0  0
   10.6825    4.3790    0.0000 C   0  0  0  0  0  0  0  0  0  0  0  0
    7.6009    0.5256    0.0000 H   0  0  0  0  0  0  0  0  0  0  0  0
    8.6511    1.7735    0.0000 H   0  0  0  0  0  0  0  0  0  0  0  0
    8.4868    2.5534    0.0000 H   0  0  0  0  0  0  0  0  0  0  0  0
    5.6003    1.9451    0.0000 H   0  0  0  0  0  0  0  0  0  0  0  0
    5.7646    1.1651    0.0000 H   0  0  0  0  0  0  0  0  0  0  0  0
    6.4373    3.2232    0.0000 H   0  0  0  0  0  0  0  0  0  0  0  0
    5.8440    2.6909    0.0000 H   0  0  0  0  0  0  0  0  0  0  0  0
    7.9999   -0.0434    0.0000 H   0  0  0  0  0  0  0  0  0  0  0  0
    8.8754   -0.0908    0.0000 H   0  0  0  0  0  0  0  0  0  0  0  0
    8.9228    0.7847    0.0000 H   0  0  0  0  0  0  0  0  0  0  0  0
    6.4188   -2.0033    0.0000 H   0  0  0  0  0  0  0  0  0  0  0  0
    5.4078   -3.3973    0.0000 H   0  0  0  0  0  0  0  0  0  0  0  0
    8.6221    5.3785    0.0000 H   0  0  0  0  0  0  0  0  0  0  0  0
    9.2008    2.6329    0.0000 H   0  0  0  0  0  0  0  0  0  0  0  0
    2.0000   -2.8133    0.0000 H   0  0  0  0  0  0  0  0  0  0  0  0
    2.0000   -1.1933    0.0000 H   0  0  0  0  0  0  0  0  0  0  0  0
   10.2073    5.7126    0.0000 H   0  0  0  0  0  0  0  0  0  0  0  0
   10.7859    2.9670    0.0000 H   0  0  0  0  0  0  0  0  0  0  0  0
   11.2892    4.5068    0.0000 H   0  0  0  0  0  0  0  0  0  0  0  0
    2.5369   -5.1233    0.0000 H   0  0  0  0  0  0  0  0  0  0  0  0
    2.0000   -4.1933    0.0000 H   0  0  0  0  0  0  0  0  0  0  0  0
  1 24  1  0  0  0  0
  2 15  2  0  0  0  0
  3 16  2  0  0  0  0
  4 17  2  0  0  0  0
  5 31  2  0  0  0  0
  6 10  1  0  0  0  0
  6 12  1  0  0  0  0
  6 15  1  0  0  0  0
  7 11  1  0  0  0  0
  7 13  1  0  0  0  0
  7 16  1  0  0  0  0
  8 21  1  0  0  0  0
  8 22  1  0  0  0  0
  8 44  1  0  0  0  0
  9 31  1  0  0  0  0
  9 52  1  0  0  0  0
  9 53  1  0  0  0  0
 10 11  1  0  0  0  0
 10 14  1  1  0  0  0
 10 33  1  0  0  0  0
 11 34  1  0  0  0  0
 11 35  1  0  0  0  0
 12 13  1  0  0  0  0
 12 36  1  0  0  0  0
 12 37  1  0  0  0  0
 13 38  1  0  0  0  0
 13 39  1  0  0  0  0
 14 40  1  0  0  0  0
 14 41  1  0  0  0  0
 14 42  1  0  0  0  0
 15 17  1  0  0  0  0
 16 19  1  0  0  0  0
 17 18  1  0  0  0  0
 18 20  1  0  0  0  0
 18 22  2  0  0  0  0
 19 25  2  0  0  0  0
 19 26  1  0  0  0  0
 20 21  1  0  0  0  0
 20 24  2  0  0  0  0
 21 23  2  0  0  0  0
 22 43  1  0  0  0  0
 23 27  1  0  0  0  0
 23 31  1  0  0  0  0
 24 28  1  0  0  0  0
 25 29  1  0  0  0  0
 25 45  1  0  0  0  0
 26 30  2  0  0  0  0
 26 46  1  0  0  0  0
 27 28  2  0  0  0  0
 27 47  1  0  0  0  0
 28 48  1  0  0  0  0
 29 32  2  0  0  0  0
 29 49  1  0  0  0  0
 30 32  1  0  0  0  0
 30 50  1  0  0  0  0
 32 51  1  0  0  0  0
M  END
> <PUBCHEM_COMPOUND_CID>
507847
> <PUBCHEM_COMPOUND_CANONICALIZED>
1
> <PUBCHEM_CACTVS_COMPLEXITY>
771
> <PUBCHEM_CACTVS_HBOND_ACCEPTOR>
5
> <PUBCHEM_CACTVS_HBOND_DONOR>
2
> <PUBCHEM_CACTVS_ROTATABLE_BOND>
4
> <PUBCHEM_CACTVS_SUBSKEYS>
AAADceB7uQAAAAAAAAAAAAAAAAAAAWAAAAA8YIAAAAAAAFgB9AAAHwAQAAAADCzBngw+wPPJkACoA7V3VACCgCA1ACAI2aGoRNgIYPrA1bGUIYhghgDIycccicCegAACAAACAAAAAAQAAAQAAAAAAAAAAA==
> <PUBCHEM_IUPAC_OPENEYE_NAME>
3-[2-[(2R)-4-benzoyl-2-methyl-piperazin-1-yl]-2-oxo-acetyl]-4-fluoro-1H-indole-7-carboxamide
> <PUBCHEM_IUPAC_CAS_NAME>
3-[2-[(2R)-4-benzoyl-2-methyl-1-piperazinyl]-1,2-dioxoethyl]-4-fluoro-1H-indole-7-carboxamide
> <PUBCHEM_IUPAC_NAME_MARKUP>
3-[2-[(2<I>R</I>)-4-benzoyl-2-methylpiperazin-1-yl]-2-oxoacetyl]-4-fluoro-1<I>H</I>-indole-7-carboxamide
> <PUBCHEM_IUPAC_NAME>
3-[2-[(2R)-4-benzoyl-2-methylpiperazin-1-yl]-2-oxoacetyl]-4-fluoro-1H-indole-7-carboxamide
> <PUBCHEM_IUPAC_SYSTEMATIC_NAME>
4-fluoranyl-3-[2-[(2R)-2-methyl-4-(phenylcarbonyl)piperazin-1-yl]-2-oxidanylidene-ethanoyl]-1H-indole-7-carboxamide
> <PUBCHEM_IUPAC_TRADITIONAL_NAME>
3-[2-[(2R)-4-benzoyl-2-methyl-piperazino]-2-keto-acetyl]-4-fluoro-1H-indole-7-carboxamide
> <PUBCHEM_IUPAC_INCHI>
InChI=1S/C23H21FN4O4/c1-13-12-27(22(31)14-5-3-2-4-6-14)9-10-28(13)23(32)20(29)16-11-26-19-15(21(25)30)7-8-17(24)18(16)19/h2-8,11,13,26H,9-10,12H2,1H3,(H2,25,30)/t13-/m1/s1
> <PUBCHEM_IUPAC_INCHIKEY>
UOJRJWHMPXSUHY-CYBMUJFWSA-N
> <PUBCHEM_XLOGP3_AA>
1.7
> <PUBCHEM_EXACT_MASS>
436.15468333
> <PUBCHEM_MOLECULAR_FORMULA>
C23H21FN4O4
> <PUBCHEM_MOLECULAR_WEIGHT>
436.4
> <PUBCHEM_OPENEYE_CAN_SMILES>
CC1CN(CCN1C(=O)C(=O)C2=CNC3=C(C=CC(=C23)F)C(=O)N)C(=O)C4=CC=CC=C4
> <PUBCHEM_OPENEYE_ISO_SMILES>
C[C@@H]1CN(CCN1C(=O)C(=O)C2=CNC3=C(C=CC(=C23)F)C(=O)N)C(=O)C4=CC=CC=C4
> <PUBCHEM_CACTVS_TPSA>
117
> <PUBCHEM_MONOISOTOPIC_WEIGHT>
436.15468333
> <PUBCHEM_TOTAL_CHARGE>
0
> <PUBCHEM_HEAVY_ATOM_COUNT>
32
> <PUBCHEM_ATOM_DEF_STEREO_COUNT>
1
> <PUBCHEM_ATOM_UDEF_STEREO_COUNT>
0
> <PUBCHEM_BOND_DEF_STEREO_COUNT>
0
> <PUBCHEM_BOND_UDEF_STEREO_COUNT>
0
> <PUBCHEM_ISOTOPIC_ATOM_COUNT>
0
> <PUBCHEM_COMPONENT_COUNT>
1
> <PUBCHEM_CACTVS_TAUTO_COUNT>
-1
> <PUBCHEM_COORDINATE_TYPE>
1
5
255
> <PUBCHEM_BONDANNOTATIONS>
10  14  5
18  20  8
18  22  8
19  25  8
19  26  8
20  21  8
20  24  8
21  23  8
23  27  8
24  28  8
25  29  8
26  30  8
27  28  8
29  32  8
30  32  8
8  21  8
8  22  8
$$$$
