507879
  -OEChem-10302200282D
 73 76  0     1  0  0  0  0  0999 V2000
    8.3673    0.9039    0.0000 O   0  0  0  0  0  0  0  0  0  0  0  0
    8.2743    6.1946    0.0000 O   0  0  0  0  0  0  0  0  0  0  0  0
    6.0531    2.1863    0.0000 O   0  0  0  0  0  0  0  0  0  0  0  0
    5.4641   -2.8133    0.0000 O   0  0  0  0  0  0  0  0  0  0  0  0
    8.0102    2.5987    0.0000 N   0  0  0  0  0  0  0  0  0  0  0  0
    8.6315    4.4998    0.0000 N   0  0  0  0  0  0  0  0  0  0  0  0
    6.4103   -1.1180    0.0000 N   0  0  0  0  0  0  0  0  0  0  0  0
    2.8660   -5.3133    0.0000 N   0  0  0  0  0  0  0  0  0  0  0  0
    3.7320   -2.8133    0.0000 N   0  0  0  0  0  0  0  0  0  0  0  0
    8.9887    2.8050    0.0000 C   0  0  1  0  0  0  0  0  0  0  0  0
    9.2993    3.7555    0.0000 C   0  0  0  0  0  0  0  0  0  0  0  0
    7.3423    3.3430    0.0000 C   0  0  0  0  0  0  0  0  0  0  0  0
    7.6530    4.2936    0.0000 C   0  0  0  0  0  0  0  0  0  0  0  0
    9.6565    2.0606    0.0000 C   0  0  0  0  0  0  0  0  0  0  0  0
    7.6995    1.6482    0.0000 C   0  0  0  0  0  0  0  0  0  0  0  0
    8.9421    5.4503    0.0000 C   0  0  0  0  0  0  0  0  0  0  0  0
    6.7210    1.4420    0.0000 C   0  0  0  0  0  0  0  0  0  0  0  0
    6.4103    0.4915    0.0000 C   0  0  0  0  0  0  0  0  0  0  0  0
    9.9206    5.6565    0.0000 C   0  0  0  0  0  0  0  0  0  0  0  0
    5.4641    0.1867    0.0000 C   0  0  0  0  0  0  0  0  0  0  0  0
    5.4641   -0.8133    0.0000 C   0  0  0  0  0  0  0  0  0  0  0  0
    6.9939   -0.3133    0.0000 C   0  0  0  0  0  0  0  0  0  0  0  0
    4.5981   -1.3133    0.0000 C   0  0  0  0  0  0  0  0  0  0  0  0
   10.2313    6.6070    0.0000 C   0  0  0  0  0  0  0  0  0  0  0  0
   10.5885    4.9122    0.0000 C   0  0  0  0  0  0  0  0  0  0  0  0
    4.5981    0.6867    0.0000 C   0  0  0  0  0  0  0  0  0  0  0  0
    2.8660   -4.3133    0.0000 C   0  0  0  0  0  0  0  0  0  0  0  0
    3.7320   -3.8133    0.0000 C   0  0  0  0  0  0  0  0  0  0  0  0
    3.7320   -0.8133    0.0000 C   0  0  0  0  0  0  0  0  0  0  0  0
    4.5981   -2.3133    0.0000 C   0  0  0  0  0  0  0  0  0  0  0  0
    3.7320    0.1867    0.0000 C   0  0  0  0  0  0  0  0  0  0  0  0
    2.0000   -5.8133    0.0000 C   0  0  0  0  0  0  0  0  0  0  0  0
    3.7320   -5.8133    0.0000 C   0  0  0  0  0  0  0  0  0  0  0  0
   11.2098    6.8133    0.0000 C   0  0  0  0  0  0  0  0  0  0  0  0
   11.5670    5.1184    0.0000 C   0  0  0  0  0  0  0  0  0  0  0  0
   11.8777    6.0690    0.0000 C   0  0  0  0  0  0  0  0  0  0  0  0
    2.0000   -6.8133    0.0000 C   0  0  0  0  0  0  0  0  0  0  0  0
    3.7320   -6.8133    0.0000 C   0  0  0  0  0  0  0  0  0  0  0  0
    8.7960    2.2156    0.0000 H   0  0  0  0  0  0  0  0  0  0  0  0
    9.8462    3.4635    0.0000 H   0  0  0  0  0  0  0  0  0  0  0  0
    9.6819    4.2434    0.0000 H   0  0  0  0  0  0  0  0  0  0  0  0
    6.7954    3.6351    0.0000 H   0  0  0  0  0  0  0  0  0  0  0  0
    6.9598    2.8551    0.0000 H   0  0  0  0  0  0  0  0  0  0  0  0
    7.6324    4.9132    0.0000 H   0  0  0  0  0  0  0  0  0  0  0  0
    7.0392    4.3809    0.0000 H   0  0  0  0  0  0  0  0  0  0  0  0
    9.1950    1.6466    0.0000 H   0  0  0  0  0  0  0  0  0  0  0  0
   10.0706    1.5992    0.0000 H   0  0  0  0  0  0  0  0  0  0  0  0
   10.1180    2.4747    0.0000 H   0  0  0  0  0  0  0  0  0  0  0  0
    7.6139   -0.3133    0.0000 H   0  0  0  0  0  0  0  0  0  0  0  0
    6.6029   -1.7073    0.0000 H   0  0  0  0  0  0  0  0  0  0  0  0
    9.8172    7.0685    0.0000 H   0  0  0  0  0  0  0  0  0  0  0  0
   10.3959    4.3229    0.0000 H   0  0  0  0  0  0  0  0  0  0  0  0
    4.5981    1.3067    0.0000 H   0  0  0  0  0  0  0  0  0  0  0  0
    2.6540   -3.7306    0.0000 H   0  0  0  0  0  0  0  0  0  0  0  0
    2.2554   -4.4209    0.0000 H   0  0  0  0  0  0  0  0  0  0  0  0
    3.9441   -4.3959    0.0000 H   0  0  0  0  0  0  0  0  0  0  0  0
    4.3426   -3.7056    0.0000 H   0  0  0  0  0  0  0  0  0  0  0  0
    3.1951   -1.1233    0.0000 H   0  0  0  0  0  0  0  0  0  0  0  0
    3.1951    0.4967    0.0000 H   0  0  0  0  0  0  0  0  0  0  0  0
    1.7880   -5.2306    0.0000 H   0  0  0  0  0  0  0  0  0  0  0  0
    1.3894   -5.9209    0.0000 H   0  0  0  0  0  0  0  0  0  0  0  0
    4.3426   -5.9209    0.0000 H   0  0  0  0  0  0  0  0  0  0  0  0
    3.9441   -5.2306    0.0000 H   0  0  0  0  0  0  0  0  0  0  0  0
    3.1951   -2.5033    0.0000 H   0  0  0  0  0  0  0  0  0  0  0  0
   11.4024    7.4026    0.0000 H   0  0  0  0  0  0  0  0  0  0  0  0
   11.9811    4.6570    0.0000 H   0  0  0  0  0  0  0  0  0  0  0  0
   12.4843    6.1968    0.0000 H   0  0  0  0  0  0  0  0  0  0  0  0
    1.3800   -6.8133    0.0000 H   0  0  0  0  0  0  0  0  0  0  0  0
    2.0000   -7.4333    0.0000 H   0  0  0  0  0  0  0  0  0  0  0  0
    2.6200   -6.8133    0.0000 H   0  0  0  0  0  0  0  0  0  0  0  0
    3.1120   -6.8133    0.0000 H   0  0  0  0  0  0  0  0  0  0  0  0
    3.7320   -7.4333    0.0000 H   0  0  0  0  0  0  0  0  0  0  0  0
    4.3520   -6.8133    0.0000 H   0  0  0  0  0  0  0  0  0  0  0  0
  1 15  2  0  0  0  0
  2 16  2  0  0  0  0
  3 17  2  0  0  0  0
  4 30  2  0  0  0  0
  5 10  1  0  0  0  0
  5 12  1  0  0  0  0
  5 15  1  0  0  0  0
  6 11  1  0  0  0  0
  6 13  1  0  0  0  0
  6 16  1  0  0  0  0
  7 21  1  0  0  0  0
  7 22  1  0  0  0  0
  7 50  1  0  0  0  0
  8 27  1  0  0  0  0
  8 32  1  0  0  0  0
  8 33  1  0  0  0  0
  9 28  1  0  0  0  0
  9 30  1  0  0  0  0
  9 64  1  0  0  0  0
 10 11  1  0  0  0  0
 10 14  1  1  0  0  0
 10 39  1  0  0  0  0
 11 40  1  0  0  0  0
 11 41  1  0  0  0  0
 12 13  1  0  0  0  0
 12 42  1  0  0  0  0
 12 43  1  0  0  0  0
 13 44  1  0  0  0  0
 13 45  1  0  0  0  0
 14 46  1  0  0  0  0
 14 47  1  0  0  0  0
 14 48  1  0  0  0  0
 15 17  1  0  0  0  0
 16 19  1  0  0  0  0
 17 18  1  0  0  0  0
 18 20  1  0  0  0  0
 18 22  2  0  0  0  0
 19 24  2  0  0  0  0
 19 25  1  0  0  0  0
 20 21  2  0  0  0  0
 20 26  1  0  0  0  0
 21 23  1  0  0  0  0
 22 49  1  0  0  0  0
 23 29  2  0  0  0  0
 23 30  1  0  0  0  0
 24 34  1  0  0  0  0
 24 51  1  0  0  0  0
 25 35  2  0  0  0  0
 25 52  1  0  0  0  0
 26 31  2  0  0  0  0
 26 53  1  0  0  0  0
 27 28  1  0  0  0  0
 27 54  1  0  0  0  0
 27 55  1  0  0  0  0
 28 56  1  0  0  0  0
 28 57  1  0  0  0  0
 29 31  1  0  0  0  0
 29 58  1  0  0  0  0
 31 59  1  0  0  0  0
 32 37  1  0  0  0  0
 32 60  1  0  0  0  0
 32 61  1  0  0  0  0
 33 38  1  0  0  0  0
 33 62  1  0  0  0  0
 33 63  1  0  0  0  0
 34 36  2  0  0  0  0
 34 65  1  0  0  0  0
 35 36  1  0  0  0  0
 35 66  1  0  0  0  0
 36 67  1  0  0  0  0
 37 68  1  0  0  0  0
 37 69  1  0  0  0  0
 37 70  1  0  0  0  0
 38 71  1  0  0  0  0
 38 72  1  0  0  0  0
 38 73  1  0  0  0  0
M  END
> <PUBCHEM_COMPOUND_CID>
507879
> <PUBCHEM_COMPOUND_CANONICALIZED>
1
> <PUBCHEM_CACTVS_COMPLEXITY>
856
> <PUBCHEM_CACTVS_HBOND_ACCEPTOR>
5
> <PUBCHEM_CACTVS_HBOND_DONOR>
2
> <PUBCHEM_CACTVS_ROTATABLE_BOND>
9
> <PUBCHEM_CACTVS_SUBSKEYS>
AAADcfB7uAAAAAAAAAAAAAAAAAAAAWAAAAA8YIAAAAAAAFgB9AAAHgAQAAAADCzBngQ+wPPJkACoA7V3VACCgCA1ACAI2aGoRNgIYPrA1bGUIYhglgDIycccicCegAACAAACAAAAAAQAAAQAAAAAAAAAAA==
> <PUBCHEM_IUPAC_OPENEYE_NAME>
3-[2-[(2R)-4-benzoyl-2-methyl-piperazin-1-yl]-2-oxo-acetyl]-N-[2-(diethylamino)ethyl]-1H-indole-7-carboxamide
> <PUBCHEM_IUPAC_CAS_NAME>
3-[2-[(2R)-4-benzoyl-2-methyl-1-piperazinyl]-1,2-dioxoethyl]-N-[2-(diethylamino)ethyl]-1H-indole-7-carboxamide
> <PUBCHEM_IUPAC_NAME_MARKUP>
3-[2-[(2<I>R</I>)-4-benzoyl-2-methylpiperazin-1-yl]-2-oxoacetyl]-<I>N</I>-[2-(diethylamino)ethyl]-1<I>H</I>-indole-7-carboxamide
> <PUBCHEM_IUPAC_NAME>
3-[2-[(2R)-4-benzoyl-2-methylpiperazin-1-yl]-2-oxoacetyl]-N-[2-(diethylamino)ethyl]-1H-indole-7-carboxamide
> <PUBCHEM_IUPAC_SYSTEMATIC_NAME>
N-[2-(diethylamino)ethyl]-3-[2-[(2R)-2-methyl-4-(phenylcarbonyl)piperazin-1-yl]-2-oxidanylidene-ethanoyl]-1H-indole-7-carboxamide
> <PUBCHEM_IUPAC_TRADITIONAL_NAME>
3-[2-[(2R)-4-benzoyl-2-methyl-piperazino]-2-keto-acetyl]-N-[2-(diethylamino)ethyl]-1H-indole-7-carboxamide
> <PUBCHEM_IUPAC_INCHI>
InChI=1S/C29H35N5O4/c1-4-32(5-2)15-14-30-27(36)23-13-9-12-22-24(18-31-25(22)23)26(35)29(38)34-17-16-33(19-20(34)3)28(37)21-10-7-6-8-11-21/h6-13,18,20,31H,4-5,14-17,19H2,1-3H3,(H,30,36)/t20-/m1/s1
> <PUBCHEM_IUPAC_INCHIKEY>
PYQHZJUPDTXCSL-HXUWFJFHSA-N
> <PUBCHEM_XLOGP3_AA>
2.8
> <PUBCHEM_EXACT_MASS>
517.26890461
> <PUBCHEM_MOLECULAR_FORMULA>
C29H35N5O4
> <PUBCHEM_MOLECULAR_WEIGHT>
517.6
> <PUBCHEM_OPENEYE_CAN_SMILES>
CCN(CC)CCNC(=O)C1=CC=CC2=C1NC=C2C(=O)C(=O)N3CCN(CC3C)C(=O)C4=CC=CC=C4
> <PUBCHEM_OPENEYE_ISO_SMILES>
CCN(CC)CCNC(=O)C1=CC=CC2=C1NC=C2C(=O)C(=O)N3CCN(C[C@H]3C)C(=O)C4=CC=CC=C4
> <PUBCHEM_CACTVS_TPSA>
106
> <PUBCHEM_MONOISOTOPIC_WEIGHT>
517.26890461
> <PUBCHEM_TOTAL_CHARGE>
0
> <PUBCHEM_HEAVY_ATOM_COUNT>
38
> <PUBCHEM_ATOM_DEF_STEREO_COUNT>
1
> <PUBCHEM_ATOM_UDEF_STEREO_COUNT>
0
> <PUBCHEM_BOND_DEF_STEREO_COUNT>
0
> <PUBCHEM_BOND_UDEF_STEREO_COUNT>
0
> <PUBCHEM_ISOTOPIC_ATOM_COUNT>
0
> <PUBCHEM_COMPONENT_COUNT>
1
> <PUBCHEM_CACTVS_TAUTO_COUNT>
-1
> <PUBCHEM_COORDINATE_TYPE>
1
5
255
> <PUBCHEM_BONDANNOTATIONS>
10  14  5
18  20  8
18  22  8
19  24  8
19  25  8
20  21  8
20  26  8
21  23  8
23  29  8
24  34  8
25  35  8
26  31  8
29  31  8
34  36  8
35  36  8
7  21  8
7  22  8
$$$$
