507877
  -OEChem-10302200282D
 59 62  0     1  0  0  0  0  0999 V2000
    7.5013   -0.5961    0.0000 O   0  0  0  0  0  0  0  0  0  0  0  0
    7.4083    4.6946    0.0000 O   0  0  0  0  0  0  0  0  0  0  0  0
    5.1871    0.6863    0.0000 O   0  0  0  0  0  0  0  0  0  0  0  0
    4.5981   -4.3133    0.0000 O   0  0  0  0  0  0  0  0  0  0  0  0
    7.1441    1.0987    0.0000 N   0  0  0  0  0  0  0  0  0  0  0  0
    7.7654    2.9998    0.0000 N   0  0  0  0  0  0  0  0  0  0  0  0
    5.5443   -2.6180    0.0000 N   0  0  0  0  0  0  0  0  0  0  0  0
    2.8660   -4.3133    0.0000 N   0  0  0  0  0  0  0  0  0  0  0  0
    8.1226    1.3050    0.0000 C   0  0  1  0  0  0  0  0  0  0  0  0
    8.4333    2.2555    0.0000 C   0  0  0  0  0  0  0  0  0  0  0  0
    6.4763    1.8430    0.0000 C   0  0  0  0  0  0  0  0  0  0  0  0
    6.7870    2.7936    0.0000 C   0  0  0  0  0  0  0  0  0  0  0  0
    8.7905    0.5607    0.0000 C   0  0  0  0  0  0  0  0  0  0  0  0
    6.8335    0.1482    0.0000 C   0  0  0  0  0  0  0  0  0  0  0  0
    8.0761    3.9503    0.0000 C   0  0  0  0  0  0  0  0  0  0  0  0
    5.8550   -0.0580    0.0000 C   0  0  0  0  0  0  0  0  0  0  0  0
    5.5443   -1.0085    0.0000 C   0  0  0  0  0  0  0  0  0  0  0  0
    9.0546    4.1565    0.0000 C   0  0  0  0  0  0  0  0  0  0  0  0
    4.5981   -1.3133    0.0000 C   0  0  0  0  0  0  0  0  0  0  0  0
    4.5981   -2.3133    0.0000 C   0  0  0  0  0  0  0  0  0  0  0  0
    6.1279   -1.8133    0.0000 C   0  0  0  0  0  0  0  0  0  0  0  0
    3.7320   -2.8133    0.0000 C   0  0  0  0  0  0  0  0  0  0  0  0
    3.7320   -0.8133    0.0000 C   0  0  0  0  0  0  0  0  0  0  0  0
    9.7225    3.4122    0.0000 C   0  0  0  0  0  0  0  0  0  0  0  0
    9.3653    5.1070    0.0000 C   0  0  0  0  0  0  0  0  0  0  0  0
    2.8660   -2.3133    0.0000 C   0  0  0  0  0  0  0  0  0  0  0  0
    2.8660   -1.3133    0.0000 C   0  0  0  0  0  0  0  0  0  0  0  0
    3.7320   -3.8133    0.0000 C   0  0  0  0  0  0  0  0  0  0  0  0
   10.7010    3.6184    0.0000 C   0  0  0  0  0  0  0  0  0  0  0  0
   10.3438    5.3133    0.0000 C   0  0  0  0  0  0  0  0  0  0  0  0
   11.0116    4.5690    0.0000 C   0  0  0  0  0  0  0  0  0  0  0  0
    2.8660   -5.3133    0.0000 C   0  0  0  0  0  0  0  0  0  0  0  0
    2.0000   -3.8133    0.0000 C   0  0  0  0  0  0  0  0  0  0  0  0
    7.9300    0.7156    0.0000 H   0  0  0  0  0  0  0  0  0  0  0  0
    8.9802    1.9635    0.0000 H   0  0  0  0  0  0  0  0  0  0  0  0
    8.8158    2.7434    0.0000 H   0  0  0  0  0  0  0  0  0  0  0  0
    5.9294    2.1351    0.0000 H   0  0  0  0  0  0  0  0  0  0  0  0
    6.0937    1.3551    0.0000 H   0  0  0  0  0  0  0  0  0  0  0  0
    6.7664    3.4132    0.0000 H   0  0  0  0  0  0  0  0  0  0  0  0
    6.1731    2.8809    0.0000 H   0  0  0  0  0  0  0  0  0  0  0  0
    8.3290    0.1466    0.0000 H   0  0  0  0  0  0  0  0  0  0  0  0
    9.2045    0.0992    0.0000 H   0  0  0  0  0  0  0  0  0  0  0  0
    9.2519    0.9747    0.0000 H   0  0  0  0  0  0  0  0  0  0  0  0
    6.7479   -1.8133    0.0000 H   0  0  0  0  0  0  0  0  0  0  0  0
    5.7369   -3.2073    0.0000 H   0  0  0  0  0  0  0  0  0  0  0  0
    3.7320   -0.1933    0.0000 H   0  0  0  0  0  0  0  0  0  0  0  0
    9.5298    2.8229    0.0000 H   0  0  0  0  0  0  0  0  0  0  0  0
    8.9512    5.5685    0.0000 H   0  0  0  0  0  0  0  0  0  0  0  0
    2.3291   -2.6233    0.0000 H   0  0  0  0  0  0  0  0  0  0  0  0
    2.3291   -1.0033    0.0000 H   0  0  0  0  0  0  0  0  0  0  0  0
   11.1150    3.1570    0.0000 H   0  0  0  0  0  0  0  0  0  0  0  0
   10.5364    5.9026    0.0000 H   0  0  0  0  0  0  0  0  0  0  0  0
   11.6183    4.6968    0.0000 H   0  0  0  0  0  0  0  0  0  0  0  0
    2.2460   -5.3133    0.0000 H   0  0  0  0  0  0  0  0  0  0  0  0
    2.8660   -5.9333    0.0000 H   0  0  0  0  0  0  0  0  0  0  0  0
    3.4860   -5.3133    0.0000 H   0  0  0  0  0  0  0  0  0  0  0  0
    2.3100   -3.2763    0.0000 H   0  0  0  0  0  0  0  0  0  0  0  0
    1.4631   -3.5033    0.0000 H   0  0  0  0  0  0  0  0  0  0  0  0
    1.6900   -4.3502    0.0000 H   0  0  0  0  0  0  0  0  0  0  0  0
  1 14  2  0  0  0  0
  2 15  2  0  0  0  0
  3 16  2  0  0  0  0
  4 28  2  0  0  0  0
  5  9  1  0  0  0  0
  5 11  1  0  0  0  0
  5 14  1  0  0  0  0
  6 10  1  0  0  0  0
  6 12  1  0  0  0  0
  6 15  1  0  0  0  0
  7 20  1  0  0  0  0
  7 21  1  0  0  0  0
  7 45  1  0  0  0  0
  8 28  1  0  0  0  0
  8 32  1  0  0  0  0
  8 33  1  0  0  0  0
  9 10  1  0  0  0  0
  9 13  1  1  0  0  0
  9 34  1  0  0  0  0
 10 35  1  0  0  0  0
 10 36  1  0  0  0  0
 11 12  1  0  0  0  0
 11 37  1  0  0  0  0
 11 38  1  0  0  0  0
 12 39  1  0  0  0  0
 12 40  1  0  0  0  0
 13 41  1  0  0  0  0
 13 42  1  0  0  0  0
 13 43  1  0  0  0  0
 14 16  1  0  0  0  0
 15 18  1  0  0  0  0
 16 17  1  0  0  0  0
 17 19  1  0  0  0  0
 17 21  2  0  0  0  0
 18 24  2  0  0  0  0
 18 25  1  0  0  0  0
 19 20  2  0  0  0  0
 19 23  1  0  0  0  0
 20 22  1  0  0  0  0
 21 44  1  0  0  0  0
 22 26  2  0  0  0  0
 22 28  1  0  0  0  0
 23 27  2  0  0  0  0
 23 46  1  0  0  0  0
 24 29  1  0  0  0  0
 24 47  1  0  0  0  0
 25 30  2  0  0  0  0
 25 48  1  0  0  0  0
 26 27  1  0  0  0  0
 26 49  1  0  0  0  0
 27 50  1  0  0  0  0
 29 31  2  0  0  0  0
 29 51  1  0  0  0  0
 30 31  1  0  0  0  0
 30 52  1  0  0  0  0
 31 53  1  0  0  0  0
 32 54  1  0  0  0  0
 32 55  1  0  0  0  0
 32 56  1  0  0  0  0
 33 57  1  0  0  0  0
 33 58  1  0  0  0  0
 33 59  1  0  0  0  0
M  END
> <PUBCHEM_COMPOUND_CID>
507877
> <PUBCHEM_COMPOUND_CANONICALIZED>
1
> <PUBCHEM_CACTVS_COMPLEXITY>
778
> <PUBCHEM_CACTVS_HBOND_ACCEPTOR>
4
> <PUBCHEM_CACTVS_HBOND_DONOR>
1
> <PUBCHEM_CACTVS_ROTATABLE_BOND>
4
> <PUBCHEM_CACTVS_SUBSKEYS>
AAADceB7uAAAAAAAAAAAAAAAAAAAAWAAAAA8YIAAAAAAAFgB9AAAHgAQAAAADCzBngQ+wPPJkACoA7V3VACCgCA1ACAI2aGoRNgIYPrA1bGUIYhghgDIycccicCegAACAAACAAAAAAQAAAQAAAAAAAAAAA==
> <PUBCHEM_IUPAC_OPENEYE_NAME>
3-[2-[(2R)-4-benzoyl-2-methyl-piperazin-1-yl]-2-oxo-acetyl]-N,N-dimethyl-1H-indole-7-carboxamide
> <PUBCHEM_IUPAC_CAS_NAME>
3-[2-[(2R)-4-benzoyl-2-methyl-1-piperazinyl]-1,2-dioxoethyl]-N,N-dimethyl-1H-indole-7-carboxamide
> <PUBCHEM_IUPAC_NAME_MARKUP>
3-[2-[(2<I>R</I>)-4-benzoyl-2-methylpiperazin-1-yl]-2-oxoacetyl]-<I>N</I>,<I>N</I>-dimethyl-1<I>H</I>-indole-7-carboxamide
> <PUBCHEM_IUPAC_NAME>
3-[2-[(2R)-4-benzoyl-2-methylpiperazin-1-yl]-2-oxoacetyl]-N,N-dimethyl-1H-indole-7-carboxamide
> <PUBCHEM_IUPAC_SYSTEMATIC_NAME>
N,N-dimethyl-3-[2-[(2R)-2-methyl-4-(phenylcarbonyl)piperazin-1-yl]-2-oxidanylidene-ethanoyl]-1H-indole-7-carboxamide
> <PUBCHEM_IUPAC_TRADITIONAL_NAME>
3-[2-[(2R)-4-benzoyl-2-methyl-piperazino]-2-keto-acetyl]-N,N-dimethyl-1H-indole-7-carboxamide
> <PUBCHEM_IUPAC_INCHI>
InChI=1S/C25H26N4O4/c1-16-15-28(23(31)17-8-5-4-6-9-17)12-13-29(16)25(33)22(30)20-14-26-21-18(20)10-7-11-19(21)24(32)27(2)3/h4-11,14,16,26H,12-13,15H2,1-3H3/t16-/m1/s1
> <PUBCHEM_IUPAC_INCHIKEY>
VLEYXRJLAVDRFX-MRXNPFEDSA-N
> <PUBCHEM_XLOGP3_AA>
2.2
> <PUBCHEM_EXACT_MASS>
446.19540532
> <PUBCHEM_MOLECULAR_FORMULA>
C25H26N4O4
> <PUBCHEM_MOLECULAR_WEIGHT>
446.5
> <PUBCHEM_OPENEYE_CAN_SMILES>
CC1CN(CCN1C(=O)C(=O)C2=CNC3=C2C=CC=C3C(=O)N(C)C)C(=O)C4=CC=CC=C4
> <PUBCHEM_OPENEYE_ISO_SMILES>
C[C@@H]1CN(CCN1C(=O)C(=O)C2=CNC3=C2C=CC=C3C(=O)N(C)C)C(=O)C4=CC=CC=C4
> <PUBCHEM_CACTVS_TPSA>
93.8
> <PUBCHEM_MONOISOTOPIC_WEIGHT>
446.19540532
> <PUBCHEM_TOTAL_CHARGE>
0
> <PUBCHEM_HEAVY_ATOM_COUNT>
33
> <PUBCHEM_ATOM_DEF_STEREO_COUNT>
1
> <PUBCHEM_ATOM_UDEF_STEREO_COUNT>
0
> <PUBCHEM_BOND_DEF_STEREO_COUNT>
0
> <PUBCHEM_BOND_UDEF_STEREO_COUNT>
0
> <PUBCHEM_ISOTOPIC_ATOM_COUNT>
0
> <PUBCHEM_COMPONENT_COUNT>
1
> <PUBCHEM_CACTVS_TAUTO_COUNT>
-1
> <PUBCHEM_COORDINATE_TYPE>
1
5
255
> <PUBCHEM_BONDANNOTATIONS>
17  19  8
17  21  8
18  24  8
18  25  8
19  20  8
19  23  8
20  22  8
22  26  8
23  27  8
24  29  8
25  30  8
26  27  8
29  31  8
30  31  8
7  20  8
7  21  8
9  13  5
$$$$
