507846
  -OEChem-10302200282D
 55 58  0     1  0  0  0  0  0999 V2000
    3.4030    0.3417    0.0000 F   0  0  0  0  0  0  0  0  0  0  0  0
    7.1722   -0.4411    0.0000 O   0  0  0  0  0  0  0  0  0  0  0  0
    7.0792    4.8496    0.0000 O   0  0  0  0  0  0  0  0  0  0  0  0
    4.8580    0.8413    0.0000 O   0  0  0  0  0  0  0  0  0  0  0  0
    4.2690   -5.1583    0.0000 O   0  0  0  0  0  0  0  0  0  0  0  0
    6.8150    1.2537    0.0000 N   0  0  0  0  0  0  0  0  0  0  0  0
    7.4364    3.1548    0.0000 N   0  0  0  0  0  0  0  0  0  0  0  0
    5.2152   -2.4630    0.0000 N   0  0  0  0  0  0  0  0  0  0  0  0
    2.5369   -4.1583    0.0000 N   0  0  0  0  0  0  0  0  0  0  0  0
    4.2690   -4.1583    0.0000 N   0  0  0  0  0  0  0  0  0  0  0  0
    7.7935    1.4600    0.0000 C   0  0  1  0  0  0  0  0  0  0  0  0
    8.1042    2.4105    0.0000 C   0  0  0  0  0  0  0  0  0  0  0  0
    6.1472    1.9980    0.0000 C   0  0  0  0  0  0  0  0  0  0  0  0
    6.4579    2.9486    0.0000 C   0  0  0  0  0  0  0  0  0  0  0  0
    8.4614    0.7157    0.0000 C   0  0  0  0  0  0  0  0  0  0  0  0
    6.5044    0.3032    0.0000 C   0  0  0  0  0  0  0  0  0  0  0  0
    7.7470    4.1053    0.0000 C   0  0  0  0  0  0  0  0  0  0  0  0
    5.5259    0.0970    0.0000 C   0  0  0  0  0  0  0  0  0  0  0  0
    5.2152   -0.8535    0.0000 C   0  0  0  0  0  0  0  0  0  0  0  0
    8.7255    4.3115    0.0000 C   0  0  0  0  0  0  0  0  0  0  0  0
    4.2690   -1.1583    0.0000 C   0  0  0  0  0  0  0  0  0  0  0  0
    4.2690   -2.1583    0.0000 C   0  0  0  0  0  0  0  0  0  0  0  0
    5.7988   -1.6583    0.0000 C   0  0  0  0  0  0  0  0  0  0  0  0
    3.4030   -2.6583    0.0000 C   0  0  0  0  0  0  0  0  0  0  0  0
    3.4030   -0.6583    0.0000 C   0  0  0  0  0  0  0  0  0  0  0  0
    9.0362    5.2620    0.0000 C   0  0  0  0  0  0  0  0  0  0  0  0
    9.3934    3.5672    0.0000 C   0  0  0  0  0  0  0  0  0  0  0  0
    2.5369   -2.1583    0.0000 C   0  0  0  0  0  0  0  0  0  0  0  0
    2.5369   -1.1583    0.0000 C   0  0  0  0  0  0  0  0  0  0  0  0
   10.0147    5.4683    0.0000 C   0  0  0  0  0  0  0  0  0  0  0  0
   10.3719    3.7734    0.0000 C   0  0  0  0  0  0  0  0  0  0  0  0
    3.4030   -3.6583    0.0000 C   0  0  0  0  0  0  0  0  0  0  0  0
   10.6825    4.7240    0.0000 C   0  0  0  0  0  0  0  0  0  0  0  0
    7.6009    0.8706    0.0000 H   0  0  0  0  0  0  0  0  0  0  0  0
    8.6511    2.1185    0.0000 H   0  0  0  0  0  0  0  0  0  0  0  0
    8.4868    2.8984    0.0000 H   0  0  0  0  0  0  0  0  0  0  0  0
    5.6003    2.2901    0.0000 H   0  0  0  0  0  0  0  0  0  0  0  0
    5.7646    1.5101    0.0000 H   0  0  0  0  0  0  0  0  0  0  0  0
    6.4373    3.5682    0.0000 H   0  0  0  0  0  0  0  0  0  0  0  0
    5.8440    3.0359    0.0000 H   0  0  0  0  0  0  0  0  0  0  0  0
    7.9999    0.3016    0.0000 H   0  0  0  0  0  0  0  0  0  0  0  0
    8.8754    0.2542    0.0000 H   0  0  0  0  0  0  0  0  0  0  0  0
    8.9228    1.1297    0.0000 H   0  0  0  0  0  0  0  0  0  0  0  0
    6.4188   -1.6583    0.0000 H   0  0  0  0  0  0  0  0  0  0  0  0
    5.4078   -3.0523    0.0000 H   0  0  0  0  0  0  0  0  0  0  0  0
    8.6221    5.7235    0.0000 H   0  0  0  0  0  0  0  0  0  0  0  0
    9.2008    2.9779    0.0000 H   0  0  0  0  0  0  0  0  0  0  0  0
    2.0000   -2.4683    0.0000 H   0  0  0  0  0  0  0  0  0  0  0  0
    2.0000   -0.8483    0.0000 H   0  0  0  0  0  0  0  0  0  0  0  0
   10.2073    6.0576    0.0000 H   0  0  0  0  0  0  0  0  0  0  0  0
   10.7859    3.3120    0.0000 H   0  0  0  0  0  0  0  0  0  0  0  0
   11.2892    4.8518    0.0000 H   0  0  0  0  0  0  0  0  0  0  0  0
    2.5369   -4.7783    0.0000 H   0  0  0  0  0  0  0  0  0  0  0  0
    2.0000   -3.8483    0.0000 H   0  0  0  0  0  0  0  0  0  0  0  0
    4.8059   -5.4683    0.0000 H   0  0  0  0  0  0  0  0  0  0  0  0
  1 25  1  0  0  0  0
  2 16  2  0  0  0  0
  3 17  2  0  0  0  0
  4 18  2  0  0  0  0
  5 10  1  0  0  0  0
  5 55  1  0  0  0  0
  6 11  1  0  0  0  0
  6 13  1  0  0  0  0
  6 16  1  0  0  0  0
  7 12  1  0  0  0  0
  7 14  1  0  0  0  0
  7 17  1  0  0  0  0
  8 22  1  0  0  0  0
  8 23  1  0  0  0  0
  8 45  1  0  0  0  0
  9 32  1  0  0  0  0
  9 53  1  0  0  0  0
  9 54  1  0  0  0  0
 10 32  2  3  0  0  0
 11 12  1  0  0  0  0
 11 15  1  1  0  0  0
 11 34  1  0  0  0  0
 12 35  1  0  0  0  0
 12 36  1  0  0  0  0
 13 14  1  0  0  0  0
 13 37  1  0  0  0  0
 13 38  1  0  0  0  0
 14 39  1  0  0  0  0
 14 40  1  0  0  0  0
 15 41  1  0  0  0  0
 15 42  1  0  0  0  0
 15 43  1  0  0  0  0
 16 18  1  0  0  0  0
 17 20  1  0  0  0  0
 18 19  1  0  0  0  0
 19 21  1  0  0  0  0
 19 23  2  0  0  0  0
 20 26  2  0  0  0  0
 20 27  1  0  0  0  0
 21 22  1  0  0  0  0
 21 25  2  0  0  0  0
 22 24  2  0  0  0  0
 23 44  1  0  0  0  0
 24 28  1  0  0  0  0
 24 32  1  0  0  0  0
 25 29  1  0  0  0  0
 26 30  1  0  0  0  0
 26 46  1  0  0  0  0
 27 31  2  0  0  0  0
 27 47  1  0  0  0  0
 28 29  2  0  0  0  0
 28 48  1  0  0  0  0
 29 49  1  0  0  0  0
 30 33  2  0  0  0  0
 30 50  1  0  0  0  0
 31 33  1  0  0  0  0
 31 51  1  0  0  0  0
 33 52  1  0  0  0  0
M  END
> <PUBCHEM_COMPOUND_CID>
507846
> <PUBCHEM_COMPOUND_CANONICALIZED>
1
> <PUBCHEM_CACTVS_COMPLEXITY>
802
> <PUBCHEM_CACTVS_HBOND_ACCEPTOR>
6
> <PUBCHEM_CACTVS_HBOND_DONOR>
3
> <PUBCHEM_CACTVS_ROTATABLE_BOND>
4
> <PUBCHEM_CACTVS_SUBSKEYS>
AAADceB7uQAAAAAAAAAAAAAAAAAAAWAAAAA8YIAAAAAAAFgB9AAAHwAUCAAADCzBngw/wPPZkACoA7d3dACCgCA1ACAI2aGoRNgIYPrA1bGUIYhghgDIycccicCegAACAAACAAAAAAQAAAQAAAAAAAAAAA==
> <PUBCHEM_IUPAC_OPENEYE_NAME>
3-[2-[(2R)-4-benzoyl-2-methyl-piperazin-1-yl]-2-oxo-acetyl]-4-fluoro-N'-hydroxy-1H-indole-7-carboxamidine
> <PUBCHEM_IUPAC_CAS_NAME>
3-[2-[(2R)-4-benzoyl-2-methyl-1-piperazinyl]-1,2-dioxoethyl]-4-fluoro-N'-hydroxy-1H-indole-7-carboximidamide
> <PUBCHEM_IUPAC_NAME_MARKUP>
3-[2-[(2<I>R</I>)-4-benzoyl-2-methylpiperazin-1-yl]-2-oxoacetyl]-4-fluoro-<I>N</I>&apos;-hydroxy-1<I>H</I>-indole-7-carboximidamide
> <PUBCHEM_IUPAC_NAME>
3-[2-[(2R)-4-benzoyl-2-methylpiperazin-1-yl]-2-oxoacetyl]-4-fluoro-N'-hydroxy-1H-indole-7-carboximidamide
> <PUBCHEM_IUPAC_SYSTEMATIC_NAME>
4-fluoranyl-3-[2-[(2R)-2-methyl-4-(phenylcarbonyl)piperazin-1-yl]-2-oxidanylidene-ethanoyl]-N'-oxidanyl-1H-indole-7-carboximidamide
> <PUBCHEM_IUPAC_TRADITIONAL_NAME>
3-[2-[(2R)-4-benzoyl-2-methyl-piperazino]-2-keto-acetyl]-4-fluoro-N'-hydroxy-1H-indole-7-carboxamidine
> <PUBCHEM_IUPAC_INCHI>
InChI=1S/C23H22FN5O4/c1-13-12-28(22(31)14-5-3-2-4-6-14)9-10-29(13)23(32)20(30)16-11-26-19-15(21(25)27-33)7-8-17(24)18(16)19/h2-8,11,13,26,33H,9-10,12H2,1H3,(H2,25,27)/t13-/m1/s1
> <PUBCHEM_IUPAC_INCHIKEY>
YOZKBOFALQSDEN-CYBMUJFWSA-N
> <PUBCHEM_XLOGP3_AA>
2
> <PUBCHEM_EXACT_MASS>
451.16558236
> <PUBCHEM_MOLECULAR_FORMULA>
C23H22FN5O4
> <PUBCHEM_MOLECULAR_WEIGHT>
451.4
> <PUBCHEM_OPENEYE_CAN_SMILES>
CC1CN(CCN1C(=O)C(=O)C2=CNC3=C(C=CC(=C23)F)C(=NO)N)C(=O)C4=CC=CC=C4
> <PUBCHEM_OPENEYE_ISO_SMILES>
C[C@@H]1CN(CCN1C(=O)C(=O)C2=CNC3=C(C=CC(=C23)F)C(=NO)N)C(=O)C4=CC=CC=C4
> <PUBCHEM_CACTVS_TPSA>
132
> <PUBCHEM_MONOISOTOPIC_WEIGHT>
451.16558236
> <PUBCHEM_TOTAL_CHARGE>
0
> <PUBCHEM_HEAVY_ATOM_COUNT>
33
> <PUBCHEM_ATOM_DEF_STEREO_COUNT>
1
> <PUBCHEM_ATOM_UDEF_STEREO_COUNT>
0
> <PUBCHEM_BOND_DEF_STEREO_COUNT>
0
> <PUBCHEM_BOND_UDEF_STEREO_COUNT>
1
> <PUBCHEM_ISOTOPIC_ATOM_COUNT>
0
> <PUBCHEM_COMPONENT_COUNT>
1
> <PUBCHEM_CACTVS_TAUTO_COUNT>
-1
> <PUBCHEM_COORDINATE_TYPE>
1
5
255
> <PUBCHEM_BONDANNOTATIONS>
10  32  1
11  15  5
19  21  8
19  23  8
20  26  8
20  27  8
21  22  8
21  25  8
22  24  8
24  28  8
25  29  8
26  30  8
27  31  8
28  29  8
30  33  8
31  33  8
8  22  8
8  23  8
$$$$
