507878
  -OEChem-10302200282D
 59 62  0     1  0  0  0  0  0999 V2000
    7.5013   -0.3461    0.0000 O   0  0  0  0  0  0  0  0  0  0  0  0
    7.4083    4.9446    0.0000 O   0  0  0  0  0  0  0  0  0  0  0  0
    5.1871    0.9363    0.0000 O   0  0  0  0  0  0  0  0  0  0  0  0
    4.5981   -4.0633    0.0000 O   0  0  0  0  0  0  0  0  0  0  0  0
    7.1441    1.3487    0.0000 N   0  0  0  0  0  0  0  0  0  0  0  0
    7.7654    3.2498    0.0000 N   0  0  0  0  0  0  0  0  0  0  0  0
    5.5443   -2.3680    0.0000 N   0  0  0  0  0  0  0  0  0  0  0  0
    2.8660   -4.0633    0.0000 N   0  0  0  0  0  0  0  0  0  0  0  0
    8.1226    1.5550    0.0000 C   0  0  1  0  0  0  0  0  0  0  0  0
    8.4333    2.5055    0.0000 C   0  0  0  0  0  0  0  0  0  0  0  0
    6.4763    2.0930    0.0000 C   0  0  0  0  0  0  0  0  0  0  0  0
    6.7870    3.0436    0.0000 C   0  0  0  0  0  0  0  0  0  0  0  0
    8.7905    0.8107    0.0000 C   0  0  0  0  0  0  0  0  0  0  0  0
    6.8335    0.3982    0.0000 C   0  0  0  0  0  0  0  0  0  0  0  0
    8.0761    4.2003    0.0000 C   0  0  0  0  0  0  0  0  0  0  0  0
    5.8550    0.1920    0.0000 C   0  0  0  0  0  0  0  0  0  0  0  0
    5.5443   -0.7585    0.0000 C   0  0  0  0  0  0  0  0  0  0  0  0
    9.0546    4.4065    0.0000 C   0  0  0  0  0  0  0  0  0  0  0  0
    4.5981   -1.0633    0.0000 C   0  0  0  0  0  0  0  0  0  0  0  0
    4.5981   -2.0633    0.0000 C   0  0  0  0  0  0  0  0  0  0  0  0
    6.1279   -1.5633    0.0000 C   0  0  0  0  0  0  0  0  0  0  0  0
    3.7320   -2.5633    0.0000 C   0  0  0  0  0  0  0  0  0  0  0  0
    9.3653    5.3570    0.0000 C   0  0  0  0  0  0  0  0  0  0  0  0
    9.7225    3.6622    0.0000 C   0  0  0  0  0  0  0  0  0  0  0  0
    3.7320   -0.5633    0.0000 C   0  0  0  0  0  0  0  0  0  0  0  0
    2.8660   -2.0633    0.0000 C   0  0  0  0  0  0  0  0  0  0  0  0
    2.8660   -1.0633    0.0000 C   0  0  0  0  0  0  0  0  0  0  0  0
   10.3438    5.5633    0.0000 C   0  0  0  0  0  0  0  0  0  0  0  0
   10.7010    3.8684    0.0000 C   0  0  0  0  0  0  0  0  0  0  0  0
    3.7320   -3.5633    0.0000 C   0  0  0  0  0  0  0  0  0  0  0  0
   11.0116    4.8190    0.0000 C   0  0  0  0  0  0  0  0  0  0  0  0
    2.8660   -5.0633    0.0000 C   0  0  0  0  0  0  0  0  0  0  0  0
    2.0000   -5.5633    0.0000 C   0  0  0  0  0  0  0  0  0  0  0  0
    7.9300    0.9656    0.0000 H   0  0  0  0  0  0  0  0  0  0  0  0
    8.9802    2.2135    0.0000 H   0  0  0  0  0  0  0  0  0  0  0  0
    8.8158    2.9934    0.0000 H   0  0  0  0  0  0  0  0  0  0  0  0
    5.9294    2.3851    0.0000 H   0  0  0  0  0  0  0  0  0  0  0  0
    6.0937    1.6051    0.0000 H   0  0  0  0  0  0  0  0  0  0  0  0
    6.7664    3.6632    0.0000 H   0  0  0  0  0  0  0  0  0  0  0  0
    6.1731    3.1309    0.0000 H   0  0  0  0  0  0  0  0  0  0  0  0
    8.3290    0.3966    0.0000 H   0  0  0  0  0  0  0  0  0  0  0  0
    9.2045    0.3492    0.0000 H   0  0  0  0  0  0  0  0  0  0  0  0
    9.2519    1.2247    0.0000 H   0  0  0  0  0  0  0  0  0  0  0  0
    6.7479   -1.5633    0.0000 H   0  0  0  0  0  0  0  0  0  0  0  0
    5.7369   -2.9573    0.0000 H   0  0  0  0  0  0  0  0  0  0  0  0
    3.7320    0.0567    0.0000 H   0  0  0  0  0  0  0  0  0  0  0  0
    8.9512    5.8185    0.0000 H   0  0  0  0  0  0  0  0  0  0  0  0
    9.5298    3.0729    0.0000 H   0  0  0  0  0  0  0  0  0  0  0  0
    2.3291   -2.3733    0.0000 H   0  0  0  0  0  0  0  0  0  0  0  0
    2.3291   -0.7533    0.0000 H   0  0  0  0  0  0  0  0  0  0  0  0
   10.5364    6.1526    0.0000 H   0  0  0  0  0  0  0  0  0  0  0  0
   11.1150    3.4070    0.0000 H   0  0  0  0  0  0  0  0  0  0  0  0
   11.6183    4.9468    0.0000 H   0  0  0  0  0  0  0  0  0  0  0  0
    2.3291   -3.7533    0.0000 H   0  0  0  0  0  0  0  0  0  0  0  0
    3.0781   -5.6459    0.0000 H   0  0  0  0  0  0  0  0  0  0  0  0
    3.4766   -4.9556    0.0000 H   0  0  0  0  0  0  0  0  0  0  0  0
    1.6900   -5.0263    0.0000 H   0  0  0  0  0  0  0  0  0  0  0  0
    1.4631   -5.8733    0.0000 H   0  0  0  0  0  0  0  0  0  0  0  0
    2.3100   -6.1002    0.0000 H   0  0  0  0  0  0  0  0  0  0  0  0
  1 14  2  0  0  0  0
  2 15  2  0  0  0  0
  3 16  2  0  0  0  0
  4 30  2  0  0  0  0
  5  9  1  0  0  0  0
  5 11  1  0  0  0  0
  5 14  1  0  0  0  0
  6 10  1  0  0  0  0
  6 12  1  0  0  0  0
  6 15  1  0  0  0  0
  7 20  1  0  0  0  0
  7 21  1  0  0  0  0
  7 45  1  0  0  0  0
  8 30  1  0  0  0  0
  8 32  1  0  0  0  0
  8 54  1  0  0  0  0
  9 10  1  0  0  0  0
  9 13  1  1  0  0  0
  9 34  1  0  0  0  0
 10 35  1  0  0  0  0
 10 36  1  0  0  0  0
 11 12  1  0  0  0  0
 11 37  1  0  0  0  0
 11 38  1  0  0  0  0
 12 39  1  0  0  0  0
 12 40  1  0  0  0  0
 13 41  1  0  0  0  0
 13 42  1  0  0  0  0
 13 43  1  0  0  0  0
 14 16  1  0  0  0  0
 15 18  1  0  0  0  0
 16 17  1  0  0  0  0
 17 19  1  0  0  0  0
 17 21  2  0  0  0  0
 18 23  2  0  0  0  0
 18 24  1  0  0  0  0
 19 20  2  0  0  0  0
 19 25  1  0  0  0  0
 20 22  1  0  0  0  0
 21 44  1  0  0  0  0
 22 26  2  0  0  0  0
 22 30  1  0  0  0  0
 23 28  1  0  0  0  0
 23 47  1  0  0  0  0
 24 29  2  0  0  0  0
 24 48  1  0  0  0  0
 25 27  2  0  0  0  0
 25 46  1  0  0  0  0
 26 27  1  0  0  0  0
 26 49  1  0  0  0  0
 27 50  1  0  0  0  0
 28 31  2  0  0  0  0
 28 51  1  0  0  0  0
 29 31  1  0  0  0  0
 29 52  1  0  0  0  0
 31 53  1  0  0  0  0
 32 33  1  0  0  0  0
 32 55  1  0  0  0  0
 32 56  1  0  0  0  0
 33 57  1  0  0  0  0
 33 58  1  0  0  0  0
 33 59  1  0  0  0  0
M  END
> <PUBCHEM_COMPOUND_CID>
507878
> <PUBCHEM_COMPOUND_CANONICALIZED>
1
> <PUBCHEM_CACTVS_COMPLEXITY>
766
> <PUBCHEM_CACTVS_HBOND_ACCEPTOR>
4
> <PUBCHEM_CACTVS_HBOND_DONOR>
2
> <PUBCHEM_CACTVS_ROTATABLE_BOND>
5
> <PUBCHEM_CACTVS_SUBSKEYS>
AAADceB7uAAAAAAAAAAAAAAAAAAAAWAAAAA8YIAAAAAAAFgB9AAAHgAQAAAADCzBngQ+wPPJkACoA7V3VACCgCA1ACAI2aGoRNgIYPrA1bGUIYhglgDIycccicCegAACAAACAAAAAAQAAAQAAAAAAAAAAA==
> <PUBCHEM_IUPAC_OPENEYE_NAME>
3-[2-[(2R)-4-benzoyl-2-methyl-piperazin-1-yl]-2-oxo-acetyl]-N-ethyl-1H-indole-7-carboxamide
> <PUBCHEM_IUPAC_CAS_NAME>
3-[2-[(2R)-4-benzoyl-2-methyl-1-piperazinyl]-1,2-dioxoethyl]-N-ethyl-1H-indole-7-carboxamide
> <PUBCHEM_IUPAC_NAME_MARKUP>
3-[2-[(2<I>R</I>)-4-benzoyl-2-methylpiperazin-1-yl]-2-oxoacetyl]-<I>N</I>-ethyl-1<I>H</I>-indole-7-carboxamide
> <PUBCHEM_IUPAC_NAME>
3-[2-[(2R)-4-benzoyl-2-methylpiperazin-1-yl]-2-oxoacetyl]-N-ethyl-1H-indole-7-carboxamide
> <PUBCHEM_IUPAC_SYSTEMATIC_NAME>
N-ethyl-3-[2-[(2R)-2-methyl-4-(phenylcarbonyl)piperazin-1-yl]-2-oxidanylidene-ethanoyl]-1H-indole-7-carboxamide
> <PUBCHEM_IUPAC_TRADITIONAL_NAME>
3-[2-[(2R)-4-benzoyl-2-methyl-piperazino]-2-keto-acetyl]-N-ethyl-1H-indole-7-carboxamide
> <PUBCHEM_IUPAC_INCHI>
InChI=1S/C25H26N4O4/c1-3-26-23(31)19-11-7-10-18-20(14-27-21(18)19)22(30)25(33)29-13-12-28(15-16(29)2)24(32)17-8-5-4-6-9-17/h4-11,14,16,27H,3,12-13,15H2,1-2H3,(H,26,31)/t16-/m1/s1
> <PUBCHEM_IUPAC_INCHIKEY>
GIZMTAWGTQPIOW-MRXNPFEDSA-N
> <PUBCHEM_XLOGP3_AA>
2.4
> <PUBCHEM_EXACT_MASS>
446.19540532
> <PUBCHEM_MOLECULAR_FORMULA>
C25H26N4O4
> <PUBCHEM_MOLECULAR_WEIGHT>
446.5
> <PUBCHEM_OPENEYE_CAN_SMILES>
CCNC(=O)C1=CC=CC2=C1NC=C2C(=O)C(=O)N3CCN(CC3C)C(=O)C4=CC=CC=C4
> <PUBCHEM_OPENEYE_ISO_SMILES>
CCNC(=O)C1=CC=CC2=C1NC=C2C(=O)C(=O)N3CCN(C[C@H]3C)C(=O)C4=CC=CC=C4
> <PUBCHEM_CACTVS_TPSA>
103
> <PUBCHEM_MONOISOTOPIC_WEIGHT>
446.19540532
> <PUBCHEM_TOTAL_CHARGE>
0
> <PUBCHEM_HEAVY_ATOM_COUNT>
33
> <PUBCHEM_ATOM_DEF_STEREO_COUNT>
1
> <PUBCHEM_ATOM_UDEF_STEREO_COUNT>
0
> <PUBCHEM_BOND_DEF_STEREO_COUNT>
0
> <PUBCHEM_BOND_UDEF_STEREO_COUNT>
0
> <PUBCHEM_ISOTOPIC_ATOM_COUNT>
0
> <PUBCHEM_COMPONENT_COUNT>
1
> <PUBCHEM_CACTVS_TAUTO_COUNT>
-1
> <PUBCHEM_COORDINATE_TYPE>
1
5
255
> <PUBCHEM_BONDANNOTATIONS>
17  19  8
17  21  8
18  23  8
18  24  8
19  20  8
19  25  8
20  22  8
22  26  8
23  28  8
24  29  8
25  27  8
26  27  8
28  31  8
29  31  8
7  20  8
7  21  8
9  13  5
$$$$
