507880
  -OEChem-10302200282D
 78 83  0     1  0  0  0  0  0999 V2000
   10.0994    1.1539    0.0000 O   0  0  0  0  0  0  0  0  0  0  0  0
    7.1962   -2.5633    0.0000 O   0  0  0  0  0  0  0  0  0  0  0  0
   10.0063    6.4446    0.0000 O   0  0  0  0  0  0  0  0  0  0  0  0
    7.7852    2.4363    0.0000 O   0  0  0  0  0  0  0  0  0  0  0  0
    9.7422    2.8487    0.0000 N   0  0  0  0  0  0  0  0  0  0  0  0
   10.3635    4.7498    0.0000 N   0  0  0  0  0  0  0  0  0  0  0  0
    3.7320   -3.5633    0.0000 N   0  0  0  0  0  0  0  0  0  0  0  0
    5.4641   -2.5633    0.0000 N   0  0  0  0  0  0  0  0  0  0  0  0
    8.1424   -0.8680    0.0000 N   0  0  0  0  0  0  0  0  0  0  0  0
   10.7207    3.0550    0.0000 C   0  0  1  0  0  0  0  0  0  0  0  0
   11.0314    4.0055    0.0000 C   0  0  0  0  0  0  0  0  0  0  0  0
    9.0744    3.5930    0.0000 C   0  0  0  0  0  0  0  0  0  0  0  0
    9.3850    4.5436    0.0000 C   0  0  0  0  0  0  0  0  0  0  0  0
    4.5981   -4.0633    0.0000 C   0  0  0  0  0  0  0  0  0  0  0  0
    3.7320   -2.5633    0.0000 C   0  0  0  0  0  0  0  0  0  0  0  0
    5.4641   -3.5633    0.0000 C   0  0  0  0  0  0  0  0  0  0  0  0
    4.5981   -2.0633    0.0000 C   0  0  0  0  0  0  0  0  0  0  0  0
   11.3886    2.3106    0.0000 C   0  0  0  0  0  0  0  0  0  0  0  0
    9.4315    1.8982    0.0000 C   0  0  0  0  0  0  0  0  0  0  0  0
    2.8660   -4.0633    0.0000 C   0  0  0  0  0  0  0  0  0  0  0  0
    6.3301   -2.0633    0.0000 C   0  0  0  0  0  0  0  0  0  0  0  0
   10.6742    5.7003    0.0000 C   0  0  0  0  0  0  0  0  0  0  0  0
    6.3301   -1.0633    0.0000 C   0  0  0  0  0  0  0  0  0  0  0  0
    7.1962   -0.5633    0.0000 C   0  0  0  0  0  0  0  0  0  0  0  0
    8.1424    0.7415    0.0000 C   0  0  0  0  0  0  0  0  0  0  0  0
    8.4530    1.6920    0.0000 C   0  0  0  0  0  0  0  0  0  0  0  0
    7.1962    0.4367    0.0000 C   0  0  0  0  0  0  0  0  0  0  0  0
    2.8660   -5.0633    0.0000 C   0  0  0  0  0  0  0  0  0  0  0  0
   11.6527    5.9065    0.0000 C   0  0  0  0  0  0  0  0  0  0  0  0
    8.7260   -0.0633    0.0000 C   0  0  0  0  0  0  0  0  0  0  0  0
    5.4641   -0.5633    0.0000 C   0  0  0  0  0  0  0  0  0  0  0  0
    6.3301    0.9367    0.0000 C   0  0  0  0  0  0  0  0  0  0  0  0
    5.4641    0.4367    0.0000 C   0  0  0  0  0  0  0  0  0  0  0  0
    3.7320   -5.5633    0.0000 C   0  0  0  0  0  0  0  0  0  0  0  0
    2.0000   -5.5633    0.0000 C   0  0  0  0  0  0  0  0  0  0  0  0
   12.3205    5.1622    0.0000 C   0  0  0  0  0  0  0  0  0  0  0  0
   11.9634    6.8570    0.0000 C   0  0  0  0  0  0  0  0  0  0  0  0
    3.7320   -6.5633    0.0000 C   0  0  0  0  0  0  0  0  0  0  0  0
    2.0000   -6.5633    0.0000 C   0  0  0  0  0  0  0  0  0  0  0  0
    2.8660   -7.0633    0.0000 C   0  0  0  0  0  0  0  0  0  0  0  0
   13.2990    5.3684    0.0000 C   0  0  0  0  0  0  0  0  0  0  0  0
   12.9419    7.0633    0.0000 C   0  0  0  0  0  0  0  0  0  0  0  0
   13.6097    6.3190    0.0000 C   0  0  0  0  0  0  0  0  0  0  0  0
   10.5281    2.4656    0.0000 H   0  0  0  0  0  0  0  0  0  0  0  0
   11.5783    3.7135    0.0000 H   0  0  0  0  0  0  0  0  0  0  0  0
   11.4139    4.4934    0.0000 H   0  0  0  0  0  0  0  0  0  0  0  0
    8.5274    3.8851    0.0000 H   0  0  0  0  0  0  0  0  0  0  0  0
    8.6918    3.1051    0.0000 H   0  0  0  0  0  0  0  0  0  0  0  0
    9.3645    5.1632    0.0000 H   0  0  0  0  0  0  0  0  0  0  0  0
    8.7712    4.6309    0.0000 H   0  0  0  0  0  0  0  0  0  0  0  0
    4.1996   -4.5382    0.0000 H   0  0  0  0  0  0  0  0  0  0  0  0
    4.9966   -4.5382    0.0000 H   0  0  0  0  0  0  0  0  0  0  0  0
    3.5200   -1.9806    0.0000 H   0  0  0  0  0  0  0  0  0  0  0  0
    3.1215   -2.6709    0.0000 H   0  0  0  0  0  0  0  0  0  0  0  0
    5.6762   -4.1459    0.0000 H   0  0  0  0  0  0  0  0  0  0  0  0
    6.0747   -3.4556    0.0000 H   0  0  0  0  0  0  0  0  0  0  0  0
    4.9966   -1.5883    0.0000 H   0  0  0  0  0  0  0  0  0  0  0  0
    4.1996   -1.5883    0.0000 H   0  0  0  0  0  0  0  0  0  0  0  0
   10.9271    1.8966    0.0000 H   0  0  0  0  0  0  0  0  0  0  0  0
   11.8026    1.8492    0.0000 H   0  0  0  0  0  0  0  0  0  0  0  0
   11.8500    2.7247    0.0000 H   0  0  0  0  0  0  0  0  0  0  0  0
    2.6540   -3.4806    0.0000 H   0  0  0  0  0  0  0  0  0  0  0  0
    2.2554   -4.1709    0.0000 H   0  0  0  0  0  0  0  0  0  0  0  0
    8.3350   -1.4573    0.0000 H   0  0  0  0  0  0  0  0  0  0  0  0
    9.3460   -0.0633    0.0000 H   0  0  0  0  0  0  0  0  0  0  0  0
    4.9272   -0.8733    0.0000 H   0  0  0  0  0  0  0  0  0  0  0  0
    6.3301    1.5567    0.0000 H   0  0  0  0  0  0  0  0  0  0  0  0
    4.9272    0.7467    0.0000 H   0  0  0  0  0  0  0  0  0  0  0  0
    4.2690   -5.2533    0.0000 H   0  0  0  0  0  0  0  0  0  0  0  0
    1.4631   -5.2533    0.0000 H   0  0  0  0  0  0  0  0  0  0  0  0
   12.1279    4.5729    0.0000 H   0  0  0  0  0  0  0  0  0  0  0  0
   11.5493    7.3185    0.0000 H   0  0  0  0  0  0  0  0  0  0  0  0
    4.2690   -6.8733    0.0000 H   0  0  0  0  0  0  0  0  0  0  0  0
    1.4631   -6.8733    0.0000 H   0  0  0  0  0  0  0  0  0  0  0  0
    2.8660   -7.6833    0.0000 H   0  0  0  0  0  0  0  0  0  0  0  0
   13.7131    4.9070    0.0000 H   0  0  0  0  0  0  0  0  0  0  0  0
   13.1345    7.6526    0.0000 H   0  0  0  0  0  0  0  0  0  0  0  0
   14.2164    6.4468    0.0000 H   0  0  0  0  0  0  0  0  0  0  0  0
  1 19  2  0  0  0  0
  2 21  2  0  0  0  0
  3 22  2  0  0  0  0
  4 26  2  0  0  0  0
  5 10  1  0  0  0  0
  5 12  1  0  0  0  0
  5 19  1  0  0  0  0
  6 11  1  0  0  0  0
  6 13  1  0  0  0  0
  6 22  1  0  0  0  0
  7 14  1  0  0  0  0
  7 15  1  0  0  0  0
  7 20  1  0  0  0  0
  8 16  1  0  0  0  0
  8 17  1  0  0  0  0
  8 21  1  0  0  0  0
  9 24  1  0  0  0  0
  9 30  1  0  0  0  0
  9 64  1  0  0  0  0
 10 11  1  0  0  0  0
 10 18  1  1  0  0  0
 10 44  1  0  0  0  0
 11 45  1  0  0  0  0
 11 46  1  0  0  0  0
 12 13  1  0  0  0  0
 12 47  1  0  0  0  0
 12 48  1  0  0  0  0
 13 49  1  0  0  0  0
 13 50  1  0  0  0  0
 14 16  1  0  0  0  0
 14 51  1  0  0  0  0
 14 52  1  0  0  0  0
 15 17  1  0  0  0  0
 15 53  1  0  0  0  0
 15 54  1  0  0  0  0
 16 55  1  0  0  0  0
 16 56  1  0  0  0  0
 17 57  1  0  0  0  0
 17 58  1  0  0  0  0
 18 59  1  0  0  0  0
 18 60  1  0  0  0  0
 18 61  1  0  0  0  0
 19 26  1  0  0  0  0
 20 28  1  0  0  0  0
 20 62  1  0  0  0  0
 20 63  1  0  0  0  0
 21 23  1  0  0  0  0
 22 29  1  0  0  0  0
 23 24  1  0  0  0  0
 23 31  2  0  0  0  0
 24 27  2  0  0  0  0
 25 26  1  0  0  0  0
 25 27  1  0  0  0  0
 25 30  2  0  0  0  0
 27 32  1  0  0  0  0
 28 34  2  0  0  0  0
 28 35  1  0  0  0  0
 29 36  2  0  0  0  0
 29 37  1  0  0  0  0
 30 65  1  0  0  0  0
 31 33  1  0  0  0  0
 31 66  1  0  0  0  0
 32 33  2  0  0  0  0
 32 67  1  0  0  0  0
 33 68  1  0  0  0  0
 34 38  1  0  0  0  0
 34 69  1  0  0  0  0
 35 39  2  0  0  0  0
 35 70  1  0  0  0  0
 36 41  1  0  0  0  0
 36 71  1  0  0  0  0
 37 42  2  0  0  0  0
 37 72  1  0  0  0  0
 38 40  2  0  0  0  0
 38 73  1  0  0  0  0
 39 40  1  0  0  0  0
 39 74  1  0  0  0  0
 40 75  1  0  0  0  0
 41 43  2  0  0  0  0
 41 76  1  0  0  0  0
 42 43  1  0  0  0  0
 42 77  1  0  0  0  0
 43 78  1  0  0  0  0
M  END
> <PUBCHEM_COMPOUND_CID>
507880
> <PUBCHEM_COMPOUND_CANONICALIZED>
1
> <PUBCHEM_CACTVS_COMPLEXITY>
1020
> <PUBCHEM_CACTVS_HBOND_ACCEPTOR>
5
> <PUBCHEM_CACTVS_HBOND_DONOR>
1
> <PUBCHEM_CACTVS_ROTATABLE_BOND>
6
> <PUBCHEM_CACTVS_SUBSKEYS>
AAADcfB/uAAAAAAAAAAAAAAAAAAAAWAAAAA8eMECAAAAAFgB9AAAHgAQAAAADCzBngQ+wPPJkACoA7V3VACCgCA1ACAI2aGoRNgIYPrA1bGUIYhghgDIycccicCegAACAAACAAAAAAQAAAQAAAAAAAAAAA==
> <PUBCHEM_IUPAC_OPENEYE_NAME>
1-[(2R)-4-benzoyl-2-methyl-piperazin-1-yl]-2-[7-(4-benzylpiperazine-1-carbonyl)-1H-indol-3-yl]ethane-1,2-dione
> <PUBCHEM_IUPAC_CAS_NAME>
1-[(2R)-4-benzoyl-2-methyl-1-piperazinyl]-2-[7-[oxo-[4-(phenylmethyl)-1-piperazinyl]methyl]-1H-indol-3-yl]ethane-1,2-dione
> <PUBCHEM_IUPAC_NAME_MARKUP>
1-[(2<I>R</I>)-4-benzoyl-2-methylpiperazin-1-yl]-2-[7-(4-benzylpiperazine-1-carbonyl)-1<I>H</I>-indol-3-yl]ethane-1,2-dione
> <PUBCHEM_IUPAC_NAME>
1-[(2R)-4-benzoyl-2-methylpiperazin-1-yl]-2-[7-(4-benzylpiperazine-1-carbonyl)-1H-indol-3-yl]ethane-1,2-dione
> <PUBCHEM_IUPAC_SYSTEMATIC_NAME>
1-[(2R)-2-methyl-4-(phenylcarbonyl)piperazin-1-yl]-2-[7-[4-(phenylmethyl)piperazin-1-yl]carbonyl-1H-indol-3-yl]ethane-1,2-dione
> <PUBCHEM_IUPAC_TRADITIONAL_NAME>
1-[(2R)-4-benzoyl-2-methyl-piperazino]-2-[7-(4-benzylpiperazine-1-carbonyl)-1H-indol-3-yl]ethane-1,2-dione
> <PUBCHEM_IUPAC_INCHI>
InChI=1S/C34H35N5O4/c1-24-22-38(32(41)26-11-6-3-7-12-26)19-20-39(24)34(43)31(40)29-21-35-30-27(29)13-8-14-28(30)33(42)37-17-15-36(16-18-37)23-25-9-4-2-5-10-25/h2-14,21,24,35H,15-20,22-23H2,1H3/t24-/m1/s1
> <PUBCHEM_IUPAC_INCHIKEY>
DCWCHWOKIILHIM-XMMPIXPASA-N
> <PUBCHEM_XLOGP3_AA>
3.5
> <PUBCHEM_EXACT_MASS>
577.26890461
> <PUBCHEM_MOLECULAR_FORMULA>
C34H35N5O4
> <PUBCHEM_MOLECULAR_WEIGHT>
577.7
> <PUBCHEM_OPENEYE_CAN_SMILES>
CC1CN(CCN1C(=O)C(=O)C2=CNC3=C2C=CC=C3C(=O)N4CCN(CC4)CC5=CC=CC=C5)C(=O)C6=CC=CC=C6
> <PUBCHEM_OPENEYE_ISO_SMILES>
C[C@@H]1CN(CCN1C(=O)C(=O)C2=CNC3=C2C=CC=C3C(=O)N4CCN(CC4)CC5=CC=CC=C5)C(=O)C6=CC=CC=C6
> <PUBCHEM_CACTVS_TPSA>
97
> <PUBCHEM_MONOISOTOPIC_WEIGHT>
577.26890461
> <PUBCHEM_TOTAL_CHARGE>
0
> <PUBCHEM_HEAVY_ATOM_COUNT>
43
> <PUBCHEM_ATOM_DEF_STEREO_COUNT>
1
> <PUBCHEM_ATOM_UDEF_STEREO_COUNT>
0
> <PUBCHEM_BOND_DEF_STEREO_COUNT>
0
> <PUBCHEM_BOND_UDEF_STEREO_COUNT>
0
> <PUBCHEM_ISOTOPIC_ATOM_COUNT>
0
> <PUBCHEM_COMPONENT_COUNT>
1
> <PUBCHEM_CACTVS_TAUTO_COUNT>
-1
> <PUBCHEM_COORDINATE_TYPE>
1
5
255
> <PUBCHEM_BONDANNOTATIONS>
10  18  5
23  24  8
23  31  8
24  27  8
25  27  8
25  30  8
27  32  8
28  34  8
28  35  8
29  36  8
29  37  8
31  33  8
32  33  8
34  38  8
35  39  8
36  41  8
37  42  8
38  40  8
39  40  8
41  43  8
42  43  8
9  24  8
9  30  8
$$$$
