507854
  -OEChem-10302200282D
 57 61  0     1  0  0  0  0  0999 V2000
    2.8660    0.2062    0.0000 F   0  0  0  0  0  0  0  0  0  0  0  0
    6.6353   -0.5767    0.0000 O   0  0  0  0  0  0  0  0  0  0  0  0
    6.5422    4.7140    0.0000 O   0  0  0  0  0  0  0  0  0  0  0  0
    4.3211    0.7057    0.0000 O   0  0  0  0  0  0  0  0  0  0  0  0
    6.2781    1.1182    0.0000 N   0  0  0  0  0  0  0  0  0  0  0  0
    6.8994    3.0192    0.0000 N   0  0  0  0  0  0  0  0  0  0  0  0
    4.6783   -2.5986    0.0000 N   0  0  0  0  0  0  0  0  0  0  0  0
    3.6750   -4.3816    0.0000 N   0  0  0  0  0  0  0  0  0  0  0  0
    2.0570   -4.3816    0.0000 N   0  0  0  0  0  0  0  0  0  0  0  0
    3.3660   -5.3327    0.0000 N   0  0  0  0  0  0  0  0  0  0  0  0
    2.3660   -5.3327    0.0000 N   0  0  0  0  0  0  0  0  0  0  0  0
    7.2566    1.3244    0.0000 C   0  0  1  0  0  0  0  0  0  0  0  0
    7.5673    2.2749    0.0000 C   0  0  0  0  0  0  0  0  0  0  0  0
    5.6103    1.8625    0.0000 C   0  0  0  0  0  0  0  0  0  0  0  0
    5.9209    2.8130    0.0000 C   0  0  0  0  0  0  0  0  0  0  0  0
    7.9244    0.5801    0.0000 C   0  0  0  0  0  0  0  0  0  0  0  0
    5.9674    0.1676    0.0000 C   0  0  0  0  0  0  0  0  0  0  0  0
    7.2101    3.9697    0.0000 C   0  0  0  0  0  0  0  0  0  0  0  0
    4.9889   -0.0386    0.0000 C   0  0  0  0  0  0  0  0  0  0  0  0
    4.6783   -0.9891    0.0000 C   0  0  0  0  0  0  0  0  0  0  0  0
    8.1886    4.1759    0.0000 C   0  0  0  0  0  0  0  0  0  0  0  0
    3.7320   -1.2938    0.0000 C   0  0  0  0  0  0  0  0  0  0  0  0
    3.7320   -2.2938    0.0000 C   0  0  0  0  0  0  0  0  0  0  0  0
    5.2619   -1.7938    0.0000 C   0  0  0  0  0  0  0  0  0  0  0  0
    2.8660   -2.7938    0.0000 C   0  0  0  0  0  0  0  0  0  0  0  0
    2.8660   -0.7938    0.0000 C   0  0  0  0  0  0  0  0  0  0  0  0
    8.4993    5.1265    0.0000 C   0  0  0  0  0  0  0  0  0  0  0  0
    8.8564    3.4316    0.0000 C   0  0  0  0  0  0  0  0  0  0  0  0
    2.0000   -2.2938    0.0000 C   0  0  0  0  0  0  0  0  0  0  0  0
    2.0000   -1.2938    0.0000 C   0  0  0  0  0  0  0  0  0  0  0  0
    2.8660   -3.7938    0.0000 C   0  0  0  0  0  0  0  0  0  0  0  0
    9.4778    5.3327    0.0000 C   0  0  0  0  0  0  0  0  0  0  0  0
    9.8349    3.6378    0.0000 C   0  0  0  0  0  0  0  0  0  0  0  0
   10.1456    4.5884    0.0000 C   0  0  0  0  0  0  0  0  0  0  0  0
    4.6261   -4.0726    0.0000 C   0  0  0  0  0  0  0  0  0  0  0  0
    7.0640    0.7351    0.0000 H   0  0  0  0  0  0  0  0  0  0  0  0
    8.1142    1.9829    0.0000 H   0  0  0  0  0  0  0  0  0  0  0  0
    7.9498    2.7628    0.0000 H   0  0  0  0  0  0  0  0  0  0  0  0
    5.0633    2.1545    0.0000 H   0  0  0  0  0  0  0  0  0  0  0  0
    5.2277    1.3746    0.0000 H   0  0  0  0  0  0  0  0  0  0  0  0
    5.9004    3.4326    0.0000 H   0  0  0  0  0  0  0  0  0  0  0  0
    5.3071    2.9003    0.0000 H   0  0  0  0  0  0  0  0  0  0  0  0
    7.4630    0.1660    0.0000 H   0  0  0  0  0  0  0  0  0  0  0  0
    8.3385    0.1186    0.0000 H   0  0  0  0  0  0  0  0  0  0  0  0
    8.3859    0.9941    0.0000 H   0  0  0  0  0  0  0  0  0  0  0  0
    5.8819   -1.7938    0.0000 H   0  0  0  0  0  0  0  0  0  0  0  0
    4.8709   -3.1879    0.0000 H   0  0  0  0  0  0  0  0  0  0  0  0
    8.0852    5.5879    0.0000 H   0  0  0  0  0  0  0  0  0  0  0  0
    8.6638    2.8423    0.0000 H   0  0  0  0  0  0  0  0  0  0  0  0
    1.4631   -2.6038    0.0000 H   0  0  0  0  0  0  0  0  0  0  0  0
    1.4631   -0.9838    0.0000 H   0  0  0  0  0  0  0  0  0  0  0  0
    9.6704    5.9220    0.0000 H   0  0  0  0  0  0  0  0  0  0  0  0
   10.2490    3.1764    0.0000 H   0  0  0  0  0  0  0  0  0  0  0  0
   10.7523    4.7162    0.0000 H   0  0  0  0  0  0  0  0  0  0  0  0
    4.8177   -4.6623    0.0000 H   0  0  0  0  0  0  0  0  0  0  0  0
    5.2158   -3.8810    0.0000 H   0  0  0  0  0  0  0  0  0  0  0  0
    4.4345   -3.4830    0.0000 H   0  0  0  0  0  0  0  0  0  0  0  0
  1 26  1  0  0  0  0
  2 17  2  0  0  0  0
  3 18  2  0  0  0  0
  4 19  2  0  0  0  0
  5 12  1  0  0  0  0
  5 14  1  0  0  0  0
  5 17  1  0  0  0  0
  6 13  1  0  0  0  0
  6 15  1  0  0  0  0
  6 18  1  0  0  0  0
  7 23  1  0  0  0  0
  7 24  1  0  0  0  0
  7 47  1  0  0  0  0
  8 10  1  0  0  0  0
  8 31  1  0  0  0  0
  8 35  1  0  0  0  0
  9 11  1  0  0  0  0
  9 31  2  0  0  0  0
 10 11  2  0  0  0  0
 12 13  1  0  0  0  0
 12 16  1  1  0  0  0
 12 36  1  0  0  0  0
 13 37  1  0  0  0  0
 13 38  1  0  0  0  0
 14 15  1  0  0  0  0
 14 39  1  0  0  0  0
 14 40  1  0  0  0  0
 15 41  1  0  0  0  0
 15 42  1  0  0  0  0
 16 43  1  0  0  0  0
 16 44  1  0  0  0  0
 16 45  1  0  0  0  0
 17 19  1  0  0  0  0
 18 21  1  0  0  0  0
 19 20  1  0  0  0  0
 20 22  1  0  0  0  0
 20 24  2  0  0  0  0
 21 27  2  0  0  0  0
 21 28  1  0  0  0  0
 22 23  1  0  0  0  0
 22 26  2  0  0  0  0
 23 25  2  0  0  0  0
 24 46  1  0  0  0  0
 25 29  1  0  0  0  0
 25 31  1  0  0  0  0
 26 30  1  0  0  0  0
 27 32  1  0  0  0  0
 27 48  1  0  0  0  0
 28 33  2  0  0  0  0
 28 49  1  0  0  0  0
 29 30  2  0  0  0  0
 29 50  1  0  0  0  0
 30 51  1  0  0  0  0
 32 34  2  0  0  0  0
 32 52  1  0  0  0  0
 33 34  1  0  0  0  0
 33 53  1  0  0  0  0
 34 54  1  0  0  0  0
 35 55  1  0  0  0  0
 35 56  1  0  0  0  0
 35 57  1  0  0  0  0
M  END
> <PUBCHEM_COMPOUND_CID>
507854
> <PUBCHEM_COMPOUND_CANONICALIZED>
1
> <PUBCHEM_CACTVS_COMPLEXITY>
825
> <PUBCHEM_CACTVS_HBOND_ACCEPTOR>
7
> <PUBCHEM_CACTVS_HBOND_DONOR>
1
> <PUBCHEM_CACTVS_ROTATABLE_BOND>
4
> <PUBCHEM_CACTVS_SUBSKEYS>
AAADceB7sQAAAAAAAAAAAAAAAAAAAWLAAAA8YIAAAAAAAFgB/AAAHwAYAAAADCzBnww/0PfJkACqA7d3dACCgCM1gKAd2aGoRNiIYPrA1bGUIYhghgDIycccicCegAACAAACAAAAAAQAAAQAAAAAAAAAAA==
> <PUBCHEM_IUPAC_OPENEYE_NAME>
1-[(2R)-4-benzoyl-2-methyl-piperazin-1-yl]-2-[4-fluoro-7-(1-methyltetrazol-5-yl)-1H-indol-3-yl]ethane-1,2-dione
> <PUBCHEM_IUPAC_CAS_NAME>
1-[(2R)-4-benzoyl-2-methyl-1-piperazinyl]-2-[4-fluoro-7-(1-methyl-5-tetrazolyl)-1H-indol-3-yl]ethane-1,2-dione
> <PUBCHEM_IUPAC_NAME_MARKUP>
1-[(2<I>R</I>)-4-benzoyl-2-methylpiperazin-1-yl]-2-[4-fluoro-7-(1-methyltetrazol-5-yl)-1<I>H</I>-indol-3-yl]ethane-1,2-dione
> <PUBCHEM_IUPAC_NAME>
1-[(2R)-4-benzoyl-2-methylpiperazin-1-yl]-2-[4-fluoro-7-(1-methyltetrazol-5-yl)-1H-indol-3-yl]ethane-1,2-dione
> <PUBCHEM_IUPAC_SYSTEMATIC_NAME>
1-[4-fluoranyl-7-(1-methyl-1,2,3,4-tetrazol-5-yl)-1H-indol-3-yl]-2-[(2R)-2-methyl-4-(phenylcarbonyl)piperazin-1-yl]ethane-1,2-dione
> <PUBCHEM_IUPAC_TRADITIONAL_NAME>
1-[(2R)-4-benzoyl-2-methyl-piperazino]-2-[4-fluoro-7-(1-methyltetrazol-5-yl)-1H-indol-3-yl]ethane-1,2-dione
> <PUBCHEM_IUPAC_INCHI>
InChI=1S/C24H22FN7O3/c1-14-13-31(23(34)15-6-4-3-5-7-15)10-11-32(14)24(35)21(33)17-12-26-20-16(8-9-18(25)19(17)20)22-27-28-29-30(22)2/h3-9,12,14,26H,10-11,13H2,1-2H3/t14-/m1/s1
> <PUBCHEM_IUPAC_INCHIKEY>
XLNWMCFGGRYQMT-CQSZACIVSA-N
> <PUBCHEM_XLOGP3_AA>
2.2
> <PUBCHEM_EXACT_MASS>
475.17681575
> <PUBCHEM_MOLECULAR_FORMULA>
C24H22FN7O3
> <PUBCHEM_MOLECULAR_WEIGHT>
475.5
> <PUBCHEM_OPENEYE_CAN_SMILES>
CC1CN(CCN1C(=O)C(=O)C2=CNC3=C(C=CC(=C23)F)C4=NN=NN4C)C(=O)C5=CC=CC=C5
> <PUBCHEM_OPENEYE_ISO_SMILES>
C[C@@H]1CN(CCN1C(=O)C(=O)C2=CNC3=C(C=CC(=C23)F)C4=NN=NN4C)C(=O)C5=CC=CC=C5
> <PUBCHEM_CACTVS_TPSA>
117
> <PUBCHEM_MONOISOTOPIC_WEIGHT>
475.17681575
> <PUBCHEM_TOTAL_CHARGE>
0
> <PUBCHEM_HEAVY_ATOM_COUNT>
35
> <PUBCHEM_ATOM_DEF_STEREO_COUNT>
1
> <PUBCHEM_ATOM_UDEF_STEREO_COUNT>
0
> <PUBCHEM_BOND_DEF_STEREO_COUNT>
0
> <PUBCHEM_BOND_UDEF_STEREO_COUNT>
0
> <PUBCHEM_ISOTOPIC_ATOM_COUNT>
0
> <PUBCHEM_COMPONENT_COUNT>
1
> <PUBCHEM_CACTVS_TAUTO_COUNT>
-1
> <PUBCHEM_COORDINATE_TYPE>
1
5
255
> <PUBCHEM_BONDANNOTATIONS>
10  11  8
12  16  5
20  22  8
20  24  8
21  27  8
21  28  8
22  23  8
22  26  8
23  25  8
25  29  8
26  30  8
27  32  8
28  33  8
29  30  8
32  34  8
33  34  8
7  23  8
7  24  8
8  10  8
8  31  8
9  11  8
9  31  8
$$$$
