507867
  -OEChem-10302200282D
 54 58  0     1  0  0  0  0  0999 V2000
    2.8660    0.4570    0.0000 F   0  0  0  0  0  0  0  0  0  0  0  0
    6.6353   -0.3259    0.0000 O   0  0  0  0  0  0  0  0  0  0  0  0
    6.5422    4.9648    0.0000 O   0  0  0  0  0  0  0  0  0  0  0  0
    4.3211    0.9565    0.0000 O   0  0  0  0  0  0  0  0  0  0  0  0
    6.2781    1.3689    0.0000 N   0  0  0  0  0  0  0  0  0  0  0  0
    6.8994    3.2700    0.0000 N   0  0  0  0  0  0  0  0  0  0  0  0
    4.6783   -2.3478    0.0000 N   0  0  0  0  0  0  0  0  0  0  0  0
    2.0570   -4.1308    0.0000 N   0  0  0  0  0  0  0  0  0  0  0  0
    3.6750   -4.1308    0.0000 N   0  0  0  0  0  0  0  0  0  0  0  0
    2.3660   -5.0819    0.0000 N   0  0  0  0  0  0  0  0  0  0  0  0
    3.3660   -5.0819    0.0000 N   0  0  0  0  0  0  0  0  0  0  0  0
    7.2566    1.5752    0.0000 C   0  0  1  0  0  0  0  0  0  0  0  0
    7.5673    2.5257    0.0000 C   0  0  0  0  0  0  0  0  0  0  0  0
    5.6103    2.1132    0.0000 C   0  0  0  0  0  0  0  0  0  0  0  0
    5.9209    3.0638    0.0000 C   0  0  0  0  0  0  0  0  0  0  0  0
    7.9244    0.8309    0.0000 C   0  0  0  0  0  0  0  0  0  0  0  0
    5.9674    0.4184    0.0000 C   0  0  0  0  0  0  0  0  0  0  0  0
    7.2101    4.2205    0.0000 C   0  0  0  0  0  0  0  0  0  0  0  0
    4.9889    0.2122    0.0000 C   0  0  0  0  0  0  0  0  0  0  0  0
    4.6783   -0.7383    0.0000 C   0  0  0  0  0  0  0  0  0  0  0  0
    8.1886    4.4267    0.0000 C   0  0  0  0  0  0  0  0  0  0  0  0
    3.7320   -1.0430    0.0000 C   0  0  0  0  0  0  0  0  0  0  0  0
    3.7320   -2.0430    0.0000 C   0  0  0  0  0  0  0  0  0  0  0  0
    5.2619   -1.5430    0.0000 C   0  0  0  0  0  0  0  0  0  0  0  0
    2.8660   -2.5430    0.0000 C   0  0  0  0  0  0  0  0  0  0  0  0
    2.8660   -0.5430    0.0000 C   0  0  0  0  0  0  0  0  0  0  0  0
    8.4993    5.3772    0.0000 C   0  0  0  0  0  0  0  0  0  0  0  0
    8.8564    3.6824    0.0000 C   0  0  0  0  0  0  0  0  0  0  0  0
    2.0000   -2.0430    0.0000 C   0  0  0  0  0  0  0  0  0  0  0  0
    2.0000   -1.0430    0.0000 C   0  0  0  0  0  0  0  0  0  0  0  0
    9.4778    5.5835    0.0000 C   0  0  0  0  0  0  0  0  0  0  0  0
    9.8349    3.8886    0.0000 C   0  0  0  0  0  0  0  0  0  0  0  0
    2.8660   -3.5430    0.0000 C   0  0  0  0  0  0  0  0  0  0  0  0
   10.1456    4.8392    0.0000 C   0  0  0  0  0  0  0  0  0  0  0  0
    7.0640    0.9858    0.0000 H   0  0  0  0  0  0  0  0  0  0  0  0
    8.1142    2.2337    0.0000 H   0  0  0  0  0  0  0  0  0  0  0  0
    7.9498    3.0136    0.0000 H   0  0  0  0  0  0  0  0  0  0  0  0
    5.0633    2.4053    0.0000 H   0  0  0  0  0  0  0  0  0  0  0  0
    5.2277    1.6254    0.0000 H   0  0  0  0  0  0  0  0  0  0  0  0
    5.9004    3.6834    0.0000 H   0  0  0  0  0  0  0  0  0  0  0  0
    5.3071    3.1511    0.0000 H   0  0  0  0  0  0  0  0  0  0  0  0
    7.4630    0.4168    0.0000 H   0  0  0  0  0  0  0  0  0  0  0  0
    8.3385    0.3694    0.0000 H   0  0  0  0  0  0  0  0  0  0  0  0
    8.3859    1.2449    0.0000 H   0  0  0  0  0  0  0  0  0  0  0  0
    5.8819   -1.5430    0.0000 H   0  0  0  0  0  0  0  0  0  0  0  0
    4.8709   -2.9371    0.0000 H   0  0  0  0  0  0  0  0  0  0  0  0
    8.0852    5.8387    0.0000 H   0  0  0  0  0  0  0  0  0  0  0  0
    8.6638    3.0931    0.0000 H   0  0  0  0  0  0  0  0  0  0  0  0
    1.4631   -2.3530    0.0000 H   0  0  0  0  0  0  0  0  0  0  0  0
    1.4631   -0.7330    0.0000 H   0  0  0  0  0  0  0  0  0  0  0  0
    9.6704    6.1728    0.0000 H   0  0  0  0  0  0  0  0  0  0  0  0
   10.2490    3.4272    0.0000 H   0  0  0  0  0  0  0  0  0  0  0  0
   10.7523    4.9670    0.0000 H   0  0  0  0  0  0  0  0  0  0  0  0
    2.0016   -5.5835    0.0000 H   0  0  0  0  0  0  0  0  0  0  0  0
  1 26  1  0  0  0  0
  2 17  2  0  0  0  0
  3 18  2  0  0  0  0
  4 19  2  0  0  0  0
  5 12  1  0  0  0  0
  5 14  1  0  0  0  0
  5 17  1  0  0  0  0
  6 13  1  0  0  0  0
  6 15  1  0  0  0  0
  6 18  1  0  0  0  0
  7 23  1  0  0  0  0
  7 24  1  0  0  0  0
  7 46  1  0  0  0  0
  8 10  1  0  0  0  0
  8 33  2  0  0  0  0
  9 11  2  0  0  0  0
  9 33  1  0  0  0  0
 10 11  1  0  0  0  0
 10 54  1  0  0  0  0
 12 13  1  0  0  0  0
 12 16  1  1  0  0  0
 12 35  1  0  0  0  0
 13 36  1  0  0  0  0
 13 37  1  0  0  0  0
 14 15  1  0  0  0  0
 14 38  1  0  0  0  0
 14 39  1  0  0  0  0
 15 40  1  0  0  0  0
 15 41  1  0  0  0  0
 16 42  1  0  0  0  0
 16 43  1  0  0  0  0
 16 44  1  0  0  0  0
 17 19  1  0  0  0  0
 18 21  1  0  0  0  0
 19 20  1  0  0  0  0
 20 22  1  0  0  0  0
 20 24  2  0  0  0  0
 21 27  2  0  0  0  0
 21 28  1  0  0  0  0
 22 23  1  0  0  0  0
 22 26  2  0  0  0  0
 23 25  2  0  0  0  0
 24 45  1  0  0  0  0
 25 29  1  0  0  0  0
 25 33  1  0  0  0  0
 26 30  1  0  0  0  0
 27 31  1  0  0  0  0
 27 47  1  0  0  0  0
 28 32  2  0  0  0  0
 28 48  1  0  0  0  0
 29 30  2  0  0  0  0
 29 49  1  0  0  0  0
 30 50  1  0  0  0  0
 31 34  2  0  0  0  0
 31 51  1  0  0  0  0
 32 34  1  0  0  0  0
 32 52  1  0  0  0  0
 34 53  1  0  0  0  0
M  END
> <PUBCHEM_COMPOUND_CID>
507867
> <PUBCHEM_COMPOUND_CANONICALIZED>
1
> <PUBCHEM_CACTVS_COMPLEXITY>
795
> <PUBCHEM_CACTVS_HBOND_ACCEPTOR>
7
> <PUBCHEM_CACTVS_HBOND_DONOR>
2
> <PUBCHEM_CACTVS_ROTATABLE_BOND>
4
> <PUBCHEM_CACTVS_SUBSKEYS>
AAADceB7sQAAAAAAAAAAAAAAAAAAAWLAAAA8YIAAAAAAAFgB/AAAHwAYAAAADCzBnww/0PfLkACqA7d3dACCgCI1ACAc+aGoRNgIYPrA1bGUIYhghgDIycccicCegAACAAACAAAAAAQAAAQAAAAAAAAAAA==
> <PUBCHEM_IUPAC_OPENEYE_NAME>
1-[(2R)-4-benzoyl-2-methyl-piperazin-1-yl]-2-[4-fluoro-7-(2H-tetrazol-5-yl)-1H-indol-3-yl]ethane-1,2-dione
> <PUBCHEM_IUPAC_CAS_NAME>
1-[(2R)-4-benzoyl-2-methyl-1-piperazinyl]-2-[4-fluoro-7-(2H-tetrazol-5-yl)-1H-indol-3-yl]ethane-1,2-dione
> <PUBCHEM_IUPAC_NAME_MARKUP>
1-[(2<I>R</I>)-4-benzoyl-2-methylpiperazin-1-yl]-2-[4-fluoro-7-(2<I>H</I>-tetrazol-5-yl)-1<I>H</I>-indol-3-yl]ethane-1,2-dione
> <PUBCHEM_IUPAC_NAME>
1-[(2R)-4-benzoyl-2-methylpiperazin-1-yl]-2-[4-fluoro-7-(2H-tetrazol-5-yl)-1H-indol-3-yl]ethane-1,2-dione
> <PUBCHEM_IUPAC_SYSTEMATIC_NAME>
1-[4-fluoranyl-7-(2H-1,2,3,4-tetrazol-5-yl)-1H-indol-3-yl]-2-[(2R)-2-methyl-4-(phenylcarbonyl)piperazin-1-yl]ethane-1,2-dione
> <PUBCHEM_IUPAC_TRADITIONAL_NAME>
1-[(2R)-4-benzoyl-2-methyl-piperazino]-2-[4-fluoro-7-(2H-tetrazol-5-yl)-1H-indol-3-yl]ethane-1,2-dione
> <PUBCHEM_IUPAC_INCHI>
InChI=1S/C23H20FN7O3/c1-13-12-30(22(33)14-5-3-2-4-6-14)9-10-31(13)23(34)20(32)16-11-25-19-15(21-26-28-29-27-21)7-8-17(24)18(16)19/h2-8,11,13,25H,9-10,12H2,1H3,(H,26,27,28,29)/t13-/m1/s1
> <PUBCHEM_IUPAC_INCHIKEY>
RUEYNMXBYOCGRS-CYBMUJFWSA-N
> <PUBCHEM_XLOGP3_AA>
2.1
> <PUBCHEM_EXACT_MASS>
461.16116569
> <PUBCHEM_MOLECULAR_FORMULA>
C23H20FN7O3
> <PUBCHEM_MOLECULAR_WEIGHT>
461.4
> <PUBCHEM_OPENEYE_CAN_SMILES>
CC1CN(CCN1C(=O)C(=O)C2=CNC3=C(C=CC(=C23)F)C4=NNN=N4)C(=O)C5=CC=CC=C5
> <PUBCHEM_OPENEYE_ISO_SMILES>
C[C@@H]1CN(CCN1C(=O)C(=O)C2=CNC3=C(C=CC(=C23)F)C4=NNN=N4)C(=O)C5=CC=CC=C5
> <PUBCHEM_CACTVS_TPSA>
128
> <PUBCHEM_MONOISOTOPIC_WEIGHT>
461.16116569
> <PUBCHEM_TOTAL_CHARGE>
0
> <PUBCHEM_HEAVY_ATOM_COUNT>
34
> <PUBCHEM_ATOM_DEF_STEREO_COUNT>
1
> <PUBCHEM_ATOM_UDEF_STEREO_COUNT>
0
> <PUBCHEM_BOND_DEF_STEREO_COUNT>
0
> <PUBCHEM_BOND_UDEF_STEREO_COUNT>
0
> <PUBCHEM_ISOTOPIC_ATOM_COUNT>
0
> <PUBCHEM_COMPONENT_COUNT>
1
> <PUBCHEM_CACTVS_TAUTO_COUNT>
-1
> <PUBCHEM_COORDINATE_TYPE>
1
5
255
> <PUBCHEM_BONDANNOTATIONS>
10  11  8
12  16  5
20  22  8
20  24  8
21  27  8
21  28  8
22  23  8
22  26  8
23  25  8
25  29  8
26  30  8
27  31  8
28  32  8
29  30  8
31  34  8
32  34  8
7  23  8
7  24  8
8  10  8
8  33  8
9  11  8
9  33  8
$$$$
