507876
  -OEChem-10302200282D
 56 59  0     1  0  0  0  0  0999 V2000
    7.1722   -0.5961    0.0000 O   0  0  0  0  0  0  0  0  0  0  0  0
    7.0792    4.6946    0.0000 O   0  0  0  0  0  0  0  0  0  0  0  0
    4.8580    0.6863    0.0000 O   0  0  0  0  0  0  0  0  0  0  0  0
    4.2690   -4.3133    0.0000 O   0  0  0  0  0  0  0  0  0  0  0  0
    6.8150    1.0987    0.0000 N   0  0  0  0  0  0  0  0  0  0  0  0
    7.4364    2.9998    0.0000 N   0  0  0  0  0  0  0  0  0  0  0  0
    5.2152   -2.6180    0.0000 N   0  0  0  0  0  0  0  0  0  0  0  0
    2.5369   -4.3133    0.0000 N   0  0  0  0  0  0  0  0  0  0  0  0
    7.7935    1.3050    0.0000 C   0  0  1  0  0  0  0  0  0  0  0  0
    8.1042    2.2555    0.0000 C   0  0  0  0  0  0  0  0  0  0  0  0
    6.1472    1.8430    0.0000 C   0  0  0  0  0  0  0  0  0  0  0  0
    6.4579    2.7936    0.0000 C   0  0  0  0  0  0  0  0  0  0  0  0
    8.4614    0.5607    0.0000 C   0  0  0  0  0  0  0  0  0  0  0  0
    6.5044    0.1482    0.0000 C   0  0  0  0  0  0  0  0  0  0  0  0
    7.7470    3.9503    0.0000 C   0  0  0  0  0  0  0  0  0  0  0  0
    5.5259   -0.0580    0.0000 C   0  0  0  0  0  0  0  0  0  0  0  0
    5.2152   -1.0085    0.0000 C   0  0  0  0  0  0  0  0  0  0  0  0
    8.7255    4.1565    0.0000 C   0  0  0  0  0  0  0  0  0  0  0  0
    4.2690   -1.3133    0.0000 C   0  0  0  0  0  0  0  0  0  0  0  0
    4.2690   -2.3133    0.0000 C   0  0  0  0  0  0  0  0  0  0  0  0
    5.7988   -1.8133    0.0000 C   0  0  0  0  0  0  0  0  0  0  0  0
    3.4030   -2.8133    0.0000 C   0  0  0  0  0  0  0  0  0  0  0  0
    9.0362    5.1070    0.0000 C   0  0  0  0  0  0  0  0  0  0  0  0
    9.3934    3.4122    0.0000 C   0  0  0  0  0  0  0  0  0  0  0  0
    3.4030   -0.8133    0.0000 C   0  0  0  0  0  0  0  0  0  0  0  0
    2.5369   -2.3133    0.0000 C   0  0  0  0  0  0  0  0  0  0  0  0
    2.5369   -1.3133    0.0000 C   0  0  0  0  0  0  0  0  0  0  0  0
   10.0147    5.3133    0.0000 C   0  0  0  0  0  0  0  0  0  0  0  0
   10.3719    3.6184    0.0000 C   0  0  0  0  0  0  0  0  0  0  0  0
    3.4030   -3.8133    0.0000 C   0  0  0  0  0  0  0  0  0  0  0  0
   10.6825    4.5690    0.0000 C   0  0  0  0  0  0  0  0  0  0  0  0
    2.5369   -5.3133    0.0000 C   0  0  0  0  0  0  0  0  0  0  0  0
    7.6009    0.7156    0.0000 H   0  0  0  0  0  0  0  0  0  0  0  0
    8.6511    1.9635    0.0000 H   0  0  0  0  0  0  0  0  0  0  0  0
    8.4868    2.7434    0.0000 H   0  0  0  0  0  0  0  0  0  0  0  0
    5.6003    2.1351    0.0000 H   0  0  0  0  0  0  0  0  0  0  0  0
    5.7646    1.3551    0.0000 H   0  0  0  0  0  0  0  0  0  0  0  0
    6.4373    3.4132    0.0000 H   0  0  0  0  0  0  0  0  0  0  0  0
    5.8440    2.8809    0.0000 H   0  0  0  0  0  0  0  0  0  0  0  0
    7.9999    0.1466    0.0000 H   0  0  0  0  0  0  0  0  0  0  0  0
    8.8754    0.0992    0.0000 H   0  0  0  0  0  0  0  0  0  0  0  0
    8.9228    0.9747    0.0000 H   0  0  0  0  0  0  0  0  0  0  0  0
    6.4188   -1.8133    0.0000 H   0  0  0  0  0  0  0  0  0  0  0  0
    5.4078   -3.2073    0.0000 H   0  0  0  0  0  0  0  0  0  0  0  0
    3.4030   -0.1933    0.0000 H   0  0  0  0  0  0  0  0  0  0  0  0
    8.6221    5.5685    0.0000 H   0  0  0  0  0  0  0  0  0  0  0  0
    9.2008    2.8229    0.0000 H   0  0  0  0  0  0  0  0  0  0  0  0
    2.0000   -2.6233    0.0000 H   0  0  0  0  0  0  0  0  0  0  0  0
    2.0000   -1.0033    0.0000 H   0  0  0  0  0  0  0  0  0  0  0  0
   10.2073    5.9026    0.0000 H   0  0  0  0  0  0  0  0  0  0  0  0
   10.7859    3.1570    0.0000 H   0  0  0  0  0  0  0  0  0  0  0  0
   11.2892    4.6968    0.0000 H   0  0  0  0  0  0  0  0  0  0  0  0
    2.0000   -4.0033    0.0000 H   0  0  0  0  0  0  0  0  0  0  0  0
    1.9169   -5.3133    0.0000 H   0  0  0  0  0  0  0  0  0  0  0  0
    2.5369   -5.9333    0.0000 H   0  0  0  0  0  0  0  0  0  0  0  0
    3.1569   -5.3133    0.0000 H   0  0  0  0  0  0  0  0  0  0  0  0
  1 14  2  0  0  0  0
  2 15  2  0  0  0  0
  3 16  2  0  0  0  0
  4 30  2  0  0  0  0
  5  9  1  0  0  0  0
  5 11  1  0  0  0  0
  5 14  1  0  0  0  0
  6 10  1  0  0  0  0
  6 12  1  0  0  0  0
  6 15  1  0  0  0  0
  7 20  1  0  0  0  0
  7 21  1  0  0  0  0
  7 44  1  0  0  0  0
  8 30  1  0  0  0  0
  8 32  1  0  0  0  0
  8 53  1  0  0  0  0
  9 10  1  0  0  0  0
  9 13  1  1  0  0  0
  9 33  1  0  0  0  0
 10 34  1  0  0  0  0
 10 35  1  0  0  0  0
 11 12  1  0  0  0  0
 11 36  1  0  0  0  0
 11 37  1  0  0  0  0
 12 38  1  0  0  0  0
 12 39  1  0  0  0  0
 13 40  1  0  0  0  0
 13 41  1  0  0  0  0
 13 42  1  0  0  0  0
 14 16  1  0  0  0  0
 15 18  1  0  0  0  0
 16 17  1  0  0  0  0
 17 19  1  0  0  0  0
 17 21  2  0  0  0  0
 18 23  2  0  0  0  0
 18 24  1  0  0  0  0
 19 20  2  0  0  0  0
 19 25  1  0  0  0  0
 20 22  1  0  0  0  0
 21 43  1  0  0  0  0
 22 26  2  0  0  0  0
 22 30  1  0  0  0  0
 23 28  1  0  0  0  0
 23 46  1  0  0  0  0
 24 29  2  0  0  0  0
 24 47  1  0  0  0  0
 25 27  2  0  0  0  0
 25 45  1  0  0  0  0
 26 27  1  0  0  0  0
 26 48  1  0  0  0  0
 27 49  1  0  0  0  0
 28 31  2  0  0  0  0
 28 50  1  0  0  0  0
 29 31  1  0  0  0  0
 29 51  1  0  0  0  0
 31 52  1  0  0  0  0
 32 54  1  0  0  0  0
 32 55  1  0  0  0  0
 32 56  1  0  0  0  0
M  END
> <PUBCHEM_COMPOUND_CID>
507876
> <PUBCHEM_COMPOUND_CANONICALIZED>
1
> <PUBCHEM_CACTVS_COMPLEXITY>
750
> <PUBCHEM_CACTVS_HBOND_ACCEPTOR>
4
> <PUBCHEM_CACTVS_HBOND_DONOR>
2
> <PUBCHEM_CACTVS_ROTATABLE_BOND>
4
> <PUBCHEM_CACTVS_SUBSKEYS>
AAADceB7uAAAAAAAAAAAAAAAAAAAAWAAAAA8YIAAAAAAAFgB9AAAHgAQAAAADCzBngQ+wPPJkACoA7V3VACCgCA1ACAI2aGoRNgIYPrA1bGUIYhghgDIycccicCegAACAAACAAAAAAQAAAQAAAAAAAAAAA==
> <PUBCHEM_IUPAC_OPENEYE_NAME>
3-[2-[(2R)-4-benzoyl-2-methyl-piperazin-1-yl]-2-oxo-acetyl]-N-methyl-1H-indole-7-carboxamide
> <PUBCHEM_IUPAC_CAS_NAME>
3-[2-[(2R)-4-benzoyl-2-methyl-1-piperazinyl]-1,2-dioxoethyl]-N-methyl-1H-indole-7-carboxamide
> <PUBCHEM_IUPAC_NAME_MARKUP>
3-[2-[(2<I>R</I>)-4-benzoyl-2-methylpiperazin-1-yl]-2-oxoacetyl]-<I>N</I>-methyl-1<I>H</I>-indole-7-carboxamide
> <PUBCHEM_IUPAC_NAME>
3-[2-[(2R)-4-benzoyl-2-methylpiperazin-1-yl]-2-oxoacetyl]-N-methyl-1H-indole-7-carboxamide
> <PUBCHEM_IUPAC_SYSTEMATIC_NAME>
N-methyl-3-[2-[(2R)-2-methyl-4-(phenylcarbonyl)piperazin-1-yl]-2-oxidanylidene-ethanoyl]-1H-indole-7-carboxamide
> <PUBCHEM_IUPAC_TRADITIONAL_NAME>
3-[2-[(2R)-4-benzoyl-2-methyl-piperazino]-2-keto-acetyl]-N-methyl-1H-indole-7-carboxamide
> <PUBCHEM_IUPAC_INCHI>
InChI=1S/C24H24N4O4/c1-15-14-27(23(31)16-7-4-3-5-8-16)11-12-28(15)24(32)21(29)19-13-26-20-17(19)9-6-10-18(20)22(30)25-2/h3-10,13,15,26H,11-12,14H2,1-2H3,(H,25,30)/t15-/m1/s1
> <PUBCHEM_IUPAC_INCHIKEY>
RQJBSXZOJPHZKA-OAHLLOKOSA-N
> <PUBCHEM_XLOGP3_AA>
2
> <PUBCHEM_EXACT_MASS>
432.17975526
> <PUBCHEM_MOLECULAR_FORMULA>
C24H24N4O4
> <PUBCHEM_MOLECULAR_WEIGHT>
432.5
> <PUBCHEM_OPENEYE_CAN_SMILES>
CC1CN(CCN1C(=O)C(=O)C2=CNC3=C2C=CC=C3C(=O)NC)C(=O)C4=CC=CC=C4
> <PUBCHEM_OPENEYE_ISO_SMILES>
C[C@@H]1CN(CCN1C(=O)C(=O)C2=CNC3=C2C=CC=C3C(=O)NC)C(=O)C4=CC=CC=C4
> <PUBCHEM_CACTVS_TPSA>
103
> <PUBCHEM_MONOISOTOPIC_WEIGHT>
432.17975526
> <PUBCHEM_TOTAL_CHARGE>
0
> <PUBCHEM_HEAVY_ATOM_COUNT>
32
> <PUBCHEM_ATOM_DEF_STEREO_COUNT>
1
> <PUBCHEM_ATOM_UDEF_STEREO_COUNT>
0
> <PUBCHEM_BOND_DEF_STEREO_COUNT>
0
> <PUBCHEM_BOND_UDEF_STEREO_COUNT>
0
> <PUBCHEM_ISOTOPIC_ATOM_COUNT>
0
> <PUBCHEM_COMPONENT_COUNT>
1
> <PUBCHEM_CACTVS_TAUTO_COUNT>
-1
> <PUBCHEM_COORDINATE_TYPE>
1
5
255
> <PUBCHEM_BONDANNOTATIONS>
17  19  8
17  21  8
18  23  8
18  24  8
19  20  8
19  25  8
20  22  8
22  26  8
23  28  8
24  29  8
25  27  8
26  27  8
28  31  8
29  31  8
7  20  8
7  21  8
9  13  5
$$$$
