507926
  -OEChem-10302200282D
 72 76  0     1  0  0  0  0  0999 V2000
    4.5981    1.9367    0.0000 F   0  0  0  0  0  0  0  0  0  0  0  0
    2.8660   -7.0633    0.0000 O   0  0  0  0  0  0  0  0  0  0  0  0
    8.3673    1.1539    0.0000 O   0  0  0  0  0  0  0  0  0  0  0  0
    8.2743    6.4446    0.0000 O   0  0  0  0  0  0  0  0  0  0  0  0
    6.0531    2.4363    0.0000 O   0  0  0  0  0  0  0  0  0  0  0  0
    5.4641   -2.5633    0.0000 O   0  0  0  0  0  0  0  0  0  0  0  0
    8.0102    2.8487    0.0000 N   0  0  0  0  0  0  0  0  0  0  0  0
    8.6315    4.7498    0.0000 N   0  0  0  0  0  0  0  0  0  0  0  0
    2.8660   -5.0633    0.0000 N   0  0  0  0  0  0  0  0  0  0  0  0
    6.4103   -0.8680    0.0000 N   0  0  0  0  0  0  0  0  0  0  0  0
    3.7320   -2.5633    0.0000 N   0  0  0  0  0  0  0  0  0  0  0  0
    8.9887    3.0550    0.0000 C   0  0  1  0  0  0  0  0  0  0  0  0
    9.2993    4.0055    0.0000 C   0  0  0  0  0  0  0  0  0  0  0  0
    7.3423    3.5930    0.0000 C   0  0  0  0  0  0  0  0  0  0  0  0
    7.6530    4.5436    0.0000 C   0  0  0  0  0  0  0  0  0  0  0  0
    9.6565    2.3106    0.0000 C   0  0  0  0  0  0  0  0  0  0  0  0
    7.6995    1.8982    0.0000 C   0  0  0  0  0  0  0  0  0  0  0  0
    8.9421    5.7003    0.0000 C   0  0  0  0  0  0  0  0  0  0  0  0
    6.7210    1.6920    0.0000 C   0  0  0  0  0  0  0  0  0  0  0  0
    2.0000   -5.5633    0.0000 C   0  0  0  0  0  0  0  0  0  0  0  0
    3.7320   -5.5633    0.0000 C   0  0  0  0  0  0  0  0  0  0  0  0
    2.8660   -4.0633    0.0000 C   0  0  0  0  0  0  0  0  0  0  0  0
    6.4103    0.7415    0.0000 C   0  0  0  0  0  0  0  0  0  0  0  0
    9.9206    5.9065    0.0000 C   0  0  0  0  0  0  0  0  0  0  0  0
    5.4641    0.4367    0.0000 C   0  0  0  0  0  0  0  0  0  0  0  0
    2.0000   -6.5633    0.0000 C   0  0  0  0  0  0  0  0  0  0  0  0
    3.7320   -6.5633    0.0000 C   0  0  0  0  0  0  0  0  0  0  0  0
    3.7320   -3.5633    0.0000 C   0  0  0  0  0  0  0  0  0  0  0  0
    5.4641   -0.5633    0.0000 C   0  0  0  0  0  0  0  0  0  0  0  0
    6.9939   -0.0633    0.0000 C   0  0  0  0  0  0  0  0  0  0  0  0
    4.5981   -1.0633    0.0000 C   0  0  0  0  0  0  0  0  0  0  0  0
    4.5981    0.9367    0.0000 C   0  0  0  0  0  0  0  0  0  0  0  0
    4.5981   -2.0633    0.0000 C   0  0  0  0  0  0  0  0  0  0  0  0
   10.2313    6.8570    0.0000 C   0  0  0  0  0  0  0  0  0  0  0  0
   10.5885    5.1622    0.0000 C   0  0  0  0  0  0  0  0  0  0  0  0
    3.7320   -0.5633    0.0000 C   0  0  0  0  0  0  0  0  0  0  0  0
    3.7320    0.4367    0.0000 C   0  0  0  0  0  0  0  0  0  0  0  0
   11.2098    7.0633    0.0000 C   0  0  0  0  0  0  0  0  0  0  0  0
   11.5670    5.3684    0.0000 C   0  0  0  0  0  0  0  0  0  0  0  0
   11.8777    6.3190    0.0000 C   0  0  0  0  0  0  0  0  0  0  0  0
    8.7960    2.4656    0.0000 H   0  0  0  0  0  0  0  0  0  0  0  0
    9.8462    3.7135    0.0000 H   0  0  0  0  0  0  0  0  0  0  0  0
    9.6819    4.4934    0.0000 H   0  0  0  0  0  0  0  0  0  0  0  0
    6.7954    3.8851    0.0000 H   0  0  0  0  0  0  0  0  0  0  0  0
    6.9598    3.1051    0.0000 H   0  0  0  0  0  0  0  0  0  0  0  0
    7.6324    5.1632    0.0000 H   0  0  0  0  0  0  0  0  0  0  0  0
    7.0392    4.6309    0.0000 H   0  0  0  0  0  0  0  0  0  0  0  0
    9.1950    1.8966    0.0000 H   0  0  0  0  0  0  0  0  0  0  0  0
   10.0706    1.8492    0.0000 H   0  0  0  0  0  0  0  0  0  0  0  0
   10.1180    2.7247    0.0000 H   0  0  0  0  0  0  0  0  0  0  0  0
    1.7880   -4.9806    0.0000 H   0  0  0  0  0  0  0  0  0  0  0  0
    1.3894   -5.6709    0.0000 H   0  0  0  0  0  0  0  0  0  0  0  0
    4.3426   -5.6709    0.0000 H   0  0  0  0  0  0  0  0  0  0  0  0
    3.9441   -4.9806    0.0000 H   0  0  0  0  0  0  0  0  0  0  0  0
    2.6540   -3.4806    0.0000 H   0  0  0  0  0  0  0  0  0  0  0  0
    2.2554   -4.1709    0.0000 H   0  0  0  0  0  0  0  0  0  0  0  0
    1.3894   -6.4556    0.0000 H   0  0  0  0  0  0  0  0  0  0  0  0
    1.7880   -7.1459    0.0000 H   0  0  0  0  0  0  0  0  0  0  0  0
    3.9441   -7.1459    0.0000 H   0  0  0  0  0  0  0  0  0  0  0  0
    4.3426   -6.4556    0.0000 H   0  0  0  0  0  0  0  0  0  0  0  0
    3.9441   -4.1459    0.0000 H   0  0  0  0  0  0  0  0  0  0  0  0
    4.3426   -3.4556    0.0000 H   0  0  0  0  0  0  0  0  0  0  0  0
    7.6139   -0.0633    0.0000 H   0  0  0  0  0  0  0  0  0  0  0  0
    6.6029   -1.4573    0.0000 H   0  0  0  0  0  0  0  0  0  0  0  0
    3.1951   -2.2533    0.0000 H   0  0  0  0  0  0  0  0  0  0  0  0
    9.8172    7.3185    0.0000 H   0  0  0  0  0  0  0  0  0  0  0  0
   10.3959    4.5729    0.0000 H   0  0  0  0  0  0  0  0  0  0  0  0
    3.1951   -0.8733    0.0000 H   0  0  0  0  0  0  0  0  0  0  0  0
    3.1951    0.7467    0.0000 H   0  0  0  0  0  0  0  0  0  0  0  0
   11.4024    7.6526    0.0000 H   0  0  0  0  0  0  0  0  0  0  0  0
   11.9811    4.9070    0.0000 H   0  0  0  0  0  0  0  0  0  0  0  0
   12.4843    6.4468    0.0000 H   0  0  0  0  0  0  0  0  0  0  0  0
  1 32  1  0  0  0  0
  2 26  1  0  0  0  0
  2 27  1  0  0  0  0
  3 17  2  0  0  0  0
  4 18  2  0  0  0  0
  5 19  2  0  0  0  0
  6 33  2  0  0  0  0
  7 12  1  0  0  0  0
  7 14  1  0  0  0  0
  7 17  1  0  0  0  0
  8 13  1  0  0  0  0
  8 15  1  0  0  0  0
  8 18  1  0  0  0  0
  9 20  1  0  0  0  0
  9 21  1  0  0  0  0
  9 22  1  0  0  0  0
 10 29  1  0  0  0  0
 10 30  1  0  0  0  0
 10 64  1  0  0  0  0
 11 28  1  0  0  0  0
 11 33  1  0  0  0  0
 11 65  1  0  0  0  0
 12 13  1  0  0  0  0
 12 16  1  1  0  0  0
 12 41  1  0  0  0  0
 13 42  1  0  0  0  0
 13 43  1  0  0  0  0
 14 15  1  0  0  0  0
 14 44  1  0  0  0  0
 14 45  1  0  0  0  0
 15 46  1  0  0  0  0
 15 47  1  0  0  0  0
 16 48  1  0  0  0  0
 16 49  1  0  0  0  0
 16 50  1  0  0  0  0
 17 19  1  0  0  0  0
 18 24  1  0  0  0  0
 19 23  1  0  0  0  0
 20 26  1  0  0  0  0
 20 51  1  0  0  0  0
 20 52  1  0  0  0  0
 21 27  1  0  0  0  0
 21 53  1  0  0  0  0
 21 54  1  0  0  0  0
 22 28  1  0  0  0  0
 22 55  1  0  0  0  0
 22 56  1  0  0  0  0
 23 25  1  0  0  0  0
 23 30  2  0  0  0  0
 24 34  2  0  0  0  0
 24 35  1  0  0  0  0
 25 29  1  0  0  0  0
 25 32  2  0  0  0  0
 26 57  1  0  0  0  0
 26 58  1  0  0  0  0
 27 59  1  0  0  0  0
 27 60  1  0  0  0  0
 28 61  1  0  0  0  0
 28 62  1  0  0  0  0
 29 31  2  0  0  0  0
 30 63  1  0  0  0  0
 31 33  1  0  0  0  0
 31 36  1  0  0  0  0
 32 37  1  0  0  0  0
 34 38  1  0  0  0  0
 34 66  1  0  0  0  0
 35 39  2  0  0  0  0
 35 67  1  0  0  0  0
 36 37  2  0  0  0  0
 36 68  1  0  0  0  0
 37 69  1  0  0  0  0
 38 40  2  0  0  0  0
 38 70  1  0  0  0  0
 39 40  1  0  0  0  0
 39 71  1  0  0  0  0
 40 72  1  0  0  0  0
M  END
> <PUBCHEM_COMPOUND_CID>
507926
> <PUBCHEM_COMPOUND_CANONICALIZED>
1
> <PUBCHEM_CACTVS_COMPLEXITY>
940
> <PUBCHEM_CACTVS_HBOND_ACCEPTOR>
7
> <PUBCHEM_CACTVS_HBOND_DONOR>
2
> <PUBCHEM_CACTVS_ROTATABLE_BOND>
7
> <PUBCHEM_CACTVS_SUBSKEYS>
AAADcfB7uQAAAAAAAAAAAAAAAAAAAWAAAAA8eIEAAAAAAFgB9AAAHwAQAAAADCzhng4+wPPJlACoA7V3VACCgCA1ACAI2aGoRNgKYPrA1bGXIYhglgDYycccicCegAACAAACAAAAAAQAAAQAAAAAAAAAAA==
> <PUBCHEM_IUPAC_OPENEYE_NAME>
3-[2-[(2R)-4-benzoyl-2-methyl-piperazin-1-yl]-2-oxo-acetyl]-4-fluoro-N-(2-morpholinoethyl)-1H-indole-7-carboxamide
> <PUBCHEM_IUPAC_CAS_NAME>
3-[2-[(2R)-4-benzoyl-2-methyl-1-piperazinyl]-1,2-dioxoethyl]-4-fluoro-N-[2-(4-morpholinyl)ethyl]-1H-indole-7-carboxamide
> <PUBCHEM_IUPAC_NAME_MARKUP>
3-[2-[(2<I>R</I>)-4-benzoyl-2-methylpiperazin-1-yl]-2-oxoacetyl]-4-fluoro-<I>N</I>-(2-morpholin-4-ylethyl)-1<I>H</I>-indole-7-carboxamide
> <PUBCHEM_IUPAC_NAME>
3-[2-[(2R)-4-benzoyl-2-methylpiperazin-1-yl]-2-oxoacetyl]-4-fluoro-N-(2-morpholin-4-ylethyl)-1H-indole-7-carboxamide
> <PUBCHEM_IUPAC_SYSTEMATIC_NAME>
4-fluoranyl-3-[2-[(2R)-2-methyl-4-(phenylcarbonyl)piperazin-1-yl]-2-oxidanylidene-ethanoyl]-N-(2-morpholin-4-ylethyl)-1H-indole-7-carboxamide
> <PUBCHEM_IUPAC_TRADITIONAL_NAME>
3-[2-[(2R)-4-benzoyl-2-methyl-piperazino]-2-keto-acetyl]-4-fluoro-N-(2-morpholinoethyl)-1H-indole-7-carboxamide
> <PUBCHEM_IUPAC_INCHI>
InChI=1S/C29H32FN5O5/c1-19-18-34(28(38)20-5-3-2-4-6-20)11-12-35(19)29(39)26(36)22-17-32-25-21(7-8-23(30)24(22)25)27(37)31-9-10-33-13-15-40-16-14-33/h2-8,17,19,32H,9-16,18H2,1H3,(H,31,37)/t19-/m1/s1
> <PUBCHEM_IUPAC_INCHIKEY>
OQJUKYVVUGNFHW-LJQANCHMSA-N
> <PUBCHEM_XLOGP3_AA>
1.8
> <PUBCHEM_EXACT_MASS>
549.23874730
> <PUBCHEM_MOLECULAR_FORMULA>
C29H32FN5O5
> <PUBCHEM_MOLECULAR_WEIGHT>
549.6
> <PUBCHEM_OPENEYE_CAN_SMILES>
CC1CN(CCN1C(=O)C(=O)C2=CNC3=C(C=CC(=C23)F)C(=O)NCCN4CCOCC4)C(=O)C5=CC=CC=C5
> <PUBCHEM_OPENEYE_ISO_SMILES>
C[C@@H]1CN(CCN1C(=O)C(=O)C2=CNC3=C(C=CC(=C23)F)C(=O)NCCN4CCOCC4)C(=O)C5=CC=CC=C5
> <PUBCHEM_CACTVS_TPSA>
115
> <PUBCHEM_MONOISOTOPIC_WEIGHT>
549.23874730
> <PUBCHEM_TOTAL_CHARGE>
0
> <PUBCHEM_HEAVY_ATOM_COUNT>
40
> <PUBCHEM_ATOM_DEF_STEREO_COUNT>
1
> <PUBCHEM_ATOM_UDEF_STEREO_COUNT>
0
> <PUBCHEM_BOND_DEF_STEREO_COUNT>
0
> <PUBCHEM_BOND_UDEF_STEREO_COUNT>
0
> <PUBCHEM_ISOTOPIC_ATOM_COUNT>
0
> <PUBCHEM_COMPONENT_COUNT>
1
> <PUBCHEM_CACTVS_TAUTO_COUNT>
-1
> <PUBCHEM_COORDINATE_TYPE>
1
5
255
> <PUBCHEM_BONDANNOTATIONS>
10  29  8
10  30  8
12  16  5
23  25  8
23  30  8
24  34  8
24  35  8
25  29  8
25  32  8
29  31  8
31  36  8
32  37  8
34  38  8
35  39  8
36  37  8
38  40  8
39  40  8
$$$$
