507954
  -OEChem-10302200282D
 54 57  0     1  0  0  0  0  0999 V2000
    3.4030    0.3417    0.0000 F   0  0  0  0  0  0  0  0  0  0  0  0
    7.1722   -0.4411    0.0000 O   0  0  0  0  0  0  0  0  0  0  0  0
    7.0792    4.8496    0.0000 O   0  0  0  0  0  0  0  0  0  0  0  0
    4.8580    0.8413    0.0000 O   0  0  0  0  0  0  0  0  0  0  0  0
    4.2690   -5.1583    0.0000 O   0  0  0  0  0  0  0  0  0  0  0  0
    6.8150    1.2537    0.0000 N   0  0  0  0  0  0  0  0  0  0  0  0
    7.4364    3.1548    0.0000 N   0  0  0  0  0  0  0  0  0  0  0  0
    5.2152   -2.4630    0.0000 N   0  0  0  0  0  0  0  0  0  0  0  0
    9.3934    3.5672    0.0000 N   0  0  0  0  0  0  0  0  0  0  0  0
    2.5369   -4.1583    0.0000 N   0  0  0  0  0  0  0  0  0  0  0  0
    4.2690   -4.1583    0.0000 N   0  0  0  0  0  0  0  0  0  0  0  0
    7.7935    1.4600    0.0000 C   0  0  1  0  0  0  0  0  0  0  0  0
    8.1042    2.4105    0.0000 C   0  0  0  0  0  0  0  0  0  0  0  0
    6.1472    1.9980    0.0000 C   0  0  0  0  0  0  0  0  0  0  0  0
    6.4579    2.9486    0.0000 C   0  0  0  0  0  0  0  0  0  0  0  0
    8.4614    0.7157    0.0000 C   0  0  0  0  0  0  0  0  0  0  0  0
    6.5044    0.3032    0.0000 C   0  0  0  0  0  0  0  0  0  0  0  0
    7.7470    4.1053    0.0000 C   0  0  0  0  0  0  0  0  0  0  0  0
    5.5259    0.0970    0.0000 C   0  0  0  0  0  0  0  0  0  0  0  0
    5.2152   -0.8535    0.0000 C   0  0  0  0  0  0  0  0  0  0  0  0
    4.2690   -1.1583    0.0000 C   0  0  0  0  0  0  0  0  0  0  0  0
    8.7255    4.3115    0.0000 C   0  0  0  0  0  0  0  0  0  0  0  0
    4.2690   -2.1583    0.0000 C   0  0  0  0  0  0  0  0  0  0  0  0
    5.7988   -1.6583    0.0000 C   0  0  0  0  0  0  0  0  0  0  0  0
    3.4030   -2.6583    0.0000 C   0  0  0  0  0  0  0  0  0  0  0  0
    3.4030   -0.6583    0.0000 C   0  0  0  0  0  0  0  0  0  0  0  0
    9.0362    5.2620    0.0000 C   0  0  0  0  0  0  0  0  0  0  0  0
    2.5369   -2.1583    0.0000 C   0  0  0  0  0  0  0  0  0  0  0  0
    2.5369   -1.1583    0.0000 C   0  0  0  0  0  0  0  0  0  0  0  0
    3.4030   -3.6583    0.0000 C   0  0  0  0  0  0  0  0  0  0  0  0
   10.0147    5.4683    0.0000 C   0  0  0  0  0  0  0  0  0  0  0  0
   10.3719    3.7734    0.0000 C   0  0  0  0  0  0  0  0  0  0  0  0
   10.6825    4.7240    0.0000 C   0  0  0  0  0  0  0  0  0  0  0  0
    7.6009    0.8706    0.0000 H   0  0  0  0  0  0  0  0  0  0  0  0
    8.6511    2.1185    0.0000 H   0  0  0  0  0  0  0  0  0  0  0  0
    8.4868    2.8984    0.0000 H   0  0  0  0  0  0  0  0  0  0  0  0
    5.6003    2.2901    0.0000 H   0  0  0  0  0  0  0  0  0  0  0  0
    5.7646    1.5101    0.0000 H   0  0  0  0  0  0  0  0  0  0  0  0
    6.4373    3.5682    0.0000 H   0  0  0  0  0  0  0  0  0  0  0  0
    5.8440    3.0359    0.0000 H   0  0  0  0  0  0  0  0  0  0  0  0
    7.9999    0.3016    0.0000 H   0  0  0  0  0  0  0  0  0  0  0  0
    8.8754    0.2542    0.0000 H   0  0  0  0  0  0  0  0  0  0  0  0
    8.9228    1.1297    0.0000 H   0  0  0  0  0  0  0  0  0  0  0  0
    6.4188   -1.6583    0.0000 H   0  0  0  0  0  0  0  0  0  0  0  0
    5.4078   -3.0523    0.0000 H   0  0  0  0  0  0  0  0  0  0  0  0
    8.6221    5.7235    0.0000 H   0  0  0  0  0  0  0  0  0  0  0  0
    2.0000   -2.4683    0.0000 H   0  0  0  0  0  0  0  0  0  0  0  0
    2.0000   -0.8483    0.0000 H   0  0  0  0  0  0  0  0  0  0  0  0
   10.2073    6.0576    0.0000 H   0  0  0  0  0  0  0  0  0  0  0  0
   10.7859    3.3120    0.0000 H   0  0  0  0  0  0  0  0  0  0  0  0
   11.2892    4.8518    0.0000 H   0  0  0  0  0  0  0  0  0  0  0  0
    2.5369   -4.7783    0.0000 H   0  0  0  0  0  0  0  0  0  0  0  0
    2.0000   -3.8483    0.0000 H   0  0  0  0  0  0  0  0  0  0  0  0
    4.8059   -5.4683    0.0000 H   0  0  0  0  0  0  0  0  0  0  0  0
  1 26  1  0  0  0  0
  2 17  2  0  0  0  0
  3 18  2  0  0  0  0
  4 19  2  0  0  0  0
  5 11  1  0  0  0  0
  5 54  1  0  0  0  0
  6 12  1  0  0  0  0
  6 14  1  0  0  0  0
  6 17  1  0  0  0  0
  7 13  1  0  0  0  0
  7 15  1  0  0  0  0
  7 18  1  0  0  0  0
  8 23  1  0  0  0  0
  8 24  1  0  0  0  0
  8 45  1  0  0  0  0
  9 22  1  0  0  0  0
  9 32  2  0  0  0  0
 10 30  1  0  0  0  0
 10 52  1  0  0  0  0
 10 53  1  0  0  0  0
 11 30  2  3  0  0  0
 12 13  1  0  0  0  0
 12 16  1  1  0  0  0
 12 34  1  0  0  0  0
 13 35  1  0  0  0  0
 13 36  1  0  0  0  0
 14 15  1  0  0  0  0
 14 37  1  0  0  0  0
 14 38  1  0  0  0  0
 15 39  1  0  0  0  0
 15 40  1  0  0  0  0
 16 41  1  0  0  0  0
 16 42  1  0  0  0  0
 16 43  1  0  0  0  0
 17 19  1  0  0  0  0
 18 22  1  0  0  0  0
 19 20  1  0  0  0  0
 20 21  1  0  0  0  0
 20 24  2  0  0  0  0
 21 23  1  0  0  0  0
 21 26  2  0  0  0  0
 22 27  2  0  0  0  0
 23 25  2  0  0  0  0
 24 44  1  0  0  0  0
 25 28  1  0  0  0  0
 25 30  1  0  0  0  0
 26 29  1  0  0  0  0
 27 31  1  0  0  0  0
 27 46  1  0  0  0  0
 28 29  2  0  0  0  0
 28 47  1  0  0  0  0
 29 48  1  0  0  0  0
 31 33  2  0  0  0  0
 31 49  1  0  0  0  0
 32 33  1  0  0  0  0
 32 50  1  0  0  0  0
 33 51  1  0  0  0  0
M  END
> <PUBCHEM_COMPOUND_CID>
507954
> <PUBCHEM_COMPOUND_CANONICALIZED>
1
> <PUBCHEM_CACTVS_COMPLEXITY>
810
> <PUBCHEM_CACTVS_HBOND_ACCEPTOR>
7
> <PUBCHEM_CACTVS_HBOND_DONOR>
3
> <PUBCHEM_CACTVS_ROTATABLE_BOND>
4
> <PUBCHEM_CACTVS_SUBSKEYS>
AAADceB7uQAAAAAAAAAAAAAAAAAAAWAAAAA8WIAAAAAAAFgB/AAAHwAUCAAADCzBngw/wPPZkACoA7d3dACCgCA3AiAI2aG4ZNgIYPrA1bGUIYhghgDIycccicCegAACAAACAAAAAAQAAAQAAAAAAAAAAA==
> <PUBCHEM_IUPAC_OPENEYE_NAME>
4-fluoro-N'-hydroxy-3-[2-[(2R)-2-methyl-4-(pyridine-2-carbonyl)piperazin-1-yl]-2-oxo-acetyl]-1H-indole-7-carboxamidine
> <PUBCHEM_IUPAC_CAS_NAME>
4-fluoro-N'-hydroxy-3-[2-[(2R)-2-methyl-4-[oxo(2-pyridinyl)methyl]-1-piperazinyl]-1,2-dioxoethyl]-1H-indole-7-carboximidamide
> <PUBCHEM_IUPAC_NAME_MARKUP>
4-fluoro-<I>N</I>&apos;-hydroxy-3-[2-[(2<I>R</I>)-2-methyl-4-(pyridine-2-carbonyl)piperazin-1-yl]-2-oxoacetyl]-1<I>H</I>-indole-7-carboximidamide
> <PUBCHEM_IUPAC_NAME>
4-fluoro-N'-hydroxy-3-[2-[(2R)-2-methyl-4-(pyridine-2-carbonyl)piperazin-1-yl]-2-oxoacetyl]-1H-indole-7-carboximidamide
> <PUBCHEM_IUPAC_SYSTEMATIC_NAME>
4-fluoranyl-3-[2-[(2R)-2-methyl-4-pyridin-2-ylcarbonyl-piperazin-1-yl]-2-oxidanylidene-ethanoyl]-N'-oxidanyl-1H-indole-7-carboximidamide
> <PUBCHEM_IUPAC_TRADITIONAL_NAME>
4-fluoro-N'-hydroxy-3-[2-keto-2-[(2R)-2-methyl-4-picolinoyl-piperazino]acetyl]-1H-indole-7-carboxamidine
> <PUBCHEM_IUPAC_INCHI>
InChI=1S/C22H21FN6O4/c1-12-11-28(21(31)16-4-2-3-7-25-16)8-9-29(12)22(32)19(30)14-10-26-18-13(20(24)27-33)5-6-15(23)17(14)18/h2-7,10,12,26,33H,8-9,11H2,1H3,(H2,24,27)/t12-/m1/s1
> <PUBCHEM_IUPAC_INCHIKEY>
ZCXLGNBDBJMMGA-GFCCVEGCSA-N
> <PUBCHEM_XLOGP3_AA>
1.2
> <PUBCHEM_EXACT_MASS>
452.16083133
> <PUBCHEM_MOLECULAR_FORMULA>
C22H21FN6O4
> <PUBCHEM_MOLECULAR_WEIGHT>
452.4
> <PUBCHEM_OPENEYE_CAN_SMILES>
CC1CN(CCN1C(=O)C(=O)C2=CNC3=C(C=CC(=C23)F)C(=NO)N)C(=O)C4=CC=CC=N4
> <PUBCHEM_OPENEYE_ISO_SMILES>
C[C@@H]1CN(CCN1C(=O)C(=O)C2=CNC3=C(C=CC(=C23)F)C(=NO)N)C(=O)C4=CC=CC=N4
> <PUBCHEM_CACTVS_TPSA>
145
> <PUBCHEM_MONOISOTOPIC_WEIGHT>
452.16083133
> <PUBCHEM_TOTAL_CHARGE>
0
> <PUBCHEM_HEAVY_ATOM_COUNT>
33
> <PUBCHEM_ATOM_DEF_STEREO_COUNT>
1
> <PUBCHEM_ATOM_UDEF_STEREO_COUNT>
0
> <PUBCHEM_BOND_DEF_STEREO_COUNT>
0
> <PUBCHEM_BOND_UDEF_STEREO_COUNT>
1
> <PUBCHEM_ISOTOPIC_ATOM_COUNT>
0
> <PUBCHEM_COMPONENT_COUNT>
1
> <PUBCHEM_CACTVS_TAUTO_COUNT>
-1
> <PUBCHEM_COORDINATE_TYPE>
1
5
255
> <PUBCHEM_BONDANNOTATIONS>
11  30  1
12  16  5
20  21  8
20  24  8
21  23  8
21  26  8
22  27  8
23  25  8
25  28  8
26  29  8
27  31  8
28  29  8
31  33  8
32  33  8
8  23  8
8  24  8
9  22  8
9  32  8
$$$$
