507965
  -OEChem-10302200282D
 53 57  0     1  0  0  0  0  0999 V2000
    2.8660    0.2062    0.0000 F   0  0  0  0  0  0  0  0  0  0  0  0
    6.6353   -0.5767    0.0000 O   0  0  0  0  0  0  0  0  0  0  0  0
    6.5422    4.7140    0.0000 O   0  0  0  0  0  0  0  0  0  0  0  0
    4.3211    0.7057    0.0000 O   0  0  0  0  0  0  0  0  0  0  0  0
    3.3660   -5.3327    0.0000 O   0  0  0  0  0  0  0  0  0  0  0  0
    6.2781    1.1182    0.0000 N   0  0  0  0  0  0  0  0  0  0  0  0
    6.8994    3.0192    0.0000 N   0  0  0  0  0  0  0  0  0  0  0  0
    4.6783   -2.5986    0.0000 N   0  0  0  0  0  0  0  0  0  0  0  0
    8.8564    3.4316    0.0000 N   0  0  0  0  0  0  0  0  0  0  0  0
    2.0570   -4.3816    0.0000 N   0  0  0  0  0  0  0  0  0  0  0  0
    3.6750   -4.3816    0.0000 N   0  0  0  0  0  0  0  0  0  0  0  0
    7.2566    1.3244    0.0000 C   0  0  1  0  0  0  0  0  0  0  0  0
    7.5673    2.2749    0.0000 C   0  0  0  0  0  0  0  0  0  0  0  0
    5.6103    1.8625    0.0000 C   0  0  0  0  0  0  0  0  0  0  0  0
    5.9209    2.8130    0.0000 C   0  0  0  0  0  0  0  0  0  0  0  0
    7.9244    0.5801    0.0000 C   0  0  0  0  0  0  0  0  0  0  0  0
    5.9674    0.1676    0.0000 C   0  0  0  0  0  0  0  0  0  0  0  0
    7.2101    3.9697    0.0000 C   0  0  0  0  0  0  0  0  0  0  0  0
    4.9889   -0.0386    0.0000 C   0  0  0  0  0  0  0  0  0  0  0  0
    4.6783   -0.9891    0.0000 C   0  0  0  0  0  0  0  0  0  0  0  0
    3.7320   -1.2938    0.0000 C   0  0  0  0  0  0  0  0  0  0  0  0
    8.1886    4.1759    0.0000 C   0  0  0  0  0  0  0  0  0  0  0  0
    3.7320   -2.2938    0.0000 C   0  0  0  0  0  0  0  0  0  0  0  0
    5.2619   -1.7938    0.0000 C   0  0  0  0  0  0  0  0  0  0  0  0
    2.8660   -2.7938    0.0000 C   0  0  0  0  0  0  0  0  0  0  0  0
    2.8660   -0.7938    0.0000 C   0  0  0  0  0  0  0  0  0  0  0  0
    8.4993    5.1265    0.0000 C   0  0  0  0  0  0  0  0  0  0  0  0
    2.0000   -2.2938    0.0000 C   0  0  0  0  0  0  0  0  0  0  0  0
    2.0000   -1.2938    0.0000 C   0  0  0  0  0  0  0  0  0  0  0  0
    2.8660   -3.7938    0.0000 C   0  0  0  0  0  0  0  0  0  0  0  0
    9.4778    5.3327    0.0000 C   0  0  0  0  0  0  0  0  0  0  0  0
    9.8349    3.6378    0.0000 C   0  0  0  0  0  0  0  0  0  0  0  0
   10.1456    4.5884    0.0000 C   0  0  0  0  0  0  0  0  0  0  0  0
    2.3660   -5.3327    0.0000 C   0  0  0  0  0  0  0  0  0  0  0  0
    7.0640    0.7351    0.0000 H   0  0  0  0  0  0  0  0  0  0  0  0
    8.1142    1.9829    0.0000 H   0  0  0  0  0  0  0  0  0  0  0  0
    7.9498    2.7628    0.0000 H   0  0  0  0  0  0  0  0  0  0  0  0
    5.0633    2.1545    0.0000 H   0  0  0  0  0  0  0  0  0  0  0  0
    5.2277    1.3746    0.0000 H   0  0  0  0  0  0  0  0  0  0  0  0
    5.9004    3.4326    0.0000 H   0  0  0  0  0  0  0  0  0  0  0  0
    5.3071    2.9003    0.0000 H   0  0  0  0  0  0  0  0  0  0  0  0
    7.4630    0.1660    0.0000 H   0  0  0  0  0  0  0  0  0  0  0  0
    8.3385    0.1186    0.0000 H   0  0  0  0  0  0  0  0  0  0  0  0
    8.3859    0.9941    0.0000 H   0  0  0  0  0  0  0  0  0  0  0  0
    5.8819   -1.7938    0.0000 H   0  0  0  0  0  0  0  0  0  0  0  0
    4.8709   -3.1879    0.0000 H   0  0  0  0  0  0  0  0  0  0  0  0
    8.0852    5.5879    0.0000 H   0  0  0  0  0  0  0  0  0  0  0  0
    1.4631   -2.6038    0.0000 H   0  0  0  0  0  0  0  0  0  0  0  0
    1.4631   -0.9838    0.0000 H   0  0  0  0  0  0  0  0  0  0  0  0
    9.6704    5.9220    0.0000 H   0  0  0  0  0  0  0  0  0  0  0  0
   10.2490    3.1764    0.0000 H   0  0  0  0  0  0  0  0  0  0  0  0
   10.7523    4.7162    0.0000 H   0  0  0  0  0  0  0  0  0  0  0  0
    2.0016   -5.8343    0.0000 H   0  0  0  0  0  0  0  0  0  0  0  0
  1 26  1  0  0  0  0
  2 17  2  0  0  0  0
  3 18  2  0  0  0  0
  4 19  2  0  0  0  0
  5 11  1  0  0  0  0
  5 34  1  0  0  0  0
  6 12  1  0  0  0  0
  6 14  1  0  0  0  0
  6 17  1  0  0  0  0
  7 13  1  0  0  0  0
  7 15  1  0  0  0  0
  7 18  1  0  0  0  0
  8 23  1  0  0  0  0
  8 24  1  0  0  0  0
  8 46  1  0  0  0  0
  9 22  1  0  0  0  0
  9 32  2  0  0  0  0
 10 30  1  0  0  0  0
 10 34  2  0  0  0  0
 11 30  2  0  0  0  0
 12 13  1  0  0  0  0
 12 16  1  1  0  0  0
 12 35  1  0  0  0  0
 13 36  1  0  0  0  0
 13 37  1  0  0  0  0
 14 15  1  0  0  0  0
 14 38  1  0  0  0  0
 14 39  1  0  0  0  0
 15 40  1  0  0  0  0
 15 41  1  0  0  0  0
 16 42  1  0  0  0  0
 16 43  1  0  0  0  0
 16 44  1  0  0  0  0
 17 19  1  0  0  0  0
 18 22  1  0  0  0  0
 19 20  1  0  0  0  0
 20 21  1  0  0  0  0
 20 24  2  0  0  0  0
 21 23  1  0  0  0  0
 21 26  2  0  0  0  0
 22 27  2  0  0  0  0
 23 25  2  0  0  0  0
 24 45  1  0  0  0  0
 25 28  1  0  0  0  0
 25 30  1  0  0  0  0
 26 29  1  0  0  0  0
 27 31  1  0  0  0  0
 27 47  1  0  0  0  0
 28 29  2  0  0  0  0
 28 48  1  0  0  0  0
 29 49  1  0  0  0  0
 31 33  2  0  0  0  0
 31 50  1  0  0  0  0
 32 33  1  0  0  0  0
 32 51  1  0  0  0  0
 33 52  1  0  0  0  0
 34 53  1  0  0  0  0
M  END
> <PUBCHEM_COMPOUND_CID>
507965
> <PUBCHEM_COMPOUND_CANONICALIZED>
1
> <PUBCHEM_CACTVS_COMPLEXITY>
801
> <PUBCHEM_CACTVS_HBOND_ACCEPTOR>
8
> <PUBCHEM_CACTVS_HBOND_DONOR>
1
> <PUBCHEM_CACTVS_ROTATABLE_BOND>
4
> <PUBCHEM_CACTVS_SUBSKEYS>
AAADceB7uQAAAAAAAAAAAAAAAAAAAWLAAAA8WIAAAAAAAFgB/gAAHwAUAAAADCzBnw4/0PfZkACpA7d39gCCgCk3AqAp2aG4ZNiIaPrA1bGUIYhghwDIycccicCegAACAAACAAAAAAQAAAQAAAAAAAAAAA==
> <PUBCHEM_IUPAC_OPENEYE_NAME>
1-[4-fluoro-7-(1,2,4-oxadiazol-3-yl)-1H-indol-3-yl]-2-[(2R)-2-methyl-4-(pyridine-2-carbonyl)piperazin-1-yl]ethane-1,2-dione
> <PUBCHEM_IUPAC_CAS_NAME>
1-[4-fluoro-7-(1,2,4-oxadiazol-3-yl)-1H-indol-3-yl]-2-[(2R)-2-methyl-4-[oxo(2-pyridinyl)methyl]-1-piperazinyl]ethane-1,2-dione
> <PUBCHEM_IUPAC_NAME_MARKUP>
1-[4-fluoro-7-(1,2,4-oxadiazol-3-yl)-1<I>H</I>-indol-3-yl]-2-[(2<I>R</I>)-2-methyl-4-(pyridine-2-carbonyl)piperazin-1-yl]ethane-1,2-dione
> <PUBCHEM_IUPAC_NAME>
1-[4-fluoro-7-(1,2,4-oxadiazol-3-yl)-1H-indol-3-yl]-2-[(2R)-2-methyl-4-(pyridine-2-carbonyl)piperazin-1-yl]ethane-1,2-dione
> <PUBCHEM_IUPAC_SYSTEMATIC_NAME>
1-[4-fluoranyl-7-(1,2,4-oxadiazol-3-yl)-1H-indol-3-yl]-2-[(2R)-2-methyl-4-pyridin-2-ylcarbonyl-piperazin-1-yl]ethane-1,2-dione
> <PUBCHEM_IUPAC_TRADITIONAL_NAME>
1-[4-fluoro-7-(1,2,4-oxadiazol-3-yl)-1H-indol-3-yl]-2-[(2R)-2-methyl-4-picolinoyl-piperazino]ethane-1,2-dione
> <PUBCHEM_IUPAC_INCHI>
InChI=1S/C23H19FN6O4/c1-13-11-29(22(32)17-4-2-3-7-25-17)8-9-30(13)23(33)20(31)15-10-26-19-14(21-27-12-34-28-21)5-6-16(24)18(15)19/h2-7,10,12-13,26H,8-9,11H2,1H3/t13-/m1/s1
> <PUBCHEM_IUPAC_INCHIKEY>
ZVLXCELEQIEKKU-CYBMUJFWSA-N
> <PUBCHEM_XLOGP3_AA>
2
> <PUBCHEM_EXACT_MASS>
462.14518127
> <PUBCHEM_MOLECULAR_FORMULA>
C23H19FN6O4
> <PUBCHEM_MOLECULAR_WEIGHT>
462.4
> <PUBCHEM_OPENEYE_CAN_SMILES>
CC1CN(CCN1C(=O)C(=O)C2=CNC3=C(C=CC(=C23)F)C4=NOC=N4)C(=O)C5=CC=CC=N5
> <PUBCHEM_OPENEYE_ISO_SMILES>
C[C@@H]1CN(CCN1C(=O)C(=O)C2=CNC3=C(C=CC(=C23)F)C4=NOC=N4)C(=O)C5=CC=CC=N5
> <PUBCHEM_CACTVS_TPSA>
125
> <PUBCHEM_MONOISOTOPIC_WEIGHT>
462.14518127
> <PUBCHEM_TOTAL_CHARGE>
0
> <PUBCHEM_HEAVY_ATOM_COUNT>
34
> <PUBCHEM_ATOM_DEF_STEREO_COUNT>
1
> <PUBCHEM_ATOM_UDEF_STEREO_COUNT>
0
> <PUBCHEM_BOND_DEF_STEREO_COUNT>
0
> <PUBCHEM_BOND_UDEF_STEREO_COUNT>
0
> <PUBCHEM_ISOTOPIC_ATOM_COUNT>
0
> <PUBCHEM_COMPONENT_COUNT>
1
> <PUBCHEM_CACTVS_TAUTO_COUNT>
-1
> <PUBCHEM_COORDINATE_TYPE>
1
5
255
> <PUBCHEM_BONDANNOTATIONS>
10  30  8
10  34  8
11  30  8
12  16  5
20  21  8
20  24  8
21  23  8
21  26  8
22  27  8
23  25  8
25  28  8
26  29  8
27  31  8
28  29  8
31  33  8
32  33  8
5  11  8
5  34  8
8  23  8
8  24  8
9  22  8
9  32  8
$$$$
