507947
  -OEChem-10302200282D
 68 72  0     1  0  0  0  0  0999 V2000
    2.8660    1.9287    0.0000 F   0  0  0  0  0  0  0  0  0  0  0  0
    6.6353    1.1459    0.0000 O   0  0  0  0  0  0  0  0  0  0  0  0
    6.5422    6.4366    0.0000 O   0  0  0  0  0  0  0  0  0  0  0  0
    4.3211    2.4283    0.0000 O   0  0  0  0  0  0  0  0  0  0  0  0
    2.3660   -3.6101    0.0000 O   0  0  0  0  0  0  0  0  0  0  0  0
    6.2781    2.8407    0.0000 N   0  0  0  0  0  0  0  0  0  0  0  0
    6.8994    4.7418    0.0000 N   0  0  0  0  0  0  0  0  0  0  0  0
    4.6783   -0.8760    0.0000 N   0  0  0  0  0  0  0  0  0  0  0  0
    3.9538   -4.4191    0.0000 N   0  0  0  0  0  0  0  0  0  0  0  0
    3.6750   -2.6591    0.0000 N   0  0  0  0  0  0  0  0  0  0  0  0
    2.0570   -2.6591    0.0000 N   0  0  0  0  0  0  0  0  0  0  0  0
    7.2566    3.0469    0.0000 C   0  0  1  0  0  0  0  0  0  0  0  0
    7.5673    3.9975    0.0000 C   0  0  0  0  0  0  0  0  0  0  0  0
    5.6103    3.5850    0.0000 C   0  0  0  0  0  0  0  0  0  0  0  0
    5.9209    4.5355    0.0000 C   0  0  0  0  0  0  0  0  0  0  0  0
    7.9244    2.3026    0.0000 C   0  0  0  0  0  0  0  0  0  0  0  0
    5.9674    1.8902    0.0000 C   0  0  0  0  0  0  0  0  0  0  0  0
    7.2101    5.6923    0.0000 C   0  0  0  0  0  0  0  0  0  0  0  0
    4.9889    1.6840    0.0000 C   0  0  0  0  0  0  0  0  0  0  0  0
    4.6783    0.7335    0.0000 C   0  0  0  0  0  0  0  0  0  0  0  0
    8.1886    5.8985    0.0000 C   0  0  0  0  0  0  0  0  0  0  0  0
    3.7320    0.4287    0.0000 C   0  0  0  0  0  0  0  0  0  0  0  0
    3.7320   -0.5713    0.0000 C   0  0  0  0  0  0  0  0  0  0  0  0
    5.2619   -0.0713    0.0000 C   0  0  0  0  0  0  0  0  0  0  0  0
    2.8660   -1.0713    0.0000 C   0  0  0  0  0  0  0  0  0  0  0  0
    8.4993    6.8490    0.0000 C   0  0  0  0  0  0  0  0  0  0  0  0
    8.8564    5.1542    0.0000 C   0  0  0  0  0  0  0  0  0  0  0  0
    2.8660    0.9287    0.0000 C   0  0  0  0  0  0  0  0  0  0  0  0
    2.0000   -0.5713    0.0000 C   0  0  0  0  0  0  0  0  0  0  0  0
    2.0000    0.4287    0.0000 C   0  0  0  0  0  0  0  0  0  0  0  0
    2.8660   -2.0713    0.0000 C   0  0  0  0  0  0  0  0  0  0  0  0
    3.5471   -5.3327    0.0000 C   0  0  3  0  0  0  0  0  0  0  0  0
    9.4778    7.0552    0.0000 C   0  0  0  0  0  0  0  0  0  0  0  0
    9.8349    5.3604    0.0000 C   0  0  0  0  0  0  0  0  0  0  0  0
    4.1349   -6.1417    0.0000 C   0  0  0  0  0  0  0  0  0  0  0  0
   10.1456    6.3109    0.0000 C   0  0  0  0  0  0  0  0  0  0  0  0
    3.3660   -3.6101    0.0000 C   0  0  0  0  0  0  0  0  0  0  0  0
    2.5526   -5.4372    0.0000 C   0  0  0  0  0  0  0  0  0  0  0  0
    3.7281   -7.0552    0.0000 C   0  0  0  0  0  0  0  0  0  0  0  0
    7.0640    2.4576    0.0000 H   0  0  0  0  0  0  0  0  0  0  0  0
    8.1142    3.7054    0.0000 H   0  0  0  0  0  0  0  0  0  0  0  0
    7.9498    4.4854    0.0000 H   0  0  0  0  0  0  0  0  0  0  0  0
    5.0633    3.8770    0.0000 H   0  0  0  0  0  0  0  0  0  0  0  0
    5.2277    3.0971    0.0000 H   0  0  0  0  0  0  0  0  0  0  0  0
    5.9004    5.1552    0.0000 H   0  0  0  0  0  0  0  0  0  0  0  0
    5.3071    4.6229    0.0000 H   0  0  0  0  0  0  0  0  0  0  0  0
    7.4630    1.8886    0.0000 H   0  0  0  0  0  0  0  0  0  0  0  0
    8.3385    1.8412    0.0000 H   0  0  0  0  0  0  0  0  0  0  0  0
    8.3859    2.7167    0.0000 H   0  0  0  0  0  0  0  0  0  0  0  0
    5.8819   -0.0713    0.0000 H   0  0  0  0  0  0  0  0  0  0  0  0
    4.8709   -1.4653    0.0000 H   0  0  0  0  0  0  0  0  0  0  0  0
    8.0852    7.3105    0.0000 H   0  0  0  0  0  0  0  0  0  0  0  0
    8.6638    4.5649    0.0000 H   0  0  0  0  0  0  0  0  0  0  0  0
    1.4631   -0.8813    0.0000 H   0  0  0  0  0  0  0  0  0  0  0  0
    1.4631    0.7387    0.0000 H   0  0  0  0  0  0  0  0  0  0  0  0
    3.1827   -4.8311    0.0000 H   0  0  0  0  0  0  0  0  0  0  0  0
    9.6704    7.6446    0.0000 H   0  0  0  0  0  0  0  0  0  0  0  0
   10.2490    4.8990    0.0000 H   0  0  0  0  0  0  0  0  0  0  0  0
    4.6489   -6.4884    0.0000 H   0  0  0  0  0  0  0  0  0  0  0  0
    4.5656   -5.6957    0.0000 H   0  0  0  0  0  0  0  0  0  0  0  0
    4.5704   -4.3543    0.0000 H   0  0  0  0  0  0  0  0  0  0  0  0
   10.7523    6.4388    0.0000 H   0  0  0  0  0  0  0  0  0  0  0  0
    2.4877   -4.8206    0.0000 H   0  0  0  0  0  0  0  0  0  0  0  0
    1.9360   -5.5020    0.0000 H   0  0  0  0  0  0  0  0  0  0  0  0
    2.6174   -6.0538    0.0000 H   0  0  0  0  0  0  0  0  0  0  0  0
    3.1617   -6.8031    0.0000 H   0  0  0  0  0  0  0  0  0  0  0  0
    3.4760   -7.6216    0.0000 H   0  0  0  0  0  0  0  0  0  0  0  0
    4.2945   -7.3074    0.0000 H   0  0  0  0  0  0  0  0  0  0  0  0
  1 28  1  0  0  0  0
  2 17  2  0  0  0  0
  3 18  2  0  0  0  0
  4 19  2  0  0  0  0
  5 11  1  0  0  0  0
  5 37  1  0  0  0  0
  6 12  1  0  0  0  0
  6 14  1  0  0  0  0
  6 17  1  0  0  0  0
  7 13  1  0  0  0  0
  7 15  1  0  0  0  0
  7 18  1  0  0  0  0
  8 23  1  0  0  0  0
  8 24  1  0  0  0  0
  8 51  1  0  0  0  0
  9 32  1  0  0  0  0
  9 37  1  0  0  0  0
  9 61  1  0  0  0  0
 10 31  1  0  0  0  0
 10 37  2  0  0  0  0
 11 31  2  0  0  0  0
 12 13  1  0  0  0  0
 12 16  1  1  0  0  0
 12 40  1  0  0  0  0
 13 41  1  0  0  0  0
 13 42  1  0  0  0  0
 14 15  1  0  0  0  0
 14 43  1  0  0  0  0
 14 44  1  0  0  0  0
 15 45  1  0  0  0  0
 15 46  1  0  0  0  0
 16 47  1  0  0  0  0
 16 48  1  0  0  0  0
 16 49  1  0  0  0  0
 17 19  1  0  0  0  0
 18 21  1  0  0  0  0
 19 20  1  0  0  0  0
 20 22  1  0  0  0  0
 20 24  2  0  0  0  0
 21 26  2  0  0  0  0
 21 27  1  0  0  0  0
 22 23  1  0  0  0  0
 22 28  2  0  0  0  0
 23 25  2  0  0  0  0
 24 50  1  0  0  0  0
 25 29  1  0  0  0  0
 25 31  1  0  0  0  0
 26 33  1  0  0  0  0
 26 52  1  0  0  0  0
 27 34  2  0  0  0  0
 27 53  1  0  0  0  0
 28 30  1  0  0  0  0
 29 30  2  0  0  0  0
 29 54  1  0  0  0  0
 30 55  1  0  0  0  0
 32 35  1  0  0  0  0
 32 38  1  0  0  0  0
 32 56  1  0  0  0  0
 33 36  2  0  0  0  0
 33 57  1  0  0  0  0
 34 36  1  0  0  0  0
 34 58  1  0  0  0  0
 35 39  1  0  0  0  0
 35 59  1  0  0  0  0
 35 60  1  0  0  0  0
 36 62  1  0  0  0  0
 38 63  1  0  0  0  0
 38 64  1  0  0  0  0
 38 65  1  0  0  0  0
 39 66  1  0  0  0  0
 39 67  1  0  0  0  0
 39 68  1  0  0  0  0
M  END
> <PUBCHEM_COMPOUND_CID>
507947
> <PUBCHEM_COMPOUND_CANONICALIZED>
1
> <PUBCHEM_CACTVS_COMPLEXITY>
903
> <PUBCHEM_CACTVS_HBOND_ACCEPTOR>
8
> <PUBCHEM_CACTVS_HBOND_DONOR>
2
> <PUBCHEM_CACTVS_ROTATABLE_BOND>
7
> <PUBCHEM_CACTVS_SUBSKEYS>
AAADceB7uQAAAAAAAAAAAAAAAAAAAWLAAAA8YIAAAAAAAFgB/AAAHwAUAAAADCzBnww/0PfZkACpA7d3dgCCgCk1AKAp2aGoRNmIaPrA3bGUIYholwLIycccicCegAACAAACAAAAAAQAAAQAAAAAAAAAAA==
> <PUBCHEM_IUPAC_OPENEYE_NAME>
1-[(2R)-4-benzoyl-2-methyl-piperazin-1-yl]-2-[4-fluoro-7-[5-(sec-butylamino)-1,2,4-oxadiazol-3-yl]-1H-indol-3-yl]ethane-1,2-dione
> <PUBCHEM_IUPAC_CAS_NAME>
1-[(2R)-4-benzoyl-2-methyl-1-piperazinyl]-2-[7-[5-(butan-2-ylamino)-1,2,4-oxadiazol-3-yl]-4-fluoro-1H-indol-3-yl]ethane-1,2-dione
> <PUBCHEM_IUPAC_NAME_MARKUP>
1-[(2<I>R</I>)-4-benzoyl-2-methylpiperazin-1-yl]-2-[7-[5-(butan-2-ylamino)-1,2,4-oxadiazol-3-yl]-4-fluoro-1<I>H</I>-indol-3-yl]ethane-1,2-dione
> <PUBCHEM_IUPAC_NAME>
1-[(2R)-4-benzoyl-2-methylpiperazin-1-yl]-2-[7-[5-(butan-2-ylamino)-1,2,4-oxadiazol-3-yl]-4-fluoro-1H-indol-3-yl]ethane-1,2-dione
> <PUBCHEM_IUPAC_SYSTEMATIC_NAME>
1-[7-[5-(butan-2-ylamino)-1,2,4-oxadiazol-3-yl]-4-fluoranyl-1H-indol-3-yl]-2-[(2R)-2-methyl-4-(phenylcarbonyl)piperazin-1-yl]ethane-1,2-dione
> <PUBCHEM_IUPAC_TRADITIONAL_NAME>
1-[(2R)-4-benzoyl-2-methyl-piperazino]-2-[4-fluoro-7-[5-(sec-butylamino)-1,2,4-oxadiazol-3-yl]-1H-indol-3-yl]ethane-1,2-dione
> <PUBCHEM_IUPAC_INCHI>
InChI=1S/C28H29FN6O4/c1-4-16(2)31-28-32-25(33-39-28)19-10-11-21(29)22-20(14-30-23(19)22)24(36)27(38)35-13-12-34(15-17(35)3)26(37)18-8-6-5-7-9-18/h5-11,14,16-17,30H,4,12-13,15H2,1-3H3,(H,31,32,33)/t16?,17-/m1/s1
> <PUBCHEM_IUPAC_INCHIKEY>
XPFPNXPDSYWYBN-ZYMOGRSISA-N
> <PUBCHEM_XLOGP3_AA>
4.4
> <PUBCHEM_EXACT_MASS>
532.22343159
> <PUBCHEM_MOLECULAR_FORMULA>
C28H29FN6O4
> <PUBCHEM_MOLECULAR_WEIGHT>
532.6
> <PUBCHEM_OPENEYE_CAN_SMILES>
CCC(C)NC1=NC(=NO1)C2=C3C(=C(C=C2)F)C(=CN3)C(=O)C(=O)N4CCN(CC4C)C(=O)C5=CC=CC=C5
> <PUBCHEM_OPENEYE_ISO_SMILES>
CCC(C)NC1=NC(=NO1)C2=C3C(=C(C=C2)F)C(=CN3)C(=O)C(=O)N4CCN(C[C@H]4C)C(=O)C5=CC=CC=C5
> <PUBCHEM_CACTVS_TPSA>
124
> <PUBCHEM_MONOISOTOPIC_WEIGHT>
532.22343159
> <PUBCHEM_TOTAL_CHARGE>
0
> <PUBCHEM_HEAVY_ATOM_COUNT>
39
> <PUBCHEM_ATOM_DEF_STEREO_COUNT>
1
> <PUBCHEM_ATOM_UDEF_STEREO_COUNT>
1
> <PUBCHEM_BOND_DEF_STEREO_COUNT>
0
> <PUBCHEM_BOND_UDEF_STEREO_COUNT>
0
> <PUBCHEM_ISOTOPIC_ATOM_COUNT>
0
> <PUBCHEM_COMPONENT_COUNT>
1
> <PUBCHEM_CACTVS_TAUTO_COUNT>
-1
> <PUBCHEM_COORDINATE_TYPE>
1
5
255
> <PUBCHEM_BONDANNOTATIONS>
10  31  8
10  37  8
11  31  8
12  16  5
20  22  8
20  24  8
21  26  8
21  27  8
22  23  8
22  28  8
23  25  8
25  29  8
26  33  8
27  34  8
28  30  8
29  30  8
32  38  3
33  36  8
34  36  8
5  11  8
5  37  8
8  23  8
8  24  8
$$$$
