507950
  -OEChem-10302200282D
 69 74  0     1  0  0  0  0  0999 V2000
    2.8660    1.8720    0.0000 F   0  0  0  0  0  0  0  0  0  0  0  0
    2.3660   -3.6668    0.0000 O   0  0  0  0  0  0  0  0  0  0  0  0
    6.6353    1.0892    0.0000 O   0  0  0  0  0  0  0  0  0  0  0  0
    6.5422    6.3799    0.0000 O   0  0  0  0  0  0  0  0  0  0  0  0
    4.3211    2.3716    0.0000 O   0  0  0  0  0  0  0  0  0  0  0  0
    6.2781    2.7840    0.0000 N   0  0  0  0  0  0  0  0  0  0  0  0
    3.9538   -4.4758    0.0000 N   0  0  0  0  0  0  0  0  0  0  0  0
    6.8994    4.6851    0.0000 N   0  0  0  0  0  0  0  0  0  0  0  0
    3.6750   -2.7158    0.0000 N   0  0  0  0  0  0  0  0  0  0  0  0
    4.6783   -0.9327    0.0000 N   0  0  0  0  0  0  0  0  0  0  0  0
    2.0570   -2.7158    0.0000 N   0  0  0  0  0  0  0  0  0  0  0  0
    3.5471   -5.3894    0.0000 C   0  0  0  0  0  0  0  0  0  0  0  0
    4.0471   -6.2554    0.0000 C   0  0  0  0  0  0  0  0  0  0  0  0
    2.5689   -5.5973    0.0000 C   0  0  0  0  0  0  0  0  0  0  0  0
    3.3779   -6.9985    0.0000 C   0  0  0  0  0  0  0  0  0  0  0  0
    2.4644   -6.5918    0.0000 C   0  0  0  0  0  0  0  0  0  0  0  0
    7.2566    2.9902    0.0000 C   0  0  1  0  0  0  0  0  0  0  0  0
    7.5673    3.9408    0.0000 C   0  0  0  0  0  0  0  0  0  0  0  0
    5.6103    3.5283    0.0000 C   0  0  0  0  0  0  0  0  0  0  0  0
    5.9209    4.4789    0.0000 C   0  0  0  0  0  0  0  0  0  0  0  0
    7.9244    2.2459    0.0000 C   0  0  0  0  0  0  0  0  0  0  0  0
    5.9674    1.8335    0.0000 C   0  0  0  0  0  0  0  0  0  0  0  0
    3.3660   -3.6668    0.0000 C   0  0  0  0  0  0  0  0  0  0  0  0
    7.2101    5.6356    0.0000 C   0  0  0  0  0  0  0  0  0  0  0  0
    4.9889    1.6273    0.0000 C   0  0  0  0  0  0  0  0  0  0  0  0
    4.6783    0.6768    0.0000 C   0  0  0  0  0  0  0  0  0  0  0  0
    3.7320    0.3720    0.0000 C   0  0  0  0  0  0  0  0  0  0  0  0
    8.1886    5.8418    0.0000 C   0  0  0  0  0  0  0  0  0  0  0  0
    3.7320   -0.6280    0.0000 C   0  0  0  0  0  0  0  0  0  0  0  0
    2.8660   -1.1280    0.0000 C   0  0  0  0  0  0  0  0  0  0  0  0
    2.8660   -2.1280    0.0000 C   0  0  0  0  0  0  0  0  0  0  0  0
    5.2619   -0.1280    0.0000 C   0  0  0  0  0  0  0  0  0  0  0  0
    2.8660    0.8720    0.0000 C   0  0  0  0  0  0  0  0  0  0  0  0
    2.0000   -0.6280    0.0000 C   0  0  0  0  0  0  0  0  0  0  0  0
    8.4993    6.7923    0.0000 C   0  0  0  0  0  0  0  0  0  0  0  0
    8.8564    5.0975    0.0000 C   0  0  0  0  0  0  0  0  0  0  0  0
    2.0000    0.3720    0.0000 C   0  0  0  0  0  0  0  0  0  0  0  0
    9.4778    6.9985    0.0000 C   0  0  0  0  0  0  0  0  0  0  0  0
    9.8349    5.3037    0.0000 C   0  0  0  0  0  0  0  0  0  0  0  0
   10.1456    6.2542    0.0000 C   0  0  0  0  0  0  0  0  0  0  0  0
    4.1662   -5.3569    0.0000 H   0  0  0  0  0  0  0  0  0  0  0  0
    4.4619   -6.7162    0.0000 H   0  0  0  0  0  0  0  0  0  0  0  0
    4.5487   -5.8910    0.0000 H   0  0  0  0  0  0  0  0  0  0  0  0
    2.5041   -4.9807    0.0000 H   0  0  0  0  0  0  0  0  0  0  0  0
    1.9489   -5.5973    0.0000 H   0  0  0  0  0  0  0  0  0  0  0  0
    3.0679   -7.5355    0.0000 H   0  0  0  0  0  0  0  0  0  0  0  0
    3.8795   -7.3630    0.0000 H   0  0  0  0  0  0  0  0  0  0  0  0
    1.8580   -6.4629    0.0000 H   0  0  0  0  0  0  0  0  0  0  0  0
    2.2728   -7.1815    0.0000 H   0  0  0  0  0  0  0  0  0  0  0  0
    7.0640    2.4009    0.0000 H   0  0  0  0  0  0  0  0  0  0  0  0
    8.1142    3.6487    0.0000 H   0  0  0  0  0  0  0  0  0  0  0  0
    7.9498    4.4287    0.0000 H   0  0  0  0  0  0  0  0  0  0  0  0
    5.0633    3.8203    0.0000 H   0  0  0  0  0  0  0  0  0  0  0  0
    5.2277    3.0404    0.0000 H   0  0  0  0  0  0  0  0  0  0  0  0
    5.9004    5.0985    0.0000 H   0  0  0  0  0  0  0  0  0  0  0  0
    5.3071    4.5662    0.0000 H   0  0  0  0  0  0  0  0  0  0  0  0
    4.5704   -4.4110    0.0000 H   0  0  0  0  0  0  0  0  0  0  0  0
    7.4630    1.8319    0.0000 H   0  0  0  0  0  0  0  0  0  0  0  0
    8.3385    1.7845    0.0000 H   0  0  0  0  0  0  0  0  0  0  0  0
    8.3859    2.6600    0.0000 H   0  0  0  0  0  0  0  0  0  0  0  0
    5.8819   -0.1280    0.0000 H   0  0  0  0  0  0  0  0  0  0  0  0
    4.8709   -1.5220    0.0000 H   0  0  0  0  0  0  0  0  0  0  0  0
    1.4631   -0.9380    0.0000 H   0  0  0  0  0  0  0  0  0  0  0  0
    8.0852    7.2538    0.0000 H   0  0  0  0  0  0  0  0  0  0  0  0
    8.6638    4.5082    0.0000 H   0  0  0  0  0  0  0  0  0  0  0  0
    1.4631    0.6820    0.0000 H   0  0  0  0  0  0  0  0  0  0  0  0
    9.6704    7.5879    0.0000 H   0  0  0  0  0  0  0  0  0  0  0  0
   10.2490    4.8422    0.0000 H   0  0  0  0  0  0  0  0  0  0  0  0
   10.7523    6.3821    0.0000 H   0  0  0  0  0  0  0  0  0  0  0  0
  1 33  1  0  0  0  0
  2 11  1  0  0  0  0
  2 23  1  0  0  0  0
  3 22  2  0  0  0  0
  4 24  2  0  0  0  0
  5 25  2  0  0  0  0
  6 17  1  0  0  0  0
  6 19  1  0  0  0  0
  6 22  1  0  0  0  0
  7 12  1  0  0  0  0
  7 23  1  0  0  0  0
  7 57  1  0  0  0  0
  8 18  1  0  0  0  0
  8 20  1  0  0  0  0
  8 24  1  0  0  0  0
  9 23  2  0  0  0  0
  9 31  1  0  0  0  0
 10 29  1  0  0  0  0
 10 32  1  0  0  0  0
 10 62  1  0  0  0  0
 11 31  2  0  0  0  0
 12 13  1  0  0  0  0
 12 14  1  0  0  0  0
 12 41  1  0  0  0  0
 13 15  1  0  0  0  0
 13 42  1  0  0  0  0
 13 43  1  0  0  0  0
 14 16  1  0  0  0  0
 14 44  1  0  0  0  0
 14 45  1  0  0  0  0
 15 16  1  0  0  0  0
 15 46  1  0  0  0  0
 15 47  1  0  0  0  0
 16 48  1  0  0  0  0
 16 49  1  0  0  0  0
 17 18  1  0  0  0  0
 17 21  1  1  0  0  0
 17 50  1  0  0  0  0
 18 51  1  0  0  0  0
 18 52  1  0  0  0  0
 19 20  1  0  0  0  0
 19 53  1  0  0  0  0
 19 54  1  0  0  0  0
 20 55  1  0  0  0  0
 20 56  1  0  0  0  0
 21 58  1  0  0  0  0
 21 59  1  0  0  0  0
 21 60  1  0  0  0  0
 22 25  1  0  0  0  0
 24 28  1  0  0  0  0
 25 26  1  0  0  0  0
 26 27  1  0  0  0  0
 26 32  2  0  0  0  0
 27 29  1  0  0  0  0
 27 33  2  0  0  0  0
 28 35  2  0  0  0  0
 28 36  1  0  0  0  0
 29 30  2  0  0  0  0
 30 31  1  0  0  0  0
 30 34  1  0  0  0  0
 32 61  1  0  0  0  0
 33 37  1  0  0  0  0
 34 37  2  0  0  0  0
 34 63  1  0  0  0  0
 35 38  1  0  0  0  0
 35 64  1  0  0  0  0
 36 39  2  0  0  0  0
 36 65  1  0  0  0  0
 37 66  1  0  0  0  0
 38 40  2  0  0  0  0
 38 67  1  0  0  0  0
 39 40  1  0  0  0  0
 39 68  1  0  0  0  0
 40 69  1  0  0  0  0
M  END
> <PUBCHEM_COMPOUND_CID>
507950
> <PUBCHEM_COMPOUND_CANONICALIZED>
1
> <PUBCHEM_CACTVS_COMPLEXITY>
944
> <PUBCHEM_CACTVS_HBOND_ACCEPTOR>
8
> <PUBCHEM_CACTVS_HBOND_DONOR>
2
> <PUBCHEM_CACTVS_ROTATABLE_BOND>
6
> <PUBCHEM_CACTVS_SUBSKEYS>
AAADceB7uQAAAAAAAAAAAAAAAAAAAeLEAAA8YIAAAAAAAFgB/AAAHwAUAAAADCzBnww/0PfZkACpA7d3dgCCgCk1AKAp2aGoRNmIaPrA3bGUIYholwLIycccicCegAACAAACAAAAAAQAAAQAAAAAAAAAAA==
> <PUBCHEM_IUPAC_OPENEYE_NAME>
1-[(2R)-4-benzoyl-2-methyl-piperazin-1-yl]-2-[7-[5-(cyclopentylamino)-1,2,4-oxadiazol-3-yl]-4-fluoro-1H-indol-3-yl]ethane-1,2-dione
> <PUBCHEM_IUPAC_CAS_NAME>
1-[(2R)-4-benzoyl-2-methyl-1-piperazinyl]-2-[7-[5-(cyclopentylamino)-1,2,4-oxadiazol-3-yl]-4-fluoro-1H-indol-3-yl]ethane-1,2-dione
> <PUBCHEM_IUPAC_NAME_MARKUP>
1-[(2<I>R</I>)-4-benzoyl-2-methylpiperazin-1-yl]-2-[7-[5-(cyclopentylamino)-1,2,4-oxadiazol-3-yl]-4-fluoro-1<I>H</I>-indol-3-yl]ethane-1,2-dione
> <PUBCHEM_IUPAC_NAME>
1-[(2R)-4-benzoyl-2-methylpiperazin-1-yl]-2-[7-[5-(cyclopentylamino)-1,2,4-oxadiazol-3-yl]-4-fluoro-1H-indol-3-yl]ethane-1,2-dione
> <PUBCHEM_IUPAC_SYSTEMATIC_NAME>
1-[7-[5-(cyclopentylamino)-1,2,4-oxadiazol-3-yl]-4-fluoranyl-1H-indol-3-yl]-2-[(2R)-2-methyl-4-(phenylcarbonyl)piperazin-1-yl]ethane-1,2-dione
> <PUBCHEM_IUPAC_TRADITIONAL_NAME>
1-[(2R)-4-benzoyl-2-methyl-piperazino]-2-[7-[5-(cyclopentylamino)-1,2,4-oxadiazol-3-yl]-4-fluoro-1H-indol-3-yl]ethane-1,2-dione
> <PUBCHEM_IUPAC_INCHI>
InChI=1S/C29H29FN6O4/c1-17-16-35(27(38)18-7-3-2-4-8-18)13-14-36(17)28(39)25(37)21-15-31-24-20(11-12-22(30)23(21)24)26-33-29(40-34-26)32-19-9-5-6-10-19/h2-4,7-8,11-12,15,17,19,31H,5-6,9-10,13-14,16H2,1H3,(H,32,33,34)/t17-/m1/s1
> <PUBCHEM_IUPAC_INCHIKEY>
SVRJAPMHDVLLAY-QGZVFWFLSA-N
> <PUBCHEM_XLOGP3_AA>
4.3
> <PUBCHEM_EXACT_MASS>
544.22343159
> <PUBCHEM_MOLECULAR_FORMULA>
C29H29FN6O4
> <PUBCHEM_MOLECULAR_WEIGHT>
544.6
> <PUBCHEM_OPENEYE_CAN_SMILES>
CC1CN(CCN1C(=O)C(=O)C2=CNC3=C(C=CC(=C23)F)C4=NOC(=N4)NC5CCCC5)C(=O)C6=CC=CC=C6
> <PUBCHEM_OPENEYE_ISO_SMILES>
C[C@@H]1CN(CCN1C(=O)C(=O)C2=CNC3=C(C=CC(=C23)F)C4=NOC(=N4)NC5CCCC5)C(=O)C6=CC=CC=C6
> <PUBCHEM_CACTVS_TPSA>
124
> <PUBCHEM_MONOISOTOPIC_WEIGHT>
544.22343159
> <PUBCHEM_TOTAL_CHARGE>
0
> <PUBCHEM_HEAVY_ATOM_COUNT>
40
> <PUBCHEM_ATOM_DEF_STEREO_COUNT>
1
> <PUBCHEM_ATOM_UDEF_STEREO_COUNT>
0
> <PUBCHEM_BOND_DEF_STEREO_COUNT>
0
> <PUBCHEM_BOND_UDEF_STEREO_COUNT>
0
> <PUBCHEM_ISOTOPIC_ATOM_COUNT>
0
> <PUBCHEM_COMPONENT_COUNT>
1
> <PUBCHEM_CACTVS_TAUTO_COUNT>
-1
> <PUBCHEM_COORDINATE_TYPE>
1
5
255
> <PUBCHEM_BONDANNOTATIONS>
10  29  8
10  32  8
11  31  8
17  21  5
2  11  8
2  23  8
26  27  8
26  32  8
27  29  8
27  33  8
28  35  8
28  36  8
29  30  8
30  34  8
33  37  8
34  37  8
35  38  8
36  39  8
38  40  8
39  40  8
9  23  8
9  31  8
$$$$
