507932
  -OEChem-10302200282D
 57 61  0     1  0  0  0  0  0999 V2000
    2.8660    1.0152    0.0000 F   0  0  0  0  0  0  0  0  0  0  0  0
    4.5416   -6.1417    0.0000 F   0  0  0  0  0  0  0  0  0  0  0  0
    3.1448   -5.9205    0.0000 F   0  0  0  0  0  0  0  0  0  0  0  0
    4.7628   -4.7449    0.0000 F   0  0  0  0  0  0  0  0  0  0  0  0
    6.6353    0.2324    0.0000 O   0  0  0  0  0  0  0  0  0  0  0  0
    6.5422    5.5230    0.0000 O   0  0  0  0  0  0  0  0  0  0  0  0
    4.3211    1.5147    0.0000 O   0  0  0  0  0  0  0  0  0  0  0  0
    2.3660   -4.5237    0.0000 O   0  0  0  0  0  0  0  0  0  0  0  0
    6.2781    1.9272    0.0000 N   0  0  0  0  0  0  0  0  0  0  0  0
    6.8994    3.8282    0.0000 N   0  0  0  0  0  0  0  0  0  0  0  0
    4.6783   -1.7896    0.0000 N   0  0  0  0  0  0  0  0  0  0  0  0
    3.6750   -3.5726    0.0000 N   0  0  0  0  0  0  0  0  0  0  0  0
    2.0570   -3.5726    0.0000 N   0  0  0  0  0  0  0  0  0  0  0  0
    7.2566    2.1334    0.0000 C   0  0  1  0  0  0  0  0  0  0  0  0
    7.5673    3.0839    0.0000 C   0  0  0  0  0  0  0  0  0  0  0  0
    5.6103    2.6715    0.0000 C   0  0  0  0  0  0  0  0  0  0  0  0
    5.9209    3.6220    0.0000 C   0  0  0  0  0  0  0  0  0  0  0  0
    7.9244    1.3891    0.0000 C   0  0  0  0  0  0  0  0  0  0  0  0
    5.9674    0.9767    0.0000 C   0  0  0  0  0  0  0  0  0  0  0  0
    7.2101    4.7787    0.0000 C   0  0  0  0  0  0  0  0  0  0  0  0
    4.9889    0.7704    0.0000 C   0  0  0  0  0  0  0  0  0  0  0  0
    4.6783   -0.1801    0.0000 C   0  0  0  0  0  0  0  0  0  0  0  0
    8.1886    4.9850    0.0000 C   0  0  0  0  0  0  0  0  0  0  0  0
    3.7320   -0.4848    0.0000 C   0  0  0  0  0  0  0  0  0  0  0  0
    3.7320   -1.4848    0.0000 C   0  0  0  0  0  0  0  0  0  0  0  0
    5.2619   -0.9848    0.0000 C   0  0  0  0  0  0  0  0  0  0  0  0
    2.8660   -1.9848    0.0000 C   0  0  0  0  0  0  0  0  0  0  0  0
    2.8660    0.0152    0.0000 C   0  0  0  0  0  0  0  0  0  0  0  0
    8.4993    5.9355    0.0000 C   0  0  0  0  0  0  0  0  0  0  0  0
    8.8564    4.2406    0.0000 C   0  0  0  0  0  0  0  0  0  0  0  0
    2.0000   -1.4848    0.0000 C   0  0  0  0  0  0  0  0  0  0  0  0
    2.0000   -0.4848    0.0000 C   0  0  0  0  0  0  0  0  0  0  0  0
    2.8660   -2.9848    0.0000 C   0  0  0  0  0  0  0  0  0  0  0  0
    9.4778    6.1417    0.0000 C   0  0  0  0  0  0  0  0  0  0  0  0
    9.8349    4.4469    0.0000 C   0  0  0  0  0  0  0  0  0  0  0  0
   10.1456    5.3974    0.0000 C   0  0  0  0  0  0  0  0  0  0  0  0
    3.3660   -4.5237    0.0000 C   0  0  0  0  0  0  0  0  0  0  0  0
    3.9538   -5.3327    0.0000 C   0  0  0  0  0  0  0  0  0  0  0  0
    7.0640    1.5441    0.0000 H   0  0  0  0  0  0  0  0  0  0  0  0
    8.1142    2.7919    0.0000 H   0  0  0  0  0  0  0  0  0  0  0  0
    7.9498    3.5718    0.0000 H   0  0  0  0  0  0  0  0  0  0  0  0
    5.0633    2.9635    0.0000 H   0  0  0  0  0  0  0  0  0  0  0  0
    5.2277    2.1836    0.0000 H   0  0  0  0  0  0  0  0  0  0  0  0
    5.9004    4.2417    0.0000 H   0  0  0  0  0  0  0  0  0  0  0  0
    5.3071    3.7094    0.0000 H   0  0  0  0  0  0  0  0  0  0  0  0
    7.4630    0.9750    0.0000 H   0  0  0  0  0  0  0  0  0  0  0  0
    8.3385    0.9276    0.0000 H   0  0  0  0  0  0  0  0  0  0  0  0
    8.3859    1.8032    0.0000 H   0  0  0  0  0  0  0  0  0  0  0  0
    5.8819   -0.9848    0.0000 H   0  0  0  0  0  0  0  0  0  0  0  0
    4.8709   -2.3789    0.0000 H   0  0  0  0  0  0  0  0  0  0  0  0
    8.0852    6.3969    0.0000 H   0  0  0  0  0  0  0  0  0  0  0  0
    8.6638    3.6513    0.0000 H   0  0  0  0  0  0  0  0  0  0  0  0
    1.4631   -1.7948    0.0000 H   0  0  0  0  0  0  0  0  0  0  0  0
    1.4631   -0.1748    0.0000 H   0  0  0  0  0  0  0  0  0  0  0  0
    9.6704    6.7310    0.0000 H   0  0  0  0  0  0  0  0  0  0  0  0
   10.2490    3.9854    0.0000 H   0  0  0  0  0  0  0  0  0  0  0  0
   10.7523    5.5252    0.0000 H   0  0  0  0  0  0  0  0  0  0  0  0
  1 28  1  0  0  0  0
  2 38  1  0  0  0  0
  3 38  1  0  0  0  0
  4 38  1  0  0  0  0
  5 19  2  0  0  0  0
  6 20  2  0  0  0  0
  7 21  2  0  0  0  0
  8 13  1  0  0  0  0
  8 37  1  0  0  0  0
  9 14  1  0  0  0  0
  9 16  1  0  0  0  0
  9 19  1  0  0  0  0
 10 15  1  0  0  0  0
 10 17  1  0  0  0  0
 10 20  1  0  0  0  0
 11 25  1  0  0  0  0
 11 26  1  0  0  0  0
 11 50  1  0  0  0  0
 12 33  1  0  0  0  0
 12 37  2  0  0  0  0
 13 33  2  0  0  0  0
 14 15  1  0  0  0  0
 14 18  1  1  0  0  0
 14 39  1  0  0  0  0
 15 40  1  0  0  0  0
 15 41  1  0  0  0  0
 16 17  1  0  0  0  0
 16 42  1  0  0  0  0
 16 43  1  0  0  0  0
 17 44  1  0  0  0  0
 17 45  1  0  0  0  0
 18 46  1  0  0  0  0
 18 47  1  0  0  0  0
 18 48  1  0  0  0  0
 19 21  1  0  0  0  0
 20 23  1  0  0  0  0
 21 22  1  0  0  0  0
 22 24  1  0  0  0  0
 22 26  2  0  0  0  0
 23 29  2  0  0  0  0
 23 30  1  0  0  0  0
 24 25  1  0  0  0  0
 24 28  2  0  0  0  0
 25 27  2  0  0  0  0
 26 49  1  0  0  0  0
 27 31  1  0  0  0  0
 27 33  1  0  0  0  0
 28 32  1  0  0  0  0
 29 34  1  0  0  0  0
 29 51  1  0  0  0  0
 30 35  2  0  0  0  0
 30 52  1  0  0  0  0
 31 32  2  0  0  0  0
 31 53  1  0  0  0  0
 32 54  1  0  0  0  0
 34 36  2  0  0  0  0
 34 55  1  0  0  0  0
 35 36  1  0  0  0  0
 35 56  1  0  0  0  0
 36 57  1  0  0  0  0
 37 38  1  0  0  0  0
M  END
> <PUBCHEM_COMPOUND_CID>
507932
> <PUBCHEM_COMPOUND_CANONICALIZED>
1
> <PUBCHEM_CACTVS_COMPLEXITY>
917
> <PUBCHEM_CACTVS_HBOND_ACCEPTOR>
10
> <PUBCHEM_CACTVS_HBOND_DONOR>
1
> <PUBCHEM_CACTVS_ROTATABLE_BOND>
4
> <PUBCHEM_CACTVS_SUBSKEYS>
AAADceB7ucAAAAAAAAAAAAAAAAAAAWLAAAA8YIAAAAAAAFgB/AAAHwAUAAAADCzBnxw/0PfZkACpA7d3dgCCgCk1AKAp2aGoRNiIaPrA3bGUIYhghwLIycccicCegAACAAACAAAAAAQAAAQAAAAAAAAAAA==
> <PUBCHEM_IUPAC_OPENEYE_NAME>
1-[(2R)-4-benzoyl-2-methyl-piperazin-1-yl]-2-[4-fluoro-7-[5-(trifluoromethyl)-1,2,4-oxadiazol-3-yl]-1H-indol-3-yl]ethane-1,2-dione
> <PUBCHEM_IUPAC_CAS_NAME>
1-[(2R)-4-benzoyl-2-methyl-1-piperazinyl]-2-[4-fluoro-7-[5-(trifluoromethyl)-1,2,4-oxadiazol-3-yl]-1H-indol-3-yl]ethane-1,2-dione
> <PUBCHEM_IUPAC_NAME_MARKUP>
1-[(2<I>R</I>)-4-benzoyl-2-methylpiperazin-1-yl]-2-[4-fluoro-7-[5-(trifluoromethyl)-1,2,4-oxadiazol-3-yl]-1<I>H</I>-indol-3-yl]ethane-1,2-dione
> <PUBCHEM_IUPAC_NAME>
1-[(2R)-4-benzoyl-2-methylpiperazin-1-yl]-2-[4-fluoro-7-[5-(trifluoromethyl)-1,2,4-oxadiazol-3-yl]-1H-indol-3-yl]ethane-1,2-dione
> <PUBCHEM_IUPAC_SYSTEMATIC_NAME>
1-[4-fluoranyl-7-[5-(trifluoromethyl)-1,2,4-oxadiazol-3-yl]-1H-indol-3-yl]-2-[(2R)-2-methyl-4-(phenylcarbonyl)piperazin-1-yl]ethane-1,2-dione
> <PUBCHEM_IUPAC_TRADITIONAL_NAME>
1-[(2R)-4-benzoyl-2-methyl-piperazino]-2-[4-fluoro-7-[5-(trifluoromethyl)-1,2,4-oxadiazol-3-yl]-1H-indol-3-yl]ethane-1,2-dione
> <PUBCHEM_IUPAC_INCHI>
InChI=1S/C25H19F4N5O4/c1-13-12-33(22(36)14-5-3-2-4-6-14)9-10-34(13)23(37)20(35)16-11-30-19-15(7-8-17(26)18(16)19)21-31-24(38-32-21)25(27,28)29/h2-8,11,13,30H,9-10,12H2,1H3/t13-/m1/s1
> <PUBCHEM_IUPAC_INCHIKEY>
APIIORSEDPHACR-CYBMUJFWSA-N
> <PUBCHEM_XLOGP3_AA>
3.7
> <PUBCHEM_EXACT_MASS>
529.13731675
> <PUBCHEM_MOLECULAR_FORMULA>
C25H19F4N5O4
> <PUBCHEM_MOLECULAR_WEIGHT>
529.4
> <PUBCHEM_OPENEYE_CAN_SMILES>
CC1CN(CCN1C(=O)C(=O)C2=CNC3=C(C=CC(=C23)F)C4=NOC(=N4)C(F)(F)F)C(=O)C5=CC=CC=C5
> <PUBCHEM_OPENEYE_ISO_SMILES>
C[C@@H]1CN(CCN1C(=O)C(=O)C2=CNC3=C(C=CC(=C23)F)C4=NOC(=N4)C(F)(F)F)C(=O)C5=CC=CC=C5
> <PUBCHEM_CACTVS_TPSA>
112
> <PUBCHEM_MONOISOTOPIC_WEIGHT>
529.13731675
> <PUBCHEM_TOTAL_CHARGE>
0
> <PUBCHEM_HEAVY_ATOM_COUNT>
38
> <PUBCHEM_ATOM_DEF_STEREO_COUNT>
1
> <PUBCHEM_ATOM_UDEF_STEREO_COUNT>
0
> <PUBCHEM_BOND_DEF_STEREO_COUNT>
0
> <PUBCHEM_BOND_UDEF_STEREO_COUNT>
0
> <PUBCHEM_ISOTOPIC_ATOM_COUNT>
0
> <PUBCHEM_COMPONENT_COUNT>
1
> <PUBCHEM_CACTVS_TAUTO_COUNT>
-1
> <PUBCHEM_COORDINATE_TYPE>
1
5
255
> <PUBCHEM_BONDANNOTATIONS>
11  25  8
11  26  8
12  33  8
12  37  8
13  33  8
14  18  5
22  24  8
22  26  8
23  29  8
23  30  8
24  25  8
24  28  8
25  27  8
27  31  8
28  32  8
29  34  8
30  35  8
31  32  8
34  36  8
35  36  8
8  13  8
8  37  8
$$$$
