508065
  -OEChem-10302200282D
 52 53  0     1  0  0  0  0  0999 V2000
    8.7215    1.2984    0.0000 O   0  0  0  0  0  0  0  0  0  0  0  0
    4.5700    1.6939    0.0000 O   0  0  0  0  0  0  0  0  0  0  0  0
    7.1962   -3.0849    0.0000 O   0  0  0  0  0  0  0  0  0  0  0  0
    5.4641   -3.0849    0.0000 O   0  0  0  0  0  0  0  0  0  0  0  0
    6.3301    1.4151    0.0000 N   0  0  0  0  0  0  0  0  0  0  0  0
    8.2981    3.2900    0.0000 N   0  0  0  0  0  0  0  0  0  0  0  0
    4.5981    0.4151    0.0000 N   0  0  0  0  0  0  0  0  0  0  0  0
    7.1391    2.0029    0.0000 C   0  0  3  0  0  0  0  0  0  0  0  0
    6.8301    2.9539    0.0000 C   0  0  0  0  0  0  0  0  0  0  0  0
    5.8301    2.9539    0.0000 C   0  0  0  0  0  0  0  0  0  0  0  0
    8.0902    2.3119    0.0000 C   0  0  0  0  0  0  0  0  0  0  0  0
    7.7269    1.1939    0.0000 C   0  0  0  0  0  0  0  0  0  0  0  0
    5.5211    2.0029    0.0000 C   0  0  0  0  0  0  0  0  0  0  0  0
    6.3301    0.4151    0.0000 C   0  0  0  0  0  0  0  0  0  0  0  0
    5.4641   -0.0849    0.0000 C   0  0  0  0  0  0  0  0  0  0  0  0
    7.1962   -0.0849    0.0000 C   0  0  0  0  0  0  0  0  0  0  0  0
    3.7320   -0.0849    0.0000 C   0  0  0  0  0  0  0  0  0  0  0  0
    5.4641   -1.0849    0.0000 C   0  0  0  0  0  0  0  0  0  0  0  0
    2.8660    0.4151    0.0000 C   0  0  0  0  0  0  0  0  0  0  0  0
    3.7320   -1.0849    0.0000 C   0  0  0  0  0  0  0  0  0  0  0  0
    7.1962   -1.0849    0.0000 C   0  0  0  0  0  0  0  0  0  0  0  0
    6.3301   -1.5849    0.0000 C   0  0  0  0  0  0  0  0  0  0  0  0
    2.0000   -0.0849    0.0000 C   0  0  0  0  0  0  0  0  0  0  0  0
    2.8660   -1.5849    0.0000 C   0  0  0  0  0  0  0  0  0  0  0  0
    6.3301   -2.5849    0.0000 C   0  0  0  0  0  0  0  0  0  0  0  0
    7.4366    3.0828    0.0000 H   0  0  0  0  0  0  0  0  0  0  0  0
    6.7653    3.5705    0.0000 H   0  0  0  0  0  0  0  0  0  0  0  0
    5.8949    3.5705    0.0000 H   0  0  0  0  0  0  0  0  0  0  0  0
    5.2237    3.0828    0.0000 H   0  0  0  0  0  0  0  0  0  0  0  0
    8.1765    1.6979    0.0000 H   0  0  0  0  0  0  0  0  0  0  0  0
    8.7098    2.2903    0.0000 H   0  0  0  0  0  0  0  0  0  0  0  0
    7.1697    0.9221    0.0000 H   0  0  0  0  0  0  0  0  0  0  0  0
    7.8978    0.5979    0.0000 H   0  0  0  0  0  0  0  0  0  0  0  0
    8.8878    3.4816    0.0000 H   0  0  0  0  0  0  0  0  0  0  0  0
    7.8374    3.7049    0.0000 H   0  0  0  0  0  0  0  0  0  0  0  0
    7.7331    0.2251    0.0000 H   0  0  0  0  0  0  0  0  0  0  0  0
    3.7320    0.5351    0.0000 H   0  0  0  0  0  0  0  0  0  0  0  0
    4.5981    1.0351    0.0000 H   0  0  0  0  0  0  0  0  0  0  0  0
    9.0859    0.7968    0.0000 H   0  0  0  0  0  0  0  0  0  0  0  0
    4.9272   -1.3949    0.0000 H   0  0  0  0  0  0  0  0  0  0  0  0
    3.2646    0.8900    0.0000 H   0  0  0  0  0  0  0  0  0  0  0  0
    2.4675    0.8900    0.0000 H   0  0  0  0  0  0  0  0  0  0  0  0
    3.9441   -1.6675    0.0000 H   0  0  0  0  0  0  0  0  0  0  0  0
    4.3426   -0.9772    0.0000 H   0  0  0  0  0  0  0  0  0  0  0  0
    7.7331   -1.3949    0.0000 H   0  0  0  0  0  0  0  0  0  0  0  0
    1.6900    0.4520    0.0000 H   0  0  0  0  0  0  0  0  0  0  0  0
    1.4631   -0.3949    0.0000 H   0  0  0  0  0  0  0  0  0  0  0  0
    2.3100   -0.6218    0.0000 H   0  0  0  0  0  0  0  0  0  0  0  0
    2.5560   -1.0480    0.0000 H   0  0  0  0  0  0  0  0  0  0  0  0
    2.3291   -1.8949    0.0000 H   0  0  0  0  0  0  0  0  0  0  0  0
    3.1760   -2.1218    0.0000 H   0  0  0  0  0  0  0  0  0  0  0  0
    7.1962   -3.7049    0.0000 H   0  0  0  0  0  0  0  0  0  0  0  0
  1 12  1  0  0  0  0
  1 39  1  0  0  0  0
  2 13  2  0  0  0  0
  3 25  1  0  0  0  0
  3 52  1  0  0  0  0
  4 25  2  0  0  0  0
  5  8  1  0  0  0  0
  5 13  1  0  0  0  0
  5 14  1  0  0  0  0
  6 11  1  0  0  0  0
  6 34  1  0  0  0  0
  6 35  1  0  0  0  0
  7 15  1  0  0  0  0
  7 17  1  0  0  0  0
  7 38  1  0  0  0  0
  8  9  1  0  0  0  0
  8 11  1  0  0  0  0
  8 12  1  0  0  0  0
  9 10  1  0  0  0  0
  9 26  1  0  0  0  0
  9 27  1  0  0  0  0
 10 13  1  0  0  0  0
 10 28  1  0  0  0  0
 10 29  1  0  0  0  0
 11 30  1  0  0  0  0
 11 31  1  0  0  0  0
 12 32  1  0  0  0  0
 12 33  1  0  0  0  0
 14 15  2  0  0  0  0
 14 16  1  0  0  0  0
 15 18  1  0  0  0  0
 16 21  2  0  0  0  0
 16 36  1  0  0  0  0
 17 19  1  0  0  0  0
 17 20  1  0  0  0  0
 17 37  1  0  0  0  0
 18 22  2  0  0  0  0
 18 40  1  0  0  0  0
 19 23  1  0  0  0  0
 19 41  1  0  0  0  0
 19 42  1  0  0  0  0
 20 24  1  0  0  0  0
 20 43  1  0  0  0  0
 20 44  1  0  0  0  0
 21 22  1  0  0  0  0
 21 45  1  0  0  0  0
 22 25  1  0  0  0  0
 23 46  1  0  0  0  0
 23 47  1  0  0  0  0
 23 48  1  0  0  0  0
 24 49  1  0  0  0  0
 24 50  1  0  0  0  0
 24 51  1  0  0  0  0
M  END
> <PUBCHEM_COMPOUND_CID>
508065
> <PUBCHEM_COMPOUND_CANONICALIZED>
1
> <PUBCHEM_CACTVS_COMPLEXITY>
483
> <PUBCHEM_CACTVS_HBOND_ACCEPTOR>
6
> <PUBCHEM_CACTVS_HBOND_DONOR>
4
> <PUBCHEM_CACTVS_ROTATABLE_BOND>
8
> <PUBCHEM_CACTVS_SUBSKEYS>
AAADceB7OAAAAAAAAAAAAAAAAAAAAWAAAAAwAAAAAAAAAAABAAAAHgAQCAAADKjhmAYyyIPAAgCIAiXSWACCAAAlAgAIiIEIfMgKdjLAlZGUcQhm1AHY2Ye83SOeCAAAQAAAACAQAACAAAAAQAAAAAAAAA==
> <PUBCHEM_IUPAC_OPENEYE_NAME>
4-[2-(aminomethyl)-2-(hydroxymethyl)-5-oxo-pyrrolidin-1-yl]-3-(1-ethylpropylamino)benzoic acid
> <PUBCHEM_IUPAC_CAS_NAME>
4-[2-(aminomethyl)-2-(hydroxymethyl)-5-oxo-1-pyrrolidinyl]-3-(pentan-3-ylamino)benzoic acid
> <PUBCHEM_IUPAC_NAME_MARKUP>
4-[2-(aminomethyl)-2-(hydroxymethyl)-5-oxopyrrolidin-1-yl]-3-(pentan-3-ylamino)benzoic acid
> <PUBCHEM_IUPAC_NAME>
4-[2-(aminomethyl)-2-(hydroxymethyl)-5-oxopyrrolidin-1-yl]-3-(pentan-3-ylamino)benzoic acid
> <PUBCHEM_IUPAC_SYSTEMATIC_NAME>
4-[2-(aminomethyl)-2-(hydroxymethyl)-5-oxidanylidene-pyrrolidin-1-yl]-3-(pentan-3-ylamino)benzoic acid
> <PUBCHEM_IUPAC_TRADITIONAL_NAME>
4-[2-(aminomethyl)-5-keto-2-methylol-pyrrolidino]-3-(1-ethylpropylamino)benzoic acid
> <PUBCHEM_IUPAC_INCHI>
InChI=1S/C18H27N3O4/c1-3-13(4-2)20-14-9-12(17(24)25)5-6-15(14)21-16(23)7-8-18(21,10-19)11-22/h5-6,9,13,20,22H,3-4,7-8,10-11,19H2,1-2H3,(H,24,25)
> <PUBCHEM_IUPAC_INCHIKEY>
ZEZFFRWWHKSMEB-UHFFFAOYSA-N
> <PUBCHEM_XLOGP3_AA>
-1.3
> <PUBCHEM_EXACT_MASS>
349.20015635
> <PUBCHEM_MOLECULAR_FORMULA>
C18H27N3O4
> <PUBCHEM_MOLECULAR_WEIGHT>
349.4
> <PUBCHEM_OPENEYE_CAN_SMILES>
CCC(CC)NC1=C(C=CC(=C1)C(=O)O)N2C(=O)CCC2(CN)CO
> <PUBCHEM_OPENEYE_ISO_SMILES>
CCC(CC)NC1=C(C=CC(=C1)C(=O)O)N2C(=O)CCC2(CN)CO
> <PUBCHEM_CACTVS_TPSA>
116
> <PUBCHEM_MONOISOTOPIC_WEIGHT>
349.20015635
> <PUBCHEM_TOTAL_CHARGE>
0
> <PUBCHEM_HEAVY_ATOM_COUNT>
25
> <PUBCHEM_ATOM_DEF_STEREO_COUNT>
0
> <PUBCHEM_ATOM_UDEF_STEREO_COUNT>
1
> <PUBCHEM_BOND_DEF_STEREO_COUNT>
0
> <PUBCHEM_BOND_UDEF_STEREO_COUNT>
0
> <PUBCHEM_ISOTOPIC_ATOM_COUNT>
0
> <PUBCHEM_COMPONENT_COUNT>
1
> <PUBCHEM_CACTVS_TAUTO_COUNT>
-1
> <PUBCHEM_COORDINATE_TYPE>
1
5
255
> <PUBCHEM_BONDANNOTATIONS>
14  15  8
14  16  8
15  18  8
16  21  8
18  22  8
21  22  8
8  11  3
$$$$
