508021
  -OEChem-10302200282D
 69 73  0     1  0  0  0  0  0999 V2000
    4.5981    1.1867    0.0000 F   0  0  0  0  0  0  0  0  0  0  0  0
    5.4641   -3.3133    0.0000 O   0  0  0  0  0  0  0  0  0  0  0  0
    8.3673    0.4039    0.0000 O   0  0  0  0  0  0  0  0  0  0  0  0
    6.0531    1.6863    0.0000 O   0  0  0  0  0  0  0  0  0  0  0  0
    8.2743    5.6946    0.0000 O   0  0  0  0  0  0  0  0  0  0  0  0
    3.7320   -3.3133    0.0000 N   0  0  0  0  0  0  0  0  0  0  0  0
    8.0102    2.0987    0.0000 N   0  0  0  0  0  0  0  0  0  0  0  0
    8.6315    3.9998    0.0000 N   0  0  0  0  0  0  0  0  0  0  0  0
    6.4103   -1.6180    0.0000 N   0  0  0  0  0  0  0  0  0  0  0  0
    2.8660   -4.8133    0.0000 C   0  0  3  0  0  0  0  0  0  0  0  0
    3.7320   -4.3133    0.0000 C   0  0  3  0  0  0  0  0  0  0  0  0
    2.8660   -5.8133    0.0000 C   0  0  0  0  0  0  0  0  0  0  0  0
    4.5981   -4.8133    0.0000 C   0  0  0  0  0  0  0  0  0  0  0  0
    3.7320   -6.3133    0.0000 C   0  0  0  0  0  0  0  0  0  0  0  0
    4.5981   -5.8133    0.0000 C   0  0  0  0  0  0  0  0  0  0  0  0
    2.0000   -4.3133    0.0000 C   0  0  0  0  0  0  0  0  0  0  0  0
    4.5981   -2.8133    0.0000 C   0  0  0  0  0  0  0  0  0  0  0  0
    4.5981   -1.8133    0.0000 C   0  0  0  0  0  0  0  0  0  0  0  0
    8.9887    2.3050    0.0000 C   0  0  0  0  0  0  0  0  0  0  0  0
    7.3423    2.8430    0.0000 C   0  0  0  0  0  0  0  0  0  0  0  0
    9.2993    3.2555    0.0000 C   0  0  0  0  0  0  0  0  0  0  0  0
    7.6530    3.7936    0.0000 C   0  0  0  0  0  0  0  0  0  0  0  0
    5.4641   -1.3133    0.0000 C   0  0  0  0  0  0  0  0  0  0  0  0
    5.4641   -0.3133    0.0000 C   0  0  0  0  0  0  0  0  0  0  0  0
    6.4103   -0.0085    0.0000 C   0  0  0  0  0  0  0  0  0  0  0  0
    3.7320   -1.3133    0.0000 C   0  0  0  0  0  0  0  0  0  0  0  0
    7.6995    1.1482    0.0000 C   0  0  0  0  0  0  0  0  0  0  0  0
    6.7210    0.9420    0.0000 C   0  0  0  0  0  0  0  0  0  0  0  0
    6.9939   -0.8133    0.0000 C   0  0  0  0  0  0  0  0  0  0  0  0
    4.5981    0.1867    0.0000 C   0  0  0  0  0  0  0  0  0  0  0  0
    8.9421    4.9503    0.0000 C   0  0  0  0  0  0  0  0  0  0  0  0
    3.7320   -0.3133    0.0000 C   0  0  0  0  0  0  0  0  0  0  0  0
    9.9206    5.1565    0.0000 C   0  0  0  0  0  0  0  0  0  0  0  0
   10.2313    6.1070    0.0000 C   0  0  0  0  0  0  0  0  0  0  0  0
   10.5885    4.4122    0.0000 C   0  0  0  0  0  0  0  0  0  0  0  0
   11.2098    6.3133    0.0000 C   0  0  0  0  0  0  0  0  0  0  0  0
   11.5670    4.6184    0.0000 C   0  0  0  0  0  0  0  0  0  0  0  0
   11.8777    5.5690    0.0000 C   0  0  0  0  0  0  0  0  0  0  0  0
    2.8660   -4.1933    0.0000 H   0  0  0  0  0  0  0  0  0  0  0  0
    4.2690   -4.0033    0.0000 H   0  0  0  0  0  0  0  0  0  0  0  0
    2.2554   -5.7056    0.0000 H   0  0  0  0  0  0  0  0  0  0  0  0
    2.6540   -6.3959    0.0000 H   0  0  0  0  0  0  0  0  0  0  0  0
    5.2087   -4.9209    0.0000 H   0  0  0  0  0  0  0  0  0  0  0  0
    4.8101   -4.2306    0.0000 H   0  0  0  0  0  0  0  0  0  0  0  0
    3.3335   -6.7882    0.0000 H   0  0  0  0  0  0  0  0  0  0  0  0
    4.1306   -6.7882    0.0000 H   0  0  0  0  0  0  0  0  0  0  0  0
    4.8101   -6.3959    0.0000 H   0  0  0  0  0  0  0  0  0  0  0  0
    5.2087   -5.7056    0.0000 H   0  0  0  0  0  0  0  0  0  0  0  0
    2.3100   -3.7763    0.0000 H   0  0  0  0  0  0  0  0  0  0  0  0
    1.4631   -4.0033    0.0000 H   0  0  0  0  0  0  0  0  0  0  0  0
    1.6900   -4.8502    0.0000 H   0  0  0  0  0  0  0  0  0  0  0  0
    3.1951   -3.0033    0.0000 H   0  0  0  0  0  0  0  0  0  0  0  0
    9.0092    1.6853    0.0000 H   0  0  0  0  0  0  0  0  0  0  0  0
    9.6025    2.2176    0.0000 H   0  0  0  0  0  0  0  0  0  0  0  0
    6.7954    3.1351    0.0000 H   0  0  0  0  0  0  0  0  0  0  0  0
    6.9598    2.3551    0.0000 H   0  0  0  0  0  0  0  0  0  0  0  0
    9.8462    2.9635    0.0000 H   0  0  0  0  0  0  0  0  0  0  0  0
    9.6819    3.7434    0.0000 H   0  0  0  0  0  0  0  0  0  0  0  0
    7.6324    4.4132    0.0000 H   0  0  0  0  0  0  0  0  0  0  0  0
    7.0392    3.8809    0.0000 H   0  0  0  0  0  0  0  0  0  0  0  0
    3.1951   -1.6233    0.0000 H   0  0  0  0  0  0  0  0  0  0  0  0
    6.6029   -2.2073    0.0000 H   0  0  0  0  0  0  0  0  0  0  0  0
    7.6139   -0.8133    0.0000 H   0  0  0  0  0  0  0  0  0  0  0  0
    3.1951   -0.0033    0.0000 H   0  0  0  0  0  0  0  0  0  0  0  0
    9.8172    6.5685    0.0000 H   0  0  0  0  0  0  0  0  0  0  0  0
   10.3959    3.8229    0.0000 H   0  0  0  0  0  0  0  0  0  0  0  0
   11.4024    6.9026    0.0000 H   0  0  0  0  0  0  0  0  0  0  0  0
   11.9811    4.1570    0.0000 H   0  0  0  0  0  0  0  0  0  0  0  0
   12.4843    5.6968    0.0000 H   0  0  0  0  0  0  0  0  0  0  0  0
  1 30  1  0  0  0  0
  2 17  2  0  0  0  0
  3 27  2  0  0  0  0
  4 28  2  0  0  0  0
  5 31  2  0  0  0  0
  6 11  1  0  0  0  0
  6 17  1  0  0  0  0
  6 52  1  0  0  0  0
  7 19  1  0  0  0  0
  7 20  1  0  0  0  0
  7 27  1  0  0  0  0
  8 21  1  0  0  0  0
  8 22  1  0  0  0  0
  8 31  1  0  0  0  0
  9 23  1  0  0  0  0
  9 29  1  0  0  0  0
  9 62  1  0  0  0  0
 10 11  1  0  0  0  0
 10 12  1  0  0  0  0
 10 16  1  0  0  0  0
 10 39  1  0  0  0  0
 11 13  1  0  0  0  0
 11 40  1  0  0  0  0
 12 14  1  0  0  0  0
 12 41  1  0  0  0  0
 12 42  1  0  0  0  0
 13 15  1  0  0  0  0
 13 43  1  0  0  0  0
 13 44  1  0  0  0  0
 14 15  1  0  0  0  0
 14 45  1  0  0  0  0
 14 46  1  0  0  0  0
 15 47  1  0  0  0  0
 15 48  1  0  0  0  0
 16 49  1  0  0  0  0
 16 50  1  0  0  0  0
 16 51  1  0  0  0  0
 17 18  1  0  0  0  0
 18 23  2  0  0  0  0
 18 26  1  0  0  0  0
 19 21  1  0  0  0  0
 19 53  1  0  0  0  0
 19 54  1  0  0  0  0
 20 22  1  0  0  0  0
 20 55  1  0  0  0  0
 20 56  1  0  0  0  0
 21 57  1  0  0  0  0
 21 58  1  0  0  0  0
 22 59  1  0  0  0  0
 22 60  1  0  0  0  0
 23 24  1  0  0  0  0
 24 25  1  0  0  0  0
 24 30  2  0  0  0  0
 25 28  1  0  0  0  0
 25 29  2  0  0  0  0
 26 32  2  0  0  0  0
 26 61  1  0  0  0  0
 27 28  1  0  0  0  0
 29 63  1  0  0  0  0
 30 32  1  0  0  0  0
 31 33  1  0  0  0  0
 32 64  1  0  0  0  0
 33 34  2  0  0  0  0
 33 35  1  0  0  0  0
 34 36  1  0  0  0  0
 34 65  1  0  0  0  0
 35 37  2  0  0  0  0
 35 66  1  0  0  0  0
 36 38  2  0  0  0  0
 36 67  1  0  0  0  0
 37 38  1  0  0  0  0
 37 68  1  0  0  0  0
 38 69  1  0  0  0  0
M  END
> <PUBCHEM_COMPOUND_CID>
508021
> <PUBCHEM_COMPOUND_CANONICALIZED>
1
> <PUBCHEM_CACTVS_COMPLEXITY>
901
> <PUBCHEM_CACTVS_HBOND_ACCEPTOR>
5
> <PUBCHEM_CACTVS_HBOND_DONOR>
2
> <PUBCHEM_CACTVS_ROTATABLE_BOND>
5
> <PUBCHEM_CACTVS_SUBSKEYS>
AAADceB7uQAAAAAAAAAAAAAAAAAAAWAAAAA8YMEAAAAAAFgB9AAAHwAQAAAADSzBngw+wPPJkACoA7V3VACCgCA1ACAI2aGoRNgIYPrA1bGUIYhglgDIycccicCegAACAAACAAAAAAQAAAQAAAAAAAAAAA==
> <PUBCHEM_IUPAC_OPENEYE_NAME>
3-[2-(4-benzoylpiperazin-1-yl)-2-oxo-acetyl]-4-fluoro-N-(2-methylcyclohexyl)-1H-indole-7-carboxamide
> <PUBCHEM_IUPAC_CAS_NAME>
3-[2-(4-benzoyl-1-piperazinyl)-1,2-dioxoethyl]-4-fluoro-N-(2-methylcyclohexyl)-1H-indole-7-carboxamide
> <PUBCHEM_IUPAC_NAME_MARKUP>
3-[2-(4-benzoylpiperazin-1-yl)-2-oxoacetyl]-4-fluoro-<I>N</I>-(2-methylcyclohexyl)-1<I>H</I>-indole-7-carboxamide
> <PUBCHEM_IUPAC_NAME>
3-[2-(4-benzoylpiperazin-1-yl)-2-oxoacetyl]-4-fluoro-N-(2-methylcyclohexyl)-1H-indole-7-carboxamide
> <PUBCHEM_IUPAC_SYSTEMATIC_NAME>
4-fluoranyl-N-(2-methylcyclohexyl)-3-[2-oxidanylidene-2-[4-(phenylcarbonyl)piperazin-1-yl]ethanoyl]-1H-indole-7-carboxamide
> <PUBCHEM_IUPAC_TRADITIONAL_NAME>
3-[2-(4-benzoylpiperazino)-2-keto-acetyl]-4-fluoro-N-(2-methylcyclohexyl)-1H-indole-7-carboxamide
> <PUBCHEM_IUPAC_INCHI>
InChI=1S/C29H31FN4O4/c1-18-7-5-6-10-23(18)32-27(36)20-11-12-22(30)24-21(17-31-25(20)24)26(35)29(38)34-15-13-33(14-16-34)28(37)19-8-3-2-4-9-19/h2-4,8-9,11-12,17-18,23,31H,5-7,10,13-16H2,1H3,(H,32,36)
> <PUBCHEM_IUPAC_INCHIKEY>
OXOIHGLTKKKIGD-UHFFFAOYSA-N
> <PUBCHEM_XLOGP3_AA>
3.9
> <PUBCHEM_EXACT_MASS>
518.23293364
> <PUBCHEM_MOLECULAR_FORMULA>
C29H31FN4O4
> <PUBCHEM_MOLECULAR_WEIGHT>
518.6
> <PUBCHEM_OPENEYE_CAN_SMILES>
CC1CCCCC1NC(=O)C2=C3C(=C(C=C2)F)C(=CN3)C(=O)C(=O)N4CCN(CC4)C(=O)C5=CC=CC=C5
> <PUBCHEM_OPENEYE_ISO_SMILES>
CC1CCCCC1NC(=O)C2=C3C(=C(C=C2)F)C(=CN3)C(=O)C(=O)N4CCN(CC4)C(=O)C5=CC=CC=C5
> <PUBCHEM_CACTVS_TPSA>
103
> <PUBCHEM_MONOISOTOPIC_WEIGHT>
518.23293364
> <PUBCHEM_TOTAL_CHARGE>
0
> <PUBCHEM_HEAVY_ATOM_COUNT>
38
> <PUBCHEM_ATOM_DEF_STEREO_COUNT>
0
> <PUBCHEM_ATOM_UDEF_STEREO_COUNT>
2
> <PUBCHEM_BOND_DEF_STEREO_COUNT>
0
> <PUBCHEM_BOND_UDEF_STEREO_COUNT>
0
> <PUBCHEM_ISOTOPIC_ATOM_COUNT>
0
> <PUBCHEM_COMPONENT_COUNT>
1
> <PUBCHEM_CACTVS_TAUTO_COUNT>
-1
> <PUBCHEM_COORDINATE_TYPE>
1
5
255
> <PUBCHEM_BONDANNOTATIONS>
10  16  3
18  23  8
18  26  8
23  24  8
24  25  8
24  30  8
25  29  8
26  32  8
30  32  8
33  34  8
33  35  8
34  36  8
35  37  8
36  38  8
37  38  8
11  6  3
9  23  8
9  29  8
$$$$
