508029
  -OEChem-10302200282D
 50 52  0     1  0  0  0  0  0999 V2000
    7.4260    0.1203    0.0000 O   0  0  0  0  0  0  0  0  0  0  0  0
    3.9061    0.1203    0.0000 O   0  0  0  0  0  0  0  0  0  0  0  0
    5.6660    3.1550    0.0000 O   0  0  0  0  0  0  0  0  0  0  0  0
    7.4144    3.1896    0.0000 O   0  0  0  0  0  0  0  0  0  0  0  0
    3.9340   -2.8450    0.0000 O   0  0  0  0  0  0  0  0  0  0  0  0
    5.6660   -2.8450    0.0000 O   0  0  0  0  0  0  0  0  0  0  0  0
    5.6660    0.1550    0.0000 C   0  0  0  0  0  0  0  0  0  0  0  0
    8.3321    1.6758    0.0000 C   0  0  1  0  0  0  0  0  0  0  0  0
    8.3321    0.6342    0.0000 C   0  0  2  0  0  0  0  0  0  0  0  0
    6.5320    0.6550    0.0000 C   0  0  0  0  0  0  0  0  0  0  0  0
    5.6660   -0.8450    0.0000 C   0  0  3  0  0  0  0  0  0  0  0  0
    6.5320    1.6550    0.0000 C   0  0  0  0  0  0  0  0  0  0  0  0
    4.8000    0.6550    0.0000 C   0  0  0  0  0  0  0  0  0  0  0  0
    4.8000    1.6550    0.0000 C   0  0  0  0  0  0  0  0  0  0  0  0
    7.4260    2.1897    0.0000 C   0  0  0  0  0  0  0  0  0  0  0  0
    3.0000    0.6342    0.0000 C   0  0  0  0  0  0  0  0  0  0  0  0
    5.6660    2.1550    0.0000 C   0  0  0  0  0  0  0  0  0  0  0  0
    4.8000   -1.3450    0.0000 C   0  0  0  0  0  0  0  0  0  0  0  0
    9.1962    2.1792    0.0000 C   0  0  0  0  0  0  0  0  0  0  0  0
    9.1962    0.1308    0.0000 C   0  0  0  0  0  0  0  0  0  0  0  0
    3.9061    2.1897    0.0000 C   0  0  0  0  0  0  0  0  0  0  0  0
    3.0000    1.6758    0.0000 C   0  0  0  0  0  0  0  0  0  0  0  0
    6.5320   -1.3450    0.0000 C   0  0  0  0  0  0  0  0  0  0  0  0
    2.0000    0.6303    0.0000 C   0  0  0  0  0  0  0  0  0  0  0  0
    2.5033   -0.2338    0.0000 C   0  0  0  0  0  0  0  0  0  0  0  0
    4.8000   -2.3450    0.0000 C   0  0  0  0  0  0  0  0  0  0  0  0
    8.3285    2.2958    0.0000 H   0  0  0  0  0  0  0  0  0  0  0  0
    8.3285    0.0142    0.0000 H   0  0  0  0  0  0  0  0  0  0  0  0
    6.2030   -0.5350    0.0000 H   0  0  0  0  0  0  0  0  0  0  0  0
    4.5880   -0.7624    0.0000 H   0  0  0  0  0  0  0  0  0  0  0  0
    4.1894   -1.4527    0.0000 H   0  0  0  0  0  0  0  0  0  0  0  0
    9.5082    1.6434    0.0000 H   0  0  0  0  0  0  0  0  0  0  0  0
    9.7319    2.4912    0.0000 H   0  0  0  0  0  0  0  0  0  0  0  0
    8.8841    2.7149    0.0000 H   0  0  0  0  0  0  0  0  0  0  0  0
    8.8841   -0.4049    0.0000 H   0  0  0  0  0  0  0  0  0  0  0  0
    9.7319   -0.1812    0.0000 H   0  0  0  0  0  0  0  0  0  0  0  0
    9.5082    0.6666    0.0000 H   0  0  0  0  0  0  0  0  0  0  0  0
    3.9132    2.8096    0.0000 H   0  0  0  0  0  0  0  0  0  0  0  0
    2.4643    1.9879    0.0000 H   0  0  0  0  0  0  0  0  0  0  0  0
    6.2220   -1.8819    0.0000 H   0  0  0  0  0  0  0  0  0  0  0  0
    7.0690   -1.6550    0.0000 H   0  0  0  0  0  0  0  0  0  0  0  0
    6.8420   -0.8081    0.0000 H   0  0  0  0  0  0  0  0  0  0  0  0
    1.9976    1.2503    0.0000 H   0  0  0  0  0  0  0  0  0  0  0  0
    1.3800    0.6279    0.0000 H   0  0  0  0  0  0  0  0  0  0  0  0
    2.0024    0.0103    0.0000 H   0  0  0  0  0  0  0  0  0  0  0  0
    1.9652    0.0742    0.0000 H   0  0  0  0  0  0  0  0  0  0  0  0
    2.1954   -0.7719    0.0000 H   0  0  0  0  0  0  0  0  0  0  0  0
    3.0415   -0.5417    0.0000 H   0  0  0  0  0  0  0  0  0  0  0  0
    5.1291    3.4650    0.0000 H   0  0  0  0  0  0  0  0  0  0  0  0
    3.9340   -3.4650    0.0000 H   0  0  0  0  0  0  0  0  0  0  0  0
  1  9  1  0  0  0  0
  1 10  1  0  0  0  0
  2 13  1  0  0  0  0
  2 16  1  0  0  0  0
  3 17  1  0  0  0  0
  3 49  1  0  0  0  0
  4 15  2  0  0  0  0
  5 26  1  0  0  0  0
  5 50  1  0  0  0  0
  6 26  2  0  0  0  0
  7 10  1  0  0  0  0
  7 11  1  0  0  0  0
  7 13  2  0  0  0  0
  8  9  1  0  0  0  0
  8 15  1  0  0  0  0
  8 19  1  1  0  0  0
  8 27  1  0  0  0  0
  9 20  1  6  0  0  0
  9 28  1  0  0  0  0
 10 12  2  0  0  0  0
 11 18  1  0  0  0  0
 11 23  1  0  0  0  0
 11 29  1  0  0  0  0
 12 15  1  0  0  0  0
 12 17  1  0  0  0  0
 13 14  1  0  0  0  0
 14 17  2  0  0  0  0
 14 21  1  0  0  0  0
 16 22  1  0  0  0  0
 16 24  1  0  0  0  0
 16 25  1  0  0  0  0
 18 26  1  0  0  0  0
 18 30  1  0  0  0  0
 18 31  1  0  0  0  0
 19 32  1  0  0  0  0
 19 33  1  0  0  0  0
 19 34  1  0  0  0  0
 20 35  1  0  0  0  0
 20 36  1  0  0  0  0
 20 37  1  0  0  0  0
 21 22  2  0  0  0  0
 21 38  1  0  0  0  0
 22 39  1  0  0  0  0
 23 40  1  0  0  0  0
 23 41  1  0  0  0  0
 23 42  1  0  0  0  0
 24 43  1  0  0  0  0
 24 44  1  0  0  0  0
 24 45  1  0  0  0  0
 25 46  1  0  0  0  0
 25 47  1  0  0  0  0
 25 48  1  0  0  0  0
M  END
> <PUBCHEM_COMPOUND_CID>
508029
> <PUBCHEM_COMPOUND_CANONICALIZED>
1
> <PUBCHEM_CACTVS_COMPLEXITY>
611
> <PUBCHEM_CACTVS_HBOND_ACCEPTOR>
6
> <PUBCHEM_CACTVS_HBOND_DONOR>
2
> <PUBCHEM_CACTVS_ROTATABLE_BOND>
3
> <PUBCHEM_CACTVS_SUBSKEYS>
AAADceB4OAAAAAAAAAAAAAAAAAAAAAAAAAA0QIAAAAAAAACRAAAAGgAACAAADVSgmAICDoAABgCIAqDSCAACCAAkIAAIiAEECMgMJzaGNBqCeWCl4BUIuQeI7PzOoAACCAAIAABAAAQQABAAAAAAAAAAAA==
> <PUBCHEM_IUPAC_OPENEYE_NAME>
3-[(7S,8S)-5-hydroxy-2,2,7,8-tetramethyl-6-oxo-7,8-dihydropyrano[3,2-g]chromen-10-yl]butanoic acid
> <PUBCHEM_IUPAC_CAS_NAME>
3-[(7S,8S)-5-hydroxy-2,2,7,8-tetramethyl-6-oxo-7,8-dihydropyrano[3,2-g][1]benzopyran-10-yl]butanoic acid
> <PUBCHEM_IUPAC_NAME_MARKUP>
3-[(7<I>S</I>,8<I>S</I>)-5-hydroxy-2,2,7,8-tetramethyl-6-oxo-7,8-dihydropyrano[3,2-g]chromen-10-yl]butanoic acid
> <PUBCHEM_IUPAC_NAME>
3-[(7S,8S)-5-hydroxy-2,2,7,8-tetramethyl-6-oxo-7,8-dihydropyrano[3,2-g]chromen-10-yl]butanoic acid
> <PUBCHEM_IUPAC_SYSTEMATIC_NAME>
3-[(7S,8S)-2,2,7,8-tetramethyl-5-oxidanyl-6-oxidanylidene-7,8-dihydropyrano[3,2-g]chromen-10-yl]butanoic acid
> <PUBCHEM_IUPAC_TRADITIONAL_NAME>
3-[(7S,8S)-5-hydroxy-6-keto-2,2,7,8-tetramethyl-7,8-dihydropyrano[3,2-g]chromen-10-yl]butyric acid
> <PUBCHEM_IUPAC_INCHI>
InChI=1S/C20H24O6/c1-9(8-13(21)22)14-18-12(6-7-20(4,5)26-18)17(24)15-16(23)10(2)11(3)25-19(14)15/h6-7,9-11,24H,8H2,1-5H3,(H,21,22)/t9?,10-,11-/m0/s1
> <PUBCHEM_IUPAC_INCHIKEY>
MRVZBYVLLGHZED-DVRYWGNFSA-N
> <PUBCHEM_XLOGP3_AA>
3.6
> <PUBCHEM_EXACT_MASS>
360.15728848
> <PUBCHEM_MOLECULAR_FORMULA>
C20H24O6
> <PUBCHEM_MOLECULAR_WEIGHT>
360.4
> <PUBCHEM_OPENEYE_CAN_SMILES>
CC1C(OC2=C(C1=O)C(=C3C=CC(OC3=C2C(C)CC(=O)O)(C)C)O)C
> <PUBCHEM_OPENEYE_ISO_SMILES>
C[C@H]1[C@@H](OC2=C(C1=O)C(=C3C=CC(OC3=C2C(C)CC(=O)O)(C)C)O)C
> <PUBCHEM_CACTVS_TPSA>
93.1
> <PUBCHEM_MONOISOTOPIC_WEIGHT>
360.15728848
> <PUBCHEM_TOTAL_CHARGE>
0
> <PUBCHEM_HEAVY_ATOM_COUNT>
26
> <PUBCHEM_ATOM_DEF_STEREO_COUNT>
2
> <PUBCHEM_ATOM_UDEF_STEREO_COUNT>
1
> <PUBCHEM_BOND_DEF_STEREO_COUNT>
0
> <PUBCHEM_BOND_UDEF_STEREO_COUNT>
0
> <PUBCHEM_ISOTOPIC_ATOM_COUNT>
0
> <PUBCHEM_COMPONENT_COUNT>
1
> <PUBCHEM_CACTVS_TAUTO_COUNT>
-1
> <PUBCHEM_COORDINATE_TYPE>
1
5
255
> <PUBCHEM_BONDANNOTATIONS>
10  12  8
11  23  3
12  17  8
13  14  8
14  17  8
7  10  8
7  13  8
8  19  5
9  20  6
$$$$
