508058
  -OEChem-10302200282D
 41 44  0     1  0  0  0  0  0999 V2000
    4.6457    1.1134    0.0000 N   0  0  3  0  0  0  0  0  0  0  0  0
    4.5412    0.1189    0.0000 C   0  0  0  0  0  0  0  0  0  0  0  0
    3.6944    0.6078    0.0000 C   0  0  0  0  0  0  0  0  0  0  0  0
    4.5412   -0.8590    0.0000 C   0  0  0  0  0  0  0  0  0  0  0  0
    2.8475   -0.8590    0.0000 C   0  0  0  0  0  0  0  0  0  0  0  0
    2.9944   -1.2996    0.0000 C   0  0  0  0  0  0  0  0  0  0  0  0
    2.8475    0.1189    0.0000 C   0  0  0  0  0  0  0  0  0  0  0  0
    2.9944   -0.2410    0.0000 C   0  0  0  0  0  0  0  0  0  0  0  0
    3.6944   -1.1656    0.0000 C   0  0  0  0  0  0  0  0  0  0  0  0
    3.9117   -1.7825    0.0000 C   0  0  0  0  0  0  0  0  0  0  0  0
    5.4547   -0.2879    0.0000 C   0  0  3  0  0  0  0  0  0  0  0  0
    2.0000   -1.3479    0.0000 C   0  0  0  0  0  0  0  0  0  0  0  0
    6.1240    0.4552    0.0000 C   0  0  0  0  0  0  0  0  0  0  0  0
    5.6239    1.3213    0.0000 C   0  0  0  0  0  0  0  0  0  0  0  0
    5.6027   -1.2769    0.0000 C   0  0  0  0  0  0  0  0  0  0  0  0
    3.9026    1.7825    0.0000 C   0  0  0  0  0  0  0  0  0  0  0  0
    3.6944    1.2278    0.0000 H   0  0  0  0  0  0  0  0  0  0  0  0
    5.1337   -1.0417    0.0000 H   0  0  0  0  0  0  0  0  0  0  0  0
    3.3551   -0.5029    0.0000 H   0  0  0  0  0  0  0  0  0  0  0  0
    2.8603   -1.9050    0.0000 H   0  0  0  0  0  0  0  0  0  0  0  0
    2.6354    0.7015    0.0000 H   0  0  0  0  0  0  0  0  0  0  0  0
    2.2369    0.0112    0.0000 H   0  0  0  0  0  0  0  0  0  0  0  0
    2.6508    0.2751    0.0000 H   0  0  0  0  0  0  0  0  0  0  0  0
    2.4010   -0.4205    0.0000 H   0  0  0  0  0  0  0  0  0  0  0  0
    3.3244   -1.6632    0.0000 H   0  0  0  0  0  0  0  0  0  0  0  0
    4.0643   -1.6632    0.0000 H   0  0  0  0  0  0  0  0  0  0  0  0
    3.6023   -2.3198    0.0000 H   0  0  0  0  0  0  0  0  0  0  0  0
    4.4369   -2.1120    0.0000 H   0  0  0  0  0  0  0  0  0  0  0  0
    6.0484   -0.4666    0.0000 H   0  0  0  0  0  0  0  0  0  0  0  0
    1.5187   -0.9570    0.0000 H   0  0  0  0  0  0  0  0  0  0  0  0
    1.8068   -1.9371    0.0000 H   0  0  0  0  0  0  0  0  0  0  0  0
    6.5388   -0.0056    0.0000 H   0  0  0  0  0  0  0  0  0  0  0  0
    6.6256    0.8196    0.0000 H   0  0  0  0  0  0  0  0  0  0  0  0
    6.1902    1.5735    0.0000 H   0  0  0  0  0  0  0  0  0  0  0  0
    5.4322    1.9110    0.0000 H   0  0  0  0  0  0  0  0  0  0  0  0
    4.9895   -1.3686    0.0000 H   0  0  0  0  0  0  0  0  0  0  0  0
    5.6944   -1.8900    0.0000 H   0  0  0  0  0  0  0  0  0  0  0  0
    6.2158   -1.1852    0.0000 H   0  0  0  0  0  0  0  0  0  0  0  0
    4.3174    2.2433    0.0000 H   0  0  0  0  0  0  0  0  0  0  0  0
    3.4418    2.1974    0.0000 H   0  0  0  0  0  0  0  0  0  0  0  0
    3.4877    1.3218    0.0000 H   0  0  0  0  0  0  0  0  0  0  0  0
  1  2  1  0  0  0  0
  1 14  1  0  0  0  0
  1 16  1  0  0  0  0
  2  3  1  0  0  0  0
  2  4  1  0  0  0  0
  2 11  1  0  0  0  0
  3  7  1  0  0  0  0
  3  8  1  0  0  0  0
  3 17  1  0  0  0  0
  4  9  1  0  0  0  0
  4 10  1  0  0  0  0
  4 18  1  0  0  0  0
  5  7  1  0  0  0  0
  5  9  1  0  0  0  0
  5 12  1  0  0  0  0
  5 19  1  0  0  0  0
  6  8  1  0  0  0  0
  6 10  1  0  0  0  0
  6 12  1  0  0  0  0
  6 20  1  0  0  0  0
  7 21  1  0  0  0  0
  7 22  1  0  0  0  0
  8 23  1  0  0  0  0
  8 24  1  0  0  0  0
  9 25  1  0  0  0  0
  9 26  1  0  0  0  0
 10 27  1  0  0  0  0
 10 28  1  0  0  0  0
 11 13  1  0  0  0  0
 11 15  1  0  0  0  0
 11 29  1  0  0  0  0
 12 30  1  0  0  0  0
 12 31  1  0  0  0  0
 13 14  1  0  0  0  0
 13 32  1  0  0  0  0
 13 33  1  0  0  0  0
 14 34  1  0  0  0  0
 14 35  1  0  0  0  0
 15 36  1  0  0  0  0
 15 37  1  0  0  0  0
 15 38  1  0  0  0  0
 16 39  1  0  0  0  0
 16 40  1  0  0  0  0
 16 41  1  0  0  0  0
M  END
> <PUBCHEM_COMPOUND_CID>
508058
> <PUBCHEM_COMPOUND_CANONICALIZED>
1
> <PUBCHEM_CACTVS_COMPLEXITY>
281
> <PUBCHEM_CACTVS_HBOND_ACCEPTOR>
1
> <PUBCHEM_CACTVS_HBOND_DONOR>
0
> <PUBCHEM_CACTVS_ROTATABLE_BOND>
0
> <PUBCHEM_CACTVS_SUBSKEYS>
AAADceByAAAAAAAAAAAAAAAAAAAAAWAAAAAwYMGAAAAAAAAAAAAAHAAAAAAADYjBAAQCAAMAAAAAAAAAAAAAAAAAAAAAAAAIAAAAAAIAgAAEAAAAAACAAAEQgMAOgAAAAAAAAACQAAQAACQAAAAAAAAAAA==
> <PUBCHEM_IUPAC_OPENEYE_NAME>
1',3'-dimethylspiro[adamantane-2,2'-pyrrolidine]
> <PUBCHEM_IUPAC_CAS_NAME>
1',3'-dimethylspiro[adamantane-2,2'-pyrrolidine]
> <PUBCHEM_IUPAC_NAME_MARKUP>
1&apos;,3&apos;-dimethylspiro[adamantane-2,2&apos;-pyrrolidine]
> <PUBCHEM_IUPAC_NAME>
1',3'-dimethylspiro[adamantane-2,2'-pyrrolidine]
> <PUBCHEM_IUPAC_SYSTEMATIC_NAME>
1',3'-dimethylspiro[adamantane-2,2'-pyrrolidine]
> <PUBCHEM_IUPAC_TRADITIONAL_NAME>
1',3'-dimethylspiro[adamantane-2,2'-pyrrolidine]
> <PUBCHEM_IUPAC_INCHI>
InChI=1S/C15H25N/c1-10-3-4-16(2)15(10)13-6-11-5-12(8-13)9-14(15)7-11/h10-14H,3-9H2,1-2H3
> <PUBCHEM_IUPAC_INCHIKEY>
VYTIURBPIKNTHQ-UHFFFAOYSA-N
> <PUBCHEM_XLOGP3_AA>
3.4
> <PUBCHEM_EXACT_MASS>
219.198699802
> <PUBCHEM_MOLECULAR_FORMULA>
C15H25N
> <PUBCHEM_MOLECULAR_WEIGHT>
219.37
> <PUBCHEM_OPENEYE_CAN_SMILES>
CC1CCN(C12C3CC4CC(C3)CC2C4)C
> <PUBCHEM_OPENEYE_ISO_SMILES>
CC1CCN(C12C3CC4CC(C3)CC2C4)C
> <PUBCHEM_CACTVS_TPSA>
3.2
> <PUBCHEM_MONOISOTOPIC_WEIGHT>
219.198699802
> <PUBCHEM_TOTAL_CHARGE>
0
> <PUBCHEM_HEAVY_ATOM_COUNT>
16
> <PUBCHEM_ATOM_DEF_STEREO_COUNT>
0
> <PUBCHEM_ATOM_UDEF_STEREO_COUNT>
1
> <PUBCHEM_BOND_DEF_STEREO_COUNT>
0
> <PUBCHEM_BOND_UDEF_STEREO_COUNT>
0
> <PUBCHEM_ISOTOPIC_ATOM_COUNT>
0
> <PUBCHEM_COMPONENT_COUNT>
1
> <PUBCHEM_CACTVS_TAUTO_COUNT>
-1
> <PUBCHEM_COORDINATE_TYPE>
1
5
255
> <PUBCHEM_BONDANNOTATIONS>
11  15  3
$$$$
