508044
  -OEChem-10302200282D
 55 57  0     1  0  0  0  0  0999 V2000
    2.6691    1.6571    0.0000 O   0  0  0  0  0  0  0  0  0  0  0  0
    7.1270    0.2591    0.0000 O   0  0  0  0  0  0  0  0  0  0  0  0
    3.5827    0.0638    0.0000 O   0  0  0  0  0  0  0  0  0  0  0  0
    4.4487    1.5638    0.0000 N   0  0  0  0  0  0  0  0  0  0  0  0
    5.3147    0.0638    0.0000 N   0  0  0  0  0  0  0  0  0  0  0  0
    3.5827    2.0638    0.0000 C   0  0  3  0  0  0  0  0  0  0  0  0
    3.4782    3.0584    0.0000 C   0  0  0  0  0  0  0  0  0  0  0  0
    2.5000    3.2663    0.0000 C   0  0  0  0  0  0  0  0  0  0  0  0
   10.7106   -0.6682    0.0000 C   0  0  0  0  0  0  0  0  0  0  0  0
    2.0000    2.4003    0.0000 C   0  0  0  0  0  0  0  0  0  0  0  0
   11.7106   -0.6682    0.0000 C   0  0  0  0  0  0  0  0  0  0  0  0
   10.2106    0.1978    0.0000 C   0  0  0  0  0  0  0  0  0  0  0  0
   12.2106   -1.5342    0.0000 C   0  0  0  0  0  0  0  0  0  0  0  0
    9.2106    0.1978    0.0000 C   0  0  0  0  0  0  0  0  0  0  0  0
    8.7106    1.0638    0.0000 C   0  0  0  0  0  0  0  0  0  0  0  0
   13.2106   -1.5342    0.0000 C   0  0  0  0  0  0  0  0  0  0  0  0
    5.3147    2.0638    0.0000 C   0  0  0  0  0  0  0  0  0  0  0  0
    6.1808    1.5638    0.0000 C   0  0  0  0  0  0  0  0  0  0  0  0
    7.7106    1.0638    0.0000 C   0  0  0  0  0  0  0  0  0  0  0  0
   13.7106   -2.4003    0.0000 C   0  0  0  0  0  0  0  0  0  0  0  0
    7.1270    1.8686    0.0000 C   0  0  0  0  0  0  0  0  0  0  0  0
    6.1808    0.5638    0.0000 C   0  0  0  0  0  0  0  0  0  0  0  0
    4.4487    0.5638    0.0000 C   0  0  0  0  0  0  0  0  0  0  0  0
   14.7106   -2.4003    0.0000 C   0  0  0  0  0  0  0  0  0  0  0  0
   15.2106   -3.2663    0.0000 C   0  0  0  0  0  0  0  0  0  0  0  0
    4.1026    2.4015    0.0000 H   0  0  0  0  0  0  0  0  0  0  0  0
    4.0982    3.0584    0.0000 H   0  0  0  0  0  0  0  0  0  0  0  0
    3.5430    3.6750    0.0000 H   0  0  0  0  0  0  0  0  0  0  0  0
    2.6916    3.8559    0.0000 H   0  0  0  0  0  0  0  0  0  0  0  0
    1.9336    3.5185    0.0000 H   0  0  0  0  0  0  0  0  0  0  0  0
   10.1280   -0.8803    0.0000 H   0  0  0  0  0  0  0  0  0  0  0  0
   10.8182   -1.2788    0.0000 H   0  0  0  0  0  0  0  0  0  0  0  0
    1.4984    2.7647    0.0000 H   0  0  0  0  0  0  0  0  0  0  0  0
    1.5851    1.9395    0.0000 H   0  0  0  0  0  0  0  0  0  0  0  0
   12.2932   -0.4562    0.0000 H   0  0  0  0  0  0  0  0  0  0  0  0
   11.6029   -0.0576    0.0000 H   0  0  0  0  0  0  0  0  0  0  0  0
   10.7932    0.4099    0.0000 H   0  0  0  0  0  0  0  0  0  0  0  0
   10.1029    0.8084    0.0000 H   0  0  0  0  0  0  0  0  0  0  0  0
   11.6280   -1.7463    0.0000 H   0  0  0  0  0  0  0  0  0  0  0  0
   12.3182   -2.1448    0.0000 H   0  0  0  0  0  0  0  0  0  0  0  0
    8.6280   -0.0142    0.0000 H   0  0  0  0  0  0  0  0  0  0  0  0
    9.3182   -0.4128    0.0000 H   0  0  0  0  0  0  0  0  0  0  0  0
   13.7932   -1.3222    0.0000 H   0  0  0  0  0  0  0  0  0  0  0  0
   13.1029   -0.9236    0.0000 H   0  0  0  0  0  0  0  0  0  0  0  0
    9.2932    1.2759    0.0000 H   0  0  0  0  0  0  0  0  0  0  0  0
    8.6029    1.6744    0.0000 H   0  0  0  0  0  0  0  0  0  0  0  0
    5.3147    2.6838    0.0000 H   0  0  0  0  0  0  0  0  0  0  0  0
   13.1280   -2.6123    0.0000 H   0  0  0  0  0  0  0  0  0  0  0  0
   13.8182   -3.0108    0.0000 H   0  0  0  0  0  0  0  0  0  0  0  0
    7.3196    2.4579    0.0000 H   0  0  0  0  0  0  0  0  0  0  0  0
   15.2932   -2.1882    0.0000 H   0  0  0  0  0  0  0  0  0  0  0  0
   14.6029   -1.7897    0.0000 H   0  0  0  0  0  0  0  0  0  0  0  0
   14.6736   -3.5763    0.0000 H   0  0  0  0  0  0  0  0  0  0  0  0
   15.5206   -3.8032    0.0000 H   0  0  0  0  0  0  0  0  0  0  0  0
   15.7475   -2.9563    0.0000 H   0  0  0  0  0  0  0  0  0  0  0  0
  1  6  1  0  0  0  0
  1 10  1  0  0  0  0
  2 19  1  0  0  0  0
  2 22  1  0  0  0  0
  3 23  2  0  0  0  0
  4  6  1  0  0  0  0
  4 17  1  0  0  0  0
  4 23  1  0  0  0  0
  5 22  2  0  0  0  0
  5 23  1  0  0  0  0
  6  7  1  0  0  0  0
  6 26  1  0  0  0  0
  7  8  1  0  0  0  0
  7 27  1  0  0  0  0
  7 28  1  0  0  0  0
  8 10  1  0  0  0  0
  8 29  1  0  0  0  0
  8 30  1  0  0  0  0
  9 11  1  0  0  0  0
  9 12  1  0  0  0  0
  9 31  1  0  0  0  0
  9 32  1  0  0  0  0
 10 33  1  0  0  0  0
 10 34  1  0  0  0  0
 11 13  1  0  0  0  0
 11 35  1  0  0  0  0
 11 36  1  0  0  0  0
 12 14  1  0  0  0  0
 12 37  1  0  0  0  0
 12 38  1  0  0  0  0
 13 16  1  0  0  0  0
 13 39  1  0  0  0  0
 13 40  1  0  0  0  0
 14 15  1  0  0  0  0
 14 41  1  0  0  0  0
 14 42  1  0  0  0  0
 15 19  1  0  0  0  0
 15 45  1  0  0  0  0
 15 46  1  0  0  0  0
 16 20  1  0  0  0  0
 16 43  1  0  0  0  0
 16 44  1  0  0  0  0
 17 18  2  0  0  0  0
 17 47  1  0  0  0  0
 18 21  1  0  0  0  0
 18 22  1  0  0  0  0
 19 21  2  0  0  0  0
 20 24  1  0  0  0  0
 20 48  1  0  0  0  0
 20 49  1  0  0  0  0
 21 50  1  0  0  0  0
 24 25  1  0  0  0  0
 24 51  1  0  0  0  0
 24 52  1  0  0  0  0
 25 53  1  0  0  0  0
 25 54  1  0  0  0  0
 25 55  1  0  0  0  0
M  END
> <PUBCHEM_COMPOUND_CID>
508044
> <PUBCHEM_COMPOUND_CANONICALIZED>
1
> <PUBCHEM_CACTVS_COMPLEXITY>
565
> <PUBCHEM_CACTVS_HBOND_ACCEPTOR>
3
> <PUBCHEM_CACTVS_HBOND_DONOR>
0
> <PUBCHEM_CACTVS_ROTATABLE_BOND>
10
> <PUBCHEM_CACTVS_SUBSKEYS>
AAADceB7MAAAAAAAAAAAAAAAAAAAASIAAAAgAAAAAAAAAEAAAAAAHgAAAAAADAThgAYDAAMABACoAiBmVAAACAAgIAAACAAoABiIBAIAoQAOAAAExgIIoAOgwKAAAAAAAAAAAAAAAAAAAAAAAAAAAAAAAA==
> <PUBCHEM_IUPAC_OPENEYE_NAME>
6-decyl-3-tetrahydrofuran-2-yl-furo[2,3-d]pyrimidin-2-one
> <PUBCHEM_IUPAC_CAS_NAME>
6-decyl-3-(2-oxolanyl)-2-furo[2,3-d]pyrimidinone
> <PUBCHEM_IUPAC_NAME_MARKUP>
6-decyl-3-(oxolan-2-yl)furo[2,3-d]pyrimidin-2-one
> <PUBCHEM_IUPAC_NAME>
6-decyl-3-(oxolan-2-yl)furo[2,3-d]pyrimidin-2-one
> <PUBCHEM_IUPAC_SYSTEMATIC_NAME>
6-decyl-3-(oxolan-2-yl)furo[2,3-d]pyrimidin-2-one
> <PUBCHEM_IUPAC_TRADITIONAL_NAME>
6-decyl-3-(tetrahydrofuryl)furo[2,3-d]pyrimidin-2-one
> <PUBCHEM_IUPAC_INCHI>
InChI=1S/C20H30N2O3/c1-2-3-4-5-6-7-8-9-11-17-14-16-15-22(18-12-10-13-24-18)20(23)21-19(16)25-17/h14-15,18H,2-13H2,1H3
> <PUBCHEM_IUPAC_INCHIKEY>
UFSOTOZJCCIKPO-UHFFFAOYSA-N
> <PUBCHEM_XLOGP3_AA>
5.5
> <PUBCHEM_EXACT_MASS>
346.22564282
> <PUBCHEM_MOLECULAR_FORMULA>
C20H30N2O3
> <PUBCHEM_MOLECULAR_WEIGHT>
346.5
> <PUBCHEM_OPENEYE_CAN_SMILES>
CCCCCCCCCCC1=CC2=CN(C(=O)N=C2O1)C3CCCO3
> <PUBCHEM_OPENEYE_ISO_SMILES>
CCCCCCCCCCC1=CC2=CN(C(=O)N=C2O1)C3CCCO3
> <PUBCHEM_CACTVS_TPSA>
51.1
> <PUBCHEM_MONOISOTOPIC_WEIGHT>
346.22564282
> <PUBCHEM_TOTAL_CHARGE>
0
> <PUBCHEM_HEAVY_ATOM_COUNT>
25
> <PUBCHEM_ATOM_DEF_STEREO_COUNT>
0
> <PUBCHEM_ATOM_UDEF_STEREO_COUNT>
1
> <PUBCHEM_BOND_DEF_STEREO_COUNT>
0
> <PUBCHEM_BOND_UDEF_STEREO_COUNT>
0
> <PUBCHEM_ISOTOPIC_ATOM_COUNT>
0
> <PUBCHEM_COMPONENT_COUNT>
1
> <PUBCHEM_CACTVS_TAUTO_COUNT>
-1
> <PUBCHEM_COORDINATE_TYPE>
1
5
255
> <PUBCHEM_BONDANNOTATIONS>
17  18  8
18  21  8
18  22  8
19  21  8
2  19  8
2  22  8
4  17  8
4  23  8
6  4  3
5  22  8
5  23  8
$$$$
