508022
  -OEChem-10302200282D
 54 58  0     1  0  0  0  0  0999 V2000
    2.8660   -0.3319    0.0000 F   0  0  0  0  0  0  0  0  0  0  0  0
    8.1886    3.6378    0.0000 O   0  0  0  0  0  0  0  0  0  0  0  0
    6.6353   -1.1147    0.0000 O   0  0  0  0  0  0  0  0  0  0  0  0
    4.3211    0.1676    0.0000 O   0  0  0  0  0  0  0  0  0  0  0  0
    3.3660   -5.8708    0.0000 O   0  0  0  0  0  0  0  0  0  0  0  0
    6.8994    2.4811    0.0000 N   0  0  0  0  0  0  0  0  0  0  0  0
    6.2781    0.5801    0.0000 N   0  0  0  0  0  0  0  0  0  0  0  0
    4.6783   -3.1366    0.0000 N   0  0  0  0  0  0  0  0  0  0  0  0
    2.0570   -4.9197    0.0000 N   0  0  0  0  0  0  0  0  0  0  0  0
    3.6750   -4.9197    0.0000 N   0  0  0  0  0  0  0  0  0  0  0  0
    7.5673    1.7368    0.0000 C   0  0  3  0  0  0  0  0  0  0  0  0
    7.2566    0.7863    0.0000 C   0  0  0  0  0  0  0  0  0  0  0  0
    5.9209    2.2749    0.0000 C   0  0  0  0  0  0  0  0  0  0  0  0
    5.6103    1.3244    0.0000 C   0  0  0  0  0  0  0  0  0  0  0  0
    8.5458    1.9430    0.0000 C   0  0  0  0  0  0  0  0  0  0  0  0
    7.2101    3.4316    0.0000 C   0  0  0  0  0  0  0  0  0  0  0  0
    5.9674   -0.3704    0.0000 C   0  0  0  0  0  0  0  0  0  0  0  0
    4.9889   -0.5767    0.0000 C   0  0  0  0  0  0  0  0  0  0  0  0
    6.5422    4.1759    0.0000 C   0  0  0  0  0  0  0  0  0  0  0  0
    4.6783   -1.5272    0.0000 C   0  0  0  0  0  0  0  0  0  0  0  0
    3.7320   -1.8319    0.0000 C   0  0  0  0  0  0  0  0  0  0  0  0
    3.7320   -2.8319    0.0000 C   0  0  0  0  0  0  0  0  0  0  0  0
    5.2619   -2.3319    0.0000 C   0  0  0  0  0  0  0  0  0  0  0  0
    5.5637    3.9697    0.0000 C   0  0  0  0  0  0  0  0  0  0  0  0
    6.8529    5.1265    0.0000 C   0  0  0  0  0  0  0  0  0  0  0  0
    2.8660   -3.3319    0.0000 C   0  0  0  0  0  0  0  0  0  0  0  0
    2.8660   -1.3319    0.0000 C   0  0  0  0  0  0  0  0  0  0  0  0
    2.0000   -2.8319    0.0000 C   0  0  0  0  0  0  0  0  0  0  0  0
    2.0000   -1.8319    0.0000 C   0  0  0  0  0  0  0  0  0  0  0  0
    4.8959    4.7140    0.0000 C   0  0  0  0  0  0  0  0  0  0  0  0
    6.1851    5.8708    0.0000 C   0  0  0  0  0  0  0  0  0  0  0  0
    2.8660   -4.3319    0.0000 C   0  0  0  0  0  0  0  0  0  0  0  0
    5.2066    5.6645    0.0000 C   0  0  0  0  0  0  0  0  0  0  0  0
    2.3660   -5.8708    0.0000 C   0  0  0  0  0  0  0  0  0  0  0  0
    7.7599    2.3261    0.0000 H   0  0  0  0  0  0  0  0  0  0  0  0
    7.2772    0.1666    0.0000 H   0  0  0  0  0  0  0  0  0  0  0  0
    7.8704    0.6989    0.0000 H   0  0  0  0  0  0  0  0  0  0  0  0
    5.9004    2.8946    0.0000 H   0  0  0  0  0  0  0  0  0  0  0  0
    5.3071    2.3622    0.0000 H   0  0  0  0  0  0  0  0  0  0  0  0
    5.0633    1.6164    0.0000 H   0  0  0  0  0  0  0  0  0  0  0  0
    5.2277    0.8365    0.0000 H   0  0  0  0  0  0  0  0  0  0  0  0
    8.6736    1.3364    0.0000 H   0  0  0  0  0  0  0  0  0  0  0  0
    9.1524    2.0709    0.0000 H   0  0  0  0  0  0  0  0  0  0  0  0
    8.4179    2.5497    0.0000 H   0  0  0  0  0  0  0  0  0  0  0  0
    5.8819   -2.3319    0.0000 H   0  0  0  0  0  0  0  0  0  0  0  0
    4.8709   -3.7260    0.0000 H   0  0  0  0  0  0  0  0  0  0  0  0
    5.3711    3.3804    0.0000 H   0  0  0  0  0  0  0  0  0  0  0  0
    7.4596    5.2543    0.0000 H   0  0  0  0  0  0  0  0  0  0  0  0
    1.4631   -3.1419    0.0000 H   0  0  0  0  0  0  0  0  0  0  0  0
    1.4631   -1.5219    0.0000 H   0  0  0  0  0  0  0  0  0  0  0  0
    4.2892    4.5862    0.0000 H   0  0  0  0  0  0  0  0  0  0  0  0
    6.3777    6.4601    0.0000 H   0  0  0  0  0  0  0  0  0  0  0  0
    4.7925    6.1260    0.0000 H   0  0  0  0  0  0  0  0  0  0  0  0
    2.0016   -6.3724    0.0000 H   0  0  0  0  0  0  0  0  0  0  0  0
  1 27  1  0  0  0  0
  2 16  2  0  0  0  0
  3 17  2  0  0  0  0
  4 18  2  0  0  0  0
  5 10  1  0  0  0  0
  5 34  1  0  0  0  0
  6 11  1  0  0  0  0
  6 13  1  0  0  0  0
  6 16  1  0  0  0  0
  7 12  1  0  0  0  0
  7 14  1  0  0  0  0
  7 17  1  0  0  0  0
  8 22  1  0  0  0  0
  8 23  1  0  0  0  0
  8 46  1  0  0  0  0
  9 32  1  0  0  0  0
  9 34  2  0  0  0  0
 10 32  2  0  0  0  0
 11 12  1  0  0  0  0
 11 15  1  0  0  0  0
 11 35  1  0  0  0  0
 12 36  1  0  0  0  0
 12 37  1  0  0  0  0
 13 14  1  0  0  0  0
 13 38  1  0  0  0  0
 13 39  1  0  0  0  0
 14 40  1  0  0  0  0
 14 41  1  0  0  0  0
 15 42  1  0  0  0  0
 15 43  1  0  0  0  0
 15 44  1  0  0  0  0
 16 19  1  0  0  0  0
 17 18  1  0  0  0  0
 18 20  1  0  0  0  0
 19 24  2  0  0  0  0
 19 25  1  0  0  0  0
 20 21  1  0  0  0  0
 20 23  2  0  0  0  0
 21 22  1  0  0  0  0
 21 27  2  0  0  0  0
 22 26  2  0  0  0  0
 23 45  1  0  0  0  0
 24 30  1  0  0  0  0
 24 47  1  0  0  0  0
 25 31  2  0  0  0  0
 25 48  1  0  0  0  0
 26 28  1  0  0  0  0
 26 32  1  0  0  0  0
 27 29  1  0  0  0  0
 28 29  2  0  0  0  0
 28 49  1  0  0  0  0
 29 50  1  0  0  0  0
 30 33  2  0  0  0  0
 30 51  1  0  0  0  0
 31 33  1  0  0  0  0
 31 52  1  0  0  0  0
 33 53  1  0  0  0  0
 34 54  1  0  0  0  0
M  END
> <PUBCHEM_COMPOUND_CID>
508022
> <PUBCHEM_COMPOUND_CANONICALIZED>
1
> <PUBCHEM_CACTVS_COMPLEXITY>
793
> <PUBCHEM_CACTVS_HBOND_ACCEPTOR>
7
> <PUBCHEM_CACTVS_HBOND_DONOR>
1
> <PUBCHEM_CACTVS_ROTATABLE_BOND>
4
> <PUBCHEM_CACTVS_SUBSKEYS>
AAADceB7uQAAAAAAAAAAAAAAAAAAAWLAAAA8YIAAAAAAAFgB/AAAHwAUAAAADCzBnw4/0PfZkACpA7d39gCCgCk1AKAp2aGoRNiIaPrA1bGUIYhghwDIycccicCegAACAAACAAAAAAQAAAQAAAAAAAAAAA==
> <PUBCHEM_IUPAC_OPENEYE_NAME>
1-(4-benzoyl-3-methyl-piperazin-1-yl)-2-[4-fluoro-7-(1,2,4-oxadiazol-3-yl)-1H-indol-3-yl]ethane-1,2-dione
> <PUBCHEM_IUPAC_CAS_NAME>
1-(4-benzoyl-3-methyl-1-piperazinyl)-2-[4-fluoro-7-(1,2,4-oxadiazol-3-yl)-1H-indol-3-yl]ethane-1,2-dione
> <PUBCHEM_IUPAC_NAME_MARKUP>
1-(4-benzoyl-3-methylpiperazin-1-yl)-2-[4-fluoro-7-(1,2,4-oxadiazol-3-yl)-1<I>H</I>-indol-3-yl]ethane-1,2-dione
> <PUBCHEM_IUPAC_NAME>
1-(4-benzoyl-3-methylpiperazin-1-yl)-2-[4-fluoro-7-(1,2,4-oxadiazol-3-yl)-1H-indol-3-yl]ethane-1,2-dione
> <PUBCHEM_IUPAC_SYSTEMATIC_NAME>
1-[4-fluoranyl-7-(1,2,4-oxadiazol-3-yl)-1H-indol-3-yl]-2-[3-methyl-4-(phenylcarbonyl)piperazin-1-yl]ethane-1,2-dione
> <PUBCHEM_IUPAC_TRADITIONAL_NAME>
1-(4-benzoyl-3-methyl-piperazino)-2-[4-fluoro-7-(1,2,4-oxadiazol-3-yl)-1H-indol-3-yl]ethane-1,2-dione
> <PUBCHEM_IUPAC_INCHI>
InChI=1S/C24H20FN5O4/c1-14-12-29(9-10-30(14)23(32)15-5-3-2-4-6-15)24(33)21(31)17-11-26-20-16(22-27-13-34-28-22)7-8-18(25)19(17)20/h2-8,11,13-14,26H,9-10,12H2,1H3
> <PUBCHEM_IUPAC_INCHIKEY>
BRYPXAYAJDCCIG-UHFFFAOYSA-N
> <PUBCHEM_XLOGP3_AA>
2.7
> <PUBCHEM_EXACT_MASS>
461.14993230
> <PUBCHEM_MOLECULAR_FORMULA>
C24H20FN5O4
> <PUBCHEM_MOLECULAR_WEIGHT>
461.4
> <PUBCHEM_OPENEYE_CAN_SMILES>
CC1CN(CCN1C(=O)C2=CC=CC=C2)C(=O)C(=O)C3=CNC4=C(C=CC(=C34)F)C5=NOC=N5
> <PUBCHEM_OPENEYE_ISO_SMILES>
CC1CN(CCN1C(=O)C2=CC=CC=C2)C(=O)C(=O)C3=CNC4=C(C=CC(=C34)F)C5=NOC=N5
> <PUBCHEM_CACTVS_TPSA>
112
> <PUBCHEM_MONOISOTOPIC_WEIGHT>
461.14993230
> <PUBCHEM_TOTAL_CHARGE>
0
> <PUBCHEM_HEAVY_ATOM_COUNT>
34
> <PUBCHEM_ATOM_DEF_STEREO_COUNT>
0
> <PUBCHEM_ATOM_UDEF_STEREO_COUNT>
1
> <PUBCHEM_BOND_DEF_STEREO_COUNT>
0
> <PUBCHEM_BOND_UDEF_STEREO_COUNT>
0
> <PUBCHEM_ISOTOPIC_ATOM_COUNT>
0
> <PUBCHEM_COMPONENT_COUNT>
1
> <PUBCHEM_CACTVS_TAUTO_COUNT>
-1
> <PUBCHEM_COORDINATE_TYPE>
1
5
255
> <PUBCHEM_BONDANNOTATIONS>
10  32  8
11  15  3
19  24  8
19  25  8
20  21  8
20  23  8
21  22  8
21  27  8
22  26  8
24  30  8
25  31  8
26  28  8
27  29  8
28  29  8
30  33  8
31  33  8
5  10  8
5  34  8
8  22  8
8  23  8
9  32  8
9  34  8
$$$$
