508059
  -OEChem-10302200282D
 38 41  0     1  0  0  0  0  0999 V2000
    4.6457    1.2405    0.0000 N   0  0  0  0  0  0  0  0  0  0  0  0
    4.5412    0.2460    0.0000 C   0  0  0  0  0  0  0  0  0  0  0  0
    3.6944    0.7349    0.0000 C   0  0  0  0  0  0  0  0  0  0  0  0
    4.5412   -0.7318    0.0000 C   0  0  0  0  0  0  0  0  0  0  0  0
    2.8475   -0.7318    0.0000 C   0  0  0  0  0  0  0  0  0  0  0  0
    2.9944   -1.1725    0.0000 C   0  0  0  0  0  0  0  0  0  0  0  0
    2.8475    0.2460    0.0000 C   0  0  0  0  0  0  0  0  0  0  0  0
    2.9944   -0.1139    0.0000 C   0  0  0  0  0  0  0  0  0  0  0  0
    3.6944   -1.0385    0.0000 C   0  0  0  0  0  0  0  0  0  0  0  0
    3.9117   -1.6554    0.0000 C   0  0  0  0  0  0  0  0  0  0  0  0
    2.0000   -1.2208    0.0000 C   0  0  0  0  0  0  0  0  0  0  0  0
    5.4547   -0.1607    0.0000 C   0  0  0  0  0  0  0  0  0  0  0  0
    6.1240    0.5823    0.0000 C   0  0  3  0  0  0  0  0  0  0  0  0
    5.6239    1.4484    0.0000 C   0  0  0  0  0  0  0  0  0  0  0  0
    7.1185    0.4777    0.0000 C   0  0  0  0  0  0  0  0  0  0  0  0
    3.6944    1.3550    0.0000 H   0  0  0  0  0  0  0  0  0  0  0  0
    5.1337   -0.9146    0.0000 H   0  0  0  0  0  0  0  0  0  0  0  0
    3.3551   -0.3758    0.0000 H   0  0  0  0  0  0  0  0  0  0  0  0
    2.8603   -1.7778    0.0000 H   0  0  0  0  0  0  0  0  0  0  0  0
    2.6354    0.8286    0.0000 H   0  0  0  0  0  0  0  0  0  0  0  0
    2.2369    0.1383    0.0000 H   0  0  0  0  0  0  0  0  0  0  0  0
    2.6508    0.4022    0.0000 H   0  0  0  0  0  0  0  0  0  0  0  0
    2.4010   -0.2934    0.0000 H   0  0  0  0  0  0  0  0  0  0  0  0
    3.3244   -1.5360    0.0000 H   0  0  0  0  0  0  0  0  0  0  0  0
    4.0643   -1.5360    0.0000 H   0  0  0  0  0  0  0  0  0  0  0  0
    3.6023   -2.1926    0.0000 H   0  0  0  0  0  0  0  0  0  0  0  0
    4.4369   -1.9849    0.0000 H   0  0  0  0  0  0  0  0  0  0  0  0
    1.5187   -0.8299    0.0000 H   0  0  0  0  0  0  0  0  0  0  0  0
    1.8068   -1.8099    0.0000 H   0  0  0  0  0  0  0  0  0  0  0  0
    5.1447   -0.6977    0.0000 H   0  0  0  0  0  0  0  0  0  0  0  0
    5.9563   -0.5252    0.0000 H   0  0  0  0  0  0  0  0  0  0  0  0
    4.1850    1.6554    0.0000 H   0  0  0  0  0  0  0  0  0  0  0  0
    6.4616    1.1023    0.0000 H   0  0  0  0  0  0  0  0  0  0  0  0
    6.1902    1.7006    0.0000 H   0  0  0  0  0  0  0  0  0  0  0  0
    5.4322    2.0381    0.0000 H   0  0  0  0  0  0  0  0  0  0  0  0
    7.0536   -0.1389    0.0000 H   0  0  0  0  0  0  0  0  0  0  0  0
    7.7351    0.4129    0.0000 H   0  0  0  0  0  0  0  0  0  0  0  0
    7.1833    1.0943    0.0000 H   0  0  0  0  0  0  0  0  0  0  0  0
  1  2  1  0  0  0  0
  1 14  1  0  0  0  0
  1 32  1  0  0  0  0
  2  3  1  0  0  0  0
  2  4  1  0  0  0  0
  2 12  1  0  0  0  0
  3  7  1  0  0  0  0
  3  8  1  0  0  0  0
  3 16  1  0  0  0  0
  4  9  1  0  0  0  0
  4 10  1  0  0  0  0
  4 17  1  0  0  0  0
  5  7  1  0  0  0  0
  5  9  1  0  0  0  0
  5 11  1  0  0  0  0
  5 18  1  0  0  0  0
  6  8  1  0  0  0  0
  6 10  1  0  0  0  0
  6 11  1  0  0  0  0
  6 19  1  0  0  0  0
  7 20  1  0  0  0  0
  7 21  1  0  0  0  0
  8 22  1  0  0  0  0
  8 23  1  0  0  0  0
  9 24  1  0  0  0  0
  9 25  1  0  0  0  0
 10 26  1  0  0  0  0
 10 27  1  0  0  0  0
 11 28  1  0  0  0  0
 11 29  1  0  0  0  0
 12 13  1  0  0  0  0
 12 30  1  0  0  0  0
 12 31  1  0  0  0  0
 13 14  1  0  0  0  0
 13 15  1  0  0  0  0
 13 33  1  0  0  0  0
 14 34  1  0  0  0  0
 14 35  1  0  0  0  0
 15 36  1  0  0  0  0
 15 37  1  0  0  0  0
 15 38  1  0  0  0  0
M  END
> <PUBCHEM_COMPOUND_CID>
508059
> <PUBCHEM_COMPOUND_CANONICALIZED>
1
> <PUBCHEM_CACTVS_COMPLEXITY>
255
> <PUBCHEM_CACTVS_HBOND_ACCEPTOR>
1
> <PUBCHEM_CACTVS_HBOND_DONOR>
1
> <PUBCHEM_CACTVS_ROTATABLE_BOND>
0
> <PUBCHEM_CACTVS_SUBSKEYS>
AAADceByAAAAAAAAAAAAAAAAAAAAAWAAAAAwYMGAAAAAAAAAAAAAHAAQAAAADYjBAAQCAALAAAAAAAAAAAAAAAAAAAAAAIAIAAAAAAIAgAAEAAAAEACAAAEQgMAOgAAAAAAAAACQAAQAACQAAAAAAAAAAA==
> <PUBCHEM_IUPAC_OPENEYE_NAME>
4'-methylspiro[adamantane-2,2'-pyrrolidine]
> <PUBCHEM_IUPAC_CAS_NAME>
4'-methylspiro[adamantane-2,2'-pyrrolidine]
> <PUBCHEM_IUPAC_NAME_MARKUP>
4&apos;-methylspiro[adamantane-2,2&apos;-pyrrolidine]
> <PUBCHEM_IUPAC_NAME>
4'-methylspiro[adamantane-2,2'-pyrrolidine]
> <PUBCHEM_IUPAC_SYSTEMATIC_NAME>
4'-methylspiro[adamantane-2,2'-pyrrolidine]
> <PUBCHEM_IUPAC_TRADITIONAL_NAME>
4'-methylspiro[adamantane-2,2'-pyrrolidine]
> <PUBCHEM_IUPAC_INCHI>
InChI=1S/C14H23N/c1-9-7-14(15-8-9)12-3-10-2-11(5-12)6-13(14)4-10/h9-13,15H,2-8H2,1H3
> <PUBCHEM_IUPAC_INCHIKEY>
XALXOZACVKRLBW-UHFFFAOYSA-N
> <PUBCHEM_XLOGP3_AA>
2.9
> <PUBCHEM_EXACT_MASS>
205.183049738
> <PUBCHEM_MOLECULAR_FORMULA>
C14H23N
> <PUBCHEM_MOLECULAR_WEIGHT>
205.34
> <PUBCHEM_OPENEYE_CAN_SMILES>
CC1CC2(C3CC4CC(C3)CC2C4)NC1
> <PUBCHEM_OPENEYE_ISO_SMILES>
CC1CC2(C3CC4CC(C3)CC2C4)NC1
> <PUBCHEM_CACTVS_TPSA>
12
> <PUBCHEM_MONOISOTOPIC_WEIGHT>
205.183049738
> <PUBCHEM_TOTAL_CHARGE>
0
> <PUBCHEM_HEAVY_ATOM_COUNT>
15
> <PUBCHEM_ATOM_DEF_STEREO_COUNT>
0
> <PUBCHEM_ATOM_UDEF_STEREO_COUNT>
1
> <PUBCHEM_BOND_DEF_STEREO_COUNT>
0
> <PUBCHEM_BOND_UDEF_STEREO_COUNT>
0
> <PUBCHEM_ISOTOPIC_ATOM_COUNT>
0
> <PUBCHEM_COMPONENT_COUNT>
1
> <PUBCHEM_CACTVS_TAUTO_COUNT>
-1
> <PUBCHEM_COORDINATE_TYPE>
1
5
255
> <PUBCHEM_BONDANNOTATIONS>
13  15  3
$$$$
