508025
  -OEChem-10302200282D
 50 53  0     1  0  0  0  0  0999 V2000
    4.5624    2.2151    0.0000 O   0  0  0  0  0  0  0  0  0  0  0  0
    3.0378   -0.4487    0.0000 O   0  0  0  0  0  0  0  0  0  0  0  0
    7.6108    0.4230    0.0000 O   0  0  0  0  0  0  0  0  0  0  0  0
    4.5346   -1.3209    0.0000 O   0  0  0  0  0  0  0  0  0  0  0  0
    4.5451   -3.0911    0.0000 O   0  0  0  0  0  0  0  0  0  0  0  0
    3.0000    1.3210    0.0000 C   0  0  1  0  0  0  0  0  0  0  0  0
    3.5278    0.4230    0.0000 C   0  0  2  0  0  0  0  0  0  0  0  0
    3.5208    2.2231    0.0000 C   0  0  1  0  0  0  0  0  0  0  0  0
    4.5692    0.4391    0.0000 C   0  0  0  0  0  0  0  0  0  0  0  0
    5.0692    1.3051    0.0000 C   0  0  0  0  0  0  0  0  0  0  0  0
    6.0692    1.3051    0.0000 C   0  0  0  0  0  0  0  0  0  0  0  0
    5.0692   -0.4270    0.0000 C   0  0  0  0  0  0  0  0  0  0  0  0
    2.0000    1.3172    0.0000 C   0  0  0  0  0  0  0  0  0  0  0  0
    6.5692    0.4391    0.0000 C   0  0  0  0  0  0  0  0  0  0  0  0
    6.0692   -0.4270    0.0000 C   0  0  0  0  0  0  0  0  0  0  0  0
    3.0242    3.0911    0.0000 C   0  0  0  0  0  0  0  0  0  0  0  0
    8.1385    1.3210    0.0000 C   0  0  0  0  0  0  0  0  0  0  0  0
    6.5761    2.2151    0.0000 C   0  0  0  0  0  0  0  0  0  0  0  0
    7.6177    2.2231    0.0000 C   0  0  0  0  0  0  0  0  0  0  0  0
    6.6039   -1.3209    0.0000 C   0  0  0  0  0  0  0  0  0  0  0  0
    9.0065    1.8177    0.0000 C   0  0  0  0  0  0  0  0  0  0  0  0
    9.0026    0.8177    0.0000 C   0  0  0  0  0  0  0  0  0  0  0  0
    6.0901   -2.2270    0.0000 C   0  0  0  0  0  0  0  0  0  0  0  0
    2.0379   -0.4603    0.0000 C   0  0  0  0  0  0  0  0  0  0  0  0
    5.0484   -2.2270    0.0000 C   0  0  0  0  0  0  0  0  0  0  0  0
    7.6038   -1.3093    0.0000 C   0  0  0  0  0  0  0  0  0  0  0  0
    2.6931    0.7823    0.0000 H   0  0  0  0  0  0  0  0  0  0  0  0
    3.8450   -0.1097    0.0000 H   0  0  0  0  0  0  0  0  0  0  0  0
    3.8339    2.7582    0.0000 H   0  0  0  0  0  0  0  0  0  0  0  0
    1.9976    1.9372    0.0000 H   0  0  0  0  0  0  0  0  0  0  0  0
    1.3800    1.3148    0.0000 H   0  0  0  0  0  0  0  0  0  0  0  0
    2.0024    0.6972    0.0000 H   0  0  0  0  0  0  0  0  0  0  0  0
    3.5623    3.3990    0.0000 H   0  0  0  0  0  0  0  0  0  0  0  0
    2.7162    3.6292    0.0000 H   0  0  0  0  0  0  0  0  0  0  0  0
    2.4860    2.7831    0.0000 H   0  0  0  0  0  0  0  0  0  0  0  0
    6.2599    2.7484    0.0000 H   0  0  0  0  0  0  0  0  0  0  0  0
    7.9256    2.7612    0.0000 H   0  0  0  0  0  0  0  0  0  0  0  0
    9.3144    1.2796    0.0000 H   0  0  0  0  0  0  0  0  0  0  0  0
    9.5446    2.1256    0.0000 H   0  0  0  0  0  0  0  0  0  0  0  0
    8.6985    2.3558    0.0000 H   0  0  0  0  0  0  0  0  0  0  0  0
    8.6905    0.2820    0.0000 H   0  0  0  0  0  0  0  0  0  0  0  0
    9.5383    0.5056    0.0000 H   0  0  0  0  0  0  0  0  0  0  0  0
    9.3147    1.3534    0.0000 H   0  0  0  0  0  0  0  0  0  0  0  0
    6.4021   -2.7627    0.0000 H   0  0  0  0  0  0  0  0  0  0  0  0
    2.0307    0.1596    0.0000 H   0  0  0  0  0  0  0  0  0  0  0  0
    1.4179   -0.4675    0.0000 H   0  0  0  0  0  0  0  0  0  0  0  0
    2.0450   -1.0803    0.0000 H   0  0  0  0  0  0  0  0  0  0  0  0
    7.6110   -1.9293    0.0000 H   0  0  0  0  0  0  0  0  0  0  0  0
    8.2238   -1.3022    0.0000 H   0  0  0  0  0  0  0  0  0  0  0  0
    7.5967   -0.6894    0.0000 H   0  0  0  0  0  0  0  0  0  0  0  0
  1  8  1  0  0  0  0
  1 10  1  0  0  0  0
  7  2  1  6  0  0  0
  2 24  1  0  0  0  0
  3 14  1  0  0  0  0
  3 17  1  0  0  0  0
  4 12  1  0  0  0  0
  4 25  1  0  0  0  0
  5 25  2  0  0  0  0
  6  7  1  0  0  0  0
  6  8  1  0  0  0  0
  6 13  1  6  0  0  0
  6 27  1  0  0  0  0
  7  9  1  0  0  0  0
  7 28  1  0  0  0  0
  8 16  1  1  0  0  0
  8 29  1  0  0  0  0
  9 10  2  0  0  0  0
  9 12  1  0  0  0  0
 10 11  1  0  0  0  0
 11 14  2  0  0  0  0
 11 18  1  0  0  0  0
 12 15  2  0  0  0  0
 13 30  1  0  0  0  0
 13 31  1  0  0  0  0
 13 32  1  0  0  0  0
 14 15  1  0  0  0  0
 15 20  1  0  0  0  0
 16 33  1  0  0  0  0
 16 34  1  0  0  0  0
 16 35  1  0  0  0  0
 17 19  1  0  0  0  0
 17 21  1  0  0  0  0
 17 22  1  0  0  0  0
 18 19  2  0  0  0  0
 18 36  1  0  0  0  0
 19 37  1  0  0  0  0
 20 23  2  0  0  0  0
 20 26  1  0  0  0  0
 21 38  1  0  0  0  0
 21 39  1  0  0  0  0
 21 40  1  0  0  0  0
 22 41  1  0  0  0  0
 22 42  1  0  0  0  0
 22 43  1  0  0  0  0
 23 25  1  0  0  0  0
 23 44  1  0  0  0  0
 24 45  1  0  0  0  0
 24 46  1  0  0  0  0
 24 47  1  0  0  0  0
 26 48  1  0  0  0  0
 26 49  1  0  0  0  0
 26 50  1  0  0  0  0
M  END
> <PUBCHEM_COMPOUND_CID>
508025
> <PUBCHEM_COMPOUND_CANONICALIZED>
1
> <PUBCHEM_CACTVS_COMPLEXITY>
651
> <PUBCHEM_CACTVS_HBOND_ACCEPTOR>
5
> <PUBCHEM_CACTVS_HBOND_DONOR>
0
> <PUBCHEM_CACTVS_ROTATABLE_BOND>
1
> <PUBCHEM_CACTVS_SUBSKEYS>
AAADceB4OAAAAAAAAAAAAAAAAAAAAAAAAAA0QIEAAAAAAACRAAAAGgAAAAAADVSgmAICDoAABACIAiDSCAACCAAgIAAIiAAECMgMJyKEMRqCOiClwBUIqQeA4OwOIAACCAAIAABAAAQQABAAAAAAAAAAAA==
> <PUBCHEM_IUPAC_OPENEYE_NAME>
(16R,17R,18R)-18-methoxy-6,10,10,16,17-pentamethyl-3,9,15-trioxatetracyclo[12.4.0.02,7.08,13]octadeca-1(14),2(7),5,8(13),11-pentaen-4-one
> <PUBCHEM_IUPAC_CAS_NAME>
(16R,17R,18R)-18-methoxy-6,10,10,16,17-pentamethyl-3,9,15-trioxatetracyclo[12.4.0.02,7.08,13]octadeca-1(14),2(7),5,8(13),11-pentaen-4-one
> <PUBCHEM_IUPAC_NAME_MARKUP>
(16<I>R</I>,17<I>R</I>,18<I>R</I>)-18-methoxy-6,10,10,16,17-pentamethyl-3,9,15-trioxatetracyclo[12.4.0.0<SUP>2,7</SUP>.0<SUP>8,13</SUP>]octadeca-1(14),2(7),5,8(13),11-pentaen-4-one
> <PUBCHEM_IUPAC_NAME>
(16R,17R,18R)-18-methoxy-6,10,10,16,17-pentamethyl-3,9,15-trioxatetracyclo[12.4.0.02,7.08,13]octadeca-1(14),2(7),5,8(13),11-pentaen-4-one
> <PUBCHEM_IUPAC_SYSTEMATIC_NAME>
(16R,17R,18R)-18-methoxy-6,10,10,16,17-pentamethyl-3,9,15-trioxatetracyclo[12.4.0.02,7.08,13]octadeca-1(14),2(7),5,8(13),11-pentaen-4-one
> <PUBCHEM_IUPAC_TRADITIONAL_NAME>
(16R,17R,18R)-18-methoxy-6,10,10,16,17-pentamethyl-3,9,15-trioxatetracyclo[12.4.0.02,7.08,13]octadeca-1(14),2(7),5,8(13),11-pentaen-4-one
> <PUBCHEM_IUPAC_INCHI>
InChI=1S/C21H24O5/c1-10-9-14(22)25-20-15(10)19-13(7-8-21(4,5)26-19)18-16(20)17(23-6)11(2)12(3)24-18/h7-9,11-12,17H,1-6H3/t11-,12-,17-/m1/s1
> <PUBCHEM_IUPAC_INCHIKEY>
NEHHJJDJNPBYJK-PSTGCABASA-N
> <PUBCHEM_XLOGP3_AA>
3.4
> <PUBCHEM_EXACT_MASS>
356.16237386
> <PUBCHEM_MOLECULAR_FORMULA>
C21H24O5
> <PUBCHEM_MOLECULAR_WEIGHT>
356.4
> <PUBCHEM_OPENEYE_CAN_SMILES>
CC1C(OC2=C(C1OC)C3=C(C(=CC(=O)O3)C)C4=C2C=CC(O4)(C)C)C
> <PUBCHEM_OPENEYE_ISO_SMILES>
C[C@@H]1[C@H](OC2=C([C@@H]1OC)C3=C(C(=CC(=O)O3)C)C4=C2C=CC(O4)(C)C)C
> <PUBCHEM_CACTVS_TPSA>
54
> <PUBCHEM_MONOISOTOPIC_WEIGHT>
356.16237386
> <PUBCHEM_TOTAL_CHARGE>
0
> <PUBCHEM_HEAVY_ATOM_COUNT>
26
> <PUBCHEM_ATOM_DEF_STEREO_COUNT>
3
> <PUBCHEM_ATOM_UDEF_STEREO_COUNT>
0
> <PUBCHEM_BOND_DEF_STEREO_COUNT>
0
> <PUBCHEM_BOND_UDEF_STEREO_COUNT>
0
> <PUBCHEM_ISOTOPIC_ATOM_COUNT>
0
> <PUBCHEM_COMPONENT_COUNT>
1
> <PUBCHEM_CACTVS_TAUTO_COUNT>
-1
> <PUBCHEM_COORDINATE_TYPE>
1
5
255
> <PUBCHEM_BONDANNOTATIONS>
10  11  8
11  14  8
12  15  8
14  15  8
15  20  8
7  2  6
20  23  8
23  25  8
4  12  8
4  25  8
6  13  6
8  16  5
9  10  8
9  12  8
$$$$
