508043
  -OEChem-10302200282D
 43 45  0     1  0  0  0  0  0999 V2000
    2.6691    0.7911    0.0000 O   0  0  0  0  0  0  0  0  0  0  0  0
    7.1270   -0.6069    0.0000 O   0  0  0  0  0  0  0  0  0  0  0  0
    3.5827   -0.8022    0.0000 O   0  0  0  0  0  0  0  0  0  0  0  0
    4.4487    0.6978    0.0000 N   0  0  0  0  0  0  0  0  0  0  0  0
    5.3147   -0.8022    0.0000 N   0  0  0  0  0  0  0  0  0  0  0  0
    3.5827    1.1978    0.0000 C   0  0  3  0  0  0  0  0  0  0  0  0
    3.4782    2.1923    0.0000 C   0  0  0  0  0  0  0  0  0  0  0  0
    2.5000    2.4003    0.0000 C   0  0  0  0  0  0  0  0  0  0  0  0
    2.0000    1.5342    0.0000 C   0  0  0  0  0  0  0  0  0  0  0  0
    9.2106   -0.6682    0.0000 C   0  0  0  0  0  0  0  0  0  0  0  0
    5.3147    1.1978    0.0000 C   0  0  0  0  0  0  0  0  0  0  0  0
    8.7106    0.1978    0.0000 C   0  0  0  0  0  0  0  0  0  0  0  0
    6.1808    0.6978    0.0000 C   0  0  0  0  0  0  0  0  0  0  0  0
   10.2106   -0.6682    0.0000 C   0  0  0  0  0  0  0  0  0  0  0  0
    7.7106    0.1978    0.0000 C   0  0  0  0  0  0  0  0  0  0  0  0
   10.7106   -1.5342    0.0000 C   0  0  0  0  0  0  0  0  0  0  0  0
    4.4487   -0.3022    0.0000 C   0  0  0  0  0  0  0  0  0  0  0  0
    6.1808   -0.3022    0.0000 C   0  0  0  0  0  0  0  0  0  0  0  0
    7.1270    1.0026    0.0000 C   0  0  0  0  0  0  0  0  0  0  0  0
   11.7106   -1.5342    0.0000 C   0  0  0  0  0  0  0  0  0  0  0  0
   12.2106   -2.4003    0.0000 C   0  0  0  0  0  0  0  0  0  0  0  0
    4.1026    1.5355    0.0000 H   0  0  0  0  0  0  0  0  0  0  0  0
    4.0982    2.1923    0.0000 H   0  0  0  0  0  0  0  0  0  0  0  0
    3.5430    2.8090    0.0000 H   0  0  0  0  0  0  0  0  0  0  0  0
    2.6916    2.9899    0.0000 H   0  0  0  0  0  0  0  0  0  0  0  0
    1.9336    2.6524    0.0000 H   0  0  0  0  0  0  0  0  0  0  0  0
    1.4984    1.8987    0.0000 H   0  0  0  0  0  0  0  0  0  0  0  0
    1.5851    1.0735    0.0000 H   0  0  0  0  0  0  0  0  0  0  0  0
    8.6280   -0.8803    0.0000 H   0  0  0  0  0  0  0  0  0  0  0  0
    9.3182   -1.2788    0.0000 H   0  0  0  0  0  0  0  0  0  0  0  0
    9.2932    0.4099    0.0000 H   0  0  0  0  0  0  0  0  0  0  0  0
    8.6029    0.8084    0.0000 H   0  0  0  0  0  0  0  0  0  0  0  0
    5.3147    1.8178    0.0000 H   0  0  0  0  0  0  0  0  0  0  0  0
   10.7932   -0.4562    0.0000 H   0  0  0  0  0  0  0  0  0  0  0  0
   10.1029   -0.0576    0.0000 H   0  0  0  0  0  0  0  0  0  0  0  0
   10.1280   -1.7463    0.0000 H   0  0  0  0  0  0  0  0  0  0  0  0
   10.8182   -2.1448    0.0000 H   0  0  0  0  0  0  0  0  0  0  0  0
    7.3196    1.5919    0.0000 H   0  0  0  0  0  0  0  0  0  0  0  0
   12.2932   -1.3222    0.0000 H   0  0  0  0  0  0  0  0  0  0  0  0
   11.6029   -0.9236    0.0000 H   0  0  0  0  0  0  0  0  0  0  0  0
   11.6736   -2.7102    0.0000 H   0  0  0  0  0  0  0  0  0  0  0  0
   12.5206   -2.9372    0.0000 H   0  0  0  0  0  0  0  0  0  0  0  0
   12.7475   -2.0903    0.0000 H   0  0  0  0  0  0  0  0  0  0  0  0
  1  6  1  0  0  0  0
  1  9  1  0  0  0  0
  2 15  1  0  0  0  0
  2 18  1  0  0  0  0
  3 17  2  0  0  0  0
  4  6  1  0  0  0  0
  4 11  1  0  0  0  0
  4 17  1  0  0  0  0
  5 17  1  0  0  0  0
  5 18  2  0  0  0  0
  6  7  1  0  0  0  0
  6 22  1  0  0  0  0
  7  8  1  0  0  0  0
  7 23  1  0  0  0  0
  7 24  1  0  0  0  0
  8  9  1  0  0  0  0
  8 25  1  0  0  0  0
  8 26  1  0  0  0  0
  9 27  1  0  0  0  0
  9 28  1  0  0  0  0
 10 12  1  0  0  0  0
 10 14  1  0  0  0  0
 10 29  1  0  0  0  0
 10 30  1  0  0  0  0
 11 13  2  0  0  0  0
 11 33  1  0  0  0  0
 12 15  1  0  0  0  0
 12 31  1  0  0  0  0
 12 32  1  0  0  0  0
 13 18  1  0  0  0  0
 13 19  1  0  0  0  0
 14 16  1  0  0  0  0
 14 34  1  0  0  0  0
 14 35  1  0  0  0  0
 15 19  2  0  0  0  0
 16 20  1  0  0  0  0
 16 36  1  0  0  0  0
 16 37  1  0  0  0  0
 19 38  1  0  0  0  0
 20 21  1  0  0  0  0
 20 39  1  0  0  0  0
 20 40  1  0  0  0  0
 21 41  1  0  0  0  0
 21 42  1  0  0  0  0
 21 43  1  0  0  0  0
M  END
> <PUBCHEM_COMPOUND_CID>
508043
> <PUBCHEM_COMPOUND_CANONICALIZED>
1
> <PUBCHEM_CACTVS_COMPLEXITY>
508
> <PUBCHEM_CACTVS_HBOND_ACCEPTOR>
3
> <PUBCHEM_CACTVS_HBOND_DONOR>
0
> <PUBCHEM_CACTVS_ROTATABLE_BOND>
6
> <PUBCHEM_CACTVS_SUBSKEYS>
AAADceB7MAAAAAAAAAAAAAAAAAAAASIAAAAgAAAAAAAAAEAAAAAAHgAAAAAADAThgAYDAAMABACoAiBmVAAACAAgIAAACAAoABiIBAIAoQAOAAAExgIIoAOgwCAAAAAAAAAAAAAAAAAAAAAAAAAAAAAAAA==
> <PUBCHEM_IUPAC_OPENEYE_NAME>
6-hexyl-3-tetrahydrofuran-2-yl-furo[2,3-d]pyrimidin-2-one
> <PUBCHEM_IUPAC_CAS_NAME>
6-hexyl-3-(2-oxolanyl)-2-furo[2,3-d]pyrimidinone
> <PUBCHEM_IUPAC_NAME_MARKUP>
6-hexyl-3-(oxolan-2-yl)furo[2,3-d]pyrimidin-2-one
> <PUBCHEM_IUPAC_NAME>
6-hexyl-3-(oxolan-2-yl)furo[2,3-d]pyrimidin-2-one
> <PUBCHEM_IUPAC_SYSTEMATIC_NAME>
6-hexyl-3-(oxolan-2-yl)furo[2,3-d]pyrimidin-2-one
> <PUBCHEM_IUPAC_TRADITIONAL_NAME>
6-hexyl-3-(tetrahydrofuryl)furo[2,3-d]pyrimidin-2-one
> <PUBCHEM_IUPAC_INCHI>
InChI=1S/C16H22N2O3/c1-2-3-4-5-7-13-10-12-11-18(14-8-6-9-20-14)16(19)17-15(12)21-13/h10-11,14H,2-9H2,1H3
> <PUBCHEM_IUPAC_INCHIKEY>
KTKNRZMFWJVQSY-UHFFFAOYSA-N
> <PUBCHEM_XLOGP3_AA>
3.3
> <PUBCHEM_EXACT_MASS>
290.16304257
> <PUBCHEM_MOLECULAR_FORMULA>
C16H22N2O3
> <PUBCHEM_MOLECULAR_WEIGHT>
290.36
> <PUBCHEM_OPENEYE_CAN_SMILES>
CCCCCCC1=CC2=CN(C(=O)N=C2O1)C3CCCO3
> <PUBCHEM_OPENEYE_ISO_SMILES>
CCCCCCC1=CC2=CN(C(=O)N=C2O1)C3CCCO3
> <PUBCHEM_CACTVS_TPSA>
51.1
> <PUBCHEM_MONOISOTOPIC_WEIGHT>
290.16304257
> <PUBCHEM_TOTAL_CHARGE>
0
> <PUBCHEM_HEAVY_ATOM_COUNT>
21
> <PUBCHEM_ATOM_DEF_STEREO_COUNT>
0
> <PUBCHEM_ATOM_UDEF_STEREO_COUNT>
1
> <PUBCHEM_BOND_DEF_STEREO_COUNT>
0
> <PUBCHEM_BOND_UDEF_STEREO_COUNT>
0
> <PUBCHEM_ISOTOPIC_ATOM_COUNT>
0
> <PUBCHEM_COMPONENT_COUNT>
1
> <PUBCHEM_CACTVS_TAUTO_COUNT>
-1
> <PUBCHEM_COORDINATE_TYPE>
1
5
255
> <PUBCHEM_BONDANNOTATIONS>
11  13  8
13  18  8
13  19  8
15  19  8
2  15  8
2  18  8
4  11  8
4  17  8
6  4  3
5  17  8
5  18  8
$$$$
