508177
  -OEChem-10302200282D
 94 98  0     1  0  0  0  0  0999 V2000
   13.4126   -1.2890    0.0000 F   0  0  0  0  0  0  0  0  0  0  0  0
   13.2316   -3.0116    0.0000 F   0  0  0  0  0  0  0  0  0  0  0  0
    6.3981   -2.5164    0.0000 O   0  0  0  0  0  0  0  0  0  0  0  0
    9.7480    0.2042    0.0000 O   0  0  0  0  0  0  0  0  0  0  0  0
   10.2480   -2.6980    0.0000 O   0  0  0  0  0  0  0  0  0  0  0  0
   13.0059   -0.3755    0.0000 O   0  0  0  0  0  0  0  0  0  0  0  0
    2.8680   -5.5405    0.0000 O   0  0  0  0  0  0  0  0  0  0  0  0
   13.7301    6.5148    0.0000 O   0  0  0  0  0  0  0  0  0  0  0  0
   15.1314    5.4967    0.0000 O   0  0  0  0  0  0  0  0  0  0  0  0
    8.3468   -0.8139    0.0000 N   0  0  0  0  0  0  0  0  0  0  0  0
   10.4291   -0.9755    0.0000 N   0  0  0  0  0  0  0  0  0  0  0  0
   11.6047    0.6426    0.0000 N   0  0  0  0  0  0  0  0  0  0  0  0
    6.3981   -5.5164    0.0000 N   0  0  0  0  0  0  0  0  0  0  0  0
    8.8468   -1.6799    0.0000 C   0  0  1  0  0  0  0  0  0  0  0  0
    7.2641   -2.0164    0.0000 C   0  0  2  0  0  0  0  0  0  0  0  0
    8.1776   -2.4231    0.0000 C   0  0  0  0  0  0  0  0  0  0  0  0
    7.3686   -1.0218    0.0000 C   0  0  0  0  0  0  0  0  0  0  0  0
    8.7535    0.0996    0.0000 C   0  0  0  0  0  0  0  0  0  0  0  0
    8.1657    0.9086    0.0000 C   0  0  0  0  0  0  0  0  0  0  0  0
    9.8413   -1.7845    0.0000 C   0  0  0  0  0  0  0  0  0  0  0  0
    7.5779    1.7177    0.0000 C   0  0  0  0  0  0  0  0  0  0  0  0
    8.9747    1.4964    0.0000 C   0  0  0  0  0  0  0  0  0  0  0  0
    7.3567    0.3209    0.0000 C   0  0  0  0  0  0  0  0  0  0  0  0
   11.4236   -1.0800    0.0000 C   0  0  3  0  0  0  0  0  0  0  0  0
    6.3981   -3.5164    0.0000 C   0  0  0  0  0  0  0  0  0  0  0  0
   11.8303   -1.9935    0.0000 C   0  0  0  0  0  0  0  0  0  0  0  0
    5.5320   -4.0164    0.0000 C   0  0  0  0  0  0  0  0  0  0  0  0
    7.2641   -4.0164    0.0000 C   0  0  0  0  0  0  0  0  0  0  0  0
   12.0114   -0.2710    0.0000 C   0  0  0  0  0  0  0  0  0  0  0  0
    5.5320   -5.0164    0.0000 C   0  0  0  0  0  0  0  0  0  0  0  0
   12.8249   -2.0981    0.0000 C   0  0  0  0  0  0  0  0  0  0  0  0
    7.2641   -5.0164    0.0000 C   0  0  0  0  0  0  0  0  0  0  0  0
    4.6381   -3.4817    0.0000 C   0  0  0  0  0  0  0  0  0  0  0  0
    4.6381   -5.5510    0.0000 C   0  0  0  0  0  0  0  0  0  0  0  0
   12.1924    1.4516    0.0000 C   0  0  0  0  0  0  0  0  0  0  0  0
    3.7320   -3.9955    0.0000 C   0  0  0  0  0  0  0  0  0  0  0  0
    8.1301   -5.5164    0.0000 C   0  0  0  0  0  0  0  0  0  0  0  0
    3.7320   -5.0372    0.0000 C   0  0  0  0  0  0  0  0  0  0  0  0
   11.7857    2.3651    0.0000 C   0  0  0  0  0  0  0  0  0  0  0  0
    8.9962   -5.0164    0.0000 C   0  0  0  0  0  0  0  0  0  0  0  0
    8.1301   -6.5164    0.0000 C   0  0  0  0  0  0  0  0  0  0  0  0
   12.3735    3.1742    0.0000 C   0  0  0  0  0  0  0  0  0  0  0  0
    9.8622   -5.5164    0.0000 C   0  0  0  0  0  0  0  0  0  0  0  0
    8.9962   -7.0164    0.0000 C   0  0  0  0  0  0  0  0  0  0  0  0
    9.8622   -6.5164    0.0000 C   0  0  0  0  0  0  0  0  0  0  0  0
   13.3680    3.0696    0.0000 C   0  0  0  0  0  0  0  0  0  0  0  0
   11.9667    4.0877    0.0000 C   0  0  0  0  0  0  0  0  0  0  0  0
    2.0000   -5.0438    0.0000 C   0  0  0  0  0  0  0  0  0  0  0  0
   13.9558    3.8786    0.0000 C   0  0  0  0  0  0  0  0  0  0  0  0
   12.5545    4.8967    0.0000 C   0  0  0  0  0  0  0  0  0  0  0  0
   13.5491    4.7922    0.0000 C   0  0  0  0  0  0  0  0  0  0  0  0
   14.1368    5.6012    0.0000 C   0  0  0  0  0  0  0  0  0  0  0  0
    9.1844   -1.1600    0.0000 H   0  0  0  0  0  0  0  0  0  0  0  0
    6.7441   -1.6787    0.0000 H   0  0  0  0  0  0  0  0  0  0  0  0
    7.8676   -2.9600    0.0000 H   0  0  0  0  0  0  0  0  0  0  0  0
    8.6792   -2.7875    0.0000 H   0  0  0  0  0  0  0  0  0  0  0  0
    7.3038   -0.4052    0.0000 H   0  0  0  0  0  0  0  0  0  0  0  0
    6.7486   -1.0218    0.0000 H   0  0  0  0  0  0  0  0  0  0  0  0
    8.0795    2.0821    0.0000 H   0  0  0  0  0  0  0  0  0  0  0  0
    7.2135    2.2193    0.0000 H   0  0  0  0  0  0  0  0  0  0  0  0
    7.0764    1.3532    0.0000 H   0  0  0  0  0  0  0  0  0  0  0  0
    9.3392    0.9948    0.0000 H   0  0  0  0  0  0  0  0  0  0  0  0
    9.4763    1.8609    0.0000 H   0  0  0  0  0  0  0  0  0  0  0  0
    8.6103    1.9980    0.0000 H   0  0  0  0  0  0  0  0  0  0  0  0
    6.9923    0.8225    0.0000 H   0  0  0  0  0  0  0  0  0  0  0  0
    6.8551   -0.0436    0.0000 H   0  0  0  0  0  0  0  0  0  0  0  0
    7.7211   -0.1807    0.0000 H   0  0  0  0  0  0  0  0  0  0  0  0
   10.1769   -0.4091    0.0000 H   0  0  0  0  0  0  0  0  0  0  0  0
   11.1714   -0.5136    0.0000 H   0  0  0  0  0  0  0  0  0  0  0  0
   11.2288   -2.1435    0.0000 H   0  0  0  0  0  0  0  0  0  0  0  0
   11.8736   -2.6120    0.0000 H   0  0  0  0  0  0  0  0  0  0  0  0
    7.8010   -3.7064    0.0000 H   0  0  0  0  0  0  0  0  0  0  0  0
   13.4415   -2.1629    0.0000 H   0  0  0  0  0  0  0  0  0  0  0  0
    4.6453   -2.8617    0.0000 H   0  0  0  0  0  0  0  0  0  0  0  0
   10.9880    0.7074    0.0000 H   0  0  0  0  0  0  0  0  0  0  0  0
    4.6453   -6.1710    0.0000 H   0  0  0  0  0  0  0  0  0  0  0  0
   12.6231    1.0056    0.0000 H   0  0  0  0  0  0  0  0  0  0  0  0
   12.7064    1.7983    0.0000 H   0  0  0  0  0  0  0  0  0  0  0  0
    3.1963   -3.6835    0.0000 H   0  0  0  0  0  0  0  0  0  0  0  0
   11.3550    2.8111    0.0000 H   0  0  0  0  0  0  0  0  0  0  0  0
   11.2717    2.0184    0.0000 H   0  0  0  0  0  0  0  0  0  0  0  0
    8.9962   -4.3964    0.0000 H   0  0  0  0  0  0  0  0  0  0  0  0
    7.5932   -6.8264    0.0000 H   0  0  0  0  0  0  0  0  0  0  0  0
   10.3991   -5.2063    0.0000 H   0  0  0  0  0  0  0  0  0  0  0  0
    8.9962   -7.6364    0.0000 H   0  0  0  0  0  0  0  0  0  0  0  0
   10.3991   -6.8264    0.0000 H   0  0  0  0  0  0  0  0  0  0  0  0
   13.6202    2.5032    0.0000 H   0  0  0  0  0  0  0  0  0  0  0  0
   11.3501    4.1525    0.0000 H   0  0  0  0  0  0  0  0  0  0  0  0
    2.3079   -4.5057    0.0000 H   0  0  0  0  0  0  0  0  0  0  0  0
    1.4619   -4.7359    0.0000 H   0  0  0  0  0  0  0  0  0  0  0  0
    1.6921   -5.5820    0.0000 H   0  0  0  0  0  0  0  0  0  0  0  0
   14.5724    3.8138    0.0000 H   0  0  0  0  0  0  0  0  0  0  0  0
   12.3024    5.4631    0.0000 H   0  0  0  0  0  0  0  0  0  0  0  0
   14.0945    7.0164    0.0000 H   0  0  0  0  0  0  0  0  0  0  0  0
  1 31  1  0  0  0  0
  2 31  1  0  0  0  0
 15  3  1  1  0  0  0
  3 25  1  0  0  0  0
  4 18  2  0  0  0  0
  5 20  2  0  0  0  0
  6 29  2  0  0  0  0
  7 38  1  0  0  0  0
  7 48  1  0  0  0  0
  8 52  1  0  0  0  0
  8 94  1  0  0  0  0
  9 52  2  0  0  0  0
 10 14  1  0  0  0  0
 10 17  1  0  0  0  0
 10 18  1  0  0  0  0
 11 20  1  0  0  0  0
 11 24  1  0  0  0  0
 11 68  1  0  0  0  0
 12 29  1  0  0  0  0
 12 35  1  0  0  0  0
 12 75  1  0  0  0  0
 13 30  1  0  0  0  0
 13 32  2  0  0  0  0
 14 16  1  0  0  0  0
 14 20  1  6  0  0  0
 14 53  1  0  0  0  0
 15 16  1  0  0  0  0
 15 17  1  0  0  0  0
 15 54  1  0  0  0  0
 16 55  1  0  0  0  0
 16 56  1  0  0  0  0
 17 57  1  0  0  0  0
 17 58  1  0  0  0  0
 18 19  1  0  0  0  0
 19 21  1  0  0  0  0
 19 22  1  0  0  0  0
 19 23  1  0  0  0  0
 21 59  1  0  0  0  0
 21 60  1  0  0  0  0
 21 61  1  0  0  0  0
 22 62  1  0  0  0  0
 22 63  1  0  0  0  0
 22 64  1  0  0  0  0
 23 65  1  0  0  0  0
 23 66  1  0  0  0  0
 23 67  1  0  0  0  0
 24 26  1  0  0  0  0
 24 29  1  0  0  0  0
 24 69  1  0  0  0  0
 25 27  1  0  0  0  0
 25 28  2  0  0  0  0
 26 31  1  0  0  0  0
 26 70  1  0  0  0  0
 26 71  1  0  0  0  0
 27 30  2  0  0  0  0
 27 33  1  0  0  0  0
 28 32  1  0  0  0  0
 28 72  1  0  0  0  0
 30 34  1  0  0  0  0
 31 73  1  0  0  0  0
 32 37  1  0  0  0  0
 33 36  2  0  0  0  0
 33 74  1  0  0  0  0
 34 38  2  0  0  0  0
 34 76  1  0  0  0  0
 35 39  1  0  0  0  0
 35 77  1  0  0  0  0
 35 78  1  0  0  0  0
 36 38  1  0  0  0  0
 36 79  1  0  0  0  0
 37 40  2  0  0  0  0
 37 41  1  0  0  0  0
 39 42  1  0  0  0  0
 39 80  1  0  0  0  0
 39 81  1  0  0  0  0
 40 43  1  0  0  0  0
 40 82  1  0  0  0  0
 41 44  2  0  0  0  0
 41 83  1  0  0  0  0
 42 46  2  0  0  0  0
 42 47  1  0  0  0  0
 43 45  2  0  0  0  0
 43 84  1  0  0  0  0
 44 45  1  0  0  0  0
 44 85  1  0  0  0  0
 45 86  1  0  0  0  0
 46 49  1  0  0  0  0
 46 87  1  0  0  0  0
 47 50  2  0  0  0  0
 47 88  1  0  0  0  0
 48 89  1  0  0  0  0
 48 90  1  0  0  0  0
 48 91  1  0  0  0  0
 49 51  2  0  0  0  0
 49 92  1  0  0  0  0
 50 51  1  0  0  0  0
 50 93  1  0  0  0  0
 51 52  1  0  0  0  0
M  END
> <PUBCHEM_COMPOUND_CID>
508177
> <PUBCHEM_COMPOUND_CANONICALIZED>
1
> <PUBCHEM_CACTVS_COMPLEXITY>
1220
> <PUBCHEM_CACTVS_HBOND_ACCEPTOR>
10
> <PUBCHEM_CACTVS_HBOND_DONOR>
3
> <PUBCHEM_CACTVS_ROTATABLE_BOND>
14
> <PUBCHEM_CACTVS_SUBSKEYS>
AAADcfB/uYAAAAAAAAAAAAAAAAAAAWAAAAA8YMEAAAAAAACx9AAAHwAQCAAADjzhnhYyzvPIFgCoAyXyXACCiCAlIiAImKG+bNgOZvLEtbuXeSjm1hnY+Ye6+f+OYAAAAgACAADAAAAEAAQAAAAAAAAAAA==
> <PUBCHEM_IUPAC_OPENEYE_NAME>
4-[2-[[2-[[(2S,4R)-1-(2,2-dimethylpropanoyl)-4-[(7-methoxy-2-phenyl-4-quinolyl)oxy]pyrrolidine-2-carbonyl]amino]-4,4-difluoro-butanoyl]amino]ethyl]benzoic acid
> <PUBCHEM_IUPAC_CAS_NAME>
4-[2-[[2-[[[(2S,4R)-1-(2,2-dimethyl-1-oxopropyl)-4-[(7-methoxy-2-phenyl-4-quinolinyl)oxy]-2-pyrrolidinyl]-oxomethyl]amino]-4,4-difluoro-1-oxobutyl]amino]ethyl]benzoic acid
> <PUBCHEM_IUPAC_NAME_MARKUP>
4-[2-[[2-[[(2<I>S</I>,4<I>R</I>)-1-(2,2-dimethylpropanoyl)-4-(7-methoxy-2-phenylquinolin-4-yl)oxypyrrolidine-2-carbonyl]amino]-4,4-difluorobutanoyl]amino]ethyl]benzoic acid
> <PUBCHEM_IUPAC_NAME>
4-[2-[[2-[[(2S,4R)-1-(2,2-dimethylpropanoyl)-4-(7-methoxy-2-phenylquinolin-4-yl)oxypyrrolidine-2-carbonyl]amino]-4,4-difluorobutanoyl]amino]ethyl]benzoic acid
> <PUBCHEM_IUPAC_SYSTEMATIC_NAME>
4-[2-[[2-[[(2S,4R)-1-(2,2-dimethylpropanoyl)-4-(7-methoxy-2-phenyl-quinolin-4-yl)oxy-pyrrolidin-2-yl]carbonylamino]-4,4-bis(fluoranyl)butanoyl]amino]ethyl]benzoic acid
> <PUBCHEM_IUPAC_TRADITIONAL_NAME>
4-[2-[[4,4-difluoro-2-[[(2S,4R)-4-[(7-methoxy-2-phenyl-4-quinolyl)oxy]-1-pivaloyl-prolyl]amino]butanoyl]amino]ethyl]benzoic acid
> <PUBCHEM_IUPAC_INCHI>
InChI=1S/C39H42F2N4O7/c1-39(2,3)38(50)45-22-27(52-33-20-29(24-8-6-5-7-9-24)43-30-18-26(51-4)14-15-28(30)33)19-32(45)36(47)44-31(21-34(40)41)35(46)42-17-16-23-10-12-25(13-11-23)37(48)49/h5-15,18,20,27,31-32,34H,16-17,19,21-22H2,1-4H3,(H,42,46)(H,44,47)(H,48,49)/t27-,31?,32+/m1/s1
> <PUBCHEM_IUPAC_INCHIKEY>
WVCFLTSGBWSZER-NZFOUTAESA-N
> <PUBCHEM_XLOGP3_AA>
6.3
> <PUBCHEM_EXACT_MASS>
716.30215602
> <PUBCHEM_MOLECULAR_FORMULA>
C39H42F2N4O7
> <PUBCHEM_MOLECULAR_WEIGHT>
716.8
> <PUBCHEM_OPENEYE_CAN_SMILES>
CC(C)(C)C(=O)N1CC(CC1C(=O)NC(CC(F)F)C(=O)NCCC2=CC=C(C=C2)C(=O)O)OC3=CC(=NC4=C3C=CC(=C4)OC)C5=CC=CC=C5
> <PUBCHEM_OPENEYE_ISO_SMILES>
CC(C)(C)C(=O)N1C[C@@H](C[C@H]1C(=O)NC(CC(F)F)C(=O)NCCC2=CC=C(C=C2)C(=O)O)OC3=CC(=NC4=C3C=CC(=C4)OC)C5=CC=CC=C5
> <PUBCHEM_CACTVS_TPSA>
147
> <PUBCHEM_MONOISOTOPIC_WEIGHT>
716.30215602
> <PUBCHEM_TOTAL_CHARGE>
0
> <PUBCHEM_HEAVY_ATOM_COUNT>
52
> <PUBCHEM_ATOM_DEF_STEREO_COUNT>
2
> <PUBCHEM_ATOM_UDEF_STEREO_COUNT>
1
> <PUBCHEM_BOND_DEF_STEREO_COUNT>
0
> <PUBCHEM_BOND_UDEF_STEREO_COUNT>
0
> <PUBCHEM_ISOTOPIC_ATOM_COUNT>
0
> <PUBCHEM_COMPONENT_COUNT>
1
> <PUBCHEM_CACTVS_TAUTO_COUNT>
-1
> <PUBCHEM_COORDINATE_TYPE>
1
5
255
> <PUBCHEM_BONDANNOTATIONS>
13  30  8
13  32  8
14  20  6
24  26  3
25  27  8
25  28  8
27  30  8
27  33  8
28  32  8
15  3  5
30  34  8
33  36  8
34  38  8
36  38  8
37  40  8
37  41  8
40  43  8
41  44  8
42  46  8
42  47  8
43  45  8
44  45  8
46  49  8
47  50  8
49  51  8
50  51  8
$$$$
