508178
  -OEChem-10302200282D
 85 89  0     1  0  0  0  0  0999 V2000
    9.6882    3.4671    0.0000 F   0  0  0  0  0  0  0  0  0  0  0  0
   11.2705    2.7626    0.0000 F   0  0  0  0  0  0  0  0  0  0  0  0
    3.7210    2.8399    0.0000 F   0  0  0  0  0  0  0  0  0  0  0  0
    6.5236    4.8760    0.0000 F   0  0  0  0  0  0  0  0  0  0  0  0
    6.7003   -2.6986    0.0000 O   0  0  0  0  0  0  0  0  0  0  0  0
   10.0503    0.0219    0.0000 O   0  0  0  0  0  0  0  0  0  0  0  0
   10.7313   -1.1577    0.0000 O   0  0  0  0  0  0  0  0  0  0  0  0
    8.6937    3.3625    0.0000 O   0  0  0  0  0  0  0  0  0  0  0  0
    3.1702   -5.7227    0.0000 O   0  0  0  0  0  0  0  0  0  0  0  0
    2.3644    6.1805    0.0000 O   0  0  0  0  0  0  0  0  0  0  0  0
    3.7657    7.1986    0.0000 O   0  0  0  0  0  0  0  0  0  0  0  0
    9.1490   -1.8622    0.0000 N   0  0  0  0  0  0  0  0  0  0  0  0
    8.4680    0.7264    0.0000 N   0  0  0  0  0  0  0  0  0  0  0  0
    7.2924    2.3445    0.0000 N   0  0  0  0  0  0  0  0  0  0  0  0
    6.7003   -5.6986    0.0000 N   0  0  0  0  0  0  0  0  0  0  0  0
    8.6490   -0.9961    0.0000 C   0  0  1  0  0  0  0  0  0  0  0  0
    7.5663   -2.1986    0.0000 C   0  0  2  0  0  0  0  0  0  0  0  0
    7.6709   -1.2040    0.0000 C   0  0  0  0  0  0  0  0  0  0  0  0
    8.4799   -2.6053    0.0000 C   0  0  0  0  0  0  0  0  0  0  0  0
    9.0558   -0.0826    0.0000 C   0  0  0  0  0  0  0  0  0  0  0  0
   10.1435   -1.9667    0.0000 C   0  0  0  0  0  0  0  0  0  0  0  0
    8.8747    1.6400    0.0000 C   0  0  3  0  0  0  0  0  0  0  0  0
    6.7003   -3.6986    0.0000 C   0  0  0  0  0  0  0  0  0  0  0  0
   10.5503   -2.8802    0.0000 C   0  0  0  0  0  0  0  0  0  0  0  0
    9.8692    1.7445    0.0000 C   0  0  0  0  0  0  0  0  0  0  0  0
    5.8343   -4.1986    0.0000 C   0  0  0  0  0  0  0  0  0  0  0  0
    8.2869    2.4490    0.0000 C   0  0  0  0  0  0  0  0  0  0  0  0
    7.5663   -4.1986    0.0000 C   0  0  0  0  0  0  0  0  0  0  0  0
    5.8343   -5.1986    0.0000 C   0  0  0  0  0  0  0  0  0  0  0  0
   10.2760    2.6580    0.0000 C   0  0  0  0  0  0  0  0  0  0  0  0
    7.5663   -5.1986    0.0000 C   0  0  0  0  0  0  0  0  0  0  0  0
    4.9403   -3.6639    0.0000 C   0  0  0  0  0  0  0  0  0  0  0  0
    6.7046    3.1535    0.0000 C   0  0  0  0  0  0  0  0  0  0  0  0
    4.9403   -5.7332    0.0000 C   0  0  0  0  0  0  0  0  0  0  0  0
    8.4324   -5.6986    0.0000 C   0  0  0  0  0  0  0  0  0  0  0  0
    4.0343   -4.1777    0.0000 C   0  0  0  0  0  0  0  0  0  0  0  0
    4.0343   -5.2194    0.0000 C   0  0  0  0  0  0  0  0  0  0  0  0
    5.7101    3.0490    0.0000 C   0  0  0  0  0  0  0  0  0  0  0  0
    5.1223    3.8580    0.0000 C   0  0  0  0  0  0  0  0  0  0  0  0
    9.2984   -5.1986    0.0000 C   0  0  0  0  0  0  0  0  0  0  0  0
    8.4324   -6.6986    0.0000 C   0  0  0  0  0  0  0  0  0  0  0  0
   10.1644   -5.6986    0.0000 C   0  0  0  0  0  0  0  0  0  0  0  0
    9.2984   -7.1986    0.0000 C   0  0  0  0  0  0  0  0  0  0  0  0
    4.1278    3.7534    0.0000 C   0  0  0  0  0  0  0  0  0  0  0  0
    5.5290    4.7715    0.0000 C   0  0  0  0  0  0  0  0  0  0  0  0
   10.1644   -6.6986    0.0000 C   0  0  0  0  0  0  0  0  0  0  0  0
    2.3022   -5.2261    0.0000 C   0  0  0  0  0  0  0  0  0  0  0  0
    3.5400    4.5625    0.0000 C   0  0  0  0  0  0  0  0  0  0  0  0
    4.9413    5.5805    0.0000 C   0  0  0  0  0  0  0  0  0  0  0  0
    3.9467    5.4760    0.0000 C   0  0  0  0  0  0  0  0  0  0  0  0
    3.3590    6.2850    0.0000 C   0  0  0  0  0  0  0  0  0  0  0  0
    9.2682   -0.9637    0.0000 H   0  0  0  0  0  0  0  0  0  0  0  0
    7.0464   -1.8609    0.0000 H   0  0  0  0  0  0  0  0  0  0  0  0
    7.6061   -0.5874    0.0000 H   0  0  0  0  0  0  0  0  0  0  0  0
    7.0509   -1.2040    0.0000 H   0  0  0  0  0  0  0  0  0  0  0  0
    8.1699   -3.1422    0.0000 H   0  0  0  0  0  0  0  0  0  0  0  0
    8.9815   -2.9697    0.0000 H   0  0  0  0  0  0  0  0  0  0  0  0
    7.8514    0.6616    0.0000 H   0  0  0  0  0  0  0  0  0  0  0  0
    9.2391    1.1384    0.0000 H   0  0  0  0  0  0  0  0  0  0  0  0
    9.9839   -3.1324    0.0000 H   0  0  0  0  0  0  0  0  0  0  0  0
   10.8025   -3.4466    0.0000 H   0  0  0  0  0  0  0  0  0  0  0  0
   11.1167   -2.6280    0.0000 H   0  0  0  0  0  0  0  0  0  0  0  0
    9.8260    1.1260    0.0000 H   0  0  0  0  0  0  0  0  0  0  0  0
   10.4708    1.5945    0.0000 H   0  0  0  0  0  0  0  0  0  0  0  0
    8.1033   -3.8886    0.0000 H   0  0  0  0  0  0  0  0  0  0  0  0
   10.6404    2.1565    0.0000 H   0  0  0  0  0  0  0  0  0  0  0  0
    4.9475   -3.0440    0.0000 H   0  0  0  0  0  0  0  0  0  0  0  0
    7.0402    1.7781    0.0000 H   0  0  0  0  0  0  0  0  0  0  0  0
    7.2619    3.4253    0.0000 H   0  0  0  0  0  0  0  0  0  0  0  0
    6.5337    3.7495    0.0000 H   0  0  0  0  0  0  0  0  0  0  0  0
    4.9475   -6.3532    0.0000 H   0  0  0  0  0  0  0  0  0  0  0  0
    3.4985   -3.8657    0.0000 H   0  0  0  0  0  0  0  0  0  0  0  0
    5.1528    2.7772    0.0000 H   0  0  0  0  0  0  0  0  0  0  0  0
    5.8810    2.4530    0.0000 H   0  0  0  0  0  0  0  0  0  0  0  0
    9.2984   -4.5786    0.0000 H   0  0  0  0  0  0  0  0  0  0  0  0
    7.8954   -7.0086    0.0000 H   0  0  0  0  0  0  0  0  0  0  0  0
   10.7014   -5.3886    0.0000 H   0  0  0  0  0  0  0  0  0  0  0  0
    9.2984   -7.8186    0.0000 H   0  0  0  0  0  0  0  0  0  0  0  0
   10.7014   -7.0086    0.0000 H   0  0  0  0  0  0  0  0  0  0  0  0
    2.9234    4.4976    0.0000 H   0  0  0  0  0  0  0  0  0  0  0  0
    5.1934    6.1469    0.0000 H   0  0  0  0  0  0  0  0  0  0  0  0
    2.6102   -4.6879    0.0000 H   0  0  0  0  0  0  0  0  0  0  0  0
    1.7641   -4.9181    0.0000 H   0  0  0  0  0  0  0  0  0  0  0  0
    1.9943   -5.7642    0.0000 H   0  0  0  0  0  0  0  0  0  0  0  0
    2.0000    6.6821    0.0000 H   0  0  0  0  0  0  0  0  0  0  0  0
  1 30  1  0  0  0  0
  2 30  1  0  0  0  0
  3 44  1  0  0  0  0
  4 45  1  0  0  0  0
 17  5  1  6  0  0  0
  5 23  1  0  0  0  0
  6 20  2  0  0  0  0
  7 21  2  0  0  0  0
  8 27  2  0  0  0  0
  9 37  1  0  0  0  0
  9 47  1  0  0  0  0
 10 51  1  0  0  0  0
 10 85  1  0  0  0  0
 11 51  2  0  0  0  0
 12 16  1  0  0  0  0
 12 19  1  0  0  0  0
 12 21  1  0  0  0  0
 13 20  1  0  0  0  0
 13 22  1  0  0  0  0
 13 58  1  0  0  0  0
 14 27  1  0  0  0  0
 14 33  1  0  0  0  0
 14 68  1  0  0  0  0
 15 29  1  0  0  0  0
 15 31  2  0  0  0  0
 16 18  1  0  0  0  0
 16 20  1  1  0  0  0
 16 52  1  0  0  0  0
 17 18  1  0  0  0  0
 17 19  1  0  0  0  0
 17 53  1  0  0  0  0
 18 54  1  0  0  0  0
 18 55  1  0  0  0  0
 19 56  1  0  0  0  0
 19 57  1  0  0  0  0
 21 24  1  0  0  0  0
 22 25  1  0  0  0  0
 22 27  1  0  0  0  0
 22 59  1  0  0  0  0
 23 26  1  0  0  0  0
 23 28  2  0  0  0  0
 24 60  1  0  0  0  0
 24 61  1  0  0  0  0
 24 62  1  0  0  0  0
 25 30  1  0  0  0  0
 25 63  1  0  0  0  0
 25 64  1  0  0  0  0
 26 29  2  0  0  0  0
 26 32  1  0  0  0  0
 28 31  1  0  0  0  0
 28 65  1  0  0  0  0
 29 34  1  0  0  0  0
 30 66  1  0  0  0  0
 31 35  1  0  0  0  0
 32 36  2  0  0  0  0
 32 67  1  0  0  0  0
 33 38  1  0  0  0  0
 33 69  1  0  0  0  0
 33 70  1  0  0  0  0
 34 37  2  0  0  0  0
 34 71  1  0  0  0  0
 35 40  2  0  0  0  0
 35 41  1  0  0  0  0
 36 37  1  0  0  0  0
 36 72  1  0  0  0  0
 38 39  1  0  0  0  0
 38 73  1  0  0  0  0
 38 74  1  0  0  0  0
 39 44  2  0  0  0  0
 39 45  1  0  0  0  0
 40 42  1  0  0  0  0
 40 75  1  0  0  0  0
 41 43  2  0  0  0  0
 41 76  1  0  0  0  0
 42 46  2  0  0  0  0
 42 77  1  0  0  0  0
 43 46  1  0  0  0  0
 43 78  1  0  0  0  0
 44 48  1  0  0  0  0
 45 49  2  0  0  0  0
 46 79  1  0  0  0  0
 47 82  1  0  0  0  0
 47 83  1  0  0  0  0
 47 84  1  0  0  0  0
 48 50  2  0  0  0  0
 48 80  1  0  0  0  0
 49 50  1  0  0  0  0
 49 81  1  0  0  0  0
 50 51  1  0  0  0  0
M  END
> <PUBCHEM_COMPOUND_CID>
508178
> <PUBCHEM_COMPOUND_CANONICALIZED>
1
> <PUBCHEM_CACTVS_COMPLEXITY>
1200
> <PUBCHEM_CACTVS_HBOND_ACCEPTOR>
12
> <PUBCHEM_CACTVS_HBOND_DONOR>
3
> <PUBCHEM_CACTVS_ROTATABLE_BOND>
13
> <PUBCHEM_CACTVS_SUBSKEYS>
AAADcfB/ucAAAAAAAAAAAAAAAAAAAWAAAAA8YMEAAAAAAACx9AAAHwAQCAAADDzhnh4yzvPIFgCoAyXyXACCiCAlIiAImKG+bNgOZvLEtbuXeSjm1hnY+Ye6+f+OYAAAAgACAADAAAAEAAQAAAAAAAAAAA==
> <PUBCHEM_IUPAC_OPENEYE_NAME>
4-[2-[[2-[[(2S,4R)-1-acetyl-4-[(7-methoxy-2-phenyl-4-quinolyl)oxy]pyrrolidine-2-carbonyl]amino]-4,4-difluoro-butanoyl]amino]ethyl]-3,5-difluoro-benzoic acid
> <PUBCHEM_IUPAC_CAS_NAME>
4-[2-[[2-[[[(2S,4R)-1-acetyl-4-[(7-methoxy-2-phenyl-4-quinolinyl)oxy]-2-pyrrolidinyl]-oxomethyl]amino]-4,4-difluoro-1-oxobutyl]amino]ethyl]-3,5-difluorobenzoic acid
> <PUBCHEM_IUPAC_NAME_MARKUP>
4-[2-[[2-[[(2<I>S</I>,4<I>R</I>)-1-acetyl-4-(7-methoxy-2-phenylquinolin-4-yl)oxypyrrolidine-2-carbonyl]amino]-4,4-difluorobutanoyl]amino]ethyl]-3,5-difluorobenzoic acid
> <PUBCHEM_IUPAC_NAME>
4-[2-[[2-[[(2S,4R)-1-acetyl-4-(7-methoxy-2-phenylquinolin-4-yl)oxypyrrolidine-2-carbonyl]amino]-4,4-difluorobutanoyl]amino]ethyl]-3,5-difluorobenzoic acid
> <PUBCHEM_IUPAC_SYSTEMATIC_NAME>
4-[2-[[2-[[(2S,4R)-1-ethanoyl-4-(7-methoxy-2-phenyl-quinolin-4-yl)oxy-pyrrolidin-2-yl]carbonylamino]-4,4-bis(fluoranyl)butanoyl]amino]ethyl]-3,5-bis(fluoranyl)benzoic acid
> <PUBCHEM_IUPAC_TRADITIONAL_NAME>
4-[2-[[2-[[(2S,4R)-1-acetyl-4-[(7-methoxy-2-phenyl-4-quinolyl)oxy]prolyl]amino]-4,4-difluoro-butanoyl]amino]ethyl]-3,5-difluoro-benzoic acid
> <PUBCHEM_IUPAC_INCHI>
InChI=1S/C36H34F4N4O7/c1-19(45)44-18-23(51-32-16-28(20-6-4-3-5-7-20)42-29-14-22(50-2)8-9-25(29)32)15-31(44)35(47)43-30(17-33(39)40)34(46)41-11-10-24-26(37)12-21(36(48)49)13-27(24)38/h3-9,12-14,16,23,30-31,33H,10-11,15,17-18H2,1-2H3,(H,41,46)(H,43,47)(H,48,49)/t23-,30?,31+/m1/s1
> <PUBCHEM_IUPAC_INCHIKEY>
YXVHVOBHAQENGH-QMZFPJMUSA-N
> <PUBCHEM_XLOGP3_AA>
5.1
> <PUBCHEM_EXACT_MASS>
710.23636208
> <PUBCHEM_MOLECULAR_FORMULA>
C36H34F4N4O7
> <PUBCHEM_MOLECULAR_WEIGHT>
710.7
> <PUBCHEM_OPENEYE_CAN_SMILES>
CC(=O)N1CC(CC1C(=O)NC(CC(F)F)C(=O)NCCC2=C(C=C(C=C2F)C(=O)O)F)OC3=CC(=NC4=C3C=CC(=C4)OC)C5=CC=CC=C5
> <PUBCHEM_OPENEYE_ISO_SMILES>
CC(=O)N1C[C@@H](C[C@H]1C(=O)NC(CC(F)F)C(=O)NCCC2=C(C=C(C=C2F)C(=O)O)F)OC3=CC(=NC4=C3C=CC(=C4)OC)C5=CC=CC=C5
> <PUBCHEM_CACTVS_TPSA>
147
> <PUBCHEM_MONOISOTOPIC_WEIGHT>
710.23636208
> <PUBCHEM_TOTAL_CHARGE>
0
> <PUBCHEM_HEAVY_ATOM_COUNT>
51
> <PUBCHEM_ATOM_DEF_STEREO_COUNT>
2
> <PUBCHEM_ATOM_UDEF_STEREO_COUNT>
1
> <PUBCHEM_BOND_DEF_STEREO_COUNT>
0
> <PUBCHEM_BOND_UDEF_STEREO_COUNT>
0
> <PUBCHEM_ISOTOPIC_ATOM_COUNT>
0
> <PUBCHEM_COMPONENT_COUNT>
1
> <PUBCHEM_CACTVS_TAUTO_COUNT>
-1
> <PUBCHEM_COORDINATE_TYPE>
1
5
255
> <PUBCHEM_BONDANNOTATIONS>
15  29  8
15  31  8
16  20  5
22  25  3
23  26  8
23  28  8
26  29  8
26  32  8
28  31  8
29  34  8
32  36  8
34  37  8
35  40  8
35  41  8
36  37  8
39  44  8
39  45  8
40  42  8
41  43  8
42  46  8
43  46  8
44  48  8
45  49  8
48  50  8
49  50  8
17  5  6
$$$$
