508180
  -OEChem-10302200282D
 98103  0     1  0  0  0  0  0999 V2000
    7.6138    0.5807    0.0000 O   0  0  0  0  0  0  0  0  0  0  0  0
    6.2619   -0.8427    0.0000 O   0  0  0  0  0  0  0  0  0  0  0  0
   10.1921    2.8942    0.0000 O   0  0  0  0  0  0  0  0  0  0  0  0
    6.6353    0.3745    0.0000 O   0  0  0  0  0  0  0  0  0  0  0  0
   10.3121   -2.4977    0.0000 O   0  0  0  0  0  0  0  0  0  0  0  0
    9.5708    0.9931    0.0000 N   0  0  3  0  0  0  0  0  0  0  0  0
   10.9065   -0.4955    0.0000 N   0  0  3  0  0  0  0  0  0  0  0  0
    4.9889    0.9125    0.0000 N   0  0  0  0  0  0  0  0  0  0  0  0
   11.8385    2.3561    0.0000 N   0  0  0  0  0  0  0  0  0  0  0  0
   11.8501   -3.0003    0.0000 N   0  0  0  0  0  0  0  0  0  0  0  0
    9.6031   -5.0788    0.0000 N   0  0  0  0  0  0  0  0  0  0  0  0
   10.5493    1.1993    0.0000 C   0  0  1  0  0  0  0  0  0  0  0  0
   11.2171    0.4550    0.0000 C   0  0  0  0  0  0  0  0  0  0  0  0
    9.2601    0.0426    0.0000 C   0  0  0  0  0  0  0  0  0  0  0  0
    8.9030    1.7374    0.0000 C   0  0  0  0  0  0  0  0  0  0  0  0
    9.9280   -0.7017    0.0000 C   0  0  0  0  0  0  0  0  0  0  0  0
    7.9244    1.5312    0.0000 C   0  0  2  0  0  0  0  0  0  0  0  0
    7.2566    2.2755    0.0000 C   0  0  0  0  0  0  0  0  0  0  0  0
    6.2781    2.0693    0.0000 C   0  0  1  0  0  0  0  0  0  0  0  0
    4.6783   -0.0380    0.0000 C   0  0  2  0  0  0  0  0  0  0  0  0
   10.8600    2.1499    0.0000 C   0  0  0  0  0  0  0  0  0  0  0  0
    5.2619   -0.8427    0.0000 C   0  0  1  0  0  0  0  0  0  0  0  0
   11.5743   -1.2398    0.0000 C   0  0  0  0  0  0  0  0  0  0  0  0
    4.6783   -1.6474    0.0000 C   0  0  0  0  0  0  0  0  0  0  0  0
    3.7320   -0.3427    0.0000 C   0  0  0  0  0  0  0  0  0  0  0  0
    5.9674    1.1188    0.0000 C   0  0  0  0  0  0  0  0  0  0  0  0
    5.6103    2.8136    0.0000 C   0  0  0  0  0  0  0  0  0  0  0  0
    3.7320   -1.3427    0.0000 C   0  0  0  0  0  0  0  0  0  0  0  0
   12.5063    1.6118    0.0000 C   0  0  0  0  0  0  0  0  0  0  0  0
   11.2637   -2.1903    0.0000 C   0  0  0  0  0  0  0  0  0  0  0  0
    2.8660    0.1573    0.0000 C   0  0  0  0  0  0  0  0  0  0  0  0
    5.9209    3.7641    0.0000 C   0  0  0  0  0  0  0  0  0  0  0  0
    2.8660   -1.8427    0.0000 C   0  0  0  0  0  0  0  0  0  0  0  0
   13.1742    0.8675    0.0000 C   0  0  0  0  0  0  0  0  0  0  0  0
   13.2506    2.2796    0.0000 C   0  0  0  0  0  0  0  0  0  0  0  0
   11.7620    0.9439    0.0000 C   0  0  0  0  0  0  0  0  0  0  0  0
    2.0000   -0.3427    0.0000 C   0  0  0  0  0  0  0  0  0  0  0  0
    2.0000   -1.3427    0.0000 C   0  0  0  0  0  0  0  0  0  0  0  0
    6.8994    3.9703    0.0000 C   0  0  0  0  0  0  0  0  0  0  0  0
    5.2531    4.5084    0.0000 C   0  0  0  0  0  0  0  0  0  0  0  0
   10.3103   -3.4977    0.0000 C   0  0  0  0  0  0  0  0  0  0  0  0
   11.2609   -3.8083    0.0000 C   0  0  0  0  0  0  0  0  0  0  0  0
    7.2101    4.9208    0.0000 C   0  0  0  0  0  0  0  0  0  0  0  0
    5.5637    5.4589    0.0000 C   0  0  0  0  0  0  0  0  0  0  0  0
    6.5422    5.6652    0.0000 C   0  0  0  0  0  0  0  0  0  0  0  0
    9.5003   -4.0841    0.0000 C   0  0  0  0  0  0  0  0  0  0  0  0
    8.5875   -3.6757    0.0000 C   0  0  0  0  0  0  0  0  0  0  0  0
    7.7774   -4.2621    0.0000 C   0  0  0  0  0  0  0  0  0  0  0  0
    8.7931   -5.6652    0.0000 C   0  0  0  0  0  0  0  0  0  0  0  0
    7.8802   -5.2568    0.0000 C   0  0  0  0  0  0  0  0  0  0  0  0
   10.1352    1.6608    0.0000 H   0  0  0  0  0  0  0  0  0  0  0  0
   11.7641    0.1630    0.0000 H   0  0  0  0  0  0  0  0  0  0  0  0
   11.5997    0.9429    0.0000 H   0  0  0  0  0  0  0  0  0  0  0  0
    8.7132    0.3346    0.0000 H   0  0  0  0  0  0  0  0  0  0  0  0
    8.8776   -0.4453    0.0000 H   0  0  0  0  0  0  0  0  0  0  0  0
    9.4293    2.0651    0.0000 H   0  0  0  0  0  0  0  0  0  0  0  0
    8.6717    2.3127    0.0000 H   0  0  0  0  0  0  0  0  0  0  0  0
    9.4016   -1.0293    0.0000 H   0  0  0  0  0  0  0  0  0  0  0  0
   10.1592   -1.2770    0.0000 H   0  0  0  0  0  0  0  0  0  0  0  0
    8.3385    1.0697    0.0000 H   0  0  0  0  0  0  0  0  0  0  0  0
    7.7830    2.6031    0.0000 H   0  0  0  0  0  0  0  0  0  0  0  0
    7.0254    2.8508    0.0000 H   0  0  0  0  0  0  0  0  0  0  0  0
    6.4707    2.6586    0.0000 H   0  0  0  0  0  0  0  0  0  0  0  0
    5.2908    0.0582    0.0000 H   0  0  0  0  0  0  0  0  0  0  0  0
    5.5436   -1.3950    0.0000 H   0  0  0  0  0  0  0  0  0  0  0  0
   12.1213   -1.5318    0.0000 H   0  0  0  0  0  0  0  0  0  0  0  0
   11.9569   -0.7519    0.0000 H   0  0  0  0  0  0  0  0  0  0  0  0
    4.4272   -2.2144    0.0000 H   0  0  0  0  0  0  0  0  0  0  0  0
    5.2156   -1.9567    0.0000 H   0  0  0  0  0  0  0  0  0  0  0  0
    5.0633    3.1056    0.0000 H   0  0  0  0  0  0  0  0  0  0  0  0
    5.2277    2.3257    0.0000 H   0  0  0  0  0  0  0  0  0  0  0  0
    4.5749    1.3740    0.0000 H   0  0  0  0  0  0  0  0  0  0  0  0
   12.0311    2.9454    0.0000 H   0  0  0  0  0  0  0  0  0  0  0  0
    8.0279    0.1192    0.0000 H   0  0  0  0  0  0  0  0  0  0  0  0
    2.8660    0.7773    0.0000 H   0  0  0  0  0  0  0  0  0  0  0  0
    2.8660   -2.4627    0.0000 H   0  0  0  0  0  0  0  0  0  0  0  0
   12.7127    0.4534    0.0000 H   0  0  0  0  0  0  0  0  0  0  0  0
   13.5882    0.4060    0.0000 H   0  0  0  0  0  0  0  0  0  0  0  0
   13.6356    1.2815    0.0000 H   0  0  0  0  0  0  0  0  0  0  0  0
   13.6647    1.8182    0.0000 H   0  0  0  0  0  0  0  0  0  0  0  0
   13.7121    2.6937    0.0000 H   0  0  0  0  0  0  0  0  0  0  0  0
   12.8366    2.7411    0.0000 H   0  0  0  0  0  0  0  0  0  0  0  0
   11.3480    1.4054    0.0000 H   0  0  0  0  0  0  0  0  0  0  0  0
   11.3005    0.5299    0.0000 H   0  0  0  0  0  0  0  0  0  0  0  0
   12.1761    0.4825    0.0000 H   0  0  0  0  0  0  0  0  0  0  0  0
    6.5719   -1.3796    0.0000 H   0  0  0  0  0  0  0  0  0  0  0  0
    1.4631   -0.0327    0.0000 H   0  0  0  0  0  0  0  0  0  0  0  0
    1.4631   -1.6527    0.0000 H   0  0  0  0  0  0  0  0  0  0  0  0
    7.3135    3.5089    0.0000 H   0  0  0  0  0  0  0  0  0  0  0  0
    4.6464    4.3806    0.0000 H   0  0  0  0  0  0  0  0  0  0  0  0
   11.4514   -4.3983    0.0000 H   0  0  0  0  0  0  0  0  0  0  0  0
    7.8168    5.0487    0.0000 H   0  0  0  0  0  0  0  0  0  0  0  0
    5.1497    5.9204    0.0000 H   0  0  0  0  0  0  0  0  0  0  0  0
    6.7349    6.2545    0.0000 H   0  0  0  0  0  0  0  0  0  0  0  0
    8.5237   -3.0590    0.0000 H   0  0  0  0  0  0  0  0  0  0  0  0
    7.2115   -4.0090    0.0000 H   0  0  0  0  0  0  0  0  0  0  0  0
    8.8568   -6.2819    0.0000 H   0  0  0  0  0  0  0  0  0  0  0  0
    7.3780   -5.6204    0.0000 H   0  0  0  0  0  0  0  0  0  0  0  0
 17  1  1  1  0  0  0
  1 74  1  0  0  0  0
 22  2  1  6  0  0  0
  2 86  1  0  0  0  0
  3 21  2  0  0  0  0
  4 26  2  0  0  0  0
  5 30  1  0  0  0  0
  5 41  1  0  0  0  0
  6 12  1  0  0  0  0
  6 14  1  0  0  0  0
  6 15  1  0  0  0  0
  7 13  1  0  0  0  0
  7 16  1  0  0  0  0
  7 23  1  0  0  0  0
 20  8  1  6  0  0  0
  8 26  1  0  0  0  0
  8 72  1  0  0  0  0
  9 21  1  0  0  0  0
  9 29  1  0  0  0  0
  9 73  1  0  0  0  0
 10 30  2  0  0  0  0
 10 42  1  0  0  0  0
 11 46  1  0  0  0  0
 11 49  2  0  0  0  0
 12 13  1  0  0  0  0
 12 21  1  6  0  0  0
 12 51  1  0  0  0  0
 13 52  1  0  0  0  0
 13 53  1  0  0  0  0
 14 16  1  0  0  0  0
 14 54  1  0  0  0  0
 14 55  1  0  0  0  0
 15 17  1  0  0  0  0
 15 56  1  0  0  0  0
 15 57  1  0  0  0  0
 16 58  1  0  0  0  0
 16 59  1  0  0  0  0
 17 18  1  0  0  0  0
 17 60  1  0  0  0  0
 19 18  1  1  0  0  0
 18 61  1  0  0  0  0
 18 62  1  0  0  0  0
 19 26  1  0  0  0  0
 19 27  1  0  0  0  0
 19 63  1  0  0  0  0
 20 22  1  0  0  0  0
 20 25  1  0  0  0  0
 20 64  1  0  0  0  0
 22 24  1  0  0  0  0
 22 65  1  0  0  0  0
 23 30  1  0  0  0  0
 23 66  1  0  0  0  0
 23 67  1  0  0  0  0
 24 28  1  0  0  0  0
 24 68  1  0  0  0  0
 24 69  1  0  0  0  0
 25 28  1  0  0  0  0
 25 31  2  0  0  0  0
 27 32  1  0  0  0  0
 27 70  1  0  0  0  0
 27 71  1  0  0  0  0
 28 33  2  0  0  0  0
 29 34  1  0  0  0  0
 29 35  1  0  0  0  0
 29 36  1  0  0  0  0
 31 37  1  0  0  0  0
 31 75  1  0  0  0  0
 32 39  2  0  0  0  0
 32 40  1  0  0  0  0
 33 38  1  0  0  0  0
 33 76  1  0  0  0  0
 34 77  1  0  0  0  0
 34 78  1  0  0  0  0
 34 79  1  0  0  0  0
 35 80  1  0  0  0  0
 35 81  1  0  0  0  0
 35 82  1  0  0  0  0
 36 83  1  0  0  0  0
 36 84  1  0  0  0  0
 36 85  1  0  0  0  0
 37 38  2  0  0  0  0
 37 87  1  0  0  0  0
 38 88  1  0  0  0  0
 39 43  1  0  0  0  0
 39 89  1  0  0  0  0
 40 44  2  0  0  0  0
 40 90  1  0  0  0  0
 41 42  2  0  0  0  0
 41 46  1  0  0  0  0
 42 91  1  0  0  0  0
 43 45  2  0  0  0  0
 43 92  1  0  0  0  0
 44 45  1  0  0  0  0
 44 93  1  0  0  0  0
 45 94  1  0  0  0  0
 46 47  2  0  0  0  0
 47 48  1  0  0  0  0
 47 95  1  0  0  0  0
 48 50  2  0  0  0  0
 48 96  1  0  0  0  0
 49 50  1  0  0  0  0
 49 97  1  0  0  0  0
 50 98  1  0  0  0  0
M  END
> <PUBCHEM_COMPOUND_CID>
508180
> <PUBCHEM_COMPOUND_CANONICALIZED>
1
> <PUBCHEM_CACTVS_COMPLEXITY>
1100
> <PUBCHEM_CACTVS_HBOND_ACCEPTOR>
9
> <PUBCHEM_CACTVS_HBOND_DONOR>
4
> <PUBCHEM_CACTVS_ROTATABLE_BOND>
13
> <PUBCHEM_CACTVS_SUBSKEYS>
AAADcfB/uAAAAAAAAAAAAAAAAAAAAeIAAAA8eIEAAAAAAGAB9AAAHgAQCAAADbzhngY+hJPIFkCoA7V3VASCiCA/QiAI2KG7bNgOdvrA9bmfeQjk1gHY6Ye62fKOgAAAAAAQAAAAAAAAACAAAKAACQgAAA==
> <PUBCHEM_IUPAC_OPENEYE_NAME>
(2S)-1-[(2S,4S)-4-benzyl-2-hydroxy-5-[[(1S,2R)-2-hydroxyindan-1-yl]amino]-5-oxo-pentyl]-N-tert-butyl-4-[[5-(2-pyridyl)oxazol-2-yl]methyl]piperazine-2-carboxamide
> <PUBCHEM_IUPAC_CAS_NAME>
(2S)-N-tert-butyl-1-[(2S,4S)-2-hydroxy-5-[[(1S,2R)-2-hydroxy-2,3-dihydro-1H-inden-1-yl]amino]-5-oxo-4-(phenylmethyl)pentyl]-4-[[5-(2-pyridinyl)-2-oxazolyl]methyl]-2-piperazinecarboxamide
> <PUBCHEM_IUPAC_NAME_MARKUP>
(2<I>S</I>)-1-[(2<I>S</I>,4<I>S</I>)-4-benzyl-2-hydroxy-5-[[(1<I>S</I>,2<I>R</I>)-2-hydroxy-2,3-dihydro-1<I>H</I>-inden-1-yl]amino]-5-oxopentyl]-<I>N</I>-<I>tert</I>-butyl-4-[(5-pyridin-2-yl-1,3-oxazol-2-yl)methyl]piperazine-2-carboxamide
> <PUBCHEM_IUPAC_NAME>
(2S)-1-[(2S,4S)-4-benzyl-2-hydroxy-5-[[(1S,2R)-2-hydroxy-2,3-dihydro-1H-inden-1-yl]amino]-5-oxopentyl]-N-tert-butyl-4-[(5-pyridin-2-yl-1,3-oxazol-2-yl)methyl]piperazine-2-carboxamide
> <PUBCHEM_IUPAC_SYSTEMATIC_NAME>
(2S)-N-tert-butyl-1-[(2S,4S)-2-oxidanyl-5-[[(1S,2R)-2-oxidanyl-2,3-dihydro-1H-inden-1-yl]amino]-5-oxidanylidene-4-(phenylmethyl)pentyl]-4-[(5-pyridin-2-yl-1,3-oxazol-2-yl)methyl]piperazine-2-carboxamide
> <PUBCHEM_IUPAC_TRADITIONAL_NAME>
(2S)-1-[(2S,4S)-4-benzyl-2-hydroxy-5-[[(1S,2R)-2-hydroxyindan-1-yl]amino]-5-keto-pentyl]-N-tert-butyl-4-[[5-(2-pyridyl)oxazol-2-yl]methyl]piperazine-2-carboxamide
> <PUBCHEM_IUPAC_INCHI>
InChI=1S/C39H48N6O5/c1-39(2,3)43-38(49)32-24-44(25-35-41-22-34(50-35)31-15-9-10-16-40-31)17-18-45(32)23-29(46)20-28(19-26-11-5-4-6-12-26)37(48)42-36-30-14-8-7-13-27(30)21-33(36)47/h4-16,22,28-29,32-33,36,46-47H,17-21,23-25H2,1-3H3,(H,42,48)(H,43,49)/t28-,29-,32-,33+,36-/m0/s1
> <PUBCHEM_IUPAC_INCHIKEY>
VMEISQCBNMIYDE-QGMSJXFZSA-N
> <PUBCHEM_XLOGP3_AA>
2.9
> <PUBCHEM_EXACT_MASS>
680.36861865
> <PUBCHEM_MOLECULAR_FORMULA>
C39H48N6O5
> <PUBCHEM_MOLECULAR_WEIGHT>
680.8
> <PUBCHEM_OPENEYE_CAN_SMILES>
CC(C)(C)NC(=O)C1CN(CCN1CC(CC(CC2=CC=CC=C2)C(=O)NC3C(CC4=CC=CC=C34)O)O)CC5=NC=C(O5)C6=CC=CC=N6
> <PUBCHEM_OPENEYE_ISO_SMILES>
CC(C)(C)NC(=O)[C@@H]1CN(CCN1C[C@H](C[C@H](CC2=CC=CC=C2)C(=O)N[C@@H]3[C@@H](CC4=CC=CC=C34)O)O)CC5=NC=C(O5)C6=CC=CC=N6
> <PUBCHEM_CACTVS_TPSA>
144
> <PUBCHEM_MONOISOTOPIC_WEIGHT>
680.36861865
> <PUBCHEM_TOTAL_CHARGE>
0
> <PUBCHEM_HEAVY_ATOM_COUNT>
50
> <PUBCHEM_ATOM_DEF_STEREO_COUNT>
5
> <PUBCHEM_ATOM_UDEF_STEREO_COUNT>
0
> <PUBCHEM_BOND_DEF_STEREO_COUNT>
0
> <PUBCHEM_BOND_UDEF_STEREO_COUNT>
0
> <PUBCHEM_ISOTOPIC_ATOM_COUNT>
0
> <PUBCHEM_COMPONENT_COUNT>
1
> <PUBCHEM_CACTVS_TAUTO_COUNT>
-1
> <PUBCHEM_COORDINATE_TYPE>
1
5
255
> <PUBCHEM_BONDANNOTATIONS>
17  1  5
10  30  8
10  42  8
11  46  8
11  49  8
12  21  6
19  18  5
22  2  6
25  28  8
25  31  8
28  33  8
31  37  8
32  39  8
32  40  8
33  38  8
37  38  8
39  43  8
40  44  8
41  42  8
43  45  8
44  45  8
46  47  8
47  48  8
48  50  8
49  50  8
5  30  8
5  41  8
20  8  6
$$$$
