508176
  -OEChem-10302200282D
 97101  0     1  0  0  0  0  0999 V2000
    9.6882    3.4671    0.0000 F   0  0  0  0  0  0  0  0  0  0  0  0
   11.2705    2.7626    0.0000 F   0  0  0  0  0  0  0  0  0  0  0  0
    6.7003   -2.6986    0.0000 O   0  0  0  0  0  0  0  0  0  0  0  0
   10.7313   -1.1577    0.0000 O   0  0  0  0  0  0  0  0  0  0  0  0
   10.0503    0.0219    0.0000 O   0  0  0  0  0  0  0  0  0  0  0  0
    8.6937    3.3625    0.0000 O   0  0  0  0  0  0  0  0  0  0  0  0
    3.1702   -5.7227    0.0000 O   0  0  0  0  0  0  0  0  0  0  0  0
    2.3644    6.1805    0.0000 O   0  0  0  0  0  0  0  0  0  0  0  0
    3.7657    7.1986    0.0000 O   0  0  0  0  0  0  0  0  0  0  0  0
    9.1490   -1.8622    0.0000 N   0  0  0  0  0  0  0  0  0  0  0  0
    8.4680    0.7264    0.0000 N   0  0  0  0  0  0  0  0  0  0  0  0
    7.2924    2.3445    0.0000 N   0  0  0  0  0  0  0  0  0  0  0  0
    6.7003   -5.6986    0.0000 N   0  0  0  0  0  0  0  0  0  0  0  0
    8.6490   -0.9961    0.0000 C   0  0  1  0  0  0  0  0  0  0  0  0
    7.5663   -2.1986    0.0000 C   0  0  2  0  0  0  0  0  0  0  0  0
    7.6709   -1.2040    0.0000 C   0  0  0  0  0  0  0  0  0  0  0  0
    8.4799   -2.6053    0.0000 C   0  0  0  0  0  0  0  0  0  0  0  0
   10.1435   -1.9667    0.0000 C   0  0  0  0  0  0  0  0  0  0  0  0
   10.5503   -2.8802    0.0000 C   0  0  2  0  0  0  0  0  0  0  0  0
    9.0558   -0.0826    0.0000 C   0  0  0  0  0  0  0  0  0  0  0  0
   11.5448   -2.9848    0.0000 C   0  0  0  0  0  0  0  0  0  0  0  0
    9.9625   -3.6892    0.0000 C   0  0  0  0  0  0  0  0  0  0  0  0
    8.8747    1.6400    0.0000 C   0  0  3  0  0  0  0  0  0  0  0  0
   11.9515   -3.8983    0.0000 C   0  0  0  0  0  0  0  0  0  0  0  0
   12.1326   -2.1757    0.0000 C   0  0  0  0  0  0  0  0  0  0  0  0
    6.7003   -3.6986    0.0000 C   0  0  0  0  0  0  0  0  0  0  0  0
    9.8692    1.7445    0.0000 C   0  0  0  0  0  0  0  0  0  0  0  0
    5.8343   -4.1986    0.0000 C   0  0  0  0  0  0  0  0  0  0  0  0
    7.5663   -4.1986    0.0000 C   0  0  0  0  0  0  0  0  0  0  0  0
    8.2869    2.4490    0.0000 C   0  0  0  0  0  0  0  0  0  0  0  0
    5.8343   -5.1986    0.0000 C   0  0  0  0  0  0  0  0  0  0  0  0
   10.2760    2.6580    0.0000 C   0  0  0  0  0  0  0  0  0  0  0  0
    7.5663   -5.1986    0.0000 C   0  0  0  0  0  0  0  0  0  0  0  0
    4.9403   -3.6639    0.0000 C   0  0  0  0  0  0  0  0  0  0  0  0
    4.9403   -5.7332    0.0000 C   0  0  0  0  0  0  0  0  0  0  0  0
    6.7046    3.1535    0.0000 C   0  0  0  0  0  0  0  0  0  0  0  0
    4.0343   -4.1777    0.0000 C   0  0  0  0  0  0  0  0  0  0  0  0
    8.4324   -5.6986    0.0000 C   0  0  0  0  0  0  0  0  0  0  0  0
    4.0343   -5.2194    0.0000 C   0  0  0  0  0  0  0  0  0  0  0  0
    5.7101    3.0490    0.0000 C   0  0  0  0  0  0  0  0  0  0  0  0
    9.2984   -5.1986    0.0000 C   0  0  0  0  0  0  0  0  0  0  0  0
    8.4324   -6.6986    0.0000 C   0  0  0  0  0  0  0  0  0  0  0  0
    5.1223    3.8580    0.0000 C   0  0  0  0  0  0  0  0  0  0  0  0
   10.1644   -5.6986    0.0000 C   0  0  0  0  0  0  0  0  0  0  0  0
    9.2984   -7.1986    0.0000 C   0  0  0  0  0  0  0  0  0  0  0  0
   10.1644   -6.6986    0.0000 C   0  0  0  0  0  0  0  0  0  0  0  0
    5.5290    4.7715    0.0000 C   0  0  0  0  0  0  0  0  0  0  0  0
    4.1278    3.7534    0.0000 C   0  0  0  0  0  0  0  0  0  0  0  0
    2.3022   -5.2261    0.0000 C   0  0  0  0  0  0  0  0  0  0  0  0
    4.9413    5.5805    0.0000 C   0  0  0  0  0  0  0  0  0  0  0  0
    3.5400    4.5625    0.0000 C   0  0  0  0  0  0  0  0  0  0  0  0
    3.9467    5.4760    0.0000 C   0  0  0  0  0  0  0  0  0  0  0  0
    3.3590    6.2850    0.0000 C   0  0  0  0  0  0  0  0  0  0  0  0
    9.2682   -0.9637    0.0000 H   0  0  0  0  0  0  0  0  0  0  0  0
    7.0464   -1.8609    0.0000 H   0  0  0  0  0  0  0  0  0  0  0  0
    7.6061   -0.5874    0.0000 H   0  0  0  0  0  0  0  0  0  0  0  0
    7.0509   -1.2040    0.0000 H   0  0  0  0  0  0  0  0  0  0  0  0
    8.1699   -3.1422    0.0000 H   0  0  0  0  0  0  0  0  0  0  0  0
    8.9815   -2.9697    0.0000 H   0  0  0  0  0  0  0  0  0  0  0  0
    9.9337   -2.8154    0.0000 H   0  0  0  0  0  0  0  0  0  0  0  0
   11.1804   -3.4864    0.0000 H   0  0  0  0  0  0  0  0  0  0  0  0
    9.4609   -3.3248    0.0000 H   0  0  0  0  0  0  0  0  0  0  0  0
    9.5981   -4.1908    0.0000 H   0  0  0  0  0  0  0  0  0  0  0  0
   10.4641   -4.0537    0.0000 H   0  0  0  0  0  0  0  0  0  0  0  0
    7.8514    0.6616    0.0000 H   0  0  0  0  0  0  0  0  0  0  0  0
    9.2391    1.1384    0.0000 H   0  0  0  0  0  0  0  0  0  0  0  0
   11.3851   -4.1505    0.0000 H   0  0  0  0  0  0  0  0  0  0  0  0
   12.2037   -4.4647    0.0000 H   0  0  0  0  0  0  0  0  0  0  0  0
   12.5179   -3.6461    0.0000 H   0  0  0  0  0  0  0  0  0  0  0  0
   12.6342   -2.5402    0.0000 H   0  0  0  0  0  0  0  0  0  0  0  0
   12.4970   -1.6742    0.0000 H   0  0  0  0  0  0  0  0  0  0  0  0
   11.6310   -1.8113    0.0000 H   0  0  0  0  0  0  0  0  0  0  0  0
    9.8260    1.1260    0.0000 H   0  0  0  0  0  0  0  0  0  0  0  0
   10.4708    1.5945    0.0000 H   0  0  0  0  0  0  0  0  0  0  0  0
    8.1033   -3.8886    0.0000 H   0  0  0  0  0  0  0  0  0  0  0  0
   10.6404    2.1565    0.0000 H   0  0  0  0  0  0  0  0  0  0  0  0
    4.9475   -3.0440    0.0000 H   0  0  0  0  0  0  0  0  0  0  0  0
    7.0402    1.7781    0.0000 H   0  0  0  0  0  0  0  0  0  0  0  0
    4.9475   -6.3532    0.0000 H   0  0  0  0  0  0  0  0  0  0  0  0
    7.2619    3.4253    0.0000 H   0  0  0  0  0  0  0  0  0  0  0  0
    6.5337    3.7495    0.0000 H   0  0  0  0  0  0  0  0  0  0  0  0
    3.4985   -3.8657    0.0000 H   0  0  0  0  0  0  0  0  0  0  0  0
    5.1528    2.7772    0.0000 H   0  0  0  0  0  0  0  0  0  0  0  0
    5.8810    2.4530    0.0000 H   0  0  0  0  0  0  0  0  0  0  0  0
    9.2984   -4.5786    0.0000 H   0  0  0  0  0  0  0  0  0  0  0  0
    7.8954   -7.0086    0.0000 H   0  0  0  0  0  0  0  0  0  0  0  0
   10.7014   -5.3886    0.0000 H   0  0  0  0  0  0  0  0  0  0  0  0
    9.2984   -7.8186    0.0000 H   0  0  0  0  0  0  0  0  0  0  0  0
   10.7014   -7.0086    0.0000 H   0  0  0  0  0  0  0  0  0  0  0  0
    6.1456    4.8363    0.0000 H   0  0  0  0  0  0  0  0  0  0  0  0
    3.8756    3.1870    0.0000 H   0  0  0  0  0  0  0  0  0  0  0  0
    2.6102   -4.6879    0.0000 H   0  0  0  0  0  0  0  0  0  0  0  0
    1.7641   -4.9181    0.0000 H   0  0  0  0  0  0  0  0  0  0  0  0
    1.9943   -5.7642    0.0000 H   0  0  0  0  0  0  0  0  0  0  0  0
    5.1934    6.1469    0.0000 H   0  0  0  0  0  0  0  0  0  0  0  0
    2.9234    4.4976    0.0000 H   0  0  0  0  0  0  0  0  0  0  0  0
    2.0000    6.6821    0.0000 H   0  0  0  0  0  0  0  0  0  0  0  0
  1 32  1  0  0  0  0
  2 32  1  0  0  0  0
 15  3  1  6  0  0  0
  3 26  1  0  0  0  0
  4 18  2  0  0  0  0
  5 20  2  0  0  0  0
  6 30  2  0  0  0  0
  7 39  1  0  0  0  0
  7 49  1  0  0  0  0
  8 53  1  0  0  0  0
  8 97  1  0  0  0  0
  9 53  2  0  0  0  0
 10 14  1  0  0  0  0
 10 17  1  0  0  0  0
 10 18  1  0  0  0  0
 11 20  1  0  0  0  0
 11 23  1  0  0  0  0
 11 65  1  0  0  0  0
 12 30  1  0  0  0  0
 12 36  1  0  0  0  0
 12 78  1  0  0  0  0
 13 31  1  0  0  0  0
 13 33  2  0  0  0  0
 14 16  1  0  0  0  0
 14 20  1  1  0  0  0
 14 54  1  0  0  0  0
 15 16  1  0  0  0  0
 15 17  1  0  0  0  0
 15 55  1  0  0  0  0
 16 56  1  0  0  0  0
 16 57  1  0  0  0  0
 17 58  1  0  0  0  0
 17 59  1  0  0  0  0
 18 19  1  0  0  0  0
 19 21  1  0  0  0  0
 19 22  1  6  0  0  0
 19 60  1  0  0  0  0
 21 24  1  0  0  0  0
 21 25  1  0  0  0  0
 21 61  1  0  0  0  0
 22 62  1  0  0  0  0
 22 63  1  0  0  0  0
 22 64  1  0  0  0  0
 23 27  1  0  0  0  0
 23 30  1  0  0  0  0
 23 66  1  0  0  0  0
 24 67  1  0  0  0  0
 24 68  1  0  0  0  0
 24 69  1  0  0  0  0
 25 70  1  0  0  0  0
 25 71  1  0  0  0  0
 25 72  1  0  0  0  0
 26 28  1  0  0  0  0
 26 29  2  0  0  0  0
 27 32  1  0  0  0  0
 27 73  1  0  0  0  0
 27 74  1  0  0  0  0
 28 31  2  0  0  0  0
 28 34  1  0  0  0  0
 29 33  1  0  0  0  0
 29 75  1  0  0  0  0
 31 35  1  0  0  0  0
 32 76  1  0  0  0  0
 33 38  1  0  0  0  0
 34 37  2  0  0  0  0
 34 77  1  0  0  0  0
 35 39  2  0  0  0  0
 35 79  1  0  0  0  0
 36 40  1  0  0  0  0
 36 80  1  0  0  0  0
 36 81  1  0  0  0  0
 37 39  1  0  0  0  0
 37 82  1  0  0  0  0
 38 41  2  0  0  0  0
 38 42  1  0  0  0  0
 40 43  1  0  0  0  0
 40 83  1  0  0  0  0
 40 84  1  0  0  0  0
 41 44  1  0  0  0  0
 41 85  1  0  0  0  0
 42 45  2  0  0  0  0
 42 86  1  0  0  0  0
 43 47  2  0  0  0  0
 43 48  1  0  0  0  0
 44 46  2  0  0  0  0
 44 87  1  0  0  0  0
 45 46  1  0  0  0  0
 45 88  1  0  0  0  0
 46 89  1  0  0  0  0
 47 50  1  0  0  0  0
 47 90  1  0  0  0  0
 48 51  2  0  0  0  0
 48 91  1  0  0  0  0
 49 92  1  0  0  0  0
 49 93  1  0  0  0  0
 49 94  1  0  0  0  0
 50 52  2  0  0  0  0
 50 95  1  0  0  0  0
 51 52  1  0  0  0  0
 51 96  1  0  0  0  0
 52 53  1  0  0  0  0
M  END
> <PUBCHEM_COMPOUND_CID>
508176
> <PUBCHEM_COMPOUND_CANONICALIZED>
1
> <PUBCHEM_CACTVS_COMPLEXITY>
1230
> <PUBCHEM_CACTVS_HBOND_ACCEPTOR>
10
> <PUBCHEM_CACTVS_HBOND_DONOR>
3
> <PUBCHEM_CACTVS_ROTATABLE_BOND>
15
> <PUBCHEM_CACTVS_SUBSKEYS>
AAADcfB/uYAAAAAAAAAAAAAAAAAAAWAAAAA8YMEAAAAAAACx9AAAHwAQCAAADTzhnhYyzvPIFgCoAyXyXACCiCAlIiAImKG+bNgOZvLEtbuXeSjm1hnY+Ye6+f+O4AAAAgACAADAAAAEAAQAAAAAAAAAAA==
> <PUBCHEM_IUPAC_OPENEYE_NAME>
4-[2-[[2-[[(2S,4R)-1-[(2S)-2,3-dimethylbutanoyl]-4-[(7-methoxy-2-phenyl-4-quinolyl)oxy]pyrrolidine-2-carbonyl]amino]-4,4-difluoro-butanoyl]amino]ethyl]benzoic acid
> <PUBCHEM_IUPAC_CAS_NAME>
4-[2-[[2-[[[(2S,4R)-1-[(2S)-2,3-dimethyl-1-oxobutyl]-4-[(7-methoxy-2-phenyl-4-quinolinyl)oxy]-2-pyrrolidinyl]-oxomethyl]amino]-4,4-difluoro-1-oxobutyl]amino]ethyl]benzoic acid
> <PUBCHEM_IUPAC_NAME_MARKUP>
4-[2-[[2-[[(2<I>S</I>,4<I>R</I>)-1-[(2<I>S</I>)-2,3-dimethylbutanoyl]-4-(7-methoxy-2-phenylquinolin-4-yl)oxypyrrolidine-2-carbonyl]amino]-4,4-difluorobutanoyl]amino]ethyl]benzoic acid
> <PUBCHEM_IUPAC_NAME>
4-[2-[[2-[[(2S,4R)-1-[(2S)-2,3-dimethylbutanoyl]-4-(7-methoxy-2-phenylquinolin-4-yl)oxypyrrolidine-2-carbonyl]amino]-4,4-difluorobutanoyl]amino]ethyl]benzoic acid
> <PUBCHEM_IUPAC_SYSTEMATIC_NAME>
4-[2-[[2-[[(2S,4R)-1-[(2S)-2,3-dimethylbutanoyl]-4-(7-methoxy-2-phenyl-quinolin-4-yl)oxy-pyrrolidin-2-yl]carbonylamino]-4,4-bis(fluoranyl)butanoyl]amino]ethyl]benzoic acid
> <PUBCHEM_IUPAC_TRADITIONAL_NAME>
4-[2-[[2-[[(2S,4R)-1-[(2S)-2,3-dimethylbutanoyl]-4-[(7-methoxy-2-phenyl-4-quinolyl)oxy]prolyl]amino]-4,4-difluoro-butanoyl]amino]ethyl]benzoic acid
> <PUBCHEM_IUPAC_INCHI>
InChI=1S/C40H44F2N4O7/c1-23(2)24(3)39(49)46-22-29(53-35-20-31(26-8-6-5-7-9-26)44-32-18-28(52-4)14-15-30(32)35)19-34(46)38(48)45-33(21-36(41)42)37(47)43-17-16-25-10-12-27(13-11-25)40(50)51/h5-15,18,20,23-24,29,33-34,36H,16-17,19,21-22H2,1-4H3,(H,43,47)(H,45,48)(H,50,51)/t24-,29+,33?,34-/m0/s1
> <PUBCHEM_IUPAC_INCHIKEY>
JEWVRJUYIOSMIU-BLUCQLOJSA-N
> <PUBCHEM_XLOGP3_AA>
6.8
> <PUBCHEM_EXACT_MASS>
730.31780608
> <PUBCHEM_MOLECULAR_FORMULA>
C40H44F2N4O7
> <PUBCHEM_MOLECULAR_WEIGHT>
730.8
> <PUBCHEM_OPENEYE_CAN_SMILES>
CC(C)C(C)C(=O)N1CC(CC1C(=O)NC(CC(F)F)C(=O)NCCC2=CC=C(C=C2)C(=O)O)OC3=CC(=NC4=C3C=CC(=C4)OC)C5=CC=CC=C5
> <PUBCHEM_OPENEYE_ISO_SMILES>
C[C@@H](C(C)C)C(=O)N1C[C@@H](C[C@H]1C(=O)NC(CC(F)F)C(=O)NCCC2=CC=C(C=C2)C(=O)O)OC3=CC(=NC4=C3C=CC(=C4)OC)C5=CC=CC=C5
> <PUBCHEM_CACTVS_TPSA>
147
> <PUBCHEM_MONOISOTOPIC_WEIGHT>
730.31780608
> <PUBCHEM_TOTAL_CHARGE>
0
> <PUBCHEM_HEAVY_ATOM_COUNT>
53
> <PUBCHEM_ATOM_DEF_STEREO_COUNT>
3
> <PUBCHEM_ATOM_UDEF_STEREO_COUNT>
1
> <PUBCHEM_BOND_DEF_STEREO_COUNT>
0
> <PUBCHEM_BOND_UDEF_STEREO_COUNT>
0
> <PUBCHEM_ISOTOPIC_ATOM_COUNT>
0
> <PUBCHEM_COMPONENT_COUNT>
1
> <PUBCHEM_CACTVS_TAUTO_COUNT>
-1
> <PUBCHEM_COORDINATE_TYPE>
1
5
255
> <PUBCHEM_BONDANNOTATIONS>
13  31  8
13  33  8
14  20  5
19  22  6
23  27  3
26  28  8
26  29  8
28  31  8
28  34  8
29  33  8
15  3  6
31  35  8
34  37  8
35  39  8
37  39  8
38  41  8
38  42  8
41  44  8
42  45  8
43  47  8
43  48  8
44  46  8
45  46  8
47  50  8
48  51  8
50  52  8
51  52  8
$$$$
