508191
  -OEChem-10302200282D
104109  0     1  0  0  0  0  0999 V2000
    7.2641    3.8343    0.0000 O   0  0  0  0  0  0  0  0  0  0  0  0
    5.5321    0.8343    0.0000 O   0  0  0  0  0  0  0  0  0  0  0  0
    5.5321   -0.1657    0.0000 O   0  0  0  0  0  0  0  0  0  0  0  0
    3.8000   -3.1657    0.0000 O   0  0  0  0  0  0  0  0  0  0  0  0
    5.5321    2.8343    0.0000 N   0  0  3  0  0  0  0  0  0  0  0  0
    6.3981    5.3343    0.0000 N   0  0  0  0  0  0  0  0  0  0  0  0
    7.2641   -0.1657    0.0000 N   0  0  0  0  0  0  0  0  0  0  0  0
    5.5321   -5.1657    0.0000 N   0  0  0  0  0  0  0  0  0  0  0  0
    3.8000    3.8343    0.0000 C   0  0  2  0  0  0  0  0  0  0  0  0
    3.8000    2.8343    0.0000 C   0  0  1  0  0  0  0  0  0  0  0  0
    4.6660    4.3343    0.0000 C   0  0  0  0  0  0  0  0  0  0  0  0
    4.6660    2.3343    0.0000 C   0  0  0  0  0  0  0  0  0  0  0  0
    2.9061    4.3690    0.0000 C   0  0  0  0  0  0  0  0  0  0  0  0
    2.9061    2.2997    0.0000 C   0  0  0  0  0  0  0  0  0  0  0  0
    5.5321    3.8343    0.0000 C   0  0  1  0  0  0  0  0  0  0  0  0
    2.0000    3.8551    0.0000 C   0  0  0  0  0  0  0  0  0  0  0  0
    2.0000    2.8135    0.0000 C   0  0  0  0  0  0  0  0  0  0  0  0
    6.3981    2.3343    0.0000 C   0  0  0  0  0  0  0  0  0  0  0  0
    6.3981    4.3343    0.0000 C   0  0  0  0  0  0  0  0  0  0  0  0
    6.3981    1.3343    0.0000 C   0  0  1  0  0  0  0  0  0  0  0  0
    7.2641    0.8343    0.0000 C   0  0  2  0  0  0  0  0  0  0  0  0
    7.2641    5.8343    0.0000 C   0  0  0  0  0  0  0  0  0  0  0  0
    8.1301    1.3343    0.0000 C   0  0  0  0  0  0  0  0  0  0  0  0
    8.1301    6.3343    0.0000 C   0  0  0  0  0  0  0  0  0  0  0  0
    6.7641    6.7003    0.0000 C   0  0  0  0  0  0  0  0  0  0  0  0
    7.7641    4.9683    0.0000 C   0  0  0  0  0  0  0  0  0  0  0  0
    8.9962    0.8343    0.0000 C   0  0  0  0  0  0  0  0  0  0  0  0
    6.3981   -0.6657    0.0000 C   0  0  0  0  0  0  0  0  0  0  0  0
    8.9962   -0.1657    0.0000 C   0  0  0  0  0  0  0  0  0  0  0  0
    9.8622    1.3343    0.0000 C   0  0  0  0  0  0  0  0  0  0  0  0
    6.3981   -1.6657    0.0000 C   0  0  0  0  0  0  0  0  0  0  0  0
    9.8622   -0.6657    0.0000 C   0  0  0  0  0  0  0  0  0  0  0  0
   10.7282    0.8343    0.0000 C   0  0  0  0  0  0  0  0  0  0  0  0
    7.2641   -2.1657    0.0000 C   0  0  0  0  0  0  0  0  0  0  0  0
    5.5321   -2.1657    0.0000 C   0  0  0  0  0  0  0  0  0  0  0  0
   10.7282   -0.1657    0.0000 C   0  0  0  0  0  0  0  0  0  0  0  0
    5.5321   -3.1657    0.0000 C   0  0  0  0  0  0  0  0  0  0  0  0
    7.2641   -3.1657    0.0000 C   0  0  0  0  0  0  0  0  0  0  0  0
    8.1301   -1.6657    0.0000 C   0  0  0  0  0  0  0  0  0  0  0  0
    4.6660   -4.6657    0.0000 C   0  0  3  0  0  0  0  0  0  0  0  0
    6.3981   -3.6657    0.0000 C   0  0  0  0  0  0  0  0  0  0  0  0
    4.6660   -3.6657    0.0000 C   0  0  0  0  0  0  0  0  0  0  0  0
    3.8000   -5.1657    0.0000 C   0  0  0  0  0  0  0  0  0  0  0  0
    5.5321   -6.1657    0.0000 C   0  0  0  0  0  0  0  0  0  0  0  0
    3.8000   -6.1657    0.0000 C   0  0  0  0  0  0  0  0  0  0  0  0
    4.6660   -6.6657    0.0000 C   0  0  0  0  0  0  0  0  0  0  0  0
    2.9061   -4.6310    0.0000 C   0  0  0  0  0  0  0  0  0  0  0  0
    2.9061   -6.7003    0.0000 C   0  0  0  0  0  0  0  0  0  0  0  0
    2.0000   -5.1449    0.0000 C   0  0  0  0  0  0  0  0  0  0  0  0
    2.0000   -6.1865    0.0000 C   0  0  0  0  0  0  0  0  0  0  0  0
    3.8066    4.6843    0.0000 H   0  0  0  0  0  0  0  0  0  0  0  0
    3.8066    1.9843    0.0000 H   0  0  0  0  0  0  0  0  0  0  0  0
    5.0646    4.8093    0.0000 H   0  0  0  0  0  0  0  0  0  0  0  0
    4.2675    4.8093    0.0000 H   0  0  0  0  0  0  0  0  0  0  0  0
    4.2675    1.8594    0.0000 H   0  0  0  0  0  0  0  0  0  0  0  0
    5.0646    1.8594    0.0000 H   0  0  0  0  0  0  0  0  0  0  0  0
    3.3107    4.8388    0.0000 H   0  0  0  0  0  0  0  0  0  0  0  0
    2.5124    4.8480    0.0000 H   0  0  0  0  0  0  0  0  0  0  0  0
    2.5124    1.8206    0.0000 H   0  0  0  0  0  0  0  0  0  0  0  0
    3.3107    1.8299    0.0000 H   0  0  0  0  0  0  0  0  0  0  0  0
    6.0690    3.5243    0.0000 H   0  0  0  0  0  0  0  0  0  0  0  0
    1.7909    4.4388    0.0000 H   0  0  0  0  0  0  0  0  0  0  0  0
    1.3891    3.7490    0.0000 H   0  0  0  0  0  0  0  0  0  0  0  0
    1.3891    2.9196    0.0000 H   0  0  0  0  0  0  0  0  0  0  0  0
    1.7909    2.2298    0.0000 H   0  0  0  0  0  0  0  0  0  0  0  0
    7.0087    2.2267    0.0000 H   0  0  0  0  0  0  0  0  0  0  0  0
    6.6101    2.9169    0.0000 H   0  0  0  0  0  0  0  0  0  0  0  0
    6.3981    0.7143    0.0000 H   0  0  0  0  0  0  0  0  0  0  0  0
    7.8010    0.5243    0.0000 H   0  0  0  0  0  0  0  0  0  0  0  0
    5.8612    5.6443    0.0000 H   0  0  0  0  0  0  0  0  0  0  0  0
    8.5287    1.8093    0.0000 H   0  0  0  0  0  0  0  0  0  0  0  0
    7.7316    1.8093    0.0000 H   0  0  0  0  0  0  0  0  0  0  0  0
    4.9951    1.1443    0.0000 H   0  0  0  0  0  0  0  0  0  0  0  0
    7.8010   -0.4757    0.0000 H   0  0  0  0  0  0  0  0  0  0  0  0
    8.4401    5.7974    0.0000 H   0  0  0  0  0  0  0  0  0  0  0  0
    8.6671    6.6443    0.0000 H   0  0  0  0  0  0  0  0  0  0  0  0
    7.8201    6.8712    0.0000 H   0  0  0  0  0  0  0  0  0  0  0  0
    7.3010    7.0103    0.0000 H   0  0  0  0  0  0  0  0  0  0  0  0
    6.4541    7.2373    0.0000 H   0  0  0  0  0  0  0  0  0  0  0  0
    6.2272    6.3903    0.0000 H   0  0  0  0  0  0  0  0  0  0  0  0
    7.2272    4.6583    0.0000 H   0  0  0  0  0  0  0  0  0  0  0  0
    8.0741    4.4314    0.0000 H   0  0  0  0  0  0  0  0  0  0  0  0
    8.3010    5.2783    0.0000 H   0  0  0  0  0  0  0  0  0  0  0  0
    8.4592   -0.4757    0.0000 H   0  0  0  0  0  0  0  0  0  0  0  0
    9.8622    1.9543    0.0000 H   0  0  0  0  0  0  0  0  0  0  0  0
    9.8622   -1.2857    0.0000 H   0  0  0  0  0  0  0  0  0  0  0  0
   11.2651    1.1443    0.0000 H   0  0  0  0  0  0  0  0  0  0  0  0
    4.9951   -1.8557    0.0000 H   0  0  0  0  0  0  0  0  0  0  0  0
   11.2651   -0.4757    0.0000 H   0  0  0  0  0  0  0  0  0  0  0  0
    7.8010   -3.4757    0.0000 H   0  0  0  0  0  0  0  0  0  0  0  0
    5.2030   -4.3557    0.0000 H   0  0  0  0  0  0  0  0  0  0  0  0
    8.4401   -2.2026    0.0000 H   0  0  0  0  0  0  0  0  0  0  0  0
    8.6671   -1.3557    0.0000 H   0  0  0  0  0  0  0  0  0  0  0  0
    7.8201   -1.1288    0.0000 H   0  0  0  0  0  0  0  0  0  0  0  0
    6.3981   -4.2857    0.0000 H   0  0  0  0  0  0  0  0  0  0  0  0
    6.0690   -4.8557    0.0000 H   0  0  0  0  0  0  0  0  0  0  0  0
    5.7441   -6.7483    0.0000 H   0  0  0  0  0  0  0  0  0  0  0  0
    6.1426   -6.0580    0.0000 H   0  0  0  0  0  0  0  0  0  0  0  0
    4.2675   -7.1406    0.0000 H   0  0  0  0  0  0  0  0  0  0  0  0
    5.0646   -7.1406    0.0000 H   0  0  0  0  0  0  0  0  0  0  0  0
    2.9132   -4.0111    0.0000 H   0  0  0  0  0  0  0  0  0  0  0  0
    2.9132   -7.3203    0.0000 H   0  0  0  0  0  0  0  0  0  0  0  0
    1.4643   -4.8328    0.0000 H   0  0  0  0  0  0  0  0  0  0  0  0
    1.4643   -6.4986    0.0000 H   0  0  0  0  0  0  0  0  0  0  0  0
  1 19  2  0  0  0  0
 20  2  1  1  0  0  0
  2 73  1  0  0  0  0
  3 28  2  0  0  0  0
  4 42  2  0  0  0  0
  5 12  1  0  0  0  0
  5 15  1  0  0  0  0
  5 18  1  0  0  0  0
  6 19  1  0  0  0  0
  6 22  1  0  0  0  0
  6 70  1  0  0  0  0
 21  7  1  6  0  0  0
  7 28  1  0  0  0  0
  7 74  1  0  0  0  0
  8 40  1  0  0  0  0
  8 44  1  0  0  0  0
  8 96  1  0  0  0  0
  9 10  1  0  0  0  0
  9 11  1  0  0  0  0
  9 13  1  0  0  0  0
  9 51  1  6  0  0  0
 10 12  1  0  0  0  0
 10 14  1  0  0  0  0
 10 52  1  6  0  0  0
 11 15  1  0  0  0  0
 11 53  1  0  0  0  0
 11 54  1  0  0  0  0
 12 55  1  0  0  0  0
 12 56  1  0  0  0  0
 13 16  1  0  0  0  0
 13 57  1  0  0  0  0
 13 58  1  0  0  0  0
 14 17  1  0  0  0  0
 14 59  1  0  0  0  0
 14 60  1  0  0  0  0
 15 19  1  1  0  0  0
 15 61  1  0  0  0  0
 16 17  1  0  0  0  0
 16 62  1  0  0  0  0
 16 63  1  0  0  0  0
 17 64  1  0  0  0  0
 17 65  1  0  0  0  0
 18 20  1  0  0  0  0
 18 66  1  0  0  0  0
 18 67  1  0  0  0  0
 20 21  1  0  0  0  0
 20 68  1  0  0  0  0
 21 23  1  0  0  0  0
 21 69  1  0  0  0  0
 22 24  1  0  0  0  0
 22 25  1  0  0  0  0
 22 26  1  0  0  0  0
 23 27  1  0  0  0  0
 23 71  1  0  0  0  0
 23 72  1  0  0  0  0
 24 75  1  0  0  0  0
 24 76  1  0  0  0  0
 24 77  1  0  0  0  0
 25 78  1  0  0  0  0
 25 79  1  0  0  0  0
 25 80  1  0  0  0  0
 26 81  1  0  0  0  0
 26 82  1  0  0  0  0
 26 83  1  0  0  0  0
 27 29  2  0  0  0  0
 27 30  1  0  0  0  0
 28 31  1  0  0  0  0
 29 32  1  0  0  0  0
 29 84  1  0  0  0  0
 30 33  2  0  0  0  0
 30 85  1  0  0  0  0
 31 34  2  0  0  0  0
 31 35  1  0  0  0  0
 32 36  2  0  0  0  0
 32 86  1  0  0  0  0
 33 36  1  0  0  0  0
 33 87  1  0  0  0  0
 34 38  1  0  0  0  0
 34 39  1  0  0  0  0
 35 37  2  0  0  0  0
 35 88  1  0  0  0  0
 36 89  1  0  0  0  0
 37 41  1  0  0  0  0
 37 42  1  0  0  0  0
 38 41  2  0  0  0  0
 38 90  1  0  0  0  0
 39 92  1  0  0  0  0
 39 93  1  0  0  0  0
 39 94  1  0  0  0  0
 40 42  1  0  0  0  0
 40 43  1  0  0  0  0
 40 91  1  0  0  0  0
 41 95  1  0  0  0  0
 43 45  1  0  0  0  0
 43 47  2  0  0  0  0
 44 46  1  0  0  0  0
 44 97  1  0  0  0  0
 44 98  1  0  0  0  0
 45 46  1  0  0  0  0
 45 48  2  0  0  0  0
 46 99  1  0  0  0  0
 46100  1  0  0  0  0
 47 49  1  0  0  0  0
 47101  1  0  0  0  0
 48 50  1  0  0  0  0
 48102  1  0  0  0  0
 49 50  2  0  0  0  0
 49103  1  0  0  0  0
 50104  1  0  0  0  0
M  END
> <PUBCHEM_COMPOUND_CID>
508191
> <PUBCHEM_COMPOUND_CANONICALIZED>
1
> <PUBCHEM_CACTVS_COMPLEXITY>
1150
> <PUBCHEM_CACTVS_HBOND_ACCEPTOR>
6
> <PUBCHEM_CACTVS_HBOND_DONOR>
4
> <PUBCHEM_CACTVS_ROTATABLE_BOND>
11
> <PUBCHEM_CACTVS_SUBSKEYS>
AAADcfB/uAAAAAAAAAAAAAAAAAAAAAAAAAA8eMGCAAAAAACxUAAAHgAQCAAADbzhmAYyAIPAAgCIAqFSEACCAAAkAAAIiIGIBMgKcDKA1TGUYQhklgCYiYeYy+CuwAACAAAQAACAAAQAACAAAAAAAAAAAA==
> <PUBCHEM_IUPAC_OPENEYE_NAME>
(3S,4aS,8aS)-N-tert-butyl-2-[(2S,3S)-2-hydroxy-3-[[2-methyl-5-(1,2,3,4-tetrahydroisoquinoline-1-carbonyl)benzoyl]amino]-4-phenyl-butyl]-3,4,4a,5,6,7,8,8a-octahydro-1H-isoquinoline-3-carboxamide
> <PUBCHEM_IUPAC_CAS_NAME>
(3S,4aS,8aS)-N-tert-butyl-2-[(2S,3S)-2-hydroxy-3-[[[2-methyl-5-[oxo(1,2,3,4-tetrahydroisoquinolin-1-yl)methyl]phenyl]-oxomethyl]amino]-4-phenylbutyl]-3,4,4a,5,6,7,8,8a-octahydro-1H-isoquinoline-3-carboxamide
> <PUBCHEM_IUPAC_NAME_MARKUP>
(3<I>S</I>,4<I>a</I><I>S</I>,8<I>a</I><I>S</I>)-<I>N</I>-<I>tert</I>-butyl-2-[(2<I>S</I>,3<I>S</I>)-2-hydroxy-3-[[2-methyl-5-(1,2,3,4-tetrahydroisoquinoline-1-carbonyl)benzoyl]amino]-4-phenylbutyl]-3,4,4<I>a</I>,5,6,7,8,8<I>a</I>-octahydro-1<I>H</I>-isoquinoline-3-carboxamide
> <PUBCHEM_IUPAC_NAME>
(3S,4aS,8aS)-N-tert-butyl-2-[(2S,3S)-2-hydroxy-3-[[2-methyl-5-(1,2,3,4-tetrahydroisoquinoline-1-carbonyl)benzoyl]amino]-4-phenylbutyl]-3,4,4a,5,6,7,8,8a-octahydro-1H-isoquinoline-3-carboxamide
> <PUBCHEM_IUPAC_SYSTEMATIC_NAME>
(3S,4aS,8aS)-N-tert-butyl-2-[(2S,3S)-3-[[2-methyl-5-(1,2,3,4-tetrahydroisoquinolin-1-ylcarbonyl)phenyl]carbonylamino]-2-oxidanyl-4-phenyl-butyl]-3,4,4a,5,6,7,8,8a-octahydro-1H-isoquinoline-3-carboxamide
> <PUBCHEM_IUPAC_TRADITIONAL_NAME>
(3S,4aS,8aS)-N-tert-butyl-2-[(2S,3S)-2-hydroxy-3-[[2-methyl-5-(1,2,3,4-tetrahydroisoquinoline-1-carbonyl)benzoyl]amino]-4-phenyl-butyl]-3,4,4a,5,6,7,8,8a-octahydro-1H-isoquinoline-3-carboxamide
> <PUBCHEM_IUPAC_INCHI>
InChI=1S/C42H54N4O4/c1-27-18-19-31(39(48)38-33-17-11-10-14-29(33)20-21-43-38)23-34(27)40(49)44-35(22-28-12-6-5-7-13-28)37(47)26-46-25-32-16-9-8-15-30(32)24-36(46)41(50)45-42(2,3)4/h5-7,10-14,17-19,23,30,32,35-38,43,47H,8-9,15-16,20-22,24-26H2,1-4H3,(H,44,49)(H,45,50)/t30-,32+,35-,36-,37-,38?/m0/s1
> <PUBCHEM_IUPAC_INCHIKEY>
HFFXHXSZMIVBHH-UQWLLNPRSA-N
> <PUBCHEM_XLOGP3_AA>
6.8
> <PUBCHEM_EXACT_MASS>
678.41450622
> <PUBCHEM_MOLECULAR_FORMULA>
C42H54N4O4
> <PUBCHEM_MOLECULAR_WEIGHT>
678.9
> <PUBCHEM_OPENEYE_CAN_SMILES>
CC1=C(C=C(C=C1)C(=O)C2C3=CC=CC=C3CCN2)C(=O)NC(CC4=CC=CC=C4)C(CN5CC6CCCCC6CC5C(=O)NC(C)(C)C)O
> <PUBCHEM_OPENEYE_ISO_SMILES>
CC1=C(C=C(C=C1)C(=O)C2C3=CC=CC=C3CCN2)C(=O)N[C@@H](CC4=CC=CC=C4)[C@H](CN5C[C@H]6CCCC[C@H]6C[C@H]5C(=O)NC(C)(C)C)O
> <PUBCHEM_CACTVS_TPSA>
111
> <PUBCHEM_MONOISOTOPIC_WEIGHT>
678.41450622
> <PUBCHEM_TOTAL_CHARGE>
0
> <PUBCHEM_HEAVY_ATOM_COUNT>
50
> <PUBCHEM_ATOM_DEF_STEREO_COUNT>
5
> <PUBCHEM_ATOM_UDEF_STEREO_COUNT>
1
> <PUBCHEM_BOND_DEF_STEREO_COUNT>
0
> <PUBCHEM_BOND_UDEF_STEREO_COUNT>
0
> <PUBCHEM_ISOTOPIC_ATOM_COUNT>
0
> <PUBCHEM_COMPONENT_COUNT>
1
> <PUBCHEM_CACTVS_TAUTO_COUNT>
-1
> <PUBCHEM_COORDINATE_TYPE>
1
5
255
> <PUBCHEM_BONDANNOTATIONS>
10  52  6
15  19  5
20  2  5
27  29  8
27  30  8
29  32  8
30  33  8
31  34  8
31  35  8
32  36  8
33  36  8
34  38  8
35  37  8
37  41  8
38  41  8
40  42  3
43  45  8
43  47  8
45  48  8
47  49  8
48  50  8
49  50  8
21  7  6
9  51  6
$$$$
