508197
  -OEChem-10302200282D
109114  0     1  0  0  0  0  0999 V2000
    7.2641    5.3516    0.0000 O   0  0  0  0  0  0  0  0  0  0  0  0
    5.5321    2.3516    0.0000 O   0  0  0  0  0  0  0  0  0  0  0  0
    5.5321    1.3516    0.0000 O   0  0  0  0  0  0  0  0  0  0  0  0
    8.9962   -1.6484    0.0000 O   0  0  0  0  0  0  0  0  0  0  0  0
    5.5321    4.3516    0.0000 N   0  0  3  0  0  0  0  0  0  0  0  0
    6.3981    6.8516    0.0000 N   0  0  0  0  0  0  0  0  0  0  0  0
    7.2641    1.3516    0.0000 N   0  0  0  0  0  0  0  0  0  0  0  0
    8.1301   -3.1484    0.0000 N   0  0  0  0  0  0  0  0  0  0  0  0
    3.8000    5.3516    0.0000 C   0  0  2  0  0  0  0  0  0  0  0  0
    3.8000    4.3516    0.0000 C   0  0  1  0  0  0  0  0  0  0  0  0
    4.6660    5.8516    0.0000 C   0  0  0  0  0  0  0  0  0  0  0  0
    4.6660    3.8516    0.0000 C   0  0  0  0  0  0  0  0  0  0  0  0
    2.9061    5.8863    0.0000 C   0  0  0  0  0  0  0  0  0  0  0  0
    2.9061    3.8170    0.0000 C   0  0  0  0  0  0  0  0  0  0  0  0
    5.5321    5.3516    0.0000 C   0  0  1  0  0  0  0  0  0  0  0  0
    2.0000    5.3724    0.0000 C   0  0  0  0  0  0  0  0  0  0  0  0
    2.0000    4.3308    0.0000 C   0  0  0  0  0  0  0  0  0  0  0  0
    6.3981    3.8516    0.0000 C   0  0  0  0  0  0  0  0  0  0  0  0
    6.3981    5.8516    0.0000 C   0  0  0  0  0  0  0  0  0  0  0  0
    6.3981    2.8516    0.0000 C   0  0  1  0  0  0  0  0  0  0  0  0
    7.2641    2.3516    0.0000 C   0  0  2  0  0  0  0  0  0  0  0  0
    7.2641    7.3516    0.0000 C   0  0  0  0  0  0  0  0  0  0  0  0
    8.1301    2.8516    0.0000 C   0  0  0  0  0  0  0  0  0  0  0  0
    8.1301    7.8516    0.0000 C   0  0  0  0  0  0  0  0  0  0  0  0
    6.7641    8.2176    0.0000 C   0  0  0  0  0  0  0  0  0  0  0  0
    7.7641    6.4856    0.0000 C   0  0  0  0  0  0  0  0  0  0  0  0
    8.9962    2.3516    0.0000 C   0  0  0  0  0  0  0  0  0  0  0  0
    6.3981    0.8516    0.0000 C   0  0  0  0  0  0  0  0  0  0  0  0
    8.9962    1.3516    0.0000 C   0  0  0  0  0  0  0  0  0  0  0  0
    9.8622    2.8516    0.0000 C   0  0  0  0  0  0  0  0  0  0  0  0
    6.3981   -0.1484    0.0000 C   0  0  0  0  0  0  0  0  0  0  0  0
    9.8622    0.8516    0.0000 C   0  0  0  0  0  0  0  0  0  0  0  0
   10.7282    2.3516    0.0000 C   0  0  0  0  0  0  0  0  0  0  0  0
    5.5321   -0.6484    0.0000 C   0  0  0  0  0  0  0  0  0  0  0  0
   10.7282    1.3516    0.0000 C   0  0  0  0  0  0  0  0  0  0  0  0
    7.2641   -0.6484    0.0000 C   0  0  0  0  0  0  0  0  0  0  0  0
    7.2641   -1.6484    0.0000 C   0  0  0  0  0  0  0  0  0  0  0  0
    5.5321   -1.6484    0.0000 C   0  0  0  0  0  0  0  0  0  0  0  0
    4.6660   -0.1484    0.0000 C   0  0  0  0  0  0  0  0  0  0  0  0
    6.3981   -2.1484    0.0000 C   0  0  0  0  0  0  0  0  0  0  0  0
    8.1301   -2.1484    0.0000 C   0  0  0  0  0  0  0  0  0  0  0  0
    8.9962   -3.6484    0.0000 C   0  0  0  0  0  0  0  0  0  0  0  0
    7.2641   -3.6484    0.0000 C   0  0  0  0  0  0  0  0  0  0  0  0
    8.9962   -4.6484    0.0000 C   0  0  0  0  0  0  0  0  0  0  0  0
    9.8622   -5.1484    0.0000 C   0  0  0  0  0  0  0  0  0  0  0  0
    8.1301   -5.1484    0.0000 C   0  0  0  0  0  0  0  0  0  0  0  0
    9.8622   -6.1484    0.0000 C   0  0  0  0  0  0  0  0  0  0  0  0
    8.9962   -6.6484    0.0000 C   0  0  0  0  0  0  0  0  0  0  0  0
    8.1301   -6.1484    0.0000 C   0  0  0  0  0  0  0  0  0  0  0  0
   10.7722   -6.6552    0.0000 C   0  0  0  0  0  0  0  0  0  0  0  0
    8.9801   -7.6899    0.0000 C   0  0  0  0  0  0  0  0  0  0  0  0
   10.7802   -7.6968    0.0000 C   0  0  0  0  0  0  0  0  0  0  0  0
    9.8781   -8.2176    0.0000 C   0  0  0  0  0  0  0  0  0  0  0  0
    3.8066    6.2016    0.0000 H   0  0  0  0  0  0  0  0  0  0  0  0
    3.8066    3.5016    0.0000 H   0  0  0  0  0  0  0  0  0  0  0  0
    5.0646    6.3266    0.0000 H   0  0  0  0  0  0  0  0  0  0  0  0
    4.2675    6.3266    0.0000 H   0  0  0  0  0  0  0  0  0  0  0  0
    4.2675    3.3767    0.0000 H   0  0  0  0  0  0  0  0  0  0  0  0
    5.0646    3.3767    0.0000 H   0  0  0  0  0  0  0  0  0  0  0  0
    3.3107    6.3561    0.0000 H   0  0  0  0  0  0  0  0  0  0  0  0
    2.5124    6.3653    0.0000 H   0  0  0  0  0  0  0  0  0  0  0  0
    2.5124    3.3379    0.0000 H   0  0  0  0  0  0  0  0  0  0  0  0
    3.3107    3.3472    0.0000 H   0  0  0  0  0  0  0  0  0  0  0  0
    6.0690    5.0416    0.0000 H   0  0  0  0  0  0  0  0  0  0  0  0
    1.7909    5.9561    0.0000 H   0  0  0  0  0  0  0  0  0  0  0  0
    1.3891    5.2663    0.0000 H   0  0  0  0  0  0  0  0  0  0  0  0
    1.3891    4.4369    0.0000 H   0  0  0  0  0  0  0  0  0  0  0  0
    1.7909    3.7471    0.0000 H   0  0  0  0  0  0  0  0  0  0  0  0
    7.0087    3.7440    0.0000 H   0  0  0  0  0  0  0  0  0  0  0  0
    6.6101    4.4342    0.0000 H   0  0  0  0  0  0  0  0  0  0  0  0
    6.3981    2.2316    0.0000 H   0  0  0  0  0  0  0  0  0  0  0  0
    7.8010    2.0416    0.0000 H   0  0  0  0  0  0  0  0  0  0  0  0
    5.8612    7.1616    0.0000 H   0  0  0  0  0  0  0  0  0  0  0  0
    8.5287    3.3266    0.0000 H   0  0  0  0  0  0  0  0  0  0  0  0
    7.7316    3.3266    0.0000 H   0  0  0  0  0  0  0  0  0  0  0  0
    4.9951    2.6616    0.0000 H   0  0  0  0  0  0  0  0  0  0  0  0
    7.8010    1.0416    0.0000 H   0  0  0  0  0  0  0  0  0  0  0  0
    8.4401    7.3147    0.0000 H   0  0  0  0  0  0  0  0  0  0  0  0
    8.6671    8.1616    0.0000 H   0  0  0  0  0  0  0  0  0  0  0  0
    7.8201    8.3886    0.0000 H   0  0  0  0  0  0  0  0  0  0  0  0
    7.3010    8.5276    0.0000 H   0  0  0  0  0  0  0  0  0  0  0  0
    6.4541    8.7546    0.0000 H   0  0  0  0  0  0  0  0  0  0  0  0
    6.2272    7.9076    0.0000 H   0  0  0  0  0  0  0  0  0  0  0  0
    7.2272    6.1756    0.0000 H   0  0  0  0  0  0  0  0  0  0  0  0
    8.0741    5.9487    0.0000 H   0  0  0  0  0  0  0  0  0  0  0  0
    8.3010    6.7956    0.0000 H   0  0  0  0  0  0  0  0  0  0  0  0
    8.4592    1.0416    0.0000 H   0  0  0  0  0  0  0  0  0  0  0  0
    9.8622    3.4716    0.0000 H   0  0  0  0  0  0  0  0  0  0  0  0
    9.8622    0.2316    0.0000 H   0  0  0  0  0  0  0  0  0  0  0  0
   11.2651    2.6616    0.0000 H   0  0  0  0  0  0  0  0  0  0  0  0
   11.2651    1.0416    0.0000 H   0  0  0  0  0  0  0  0  0  0  0  0
    7.8010   -0.3384    0.0000 H   0  0  0  0  0  0  0  0  0  0  0  0
    4.9951   -1.9584    0.0000 H   0  0  0  0  0  0  0  0  0  0  0  0
    4.9760    0.3886    0.0000 H   0  0  0  0  0  0  0  0  0  0  0  0
    4.1291    0.1616    0.0000 H   0  0  0  0  0  0  0  0  0  0  0  0
    4.3560   -0.6853    0.0000 H   0  0  0  0  0  0  0  0  0  0  0  0
    6.3981   -2.7684    0.0000 H   0  0  0  0  0  0  0  0  0  0  0  0
    9.6067   -3.7560    0.0000 H   0  0  0  0  0  0  0  0  0  0  0  0
    9.2082   -3.0658    0.0000 H   0  0  0  0  0  0  0  0  0  0  0  0
    6.9541   -3.1114    0.0000 H   0  0  0  0  0  0  0  0  0  0  0  0
    6.7272   -3.9584    0.0000 H   0  0  0  0  0  0  0  0  0  0  0  0
    7.5741   -4.1853    0.0000 H   0  0  0  0  0  0  0  0  0  0  0  0
   10.3991   -4.8384    0.0000 H   0  0  0  0  0  0  0  0  0  0  0  0
    7.5932   -4.8384    0.0000 H   0  0  0  0  0  0  0  0  0  0  0  0
    7.5932   -6.4584    0.0000 H   0  0  0  0  0  0  0  0  0  0  0  0
   11.3055   -6.3390    0.0000 H   0  0  0  0  0  0  0  0  0  0  0  0
    8.4396   -7.9937    0.0000 H   0  0  0  0  0  0  0  0  0  0  0  0
   11.3183   -8.0048    0.0000 H   0  0  0  0  0  0  0  0  0  0  0  0
    9.8758   -8.8376    0.0000 H   0  0  0  0  0  0  0  0  0  0  0  0
  1 19  2  0  0  0  0
 20  2  1  1  0  0  0
  2 76  1  0  0  0  0
  3 28  2  0  0  0  0
  4 41  2  0  0  0  0
  5 12  1  0  0  0  0
  5 15  1  0  0  0  0
  5 18  1  0  0  0  0
  6 19  1  0  0  0  0
  6 22  1  0  0  0  0
  6 73  1  0  0  0  0
 21  7  1  6  0  0  0
  7 28  1  0  0  0  0
  7 77  1  0  0  0  0
  8 41  1  0  0  0  0
  8 42  1  0  0  0  0
  8 43  1  0  0  0  0
  9 10  1  0  0  0  0
  9 11  1  0  0  0  0
  9 13  1  0  0  0  0
  9 54  1  6  0  0  0
 10 12  1  0  0  0  0
 10 14  1  0  0  0  0
 10 55  1  6  0  0  0
 11 15  1  0  0  0  0
 11 56  1  0  0  0  0
 11 57  1  0  0  0  0
 12 58  1  0  0  0  0
 12 59  1  0  0  0  0
 13 16  1  0  0  0  0
 13 60  1  0  0  0  0
 13 61  1  0  0  0  0
 14 17  1  0  0  0  0
 14 62  1  0  0  0  0
 14 63  1  0  0  0  0
 15 19  1  1  0  0  0
 15 64  1  0  0  0  0
 16 17  1  0  0  0  0
 16 65  1  0  0  0  0
 16 66  1  0  0  0  0
 17 67  1  0  0  0  0
 17 68  1  0  0  0  0
 18 20  1  0  0  0  0
 18 69  1  0  0  0  0
 18 70  1  0  0  0  0
 20 21  1  0  0  0  0
 20 71  1  0  0  0  0
 21 23  1  0  0  0  0
 21 72  1  0  0  0  0
 22 24  1  0  0  0  0
 22 25  1  0  0  0  0
 22 26  1  0  0  0  0
 23 27  1  0  0  0  0
 23 74  1  0  0  0  0
 23 75  1  0  0  0  0
 24 78  1  0  0  0  0
 24 79  1  0  0  0  0
 24 80  1  0  0  0  0
 25 81  1  0  0  0  0
 25 82  1  0  0  0  0
 25 83  1  0  0  0  0
 26 84  1  0  0  0  0
 26 85  1  0  0  0  0
 26 86  1  0  0  0  0
 27 29  2  0  0  0  0
 27 30  1  0  0  0  0
 28 31  1  0  0  0  0
 29 32  1  0  0  0  0
 29 87  1  0  0  0  0
 30 33  2  0  0  0  0
 30 88  1  0  0  0  0
 31 34  2  0  0  0  0
 31 36  1  0  0  0  0
 32 35  2  0  0  0  0
 32 89  1  0  0  0  0
 33 35  1  0  0  0  0
 33 90  1  0  0  0  0
 34 38  1  0  0  0  0
 34 39  1  0  0  0  0
 35 91  1  0  0  0  0
 36 37  2  0  0  0  0
 36 92  1  0  0  0  0
 37 40  1  0  0  0  0
 37 41  1  0  0  0  0
 38 40  2  0  0  0  0
 38 93  1  0  0  0  0
 39 94  1  0  0  0  0
 39 95  1  0  0  0  0
 39 96  1  0  0  0  0
 40 97  1  0  0  0  0
 42 44  1  0  0  0  0
 42 98  1  0  0  0  0
 42 99  1  0  0  0  0
 43100  1  0  0  0  0
 43101  1  0  0  0  0
 43102  1  0  0  0  0
 44 45  2  0  0  0  0
 44 46  1  0  0  0  0
 45 47  1  0  0  0  0
 45103  1  0  0  0  0
 46 49  2  0  0  0  0
 46104  1  0  0  0  0
 47 48  1  0  0  0  0
 47 50  2  0  0  0  0
 48 49  1  0  0  0  0
 48 51  2  0  0  0  0
 49105  1  0  0  0  0
 50 52  1  0  0  0  0
 50106  1  0  0  0  0
 51 53  1  0  0  0  0
 51107  1  0  0  0  0
 52 53  2  0  0  0  0
 52108  1  0  0  0  0
 53109  1  0  0  0  0
M  END
> <PUBCHEM_COMPOUND_CID>
508197
> <PUBCHEM_COMPOUND_CANONICALIZED>
1
> <PUBCHEM_CACTVS_COMPLEXITY>
1210
> <PUBCHEM_CACTVS_HBOND_ACCEPTOR>
5
> <PUBCHEM_CACTVS_HBOND_DONOR>
3
> <PUBCHEM_CACTVS_ROTATABLE_BOND>
12
> <PUBCHEM_CACTVS_SUBSKEYS>
AAADcfB/uAAAAAAAAAAAAAAAAAAAAAAAAAA8YMGDAAAAAADxVAAAHgAQCAAADbzhmAYyAMPAAgCIAiFSEACCAAAkAAAIiIGIBMgKcDKA1TGUYQhklgCYiYeYy+COwAACAAAQAACAAAQAACAAAAAAAAAAAA==
> <PUBCHEM_IUPAC_OPENEYE_NAME>
N3-[(1S,2S)-3-[(3S,4aS,8aS)-3-(tert-butylcarbamoyl)-3,4,4a,5,6,7,8,8a-octahydro-1H-isoquinolin-2-yl]-1-benzyl-2-hydroxy-propyl]-N1,4-dimethyl-N1-(2-naphthylmethyl)benzene-1,3-dicarboxamide
> <PUBCHEM_IUPAC_CAS_NAME>
N3-[(2S,3S)-4-[(3S,4aS,8aS)-3-[(tert-butylamino)-oxomethyl]-3,4,4a,5,6,7,8,8a-octahydro-1H-isoquinolin-2-yl]-3-hydroxy-1-phenylbutan-2-yl]-N1,4-dimethyl-N1-(2-naphthalenylmethyl)benzene-1,3-dicarboxamide
> <PUBCHEM_IUPAC_NAME_MARKUP>
3-<I>N</I>-[(2<I>S</I>,3<I>S</I>)-4-[(3<I>S</I>,4<I>a</I><I>S</I>,8<I>a</I><I>S</I>)-3-(<I>tert</I>-butylcarbamoyl)-3,4,4<I>a</I>,5,6,7,8,8<I>a</I>-octahydro-1<I>H</I>-isoquinolin-2-yl]-3-hydroxy-1-phenylbutan-2-yl]-1-<I>N</I>,4-dimethyl-1-<I>N</I>-(naphthalen-2-ylmethyl)benzene-1,3-dicarboxamide
> <PUBCHEM_IUPAC_NAME>
3-N-[(2S,3S)-4-[(3S,4aS,8aS)-3-(tert-butylcarbamoyl)-3,4,4a,5,6,7,8,8a-octahydro-1H-isoquinolin-2-yl]-3-hydroxy-1-phenylbutan-2-yl]-1-N,4-dimethyl-1-N-(naphthalen-2-ylmethyl)benzene-1,3-dicarboxamide
> <PUBCHEM_IUPAC_SYSTEMATIC_NAME>
N3-[(2S,3S)-4-[(3S,4aS,8aS)-3-(tert-butylcarbamoyl)-3,4,4a,5,6,7,8,8a-octahydro-1H-isoquinolin-2-yl]-3-oxidanyl-1-phenyl-butan-2-yl]-N1,4-dimethyl-N1-(naphthalen-2-ylmethyl)benzene-1,3-dicarboxamide
> <PUBCHEM_IUPAC_TRADITIONAL_NAME>
N'-[(1S,2S)-3-[(3S,4aS,8aS)-3-(tert-butylcarbamoyl)-3,4,4a,5,6,7,8,8a-octahydro-1H-isoquinolin-2-yl]-1-benzyl-2-hydroxy-propyl]-N,4-dimethyl-N-(2-naphthylmethyl)isophthalamide
> <PUBCHEM_IUPAC_INCHI>
InChI=1S/C45H56N4O4/c1-30-19-21-36(44(53)48(5)27-32-20-22-33-15-9-10-16-34(33)23-32)25-38(30)42(51)46-39(24-31-13-7-6-8-14-31)41(50)29-49-28-37-18-12-11-17-35(37)26-40(49)43(52)47-45(2,3)4/h6-10,13-16,19-23,25,35,37,39-41,50H,11-12,17-18,24,26-29H2,1-5H3,(H,46,51)(H,47,52)/t35-,37+,39-,40-,41-/m0/s1
> <PUBCHEM_IUPAC_INCHIKEY>
VXFRLRHKYJWTES-GCKCWUSBSA-N
> <PUBCHEM_XLOGP3_AA>
8
> <PUBCHEM_EXACT_MASS>
716.43015628
> <PUBCHEM_MOLECULAR_FORMULA>
C45H56N4O4
> <PUBCHEM_MOLECULAR_WEIGHT>
716.9
> <PUBCHEM_OPENEYE_CAN_SMILES>
CC1=C(C=C(C=C1)C(=O)N(C)CC2=CC3=CC=CC=C3C=C2)C(=O)NC(CC4=CC=CC=C4)C(CN5CC6CCCCC6CC5C(=O)NC(C)(C)C)O
> <PUBCHEM_OPENEYE_ISO_SMILES>
CC1=C(C=C(C=C1)C(=O)N(C)CC2=CC3=CC=CC=C3C=C2)C(=O)N[C@@H](CC4=CC=CC=C4)[C@H](CN5C[C@H]6CCCC[C@H]6C[C@H]5C(=O)NC(C)(C)C)O
> <PUBCHEM_CACTVS_TPSA>
102
> <PUBCHEM_MONOISOTOPIC_WEIGHT>
716.43015628
> <PUBCHEM_TOTAL_CHARGE>
0
> <PUBCHEM_HEAVY_ATOM_COUNT>
53
> <PUBCHEM_ATOM_DEF_STEREO_COUNT>
5
> <PUBCHEM_ATOM_UDEF_STEREO_COUNT>
0
> <PUBCHEM_BOND_DEF_STEREO_COUNT>
0
> <PUBCHEM_BOND_UDEF_STEREO_COUNT>
0
> <PUBCHEM_ISOTOPIC_ATOM_COUNT>
0
> <PUBCHEM_COMPONENT_COUNT>
1
> <PUBCHEM_CACTVS_TAUTO_COUNT>
-1
> <PUBCHEM_COORDINATE_TYPE>
1
5
255
> <PUBCHEM_BONDANNOTATIONS>
10  55  6
15  19  5
20  2  5
27  29  8
27  30  8
29  32  8
30  33  8
31  34  8
31  36  8
32  35  8
33  35  8
34  38  8
36  37  8
37  40  8
38  40  8
44  45  8
44  46  8
45  47  8
46  49  8
47  48  8
47  50  8
48  49  8
48  51  8
50  52  8
51  53  8
52  53  8
21  7  6
9  54  6
$$$$
