508175
  -OEChem-10302200282D
111115  0     1  0  0  0  0  0999 V2000
   13.5529   -0.5618    0.0000 F   0  0  0  0  0  0  0  0  0  0  0  0
   12.8484    1.0205    0.0000 F   0  0  0  0  0  0  0  0  0  0  0  0
    6.3981   -0.9036    0.0000 O   0  0  0  0  0  0  0  0  0  0  0  0
    9.7480    1.8169    0.0000 O   0  0  0  0  0  0  0  0  0  0  0  0
   10.4291    0.6373    0.0000 O   0  0  0  0  0  0  0  0  0  0  0  0
    8.3914    5.1575    0.0000 O   0  0  0  0  0  0  0  0  0  0  0  0
   11.0615   -2.9123    0.0000 O   0  0  0  0  0  0  0  0  0  0  0  0
    6.9902    4.1395    0.0000 O   0  0  0  0  0  0  0  0  0  0  0  0
    2.8680   -3.9277    0.0000 O   0  0  0  0  0  0  0  0  0  0  0  0
   16.6665   -6.9846    0.0000 O   0  0  0  0  0  0  0  0  0  0  0  0
   15.0842   -7.6891    0.0000 O   0  0  0  0  0  0  0  0  0  0  0  0
    8.3468    0.7989    0.0000 N   0  0  0  0  0  0  0  0  0  0  0  0
   10.2480   -1.0852    0.0000 N   0  0  0  0  0  0  0  0  0  0  0  0
    8.5725    3.4350    0.0000 N   0  0  0  0  0  0  0  0  0  0  0  0
   12.6438   -2.2078    0.0000 N   0  0  0  0  0  0  0  0  0  0  0  0
    6.3981   -3.9036    0.0000 N   0  0  0  0  0  0  0  0  0  0  0  0
    8.8468   -0.0672    0.0000 C   0  0  1  0  0  0  0  0  0  0  0  0
    7.2641   -0.4036    0.0000 C   0  0  2  0  0  0  0  0  0  0  0  0
    8.1776   -0.8103    0.0000 C   0  0  0  0  0  0  0  0  0  0  0  0
    7.3686    0.5910    0.0000 C   0  0  0  0  0  0  0  0  0  0  0  0
    8.7535    1.7124    0.0000 C   0  0  0  0  0  0  0  0  0  0  0  0
    8.1657    2.5214    0.0000 C   0  0  2  0  0  0  0  0  0  0  0  0
    9.8413   -0.1717    0.0000 C   0  0  0  0  0  0  0  0  0  0  0  0
    7.1712    2.4169    0.0000 C   0  0  0  0  0  0  0  0  0  0  0  0
   11.2426   -1.1898    0.0000 C   0  0  3  0  0  0  0  0  0  0  0  0
    6.3981   -1.9036    0.0000 C   0  0  0  0  0  0  0  0  0  0  0  0
    6.5834    3.2259    0.0000 C   0  0  0  0  0  0  0  0  0  0  0  0
    6.7645    1.5034    0.0000 C   0  0  0  0  0  0  0  0  0  0  0  0
   11.8303   -0.3807    0.0000 C   0  0  0  0  0  0  0  0  0  0  0  0
    5.5320   -2.4036    0.0000 C   0  0  0  0  0  0  0  0  0  0  0  0
    7.2641   -2.4036    0.0000 C   0  0  0  0  0  0  0  0  0  0  0  0
   11.6493   -2.1033    0.0000 C   0  0  0  0  0  0  0  0  0  0  0  0
    7.9847    4.2440    0.0000 C   0  0  0  0  0  0  0  0  0  0  0  0
    5.5320   -3.4036    0.0000 C   0  0  0  0  0  0  0  0  0  0  0  0
   12.7439    0.0260    0.0000 C   0  0  0  0  0  0  0  0  0  0  0  0
    7.2641   -3.4036    0.0000 C   0  0  0  0  0  0  0  0  0  0  0  0
    4.6381   -1.8689    0.0000 C   0  0  0  0  0  0  0  0  0  0  0  0
    4.6381   -3.9382    0.0000 C   0  0  0  0  0  0  0  0  0  0  0  0
   13.0505   -3.1214    0.0000 C   0  0  0  0  0  0  0  0  0  0  0  0
    3.7320   -2.3828    0.0000 C   0  0  0  0  0  0  0  0  0  0  0  0
    8.1301   -3.9036    0.0000 C   0  0  0  0  0  0  0  0  0  0  0  0
    3.7320   -3.4244    0.0000 C   0  0  0  0  0  0  0  0  0  0  0  0
    7.8036    5.9666    0.0000 C   0  0  0  0  0  0  0  0  0  0  0  0
    8.2104    6.8801    0.0000 C   0  0  0  0  0  0  0  0  0  0  0  0
   14.0451   -3.2259    0.0000 C   0  0  0  0  0  0  0  0  0  0  0  0
    8.9962   -3.4036    0.0000 C   0  0  0  0  0  0  0  0  0  0  0  0
    8.1301   -4.9036    0.0000 C   0  0  0  0  0  0  0  0  0  0  0  0
   14.4518   -4.1395    0.0000 C   0  0  0  0  0  0  0  0  0  0  0  0
    7.6226    7.6891    0.0000 C   0  0  0  0  0  0  0  0  0  0  0  0
    9.2049    6.9846    0.0000 C   0  0  0  0  0  0  0  0  0  0  0  0
    9.8622   -3.9036    0.0000 C   0  0  0  0  0  0  0  0  0  0  0  0
    8.9962   -5.4036    0.0000 C   0  0  0  0  0  0  0  0  0  0  0  0
    9.8622   -4.9036    0.0000 C   0  0  0  0  0  0  0  0  0  0  0  0
   13.8640   -4.9485    0.0000 C   0  0  0  0  0  0  0  0  0  0  0  0
   15.4463   -4.2440    0.0000 C   0  0  0  0  0  0  0  0  0  0  0  0
    2.0000   -3.4311    0.0000 C   0  0  0  0  0  0  0  0  0  0  0  0
   14.2708   -5.8620    0.0000 C   0  0  0  0  0  0  0  0  0  0  0  0
   15.8531   -5.1575    0.0000 C   0  0  0  0  0  0  0  0  0  0  0  0
   15.2653   -5.9666    0.0000 C   0  0  0  0  0  0  0  0  0  0  0  0
   15.6720   -6.8801    0.0000 C   0  0  0  0  0  0  0  0  0  0  0  0
    9.1844    0.4528    0.0000 H   0  0  0  0  0  0  0  0  0  0  0  0
    6.7441   -0.0659    0.0000 H   0  0  0  0  0  0  0  0  0  0  0  0
    7.8676   -1.3472    0.0000 H   0  0  0  0  0  0  0  0  0  0  0  0
    8.6792   -1.1747    0.0000 H   0  0  0  0  0  0  0  0  0  0  0  0
    7.3038    1.2075    0.0000 H   0  0  0  0  0  0  0  0  0  0  0  0
    6.7486    0.5910    0.0000 H   0  0  0  0  0  0  0  0  0  0  0  0
    7.8013    3.0230    0.0000 H   0  0  0  0  0  0  0  0  0  0  0  0
    7.5356    1.9153    0.0000 H   0  0  0  0  0  0  0  0  0  0  0  0
    9.8836   -1.5868    0.0000 H   0  0  0  0  0  0  0  0  0  0  0  0
   10.8781   -1.6914    0.0000 H   0  0  0  0  0  0  0  0  0  0  0  0
    9.1891    3.4998    0.0000 H   0  0  0  0  0  0  0  0  0  0  0  0
    7.0850    3.5903    0.0000 H   0  0  0  0  0  0  0  0  0  0  0  0
    6.2190    3.7275    0.0000 H   0  0  0  0  0  0  0  0  0  0  0  0
    6.0818    2.8615    0.0000 H   0  0  0  0  0  0  0  0  0  0  0  0
    6.1981    1.7555    0.0000 H   0  0  0  0  0  0  0  0  0  0  0  0
    6.5123    0.9370    0.0000 H   0  0  0  0  0  0  0  0  0  0  0  0
    7.3309    1.2512    0.0000 H   0  0  0  0  0  0  0  0  0  0  0  0
   11.7871    0.2377    0.0000 H   0  0  0  0  0  0  0  0  0  0  0  0
   12.2205   -0.8626    0.0000 H   0  0  0  0  0  0  0  0  0  0  0  0
    7.8010   -2.0936    0.0000 H   0  0  0  0  0  0  0  0  0  0  0  0
   12.6791   -0.5906    0.0000 H   0  0  0  0  0  0  0  0  0  0  0  0
    4.6453   -1.2490    0.0000 H   0  0  0  0  0  0  0  0  0  0  0  0
   13.2102   -1.9557    0.0000 H   0  0  0  0  0  0  0  0  0  0  0  0
    4.6453   -4.5582    0.0000 H   0  0  0  0  0  0  0  0  0  0  0  0
   12.4490   -3.2714    0.0000 H   0  0  0  0  0  0  0  0  0  0  0  0
   13.0938   -3.7399    0.0000 H   0  0  0  0  0  0  0  0  0  0  0  0
    3.1963   -2.0707    0.0000 H   0  0  0  0  0  0  0  0  0  0  0  0
    7.2896    6.3132    0.0000 H   0  0  0  0  0  0  0  0  0  0  0  0
    7.3729    5.5206    0.0000 H   0  0  0  0  0  0  0  0  0  0  0  0
    7.5938    6.8153    0.0000 H   0  0  0  0  0  0  0  0  0  0  0  0
   14.6467   -3.0759    0.0000 H   0  0  0  0  0  0  0  0  0  0  0  0
   14.0018   -2.6074    0.0000 H   0  0  0  0  0  0  0  0  0  0  0  0
    8.9962   -2.7836    0.0000 H   0  0  0  0  0  0  0  0  0  0  0  0
    7.5932   -5.2136    0.0000 H   0  0  0  0  0  0  0  0  0  0  0  0
    8.1242    8.0535    0.0000 H   0  0  0  0  0  0  0  0  0  0  0  0
    7.2582    8.1907    0.0000 H   0  0  0  0  0  0  0  0  0  0  0  0
    7.1210    7.3247    0.0000 H   0  0  0  0  0  0  0  0  0  0  0  0
    9.2697    6.3680    0.0000 H   0  0  0  0  0  0  0  0  0  0  0  0
    9.8215    7.0494    0.0000 H   0  0  0  0  0  0  0  0  0  0  0  0
    9.1401    7.6012    0.0000 H   0  0  0  0  0  0  0  0  0  0  0  0
   10.3991   -3.5936    0.0000 H   0  0  0  0  0  0  0  0  0  0  0  0
    8.9962   -6.0236    0.0000 H   0  0  0  0  0  0  0  0  0  0  0  0
   10.3991   -5.2136    0.0000 H   0  0  0  0  0  0  0  0  0  0  0  0
   13.2474   -4.8837    0.0000 H   0  0  0  0  0  0  0  0  0  0  0  0
   15.8108   -3.7424    0.0000 H   0  0  0  0  0  0  0  0  0  0  0  0
    2.3079   -2.8929    0.0000 H   0  0  0  0  0  0  0  0  0  0  0  0
    1.4619   -3.1231    0.0000 H   0  0  0  0  0  0  0  0  0  0  0  0
    1.6921   -3.9692    0.0000 H   0  0  0  0  0  0  0  0  0  0  0  0
   13.9063   -6.3636    0.0000 H   0  0  0  0  0  0  0  0  0  0  0  0
   16.4697   -5.2223    0.0000 H   0  0  0  0  0  0  0  0  0  0  0  0
   16.9187   -7.5510    0.0000 H   0  0  0  0  0  0  0  0  0  0  0  0
  1 35  1  0  0  0  0
  2 35  1  0  0  0  0
 18  3  1  1  0  0  0
  3 26  1  0  0  0  0
  4 21  2  0  0  0  0
  5 23  2  0  0  0  0
  6 33  1  0  0  0  0
  6 43  1  0  0  0  0
  7 32  2  0  0  0  0
  8 33  2  0  0  0  0
  9 42  1  0  0  0  0
  9 56  1  0  0  0  0
 10 60  1  0  0  0  0
 10111  1  0  0  0  0
 11 60  2  0  0  0  0
 12 17  1  0  0  0  0
 12 20  1  0  0  0  0
 12 21  1  0  0  0  0
 13 23  1  0  0  0  0
 13 25  1  0  0  0  0
 13 69  1  0  0  0  0
 22 14  1  6  0  0  0
 14 33  1  0  0  0  0
 14 71  1  0  0  0  0
 15 32  1  0  0  0  0
 15 39  1  0  0  0  0
 15 83  1  0  0  0  0
 16 34  1  0  0  0  0
 16 36  2  0  0  0  0
 17 19  1  0  0  0  0
 17 23  1  6  0  0  0
 17 61  1  0  0  0  0
 18 19  1  0  0  0  0
 18 20  1  0  0  0  0
 18 62  1  0  0  0  0
 19 63  1  0  0  0  0
 19 64  1  0  0  0  0
 20 65  1  0  0  0  0
 20 66  1  0  0  0  0
 21 22  1  0  0  0  0
 22 24  1  0  0  0  0
 22 67  1  0  0  0  0
 24 27  1  0  0  0  0
 24 28  1  0  0  0  0
 24 68  1  0  0  0  0
 25 29  1  0  0  0  0
 25 32  1  0  0  0  0
 25 70  1  0  0  0  0
 26 30  1  0  0  0  0
 26 31  2  0  0  0  0
 27 72  1  0  0  0  0
 27 73  1  0  0  0  0
 27 74  1  0  0  0  0
 28 75  1  0  0  0  0
 28 76  1  0  0  0  0
 28 77  1  0  0  0  0
 29 35  1  0  0  0  0
 29 78  1  0  0  0  0
 29 79  1  0  0  0  0
 30 34  2  0  0  0  0
 30 37  1  0  0  0  0
 31 36  1  0  0  0  0
 31 80  1  0  0  0  0
 34 38  1  0  0  0  0
 35 81  1  0  0  0  0
 36 41  1  0  0  0  0
 37 40  2  0  0  0  0
 37 82  1  0  0  0  0
 38 42  2  0  0  0  0
 38 84  1  0  0  0  0
 39 45  1  0  0  0  0
 39 85  1  0  0  0  0
 39 86  1  0  0  0  0
 40 42  1  0  0  0  0
 40 87  1  0  0  0  0
 41 46  2  0  0  0  0
 41 47  1  0  0  0  0
 43 44  1  0  0  0  0
 43 88  1  0  0  0  0
 43 89  1  0  0  0  0
 44 49  1  0  0  0  0
 44 50  1  0  0  0  0
 44 90  1  0  0  0  0
 45 48  1  0  0  0  0
 45 91  1  0  0  0  0
 45 92  1  0  0  0  0
 46 51  1  0  0  0  0
 46 93  1  0  0  0  0
 47 52  2  0  0  0  0
 47 94  1  0  0  0  0
 48 54  2  0  0  0  0
 48 55  1  0  0  0  0
 49 95  1  0  0  0  0
 49 96  1  0  0  0  0
 49 97  1  0  0  0  0
 50 98  1  0  0  0  0
 50 99  1  0  0  0  0
 50100  1  0  0  0  0
 51 53  2  0  0  0  0
 51101  1  0  0  0  0
 52 53  1  0  0  0  0
 52102  1  0  0  0  0
 53103  1  0  0  0  0
 54 57  1  0  0  0  0
 54104  1  0  0  0  0
 55 58  2  0  0  0  0
 55105  1  0  0  0  0
 56106  1  0  0  0  0
 56107  1  0  0  0  0
 56108  1  0  0  0  0
 57 59  2  0  0  0  0
 57109  1  0  0  0  0
 58 59  1  0  0  0  0
 58110  1  0  0  0  0
 59 60  1  0  0  0  0
M  END
> <PUBCHEM_COMPOUND_CID>
508175
> <PUBCHEM_COMPOUND_CANONICALIZED>
1
> <PUBCHEM_CACTVS_COMPLEXITY>
1430
> <PUBCHEM_CACTVS_HBOND_ACCEPTOR>
12
> <PUBCHEM_CACTVS_HBOND_DONOR>
4
> <PUBCHEM_CACTVS_ROTATABLE_BOND>
19
> <PUBCHEM_CACTVS_SUBSKEYS>
AAADcfB/vYAAAAAAAAAAAAAAAAAAAWAAAAA8YMEAAAAAAACx9AAAHwAQCAAADTzhnhYyzvPIFgCoAyXyXACCiCAlIiAImKG+bNkOZvLEtbufeSjm1hnY+Ye6+f+OYAAAAgACAADAAAAEAAQAAAAAAAAAAA==
> <PUBCHEM_IUPAC_OPENEYE_NAME>
4-[2-[[4,4-difluoro-2-[[(2S,4R)-1-[(2S)-2-(isobutoxycarbonylamino)-3-methyl-butanoyl]-4-[(7-methoxy-2-phenyl-4-quinolyl)oxy]pyrrolidine-2-carbonyl]amino]butanoyl]amino]ethyl]benzoic acid
> <PUBCHEM_IUPAC_CAS_NAME>
4-[2-[[4,4-difluoro-2-[[[(2S,4R)-4-[(7-methoxy-2-phenyl-4-quinolinyl)oxy]-1-[(2S)-3-methyl-2-[[2-methylpropoxy(oxo)methyl]amino]-1-oxobutyl]-2-pyrrolidinyl]-oxomethyl]amino]-1-oxobutyl]amino]ethyl]benzoic acid
> <PUBCHEM_IUPAC_NAME_MARKUP>
4-[2-[[4,4-difluoro-2-[[(2<I>S</I>,4<I>R</I>)-4-(7-methoxy-2-phenylquinolin-4-yl)oxy-1-[(2<I>S</I>)-3-methyl-2-(2-methylpropoxycarbonylamino)butanoyl]pyrrolidine-2-carbonyl]amino]butanoyl]amino]ethyl]benzoic acid
> <PUBCHEM_IUPAC_NAME>
4-[2-[[4,4-difluoro-2-[[(2S,4R)-4-(7-methoxy-2-phenylquinolin-4-yl)oxy-1-[(2S)-3-methyl-2-(2-methylpropoxycarbonylamino)butanoyl]pyrrolidine-2-carbonyl]amino]butanoyl]amino]ethyl]benzoic acid
> <PUBCHEM_IUPAC_SYSTEMATIC_NAME>
4-[2-[[4,4-bis(fluoranyl)-2-[[(2S,4R)-4-(7-methoxy-2-phenyl-quinolin-4-yl)oxy-1-[(2S)-3-methyl-2-(2-methylpropoxycarbonylamino)butanoyl]pyrrolidin-2-yl]carbonylamino]butanoyl]amino]ethyl]benzoic acid
> <PUBCHEM_IUPAC_TRADITIONAL_NAME>
4-[2-[[4,4-difluoro-2-[[(2S,4R)-1-[(2S)-2-(isobutoxycarbonylamino)-3-methyl-butanoyl]-4-[(7-methoxy-2-phenyl-4-quinolyl)oxy]prolyl]amino]butanoyl]amino]ethyl]benzoic acid
> <PUBCHEM_IUPAC_INCHI>
InChI=1S/C44H51F2N5O9/c1-25(2)24-59-44(57)50-39(26(3)4)42(54)51-23-31(60-37-21-33(28-9-7-6-8-10-28)48-34-19-30(58-5)15-16-32(34)37)20-36(51)41(53)49-35(22-38(45)46)40(52)47-18-17-27-11-13-29(14-12-27)43(55)56/h6-16,19,21,25-26,31,35-36,38-39H,17-18,20,22-24H2,1-5H3,(H,47,52)(H,49,53)(H,50,57)(H,55,56)/t31-,35?,36+,39+/m1/s1
> <PUBCHEM_IUPAC_INCHIKEY>
RJXGGMVKFQHMCK-ZPUWJPBVSA-N
> <PUBCHEM_XLOGP3_AA>
7.4
> <PUBCHEM_EXACT_MASS>
831.36548455
> <PUBCHEM_MOLECULAR_FORMULA>
C44H51F2N5O9
> <PUBCHEM_MOLECULAR_WEIGHT>
831.9
> <PUBCHEM_OPENEYE_CAN_SMILES>
CC(C)COC(=O)NC(C(C)C)C(=O)N1CC(CC1C(=O)NC(CC(F)F)C(=O)NCCC2=CC=C(C=C2)C(=O)O)OC3=CC(=NC4=C3C=CC(=C4)OC)C5=CC=CC=C5
> <PUBCHEM_OPENEYE_ISO_SMILES>
CC(C)COC(=O)N[C@@H](C(C)C)C(=O)N1C[C@@H](C[C@H]1C(=O)NC(CC(F)F)C(=O)NCCC2=CC=C(C=C2)C(=O)O)OC3=CC(=NC4=C3C=CC(=C4)OC)C5=CC=CC=C5
> <PUBCHEM_CACTVS_TPSA>
186
> <PUBCHEM_MONOISOTOPIC_WEIGHT>
831.36548455
> <PUBCHEM_TOTAL_CHARGE>
0
> <PUBCHEM_HEAVY_ATOM_COUNT>
60
> <PUBCHEM_ATOM_DEF_STEREO_COUNT>
3
> <PUBCHEM_ATOM_UDEF_STEREO_COUNT>
1
> <PUBCHEM_BOND_DEF_STEREO_COUNT>
0
> <PUBCHEM_BOND_UDEF_STEREO_COUNT>
0
> <PUBCHEM_ISOTOPIC_ATOM_COUNT>
0
> <PUBCHEM_COMPONENT_COUNT>
1
> <PUBCHEM_CACTVS_TAUTO_COUNT>
-1
> <PUBCHEM_COORDINATE_TYPE>
1
5
255
> <PUBCHEM_BONDANNOTATIONS>
22  14  6
16  34  8
16  36  8
17  23  6
25  29  3
26  30  8
26  31  8
18  3  5
30  34  8
30  37  8
31  36  8
34  38  8
37  40  8
38  42  8
40  42  8
41  46  8
41  47  8
46  51  8
47  52  8
48  54  8
48  55  8
51  53  8
52  53  8
54  57  8
55  58  8
57  59  8
58  59  8
$$$$
