508190
  -OEChem-10302200282D
 92 96  0     1  0  0  0  0  0999 V2000
    9.8622    2.7500    0.0000 O   0  0  0  0  0  0  0  0  0  0  0  0
    6.3981   -4.2500    0.0000 O   0  0  0  0  0  0  0  0  0  0  0  0
    7.2641    0.2500    0.0000 O   0  0  0  0  0  0  0  0  0  0  0  0
   11.5942   -0.2500    0.0000 O   0  0  0  0  0  0  0  0  0  0  0  0
    5.5321   -2.7500    0.0000 N   0  0  0  0  0  0  0  0  0  0  0  0
    8.9962    0.2500    0.0000 N   0  0  0  0  0  0  0  0  0  0  0  0
   13.3263   -0.2500    0.0000 N   0  0  0  0  0  0  0  0  0  0  0  0
    8.9962    1.2500    0.0000 C   0  0  2  0  0  0  0  0  0  0  0  0
    9.8622    1.7500    0.0000 C   0  0  2  0  0  0  0  0  0  0  0  0
   10.7282    1.2500    0.0000 C   0  0  0  0  0  0  0  0  0  0  0  0
    8.1301    1.7500    0.0000 C   0  0  0  0  0  0  0  0  0  0  0  0
    5.5321   -1.7500    0.0000 C   0  0  0  0  0  0  0  0  0  0  0  0
    4.6660   -1.2500    0.0000 C   0  0  0  0  0  0  0  0  0  0  0  0
    4.6660   -3.2500    0.0000 C   0  0  0  0  0  0  0  0  0  0  0  0
    3.8000   -1.7500    0.0000 C   0  0  0  0  0  0  0  0  0  0  0  0
    3.8000   -2.7500    0.0000 C   0  0  0  0  0  0  0  0  0  0  0  0
   11.5942    1.7500    0.0000 C   0  0  0  0  0  0  0  0  0  0  0  0
    6.3981   -3.2500    0.0000 C   0  0  0  0  0  0  0  0  0  0  0  0
    8.1301    2.7500    0.0000 C   0  0  0  0  0  0  0  0  0  0  0  0
    7.2641   -2.7500    0.0000 C   0  0  0  0  0  0  0  0  0  0  0  0
   12.4603    1.2500    0.0000 C   0  0  0  0  0  0  0  0  0  0  0  0
    8.1301   -0.2500    0.0000 C   0  0  0  0  0  0  0  0  0  0  0  0
    8.1301   -1.2500    0.0000 C   0  0  0  0  0  0  0  0  0  0  0  0
   14.1923    0.2500    0.0000 C   0  0  0  0  0  0  0  0  0  0  0  0
    8.1301   -3.2500    0.0000 C   0  0  0  0  0  0  0  0  0  0  0  0
    2.9061   -1.2153    0.0000 C   0  0  0  0  0  0  0  0  0  0  0  0
    2.9061   -3.2847    0.0000 C   0  0  0  0  0  0  0  0  0  0  0  0
    7.2641   -1.7500    0.0000 C   0  0  0  0  0  0  0  0  0  0  0  0
   11.5942    2.7500    0.0000 C   0  0  0  0  0  0  0  0  0  0  0  0
   12.4603    0.2500    0.0000 C   0  0  0  0  0  0  0  0  0  0  0  0
    8.9962   -1.7500    0.0000 C   0  0  0  0  0  0  0  0  0  0  0  0
    8.9962   -2.7500    0.0000 C   0  0  0  0  0  0  0  0  0  0  0  0
    8.9962    3.2500    0.0000 C   0  0  0  0  0  0  0  0  0  0  0  0
    7.2641    3.2500    0.0000 C   0  0  0  0  0  0  0  0  0  0  0  0
    8.1301   -4.2500    0.0000 C   0  0  0  0  0  0  0  0  0  0  0  0
    2.0000   -1.7292    0.0000 C   0  0  0  0  0  0  0  0  0  0  0  0
    2.0000   -2.7708    0.0000 C   0  0  0  0  0  0  0  0  0  0  0  0
   13.3263    1.7500    0.0000 C   0  0  0  0  0  0  0  0  0  0  0  0
   15.0583    0.7500    0.0000 C   0  0  0  0  0  0  0  0  0  0  0  0
   14.6923   -0.6160    0.0000 C   0  0  0  0  0  0  0  0  0  0  0  0
   13.6923    1.1160    0.0000 C   0  0  0  0  0  0  0  0  0  0  0  0
   12.4603    3.2500    0.0000 C   0  0  0  0  0  0  0  0  0  0  0  0
   13.3263    2.7500    0.0000 C   0  0  0  0  0  0  0  0  0  0  0  0
    8.9962    4.2500    0.0000 C   0  0  0  0  0  0  0  0  0  0  0  0
    7.2641    4.2500    0.0000 C   0  0  0  0  0  0  0  0  0  0  0  0
    8.9962   -4.7500    0.0000 C   0  0  0  0  0  0  0  0  0  0  0  0
    8.1301    4.7500    0.0000 C   0  0  0  0  0  0  0  0  0  0  0  0
    9.5331    0.9400    0.0000 H   0  0  0  0  0  0  0  0  0  0  0  0
    9.3252    2.0600    0.0000 H   0  0  0  0  0  0  0  0  0  0  0  0
   10.3297    0.7751    0.0000 H   0  0  0  0  0  0  0  0  0  0  0  0
   11.1267    0.7751    0.0000 H   0  0  0  0  0  0  0  0  0  0  0  0
    7.5196    1.8577    0.0000 H   0  0  0  0  0  0  0  0  0  0  0  0
    7.9181    1.1674    0.0000 H   0  0  0  0  0  0  0  0  0  0  0  0
    6.1426   -1.8577    0.0000 H   0  0  0  0  0  0  0  0  0  0  0  0
    5.7441   -1.1674    0.0000 H   0  0  0  0  0  0  0  0  0  0  0  0
    5.0646   -0.7751    0.0000 H   0  0  0  0  0  0  0  0  0  0  0  0
    4.2675   -0.7751    0.0000 H   0  0  0  0  0  0  0  0  0  0  0  0
    4.2675   -3.7250    0.0000 H   0  0  0  0  0  0  0  0  0  0  0  0
    5.0646   -3.7250    0.0000 H   0  0  0  0  0  0  0  0  0  0  0  0
    9.5331   -0.0600    0.0000 H   0  0  0  0  0  0  0  0  0  0  0  0
    2.9132   -0.5954    0.0000 H   0  0  0  0  0  0  0  0  0  0  0  0
    2.9132   -3.9046    0.0000 H   0  0  0  0  0  0  0  0  0  0  0  0
   10.3991    3.0600    0.0000 H   0  0  0  0  0  0  0  0  0  0  0  0
    6.7272   -1.4400    0.0000 H   0  0  0  0  0  0  0  0  0  0  0  0
   11.0573    3.0600    0.0000 H   0  0  0  0  0  0  0  0  0  0  0  0
   13.3263   -0.8700    0.0000 H   0  0  0  0  0  0  0  0  0  0  0  0
    9.5331   -1.4400    0.0000 H   0  0  0  0  0  0  0  0  0  0  0  0
    9.5331   -3.0600    0.0000 H   0  0  0  0  0  0  0  0  0  0  0  0
    9.5331    2.9400    0.0000 H   0  0  0  0  0  0  0  0  0  0  0  0
    6.7272    2.9400    0.0000 H   0  0  0  0  0  0  0  0  0  0  0  0
    7.5196   -4.1423    0.0000 H   0  0  0  0  0  0  0  0  0  0  0  0
    7.9181   -4.8326    0.0000 H   0  0  0  0  0  0  0  0  0  0  0  0
    1.4643   -1.4171    0.0000 H   0  0  0  0  0  0  0  0  0  0  0  0
    1.4643   -3.0829    0.0000 H   0  0  0  0  0  0  0  0  0  0  0  0
   13.8632    1.4400    0.0000 H   0  0  0  0  0  0  0  0  0  0  0  0
   15.3683    0.2131    0.0000 H   0  0  0  0  0  0  0  0  0  0  0  0
   15.5953    1.0600    0.0000 H   0  0  0  0  0  0  0  0  0  0  0  0
   14.7483    1.2869    0.0000 H   0  0  0  0  0  0  0  0  0  0  0  0
   14.1554   -0.9260    0.0000 H   0  0  0  0  0  0  0  0  0  0  0  0
   15.0023   -1.1530    0.0000 H   0  0  0  0  0  0  0  0  0  0  0  0
   15.2292   -0.3060    0.0000 H   0  0  0  0  0  0  0  0  0  0  0  0
   14.2292    1.4260    0.0000 H   0  0  0  0  0  0  0  0  0  0  0  0
   13.3823    1.6530    0.0000 H   0  0  0  0  0  0  0  0  0  0  0  0
   13.1554    0.8060    0.0000 H   0  0  0  0  0  0  0  0  0  0  0  0
   12.4603    3.8700    0.0000 H   0  0  0  0  0  0  0  0  0  0  0  0
   13.8632    3.0600    0.0000 H   0  0  0  0  0  0  0  0  0  0  0  0
    9.5331    4.5600    0.0000 H   0  0  0  0  0  0  0  0  0  0  0  0
    6.7272    4.5600    0.0000 H   0  0  0  0  0  0  0  0  0  0  0  0
    8.6862   -5.2869    0.0000 H   0  0  0  0  0  0  0  0  0  0  0  0
    9.5331   -5.0600    0.0000 H   0  0  0  0  0  0  0  0  0  0  0  0
    9.3062   -4.2131    0.0000 H   0  0  0  0  0  0  0  0  0  0  0  0
    8.1301    5.3700    0.0000 H   0  0  0  0  0  0  0  0  0  0  0  0
  9  1  1  1  0  0  0
  1 63  1  0  0  0  0
  2 18  2  0  0  0  0
  3 22  2  0  0  0  0
  4 30  2  0  0  0  0
  5 12  1  0  0  0  0
  5 14  1  0  0  0  0
  5 18  1  0  0  0  0
  8  6  1  1  0  0  0
  6 22  1  0  0  0  0
  6 60  1  0  0  0  0
  7 24  1  0  0  0  0
  7 30  1  0  0  0  0
  7 66  1  0  0  0  0
  8  9  1  0  0  0  0
  8 11  1  0  0  0  0
  8 48  1  0  0  0  0
  9 10  1  0  0  0  0
  9 49  1  0  0  0  0
 10 17  1  0  0  0  0
 10 50  1  0  0  0  0
 10 51  1  0  0  0  0
 11 19  1  0  0  0  0
 11 52  1  0  0  0  0
 11 53  1  0  0  0  0
 12 13  1  0  0  0  0
 12 54  1  0  0  0  0
 12 55  1  0  0  0  0
 13 15  1  0  0  0  0
 13 56  1  0  0  0  0
 13 57  1  0  0  0  0
 14 16  1  0  0  0  0
 14 58  1  0  0  0  0
 14 59  1  0  0  0  0
 15 16  1  0  0  0  0
 15 26  2  0  0  0  0
 16 27  2  0  0  0  0
 17 21  1  0  0  0  0
 17 29  2  0  0  0  0
 18 20  1  0  0  0  0
 19 33  2  0  0  0  0
 19 34  1  0  0  0  0
 20 25  2  0  0  0  0
 20 28  1  0  0  0  0
 21 30  1  0  0  0  0
 21 38  2  0  0  0  0
 22 23  1  0  0  0  0
 23 28  2  0  0  0  0
 23 31  1  0  0  0  0
 24 39  1  0  0  0  0
 24 40  1  0  0  0  0
 24 41  1  0  0  0  0
 25 32  1  0  0  0  0
 25 35  1  0  0  0  0
 26 36  1  0  0  0  0
 26 61  1  0  0  0  0
 27 37  1  0  0  0  0
 27 62  1  0  0  0  0
 28 64  1  0  0  0  0
 29 42  1  0  0  0  0
 29 65  1  0  0  0  0
 31 32  2  0  0  0  0
 31 67  1  0  0  0  0
 32 68  1  0  0  0  0
 33 44  1  0  0  0  0
 33 69  1  0  0  0  0
 34 45  2  0  0  0  0
 34 70  1  0  0  0  0
 35 46  1  0  0  0  0
 35 71  1  0  0  0  0
 35 72  1  0  0  0  0
 36 37  2  0  0  0  0
 36 73  1  0  0  0  0
 37 74  1  0  0  0  0
 38 43  1  0  0  0  0
 38 75  1  0  0  0  0
 39 76  1  0  0  0  0
 39 77  1  0  0  0  0
 39 78  1  0  0  0  0
 40 79  1  0  0  0  0
 40 80  1  0  0  0  0
 40 81  1  0  0  0  0
 41 82  1  0  0  0  0
 41 83  1  0  0  0  0
 41 84  1  0  0  0  0
 42 43  2  0  0  0  0
 42 85  1  0  0  0  0
 43 86  1  0  0  0  0
 44 47  2  0  0  0  0
 44 87  1  0  0  0  0
 45 47  1  0  0  0  0
 45 88  1  0  0  0  0
 46 89  1  0  0  0  0
 46 90  1  0  0  0  0
 46 91  1  0  0  0  0
 47 92  1  0  0  0  0
M  END
> <PUBCHEM_COMPOUND_CID>
508190
> <PUBCHEM_COMPOUND_CANONICALIZED>
1
> <PUBCHEM_CACTVS_COMPLEXITY>
1040
> <PUBCHEM_CACTVS_HBOND_ACCEPTOR>
4
> <PUBCHEM_CACTVS_HBOND_DONOR>
3
> <PUBCHEM_CACTVS_ROTATABLE_BOND>
11
> <PUBCHEM_CACTVS_SUBSKEYS>
AAADcfB/OAAAAAAAAAAAAAAAAAAAAAAAAAA8YMGCAAAAAACxVAAAHgAQCAAADLzhmAYyAIPAAgCIAiFSEACCAAAkAAAIiIEIBMgKMDKAlRGEYQhk1gGYiYeY3+LOwAACAAAQAACAAAQAACAAAAAAAAAAAA==
> <PUBCHEM_IUPAC_OPENEYE_NAME>
N-[(1S,2S)-1-benzyl-3-[2-(tert-butylcarbamoyl)phenyl]-2-hydroxy-propyl]-3-(3,4-dihydro-1H-isoquinoline-2-carbonyl)-4-ethyl-benzamide
> <PUBCHEM_IUPAC_CAS_NAME>
N-[(2S,3S)-4-[2-[(tert-butylamino)-oxomethyl]phenyl]-3-hydroxy-1-phenylbutan-2-yl]-3-[3,4-dihydro-1H-isoquinolin-2-yl(oxo)methyl]-4-ethylbenzamide
> <PUBCHEM_IUPAC_NAME_MARKUP>
<I>N</I>-[(2<I>S</I>,3<I>S</I>)-4-[2-(<I>tert</I>-butylcarbamoyl)phenyl]-3-hydroxy-1-phenylbutan-2-yl]-3-(3,4-dihydro-1<I>H</I>-isoquinoline-2-carbonyl)-4-ethylbenzamide
> <PUBCHEM_IUPAC_NAME>
N-[(2S,3S)-4-[2-(tert-butylcarbamoyl)phenyl]-3-hydroxy-1-phenylbutan-2-yl]-3-(3,4-dihydro-1H-isoquinoline-2-carbonyl)-4-ethylbenzamide
> <PUBCHEM_IUPAC_SYSTEMATIC_NAME>
N-[(2S,3S)-4-[2-(tert-butylcarbamoyl)phenyl]-3-oxidanyl-1-phenyl-butan-2-yl]-3-(3,4-dihydro-1H-isoquinolin-2-ylcarbonyl)-4-ethyl-benzamide
> <PUBCHEM_IUPAC_TRADITIONAL_NAME>
N-[(1S,2S)-1-benzyl-3-[2-(tert-butylcarbamoyl)phenyl]-2-hydroxy-propyl]-3-(3,4-dihydro-1H-isoquinoline-2-carbonyl)-4-ethyl-benzamide
> <PUBCHEM_IUPAC_INCHI>
InChI=1S/C40H45N3O4/c1-5-28-19-20-31(24-34(28)39(47)43-22-21-29-15-9-10-17-32(29)26-43)37(45)41-35(23-27-13-7-6-8-14-27)36(44)25-30-16-11-12-18-33(30)38(46)42-40(2,3)4/h6-20,24,35-36,44H,5,21-23,25-26H2,1-4H3,(H,41,45)(H,42,46)/t35-,36-/m0/s1
> <PUBCHEM_IUPAC_INCHIKEY>
LHPFGUSBKQRAKY-ZPGRZCPFSA-N
> <PUBCHEM_XLOGP3_AA>
6.6
> <PUBCHEM_EXACT_MASS>
631.34100693
> <PUBCHEM_MOLECULAR_FORMULA>
C40H45N3O4
> <PUBCHEM_MOLECULAR_WEIGHT>
631.8
> <PUBCHEM_OPENEYE_CAN_SMILES>
CCC1=C(C=C(C=C1)C(=O)NC(CC2=CC=CC=C2)C(CC3=CC=CC=C3C(=O)NC(C)(C)C)O)C(=O)N4CCC5=CC=CC=C5C4
> <PUBCHEM_OPENEYE_ISO_SMILES>
CCC1=C(C=C(C=C1)C(=O)N[C@@H](CC2=CC=CC=C2)[C@H](CC3=CC=CC=C3C(=O)NC(C)(C)C)O)C(=O)N4CCC5=CC=CC=C5C4
> <PUBCHEM_CACTVS_TPSA>
98.7
> <PUBCHEM_MONOISOTOPIC_WEIGHT>
631.34100693
> <PUBCHEM_TOTAL_CHARGE>
0
> <PUBCHEM_HEAVY_ATOM_COUNT>
47
> <PUBCHEM_ATOM_DEF_STEREO_COUNT>
2
> <PUBCHEM_ATOM_UDEF_STEREO_COUNT>
0
> <PUBCHEM_BOND_DEF_STEREO_COUNT>
0
> <PUBCHEM_BOND_UDEF_STEREO_COUNT>
0
> <PUBCHEM_ISOTOPIC_ATOM_COUNT>
0
> <PUBCHEM_COMPONENT_COUNT>
1
> <PUBCHEM_CACTVS_TAUTO_COUNT>
-1
> <PUBCHEM_COORDINATE_TYPE>
1
5
255
> <PUBCHEM_BONDANNOTATIONS>
9  1  5
15  16  8
15  26  8
16  27  8
17  21  8
17  29  8
19  33  8
19  34  8
20  25  8
20  28  8
21  38  8
23  28  8
23  31  8
25  32  8
26  36  8
27  37  8
29  42  8
31  32  8
33  44  8
34  45  8
36  37  8
38  43  8
42  43  8
44  47  8
45  47  8
8  6  5
$$$$
