508169
  -OEChem-10302200282D
 70 71  0     1  0  0  0  0  0999 V2000
    5.7119   -3.2601    0.0000 S   0  0  0  0  0  0  0  0  0  0  0  0
    8.3100    1.9720    0.0000 O   0  0  0  0  0  0  0  0  0  0  0  0
    9.1760   -3.2601    0.0000 O   0  0  0  0  0  0  0  0  0  0  0  0
    4.8100    2.8380    0.0000 O   0  0  0  0  0  0  0  0  0  0  0  0
    2.3100    0.2399    0.0000 O   0  0  0  0  0  0  0  0  0  0  0  0
    3.8100   -0.6261    0.0000 O   0  0  0  0  0  0  0  0  0  0  0  0
    8.3100   -1.7601    0.0000 N   0  0  0  0  0  0  0  0  0  0  0  0
    6.8100    1.1060    0.0000 N   0  0  0  0  0  0  0  0  0  0  0  0
    7.4440   -4.2601    0.0000 N   0  0  0  0  0  0  0  0  0  0  0  0
    4.8100    1.1060    0.0000 N   0  0  0  0  0  0  0  0  0  0  0  0
    8.3100    0.2399    0.0000 C   0  0  0  0  0  0  0  0  0  0  0  0
    9.1760   -0.2601    0.0000 C   0  0  0  0  0  0  0  0  0  0  0  0
    7.4440   -0.2601    0.0000 C   0  0  0  0  0  0  0  0  0  0  0  0
    9.1760   -1.2601    0.0000 C   0  0  0  0  0  0  0  0  0  0  0  0
    7.4440   -1.2601    0.0000 C   0  0  0  0  0  0  0  0  0  0  0  0
    9.2497    0.5820    0.0000 C   0  0  0  0  0  0  0  0  0  0  0  0
    7.8100    1.1060    0.0000 C   0  0  0  0  0  0  0  0  0  0  0  0
    8.3100   -2.7601    0.0000 C   0  0  0  0  0  0  0  0  0  0  0  0
    6.3100    1.9720    0.0000 C   0  0  1  0  0  0  0  0  0  0  0  0
    9.4233    1.5668    0.0000 C   0  0  0  0  0  0  0  0  0  0  0  0
   10.0157   -0.0608    0.0000 C   0  0  0  0  0  0  0  0  0  0  0  0
    6.8100    2.8380    0.0000 C   0  0  0  0  0  0  0  0  0  0  0  0
    7.4440   -3.2601    0.0000 C   0  0  2  0  0  0  0  0  0  0  0  0
    6.3100    3.7040    0.0000 C   0  0  0  0  0  0  0  0  0  0  0  0
    5.3100    1.9720    0.0000 C   0  0  0  0  0  0  0  0  0  0  0  0
   10.3630    1.9088    0.0000 C   0  0  0  0  0  0  0  0  0  0  0  0
   10.9554    0.2812    0.0000 C   0  0  0  0  0  0  0  0  0  0  0  0
   11.1291    1.2660    0.0000 C   0  0  0  0  0  0  0  0  0  0  0  0
    6.5780   -2.7601    0.0000 C   0  0  0  0  0  0  0  0  0  0  0  0
    6.8100    4.5701    0.0000 C   0  0  0  0  0  0  0  0  0  0  0  0
    5.3100    3.7040    0.0000 C   0  0  0  0  0  0  0  0  0  0  0  0
    3.8100    1.1060    0.0000 C   0  0  1  0  0  0  0  0  0  0  0  0
    3.3100    1.9720    0.0000 C   0  0  0  0  0  0  0  0  0  0  0  0
    3.3100    0.2399    0.0000 C   0  0  0  0  0  0  0  0  0  0  0  0
    9.7866   -0.3677    0.0000 H   0  0  0  0  0  0  0  0  0  0  0  0
    9.3881    0.3225    0.0000 H   0  0  0  0  0  0  0  0  0  0  0  0
    7.2319    0.3225    0.0000 H   0  0  0  0  0  0  0  0  0  0  0  0
    6.8334   -0.3677    0.0000 H   0  0  0  0  0  0  0  0  0  0  0  0
    9.3881   -1.8427    0.0000 H   0  0  0  0  0  0  0  0  0  0  0  0
    9.7866   -1.1524    0.0000 H   0  0  0  0  0  0  0  0  0  0  0  0
    6.8334   -1.1524    0.0000 H   0  0  0  0  0  0  0  0  0  0  0  0
    7.2319   -1.8427    0.0000 H   0  0  0  0  0  0  0  0  0  0  0  0
    6.5000    0.5690    0.0000 H   0  0  0  0  0  0  0  0  0  0  0  0
    6.0000    1.4350    0.0000 H   0  0  0  0  0  0  0  0  0  0  0  0
    8.9484    1.9653    0.0000 H   0  0  0  0  0  0  0  0  0  0  0  0
    9.9081   -0.6714    0.0000 H   0  0  0  0  0  0  0  0  0  0  0  0
    7.2850    2.4395    0.0000 H   0  0  0  0  0  0  0  0  0  0  0  0
    7.2850    3.2365    0.0000 H   0  0  0  0  0  0  0  0  0  0  0  0
    6.9070   -3.5701    0.0000 H   0  0  0  0  0  0  0  0  0  0  0  0
    6.9300    3.7040    0.0000 H   0  0  0  0  0  0  0  0  0  0  0  0
   10.4707    2.5194    0.0000 H   0  0  0  0  0  0  0  0  0  0  0  0
   11.4304   -0.1173    0.0000 H   0  0  0  0  0  0  0  0  0  0  0  0
   11.7117    1.4780    0.0000 H   0  0  0  0  0  0  0  0  0  0  0  0
    6.9765   -2.2851    0.0000 H   0  0  0  0  0  0  0  0  0  0  0  0
    6.1794   -2.2851    0.0000 H   0  0  0  0  0  0  0  0  0  0  0  0
    7.3469    4.2601    0.0000 H   0  0  0  0  0  0  0  0  0  0  0  0
    7.1200    5.1070    0.0000 H   0  0  0  0  0  0  0  0  0  0  0  0
    6.2731    4.8801    0.0000 H   0  0  0  0  0  0  0  0  0  0  0  0
    5.3100    4.3240    0.0000 H   0  0  0  0  0  0  0  0  0  0  0  0
    4.6900    3.7040    0.0000 H   0  0  0  0  0  0  0  0  0  0  0  0
    5.3100    3.0840    0.0000 H   0  0  0  0  0  0  0  0  0  0  0  0
    6.9070   -4.5701    0.0000 H   0  0  0  0  0  0  0  0  0  0  0  0
    7.9809   -4.5701    0.0000 H   0  0  0  0  0  0  0  0  0  0  0  0
    5.1200    0.5690    0.0000 H   0  0  0  0  0  0  0  0  0  0  0  0
    4.1200    1.6429    0.0000 H   0  0  0  0  0  0  0  0  0  0  0  0
    5.1750   -2.9501    0.0000 H   0  0  0  0  0  0  0  0  0  0  0  0
    3.8469    2.2820    0.0000 H   0  0  0  0  0  0  0  0  0  0  0  0
    3.0000    2.5089    0.0000 H   0  0  0  0  0  0  0  0  0  0  0  0
    2.7731    1.6620    0.0000 H   0  0  0  0  0  0  0  0  0  0  0  0
    2.0000   -0.2970    0.0000 H   0  0  0  0  0  0  0  0  0  0  0  0
  1 29  1  0  0  0  0
  1 66  1  0  0  0  0
  2 17  2  0  0  0  0
  3 18  2  0  0  0  0
  4 25  2  0  0  0  0
  5 34  1  0  0  0  0
  5 70  1  0  0  0  0
  6 34  2  0  0  0  0
  7 14  1  0  0  0  0
  7 15  1  0  0  0  0
  7 18  1  0  0  0  0
  8 17  1  0  0  0  0
 19  8  1  6  0  0  0
  8 43  1  0  0  0  0
 23  9  1  1  0  0  0
  9 62  1  0  0  0  0
  9 63  1  0  0  0  0
 10 25  1  0  0  0  0
 32 10  1  6  0  0  0
 10 64  1  0  0  0  0
 11 12  1  0  0  0  0
 11 13  1  0  0  0  0
 11 16  1  0  0  0  0
 11 17  1  0  0  0  0
 12 14  1  0  0  0  0
 12 35  1  0  0  0  0
 12 36  1  0  0  0  0
 13 15  1  0  0  0  0
 13 37  1  0  0  0  0
 13 38  1  0  0  0  0
 14 39  1  0  0  0  0
 14 40  1  0  0  0  0
 15 41  1  0  0  0  0
 15 42  1  0  0  0  0
 16 20  2  0  0  0  0
 16 21  1  0  0  0  0
 18 23  1  0  0  0  0
 19 22  1  0  0  0  0
 19 25  1  0  0  0  0
 19 44  1  0  0  0  0
 20 26  1  0  0  0  0
 20 45  1  0  0  0  0
 21 27  2  0  0  0  0
 21 46  1  0  0  0  0
 22 24  1  0  0  0  0
 22 47  1  0  0  0  0
 22 48  1  0  0  0  0
 23 29  1  0  0  0  0
 23 49  1  0  0  0  0
 24 30  1  0  0  0  0
 24 31  1  0  0  0  0
 24 50  1  0  0  0  0
 26 28  2  0  0  0  0
 26 51  1  0  0  0  0
 27 28  1  0  0  0  0
 27 52  1  0  0  0  0
 28 53  1  0  0  0  0
 29 54  1  0  0  0  0
 29 55  1  0  0  0  0
 30 56  1  0  0  0  0
 30 57  1  0  0  0  0
 30 58  1  0  0  0  0
 31 59  1  0  0  0  0
 31 60  1  0  0  0  0
 31 61  1  0  0  0  0
 32 33  1  0  0  0  0
 32 34  1  0  0  0  0
 32 65  1  0  0  0  0
 33 67  1  0  0  0  0
 33 68  1  0  0  0  0
 33 69  1  0  0  0  0
M  END
> <PUBCHEM_COMPOUND_CID>
508169
> <PUBCHEM_COMPOUND_CANONICALIZED>
1
> <PUBCHEM_CACTVS_COMPLEXITY>
733
> <PUBCHEM_CACTVS_HBOND_ACCEPTOR>
7
> <PUBCHEM_CACTVS_HBOND_DONOR>
5
> <PUBCHEM_CACTVS_ROTATABLE_BOND>
10
> <PUBCHEM_CACTVS_SUBSKEYS>
AAADcfB7uABAAAAAAAAAAAAAAAAAAAAAAAA8QAAAAAAAAAABAAAAHgQQCAAADyjF2ASyCIPAAgSIAiHSGAACAAAgAAAIiIGIAIgKYDKAlTGUYAAglgCYiAcciMCPgAAAAAAAAAAAAAAAAAAAAAAAAAAAAA==
> <PUBCHEM_IUPAC_OPENEYE_NAME>
(2S)-2-[[(2S)-2-[[1-[(2R)-2-amino-3-sulfanyl-propanoyl]-4-phenyl-piperidine-4-carbonyl]amino]-4-methyl-pentanoyl]amino]propanoic acid
> <PUBCHEM_IUPAC_CAS_NAME>
(2S)-2-[[(2S)-2-[[[1-[(2R)-2-amino-3-mercapto-1-oxopropyl]-4-phenyl-4-piperidinyl]-oxomethyl]amino]-4-methyl-1-oxopentyl]amino]propanoic acid
> <PUBCHEM_IUPAC_NAME_MARKUP>
(2<I>S</I>)-2-[[(2<I>S</I>)-2-[[1-[(2<I>R</I>)-2-amino-3-sulfanylpropanoyl]-4-phenylpiperidine-4-carbonyl]amino]-4-methylpentanoyl]amino]propanoic acid
> <PUBCHEM_IUPAC_NAME>
(2S)-2-[[(2S)-2-[[1-[(2R)-2-amino-3-sulfanylpropanoyl]-4-phenylpiperidine-4-carbonyl]amino]-4-methylpentanoyl]amino]propanoic acid
> <PUBCHEM_IUPAC_SYSTEMATIC_NAME>
(2S)-2-[[(2S)-2-[[1-[(2R)-2-azanyl-3-sulfanyl-propanoyl]-4-phenyl-piperidin-4-yl]carbonylamino]-4-methyl-pentanoyl]amino]propanoic acid
> <PUBCHEM_IUPAC_TRADITIONAL_NAME>
(2S)-2-[[(2S)-2-[[1-[(2R)-2-amino-3-mercapto-propanoyl]-4-phenyl-isonipecotoyl]amino]-4-methyl-pentanoyl]amino]propionic acid
> <PUBCHEM_IUPAC_INCHI>
InChI=1S/C24H36N4O5S/c1-15(2)13-19(20(29)26-16(3)22(31)32)27-23(33)24(17-7-5-4-6-8-17)9-11-28(12-10-24)21(30)18(25)14-34/h4-8,15-16,18-19,34H,9-14,25H2,1-3H3,(H,26,29)(H,27,33)(H,31,32)/t16-,18-,19-/m0/s1
> <PUBCHEM_IUPAC_INCHIKEY>
ZORLZQLLRSELQH-WDSOQIARSA-N
> <PUBCHEM_XLOGP3_AA>
-0.8
> <PUBCHEM_EXACT_MASS>
492.24064144
> <PUBCHEM_MOLECULAR_FORMULA>
C24H36N4O5S
> <PUBCHEM_MOLECULAR_WEIGHT>
492.6
> <PUBCHEM_OPENEYE_CAN_SMILES>
CC(C)CC(C(=O)NC(C)C(=O)O)NC(=O)C1(CCN(CC1)C(=O)C(CS)N)C2=CC=CC=C2
> <PUBCHEM_OPENEYE_ISO_SMILES>
C[C@@H](C(=O)O)NC(=O)[C@H](CC(C)C)NC(=O)C1(CCN(CC1)C(=O)[C@H](CS)N)C2=CC=CC=C2
> <PUBCHEM_CACTVS_TPSA>
143
> <PUBCHEM_MONOISOTOPIC_WEIGHT>
492.24064144
> <PUBCHEM_TOTAL_CHARGE>
0
> <PUBCHEM_HEAVY_ATOM_COUNT>
34
> <PUBCHEM_ATOM_DEF_STEREO_COUNT>
3
> <PUBCHEM_ATOM_UDEF_STEREO_COUNT>
0
> <PUBCHEM_BOND_DEF_STEREO_COUNT>
0
> <PUBCHEM_BOND_UDEF_STEREO_COUNT>
0
> <PUBCHEM_ISOTOPIC_ATOM_COUNT>
0
> <PUBCHEM_COMPONENT_COUNT>
1
> <PUBCHEM_CACTVS_TAUTO_COUNT>
-1
> <PUBCHEM_COORDINATE_TYPE>
1
5
255
> <PUBCHEM_BONDANNOTATIONS>
32  10  6
16  20  8
16  21  8
20  26  8
21  27  8
26  28  8
27  28  8
19  8  6
23  9  5
$$$$
