508210
  -OEChem-10302200282D
103107  0     1  0  0  0  0  0999 V2000
    7.2641    4.5670    0.0000 O   0  0  0  0  0  0  0  0  0  0  0  0
    5.5321    1.5670    0.0000 O   0  0  0  0  0  0  0  0  0  0  0  0
    5.5321    0.5670    0.0000 O   0  0  0  0  0  0  0  0  0  0  0  0
    8.9962   -2.4330    0.0000 O   0  0  0  0  0  0  0  0  0  0  0  0
    5.5321    3.5670    0.0000 N   0  0  3  0  0  0  0  0  0  0  0  0
    6.3981    6.0670    0.0000 N   0  0  0  0  0  0  0  0  0  0  0  0
    7.2641    0.5670    0.0000 N   0  0  0  0  0  0  0  0  0  0  0  0
    8.1301   -3.9330    0.0000 N   0  0  0  0  0  0  0  0  0  0  0  0
    3.8000    4.5670    0.0000 C   0  0  3  0  0  0  0  0  0  0  0  0
    3.8000    3.5670    0.0000 C   0  0  3  0  0  0  0  0  0  0  0  0
    4.6660    5.0670    0.0000 C   0  0  0  0  0  0  0  0  0  0  0  0
    4.6660    3.0670    0.0000 C   0  0  0  0  0  0  0  0  0  0  0  0
    2.9061    5.1016    0.0000 C   0  0  0  0  0  0  0  0  0  0  0  0
    2.9061    3.0323    0.0000 C   0  0  0  0  0  0  0  0  0  0  0  0
    5.5321    4.5670    0.0000 C   0  0  3  0  0  0  0  0  0  0  0  0
    2.0000    4.5878    0.0000 C   0  0  0  0  0  0  0  0  0  0  0  0
    2.0000    3.5462    0.0000 C   0  0  0  0  0  0  0  0  0  0  0  0
    6.3981    3.0670    0.0000 C   0  0  0  0  0  0  0  0  0  0  0  0
    6.3981    5.0670    0.0000 C   0  0  0  0  0  0  0  0  0  0  0  0
    6.3981    2.0670    0.0000 C   0  0  1  0  0  0  0  0  0  0  0  0
    7.2641    1.5670    0.0000 C   0  0  2  0  0  0  0  0  0  0  0  0
    7.2641    6.5670    0.0000 C   0  0  0  0  0  0  0  0  0  0  0  0
    8.1301    2.0670    0.0000 C   0  0  0  0  0  0  0  0  0  0  0  0
    8.1301    7.0670    0.0000 C   0  0  0  0  0  0  0  0  0  0  0  0
    6.7641    7.4330    0.0000 C   0  0  0  0  0  0  0  0  0  0  0  0
    7.7641    5.7010    0.0000 C   0  0  0  0  0  0  0  0  0  0  0  0
    8.9962    1.5670    0.0000 C   0  0  0  0  0  0  0  0  0  0  0  0
    6.3981    0.0670    0.0000 C   0  0  0  0  0  0  0  0  0  0  0  0
    8.9962    0.5670    0.0000 C   0  0  0  0  0  0  0  0  0  0  0  0
    9.8622    2.0670    0.0000 C   0  0  0  0  0  0  0  0  0  0  0  0
    6.3981   -0.9330    0.0000 C   0  0  0  0  0  0  0  0  0  0  0  0
    9.8622    0.0670    0.0000 C   0  0  0  0  0  0  0  0  0  0  0  0
   10.7282    1.5670    0.0000 C   0  0  0  0  0  0  0  0  0  0  0  0
    5.5321   -1.4330    0.0000 C   0  0  0  0  0  0  0  0  0  0  0  0
   10.7282    0.5670    0.0000 C   0  0  0  0  0  0  0  0  0  0  0  0
    7.2641   -1.4330    0.0000 C   0  0  0  0  0  0  0  0  0  0  0  0
    7.2641   -2.4330    0.0000 C   0  0  0  0  0  0  0  0  0  0  0  0
    5.5321   -2.4330    0.0000 C   0  0  0  0  0  0  0  0  0  0  0  0
    4.6660   -0.9330    0.0000 C   0  0  0  0  0  0  0  0  0  0  0  0
    6.3981   -2.9330    0.0000 C   0  0  0  0  0  0  0  0  0  0  0  0
    8.1301   -2.9330    0.0000 C   0  0  0  0  0  0  0  0  0  0  0  0
    8.9962   -4.4330    0.0000 C   0  0  0  0  0  0  0  0  0  0  0  0
    7.2641   -4.4330    0.0000 C   0  0  0  0  0  0  0  0  0  0  0  0
    8.9962   -5.4330    0.0000 C   0  0  0  0  0  0  0  0  0  0  0  0
    8.1301   -5.9330    0.0000 C   0  0  0  0  0  0  0  0  0  0  0  0
    9.8622   -5.9330    0.0000 C   0  0  0  0  0  0  0  0  0  0  0  0
    8.1301   -6.9330    0.0000 C   0  0  0  0  0  0  0  0  0  0  0  0
    9.8622   -6.9330    0.0000 C   0  0  0  0  0  0  0  0  0  0  0  0
    8.9962   -7.4330    0.0000 C   0  0  0  0  0  0  0  0  0  0  0  0
    3.8048    5.1870    0.0000 H   0  0  0  0  0  0  0  0  0  0  0  0
    3.8048    2.9470    0.0000 H   0  0  0  0  0  0  0  0  0  0  0  0
    5.0646    5.5419    0.0000 H   0  0  0  0  0  0  0  0  0  0  0  0
    4.2675    5.5419    0.0000 H   0  0  0  0  0  0  0  0  0  0  0  0
    4.2675    2.5920    0.0000 H   0  0  0  0  0  0  0  0  0  0  0  0
    5.0646    2.5920    0.0000 H   0  0  0  0  0  0  0  0  0  0  0  0
    3.3107    5.5714    0.0000 H   0  0  0  0  0  0  0  0  0  0  0  0
    2.5124    5.5807    0.0000 H   0  0  0  0  0  0  0  0  0  0  0  0
    2.5124    2.5533    0.0000 H   0  0  0  0  0  0  0  0  0  0  0  0
    3.3107    2.5625    0.0000 H   0  0  0  0  0  0  0  0  0  0  0  0
    6.0690    4.2570    0.0000 H   0  0  0  0  0  0  0  0  0  0  0  0
    1.7909    5.1715    0.0000 H   0  0  0  0  0  0  0  0  0  0  0  0
    1.3891    4.4817    0.0000 H   0  0  0  0  0  0  0  0  0  0  0  0
    1.3891    3.6523    0.0000 H   0  0  0  0  0  0  0  0  0  0  0  0
    1.7909    2.9625    0.0000 H   0  0  0  0  0  0  0  0  0  0  0  0
    7.0087    2.9593    0.0000 H   0  0  0  0  0  0  0  0  0  0  0  0
    6.6101    3.6496    0.0000 H   0  0  0  0  0  0  0  0  0  0  0  0
    6.3981    1.4470    0.0000 H   0  0  0  0  0  0  0  0  0  0  0  0
    7.8010    1.2570    0.0000 H   0  0  0  0  0  0  0  0  0  0  0  0
    5.8612    6.3770    0.0000 H   0  0  0  0  0  0  0  0  0  0  0  0
    8.5287    2.5419    0.0000 H   0  0  0  0  0  0  0  0  0  0  0  0
    7.7316    2.5419    0.0000 H   0  0  0  0  0  0  0  0  0  0  0  0
    4.9951    1.8770    0.0000 H   0  0  0  0  0  0  0  0  0  0  0  0
    7.8010    0.2570    0.0000 H   0  0  0  0  0  0  0  0  0  0  0  0
    8.4401    6.5300    0.0000 H   0  0  0  0  0  0  0  0  0  0  0  0
    8.6671    7.3770    0.0000 H   0  0  0  0  0  0  0  0  0  0  0  0
    7.8201    7.6039    0.0000 H   0  0  0  0  0  0  0  0  0  0  0  0
    7.3010    7.7430    0.0000 H   0  0  0  0  0  0  0  0  0  0  0  0
    6.4541    7.9700    0.0000 H   0  0  0  0  0  0  0  0  0  0  0  0
    6.2272    7.1230    0.0000 H   0  0  0  0  0  0  0  0  0  0  0  0
    7.2272    5.3910    0.0000 H   0  0  0  0  0  0  0  0  0  0  0  0
    8.0741    5.1640    0.0000 H   0  0  0  0  0  0  0  0  0  0  0  0
    8.3010    6.0110    0.0000 H   0  0  0  0  0  0  0  0  0  0  0  0
    8.4592    0.2570    0.0000 H   0  0  0  0  0  0  0  0  0  0  0  0
    9.8622    2.6870    0.0000 H   0  0  0  0  0  0  0  0  0  0  0  0
    9.8622   -0.5530    0.0000 H   0  0  0  0  0  0  0  0  0  0  0  0
   11.2651    1.8770    0.0000 H   0  0  0  0  0  0  0  0  0  0  0  0
   11.2651    0.2570    0.0000 H   0  0  0  0  0  0  0  0  0  0  0  0
    7.8010   -1.1230    0.0000 H   0  0  0  0  0  0  0  0  0  0  0  0
    4.9951   -2.7430    0.0000 H   0  0  0  0  0  0  0  0  0  0  0  0
    4.9760   -0.3961    0.0000 H   0  0  0  0  0  0  0  0  0  0  0  0
    4.1291   -0.6230    0.0000 H   0  0  0  0  0  0  0  0  0  0  0  0
    4.3560   -1.4700    0.0000 H   0  0  0  0  0  0  0  0  0  0  0  0
    6.3981   -3.5530    0.0000 H   0  0  0  0  0  0  0  0  0  0  0  0
    9.6067   -4.5407    0.0000 H   0  0  0  0  0  0  0  0  0  0  0  0
    9.2082   -3.8504    0.0000 H   0  0  0  0  0  0  0  0  0  0  0  0
    6.9541   -3.8961    0.0000 H   0  0  0  0  0  0  0  0  0  0  0  0
    6.7272   -4.7430    0.0000 H   0  0  0  0  0  0  0  0  0  0  0  0
    7.5741   -4.9700    0.0000 H   0  0  0  0  0  0  0  0  0  0  0  0
    7.5932   -5.6230    0.0000 H   0  0  0  0  0  0  0  0  0  0  0  0
   10.3991   -5.6230    0.0000 H   0  0  0  0  0  0  0  0  0  0  0  0
    7.5932   -7.2430    0.0000 H   0  0  0  0  0  0  0  0  0  0  0  0
   10.3991   -7.2430    0.0000 H   0  0  0  0  0  0  0  0  0  0  0  0
    8.9962   -8.0530    0.0000 H   0  0  0  0  0  0  0  0  0  0  0  0
  1 19  2  0  0  0  0
 20  2  1  1  0  0  0
  2 72  1  0  0  0  0
  3 28  2  0  0  0  0
  4 41  2  0  0  0  0
  5 12  1  0  0  0  0
  5 15  1  0  0  0  0
  5 18  1  0  0  0  0
  6 19  1  0  0  0  0
  6 22  1  0  0  0  0
  6 69  1  0  0  0  0
 21  7  1  6  0  0  0
  7 28  1  0  0  0  0
  7 73  1  0  0  0  0
  8 41  1  0  0  0  0
  8 42  1  0  0  0  0
  8 43  1  0  0  0  0
  9 10  1  0  0  0  0
  9 11  1  0  0  0  0
  9 13  1  0  0  0  0
  9 50  1  0  0  0  0
 10 12  1  0  0  0  0
 10 14  1  0  0  0  0
 10 51  1  0  0  0  0
 11 15  1  0  0  0  0
 11 52  1  0  0  0  0
 11 53  1  0  0  0  0
 12 54  1  0  0  0  0
 12 55  1  0  0  0  0
 13 16  1  0  0  0  0
 13 56  1  0  0  0  0
 13 57  1  0  0  0  0
 14 17  1  0  0  0  0
 14 58  1  0  0  0  0
 14 59  1  0  0  0  0
 15 19  1  0  0  0  0
 15 60  1  0  0  0  0
 16 17  1  0  0  0  0
 16 61  1  0  0  0  0
 16 62  1  0  0  0  0
 17 63  1  0  0  0  0
 17 64  1  0  0  0  0
 18 20  1  0  0  0  0
 18 65  1  0  0  0  0
 18 66  1  0  0  0  0
 20 21  1  0  0  0  0
 20 67  1  0  0  0  0
 21 23  1  0  0  0  0
 21 68  1  0  0  0  0
 22 24  1  0  0  0  0
 22 25  1  0  0  0  0
 22 26  1  0  0  0  0
 23 27  1  0  0  0  0
 23 70  1  0  0  0  0
 23 71  1  0  0  0  0
 24 74  1  0  0  0  0
 24 75  1  0  0  0  0
 24 76  1  0  0  0  0
 25 77  1  0  0  0  0
 25 78  1  0  0  0  0
 25 79  1  0  0  0  0
 26 80  1  0  0  0  0
 26 81  1  0  0  0  0
 26 82  1  0  0  0  0
 27 29  2  0  0  0  0
 27 30  1  0  0  0  0
 28 31  1  0  0  0  0
 29 32  1  0  0  0  0
 29 83  1  0  0  0  0
 30 33  2  0  0  0  0
 30 84  1  0  0  0  0
 31 34  2  0  0  0  0
 31 36  1  0  0  0  0
 32 35  2  0  0  0  0
 32 85  1  0  0  0  0
 33 35  1  0  0  0  0
 33 86  1  0  0  0  0
 34 38  1  0  0  0  0
 34 39  1  0  0  0  0
 35 87  1  0  0  0  0
 36 37  2  0  0  0  0
 36 88  1  0  0  0  0
 37 40  1  0  0  0  0
 37 41  1  0  0  0  0
 38 40  2  0  0  0  0
 38 89  1  0  0  0  0
 39 90  1  0  0  0  0
 39 91  1  0  0  0  0
 39 92  1  0  0  0  0
 40 93  1  0  0  0  0
 42 44  1  0  0  0  0
 42 94  1  0  0  0  0
 42 95  1  0  0  0  0
 43 96  1  0  0  0  0
 43 97  1  0  0  0  0
 43 98  1  0  0  0  0
 44 45  2  0  0  0  0
 44 46  1  0  0  0  0
 45 47  1  0  0  0  0
 45 99  1  0  0  0  0
 46 48  2  0  0  0  0
 46100  1  0  0  0  0
 47 49  2  0  0  0  0
 47101  1  0  0  0  0
 48 49  1  0  0  0  0
 48102  1  0  0  0  0
 49103  1  0  0  0  0
M  END
> <PUBCHEM_COMPOUND_CID>
508210
> <PUBCHEM_COMPOUND_CANONICALIZED>
1
> <PUBCHEM_CACTVS_COMPLEXITY>
1080
> <PUBCHEM_CACTVS_HBOND_ACCEPTOR>
5
> <PUBCHEM_CACTVS_HBOND_DONOR>
3
> <PUBCHEM_CACTVS_ROTATABLE_BOND>
12
> <PUBCHEM_CACTVS_SUBSKEYS>
AAADcfB/uAAAAAAAAAAAAAAAAAAAAAAAAAA8YMGCAAAAAACxUAAAHgAQCAAADbzhmAYyAIPAAgCIAiFSEACCAAAkAAAIiIGIBMgKcDKA1TGUYQhklgCYiYeYy+COwAACAAAQAACAAAQAACAAAAAAAAAAAA==
> <PUBCHEM_IUPAC_OPENEYE_NAME>
N1-benzyl-N3-[(1S,2S)-1-benzyl-3-[3-(tert-butylcarbamoyl)-3,4,4a,5,6,7,8,8a-octahydro-1H-isoquinolin-2-yl]-2-hydroxy-propyl]-N1,4-dimethyl-benzene-1,3-dicarboxamide
> <PUBCHEM_IUPAC_CAS_NAME>
N3-[(2S,3S)-4-[3-[(tert-butylamino)-oxomethyl]-3,4,4a,5,6,7,8,8a-octahydro-1H-isoquinolin-2-yl]-3-hydroxy-1-phenylbutan-2-yl]-N1,4-dimethyl-N1-(phenylmethyl)benzene-1,3-dicarboxamide
> <PUBCHEM_IUPAC_NAME_MARKUP>
1-<I>N</I>-benzyl-3-<I>N</I>-[(2<I>S</I>,3<I>S</I>)-4-[3-(<I>tert</I>-butylcarbamoyl)-3,4,4<I>a</I>,5,6,7,8,8<I>a</I>-octahydro-1<I>H</I>-isoquinolin-2-yl]-3-hydroxy-1-phenylbutan-2-yl]-1-<I>N</I>,4-dimethylbenzene-1,3-dicarboxamide
> <PUBCHEM_IUPAC_NAME>
1-N-benzyl-3-N-[(2S,3S)-4-[3-(tert-butylcarbamoyl)-3,4,4a,5,6,7,8,8a-octahydro-1H-isoquinolin-2-yl]-3-hydroxy-1-phenylbutan-2-yl]-1-N,4-dimethylbenzene-1,3-dicarboxamide
> <PUBCHEM_IUPAC_SYSTEMATIC_NAME>
N3-[(2S,3S)-4-[3-(tert-butylcarbamoyl)-3,4,4a,5,6,7,8,8a-octahydro-1H-isoquinolin-2-yl]-3-oxidanyl-1-phenyl-butan-2-yl]-N1,4-dimethyl-N1-(phenylmethyl)benzene-1,3-dicarboxamide
> <PUBCHEM_IUPAC_TRADITIONAL_NAME>
N-benzyl-N'-[(1S,2S)-1-benzyl-3-[3-(tert-butylcarbamoyl)-3,4,4a,5,6,7,8,8a-octahydro-1H-isoquinolin-2-yl]-2-hydroxy-propyl]-N,4-dimethyl-isophthalamide
> <PUBCHEM_IUPAC_INCHI>
InChI=1S/C41H54N4O4/c1-28-20-21-32(40(49)44(5)25-30-16-10-7-11-17-30)23-34(28)38(47)42-35(22-29-14-8-6-9-15-29)37(46)27-45-26-33-19-13-12-18-31(33)24-36(45)39(48)43-41(2,3)4/h6-11,14-17,20-21,23,31,33,35-37,46H,12-13,18-19,22,24-27H2,1-5H3,(H,42,47)(H,43,48)/t31?,33?,35-,36?,37-/m0/s1
> <PUBCHEM_IUPAC_INCHIKEY>
VOJRPYRTFSBDSQ-WWCGGGCISA-N
> <PUBCHEM_XLOGP3_AA>
6.7
> <PUBCHEM_EXACT_MASS>
666.41450622
> <PUBCHEM_MOLECULAR_FORMULA>
C41H54N4O4
> <PUBCHEM_MOLECULAR_WEIGHT>
666.9
> <PUBCHEM_OPENEYE_CAN_SMILES>
CC1=C(C=C(C=C1)C(=O)N(C)CC2=CC=CC=C2)C(=O)NC(CC3=CC=CC=C3)C(CN4CC5CCCCC5CC4C(=O)NC(C)(C)C)O
> <PUBCHEM_OPENEYE_ISO_SMILES>
CC1=C(C=C(C=C1)C(=O)N(C)CC2=CC=CC=C2)C(=O)N[C@@H](CC3=CC=CC=C3)[C@H](CN4CC5CCCCC5CC4C(=O)NC(C)(C)C)O
> <PUBCHEM_CACTVS_TPSA>
102
> <PUBCHEM_MONOISOTOPIC_WEIGHT>
666.41450622
> <PUBCHEM_TOTAL_CHARGE>
0
> <PUBCHEM_HEAVY_ATOM_COUNT>
49
> <PUBCHEM_ATOM_DEF_STEREO_COUNT>
2
> <PUBCHEM_ATOM_UDEF_STEREO_COUNT>
3
> <PUBCHEM_BOND_DEF_STEREO_COUNT>
0
> <PUBCHEM_BOND_UDEF_STEREO_COUNT>
0
> <PUBCHEM_ISOTOPIC_ATOM_COUNT>
0
> <PUBCHEM_COMPONENT_COUNT>
1
> <PUBCHEM_CACTVS_TAUTO_COUNT>
-1
> <PUBCHEM_COORDINATE_TYPE>
1
5
255
> <PUBCHEM_BONDANNOTATIONS>
10  14  3
15  19  3
20  2  5
27  29  8
27  30  8
29  32  8
30  33  8
31  34  8
31  36  8
32  35  8
33  35  8
34  38  8
36  37  8
37  40  8
38  40  8
44  45  8
44  46  8
45  47  8
46  48  8
47  49  8
48  49  8
21  7  6
9  13  3
$$$$
