508297
  -OEChem-10302200282D
 79 82  0     1  0  0  0  0  0999 V2000
    8.9282   -1.2500    0.0000 S   0  0  0  0  0  0  0  0  0  0  0  0
    6.3301   -2.7500    0.0000 O   0  0  0  0  0  0  0  0  0  0  0  0
    8.4282   -0.3840    0.0000 O   0  0  0  0  0  0  0  0  0  0  0  0
    9.4282   -2.1160    0.0000 O   0  0  0  0  0  0  0  0  0  0  0  0
    6.3301    1.2500    0.0000 O   0  0  0  0  0  0  0  0  0  0  0  0
    7.1962   -0.2500    0.0000 O   0  0  0  0  0  0  0  0  0  0  0  0
    8.0622   -1.7500    0.0000 N   0  0  3  0  0  0  0  0  0  0  0  0
    5.4641   -0.2500    0.0000 N   0  0  0  0  0  0  0  0  0  0  0  0
    6.3301   -1.7500    0.0000 C   0  0  2  0  0  0  0  0  0  0  0  0
    7.1962   -1.2500    0.0000 C   0  0  0  0  0  0  0  0  0  0  0  0
    5.4641   -1.2500    0.0000 C   0  0  2  0  0  0  0  0  0  0  0  0
    8.0622   -2.7500    0.0000 C   0  0  0  0  0  0  0  0  0  0  0  0
    7.1962   -3.2500    0.0000 C   0  0  0  0  0  0  0  0  0  0  0  0
    7.1962   -4.2500    0.0000 C   0  0  0  0  0  0  0  0  0  0  0  0
    4.5981   -1.7500    0.0000 C   0  0  0  0  0  0  0  0  0  0  0  0
    9.7942   -0.7500    0.0000 C   0  0  0  0  0  0  0  0  0  0  0  0
    3.7320   -1.2500    0.0000 C   0  0  0  0  0  0  0  0  0  0  0  0
    8.0622   -4.7500    0.0000 C   0  0  0  0  0  0  0  0  0  0  0  0
    6.3301   -4.7500    0.0000 C   0  0  0  0  0  0  0  0  0  0  0  0
   10.6603   -1.2500    0.0000 C   0  0  0  0  0  0  0  0  0  0  0  0
    9.7942    0.2500    0.0000 C   0  0  0  0  0  0  0  0  0  0  0  0
    6.3301    0.2500    0.0000 C   0  0  0  0  0  0  0  0  0  0  0  0
   11.5263   -0.7500    0.0000 C   0  0  0  0  0  0  0  0  0  0  0  0
    3.7320   -0.2500    0.0000 C   0  0  0  0  0  0  0  0  0  0  0  0
    2.8660   -1.7500    0.0000 C   0  0  0  0  0  0  0  0  0  0  0  0
   11.5263    0.2500    0.0000 C   0  0  0  0  0  0  0  0  0  0  0  0
   10.6603    0.7500    0.0000 C   0  0  0  0  0  0  0  0  0  0  0  0
    2.8660    0.2500    0.0000 C   0  0  0  0  0  0  0  0  0  0  0  0
    2.0000   -1.2500    0.0000 C   0  0  0  0  0  0  0  0  0  0  0  0
   12.4202   -1.2847    0.0000 C   0  0  0  0  0  0  0  0  0  0  0  0
   12.4202    0.7847    0.0000 C   0  0  0  0  0  0  0  0  0  0  0  0
    2.0000   -0.2500    0.0000 C   0  0  0  0  0  0  0  0  0  0  0  0
   13.3263   -0.7708    0.0000 C   0  0  0  0  0  0  0  0  0  0  0  0
   13.3263    0.2708    0.0000 C   0  0  0  0  0  0  0  0  0  0  0  0
    7.1962    1.7500    0.0000 C   0  0  0  0  0  0  0  0  0  0  0  0
    7.1962    2.7500    0.0000 C   0  0  0  0  0  0  0  0  0  0  0  0
    8.0622    3.2500    0.0000 C   0  0  0  0  0  0  0  0  0  0  0  0
    6.3301    3.2500    0.0000 C   0  0  0  0  0  0  0  0  0  0  0  0
    8.0622    4.2500    0.0000 C   0  0  0  0  0  0  0  0  0  0  0  0
    6.3301    4.2500    0.0000 C   0  0  0  0  0  0  0  0  0  0  0  0
    7.1962    4.7500    0.0000 C   0  0  0  0  0  0  0  0  0  0  0  0
    6.8671   -2.0600    0.0000 H   0  0  0  0  0  0  0  0  0  0  0  0
    7.5947   -0.7751    0.0000 H   0  0  0  0  0  0  0  0  0  0  0  0
    6.7976   -0.7751    0.0000 H   0  0  0  0  0  0  0  0  0  0  0  0
    6.0010   -0.9400    0.0000 H   0  0  0  0  0  0  0  0  0  0  0  0
    8.2742   -3.3326    0.0000 H   0  0  0  0  0  0  0  0  0  0  0  0
    8.6728   -2.6423    0.0000 H   0  0  0  0  0  0  0  0  0  0  0  0
    6.9841   -2.6674    0.0000 H   0  0  0  0  0  0  0  0  0  0  0  0
    6.5856   -3.3577    0.0000 H   0  0  0  0  0  0  0  0  0  0  0  0
    6.6592   -3.9400    0.0000 H   0  0  0  0  0  0  0  0  0  0  0  0
    4.1996   -2.2250    0.0000 H   0  0  0  0  0  0  0  0  0  0  0  0
    4.9966   -2.2250    0.0000 H   0  0  0  0  0  0  0  0  0  0  0  0
    4.9272    0.0600    0.0000 H   0  0  0  0  0  0  0  0  0  0  0  0
    7.7522   -5.2869    0.0000 H   0  0  0  0  0  0  0  0  0  0  0  0
    8.5991   -5.0600    0.0000 H   0  0  0  0  0  0  0  0  0  0  0  0
    8.3722   -4.2131    0.0000 H   0  0  0  0  0  0  0  0  0  0  0  0
    6.0201   -4.2131    0.0000 H   0  0  0  0  0  0  0  0  0  0  0  0
    5.7932   -5.0600    0.0000 H   0  0  0  0  0  0  0  0  0  0  0  0
    6.6401   -5.2869    0.0000 H   0  0  0  0  0  0  0  0  0  0  0  0
    5.7932   -3.0600    0.0000 H   0  0  0  0  0  0  0  0  0  0  0  0
   10.6603   -1.8700    0.0000 H   0  0  0  0  0  0  0  0  0  0  0  0
    9.2573    0.5600    0.0000 H   0  0  0  0  0  0  0  0  0  0  0  0
    4.2690    0.0600    0.0000 H   0  0  0  0  0  0  0  0  0  0  0  0
    2.8660   -2.3700    0.0000 H   0  0  0  0  0  0  0  0  0  0  0  0
   10.6603    1.3700    0.0000 H   0  0  0  0  0  0  0  0  0  0  0  0
    2.8660    0.8700    0.0000 H   0  0  0  0  0  0  0  0  0  0  0  0
    1.4631   -1.5600    0.0000 H   0  0  0  0  0  0  0  0  0  0  0  0
   12.4131   -1.9046    0.0000 H   0  0  0  0  0  0  0  0  0  0  0  0
   12.4131    1.4046    0.0000 H   0  0  0  0  0  0  0  0  0  0  0  0
    1.4631    0.0600    0.0000 H   0  0  0  0  0  0  0  0  0  0  0  0
   13.8620   -1.0829    0.0000 H   0  0  0  0  0  0  0  0  0  0  0  0
   13.8620    0.5829    0.0000 H   0  0  0  0  0  0  0  0  0  0  0  0
    7.4082    1.1674    0.0000 H   0  0  0  0  0  0  0  0  0  0  0  0
    7.8067    1.8577    0.0000 H   0  0  0  0  0  0  0  0  0  0  0  0
    8.5991    2.9400    0.0000 H   0  0  0  0  0  0  0  0  0  0  0  0
    5.7932    2.9400    0.0000 H   0  0  0  0  0  0  0  0  0  0  0  0
    8.5991    4.5600    0.0000 H   0  0  0  0  0  0  0  0  0  0  0  0
    5.7932    4.5600    0.0000 H   0  0  0  0  0  0  0  0  0  0  0  0
    7.1962    5.3700    0.0000 H   0  0  0  0  0  0  0  0  0  0  0  0
  1  3  2  0  0  0  0
  1  4  2  0  0  0  0
  1  7  1  0  0  0  0
  1 16  1  0  0  0  0
  9  2  1  1  0  0  0
  2 60  1  0  0  0  0
  5 22  1  0  0  0  0
  5 35  1  0  0  0  0
  6 22  2  0  0  0  0
  7 10  1  0  0  0  0
  7 12  1  0  0  0  0
 11  8  1  6  0  0  0
  8 22  1  0  0  0  0
  8 53  1  0  0  0  0
  9 10  1  0  0  0  0
  9 11  1  0  0  0  0
  9 42  1  0  0  0  0
 10 43  1  0  0  0  0
 10 44  1  0  0  0  0
 11 15  1  0  0  0  0
 11 45  1  0  0  0  0
 12 13  1  0  0  0  0
 12 46  1  0  0  0  0
 12 47  1  0  0  0  0
 13 14  1  0  0  0  0
 13 48  1  0  0  0  0
 13 49  1  0  0  0  0
 14 18  1  0  0  0  0
 14 19  1  0  0  0  0
 14 50  1  0  0  0  0
 15 17  1  0  0  0  0
 15 51  1  0  0  0  0
 15 52  1  0  0  0  0
 16 20  2  0  0  0  0
 16 21  1  0  0  0  0
 17 24  2  0  0  0  0
 17 25  1  0  0  0  0
 18 54  1  0  0  0  0
 18 55  1  0  0  0  0
 18 56  1  0  0  0  0
 19 57  1  0  0  0  0
 19 58  1  0  0  0  0
 19 59  1  0  0  0  0
 20 23  1  0  0  0  0
 20 61  1  0  0  0  0
 21 27  2  0  0  0  0
 21 62  1  0  0  0  0
 23 26  1  0  0  0  0
 23 30  2  0  0  0  0
 24 28  1  0  0  0  0
 24 63  1  0  0  0  0
 25 29  2  0  0  0  0
 25 64  1  0  0  0  0
 26 27  1  0  0  0  0
 26 31  2  0  0  0  0
 27 65  1  0  0  0  0
 28 32  2  0  0  0  0
 28 66  1  0  0  0  0
 29 32  1  0  0  0  0
 29 67  1  0  0  0  0
 30 33  1  0  0  0  0
 30 68  1  0  0  0  0
 31 34  1  0  0  0  0
 31 69  1  0  0  0  0
 32 70  1  0  0  0  0
 33 34  2  0  0  0  0
 33 71  1  0  0  0  0
 34 72  1  0  0  0  0
 35 36  1  0  0  0  0
 35 73  1  0  0  0  0
 35 74  1  0  0  0  0
 36 37  2  0  0  0  0
 36 38  1  0  0  0  0
 37 39  1  0  0  0  0
 37 75  1  0  0  0  0
 38 40  2  0  0  0  0
 38 76  1  0  0  0  0
 39 41  2  0  0  0  0
 39 77  1  0  0  0  0
 40 41  1  0  0  0  0
 40 78  1  0  0  0  0
 41 79  1  0  0  0  0
M  END
> <PUBCHEM_COMPOUND_CID>
508297
> <PUBCHEM_COMPOUND_CANONICALIZED>
1
> <PUBCHEM_CACTVS_COMPLEXITY>
879
> <PUBCHEM_CACTVS_HBOND_ACCEPTOR>
6
> <PUBCHEM_CACTVS_HBOND_DONOR>
2
> <PUBCHEM_CACTVS_ROTATABLE_BOND>
14
> <PUBCHEM_CACTVS_SUBSKEYS>
AAADcfB/OABAAAAAAAAAAAAAAAAAAAAAAAAwYMGAAAAAAADBVAAAHgQQSAAADTzh2AYyCcLABgKIAiBCGHBCABAgAAAIiJgICIkKNiKA8RmMcAAk1gGYqAeQwKAOkAAAgAAQAAAgAAEAACAAAAAAAAAAAA==
> <PUBCHEM_IUPAC_OPENEYE_NAME>
benzyl N-[(1S,2R)-1-benzyl-2-hydroxy-3-[isopentyl(2-naphthylsulfonyl)amino]propyl]carbamate
> <PUBCHEM_IUPAC_CAS_NAME>
N-[(2S,3R)-3-hydroxy-4-[3-methylbutyl(2-naphthalenylsulfonyl)amino]-1-phenylbutan-2-yl]carbamic acid (phenylmethyl) ester
> <PUBCHEM_IUPAC_NAME_MARKUP>
benzyl <I>N</I>-[(2<I>S</I>,3<I>R</I>)-3-hydroxy-4-[3-methylbutyl(naphthalen-2-ylsulfonyl)amino]-1-phenylbutan-2-yl]carbamate
> <PUBCHEM_IUPAC_NAME>
benzyl N-[(2S,3R)-3-hydroxy-4-[3-methylbutyl(naphthalen-2-ylsulfonyl)amino]-1-phenylbutan-2-yl]carbamate
> <PUBCHEM_IUPAC_SYSTEMATIC_NAME>
(phenylmethyl) N-[(2S,3R)-4-[3-methylbutyl(naphthalen-2-ylsulfonyl)amino]-3-oxidanyl-1-phenyl-butan-2-yl]carbamate
> <PUBCHEM_IUPAC_TRADITIONAL_NAME>
N-[(1S,2R)-1-benzyl-2-hydroxy-3-[isoamyl(2-naphthylsulfonyl)amino]propyl]carbamic acid benzyl ester
> <PUBCHEM_IUPAC_INCHI>
InChI=1S/C33H38N2O5S/c1-25(2)19-20-35(41(38,39)30-18-17-28-15-9-10-16-29(28)22-30)23-32(36)31(21-26-11-5-3-6-12-26)34-33(37)40-24-27-13-7-4-8-14-27/h3-18,22,25,31-32,36H,19-21,23-24H2,1-2H3,(H,34,37)/t31-,32+/m0/s1
> <PUBCHEM_IUPAC_INCHIKEY>
IOXKACVRGIDBIU-AJQTZOPKSA-N
> <PUBCHEM_XLOGP3_AA>
6.6
> <PUBCHEM_EXACT_MASS>
574.25014349
> <PUBCHEM_MOLECULAR_FORMULA>
C33H38N2O5S
> <PUBCHEM_MOLECULAR_WEIGHT>
574.7
> <PUBCHEM_OPENEYE_CAN_SMILES>
CC(C)CCN(CC(C(CC1=CC=CC=C1)NC(=O)OCC2=CC=CC=C2)O)S(=O)(=O)C3=CC4=CC=CC=C4C=C3
> <PUBCHEM_OPENEYE_ISO_SMILES>
CC(C)CCN(C[C@H]([C@H](CC1=CC=CC=C1)NC(=O)OCC2=CC=CC=C2)O)S(=O)(=O)C3=CC4=CC=CC=C4C=C3
> <PUBCHEM_CACTVS_TPSA>
104
> <PUBCHEM_MONOISOTOPIC_WEIGHT>
574.25014349
> <PUBCHEM_TOTAL_CHARGE>
0
> <PUBCHEM_HEAVY_ATOM_COUNT>
41
> <PUBCHEM_ATOM_DEF_STEREO_COUNT>
2
> <PUBCHEM_ATOM_UDEF_STEREO_COUNT>
0
> <PUBCHEM_BOND_DEF_STEREO_COUNT>
0
> <PUBCHEM_BOND_UDEF_STEREO_COUNT>
0
> <PUBCHEM_ISOTOPIC_ATOM_COUNT>
0
> <PUBCHEM_COMPONENT_COUNT>
1
> <PUBCHEM_CACTVS_TAUTO_COUNT>
-1
> <PUBCHEM_COORDINATE_TYPE>
1
5
255
> <PUBCHEM_BONDANNOTATIONS>
16  20  8
16  21  8
17  24  8
17  25  8
9  2  5
20  23  8
21  27  8
23  26  8
23  30  8
24  28  8
25  29  8
26  27  8
26  31  8
28  32  8
29  32  8
30  33  8
31  34  8
33  34  8
36  37  8
36  38  8
37  39  8
38  40  8
39  41  8
40  41  8
11  8  6
$$$$
