508212
  -OEChem-10302200282D
 48 50  0     1  0  0  0  0  0999 V2000
    4.5411    2.5403    0.0000 O   0  0  0  0  0  0  0  0  0  0  0  0
    4.4131   -0.1333    0.0000 O   0  0  0  0  0  0  0  0  0  0  0  0
    5.4641    4.1281    0.0000 O   0  0  0  0  0  0  0  0  0  0  0  0
    3.7320    7.1281    0.0000 O   0  0  0  0  0  0  0  0  0  0  0  0
    5.9954   -0.8378    0.0000 O   0  0  0  0  0  0  0  0  0  0  0  0
    6.3575   -4.2829    0.0000 O   0  0  0  0  0  0  0  0  0  0  0  0
    3.7320    4.1281    0.0000 N   0  0  0  0  0  0  0  0  0  0  0  0
    4.5981    5.6281    0.0000 N   0  0  0  0  0  0  0  0  0  0  0  0
    5.1819   -2.6649    0.0000 N   0  0  0  0  0  0  0  0  0  0  0  0
    4.7752   -3.5784    0.0000 N   0  0  0  0  0  0  0  0  0  0  0  0
    4.1428   -7.1281    0.0000 N   0  0  0  0  0  0  0  0  0  0  0  0
    3.7320    3.1281    0.0000 C   0  0  1  0  0  0  0  0  0  0  0  0
    4.2320    1.5892    0.0000 C   0  0  1  0  0  0  0  0  0  0  0  0
    2.9230    2.5403    0.0000 C   0  0  0  0  0  0  0  0  0  0  0  0
    3.2320    1.5892    0.0000 C   0  0  0  0  0  0  0  0  0  0  0  0
    4.8198    0.7802    0.0000 C   0  0  0  0  0  0  0  0  0  0  0  0
    2.8660    4.6281    0.0000 C   0  0  0  0  0  0  0  0  0  0  0  0
    4.5981    4.6281    0.0000 C   0  0  0  0  0  0  0  0  0  0  0  0
    2.8660    5.6281    0.0000 C   0  0  0  0  0  0  0  0  0  0  0  0
    3.7320    6.1281    0.0000 C   0  0  0  0  0  0  0  0  0  0  0  0
    2.0000    6.1281    0.0000 C   0  0  0  0  0  0  0  0  0  0  0  0
    5.0009   -0.9423    0.0000 C   0  0  0  0  0  0  0  0  0  0  0  0
    4.5942   -1.8559    0.0000 C   0  0  0  0  0  0  0  0  0  0  0  0
    5.3630   -4.3874    0.0000 C   0  0  0  0  0  0  0  0  0  0  0  0
    4.9562   -5.3010    0.0000 C   0  0  0  0  0  0  0  0  0  0  0  0
    5.5440   -6.1100    0.0000 C   0  0  0  0  0  0  0  0  0  0  0  0
    3.9617   -5.4055    0.0000 C   0  0  0  0  0  0  0  0  0  0  0  0
    5.1373   -7.0236    0.0000 C   0  0  0  0  0  0  0  0  0  0  0  0
    3.5550   -6.3191    0.0000 C   0  0  0  0  0  0  0  0  0  0  0  0
    4.2845    3.4096    0.0000 H   0  0  0  0  0  0  0  0  0  0  0  0
    4.8444    1.6862    0.0000 H   0  0  0  0  0  0  0  0  0  0  0  0
    2.3334    2.7319    0.0000 H   0  0  0  0  0  0  0  0  0  0  0  0
    2.8676    1.0877    0.0000 H   0  0  0  0  0  0  0  0  0  0  0  0
    5.3338    0.4335    0.0000 H   0  0  0  0  0  0  0  0  0  0  0  0
    5.2505    1.2262    0.0000 H   0  0  0  0  0  0  0  0  0  0  0  0
    2.3291    4.3181    0.0000 H   0  0  0  0  0  0  0  0  0  0  0  0
    5.1350    5.9381    0.0000 H   0  0  0  0  0  0  0  0  0  0  0  0
    2.3100    6.6650    0.0000 H   0  0  0  0  0  0  0  0  0  0  0  0
    1.4631    6.4381    0.0000 H   0  0  0  0  0  0  0  0  0  0  0  0
    1.6900    5.5912    0.0000 H   0  0  0  0  0  0  0  0  0  0  0  0
    4.0801   -1.5092    0.0000 H   0  0  0  0  0  0  0  0  0  0  0  0
    4.1635   -2.3019    0.0000 H   0  0  0  0  0  0  0  0  0  0  0  0
    5.7985   -2.6001    0.0000 H   0  0  0  0  0  0  0  0  0  0  0  0
    4.1586   -3.6432    0.0000 H   0  0  0  0  0  0  0  0  0  0  0  0
    6.1606   -6.0452    0.0000 H   0  0  0  0  0  0  0  0  0  0  0  0
    3.5973   -4.9039    0.0000 H   0  0  0  0  0  0  0  0  0  0  0  0
    5.5017   -7.5252    0.0000 H   0  0  0  0  0  0  0  0  0  0  0  0
    2.9384   -6.3839    0.0000 H   0  0  0  0  0  0  0  0  0  0  0  0
  1 12  1  0  0  0  0
  1 13  1  0  0  0  0
  2 16  1  0  0  0  0
  2 22  1  0  0  0  0
  3 18  2  0  0  0  0
  4 20  2  0  0  0  0
  5 22  2  0  0  0  0
  6 24  2  0  0  0  0
 12  7  1  6  0  0  0
  7 17  1  0  0  0  0
  7 18  1  0  0  0  0
  8 18  1  0  0  0  0
  8 20  1  0  0  0  0
  8 37  1  0  0  0  0
  9 10  1  0  0  0  0
  9 23  1  0  0  0  0
  9 43  1  0  0  0  0
 10 24  1  0  0  0  0
 10 44  1  0  0  0  0
 11 28  2  0  0  0  0
 11 29  1  0  0  0  0
 12 14  1  0  0  0  0
 12 30  1  0  0  0  0
 13 15  1  0  0  0  0
 13 16  1  6  0  0  0
 13 31  1  0  0  0  0
 14 15  2  0  0  0  0
 14 32  1  0  0  0  0
 15 33  1  0  0  0  0
 16 34  1  0  0  0  0
 16 35  1  0  0  0  0
 17 19  2  0  0  0  0
 17 36  1  0  0  0  0
 19 20  1  0  0  0  0
 19 21  1  0  0  0  0
 21 38  1  0  0  0  0
 21 39  1  0  0  0  0
 21 40  1  0  0  0  0
 22 23  1  0  0  0  0
 23 41  1  0  0  0  0
 23 42  1  0  0  0  0
 24 25  1  0  0  0  0
 25 26  2  0  0  0  0
 25 27  1  0  0  0  0
 26 28  1  0  0  0  0
 26 45  1  0  0  0  0
 27 29  2  0  0  0  0
 27 46  1  0  0  0  0
 28 47  1  0  0  0  0
 29 48  1  0  0  0  0
M  END
> <PUBCHEM_COMPOUND_CID>
508212
> <PUBCHEM_COMPOUND_CANONICALIZED>
1
> <PUBCHEM_CACTVS_COMPLEXITY>
730
> <PUBCHEM_CACTVS_HBOND_ACCEPTOR>
8
> <PUBCHEM_CACTVS_HBOND_DONOR>
3
> <PUBCHEM_CACTVS_ROTATABLE_BOND>
8
> <PUBCHEM_CACTVS_SUBSKEYS>
AAADceB7uAAAAAAAAAAAAAAAAAAAAQAAAAAsQAAAAAAAAAABgAAAHgAYAAAADBThmgY/iJPqFACoAjH3XACCgCA1AiIa+KG4ZNiLJHLAtZGPMQhoxyLK6cYUAAAKAAAAAAAAAAAAAAAAAAAAAAAAAAAAAA==
> <PUBCHEM_IUPAC_OPENEYE_NAME>
[(2S,5R)-5-(5-methyl-2,4-dioxo-pyrimidin-1-yl)-2,5-dihydrofuran-2-yl]methyl 2-[2-(pyridine-4-carbonyl)hydrazino]acetate
> <PUBCHEM_IUPAC_CAS_NAME>
2-[[oxo(pyridin-4-yl)methyl]hydrazo]acetic acid [(2S,5R)-5-(5-methyl-2,4-dioxo-1-pyrimidinyl)-2,5-dihydrofuran-2-yl]methyl ester
> <PUBCHEM_IUPAC_NAME_MARKUP>
[(2<I>S</I>,5<I>R</I>)-5-(5-methyl-2,4-dioxopyrimidin-1-yl)-2,5-dihydrofuran-2-yl]methyl 2-[2-(pyridine-4-carbonyl)hydrazinyl]acetate
> <PUBCHEM_IUPAC_NAME>
[(2S,5R)-5-(5-methyl-2,4-dioxopyrimidin-1-yl)-2,5-dihydrofuran-2-yl]methyl 2-[2-(pyridine-4-carbonyl)hydrazinyl]acetate
> <PUBCHEM_IUPAC_SYSTEMATIC_NAME>
[(2S,5R)-5-[5-methyl-2,4-bis(oxidanylidene)pyrimidin-1-yl]-2,5-dihydrofuran-2-yl]methyl 2-(2-pyridin-4-ylcarbonylhydrazinyl)ethanoate
> <PUBCHEM_IUPAC_TRADITIONAL_NAME>
2-(N'-isonicotinoylhydrazino)acetic acid [(2S,5R)-5-(2,4-diketo-5-methyl-pyrimidin-1-yl)-2,5-dihydrofuran-2-yl]methyl ester
> <PUBCHEM_IUPAC_INCHI>
InChI=1S/C18H19N5O6/c1-11-9-23(18(27)21-16(11)25)14-3-2-13(29-14)10-28-15(24)8-20-22-17(26)12-4-6-19-7-5-12/h2-7,9,13-14,20H,8,10H2,1H3,(H,22,26)(H,21,25,27)/t13-,14+/m0/s1
> <PUBCHEM_IUPAC_INCHIKEY>
CSAAOMBCPFCSFJ-UONOGXRCSA-N
> <PUBCHEM_XLOGP3>
-0.5
> <PUBCHEM_EXACT_MASS>
401.13353334
> <PUBCHEM_MOLECULAR_FORMULA>
C18H19N5O6
> <PUBCHEM_MOLECULAR_WEIGHT>
401.4
> <PUBCHEM_OPENEYE_CAN_SMILES>
CC1=CN(C(=O)NC1=O)C2C=CC(O2)COC(=O)CNNC(=O)C3=CC=NC=C3
> <PUBCHEM_OPENEYE_ISO_SMILES>
CC1=CN(C(=O)NC1=O)[C@H]2C=C[C@H](O2)COC(=O)CNNC(=O)C3=CC=NC=C3
> <PUBCHEM_CACTVS_TPSA>
139
> <PUBCHEM_MONOISOTOPIC_WEIGHT>
401.13353334
> <PUBCHEM_TOTAL_CHARGE>
0
> <PUBCHEM_HEAVY_ATOM_COUNT>
29
> <PUBCHEM_ATOM_DEF_STEREO_COUNT>
2
> <PUBCHEM_ATOM_UDEF_STEREO_COUNT>
0
> <PUBCHEM_BOND_DEF_STEREO_COUNT>
0
> <PUBCHEM_BOND_UDEF_STEREO_COUNT>
0
> <PUBCHEM_ISOTOPIC_ATOM_COUNT>
0
> <PUBCHEM_COMPONENT_COUNT>
1
> <PUBCHEM_CACTVS_TAUTO_COUNT>
-1
> <PUBCHEM_COORDINATE_TYPE>
1
5
255
> <PUBCHEM_BONDANNOTATIONS>
11  28  8
11  29  8
13  16  6
17  19  8
19  20  8
25  26  8
25  27  8
26  28  8
27  29  8
12  7  6
7  17  8
7  18  8
8  18  8
8  20  8
$$$$
