508282
  -OEChem-10302200282D
 79 81  0     1  0  0  0  0  0999 V2000
    4.5981   -2.6830    0.0000 S   0  0  0  0  0  0  0  0  0  0  0  0
    4.5981    6.3170    0.0000 S   0  0  0  0  0  0  0  0  0  0  0  0
    4.5981    0.3170    0.0000 O   0  0  0  0  0  0  0  0  0  0  0  0
    5.5981   -2.6830    0.0000 O   0  0  0  0  0  0  0  0  0  0  0  0
    3.5981   -2.6830    0.0000 O   0  0  0  0  0  0  0  0  0  0  0  0
    4.5981    1.3170    0.0000 O   0  0  0  0  0  0  0  0  0  0  0  0
    4.5981   -6.6830    0.0000 O   0  0  0  0  0  0  0  0  0  0  0  0
    5.0981    7.1830    0.0000 O   0  0  0  0  0  0  0  0  0  0  0  0
    4.0981    5.4510    0.0000 O   0  0  0  0  0  0  0  0  0  0  0  0
    4.5981   -1.6830    0.0000 N   0  0  3  0  0  0  0  0  0  0  0  0
    6.3301    1.3170    0.0000 N   0  0  0  0  0  0  0  0  0  0  0  0
    5.4641   -0.1830    0.0000 C   0  0  1  0  0  0  0  0  0  0  0  0
    6.3301    0.3170    0.0000 C   0  0  2  0  0  0  0  0  0  0  0  0
    5.4641   -1.1830    0.0000 C   0  0  0  0  0  0  0  0  0  0  0  0
    3.7320   -1.1830    0.0000 C   0  0  0  0  0  0  0  0  0  0  0  0
    2.8660   -1.6830    0.0000 C   0  0  0  0  0  0  0  0  0  0  0  0
    7.1962   -0.1830    0.0000 C   0  0  0  0  0  0  0  0  0  0  0  0
    8.0622    0.3170    0.0000 C   0  0  0  0  0  0  0  0  0  0  0  0
    2.0000   -1.1830    0.0000 C   0  0  0  0  0  0  0  0  0  0  0  0
    2.8660   -2.6830    0.0000 C   0  0  0  0  0  0  0  0  0  0  0  0
    4.5981   -3.6830    0.0000 C   0  0  0  0  0  0  0  0  0  0  0  0
    5.4641    1.8170    0.0000 C   0  0  0  0  0  0  0  0  0  0  0  0
    8.0622    1.3170    0.0000 C   0  0  0  0  0  0  0  0  0  0  0  0
    8.9282   -0.1830    0.0000 C   0  0  0  0  0  0  0  0  0  0  0  0
    5.4641   -4.1830    0.0000 C   0  0  0  0  0  0  0  0  0  0  0  0
    3.7320   -4.1830    0.0000 C   0  0  0  0  0  0  0  0  0  0  0  0
    5.4641    2.8170    0.0000 C   0  0  0  0  0  0  0  0  0  0  0  0
    8.9282    1.8170    0.0000 C   0  0  0  0  0  0  0  0  0  0  0  0
    9.7942    0.3170    0.0000 C   0  0  0  0  0  0  0  0  0  0  0  0
    5.4641   -5.1830    0.0000 C   0  0  0  0  0  0  0  0  0  0  0  0
    3.7320   -5.1830    0.0000 C   0  0  0  0  0  0  0  0  0  0  0  0
    4.5981   -5.6830    0.0000 C   0  0  0  0  0  0  0  0  0  0  0  0
    4.5981    3.3170    0.0000 C   0  0  0  0  0  0  0  0  0  0  0  0
    6.3301    3.3170    0.0000 C   0  0  0  0  0  0  0  0  0  0  0  0
    9.7942    1.3170    0.0000 C   0  0  0  0  0  0  0  0  0  0  0  0
    5.4641    4.8170    0.0000 C   0  0  0  0  0  0  0  0  0  0  0  0
    4.5981    4.3170    0.0000 C   0  0  0  0  0  0  0  0  0  0  0  0
    6.3301    4.3170    0.0000 C   0  0  0  0  0  0  0  0  0  0  0  0
    5.4641    5.8170    0.0000 C   0  0  0  0  0  0  0  0  0  0  0  0
    3.7320    6.8170    0.0000 C   0  0  0  0  0  0  0  0  0  0  0  0
    3.7320   -7.1830    0.0000 C   0  0  0  0  0  0  0  0  0  0  0  0
    5.4641    0.4370    0.0000 H   0  0  0  0  0  0  0  0  0  0  0  0
    6.8671    0.6270    0.0000 H   0  0  0  0  0  0  0  0  0  0  0  0
    5.6762   -1.7656    0.0000 H   0  0  0  0  0  0  0  0  0  0  0  0
    6.0747   -1.0754    0.0000 H   0  0  0  0  0  0  0  0  0  0  0  0
    4.1306   -0.7081    0.0000 H   0  0  0  0  0  0  0  0  0  0  0  0
    3.3335   -0.7081    0.0000 H   0  0  0  0  0  0  0  0  0  0  0  0
    2.8660   -1.0630    0.0000 H   0  0  0  0  0  0  0  0  0  0  0  0
    6.7976   -0.6580    0.0000 H   0  0  0  0  0  0  0  0  0  0  0  0
    7.5947   -0.6580    0.0000 H   0  0  0  0  0  0  0  0  0  0  0  0
    6.8671    1.6270    0.0000 H   0  0  0  0  0  0  0  0  0  0  0  0
    2.3100   -0.6461    0.0000 H   0  0  0  0  0  0  0  0  0  0  0  0
    1.4631   -0.8730    0.0000 H   0  0  0  0  0  0  0  0  0  0  0  0
    1.6900   -1.7200    0.0000 H   0  0  0  0  0  0  0  0  0  0  0  0
    2.2460   -2.6830    0.0000 H   0  0  0  0  0  0  0  0  0  0  0  0
    2.8660   -3.3030    0.0000 H   0  0  0  0  0  0  0  0  0  0  0  0
    3.4860   -2.6830    0.0000 H   0  0  0  0  0  0  0  0  0  0  0  0
    4.0611    0.0070    0.0000 H   0  0  0  0  0  0  0  0  0  0  0  0
    7.5252    1.6270    0.0000 H   0  0  0  0  0  0  0  0  0  0  0  0
    8.9282   -0.8030    0.0000 H   0  0  0  0  0  0  0  0  0  0  0  0
    6.0010   -3.8730    0.0000 H   0  0  0  0  0  0  0  0  0  0  0  0
    3.1951   -3.8730    0.0000 H   0  0  0  0  0  0  0  0  0  0  0  0
    8.9282    2.4370    0.0000 H   0  0  0  0  0  0  0  0  0  0  0  0
   10.3312    0.0070    0.0000 H   0  0  0  0  0  0  0  0  0  0  0  0
    6.0010   -5.4930    0.0000 H   0  0  0  0  0  0  0  0  0  0  0  0
    3.1951   -5.4930    0.0000 H   0  0  0  0  0  0  0  0  0  0  0  0
    4.0611    3.0070    0.0000 H   0  0  0  0  0  0  0  0  0  0  0  0
    6.8671    3.0070    0.0000 H   0  0  0  0  0  0  0  0  0  0  0  0
   10.3312    1.6270    0.0000 H   0  0  0  0  0  0  0  0  0  0  0  0
    4.0611    4.6270    0.0000 H   0  0  0  0  0  0  0  0  0  0  0  0
    6.8671    4.6270    0.0000 H   0  0  0  0  0  0  0  0  0  0  0  0
    6.0747    5.7093    0.0000 H   0  0  0  0  0  0  0  0  0  0  0  0
    5.6762    6.3996    0.0000 H   0  0  0  0  0  0  0  0  0  0  0  0
    4.0420    7.3539    0.0000 H   0  0  0  0  0  0  0  0  0  0  0  0
    3.1951    7.1270    0.0000 H   0  0  0  0  0  0  0  0  0  0  0  0
    3.4220    6.2800    0.0000 H   0  0  0  0  0  0  0  0  0  0  0  0
    3.4220   -6.6461    0.0000 H   0  0  0  0  0  0  0  0  0  0  0  0
    3.1951   -7.4930    0.0000 H   0  0  0  0  0  0  0  0  0  0  0  0
    4.0420   -7.7200    0.0000 H   0  0  0  0  0  0  0  0  0  0  0  0
  1  4  2  0  0  0  0
  1  5  2  0  0  0  0
  1 10  1  0  0  0  0
  1 21  1  0  0  0  0
  2  8  2  0  0  0  0
  2  9  2  0  0  0  0
  2 39  1  0  0  0  0
  2 40  1  0  0  0  0
 12  3  1  1  0  0  0
  3 58  1  0  0  0  0
  6 22  2  0  0  0  0
  7 32  1  0  0  0  0
  7 41  1  0  0  0  0
 10 14  1  0  0  0  0
 10 15  1  0  0  0  0
 13 11  1  1  0  0  0
 11 22  1  0  0  0  0
 11 51  1  0  0  0  0
 12 13  1  0  0  0  0
 12 14  1  0  0  0  0
 12 42  1  0  0  0  0
 13 17  1  0  0  0  0
 13 43  1  0  0  0  0
 14 44  1  0  0  0  0
 14 45  1  0  0  0  0
 15 16  1  0  0  0  0
 15 46  1  0  0  0  0
 15 47  1  0  0  0  0
 16 19  1  0  0  0  0
 16 20  1  0  0  0  0
 16 48  1  0  0  0  0
 17 18  1  0  0  0  0
 17 49  1  0  0  0  0
 17 50  1  0  0  0  0
 18 23  2  0  0  0  0
 18 24  1  0  0  0  0
 19 52  1  0  0  0  0
 19 53  1  0  0  0  0
 19 54  1  0  0  0  0
 20 55  1  0  0  0  0
 20 56  1  0  0  0  0
 20 57  1  0  0  0  0
 21 25  2  0  0  0  0
 21 26  1  0  0  0  0
 22 27  1  0  0  0  0
 23 28  1  0  0  0  0
 23 59  1  0  0  0  0
 24 29  2  0  0  0  0
 24 60  1  0  0  0  0
 25 30  1  0  0  0  0
 25 61  1  0  0  0  0
 26 31  2  0  0  0  0
 26 62  1  0  0  0  0
 27 33  2  0  0  0  0
 27 34  1  0  0  0  0
 28 35  2  0  0  0  0
 28 63  1  0  0  0  0
 29 35  1  0  0  0  0
 29 64  1  0  0  0  0
 30 32  2  0  0  0  0
 30 65  1  0  0  0  0
 31 32  1  0  0  0  0
 31 66  1  0  0  0  0
 33 37  1  0  0  0  0
 33 67  1  0  0  0  0
 34 38  2  0  0  0  0
 34 68  1  0  0  0  0
 35 69  1  0  0  0  0
 36 37  2  0  0  0  0
 36 38  1  0  0  0  0
 36 39  1  0  0  0  0
 37 70  1  0  0  0  0
 38 71  1  0  0  0  0
 39 72  1  0  0  0  0
 39 73  1  0  0  0  0
 40 74  1  0  0  0  0
 40 75  1  0  0  0  0
 40 76  1  0  0  0  0
 41 77  1  0  0  0  0
 41 78  1  0  0  0  0
 41 79  1  0  0  0  0
M  END
> <PUBCHEM_COMPOUND_CID>
508282
> <PUBCHEM_COMPOUND_CANONICALIZED>
1
> <PUBCHEM_CACTVS_COMPLEXITY>
1000
> <PUBCHEM_CACTVS_HBOND_ACCEPTOR>
8
> <PUBCHEM_CACTVS_HBOND_DONOR>
2
> <PUBCHEM_CACTVS_ROTATABLE_BOND>
14
> <PUBCHEM_CACTVS_SUBSKEYS>
AAADcfB7OABgAAAAAAAAAAAAAAAAAAAAAAAwYMAAAAAAAAABUAAAHgQQSAAADTzl2AayB4LABgqIAiFSEHDCCBAkIBAIiJkODMgONjKk9RuEcShk1hGYqYeYyKCOQIAAAAAAAACBAAAAAAAAAAAAAAAAAA==
> <PUBCHEM_IUPAC_OPENEYE_NAME>
N-[(1S,2R)-1-benzyl-2-hydroxy-3-[isobutyl-(4-methoxyphenyl)sulfonyl-amino]propyl]-4-(methylsulfonylmethyl)benzamide
> <PUBCHEM_IUPAC_CAS_NAME>
N-[(2S,3R)-3-hydroxy-4-[(4-methoxyphenyl)sulfonyl-(2-methylpropyl)amino]-1-phenylbutan-2-yl]-4-(methylsulfonylmethyl)benzamide
> <PUBCHEM_IUPAC_NAME_MARKUP>
<I>N</I>-[(2<I>S</I>,3<I>R</I>)-3-hydroxy-4-[(4-methoxyphenyl)sulfonyl-(2-methylpropyl)amino]-1-phenylbutan-2-yl]-4-(methylsulfonylmethyl)benzamide
> <PUBCHEM_IUPAC_NAME>
N-[(2S,3R)-3-hydroxy-4-[(4-methoxyphenyl)sulfonyl-(2-methylpropyl)amino]-1-phenylbutan-2-yl]-4-(methylsulfonylmethyl)benzamide
> <PUBCHEM_IUPAC_SYSTEMATIC_NAME>
N-[(2S,3R)-4-[(4-methoxyphenyl)sulfonyl-(2-methylpropyl)amino]-3-oxidanyl-1-phenyl-butan-2-yl]-4-(methylsulfonylmethyl)benzamide
> <PUBCHEM_IUPAC_TRADITIONAL_NAME>
N-[(1S,2R)-1-benzyl-2-hydroxy-3-[isobutyl-(4-methoxyphenyl)sulfonyl-amino]propyl]-4-(mesylmethyl)benzamide
> <PUBCHEM_IUPAC_INCHI>
InChI=1S/C30H38N2O7S2/c1-22(2)19-32(41(37,38)27-16-14-26(39-3)15-17-27)20-29(33)28(18-23-8-6-5-7-9-23)31-30(34)25-12-10-24(11-13-25)21-40(4,35)36/h5-17,22,28-29,33H,18-21H2,1-4H3,(H,31,34)/t28-,29+/m0/s1
> <PUBCHEM_IUPAC_INCHIKEY>
QRAQBZKGQBBSDO-URLMMPGGSA-N
> <PUBCHEM_XLOGP3_AA>
3.9
> <PUBCHEM_EXACT_MASS>
602.21204390
> <PUBCHEM_MOLECULAR_FORMULA>
C30H38N2O7S2
> <PUBCHEM_MOLECULAR_WEIGHT>
602.8
> <PUBCHEM_OPENEYE_CAN_SMILES>
CC(C)CN(CC(C(CC1=CC=CC=C1)NC(=O)C2=CC=C(C=C2)CS(=O)(=O)C)O)S(=O)(=O)C3=CC=C(C=C3)OC
> <PUBCHEM_OPENEYE_ISO_SMILES>
CC(C)CN(C[C@H]([C@H](CC1=CC=CC=C1)NC(=O)C2=CC=C(C=C2)CS(=O)(=O)C)O)S(=O)(=O)C3=CC=C(C=C3)OC
> <PUBCHEM_CACTVS_TPSA>
147
> <PUBCHEM_MONOISOTOPIC_WEIGHT>
602.21204390
> <PUBCHEM_TOTAL_CHARGE>
0
> <PUBCHEM_HEAVY_ATOM_COUNT>
41
> <PUBCHEM_ATOM_DEF_STEREO_COUNT>
2
> <PUBCHEM_ATOM_UDEF_STEREO_COUNT>
0
> <PUBCHEM_BOND_DEF_STEREO_COUNT>
0
> <PUBCHEM_BOND_UDEF_STEREO_COUNT>
0
> <PUBCHEM_ISOTOPIC_ATOM_COUNT>
0
> <PUBCHEM_COMPONENT_COUNT>
1
> <PUBCHEM_CACTVS_TAUTO_COUNT>
-1
> <PUBCHEM_COORDINATE_TYPE>
1
5
255
> <PUBCHEM_BONDANNOTATIONS>
13  11  5
18  23  8
18  24  8
21  25  8
21  26  8
23  28  8
24  29  8
25  30  8
26  31  8
27  33  8
27  34  8
28  35  8
29  35  8
12  3  5
30  32  8
31  32  8
33  37  8
34  38  8
36  37  8
36  38  8
$$$$
