508236
  -OEChem-10302200282D
 76 77  0     1  0  0  0  0  0999 V2000
    6.1051   -0.5572    0.0000 O   0  0  0  0  0  0  0  0  0  0  0  0
    9.8332   -0.9778    0.0000 O   0  0  0  0  0  0  0  0  0  0  0  0
    7.8652   -0.2784    0.0000 O   0  0  0  0  0  0  0  0  0  0  0  0
   11.5932   -1.2566    0.0000 O   0  0  0  0  0  0  0  0  0  0  0  0
    5.0173    1.7906    0.0000 O   0  0  0  0  0  0  0  0  0  0  0  0
    7.1929    1.7906    0.0000 O   0  0  0  0  0  0  0  0  0  0  0  0
    8.7454   -3.3257    0.0000 O   0  0  0  0  0  0  0  0  0  0  0  0
   10.9209   -3.3257    0.0000 O   0  0  0  0  0  0  0  0  0  0  0  0
    2.4429   -0.8965    0.0000 O   0  0  0  0  0  0  0  0  0  0  0  0
    4.1371   -1.2566    0.0000 N   0  0  0  0  0  0  0  0  0  0  0  0
    9.0241   -1.5656    0.0000 C   0  0  1  0  0  0  0  0  0  0  0  0
    5.6051    0.9816    0.0000 C   0  0  2  0  0  0  0  0  0  0  0  0
    5.2961    0.0306    0.0000 C   0  0  1  0  0  0  0  0  0  0  0  0
    6.6051    0.9816    0.0000 C   0  0  1  0  0  0  0  0  0  0  0  0
    6.9141    0.0306    0.0000 C   0  0  2  0  0  0  0  0  0  0  0  0
    9.3332   -2.5167    0.0000 C   0  0  2  0  0  0  0  0  0  0  0  0
   10.3332   -2.5167    0.0000 C   0  0  1  0  0  0  0  0  0  0  0  0
   10.6422   -1.5656    0.0000 C   0  0  2  0  0  0  0  0  0  0  0  0
    8.0731   -1.2566    0.0000 C   0  0  0  0  0  0  0  0  0  0  0  0
    4.3450   -0.2784    0.0000 C   0  0  0  0  0  0  0  0  0  0  0  0
   11.8011   -0.2784    0.0000 C   0  0  0  0  0  0  0  0  0  0  0  0
    2.9782   -2.5438    0.0000 C   0  0  0  0  0  0  0  0  0  0  0  0
   12.7522    0.0306    0.0000 C   0  0  0  0  0  0  0  0  0  0  0  0
    3.1861   -1.5656    0.0000 C   0  0  0  0  0  0  0  0  0  0  0  0
   12.9601    1.0087    0.0000 C   0  0  0  0  0  0  0  0  0  0  0  0
   13.9112    1.3177    0.0000 C   0  0  0  0  0  0  0  0  0  0  0  0
    2.7702   -3.5219    0.0000 C   0  0  0  0  0  0  0  0  0  0  0  0
    2.0000   -2.3358    0.0000 C   0  0  0  0  0  0  0  0  0  0  0  0
    3.9563   -2.7517    0.0000 C   0  0  0  0  0  0  0  0  0  0  0  0
   14.1191    2.2959    0.0000 C   0  0  0  0  0  0  0  0  0  0  0  0
   15.0701    2.6049    0.0000 C   0  0  0  0  0  0  0  0  0  0  0  0
   15.2780    3.5831    0.0000 C   0  0  0  0  0  0  0  0  0  0  0  0
   16.2291    3.8921    0.0000 C   0  0  0  0  0  0  0  0  0  0  0  0
    8.9271   -0.9532    0.0000 H   0  0  0  0  0  0  0  0  0  0  0  0
    5.1991   -0.5818    0.0000 H   0  0  0  0  0  0  0  0  0  0  0  0
    5.8866    1.5341    0.0000 H   0  0  0  0  0  0  0  0  0  0  0  0
    6.3236    1.5341    0.0000 H   0  0  0  0  0  0  0  0  0  0  0  0
    7.3525    0.4690    0.0000 H   0  0  0  0  0  0  0  0  0  0  0  0
    8.7208   -2.4197    0.0000 H   0  0  0  0  0  0  0  0  0  0  0  0
   10.0517   -3.0691    0.0000 H   0  0  0  0  0  0  0  0  0  0  0  0
   10.7392   -0.9532    0.0000 H   0  0  0  0  0  0  0  0  0  0  0  0
    7.4535   -1.2782    0.0000 H   0  0  0  0  0  0  0  0  0  0  0  0
    7.9868   -1.8706    0.0000 H   0  0  0  0  0  0  0  0  0  0  0  0
    4.2587    0.3355    0.0000 H   0  0  0  0  0  0  0  0  0  0  0  0
    3.7254   -0.2568    0.0000 H   0  0  0  0  0  0  0  0  0  0  0  0
    4.5979   -1.6714    0.0000 H   0  0  0  0  0  0  0  0  0  0  0  0
    5.2695    2.3570    0.0000 H   0  0  0  0  0  0  0  0  0  0  0  0
    7.8095    1.7258    0.0000 H   0  0  0  0  0  0  0  0  0  0  0  0
    8.9976   -3.8921    0.0000 H   0  0  0  0  0  0  0  0  0  0  0  0
   11.5375   -3.2609    0.0000 H   0  0  0  0  0  0  0  0  0  0  0  0
   11.7149    0.3355    0.0000 H   0  0  0  0  0  0  0  0  0  0  0  0
   11.1815   -0.2568    0.0000 H   0  0  0  0  0  0  0  0  0  0  0  0
   12.8385   -0.5834    0.0000 H   0  0  0  0  0  0  0  0  0  0  0  0
   13.3718    0.0089    0.0000 H   0  0  0  0  0  0  0  0  0  0  0  0
   12.8738    1.6227    0.0000 H   0  0  0  0  0  0  0  0  0  0  0  0
   12.3405    1.0304    0.0000 H   0  0  0  0  0  0  0  0  0  0  0  0
   13.9975    0.7038    0.0000 H   0  0  0  0  0  0  0  0  0  0  0  0
   14.5308    1.2961    0.0000 H   0  0  0  0  0  0  0  0  0  0  0  0
   14.0328    2.9099    0.0000 H   0  0  0  0  0  0  0  0  0  0  0  0
   13.4995    2.3175    0.0000 H   0  0  0  0  0  0  0  0  0  0  0  0
    2.1638   -3.3930    0.0000 H   0  0  0  0  0  0  0  0  0  0  0  0
    2.6413   -4.1284    0.0000 H   0  0  0  0  0  0  0  0  0  0  0  0
    3.3767   -3.6508    0.0000 H   0  0  0  0  0  0  0  0  0  0  0  0
    2.1289   -1.7294    0.0000 H   0  0  0  0  0  0  0  0  0  0  0  0
    1.3936   -2.2069    0.0000 H   0  0  0  0  0  0  0  0  0  0  0  0
    1.8711   -2.9423    0.0000 H   0  0  0  0  0  0  0  0  0  0  0  0
    3.8274   -3.3581    0.0000 H   0  0  0  0  0  0  0  0  0  0  0  0
    4.5628   -2.8806    0.0000 H   0  0  0  0  0  0  0  0  0  0  0  0
    4.0852   -2.1452    0.0000 H   0  0  0  0  0  0  0  0  0  0  0  0
   15.1564    1.9909    0.0000 H   0  0  0  0  0  0  0  0  0  0  0  0
   15.6898    2.5833    0.0000 H   0  0  0  0  0  0  0  0  0  0  0  0
   15.1918    4.1970    0.0000 H   0  0  0  0  0  0  0  0  0  0  0  0
   14.6584    3.6047    0.0000 H   0  0  0  0  0  0  0  0  0  0  0  0
   16.4207    3.3024    0.0000 H   0  0  0  0  0  0  0  0  0  0  0  0
   16.8188    4.0837    0.0000 H   0  0  0  0  0  0  0  0  0  0  0  0
   16.0375    4.4817    0.0000 H   0  0  0  0  0  0  0  0  0  0  0  0
  1 13  1  0  0  0  0
  1 15  1  0  0  0  0
  2 11  1  0  0  0  0
  2 18  1  0  0  0  0
 15  3  1  1  0  0  0
  3 19  1  0  0  0  0
 18  4  1  6  0  0  0
  4 21  1  0  0  0  0
 12  5  1  1  0  0  0
  5 47  1  0  0  0  0
 14  6  1  6  0  0  0
  6 48  1  0  0  0  0
 16  7  1  6  0  0  0
  7 49  1  0  0  0  0
 17  8  1  1  0  0  0
  8 50  1  0  0  0  0
  9 24  2  0  0  0  0
 10 20  1  0  0  0  0
 10 24  1  0  0  0  0
 10 46  1  0  0  0  0
 11 16  1  0  0  0  0
 11 19  1  1  0  0  0
 11 34  1  0  0  0  0
 12 13  1  0  0  0  0
 12 14  1  0  0  0  0
 12 36  1  0  0  0  0
 13 20  1  6  0  0  0
 13 35  1  0  0  0  0
 14 15  1  0  0  0  0
 14 37  1  0  0  0  0
 15 38  1  0  0  0  0
 16 17  1  0  0  0  0
 16 39  1  0  0  0  0
 17 18  1  0  0  0  0
 17 40  1  0  0  0  0
 18 41  1  0  0  0  0
 19 42  1  0  0  0  0
 19 43  1  0  0  0  0
 20 44  1  0  0  0  0
 20 45  1  0  0  0  0
 21 23  1  0  0  0  0
 21 51  1  0  0  0  0
 21 52  1  0  0  0  0
 22 24  1  0  0  0  0
 22 27  1  0  0  0  0
 22 28  1  0  0  0  0
 22 29  1  0  0  0  0
 23 25  1  0  0  0  0
 23 53  1  0  0  0  0
 23 54  1  0  0  0  0
 25 26  1  0  0  0  0
 25 55  1  0  0  0  0
 25 56  1  0  0  0  0
 26 30  1  0  0  0  0
 26 57  1  0  0  0  0
 26 58  1  0  0  0  0
 27 61  1  0  0  0  0
 27 62  1  0  0  0  0
 27 63  1  0  0  0  0
 28 64  1  0  0  0  0
 28 65  1  0  0  0  0
 28 66  1  0  0  0  0
 29 67  1  0  0  0  0
 29 68  1  0  0  0  0
 29 69  1  0  0  0  0
 30 31  1  0  0  0  0
 30 59  1  0  0  0  0
 30 60  1  0  0  0  0
 31 32  1  0  0  0  0
 31 70  1  0  0  0  0
 31 71  1  0  0  0  0
 32 33  1  0  0  0  0
 32 72  1  0  0  0  0
 32 73  1  0  0  0  0
 33 74  1  0  0  0  0
 33 75  1  0  0  0  0
 33 76  1  0  0  0  0
M  END
> <PUBCHEM_COMPOUND_CID>
508236
> <PUBCHEM_COMPOUND_CANONICALIZED>
1
> <PUBCHEM_CACTVS_COMPLEXITY>
585
> <PUBCHEM_CACTVS_HBOND_ACCEPTOR>
9
> <PUBCHEM_CACTVS_HBOND_DONOR>
5
> <PUBCHEM_CACTVS_ROTATABLE_BOND>
14
> <PUBCHEM_CACTVS_SUBSKEYS>
AAADcfB6PAAAAAAAAAAAAAAAAAAAASJAAAAAAAAAAAAAAAAAAAAAHgAQCAAADhTxgAcCCALABgAIAAEQEAAAAAAAAAAAAIEIAAATEAIAgAAnQAAHFgCXAAHw8KoAAAAAAAAAAAAAAAAAAAAAAAAAAAAAAA==
> <PUBCHEM_IUPAC_OPENEYE_NAME>
N-[[(2R,3S,4S,5S)-5-[[(2R,3S,4S,5S)-3,4-dihydroxy-5-octoxy-tetrahydrofuran-2-yl]methoxy]-3,4-dihydroxy-tetrahydrofuran-2-yl]methyl]-2,2-dimethyl-propanamide
> <PUBCHEM_IUPAC_CAS_NAME>
N-[[(2R,3S,4S,5S)-5-[[(2R,3S,4S,5S)-3,4-dihydroxy-5-octoxy-2-oxolanyl]methoxy]-3,4-dihydroxy-2-oxolanyl]methyl]-2,2-dimethylpropanamide
> <PUBCHEM_IUPAC_NAME_MARKUP>
<I>N</I>-[[(2<I>R</I>,3<I>S</I>,4<I>S</I>,5<I>S</I>)-5-[[(2<I>R</I>,3<I>S</I>,4<I>S</I>,5<I>S</I>)-3,4-dihydroxy-5-octoxyoxolan-2-yl]methoxy]-3,4-dihydroxyoxolan-2-yl]methyl]-2,2-dimethylpropanamide
> <PUBCHEM_IUPAC_NAME>
N-[[(2R,3S,4S,5S)-5-[[(2R,3S,4S,5S)-3,4-dihydroxy-5-octoxyoxolan-2-yl]methoxy]-3,4-dihydroxyoxolan-2-yl]methyl]-2,2-dimethylpropanamide
> <PUBCHEM_IUPAC_SYSTEMATIC_NAME>
2,2-dimethyl-N-[[(2R,3S,4S,5S)-5-[[(2R,3S,4S,5S)-5-octoxy-3,4-bis(oxidanyl)oxolan-2-yl]methoxy]-3,4-bis(oxidanyl)oxolan-2-yl]methyl]propanamide
> <PUBCHEM_IUPAC_TRADITIONAL_NAME>
N-[[(2R,3S,4S,5S)-5-[[(2R,3S,4S,5S)-3,4-dihydroxy-5-octoxy-tetrahydrofuran-2-yl]methoxy]-3,4-dihydroxy-tetrahydrofuran-2-yl]methyl]-2,2-dimethyl-propionamide
> <PUBCHEM_IUPAC_INCHI>
InChI=1S/C23H43NO9/c1-5-6-7-8-9-10-11-30-20-19(28)17(26)15(33-20)13-31-21-18(27)16(25)14(32-21)12-24-22(29)23(2,3)4/h14-21,25-28H,5-13H2,1-4H3,(H,24,29)/t14-,15-,16-,17-,18+,19+,20+,21+/m1/s1
> <PUBCHEM_IUPAC_INCHIKEY>
WVNQITPUJNPVSI-JRINFJIASA-N
> <PUBCHEM_XLOGP3_AA>
1.9
> <PUBCHEM_EXACT_MASS>
477.29378195
> <PUBCHEM_MOLECULAR_FORMULA>
C23H43NO9
> <PUBCHEM_MOLECULAR_WEIGHT>
477.6
> <PUBCHEM_OPENEYE_CAN_SMILES>
CCCCCCCCOC1C(C(C(O1)COC2C(C(C(O2)CNC(=O)C(C)(C)C)O)O)O)O
> <PUBCHEM_OPENEYE_ISO_SMILES>
CCCCCCCCO[C@@H]1[C@H]([C@@H]([C@H](O1)CO[C@@H]2[C@H]([C@@H]([C@H](O2)CNC(=O)C(C)(C)C)O)O)O)O
> <PUBCHEM_CACTVS_TPSA>
147
> <PUBCHEM_MONOISOTOPIC_WEIGHT>
477.29378195
> <PUBCHEM_TOTAL_CHARGE>
0
> <PUBCHEM_HEAVY_ATOM_COUNT>
33
> <PUBCHEM_ATOM_DEF_STEREO_COUNT>
8
> <PUBCHEM_ATOM_UDEF_STEREO_COUNT>
0
> <PUBCHEM_BOND_DEF_STEREO_COUNT>
0
> <PUBCHEM_BOND_UDEF_STEREO_COUNT>
0
> <PUBCHEM_ISOTOPIC_ATOM_COUNT>
0
> <PUBCHEM_COMPONENT_COUNT>
1
> <PUBCHEM_CACTVS_TAUTO_COUNT>
-1
> <PUBCHEM_COORDINATE_TYPE>
1
5
255
> <PUBCHEM_BONDANNOTATIONS>
11  19  5
13  20  6
15  3  5
18  4  6
12  5  5
14  6  6
16  7  6
17  8  5
$$$$
