508222
  -OEChem-10302200282D
 68 70  0     1  0  0  0  0  0999 V2000
    8.1402   -5.8372    0.0000 O   0  0  0  0  0  0  0  0  0  0  0  0
    7.9128   -0.6736    0.0000 O   0  0  0  0  0  0  0  0  0  0  0  0
    4.4487    0.3264    0.0000 O   0  0  0  0  0  0  0  0  0  0  0  0
   10.5109   -1.1736    0.0000 O   0  0  0  0  0  0  0  0  0  0  0  0
   11.3769   -2.6736    0.0000 O   0  0  0  0  0  0  0  0  0  0  0  0
    5.3147    3.8264    0.0000 O   0  0  0  0  0  0  0  0  0  0  0  0
    2.0000    4.1628    0.0000 O   0  0  0  0  0  0  0  0  0  0  0  0
    9.8615   -5.3760    0.0000 N   0  0  0  0  0  0  0  0  0  0  0  0
    7.0468   -2.1736    0.0000 N   0  0  0  0  0  0  0  0  0  0  0  0
    6.1808    0.3264    0.0000 N   0  0  0  0  0  0  0  0  0  0  0  0
    4.4487    2.3264    0.0000 N   0  0  0  0  0  0  0  0  0  0  0  0
    2.6691    3.4197    0.0000 N   0  0  0  0  0  0  0  0  0  0  0  0
    8.7788   -4.1736    0.0000 C   0  0  2  0  0  0  0  0  0  0  0  0
    7.9128   -3.6736    0.0000 C   0  0  0  0  0  0  0  0  0  0  0  0
    9.6924   -3.7668    0.0000 C   0  0  0  0  0  0  0  0  0  0  0  0
    7.9128   -2.6736    0.0000 C   0  0  1  0  0  0  0  0  0  0  0  0
   10.3615   -4.5100    0.0000 C   0  0  0  0  0  0  0  0  0  0  0  0
    8.8834   -5.1681    0.0000 C   0  0  0  0  0  0  0  0  0  0  0  0
    6.1808   -0.6736    0.0000 C   0  0  2  0  0  0  0  0  0  0  0  0
    8.7788   -2.1736    0.0000 C   0  0  0  0  0  0  0  0  0  0  0  0
    7.0468   -1.1736    0.0000 C   0  0  0  0  0  0  0  0  0  0  0  0
    5.3147   -1.1736    0.0000 C   0  0  0  0  0  0  0  0  0  0  0  0
    9.6448   -2.6736    0.0000 C   0  0  0  0  0  0  0  0  0  0  0  0
    5.3147   -2.1736    0.0000 C   0  0  0  0  0  0  0  0  0  0  0  0
    5.3147    0.8264    0.0000 C   0  0  0  0  0  0  0  0  0  0  0  0
    7.0468    0.8264    0.0000 C   0  0  0  0  0  0  0  0  0  0  0  0
    5.3147    1.8264    0.0000 C   0  0  0  0  0  0  0  0  0  0  0  0
    7.0468    1.8264    0.0000 C   0  0  0  0  0  0  0  0  0  0  0  0
   10.5109   -2.1736    0.0000 C   0  0  0  0  0  0  0  0  0  0  0  0
    6.1808    2.3264    0.0000 C   0  0  0  0  0  0  0  0  0  0  0  0
    4.4487    3.3264    0.0000 C   0  0  0  0  0  0  0  0  0  0  0  0
   11.3769   -0.6736    0.0000 C   0  0  0  0  0  0  0  0  0  0  0  0
    3.5827    3.8264    0.0000 C   0  0  0  0  0  0  0  0  0  0  0  0
   11.3769    0.3264    0.0000 C   0  0  0  0  0  0  0  0  0  0  0  0
    3.4782    4.8210    0.0000 C   0  0  0  0  0  0  0  0  0  0  0  0
    2.5000    5.0289    0.0000 C   0  0  0  0  0  0  0  0  0  0  0  0
    2.0933    5.9424    0.0000 C   0  0  0  0  0  0  0  0  0  0  0  0
    8.8113   -3.5544    0.0000 H   0  0  0  0  0  0  0  0  0  0  0  0
    7.3022   -3.5659    0.0000 H   0  0  0  0  0  0  0  0  0  0  0  0
    7.7008   -4.2562    0.0000 H   0  0  0  0  0  0  0  0  0  0  0  0
   10.1940   -3.4024    0.0000 H   0  0  0  0  0  0  0  0  0  0  0  0
    9.3824   -3.2299    0.0000 H   0  0  0  0  0  0  0  0  0  0  0  0
    7.9128   -2.0536    0.0000 H   0  0  0  0  0  0  0  0  0  0  0  0
   10.8631   -4.8744    0.0000 H   0  0  0  0  0  0  0  0  0  0  0  0
   10.7764   -4.0492    0.0000 H   0  0  0  0  0  0  0  0  0  0  0  0
   10.1137   -5.9424    0.0000 H   0  0  0  0  0  0  0  0  0  0  0  0
    6.5098   -2.4836    0.0000 H   0  0  0  0  0  0  0  0  0  0  0  0
    6.1808   -1.2936    0.0000 H   0  0  0  0  0  0  0  0  0  0  0  0
    8.7788   -1.5536    0.0000 H   0  0  0  0  0  0  0  0  0  0  0  0
    5.1027   -0.5910    0.0000 H   0  0  0  0  0  0  0  0  0  0  0  0
    4.7042   -1.2812    0.0000 H   0  0  0  0  0  0  0  0  0  0  0  0
    9.6448   -3.2936    0.0000 H   0  0  0  0  0  0  0  0  0  0  0  0
    4.6947   -2.1736    0.0000 H   0  0  0  0  0  0  0  0  0  0  0  0
    5.3147   -2.7936    0.0000 H   0  0  0  0  0  0  0  0  0  0  0  0
    5.9347   -2.1736    0.0000 H   0  0  0  0  0  0  0  0  0  0  0  0
    7.5837    0.5164    0.0000 H   0  0  0  0  0  0  0  0  0  0  0  0
    7.5837    2.1364    0.0000 H   0  0  0  0  0  0  0  0  0  0  0  0
    6.1808    2.9464    0.0000 H   0  0  0  0  0  0  0  0  0  0  0  0
    3.9118    2.0164    0.0000 H   0  0  0  0  0  0  0  0  0  0  0  0
   11.5890   -1.2562    0.0000 H   0  0  0  0  0  0  0  0  0  0  0  0
   11.9875   -0.5659    0.0000 H   0  0  0  0  0  0  0  0  0  0  0  0
   11.9969    0.3264    0.0000 H   0  0  0  0  0  0  0  0  0  0  0  0
   11.3769    0.9464    0.0000 H   0  0  0  0  0  0  0  0  0  0  0  0
   10.7569    0.3264    0.0000 H   0  0  0  0  0  0  0  0  0  0  0  0
    3.9389    5.2358    0.0000 H   0  0  0  0  0  0  0  0  0  0  0  0
    2.6597    6.1946    0.0000 H   0  0  0  0  0  0  0  0  0  0  0  0
    1.8411    6.5088    0.0000 H   0  0  0  0  0  0  0  0  0  0  0  0
    1.5269    5.6902    0.0000 H   0  0  0  0  0  0  0  0  0  0  0  0
  1 18  2  0  0  0  0
  2 21  2  0  0  0  0
  3 25  2  0  0  0  0
  4 29  1  0  0  0  0
  4 32  1  0  0  0  0
  5 29  2  0  0  0  0
  6 31  2  0  0  0  0
  7 12  1  0  0  0  0
  7 36  1  0  0  0  0
  8 17  1  0  0  0  0
  8 18  1  0  0  0  0
  8 46  1  0  0  0  0
 16  9  1  6  0  0  0
  9 21  1  0  0  0  0
  9 47  1  0  0  0  0
 10 19  1  0  0  0  0
 10 25  1  0  0  0  0
 10 26  1  0  0  0  0
 11 27  1  0  0  0  0
 11 31  1  0  0  0  0
 11 59  1  0  0  0  0
 12 33  2  0  0  0  0
 13 14  1  6  0  0  0
 13 15  1  0  0  0  0
 13 18  1  0  0  0  0
 13 38  1  0  0  0  0
 14 16  1  0  0  0  0
 14 39  1  0  0  0  0
 14 40  1  0  0  0  0
 15 17  1  0  0  0  0
 15 41  1  0  0  0  0
 15 42  1  0  0  0  0
 16 20  1  0  0  0  0
 16 43  1  0  0  0  0
 17 44  1  0  0  0  0
 17 45  1  0  0  0  0
 19 21  1  0  0  0  0
 19 22  1  6  0  0  0
 19 48  1  0  0  0  0
 20 23  2  3  0  0  0
 20 49  1  0  0  0  0
 22 24  1  0  0  0  0
 22 50  1  0  0  0  0
 22 51  1  0  0  0  0
 23 29  1  0  0  0  0
 23 52  1  0  0  0  0
 24 53  1  0  0  0  0
 24 54  1  0  0  0  0
 24 55  1  0  0  0  0
 25 27  1  0  0  0  0
 26 28  2  0  0  0  0
 26 56  1  0  0  0  0
 27 30  2  0  0  0  0
 28 30  1  0  0  0  0
 28 57  1  0  0  0  0
 30 58  1  0  0  0  0
 31 33  1  0  0  0  0
 32 34  1  0  0  0  0
 32 60  1  0  0  0  0
 32 61  1  0  0  0  0
 33 35  1  0  0  0  0
 34 62  1  0  0  0  0
 34 63  1  0  0  0  0
 34 64  1  0  0  0  0
 35 36  2  0  0  0  0
 35 65  1  0  0  0  0
 36 37  1  0  0  0  0
 37 66  1  0  0  0  0
 37 67  1  0  0  0  0
 37 68  1  0  0  0  0
M  END
> <PUBCHEM_COMPOUND_CID>
508222
> <PUBCHEM_COMPOUND_CANONICALIZED>
1
> <PUBCHEM_CACTVS_COMPLEXITY>
992
> <PUBCHEM_CACTVS_HBOND_ACCEPTOR>
8
> <PUBCHEM_CACTVS_HBOND_DONOR>
3
> <PUBCHEM_CACTVS_ROTATABLE_BOND>
12
> <PUBCHEM_CACTVS_SUBSKEYS>
AAADceB7uAAAAAAAAAAAAAAAAAAAAWLAAAAgAAAAAAAAAAABgAAAHgAUAAAADSzhlgYyjJPQBACpAaX2WgCAAAAmIgAoGKG+bFoIZhoApbMWEYhmlhiI6cM/AAAOAAAAAAAAAAAAAAAAAAAAAAAAAAAAAA==
> <PUBCHEM_IUPAC_OPENEYE_NAME>
ethyl (4S)-4-[[(2S)-2-[3-[(5-methylisoxazole-3-carbonyl)amino]-2-oxo-1-pyridyl]butanoyl]amino]-5-[(3S)-2-oxopyrrolidin-3-yl]pent-2-enoate
> <PUBCHEM_IUPAC_CAS_NAME>
(4S)-4-[[(2S)-2-[3-[[(5-methyl-3-isoxazolyl)-oxomethyl]amino]-2-oxo-1-pyridinyl]-1-oxobutyl]amino]-5-[(3S)-2-oxo-3-pyrrolidinyl]-2-pentenoic acid ethyl ester
> <PUBCHEM_IUPAC_NAME_MARKUP>
ethyl (4<I>S</I>)-4-[[(2<I>S</I>)-2-[3-[(5-methyl-1,2-oxazole-3-carbonyl)amino]-2-oxopyridin-1-yl]butanoyl]amino]-5-[(3<I>S</I>)-2-oxopyrrolidin-3-yl]pent-2-enoate
> <PUBCHEM_IUPAC_NAME>
ethyl (4S)-4-[[(2S)-2-[3-[(5-methyl-1,2-oxazole-3-carbonyl)amino]-2-oxopyridin-1-yl]butanoyl]amino]-5-[(3S)-2-oxopyrrolidin-3-yl]pent-2-enoate
> <PUBCHEM_IUPAC_SYSTEMATIC_NAME>
ethyl (4S)-4-[[(2S)-2-[3-[(5-methyl-1,2-oxazol-3-yl)carbonylamino]-2-oxidanylidene-pyridin-1-yl]butanoyl]amino]-5-[(3S)-2-oxidanylidenepyrrolidin-3-yl]pent-2-enoate
> <PUBCHEM_IUPAC_TRADITIONAL_NAME>
(4S)-4-[[(2S)-2-[2-keto-3-[(5-methylisoxazole-3-carbonyl)amino]-1-pyridyl]butanoyl]amino]-5-[(3S)-2-ketopyrrolidin-3-yl]pent-2-enoic acid ethyl ester
> <PUBCHEM_IUPAC_INCHI>
InChI=1S/C25H31N5O7/c1-4-20(30-12-6-7-18(25(30)35)28-23(33)19-13-15(3)37-29-19)24(34)27-17(8-9-21(31)36-5-2)14-16-10-11-26-22(16)32/h6-9,12-13,16-17,20H,4-5,10-11,14H2,1-3H3,(H,26,32)(H,27,34)(H,28,33)/t16-,17+,20-/m0/s1
> <PUBCHEM_IUPAC_INCHIKEY>
ULUGRMVVZIBKKS-QKLQHJQFSA-N
> <PUBCHEM_XLOGP3_AA>
1.2
> <PUBCHEM_EXACT_MASS>
513.22234834
> <PUBCHEM_MOLECULAR_FORMULA>
C25H31N5O7
> <PUBCHEM_MOLECULAR_WEIGHT>
513.5
> <PUBCHEM_OPENEYE_CAN_SMILES>
CCC(C(=O)NC(CC1CCNC1=O)C=CC(=O)OCC)N2C=CC=C(C2=O)NC(=O)C3=NOC(=C3)C
> <PUBCHEM_OPENEYE_ISO_SMILES>
CC[C@@H](C(=O)N[C@@H](C[C@@H]1CCNC1=O)C=CC(=O)OCC)N2C=CC=C(C2=O)NC(=O)C3=NOC(=C3)C
> <PUBCHEM_CACTVS_TPSA>
160
> <PUBCHEM_MONOISOTOPIC_WEIGHT>
513.22234834
> <PUBCHEM_TOTAL_CHARGE>
0
> <PUBCHEM_HEAVY_ATOM_COUNT>
37
> <PUBCHEM_ATOM_DEF_STEREO_COUNT>
3
> <PUBCHEM_ATOM_UDEF_STEREO_COUNT>
0
> <PUBCHEM_BOND_DEF_STEREO_COUNT>
0
> <PUBCHEM_BOND_UDEF_STEREO_COUNT>
1
> <PUBCHEM_ISOTOPIC_ATOM_COUNT>
0
> <PUBCHEM_COMPONENT_COUNT>
1
> <PUBCHEM_CACTVS_TAUTO_COUNT>
-1
> <PUBCHEM_COORDINATE_TYPE>
1
5
255
> <PUBCHEM_BONDANNOTATIONS>
10  25  8
10  26  8
12  33  8
13  14  6
19  22  6
20  23  1
25  27  8
26  28  8
27  30  8
28  30  8
33  35  8
35  36  8
7  12  8
7  36  8
16  9  6
$$$$
