508211
  -OEChem-10302200282D
 38 40  0     1  0  0  0  0  0999 V2000
    6.2731   -1.4653    0.0000 O   0  0  0  0  0  0  0  0  0  0  0  0
    4.3763   -3.2254    0.0000 O   0  0  0  0  0  0  0  0  0  0  0  0
    7.5464   -3.1209    0.0000 O   0  0  0  0  0  0  0  0  0  0  0  0
    7.1962    0.1225    0.0000 O   0  0  0  0  0  0  0  0  0  0  0  0
    5.4641    3.1225    0.0000 O   0  0  0  0  0  0  0  0  0  0  0  0
    5.4641    0.1225    0.0000 N   0  0  0  0  0  0  0  0  0  0  0  0
    6.3301    1.6225    0.0000 N   0  0  0  0  0  0  0  0  0  0  0  0
    4.9641   -2.4164    0.0000 C   0  0  1  0  0  0  0  0  0  0  0  0
    5.4641   -0.8775    0.0000 C   0  0  1  0  0  0  0  0  0  0  0  0
    4.6551   -1.4653    0.0000 C   0  0  0  0  0  0  0  0  0  0  0  0
    5.9641   -2.4164    0.0000 C   0  0  1  0  0  0  0  0  0  0  0  0
    6.5519   -3.2254    0.0000 C   0  0  0  0  0  0  0  0  0  0  0  0
    4.5981    0.6225    0.0000 C   0  0  0  0  0  0  0  0  0  0  0  0
    6.3301    0.6225    0.0000 C   0  0  0  0  0  0  0  0  0  0  0  0
    4.5981    1.6225    0.0000 C   0  0  0  0  0  0  0  0  0  0  0  0
    5.4641    2.1225    0.0000 C   0  0  0  0  0  0  0  0  0  0  0  0
    3.7320    2.1225    0.0000 C   0  0  0  0  0  0  0  0  0  0  0  0
    2.8660    1.6225    0.0000 C   0  0  0  0  0  0  0  0  0  0  0  0
    3.7320    3.1225    0.0000 C   0  0  0  0  0  0  0  0  0  0  0  0
    2.0000    2.1225    0.0000 C   0  0  0  0  0  0  0  0  0  0  0  0
    2.8660    3.6225    0.0000 C   0  0  0  0  0  0  0  0  0  0  0  0
    2.0000    3.1225    0.0000 C   0  0  0  0  0  0  0  0  0  0  0  0
    6.0165   -0.5961    0.0000 H   0  0  0  0  0  0  0  0  0  0  0  0
    5.2456   -2.9688    0.0000 H   0  0  0  0  0  0  0  0  0  0  0  0
    4.3451   -0.9284    0.0000 H   0  0  0  0  0  0  0  0  0  0  0  0
    4.0887   -1.7175    0.0000 H   0  0  0  0  0  0  0  0  0  0  0  0
    6.5765   -2.3194    0.0000 H   0  0  0  0  0  0  0  0  0  0  0  0
    5.9946   -3.4972    0.0000 H   0  0  0  0  0  0  0  0  0  0  0  0
    6.7228   -3.8214    0.0000 H   0  0  0  0  0  0  0  0  0  0  0  0
    4.0611    0.3125    0.0000 H   0  0  0  0  0  0  0  0  0  0  0  0
    3.7597   -3.1606    0.0000 H   0  0  0  0  0  0  0  0  0  0  0  0
    6.8671    1.9325    0.0000 H   0  0  0  0  0  0  0  0  0  0  0  0
    7.9108   -3.6225    0.0000 H   0  0  0  0  0  0  0  0  0  0  0  0
    2.8660    1.0025    0.0000 H   0  0  0  0  0  0  0  0  0  0  0  0
    4.2690    3.4325    0.0000 H   0  0  0  0  0  0  0  0  0  0  0  0
    1.4631    1.8125    0.0000 H   0  0  0  0  0  0  0  0  0  0  0  0
    2.8660    4.2425    0.0000 H   0  0  0  0  0  0  0  0  0  0  0  0
    1.4631    3.4325    0.0000 H   0  0  0  0  0  0  0  0  0  0  0  0
  1  9  1  0  0  0  0
  1 11  1  0  0  0  0
  8  2  1  1  0  0  0
  2 31  1  0  0  0  0
  3 12  1  0  0  0  0
  3 33  1  0  0  0  0
  4 14  2  0  0  0  0
  5 16  2  0  0  0  0
  9  6  1  6  0  0  0
  6 13  1  0  0  0  0
  6 14  1  0  0  0  0
  7 14  1  0  0  0  0
  7 16  1  0  0  0  0
  7 32  1  0  0  0  0
  8 10  1  0  0  0  0
  8 11  1  0  0  0  0
  8 24  1  0  0  0  0
  9 10  1  0  0  0  0
  9 23  1  0  0  0  0
 10 25  1  0  0  0  0
 10 26  1  0  0  0  0
 11 12  1  6  0  0  0
 11 27  1  0  0  0  0
 12 28  1  0  0  0  0
 12 29  1  0  0  0  0
 13 15  2  0  0  0  0
 13 30  1  0  0  0  0
 15 16  1  0  0  0  0
 15 17  1  0  0  0  0
 17 18  2  0  0  0  0
 17 19  1  0  0  0  0
 18 20  1  0  0  0  0
 18 34  1  0  0  0  0
 19 21  2  0  0  0  0
 19 35  1  0  0  0  0
 20 22  2  0  0  0  0
 20 36  1  0  0  0  0
 21 22  1  0  0  0  0
 21 37  1  0  0  0  0
 22 38  1  0  0  0  0
M  END
> <PUBCHEM_COMPOUND_CID>
508211
> <PUBCHEM_COMPOUND_CANONICALIZED>
1
> <PUBCHEM_CACTVS_COMPLEXITY>
486
> <PUBCHEM_CACTVS_HBOND_ACCEPTOR>
5
> <PUBCHEM_CACTVS_HBOND_DONOR>
3
> <PUBCHEM_CACTVS_ROTATABLE_BOND>
3
> <PUBCHEM_CACTVS_SUBSKEYS>
AAADceBzOAAAAAAAAAAAAAAAAAAAASAAAAAwQAAAAAAAAAABAAAAHgAQCAAADBThmAYxAIPABgCIAiFWUACCAAAgAAAIiAEIAMiJMDKAlRGOYAAvhyILiMe4uIKOAAAAAAAAAAAAAAAAAAAAAAAAAAAAAA==
> <PUBCHEM_IUPAC_OPENEYE_NAME>
1-[(2R,4S,5R)-4-hydroxy-5-(hydroxymethyl)tetrahydrofuran-2-yl]-5-phenyl-pyrimidine-2,4-dione
> <PUBCHEM_IUPAC_CAS_NAME>
1-[(2R,4S,5R)-4-hydroxy-5-(hydroxymethyl)-2-oxolanyl]-5-phenylpyrimidine-2,4-dione
> <PUBCHEM_IUPAC_NAME_MARKUP>
1-[(2<I>R</I>,4<I>S</I>,5<I>R</I>)-4-hydroxy-5-(hydroxymethyl)oxolan-2-yl]-5-phenylpyrimidine-2,4-dione
> <PUBCHEM_IUPAC_NAME>
1-[(2R,4S,5R)-4-hydroxy-5-(hydroxymethyl)oxolan-2-yl]-5-phenylpyrimidine-2,4-dione
> <PUBCHEM_IUPAC_SYSTEMATIC_NAME>
1-[(2R,4S,5R)-5-(hydroxymethyl)-4-oxidanyl-oxolan-2-yl]-5-phenyl-pyrimidine-2,4-dione
> <PUBCHEM_IUPAC_TRADITIONAL_NAME>
1-[(2R,4S,5R)-4-hydroxy-5-methylol-tetrahydrofuran-2-yl]-5-phenyl-pyrimidine-2,4-quinone
> <PUBCHEM_IUPAC_INCHI>
InChI=1S/C15H16N2O5/c18-8-12-11(19)6-13(22-12)17-7-10(14(20)16-15(17)21)9-4-2-1-3-5-9/h1-5,7,11-13,18-19H,6,8H2,(H,16,20,21)/t11-,12+,13+/m0/s1
> <PUBCHEM_IUPAC_INCHIKEY>
GLRAEFXZTFJYRZ-YNEHKIRRSA-N
> <PUBCHEM_XLOGP3>
0.1
> <PUBCHEM_EXACT_MASS>
304.10592162
> <PUBCHEM_MOLECULAR_FORMULA>
C15H16N2O5
> <PUBCHEM_MOLECULAR_WEIGHT>
304.30
> <PUBCHEM_OPENEYE_CAN_SMILES>
C1C(C(OC1N2C=C(C(=O)NC2=O)C3=CC=CC=C3)CO)O
> <PUBCHEM_OPENEYE_ISO_SMILES>
C1[C@@H]([C@H](O[C@H]1N2C=C(C(=O)NC2=O)C3=CC=CC=C3)CO)O
> <PUBCHEM_CACTVS_TPSA>
99.1
> <PUBCHEM_MONOISOTOPIC_WEIGHT>
304.10592162
> <PUBCHEM_TOTAL_CHARGE>
0
> <PUBCHEM_HEAVY_ATOM_COUNT>
22
> <PUBCHEM_ATOM_DEF_STEREO_COUNT>
3
> <PUBCHEM_ATOM_UDEF_STEREO_COUNT>
0
> <PUBCHEM_BOND_DEF_STEREO_COUNT>
0
> <PUBCHEM_BOND_UDEF_STEREO_COUNT>
0
> <PUBCHEM_ISOTOPIC_ATOM_COUNT>
0
> <PUBCHEM_COMPONENT_COUNT>
1
> <PUBCHEM_CACTVS_TAUTO_COUNT>
-1
> <PUBCHEM_COORDINATE_TYPE>
1
5
255
> <PUBCHEM_BONDANNOTATIONS>
11  12  6
13  15  8
15  16  8
17  18  8
17  19  8
18  20  8
19  21  8
8  2  5
20  22  8
21  22  8
6  13  8
6  14  8
9  6  6
7  14  8
7  16  8
$$$$
