508206
  -OEChem-10302200282D
 89 93  0     1  0  0  0  0  0999 V2000
    9.8622    2.5000    0.0000 O   0  0  0  0  0  0  0  0  0  0  0  0
    6.3981   -4.5000    0.0000 O   0  0  0  0  0  0  0  0  0  0  0  0
    7.2641   -0.0000    0.0000 O   0  0  0  0  0  0  0  0  0  0  0  0
   11.5942   -0.5000    0.0000 O   0  0  0  0  0  0  0  0  0  0  0  0
    5.5321   -3.0000    0.0000 N   0  0  0  0  0  0  0  0  0  0  0  0
    8.9962    0.0000    0.0000 N   0  0  0  0  0  0  0  0  0  0  0  0
   13.3263   -0.5000    0.0000 N   0  0  0  0  0  0  0  0  0  0  0  0
    8.9962    1.0000    0.0000 C   0  0  2  0  0  0  0  0  0  0  0  0
    9.8622    1.5000    0.0000 C   0  0  2  0  0  0  0  0  0  0  0  0
   10.7282    1.0000    0.0000 C   0  0  0  0  0  0  0  0  0  0  0  0
    8.1301    1.5000    0.0000 C   0  0  0  0  0  0  0  0  0  0  0  0
    5.5321   -2.0000    0.0000 C   0  0  0  0  0  0  0  0  0  0  0  0
    4.6660   -1.5000    0.0000 C   0  0  0  0  0  0  0  0  0  0  0  0
    4.6660   -3.5000    0.0000 C   0  0  0  0  0  0  0  0  0  0  0  0
    3.8000   -2.0000    0.0000 C   0  0  0  0  0  0  0  0  0  0  0  0
    3.8000   -3.0000    0.0000 C   0  0  0  0  0  0  0  0  0  0  0  0
   11.5942    1.5000    0.0000 C   0  0  0  0  0  0  0  0  0  0  0  0
    8.1301    2.5000    0.0000 C   0  0  0  0  0  0  0  0  0  0  0  0
   12.4603    1.0000    0.0000 C   0  0  0  0  0  0  0  0  0  0  0  0
    6.3981   -3.5000    0.0000 C   0  0  0  0  0  0  0  0  0  0  0  0
    8.1301   -0.5000    0.0000 C   0  0  0  0  0  0  0  0  0  0  0  0
   14.1923    0.0000    0.0000 C   0  0  0  0  0  0  0  0  0  0  0  0
    7.2641   -3.0000    0.0000 C   0  0  0  0  0  0  0  0  0  0  0  0
    8.1301   -1.5000    0.0000 C   0  0  0  0  0  0  0  0  0  0  0  0
    2.9061   -1.4653    0.0000 C   0  0  0  0  0  0  0  0  0  0  0  0
    2.9061   -3.5347    0.0000 C   0  0  0  0  0  0  0  0  0  0  0  0
   11.5942    2.5000    0.0000 C   0  0  0  0  0  0  0  0  0  0  0  0
    7.2641   -2.0000    0.0000 C   0  0  0  0  0  0  0  0  0  0  0  0
   12.4603    0.0000    0.0000 C   0  0  0  0  0  0  0  0  0  0  0  0
    8.9962    3.0000    0.0000 C   0  0  0  0  0  0  0  0  0  0  0  0
    7.2641    3.0000    0.0000 C   0  0  0  0  0  0  0  0  0  0  0  0
   13.3263    1.5000    0.0000 C   0  0  0  0  0  0  0  0  0  0  0  0
    8.1301   -3.5000    0.0000 C   0  0  0  0  0  0  0  0  0  0  0  0
    8.9962   -2.0000    0.0000 C   0  0  0  0  0  0  0  0  0  0  0  0
    2.0000   -1.9792    0.0000 C   0  0  0  0  0  0  0  0  0  0  0  0
    2.0000   -3.0208    0.0000 C   0  0  0  0  0  0  0  0  0  0  0  0
    8.9962   -3.0000    0.0000 C   0  0  0  0  0  0  0  0  0  0  0  0
   15.0583    0.5000    0.0000 C   0  0  0  0  0  0  0  0  0  0  0  0
   14.6923   -0.8660    0.0000 C   0  0  0  0  0  0  0  0  0  0  0  0
   13.6923    0.8660    0.0000 C   0  0  0  0  0  0  0  0  0  0  0  0
   12.4603    3.0000    0.0000 C   0  0  0  0  0  0  0  0  0  0  0  0
   13.3263    2.5000    0.0000 C   0  0  0  0  0  0  0  0  0  0  0  0
    8.9962    4.0000    0.0000 C   0  0  0  0  0  0  0  0  0  0  0  0
    7.2641    4.0000    0.0000 C   0  0  0  0  0  0  0  0  0  0  0  0
    8.1301    4.5000    0.0000 C   0  0  0  0  0  0  0  0  0  0  0  0
    9.8622   -3.5000    0.0000 C   0  0  0  0  0  0  0  0  0  0  0  0
    9.5331    0.6900    0.0000 H   0  0  0  0  0  0  0  0  0  0  0  0
    9.3252    1.8100    0.0000 H   0  0  0  0  0  0  0  0  0  0  0  0
   10.3297    0.5251    0.0000 H   0  0  0  0  0  0  0  0  0  0  0  0
   11.1267    0.5251    0.0000 H   0  0  0  0  0  0  0  0  0  0  0  0
    7.5196    1.6077    0.0000 H   0  0  0  0  0  0  0  0  0  0  0  0
    7.9181    0.9174    0.0000 H   0  0  0  0  0  0  0  0  0  0  0  0
    6.1426   -2.1077    0.0000 H   0  0  0  0  0  0  0  0  0  0  0  0
    5.7441   -1.4174    0.0000 H   0  0  0  0  0  0  0  0  0  0  0  0
    5.0646   -1.0250    0.0000 H   0  0  0  0  0  0  0  0  0  0  0  0
    4.2675   -1.0250    0.0000 H   0  0  0  0  0  0  0  0  0  0  0  0
    4.2675   -3.9750    0.0000 H   0  0  0  0  0  0  0  0  0  0  0  0
    5.0646   -3.9750    0.0000 H   0  0  0  0  0  0  0  0  0  0  0  0
    9.5331   -0.3100    0.0000 H   0  0  0  0  0  0  0  0  0  0  0  0
   10.3991    2.8100    0.0000 H   0  0  0  0  0  0  0  0  0  0  0  0
    2.9132   -0.8454    0.0000 H   0  0  0  0  0  0  0  0  0  0  0  0
    2.9132   -4.1546    0.0000 H   0  0  0  0  0  0  0  0  0  0  0  0
   11.0573    2.8100    0.0000 H   0  0  0  0  0  0  0  0  0  0  0  0
    6.7272   -1.6900    0.0000 H   0  0  0  0  0  0  0  0  0  0  0  0
   13.3263   -1.1200    0.0000 H   0  0  0  0  0  0  0  0  0  0  0  0
    9.5331    2.6900    0.0000 H   0  0  0  0  0  0  0  0  0  0  0  0
    6.7272    2.6900    0.0000 H   0  0  0  0  0  0  0  0  0  0  0  0
   13.8632    1.1900    0.0000 H   0  0  0  0  0  0  0  0  0  0  0  0
    8.1301   -4.1200    0.0000 H   0  0  0  0  0  0  0  0  0  0  0  0
    9.5331   -1.6900    0.0000 H   0  0  0  0  0  0  0  0  0  0  0  0
    1.4643   -1.6671    0.0000 H   0  0  0  0  0  0  0  0  0  0  0  0
    1.4643   -3.3329    0.0000 H   0  0  0  0  0  0  0  0  0  0  0  0
   15.3683   -0.0369    0.0000 H   0  0  0  0  0  0  0  0  0  0  0  0
   15.5953    0.8100    0.0000 H   0  0  0  0  0  0  0  0  0  0  0  0
   14.7483    1.0369    0.0000 H   0  0  0  0  0  0  0  0  0  0  0  0
   14.1554   -1.1760    0.0000 H   0  0  0  0  0  0  0  0  0  0  0  0
   15.0023   -1.4030    0.0000 H   0  0  0  0  0  0  0  0  0  0  0  0
   15.2292   -0.5560    0.0000 H   0  0  0  0  0  0  0  0  0  0  0  0
   14.2292    1.1760    0.0000 H   0  0  0  0  0  0  0  0  0  0  0  0
   13.3823    1.4030    0.0000 H   0  0  0  0  0  0  0  0  0  0  0  0
   13.1554    0.5560    0.0000 H   0  0  0  0  0  0  0  0  0  0  0  0
   12.4603    3.6200    0.0000 H   0  0  0  0  0  0  0  0  0  0  0  0
   13.8632    2.8100    0.0000 H   0  0  0  0  0  0  0  0  0  0  0  0
    9.5331    4.3100    0.0000 H   0  0  0  0  0  0  0  0  0  0  0  0
    6.7272    4.3100    0.0000 H   0  0  0  0  0  0  0  0  0  0  0  0
    8.1301    5.1200    0.0000 H   0  0  0  0  0  0  0  0  0  0  0  0
    9.5522   -4.0369    0.0000 H   0  0  0  0  0  0  0  0  0  0  0  0
   10.3991   -3.8100    0.0000 H   0  0  0  0  0  0  0  0  0  0  0  0
   10.1722   -2.9631    0.0000 H   0  0  0  0  0  0  0  0  0  0  0  0
  9  1  1  1  0  0  0
  1 60  1  0  0  0  0
  2 20  2  0  0  0  0
  3 21  2  0  0  0  0
  4 29  2  0  0  0  0
  5 12  1  0  0  0  0
  5 14  1  0  0  0  0
  5 20  1  0  0  0  0
  8  6  1  1  0  0  0
  6 21  1  0  0  0  0
  6 59  1  0  0  0  0
  7 22  1  0  0  0  0
  7 29  1  0  0  0  0
  7 65  1  0  0  0  0
  8  9  1  0  0  0  0
  8 11  1  0  0  0  0
  8 47  1  0  0  0  0
  9 10  1  0  0  0  0
  9 48  1  0  0  0  0
 10 17  1  0  0  0  0
 10 49  1  0  0  0  0
 10 50  1  0  0  0  0
 11 18  1  0  0  0  0
 11 51  1  0  0  0  0
 11 52  1  0  0  0  0
 12 13  1  0  0  0  0
 12 53  1  0  0  0  0
 12 54  1  0  0  0  0
 13 15  1  0  0  0  0
 13 55  1  0  0  0  0
 13 56  1  0  0  0  0
 14 16  1  0  0  0  0
 14 57  1  0  0  0  0
 14 58  1  0  0  0  0
 15 16  1  0  0  0  0
 15 25  2  0  0  0  0
 16 26  2  0  0  0  0
 17 19  1  0  0  0  0
 17 27  2  0  0  0  0
 18 30  2  0  0  0  0
 18 31  1  0  0  0  0
 19 29  1  0  0  0  0
 19 32  2  0  0  0  0
 20 23  1  0  0  0  0
 21 24  1  0  0  0  0
 22 38  1  0  0  0  0
 22 39  1  0  0  0  0
 22 40  1  0  0  0  0
 23 28  1  0  0  0  0
 23 33  2  0  0  0  0
 24 28  2  0  0  0  0
 24 34  1  0  0  0  0
 25 35  1  0  0  0  0
 25 61  1  0  0  0  0
 26 36  1  0  0  0  0
 26 62  1  0  0  0  0
 27 41  1  0  0  0  0
 27 63  1  0  0  0  0
 28 64  1  0  0  0  0
 30 43  1  0  0  0  0
 30 66  1  0  0  0  0
 31 44  2  0  0  0  0
 31 67  1  0  0  0  0
 32 42  1  0  0  0  0
 32 68  1  0  0  0  0
 33 37  1  0  0  0  0
 33 69  1  0  0  0  0
 34 37  2  0  0  0  0
 34 70  1  0  0  0  0
 35 36  2  0  0  0  0
 35 71  1  0  0  0  0
 36 72  1  0  0  0  0
 37 46  1  0  0  0  0
 38 73  1  0  0  0  0
 38 74  1  0  0  0  0
 38 75  1  0  0  0  0
 39 76  1  0  0  0  0
 39 77  1  0  0  0  0
 39 78  1  0  0  0  0
 40 79  1  0  0  0  0
 40 80  1  0  0  0  0
 40 81  1  0  0  0  0
 41 42  2  0  0  0  0
 41 82  1  0  0  0  0
 42 83  1  0  0  0  0
 43 45  2  0  0  0  0
 43 84  1  0  0  0  0
 44 45  1  0  0  0  0
 44 85  1  0  0  0  0
 45 86  1  0  0  0  0
 46 87  1  0  0  0  0
 46 88  1  0  0  0  0
 46 89  1  0  0  0  0
M  END
> <PUBCHEM_COMPOUND_CID>
508206
> <PUBCHEM_COMPOUND_CANONICALIZED>
1
> <PUBCHEM_CACTVS_COMPLEXITY>
1020
> <PUBCHEM_CACTVS_HBOND_ACCEPTOR>
4
> <PUBCHEM_CACTVS_HBOND_DONOR>
3
> <PUBCHEM_CACTVS_ROTATABLE_BOND>
10
> <PUBCHEM_CACTVS_SUBSKEYS>
AAADcfB/OAAAAAAAAAAAAAAAAAAAAAAAAAA8YMGCAAAAAACxVAAAHgAQCAAADLzhmAYyAIPAAgCIAiFSEACCAAAkAAAIiIEIBMgKMDKAlRGEYQhk1gGYiYeY3+LOgAACAAAQAAAAAAQAACAAAAAAAAAAAA==
> <PUBCHEM_IUPAC_OPENEYE_NAME>
N-[(1S,2S)-1-benzyl-3-[2-(tert-butylcarbamoyl)phenyl]-2-hydroxy-propyl]-3-(3,4-dihydro-1H-isoquinoline-2-carbonyl)-5-methyl-benzamide
> <PUBCHEM_IUPAC_CAS_NAME>
N-[(2S,3S)-4-[2-[(tert-butylamino)-oxomethyl]phenyl]-3-hydroxy-1-phenylbutan-2-yl]-3-[3,4-dihydro-1H-isoquinolin-2-yl(oxo)methyl]-5-methylbenzamide
> <PUBCHEM_IUPAC_NAME_MARKUP>
<I>N</I>-[(2<I>S</I>,3<I>S</I>)-4-[2-(<I>tert</I>-butylcarbamoyl)phenyl]-3-hydroxy-1-phenylbutan-2-yl]-3-(3,4-dihydro-1<I>H</I>-isoquinoline-2-carbonyl)-5-methylbenzamide
> <PUBCHEM_IUPAC_NAME>
N-[(2S,3S)-4-[2-(tert-butylcarbamoyl)phenyl]-3-hydroxy-1-phenylbutan-2-yl]-3-(3,4-dihydro-1H-isoquinoline-2-carbonyl)-5-methylbenzamide
> <PUBCHEM_IUPAC_SYSTEMATIC_NAME>
N-[(2S,3S)-4-[2-(tert-butylcarbamoyl)phenyl]-3-oxidanyl-1-phenyl-butan-2-yl]-3-(3,4-dihydro-1H-isoquinolin-2-ylcarbonyl)-5-methyl-benzamide
> <PUBCHEM_IUPAC_TRADITIONAL_NAME>
N-[(1S,2S)-1-benzyl-3-[2-(tert-butylcarbamoyl)phenyl]-2-hydroxy-propyl]-3-(3,4-dihydro-1H-isoquinoline-2-carbonyl)-5-methyl-benzamide
> <PUBCHEM_IUPAC_INCHI>
InChI=1S/C39H43N3O4/c1-26-20-31(23-32(21-26)38(46)42-19-18-28-14-8-9-16-30(28)25-42)36(44)40-34(22-27-12-6-5-7-13-27)35(43)24-29-15-10-11-17-33(29)37(45)41-39(2,3)4/h5-17,20-21,23,34-35,43H,18-19,22,24-25H2,1-4H3,(H,40,44)(H,41,45)/t34-,35-/m0/s1
> <PUBCHEM_IUPAC_INCHIKEY>
ILFUMFOVCIKJRF-PXLJZGITSA-N
> <PUBCHEM_XLOGP3_AA>
6.2
> <PUBCHEM_EXACT_MASS>
617.32535686
> <PUBCHEM_MOLECULAR_FORMULA>
C39H43N3O4
> <PUBCHEM_MOLECULAR_WEIGHT>
617.8
> <PUBCHEM_OPENEYE_CAN_SMILES>
CC1=CC(=CC(=C1)C(=O)N2CCC3=CC=CC=C3C2)C(=O)NC(CC4=CC=CC=C4)C(CC5=CC=CC=C5C(=O)NC(C)(C)C)O
> <PUBCHEM_OPENEYE_ISO_SMILES>
CC1=CC(=CC(=C1)C(=O)N2CCC3=CC=CC=C3C2)C(=O)N[C@@H](CC4=CC=CC=C4)[C@H](CC5=CC=CC=C5C(=O)NC(C)(C)C)O
> <PUBCHEM_CACTVS_TPSA>
98.7
> <PUBCHEM_MONOISOTOPIC_WEIGHT>
617.32535686
> <PUBCHEM_TOTAL_CHARGE>
0
> <PUBCHEM_HEAVY_ATOM_COUNT>
46
> <PUBCHEM_ATOM_DEF_STEREO_COUNT>
2
> <PUBCHEM_ATOM_UDEF_STEREO_COUNT>
0
> <PUBCHEM_BOND_DEF_STEREO_COUNT>
0
> <PUBCHEM_BOND_UDEF_STEREO_COUNT>
0
> <PUBCHEM_ISOTOPIC_ATOM_COUNT>
0
> <PUBCHEM_COMPONENT_COUNT>
1
> <PUBCHEM_CACTVS_TAUTO_COUNT>
-1
> <PUBCHEM_COORDINATE_TYPE>
1
5
255
> <PUBCHEM_BONDANNOTATIONS>
9  1  5
15  16  8
15  25  8
16  26  8
17  19  8
17  27  8
18  30  8
18  31  8
19  32  8
23  28  8
23  33  8
24  28  8
24  34  8
25  35  8
26  36  8
27  41  8
30  43  8
31  44  8
32  42  8
33  37  8
34  37  8
35  36  8
41  42  8
43  45  8
44  45  8
8  6  5
$$$$
