508221
  -OEChem-10302200282D
 74 76  0     1  0  0  0  0  0999 V2000
   10.0140   -0.6738    0.0000 O   0  0  0  0  0  0  0  0  0  0  0  0
    6.2859   -0.2532    0.0000 O   0  0  0  0  0  0  0  0  0  0  0  0
    8.0460    0.0255    0.0000 O   0  0  0  0  0  0  0  0  0  0  0  0
   11.7741   -0.9526    0.0000 O   0  0  0  0  0  0  0  0  0  0  0  0
    8.9262   -3.0217    0.0000 O   0  0  0  0  0  0  0  0  0  0  0  0
    7.3737    2.0946    0.0000 O   0  0  0  0  0  0  0  0  0  0  0  0
    5.1981    2.0946    0.0000 O   0  0  0  0  0  0  0  0  0  0  0  0
   11.1018   -3.0217    0.0000 O   0  0  0  0  0  0  0  0  0  0  0  0
    2.6237   -0.5925    0.0000 O   0  0  0  0  0  0  0  0  0  0  0  0
    4.3179   -0.9526    0.0000 N   0  0  0  0  0  0  0  0  0  0  0  0
    9.2050   -1.2616    0.0000 C   0  0  1  0  0  0  0  0  0  0  0  0
    9.5140   -2.2127    0.0000 C   0  0  2  0  0  0  0  0  0  0  0  0
    6.7859    1.2856    0.0000 C   0  0  1  0  0  0  0  0  0  0  0  0
    5.7859    1.2856    0.0000 C   0  0  1  0  0  0  0  0  0  0  0  0
    7.0949    0.3346    0.0000 C   0  0  2  0  0  0  0  0  0  0  0  0
    5.4769    0.3346    0.0000 C   0  0  1  0  0  0  0  0  0  0  0  0
   10.5140   -2.2127    0.0000 C   0  0  1  0  0  0  0  0  0  0  0  0
   10.8230   -1.2616    0.0000 C   0  0  2  0  0  0  0  0  0  0  0  0
    8.2539   -0.9526    0.0000 C   0  0  0  0  0  0  0  0  0  0  0  0
    4.5258    0.0255    0.0000 C   0  0  0  0  0  0  0  0  0  0  0  0
   11.9820    0.0255    0.0000 C   0  0  0  0  0  0  0  0  0  0  0  0
   12.9330    0.3346    0.0000 C   0  0  0  0  0  0  0  0  0  0  0  0
   13.1409    1.3127    0.0000 C   0  0  0  0  0  0  0  0  0  0  0  0
   14.0920    1.6217    0.0000 C   0  0  0  0  0  0  0  0  0  0  0  0
   14.2999    2.5999    0.0000 C   0  0  0  0  0  0  0  0  0  0  0  0
    3.3669   -1.2616    0.0000 C   0  0  0  0  0  0  0  0  0  0  0  0
   15.2510    2.9089    0.0000 C   0  0  0  0  0  0  0  0  0  0  0  0
   15.4589    3.8870    0.0000 C   0  0  0  0  0  0  0  0  0  0  0  0
    3.1590   -2.2398    0.0000 C   0  0  0  0  0  0  0  0  0  0  0  0
   16.4099    4.1961    0.0000 C   0  0  0  0  0  0  0  0  0  0  0  0
    3.9021   -2.9089    0.0000 C   0  0  0  0  0  0  0  0  0  0  0  0
    2.2079   -2.5488    0.0000 C   0  0  0  0  0  0  0  0  0  0  0  0
    3.6942   -3.8870    0.0000 C   0  0  0  0  0  0  0  0  0  0  0  0
    2.0000   -3.5269    0.0000 C   0  0  0  0  0  0  0  0  0  0  0  0
    2.7431   -4.1961    0.0000 C   0  0  0  0  0  0  0  0  0  0  0  0
    9.1080   -0.6492    0.0000 H   0  0  0  0  0  0  0  0  0  0  0  0
    8.9016   -2.1157    0.0000 H   0  0  0  0  0  0  0  0  0  0  0  0
    6.5044    1.8380    0.0000 H   0  0  0  0  0  0  0  0  0  0  0  0
    5.1736    1.1886    0.0000 H   0  0  0  0  0  0  0  0  0  0  0  0
    7.5333    0.7730    0.0000 H   0  0  0  0  0  0  0  0  0  0  0  0
    5.3799   -0.2778    0.0000 H   0  0  0  0  0  0  0  0  0  0  0  0
   10.2325   -2.7651    0.0000 H   0  0  0  0  0  0  0  0  0  0  0  0
   11.2614   -1.7000    0.0000 H   0  0  0  0  0  0  0  0  0  0  0  0
    7.6343   -0.9742    0.0000 H   0  0  0  0  0  0  0  0  0  0  0  0
    8.1676   -1.5666    0.0000 H   0  0  0  0  0  0  0  0  0  0  0  0
    4.4396    0.6395    0.0000 H   0  0  0  0  0  0  0  0  0  0  0  0
    3.9062    0.0472    0.0000 H   0  0  0  0  0  0  0  0  0  0  0  0
    9.1784   -3.5881    0.0000 H   0  0  0  0  0  0  0  0  0  0  0  0
    7.9903    2.0298    0.0000 H   0  0  0  0  0  0  0  0  0  0  0  0
    5.4503    2.6610    0.0000 H   0  0  0  0  0  0  0  0  0  0  0  0
   11.7184   -2.9569    0.0000 H   0  0  0  0  0  0  0  0  0  0  0  0
   11.8957    0.6395    0.0000 H   0  0  0  0  0  0  0  0  0  0  0  0
   11.3623    0.0472    0.0000 H   0  0  0  0  0  0  0  0  0  0  0  0
    4.7787   -1.3675    0.0000 H   0  0  0  0  0  0  0  0  0  0  0  0
   13.0193   -0.2794    0.0000 H   0  0  0  0  0  0  0  0  0  0  0  0
   13.5526    0.3129    0.0000 H   0  0  0  0  0  0  0  0  0  0  0  0
   13.0546    1.9267    0.0000 H   0  0  0  0  0  0  0  0  0  0  0  0
   12.5213    1.3344    0.0000 H   0  0  0  0  0  0  0  0  0  0  0  0
   14.1783    1.0078    0.0000 H   0  0  0  0  0  0  0  0  0  0  0  0
   14.7116    1.6001    0.0000 H   0  0  0  0  0  0  0  0  0  0  0  0
   14.2136    3.2138    0.0000 H   0  0  0  0  0  0  0  0  0  0  0  0
   13.6803    2.6215    0.0000 H   0  0  0  0  0  0  0  0  0  0  0  0
   15.3372    2.2949    0.0000 H   0  0  0  0  0  0  0  0  0  0  0  0
   15.8706    2.8873    0.0000 H   0  0  0  0  0  0  0  0  0  0  0  0
   15.3726    4.5010    0.0000 H   0  0  0  0  0  0  0  0  0  0  0  0
   14.8392    3.9087    0.0000 H   0  0  0  0  0  0  0  0  0  0  0  0
   16.6015    3.6064    0.0000 H   0  0  0  0  0  0  0  0  0  0  0  0
   16.9996    4.3876    0.0000 H   0  0  0  0  0  0  0  0  0  0  0  0
   16.2183    4.7857    0.0000 H   0  0  0  0  0  0  0  0  0  0  0  0
    4.4918   -2.7173    0.0000 H   0  0  0  0  0  0  0  0  0  0  0  0
    1.7472   -2.1339    0.0000 H   0  0  0  0  0  0  0  0  0  0  0  0
    4.1550   -4.3019    0.0000 H   0  0  0  0  0  0  0  0  0  0  0  0
    1.4103   -3.7185    0.0000 H   0  0  0  0  0  0  0  0  0  0  0  0
    2.6142   -4.8025    0.0000 H   0  0  0  0  0  0  0  0  0  0  0  0
  1 11  1  0  0  0  0
  1 18  1  0  0  0  0
  2 15  1  0  0  0  0
  2 16  1  0  0  0  0
 15  3  1  1  0  0  0
  3 19  1  0  0  0  0
 18  4  1  6  0  0  0
  4 21  1  0  0  0  0
 12  5  1  6  0  0  0
  5 48  1  0  0  0  0
 13  6  1  6  0  0  0
  6 49  1  0  0  0  0
 14  7  1  1  0  0  0
  7 50  1  0  0  0  0
 17  8  1  1  0  0  0
  8 51  1  0  0  0  0
  9 26  2  0  0  0  0
 10 20  1  0  0  0  0
 10 26  1  0  0  0  0
 10 54  1  0  0  0  0
 11 12  1  0  0  0  0
 11 19  1  1  0  0  0
 11 36  1  0  0  0  0
 12 17  1  0  0  0  0
 12 37  1  0  0  0  0
 13 14  1  0  0  0  0
 13 15  1  0  0  0  0
 13 38  1  0  0  0  0
 14 16  1  0  0  0  0
 14 39  1  0  0  0  0
 15 40  1  0  0  0  0
 16 20  1  6  0  0  0
 16 41  1  0  0  0  0
 17 18  1  0  0  0  0
 17 42  1  0  0  0  0
 18 43  1  0  0  0  0
 19 44  1  0  0  0  0
 19 45  1  0  0  0  0
 20 46  1  0  0  0  0
 20 47  1  0  0  0  0
 21 22  1  0  0  0  0
 21 52  1  0  0  0  0
 21 53  1  0  0  0  0
 22 23  1  0  0  0  0
 22 55  1  0  0  0  0
 22 56  1  0  0  0  0
 23 24  1  0  0  0  0
 23 57  1  0  0  0  0
 23 58  1  0  0  0  0
 24 25  1  0  0  0  0
 24 59  1  0  0  0  0
 24 60  1  0  0  0  0
 25 27  1  0  0  0  0
 25 61  1  0  0  0  0
 25 62  1  0  0  0  0
 26 29  1  0  0  0  0
 27 28  1  0  0  0  0
 27 63  1  0  0  0  0
 27 64  1  0  0  0  0
 28 30  1  0  0  0  0
 28 65  1  0  0  0  0
 28 66  1  0  0  0  0
 29 31  2  0  0  0  0
 29 32  1  0  0  0  0
 30 67  1  0  0  0  0
 30 68  1  0  0  0  0
 30 69  1  0  0  0  0
 31 33  1  0  0  0  0
 31 70  1  0  0  0  0
 32 34  2  0  0  0  0
 32 71  1  0  0  0  0
 33 35  2  0  0  0  0
 33 72  1  0  0  0  0
 34 35  1  0  0  0  0
 34 73  1  0  0  0  0
 35 74  1  0  0  0  0
M  END
> <PUBCHEM_COMPOUND_CID>
508221
> <PUBCHEM_COMPOUND_CANONICALIZED>
1
> <PUBCHEM_CACTVS_COMPLEXITY>
618
> <PUBCHEM_CACTVS_HBOND_ACCEPTOR>
9
> <PUBCHEM_CACTVS_HBOND_DONOR>
5
> <PUBCHEM_CACTVS_ROTATABLE_BOND>
14
> <PUBCHEM_CACTVS_SUBSKEYS>
AAADcfB6PAAAAAAAAAAAAAAAAAAAASJAAAAwAAAAAAAAAAABAAAAHgAQCAAADBTxmAcyCILABgCIAiFSEACCAAAkAAAIiIEIBMgbMDKAlRGnYQhnlgCfiYf4+KqOAAAAAAAAAAAAAAAAAAAAAAAAAAAAAA==
> <PUBCHEM_IUPAC_OPENEYE_NAME>
N-[[(2R,3S,4S,5S)-5-[[(2R,3S,4S,5S)-3,4-dihydroxy-5-octoxy-tetrahydrofuran-2-yl]methoxy]-3,4-dihydroxy-tetrahydrofuran-2-yl]methyl]benzamide
> <PUBCHEM_IUPAC_CAS_NAME>
N-[[(2R,3S,4S,5S)-5-[[(2R,3S,4S,5S)-3,4-dihydroxy-5-octoxy-2-oxolanyl]methoxy]-3,4-dihydroxy-2-oxolanyl]methyl]benzamide
> <PUBCHEM_IUPAC_NAME_MARKUP>
<I>N</I>-[[(2<I>R</I>,3<I>S</I>,4<I>S</I>,5<I>S</I>)-5-[[(2<I>R</I>,3<I>S</I>,4<I>S</I>,5<I>S</I>)-3,4-dihydroxy-5-octoxyoxolan-2-yl]methoxy]-3,4-dihydroxyoxolan-2-yl]methyl]benzamide
> <PUBCHEM_IUPAC_NAME>
N-[[(2R,3S,4S,5S)-5-[[(2R,3S,4S,5S)-3,4-dihydroxy-5-octoxyoxolan-2-yl]methoxy]-3,4-dihydroxyoxolan-2-yl]methyl]benzamide
> <PUBCHEM_IUPAC_SYSTEMATIC_NAME>
N-[[(2R,3S,4S,5S)-5-[[(2R,3S,4S,5S)-5-octoxy-3,4-bis(oxidanyl)oxolan-2-yl]methoxy]-3,4-bis(oxidanyl)oxolan-2-yl]methyl]benzamide
> <PUBCHEM_IUPAC_TRADITIONAL_NAME>
N-[[(2R,3S,4S,5S)-5-[[(2R,3S,4S,5S)-3,4-dihydroxy-5-octoxy-tetrahydrofuran-2-yl]methoxy]-3,4-dihydroxy-tetrahydrofuran-2-yl]methyl]benzamide
> <PUBCHEM_IUPAC_INCHI>
InChI=1S/C25H39NO9/c1-2-3-4-5-6-10-13-32-24-22(30)20(28)18(35-24)15-33-25-21(29)19(27)17(34-25)14-26-23(31)16-11-8-7-9-12-16/h7-9,11-12,17-22,24-25,27-30H,2-6,10,13-15H2,1H3,(H,26,31)/t17-,18-,19-,20-,21+,22+,24+,25+/m1/s1
> <PUBCHEM_IUPAC_INCHIKEY>
TVAWFTHFCJTJFL-AJANZPBKSA-N
> <PUBCHEM_XLOGP3_AA>
2.1
> <PUBCHEM_EXACT_MASS>
497.26248182
> <PUBCHEM_MOLECULAR_FORMULA>
C25H39NO9
> <PUBCHEM_MOLECULAR_WEIGHT>
497.6
> <PUBCHEM_OPENEYE_CAN_SMILES>
CCCCCCCCOC1C(C(C(O1)COC2C(C(C(O2)CNC(=O)C3=CC=CC=C3)O)O)O)O
> <PUBCHEM_OPENEYE_ISO_SMILES>
CCCCCCCCO[C@@H]1[C@H]([C@@H]([C@H](O1)CO[C@@H]2[C@H]([C@@H]([C@H](O2)CNC(=O)C3=CC=CC=C3)O)O)O)O
> <PUBCHEM_CACTVS_TPSA>
147
> <PUBCHEM_MONOISOTOPIC_WEIGHT>
497.26248182
> <PUBCHEM_TOTAL_CHARGE>
0
> <PUBCHEM_HEAVY_ATOM_COUNT>
35
> <PUBCHEM_ATOM_DEF_STEREO_COUNT>
8
> <PUBCHEM_ATOM_UDEF_STEREO_COUNT>
0
> <PUBCHEM_BOND_DEF_STEREO_COUNT>
0
> <PUBCHEM_BOND_UDEF_STEREO_COUNT>
0
> <PUBCHEM_ISOTOPIC_ATOM_COUNT>
0
> <PUBCHEM_COMPONENT_COUNT>
1
> <PUBCHEM_CACTVS_TAUTO_COUNT>
-1
> <PUBCHEM_COORDINATE_TYPE>
1
5
255
> <PUBCHEM_BONDANNOTATIONS>
11  19  5
16  20  6
29  31  8
29  32  8
15  3  5
31  33  8
32  34  8
33  35  8
34  35  8
18  4  6
12  5  6
13  6  6
14  7  5
17  8  5
$$$$
