508291
  -OEChem-10302200282D
 89 92  0     1  0  0  0  0  0999 V2000
    7.1962    2.6550    0.0000 S   0  0  0  0  0  0  0  0  0  0  0  0
    4.5981    1.1550    0.0000 O   0  0  0  0  0  0  0  0  0  0  0  0
    6.6962    3.5210    0.0000 O   0  0  0  0  0  0  0  0  0  0  0  0
    7.6962    1.7890    0.0000 O   0  0  0  0  0  0  0  0  0  0  0  0
    5.4641   -2.3450    0.0000 O   0  0  0  0  0  0  0  0  0  0  0  0
    5.4641   -3.3450    0.0000 O   0  0  0  0  0  0  0  0  0  0  0  0
    8.9282   -3.3450    0.0000 O   0  0  0  0  0  0  0  0  0  0  0  0
    6.3301    2.1550    0.0000 N   0  0  3  0  0  0  0  0  0  0  0  0
    6.3301   -0.8450    0.0000 N   0  0  0  0  0  0  0  0  0  0  0  0
    8.0622   -1.8450    0.0000 N   0  0  0  0  0  0  0  0  0  0  0  0
    6.3301   -4.8450    0.0000 N   0  0  0  0  0  0  0  0  0  0  0  0
    5.4641    0.6550    0.0000 C   0  0  1  0  0  0  0  0  0  0  0  0
    5.4641   -0.3450    0.0000 C   0  0  2  0  0  0  0  0  0  0  0  0
    6.3301    1.1550    0.0000 C   0  0  0  0  0  0  0  0  0  0  0  0
    5.4641    2.6550    0.0000 C   0  0  0  0  0  0  0  0  0  0  0  0
    4.5981   -0.8450    0.0000 C   0  0  0  0  0  0  0  0  0  0  0  0
    5.4641    3.6550    0.0000 C   0  0  0  0  0  0  0  0  0  0  0  0
    4.5981    4.1550    0.0000 C   0  0  0  0  0  0  0  0  0  0  0  0
    3.7320   -0.3450    0.0000 C   0  0  0  0  0  0  0  0  0  0  0  0
    8.0622    3.1550    0.0000 C   0  0  0  0  0  0  0  0  0  0  0  0
    6.3301   -1.8450    0.0000 C   0  0  0  0  0  0  0  0  0  0  0  0
    4.5981    5.1550    0.0000 C   0  0  0  0  0  0  0  0  0  0  0  0
    3.7320    3.6550    0.0000 C   0  0  0  0  0  0  0  0  0  0  0  0
    7.1962   -2.3450    0.0000 C   0  0  2  0  0  0  0  0  0  0  0  0
    3.7320    0.6550    0.0000 C   0  0  0  0  0  0  0  0  0  0  0  0
    2.8660   -0.8450    0.0000 C   0  0  0  0  0  0  0  0  0  0  0  0
    7.1962   -3.3450    0.0000 C   0  0  0  0  0  0  0  0  0  0  0  0
    8.9282    2.6550    0.0000 C   0  0  0  0  0  0  0  0  0  0  0  0
    8.0622    4.1550    0.0000 C   0  0  0  0  0  0  0  0  0  0  0  0
    2.8660    1.1550    0.0000 C   0  0  0  0  0  0  0  0  0  0  0  0
    2.0000   -0.3450    0.0000 C   0  0  0  0  0  0  0  0  0  0  0  0
    9.7942    3.1550    0.0000 C   0  0  0  0  0  0  0  0  0  0  0  0
    8.9282    4.6550    0.0000 C   0  0  0  0  0  0  0  0  0  0  0  0
    2.0000    0.6550    0.0000 C   0  0  0  0  0  0  0  0  0  0  0  0
    6.3301   -3.8450    0.0000 C   0  0  0  0  0  0  0  0  0  0  0  0
    8.9282   -2.3450    0.0000 C   0  0  0  0  0  0  0  0  0  0  0  0
    9.7942    4.1550    0.0000 C   0  0  0  0  0  0  0  0  0  0  0  0
    9.7942   -1.8450    0.0000 C   0  0  0  0  0  0  0  0  0  0  0  0
   10.6603   -2.3450    0.0000 C   0  0  0  0  0  0  0  0  0  0  0  0
    9.7942   -0.8450    0.0000 C   0  0  0  0  0  0  0  0  0  0  0  0
   11.5263   -1.8450    0.0000 C   0  0  0  0  0  0  0  0  0  0  0  0
   11.5263   -0.8450    0.0000 C   0  0  0  0  0  0  0  0  0  0  0  0
   10.6603   -0.3450    0.0000 C   0  0  0  0  0  0  0  0  0  0  0  0
   12.4202   -2.3797    0.0000 C   0  0  0  0  0  0  0  0  0  0  0  0
   12.4202   -0.3103    0.0000 C   0  0  0  0  0  0  0  0  0  0  0  0
   13.3263   -1.8658    0.0000 C   0  0  0  0  0  0  0  0  0  0  0  0
   13.3263   -0.8242    0.0000 C   0  0  0  0  0  0  0  0  0  0  0  0
    5.4641    1.2750    0.0000 H   0  0  0  0  0  0  0  0  0  0  0  0
    5.4641   -0.9650    0.0000 H   0  0  0  0  0  0  0  0  0  0  0  0
    6.5422    0.5724    0.0000 H   0  0  0  0  0  0  0  0  0  0  0  0
    6.9407    1.2627    0.0000 H   0  0  0  0  0  0  0  0  0  0  0  0
    4.8535    2.7627    0.0000 H   0  0  0  0  0  0  0  0  0  0  0  0
    5.2520    2.0724    0.0000 H   0  0  0  0  0  0  0  0  0  0  0  0
    4.1996   -1.3200    0.0000 H   0  0  0  0  0  0  0  0  0  0  0  0
    4.9966   -1.3200    0.0000 H   0  0  0  0  0  0  0  0  0  0  0  0
    6.0747    3.5473    0.0000 H   0  0  0  0  0  0  0  0  0  0  0  0
    5.6762    4.2376    0.0000 H   0  0  0  0  0  0  0  0  0  0  0  0
    5.1350    4.4650    0.0000 H   0  0  0  0  0  0  0  0  0  0  0  0
    6.8671   -0.5350    0.0000 H   0  0  0  0  0  0  0  0  0  0  0  0
    4.5981    1.7750    0.0000 H   0  0  0  0  0  0  0  0  0  0  0  0
    5.2181    5.1550    0.0000 H   0  0  0  0  0  0  0  0  0  0  0  0
    4.5981    5.7750    0.0000 H   0  0  0  0  0  0  0  0  0  0  0  0
    3.9781    5.1550    0.0000 H   0  0  0  0  0  0  0  0  0  0  0  0
    3.4220    4.1919    0.0000 H   0  0  0  0  0  0  0  0  0  0  0  0
    3.1951    3.3450    0.0000 H   0  0  0  0  0  0  0  0  0  0  0  0
    4.0420    3.1181    0.0000 H   0  0  0  0  0  0  0  0  0  0  0  0
    7.7331   -2.6550    0.0000 H   0  0  0  0  0  0  0  0  0  0  0  0
    4.2690    0.9650    0.0000 H   0  0  0  0  0  0  0  0  0  0  0  0
    2.8660   -1.4650    0.0000 H   0  0  0  0  0  0  0  0  0  0  0  0
    7.4082   -3.9276    0.0000 H   0  0  0  0  0  0  0  0  0  0  0  0
    7.8067   -3.2373    0.0000 H   0  0  0  0  0  0  0  0  0  0  0  0
    8.9282    2.0350    0.0000 H   0  0  0  0  0  0  0  0  0  0  0  0
    7.5252    4.4650    0.0000 H   0  0  0  0  0  0  0  0  0  0  0  0
    8.0622   -1.2250    0.0000 H   0  0  0  0  0  0  0  0  0  0  0  0
    2.8660    1.7750    0.0000 H   0  0  0  0  0  0  0  0  0  0  0  0
    1.4631   -0.6550    0.0000 H   0  0  0  0  0  0  0  0  0  0  0  0
   10.3312    2.8450    0.0000 H   0  0  0  0  0  0  0  0  0  0  0  0
    8.9282    5.2750    0.0000 H   0  0  0  0  0  0  0  0  0  0  0  0
    1.4631    0.9650    0.0000 H   0  0  0  0  0  0  0  0  0  0  0  0
   10.3312    4.4650    0.0000 H   0  0  0  0  0  0  0  0  0  0  0  0
    5.7932   -5.1550    0.0000 H   0  0  0  0  0  0  0  0  0  0  0  0
    6.8671   -5.1550    0.0000 H   0  0  0  0  0  0  0  0  0  0  0  0
   10.6603   -2.9650    0.0000 H   0  0  0  0  0  0  0  0  0  0  0  0
    9.2573   -0.5350    0.0000 H   0  0  0  0  0  0  0  0  0  0  0  0
   10.6603    0.2750    0.0000 H   0  0  0  0  0  0  0  0  0  0  0  0
   12.4131   -2.9996    0.0000 H   0  0  0  0  0  0  0  0  0  0  0  0
   12.4131    0.3096    0.0000 H   0  0  0  0  0  0  0  0  0  0  0  0
   13.8620   -2.1779    0.0000 H   0  0  0  0  0  0  0  0  0  0  0  0
   13.8620   -0.5121    0.0000 H   0  0  0  0  0  0  0  0  0  0  0  0
  1  3  2  0  0  0  0
  1  4  2  0  0  0  0
  1  8  1  0  0  0  0
  1 20  1  0  0  0  0
 12  2  1  6  0  0  0
  2 60  1  0  0  0  0
  5 21  2  0  0  0  0
  6 35  2  0  0  0  0
  7 36  2  0  0  0  0
  8 14  1  0  0  0  0
  8 15  1  0  0  0  0
 13  9  1  1  0  0  0
  9 21  1  0  0  0  0
  9 59  1  0  0  0  0
 24 10  1  1  0  0  0
 10 36  1  0  0  0  0
 10 74  1  0  0  0  0
 11 35  1  0  0  0  0
 11 81  1  0  0  0  0
 11 82  1  0  0  0  0
 12 13  1  0  0  0  0
 12 14  1  0  0  0  0
 12 48  1  0  0  0  0
 13 16  1  0  0  0  0
 13 49  1  0  0  0  0
 14 50  1  0  0  0  0
 14 51  1  0  0  0  0
 15 17  1  0  0  0  0
 15 52  1  0  0  0  0
 15 53  1  0  0  0  0
 16 19  1  0  0  0  0
 16 54  1  0  0  0  0
 16 55  1  0  0  0  0
 17 18  1  0  0  0  0
 17 56  1  0  0  0  0
 17 57  1  0  0  0  0
 18 22  1  0  0  0  0
 18 23  1  0  0  0  0
 18 58  1  0  0  0  0
 19 25  2  0  0  0  0
 19 26  1  0  0  0  0
 20 28  2  0  0  0  0
 20 29  1  0  0  0  0
 21 24  1  0  0  0  0
 22 61  1  0  0  0  0
 22 62  1  0  0  0  0
 22 63  1  0  0  0  0
 23 64  1  0  0  0  0
 23 65  1  0  0  0  0
 23 66  1  0  0  0  0
 24 27  1  0  0  0  0
 24 67  1  0  0  0  0
 25 30  1  0  0  0  0
 25 68  1  0  0  0  0
 26 31  2  0  0  0  0
 26 69  1  0  0  0  0
 27 35  1  0  0  0  0
 27 70  1  0  0  0  0
 27 71  1  0  0  0  0
 28 32  1  0  0  0  0
 28 72  1  0  0  0  0
 29 33  2  0  0  0  0
 29 73  1  0  0  0  0
 30 34  2  0  0  0  0
 30 75  1  0  0  0  0
 31 34  1  0  0  0  0
 31 76  1  0  0  0  0
 32 37  2  0  0  0  0
 32 77  1  0  0  0  0
 33 37  1  0  0  0  0
 33 78  1  0  0  0  0
 34 79  1  0  0  0  0
 36 38  1  0  0  0  0
 37 80  1  0  0  0  0
 38 39  2  0  0  0  0
 38 40  1  0  0  0  0
 39 41  1  0  0  0  0
 39 83  1  0  0  0  0
 40 43  2  0  0  0  0
 40 84  1  0  0  0  0
 41 42  1  0  0  0  0
 41 44  2  0  0  0  0
 42 43  1  0  0  0  0
 42 45  2  0  0  0  0
 43 85  1  0  0  0  0
 44 46  1  0  0  0  0
 44 86  1  0  0  0  0
 45 47  1  0  0  0  0
 45 87  1  0  0  0  0
 46 47  2  0  0  0  0
 46 88  1  0  0  0  0
 47 89  1  0  0  0  0
M  END
> <PUBCHEM_COMPOUND_CID>
508291
> <PUBCHEM_COMPOUND_CANONICALIZED>
1
> <PUBCHEM_CACTVS_COMPLEXITY>
1120
> <PUBCHEM_CACTVS_HBOND_ACCEPTOR>
7
> <PUBCHEM_CACTVS_HBOND_DONOR>
4
> <PUBCHEM_CACTVS_ROTATABLE_BOND>
16
> <PUBCHEM_CACTVS_SUBSKEYS>
AAADcfB/uABAAAAAAAAAAAAAAAAAAAAAAAAwYMGAAAAAAADBVAAAHgQQSAAADTzh2AYyAcLAAgKIAiFSEHDCABAkAAAIiJmIBMgKcDqA1TGUYQhklgCYiYedyOCOwAACAAAQAACAAAQAACAAAAAAAAAAAA==
> <PUBCHEM_IUPAC_OPENEYE_NAME>
(2S)-N-[(1S,2R)-3-[benzenesulfonyl(isopentyl)amino]-1-benzyl-2-hydroxy-propyl]-2-(naphthalene-2-carbonylamino)butanediamide
> <PUBCHEM_IUPAC_CAS_NAME>
(2S)-N-[(2S,3R)-4-[benzenesulfonyl(3-methylbutyl)amino]-3-hydroxy-1-phenylbutan-2-yl]-2-[[2-naphthalenyl(oxo)methyl]amino]butanediamide
> <PUBCHEM_IUPAC_NAME_MARKUP>
(2<I>S</I>)-<I>N</I>-[(2<I>S</I>,3<I>R</I>)-4-[benzenesulfonyl(3-methylbutyl)amino]-3-hydroxy-1-phenylbutan-2-yl]-2-(naphthalene-2-carbonylamino)butanediamide
> <PUBCHEM_IUPAC_NAME>
(2S)-N-[(2S,3R)-4-[benzenesulfonyl(3-methylbutyl)amino]-3-hydroxy-1-phenylbutan-2-yl]-2-(naphthalene-2-carbonylamino)butanediamide
> <PUBCHEM_IUPAC_SYSTEMATIC_NAME>
(2S)-N-[(2S,3R)-4-[3-methylbutyl(phenylsulfonyl)amino]-3-oxidanyl-1-phenyl-butan-2-yl]-2-(naphthalen-2-ylcarbonylamino)butanediamide
> <PUBCHEM_IUPAC_TRADITIONAL_NAME>
(2S)-N-[(1S,2R)-1-benzyl-3-[besyl(isoamyl)amino]-2-hydroxy-propyl]-2-(2-naphthoylamino)succinamide
> <PUBCHEM_IUPAC_INCHI>
InChI=1S/C36H42N4O6S/c1-25(2)19-20-40(47(45,46)30-15-7-4-8-16-30)24-33(41)31(21-26-11-5-3-6-12-26)38-36(44)32(23-34(37)42)39-35(43)29-18-17-27-13-9-10-14-28(27)22-29/h3-18,22,25,31-33,41H,19-21,23-24H2,1-2H3,(H2,37,42)(H,38,44)(H,39,43)/t31-,32-,33+/m0/s1
> <PUBCHEM_IUPAC_INCHIKEY>
YDSOZURPALRPIK-XFCANUNOSA-N
> <PUBCHEM_XLOGP3_AA>
4.6
> <PUBCHEM_EXACT_MASS>
658.28250625
> <PUBCHEM_MOLECULAR_FORMULA>
C36H42N4O6S
> <PUBCHEM_MOLECULAR_WEIGHT>
658.8
> <PUBCHEM_OPENEYE_CAN_SMILES>
CC(C)CCN(CC(C(CC1=CC=CC=C1)NC(=O)C(CC(=O)N)NC(=O)C2=CC3=CC=CC=C3C=C2)O)S(=O)(=O)C4=CC=CC=C4
> <PUBCHEM_OPENEYE_ISO_SMILES>
CC(C)CCN(C[C@H]([C@H](CC1=CC=CC=C1)NC(=O)[C@H](CC(=O)N)NC(=O)C2=CC3=CC=CC=C3C=C2)O)S(=O)(=O)C4=CC=CC=C4
> <PUBCHEM_CACTVS_TPSA>
167
> <PUBCHEM_MONOISOTOPIC_WEIGHT>
658.28250625
> <PUBCHEM_TOTAL_CHARGE>
0
> <PUBCHEM_HEAVY_ATOM_COUNT>
47
> <PUBCHEM_ATOM_DEF_STEREO_COUNT>
3
> <PUBCHEM_ATOM_UDEF_STEREO_COUNT>
0
> <PUBCHEM_BOND_DEF_STEREO_COUNT>
0
> <PUBCHEM_BOND_UDEF_STEREO_COUNT>
0
> <PUBCHEM_ISOTOPIC_ATOM_COUNT>
0
> <PUBCHEM_COMPONENT_COUNT>
1
> <PUBCHEM_CACTVS_TAUTO_COUNT>
-1
> <PUBCHEM_COORDINATE_TYPE>
1
5
255
> <PUBCHEM_BONDANNOTATIONS>
24  10  5
19  25  8
19  26  8
12  2  6
20  28  8
20  29  8
25  30  8
26  31  8
28  32  8
29  33  8
30  34  8
31  34  8
32  37  8
33  37  8
38  39  8
38  40  8
39  41  8
40  43  8
41  42  8
41  44  8
42  43  8
42  45  8
44  46  8
45  47  8
46  47  8
13  9  5
$$$$
