508299
  -OEChem-10302200282D
 63 64  0     1  0  0  0  0  0999 V2000
    5.4641    2.5000    0.0000 S   0  0  0  0  0  0  0  0  0  0  0  0
    2.8660    1.0000    0.0000 O   0  0  0  0  0  0  0  0  0  0  0  0
    4.9641    3.3660    0.0000 O   0  0  0  0  0  0  0  0  0  0  0  0
    5.9641    1.6340    0.0000 O   0  0  0  0  0  0  0  0  0  0  0  0
    6.3301   -1.0000    0.0000 O   0  0  0  0  0  0  0  0  0  0  0  0
    5.4641    0.5000    0.0000 O   0  0  0  0  0  0  0  0  0  0  0  0
    4.5981    2.0000    0.0000 N   0  0  3  0  0  0  0  0  0  0  0  0
    4.5981   -1.0000    0.0000 N   0  0  0  0  0  0  0  0  0  0  0  0
    3.7320    0.5000    0.0000 C   0  0  1  0  0  0  0  0  0  0  0  0
    3.7320   -0.5000    0.0000 C   0  0  2  0  0  0  0  0  0  0  0  0
    4.5981    1.0000    0.0000 C   0  0  0  0  0  0  0  0  0  0  0  0
    3.7320    2.5000    0.0000 C   0  0  0  0  0  0  0  0  0  0  0  0
    3.7320    3.5000    0.0000 C   0  0  0  0  0  0  0  0  0  0  0  0
    2.8660   -1.0000    0.0000 C   0  0  0  0  0  0  0  0  0  0  0  0
    2.8660   -2.0000    0.0000 C   0  0  0  0  0  0  0  0  0  0  0  0
    2.8660    4.0000    0.0000 C   0  0  0  0  0  0  0  0  0  0  0  0
    4.5981    4.0000    0.0000 C   0  0  0  0  0  0  0  0  0  0  0  0
    6.3301    3.0000    0.0000 C   0  0  0  0  0  0  0  0  0  0  0  0
    5.4641   -0.5000    0.0000 C   0  0  0  0  0  0  0  0  0  0  0  0
    3.7320   -2.5000    0.0000 C   0  0  0  0  0  0  0  0  0  0  0  0
    2.0000   -2.5000    0.0000 C   0  0  0  0  0  0  0  0  0  0  0  0
    3.7320   -3.5000    0.0000 C   0  0  0  0  0  0  0  0  0  0  0  0
    2.0000   -3.5000    0.0000 C   0  0  0  0  0  0  0  0  0  0  0  0
    2.8660   -4.0000    0.0000 C   0  0  0  0  0  0  0  0  0  0  0  0
    7.1962   -0.5000    0.0000 C   0  0  0  0  0  0  0  0  0  0  0  0
    8.0622   -1.0000    0.0000 C   0  0  0  0  0  0  0  0  0  0  0  0
    8.9282   -0.5000    0.0000 C   0  0  0  0  0  0  0  0  0  0  0  0
    8.0622   -2.0000    0.0000 C   0  0  0  0  0  0  0  0  0  0  0  0
    9.7942   -1.0000    0.0000 C   0  0  0  0  0  0  0  0  0  0  0  0
    8.9282   -2.5000    0.0000 C   0  0  0  0  0  0  0  0  0  0  0  0
    9.7942   -2.0000    0.0000 C   0  0  0  0  0  0  0  0  0  0  0  0
    3.7320    1.1200    0.0000 H   0  0  0  0  0  0  0  0  0  0  0  0
    3.7320   -1.1200    0.0000 H   0  0  0  0  0  0  0  0  0  0  0  0
    4.8101    0.4174    0.0000 H   0  0  0  0  0  0  0  0  0  0  0  0
    5.2087    1.1077    0.0000 H   0  0  0  0  0  0  0  0  0  0  0  0
    3.1215    2.6077    0.0000 H   0  0  0  0  0  0  0  0  0  0  0  0
    3.5200    1.9174    0.0000 H   0  0  0  0  0  0  0  0  0  0  0  0
    3.7320    4.1200    0.0000 H   0  0  0  0  0  0  0  0  0  0  0  0
    2.6540   -0.4174    0.0000 H   0  0  0  0  0  0  0  0  0  0  0  0
    2.2554   -1.1077    0.0000 H   0  0  0  0  0  0  0  0  0  0  0  0
    4.5981   -1.6200    0.0000 H   0  0  0  0  0  0  0  0  0  0  0  0
    3.1760    4.5369    0.0000 H   0  0  0  0  0  0  0  0  0  0  0  0
    2.3291    4.3100    0.0000 H   0  0  0  0  0  0  0  0  0  0  0  0
    2.5560    3.4631    0.0000 H   0  0  0  0  0  0  0  0  0  0  0  0
    4.9081    3.4631    0.0000 H   0  0  0  0  0  0  0  0  0  0  0  0
    5.1350    4.3100    0.0000 H   0  0  0  0  0  0  0  0  0  0  0  0
    4.2881    4.5369    0.0000 H   0  0  0  0  0  0  0  0  0  0  0  0
    2.8660    1.6200    0.0000 H   0  0  0  0  0  0  0  0  0  0  0  0
    6.6401    2.4631    0.0000 H   0  0  0  0  0  0  0  0  0  0  0  0
    6.8671    3.3100    0.0000 H   0  0  0  0  0  0  0  0  0  0  0  0
    6.0201    3.5369    0.0000 H   0  0  0  0  0  0  0  0  0  0  0  0
    4.2690   -2.1900    0.0000 H   0  0  0  0  0  0  0  0  0  0  0  0
    1.4631   -2.1900    0.0000 H   0  0  0  0  0  0  0  0  0  0  0  0
    4.2690   -3.8100    0.0000 H   0  0  0  0  0  0  0  0  0  0  0  0
    1.4631   -3.8100    0.0000 H   0  0  0  0  0  0  0  0  0  0  0  0
    2.8660   -4.6200    0.0000 H   0  0  0  0  0  0  0  0  0  0  0  0
    7.5947   -0.0251    0.0000 H   0  0  0  0  0  0  0  0  0  0  0  0
    6.7976   -0.0251    0.0000 H   0  0  0  0  0  0  0  0  0  0  0  0
    8.9282    0.1200    0.0000 H   0  0  0  0  0  0  0  0  0  0  0  0
    7.5252   -2.3100    0.0000 H   0  0  0  0  0  0  0  0  0  0  0  0
   10.3312   -0.6900    0.0000 H   0  0  0  0  0  0  0  0  0  0  0  0
    8.9282   -3.1200    0.0000 H   0  0  0  0  0  0  0  0  0  0  0  0
   10.3312   -2.3100    0.0000 H   0  0  0  0  0  0  0  0  0  0  0  0
  1  3  2  0  0  0  0
  1  4  2  0  0  0  0
  1  7  1  0  0  0  0
  1 18  1  0  0  0  0
  9  2  1  6  0  0  0
  2 48  1  0  0  0  0
  5 19  1  0  0  0  0
  5 25  1  0  0  0  0
  6 19  2  0  0  0  0
  7 11  1  0  0  0  0
  7 12  1  0  0  0  0
 10  8  1  1  0  0  0
  8 19  1  0  0  0  0
  8 41  1  0  0  0  0
  9 10  1  0  0  0  0
  9 11  1  0  0  0  0
  9 32  1  0  0  0  0
 10 14  1  0  0  0  0
 10 33  1  0  0  0  0
 11 34  1  0  0  0  0
 11 35  1  0  0  0  0
 12 13  1  0  0  0  0
 12 36  1  0  0  0  0
 12 37  1  0  0  0  0
 13 16  1  0  0  0  0
 13 17  1  0  0  0  0
 13 38  1  0  0  0  0
 14 15  1  0  0  0  0
 14 39  1  0  0  0  0
 14 40  1  0  0  0  0
 15 20  2  0  0  0  0
 15 21  1  0  0  0  0
 16 42  1  0  0  0  0
 16 43  1  0  0  0  0
 16 44  1  0  0  0  0
 17 45  1  0  0  0  0
 17 46  1  0  0  0  0
 17 47  1  0  0  0  0
 18 49  1  0  0  0  0
 18 50  1  0  0  0  0
 18 51  1  0  0  0  0
 20 22  1  0  0  0  0
 20 52  1  0  0  0  0
 21 23  2  0  0  0  0
 21 53  1  0  0  0  0
 22 24  2  0  0  0  0
 22 54  1  0  0  0  0
 23 24  1  0  0  0  0
 23 55  1  0  0  0  0
 24 56  1  0  0  0  0
 25 26  1  0  0  0  0
 25 57  1  0  0  0  0
 25 58  1  0  0  0  0
 26 27  2  0  0  0  0
 26 28  1  0  0  0  0
 27 29  1  0  0  0  0
 27 59  1  0  0  0  0
 28 30  2  0  0  0  0
 28 60  1  0  0  0  0
 29 31  2  0  0  0  0
 29 61  1  0  0  0  0
 30 31  1  0  0  0  0
 30 62  1  0  0  0  0
 31 63  1  0  0  0  0
M  END
> <PUBCHEM_COMPOUND_CID>
508299
> <PUBCHEM_COMPOUND_CANONICALIZED>
1
> <PUBCHEM_CACTVS_COMPLEXITY>
622
> <PUBCHEM_CACTVS_HBOND_ACCEPTOR>
6
> <PUBCHEM_CACTVS_HBOND_DONOR>
2
> <PUBCHEM_CACTVS_ROTATABLE_BOND>
12
> <PUBCHEM_CACTVS_SUBSKEYS>
AAADcfB7OABAAAAAAAAAAAAAAAAAAAAAAAAwYAAAAAAAAAABQAAAHgQQSAAADTzhmAayCILABgKIAiBCGHACAAAgAAAIiIAICIkKNiKA8RmMcAAk1gGYqAeQwKAOAAAAAAAAAAAAAAAAAAAAAAAAAAAAAA==
> <PUBCHEM_IUPAC_OPENEYE_NAME>
benzyl N-[(1S,2R)-1-benzyl-2-hydroxy-3-[isobutyl(methylsulfonyl)amino]propyl]carbamate
> <PUBCHEM_IUPAC_CAS_NAME>
N-[(2S,3R)-3-hydroxy-4-[2-methylpropyl(methylsulfonyl)amino]-1-phenylbutan-2-yl]carbamic acid (phenylmethyl) ester
> <PUBCHEM_IUPAC_NAME_MARKUP>
benzyl <I>N</I>-[(2<I>S</I>,3<I>R</I>)-3-hydroxy-4-[2-methylpropyl(methylsulfonyl)amino]-1-phenylbutan-2-yl]carbamate
> <PUBCHEM_IUPAC_NAME>
benzyl N-[(2S,3R)-3-hydroxy-4-[2-methylpropyl(methylsulfonyl)amino]-1-phenylbutan-2-yl]carbamate
> <PUBCHEM_IUPAC_SYSTEMATIC_NAME>
(phenylmethyl) N-[(2S,3R)-4-[2-methylpropyl(methylsulfonyl)amino]-3-oxidanyl-1-phenyl-butan-2-yl]carbamate
> <PUBCHEM_IUPAC_TRADITIONAL_NAME>
N-[(1S,2R)-1-benzyl-2-hydroxy-3-[isobutyl(mesyl)amino]propyl]carbamic acid benzyl ester
> <PUBCHEM_IUPAC_INCHI>
InChI=1S/C23H32N2O5S/c1-18(2)15-25(31(3,28)29)16-22(26)21(14-19-10-6-4-7-11-19)24-23(27)30-17-20-12-8-5-9-13-20/h4-13,18,21-22,26H,14-17H2,1-3H3,(H,24,27)/t21-,22+/m0/s1
> <PUBCHEM_IUPAC_INCHIKEY>
JALUUNAXBDIXSS-FCHUYYIVSA-N
> <PUBCHEM_XLOGP3_AA>
3.5
> <PUBCHEM_EXACT_MASS>
448.20319330
> <PUBCHEM_MOLECULAR_FORMULA>
C23H32N2O5S
> <PUBCHEM_MOLECULAR_WEIGHT>
448.6
> <PUBCHEM_OPENEYE_CAN_SMILES>
CC(C)CN(CC(C(CC1=CC=CC=C1)NC(=O)OCC2=CC=CC=C2)O)S(=O)(=O)C
> <PUBCHEM_OPENEYE_ISO_SMILES>
CC(C)CN(C[C@H]([C@H](CC1=CC=CC=C1)NC(=O)OCC2=CC=CC=C2)O)S(=O)(=O)C
> <PUBCHEM_CACTVS_TPSA>
104
> <PUBCHEM_MONOISOTOPIC_WEIGHT>
448.20319330
> <PUBCHEM_TOTAL_CHARGE>
0
> <PUBCHEM_HEAVY_ATOM_COUNT>
31
> <PUBCHEM_ATOM_DEF_STEREO_COUNT>
2
> <PUBCHEM_ATOM_UDEF_STEREO_COUNT>
0
> <PUBCHEM_BOND_DEF_STEREO_COUNT>
0
> <PUBCHEM_BOND_UDEF_STEREO_COUNT>
0
> <PUBCHEM_ISOTOPIC_ATOM_COUNT>
0
> <PUBCHEM_COMPONENT_COUNT>
1
> <PUBCHEM_CACTVS_TAUTO_COUNT>
-1
> <PUBCHEM_COORDINATE_TYPE>
1
5
255
> <PUBCHEM_BONDANNOTATIONS>
15  20  8
15  21  8
9  2  6
20  22  8
21  23  8
22  24  8
23  24  8
26  27  8
26  28  8
27  29  8
28  30  8
29  31  8
30  31  8
10  8  5
$$$$
