508269
  -OEChem-10302200282D
 73 75  0     1  0  0  0  0  0999 V2000
    4.5981   -1.2694    0.0000 S   0  0  0  0  0  0  0  0  0  0  0  0
    4.5981    1.7306    0.0000 O   0  0  0  0  0  0  0  0  0  0  0  0
    4.5981    2.7306    0.0000 O   0  0  0  0  0  0  0  0  0  0  0  0
    5.5981   -1.2694    0.0000 O   0  0  0  0  0  0  0  0  0  0  0  0
    3.5981   -1.2694    0.0000 O   0  0  0  0  0  0  0  0  0  0  0  0
    4.5981   -5.2694    0.0000 O   0  0  0  0  0  0  0  0  0  0  0  0
    6.3301    2.7306    0.0000 N   0  0  0  0  0  0  0  0  0  0  0  0
    4.5981   -0.2694    0.0000 N   0  0  3  0  0  0  0  0  0  0  0  0
    5.4641    4.2306    0.0000 C   0  0  0  0  0  0  0  0  0  0  0  0
    6.2731    4.8184    0.0000 C   0  0  0  0  0  0  0  0  0  0  0  0
    4.6551    4.8184    0.0000 C   0  0  0  0  0  0  0  0  0  0  0  0
    5.9641    5.7694    0.0000 C   0  0  0  0  0  0  0  0  0  0  0  0
    4.9641    5.7694    0.0000 C   0  0  0  0  0  0  0  0  0  0  0  0
    6.3301    1.7306    0.0000 C   0  0  2  0  0  0  0  0  0  0  0  0
    5.4641    3.2306    0.0000 C   0  0  0  0  0  0  0  0  0  0  0  0
    5.4641    1.2306    0.0000 C   0  0  1  0  0  0  0  0  0  0  0  0
    5.4641    0.2306    0.0000 C   0  0  0  0  0  0  0  0  0  0  0  0
    7.1962    1.2306    0.0000 C   0  0  0  0  0  0  0  0  0  0  0  0
    3.7320    0.2306    0.0000 C   0  0  0  0  0  0  0  0  0  0  0  0
    2.8660   -0.2694    0.0000 C   0  0  0  0  0  0  0  0  0  0  0  0
    8.0622    1.7306    0.0000 C   0  0  0  0  0  0  0  0  0  0  0  0
    4.5981   -2.2694    0.0000 C   0  0  0  0  0  0  0  0  0  0  0  0
    2.0000    0.2306    0.0000 C   0  0  0  0  0  0  0  0  0  0  0  0
    2.8660   -1.2694    0.0000 C   0  0  0  0  0  0  0  0  0  0  0  0
    8.0622    2.7306    0.0000 C   0  0  0  0  0  0  0  0  0  0  0  0
    8.9282    1.2306    0.0000 C   0  0  0  0  0  0  0  0  0  0  0  0
    3.7320   -2.7694    0.0000 C   0  0  0  0  0  0  0  0  0  0  0  0
    5.4641   -2.7694    0.0000 C   0  0  0  0  0  0  0  0  0  0  0  0
    8.9282    3.2306    0.0000 C   0  0  0  0  0  0  0  0  0  0  0  0
    9.7942    1.7306    0.0000 C   0  0  0  0  0  0  0  0  0  0  0  0
    9.7942    2.7306    0.0000 C   0  0  0  0  0  0  0  0  0  0  0  0
    3.7320   -3.7694    0.0000 C   0  0  0  0  0  0  0  0  0  0  0  0
    5.4641   -3.7694    0.0000 C   0  0  0  0  0  0  0  0  0  0  0  0
    4.5981   -4.2694    0.0000 C   0  0  0  0  0  0  0  0  0  0  0  0
    3.7320   -5.7694    0.0000 C   0  0  0  0  0  0  0  0  0  0  0  0
    6.0165    3.9491    0.0000 H   0  0  0  0  0  0  0  0  0  0  0  0
    6.5831    4.2814    0.0000 H   0  0  0  0  0  0  0  0  0  0  0  0
    6.8395    5.0705    0.0000 H   0  0  0  0  0  0  0  0  0  0  0  0
    4.0887    5.0705    0.0000 H   0  0  0  0  0  0  0  0  0  0  0  0
    4.3451    4.2814    0.0000 H   0  0  0  0  0  0  0  0  0  0  0  0
    6.5706    5.8983    0.0000 H   0  0  0  0  0  0  0  0  0  0  0  0
    5.8993    6.3860    0.0000 H   0  0  0  0  0  0  0  0  0  0  0  0
    5.0289    6.3860    0.0000 H   0  0  0  0  0  0  0  0  0  0  0  0
    4.3576    5.8983    0.0000 H   0  0  0  0  0  0  0  0  0  0  0  0
    6.8671    2.0406    0.0000 H   0  0  0  0  0  0  0  0  0  0  0  0
    5.4641    1.8506    0.0000 H   0  0  0  0  0  0  0  0  0  0  0  0
    6.8671    3.0406    0.0000 H   0  0  0  0  0  0  0  0  0  0  0  0
    5.6762   -0.3520    0.0000 H   0  0  0  0  0  0  0  0  0  0  0  0
    6.0747    0.3382    0.0000 H   0  0  0  0  0  0  0  0  0  0  0  0
    6.7976    0.7556    0.0000 H   0  0  0  0  0  0  0  0  0  0  0  0
    7.5947    0.7556    0.0000 H   0  0  0  0  0  0  0  0  0  0  0  0
    4.1306    0.7055    0.0000 H   0  0  0  0  0  0  0  0  0  0  0  0
    3.3335    0.7055    0.0000 H   0  0  0  0  0  0  0  0  0  0  0  0
    2.8660    0.3506    0.0000 H   0  0  0  0  0  0  0  0  0  0  0  0
    4.0611    1.4206    0.0000 H   0  0  0  0  0  0  0  0  0  0  0  0
    2.3100    0.7675    0.0000 H   0  0  0  0  0  0  0  0  0  0  0  0
    1.4631    0.5406    0.0000 H   0  0  0  0  0  0  0  0  0  0  0  0
    1.6900   -0.3064    0.0000 H   0  0  0  0  0  0  0  0  0  0  0  0
    2.2460   -1.2694    0.0000 H   0  0  0  0  0  0  0  0  0  0  0  0
    2.8660   -1.8894    0.0000 H   0  0  0  0  0  0  0  0  0  0  0  0
    3.4860   -1.2694    0.0000 H   0  0  0  0  0  0  0  0  0  0  0  0
    7.5252    3.0406    0.0000 H   0  0  0  0  0  0  0  0  0  0  0  0
    8.9282    0.6106    0.0000 H   0  0  0  0  0  0  0  0  0  0  0  0
    3.1951   -2.4594    0.0000 H   0  0  0  0  0  0  0  0  0  0  0  0
    6.0010   -2.4594    0.0000 H   0  0  0  0  0  0  0  0  0  0  0  0
    8.9282    3.8506    0.0000 H   0  0  0  0  0  0  0  0  0  0  0  0
   10.3312    1.4206    0.0000 H   0  0  0  0  0  0  0  0  0  0  0  0
   10.3312    3.0406    0.0000 H   0  0  0  0  0  0  0  0  0  0  0  0
    3.1951   -4.0794    0.0000 H   0  0  0  0  0  0  0  0  0  0  0  0
    6.0010   -4.0794    0.0000 H   0  0  0  0  0  0  0  0  0  0  0  0
    3.4220   -5.2325    0.0000 H   0  0  0  0  0  0  0  0  0  0  0  0
    3.1951   -6.0794    0.0000 H   0  0  0  0  0  0  0  0  0  0  0  0
    4.0420   -6.3064    0.0000 H   0  0  0  0  0  0  0  0  0  0  0  0
  1  4  2  0  0  0  0
  1  5  2  0  0  0  0
  1  8  1  0  0  0  0
  1 22  1  0  0  0  0
 16  2  1  1  0  0  0
  2 55  1  0  0  0  0
  3 15  2  0  0  0  0
  6 34  1  0  0  0  0
  6 35  1  0  0  0  0
 14  7  1  1  0  0  0
  7 15  1  0  0  0  0
  7 47  1  0  0  0  0
  8 17  1  0  0  0  0
  8 19  1  0  0  0  0
  9 10  1  0  0  0  0
  9 11  1  0  0  0  0
  9 15  1  0  0  0  0
  9 36  1  0  0  0  0
 10 12  1  0  0  0  0
 10 37  1  0  0  0  0
 10 38  1  0  0  0  0
 11 13  1  0  0  0  0
 11 39  1  0  0  0  0
 11 40  1  0  0  0  0
 12 13  1  0  0  0  0
 12 41  1  0  0  0  0
 12 42  1  0  0  0  0
 13 43  1  0  0  0  0
 13 44  1  0  0  0  0
 14 16  1  0  0  0  0
 14 18  1  0  0  0  0
 14 45  1  0  0  0  0
 16 17  1  0  0  0  0
 16 46  1  0  0  0  0
 17 48  1  0  0  0  0
 17 49  1  0  0  0  0
 18 21  1  0  0  0  0
 18 50  1  0  0  0  0
 18 51  1  0  0  0  0
 19 20  1  0  0  0  0
 19 52  1  0  0  0  0
 19 53  1  0  0  0  0
 20 23  1  0  0  0  0
 20 24  1  0  0  0  0
 20 54  1  0  0  0  0
 21 25  2  0  0  0  0
 21 26  1  0  0  0  0
 22 27  2  0  0  0  0
 22 28  1  0  0  0  0
 23 56  1  0  0  0  0
 23 57  1  0  0  0  0
 23 58  1  0  0  0  0
 24 59  1  0  0  0  0
 24 60  1  0  0  0  0
 24 61  1  0  0  0  0
 25 29  1  0  0  0  0
 25 62  1  0  0  0  0
 26 30  2  0  0  0  0
 26 63  1  0  0  0  0
 27 32  1  0  0  0  0
 27 64  1  0  0  0  0
 28 33  2  0  0  0  0
 28 65  1  0  0  0  0
 29 31  2  0  0  0  0
 29 66  1  0  0  0  0
 30 31  1  0  0  0  0
 30 67  1  0  0  0  0
 31 68  1  0  0  0  0
 32 34  2  0  0  0  0
 32 69  1  0  0  0  0
 33 34  1  0  0  0  0
 33 70  1  0  0  0  0
 35 71  1  0  0  0  0
 35 72  1  0  0  0  0
 35 73  1  0  0  0  0
M  END
> <PUBCHEM_COMPOUND_CID>
508269
> <PUBCHEM_COMPOUND_CANONICALIZED>
1
> <PUBCHEM_CACTVS_COMPLEXITY>
733
> <PUBCHEM_CACTVS_HBOND_ACCEPTOR>
6
> <PUBCHEM_CACTVS_HBOND_DONOR>
2
> <PUBCHEM_CACTVS_ROTATABLE_BOND>
12
> <PUBCHEM_CACTVS_SUBSKEYS>
AAADcfB7OABAAAAAAAAAAAAAAAAAAYAAAAAwYAAAAAAAAAABQAAAHgQQSAAADTzh2AYyB4LABgKIAiFSEHBCCBAgIAAIiJkOCIgONjKE8RuEcCAk1hGYqAeYyKAOAIAAAAAAAAABAAAAAAAAAAAAAAAAAA==
> <PUBCHEM_IUPAC_OPENEYE_NAME>
N-[(1S,2R)-1-benzyl-2-hydroxy-3-[isobutyl-(4-methoxyphenyl)sulfonyl-amino]propyl]cyclopentanecarboxamide
> <PUBCHEM_IUPAC_CAS_NAME>
N-[(2S,3R)-3-hydroxy-4-[(4-methoxyphenyl)sulfonyl-(2-methylpropyl)amino]-1-phenylbutan-2-yl]cyclopentanecarboxamide
> <PUBCHEM_IUPAC_NAME_MARKUP>
<I>N</I>-[(2<I>S</I>,3<I>R</I>)-3-hydroxy-4-[(4-methoxyphenyl)sulfonyl-(2-methylpropyl)amino]-1-phenylbutan-2-yl]cyclopentanecarboxamide
> <PUBCHEM_IUPAC_NAME>
N-[(2S,3R)-3-hydroxy-4-[(4-methoxyphenyl)sulfonyl-(2-methylpropyl)amino]-1-phenylbutan-2-yl]cyclopentanecarboxamide
> <PUBCHEM_IUPAC_SYSTEMATIC_NAME>
N-[(2S,3R)-4-[(4-methoxyphenyl)sulfonyl-(2-methylpropyl)amino]-3-oxidanyl-1-phenyl-butan-2-yl]cyclopentanecarboxamide
> <PUBCHEM_IUPAC_TRADITIONAL_NAME>
N-[(1S,2R)-1-benzyl-2-hydroxy-3-[isobutyl-(4-methoxyphenyl)sulfonyl-amino]propyl]cyclopentanecarboxamide
> <PUBCHEM_IUPAC_INCHI>
InChI=1S/C27H38N2O5S/c1-20(2)18-29(35(32,33)24-15-13-23(34-3)14-16-24)19-26(30)25(17-21-9-5-4-6-10-21)28-27(31)22-11-7-8-12-22/h4-6,9-10,13-16,20,22,25-26,30H,7-8,11-12,17-19H2,1-3H3,(H,28,31)/t25-,26+/m0/s1
> <PUBCHEM_IUPAC_INCHIKEY>
DNVKJSWUQPLIQD-IZZNHLLZSA-N
> <PUBCHEM_XLOGP3_AA>
4.6
> <PUBCHEM_EXACT_MASS>
502.25014349
> <PUBCHEM_MOLECULAR_FORMULA>
C27H38N2O5S
> <PUBCHEM_MOLECULAR_WEIGHT>
502.7
> <PUBCHEM_OPENEYE_CAN_SMILES>
CC(C)CN(CC(C(CC1=CC=CC=C1)NC(=O)C2CCCC2)O)S(=O)(=O)C3=CC=C(C=C3)OC
> <PUBCHEM_OPENEYE_ISO_SMILES>
CC(C)CN(C[C@H]([C@H](CC1=CC=CC=C1)NC(=O)C2CCCC2)O)S(=O)(=O)C3=CC=C(C=C3)OC
> <PUBCHEM_CACTVS_TPSA>
104
> <PUBCHEM_MONOISOTOPIC_WEIGHT>
502.25014349
> <PUBCHEM_TOTAL_CHARGE>
0
> <PUBCHEM_HEAVY_ATOM_COUNT>
35
> <PUBCHEM_ATOM_DEF_STEREO_COUNT>
2
> <PUBCHEM_ATOM_UDEF_STEREO_COUNT>
0
> <PUBCHEM_BOND_DEF_STEREO_COUNT>
0
> <PUBCHEM_BOND_UDEF_STEREO_COUNT>
0
> <PUBCHEM_ISOTOPIC_ATOM_COUNT>
0
> <PUBCHEM_COMPONENT_COUNT>
1
> <PUBCHEM_CACTVS_TAUTO_COUNT>
-1
> <PUBCHEM_COORDINATE_TYPE>
1
5
255
> <PUBCHEM_BONDANNOTATIONS>
16  2  5
21  25  8
21  26  8
22  27  8
22  28  8
25  29  8
26  30  8
27  32  8
28  33  8
29  31  8
30  31  8
32  34  8
33  34  8
14  7  5
$$$$
