508232
  -OEChem-10302200282D
 71 72  0     1  0  0  0  0  0999 V2000
    2.8090    2.8414    0.0000 S   0  0  0  0  0  0  0  0  0  0  0  0
    4.5778    0.3098    0.0000 O   0  0  0  0  0  0  0  0  0  0  0  0
    7.8059   -1.6497    0.0000 O   0  0  0  0  0  0  0  0  0  0  0  0
    5.8379   -0.9503    0.0000 O   0  0  0  0  0  0  0  0  0  0  0  0
    9.5660   -1.9284    0.0000 O   0  0  0  0  0  0  0  0  0  0  0  0
    2.3178   -0.9503    0.0000 O   0  0  0  0  0  0  0  0  0  0  0  0
    4.0778   -2.2291    0.0000 O   0  0  0  0  0  0  0  0  0  0  0  0
    6.7181   -3.9975    0.0000 O   0  0  0  0  0  0  0  0  0  0  0  0
    8.8937   -3.9975    0.0000 O   0  0  0  0  0  0  0  0  0  0  0  0
    3.6180    3.4292    0.0000 O   0  0  0  0  0  0  0  0  0  0  0  0
    2.0000    2.2536    0.0000 O   0  0  0  0  0  0  0  0  0  0  0  0
    3.3968    2.0324    0.0000 N   0  0  0  0  0  0  0  0  0  0  0  0
    6.9969   -2.2374    0.0000 C   0  0  1  0  0  0  0  0  0  0  0  0
    3.2688   -0.6413    0.0000 C   0  0  2  0  0  0  0  0  0  0  0  0
    3.5778    0.3098    0.0000 C   0  0  1  0  0  0  0  0  0  0  0  0
    4.0778   -1.2291    0.0000 C   0  0  1  0  0  0  0  0  0  0  0  0
    4.8869   -0.6413    0.0000 C   0  0  2  0  0  0  0  0  0  0  0  0
    7.3059   -3.1885    0.0000 C   0  0  2  0  0  0  0  0  0  0  0  0
    8.3059   -3.1885    0.0000 C   0  0  1  0  0  0  0  0  0  0  0  0
    8.6149   -2.2374    0.0000 C   0  0  2  0  0  0  0  0  0  0  0  0
    6.0458   -1.9284    0.0000 C   0  0  0  0  0  0  0  0  0  0  0  0
    2.9901    1.1188    0.0000 C   0  0  0  0  0  0  0  0  0  0  0  0
    9.7739   -0.9503    0.0000 C   0  0  0  0  0  0  0  0  0  0  0  0
   10.7250   -0.6413    0.0000 C   0  0  0  0  0  0  0  0  0  0  0  0
   10.9329    0.3369    0.0000 C   0  0  0  0  0  0  0  0  0  0  0  0
   11.8839    0.6459    0.0000 C   0  0  0  0  0  0  0  0  0  0  0  0
    2.2212    3.6504    0.0000 C   0  0  0  0  0  0  0  0  0  0  0  0
   12.0918    1.6240    0.0000 C   0  0  0  0  0  0  0  0  0  0  0  0
   13.0429    1.9331    0.0000 C   0  0  0  0  0  0  0  0  0  0  0  0
    2.6280    4.5639    0.0000 C   0  0  0  0  0  0  0  0  0  0  0  0
   13.2508    2.9112    0.0000 C   0  0  0  0  0  0  0  0  0  0  0  0
   14.2019    3.2202    0.0000 C   0  0  0  0  0  0  0  0  0  0  0  0
    6.8999   -1.6251    0.0000 H   0  0  0  0  0  0  0  0  0  0  0  0
    3.1718   -1.2536    0.0000 H   0  0  0  0  0  0  0  0  0  0  0  0
    3.8593    0.8622    0.0000 H   0  0  0  0  0  0  0  0  0  0  0  0
    3.5254   -1.5105    0.0000 H   0  0  0  0  0  0  0  0  0  0  0  0
    4.9839   -1.2536    0.0000 H   0  0  0  0  0  0  0  0  0  0  0  0
    6.6935   -3.0915    0.0000 H   0  0  0  0  0  0  0  0  0  0  0  0
    8.0244   -3.7409    0.0000 H   0  0  0  0  0  0  0  0  0  0  0  0
    8.7119   -1.6251    0.0000 H   0  0  0  0  0  0  0  0  0  0  0  0
    5.4262   -1.9501    0.0000 H   0  0  0  0  0  0  0  0  0  0  0  0
    5.9596   -2.5424    0.0000 H   0  0  0  0  0  0  0  0  0  0  0  0
    2.4761    1.4655    0.0000 H   0  0  0  0  0  0  0  0  0  0  0  0
    2.5594    0.6728    0.0000 H   0  0  0  0  0  0  0  0  0  0  0  0
    4.0134    2.0972    0.0000 H   0  0  0  0  0  0  0  0  0  0  0  0
    2.1889   -1.5567    0.0000 H   0  0  0  0  0  0  0  0  0  0  0  0
    3.5409   -2.5391    0.0000 H   0  0  0  0  0  0  0  0  0  0  0  0
    6.9703   -4.5639    0.0000 H   0  0  0  0  0  0  0  0  0  0  0  0
    9.6876   -0.3363    0.0000 H   0  0  0  0  0  0  0  0  0  0  0  0
    9.1543   -0.9287    0.0000 H   0  0  0  0  0  0  0  0  0  0  0  0
    9.5103   -3.9327    0.0000 H   0  0  0  0  0  0  0  0  0  0  0  0
   10.8112   -1.2552    0.0000 H   0  0  0  0  0  0  0  0  0  0  0  0
   11.3446   -0.6629    0.0000 H   0  0  0  0  0  0  0  0  0  0  0  0
   10.8466    0.9508    0.0000 H   0  0  0  0  0  0  0  0  0  0  0  0
   10.3132    0.3585    0.0000 H   0  0  0  0  0  0  0  0  0  0  0  0
   11.9702    0.0319    0.0000 H   0  0  0  0  0  0  0  0  0  0  0  0
   12.5035    0.6243    0.0000 H   0  0  0  0  0  0  0  0  0  0  0  0
    1.7072    3.9971    0.0000 H   0  0  0  0  0  0  0  0  0  0  0  0
    1.7905    3.2044    0.0000 H   0  0  0  0  0  0  0  0  0  0  0  0
   12.0055    2.2380    0.0000 H   0  0  0  0  0  0  0  0  0  0  0  0
   11.4722    1.6457    0.0000 H   0  0  0  0  0  0  0  0  0  0  0  0
   13.1292    1.3191    0.0000 H   0  0  0  0  0  0  0  0  0  0  0  0
   13.6625    1.9114    0.0000 H   0  0  0  0  0  0  0  0  0  0  0  0
    3.1944    4.3118    0.0000 H   0  0  0  0  0  0  0  0  0  0  0  0
    2.8802    5.1303    0.0000 H   0  0  0  0  0  0  0  0  0  0  0  0
    2.0616    4.8161    0.0000 H   0  0  0  0  0  0  0  0  0  0  0  0
   13.1645    3.5252    0.0000 H   0  0  0  0  0  0  0  0  0  0  0  0
   12.6312    2.9328    0.0000 H   0  0  0  0  0  0  0  0  0  0  0  0
   14.3934    2.6306    0.0000 H   0  0  0  0  0  0  0  0  0  0  0  0
   14.7915    3.4118    0.0000 H   0  0  0  0  0  0  0  0  0  0  0  0
   14.0103    3.8099    0.0000 H   0  0  0  0  0  0  0  0  0  0  0  0
  1 10  2  0  0  0  0
  1 11  2  0  0  0  0
  1 12  1  0  0  0  0
  1 27  1  0  0  0  0
  2 15  1  0  0  0  0
  2 17  1  0  0  0  0
  3 13  1  0  0  0  0
  3 20  1  0  0  0  0
 17  4  1  6  0  0  0
  4 21  1  0  0  0  0
 20  5  1  6  0  0  0
  5 23  1  0  0  0  0
 14  6  1  6  0  0  0
  6 46  1  0  0  0  0
 16  7  1  1  0  0  0
  7 47  1  0  0  0  0
 18  8  1  6  0  0  0
  8 48  1  0  0  0  0
 19  9  1  1  0  0  0
  9 51  1  0  0  0  0
 12 22  1  0  0  0  0
 12 45  1  0  0  0  0
 13 18  1  0  0  0  0
 13 21  1  1  0  0  0
 13 33  1  0  0  0  0
 14 15  1  0  0  0  0
 14 16  1  0  0  0  0
 14 34  1  0  0  0  0
 15 22  1  1  0  0  0
 15 35  1  0  0  0  0
 16 17  1  0  0  0  0
 16 36  1  0  0  0  0
 17 37  1  0  0  0  0
 18 19  1  0  0  0  0
 18 38  1  0  0  0  0
 19 20  1  0  0  0  0
 19 39  1  0  0  0  0
 20 40  1  0  0  0  0
 21 41  1  0  0  0  0
 21 42  1  0  0  0  0
 22 43  1  0  0  0  0
 22 44  1  0  0  0  0
 23 24  1  0  0  0  0
 23 49  1  0  0  0  0
 23 50  1  0  0  0  0
 24 25  1  0  0  0  0
 24 52  1  0  0  0  0
 24 53  1  0  0  0  0
 25 26  1  0  0  0  0
 25 54  1  0  0  0  0
 25 55  1  0  0  0  0
 26 28  1  0  0  0  0
 26 56  1  0  0  0  0
 26 57  1  0  0  0  0
 27 30  1  0  0  0  0
 27 58  1  0  0  0  0
 27 59  1  0  0  0  0
 28 29  1  0  0  0  0
 28 60  1  0  0  0  0
 28 61  1  0  0  0  0
 29 31  1  0  0  0  0
 29 62  1  0  0  0  0
 29 63  1  0  0  0  0
 30 64  1  0  0  0  0
 30 65  1  0  0  0  0
 30 66  1  0  0  0  0
 31 32  1  0  0  0  0
 31 67  1  0  0  0  0
 31 68  1  0  0  0  0
 32 69  1  0  0  0  0
 32 70  1  0  0  0  0
 32 71  1  0  0  0  0
M  END
> <PUBCHEM_COMPOUND_CID>
508232
> <PUBCHEM_COMPOUND_CANONICALIZED>
1
> <PUBCHEM_CACTVS_COMPLEXITY>
630
> <PUBCHEM_CACTVS_HBOND_ACCEPTOR>
11
> <PUBCHEM_CACTVS_HBOND_DONOR>
5
> <PUBCHEM_CACTVS_ROTATABLE_BOND>
15
> <PUBCHEM_CACTVS_SUBSKEYS>
AAADcfB6PABAAAAAAAAAAAAAAAAAASJAAAAAAAAAAAAAAAAAAAAAHgQQSAAACBT1wAeCCABABgIAAAAAAHBAAAAAAAAAAIAAAAATEAIAgAAjQAAHEAAHAAHw8KgAAAAAAAAAAAAAAAAAAAAAAAAAAAAAAA==
> <PUBCHEM_IUPAC_OPENEYE_NAME>
N-[[(2R,3S,4S,5S)-5-[[(2R,3S,4S,5S)-3,4-dihydroxy-5-octoxy-tetrahydrofuran-2-yl]methoxy]-3,4-dihydroxy-tetrahydrofuran-2-yl]methyl]ethanesulfonamide
> <PUBCHEM_IUPAC_CAS_NAME>
N-[[(2R,3S,4S,5S)-5-[[(2R,3S,4S,5S)-3,4-dihydroxy-5-octoxy-2-oxolanyl]methoxy]-3,4-dihydroxy-2-oxolanyl]methyl]ethanesulfonamide
> <PUBCHEM_IUPAC_NAME_MARKUP>
<I>N</I>-[[(2<I>R</I>,3<I>S</I>,4<I>S</I>,5<I>S</I>)-5-[[(2<I>R</I>,3<I>S</I>,4<I>S</I>,5<I>S</I>)-3,4-dihydroxy-5-octoxyoxolan-2-yl]methoxy]-3,4-dihydroxyoxolan-2-yl]methyl]ethanesulfonamide
> <PUBCHEM_IUPAC_NAME>
N-[[(2R,3S,4S,5S)-5-[[(2R,3S,4S,5S)-3,4-dihydroxy-5-octoxyoxolan-2-yl]methoxy]-3,4-dihydroxyoxolan-2-yl]methyl]ethanesulfonamide
> <PUBCHEM_IUPAC_SYSTEMATIC_NAME>
N-[[(2R,3S,4S,5S)-5-[[(2R,3S,4S,5S)-5-octoxy-3,4-bis(oxidanyl)oxolan-2-yl]methoxy]-3,4-bis(oxidanyl)oxolan-2-yl]methyl]ethanesulfonamide
> <PUBCHEM_IUPAC_TRADITIONAL_NAME>
N-[[(2R,3S,4S,5S)-5-[[(2R,3S,4S,5S)-3,4-dihydroxy-5-octoxy-tetrahydrofuran-2-yl]methoxy]-3,4-dihydroxy-tetrahydrofuran-2-yl]methyl]ethanesulfonamide
> <PUBCHEM_IUPAC_INCHI>
InChI=1S/C20H39NO10S/c1-3-5-6-7-8-9-10-28-19-18(25)16(23)14(31-19)12-29-20-17(24)15(22)13(30-20)11-21-32(26,27)4-2/h13-25H,3-12H2,1-2H3/t13-,14-,15-,16-,17+,18+,19+,20+/m1/s1
> <PUBCHEM_IUPAC_INCHIKEY>
ZEYWGRXXFFIJOT-IHRHECOVSA-N
> <PUBCHEM_XLOGP3_AA>
0.6
> <PUBCHEM_EXACT_MASS>
485.22946761
> <PUBCHEM_MOLECULAR_FORMULA>
C20H39NO10S
> <PUBCHEM_MOLECULAR_WEIGHT>
485.6
> <PUBCHEM_OPENEYE_CAN_SMILES>
CCCCCCCCOC1C(C(C(O1)COC2C(C(C(O2)CNS(=O)(=O)CC)O)O)O)O
> <PUBCHEM_OPENEYE_ISO_SMILES>
CCCCCCCCO[C@@H]1[C@H]([C@@H]([C@H](O1)CO[C@@H]2[C@H]([C@@H]([C@H](O2)CNS(=O)(=O)CC)O)O)O)O
> <PUBCHEM_CACTVS_TPSA>
172
> <PUBCHEM_MONOISOTOPIC_WEIGHT>
485.22946761
> <PUBCHEM_TOTAL_CHARGE>
0
> <PUBCHEM_HEAVY_ATOM_COUNT>
32
> <PUBCHEM_ATOM_DEF_STEREO_COUNT>
8
> <PUBCHEM_ATOM_UDEF_STEREO_COUNT>
0
> <PUBCHEM_BOND_DEF_STEREO_COUNT>
0
> <PUBCHEM_BOND_UDEF_STEREO_COUNT>
0
> <PUBCHEM_ISOTOPIC_ATOM_COUNT>
0
> <PUBCHEM_COMPONENT_COUNT>
1
> <PUBCHEM_CACTVS_TAUTO_COUNT>
-1
> <PUBCHEM_COORDINATE_TYPE>
1
5
255
> <PUBCHEM_BONDANNOTATIONS>
13  21  5
15  22  5
17  4  6
20  5  6
14  6  6
16  7  5
18  8  6
19  9  5
$$$$
