508214
  -OEChem-10302200282D
 73 78  0     1  0  0  0  0  0999 V2000
   13.6174    2.1797    0.0000 F   0  0  0  0  0  0  0  0  0  0  0  0
   17.1475    3.1556    0.0000 O   0  0  0  0  0  0  0  0  0  0  0  0
    9.2931   -1.3852    0.0000 O   0  0  0  0  0  0  0  0  0  0  0  0
   19.7456    1.6556    0.0000 O   0  0  0  0  0  0  0  0  0  0  0  0
    6.6459   -0.9887    0.0000 O   0  0  0  0  0  0  0  0  0  0  0  0
   18.8796    3.1556    0.0000 O   0  0  0  0  0  0  0  0  0  0  0  0
   10.1533    0.1181    0.0000 O   0  0  0  0  0  0  0  0  0  0  0  0
    5.1592    0.0895    0.0000 O   0  0  0  0  0  0  0  0  0  0  0  0
    2.0000   -1.3316    0.0000 O   0  0  0  0  0  0  0  0  0  0  0  0
   17.1475    0.1556    0.0000 N   0  0  0  0  0  0  0  0  0  0  0  0
   13.6174    0.1314    0.0000 N   0  0  0  0  0  0  0  0  0  0  0  0
   11.8892   -0.8752    0.0000 N   0  0  0  0  0  0  0  0  0  0  0  0
    4.9848   -1.6337    0.0000 N   0  0  0  0  0  0  0  0  0  0  0  0
    3.5796   -0.6211    0.0000 N   0  0  0  0  0  0  0  0  0  0  0  0
   17.1475   -0.8444    0.0000 C   0  0  0  0  0  0  0  0  0  0  0  0
   16.6475   -1.7104    0.0000 C   0  0  0  0  0  0  0  0  0  0  0  0
   17.6475   -1.7104    0.0000 C   0  0  0  0  0  0  0  0  0  0  0  0
   16.2815    0.6556    0.0000 C   0  0  0  0  0  0  0  0  0  0  0  0
   18.0135    0.6556    0.0000 C   0  0  0  0  0  0  0  0  0  0  0  0
   16.2815    1.6556    0.0000 C   0  0  0  0  0  0  0  0  0  0  0  0
   15.3875    0.1209    0.0000 C   0  0  0  0  0  0  0  0  0  0  0  0
   14.4815    0.6348    0.0000 C   0  0  0  0  0  0  0  0  0  0  0  0
   18.0135    1.6556    0.0000 C   0  0  0  0  0  0  0  0  0  0  0  0
   13.6212   -0.8686    0.0000 C   0  0  0  0  0  0  0  0  0  0  0  0
   12.7494    0.6281    0.0000 C   0  0  0  0  0  0  0  0  0  0  0  0
   17.1475    2.1556    0.0000 C   0  0  0  0  0  0  0  0  0  0  0  0
   12.7572   -1.3719    0.0000 C   0  0  0  0  0  0  0  0  0  0  0  0
   11.8854    0.1248    0.0000 C   0  0  0  0  0  0  0  0  0  0  0  0
   15.3875    2.1902    0.0000 C   0  0  0  0  0  0  0  0  0  0  0  0
   14.4815    1.6764    0.0000 C   0  0  0  0  0  0  0  0  0  0  0  0
   11.0251   -1.3786    0.0000 C   0  0  0  0  0  0  0  0  0  0  0  0
   18.8796    2.1556    0.0000 C   0  0  0  0  0  0  0  0  0  0  0  0
   10.1572   -0.8819    0.0000 C   0  0  0  0  0  0  0  0  0  0  0  0
    7.5610   -1.3919    0.0000 C   0  0  2  0  0  0  0  0  0  0  0  0
    8.4251   -0.8886    0.0000 C   0  0  0  0  0  0  0  0  0  0  0  0
    5.9797   -1.7344    0.0000 C   0  0  1  0  0  0  0  0  0  0  0  0
    7.4603   -2.3868    0.0000 C   0  0  0  0  0  0  0  0  0  0  0  0
    6.4830   -2.5985    0.0000 C   0  0  0  0  0  0  0  0  0  0  0  0
    4.4001   -2.4450    0.0000 C   0  0  0  0  0  0  0  0  0  0  0  0
    4.5745   -0.7218    0.0000 C   0  0  0  0  0  0  0  0  0  0  0  0
    3.4052   -2.3443    0.0000 C   0  0  0  0  0  0  0  0  0  0  0  0
    2.9949   -1.4323    0.0000 C   0  0  0  0  0  0  0  0  0  0  0  0
    2.8205   -3.1556    0.0000 C   0  0  0  0  0  0  0  0  0  0  0  0
   17.7464   -0.6839    0.0000 H   0  0  0  0  0  0  0  0  0  0  0  0
   16.0649   -1.4984    0.0000 H   0  0  0  0  0  0  0  0  0  0  0  0
   16.5399   -2.3210    0.0000 H   0  0  0  0  0  0  0  0  0  0  0  0
   17.7552   -2.3210    0.0000 H   0  0  0  0  0  0  0  0  0  0  0  0
   18.2301   -1.4984    0.0000 H   0  0  0  0  0  0  0  0  0  0  0  0
   18.5505    0.3456    0.0000 H   0  0  0  0  0  0  0  0  0  0  0  0
   15.3947   -0.4990    0.0000 H   0  0  0  0  0  0  0  0  0  0  0  0
   13.8355   -1.4503    0.0000 H   0  0  0  0  0  0  0  0  0  0  0  0
   14.2314   -0.7585    0.0000 H   0  0  0  0  0  0  0  0  0  0  0  0
   13.1461    1.1046    0.0000 H   0  0  0  0  0  0  0  0  0  0  0  0
   12.3491    1.1015    0.0000 H   0  0  0  0  0  0  0  0  0  0  0  0
   12.3605   -1.8484    0.0000 H   0  0  0  0  0  0  0  0  0  0  0  0
   13.1575   -1.8453    0.0000 H   0  0  0  0  0  0  0  0  0  0  0  0
   11.6711    0.7066    0.0000 H   0  0  0  0  0  0  0  0  0  0  0  0
   11.2752    0.0147    0.0000 H   0  0  0  0  0  0  0  0  0  0  0  0
   15.3947    2.8102    0.0000 H   0  0  0  0  0  0  0  0  0  0  0  0
   10.6284   -1.8550    0.0000 H   0  0  0  0  0  0  0  0  0  0  0  0
   11.4255   -1.8520    0.0000 H   0  0  0  0  0  0  0  0  0  0  0  0
    7.5262   -0.7729    0.0000 H   0  0  0  0  0  0  0  0  0  0  0  0
    8.8218   -0.4121    0.0000 H   0  0  0  0  0  0  0  0  0  0  0  0
    8.0248   -0.4152    0.0000 H   0  0  0  0  0  0  0  0  0  0  0  0
    5.6440   -2.2557    0.0000 H   0  0  0  0  0  0  0  0  0  0  0  0
    7.9227   -2.7999    0.0000 H   0  0  0  0  0  0  0  0  0  0  0  0
   20.2825    1.9656    0.0000 H   0  0  0  0  0  0  0  0  0  0  0  0
    6.2330   -3.1659    0.0000 H   0  0  0  0  0  0  0  0  0  0  0  0
    4.6544   -3.0104    0.0000 H   0  0  0  0  0  0  0  0  0  0  0  0
    3.3252   -0.0556    0.0000 H   0  0  0  0  0  0  0  0  0  0  0  0
    2.3175   -2.7931    0.0000 H   0  0  0  0  0  0  0  0  0  0  0  0
    2.4580   -3.6586    0.0000 H   0  0  0  0  0  0  0  0  0  0  0  0
    3.3235   -3.5181    0.0000 H   0  0  0  0  0  0  0  0  0  0  0  0
  1 30  1  0  0  0  0
  2 26  2  0  0  0  0
  3 33  1  0  0  0  0
  3 35  1  0  0  0  0
  4 32  1  0  0  0  0
  4 67  1  0  0  0  0
  5 34  1  0  0  0  0
  5 36  1  0  0  0  0
  6 32  2  0  0  0  0
  7 33  2  0  0  0  0
  8 40  2  0  0  0  0
  9 42  2  0  0  0  0
 10 15  1  0  0  0  0
 10 18  1  0  0  0  0
 10 19  1  0  0  0  0
 11 22  1  0  0  0  0
 11 24  1  0  0  0  0
 11 25  1  0  0  0  0
 12 27  1  0  0  0  0
 12 28  1  0  0  0  0
 12 31  1  0  0  0  0
 36 13  1  6  0  0  0
 13 39  1  0  0  0  0
 13 40  1  0  0  0  0
 14 40  1  0  0  0  0
 14 42  1  0  0  0  0
 14 70  1  0  0  0  0
 15 16  1  0  0  0  0
 15 17  1  0  0  0  0
 15 44  1  0  0  0  0
 16 17  1  0  0  0  0
 16 45  1  0  0  0  0
 16 46  1  0  0  0  0
 17 47  1  0  0  0  0
 17 48  1  0  0  0  0
 18 20  1  0  0  0  0
 18 21  2  0  0  0  0
 19 23  2  0  0  0  0
 19 49  1  0  0  0  0
 20 26  1  0  0  0  0
 20 29  2  0  0  0  0
 21 22  1  0  0  0  0
 21 50  1  0  0  0  0
 22 30  2  0  0  0  0
 23 26  1  0  0  0  0
 23 32  1  0  0  0  0
 24 27  1  0  0  0  0
 24 51  1  0  0  0  0
 24 52  1  0  0  0  0
 25 28  1  0  0  0  0
 25 53  1  0  0  0  0
 25 54  1  0  0  0  0
 27 55  1  0  0  0  0
 27 56  1  0  0  0  0
 28 57  1  0  0  0  0
 28 58  1  0  0  0  0
 29 30  1  0  0  0  0
 29 59  1  0  0  0  0
 31 33  1  0  0  0  0
 31 60  1  0  0  0  0
 31 61  1  0  0  0  0
 34 35  1  6  0  0  0
 34 37  1  0  0  0  0
 34 62  1  0  0  0  0
 35 63  1  0  0  0  0
 35 64  1  0  0  0  0
 36 38  1  0  0  0  0
 36 65  1  0  0  0  0
 37 38  2  0  0  0  0
 37 66  1  0  0  0  0
 38 68  1  0  0  0  0
 39 41  2  0  0  0  0
 39 69  1  0  0  0  0
 41 42  1  0  0  0  0
 41 43  1  0  0  0  0
 43 71  1  0  0  0  0
 43 72  1  0  0  0  0
 43 73  1  0  0  0  0
M  END
> <PUBCHEM_COMPOUND_CID>
508214
> <PUBCHEM_COMPOUND_CANONICALIZED>
1
> <PUBCHEM_CACTVS_COMPLEXITY>
1290
> <PUBCHEM_CACTVS_HBOND_ACCEPTOR>
12
> <PUBCHEM_CACTVS_HBOND_DONOR>
2
> <PUBCHEM_CACTVS_ROTATABLE_BOND>
9
> <PUBCHEM_CACTVS_SUBSKEYS>
AAADceB7vQAAAAAAAAAAAAAAGAAAAQAAAAA8QIEAAAAAAACBAAAAHwAQCAAADDzhmA4zyIPABgCIAqXWWACCAAAlAgAIiAGIZMiLZD7I9fGfcYhs5yLa+ceY2aOeCAAAAAQCAAAQAAAACAQAAAAAAAAAAA==
> <PUBCHEM_IUPAC_OPENEYE_NAME>
1-cyclopropyl-6-fluoro-7-[4-[2-[[(2S,5R)-5-(5-methyl-2,4-dioxo-pyrimidin-1-yl)-2,5-dihydrofuran-2-yl]methoxy]-2-oxo-ethyl]piperazin-1-yl]-4-oxo-quinoline-3-carboxylic acid
> <PUBCHEM_IUPAC_CAS_NAME>
1-cyclopropyl-6-fluoro-7-[4-[2-[[(2S,5R)-5-(5-methyl-2,4-dioxo-1-pyrimidinyl)-2,5-dihydrofuran-2-yl]methoxy]-2-oxoethyl]-1-piperazinyl]-4-oxo-3-quinolinecarboxylic acid
> <PUBCHEM_IUPAC_NAME_MARKUP>
1-cyclopropyl-6-fluoro-7-[4-[2-[[(2<I>S</I>,5<I>R</I>)-5-(5-methyl-2,4-dioxopyrimidin-1-yl)-2,5-dihydrofuran-2-yl]methoxy]-2-oxoethyl]piperazin-1-yl]-4-oxoquinoline-3-carboxylic acid
> <PUBCHEM_IUPAC_NAME>
1-cyclopropyl-6-fluoro-7-[4-[2-[[(2S,5R)-5-(5-methyl-2,4-dioxopyrimidin-1-yl)-2,5-dihydrofuran-2-yl]methoxy]-2-oxoethyl]piperazin-1-yl]-4-oxoquinoline-3-carboxylic acid
> <PUBCHEM_IUPAC_SYSTEMATIC_NAME>
1-cyclopropyl-6-fluoranyl-7-[4-[2-[[(2S,5R)-5-[5-methyl-2,4-bis(oxidanylidene)pyrimidin-1-yl]-2,5-dihydrofuran-2-yl]methoxy]-2-oxidanylidene-ethyl]piperazin-1-yl]-4-oxidanylidene-quinoline-3-carboxylic acid
> <PUBCHEM_IUPAC_TRADITIONAL_NAME>
1-cyclopropyl-7-[4-[2-[[(2S,5R)-5-(2,4-diketo-5-methyl-pyrimidin-1-yl)-2,5-dihydrofuran-2-yl]methoxy]-2-keto-ethyl]piperazino]-6-fluoro-4-keto-quinoline-3-carboxylic acid
> <PUBCHEM_IUPAC_INCHI>
InChI=1S/C29H30FN5O8/c1-16-12-35(29(41)31-27(16)38)24-5-4-18(43-24)15-42-25(36)14-32-6-8-33(9-7-32)23-11-22-19(10-21(23)30)26(37)20(28(39)40)13-34(22)17-2-3-17/h4-5,10-13,17-18,24H,2-3,6-9,14-15H2,1H3,(H,39,40)(H,31,38,41)/t18-,24+/m0/s1
> <PUBCHEM_IUPAC_INCHIKEY>
ZLGSQILIYXYAOK-MHECFPHRSA-N
> <PUBCHEM_XLOGP3_AA>
-0.2
> <PUBCHEM_EXACT_MASS>
595.20784109
> <PUBCHEM_MOLECULAR_FORMULA>
C29H30FN5O8
> <PUBCHEM_MOLECULAR_WEIGHT>
595.6
> <PUBCHEM_OPENEYE_CAN_SMILES>
CC1=CN(C(=O)NC1=O)C2C=CC(O2)COC(=O)CN3CCN(CC3)C4=C(C=C5C(=C4)N(C=C(C5=O)C(=O)O)C6CC6)F
> <PUBCHEM_OPENEYE_ISO_SMILES>
CC1=CN(C(=O)NC1=O)[C@H]2C=C[C@H](O2)COC(=O)CN3CCN(CC3)C4=C(C=C5C(=C4)N(C=C(C5=O)C(=O)O)C6CC6)F
> <PUBCHEM_CACTVS_TPSA>
149
> <PUBCHEM_MONOISOTOPIC_WEIGHT>
595.20784109
> <PUBCHEM_TOTAL_CHARGE>
0
> <PUBCHEM_HEAVY_ATOM_COUNT>
43
> <PUBCHEM_ATOM_DEF_STEREO_COUNT>
2
> <PUBCHEM_ATOM_UDEF_STEREO_COUNT>
0
> <PUBCHEM_BOND_DEF_STEREO_COUNT>
0
> <PUBCHEM_BOND_UDEF_STEREO_COUNT>
0
> <PUBCHEM_ISOTOPIC_ATOM_COUNT>
0
> <PUBCHEM_COMPONENT_COUNT>
1
> <PUBCHEM_CACTVS_TAUTO_COUNT>
-1
> <PUBCHEM_COORDINATE_TYPE>
1
5
255
> <PUBCHEM_BONDANNOTATIONS>
10  18  8
10  19  8
36  13  6
13  39  8
13  40  8
14  40  8
14  42  8
18  20  8
18  21  8
19  23  8
20  26  8
20  29  8
21  22  8
22  30  8
23  26  8
29  30  8
34  35  6
39  41  8
41  42  8
$$$$
