508223
  -OEChem-10302200282D
 76 78  0     1  0  0  0  0  0999 V2000
    8.1402   -5.8372    0.0000 O   0  0  0  0  0  0  0  0  0  0  0  0
   10.5109   -1.1736    0.0000 O   0  0  0  0  0  0  0  0  0  0  0  0
    7.9128   -0.6736    0.0000 O   0  0  0  0  0  0  0  0  0  0  0  0
   11.3769   -2.6736    0.0000 O   0  0  0  0  0  0  0  0  0  0  0  0
    4.4487    0.3264    0.0000 O   0  0  0  0  0  0  0  0  0  0  0  0
    5.3147    3.8264    0.0000 O   0  0  0  0  0  0  0  0  0  0  0  0
    2.0000    4.1628    0.0000 O   0  0  0  0  0  0  0  0  0  0  0  0
    9.8615   -5.3760    0.0000 N   0  0  0  0  0  0  0  0  0  0  0  0
    7.0468   -2.1736    0.0000 N   0  0  0  0  0  0  0  0  0  0  0  0
    6.1808    0.3264    0.0000 N   0  0  0  0  0  0  0  0  0  0  0  0
    4.4487    2.3264    0.0000 N   0  0  0  0  0  0  0  0  0  0  0  0
    2.6691    3.4197    0.0000 N   0  0  0  0  0  0  0  0  0  0  0  0
    8.7788   -4.1736    0.0000 C   0  0  2  0  0  0  0  0  0  0  0  0
    7.9128   -3.6736    0.0000 C   0  0  0  0  0  0  0  0  0  0  0  0
    9.6924   -3.7668    0.0000 C   0  0  0  0  0  0  0  0  0  0  0  0
    7.9128   -2.6736    0.0000 C   0  0  1  0  0  0  0  0  0  0  0  0
   10.3615   -4.5100    0.0000 C   0  0  0  0  0  0  0  0  0  0  0  0
    8.8834   -5.1681    0.0000 C   0  0  0  0  0  0  0  0  0  0  0  0
    8.7788   -2.1736    0.0000 C   0  0  0  0  0  0  0  0  0  0  0  0
    7.0468   -1.1736    0.0000 C   0  0  0  0  0  0  0  0  0  0  0  0
    6.1808   -0.6736    0.0000 C   0  0  2  0  0  0  0  0  0  0  0  0
   11.3769    0.3264    0.0000 C   0  0  0  0  0  0  0  0  0  0  0  0
    9.6448   -2.6736    0.0000 C   0  0  0  0  0  0  0  0  0  0  0  0
    5.3147   -1.1736    0.0000 C   0  0  0  0  0  0  0  0  0  0  0  0
   11.3769   -0.6736    0.0000 C   0  0  0  0  0  0  0  0  0  0  0  0
   11.3769    1.3264    0.0000 C   0  0  0  0  0  0  0  0  0  0  0  0
   12.3769    0.3264    0.0000 C   0  0  0  0  0  0  0  0  0  0  0  0
   10.3769    0.3264    0.0000 C   0  0  0  0  0  0  0  0  0  0  0  0
   10.5109   -2.1736    0.0000 C   0  0  0  0  0  0  0  0  0  0  0  0
    5.3147    0.8264    0.0000 C   0  0  0  0  0  0  0  0  0  0  0  0
    7.0468    0.8264    0.0000 C   0  0  0  0  0  0  0  0  0  0  0  0
    5.3147    1.8264    0.0000 C   0  0  0  0  0  0  0  0  0  0  0  0
    7.0468    1.8264    0.0000 C   0  0  0  0  0  0  0  0  0  0  0  0
    5.3147   -2.1736    0.0000 C   0  0  0  0  0  0  0  0  0  0  0  0
    6.1808    2.3264    0.0000 C   0  0  0  0  0  0  0  0  0  0  0  0
    5.3147   -3.1736    0.0000 C   0  0  0  0  0  0  0  0  0  0  0  0
    4.4487    3.3264    0.0000 C   0  0  0  0  0  0  0  0  0  0  0  0
    3.5827    3.8264    0.0000 C   0  0  0  0  0  0  0  0  0  0  0  0
    3.4782    4.8210    0.0000 C   0  0  0  0  0  0  0  0  0  0  0  0
    2.5000    5.0289    0.0000 C   0  0  0  0  0  0  0  0  0  0  0  0
    2.0933    5.9424    0.0000 C   0  0  0  0  0  0  0  0  0  0  0  0
    8.8113   -3.5544    0.0000 H   0  0  0  0  0  0  0  0  0  0  0  0
    7.3022   -3.5659    0.0000 H   0  0  0  0  0  0  0  0  0  0  0  0
    7.7008   -4.2562    0.0000 H   0  0  0  0  0  0  0  0  0  0  0  0
   10.1940   -3.4024    0.0000 H   0  0  0  0  0  0  0  0  0  0  0  0
    9.3824   -3.2299    0.0000 H   0  0  0  0  0  0  0  0  0  0  0  0
    7.9128   -2.0536    0.0000 H   0  0  0  0  0  0  0  0  0  0  0  0
   10.8631   -4.8744    0.0000 H   0  0  0  0  0  0  0  0  0  0  0  0
   10.7764   -4.0492    0.0000 H   0  0  0  0  0  0  0  0  0  0  0  0
   10.1137   -5.9424    0.0000 H   0  0  0  0  0  0  0  0  0  0  0  0
    6.5098   -2.4836    0.0000 H   0  0  0  0  0  0  0  0  0  0  0  0
    8.7788   -1.5536    0.0000 H   0  0  0  0  0  0  0  0  0  0  0  0
    6.7177   -0.3636    0.0000 H   0  0  0  0  0  0  0  0  0  0  0  0
    9.6448   -3.2936    0.0000 H   0  0  0  0  0  0  0  0  0  0  0  0
   11.5890   -1.2562    0.0000 H   0  0  0  0  0  0  0  0  0  0  0  0
   11.9875   -0.5659    0.0000 H   0  0  0  0  0  0  0  0  0  0  0  0
    5.1027   -0.5910    0.0000 H   0  0  0  0  0  0  0  0  0  0  0  0
    4.7042   -1.2812    0.0000 H   0  0  0  0  0  0  0  0  0  0  0  0
   11.9969    1.3264    0.0000 H   0  0  0  0  0  0  0  0  0  0  0  0
   11.3769    1.9464    0.0000 H   0  0  0  0  0  0  0  0  0  0  0  0
   10.7569    1.3264    0.0000 H   0  0  0  0  0  0  0  0  0  0  0  0
   12.3769   -0.2936    0.0000 H   0  0  0  0  0  0  0  0  0  0  0  0
   12.9969    0.3264    0.0000 H   0  0  0  0  0  0  0  0  0  0  0  0
   12.3769    0.9464    0.0000 H   0  0  0  0  0  0  0  0  0  0  0  0
   10.3769    0.9464    0.0000 H   0  0  0  0  0  0  0  0  0  0  0  0
    9.7569    0.3264    0.0000 H   0  0  0  0  0  0  0  0  0  0  0  0
   10.3769   -0.2936    0.0000 H   0  0  0  0  0  0  0  0  0  0  0  0
    7.5837    0.5164    0.0000 H   0  0  0  0  0  0  0  0  0  0  0  0
    7.5837    2.1364    0.0000 H   0  0  0  0  0  0  0  0  0  0  0  0
    6.1808    2.9464    0.0000 H   0  0  0  0  0  0  0  0  0  0  0  0
    3.9118    2.0164    0.0000 H   0  0  0  0  0  0  0  0  0  0  0  0
    5.3147   -3.7936    0.0000 H   0  0  0  0  0  0  0  0  0  0  0  0
    3.9389    5.2358    0.0000 H   0  0  0  0  0  0  0  0  0  0  0  0
    2.6597    6.1946    0.0000 H   0  0  0  0  0  0  0  0  0  0  0  0
    1.8411    6.5088    0.0000 H   0  0  0  0  0  0  0  0  0  0  0  0
    1.5269    5.6902    0.0000 H   0  0  0  0  0  0  0  0  0  0  0  0
  1 18  2  0  0  0  0
  2 25  1  0  0  0  0
  2 29  1  0  0  0  0
  3 20  2  0  0  0  0
  4 29  2  0  0  0  0
  5 30  2  0  0  0  0
  6 37  2  0  0  0  0
  7 12  1  0  0  0  0
  7 40  1  0  0  0  0
  8 17  1  0  0  0  0
  8 18  1  0  0  0  0
  8 50  1  0  0  0  0
 16  9  1  6  0  0  0
  9 20  1  0  0  0  0
  9 51  1  0  0  0  0
 10 21  1  0  0  0  0
 10 30  1  0  0  0  0
 10 31  1  0  0  0  0
 11 32  1  0  0  0  0
 11 37  1  0  0  0  0
 11 71  1  0  0  0  0
 12 38  2  0  0  0  0
 13 14  1  6  0  0  0
 13 15  1  0  0  0  0
 13 18  1  0  0  0  0
 13 42  1  0  0  0  0
 14 16  1  0  0  0  0
 14 43  1  0  0  0  0
 14 44  1  0  0  0  0
 15 17  1  0  0  0  0
 15 45  1  0  0  0  0
 15 46  1  0  0  0  0
 16 19  1  0  0  0  0
 16 47  1  0  0  0  0
 17 48  1  0  0  0  0
 17 49  1  0  0  0  0
 19 23  2  3  0  0  0
 19 52  1  0  0  0  0
 21 20  1  6  0  0  0
 21 24  1  0  0  0  0
 21 53  1  0  0  0  0
 22 25  1  0  0  0  0
 22 26  1  0  0  0  0
 22 27  1  0  0  0  0
 22 28  1  0  0  0  0
 23 29  1  0  0  0  0
 23 54  1  0  0  0  0
 24 34  1  0  0  0  0
 24 57  1  0  0  0  0
 24 58  1  0  0  0  0
 25 55  1  0  0  0  0
 25 56  1  0  0  0  0
 26 59  1  0  0  0  0
 26 60  1  0  0  0  0
 26 61  1  0  0  0  0
 27 62  1  0  0  0  0
 27 63  1  0  0  0  0
 27 64  1  0  0  0  0
 28 65  1  0  0  0  0
 28 66  1  0  0  0  0
 28 67  1  0  0  0  0
 30 32  1  0  0  0  0
 31 33  2  0  0  0  0
 31 68  1  0  0  0  0
 32 35  2  0  0  0  0
 33 35  1  0  0  0  0
 33 69  1  0  0  0  0
 34 36  3  0  0  0  0
 35 70  1  0  0  0  0
 36 72  1  0  0  0  0
 37 38  1  0  0  0  0
 38 39  1  0  0  0  0
 39 40  2  0  0  0  0
 39 73  1  0  0  0  0
 40 41  1  0  0  0  0
 41 74  1  0  0  0  0
 41 75  1  0  0  0  0
 41 76  1  0  0  0  0
M  END
> <PUBCHEM_COMPOUND_CID>
508223
> <PUBCHEM_COMPOUND_CANONICALIZED>
1
> <PUBCHEM_CACTVS_COMPLEXITY>
1180
> <PUBCHEM_CACTVS_HBOND_ACCEPTOR>
8
> <PUBCHEM_CACTVS_HBOND_DONOR>
3
> <PUBCHEM_CACTVS_ROTATABLE_BOND>
13
> <PUBCHEM_CACTVS_SUBSKEYS>
AAADcfB7uAAAAAAAAAAAAAAAAAAAAWLAAAAgAAAAAAAAAAABgAAAHgAUAAAADyzhlgYyjJPQBADpGaX2WgiAAAAmIgAoGKG+bFoIZhoApbMWEYhmlhiI6cM/AAAOAAAAAAAAAAAAAAAAAAAAAAAAAAAAAA==
> <PUBCHEM_IUPAC_OPENEYE_NAME>
2,2-dimethylpropyl (4S)-4-[[(2S)-2-[3-[(5-methylisoxazole-3-carbonyl)amino]-2-oxo-1-pyridyl]pent-4-ynoyl]amino]-5-[(3S)-2-oxopyrrolidin-3-yl]pent-2-enoate
> <PUBCHEM_IUPAC_CAS_NAME>
(4S)-4-[[(2S)-2-[3-[[(5-methyl-3-isoxazolyl)-oxomethyl]amino]-2-oxo-1-pyridinyl]-1-oxopent-4-ynyl]amino]-5-[(3S)-2-oxo-3-pyrrolidinyl]-2-pentenoic acid 2,2-dimethylpropyl ester
> <PUBCHEM_IUPAC_NAME_MARKUP>
2,2-dimethylpropyl (4<I>S</I>)-4-[[(2<I>S</I>)-2-[3-[(5-methyl-1,2-oxazole-3-carbonyl)amino]-2-oxopyridin-1-yl]pent-4-ynoyl]amino]-5-[(3<I>S</I>)-2-oxopyrrolidin-3-yl]pent-2-enoate
> <PUBCHEM_IUPAC_NAME>
2,2-dimethylpropyl (4S)-4-[[(2S)-2-[3-[(5-methyl-1,2-oxazole-3-carbonyl)amino]-2-oxopyridin-1-yl]pent-4-ynoyl]amino]-5-[(3S)-2-oxopyrrolidin-3-yl]pent-2-enoate
> <PUBCHEM_IUPAC_SYSTEMATIC_NAME>
2,2-dimethylpropyl (4S)-4-[[(2S)-2-[3-[(5-methyl-1,2-oxazol-3-yl)carbonylamino]-2-oxidanylidene-pyridin-1-yl]pent-4-ynoyl]amino]-5-[(3S)-2-oxidanylidenepyrrolidin-3-yl]pent-2-enoate
> <PUBCHEM_IUPAC_TRADITIONAL_NAME>
(4S)-4-[[(2S)-2-[2-keto-3-[(5-methylisoxazole-3-carbonyl)amino]-1-pyridyl]pent-4-ynoyl]amino]-5-[(3S)-2-ketopyrrolidin-3-yl]pent-2-enoic acid neopentyl ester
> <PUBCHEM_IUPAC_INCHI>
InChI=1S/C29H35N5O7/c1-6-8-23(34-14-7-9-21(28(34)39)32-26(37)22-15-18(2)41-33-22)27(38)31-20(16-19-12-13-30-25(19)36)10-11-24(35)40-17-29(3,4)5/h1,7,9-11,14-15,19-20,23H,8,12-13,16-17H2,2-5H3,(H,30,36)(H,31,38)(H,32,37)/t19-,20+,23-/m0/s1
> <PUBCHEM_IUPAC_INCHIKEY>
KSGAFRHBMCBDPJ-MZKRTTBSSA-N
> <PUBCHEM_XLOGP3_AA>
2.2
> <PUBCHEM_EXACT_MASS>
565.25364847
> <PUBCHEM_MOLECULAR_FORMULA>
C29H35N5O7
> <PUBCHEM_MOLECULAR_WEIGHT>
565.6
> <PUBCHEM_OPENEYE_CAN_SMILES>
CC1=CC(=NO1)C(=O)NC2=CC=CN(C2=O)C(CC#C)C(=O)NC(CC3CCNC3=O)C=CC(=O)OCC(C)(C)C
> <PUBCHEM_OPENEYE_ISO_SMILES>
CC1=CC(=NO1)C(=O)NC2=CC=CN(C2=O)[C@@H](CC#C)C(=O)N[C@@H](C[C@@H]3CCNC3=O)C=CC(=O)OCC(C)(C)C
> <PUBCHEM_CACTVS_TPSA>
160
> <PUBCHEM_MONOISOTOPIC_WEIGHT>
565.25364847
> <PUBCHEM_TOTAL_CHARGE>
0
> <PUBCHEM_HEAVY_ATOM_COUNT>
41
> <PUBCHEM_ATOM_DEF_STEREO_COUNT>
3
> <PUBCHEM_ATOM_UDEF_STEREO_COUNT>
0
> <PUBCHEM_BOND_DEF_STEREO_COUNT>
0
> <PUBCHEM_BOND_UDEF_STEREO_COUNT>
1
> <PUBCHEM_ISOTOPIC_ATOM_COUNT>
0
> <PUBCHEM_COMPONENT_COUNT>
1
> <PUBCHEM_CACTVS_TAUTO_COUNT>
-1
> <PUBCHEM_COORDINATE_TYPE>
1
5
255
> <PUBCHEM_BONDANNOTATIONS>
10  30  8
10  31  8
12  38  8
13  14  6
19  23  1
21  20  6
30  32  8
31  33  8
32  35  8
33  35  8
38  39  8
39  40  8
7  12  8
7  40  8
16  9  6
$$$$
