508235
  -OEChem-10302200282D
160161  0     1  0  0  0  0  0999 V2000
    6.7862    3.0436    0.0000 Si  0  0  0  0  0  0  0  0  0  0  0  0
    4.0228    2.0256    0.0000 Si  0  0  0  0  0  0  0  0  0  0  0  0
    7.7508   -2.8817    0.0000 Si  0  0  0  0  0  0  0  0  0  0  0  0
   11.9155   -2.8817    0.0000 Si  0  0  0  0  0  0  0  0  0  0  0  0
    6.1051   -0.2178    0.0000 O   0  0  0  0  0  0  0  0  0  0  0  0
    7.1929    2.1301    0.0000 O   0  0  0  0  0  0  0  0  0  0  0  0
    5.0173    2.1301    0.0000 O   0  0  0  0  0  0  0  0  0  0  0  0
    8.7454   -2.9862    0.0000 O   0  0  0  0  0  0  0  0  0  0  0  0
    9.8332   -0.6384    0.0000 O   0  0  0  0  0  0  0  0  0  0  0  0
   10.9209   -2.9862    0.0000 O   0  0  0  0  0  0  0  0  0  0  0  0
    7.8652    0.0610    0.0000 O   0  0  0  0  0  0  0  0  0  0  0  0
   11.5932   -0.9171    0.0000 O   0  0  0  0  0  0  0  0  0  0  0  0
    2.4429   -0.5570    0.0000 O   0  0  0  0  0  0  0  0  0  0  0  0
    4.1371   -0.9171    0.0000 N   0  0  0  0  0  0  0  0  0  0  0  0
    6.6051    1.3211    0.0000 C   0  0  1  0  0  0  0  0  0  0  0  0
    5.6051    1.3211    0.0000 C   0  0  1  0  0  0  0  0  0  0  0  0
    9.3332   -2.1772    0.0000 C   0  0  1  0  0  0  0  0  0  0  0  0
   10.3332   -2.1772    0.0000 C   0  0  1  0  0  0  0  0  0  0  0  0
    9.0241   -1.2262    0.0000 C   0  0  1  0  0  0  0  0  0  0  0  0
    6.9141    0.3700    0.0000 C   0  0  2  0  0  0  0  0  0  0  0  0
    5.2961    0.3700    0.0000 C   0  0  1  0  0  0  0  0  0  0  0  0
   10.6422   -1.2262    0.0000 C   0  0  2  0  0  0  0  0  0  0  0  0
    8.0731   -0.9171    0.0000 C   0  0  0  0  0  0  0  0  0  0  0  0
    6.3794    3.9572    0.0000 C   0  0  0  0  0  0  0  0  0  0  0  0
    3.0283    1.9210    0.0000 C   0  0  0  0  0  0  0  0  0  0  0  0
    7.6463   -3.8762    0.0000 C   0  0  0  0  0  0  0  0  0  0  0  0
   12.9100   -2.7772    0.0000 C   0  0  0  0  0  0  0  0  0  0  0  0
    4.3450    0.0610    0.0000 C   0  0  0  0  0  0  0  0  0  0  0  0
    7.6997    3.4504    0.0000 C   0  0  0  0  0  0  0  0  0  0  0  0
    5.8726    2.6369    0.0000 C   0  0  0  0  0  0  0  0  0  0  0  0
    3.9183    3.0201    0.0000 C   0  0  0  0  0  0  0  0  0  0  0  0
    4.1273    1.0310    0.0000 C   0  0  0  0  0  0  0  0  0  0  0  0
    6.7563   -2.7772    0.0000 C   0  0  0  0  0  0  0  0  0  0  0  0
    7.8554   -1.8872    0.0000 C   0  0  0  0  0  0  0  0  0  0  0  0
   12.0200   -3.8762    0.0000 C   0  0  0  0  0  0  0  0  0  0  0  0
   11.8109   -1.8872    0.0000 C   0  0  0  0  0  0  0  0  0  0  0  0
    2.0338    1.8165    0.0000 C   0  0  0  0  0  0  0  0  0  0  0  0
    2.9237    2.9156    0.0000 C   0  0  0  0  0  0  0  0  0  0  0  0
    3.1328    0.9265    0.0000 C   0  0  0  0  0  0  0  0  0  0  0  0
    5.9727    4.8707    0.0000 C   0  0  0  0  0  0  0  0  0  0  0  0
    7.2930    4.3639    0.0000 C   0  0  0  0  0  0  0  0  0  0  0  0
    5.4659    3.5505    0.0000 C   0  0  0  0  0  0  0  0  0  0  0  0
    7.5418   -4.8707    0.0000 C   0  0  0  0  0  0  0  0  0  0  0  0
    6.6518   -3.7717    0.0000 C   0  0  0  0  0  0  0  0  0  0  0  0
    8.6408   -3.9808    0.0000 C   0  0  0  0  0  0  0  0  0  0  0  0
   13.9045   -2.6726    0.0000 C   0  0  0  0  0  0  0  0  0  0  0  0
   13.0145   -3.7717    0.0000 C   0  0  0  0  0  0  0  0  0  0  0  0
   12.8055   -1.7826    0.0000 C   0  0  0  0  0  0  0  0  0  0  0  0
   11.8011    0.0610    0.0000 C   0  0  0  0  0  0  0  0  0  0  0  0
    3.1861   -1.2262    0.0000 C   0  0  0  0  0  0  0  0  0  0  0  0
   12.7522    0.3700    0.0000 C   0  0  0  0  0  0  0  0  0  0  0  0
    2.9782   -2.2043    0.0000 C   0  0  0  0  0  0  0  0  0  0  0  0
   12.9601    1.3482    0.0000 C   0  0  0  0  0  0  0  0  0  0  0  0
    2.7702   -3.1824    0.0000 C   0  0  0  0  0  0  0  0  0  0  0  0
    2.0000   -1.9964    0.0000 C   0  0  0  0  0  0  0  0  0  0  0  0
    3.9563   -2.4122    0.0000 C   0  0  0  0  0  0  0  0  0  0  0  0
   13.9112    1.6572    0.0000 C   0  0  0  0  0  0  0  0  0  0  0  0
   14.1191    2.6353    0.0000 C   0  0  0  0  0  0  0  0  0  0  0  0
   15.0701    2.9444    0.0000 C   0  0  0  0  0  0  0  0  0  0  0  0
   15.2780    3.9225    0.0000 C   0  0  0  0  0  0  0  0  0  0  0  0
   16.2291    4.2315    0.0000 C   0  0  0  0  0  0  0  0  0  0  0  0
    6.3236    1.8735    0.0000 H   0  0  0  0  0  0  0  0  0  0  0  0
    5.8866    1.8735    0.0000 H   0  0  0  0  0  0  0  0  0  0  0  0
    8.7208   -2.0802    0.0000 H   0  0  0  0  0  0  0  0  0  0  0  0
   10.0517   -2.7296    0.0000 H   0  0  0  0  0  0  0  0  0  0  0  0
    8.9271   -0.6138    0.0000 H   0  0  0  0  0  0  0  0  0  0  0  0
    7.3525    0.8084    0.0000 H   0  0  0  0  0  0  0  0  0  0  0  0
    5.1991   -0.2423    0.0000 H   0  0  0  0  0  0  0  0  0  0  0  0
   11.0806   -1.6646    0.0000 H   0  0  0  0  0  0  0  0  0  0  0  0
    7.4535   -0.9388    0.0000 H   0  0  0  0  0  0  0  0  0  0  0  0
    7.9868   -1.5311    0.0000 H   0  0  0  0  0  0  0  0  0  0  0  0
    4.2587    0.6750    0.0000 H   0  0  0  0  0  0  0  0  0  0  0  0
    3.7254    0.0827    0.0000 H   0  0  0  0  0  0  0  0  0  0  0  0
    7.9519    2.8840    0.0000 H   0  0  0  0  0  0  0  0  0  0  0  0
    8.2661    3.7026    0.0000 H   0  0  0  0  0  0  0  0  0  0  0  0
    7.4475    4.0168    0.0000 H   0  0  0  0  0  0  0  0  0  0  0  0
    5.6204    3.2033    0.0000 H   0  0  0  0  0  0  0  0  0  0  0  0
    5.3062    2.3847    0.0000 H   0  0  0  0  0  0  0  0  0  0  0  0
    6.1248    2.0705    0.0000 H   0  0  0  0  0  0  0  0  0  0  0  0
    4.5349    3.0849    0.0000 H   0  0  0  0  0  0  0  0  0  0  0  0
    3.8535    3.6367    0.0000 H   0  0  0  0  0  0  0  0  0  0  0  0
    3.3017    2.9553    0.0000 H   0  0  0  0  0  0  0  0  0  0  0  0
    3.5107    0.9662    0.0000 H   0  0  0  0  0  0  0  0  0  0  0  0
    4.1921    0.4144    0.0000 H   0  0  0  0  0  0  0  0  0  0  0  0
    4.7439    1.0959    0.0000 H   0  0  0  0  0  0  0  0  0  0  0  0
    6.8211   -2.1606    0.0000 H   0  0  0  0  0  0  0  0  0  0  0  0
    6.1397   -2.7124    0.0000 H   0  0  0  0  0  0  0  0  0  0  0  0
    6.6915   -3.3938    0.0000 H   0  0  0  0  0  0  0  0  0  0  0  0
    8.4720   -1.9520    0.0000 H   0  0  0  0  0  0  0  0  0  0  0  0
    7.9202   -1.2706    0.0000 H   0  0  0  0  0  0  0  0  0  0  0  0
    7.2388   -1.8224    0.0000 H   0  0  0  0  0  0  0  0  0  0  0  0
   11.4034   -3.9410    0.0000 H   0  0  0  0  0  0  0  0  0  0  0  0
   12.0848   -4.4928    0.0000 H   0  0  0  0  0  0  0  0  0  0  0  0
   12.6366   -3.8114    0.0000 H   0  0  0  0  0  0  0  0  0  0  0  0
   12.4275   -1.8224    0.0000 H   0  0  0  0  0  0  0  0  0  0  0  0
   11.7461   -1.2706    0.0000 H   0  0  0  0  0  0  0  0  0  0  0  0
   11.1943   -1.9520    0.0000 H   0  0  0  0  0  0  0  0  0  0  0  0
    1.9689    2.4331    0.0000 H   0  0  0  0  0  0  0  0  0  0  0  0
    1.4172    1.7517    0.0000 H   0  0  0  0  0  0  0  0  0  0  0  0
    2.0986    1.1999    0.0000 H   0  0  0  0  0  0  0  0  0  0  0  0
    3.5404    2.9804    0.0000 H   0  0  0  0  0  0  0  0  0  0  0  0
    2.8589    3.5322    0.0000 H   0  0  0  0  0  0  0  0  0  0  0  0
    2.3071    2.8508    0.0000 H   0  0  0  0  0  0  0  0  0  0  0  0
    2.5162    0.8617    0.0000 H   0  0  0  0  0  0  0  0  0  0  0  0
    3.1976    0.3099    0.0000 H   0  0  0  0  0  0  0  0  0  0  0  0
    3.7494    0.9913    0.0000 H   0  0  0  0  0  0  0  0  0  0  0  0
    6.5391    5.1229    0.0000 H   0  0  0  0  0  0  0  0  0  0  0  0
    5.7205    5.4371    0.0000 H   0  0  0  0  0  0  0  0  0  0  0  0
    5.4063    4.6186    0.0000 H   0  0  0  0  0  0  0  0  0  0  0  0
    7.5451    3.7975    0.0000 H   0  0  0  0  0  0  0  0  0  0  0  0
    7.8594    4.6161    0.0000 H   0  0  0  0  0  0  0  0  0  0  0  0
    7.0408    4.9303    0.0000 H   0  0  0  0  0  0  0  0  0  0  0  0
    5.2137    4.1169    0.0000 H   0  0  0  0  0  0  0  0  0  0  0  0
    4.8995    3.2983    0.0000 H   0  0  0  0  0  0  0  0  0  0  0  0
    5.7180    2.9841    0.0000 H   0  0  0  0  0  0  0  0  0  0  0  0
    6.9252   -4.8059    0.0000 H   0  0  0  0  0  0  0  0  0  0  0  0
    7.4770   -5.4873    0.0000 H   0  0  0  0  0  0  0  0  0  0  0  0
    8.1584   -4.9356    0.0000 H   0  0  0  0  0  0  0  0  0  0  0  0
    6.7166   -3.1551    0.0000 H   0  0  0  0  0  0  0  0  0  0  0  0
    6.0352   -3.7069    0.0000 H   0  0  0  0  0  0  0  0  0  0  0  0
    6.5870   -4.3883    0.0000 H   0  0  0  0  0  0  0  0  0  0  0  0
    8.5760   -4.5973    0.0000 H   0  0  0  0  0  0  0  0  0  0  0  0
    9.2574   -4.0456    0.0000 H   0  0  0  0  0  0  0  0  0  0  0  0
    8.7056   -3.3641    0.0000 H   0  0  0  0  0  0  0  0  0  0  0  0
   13.9693   -3.2892    0.0000 H   0  0  0  0  0  0  0  0  0  0  0  0
   14.5211   -2.6078    0.0000 H   0  0  0  0  0  0  0  0  0  0  0  0
   13.8397   -2.0560    0.0000 H   0  0  0  0  0  0  0  0  0  0  0  0
   12.3979   -3.8365    0.0000 H   0  0  0  0  0  0  0  0  0  0  0  0
   13.0793   -4.3883    0.0000 H   0  0  0  0  0  0  0  0  0  0  0  0
   13.6311   -3.7069    0.0000 H   0  0  0  0  0  0  0  0  0  0  0  0
   13.4221   -1.7178    0.0000 H   0  0  0  0  0  0  0  0  0  0  0  0
   12.7407   -1.1660    0.0000 H   0  0  0  0  0  0  0  0  0  0  0  0
   12.1889   -1.8474    0.0000 H   0  0  0  0  0  0  0  0  0  0  0  0
    4.5979   -1.3320    0.0000 H   0  0  0  0  0  0  0  0  0  0  0  0
   11.7149    0.6750    0.0000 H   0  0  0  0  0  0  0  0  0  0  0  0
   11.1815    0.0827    0.0000 H   0  0  0  0  0  0  0  0  0  0  0  0
   12.8385   -0.2439    0.0000 H   0  0  0  0  0  0  0  0  0  0  0  0
   13.3718    0.3484    0.0000 H   0  0  0  0  0  0  0  0  0  0  0  0
   12.8738    1.9621    0.0000 H   0  0  0  0  0  0  0  0  0  0  0  0
   12.3405    1.3698    0.0000 H   0  0  0  0  0  0  0  0  0  0  0  0
    2.1638   -3.0535    0.0000 H   0  0  0  0  0  0  0  0  0  0  0  0
    2.6413   -3.7889    0.0000 H   0  0  0  0  0  0  0  0  0  0  0  0
    3.3767   -3.3114    0.0000 H   0  0  0  0  0  0  0  0  0  0  0  0
    2.1289   -1.3899    0.0000 H   0  0  0  0  0  0  0  0  0  0  0  0
    1.3936   -1.8675    0.0000 H   0  0  0  0  0  0  0  0  0  0  0  0
    1.8711   -2.6028    0.0000 H   0  0  0  0  0  0  0  0  0  0  0  0
    3.8274   -3.0187    0.0000 H   0  0  0  0  0  0  0  0  0  0  0  0
    4.5628   -2.5411    0.0000 H   0  0  0  0  0  0  0  0  0  0  0  0
    4.0852   -1.8058    0.0000 H   0  0  0  0  0  0  0  0  0  0  0  0
   13.9975    1.0432    0.0000 H   0  0  0  0  0  0  0  0  0  0  0  0
   14.5308    1.6356    0.0000 H   0  0  0  0  0  0  0  0  0  0  0  0
   14.0328    3.2493    0.0000 H   0  0  0  0  0  0  0  0  0  0  0  0
   13.4995    2.6570    0.0000 H   0  0  0  0  0  0  0  0  0  0  0  0
   15.1564    2.3304    0.0000 H   0  0  0  0  0  0  0  0  0  0  0  0
   15.6898    2.9227    0.0000 H   0  0  0  0  0  0  0  0  0  0  0  0
   15.1918    4.5365    0.0000 H   0  0  0  0  0  0  0  0  0  0  0  0
   14.6584    3.9441    0.0000 H   0  0  0  0  0  0  0  0  0  0  0  0
   16.4207    3.6419    0.0000 H   0  0  0  0  0  0  0  0  0  0  0  0
   16.8188    4.4231    0.0000 H   0  0  0  0  0  0  0  0  0  0  0  0
   16.0375    4.8212    0.0000 H   0  0  0  0  0  0  0  0  0  0  0  0
  1  6  1  0  0  0  0
  1 24  1  0  0  0  0
  1 29  1  0  0  0  0
  1 30  1  0  0  0  0
  2  7  1  0  0  0  0
  2 25  1  0  0  0  0
  2 31  1  0  0  0  0
  2 32  1  0  0  0  0
  3  8  1  0  0  0  0
  3 26  1  0  0  0  0
  3 33  1  0  0  0  0
  3 34  1  0  0  0  0
  4 10  1  0  0  0  0
  4 27  1  0  0  0  0
  4 35  1  0  0  0  0
  4 36  1  0  0  0  0
  5 20  1  0  0  0  0
  5 21  1  0  0  0  0
 15  6  1  6  0  0  0
 16  7  1  1  0  0  0
 17  8  1  6  0  0  0
  9 19  1  0  0  0  0
  9 22  1  0  0  0  0
 18 10  1  1  0  0  0
 20 11  1  1  0  0  0
 11 23  1  0  0  0  0
 22 12  1  6  0  0  0
 12 49  1  0  0  0  0
 13 50  2  0  0  0  0
 14 28  1  0  0  0  0
 14 50  1  0  0  0  0
 14134  1  0  0  0  0
 15 16  1  0  0  0  0
 15 20  1  0  0  0  0
 15 62  1  0  0  0  0
 16 21  1  0  0  0  0
 16 63  1  0  0  0  0
 17 18  1  0  0  0  0
 17 19  1  0  0  0  0
 17 64  1  0  0  0  0
 18 22  1  0  0  0  0
 18 65  1  0  0  0  0
 19 23  1  1  0  0  0
 19 66  1  0  0  0  0
 20 67  1  0  0  0  0
 21 28  1  6  0  0  0
 21 68  1  0  0  0  0
 22 69  1  0  0  0  0
 23 70  1  0  0  0  0
 23 71  1  0  0  0  0
 24 40  1  0  0  0  0
 24 41  1  0  0  0  0
 24 42  1  0  0  0  0
 25 37  1  0  0  0  0
 25 38  1  0  0  0  0
 25 39  1  0  0  0  0
 26 43  1  0  0  0  0
 26 44  1  0  0  0  0
 26 45  1  0  0  0  0
 27 46  1  0  0  0  0
 27 47  1  0  0  0  0
 27 48  1  0  0  0  0
 28 72  1  0  0  0  0
 28 73  1  0  0  0  0
 29 74  1  0  0  0  0
 29 75  1  0  0  0  0
 29 76  1  0  0  0  0
 30 77  1  0  0  0  0
 30 78  1  0  0  0  0
 30 79  1  0  0  0  0
 31 80  1  0  0  0  0
 31 81  1  0  0  0  0
 31 82  1  0  0  0  0
 32 83  1  0  0  0  0
 32 84  1  0  0  0  0
 32 85  1  0  0  0  0
 33 86  1  0  0  0  0
 33 87  1  0  0  0  0
 33 88  1  0  0  0  0
 34 89  1  0  0  0  0
 34 90  1  0  0  0  0
 34 91  1  0  0  0  0
 35 92  1  0  0  0  0
 35 93  1  0  0  0  0
 35 94  1  0  0  0  0
 36 95  1  0  0  0  0
 36 96  1  0  0  0  0
 36 97  1  0  0  0  0
 37 98  1  0  0  0  0
 37 99  1  0  0  0  0
 37100  1  0  0  0  0
 38101  1  0  0  0  0
 38102  1  0  0  0  0
 38103  1  0  0  0  0
 39104  1  0  0  0  0
 39105  1  0  0  0  0
 39106  1  0  0  0  0
 40107  1  0  0  0  0
 40108  1  0  0  0  0
 40109  1  0  0  0  0
 41110  1  0  0  0  0
 41111  1  0  0  0  0
 41112  1  0  0  0  0
 42113  1  0  0  0  0
 42114  1  0  0  0  0
 42115  1  0  0  0  0
 43116  1  0  0  0  0
 43117  1  0  0  0  0
 43118  1  0  0  0  0
 44119  1  0  0  0  0
 44120  1  0  0  0  0
 44121  1  0  0  0  0
 45122  1  0  0  0  0
 45123  1  0  0  0  0
 45124  1  0  0  0  0
 46125  1  0  0  0  0
 46126  1  0  0  0  0
 46127  1  0  0  0  0
 47128  1  0  0  0  0
 47129  1  0  0  0  0
 47130  1  0  0  0  0
 48131  1  0  0  0  0
 48132  1  0  0  0  0
 48133  1  0  0  0  0
 49 51  1  0  0  0  0
 49135  1  0  0  0  0
 49136  1  0  0  0  0
 50 52  1  0  0  0  0
 51 53  1  0  0  0  0
 51137  1  0  0  0  0
 51138  1  0  0  0  0
 52 54  1  0  0  0  0
 52 55  1  0  0  0  0
 52 56  1  0  0  0  0
 53 57  1  0  0  0  0
 53139  1  0  0  0  0
 53140  1  0  0  0  0
 54141  1  0  0  0  0
 54142  1  0  0  0  0
 54143  1  0  0  0  0
 55144  1  0  0  0  0
 55145  1  0  0  0  0
 55146  1  0  0  0  0
 56147  1  0  0  0  0
 56148  1  0  0  0  0
 56149  1  0  0  0  0
 57 58  1  0  0  0  0
 57150  1  0  0  0  0
 57151  1  0  0  0  0
 58 59  1  0  0  0  0
 58152  1  0  0  0  0
 58153  1  0  0  0  0
 59 60  1  0  0  0  0
 59154  1  0  0  0  0
 59155  1  0  0  0  0
 60 61  1  0  0  0  0
 60156  1  0  0  0  0
 60157  1  0  0  0  0
 61158  1  0  0  0  0
 61159  1  0  0  0  0
 61160  1  0  0  0  0
M  END
> <PUBCHEM_COMPOUND_CID>
508235
> <PUBCHEM_COMPOUND_CANONICALIZED>
1
> <PUBCHEM_CACTVS_COMPLEXITY>
1360
> <PUBCHEM_CACTVS_HBOND_ACCEPTOR>
9
> <PUBCHEM_CACTVS_HBOND_DONOR>
1
> <PUBCHEM_CACTVS_ROTATABLE_BOND>
26
> <PUBCHEM_CACTVS_SUBSKEYS>
AAADcfB+PAwAAAAAAAAAAAAAAAAAASJAAAAAAAAAAAAAAAAAAAAAHhAQAEAADhTxoAdCCALABAEIAAEQEAAAAAAAAAAAAIEIAAATAAIAgAAnAAAHFgCWAAHw8KoAAAAAAAAAAAAAAAAAAAAAAAAAAAAAAA==
> <PUBCHEM_IUPAC_OPENEYE_NAME>
N-[[(2R,3R,4S,5S)-5-[[(2R,3R,4S,5S)-3,4-bis[[tert-butyl(dimethyl)silyl]oxy]-5-octoxy-tetrahydrofuran-2-yl]methoxy]-3,4-bis[[tert-butyl(dimethyl)silyl]oxy]tetrahydrofuran-2-yl]methyl]-2,2-dimethyl-propanamide
> <PUBCHEM_IUPAC_CAS_NAME>
N-[[(2R,3R,4S,5S)-5-[[(2R,3R,4S,5S)-3,4-bis[[tert-butyl(dimethyl)silyl]oxy]-5-octoxy-2-oxolanyl]methoxy]-3,4-bis[[tert-butyl(dimethyl)silyl]oxy]-2-oxolanyl]methyl]-2,2-dimethylpropanamide
> <PUBCHEM_IUPAC_NAME_MARKUP>
<I>N</I>-[[(2<I>R</I>,3<I>R</I>,4<I>S</I>,5<I>S</I>)-5-[[(2<I>R</I>,3<I>R</I>,4<I>S</I>,5<I>S</I>)-3,4-bis[[<I>tert</I>-butyl(dimethyl)silyl]oxy]-5-octoxyoxolan-2-yl]methoxy]-3,4-bis[[<I>tert</I>-butyl(dimethyl)silyl]oxy]oxolan-2-yl]methyl]-2,2-dimethylpropanamide
> <PUBCHEM_IUPAC_NAME>
N-[[(2R,3R,4S,5S)-5-[[(2R,3R,4S,5S)-3,4-bis[[tert-butyl(dimethyl)silyl]oxy]-5-octoxyoxolan-2-yl]methoxy]-3,4-bis[[tert-butyl(dimethyl)silyl]oxy]oxolan-2-yl]methyl]-2,2-dimethylpropanamide
> <PUBCHEM_IUPAC_SYSTEMATIC_NAME>
N-[[(2R,3R,4S,5S)-5-[[(2R,3R,4S,5S)-3,4-bis[[tert-butyl(dimethyl)silyl]oxy]-5-octoxy-oxolan-2-yl]methoxy]-3,4-bis[[tert-butyl(dimethyl)silyl]oxy]oxolan-2-yl]methyl]-2,2-dimethyl-propanamide
> <PUBCHEM_IUPAC_TRADITIONAL_NAME>
N-[[(2R,3R,4S,5S)-5-[[(2R,3R,4S,5S)-3,4-bis[[tert-butyl(dimethyl)silyl]oxy]-5-octoxy-tetrahydrofuran-2-yl]methoxy]-3,4-bis[[tert-butyl(dimethyl)silyl]oxy]tetrahydrofuran-2-yl]methyl]-2,2-dimethyl-propionamide
> <PUBCHEM_IUPAC_INCHI>
InChI=1S/C47H99NO9Si4/c1-25-26-27-28-29-30-31-50-40-39(57-61(23,24)47(14,15)16)37(55-59(19,20)45(8,9)10)35(53-40)33-51-41-38(56-60(21,22)46(11,12)13)36(54-58(17,18)44(5,6)7)34(52-41)32-48-42(49)43(2,3)4/h34-41H,25-33H2,1-24H3,(H,48,49)/t34-,35-,36-,37-,38+,39+,40+,41+/m1/s1
> <PUBCHEM_IUPAC_INCHIKEY>
UZELVXMKSSTZAC-LYGKFMINSA-N
> <PUBCHEM_EXACT_MASS>
933.63968987
> <PUBCHEM_MOLECULAR_FORMULA>
C47H99NO9Si4
> <PUBCHEM_MOLECULAR_WEIGHT>
934.6
> <PUBCHEM_OPENEYE_CAN_SMILES>
CCCCCCCCOC1C(C(C(O1)COC2C(C(C(O2)CNC(=O)C(C)(C)C)O[Si](C)(C)C(C)(C)C)O[Si](C)(C)C(C)(C)C)O[Si](C)(C)C(C)(C)C)O[Si](C)(C)C(C)(C)C
> <PUBCHEM_OPENEYE_ISO_SMILES>
CCCCCCCCO[C@@H]1[C@H]([C@@H]([C@H](O1)CO[C@@H]2[C@H]([C@@H]([C@H](O2)CNC(=O)C(C)(C)C)O[Si](C)(C)C(C)(C)C)O[Si](C)(C)C(C)(C)C)O[Si](C)(C)C(C)(C)C)O[Si](C)(C)C(C)(C)C
> <PUBCHEM_CACTVS_TPSA>
103
> <PUBCHEM_MONOISOTOPIC_WEIGHT>
933.63968987
> <PUBCHEM_TOTAL_CHARGE>
0
> <PUBCHEM_HEAVY_ATOM_COUNT>
61
> <PUBCHEM_ATOM_DEF_STEREO_COUNT>
8
> <PUBCHEM_ATOM_UDEF_STEREO_COUNT>
0
> <PUBCHEM_BOND_DEF_STEREO_COUNT>
0
> <PUBCHEM_BOND_UDEF_STEREO_COUNT>
0
> <PUBCHEM_ISOTOPIC_ATOM_COUNT>
0
> <PUBCHEM_COMPONENT_COUNT>
1
> <PUBCHEM_CACTVS_TAUTO_COUNT>
-1
> <PUBCHEM_COORDINATE_TYPE>
1
5
255
> <PUBCHEM_BONDANNOTATIONS>
18  10  5
20  11  5
22  12  6
19  23  5
21  28  6
15  6  6
16  7  5
17  8  6
$$$$
