508201
  -OEChem-10302200282D
 93 96  0     1  0  0  0  0  0999 V2000
    7.2641    3.0670    0.0000 O   0  0  0  0  0  0  0  0  0  0  0  0
    5.5321    0.0670    0.0000 O   0  0  0  0  0  0  0  0  0  0  0  0
    5.5321   -0.9330    0.0000 O   0  0  0  0  0  0  0  0  0  0  0  0
    8.9962   -3.9330    0.0000 O   0  0  0  0  0  0  0  0  0  0  0  0
    5.5321    2.0670    0.0000 N   0  0  3  0  0  0  0  0  0  0  0  0
    6.3981    4.5670    0.0000 N   0  0  0  0  0  0  0  0  0  0  0  0
    7.2641   -0.9330    0.0000 N   0  0  0  0  0  0  0  0  0  0  0  0
    8.1301   -5.4330    0.0000 N   0  0  0  0  0  0  0  0  0  0  0  0
    3.8000    3.0670    0.0000 C   0  0  2  0  0  0  0  0  0  0  0  0
    3.8000    2.0670    0.0000 C   0  0  1  0  0  0  0  0  0  0  0  0
    4.6660    3.5670    0.0000 C   0  0  0  0  0  0  0  0  0  0  0  0
    4.6660    1.5670    0.0000 C   0  0  0  0  0  0  0  0  0  0  0  0
    2.9061    3.6016    0.0000 C   0  0  0  0  0  0  0  0  0  0  0  0
    2.9061    1.5323    0.0000 C   0  0  0  0  0  0  0  0  0  0  0  0
    5.5321    3.0670    0.0000 C   0  0  1  0  0  0  0  0  0  0  0  0
    2.0000    3.0878    0.0000 C   0  0  0  0  0  0  0  0  0  0  0  0
    2.0000    2.0462    0.0000 C   0  0  0  0  0  0  0  0  0  0  0  0
    6.3981    1.5670    0.0000 C   0  0  0  0  0  0  0  0  0  0  0  0
    6.3981    3.5670    0.0000 C   0  0  0  0  0  0  0  0  0  0  0  0
    6.3981    0.5670    0.0000 C   0  0  1  0  0  0  0  0  0  0  0  0
    7.2641    0.0670    0.0000 C   0  0  2  0  0  0  0  0  0  0  0  0
    7.2641    5.0670    0.0000 C   0  0  0  0  0  0  0  0  0  0  0  0
    8.1301    0.5670    0.0000 C   0  0  0  0  0  0  0  0  0  0  0  0
    8.1301    5.5670    0.0000 C   0  0  0  0  0  0  0  0  0  0  0  0
    6.7641    5.9330    0.0000 C   0  0  0  0  0  0  0  0  0  0  0  0
    7.7641    4.2010    0.0000 C   0  0  0  0  0  0  0  0  0  0  0  0
    8.9962    0.0670    0.0000 C   0  0  0  0  0  0  0  0  0  0  0  0
    6.3981   -1.4330    0.0000 C   0  0  0  0  0  0  0  0  0  0  0  0
    9.8622    0.5670    0.0000 C   0  0  0  0  0  0  0  0  0  0  0  0
    8.9962   -0.9330    0.0000 C   0  0  0  0  0  0  0  0  0  0  0  0
    6.3981   -2.4330    0.0000 C   0  0  0  0  0  0  0  0  0  0  0  0
   10.7282    0.0670    0.0000 C   0  0  0  0  0  0  0  0  0  0  0  0
    9.8622   -1.4330    0.0000 C   0  0  0  0  0  0  0  0  0  0  0  0
    5.5321   -2.9330    0.0000 C   0  0  0  0  0  0  0  0  0  0  0  0
   10.7282   -0.9330    0.0000 C   0  0  0  0  0  0  0  0  0  0  0  0
    7.2641   -2.9330    0.0000 C   0  0  0  0  0  0  0  0  0  0  0  0
    7.2641   -3.9330    0.0000 C   0  0  0  0  0  0  0  0  0  0  0  0
    5.5321   -3.9330    0.0000 C   0  0  0  0  0  0  0  0  0  0  0  0
    4.6660   -2.4330    0.0000 C   0  0  0  0  0  0  0  0  0  0  0  0
    6.3981   -4.4330    0.0000 C   0  0  0  0  0  0  0  0  0  0  0  0
    8.1301   -4.4330    0.0000 C   0  0  0  0  0  0  0  0  0  0  0  0
    8.9962   -5.9330    0.0000 C   0  0  0  0  0  0  0  0  0  0  0  0
    7.2641   -5.9330    0.0000 C   0  0  0  0  0  0  0  0  0  0  0  0
    3.8066    3.9170    0.0000 H   0  0  0  0  0  0  0  0  0  0  0  0
    3.8066    1.2170    0.0000 H   0  0  0  0  0  0  0  0  0  0  0  0
    5.0646    4.0419    0.0000 H   0  0  0  0  0  0  0  0  0  0  0  0
    4.2675    4.0419    0.0000 H   0  0  0  0  0  0  0  0  0  0  0  0
    4.2675    1.0920    0.0000 H   0  0  0  0  0  0  0  0  0  0  0  0
    5.0646    1.0920    0.0000 H   0  0  0  0  0  0  0  0  0  0  0  0
    3.3107    4.0714    0.0000 H   0  0  0  0  0  0  0  0  0  0  0  0
    2.5124    4.0807    0.0000 H   0  0  0  0  0  0  0  0  0  0  0  0
    2.5124    1.0533    0.0000 H   0  0  0  0  0  0  0  0  0  0  0  0
    3.3107    1.0625    0.0000 H   0  0  0  0  0  0  0  0  0  0  0  0
    6.0690    2.7570    0.0000 H   0  0  0  0  0  0  0  0  0  0  0  0
    1.7909    3.6715    0.0000 H   0  0  0  0  0  0  0  0  0  0  0  0
    1.3891    2.9817    0.0000 H   0  0  0  0  0  0  0  0  0  0  0  0
    1.3891    2.1523    0.0000 H   0  0  0  0  0  0  0  0  0  0  0  0
    1.7909    1.4625    0.0000 H   0  0  0  0  0  0  0  0  0  0  0  0
    7.0087    1.4593    0.0000 H   0  0  0  0  0  0  0  0  0  0  0  0
    6.6101    2.1496    0.0000 H   0  0  0  0  0  0  0  0  0  0  0  0
    6.3981   -0.0530    0.0000 H   0  0  0  0  0  0  0  0  0  0  0  0
    7.8010   -0.2430    0.0000 H   0  0  0  0  0  0  0  0  0  0  0  0
    5.8612    4.8770    0.0000 H   0  0  0  0  0  0  0  0  0  0  0  0
    8.5287    1.0419    0.0000 H   0  0  0  0  0  0  0  0  0  0  0  0
    7.7316    1.0419    0.0000 H   0  0  0  0  0  0  0  0  0  0  0  0
    4.9951    0.3770    0.0000 H   0  0  0  0  0  0  0  0  0  0  0  0
    7.8010   -1.2430    0.0000 H   0  0  0  0  0  0  0  0  0  0  0  0
    8.4401    5.0300    0.0000 H   0  0  0  0  0  0  0  0  0  0  0  0
    8.6671    5.8770    0.0000 H   0  0  0  0  0  0  0  0  0  0  0  0
    7.8201    6.1039    0.0000 H   0  0  0  0  0  0  0  0  0  0  0  0
    7.3010    6.2430    0.0000 H   0  0  0  0  0  0  0  0  0  0  0  0
    6.4541    6.4700    0.0000 H   0  0  0  0  0  0  0  0  0  0  0  0
    6.2272    5.6230    0.0000 H   0  0  0  0  0  0  0  0  0  0  0  0
    7.2272    3.8910    0.0000 H   0  0  0  0  0  0  0  0  0  0  0  0
    8.0741    3.6640    0.0000 H   0  0  0  0  0  0  0  0  0  0  0  0
    8.3010    4.5110    0.0000 H   0  0  0  0  0  0  0  0  0  0  0  0
    9.8622    1.1870    0.0000 H   0  0  0  0  0  0  0  0  0  0  0  0
    8.4592   -1.2430    0.0000 H   0  0  0  0  0  0  0  0  0  0  0  0
   11.2651    0.3770    0.0000 H   0  0  0  0  0  0  0  0  0  0  0  0
    9.8622   -2.0530    0.0000 H   0  0  0  0  0  0  0  0  0  0  0  0
   11.2651   -1.2430    0.0000 H   0  0  0  0  0  0  0  0  0  0  0  0
    7.8010   -2.6230    0.0000 H   0  0  0  0  0  0  0  0  0  0  0  0
    4.9951   -4.2430    0.0000 H   0  0  0  0  0  0  0  0  0  0  0  0
    4.9760   -1.8961    0.0000 H   0  0  0  0  0  0  0  0  0  0  0  0
    4.1291   -2.1230    0.0000 H   0  0  0  0  0  0  0  0  0  0  0  0
    4.3560   -2.9700    0.0000 H   0  0  0  0  0  0  0  0  0  0  0  0
    6.3981   -5.0530    0.0000 H   0  0  0  0  0  0  0  0  0  0  0  0
    8.6862   -6.4700    0.0000 H   0  0  0  0  0  0  0  0  0  0  0  0
    9.5331   -6.2430    0.0000 H   0  0  0  0  0  0  0  0  0  0  0  0
    9.3062   -5.3961    0.0000 H   0  0  0  0  0  0  0  0  0  0  0  0
    6.9541   -5.3961    0.0000 H   0  0  0  0  0  0  0  0  0  0  0  0
    6.7272   -6.2430    0.0000 H   0  0  0  0  0  0  0  0  0  0  0  0
    7.5741   -6.4700    0.0000 H   0  0  0  0  0  0  0  0  0  0  0  0
  1 19  2  0  0  0  0
 20  2  1  1  0  0  0
  2 66  1  0  0  0  0
  3 28  2  0  0  0  0
  4 41  2  0  0  0  0
  5 12  1  0  0  0  0
  5 15  1  0  0  0  0
  5 18  1  0  0  0  0
  6 19  1  0  0  0  0
  6 22  1  0  0  0  0
  6 63  1  0  0  0  0
 21  7  1  6  0  0  0
  7 28  1  0  0  0  0
  7 67  1  0  0  0  0
  8 41  1  0  0  0  0
  8 42  1  0  0  0  0
  8 43  1  0  0  0  0
  9 10  1  0  0  0  0
  9 11  1  0  0  0  0
  9 13  1  0  0  0  0
  9 44  1  6  0  0  0
 10 12  1  0  0  0  0
 10 14  1  0  0  0  0
 10 45  1  6  0  0  0
 11 15  1  0  0  0  0
 11 46  1  0  0  0  0
 11 47  1  0  0  0  0
 12 48  1  0  0  0  0
 12 49  1  0  0  0  0
 13 16  1  0  0  0  0
 13 50  1  0  0  0  0
 13 51  1  0  0  0  0
 14 17  1  0  0  0  0
 14 52  1  0  0  0  0
 14 53  1  0  0  0  0
 15 19  1  1  0  0  0
 15 54  1  0  0  0  0
 16 17  1  0  0  0  0
 16 55  1  0  0  0  0
 16 56  1  0  0  0  0
 17 57  1  0  0  0  0
 17 58  1  0  0  0  0
 18 20  1  0  0  0  0
 18 59  1  0  0  0  0
 18 60  1  0  0  0  0
 20 21  1  0  0  0  0
 20 61  1  0  0  0  0
 21 23  1  0  0  0  0
 21 62  1  0  0  0  0
 22 24  1  0  0  0  0
 22 25  1  0  0  0  0
 22 26  1  0  0  0  0
 23 27  1  0  0  0  0
 23 64  1  0  0  0  0
 23 65  1  0  0  0  0
 24 68  1  0  0  0  0
 24 69  1  0  0  0  0
 24 70  1  0  0  0  0
 25 71  1  0  0  0  0
 25 72  1  0  0  0  0
 25 73  1  0  0  0  0
 26 74  1  0  0  0  0
 26 75  1  0  0  0  0
 26 76  1  0  0  0  0
 27 29  2  0  0  0  0
 27 30  1  0  0  0  0
 28 31  1  0  0  0  0
 29 32  1  0  0  0  0
 29 77  1  0  0  0  0
 30 33  2  0  0  0  0
 30 78  1  0  0  0  0
 31 34  2  0  0  0  0
 31 36  1  0  0  0  0
 32 35  2  0  0  0  0
 32 79  1  0  0  0  0
 33 35  1  0  0  0  0
 33 80  1  0  0  0  0
 34 38  1  0  0  0  0
 34 39  1  0  0  0  0
 35 81  1  0  0  0  0
 36 37  2  0  0  0  0
 36 82  1  0  0  0  0
 37 40  1  0  0  0  0
 37 41  1  0  0  0  0
 38 40  2  0  0  0  0
 38 83  1  0  0  0  0
 39 84  1  0  0  0  0
 39 85  1  0  0  0  0
 39 86  1  0  0  0  0
 40 87  1  0  0  0  0
 42 88  1  0  0  0  0
 42 89  1  0  0  0  0
 42 90  1  0  0  0  0
 43 91  1  0  0  0  0
 43 92  1  0  0  0  0
 43 93  1  0  0  0  0
M  END
> <PUBCHEM_COMPOUND_CID>
508201
> <PUBCHEM_COMPOUND_CANONICALIZED>
1
> <PUBCHEM_CACTVS_COMPLEXITY>
943
> <PUBCHEM_CACTVS_HBOND_ACCEPTOR>
5
> <PUBCHEM_CACTVS_HBOND_DONOR>
3
> <PUBCHEM_CACTVS_ROTATABLE_BOND>
10
> <PUBCHEM_CACTVS_SUBSKEYS>
AAADcfB/uAAAAAAAAAAAAAAAAAAAAAAAAAA8YMEAAAAAAACxQAAAHgAQCAAADbzhmAYyAIPAAgCIAiFSEACCAAAkAAAIiIGIBMgKcDKA1TGUYQhklgCYiYeYy+COwAACAAAQAACAAAQAACAAAAAAAAAAAA==
> <PUBCHEM_IUPAC_OPENEYE_NAME>
N3-[(1S,2S)-3-[(3S,4aS,8aS)-3-(tert-butylcarbamoyl)-3,4,4a,5,6,7,8,8a-octahydro-1H-isoquinolin-2-yl]-1-benzyl-2-hydroxy-propyl]-N1,N1,4-trimethyl-benzene-1,3-dicarboxamide
> <PUBCHEM_IUPAC_CAS_NAME>
N3-[(2S,3S)-4-[(3S,4aS,8aS)-3-[(tert-butylamino)-oxomethyl]-3,4,4a,5,6,7,8,8a-octahydro-1H-isoquinolin-2-yl]-3-hydroxy-1-phenylbutan-2-yl]-N1,N1,4-trimethylbenzene-1,3-dicarboxamide
> <PUBCHEM_IUPAC_NAME_MARKUP>
3-<I>N</I>-[(2<I>S</I>,3<I>S</I>)-4-[(3<I>S</I>,4<I>a</I><I>S</I>,8<I>a</I><I>S</I>)-3-(<I>tert</I>-butylcarbamoyl)-3,4,4<I>a</I>,5,6,7,8,8<I>a</I>-octahydro-1<I>H</I>-isoquinolin-2-yl]-3-hydroxy-1-phenylbutan-2-yl]-1-<I>N</I>,1-<I>N</I>,4-trimethylbenzene-1,3-dicarboxamide
> <PUBCHEM_IUPAC_NAME>
3-N-[(2S,3S)-4-[(3S,4aS,8aS)-3-(tert-butylcarbamoyl)-3,4,4a,5,6,7,8,8a-octahydro-1H-isoquinolin-2-yl]-3-hydroxy-1-phenylbutan-2-yl]-1-N,1-N,4-trimethylbenzene-1,3-dicarboxamide
> <PUBCHEM_IUPAC_SYSTEMATIC_NAME>
N3-[(2S,3S)-4-[(3S,4aS,8aS)-3-(tert-butylcarbamoyl)-3,4,4a,5,6,7,8,8a-octahydro-1H-isoquinolin-2-yl]-3-oxidanyl-1-phenyl-butan-2-yl]-N1,N1,4-trimethyl-benzene-1,3-dicarboxamide
> <PUBCHEM_IUPAC_TRADITIONAL_NAME>
N'-[(1S,2S)-3-[(3S,4aS,8aS)-3-(tert-butylcarbamoyl)-3,4,4a,5,6,7,8,8a-octahydro-1H-isoquinolin-2-yl]-1-benzyl-2-hydroxy-propyl]-N,N,4-trimethyl-isophthalamide
> <PUBCHEM_IUPAC_INCHI>
InChI=1S/C35H50N4O4/c1-23-16-17-26(34(43)38(5)6)19-28(23)32(41)36-29(18-24-12-8-7-9-13-24)31(40)22-39-21-27-15-11-10-14-25(27)20-30(39)33(42)37-35(2,3)4/h7-9,12-13,16-17,19,25,27,29-31,40H,10-11,14-15,18,20-22H2,1-6H3,(H,36,41)(H,37,42)/t25-,27+,29-,30-,31-/m0/s1
> <PUBCHEM_IUPAC_INCHIKEY>
JBALPOWNHVKYTP-FFUIWNHXSA-N
> <PUBCHEM_XLOGP3_AA>
5.2
> <PUBCHEM_EXACT_MASS>
590.38320609
> <PUBCHEM_MOLECULAR_FORMULA>
C35H50N4O4
> <PUBCHEM_MOLECULAR_WEIGHT>
590.8
> <PUBCHEM_OPENEYE_CAN_SMILES>
CC1=C(C=C(C=C1)C(=O)N(C)C)C(=O)NC(CC2=CC=CC=C2)C(CN3CC4CCCCC4CC3C(=O)NC(C)(C)C)O
> <PUBCHEM_OPENEYE_ISO_SMILES>
CC1=C(C=C(C=C1)C(=O)N(C)C)C(=O)N[C@@H](CC2=CC=CC=C2)[C@H](CN3C[C@H]4CCCC[C@H]4C[C@H]3C(=O)NC(C)(C)C)O
> <PUBCHEM_CACTVS_TPSA>
102
> <PUBCHEM_MONOISOTOPIC_WEIGHT>
590.38320609
> <PUBCHEM_TOTAL_CHARGE>
0
> <PUBCHEM_HEAVY_ATOM_COUNT>
43
> <PUBCHEM_ATOM_DEF_STEREO_COUNT>
5
> <PUBCHEM_ATOM_UDEF_STEREO_COUNT>
0
> <PUBCHEM_BOND_DEF_STEREO_COUNT>
0
> <PUBCHEM_BOND_UDEF_STEREO_COUNT>
0
> <PUBCHEM_ISOTOPIC_ATOM_COUNT>
0
> <PUBCHEM_COMPONENT_COUNT>
1
> <PUBCHEM_CACTVS_TAUTO_COUNT>
-1
> <PUBCHEM_COORDINATE_TYPE>
1
5
255
> <PUBCHEM_BONDANNOTATIONS>
10  45  6
15  19  5
20  2  5
27  29  8
27  30  8
29  32  8
30  33  8
31  34  8
31  36  8
32  35  8
33  35  8
34  38  8
36  37  8
37  40  8
38  40  8
21  7  6
9  44  6
$$$$
