508227
  -OEChem-10302200282D
 78 81  0     1  0  0  0  0  0999 V2000
   10.5109   -1.1736    0.0000 O   0  0  0  0  0  0  0  0  0  0  0  0
    8.1402   -5.8372    0.0000 O   0  0  0  0  0  0  0  0  0  0  0  0
    7.9128   -0.6736    0.0000 O   0  0  0  0  0  0  0  0  0  0  0  0
   11.3769   -2.6736    0.0000 O   0  0  0  0  0  0  0  0  0  0  0  0
    4.4487    0.3264    0.0000 O   0  0  0  0  0  0  0  0  0  0  0  0
    5.3147    3.8264    0.0000 O   0  0  0  0  0  0  0  0  0  0  0  0
    2.0000    4.1628    0.0000 O   0  0  0  0  0  0  0  0  0  0  0  0
    9.8615   -5.3760    0.0000 N   0  0  0  0  0  0  0  0  0  0  0  0
    7.0468   -2.1736    0.0000 N   0  0  0  0  0  0  0  0  0  0  0  0
    6.1808    0.3264    0.0000 N   0  0  0  0  0  0  0  0  0  0  0  0
    4.4487    2.3264    0.0000 N   0  0  0  0  0  0  0  0  0  0  0  0
    2.6691    3.4197    0.0000 N   0  0  0  0  0  0  0  0  0  0  0  0
    8.7788   -4.1736    0.0000 C   0  0  2  0  0  0  0  0  0  0  0  0
   11.3769   -0.6736    0.0000 C   0  0  0  0  0  0  0  0  0  0  0  0
    7.9128   -3.6736    0.0000 C   0  0  0  0  0  0  0  0  0  0  0  0
    9.6924   -3.7668    0.0000 C   0  0  0  0  0  0  0  0  0  0  0  0
   11.3769    0.3264    0.0000 C   0  0  0  0  0  0  0  0  0  0  0  0
   12.2429   -1.1736    0.0000 C   0  0  0  0  0  0  0  0  0  0  0  0
   12.2429    0.8264    0.0000 C   0  0  0  0  0  0  0  0  0  0  0  0
   13.1090   -0.6736    0.0000 C   0  0  0  0  0  0  0  0  0  0  0  0
   13.1090    0.3264    0.0000 C   0  0  0  0  0  0  0  0  0  0  0  0
    7.9128   -2.6736    0.0000 C   0  0  1  0  0  0  0  0  0  0  0  0
   10.3615   -4.5100    0.0000 C   0  0  0  0  0  0  0  0  0  0  0  0
    8.8834   -5.1681    0.0000 C   0  0  0  0  0  0  0  0  0  0  0  0
    8.7788   -2.1736    0.0000 C   0  0  0  0  0  0  0  0  0  0  0  0
    6.1808   -0.6736    0.0000 C   0  0  2  0  0  0  0  0  0  0  0  0
    7.0468   -1.1736    0.0000 C   0  0  0  0  0  0  0  0  0  0  0  0
    9.6448   -2.6736    0.0000 C   0  0  0  0  0  0  0  0  0  0  0  0
   10.5109   -2.1736    0.0000 C   0  0  0  0  0  0  0  0  0  0  0  0
    5.3147   -1.1736    0.0000 C   0  0  0  0  0  0  0  0  0  0  0  0
    5.3147   -2.1736    0.0000 C   0  0  0  0  0  0  0  0  0  0  0  0
    5.3147    0.8264    0.0000 C   0  0  0  0  0  0  0  0  0  0  0  0
    7.0468    0.8264    0.0000 C   0  0  0  0  0  0  0  0  0  0  0  0
    5.3147    1.8264    0.0000 C   0  0  0  0  0  0  0  0  0  0  0  0
    7.0468    1.8264    0.0000 C   0  0  0  0  0  0  0  0  0  0  0  0
    6.1808    2.3264    0.0000 C   0  0  0  0  0  0  0  0  0  0  0  0
    4.4487    3.3264    0.0000 C   0  0  0  0  0  0  0  0  0  0  0  0
    3.5827    3.8264    0.0000 C   0  0  0  0  0  0  0  0  0  0  0  0
    3.4782    4.8210    0.0000 C   0  0  0  0  0  0  0  0  0  0  0  0
    2.5000    5.0289    0.0000 C   0  0  0  0  0  0  0  0  0  0  0  0
    2.0933    5.9424    0.0000 C   0  0  0  0  0  0  0  0  0  0  0  0
    8.8113   -3.5544    0.0000 H   0  0  0  0  0  0  0  0  0  0  0  0
   10.8400   -0.3636    0.0000 H   0  0  0  0  0  0  0  0  0  0  0  0
    7.3022   -3.5659    0.0000 H   0  0  0  0  0  0  0  0  0  0  0  0
    7.7008   -4.2562    0.0000 H   0  0  0  0  0  0  0  0  0  0  0  0
   10.1940   -3.4024    0.0000 H   0  0  0  0  0  0  0  0  0  0  0  0
    9.3824   -3.2299    0.0000 H   0  0  0  0  0  0  0  0  0  0  0  0
   11.1649    0.9090    0.0000 H   0  0  0  0  0  0  0  0  0  0  0  0
   10.7663    0.2188    0.0000 H   0  0  0  0  0  0  0  0  0  0  0  0
   11.8444   -1.6485    0.0000 H   0  0  0  0  0  0  0  0  0  0  0  0
   12.6415   -1.6485    0.0000 H   0  0  0  0  0  0  0  0  0  0  0  0
   12.6415    1.3014    0.0000 H   0  0  0  0  0  0  0  0  0  0  0  0
   11.8444    1.3014    0.0000 H   0  0  0  0  0  0  0  0  0  0  0  0
   13.3210   -1.2562    0.0000 H   0  0  0  0  0  0  0  0  0  0  0  0
   13.7195   -0.5659    0.0000 H   0  0  0  0  0  0  0  0  0  0  0  0
   13.7195    0.2188    0.0000 H   0  0  0  0  0  0  0  0  0  0  0  0
   13.3210    0.9090    0.0000 H   0  0  0  0  0  0  0  0  0  0  0  0
    7.9128   -2.0536    0.0000 H   0  0  0  0  0  0  0  0  0  0  0  0
   10.8631   -4.8744    0.0000 H   0  0  0  0  0  0  0  0  0  0  0  0
   10.7764   -4.0492    0.0000 H   0  0  0  0  0  0  0  0  0  0  0  0
   10.1137   -5.9424    0.0000 H   0  0  0  0  0  0  0  0  0  0  0  0
    6.5098   -2.4836    0.0000 H   0  0  0  0  0  0  0  0  0  0  0  0
    8.7788   -1.5536    0.0000 H   0  0  0  0  0  0  0  0  0  0  0  0
    6.1808   -1.2936    0.0000 H   0  0  0  0  0  0  0  0  0  0  0  0
    9.6448   -3.2936    0.0000 H   0  0  0  0  0  0  0  0  0  0  0  0
    5.1027   -0.5910    0.0000 H   0  0  0  0  0  0  0  0  0  0  0  0
    4.7042   -1.2812    0.0000 H   0  0  0  0  0  0  0  0  0  0  0  0
    4.6947   -2.1736    0.0000 H   0  0  0  0  0  0  0  0  0  0  0  0
    5.3147   -2.7936    0.0000 H   0  0  0  0  0  0  0  0  0  0  0  0
    5.9347   -2.1736    0.0000 H   0  0  0  0  0  0  0  0  0  0  0  0
    7.5837    0.5164    0.0000 H   0  0  0  0  0  0  0  0  0  0  0  0
    7.5837    2.1364    0.0000 H   0  0  0  0  0  0  0  0  0  0  0  0
    6.1808    2.9464    0.0000 H   0  0  0  0  0  0  0  0  0  0  0  0
    3.9118    2.0164    0.0000 H   0  0  0  0  0  0  0  0  0  0  0  0
    3.9389    5.2358    0.0000 H   0  0  0  0  0  0  0  0  0  0  0  0
    2.6597    6.1946    0.0000 H   0  0  0  0  0  0  0  0  0  0  0  0
    1.8411    6.5088    0.0000 H   0  0  0  0  0  0  0  0  0  0  0  0
    1.5269    5.6902    0.0000 H   0  0  0  0  0  0  0  0  0  0  0  0
  1 14  1  0  0  0  0
  1 29  1  0  0  0  0
  2 24  2  0  0  0  0
  3 27  2  0  0  0  0
  4 29  2  0  0  0  0
  5 32  2  0  0  0  0
  6 37  2  0  0  0  0
  7 12  1  0  0  0  0
  7 40  1  0  0  0  0
  8 23  1  0  0  0  0
  8 24  1  0  0  0  0
  8 61  1  0  0  0  0
 22  9  1  6  0  0  0
  9 27  1  0  0  0  0
  9 62  1  0  0  0  0
 10 26  1  0  0  0  0
 10 32  1  0  0  0  0
 10 33  1  0  0  0  0
 11 34  1  0  0  0  0
 11 37  1  0  0  0  0
 11 74  1  0  0  0  0
 12 38  2  0  0  0  0
 13 15  1  6  0  0  0
 13 16  1  0  0  0  0
 13 24  1  0  0  0  0
 13 42  1  0  0  0  0
 14 17  1  0  0  0  0
 14 18  1  0  0  0  0
 14 43  1  0  0  0  0
 15 22  1  0  0  0  0
 15 44  1  0  0  0  0
 15 45  1  0  0  0  0
 16 23  1  0  0  0  0
 16 46  1  0  0  0  0
 16 47  1  0  0  0  0
 17 19  1  0  0  0  0
 17 48  1  0  0  0  0
 17 49  1  0  0  0  0
 18 20  1  0  0  0  0
 18 50  1  0  0  0  0
 18 51  1  0  0  0  0
 19 21  1  0  0  0  0
 19 52  1  0  0  0  0
 19 53  1  0  0  0  0
 20 21  1  0  0  0  0
 20 54  1  0  0  0  0
 20 55  1  0  0  0  0
 21 56  1  0  0  0  0
 21 57  1  0  0  0  0
 22 25  1  0  0  0  0
 22 58  1  0  0  0  0
 23 59  1  0  0  0  0
 23 60  1  0  0  0  0
 25 28  2  3  0  0  0
 25 63  1  0  0  0  0
 26 27  1  0  0  0  0
 26 30  1  6  0  0  0
 26 64  1  0  0  0  0
 28 29  1  0  0  0  0
 28 65  1  0  0  0  0
 30 31  1  0  0  0  0
 30 66  1  0  0  0  0
 30 67  1  0  0  0  0
 31 68  1  0  0  0  0
 31 69  1  0  0  0  0
 31 70  1  0  0  0  0
 32 34  1  0  0  0  0
 33 35  2  0  0  0  0
 33 71  1  0  0  0  0
 34 36  2  0  0  0  0
 35 36  1  0  0  0  0
 35 72  1  0  0  0  0
 36 73  1  0  0  0  0
 37 38  1  0  0  0  0
 38 39  1  0  0  0  0
 39 40  2  0  0  0  0
 39 75  1  0  0  0  0
 40 41  1  0  0  0  0
 41 76  1  0  0  0  0
 41 77  1  0  0  0  0
 41 78  1  0  0  0  0
M  END
> <PUBCHEM_COMPOUND_CID>
508227
> <PUBCHEM_COMPOUND_CANONICALIZED>
1
> <PUBCHEM_CACTVS_COMPLEXITY>
1100
> <PUBCHEM_CACTVS_HBOND_ACCEPTOR>
8
> <PUBCHEM_CACTVS_HBOND_DONOR>
3
> <PUBCHEM_CACTVS_ROTATABLE_BOND>
12
> <PUBCHEM_CACTVS_SUBSKEYS>
AAADcfB7uAAAAAAAAAAAAAAAAAAAAWLAAAAwQAAAAAAAAAABgAAAHgAUAAAADTzhlgYyjJPQBACpAaX2WgCAAAAmIgAoGKG+bFoIZhoApbMWEYhmlhiI6cO/QAAOAAAAAAAAAAAAAAAAAAAAAAAAAAAAAA==
> <PUBCHEM_IUPAC_OPENEYE_NAME>
cyclohexyl (4S)-4-[[(2S)-2-[3-[(5-methylisoxazole-3-carbonyl)amino]-2-oxo-1-pyridyl]butanoyl]amino]-5-[(3S)-2-oxopyrrolidin-3-yl]pent-2-enoate
> <PUBCHEM_IUPAC_CAS_NAME>
(4S)-4-[[(2S)-2-[3-[[(5-methyl-3-isoxazolyl)-oxomethyl]amino]-2-oxo-1-pyridinyl]-1-oxobutyl]amino]-5-[(3S)-2-oxo-3-pyrrolidinyl]-2-pentenoic acid cyclohexyl ester
> <PUBCHEM_IUPAC_NAME_MARKUP>
cyclohexyl (4<I>S</I>)-4-[[(2<I>S</I>)-2-[3-[(5-methyl-1,2-oxazole-3-carbonyl)amino]-2-oxopyridin-1-yl]butanoyl]amino]-5-[(3<I>S</I>)-2-oxopyrrolidin-3-yl]pent-2-enoate
> <PUBCHEM_IUPAC_NAME>
cyclohexyl (4S)-4-[[(2S)-2-[3-[(5-methyl-1,2-oxazole-3-carbonyl)amino]-2-oxopyridin-1-yl]butanoyl]amino]-5-[(3S)-2-oxopyrrolidin-3-yl]pent-2-enoate
> <PUBCHEM_IUPAC_SYSTEMATIC_NAME>
cyclohexyl (4S)-4-[[(2S)-2-[3-[(5-methyl-1,2-oxazol-3-yl)carbonylamino]-2-oxidanylidene-pyridin-1-yl]butanoyl]amino]-5-[(3S)-2-oxidanylidenepyrrolidin-3-yl]pent-2-enoate
> <PUBCHEM_IUPAC_TRADITIONAL_NAME>
(4S)-4-[[(2S)-2-[2-keto-3-[(5-methylisoxazole-3-carbonyl)amino]-1-pyridyl]butanoyl]amino]-5-[(3S)-2-ketopyrrolidin-3-yl]pent-2-enoic acid cyclohexyl ester
> <PUBCHEM_IUPAC_INCHI>
InChI=1S/C29H37N5O7/c1-3-24(34-15-7-10-22(29(34)39)32-27(37)23-16-18(2)41-33-23)28(38)31-20(17-19-13-14-30-26(19)36)11-12-25(35)40-21-8-5-4-6-9-21/h7,10-12,15-16,19-21,24H,3-6,8-9,13-14,17H2,1-2H3,(H,30,36)(H,31,38)(H,32,37)/t19-,20+,24-/m0/s1
> <PUBCHEM_IUPAC_INCHIKEY>
MQLVPCIFKRUJFP-ROKPMTFOSA-N
> <PUBCHEM_XLOGP3_AA>
2.7
> <PUBCHEM_EXACT_MASS>
567.26929854
> <PUBCHEM_MOLECULAR_FORMULA>
C29H37N5O7
> <PUBCHEM_MOLECULAR_WEIGHT>
567.6
> <PUBCHEM_OPENEYE_CAN_SMILES>
CCC(C(=O)NC(CC1CCNC1=O)C=CC(=O)OC2CCCCC2)N3C=CC=C(C3=O)NC(=O)C4=NOC(=C4)C
> <PUBCHEM_OPENEYE_ISO_SMILES>
CC[C@@H](C(=O)N[C@@H](C[C@@H]1CCNC1=O)C=CC(=O)OC2CCCCC2)N3C=CC=C(C3=O)NC(=O)C4=NOC(=C4)C
> <PUBCHEM_CACTVS_TPSA>
160
> <PUBCHEM_MONOISOTOPIC_WEIGHT>
567.26929854
> <PUBCHEM_TOTAL_CHARGE>
0
> <PUBCHEM_HEAVY_ATOM_COUNT>
41
> <PUBCHEM_ATOM_DEF_STEREO_COUNT>
3
> <PUBCHEM_ATOM_UDEF_STEREO_COUNT>
0
> <PUBCHEM_BOND_DEF_STEREO_COUNT>
0
> <PUBCHEM_BOND_UDEF_STEREO_COUNT>
1
> <PUBCHEM_ISOTOPIC_ATOM_COUNT>
0
> <PUBCHEM_COMPONENT_COUNT>
1
> <PUBCHEM_CACTVS_TAUTO_COUNT>
-1
> <PUBCHEM_COORDINATE_TYPE>
1
5
255
> <PUBCHEM_BONDANNOTATIONS>
10  32  8
10  33  8
12  38  8
13  15  6
25  28  1
26  30  6
32  34  8
33  35  8
34  36  8
35  36  8
38  39  8
39  40  8
7  12  8
7  40  8
22  9  6
$$$$
