508209
  -OEChem-10302200282D
 86 90  0     1  0  0  0  0  0999 V2000
   13.3263   -1.4330    0.0000 O   0  0  0  0  0  0  0  0  0  0  0  0
    6.3981   -2.4330    0.0000 O   0  0  0  0  0  0  0  0  0  0  0  0
    9.8622   -2.4330    0.0000 O   0  0  0  0  0  0  0  0  0  0  0  0
   11.5942    1.5670    0.0000 O   0  0  0  0  0  0  0  0  0  0  0  0
    5.5321   -0.9330    0.0000 N   0  0  0  0  0  0  0  0  0  0  0  0
   10.7282   -0.9330    0.0000 N   0  0  0  0  0  0  0  0  0  0  0  0
   12.4603    3.0670    0.0000 N   0  0  0  0  0  0  0  0  0  0  0  0
   11.5942   -1.4330    0.0000 C   0  0  2  0  0  0  0  0  0  0  0  0
   12.4603   -0.9330    0.0000 C   0  0  2  0  0  0  0  0  0  0  0  0
   12.4603    0.0670    0.0000 C   0  0  0  0  0  0  0  0  0  0  0  0
   11.5942   -2.4330    0.0000 C   0  0  0  0  0  0  0  0  0  0  0  0
    5.5321    0.0670    0.0000 C   0  0  0  0  0  0  0  0  0  0  0  0
    4.6660    0.5670    0.0000 C   0  0  0  0  0  0  0  0  0  0  0  0
    4.6660   -1.4330    0.0000 C   0  0  0  0  0  0  0  0  0  0  0  0
   13.3263    0.5670    0.0000 C   0  0  0  0  0  0  0  0  0  0  0  0
    3.8000    0.0670    0.0000 C   0  0  0  0  0  0  0  0  0  0  0  0
    3.8000   -0.9330    0.0000 C   0  0  0  0  0  0  0  0  0  0  0  0
   12.4603   -2.9330    0.0000 C   0  0  0  0  0  0  0  0  0  0  0  0
   13.3263    1.5670    0.0000 C   0  0  0  0  0  0  0  0  0  0  0  0
   11.5942    3.5670    0.0000 C   0  0  0  0  0  0  0  0  0  0  0  0
    6.3981   -1.4330    0.0000 C   0  0  0  0  0  0  0  0  0  0  0  0
    9.8622   -1.4330    0.0000 C   0  0  0  0  0  0  0  0  0  0  0  0
    2.9061    0.6016    0.0000 C   0  0  0  0  0  0  0  0  0  0  0  0
    2.9061   -1.4677    0.0000 C   0  0  0  0  0  0  0  0  0  0  0  0
   14.1923    0.0670    0.0000 C   0  0  0  0  0  0  0  0  0  0  0  0
    7.2641   -0.9330    0.0000 C   0  0  0  0  0  0  0  0  0  0  0  0
    8.9962   -0.9330    0.0000 C   0  0  0  0  0  0  0  0  0  0  0  0
   12.4603    2.0670    0.0000 C   0  0  0  0  0  0  0  0  0  0  0  0
    8.1301   -1.4330    0.0000 C   0  0  0  0  0  0  0  0  0  0  0  0
   13.3263   -2.4330    0.0000 C   0  0  0  0  0  0  0  0  0  0  0  0
   12.4603   -3.9330    0.0000 C   0  0  0  0  0  0  0  0  0  0  0  0
   14.1923    2.0670    0.0000 C   0  0  0  0  0  0  0  0  0  0  0  0
    2.0000    0.0878    0.0000 C   0  0  0  0  0  0  0  0  0  0  0  0
    2.0000   -0.9538    0.0000 C   0  0  0  0  0  0  0  0  0  0  0  0
   10.7282    4.0670    0.0000 C   0  0  0  0  0  0  0  0  0  0  0  0
   12.0942    4.4330    0.0000 C   0  0  0  0  0  0  0  0  0  0  0  0
   11.0942    2.7010    0.0000 C   0  0  0  0  0  0  0  0  0  0  0  0
   15.0583    0.5670    0.0000 C   0  0  0  0  0  0  0  0  0  0  0  0
    7.2641    0.0670    0.0000 C   0  0  0  0  0  0  0  0  0  0  0  0
   15.0583    1.5670    0.0000 C   0  0  0  0  0  0  0  0  0  0  0  0
    8.9962    0.0670    0.0000 C   0  0  0  0  0  0  0  0  0  0  0  0
    8.1301    0.5670    0.0000 C   0  0  0  0  0  0  0  0  0  0  0  0
   14.1923   -2.9330    0.0000 C   0  0  0  0  0  0  0  0  0  0  0  0
   13.3263   -4.4330    0.0000 C   0  0  0  0  0  0  0  0  0  0  0  0
   14.1923   -3.9330    0.0000 C   0  0  0  0  0  0  0  0  0  0  0  0
   11.0573   -1.7430    0.0000 H   0  0  0  0  0  0  0  0  0  0  0  0
   12.9972   -0.6230    0.0000 H   0  0  0  0  0  0  0  0  0  0  0  0
   12.2482    0.6496    0.0000 H   0  0  0  0  0  0  0  0  0  0  0  0
   11.8497   -0.0407    0.0000 H   0  0  0  0  0  0  0  0  0  0  0  0
   10.9837   -2.3253    0.0000 H   0  0  0  0  0  0  0  0  0  0  0  0
   11.3822   -3.0156    0.0000 H   0  0  0  0  0  0  0  0  0  0  0  0
    6.1426   -0.0407    0.0000 H   0  0  0  0  0  0  0  0  0  0  0  0
    5.7441    0.6496    0.0000 H   0  0  0  0  0  0  0  0  0  0  0  0
    5.0646    1.0419    0.0000 H   0  0  0  0  0  0  0  0  0  0  0  0
    4.2675    1.0419    0.0000 H   0  0  0  0  0  0  0  0  0  0  0  0
    4.2675   -1.9080    0.0000 H   0  0  0  0  0  0  0  0  0  0  0  0
    5.0646   -1.9080    0.0000 H   0  0  0  0  0  0  0  0  0  0  0  0
   10.7282   -0.3130    0.0000 H   0  0  0  0  0  0  0  0  0  0  0  0
   13.8632   -1.1230    0.0000 H   0  0  0  0  0  0  0  0  0  0  0  0
    2.9132    1.2216    0.0000 H   0  0  0  0  0  0  0  0  0  0  0  0
    2.9132   -2.0876    0.0000 H   0  0  0  0  0  0  0  0  0  0  0  0
   14.1923   -0.5530    0.0000 H   0  0  0  0  0  0  0  0  0  0  0  0
   12.9972    3.3770    0.0000 H   0  0  0  0  0  0  0  0  0  0  0  0
    8.1301   -2.0530    0.0000 H   0  0  0  0  0  0  0  0  0  0  0  0
   13.3263   -1.8130    0.0000 H   0  0  0  0  0  0  0  0  0  0  0  0
   11.9233   -4.2430    0.0000 H   0  0  0  0  0  0  0  0  0  0  0  0
   14.1923    2.6870    0.0000 H   0  0  0  0  0  0  0  0  0  0  0  0
   11.0382    4.6039    0.0000 H   0  0  0  0  0  0  0  0  0  0  0  0
   10.1913    4.3770    0.0000 H   0  0  0  0  0  0  0  0  0  0  0  0
   10.4182    3.5300    0.0000 H   0  0  0  0  0  0  0  0  0  0  0  0
   12.6312    4.1230    0.0000 H   0  0  0  0  0  0  0  0  0  0  0  0
   12.4042    4.9700    0.0000 H   0  0  0  0  0  0  0  0  0  0  0  0
   11.5573    4.7430    0.0000 H   0  0  0  0  0  0  0  0  0  0  0  0
   10.5573    3.0110    0.0000 H   0  0  0  0  0  0  0  0  0  0  0  0
   10.7842    2.1640    0.0000 H   0  0  0  0  0  0  0  0  0  0  0  0
   11.6312    2.3910    0.0000 H   0  0  0  0  0  0  0  0  0  0  0  0
    1.4643    0.3999    0.0000 H   0  0  0  0  0  0  0  0  0  0  0  0
    1.4643   -1.2659    0.0000 H   0  0  0  0  0  0  0  0  0  0  0  0
   15.5953    0.2570    0.0000 H   0  0  0  0  0  0  0  0  0  0  0  0
    6.7272    0.3770    0.0000 H   0  0  0  0  0  0  0  0  0  0  0  0
   15.5953    1.8770    0.0000 H   0  0  0  0  0  0  0  0  0  0  0  0
    9.5331    0.3770    0.0000 H   0  0  0  0  0  0  0  0  0  0  0  0
    8.1301    1.1870    0.0000 H   0  0  0  0  0  0  0  0  0  0  0  0
   14.7292   -2.6230    0.0000 H   0  0  0  0  0  0  0  0  0  0  0  0
   13.3263   -5.0530    0.0000 H   0  0  0  0  0  0  0  0  0  0  0  0
   14.7292   -4.2430    0.0000 H   0  0  0  0  0  0  0  0  0  0  0  0
  9  1  1  6  0  0  0
  1 59  1  0  0  0  0
  2 21  2  0  0  0  0
  3 22  2  0  0  0  0
  4 28  2  0  0  0  0
  5 12  1  0  0  0  0
  5 14  1  0  0  0  0
  5 21  1  0  0  0  0
  8  6  1  6  0  0  0
  6 22  1  0  0  0  0
  6 58  1  0  0  0  0
  7 20  1  0  0  0  0
  7 28  1  0  0  0  0
  7 63  1  0  0  0  0
  8  9  1  0  0  0  0
  8 11  1  0  0  0  0
  8 46  1  0  0  0  0
  9 10  1  0  0  0  0
  9 47  1  0  0  0  0
 10 15  1  0  0  0  0
 10 48  1  0  0  0  0
 10 49  1  0  0  0  0
 11 18  1  0  0  0  0
 11 50  1  0  0  0  0
 11 51  1  0  0  0  0
 12 13  1  0  0  0  0
 12 52  1  0  0  0  0
 12 53  1  0  0  0  0
 13 16  1  0  0  0  0
 13 54  1  0  0  0  0
 13 55  1  0  0  0  0
 14 17  1  0  0  0  0
 14 56  1  0  0  0  0
 14 57  1  0  0  0  0
 15 19  1  0  0  0  0
 15 25  2  0  0  0  0
 16 17  1  0  0  0  0
 16 23  2  0  0  0  0
 17 24  2  0  0  0  0
 18 30  2  0  0  0  0
 18 31  1  0  0  0  0
 19 28  1  0  0  0  0
 19 32  2  0  0  0  0
 20 35  1  0  0  0  0
 20 36  1  0  0  0  0
 20 37  1  0  0  0  0
 21 26  1  0  0  0  0
 22 27  1  0  0  0  0
 23 33  1  0  0  0  0
 23 60  1  0  0  0  0
 24 34  1  0  0  0  0
 24 61  1  0  0  0  0
 25 38  1  0  0  0  0
 25 62  1  0  0  0  0
 26 29  1  0  0  0  0
 26 39  2  0  0  0  0
 27 29  2  0  0  0  0
 27 41  1  0  0  0  0
 29 64  1  0  0  0  0
 30 43  1  0  0  0  0
 30 65  1  0  0  0  0
 31 44  2  0  0  0  0
 31 66  1  0  0  0  0
 32 40  1  0  0  0  0
 32 67  1  0  0  0  0
 33 34  2  0  0  0  0
 33 77  1  0  0  0  0
 34 78  1  0  0  0  0
 35 68  1  0  0  0  0
 35 69  1  0  0  0  0
 35 70  1  0  0  0  0
 36 71  1  0  0  0  0
 36 72  1  0  0  0  0
 36 73  1  0  0  0  0
 37 74  1  0  0  0  0
 37 75  1  0  0  0  0
 37 76  1  0  0  0  0
 38 40  2  0  0  0  0
 38 79  1  0  0  0  0
 39 42  1  0  0  0  0
 39 80  1  0  0  0  0
 40 81  1  0  0  0  0
 41 42  2  0  0  0  0
 41 82  1  0  0  0  0
 42 83  1  0  0  0  0
 43 45  2  0  0  0  0
 43 84  1  0  0  0  0
 44 45  1  0  0  0  0
 44 85  1  0  0  0  0
 45 86  1  0  0  0  0
M  END
> <PUBCHEM_COMPOUND_CID>
508209
> <PUBCHEM_COMPOUND_CANONICALIZED>
1
> <PUBCHEM_CACTVS_COMPLEXITY>
988
> <PUBCHEM_CACTVS_HBOND_ACCEPTOR>
4
> <PUBCHEM_CACTVS_HBOND_DONOR>
3
> <PUBCHEM_CACTVS_ROTATABLE_BOND>
10
> <PUBCHEM_CACTVS_SUBSKEYS>
AAADcfB/OAAAAAAAAAAAAAAAAAAAAAAAAAA8YMGCAAAAAACxVAAAHgAQCAAADLzhmAYyAIPAAgCIAiFSEACCAAAkAAAIiIEIBMgKMDKAlRGEYQhk1gGYiYeY3+LOgAACAAAQAAAAAAQAACAAAAAAAAAAAA==
> <PUBCHEM_IUPAC_OPENEYE_NAME>
N-tert-butyl-2-[(2S,3S)-3-[[3-(3,4-dihydro-1H-isoquinoline-2-carbonyl)benzoyl]amino]-2-hydroxy-4-phenyl-butyl]benzamide
> <PUBCHEM_IUPAC_CAS_NAME>
N-tert-butyl-2-[(2S,3S)-3-[[[3-[3,4-dihydro-1H-isoquinolin-2-yl(oxo)methyl]phenyl]-oxomethyl]amino]-2-hydroxy-4-phenylbutyl]benzamide
> <PUBCHEM_IUPAC_NAME_MARKUP>
<I>N</I>-<I>tert</I>-butyl-2-[(2<I>S</I>,3<I>S</I>)-3-[[3-(3,4-dihydro-1<I>H</I>-isoquinoline-2-carbonyl)benzoyl]amino]-2-hydroxy-4-phenylbutyl]benzamide
> <PUBCHEM_IUPAC_NAME>
N-tert-butyl-2-[(2S,3S)-3-[[3-(3,4-dihydro-1H-isoquinoline-2-carbonyl)benzoyl]amino]-2-hydroxy-4-phenylbutyl]benzamide
> <PUBCHEM_IUPAC_SYSTEMATIC_NAME>
N-tert-butyl-2-[(2S,3S)-3-[[3-(3,4-dihydro-1H-isoquinolin-2-ylcarbonyl)phenyl]carbonylamino]-2-oxidanyl-4-phenyl-butyl]benzamide
> <PUBCHEM_IUPAC_TRADITIONAL_NAME>
N-tert-butyl-2-[(2S,3S)-3-[[3-(3,4-dihydro-1H-isoquinoline-2-carbonyl)benzoyl]amino]-2-hydroxy-4-phenyl-butyl]benzamide
> <PUBCHEM_IUPAC_INCHI>
InChI=1S/C38H41N3O4/c1-38(2,3)40-36(44)32-19-10-9-15-28(32)24-34(42)33(22-26-12-5-4-6-13-26)39-35(43)29-17-11-18-30(23-29)37(45)41-21-20-27-14-7-8-16-31(27)25-41/h4-19,23,33-34,42H,20-22,24-25H2,1-3H3,(H,39,43)(H,40,44)/t33-,34-/m0/s1
> <PUBCHEM_IUPAC_INCHIKEY>
YSDXEQFZGMRTCA-HEVIKAOCSA-N
> <PUBCHEM_XLOGP3_AA>
5.8
> <PUBCHEM_EXACT_MASS>
603.30970680
> <PUBCHEM_MOLECULAR_FORMULA>
C38H41N3O4
> <PUBCHEM_MOLECULAR_WEIGHT>
603.7
> <PUBCHEM_OPENEYE_CAN_SMILES>
CC(C)(C)NC(=O)C1=CC=CC=C1CC(C(CC2=CC=CC=C2)NC(=O)C3=CC(=CC=C3)C(=O)N4CCC5=CC=CC=C5C4)O
> <PUBCHEM_OPENEYE_ISO_SMILES>
CC(C)(C)NC(=O)C1=CC=CC=C1C[C@@H]([C@H](CC2=CC=CC=C2)NC(=O)C3=CC(=CC=C3)C(=O)N4CCC5=CC=CC=C5C4)O
> <PUBCHEM_CACTVS_TPSA>
98.7
> <PUBCHEM_MONOISOTOPIC_WEIGHT>
603.30970680
> <PUBCHEM_TOTAL_CHARGE>
0
> <PUBCHEM_HEAVY_ATOM_COUNT>
45
> <PUBCHEM_ATOM_DEF_STEREO_COUNT>
2
> <PUBCHEM_ATOM_UDEF_STEREO_COUNT>
0
> <PUBCHEM_BOND_DEF_STEREO_COUNT>
0
> <PUBCHEM_BOND_UDEF_STEREO_COUNT>
0
> <PUBCHEM_ISOTOPIC_ATOM_COUNT>
0
> <PUBCHEM_COMPONENT_COUNT>
1
> <PUBCHEM_CACTVS_TAUTO_COUNT>
-1
> <PUBCHEM_COORDINATE_TYPE>
1
5
255
> <PUBCHEM_BONDANNOTATIONS>
9  1  6
15  19  8
15  25  8
16  17  8
16  23  8
17  24  8
18  30  8
18  31  8
19  32  8
23  33  8
24  34  8
25  38  8
26  29  8
26  39  8
27  29  8
27  41  8
30  43  8
31  44  8
32  40  8
33  34  8
38  40  8
39  42  8
41  42  8
43  45  8
44  45  8
8  6  6
$$$$
