508292
  -OEChem-10302200282D
 90 92  0     1  0  0  0  0  0999 V2000
    9.7942    3.5000    0.0000 S   0  0  0  0  0  0  0  0  0  0  0  0
    7.1962    5.0000    0.0000 O   0  0  0  0  0  0  0  0  0  0  0  0
   10.2942    4.3660    0.0000 O   0  0  0  0  0  0  0  0  0  0  0  0
    9.2942    2.6340    0.0000 O   0  0  0  0  0  0  0  0  0  0  0  0
    4.5981    2.5000    0.0000 O   0  0  0  0  0  0  0  0  0  0  0  0
    3.7320   -2.0000    0.0000 O   0  0  0  0  0  0  0  0  0  0  0  0
    2.8660   -0.5000    0.0000 O   0  0  0  0  0  0  0  0  0  0  0  0
    2.8660   -6.5000    0.0000 O   0  0  0  0  0  0  0  0  0  0  0  0
    8.9282    4.0000    0.0000 N   0  0  3  0  0  0  0  0  0  0  0  0
    6.3301    2.5000    0.0000 N   0  0  0  0  0  0  0  0  0  0  0  0
    4.5981   -0.5000    0.0000 N   0  0  0  0  0  0  0  0  0  0  0  0
    7.1962    4.0000    0.0000 C   0  0  1  0  0  0  0  0  0  0  0  0
    6.3301    3.5000    0.0000 C   0  0  2  0  0  0  0  0  0  0  0  0
    8.0622    3.5000    0.0000 C   0  0  0  0  0  0  0  0  0  0  0  0
    8.9282    5.0000    0.0000 C   0  0  0  0  0  0  0  0  0  0  0  0
    5.4641    4.0000    0.0000 C   0  0  0  0  0  0  0  0  0  0  0  0
    9.7942    5.5000    0.0000 C   0  0  0  0  0  0  0  0  0  0  0  0
    9.7942    6.5000    0.0000 C   0  0  0  0  0  0  0  0  0  0  0  0
    5.4641    5.0000    0.0000 C   0  0  0  0  0  0  0  0  0  0  0  0
    5.4641    2.0000    0.0000 C   0  0  0  0  0  0  0  0  0  0  0  0
   10.6603    3.0000    0.0000 C   0  0  0  0  0  0  0  0  0  0  0  0
    5.4641    1.0000    0.0000 C   0  0  1  0  0  0  0  0  0  0  0  0
   10.6603    7.0000    0.0000 C   0  0  0  0  0  0  0  0  0  0  0  0
    8.9282    7.0000    0.0000 C   0  0  0  0  0  0  0  0  0  0  0  0
    4.5981    0.5000    0.0000 C   0  0  0  0  0  0  0  0  0  0  0  0
    4.5981    5.5000    0.0000 C   0  0  0  0  0  0  0  0  0  0  0  0
    6.3301    5.5000    0.0000 C   0  0  0  0  0  0  0  0  0  0  0  0
    6.3301    0.5000    0.0000 C   0  0  0  0  0  0  0  0  0  0  0  0
   10.6603    2.0000    0.0000 C   0  0  0  0  0  0  0  0  0  0  0  0
   11.5263    3.5000    0.0000 C   0  0  0  0  0  0  0  0  0  0  0  0
    4.5981    6.5000    0.0000 C   0  0  0  0  0  0  0  0  0  0  0  0
    6.3301    6.5000    0.0000 C   0  0  0  0  0  0  0  0  0  0  0  0
   11.5263    1.5000    0.0000 C   0  0  0  0  0  0  0  0  0  0  0  0
   12.3923    3.0000    0.0000 C   0  0  0  0  0  0  0  0  0  0  0  0
    5.4641    7.0000    0.0000 C   0  0  0  0  0  0  0  0  0  0  0  0
   12.3923    2.0000    0.0000 C   0  0  0  0  0  0  0  0  0  0  0  0
    3.7320   -1.0000    0.0000 C   0  0  0  0  0  0  0  0  0  0  0  0
    2.8660   -2.5000    0.0000 C   0  0  0  0  0  0  0  0  0  0  0  0
    2.8660   -3.5000    0.0000 C   0  0  0  0  0  0  0  0  0  0  0  0
    3.7320   -4.0000    0.0000 C   0  0  0  0  0  0  0  0  0  0  0  0
    2.0000   -4.0000    0.0000 C   0  0  0  0  0  0  0  0  0  0  0  0
    3.7320   -5.0000    0.0000 C   0  0  0  0  0  0  0  0  0  0  0  0
    2.0000   -5.0000    0.0000 C   0  0  0  0  0  0  0  0  0  0  0  0
    2.8660   -5.5000    0.0000 C   0  0  0  0  0  0  0  0  0  0  0  0
    2.0000   -7.0000    0.0000 C   0  0  0  0  0  0  0  0  0  0  0  0
    6.6592    4.3100    0.0000 H   0  0  0  0  0  0  0  0  0  0  0  0
    6.8671    3.1900    0.0000 H   0  0  0  0  0  0  0  0  0  0  0  0
    7.6636    3.0250    0.0000 H   0  0  0  0  0  0  0  0  0  0  0  0
    8.4607    3.0250    0.0000 H   0  0  0  0  0  0  0  0  0  0  0  0
    8.7162    5.5826    0.0000 H   0  0  0  0  0  0  0  0  0  0  0  0
    8.3176    4.8923    0.0000 H   0  0  0  0  0  0  0  0  0  0  0  0
    4.8535    4.1077    0.0000 H   0  0  0  0  0  0  0  0  0  0  0  0
    5.2520    3.4174    0.0000 H   0  0  0  0  0  0  0  0  0  0  0  0
   10.0063    4.9174    0.0000 H   0  0  0  0  0  0  0  0  0  0  0  0
   10.4048    5.6077    0.0000 H   0  0  0  0  0  0  0  0  0  0  0  0
    9.2573    6.1900    0.0000 H   0  0  0  0  0  0  0  0  0  0  0  0
    6.8671    2.1900    0.0000 H   0  0  0  0  0  0  0  0  0  0  0  0
    7.7331    5.3100    0.0000 H   0  0  0  0  0  0  0  0  0  0  0  0
    5.4641    0.3800    0.0000 H   0  0  0  0  0  0  0  0  0  0  0  0
   10.9703    6.4631    0.0000 H   0  0  0  0  0  0  0  0  0  0  0  0
   11.1972    7.3100    0.0000 H   0  0  0  0  0  0  0  0  0  0  0  0
   10.3503    7.5369    0.0000 H   0  0  0  0  0  0  0  0  0  0  0  0
    9.2382    7.5369    0.0000 H   0  0  0  0  0  0  0  0  0  0  0  0
    8.3913    7.3100    0.0000 H   0  0  0  0  0  0  0  0  0  0  0  0
    8.6182    6.4631    0.0000 H   0  0  0  0  0  0  0  0  0  0  0  0
    4.3860    1.0826    0.0000 H   0  0  0  0  0  0  0  0  0  0  0  0
    3.9875    0.3923    0.0000 H   0  0  0  0  0  0  0  0  0  0  0  0
    4.0611    5.1900    0.0000 H   0  0  0  0  0  0  0  0  0  0  0  0
    6.8671    5.1900    0.0000 H   0  0  0  0  0  0  0  0  0  0  0  0
    6.0201   -0.0369    0.0000 H   0  0  0  0  0  0  0  0  0  0  0  0
    6.8671    0.1900    0.0000 H   0  0  0  0  0  0  0  0  0  0  0  0
    6.6401    1.0369    0.0000 H   0  0  0  0  0  0  0  0  0  0  0  0
   10.1233    1.6900    0.0000 H   0  0  0  0  0  0  0  0  0  0  0  0
   11.5263    4.1200    0.0000 H   0  0  0  0  0  0  0  0  0  0  0  0
    4.0611    6.8100    0.0000 H   0  0  0  0  0  0  0  0  0  0  0  0
    6.8671    6.8100    0.0000 H   0  0  0  0  0  0  0  0  0  0  0  0
   11.5263    0.8800    0.0000 H   0  0  0  0  0  0  0  0  0  0  0  0
   12.9292    3.3100    0.0000 H   0  0  0  0  0  0  0  0  0  0  0  0
    5.1350   -0.8100    0.0000 H   0  0  0  0  0  0  0  0  0  0  0  0
    5.4641    7.6200    0.0000 H   0  0  0  0  0  0  0  0  0  0  0  0
   12.9292    1.6900    0.0000 H   0  0  0  0  0  0  0  0  0  0  0  0
    2.6540   -1.9174    0.0000 H   0  0  0  0  0  0  0  0  0  0  0  0
    2.2554   -2.6077    0.0000 H   0  0  0  0  0  0  0  0  0  0  0  0
    4.2690   -3.6900    0.0000 H   0  0  0  0  0  0  0  0  0  0  0  0
    1.4631   -3.6900    0.0000 H   0  0  0  0  0  0  0  0  0  0  0  0
    4.2690   -5.3100    0.0000 H   0  0  0  0  0  0  0  0  0  0  0  0
    1.4631   -5.3100    0.0000 H   0  0  0  0  0  0  0  0  0  0  0  0
    1.6900   -6.4631    0.0000 H   0  0  0  0  0  0  0  0  0  0  0  0
    1.4631   -7.3100    0.0000 H   0  0  0  0  0  0  0  0  0  0  0  0
    2.3100   -7.5369    0.0000 H   0  0  0  0  0  0  0  0  0  0  0  0
  1  3  2  0  0  0  0
  1  4  2  0  0  0  0
  1  9  1  0  0  0  0
  1 21  1  0  0  0  0
 12  2  1  6  0  0  0
  2 58  1  0  0  0  0
  5 20  2  0  0  0  0
  6 37  1  0  0  0  0
  6 38  1  0  0  0  0
  7 37  2  0  0  0  0
  8 44  1  0  0  0  0
  8 45  1  0  0  0  0
  9 14  1  0  0  0  0
  9 15  1  0  0  0  0
 13 10  1  1  0  0  0
 10 20  1  0  0  0  0
 10 57  1  0  0  0  0
 11 25  1  0  0  0  0
 11 37  1  0  0  0  0
 11 79  1  0  0  0  0
 12 13  1  0  0  0  0
 12 14  1  0  0  0  0
 12 46  1  0  0  0  0
 13 16  1  0  0  0  0
 13 47  1  0  0  0  0
 14 48  1  0  0  0  0
 14 49  1  0  0  0  0
 15 17  1  0  0  0  0
 15 50  1  0  0  0  0
 15 51  1  0  0  0  0
 16 19  1  0  0  0  0
 16 52  1  0  0  0  0
 16 53  1  0  0  0  0
 17 18  1  0  0  0  0
 17 54  1  0  0  0  0
 17 55  1  0  0  0  0
 18 23  1  0  0  0  0
 18 24  1  0  0  0  0
 18 56  1  0  0  0  0
 19 26  2  0  0  0  0
 19 27  1  0  0  0  0
 20 22  1  0  0  0  0
 21 29  2  0  0  0  0
 21 30  1  0  0  0  0
 22 25  1  0  0  0  0
 22 28  1  6  0  0  0
 22 59  1  0  0  0  0
 23 60  1  0  0  0  0
 23 61  1  0  0  0  0
 23 62  1  0  0  0  0
 24 63  1  0  0  0  0
 24 64  1  0  0  0  0
 24 65  1  0  0  0  0
 25 66  1  0  0  0  0
 25 67  1  0  0  0  0
 26 31  1  0  0  0  0
 26 68  1  0  0  0  0
 27 32  2  0  0  0  0
 27 69  1  0  0  0  0
 28 70  1  0  0  0  0
 28 71  1  0  0  0  0
 28 72  1  0  0  0  0
 29 33  1  0  0  0  0
 29 73  1  0  0  0  0
 30 34  2  0  0  0  0
 30 74  1  0  0  0  0
 31 35  2  0  0  0  0
 31 75  1  0  0  0  0
 32 35  1  0  0  0  0
 32 76  1  0  0  0  0
 33 36  2  0  0  0  0
 33 77  1  0  0  0  0
 34 36  1  0  0  0  0
 34 78  1  0  0  0  0
 35 80  1  0  0  0  0
 36 81  1  0  0  0  0
 38 39  1  0  0  0  0
 38 82  1  0  0  0  0
 38 83  1  0  0  0  0
 39 40  2  0  0  0  0
 39 41  1  0  0  0  0
 40 42  1  0  0  0  0
 40 84  1  0  0  0  0
 41 43  2  0  0  0  0
 41 85  1  0  0  0  0
 42 44  2  0  0  0  0
 42 86  1  0  0  0  0
 43 44  1  0  0  0  0
 43 87  1  0  0  0  0
 45 88  1  0  0  0  0
 45 89  1  0  0  0  0
 45 90  1  0  0  0  0
M  END
> <PUBCHEM_COMPOUND_CID>
508292
> <PUBCHEM_COMPOUND_CANONICALIZED>
1
> <PUBCHEM_CACTVS_COMPLEXITY>
969
> <PUBCHEM_CACTVS_HBOND_ACCEPTOR>
8
> <PUBCHEM_CACTVS_HBOND_DONOR>
3
> <PUBCHEM_CACTVS_ROTATABLE_BOND>
18
> <PUBCHEM_CACTVS_SUBSKEYS>
AAADcfB/OABAAAAAAAAAAAAAAAAAAAAAAAAwYMAAAAAAAAABUAAAHgQQSAAADTzh2AYyD4LABgKIAiFSGHBCCBAgIAAIiJkOCIkONiqE8RuMcCAk1hGYqAeQ4KwOIAAAAAAAAABAAAAAAAAAAAAAAAAAAA==
> <PUBCHEM_IUPAC_OPENEYE_NAME>
(4-methoxyphenyl)methyl N-[(2R)-3-[[(1S,2R)-3-[benzenesulfonyl(isopentyl)amino]-1-benzyl-2-hydroxy-propyl]amino]-2-methyl-3-oxo-propyl]carbamate
> <PUBCHEM_IUPAC_CAS_NAME>
N-[(2R)-3-[[(2S,3R)-4-[benzenesulfonyl(3-methylbutyl)amino]-3-hydroxy-1-phenylbutan-2-yl]amino]-2-methyl-3-oxopropyl]carbamic acid (4-methoxyphenyl)methyl ester
> <PUBCHEM_IUPAC_NAME_MARKUP>
(4-methoxyphenyl)methyl <I>N</I>-[(2<I>R</I>)-3-[[(2<I>S</I>,3<I>R</I>)-4-[benzenesulfonyl(3-methylbutyl)amino]-3-hydroxy-1-phenylbutan-2-yl]amino]-2-methyl-3-oxopropyl]carbamate
> <PUBCHEM_IUPAC_NAME>
(4-methoxyphenyl)methyl N-[(2R)-3-[[(2S,3R)-4-[benzenesulfonyl(3-methylbutyl)amino]-3-hydroxy-1-phenylbutan-2-yl]amino]-2-methyl-3-oxopropyl]carbamate
> <PUBCHEM_IUPAC_SYSTEMATIC_NAME>
(4-methoxyphenyl)methyl N-[(2R)-2-methyl-3-[[(2S,3R)-4-[3-methylbutyl(phenylsulfonyl)amino]-3-oxidanyl-1-phenyl-butan-2-yl]amino]-3-oxidanylidene-propyl]carbamate
> <PUBCHEM_IUPAC_TRADITIONAL_NAME>
N-[(2R)-3-[[(1S,2R)-1-benzyl-3-[besyl(isoamyl)amino]-2-hydroxy-propyl]amino]-3-keto-2-methyl-propyl]carbamic acid p-anisyl ester
> <PUBCHEM_IUPAC_INCHI>
InChI=1S/C34H45N3O7S/c1-25(2)19-20-37(45(41,42)30-13-9-6-10-14-30)23-32(38)31(21-27-11-7-5-8-12-27)36-33(39)26(3)22-35-34(40)44-24-28-15-17-29(43-4)18-16-28/h5-18,25-26,31-32,38H,19-24H2,1-4H3,(H,35,40)(H,36,39)/t26-,31+,32-/m1/s1
> <PUBCHEM_IUPAC_INCHIKEY>
LVGBEKGPWYILJF-WHODAWOQSA-N
> <PUBCHEM_XLOGP3_AA>
5.2
> <PUBCHEM_EXACT_MASS>
639.29782196
> <PUBCHEM_MOLECULAR_FORMULA>
C34H45N3O7S
> <PUBCHEM_MOLECULAR_WEIGHT>
639.8
> <PUBCHEM_OPENEYE_CAN_SMILES>
CC(C)CCN(CC(C(CC1=CC=CC=C1)NC(=O)C(C)CNC(=O)OCC2=CC=C(C=C2)OC)O)S(=O)(=O)C3=CC=CC=C3
> <PUBCHEM_OPENEYE_ISO_SMILES>
C[C@H](CNC(=O)OCC1=CC=C(C=C1)OC)C(=O)N[C@@H](CC2=CC=CC=C2)[C@@H](CN(CCC(C)C)S(=O)(=O)C3=CC=CC=C3)O
> <PUBCHEM_CACTVS_TPSA>
143
> <PUBCHEM_MONOISOTOPIC_WEIGHT>
639.29782196
> <PUBCHEM_TOTAL_CHARGE>
0
> <PUBCHEM_HEAVY_ATOM_COUNT>
45
> <PUBCHEM_ATOM_DEF_STEREO_COUNT>
3
> <PUBCHEM_ATOM_UDEF_STEREO_COUNT>
0
> <PUBCHEM_BOND_DEF_STEREO_COUNT>
0
> <PUBCHEM_BOND_UDEF_STEREO_COUNT>
0
> <PUBCHEM_ISOTOPIC_ATOM_COUNT>
0
> <PUBCHEM_COMPONENT_COUNT>
1
> <PUBCHEM_CACTVS_TAUTO_COUNT>
-1
> <PUBCHEM_COORDINATE_TYPE>
1
5
255
> <PUBCHEM_BONDANNOTATIONS>
13  10  5
19  26  8
19  27  8
12  2  6
21  29  8
21  30  8
22  28  6
26  31  8
27  32  8
29  33  8
30  34  8
31  35  8
32  35  8
33  36  8
34  36  8
39  40  8
39  41  8
40  42  8
41  43  8
42  44  8
43  44  8
$$$$
