508294
  -OEChem-10302200282D
 85 86  0     1  0  0  0  0  0999 V2000
    8.9282   -2.0000    0.0000 S   0  0  0  0  0  0  0  0  0  0  0  0
    6.3301   -3.5000    0.0000 O   0  0  0  0  0  0  0  0  0  0  0  0
    7.1962   -1.0000    0.0000 O   0  0  0  0  0  0  0  0  0  0  0  0
    9.4282   -2.8660    0.0000 O   0  0  0  0  0  0  0  0  0  0  0  0
    8.4282   -1.1340    0.0000 O   0  0  0  0  0  0  0  0  0  0  0  0
    4.5981    2.5000    0.0000 O   0  0  0  0  0  0  0  0  0  0  0  0
    6.3301    2.5000    0.0000 O   0  0  0  0  0  0  0  0  0  0  0  0
    8.0622   -2.5000    0.0000 N   0  0  3  0  0  0  0  0  0  0  0  0
    5.4641   -1.0000    0.0000 N   0  0  0  0  0  0  0  0  0  0  0  0
    5.4641    1.0000    0.0000 N   0  0  0  0  0  0  0  0  0  0  0  0
    5.4641   -2.0000    0.0000 C   0  0  2  0  0  0  0  0  0  0  0  0
    7.1962    1.0000    0.0000 C   0  0  0  0  0  0  0  0  0  0  0  0
    6.3301   -2.5000    0.0000 C   0  0  1  0  0  0  0  0  0  0  0  0
    6.3301    0.5000    0.0000 C   0  0  1  0  0  0  0  0  0  0  0  0
    7.1962   -2.0000    0.0000 C   0  0  0  0  0  0  0  0  0  0  0  0
    4.5981   -2.5000    0.0000 C   0  0  0  0  0  0  0  0  0  0  0  0
    6.3301   -0.5000    0.0000 C   0  0  0  0  0  0  0  0  0  0  0  0
    8.0622   -3.5000    0.0000 C   0  0  0  0  0  0  0  0  0  0  0  0
    8.0622    1.5000    0.0000 C   0  0  0  0  0  0  0  0  0  0  0  0
    6.6962    1.8660    0.0000 C   0  0  0  0  0  0  0  0  0  0  0  0
    7.6962    0.1340    0.0000 C   0  0  0  0  0  0  0  0  0  0  0  0
    8.9282   -4.0000    0.0000 C   0  0  0  0  0  0  0  0  0  0  0  0
    8.9282   -5.0000    0.0000 C   0  0  0  0  0  0  0  0  0  0  0  0
    4.5981   -3.5000    0.0000 C   0  0  0  0  0  0  0  0  0  0  0  0
    9.7942   -1.5000    0.0000 C   0  0  0  0  0  0  0  0  0  0  0  0
    9.7942   -5.5000    0.0000 C   0  0  0  0  0  0  0  0  0  0  0  0
    8.0622   -5.5000    0.0000 C   0  0  0  0  0  0  0  0  0  0  0  0
    5.4641   -4.0000    0.0000 C   0  0  0  0  0  0  0  0  0  0  0  0
    3.7320   -4.0000    0.0000 C   0  0  0  0  0  0  0  0  0  0  0  0
    5.4641    2.0000    0.0000 C   0  0  0  0  0  0  0  0  0  0  0  0
    5.4641   -5.0000    0.0000 C   0  0  0  0  0  0  0  0  0  0  0  0
    3.7320   -5.0000    0.0000 C   0  0  0  0  0  0  0  0  0  0  0  0
    4.5981   -5.5000    0.0000 C   0  0  0  0  0  0  0  0  0  0  0  0
    4.5981    3.5000    0.0000 C   0  0  0  0  0  0  0  0  0  0  0  0
    3.7320    4.0000    0.0000 C   0  0  0  0  0  0  0  0  0  0  0  0
    2.8660    3.5000    0.0000 C   0  0  0  0  0  0  0  0  0  0  0  0
    3.7320    5.0000    0.0000 C   0  0  0  0  0  0  0  0  0  0  0  0
    2.0000    4.0000    0.0000 C   0  0  0  0  0  0  0  0  0  0  0  0
    2.8660    5.5000    0.0000 C   0  0  0  0  0  0  0  0  0  0  0  0
    2.0000    5.0000    0.0000 C   0  0  0  0  0  0  0  0  0  0  0  0
    6.0010   -1.6900    0.0000 H   0  0  0  0  0  0  0  0  0  0  0  0
    6.8671   -2.8100    0.0000 H   0  0  0  0  0  0  0  0  0  0  0  0
    5.7932    0.1900    0.0000 H   0  0  0  0  0  0  0  0  0  0  0  0
    7.5947   -1.5250    0.0000 H   0  0  0  0  0  0  0  0  0  0  0  0
    6.7976   -1.5250    0.0000 H   0  0  0  0  0  0  0  0  0  0  0  0
    4.3860   -1.9174    0.0000 H   0  0  0  0  0  0  0  0  0  0  0  0
    3.9875   -2.6077    0.0000 H   0  0  0  0  0  0  0  0  0  0  0  0
    4.9272   -0.6900    0.0000 H   0  0  0  0  0  0  0  0  0  0  0  0
    7.4516   -3.3923    0.0000 H   0  0  0  0  0  0  0  0  0  0  0  0
    7.8501   -4.0826    0.0000 H   0  0  0  0  0  0  0  0  0  0  0  0
    8.3722    0.9631    0.0000 H   0  0  0  0  0  0  0  0  0  0  0  0
    8.5991    1.8100    0.0000 H   0  0  0  0  0  0  0  0  0  0  0  0
    7.7522    2.0369    0.0000 H   0  0  0  0  0  0  0  0  0  0  0  0
    7.2331    2.1760    0.0000 H   0  0  0  0  0  0  0  0  0  0  0  0
    6.3862    2.4030    0.0000 H   0  0  0  0  0  0  0  0  0  0  0  0
    6.1592    1.5560    0.0000 H   0  0  0  0  0  0  0  0  0  0  0  0
    7.1592   -0.1760    0.0000 H   0  0  0  0  0  0  0  0  0  0  0  0
    8.0062   -0.4030    0.0000 H   0  0  0  0  0  0  0  0  0  0  0  0
    8.2331    0.4440    0.0000 H   0  0  0  0  0  0  0  0  0  0  0  0
    9.5388   -4.1077    0.0000 H   0  0  0  0  0  0  0  0  0  0  0  0
    9.1403   -3.4174    0.0000 H   0  0  0  0  0  0  0  0  0  0  0  0
    9.4651   -4.6900    0.0000 H   0  0  0  0  0  0  0  0  0  0  0  0
    4.9272    0.6900    0.0000 H   0  0  0  0  0  0  0  0  0  0  0  0
    6.8671   -3.8100    0.0000 H   0  0  0  0  0  0  0  0  0  0  0  0
   10.1042   -2.0369    0.0000 H   0  0  0  0  0  0  0  0  0  0  0  0
   10.3312   -1.1900    0.0000 H   0  0  0  0  0  0  0  0  0  0  0  0
    9.4842   -0.9631    0.0000 H   0  0  0  0  0  0  0  0  0  0  0  0
    9.4842   -6.0369    0.0000 H   0  0  0  0  0  0  0  0  0  0  0  0
   10.3312   -5.8100    0.0000 H   0  0  0  0  0  0  0  0  0  0  0  0
   10.1042   -4.9631    0.0000 H   0  0  0  0  0  0  0  0  0  0  0  0
    7.7522   -4.9631    0.0000 H   0  0  0  0  0  0  0  0  0  0  0  0
    7.5252   -5.8100    0.0000 H   0  0  0  0  0  0  0  0  0  0  0  0
    8.3722   -6.0369    0.0000 H   0  0  0  0  0  0  0  0  0  0  0  0
    6.0010   -3.6900    0.0000 H   0  0  0  0  0  0  0  0  0  0  0  0
    3.1951   -3.6900    0.0000 H   0  0  0  0  0  0  0  0  0  0  0  0
    6.0010   -5.3100    0.0000 H   0  0  0  0  0  0  0  0  0  0  0  0
    3.1951   -5.3100    0.0000 H   0  0  0  0  0  0  0  0  0  0  0  0
    4.5981   -6.1200    0.0000 H   0  0  0  0  0  0  0  0  0  0  0  0
    5.2087    3.3923    0.0000 H   0  0  0  0  0  0  0  0  0  0  0  0
    4.8101    4.0826    0.0000 H   0  0  0  0  0  0  0  0  0  0  0  0
    2.8660    2.8800    0.0000 H   0  0  0  0  0  0  0  0  0  0  0  0
    4.2690    5.3100    0.0000 H   0  0  0  0  0  0  0  0  0  0  0  0
    1.4631    3.6900    0.0000 H   0  0  0  0  0  0  0  0  0  0  0  0
    2.8660    6.1200    0.0000 H   0  0  0  0  0  0  0  0  0  0  0  0
    1.4631    5.3100    0.0000 H   0  0  0  0  0  0  0  0  0  0  0  0
  1  4  2  0  0  0  0
  1  5  2  0  0  0  0
  1  8  1  0  0  0  0
  1 25  1  0  0  0  0
 13  2  1  1  0  0  0
  2 64  1  0  0  0  0
  3 17  2  0  0  0  0
  6 30  1  0  0  0  0
  6 34  1  0  0  0  0
  7 30  2  0  0  0  0
  8 15  1  0  0  0  0
  8 18  1  0  0  0  0
 11  9  1  6  0  0  0
  9 17  1  0  0  0  0
  9 48  1  0  0  0  0
 14 10  1  1  0  0  0
 10 30  1  0  0  0  0
 10 63  1  0  0  0  0
 11 13  1  0  0  0  0
 11 16  1  0  0  0  0
 11 41  1  0  0  0  0
 12 14  1  0  0  0  0
 12 19  1  0  0  0  0
 12 20  1  0  0  0  0
 12 21  1  0  0  0  0
 13 15  1  0  0  0  0
 13 42  1  0  0  0  0
 14 17  1  0  0  0  0
 14 43  1  0  0  0  0
 15 44  1  0  0  0  0
 15 45  1  0  0  0  0
 16 24  1  0  0  0  0
 16 46  1  0  0  0  0
 16 47  1  0  0  0  0
 18 22  1  0  0  0  0
 18 49  1  0  0  0  0
 18 50  1  0  0  0  0
 19 51  1  0  0  0  0
 19 52  1  0  0  0  0
 19 53  1  0  0  0  0
 20 54  1  0  0  0  0
 20 55  1  0  0  0  0
 20 56  1  0  0  0  0
 21 57  1  0  0  0  0
 21 58  1  0  0  0  0
 21 59  1  0  0  0  0
 22 23  1  0  0  0  0
 22 60  1  0  0  0  0
 22 61  1  0  0  0  0
 23 26  1  0  0  0  0
 23 27  1  0  0  0  0
 23 62  1  0  0  0  0
 24 28  2  0  0  0  0
 24 29  1  0  0  0  0
 25 65  1  0  0  0  0
 25 66  1  0  0  0  0
 25 67  1  0  0  0  0
 26 68  1  0  0  0  0
 26 69  1  0  0  0  0
 26 70  1  0  0  0  0
 27 71  1  0  0  0  0
 27 72  1  0  0  0  0
 27 73  1  0  0  0  0
 28 31  1  0  0  0  0
 28 74  1  0  0  0  0
 29 32  2  0  0  0  0
 29 75  1  0  0  0  0
 31 33  2  0  0  0  0
 31 76  1  0  0  0  0
 32 33  1  0  0  0  0
 32 77  1  0  0  0  0
 33 78  1  0  0  0  0
 34 35  1  0  0  0  0
 34 79  1  0  0  0  0
 34 80  1  0  0  0  0
 35 36  2  0  0  0  0
 35 37  1  0  0  0  0
 36 38  1  0  0  0  0
 36 81  1  0  0  0  0
 37 39  2  0  0  0  0
 37 82  1  0  0  0  0
 38 40  2  0  0  0  0
 38 83  1  0  0  0  0
 39 40  1  0  0  0  0
 39 84  1  0  0  0  0
 40 85  1  0  0  0  0
M  END
> <PUBCHEM_COMPOUND_CID>
508294
> <PUBCHEM_COMPOUND_CANONICALIZED>
1
> <PUBCHEM_CACTVS_COMPLEXITY>
871
> <PUBCHEM_CACTVS_HBOND_ACCEPTOR>
7
> <PUBCHEM_CACTVS_HBOND_DONOR>
3
> <PUBCHEM_CACTVS_ROTATABLE_BOND>
16
> <PUBCHEM_CACTVS_SUBSKEYS>
AAADcfB7OABAAAAAAAAAAAAAAAAAAAAAAAAwYAAAAAAAAAABQAAAHgQQSAAADzzhmAayCILABgKIAiFSGHACAAAgAAAIiIGICIkKdjKA8TmccAAk1gGYqAeQwKAPAAAAAAAAAAAAAAAAAAAAAAAAAAAAAA==
> <PUBCHEM_IUPAC_OPENEYE_NAME>
benzyl N-[(1S)-1-[[(1S,2R)-1-benzyl-2-hydroxy-3-[isopentyl(methylsulfonyl)amino]propyl]carbamoyl]-2,2-dimethyl-propyl]carbamate
> <PUBCHEM_IUPAC_CAS_NAME>
N-[(2S)-1-[[(2S,3R)-3-hydroxy-4-[3-methylbutyl(methylsulfonyl)amino]-1-phenylbutan-2-yl]amino]-3,3-dimethyl-1-oxobutan-2-yl]carbamic acid (phenylmethyl) ester
> <PUBCHEM_IUPAC_NAME_MARKUP>
benzyl <I>N</I>-[(2<I>S</I>)-1-[[(2<I>S</I>,3<I>R</I>)-3-hydroxy-4-[3-methylbutyl(methylsulfonyl)amino]-1-phenylbutan-2-yl]amino]-3,3-dimethyl-1-oxobutan-2-yl]carbamate
> <PUBCHEM_IUPAC_NAME>
benzyl N-[(2S)-1-[[(2S,3R)-3-hydroxy-4-[3-methylbutyl(methylsulfonyl)amino]-1-phenylbutan-2-yl]amino]-3,3-dimethyl-1-oxobutan-2-yl]carbamate
> <PUBCHEM_IUPAC_SYSTEMATIC_NAME>
(phenylmethyl) N-[(2S)-3,3-dimethyl-1-[[(2S,3R)-4-[3-methylbutyl(methylsulfonyl)amino]-3-oxidanyl-1-phenyl-butan-2-yl]amino]-1-oxidanylidene-butan-2-yl]carbamate
> <PUBCHEM_IUPAC_TRADITIONAL_NAME>
N-[(1S)-1-[[(1S,2R)-1-benzyl-2-hydroxy-3-[isoamyl(mesyl)amino]propyl]carbamoyl]-2,2-dimethyl-propyl]carbamic acid benzyl ester
> <PUBCHEM_IUPAC_INCHI>
InChI=1S/C30H45N3O6S/c1-22(2)17-18-33(40(6,37)38)20-26(34)25(19-23-13-9-7-10-14-23)31-28(35)27(30(3,4)5)32-29(36)39-21-24-15-11-8-12-16-24/h7-16,22,25-27,34H,17-21H2,1-6H3,(H,31,35)(H,32,36)/t25-,26+,27+/m0/s1
> <PUBCHEM_IUPAC_INCHIKEY>
XGCYOXUMUPIDDB-OYUWMTPXSA-N
> <PUBCHEM_XLOGP3_AA>
4.9
> <PUBCHEM_EXACT_MASS>
575.30290734
> <PUBCHEM_MOLECULAR_FORMULA>
C30H45N3O6S
> <PUBCHEM_MOLECULAR_WEIGHT>
575.8
> <PUBCHEM_OPENEYE_CAN_SMILES>
CC(C)CCN(CC(C(CC1=CC=CC=C1)NC(=O)C(C(C)(C)C)NC(=O)OCC2=CC=CC=C2)O)S(=O)(=O)C
> <PUBCHEM_OPENEYE_ISO_SMILES>
CC(C)CCN(C[C@H]([C@H](CC1=CC=CC=C1)NC(=O)[C@H](C(C)(C)C)NC(=O)OCC2=CC=CC=C2)O)S(=O)(=O)C
> <PUBCHEM_CACTVS_TPSA>
133
> <PUBCHEM_MONOISOTOPIC_WEIGHT>
575.30290734
> <PUBCHEM_TOTAL_CHARGE>
0
> <PUBCHEM_HEAVY_ATOM_COUNT>
40
> <PUBCHEM_ATOM_DEF_STEREO_COUNT>
3
> <PUBCHEM_ATOM_UDEF_STEREO_COUNT>
0
> <PUBCHEM_BOND_DEF_STEREO_COUNT>
0
> <PUBCHEM_BOND_UDEF_STEREO_COUNT>
0
> <PUBCHEM_ISOTOPIC_ATOM_COUNT>
0
> <PUBCHEM_COMPONENT_COUNT>
1
> <PUBCHEM_CACTVS_TAUTO_COUNT>
-1
> <PUBCHEM_COORDINATE_TYPE>
1
5
255
> <PUBCHEM_BONDANNOTATIONS>
14  10  5
13  2  5
24  28  8
24  29  8
28  31  8
29  32  8
31  33  8
32  33  8
35  36  8
35  37  8
36  38  8
37  39  8
38  40  8
39  40  8
11  9  6
$$$$
