508224
  -OEChem-10302200282D
 77 79  0     1  0  0  0  0  0999 V2000
    8.1402   -5.8372    0.0000 O   0  0  0  0  0  0  0  0  0  0  0  0
   10.5109   -1.1736    0.0000 O   0  0  0  0  0  0  0  0  0  0  0  0
    7.9128   -0.6736    0.0000 O   0  0  0  0  0  0  0  0  0  0  0  0
    4.4487    0.3264    0.0000 O   0  0  0  0  0  0  0  0  0  0  0  0
   11.3769   -2.6736    0.0000 O   0  0  0  0  0  0  0  0  0  0  0  0
    5.3147    3.8264    0.0000 O   0  0  0  0  0  0  0  0  0  0  0  0
    2.0000    4.1628    0.0000 O   0  0  0  0  0  0  0  0  0  0  0  0
    9.8615   -5.3760    0.0000 N   0  0  0  0  0  0  0  0  0  0  0  0
    7.0468   -2.1736    0.0000 N   0  0  0  0  0  0  0  0  0  0  0  0
    6.1808    0.3264    0.0000 N   0  0  0  0  0  0  0  0  0  0  0  0
    4.4487    2.3264    0.0000 N   0  0  0  0  0  0  0  0  0  0  0  0
    2.6691    3.4197    0.0000 N   0  0  0  0  0  0  0  0  0  0  0  0
    8.7788   -4.1736    0.0000 C   0  0  2  0  0  0  0  0  0  0  0  0
    7.9128   -3.6736    0.0000 C   0  0  0  0  0  0  0  0  0  0  0  0
    9.6924   -3.7668    0.0000 C   0  0  0  0  0  0  0  0  0  0  0  0
    7.9128   -2.6736    0.0000 C   0  0  1  0  0  0  0  0  0  0  0  0
   10.3615   -4.5100    0.0000 C   0  0  0  0  0  0  0  0  0  0  0  0
    8.8834   -5.1681    0.0000 C   0  0  0  0  0  0  0  0  0  0  0  0
    8.7788   -2.1736    0.0000 C   0  0  0  0  0  0  0  0  0  0  0  0
    6.1808   -0.6736    0.0000 C   0  0  2  0  0  0  0  0  0  0  0  0
    7.0468   -1.1736    0.0000 C   0  0  0  0  0  0  0  0  0  0  0  0
    5.3147   -1.1736    0.0000 C   0  0  0  0  0  0  0  0  0  0  0  0
   11.3769    0.3264    0.0000 C   0  0  0  0  0  0  0  0  0  0  0  0
    9.6448   -2.6736    0.0000 C   0  0  0  0  0  0  0  0  0  0  0  0
   11.3769   -0.6736    0.0000 C   0  0  0  0  0  0  0  0  0  0  0  0
    5.3147   -2.1736    0.0000 C   0  0  0  0  0  0  0  0  0  0  0  0
    5.3147    0.8264    0.0000 C   0  0  0  0  0  0  0  0  0  0  0  0
   11.3769    1.3264    0.0000 C   0  0  0  0  0  0  0  0  0  0  0  0
   12.3769    0.3264    0.0000 C   0  0  0  0  0  0  0  0  0  0  0  0
   10.3769    0.3264    0.0000 C   0  0  0  0  0  0  0  0  0  0  0  0
   10.5109   -2.1736    0.0000 C   0  0  0  0  0  0  0  0  0  0  0  0
    7.0468    0.8264    0.0000 C   0  0  0  0  0  0  0  0  0  0  0  0
    5.3147    1.8264    0.0000 C   0  0  0  0  0  0  0  0  0  0  0  0
    7.0468    1.8264    0.0000 C   0  0  0  0  0  0  0  0  0  0  0  0
    6.1808    2.3264    0.0000 C   0  0  0  0  0  0  0  0  0  0  0  0
    4.4487    3.3264    0.0000 C   0  0  0  0  0  0  0  0  0  0  0  0
    3.5827    3.8264    0.0000 C   0  0  0  0  0  0  0  0  0  0  0  0
    3.4782    4.8210    0.0000 C   0  0  0  0  0  0  0  0  0  0  0  0
    2.5000    5.0289    0.0000 C   0  0  0  0  0  0  0  0  0  0  0  0
    2.0933    5.9424    0.0000 C   0  0  0  0  0  0  0  0  0  0  0  0
    8.8113   -3.5544    0.0000 H   0  0  0  0  0  0  0  0  0  0  0  0
    7.3022   -3.5659    0.0000 H   0  0  0  0  0  0  0  0  0  0  0  0
    7.7008   -4.2562    0.0000 H   0  0  0  0  0  0  0  0  0  0  0  0
   10.1940   -3.4024    0.0000 H   0  0  0  0  0  0  0  0  0  0  0  0
    9.3824   -3.2299    0.0000 H   0  0  0  0  0  0  0  0  0  0  0  0
    7.9128   -2.0536    0.0000 H   0  0  0  0  0  0  0  0  0  0  0  0
   10.8631   -4.8744    0.0000 H   0  0  0  0  0  0  0  0  0  0  0  0
   10.7764   -4.0492    0.0000 H   0  0  0  0  0  0  0  0  0  0  0  0
   10.1137   -5.9424    0.0000 H   0  0  0  0  0  0  0  0  0  0  0  0
    6.5098   -2.4836    0.0000 H   0  0  0  0  0  0  0  0  0  0  0  0
    8.7788   -1.5536    0.0000 H   0  0  0  0  0  0  0  0  0  0  0  0
    6.1808   -1.2936    0.0000 H   0  0  0  0  0  0  0  0  0  0  0  0
    5.1027   -0.5910    0.0000 H   0  0  0  0  0  0  0  0  0  0  0  0
    4.7042   -1.2812    0.0000 H   0  0  0  0  0  0  0  0  0  0  0  0
    9.6448   -3.2936    0.0000 H   0  0  0  0  0  0  0  0  0  0  0  0
   11.5890   -1.2562    0.0000 H   0  0  0  0  0  0  0  0  0  0  0  0
   11.9875   -0.5659    0.0000 H   0  0  0  0  0  0  0  0  0  0  0  0
    4.6947   -2.1736    0.0000 H   0  0  0  0  0  0  0  0  0  0  0  0
    5.3147   -2.7936    0.0000 H   0  0  0  0  0  0  0  0  0  0  0  0
    5.9347   -2.1736    0.0000 H   0  0  0  0  0  0  0  0  0  0  0  0
   11.9969    1.3264    0.0000 H   0  0  0  0  0  0  0  0  0  0  0  0
   11.3769    1.9464    0.0000 H   0  0  0  0  0  0  0  0  0  0  0  0
   10.7569    1.3264    0.0000 H   0  0  0  0  0  0  0  0  0  0  0  0
   12.3769   -0.2936    0.0000 H   0  0  0  0  0  0  0  0  0  0  0  0
   12.9969    0.3264    0.0000 H   0  0  0  0  0  0  0  0  0  0  0  0
   12.3769    0.9464    0.0000 H   0  0  0  0  0  0  0  0  0  0  0  0
   10.3769    0.9464    0.0000 H   0  0  0  0  0  0  0  0  0  0  0  0
    9.7569    0.3264    0.0000 H   0  0  0  0  0  0  0  0  0  0  0  0
   10.3769   -0.2936    0.0000 H   0  0  0  0  0  0  0  0  0  0  0  0
    7.5837    0.5164    0.0000 H   0  0  0  0  0  0  0  0  0  0  0  0
    7.5837    2.1364    0.0000 H   0  0  0  0  0  0  0  0  0  0  0  0
    6.1808    2.9464    0.0000 H   0  0  0  0  0  0  0  0  0  0  0  0
    3.9118    2.0164    0.0000 H   0  0  0  0  0  0  0  0  0  0  0  0
    3.9389    5.2358    0.0000 H   0  0  0  0  0  0  0  0  0  0  0  0
    2.6597    6.1946    0.0000 H   0  0  0  0  0  0  0  0  0  0  0  0
    1.8411    6.5088    0.0000 H   0  0  0  0  0  0  0  0  0  0  0  0
    1.5269    5.6902    0.0000 H   0  0  0  0  0  0  0  0  0  0  0  0
  1 18  2  0  0  0  0
  2 25  1  0  0  0  0
  2 31  1  0  0  0  0
  3 21  2  0  0  0  0
  4 27  2  0  0  0  0
  5 31  2  0  0  0  0
  6 36  2  0  0  0  0
  7 12  1  0  0  0  0
  7 39  1  0  0  0  0
  8 17  1  0  0  0  0
  8 18  1  0  0  0  0
  8 49  1  0  0  0  0
 16  9  1  6  0  0  0
  9 21  1  0  0  0  0
  9 50  1  0  0  0  0
 10 20  1  0  0  0  0
 10 27  1  0  0  0  0
 10 32  1  0  0  0  0
 11 33  1  0  0  0  0
 11 36  1  0  0  0  0
 11 73  1  0  0  0  0
 12 37  2  0  0  0  0
 13 14  1  6  0  0  0
 13 15  1  0  0  0  0
 13 18  1  0  0  0  0
 13 41  1  0  0  0  0
 14 16  1  0  0  0  0
 14 42  1  0  0  0  0
 14 43  1  0  0  0  0
 15 17  1  0  0  0  0
 15 44  1  0  0  0  0
 15 45  1  0  0  0  0
 16 19  1  0  0  0  0
 16 46  1  0  0  0  0
 17 47  1  0  0  0  0
 17 48  1  0  0  0  0
 19 24  2  3  0  0  0
 19 51  1  0  0  0  0
 20 21  1  0  0  0  0
 20 22  1  6  0  0  0
 20 52  1  0  0  0  0
 22 26  1  0  0  0  0
 22 53  1  0  0  0  0
 22 54  1  0  0  0  0
 23 25  1  0  0  0  0
 23 28  1  0  0  0  0
 23 29  1  0  0  0  0
 23 30  1  0  0  0  0
 24 31  1  0  0  0  0
 24 55  1  0  0  0  0
 25 56  1  0  0  0  0
 25 57  1  0  0  0  0
 26 58  1  0  0  0  0
 26 59  1  0  0  0  0
 26 60  1  0  0  0  0
 27 33  1  0  0  0  0
 28 61  1  0  0  0  0
 28 62  1  0  0  0  0
 28 63  1  0  0  0  0
 29 64  1  0  0  0  0
 29 65  1  0  0  0  0
 29 66  1  0  0  0  0
 30 67  1  0  0  0  0
 30 68  1  0  0  0  0
 30 69  1  0  0  0  0
 32 34  2  0  0  0  0
 32 70  1  0  0  0  0
 33 35  2  0  0  0  0
 34 35  1  0  0  0  0
 34 71  1  0  0  0  0
 35 72  1  0  0  0  0
 36 37  1  0  0  0  0
 37 38  1  0  0  0  0
 38 39  2  0  0  0  0
 38 74  1  0  0  0  0
 39 40  1  0  0  0  0
 40 75  1  0  0  0  0
 40 76  1  0  0  0  0
 40 77  1  0  0  0  0
M  END
> <PUBCHEM_COMPOUND_CID>
508224
> <PUBCHEM_COMPOUND_CANONICALIZED>
1
> <PUBCHEM_CACTVS_COMPLEXITY>
1080
> <PUBCHEM_CACTVS_HBOND_ACCEPTOR>
8
> <PUBCHEM_CACTVS_HBOND_DONOR>
3
> <PUBCHEM_CACTVS_ROTATABLE_BOND>
13
> <PUBCHEM_CACTVS_SUBSKEYS>
AAADcfB7uAAAAAAAAAAAAAAAAAAAAWLAAAAgAAAAAAAAAAABgAAAHgAUAAAADyzhlgYyjJPQBACpAaX2WgCAAAAmIgAoGKG+bFoIZhoApbMWEYhmlhiI6cM/AAAOAAAAAAAAAAAAAAAAAAAAAAAAAAAAAA==
> <PUBCHEM_IUPAC_OPENEYE_NAME>
2,2-dimethylpropyl (4S)-4-[[(2S)-2-[3-[(5-methylisoxazole-3-carbonyl)amino]-2-oxo-1-pyridyl]butanoyl]amino]-5-[(3S)-2-oxopyrrolidin-3-yl]pent-2-enoate
> <PUBCHEM_IUPAC_CAS_NAME>
(4S)-4-[[(2S)-2-[3-[[(5-methyl-3-isoxazolyl)-oxomethyl]amino]-2-oxo-1-pyridinyl]-1-oxobutyl]amino]-5-[(3S)-2-oxo-3-pyrrolidinyl]-2-pentenoic acid 2,2-dimethylpropyl ester
> <PUBCHEM_IUPAC_NAME_MARKUP>
2,2-dimethylpropyl (4<I>S</I>)-4-[[(2<I>S</I>)-2-[3-[(5-methyl-1,2-oxazole-3-carbonyl)amino]-2-oxopyridin-1-yl]butanoyl]amino]-5-[(3<I>S</I>)-2-oxopyrrolidin-3-yl]pent-2-enoate
> <PUBCHEM_IUPAC_NAME>
2,2-dimethylpropyl (4S)-4-[[(2S)-2-[3-[(5-methyl-1,2-oxazole-3-carbonyl)amino]-2-oxopyridin-1-yl]butanoyl]amino]-5-[(3S)-2-oxopyrrolidin-3-yl]pent-2-enoate
> <PUBCHEM_IUPAC_SYSTEMATIC_NAME>
2,2-dimethylpropyl (4S)-4-[[(2S)-2-[3-[(5-methyl-1,2-oxazol-3-yl)carbonylamino]-2-oxidanylidene-pyridin-1-yl]butanoyl]amino]-5-[(3S)-2-oxidanylidenepyrrolidin-3-yl]pent-2-enoate
> <PUBCHEM_IUPAC_TRADITIONAL_NAME>
(4S)-4-[[(2S)-2-[2-keto-3-[(5-methylisoxazole-3-carbonyl)amino]-1-pyridyl]butanoyl]amino]-5-[(3S)-2-ketopyrrolidin-3-yl]pent-2-enoic acid neopentyl ester
> <PUBCHEM_IUPAC_INCHI>
InChI=1S/C28H37N5O7/c1-6-22(33-13-7-8-20(27(33)38)31-25(36)21-14-17(2)40-32-21)26(37)30-19(15-18-11-12-29-24(18)35)9-10-23(34)39-16-28(3,4)5/h7-10,13-14,18-19,22H,6,11-12,15-16H2,1-5H3,(H,29,35)(H,30,37)(H,31,36)/t18-,19+,22-/m0/s1
> <PUBCHEM_IUPAC_INCHIKEY>
UFZISEZLKZBZAO-JQVVWYNYSA-N
> <PUBCHEM_XLOGP3_AA>
2.6
> <PUBCHEM_EXACT_MASS>
555.26929854
> <PUBCHEM_MOLECULAR_FORMULA>
C28H37N5O7
> <PUBCHEM_MOLECULAR_WEIGHT>
555.6
> <PUBCHEM_OPENEYE_CAN_SMILES>
CCC(C(=O)NC(CC1CCNC1=O)C=CC(=O)OCC(C)(C)C)N2C=CC=C(C2=O)NC(=O)C3=NOC(=C3)C
> <PUBCHEM_OPENEYE_ISO_SMILES>
CC[C@@H](C(=O)N[C@@H](C[C@@H]1CCNC1=O)C=CC(=O)OCC(C)(C)C)N2C=CC=C(C2=O)NC(=O)C3=NOC(=C3)C
> <PUBCHEM_CACTVS_TPSA>
160
> <PUBCHEM_MONOISOTOPIC_WEIGHT>
555.26929854
> <PUBCHEM_TOTAL_CHARGE>
0
> <PUBCHEM_HEAVY_ATOM_COUNT>
40
> <PUBCHEM_ATOM_DEF_STEREO_COUNT>
3
> <PUBCHEM_ATOM_UDEF_STEREO_COUNT>
0
> <PUBCHEM_BOND_DEF_STEREO_COUNT>
0
> <PUBCHEM_BOND_UDEF_STEREO_COUNT>
1
> <PUBCHEM_ISOTOPIC_ATOM_COUNT>
0
> <PUBCHEM_COMPONENT_COUNT>
1
> <PUBCHEM_CACTVS_TAUTO_COUNT>
-1
> <PUBCHEM_COORDINATE_TYPE>
1
5
255
> <PUBCHEM_BONDANNOTATIONS>
10  27  8
10  32  8
12  37  8
13  14  6
19  24  1
20  22  6
27  33  8
32  34  8
33  35  8
34  35  8
37  38  8
38  39  8
7  12  8
7  39  8
16  9  6
$$$$
