508202
  -OEChem-10302200282D
103107  0     1  0  0  0  0  0999 V2000
    8.9962    1.5670    0.0000 S   0  0  0  0  0  0  0  0  0  0  0  0
    7.2641    4.5670    0.0000 O   0  0  0  0  0  0  0  0  0  0  0  0
    5.5321    1.5670    0.0000 O   0  0  0  0  0  0  0  0  0  0  0  0
    8.9962    0.5670    0.0000 O   0  0  0  0  0  0  0  0  0  0  0  0
   10.7282   -2.4330    0.0000 O   0  0  0  0  0  0  0  0  0  0  0  0
    5.5321    3.5670    0.0000 N   0  0  3  0  0  0  0  0  0  0  0  0
    6.3981    6.0670    0.0000 N   0  0  0  0  0  0  0  0  0  0  0  0
    7.2641    0.5670    0.0000 N   0  0  0  0  0  0  0  0  0  0  0  0
    9.8622   -3.9330    0.0000 N   0  0  0  0  0  0  0  0  0  0  0  0
   11.5942   -5.9330    0.0000 N   0  0  0  0  0  0  0  0  0  0  0  0
    3.8000    4.5670    0.0000 C   0  0  2  0  0  0  0  0  0  0  0  0
    3.8000    3.5670    0.0000 C   0  0  1  0  0  0  0  0  0  0  0  0
    4.6660    5.0670    0.0000 C   0  0  0  0  0  0  0  0  0  0  0  0
    4.6660    3.0670    0.0000 C   0  0  0  0  0  0  0  0  0  0  0  0
    2.9061    5.1016    0.0000 C   0  0  0  0  0  0  0  0  0  0  0  0
    2.9061    3.0323    0.0000 C   0  0  0  0  0  0  0  0  0  0  0  0
    5.5321    4.5670    0.0000 C   0  0  1  0  0  0  0  0  0  0  0  0
    2.0000    4.5878    0.0000 C   0  0  0  0  0  0  0  0  0  0  0  0
    2.0000    3.5462    0.0000 C   0  0  0  0  0  0  0  0  0  0  0  0
    6.3981    3.0670    0.0000 C   0  0  0  0  0  0  0  0  0  0  0  0
    6.3981    5.0670    0.0000 C   0  0  0  0  0  0  0  0  0  0  0  0
    6.3981    2.0670    0.0000 C   0  0  1  0  0  0  0  0  0  0  0  0
    7.2641    1.5670    0.0000 C   0  0  2  0  0  0  0  0  0  0  0  0
    7.2641    6.5670    0.0000 C   0  0  0  0  0  0  0  0  0  0  0  0
    8.1301    2.0670    0.0000 C   0  0  0  0  0  0  0  0  0  0  0  0
    8.1301    7.0670    0.0000 C   0  0  0  0  0  0  0  0  0  0  0  0
    6.7641    7.4330    0.0000 C   0  0  0  0  0  0  0  0  0  0  0  0
    7.7641    5.7010    0.0000 C   0  0  0  0  0  0  0  0  0  0  0  0
    8.1301    0.0670    0.0000 C   0  0  0  0  0  0  0  0  0  0  0  0
    8.1301   -0.9330    0.0000 C   0  0  0  0  0  0  0  0  0  0  0  0
    9.8622    2.0670    0.0000 C   0  0  0  0  0  0  0  0  0  0  0  0
    7.2641   -1.4330    0.0000 C   0  0  0  0  0  0  0  0  0  0  0  0
    8.9962   -1.4330    0.0000 C   0  0  0  0  0  0  0  0  0  0  0  0
   10.7282    1.5670    0.0000 C   0  0  0  0  0  0  0  0  0  0  0  0
    9.8622    3.0670    0.0000 C   0  0  0  0  0  0  0  0  0  0  0  0
    8.9962   -2.4330    0.0000 C   0  0  0  0  0  0  0  0  0  0  0  0
    7.2641   -2.4330    0.0000 C   0  0  0  0  0  0  0  0  0  0  0  0
    6.3981   -0.9330    0.0000 C   0  0  0  0  0  0  0  0  0  0  0  0
   11.5942    2.0670    0.0000 C   0  0  0  0  0  0  0  0  0  0  0  0
   10.7282    3.5670    0.0000 C   0  0  0  0  0  0  0  0  0  0  0  0
    8.1301   -2.9330    0.0000 C   0  0  0  0  0  0  0  0  0  0  0  0
   11.5942    3.0670    0.0000 C   0  0  0  0  0  0  0  0  0  0  0  0
    9.8622   -2.9330    0.0000 C   0  0  0  0  0  0  0  0  0  0  0  0
   10.7282   -4.4330    0.0000 C   0  0  0  0  0  0  0  0  0  0  0  0
    8.9962   -4.4330    0.0000 C   0  0  0  0  0  0  0  0  0  0  0  0
   10.7282   -5.4330    0.0000 C   0  0  0  0  0  0  0  0  0  0  0  0
    9.8622   -5.9330    0.0000 C   0  0  0  0  0  0  0  0  0  0  0  0
    9.8622   -6.9330    0.0000 C   0  0  0  0  0  0  0  0  0  0  0  0
   11.5942   -6.9330    0.0000 C   0  0  0  0  0  0  0  0  0  0  0  0
   10.7282   -7.4330    0.0000 C   0  0  0  0  0  0  0  0  0  0  0  0
    3.8066    5.4170    0.0000 H   0  0  0  0  0  0  0  0  0  0  0  0
    3.8066    2.7170    0.0000 H   0  0  0  0  0  0  0  0  0  0  0  0
    5.0646    5.5419    0.0000 H   0  0  0  0  0  0  0  0  0  0  0  0
    4.2675    5.5419    0.0000 H   0  0  0  0  0  0  0  0  0  0  0  0
    4.2675    2.5920    0.0000 H   0  0  0  0  0  0  0  0  0  0  0  0
    5.0646    2.5920    0.0000 H   0  0  0  0  0  0  0  0  0  0  0  0
    3.3107    5.5714    0.0000 H   0  0  0  0  0  0  0  0  0  0  0  0
    2.5124    5.5807    0.0000 H   0  0  0  0  0  0  0  0  0  0  0  0
    2.5124    2.5533    0.0000 H   0  0  0  0  0  0  0  0  0  0  0  0
    3.3107    2.5625    0.0000 H   0  0  0  0  0  0  0  0  0  0  0  0
    6.0690    4.2570    0.0000 H   0  0  0  0  0  0  0  0  0  0  0  0
    1.7909    5.1715    0.0000 H   0  0  0  0  0  0  0  0  0  0  0  0
    1.3891    4.4817    0.0000 H   0  0  0  0  0  0  0  0  0  0  0  0
    1.3891    3.6523    0.0000 H   0  0  0  0  0  0  0  0  0  0  0  0
    1.7909    2.9625    0.0000 H   0  0  0  0  0  0  0  0  0  0  0  0
    7.0087    2.9593    0.0000 H   0  0  0  0  0  0  0  0  0  0  0  0
    6.6101    3.6496    0.0000 H   0  0  0  0  0  0  0  0  0  0  0  0
    6.3981    1.4470    0.0000 H   0  0  0  0  0  0  0  0  0  0  0  0
    5.8612    6.3770    0.0000 H   0  0  0  0  0  0  0  0  0  0  0  0
    7.8010    1.2570    0.0000 H   0  0  0  0  0  0  0  0  0  0  0  0
    5.5321    0.9470    0.0000 H   0  0  0  0  0  0  0  0  0  0  0  0
    8.5287    2.5419    0.0000 H   0  0  0  0  0  0  0  0  0  0  0  0
    7.7316    2.5419    0.0000 H   0  0  0  0  0  0  0  0  0  0  0  0
    6.7272    0.2570    0.0000 H   0  0  0  0  0  0  0  0  0  0  0  0
    8.4401    6.5300    0.0000 H   0  0  0  0  0  0  0  0  0  0  0  0
    8.6671    7.3770    0.0000 H   0  0  0  0  0  0  0  0  0  0  0  0
    7.8201    7.6039    0.0000 H   0  0  0  0  0  0  0  0  0  0  0  0
    7.3010    7.7430    0.0000 H   0  0  0  0  0  0  0  0  0  0  0  0
    6.4541    7.9700    0.0000 H   0  0  0  0  0  0  0  0  0  0  0  0
    6.2272    7.1230    0.0000 H   0  0  0  0  0  0  0  0  0  0  0  0
    7.2272    5.3910    0.0000 H   0  0  0  0  0  0  0  0  0  0  0  0
    8.0741    5.1640    0.0000 H   0  0  0  0  0  0  0  0  0  0  0  0
    8.3010    6.0110    0.0000 H   0  0  0  0  0  0  0  0  0  0  0  0
    9.5331   -1.1230    0.0000 H   0  0  0  0  0  0  0  0  0  0  0  0
   10.7282    0.9470    0.0000 H   0  0  0  0  0  0  0  0  0  0  0  0
    9.3252    3.3770    0.0000 H   0  0  0  0  0  0  0  0  0  0  0  0
    6.7272   -2.7430    0.0000 H   0  0  0  0  0  0  0  0  0  0  0  0
    6.7081   -0.3961    0.0000 H   0  0  0  0  0  0  0  0  0  0  0  0
    5.8612   -0.6230    0.0000 H   0  0  0  0  0  0  0  0  0  0  0  0
    6.0881   -1.4700    0.0000 H   0  0  0  0  0  0  0  0  0  0  0  0
   12.1312    1.7570    0.0000 H   0  0  0  0  0  0  0  0  0  0  0  0
   10.7282    4.1870    0.0000 H   0  0  0  0  0  0  0  0  0  0  0  0
    8.1301   -3.5530    0.0000 H   0  0  0  0  0  0  0  0  0  0  0  0
   12.1312    3.3770    0.0000 H   0  0  0  0  0  0  0  0  0  0  0  0
   11.3388   -4.5407    0.0000 H   0  0  0  0  0  0  0  0  0  0  0  0
   10.9403   -3.8504    0.0000 H   0  0  0  0  0  0  0  0  0  0  0  0
    8.6862   -3.8961    0.0000 H   0  0  0  0  0  0  0  0  0  0  0  0
    8.4592   -4.7430    0.0000 H   0  0  0  0  0  0  0  0  0  0  0  0
    9.3062   -4.9700    0.0000 H   0  0  0  0  0  0  0  0  0  0  0  0
    9.3252   -5.6230    0.0000 H   0  0  0  0  0  0  0  0  0  0  0  0
    9.3252   -7.2430    0.0000 H   0  0  0  0  0  0  0  0  0  0  0  0
   12.1312   -7.2430    0.0000 H   0  0  0  0  0  0  0  0  0  0  0  0
   10.7282   -8.0530    0.0000 H   0  0  0  0  0  0  0  0  0  0  0  0
  1 25  1  0  0  0  0
  1 31  1  0  0  0  0
  2 21  2  0  0  0  0
 22  3  1  1  0  0  0
  3 71  1  0  0  0  0
  4 29  2  0  0  0  0
  5 43  2  0  0  0  0
  6 14  1  0  0  0  0
  6 17  1  0  0  0  0
  6 20  1  0  0  0  0
  7 21  1  0  0  0  0
  7 24  1  0  0  0  0
  7 69  1  0  0  0  0
 23  8  1  6  0  0  0
  8 29  1  0  0  0  0
  8 74  1  0  0  0  0
  9 43  1  0  0  0  0
  9 44  1  0  0  0  0
  9 45  1  0  0  0  0
 10 46  1  0  0  0  0
 10 49  2  0  0  0  0
 11 12  1  0  0  0  0
 11 13  1  0  0  0  0
 11 15  1  0  0  0  0
 11 51  1  6  0  0  0
 12 14  1  0  0  0  0
 12 16  1  0  0  0  0
 12 52  1  6  0  0  0
 13 17  1  0  0  0  0
 13 53  1  0  0  0  0
 13 54  1  0  0  0  0
 14 55  1  0  0  0  0
 14 56  1  0  0  0  0
 15 18  1  0  0  0  0
 15 57  1  0  0  0  0
 15 58  1  0  0  0  0
 16 19  1  0  0  0  0
 16 59  1  0  0  0  0
 16 60  1  0  0  0  0
 17 21  1  1  0  0  0
 17 61  1  0  0  0  0
 18 19  1  0  0  0  0
 18 62  1  0  0  0  0
 18 63  1  0  0  0  0
 19 64  1  0  0  0  0
 19 65  1  0  0  0  0
 20 22  1  0  0  0  0
 20 66  1  0  0  0  0
 20 67  1  0  0  0  0
 22 23  1  0  0  0  0
 22 68  1  0  0  0  0
 23 25  1  0  0  0  0
 23 70  1  0  0  0  0
 24 26  1  0  0  0  0
 24 27  1  0  0  0  0
 24 28  1  0  0  0  0
 25 72  1  0  0  0  0
 25 73  1  0  0  0  0
 26 75  1  0  0  0  0
 26 76  1  0  0  0  0
 26 77  1  0  0  0  0
 27 78  1  0  0  0  0
 27 79  1  0  0  0  0
 27 80  1  0  0  0  0
 28 81  1  0  0  0  0
 28 82  1  0  0  0  0
 28 83  1  0  0  0  0
 29 30  1  0  0  0  0
 30 32  2  0  0  0  0
 30 33  1  0  0  0  0
 31 34  2  0  0  0  0
 31 35  1  0  0  0  0
 32 37  1  0  0  0  0
 32 38  1  0  0  0  0
 33 36  2  0  0  0  0
 33 84  1  0  0  0  0
 34 39  1  0  0  0  0
 34 85  1  0  0  0  0
 35 40  2  0  0  0  0
 35 86  1  0  0  0  0
 36 41  1  0  0  0  0
 36 43  1  0  0  0  0
 37 41  2  0  0  0  0
 37 87  1  0  0  0  0
 38 88  1  0  0  0  0
 38 89  1  0  0  0  0
 38 90  1  0  0  0  0
 39 42  2  0  0  0  0
 39 91  1  0  0  0  0
 40 42  1  0  0  0  0
 40 92  1  0  0  0  0
 41 93  1  0  0  0  0
 42 94  1  0  0  0  0
 44 46  1  0  0  0  0
 44 95  1  0  0  0  0
 44 96  1  0  0  0  0
 45 97  1  0  0  0  0
 45 98  1  0  0  0  0
 45 99  1  0  0  0  0
 46 47  2  0  0  0  0
 47 48  1  0  0  0  0
 47100  1  0  0  0  0
 48 50  2  0  0  0  0
 48101  1  0  0  0  0
 49 50  1  0  0  0  0
 49102  1  0  0  0  0
 50103  1  0  0  0  0
M  END
> <PUBCHEM_COMPOUND_CID>
508202
> <PUBCHEM_COMPOUND_CANONICALIZED>
1
> <PUBCHEM_CACTVS_COMPLEXITY>
1110
> <PUBCHEM_CACTVS_HBOND_ACCEPTOR>
7
> <PUBCHEM_CACTVS_HBOND_DONOR>
3
> <PUBCHEM_CACTVS_ROTATABLE_BOND>
13
> <PUBCHEM_CACTVS_SUBSKEYS>
AAADcfB/uABAAAAAAAAAAAAAAAAAAAAAAAA8eMECAAAAAACx0AAAHgQQCAAADbzl3ga+gZPIEgioAzV3VACCgCA1CjAI2Lm4ZNgKcPLg1bGUYQhglgD4yYcYi8COwAACAAAQAACAAAQAACAAAAAAAAAAAA==
> <PUBCHEM_IUPAC_OPENEYE_NAME>
N3-[(1R,2S)-3-[(3S,4aS,8aS)-3-(tert-butylcarbamoyl)-3,4,4a,5,6,7,8,8a-octahydro-1H-isoquinolin-2-yl]-2-hydroxy-1-(phenylsulfanylmethyl)propyl]-N1,4-dimethyl-N1-(2-pyridylmethyl)benzene-1,3-dicarboxamide
> <PUBCHEM_IUPAC_CAS_NAME>
N3-[(2R,3S)-4-[(3S,4aS,8aS)-3-[(tert-butylamino)-oxomethyl]-3,4,4a,5,6,7,8,8a-octahydro-1H-isoquinolin-2-yl]-3-hydroxy-1-(phenylthio)butan-2-yl]-N1,4-dimethyl-N1-(2-pyridinylmethyl)benzene-1,3-dicarboxamide
> <PUBCHEM_IUPAC_NAME_MARKUP>
3-<I>N</I>-[(2<I>R</I>,3<I>S</I>)-4-[(3<I>S</I>,4<I>a</I><I>S</I>,8<I>a</I><I>S</I>)-3-(<I>tert</I>-butylcarbamoyl)-3,4,4<I>a</I>,5,6,7,8,8<I>a</I>-octahydro-1<I>H</I>-isoquinolin-2-yl]-3-hydroxy-1-phenylsulfanylbutan-2-yl]-1-<I>N</I>,4-dimethyl-1-<I>N</I>-(pyridin-2-ylmethyl)benzene-1,3-dicarboxamide
> <PUBCHEM_IUPAC_NAME>
3-N-[(2R,3S)-4-[(3S,4aS,8aS)-3-(tert-butylcarbamoyl)-3,4,4a,5,6,7,8,8a-octahydro-1H-isoquinolin-2-yl]-3-hydroxy-1-phenylsulfanylbutan-2-yl]-1-N,4-dimethyl-1-N-(pyridin-2-ylmethyl)benzene-1,3-dicarboxamide
> <PUBCHEM_IUPAC_SYSTEMATIC_NAME>
N3-[(2R,3S)-4-[(3S,4aS,8aS)-3-(tert-butylcarbamoyl)-3,4,4a,5,6,7,8,8a-octahydro-1H-isoquinolin-2-yl]-3-oxidanyl-1-phenylsulfanyl-butan-2-yl]-N1,4-dimethyl-N1-(pyridin-2-ylmethyl)benzene-1,3-dicarboxamide
> <PUBCHEM_IUPAC_TRADITIONAL_NAME>
N'-[(1R,2S)-3-[(3S,4aS,8aS)-3-(tert-butylcarbamoyl)-3,4,4a,5,6,7,8,8a-octahydro-1H-isoquinolin-2-yl]-2-hydroxy-1-[(phenylthio)methyl]propyl]-N,4-dimethyl-N-(2-pyridylmethyl)isophthalamide
> <PUBCHEM_IUPAC_INCHI>
InChI=1S/C40H53N5O4S/c1-27-18-19-29(39(49)44(5)24-31-15-11-12-20-41-31)21-33(27)37(47)42-34(26-50-32-16-7-6-8-17-32)36(46)25-45-23-30-14-10-9-13-28(30)22-35(45)38(48)43-40(2,3)4/h6-8,11-12,15-21,28,30,34-36,46H,9-10,13-14,22-26H2,1-5H3,(H,42,47)(H,43,48)/t28-,30+,34-,35-,36-/m0/s1
> <PUBCHEM_IUPAC_INCHIKEY>
ACOQRLTVCDCXPA-KMNWBSHKSA-N
> <PUBCHEM_XLOGP3_AA>
5.9
> <PUBCHEM_EXACT_MASS>
699.38182636
> <PUBCHEM_MOLECULAR_FORMULA>
C40H53N5O4S
> <PUBCHEM_MOLECULAR_WEIGHT>
699.9
> <PUBCHEM_OPENEYE_CAN_SMILES>
CC1=C(C=C(C=C1)C(=O)N(C)CC2=CC=CC=N2)C(=O)NC(CSC3=CC=CC=C3)C(CN4CC5CCCCC5CC4C(=O)NC(C)(C)C)O
> <PUBCHEM_OPENEYE_ISO_SMILES>
CC1=C(C=C(C=C1)C(=O)N(C)CC2=CC=CC=N2)C(=O)N[C@@H](CSC3=CC=CC=C3)[C@H](CN4C[C@H]5CCCC[C@H]5C[C@H]4C(=O)NC(C)(C)C)O
> <PUBCHEM_CACTVS_TPSA>
140
> <PUBCHEM_MONOISOTOPIC_WEIGHT>
699.38182636
> <PUBCHEM_TOTAL_CHARGE>
0
> <PUBCHEM_HEAVY_ATOM_COUNT>
50
> <PUBCHEM_ATOM_DEF_STEREO_COUNT>
5
> <PUBCHEM_ATOM_UDEF_STEREO_COUNT>
0
> <PUBCHEM_BOND_DEF_STEREO_COUNT>
0
> <PUBCHEM_BOND_UDEF_STEREO_COUNT>
0
> <PUBCHEM_ISOTOPIC_ATOM_COUNT>
0
> <PUBCHEM_COMPONENT_COUNT>
1
> <PUBCHEM_CACTVS_TAUTO_COUNT>
-1
> <PUBCHEM_COORDINATE_TYPE>
1
5
255
> <PUBCHEM_BONDANNOTATIONS>
10  46  8
10  49  8
11  51  6
12  52  6
17  21  5
22  3  5
30  32  8
30  33  8
31  34  8
31  35  8
32  37  8
33  36  8
34  39  8
35  40  8
36  41  8
37  41  8
39  42  8
40  42  8
46  47  8
47  48  8
48  50  8
49  50  8
23  8  6
$$$$
