508231
  -OEChem-10302200282D
155156  0     1  0  0  0  0  0999 V2000
    3.1590   -1.2262    0.0000 S   0  0  0  0  0  0  0  0  0  0  0  0
    3.9957    2.0256    0.0000 Si  0  0  0  0  0  0  0  0  0  0  0  0
    6.7591    3.0436    0.0000 Si  0  0  0  0  0  0  0  0  0  0  0  0
    7.7238   -2.8817    0.0000 Si  0  0  0  0  0  0  0  0  0  0  0  0
   11.8884   -2.8817    0.0000 Si  0  0  0  0  0  0  0  0  0  0  0  0
    6.0780   -0.2178    0.0000 O   0  0  0  0  0  0  0  0  0  0  0  0
    4.9902    2.1301    0.0000 O   0  0  0  0  0  0  0  0  0  0  0  0
    7.1658    2.1301    0.0000 O   0  0  0  0  0  0  0  0  0  0  0  0
    8.7183   -2.9862    0.0000 O   0  0  0  0  0  0  0  0  0  0  0  0
    9.8061   -0.6384    0.0000 O   0  0  0  0  0  0  0  0  0  0  0  0
   10.8939   -2.9862    0.0000 O   0  0  0  0  0  0  0  0  0  0  0  0
    7.8381    0.0610    0.0000 O   0  0  0  0  0  0  0  0  0  0  0  0
   11.5661   -0.9171    0.0000 O   0  0  0  0  0  0  0  0  0  0  0  0
    3.4680   -2.1772    0.0000 O   0  0  0  0  0  0  0  0  0  0  0  0
    2.8500   -0.2751    0.0000 O   0  0  0  0  0  0  0  0  0  0  0  0
    4.1100   -0.9171    0.0000 N   0  0  0  0  0  0  0  0  0  0  0  0
    5.5780    1.3211    0.0000 C   0  0  1  0  0  0  0  0  0  0  0  0
    6.5780    1.3211    0.0000 C   0  0  1  0  0  0  0  0  0  0  0  0
    9.3061   -2.1772    0.0000 C   0  0  1  0  0  0  0  0  0  0  0  0
   10.3061   -2.1772    0.0000 C   0  0  1  0  0  0  0  0  0  0  0  0
    8.9970   -1.2262    0.0000 C   0  0  1  0  0  0  0  0  0  0  0  0
    5.2690    0.3700    0.0000 C   0  0  1  0  0  0  0  0  0  0  0  0
    6.8870    0.3700    0.0000 C   0  0  2  0  0  0  0  0  0  0  0  0
   10.6151   -1.2262    0.0000 C   0  0  2  0  0  0  0  0  0  0  0  0
    8.0460   -0.9171    0.0000 C   0  0  0  0  0  0  0  0  0  0  0  0
    3.0012    1.9210    0.0000 C   0  0  0  0  0  0  0  0  0  0  0  0
    6.3523    3.9572    0.0000 C   0  0  0  0  0  0  0  0  0  0  0  0
    7.6192   -3.8762    0.0000 C   0  0  0  0  0  0  0  0  0  0  0  0
   12.8829   -2.7772    0.0000 C   0  0  0  0  0  0  0  0  0  0  0  0
    4.3179    0.0610    0.0000 C   0  0  0  0  0  0  0  0  0  0  0  0
    3.8912    3.0201    0.0000 C   0  0  0  0  0  0  0  0  0  0  0  0
    4.1002    1.0310    0.0000 C   0  0  0  0  0  0  0  0  0  0  0  0
    7.6726    3.4504    0.0000 C   0  0  0  0  0  0  0  0  0  0  0  0
    5.8455    2.6369    0.0000 C   0  0  0  0  0  0  0  0  0  0  0  0
    6.7292   -2.7772    0.0000 C   0  0  0  0  0  0  0  0  0  0  0  0
    7.8283   -1.8872    0.0000 C   0  0  0  0  0  0  0  0  0  0  0  0
   11.9929   -3.8762    0.0000 C   0  0  0  0  0  0  0  0  0  0  0  0
   11.7838   -1.8872    0.0000 C   0  0  0  0  0  0  0  0  0  0  0  0
    2.0067    1.8165    0.0000 C   0  0  0  0  0  0  0  0  0  0  0  0
    2.8966    2.9156    0.0000 C   0  0  0  0  0  0  0  0  0  0  0  0
    3.1057    0.9265    0.0000 C   0  0  0  0  0  0  0  0  0  0  0  0
    5.9456    4.8707    0.0000 C   0  0  0  0  0  0  0  0  0  0  0  0
    7.2659    4.3639    0.0000 C   0  0  0  0  0  0  0  0  0  0  0  0
    5.4388    3.5505    0.0000 C   0  0  0  0  0  0  0  0  0  0  0  0
    7.5147   -4.8707    0.0000 C   0  0  0  0  0  0  0  0  0  0  0  0
    6.6247   -3.7717    0.0000 C   0  0  0  0  0  0  0  0  0  0  0  0
    8.6138   -3.9808    0.0000 C   0  0  0  0  0  0  0  0  0  0  0  0
   13.8774   -2.6726    0.0000 C   0  0  0  0  0  0  0  0  0  0  0  0
   12.9874   -3.7717    0.0000 C   0  0  0  0  0  0  0  0  0  0  0  0
   12.7784   -1.7826    0.0000 C   0  0  0  0  0  0  0  0  0  0  0  0
   11.7741    0.0610    0.0000 C   0  0  0  0  0  0  0  0  0  0  0  0
   12.7251    0.3700    0.0000 C   0  0  0  0  0  0  0  0  0  0  0  0
    2.2079   -1.5352    0.0000 C   0  0  0  0  0  0  0  0  0  0  0  0
   12.9330    1.3482    0.0000 C   0  0  0  0  0  0  0  0  0  0  0  0
   13.8841    1.6572    0.0000 C   0  0  0  0  0  0  0  0  0  0  0  0
    2.0000   -2.5133    0.0000 C   0  0  0  0  0  0  0  0  0  0  0  0
   14.0920    2.6353    0.0000 C   0  0  0  0  0  0  0  0  0  0  0  0
   15.0430    2.9444    0.0000 C   0  0  0  0  0  0  0  0  0  0  0  0
   15.2510    3.9225    0.0000 C   0  0  0  0  0  0  0  0  0  0  0  0
   16.2020    4.2315    0.0000 C   0  0  0  0  0  0  0  0  0  0  0  0
    5.8595    1.8735    0.0000 H   0  0  0  0  0  0  0  0  0  0  0  0
    7.1904    1.2241    0.0000 H   0  0  0  0  0  0  0  0  0  0  0  0
    8.6937   -2.0802    0.0000 H   0  0  0  0  0  0  0  0  0  0  0  0
   10.0246   -2.7296    0.0000 H   0  0  0  0  0  0  0  0  0  0  0  0
    8.9001   -0.6138    0.0000 H   0  0  0  0  0  0  0  0  0  0  0  0
    5.1720   -0.2423    0.0000 H   0  0  0  0  0  0  0  0  0  0  0  0
    6.9840   -0.2423    0.0000 H   0  0  0  0  0  0  0  0  0  0  0  0
   11.0535   -1.6646    0.0000 H   0  0  0  0  0  0  0  0  0  0  0  0
    7.4264   -0.9388    0.0000 H   0  0  0  0  0  0  0  0  0  0  0  0
    7.9597   -1.5311    0.0000 H   0  0  0  0  0  0  0  0  0  0  0  0
    4.2316    0.6750    0.0000 H   0  0  0  0  0  0  0  0  0  0  0  0
    3.6983    0.0827    0.0000 H   0  0  0  0  0  0  0  0  0  0  0  0
    4.5078    3.0849    0.0000 H   0  0  0  0  0  0  0  0  0  0  0  0
    3.8264    3.6367    0.0000 H   0  0  0  0  0  0  0  0  0  0  0  0
    3.2746    2.9553    0.0000 H   0  0  0  0  0  0  0  0  0  0  0  0
    3.4836    0.9662    0.0000 H   0  0  0  0  0  0  0  0  0  0  0  0
    4.1650    0.4144    0.0000 H   0  0  0  0  0  0  0  0  0  0  0  0
    4.7168    1.0959    0.0000 H   0  0  0  0  0  0  0  0  0  0  0  0
    7.9248    2.8840    0.0000 H   0  0  0  0  0  0  0  0  0  0  0  0
    8.2390    3.7026    0.0000 H   0  0  0  0  0  0  0  0  0  0  0  0
    7.4204    4.0168    0.0000 H   0  0  0  0  0  0  0  0  0  0  0  0
    5.5933    3.2033    0.0000 H   0  0  0  0  0  0  0  0  0  0  0  0
    5.2791    2.3847    0.0000 H   0  0  0  0  0  0  0  0  0  0  0  0
    6.0977    2.0705    0.0000 H   0  0  0  0  0  0  0  0  0  0  0  0
    6.7940   -2.1606    0.0000 H   0  0  0  0  0  0  0  0  0  0  0  0
    6.1126   -2.7124    0.0000 H   0  0  0  0  0  0  0  0  0  0  0  0
    6.6644   -3.3938    0.0000 H   0  0  0  0  0  0  0  0  0  0  0  0
    8.4449   -1.9520    0.0000 H   0  0  0  0  0  0  0  0  0  0  0  0
    7.8931   -1.2706    0.0000 H   0  0  0  0  0  0  0  0  0  0  0  0
    7.2117   -1.8224    0.0000 H   0  0  0  0  0  0  0  0  0  0  0  0
   11.3763   -3.9410    0.0000 H   0  0  0  0  0  0  0  0  0  0  0  0
   12.0577   -4.4928    0.0000 H   0  0  0  0  0  0  0  0  0  0  0  0
   12.6095   -3.8114    0.0000 H   0  0  0  0  0  0  0  0  0  0  0  0
   12.4005   -1.8224    0.0000 H   0  0  0  0  0  0  0  0  0  0  0  0
   11.7190   -1.2706    0.0000 H   0  0  0  0  0  0  0  0  0  0  0  0
   11.1672   -1.9520    0.0000 H   0  0  0  0  0  0  0  0  0  0  0  0
    1.9418    2.4331    0.0000 H   0  0  0  0  0  0  0  0  0  0  0  0
    1.3901    1.7517    0.0000 H   0  0  0  0  0  0  0  0  0  0  0  0
    2.0715    1.1999    0.0000 H   0  0  0  0  0  0  0  0  0  0  0  0
    3.5133    2.9804    0.0000 H   0  0  0  0  0  0  0  0  0  0  0  0
    2.8319    3.5322    0.0000 H   0  0  0  0  0  0  0  0  0  0  0  0
    2.2800    2.8508    0.0000 H   0  0  0  0  0  0  0  0  0  0  0  0
    2.4891    0.8617    0.0000 H   0  0  0  0  0  0  0  0  0  0  0  0
    3.1705    0.3099    0.0000 H   0  0  0  0  0  0  0  0  0  0  0  0
    3.7223    0.9913    0.0000 H   0  0  0  0  0  0  0  0  0  0  0  0
    6.5120    5.1229    0.0000 H   0  0  0  0  0  0  0  0  0  0  0  0
    5.6934    5.4371    0.0000 H   0  0  0  0  0  0  0  0  0  0  0  0
    5.3792    4.6186    0.0000 H   0  0  0  0  0  0  0  0  0  0  0  0
    7.5180    3.7975    0.0000 H   0  0  0  0  0  0  0  0  0  0  0  0
    7.8323    4.6161    0.0000 H   0  0  0  0  0  0  0  0  0  0  0  0
    7.0137    4.9303    0.0000 H   0  0  0  0  0  0  0  0  0  0  0  0
    5.1866    4.1169    0.0000 H   0  0  0  0  0  0  0  0  0  0  0  0
    4.8724    3.2983    0.0000 H   0  0  0  0  0  0  0  0  0  0  0  0
    5.6910    2.9841    0.0000 H   0  0  0  0  0  0  0  0  0  0  0  0
    6.8981   -4.8059    0.0000 H   0  0  0  0  0  0  0  0  0  0  0  0
    7.4499   -5.4873    0.0000 H   0  0  0  0  0  0  0  0  0  0  0  0
    8.1313   -4.9356    0.0000 H   0  0  0  0  0  0  0  0  0  0  0  0
    6.6895   -3.1551    0.0000 H   0  0  0  0  0  0  0  0  0  0  0  0
    6.0081   -3.7069    0.0000 H   0  0  0  0  0  0  0  0  0  0  0  0
    6.5599   -4.3883    0.0000 H   0  0  0  0  0  0  0  0  0  0  0  0
    8.5490   -4.5973    0.0000 H   0  0  0  0  0  0  0  0  0  0  0  0
    9.2304   -4.0456    0.0000 H   0  0  0  0  0  0  0  0  0  0  0  0
    8.6786   -3.3641    0.0000 H   0  0  0  0  0  0  0  0  0  0  0  0
   13.9422   -3.2892    0.0000 H   0  0  0  0  0  0  0  0  0  0  0  0
   14.4940   -2.6078    0.0000 H   0  0  0  0  0  0  0  0  0  0  0  0
   13.8126   -2.0560    0.0000 H   0  0  0  0  0  0  0  0  0  0  0  0
   12.3708   -3.8365    0.0000 H   0  0  0  0  0  0  0  0  0  0  0  0
   13.0522   -4.3883    0.0000 H   0  0  0  0  0  0  0  0  0  0  0  0
   13.6040   -3.7069    0.0000 H   0  0  0  0  0  0  0  0  0  0  0  0
   13.3950   -1.7178    0.0000 H   0  0  0  0  0  0  0  0  0  0  0  0
   12.7136   -1.1660    0.0000 H   0  0  0  0  0  0  0  0  0  0  0  0
   12.1618   -1.8474    0.0000 H   0  0  0  0  0  0  0  0  0  0  0  0
    4.5708   -1.3320    0.0000 H   0  0  0  0  0  0  0  0  0  0  0  0
   11.6878    0.6750    0.0000 H   0  0  0  0  0  0  0  0  0  0  0  0
   11.1544    0.0827    0.0000 H   0  0  0  0  0  0  0  0  0  0  0  0
   12.8114   -0.2439    0.0000 H   0  0  0  0  0  0  0  0  0  0  0  0
   13.3447    0.3484    0.0000 H   0  0  0  0  0  0  0  0  0  0  0  0
    2.1216   -0.9212    0.0000 H   0  0  0  0  0  0  0  0  0  0  0  0
    1.5883   -1.5135    0.0000 H   0  0  0  0  0  0  0  0  0  0  0  0
   12.8467    1.9621    0.0000 H   0  0  0  0  0  0  0  0  0  0  0  0
   12.3134    1.3698    0.0000 H   0  0  0  0  0  0  0  0  0  0  0  0
   13.9704    1.0432    0.0000 H   0  0  0  0  0  0  0  0  0  0  0  0
   14.5037    1.6356    0.0000 H   0  0  0  0  0  0  0  0  0  0  0  0
    1.3936   -2.3844    0.0000 H   0  0  0  0  0  0  0  0  0  0  0  0
    1.8711   -3.1198    0.0000 H   0  0  0  0  0  0  0  0  0  0  0  0
    2.6064   -2.6422    0.0000 H   0  0  0  0  0  0  0  0  0  0  0  0
   14.0057    3.2493    0.0000 H   0  0  0  0  0  0  0  0  0  0  0  0
   13.4724    2.6570    0.0000 H   0  0  0  0  0  0  0  0  0  0  0  0
   15.1293    2.3304    0.0000 H   0  0  0  0  0  0  0  0  0  0  0  0
   15.6627    2.9227    0.0000 H   0  0  0  0  0  0  0  0  0  0  0  0
   15.1647    4.5365    0.0000 H   0  0  0  0  0  0  0  0  0  0  0  0
   14.6313    3.9441    0.0000 H   0  0  0  0  0  0  0  0  0  0  0  0
   16.3936    3.6419    0.0000 H   0  0  0  0  0  0  0  0  0  0  0  0
   16.7917    4.4231    0.0000 H   0  0  0  0  0  0  0  0  0  0  0  0
   16.0104    4.8212    0.0000 H   0  0  0  0  0  0  0  0  0  0  0  0
  1 14  2  0  0  0  0
  1 15  2  0  0  0  0
  1 16  1  0  0  0  0
  1 53  1  0  0  0  0
  2  7  1  0  0  0  0
  2 26  1  0  0  0  0
  2 31  1  0  0  0  0
  2 32  1  0  0  0  0
  3  8  1  0  0  0  0
  3 27  1  0  0  0  0
  3 33  1  0  0  0  0
  3 34  1  0  0  0  0
  4  9  1  0  0  0  0
  4 28  1  0  0  0  0
  4 35  1  0  0  0  0
  4 36  1  0  0  0  0
  5 11  1  0  0  0  0
  5 29  1  0  0  0  0
  5 37  1  0  0  0  0
  5 38  1  0  0  0  0
  6 22  1  0  0  0  0
  6 23  1  0  0  0  0
 17  7  1  1  0  0  0
 18  8  1  6  0  0  0
 19  9  1  6  0  0  0
 10 21  1  0  0  0  0
 10 24  1  0  0  0  0
 20 11  1  1  0  0  0
 23 12  1  1  0  0  0
 12 25  1  0  0  0  0
 24 13  1  6  0  0  0
 13 51  1  0  0  0  0
 16 30  1  0  0  0  0
 16133  1  0  0  0  0
 17 18  1  0  0  0  0
 17 22  1  0  0  0  0
 17 61  1  0  0  0  0
 18 23  1  0  0  0  0
 18 62  1  0  0  0  0
 19 20  1  0  0  0  0
 19 21  1  0  0  0  0
 19 63  1  0  0  0  0
 20 24  1  0  0  0  0
 20 64  1  0  0  0  0
 21 25  1  1  0  0  0
 21 65  1  0  0  0  0
 22 30  1  6  0  0  0
 22 66  1  0  0  0  0
 23 67  1  0  0  0  0
 24 68  1  0  0  0  0
 25 69  1  0  0  0  0
 25 70  1  0  0  0  0
 26 39  1  0  0  0  0
 26 40  1  0  0  0  0
 26 41  1  0  0  0  0
 27 42  1  0  0  0  0
 27 43  1  0  0  0  0
 27 44  1  0  0  0  0
 28 45  1  0  0  0  0
 28 46  1  0  0  0  0
 28 47  1  0  0  0  0
 29 48  1  0  0  0  0
 29 49  1  0  0  0  0
 29 50  1  0  0  0  0
 30 71  1  0  0  0  0
 30 72  1  0  0  0  0
 31 73  1  0  0  0  0
 31 74  1  0  0  0  0
 31 75  1  0  0  0  0
 32 76  1  0  0  0  0
 32 77  1  0  0  0  0
 32 78  1  0  0  0  0
 33 79  1  0  0  0  0
 33 80  1  0  0  0  0
 33 81  1  0  0  0  0
 34 82  1  0  0  0  0
 34 83  1  0  0  0  0
 34 84  1  0  0  0  0
 35 85  1  0  0  0  0
 35 86  1  0  0  0  0
 35 87  1  0  0  0  0
 36 88  1  0  0  0  0
 36 89  1  0  0  0  0
 36 90  1  0  0  0  0
 37 91  1  0  0  0  0
 37 92  1  0  0  0  0
 37 93  1  0  0  0  0
 38 94  1  0  0  0  0
 38 95  1  0  0  0  0
 38 96  1  0  0  0  0
 39 97  1  0  0  0  0
 39 98  1  0  0  0  0
 39 99  1  0  0  0  0
 40100  1  0  0  0  0
 40101  1  0  0  0  0
 40102  1  0  0  0  0
 41103  1  0  0  0  0
 41104  1  0  0  0  0
 41105  1  0  0  0  0
 42106  1  0  0  0  0
 42107  1  0  0  0  0
 42108  1  0  0  0  0
 43109  1  0  0  0  0
 43110  1  0  0  0  0
 43111  1  0  0  0  0
 44112  1  0  0  0  0
 44113  1  0  0  0  0
 44114  1  0  0  0  0
 45115  1  0  0  0  0
 45116  1  0  0  0  0
 45117  1  0  0  0  0
 46118  1  0  0  0  0
 46119  1  0  0  0  0
 46120  1  0  0  0  0
 47121  1  0  0  0  0
 47122  1  0  0  0  0
 47123  1  0  0  0  0
 48124  1  0  0  0  0
 48125  1  0  0  0  0
 48126  1  0  0  0  0
 49127  1  0  0  0  0
 49128  1  0  0  0  0
 49129  1  0  0  0  0
 50130  1  0  0  0  0
 50131  1  0  0  0  0
 50132  1  0  0  0  0
 51 52  1  0  0  0  0
 51134  1  0  0  0  0
 51135  1  0  0  0  0
 52 54  1  0  0  0  0
 52136  1  0  0  0  0
 52137  1  0  0  0  0
 53 56  1  0  0  0  0
 53138  1  0  0  0  0
 53139  1  0  0  0  0
 54 55  1  0  0  0  0
 54140  1  0  0  0  0
 54141  1  0  0  0  0
 55 57  1  0  0  0  0
 55142  1  0  0  0  0
 55143  1  0  0  0  0
 56144  1  0  0  0  0
 56145  1  0  0  0  0
 56146  1  0  0  0  0
 57 58  1  0  0  0  0
 57147  1  0  0  0  0
 57148  1  0  0  0  0
 58 59  1  0  0  0  0
 58149  1  0  0  0  0
 58150  1  0  0  0  0
 59 60  1  0  0  0  0
 59151  1  0  0  0  0
 59152  1  0  0  0  0
 60153  1  0  0  0  0
 60154  1  0  0  0  0
 60155  1  0  0  0  0
M  END
> <PUBCHEM_COMPOUND_CID>
508231
> <PUBCHEM_COMPOUND_CANONICALIZED>
1
> <PUBCHEM_CACTVS_COMPLEXITY>
1410
> <PUBCHEM_CACTVS_HBOND_ACCEPTOR>
11
> <PUBCHEM_CACTVS_HBOND_DONOR>
1
> <PUBCHEM_CACTVS_ROTATABLE_BOND>
27
> <PUBCHEM_CACTVS_SUBSKEYS>
AAADcfB+PAxAAAAAAAAAAAAAAAAAASJAAAAAAAAAAAAAAAAAAAAAHhQQQEAADBT14AfCCABABAMAAAAAAHBAAAAAAAAAAIAAAAATAAIAgAAjAAAHEAAGAAHw8KgAAAAAAAAAAAAAAAAAAAAAAAAAAAAAAA==
> <PUBCHEM_IUPAC_OPENEYE_NAME>
N-[[(2R,3R,4S,5S)-5-[[(2R,3R,4S,5S)-3,4-bis[[tert-butyl(dimethyl)silyl]oxy]-5-octoxy-tetrahydrofuran-2-yl]methoxy]-3,4-bis[[tert-butyl(dimethyl)silyl]oxy]tetrahydrofuran-2-yl]methyl]ethanesulfonamide
> <PUBCHEM_IUPAC_CAS_NAME>
N-[[(2R,3R,4S,5S)-5-[[(2R,3R,4S,5S)-3,4-bis[[tert-butyl(dimethyl)silyl]oxy]-5-octoxy-2-oxolanyl]methoxy]-3,4-bis[[tert-butyl(dimethyl)silyl]oxy]-2-oxolanyl]methyl]ethanesulfonamide
> <PUBCHEM_IUPAC_NAME_MARKUP>
<I>N</I>-[[(2<I>R</I>,3<I>R</I>,4<I>S</I>,5<I>S</I>)-5-[[(2<I>R</I>,3<I>R</I>,4<I>S</I>,5<I>S</I>)-3,4-bis[[<I>tert</I>-butyl(dimethyl)silyl]oxy]-5-octoxyoxolan-2-yl]methoxy]-3,4-bis[[<I>tert</I>-butyl(dimethyl)silyl]oxy]oxolan-2-yl]methyl]ethanesulfonamide
> <PUBCHEM_IUPAC_NAME>
N-[[(2R,3R,4S,5S)-5-[[(2R,3R,4S,5S)-3,4-bis[[tert-butyl(dimethyl)silyl]oxy]-5-octoxyoxolan-2-yl]methoxy]-3,4-bis[[tert-butyl(dimethyl)silyl]oxy]oxolan-2-yl]methyl]ethanesulfonamide
> <PUBCHEM_IUPAC_SYSTEMATIC_NAME>
N-[[(2R,3R,4S,5S)-5-[[(2R,3R,4S,5S)-3,4-bis[[tert-butyl(dimethyl)silyl]oxy]-5-octoxy-oxolan-2-yl]methoxy]-3,4-bis[[tert-butyl(dimethyl)silyl]oxy]oxolan-2-yl]methyl]ethanesulfonamide
> <PUBCHEM_IUPAC_TRADITIONAL_NAME>
N-[[(2R,3R,4S,5S)-5-[[(2R,3R,4S,5S)-3,4-bis[[tert-butyl(dimethyl)silyl]oxy]-5-octoxy-tetrahydrofuran-2-yl]methoxy]-3,4-bis[[tert-butyl(dimethyl)silyl]oxy]tetrahydrofuran-2-yl]methyl]ethanesulfonamide
> <PUBCHEM_IUPAC_INCHI>
InChI=1S/C44H95NO10SSi4/c1-23-25-26-27-28-29-30-48-39-38(55-60(21,22)44(12,13)14)36(53-58(17,18)42(6,7)8)34(51-39)32-49-40-37(54-59(19,20)43(9,10)11)35(52-57(15,16)41(3,4)5)33(50-40)31-45-56(46,47)24-2/h33-40,45H,23-32H2,1-22H3/t33-,34-,35-,36-,37+,38+,39+,40+/m1/s1
> <PUBCHEM_IUPAC_INCHIKEY>
VOWMKUMHJMZWAJ-HKAQGKEBSA-N
> <PUBCHEM_EXACT_MASS>
941.57537554
> <PUBCHEM_MOLECULAR_FORMULA>
C44H95NO10SSi4
> <PUBCHEM_MOLECULAR_WEIGHT>
942.6
> <PUBCHEM_OPENEYE_CAN_SMILES>
CCCCCCCCOC1C(C(C(O1)COC2C(C(C(O2)CNS(=O)(=O)CC)O[Si](C)(C)C(C)(C)C)O[Si](C)(C)C(C)(C)C)O[Si](C)(C)C(C)(C)C)O[Si](C)(C)C(C)(C)C
> <PUBCHEM_OPENEYE_ISO_SMILES>
CCCCCCCCO[C@@H]1[C@H]([C@@H]([C@H](O1)CO[C@@H]2[C@H]([C@@H]([C@H](O2)CNS(=O)(=O)CC)O[Si](C)(C)C(C)(C)C)O[Si](C)(C)C(C)(C)C)O[Si](C)(C)C(C)(C)C)O[Si](C)(C)C(C)(C)C
> <PUBCHEM_CACTVS_TPSA>
128
> <PUBCHEM_MONOISOTOPIC_WEIGHT>
941.57537554
> <PUBCHEM_TOTAL_CHARGE>
0
> <PUBCHEM_HEAVY_ATOM_COUNT>
60
> <PUBCHEM_ATOM_DEF_STEREO_COUNT>
8
> <PUBCHEM_ATOM_UDEF_STEREO_COUNT>
0
> <PUBCHEM_BOND_DEF_STEREO_COUNT>
0
> <PUBCHEM_BOND_UDEF_STEREO_COUNT>
0
> <PUBCHEM_ISOTOPIC_ATOM_COUNT>
0
> <PUBCHEM_COMPONENT_COUNT>
1
> <PUBCHEM_CACTVS_TAUTO_COUNT>
-1
> <PUBCHEM_COORDINATE_TYPE>
1
5
255
> <PUBCHEM_BONDANNOTATIONS>
20  11  5
23  12  5
24  13  6
21  25  5
22  30  6
17  7  5
18  8  6
19  9  6
$$$$
