508233
  -OEChem-10302200282D
162164  0     1  0  0  0  0  0999 V2000
    5.8042   -1.2262    0.0000 S   0  0  0  0  0  0  0  0  0  0  0  0
    6.6410    2.0256    0.0000 Si  0  0  0  0  0  0  0  0  0  0  0  0
    9.4043    3.0436    0.0000 Si  0  0  0  0  0  0  0  0  0  0  0  0
   10.3690   -2.8817    0.0000 Si  0  0  0  0  0  0  0  0  0  0  0  0
   14.5336   -2.8817    0.0000 Si  0  0  0  0  0  0  0  0  0  0  0  0
    8.7233   -0.2178    0.0000 O   0  0  0  0  0  0  0  0  0  0  0  0
    7.6355    2.1301    0.0000 O   0  0  0  0  0  0  0  0  0  0  0  0
    9.8110    2.1301    0.0000 O   0  0  0  0  0  0  0  0  0  0  0  0
   11.3635   -2.9862    0.0000 O   0  0  0  0  0  0  0  0  0  0  0  0
   12.4513   -0.6384    0.0000 O   0  0  0  0  0  0  0  0  0  0  0  0
   13.5391   -2.9862    0.0000 O   0  0  0  0  0  0  0  0  0  0  0  0
   10.4833    0.0610    0.0000 O   0  0  0  0  0  0  0  0  0  0  0  0
   14.2114   -0.9171    0.0000 O   0  0  0  0  0  0  0  0  0  0  0  0
    6.1132   -2.1772    0.0000 O   0  0  0  0  0  0  0  0  0  0  0  0
    5.4952   -0.2751    0.0000 O   0  0  0  0  0  0  0  0  0  0  0  0
    6.7553   -0.9171    0.0000 N   0  0  0  0  0  0  0  0  0  0  0  0
    8.2233    1.3211    0.0000 C   0  0  1  0  0  0  0  0  0  0  0  0
    9.2233    1.3211    0.0000 C   0  0  1  0  0  0  0  0  0  0  0  0
   11.9513   -2.1772    0.0000 C   0  0  1  0  0  0  0  0  0  0  0  0
   12.9513   -2.1772    0.0000 C   0  0  1  0  0  0  0  0  0  0  0  0
   11.6423   -1.2262    0.0000 C   0  0  1  0  0  0  0  0  0  0  0  0
    7.9142    0.3700    0.0000 C   0  0  1  0  0  0  0  0  0  0  0  0
    9.5323    0.3700    0.0000 C   0  0  2  0  0  0  0  0  0  0  0  0
   13.2603   -1.2262    0.0000 C   0  0  2  0  0  0  0  0  0  0  0  0
   10.6913   -0.9171    0.0000 C   0  0  0  0  0  0  0  0  0  0  0  0
    5.6464    1.9210    0.0000 C   0  0  0  0  0  0  0  0  0  0  0  0
    8.9976    3.9572    0.0000 C   0  0  0  0  0  0  0  0  0  0  0  0
   10.2645   -3.8762    0.0000 C   0  0  0  0  0  0  0  0  0  0  0  0
   15.5282   -2.7772    0.0000 C   0  0  0  0  0  0  0  0  0  0  0  0
    6.9632    0.0610    0.0000 C   0  0  0  0  0  0  0  0  0  0  0  0
    6.5364    3.0201    0.0000 C   0  0  0  0  0  0  0  0  0  0  0  0
    6.7455    1.0310    0.0000 C   0  0  0  0  0  0  0  0  0  0  0  0
   10.3179    3.4504    0.0000 C   0  0  0  0  0  0  0  0  0  0  0  0
    8.4908    2.6369    0.0000 C   0  0  0  0  0  0  0  0  0  0  0  0
    9.3745   -2.7772    0.0000 C   0  0  0  0  0  0  0  0  0  0  0  0
   10.4735   -1.8872    0.0000 C   0  0  0  0  0  0  0  0  0  0  0  0
   14.6382   -3.8762    0.0000 C   0  0  0  0  0  0  0  0  0  0  0  0
   14.4291   -1.8872    0.0000 C   0  0  0  0  0  0  0  0  0  0  0  0
    4.6519    1.8165    0.0000 C   0  0  0  0  0  0  0  0  0  0  0  0
    5.5419    2.9156    0.0000 C   0  0  0  0  0  0  0  0  0  0  0  0
    5.7510    0.9265    0.0000 C   0  0  0  0  0  0  0  0  0  0  0  0
    8.5908    4.8707    0.0000 C   0  0  0  0  0  0  0  0  0  0  0  0
    9.9111    4.3639    0.0000 C   0  0  0  0  0  0  0  0  0  0  0  0
    8.0840    3.5505    0.0000 C   0  0  0  0  0  0  0  0  0  0  0  0
   10.1600   -4.8707    0.0000 C   0  0  0  0  0  0  0  0  0  0  0  0
    9.2700   -3.7717    0.0000 C   0  0  0  0  0  0  0  0  0  0  0  0
   11.2590   -3.9808    0.0000 C   0  0  0  0  0  0  0  0  0  0  0  0
   16.5227   -2.6726    0.0000 C   0  0  0  0  0  0  0  0  0  0  0  0
   15.6327   -3.7717    0.0000 C   0  0  0  0  0  0  0  0  0  0  0  0
   15.4236   -1.7826    0.0000 C   0  0  0  0  0  0  0  0  0  0  0  0
   14.4193    0.0610    0.0000 C   0  0  0  0  0  0  0  0  0  0  0  0
   15.3704    0.3700    0.0000 C   0  0  0  0  0  0  0  0  0  0  0  0
   15.5783    1.3482    0.0000 C   0  0  0  0  0  0  0  0  0  0  0  0
    4.8532   -1.5352    0.0000 C   0  0  0  0  0  0  0  0  0  0  0  0
   16.5293    1.6572    0.0000 C   0  0  0  0  0  0  0  0  0  0  0  0
    4.1100   -0.8660    0.0000 C   0  0  0  0  0  0  0  0  0  0  0  0
    4.6453   -2.5133    0.0000 C   0  0  0  0  0  0  0  0  0  0  0  0
   16.7372    2.6353    0.0000 C   0  0  0  0  0  0  0  0  0  0  0  0
   17.6883    2.9444    0.0000 C   0  0  0  0  0  0  0  0  0  0  0  0
    3.1590   -1.1750    0.0000 C   0  0  0  0  0  0  0  0  0  0  0  0
    3.6942   -2.8223    0.0000 C   0  0  0  0  0  0  0  0  0  0  0  0
    2.9511   -2.1532    0.0000 C   0  0  0  0  0  0  0  0  0  0  0  0
   17.8962    3.9225    0.0000 C   0  0  0  0  0  0  0  0  0  0  0  0
    2.0000   -2.4622    0.0000 C   0  0  0  0  0  0  0  0  0  0  0  0
   18.8473    4.2315    0.0000 C   0  0  0  0  0  0  0  0  0  0  0  0
    7.6109    1.2241    0.0000 H   0  0  0  0  0  0  0  0  0  0  0  0
    8.9418    1.8735    0.0000 H   0  0  0  0  0  0  0  0  0  0  0  0
   11.3390   -2.0802    0.0000 H   0  0  0  0  0  0  0  0  0  0  0  0
   12.6699   -2.7296    0.0000 H   0  0  0  0  0  0  0  0  0  0  0  0
   11.5453   -0.6138    0.0000 H   0  0  0  0  0  0  0  0  0  0  0  0
    7.8173   -0.2423    0.0000 H   0  0  0  0  0  0  0  0  0  0  0  0
    9.9707    0.8084    0.0000 H   0  0  0  0  0  0  0  0  0  0  0  0
   13.6987   -1.6646    0.0000 H   0  0  0  0  0  0  0  0  0  0  0  0
   10.0716   -0.9388    0.0000 H   0  0  0  0  0  0  0  0  0  0  0  0
   10.6050   -1.5311    0.0000 H   0  0  0  0  0  0  0  0  0  0  0  0
    6.8769    0.6750    0.0000 H   0  0  0  0  0  0  0  0  0  0  0  0
    6.3436    0.0827    0.0000 H   0  0  0  0  0  0  0  0  0  0  0  0
    7.1530    3.0849    0.0000 H   0  0  0  0  0  0  0  0  0  0  0  0
    6.4716    3.6367    0.0000 H   0  0  0  0  0  0  0  0  0  0  0  0
    5.9198    2.9553    0.0000 H   0  0  0  0  0  0  0  0  0  0  0  0
    6.1289    0.9662    0.0000 H   0  0  0  0  0  0  0  0  0  0  0  0
    6.8103    0.4144    0.0000 H   0  0  0  0  0  0  0  0  0  0  0  0
    7.3621    1.0959    0.0000 H   0  0  0  0  0  0  0  0  0  0  0  0
   10.5700    2.8840    0.0000 H   0  0  0  0  0  0  0  0  0  0  0  0
   10.8843    3.7026    0.0000 H   0  0  0  0  0  0  0  0  0  0  0  0
   10.0657    4.0168    0.0000 H   0  0  0  0  0  0  0  0  0  0  0  0
    8.2386    3.2033    0.0000 H   0  0  0  0  0  0  0  0  0  0  0  0
    7.9244    2.3847    0.0000 H   0  0  0  0  0  0  0  0  0  0  0  0
    8.7430    2.0705    0.0000 H   0  0  0  0  0  0  0  0  0  0  0  0
    9.4393   -2.1606    0.0000 H   0  0  0  0  0  0  0  0  0  0  0  0
    8.7579   -2.7124    0.0000 H   0  0  0  0  0  0  0  0  0  0  0  0
    9.3097   -3.3938    0.0000 H   0  0  0  0  0  0  0  0  0  0  0  0
   11.0902   -1.9520    0.0000 H   0  0  0  0  0  0  0  0  0  0  0  0
   10.5384   -1.2706    0.0000 H   0  0  0  0  0  0  0  0  0  0  0  0
    9.8569   -1.8224    0.0000 H   0  0  0  0  0  0  0  0  0  0  0  0
   14.0216   -3.9410    0.0000 H   0  0  0  0  0  0  0  0  0  0  0  0
   14.7030   -4.4928    0.0000 H   0  0  0  0  0  0  0  0  0  0  0  0
   15.2548   -3.8114    0.0000 H   0  0  0  0  0  0  0  0  0  0  0  0
   15.0457   -1.8224    0.0000 H   0  0  0  0  0  0  0  0  0  0  0  0
   14.3643   -1.2706    0.0000 H   0  0  0  0  0  0  0  0  0  0  0  0
   13.8125   -1.9520    0.0000 H   0  0  0  0  0  0  0  0  0  0  0  0
    4.5871    2.4331    0.0000 H   0  0  0  0  0  0  0  0  0  0  0  0
    4.0353    1.7517    0.0000 H   0  0  0  0  0  0  0  0  0  0  0  0
    4.7167    1.1999    0.0000 H   0  0  0  0  0  0  0  0  0  0  0  0
    6.1585    2.9804    0.0000 H   0  0  0  0  0  0  0  0  0  0  0  0
    5.4771    3.5322    0.0000 H   0  0  0  0  0  0  0  0  0  0  0  0
    4.9253    2.8508    0.0000 H   0  0  0  0  0  0  0  0  0  0  0  0
    5.1344    0.8617    0.0000 H   0  0  0  0  0  0  0  0  0  0  0  0
    5.8158    0.3099    0.0000 H   0  0  0  0  0  0  0  0  0  0  0  0
    6.3676    0.9913    0.0000 H   0  0  0  0  0  0  0  0  0  0  0  0
    9.1572    5.1229    0.0000 H   0  0  0  0  0  0  0  0  0  0  0  0
    8.3387    5.4371    0.0000 H   0  0  0  0  0  0  0  0  0  0  0  0
    8.0244    4.6186    0.0000 H   0  0  0  0  0  0  0  0  0  0  0  0
   10.1633    3.7975    0.0000 H   0  0  0  0  0  0  0  0  0  0  0  0
   10.4775    4.6161    0.0000 H   0  0  0  0  0  0  0  0  0  0  0  0
    9.6590    4.9303    0.0000 H   0  0  0  0  0  0  0  0  0  0  0  0
    7.8319    4.1169    0.0000 H   0  0  0  0  0  0  0  0  0  0  0  0
    7.5176    3.2983    0.0000 H   0  0  0  0  0  0  0  0  0  0  0  0
    8.3362    2.9841    0.0000 H   0  0  0  0  0  0  0  0  0  0  0  0
    9.5434   -4.8059    0.0000 H   0  0  0  0  0  0  0  0  0  0  0  0
   10.0952   -5.4873    0.0000 H   0  0  0  0  0  0  0  0  0  0  0  0
   10.7766   -4.9356    0.0000 H   0  0  0  0  0  0  0  0  0  0  0  0
    9.3348   -3.1551    0.0000 H   0  0  0  0  0  0  0  0  0  0  0  0
    8.6534   -3.7069    0.0000 H   0  0  0  0  0  0  0  0  0  0  0  0
    9.2052   -4.3883    0.0000 H   0  0  0  0  0  0  0  0  0  0  0  0
   11.1942   -4.5973    0.0000 H   0  0  0  0  0  0  0  0  0  0  0  0
   11.8756   -4.0456    0.0000 H   0  0  0  0  0  0  0  0  0  0  0  0
   11.3238   -3.3641    0.0000 H   0  0  0  0  0  0  0  0  0  0  0  0
   16.5875   -3.2892    0.0000 H   0  0  0  0  0  0  0  0  0  0  0  0
   17.1393   -2.6078    0.0000 H   0  0  0  0  0  0  0  0  0  0  0  0
   16.4579   -2.0560    0.0000 H   0  0  0  0  0  0  0  0  0  0  0  0
   15.0161   -3.8365    0.0000 H   0  0  0  0  0  0  0  0  0  0  0  0
   15.6975   -4.3883    0.0000 H   0  0  0  0  0  0  0  0  0  0  0  0
   16.2493   -3.7069    0.0000 H   0  0  0  0  0  0  0  0  0  0  0  0
   16.0402   -1.7178    0.0000 H   0  0  0  0  0  0  0  0  0  0  0  0
   15.3588   -1.1660    0.0000 H   0  0  0  0  0  0  0  0  0  0  0  0
   14.8070   -1.8474    0.0000 H   0  0  0  0  0  0  0  0  0  0  0  0
    7.2160   -1.3320    0.0000 H   0  0  0  0  0  0  0  0  0  0  0  0
   14.3330    0.6750    0.0000 H   0  0  0  0  0  0  0  0  0  0  0  0
   13.7997    0.0827    0.0000 H   0  0  0  0  0  0  0  0  0  0  0  0
   15.4567   -0.2439    0.0000 H   0  0  0  0  0  0  0  0  0  0  0  0
   15.9900    0.3484    0.0000 H   0  0  0  0  0  0  0  0  0  0  0  0
   15.4920    1.9621    0.0000 H   0  0  0  0  0  0  0  0  0  0  0  0
   14.9587    1.3698    0.0000 H   0  0  0  0  0  0  0  0  0  0  0  0
   16.6156    1.0432    0.0000 H   0  0  0  0  0  0  0  0  0  0  0  0
   17.1490    1.6356    0.0000 H   0  0  0  0  0  0  0  0  0  0  0  0
    4.2389   -0.2596    0.0000 H   0  0  0  0  0  0  0  0  0  0  0  0
    5.1060   -2.9282    0.0000 H   0  0  0  0  0  0  0  0  0  0  0  0
   16.6510    3.2493    0.0000 H   0  0  0  0  0  0  0  0  0  0  0  0
   16.1176    2.6570    0.0000 H   0  0  0  0  0  0  0  0  0  0  0  0
   17.7746    2.3304    0.0000 H   0  0  0  0  0  0  0  0  0  0  0  0
   18.3079    2.9227    0.0000 H   0  0  0  0  0  0  0  0  0  0  0  0
    2.6982   -0.7602    0.0000 H   0  0  0  0  0  0  0  0  0  0  0  0
    3.5653   -3.4288    0.0000 H   0  0  0  0  0  0  0  0  0  0  0  0
   17.8099    4.5365    0.0000 H   0  0  0  0  0  0  0  0  0  0  0  0
   17.2766    3.9441    0.0000 H   0  0  0  0  0  0  0  0  0  0  0  0
    1.8084   -1.8726    0.0000 H   0  0  0  0  0  0  0  0  0  0  0  0
    1.4103   -2.6538    0.0000 H   0  0  0  0  0  0  0  0  0  0  0  0
    2.1916   -3.0519    0.0000 H   0  0  0  0  0  0  0  0  0  0  0  0
   19.0389    3.6419    0.0000 H   0  0  0  0  0  0  0  0  0  0  0  0
   19.4369    4.4231    0.0000 H   0  0  0  0  0  0  0  0  0  0  0  0
   18.6557    4.8212    0.0000 H   0  0  0  0  0  0  0  0  0  0  0  0
  1 14  2  0  0  0  0
  1 15  2  0  0  0  0
  1 16  1  0  0  0  0
  1 54  1  0  0  0  0
  2  7  1  0  0  0  0
  2 26  1  0  0  0  0
  2 31  1  0  0  0  0
  2 32  1  0  0  0  0
  3  8  1  0  0  0  0
  3 27  1  0  0  0  0
  3 33  1  0  0  0  0
  3 34  1  0  0  0  0
  4  9  1  0  0  0  0
  4 28  1  0  0  0  0
  4 35  1  0  0  0  0
  4 36  1  0  0  0  0
  5 11  1  0  0  0  0
  5 29  1  0  0  0  0
  5 37  1  0  0  0  0
  5 38  1  0  0  0  0
  6 22  1  0  0  0  0
  6 23  1  0  0  0  0
 17  7  1  1  0  0  0
 18  8  1  6  0  0  0
 19  9  1  6  0  0  0
 10 21  1  0  0  0  0
 10 24  1  0  0  0  0
 20 11  1  1  0  0  0
 23 12  1  1  0  0  0
 12 25  1  0  0  0  0
 24 13  1  6  0  0  0
 13 51  1  0  0  0  0
 16 30  1  0  0  0  0
 16138  1  0  0  0  0
 17 18  1  0  0  0  0
 17 22  1  0  0  0  0
 17 66  1  0  0  0  0
 18 23  1  0  0  0  0
 18 67  1  0  0  0  0
 19 20  1  0  0  0  0
 19 21  1  0  0  0  0
 19 68  1  0  0  0  0
 20 24  1  0  0  0  0
 20 69  1  0  0  0  0
 21 25  1  1  0  0  0
 21 70  1  0  0  0  0
 22 30  1  6  0  0  0
 22 71  1  0  0  0  0
 23 72  1  0  0  0  0
 24 73  1  0  0  0  0
 25 74  1  0  0  0  0
 25 75  1  0  0  0  0
 26 39  1  0  0  0  0
 26 40  1  0  0  0  0
 26 41  1  0  0  0  0
 27 42  1  0  0  0  0
 27 43  1  0  0  0  0
 27 44  1  0  0  0  0
 28 45  1  0  0  0  0
 28 46  1  0  0  0  0
 28 47  1  0  0  0  0
 29 48  1  0  0  0  0
 29 49  1  0  0  0  0
 29 50  1  0  0  0  0
 30 76  1  0  0  0  0
 30 77  1  0  0  0  0
 31 78  1  0  0  0  0
 31 79  1  0  0  0  0
 31 80  1  0  0  0  0
 32 81  1  0  0  0  0
 32 82  1  0  0  0  0
 32 83  1  0  0  0  0
 33 84  1  0  0  0  0
 33 85  1  0  0  0  0
 33 86  1  0  0  0  0
 34 87  1  0  0  0  0
 34 88  1  0  0  0  0
 34 89  1  0  0  0  0
 35 90  1  0  0  0  0
 35 91  1  0  0  0  0
 35 92  1  0  0  0  0
 36 93  1  0  0  0  0
 36 94  1  0  0  0  0
 36 95  1  0  0  0  0
 37 96  1  0  0  0  0
 37 97  1  0  0  0  0
 37 98  1  0  0  0  0
 38 99  1  0  0  0  0
 38100  1  0  0  0  0
 38101  1  0  0  0  0
 39102  1  0  0  0  0
 39103  1  0  0  0  0
 39104  1  0  0  0  0
 40105  1  0  0  0  0
 40106  1  0  0  0  0
 40107  1  0  0  0  0
 41108  1  0  0  0  0
 41109  1  0  0  0  0
 41110  1  0  0  0  0
 42111  1  0  0  0  0
 42112  1  0  0  0  0
 42113  1  0  0  0  0
 43114  1  0  0  0  0
 43115  1  0  0  0  0
 43116  1  0  0  0  0
 44117  1  0  0  0  0
 44118  1  0  0  0  0
 44119  1  0  0  0  0
 45120  1  0  0  0  0
 45121  1  0  0  0  0
 45122  1  0  0  0  0
 46123  1  0  0  0  0
 46124  1  0  0  0  0
 46125  1  0  0  0  0
 47126  1  0  0  0  0
 47127  1  0  0  0  0
 47128  1  0  0  0  0
 48129  1  0  0  0  0
 48130  1  0  0  0  0
 48131  1  0  0  0  0
 49132  1  0  0  0  0
 49133  1  0  0  0  0
 49134  1  0  0  0  0
 50135  1  0  0  0  0
 50136  1  0  0  0  0
 50137  1  0  0  0  0
 51 52  1  0  0  0  0
 51139  1  0  0  0  0
 51140  1  0  0  0  0
 52 53  1  0  0  0  0
 52141  1  0  0  0  0
 52142  1  0  0  0  0
 53 55  1  0  0  0  0
 53143  1  0  0  0  0
 53144  1  0  0  0  0
 54 56  2  0  0  0  0
 54 57  1  0  0  0  0
 55 58  1  0  0  0  0
 55145  1  0  0  0  0
 55146  1  0  0  0  0
 56 60  1  0  0  0  0
 56147  1  0  0  0  0
 57 61  2  0  0  0  0
 57148  1  0  0  0  0
 58 59  1  0  0  0  0
 58149  1  0  0  0  0
 58150  1  0  0  0  0
 59 63  1  0  0  0  0
 59151  1  0  0  0  0
 59152  1  0  0  0  0
 60 62  2  0  0  0  0
 60153  1  0  0  0  0
 61 62  1  0  0  0  0
 61154  1  0  0  0  0
 62 64  1  0  0  0  0
 63 65  1  0  0  0  0
 63155  1  0  0  0  0
 63156  1  0  0  0  0
 64157  1  0  0  0  0
 64158  1  0  0  0  0
 64159  1  0  0  0  0
 65160  1  0  0  0  0
 65161  1  0  0  0  0
 65162  1  0  0  0  0
M  END
> <PUBCHEM_COMPOUND_CID>
508233
> <PUBCHEM_COMPOUND_CANONICALIZED>
1
> <PUBCHEM_CACTVS_COMPLEXITY>
1560
> <PUBCHEM_CACTVS_HBOND_ACCEPTOR>
11
> <PUBCHEM_CACTVS_HBOND_DONOR>
1
> <PUBCHEM_CACTVS_ROTATABLE_BOND>
27
> <PUBCHEM_CACTVS_SUBSKEYS>
AAADcfB+PAxAAAAAAAAAAAAAAAAAASJAAAAwAAAAAAAAAAABAAAAHhQQQEAADBTx+AdyCYBABAOAAiBCAHBCABAgAAAIiJgAAIgbICKAkRCjIAAnkAAOiAfw8KgOEAAAAAAAAAAgAAAAAAAAAAAAAAAAAA==
> <PUBCHEM_IUPAC_OPENEYE_NAME>
N-[[(2R,3R,4S,5S)-5-[[(2R,3R,4S,5S)-3,4-bis[[tert-butyl(dimethyl)silyl]oxy]-5-octoxy-tetrahydrofuran-2-yl]methoxy]-3,4-bis[[tert-butyl(dimethyl)silyl]oxy]tetrahydrofuran-2-yl]methyl]-4-methyl-benzenesulfonamide
> <PUBCHEM_IUPAC_CAS_NAME>
N-[[(2R,3R,4S,5S)-5-[[(2R,3R,4S,5S)-3,4-bis[[tert-butyl(dimethyl)silyl]oxy]-5-octoxy-2-oxolanyl]methoxy]-3,4-bis[[tert-butyl(dimethyl)silyl]oxy]-2-oxolanyl]methyl]-4-methylbenzenesulfonamide
> <PUBCHEM_IUPAC_NAME_MARKUP>
<I>N</I>-[[(2<I>R</I>,3<I>R</I>,4<I>S</I>,5<I>S</I>)-5-[[(2<I>R</I>,3<I>R</I>,4<I>S</I>,5<I>S</I>)-3,4-bis[[<I>tert</I>-butyl(dimethyl)silyl]oxy]-5-octoxyoxolan-2-yl]methoxy]-3,4-bis[[<I>tert</I>-butyl(dimethyl)silyl]oxy]oxolan-2-yl]methyl]-4-methylbenzenesulfonamide
> <PUBCHEM_IUPAC_NAME>
N-[[(2R,3R,4S,5S)-5-[[(2R,3R,4S,5S)-3,4-bis[[tert-butyl(dimethyl)silyl]oxy]-5-octoxyoxolan-2-yl]methoxy]-3,4-bis[[tert-butyl(dimethyl)silyl]oxy]oxolan-2-yl]methyl]-4-methylbenzenesulfonamide
> <PUBCHEM_IUPAC_SYSTEMATIC_NAME>
N-[[(2R,3R,4S,5S)-5-[[(2R,3R,4S,5S)-3,4-bis[[tert-butyl(dimethyl)silyl]oxy]-5-octoxy-oxolan-2-yl]methoxy]-3,4-bis[[tert-butyl(dimethyl)silyl]oxy]oxolan-2-yl]methyl]-4-methyl-benzenesulfonamide
> <PUBCHEM_IUPAC_TRADITIONAL_NAME>
N-[[(2R,3R,4S,5S)-5-[[(2R,3R,4S,5S)-3,4-bis[[tert-butyl(dimethyl)silyl]oxy]-5-octoxy-tetrahydrofuran-2-yl]methoxy]-3,4-bis[[tert-butyl(dimethyl)silyl]oxy]tetrahydrofuran-2-yl]methyl]-4-methyl-benzenesulfonamide
> <PUBCHEM_IUPAC_INCHI>
InChI=1S/C49H97NO10SSi4/c1-23-24-25-26-27-28-33-53-44-43(60-65(21,22)49(12,13)14)41(58-63(17,18)47(6,7)8)39(56-44)35-54-45-42(59-64(19,20)48(9,10)11)40(57-62(15,16)46(3,4)5)38(55-45)34-50-61(51,52)37-31-29-36(2)30-32-37/h29-32,38-45,50H,23-28,33-35H2,1-22H3/t38-,39-,40-,41-,42+,43+,44+,45+/m1/s1
> <PUBCHEM_IUPAC_INCHIKEY>
RIPBEQZFOCRECJ-JDGKXYTJSA-N
> <PUBCHEM_EXACT_MASS>
1003.59102560
> <PUBCHEM_MOLECULAR_FORMULA>
C49H97NO10SSi4
> <PUBCHEM_MOLECULAR_WEIGHT>
1004.7
> <PUBCHEM_OPENEYE_CAN_SMILES>
CCCCCCCCOC1C(C(C(O1)COC2C(C(C(O2)CNS(=O)(=O)C3=CC=C(C=C3)C)O[Si](C)(C)C(C)(C)C)O[Si](C)(C)C(C)(C)C)O[Si](C)(C)C(C)(C)C)O[Si](C)(C)C(C)(C)C
> <PUBCHEM_OPENEYE_ISO_SMILES>
CCCCCCCCO[C@@H]1[C@H]([C@@H]([C@H](O1)CO[C@@H]2[C@H]([C@@H]([C@H](O2)CNS(=O)(=O)C3=CC=C(C=C3)C)O[Si](C)(C)C(C)(C)C)O[Si](C)(C)C(C)(C)C)O[Si](C)(C)C(C)(C)C)O[Si](C)(C)C(C)(C)C
> <PUBCHEM_CACTVS_TPSA>
128
> <PUBCHEM_MONOISOTOPIC_WEIGHT>
1003.59102560
> <PUBCHEM_TOTAL_CHARGE>
0
> <PUBCHEM_HEAVY_ATOM_COUNT>
65
> <PUBCHEM_ATOM_DEF_STEREO_COUNT>
8
> <PUBCHEM_ATOM_UDEF_STEREO_COUNT>
0
> <PUBCHEM_BOND_DEF_STEREO_COUNT>
0
> <PUBCHEM_BOND_UDEF_STEREO_COUNT>
0
> <PUBCHEM_ISOTOPIC_ATOM_COUNT>
0
> <PUBCHEM_COMPONENT_COUNT>
1
> <PUBCHEM_CACTVS_TAUTO_COUNT>
-1
> <PUBCHEM_COORDINATE_TYPE>
1
5
255
> <PUBCHEM_BONDANNOTATIONS>
20  11  5
23  12  5
24  13  6
21  25  5
22  30  6
54  56  8
54  57  8
56  60  8
57  61  8
60  62  8
61  62  8
17  7  5
18  8  6
19  9  6
$$$$
