508219
  -OEChem-10302200282D
146147  0     1  0  0  0  0  0999 V2000
    9.0365   -3.3672    0.0000 Si  0  0  0  0  0  0  0  0  0  0  0  0
   11.7999   -2.3491    0.0000 Si  0  0  0  0  0  0  0  0  0  0  0  0
    5.1235   -1.1852    0.0000 Si  0  0  0  0  0  0  0  0  0  0  0  0
    3.4863    1.2627    0.0000 Si  0  0  0  0  0  0  0  0  0  0  0  0
    8.6298   -2.4536    0.0000 O   0  0  0  0  0  0  0  0  0  0  0  0
    9.7176   -0.1058    0.0000 O   0  0  0  0  0  0  0  0  0  0  0  0
   10.8054   -2.4536    0.0000 O   0  0  0  0  0  0  0  0  0  0  0  0
    5.9895   -0.6852    0.0000 O   0  0  0  0  0  0  0  0  0  0  0  0
    4.2294    0.5936    0.0000 O   0  0  0  0  0  0  0  0  0  0  0  0
    6.4895    1.8537    0.0000 O   0  0  0  0  0  0  0  0  0  0  0  0
    7.7496    0.5936    0.0000 O   0  0  0  0  0  0  0  0  0  0  0  0
   11.4776   -0.3845    0.0000 O   0  0  0  0  0  0  0  0  0  0  0  0
    5.3085    3.5762    0.0000 N   0  0  0  0  0  0  0  0  0  0  0  0
    4.7207    4.3853    0.0000 N   0  3  0  0  0  0  0  0  0  0  0  0
    4.1329    5.1943    0.0000 N   0  5  0  0  0  0  0  0  0  0  0  0
    9.2176   -1.6446    0.0000 C   0  0  1  0  0  0  0  0  0  0  0  0
   10.2176   -1.6446    0.0000 C   0  0  1  0  0  0  0  0  0  0  0  0
    5.9895    0.3148    0.0000 C   0  0  1  0  0  0  0  0  0  0  0  0
    5.1805    0.9026    0.0000 C   0  0  1  0  0  0  0  0  0  0  0  0
    8.9086   -0.6936    0.0000 C   0  0  1  0  0  0  0  0  0  0  0  0
    6.7985    0.9026    0.0000 C   0  0  2  0  0  0  0  0  0  0  0  0
    5.4895    1.8537    0.0000 C   0  0  1  0  0  0  0  0  0  0  0  0
   10.5266   -0.6936    0.0000 C   0  0  2  0  0  0  0  0  0  0  0  0
    7.9575   -0.3845    0.0000 C   0  0  0  0  0  0  0  0  0  0  0  0
    9.4433   -4.2807    0.0000 C   0  0  0  0  0  0  0  0  0  0  0  0
   12.7944   -2.2446    0.0000 C   0  0  0  0  0  0  0  0  0  0  0  0
    4.2575   -1.6852    0.0000 C   0  0  0  0  0  0  0  0  0  0  0  0
    2.7431    1.9319    0.0000 C   0  0  0  0  0  0  0  0  0  0  0  0
    4.9017    2.6627    0.0000 C   0  0  0  0  0  0  0  0  0  0  0  0
    8.1230   -3.7739    0.0000 C   0  0  0  0  0  0  0  0  0  0  0  0
    9.9501   -2.9604    0.0000 C   0  0  0  0  0  0  0  0  0  0  0  0
   11.9044   -3.3436    0.0000 C   0  0  0  0  0  0  0  0  0  0  0  0
   11.6953   -1.3546    0.0000 C   0  0  0  0  0  0  0  0  0  0  0  0
    4.6235   -0.3191    0.0000 C   0  0  0  0  0  0  0  0  0  0  0  0
    5.6235   -2.0512    0.0000 C   0  0  0  0  0  0  0  0  0  0  0  0
    2.8172    0.5196    0.0000 C   0  0  0  0  0  0  0  0  0  0  0  0
    4.1554    2.0059    0.0000 C   0  0  0  0  0  0  0  0  0  0  0  0
    9.8500   -5.1943    0.0000 C   0  0  0  0  0  0  0  0  0  0  0  0
    8.5297   -4.6875    0.0000 C   0  0  0  0  0  0  0  0  0  0  0  0
   10.3568   -3.8740    0.0000 C   0  0  0  0  0  0  0  0  0  0  0  0
   13.7889   -2.1400    0.0000 C   0  0  0  0  0  0  0  0  0  0  0  0
   12.8989   -3.2391    0.0000 C   0  0  0  0  0  0  0  0  0  0  0  0
   12.6899   -1.2501    0.0000 C   0  0  0  0  0  0  0  0  0  0  0  0
    3.3914   -2.1852    0.0000 C   0  0  0  0  0  0  0  0  0  0  0  0
    3.7575   -0.8191    0.0000 C   0  0  0  0  0  0  0  0  0  0  0  0
    4.7575   -2.5512    0.0000 C   0  0  0  0  0  0  0  0  0  0  0  0
    2.0000    2.6010    0.0000 C   0  0  0  0  0  0  0  0  0  0  0  0
    2.0740    1.1887    0.0000 C   0  0  0  0  0  0  0  0  0  0  0  0
    3.4123    2.6750    0.0000 C   0  0  0  0  0  0  0  0  0  0  0  0
   11.6856    0.5936    0.0000 C   0  0  0  0  0  0  0  0  0  0  0  0
   12.6366    0.9026    0.0000 C   0  0  0  0  0  0  0  0  0  0  0  0
   12.8445    1.8808    0.0000 C   0  0  0  0  0  0  0  0  0  0  0  0
   13.7956    2.1898    0.0000 C   0  0  0  0  0  0  0  0  0  0  0  0
   14.0035    3.1679    0.0000 C   0  0  0  0  0  0  0  0  0  0  0  0
   14.9545    3.4770    0.0000 C   0  0  0  0  0  0  0  0  0  0  0  0
   15.1625    4.4551    0.0000 C   0  0  0  0  0  0  0  0  0  0  0  0
   16.1135    4.7641    0.0000 C   0  0  0  0  0  0  0  0  0  0  0  0
    8.6052   -1.5476    0.0000 H   0  0  0  0  0  0  0  0  0  0  0  0
    9.9361   -2.1970    0.0000 H   0  0  0  0  0  0  0  0  0  0  0  0
    6.5419    0.0334    0.0000 H   0  0  0  0  0  0  0  0  0  0  0  0
    5.0835    0.2903    0.0000 H   0  0  0  0  0  0  0  0  0  0  0  0
    8.8116   -0.0812    0.0000 H   0  0  0  0  0  0  0  0  0  0  0  0
    6.8955    0.2903    0.0000 H   0  0  0  0  0  0  0  0  0  0  0  0
    5.7710    2.4061    0.0000 H   0  0  0  0  0  0  0  0  0  0  0  0
   10.9650   -1.1320    0.0000 H   0  0  0  0  0  0  0  0  0  0  0  0
    7.3379   -0.4062    0.0000 H   0  0  0  0  0  0  0  0  0  0  0  0
    7.8712   -0.9985    0.0000 H   0  0  0  0  0  0  0  0  0  0  0  0
    4.3877    3.0094    0.0000 H   0  0  0  0  0  0  0  0  0  0  0  0
    4.4710    2.2167    0.0000 H   0  0  0  0  0  0  0  0  0  0  0  0
    7.8708   -3.2075    0.0000 H   0  0  0  0  0  0  0  0  0  0  0  0
    7.5566   -4.0261    0.0000 H   0  0  0  0  0  0  0  0  0  0  0  0
    8.3752   -4.3403    0.0000 H   0  0  0  0  0  0  0  0  0  0  0  0
   10.2022   -3.5268    0.0000 H   0  0  0  0  0  0  0  0  0  0  0  0
   10.5165   -2.7083    0.0000 H   0  0  0  0  0  0  0  0  0  0  0  0
    9.6979   -2.3940    0.0000 H   0  0  0  0  0  0  0  0  0  0  0  0
   11.2878   -3.4084    0.0000 H   0  0  0  0  0  0  0  0  0  0  0  0
   11.9692   -3.9602    0.0000 H   0  0  0  0  0  0  0  0  0  0  0  0
   12.5210   -3.2788    0.0000 H   0  0  0  0  0  0  0  0  0  0  0  0
   12.3119   -1.2898    0.0000 H   0  0  0  0  0  0  0  0  0  0  0  0
   11.6305   -0.7380    0.0000 H   0  0  0  0  0  0  0  0  0  0  0  0
   11.0787   -1.4194    0.0000 H   0  0  0  0  0  0  0  0  0  0  0  0
    5.1604   -0.0091    0.0000 H   0  0  0  0  0  0  0  0  0  0  0  0
    4.3135    0.2178    0.0000 H   0  0  0  0  0  0  0  0  0  0  0  0
    4.0866   -0.6291    0.0000 H   0  0  0  0  0  0  0  0  0  0  0  0
    5.0866   -2.3612    0.0000 H   0  0  0  0  0  0  0  0  0  0  0  0
    5.9335   -2.5881    0.0000 H   0  0  0  0  0  0  0  0  0  0  0  0
    6.1604   -1.7412    0.0000 H   0  0  0  0  0  0  0  0  0  0  0  0
    2.3564    0.9344    0.0000 H   0  0  0  0  0  0  0  0  0  0  0  0
    2.4023    0.0588    0.0000 H   0  0  0  0  0  0  0  0  0  0  0  0
    3.2779    0.1047    0.0000 H   0  0  0  0  0  0  0  0  0  0  0  0
    4.6162    1.5910    0.0000 H   0  0  0  0  0  0  0  0  0  0  0  0
    4.5703    2.4666    0.0000 H   0  0  0  0  0  0  0  0  0  0  0  0
    3.6947    2.4207    0.0000 H   0  0  0  0  0  0  0  0  0  0  0  0
    9.2836   -5.4464    0.0000 H   0  0  0  0  0  0  0  0  0  0  0  0
   10.1022   -5.7607    0.0000 H   0  0  0  0  0  0  0  0  0  0  0  0
   10.4164   -4.9421    0.0000 H   0  0  0  0  0  0  0  0  0  0  0  0
    8.2775   -4.1211    0.0000 H   0  0  0  0  0  0  0  0  0  0  0  0
    7.9633   -4.9396    0.0000 H   0  0  0  0  0  0  0  0  0  0  0  0
    8.7819   -5.2539    0.0000 H   0  0  0  0  0  0  0  0  0  0  0  0
   10.6090   -4.4404    0.0000 H   0  0  0  0  0  0  0  0  0  0  0  0
   10.9232   -3.6218    0.0000 H   0  0  0  0  0  0  0  0  0  0  0  0
   10.1046   -3.3076    0.0000 H   0  0  0  0  0  0  0  0  0  0  0  0
   13.8537   -2.7566    0.0000 H   0  0  0  0  0  0  0  0  0  0  0  0
   14.4055   -2.0752    0.0000 H   0  0  0  0  0  0  0  0  0  0  0  0
   13.7241   -1.5234    0.0000 H   0  0  0  0  0  0  0  0  0  0  0  0
   12.2823   -3.3039    0.0000 H   0  0  0  0  0  0  0  0  0  0  0  0
   12.9637   -3.8557    0.0000 H   0  0  0  0  0  0  0  0  0  0  0  0
   13.5155   -3.1743    0.0000 H   0  0  0  0  0  0  0  0  0  0  0  0
   13.3065   -1.1852    0.0000 H   0  0  0  0  0  0  0  0  0  0  0  0
   12.6251   -0.6335    0.0000 H   0  0  0  0  0  0  0  0  0  0  0  0
   12.0733   -1.3149    0.0000 H   0  0  0  0  0  0  0  0  0  0  0  0
    3.0814   -1.6482    0.0000 H   0  0  0  0  0  0  0  0  0  0  0  0
    2.8545   -2.4952    0.0000 H   0  0  0  0  0  0  0  0  0  0  0  0
    3.7014   -2.7221    0.0000 H   0  0  0  0  0  0  0  0  0  0  0  0
    4.2944   -0.5091    0.0000 H   0  0  0  0  0  0  0  0  0  0  0  0
    3.4475   -0.2822    0.0000 H   0  0  0  0  0  0  0  0  0  0  0  0
    3.2205   -1.1291    0.0000 H   0  0  0  0  0  0  0  0  0  0  0  0
    4.2205   -2.8612    0.0000 H   0  0  0  0  0  0  0  0  0  0  0  0
    5.0675   -3.0881    0.0000 H   0  0  0  0  0  0  0  0  0  0  0  0
    5.2944   -2.2412    0.0000 H   0  0  0  0  0  0  0  0  0  0  0  0
    2.4149    3.0617    0.0000 H   0  0  0  0  0  0  0  0  0  0  0  0
    1.5392    3.0159    0.0000 H   0  0  0  0  0  0  0  0  0  0  0  0
    1.5851    2.1402    0.0000 H   0  0  0  0  0  0  0  0  0  0  0  0
    1.6133    1.6036    0.0000 H   0  0  0  0  0  0  0  0  0  0  0  0
    1.6592    0.7280    0.0000 H   0  0  0  0  0  0  0  0  0  0  0  0
    2.5348    0.7739    0.0000 H   0  0  0  0  0  0  0  0  0  0  0  0
    3.8730    2.2602    0.0000 H   0  0  0  0  0  0  0  0  0  0  0  0
    3.8271    3.1358    0.0000 H   0  0  0  0  0  0  0  0  0  0  0  0
    2.9515    3.0899    0.0000 H   0  0  0  0  0  0  0  0  0  0  0  0
   11.5993    1.2076    0.0000 H   0  0  0  0  0  0  0  0  0  0  0  0
   11.0659    0.6152    0.0000 H   0  0  0  0  0  0  0  0  0  0  0  0
   12.7229    0.2887    0.0000 H   0  0  0  0  0  0  0  0  0  0  0  0
   13.2562    0.8810    0.0000 H   0  0  0  0  0  0  0  0  0  0  0  0
   12.7582    2.4947    0.0000 H   0  0  0  0  0  0  0  0  0  0  0  0
   12.2249    1.9024    0.0000 H   0  0  0  0  0  0  0  0  0  0  0  0
   13.8819    1.5758    0.0000 H   0  0  0  0  0  0  0  0  0  0  0  0
   14.4152    2.1681    0.0000 H   0  0  0  0  0  0  0  0  0  0  0  0
   13.9172    3.7819    0.0000 H   0  0  0  0  0  0  0  0  0  0  0  0
   13.3839    3.1896    0.0000 H   0  0  0  0  0  0  0  0  0  0  0  0
   15.0408    2.8630    0.0000 H   0  0  0  0  0  0  0  0  0  0  0  0
   15.5742    3.4553    0.0000 H   0  0  0  0  0  0  0  0  0  0  0  0
   15.0762    5.0691    0.0000 H   0  0  0  0  0  0  0  0  0  0  0  0
   14.5428    4.4767    0.0000 H   0  0  0  0  0  0  0  0  0  0  0  0
   16.3051    4.1745    0.0000 H   0  0  0  0  0  0  0  0  0  0  0  0
   16.7032    4.9557    0.0000 H   0  0  0  0  0  0  0  0  0  0  0  0
   15.9219    5.3538    0.0000 H   0  0  0  0  0  0  0  0  0  0  0  0
  1  5  1  0  0  0  0
  1 25  1  0  0  0  0
  1 30  1  0  0  0  0
  1 31  1  0  0  0  0
  2  7  1  0  0  0  0
  2 26  1  0  0  0  0
  2 32  1  0  0  0  0
  2 33  1  0  0  0  0
  3  8  1  0  0  0  0
  3 27  1  0  0  0  0
  3 34  1  0  0  0  0
  3 35  1  0  0  0  0
  4  9  1  0  0  0  0
  4 28  1  0  0  0  0
  4 36  1  0  0  0  0
  4 37  1  0  0  0  0
 16  5  1  6  0  0  0
  6 20  1  0  0  0  0
  6 23  1  0  0  0  0
 17  7  1  1  0  0  0
 18  8  1  1  0  0  0
 19  9  1  6  0  0  0
 10 21  1  0  0  0  0
 10 22  1  0  0  0  0
 21 11  1  6  0  0  0
 11 24  1  0  0  0  0
 23 12  1  6  0  0  0
 12 50  1  0  0  0  0
 13 14  2  0  0  0  0
 13 29  1  0  0  0  0
 14 15  2  0  0  0  0
 16 17  1  0  0  0  0
 16 20  1  0  0  0  0
 16 58  1  0  0  0  0
 17 23  1  0  0  0  0
 17 59  1  0  0  0  0
 18 19  1  0  0  0  0
 18 21  1  0  0  0  0
 18 60  1  0  0  0  0
 19 22  1  0  0  0  0
 19 61  1  0  0  0  0
 20 24  1  1  0  0  0
 20 62  1  0  0  0  0
 21 63  1  0  0  0  0
 22 29  1  1  0  0  0
 22 64  1  0  0  0  0
 23 65  1  0  0  0  0
 24 66  1  0  0  0  0
 24 67  1  0  0  0  0
 25 38  1  0  0  0  0
 25 39  1  0  0  0  0
 25 40  1  0  0  0  0
 26 41  1  0  0  0  0
 26 42  1  0  0  0  0
 26 43  1  0  0  0  0
 27 44  1  0  0  0  0
 27 45  1  0  0  0  0
 27 46  1  0  0  0  0
 28 47  1  0  0  0  0
 28 48  1  0  0  0  0
 28 49  1  0  0  0  0
 29 68  1  0  0  0  0
 29 69  1  0  0  0  0
 30 70  1  0  0  0  0
 30 71  1  0  0  0  0
 30 72  1  0  0  0  0
 31 73  1  0  0  0  0
 31 74  1  0  0  0  0
 31 75  1  0  0  0  0
 32 76  1  0  0  0  0
 32 77  1  0  0  0  0
 32 78  1  0  0  0  0
 33 79  1  0  0  0  0
 33 80  1  0  0  0  0
 33 81  1  0  0  0  0
 34 82  1  0  0  0  0
 34 83  1  0  0  0  0
 34 84  1  0  0  0  0
 35 85  1  0  0  0  0
 35 86  1  0  0  0  0
 35 87  1  0  0  0  0
 36 88  1  0  0  0  0
 36 89  1  0  0  0  0
 36 90  1  0  0  0  0
 37 91  1  0  0  0  0
 37 92  1  0  0  0  0
 37 93  1  0  0  0  0
 38 94  1  0  0  0  0
 38 95  1  0  0  0  0
 38 96  1  0  0  0  0
 39 97  1  0  0  0  0
 39 98  1  0  0  0  0
 39 99  1  0  0  0  0
 40100  1  0  0  0  0
 40101  1  0  0  0  0
 40102  1  0  0  0  0
 41103  1  0  0  0  0
 41104  1  0  0  0  0
 41105  1  0  0  0  0
 42106  1  0  0  0  0
 42107  1  0  0  0  0
 42108  1  0  0  0  0
 43109  1  0  0  0  0
 43110  1  0  0  0  0
 43111  1  0  0  0  0
 44112  1  0  0  0  0
 44113  1  0  0  0  0
 44114  1  0  0  0  0
 45115  1  0  0  0  0
 45116  1  0  0  0  0
 45117  1  0  0  0  0
 46118  1  0  0  0  0
 46119  1  0  0  0  0
 46120  1  0  0  0  0
 47121  1  0  0  0  0
 47122  1  0  0  0  0
 47123  1  0  0  0  0
 48124  1  0  0  0  0
 48125  1  0  0  0  0
 48126  1  0  0  0  0
 49127  1  0  0  0  0
 49128  1  0  0  0  0
 49129  1  0  0  0  0
 50 51  1  0  0  0  0
 50130  1  0  0  0  0
 50131  1  0  0  0  0
 51 52  1  0  0  0  0
 51132  1  0  0  0  0
 51133  1  0  0  0  0
 52 53  1  0  0  0  0
 52134  1  0  0  0  0
 52135  1  0  0  0  0
 53 54  1  0  0  0  0
 53136  1  0  0  0  0
 53137  1  0  0  0  0
 54 55  1  0  0  0  0
 54138  1  0  0  0  0
 54139  1  0  0  0  0
 55 56  1  0  0  0  0
 55140  1  0  0  0  0
 55141  1  0  0  0  0
 56 57  1  0  0  0  0
 56142  1  0  0  0  0
 56143  1  0  0  0  0
 57144  1  0  0  0  0
 57145  1  0  0  0  0
 57146  1  0  0  0  0
M  CHG  2  14   1  15  -1
M  END
> <PUBCHEM_COMPOUND_CID>
508219
> <PUBCHEM_COMPOUND_CANONICALIZED>
1
> <PUBCHEM_CACTVS_COMPLEXITY>
1290
> <PUBCHEM_CACTVS_HBOND_ACCEPTOR>
10
> <PUBCHEM_CACTVS_HBOND_DONOR>
0
> <PUBCHEM_CACTVS_ROTATABLE_BOND>
25
> <PUBCHEM_CACTVS_SUBSKEYS>
AAADcfB/PAwAAAAAAAAAAAAAAAAAASJAAAAAAAAAAAAAAAAAAAAAHhAIAEAADBTxoAdCCAAABAECAAAAAAAAAAAAAAAAAAAAAAATAAIAgAAjAAAHAAAGAAHw8KgAAAAAAAAAAAAAAAAAAAAAAAAAAAAAAA==
> <PUBCHEM_IUPAC_OPENEYE_NAME>
[(2R,3R,4S,5S)-2-(azidomethyl)-5-[[(2R,3R,4S,5S)-3,4-bis[[tert-butyl(dimethyl)silyl]oxy]-5-octoxy-tetrahydrofuran-2-yl]methoxy]-4-[tert-butyl(dimethyl)silyl]oxy-tetrahydrofuran-3-yl]oxy-tert-butyl-dimethyl-silane
> <PUBCHEM_IUPAC_CAS_NAME>
[(2R,3R,4S,5S)-2-(azidomethyl)-5-[[(2R,3R,4S,5S)-3,4-bis[[tert-butyl(dimethyl)silyl]oxy]-5-octoxy-2-oxolanyl]methoxy]-4-[tert-butyl(dimethyl)silyl]oxy-3-oxolanyl]oxy-tert-butyl-dimethylsilane
> <PUBCHEM_IUPAC_NAME_MARKUP>
[(2<I>R</I>,3<I>R</I>,4<I>S</I>,5<I>S</I>)-2-(azidomethyl)-5-[[(2<I>R</I>,3<I>R</I>,4<I>S</I>,5<I>S</I>)-3,4-bis[[<I>tert</I>-butyl(dimethyl)silyl]oxy]-5-octoxyoxolan-2-yl]methoxy]-4-[<I>tert</I>-butyl(dimethyl)silyl]oxyoxolan-3-yl]oxy-<I>tert</I>-butyl-dimethylsilane
> <PUBCHEM_IUPAC_NAME>
[(2R,3R,4S,5S)-2-(azidomethyl)-5-[[(2R,3R,4S,5S)-3,4-bis[[tert-butyl(dimethyl)silyl]oxy]-5-octoxyoxolan-2-yl]methoxy]-4-[tert-butyl(dimethyl)silyl]oxyoxolan-3-yl]oxy-tert-butyl-dimethylsilane
> <PUBCHEM_IUPAC_SYSTEMATIC_NAME>
[(2R,3R,4S,5S)-2-(azidomethyl)-5-[[(2R,3R,4S,5S)-3,4-bis[[tert-butyl(dimethyl)silyl]oxy]-5-octoxy-oxolan-2-yl]methoxy]-4-[tert-butyl(dimethyl)silyl]oxy-oxolan-3-yl]oxy-tert-butyl-dimethyl-silane
> <PUBCHEM_IUPAC_TRADITIONAL_NAME>
[(2R,3R,4S,5S)-2-(azidomethyl)-5-[[(2R,3R,4S,5S)-3,4-bis[[tert-butyl(dimethyl)silyl]oxy]-5-octoxy-tetrahydrofuran-2-yl]methoxy]-4-[tert-butyl(dimethyl)silyl]oxy-tetrahydrofuran-3-yl]oxy-tert-butyl-dimethyl-silane
> <PUBCHEM_IUPAC_INCHI>
InChI=1S/C42H89N3O8Si4/c1-22-23-24-25-26-27-28-46-37-36(53-57(20,21)42(11,12)13)34(51-55(16,17)40(5,6)7)32(49-37)30-47-38-35(52-56(18,19)41(8,9)10)33(31(48-38)29-44-45-43)50-54(14,15)39(2,3)4/h31-38H,22-30H2,1-21H3/t31-,32-,33-,34-,35+,36+,37+,38+/m1/s1
> <PUBCHEM_IUPAC_INCHIKEY>
JIYWQVYPNQDURX-VKUCYIRESA-N
> <PUBCHEM_EXACT_MASS>
875.57267294
> <PUBCHEM_MOLECULAR_FORMULA>
C42H89N3O8Si4
> <PUBCHEM_MOLECULAR_WEIGHT>
876.5
> <PUBCHEM_OPENEYE_CAN_SMILES>
CCCCCCCCOC1C(C(C(O1)COC2C(C(C(O2)CN=[N+]=[N-])O[Si](C)(C)C(C)(C)C)O[Si](C)(C)C(C)(C)C)O[Si](C)(C)C(C)(C)C)O[Si](C)(C)C(C)(C)C
> <PUBCHEM_OPENEYE_ISO_SMILES>
CCCCCCCCO[C@@H]1[C@H]([C@@H]([C@H](O1)CO[C@@H]2[C@H]([C@@H]([C@H](O2)CN=[N+]=[N-])O[Si](C)(C)C(C)(C)C)O[Si](C)(C)C(C)(C)C)O[Si](C)(C)C(C)(C)C)O[Si](C)(C)C(C)(C)C
> <PUBCHEM_CACTVS_TPSA>
88.2
> <PUBCHEM_MONOISOTOPIC_WEIGHT>
875.57267294
> <PUBCHEM_TOTAL_CHARGE>
0
> <PUBCHEM_HEAVY_ATOM_COUNT>
57
> <PUBCHEM_ATOM_DEF_STEREO_COUNT>
8
> <PUBCHEM_ATOM_UDEF_STEREO_COUNT>
0
> <PUBCHEM_BOND_DEF_STEREO_COUNT>
0
> <PUBCHEM_BOND_UDEF_STEREO_COUNT>
0
> <PUBCHEM_ISOTOPIC_ATOM_COUNT>
0
> <PUBCHEM_COMPONENT_COUNT>
1
> <PUBCHEM_CACTVS_TAUTO_COUNT>
-1
> <PUBCHEM_COORDINATE_TYPE>
1
5
255
> <PUBCHEM_BONDANNOTATIONS>
21  11  6
23  12  6
20  24  5
22  29  5
16  5  6
17  7  5
18  8  5
19  9  6
$$$$
