508272
  -OEChem-10302200282D
 74 77  0     1  0  0  0  0  0999 V2000
    4.5981   -0.7500    0.0000 S   0  0  0  0  0  0  0  0  0  0  0  0
    4.5981    2.2500    0.0000 O   0  0  0  0  0  0  0  0  0  0  0  0
    3.5981   -0.7500    0.0000 O   0  0  0  0  0  0  0  0  0  0  0  0
    5.5981   -0.7500    0.0000 O   0  0  0  0  0  0  0  0  0  0  0  0
    8.0622    3.2500    0.0000 O   0  0  0  0  0  0  0  0  0  0  0  0
    4.5981   -4.7500    0.0000 O   0  0  0  0  0  0  0  0  0  0  0  0
    4.5981    0.2500    0.0000 N   0  0  3  0  0  0  0  0  0  0  0  0
    7.1962    1.7500    0.0000 N   0  0  0  0  0  0  0  0  0  0  0  0
   11.6065    0.4453    0.0000 N   0  0  0  0  0  0  0  0  0  0  0  0
    5.4641    1.7500    0.0000 C   0  0  1  0  0  0  0  0  0  0  0  0
    6.3301    2.2500    0.0000 C   0  0  2  0  0  0  0  0  0  0  0  0
    5.4641    0.7500    0.0000 C   0  0  0  0  0  0  0  0  0  0  0  0
    3.7320    0.7500    0.0000 C   0  0  0  0  0  0  0  0  0  0  0  0
    2.8660    0.2500    0.0000 C   0  0  0  0  0  0  0  0  0  0  0  0
    6.3301    3.2500    0.0000 C   0  0  0  0  0  0  0  0  0  0  0  0
    5.4641    3.7500    0.0000 C   0  0  0  0  0  0  0  0  0  0  0  0
    2.0000    0.7500    0.0000 C   0  0  0  0  0  0  0  0  0  0  0  0
    2.8660   -0.7500    0.0000 C   0  0  0  0  0  0  0  0  0  0  0  0
    4.5981   -1.7500    0.0000 C   0  0  0  0  0  0  0  0  0  0  0  0
    8.0622    2.2500    0.0000 C   0  0  0  0  0  0  0  0  0  0  0  0
    4.5981    3.2500    0.0000 C   0  0  0  0  0  0  0  0  0  0  0  0
    5.4641    4.7500    0.0000 C   0  0  0  0  0  0  0  0  0  0  0  0
    3.7320   -2.2500    0.0000 C   0  0  0  0  0  0  0  0  0  0  0  0
    5.4641   -2.2500    0.0000 C   0  0  0  0  0  0  0  0  0  0  0  0
    8.9282    1.7500    0.0000 C   0  0  0  0  0  0  0  0  0  0  0  0
    3.7320    3.7500    0.0000 C   0  0  0  0  0  0  0  0  0  0  0  0
    4.5981    5.2500    0.0000 C   0  0  0  0  0  0  0  0  0  0  0  0
    3.7320   -3.2500    0.0000 C   0  0  0  0  0  0  0  0  0  0  0  0
    5.4641   -3.2500    0.0000 C   0  0  0  0  0  0  0  0  0  0  0  0
    9.7942    2.2500    0.0000 C   0  0  0  0  0  0  0  0  0  0  0  0
    8.9282    0.7500    0.0000 C   0  0  0  0  0  0  0  0  0  0  0  0
    4.5981   -3.7500    0.0000 C   0  0  0  0  0  0  0  0  0  0  0  0
   10.6603    1.7500    0.0000 C   0  0  0  0  0  0  0  0  0  0  0  0
    3.7320    4.7500    0.0000 C   0  0  0  0  0  0  0  0  0  0  0  0
   10.6603    0.7500    0.0000 C   0  0  0  0  0  0  0  0  0  0  0  0
    9.7942    0.2500    0.0000 C   0  0  0  0  0  0  0  0  0  0  0  0
   11.6065    2.0547    0.0000 C   0  0  0  0  0  0  0  0  0  0  0  0
   12.1901    1.2500    0.0000 C   0  0  0  0  0  0  0  0  0  0  0  0
    3.7320   -5.2500    0.0000 C   0  0  0  0  0  0  0  0  0  0  0  0
    5.4641    2.3700    0.0000 H   0  0  0  0  0  0  0  0  0  0  0  0
    6.8671    2.5600    0.0000 H   0  0  0  0  0  0  0  0  0  0  0  0
    5.6762    0.1674    0.0000 H   0  0  0  0  0  0  0  0  0  0  0  0
    6.0747    0.8577    0.0000 H   0  0  0  0  0  0  0  0  0  0  0  0
    4.1306    1.2250    0.0000 H   0  0  0  0  0  0  0  0  0  0  0  0
    3.3335    1.2250    0.0000 H   0  0  0  0  0  0  0  0  0  0  0  0
    2.8660    0.8700    0.0000 H   0  0  0  0  0  0  0  0  0  0  0  0
    6.9407    3.1423    0.0000 H   0  0  0  0  0  0  0  0  0  0  0  0
    6.5422    3.8326    0.0000 H   0  0  0  0  0  0  0  0  0  0  0  0
    7.1962    1.1300    0.0000 H   0  0  0  0  0  0  0  0  0  0  0  0
    2.3100    1.2869    0.0000 H   0  0  0  0  0  0  0  0  0  0  0  0
    1.4631    1.0600    0.0000 H   0  0  0  0  0  0  0  0  0  0  0  0
    1.6900    0.2131    0.0000 H   0  0  0  0  0  0  0  0  0  0  0  0
    2.2460   -0.7500    0.0000 H   0  0  0  0  0  0  0  0  0  0  0  0
    2.8660   -1.3700    0.0000 H   0  0  0  0  0  0  0  0  0  0  0  0
    3.4860   -0.7500    0.0000 H   0  0  0  0  0  0  0  0  0  0  0  0
    4.0611    1.9400    0.0000 H   0  0  0  0  0  0  0  0  0  0  0  0
    4.5981    2.6300    0.0000 H   0  0  0  0  0  0  0  0  0  0  0  0
    6.0010    5.0600    0.0000 H   0  0  0  0  0  0  0  0  0  0  0  0
    3.1951   -1.9400    0.0000 H   0  0  0  0  0  0  0  0  0  0  0  0
    6.0010   -1.9400    0.0000 H   0  0  0  0  0  0  0  0  0  0  0  0
    3.1951    3.4400    0.0000 H   0  0  0  0  0  0  0  0  0  0  0  0
    4.5981    5.8700    0.0000 H   0  0  0  0  0  0  0  0  0  0  0  0
    3.1951   -3.5600    0.0000 H   0  0  0  0  0  0  0  0  0  0  0  0
    6.0010   -3.5600    0.0000 H   0  0  0  0  0  0  0  0  0  0  0  0
    9.7942    2.8700    0.0000 H   0  0  0  0  0  0  0  0  0  0  0  0
    8.3913    0.4400    0.0000 H   0  0  0  0  0  0  0  0  0  0  0  0
    3.1951    5.0600    0.0000 H   0  0  0  0  0  0  0  0  0  0  0  0
    9.7942   -0.3700    0.0000 H   0  0  0  0  0  0  0  0  0  0  0  0
   11.7991    2.6440    0.0000 H   0  0  0  0  0  0  0  0  0  0  0  0
   11.7991   -0.1441    0.0000 H   0  0  0  0  0  0  0  0  0  0  0  0
   12.8101    1.2500    0.0000 H   0  0  0  0  0  0  0  0  0  0  0  0
    3.4220   -4.7131    0.0000 H   0  0  0  0  0  0  0  0  0  0  0  0
    3.1951   -5.5600    0.0000 H   0  0  0  0  0  0  0  0  0  0  0  0
    4.0420   -5.7869    0.0000 H   0  0  0  0  0  0  0  0  0  0  0  0
  1  3  2  0  0  0  0
  1  4  2  0  0  0  0
  1  7  1  0  0  0  0
  1 19  1  0  0  0  0
 10  2  1  1  0  0  0
  2 56  1  0  0  0  0
  5 20  2  0  0  0  0
  6 32  1  0  0  0  0
  6 39  1  0  0  0  0
  7 12  1  0  0  0  0
  7 13  1  0  0  0  0
 11  8  1  6  0  0  0
  8 20  1  0  0  0  0
  8 49  1  0  0  0  0
  9 35  1  0  0  0  0
  9 38  1  0  0  0  0
  9 70  1  0  0  0  0
 10 11  1  0  0  0  0
 10 12  1  0  0  0  0
 10 40  1  0  0  0  0
 11 15  1  0  0  0  0
 11 41  1  0  0  0  0
 12 42  1  0  0  0  0
 12 43  1  0  0  0  0
 13 14  1  0  0  0  0
 13 44  1  0  0  0  0
 13 45  1  0  0  0  0
 14 17  1  0  0  0  0
 14 18  1  0  0  0  0
 14 46  1  0  0  0  0
 15 16  1  0  0  0  0
 15 47  1  0  0  0  0
 15 48  1  0  0  0  0
 16 21  2  0  0  0  0
 16 22  1  0  0  0  0
 17 50  1  0  0  0  0
 17 51  1  0  0  0  0
 17 52  1  0  0  0  0
 18 53  1  0  0  0  0
 18 54  1  0  0  0  0
 18 55  1  0  0  0  0
 19 23  2  0  0  0  0
 19 24  1  0  0  0  0
 20 25  1  0  0  0  0
 21 26  1  0  0  0  0
 21 57  1  0  0  0  0
 22 27  2  0  0  0  0
 22 58  1  0  0  0  0
 23 28  1  0  0  0  0
 23 59  1  0  0  0  0
 24 29  2  0  0  0  0
 24 60  1  0  0  0  0
 25 30  2  0  0  0  0
 25 31  1  0  0  0  0
 26 34  2  0  0  0  0
 26 61  1  0  0  0  0
 27 34  1  0  0  0  0
 27 62  1  0  0  0  0
 28 32  2  0  0  0  0
 28 63  1  0  0  0  0
 29 32  1  0  0  0  0
 29 64  1  0  0  0  0
 30 33  1  0  0  0  0
 30 65  1  0  0  0  0
 31 36  2  0  0  0  0
 31 66  1  0  0  0  0
 33 35  2  0  0  0  0
 33 37  1  0  0  0  0
 34 67  1  0  0  0  0
 35 36  1  0  0  0  0
 36 68  1  0  0  0  0
 37 38  2  0  0  0  0
 37 69  1  0  0  0  0
 38 71  1  0  0  0  0
 39 72  1  0  0  0  0
 39 73  1  0  0  0  0
 39 74  1  0  0  0  0
M  END
> <PUBCHEM_COMPOUND_CID>
508272
> <PUBCHEM_COMPOUND_CANONICALIZED>
1
> <PUBCHEM_CACTVS_COMPLEXITY>
864
> <PUBCHEM_CACTVS_HBOND_ACCEPTOR>
6
> <PUBCHEM_CACTVS_HBOND_DONOR>
3
> <PUBCHEM_CACTVS_ROTATABLE_BOND>
12
> <PUBCHEM_CACTVS_SUBSKEYS>
AAADcfB7OABAAAAAAAAAAAAAAAAAAWAAAAAwYMAAAAAAAFgB9AAAHgQQSAAADTzh3gY+x/LJlgKoAzV3VHDCiDA1IiAI2bk+bNgONvLE9ZuEcShk1hHY6YeYyeCeCIACAAACAAARAAQAAAQAAAAAAAAAAA==
> <PUBCHEM_IUPAC_OPENEYE_NAME>
N-[(1S,2R)-1-benzyl-2-hydroxy-3-[isobutyl-(4-methoxyphenyl)sulfonyl-amino]propyl]-1H-indole-5-carboxamide
> <PUBCHEM_IUPAC_CAS_NAME>
N-[(2S,3R)-3-hydroxy-4-[(4-methoxyphenyl)sulfonyl-(2-methylpropyl)amino]-1-phenylbutan-2-yl]-1H-indole-5-carboxamide
> <PUBCHEM_IUPAC_NAME_MARKUP>
<I>N</I>-[(2<I>S</I>,3<I>R</I>)-3-hydroxy-4-[(4-methoxyphenyl)sulfonyl-(2-methylpropyl)amino]-1-phenylbutan-2-yl]-1<I>H</I>-indole-5-carboxamide
> <PUBCHEM_IUPAC_NAME>
N-[(2S,3R)-3-hydroxy-4-[(4-methoxyphenyl)sulfonyl-(2-methylpropyl)amino]-1-phenylbutan-2-yl]-1H-indole-5-carboxamide
> <PUBCHEM_IUPAC_SYSTEMATIC_NAME>
N-[(2S,3R)-4-[(4-methoxyphenyl)sulfonyl-(2-methylpropyl)amino]-3-oxidanyl-1-phenyl-butan-2-yl]-1H-indole-5-carboxamide
> <PUBCHEM_IUPAC_TRADITIONAL_NAME>
N-[(1S,2R)-1-benzyl-2-hydroxy-3-[isobutyl-(4-methoxyphenyl)sulfonyl-amino]propyl]-1H-indole-5-carboxamide
> <PUBCHEM_IUPAC_INCHI>
InChI=1S/C30H35N3O5S/c1-21(2)19-33(39(36,37)26-12-10-25(38-3)11-13-26)20-29(34)28(17-22-7-5-4-6-8-22)32-30(35)24-9-14-27-23(18-24)15-16-31-27/h4-16,18,21,28-29,31,34H,17,19-20H2,1-3H3,(H,32,35)/t28-,29+/m0/s1
> <PUBCHEM_IUPAC_INCHIKEY>
COKFBOBKZVDAQU-URLMMPGGSA-N
> <PUBCHEM_XLOGP3_AA>
4.9
> <PUBCHEM_EXACT_MASS>
549.22974240
> <PUBCHEM_MOLECULAR_FORMULA>
C30H35N3O5S
> <PUBCHEM_MOLECULAR_WEIGHT>
549.7
> <PUBCHEM_OPENEYE_CAN_SMILES>
CC(C)CN(CC(C(CC1=CC=CC=C1)NC(=O)C2=CC3=C(C=C2)NC=C3)O)S(=O)(=O)C4=CC=C(C=C4)OC
> <PUBCHEM_OPENEYE_ISO_SMILES>
CC(C)CN(C[C@H]([C@H](CC1=CC=CC=C1)NC(=O)C2=CC3=C(C=C2)NC=C3)O)S(=O)(=O)C4=CC=C(C=C4)OC
> <PUBCHEM_CACTVS_TPSA>
120
> <PUBCHEM_MONOISOTOPIC_WEIGHT>
549.22974240
> <PUBCHEM_TOTAL_CHARGE>
0
> <PUBCHEM_HEAVY_ATOM_COUNT>
39
> <PUBCHEM_ATOM_DEF_STEREO_COUNT>
2
> <PUBCHEM_ATOM_UDEF_STEREO_COUNT>
0
> <PUBCHEM_BOND_DEF_STEREO_COUNT>
0
> <PUBCHEM_BOND_UDEF_STEREO_COUNT>
0
> <PUBCHEM_ISOTOPIC_ATOM_COUNT>
0
> <PUBCHEM_COMPONENT_COUNT>
1
> <PUBCHEM_CACTVS_TAUTO_COUNT>
-1
> <PUBCHEM_COORDINATE_TYPE>
1
5
255
> <PUBCHEM_BONDANNOTATIONS>
16  21  8
16  22  8
19  23  8
19  24  8
10  2  5
21  26  8
22  27  8
23  28  8
24  29  8
25  30  8
25  31  8
26  34  8
27  34  8
28  32  8
29  32  8
30  33  8
31  36  8
33  35  8
33  37  8
35  36  8
37  38  8
11  8  6
9  35  8
9  38  8
$$$$
