508280
  -OEChem-10302200282D
 76 78  0     1  0  0  0  0  0999 V2000
    7.3301    1.5000    0.0000 S   0  0  0  0  0  0  0  0  0  0  0  0
    3.0000   -4.0000    0.0000 S   0  0  0  0  0  0  0  0  0  0  0  0
    4.7320    3.0000    0.0000 O   0  0  0  0  0  0  0  0  0  0  0  0
    7.8301    2.3660    0.0000 O   0  0  0  0  0  0  0  0  0  0  0  0
    6.8301    0.6340    0.0000 O   0  0  0  0  0  0  0  0  0  0  0  0
    2.1340    0.5000    0.0000 O   0  0  0  0  0  0  0  0  0  0  0  0
   10.7942   -0.5000    0.0000 O   0  0  0  0  0  0  0  0  0  0  0  0
    2.0000   -4.0000    0.0000 O   0  0  0  0  0  0  0  0  0  0  0  0
    4.0000   -4.0000    0.0000 O   0  0  0  0  0  0  0  0  0  0  0  0
    6.4641    2.0000    0.0000 N   0  0  3  0  0  0  0  0  0  0  0  0
    3.8660    0.5000    0.0000 N   0  0  0  0  0  0  0  0  0  0  0  0
    4.7320    2.0000    0.0000 C   0  0  1  0  0  0  0  0  0  0  0  0
    3.8660    1.5000    0.0000 C   0  0  2  0  0  0  0  0  0  0  0  0
    5.5981    1.5000    0.0000 C   0  0  0  0  0  0  0  0  0  0  0  0
    6.4641    3.0000    0.0000 C   0  0  0  0  0  0  0  0  0  0  0  0
    7.3301    3.5000    0.0000 C   0  0  0  0  0  0  0  0  0  0  0  0
    3.0000    2.0000    0.0000 C   0  0  0  0  0  0  0  0  0  0  0  0
    3.0000    3.0000    0.0000 C   0  0  0  0  0  0  0  0  0  0  0  0
    7.3301    4.5000    0.0000 C   0  0  0  0  0  0  0  0  0  0  0  0
    8.1962    3.0000    0.0000 C   0  0  0  0  0  0  0  0  0  0  0  0
    8.1962    1.0000    0.0000 C   0  0  0  0  0  0  0  0  0  0  0  0
    3.0000    0.0000    0.0000 C   0  0  0  0  0  0  0  0  0  0  0  0
    2.1340    3.5000    0.0000 C   0  0  0  0  0  0  0  0  0  0  0  0
    3.8660    3.5000    0.0000 C   0  0  0  0  0  0  0  0  0  0  0  0
    9.0622    1.5000    0.0000 C   0  0  0  0  0  0  0  0  0  0  0  0
    8.1962    0.0000    0.0000 C   0  0  0  0  0  0  0  0  0  0  0  0
    3.0000   -1.0000    0.0000 C   0  0  0  0  0  0  0  0  0  0  0  0
    2.1340    4.5000    0.0000 C   0  0  0  0  0  0  0  0  0  0  0  0
    3.8660    4.5000    0.0000 C   0  0  0  0  0  0  0  0  0  0  0  0
    9.9282    1.0000    0.0000 C   0  0  0  0  0  0  0  0  0  0  0  0
    9.0622   -0.5000    0.0000 C   0  0  0  0  0  0  0  0  0  0  0  0
    9.9282    0.0000    0.0000 C   0  0  0  0  0  0  0  0  0  0  0  0
    3.0000    5.0000    0.0000 C   0  0  0  0  0  0  0  0  0  0  0  0
    3.8660   -1.5000    0.0000 C   0  0  0  0  0  0  0  0  0  0  0  0
    2.1340   -1.5000    0.0000 C   0  0  0  0  0  0  0  0  0  0  0  0
    3.0000   -3.0000    0.0000 C   0  0  0  0  0  0  0  0  0  0  0  0
    3.8660   -2.5000    0.0000 C   0  0  0  0  0  0  0  0  0  0  0  0
    2.1340   -2.5000    0.0000 C   0  0  0  0  0  0  0  0  0  0  0  0
    3.0000   -5.0000    0.0000 C   0  0  0  0  0  0  0  0  0  0  0  0
   11.6603    0.0000    0.0000 C   0  0  0  0  0  0  0  0  0  0  0  0
    5.2690    2.3100    0.0000 H   0  0  0  0  0  0  0  0  0  0  0  0
    4.4030    1.1900    0.0000 H   0  0  0  0  0  0  0  0  0  0  0  0
    5.1996    1.0250    0.0000 H   0  0  0  0  0  0  0  0  0  0  0  0
    5.9966    1.0250    0.0000 H   0  0  0  0  0  0  0  0  0  0  0  0
    6.2520    3.5826    0.0000 H   0  0  0  0  0  0  0  0  0  0  0  0
    5.8535    2.8923    0.0000 H   0  0  0  0  0  0  0  0  0  0  0  0
    7.3301    2.8800    0.0000 H   0  0  0  0  0  0  0  0  0  0  0  0
    2.3894    2.1077    0.0000 H   0  0  0  0  0  0  0  0  0  0  0  0
    2.7880    1.4174    0.0000 H   0  0  0  0  0  0  0  0  0  0  0  0
    4.4030    0.1900    0.0000 H   0  0  0  0  0  0  0  0  0  0  0  0
    7.9501    4.5000    0.0000 H   0  0  0  0  0  0  0  0  0  0  0  0
    7.3301    5.1200    0.0000 H   0  0  0  0  0  0  0  0  0  0  0  0
    6.7101    4.5000    0.0000 H   0  0  0  0  0  0  0  0  0  0  0  0
    7.8862    2.4631    0.0000 H   0  0  0  0  0  0  0  0  0  0  0  0
    8.7331    2.6900    0.0000 H   0  0  0  0  0  0  0  0  0  0  0  0
    8.5062    3.5369    0.0000 H   0  0  0  0  0  0  0  0  0  0  0  0
    5.2690    3.3100    0.0000 H   0  0  0  0  0  0  0  0  0  0  0  0
    1.5970    3.1900    0.0000 H   0  0  0  0  0  0  0  0  0  0  0  0
    4.4030    3.1900    0.0000 H   0  0  0  0  0  0  0  0  0  0  0  0
    9.0622    2.1200    0.0000 H   0  0  0  0  0  0  0  0  0  0  0  0
    7.6592   -0.3100    0.0000 H   0  0  0  0  0  0  0  0  0  0  0  0
    1.5970    4.8100    0.0000 H   0  0  0  0  0  0  0  0  0  0  0  0
    4.4030    4.8100    0.0000 H   0  0  0  0  0  0  0  0  0  0  0  0
   10.4651    1.3100    0.0000 H   0  0  0  0  0  0  0  0  0  0  0  0
    9.0622   -1.1200    0.0000 H   0  0  0  0  0  0  0  0  0  0  0  0
    3.0000    5.6200    0.0000 H   0  0  0  0  0  0  0  0  0  0  0  0
    4.4030   -1.1900    0.0000 H   0  0  0  0  0  0  0  0  0  0  0  0
    1.5970   -1.1900    0.0000 H   0  0  0  0  0  0  0  0  0  0  0  0
    4.4030   -2.8100    0.0000 H   0  0  0  0  0  0  0  0  0  0  0  0
    1.5970   -2.8100    0.0000 H   0  0  0  0  0  0  0  0  0  0  0  0
    2.3800   -5.0000    0.0000 H   0  0  0  0  0  0  0  0  0  0  0  0
    3.0000   -5.6200    0.0000 H   0  0  0  0  0  0  0  0  0  0  0  0
    3.6200   -5.0000    0.0000 H   0  0  0  0  0  0  0  0  0  0  0  0
   11.9703   -0.5369    0.0000 H   0  0  0  0  0  0  0  0  0  0  0  0
   12.1972    0.3100    0.0000 H   0  0  0  0  0  0  0  0  0  0  0  0
   11.3503    0.5369    0.0000 H   0  0  0  0  0  0  0  0  0  0  0  0
  1  4  2  0  0  0  0
  1  5  2  0  0  0  0
  1 10  1  0  0  0  0
  1 21  1  0  0  0  0
  2  8  2  0  0  0  0
  2  9  2  0  0  0  0
  2 36  1  0  0  0  0
  2 39  1  0  0  0  0
 12  3  1  6  0  0  0
  3 57  1  0  0  0  0
  6 22  2  0  0  0  0
  7 32  1  0  0  0  0
  7 40  1  0  0  0  0
 10 14  1  0  0  0  0
 10 15  1  0  0  0  0
 13 11  1  1  0  0  0
 11 22  1  0  0  0  0
 11 50  1  0  0  0  0
 12 13  1  0  0  0  0
 12 14  1  0  0  0  0
 12 41  1  0  0  0  0
 13 17  1  0  0  0  0
 13 42  1  0  0  0  0
 14 43  1  0  0  0  0
 14 44  1  0  0  0  0
 15 16  1  0  0  0  0
 15 45  1  0  0  0  0
 15 46  1  0  0  0  0
 16 19  1  0  0  0  0
 16 20  1  0  0  0  0
 16 47  1  0  0  0  0
 17 18  1  0  0  0  0
 17 48  1  0  0  0  0
 17 49  1  0  0  0  0
 18 23  2  0  0  0  0
 18 24  1  0  0  0  0
 19 51  1  0  0  0  0
 19 52  1  0  0  0  0
 19 53  1  0  0  0  0
 20 54  1  0  0  0  0
 20 55  1  0  0  0  0
 20 56  1  0  0  0  0
 21 25  2  0  0  0  0
 21 26  1  0  0  0  0
 22 27  1  0  0  0  0
 23 28  1  0  0  0  0
 23 58  1  0  0  0  0
 24 29  2  0  0  0  0
 24 59  1  0  0  0  0
 25 30  1  0  0  0  0
 25 60  1  0  0  0  0
 26 31  2  0  0  0  0
 26 61  1  0  0  0  0
 27 34  2  0  0  0  0
 27 35  1  0  0  0  0
 28 33  2  0  0  0  0
 28 62  1  0  0  0  0
 29 33  1  0  0  0  0
 29 63  1  0  0  0  0
 30 32  2  0  0  0  0
 30 64  1  0  0  0  0
 31 32  1  0  0  0  0
 31 65  1  0  0  0  0
 33 66  1  0  0  0  0
 34 37  1  0  0  0  0
 34 67  1  0  0  0  0
 35 38  2  0  0  0  0
 35 68  1  0  0  0  0
 36 37  2  0  0  0  0
 36 38  1  0  0  0  0
 37 69  1  0  0  0  0
 38 70  1  0  0  0  0
 39 71  1  0  0  0  0
 39 72  1  0  0  0  0
 39 73  1  0  0  0  0
 40 74  1  0  0  0  0
 40 75  1  0  0  0  0
 40 76  1  0  0  0  0
M  END
> <PUBCHEM_COMPOUND_CID>
508280
> <PUBCHEM_COMPOUND_CANONICALIZED>
1
> <PUBCHEM_CACTVS_COMPLEXITY>
984
> <PUBCHEM_CACTVS_HBOND_ACCEPTOR>
8
> <PUBCHEM_CACTVS_HBOND_DONOR>
2
> <PUBCHEM_CACTVS_ROTATABLE_BOND>
13
> <PUBCHEM_CACTVS_SUBSKEYS>
AAADcfB7OABgAAAAAAAAAAAAAAAAAAAAAAAwYMAAAAAAAAABUAAAHgQQSAAADTzh2AayB4LABgqIAiFSEHDCCBAkKBAIiJkODMgONjKk9RuEcShk1hGYqYeYyKCOEIAAAAAAAAAhAAAAAAAAAAAAAAAAAA==
> <PUBCHEM_IUPAC_OPENEYE_NAME>
N-[(1S,2R)-1-benzyl-2-hydroxy-3-[isobutyl-(4-methoxyphenyl)sulfonyl-amino]propyl]-4-methylsulfonyl-benzamide
> <PUBCHEM_IUPAC_CAS_NAME>
N-[(2S,3R)-3-hydroxy-4-[(4-methoxyphenyl)sulfonyl-(2-methylpropyl)amino]-1-phenylbutan-2-yl]-4-methylsulfonylbenzamide
> <PUBCHEM_IUPAC_NAME_MARKUP>
<I>N</I>-[(2<I>S</I>,3<I>R</I>)-3-hydroxy-4-[(4-methoxyphenyl)sulfonyl-(2-methylpropyl)amino]-1-phenylbutan-2-yl]-4-methylsulfonylbenzamide
> <PUBCHEM_IUPAC_NAME>
N-[(2S,3R)-3-hydroxy-4-[(4-methoxyphenyl)sulfonyl-(2-methylpropyl)amino]-1-phenylbutan-2-yl]-4-methylsulfonylbenzamide
> <PUBCHEM_IUPAC_SYSTEMATIC_NAME>
N-[(2S,3R)-4-[(4-methoxyphenyl)sulfonyl-(2-methylpropyl)amino]-3-oxidanyl-1-phenyl-butan-2-yl]-4-methylsulfonyl-benzamide
> <PUBCHEM_IUPAC_TRADITIONAL_NAME>
N-[(1S,2R)-1-benzyl-2-hydroxy-3-[isobutyl-(4-methoxyphenyl)sulfonyl-amino]propyl]-4-mesyl-benzamide
> <PUBCHEM_IUPAC_INCHI>
InChI=1S/C29H36N2O7S2/c1-21(2)19-31(40(36,37)26-16-12-24(38-3)13-17-26)20-28(32)27(18-22-8-6-5-7-9-22)30-29(33)23-10-14-25(15-11-23)39(4,34)35/h5-17,21,27-28,32H,18-20H2,1-4H3,(H,30,33)/t27-,28+/m0/s1
> <PUBCHEM_IUPAC_INCHIKEY>
MEZBCLVTZWQXOH-WUFINQPMSA-N
> <PUBCHEM_XLOGP3_AA>
4
> <PUBCHEM_EXACT_MASS>
588.19639384
> <PUBCHEM_MOLECULAR_FORMULA>
C29H36N2O7S2
> <PUBCHEM_MOLECULAR_WEIGHT>
588.7
> <PUBCHEM_OPENEYE_CAN_SMILES>
CC(C)CN(CC(C(CC1=CC=CC=C1)NC(=O)C2=CC=C(C=C2)S(=O)(=O)C)O)S(=O)(=O)C3=CC=C(C=C3)OC
> <PUBCHEM_OPENEYE_ISO_SMILES>
CC(C)CN(C[C@H]([C@H](CC1=CC=CC=C1)NC(=O)C2=CC=C(C=C2)S(=O)(=O)C)O)S(=O)(=O)C3=CC=C(C=C3)OC
> <PUBCHEM_CACTVS_TPSA>
147
> <PUBCHEM_MONOISOTOPIC_WEIGHT>
588.19639384
> <PUBCHEM_TOTAL_CHARGE>
0
> <PUBCHEM_HEAVY_ATOM_COUNT>
40
> <PUBCHEM_ATOM_DEF_STEREO_COUNT>
2
> <PUBCHEM_ATOM_UDEF_STEREO_COUNT>
0
> <PUBCHEM_BOND_DEF_STEREO_COUNT>
0
> <PUBCHEM_BOND_UDEF_STEREO_COUNT>
0
> <PUBCHEM_ISOTOPIC_ATOM_COUNT>
0
> <PUBCHEM_COMPONENT_COUNT>
1
> <PUBCHEM_CACTVS_TAUTO_COUNT>
-1
> <PUBCHEM_COORDINATE_TYPE>
1
5
255
> <PUBCHEM_BONDANNOTATIONS>
13  11  5
18  23  8
18  24  8
21  25  8
21  26  8
23  28  8
24  29  8
25  30  8
26  31  8
27  34  8
27  35  8
28  33  8
29  33  8
12  3  6
30  32  8
31  32  8
34  37  8
35  38  8
36  37  8
36  38  8
$$$$
