508216
  -OEChem-10302200282D
 36 37  0     1  0  0  0  0  0999 V2000
    5.0298   -0.7063    0.0000 O   0  0  0  0  0  0  0  0  0  0  0  0
    2.4608   -0.3973    0.0000 O   0  0  0  0  0  0  0  0  0  0  0  0
    6.3031   -2.3618    0.0000 O   0  0  0  0  0  0  0  0  0  0  0  0
    5.9529    0.8815    0.0000 O   0  0  0  0  0  0  0  0  0  0  0  0
    4.2208    3.8815    0.0000 O   0  0  0  0  0  0  0  0  0  0  0  0
    4.2208    0.8815    0.0000 N   0  0  0  0  0  0  0  0  0  0  0  0
    3.5398   -3.3799    0.0000 N   0  0  0  0  0  0  0  0  0  0  0  0
    5.0868    2.3815    0.0000 N   0  0  0  0  0  0  0  0  0  0  0  0
    3.7208   -1.6573    0.0000 C   0  0  1  0  0  0  0  0  0  0  0  0
    3.4118   -0.7063    0.0000 C   0  0  2  0  0  0  0  0  0  0  0  0
    4.7208   -1.6573    0.0000 C   0  0  1  0  0  0  0  0  0  0  0  0
    4.2208   -0.1185    0.0000 C   0  0  1  0  0  0  0  0  0  0  0  0
    3.1330   -2.4664    0.0000 C   0  0  0  0  0  0  0  0  0  0  0  0
    5.3086   -2.4664    0.0000 C   0  0  0  0  0  0  0  0  0  0  0  0
    3.3548    1.3815    0.0000 C   0  0  0  0  0  0  0  0  0  0  0  0
    5.0868    1.3815    0.0000 C   0  0  0  0  0  0  0  0  0  0  0  0
    3.3548    2.3815    0.0000 C   0  0  0  0  0  0  0  0  0  0  0  0
    4.2208    2.8815    0.0000 C   0  0  0  0  0  0  0  0  0  0  0  0
    2.4888    2.8815    0.0000 C   0  0  0  0  0  0  0  0  0  0  0  0
    4.0023   -2.2098    0.0000 H   0  0  0  0  0  0  0  0  0  0  0  0
    3.3148   -0.0939    0.0000 H   0  0  0  0  0  0  0  0  0  0  0  0
    5.3332   -1.5604    0.0000 H   0  0  0  0  0  0  0  0  0  0  0  0
    3.6684    0.1630    0.0000 H   0  0  0  0  0  0  0  0  0  0  0  0
    2.7024   -2.0204    0.0000 H   0  0  0  0  0  0  0  0  0  0  0  0
    2.6190   -2.8131    0.0000 H   0  0  0  0  0  0  0  0  0  0  0  0
    4.7514   -2.7382    0.0000 H   0  0  0  0  0  0  0  0  0  0  0  0
    5.4795   -3.0623    0.0000 H   0  0  0  0  0  0  0  0  0  0  0  0
    2.0000   -0.8121    0.0000 H   0  0  0  0  0  0  0  0  0  0  0  0
    2.8179    1.0715    0.0000 H   0  0  0  0  0  0  0  0  0  0  0  0
    3.1754   -3.8815    0.0000 H   0  0  0  0  0  0  0  0  0  0  0  0
    4.1564   -3.4447    0.0000 H   0  0  0  0  0  0  0  0  0  0  0  0
    6.6676   -2.8634    0.0000 H   0  0  0  0  0  0  0  0  0  0  0  0
    5.6238    2.6915    0.0000 H   0  0  0  0  0  0  0  0  0  0  0  0
    2.7988    3.4184    0.0000 H   0  0  0  0  0  0  0  0  0  0  0  0
    1.9518    3.1915    0.0000 H   0  0  0  0  0  0  0  0  0  0  0  0
    2.1788    2.3446    0.0000 H   0  0  0  0  0  0  0  0  0  0  0  0
  1 11  1  0  0  0  0
  1 12  1  0  0  0  0
 10  2  1  1  0  0  0
  2 28  1  0  0  0  0
  3 14  1  0  0  0  0
  3 32  1  0  0  0  0
  4 16  2  0  0  0  0
  5 18  2  0  0  0  0
 12  6  1  6  0  0  0
  6 15  1  0  0  0  0
  6 16  1  0  0  0  0
  7 13  1  0  0  0  0
  7 30  1  0  0  0  0
  7 31  1  0  0  0  0
  8 16  1  0  0  0  0
  8 18  1  0  0  0  0
  8 33  1  0  0  0  0
  9 10  1  0  0  0  0
  9 11  1  0  0  0  0
  9 13  1  1  0  0  0
  9 20  1  0  0  0  0
 10 12  1  0  0  0  0
 10 21  1  0  0  0  0
 11 14  1  6  0  0  0
 11 22  1  0  0  0  0
 12 23  1  0  0  0  0
 13 24  1  0  0  0  0
 13 25  1  0  0  0  0
 14 26  1  0  0  0  0
 14 27  1  0  0  0  0
 15 17  2  0  0  0  0
 15 29  1  0  0  0  0
 17 18  1  0  0  0  0
 17 19  1  0  0  0  0
 19 34  1  0  0  0  0
 19 35  1  0  0  0  0
 19 36  1  0  0  0  0
M  END
> <PUBCHEM_COMPOUND_CID>
508216
> <PUBCHEM_COMPOUND_CANONICALIZED>
1
> <PUBCHEM_CACTVS_COMPLEXITY>
425
> <PUBCHEM_CACTVS_HBOND_ACCEPTOR>
6
> <PUBCHEM_CACTVS_HBOND_DONOR>
4
> <PUBCHEM_CACTVS_ROTATABLE_BOND>
3
> <PUBCHEM_CACTVS_SUBSKEYS>
AAADceBzOAAAAAAAAAAAAAAAAAAAASAAAAAgAAAAAAAAAAAAAAAAHgAQCAAADRThgAYDAAPABgCIAgFWUACAAAAAAAAAAIEIAECDEAIAgQAOQAAPFyITAMDwMAIKAAAAAAAAAAAAAAAAAAAAAAAAAAAAAA==
> <PUBCHEM_IUPAC_OPENEYE_NAME>
1-[(2R,3R,4S,5S)-4-(aminomethyl)-3-hydroxy-5-(hydroxymethyl)tetrahydrofuran-2-yl]-5-methyl-pyrimidine-2,4-dione
> <PUBCHEM_IUPAC_CAS_NAME>
1-[(2R,3R,4S,5S)-4-(aminomethyl)-3-hydroxy-5-(hydroxymethyl)-2-oxolanyl]-5-methylpyrimidine-2,4-dione
> <PUBCHEM_IUPAC_NAME_MARKUP>
1-[(2<I>R</I>,3<I>R</I>,4<I>S</I>,5<I>S</I>)-4-(aminomethyl)-3-hydroxy-5-(hydroxymethyl)oxolan-2-yl]-5-methylpyrimidine-2,4-dione
> <PUBCHEM_IUPAC_NAME>
1-[(2R,3R,4S,5S)-4-(aminomethyl)-3-hydroxy-5-(hydroxymethyl)oxolan-2-yl]-5-methylpyrimidine-2,4-dione
> <PUBCHEM_IUPAC_SYSTEMATIC_NAME>
1-[(2R,3R,4S,5S)-4-(aminomethyl)-5-(hydroxymethyl)-3-oxidanyl-oxolan-2-yl]-5-methyl-pyrimidine-2,4-dione
> <PUBCHEM_IUPAC_TRADITIONAL_NAME>
1-[(2R,3R,4S,5S)-4-(aminomethyl)-3-hydroxy-5-methylol-tetrahydrofuran-2-yl]-5-methyl-pyrimidine-2,4-quinone
> <PUBCHEM_IUPAC_INCHI>
InChI=1S/C11H17N3O5/c1-5-3-14(11(18)13-9(5)17)10-8(16)6(2-12)7(4-15)19-10/h3,6-8,10,15-16H,2,4,12H2,1H3,(H,13,17,18)/t6-,7-,8-,10-/m1/s1
> <PUBCHEM_IUPAC_INCHIKEY>
JYDMCTQCWURNLL-FDDDBJFASA-N
> <PUBCHEM_XLOGP3>
-2
> <PUBCHEM_EXACT_MASS>
271.11682065
> <PUBCHEM_MOLECULAR_FORMULA>
C11H17N3O5
> <PUBCHEM_MOLECULAR_WEIGHT>
271.27
> <PUBCHEM_OPENEYE_CAN_SMILES>
CC1=CN(C(=O)NC1=O)C2C(C(C(O2)CO)CN)O
> <PUBCHEM_OPENEYE_ISO_SMILES>
CC1=CN(C(=O)NC1=O)[C@H]2[C@@H]([C@@H]([C@H](O2)CO)CN)O
> <PUBCHEM_CACTVS_TPSA>
125
> <PUBCHEM_MONOISOTOPIC_WEIGHT>
271.11682065
> <PUBCHEM_TOTAL_CHARGE>
0
> <PUBCHEM_HEAVY_ATOM_COUNT>
19
> <PUBCHEM_ATOM_DEF_STEREO_COUNT>
4
> <PUBCHEM_ATOM_UDEF_STEREO_COUNT>
0
> <PUBCHEM_BOND_DEF_STEREO_COUNT>
0
> <PUBCHEM_BOND_UDEF_STEREO_COUNT>
0
> <PUBCHEM_ISOTOPIC_ATOM_COUNT>
0
> <PUBCHEM_COMPONENT_COUNT>
1
> <PUBCHEM_CACTVS_TAUTO_COUNT>
-1
> <PUBCHEM_COORDINATE_TYPE>
1
5
255
> <PUBCHEM_BONDANNOTATIONS>
11  14  6
15  17  8
17  18  8
10  2  5
12  6  6
6  15  8
6  16  8
8  16  8
8  18  8
9  13  5
$$$$
