508234
  -OEChem-10302200282D
 78 80  0     1  0  0  0  0  0999 V2000
    4.3511    2.0846    0.0000 S   0  0  0  0  0  0  0  0  0  0  0  0
    6.1200   -0.4470    0.0000 O   0  0  0  0  0  0  0  0  0  0  0  0
    9.3480   -2.4064    0.0000 O   0  0  0  0  0  0  0  0  0  0  0  0
    7.3800   -1.7070    0.0000 O   0  0  0  0  0  0  0  0  0  0  0  0
   11.1081   -2.6852    0.0000 O   0  0  0  0  0  0  0  0  0  0  0  0
    3.8599   -1.7070    0.0000 O   0  0  0  0  0  0  0  0  0  0  0  0
    5.6200   -2.9858    0.0000 O   0  0  0  0  0  0  0  0  0  0  0  0
    8.2602   -4.7543    0.0000 O   0  0  0  0  0  0  0  0  0  0  0  0
   10.4358   -4.7543    0.0000 O   0  0  0  0  0  0  0  0  0  0  0  0
    5.1602    2.6724    0.0000 O   0  0  0  0  0  0  0  0  0  0  0  0
    3.5421    1.4968    0.0000 O   0  0  0  0  0  0  0  0  0  0  0  0
    4.9389    1.2756    0.0000 N   0  0  0  0  0  0  0  0  0  0  0  0
    8.5390   -2.9942    0.0000 C   0  0  1  0  0  0  0  0  0  0  0  0
    4.8110   -1.3980    0.0000 C   0  0  2  0  0  0  0  0  0  0  0  0
    5.1200   -0.4470    0.0000 C   0  0  1  0  0  0  0  0  0  0  0  0
    5.6200   -1.9858    0.0000 C   0  0  1  0  0  0  0  0  0  0  0  0
    6.4290   -1.3980    0.0000 C   0  0  2  0  0  0  0  0  0  0  0  0
    8.8480   -3.9453    0.0000 C   0  0  2  0  0  0  0  0  0  0  0  0
    9.8480   -3.9453    0.0000 C   0  0  1  0  0  0  0  0  0  0  0  0
   10.1571   -2.9942    0.0000 C   0  0  2  0  0  0  0  0  0  0  0  0
    7.5880   -2.6852    0.0000 C   0  0  0  0  0  0  0  0  0  0  0  0
    4.5322    0.3620    0.0000 C   0  0  0  0  0  0  0  0  0  0  0  0
   11.3160   -1.7070    0.0000 C   0  0  0  0  0  0  0  0  0  0  0  0
   12.2671   -1.3980    0.0000 C   0  0  0  0  0  0  0  0  0  0  0  0
   12.4750   -0.4199    0.0000 C   0  0  0  0  0  0  0  0  0  0  0  0
   13.4260   -0.1109    0.0000 C   0  0  0  0  0  0  0  0  0  0  0  0
   13.6340    0.8673    0.0000 C   0  0  0  0  0  0  0  0  0  0  0  0
    3.7634    2.8936    0.0000 C   0  0  0  0  0  0  0  0  0  0  0  0
   14.5850    1.1763    0.0000 C   0  0  0  0  0  0  0  0  0  0  0  0
   14.7929    2.1545    0.0000 C   0  0  0  0  0  0  0  0  0  0  0  0
    4.1701    3.8072    0.0000 C   0  0  0  0  0  0  0  0  0  0  0  0
    2.7688    2.7891    0.0000 C   0  0  0  0  0  0  0  0  0  0  0  0
    3.5823    4.6162    0.0000 C   0  0  0  0  0  0  0  0  0  0  0  0
    2.1810    3.5981    0.0000 C   0  0  0  0  0  0  0  0  0  0  0  0
   15.7440    2.4635    0.0000 C   0  0  0  0  0  0  0  0  0  0  0  0
    2.5878    4.5117    0.0000 C   0  0  0  0  0  0  0  0  0  0  0  0
    2.0000    5.3207    0.0000 C   0  0  0  0  0  0  0  0  0  0  0  0
    8.4420   -2.3818    0.0000 H   0  0  0  0  0  0  0  0  0  0  0  0
    4.7140   -2.0104    0.0000 H   0  0  0  0  0  0  0  0  0  0  0  0
    5.4014    0.1055    0.0000 H   0  0  0  0  0  0  0  0  0  0  0  0
    5.0676   -2.2673    0.0000 H   0  0  0  0  0  0  0  0  0  0  0  0
    6.5260   -2.0104    0.0000 H   0  0  0  0  0  0  0  0  0  0  0  0
    8.2357   -3.8483    0.0000 H   0  0  0  0  0  0  0  0  0  0  0  0
    9.5666   -4.4977    0.0000 H   0  0  0  0  0  0  0  0  0  0  0  0
   10.5955   -3.4326    0.0000 H   0  0  0  0  0  0  0  0  0  0  0  0
    6.9683   -2.7068    0.0000 H   0  0  0  0  0  0  0  0  0  0  0  0
    7.5017   -3.2992    0.0000 H   0  0  0  0  0  0  0  0  0  0  0  0
    4.0182    0.7087    0.0000 H   0  0  0  0  0  0  0  0  0  0  0  0
    4.1015   -0.0839    0.0000 H   0  0  0  0  0  0  0  0  0  0  0  0
    3.3992   -1.2922    0.0000 H   0  0  0  0  0  0  0  0  0  0  0  0
    5.0830   -3.2958    0.0000 H   0  0  0  0  0  0  0  0  0  0  0  0
    8.5124   -5.3207    0.0000 H   0  0  0  0  0  0  0  0  0  0  0  0
    5.5555    1.3404    0.0000 H   0  0  0  0  0  0  0  0  0  0  0  0
   11.0524   -4.6895    0.0000 H   0  0  0  0  0  0  0  0  0  0  0  0
   11.2297   -1.0931    0.0000 H   0  0  0  0  0  0  0  0  0  0  0  0
   10.6964   -1.6854    0.0000 H   0  0  0  0  0  0  0  0  0  0  0  0
   12.3534   -2.0120    0.0000 H   0  0  0  0  0  0  0  0  0  0  0  0
   12.8867   -1.4197    0.0000 H   0  0  0  0  0  0  0  0  0  0  0  0
   12.3887    0.1941    0.0000 H   0  0  0  0  0  0  0  0  0  0  0  0
   11.8554   -0.3982    0.0000 H   0  0  0  0  0  0  0  0  0  0  0  0
   13.5123   -0.7248    0.0000 H   0  0  0  0  0  0  0  0  0  0  0  0
   14.0457   -0.1325    0.0000 H   0  0  0  0  0  0  0  0  0  0  0  0
   13.5477    1.4812    0.0000 H   0  0  0  0  0  0  0  0  0  0  0  0
   13.0143    0.8889    0.0000 H   0  0  0  0  0  0  0  0  0  0  0  0
   14.6713    0.5623    0.0000 H   0  0  0  0  0  0  0  0  0  0  0  0
   15.2046    1.1547    0.0000 H   0  0  0  0  0  0  0  0  0  0  0  0
   14.7066    2.7684    0.0000 H   0  0  0  0  0  0  0  0  0  0  0  0
   14.1733    2.1761    0.0000 H   0  0  0  0  0  0  0  0  0  0  0  0
    4.7867    3.8720    0.0000 H   0  0  0  0  0  0  0  0  0  0  0  0
    2.5167    2.2227    0.0000 H   0  0  0  0  0  0  0  0  0  0  0  0
    3.8345    5.1826    0.0000 H   0  0  0  0  0  0  0  0  0  0  0  0
    1.5644    3.5333    0.0000 H   0  0  0  0  0  0  0  0  0  0  0  0
   15.9356    1.8738    0.0000 H   0  0  0  0  0  0  0  0  0  0  0  0
   16.3336    2.6551    0.0000 H   0  0  0  0  0  0  0  0  0  0  0  0
   15.5524    3.0531    0.0000 H   0  0  0  0  0  0  0  0  0  0  0  0
    2.5016    5.6851    0.0000 H   0  0  0  0  0  0  0  0  0  0  0  0
    1.6356    5.8223    0.0000 H   0  0  0  0  0  0  0  0  0  0  0  0
    1.4984    4.9562    0.0000 H   0  0  0  0  0  0  0  0  0  0  0  0
  1 10  2  0  0  0  0
  1 11  2  0  0  0  0
  1 12  1  0  0  0  0
  1 28  1  0  0  0  0
  2 15  1  0  0  0  0
  2 17  1  0  0  0  0
  3 13  1  0  0  0  0
  3 20  1  0  0  0  0
 17  4  1  6  0  0  0
  4 21  1  0  0  0  0
 20  5  1  6  0  0  0
  5 23  1  0  0  0  0
 14  6  1  6  0  0  0
  6 50  1  0  0  0  0
 16  7  1  1  0  0  0
  7 51  1  0  0  0  0
 18  8  1  6  0  0  0
  8 52  1  0  0  0  0
 19  9  1  1  0  0  0
  9 54  1  0  0  0  0
 12 22  1  0  0  0  0
 12 53  1  0  0  0  0
 13 18  1  0  0  0  0
 13 21  1  1  0  0  0
 13 38  1  0  0  0  0
 14 15  1  0  0  0  0
 14 16  1  0  0  0  0
 14 39  1  0  0  0  0
 15 22  1  1  0  0  0
 15 40  1  0  0  0  0
 16 17  1  0  0  0  0
 16 41  1  0  0  0  0
 17 42  1  0  0  0  0
 18 19  1  0  0  0  0
 18 43  1  0  0  0  0
 19 20  1  0  0  0  0
 19 44  1  0  0  0  0
 20 45  1  0  0  0  0
 21 46  1  0  0  0  0
 21 47  1  0  0  0  0
 22 48  1  0  0  0  0
 22 49  1  0  0  0  0
 23 24  1  0  0  0  0
 23 55  1  0  0  0  0
 23 56  1  0  0  0  0
 24 25  1  0  0  0  0
 24 57  1  0  0  0  0
 24 58  1  0  0  0  0
 25 26  1  0  0  0  0
 25 59  1  0  0  0  0
 25 60  1  0  0  0  0
 26 27  1  0  0  0  0
 26 61  1  0  0  0  0
 26 62  1  0  0  0  0
 27 29  1  0  0  0  0
 27 63  1  0  0  0  0
 27 64  1  0  0  0  0
 28 31  2  0  0  0  0
 28 32  1  0  0  0  0
 29 30  1  0  0  0  0
 29 65  1  0  0  0  0
 29 66  1  0  0  0  0
 30 35  1  0  0  0  0
 30 67  1  0  0  0  0
 30 68  1  0  0  0  0
 31 33  1  0  0  0  0
 31 69  1  0  0  0  0
 32 34  2  0  0  0  0
 32 70  1  0  0  0  0
 33 36  2  0  0  0  0
 33 71  1  0  0  0  0
 34 36  1  0  0  0  0
 34 72  1  0  0  0  0
 35 73  1  0  0  0  0
 35 74  1  0  0  0  0
 35 75  1  0  0  0  0
 36 37  1  0  0  0  0
 37 76  1  0  0  0  0
 37 77  1  0  0  0  0
 37 78  1  0  0  0  0
M  END
> <PUBCHEM_COMPOUND_CID>
508234
> <PUBCHEM_COMPOUND_CANONICALIZED>
1
> <PUBCHEM_CACTVS_COMPLEXITY>
757
> <PUBCHEM_CACTVS_HBOND_ACCEPTOR>
11
> <PUBCHEM_CACTVS_HBOND_DONOR>
5
> <PUBCHEM_CACTVS_ROTATABLE_BOND>
15
> <PUBCHEM_CACTVS_SUBSKEYS>
AAADcfB6PABAAAAAAAAAAAAAAAAAASJAAAAwAAAAAAAAAAABAAAAHgQQSAAADBTx2AcyCYBABgKAAiBCAHBCABAgAAAIiJgAAIgbMCKAkRCjYAAnkAAPiAfw8KgOEAAAAAAAAAAgAAAAAAAAAAAAAAAAAA==
> <PUBCHEM_IUPAC_OPENEYE_NAME>
N-[[(2R,3S,4S,5S)-5-[[(2R,3S,4S,5S)-3,4-dihydroxy-5-octoxy-tetrahydrofuran-2-yl]methoxy]-3,4-dihydroxy-tetrahydrofuran-2-yl]methyl]-4-methyl-benzenesulfonamide
> <PUBCHEM_IUPAC_CAS_NAME>
N-[[(2R,3S,4S,5S)-5-[[(2R,3S,4S,5S)-3,4-dihydroxy-5-octoxy-2-oxolanyl]methoxy]-3,4-dihydroxy-2-oxolanyl]methyl]-4-methylbenzenesulfonamide
> <PUBCHEM_IUPAC_NAME_MARKUP>
<I>N</I>-[[(2<I>R</I>,3<I>S</I>,4<I>S</I>,5<I>S</I>)-5-[[(2<I>R</I>,3<I>S</I>,4<I>S</I>,5<I>S</I>)-3,4-dihydroxy-5-octoxyoxolan-2-yl]methoxy]-3,4-dihydroxyoxolan-2-yl]methyl]-4-methylbenzenesulfonamide
> <PUBCHEM_IUPAC_NAME>
N-[[(2R,3S,4S,5S)-5-[[(2R,3S,4S,5S)-3,4-dihydroxy-5-octoxyoxolan-2-yl]methoxy]-3,4-dihydroxyoxolan-2-yl]methyl]-4-methylbenzenesulfonamide
> <PUBCHEM_IUPAC_SYSTEMATIC_NAME>
4-methyl-N-[[(2R,3S,4S,5S)-5-[[(2R,3S,4S,5S)-5-octoxy-3,4-bis(oxidanyl)oxolan-2-yl]methoxy]-3,4-bis(oxidanyl)oxolan-2-yl]methyl]benzenesulfonamide
> <PUBCHEM_IUPAC_TRADITIONAL_NAME>
N-[[(2R,3S,4S,5S)-5-[[(2R,3S,4S,5S)-3,4-dihydroxy-5-octoxy-tetrahydrofuran-2-yl]methoxy]-3,4-dihydroxy-tetrahydrofuran-2-yl]methyl]-4-methyl-benzenesulfonamide
> <PUBCHEM_IUPAC_INCHI>
InChI=1S/C25H41NO10S/c1-3-4-5-6-7-8-13-33-24-23(30)21(28)19(36-24)15-34-25-22(29)20(27)18(35-25)14-26-37(31,32)17-11-9-16(2)10-12-17/h9-12,18-30H,3-8,13-15H2,1-2H3/t18-,19-,20-,21-,22+,23+,24+,25+/m1/s1
> <PUBCHEM_IUPAC_INCHIKEY>
JJVKWDFKCLQJCO-QBTNRFHPSA-N
> <PUBCHEM_XLOGP3_AA>
2.2
> <PUBCHEM_EXACT_MASS>
547.24511768
> <PUBCHEM_MOLECULAR_FORMULA>
C25H41NO10S
> <PUBCHEM_MOLECULAR_WEIGHT>
547.7
> <PUBCHEM_OPENEYE_CAN_SMILES>
CCCCCCCCOC1C(C(C(O1)COC2C(C(C(O2)CNS(=O)(=O)C3=CC=C(C=C3)C)O)O)O)O
> <PUBCHEM_OPENEYE_ISO_SMILES>
CCCCCCCCO[C@@H]1[C@H]([C@@H]([C@H](O1)CO[C@@H]2[C@H]([C@@H]([C@H](O2)CNS(=O)(=O)C3=CC=C(C=C3)C)O)O)O)O
> <PUBCHEM_CACTVS_TPSA>
172
> <PUBCHEM_MONOISOTOPIC_WEIGHT>
547.24511768
> <PUBCHEM_TOTAL_CHARGE>
0
> <PUBCHEM_HEAVY_ATOM_COUNT>
37
> <PUBCHEM_ATOM_DEF_STEREO_COUNT>
8
> <PUBCHEM_ATOM_UDEF_STEREO_COUNT>
0
> <PUBCHEM_BOND_DEF_STEREO_COUNT>
0
> <PUBCHEM_BOND_UDEF_STEREO_COUNT>
0
> <PUBCHEM_ISOTOPIC_ATOM_COUNT>
0
> <PUBCHEM_COMPONENT_COUNT>
1
> <PUBCHEM_CACTVS_TAUTO_COUNT>
-1
> <PUBCHEM_COORDINATE_TYPE>
1
5
255
> <PUBCHEM_BONDANNOTATIONS>
13  21  5
15  22  5
28  31  8
28  32  8
31  33  8
32  34  8
33  36  8
34  36  8
17  4  6
20  5  6
14  6  6
16  7  5
18  8  6
19  9  5
$$$$
