508348
  -OEChem-10302200282D
105107  0     1  0  0  0  0  0999 V2000
   16.0000   -3.8971    0.0000 Cl  0  0  0  0  0  0  0  0  0  0  0  0
   16.0878    1.3560    0.0000 O   0  0  0  0  0  0  0  0  0  0  0  0
   17.9851    2.9698    0.0000 O   0  0  0  0  0  0  0  0  0  0  0  0
   17.9851    1.3603    0.0000 O   0  0  0  0  0  0  0  0  0  0  0  0
   15.7788    3.9251    0.0000 O   0  0  0  0  0  0  0  0  0  0  0  0
   12.5000    3.8971    0.0000 O   0  0  0  0  0  0  0  0  0  0  0  0
   15.5000    0.4330    0.0000 O   0  0  0  0  0  0  0  0  0  0  0  0
   12.5000    2.1651    0.0000 O   0  0  0  0  0  0  0  0  0  0  0  0
   14.0000    1.2990    0.0000 N   0  0  0  0  0  0  0  0  0  0  0  0
   14.0000   -0.4330    0.0000 N   0  0  0  0  0  0  0  0  0  0  0  0
   17.0388    2.6651    0.0000 C   0  0  2  0  0  0  0  0  0  0  0  0
   15.5000    2.1651    0.0000 C   0  0  3  0  0  0  0  0  0  0  0  0
   16.0878    2.9741    0.0000 C   0  0  2  0  0  0  0  0  0  0  0  0
   17.0388    1.6651    0.0000 C   0  0  2  0  0  0  0  0  0  0  0  0
   14.5000    2.1651    0.0000 C   0  0  2  0  0  0  0  0  0  0  0  0
   18.5687    2.1651    0.0000 C   0  0  0  0  0  0  0  0  0  0  0  0
   14.0000    3.0311    0.0000 C   0  0  0  0  0  0  0  0  0  0  0  0
   19.3777    1.5773    0.0000 C   0  0  0  0  0  0  0  0  0  0  0  0
   19.3777    2.7528    0.0000 C   0  0  0  0  0  0  0  0  0  0  0  0
   13.0000    1.2990    0.0000 C   0  0  0  0  0  0  0  0  0  0  0  0
   12.5000    0.4330    0.0000 C   0  0  0  0  0  0  0  0  0  0  0  0
   14.5000    0.4330    0.0000 C   0  0  0  0  0  0  0  0  0  0  0  0
   13.0000    3.0311    0.0000 C   0  0  0  0  0  0  0  0  0  0  0  0
   16.4479    4.6683    0.0000 C   0  0  0  0  0  0  0  0  0  0  0  0
   11.5000    0.4330    0.0000 C   0  0  0  0  0  0  0  0  0  0  0  0
   11.0000   -0.4330    0.0000 C   0  0  0  0  0  0  0  0  0  0  0  0
   10.0000   -0.4330    0.0000 C   0  0  0  0  0  0  0  0  0  0  0  0
    9.5000   -1.2990    0.0000 C   0  0  0  0  0  0  0  0  0  0  0  0
   14.5000   -1.2990    0.0000 C   0  0  0  0  0  0  0  0  0  0  0  0
   13.0000    4.7631    0.0000 C   0  0  0  0  0  0  0  0  0  0  0  0
    8.5000   -1.2990    0.0000 C   0  0  0  0  0  0  0  0  0  0  0  0
    8.0000   -2.1651    0.0000 C   0  0  0  0  0  0  0  0  0  0  0  0
    7.0000   -2.1651    0.0000 C   0  0  0  0  0  0  0  0  0  0  0  0
    6.5000   -3.0311    0.0000 C   0  0  0  0  0  0  0  0  0  0  0  0
   14.0000   -2.1651    0.0000 C   0  0  0  0  0  0  0  0  0  0  0  0
   15.5000   -1.2990    0.0000 C   0  0  0  0  0  0  0  0  0  0  0  0
   12.5000    5.6292    0.0000 C   0  0  0  0  0  0  0  0  0  0  0  0
    5.5000   -3.0311    0.0000 C   0  0  0  0  0  0  0  0  0  0  0  0
    5.0000   -3.8971    0.0000 C   0  0  0  0  0  0  0  0  0  0  0  0
   14.5000   -3.0311    0.0000 C   0  0  0  0  0  0  0  0  0  0  0  0
   16.0000   -2.1651    0.0000 C   0  0  0  0  0  0  0  0  0  0  0  0
    4.0000   -3.8971    0.0000 C   0  0  0  0  0  0  0  0  0  0  0  0
   15.5000   -3.0311    0.0000 C   0  0  0  0  0  0  0  0  0  0  0  0
    3.5000   -4.7631    0.0000 C   0  0  0  0  0  0  0  0  0  0  0  0
    2.5000   -4.7631    0.0000 C   0  0  0  0  0  0  0  0  0  0  0  0
    2.0000   -5.6292    0.0000 C   0  0  0  0  0  0  0  0  0  0  0  0
   17.0399    3.5151    0.0000 H   0  0  0  0  0  0  0  0  0  0  0  0
   15.2185    1.6126    0.0000 H   0  0  0  0  0  0  0  0  0  0  0  0
   16.5262    3.4125    0.0000 H   0  0  0  0  0  0  0  0  0  0  0  0
   17.0399    0.8151    0.0000 H   0  0  0  0  0  0  0  0  0  0  0  0
   13.8800    2.1651    0.0000 H   0  0  0  0  0  0  0  0  0  0  0  0
   14.5826    3.2431    0.0000 H   0  0  0  0  0  0  0  0  0  0  0  0
   13.8923    3.6417    0.0000 H   0  0  0  0  0  0  0  0  0  0  0  0
   19.0133    1.0757    0.0000 H   0  0  0  0  0  0  0  0  0  0  0  0
   19.8793    1.2128    0.0000 H   0  0  0  0  0  0  0  0  0  0  0  0
   19.7421    2.0789    0.0000 H   0  0  0  0  0  0  0  0  0  0  0  0
   19.7421    2.2513    0.0000 H   0  0  0  0  0  0  0  0  0  0  0  0
   19.8793    3.1173    0.0000 H   0  0  0  0  0  0  0  0  0  0  0  0
   19.0133    3.2544    0.0000 H   0  0  0  0  0  0  0  0  0  0  0  0
   13.1077    1.9096    0.0000 H   0  0  0  0  0  0  0  0  0  0  0  0
   12.4174    1.5111    0.0000 H   0  0  0  0  0  0  0  0  0  0  0  0
   12.3923   -0.1776    0.0000 H   0  0  0  0  0  0  0  0  0  0  0  0
   13.0826    0.2210    0.0000 H   0  0  0  0  0  0  0  0  0  0  0  0
   16.9086    4.2534    0.0000 H   0  0  0  0  0  0  0  0  0  0  0  0
   16.8628    5.1290    0.0000 H   0  0  0  0  0  0  0  0  0  0  0  0
   15.9871    5.0831    0.0000 H   0  0  0  0  0  0  0  0  0  0  0  0
   11.6077    1.0436    0.0000 H   0  0  0  0  0  0  0  0  0  0  0  0
   10.9174    0.6451    0.0000 H   0  0  0  0  0  0  0  0  0  0  0  0
   10.8923   -1.0436    0.0000 H   0  0  0  0  0  0  0  0  0  0  0  0
   11.5826   -0.6451    0.0000 H   0  0  0  0  0  0  0  0  0  0  0  0
   13.3800   -0.4330    0.0000 H   0  0  0  0  0  0  0  0  0  0  0  0
   10.1077    0.1776    0.0000 H   0  0  0  0  0  0  0  0  0  0  0  0
    9.4174   -0.2210    0.0000 H   0  0  0  0  0  0  0  0  0  0  0  0
    9.3923   -1.9096    0.0000 H   0  0  0  0  0  0  0  0  0  0  0  0
   10.0826   -1.5111    0.0000 H   0  0  0  0  0  0  0  0  0  0  0  0
   13.4749    4.3646    0.0000 H   0  0  0  0  0  0  0  0  0  0  0  0
   13.4749    5.1617    0.0000 H   0  0  0  0  0  0  0  0  0  0  0  0
    8.6077   -0.6885    0.0000 H   0  0  0  0  0  0  0  0  0  0  0  0
    7.9174   -1.0870    0.0000 H   0  0  0  0  0  0  0  0  0  0  0  0
    7.8923   -2.7756    0.0000 H   0  0  0  0  0  0  0  0  0  0  0  0
    8.5826   -2.3771    0.0000 H   0  0  0  0  0  0  0  0  0  0  0  0
    7.1077   -1.5545    0.0000 H   0  0  0  0  0  0  0  0  0  0  0  0
    6.4174   -1.9530    0.0000 H   0  0  0  0  0  0  0  0  0  0  0  0
    6.3923   -3.6417    0.0000 H   0  0  0  0  0  0  0  0  0  0  0  0
    7.0826   -3.2431    0.0000 H   0  0  0  0  0  0  0  0  0  0  0  0
   13.3800   -2.1651    0.0000 H   0  0  0  0  0  0  0  0  0  0  0  0
   15.8100   -0.7621    0.0000 H   0  0  0  0  0  0  0  0  0  0  0  0
   13.0369    5.9392    0.0000 H   0  0  0  0  0  0  0  0  0  0  0  0
   12.1900    6.1661    0.0000 H   0  0  0  0  0  0  0  0  0  0  0  0
   11.9631    5.3192    0.0000 H   0  0  0  0  0  0  0  0  0  0  0  0
    5.6077   -2.4205    0.0000 H   0  0  0  0  0  0  0  0  0  0  0  0
    4.9174   -2.8190    0.0000 H   0  0  0  0  0  0  0  0  0  0  0  0
    4.8923   -4.5077    0.0000 H   0  0  0  0  0  0  0  0  0  0  0  0
    5.5826   -4.1092    0.0000 H   0  0  0  0  0  0  0  0  0  0  0  0
    4.1077   -3.2865    0.0000 H   0  0  0  0  0  0  0  0  0  0  0  0
    3.4174   -3.6851    0.0000 H   0  0  0  0  0  0  0  0  0  0  0  0
   14.1900   -3.5680    0.0000 H   0  0  0  0  0  0  0  0  0  0  0  0
   16.6200   -2.1651    0.0000 H   0  0  0  0  0  0  0  0  0  0  0  0
    3.3923   -5.3737    0.0000 H   0  0  0  0  0  0  0  0  0  0  0  0
    4.0826   -4.9752    0.0000 H   0  0  0  0  0  0  0  0  0  0  0  0
    2.6077   -4.1526    0.0000 H   0  0  0  0  0  0  0  0  0  0  0  0
    1.9174   -4.5511    0.0000 H   0  0  0  0  0  0  0  0  0  0  0  0
    1.4631   -5.3192    0.0000 H   0  0  0  0  0  0  0  0  0  0  0  0
    1.6900   -6.1661    0.0000 H   0  0  0  0  0  0  0  0  0  0  0  0
    2.5369   -5.9392    0.0000 H   0  0  0  0  0  0  0  0  0  0  0  0
  1 43  1  0  0  0  0
  2 12  1  0  0  0  0
  2 14  1  0  0  0  0
  3 11  1  0  0  0  0
  3 16  1  0  0  0  0
  4 14  1  0  0  0  0
  4 16  1  0  0  0  0
 13  5  1  6  0  0  0
  5 24  1  0  0  0  0
  6 23  1  0  0  0  0
  6 30  1  0  0  0  0
  7 22  2  0  0  0  0
  8 23  2  0  0  0  0
 15  9  1  1  0  0  0
  9 20  1  0  0  0  0
  9 22  1  0  0  0  0
 10 22  1  0  0  0  0
 10 29  1  0  0  0  0
 10 71  1  0  0  0  0
 11 13  1  0  0  0  0
 11 14  1  0  0  0  0
 11 47  1  6  0  0  0
 12 13  1  0  0  0  0
 12 15  1  0  0  0  0
 12 48  1  0  0  0  0
 13 49  1  0  0  0  0
 14 50  1  6  0  0  0
 15 17  1  0  0  0  0
 15 51  1  0  0  0  0
 16 18  1  0  0  0  0
 16 19  1  0  0  0  0
 17 23  1  0  0  0  0
 17 52  1  0  0  0  0
 17 53  1  0  0  0  0
 18 54  1  0  0  0  0
 18 55  1  0  0  0  0
 18 56  1  0  0  0  0
 19 57  1  0  0  0  0
 19 58  1  0  0  0  0
 19 59  1  0  0  0  0
 20 21  1  0  0  0  0
 20 60  1  0  0  0  0
 20 61  1  0  0  0  0
 21 25  1  0  0  0  0
 21 62  1  0  0  0  0
 21 63  1  0  0  0  0
 24 64  1  0  0  0  0
 24 65  1  0  0  0  0
 24 66  1  0  0  0  0
 25 26  1  0  0  0  0
 25 67  1  0  0  0  0
 25 68  1  0  0  0  0
 26 27  1  0  0  0  0
 26 69  1  0  0  0  0
 26 70  1  0  0  0  0
 27 28  1  0  0  0  0
 27 72  1  0  0  0  0
 27 73  1  0  0  0  0
 28 31  1  0  0  0  0
 28 74  1  0  0  0  0
 28 75  1  0  0  0  0
 29 35  2  0  0  0  0
 29 36  1  0  0  0  0
 30 37  1  0  0  0  0
 30 76  1  0  0  0  0
 30 77  1  0  0  0  0
 31 32  1  0  0  0  0
 31 78  1  0  0  0  0
 31 79  1  0  0  0  0
 32 33  1  0  0  0  0
 32 80  1  0  0  0  0
 32 81  1  0  0  0  0
 33 34  1  0  0  0  0
 33 82  1  0  0  0  0
 33 83  1  0  0  0  0
 34 38  1  0  0  0  0
 34 84  1  0  0  0  0
 34 85  1  0  0  0  0
 35 40  1  0  0  0  0
 35 86  1  0  0  0  0
 36 41  2  0  0  0  0
 36 87  1  0  0  0  0
 37 88  1  0  0  0  0
 37 89  1  0  0  0  0
 37 90  1  0  0  0  0
 38 39  1  0  0  0  0
 38 91  1  0  0  0  0
 38 92  1  0  0  0  0
 39 42  1  0  0  0  0
 39 93  1  0  0  0  0
 39 94  1  0  0  0  0
 40 43  2  0  0  0  0
 40 97  1  0  0  0  0
 41 43  1  0  0  0  0
 41 98  1  0  0  0  0
 42 44  1  0  0  0  0
 42 95  1  0  0  0  0
 42 96  1  0  0  0  0
 44 45  1  0  0  0  0
 44 99  1  0  0  0  0
 44100  1  0  0  0  0
 45 46  1  0  0  0  0
 45101  1  0  0  0  0
 45102  1  0  0  0  0
 46103  1  0  0  0  0
 46104  1  0  0  0  0
 46105  1  0  0  0  0
M  END
> <PUBCHEM_COMPOUND_CID>
508348
> <PUBCHEM_COMPOUND_CANONICALIZED>
1
> <PUBCHEM_CACTVS_COMPLEXITY>
869
> <PUBCHEM_CACTVS_HBOND_ACCEPTOR>
7
> <PUBCHEM_CACTVS_HBOND_DONOR>
1
> <PUBCHEM_CACTVS_ROTATABLE_BOND>
23
> <PUBCHEM_CACTVS_SUBSKEYS>
AAADcfB/OAAEAAAAAAAAAAAAAAAAASJAAAAwAAAAAAASAAABAAAAHgIQAAAACD7xkCczyIPABACIACTSWACCAAAhBwAIiAEIZoibIDrBk5GnIAhvlgLeyCf6/K/AAABAAAAAAAAAAIAAAAAAAAAAAAAAAA==
> <PUBCHEM_IUPAC_OPENEYE_NAME>
ethyl (3S)-3-[(3aR,6S,6aR)-6-methoxy-2,2-dimethyl-3a,5,6,6a-tetrahydrofuro[2,3-d][1,3]dioxol-5-yl]-3-[(4-chlorophenyl)carbamoyl-hexadecyl-amino]propanoate
> <PUBCHEM_IUPAC_CAS_NAME>
(3S)-3-[(3aR,6S,6aR)-6-methoxy-2,2-dimethyl-3a,5,6,6a-tetrahydrofuro[2,3-d][1,3]dioxol-5-yl]-3-[[(4-chloroanilino)-oxomethyl]-hexadecylamino]propanoic acid ethyl ester
> <PUBCHEM_IUPAC_NAME_MARKUP>
ethyl (3<I>S</I>)-3-[(3<I>a</I><I>R</I>,6<I>S</I>,6<I>a</I><I>R</I>)-6-methoxy-2,2-dimethyl-3<I>a</I>,5,6,6<I>a</I>-tetrahydrofuro[2,3-d][1,3]dioxol-5-yl]-3-[(4-chlorophenyl)carbamoyl-hexadecylamino]propanoate
> <PUBCHEM_IUPAC_NAME>
ethyl (3S)-3-[(3aR,6S,6aR)-6-methoxy-2,2-dimethyl-3a,5,6,6a-tetrahydrofuro[2,3-d][1,3]dioxol-5-yl]-3-[(4-chlorophenyl)carbamoyl-hexadecylamino]propanoate
> <PUBCHEM_IUPAC_SYSTEMATIC_NAME>
ethyl (3S)-3-[(3aR,6S,6aR)-6-methoxy-2,2-dimethyl-3a,5,6,6a-tetrahydrofuro[2,3-d][1,3]dioxol-5-yl]-3-[(4-chlorophenyl)carbamoyl-hexadecyl-amino]propanoate
> <PUBCHEM_IUPAC_TRADITIONAL_NAME>
(3S)-3-[(3aR,6S,6aR)-6-methoxy-2,2-dimethyl-3a,5,6,6a-tetrahydrofuro[2,3-d][1,3]dioxol-5-yl]-3-[cetyl-[(4-chlorophenyl)carbamoyl]amino]propionic acid ethyl ester
> <PUBCHEM_IUPAC_INCHI>
InChI=1S/C36H59ClN2O7/c1-6-8-9-10-11-12-13-14-15-16-17-18-19-20-25-39(35(41)38-28-23-21-27(37)22-24-28)29(26-30(40)43-7-2)31-32(42-5)33-34(44-31)46-36(3,4)45-33/h21-24,29,31-34H,6-20,25-26H2,1-5H3,(H,38,41)/t29-,31?,32-,33+,34+/m0/s1
> <PUBCHEM_IUPAC_INCHIKEY>
ZJQXLFMYGXUCCQ-MCDOMRQWSA-N
> <PUBCHEM_XLOGP3_AA>
9.8
> <PUBCHEM_EXACT_MASS>
666.4010799
> <PUBCHEM_MOLECULAR_FORMULA>
C36H59ClN2O7
> <PUBCHEM_MOLECULAR_WEIGHT>
667.3
> <PUBCHEM_OPENEYE_CAN_SMILES>
CCCCCCCCCCCCCCCCN(C(CC(=O)OCC)C1C(C2C(O1)OC(O2)(C)C)OC)C(=O)NC3=CC=C(C=C3)Cl
> <PUBCHEM_OPENEYE_ISO_SMILES>
CCCCCCCCCCCCCCCCN([C@@H](CC(=O)OCC)C1[C@@H]([C@@H]2[C@H](O1)OC(O2)(C)C)OC)C(=O)NC3=CC=C(C=C3)Cl
> <PUBCHEM_CACTVS_TPSA>
95.6
> <PUBCHEM_MONOISOTOPIC_WEIGHT>
666.4010799
> <PUBCHEM_TOTAL_CHARGE>
0
> <PUBCHEM_HEAVY_ATOM_COUNT>
46
> <PUBCHEM_ATOM_DEF_STEREO_COUNT>
4
> <PUBCHEM_ATOM_UDEF_STEREO_COUNT>
1
> <PUBCHEM_BOND_DEF_STEREO_COUNT>
0
> <PUBCHEM_BOND_UDEF_STEREO_COUNT>
0
> <PUBCHEM_ISOTOPIC_ATOM_COUNT>
0
> <PUBCHEM_COMPONENT_COUNT>
1
> <PUBCHEM_CACTVS_TAUTO_COUNT>
-1
> <PUBCHEM_COORDINATE_TYPE>
1
5
255
> <PUBCHEM_BONDANNOTATIONS>
11  47  6
14  50  6
12  2  3
29  35  8
29  36  8
35  40  8
36  41  8
40  43  8
41  43  8
13  5  6
15  9  5
$$$$
