508360
  -OEChem-10302200282D
 55 59  0     1  0  0  0  0  0999 V2000
    2.0000    0.1144    0.0000 Cl  0  0  0  0  0  0  0  0  0  0  0  0
    9.5878   -0.6946    0.0000 O   0  0  0  0  0  0  0  0  0  0  0  0
   11.4851    0.9191    0.0000 O   0  0  0  0  0  0  0  0  0  0  0  0
   11.4851   -0.6903    0.0000 O   0  0  0  0  0  0  0  0  0  0  0  0
    9.2788    1.8745    0.0000 O   0  0  0  0  0  0  0  0  0  0  0  0
    6.0000   -1.6176    0.0000 O   0  0  0  0  0  0  0  0  0  0  0  0
    6.0000    1.8465    0.0000 O   0  0  0  0  0  0  0  0  0  0  0  0
    7.5000   -0.7516    0.0000 N   0  0  0  0  0  0  0  0  0  0  0  0
    6.0000    0.1144    0.0000 N   0  0  0  0  0  0  0  0  0  0  0  0
    8.0000   -1.6176    0.0000 C   0  0  0  0  0  0  0  0  0  0  0  0
    8.0000    0.1144    0.0000 C   0  0  2  0  0  0  0  0  0  0  0  0
    9.0000    0.1144    0.0000 C   0  0  3  0  0  0  0  0  0  0  0  0
    8.0000   -2.6176    0.0000 C   0  0  0  0  0  0  0  0  0  0  0  0
    8.8660   -2.1176    0.0000 C   0  0  0  0  0  0  0  0  0  0  0  0
    9.5878    0.9234    0.0000 C   0  0  1  0  0  0  0  0  0  0  0  0
   10.5388    0.6144    0.0000 C   0  0  3  0  0  0  0  0  0  0  0  0
   10.5388   -0.3856    0.0000 C   0  0  3  0  0  0  0  0  0  0  0  0
    7.5000    0.9804    0.0000 C   0  0  0  0  0  0  0  0  0  0  0  0
   12.0687    0.1144    0.0000 C   0  0  0  0  0  0  0  0  0  0  0  0
    6.5000   -0.7516    0.0000 C   0  0  0  0  0  0  0  0  0  0  0  0
    6.5000    0.9804    0.0000 C   0  0  0  0  0  0  0  0  0  0  0  0
   12.8777   -0.4734    0.0000 C   0  0  0  0  0  0  0  0  0  0  0  0
   12.8777    0.7022    0.0000 C   0  0  0  0  0  0  0  0  0  0  0  0
    5.0000    0.1144    0.0000 C   0  0  0  0  0  0  0  0  0  0  0  0
    9.9479    2.6176    0.0000 C   0  0  0  0  0  0  0  0  0  0  0  0
    4.5000   -0.7516    0.0000 C   0  0  0  0  0  0  0  0  0  0  0  0
    4.5000    0.9804    0.0000 C   0  0  0  0  0  0  0  0  0  0  0  0
    3.5000   -0.7516    0.0000 C   0  0  0  0  0  0  0  0  0  0  0  0
    3.5000    0.9804    0.0000 C   0  0  0  0  0  0  0  0  0  0  0  0
    3.0000    0.1144    0.0000 C   0  0  0  0  0  0  0  0  0  0  0  0
    8.4384   -1.1792    0.0000 H   0  0  0  0  0  0  0  0  0  0  0  0
    8.4250    0.8505    0.0000 H   0  0  0  0  0  0  0  0  0  0  0  0
    8.7185   -0.4380    0.0000 H   0  0  0  0  0  0  0  0  0  0  0  0
    7.3894   -2.7253    0.0000 H   0  0  0  0  0  0  0  0  0  0  0  0
    8.2120   -3.2002    0.0000 H   0  0  0  0  0  0  0  0  0  0  0  0
    9.2646   -2.5926    0.0000 H   0  0  0  0  0  0  0  0  0  0  0  0
    9.2646   -1.6427    0.0000 H   0  0  0  0  0  0  0  0  0  0  0  0
   10.0262    1.3618    0.0000 H   0  0  0  0  0  0  0  0  0  0  0  0
   10.5396    1.2344    0.0000 H   0  0  0  0  0  0  0  0  0  0  0  0
   10.5396   -1.0056    0.0000 H   0  0  0  0  0  0  0  0  0  0  0  0
    8.0826    1.1925    0.0000 H   0  0  0  0  0  0  0  0  0  0  0  0
    7.3923    1.5910    0.0000 H   0  0  0  0  0  0  0  0  0  0  0  0
   12.5133   -0.9750    0.0000 H   0  0  0  0  0  0  0  0  0  0  0  0
   13.3793   -0.8378    0.0000 H   0  0  0  0  0  0  0  0  0  0  0  0
   13.2421    0.0282    0.0000 H   0  0  0  0  0  0  0  0  0  0  0  0
   13.2421    0.2006    0.0000 H   0  0  0  0  0  0  0  0  0  0  0  0
   13.3793    1.0666    0.0000 H   0  0  0  0  0  0  0  0  0  0  0  0
   12.5133    1.2038    0.0000 H   0  0  0  0  0  0  0  0  0  0  0  0
   10.4086    2.2028    0.0000 H   0  0  0  0  0  0  0  0  0  0  0  0
   10.3628    3.0784    0.0000 H   0  0  0  0  0  0  0  0  0  0  0  0
    9.4872    3.0325    0.0000 H   0  0  0  0  0  0  0  0  0  0  0  0
    4.8100   -1.2885    0.0000 H   0  0  0  0  0  0  0  0  0  0  0  0
    4.8100    1.5174    0.0000 H   0  0  0  0  0  0  0  0  0  0  0  0
    3.1900   -1.2885    0.0000 H   0  0  0  0  0  0  0  0  0  0  0  0
    3.1900    1.5174    0.0000 H   0  0  0  0  0  0  0  0  0  0  0  0
  1 30  1  0  0  0  0
  2 12  1  0  0  0  0
  2 17  1  0  0  0  0
  3 16  1  0  0  0  0
  3 19  1  0  0  0  0
  4 17  1  0  0  0  0
  4 19  1  0  0  0  0
 15  5  1  6  0  0  0
  5 25  1  0  0  0  0
  6 20  2  0  0  0  0
  7 21  2  0  0  0  0
  8 10  1  0  0  0  0
  8 11  1  0  0  0  0
  8 20  1  0  0  0  0
  9 20  1  0  0  0  0
  9 21  1  0  0  0  0
  9 24  1  0  0  0  0
 10 13  1  0  0  0  0
 10 14  1  0  0  0  0
 10 31  1  0  0  0  0
 11 12  1  0  0  0  0
 11 18  1  0  0  0  0
 11 32  1  6  0  0  0
 12 15  1  0  0  0  0
 12 33  1  0  0  0  0
 13 14  1  0  0  0  0
 13 34  1  0  0  0  0
 13 35  1  0  0  0  0
 14 36  1  0  0  0  0
 14 37  1  0  0  0  0
 15 16  1  0  0  0  0
 15 38  1  0  0  0  0
 16 17  1  0  0  0  0
 16 39  1  0  0  0  0
 17 40  1  0  0  0  0
 18 21  1  0  0  0  0
 18 41  1  0  0  0  0
 18 42  1  0  0  0  0
 19 22  1  0  0  0  0
 19 23  1  0  0  0  0
 22 43  1  0  0  0  0
 22 44  1  0  0  0  0
 22 45  1  0  0  0  0
 23 46  1  0  0  0  0
 23 47  1  0  0  0  0
 23 48  1  0  0  0  0
 24 26  2  0  0  0  0
 24 27  1  0  0  0  0
 25 49  1  0  0  0  0
 25 50  1  0  0  0  0
 25 51  1  0  0  0  0
 26 28  1  0  0  0  0
 26 52  1  0  0  0  0
 27 29  2  0  0  0  0
 27 53  1  0  0  0  0
 28 30  2  0  0  0  0
 28 54  1  0  0  0  0
 29 30  1  0  0  0  0
 29 55  1  0  0  0  0
M  END
> <PUBCHEM_COMPOUND_CID>
508360
> <PUBCHEM_COMPOUND_CANONICALIZED>
1
> <PUBCHEM_CACTVS_COMPLEXITY>
708
> <PUBCHEM_CACTVS_HBOND_ACCEPTOR>
6
> <PUBCHEM_CACTVS_HBOND_DONOR>
0
> <PUBCHEM_CACTVS_ROTATABLE_BOND>
4
> <PUBCHEM_CACTVS_SUBSKEYS>
AAADceB7OAAEAAAAAAAAAAAAGAAAASJAAAA8QAAAAAASAAABAAAAHgIAAAAACD7xkCczyIMABACIACVSUACCAAAhBwAIiAEIZoibIDrB05GnIAhvhyLeyCf63CPAAABAAAAAAAAAAIAAAAAAAAAAAAAAAA==
> <PUBCHEM_IUPAC_OPENEYE_NAME>
(6S)-3-(4-chlorophenyl)-1-cyclopropyl-6-[(6S)-6-methoxy-2,2-dimethyl-3a,5,6,6a-tetrahydrofuro[2,3-d][1,3]dioxol-5-yl]hexahydropyrimidine-2,4-dione
> <PUBCHEM_IUPAC_CAS_NAME>
(6S)-3-(4-chlorophenyl)-1-cyclopropyl-6-[(6S)-6-methoxy-2,2-dimethyl-3a,5,6,6a-tetrahydrofuro[2,3-d][1,3]dioxol-5-yl]-1,3-diazinane-2,4-dione
> <PUBCHEM_IUPAC_NAME_MARKUP>
(6<I>S</I>)-3-(4-chlorophenyl)-1-cyclopropyl-6-[(6<I>S</I>)-6-methoxy-2,2-dimethyl-3<I>a</I>,5,6,6<I>a</I>-tetrahydrofuro[2,3-d][1,3]dioxol-5-yl]-1,3-diazinane-2,4-dione
> <PUBCHEM_IUPAC_NAME>
(6S)-3-(4-chlorophenyl)-1-cyclopropyl-6-[(6S)-6-methoxy-2,2-dimethyl-3a,5,6,6a-tetrahydrofuro[2,3-d][1,3]dioxol-5-yl]-1,3-diazinane-2,4-dione
> <PUBCHEM_IUPAC_SYSTEMATIC_NAME>
(6S)-3-(4-chlorophenyl)-1-cyclopropyl-6-[(6S)-6-methoxy-2,2-dimethyl-3a,5,6,6a-tetrahydrofuro[2,3-d][1,3]dioxol-5-yl]-1,3-diazinane-2,4-dione
> <PUBCHEM_IUPAC_TRADITIONAL_NAME>
(6S)-3-(4-chlorophenyl)-1-cyclopropyl-6-[(6S)-6-methoxy-2,2-dimethyl-3a,5,6,6a-tetrahydrofuro[2,3-d][1,3]dioxol-5-yl]-5,6-dihydrouracil
> <PUBCHEM_IUPAC_INCHI>
InChI=1S/C21H25ClN2O6/c1-21(2)29-18-17(27-3)16(28-19(18)30-21)14-10-15(25)24(13-6-4-11(22)5-7-13)20(26)23(14)12-8-9-12/h4-7,12,14,16-19H,8-10H2,1-3H3/t14-,16?,17-,18?,19?/m0/s1
> <PUBCHEM_IUPAC_INCHIKEY>
YGLVRHSTCIEETP-QHPAWHGXSA-N
> <PUBCHEM_XLOGP3_AA>
2.1
> <PUBCHEM_EXACT_MASS>
436.1401142
> <PUBCHEM_MOLECULAR_FORMULA>
C21H25ClN2O6
> <PUBCHEM_MOLECULAR_WEIGHT>
436.9
> <PUBCHEM_OPENEYE_CAN_SMILES>
CC1(OC2C(C(OC2O1)C3CC(=O)N(C(=O)N3C4CC4)C5=CC=C(C=C5)Cl)OC)C
> <PUBCHEM_OPENEYE_ISO_SMILES>
CC1(OC2[C@H](C(OC2O1)[C@@H]3CC(=O)N(C(=O)N3C4CC4)C5=CC=C(C=C5)Cl)OC)C
> <PUBCHEM_CACTVS_TPSA>
77.5
> <PUBCHEM_MONOISOTOPIC_WEIGHT>
436.1401142
> <PUBCHEM_TOTAL_CHARGE>
0
> <PUBCHEM_HEAVY_ATOM_COUNT>
30
> <PUBCHEM_ATOM_DEF_STEREO_COUNT>
2
> <PUBCHEM_ATOM_UDEF_STEREO_COUNT>
3
> <PUBCHEM_BOND_DEF_STEREO_COUNT>
0
> <PUBCHEM_BOND_UDEF_STEREO_COUNT>
0
> <PUBCHEM_ISOTOPIC_ATOM_COUNT>
0
> <PUBCHEM_COMPONENT_COUNT>
1
> <PUBCHEM_CACTVS_TAUTO_COUNT>
-1
> <PUBCHEM_COORDINATE_TYPE>
1
5
255
> <PUBCHEM_BONDANNOTATIONS>
11  32  6
12  2  3
24  26  8
24  27  8
26  28  8
27  29  8
28  30  8
29  30  8
16  3  3
17  4  3
15  5  6
$$$$
