508307
  -OEChem-10302200282D
 71 73  0     1  0  0  0  0  0999 V2000
    5.4641   -1.5000    0.0000 S   0  0  0  0  0  0  0  0  0  0  0  0
    5.4641    1.5000    0.0000 O   0  0  0  0  0  0  0  0  0  0  0  0
    6.4641   -1.5000    0.0000 O   0  0  0  0  0  0  0  0  0  0  0  0
    4.4641   -1.5000    0.0000 O   0  0  0  0  0  0  0  0  0  0  0  0
    2.8660    1.0000    0.0000 O   0  0  0  0  0  0  0  0  0  0  0  0
    8.9282   -0.5000    0.0000 O   0  0  0  0  0  0  0  0  0  0  0  0
    7.1962   -0.5000    0.0000 O   0  0  0  0  0  0  0  0  0  0  0  0
    5.4641   -0.5000    0.0000 N   0  0  3  0  0  0  0  0  0  0  0  0
    8.0622    1.0000    0.0000 N   0  0  0  0  0  0  0  0  0  0  0  0
    6.3301    1.0000    0.0000 C   0  0  1  0  0  0  0  0  0  0  0  0
    7.1962    1.5000    0.0000 C   0  0  2  0  0  0  0  0  0  0  0  0
    6.3301    0.0000    0.0000 C   0  0  0  0  0  0  0  0  0  0  0  0
    7.1962    2.5000    0.0000 C   0  0  0  0  0  0  0  0  0  0  0  0
    4.5981    0.0000    0.0000 C   0  0  0  0  0  0  0  0  0  0  0  0
    4.5981    1.0000    0.0000 C   0  0  0  0  0  0  0  0  0  0  0  0
    8.0622    3.0000    0.0000 C   0  0  0  0  0  0  0  0  0  0  0  0
    5.4641   -2.5000    0.0000 C   0  0  0  0  0  0  0  0  0  0  0  0
    3.7320    1.5000    0.0000 C   0  0  0  0  0  0  0  0  0  0  0  0
    8.0622    0.0000    0.0000 C   0  0  0  0  0  0  0  0  0  0  0  0
    8.9282    2.5000    0.0000 C   0  0  0  0  0  0  0  0  0  0  0  0
    8.0622    4.0000    0.0000 C   0  0  0  0  0  0  0  0  0  0  0  0
    6.3301   -3.0000    0.0000 C   0  0  0  0  0  0  0  0  0  0  0  0
    4.5981   -3.0000    0.0000 C   0  0  0  0  0  0  0  0  0  0  0  0
    9.7942    3.0000    0.0000 C   0  0  0  0  0  0  0  0  0  0  0  0
    8.9282    4.5000    0.0000 C   0  0  0  0  0  0  0  0  0  0  0  0
    6.3301   -4.0000    0.0000 C   0  0  0  0  0  0  0  0  0  0  0  0
    4.5981   -4.0000    0.0000 C   0  0  0  0  0  0  0  0  0  0  0  0
    9.7942    4.0000    0.0000 C   0  0  0  0  0  0  0  0  0  0  0  0
    5.4641   -4.5000    0.0000 C   0  0  0  0  0  0  0  0  0  0  0  0
    8.9282   -1.5000    0.0000 C   0  0  0  0  0  0  0  0  0  0  0  0
    2.0000    1.5000    0.0000 C   0  0  0  0  0  0  0  0  0  0  0  0
    9.7942   -2.0000    0.0000 C   0  0  0  0  0  0  0  0  0  0  0  0
    9.7942   -3.0000    0.0000 C   0  0  0  0  0  0  0  0  0  0  0  0
   10.6603   -1.5000    0.0000 C   0  0  0  0  0  0  0  0  0  0  0  0
   10.6603   -3.5000    0.0000 C   0  0  0  0  0  0  0  0  0  0  0  0
   11.5263   -2.0000    0.0000 C   0  0  0  0  0  0  0  0  0  0  0  0
   11.5263   -3.0000    0.0000 C   0  0  0  0  0  0  0  0  0  0  0  0
    5.7932    0.6900    0.0000 H   0  0  0  0  0  0  0  0  0  0  0  0
    7.7331    1.8100    0.0000 H   0  0  0  0  0  0  0  0  0  0  0  0
    6.5422   -0.5826    0.0000 H   0  0  0  0  0  0  0  0  0  0  0  0
    6.9407    0.1077    0.0000 H   0  0  0  0  0  0  0  0  0  0  0  0
    6.9841    3.0826    0.0000 H   0  0  0  0  0  0  0  0  0  0  0  0
    6.5856    2.3923    0.0000 H   0  0  0  0  0  0  0  0  0  0  0  0
    3.9875    0.1077    0.0000 H   0  0  0  0  0  0  0  0  0  0  0  0
    4.3860   -0.5826    0.0000 H   0  0  0  0  0  0  0  0  0  0  0  0
    8.5991    1.3100    0.0000 H   0  0  0  0  0  0  0  0  0  0  0  0
    5.2087    0.8923    0.0000 H   0  0  0  0  0  0  0  0  0  0  0  0
    4.8101    1.5826    0.0000 H   0  0  0  0  0  0  0  0  0  0  0  0
    5.4641    2.1200    0.0000 H   0  0  0  0  0  0  0  0  0  0  0  0
    4.1306    1.9750    0.0000 H   0  0  0  0  0  0  0  0  0  0  0  0
    3.3335    1.9750    0.0000 H   0  0  0  0  0  0  0  0  0  0  0  0
    8.9282    1.8800    0.0000 H   0  0  0  0  0  0  0  0  0  0  0  0
    7.5252    4.3100    0.0000 H   0  0  0  0  0  0  0  0  0  0  0  0
    6.8671   -2.6900    0.0000 H   0  0  0  0  0  0  0  0  0  0  0  0
    4.0611   -2.6900    0.0000 H   0  0  0  0  0  0  0  0  0  0  0  0
   10.3312    2.6900    0.0000 H   0  0  0  0  0  0  0  0  0  0  0  0
    8.9282    5.1200    0.0000 H   0  0  0  0  0  0  0  0  0  0  0  0
    6.8671   -4.3100    0.0000 H   0  0  0  0  0  0  0  0  0  0  0  0
    4.0611   -4.3100    0.0000 H   0  0  0  0  0  0  0  0  0  0  0  0
   10.3312    4.3100    0.0000 H   0  0  0  0  0  0  0  0  0  0  0  0
    5.4641   -5.1200    0.0000 H   0  0  0  0  0  0  0  0  0  0  0  0
    8.3176   -1.3923    0.0000 H   0  0  0  0  0  0  0  0  0  0  0  0
    8.7162   -2.0826    0.0000 H   0  0  0  0  0  0  0  0  0  0  0  0
    2.3100    2.0369    0.0000 H   0  0  0  0  0  0  0  0  0  0  0  0
    1.4631    1.8100    0.0000 H   0  0  0  0  0  0  0  0  0  0  0  0
    1.6900    0.9631    0.0000 H   0  0  0  0  0  0  0  0  0  0  0  0
    9.2573   -3.3100    0.0000 H   0  0  0  0  0  0  0  0  0  0  0  0
   10.6603   -0.8800    0.0000 H   0  0  0  0  0  0  0  0  0  0  0  0
   10.6603   -4.1200    0.0000 H   0  0  0  0  0  0  0  0  0  0  0  0
   12.0632   -1.6900    0.0000 H   0  0  0  0  0  0  0  0  0  0  0  0
   12.0632   -3.3100    0.0000 H   0  0  0  0  0  0  0  0  0  0  0  0
  1  3  2  0  0  0  0
  1  4  2  0  0  0  0
  1  8  1  0  0  0  0
  1 17  1  0  0  0  0
 10  2  1  1  0  0  0
  2 49  1  0  0  0  0
  5 18  1  0  0  0  0
  5 31  1  0  0  0  0
  6 19  1  0  0  0  0
  6 30  1  0  0  0  0
  7 19  2  0  0  0  0
  8 12  1  0  0  0  0
  8 14  1  0  0  0  0
 11  9  1  6  0  0  0
  9 19  1  0  0  0  0
  9 46  1  0  0  0  0
 10 11  1  0  0  0  0
 10 12  1  0  0  0  0
 10 38  1  0  0  0  0
 11 13  1  0  0  0  0
 11 39  1  0  0  0  0
 12 40  1  0  0  0  0
 12 41  1  0  0  0  0
 13 16  1  0  0  0  0
 13 42  1  0  0  0  0
 13 43  1  0  0  0  0
 14 15  1  0  0  0  0
 14 44  1  0  0  0  0
 14 45  1  0  0  0  0
 15 18  1  0  0  0  0
 15 47  1  0  0  0  0
 15 48  1  0  0  0  0
 16 20  2  0  0  0  0
 16 21  1  0  0  0  0
 17 22  2  0  0  0  0
 17 23  1  0  0  0  0
 18 50  1  0  0  0  0
 18 51  1  0  0  0  0
 20 24  1  0  0  0  0
 20 52  1  0  0  0  0
 21 25  2  0  0  0  0
 21 53  1  0  0  0  0
 22 26  1  0  0  0  0
 22 54  1  0  0  0  0
 23 27  2  0  0  0  0
 23 55  1  0  0  0  0
 24 28  2  0  0  0  0
 24 56  1  0  0  0  0
 25 28  1  0  0  0  0
 25 57  1  0  0  0  0
 26 29  2  0  0  0  0
 26 58  1  0  0  0  0
 27 29  1  0  0  0  0
 27 59  1  0  0  0  0
 28 60  1  0  0  0  0
 29 61  1  0  0  0  0
 30 32  1  0  0  0  0
 30 62  1  0  0  0  0
 30 63  1  0  0  0  0
 31 64  1  0  0  0  0
 31 65  1  0  0  0  0
 31 66  1  0  0  0  0
 32 33  2  0  0  0  0
 32 34  1  0  0  0  0
 33 35  1  0  0  0  0
 33 67  1  0  0  0  0
 34 36  2  0  0  0  0
 34 68  1  0  0  0  0
 35 37  2  0  0  0  0
 35 69  1  0  0  0  0
 36 37  1  0  0  0  0
 36 70  1  0  0  0  0
 37 71  1  0  0  0  0
M  END
> <PUBCHEM_COMPOUND_CID>
508307
> <PUBCHEM_COMPOUND_CANONICALIZED>
1
> <PUBCHEM_CACTVS_COMPLEXITY>
740
> <PUBCHEM_CACTVS_HBOND_ACCEPTOR>
7
> <PUBCHEM_CACTVS_HBOND_DONOR>
2
> <PUBCHEM_CACTVS_ROTATABLE_BOND>
15
> <PUBCHEM_CACTVS_SUBSKEYS>
AAADcfB7OABAAAAAAAAAAAAAAAAAAAAAAAAwYMAAAAAAAAABUAAAHgQQSAAADDzh2AYyCYLABgKIAiBCGHBCABAgAAAIiJgICIkKNiKA8RmMcAAm1gGYqAeQwKAOAAAAAAAAAAAAAAAAAAAAAAAAAAAAAA==
> <PUBCHEM_IUPAC_OPENEYE_NAME>
benzyl N-[(1S,2R)-3-[benzenesulfonyl(3-methoxypropyl)amino]-1-benzyl-2-hydroxy-propyl]carbamate
> <PUBCHEM_IUPAC_CAS_NAME>
N-[(2S,3R)-4-[benzenesulfonyl(3-methoxypropyl)amino]-3-hydroxy-1-phenylbutan-2-yl]carbamic acid (phenylmethyl) ester
> <PUBCHEM_IUPAC_NAME_MARKUP>
benzyl <I>N</I>-[(2<I>S</I>,3<I>R</I>)-4-[benzenesulfonyl(3-methoxypropyl)amino]-3-hydroxy-1-phenylbutan-2-yl]carbamate
> <PUBCHEM_IUPAC_NAME>
benzyl N-[(2S,3R)-4-[benzenesulfonyl(3-methoxypropyl)amino]-3-hydroxy-1-phenylbutan-2-yl]carbamate
> <PUBCHEM_IUPAC_SYSTEMATIC_NAME>
(phenylmethyl) N-[(2S,3R)-4-[3-methoxypropyl(phenylsulfonyl)amino]-3-oxidanyl-1-phenyl-butan-2-yl]carbamate
> <PUBCHEM_IUPAC_TRADITIONAL_NAME>
N-[(1S,2R)-1-benzyl-3-[besyl(3-methoxypropyl)amino]-2-hydroxy-propyl]carbamic acid benzyl ester
> <PUBCHEM_IUPAC_INCHI>
InChI=1S/C28H34N2O6S/c1-35-19-11-18-30(37(33,34)25-16-9-4-10-17-25)21-27(31)26(20-23-12-5-2-6-13-23)29-28(32)36-22-24-14-7-3-8-15-24/h2-10,12-17,26-27,31H,11,18-22H2,1H3,(H,29,32)/t26-,27+/m0/s1
> <PUBCHEM_IUPAC_INCHIKEY>
WBWMPAILSFYHBD-RRPNLBNLSA-N
> <PUBCHEM_XLOGP3_AA>
3.9
> <PUBCHEM_EXACT_MASS>
526.21375798
> <PUBCHEM_MOLECULAR_FORMULA>
C28H34N2O6S
> <PUBCHEM_MOLECULAR_WEIGHT>
526.6
> <PUBCHEM_OPENEYE_CAN_SMILES>
COCCCN(CC(C(CC1=CC=CC=C1)NC(=O)OCC2=CC=CC=C2)O)S(=O)(=O)C3=CC=CC=C3
> <PUBCHEM_OPENEYE_ISO_SMILES>
COCCCN(C[C@H]([C@H](CC1=CC=CC=C1)NC(=O)OCC2=CC=CC=C2)O)S(=O)(=O)C3=CC=CC=C3
> <PUBCHEM_CACTVS_TPSA>
114
> <PUBCHEM_MONOISOTOPIC_WEIGHT>
526.21375798
> <PUBCHEM_TOTAL_CHARGE>
0
> <PUBCHEM_HEAVY_ATOM_COUNT>
37
> <PUBCHEM_ATOM_DEF_STEREO_COUNT>
2
> <PUBCHEM_ATOM_UDEF_STEREO_COUNT>
0
> <PUBCHEM_BOND_DEF_STEREO_COUNT>
0
> <PUBCHEM_BOND_UDEF_STEREO_COUNT>
0
> <PUBCHEM_ISOTOPIC_ATOM_COUNT>
0
> <PUBCHEM_COMPONENT_COUNT>
1
> <PUBCHEM_CACTVS_TAUTO_COUNT>
-1
> <PUBCHEM_COORDINATE_TYPE>
1
5
255
> <PUBCHEM_BONDANNOTATIONS>
16  20  8
16  21  8
17  22  8
17  23  8
10  2  5
20  24  8
21  25  8
22  26  8
23  27  8
24  28  8
25  28  8
26  29  8
27  29  8
32  33  8
32  34  8
33  35  8
34  36  8
35  37  8
36  37  8
11  9  6
$$$$
