508333
  -OEChem-10302200282D
 90 91  0     1  0  0  0  0  0999 V2000
    4.5981   -1.5000    0.0000 S   0  0  0  0  0  0  0  0  0  0  0  0
    8.0622   -2.5000    0.0000 S   0  0  0  0  0  0  0  0  0  0  0  0
    4.5981    1.5000    0.0000 O   0  0  0  0  0  0  0  0  0  0  0  0
    6.3301   -0.5000    0.0000 O   0  0  0  0  0  0  0  0  0  0  0  0
    5.5981   -1.5000    0.0000 O   0  0  0  0  0  0  0  0  0  0  0  0
    3.5981   -1.5000    0.0000 O   0  0  0  0  0  0  0  0  0  0  0  0
    9.7942   -1.5000    0.0000 O   0  0  0  0  0  0  0  0  0  0  0  0
    4.5981   -0.5000    0.0000 N   0  0  3  0  0  0  0  0  0  0  0  0
    7.1962    1.0000    0.0000 N   0  0  0  0  0  0  0  0  0  0  0  0
    8.9282    0.0000    0.0000 N   0  0  0  0  0  0  0  0  0  0  0  0
   11.5263   -0.5000    0.0000 N   0  0  0  0  0  0  0  0  0  0  0  0
    6.3301    1.5000    0.0000 C   0  0  2  0  0  0  0  0  0  0  0  0
    5.4641    1.0000    0.0000 C   0  0  1  0  0  0  0  0  0  0  0  0
    5.4641    0.0000    0.0000 C   0  0  0  0  0  0  0  0  0  0  0  0
    6.3301    2.5000    0.0000 C   0  0  0  0  0  0  0  0  0  0  0  0
    8.0622   -0.5000    0.0000 C   0  0  1  0  0  0  0  0  0  0  0  0
    3.7320    0.0000    0.0000 C   0  0  0  0  0  0  0  0  0  0  0  0
    8.0622   -1.5000    0.0000 C   0  0  0  0  0  0  0  0  0  0  0  0
    3.7320    1.0000    0.0000 C   0  0  0  0  0  0  0  0  0  0  0  0
    7.1962    0.0000    0.0000 C   0  0  0  0  0  0  0  0  0  0  0  0
    2.8660    1.5000    0.0000 C   0  0  0  0  0  0  0  0  0  0  0  0
    7.1962    3.0000    0.0000 C   0  0  0  0  0  0  0  0  0  0  0  0
    9.0622   -1.5000    0.0000 C   0  0  0  0  0  0  0  0  0  0  0  0
    7.0622   -1.5000    0.0000 C   0  0  0  0  0  0  0  0  0  0  0  0
    4.5981   -2.5000    0.0000 C   0  0  0  0  0  0  0  0  0  0  0  0
    2.0000    1.0000    0.0000 C   0  0  0  0  0  0  0  0  0  0  0  0
    2.8660    2.5000    0.0000 C   0  0  0  0  0  0  0  0  0  0  0  0
    8.0622    2.5000    0.0000 C   0  0  0  0  0  0  0  0  0  0  0  0
    7.1962    4.0000    0.0000 C   0  0  0  0  0  0  0  0  0  0  0  0
    9.7942   -0.5000    0.0000 C   0  0  0  0  0  0  0  0  0  0  0  0
    5.4641   -3.0000    0.0000 C   0  0  0  0  0  0  0  0  0  0  0  0
    3.7320   -3.0000    0.0000 C   0  0  0  0  0  0  0  0  0  0  0  0
    8.9282   -3.0000    0.0000 C   0  0  0  0  0  0  0  0  0  0  0  0
   10.6603   -0.0000    0.0000 C   0  0  0  0  0  0  0  0  0  0  0  0
    8.9282    3.0000    0.0000 C   0  0  0  0  0  0  0  0  0  0  0  0
    8.0622    4.5000    0.0000 C   0  0  0  0  0  0  0  0  0  0  0  0
    8.9282    4.0000    0.0000 C   0  0  0  0  0  0  0  0  0  0  0  0
    5.4641   -4.0000    0.0000 C   0  0  0  0  0  0  0  0  0  0  0  0
    3.7320   -4.0000    0.0000 C   0  0  0  0  0  0  0  0  0  0  0  0
    4.5981   -4.5000    0.0000 C   0  0  0  0  0  0  0  0  0  0  0  0
   12.3923   -0.0000    0.0000 C   0  0  0  0  0  0  0  0  0  0  0  0
   11.5263   -1.5000    0.0000 C   0  0  0  0  0  0  0  0  0  0  0  0
    6.8671    1.8100    0.0000 H   0  0  0  0  0  0  0  0  0  0  0  0
    5.4641    1.6200    0.0000 H   0  0  0  0  0  0  0  0  0  0  0  0
    5.6762   -0.5826    0.0000 H   0  0  0  0  0  0  0  0  0  0  0  0
    6.0747    0.1077    0.0000 H   0  0  0  0  0  0  0  0  0  0  0  0
    6.1181    3.0826    0.0000 H   0  0  0  0  0  0  0  0  0  0  0  0
    5.7196    2.3923    0.0000 H   0  0  0  0  0  0  0  0  0  0  0  0
    8.0622    0.1200    0.0000 H   0  0  0  0  0  0  0  0  0  0  0  0
    3.1215    0.1077    0.0000 H   0  0  0  0  0  0  0  0  0  0  0  0
    3.5200   -0.5826    0.0000 H   0  0  0  0  0  0  0  0  0  0  0  0
    7.7331    1.3100    0.0000 H   0  0  0  0  0  0  0  0  0  0  0  0
    4.3426    0.8923    0.0000 H   0  0  0  0  0  0  0  0  0  0  0  0
    3.9441    1.5826    0.0000 H   0  0  0  0  0  0  0  0  0  0  0  0
    2.8660    0.8800    0.0000 H   0  0  0  0  0  0  0  0  0  0  0  0
    9.0622   -2.1200    0.0000 H   0  0  0  0  0  0  0  0  0  0  0  0
    9.6822   -1.5000    0.0000 H   0  0  0  0  0  0  0  0  0  0  0  0
    9.0622   -0.8800    0.0000 H   0  0  0  0  0  0  0  0  0  0  0  0
    7.0622   -0.8800    0.0000 H   0  0  0  0  0  0  0  0  0  0  0  0
    6.4422   -1.5000    0.0000 H   0  0  0  0  0  0  0  0  0  0  0  0
    7.0622   -2.1200    0.0000 H   0  0  0  0  0  0  0  0  0  0  0  0
    8.9282    0.6200    0.0000 H   0  0  0  0  0  0  0  0  0  0  0  0
    4.5981    2.1200    0.0000 H   0  0  0  0  0  0  0  0  0  0  0  0
    1.6900    1.5369    0.0000 H   0  0  0  0  0  0  0  0  0  0  0  0
    1.4631    0.6900    0.0000 H   0  0  0  0  0  0  0  0  0  0  0  0
    2.3100    0.4631    0.0000 H   0  0  0  0  0  0  0  0  0  0  0  0
    3.4860    2.5000    0.0000 H   0  0  0  0  0  0  0  0  0  0  0  0
    2.8660    3.1200    0.0000 H   0  0  0  0  0  0  0  0  0  0  0  0
    2.2460    2.5000    0.0000 H   0  0  0  0  0  0  0  0  0  0  0  0
    8.0622    1.8800    0.0000 H   0  0  0  0  0  0  0  0  0  0  0  0
    6.6592    4.3100    0.0000 H   0  0  0  0  0  0  0  0  0  0  0  0
    6.0010   -2.6900    0.0000 H   0  0  0  0  0  0  0  0  0  0  0  0
    3.1951   -2.6900    0.0000 H   0  0  0  0  0  0  0  0  0  0  0  0
    8.6182   -3.5369    0.0000 H   0  0  0  0  0  0  0  0  0  0  0  0
    9.4651   -3.3100    0.0000 H   0  0  0  0  0  0  0  0  0  0  0  0
    9.2382   -2.4631    0.0000 H   0  0  0  0  0  0  0  0  0  0  0  0
   11.0588    0.4749    0.0000 H   0  0  0  0  0  0  0  0  0  0  0  0
   10.2617    0.4749    0.0000 H   0  0  0  0  0  0  0  0  0  0  0  0
    9.4651    2.6900    0.0000 H   0  0  0  0  0  0  0  0  0  0  0  0
    8.0622    5.1200    0.0000 H   0  0  0  0  0  0  0  0  0  0  0  0
    9.4651    4.3100    0.0000 H   0  0  0  0  0  0  0  0  0  0  0  0
    6.0010   -4.3100    0.0000 H   0  0  0  0  0  0  0  0  0  0  0  0
    3.1951   -4.3100    0.0000 H   0  0  0  0  0  0  0  0  0  0  0  0
    4.5981   -5.1200    0.0000 H   0  0  0  0  0  0  0  0  0  0  0  0
   12.7023   -0.5369    0.0000 H   0  0  0  0  0  0  0  0  0  0  0  0
   12.9292    0.3100    0.0000 H   0  0  0  0  0  0  0  0  0  0  0  0
   12.0823    0.5369    0.0000 H   0  0  0  0  0  0  0  0  0  0  0  0
   10.9063   -1.5000    0.0000 H   0  0  0  0  0  0  0  0  0  0  0  0
   11.5263   -2.1200    0.0000 H   0  0  0  0  0  0  0  0  0  0  0  0
   12.1463   -1.5000    0.0000 H   0  0  0  0  0  0  0  0  0  0  0  0
  1  5  2  0  0  0  0
  1  6  2  0  0  0  0
  1  8  1  0  0  0  0
  1 25  1  0  0  0  0
  2 18  1  0  0  0  0
  2 33  1  0  0  0  0
 13  3  1  1  0  0  0
  3 63  1  0  0  0  0
  4 20  2  0  0  0  0
  7 30  2  0  0  0  0
  8 14  1  0  0  0  0
  8 17  1  0  0  0  0
 12  9  1  6  0  0  0
  9 20  1  0  0  0  0
  9 52  1  0  0  0  0
 16 10  1  1  0  0  0
 10 30  1  0  0  0  0
 10 62  1  0  0  0  0
 11 34  1  0  0  0  0
 11 41  1  0  0  0  0
 11 42  1  0  0  0  0
 12 13  1  0  0  0  0
 12 15  1  0  0  0  0
 12 43  1  0  0  0  0
 13 14  1  0  0  0  0
 13 44  1  0  0  0  0
 14 45  1  0  0  0  0
 14 46  1  0  0  0  0
 15 22  1  0  0  0  0
 15 47  1  0  0  0  0
 15 48  1  0  0  0  0
 16 18  1  0  0  0  0
 16 20  1  0  0  0  0
 16 49  1  0  0  0  0
 17 19  1  0  0  0  0
 17 50  1  0  0  0  0
 17 51  1  0  0  0  0
 18 23  1  0  0  0  0
 18 24  1  0  0  0  0
 19 21  1  0  0  0  0
 19 53  1  0  0  0  0
 19 54  1  0  0  0  0
 21 26  1  0  0  0  0
 21 27  1  0  0  0  0
 21 55  1  0  0  0  0
 22 28  2  0  0  0  0
 22 29  1  0  0  0  0
 23 56  1  0  0  0  0
 23 57  1  0  0  0  0
 23 58  1  0  0  0  0
 24 59  1  0  0  0  0
 24 60  1  0  0  0  0
 24 61  1  0  0  0  0
 25 31  2  0  0  0  0
 25 32  1  0  0  0  0
 26 64  1  0  0  0  0
 26 65  1  0  0  0  0
 26 66  1  0  0  0  0
 27 67  1  0  0  0  0
 27 68  1  0  0  0  0
 27 69  1  0  0  0  0
 28 35  1  0  0  0  0
 28 70  1  0  0  0  0
 29 36  2  0  0  0  0
 29 71  1  0  0  0  0
 30 34  1  0  0  0  0
 31 38  1  0  0  0  0
 31 72  1  0  0  0  0
 32 39  2  0  0  0  0
 32 73  1  0  0  0  0
 33 74  1  0  0  0  0
 33 75  1  0  0  0  0
 33 76  1  0  0  0  0
 34 77  1  0  0  0  0
 34 78  1  0  0  0  0
 35 37  2  0  0  0  0
 35 79  1  0  0  0  0
 36 37  1  0  0  0  0
 36 80  1  0  0  0  0
 37 81  1  0  0  0  0
 38 40  2  0  0  0  0
 38 82  1  0  0  0  0
 39 40  1  0  0  0  0
 39 83  1  0  0  0  0
 40 84  1  0  0  0  0
 41 85  1  0  0  0  0
 41 86  1  0  0  0  0
 41 87  1  0  0  0  0
 42 88  1  0  0  0  0
 42 89  1  0  0  0  0
 42 90  1  0  0  0  0
M  END
> <PUBCHEM_COMPOUND_CID>
508333
> <PUBCHEM_COMPOUND_CANONICALIZED>
1
> <PUBCHEM_CACTVS_COMPLEXITY>
926
> <PUBCHEM_CACTVS_HBOND_ACCEPTOR>
8
> <PUBCHEM_CACTVS_HBOND_DONOR>
3
> <PUBCHEM_CACTVS_ROTATABLE_BOND>
17
> <PUBCHEM_CACTVS_SUBSKEYS>
AAADcfB7uABgAAAAAAAAAAAAAAAAAAAAAAAwYAAAAAAAAAABQAAAHgQQSAAADTzh2AayAYPAAgqIAiFSEHBCABAgABAIiJmIAIgKcDKg0TGUYAAklgCYiAeQwKAOAAAAAAAAAAAAAAAAAAAAAAAAAAAAAA==
> <PUBCHEM_IUPAC_OPENEYE_NAME>
(2R)-N-[(1S,2R)-3-[benzenesulfonyl(isopentyl)amino]-1-benzyl-2-hydroxy-propyl]-2-[[2-(dimethylamino)acetyl]amino]-3-methyl-3-methylsulfanyl-butanamide
> <PUBCHEM_IUPAC_CAS_NAME>
(2R)-N-[(2S,3R)-4-[benzenesulfonyl(3-methylbutyl)amino]-3-hydroxy-1-phenylbutan-2-yl]-2-[[2-(dimethylamino)-1-oxoethyl]amino]-3-methyl-3-(methylthio)butanamide
> <PUBCHEM_IUPAC_NAME_MARKUP>
(2<I>R</I>)-<I>N</I>-[(2<I>S</I>,3<I>R</I>)-4-[benzenesulfonyl(3-methylbutyl)amino]-3-hydroxy-1-phenylbutan-2-yl]-2-[[2-(dimethylamino)acetyl]amino]-3-methyl-3-methylsulfanylbutanamide
> <PUBCHEM_IUPAC_NAME>
(2R)-N-[(2S,3R)-4-[benzenesulfonyl(3-methylbutyl)amino]-3-hydroxy-1-phenylbutan-2-yl]-2-[[2-(dimethylamino)acetyl]amino]-3-methyl-3-methylsulfanylbutanamide
> <PUBCHEM_IUPAC_SYSTEMATIC_NAME>
(2R)-2-[2-(dimethylamino)ethanoylamino]-3-methyl-N-[(2S,3R)-4-[3-methylbutyl(phenylsulfonyl)amino]-3-oxidanyl-1-phenyl-butan-2-yl]-3-methylsulfanyl-butanamide
> <PUBCHEM_IUPAC_TRADITIONAL_NAME>
(2R)-N-[(1S,2R)-1-benzyl-3-[besyl(isoamyl)amino]-2-hydroxy-propyl]-2-[[2-(dimethylamino)acetyl]amino]-3-methyl-3-(methylthio)butyramide
> <PUBCHEM_IUPAC_INCHI>
InChI=1S/C31H48N4O5S2/c1-23(2)18-19-35(42(39,40)25-16-12-9-13-17-25)21-27(36)26(20-24-14-10-8-11-15-24)32-30(38)29(31(3,4)41-7)33-28(37)22-34(5)6/h8-17,23,26-27,29,36H,18-22H2,1-7H3,(H,32,38)(H,33,37)/t26-,27+,29+/m0/s1
> <PUBCHEM_IUPAC_INCHIKEY>
GBYIFXUASOOGOL-YIKNKFAXSA-N
> <PUBCHEM_XLOGP3_AA>
4.2
> <PUBCHEM_EXACT_MASS>
620.30661299
> <PUBCHEM_MOLECULAR_FORMULA>
C31H48N4O5S2
> <PUBCHEM_MOLECULAR_WEIGHT>
620.9
> <PUBCHEM_OPENEYE_CAN_SMILES>
CC(C)CCN(CC(C(CC1=CC=CC=C1)NC(=O)C(C(C)(C)SC)NC(=O)CN(C)C)O)S(=O)(=O)C2=CC=CC=C2
> <PUBCHEM_OPENEYE_ISO_SMILES>
CC(C)CCN(C[C@H]([C@H](CC1=CC=CC=C1)NC(=O)[C@H](C(C)(C)SC)NC(=O)CN(C)C)O)S(=O)(=O)C2=CC=CC=C2
> <PUBCHEM_CACTVS_TPSA>
153
> <PUBCHEM_MONOISOTOPIC_WEIGHT>
620.30661299
> <PUBCHEM_TOTAL_CHARGE>
0
> <PUBCHEM_HEAVY_ATOM_COUNT>
42
> <PUBCHEM_ATOM_DEF_STEREO_COUNT>
3
> <PUBCHEM_ATOM_UDEF_STEREO_COUNT>
0
> <PUBCHEM_BOND_DEF_STEREO_COUNT>
0
> <PUBCHEM_BOND_UDEF_STEREO_COUNT>
0
> <PUBCHEM_ISOTOPIC_ATOM_COUNT>
0
> <PUBCHEM_COMPONENT_COUNT>
1
> <PUBCHEM_CACTVS_TAUTO_COUNT>
-1
> <PUBCHEM_COORDINATE_TYPE>
1
5
255
> <PUBCHEM_BONDANNOTATIONS>
16  10  5
22  28  8
22  29  8
25  31  8
25  32  8
28  35  8
29  36  8
13  3  5
31  38  8
32  39  8
35  37  8
36  37  8
38  40  8
39  40  8
12  9  6
$$$$
