508355
  -OEChem-10302200282D
105108  0     1  0  0  0  0  0999 V2000
   13.0878    0.1234    0.0000 O   0  0  0  0  0  0  0  0  0  0  0  0
   14.9851    1.7371    0.0000 O   0  0  0  0  0  0  0  0  0  0  0  0
   14.9851    0.1276    0.0000 O   0  0  0  0  0  0  0  0  0  0  0  0
   12.7788    2.6924    0.0000 O   0  0  0  0  0  0  0  0  0  0  0  0
    9.5000    2.6644    0.0000 O   0  0  0  0  0  0  0  0  0  0  0  0
   12.5000   -0.7997    0.0000 O   0  0  0  0  0  0  0  0  0  0  0  0
    9.5000    0.9324    0.0000 O   0  0  0  0  0  0  0  0  0  0  0  0
   14.5000   -2.5317    0.0000 O   0  0  0  0  0  0  0  0  0  0  0  0
   11.0000    0.0664    0.0000 N   0  0  0  0  0  0  0  0  0  0  0  0
   11.0000   -1.6657    0.0000 N   0  0  0  0  0  0  0  0  0  0  0  0
   14.0388    1.4324    0.0000 C   0  0  2  0  0  0  0  0  0  0  0  0
   12.5000    0.9324    0.0000 C   0  0  3  0  0  0  0  0  0  0  0  0
   13.0878    1.7414    0.0000 C   0  0  2  0  0  0  0  0  0  0  0  0
   14.0388    0.4324    0.0000 C   0  0  2  0  0  0  0  0  0  0  0  0
   11.5000    0.9324    0.0000 C   0  0  2  0  0  0  0  0  0  0  0  0
   15.5687    0.9324    0.0000 C   0  0  0  0  0  0  0  0  0  0  0  0
   11.0000    1.7984    0.0000 C   0  0  0  0  0  0  0  0  0  0  0  0
   16.3777    0.3446    0.0000 C   0  0  0  0  0  0  0  0  0  0  0  0
   16.3777    1.5202    0.0000 C   0  0  0  0  0  0  0  0  0  0  0  0
   10.0000    0.0664    0.0000 C   0  0  0  0  0  0  0  0  0  0  0  0
    9.5000   -0.7997    0.0000 C   0  0  0  0  0  0  0  0  0  0  0  0
   11.5000   -0.7997    0.0000 C   0  0  0  0  0  0  0  0  0  0  0  0
   10.0000    1.7984    0.0000 C   0  0  0  0  0  0  0  0  0  0  0  0
   13.4479    3.4356    0.0000 C   0  0  0  0  0  0  0  0  0  0  0  0
    8.5000   -0.7997    0.0000 C   0  0  0  0  0  0  0  0  0  0  0  0
    8.0000   -1.6657    0.0000 C   0  0  0  0  0  0  0  0  0  0  0  0
   14.4260    3.2277    0.0000 C   0  0  0  0  0  0  0  0  0  0  0  0
   13.1389    4.3867    0.0000 C   0  0  0  0  0  0  0  0  0  0  0  0
    7.0000   -1.6657    0.0000 C   0  0  0  0  0  0  0  0  0  0  0  0
    6.5000   -2.5317    0.0000 C   0  0  0  0  0  0  0  0  0  0  0  0
   11.5000   -2.5317    0.0000 C   0  0  0  0  0  0  0  0  0  0  0  0
   15.0952    3.9708    0.0000 C   0  0  0  0  0  0  0  0  0  0  0  0
   13.8080    5.1298    0.0000 C   0  0  0  0  0  0  0  0  0  0  0  0
    8.5000    2.6644    0.0000 C   0  0  0  0  0  0  0  0  0  0  0  0
   14.7862    4.9219    0.0000 C   0  0  0  0  0  0  0  0  0  0  0  0
    5.5000   -2.5317    0.0000 C   0  0  0  0  0  0  0  0  0  0  0  0
    5.0000   -3.3978    0.0000 C   0  0  0  0  0  0  0  0  0  0  0  0
   12.5000   -2.5317    0.0000 C   0  0  0  0  0  0  0  0  0  0  0  0
   11.0000   -3.3978    0.0000 C   0  0  0  0  0  0  0  0  0  0  0  0
    8.0000    3.5305    0.0000 C   0  0  0  0  0  0  0  0  0  0  0  0
    4.0000   -3.3978    0.0000 C   0  0  0  0  0  0  0  0  0  0  0  0
   13.0000   -3.3978    0.0000 C   0  0  0  0  0  0  0  0  0  0  0  0
    3.5000   -4.2638    0.0000 C   0  0  0  0  0  0  0  0  0  0  0  0
   11.5000   -4.2638    0.0000 C   0  0  0  0  0  0  0  0  0  0  0  0
   12.5000   -4.2638    0.0000 C   0  0  0  0  0  0  0  0  0  0  0  0
    2.5000   -4.2638    0.0000 C   0  0  0  0  0  0  0  0  0  0  0  0
   14.0000   -3.3978    0.0000 C   0  0  0  0  0  0  0  0  0  0  0  0
    2.0000   -5.1298    0.0000 C   0  0  0  0  0  0  0  0  0  0  0  0
   14.5000   -4.2638    0.0000 C   0  0  0  0  0  0  0  0  0  0  0  0
   14.0399    2.2824    0.0000 H   0  0  0  0  0  0  0  0  0  0  0  0
   13.1200    0.9324    0.0000 H   0  0  0  0  0  0  0  0  0  0  0  0
   13.5262    2.1798    0.0000 H   0  0  0  0  0  0  0  0  0  0  0  0
   14.0399   -0.4176    0.0000 H   0  0  0  0  0  0  0  0  0  0  0  0
   11.8100    0.3954    0.0000 H   0  0  0  0  0  0  0  0  0  0  0  0
   11.5826    2.0105    0.0000 H   0  0  0  0  0  0  0  0  0  0  0  0
   10.8923    2.4090    0.0000 H   0  0  0  0  0  0  0  0  0  0  0  0
   16.0133   -0.1570    0.0000 H   0  0  0  0  0  0  0  0  0  0  0  0
   16.8793   -0.0198    0.0000 H   0  0  0  0  0  0  0  0  0  0  0  0
   16.7421    0.8462    0.0000 H   0  0  0  0  0  0  0  0  0  0  0  0
   16.7421    1.0186    0.0000 H   0  0  0  0  0  0  0  0  0  0  0  0
   16.8793    1.8846    0.0000 H   0  0  0  0  0  0  0  0  0  0  0  0
   16.0133    2.0218    0.0000 H   0  0  0  0  0  0  0  0  0  0  0  0
   10.1077    0.6769    0.0000 H   0  0  0  0  0  0  0  0  0  0  0  0
    9.4174    0.2784    0.0000 H   0  0  0  0  0  0  0  0  0  0  0  0
    9.3923   -1.4102    0.0000 H   0  0  0  0  0  0  0  0  0  0  0  0
   10.0826   -1.0117    0.0000 H   0  0  0  0  0  0  0  0  0  0  0  0
    8.6077   -0.1891    0.0000 H   0  0  0  0  0  0  0  0  0  0  0  0
    7.9174   -0.5876    0.0000 H   0  0  0  0  0  0  0  0  0  0  0  0
    7.8923   -2.2763    0.0000 H   0  0  0  0  0  0  0  0  0  0  0  0
    8.5826   -1.8778    0.0000 H   0  0  0  0  0  0  0  0  0  0  0  0
   10.3800   -1.6657    0.0000 H   0  0  0  0  0  0  0  0  0  0  0  0
   14.6176    2.6380    0.0000 H   0  0  0  0  0  0  0  0  0  0  0  0
   12.5324    4.5156    0.0000 H   0  0  0  0  0  0  0  0  0  0  0  0
    7.1077   -1.0551    0.0000 H   0  0  0  0  0  0  0  0  0  0  0  0
    6.4174   -1.4536    0.0000 H   0  0  0  0  0  0  0  0  0  0  0  0
    6.3923   -3.1423    0.0000 H   0  0  0  0  0  0  0  0  0  0  0  0
    7.0826   -2.7438    0.0000 H   0  0  0  0  0  0  0  0  0  0  0  0
   15.7016    3.8419    0.0000 H   0  0  0  0  0  0  0  0  0  0  0  0
   13.6164    5.7194    0.0000 H   0  0  0  0  0  0  0  0  0  0  0  0
    7.9174    2.4524    0.0000 H   0  0  0  0  0  0  0  0  0  0  0  0
    8.6077    2.0538    0.0000 H   0  0  0  0  0  0  0  0  0  0  0  0
   15.2010    5.3826    0.0000 H   0  0  0  0  0  0  0  0  0  0  0  0
    5.6077   -1.9211    0.0000 H   0  0  0  0  0  0  0  0  0  0  0  0
    4.9174   -2.3197    0.0000 H   0  0  0  0  0  0  0  0  0  0  0  0
    4.8923   -4.0083    0.0000 H   0  0  0  0  0  0  0  0  0  0  0  0
    5.5826   -3.6098    0.0000 H   0  0  0  0  0  0  0  0  0  0  0  0
   12.8100   -1.9948    0.0000 H   0  0  0  0  0  0  0  0  0  0  0  0
   10.3800   -3.3978    0.0000 H   0  0  0  0  0  0  0  0  0  0  0  0
    8.5369    3.8405    0.0000 H   0  0  0  0  0  0  0  0  0  0  0  0
    7.6900    4.0674    0.0000 H   0  0  0  0  0  0  0  0  0  0  0  0
    7.4631    3.2205    0.0000 H   0  0  0  0  0  0  0  0  0  0  0  0
    4.1077   -2.7872    0.0000 H   0  0  0  0  0  0  0  0  0  0  0  0
    3.4174   -3.1857    0.0000 H   0  0  0  0  0  0  0  0  0  0  0  0
    3.3923   -4.8744    0.0000 H   0  0  0  0  0  0  0  0  0  0  0  0
    4.0826   -4.4758    0.0000 H   0  0  0  0  0  0  0  0  0  0  0  0
   11.1900   -4.8007    0.0000 H   0  0  0  0  0  0  0  0  0  0  0  0
   12.8100   -4.8007    0.0000 H   0  0  0  0  0  0  0  0  0  0  0  0
    2.6077   -3.6532    0.0000 H   0  0  0  0  0  0  0  0  0  0  0  0
    1.9174   -4.0517    0.0000 H   0  0  0  0  0  0  0  0  0  0  0  0
    1.4631   -4.8198    0.0000 H   0  0  0  0  0  0  0  0  0  0  0  0
    1.6900   -5.6667    0.0000 H   0  0  0  0  0  0  0  0  0  0  0  0
    2.5369   -5.4398    0.0000 H   0  0  0  0  0  0  0  0  0  0  0  0
   13.9631   -4.5738    0.0000 H   0  0  0  0  0  0  0  0  0  0  0  0
   14.8100   -4.8007    0.0000 H   0  0  0  0  0  0  0  0  0  0  0  0
   15.0369   -3.9538    0.0000 H   0  0  0  0  0  0  0  0  0  0  0  0
  1 12  1  0  0  0  0
  1 14  1  0  0  0  0
  2 11  1  0  0  0  0
  2 16  1  0  0  0  0
  3 14  1  0  0  0  0
  3 16  1  0  0  0  0
 13  4  1  6  0  0  0
  4 24  1  0  0  0  0
  5 23  1  0  0  0  0
  5 34  1  0  0  0  0
  6 22  2  0  0  0  0
  7 23  2  0  0  0  0
  8 47  2  0  0  0  0
 15  9  1  1  0  0  0
  9 20  1  0  0  0  0
  9 22  1  0  0  0  0
 10 22  1  0  0  0  0
 10 31  1  0  0  0  0
 10 71  1  0  0  0  0
 11 13  1  0  0  0  0
 11 14  1  0  0  0  0
 11 50  1  6  0  0  0
 12 13  1  0  0  0  0
 12 15  1  0  0  0  0
 12 51  1  0  0  0  0
 13 52  1  0  0  0  0
 14 53  1  6  0  0  0
 15 17  1  0  0  0  0
 15 54  1  0  0  0  0
 16 18  1  0  0  0  0
 16 19  1  0  0  0  0
 17 23  1  0  0  0  0
 17 55  1  0  0  0  0
 17 56  1  0  0  0  0
 18 57  1  0  0  0  0
 18 58  1  0  0  0  0
 18 59  1  0  0  0  0
 19 60  1  0  0  0  0
 19 61  1  0  0  0  0
 19 62  1  0  0  0  0
 20 21  1  0  0  0  0
 20 63  1  0  0  0  0
 20 64  1  0  0  0  0
 21 25  1  0  0  0  0
 21 65  1  0  0  0  0
 21 66  1  0  0  0  0
 24 27  2  0  0  0  0
 24 28  1  0  0  0  0
 25 26  1  0  0  0  0
 25 67  1  0  0  0  0
 25 68  1  0  0  0  0
 26 29  1  0  0  0  0
 26 69  1  0  0  0  0
 26 70  1  0  0  0  0
 27 32  1  0  0  0  0
 27 72  1  0  0  0  0
 28 33  2  0  0  0  0
 28 73  1  0  0  0  0
 29 30  1  0  0  0  0
 29 74  1  0  0  0  0
 29 75  1  0  0  0  0
 30 36  1  0  0  0  0
 30 76  1  0  0  0  0
 30 77  1  0  0  0  0
 31 38  1  0  0  0  0
 31 39  2  0  0  0  0
 32 35  2  0  0  0  0
 32 78  1  0  0  0  0
 33 35  1  0  0  0  0
 33 79  1  0  0  0  0
 34 40  1  0  0  0  0
 34 80  1  0  0  0  0
 34 81  1  0  0  0  0
 35 82  1  0  0  0  0
 36 37  1  0  0  0  0
 36 83  1  0  0  0  0
 36 84  1  0  0  0  0
 37 41  1  0  0  0  0
 37 85  1  0  0  0  0
 37 86  1  0  0  0  0
 38 42  2  0  0  0  0
 38 87  1  0  0  0  0
 39 44  1  0  0  0  0
 39 88  1  0  0  0  0
 40 89  1  0  0  0  0
 40 90  1  0  0  0  0
 40 91  1  0  0  0  0
 41 43  1  0  0  0  0
 41 92  1  0  0  0  0
 41 93  1  0  0  0  0
 42 45  1  0  0  0  0
 42 47  1  0  0  0  0
 43 46  1  0  0  0  0
 43 94  1  0  0  0  0
 43 95  1  0  0  0  0
 44 45  2  0  0  0  0
 44 96  1  0  0  0  0
 45 97  1  0  0  0  0
 46 48  1  0  0  0  0
 46 98  1  0  0  0  0
 46 99  1  0  0  0  0
 47 49  1  0  0  0  0
 48100  1  0  0  0  0
 48101  1  0  0  0  0
 48102  1  0  0  0  0
 49103  1  0  0  0  0
 49104  1  0  0  0  0
 49105  1  0  0  0  0
M  END
> <PUBCHEM_COMPOUND_CID>
508355
> <PUBCHEM_COMPOUND_CANONICALIZED>
1
> <PUBCHEM_CACTVS_COMPLEXITY>
1020
> <PUBCHEM_CACTVS_HBOND_ACCEPTOR>
8
> <PUBCHEM_CACTVS_HBOND_DONOR>
1
> <PUBCHEM_CACTVS_ROTATABLE_BOND>
21
> <PUBCHEM_CACTVS_SUBSKEYS>
AAADcfB/PAAAAAAAAAAAAAAAAAAAASJAAAAwYAAAAAASAAABQAAAHgAQAAAADDzxmAczzoPABACIAqTSWACCCAAlIgAIiAEObMifJjrEtZunOSjv1hPe6af+/K/OAAAAQAAAAAAAAACAAAAAAAAAAAAAAA==
> <PUBCHEM_IUPAC_OPENEYE_NAME>
ethyl (3S)-3-[(3aR,6S,6aR)-2,2-dimethyl-6-phenoxy-3a,5,6,6a-tetrahydrofuro[2,3-d][1,3]dioxol-5-yl]-3-[(3-acetylphenyl)carbamoyl-dodecyl-amino]propanoate
> <PUBCHEM_IUPAC_CAS_NAME>
(3S)-3-[(3aR,6S,6aR)-2,2-dimethyl-6-phenoxy-3a,5,6,6a-tetrahydrofuro[2,3-d][1,3]dioxol-5-yl]-3-[[(3-acetylanilino)-oxomethyl]-dodecylamino]propanoic acid ethyl ester
> <PUBCHEM_IUPAC_NAME_MARKUP>
ethyl (3<I>S</I>)-3-[(3<I>a</I><I>R</I>,6<I>S</I>,6<I>a</I><I>R</I>)-2,2-dimethyl-6-phenoxy-3<I>a</I>,5,6,6<I>a</I>-tetrahydrofuro[2,3-d][1,3]dioxol-5-yl]-3-[(3-acetylphenyl)carbamoyl-dodecylamino]propanoate
> <PUBCHEM_IUPAC_NAME>
ethyl (3S)-3-[(3aR,6S,6aR)-2,2-dimethyl-6-phenoxy-3a,5,6,6a-tetrahydrofuro[2,3-d][1,3]dioxol-5-yl]-3-[(3-acetylphenyl)carbamoyl-dodecylamino]propanoate
> <PUBCHEM_IUPAC_SYSTEMATIC_NAME>
ethyl (3S)-3-[(3aR,6S,6aR)-2,2-dimethyl-6-phenoxy-3a,5,6,6a-tetrahydrofuro[2,3-d][1,3]dioxol-5-yl]-3-[dodecyl-[(3-ethanoylphenyl)carbamoyl]amino]propanoate
> <PUBCHEM_IUPAC_TRADITIONAL_NAME>
(3S)-3-[(3aR,6S,6aR)-2,2-dimethyl-6-phenoxy-3a,5,6,6a-tetrahydrofuro[2,3-d][1,3]dioxol-5-yl]-3-[(3-acetylphenyl)carbamoyl-lauryl-amino]propionic acid ethyl ester
> <PUBCHEM_IUPAC_INCHI>
InChI=1S/C39H56N2O8/c1-6-8-9-10-11-12-13-14-15-19-25-41(38(44)40-30-22-20-21-29(26-30)28(3)42)32(27-33(43)45-7-2)34-35(46-31-23-17-16-18-24-31)36-37(47-34)49-39(4,5)48-36/h16-18,20-24,26,32,34-37H,6-15,19,25,27H2,1-5H3,(H,40,44)/t32-,34?,35-,36+,37+/m0/s1
> <PUBCHEM_IUPAC_INCHIKEY>
WDCDYVBDQPZZAG-WODLSUMHSA-N
> <PUBCHEM_XLOGP3_AA>
8.5
> <PUBCHEM_EXACT_MASS>
680.40366675
> <PUBCHEM_MOLECULAR_FORMULA>
C39H56N2O8
> <PUBCHEM_MOLECULAR_WEIGHT>
680.9
> <PUBCHEM_OPENEYE_CAN_SMILES>
CCCCCCCCCCCCN(C(CC(=O)OCC)C1C(C2C(O1)OC(O2)(C)C)OC3=CC=CC=C3)C(=O)NC4=CC=CC(=C4)C(=O)C
> <PUBCHEM_OPENEYE_ISO_SMILES>
CCCCCCCCCCCCN([C@@H](CC(=O)OCC)C1[C@@H]([C@@H]2[C@H](O1)OC(O2)(C)C)OC3=CC=CC=C3)C(=O)NC4=CC=CC(=C4)C(=O)C
> <PUBCHEM_CACTVS_TPSA>
113
> <PUBCHEM_MONOISOTOPIC_WEIGHT>
680.40366675
> <PUBCHEM_TOTAL_CHARGE>
0
> <PUBCHEM_HEAVY_ATOM_COUNT>
49
> <PUBCHEM_ATOM_DEF_STEREO_COUNT>
4
> <PUBCHEM_ATOM_UDEF_STEREO_COUNT>
1
> <PUBCHEM_BOND_DEF_STEREO_COUNT>
0
> <PUBCHEM_BOND_UDEF_STEREO_COUNT>
0
> <PUBCHEM_ISOTOPIC_ATOM_COUNT>
0
> <PUBCHEM_COMPONENT_COUNT>
1
> <PUBCHEM_CACTVS_TAUTO_COUNT>
-1
> <PUBCHEM_COORDINATE_TYPE>
1
5
255
> <PUBCHEM_BONDANNOTATIONS>
12  1  3
11  50  6
14  53  6
24  27  8
24  28  8
27  32  8
28  33  8
31  38  8
31  39  8
32  35  8
33  35  8
38  42  8
39  44  8
13  4  6
42  45  8
44  45  8
15  9  5
$$$$
