508320
  -OEChem-10302200282D
 73 74  0     1  0  0  0  0  0999 V2000
    4.5981   -1.1830    0.0000 S   0  0  0  0  0  0  0  0  0  0  0  0
    4.5981    1.8170    0.0000 O   0  0  0  0  0  0  0  0  0  0  0  0
    5.5981   -1.1830    0.0000 O   0  0  0  0  0  0  0  0  0  0  0  0
    3.5981   -1.1830    0.0000 O   0  0  0  0  0  0  0  0  0  0  0  0
    5.4641    4.3170    0.0000 O   0  0  0  0  0  0  0  0  0  0  0  0
    4.5981    2.8170    0.0000 O   0  0  0  0  0  0  0  0  0  0  0  0
    4.5981   -5.1830    0.0000 O   0  0  0  0  0  0  0  0  0  0  0  0
    4.5981   -0.1830    0.0000 N   0  0  3  0  0  0  0  0  0  0  0  0
    6.3301    2.8170    0.0000 N   0  0  0  0  0  0  0  0  0  0  0  0
    5.4641    1.3170    0.0000 C   0  0  1  0  0  0  0  0  0  0  0  0
    6.3301    1.8170    0.0000 C   0  0  2  0  0  0  0  0  0  0  0  0
    5.4641    0.3170    0.0000 C   0  0  0  0  0  0  0  0  0  0  0  0
    3.7320    0.3170    0.0000 C   0  0  0  0  0  0  0  0  0  0  0  0
    2.8660   -0.1830    0.0000 C   0  0  0  0  0  0  0  0  0  0  0  0
    7.1962    1.3170    0.0000 C   0  0  0  0  0  0  0  0  0  0  0  0
    8.0622    1.8170    0.0000 C   0  0  0  0  0  0  0  0  0  0  0  0
    2.0000    0.3170    0.0000 C   0  0  0  0  0  0  0  0  0  0  0  0
    2.8660   -1.1830    0.0000 C   0  0  0  0  0  0  0  0  0  0  0  0
    4.5981   -2.1830    0.0000 C   0  0  0  0  0  0  0  0  0  0  0  0
    5.4641    3.3170    0.0000 C   0  0  0  0  0  0  0  0  0  0  0  0
    4.5981    4.8170    0.0000 C   0  0  0  0  0  0  0  0  0  0  0  0
    8.0622    2.8170    0.0000 C   0  0  0  0  0  0  0  0  0  0  0  0
    8.9282    1.3170    0.0000 C   0  0  0  0  0  0  0  0  0  0  0  0
    3.7320   -2.6830    0.0000 C   0  0  0  0  0  0  0  0  0  0  0  0
    5.4641   -2.6830    0.0000 C   0  0  0  0  0  0  0  0  0  0  0  0
    8.9282    3.3170    0.0000 C   0  0  0  0  0  0  0  0  0  0  0  0
    9.7942    1.8170    0.0000 C   0  0  0  0  0  0  0  0  0  0  0  0
    3.7320   -3.6830    0.0000 C   0  0  0  0  0  0  0  0  0  0  0  0
    5.4641   -3.6830    0.0000 C   0  0  0  0  0  0  0  0  0  0  0  0
    3.7320    5.3170    0.0000 C   0  0  0  0  0  0  0  0  0  0  0  0
    5.0981    5.6830    0.0000 C   0  0  0  0  0  0  0  0  0  0  0  0
    4.0981    3.9510    0.0000 C   0  0  0  0  0  0  0  0  0  0  0  0
    4.5981   -4.1830    0.0000 C   0  0  0  0  0  0  0  0  0  0  0  0
    9.7942    2.8170    0.0000 C   0  0  0  0  0  0  0  0  0  0  0  0
    3.7320   -5.6830    0.0000 C   0  0  0  0  0  0  0  0  0  0  0  0
    5.4641    1.9370    0.0000 H   0  0  0  0  0  0  0  0  0  0  0  0
    6.8671    2.1270    0.0000 H   0  0  0  0  0  0  0  0  0  0  0  0
    5.6762   -0.2656    0.0000 H   0  0  0  0  0  0  0  0  0  0  0  0
    6.0747    0.4246    0.0000 H   0  0  0  0  0  0  0  0  0  0  0  0
    4.1306    0.7919    0.0000 H   0  0  0  0  0  0  0  0  0  0  0  0
    3.3335    0.7919    0.0000 H   0  0  0  0  0  0  0  0  0  0  0  0
    2.8660    0.4370    0.0000 H   0  0  0  0  0  0  0  0  0  0  0  0
    6.7976    0.8420    0.0000 H   0  0  0  0  0  0  0  0  0  0  0  0
    7.5947    0.8420    0.0000 H   0  0  0  0  0  0  0  0  0  0  0  0
    6.8671    3.1270    0.0000 H   0  0  0  0  0  0  0  0  0  0  0  0
    2.3100    0.8539    0.0000 H   0  0  0  0  0  0  0  0  0  0  0  0
    1.4631    0.6270    0.0000 H   0  0  0  0  0  0  0  0  0  0  0  0
    1.6900   -0.2199    0.0000 H   0  0  0  0  0  0  0  0  0  0  0  0
    2.2460   -1.1830    0.0000 H   0  0  0  0  0  0  0  0  0  0  0  0
    2.8660   -1.8030    0.0000 H   0  0  0  0  0  0  0  0  0  0  0  0
    3.4860   -1.1830    0.0000 H   0  0  0  0  0  0  0  0  0  0  0  0
    4.0611    1.5070    0.0000 H   0  0  0  0  0  0  0  0  0  0  0  0
    7.5252    3.1270    0.0000 H   0  0  0  0  0  0  0  0  0  0  0  0
    8.9282    0.6970    0.0000 H   0  0  0  0  0  0  0  0  0  0  0  0
    3.1951   -2.3730    0.0000 H   0  0  0  0  0  0  0  0  0  0  0  0
    6.0010   -2.3730    0.0000 H   0  0  0  0  0  0  0  0  0  0  0  0
    8.9282    3.9370    0.0000 H   0  0  0  0  0  0  0  0  0  0  0  0
   10.3312    1.5070    0.0000 H   0  0  0  0  0  0  0  0  0  0  0  0
    3.1951   -3.9930    0.0000 H   0  0  0  0  0  0  0  0  0  0  0  0
    6.0010   -3.9930    0.0000 H   0  0  0  0  0  0  0  0  0  0  0  0
    4.0420    5.8539    0.0000 H   0  0  0  0  0  0  0  0  0  0  0  0
    3.1951    5.6270    0.0000 H   0  0  0  0  0  0  0  0  0  0  0  0
    3.4220    4.7800    0.0000 H   0  0  0  0  0  0  0  0  0  0  0  0
    5.6350    5.3730    0.0000 H   0  0  0  0  0  0  0  0  0  0  0  0
    5.4081    6.2200    0.0000 H   0  0  0  0  0  0  0  0  0  0  0  0
    4.5611    5.9930    0.0000 H   0  0  0  0  0  0  0  0  0  0  0  0
    3.5611    4.2610    0.0000 H   0  0  0  0  0  0  0  0  0  0  0  0
    3.7881    3.4140    0.0000 H   0  0  0  0  0  0  0  0  0  0  0  0
    4.6350    3.6410    0.0000 H   0  0  0  0  0  0  0  0  0  0  0  0
   10.3312    3.1270    0.0000 H   0  0  0  0  0  0  0  0  0  0  0  0
    3.4220   -5.1461    0.0000 H   0  0  0  0  0  0  0  0  0  0  0  0
    3.1951   -5.9930    0.0000 H   0  0  0  0  0  0  0  0  0  0  0  0
    4.0420   -6.2200    0.0000 H   0  0  0  0  0  0  0  0  0  0  0  0
  1  3  2  0  0  0  0
  1  4  2  0  0  0  0
  1  8  1  0  0  0  0
  1 19  1  0  0  0  0
 10  2  1  1  0  0  0
  2 52  1  0  0  0  0
  5 20  1  0  0  0  0
  5 21  1  0  0  0  0
  6 20  2  0  0  0  0
  7 33  1  0  0  0  0
  7 35  1  0  0  0  0
  8 12  1  0  0  0  0
  8 13  1  0  0  0  0
 11  9  1  1  0  0  0
  9 20  1  0  0  0  0
  9 45  1  0  0  0  0
 10 11  1  0  0  0  0
 10 12  1  0  0  0  0
 10 36  1  0  0  0  0
 11 15  1  0  0  0  0
 11 37  1  0  0  0  0
 12 38  1  0  0  0  0
 12 39  1  0  0  0  0
 13 14  1  0  0  0  0
 13 40  1  0  0  0  0
 13 41  1  0  0  0  0
 14 17  1  0  0  0  0
 14 18  1  0  0  0  0
 14 42  1  0  0  0  0
 15 16  1  0  0  0  0
 15 43  1  0  0  0  0
 15 44  1  0  0  0  0
 16 22  2  0  0  0  0
 16 23  1  0  0  0  0
 17 46  1  0  0  0  0
 17 47  1  0  0  0  0
 17 48  1  0  0  0  0
 18 49  1  0  0  0  0
 18 50  1  0  0  0  0
 18 51  1  0  0  0  0
 19 24  2  0  0  0  0
 19 25  1  0  0  0  0
 21 30  1  0  0  0  0
 21 31  1  0  0  0  0
 21 32  1  0  0  0  0
 22 26  1  0  0  0  0
 22 53  1  0  0  0  0
 23 27  2  0  0  0  0
 23 54  1  0  0  0  0
 24 28  1  0  0  0  0
 24 55  1  0  0  0  0
 25 29  2  0  0  0  0
 25 56  1  0  0  0  0
 26 34  2  0  0  0  0
 26 57  1  0  0  0  0
 27 34  1  0  0  0  0
 27 58  1  0  0  0  0
 28 33  2  0  0  0  0
 28 59  1  0  0  0  0
 29 33  1  0  0  0  0
 29 60  1  0  0  0  0
 30 61  1  0  0  0  0
 30 62  1  0  0  0  0
 30 63  1  0  0  0  0
 31 64  1  0  0  0  0
 31 65  1  0  0  0  0
 31 66  1  0  0  0  0
 32 67  1  0  0  0  0
 32 68  1  0  0  0  0
 32 69  1  0  0  0  0
 34 70  1  0  0  0  0
 35 71  1  0  0  0  0
 35 72  1  0  0  0  0
 35 73  1  0  0  0  0
M  END
> <PUBCHEM_COMPOUND_CID>
508320
> <PUBCHEM_COMPOUND_CANONICALIZED>
1
> <PUBCHEM_CACTVS_COMPLEXITY>
732
> <PUBCHEM_CACTVS_HBOND_ACCEPTOR>
7
> <PUBCHEM_CACTVS_HBOND_DONOR>
2
> <PUBCHEM_CACTVS_ROTATABLE_BOND>
13
> <PUBCHEM_CACTVS_SUBSKEYS>
AAADcfB7OABAAAAAAAAAAAAAAAAAAAAAAAAwYAAAAAAAAAABQAAAHgQQSAAADXzh2AYyD4LABgKIAiBCGHBCCBAgIAAIiJgOCIkONiKE8RuMcCAk1hGYqAeQwKAOAIAAAAAAAAABAAAAAAAAAAAAAAAAAA==
> <PUBCHEM_IUPAC_OPENEYE_NAME>
tert-butyl N-[(1S,2R)-1-benzyl-2-hydroxy-3-[isobutyl-(4-methoxyphenyl)sulfonyl-amino]propyl]carbamate
> <PUBCHEM_IUPAC_CAS_NAME>
N-[(2S,3R)-3-hydroxy-4-[(4-methoxyphenyl)sulfonyl-(2-methylpropyl)amino]-1-phenylbutan-2-yl]carbamic acid tert-butyl ester
> <PUBCHEM_IUPAC_NAME_MARKUP>
<I>tert</I>-butyl <I>N</I>-[(2<I>S</I>,3<I>R</I>)-3-hydroxy-4-[(4-methoxyphenyl)sulfonyl-(2-methylpropyl)amino]-1-phenylbutan-2-yl]carbamate
> <PUBCHEM_IUPAC_NAME>
tert-butyl N-[(2S,3R)-3-hydroxy-4-[(4-methoxyphenyl)sulfonyl-(2-methylpropyl)amino]-1-phenylbutan-2-yl]carbamate
> <PUBCHEM_IUPAC_SYSTEMATIC_NAME>
tert-butyl N-[(2S,3R)-4-[(4-methoxyphenyl)sulfonyl-(2-methylpropyl)amino]-3-oxidanyl-1-phenyl-butan-2-yl]carbamate
> <PUBCHEM_IUPAC_TRADITIONAL_NAME>
N-[(1S,2R)-1-benzyl-2-hydroxy-3-[isobutyl-(4-methoxyphenyl)sulfonyl-amino]propyl]carbamic acid tert-butyl ester
> <PUBCHEM_IUPAC_INCHI>
InChI=1S/C26H38N2O6S/c1-19(2)17-28(35(31,32)22-14-12-21(33-6)13-15-22)18-24(29)23(16-20-10-8-7-9-11-20)27-25(30)34-26(3,4)5/h7-15,19,23-24,29H,16-18H2,1-6H3,(H,27,30)/t23-,24+/m0/s1
> <PUBCHEM_IUPAC_INCHIKEY>
DKUQHUNJQRGLJJ-BJKOFHAPSA-N
> <PUBCHEM_XLOGP3_AA>
4.5
> <PUBCHEM_EXACT_MASS>
506.24505811
> <PUBCHEM_MOLECULAR_FORMULA>
C26H38N2O6S
> <PUBCHEM_MOLECULAR_WEIGHT>
506.7
> <PUBCHEM_OPENEYE_CAN_SMILES>
CC(C)CN(CC(C(CC1=CC=CC=C1)NC(=O)OC(C)(C)C)O)S(=O)(=O)C2=CC=C(C=C2)OC
> <PUBCHEM_OPENEYE_ISO_SMILES>
CC(C)CN(C[C@H]([C@H](CC1=CC=CC=C1)NC(=O)OC(C)(C)C)O)S(=O)(=O)C2=CC=C(C=C2)OC
> <PUBCHEM_CACTVS_TPSA>
114
> <PUBCHEM_MONOISOTOPIC_WEIGHT>
506.24505811
> <PUBCHEM_TOTAL_CHARGE>
0
> <PUBCHEM_HEAVY_ATOM_COUNT>
35
> <PUBCHEM_ATOM_DEF_STEREO_COUNT>
2
> <PUBCHEM_ATOM_UDEF_STEREO_COUNT>
0
> <PUBCHEM_BOND_DEF_STEREO_COUNT>
0
> <PUBCHEM_BOND_UDEF_STEREO_COUNT>
0
> <PUBCHEM_ISOTOPIC_ATOM_COUNT>
0
> <PUBCHEM_COMPONENT_COUNT>
1
> <PUBCHEM_CACTVS_TAUTO_COUNT>
-1
> <PUBCHEM_COORDINATE_TYPE>
1
5
255
> <PUBCHEM_BONDANNOTATIONS>
16  22  8
16  23  8
19  24  8
19  25  8
10  2  5
22  26  8
23  27  8
24  28  8
25  29  8
26  34  8
27  34  8
28  33  8
29  33  8
11  9  5
$$$$
