508372
  -OEChem-10302200282D
 96100  0     1  0  0  0  0  0999 V2000
    9.5878    2.7214    0.0000 O   0  0  0  0  0  0  0  0  0  0  0  0
   11.4851    4.3352    0.0000 O   0  0  0  0  0  0  0  0  0  0  0  0
   11.4851    2.7257    0.0000 O   0  0  0  0  0  0  0  0  0  0  0  0
    9.2788    5.2905    0.0000 O   0  0  0  0  0  0  0  0  0  0  0  0
    6.0000    1.7984    0.0000 O   0  0  0  0  0  0  0  0  0  0  0  0
    6.0000    5.2625    0.0000 O   0  0  0  0  0  0  0  0  0  0  0  0
    3.5000    6.1285    0.0000 O   0  0  0  0  0  0  0  0  0  0  0  0
    7.5000    2.6644    0.0000 N   0  0  0  0  0  0  0  0  0  0  0  0
    6.0000    3.5305    0.0000 N   0  0  0  0  0  0  0  0  0  0  0  0
    9.0000    3.5305    0.0000 C   0  0  3  0  0  0  0  0  0  0  0  0
   10.5388    4.0305    0.0000 C   0  0  3  0  0  0  0  0  0  0  0  0
    9.5878    4.3395    0.0000 C   0  0  1  0  0  0  0  0  0  0  0  0
    8.0000    3.5305    0.0000 C   0  0  2  0  0  0  0  0  0  0  0  0
   10.5388    3.0305    0.0000 C   0  0  3  0  0  0  0  0  0  0  0  0
   12.0687    3.5305    0.0000 C   0  0  0  0  0  0  0  0  0  0  0  0
    7.5000    4.3965    0.0000 C   0  0  0  0  0  0  0  0  0  0  0  0
    8.0000    1.7984    0.0000 C   0  0  0  0  0  0  0  0  0  0  0  0
    6.5000    2.6644    0.0000 C   0  0  0  0  0  0  0  0  0  0  0  0
    6.5000    4.3965    0.0000 C   0  0  0  0  0  0  0  0  0  0  0  0
   12.8777    2.9427    0.0000 C   0  0  0  0  0  0  0  0  0  0  0  0
   12.8777    4.1182    0.0000 C   0  0  0  0  0  0  0  0  0  0  0  0
    7.5000    0.9324    0.0000 C   0  0  0  0  0  0  0  0  0  0  0  0
    9.9479    6.0337    0.0000 C   0  0  0  0  0  0  0  0  0  0  0  0
    8.0000    0.0664    0.0000 C   0  0  0  0  0  0  0  0  0  0  0  0
    5.0000    3.5305    0.0000 C   0  0  0  0  0  0  0  0  0  0  0  0
    7.5000   -0.7997    0.0000 C   0  0  0  0  0  0  0  0  0  0  0  0
    9.6389    6.9847    0.0000 C   0  0  0  0  0  0  0  0  0  0  0  0
   10.9260    5.8258    0.0000 C   0  0  0  0  0  0  0  0  0  0  0  0
    8.0000   -1.6657    0.0000 C   0  0  0  0  0  0  0  0  0  0  0  0
    4.5000    4.3965    0.0000 C   0  0  0  0  0  0  0  0  0  0  0  0
    4.5000    2.6644    0.0000 C   0  0  0  0  0  0  0  0  0  0  0  0
    7.5000   -2.5317    0.0000 C   0  0  0  0  0  0  0  0  0  0  0  0
   10.3080    7.7279    0.0000 C   0  0  0  0  0  0  0  0  0  0  0  0
   11.5952    6.5689    0.0000 C   0  0  0  0  0  0  0  0  0  0  0  0
    3.5000    4.3965    0.0000 C   0  0  0  0  0  0  0  0  0  0  0  0
    8.0000   -3.3978    0.0000 C   0  0  0  0  0  0  0  0  0  0  0  0
   11.2862    7.5200    0.0000 C   0  0  0  0  0  0  0  0  0  0  0  0
    3.5000    2.6644    0.0000 C   0  0  0  0  0  0  0  0  0  0  0  0
    3.0000    3.5305    0.0000 C   0  0  0  0  0  0  0  0  0  0  0  0
    7.5000   -4.2638    0.0000 C   0  0  0  0  0  0  0  0  0  0  0  0
    8.0000   -5.1298    0.0000 C   0  0  0  0  0  0  0  0  0  0  0  0
    3.0000    5.2625    0.0000 C   0  0  0  0  0  0  0  0  0  0  0  0
    7.5000   -5.9958    0.0000 C   0  0  0  0  0  0  0  0  0  0  0  0
    8.0000   -6.8618    0.0000 C   0  0  0  0  0  0  0  0  0  0  0  0
    2.0000    5.2625    0.0000 C   0  0  0  0  0  0  0  0  0  0  0  0
    7.5000   -7.7279    0.0000 C   0  0  0  0  0  0  0  0  0  0  0  0
    8.7185    4.0829    0.0000 H   0  0  0  0  0  0  0  0  0  0  0  0
   10.5396    4.6504    0.0000 H   0  0  0  0  0  0  0  0  0  0  0  0
   10.0262    4.7779    0.0000 H   0  0  0  0  0  0  0  0  0  0  0  0
    8.4250    2.7943    0.0000 H   0  0  0  0  0  0  0  0  0  0  0  0
   10.5396    2.4105    0.0000 H   0  0  0  0  0  0  0  0  0  0  0  0
    8.0826    4.6085    0.0000 H   0  0  0  0  0  0  0  0  0  0  0  0
    7.3923    5.0071    0.0000 H   0  0  0  0  0  0  0  0  0  0  0  0
    8.4750    1.3999    0.0000 H   0  0  0  0  0  0  0  0  0  0  0  0
    8.4750    2.1969    0.0000 H   0  0  0  0  0  0  0  0  0  0  0  0
   12.5133    2.4411    0.0000 H   0  0  0  0  0  0  0  0  0  0  0  0
   13.3793    2.5782    0.0000 H   0  0  0  0  0  0  0  0  0  0  0  0
   13.2421    3.4443    0.0000 H   0  0  0  0  0  0  0  0  0  0  0  0
   13.2421    3.6166    0.0000 H   0  0  0  0  0  0  0  0  0  0  0  0
   13.3793    4.4827    0.0000 H   0  0  0  0  0  0  0  0  0  0  0  0
   12.5133    4.6198    0.0000 H   0  0  0  0  0  0  0  0  0  0  0  0
    7.0250    1.3309    0.0000 H   0  0  0  0  0  0  0  0  0  0  0  0
    7.0250    0.5339    0.0000 H   0  0  0  0  0  0  0  0  0  0  0  0
    8.4750   -0.3322    0.0000 H   0  0  0  0  0  0  0  0  0  0  0  0
    8.4750    0.4649    0.0000 H   0  0  0  0  0  0  0  0  0  0  0  0
    7.0250   -0.4011    0.0000 H   0  0  0  0  0  0  0  0  0  0  0  0
    7.0250   -1.1982    0.0000 H   0  0  0  0  0  0  0  0  0  0  0  0
    9.0324    7.1136    0.0000 H   0  0  0  0  0  0  0  0  0  0  0  0
   11.1176    5.2361    0.0000 H   0  0  0  0  0  0  0  0  0  0  0  0
    8.4750   -2.0642    0.0000 H   0  0  0  0  0  0  0  0  0  0  0  0
    8.4750   -1.2672    0.0000 H   0  0  0  0  0  0  0  0  0  0  0  0
    4.8100    4.9334    0.0000 H   0  0  0  0  0  0  0  0  0  0  0  0
    4.8100    2.1275    0.0000 H   0  0  0  0  0  0  0  0  0  0  0  0
    7.0250   -2.1332    0.0000 H   0  0  0  0  0  0  0  0  0  0  0  0
    7.0250   -2.9302    0.0000 H   0  0  0  0  0  0  0  0  0  0  0  0
   10.1164    8.3175    0.0000 H   0  0  0  0  0  0  0  0  0  0  0  0
   12.2016    6.4400    0.0000 H   0  0  0  0  0  0  0  0  0  0  0  0
    8.4750   -3.7963    0.0000 H   0  0  0  0  0  0  0  0  0  0  0  0
    8.4750   -2.9992    0.0000 H   0  0  0  0  0  0  0  0  0  0  0  0
   11.7010    7.9807    0.0000 H   0  0  0  0  0  0  0  0  0  0  0  0
    3.1900    2.1275    0.0000 H   0  0  0  0  0  0  0  0  0  0  0  0
    2.3800    3.5305    0.0000 H   0  0  0  0  0  0  0  0  0  0  0  0
    7.0250   -3.8652    0.0000 H   0  0  0  0  0  0  0  0  0  0  0  0
    7.0250   -4.6623    0.0000 H   0  0  0  0  0  0  0  0  0  0  0  0
    8.4750   -5.5283    0.0000 H   0  0  0  0  0  0  0  0  0  0  0  0
    8.4750   -4.7313    0.0000 H   0  0  0  0  0  0  0  0  0  0  0  0
    7.0250   -5.5973    0.0000 H   0  0  0  0  0  0  0  0  0  0  0  0
    7.0250   -6.3944    0.0000 H   0  0  0  0  0  0  0  0  0  0  0  0
    8.4750   -7.2604    0.0000 H   0  0  0  0  0  0  0  0  0  0  0  0
    8.4750   -6.4633    0.0000 H   0  0  0  0  0  0  0  0  0  0  0  0
    2.0000    5.8825    0.0000 H   0  0  0  0  0  0  0  0  0  0  0  0
    1.3800    5.2625    0.0000 H   0  0  0  0  0  0  0  0  0  0  0  0
    2.0000    4.6425    0.0000 H   0  0  0  0  0  0  0  0  0  0  0  0
    6.9631   -7.4179    0.0000 H   0  0  0  0  0  0  0  0  0  0  0  0
    7.1900   -8.2648    0.0000 H   0  0  0  0  0  0  0  0  0  0  0  0
    8.0369   -8.0379    0.0000 H   0  0  0  0  0  0  0  0  0  0  0  0
  1 10  1  0  0  0  0
  1 14  1  0  0  0  0
  2 11  1  0  0  0  0
  2 15  1  0  0  0  0
  3 14  1  0  0  0  0
  3 15  1  0  0  0  0
 12  4  1  6  0  0  0
  4 23  1  0  0  0  0
  5 18  2  0  0  0  0
  6 19  2  0  0  0  0
  7 42  2  0  0  0  0
  8 13  1  0  0  0  0
  8 17  1  0  0  0  0
  8 18  1  0  0  0  0
  9 18  1  0  0  0  0
  9 19  1  0  0  0  0
  9 25  1  0  0  0  0
 10 12  1  0  0  0  0
 10 13  1  0  0  0  0
 10 47  1  0  0  0  0
 11 12  1  0  0  0  0
 11 14  1  0  0  0  0
 11 48  1  0  0  0  0
 12 49  1  0  0  0  0
 13 16  1  0  0  0  0
 13 50  1  6  0  0  0
 14 51  1  0  0  0  0
 15 20  1  0  0  0  0
 15 21  1  0  0  0  0
 16 19  1  0  0  0  0
 16 52  1  0  0  0  0
 16 53  1  0  0  0  0
 17 22  1  0  0  0  0
 17 54  1  0  0  0  0
 17 55  1  0  0  0  0
 20 56  1  0  0  0  0
 20 57  1  0  0  0  0
 20 58  1  0  0  0  0
 21 59  1  0  0  0  0
 21 60  1  0  0  0  0
 21 61  1  0  0  0  0
 22 24  1  0  0  0  0
 22 62  1  0  0  0  0
 22 63  1  0  0  0  0
 23 27  2  0  0  0  0
 23 28  1  0  0  0  0
 24 26  1  0  0  0  0
 24 64  1  0  0  0  0
 24 65  1  0  0  0  0
 25 30  1  0  0  0  0
 25 31  2  0  0  0  0
 26 29  1  0  0  0  0
 26 66  1  0  0  0  0
 26 67  1  0  0  0  0
 27 33  1  0  0  0  0
 27 68  1  0  0  0  0
 28 34  2  0  0  0  0
 28 69  1  0  0  0  0
 29 32  1  0  0  0  0
 29 70  1  0  0  0  0
 29 71  1  0  0  0  0
 30 35  2  0  0  0  0
 30 72  1  0  0  0  0
 31 38  1  0  0  0  0
 31 73  1  0  0  0  0
 32 36  1  0  0  0  0
 32 74  1  0  0  0  0
 32 75  1  0  0  0  0
 33 37  2  0  0  0  0
 33 76  1  0  0  0  0
 34 37  1  0  0  0  0
 34 77  1  0  0  0  0
 35 39  1  0  0  0  0
 35 42  1  0  0  0  0
 36 40  1  0  0  0  0
 36 78  1  0  0  0  0
 36 79  1  0  0  0  0
 37 80  1  0  0  0  0
 38 39  2  0  0  0  0
 38 81  1  0  0  0  0
 39 82  1  0  0  0  0
 40 41  1  0  0  0  0
 40 83  1  0  0  0  0
 40 84  1  0  0  0  0
 41 43  1  0  0  0  0
 41 85  1  0  0  0  0
 41 86  1  0  0  0  0
 42 45  1  0  0  0  0
 43 44  1  0  0  0  0
 43 87  1  0  0  0  0
 43 88  1  0  0  0  0
 44 46  1  0  0  0  0
 44 89  1  0  0  0  0
 44 90  1  0  0  0  0
 45 91  1  0  0  0  0
 45 92  1  0  0  0  0
 45 93  1  0  0  0  0
 46 94  1  0  0  0  0
 46 95  1  0  0  0  0
 46 96  1  0  0  0  0
M  END
> <PUBCHEM_COMPOUND_CID>
508372
> <PUBCHEM_COMPOUND_CANONICALIZED>
1
> <PUBCHEM_CACTVS_COMPLEXITY>
1010
> <PUBCHEM_CACTVS_HBOND_ACCEPTOR>
7
> <PUBCHEM_CACTVS_HBOND_DONOR>
0
> <PUBCHEM_CACTVS_ROTATABLE_BOND>
16
> <PUBCHEM_CACTVS_SUBSKEYS>
AAADcfB/OAAAAAAAAAAAAAAAAAAAASJAAAA8YIAAAAASAAABQAAAHgAAAAAADDzxmAczzoMABACIAqVSUACCCAAlIgAIiAEObMifJjrE9ZunOSjvxzPe6af+3KPOAAAAQAAAAAAAAACAAAAAAAAAAAAAAA==
> <PUBCHEM_IUPAC_OPENEYE_NAME>
(6S)-3-(3-acetylphenyl)-6-[(6S)-2,2-dimethyl-6-phenoxy-3a,5,6,6a-tetrahydrofuro[2,3-d][1,3]dioxol-5-yl]-1-dodecyl-hexahydropyrimidine-2,4-dione
> <PUBCHEM_IUPAC_CAS_NAME>
(6S)-3-(3-acetylphenyl)-6-[(6S)-2,2-dimethyl-6-phenoxy-3a,5,6,6a-tetrahydrofuro[2,3-d][1,3]dioxol-5-yl]-1-dodecyl-1,3-diazinane-2,4-dione
> <PUBCHEM_IUPAC_NAME_MARKUP>
(6<I>S</I>)-3-(3-acetylphenyl)-6-[(6<I>S</I>)-2,2-dimethyl-6-phenoxy-3<I>a</I>,5,6,6<I>a</I>-tetrahydrofuro[2,3-d][1,3]dioxol-5-yl]-1-dodecyl-1,3-diazinane-2,4-dione
> <PUBCHEM_IUPAC_NAME>
(6S)-3-(3-acetylphenyl)-6-[(6S)-2,2-dimethyl-6-phenoxy-3a,5,6,6a-tetrahydrofuro[2,3-d][1,3]dioxol-5-yl]-1-dodecyl-1,3-diazinane-2,4-dione
> <PUBCHEM_IUPAC_SYSTEMATIC_NAME>
(6S)-6-[(6S)-2,2-dimethyl-6-phenoxy-3a,5,6,6a-tetrahydrofuro[2,3-d][1,3]dioxol-5-yl]-1-dodecyl-3-(3-ethanoylphenyl)-1,3-diazinane-2,4-dione
> <PUBCHEM_IUPAC_TRADITIONAL_NAME>
(6S)-3-(3-acetylphenyl)-6-[(6S)-2,2-dimethyl-6-phenoxy-3a,5,6,6a-tetrahydrofuro[2,3-d][1,3]dioxol-5-yl]-1-lauryl-5,6-dihydrouracil
> <PUBCHEM_IUPAC_INCHI>
InChI=1S/C37H50N2O7/c1-5-6-7-8-9-10-11-12-13-17-23-38-30(25-31(41)39(36(38)42)28-20-18-19-27(24-28)26(2)40)32-33(43-29-21-15-14-16-22-29)34-35(44-32)46-37(3,4)45-34/h14-16,18-22,24,30,32-35H,5-13,17,23,25H2,1-4H3/t30-,32?,33-,34?,35?/m0/s1
> <PUBCHEM_IUPAC_INCHIKEY>
AMRLHPHNFVOGFM-NPEWTDHKSA-N
> <PUBCHEM_XLOGP3_AA>
8
> <PUBCHEM_EXACT_MASS>
634.36180194
> <PUBCHEM_MOLECULAR_FORMULA>
C37H50N2O7
> <PUBCHEM_MOLECULAR_WEIGHT>
634.8
> <PUBCHEM_OPENEYE_CAN_SMILES>
CCCCCCCCCCCCN1C(CC(=O)N(C1=O)C2=CC=CC(=C2)C(=O)C)C3C(C4C(O3)OC(O4)(C)C)OC5=CC=CC=C5
> <PUBCHEM_OPENEYE_ISO_SMILES>
CCCCCCCCCCCCN1[C@@H](CC(=O)N(C1=O)C2=CC=CC(=C2)C(=O)C)C3[C@@H](C4C(O3)OC(O4)(C)C)OC5=CC=CC=C5
> <PUBCHEM_CACTVS_TPSA>
94.6
> <PUBCHEM_MONOISOTOPIC_WEIGHT>
634.36180194
> <PUBCHEM_TOTAL_CHARGE>
0
> <PUBCHEM_HEAVY_ATOM_COUNT>
46
> <PUBCHEM_ATOM_DEF_STEREO_COUNT>
2
> <PUBCHEM_ATOM_UDEF_STEREO_COUNT>
3
> <PUBCHEM_BOND_DEF_STEREO_COUNT>
0
> <PUBCHEM_BOND_UDEF_STEREO_COUNT>
0
> <PUBCHEM_ISOTOPIC_ATOM_COUNT>
0
> <PUBCHEM_COMPONENT_COUNT>
1
> <PUBCHEM_CACTVS_TAUTO_COUNT>
-1
> <PUBCHEM_COORDINATE_TYPE>
1
5
255
> <PUBCHEM_BONDANNOTATIONS>
10  1  3
13  50  6
11  2  3
23  27  8
23  28  8
25  30  8
25  31  8
27  33  8
28  34  8
14  3  3
30  35  8
31  38  8
33  37  8
34  37  8
35  39  8
38  39  8
12  4  6
$$$$
