508340
  -OEChem-10302200282D
 55 57  0     1  0  0  0  0  0999 V2000
    8.5000   -0.2119    0.0000 P   0  0  3  0  0  0  0  0  0  0  0  0
    9.3660    1.2881    0.0000 O   0  0  0  0  0  0  0  0  0  0  0  0
    7.6340    0.2881    0.0000 O   0  0  0  0  0  0  0  0  0  0  0  0
    9.0000   -1.0780    0.0000 O   0  0  0  0  0  0  0  0  0  0  0  0
    5.5000   -1.9440    0.0000 O   0  0  0  0  0  0  0  0  0  0  0  0
    7.0000   -2.8100    0.0000 O   0  0  0  0  0  0  0  0  0  0  0  0
   10.2321    1.7881    0.0000 O   0  0  0  0  0  0  0  0  0  0  0  0
    8.0000   -1.0780    0.0000 N   0  0  0  0  0  0  0  0  0  0  0  0
    9.3660    3.2881    0.0000 N   0  0  0  0  0  0  0  0  0  0  0  0
   11.0981    3.2881    0.0000 N   0  0  0  0  0  0  0  0  0  0  0  0
   11.9641    4.7881    0.0000 N   0  0  0  0  0  0  0  0  0  0  0  0
    8.5000    1.7881    0.0000 C   0  0  2  0  0  0  0  0  0  0  0  0
    7.6340    1.2881    0.0000 C   0  0  0  0  0  0  0  0  0  0  0  0
    9.3660    0.2881    0.0000 C   0  0  0  0  0  0  0  0  0  0  0  0
    8.5000    2.7881    0.0000 C   0  0  0  0  0  0  0  0  0  0  0  0
    7.0000   -1.0780    0.0000 C   0  0  1  0  0  0  0  0  0  0  0  0
    6.5000   -0.2119    0.0000 C   0  0  0  0  0  0  0  0  0  0  0  0
    6.5000   -1.9440    0.0000 C   0  0  0  0  0  0  0  0  0  0  0  0
    9.3660    4.2881    0.0000 C   0  0  0  0  0  0  0  0  0  0  0  0
   10.2321    2.7881    0.0000 C   0  0  0  0  0  0  0  0  0  0  0  0
    5.0000   -2.8100    0.0000 C   0  0  0  0  0  0  0  0  0  0  0  0
   10.2321    4.7881    0.0000 C   0  0  0  0  0  0  0  0  0  0  0  0
    4.0000   -2.8100    0.0000 C   0  0  0  0  0  0  0  0  0  0  0  0
   11.0981    4.2881    0.0000 C   0  0  0  0  0  0  0  0  0  0  0  0
    3.5000   -3.6760    0.0000 C   0  0  0  0  0  0  0  0  0  0  0  0
    4.0000   -4.5420    0.0000 C   0  0  0  0  0  0  0  0  0  0  0  0
    2.5000   -3.6760    0.0000 C   0  0  0  0  0  0  0  0  0  0  0  0
    3.5000   -5.4081    0.0000 C   0  0  0  0  0  0  0  0  0  0  0  0
    2.0000   -4.5420    0.0000 C   0  0  0  0  0  0  0  0  0  0  0  0
    2.5000   -5.4081    0.0000 C   0  0  0  0  0  0  0  0  0  0  0  0
    9.0369    2.0981    0.0000 H   0  0  0  0  0  0  0  0  0  0  0  0
    7.4219    1.8707    0.0000 H   0  0  0  0  0  0  0  0  0  0  0  0
    7.0234    1.1804    0.0000 H   0  0  0  0  0  0  0  0  0  0  0  0
    9.5781   -0.2945    0.0000 H   0  0  0  0  0  0  0  0  0  0  0  0
    9.9766    0.3957    0.0000 H   0  0  0  0  0  0  0  0  0  0  0  0
    8.2880    3.3707    0.0000 H   0  0  0  0  0  0  0  0  0  0  0  0
    7.8894    2.6804    0.0000 H   0  0  0  0  0  0  0  0  0  0  0  0
    8.3100   -1.6149    0.0000 H   0  0  0  0  0  0  0  0  0  0  0  0
    7.3100   -0.5410    0.0000 H   0  0  0  0  0  0  0  0  0  0  0  0
    7.0369    0.0981    0.0000 H   0  0  0  0  0  0  0  0  0  0  0  0
    6.1900    0.3250    0.0000 H   0  0  0  0  0  0  0  0  0  0  0  0
    5.9631   -0.5219    0.0000 H   0  0  0  0  0  0  0  0  0  0  0  0
    8.8291    4.5981    0.0000 H   0  0  0  0  0  0  0  0  0  0  0  0
    4.8923   -3.4206    0.0000 H   0  0  0  0  0  0  0  0  0  0  0  0
    5.5826   -3.0220    0.0000 H   0  0  0  0  0  0  0  0  0  0  0  0
   10.2321    5.4081    0.0000 H   0  0  0  0  0  0  0  0  0  0  0  0
    4.1077   -2.1994    0.0000 H   0  0  0  0  0  0  0  0  0  0  0  0
    3.4174   -2.5980    0.0000 H   0  0  0  0  0  0  0  0  0  0  0  0
    4.6200   -4.5420    0.0000 H   0  0  0  0  0  0  0  0  0  0  0  0
    2.1900   -3.1391    0.0000 H   0  0  0  0  0  0  0  0  0  0  0  0
   11.9641    5.4081    0.0000 H   0  0  0  0  0  0  0  0  0  0  0  0
   12.5010    4.4781    0.0000 H   0  0  0  0  0  0  0  0  0  0  0  0
    3.8100   -5.9450    0.0000 H   0  0  0  0  0  0  0  0  0  0  0  0
    1.3800   -4.5420    0.0000 H   0  0  0  0  0  0  0  0  0  0  0  0
    2.1900   -5.9450    0.0000 H   0  0  0  0  0  0  0  0  0  0  0  0
  1  3  1  0  0  0  0
  1  4  2  0  0  0  0
  1  8  1  0  0  0  0
  1 14  1  0  0  0  0
  2 12  1  0  0  0  0
  2 14  1  0  0  0  0
  3 13  1  0  0  0  0
  5 18  1  0  0  0  0
  5 21  1  0  0  0  0
  6 18  2  0  0  0  0
  7 20  2  0  0  0  0
 16  8  1  6  0  0  0
  8 38  1  0  0  0  0
  9 15  1  0  0  0  0
  9 19  1  0  0  0  0
  9 20  1  0  0  0  0
 10 20  1  0  0  0  0
 10 24  2  0  0  0  0
 11 24  1  0  0  0  0
 11 51  1  0  0  0  0
 11 52  1  0  0  0  0
 12 13  1  0  0  0  0
 12 15  1  6  0  0  0
 12 31  1  0  0  0  0
 13 32  1  0  0  0  0
 13 33  1  0  0  0  0
 14 34  1  0  0  0  0
 14 35  1  0  0  0  0
 15 36  1  0  0  0  0
 15 37  1  0  0  0  0
 16 17  1  0  0  0  0
 16 18  1  0  0  0  0
 16 39  1  0  0  0  0
 17 40  1  0  0  0  0
 17 41  1  0  0  0  0
 17 42  1  0  0  0  0
 19 22  2  0  0  0  0
 19 43  1  0  0  0  0
 21 23  1  0  0  0  0
 21 44  1  0  0  0  0
 21 45  1  0  0  0  0
 22 24  1  0  0  0  0
 22 46  1  0  0  0  0
 23 25  1  0  0  0  0
 23 47  1  0  0  0  0
 23 48  1  0  0  0  0
 25 26  2  0  0  0  0
 25 27  1  0  0  0  0
 26 28  1  0  0  0  0
 26 49  1  0  0  0  0
 27 29  2  0  0  0  0
 27 50  1  0  0  0  0
 28 30  2  0  0  0  0
 28 53  1  0  0  0  0
 29 30  1  0  0  0  0
 29 54  1  0  0  0  0
 30 55  1  0  0  0  0
M  END
> <PUBCHEM_COMPOUND_CID>
508340
> <PUBCHEM_COMPOUND_CANONICALIZED>
1
> <PUBCHEM_CACTVS_COMPLEXITY>
737
> <PUBCHEM_CACTVS_HBOND_ACCEPTOR>
7
> <PUBCHEM_CACTVS_HBOND_DONOR>
2
> <PUBCHEM_CACTVS_ROTATABLE_BOND>
9
> <PUBCHEM_CACTVS_SUBSKEYS>
AAADceB7uAIAAAAAAAAAAAAAAAAAAAAAAAA0QIAAAAAAAAABAAAAHggQgCAADDzhmAYzCINABRCoQiL2fICCAAEgAgAIiIGYAJiLICKAERCHIAAm1gMaiAeAwKAOAAAAAAAAAAAAAAAAAAAAAAAAAAAAAA==
> <PUBCHEM_IUPAC_OPENEYE_NAME>
2-phenylethyl (2S)-2-[[(5S)-5-[(4-amino-2-oxo-pyrimidin-1-yl)methyl]-2-oxo-1,4,2lambda5-dioxaphosphinan-2-yl]amino]propanoate
> <PUBCHEM_IUPAC_CAS_NAME>
(2S)-2-[[(5S)-5-[(4-amino-2-oxo-1-pyrimidinyl)methyl]-2-oxo-1,4,2lambda5-dioxaphosphorinan-2-yl]amino]propanoic acid 2-phenylethyl ester
> <PUBCHEM_IUPAC_NAME_MARKUP>
2-phenylethyl (2<I>S</I>)-2-[[(5<I>S</I>)-5-[(4-amino-2-oxopyrimidin-1-yl)methyl]-2-oxo-1,4,2&lambda;<SUP>5</SUP>-dioxaphosphinan-2-yl]amino]propanoate
> <PUBCHEM_IUPAC_NAME>
2-phenylethyl (2S)-2-[[(5S)-5-[(4-amino-2-oxopyrimidin-1-yl)methyl]-2-oxo-1,4,2lambda5-dioxaphosphinan-2-yl]amino]propanoate
> <PUBCHEM_IUPAC_SYSTEMATIC_NAME>
2-phenylethyl (2S)-2-[[(5S)-5-[(4-azanyl-2-oxidanylidene-pyrimidin-1-yl)methyl]-2-oxidanylidene-1,4,2lambda5-dioxaphosphinan-2-yl]amino]propanoate
> <PUBCHEM_IUPAC_TRADITIONAL_NAME>
(2S)-2-[[(5S)-5-[(4-amino-2-keto-pyrimidin-1-yl)methyl]-2-keto-1,4,2lambda5-dioxaphosphorinan-2-yl]amino]propionic acid phenethyl ester
> <PUBCHEM_IUPAC_INCHI>
InChI=1S/C19H25N4O6P/c1-14(18(24)27-10-8-15-5-3-2-4-6-15)22-30(26)13-28-16(12-29-30)11-23-9-7-17(20)21-19(23)25/h2-7,9,14,16H,8,10-13H2,1H3,(H,22,26)(H2,20,21,25)/t14-,16-,30?/m0/s1
> <PUBCHEM_IUPAC_INCHIKEY>
PVROTLPXYPJVNC-BDASDRCFSA-N
> <PUBCHEM_XLOGP3_AA>
-0.1
> <PUBCHEM_EXACT_MASS>
436.15117153
> <PUBCHEM_MOLECULAR_FORMULA>
C19H25N4O6P
> <PUBCHEM_MOLECULAR_WEIGHT>
436.4
> <PUBCHEM_OPENEYE_CAN_SMILES>
CC(C(=O)OCCC1=CC=CC=C1)NP2(=O)COC(CO2)CN3C=CC(=NC3=O)N
> <PUBCHEM_OPENEYE_ISO_SMILES>
C[C@@H](C(=O)OCCC1=CC=CC=C1)NP2(=O)CO[C@H](CO2)CN3C=CC(=NC3=O)N
> <PUBCHEM_CACTVS_TPSA>
133
> <PUBCHEM_MONOISOTOPIC_WEIGHT>
436.15117153
> <PUBCHEM_TOTAL_CHARGE>
0
> <PUBCHEM_HEAVY_ATOM_COUNT>
30
> <PUBCHEM_ATOM_DEF_STEREO_COUNT>
2
> <PUBCHEM_ATOM_UDEF_STEREO_COUNT>
1
> <PUBCHEM_BOND_DEF_STEREO_COUNT>
0
> <PUBCHEM_BOND_UDEF_STEREO_COUNT>
0
> <PUBCHEM_ISOTOPIC_ATOM_COUNT>
0
> <PUBCHEM_COMPONENT_COUNT>
1
> <PUBCHEM_CACTVS_TAUTO_COUNT>
-1
> <PUBCHEM_COORDINATE_TYPE>
1
5
255
> <PUBCHEM_BONDANNOTATIONS>
1  8  3
10  20  8
10  24  8
12  15  6
19  22  8
22  24  8
25  26  8
25  27  8
26  28  8
27  29  8
28  30  8
29  30  8
16  8  6
9  19  8
9  20  8
$$$$
