508371
  -OEChem-10302200282D
 67 71  0     1  0  0  0  0  0999 V2000
    2.0000    0.0664    0.0000 F   0  0  0  0  0  0  0  0  0  0  0  0
    9.5878   -0.7427    0.0000 O   0  0  0  0  0  0  0  0  0  0  0  0
   11.4851    0.8711    0.0000 O   0  0  0  0  0  0  0  0  0  0  0  0
   11.4851   -0.7384    0.0000 O   0  0  0  0  0  0  0  0  0  0  0  0
    9.2788    1.8264    0.0000 O   0  0  0  0  0  0  0  0  0  0  0  0
    6.0000    1.7984    0.0000 O   0  0  0  0  0  0  0  0  0  0  0  0
    6.0000   -1.6657    0.0000 O   0  0  0  0  0  0  0  0  0  0  0  0
    7.5000   -0.7997    0.0000 N   0  0  0  0  0  0  0  0  0  0  0  0
    6.0000    0.0664    0.0000 N   0  0  0  0  0  0  0  0  0  0  0  0
    9.0000    0.0664    0.0000 C   0  0  3  0  0  0  0  0  0  0  0  0
   10.5388    0.5664    0.0000 C   0  0  3  0  0  0  0  0  0  0  0  0
    9.5878    0.8754    0.0000 C   0  0  1  0  0  0  0  0  0  0  0  0
   10.5388   -0.4336    0.0000 C   0  0  3  0  0  0  0  0  0  0  0  0
    8.0000    0.0664    0.0000 C   0  0  2  0  0  0  0  0  0  0  0  0
   12.0687    0.0664    0.0000 C   0  0  0  0  0  0  0  0  0  0  0  0
    7.5000    0.9324    0.0000 C   0  0  0  0  0  0  0  0  0  0  0  0
    8.0000   -1.6657    0.0000 C   0  0  0  0  0  0  0  0  0  0  0  0
    6.5000    0.9324    0.0000 C   0  0  0  0  0  0  0  0  0  0  0  0
   12.8777   -0.5214    0.0000 C   0  0  0  0  0  0  0  0  0  0  0  0
   12.8777    0.6541    0.0000 C   0  0  0  0  0  0  0  0  0  0  0  0
    6.5000   -0.7997    0.0000 C   0  0  0  0  0  0  0  0  0  0  0  0
    7.5000   -2.5317    0.0000 C   0  0  0  0  0  0  0  0  0  0  0  0
    9.9479    2.5696    0.0000 C   0  0  0  0  0  0  0  0  0  0  0  0
    5.0000    0.0664    0.0000 C   0  0  0  0  0  0  0  0  0  0  0  0
    8.0000   -3.3978    0.0000 C   0  0  0  0  0  0  0  0  0  0  0  0
    9.6389    3.5206    0.0000 C   0  0  0  0  0  0  0  0  0  0  0  0
   10.9260    2.3617    0.0000 C   0  0  0  0  0  0  0  0  0  0  0  0
    7.5000   -4.2638    0.0000 C   0  0  0  0  0  0  0  0  0  0  0  0
    4.5000    0.9324    0.0000 C   0  0  0  0  0  0  0  0  0  0  0  0
    4.5000   -0.7997    0.0000 C   0  0  0  0  0  0  0  0  0  0  0  0
   10.3080    4.2638    0.0000 C   0  0  0  0  0  0  0  0  0  0  0  0
   11.5952    3.1048    0.0000 C   0  0  0  0  0  0  0  0  0  0  0  0
   11.2862    4.0559    0.0000 C   0  0  0  0  0  0  0  0  0  0  0  0
    3.5000    0.9324    0.0000 C   0  0  0  0  0  0  0  0  0  0  0  0
    3.5000   -0.7997    0.0000 C   0  0  0  0  0  0  0  0  0  0  0  0
    3.0000    0.0664    0.0000 C   0  0  0  0  0  0  0  0  0  0  0  0
    8.7185   -0.4861    0.0000 H   0  0  0  0  0  0  0  0  0  0  0  0
   10.5396    1.1864    0.0000 H   0  0  0  0  0  0  0  0  0  0  0  0
   10.0262    1.3138    0.0000 H   0  0  0  0  0  0  0  0  0  0  0  0
    8.4250    0.8025    0.0000 H   0  0  0  0  0  0  0  0  0  0  0  0
   10.5396   -1.0536    0.0000 H   0  0  0  0  0  0  0  0  0  0  0  0
    8.0826    1.1444    0.0000 H   0  0  0  0  0  0  0  0  0  0  0  0
    7.3923    1.5430    0.0000 H   0  0  0  0  0  0  0  0  0  0  0  0
    8.4750   -2.0642    0.0000 H   0  0  0  0  0  0  0  0  0  0  0  0
    8.4750   -1.2672    0.0000 H   0  0  0  0  0  0  0  0  0  0  0  0
   12.5133   -1.0230    0.0000 H   0  0  0  0  0  0  0  0  0  0  0  0
   13.3793   -0.8859    0.0000 H   0  0  0  0  0  0  0  0  0  0  0  0
   13.2421   -0.0198    0.0000 H   0  0  0  0  0  0  0  0  0  0  0  0
   13.2421    0.1525    0.0000 H   0  0  0  0  0  0  0  0  0  0  0  0
   13.3793    1.0186    0.0000 H   0  0  0  0  0  0  0  0  0  0  0  0
   12.5133    1.1557    0.0000 H   0  0  0  0  0  0  0  0  0  0  0  0
    7.0250   -2.1332    0.0000 H   0  0  0  0  0  0  0  0  0  0  0  0
    7.0250   -2.9302    0.0000 H   0  0  0  0  0  0  0  0  0  0  0  0
    8.4750   -3.7963    0.0000 H   0  0  0  0  0  0  0  0  0  0  0  0
    8.4750   -2.9992    0.0000 H   0  0  0  0  0  0  0  0  0  0  0  0
    9.0324    3.6495    0.0000 H   0  0  0  0  0  0  0  0  0  0  0  0
   11.1176    1.7720    0.0000 H   0  0  0  0  0  0  0  0  0  0  0  0
    6.9631   -3.9538    0.0000 H   0  0  0  0  0  0  0  0  0  0  0  0
    7.1900   -4.8007    0.0000 H   0  0  0  0  0  0  0  0  0  0  0  0
    8.0369   -4.5738    0.0000 H   0  0  0  0  0  0  0  0  0  0  0  0
    4.8100    1.4693    0.0000 H   0  0  0  0  0  0  0  0  0  0  0  0
    4.8100   -1.3366    0.0000 H   0  0  0  0  0  0  0  0  0  0  0  0
   10.1164    4.8534    0.0000 H   0  0  0  0  0  0  0  0  0  0  0  0
   12.2016    2.9759    0.0000 H   0  0  0  0  0  0  0  0  0  0  0  0
   11.7010    4.5166    0.0000 H   0  0  0  0  0  0  0  0  0  0  0  0
    3.1900    1.4693    0.0000 H   0  0  0  0  0  0  0  0  0  0  0  0
    3.1900   -1.3366    0.0000 H   0  0  0  0  0  0  0  0  0  0  0  0
  1 36  1  0  0  0  0
  2 10  1  0  0  0  0
  2 13  1  0  0  0  0
  3 11  1  0  0  0  0
  3 15  1  0  0  0  0
  4 13  1  0  0  0  0
  4 15  1  0  0  0  0
 12  5  1  6  0  0  0
  5 23  1  0  0  0  0
  6 18  2  0  0  0  0
  7 21  2  0  0  0  0
  8 14  1  0  0  0  0
  8 17  1  0  0  0  0
  8 21  1  0  0  0  0
  9 18  1  0  0  0  0
  9 21  1  0  0  0  0
  9 24  1  0  0  0  0
 10 12  1  0  0  0  0
 10 14  1  0  0  0  0
 10 37  1  0  0  0  0
 11 12  1  0  0  0  0
 11 13  1  0  0  0  0
 11 38  1  0  0  0  0
 12 39  1  0  0  0  0
 13 41  1  0  0  0  0
 14 16  1  0  0  0  0
 14 40  1  6  0  0  0
 15 19  1  0  0  0  0
 15 20  1  0  0  0  0
 16 18  1  0  0  0  0
 16 42  1  0  0  0  0
 16 43  1  0  0  0  0
 17 22  1  0  0  0  0
 17 44  1  0  0  0  0
 17 45  1  0  0  0  0
 19 46  1  0  0  0  0
 19 47  1  0  0  0  0
 19 48  1  0  0  0  0
 20 49  1  0  0  0  0
 20 50  1  0  0  0  0
 20 51  1  0  0  0  0
 22 25  1  0  0  0  0
 22 52  1  0  0  0  0
 22 53  1  0  0  0  0
 23 26  2  0  0  0  0
 23 27  1  0  0  0  0
 24 29  2  0  0  0  0
 24 30  1  0  0  0  0
 25 28  1  0  0  0  0
 25 54  1  0  0  0  0
 25 55  1  0  0  0  0
 26 31  1  0  0  0  0
 26 56  1  0  0  0  0
 27 32  2  0  0  0  0
 27 57  1  0  0  0  0
 28 58  1  0  0  0  0
 28 59  1  0  0  0  0
 28 60  1  0  0  0  0
 29 34  1  0  0  0  0
 29 61  1  0  0  0  0
 30 35  2  0  0  0  0
 30 62  1  0  0  0  0
 31 33  2  0  0  0  0
 31 63  1  0  0  0  0
 32 33  1  0  0  0  0
 32 64  1  0  0  0  0
 33 65  1  0  0  0  0
 34 36  2  0  0  0  0
 34 66  1  0  0  0  0
 35 36  1  0  0  0  0
 35 67  1  0  0  0  0
M  END
> <PUBCHEM_COMPOUND_CID>
508371
> <PUBCHEM_COMPOUND_CANONICALIZED>
1
> <PUBCHEM_CACTVS_COMPLEXITY>
797
> <PUBCHEM_CACTVS_HBOND_ACCEPTOR>
7
> <PUBCHEM_CACTVS_HBOND_DONOR>
0
> <PUBCHEM_CACTVS_ROTATABLE_BOND>
7
> <PUBCHEM_CACTVS_SUBSKEYS>
AAADceB7OQAAAAAAAAAAAAAAAAAAASJAAAA8YIAAAAASAAABQAAAHwAAAAAACDzxkA8zzoMABACIACVSUACCCAAhIgAIiAEObIifJjrE8ZunOCjvxzPe6Cf63CPAAAAAAAAAAAAAAAAAAAAAAAAAAAAAAA==
> <PUBCHEM_IUPAC_OPENEYE_NAME>
(6S)-1-butyl-6-[(6S)-2,2-dimethyl-6-phenoxy-3a,5,6,6a-tetrahydrofuro[2,3-d][1,3]dioxol-5-yl]-3-(4-fluorophenyl)hexahydropyrimidine-2,4-dione
> <PUBCHEM_IUPAC_CAS_NAME>
(6S)-1-butyl-6-[(6S)-2,2-dimethyl-6-phenoxy-3a,5,6,6a-tetrahydrofuro[2,3-d][1,3]dioxol-5-yl]-3-(4-fluorophenyl)-1,3-diazinane-2,4-dione
> <PUBCHEM_IUPAC_NAME_MARKUP>
(6<I>S</I>)-1-butyl-6-[(6<I>S</I>)-2,2-dimethyl-6-phenoxy-3<I>a</I>,5,6,6<I>a</I>-tetrahydrofuro[2,3-d][1,3]dioxol-5-yl]-3-(4-fluorophenyl)-1,3-diazinane-2,4-dione
> <PUBCHEM_IUPAC_NAME>
(6S)-1-butyl-6-[(6S)-2,2-dimethyl-6-phenoxy-3a,5,6,6a-tetrahydrofuro[2,3-d][1,3]dioxol-5-yl]-3-(4-fluorophenyl)-1,3-diazinane-2,4-dione
> <PUBCHEM_IUPAC_SYSTEMATIC_NAME>
(6S)-1-butyl-6-[(6S)-2,2-dimethyl-6-phenoxy-3a,5,6,6a-tetrahydrofuro[2,3-d][1,3]dioxol-5-yl]-3-(4-fluorophenyl)-1,3-diazinane-2,4-dione
> <PUBCHEM_IUPAC_TRADITIONAL_NAME>
(6S)-1-butyl-6-[(6S)-2,2-dimethyl-6-phenoxy-3a,5,6,6a-tetrahydrofuro[2,3-d][1,3]dioxol-5-yl]-3-(4-fluorophenyl)-5,6-dihydrouracil
> <PUBCHEM_IUPAC_INCHI>
InChI=1S/C27H31FN2O6/c1-4-5-15-29-20(16-21(31)30(26(29)32)18-13-11-17(28)12-14-18)22-23(33-19-9-7-6-8-10-19)24-25(34-22)36-27(2,3)35-24/h6-14,20,22-25H,4-5,15-16H2,1-3H3/t20-,22?,23-,24?,25?/m0/s1
> <PUBCHEM_IUPAC_INCHIKEY>
ODZNGUZYCYAYDI-XSSHQBQMSA-N
> <PUBCHEM_XLOGP3_AA>
4
> <PUBCHEM_EXACT_MASS>
498.21661487
> <PUBCHEM_MOLECULAR_FORMULA>
C27H31FN2O6
> <PUBCHEM_MOLECULAR_WEIGHT>
498.5
> <PUBCHEM_OPENEYE_CAN_SMILES>
CCCCN1C(CC(=O)N(C1=O)C2=CC=C(C=C2)F)C3C(C4C(O3)OC(O4)(C)C)OC5=CC=CC=C5
> <PUBCHEM_OPENEYE_ISO_SMILES>
CCCCN1[C@@H](CC(=O)N(C1=O)C2=CC=C(C=C2)F)C3[C@@H](C4C(O3)OC(O4)(C)C)OC5=CC=CC=C5
> <PUBCHEM_CACTVS_TPSA>
77.5
> <PUBCHEM_MONOISOTOPIC_WEIGHT>
498.21661487
> <PUBCHEM_TOTAL_CHARGE>
0
> <PUBCHEM_HEAVY_ATOM_COUNT>
36
> <PUBCHEM_ATOM_DEF_STEREO_COUNT>
2
> <PUBCHEM_ATOM_UDEF_STEREO_COUNT>
3
> <PUBCHEM_BOND_DEF_STEREO_COUNT>
0
> <PUBCHEM_BOND_UDEF_STEREO_COUNT>
0
> <PUBCHEM_ISOTOPIC_ATOM_COUNT>
0
> <PUBCHEM_COMPONENT_COUNT>
1
> <PUBCHEM_CACTVS_TAUTO_COUNT>
-1
> <PUBCHEM_COORDINATE_TYPE>
1
5
255
> <PUBCHEM_BONDANNOTATIONS>
14  40  6
10  2  3
23  26  8
23  27  8
24  29  8
24  30  8
26  31  8
27  32  8
29  34  8
11  3  3
30  35  8
31  33  8
32  33  8
34  36  8
35  36  8
13  4  3
12  5  6
$$$$
