508318
  -OEChem-10302200282D
 72 74  0     1  0  0  0  0  0999 V2000
    4.5981   -2.2500    0.0000 S   0  0  0  0  0  0  0  0  0  0  0  0
    4.5981    0.7500    0.0000 O   0  0  0  0  0  0  0  0  0  0  0  0
    5.5981   -2.2500    0.0000 O   0  0  0  0  0  0  0  0  0  0  0  0
    3.5981   -2.2500    0.0000 O   0  0  0  0  0  0  0  0  0  0  0  0
    5.4641    3.2500    0.0000 O   0  0  0  0  0  0  0  0  0  0  0  0
    4.5981    1.7500    0.0000 O   0  0  0  0  0  0  0  0  0  0  0  0
    4.5981   -6.2500    0.0000 O   0  0  0  0  0  0  0  0  0  0  0  0
    4.5981   -1.2500    0.0000 N   0  0  3  0  0  0  0  0  0  0  0  0
    6.3301    1.7500    0.0000 N   0  0  0  0  0  0  0  0  0  0  0  0
    3.7320    6.2500    0.0000 N   0  0  0  0  0  0  0  0  0  0  0  0
    5.4641    6.2500    0.0000 N   0  0  0  0  0  0  0  0  0  0  0  0
    5.4641    0.2500    0.0000 C   0  0  2  0  0  0  0  0  0  0  0  0
    5.4641   -0.7500    0.0000 C   0  0  0  0  0  0  0  0  0  0  0  0
    6.3301    0.7500    0.0000 C   0  0  2  0  0  0  0  0  0  0  0  0
    3.7320   -0.7500    0.0000 C   0  0  0  0  0  0  0  0  0  0  0  0
    2.8660   -1.2500    0.0000 C   0  0  0  0  0  0  0  0  0  0  0  0
    7.1962    0.2500    0.0000 C   0  0  0  0  0  0  0  0  0  0  0  0
    2.0000   -0.7500    0.0000 C   0  0  0  0  0  0  0  0  0  0  0  0
    2.8660   -2.2500    0.0000 C   0  0  0  0  0  0  0  0  0  0  0  0
    8.0622    0.7500    0.0000 C   0  0  0  0  0  0  0  0  0  0  0  0
    4.5981   -3.2500    0.0000 C   0  0  0  0  0  0  0  0  0  0  0  0
    5.4641    2.2500    0.0000 C   0  0  0  0  0  0  0  0  0  0  0  0
    8.0622    1.7500    0.0000 C   0  0  0  0  0  0  0  0  0  0  0  0
    8.9282    0.2500    0.0000 C   0  0  0  0  0  0  0  0  0  0  0  0
    3.7320   -3.7500    0.0000 C   0  0  0  0  0  0  0  0  0  0  0  0
    5.4641   -3.7500    0.0000 C   0  0  0  0  0  0  0  0  0  0  0  0
    3.7320   -4.7500    0.0000 C   0  0  0  0  0  0  0  0  0  0  0  0
    5.4641   -4.7500    0.0000 C   0  0  0  0  0  0  0  0  0  0  0  0
    8.9282    2.2500    0.0000 C   0  0  0  0  0  0  0  0  0  0  0  0
    9.7942    0.7500    0.0000 C   0  0  0  0  0  0  0  0  0  0  0  0
    4.5981   -5.2500    0.0000 C   0  0  0  0  0  0  0  0  0  0  0  0
    9.7942    1.7500    0.0000 C   0  0  0  0  0  0  0  0  0  0  0  0
    4.5981    3.7500    0.0000 C   0  0  0  0  0  0  0  0  0  0  0  0
    4.5981    4.7500    0.0000 C   0  0  0  0  0  0  0  0  0  0  0  0
    3.7320   -6.7500    0.0000 C   0  0  0  0  0  0  0  0  0  0  0  0
    3.7320    5.2500    0.0000 C   0  0  0  0  0  0  0  0  0  0  0  0
    5.4641    5.2500    0.0000 C   0  0  0  0  0  0  0  0  0  0  0  0
    4.5981    6.7500    0.0000 C   0  0  0  0  0  0  0  0  0  0  0  0
    5.4641    0.8700    0.0000 H   0  0  0  0  0  0  0  0  0  0  0  0
    5.6762   -1.3326    0.0000 H   0  0  0  0  0  0  0  0  0  0  0  0
    6.0747   -0.6423    0.0000 H   0  0  0  0  0  0  0  0  0  0  0  0
    6.8671    1.0600    0.0000 H   0  0  0  0  0  0  0  0  0  0  0  0
    4.1306   -0.2751    0.0000 H   0  0  0  0  0  0  0  0  0  0  0  0
    3.3335   -0.2751    0.0000 H   0  0  0  0  0  0  0  0  0  0  0  0
    2.8660   -0.6300    0.0000 H   0  0  0  0  0  0  0  0  0  0  0  0
    6.7976   -0.2249    0.0000 H   0  0  0  0  0  0  0  0  0  0  0  0
    7.5947   -0.2249    0.0000 H   0  0  0  0  0  0  0  0  0  0  0  0
    6.8671    2.0600    0.0000 H   0  0  0  0  0  0  0  0  0  0  0  0
    2.3100   -0.2131    0.0000 H   0  0  0  0  0  0  0  0  0  0  0  0
    1.4631   -0.4400    0.0000 H   0  0  0  0  0  0  0  0  0  0  0  0
    1.6900   -1.2869    0.0000 H   0  0  0  0  0  0  0  0  0  0  0  0
    2.2460   -2.2500    0.0000 H   0  0  0  0  0  0  0  0  0  0  0  0
    2.8660   -2.8700    0.0000 H   0  0  0  0  0  0  0  0  0  0  0  0
    3.4860   -2.2500    0.0000 H   0  0  0  0  0  0  0  0  0  0  0  0
    4.0611    0.4400    0.0000 H   0  0  0  0  0  0  0  0  0  0  0  0
    7.5252    2.0600    0.0000 H   0  0  0  0  0  0  0  0  0  0  0  0
    8.9282   -0.3700    0.0000 H   0  0  0  0  0  0  0  0  0  0  0  0
    3.1951   -3.4400    0.0000 H   0  0  0  0  0  0  0  0  0  0  0  0
    6.0010   -3.4400    0.0000 H   0  0  0  0  0  0  0  0  0  0  0  0
    3.1951   -5.0600    0.0000 H   0  0  0  0  0  0  0  0  0  0  0  0
    6.0010   -5.0600    0.0000 H   0  0  0  0  0  0  0  0  0  0  0  0
    8.9282    2.8700    0.0000 H   0  0  0  0  0  0  0  0  0  0  0  0
   10.3312    0.4400    0.0000 H   0  0  0  0  0  0  0  0  0  0  0  0
   10.3312    2.0600    0.0000 H   0  0  0  0  0  0  0  0  0  0  0  0
    3.9875    3.8577    0.0000 H   0  0  0  0  0  0  0  0  0  0  0  0
    4.3860    3.1674    0.0000 H   0  0  0  0  0  0  0  0  0  0  0  0
    3.4220   -6.2131    0.0000 H   0  0  0  0  0  0  0  0  0  0  0  0
    3.1951   -7.0600    0.0000 H   0  0  0  0  0  0  0  0  0  0  0  0
    4.0420   -7.2869    0.0000 H   0  0  0  0  0  0  0  0  0  0  0  0
    3.1951    4.9400    0.0000 H   0  0  0  0  0  0  0  0  0  0  0  0
    6.0010    4.9400    0.0000 H   0  0  0  0  0  0  0  0  0  0  0  0
    4.5981    7.3700    0.0000 H   0  0  0  0  0  0  0  0  0  0  0  0
  1  3  2  0  0  0  0
  1  4  2  0  0  0  0
  1  8  1  0  0  0  0
  1 21  1  0  0  0  0
 12  2  1  1  0  0  0
  2 55  1  0  0  0  0
  5 22  1  0  0  0  0
  5 33  1  0  0  0  0
  6 22  2  0  0  0  0
  7 31  1  0  0  0  0
  7 35  1  0  0  0  0
  8 13  1  0  0  0  0
  8 15  1  0  0  0  0
 14  9  1  1  0  0  0
  9 22  1  0  0  0  0
  9 48  1  0  0  0  0
 10 36  2  0  0  0  0
 10 38  1  0  0  0  0
 11 37  1  0  0  0  0
 11 38  2  0  0  0  0
 12 13  1  0  0  0  0
 12 14  1  0  0  0  0
 12 39  1  0  0  0  0
 13 40  1  0  0  0  0
 13 41  1  0  0  0  0
 14 17  1  0  0  0  0
 14 42  1  0  0  0  0
 15 16  1  0  0  0  0
 15 43  1  0  0  0  0
 15 44  1  0  0  0  0
 16 18  1  0  0  0  0
 16 19  1  0  0  0  0
 16 45  1  0  0  0  0
 17 20  1  0  0  0  0
 17 46  1  0  0  0  0
 17 47  1  0  0  0  0
 18 49  1  0  0  0  0
 18 50  1  0  0  0  0
 18 51  1  0  0  0  0
 19 52  1  0  0  0  0
 19 53  1  0  0  0  0
 19 54  1  0  0  0  0
 20 23  2  0  0  0  0
 20 24  1  0  0  0  0
 21 25  2  0  0  0  0
 21 26  1  0  0  0  0
 23 29  1  0  0  0  0
 23 56  1  0  0  0  0
 24 30  2  0  0  0  0
 24 57  1  0  0  0  0
 25 27  1  0  0  0  0
 25 58  1  0  0  0  0
 26 28  2  0  0  0  0
 26 59  1  0  0  0  0
 27 31  2  0  0  0  0
 27 60  1  0  0  0  0
 28 31  1  0  0  0  0
 28 61  1  0  0  0  0
 29 32  2  0  0  0  0
 29 62  1  0  0  0  0
 30 32  1  0  0  0  0
 30 63  1  0  0  0  0
 32 64  1  0  0  0  0
 33 34  1  0  0  0  0
 33 65  1  0  0  0  0
 33 66  1  0  0  0  0
 34 36  1  0  0  0  0
 34 37  2  0  0  0  0
 35 67  1  0  0  0  0
 35 68  1  0  0  0  0
 35 69  1  0  0  0  0
 36 70  1  0  0  0  0
 37 71  1  0  0  0  0
 38 72  1  0  0  0  0
M  END
> <PUBCHEM_COMPOUND_CID>
508318
> <PUBCHEM_COMPOUND_CANONICALIZED>
1
> <PUBCHEM_CACTVS_COMPLEXITY>
788
> <PUBCHEM_CACTVS_HBOND_ACCEPTOR>
9
> <PUBCHEM_CACTVS_HBOND_DONOR>
2
> <PUBCHEM_CACTVS_ROTATABLE_BOND>
14
> <PUBCHEM_CACTVS_SUBSKEYS>
AAADcfB7uABAAAAAAAAAAAAAAAAAAAAAAAA8YIAAAAAAAAAB0AAAHgQQSAAADTzh2gY/n5bIFgKoAjBnfHDCiDkxIKAJ2LguTJmOPqLE+VuMdCgu1hPYqCeQwKAOAIAAAAAAAAABAAAAAAAAAAAAAAAAAA==
> <PUBCHEM_IUPAC_OPENEYE_NAME>
pyrimidin-5-ylmethyl N-[(1S,2R)-1-benzyl-2-hydroxy-3-[isobutyl-(4-methoxyphenyl)sulfonyl-amino]propyl]carbamate
> <PUBCHEM_IUPAC_CAS_NAME>
N-[(2S,3R)-3-hydroxy-4-[(4-methoxyphenyl)sulfonyl-(2-methylpropyl)amino]-1-phenylbutan-2-yl]carbamic acid 5-pyrimidinylmethyl ester
> <PUBCHEM_IUPAC_NAME_MARKUP>
pyrimidin-5-ylmethyl <I>N</I>-[(2<I>S</I>,3<I>R</I>)-3-hydroxy-4-[(4-methoxyphenyl)sulfonyl-(2-methylpropyl)amino]-1-phenylbutan-2-yl]carbamate
> <PUBCHEM_IUPAC_NAME>
pyrimidin-5-ylmethyl N-[(2S,3R)-3-hydroxy-4-[(4-methoxyphenyl)sulfonyl-(2-methylpropyl)amino]-1-phenylbutan-2-yl]carbamate
> <PUBCHEM_IUPAC_SYSTEMATIC_NAME>
pyrimidin-5-ylmethyl N-[(2S,3R)-4-[(4-methoxyphenyl)sulfonyl-(2-methylpropyl)amino]-3-oxidanyl-1-phenyl-butan-2-yl]carbamate
> <PUBCHEM_IUPAC_TRADITIONAL_NAME>
N-[(1S,2R)-1-benzyl-2-hydroxy-3-[isobutyl-(4-methoxyphenyl)sulfonyl-amino]propyl]carbamic acid 5-pyrimidylmethyl ester
> <PUBCHEM_IUPAC_INCHI>
InChI=1S/C27H34N4O6S/c1-20(2)16-31(38(34,35)24-11-9-23(36-3)10-12-24)17-26(32)25(13-21-7-5-4-6-8-21)30-27(33)37-18-22-14-28-19-29-15-22/h4-12,14-15,19-20,25-26,32H,13,16-18H2,1-3H3,(H,30,33)/t25-,26+/m0/s1
> <PUBCHEM_IUPAC_INCHIKEY>
PWJFCIPXBJRZHE-IZZNHLLZSA-N
> <PUBCHEM_XLOGP3_AA>
3.3
> <PUBCHEM_EXACT_MASS>
542.21990599
> <PUBCHEM_MOLECULAR_FORMULA>
C27H34N4O6S
> <PUBCHEM_MOLECULAR_WEIGHT>
542.6
> <PUBCHEM_OPENEYE_CAN_SMILES>
CC(C)CN(CC(C(CC1=CC=CC=C1)NC(=O)OCC2=CN=CN=C2)O)S(=O)(=O)C3=CC=C(C=C3)OC
> <PUBCHEM_OPENEYE_ISO_SMILES>
CC(C)CN(C[C@H]([C@H](CC1=CC=CC=C1)NC(=O)OCC2=CN=CN=C2)O)S(=O)(=O)C3=CC=C(C=C3)OC
> <PUBCHEM_CACTVS_TPSA>
139
> <PUBCHEM_MONOISOTOPIC_WEIGHT>
542.21990599
> <PUBCHEM_TOTAL_CHARGE>
0
> <PUBCHEM_HEAVY_ATOM_COUNT>
38
> <PUBCHEM_ATOM_DEF_STEREO_COUNT>
2
> <PUBCHEM_ATOM_UDEF_STEREO_COUNT>
0
> <PUBCHEM_BOND_DEF_STEREO_COUNT>
0
> <PUBCHEM_BOND_UDEF_STEREO_COUNT>
0
> <PUBCHEM_ISOTOPIC_ATOM_COUNT>
0
> <PUBCHEM_COMPONENT_COUNT>
1
> <PUBCHEM_CACTVS_TAUTO_COUNT>
-1
> <PUBCHEM_COORDINATE_TYPE>
1
5
255
> <PUBCHEM_BONDANNOTATIONS>
10  36  8
10  38  8
11  37  8
11  38  8
12  2  5
20  23  8
20  24  8
21  25  8
21  26  8
23  29  8
24  30  8
25  27  8
26  28  8
27  31  8
28  31  8
29  32  8
30  32  8
34  36  8
34  37  8
14  9  5
$$$$
