508327
  -OEChem-10302200282D
 88 89  0     1  0  0  0  0  0999 V2000
    6.0010   -3.3100    0.0000 S   0  0  0  0  0  0  0  0  0  0  0  0
    6.0010   -0.3100    0.0000 O   0  0  0  0  0  0  0  0  0  0  0  0
    7.0010   -3.3100    0.0000 O   0  0  0  0  0  0  0  0  0  0  0  0
    5.0010   -3.3100    0.0000 O   0  0  0  0  0  0  0  0  0  0  0  0
    6.0010    0.6900    0.0000 O   0  0  0  0  0  0  0  0  0  0  0  0
    5.1350    1.1900    0.0000 O   0  0  0  0  0  0  0  0  0  0  0  0
    6.8671    4.1900    0.0000 O   0  0  0  0  0  0  0  0  0  0  0  0
    4.2690    5.6900    0.0000 O   0  0  0  0  0  0  0  0  0  0  0  0
    6.0010   -2.3100    0.0000 N   0  0  3  0  0  0  0  0  0  0  0  0
    7.7331    0.6900    0.0000 N   0  0  0  0  0  0  0  0  0  0  0  0
    6.0010    2.6900    0.0000 N   0  0  0  0  0  0  0  0  0  0  0  0
    3.4030    2.1900    0.0000 N   0  0  0  0  0  0  0  0  0  0  0  0
    8.5991    4.1900    0.0000 N   0  0  0  0  0  0  0  0  0  0  0  0
    2.5369    5.6900    0.0000 N   0  0  0  0  0  0  0  0  0  0  0  0
    6.8671   -0.8100    0.0000 C   0  0  1  0  0  0  0  0  0  0  0  0
    7.7331   -0.3100    0.0000 C   0  0  2  0  0  0  0  0  0  0  0  0
    6.8671   -1.8100    0.0000 C   0  0  0  0  0  0  0  0  0  0  0  0
    5.1350   -1.8100    0.0000 C   0  0  0  0  0  0  0  0  0  0  0  0
    8.5991   -0.8100    0.0000 C   0  0  0  0  0  0  0  0  0  0  0  0
    4.2690   -2.3100    0.0000 C   0  0  0  0  0  0  0  0  0  0  0  0
    3.4030   -1.8100    0.0000 C   0  0  0  0  0  0  0  0  0  0  0  0
    9.4651   -0.3100    0.0000 C   0  0  0  0  0  0  0  0  0  0  0  0
    6.8671    1.1900    0.0000 C   0  0  0  0  0  0  0  0  0  0  0  0
    6.8671    2.1900    0.0000 C   0  0  2  0  0  0  0  0  0  0  0  0
    6.0010   -4.3100    0.0000 C   0  0  0  0  0  0  0  0  0  0  0  0
    3.4030   -0.8100    0.0000 C   0  0  0  0  0  0  0  0  0  0  0  0
    2.5369   -2.3100    0.0000 C   0  0  0  0  0  0  0  0  0  0  0  0
    7.7331    2.6900    0.0000 C   0  0  0  0  0  0  0  0  0  0  0  0
   10.3312   -0.8100    0.0000 C   0  0  0  0  0  0  0  0  0  0  0  0
    9.4651    0.6900    0.0000 C   0  0  0  0  0  0  0  0  0  0  0  0
    6.8671   -4.8100    0.0000 C   0  0  0  0  0  0  0  0  0  0  0  0
    5.1350   -4.8100    0.0000 C   0  0  0  0  0  0  0  0  0  0  0  0
    5.1350    2.1900    0.0000 C   0  0  0  0  0  0  0  0  0  0  0  0
    4.2690    2.6900    0.0000 C   0  0  2  0  0  0  0  0  0  0  0  0
   11.1972   -0.3100    0.0000 C   0  0  0  0  0  0  0  0  0  0  0  0
   10.3312    1.1900    0.0000 C   0  0  0  0  0  0  0  0  0  0  0  0
    6.8671   -5.8100    0.0000 C   0  0  0  0  0  0  0  0  0  0  0  0
    5.1350   -5.8100    0.0000 C   0  0  0  0  0  0  0  0  0  0  0  0
    7.7331    3.6900    0.0000 C   0  0  0  0  0  0  0  0  0  0  0  0
    4.2690    3.6900    0.0000 C   0  0  0  0  0  0  0  0  0  0  0  0
   11.1972    0.6900    0.0000 C   0  0  0  0  0  0  0  0  0  0  0  0
    6.0010   -6.3100    0.0000 C   0  0  0  0  0  0  0  0  0  0  0  0
    3.4030    4.1900    0.0000 C   0  0  0  0  0  0  0  0  0  0  0  0
    3.4030    5.1900    0.0000 C   0  0  0  0  0  0  0  0  0  0  0  0
    6.3301   -1.1200    0.0000 H   0  0  0  0  0  0  0  0  0  0  0  0
    8.2700    0.0000    0.0000 H   0  0  0  0  0  0  0  0  0  0  0  0
    7.0791   -2.3926    0.0000 H   0  0  0  0  0  0  0  0  0  0  0  0
    7.4776   -1.7023    0.0000 H   0  0  0  0  0  0  0  0  0  0  0  0
    5.5335   -1.3350    0.0000 H   0  0  0  0  0  0  0  0  0  0  0  0
    4.7365   -1.3350    0.0000 H   0  0  0  0  0  0  0  0  0  0  0  0
    8.2006   -1.2850    0.0000 H   0  0  0  0  0  0  0  0  0  0  0  0
    8.9976   -1.2850    0.0000 H   0  0  0  0  0  0  0  0  0  0  0  0
    3.8705   -2.7849    0.0000 H   0  0  0  0  0  0  0  0  0  0  0  0
    4.6675   -2.7849    0.0000 H   0  0  0  0  0  0  0  0  0  0  0  0
    3.4030   -2.4300    0.0000 H   0  0  0  0  0  0  0  0  0  0  0  0
    8.2700    1.0000    0.0000 H   0  0  0  0  0  0  0  0  0  0  0  0
    6.3301    1.8800    0.0000 H   0  0  0  0  0  0  0  0  0  0  0  0
    5.4641   -0.6200    0.0000 H   0  0  0  0  0  0  0  0  0  0  0  0
    4.0230   -0.8100    0.0000 H   0  0  0  0  0  0  0  0  0  0  0  0
    3.4030   -0.1900    0.0000 H   0  0  0  0  0  0  0  0  0  0  0  0
    2.7830   -0.8100    0.0000 H   0  0  0  0  0  0  0  0  0  0  0  0
    2.2269   -1.7731    0.0000 H   0  0  0  0  0  0  0  0  0  0  0  0
    2.0000   -2.6200    0.0000 H   0  0  0  0  0  0  0  0  0  0  0  0
    2.8469   -2.8469    0.0000 H   0  0  0  0  0  0  0  0  0  0  0  0
    7.9451    2.1074    0.0000 H   0  0  0  0  0  0  0  0  0  0  0  0
    8.3437    2.7977    0.0000 H   0  0  0  0  0  0  0  0  0  0  0  0
   10.3312   -1.4300    0.0000 H   0  0  0  0  0  0  0  0  0  0  0  0
    8.9282    1.0000    0.0000 H   0  0  0  0  0  0  0  0  0  0  0  0
    6.0010    3.3100    0.0000 H   0  0  0  0  0  0  0  0  0  0  0  0
    7.4040   -4.5000    0.0000 H   0  0  0  0  0  0  0  0  0  0  0  0
    4.5981   -4.5000    0.0000 H   0  0  0  0  0  0  0  0  0  0  0  0
    4.2690    2.0700    0.0000 H   0  0  0  0  0  0  0  0  0  0  0  0
   11.7341   -0.6200    0.0000 H   0  0  0  0  0  0  0  0  0  0  0  0
   10.3312    1.8100    0.0000 H   0  0  0  0  0  0  0  0  0  0  0  0
    7.4040   -6.1200    0.0000 H   0  0  0  0  0  0  0  0  0  0  0  0
    4.5981   -6.1200    0.0000 H   0  0  0  0  0  0  0  0  0  0  0  0
    4.8796    3.5823    0.0000 H   0  0  0  0  0  0  0  0  0  0  0  0
    4.4810    4.2726    0.0000 H   0  0  0  0  0  0  0  0  0  0  0  0
   11.7341    1.0000    0.0000 H   0  0  0  0  0  0  0  0  0  0  0  0
    6.0010   -6.9300    0.0000 H   0  0  0  0  0  0  0  0  0  0  0  0
    2.7924    4.2977    0.0000 H   0  0  0  0  0  0  0  0  0  0  0  0
    3.1909    3.6074    0.0000 H   0  0  0  0  0  0  0  0  0  0  0  0
    2.8660    2.5000    0.0000 H   0  0  0  0  0  0  0  0  0  0  0  0
    3.4030    1.5700    0.0000 H   0  0  0  0  0  0  0  0  0  0  0  0
    8.5991    4.8100    0.0000 H   0  0  0  0  0  0  0  0  0  0  0  0
    9.1360    3.8800    0.0000 H   0  0  0  0  0  0  0  0  0  0  0  0
    2.5369    6.3100    0.0000 H   0  0  0  0  0  0  0  0  0  0  0  0
    2.0000    5.3800    0.0000 H   0  0  0  0  0  0  0  0  0  0  0  0
  1  3  2  0  0  0  0
  1  4  2  0  0  0  0
  1  9  1  0  0  0  0
  1 25  1  0  0  0  0
 15  2  1  1  0  0  0
  2 58  1  0  0  0  0
  5 23  2  0  0  0  0
  6 33  2  0  0  0  0
  7 39  2  0  0  0  0
  8 44  2  0  0  0  0
  9 17  1  0  0  0  0
  9 18  1  0  0  0  0
 16 10  1  1  0  0  0
 10 23  1  0  0  0  0
 10 56  1  0  0  0  0
 24 11  1  1  0  0  0
 11 33  1  0  0  0  0
 11 69  1  0  0  0  0
 34 12  1  1  0  0  0
 12 83  1  0  0  0  0
 12 84  1  0  0  0  0
 13 39  1  0  0  0  0
 13 85  1  0  0  0  0
 13 86  1  0  0  0  0
 14 44  1  0  0  0  0
 14 87  1  0  0  0  0
 14 88  1  0  0  0  0
 15 16  1  0  0  0  0
 15 17  1  0  0  0  0
 15 45  1  0  0  0  0
 16 19  1  0  0  0  0
 16 46  1  0  0  0  0
 17 47  1  0  0  0  0
 17 48  1  0  0  0  0
 18 20  1  0  0  0  0
 18 49  1  0  0  0  0
 18 50  1  0  0  0  0
 19 22  1  0  0  0  0
 19 51  1  0  0  0  0
 19 52  1  0  0  0  0
 20 21  1  0  0  0  0
 20 53  1  0  0  0  0
 20 54  1  0  0  0  0
 21 26  1  0  0  0  0
 21 27  1  0  0  0  0
 21 55  1  0  0  0  0
 22 29  2  0  0  0  0
 22 30  1  0  0  0  0
 23 24  1  0  0  0  0
 24 28  1  0  0  0  0
 24 57  1  0  0  0  0
 25 31  2  0  0  0  0
 25 32  1  0  0  0  0
 26 59  1  0  0  0  0
 26 60  1  0  0  0  0
 26 61  1  0  0  0  0
 27 62  1  0  0  0  0
 27 63  1  0  0  0  0
 27 64  1  0  0  0  0
 28 39  1  0  0  0  0
 28 65  1  0  0  0  0
 28 66  1  0  0  0  0
 29 35  1  0  0  0  0
 29 67  1  0  0  0  0
 30 36  2  0  0  0  0
 30 68  1  0  0  0  0
 31 37  1  0  0  0  0
 31 70  1  0  0  0  0
 32 38  2  0  0  0  0
 32 71  1  0  0  0  0
 33 34  1  0  0  0  0
 34 40  1  0  0  0  0
 34 72  1  0  0  0  0
 35 41  2  0  0  0  0
 35 73  1  0  0  0  0
 36 41  1  0  0  0  0
 36 74  1  0  0  0  0
 37 42  2  0  0  0  0
 37 75  1  0  0  0  0
 38 42  1  0  0  0  0
 38 76  1  0  0  0  0
 40 43  1  0  0  0  0
 40 77  1  0  0  0  0
 40 78  1  0  0  0  0
 41 79  1  0  0  0  0
 42 80  1  0  0  0  0
 43 44  1  0  0  0  0
 43 81  1  0  0  0  0
 43 82  1  0  0  0  0
M  END
> <PUBCHEM_COMPOUND_CID>
508327
> <PUBCHEM_COMPOUND_CANONICALIZED>
1
> <PUBCHEM_CACTVS_COMPLEXITY>
1040
> <PUBCHEM_CACTVS_HBOND_ACCEPTOR>
9
> <PUBCHEM_CACTVS_HBOND_DONOR>
6
> <PUBCHEM_CACTVS_ROTATABLE_BOND>
19
> <PUBCHEM_CACTVS_SUBSKEYS>
AAADcfB7uABAAAAAAAAAAAAAAAAAAAAAAAAwYAAAAAAAAAABQAAAHgQQSAAADTzh2AYyAYLAAgKIAiFSEHBCABAgAAAIiJmIAIgKcDqA0TGUYAAklgCYiAedw6AOAAAAAAAAAAAAAAAAAAAAAAAAAAAAAA==
> <PUBCHEM_IUPAC_OPENEYE_NAME>
(2S)-2-amino-N-[(1S)-3-amino-1-[[(1S,2R)-3-[benzenesulfonyl(isopentyl)amino]-1-benzyl-2-hydroxy-propyl]carbamoyl]-3-oxo-propyl]pentanediamide
> <PUBCHEM_IUPAC_CAS_NAME>
(2S)-2-amino-N-[(2S)-4-amino-1-[[(2S,3R)-4-[benzenesulfonyl(3-methylbutyl)amino]-3-hydroxy-1-phenylbutan-2-yl]amino]-1,4-dioxobutan-2-yl]pentanediamide
> <PUBCHEM_IUPAC_NAME_MARKUP>
(2<I>S</I>)-2-amino-<I>N</I>-[(2<I>S</I>)-4-amino-1-[[(2<I>S</I>,3<I>R</I>)-4-[benzenesulfonyl(3-methylbutyl)amino]-3-hydroxy-1-phenylbutan-2-yl]amino]-1,4-dioxobutan-2-yl]pentanediamide
> <PUBCHEM_IUPAC_NAME>
(2S)-2-amino-N-[(2S)-4-amino-1-[[(2S,3R)-4-[benzenesulfonyl(3-methylbutyl)amino]-3-hydroxy-1-phenylbutan-2-yl]amino]-1,4-dioxobutan-2-yl]pentanediamide
> <PUBCHEM_IUPAC_SYSTEMATIC_NAME>
(2S)-2-azanyl-N-[(2S)-4-azanyl-1-[[(2S,3R)-4-[3-methylbutyl(phenylsulfonyl)amino]-3-oxidanyl-1-phenyl-butan-2-yl]amino]-1,4-bis(oxidanylidene)butan-2-yl]pentanediamide
> <PUBCHEM_IUPAC_TRADITIONAL_NAME>
(2S)-2-amino-N-[(1S)-3-amino-1-[[(1S,2R)-1-benzyl-3-[besyl(isoamyl)amino]-2-hydroxy-propyl]carbamoyl]-3-keto-propyl]glutaramide
> <PUBCHEM_IUPAC_INCHI>
InChI=1S/C30H44N6O7S/c1-20(2)15-16-36(44(42,43)22-11-7-4-8-12-22)19-26(37)24(17-21-9-5-3-6-10-21)34-30(41)25(18-28(33)39)35-29(40)23(31)13-14-27(32)38/h3-12,20,23-26,37H,13-19,31H2,1-2H3,(H2,32,38)(H2,33,39)(H,34,41)(H,35,40)/t23-,24-,25-,26+/m0/s1
> <PUBCHEM_IUPAC_INCHIKEY>
JADRGTVINKOVGZ-ASDGIDEWSA-N
> <PUBCHEM_XLOGP3_AA>
0
> <PUBCHEM_EXACT_MASS>
632.29921894
> <PUBCHEM_MOLECULAR_FORMULA>
C30H44N6O7S
> <PUBCHEM_MOLECULAR_WEIGHT>
632.8
> <PUBCHEM_OPENEYE_CAN_SMILES>
CC(C)CCN(CC(C(CC1=CC=CC=C1)NC(=O)C(CC(=O)N)NC(=O)C(CCC(=O)N)N)O)S(=O)(=O)C2=CC=CC=C2
> <PUBCHEM_OPENEYE_ISO_SMILES>
CC(C)CCN(C[C@H]([C@H](CC1=CC=CC=C1)NC(=O)[C@H](CC(=O)N)NC(=O)[C@H](CCC(=O)N)N)O)S(=O)(=O)C2=CC=CC=C2
> <PUBCHEM_CACTVS_TPSA>
236
> <PUBCHEM_MONOISOTOPIC_WEIGHT>
632.29921894
> <PUBCHEM_TOTAL_CHARGE>
0
> <PUBCHEM_HEAVY_ATOM_COUNT>
44
> <PUBCHEM_ATOM_DEF_STEREO_COUNT>
4
> <PUBCHEM_ATOM_UDEF_STEREO_COUNT>
0
> <PUBCHEM_BOND_DEF_STEREO_COUNT>
0
> <PUBCHEM_BOND_UDEF_STEREO_COUNT>
0
> <PUBCHEM_ISOTOPIC_ATOM_COUNT>
0
> <PUBCHEM_COMPONENT_COUNT>
1
> <PUBCHEM_CACTVS_TAUTO_COUNT>
-1
> <PUBCHEM_COORDINATE_TYPE>
1
5
255
> <PUBCHEM_BONDANNOTATIONS>
16  10  5
24  11  5
34  12  5
15  2  5
22  29  8
22  30  8
25  31  8
25  32  8
29  35  8
30  36  8
31  37  8
32  38  8
35  41  8
36  41  8
37  42  8
38  42  8
$$$$
