508367
  -OEChem-10302200282D
 55 59  0     1  0  0  0  0  0999 V2000
    2.0000   -1.2327    0.0000 Cl  0  0  0  0  0  0  0  0  0  0  0  0
    9.5878   -2.0417    0.0000 O   0  0  0  0  0  0  0  0  0  0  0  0
   11.4851   -0.4280    0.0000 O   0  0  0  0  0  0  0  0  0  0  0  0
   11.4851   -2.0374    0.0000 O   0  0  0  0  0  0  0  0  0  0  0  0
    9.2788    0.5274    0.0000 O   0  0  0  0  0  0  0  0  0  0  0  0
    6.0000    0.4994    0.0000 O   0  0  0  0  0  0  0  0  0  0  0  0
    6.0000   -2.9647    0.0000 O   0  0  0  0  0  0  0  0  0  0  0  0
    7.5000   -2.0987    0.0000 N   0  0  0  0  0  0  0  0  0  0  0  0
    6.0000   -1.2327    0.0000 N   0  0  0  0  0  0  0  0  0  0  0  0
   10.5388   -0.7327    0.0000 C   0  0  3  0  0  0  0  0  0  0  0  0
    9.0000   -1.2327    0.0000 C   0  0  3  0  0  0  0  0  0  0  0  0
    9.5878   -0.4237    0.0000 C   0  0  2  0  0  0  0  0  0  0  0  0
   10.5388   -1.7327    0.0000 C   0  0  3  0  0  0  0  0  0  0  0  0
    8.0000   -1.2327    0.0000 C   0  0  2  0  0  0  0  0  0  0  0  0
   12.0687   -1.2327    0.0000 C   0  0  0  0  0  0  0  0  0  0  0  0
    7.5000   -0.3667    0.0000 C   0  0  0  0  0  0  0  0  0  0  0  0
   12.8777   -1.8205    0.0000 C   0  0  0  0  0  0  0  0  0  0  0  0
   12.8777   -0.6449    0.0000 C   0  0  0  0  0  0  0  0  0  0  0  0
    6.5000   -0.3667    0.0000 C   0  0  0  0  0  0  0  0  0  0  0  0
    6.5000   -2.0987    0.0000 C   0  0  0  0  0  0  0  0  0  0  0  0
    9.9479    1.2705    0.0000 C   0  0  0  0  0  0  0  0  0  0  0  0
    5.0000   -1.2327    0.0000 C   0  0  0  0  0  0  0  0  0  0  0  0
    9.6389    2.2216    0.0000 C   0  0  0  0  0  0  0  0  0  0  0  0
   10.9260    1.0626    0.0000 C   0  0  0  0  0  0  0  0  0  0  0  0
    4.5000   -0.3667    0.0000 C   0  0  0  0  0  0  0  0  0  0  0  0
    4.5000   -2.0987    0.0000 C   0  0  0  0  0  0  0  0  0  0  0  0
   10.3080    2.9647    0.0000 C   0  0  0  0  0  0  0  0  0  0  0  0
   11.5952    1.8058    0.0000 C   0  0  0  0  0  0  0  0  0  0  0  0
   11.2862    2.7568    0.0000 C   0  0  0  0  0  0  0  0  0  0  0  0
    3.5000   -0.3667    0.0000 C   0  0  0  0  0  0  0  0  0  0  0  0
    3.5000   -2.0987    0.0000 C   0  0  0  0  0  0  0  0  0  0  0  0
    3.0000   -1.2327    0.0000 C   0  0  0  0  0  0  0  0  0  0  0  0
   10.5396   -0.1127    0.0000 H   0  0  0  0  0  0  0  0  0  0  0  0
    8.7185   -1.7851    0.0000 H   0  0  0  0  0  0  0  0  0  0  0  0
   10.0262    0.0147    0.0000 H   0  0  0  0  0  0  0  0  0  0  0  0
   10.5396   -2.3527    0.0000 H   0  0  0  0  0  0  0  0  0  0  0  0
    8.4250   -0.4966    0.0000 H   0  0  0  0  0  0  0  0  0  0  0  0
    8.0826   -0.1546    0.0000 H   0  0  0  0  0  0  0  0  0  0  0  0
    7.3923    0.2439    0.0000 H   0  0  0  0  0  0  0  0  0  0  0  0
    7.8100   -2.6356    0.0000 H   0  0  0  0  0  0  0  0  0  0  0  0
   12.5133   -2.3221    0.0000 H   0  0  0  0  0  0  0  0  0  0  0  0
   13.3793   -2.1849    0.0000 H   0  0  0  0  0  0  0  0  0  0  0  0
   13.2421   -1.3189    0.0000 H   0  0  0  0  0  0  0  0  0  0  0  0
   13.2421   -1.1465    0.0000 H   0  0  0  0  0  0  0  0  0  0  0  0
   13.3793   -0.2805    0.0000 H   0  0  0  0  0  0  0  0  0  0  0  0
   12.5133   -0.1433    0.0000 H   0  0  0  0  0  0  0  0  0  0  0  0
    9.0324    2.3505    0.0000 H   0  0  0  0  0  0  0  0  0  0  0  0
   11.1176    0.4730    0.0000 H   0  0  0  0  0  0  0  0  0  0  0  0
    4.8100    0.1703    0.0000 H   0  0  0  0  0  0  0  0  0  0  0  0
    4.8100   -2.6356    0.0000 H   0  0  0  0  0  0  0  0  0  0  0  0
   10.1164    3.5544    0.0000 H   0  0  0  0  0  0  0  0  0  0  0  0
   12.2016    1.6769    0.0000 H   0  0  0  0  0  0  0  0  0  0  0  0
   11.7010    3.2176    0.0000 H   0  0  0  0  0  0  0  0  0  0  0  0
    3.1900    0.1703    0.0000 H   0  0  0  0  0  0  0  0  0  0  0  0
    3.1900   -2.6356    0.0000 H   0  0  0  0  0  0  0  0  0  0  0  0
  1 32  1  0  0  0  0
  2 11  1  0  0  0  0
  2 13  1  0  0  0  0
  3 10  1  0  0  0  0
  3 15  1  0  0  0  0
  4 13  1  0  0  0  0
  4 15  1  0  0  0  0
 12  5  1  6  0  0  0
  5 21  1  0  0  0  0
  6 19  2  0  0  0  0
  7 20  2  0  0  0  0
  8 14  1  0  0  0  0
  8 20  1  0  0  0  0
  8 40  1  0  0  0  0
  9 19  1  0  0  0  0
  9 20  1  0  0  0  0
  9 22  1  0  0  0  0
 10 12  1  0  0  0  0
 10 13  1  0  0  0  0
 10 33  1  0  0  0  0
 11 12  1  0  0  0  0
 11 14  1  0  0  0  0
 11 34  1  0  0  0  0
 12 35  1  0  0  0  0
 13 36  1  0  0  0  0
 14 16  1  0  0  0  0
 14 37  1  6  0  0  0
 15 17  1  0  0  0  0
 15 18  1  0  0  0  0
 16 19  1  0  0  0  0
 16 38  1  0  0  0  0
 16 39  1  0  0  0  0
 17 41  1  0  0  0  0
 17 42  1  0  0  0  0
 17 43  1  0  0  0  0
 18 44  1  0  0  0  0
 18 45  1  0  0  0  0
 18 46  1  0  0  0  0
 21 23  2  0  0  0  0
 21 24  1  0  0  0  0
 22 25  2  0  0  0  0
 22 26  1  0  0  0  0
 23 27  1  0  0  0  0
 23 47  1  0  0  0  0
 24 28  2  0  0  0  0
 24 48  1  0  0  0  0
 25 30  1  0  0  0  0
 25 49  1  0  0  0  0
 26 31  2  0  0  0  0
 26 50  1  0  0  0  0
 27 29  2  0  0  0  0
 27 51  1  0  0  0  0
 28 29  1  0  0  0  0
 28 52  1  0  0  0  0
 29 53  1  0  0  0  0
 30 32  2  0  0  0  0
 30 54  1  0  0  0  0
 31 32  1  0  0  0  0
 31 55  1  0  0  0  0
M  END
> <PUBCHEM_COMPOUND_CID>
508367
> <PUBCHEM_COMPOUND_CANONICALIZED>
1
> <PUBCHEM_CACTVS_COMPLEXITY>
721
> <PUBCHEM_CACTVS_HBOND_ACCEPTOR>
6
> <PUBCHEM_CACTVS_HBOND_DONOR>
1
> <PUBCHEM_CACTVS_ROTATABLE_BOND>
4
> <PUBCHEM_CACTVS_SUBSKEYS>
AAADceB7OAAEAAAAAAAAAAAAAAAAASJAAAA8YIAAAAASAAABQAAAHgIQAAAACD7xkCczzoPABACIACVSUACCCAAhJwAIiIEOboifJjrF85unOCjv1zPe6Cf63CPAAABAAAAAAAAAAIAAAAAAAAAAAAAAAA==
> <PUBCHEM_IUPAC_OPENEYE_NAME>
(6S)-3-(4-chlorophenyl)-6-[(6S)-2,2-dimethyl-6-phenoxy-3a,5,6,6a-tetrahydrofuro[2,3-d][1,3]dioxol-5-yl]hexahydropyrimidine-2,4-dione
> <PUBCHEM_IUPAC_CAS_NAME>
(6S)-3-(4-chlorophenyl)-6-[(6S)-2,2-dimethyl-6-phenoxy-3a,5,6,6a-tetrahydrofuro[2,3-d][1,3]dioxol-5-yl]-1,3-diazinane-2,4-dione
> <PUBCHEM_IUPAC_NAME_MARKUP>
(6<I>S</I>)-3-(4-chlorophenyl)-6-[(6<I>S</I>)-2,2-dimethyl-6-phenoxy-3<I>a</I>,5,6,6<I>a</I>-tetrahydrofuro[2,3-d][1,3]dioxol-5-yl]-1,3-diazinane-2,4-dione
> <PUBCHEM_IUPAC_NAME>
(6S)-3-(4-chlorophenyl)-6-[(6S)-2,2-dimethyl-6-phenoxy-3a,5,6,6a-tetrahydrofuro[2,3-d][1,3]dioxol-5-yl]-1,3-diazinane-2,4-dione
> <PUBCHEM_IUPAC_SYSTEMATIC_NAME>
(6S)-3-(4-chlorophenyl)-6-[(6S)-2,2-dimethyl-6-phenoxy-3a,5,6,6a-tetrahydrofuro[2,3-d][1,3]dioxol-5-yl]-1,3-diazinane-2,4-dione
> <PUBCHEM_IUPAC_TRADITIONAL_NAME>
(6S)-3-(4-chlorophenyl)-6-[(6S)-2,2-dimethyl-6-phenoxy-3a,5,6,6a-tetrahydrofuro[2,3-d][1,3]dioxol-5-yl]-5,6-dihydrouracil
> <PUBCHEM_IUPAC_INCHI>
InChI=1S/C23H23ClN2O6/c1-23(2)31-20-19(29-15-6-4-3-5-7-15)18(30-21(20)32-23)16-12-17(27)26(22(28)25-16)14-10-8-13(24)9-11-14/h3-11,16,18-21H,12H2,1-2H3,(H,25,28)/t16-,18?,19-,20?,21?/m0/s1
> <PUBCHEM_IUPAC_INCHIKEY>
YGAQALZHFJDMHQ-JFTNXMGPSA-N
> <PUBCHEM_XLOGP3_AA>
3.1
> <PUBCHEM_EXACT_MASS>
458.1244642
> <PUBCHEM_MOLECULAR_FORMULA>
C23H23ClN2O6
> <PUBCHEM_MOLECULAR_WEIGHT>
458.9
> <PUBCHEM_OPENEYE_CAN_SMILES>
CC1(OC2C(C(OC2O1)C3CC(=O)N(C(=O)N3)C4=CC=C(C=C4)Cl)OC5=CC=CC=C5)C
> <PUBCHEM_OPENEYE_ISO_SMILES>
CC1(OC2[C@H](C(OC2O1)[C@@H]3CC(=O)N(C(=O)N3)C4=CC=C(C=C4)Cl)OC5=CC=CC=C5)C
> <PUBCHEM_CACTVS_TPSA>
86.3
> <PUBCHEM_MONOISOTOPIC_WEIGHT>
458.1244642
> <PUBCHEM_TOTAL_CHARGE>
0
> <PUBCHEM_HEAVY_ATOM_COUNT>
32
> <PUBCHEM_ATOM_DEF_STEREO_COUNT>
2
> <PUBCHEM_ATOM_UDEF_STEREO_COUNT>
3
> <PUBCHEM_BOND_DEF_STEREO_COUNT>
0
> <PUBCHEM_BOND_UDEF_STEREO_COUNT>
0
> <PUBCHEM_ISOTOPIC_ATOM_COUNT>
0
> <PUBCHEM_COMPONENT_COUNT>
1
> <PUBCHEM_CACTVS_TAUTO_COUNT>
-1
> <PUBCHEM_COORDINATE_TYPE>
1
5
255
> <PUBCHEM_BONDANNOTATIONS>
14  37  6
11  2  3
21  23  8
21  24  8
22  25  8
22  26  8
23  27  8
24  28  8
25  30  8
26  31  8
27  29  8
28  29  8
10  3  3
30  32  8
31  32  8
13  4  3
12  5  6
$$$$
