508351
  -OEChem-10302200282D
 76 80  0     1  0  0  0  0  0999 V2000
    5.9538    0.5564    0.0000 O   0  0  0  0  0  0  0  0  0  0  0  0
    7.8511    2.1701    0.0000 O   0  0  0  0  0  0  0  0  0  0  0  0
    7.8511    0.5607    0.0000 O   0  0  0  0  0  0  0  0  0  0  0  0
    5.6448    3.1255    0.0000 O   0  0  0  0  0  0  0  0  0  0  0  0
    5.3660   -0.3667    0.0000 O   0  0  0  0  0  0  0  0  0  0  0  0
    3.0000    3.7314    0.0000 O   0  0  0  0  0  0  0  0  0  0  0  0
    2.1340    2.2314    0.0000 O   0  0  0  0  0  0  0  0  0  0  0  0
    2.8660   -4.6968    0.0000 O   0  0  0  0  0  0  0  0  0  0  0  0
    3.8660    0.4994    0.0000 N   0  0  0  0  0  0  0  0  0  0  0  0
    3.8660   -1.2327    0.0000 N   0  0  0  0  0  0  0  0  0  0  0  0
    2.8660    0.4994    0.0000 C   0  0  0  0  0  0  0  0  0  0  0  0
    5.3660    1.3654    0.0000 C   0  0  3  0  0  0  0  0  0  0  0  0
    4.3660    1.3654    0.0000 C   0  0  2  0  0  0  0  0  0  0  0  0
    2.0000    0.9994    0.0000 C   0  0  0  0  0  0  0  0  0  0  0  0
    2.0000   -0.0006    0.0000 C   0  0  0  0  0  0  0  0  0  0  0  0
    5.9538    2.1744    0.0000 C   0  0  1  0  0  0  0  0  0  0  0  0
    6.9049    1.8654    0.0000 C   0  0  2  0  0  0  0  0  0  0  0  0
    6.9049    0.8654    0.0000 C   0  0  2  0  0  0  0  0  0  0  0  0
    3.8660    2.2314    0.0000 C   0  0  0  0  0  0  0  0  0  0  0  0
    8.4347    1.3654    0.0000 C   0  0  0  0  0  0  0  0  0  0  0  0
    4.3660   -0.3667    0.0000 C   0  0  0  0  0  0  0  0  0  0  0  0
    9.2437    0.7776    0.0000 C   0  0  0  0  0  0  0  0  0  0  0  0
    9.2437    1.9532    0.0000 C   0  0  0  0  0  0  0  0  0  0  0  0
    3.0000    2.7315    0.0000 C   0  0  0  0  0  0  0  0  0  0  0  0
    6.3139    3.8686    0.0000 C   0  0  0  0  0  0  0  0  0  0  0  0
    4.3660   -2.0987    0.0000 C   0  0  0  0  0  0  0  0  0  0  0  0
    6.0049    4.8197    0.0000 C   0  0  0  0  0  0  0  0  0  0  0  0
    7.2921    3.6607    0.0000 C   0  0  0  0  0  0  0  0  0  0  0  0
    2.1340    4.2314    0.0000 C   0  0  0  0  0  0  0  0  0  0  0  0
    3.8660   -2.9647    0.0000 C   0  0  0  0  0  0  0  0  0  0  0  0
    6.6740    5.5628    0.0000 C   0  0  0  0  0  0  0  0  0  0  0  0
    7.9612    4.4038    0.0000 C   0  0  0  0  0  0  0  0  0  0  0  0
    5.3660   -2.0987    0.0000 C   0  0  0  0  0  0  0  0  0  0  0  0
    7.6522    5.3549    0.0000 C   0  0  0  0  0  0  0  0  0  0  0  0
    2.1340    5.2314    0.0000 C   0  0  0  0  0  0  0  0  0  0  0  0
    4.3660   -3.8308    0.0000 C   0  0  0  0  0  0  0  0  0  0  0  0
    5.8660   -2.9647    0.0000 C   0  0  0  0  0  0  0  0  0  0  0  0
    5.3660   -3.8308    0.0000 C   0  0  0  0  0  0  0  0  0  0  0  0
    3.8660   -4.6968    0.0000 C   0  0  0  0  0  0  0  0  0  0  0  0
    4.3660   -5.5628    0.0000 C   0  0  0  0  0  0  0  0  0  0  0  0
    3.0265    1.0982    0.0000 H   0  0  0  0  0  0  0  0  0  0  0  0
    5.9860    1.3654    0.0000 H   0  0  0  0  0  0  0  0  0  0  0  0
    4.6760    0.8285    0.0000 H   0  0  0  0  0  0  0  0  0  0  0  0
    2.2120    1.5820    0.0000 H   0  0  0  0  0  0  0  0  0  0  0  0
    1.3894    1.1070    0.0000 H   0  0  0  0  0  0  0  0  0  0  0  0
    1.3894   -0.1083    0.0000 H   0  0  0  0  0  0  0  0  0  0  0  0
    2.2120   -0.5832    0.0000 H   0  0  0  0  0  0  0  0  0  0  0  0
    6.3922    2.6128    0.0000 H   0  0  0  0  0  0  0  0  0  0  0  0
    6.9060    2.7154    0.0000 H   0  0  0  0  0  0  0  0  0  0  0  0
    6.9060    0.0154    0.0000 H   0  0  0  0  0  0  0  0  0  0  0  0
    4.4766    2.3391    0.0000 H   0  0  0  0  0  0  0  0  0  0  0  0
    3.4276    1.7930    0.0000 H   0  0  0  0  0  0  0  0  0  0  0  0
    8.8793    0.2760    0.0000 H   0  0  0  0  0  0  0  0  0  0  0  0
    9.7453    0.4132    0.0000 H   0  0  0  0  0  0  0  0  0  0  0  0
    9.6081    1.2792    0.0000 H   0  0  0  0  0  0  0  0  0  0  0  0
    9.6081    1.4516    0.0000 H   0  0  0  0  0  0  0  0  0  0  0  0
    9.7453    2.3176    0.0000 H   0  0  0  0  0  0  0  0  0  0  0  0
    8.8793    2.4548    0.0000 H   0  0  0  0  0  0  0  0  0  0  0  0
    3.2460   -1.2327    0.0000 H   0  0  0  0  0  0  0  0  0  0  0  0
    5.3985    4.9486    0.0000 H   0  0  0  0  0  0  0  0  0  0  0  0
    7.4837    3.0710    0.0000 H   0  0  0  0  0  0  0  0  0  0  0  0
    1.5234    4.3391    0.0000 H   0  0  0  0  0  0  0  0  0  0  0  0
    1.9219    3.6488    0.0000 H   0  0  0  0  0  0  0  0  0  0  0  0
    3.2460   -2.9647    0.0000 H   0  0  0  0  0  0  0  0  0  0  0  0
    6.4824    6.1525    0.0000 H   0  0  0  0  0  0  0  0  0  0  0  0
    8.5676    4.2749    0.0000 H   0  0  0  0  0  0  0  0  0  0  0  0
    5.6760   -1.5618    0.0000 H   0  0  0  0  0  0  0  0  0  0  0  0
    8.0670    5.8156    0.0000 H   0  0  0  0  0  0  0  0  0  0  0  0
    2.7540    5.2314    0.0000 H   0  0  0  0  0  0  0  0  0  0  0  0
    2.1340    5.8514    0.0000 H   0  0  0  0  0  0  0  0  0  0  0  0
    1.5140    5.2314    0.0000 H   0  0  0  0  0  0  0  0  0  0  0  0
    6.4860   -2.9647    0.0000 H   0  0  0  0  0  0  0  0  0  0  0  0
    5.6760   -4.3677    0.0000 H   0  0  0  0  0  0  0  0  0  0  0  0
    3.8291   -5.8728    0.0000 H   0  0  0  0  0  0  0  0  0  0  0  0
    4.6760   -6.0998    0.0000 H   0  0  0  0  0  0  0  0  0  0  0  0
    4.9030   -5.2528    0.0000 H   0  0  0  0  0  0  0  0  0  0  0  0
  1 12  1  0  0  0  0
  1 18  1  0  0  0  0
  2 17  1  0  0  0  0
  2 20  1  0  0  0  0
  3 18  1  0  0  0  0
  3 20  1  0  0  0  0
 16  4  1  6  0  0  0
  4 25  1  0  0  0  0
  5 21  2  0  0  0  0
  6 24  1  0  0  0  0
  6 29  1  0  0  0  0
  7 24  2  0  0  0  0
  8 39  2  0  0  0  0
  9 11  1  0  0  0  0
 13  9  1  1  0  0  0
  9 21  1  0  0  0  0
 10 21  1  0  0  0  0
 10 26  1  0  0  0  0
 10 59  1  0  0  0  0
 11 14  1  0  0  0  0
 11 15  1  0  0  0  0
 11 41  1  0  0  0  0
 12 13  1  0  0  0  0
 12 16  1  0  0  0  0
 12 42  1  0  0  0  0
 13 19  1  0  0  0  0
 13 43  1  0  0  0  0
 14 15  1  0  0  0  0
 14 44  1  0  0  0  0
 14 45  1  0  0  0  0
 15 46  1  0  0  0  0
 15 47  1  0  0  0  0
 16 17  1  0  0  0  0
 16 48  1  0  0  0  0
 17 18  1  0  0  0  0
 17 49  1  6  0  0  0
 18 50  1  6  0  0  0
 19 24  1  0  0  0  0
 19 51  1  0  0  0  0
 19 52  1  0  0  0  0
 20 22  1  0  0  0  0
 20 23  1  0  0  0  0
 22 53  1  0  0  0  0
 22 54  1  0  0  0  0
 22 55  1  0  0  0  0
 23 56  1  0  0  0  0
 23 57  1  0  0  0  0
 23 58  1  0  0  0  0
 25 27  2  0  0  0  0
 25 28  1  0  0  0  0
 26 30  1  0  0  0  0
 26 33  2  0  0  0  0
 27 31  1  0  0  0  0
 27 60  1  0  0  0  0
 28 32  2  0  0  0  0
 28 61  1  0  0  0  0
 29 35  1  0  0  0  0
 29 62  1  0  0  0  0
 29 63  1  0  0  0  0
 30 36  2  0  0  0  0
 30 64  1  0  0  0  0
 31 34  2  0  0  0  0
 31 65  1  0  0  0  0
 32 34  1  0  0  0  0
 32 66  1  0  0  0  0
 33 37  1  0  0  0  0
 33 67  1  0  0  0  0
 34 68  1  0  0  0  0
 35 69  1  0  0  0  0
 35 70  1  0  0  0  0
 35 71  1  0  0  0  0
 36 38  1  0  0  0  0
 36 39  1  0  0  0  0
 37 38  2  0  0  0  0
 37 72  1  0  0  0  0
 38 73  1  0  0  0  0
 39 40  1  0  0  0  0
 40 74  1  0  0  0  0
 40 75  1  0  0  0  0
 40 76  1  0  0  0  0
M  END
> <PUBCHEM_COMPOUND_CID>
508351
> <PUBCHEM_COMPOUND_CANONICALIZED>
1
> <PUBCHEM_CACTVS_COMPLEXITY>
917
> <PUBCHEM_CACTVS_HBOND_ACCEPTOR>
8
> <PUBCHEM_CACTVS_HBOND_DONOR>
1
> <PUBCHEM_CACTVS_ROTATABLE_BOND>
11
> <PUBCHEM_CACTVS_SUBSKEYS>
AAADcfB7PAAAAAAAAAAAAAAAGAAAASJAAAAwYAAAAAASAAABQAAAHgAQAAAADDzxmAczzoPABACIAqTSWACCCAAlIgAIiAEObMifJjrEtZunOSjv1hPe6af+/K/OAAAAQAAAAAAAAACAAAAAAAAAAAAAAA==
> <PUBCHEM_IUPAC_OPENEYE_NAME>
ethyl (3S)-3-[(3aR,6S,6aR)-2,2-dimethyl-6-phenoxy-3a,5,6,6a-tetrahydrofuro[2,3-d][1,3]dioxol-5-yl]-3-[(3-acetylphenyl)carbamoyl-cyclopropyl-amino]propanoate
> <PUBCHEM_IUPAC_CAS_NAME>
(3S)-3-[(3aR,6S,6aR)-2,2-dimethyl-6-phenoxy-3a,5,6,6a-tetrahydrofuro[2,3-d][1,3]dioxol-5-yl]-3-[[(3-acetylanilino)-oxomethyl]-cyclopropylamino]propanoic acid ethyl ester
> <PUBCHEM_IUPAC_NAME_MARKUP>
ethyl (3<I>S</I>)-3-[(3<I>a</I><I>R</I>,6<I>S</I>,6<I>a</I><I>R</I>)-2,2-dimethyl-6-phenoxy-3<I>a</I>,5,6,6<I>a</I>-tetrahydrofuro[2,3-d][1,3]dioxol-5-yl]-3-[(3-acetylphenyl)carbamoyl-cyclopropylamino]propanoate
> <PUBCHEM_IUPAC_NAME>
ethyl (3S)-3-[(3aR,6S,6aR)-2,2-dimethyl-6-phenoxy-3a,5,6,6a-tetrahydrofuro[2,3-d][1,3]dioxol-5-yl]-3-[(3-acetylphenyl)carbamoyl-cyclopropylamino]propanoate
> <PUBCHEM_IUPAC_SYSTEMATIC_NAME>
ethyl (3S)-3-[(3aR,6S,6aR)-2,2-dimethyl-6-phenoxy-3a,5,6,6a-tetrahydrofuro[2,3-d][1,3]dioxol-5-yl]-3-[cyclopropyl-[(3-ethanoylphenyl)carbamoyl]amino]propanoate
> <PUBCHEM_IUPAC_TRADITIONAL_NAME>
(3S)-3-[(3aR,6S,6aR)-2,2-dimethyl-6-phenoxy-3a,5,6,6a-tetrahydrofuro[2,3-d][1,3]dioxol-5-yl]-3-[(3-acetylphenyl)carbamoyl-cyclopropyl-amino]propionic acid ethyl ester
> <PUBCHEM_IUPAC_INCHI>
InChI=1S/C30H36N2O8/c1-5-36-24(34)17-23(32(21-14-15-21)29(35)31-20-11-9-10-19(16-20)18(2)33)25-26(37-22-12-7-6-8-13-22)27-28(38-25)40-30(3,4)39-27/h6-13,16,21,23,25-28H,5,14-15,17H2,1-4H3,(H,31,35)/t23-,25?,26-,27+,28+/m0/s1
> <PUBCHEM_IUPAC_INCHIKEY>
ZLDYXPFQZSAOIQ-OZVDCRRUSA-N
> <PUBCHEM_XLOGP3_AA>
3.5
> <PUBCHEM_EXACT_MASS>
552.24716611
> <PUBCHEM_MOLECULAR_FORMULA>
C30H36N2O8
> <PUBCHEM_MOLECULAR_WEIGHT>
552.6
> <PUBCHEM_OPENEYE_CAN_SMILES>
CCOC(=O)CC(C1C(C2C(O1)OC(O2)(C)C)OC3=CC=CC=C3)N(C4CC4)C(=O)NC5=CC=CC(=C5)C(=O)C
> <PUBCHEM_OPENEYE_ISO_SMILES>
CCOC(=O)C[C@@H](C1[C@@H]([C@@H]2[C@H](O1)OC(O2)(C)C)OC3=CC=CC=C3)N(C4CC4)C(=O)NC5=CC=CC(=C5)C(=O)C
> <PUBCHEM_CACTVS_TPSA>
113
> <PUBCHEM_MONOISOTOPIC_WEIGHT>
552.24716611
> <PUBCHEM_TOTAL_CHARGE>
0
> <PUBCHEM_HEAVY_ATOM_COUNT>
40
> <PUBCHEM_ATOM_DEF_STEREO_COUNT>
4
> <PUBCHEM_ATOM_UDEF_STEREO_COUNT>
1
> <PUBCHEM_BOND_DEF_STEREO_COUNT>
0
> <PUBCHEM_BOND_UDEF_STEREO_COUNT>
0
> <PUBCHEM_ISOTOPIC_ATOM_COUNT>
0
> <PUBCHEM_COMPONENT_COUNT>
1
> <PUBCHEM_CACTVS_TAUTO_COUNT>
-1
> <PUBCHEM_COORDINATE_TYPE>
1
5
255
> <PUBCHEM_BONDANNOTATIONS>
12  1  3
17  49  6
18  50  6
25  27  8
25  28  8
26  30  8
26  33  8
27  31  8
28  32  8
30  36  8
31  34  8
32  34  8
33  37  8
36  38  8
37  38  8
16  4  6
13  9  5
$$$$
