508350
  -OEChem-10302200282D
 64 67  0     1  0  0  0  0  0999 V2000
    7.0000   -5.1298    0.0000 Cl  0  0  0  0  0  0  0  0  0  0  0  0
    7.0878    0.1234    0.0000 O   0  0  0  0  0  0  0  0  0  0  0  0
    8.9851    1.7371    0.0000 O   0  0  0  0  0  0  0  0  0  0  0  0
    8.9851    0.1276    0.0000 O   0  0  0  0  0  0  0  0  0  0  0  0
    6.7788    2.6924    0.0000 O   0  0  0  0  0  0  0  0  0  0  0  0
    3.5000    2.6644    0.0000 O   0  0  0  0  0  0  0  0  0  0  0  0
    3.5000    0.9324    0.0000 O   0  0  0  0  0  0  0  0  0  0  0  0
    6.5000   -0.7997    0.0000 O   0  0  0  0  0  0  0  0  0  0  0  0
    5.0000    0.0664    0.0000 N   0  0  0  0  0  0  0  0  0  0  0  0
    5.0000   -1.6657    0.0000 N   0  0  0  0  0  0  0  0  0  0  0  0
    8.0388    1.4324    0.0000 C   0  0  2  0  0  0  0  0  0  0  0  0
    7.0878    1.7414    0.0000 C   0  0  2  0  0  0  0  0  0  0  0  0
    6.5000    0.9324    0.0000 C   0  0  3  0  0  0  0  0  0  0  0  0
    8.0388    0.4324    0.0000 C   0  0  2  0  0  0  0  0  0  0  0  0
    5.5000    0.9324    0.0000 C   0  0  2  0  0  0  0  0  0  0  0  0
    9.5687    0.9324    0.0000 C   0  0  0  0  0  0  0  0  0  0  0  0
    5.0000    1.7984    0.0000 C   0  0  0  0  0  0  0  0  0  0  0  0
   10.3777    0.3446    0.0000 C   0  0  0  0  0  0  0  0  0  0  0  0
   10.3777    1.5202    0.0000 C   0  0  0  0  0  0  0  0  0  0  0  0
    7.4479    3.4356    0.0000 C   0  0  0  0  0  0  0  0  0  0  0  0
    4.0000    1.7984    0.0000 C   0  0  0  0  0  0  0  0  0  0  0  0
    5.5000   -0.7997    0.0000 C   0  0  0  0  0  0  0  0  0  0  0  0
    7.1389    4.3867    0.0000 C   0  0  0  0  0  0  0  0  0  0  0  0
    8.4260    3.2277    0.0000 C   0  0  0  0  0  0  0  0  0  0  0  0
    7.8080    5.1298    0.0000 C   0  0  0  0  0  0  0  0  0  0  0  0
    9.0952    3.9708    0.0000 C   0  0  0  0  0  0  0  0  0  0  0  0
    2.5000    2.6644    0.0000 C   0  0  0  0  0  0  0  0  0  0  0  0
    8.7862    4.9219    0.0000 C   0  0  0  0  0  0  0  0  0  0  0  0
    5.5000   -2.5317    0.0000 C   0  0  0  0  0  0  0  0  0  0  0  0
    2.0000    3.5305    0.0000 C   0  0  0  0  0  0  0  0  0  0  0  0
    6.5000   -2.5317    0.0000 C   0  0  0  0  0  0  0  0  0  0  0  0
    5.0000   -3.3978    0.0000 C   0  0  0  0  0  0  0  0  0  0  0  0
    7.0000   -3.3978    0.0000 C   0  0  0  0  0  0  0  0  0  0  0  0
    5.5000   -4.2638    0.0000 C   0  0  0  0  0  0  0  0  0  0  0  0
    6.5000   -4.2638    0.0000 C   0  0  0  0  0  0  0  0  0  0  0  0
    8.0399    2.2824    0.0000 H   0  0  0  0  0  0  0  0  0  0  0  0
    7.5262    2.1798    0.0000 H   0  0  0  0  0  0  0  0  0  0  0  0
    7.1200    0.9324    0.0000 H   0  0  0  0  0  0  0  0  0  0  0  0
    8.0399   -0.4176    0.0000 H   0  0  0  0  0  0  0  0  0  0  0  0
    5.8100    0.3954    0.0000 H   0  0  0  0  0  0  0  0  0  0  0  0
    5.5826    2.0105    0.0000 H   0  0  0  0  0  0  0  0  0  0  0  0
    4.8923    2.4090    0.0000 H   0  0  0  0  0  0  0  0  0  0  0  0
   10.0133   -0.1570    0.0000 H   0  0  0  0  0  0  0  0  0  0  0  0
   10.8793   -0.0198    0.0000 H   0  0  0  0  0  0  0  0  0  0  0  0
   10.7421    0.8462    0.0000 H   0  0  0  0  0  0  0  0  0  0  0  0
   10.7421    1.0186    0.0000 H   0  0  0  0  0  0  0  0  0  0  0  0
   10.8793    1.8846    0.0000 H   0  0  0  0  0  0  0  0  0  0  0  0
   10.0133    2.0218    0.0000 H   0  0  0  0  0  0  0  0  0  0  0  0
    4.3800    0.0664    0.0000 H   0  0  0  0  0  0  0  0  0  0  0  0
    6.5324    4.5156    0.0000 H   0  0  0  0  0  0  0  0  0  0  0  0
    8.6176    2.6380    0.0000 H   0  0  0  0  0  0  0  0  0  0  0  0
    4.3800   -1.6657    0.0000 H   0  0  0  0  0  0  0  0  0  0  0  0
    7.6164    5.7194    0.0000 H   0  0  0  0  0  0  0  0  0  0  0  0
    9.7016    3.8419    0.0000 H   0  0  0  0  0  0  0  0  0  0  0  0
    1.9174    2.4524    0.0000 H   0  0  0  0  0  0  0  0  0  0  0  0
    2.6077    2.0538    0.0000 H   0  0  0  0  0  0  0  0  0  0  0  0
    9.2010    5.3826    0.0000 H   0  0  0  0  0  0  0  0  0  0  0  0
    2.5369    3.8405    0.0000 H   0  0  0  0  0  0  0  0  0  0  0  0
    1.6900    4.0674    0.0000 H   0  0  0  0  0  0  0  0  0  0  0  0
    1.4631    3.2205    0.0000 H   0  0  0  0  0  0  0  0  0  0  0  0
    6.8100   -1.9948    0.0000 H   0  0  0  0  0  0  0  0  0  0  0  0
    4.3800   -3.3978    0.0000 H   0  0  0  0  0  0  0  0  0  0  0  0
    7.6200   -3.3978    0.0000 H   0  0  0  0  0  0  0  0  0  0  0  0
    5.1900   -4.8007    0.0000 H   0  0  0  0  0  0  0  0  0  0  0  0
  1 35  1  0  0  0  0
  2 13  1  0  0  0  0
  2 14  1  0  0  0  0
  3 11  1  0  0  0  0
  3 16  1  0  0  0  0
  4 14  1  0  0  0  0
  4 16  1  0  0  0  0
 12  5  1  6  0  0  0
  5 20  1  0  0  0  0
  6 21  1  0  0  0  0
  6 27  1  0  0  0  0
  7 21  2  0  0  0  0
  8 22  2  0  0  0  0
 15  9  1  1  0  0  0
  9 22  1  0  0  0  0
  9 49  1  0  0  0  0
 10 22  1  0  0  0  0
 10 29  1  0  0  0  0
 10 52  1  0  0  0  0
 11 12  1  0  0  0  0
 11 14  1  0  0  0  0
 11 36  1  6  0  0  0
 12 13  1  0  0  0  0
 12 37  1  0  0  0  0
 13 15  1  0  0  0  0
 13 38  1  0  0  0  0
 14 39  1  6  0  0  0
 15 17  1  0  0  0  0
 15 40  1  0  0  0  0
 16 18  1  0  0  0  0
 16 19  1  0  0  0  0
 17 21  1  0  0  0  0
 17 41  1  0  0  0  0
 17 42  1  0  0  0  0
 18 43  1  0  0  0  0
 18 44  1  0  0  0  0
 18 45  1  0  0  0  0
 19 46  1  0  0  0  0
 19 47  1  0  0  0  0
 19 48  1  0  0  0  0
 20 23  2  0  0  0  0
 20 24  1  0  0  0  0
 23 25  1  0  0  0  0
 23 50  1  0  0  0  0
 24 26  2  0  0  0  0
 24 51  1  0  0  0  0
 25 28  2  0  0  0  0
 25 53  1  0  0  0  0
 26 28  1  0  0  0  0
 26 54  1  0  0  0  0
 27 30  1  0  0  0  0
 27 55  1  0  0  0  0
 27 56  1  0  0  0  0
 28 57  1  0  0  0  0
 29 31  2  0  0  0  0
 29 32  1  0  0  0  0
 30 58  1  0  0  0  0
 30 59  1  0  0  0  0
 30 60  1  0  0  0  0
 31 33  1  0  0  0  0
 31 61  1  0  0  0  0
 32 34  2  0  0  0  0
 32 62  1  0  0  0  0
 33 35  2  0  0  0  0
 33 63  1  0  0  0  0
 34 35  1  0  0  0  0
 34 64  1  0  0  0  0
M  END
> <PUBCHEM_COMPOUND_CID>
508350
> <PUBCHEM_COMPOUND_CANONICALIZED>
1
> <PUBCHEM_CACTVS_COMPLEXITY>
725
> <PUBCHEM_CACTVS_HBOND_ACCEPTOR>
7
> <PUBCHEM_CACTVS_HBOND_DONOR>
2
> <PUBCHEM_CACTVS_ROTATABLE_BOND>
9
> <PUBCHEM_CACTVS_SUBSKEYS>
AAADceB7OAAEAAAAAAAAAAAAAAAAASJAAAAwYAAAAAASAAABQAAAHgIQAAAACD7xkCczzoLABACIACTSWACCCAAhJwAIiIEOboifJjrFs5unOCjv1hNe6Cf6/C/AAABAAAAAAAAAAIAAAAAAAAAAAAAAAA==
> <PUBCHEM_IUPAC_OPENEYE_NAME>
ethyl (3S)-3-[(3aR,6S,6aR)-2,2-dimethyl-6-phenoxy-3a,5,6,6a-tetrahydrofuro[2,3-d][1,3]dioxol-5-yl]-3-[(4-chlorophenyl)carbamoylamino]propanoate
> <PUBCHEM_IUPAC_CAS_NAME>
(3S)-3-[(3aR,6S,6aR)-2,2-dimethyl-6-phenoxy-3a,5,6,6a-tetrahydrofuro[2,3-d][1,3]dioxol-5-yl]-3-[[(4-chloroanilino)-oxomethyl]amino]propanoic acid ethyl ester
> <PUBCHEM_IUPAC_NAME_MARKUP>
ethyl (3<I>S</I>)-3-[(3<I>a</I><I>R</I>,6<I>S</I>,6<I>a</I><I>R</I>)-2,2-dimethyl-6-phenoxy-3<I>a</I>,5,6,6<I>a</I>-tetrahydrofuro[2,3-d][1,3]dioxol-5-yl]-3-[(4-chlorophenyl)carbamoylamino]propanoate
> <PUBCHEM_IUPAC_NAME>
ethyl (3S)-3-[(3aR,6S,6aR)-2,2-dimethyl-6-phenoxy-3a,5,6,6a-tetrahydrofuro[2,3-d][1,3]dioxol-5-yl]-3-[(4-chlorophenyl)carbamoylamino]propanoate
> <PUBCHEM_IUPAC_SYSTEMATIC_NAME>
ethyl (3S)-3-[(3aR,6S,6aR)-2,2-dimethyl-6-phenoxy-3a,5,6,6a-tetrahydrofuro[2,3-d][1,3]dioxol-5-yl]-3-[(4-chlorophenyl)carbamoylamino]propanoate
> <PUBCHEM_IUPAC_TRADITIONAL_NAME>
(3S)-3-[(3aR,6S,6aR)-2,2-dimethyl-6-phenoxy-3a,5,6,6a-tetrahydrofuro[2,3-d][1,3]dioxol-5-yl]-3-[(4-chlorophenyl)carbamoylamino]propionic acid ethyl ester
> <PUBCHEM_IUPAC_INCHI>
InChI=1S/C25H29ClN2O7/c1-4-31-19(29)14-18(28-24(30)27-16-12-10-15(26)11-13-16)20-21(32-17-8-6-5-7-9-17)22-23(33-20)35-25(2,3)34-22/h5-13,18,20-23H,4,14H2,1-3H3,(H2,27,28,30)/t18-,20?,21-,22+,23+/m0/s1
> <PUBCHEM_IUPAC_INCHIKEY>
UXSRWWPAMXVZPE-XKYYZAJSSA-N
> <PUBCHEM_XLOGP3_AA>
3.7
> <PUBCHEM_EXACT_MASS>
504.1663290
> <PUBCHEM_MOLECULAR_FORMULA>
C25H29ClN2O7
> <PUBCHEM_MOLECULAR_WEIGHT>
505.0
> <PUBCHEM_OPENEYE_CAN_SMILES>
CCOC(=O)CC(C1C(C2C(O1)OC(O2)(C)C)OC3=CC=CC=C3)NC(=O)NC4=CC=C(C=C4)Cl
> <PUBCHEM_OPENEYE_ISO_SMILES>
CCOC(=O)C[C@@H](C1[C@@H]([C@@H]2[C@H](O1)OC(O2)(C)C)OC3=CC=CC=C3)NC(=O)NC4=CC=C(C=C4)Cl
> <PUBCHEM_CACTVS_TPSA>
104
> <PUBCHEM_MONOISOTOPIC_WEIGHT>
504.1663290
> <PUBCHEM_TOTAL_CHARGE>
0
> <PUBCHEM_HEAVY_ATOM_COUNT>
35
> <PUBCHEM_ATOM_DEF_STEREO_COUNT>
4
> <PUBCHEM_ATOM_UDEF_STEREO_COUNT>
1
> <PUBCHEM_BOND_DEF_STEREO_COUNT>
0
> <PUBCHEM_BOND_UDEF_STEREO_COUNT>
0
> <PUBCHEM_ISOTOPIC_ATOM_COUNT>
0
> <PUBCHEM_COMPONENT_COUNT>
1
> <PUBCHEM_CACTVS_TAUTO_COUNT>
-1
> <PUBCHEM_COORDINATE_TYPE>
1
5
255
> <PUBCHEM_BONDANNOTATIONS>
11  36  6
14  39  6
13  2  3
20  23  8
20  24  8
23  25  8
24  26  8
25  28  8
26  28  8
29  31  8
29  32  8
31  33  8
32  34  8
33  35  8
34  35  8
12  5  6
15  9  5
$$$$
