508345
  -OEChem-10302200282D
 81 83  0     1  0  0  0  0  0999 V2000
    9.5878    0.9230    0.0000 O   0  0  0  0  0  0  0  0  0  0  0  0
   11.4851    2.5368    0.0000 O   0  0  0  0  0  0  0  0  0  0  0  0
   11.4851    0.9273    0.0000 O   0  0  0  0  0  0  0  0  0  0  0  0
    9.2788    3.4921    0.0000 O   0  0  0  0  0  0  0  0  0  0  0  0
    6.0000    3.4641    0.0000 O   0  0  0  0  0  0  0  0  0  0  0  0
    9.0000   -0.0000    0.0000 O   0  0  0  0  0  0  0  0  0  0  0  0
    6.0000    1.7320    0.0000 O   0  0  0  0  0  0  0  0  0  0  0  0
    7.5000    0.8660    0.0000 N   0  0  0  0  0  0  0  0  0  0  0  0
    7.5000   -0.8660    0.0000 N   0  0  0  0  0  0  0  0  0  0  0  0
   10.5388    2.2320    0.0000 C   0  0  2  0  0  0  0  0  0  0  0  0
    9.0000    1.7320    0.0000 C   0  0  3  0  0  0  0  0  0  0  0  0
    9.5878    2.5411    0.0000 C   0  0  2  0  0  0  0  0  0  0  0  0
   10.5388    1.2320    0.0000 C   0  0  2  0  0  0  0  0  0  0  0  0
    8.0000    1.7320    0.0000 C   0  0  2  0  0  0  0  0  0  0  0  0
   12.0687    1.7320    0.0000 C   0  0  0  0  0  0  0  0  0  0  0  0
    7.5000    2.5981    0.0000 C   0  0  0  0  0  0  0  0  0  0  0  0
   12.8777    1.1443    0.0000 C   0  0  0  0  0  0  0  0  0  0  0  0
   12.8777    2.3198    0.0000 C   0  0  0  0  0  0  0  0  0  0  0  0
    6.5000    0.8660    0.0000 C   0  0  0  0  0  0  0  0  0  0  0  0
    8.0000   -0.0000    0.0000 C   0  0  0  0  0  0  0  0  0  0  0  0
    6.0000    0.0000    0.0000 C   0  0  0  0  0  0  0  0  0  0  0  0
    6.5000    2.5981    0.0000 C   0  0  0  0  0  0  0  0  0  0  0  0
    9.9479    4.2353    0.0000 C   0  0  0  0  0  0  0  0  0  0  0  0
    5.0000    0.0000    0.0000 C   0  0  0  0  0  0  0  0  0  0  0  0
    4.5000   -0.8660    0.0000 C   0  0  0  0  0  0  0  0  0  0  0  0
    3.5000   -0.8660    0.0000 C   0  0  0  0  0  0  0  0  0  0  0  0
    8.0000   -1.7320    0.0000 C   0  0  0  0  0  0  0  0  0  0  0  0
    5.0000    3.4641    0.0000 C   0  0  0  0  0  0  0  0  0  0  0  0
    3.0000   -1.7320    0.0000 C   0  0  0  0  0  0  0  0  0  0  0  0
    7.5000   -2.5981    0.0000 C   0  0  0  0  0  0  0  0  0  0  0  0
    4.5000    4.3301    0.0000 C   0  0  0  0  0  0  0  0  0  0  0  0
    2.0000   -1.7320    0.0000 C   0  0  0  0  0  0  0  0  0  0  0  0
    8.0000   -3.4641    0.0000 C   0  0  0  0  0  0  0  0  0  0  0  0
    6.5000   -2.5981    0.0000 C   0  0  0  0  0  0  0  0  0  0  0  0
    7.5000   -4.3301    0.0000 C   0  0  0  0  0  0  0  0  0  0  0  0
    6.0000   -3.4641    0.0000 C   0  0  0  0  0  0  0  0  0  0  0  0
    6.5000   -4.3301    0.0000 C   0  0  0  0  0  0  0  0  0  0  0  0
   10.5399    3.0820    0.0000 H   0  0  0  0  0  0  0  0  0  0  0  0
    9.6200    1.7320    0.0000 H   0  0  0  0  0  0  0  0  0  0  0  0
   10.0262    2.9795    0.0000 H   0  0  0  0  0  0  0  0  0  0  0  0
   10.5399    0.3821    0.0000 H   0  0  0  0  0  0  0  0  0  0  0  0
    8.3100    1.1951    0.0000 H   0  0  0  0  0  0  0  0  0  0  0  0
    8.0826    2.8101    0.0000 H   0  0  0  0  0  0  0  0  0  0  0  0
    7.3923    3.2087    0.0000 H   0  0  0  0  0  0  0  0  0  0  0  0
   12.5133    0.6427    0.0000 H   0  0  0  0  0  0  0  0  0  0  0  0
   13.3793    0.7798    0.0000 H   0  0  0  0  0  0  0  0  0  0  0  0
   13.2421    1.6459    0.0000 H   0  0  0  0  0  0  0  0  0  0  0  0
   13.2421    1.8182    0.0000 H   0  0  0  0  0  0  0  0  0  0  0  0
   13.3793    2.6843    0.0000 H   0  0  0  0  0  0  0  0  0  0  0  0
   12.5133    2.8214    0.0000 H   0  0  0  0  0  0  0  0  0  0  0  0
    6.6077    1.4766    0.0000 H   0  0  0  0  0  0  0  0  0  0  0  0
    5.9174    1.0781    0.0000 H   0  0  0  0  0  0  0  0  0  0  0  0
    5.8923   -0.6106    0.0000 H   0  0  0  0  0  0  0  0  0  0  0  0
    6.5826   -0.2121    0.0000 H   0  0  0  0  0  0  0  0  0  0  0  0
   10.4086    3.8204    0.0000 H   0  0  0  0  0  0  0  0  0  0  0  0
   10.3628    4.6960    0.0000 H   0  0  0  0  0  0  0  0  0  0  0  0
    9.4872    4.6501    0.0000 H   0  0  0  0  0  0  0  0  0  0  0  0
    5.1077    0.6106    0.0000 H   0  0  0  0  0  0  0  0  0  0  0  0
    4.4174    0.2121    0.0000 H   0  0  0  0  0  0  0  0  0  0  0  0
    6.8800   -0.8660    0.0000 H   0  0  0  0  0  0  0  0  0  0  0  0
    4.3923   -1.4766    0.0000 H   0  0  0  0  0  0  0  0  0  0  0  0
    5.0826   -1.0781    0.0000 H   0  0  0  0  0  0  0  0  0  0  0  0
    3.6077   -0.2554    0.0000 H   0  0  0  0  0  0  0  0  0  0  0  0
    2.9174   -0.6540    0.0000 H   0  0  0  0  0  0  0  0  0  0  0  0
    8.4750   -2.1306    0.0000 H   0  0  0  0  0  0  0  0  0  0  0  0
    8.4750   -1.3335    0.0000 H   0  0  0  0  0  0  0  0  0  0  0  0
    4.4174    3.2520    0.0000 H   0  0  0  0  0  0  0  0  0  0  0  0
    5.1077    2.8535    0.0000 H   0  0  0  0  0  0  0  0  0  0  0  0
    2.8923   -2.3426    0.0000 H   0  0  0  0  0  0  0  0  0  0  0  0
    3.5826   -1.9441    0.0000 H   0  0  0  0  0  0  0  0  0  0  0  0
    5.0369    4.6401    0.0000 H   0  0  0  0  0  0  0  0  0  0  0  0
    4.1900    4.8671    0.0000 H   0  0  0  0  0  0  0  0  0  0  0  0
    3.9631    4.0201    0.0000 H   0  0  0  0  0  0  0  0  0  0  0  0
    2.0000   -1.1120    0.0000 H   0  0  0  0  0  0  0  0  0  0  0  0
    1.3800   -1.7320    0.0000 H   0  0  0  0  0  0  0  0  0  0  0  0
    2.0000   -2.3521    0.0000 H   0  0  0  0  0  0  0  0  0  0  0  0
    8.6200   -3.4641    0.0000 H   0  0  0  0  0  0  0  0  0  0  0  0
    6.1900   -2.0611    0.0000 H   0  0  0  0  0  0  0  0  0  0  0  0
    7.8100   -4.8671    0.0000 H   0  0  0  0  0  0  0  0  0  0  0  0
    5.3800   -3.4641    0.0000 H   0  0  0  0  0  0  0  0  0  0  0  0
    6.1900   -4.8671    0.0000 H   0  0  0  0  0  0  0  0  0  0  0  0
  1 11  1  0  0  0  0
  1 13  1  0  0  0  0
  2 10  1  0  0  0  0
  2 15  1  0  0  0  0
  3 13  1  0  0  0  0
  3 15  1  0  0  0  0
 12  4  1  6  0  0  0
  4 23  1  0  0  0  0
  5 22  1  0  0  0  0
  5 28  1  0  0  0  0
  6 20  2  0  0  0  0
  7 22  2  0  0  0  0
 14  8  1  1  0  0  0
  8 19  1  0  0  0  0
  8 20  1  0  0  0  0
  9 20  1  0  0  0  0
  9 27  1  0  0  0  0
  9 60  1  0  0  0  0
 10 12  1  0  0  0  0
 10 13  1  0  0  0  0
 10 38  1  6  0  0  0
 11 12  1  0  0  0  0
 11 14  1  0  0  0  0
 11 39  1  0  0  0  0
 12 40  1  0  0  0  0
 13 41  1  6  0  0  0
 14 16  1  0  0  0  0
 14 42  1  0  0  0  0
 15 17  1  0  0  0  0
 15 18  1  0  0  0  0
 16 22  1  0  0  0  0
 16 43  1  0  0  0  0
 16 44  1  0  0  0  0
 17 45  1  0  0  0  0
 17 46  1  0  0  0  0
 17 47  1  0  0  0  0
 18 48  1  0  0  0  0
 18 49  1  0  0  0  0
 18 50  1  0  0  0  0
 19 21  1  0  0  0  0
 19 51  1  0  0  0  0
 19 52  1  0  0  0  0
 21 24  1  0  0  0  0
 21 53  1  0  0  0  0
 21 54  1  0  0  0  0
 23 55  1  0  0  0  0
 23 56  1  0  0  0  0
 23 57  1  0  0  0  0
 24 25  1  0  0  0  0
 24 58  1  0  0  0  0
 24 59  1  0  0  0  0
 25 26  1  0  0  0  0
 25 61  1  0  0  0  0
 25 62  1  0  0  0  0
 26 29  1  0  0  0  0
 26 63  1  0  0  0  0
 26 64  1  0  0  0  0
 27 30  1  0  0  0  0
 27 65  1  0  0  0  0
 27 66  1  0  0  0  0
 28 31  1  0  0  0  0
 28 67  1  0  0  0  0
 28 68  1  0  0  0  0
 29 32  1  0  0  0  0
 29 69  1  0  0  0  0
 29 70  1  0  0  0  0
 30 33  2  0  0  0  0
 30 34  1  0  0  0  0
 31 71  1  0  0  0  0
 31 72  1  0  0  0  0
 31 73  1  0  0  0  0
 32 74  1  0  0  0  0
 32 75  1  0  0  0  0
 32 76  1  0  0  0  0
 33 35  1  0  0  0  0
 33 77  1  0  0  0  0
 34 36  2  0  0  0  0
 34 78  1  0  0  0  0
 35 37  2  0  0  0  0
 35 79  1  0  0  0  0
 36 37  1  0  0  0  0
 36 80  1  0  0  0  0
 37 81  1  0  0  0  0
M  END
> <PUBCHEM_COMPOUND_CID>
508345
> <PUBCHEM_COMPOUND_CANONICALIZED>
1
> <PUBCHEM_CACTVS_COMPLEXITY>
713
> <PUBCHEM_CACTVS_HBOND_ACCEPTOR>
7
> <PUBCHEM_CACTVS_HBOND_DONOR>
1
> <PUBCHEM_CACTVS_ROTATABLE_BOND>
15
> <PUBCHEM_CACTVS_SUBSKEYS>
AAADcfB7OAAAAAAAAAAAAAAAAAAAASJAAAAwAAAAAAASAAABAAAAHgAQAAAADDzxmAczCIPABACIAiDSGACCAAAgAAAIiIEIBIibIDqAkRGnIAhvhgKeiAf6/C/OAAAAAAAAAAAAAAAAAAAAAAAAAAAAAA==
> <PUBCHEM_IUPAC_OPENEYE_NAME>
ethyl (3S)-3-[(3aR,6S,6aR)-6-methoxy-2,2-dimethyl-3a,5,6,6a-tetrahydrofuro[2,3-d][1,3]dioxol-5-yl]-3-[benzylcarbamoyl(heptyl)amino]propanoate
> <PUBCHEM_IUPAC_CAS_NAME>
(3S)-3-[(3aR,6S,6aR)-6-methoxy-2,2-dimethyl-3a,5,6,6a-tetrahydrofuro[2,3-d][1,3]dioxol-5-yl]-3-[heptyl-[oxo-[(phenylmethyl)amino]methyl]amino]propanoic acid ethyl ester
> <PUBCHEM_IUPAC_NAME_MARKUP>
ethyl (3<I>S</I>)-3-[(3<I>a</I><I>R</I>,6<I>S</I>,6<I>a</I><I>R</I>)-6-methoxy-2,2-dimethyl-3<I>a</I>,5,6,6<I>a</I>-tetrahydrofuro[2,3-d][1,3]dioxol-5-yl]-3-[benzylcarbamoyl(heptyl)amino]propanoate
> <PUBCHEM_IUPAC_NAME>
ethyl (3S)-3-[(3aR,6S,6aR)-6-methoxy-2,2-dimethyl-3a,5,6,6a-tetrahydrofuro[2,3-d][1,3]dioxol-5-yl]-3-[benzylcarbamoyl(heptyl)amino]propanoate
> <PUBCHEM_IUPAC_SYSTEMATIC_NAME>
ethyl (3S)-3-[(3aR,6S,6aR)-6-methoxy-2,2-dimethyl-3a,5,6,6a-tetrahydrofuro[2,3-d][1,3]dioxol-5-yl]-3-[heptyl-[(phenylmethyl)carbamoyl]amino]propanoate
> <PUBCHEM_IUPAC_TRADITIONAL_NAME>
(3S)-3-[(3aR,6S,6aR)-6-methoxy-2,2-dimethyl-3a,5,6,6a-tetrahydrofuro[2,3-d][1,3]dioxol-5-yl]-3-[benzylcarbamoyl(heptyl)amino]propionic acid ethyl ester
> <PUBCHEM_IUPAC_INCHI>
InChI=1S/C28H44N2O7/c1-6-8-9-10-14-17-30(27(32)29-19-20-15-12-11-13-16-20)21(18-22(31)34-7-2)23-24(33-5)25-26(35-23)37-28(3,4)36-25/h11-13,15-16,21,23-26H,6-10,14,17-19H2,1-5H3,(H,29,32)/t21-,23?,24-,25+,26+/m0/s1
> <PUBCHEM_IUPAC_INCHIKEY>
NNISZCBKRHTXSI-VARAPWLTSA-N
> <PUBCHEM_XLOGP3_AA>
4.2
> <PUBCHEM_EXACT_MASS>
520.31485175
> <PUBCHEM_MOLECULAR_FORMULA>
C28H44N2O7
> <PUBCHEM_MOLECULAR_WEIGHT>
520.7
> <PUBCHEM_OPENEYE_CAN_SMILES>
CCCCCCCN(C(CC(=O)OCC)C1C(C2C(O1)OC(O2)(C)C)OC)C(=O)NCC3=CC=CC=C3
> <PUBCHEM_OPENEYE_ISO_SMILES>
CCCCCCCN([C@@H](CC(=O)OCC)C1[C@@H]([C@@H]2[C@H](O1)OC(O2)(C)C)OC)C(=O)NCC3=CC=CC=C3
> <PUBCHEM_CACTVS_TPSA>
95.6
> <PUBCHEM_MONOISOTOPIC_WEIGHT>
520.31485175
> <PUBCHEM_TOTAL_CHARGE>
0
> <PUBCHEM_HEAVY_ATOM_COUNT>
37
> <PUBCHEM_ATOM_DEF_STEREO_COUNT>
4
> <PUBCHEM_ATOM_UDEF_STEREO_COUNT>
1
> <PUBCHEM_BOND_DEF_STEREO_COUNT>
0
> <PUBCHEM_BOND_UDEF_STEREO_COUNT>
0
> <PUBCHEM_ISOTOPIC_ATOM_COUNT>
0
> <PUBCHEM_COMPONENT_COUNT>
1
> <PUBCHEM_CACTVS_TAUTO_COUNT>
-1
> <PUBCHEM_COORDINATE_TYPE>
1
5
255
> <PUBCHEM_BONDANNOTATIONS>
11  1  3
10  38  6
13  41  6
30  33  8
30  34  8
33  35  8
34  36  8
35  37  8
36  37  8
12  4  6
14  8  5
$$$$
