508310
  -OEChem-10302200282D
 90 91  0     1  0  0  0  0  0999 V2000
    4.5981   -2.2500    0.0000 S   0  0  0  0  0  0  0  0  0  0  0  0
    4.5981    0.7500    0.0000 O   0  0  0  0  0  0  0  0  0  0  0  0
    4.5981    1.7500    0.0000 O   0  0  0  0  0  0  0  0  0  0  0  0
    5.5981   -2.2500    0.0000 O   0  0  0  0  0  0  0  0  0  0  0  0
    3.5981   -2.2500    0.0000 O   0  0  0  0  0  0  0  0  0  0  0  0
    5.4641    5.2500    0.0000 O   0  0  0  0  0  0  0  0  0  0  0  0
    4.5981   -6.2500    0.0000 O   0  0  0  0  0  0  0  0  0  0  0  0
    4.5981   -1.2500    0.0000 N   0  0  3  0  0  0  0  0  0  0  0  0
    6.3301    1.7500    0.0000 N   0  0  0  0  0  0  0  0  0  0  0  0
    4.5981    3.7500    0.0000 N   0  0  0  0  0  0  0  0  0  0  0  0
    3.7320    6.2500    0.0000 N   0  0  0  0  0  0  0  0  0  0  0  0
    6.3301    0.7500    0.0000 C   0  0  2  0  0  0  0  0  0  0  0  0
    5.4641    0.2500    0.0000 C   0  0  1  0  0  0  0  0  0  0  0  0
    5.4641   -0.7500    0.0000 C   0  0  0  0  0  0  0  0  0  0  0  0
    7.1962    0.2500    0.0000 C   0  0  0  0  0  0  0  0  0  0  0  0
    5.4641    3.2500    0.0000 C   0  0  1  0  0  0  0  0  0  0  0  0
    6.3301    3.7500    0.0000 C   0  0  3  0  0  0  0  0  0  0  0  0
    3.7320   -0.7500    0.0000 C   0  0  0  0  0  0  0  0  0  0  0  0
    2.8660   -1.2500    0.0000 C   0  0  0  0  0  0  0  0  0  0  0  0
    5.4641    2.2500    0.0000 C   0  0  0  0  0  0  0  0  0  0  0  0
    6.3301    4.7500    0.0000 C   0  0  0  0  0  0  0  0  0  0  0  0
    8.0622    0.7500    0.0000 C   0  0  0  0  0  0  0  0  0  0  0  0
    7.1962    3.2500    0.0000 C   0  0  0  0  0  0  0  0  0  0  0  0
    4.5981   -3.2500    0.0000 C   0  0  0  0  0  0  0  0  0  0  0  0
    2.0000   -0.7500    0.0000 C   0  0  0  0  0  0  0  0  0  0  0  0
    2.8660   -2.2500    0.0000 C   0  0  0  0  0  0  0  0  0  0  0  0
    7.1962    5.2500    0.0000 C   0  0  0  0  0  0  0  0  0  0  0  0
    8.0622    1.7500    0.0000 C   0  0  0  0  0  0  0  0  0  0  0  0
    8.9282    0.2500    0.0000 C   0  0  0  0  0  0  0  0  0  0  0  0
    4.5981    4.7500    0.0000 C   0  0  0  0  0  0  0  0  0  0  0  0
    3.7320   -3.7500    0.0000 C   0  0  0  0  0  0  0  0  0  0  0  0
    5.4641   -3.7500    0.0000 C   0  0  0  0  0  0  0  0  0  0  0  0
    3.7320    5.2500    0.0000 C   0  0  0  0  0  0  0  0  0  0  0  0
    8.9282    2.2500    0.0000 C   0  0  0  0  0  0  0  0  0  0  0  0
    9.7942    0.7500    0.0000 C   0  0  0  0  0  0  0  0  0  0  0  0
    9.7942    1.7500    0.0000 C   0  0  0  0  0  0  0  0  0  0  0  0
    3.7320   -4.7500    0.0000 C   0  0  0  0  0  0  0  0  0  0  0  0
    5.4641   -4.7500    0.0000 C   0  0  0  0  0  0  0  0  0  0  0  0
    4.5981   -5.2500    0.0000 C   0  0  0  0  0  0  0  0  0  0  0  0
    2.8660    6.7500    0.0000 C   0  0  0  0  0  0  0  0  0  0  0  0
    4.5981    6.7500    0.0000 C   0  0  0  0  0  0  0  0  0  0  0  0
    3.7320   -6.7500    0.0000 C   0  0  0  0  0  0  0  0  0  0  0  0
    6.8671    1.0600    0.0000 H   0  0  0  0  0  0  0  0  0  0  0  0
    5.4641    0.8700    0.0000 H   0  0  0  0  0  0  0  0  0  0  0  0
    5.6762   -1.3326    0.0000 H   0  0  0  0  0  0  0  0  0  0  0  0
    6.0747   -0.6423    0.0000 H   0  0  0  0  0  0  0  0  0  0  0  0
    6.7976   -0.2249    0.0000 H   0  0  0  0  0  0  0  0  0  0  0  0
    7.5947   -0.2249    0.0000 H   0  0  0  0  0  0  0  0  0  0  0  0
    5.4641    3.8700    0.0000 H   0  0  0  0  0  0  0  0  0  0  0  0
    6.8671    4.0600    0.0000 H   0  0  0  0  0  0  0  0  0  0  0  0
    4.1306   -0.2751    0.0000 H   0  0  0  0  0  0  0  0  0  0  0  0
    3.3335   -0.2751    0.0000 H   0  0  0  0  0  0  0  0  0  0  0  0
    6.8671    2.0600    0.0000 H   0  0  0  0  0  0  0  0  0  0  0  0
    2.8660   -0.6300    0.0000 H   0  0  0  0  0  0  0  0  0  0  0  0
    6.1181    5.3326    0.0000 H   0  0  0  0  0  0  0  0  0  0  0  0
    5.7196    4.6423    0.0000 H   0  0  0  0  0  0  0  0  0  0  0  0
    6.8862    2.7131    0.0000 H   0  0  0  0  0  0  0  0  0  0  0  0
    7.7331    2.9400    0.0000 H   0  0  0  0  0  0  0  0  0  0  0  0
    7.5062    3.7869    0.0000 H   0  0  0  0  0  0  0  0  0  0  0  0
    4.0611    3.4400    0.0000 H   0  0  0  0  0  0  0  0  0  0  0  0
    4.0611    0.4400    0.0000 H   0  0  0  0  0  0  0  0  0  0  0  0
    2.3100   -0.2131    0.0000 H   0  0  0  0  0  0  0  0  0  0  0  0
    1.4631   -0.4400    0.0000 H   0  0  0  0  0  0  0  0  0  0  0  0
    1.6900   -1.2869    0.0000 H   0  0  0  0  0  0  0  0  0  0  0  0
    2.2460   -2.2500    0.0000 H   0  0  0  0  0  0  0  0  0  0  0  0
    2.8660   -2.8700    0.0000 H   0  0  0  0  0  0  0  0  0  0  0  0
    3.4860   -2.2500    0.0000 H   0  0  0  0  0  0  0  0  0  0  0  0
    7.5062    4.7131    0.0000 H   0  0  0  0  0  0  0  0  0  0  0  0
    7.7331    5.5600    0.0000 H   0  0  0  0  0  0  0  0  0  0  0  0
    6.8862    5.7869    0.0000 H   0  0  0  0  0  0  0  0  0  0  0  0
    7.5252    2.0600    0.0000 H   0  0  0  0  0  0  0  0  0  0  0  0
    8.9282   -0.3700    0.0000 H   0  0  0  0  0  0  0  0  0  0  0  0
    3.1951   -3.4400    0.0000 H   0  0  0  0  0  0  0  0  0  0  0  0
    6.0010   -3.4400    0.0000 H   0  0  0  0  0  0  0  0  0  0  0  0
    3.1215    5.3577    0.0000 H   0  0  0  0  0  0  0  0  0  0  0  0
    3.5200    4.6674    0.0000 H   0  0  0  0  0  0  0  0  0  0  0  0
    8.9282    2.8700    0.0000 H   0  0  0  0  0  0  0  0  0  0  0  0
   10.3312    0.4400    0.0000 H   0  0  0  0  0  0  0  0  0  0  0  0
   10.3312    2.0600    0.0000 H   0  0  0  0  0  0  0  0  0  0  0  0
    3.1951   -5.0600    0.0000 H   0  0  0  0  0  0  0  0  0  0  0  0
    6.0010   -5.0600    0.0000 H   0  0  0  0  0  0  0  0  0  0  0  0
    3.1760    7.2869    0.0000 H   0  0  0  0  0  0  0  0  0  0  0  0
    2.3291    7.0600    0.0000 H   0  0  0  0  0  0  0  0  0  0  0  0
    2.5560    6.2131    0.0000 H   0  0  0  0  0  0  0  0  0  0  0  0
    4.9081    6.2131    0.0000 H   0  0  0  0  0  0  0  0  0  0  0  0
    5.1350    7.0600    0.0000 H   0  0  0  0  0  0  0  0  0  0  0  0
    4.2881    7.2869    0.0000 H   0  0  0  0  0  0  0  0  0  0  0  0
    3.4220   -6.2131    0.0000 H   0  0  0  0  0  0  0  0  0  0  0  0
    3.1951   -7.0600    0.0000 H   0  0  0  0  0  0  0  0  0  0  0  0
    4.0420   -7.2869    0.0000 H   0  0  0  0  0  0  0  0  0  0  0  0
  1  4  2  0  0  0  0
  1  5  2  0  0  0  0
  1  8  1  0  0  0  0
  1 24  1  0  0  0  0
 13  2  1  1  0  0  0
  2 61  1  0  0  0  0
  3 20  2  0  0  0  0
  6 30  2  0  0  0  0
  7 39  1  0  0  0  0
  7 42  1  0  0  0  0
  8 14  1  0  0  0  0
  8 18  1  0  0  0  0
 12  9  1  1  0  0  0
  9 20  1  0  0  0  0
  9 53  1  0  0  0  0
 16 10  1  1  0  0  0
 10 30  1  0  0  0  0
 10 60  1  0  0  0  0
 11 33  1  0  0  0  0
 11 40  1  0  0  0  0
 11 41  1  0  0  0  0
 12 13  1  0  0  0  0
 12 15  1  0  0  0  0
 12 43  1  0  0  0  0
 13 14  1  0  0  0  0
 13 44  1  0  0  0  0
 14 45  1  0  0  0  0
 14 46  1  0  0  0  0
 15 22  1  0  0  0  0
 15 47  1  0  0  0  0
 15 48  1  0  0  0  0
 16 17  1  0  0  0  0
 16 20  1  0  0  0  0
 16 49  1  0  0  0  0
 17 21  1  0  0  0  0
 17 23  1  0  0  0  0
 17 50  1  0  0  0  0
 18 19  1  0  0  0  0
 18 51  1  0  0  0  0
 18 52  1  0  0  0  0
 19 25  1  0  0  0  0
 19 26  1  0  0  0  0
 19 54  1  0  0  0  0
 21 27  1  0  0  0  0
 21 55  1  0  0  0  0
 21 56  1  0  0  0  0
 22 28  2  0  0  0  0
 22 29  1  0  0  0  0
 23 57  1  0  0  0  0
 23 58  1  0  0  0  0
 23 59  1  0  0  0  0
 24 31  2  0  0  0  0
 24 32  1  0  0  0  0
 25 62  1  0  0  0  0
 25 63  1  0  0  0  0
 25 64  1  0  0  0  0
 26 65  1  0  0  0  0
 26 66  1  0  0  0  0
 26 67  1  0  0  0  0
 27 68  1  0  0  0  0
 27 69  1  0  0  0  0
 27 70  1  0  0  0  0
 28 34  1  0  0  0  0
 28 71  1  0  0  0  0
 29 35  2  0  0  0  0
 29 72  1  0  0  0  0
 30 33  1  0  0  0  0
 31 37  1  0  0  0  0
 31 73  1  0  0  0  0
 32 38  2  0  0  0  0
 32 74  1  0  0  0  0
 33 75  1  0  0  0  0
 33 76  1  0  0  0  0
 34 36  2  0  0  0  0
 34 77  1  0  0  0  0
 35 36  1  0  0  0  0
 35 78  1  0  0  0  0
 36 79  1  0  0  0  0
 37 39  2  0  0  0  0
 37 80  1  0  0  0  0
 38 39  1  0  0  0  0
 38 81  1  0  0  0  0
 40 82  1  0  0  0  0
 40 83  1  0  0  0  0
 40 84  1  0  0  0  0
 41 85  1  0  0  0  0
 41 86  1  0  0  0  0
 41 87  1  0  0  0  0
 42 88  1  0  0  0  0
 42 89  1  0  0  0  0
 42 90  1  0  0  0  0
M  END
> <PUBCHEM_COMPOUND_CID>
508310
> <PUBCHEM_COMPOUND_CANONICALIZED>
1
> <PUBCHEM_CACTVS_COMPLEXITY>
911
> <PUBCHEM_CACTVS_HBOND_ACCEPTOR>
8
> <PUBCHEM_CACTVS_HBOND_DONOR>
3
> <PUBCHEM_CACTVS_ROTATABLE_BOND>
17
> <PUBCHEM_CACTVS_SUBSKEYS>
AAADcfB7uABAAAAAAAAAAAAAAAAAAAAAAAAwYAAAAAAAAAABQAAAHgQQSAAADTzh2AYyB4PABgKIAiFSEHBCCBAgIAAIiJmOCIgOdjKE8TuUcCAk1hGYqAeYwKAOAIAAAAAAAAABAAAAAAAAAAAAAAAAAA==
> <PUBCHEM_IUPAC_OPENEYE_NAME>
(2S)-N-[(1S,2R)-1-benzyl-2-hydroxy-3-[isobutyl-(4-methoxyphenyl)sulfonyl-amino]propyl]-2-[[2-(dimethylamino)acetyl]amino]-3-methyl-pentanamide
> <PUBCHEM_IUPAC_CAS_NAME>
(2S)-2-[[2-(dimethylamino)-1-oxoethyl]amino]-N-[(2S,3R)-3-hydroxy-4-[(4-methoxyphenyl)sulfonyl-(2-methylpropyl)amino]-1-phenylbutan-2-yl]-3-methylpentanamide
> <PUBCHEM_IUPAC_NAME_MARKUP>
(2<I>S</I>)-2-[[2-(dimethylamino)acetyl]amino]-<I>N</I>-[(2<I>S</I>,3<I>R</I>)-3-hydroxy-4-[(4-methoxyphenyl)sulfonyl-(2-methylpropyl)amino]-1-phenylbutan-2-yl]-3-methylpentanamide
> <PUBCHEM_IUPAC_NAME>
(2S)-2-[[2-(dimethylamino)acetyl]amino]-N-[(2S,3R)-3-hydroxy-4-[(4-methoxyphenyl)sulfonyl-(2-methylpropyl)amino]-1-phenylbutan-2-yl]-3-methylpentanamide
> <PUBCHEM_IUPAC_SYSTEMATIC_NAME>
(2S)-2-[2-(dimethylamino)ethanoylamino]-N-[(2S,3R)-4-[(4-methoxyphenyl)sulfonyl-(2-methylpropyl)amino]-3-oxidanyl-1-phenyl-butan-2-yl]-3-methyl-pentanamide
> <PUBCHEM_IUPAC_TRADITIONAL_NAME>
(2S)-N-[(1S,2R)-1-benzyl-2-hydroxy-3-[isobutyl-(4-methoxyphenyl)sulfonyl-amino]propyl]-2-[[2-(dimethylamino)acetyl]amino]-3-methyl-valeramide
> <PUBCHEM_IUPAC_INCHI>
InChI=1S/C31H48N4O6S/c1-8-23(4)30(33-29(37)21-34(5)6)31(38)32-27(18-24-12-10-9-11-13-24)28(36)20-35(19-22(2)3)42(39,40)26-16-14-25(41-7)15-17-26/h9-17,22-23,27-28,30,36H,8,18-21H2,1-7H3,(H,32,38)(H,33,37)/t23?,27-,28+,30-/m0/s1
> <PUBCHEM_IUPAC_INCHIKEY>
PITNSPHZELRPBY-JZHHYDKJSA-N
> <PUBCHEM_XLOGP3_AA>
4.2
> <PUBCHEM_EXACT_MASS>
604.32945644
> <PUBCHEM_MOLECULAR_FORMULA>
C31H48N4O6S
> <PUBCHEM_MOLECULAR_WEIGHT>
604.8
> <PUBCHEM_OPENEYE_CAN_SMILES>
CCC(C)C(C(=O)NC(CC1=CC=CC=C1)C(CN(CC(C)C)S(=O)(=O)C2=CC=C(C=C2)OC)O)NC(=O)CN(C)C
> <PUBCHEM_OPENEYE_ISO_SMILES>
CCC(C)[C@@H](C(=O)N[C@@H](CC1=CC=CC=C1)[C@@H](CN(CC(C)C)S(=O)(=O)C2=CC=C(C=C2)OC)O)NC(=O)CN(C)C
> <PUBCHEM_CACTVS_TPSA>
137
> <PUBCHEM_MONOISOTOPIC_WEIGHT>
604.32945644
> <PUBCHEM_TOTAL_CHARGE>
0
> <PUBCHEM_HEAVY_ATOM_COUNT>
42
> <PUBCHEM_ATOM_DEF_STEREO_COUNT>
3
> <PUBCHEM_ATOM_UDEF_STEREO_COUNT>
1
> <PUBCHEM_BOND_DEF_STEREO_COUNT>
0
> <PUBCHEM_BOND_UDEF_STEREO_COUNT>
0
> <PUBCHEM_ISOTOPIC_ATOM_COUNT>
0
> <PUBCHEM_COMPONENT_COUNT>
1
> <PUBCHEM_CACTVS_TAUTO_COUNT>
-1
> <PUBCHEM_COORDINATE_TYPE>
1
5
255
> <PUBCHEM_BONDANNOTATIONS>
16  10  5
17  23  3
13  2  5
22  28  8
22  29  8
24  31  8
24  32  8
28  34  8
29  35  8
31  37  8
32  38  8
34  36  8
35  36  8
37  39  8
38  39  8
12  9  5
$$$$
