508325
  -OEChem-10302200282D
 90 91  0     1  0  0  0  0  0999 V2000
    3.7320   -0.7500    0.0000 S   0  0  0  0  0  0  0  0  0  0  0  0
    3.7320    2.2500    0.0000 O   0  0  0  0  0  0  0  0  0  0  0  0
    5.4641    0.2500    0.0000 O   0  0  0  0  0  0  0  0  0  0  0  0
    4.7320   -0.7500    0.0000 O   0  0  0  0  0  0  0  0  0  0  0  0
    2.7320   -0.7500    0.0000 O   0  0  0  0  0  0  0  0  0  0  0  0
    8.9282   -0.7500    0.0000 O   0  0  0  0  0  0  0  0  0  0  0  0
    3.7320   -4.7500    0.0000 O   0  0  0  0  0  0  0  0  0  0  0  0
    3.7320    0.2500    0.0000 N   0  0  3  0  0  0  0  0  0  0  0  0
    6.3301    1.7500    0.0000 N   0  0  0  0  0  0  0  0  0  0  0  0
    8.0622    0.7500    0.0000 N   0  0  0  0  0  0  0  0  0  0  0  0
   10.6603    0.2500    0.0000 N   0  0  0  0  0  0  0  0  0  0  0  0
    5.4641    2.2500    0.0000 C   0  0  2  0  0  0  0  0  0  0  0  0
    7.1962   -0.7500    0.0000 C   0  0  0  0  0  0  0  0  0  0  0  0
    4.5981    1.7500    0.0000 C   0  0  1  0  0  0  0  0  0  0  0  0
    7.1962    0.2500    0.0000 C   0  0  1  0  0  0  0  0  0  0  0  0
    4.5981    0.7500    0.0000 C   0  0  0  0  0  0  0  0  0  0  0  0
    2.8660    0.7500    0.0000 C   0  0  3  0  0  0  0  0  0  0  0  0
    5.4641    3.2500    0.0000 C   0  0  0  0  0  0  0  0  0  0  0  0
    6.3301    0.7500    0.0000 C   0  0  0  0  0  0  0  0  0  0  0  0
    7.1962   -1.7500    0.0000 C   0  0  0  0  0  0  0  0  0  0  0  0
    8.1962   -0.7500    0.0000 C   0  0  0  0  0  0  0  0  0  0  0  0
    6.1962   -0.7500    0.0000 C   0  0  0  0  0  0  0  0  0  0  0  0
    2.8660    1.7500    0.0000 C   0  0  0  0  0  0  0  0  0  0  0  0
    2.0000    0.2500    0.0000 C   0  0  0  0  0  0  0  0  0  0  0  0
    6.3301    3.7500    0.0000 C   0  0  0  0  0  0  0  0  0  0  0  0
    3.7320   -1.7500    0.0000 C   0  0  0  0  0  0  0  0  0  0  0  0
    2.0000    2.2500    0.0000 C   0  0  0  0  0  0  0  0  0  0  0  0
    8.9282    0.2500    0.0000 C   0  0  0  0  0  0  0  0  0  0  0  0
    7.1962    3.2500    0.0000 C   0  0  0  0  0  0  0  0  0  0  0  0
    6.3301    4.7500    0.0000 C   0  0  0  0  0  0  0  0  0  0  0  0
    9.7942    0.7500    0.0000 C   0  0  0  0  0  0  0  0  0  0  0  0
    2.8660   -2.2500    0.0000 C   0  0  0  0  0  0  0  0  0  0  0  0
    4.5981   -2.2500    0.0000 C   0  0  0  0  0  0  0  0  0  0  0  0
    8.0622    3.7500    0.0000 C   0  0  0  0  0  0  0  0  0  0  0  0
    7.1962    5.2500    0.0000 C   0  0  0  0  0  0  0  0  0  0  0  0
    2.8660   -3.2500    0.0000 C   0  0  0  0  0  0  0  0  0  0  0  0
    4.5981   -3.2500    0.0000 C   0  0  0  0  0  0  0  0  0  0  0  0
    8.0622    4.7500    0.0000 C   0  0  0  0  0  0  0  0  0  0  0  0
    3.7320   -3.7500    0.0000 C   0  0  0  0  0  0  0  0  0  0  0  0
   11.5263    0.7500    0.0000 C   0  0  0  0  0  0  0  0  0  0  0  0
   10.6603   -0.7500    0.0000 C   0  0  0  0  0  0  0  0  0  0  0  0
    2.8660   -5.2500    0.0000 C   0  0  0  0  0  0  0  0  0  0  0  0
    5.4641    1.6300    0.0000 H   0  0  0  0  0  0  0  0  0  0  0  0
    4.5981    2.3700    0.0000 H   0  0  0  0  0  0  0  0  0  0  0  0
    7.7331   -0.0600    0.0000 H   0  0  0  0  0  0  0  0  0  0  0  0
    4.8101    0.1674    0.0000 H   0  0  0  0  0  0  0  0  0  0  0  0
    5.2087    0.8577    0.0000 H   0  0  0  0  0  0  0  0  0  0  0  0
    2.8660    0.1300    0.0000 H   0  0  0  0  0  0  0  0  0  0  0  0
    5.2520    3.8326    0.0000 H   0  0  0  0  0  0  0  0  0  0  0  0
    4.8535    3.1423    0.0000 H   0  0  0  0  0  0  0  0  0  0  0  0
    6.8671    2.0600    0.0000 H   0  0  0  0  0  0  0  0  0  0  0  0
    6.5762   -1.7500    0.0000 H   0  0  0  0  0  0  0  0  0  0  0  0
    7.1962   -2.3700    0.0000 H   0  0  0  0  0  0  0  0  0  0  0  0
    7.8162   -1.7500    0.0000 H   0  0  0  0  0  0  0  0  0  0  0  0
    8.1962   -1.3700    0.0000 H   0  0  0  0  0  0  0  0  0  0  0  0
    8.8162   -0.7500    0.0000 H   0  0  0  0  0  0  0  0  0  0  0  0
    8.1962   -0.1300    0.0000 H   0  0  0  0  0  0  0  0  0  0  0  0
    6.1962   -0.1300    0.0000 H   0  0  0  0  0  0  0  0  0  0  0  0
    5.5762   -0.7500    0.0000 H   0  0  0  0  0  0  0  0  0  0  0  0
    6.1962   -1.3700    0.0000 H   0  0  0  0  0  0  0  0  0  0  0  0
    3.4766    1.6423    0.0000 H   0  0  0  0  0  0  0  0  0  0  0  0
    3.0781    2.3326    0.0000 H   0  0  0  0  0  0  0  0  0  0  0  0
    8.0622    1.3700    0.0000 H   0  0  0  0  0  0  0  0  0  0  0  0
    1.6900    0.7869    0.0000 H   0  0  0  0  0  0  0  0  0  0  0  0
    1.4631   -0.0600    0.0000 H   0  0  0  0  0  0  0  0  0  0  0  0
    2.3100   -0.2869    0.0000 H   0  0  0  0  0  0  0  0  0  0  0  0
    3.7320    2.8700    0.0000 H   0  0  0  0  0  0  0  0  0  0  0  0
    2.3100    2.7869    0.0000 H   0  0  0  0  0  0  0  0  0  0  0  0
    1.4631    2.5600    0.0000 H   0  0  0  0  0  0  0  0  0  0  0  0
    1.6900    1.7131    0.0000 H   0  0  0  0  0  0  0  0  0  0  0  0
    7.1962    2.6300    0.0000 H   0  0  0  0  0  0  0  0  0  0  0  0
    5.7932    5.0600    0.0000 H   0  0  0  0  0  0  0  0  0  0  0  0
   10.1928    1.2250    0.0000 H   0  0  0  0  0  0  0  0  0  0  0  0
    9.3957    1.2250    0.0000 H   0  0  0  0  0  0  0  0  0  0  0  0
    2.3291   -1.9400    0.0000 H   0  0  0  0  0  0  0  0  0  0  0  0
    5.1350   -1.9400    0.0000 H   0  0  0  0  0  0  0  0  0  0  0  0
    8.5991    3.4400    0.0000 H   0  0  0  0  0  0  0  0  0  0  0  0
    7.1962    5.8700    0.0000 H   0  0  0  0  0  0  0  0  0  0  0  0
    2.3291   -3.5600    0.0000 H   0  0  0  0  0  0  0  0  0  0  0  0
    5.1350   -3.5600    0.0000 H   0  0  0  0  0  0  0  0  0  0  0  0
    8.5991    5.0600    0.0000 H   0  0  0  0  0  0  0  0  0  0  0  0
   11.8363    0.2131    0.0000 H   0  0  0  0  0  0  0  0  0  0  0  0
   12.0632    1.0600    0.0000 H   0  0  0  0  0  0  0  0  0  0  0  0
   11.2163    1.2869    0.0000 H   0  0  0  0  0  0  0  0  0  0  0  0
   10.0403   -0.7500    0.0000 H   0  0  0  0  0  0  0  0  0  0  0  0
   10.6603   -1.3700    0.0000 H   0  0  0  0  0  0  0  0  0  0  0  0
   11.2803   -0.7500    0.0000 H   0  0  0  0  0  0  0  0  0  0  0  0
    2.5560   -4.7131    0.0000 H   0  0  0  0  0  0  0  0  0  0  0  0
    2.3291   -5.5600    0.0000 H   0  0  0  0  0  0  0  0  0  0  0  0
    3.1760   -5.7869    0.0000 H   0  0  0  0  0  0  0  0  0  0  0  0
  1  4  2  0  0  0  0
  1  5  2  0  0  0  0
  1  8  1  0  0  0  0
  1 26  1  0  0  0  0
 14  2  1  1  0  0  0
  2 67  1  0  0  0  0
  3 19  2  0  0  0  0
  6 28  2  0  0  0  0
  7 39  1  0  0  0  0
  7 42  1  0  0  0  0
  8 16  1  0  0  0  0
  8 17  1  0  0  0  0
 12  9  1  6  0  0  0
  9 19  1  0  0  0  0
  9 51  1  0  0  0  0
 15 10  1  1  0  0  0
 10 28  1  0  0  0  0
 10 63  1  0  0  0  0
 11 31  1  0  0  0  0
 11 40  1  0  0  0  0
 11 41  1  0  0  0  0
 12 14  1  0  0  0  0
 12 18  1  0  0  0  0
 12 43  1  0  0  0  0
 13 15  1  0  0  0  0
 13 20  1  0  0  0  0
 13 21  1  0  0  0  0
 13 22  1  0  0  0  0
 14 16  1  0  0  0  0
 14 44  1  0  0  0  0
 15 19  1  0  0  0  0
 15 45  1  0  0  0  0
 16 46  1  0  0  0  0
 16 47  1  0  0  0  0
 17 23  1  0  0  0  0
 17 24  1  0  0  0  0
 17 48  1  0  0  0  0
 18 25  1  0  0  0  0
 18 49  1  0  0  0  0
 18 50  1  0  0  0  0
 20 52  1  0  0  0  0
 20 53  1  0  0  0  0
 20 54  1  0  0  0  0
 21 55  1  0  0  0  0
 21 56  1  0  0  0  0
 21 57  1  0  0  0  0
 22 58  1  0  0  0  0
 22 59  1  0  0  0  0
 22 60  1  0  0  0  0
 23 27  1  0  0  0  0
 23 61  1  0  0  0  0
 23 62  1  0  0  0  0
 24 64  1  0  0  0  0
 24 65  1  0  0  0  0
 24 66  1  0  0  0  0
 25 29  2  0  0  0  0
 25 30  1  0  0  0  0
 26 32  2  0  0  0  0
 26 33  1  0  0  0  0
 27 68  1  0  0  0  0
 27 69  1  0  0  0  0
 27 70  1  0  0  0  0
 28 31  1  0  0  0  0
 29 34  1  0  0  0  0
 29 71  1  0  0  0  0
 30 35  2  0  0  0  0
 30 72  1  0  0  0  0
 31 73  1  0  0  0  0
 31 74  1  0  0  0  0
 32 36  1  0  0  0  0
 32 75  1  0  0  0  0
 33 37  2  0  0  0  0
 33 76  1  0  0  0  0
 34 38  2  0  0  0  0
 34 77  1  0  0  0  0
 35 38  1  0  0  0  0
 35 78  1  0  0  0  0
 36 39  2  0  0  0  0
 36 79  1  0  0  0  0
 37 39  1  0  0  0  0
 37 80  1  0  0  0  0
 38 81  1  0  0  0  0
 40 82  1  0  0  0  0
 40 83  1  0  0  0  0
 40 84  1  0  0  0  0
 41 85  1  0  0  0  0
 41 86  1  0  0  0  0
 41 87  1  0  0  0  0
 42 88  1  0  0  0  0
 42 89  1  0  0  0  0
 42 90  1  0  0  0  0
M  END
> <PUBCHEM_COMPOUND_CID>
508325
> <PUBCHEM_COMPOUND_CANONICALIZED>
1
> <PUBCHEM_CACTVS_COMPLEXITY>
934
> <PUBCHEM_CACTVS_HBOND_ACCEPTOR>
8
> <PUBCHEM_CACTVS_HBOND_DONOR>
3
> <PUBCHEM_CACTVS_ROTATABLE_BOND>
16
> <PUBCHEM_CACTVS_SUBSKEYS>
AAADcfB7uABAAAAAAAAAAAAAAAAAAAAAAAAwYAAAAAAAAAABQAAAHgQQSAAADjzh2AYyB4PABgKIAiFSEHBCCBAgIAAIiJmOCIgOdjKE8TuUcCAk1hGYqAeQwKAPAIAAAAAAAAABAAAAAAAAAAAAAAAAAA==
> <PUBCHEM_IUPAC_OPENEYE_NAME>
(2S)-N-[(1S,2R)-1-benzyl-2-hydroxy-3-[(4-methoxyphenyl)sulfonyl-sec-butyl-amino]propyl]-2-[[2-(dimethylamino)acetyl]amino]-3,3-dimethyl-butanamide
> <PUBCHEM_IUPAC_CAS_NAME>
(2S)-N-[(2S,3R)-4-[butan-2-yl-(4-methoxyphenyl)sulfonylamino]-3-hydroxy-1-phenylbutan-2-yl]-2-[[2-(dimethylamino)-1-oxoethyl]amino]-3,3-dimethylbutanamide
> <PUBCHEM_IUPAC_NAME_MARKUP>
(2<I>S</I>)-<I>N</I>-[(2<I>S</I>,3<I>R</I>)-4-[butan-2-yl-(4-methoxyphenyl)sulfonylamino]-3-hydroxy-1-phenylbutan-2-yl]-2-[[2-(dimethylamino)acetyl]amino]-3,3-dimethylbutanamide
> <PUBCHEM_IUPAC_NAME>
(2S)-N-[(2S,3R)-4-[butan-2-yl-(4-methoxyphenyl)sulfonylamino]-3-hydroxy-1-phenylbutan-2-yl]-2-[[2-(dimethylamino)acetyl]amino]-3,3-dimethylbutanamide
> <PUBCHEM_IUPAC_SYSTEMATIC_NAME>
(2S)-N-[(2S,3R)-4-[butan-2-yl-(4-methoxyphenyl)sulfonyl-amino]-3-oxidanyl-1-phenyl-butan-2-yl]-2-[2-(dimethylamino)ethanoylamino]-3,3-dimethyl-butanamide
> <PUBCHEM_IUPAC_TRADITIONAL_NAME>
(2S)-N-[(1S,2R)-1-benzyl-2-hydroxy-3-[(4-methoxyphenyl)sulfonyl-sec-butyl-amino]propyl]-2-[[2-(dimethylamino)acetyl]amino]-3,3-dimethyl-butyramide
> <PUBCHEM_IUPAC_INCHI>
InChI=1S/C31H48N4O6S/c1-9-22(2)35(42(39,40)25-17-15-24(41-8)16-18-25)20-27(36)26(19-23-13-11-10-12-14-23)32-30(38)29(31(3,4)5)33-28(37)21-34(6)7/h10-18,22,26-27,29,36H,9,19-21H2,1-8H3,(H,32,38)(H,33,37)/t22?,26-,27+,29+/m0/s1
> <PUBCHEM_IUPAC_INCHIKEY>
FQBVTXUWQPBNEX-MTIAUGEISA-N
> <PUBCHEM_XLOGP3_AA>
4.3
> <PUBCHEM_EXACT_MASS>
604.32945644
> <PUBCHEM_MOLECULAR_FORMULA>
C31H48N4O6S
> <PUBCHEM_MOLECULAR_WEIGHT>
604.8
> <PUBCHEM_OPENEYE_CAN_SMILES>
CCC(C)N(CC(C(CC1=CC=CC=C1)NC(=O)C(C(C)(C)C)NC(=O)CN(C)C)O)S(=O)(=O)C2=CC=C(C=C2)OC
> <PUBCHEM_OPENEYE_ISO_SMILES>
CCC(C)N(C[C@H]([C@H](CC1=CC=CC=C1)NC(=O)[C@H](C(C)(C)C)NC(=O)CN(C)C)O)S(=O)(=O)C2=CC=C(C=C2)OC
> <PUBCHEM_CACTVS_TPSA>
137
> <PUBCHEM_MONOISOTOPIC_WEIGHT>
604.32945644
> <PUBCHEM_TOTAL_CHARGE>
0
> <PUBCHEM_HEAVY_ATOM_COUNT>
42
> <PUBCHEM_ATOM_DEF_STEREO_COUNT>
3
> <PUBCHEM_ATOM_UDEF_STEREO_COUNT>
1
> <PUBCHEM_BOND_DEF_STEREO_COUNT>
0
> <PUBCHEM_BOND_UDEF_STEREO_COUNT>
0
> <PUBCHEM_ISOTOPIC_ATOM_COUNT>
0
> <PUBCHEM_COMPONENT_COUNT>
1
> <PUBCHEM_CACTVS_TAUTO_COUNT>
-1
> <PUBCHEM_COORDINATE_TYPE>
1
5
255
> <PUBCHEM_BONDANNOTATIONS>
15  10  5
17  24  3
14  2  5
25  29  8
25  30  8
26  32  8
26  33  8
29  34  8
30  35  8
32  36  8
33  37  8
34  38  8
35  38  8
36  39  8
37  39  8
12  9  6
$$$$
