508331
  -OEChem-10302200282D
 76 77  0     1  0  0  0  0  0999 V2000
    4.5981   -1.5000    0.0000 S   0  0  0  0  0  0  0  0  0  0  0  0
    4.5981    1.5000    0.0000 O   0  0  0  0  0  0  0  0  0  0  0  0
    6.3301   -0.5000    0.0000 O   0  0  0  0  0  0  0  0  0  0  0  0
    5.5981   -1.5000    0.0000 O   0  0  0  0  0  0  0  0  0  0  0  0
    3.5981   -1.5000    0.0000 O   0  0  0  0  0  0  0  0  0  0  0  0
    4.5981   -0.5000    0.0000 N   0  0  3  0  0  0  0  0  0  0  0  0
    7.1962    1.0000    0.0000 N   0  0  0  0  0  0  0  0  0  0  0  0
    8.9282    0.0000    0.0000 N   0  0  0  0  0  0  0  0  0  0  0  0
    6.3301    1.5000    0.0000 C   0  0  2  0  0  0  0  0  0  0  0  0
    5.4641    1.0000    0.0000 C   0  0  1  0  0  0  0  0  0  0  0  0
    8.0622   -1.5000    0.0000 C   0  0  0  0  0  0  0  0  0  0  0  0
    5.4641    0.0000    0.0000 C   0  0  0  0  0  0  0  0  0  0  0  0
    8.0622   -0.5000    0.0000 C   0  0  3  0  0  0  0  0  0  0  0  0
    6.3301    2.5000    0.0000 C   0  0  0  0  0  0  0  0  0  0  0  0
    3.7320    0.0000    0.0000 C   0  0  0  0  0  0  0  0  0  0  0  0
    7.1962    0.0000    0.0000 C   0  0  0  0  0  0  0  0  0  0  0  0
    3.7320    1.0000    0.0000 C   0  0  0  0  0  0  0  0  0  0  0  0
    2.8660    1.5000    0.0000 C   0  0  0  0  0  0  0  0  0  0  0  0
    8.0622   -2.5000    0.0000 C   0  0  0  0  0  0  0  0  0  0  0  0
    9.0622   -1.5000    0.0000 C   0  0  0  0  0  0  0  0  0  0  0  0
    7.0622   -1.5000    0.0000 C   0  0  0  0  0  0  0  0  0  0  0  0
    7.1962    3.0000    0.0000 C   0  0  0  0  0  0  0  0  0  0  0  0
    4.5981   -2.5000    0.0000 C   0  0  0  0  0  0  0  0  0  0  0  0
    2.0000    1.0000    0.0000 C   0  0  0  0  0  0  0  0  0  0  0  0
    2.8660    2.5000    0.0000 C   0  0  0  0  0  0  0  0  0  0  0  0
    8.0622    2.5000    0.0000 C   0  0  0  0  0  0  0  0  0  0  0  0
    7.1962    4.0000    0.0000 C   0  0  0  0  0  0  0  0  0  0  0  0
    5.4641   -3.0000    0.0000 C   0  0  0  0  0  0  0  0  0  0  0  0
    3.7320   -3.0000    0.0000 C   0  0  0  0  0  0  0  0  0  0  0  0
    8.9282    3.0000    0.0000 C   0  0  0  0  0  0  0  0  0  0  0  0
    8.0622    4.5000    0.0000 C   0  0  0  0  0  0  0  0  0  0  0  0
    8.9282    4.0000    0.0000 C   0  0  0  0  0  0  0  0  0  0  0  0
    5.4641   -4.0000    0.0000 C   0  0  0  0  0  0  0  0  0  0  0  0
    3.7320   -4.0000    0.0000 C   0  0  0  0  0  0  0  0  0  0  0  0
    4.5981   -4.5000    0.0000 C   0  0  0  0  0  0  0  0  0  0  0  0
    6.8671    1.8100    0.0000 H   0  0  0  0  0  0  0  0  0  0  0  0
    5.4641    1.6200    0.0000 H   0  0  0  0  0  0  0  0  0  0  0  0
    5.6762   -0.5826    0.0000 H   0  0  0  0  0  0  0  0  0  0  0  0
    6.0747    0.1077    0.0000 H   0  0  0  0  0  0  0  0  0  0  0  0
    8.0622    0.1200    0.0000 H   0  0  0  0  0  0  0  0  0  0  0  0
    6.1181    3.0826    0.0000 H   0  0  0  0  0  0  0  0  0  0  0  0
    5.7196    2.3923    0.0000 H   0  0  0  0  0  0  0  0  0  0  0  0
    3.1215    0.1077    0.0000 H   0  0  0  0  0  0  0  0  0  0  0  0
    3.5200   -0.5826    0.0000 H   0  0  0  0  0  0  0  0  0  0  0  0
    7.7331    1.3100    0.0000 H   0  0  0  0  0  0  0  0  0  0  0  0
    4.3426    0.8923    0.0000 H   0  0  0  0  0  0  0  0  0  0  0  0
    3.9441    1.5826    0.0000 H   0  0  0  0  0  0  0  0  0  0  0  0
    2.8660    0.8800    0.0000 H   0  0  0  0  0  0  0  0  0  0  0  0
    7.4422   -2.5000    0.0000 H   0  0  0  0  0  0  0  0  0  0  0  0
    8.0622   -3.1200    0.0000 H   0  0  0  0  0  0  0  0  0  0  0  0
    8.6822   -2.5000    0.0000 H   0  0  0  0  0  0  0  0  0  0  0  0
    9.0622   -2.1200    0.0000 H   0  0  0  0  0  0  0  0  0  0  0  0
    9.6822   -1.5000    0.0000 H   0  0  0  0  0  0  0  0  0  0  0  0
    9.0622   -0.8800    0.0000 H   0  0  0  0  0  0  0  0  0  0  0  0
    7.0622   -0.8800    0.0000 H   0  0  0  0  0  0  0  0  0  0  0  0
    6.4422   -1.5000    0.0000 H   0  0  0  0  0  0  0  0  0  0  0  0
    7.0622   -2.1200    0.0000 H   0  0  0  0  0  0  0  0  0  0  0  0
    4.5981    2.1200    0.0000 H   0  0  0  0  0  0  0  0  0  0  0  0
    9.4651   -0.3100    0.0000 H   0  0  0  0  0  0  0  0  0  0  0  0
    8.9282    0.6200    0.0000 H   0  0  0  0  0  0  0  0  0  0  0  0
    1.6900    1.5369    0.0000 H   0  0  0  0  0  0  0  0  0  0  0  0
    1.4631    0.6900    0.0000 H   0  0  0  0  0  0  0  0  0  0  0  0
    2.3100    0.4631    0.0000 H   0  0  0  0  0  0  0  0  0  0  0  0
    3.4860    2.5000    0.0000 H   0  0  0  0  0  0  0  0  0  0  0  0
    2.8660    3.1200    0.0000 H   0  0  0  0  0  0  0  0  0  0  0  0
    2.2460    2.5000    0.0000 H   0  0  0  0  0  0  0  0  0  0  0  0
    8.0622    1.8800    0.0000 H   0  0  0  0  0  0  0  0  0  0  0  0
    6.6592    4.3100    0.0000 H   0  0  0  0  0  0  0  0  0  0  0  0
    6.0010   -2.6900    0.0000 H   0  0  0  0  0  0  0  0  0  0  0  0
    3.1951   -2.6900    0.0000 H   0  0  0  0  0  0  0  0  0  0  0  0
    9.4651    2.6900    0.0000 H   0  0  0  0  0  0  0  0  0  0  0  0
    8.0622    5.1200    0.0000 H   0  0  0  0  0  0  0  0  0  0  0  0
    9.4651    4.3100    0.0000 H   0  0  0  0  0  0  0  0  0  0  0  0
    6.0010   -4.3100    0.0000 H   0  0  0  0  0  0  0  0  0  0  0  0
    3.1951   -4.3100    0.0000 H   0  0  0  0  0  0  0  0  0  0  0  0
    4.5981   -5.1200    0.0000 H   0  0  0  0  0  0  0  0  0  0  0  0
  1  4  2  0  0  0  0
  1  5  2  0  0  0  0
  1  6  1  0  0  0  0
  1 23  1  0  0  0  0
 10  2  1  1  0  0  0
  2 58  1  0  0  0  0
  3 16  2  0  0  0  0
  6 12  1  0  0  0  0
  6 15  1  0  0  0  0
  9  7  1  6  0  0  0
  7 16  1  0  0  0  0
  7 45  1  0  0  0  0
  8 13  1  0  0  0  0
  8 59  1  0  0  0  0
  8 60  1  0  0  0  0
  9 10  1  0  0  0  0
  9 14  1  0  0  0  0
  9 36  1  0  0  0  0
 10 12  1  0  0  0  0
 10 37  1  0  0  0  0
 11 13  1  0  0  0  0
 11 19  1  0  0  0  0
 11 20  1  0  0  0  0
 11 21  1  0  0  0  0
 12 38  1  0  0  0  0
 12 39  1  0  0  0  0
 13 16  1  0  0  0  0
 13 40  1  0  0  0  0
 14 22  1  0  0  0  0
 14 41  1  0  0  0  0
 14 42  1  0  0  0  0
 15 17  1  0  0  0  0
 15 43  1  0  0  0  0
 15 44  1  0  0  0  0
 17 18  1  0  0  0  0
 17 46  1  0  0  0  0
 17 47  1  0  0  0  0
 18 24  1  0  0  0  0
 18 25  1  0  0  0  0
 18 48  1  0  0  0  0
 19 49  1  0  0  0  0
 19 50  1  0  0  0  0
 19 51  1  0  0  0  0
 20 52  1  0  0  0  0
 20 53  1  0  0  0  0
 20 54  1  0  0  0  0
 21 55  1  0  0  0  0
 21 56  1  0  0  0  0
 21 57  1  0  0  0  0
 22 26  2  0  0  0  0
 22 27  1  0  0  0  0
 23 28  2  0  0  0  0
 23 29  1  0  0  0  0
 24 61  1  0  0  0  0
 24 62  1  0  0  0  0
 24 63  1  0  0  0  0
 25 64  1  0  0  0  0
 25 65  1  0  0  0  0
 25 66  1  0  0  0  0
 26 30  1  0  0  0  0
 26 67  1  0  0  0  0
 27 31  2  0  0  0  0
 27 68  1  0  0  0  0
 28 33  1  0  0  0  0
 28 69  1  0  0  0  0
 29 34  2  0  0  0  0
 29 70  1  0  0  0  0
 30 32  2  0  0  0  0
 30 71  1  0  0  0  0
 31 32  1  0  0  0  0
 31 72  1  0  0  0  0
 32 73  1  0  0  0  0
 33 35  2  0  0  0  0
 33 74  1  0  0  0  0
 34 35  1  0  0  0  0
 34 75  1  0  0  0  0
 35 76  1  0  0  0  0
M  END
> <PUBCHEM_COMPOUND_CID>
508331
> <PUBCHEM_COMPOUND_CANONICALIZED>
1
> <PUBCHEM_CACTVS_COMPLEXITY>
733
> <PUBCHEM_CACTVS_HBOND_ACCEPTOR>
6
> <PUBCHEM_CACTVS_HBOND_DONOR>
3
> <PUBCHEM_CACTVS_ROTATABLE_BOND>
13
> <PUBCHEM_CACTVS_SUBSKEYS>
AAADcfB7OABAAAAAAAAAAAAAAAAAAAAAAAAwYAAAAAAAAAABQAAAHgQQSAAADzzh2AYyAYLAAgKIAiFSEHBCABAgAAAIiJmIAIgKcDKA0RGUYAAklgCYiAeQwKAPAAAAAAAAAAAAAAAAAAAAAAAAAAAAAA==
> <PUBCHEM_IUPAC_OPENEYE_NAME>
2-amino-N-[(1S,2R)-3-[benzenesulfonyl(isopentyl)amino]-1-benzyl-2-hydroxy-propyl]-3,3-dimethyl-butanamide
> <PUBCHEM_IUPAC_CAS_NAME>
2-amino-N-[(2S,3R)-4-[benzenesulfonyl(3-methylbutyl)amino]-3-hydroxy-1-phenylbutan-2-yl]-3,3-dimethylbutanamide
> <PUBCHEM_IUPAC_NAME_MARKUP>
2-amino-<I>N</I>-[(2<I>S</I>,3<I>R</I>)-4-[benzenesulfonyl(3-methylbutyl)amino]-3-hydroxy-1-phenylbutan-2-yl]-3,3-dimethylbutanamide
> <PUBCHEM_IUPAC_NAME>
2-amino-N-[(2S,3R)-4-[benzenesulfonyl(3-methylbutyl)amino]-3-hydroxy-1-phenylbutan-2-yl]-3,3-dimethylbutanamide
> <PUBCHEM_IUPAC_SYSTEMATIC_NAME>
2-azanyl-3,3-dimethyl-N-[(2S,3R)-4-[3-methylbutyl(phenylsulfonyl)amino]-3-oxidanyl-1-phenyl-butan-2-yl]butanamide
> <PUBCHEM_IUPAC_TRADITIONAL_NAME>
2-amino-N-[(1S,2R)-1-benzyl-3-[besyl(isoamyl)amino]-2-hydroxy-propyl]-3,3-dimethyl-butyramide
> <PUBCHEM_IUPAC_INCHI>
InChI=1S/C27H41N3O4S/c1-20(2)16-17-30(35(33,34)22-14-10-7-11-15-22)19-24(31)23(18-21-12-8-6-9-13-21)29-26(32)25(28)27(3,4)5/h6-15,20,23-25,31H,16-19,28H2,1-5H3,(H,29,32)/t23-,24+,25?/m0/s1
> <PUBCHEM_IUPAC_INCHIKEY>
YZFMMKSRMJIELX-ZXABPTRBSA-N
> <PUBCHEM_XLOGP3_AA>
4.3
> <PUBCHEM_EXACT_MASS>
503.28177797
> <PUBCHEM_MOLECULAR_FORMULA>
C27H41N3O4S
> <PUBCHEM_MOLECULAR_WEIGHT>
503.7
> <PUBCHEM_OPENEYE_CAN_SMILES>
CC(C)CCN(CC(C(CC1=CC=CC=C1)NC(=O)C(C(C)(C)C)N)O)S(=O)(=O)C2=CC=CC=C2
> <PUBCHEM_OPENEYE_ISO_SMILES>
CC(C)CCN(C[C@H]([C@H](CC1=CC=CC=C1)NC(=O)C(C(C)(C)C)N)O)S(=O)(=O)C2=CC=CC=C2
> <PUBCHEM_CACTVS_TPSA>
121
> <PUBCHEM_MONOISOTOPIC_WEIGHT>
503.28177797
> <PUBCHEM_TOTAL_CHARGE>
0
> <PUBCHEM_HEAVY_ATOM_COUNT>
35
> <PUBCHEM_ATOM_DEF_STEREO_COUNT>
2
> <PUBCHEM_ATOM_UDEF_STEREO_COUNT>
1
> <PUBCHEM_BOND_DEF_STEREO_COUNT>
0
> <PUBCHEM_BOND_UDEF_STEREO_COUNT>
0
> <PUBCHEM_ISOTOPIC_ATOM_COUNT>
0
> <PUBCHEM_COMPONENT_COUNT>
1
> <PUBCHEM_CACTVS_TAUTO_COUNT>
-1
> <PUBCHEM_COORDINATE_TYPE>
1
5
255
> <PUBCHEM_BONDANNOTATIONS>
10  2  5
22  26  8
22  27  8
23  28  8
23  29  8
26  30  8
27  31  8
28  33  8
29  34  8
30  32  8
31  32  8
33  35  8
34  35  8
9  7  6
13  8  3
$$$$
