508323
  -OEChem-10302200282D
 92 94  0     1  0  0  0  0  0999 V2000
    4.5981   -0.5000    0.0000 S   0  0  0  0  0  0  0  0  0  0  0  0
    4.5981    2.5000    0.0000 O   0  0  0  0  0  0  0  0  0  0  0  0
    5.5981   -0.5000    0.0000 O   0  0  0  0  0  0  0  0  0  0  0  0
    3.5981   -0.5000    0.0000 O   0  0  0  0  0  0  0  0  0  0  0  0
    6.3301    0.5000    0.0000 O   0  0  0  0  0  0  0  0  0  0  0  0
    8.9282   -2.0000    0.0000 O   0  0  0  0  0  0  0  0  0  0  0  0
    9.7942   -0.5000    0.0000 O   0  0  0  0  0  0  0  0  0  0  0  0
    4.5981    0.5000    0.0000 N   0  0  3  0  0  0  0  0  0  0  0  0
    7.1962    2.0000    0.0000 N   0  0  0  0  0  0  0  0  0  0  0  0
    8.0622   -0.5000    0.0000 N   0  0  0  0  0  0  0  0  0  0  0  0
    6.3301    2.5000    0.0000 C   0  0  2  0  0  0  0  0  0  0  0  0
    5.4641    2.0000    0.0000 C   0  0  1  0  0  0  0  0  0  0  0  0
    5.4641    1.0000    0.0000 C   0  0  0  0  0  0  0  0  0  0  0  0
    6.3301    3.5000    0.0000 C   0  0  0  0  0  0  0  0  0  0  0  0
    3.7320    1.0000    0.0000 C   0  0  0  0  0  0  0  0  0  0  0  0
    8.0622    0.5000    0.0000 C   0  0  1  0  0  0  0  0  0  0  0  0
    8.9282    1.0000    0.0000 C   0  0  3  0  0  0  0  0  0  0  0  0
    3.7320    2.0000    0.0000 C   0  0  0  0  0  0  0  0  0  0  0  0
    7.1962    1.0000    0.0000 C   0  0  0  0  0  0  0  0  0  0  0  0
    2.8660    2.5000    0.0000 C   0  0  0  0  0  0  0  0  0  0  0  0
    9.7942    0.5000    0.0000 C   0  0  0  0  0  0  0  0  0  0  0  0
    7.1962    4.0000    0.0000 C   0  0  0  0  0  0  0  0  0  0  0  0
    8.9282    2.0000    0.0000 C   0  0  0  0  0  0  0  0  0  0  0  0
    4.5981   -1.5000    0.0000 C   0  0  0  0  0  0  0  0  0  0  0  0
    2.0000    2.0000    0.0000 C   0  0  0  0  0  0  0  0  0  0  0  0
    2.8660    3.5000    0.0000 C   0  0  0  0  0  0  0  0  0  0  0  0
   10.6603    1.0000    0.0000 C   0  0  0  0  0  0  0  0  0  0  0  0
    7.1962    5.0000    0.0000 C   0  0  0  0  0  0  0  0  0  0  0  0
    8.0622    3.5000    0.0000 C   0  0  0  0  0  0  0  0  0  0  0  0
    3.7320   -2.0000    0.0000 C   0  0  0  0  0  0  0  0  0  0  0  0
    5.4641   -2.0000    0.0000 C   0  0  0  0  0  0  0  0  0  0  0  0
    8.9282   -1.0000    0.0000 C   0  0  0  0  0  0  0  0  0  0  0  0
    8.0622    5.5000    0.0000 C   0  0  0  0  0  0  0  0  0  0  0  0
    8.9282    4.0000    0.0000 C   0  0  0  0  0  0  0  0  0  0  0  0
    8.9282    5.0000    0.0000 C   0  0  0  0  0  0  0  0  0  0  0  0
    3.7320   -3.0000    0.0000 C   0  0  0  0  0  0  0  0  0  0  0  0
    5.4641   -3.0000    0.0000 C   0  0  0  0  0  0  0  0  0  0  0  0
    4.5981   -3.5000    0.0000 C   0  0  0  0  0  0  0  0  0  0  0  0
    9.7942   -2.5000    0.0000 C   0  0  0  0  0  0  0  0  0  0  0  0
    9.7942   -3.5000    0.0000 C   0  0  0  0  0  0  0  0  0  0  0  0
   10.6603   -4.0000    0.0000 C   0  0  0  0  0  0  0  0  0  0  0  0
    8.9282   -4.0000    0.0000 C   0  0  0  0  0  0  0  0  0  0  0  0
   10.6603   -5.0000    0.0000 C   0  0  0  0  0  0  0  0  0  0  0  0
    8.9282   -5.0000    0.0000 C   0  0  0  0  0  0  0  0  0  0  0  0
    9.7942   -5.5000    0.0000 C   0  0  0  0  0  0  0  0  0  0  0  0
    6.8671    2.8100    0.0000 H   0  0  0  0  0  0  0  0  0  0  0  0
    5.4641    2.6200    0.0000 H   0  0  0  0  0  0  0  0  0  0  0  0
    5.6762    0.4174    0.0000 H   0  0  0  0  0  0  0  0  0  0  0  0
    6.0747    1.1077    0.0000 H   0  0  0  0  0  0  0  0  0  0  0  0
    6.1181    4.0826    0.0000 H   0  0  0  0  0  0  0  0  0  0  0  0
    5.7196    3.3923    0.0000 H   0  0  0  0  0  0  0  0  0  0  0  0
    3.1215    1.1077    0.0000 H   0  0  0  0  0  0  0  0  0  0  0  0
    3.5200    0.4174    0.0000 H   0  0  0  0  0  0  0  0  0  0  0  0
    7.5252    0.1900    0.0000 H   0  0  0  0  0  0  0  0  0  0  0  0
    7.7331    2.3100    0.0000 H   0  0  0  0  0  0  0  0  0  0  0  0
    9.4651    1.3100    0.0000 H   0  0  0  0  0  0  0  0  0  0  0  0
    4.3426    1.8923    0.0000 H   0  0  0  0  0  0  0  0  0  0  0  0
    3.9441    2.5826    0.0000 H   0  0  0  0  0  0  0  0  0  0  0  0
    2.8660    1.8800    0.0000 H   0  0  0  0  0  0  0  0  0  0  0  0
    9.3957    0.0251    0.0000 H   0  0  0  0  0  0  0  0  0  0  0  0
   10.1928    0.0251    0.0000 H   0  0  0  0  0  0  0  0  0  0  0  0
    4.5981    3.1200    0.0000 H   0  0  0  0  0  0  0  0  0  0  0  0
    9.5482    2.0000    0.0000 H   0  0  0  0  0  0  0  0  0  0  0  0
    8.9282    2.6200    0.0000 H   0  0  0  0  0  0  0  0  0  0  0  0
    8.3082    2.0000    0.0000 H   0  0  0  0  0  0  0  0  0  0  0  0
    7.5252   -0.8100    0.0000 H   0  0  0  0  0  0  0  0  0  0  0  0
    1.6900    2.5369    0.0000 H   0  0  0  0  0  0  0  0  0  0  0  0
    1.4631    1.6900    0.0000 H   0  0  0  0  0  0  0  0  0  0  0  0
    2.3100    1.4631    0.0000 H   0  0  0  0  0  0  0  0  0  0  0  0
    3.4860    3.5000    0.0000 H   0  0  0  0  0  0  0  0  0  0  0  0
    2.8660    4.1200    0.0000 H   0  0  0  0  0  0  0  0  0  0  0  0
    2.2460    3.5000    0.0000 H   0  0  0  0  0  0  0  0  0  0  0  0
   10.9703    0.4631    0.0000 H   0  0  0  0  0  0  0  0  0  0  0  0
   11.1972    1.3100    0.0000 H   0  0  0  0  0  0  0  0  0  0  0  0
   10.3503    1.5369    0.0000 H   0  0  0  0  0  0  0  0  0  0  0  0
    6.6592    5.3100    0.0000 H   0  0  0  0  0  0  0  0  0  0  0  0
    8.0622    2.8800    0.0000 H   0  0  0  0  0  0  0  0  0  0  0  0
    3.1951   -1.6900    0.0000 H   0  0  0  0  0  0  0  0  0  0  0  0
    6.0010   -1.6900    0.0000 H   0  0  0  0  0  0  0  0  0  0  0  0
    8.0622    6.1200    0.0000 H   0  0  0  0  0  0  0  0  0  0  0  0
    9.4651    3.6900    0.0000 H   0  0  0  0  0  0  0  0  0  0  0  0
    9.4651    5.3100    0.0000 H   0  0  0  0  0  0  0  0  0  0  0  0
    3.1951   -3.3100    0.0000 H   0  0  0  0  0  0  0  0  0  0  0  0
    6.0010   -3.3100    0.0000 H   0  0  0  0  0  0  0  0  0  0  0  0
    4.5981   -4.1200    0.0000 H   0  0  0  0  0  0  0  0  0  0  0  0
   10.4048   -2.6077    0.0000 H   0  0  0  0  0  0  0  0  0  0  0  0
   10.0063   -1.9174    0.0000 H   0  0  0  0  0  0  0  0  0  0  0  0
   11.1972   -3.6900    0.0000 H   0  0  0  0  0  0  0  0  0  0  0  0
    8.3913   -3.6900    0.0000 H   0  0  0  0  0  0  0  0  0  0  0  0
   11.1972   -5.3100    0.0000 H   0  0  0  0  0  0  0  0  0  0  0  0
    8.3913   -5.3100    0.0000 H   0  0  0  0  0  0  0  0  0  0  0  0
    9.7942   -6.1200    0.0000 H   0  0  0  0  0  0  0  0  0  0  0  0
  1  3  2  0  0  0  0
  1  4  2  0  0  0  0
  1  8  1  0  0  0  0
  1 24  1  0  0  0  0
 12  2  1  1  0  0  0
  2 62  1  0  0  0  0
  5 19  2  0  0  0  0
  6 32  1  0  0  0  0
  6 39  1  0  0  0  0
  7 32  2  0  0  0  0
  8 13  1  0  0  0  0
  8 15  1  0  0  0  0
 11  9  1  6  0  0  0
  9 19  1  0  0  0  0
  9 55  1  0  0  0  0
 16 10  1  6  0  0  0
 10 32  1  0  0  0  0
 10 66  1  0  0  0  0
 11 12  1  0  0  0  0
 11 14  1  0  0  0  0
 11 46  1  0  0  0  0
 12 13  1  0  0  0  0
 12 47  1  0  0  0  0
 13 48  1  0  0  0  0
 13 49  1  0  0  0  0
 14 22  1  0  0  0  0
 14 50  1  0  0  0  0
 14 51  1  0  0  0  0
 15 18  1  0  0  0  0
 15 52  1  0  0  0  0
 15 53  1  0  0  0  0
 16 17  1  0  0  0  0
 16 19  1  0  0  0  0
 16 54  1  0  0  0  0
 17 21  1  0  0  0  0
 17 23  1  0  0  0  0
 17 56  1  0  0  0  0
 18 20  1  0  0  0  0
 18 57  1  0  0  0  0
 18 58  1  0  0  0  0
 20 25  1  0  0  0  0
 20 26  1  0  0  0  0
 20 59  1  0  0  0  0
 21 27  1  0  0  0  0
 21 60  1  0  0  0  0
 21 61  1  0  0  0  0
 22 28  2  0  0  0  0
 22 29  1  0  0  0  0
 23 63  1  0  0  0  0
 23 64  1  0  0  0  0
 23 65  1  0  0  0  0
 24 30  2  0  0  0  0
 24 31  1  0  0  0  0
 25 67  1  0  0  0  0
 25 68  1  0  0  0  0
 25 69  1  0  0  0  0
 26 70  1  0  0  0  0
 26 71  1  0  0  0  0
 26 72  1  0  0  0  0
 27 73  1  0  0  0  0
 27 74  1  0  0  0  0
 27 75  1  0  0  0  0
 28 33  1  0  0  0  0
 28 76  1  0  0  0  0
 29 34  2  0  0  0  0
 29 77  1  0  0  0  0
 30 36  1  0  0  0  0
 30 78  1  0  0  0  0
 31 37  2  0  0  0  0
 31 79  1  0  0  0  0
 33 35  2  0  0  0  0
 33 80  1  0  0  0  0
 34 35  1  0  0  0  0
 34 81  1  0  0  0  0
 35 82  1  0  0  0  0
 36 38  2  0  0  0  0
 36 83  1  0  0  0  0
 37 38  1  0  0  0  0
 37 84  1  0  0  0  0
 38 85  1  0  0  0  0
 39 40  1  0  0  0  0
 39 86  1  0  0  0  0
 39 87  1  0  0  0  0
 40 41  2  0  0  0  0
 40 42  1  0  0  0  0
 41 43  1  0  0  0  0
 41 88  1  0  0  0  0
 42 44  2  0  0  0  0
 42 89  1  0  0  0  0
 43 45  2  0  0  0  0
 43 90  1  0  0  0  0
 44 45  1  0  0  0  0
 44 91  1  0  0  0  0
 45 92  1  0  0  0  0
M  END
> <PUBCHEM_COMPOUND_CID>
508323
> <PUBCHEM_COMPOUND_CANONICALIZED>
1
> <PUBCHEM_CACTVS_COMPLEXITY>
968
> <PUBCHEM_CACTVS_HBOND_ACCEPTOR>
7
> <PUBCHEM_CACTVS_HBOND_DONOR>
3
> <PUBCHEM_CACTVS_ROTATABLE_BOND>
18
> <PUBCHEM_CACTVS_SUBSKEYS>
AAADcfB/OABAAAAAAAAAAAAAAAAAAAAAAAAwYMAAAAAAAAABUAAAHgQQSAAADTzh2AYyCYLABgKIAiFSGHBCABAgAAAIiJmICIkKdjKA8TmccAAk1gGYqAeYwKAOAAAAAAAAAAAAAAAAAAAAAAAAAAAAAA==
> <PUBCHEM_IUPAC_OPENEYE_NAME>
benzyl N-[(1S)-1-[[(1S,2R)-3-[benzenesulfonyl(isopentyl)amino]-1-benzyl-2-hydroxy-propyl]carbamoyl]-2-methyl-butyl]carbamate
> <PUBCHEM_IUPAC_CAS_NAME>
N-[(2S)-1-[[(2S,3R)-4-[benzenesulfonyl(3-methylbutyl)amino]-3-hydroxy-1-phenylbutan-2-yl]amino]-3-methyl-1-oxopentan-2-yl]carbamic acid (phenylmethyl) ester
> <PUBCHEM_IUPAC_NAME_MARKUP>
benzyl <I>N</I>-[(2<I>S</I>)-1-[[(2<I>S</I>,3<I>R</I>)-4-[benzenesulfonyl(3-methylbutyl)amino]-3-hydroxy-1-phenylbutan-2-yl]amino]-3-methyl-1-oxopentan-2-yl]carbamate
> <PUBCHEM_IUPAC_NAME>
benzyl N-[(2S)-1-[[(2S,3R)-4-[benzenesulfonyl(3-methylbutyl)amino]-3-hydroxy-1-phenylbutan-2-yl]amino]-3-methyl-1-oxopentan-2-yl]carbamate
> <PUBCHEM_IUPAC_SYSTEMATIC_NAME>
(phenylmethyl) N-[(2S)-3-methyl-1-[[(2S,3R)-4-[3-methylbutyl(phenylsulfonyl)amino]-3-oxidanyl-1-phenyl-butan-2-yl]amino]-1-oxidanylidene-pentan-2-yl]carbamate
> <PUBCHEM_IUPAC_TRADITIONAL_NAME>
N-[(1S)-1-[[(1S,2R)-1-benzyl-3-[besyl(isoamyl)amino]-2-hydroxy-propyl]carbamoyl]-2-methyl-butyl]carbamic acid benzyl ester
> <PUBCHEM_IUPAC_INCHI>
InChI=1S/C35H47N3O6S/c1-5-27(4)33(37-35(41)44-25-29-17-11-7-12-18-29)34(40)36-31(23-28-15-9-6-10-16-28)32(39)24-38(22-21-26(2)3)45(42,43)30-19-13-8-14-20-30/h6-20,26-27,31-33,39H,5,21-25H2,1-4H3,(H,36,40)(H,37,41)/t27?,31-,32+,33-/m0/s1
> <PUBCHEM_IUPAC_INCHIKEY>
FNZIHYYHHDAZLJ-BKJGOFMXSA-N
> <PUBCHEM_XLOGP3_AA>
6.4
> <PUBCHEM_EXACT_MASS>
637.31855740
> <PUBCHEM_MOLECULAR_FORMULA>
C35H47N3O6S
> <PUBCHEM_MOLECULAR_WEIGHT>
637.8
> <PUBCHEM_OPENEYE_CAN_SMILES>
CCC(C)C(C(=O)NC(CC1=CC=CC=C1)C(CN(CCC(C)C)S(=O)(=O)C2=CC=CC=C2)O)NC(=O)OCC3=CC=CC=C3
> <PUBCHEM_OPENEYE_ISO_SMILES>
CCC(C)[C@@H](C(=O)N[C@@H](CC1=CC=CC=C1)[C@@H](CN(CCC(C)C)S(=O)(=O)C2=CC=CC=C2)O)NC(=O)OCC3=CC=CC=C3
> <PUBCHEM_CACTVS_TPSA>
133
> <PUBCHEM_MONOISOTOPIC_WEIGHT>
637.31855740
> <PUBCHEM_TOTAL_CHARGE>
0
> <PUBCHEM_HEAVY_ATOM_COUNT>
45
> <PUBCHEM_ATOM_DEF_STEREO_COUNT>
3
> <PUBCHEM_ATOM_UDEF_STEREO_COUNT>
1
> <PUBCHEM_BOND_DEF_STEREO_COUNT>
0
> <PUBCHEM_BOND_UDEF_STEREO_COUNT>
0
> <PUBCHEM_ISOTOPIC_ATOM_COUNT>
0
> <PUBCHEM_COMPONENT_COUNT>
1
> <PUBCHEM_CACTVS_TAUTO_COUNT>
-1
> <PUBCHEM_COORDINATE_TYPE>
1
5
255
> <PUBCHEM_BONDANNOTATIONS>
16  10  6
17  23  3
12  2  5
22  28  8
22  29  8
24  30  8
24  31  8
28  33  8
29  34  8
30  36  8
31  37  8
33  35  8
34  35  8
36  38  8
37  38  8
40  41  8
40  42  8
41  43  8
42  44  8
43  45  8
44  45  8
11  9  6
$$$$
