508354
  -OEChem-10302200282D
 76 79  0     1  0  0  0  0  0999 V2000
    7.0000   -5.1298    0.0000 F   0  0  0  0  0  0  0  0  0  0  0  0
    7.0878    0.1234    0.0000 O   0  0  0  0  0  0  0  0  0  0  0  0
    8.9851    1.7371    0.0000 O   0  0  0  0  0  0  0  0  0  0  0  0
    8.9851    0.1276    0.0000 O   0  0  0  0  0  0  0  0  0  0  0  0
    6.7788    2.6924    0.0000 O   0  0  0  0  0  0  0  0  0  0  0  0
    3.5000    2.6644    0.0000 O   0  0  0  0  0  0  0  0  0  0  0  0
    6.5000   -0.7997    0.0000 O   0  0  0  0  0  0  0  0  0  0  0  0
    3.5000    0.9324    0.0000 O   0  0  0  0  0  0  0  0  0  0  0  0
    5.0000    0.0664    0.0000 N   0  0  0  0  0  0  0  0  0  0  0  0
    5.0000   -1.6657    0.0000 N   0  0  0  0  0  0  0  0  0  0  0  0
    8.0388    1.4324    0.0000 C   0  0  2  0  0  0  0  0  0  0  0  0
    6.5000    0.9324    0.0000 C   0  0  3  0  0  0  0  0  0  0  0  0
    7.0878    1.7414    0.0000 C   0  0  2  0  0  0  0  0  0  0  0  0
    8.0388    0.4324    0.0000 C   0  0  2  0  0  0  0  0  0  0  0  0
    5.5000    0.9324    0.0000 C   0  0  2  0  0  0  0  0  0  0  0  0
    9.5687    0.9324    0.0000 C   0  0  0  0  0  0  0  0  0  0  0  0
    5.0000    1.7984    0.0000 C   0  0  0  0  0  0  0  0  0  0  0  0
   10.3777    0.3446    0.0000 C   0  0  0  0  0  0  0  0  0  0  0  0
   10.3777    1.5202    0.0000 C   0  0  0  0  0  0  0  0  0  0  0  0
    4.0000    0.0664    0.0000 C   0  0  0  0  0  0  0  0  0  0  0  0
    5.5000   -0.7997    0.0000 C   0  0  0  0  0  0  0  0  0  0  0  0
    7.4479    3.4356    0.0000 C   0  0  0  0  0  0  0  0  0  0  0  0
    4.0000    1.7984    0.0000 C   0  0  0  0  0  0  0  0  0  0  0  0
    3.5000   -0.7997    0.0000 C   0  0  0  0  0  0  0  0  0  0  0  0
    2.5000   -0.7997    0.0000 C   0  0  0  0  0  0  0  0  0  0  0  0
    7.1389    4.3867    0.0000 C   0  0  0  0  0  0  0  0  0  0  0  0
    8.4260    3.2277    0.0000 C   0  0  0  0  0  0  0  0  0  0  0  0
    2.0000   -1.6657    0.0000 C   0  0  0  0  0  0  0  0  0  0  0  0
    7.8080    5.1298    0.0000 C   0  0  0  0  0  0  0  0  0  0  0  0
    9.0952    3.9708    0.0000 C   0  0  0  0  0  0  0  0  0  0  0  0
    5.5000   -2.5317    0.0000 C   0  0  0  0  0  0  0  0  0  0  0  0
    2.5000    2.6644    0.0000 C   0  0  0  0  0  0  0  0  0  0  0  0
    8.7862    4.9219    0.0000 C   0  0  0  0  0  0  0  0  0  0  0  0
    5.0000   -3.3978    0.0000 C   0  0  0  0  0  0  0  0  0  0  0  0
    6.5000   -2.5317    0.0000 C   0  0  0  0  0  0  0  0  0  0  0  0
    2.0000    3.5305    0.0000 C   0  0  0  0  0  0  0  0  0  0  0  0
    5.5000   -4.2638    0.0000 C   0  0  0  0  0  0  0  0  0  0  0  0
    7.0000   -3.3978    0.0000 C   0  0  0  0  0  0  0  0  0  0  0  0
    6.5000   -4.2638    0.0000 C   0  0  0  0  0  0  0  0  0  0  0  0
    8.0399    2.2824    0.0000 H   0  0  0  0  0  0  0  0  0  0  0  0
    7.1200    0.9324    0.0000 H   0  0  0  0  0  0  0  0  0  0  0  0
    7.5262    2.1798    0.0000 H   0  0  0  0  0  0  0  0  0  0  0  0
    8.0399   -0.4176    0.0000 H   0  0  0  0  0  0  0  0  0  0  0  0
    5.8100    0.3954    0.0000 H   0  0  0  0  0  0  0  0  0  0  0  0
    5.5826    2.0105    0.0000 H   0  0  0  0  0  0  0  0  0  0  0  0
    4.8923    2.4090    0.0000 H   0  0  0  0  0  0  0  0  0  0  0  0
   10.0133   -0.1570    0.0000 H   0  0  0  0  0  0  0  0  0  0  0  0
   10.8793   -0.0198    0.0000 H   0  0  0  0  0  0  0  0  0  0  0  0
   10.7421    0.8462    0.0000 H   0  0  0  0  0  0  0  0  0  0  0  0
   10.7421    1.0186    0.0000 H   0  0  0  0  0  0  0  0  0  0  0  0
   10.8793    1.8846    0.0000 H   0  0  0  0  0  0  0  0  0  0  0  0
   10.0133    2.0218    0.0000 H   0  0  0  0  0  0  0  0  0  0  0  0
    4.1077    0.6769    0.0000 H   0  0  0  0  0  0  0  0  0  0  0  0
    3.4174    0.2784    0.0000 H   0  0  0  0  0  0  0  0  0  0  0  0
    3.3923   -1.4102    0.0000 H   0  0  0  0  0  0  0  0  0  0  0  0
    4.0826   -1.0117    0.0000 H   0  0  0  0  0  0  0  0  0  0  0  0
    2.6077   -0.1891    0.0000 H   0  0  0  0  0  0  0  0  0  0  0  0
    1.9174   -0.5876    0.0000 H   0  0  0  0  0  0  0  0  0  0  0  0
    4.3800   -1.6657    0.0000 H   0  0  0  0  0  0  0  0  0  0  0  0
    6.5324    4.5156    0.0000 H   0  0  0  0  0  0  0  0  0  0  0  0
    8.6176    2.6380    0.0000 H   0  0  0  0  0  0  0  0  0  0  0  0
    1.4631   -1.3557    0.0000 H   0  0  0  0  0  0  0  0  0  0  0  0
    1.6900   -2.2026    0.0000 H   0  0  0  0  0  0  0  0  0  0  0  0
    2.5369   -1.9757    0.0000 H   0  0  0  0  0  0  0  0  0  0  0  0
    7.6164    5.7194    0.0000 H   0  0  0  0  0  0  0  0  0  0  0  0
    9.7016    3.8419    0.0000 H   0  0  0  0  0  0  0  0  0  0  0  0
    1.9174    2.4524    0.0000 H   0  0  0  0  0  0  0  0  0  0  0  0
    2.6077    2.0538    0.0000 H   0  0  0  0  0  0  0  0  0  0  0  0
    9.2010    5.3826    0.0000 H   0  0  0  0  0  0  0  0  0  0  0  0
    4.3800   -3.3978    0.0000 H   0  0  0  0  0  0  0  0  0  0  0  0
    6.8100   -1.9948    0.0000 H   0  0  0  0  0  0  0  0  0  0  0  0
    2.5369    3.8405    0.0000 H   0  0  0  0  0  0  0  0  0  0  0  0
    1.6900    4.0674    0.0000 H   0  0  0  0  0  0  0  0  0  0  0  0
    1.4631    3.2205    0.0000 H   0  0  0  0  0  0  0  0  0  0  0  0
    5.1900   -4.8007    0.0000 H   0  0  0  0  0  0  0  0  0  0  0  0
    7.6200   -3.3978    0.0000 H   0  0  0  0  0  0  0  0  0  0  0  0
  1 39  1  0  0  0  0
  2 12  1  0  0  0  0
  2 14  1  0  0  0  0
  3 11  1  0  0  0  0
  3 16  1  0  0  0  0
  4 14  1  0  0  0  0
  4 16  1  0  0  0  0
 13  5  1  6  0  0  0
  5 22  1  0  0  0  0
  6 23  1  0  0  0  0
  6 32  1  0  0  0  0
  7 21  2  0  0  0  0
  8 23  2  0  0  0  0
 15  9  1  1  0  0  0
  9 20  1  0  0  0  0
  9 21  1  0  0  0  0
 10 21  1  0  0  0  0
 10 31  1  0  0  0  0
 10 59  1  0  0  0  0
 11 13  1  0  0  0  0
 11 14  1  0  0  0  0
 11 40  1  6  0  0  0
 12 13  1  0  0  0  0
 12 15  1  0  0  0  0
 12 41  1  0  0  0  0
 13 42  1  0  0  0  0
 14 43  1  6  0  0  0
 15 17  1  0  0  0  0
 15 44  1  0  0  0  0
 16 18  1  0  0  0  0
 16 19  1  0  0  0  0
 17 23  1  0  0  0  0
 17 45  1  0  0  0  0
 17 46  1  0  0  0  0
 18 47  1  0  0  0  0
 18 48  1  0  0  0  0
 18 49  1  0  0  0  0
 19 50  1  0  0  0  0
 19 51  1  0  0  0  0
 19 52  1  0  0  0  0
 20 24  1  0  0  0  0
 20 53  1  0  0  0  0
 20 54  1  0  0  0  0
 22 26  2  0  0  0  0
 22 27  1  0  0  0  0
 24 25  1  0  0  0  0
 24 55  1  0  0  0  0
 24 56  1  0  0  0  0
 25 28  1  0  0  0  0
 25 57  1  0  0  0  0
 25 58  1  0  0  0  0
 26 29  1  0  0  0  0
 26 60  1  0  0  0  0
 27 30  2  0  0  0  0
 27 61  1  0  0  0  0
 28 62  1  0  0  0  0
 28 63  1  0  0  0  0
 28 64  1  0  0  0  0
 29 33  2  0  0  0  0
 29 65  1  0  0  0  0
 30 33  1  0  0  0  0
 30 66  1  0  0  0  0
 31 34  2  0  0  0  0
 31 35  1  0  0  0  0
 32 36  1  0  0  0  0
 32 67  1  0  0  0  0
 32 68  1  0  0  0  0
 33 69  1  0  0  0  0
 34 37  1  0  0  0  0
 34 70  1  0  0  0  0
 35 38  2  0  0  0  0
 35 71  1  0  0  0  0
 36 72  1  0  0  0  0
 36 73  1  0  0  0  0
 36 74  1  0  0  0  0
 37 39  2  0  0  0  0
 37 75  1  0  0  0  0
 38 39  1  0  0  0  0
 38 76  1  0  0  0  0
M  END
> <PUBCHEM_COMPOUND_CID>
508354
> <PUBCHEM_COMPOUND_CANONICALIZED>
1
> <PUBCHEM_CACTVS_COMPLEXITY>
801
> <PUBCHEM_CACTVS_HBOND_ACCEPTOR>
8
> <PUBCHEM_CACTVS_HBOND_DONOR>
1
> <PUBCHEM_CACTVS_ROTATABLE_BOND>
12
> <PUBCHEM_CACTVS_SUBSKEYS>
AAADcfB7OQAAAAAAAAAAAAAAAAAAASJAAAAwYAAAAAASAAABQAAAHwAQAAAACDzxkA8zzoPABACIACTSWACCCAAhIgAIiAEObIifJjrEsZunOCjv1hPe6Cf6/C/AAAAAAAAAAAAAAAAAAAAAAAAAAAAAAA==
> <PUBCHEM_IUPAC_OPENEYE_NAME>
ethyl (3S)-3-[(3aR,6S,6aR)-2,2-dimethyl-6-phenoxy-3a,5,6,6a-tetrahydrofuro[2,3-d][1,3]dioxol-5-yl]-3-[butyl-[(4-fluorophenyl)carbamoyl]amino]propanoate
> <PUBCHEM_IUPAC_CAS_NAME>
(3S)-3-[(3aR,6S,6aR)-2,2-dimethyl-6-phenoxy-3a,5,6,6a-tetrahydrofuro[2,3-d][1,3]dioxol-5-yl]-3-[butyl-[(4-fluoroanilino)-oxomethyl]amino]propanoic acid ethyl ester
> <PUBCHEM_IUPAC_NAME_MARKUP>
ethyl (3<I>S</I>)-3-[(3<I>a</I><I>R</I>,6<I>S</I>,6<I>a</I><I>R</I>)-2,2-dimethyl-6-phenoxy-3<I>a</I>,5,6,6<I>a</I>-tetrahydrofuro[2,3-d][1,3]dioxol-5-yl]-3-[butyl-[(4-fluorophenyl)carbamoyl]amino]propanoate
> <PUBCHEM_IUPAC_NAME>
ethyl (3S)-3-[(3aR,6S,6aR)-2,2-dimethyl-6-phenoxy-3a,5,6,6a-tetrahydrofuro[2,3-d][1,3]dioxol-5-yl]-3-[butyl-[(4-fluorophenyl)carbamoyl]amino]propanoate
> <PUBCHEM_IUPAC_SYSTEMATIC_NAME>
ethyl (3S)-3-[(3aR,6S,6aR)-2,2-dimethyl-6-phenoxy-3a,5,6,6a-tetrahydrofuro[2,3-d][1,3]dioxol-5-yl]-3-[butyl-[(4-fluorophenyl)carbamoyl]amino]propanoate
> <PUBCHEM_IUPAC_TRADITIONAL_NAME>
(3S)-3-[(3aR,6S,6aR)-2,2-dimethyl-6-phenoxy-3a,5,6,6a-tetrahydrofuro[2,3-d][1,3]dioxol-5-yl]-3-[butyl-[(4-fluorophenyl)carbamoyl]amino]propionic acid ethyl ester
> <PUBCHEM_IUPAC_INCHI>
InChI=1S/C29H37FN2O7/c1-5-7-17-32(28(34)31-20-15-13-19(30)14-16-20)22(18-23(33)35-6-2)24-25(36-21-11-9-8-10-12-21)26-27(37-24)39-29(3,4)38-26/h8-16,22,24-27H,5-7,17-18H2,1-4H3,(H,31,34)/t22-,24?,25-,26+,27+/m0/s1
> <PUBCHEM_IUPAC_INCHIKEY>
QFQITIYMAOSUTO-LFSLWVPISA-N
> <PUBCHEM_XLOGP3_AA>
4.6
> <PUBCHEM_EXACT_MASS>
544.25847969
> <PUBCHEM_MOLECULAR_FORMULA>
C29H37FN2O7
> <PUBCHEM_MOLECULAR_WEIGHT>
544.6
> <PUBCHEM_OPENEYE_CAN_SMILES>
CCCCN(C(CC(=O)OCC)C1C(C2C(O1)OC(O2)(C)C)OC3=CC=CC=C3)C(=O)NC4=CC=C(C=C4)F
> <PUBCHEM_OPENEYE_ISO_SMILES>
CCCCN([C@@H](CC(=O)OCC)C1[C@@H]([C@@H]2[C@H](O1)OC(O2)(C)C)OC3=CC=CC=C3)C(=O)NC4=CC=C(C=C4)F
> <PUBCHEM_CACTVS_TPSA>
95.6
> <PUBCHEM_MONOISOTOPIC_WEIGHT>
544.25847969
> <PUBCHEM_TOTAL_CHARGE>
0
> <PUBCHEM_HEAVY_ATOM_COUNT>
39
> <PUBCHEM_ATOM_DEF_STEREO_COUNT>
4
> <PUBCHEM_ATOM_UDEF_STEREO_COUNT>
1
> <PUBCHEM_BOND_DEF_STEREO_COUNT>
0
> <PUBCHEM_BOND_UDEF_STEREO_COUNT>
0
> <PUBCHEM_ISOTOPIC_ATOM_COUNT>
0
> <PUBCHEM_COMPONENT_COUNT>
1
> <PUBCHEM_CACTVS_TAUTO_COUNT>
-1
> <PUBCHEM_COORDINATE_TYPE>
1
5
255
> <PUBCHEM_BONDANNOTATIONS>
11  40  6
14  43  6
12  2  3
22  26  8
22  27  8
26  29  8
27  30  8
29  33  8
30  33  8
31  34  8
31  35  8
34  37  8
35  38  8
37  39  8
38  39  8
13  5  6
15  9  5
$$$$
