508335
  -OEChem-10302200282D
 83 85  0     1  0  0  0  0  0999 V2000
    8.9702   -1.4039    0.0000 P   0  0  0  0  0  0  0  0  0  0  0  0
    7.6811   -0.2472    0.0000 O   0  0  0  0  0  0  0  0  0  0  0  0
    8.0197   -1.7146    0.0000 O   0  0  0  0  0  0  0  0  0  0  0  0
   11.5486   -3.7174    0.0000 O   0  0  0  0  0  0  0  0  0  0  0  0
   11.2837    1.1744    0.0000 O   0  0  0  0  0  0  0  0  0  0  0  0
    9.9022   -4.2555    0.0000 O   0  0  0  0  0  0  0  0  0  0  0  0
   11.8218   -0.4719    0.0000 O   0  0  0  0  0  0  0  0  0  0  0  0
    4.2690    4.6648    0.0000 N   0  0  0  0  0  0  0  0  0  0  0  0
    3.4030    3.1648    0.0000 N   0  0  0  0  0  0  0  0  0  0  0  0
    6.0812    1.8601    0.0000 N   0  0  0  0  0  0  0  0  0  0  0  0
    6.0812    3.4696    0.0000 N   0  0  0  0  0  0  0  0  0  0  0  0
    4.2690    1.6648    0.0000 N   0  0  0  0  0  0  0  0  0  0  0  0
    9.2809   -2.3544    0.0000 N   0  0  0  0  0  0  0  0  0  0  0  0
    9.9208   -1.0932    0.0000 N   0  0  0  0  0  0  0  0  0  0  0  0
    2.5369    1.6648    0.0000 N   0  0  0  0  0  0  0  0  0  0  0  0
    3.4030    5.1648    0.0000 C   0  0  0  0  0  0  0  0  0  0  0  0
    2.9030    6.0309    0.0000 C   0  0  0  0  0  0  0  0  0  0  0  0
    2.4030    5.1648    0.0000 C   0  0  0  0  0  0  0  0  0  0  0  0
    4.2690    3.6648    0.0000 C   0  0  0  0  0  0  0  0  0  0  0  0
    5.1350    3.1648    0.0000 C   0  0  0  0  0  0  0  0  0  0  0  0
    5.1350    2.1648    0.0000 C   0  0  0  0  0  0  0  0  0  0  0  0
    6.3919    0.9096    0.0000 C   0  0  0  0  0  0  0  0  0  0  0  0
    3.4030    2.1648    0.0000 C   0  0  0  0  0  0  0  0  0  0  0  0
    6.6648    2.6648    0.0000 C   0  0  0  0  0  0  0  0  0  0  0  0
    7.3704    0.7034    0.0000 C   0  0  0  0  0  0  0  0  0  0  0  0
    8.6596   -0.4534    0.0000 C   0  0  0  0  0  0  0  0  0  0  0  0
   10.2594   -2.5606    0.0000 C   0  0  3  0  0  0  0  0  0  0  0  0
   10.1270   -0.1147    0.0000 C   0  0  3  0  0  0  0  0  0  0  0  0
   10.9272   -1.8163    0.0000 C   0  0  0  0  0  0  0  0  0  0  0  0
    9.3827    0.5531    0.0000 C   0  0  0  0  0  0  0  0  0  0  0  0
   10.5701   -3.5112    0.0000 C   0  0  0  0  0  0  0  0  0  0  0  0
   11.0775    0.1959    0.0000 C   0  0  0  0  0  0  0  0  0  0  0  0
   11.8592   -4.6679    0.0000 C   0  0  0  0  0  0  0  0  0  0  0  0
   12.2342    1.4851    0.0000 C   0  0  0  0  0  0  0  0  0  0  0  0
   12.8377   -4.8741    0.0000 C   0  0  0  0  0  0  0  0  0  0  0  0
   12.4404    2.4636    0.0000 C   0  0  0  0  0  0  0  0  0  0  0  0
   13.1484   -5.8246    0.0000 C   0  0  0  0  0  0  0  0  0  0  0  0
   13.3910    2.7743    0.0000 C   0  0  0  0  0  0  0  0  0  0  0  0
   14.1269   -6.0309    0.0000 C   0  0  0  0  0  0  0  0  0  0  0  0
   13.5972    3.7528    0.0000 C   0  0  0  0  0  0  0  0  0  0  0  0
    3.2425    4.5660    0.0000 H   0  0  0  0  0  0  0  0  0  0  0  0
    3.3779    6.4294    0.0000 H   0  0  0  0  0  0  0  0  0  0  0  0
    2.4280    6.4294    0.0000 H   0  0  0  0  0  0  0  0  0  0  0  0
    1.8204    5.3769    0.0000 H   0  0  0  0  0  0  0  0  0  0  0  0
    2.2953    4.5542    0.0000 H   0  0  0  0  0  0  0  0  0  0  0  0
    4.8059    4.9748    0.0000 H   0  0  0  0  0  0  0  0  0  0  0  0
    5.7781    0.8222    0.0000 H   0  0  0  0  0  0  0  0  0  0  0  0
    6.3713    0.2899    0.0000 H   0  0  0  0  0  0  0  0  0  0  0  0
    7.2848    2.6648    0.0000 H   0  0  0  0  0  0  0  0  0  0  0  0
    7.9842    0.7907    0.0000 H   0  0  0  0  0  0  0  0  0  0  0  0
    7.3910    1.3230    0.0000 H   0  0  0  0  0  0  0  0  0  0  0  0
    9.2734   -0.3660    0.0000 H   0  0  0  0  0  0  0  0  0  0  0  0
    8.6801    0.1663    0.0000 H   0  0  0  0  0  0  0  0  0  0  0  0
    8.8668   -2.8159    0.0000 H   0  0  0  0  0  0  0  0  0  0  0  0
   10.3822   -1.5073    0.0000 H   0  0  0  0  0  0  0  0  0  0  0  0
   10.0668   -1.9713    0.0000 H   0  0  0  0  0  0  0  0  0  0  0  0
   10.5884   -0.5288    0.0000 H   0  0  0  0  0  0  0  0  0  0  0  0
    2.5369    1.0448    0.0000 H   0  0  0  0  0  0  0  0  0  0  0  0
    2.0000    1.9748    0.0000 H   0  0  0  0  0  0  0  0  0  0  0  0
   11.3887   -2.2304    0.0000 H   0  0  0  0  0  0  0  0  0  0  0  0
   11.3413   -1.3549    0.0000 H   0  0  0  0  0  0  0  0  0  0  0  0
   10.4658   -1.4023    0.0000 H   0  0  0  0  0  0  0  0  0  0  0  0
    9.7967    1.0146    0.0000 H   0  0  0  0  0  0  0  0  0  0  0  0
    8.9212    0.9672    0.0000 H   0  0  0  0  0  0  0  0  0  0  0  0
    8.9686    0.0916    0.0000 H   0  0  0  0  0  0  0  0  0  0  0  0
   11.2454   -4.7552    0.0000 H   0  0  0  0  0  0  0  0  0  0  0  0
   11.8387   -5.2876    0.0000 H   0  0  0  0  0  0  0  0  0  0  0  0
   12.3216    0.8713    0.0000 H   0  0  0  0  0  0  0  0  0  0  0  0
   12.8539    1.4645    0.0000 H   0  0  0  0  0  0  0  0  0  0  0  0
   13.4516   -4.7868    0.0000 H   0  0  0  0  0  0  0  0  0  0  0  0
   12.8583   -4.2545    0.0000 H   0  0  0  0  0  0  0  0  0  0  0  0
   12.3531    3.0774    0.0000 H   0  0  0  0  0  0  0  0  0  0  0  0
   11.8208    2.4842    0.0000 H   0  0  0  0  0  0  0  0  0  0  0  0
   12.5346   -5.9120    0.0000 H   0  0  0  0  0  0  0  0  0  0  0  0
   13.1278   -6.4443    0.0000 H   0  0  0  0  0  0  0  0  0  0  0  0
   13.4783    2.1604    0.0000 H   0  0  0  0  0  0  0  0  0  0  0  0
   14.0106    2.7537    0.0000 H   0  0  0  0  0  0  0  0  0  0  0  0
   13.9990   -6.6375    0.0000 H   0  0  0  0  0  0  0  0  0  0  0  0
   14.7336   -6.1587    0.0000 H   0  0  0  0  0  0  0  0  0  0  0  0
   14.2548   -5.4242    0.0000 H   0  0  0  0  0  0  0  0  0  0  0  0
   14.2039    3.6249    0.0000 H   0  0  0  0  0  0  0  0  0  0  0  0
   13.7250    4.3594    0.0000 H   0  0  0  0  0  0  0  0  0  0  0  0
   12.9905    3.8806    0.0000 H   0  0  0  0  0  0  0  0  0  0  0  0
  1  3  2  0  0  0  0
  1 13  1  0  0  0  0
  1 14  1  0  0  0  0
  1 26  1  0  0  0  0
  2 25  1  0  0  0  0
  2 26  1  0  0  0  0
  4 31  1  0  0  0  0
  4 33  1  0  0  0  0
  5 32  1  0  0  0  0
  5 34  1  0  0  0  0
  6 31  2  0  0  0  0
  7 32  2  0  0  0  0
  8 16  1  0  0  0  0
  8 19  1  0  0  0  0
  8 46  1  0  0  0  0
  9 19  1  0  0  0  0
  9 23  2  0  0  0  0
 10 21  1  0  0  0  0
 10 22  1  0  0  0  0
 10 24  1  0  0  0  0
 11 20  1  0  0  0  0
 11 24  2  0  0  0  0
 12 21  2  0  0  0  0
 12 23  1  0  0  0  0
 13 27  1  0  0  0  0
 13 54  1  0  0  0  0
 14 28  1  0  0  0  0
 14 55  1  0  0  0  0
 15 23  1  0  0  0  0
 15 58  1  0  0  0  0
 15 59  1  0  0  0  0
 16 17  1  0  0  0  0
 16 18  1  0  0  0  0
 16 41  1  0  0  0  0
 17 18  1  0  0  0  0
 17 42  1  0  0  0  0
 17 43  1  0  0  0  0
 18 44  1  0  0  0  0
 18 45  1  0  0  0  0
 19 20  2  0  0  0  0
 20 21  1  0  0  0  0
 22 25  1  0  0  0  0
 22 47  1  0  0  0  0
 22 48  1  0  0  0  0
 24 49  1  0  0  0  0
 25 50  1  0  0  0  0
 25 51  1  0  0  0  0
 26 52  1  0  0  0  0
 26 53  1  0  0  0  0
 27 29  1  0  0  0  0
 27 31  1  0  0  0  0
 27 56  1  0  0  0  0
 28 30  1  0  0  0  0
 28 32  1  0  0  0  0
 28 57  1  0  0  0  0
 29 60  1  0  0  0  0
 29 61  1  0  0  0  0
 29 62  1  0  0  0  0
 30 63  1  0  0  0  0
 30 64  1  0  0  0  0
 30 65  1  0  0  0  0
 33 35  1  0  0  0  0
 33 66  1  0  0  0  0
 33 67  1  0  0  0  0
 34 36  1  0  0  0  0
 34 68  1  0  0  0  0
 34 69  1  0  0  0  0
 35 37  1  0  0  0  0
 35 70  1  0  0  0  0
 35 71  1  0  0  0  0
 36 38  1  0  0  0  0
 36 72  1  0  0  0  0
 36 73  1  0  0  0  0
 37 39  1  0  0  0  0
 37 74  1  0  0  0  0
 37 75  1  0  0  0  0
 38 40  1  0  0  0  0
 38 76  1  0  0  0  0
 38 77  1  0  0  0  0
 39 78  1  0  0  0  0
 39 79  1  0  0  0  0
 39 80  1  0  0  0  0
 40 81  1  0  0  0  0
 40 82  1  0  0  0  0
 40 83  1  0  0  0  0
M  END
> <PUBCHEM_COMPOUND_CID>
508335
> <PUBCHEM_COMPOUND_CANONICALIZED>
1
> <PUBCHEM_CACTVS_COMPLEXITY>
818
> <PUBCHEM_CACTVS_HBOND_ACCEPTOR>
13
> <PUBCHEM_CACTVS_HBOND_DONOR>
4
> <PUBCHEM_CACTVS_ROTATABLE_BOND>
21
> <PUBCHEM_CACTVS_SUBSKEYS>
AAADcfB7+AIAAAAAAAAAAAAAGAAAAWAAAAAsAAAAAAAAAFgB+AAAHggQgCAACCjhlwYH+L/MFACoQQbxbACAgC0REKABUKGoVBCCSABASEAXBAgMEALQACAAAAAAAAAAAAAAAAAAAAAAAAAAAAAAAAAAAA==
> <PUBCHEM_IUPAC_OPENEYE_NAME>
butyl 2-[[2-[2-amino-6-(cyclopropylamino)purin-9-yl]ethoxymethyl-[(2-butoxy-1-methyl-2-oxo-ethyl)amino]phosphoryl]amino]propanoate
> <PUBCHEM_IUPAC_CAS_NAME>
2-[[2-[2-amino-6-(cyclopropylamino)-9-purinyl]ethoxymethyl-[(1-butoxy-1-oxopropan-2-yl)amino]phosphoryl]amino]propanoic acid butyl ester
> <PUBCHEM_IUPAC_NAME_MARKUP>
butyl 2-[[2-[2-amino-6-(cyclopropylamino)purin-9-yl]ethoxymethyl-[(1-butoxy-1-oxopropan-2-yl)amino]phosphoryl]amino]propanoate
> <PUBCHEM_IUPAC_NAME>
butyl 2-[[2-[2-amino-6-(cyclopropylamino)purin-9-yl]ethoxymethyl-[(1-butoxy-1-oxopropan-2-yl)amino]phosphoryl]amino]propanoate
> <PUBCHEM_IUPAC_SYSTEMATIC_NAME>
butyl 2-[[2-[2-azanyl-6-(cyclopropylamino)purin-9-yl]ethoxymethyl-[(1-butoxy-1-oxidanylidene-propan-2-yl)amino]phosphoryl]amino]propanoate
> <PUBCHEM_IUPAC_TRADITIONAL_NAME>
2-[[2-[2-amino-6-(cyclopropylamino)purin-9-yl]ethoxymethyl-[(2-butoxy-2-keto-1-methyl-ethyl)amino]phosphoryl]amino]propionic acid butyl ester
> <PUBCHEM_IUPAC_INCHI>
InChI=1S/C25H43N8O6P/c1-5-7-12-38-23(34)17(3)31-40(36,32-18(4)24(35)39-13-8-6-2)16-37-14-11-33-15-27-20-21(28-19-9-10-19)29-25(26)30-22(20)33/h15,17-19H,5-14,16H2,1-4H3,(H2,31,32,36)(H3,26,28,29,30)
> <PUBCHEM_IUPAC_INCHIKEY>
NLRIYYKRLDGZNK-UHFFFAOYSA-N
> <PUBCHEM_XLOGP3_AA>
2.3
> <PUBCHEM_EXACT_MASS>
582.30431812
> <PUBCHEM_MOLECULAR_FORMULA>
C25H43N8O6P
> <PUBCHEM_MOLECULAR_WEIGHT>
582.6
> <PUBCHEM_OPENEYE_CAN_SMILES>
CCCCOC(=O)C(C)NP(=O)(COCCN1C=NC2=C(N=C(N=C21)N)NC3CC3)NC(C)C(=O)OCCCC
> <PUBCHEM_OPENEYE_ISO_SMILES>
CCCCOC(=O)C(C)NP(=O)(COCCN1C=NC2=C(N=C(N=C21)N)NC3CC3)NC(C)C(=O)OCCCC
> <PUBCHEM_CACTVS_TPSA>
185
> <PUBCHEM_MONOISOTOPIC_WEIGHT>
582.30431812
> <PUBCHEM_TOTAL_CHARGE>
0
> <PUBCHEM_HEAVY_ATOM_COUNT>
40
> <PUBCHEM_ATOM_DEF_STEREO_COUNT>
0
> <PUBCHEM_ATOM_UDEF_STEREO_COUNT>
2
> <PUBCHEM_BOND_DEF_STEREO_COUNT>
0
> <PUBCHEM_BOND_UDEF_STEREO_COUNT>
0
> <PUBCHEM_ISOTOPIC_ATOM_COUNT>
0
> <PUBCHEM_COMPONENT_COUNT>
1
> <PUBCHEM_CACTVS_TAUTO_COUNT>
-1
> <PUBCHEM_COORDINATE_TYPE>
1
5
255
> <PUBCHEM_BONDANNOTATIONS>
10  21  8
10  24  8
11  20  8
11  24  8
12  21  8
12  23  8
19  20  8
20  21  8
27  29  3
28  30  3
9  19  8
9  23  8
$$$$
