508344
  -OEChem-10302200282D
 69 71  0     1  0  0  0  0  0999 V2000
    7.0000   -4.7631    0.0000 F   0  0  0  0  0  0  0  0  0  0  0  0
    7.0878    0.4900    0.0000 O   0  0  0  0  0  0  0  0  0  0  0  0
    8.9851    2.1038    0.0000 O   0  0  0  0  0  0  0  0  0  0  0  0
    8.9851    0.4943    0.0000 O   0  0  0  0  0  0  0  0  0  0  0  0
    6.7788    3.0591    0.0000 O   0  0  0  0  0  0  0  0  0  0  0  0
    3.5000    3.0311    0.0000 O   0  0  0  0  0  0  0  0  0  0  0  0
    6.5000   -0.4330    0.0000 O   0  0  0  0  0  0  0  0  0  0  0  0
    3.5000    1.2990    0.0000 O   0  0  0  0  0  0  0  0  0  0  0  0
    5.0000    0.4330    0.0000 N   0  0  0  0  0  0  0  0  0  0  0  0
    5.0000   -1.2990    0.0000 N   0  0  0  0  0  0  0  0  0  0  0  0
    8.0388    1.7990    0.0000 C   0  0  2  0  0  0  0  0  0  0  0  0
    6.5000    1.2990    0.0000 C   0  0  3  0  0  0  0  0  0  0  0  0
    7.0878    2.1081    0.0000 C   0  0  2  0  0  0  0  0  0  0  0  0
    8.0388    0.7990    0.0000 C   0  0  2  0  0  0  0  0  0  0  0  0
    5.5000    1.2990    0.0000 C   0  0  2  0  0  0  0  0  0  0  0  0
    9.5687    1.2990    0.0000 C   0  0  0  0  0  0  0  0  0  0  0  0
    5.0000    2.1651    0.0000 C   0  0  0  0  0  0  0  0  0  0  0  0
   10.3777    0.7113    0.0000 C   0  0  0  0  0  0  0  0  0  0  0  0
   10.3777    1.8868    0.0000 C   0  0  0  0  0  0  0  0  0  0  0  0
    4.0000    0.4330    0.0000 C   0  0  0  0  0  0  0  0  0  0  0  0
    5.5000   -0.4330    0.0000 C   0  0  0  0  0  0  0  0  0  0  0  0
    4.0000    2.1651    0.0000 C   0  0  0  0  0  0  0  0  0  0  0  0
    7.4479    3.8023    0.0000 C   0  0  0  0  0  0  0  0  0  0  0  0
    3.5000   -0.4330    0.0000 C   0  0  0  0  0  0  0  0  0  0  0  0
    2.5000   -0.4330    0.0000 C   0  0  0  0  0  0  0  0  0  0  0  0
    2.0000   -1.2990    0.0000 C   0  0  0  0  0  0  0  0  0  0  0  0
    5.5000   -2.1651    0.0000 C   0  0  0  0  0  0  0  0  0  0  0  0
    4.0000    3.8971    0.0000 C   0  0  0  0  0  0  0  0  0  0  0  0
    5.0000   -3.0311    0.0000 C   0  0  0  0  0  0  0  0  0  0  0  0
    6.5000   -2.1651    0.0000 C   0  0  0  0  0  0  0  0  0  0  0  0
    3.5000    4.7631    0.0000 C   0  0  0  0  0  0  0  0  0  0  0  0
    5.5000   -3.8971    0.0000 C   0  0  0  0  0  0  0  0  0  0  0  0
    7.0000   -3.0311    0.0000 C   0  0  0  0  0  0  0  0  0  0  0  0
    6.5000   -3.8971    0.0000 C   0  0  0  0  0  0  0  0  0  0  0  0
    8.0399    2.6490    0.0000 H   0  0  0  0  0  0  0  0  0  0  0  0
    6.2185    0.7466    0.0000 H   0  0  0  0  0  0  0  0  0  0  0  0
    7.5262    2.5465    0.0000 H   0  0  0  0  0  0  0  0  0  0  0  0
    8.0399   -0.0510    0.0000 H   0  0  0  0  0  0  0  0  0  0  0  0
    4.8800    1.2990    0.0000 H   0  0  0  0  0  0  0  0  0  0  0  0
    5.5826    2.3771    0.0000 H   0  0  0  0  0  0  0  0  0  0  0  0
    4.8923    2.7756    0.0000 H   0  0  0  0  0  0  0  0  0  0  0  0
   10.0133    0.2097    0.0000 H   0  0  0  0  0  0  0  0  0  0  0  0
   10.8793    0.3468    0.0000 H   0  0  0  0  0  0  0  0  0  0  0  0
   10.7421    1.2128    0.0000 H   0  0  0  0  0  0  0  0  0  0  0  0
   10.7421    1.3852    0.0000 H   0  0  0  0  0  0  0  0  0  0  0  0
   10.8793    2.2513    0.0000 H   0  0  0  0  0  0  0  0  0  0  0  0
   10.0133    2.3884    0.0000 H   0  0  0  0  0  0  0  0  0  0  0  0
    4.1077    1.0436    0.0000 H   0  0  0  0  0  0  0  0  0  0  0  0
    3.4174    0.6451    0.0000 H   0  0  0  0  0  0  0  0  0  0  0  0
    7.9086    3.3874    0.0000 H   0  0  0  0  0  0  0  0  0  0  0  0
    7.8628    4.2630    0.0000 H   0  0  0  0  0  0  0  0  0  0  0  0
    6.9872    4.2171    0.0000 H   0  0  0  0  0  0  0  0  0  0  0  0
    3.3923   -1.0436    0.0000 H   0  0  0  0  0  0  0  0  0  0  0  0
    4.0826   -0.6451    0.0000 H   0  0  0  0  0  0  0  0  0  0  0  0
    2.6077    0.1776    0.0000 H   0  0  0  0  0  0  0  0  0  0  0  0
    1.9174   -0.2210    0.0000 H   0  0  0  0  0  0  0  0  0  0  0  0
    4.3800   -1.2990    0.0000 H   0  0  0  0  0  0  0  0  0  0  0  0
    1.4631   -0.9890    0.0000 H   0  0  0  0  0  0  0  0  0  0  0  0
    1.6900   -1.8360    0.0000 H   0  0  0  0  0  0  0  0  0  0  0  0
    2.5369   -1.6090    0.0000 H   0  0  0  0  0  0  0  0  0  0  0  0
    4.4750    3.4986    0.0000 H   0  0  0  0  0  0  0  0  0  0  0  0
    4.4750    4.2956    0.0000 H   0  0  0  0  0  0  0  0  0  0  0  0
    4.3800   -3.0311    0.0000 H   0  0  0  0  0  0  0  0  0  0  0  0
    6.8100   -1.6281    0.0000 H   0  0  0  0  0  0  0  0  0  0  0  0
    4.0369    5.0731    0.0000 H   0  0  0  0  0  0  0  0  0  0  0  0
    3.1900    5.3001    0.0000 H   0  0  0  0  0  0  0  0  0  0  0  0
    2.9631    4.4531    0.0000 H   0  0  0  0  0  0  0  0  0  0  0  0
    5.1900   -4.4340    0.0000 H   0  0  0  0  0  0  0  0  0  0  0  0
    7.6200   -3.0311    0.0000 H   0  0  0  0  0  0  0  0  0  0  0  0
  1 34  1  0  0  0  0
  2 12  1  0  0  0  0
  2 14  1  0  0  0  0
  3 11  1  0  0  0  0
  3 16  1  0  0  0  0
  4 14  1  0  0  0  0
  4 16  1  0  0  0  0
 13  5  1  6  0  0  0
  5 23  1  0  0  0  0
  6 22  1  0  0  0  0
  6 28  1  0  0  0  0
  7 21  2  0  0  0  0
  8 22  2  0  0  0  0
 15  9  1  1  0  0  0
  9 20  1  0  0  0  0
  9 21  1  0  0  0  0
 10 21  1  0  0  0  0
 10 27  1  0  0  0  0
 10 57  1  0  0  0  0
 11 13  1  0  0  0  0
 11 14  1  0  0  0  0
 11 35  1  6  0  0  0
 12 13  1  0  0  0  0
 12 15  1  0  0  0  0
 12 36  1  0  0  0  0
 13 37  1  0  0  0  0
 14 38  1  6  0  0  0
 15 17  1  0  0  0  0
 15 39  1  0  0  0  0
 16 18  1  0  0  0  0
 16 19  1  0  0  0  0
 17 22  1  0  0  0  0
 17 40  1  0  0  0  0
 17 41  1  0  0  0  0
 18 42  1  0  0  0  0
 18 43  1  0  0  0  0
 18 44  1  0  0  0  0
 19 45  1  0  0  0  0
 19 46  1  0  0  0  0
 19 47  1  0  0  0  0
 20 24  1  0  0  0  0
 20 48  1  0  0  0  0
 20 49  1  0  0  0  0
 23 50  1  0  0  0  0
 23 51  1  0  0  0  0
 23 52  1  0  0  0  0
 24 25  1  0  0  0  0
 24 53  1  0  0  0  0
 24 54  1  0  0  0  0
 25 26  1  0  0  0  0
 25 55  1  0  0  0  0
 25 56  1  0  0  0  0
 26 58  1  0  0  0  0
 26 59  1  0  0  0  0
 26 60  1  0  0  0  0
 27 29  2  0  0  0  0
 27 30  1  0  0  0  0
 28 31  1  0  0  0  0
 28 61  1  0  0  0  0
 28 62  1  0  0  0  0
 29 32  1  0  0  0  0
 29 63  1  0  0  0  0
 30 33  2  0  0  0  0
 30 64  1  0  0  0  0
 31 65  1  0  0  0  0
 31 66  1  0  0  0  0
 31 67  1  0  0  0  0
 32 34  2  0  0  0  0
 32 68  1  0  0  0  0
 33 34  1  0  0  0  0
 33 69  1  0  0  0  0
M  END
> <PUBCHEM_COMPOUND_CID>
508344
> <PUBCHEM_COMPOUND_CANONICALIZED>
1
> <PUBCHEM_CACTVS_COMPLEXITY>
686
> <PUBCHEM_CACTVS_HBOND_ACCEPTOR>
8
> <PUBCHEM_CACTVS_HBOND_DONOR>
1
> <PUBCHEM_CACTVS_ROTATABLE_BOND>
11
> <PUBCHEM_CACTVS_SUBSKEYS>
AAADcfB7OQAAAAAAAAAAAAAAAAAAASJAAAAwAAAAAAASAAABAAAAHwAQAAAACDzxkA8zyIPABACIACTSWACCAAAhAgAIiAEIZIibIDrAkZGnIAhvlgLeyCf6/C/AAAAAAAAAAAAAAAAAAAAAAAAAAAAAAA==
> <PUBCHEM_IUPAC_OPENEYE_NAME>
ethyl (3S)-3-[(3aR,6S,6aR)-6-methoxy-2,2-dimethyl-3a,5,6,6a-tetrahydrofuro[2,3-d][1,3]dioxol-5-yl]-3-[butyl-[(4-fluorophenyl)carbamoyl]amino]propanoate
> <PUBCHEM_IUPAC_CAS_NAME>
(3S)-3-[(3aR,6S,6aR)-6-methoxy-2,2-dimethyl-3a,5,6,6a-tetrahydrofuro[2,3-d][1,3]dioxol-5-yl]-3-[butyl-[(4-fluoroanilino)-oxomethyl]amino]propanoic acid ethyl ester
> <PUBCHEM_IUPAC_NAME_MARKUP>
ethyl (3<I>S</I>)-3-[(3<I>a</I><I>R</I>,6<I>S</I>,6<I>a</I><I>R</I>)-6-methoxy-2,2-dimethyl-3<I>a</I>,5,6,6<I>a</I>-tetrahydrofuro[2,3-d][1,3]dioxol-5-yl]-3-[butyl-[(4-fluorophenyl)carbamoyl]amino]propanoate
> <PUBCHEM_IUPAC_NAME>
ethyl (3S)-3-[(3aR,6S,6aR)-6-methoxy-2,2-dimethyl-3a,5,6,6a-tetrahydrofuro[2,3-d][1,3]dioxol-5-yl]-3-[butyl-[(4-fluorophenyl)carbamoyl]amino]propanoate
> <PUBCHEM_IUPAC_SYSTEMATIC_NAME>
ethyl (3S)-3-[(3aR,6S,6aR)-6-methoxy-2,2-dimethyl-3a,5,6,6a-tetrahydrofuro[2,3-d][1,3]dioxol-5-yl]-3-[butyl-[(4-fluorophenyl)carbamoyl]amino]propanoate
> <PUBCHEM_IUPAC_TRADITIONAL_NAME>
(3S)-3-[(3aR,6S,6aR)-6-methoxy-2,2-dimethyl-3a,5,6,6a-tetrahydrofuro[2,3-d][1,3]dioxol-5-yl]-3-[butyl-[(4-fluorophenyl)carbamoyl]amino]propionic acid ethyl ester
> <PUBCHEM_IUPAC_INCHI>
InChI=1S/C24H35FN2O7/c1-6-8-13-27(23(29)26-16-11-9-15(25)10-12-16)17(14-18(28)31-7-2)19-20(30-5)21-22(32-19)34-24(3,4)33-21/h9-12,17,19-22H,6-8,13-14H2,1-5H3,(H,26,29)/t17-,19?,20-,21+,22+/m0/s1
> <PUBCHEM_IUPAC_INCHIKEY>
BRSWUWHPZJXJBI-OGAVPMENSA-N
> <PUBCHEM_XLOGP3_AA>
2.8
> <PUBCHEM_EXACT_MASS>
482.24282962
> <PUBCHEM_MOLECULAR_FORMULA>
C24H35FN2O7
> <PUBCHEM_MOLECULAR_WEIGHT>
482.5
> <PUBCHEM_OPENEYE_CAN_SMILES>
CCCCN(C(CC(=O)OCC)C1C(C2C(O1)OC(O2)(C)C)OC)C(=O)NC3=CC=C(C=C3)F
> <PUBCHEM_OPENEYE_ISO_SMILES>
CCCCN([C@@H](CC(=O)OCC)C1[C@@H]([C@@H]2[C@H](O1)OC(O2)(C)C)OC)C(=O)NC3=CC=C(C=C3)F
> <PUBCHEM_CACTVS_TPSA>
95.6
> <PUBCHEM_MONOISOTOPIC_WEIGHT>
482.24282962
> <PUBCHEM_TOTAL_CHARGE>
0
> <PUBCHEM_HEAVY_ATOM_COUNT>
34
> <PUBCHEM_ATOM_DEF_STEREO_COUNT>
4
> <PUBCHEM_ATOM_UDEF_STEREO_COUNT>
1
> <PUBCHEM_BOND_DEF_STEREO_COUNT>
0
> <PUBCHEM_BOND_UDEF_STEREO_COUNT>
0
> <PUBCHEM_ISOTOPIC_ATOM_COUNT>
0
> <PUBCHEM_COMPONENT_COUNT>
1
> <PUBCHEM_CACTVS_TAUTO_COUNT>
-1
> <PUBCHEM_COORDINATE_TYPE>
1
5
255
> <PUBCHEM_BONDANNOTATIONS>
11  35  6
14  38  6
12  2  3
27  29  8
27  30  8
29  32  8
30  33  8
32  34  8
33  34  8
13  5  6
15  9  5
$$$$
