508346
  -OEChem-10302200282D
 93 95  0     1  0  0  0  0  0999 V2000
   13.0000   -4.7631    0.0000 Cl  0  0  0  0  0  0  0  0  0  0  0  0
   13.0878    0.4900    0.0000 O   0  0  0  0  0  0  0  0  0  0  0  0
   14.9851    2.1038    0.0000 O   0  0  0  0  0  0  0  0  0  0  0  0
   14.9851    0.4943    0.0000 O   0  0  0  0  0  0  0  0  0  0  0  0
   12.7788    3.0591    0.0000 O   0  0  0  0  0  0  0  0  0  0  0  0
    9.5000    3.0311    0.0000 O   0  0  0  0  0  0  0  0  0  0  0  0
   12.5000   -0.4330    0.0000 O   0  0  0  0  0  0  0  0  0  0  0  0
    9.5000    1.2990    0.0000 O   0  0  0  0  0  0  0  0  0  0  0  0
   11.0000    0.4330    0.0000 N   0  0  0  0  0  0  0  0  0  0  0  0
   11.0000   -1.2990    0.0000 N   0  0  0  0  0  0  0  0  0  0  0  0
   14.0388    1.7990    0.0000 C   0  0  2  0  0  0  0  0  0  0  0  0
   12.5000    1.2990    0.0000 C   0  0  3  0  0  0  0  0  0  0  0  0
   13.0878    2.1081    0.0000 C   0  0  2  0  0  0  0  0  0  0  0  0
   14.0388    0.7990    0.0000 C   0  0  2  0  0  0  0  0  0  0  0  0
   11.5000    1.2990    0.0000 C   0  0  2  0  0  0  0  0  0  0  0  0
   15.5687    1.2990    0.0000 C   0  0  0  0  0  0  0  0  0  0  0  0
   11.0000    2.1651    0.0000 C   0  0  0  0  0  0  0  0  0  0  0  0
   16.3777    0.7113    0.0000 C   0  0  0  0  0  0  0  0  0  0  0  0
   16.3777    1.8868    0.0000 C   0  0  0  0  0  0  0  0  0  0  0  0
   10.0000    0.4330    0.0000 C   0  0  0  0  0  0  0  0  0  0  0  0
    9.5000   -0.4330    0.0000 C   0  0  0  0  0  0  0  0  0  0  0  0
   11.5000   -0.4330    0.0000 C   0  0  0  0  0  0  0  0  0  0  0  0
   10.0000    2.1651    0.0000 C   0  0  0  0  0  0  0  0  0  0  0  0
   13.4479    3.8023    0.0000 C   0  0  0  0  0  0  0  0  0  0  0  0
    8.5000   -0.4330    0.0000 C   0  0  0  0  0  0  0  0  0  0  0  0
    8.0000   -1.2990    0.0000 C   0  0  0  0  0  0  0  0  0  0  0  0
    7.0000   -1.2990    0.0000 C   0  0  0  0  0  0  0  0  0  0  0  0
    6.5000   -2.1651    0.0000 C   0  0  0  0  0  0  0  0  0  0  0  0
   11.5000   -2.1651    0.0000 C   0  0  0  0  0  0  0  0  0  0  0  0
   10.0000    3.8971    0.0000 C   0  0  0  0  0  0  0  0  0  0  0  0
    5.5000   -2.1651    0.0000 C   0  0  0  0  0  0  0  0  0  0  0  0
    5.0000   -3.0311    0.0000 C   0  0  0  0  0  0  0  0  0  0  0  0
    4.0000   -3.0311    0.0000 C   0  0  0  0  0  0  0  0  0  0  0  0
   11.0000   -3.0311    0.0000 C   0  0  0  0  0  0  0  0  0  0  0  0
   12.5000   -2.1651    0.0000 C   0  0  0  0  0  0  0  0  0  0  0  0
    9.5000    4.7631    0.0000 C   0  0  0  0  0  0  0  0  0  0  0  0
    3.5000   -3.8971    0.0000 C   0  0  0  0  0  0  0  0  0  0  0  0
   11.5000   -3.8971    0.0000 C   0  0  0  0  0  0  0  0  0  0  0  0
   13.0000   -3.0311    0.0000 C   0  0  0  0  0  0  0  0  0  0  0  0
    2.5000   -3.8971    0.0000 C   0  0  0  0  0  0  0  0  0  0  0  0
   12.5000   -3.8971    0.0000 C   0  0  0  0  0  0  0  0  0  0  0  0
    2.0000   -4.7631    0.0000 C   0  0  0  0  0  0  0  0  0  0  0  0
   14.0399    2.6490    0.0000 H   0  0  0  0  0  0  0  0  0  0  0  0
   12.2185    0.7466    0.0000 H   0  0  0  0  0  0  0  0  0  0  0  0
   13.5262    2.5465    0.0000 H   0  0  0  0  0  0  0  0  0  0  0  0
   14.0399   -0.0510    0.0000 H   0  0  0  0  0  0  0  0  0  0  0  0
   10.8800    1.2990    0.0000 H   0  0  0  0  0  0  0  0  0  0  0  0
   11.5826    2.3771    0.0000 H   0  0  0  0  0  0  0  0  0  0  0  0
   10.8923    2.7756    0.0000 H   0  0  0  0  0  0  0  0  0  0  0  0
   16.0133    0.2097    0.0000 H   0  0  0  0  0  0  0  0  0  0  0  0
   16.8793    0.3468    0.0000 H   0  0  0  0  0  0  0  0  0  0  0  0
   16.7421    1.2128    0.0000 H   0  0  0  0  0  0  0  0  0  0  0  0
   16.7421    1.3852    0.0000 H   0  0  0  0  0  0  0  0  0  0  0  0
   16.8793    2.2513    0.0000 H   0  0  0  0  0  0  0  0  0  0  0  0
   16.0133    2.3884    0.0000 H   0  0  0  0  0  0  0  0  0  0  0  0
   10.1077    1.0436    0.0000 H   0  0  0  0  0  0  0  0  0  0  0  0
    9.4174    0.6451    0.0000 H   0  0  0  0  0  0  0  0  0  0  0  0
    9.3923   -1.0436    0.0000 H   0  0  0  0  0  0  0  0  0  0  0  0
   10.0826   -0.6451    0.0000 H   0  0  0  0  0  0  0  0  0  0  0  0
   13.9086    3.3874    0.0000 H   0  0  0  0  0  0  0  0  0  0  0  0
   13.8628    4.2630    0.0000 H   0  0  0  0  0  0  0  0  0  0  0  0
   12.9871    4.2171    0.0000 H   0  0  0  0  0  0  0  0  0  0  0  0
    8.6077    0.1776    0.0000 H   0  0  0  0  0  0  0  0  0  0  0  0
    7.9174   -0.2210    0.0000 H   0  0  0  0  0  0  0  0  0  0  0  0
    7.8923   -1.9096    0.0000 H   0  0  0  0  0  0  0  0  0  0  0  0
    8.5826   -1.5111    0.0000 H   0  0  0  0  0  0  0  0  0  0  0  0
   10.3800   -1.2990    0.0000 H   0  0  0  0  0  0  0  0  0  0  0  0
    7.1077   -0.6885    0.0000 H   0  0  0  0  0  0  0  0  0  0  0  0
    6.4174   -1.0870    0.0000 H   0  0  0  0  0  0  0  0  0  0  0  0
    6.3923   -2.7756    0.0000 H   0  0  0  0  0  0  0  0  0  0  0  0
    7.0826   -2.3771    0.0000 H   0  0  0  0  0  0  0  0  0  0  0  0
   10.4749    3.4986    0.0000 H   0  0  0  0  0  0  0  0  0  0  0  0
   10.4749    4.2956    0.0000 H   0  0  0  0  0  0  0  0  0  0  0  0
    5.6077   -1.5545    0.0000 H   0  0  0  0  0  0  0  0  0  0  0  0
    4.9174   -1.9530    0.0000 H   0  0  0  0  0  0  0  0  0  0  0  0
    4.8923   -3.6417    0.0000 H   0  0  0  0  0  0  0  0  0  0  0  0
    5.5826   -3.2431    0.0000 H   0  0  0  0  0  0  0  0  0  0  0  0
    4.1077   -2.4205    0.0000 H   0  0  0  0  0  0  0  0  0  0  0  0
    3.4174   -2.8190    0.0000 H   0  0  0  0  0  0  0  0  0  0  0  0
   10.3800   -3.0311    0.0000 H   0  0  0  0  0  0  0  0  0  0  0  0
   12.8100   -1.6281    0.0000 H   0  0  0  0  0  0  0  0  0  0  0  0
   10.0369    5.0731    0.0000 H   0  0  0  0  0  0  0  0  0  0  0  0
    9.1900    5.3001    0.0000 H   0  0  0  0  0  0  0  0  0  0  0  0
    8.9631    4.4531    0.0000 H   0  0  0  0  0  0  0  0  0  0  0  0
    3.3923   -4.5077    0.0000 H   0  0  0  0  0  0  0  0  0  0  0  0
    4.0826   -4.1092    0.0000 H   0  0  0  0  0  0  0  0  0  0  0  0
   11.1900   -4.4340    0.0000 H   0  0  0  0  0  0  0  0  0  0  0  0
   13.6200   -3.0311    0.0000 H   0  0  0  0  0  0  0  0  0  0  0  0
    2.6077   -3.2865    0.0000 H   0  0  0  0  0  0  0  0  0  0  0  0
    1.9174   -3.6851    0.0000 H   0  0  0  0  0  0  0  0  0  0  0  0
    1.4631   -4.4531    0.0000 H   0  0  0  0  0  0  0  0  0  0  0  0
    1.6900   -5.3001    0.0000 H   0  0  0  0  0  0  0  0  0  0  0  0
    2.5369   -5.0731    0.0000 H   0  0  0  0  0  0  0  0  0  0  0  0
  1 41  1  0  0  0  0
  2 12  1  0  0  0  0
  2 14  1  0  0  0  0
  3 11  1  0  0  0  0
  3 16  1  0  0  0  0
  4 14  1  0  0  0  0
  4 16  1  0  0  0  0
 13  5  1  6  0  0  0
  5 24  1  0  0  0  0
  6 23  1  0  0  0  0
  6 30  1  0  0  0  0
  7 22  2  0  0  0  0
  8 23  2  0  0  0  0
 15  9  1  1  0  0  0
  9 20  1  0  0  0  0
  9 22  1  0  0  0  0
 10 22  1  0  0  0  0
 10 29  1  0  0  0  0
 10 67  1  0  0  0  0
 11 13  1  0  0  0  0
 11 14  1  0  0  0  0
 11 43  1  6  0  0  0
 12 13  1  0  0  0  0
 12 15  1  0  0  0  0
 12 44  1  0  0  0  0
 13 45  1  0  0  0  0
 14 46  1  6  0  0  0
 15 17  1  0  0  0  0
 15 47  1  0  0  0  0
 16 18  1  0  0  0  0
 16 19  1  0  0  0  0
 17 23  1  0  0  0  0
 17 48  1  0  0  0  0
 17 49  1  0  0  0  0
 18 50  1  0  0  0  0
 18 51  1  0  0  0  0
 18 52  1  0  0  0  0
 19 53  1  0  0  0  0
 19 54  1  0  0  0  0
 19 55  1  0  0  0  0
 20 21  1  0  0  0  0
 20 56  1  0  0  0  0
 20 57  1  0  0  0  0
 21 25  1  0  0  0  0
 21 58  1  0  0  0  0
 21 59  1  0  0  0  0
 24 60  1  0  0  0  0
 24 61  1  0  0  0  0
 24 62  1  0  0  0  0
 25 26  1  0  0  0  0
 25 63  1  0  0  0  0
 25 64  1  0  0  0  0
 26 27  1  0  0  0  0
 26 65  1  0  0  0  0
 26 66  1  0  0  0  0
 27 28  1  0  0  0  0
 27 68  1  0  0  0  0
 27 69  1  0  0  0  0
 28 31  1  0  0  0  0
 28 70  1  0  0  0  0
 28 71  1  0  0  0  0
 29 34  2  0  0  0  0
 29 35  1  0  0  0  0
 30 36  1  0  0  0  0
 30 72  1  0  0  0  0
 30 73  1  0  0  0  0
 31 32  1  0  0  0  0
 31 74  1  0  0  0  0
 31 75  1  0  0  0  0
 32 33  1  0  0  0  0
 32 76  1  0  0  0  0
 32 77  1  0  0  0  0
 33 37  1  0  0  0  0
 33 78  1  0  0  0  0
 33 79  1  0  0  0  0
 34 38  1  0  0  0  0
 34 80  1  0  0  0  0
 35 39  2  0  0  0  0
 35 81  1  0  0  0  0
 36 82  1  0  0  0  0
 36 83  1  0  0  0  0
 36 84  1  0  0  0  0
 37 40  1  0  0  0  0
 37 85  1  0  0  0  0
 37 86  1  0  0  0  0
 38 41  2  0  0  0  0
 38 87  1  0  0  0  0
 39 41  1  0  0  0  0
 39 88  1  0  0  0  0
 40 42  1  0  0  0  0
 40 89  1  0  0  0  0
 40 90  1  0  0  0  0
 42 91  1  0  0  0  0
 42 92  1  0  0  0  0
 42 93  1  0  0  0  0
M  END
> <PUBCHEM_COMPOUND_CID>
508346
> <PUBCHEM_COMPOUND_CANONICALIZED>
1
> <PUBCHEM_CACTVS_COMPLEXITY>
808
> <PUBCHEM_CACTVS_HBOND_ACCEPTOR>
7
> <PUBCHEM_CACTVS_HBOND_DONOR>
1
> <PUBCHEM_CACTVS_ROTATABLE_BOND>
19
> <PUBCHEM_CACTVS_SUBSKEYS>
AAADcfB/OAAEAAAAAAAAAAAAAAAAASJAAAAwAAAAAAASAAABAAAAHgIQAAAACD7xkCczyIPABACIACTSWACCAAAhBwAIiAEIZoibIDrBk5GnIAhvlgLeyCf6/K/AAABAAAAAAAAAAIAAAAAAAAAAAAAAAA==
> <PUBCHEM_IUPAC_OPENEYE_NAME>
ethyl (3S)-3-[(3aR,6S,6aR)-6-methoxy-2,2-dimethyl-3a,5,6,6a-tetrahydrofuro[2,3-d][1,3]dioxol-5-yl]-3-[(4-chlorophenyl)carbamoyl-dodecyl-amino]propanoate
> <PUBCHEM_IUPAC_CAS_NAME>
(3S)-3-[(3aR,6S,6aR)-6-methoxy-2,2-dimethyl-3a,5,6,6a-tetrahydrofuro[2,3-d][1,3]dioxol-5-yl]-3-[[(4-chloroanilino)-oxomethyl]-dodecylamino]propanoic acid ethyl ester
> <PUBCHEM_IUPAC_NAME_MARKUP>
ethyl (3<I>S</I>)-3-[(3<I>a</I><I>R</I>,6<I>S</I>,6<I>a</I><I>R</I>)-6-methoxy-2,2-dimethyl-3<I>a</I>,5,6,6<I>a</I>-tetrahydrofuro[2,3-d][1,3]dioxol-5-yl]-3-[(4-chlorophenyl)carbamoyl-dodecylamino]propanoate
> <PUBCHEM_IUPAC_NAME>
ethyl (3S)-3-[(3aR,6S,6aR)-6-methoxy-2,2-dimethyl-3a,5,6,6a-tetrahydrofuro[2,3-d][1,3]dioxol-5-yl]-3-[(4-chlorophenyl)carbamoyl-dodecylamino]propanoate
> <PUBCHEM_IUPAC_SYSTEMATIC_NAME>
ethyl (3S)-3-[(3aR,6S,6aR)-6-methoxy-2,2-dimethyl-3a,5,6,6a-tetrahydrofuro[2,3-d][1,3]dioxol-5-yl]-3-[(4-chlorophenyl)carbamoyl-dodecyl-amino]propanoate
> <PUBCHEM_IUPAC_TRADITIONAL_NAME>
(3S)-3-[(3aR,6S,6aR)-6-methoxy-2,2-dimethyl-3a,5,6,6a-tetrahydrofuro[2,3-d][1,3]dioxol-5-yl]-3-[(4-chlorophenyl)carbamoyl-lauryl-amino]propionic acid ethyl ester
> <PUBCHEM_IUPAC_INCHI>
InChI=1S/C32H51ClN2O7/c1-6-8-9-10-11-12-13-14-15-16-21-35(31(37)34-24-19-17-23(33)18-20-24)25(22-26(36)39-7-2)27-28(38-5)29-30(40-27)42-32(3,4)41-29/h17-20,25,27-30H,6-16,21-22H2,1-5H3,(H,34,37)/t25-,27?,28-,29+,30+/m0/s1
> <PUBCHEM_IUPAC_INCHIKEY>
VAOOOCBTYYIHDS-DYXDNTIBSA-N
> <PUBCHEM_XLOGP3_AA>
7.6
> <PUBCHEM_EXACT_MASS>
610.3384797
> <PUBCHEM_MOLECULAR_FORMULA>
C32H51ClN2O7
> <PUBCHEM_MOLECULAR_WEIGHT>
611.2
> <PUBCHEM_OPENEYE_CAN_SMILES>
CCCCCCCCCCCCN(C(CC(=O)OCC)C1C(C2C(O1)OC(O2)(C)C)OC)C(=O)NC3=CC=C(C=C3)Cl
> <PUBCHEM_OPENEYE_ISO_SMILES>
CCCCCCCCCCCCN([C@@H](CC(=O)OCC)C1[C@@H]([C@@H]2[C@H](O1)OC(O2)(C)C)OC)C(=O)NC3=CC=C(C=C3)Cl
> <PUBCHEM_CACTVS_TPSA>
95.6
> <PUBCHEM_MONOISOTOPIC_WEIGHT>
610.3384797
> <PUBCHEM_TOTAL_CHARGE>
0
> <PUBCHEM_HEAVY_ATOM_COUNT>
42
> <PUBCHEM_ATOM_DEF_STEREO_COUNT>
4
> <PUBCHEM_ATOM_UDEF_STEREO_COUNT>
1
> <PUBCHEM_BOND_DEF_STEREO_COUNT>
0
> <PUBCHEM_BOND_UDEF_STEREO_COUNT>
0
> <PUBCHEM_ISOTOPIC_ATOM_COUNT>
0
> <PUBCHEM_COMPONENT_COUNT>
1
> <PUBCHEM_CACTVS_TAUTO_COUNT>
-1
> <PUBCHEM_COORDINATE_TYPE>
1
5
255
> <PUBCHEM_BONDANNOTATIONS>
11  43  6
14  46  6
12  2  3
29  34  8
29  35  8
34  38  8
35  39  8
38  41  8
39  41  8
13  5  6
15  9  5
$$$$
