508357
  -OEChem-10302200282D
100103  0     1  0  0  0  0  0999 V2000
   13.0000   -5.1298    0.0000 Cl  0  0  0  0  0  0  0  0  0  0  0  0
   13.0878    0.1234    0.0000 O   0  0  0  0  0  0  0  0  0  0  0  0
   14.9851    1.7371    0.0000 O   0  0  0  0  0  0  0  0  0  0  0  0
   14.9851    0.1276    0.0000 O   0  0  0  0  0  0  0  0  0  0  0  0
   12.7788    2.6924    0.0000 O   0  0  0  0  0  0  0  0  0  0  0  0
    9.5000    2.6644    0.0000 O   0  0  0  0  0  0  0  0  0  0  0  0
   12.5000   -0.7997    0.0000 O   0  0  0  0  0  0  0  0  0  0  0  0
    9.5000    0.9324    0.0000 O   0  0  0  0  0  0  0  0  0  0  0  0
   11.0000    0.0664    0.0000 N   0  0  0  0  0  0  0  0  0  0  0  0
   11.0000   -1.6657    0.0000 N   0  0  0  0  0  0  0  0  0  0  0  0
   14.0388    1.4324    0.0000 C   0  0  2  0  0  0  0  0  0  0  0  0
   12.5000    0.9324    0.0000 C   0  0  3  0  0  0  0  0  0  0  0  0
   13.0878    1.7414    0.0000 C   0  0  2  0  0  0  0  0  0  0  0  0
   14.0388    0.4324    0.0000 C   0  0  2  0  0  0  0  0  0  0  0  0
   11.5000    0.9324    0.0000 C   0  0  2  0  0  0  0  0  0  0  0  0
   15.5687    0.9324    0.0000 C   0  0  0  0  0  0  0  0  0  0  0  0
   11.0000    1.7984    0.0000 C   0  0  0  0  0  0  0  0  0  0  0  0
   16.3777    0.3446    0.0000 C   0  0  0  0  0  0  0  0  0  0  0  0
   16.3777    1.5202    0.0000 C   0  0  0  0  0  0  0  0  0  0  0  0
   10.0000    0.0664    0.0000 C   0  0  0  0  0  0  0  0  0  0  0  0
    9.5000   -0.7997    0.0000 C   0  0  0  0  0  0  0  0  0  0  0  0
   11.5000   -0.7997    0.0000 C   0  0  0  0  0  0  0  0  0  0  0  0
   10.0000    1.7984    0.0000 C   0  0  0  0  0  0  0  0  0  0  0  0
   13.4479    3.4356    0.0000 C   0  0  0  0  0  0  0  0  0  0  0  0
    8.5000   -0.7997    0.0000 C   0  0  0  0  0  0  0  0  0  0  0  0
    8.0000   -1.6657    0.0000 C   0  0  0  0  0  0  0  0  0  0  0  0
   13.1389    4.3867    0.0000 C   0  0  0  0  0  0  0  0  0  0  0  0
   14.4260    3.2277    0.0000 C   0  0  0  0  0  0  0  0  0  0  0  0
    7.0000   -1.6657    0.0000 C   0  0  0  0  0  0  0  0  0  0  0  0
    6.5000   -2.5317    0.0000 C   0  0  0  0  0  0  0  0  0  0  0  0
   13.8080    5.1298    0.0000 C   0  0  0  0  0  0  0  0  0  0  0  0
   15.0952    3.9708    0.0000 C   0  0  0  0  0  0  0  0  0  0  0  0
   11.5000   -2.5317    0.0000 C   0  0  0  0  0  0  0  0  0  0  0  0
    8.5000    2.6644    0.0000 C   0  0  0  0  0  0  0  0  0  0  0  0
    5.5000   -2.5317    0.0000 C   0  0  0  0  0  0  0  0  0  0  0  0
   14.7862    4.9219    0.0000 C   0  0  0  0  0  0  0  0  0  0  0  0
    5.0000   -3.3978    0.0000 C   0  0  0  0  0  0  0  0  0  0  0  0
   12.5000   -2.5317    0.0000 C   0  0  0  0  0  0  0  0  0  0  0  0
   11.0000   -3.3978    0.0000 C   0  0  0  0  0  0  0  0  0  0  0  0
    8.0000    3.5305    0.0000 C   0  0  0  0  0  0  0  0  0  0  0  0
    4.0000   -3.3978    0.0000 C   0  0  0  0  0  0  0  0  0  0  0  0
    3.5000   -4.2638    0.0000 C   0  0  0  0  0  0  0  0  0  0  0  0
   13.0000   -3.3978    0.0000 C   0  0  0  0  0  0  0  0  0  0  0  0
   11.5000   -4.2638    0.0000 C   0  0  0  0  0  0  0  0  0  0  0  0
   12.5000   -4.2638    0.0000 C   0  0  0  0  0  0  0  0  0  0  0  0
    2.5000   -4.2638    0.0000 C   0  0  0  0  0  0  0  0  0  0  0  0
    2.0000   -5.1298    0.0000 C   0  0  0  0  0  0  0  0  0  0  0  0
   14.0399    2.2824    0.0000 H   0  0  0  0  0  0  0  0  0  0  0  0
   13.1200    0.9324    0.0000 H   0  0  0  0  0  0  0  0  0  0  0  0
   13.5262    2.1798    0.0000 H   0  0  0  0  0  0  0  0  0  0  0  0
   14.0399   -0.4176    0.0000 H   0  0  0  0  0  0  0  0  0  0  0  0
   11.8100    0.3954    0.0000 H   0  0  0  0  0  0  0  0  0  0  0  0
   11.5826    2.0105    0.0000 H   0  0  0  0  0  0  0  0  0  0  0  0
   10.8923    2.4090    0.0000 H   0  0  0  0  0  0  0  0  0  0  0  0
   16.0133   -0.1570    0.0000 H   0  0  0  0  0  0  0  0  0  0  0  0
   16.8793   -0.0198    0.0000 H   0  0  0  0  0  0  0  0  0  0  0  0
   16.7421    0.8462    0.0000 H   0  0  0  0  0  0  0  0  0  0  0  0
   16.7421    1.0186    0.0000 H   0  0  0  0  0  0  0  0  0  0  0  0
   16.8793    1.8846    0.0000 H   0  0  0  0  0  0  0  0  0  0  0  0
   16.0133    2.0218    0.0000 H   0  0  0  0  0  0  0  0  0  0  0  0
   10.1077    0.6769    0.0000 H   0  0  0  0  0  0  0  0  0  0  0  0
    9.4174    0.2784    0.0000 H   0  0  0  0  0  0  0  0  0  0  0  0
    9.3923   -1.4102    0.0000 H   0  0  0  0  0  0  0  0  0  0  0  0
   10.0826   -1.0117    0.0000 H   0  0  0  0  0  0  0  0  0  0  0  0
    8.6077   -0.1891    0.0000 H   0  0  0  0  0  0  0  0  0  0  0  0
    7.9174   -0.5876    0.0000 H   0  0  0  0  0  0  0  0  0  0  0  0
    7.8923   -2.2763    0.0000 H   0  0  0  0  0  0  0  0  0  0  0  0
    8.5826   -1.8778    0.0000 H   0  0  0  0  0  0  0  0  0  0  0  0
   10.3800   -1.6657    0.0000 H   0  0  0  0  0  0  0  0  0  0  0  0
   12.5324    4.5156    0.0000 H   0  0  0  0  0  0  0  0  0  0  0  0
   14.6176    2.6380    0.0000 H   0  0  0  0  0  0  0  0  0  0  0  0
    7.1077   -1.0551    0.0000 H   0  0  0  0  0  0  0  0  0  0  0  0
    6.4174   -1.4536    0.0000 H   0  0  0  0  0  0  0  0  0  0  0  0
    6.3923   -3.1423    0.0000 H   0  0  0  0  0  0  0  0  0  0  0  0
    7.0826   -2.7438    0.0000 H   0  0  0  0  0  0  0  0  0  0  0  0
   13.6164    5.7194    0.0000 H   0  0  0  0  0  0  0  0  0  0  0  0
   15.7016    3.8419    0.0000 H   0  0  0  0  0  0  0  0  0  0  0  0
    7.9174    2.4524    0.0000 H   0  0  0  0  0  0  0  0  0  0  0  0
    8.6077    2.0538    0.0000 H   0  0  0  0  0  0  0  0  0  0  0  0
    5.6077   -1.9211    0.0000 H   0  0  0  0  0  0  0  0  0  0  0  0
    4.9174   -2.3197    0.0000 H   0  0  0  0  0  0  0  0  0  0  0  0
   15.2010    5.3826    0.0000 H   0  0  0  0  0  0  0  0  0  0  0  0
    4.8923   -4.0083    0.0000 H   0  0  0  0  0  0  0  0  0  0  0  0
    5.5826   -3.6098    0.0000 H   0  0  0  0  0  0  0  0  0  0  0  0
   12.8100   -1.9948    0.0000 H   0  0  0  0  0  0  0  0  0  0  0  0
   10.3800   -3.3978    0.0000 H   0  0  0  0  0  0  0  0  0  0  0  0
    8.5369    3.8405    0.0000 H   0  0  0  0  0  0  0  0  0  0  0  0
    7.6900    4.0674    0.0000 H   0  0  0  0  0  0  0  0  0  0  0  0
    7.4631    3.2205    0.0000 H   0  0  0  0  0  0  0  0  0  0  0  0
    4.1077   -2.7872    0.0000 H   0  0  0  0  0  0  0  0  0  0  0  0
    3.4174   -3.1857    0.0000 H   0  0  0  0  0  0  0  0  0  0  0  0
    3.3923   -4.8744    0.0000 H   0  0  0  0  0  0  0  0  0  0  0  0
    4.0826   -4.4758    0.0000 H   0  0  0  0  0  0  0  0  0  0  0  0
   13.6200   -3.3978    0.0000 H   0  0  0  0  0  0  0  0  0  0  0  0
   11.1900   -4.8007    0.0000 H   0  0  0  0  0  0  0  0  0  0  0  0
    2.6077   -3.6532    0.0000 H   0  0  0  0  0  0  0  0  0  0  0  0
    1.9174   -4.0517    0.0000 H   0  0  0  0  0  0  0  0  0  0  0  0
    1.4631   -4.8198    0.0000 H   0  0  0  0  0  0  0  0  0  0  0  0
    1.6900   -5.6667    0.0000 H   0  0  0  0  0  0  0  0  0  0  0  0
    2.5369   -5.4398    0.0000 H   0  0  0  0  0  0  0  0  0  0  0  0
  1 45  1  0  0  0  0
  2 12  1  0  0  0  0
  2 14  1  0  0  0  0
  3 11  1  0  0  0  0
  3 16  1  0  0  0  0
  4 14  1  0  0  0  0
  4 16  1  0  0  0  0
 13  5  1  6  0  0  0
  5 24  1  0  0  0  0
  6 23  1  0  0  0  0
  6 34  1  0  0  0  0
  7 22  2  0  0  0  0
  8 23  2  0  0  0  0
 15  9  1  1  0  0  0
  9 20  1  0  0  0  0
  9 22  1  0  0  0  0
 10 22  1  0  0  0  0
 10 33  1  0  0  0  0
 10 69  1  0  0  0  0
 11 13  1  0  0  0  0
 11 14  1  0  0  0  0
 11 48  1  6  0  0  0
 12 13  1  0  0  0  0
 12 15  1  0  0  0  0
 12 49  1  0  0  0  0
 13 50  1  0  0  0  0
 14 51  1  6  0  0  0
 15 17  1  0  0  0  0
 15 52  1  0  0  0  0
 16 18  1  0  0  0  0
 16 19  1  0  0  0  0
 17 23  1  0  0  0  0
 17 53  1  0  0  0  0
 17 54  1  0  0  0  0
 18 55  1  0  0  0  0
 18 56  1  0  0  0  0
 18 57  1  0  0  0  0
 19 58  1  0  0  0  0
 19 59  1  0  0  0  0
 19 60  1  0  0  0  0
 20 21  1  0  0  0  0
 20 61  1  0  0  0  0
 20 62  1  0  0  0  0
 21 25  1  0  0  0  0
 21 63  1  0  0  0  0
 21 64  1  0  0  0  0
 24 27  2  0  0  0  0
 24 28  1  0  0  0  0
 25 26  1  0  0  0  0
 25 65  1  0  0  0  0
 25 66  1  0  0  0  0
 26 29  1  0  0  0  0
 26 67  1  0  0  0  0
 26 68  1  0  0  0  0
 27 31  1  0  0  0  0
 27 70  1  0  0  0  0
 28 32  2  0  0  0  0
 28 71  1  0  0  0  0
 29 30  1  0  0  0  0
 29 72  1  0  0  0  0
 29 73  1  0  0  0  0
 30 35  1  0  0  0  0
 30 74  1  0  0  0  0
 30 75  1  0  0  0  0
 31 36  2  0  0  0  0
 31 76  1  0  0  0  0
 32 36  1  0  0  0  0
 32 77  1  0  0  0  0
 33 38  2  0  0  0  0
 33 39  1  0  0  0  0
 34 40  1  0  0  0  0
 34 78  1  0  0  0  0
 34 79  1  0  0  0  0
 35 37  1  0  0  0  0
 35 80  1  0  0  0  0
 35 81  1  0  0  0  0
 36 82  1  0  0  0  0
 37 41  1  0  0  0  0
 37 83  1  0  0  0  0
 37 84  1  0  0  0  0
 38 43  1  0  0  0  0
 38 85  1  0  0  0  0
 39 44  2  0  0  0  0
 39 86  1  0  0  0  0
 40 87  1  0  0  0  0
 40 88  1  0  0  0  0
 40 89  1  0  0  0  0
 41 42  1  0  0  0  0
 41 90  1  0  0  0  0
 41 91  1  0  0  0  0
 42 46  1  0  0  0  0
 42 92  1  0  0  0  0
 42 93  1  0  0  0  0
 43 45  2  0  0  0  0
 43 94  1  0  0  0  0
 44 45  1  0  0  0  0
 44 95  1  0  0  0  0
 46 47  1  0  0  0  0
 46 96  1  0  0  0  0
 46 97  1  0  0  0  0
 47 98  1  0  0  0  0
 47 99  1  0  0  0  0
 47100  1  0  0  0  0
M  END
> <PUBCHEM_COMPOUND_CID>
508357
> <PUBCHEM_COMPOUND_CANONICALIZED>
1
> <PUBCHEM_CACTVS_COMPLEXITY>
924
> <PUBCHEM_CACTVS_HBOND_ACCEPTOR>
7
> <PUBCHEM_CACTVS_HBOND_DONOR>
1
> <PUBCHEM_CACTVS_ROTATABLE_BOND>
20
> <PUBCHEM_CACTVS_SUBSKEYS>
AAADcfB/OAAEAAAAAAAAAAAAAAAAASJAAAAwYAAAAAASAAABQAAAHgIQAAAACD7xkCczzoPABACIACTSWACCCAAhJwAIiAEOboifJjrFs5unOCjv1hPe6Cf6/K/AAABAAAAAAAAAAIAAAAAAAAAAAAAAAA==
> <PUBCHEM_IUPAC_OPENEYE_NAME>
ethyl (3S)-3-[(3aR,6S,6aR)-2,2-dimethyl-6-phenoxy-3a,5,6,6a-tetrahydrofuro[2,3-d][1,3]dioxol-5-yl]-3-[(4-chlorophenyl)carbamoyl-dodecyl-amino]propanoate
> <PUBCHEM_IUPAC_CAS_NAME>
(3S)-3-[(3aR,6S,6aR)-2,2-dimethyl-6-phenoxy-3a,5,6,6a-tetrahydrofuro[2,3-d][1,3]dioxol-5-yl]-3-[[(4-chloroanilino)-oxomethyl]-dodecylamino]propanoic acid ethyl ester
> <PUBCHEM_IUPAC_NAME_MARKUP>
ethyl (3<I>S</I>)-3-[(3<I>a</I><I>R</I>,6<I>S</I>,6<I>a</I><I>R</I>)-2,2-dimethyl-6-phenoxy-3<I>a</I>,5,6,6<I>a</I>-tetrahydrofuro[2,3-d][1,3]dioxol-5-yl]-3-[(4-chlorophenyl)carbamoyl-dodecylamino]propanoate
> <PUBCHEM_IUPAC_NAME>
ethyl (3S)-3-[(3aR,6S,6aR)-2,2-dimethyl-6-phenoxy-3a,5,6,6a-tetrahydrofuro[2,3-d][1,3]dioxol-5-yl]-3-[(4-chlorophenyl)carbamoyl-dodecylamino]propanoate
> <PUBCHEM_IUPAC_SYSTEMATIC_NAME>
ethyl (3S)-3-[(3aR,6S,6aR)-2,2-dimethyl-6-phenoxy-3a,5,6,6a-tetrahydrofuro[2,3-d][1,3]dioxol-5-yl]-3-[(4-chlorophenyl)carbamoyl-dodecyl-amino]propanoate
> <PUBCHEM_IUPAC_TRADITIONAL_NAME>
(3S)-3-[(3aR,6S,6aR)-2,2-dimethyl-6-phenoxy-3a,5,6,6a-tetrahydrofuro[2,3-d][1,3]dioxol-5-yl]-3-[(4-chlorophenyl)carbamoyl-lauryl-amino]propionic acid ethyl ester
> <PUBCHEM_IUPAC_INCHI>
InChI=1S/C37H53ClN2O7/c1-5-7-8-9-10-11-12-13-14-18-25-40(36(42)39-28-23-21-27(38)22-24-28)30(26-31(41)43-6-2)32-33(44-29-19-16-15-17-20-29)34-35(45-32)47-37(3,4)46-34/h15-17,19-24,30,32-35H,5-14,18,25-26H2,1-4H3,(H,39,42)/t30-,32?,33-,34+,35+/m0/s1
> <PUBCHEM_IUPAC_INCHIKEY>
BQOIWSZCHFLLAW-AWIDCORPSA-N
> <PUBCHEM_XLOGP3_AA>
9.4
> <PUBCHEM_EXACT_MASS>
672.3541297
> <PUBCHEM_MOLECULAR_FORMULA>
C37H53ClN2O7
> <PUBCHEM_MOLECULAR_WEIGHT>
673.3
> <PUBCHEM_OPENEYE_CAN_SMILES>
CCCCCCCCCCCCN(C(CC(=O)OCC)C1C(C2C(O1)OC(O2)(C)C)OC3=CC=CC=C3)C(=O)NC4=CC=C(C=C4)Cl
> <PUBCHEM_OPENEYE_ISO_SMILES>
CCCCCCCCCCCCN([C@@H](CC(=O)OCC)C1[C@@H]([C@@H]2[C@H](O1)OC(O2)(C)C)OC3=CC=CC=C3)C(=O)NC4=CC=C(C=C4)Cl
> <PUBCHEM_CACTVS_TPSA>
95.6
> <PUBCHEM_MONOISOTOPIC_WEIGHT>
672.3541297
> <PUBCHEM_TOTAL_CHARGE>
0
> <PUBCHEM_HEAVY_ATOM_COUNT>
47
> <PUBCHEM_ATOM_DEF_STEREO_COUNT>
4
> <PUBCHEM_ATOM_UDEF_STEREO_COUNT>
1
> <PUBCHEM_BOND_DEF_STEREO_COUNT>
0
> <PUBCHEM_BOND_UDEF_STEREO_COUNT>
0
> <PUBCHEM_ISOTOPIC_ATOM_COUNT>
0
> <PUBCHEM_COMPONENT_COUNT>
1
> <PUBCHEM_CACTVS_TAUTO_COUNT>
-1
> <PUBCHEM_COORDINATE_TYPE>
1
5
255
> <PUBCHEM_BONDANNOTATIONS>
11  48  6
14  51  6
12  2  3
24  27  8
24  28  8
27  31  8
28  32  8
31  36  8
32  36  8
33  38  8
33  39  8
38  43  8
39  44  8
43  45  8
44  45  8
13  5  6
15  9  5
$$$$
