508305
  -OEChem-10302200282D
 91 94  0     1  0  0  0  0  0999 V2000
    8.1301    2.7500    0.0000 S   0  0  0  0  0  0  0  0  0  0  0  0
   10.7282    1.2500    0.0000 O   0  0  0  0  0  0  0  0  0  0  0  0
    8.6301    3.6160    0.0000 O   0  0  0  0  0  0  0  0  0  0  0  0
    7.6301    1.8840    0.0000 O   0  0  0  0  0  0  0  0  0  0  0  0
    9.8622   -2.2500    0.0000 O   0  0  0  0  0  0  0  0  0  0  0  0
    9.8622   -3.2500    0.0000 O   0  0  0  0  0  0  0  0  0  0  0  0
    6.3981   -3.2500    0.0000 O   0  0  0  0  0  0  0  0  0  0  0  0
    8.9962    2.2500    0.0000 N   0  0  3  0  0  0  0  0  0  0  0  0
    8.9962   -0.7500    0.0000 N   0  0  0  0  0  0  0  0  0  0  0  0
    7.2641   -1.7500    0.0000 N   0  0  0  0  0  0  0  0  0  0  0  0
    8.9962   -4.7500    0.0000 N   0  0  0  0  0  0  0  0  0  0  0  0
    4.6660   -2.2500    0.0000 N   0  0  0  0  0  0  0  0  0  0  0  0
    9.8622    0.7500    0.0000 C   0  0  1  0  0  0  0  0  0  0  0  0
    9.8622   -0.2500    0.0000 C   0  0  2  0  0  0  0  0  0  0  0  0
    8.9962    1.2500    0.0000 C   0  0  0  0  0  0  0  0  0  0  0  0
    9.8622    2.7500    0.0000 C   0  0  0  0  0  0  0  0  0  0  0  0
   10.7282   -0.7500    0.0000 C   0  0  0  0  0  0  0  0  0  0  0  0
    9.8622    3.7500    0.0000 C   0  0  0  0  0  0  0  0  0  0  0  0
   10.7282    4.2500    0.0000 C   0  0  0  0  0  0  0  0  0  0  0  0
   11.5942   -0.2500    0.0000 C   0  0  0  0  0  0  0  0  0  0  0  0
    7.2641    3.2500    0.0000 C   0  0  0  0  0  0  0  0  0  0  0  0
    8.9962   -1.7500    0.0000 C   0  0  0  0  0  0  0  0  0  0  0  0
   10.7282    5.2500    0.0000 C   0  0  0  0  0  0  0  0  0  0  0  0
   11.5942    3.7500    0.0000 C   0  0  0  0  0  0  0  0  0  0  0  0
    8.1301   -2.2500    0.0000 C   0  0  2  0  0  0  0  0  0  0  0  0
   12.4603   -0.7500    0.0000 C   0  0  0  0  0  0  0  0  0  0  0  0
   11.5942    0.7500    0.0000 C   0  0  0  0  0  0  0  0  0  0  0  0
    8.1301   -3.2500    0.0000 C   0  0  0  0  0  0  0  0  0  0  0  0
    6.3981    2.7500    0.0000 C   0  0  0  0  0  0  0  0  0  0  0  0
    7.2641    4.2500    0.0000 C   0  0  0  0  0  0  0  0  0  0  0  0
   13.3263   -0.2500    0.0000 C   0  0  0  0  0  0  0  0  0  0  0  0
   12.4603    1.2500    0.0000 C   0  0  0  0  0  0  0  0  0  0  0  0
    5.5321    3.2500    0.0000 C   0  0  0  0  0  0  0  0  0  0  0  0
    6.3981    4.7500    0.0000 C   0  0  0  0  0  0  0  0  0  0  0  0
   13.3263    0.7500    0.0000 C   0  0  0  0  0  0  0  0  0  0  0  0
    8.9962   -3.7500    0.0000 C   0  0  0  0  0  0  0  0  0  0  0  0
    5.5321    4.2500    0.0000 C   0  0  0  0  0  0  0  0  0  0  0  0
    6.3981   -2.2500    0.0000 C   0  0  0  0  0  0  0  0  0  0  0  0
    5.5321   -1.7500    0.0000 C   0  0  0  0  0  0  0  0  0  0  0  0
    9.8622   -5.2500    0.0000 C   0  0  0  0  0  0  0  0  0  0  0  0
    5.5321   -0.7500    0.0000 C   0  0  0  0  0  0  0  0  0  0  0  0
    3.8000   -1.7500    0.0000 C   0  0  0  0  0  0  0  0  0  0  0  0
    3.8000   -0.7500    0.0000 C   0  0  0  0  0  0  0  0  0  0  0  0
    4.6660   -0.2500    0.0000 C   0  0  0  0  0  0  0  0  0  0  0  0
    2.9061   -2.2847    0.0000 C   0  0  0  0  0  0  0  0  0  0  0  0
    2.9061   -0.2153    0.0000 C   0  0  0  0  0  0  0  0  0  0  0  0
    2.0000   -1.7708    0.0000 C   0  0  0  0  0  0  0  0  0  0  0  0
    2.0000   -0.7292    0.0000 C   0  0  0  0  0  0  0  0  0  0  0  0
    9.8622    1.3700    0.0000 H   0  0  0  0  0  0  0  0  0  0  0  0
    9.3252    0.0600    0.0000 H   0  0  0  0  0  0  0  0  0  0  0  0
    8.3856    1.3577    0.0000 H   0  0  0  0  0  0  0  0  0  0  0  0
    8.7841    0.6674    0.0000 H   0  0  0  0  0  0  0  0  0  0  0  0
   10.0742    2.1674    0.0000 H   0  0  0  0  0  0  0  0  0  0  0  0
   10.4728    2.8577    0.0000 H   0  0  0  0  0  0  0  0  0  0  0  0
   10.3297   -1.2250    0.0000 H   0  0  0  0  0  0  0  0  0  0  0  0
   11.1267   -1.2250    0.0000 H   0  0  0  0  0  0  0  0  0  0  0  0
    9.6501    4.3326    0.0000 H   0  0  0  0  0  0  0  0  0  0  0  0
    9.2516    3.6423    0.0000 H   0  0  0  0  0  0  0  0  0  0  0  0
   11.2651    4.5600    0.0000 H   0  0  0  0  0  0  0  0  0  0  0  0
    8.4592   -0.4400    0.0000 H   0  0  0  0  0  0  0  0  0  0  0  0
   10.7282    1.8700    0.0000 H   0  0  0  0  0  0  0  0  0  0  0  0
   11.3482    5.2500    0.0000 H   0  0  0  0  0  0  0  0  0  0  0  0
   10.7282    5.8700    0.0000 H   0  0  0  0  0  0  0  0  0  0  0  0
   10.1082    5.2500    0.0000 H   0  0  0  0  0  0  0  0  0  0  0  0
   11.2842    3.2131    0.0000 H   0  0  0  0  0  0  0  0  0  0  0  0
   12.1312    3.4400    0.0000 H   0  0  0  0  0  0  0  0  0  0  0  0
   11.9042    4.2869    0.0000 H   0  0  0  0  0  0  0  0  0  0  0  0
    7.5932   -2.5600    0.0000 H   0  0  0  0  0  0  0  0  0  0  0  0
   12.4603   -1.3700    0.0000 H   0  0  0  0  0  0  0  0  0  0  0  0
   11.0573    1.0600    0.0000 H   0  0  0  0  0  0  0  0  0  0  0  0
    7.5196   -3.1423    0.0000 H   0  0  0  0  0  0  0  0  0  0  0  0
    7.9181   -3.8326    0.0000 H   0  0  0  0  0  0  0  0  0  0  0  0
    6.3981    2.1300    0.0000 H   0  0  0  0  0  0  0  0  0  0  0  0
    7.8010    4.5600    0.0000 H   0  0  0  0  0  0  0  0  0  0  0  0
    7.2641   -1.1300    0.0000 H   0  0  0  0  0  0  0  0  0  0  0  0
   13.8632   -0.5600    0.0000 H   0  0  0  0  0  0  0  0  0  0  0  0
   12.4603    1.8700    0.0000 H   0  0  0  0  0  0  0  0  0  0  0  0
    4.9951    2.9400    0.0000 H   0  0  0  0  0  0  0  0  0  0  0  0
    6.3981    5.3700    0.0000 H   0  0  0  0  0  0  0  0  0  0  0  0
   13.8632    1.0600    0.0000 H   0  0  0  0  0  0  0  0  0  0  0  0
    4.9951    4.5600    0.0000 H   0  0  0  0  0  0  0  0  0  0  0  0
    8.4592   -5.0600    0.0000 H   0  0  0  0  0  0  0  0  0  0  0  0
    9.5522   -5.7869    0.0000 H   0  0  0  0  0  0  0  0  0  0  0  0
   10.3991   -5.5600    0.0000 H   0  0  0  0  0  0  0  0  0  0  0  0
   10.1722   -4.7131    0.0000 H   0  0  0  0  0  0  0  0  0  0  0  0
    6.0690   -0.4400    0.0000 H   0  0  0  0  0  0  0  0  0  0  0  0
    4.6660    0.3700    0.0000 H   0  0  0  0  0  0  0  0  0  0  0  0
    2.9132   -2.9046    0.0000 H   0  0  0  0  0  0  0  0  0  0  0  0
    2.9132    0.4046    0.0000 H   0  0  0  0  0  0  0  0  0  0  0  0
    1.4643   -2.0829    0.0000 H   0  0  0  0  0  0  0  0  0  0  0  0
    1.4643   -0.4171    0.0000 H   0  0  0  0  0  0  0  0  0  0  0  0
  1  3  2  0  0  0  0
  1  4  2  0  0  0  0
  1  8  1  0  0  0  0
  1 21  1  0  0  0  0
 13  2  1  1  0  0  0
  2 61  1  0  0  0  0
  5 22  2  0  0  0  0
  6 36  2  0  0  0  0
  7 38  2  0  0  0  0
  8 15  1  0  0  0  0
  8 16  1  0  0  0  0
 14  9  1  6  0  0  0
  9 22  1  0  0  0  0
  9 60  1  0  0  0  0
 25 10  1  6  0  0  0
 10 38  1  0  0  0  0
 10 75  1  0  0  0  0
 11 36  1  0  0  0  0
 11 40  1  0  0  0  0
 11 82  1  0  0  0  0
 12 39  2  0  0  0  0
 12 42  1  0  0  0  0
 13 14  1  0  0  0  0
 13 15  1  0  0  0  0
 13 49  1  0  0  0  0
 14 17  1  0  0  0  0
 14 50  1  0  0  0  0
 15 51  1  0  0  0  0
 15 52  1  0  0  0  0
 16 18  1  0  0  0  0
 16 53  1  0  0  0  0
 16 54  1  0  0  0  0
 17 20  1  0  0  0  0
 17 55  1  0  0  0  0
 17 56  1  0  0  0  0
 18 19  1  0  0  0  0
 18 57  1  0  0  0  0
 18 58  1  0  0  0  0
 19 23  1  0  0  0  0
 19 24  1  0  0  0  0
 19 59  1  0  0  0  0
 20 26  2  0  0  0  0
 20 27  1  0  0  0  0
 21 29  2  0  0  0  0
 21 30  1  0  0  0  0
 22 25  1  0  0  0  0
 23 62  1  0  0  0  0
 23 63  1  0  0  0  0
 23 64  1  0  0  0  0
 24 65  1  0  0  0  0
 24 66  1  0  0  0  0
 24 67  1  0  0  0  0
 25 28  1  0  0  0  0
 25 68  1  0  0  0  0
 26 31  1  0  0  0  0
 26 69  1  0  0  0  0
 27 32  2  0  0  0  0
 27 70  1  0  0  0  0
 28 36  1  0  0  0  0
 28 71  1  0  0  0  0
 28 72  1  0  0  0  0
 29 33  1  0  0  0  0
 29 73  1  0  0  0  0
 30 34  2  0  0  0  0
 30 74  1  0  0  0  0
 31 35  2  0  0  0  0
 31 76  1  0  0  0  0
 32 35  1  0  0  0  0
 32 77  1  0  0  0  0
 33 37  2  0  0  0  0
 33 78  1  0  0  0  0
 34 37  1  0  0  0  0
 34 79  1  0  0  0  0
 35 80  1  0  0  0  0
 37 81  1  0  0  0  0
 38 39  1  0  0  0  0
 39 41  1  0  0  0  0
 40 83  1  0  0  0  0
 40 84  1  0  0  0  0
 40 85  1  0  0  0  0
 41 44  2  0  0  0  0
 41 86  1  0  0  0  0
 42 43  1  0  0  0  0
 42 45  2  0  0  0  0
 43 44  1  0  0  0  0
 43 46  2  0  0  0  0
 44 87  1  0  0  0  0
 45 47  1  0  0  0  0
 45 88  1  0  0  0  0
 46 48  1  0  0  0  0
 46 89  1  0  0  0  0
 47 48  2  0  0  0  0
 47 90  1  0  0  0  0
 48 91  1  0  0  0  0
M  END
> <PUBCHEM_COMPOUND_CID>
508305
> <PUBCHEM_COMPOUND_CANONICALIZED>
1
> <PUBCHEM_CACTVS_COMPLEXITY>
1130
> <PUBCHEM_CACTVS_HBOND_ACCEPTOR>
8
> <PUBCHEM_CACTVS_HBOND_DONOR>
4
> <PUBCHEM_CACTVS_ROTATABLE_BOND>
16
> <PUBCHEM_CACTVS_SUBSKEYS>
AAADcfB/uABAAAAAAAAAAAAAAAAAAAAAAAA8YMEAAAAAAACx9AAAHgQQSAAADTzh3gYywfLIEgKoAyVyVHDCgDAnAiAImLm4ZNgKcPrA1bGUYQhklgDYyYedyKCOAAAAAAACAAAAAAAAAAQAAAAAAAAAAA==
> <PUBCHEM_IUPAC_OPENEYE_NAME>
(2S)-N-[(1S,2R)-3-[benzenesulfonyl(isopentyl)amino]-1-benzyl-2-hydroxy-propyl]-N'-methyl-2-(quinoline-2-carbonylamino)butanediamide
> <PUBCHEM_IUPAC_CAS_NAME>
(2S)-N-[(2S,3R)-4-[benzenesulfonyl(3-methylbutyl)amino]-3-hydroxy-1-phenylbutan-2-yl]-N'-methyl-2-[[oxo(2-quinolinyl)methyl]amino]butanediamide
> <PUBCHEM_IUPAC_NAME_MARKUP>
(2<I>S</I>)-<I>N</I>-[(2<I>S</I>,3<I>R</I>)-4-[benzenesulfonyl(3-methylbutyl)amino]-3-hydroxy-1-phenylbutan-2-yl]-<I>N</I>&apos;-methyl-2-(quinoline-2-carbonylamino)butanediamide
> <PUBCHEM_IUPAC_NAME>
(2S)-N-[(2S,3R)-4-[benzenesulfonyl(3-methylbutyl)amino]-3-hydroxy-1-phenylbutan-2-yl]-N'-methyl-2-(quinoline-2-carbonylamino)butanediamide
> <PUBCHEM_IUPAC_SYSTEMATIC_NAME>
(2S)-N'-methyl-N-[(2S,3R)-4-[3-methylbutyl(phenylsulfonyl)amino]-3-oxidanyl-1-phenyl-butan-2-yl]-2-(quinolin-2-ylcarbonylamino)butanediamide
> <PUBCHEM_IUPAC_TRADITIONAL_NAME>
(2S)-N-[(1S,2R)-1-benzyl-3-[besyl(isoamyl)amino]-2-hydroxy-propyl]-N'-methyl-2-(quinaldoylamino)succinamide
> <PUBCHEM_IUPAC_INCHI>
InChI=1S/C36H43N5O6S/c1-25(2)20-21-41(48(46,47)28-15-8-5-9-16-28)24-33(42)31(22-26-12-6-4-7-13-26)39-36(45)32(23-34(43)37-3)40-35(44)30-19-18-27-14-10-11-17-29(27)38-30/h4-19,25,31-33,42H,20-24H2,1-3H3,(H,37,43)(H,39,45)(H,40,44)/t31-,32-,33+/m0/s1
> <PUBCHEM_IUPAC_INCHIKEY>
MWDWAPFGCHBJMH-XFCANUNOSA-N
> <PUBCHEM_XLOGP3_AA>
4.4
> <PUBCHEM_EXACT_MASS>
673.29340528
> <PUBCHEM_MOLECULAR_FORMULA>
C36H43N5O6S
> <PUBCHEM_MOLECULAR_WEIGHT>
673.8
> <PUBCHEM_OPENEYE_CAN_SMILES>
CC(C)CCN(CC(C(CC1=CC=CC=C1)NC(=O)C(CC(=O)NC)NC(=O)C2=NC3=CC=CC=C3C=C2)O)S(=O)(=O)C4=CC=CC=C4
> <PUBCHEM_OPENEYE_ISO_SMILES>
CC(C)CCN(C[C@H]([C@H](CC1=CC=CC=C1)NC(=O)[C@H](CC(=O)NC)NC(=O)C2=NC3=CC=CC=C3C=C2)O)S(=O)(=O)C4=CC=CC=C4
> <PUBCHEM_CACTVS_TPSA>
166
> <PUBCHEM_MONOISOTOPIC_WEIGHT>
673.29340528
> <PUBCHEM_TOTAL_CHARGE>
0
> <PUBCHEM_HEAVY_ATOM_COUNT>
48
> <PUBCHEM_ATOM_DEF_STEREO_COUNT>
3
> <PUBCHEM_ATOM_UDEF_STEREO_COUNT>
0
> <PUBCHEM_BOND_DEF_STEREO_COUNT>
0
> <PUBCHEM_BOND_UDEF_STEREO_COUNT>
0
> <PUBCHEM_ISOTOPIC_ATOM_COUNT>
0
> <PUBCHEM_COMPONENT_COUNT>
1
> <PUBCHEM_CACTVS_TAUTO_COUNT>
-1
> <PUBCHEM_COORDINATE_TYPE>
1
5
255
> <PUBCHEM_BONDANNOTATIONS>
25  10  6
12  39  8
12  42  8
13  2  5
20  26  8
20  27  8
21  29  8
21  30  8
26  31  8
27  32  8
29  33  8
30  34  8
31  35  8
32  35  8
33  37  8
34  37  8
39  41  8
41  44  8
42  43  8
42  45  8
43  44  8
43  46  8
45  47  8
46  48  8
47  48  8
14  9  6
$$$$
