508347
  -OEChem-10302200282D
105107  0     1  0  0  0  0  0999 V2000
   16.0878    1.3560    0.0000 O   0  0  0  0  0  0  0  0  0  0  0  0
   17.9851    2.9698    0.0000 O   0  0  0  0  0  0  0  0  0  0  0  0
   17.9851    1.3603    0.0000 O   0  0  0  0  0  0  0  0  0  0  0  0
   15.7788    3.9251    0.0000 O   0  0  0  0  0  0  0  0  0  0  0  0
   12.5000    3.8971    0.0000 O   0  0  0  0  0  0  0  0  0  0  0  0
   15.5000    0.4330    0.0000 O   0  0  0  0  0  0  0  0  0  0  0  0
   12.5000    2.1651    0.0000 O   0  0  0  0  0  0  0  0  0  0  0  0
   14.0000    1.2990    0.0000 N   0  0  0  0  0  0  0  0  0  0  0  0
   14.0000   -0.4330    0.0000 N   0  0  0  0  0  0  0  0  0  0  0  0
   17.0388    2.6651    0.0000 C   0  0  2  0  0  0  0  0  0  0  0  0
   15.5000    2.1651    0.0000 C   0  0  3  0  0  0  0  0  0  0  0  0
   16.0878    2.9741    0.0000 C   0  0  2  0  0  0  0  0  0  0  0  0
   17.0388    1.6651    0.0000 C   0  0  2  0  0  0  0  0  0  0  0  0
   14.5000    2.1651    0.0000 C   0  0  2  0  0  0  0  0  0  0  0  0
   18.5687    2.1651    0.0000 C   0  0  0  0  0  0  0  0  0  0  0  0
   14.0000    3.0311    0.0000 C   0  0  0  0  0  0  0  0  0  0  0  0
   19.3777    1.5773    0.0000 C   0  0  0  0  0  0  0  0  0  0  0  0
   19.3777    2.7528    0.0000 C   0  0  0  0  0  0  0  0  0  0  0  0
   13.0000    1.2990    0.0000 C   0  0  0  0  0  0  0  0  0  0  0  0
   12.5000    0.4330    0.0000 C   0  0  0  0  0  0  0  0  0  0  0  0
   14.5000    0.4330    0.0000 C   0  0  0  0  0  0  0  0  0  0  0  0
   13.0000    3.0311    0.0000 C   0  0  0  0  0  0  0  0  0  0  0  0
   16.4479    4.6683    0.0000 C   0  0  0  0  0  0  0  0  0  0  0  0
   11.5000    0.4330    0.0000 C   0  0  0  0  0  0  0  0  0  0  0  0
   11.0000   -0.4330    0.0000 C   0  0  0  0  0  0  0  0  0  0  0  0
   10.0000   -0.4330    0.0000 C   0  0  0  0  0  0  0  0  0  0  0  0
    9.5000   -1.2990    0.0000 C   0  0  0  0  0  0  0  0  0  0  0  0
   14.5000   -1.2990    0.0000 C   0  0  0  0  0  0  0  0  0  0  0  0
   13.0000    4.7631    0.0000 C   0  0  0  0  0  0  0  0  0  0  0  0
    8.5000   -1.2990    0.0000 C   0  0  0  0  0  0  0  0  0  0  0  0
    8.0000   -2.1651    0.0000 C   0  0  0  0  0  0  0  0  0  0  0  0
    7.0000   -2.1651    0.0000 C   0  0  0  0  0  0  0  0  0  0  0  0
    6.5000   -3.0311    0.0000 C   0  0  0  0  0  0  0  0  0  0  0  0
   15.5000   -1.2990    0.0000 C   0  0  0  0  0  0  0  0  0  0  0  0
   14.0000   -2.1651    0.0000 C   0  0  0  0  0  0  0  0  0  0  0  0
   12.5000    5.6292    0.0000 C   0  0  0  0  0  0  0  0  0  0  0  0
    5.5000   -3.0311    0.0000 C   0  0  0  0  0  0  0  0  0  0  0  0
    5.0000   -3.8971    0.0000 C   0  0  0  0  0  0  0  0  0  0  0  0
   16.0000   -2.1651    0.0000 C   0  0  0  0  0  0  0  0  0  0  0  0
   14.5000   -3.0311    0.0000 C   0  0  0  0  0  0  0  0  0  0  0  0
    4.0000   -3.8971    0.0000 C   0  0  0  0  0  0  0  0  0  0  0  0
   15.5000   -3.0311    0.0000 C   0  0  0  0  0  0  0  0  0  0  0  0
    3.5000   -4.7631    0.0000 C   0  0  0  0  0  0  0  0  0  0  0  0
    2.5000   -4.7631    0.0000 C   0  0  0  0  0  0  0  0  0  0  0  0
    2.0000   -5.6292    0.0000 C   0  0  0  0  0  0  0  0  0  0  0  0
   17.0399    3.5151    0.0000 H   0  0  0  0  0  0  0  0  0  0  0  0
   15.2185    1.6126    0.0000 H   0  0  0  0  0  0  0  0  0  0  0  0
   16.5262    3.4125    0.0000 H   0  0  0  0  0  0  0  0  0  0  0  0
   17.0399    0.8151    0.0000 H   0  0  0  0  0  0  0  0  0  0  0  0
   13.8800    2.1651    0.0000 H   0  0  0  0  0  0  0  0  0  0  0  0
   14.5826    3.2431    0.0000 H   0  0  0  0  0  0  0  0  0  0  0  0
   13.8923    3.6417    0.0000 H   0  0  0  0  0  0  0  0  0  0  0  0
   19.0133    1.0757    0.0000 H   0  0  0  0  0  0  0  0  0  0  0  0
   19.8793    1.2128    0.0000 H   0  0  0  0  0  0  0  0  0  0  0  0
   19.7421    2.0789    0.0000 H   0  0  0  0  0  0  0  0  0  0  0  0
   19.7421    2.2513    0.0000 H   0  0  0  0  0  0  0  0  0  0  0  0
   19.8793    3.1173    0.0000 H   0  0  0  0  0  0  0  0  0  0  0  0
   19.0133    3.2544    0.0000 H   0  0  0  0  0  0  0  0  0  0  0  0
   13.1077    1.9096    0.0000 H   0  0  0  0  0  0  0  0  0  0  0  0
   12.4174    1.5111    0.0000 H   0  0  0  0  0  0  0  0  0  0  0  0
   12.3923   -0.1776    0.0000 H   0  0  0  0  0  0  0  0  0  0  0  0
   13.0826    0.2210    0.0000 H   0  0  0  0  0  0  0  0  0  0  0  0
   16.9086    4.2534    0.0000 H   0  0  0  0  0  0  0  0  0  0  0  0
   16.8628    5.1290    0.0000 H   0  0  0  0  0  0  0  0  0  0  0  0
   15.9871    5.0831    0.0000 H   0  0  0  0  0  0  0  0  0  0  0  0
   11.6077    1.0436    0.0000 H   0  0  0  0  0  0  0  0  0  0  0  0
   10.9174    0.6451    0.0000 H   0  0  0  0  0  0  0  0  0  0  0  0
   10.8923   -1.0436    0.0000 H   0  0  0  0  0  0  0  0  0  0  0  0
   11.5826   -0.6451    0.0000 H   0  0  0  0  0  0  0  0  0  0  0  0
   13.3800   -0.4330    0.0000 H   0  0  0  0  0  0  0  0  0  0  0  0
   10.1077    0.1776    0.0000 H   0  0  0  0  0  0  0  0  0  0  0  0
    9.4174   -0.2210    0.0000 H   0  0  0  0  0  0  0  0  0  0  0  0
    9.3923   -1.9096    0.0000 H   0  0  0  0  0  0  0  0  0  0  0  0
   10.0826   -1.5111    0.0000 H   0  0  0  0  0  0  0  0  0  0  0  0
   13.4749    4.3646    0.0000 H   0  0  0  0  0  0  0  0  0  0  0  0
   13.4749    5.1617    0.0000 H   0  0  0  0  0  0  0  0  0  0  0  0
    8.6077   -0.6885    0.0000 H   0  0  0  0  0  0  0  0  0  0  0  0
    7.9174   -1.0870    0.0000 H   0  0  0  0  0  0  0  0  0  0  0  0
    7.8923   -2.7756    0.0000 H   0  0  0  0  0  0  0  0  0  0  0  0
    8.5826   -2.3771    0.0000 H   0  0  0  0  0  0  0  0  0  0  0  0
    7.1077   -1.5545    0.0000 H   0  0  0  0  0  0  0  0  0  0  0  0
    6.4174   -1.9530    0.0000 H   0  0  0  0  0  0  0  0  0  0  0  0
    6.3923   -3.6417    0.0000 H   0  0  0  0  0  0  0  0  0  0  0  0
    7.0826   -3.2431    0.0000 H   0  0  0  0  0  0  0  0  0  0  0  0
   15.8100   -0.7621    0.0000 H   0  0  0  0  0  0  0  0  0  0  0  0
   13.3800   -2.1651    0.0000 H   0  0  0  0  0  0  0  0  0  0  0  0
   13.0369    5.9392    0.0000 H   0  0  0  0  0  0  0  0  0  0  0  0
   12.1900    6.1661    0.0000 H   0  0  0  0  0  0  0  0  0  0  0  0
   11.9631    5.3192    0.0000 H   0  0  0  0  0  0  0  0  0  0  0  0
    5.6077   -2.4205    0.0000 H   0  0  0  0  0  0  0  0  0  0  0  0
    4.9174   -2.8190    0.0000 H   0  0  0  0  0  0  0  0  0  0  0  0
    4.8923   -4.5077    0.0000 H   0  0  0  0  0  0  0  0  0  0  0  0
    5.5826   -4.1092    0.0000 H   0  0  0  0  0  0  0  0  0  0  0  0
    4.1077   -3.2865    0.0000 H   0  0  0  0  0  0  0  0  0  0  0  0
    3.4174   -3.6851    0.0000 H   0  0  0  0  0  0  0  0  0  0  0  0
   16.6200   -2.1651    0.0000 H   0  0  0  0  0  0  0  0  0  0  0  0
   14.1900   -3.5680    0.0000 H   0  0  0  0  0  0  0  0  0  0  0  0
   15.8100   -3.5680    0.0000 H   0  0  0  0  0  0  0  0  0  0  0  0
    3.3923   -5.3737    0.0000 H   0  0  0  0  0  0  0  0  0  0  0  0
    4.0826   -4.9752    0.0000 H   0  0  0  0  0  0  0  0  0  0  0  0
    2.6077   -4.1526    0.0000 H   0  0  0  0  0  0  0  0  0  0  0  0
    1.9174   -4.5511    0.0000 H   0  0  0  0  0  0  0  0  0  0  0  0
    1.4631   -5.3192    0.0000 H   0  0  0  0  0  0  0  0  0  0  0  0
    1.6900   -6.1661    0.0000 H   0  0  0  0  0  0  0  0  0  0  0  0
    2.5369   -5.9392    0.0000 H   0  0  0  0  0  0  0  0  0  0  0  0
  1 11  1  0  0  0  0
  1 13  1  0  0  0  0
  2 10  1  0  0  0  0
  2 15  1  0  0  0  0
  3 13  1  0  0  0  0
  3 15  1  0  0  0  0
 12  4  1  6  0  0  0
  4 23  1  0  0  0  0
  5 22  1  0  0  0  0
  5 29  1  0  0  0  0
  6 21  2  0  0  0  0
  7 22  2  0  0  0  0
 14  8  1  1  0  0  0
  8 19  1  0  0  0  0
  8 21  1  0  0  0  0
  9 21  1  0  0  0  0
  9 28  1  0  0  0  0
  9 70  1  0  0  0  0
 10 12  1  0  0  0  0
 10 13  1  0  0  0  0
 10 46  1  6  0  0  0
 11 12  1  0  0  0  0
 11 14  1  0  0  0  0
 11 47  1  0  0  0  0
 12 48  1  0  0  0  0
 13 49  1  6  0  0  0
 14 16  1  0  0  0  0
 14 50  1  0  0  0  0
 15 17  1  0  0  0  0
 15 18  1  0  0  0  0
 16 22  1  0  0  0  0
 16 51  1  0  0  0  0
 16 52  1  0  0  0  0
 17 53  1  0  0  0  0
 17 54  1  0  0  0  0
 17 55  1  0  0  0  0
 18 56  1  0  0  0  0
 18 57  1  0  0  0  0
 18 58  1  0  0  0  0
 19 20  1  0  0  0  0
 19 59  1  0  0  0  0
 19 60  1  0  0  0  0
 20 24  1  0  0  0  0
 20 61  1  0  0  0  0
 20 62  1  0  0  0  0
 23 63  1  0  0  0  0
 23 64  1  0  0  0  0
 23 65  1  0  0  0  0
 24 25  1  0  0  0  0
 24 66  1  0  0  0  0
 24 67  1  0  0  0  0
 25 26  1  0  0  0  0
 25 68  1  0  0  0  0
 25 69  1  0  0  0  0
 26 27  1  0  0  0  0
 26 71  1  0  0  0  0
 26 72  1  0  0  0  0
 27 30  1  0  0  0  0
 27 73  1  0  0  0  0
 27 74  1  0  0  0  0
 28 34  2  0  0  0  0
 28 35  1  0  0  0  0
 29 36  1  0  0  0  0
 29 75  1  0  0  0  0
 29 76  1  0  0  0  0
 30 31  1  0  0  0  0
 30 77  1  0  0  0  0
 30 78  1  0  0  0  0
 31 32  1  0  0  0  0
 31 79  1  0  0  0  0
 31 80  1  0  0  0  0
 32 33  1  0  0  0  0
 32 81  1  0  0  0  0
 32 82  1  0  0  0  0
 33 37  1  0  0  0  0
 33 83  1  0  0  0  0
 33 84  1  0  0  0  0
 34 39  1  0  0  0  0
 34 85  1  0  0  0  0
 35 40  2  0  0  0  0
 35 86  1  0  0  0  0
 36 87  1  0  0  0  0
 36 88  1  0  0  0  0
 36 89  1  0  0  0  0
 37 38  1  0  0  0  0
 37 90  1  0  0  0  0
 37 91  1  0  0  0  0
 38 41  1  0  0  0  0
 38 92  1  0  0  0  0
 38 93  1  0  0  0  0
 39 42  2  0  0  0  0
 39 96  1  0  0  0  0
 40 42  1  0  0  0  0
 40 97  1  0  0  0  0
 41 43  1  0  0  0  0
 41 94  1  0  0  0  0
 41 95  1  0  0  0  0
 42 98  1  0  0  0  0
 43 44  1  0  0  0  0
 43 99  1  0  0  0  0
 43100  1  0  0  0  0
 44 45  1  0  0  0  0
 44101  1  0  0  0  0
 44102  1  0  0  0  0
 45103  1  0  0  0  0
 45104  1  0  0  0  0
 45105  1  0  0  0  0
M  END
> <PUBCHEM_COMPOUND_CID>
508347
> <PUBCHEM_COMPOUND_CANONICALIZED>
1
> <PUBCHEM_CACTVS_COMPLEXITY>
834
> <PUBCHEM_CACTVS_HBOND_ACCEPTOR>
7
> <PUBCHEM_CACTVS_HBOND_DONOR>
1
> <PUBCHEM_CACTVS_ROTATABLE_BOND>
23
> <PUBCHEM_CACTVS_SUBSKEYS>
AAADcfB/OAAAAAAAAAAAAAAAAAAAASJAAAAwAAAAAAASAAABAAAAHgAQAAAACDzxkAczyIPABACIACTSWACCAAAhAgAIiAEIZIibIDrAkZGnIAhvlgLeyCf6/K/AAAAAAAAAAAAAAAAAAAAAAAAAAAAAAA==
> <PUBCHEM_IUPAC_OPENEYE_NAME>
ethyl (3S)-3-[(3aR,6S,6aR)-6-methoxy-2,2-dimethyl-3a,5,6,6a-tetrahydrofuro[2,3-d][1,3]dioxol-5-yl]-3-[hexadecyl(phenylcarbamoyl)amino]propanoate
> <PUBCHEM_IUPAC_CAS_NAME>
(3S)-3-[(3aR,6S,6aR)-6-methoxy-2,2-dimethyl-3a,5,6,6a-tetrahydrofuro[2,3-d][1,3]dioxol-5-yl]-3-[[anilino(oxo)methyl]-hexadecylamino]propanoic acid ethyl ester
> <PUBCHEM_IUPAC_NAME_MARKUP>
ethyl (3<I>S</I>)-3-[(3<I>a</I><I>R</I>,6<I>S</I>,6<I>a</I><I>R</I>)-6-methoxy-2,2-dimethyl-3<I>a</I>,5,6,6<I>a</I>-tetrahydrofuro[2,3-d][1,3]dioxol-5-yl]-3-[hexadecyl(phenylcarbamoyl)amino]propanoate
> <PUBCHEM_IUPAC_NAME>
ethyl (3S)-3-[(3aR,6S,6aR)-6-methoxy-2,2-dimethyl-3a,5,6,6a-tetrahydrofuro[2,3-d][1,3]dioxol-5-yl]-3-[hexadecyl(phenylcarbamoyl)amino]propanoate
> <PUBCHEM_IUPAC_SYSTEMATIC_NAME>
ethyl (3S)-3-[(3aR,6S,6aR)-6-methoxy-2,2-dimethyl-3a,5,6,6a-tetrahydrofuro[2,3-d][1,3]dioxol-5-yl]-3-[hexadecyl(phenylcarbamoyl)amino]propanoate
> <PUBCHEM_IUPAC_TRADITIONAL_NAME>
(3S)-3-[(3aR,6S,6aR)-6-methoxy-2,2-dimethyl-3a,5,6,6a-tetrahydrofuro[2,3-d][1,3]dioxol-5-yl]-3-[cetyl(phenylcarbamoyl)amino]propionic acid ethyl ester
> <PUBCHEM_IUPAC_INCHI>
InChI=1S/C36H60N2O7/c1-6-8-9-10-11-12-13-14-15-16-17-18-19-23-26-38(35(40)37-28-24-21-20-22-25-28)29(27-30(39)42-7-2)31-32(41-5)33-34(43-31)45-36(3,4)44-33/h20-22,24-25,29,31-34H,6-19,23,26-27H2,1-5H3,(H,37,40)/t29-,31?,32-,33+,34+/m0/s1
> <PUBCHEM_IUPAC_INCHIKEY>
POUVJALPHNDOJW-MCDOMRQWSA-N
> <PUBCHEM_XLOGP3_AA>
9.2
> <PUBCHEM_EXACT_MASS>
632.44005226
> <PUBCHEM_MOLECULAR_FORMULA>
C36H60N2O7
> <PUBCHEM_MOLECULAR_WEIGHT>
632.9
> <PUBCHEM_OPENEYE_CAN_SMILES>
CCCCCCCCCCCCCCCCN(C(CC(=O)OCC)C1C(C2C(O1)OC(O2)(C)C)OC)C(=O)NC3=CC=CC=C3
> <PUBCHEM_OPENEYE_ISO_SMILES>
CCCCCCCCCCCCCCCCN([C@@H](CC(=O)OCC)C1[C@@H]([C@@H]2[C@H](O1)OC(O2)(C)C)OC)C(=O)NC3=CC=CC=C3
> <PUBCHEM_CACTVS_TPSA>
95.6
> <PUBCHEM_MONOISOTOPIC_WEIGHT>
632.44005226
> <PUBCHEM_TOTAL_CHARGE>
0
> <PUBCHEM_HEAVY_ATOM_COUNT>
45
> <PUBCHEM_ATOM_DEF_STEREO_COUNT>
4
> <PUBCHEM_ATOM_UDEF_STEREO_COUNT>
1
> <PUBCHEM_BOND_DEF_STEREO_COUNT>
0
> <PUBCHEM_BOND_UDEF_STEREO_COUNT>
0
> <PUBCHEM_ISOTOPIC_ATOM_COUNT>
0
> <PUBCHEM_COMPONENT_COUNT>
1
> <PUBCHEM_CACTVS_TAUTO_COUNT>
-1
> <PUBCHEM_COORDINATE_TYPE>
1
5
255
> <PUBCHEM_BONDANNOTATIONS>
11  1  3
10  46  6
13  49  6
28  34  8
28  35  8
34  39  8
35  40  8
39  42  8
12  4  6
40  42  8
14  8  5
$$$$
