508441
  -OEChem-10302200282D
 50 51  0     1  0  0  0  0  0999 V2000
    6.6958    0.6718    0.0000 S   0  0  0  0  0  0  0  0  0  0  0  0
    2.6692    1.1536    0.0000 O   0  0  0  0  0  0  0  0  0  0  0  0
    5.9332    3.1445    0.0000 O   0  0  0  0  0  0  0  0  0  0  0  0
    3.9563   -0.0054    0.0000 O   0  0  0  0  0  0  0  0  0  0  0  0
    5.2945    1.4808    0.0000 N   0  0  0  0  0  0  0  0  0  0  0  0
    5.2013   -3.2988    0.0000 N   0  0  0  0  0  0  0  0  0  0  0  0
    4.3164    1.6887    0.0000 C   0  0  3  0  0  0  0  0  0  0  0  0
    4.0074    2.6398    0.0000 C   0  0  2  0  0  0  0  0  0  0  0  0
    5.7013    0.5673    0.0000 C   0  0  3  0  0  0  0  0  0  0  0  0
    3.0292    2.8477    0.0000 C   0  0  0  0  0  0  0  0  0  0  0  0
    6.0377    2.1500    0.0000 C   0  0  0  0  0  0  0  0  0  0  0  0
    4.6765    3.3829    0.0000 C   0  0  0  0  0  0  0  0  0  0  0  0
    6.9037    1.6500    0.0000 C   0  0  0  0  0  0  0  0  0  0  0  0
    5.2013   -0.2988    0.0000 C   0  0  0  0  0  0  0  0  0  0  0  0
    3.6473    0.9456    0.0000 C   0  0  0  0  0  0  0  0  0  0  0  0
    2.7202    3.7988    0.0000 C   0  0  0  0  0  0  0  0  0  0  0  0
    6.0673   -0.7988    0.0000 C   0  0  0  0  0  0  0  0  0  0  0  0
    4.3352   -0.7988    0.0000 C   0  0  0  0  0  0  0  0  0  0  0  0
    6.0673   -1.7988    0.0000 C   0  0  0  0  0  0  0  0  0  0  0  0
    4.3352   -1.7988    0.0000 C   0  0  0  0  0  0  0  0  0  0  0  0
    5.2013   -2.2988    0.0000 C   0  0  0  0  0  0  0  0  0  0  0  0
    2.0000    0.4104    0.0000 C   0  0  0  0  0  0  0  0  0  0  0  0
    6.0673   -3.7988    0.0000 C   0  0  0  0  0  0  0  0  0  0  0  0
    4.3352   -3.7988    0.0000 C   0  0  0  0  0  0  0  0  0  0  0  0
    4.5080    1.0991    0.0000 H   0  0  0  0  0  0  0  0  0  0  0  0
    3.8158    3.2294    0.0000 H   0  0  0  0  0  0  0  0  0  0  0  0
    6.0390    0.0473    0.0000 H   0  0  0  0  0  0  0  0  0  0  0  0
    2.4153    2.7614    0.0000 H   0  0  0  0  0  0  0  0  0  0  0  0
    3.0076    2.2281    0.0000 H   0  0  0  0  0  0  0  0  0  0  0  0
    5.1373    2.9681    0.0000 H   0  0  0  0  0  0  0  0  0  0  0  0
    5.0914    3.8437    0.0000 H   0  0  0  0  0  0  0  0  0  0  0  0
    4.2158    3.7978    0.0000 H   0  0  0  0  0  0  0  0  0  0  0  0
    7.4934    1.4584    0.0000 H   0  0  0  0  0  0  0  0  0  0  0  0
    7.1559    2.2164    0.0000 H   0  0  0  0  0  0  0  0  0  0  0  0
    3.3099    3.9903    0.0000 H   0  0  0  0  0  0  0  0  0  0  0  0
    2.5286    4.3884    0.0000 H   0  0  0  0  0  0  0  0  0  0  0  0
    2.1306    3.6072    0.0000 H   0  0  0  0  0  0  0  0  0  0  0  0
    6.6042   -0.4888    0.0000 H   0  0  0  0  0  0  0  0  0  0  0  0
    3.7983   -0.4888    0.0000 H   0  0  0  0  0  0  0  0  0  0  0  0
    6.6042   -2.1088    0.0000 H   0  0  0  0  0  0  0  0  0  0  0  0
    3.7983   -2.1088    0.0000 H   0  0  0  0  0  0  0  0  0  0  0  0
    1.5392    0.8253    0.0000 H   0  0  0  0  0  0  0  0  0  0  0  0
    1.5851   -0.0503    0.0000 H   0  0  0  0  0  0  0  0  0  0  0  0
    2.4608   -0.0045    0.0000 H   0  0  0  0  0  0  0  0  0  0  0  0
    5.7573   -4.3357    0.0000 H   0  0  0  0  0  0  0  0  0  0  0  0
    6.6042   -4.1088    0.0000 H   0  0  0  0  0  0  0  0  0  0  0  0
    6.3773   -3.2618    0.0000 H   0  0  0  0  0  0  0  0  0  0  0  0
    4.0252   -3.2618    0.0000 H   0  0  0  0  0  0  0  0  0  0  0  0
    3.7983   -4.1088    0.0000 H   0  0  0  0  0  0  0  0  0  0  0  0
    4.6452   -4.3357    0.0000 H   0  0  0  0  0  0  0  0  0  0  0  0
  1  9  1  0  0  0  0
  1 13  1  0  0  0  0
  2 15  1  0  0  0  0
  2 22  1  0  0  0  0
  3 11  2  0  0  0  0
  4 15  2  0  0  0  0
  5  7  1  0  0  0  0
  5  9  1  0  0  0  0
  5 11  1  0  0  0  0
  6 21  1  0  0  0  0
  6 23  1  0  0  0  0
  6 24  1  0  0  0  0
  7  8  1  0  0  0  0
  7 15  1  0  0  0  0
  7 25  1  0  0  0  0
  8 10  1  0  0  0  0
  8 12  1  6  0  0  0
  8 26  1  0  0  0  0
  9 14  1  0  0  0  0
  9 27  1  0  0  0  0
 10 16  1  0  0  0  0
 10 28  1  0  0  0  0
 10 29  1  0  0  0  0
 11 13  1  0  0  0  0
 12 30  1  0  0  0  0
 12 31  1  0  0  0  0
 12 32  1  0  0  0  0
 13 33  1  0  0  0  0
 13 34  1  0  0  0  0
 14 17  2  0  0  0  0
 14 18  1  0  0  0  0
 16 35  1  0  0  0  0
 16 36  1  0  0  0  0
 16 37  1  0  0  0  0
 17 19  1  0  0  0  0
 17 38  1  0  0  0  0
 18 20  2  0  0  0  0
 18 39  1  0  0  0  0
 19 21  2  0  0  0  0
 19 40  1  0  0  0  0
 20 21  1  0  0  0  0
 20 41  1  0  0  0  0
 22 42  1  0  0  0  0
 22 43  1  0  0  0  0
 22 44  1  0  0  0  0
 23 45  1  0  0  0  0
 23 46  1  0  0  0  0
 23 47  1  0  0  0  0
 24 48  1  0  0  0  0
 24 49  1  0  0  0  0
 24 50  1  0  0  0  0
M  END
> <PUBCHEM_COMPOUND_CID>
508441
> <PUBCHEM_COMPOUND_CANONICALIZED>
1
> <PUBCHEM_CACTVS_COMPLEXITY>
450
> <PUBCHEM_CACTVS_HBOND_ACCEPTOR>
5
> <PUBCHEM_CACTVS_HBOND_DONOR>
0
> <PUBCHEM_CACTVS_ROTATABLE_BOND>
7
> <PUBCHEM_CACTVS_SUBSKEYS>
AAADceB7MABAAAAAAAAAAAAAAAAAAWAAAAAwAAAAAAAAAAABAAAAHgQAAAAADSjF2AayyIMABAiIAiXSWACCAABhAhAIiAGIZIgKIDLgkbGFIAhkhgD4yAeYgAAOCAAAAAAAAAAQAAAAAAAAAAAAAAAAAA==
> <PUBCHEM_IUPAC_OPENEYE_NAME>
methyl (3S)-2-[2-[4-(dimethylamino)phenyl]-4-oxo-thiazolidin-3-yl]-3-methyl-pentanoate
> <PUBCHEM_IUPAC_CAS_NAME>
(3S)-2-[2-[4-(dimethylamino)phenyl]-4-oxo-3-thiazolidinyl]-3-methylpentanoic acid methyl ester
> <PUBCHEM_IUPAC_NAME_MARKUP>
methyl (3<I>S</I>)-2-[2-[4-(dimethylamino)phenyl]-4-oxo-1,3-thiazolidin-3-yl]-3-methylpentanoate
> <PUBCHEM_IUPAC_NAME>
methyl (3S)-2-[2-[4-(dimethylamino)phenyl]-4-oxo-1,3-thiazolidin-3-yl]-3-methylpentanoate
> <PUBCHEM_IUPAC_SYSTEMATIC_NAME>
methyl (3S)-2-[2-[4-(dimethylamino)phenyl]-4-oxidanylidene-1,3-thiazolidin-3-yl]-3-methyl-pentanoate
> <PUBCHEM_IUPAC_TRADITIONAL_NAME>
(3S)-2-[2-[4-(dimethylamino)phenyl]-4-keto-thiazolidin-3-yl]-3-methyl-valeric acid methyl ester
> <PUBCHEM_IUPAC_INCHI>
InChI=1S/C18H26N2O3S/c1-6-12(2)16(18(22)23-5)20-15(21)11-24-17(20)13-7-9-14(10-8-13)19(3)4/h7-10,12,16-17H,6,11H2,1-5H3/t12-,16?,17?/m0/s1
> <PUBCHEM_IUPAC_INCHIKEY>
FOPDRNIMLFSOGB-CDEQTRAXSA-N
> <PUBCHEM_XLOGP3_AA>
3.6
> <PUBCHEM_EXACT_MASS>
350.16641387
> <PUBCHEM_MOLECULAR_FORMULA>
C18H26N2O3S
> <PUBCHEM_MOLECULAR_WEIGHT>
350.5
> <PUBCHEM_OPENEYE_CAN_SMILES>
CCC(C)C(C(=O)OC)N1C(SCC1=O)C2=CC=C(C=C2)N(C)C
> <PUBCHEM_OPENEYE_ISO_SMILES>
CC[C@H](C)C(C(=O)OC)N1C(SCC1=O)C2=CC=C(C=C2)N(C)C
> <PUBCHEM_CACTVS_TPSA>
75.2
> <PUBCHEM_MONOISOTOPIC_WEIGHT>
350.16641387
> <PUBCHEM_TOTAL_CHARGE>
0
> <PUBCHEM_HEAVY_ATOM_COUNT>
24
> <PUBCHEM_ATOM_DEF_STEREO_COUNT>
1
> <PUBCHEM_ATOM_UDEF_STEREO_COUNT>
2
> <PUBCHEM_BOND_DEF_STEREO_COUNT>
0
> <PUBCHEM_BOND_UDEF_STEREO_COUNT>
0
> <PUBCHEM_ISOTOPIC_ATOM_COUNT>
0
> <PUBCHEM_COMPONENT_COUNT>
1
> <PUBCHEM_CACTVS_TAUTO_COUNT>
-1
> <PUBCHEM_COORDINATE_TYPE>
1
5
255
> <PUBCHEM_BONDANNOTATIONS>
14  17  8
14  18  8
17  19  8
18  20  8
19  21  8
20  21  8
7  15  3
8  12  6
9  14  3
$$$$
