508439
  -OEChem-10302200282D
 47 49  0     1  0  0  0  0  0999 V2000
    3.7891    2.4139    0.0000 S   0  0  0  0  0  0  0  0  0  0  0  0
    5.6859    4.1739    0.0000 O   0  0  0  0  0  0  0  0  0  0  0  0
    8.0524    2.4650    0.0000 O   0  0  0  0  0  0  0  0  0  0  0  0
    2.8660   -1.1739    0.0000 O   0  0  0  0  0  0  0  0  0  0  0  0
    6.8934    3.7521    0.0000 O   0  0  0  0  0  0  0  0  0  0  0  0
    5.4071    2.4139    0.0000 N   0  0  0  0  0  0  0  0  0  0  0  0
    4.5981    1.8261    0.0000 C   0  0  3  0  0  0  0  0  0  0  0  0
    6.3582    2.1048    0.0000 C   0  0  3  0  0  0  0  0  0  0  0  0
    5.0981    3.3649    0.0000 C   0  0  0  0  0  0  0  0  0  0  0  0
    4.5981    0.8261    0.0000 C   0  0  0  0  0  0  0  0  0  0  0  0
    4.0981    3.3649    0.0000 C   0  0  0  0  0  0  0  0  0  0  0  0
    6.5661    1.1267    0.0000 C   0  0  0  0  0  0  0  0  0  0  0  0
    7.1013    2.7740    0.0000 C   0  0  0  0  0  0  0  0  0  0  0  0
    3.7320    0.3261    0.0000 C   0  0  0  0  0  0  0  0  0  0  0  0
    5.4641    0.3261    0.0000 C   0  0  0  0  0  0  0  0  0  0  0  0
    3.7320   -0.6739    0.0000 C   0  0  0  0  0  0  0  0  0  0  0  0
    5.4641   -0.6739    0.0000 C   0  0  0  0  0  0  0  0  0  0  0  0
    4.5981   -1.1739    0.0000 C   0  0  0  0  0  0  0  0  0  0  0  0
    8.7955    3.1341    0.0000 C   0  0  0  0  0  0  0  0  0  0  0  0
    2.8660   -2.1739    0.0000 C   0  0  0  0  0  0  0  0  0  0  0  0
    9.7465    2.8251    0.0000 C   0  0  0  0  0  0  0  0  0  0  0  0
    3.7320   -2.6739    0.0000 C   0  0  0  0  0  0  0  0  0  0  0  0
    2.0000   -2.6739    0.0000 C   0  0  0  0  0  0  0  0  0  0  0  0
    3.7320   -3.6739    0.0000 C   0  0  0  0  0  0  0  0  0  0  0  0
    2.0000   -3.6739    0.0000 C   0  0  0  0  0  0  0  0  0  0  0  0
    2.8660   -4.1739    0.0000 C   0  0  0  0  0  0  0  0  0  0  0  0
    5.1505    1.5446    0.0000 H   0  0  0  0  0  0  0  0  0  0  0  0
    5.8974    1.6900    0.0000 H   0  0  0  0  0  0  0  0  0  0  0  0
    4.1629    3.9815    0.0000 H   0  0  0  0  0  0  0  0  0  0  0  0
    3.4916    3.4938    0.0000 H   0  0  0  0  0  0  0  0  0  0  0  0
    5.9596    0.9978    0.0000 H   0  0  0  0  0  0  0  0  0  0  0  0
    6.6950    0.5202    0.0000 H   0  0  0  0  0  0  0  0  0  0  0  0
    7.1725    1.2556    0.0000 H   0  0  0  0  0  0  0  0  0  0  0  0
    3.1951    0.6361    0.0000 H   0  0  0  0  0  0  0  0  0  0  0  0
    6.0010    0.6361    0.0000 H   0  0  0  0  0  0  0  0  0  0  0  0
    6.0010   -0.9839    0.0000 H   0  0  0  0  0  0  0  0  0  0  0  0
    4.5981   -1.7939    0.0000 H   0  0  0  0  0  0  0  0  0  0  0  0
    9.0866    3.6815    0.0000 H   0  0  0  0  0  0  0  0  0  0  0  0
    8.3069    3.5158    0.0000 H   0  0  0  0  0  0  0  0  0  0  0  0
    9.5550    2.2354    0.0000 H   0  0  0  0  0  0  0  0  0  0  0  0
   10.3362    2.6335    0.0000 H   0  0  0  0  0  0  0  0  0  0  0  0
    9.9381    3.4147    0.0000 H   0  0  0  0  0  0  0  0  0  0  0  0
    4.2690   -2.3639    0.0000 H   0  0  0  0  0  0  0  0  0  0  0  0
    1.4631   -2.3639    0.0000 H   0  0  0  0  0  0  0  0  0  0  0  0
    4.2690   -3.9839    0.0000 H   0  0  0  0  0  0  0  0  0  0  0  0
    1.4631   -3.9839    0.0000 H   0  0  0  0  0  0  0  0  0  0  0  0
    2.8660   -4.7939    0.0000 H   0  0  0  0  0  0  0  0  0  0  0  0
  1  7  1  0  0  0  0
  1 11  1  0  0  0  0
  2  9  2  0  0  0  0
  3 13  1  0  0  0  0
  3 19  1  0  0  0  0
  4 16  1  0  0  0  0
  4 20  1  0  0  0  0
  5 13  2  0  0  0  0
  6  7  1  0  0  0  0
  6  8  1  0  0  0  0
  6  9  1  0  0  0  0
  7 10  1  0  0  0  0
  7 27  1  0  0  0  0
  8 12  1  0  0  0  0
  8 13  1  0  0  0  0
  8 28  1  0  0  0  0
  9 11  1  0  0  0  0
 10 14  2  0  0  0  0
 10 15  1  0  0  0  0
 11 29  1  0  0  0  0
 11 30  1  0  0  0  0
 12 31  1  0  0  0  0
 12 32  1  0  0  0  0
 12 33  1  0  0  0  0
 14 16  1  0  0  0  0
 14 34  1  0  0  0  0
 15 17  2  0  0  0  0
 15 35  1  0  0  0  0
 16 18  2  0  0  0  0
 17 18  1  0  0  0  0
 17 36  1  0  0  0  0
 18 37  1  0  0  0  0
 19 21  1  0  0  0  0
 19 38  1  0  0  0  0
 19 39  1  0  0  0  0
 20 22  2  0  0  0  0
 20 23  1  0  0  0  0
 21 40  1  0  0  0  0
 21 41  1  0  0  0  0
 21 42  1  0  0  0  0
 22 24  1  0  0  0  0
 22 43  1  0  0  0  0
 23 25  2  0  0  0  0
 23 44  1  0  0  0  0
 24 26  2  0  0  0  0
 24 45  1  0  0  0  0
 25 26  1  0  0  0  0
 25 46  1  0  0  0  0
 26 47  1  0  0  0  0
M  END
> <PUBCHEM_COMPOUND_CID>
508439
> <PUBCHEM_COMPOUND_CANONICALIZED>
1
> <PUBCHEM_CACTVS_COMPLEXITY>
494
> <PUBCHEM_CACTVS_HBOND_ACCEPTOR>
5
> <PUBCHEM_CACTVS_HBOND_DONOR>
0
> <PUBCHEM_CACTVS_ROTATABLE_BOND>
7
> <PUBCHEM_CACTVS_SUBSKEYS>
AAADceB6OABAAAAAAAAAAAAAAAAAAWAAAAAwYAAAAAAAAAABQAAAHgQAAAAADCzl2AayDoMABAiIAiHSGACCCABgIBAIiAGODIgOJiKksTuHOCjkxhG4qAewwBAOAAABAAAAAAAAAAIAAAAAAAAAAAAAAA==
> <PUBCHEM_IUPAC_OPENEYE_NAME>
ethyl 2-[4-oxo-2-(3-phenoxyphenyl)thiazolidin-3-yl]propanoate
> <PUBCHEM_IUPAC_CAS_NAME>
2-[4-oxo-2-(3-phenoxyphenyl)-3-thiazolidinyl]propanoic acid ethyl ester
> <PUBCHEM_IUPAC_NAME_MARKUP>
ethyl 2-[4-oxo-2-(3-phenoxyphenyl)-1,3-thiazolidin-3-yl]propanoate
> <PUBCHEM_IUPAC_NAME>
ethyl 2-[4-oxo-2-(3-phenoxyphenyl)-1,3-thiazolidin-3-yl]propanoate
> <PUBCHEM_IUPAC_SYSTEMATIC_NAME>
ethyl 2-[4-oxidanylidene-2-(3-phenoxyphenyl)-1,3-thiazolidin-3-yl]propanoate
> <PUBCHEM_IUPAC_TRADITIONAL_NAME>
2-[4-keto-2-(3-phenoxyphenyl)thiazolidin-3-yl]propionic acid ethyl ester
> <PUBCHEM_IUPAC_INCHI>
InChI=1S/C20H21NO4S/c1-3-24-20(23)14(2)21-18(22)13-26-19(21)15-8-7-11-17(12-15)25-16-9-5-4-6-10-16/h4-12,14,19H,3,13H2,1-2H3
> <PUBCHEM_IUPAC_INCHIKEY>
LGUROHQUYAYSDQ-UHFFFAOYSA-N
> <PUBCHEM_XLOGP3_AA>
4
> <PUBCHEM_EXACT_MASS>
371.11912932
> <PUBCHEM_MOLECULAR_FORMULA>
C20H21NO4S
> <PUBCHEM_MOLECULAR_WEIGHT>
371.5
> <PUBCHEM_OPENEYE_CAN_SMILES>
CCOC(=O)C(C)N1C(SCC1=O)C2=CC(=CC=C2)OC3=CC=CC=C3
> <PUBCHEM_OPENEYE_ISO_SMILES>
CCOC(=O)C(C)N1C(SCC1=O)C2=CC(=CC=C2)OC3=CC=CC=C3
> <PUBCHEM_CACTVS_TPSA>
81.1
> <PUBCHEM_MONOISOTOPIC_WEIGHT>
371.11912932
> <PUBCHEM_TOTAL_CHARGE>
0
> <PUBCHEM_HEAVY_ATOM_COUNT>
26
> <PUBCHEM_ATOM_DEF_STEREO_COUNT>
0
> <PUBCHEM_ATOM_UDEF_STEREO_COUNT>
2
> <PUBCHEM_BOND_DEF_STEREO_COUNT>
0
> <PUBCHEM_BOND_UDEF_STEREO_COUNT>
0
> <PUBCHEM_ISOTOPIC_ATOM_COUNT>
0
> <PUBCHEM_COMPONENT_COUNT>
1
> <PUBCHEM_CACTVS_TAUTO_COUNT>
-1
> <PUBCHEM_COORDINATE_TYPE>
1
5
255
> <PUBCHEM_BONDANNOTATIONS>
10  14  8
10  15  8
14  16  8
15  17  8
16  18  8
17  18  8
20  22  8
20  23  8
22  24  8
23  25  8
24  26  8
25  26  8
7  10  3
8  12  3
$$$$
