508457
  -OEChem-10302200282D
 61 65  0     1  0  0  0  0  0999 V2000
    5.4066    0.6071    0.0000 O   0  0  0  0  0  0  0  0  0  0  0  0
    5.7835   -6.1273    0.0000 O   0  0  0  0  0  0  0  0  0  0  0  0
    2.7613    5.8338    0.0000 O   0  0  0  0  0  0  0  0  0  0  0  0
    3.6734   -4.5311    0.0000 N   0  0  3  0  0  0  0  0  0  0  0  0
    5.4066    5.7827    0.0000 N   0  0  3  0  0  0  0  0  0  0  0  0
    2.3644   -3.5800    0.0000 N   0  0  0  0  0  0  0  0  0  0  0  0
    7.0246    5.7827    0.0000 N   0  0  0  0  0  0  0  0  0  0  0  0
    3.3644   -3.5800    0.0000 C   0  0  3  0  0  0  0  0  0  0  0  0
    6.2156    5.1949    0.0000 C   0  0  3  0  0  0  0  0  0  0  0  0
    3.9522   -2.7710    0.0000 C   0  0  0  0  0  0  0  0  0  0  0  0
    6.2156    4.1949    0.0000 C   0  0  0  0  0  0  0  0  0  0  0  0
    4.6245   -4.8401    0.0000 C   0  0  0  0  0  0  0  0  0  0  0  0
    4.4555    5.4736    0.0000 C   0  0  0  0  0  0  0  0  0  0  0  0
    2.8644   -5.1189    0.0000 C   0  0  0  0  0  0  0  0  0  0  0  0
    5.7156    6.7337    0.0000 C   0  0  0  0  0  0  0  0  0  0  0  0
    2.0554   -4.5311    0.0000 C   0  0  0  0  0  0  0  0  0  0  0  0
    6.7156    6.7337    0.0000 C   0  0  0  0  0  0  0  0  0  0  0  0
    3.5455   -1.8575    0.0000 C   0  0  0  0  0  0  0  0  0  0  0  0
    7.0816    3.6949    0.0000 C   0  0  0  0  0  0  0  0  0  0  0  0
    4.9467   -2.8755    0.0000 C   0  0  0  0  0  0  0  0  0  0  0  0
    5.3495    3.6949    0.0000 C   0  0  0  0  0  0  0  0  0  0  0  0
    5.1278   -1.1530    0.0000 C   0  0  0  0  0  0  0  0  0  0  0  0
    6.2156    2.1949    0.0000 C   0  0  0  0  0  0  0  0  0  0  0  0
    4.8324   -5.8182    0.0000 C   0  0  0  0  0  0  0  0  0  0  0  0
    3.7124    6.1428    0.0000 C   0  0  0  0  0  0  0  0  0  0  0  0
    4.1333   -1.0485    0.0000 C   0  0  0  0  0  0  0  0  0  0  0  0
    7.0816    2.6949    0.0000 C   0  0  0  0  0  0  0  0  0  0  0  0
    5.5345   -2.0665    0.0000 C   0  0  0  0  0  0  0  0  0  0  0  0
    5.3495    2.6949    0.0000 C   0  0  0  0  0  0  0  0  0  0  0  0
    5.7156   -0.3440    0.0000 C   0  0  0  0  0  0  0  0  0  0  0  0
    6.2156    1.1949    0.0000 C   0  0  0  0  0  0  0  0  0  0  0  0
    6.7156   -0.3440    0.0000 C   0  0  0  0  0  0  0  0  0  0  0  0
    7.0246    0.6071    0.0000 C   0  0  0  0  0  0  0  0  0  0  0  0
    3.0830   -3.0276    0.0000 H   0  0  0  0  0  0  0  0  0  0  0  0
    6.7680    4.9134    0.0000 H   0  0  0  0  0  0  0  0  0  0  0  0
    5.2441   -4.8185    0.0000 H   0  0  0  0  0  0  0  0  0  0  0  0
    4.7108   -4.2261    0.0000 H   0  0  0  0  0  0  0  0  0  0  0  0
    3.9669    5.0919    0.0000 H   0  0  0  0  0  0  0  0  0  0  0  0
    4.7466    4.9262    0.0000 H   0  0  0  0  0  0  0  0  0  0  0  0
    2.0000   -3.0784    0.0000 H   0  0  0  0  0  0  0  0  0  0  0  0
    7.6142    5.5911    0.0000 H   0  0  0  0  0  0  0  0  0  0  0  0
    2.8644   -5.7389    0.0000 H   0  0  0  0  0  0  0  0  0  0  0  0
    5.3511    7.2353    0.0000 H   0  0  0  0  0  0  0  0  0  0  0  0
    1.4658   -4.7227    0.0000 H   0  0  0  0  0  0  0  0  0  0  0  0
    7.0800    7.2353    0.0000 H   0  0  0  0  0  0  0  0  0  0  0  0
    2.9289   -1.7927    0.0000 H   0  0  0  0  0  0  0  0  0  0  0  0
    7.6185    4.0049    0.0000 H   0  0  0  0  0  0  0  0  0  0  0  0
    5.1989   -3.4419    0.0000 H   0  0  0  0  0  0  0  0  0  0  0  0
    4.8126    4.0049    0.0000 H   0  0  0  0  0  0  0  0  0  0  0  0
    4.2128   -5.8399    0.0000 H   0  0  0  0  0  0  0  0  0  0  0  0
    4.7461   -6.4322    0.0000 H   0  0  0  0  0  0  0  0  0  0  0  0
    4.2009    6.5245    0.0000 H   0  0  0  0  0  0  0  0  0  0  0  0
    3.4213    6.6902    0.0000 H   0  0  0  0  0  0  0  0  0  0  0  0
    3.8811   -0.4821    0.0000 H   0  0  0  0  0  0  0  0  0  0  0  0
    7.6185    2.3849    0.0000 H   0  0  0  0  0  0  0  0  0  0  0  0
    6.1511   -2.1313    0.0000 H   0  0  0  0  0  0  0  0  0  0  0  0
    4.8126    2.3849    0.0000 H   0  0  0  0  0  0  0  0  0  0  0  0
    7.0800   -0.8456    0.0000 H   0  0  0  0  0  0  0  0  0  0  0  0
    7.6142    0.7987    0.0000 H   0  0  0  0  0  0  0  0  0  0  0  0
    5.9124   -6.7337    0.0000 H   0  0  0  0  0  0  0  0  0  0  0  0
    2.3005    6.2486    0.0000 H   0  0  0  0  0  0  0  0  0  0  0  0
  1 30  1  0  0  0  0
  1 31  1  0  0  0  0
  2 24  1  0  0  0  0
  2 60  1  0  0  0  0
  3 25  1  0  0  0  0
  3 61  1  0  0  0  0
  4  8  1  0  0  0  0
  4 12  1  0  0  0  0
  4 14  1  0  0  0  0
  5  9  1  0  0  0  0
  5 13  1  0  0  0  0
  5 15  1  0  0  0  0
  6  8  1  0  0  0  0
  6 16  1  0  0  0  0
  6 40  1  0  0  0  0
  7  9  1  0  0  0  0
  7 17  1  0  0  0  0
  7 41  1  0  0  0  0
  8 10  1  0  0  0  0
  8 34  1  0  0  0  0
  9 11  1  0  0  0  0
  9 35  1  0  0  0  0
 10 18  2  0  0  0  0
 10 20  1  0  0  0  0
 11 19  2  0  0  0  0
 11 21  1  0  0  0  0
 12 24  1  0  0  0  0
 12 36  1  0  0  0  0
 12 37  1  0  0  0  0
 13 25  1  0  0  0  0
 13 38  1  0  0  0  0
 13 39  1  0  0  0  0
 14 16  2  0  0  0  0
 14 42  1  0  0  0  0
 15 17  2  0  0  0  0
 15 43  1  0  0  0  0
 16 44  1  0  0  0  0
 17 45  1  0  0  0  0
 18 26  1  0  0  0  0
 18 46  1  0  0  0  0
 19 27  1  0  0  0  0
 19 47  1  0  0  0  0
 20 28  2  0  0  0  0
 20 48  1  0  0  0  0
 21 29  2  0  0  0  0
 21 49  1  0  0  0  0
 22 26  2  0  0  0  0
 22 28  1  0  0  0  0
 22 30  1  0  0  0  0
 23 27  2  0  0  0  0
 23 29  1  0  0  0  0
 23 31  1  0  0  0  0
 24 50  1  0  0  0  0
 24 51  1  0  0  0  0
 25 52  1  0  0  0  0
 25 53  1  0  0  0  0
 26 54  1  0  0  0  0
 27 55  1  0  0  0  0
 28 56  1  0  0  0  0
 29 57  1  0  0  0  0
 30 32  2  0  0  0  0
 31 33  2  0  0  0  0
 32 33  1  0  0  0  0
 32 58  1  0  0  0  0
 33 59  1  0  0  0  0
M  END
> <PUBCHEM_COMPOUND_CID>
508457
> <PUBCHEM_COMPOUND_CANONICALIZED>
1
> <PUBCHEM_CACTVS_COMPLEXITY>
616
> <PUBCHEM_CACTVS_HBOND_ACCEPTOR>
7
> <PUBCHEM_CACTVS_HBOND_DONOR>
4
> <PUBCHEM_CACTVS_ROTATABLE_BOND>
8
> <PUBCHEM_CACTVS_SUBSKEYS>
AAADceB7sAAAAAAAAAAAAAAAAAAAASIEAAAwYAAAAAAAAAAB0AAAHgAQCAAADAThmAYxBIPABkCIAqBWQACCCAAkIgAIiIEODMiONjKEtRuGOSjswBOYqYeYyPCOQAAAAAAAAACAAAAAAAAAAAAAAAAAAA==
> <PUBCHEM_IUPAC_OPENEYE_NAME>
2-[2-[4-[5-[4-[3-(2-hydroxyethyl)-1,2-dihydroimidazol-2-yl]phenyl]-2-furyl]phenyl]-1,2-dihydroimidazol-3-yl]ethanol
> <PUBCHEM_IUPAC_CAS_NAME>
2-[2-[4-[5-[4-[3-(2-hydroxyethyl)-1,2-dihydroimidazol-2-yl]phenyl]-2-furanyl]phenyl]-1,2-dihydroimidazol-3-yl]ethanol
> <PUBCHEM_IUPAC_NAME_MARKUP>
2-[2-[4-[5-[4-[3-(2-hydroxyethyl)-1,2-dihydroimidazol-2-yl]phenyl]furan-2-yl]phenyl]-1,2-dihydroimidazol-3-yl]ethanol
> <PUBCHEM_IUPAC_NAME>
2-[2-[4-[5-[4-[3-(2-hydroxyethyl)-1,2-dihydroimidazol-2-yl]phenyl]furan-2-yl]phenyl]-1,2-dihydroimidazol-3-yl]ethanol
> <PUBCHEM_IUPAC_SYSTEMATIC_NAME>
2-[2-[4-[5-[4-[3-(2-hydroxyethyl)-1,2-dihydroimidazol-2-yl]phenyl]furan-2-yl]phenyl]-1,2-dihydroimidazol-3-yl]ethanol
> <PUBCHEM_IUPAC_TRADITIONAL_NAME>
2-[2-[4-[5-[4-[1-(2-hydroxyethyl)-4-imidazolin-2-yl]phenyl]-2-furyl]phenyl]-4-imidazolin-1-yl]ethanol
> <PUBCHEM_IUPAC_INCHI>
InChI=1S/C26H28N4O3/c31-17-15-29-13-11-27-25(29)21-5-1-19(2-6-21)23-9-10-24(33-23)20-3-7-22(8-4-20)26-28-12-14-30(26)16-18-32/h1-14,25-28,31-32H,15-18H2
> <PUBCHEM_IUPAC_INCHIKEY>
PWGRYXWBLXMQCR-UHFFFAOYSA-N
> <PUBCHEM_XLOGP3_AA>
3.1
> <PUBCHEM_EXACT_MASS>
444.21614077
> <PUBCHEM_MOLECULAR_FORMULA>
C26H28N4O3
> <PUBCHEM_MOLECULAR_WEIGHT>
444.5
> <PUBCHEM_OPENEYE_CAN_SMILES>
C1=CC(=CC=C1C2NC=CN2CCO)C3=CC=C(O3)C4=CC=C(C=C4)C5NC=CN5CCO
> <PUBCHEM_OPENEYE_ISO_SMILES>
C1=CC(=CC=C1C2NC=CN2CCO)C3=CC=C(O3)C4=CC=C(C=C4)C5NC=CN5CCO
> <PUBCHEM_CACTVS_TPSA>
84.1
> <PUBCHEM_MONOISOTOPIC_WEIGHT>
444.21614077
> <PUBCHEM_TOTAL_CHARGE>
0
> <PUBCHEM_HEAVY_ATOM_COUNT>
33
> <PUBCHEM_ATOM_DEF_STEREO_COUNT>
0
> <PUBCHEM_ATOM_UDEF_STEREO_COUNT>
2
> <PUBCHEM_BOND_DEF_STEREO_COUNT>
0
> <PUBCHEM_BOND_UDEF_STEREO_COUNT>
0
> <PUBCHEM_ISOTOPIC_ATOM_COUNT>
0
> <PUBCHEM_COMPONENT_COUNT>
1
> <PUBCHEM_CACTVS_TAUTO_COUNT>
-1
> <PUBCHEM_COORDINATE_TYPE>
1
5
255
> <PUBCHEM_BONDANNOTATIONS>
1  30  8
1  31  8
10  18  8
10  20  8
11  19  8
11  21  8
18  26  8
19  27  8
20  28  8
21  29  8
22  26  8
22  28  8
23  27  8
23  29  8
30  32  8
31  33  8
32  33  8
8  10  3
9  11  3
$$$$
