508455
  -OEChem-10302200282D
 59 65  0     1  0  0  0  0  0999 V2000
    9.8497    1.0804    0.0000 O   0  0  0  0  0  0  0  0  0  0  0  0
   14.9819   -0.6537    0.0000 N   0  0  0  0  0  0  0  0  0  0  0  0
    4.6783    2.6942    0.0000 N   0  0  0  0  0  0  0  0  0  0  0  0
   14.0359   -1.9558    0.0000 N   0  0  0  0  0  0  0  0  0  0  0  0
    4.6783    1.0847    0.0000 N   0  0  0  0  0  0  0  0  0  0  0  0
   15.5683   -1.4564    0.0000 C   0  0  3  0  0  0  0  0  0  0  0  0
    3.7320    2.3894    0.0000 C   0  0  3  0  0  0  0  0  0  0  0  0
   14.9806   -2.2654    0.0000 C   0  0  3  0  0  0  0  0  0  0  0  0
    3.7320    1.3894    0.0000 C   0  0  3  0  0  0  0  0  0  0  0  0
   14.0368   -0.9617    0.0000 C   0  0  0  0  0  0  0  0  0  0  0  0
    5.2619    1.8894    0.0000 C   0  0  0  0  0  0  0  0  0  0  0  0
   16.5629   -1.5609    0.0000 C   0  0  0  0  0  0  0  0  0  0  0  0
    2.8660    2.8894    0.0000 C   0  0  0  0  0  0  0  0  0  0  0  0
   15.3873   -3.1790    0.0000 C   0  0  0  0  0  0  0  0  0  0  0  0
    2.8660    0.8894    0.0000 C   0  0  0  0  0  0  0  0  0  0  0  0
   13.2278   -0.3739    0.0000 C   0  0  0  0  0  0  0  0  0  0  0  0
    6.2619    1.8894    0.0000 C   0  0  0  0  0  0  0  0  0  0  0  0
   16.9696   -2.4745    0.0000 C   0  0  0  0  0  0  0  0  0  0  0  0
    2.0000    2.3894    0.0000 C   0  0  0  0  0  0  0  0  0  0  0  0
   16.3818   -3.2835    0.0000 C   0  0  0  0  0  0  0  0  0  0  0  0
    2.0000    1.3894    0.0000 C   0  0  0  0  0  0  0  0  0  0  0  0
   12.3142   -0.7807    0.0000 C   0  0  0  0  0  0  0  0  0  0  0  0
    6.7619    1.0234    0.0000 C   0  0  0  0  0  0  0  0  0  0  0  0
   13.3323    0.6206    0.0000 C   0  0  0  0  0  0  0  0  0  0  0  0
    6.7619    2.7555    0.0000 C   0  0  0  0  0  0  0  0  0  0  0  0
   11.6097    0.8017    0.0000 C   0  0  0  0  0  0  0  0  0  0  0  0
    8.2619    1.8894    0.0000 C   0  0  0  0  0  0  0  0  0  0  0  0
   11.5052   -0.1929    0.0000 C   0  0  0  0  0  0  0  0  0  0  0  0
    7.7619    1.0234    0.0000 C   0  0  0  0  0  0  0  0  0  0  0  0
   12.5233    1.2084    0.0000 C   0  0  0  0  0  0  0  0  0  0  0  0
    7.7619    2.7555    0.0000 C   0  0  0  0  0  0  0  0  0  0  0  0
   10.8007    1.3894    0.0000 C   0  0  0  0  0  0  0  0  0  0  0  0
    9.2619    1.8894    0.0000 C   0  0  0  0  0  0  0  0  0  0  0  0
   10.8007    2.3894    0.0000 C   0  0  0  0  0  0  0  0  0  0  0  0
    9.8497    2.6985    0.0000 C   0  0  0  0  0  0  0  0  0  0  0  0
   15.8776   -0.9191    0.0000 H   0  0  0  0  0  0  0  0  0  0  0  0
    3.7977    3.0060    0.0000 H   0  0  0  0  0  0  0  0  0  0  0  0
   14.5651   -2.7256    0.0000 H   0  0  0  0  0  0  0  0  0  0  0  0
    3.7977    0.7729    0.0000 H   0  0  0  0  0  0  0  0  0  0  0  0
   15.1725   -0.0637    0.0000 H   0  0  0  0  0  0  0  0  0  0  0  0
    4.8709    3.2835    0.0000 H   0  0  0  0  0  0  0  0  0  0  0  0
   16.9273   -1.0593    0.0000 H   0  0  0  0  0  0  0  0  0  0  0  0
    2.8660    3.5094    0.0000 H   0  0  0  0  0  0  0  0  0  0  0  0
   15.0229   -3.6806    0.0000 H   0  0  0  0  0  0  0  0  0  0  0  0
    2.8660    0.2694    0.0000 H   0  0  0  0  0  0  0  0  0  0  0  0
   17.5862   -2.5393    0.0000 H   0  0  0  0  0  0  0  0  0  0  0  0
    1.4631    2.6994    0.0000 H   0  0  0  0  0  0  0  0  0  0  0  0
   16.6340   -3.8499    0.0000 H   0  0  0  0  0  0  0  0  0  0  0  0
    1.4631    1.0794    0.0000 H   0  0  0  0  0  0  0  0  0  0  0  0
   12.2494   -1.3973    0.0000 H   0  0  0  0  0  0  0  0  0  0  0  0
    6.4519    0.4865    0.0000 H   0  0  0  0  0  0  0  0  0  0  0  0
   13.8987    0.8728    0.0000 H   0  0  0  0  0  0  0  0  0  0  0  0
    6.4519    3.2924    0.0000 H   0  0  0  0  0  0  0  0  0  0  0  0
   10.9388   -0.4450    0.0000 H   0  0  0  0  0  0  0  0  0  0  0  0
    8.0719    0.4865    0.0000 H   0  0  0  0  0  0  0  0  0  0  0  0
   12.5881    1.8250    0.0000 H   0  0  0  0  0  0  0  0  0  0  0  0
    8.0719    3.2924    0.0000 H   0  0  0  0  0  0  0  0  0  0  0  0
   11.3023    2.7539    0.0000 H   0  0  0  0  0  0  0  0  0  0  0  0
    9.6581    3.2881    0.0000 H   0  0  0  0  0  0  0  0  0  0  0  0
  1 32  1  0  0  0  0
  1 33  1  0  0  0  0
  2  6  1  0  0  0  0
  2 10  1  0  0  0  0
  2 40  1  0  0  0  0
  3  7  1  0  0  0  0
  3 11  1  0  0  0  0
  3 41  1  0  0  0  0
  4  8  1  0  0  0  0
  4 10  2  0  0  0  0
  5  9  1  0  0  0  0
  5 11  2  0  0  0  0
  6  8  1  0  0  0  0
  6 12  1  0  0  0  0
  6 36  1  0  0  0  0
  7  9  1  0  0  0  0
  7 13  1  0  0  0  0
  7 37  1  0  0  0  0
  8 14  1  0  0  0  0
  8 38  1  0  0  0  0
  9 15  1  0  0  0  0
  9 39  1  0  0  0  0
 10 16  1  0  0  0  0
 11 17  1  0  0  0  0
 12 18  2  0  0  0  0
 12 42  1  0  0  0  0
 13 19  2  0  0  0  0
 13 43  1  0  0  0  0
 14 20  2  0  0  0  0
 14 44  1  0  0  0  0
 15 21  2  0  0  0  0
 15 45  1  0  0  0  0
 16 22  2  0  0  0  0
 16 24  1  0  0  0  0
 17 23  2  0  0  0  0
 17 25  1  0  0  0  0
 18 20  1  0  0  0  0
 18 46  1  0  0  0  0
 19 21  1  0  0  0  0
 19 47  1  0  0  0  0
 20 48  1  0  0  0  0
 21 49  1  0  0  0  0
 22 28  1  0  0  0  0
 22 50  1  0  0  0  0
 23 29  1  0  0  0  0
 23 51  1  0  0  0  0
 24 30  2  0  0  0  0
 24 52  1  0  0  0  0
 25 31  2  0  0  0  0
 25 53  1  0  0  0  0
 26 28  2  0  0  0  0
 26 30  1  0  0  0  0
 26 32  1  0  0  0  0
 27 29  2  0  0  0  0
 27 31  1  0  0  0  0
 27 33  1  0  0  0  0
 28 54  1  0  0  0  0
 29 55  1  0  0  0  0
 30 56  1  0  0  0  0
 31 57  1  0  0  0  0
 32 34  2  0  0  0  0
 33 35  2  0  0  0  0
 34 35  1  0  0  0  0
 34 58  1  0  0  0  0
 35 59  1  0  0  0  0
M  END
> <PUBCHEM_COMPOUND_CID>
508455
> <PUBCHEM_COMPOUND_CANONICALIZED>
1
> <PUBCHEM_CACTVS_COMPLEXITY>
898
> <PUBCHEM_CACTVS_HBOND_ACCEPTOR>
3
> <PUBCHEM_CACTVS_HBOND_DONOR>
2
> <PUBCHEM_CACTVS_ROTATABLE_BOND>
4
> <PUBCHEM_CACTVS_SUBSKEYS>
AAADceB7oAAAAAAAAAAAAAAAAAAAASIEAAAwYIEAAAAAAEAB0AAAHgAQAAAADCzBmAQxBILABECoAqJyJACCCAEkIAAJiIEuDNgMZrKEvRuWOSjk0BGIqYeYyPCOQAAAAAAAAACAAAAAAAAAAAAAAAAAAA==
> <PUBCHEM_IUPAC_OPENEYE_NAME>
2-[4-[5-[4-(3a,7a-dihydro-1H-benzimidazol-2-yl)phenyl]-2-furyl]phenyl]-3a,7a-dihydro-1H-benzimidazole
> <PUBCHEM_IUPAC_CAS_NAME>
2-[4-[5-[4-(3a,7a-dihydro-1H-benzimidazol-2-yl)phenyl]-2-furanyl]phenyl]-3a,7a-dihydro-1H-benzimidazole
> <PUBCHEM_IUPAC_NAME_MARKUP>
2-[4-[5-[4-(3<I>a</I>,7<I>a</I>-dihydro-1<I>H</I>-benzimidazol-2-yl)phenyl]furan-2-yl]phenyl]-3<I>a</I>,7<I>a</I>-dihydro-1<I>H</I>-benzimidazole
> <PUBCHEM_IUPAC_NAME>
2-[4-[5-[4-(3a,7a-dihydro-1H-benzimidazol-2-yl)phenyl]furan-2-yl]phenyl]-3a,7a-dihydro-1H-benzimidazole
> <PUBCHEM_IUPAC_SYSTEMATIC_NAME>
2-[4-[5-[4-(3a,7a-dihydro-1H-benzimidazol-2-yl)phenyl]furan-2-yl]phenyl]-3a,7a-dihydro-1H-benzimidazole
> <PUBCHEM_IUPAC_TRADITIONAL_NAME>
2-[4-[5-[4-(3a,7a-dihydro-1H-benzimidazol-2-yl)phenyl]-2-furyl]phenyl]-3a,7a-dihydro-1H-benzimidazole
> <PUBCHEM_IUPAC_INCHI>
InChI=1S/C30H24N4O/c1-2-6-24-23(5-1)31-29(32-24)21-13-9-19(10-14-21)27-17-18-28(35-27)20-11-15-22(16-12-20)30-33-25-7-3-4-8-26(25)34-30/h1-18,23-26H,(H,31,32)(H,33,34)
> <PUBCHEM_IUPAC_INCHIKEY>
NUZKXSBHJPWLND-UHFFFAOYSA-N
> <PUBCHEM_XLOGP3_AA>
4.7
> <PUBCHEM_EXACT_MASS>
456.19501140
> <PUBCHEM_MOLECULAR_FORMULA>
C30H24N4O
> <PUBCHEM_MOLECULAR_WEIGHT>
456.5
> <PUBCHEM_OPENEYE_CAN_SMILES>
C1=CC2C(C=C1)N=C(N2)C3=CC=C(C=C3)C4=CC=C(O4)C5=CC=C(C=C5)C6=NC7C=CC=CC7N6
> <PUBCHEM_OPENEYE_ISO_SMILES>
C1=CC2C(C=C1)N=C(N2)C3=CC=C(C=C3)C4=CC=C(O4)C5=CC=C(C=C5)C6=NC7C=CC=CC7N6
> <PUBCHEM_CACTVS_TPSA>
61.9
> <PUBCHEM_MONOISOTOPIC_WEIGHT>
456.19501140
> <PUBCHEM_TOTAL_CHARGE>
0
> <PUBCHEM_HEAVY_ATOM_COUNT>
35
> <PUBCHEM_ATOM_DEF_STEREO_COUNT>
0
> <PUBCHEM_ATOM_UDEF_STEREO_COUNT>
4
> <PUBCHEM_BOND_DEF_STEREO_COUNT>
0
> <PUBCHEM_BOND_UDEF_STEREO_COUNT>
0
> <PUBCHEM_ISOTOPIC_ATOM_COUNT>
0
> <PUBCHEM_COMPONENT_COUNT>
1
> <PUBCHEM_CACTVS_TAUTO_COUNT>
-1
> <PUBCHEM_COORDINATE_TYPE>
1
5
255
> <PUBCHEM_BONDANNOTATIONS>
1  32  8
1  33  8
16  22  8
16  24  8
17  23  8
17  25  8
22  28  8
23  29  8
24  30  8
25  31  8
26  28  8
26  30  8
27  29  8
27  31  8
32  34  8
33  35  8
34  35  8
6  12  3
7  13  3
8  14  3
9  15  3
$$$$
