508438
  -OEChem-10302200282D
 69 74  0     1  0  0  0  0  0999 V2000
    7.1874   -2.5219    0.0000 S   0  0  0  0  0  0  0  0  0  0  0  0
    9.7746   -2.5707    0.0000 O   0  0  0  0  0  0  0  0  0  0  0  0
   10.4007    0.2804    0.0000 O   0  0  0  0  0  0  0  0  0  0  0  0
   10.3940   -1.4516    0.0000 O   0  0  0  0  0  0  0  0  0  0  0  0
    8.3940   -1.4439    0.0000 N   0  0  0  0  0  0  0  0  0  0  0  0
    4.5274    1.3160    0.0000 N   0  0  0  0  0  0  0  0  0  0  0  0
   10.1061    2.2225    0.0000 N   0  0  0  0  0  0  0  0  0  0  0  0
    7.3991   -1.5446    0.0000 C   0  0  3  0  0  0  0  0  0  0  0  0
    8.8974   -0.5798    0.0000 C   0  0  3  0  0  0  0  0  0  0  0  0
    8.0515   -3.0253    0.0000 C   0  0  3  0  0  0  0  0  0  0  0  0
    6.7328   -0.7989    0.0000 C   0  0  0  0  0  0  0  0  0  0  0  0
    8.7972   -2.3590    0.0000 C   0  0  0  0  0  0  0  0  0  0  0  0
    8.4007    0.2882    0.0000 C   0  0  0  0  0  0  0  0  0  0  0  0
    5.0274   -0.2228    0.0000 C   0  0  0  0  0  0  0  0  0  0  0  0
    5.3364    0.7282    0.0000 C   0  0  0  0  0  0  0  0  0  0  0  0
    5.7123   -1.0076    0.0000 C   0  0  0  0  0  0  0  0  0  0  0  0
    8.9040    1.1522    0.0000 C   0  0  0  0  0  0  0  0  0  0  0  0
    4.0274   -0.2228    0.0000 C   0  0  0  0  0  0  0  0  0  0  0  0
    7.0547    0.1918    0.0000 C   0  0  0  0  0  0  0  0  0  0  0  0
    3.7183    0.7282    0.0000 C   0  0  0  0  0  0  0  0  0  0  0  0
    9.8973   -0.5836    0.0000 C   0  0  0  0  0  0  0  0  0  0  0  0
    8.1522   -4.0202    0.0000 C   0  0  0  0  0  0  0  0  0  0  0  0
    6.3518    0.9605    0.0000 C   0  0  0  0  0  0  0  0  0  0  0  0
    8.5024    2.0616    0.0000 C   0  0  0  0  0  0  0  0  0  0  0  0
    4.5274    2.3160    0.0000 C   0  0  0  0  0  0  0  0  0  0  0  0
    9.8931    1.2515    0.0000 C   0  0  0  0  0  0  0  0  0  0  0  0
    9.2493    2.7266    0.0000 C   0  0  0  0  0  0  0  0  0  0  0  0
    3.3424   -1.0076    0.0000 C   0  0  0  0  0  0  0  0  0  0  0  0
    2.7029    0.9605    0.0000 C   0  0  0  0  0  0  0  0  0  0  0  0
    7.5531    2.3759    0.0000 C   0  0  0  0  0  0  0  0  0  0  0  0
    3.6613    2.8160    0.0000 C   0  0  0  0  0  0  0  0  0  0  0  0
    2.3219   -0.7989    0.0000 C   0  0  0  0  0  0  0  0  0  0  0  0
    2.0000    0.1918    0.0000 C   0  0  0  0  0  0  0  0  0  0  0  0
    9.0468    3.7058    0.0000 C   0  0  0  0  0  0  0  0  0  0  0  0
   11.4007    0.2766    0.0000 C   0  0  0  0  0  0  0  0  0  0  0  0
    7.3506    3.3552    0.0000 C   0  0  0  0  0  0  0  0  0  0  0  0
    8.0975    4.0202    0.0000 C   0  0  0  0  0  0  0  0  0  0  0  0
   11.9040    1.1407    0.0000 C   0  0  0  0  0  0  0  0  0  0  0  0
    7.6235   -0.9666    0.0000 H   0  0  0  0  0  0  0  0  0  0  0  0
    8.2774   -0.5774    0.0000 H   0  0  0  0  0  0  0  0  0  0  0  0
    7.5302   -3.3609    0.0000 H   0  0  0  0  0  0  0  0  0  0  0  0
    7.9273    0.6885    0.0000 H   0  0  0  0  0  0  0  0  0  0  0  0
    7.9242   -0.1085    0.0000 H   0  0  0  0  0  0  0  0  0  0  0  0
    5.5139   -1.5950    0.0000 H   0  0  0  0  0  0  0  0  0  0  0  0
    7.6607    0.3230    0.0000 H   0  0  0  0  0  0  0  0  0  0  0  0
    7.5354   -4.0826    0.0000 H   0  0  0  0  0  0  0  0  0  0  0  0
    8.2146   -4.6370    0.0000 H   0  0  0  0  0  0  0  0  0  0  0  0
    8.7690   -3.9577    0.0000 H   0  0  0  0  0  0  0  0  0  0  0  0
    6.5365    1.5523    0.0000 H   0  0  0  0  0  0  0  0  0  0  0  0
    5.1379    2.2083    0.0000 H   0  0  0  0  0  0  0  0  0  0  0  0
    4.7394    2.8986    0.0000 H   0  0  0  0  0  0  0  0  0  0  0  0
   10.3054    0.7884    0.0000 H   0  0  0  0  0  0  0  0  0  0  0  0
    3.5408   -1.5950    0.0000 H   0  0  0  0  0  0  0  0  0  0  0  0
    2.5182    1.5523    0.0000 H   0  0  0  0  0  0  0  0  0  0  0  0
   10.6743    2.4705    0.0000 H   0  0  0  0  0  0  0  0  0  0  0  0
    7.0900    1.9636    0.0000 H   0  0  0  0  0  0  0  0  0  0  0  0
    3.9713    3.3530    0.0000 H   0  0  0  0  0  0  0  0  0  0  0  0
    3.1244    3.1260    0.0000 H   0  0  0  0  0  0  0  0  0  0  0  0
    3.3513    2.2791    0.0000 H   0  0  0  0  0  0  0  0  0  0  0  0
    1.9088   -1.2612    0.0000 H   0  0  0  0  0  0  0  0  0  0  0  0
    1.3940    0.3230    0.0000 H   0  0  0  0  0  0  0  0  0  0  0  0
    9.5099    4.1181    0.0000 H   0  0  0  0  0  0  0  0  0  0  0  0
   11.2907   -0.3336    0.0000 H   0  0  0  0  0  0  0  0  0  0  0  0
   11.9825    0.0623    0.0000 H   0  0  0  0  0  0  0  0  0  0  0  0
    6.7621    3.5501    0.0000 H   0  0  0  0  0  0  0  0  0  0  0  0
    7.9720    4.6273    0.0000 H   0  0  0  0  0  0  0  0  0  0  0  0
   12.4397    0.8286    0.0000 H   0  0  0  0  0  0  0  0  0  0  0  0
   12.2161    1.6764    0.0000 H   0  0  0  0  0  0  0  0  0  0  0  0
   11.3683    1.4528    0.0000 H   0  0  0  0  0  0  0  0  0  0  0  0
  1  8  1  0  0  0  0
  1 10  1  0  0  0  0
  2 12  2  0  0  0  0
  3 21  1  0  0  0  0
  3 35  1  0  0  0  0
  4 21  2  0  0  0  0
  5  8  1  0  0  0  0
  5  9  1  0  0  0  0
  5 12  1  0  0  0  0
  6 15  1  0  0  0  0
  6 20  1  0  0  0  0
  6 25  1  0  0  0  0
  7 26  1  0  0  0  0
  7 27  1  0  0  0  0
  7 55  1  0  0  0  0
  8 11  1  0  0  0  0
  8 39  1  0  0  0  0
  9 13  1  0  0  0  0
  9 21  1  0  0  0  0
  9 40  1  0  0  0  0
 10 12  1  0  0  0  0
 10 22  1  0  0  0  0
 10 41  1  0  0  0  0
 11 16  2  0  0  0  0
 11 19  1  0  0  0  0
 13 17  1  0  0  0  0
 13 42  1  0  0  0  0
 13 43  1  0  0  0  0
 14 15  2  0  0  0  0
 14 16  1  0  0  0  0
 14 18  1  0  0  0  0
 15 23  1  0  0  0  0
 16 44  1  0  0  0  0
 17 24  1  0  0  0  0
 17 26  2  0  0  0  0
 18 20  1  0  0  0  0
 18 28  2  0  0  0  0
 19 23  2  0  0  0  0
 19 45  1  0  0  0  0
 20 29  2  0  0  0  0
 22 46  1  0  0  0  0
 22 47  1  0  0  0  0
 22 48  1  0  0  0  0
 23 49  1  0  0  0  0
 24 27  1  0  0  0  0
 24 30  2  0  0  0  0
 25 31  1  0  0  0  0
 25 50  1  0  0  0  0
 25 51  1  0  0  0  0
 26 52  1  0  0  0  0
 27 34  2  0  0  0  0
 28 32  1  0  0  0  0
 28 53  1  0  0  0  0
 29 33  1  0  0  0  0
 29 54  1  0  0  0  0
 30 36  1  0  0  0  0
 30 56  1  0  0  0  0
 31 57  1  0  0  0  0
 31 58  1  0  0  0  0
 31 59  1  0  0  0  0
 32 33  2  0  0  0  0
 32 60  1  0  0  0  0
 33 61  1  0  0  0  0
 34 37  1  0  0  0  0
 34 62  1  0  0  0  0
 35 38  1  0  0  0  0
 35 63  1  0  0  0  0
 35 64  1  0  0  0  0
 36 37  2  0  0  0  0
 36 65  1  0  0  0  0
 37 66  1  0  0  0  0
 38 67  1  0  0  0  0
 38 68  1  0  0  0  0
 38 69  1  0  0  0  0
M  END
> <PUBCHEM_COMPOUND_CID>
508438
> <PUBCHEM_COMPOUND_CANONICALIZED>
1
> <PUBCHEM_CACTVS_COMPLEXITY>
871
> <PUBCHEM_CACTVS_HBOND_ACCEPTOR>
4
> <PUBCHEM_CACTVS_HBOND_DONOR>
1
> <PUBCHEM_CACTVS_ROTATABLE_BOND>
8
> <PUBCHEM_CACTVS_SUBSKEYS>
AAADceB7MABAAAAAAAAAAAAAAAAAAWLFgAAwYMAAAAAAAFgB/gAAHgQQAAAADCjl3ga+yPPNlAioAzX3XACCgCBxAjAI2aG4ZJgKIPLgkbGHIAhklgD4yAeY2fKOiAACAAACAAAQAAQAAAQAAAAAAAAAAA==
> <PUBCHEM_IUPAC_OPENEYE_NAME>
ethyl 2-[2-(9-ethylcarbazol-3-yl)-5-methyl-4-oxo-thiazolidin-3-yl]-3-(1H-indol-3-yl)propanoate
> <PUBCHEM_IUPAC_CAS_NAME>
2-[2-(9-ethyl-3-carbazolyl)-5-methyl-4-oxo-3-thiazolidinyl]-3-(1H-indol-3-yl)propanoic acid ethyl ester
> <PUBCHEM_IUPAC_NAME_MARKUP>
ethyl 2-[2-(9-ethylcarbazol-3-yl)-5-methyl-4-oxo-1,3-thiazolidin-3-yl]-3-(1<I>H</I>-indol-3-yl)propanoate
> <PUBCHEM_IUPAC_NAME>
ethyl 2-[2-(9-ethylcarbazol-3-yl)-5-methyl-4-oxo-1,3-thiazolidin-3-yl]-3-(1H-indol-3-yl)propanoate
> <PUBCHEM_IUPAC_SYSTEMATIC_NAME>
ethyl 2-[2-(9-ethylcarbazol-3-yl)-5-methyl-4-oxidanylidene-1,3-thiazolidin-3-yl]-3-(1H-indol-3-yl)propanoate
> <PUBCHEM_IUPAC_TRADITIONAL_NAME>
2-[2-(9-ethylcarbazol-3-yl)-4-keto-5-methyl-thiazolidin-3-yl]-3-(1H-indol-3-yl)propionic acid ethyl ester
> <PUBCHEM_IUPAC_INCHI>
InChI=1S/C31H31N3O3S/c1-4-33-26-13-9-7-11-23(26)24-16-20(14-15-27(24)33)30-34(29(35)19(3)38-30)28(31(36)37-5-2)17-21-18-32-25-12-8-6-10-22(21)25/h6-16,18-19,28,30,32H,4-5,17H2,1-3H3
> <PUBCHEM_IUPAC_INCHIKEY>
NPVRMQVKHVAGBN-UHFFFAOYSA-N
> <PUBCHEM_XLOGP3_AA>
6.3
> <PUBCHEM_EXACT_MASS>
525.20861303
> <PUBCHEM_MOLECULAR_FORMULA>
C31H31N3O3S
> <PUBCHEM_MOLECULAR_WEIGHT>
525.7
> <PUBCHEM_OPENEYE_CAN_SMILES>
CCN1C2=C(C=C(C=C2)C3N(C(=O)C(S3)C)C(CC4=CNC5=CC=CC=C54)C(=O)OCC)C6=CC=CC=C61
> <PUBCHEM_OPENEYE_ISO_SMILES>
CCN1C2=C(C=C(C=C2)C3N(C(=O)C(S3)C)C(CC4=CNC5=CC=CC=C54)C(=O)OCC)C6=CC=CC=C61
> <PUBCHEM_CACTVS_TPSA>
92.6
> <PUBCHEM_MONOISOTOPIC_WEIGHT>
525.20861303
> <PUBCHEM_TOTAL_CHARGE>
0
> <PUBCHEM_HEAVY_ATOM_COUNT>
38
> <PUBCHEM_ATOM_DEF_STEREO_COUNT>
0
> <PUBCHEM_ATOM_UDEF_STEREO_COUNT>
3
> <PUBCHEM_BOND_DEF_STEREO_COUNT>
0
> <PUBCHEM_BOND_UDEF_STEREO_COUNT>
0
> <PUBCHEM_ISOTOPIC_ATOM_COUNT>
0
> <PUBCHEM_COMPONENT_COUNT>
1
> <PUBCHEM_CACTVS_TAUTO_COUNT>
-1
> <PUBCHEM_COORDINATE_TYPE>
1
5
255
> <PUBCHEM_BONDANNOTATIONS>
10  22  3
11  16  8
11  19  8
14  15  8
14  16  8
14  18  8
15  23  8
17  24  8
17  26  8
18  20  8
18  28  8
19  23  8
20  29  8
24  27  8
24  30  8
27  34  8
28  32  8
29  33  8
30  36  8
32  33  8
34  37  8
36  37  8
6  15  8
6  20  8
7  26  8
7  27  8
8  11  3
9  13  3
$$$$
