508456
  -OEChem-10302200282D
 67 72  0     1  0  0  0  0  0999 V2000
    5.6244    0.3390    0.0000 O   0  0  0  0  0  0  0  0  0  0  0  0
    8.1935    0.0300    0.0000 O   0  0  0  0  0  0  0  0  0  0  0  0
    7.2995   -4.7487    0.0000 N   0  0  0  0  0  0  0  0  0  0  0  0
    2.5878    4.4216    0.0000 N   0  0  0  0  0  0  0  0  0  0  0  0
    5.5674   -4.7487    0.0000 N   0  0  0  0  0  0  0  0  0  0  0  0
    3.9890    5.4397    0.0000 N   0  0  0  0  0  0  0  0  0  0  0  0
    6.4334   -4.2487    0.0000 C   0  0  3  0  0  0  0  0  0  0  0  0
    3.5823    4.5262    0.0000 C   0  0  3  0  0  0  0  0  0  0  0  0
    6.4334   -3.2487    0.0000 C   0  0  0  0  0  0  0  0  0  0  0  0
    4.1701    3.7172    0.0000 C   0  0  0  0  0  0  0  0  0  0  0  0
    7.2995   -5.7487    0.0000 C   0  0  0  0  0  0  0  0  0  0  0  0
    2.0000    5.2307    0.0000 C   0  0  0  0  0  0  0  0  0  0  0  0
    6.4334   -6.2487    0.0000 C   0  0  0  0  0  0  0  0  0  0  0  0
    2.4067    6.1442    0.0000 C   0  0  0  0  0  0  0  0  0  0  0  0
    6.4334   -1.2487    0.0000 C   0  0  0  0  0  0  0  0  0  0  0  0
    5.3457    2.0991    0.0000 C   0  0  0  0  0  0  0  0  0  0  0  0
    6.4334   -0.2487    0.0000 C   0  0  0  0  0  0  0  0  0  0  0  0
    5.9334    1.2901    0.0000 C   0  0  0  0  0  0  0  0  0  0  0  0
    5.5674   -2.7487    0.0000 C   0  0  0  0  0  0  0  0  0  0  0  0
    7.2995   -2.7487    0.0000 C   0  0  0  0  0  0  0  0  0  0  0  0
    3.7634    2.8036    0.0000 C   0  0  0  0  0  0  0  0  0  0  0  0
    5.1646    3.8217    0.0000 C   0  0  0  0  0  0  0  0  0  0  0  0
    7.2425    0.3390    0.0000 C   0  0  0  0  0  0  0  0  0  0  0  0
    5.5674   -1.7487    0.0000 C   0  0  0  0  0  0  0  0  0  0  0  0
    7.2995   -1.7487    0.0000 C   0  0  0  0  0  0  0  0  0  0  0  0
    5.5674   -5.7487    0.0000 C   0  0  0  0  0  0  0  0  0  0  0  0
    4.3511    1.9946    0.0000 C   0  0  0  0  0  0  0  0  0  0  0  0
    5.7524    3.0127    0.0000 C   0  0  0  0  0  0  0  0  0  0  0  0
    3.4013    6.2487    0.0000 C   0  0  0  0  0  0  0  0  0  0  0  0
    6.9334    1.2901    0.0000 C   0  0  0  0  0  0  0  0  0  0  0  0
    8.9367    0.6992    0.0000 C   0  0  0  0  0  0  0  0  0  0  0  0
    9.8877    0.3901    0.0000 C   0  0  0  0  0  0  0  0  0  0  0  0
    8.7288    1.6773    0.0000 C   0  0  0  0  0  0  0  0  0  0  0  0
   10.4230    2.0374    0.0000 C   0  0  0  0  0  0  0  0  0  0  0  0
   10.6309    1.0593    0.0000 C   0  0  0  0  0  0  0  0  0  0  0  0
    9.4719    2.3464    0.0000 C   0  0  0  0  0  0  0  0  0  0  0  0
   11.1661    2.7066    0.0000 C   0  0  0  0  0  0  0  0  0  0  0  0
    6.9704   -3.9387    0.0000 H   0  0  0  0  0  0  0  0  0  0  0  0
    3.3301    3.9598    0.0000 H   0  0  0  0  0  0  0  0  0  0  0  0
    7.5115   -6.3313    0.0000 H   0  0  0  0  0  0  0  0  0  0  0  0
    7.9100   -5.6411    0.0000 H   0  0  0  0  0  0  0  0  0  0  0  0
    1.4860    5.5774    0.0000 H   0  0  0  0  0  0  0  0  0  0  0  0
    1.5693    4.7847    0.0000 H   0  0  0  0  0  0  0  0  0  0  0  0
    7.8364   -4.4387    0.0000 H   0  0  0  0  0  0  0  0  0  0  0  0
    2.3356    3.8552    0.0000 H   0  0  0  0  0  0  0  0  0  0  0  0
    6.0349   -6.7237    0.0000 H   0  0  0  0  0  0  0  0  0  0  0  0
    6.8320   -6.7237    0.0000 H   0  0  0  0  0  0  0  0  0  0  0  0
    2.4500    6.7627    0.0000 H   0  0  0  0  0  0  0  0  0  0  0  0
    1.8052    6.2942    0.0000 H   0  0  0  0  0  0  0  0  0  0  0  0
    5.0305   -3.0587    0.0000 H   0  0  0  0  0  0  0  0  0  0  0  0
    7.8364   -3.0587    0.0000 H   0  0  0  0  0  0  0  0  0  0  0  0
    3.1468    2.7388    0.0000 H   0  0  0  0  0  0  0  0  0  0  0  0
    5.4168    4.3881    0.0000 H   0  0  0  0  0  0  0  0  0  0  0  0
    5.0305   -1.4387    0.0000 H   0  0  0  0  0  0  0  0  0  0  0  0
    7.8364   -1.4387    0.0000 H   0  0  0  0  0  0  0  0  0  0  0  0
    5.0305   -6.0587    0.0000 H   0  0  0  0  0  0  0  0  0  0  0  0
    4.0990    1.4282    0.0000 H   0  0  0  0  0  0  0  0  0  0  0  0
    6.3690    3.0775    0.0000 H   0  0  0  0  0  0  0  0  0  0  0  0
    3.6534    6.8151    0.0000 H   0  0  0  0  0  0  0  0  0  0  0  0
    7.2979    1.7917    0.0000 H   0  0  0  0  0  0  0  0  0  0  0  0
   10.0166   -0.2163    0.0000 H   0  0  0  0  0  0  0  0  0  0  0  0
    8.1391    1.8689    0.0000 H   0  0  0  0  0  0  0  0  0  0  0  0
   11.2205    0.8677    0.0000 H   0  0  0  0  0  0  0  0  0  0  0  0
    9.3430    2.9529    0.0000 H   0  0  0  0  0  0  0  0  0  0  0  0
   11.5810    2.2458    0.0000 H   0  0  0  0  0  0  0  0  0  0  0  0
   11.6269    3.1214    0.0000 H   0  0  0  0  0  0  0  0  0  0  0  0
   10.7512    3.1673    0.0000 H   0  0  0  0  0  0  0  0  0  0  0  0
  1 17  1  0  0  0  0
  1 18  1  0  0  0  0
  2 23  1  0  0  0  0
  2 31  1  0  0  0  0
  3  7  1  0  0  0  0
  3 11  1  0  0  0  0
  3 44  1  0  0  0  0
  4  8  1  0  0  0  0
  4 12  1  0  0  0  0
  4 45  1  0  0  0  0
  5  7  1  0  0  0  0
  5 26  2  0  0  0  0
  6  8  1  0  0  0  0
  6 29  2  0  0  0  0
  7  9  1  0  0  0  0
  7 38  1  0  0  0  0
  8 10  1  0  0  0  0
  8 39  1  0  0  0  0
  9 19  2  0  0  0  0
  9 20  1  0  0  0  0
 10 21  2  0  0  0  0
 10 22  1  0  0  0  0
 11 13  1  0  0  0  0
 11 40  1  0  0  0  0
 11 41  1  0  0  0  0
 12 14  1  0  0  0  0
 12 42  1  0  0  0  0
 12 43  1  0  0  0  0
 13 26  1  0  0  0  0
 13 46  1  0  0  0  0
 13 47  1  0  0  0  0
 14 29  1  0  0  0  0
 14 48  1  0  0  0  0
 14 49  1  0  0  0  0
 15 17  1  0  0  0  0
 15 24  2  0  0  0  0
 15 25  1  0  0  0  0
 16 18  1  0  0  0  0
 16 27  2  0  0  0  0
 16 28  1  0  0  0  0
 17 23  2  0  0  0  0
 18 30  2  0  0  0  0
 19 24  1  0  0  0  0
 19 50  1  0  0  0  0
 20 25  2  0  0  0  0
 20 51  1  0  0  0  0
 21 27  1  0  0  0  0
 21 52  1  0  0  0  0
 22 28  2  0  0  0  0
 22 53  1  0  0  0  0
 23 30  1  0  0  0  0
 24 54  1  0  0  0  0
 25 55  1  0  0  0  0
 26 56  1  0  0  0  0
 27 57  1  0  0  0  0
 28 58  1  0  0  0  0
 29 59  1  0  0  0  0
 30 60  1  0  0  0  0
 31 32  2  0  0  0  0
 31 33  1  0  0  0  0
 32 35  1  0  0  0  0
 32 61  1  0  0  0  0
 33 36  2  0  0  0  0
 33 62  1  0  0  0  0
 34 35  2  0  0  0  0
 34 36  1  0  0  0  0
 34 37  1  0  0  0  0
 35 63  1  0  0  0  0
 36 64  1  0  0  0  0
 37 65  1  0  0  0  0
 37 66  1  0  0  0  0
 37 67  1  0  0  0  0
M  END
> <PUBCHEM_COMPOUND_CID>
508456
> <PUBCHEM_COMPOUND_CANONICALIZED>
1
> <PUBCHEM_CACTVS_COMPLEXITY>
765
> <PUBCHEM_CACTVS_HBOND_ACCEPTOR>
6
> <PUBCHEM_CACTVS_HBOND_DONOR>
2
> <PUBCHEM_CACTVS_ROTATABLE_BOND>
6
> <PUBCHEM_CACTVS_SUBSKEYS>
AAADceB7sAAAAAAAAAAAAAAAAAAAASAAAAAwYMECAAAAAAAB1AAAHgAQAAAADATBmAQzBoLABECoArBzBAKCCAAkIAAIiIF+jMiNJzaEtR+GOWrl8BeKqYeYyPCOYAAAAAAAAADAAAAAAAAAAAAAAAAAAA==
> <PUBCHEM_IUPAC_OPENEYE_NAME>
2-[4-[3-(4-methylphenoxy)-5-[4-(1,2,5,6-tetrahydropyrimidin-2-yl)phenyl]-2-furyl]phenyl]-1,2,5,6-tetrahydropyrimidine
> <PUBCHEM_IUPAC_CAS_NAME>
2-[4-[3-(4-methylphenoxy)-5-[4-(1,2,5,6-tetrahydropyrimidin-2-yl)phenyl]-2-furanyl]phenyl]-1,2,5,6-tetrahydropyrimidine
> <PUBCHEM_IUPAC_NAME_MARKUP>
2-[4-[3-(4-methylphenoxy)-5-[4-(1,2,5,6-tetrahydropyrimidin-2-yl)phenyl]furan-2-yl]phenyl]-1,2,5,6-tetrahydropyrimidine
> <PUBCHEM_IUPAC_NAME>
2-[4-[3-(4-methylphenoxy)-5-[4-(1,2,5,6-tetrahydropyrimidin-2-yl)phenyl]furan-2-yl]phenyl]-1,2,5,6-tetrahydropyrimidine
> <PUBCHEM_IUPAC_SYSTEMATIC_NAME>
2-[4-[3-(4-methylphenoxy)-5-[4-(1,2,5,6-tetrahydropyrimidin-2-yl)phenyl]furan-2-yl]phenyl]-1,2,5,6-tetrahydropyrimidine
> <PUBCHEM_IUPAC_TRADITIONAL_NAME>
2-[4-[3-(4-methylphenoxy)-5-[4-(1,2,5,6-tetrahydropyrimidin-2-yl)phenyl]-2-furyl]phenyl]-1,2,5,6-tetrahydropyrimidine
> <PUBCHEM_IUPAC_INCHI>
InChI=1S/C31H30N4O2/c1-21-4-14-26(15-5-21)36-28-20-27(22-6-10-24(11-7-22)30-32-16-2-17-33-30)37-29(28)23-8-12-25(13-9-23)31-34-18-3-19-35-31/h4-16,18,20,30-31,33,35H,2-3,17,19H2,1H3
> <PUBCHEM_IUPAC_INCHIKEY>
QFSPLPODZUUSFM-UHFFFAOYSA-N
> <PUBCHEM_XLOGP3_AA>
3.8
> <PUBCHEM_EXACT_MASS>
490.23687621
> <PUBCHEM_MOLECULAR_FORMULA>
C31H30N4O2
> <PUBCHEM_MOLECULAR_WEIGHT>
490.6
> <PUBCHEM_OPENEYE_CAN_SMILES>
CC1=CC=C(C=C1)OC2=C(OC(=C2)C3=CC=C(C=C3)C4NCCC=N4)C5=CC=C(C=C5)C6NCCC=N6
> <PUBCHEM_OPENEYE_ISO_SMILES>
CC1=CC=C(C=C1)OC2=C(OC(=C2)C3=CC=C(C=C3)C4NCCC=N4)C5=CC=C(C=C5)C6NCCC=N6
> <PUBCHEM_CACTVS_TPSA>
71.2
> <PUBCHEM_MONOISOTOPIC_WEIGHT>
490.23687621
> <PUBCHEM_TOTAL_CHARGE>
0
> <PUBCHEM_HEAVY_ATOM_COUNT>
37
> <PUBCHEM_ATOM_DEF_STEREO_COUNT>
0
> <PUBCHEM_ATOM_UDEF_STEREO_COUNT>
2
> <PUBCHEM_BOND_DEF_STEREO_COUNT>
0
> <PUBCHEM_BOND_UDEF_STEREO_COUNT>
0
> <PUBCHEM_ISOTOPIC_ATOM_COUNT>
0
> <PUBCHEM_COMPONENT_COUNT>
1
> <PUBCHEM_CACTVS_TAUTO_COUNT>
-1
> <PUBCHEM_COORDINATE_TYPE>
1
5
255
> <PUBCHEM_BONDANNOTATIONS>
1  17  8
1  18  8
10  21  8
10  22  8
15  24  8
15  25  8
16  27  8
16  28  8
17  23  8
18  30  8
19  24  8
20  25  8
21  27  8
22  28  8
23  30  8
31  32  8
31  33  8
32  35  8
33  36  8
34  35  8
34  36  8
7  9  3
8  10  3
9  19  8
9  20  8
$$$$
