508454
  -OEChem-10302200282D
 53 57  0     1  0  0  0  0  0999 V2000
    4.2120   -0.3390    0.0000 O   0  0  0  0  0  0  0  0  0  0  0  0
    2.5369    4.7487    0.0000 N   0  0  0  0  0  0  0  0  0  0  0  0
    7.2486   -4.4216    0.0000 N   0  0  0  0  0  0  0  0  0  0  0  0
    4.2690    4.7487    0.0000 N   0  0  0  0  0  0  0  0  0  0  0  0
    5.8474   -5.4397    0.0000 N   0  0  0  0  0  0  0  0  0  0  0  0
    3.4030    4.2487    0.0000 C   0  0  3  0  0  0  0  0  0  0  0  0
    6.2541   -4.5262    0.0000 C   0  0  3  0  0  0  0  0  0  0  0  0
    3.4030    3.2487    0.0000 C   0  0  0  0  0  0  0  0  0  0  0  0
    5.6663   -3.7172    0.0000 C   0  0  0  0  0  0  0  0  0  0  0  0
    2.5369    5.7487    0.0000 C   0  0  0  0  0  0  0  0  0  0  0  0
    7.8364   -5.2307    0.0000 C   0  0  0  0  0  0  0  0  0  0  0  0
    3.4030    1.2487    0.0000 C   0  0  0  0  0  0  0  0  0  0  0  0
    4.4908   -2.0991    0.0000 C   0  0  0  0  0  0  0  0  0  0  0  0
    4.2690    2.7487    0.0000 C   0  0  0  0  0  0  0  0  0  0  0  0
    6.0730   -2.8036    0.0000 C   0  0  0  0  0  0  0  0  0  0  0  0
    2.5369    2.7487    0.0000 C   0  0  0  0  0  0  0  0  0  0  0  0
    4.6718   -3.8217    0.0000 C   0  0  0  0  0  0  0  0  0  0  0  0
    3.4030    0.2487    0.0000 C   0  0  0  0  0  0  0  0  0  0  0  0
    3.9030   -1.2901    0.0000 C   0  0  0  0  0  0  0  0  0  0  0  0
    4.2690    1.7487    0.0000 C   0  0  0  0  0  0  0  0  0  0  0  0
    5.4853   -1.9946    0.0000 C   0  0  0  0  0  0  0  0  0  0  0  0
    2.5369    1.7487    0.0000 C   0  0  0  0  0  0  0  0  0  0  0  0
    4.0840   -3.0127    0.0000 C   0  0  0  0  0  0  0  0  0  0  0  0
    4.2690    5.7487    0.0000 C   0  0  0  0  0  0  0  0  0  0  0  0
    6.4352   -6.2487    0.0000 C   0  0  0  0  0  0  0  0  0  0  0  0
    3.4030    6.2487    0.0000 C   0  0  0  0  0  0  0  0  0  0  0  0
    7.4297   -6.1442    0.0000 C   0  0  0  0  0  0  0  0  0  0  0  0
    2.5939   -0.3390    0.0000 C   0  0  0  0  0  0  0  0  0  0  0  0
    2.9030   -1.2901    0.0000 C   0  0  0  0  0  0  0  0  0  0  0  0
    3.9399    3.9387    0.0000 H   0  0  0  0  0  0  0  0  0  0  0  0
    6.5063   -3.9598    0.0000 H   0  0  0  0  0  0  0  0  0  0  0  0
    2.0000    4.4387    0.0000 H   0  0  0  0  0  0  0  0  0  0  0  0
    7.5008   -3.8552    0.0000 H   0  0  0  0  0  0  0  0  0  0  0  0
    4.8059    4.4387    0.0000 H   0  0  0  0  0  0  0  0  0  0  0  0
    5.2308   -5.5045    0.0000 H   0  0  0  0  0  0  0  0  0  0  0  0
    2.3249    6.3313    0.0000 H   0  0  0  0  0  0  0  0  0  0  0  0
    1.9264    5.6411    0.0000 H   0  0  0  0  0  0  0  0  0  0  0  0
    8.3504   -5.5774    0.0000 H   0  0  0  0  0  0  0  0  0  0  0  0
    8.2671   -4.7847    0.0000 H   0  0  0  0  0  0  0  0  0  0  0  0
    4.8059    3.0587    0.0000 H   0  0  0  0  0  0  0  0  0  0  0  0
    6.6897   -2.7388    0.0000 H   0  0  0  0  0  0  0  0  0  0  0  0
    2.0000    3.0587    0.0000 H   0  0  0  0  0  0  0  0  0  0  0  0
    4.4196   -4.3881    0.0000 H   0  0  0  0  0  0  0  0  0  0  0  0
    4.8059    1.4387    0.0000 H   0  0  0  0  0  0  0  0  0  0  0  0
    5.7374   -1.4282    0.0000 H   0  0  0  0  0  0  0  0  0  0  0  0
    2.0000    1.4387    0.0000 H   0  0  0  0  0  0  0  0  0  0  0  0
    3.4674   -3.0775    0.0000 H   0  0  0  0  0  0  0  0  0  0  0  0
    4.8059    6.0587    0.0000 H   0  0  0  0  0  0  0  0  0  0  0  0
    6.1830   -6.8151    0.0000 H   0  0  0  0  0  0  0  0  0  0  0  0
    3.4030    6.8687    0.0000 H   0  0  0  0  0  0  0  0  0  0  0  0
    7.7941   -6.6458    0.0000 H   0  0  0  0  0  0  0  0  0  0  0  0
    2.0043   -0.1475    0.0000 H   0  0  0  0  0  0  0  0  0  0  0  0
    2.5385   -1.7917    0.0000 H   0  0  0  0  0  0  0  0  0  0  0  0
  1 18  1  0  0  0  0
  1 19  1  0  0  0  0
  2  6  1  0  0  0  0
  2 10  1  0  0  0  0
  2 32  1  0  0  0  0
  3  7  1  0  0  0  0
  3 11  1  0  0  0  0
  3 33  1  0  0  0  0
  4  6  1  0  0  0  0
  4 24  1  0  0  0  0
  4 34  1  0  0  0  0
  5  7  1  0  0  0  0
  5 25  1  0  0  0  0
  5 35  1  0  0  0  0
  6  8  1  0  0  0  0
  6 30  1  0  0  0  0
  7  9  1  0  0  0  0
  7 31  1  0  0  0  0
  8 14  2  0  0  0  0
  8 16  1  0  0  0  0
  9 15  2  0  0  0  0
  9 17  1  0  0  0  0
 10 26  1  0  0  0  0
 10 36  1  0  0  0  0
 10 37  1  0  0  0  0
 11 27  1  0  0  0  0
 11 38  1  0  0  0  0
 11 39  1  0  0  0  0
 12 18  1  0  0  0  0
 12 20  2  0  0  0  0
 12 22  1  0  0  0  0
 13 19  1  0  0  0  0
 13 21  2  0  0  0  0
 13 23  1  0  0  0  0
 14 20  1  0  0  0  0
 14 40  1  0  0  0  0
 15 21  1  0  0  0  0
 15 41  1  0  0  0  0
 16 22  2  0  0  0  0
 16 42  1  0  0  0  0
 17 23  2  0  0  0  0
 17 43  1  0  0  0  0
 18 28  2  0  0  0  0
 19 29  2  0  0  0  0
 20 44  1  0  0  0  0
 21 45  1  0  0  0  0
 22 46  1  0  0  0  0
 23 47  1  0  0  0  0
 24 26  2  0  0  0  0
 24 48  1  0  0  0  0
 25 27  2  0  0  0  0
 25 49  1  0  0  0  0
 26 50  1  0  0  0  0
 27 51  1  0  0  0  0
 28 29  1  0  0  0  0
 28 52  1  0  0  0  0
 29 53  1  0  0  0  0
M  END
> <PUBCHEM_COMPOUND_CID>
508454
> <PUBCHEM_COMPOUND_CANONICALIZED>
1
> <PUBCHEM_CACTVS_COMPLEXITY>
527
> <PUBCHEM_CACTVS_HBOND_ACCEPTOR>
5
> <PUBCHEM_CACTVS_HBOND_DONOR>
4
> <PUBCHEM_CACTVS_ROTATABLE_BOND>
4
> <PUBCHEM_CACTVS_SUBSKEYS>
AAADceB7oAAAAAAAAAAAAAAAAAAAASAAAAAwYIEAAAAAAAAB0AAAHgAQAAAADATBmAQxBILABECIAqBWQACCCAAkIgAIiIEODMiMJjKEtRuGOSjs0BOIqYeYyPCOQAAAAAAAAACAAAAAAAAAAAAAAAAAAA==
> <PUBCHEM_IUPAC_OPENEYE_NAME>
2-[4-[5-[4-(1,2,3,4-tetrahydropyrimidin-2-yl)phenyl]-2-furyl]phenyl]-1,2,3,4-tetrahydropyrimidine
> <PUBCHEM_IUPAC_CAS_NAME>
2-[4-[5-[4-(1,2,3,4-tetrahydropyrimidin-2-yl)phenyl]-2-furanyl]phenyl]-1,2,3,4-tetrahydropyrimidine
> <PUBCHEM_IUPAC_NAME_MARKUP>
2-[4-[5-[4-(1,2,3,4-tetrahydropyrimidin-2-yl)phenyl]furan-2-yl]phenyl]-1,2,3,4-tetrahydropyrimidine
> <PUBCHEM_IUPAC_NAME>
2-[4-[5-[4-(1,2,3,4-tetrahydropyrimidin-2-yl)phenyl]furan-2-yl]phenyl]-1,2,3,4-tetrahydropyrimidine
> <PUBCHEM_IUPAC_SYSTEMATIC_NAME>
2-[4-[5-[4-(1,2,3,4-tetrahydropyrimidin-2-yl)phenyl]furan-2-yl]phenyl]-1,2,3,4-tetrahydropyrimidine
> <PUBCHEM_IUPAC_TRADITIONAL_NAME>
2-[4-[5-[4-(1,2,3,4-tetrahydropyrimidin-2-yl)phenyl]-2-furyl]phenyl]-1,2,3,4-tetrahydropyrimidine
> <PUBCHEM_IUPAC_INCHI>
InChI=1S/C24H24N4O/c1-13-25-23(26-14-1)19-7-3-17(4-8-19)21-11-12-22(29-21)18-5-9-20(10-6-18)24-27-15-2-16-28-24/h1-13,15,23-28H,14,16H2
> <PUBCHEM_IUPAC_INCHIKEY>
XUIYUJOEOONBGV-UHFFFAOYSA-N
> <PUBCHEM_XLOGP3_AA>
3.6
> <PUBCHEM_EXACT_MASS>
384.19501140
> <PUBCHEM_MOLECULAR_FORMULA>
C24H24N4O
> <PUBCHEM_MOLECULAR_WEIGHT>
384.5
> <PUBCHEM_OPENEYE_CAN_SMILES>
C1C=CNC(N1)C2=CC=C(C=C2)C3=CC=C(O3)C4=CC=C(C=C4)C5NCC=CN5
> <PUBCHEM_OPENEYE_ISO_SMILES>
C1C=CNC(N1)C2=CC=C(C=C2)C3=CC=C(O3)C4=CC=C(C=C4)C5NCC=CN5
> <PUBCHEM_CACTVS_TPSA>
61.3
> <PUBCHEM_MONOISOTOPIC_WEIGHT>
384.19501140
> <PUBCHEM_TOTAL_CHARGE>
0
> <PUBCHEM_HEAVY_ATOM_COUNT>
29
> <PUBCHEM_ATOM_DEF_STEREO_COUNT>
0
> <PUBCHEM_ATOM_UDEF_STEREO_COUNT>
2
> <PUBCHEM_BOND_DEF_STEREO_COUNT>
0
> <PUBCHEM_BOND_UDEF_STEREO_COUNT>
0
> <PUBCHEM_ISOTOPIC_ATOM_COUNT>
0
> <PUBCHEM_COMPONENT_COUNT>
1
> <PUBCHEM_CACTVS_TAUTO_COUNT>
-1
> <PUBCHEM_COORDINATE_TYPE>
1
5
255
> <PUBCHEM_BONDANNOTATIONS>
1  18  8
1  19  8
12  20  8
12  22  8
13  21  8
13  23  8
14  20  8
15  21  8
16  22  8
17  23  8
18  28  8
19  29  8
28  29  8
6  8  3
7  9  3
8  14  8
8  16  8
9  15  8
9  17  8
$$$$
