508555
  -OEChem-10302200282D
 79 80  0     1  0  0  0  0  0999 V2000
    4.5981    0.1900    0.0000 S   0  0  0  0  0  0  0  0  0  0  0  0
   13.2583    1.1900    0.0000 S   0  0  0  0  0  0  0  0  0  0  0  0
    5.5981    0.1900    0.0000 O   0  0  0  0  0  0  0  0  0  0  0  0
    3.5981    0.1900    0.0000 O   0  0  0  0  0  0  0  0  0  0  0  0
    6.3301    3.1900    0.0000 O   0  0  0  0  0  0  0  0  0  0  0  0
    4.5981    3.1900    0.0000 O   0  0  0  0  0  0  0  0  0  0  0  0
   10.6603    2.6900    0.0000 O   0  0  0  0  0  0  0  0  0  0  0  0
   12.3923   -0.3100    0.0000 O   0  0  0  0  0  0  0  0  0  0  0  0
   13.7583    2.0560    0.0000 O   0  0  0  0  0  0  0  0  0  0  0  0
   12.7583    0.3240    0.0000 O   0  0  0  0  0  0  0  0  0  0  0  0
    4.5981    1.1900    0.0000 N   0  0  3  0  0  0  0  0  0  0  0  0
    9.7942    1.1900    0.0000 N   0  0  0  0  0  0  0  0  0  0  0  0
   12.3923    1.6900    0.0000 N   0  0  0  0  0  0  0  0  0  0  0  0
    5.4641    1.6900    0.0000 C   0  0  1  0  0  0  0  0  0  0  0  0
    6.3301    1.1900    0.0000 C   0  0  0  0  0  0  0  0  0  0  0  0
    3.7320    1.6900    0.0000 C   0  0  0  0  0  0  0  0  0  0  0  0
    2.8660    1.1900    0.0000 C   0  0  0  0  0  0  0  0  0  0  0  0
    7.1962    1.6900    0.0000 C   0  0  0  0  0  0  0  0  0  0  0  0
    8.0622    1.1900    0.0000 C   0  0  0  0  0  0  0  0  0  0  0  0
    5.4641    2.6900    0.0000 C   0  0  0  0  0  0  0  0  0  0  0  0
    4.5981   -0.8100    0.0000 C   0  0  0  0  0  0  0  0  0  0  0  0
    2.0000    1.6900    0.0000 C   0  0  0  0  0  0  0  0  0  0  0  0
    2.8660    0.1900    0.0000 C   0  0  0  0  0  0  0  0  0  0  0  0
    8.9282    1.6900    0.0000 C   0  0  0  0  0  0  0  0  0  0  0  0
    3.7320   -1.3100    0.0000 C   0  0  0  0  0  0  0  0  0  0  0  0
    5.4641   -1.3100    0.0000 C   0  0  0  0  0  0  0  0  0  0  0  0
   11.5263    1.1900    0.0000 C   0  0  2  0  0  0  0  0  0  0  0  0
   10.6603    1.6900    0.0000 C   0  0  0  0  0  0  0  0  0  0  0  0
    3.7320   -2.3100    0.0000 C   0  0  0  0  0  0  0  0  0  0  0  0
    5.4641   -2.3100    0.0000 C   0  0  0  0  0  0  0  0  0  0  0  0
    4.5981   -2.8100    0.0000 C   0  0  0  0  0  0  0  0  0  0  0  0
   11.5263    0.1900    0.0000 C   0  0  0  0  0  0  0  0  0  0  0  0
    4.5981   -3.8100    0.0000 C   0  0  0  0  0  0  0  0  0  0  0  0
   14.1244    0.6900    0.0000 C   0  0  0  0  0  0  0  0  0  0  0  0
   14.1244   -0.3100    0.0000 C   0  0  0  0  0  0  0  0  0  0  0  0
   14.9904    1.1900    0.0000 C   0  0  0  0  0  0  0  0  0  0  0  0
   15.8564   -0.3100    0.0000 C   0  0  0  0  0  0  0  0  0  0  0  0
   14.9904   -0.8100    0.0000 C   0  0  0  0  0  0  0  0  0  0  0  0
   15.8564    0.6900    0.0000 C   0  0  0  0  0  0  0  0  0  0  0  0
   16.7224   -0.8100    0.0000 C   0  0  0  0  0  0  0  0  0  0  0  0
    5.4641    1.0700    0.0000 H   0  0  0  0  0  0  0  0  0  0  0  0
    5.9316    0.7151    0.0000 H   0  0  0  0  0  0  0  0  0  0  0  0
    6.7287    0.7151    0.0000 H   0  0  0  0  0  0  0  0  0  0  0  0
    4.1306    2.1650    0.0000 H   0  0  0  0  0  0  0  0  0  0  0  0
    3.3335    2.1650    0.0000 H   0  0  0  0  0  0  0  0  0  0  0  0
    2.8660    1.8100    0.0000 H   0  0  0  0  0  0  0  0  0  0  0  0
    7.5947    2.1650    0.0000 H   0  0  0  0  0  0  0  0  0  0  0  0
    6.7976    2.1650    0.0000 H   0  0  0  0  0  0  0  0  0  0  0  0
    7.6636    0.7151    0.0000 H   0  0  0  0  0  0  0  0  0  0  0  0
    8.4607    0.7151    0.0000 H   0  0  0  0  0  0  0  0  0  0  0  0
    2.3100    2.2269    0.0000 H   0  0  0  0  0  0  0  0  0  0  0  0
    1.4631    2.0000    0.0000 H   0  0  0  0  0  0  0  0  0  0  0  0
    1.6900    1.1531    0.0000 H   0  0  0  0  0  0  0  0  0  0  0  0
    2.2460    0.1900    0.0000 H   0  0  0  0  0  0  0  0  0  0  0  0
    2.8660   -0.4300    0.0000 H   0  0  0  0  0  0  0  0  0  0  0  0
    3.4860    0.1900    0.0000 H   0  0  0  0  0  0  0  0  0  0  0  0
    9.3267    2.1650    0.0000 H   0  0  0  0  0  0  0  0  0  0  0  0
    8.5297    2.1650    0.0000 H   0  0  0  0  0  0  0  0  0  0  0  0
    9.7942    0.5700    0.0000 H   0  0  0  0  0  0  0  0  0  0  0  0
    3.1951   -1.0000    0.0000 H   0  0  0  0  0  0  0  0  0  0  0  0
    6.0010   -1.0000    0.0000 H   0  0  0  0  0  0  0  0  0  0  0  0
   12.0632    0.8800    0.0000 H   0  0  0  0  0  0  0  0  0  0  0  0
    6.3301    3.8100    0.0000 H   0  0  0  0  0  0  0  0  0  0  0  0
    3.1951   -2.6200    0.0000 H   0  0  0  0  0  0  0  0  0  0  0  0
    6.0010   -2.6200    0.0000 H   0  0  0  0  0  0  0  0  0  0  0  0
   12.3923    2.3100    0.0000 H   0  0  0  0  0  0  0  0  0  0  0  0
   10.9157    0.2977    0.0000 H   0  0  0  0  0  0  0  0  0  0  0  0
   11.3142   -0.3926    0.0000 H   0  0  0  0  0  0  0  0  0  0  0  0
    3.9781   -3.8100    0.0000 H   0  0  0  0  0  0  0  0  0  0  0  0
    4.5981   -4.4300    0.0000 H   0  0  0  0  0  0  0  0  0  0  0  0
    5.2181   -3.8100    0.0000 H   0  0  0  0  0  0  0  0  0  0  0  0
   13.5874   -0.6200    0.0000 H   0  0  0  0  0  0  0  0  0  0  0  0
   14.9904    1.8100    0.0000 H   0  0  0  0  0  0  0  0  0  0  0  0
   12.3923   -0.9300    0.0000 H   0  0  0  0  0  0  0  0  0  0  0  0
   14.9904   -1.4300    0.0000 H   0  0  0  0  0  0  0  0  0  0  0  0
   16.3933    1.0000    0.0000 H   0  0  0  0  0  0  0  0  0  0  0  0
   16.4124   -1.3469    0.0000 H   0  0  0  0  0  0  0  0  0  0  0  0
   17.2594   -1.1200    0.0000 H   0  0  0  0  0  0  0  0  0  0  0  0
   17.0324   -0.2731    0.0000 H   0  0  0  0  0  0  0  0  0  0  0  0
  1  3  2  0  0  0  0
  1  4  2  0  0  0  0
  1 11  1  0  0  0  0
  1 21  1  0  0  0  0
  2  9  2  0  0  0  0
  2 10  2  0  0  0  0
  2 13  1  0  0  0  0
  2 34  1  0  0  0  0
  5 20  1  0  0  0  0
  5 63  1  0  0  0  0
  6 20  2  0  0  0  0
  7 28  2  0  0  0  0
  8 32  1  0  0  0  0
  8 74  1  0  0  0  0
 14 11  1  6  0  0  0
 11 16  1  0  0  0  0
 12 24  1  0  0  0  0
 12 28  1  0  0  0  0
 12 59  1  0  0  0  0
 27 13  1  1  0  0  0
 13 66  1  0  0  0  0
 14 15  1  0  0  0  0
 14 20  1  0  0  0  0
 14 41  1  0  0  0  0
 15 18  1  0  0  0  0
 15 42  1  0  0  0  0
 15 43  1  0  0  0  0
 16 17  1  0  0  0  0
 16 44  1  0  0  0  0
 16 45  1  0  0  0  0
 17 22  1  0  0  0  0
 17 23  1  0  0  0  0
 17 46  1  0  0  0  0
 18 19  1  0  0  0  0
 18 47  1  0  0  0  0
 18 48  1  0  0  0  0
 19 24  1  0  0  0  0
 19 49  1  0  0  0  0
 19 50  1  0  0  0  0
 21 25  2  0  0  0  0
 21 26  1  0  0  0  0
 22 51  1  0  0  0  0
 22 52  1  0  0  0  0
 22 53  1  0  0  0  0
 23 54  1  0  0  0  0
 23 55  1  0  0  0  0
 23 56  1  0  0  0  0
 24 57  1  0  0  0  0
 24 58  1  0  0  0  0
 25 29  1  0  0  0  0
 25 60  1  0  0  0  0
 26 30  2  0  0  0  0
 26 61  1  0  0  0  0
 27 28  1  0  0  0  0
 27 32  1  0  0  0  0
 27 62  1  0  0  0  0
 29 31  2  0  0  0  0
 29 64  1  0  0  0  0
 30 31  1  0  0  0  0
 30 65  1  0  0  0  0
 31 33  1  0  0  0  0
 32 67  1  0  0  0  0
 32 68  1  0  0  0  0
 33 69  1  0  0  0  0
 33 70  1  0  0  0  0
 33 71  1  0  0  0  0
 34 35  2  0  0  0  0
 34 36  1  0  0  0  0
 35 38  1  0  0  0  0
 35 72  1  0  0  0  0
 36 39  2  0  0  0  0
 36 73  1  0  0  0  0
 37 38  2  0  0  0  0
 37 39  1  0  0  0  0
 37 40  1  0  0  0  0
 38 75  1  0  0  0  0
 39 76  1  0  0  0  0
 40 77  1  0  0  0  0
 40 78  1  0  0  0  0
 40 79  1  0  0  0  0
M  END
> <PUBCHEM_COMPOUND_CID>
508555
> <PUBCHEM_COMPOUND_CANONICALIZED>
1
> <PUBCHEM_CACTVS_COMPLEXITY>
1010
> <PUBCHEM_CACTVS_HBOND_ACCEPTOR>
10
> <PUBCHEM_CACTVS_HBOND_DONOR>
4
> <PUBCHEM_CACTVS_ROTATABLE_BOND>
16
> <PUBCHEM_CACTVS_SUBSKEYS>
AAADcfB7PABgAAAAAAAAAAAAAAAAAAAAAAAwYAAAAAAAAAABQAAAHgQQSAAADSjh2AYyCYLAAgKIAiHSGHBCABAgAAAIiJmIAIgKcDaAkTCUYAAmtgCYiAeYyAAOEAAAAAAAAAAgAAAAAAAAAAAAAAAAAA==
> <PUBCHEM_IUPAC_OPENEYE_NAME>
(2S)-6-[[(2S)-3-hydroxy-2-(p-tolylsulfonylamino)propanoyl]amino]-2-[isobutyl(p-tolylsulfonyl)amino]hexanoic acid
> <PUBCHEM_IUPAC_CAS_NAME>
(2S)-6-[[(2S)-3-hydroxy-2-[(4-methylphenyl)sulfonylamino]-1-oxopropyl]amino]-2-[(4-methylphenyl)sulfonyl-(2-methylpropyl)amino]hexanoic acid
> <PUBCHEM_IUPAC_NAME_MARKUP>
(2<I>S</I>)-6-[[(2<I>S</I>)-3-hydroxy-2-[(4-methylphenyl)sulfonylamino]propanoyl]amino]-2-[(4-methylphenyl)sulfonyl-(2-methylpropyl)amino]hexanoic acid
> <PUBCHEM_IUPAC_NAME>
(2S)-6-[[(2S)-3-hydroxy-2-[(4-methylphenyl)sulfonylamino]propanoyl]amino]-2-[(4-methylphenyl)sulfonyl-(2-methylpropyl)amino]hexanoic acid
> <PUBCHEM_IUPAC_SYSTEMATIC_NAME>
(2S)-6-[[(2S)-2-[(4-methylphenyl)sulfonylamino]-3-oxidanyl-propanoyl]amino]-2-[(4-methylphenyl)sulfonyl-(2-methylpropyl)amino]hexanoic acid
> <PUBCHEM_IUPAC_TRADITIONAL_NAME>
(2S)-6-[[(2S)-3-hydroxy-2-(tosylamino)propanoyl]amino]-2-[isobutyl(tosyl)amino]hexanoic acid
> <PUBCHEM_IUPAC_INCHI>
InChI=1S/C27H39N3O8S2/c1-19(2)17-30(40(37,38)23-14-10-21(4)11-15-23)25(27(33)34)7-5-6-16-28-26(32)24(18-31)29-39(35,36)22-12-8-20(3)9-13-22/h8-15,19,24-25,29,31H,5-7,16-18H2,1-4H3,(H,28,32)(H,33,34)/t24-,25-/m0/s1
> <PUBCHEM_IUPAC_INCHIKEY>
WJOGRNKJRCFUKG-DQEYMECFSA-N
> <PUBCHEM_XLOGP3_AA>
3.2
> <PUBCHEM_EXACT_MASS>
597.21785756
> <PUBCHEM_MOLECULAR_FORMULA>
C27H39N3O8S2
> <PUBCHEM_MOLECULAR_WEIGHT>
597.7
> <PUBCHEM_OPENEYE_CAN_SMILES>
CC1=CC=C(C=C1)S(=O)(=O)NC(CO)C(=O)NCCCCC(C(=O)O)N(CC(C)C)S(=O)(=O)C2=CC=C(C=C2)C
> <PUBCHEM_OPENEYE_ISO_SMILES>
CC1=CC=C(C=C1)S(=O)(=O)N[C@@H](CO)C(=O)NCCCC[C@@H](C(=O)O)N(CC(C)C)S(=O)(=O)C2=CC=C(C=C2)C
> <PUBCHEM_CACTVS_TPSA>
187
> <PUBCHEM_MONOISOTOPIC_WEIGHT>
597.21785756
> <PUBCHEM_TOTAL_CHARGE>
0
> <PUBCHEM_HEAVY_ATOM_COUNT>
40
> <PUBCHEM_ATOM_DEF_STEREO_COUNT>
2
> <PUBCHEM_ATOM_UDEF_STEREO_COUNT>
0
> <PUBCHEM_BOND_DEF_STEREO_COUNT>
0
> <PUBCHEM_BOND_UDEF_STEREO_COUNT>
0
> <PUBCHEM_ISOTOPIC_ATOM_COUNT>
0
> <PUBCHEM_COMPONENT_COUNT>
1
> <PUBCHEM_CACTVS_TAUTO_COUNT>
-1
> <PUBCHEM_COORDINATE_TYPE>
1
5
255
> <PUBCHEM_BONDANNOTATIONS>
14  11  6
27  13  5
21  25  8
21  26  8
25  29  8
26  30  8
29  31  8
30  31  8
34  35  8
34  36  8
35  38  8
36  39  8
37  38  8
37  39  8
$$$$
