508579
  -OEChem-10302200282D
 91 93  0     1  0  0  0  0  0999 V2000
    3.7320    4.8450    0.0000 S   0  0  0  0  0  0  0  0  0  0  0  0
    6.3301   -3.6550    0.0000 S   0  0  0  0  0  0  0  0  0  0  0  0
    2.7320    4.8450    0.0000 O   0  0  0  0  0  0  0  0  0  0  0  0
    4.7320    4.8450    0.0000 O   0  0  0  0  0  0  0  0  0  0  0  0
    6.3301    3.3450    0.0000 O   0  0  0  0  0  0  0  0  0  0  0  0
    5.4641    4.8450    0.0000 O   0  0  0  0  0  0  0  0  0  0  0  0
    8.0622   -0.6550    0.0000 O   0  0  0  0  0  0  0  0  0  0  0  0
    7.3301   -3.6550    0.0000 O   0  0  0  0  0  0  0  0  0  0  0  0
    5.3301   -3.6550    0.0000 O   0  0  0  0  0  0  0  0  0  0  0  0
    4.5981   -7.6550    0.0000 O   0  0  0  0  0  0  0  0  0  0  0  0
    3.7320    3.8450    0.0000 N   0  0  3  0  0  0  0  0  0  0  0  0
    6.3301   -0.6550    0.0000 N   0  0  0  0  0  0  0  0  0  0  0  0
    6.3301   -2.6550    0.0000 N   0  0  0  0  0  0  0  0  0  0  0  0
    3.7320    8.8450    0.0000 N   0  0  0  0  0  0  0  0  0  0  0  0
    6.3301   -7.6550    0.0000 N   0  0  0  0  0  0  0  0  0  0  0  0
    4.5981    3.3450    0.0000 C   0  0  1  0  0  0  0  0  0  0  0  0
    4.5981    2.3450    0.0000 C   0  0  0  0  0  0  0  0  0  0  0  0
    2.8660    3.3450    0.0000 C   0  0  0  0  0  0  0  0  0  0  0  0
    2.8660    2.3450    0.0000 C   0  0  0  0  0  0  0  0  0  0  0  0
    5.4641    1.8450    0.0000 C   0  0  0  0  0  0  0  0  0  0  0  0
    5.4641    0.8450    0.0000 C   0  0  0  0  0  0  0  0  0  0  0  0
    5.4641    3.8450    0.0000 C   0  0  0  0  0  0  0  0  0  0  0  0
    6.3301    0.3450    0.0000 C   0  0  0  0  0  0  0  0  0  0  0  0
    2.0000    1.8450    0.0000 C   0  0  0  0  0  0  0  0  0  0  0  0
    3.7320    1.8450    0.0000 C   0  0  0  0  0  0  0  0  0  0  0  0
    3.7320    5.8450    0.0000 C   0  0  0  0  0  0  0  0  0  0  0  0
    7.1962   -2.1550    0.0000 C   0  0  2  0  0  0  0  0  0  0  0  0
    4.5981    6.3450    0.0000 C   0  0  0  0  0  0  0  0  0  0  0  0
    2.8660    6.3450    0.0000 C   0  0  0  0  0  0  0  0  0  0  0  0
    7.1962   -1.1550    0.0000 C   0  0  0  0  0  0  0  0  0  0  0  0
    8.0622   -2.6550    0.0000 C   0  0  0  0  0  0  0  0  0  0  0  0
    4.5981    7.3450    0.0000 C   0  0  0  0  0  0  0  0  0  0  0  0
    2.8660    7.3450    0.0000 C   0  0  0  0  0  0  0  0  0  0  0  0
    3.7320    7.8450    0.0000 C   0  0  0  0  0  0  0  0  0  0  0  0
    8.9282   -2.1550    0.0000 C   0  0  0  0  0  0  0  0  0  0  0  0
    6.3301   -4.6550    0.0000 C   0  0  0  0  0  0  0  0  0  0  0  0
    9.7942   -2.6550    0.0000 C   0  0  0  0  0  0  0  0  0  0  0  0
    8.9282   -1.1550    0.0000 C   0  0  0  0  0  0  0  0  0  0  0  0
    5.4641   -5.1550    0.0000 C   0  0  0  0  0  0  0  0  0  0  0  0
    7.1962   -5.1550    0.0000 C   0  0  0  0  0  0  0  0  0  0  0  0
   10.6603   -2.1550    0.0000 C   0  0  0  0  0  0  0  0  0  0  0  0
    9.7942   -0.6550    0.0000 C   0  0  0  0  0  0  0  0  0  0  0  0
   10.6603   -1.1550    0.0000 C   0  0  0  0  0  0  0  0  0  0  0  0
    5.4641   -6.1550    0.0000 C   0  0  0  0  0  0  0  0  0  0  0  0
    7.1962   -6.1550    0.0000 C   0  0  0  0  0  0  0  0  0  0  0  0
    6.3301   -6.6550    0.0000 C   0  0  0  0  0  0  0  0  0  0  0  0
    5.4641   -8.1550    0.0000 C   0  0  0  0  0  0  0  0  0  0  0  0
    5.4641   -9.1550    0.0000 C   0  0  0  0  0  0  0  0  0  0  0  0
    4.5981    3.9650    0.0000 H   0  0  0  0  0  0  0  0  0  0  0  0
    3.9875    2.4527    0.0000 H   0  0  0  0  0  0  0  0  0  0  0  0
    4.3860    1.7624    0.0000 H   0  0  0  0  0  0  0  0  0  0  0  0
    2.6540    3.9276    0.0000 H   0  0  0  0  0  0  0  0  0  0  0  0
    2.2554    3.2373    0.0000 H   0  0  0  0  0  0  0  0  0  0  0  0
    2.8660    1.7250    0.0000 H   0  0  0  0  0  0  0  0  0  0  0  0
    6.0747    1.7373    0.0000 H   0  0  0  0  0  0  0  0  0  0  0  0
    5.6762    2.4276    0.0000 H   0  0  0  0  0  0  0  0  0  0  0  0
    4.8535    0.9527    0.0000 H   0  0  0  0  0  0  0  0  0  0  0  0
    5.2520    0.2624    0.0000 H   0  0  0  0  0  0  0  0  0  0  0  0
    6.9407    0.2373    0.0000 H   0  0  0  0  0  0  0  0  0  0  0  0
    6.5422    0.9276    0.0000 H   0  0  0  0  0  0  0  0  0  0  0  0
    1.6900    2.3819    0.0000 H   0  0  0  0  0  0  0  0  0  0  0  0
    1.4631    1.5350    0.0000 H   0  0  0  0  0  0  0  0  0  0  0  0
    2.3100    1.3081    0.0000 H   0  0  0  0  0  0  0  0  0  0  0  0
    3.4220    1.3081    0.0000 H   0  0  0  0  0  0  0  0  0  0  0  0
    4.2690    1.5350    0.0000 H   0  0  0  0  0  0  0  0  0  0  0  0
    4.0420    2.3819    0.0000 H   0  0  0  0  0  0  0  0  0  0  0  0
    5.7932   -0.9650    0.0000 H   0  0  0  0  0  0  0  0  0  0  0  0
    6.6592   -1.8450    0.0000 H   0  0  0  0  0  0  0  0  0  0  0  0
    5.1350    6.0350    0.0000 H   0  0  0  0  0  0  0  0  0  0  0  0
    2.3291    6.0350    0.0000 H   0  0  0  0  0  0  0  0  0  0  0  0
    7.6636   -3.1300    0.0000 H   0  0  0  0  0  0  0  0  0  0  0  0
    8.4607   -3.1300    0.0000 H   0  0  0  0  0  0  0  0  0  0  0  0
    6.8671    3.6550    0.0000 H   0  0  0  0  0  0  0  0  0  0  0  0
    5.7932   -2.3450    0.0000 H   0  0  0  0  0  0  0  0  0  0  0  0
    5.1350    7.6550    0.0000 H   0  0  0  0  0  0  0  0  0  0  0  0
    2.3291    7.6550    0.0000 H   0  0  0  0  0  0  0  0  0  0  0  0
    9.7942   -3.2750    0.0000 H   0  0  0  0  0  0  0  0  0  0  0  0
    8.3913   -0.8450    0.0000 H   0  0  0  0  0  0  0  0  0  0  0  0
    3.1951    9.1550    0.0000 H   0  0  0  0  0  0  0  0  0  0  0  0
    4.2690    9.1550    0.0000 H   0  0  0  0  0  0  0  0  0  0  0  0
    4.9272   -4.8450    0.0000 H   0  0  0  0  0  0  0  0  0  0  0  0
    7.7331   -4.8450    0.0000 H   0  0  0  0  0  0  0  0  0  0  0  0
   11.1972   -2.4650    0.0000 H   0  0  0  0  0  0  0  0  0  0  0  0
    9.7942   -0.0350    0.0000 H   0  0  0  0  0  0  0  0  0  0  0  0
   11.1972   -0.8450    0.0000 H   0  0  0  0  0  0  0  0  0  0  0  0
    4.9272   -6.4650    0.0000 H   0  0  0  0  0  0  0  0  0  0  0  0
    7.7331   -6.4650    0.0000 H   0  0  0  0  0  0  0  0  0  0  0  0
    6.8671   -7.9650    0.0000 H   0  0  0  0  0  0  0  0  0  0  0  0
    4.8441   -9.1550    0.0000 H   0  0  0  0  0  0  0  0  0  0  0  0
    5.4641   -9.7750    0.0000 H   0  0  0  0  0  0  0  0  0  0  0  0
    6.0841   -9.1550    0.0000 H   0  0  0  0  0  0  0  0  0  0  0  0
  1  3  2  0  0  0  0
  1  4  2  0  0  0  0
  1 11  1  0  0  0  0
  1 26  1  0  0  0  0
  2  8  2  0  0  0  0
  2  9  2  0  0  0  0
  2 13  1  0  0  0  0
  2 36  1  0  0  0  0
  5 22  1  0  0  0  0
  5 73  1  0  0  0  0
  6 22  2  0  0  0  0
  7 30  2  0  0  0  0
 10 47  2  0  0  0  0
 16 11  1  6  0  0  0
 11 18  1  0  0  0  0
 12 23  1  0  0  0  0
 12 30  1  0  0  0  0
 12 67  1  0  0  0  0
 27 13  1  6  0  0  0
 13 74  1  0  0  0  0
 14 34  1  0  0  0  0
 14 79  1  0  0  0  0
 14 80  1  0  0  0  0
 15 46  1  0  0  0  0
 15 47  1  0  0  0  0
 15 88  1  0  0  0  0
 16 17  1  0  0  0  0
 16 22  1  0  0  0  0
 16 49  1  0  0  0  0
 17 20  1  0  0  0  0
 17 50  1  0  0  0  0
 17 51  1  0  0  0  0
 18 19  1  0  0  0  0
 18 52  1  0  0  0  0
 18 53  1  0  0  0  0
 19 24  1  0  0  0  0
 19 25  1  0  0  0  0
 19 54  1  0  0  0  0
 20 21  1  0  0  0  0
 20 55  1  0  0  0  0
 20 56  1  0  0  0  0
 21 23  1  0  0  0  0
 21 57  1  0  0  0  0
 21 58  1  0  0  0  0
 23 59  1  0  0  0  0
 23 60  1  0  0  0  0
 24 61  1  0  0  0  0
 24 62  1  0  0  0  0
 24 63  1  0  0  0  0
 25 64  1  0  0  0  0
 25 65  1  0  0  0  0
 25 66  1  0  0  0  0
 26 28  2  0  0  0  0
 26 29  1  0  0  0  0
 27 30  1  0  0  0  0
 27 31  1  0  0  0  0
 27 68  1  0  0  0  0
 28 32  1  0  0  0  0
 28 69  1  0  0  0  0
 29 33  2  0  0  0  0
 29 70  1  0  0  0  0
 31 35  1  0  0  0  0
 31 71  1  0  0  0  0
 31 72  1  0  0  0  0
 32 34  2  0  0  0  0
 32 75  1  0  0  0  0
 33 34  1  0  0  0  0
 33 76  1  0  0  0  0
 35 37  2  0  0  0  0
 35 38  1  0  0  0  0
 36 39  2  0  0  0  0
 36 40  1  0  0  0  0
 37 41  1  0  0  0  0
 37 77  1  0  0  0  0
 38 42  2  0  0  0  0
 38 78  1  0  0  0  0
 39 44  1  0  0  0  0
 39 81  1  0  0  0  0
 40 45  2  0  0  0  0
 40 82  1  0  0  0  0
 41 43  2  0  0  0  0
 41 83  1  0  0  0  0
 42 43  1  0  0  0  0
 42 84  1  0  0  0  0
 43 85  1  0  0  0  0
 44 46  2  0  0  0  0
 44 86  1  0  0  0  0
 45 46  1  0  0  0  0
 45 87  1  0  0  0  0
 47 48  1  0  0  0  0
 48 89  1  0  0  0  0
 48 90  1  0  0  0  0
 48 91  1  0  0  0  0
M  END
> <PUBCHEM_COMPOUND_CID>
508579
> <PUBCHEM_COMPOUND_CANONICALIZED>
1
> <PUBCHEM_CACTVS_COMPLEXITY>
1250
> <PUBCHEM_CACTVS_HBOND_ACCEPTOR>
11
> <PUBCHEM_CACTVS_HBOND_DONOR>
5
> <PUBCHEM_CACTVS_ROTATABLE_BOND>
18
> <PUBCHEM_CACTVS_SUBSKEYS>
AAADcfB/vABgAAAAAAAAAAAAAAAAAAAAAAAwYMAAAAAAAAABUAAAHgQQSAAADSjB2AQyyYLAAgKIAiXSWHDCABAhAgAIiJmIZIgKYDLAkbGUYAhklgDYyAeYyICOAAQAAAAAAAAACAAAAAAAAAAAAAAAAA==
> <PUBCHEM_IUPAC_OPENEYE_NAME>
(2S)-6-[[(2S)-2-[(4-acetamidophenyl)sulfonylamino]-3-phenyl-propanoyl]amino]-2-[(4-aminophenyl)sulfonyl-isobutyl-amino]hexanoic acid
> <PUBCHEM_IUPAC_CAS_NAME>
(2S)-6-[[(2S)-2-[(4-acetamidophenyl)sulfonylamino]-1-oxo-3-phenylpropyl]amino]-2-[(4-aminophenyl)sulfonyl-(2-methylpropyl)amino]hexanoic acid
> <PUBCHEM_IUPAC_NAME_MARKUP>
(2<I>S</I>)-6-[[(2<I>S</I>)-2-[(4-acetamidophenyl)sulfonylamino]-3-phenylpropanoyl]amino]-2-[(4-aminophenyl)sulfonyl-(2-methylpropyl)amino]hexanoic acid
> <PUBCHEM_IUPAC_NAME>
(2S)-6-[[(2S)-2-[(4-acetamidophenyl)sulfonylamino]-3-phenylpropanoyl]amino]-2-[(4-aminophenyl)sulfonyl-(2-methylpropyl)amino]hexanoic acid
> <PUBCHEM_IUPAC_SYSTEMATIC_NAME>
(2S)-6-[[(2S)-2-[(4-acetamidophenyl)sulfonylamino]-3-phenyl-propanoyl]amino]-2-[(4-aminophenyl)sulfonyl-(2-methylpropyl)amino]hexanoic acid
> <PUBCHEM_IUPAC_TRADITIONAL_NAME>
(2S)-6-[[(2S)-2-[(4-acetamidophenyl)sulfonylamino]-3-phenyl-propanoyl]amino]-2-[isobutyl(sulfanilyl)amino]hexanoic acid
> <PUBCHEM_IUPAC_INCHI>
InChI=1S/C33H43N5O8S2/c1-23(2)22-38(48(45,46)29-16-12-26(34)13-17-29)31(33(41)42)11-7-8-20-35-32(40)30(21-25-9-5-4-6-10-25)37-47(43,44)28-18-14-27(15-19-28)36-24(3)39/h4-6,9-10,12-19,23,30-31,37H,7-8,11,20-22,34H2,1-3H3,(H,35,40)(H,36,39)(H,41,42)/t30-,31-/m0/s1
> <PUBCHEM_IUPAC_INCHIKEY>
KSRRNMJFASGFFZ-CONSDPRKSA-N
> <PUBCHEM_XLOGP3_AA>
3.6
> <PUBCHEM_EXACT_MASS>
701.25530569
> <PUBCHEM_MOLECULAR_FORMULA>
C33H43N5O8S2
> <PUBCHEM_MOLECULAR_WEIGHT>
701.9
> <PUBCHEM_OPENEYE_CAN_SMILES>
CC(C)CN(C(CCCCNC(=O)C(CC1=CC=CC=C1)NS(=O)(=O)C2=CC=C(C=C2)NC(=O)C)C(=O)O)S(=O)(=O)C3=CC=C(C=C3)N
> <PUBCHEM_OPENEYE_ISO_SMILES>
CC(C)CN([C@@H](CCCCNC(=O)[C@H](CC1=CC=CC=C1)NS(=O)(=O)C2=CC=C(C=C2)NC(=O)C)C(=O)O)S(=O)(=O)C3=CC=C(C=C3)N
> <PUBCHEM_CACTVS_TPSA>
222
> <PUBCHEM_MONOISOTOPIC_WEIGHT>
701.25530569
> <PUBCHEM_TOTAL_CHARGE>
0
> <PUBCHEM_HEAVY_ATOM_COUNT>
48
> <PUBCHEM_ATOM_DEF_STEREO_COUNT>
2
> <PUBCHEM_ATOM_UDEF_STEREO_COUNT>
0
> <PUBCHEM_BOND_DEF_STEREO_COUNT>
0
> <PUBCHEM_BOND_UDEF_STEREO_COUNT>
0
> <PUBCHEM_ISOTOPIC_ATOM_COUNT>
0
> <PUBCHEM_COMPONENT_COUNT>
1
> <PUBCHEM_CACTVS_TAUTO_COUNT>
-1
> <PUBCHEM_COORDINATE_TYPE>
1
5
255
> <PUBCHEM_BONDANNOTATIONS>
16  11  6
27  13  6
26  28  8
26  29  8
28  32  8
29  33  8
32  34  8
33  34  8
35  37  8
35  38  8
36  39  8
36  40  8
37  41  8
38  42  8
39  44  8
40  45  8
41  43  8
42  43  8
44  46  8
45  46  8
$$$$
