508536
  -OEChem-10302200282D
 91 94  0     1  0  0  0  0  0999 V2000
    9.3532   -4.3255    0.0000 S   0  0  0  0  0  0  0  0  0  0  0  0
    5.6103    3.7362    0.0000 S   0  0  0  0  0  0  0  0  0  0  0  0
    8.6089   -4.9933    0.0000 O   0  0  0  0  0  0  0  0  0  0  0  0
   10.0975   -3.6576    0.0000 O   0  0  0  0  0  0  0  0  0  0  0  0
   10.6423   -3.1688    0.0000 O   0  0  0  0  0  0  0  0  0  0  0  0
   10.2852   -1.4739    0.0000 O   0  0  0  0  0  0  0  0  0  0  0  0
    6.3246    0.3465    0.0000 O   0  0  0  0  0  0  0  0  0  0  0  0
    6.3546    4.4040    0.0000 O   0  0  0  0  0  0  0  0  0  0  0  0
    4.8660    3.0683    0.0000 O   0  0  0  0  0  0  0  0  0  0  0  0
    8.6853   -3.5812    0.0000 N   0  0  3  0  0  0  0  0  0  0  0  0
    7.6138    1.5033    0.0000 N   0  0  0  0  0  0  0  0  0  0  0  0
    6.2781    2.9919    0.0000 N   0  0  0  0  0  0  0  0  0  0  0  0
    4.6783   -0.7249    0.0000 N   0  0  0  0  0  0  0  0  0  0  0  0
    2.9389    6.7134    0.0000 N   0  0  0  0  0  0  0  0  0  0  0  0
    8.9960   -2.6307    0.0000 C   0  0  1  0  0  0  0  0  0  0  0  0
    8.3282   -1.8864    0.0000 C   0  0  0  0  0  0  0  0  0  0  0  0
    7.7068   -3.7874    0.0000 C   0  0  0  0  0  0  0  0  0  0  0  0
    8.6388   -0.9359    0.0000 C   0  0  0  0  0  0  0  0  0  0  0  0
    7.3962   -4.7379    0.0000 C   0  0  0  0  0  0  0  0  0  0  0  0
    7.9710   -0.1916    0.0000 C   0  0  0  0  0  0  0  0  0  0  0  0
    9.9745   -2.4245    0.0000 C   0  0  0  0  0  0  0  0  0  0  0  0
    8.2816    0.7590    0.0000 C   0  0  0  0  0  0  0  0  0  0  0  0
   10.0210   -5.0698    0.0000 C   0  0  0  0  0  0  0  0  0  0  0  0
    6.4177   -4.9441    0.0000 C   0  0  0  0  0  0  0  0  0  0  0  0
    8.0640   -5.4822    0.0000 C   0  0  0  0  0  0  0  0  0  0  0  0
    5.9674    2.0414    0.0000 C   0  0  1  0  0  0  0  0  0  0  0  0
    4.9889    1.8351    0.0000 C   0  0  0  0  0  0  0  0  0  0  0  0
    6.6353    1.2970    0.0000 C   0  0  0  0  0  0  0  0  0  0  0  0
    4.6783    0.8846    0.0000 C   0  0  0  0  0  0  0  0  0  0  0  0
    9.7104   -6.0203    0.0000 C   0  0  0  0  0  0  0  0  0  0  0  0
   10.9995   -4.8636    0.0000 C   0  0  0  0  0  0  0  0  0  0  0  0
    3.7320    0.5799    0.0000 C   0  0  0  0  0  0  0  0  0  0  0  0
    3.7320   -0.4201    0.0000 C   0  0  0  0  0  0  0  0  0  0  0  0
    5.2619    0.0799    0.0000 C   0  0  0  0  0  0  0  0  0  0  0  0
   10.3782   -6.7646    0.0000 C   0  0  0  0  0  0  0  0  0  0  0  0
   11.6674   -5.6079    0.0000 C   0  0  0  0  0  0  0  0  0  0  0  0
   11.3567   -6.5584    0.0000 C   0  0  0  0  0  0  0  0  0  0  0  0
    2.8660    1.0799    0.0000 C   0  0  0  0  0  0  0  0  0  0  0  0
    4.9424    4.4805    0.0000 C   0  0  0  0  0  0  0  0  0  0  0  0
    2.8660   -0.9201    0.0000 C   0  0  0  0  0  0  0  0  0  0  0  0
    2.0000    0.5799    0.0000 C   0  0  0  0  0  0  0  0  0  0  0  0
   12.0246   -7.3027    0.0000 C   0  0  0  0  0  0  0  0  0  0  0  0
    2.0000   -0.4201    0.0000 C   0  0  0  0  0  0  0  0  0  0  0  0
    3.9639    4.2743    0.0000 C   0  0  0  0  0  0  0  0  0  0  0  0
    5.2531    5.4310    0.0000 C   0  0  0  0  0  0  0  0  0  0  0  0
    3.2961    5.0186    0.0000 C   0  0  0  0  0  0  0  0  0  0  0  0
    4.5852    6.1753    0.0000 C   0  0  0  0  0  0  0  0  0  0  0  0
    3.6067    5.9691    0.0000 C   0  0  0  0  0  0  0  0  0  0  0  0
    9.4101   -3.0921    0.0000 H   0  0  0  0  0  0  0  0  0  0  0  0
    7.7812   -1.5944    0.0000 H   0  0  0  0  0  0  0  0  0  0  0  0
    7.9456   -2.3743    0.0000 H   0  0  0  0  0  0  0  0  0  0  0  0
    7.6863   -3.1678    0.0000 H   0  0  0  0  0  0  0  0  0  0  0  0
    7.0930   -3.7001    0.0000 H   0  0  0  0  0  0  0  0  0  0  0  0
    9.1857   -1.2279    0.0000 H   0  0  0  0  0  0  0  0  0  0  0  0
    9.0214   -0.4479    0.0000 H   0  0  0  0  0  0  0  0  0  0  0  0
    7.2036   -5.3273    0.0000 H   0  0  0  0  0  0  0  0  0  0  0  0
    7.4240    0.1005    0.0000 H   0  0  0  0  0  0  0  0  0  0  0  0
    7.5884   -0.6795    0.0000 H   0  0  0  0  0  0  0  0  0  0  0  0
    8.8286    0.4669    0.0000 H   0  0  0  0  0  0  0  0  0  0  0  0
    8.6642    1.2469    0.0000 H   0  0  0  0  0  0  0  0  0  0  0  0
    6.2898   -4.3375    0.0000 H   0  0  0  0  0  0  0  0  0  0  0  0
    5.8110   -5.0720    0.0000 H   0  0  0  0  0  0  0  0  0  0  0  0
    6.5455   -5.5508    0.0000 H   0  0  0  0  0  0  0  0  0  0  0  0
    7.6025   -5.8963    0.0000 H   0  0  0  0  0  0  0  0  0  0  0  0
    8.4781   -5.9437    0.0000 H   0  0  0  0  0  0  0  0  0  0  0  0
    8.5255   -5.0682    0.0000 H   0  0  0  0  0  0  0  0  0  0  0  0
    5.5534    2.5028    0.0000 H   0  0  0  0  0  0  0  0  0  0  0  0
    4.9684    2.4548    0.0000 H   0  0  0  0  0  0  0  0  0  0  0  0
    4.3751    1.9225    0.0000 H   0  0  0  0  0  0  0  0  0  0  0  0
    7.8064    2.0926    0.0000 H   0  0  0  0  0  0  0  0  0  0  0  0
    9.1037   -6.1482    0.0000 H   0  0  0  0  0  0  0  0  0  0  0  0
   11.1921   -4.2743    0.0000 H   0  0  0  0  0  0  0  0  0  0  0  0
    6.8848    3.1197    0.0000 H   0  0  0  0  0  0  0  0  0  0  0  0
    5.8819    0.0799    0.0000 H   0  0  0  0  0  0  0  0  0  0  0  0
   11.2490   -3.0409    0.0000 H   0  0  0  0  0  0  0  0  0  0  0  0
   10.1856   -7.3539    0.0000 H   0  0  0  0  0  0  0  0  0  0  0  0
   12.2740   -5.4800    0.0000 H   0  0  0  0  0  0  0  0  0  0  0  0
    4.8709   -1.3142    0.0000 H   0  0  0  0  0  0  0  0  0  0  0  0
    2.8660    1.6999    0.0000 H   0  0  0  0  0  0  0  0  0  0  0  0
    2.8660   -1.5401    0.0000 H   0  0  0  0  0  0  0  0  0  0  0  0
    1.4631    0.8899    0.0000 H   0  0  0  0  0  0  0  0  0  0  0  0
   11.5631   -7.7168    0.0000 H   0  0  0  0  0  0  0  0  0  0  0  0
   12.4386   -7.7642    0.0000 H   0  0  0  0  0  0  0  0  0  0  0  0
   12.4860   -6.8886    0.0000 H   0  0  0  0  0  0  0  0  0  0  0  0
    1.4631   -0.7301    0.0000 H   0  0  0  0  0  0  0  0  0  0  0  0
    3.7713    3.6849    0.0000 H   0  0  0  0  0  0  0  0  0  0  0  0
    5.8598    5.5588    0.0000 H   0  0  0  0  0  0  0  0  0  0  0  0
    2.6894    4.8907    0.0000 H   0  0  0  0  0  0  0  0  0  0  0  0
    4.7778    6.7646    0.0000 H   0  0  0  0  0  0  0  0  0  0  0  0
    3.1315    7.3027    0.0000 H   0  0  0  0  0  0  0  0  0  0  0  0
    2.3322    6.5855    0.0000 H   0  0  0  0  0  0  0  0  0  0  0  0
  1  3  2  0  0  0  0
  1  4  2  0  0  0  0
  1 10  1  0  0  0  0
  1 23  1  0  0  0  0
  2  8  2  0  0  0  0
  2  9  2  0  0  0  0
  2 12  1  0  0  0  0
  2 39  1  0  0  0  0
  5 21  1  0  0  0  0
  5 75  1  0  0  0  0
  6 21  2  0  0  0  0
  7 28  2  0  0  0  0
 15 10  1  1  0  0  0
 10 17  1  0  0  0  0
 11 22  1  0  0  0  0
 11 28  1  0  0  0  0
 11 70  1  0  0  0  0
 26 12  1  6  0  0  0
 12 73  1  0  0  0  0
 13 33  1  0  0  0  0
 13 34  1  0  0  0  0
 13 78  1  0  0  0  0
 14 48  1  0  0  0  0
 14 90  1  0  0  0  0
 14 91  1  0  0  0  0
 15 16  1  0  0  0  0
 15 21  1  0  0  0  0
 15 49  1  0  0  0  0
 16 18  1  0  0  0  0
 16 50  1  0  0  0  0
 16 51  1  0  0  0  0
 17 19  1  0  0  0  0
 17 52  1  0  0  0  0
 17 53  1  0  0  0  0
 18 20  1  0  0  0  0
 18 54  1  0  0  0  0
 18 55  1  0  0  0  0
 19 24  1  0  0  0  0
 19 25  1  0  0  0  0
 19 56  1  0  0  0  0
 20 22  1  0  0  0  0
 20 57  1  0  0  0  0
 20 58  1  0  0  0  0
 22 59  1  0  0  0  0
 22 60  1  0  0  0  0
 23 30  2  0  0  0  0
 23 31  1  0  0  0  0
 24 61  1  0  0  0  0
 24 62  1  0  0  0  0
 24 63  1  0  0  0  0
 25 64  1  0  0  0  0
 25 65  1  0  0  0  0
 25 66  1  0  0  0  0
 26 27  1  0  0  0  0
 26 28  1  0  0  0  0
 26 67  1  0  0  0  0
 27 29  1  0  0  0  0
 27 68  1  0  0  0  0
 27 69  1  0  0  0  0
 29 32  1  0  0  0  0
 29 34  2  0  0  0  0
 30 35  1  0  0  0  0
 30 71  1  0  0  0  0
 31 36  2  0  0  0  0
 31 72  1  0  0  0  0
 32 33  1  0  0  0  0
 32 38  2  0  0  0  0
 33 40  2  0  0  0  0
 34 74  1  0  0  0  0
 35 37  2  0  0  0  0
 35 76  1  0  0  0  0
 36 37  1  0  0  0  0
 36 77  1  0  0  0  0
 37 42  1  0  0  0  0
 38 41  1  0  0  0  0
 38 79  1  0  0  0  0
 39 44  2  0  0  0  0
 39 45  1  0  0  0  0
 40 43  1  0  0  0  0
 40 80  1  0  0  0  0
 41 43  2  0  0  0  0
 41 81  1  0  0  0  0
 42 82  1  0  0  0  0
 42 83  1  0  0  0  0
 42 84  1  0  0  0  0
 43 85  1  0  0  0  0
 44 46  1  0  0  0  0
 44 86  1  0  0  0  0
 45 47  2  0  0  0  0
 45 87  1  0  0  0  0
 46 48  2  0  0  0  0
 46 88  1  0  0  0  0
 47 48  1  0  0  0  0
 47 89  1  0  0  0  0
M  END
> <PUBCHEM_COMPOUND_CID>
508536
> <PUBCHEM_COMPOUND_CANONICALIZED>
1
> <PUBCHEM_CACTVS_COMPLEXITY>
1250
> <PUBCHEM_CACTVS_HBOND_ACCEPTOR>
10
> <PUBCHEM_CACTVS_HBOND_DONOR>
5
> <PUBCHEM_CACTVS_ROTATABLE_BOND>
17
> <PUBCHEM_CACTVS_SUBSKEYS>
AAADcfB/uABgAAAAAAAAAAAAAAAAAWAAAAAwYMAAAAAAAFgB9AAAHgQQSAAADSjB3gQ+yfLJkgKoAzX3XHDCgDAxAiAI2bm4ZJgKYPLAkbGUYAhklgDYyAeYycCOkAQAAAACAAAgCAAAAAQAAAAAAAAAAA==
> <PUBCHEM_IUPAC_OPENEYE_NAME>
(2S)-6-[[(2S)-2-[(4-aminophenyl)sulfonylamino]-3-(1H-indol-3-yl)propanoyl]amino]-2-[isobutyl(p-tolylsulfonyl)amino]hexanoic acid
> <PUBCHEM_IUPAC_CAS_NAME>
(2S)-6-[[(2S)-2-[(4-aminophenyl)sulfonylamino]-3-(1H-indol-3-yl)-1-oxopropyl]amino]-2-[(4-methylphenyl)sulfonyl-(2-methylpropyl)amino]hexanoic acid
> <PUBCHEM_IUPAC_NAME_MARKUP>
(2<I>S</I>)-6-[[(2<I>S</I>)-2-[(4-aminophenyl)sulfonylamino]-3-(1<I>H</I>-indol-3-yl)propanoyl]amino]-2-[(4-methylphenyl)sulfonyl-(2-methylpropyl)amino]hexanoic acid
> <PUBCHEM_IUPAC_NAME>
(2S)-6-[[(2S)-2-[(4-aminophenyl)sulfonylamino]-3-(1H-indol-3-yl)propanoyl]amino]-2-[(4-methylphenyl)sulfonyl-(2-methylpropyl)amino]hexanoic acid
> <PUBCHEM_IUPAC_SYSTEMATIC_NAME>
(2S)-6-[[(2S)-2-[(4-aminophenyl)sulfonylamino]-3-(1H-indol-3-yl)propanoyl]amino]-2-[(4-methylphenyl)sulfonyl-(2-methylpropyl)amino]hexanoic acid
> <PUBCHEM_IUPAC_TRADITIONAL_NAME>
(2S)-6-[[(2S)-3-(1H-indol-3-yl)-2-(sulfanilylamino)propanoyl]amino]-2-[isobutyl(tosyl)amino]hexanoic acid
> <PUBCHEM_IUPAC_INCHI>
InChI=1S/C34H43N5O7S2/c1-23(2)22-39(48(45,46)28-15-11-24(3)12-16-28)32(34(41)42)10-6-7-19-36-33(40)31(20-25-21-37-30-9-5-4-8-29(25)30)38-47(43,44)27-17-13-26(35)14-18-27/h4-5,8-9,11-18,21,23,31-32,37-38H,6-7,10,19-20,22,35H2,1-3H3,(H,36,40)(H,41,42)/t31-,32-/m0/s1
> <PUBCHEM_IUPAC_INCHIKEY>
NFIQMJALJYOKIL-ACHIHNKUSA-N
> <PUBCHEM_XLOGP3_AA>
4.9
> <PUBCHEM_EXACT_MASS>
697.26039107
> <PUBCHEM_MOLECULAR_FORMULA>
C34H43N5O7S2
> <PUBCHEM_MOLECULAR_WEIGHT>
697.9
> <PUBCHEM_OPENEYE_CAN_SMILES>
CC1=CC=C(C=C1)S(=O)(=O)N(CC(C)C)C(CCCCNC(=O)C(CC2=CNC3=CC=CC=C32)NS(=O)(=O)C4=CC=C(C=C4)N)C(=O)O
> <PUBCHEM_OPENEYE_ISO_SMILES>
CC1=CC=C(C=C1)S(=O)(=O)N(CC(C)C)[C@@H](CCCCNC(=O)[C@H](CC2=CNC3=CC=CC=C32)NS(=O)(=O)C4=CC=C(C=C4)N)C(=O)O
> <PUBCHEM_CACTVS_TPSA>
209
> <PUBCHEM_MONOISOTOPIC_WEIGHT>
697.26039107
> <PUBCHEM_TOTAL_CHARGE>
0
> <PUBCHEM_HEAVY_ATOM_COUNT>
48
> <PUBCHEM_ATOM_DEF_STEREO_COUNT>
2
> <PUBCHEM_ATOM_UDEF_STEREO_COUNT>
0
> <PUBCHEM_BOND_DEF_STEREO_COUNT>
0
> <PUBCHEM_BOND_UDEF_STEREO_COUNT>
0
> <PUBCHEM_ISOTOPIC_ATOM_COUNT>
0
> <PUBCHEM_COMPONENT_COUNT>
1
> <PUBCHEM_CACTVS_TAUTO_COUNT>
-1
> <PUBCHEM_COORDINATE_TYPE>
1
5
255
> <PUBCHEM_BONDANNOTATIONS>
15  10  5
26  12  6
13  33  8
13  34  8
23  30  8
23  31  8
29  32  8
29  34  8
30  35  8
31  36  8
32  33  8
32  38  8
33  40  8
35  37  8
36  37  8
38  41  8
39  44  8
39  45  8
40  43  8
41  43  8
44  46  8
45  47  8
46  48  8
47  48  8
$$$$
