508549
  -OEChem-10302200282D
 90 92  0     1  0  0  0  0  0999 V2000
    4.5981   -1.2500    0.0000 S   0  0  0  0  0  0  0  0  0  0  0  0
   12.3923    1.2500    0.0000 S   0  0  0  0  0  0  0  0  0  0  0  0
    5.5981   -1.2500    0.0000 O   0  0  0  0  0  0  0  0  0  0  0  0
    3.5981   -1.2500    0.0000 O   0  0  0  0  0  0  0  0  0  0  0  0
    6.3301    1.7500    0.0000 O   0  0  0  0  0  0  0  0  0  0  0  0
    4.5981    1.7500    0.0000 O   0  0  0  0  0  0  0  0  0  0  0  0
   10.6603    1.2500    0.0000 O   0  0  0  0  0  0  0  0  0  0  0  0
   13.3923    1.2500    0.0000 O   0  0  0  0  0  0  0  0  0  0  0  0
   11.3923    1.2500    0.0000 O   0  0  0  0  0  0  0  0  0  0  0  0
   14.9904   -4.2500    0.0000 O   0  5  0  0  0  0  0  0  0  0  0  0
   15.8564   -2.7500    0.0000 O   0  0  0  0  0  0  0  0  0  0  0  0
    4.5981   -0.2500    0.0000 N   0  0  3  0  0  0  0  0  0  0  0  0
    9.7942   -0.2500    0.0000 N   0  0  0  0  0  0  0  0  0  0  0  0
   12.3923    0.2500    0.0000 N   0  0  0  0  0  0  0  0  0  0  0  0
   14.9904   -3.2500    0.0000 N   0  3  0  0  0  0  0  0  0  0  0  0
    5.4641    0.2500    0.0000 C   0  0  1  0  0  0  0  0  0  0  0  0
    6.3301   -0.2500    0.0000 C   0  0  0  0  0  0  0  0  0  0  0  0
    3.7320    0.2500    0.0000 C   0  0  0  0  0  0  0  0  0  0  0  0
    2.8660   -0.2500    0.0000 C   0  0  0  0  0  0  0  0  0  0  0  0
    7.1962    0.2500    0.0000 C   0  0  0  0  0  0  0  0  0  0  0  0
    8.0622   -0.2500    0.0000 C   0  0  0  0  0  0  0  0  0  0  0  0
    5.4641    1.2500    0.0000 C   0  0  0  0  0  0  0  0  0  0  0  0
    8.9282    0.2500    0.0000 C   0  0  0  0  0  0  0  0  0  0  0  0
    4.5981   -2.2500    0.0000 C   0  0  0  0  0  0  0  0  0  0  0  0
    2.0000    0.2500    0.0000 C   0  0  0  0  0  0  0  0  0  0  0  0
    2.8660   -1.2500    0.0000 C   0  0  0  0  0  0  0  0  0  0  0  0
   11.5263   -0.2500    0.0000 C   0  0  2  0  0  0  0  0  0  0  0  0
    3.7320   -2.7500    0.0000 C   0  0  0  0  0  0  0  0  0  0  0  0
    5.4641   -2.7500    0.0000 C   0  0  0  0  0  0  0  0  0  0  0  0
   10.6603    0.2500    0.0000 C   0  0  0  0  0  0  0  0  0  0  0  0
   11.5263   -1.2500    0.0000 C   0  0  0  0  0  0  0  0  0  0  0  0
    3.7320   -3.7500    0.0000 C   0  0  0  0  0  0  0  0  0  0  0  0
    5.4641   -3.7500    0.0000 C   0  0  0  0  0  0  0  0  0  0  0  0
    4.5981   -4.2500    0.0000 C   0  0  0  0  0  0  0  0  0  0  0  0
   12.3923   -1.7500    0.0000 C   0  0  0  0  0  0  0  0  0  0  0  0
   12.3923    2.2500    0.0000 C   0  0  0  0  0  0  0  0  0  0  0  0
    4.5981   -5.2500    0.0000 C   0  0  0  0  0  0  0  0  0  0  0  0
   12.3923   -2.7500    0.0000 C   0  0  0  0  0  0  0  0  0  0  0  0
   13.2583   -1.2500    0.0000 C   0  0  0  0  0  0  0  0  0  0  0  0
   13.2583    2.7500    0.0000 C   0  0  0  0  0  0  0  0  0  0  0  0
   11.5263    2.7500    0.0000 C   0  0  0  0  0  0  0  0  0  0  0  0
   13.2583   -3.2500    0.0000 C   0  0  0  0  0  0  0  0  0  0  0  0
   14.1244   -1.7500    0.0000 C   0  0  0  0  0  0  0  0  0  0  0  0
   14.1244   -2.7500    0.0000 C   0  0  0  0  0  0  0  0  0  0  0  0
   13.2583    3.7500    0.0000 C   0  0  0  0  0  0  0  0  0  0  0  0
   11.5263    3.7500    0.0000 C   0  0  0  0  0  0  0  0  0  0  0  0
   12.3923    4.2500    0.0000 C   0  0  0  0  0  0  0  0  0  0  0  0
   12.3923    5.2500    0.0000 C   0  0  0  0  0  0  0  0  0  0  0  0
    5.4641   -0.3700    0.0000 H   0  0  0  0  0  0  0  0  0  0  0  0
    5.9316   -0.7249    0.0000 H   0  0  0  0  0  0  0  0  0  0  0  0
    6.7287   -0.7249    0.0000 H   0  0  0  0  0  0  0  0  0  0  0  0
    4.1306    0.7249    0.0000 H   0  0  0  0  0  0  0  0  0  0  0  0
    3.3335    0.7249    0.0000 H   0  0  0  0  0  0  0  0  0  0  0  0
    2.8660    0.3700    0.0000 H   0  0  0  0  0  0  0  0  0  0  0  0
    7.5947    0.7249    0.0000 H   0  0  0  0  0  0  0  0  0  0  0  0
    6.7976    0.7249    0.0000 H   0  0  0  0  0  0  0  0  0  0  0  0
    7.6636   -0.7249    0.0000 H   0  0  0  0  0  0  0  0  0  0  0  0
    8.4607   -0.7249    0.0000 H   0  0  0  0  0  0  0  0  0  0  0  0
    9.3267    0.7249    0.0000 H   0  0  0  0  0  0  0  0  0  0  0  0
    8.5297    0.7249    0.0000 H   0  0  0  0  0  0  0  0  0  0  0  0
    2.3100    0.7869    0.0000 H   0  0  0  0  0  0  0  0  0  0  0  0
    1.4631    0.5600    0.0000 H   0  0  0  0  0  0  0  0  0  0  0  0
    1.6900   -0.2869    0.0000 H   0  0  0  0  0  0  0  0  0  0  0  0
    2.2460   -1.2500    0.0000 H   0  0  0  0  0  0  0  0  0  0  0  0
    2.8660   -1.8700    0.0000 H   0  0  0  0  0  0  0  0  0  0  0  0
    3.4860   -1.2500    0.0000 H   0  0  0  0  0  0  0  0  0  0  0  0
   12.0632   -0.5600    0.0000 H   0  0  0  0  0  0  0  0  0  0  0  0
    9.7942   -0.8700    0.0000 H   0  0  0  0  0  0  0  0  0  0  0  0
    3.1951   -2.4400    0.0000 H   0  0  0  0  0  0  0  0  0  0  0  0
    6.0010   -2.4400    0.0000 H   0  0  0  0  0  0  0  0  0  0  0  0
   10.9157   -1.1423    0.0000 H   0  0  0  0  0  0  0  0  0  0  0  0
   11.3142   -1.8326    0.0000 H   0  0  0  0  0  0  0  0  0  0  0  0
    6.3301    2.3700    0.0000 H   0  0  0  0  0  0  0  0  0  0  0  0
   12.9292   -0.0600    0.0000 H   0  0  0  0  0  0  0  0  0  0  0  0
    3.1951   -4.0600    0.0000 H   0  0  0  0  0  0  0  0  0  0  0  0
    6.0010   -4.0600    0.0000 H   0  0  0  0  0  0  0  0  0  0  0  0
    3.9781   -5.2500    0.0000 H   0  0  0  0  0  0  0  0  0  0  0  0
    4.5981   -5.8700    0.0000 H   0  0  0  0  0  0  0  0  0  0  0  0
    5.2181   -5.2500    0.0000 H   0  0  0  0  0  0  0  0  0  0  0  0
   11.8554   -3.0600    0.0000 H   0  0  0  0  0  0  0  0  0  0  0  0
   13.2583   -0.6300    0.0000 H   0  0  0  0  0  0  0  0  0  0  0  0
   13.7953    2.4400    0.0000 H   0  0  0  0  0  0  0  0  0  0  0  0
   10.9893    2.4400    0.0000 H   0  0  0  0  0  0  0  0  0  0  0  0
   13.2583   -3.8700    0.0000 H   0  0  0  0  0  0  0  0  0  0  0  0
   14.6613   -1.4400    0.0000 H   0  0  0  0  0  0  0  0  0  0  0  0
   13.7953    4.0600    0.0000 H   0  0  0  0  0  0  0  0  0  0  0  0
   10.9893    4.0600    0.0000 H   0  0  0  0  0  0  0  0  0  0  0  0
   13.0123    5.2500    0.0000 H   0  0  0  0  0  0  0  0  0  0  0  0
   12.3923    5.8700    0.0000 H   0  0  0  0  0  0  0  0  0  0  0  0
   11.7723    5.2500    0.0000 H   0  0  0  0  0  0  0  0  0  0  0  0
  1  3  2  0  0  0  0
  1  4  2  0  0  0  0
  1 12  1  0  0  0  0
  1 24  1  0  0  0  0
  2  8  2  0  0  0  0
  2  9  2  0  0  0  0
  2 14  1  0  0  0  0
  2 36  1  0  0  0  0
  5 22  1  0  0  0  0
  5 73  1  0  0  0  0
  6 22  2  0  0  0  0
  7 30  2  0  0  0  0
 10 15  1  0  0  0  0
 11 15  2  0  0  0  0
 16 12  1  6  0  0  0
 12 18  1  0  0  0  0
 13 23  1  0  0  0  0
 13 30  1  0  0  0  0
 13 68  1  0  0  0  0
 27 14  1  1  0  0  0
 14 74  1  0  0  0  0
 15 44  1  0  0  0  0
 16 17  1  0  0  0  0
 16 22  1  0  0  0  0
 16 49  1  0  0  0  0
 17 20  1  0  0  0  0
 17 50  1  0  0  0  0
 17 51  1  0  0  0  0
 18 19  1  0  0  0  0
 18 52  1  0  0  0  0
 18 53  1  0  0  0  0
 19 25  1  0  0  0  0
 19 26  1  0  0  0  0
 19 54  1  0  0  0  0
 20 21  1  0  0  0  0
 20 55  1  0  0  0  0
 20 56  1  0  0  0  0
 21 23  1  0  0  0  0
 21 57  1  0  0  0  0
 21 58  1  0  0  0  0
 23 59  1  0  0  0  0
 23 60  1  0  0  0  0
 24 28  2  0  0  0  0
 24 29  1  0  0  0  0
 25 61  1  0  0  0  0
 25 62  1  0  0  0  0
 25 63  1  0  0  0  0
 26 64  1  0  0  0  0
 26 65  1  0  0  0  0
 26 66  1  0  0  0  0
 27 30  1  0  0  0  0
 27 31  1  0  0  0  0
 27 67  1  0  0  0  0
 28 32  1  0  0  0  0
 28 69  1  0  0  0  0
 29 33  2  0  0  0  0
 29 70  1  0  0  0  0
 31 35  1  0  0  0  0
 31 71  1  0  0  0  0
 31 72  1  0  0  0  0
 32 34  2  0  0  0  0
 32 75  1  0  0  0  0
 33 34  1  0  0  0  0
 33 76  1  0  0  0  0
 34 37  1  0  0  0  0
 35 38  2  0  0  0  0
 35 39  1  0  0  0  0
 36 40  2  0  0  0  0
 36 41  1  0  0  0  0
 37 77  1  0  0  0  0
 37 78  1  0  0  0  0
 37 79  1  0  0  0  0
 38 42  1  0  0  0  0
 38 80  1  0  0  0  0
 39 43  2  0  0  0  0
 39 81  1  0  0  0  0
 40 45  1  0  0  0  0
 40 82  1  0  0  0  0
 41 46  2  0  0  0  0
 41 83  1  0  0  0  0
 42 44  2  0  0  0  0
 42 84  1  0  0  0  0
 43 44  1  0  0  0  0
 43 85  1  0  0  0  0
 45 47  2  0  0  0  0
 45 86  1  0  0  0  0
 46 47  1  0  0  0  0
 46 87  1  0  0  0  0
 47 48  1  0  0  0  0
 48 88  1  0  0  0  0
 48 89  1  0  0  0  0
 48 90  1  0  0  0  0
M  CHG  2  10  -1  15   1
M  END
> <PUBCHEM_COMPOUND_CID>
508549
> <PUBCHEM_COMPOUND_CANONICALIZED>
1
> <PUBCHEM_CACTVS_COMPLEXITY>
1250
> <PUBCHEM_CACTVS_HBOND_ACCEPTOR>
11
> <PUBCHEM_CACTVS_HBOND_DONOR>
3
> <PUBCHEM_CACTVS_ROTATABLE_BOND>
17
> <PUBCHEM_CACTVS_SUBSKEYS>
AAADcfB/vABgAAAAAAAAAAAAAAAAAAAAAAAwYMAAAAAAAAABUAAAHgQUSAAADSjB2AQyyYLQQgKJAiXSW3DCABAgAgAoiJmIZIoKYDKAkbGUYABklgCYyAeYyICOGAAAAAAAAAAwAAAAAAAAAAAAAAAAAA==
> <PUBCHEM_IUPAC_OPENEYE_NAME>
(2S)-2-[isobutyl(p-tolylsulfonyl)amino]-6-[[(2S)-3-(4-nitrophenyl)-2-(p-tolylsulfonylamino)propanoyl]amino]hexanoic acid
> <PUBCHEM_IUPAC_CAS_NAME>
(2S)-6-[[(2S)-2-[(4-methylphenyl)sulfonylamino]-3-(4-nitrophenyl)-1-oxopropyl]amino]-2-[(4-methylphenyl)sulfonyl-(2-methylpropyl)amino]hexanoic acid
> <PUBCHEM_IUPAC_NAME_MARKUP>
(2<I>S</I>)-6-[[(2<I>S</I>)-2-[(4-methylphenyl)sulfonylamino]-3-(4-nitrophenyl)propanoyl]amino]-2-[(4-methylphenyl)sulfonyl-(2-methylpropyl)amino]hexanoic acid
> <PUBCHEM_IUPAC_NAME>
(2S)-6-[[(2S)-2-[(4-methylphenyl)sulfonylamino]-3-(4-nitrophenyl)propanoyl]amino]-2-[(4-methylphenyl)sulfonyl-(2-methylpropyl)amino]hexanoic acid
> <PUBCHEM_IUPAC_SYSTEMATIC_NAME>
(2S)-6-[[(2S)-2-[(4-methylphenyl)sulfonylamino]-3-(4-nitrophenyl)propanoyl]amino]-2-[(4-methylphenyl)sulfonyl-(2-methylpropyl)amino]hexanoic acid
> <PUBCHEM_IUPAC_TRADITIONAL_NAME>
(2S)-2-[isobutyl(tosyl)amino]-6-[[(2S)-3-(4-nitrophenyl)-2-(tosylamino)propanoyl]amino]hexanoic acid
> <PUBCHEM_IUPAC_INCHI>
InChI=1S/C33H42N4O9S2/c1-23(2)22-36(48(45,46)29-18-10-25(4)11-19-29)31(33(39)40)7-5-6-20-34-32(38)30(21-26-12-14-27(15-13-26)37(41)42)35-47(43,44)28-16-8-24(3)9-17-28/h8-19,23,30-31,35H,5-7,20-22H2,1-4H3,(H,34,38)(H,39,40)/t30-,31-/m0/s1
> <PUBCHEM_IUPAC_INCHIKEY>
HQALONXIYJLZGH-CONSDPRKSA-N
> <PUBCHEM_XLOGP3_AA>
5.7
> <PUBCHEM_EXACT_MASS>
702.23932128
> <PUBCHEM_MOLECULAR_FORMULA>
C33H42N4O9S2
> <PUBCHEM_MOLECULAR_WEIGHT>
702.8
> <PUBCHEM_OPENEYE_CAN_SMILES>
CC1=CC=C(C=C1)S(=O)(=O)NC(CC2=CC=C(C=C2)[N+](=O)[O-])C(=O)NCCCCC(C(=O)O)N(CC(C)C)S(=O)(=O)C3=CC=C(C=C3)C
> <PUBCHEM_OPENEYE_ISO_SMILES>
CC1=CC=C(C=C1)S(=O)(=O)N[C@@H](CC2=CC=C(C=C2)[N+](=O)[O-])C(=O)NCCCC[C@@H](C(=O)O)N(CC(C)C)S(=O)(=O)C3=CC=C(C=C3)C
> <PUBCHEM_CACTVS_TPSA>
213
> <PUBCHEM_MONOISOTOPIC_WEIGHT>
702.23932128
> <PUBCHEM_TOTAL_CHARGE>
0
> <PUBCHEM_HEAVY_ATOM_COUNT>
48
> <PUBCHEM_ATOM_DEF_STEREO_COUNT>
2
> <PUBCHEM_ATOM_UDEF_STEREO_COUNT>
0
> <PUBCHEM_BOND_DEF_STEREO_COUNT>
0
> <PUBCHEM_BOND_UDEF_STEREO_COUNT>
0
> <PUBCHEM_ISOTOPIC_ATOM_COUNT>
0
> <PUBCHEM_COMPONENT_COUNT>
1
> <PUBCHEM_CACTVS_TAUTO_COUNT>
-1
> <PUBCHEM_COORDINATE_TYPE>
1
5
255
> <PUBCHEM_BONDANNOTATIONS>
16  12  6
27  14  5
24  28  8
24  29  8
28  32  8
29  33  8
32  34  8
33  34  8
35  38  8
35  39  8
36  40  8
36  41  8
38  42  8
39  43  8
40  45  8
41  46  8
42  44  8
43  44  8
45  47  8
46  47  8
$$$$
