508554
  -OEChem-10302200282D
 88 90  0     1  0  0  0  0  0999 V2000
    4.5981   -1.0000    0.0000 S   0  0  0  0  0  0  0  0  0  0  0  0
    5.5981   -1.0000    0.0000 O   0  0  0  0  0  0  0  0  0  0  0  0
    3.5981   -1.0000    0.0000 O   0  0  0  0  0  0  0  0  0  0  0  0
    6.3301    2.0000    0.0000 O   0  0  0  0  0  0  0  0  0  0  0  0
    4.5981    2.0000    0.0000 O   0  0  0  0  0  0  0  0  0  0  0  0
   10.6603    1.5000    0.0000 O   0  0  0  0  0  0  0  0  0  0  0  0
   13.2583    2.0000    0.0000 O   0  0  0  0  0  0  0  0  0  0  0  0
   11.5263    2.0000    0.0000 O   0  0  0  0  0  0  0  0  0  0  0  0
    4.5981   -0.0000    0.0000 N   0  0  3  0  0  0  0  0  0  0  0  0
    9.7942    0.0000    0.0000 N   0  0  0  0  0  0  0  0  0  0  0  0
   12.3923    0.5000    0.0000 N   0  0  0  0  0  0  0  0  0  0  0  0
    5.4641    0.5000    0.0000 C   0  0  1  0  0  0  0  0  0  0  0  0
    6.3301   -0.0000    0.0000 C   0  0  0  0  0  0  0  0  0  0  0  0
    3.7320    0.5000    0.0000 C   0  0  0  0  0  0  0  0  0  0  0  0
    2.8660   -0.0000    0.0000 C   0  0  0  0  0  0  0  0  0  0  0  0
    7.1962    0.5000    0.0000 C   0  0  0  0  0  0  0  0  0  0  0  0
    8.0622    0.0000    0.0000 C   0  0  0  0  0  0  0  0  0  0  0  0
    5.4641    1.5000    0.0000 C   0  0  0  0  0  0  0  0  0  0  0  0
    4.5981   -2.0000    0.0000 C   0  0  0  0  0  0  0  0  0  0  0  0
    2.0000    0.5000    0.0000 C   0  0  0  0  0  0  0  0  0  0  0  0
    2.8660   -1.0000    0.0000 C   0  0  0  0  0  0  0  0  0  0  0  0
    8.9282    0.5000    0.0000 C   0  0  0  0  0  0  0  0  0  0  0  0
    5.4641   -2.5000    0.0000 C   0  0  0  0  0  0  0  0  0  0  0  0
    3.7320   -2.5000    0.0000 C   0  0  0  0  0  0  0  0  0  0  0  0
   11.5263    0.0000    0.0000 C   0  0  2  0  0  0  0  0  0  0  0  0
   10.6603    0.5000    0.0000 C   0  0  0  0  0  0  0  0  0  0  0  0
    5.4641   -3.5000    0.0000 C   0  0  0  0  0  0  0  0  0  0  0  0
    3.7320   -3.5000    0.0000 C   0  0  0  0  0  0  0  0  0  0  0  0
    4.5981   -4.0000    0.0000 C   0  0  0  0  0  0  0  0  0  0  0  0
   11.5263   -1.0000    0.0000 C   0  0  0  0  0  0  0  0  0  0  0  0
   12.3923   -1.5000    0.0000 C   0  0  0  0  0  0  0  0  0  0  0  0
    4.5981   -5.0000    0.0000 C   0  0  0  0  0  0  0  0  0  0  0  0
   13.2583   -1.0000    0.0000 C   0  0  0  0  0  0  0  0  0  0  0  0
   12.3923   -2.5000    0.0000 C   0  0  0  0  0  0  0  0  0  0  0  0
   12.3923    1.5000    0.0000 C   0  0  0  0  0  0  0  0  0  0  0  0
   14.1244   -1.5000    0.0000 C   0  0  0  0  0  0  0  0  0  0  0  0
   13.2583   -3.0000    0.0000 C   0  0  0  0  0  0  0  0  0  0  0  0
   14.1244   -2.5000    0.0000 C   0  0  0  0  0  0  0  0  0  0  0  0
   13.2583    3.0000    0.0000 C   0  0  0  0  0  0  0  0  0  0  0  0
   14.1244    3.5000    0.0000 C   0  0  0  0  0  0  0  0  0  0  0  0
   14.1244    4.5000    0.0000 C   0  0  0  0  0  0  0  0  0  0  0  0
   14.9904    3.0000    0.0000 C   0  0  0  0  0  0  0  0  0  0  0  0
   14.9904    5.0000    0.0000 C   0  0  0  0  0  0  0  0  0  0  0  0
   15.8564    3.5000    0.0000 C   0  0  0  0  0  0  0  0  0  0  0  0
   15.8564    4.5000    0.0000 C   0  0  0  0  0  0  0  0  0  0  0  0
    5.4641   -0.1200    0.0000 H   0  0  0  0  0  0  0  0  0  0  0  0
    5.9316   -0.4749    0.0000 H   0  0  0  0  0  0  0  0  0  0  0  0
    6.7287   -0.4749    0.0000 H   0  0  0  0  0  0  0  0  0  0  0  0
    4.1306    0.9749    0.0000 H   0  0  0  0  0  0  0  0  0  0  0  0
    3.3335    0.9749    0.0000 H   0  0  0  0  0  0  0  0  0  0  0  0
    2.8660    0.6200    0.0000 H   0  0  0  0  0  0  0  0  0  0  0  0
    7.5947    0.9749    0.0000 H   0  0  0  0  0  0  0  0  0  0  0  0
    6.7976    0.9749    0.0000 H   0  0  0  0  0  0  0  0  0  0  0  0
    7.6636   -0.4749    0.0000 H   0  0  0  0  0  0  0  0  0  0  0  0
    8.4607   -0.4749    0.0000 H   0  0  0  0  0  0  0  0  0  0  0  0
    2.3100    1.0369    0.0000 H   0  0  0  0  0  0  0  0  0  0  0  0
    1.4631    0.8100    0.0000 H   0  0  0  0  0  0  0  0  0  0  0  0
    1.6900   -0.0369    0.0000 H   0  0  0  0  0  0  0  0  0  0  0  0
    2.2460   -1.0000    0.0000 H   0  0  0  0  0  0  0  0  0  0  0  0
    2.8660   -1.6200    0.0000 H   0  0  0  0  0  0  0  0  0  0  0  0
    3.4860   -1.0000    0.0000 H   0  0  0  0  0  0  0  0  0  0  0  0
    9.3267    0.9749    0.0000 H   0  0  0  0  0  0  0  0  0  0  0  0
    8.5297    0.9749    0.0000 H   0  0  0  0  0  0  0  0  0  0  0  0
    6.0010   -2.1900    0.0000 H   0  0  0  0  0  0  0  0  0  0  0  0
    3.1951   -2.1900    0.0000 H   0  0  0  0  0  0  0  0  0  0  0  0
    9.7942   -0.6200    0.0000 H   0  0  0  0  0  0  0  0  0  0  0  0
   12.0632   -0.3100    0.0000 H   0  0  0  0  0  0  0  0  0  0  0  0
    6.3301    2.6200    0.0000 H   0  0  0  0  0  0  0  0  0  0  0  0
    6.0010   -3.8100    0.0000 H   0  0  0  0  0  0  0  0  0  0  0  0
    3.1951   -3.8100    0.0000 H   0  0  0  0  0  0  0  0  0  0  0  0
   10.9157   -0.8923    0.0000 H   0  0  0  0  0  0  0  0  0  0  0  0
   11.3142   -1.5826    0.0000 H   0  0  0  0  0  0  0  0  0  0  0  0
   12.9292    0.1900    0.0000 H   0  0  0  0  0  0  0  0  0  0  0  0
    3.9781   -5.0000    0.0000 H   0  0  0  0  0  0  0  0  0  0  0  0
    4.5981   -5.6200    0.0000 H   0  0  0  0  0  0  0  0  0  0  0  0
    5.2181   -5.0000    0.0000 H   0  0  0  0  0  0  0  0  0  0  0  0
   13.2583   -0.3800    0.0000 H   0  0  0  0  0  0  0  0  0  0  0  0
   11.8554   -2.8100    0.0000 H   0  0  0  0  0  0  0  0  0  0  0  0
   14.6613   -1.1900    0.0000 H   0  0  0  0  0  0  0  0  0  0  0  0
   13.2583   -3.6200    0.0000 H   0  0  0  0  0  0  0  0  0  0  0  0
   14.6613   -2.8100    0.0000 H   0  0  0  0  0  0  0  0  0  0  0  0
   13.0463    3.5826    0.0000 H   0  0  0  0  0  0  0  0  0  0  0  0
   12.6477    2.8923    0.0000 H   0  0  0  0  0  0  0  0  0  0  0  0
   13.5874    4.8100    0.0000 H   0  0  0  0  0  0  0  0  0  0  0  0
   14.9904    2.3800    0.0000 H   0  0  0  0  0  0  0  0  0  0  0  0
   14.9904    5.6200    0.0000 H   0  0  0  0  0  0  0  0  0  0  0  0
   16.3933    3.1900    0.0000 H   0  0  0  0  0  0  0  0  0  0  0  0
   16.3933    4.8100    0.0000 H   0  0  0  0  0  0  0  0  0  0  0  0
  1  2  2  0  0  0  0
  1  3  2  0  0  0  0
  1  9  1  0  0  0  0
  1 19  1  0  0  0  0
  4 18  1  0  0  0  0
  4 68  1  0  0  0  0
  5 18  2  0  0  0  0
  6 26  2  0  0  0  0
  7 35  1  0  0  0  0
  7 39  1  0  0  0  0
  8 35  2  0  0  0  0
 12  9  1  6  0  0  0
  9 14  1  0  0  0  0
 10 22  1  0  0  0  0
 10 26  1  0  0  0  0
 10 66  1  0  0  0  0
 25 11  1  1  0  0  0
 11 35  1  0  0  0  0
 11 73  1  0  0  0  0
 12 13  1  0  0  0  0
 12 18  1  0  0  0  0
 12 46  1  0  0  0  0
 13 16  1  0  0  0  0
 13 47  1  0  0  0  0
 13 48  1  0  0  0  0
 14 15  1  0  0  0  0
 14 49  1  0  0  0  0
 14 50  1  0  0  0  0
 15 20  1  0  0  0  0
 15 21  1  0  0  0  0
 15 51  1  0  0  0  0
 16 17  1  0  0  0  0
 16 52  1  0  0  0  0
 16 53  1  0  0  0  0
 17 22  1  0  0  0  0
 17 54  1  0  0  0  0
 17 55  1  0  0  0  0
 19 23  2  0  0  0  0
 19 24  1  0  0  0  0
 20 56  1  0  0  0  0
 20 57  1  0  0  0  0
 20 58  1  0  0  0  0
 21 59  1  0  0  0  0
 21 60  1  0  0  0  0
 21 61  1  0  0  0  0
 22 62  1  0  0  0  0
 22 63  1  0  0  0  0
 23 27  1  0  0  0  0
 23 64  1  0  0  0  0
 24 28  2  0  0  0  0
 24 65  1  0  0  0  0
 25 26  1  0  0  0  0
 25 30  1  0  0  0  0
 25 67  1  0  0  0  0
 27 29  2  0  0  0  0
 27 69  1  0  0  0  0
 28 29  1  0  0  0  0
 28 70  1  0  0  0  0
 29 32  1  0  0  0  0
 30 31  1  0  0  0  0
 30 71  1  0  0  0  0
 30 72  1  0  0  0  0
 31 33  2  0  0  0  0
 31 34  1  0  0  0  0
 32 74  1  0  0  0  0
 32 75  1  0  0  0  0
 32 76  1  0  0  0  0
 33 36  1  0  0  0  0
 33 77  1  0  0  0  0
 34 37  2  0  0  0  0
 34 78  1  0  0  0  0
 36 38  2  0  0  0  0
 36 79  1  0  0  0  0
 37 38  1  0  0  0  0
 37 80  1  0  0  0  0
 38 81  1  0  0  0  0
 39 40  1  0  0  0  0
 39 82  1  0  0  0  0
 39 83  1  0  0  0  0
 40 41  2  0  0  0  0
 40 42  1  0  0  0  0
 41 43  1  0  0  0  0
 41 84  1  0  0  0  0
 42 44  2  0  0  0  0
 42 85  1  0  0  0  0
 43 45  2  0  0  0  0
 43 86  1  0  0  0  0
 44 45  1  0  0  0  0
 44 87  1  0  0  0  0
 45 88  1  0  0  0  0
M  END
> <PUBCHEM_COMPOUND_CID>
508554
> <PUBCHEM_COMPOUND_CANONICALIZED>
1
> <PUBCHEM_CACTVS_COMPLEXITY>
1010
> <PUBCHEM_CACTVS_HBOND_ACCEPTOR>
8
> <PUBCHEM_CACTVS_HBOND_DONOR>
3
> <PUBCHEM_CACTVS_ROTATABLE_BOND>
18
> <PUBCHEM_CACTVS_SUBSKEYS>
AAADcfB/OABAAAAAAAAAAAAAAAAAAAAAAAAwYMAAAAAAAAABUAAAHgQQSAAADSjh2AYyCYLABgKIAiHSGHBCABAgAAAIiJmICIkKZjKAsTmccAAk1gGYqAeYyKCOEAAAAAAAAAAgAAAAAAAAAAAAAAAAAA==
> <PUBCHEM_IUPAC_OPENEYE_NAME>
(2S)-6-[[(2S)-2-(benzyloxycarbonylamino)-3-phenyl-propanoyl]amino]-2-[isobutyl(p-tolylsulfonyl)amino]hexanoic acid
> <PUBCHEM_IUPAC_CAS_NAME>
(2S)-2-[(4-methylphenyl)sulfonyl-(2-methylpropyl)amino]-6-[[(2S)-1-oxo-3-phenyl-2-(phenylmethoxycarbonylamino)propyl]amino]hexanoic acid
> <PUBCHEM_IUPAC_NAME_MARKUP>
(2<I>S</I>)-2-[(4-methylphenyl)sulfonyl-(2-methylpropyl)amino]-6-[[(2<I>S</I>)-3-phenyl-2-(phenylmethoxycarbonylamino)propanoyl]amino]hexanoic acid
> <PUBCHEM_IUPAC_NAME>
(2S)-2-[(4-methylphenyl)sulfonyl-(2-methylpropyl)amino]-6-[[(2S)-3-phenyl-2-(phenylmethoxycarbonylamino)propanoyl]amino]hexanoic acid
> <PUBCHEM_IUPAC_SYSTEMATIC_NAME>
(2S)-2-[(4-methylphenyl)sulfonyl-(2-methylpropyl)amino]-6-[[(2S)-3-phenyl-2-(phenylmethoxycarbonylamino)propanoyl]amino]hexanoic acid
> <PUBCHEM_IUPAC_TRADITIONAL_NAME>
(2S)-6-[[(2S)-2-(benzyloxycarbonylamino)-3-phenyl-propanoyl]amino]-2-[isobutyl(tosyl)amino]hexanoic acid
> <PUBCHEM_IUPAC_INCHI>
InChI=1S/C34H43N3O7S/c1-25(2)23-37(45(42,43)29-19-17-26(3)18-20-29)31(33(39)40)16-10-11-21-35-32(38)30(22-27-12-6-4-7-13-27)36-34(41)44-24-28-14-8-5-9-15-28/h4-9,12-15,17-20,25,30-31H,10-11,16,21-24H2,1-3H3,(H,35,38)(H,36,41)(H,39,40)/t30-,31-/m0/s1
> <PUBCHEM_IUPAC_INCHIKEY>
MSPRZGSKEBNJJR-CONSDPRKSA-N
> <PUBCHEM_XLOGP3_AA>
6
> <PUBCHEM_EXACT_MASS>
637.28217189
> <PUBCHEM_MOLECULAR_FORMULA>
C34H43N3O7S
> <PUBCHEM_MOLECULAR_WEIGHT>
637.8
> <PUBCHEM_OPENEYE_CAN_SMILES>
CC1=CC=C(C=C1)S(=O)(=O)N(CC(C)C)C(CCCCNC(=O)C(CC2=CC=CC=C2)NC(=O)OCC3=CC=CC=C3)C(=O)O
> <PUBCHEM_OPENEYE_ISO_SMILES>
CC1=CC=C(C=C1)S(=O)(=O)N(CC(C)C)[C@@H](CCCCNC(=O)[C@H](CC2=CC=CC=C2)NC(=O)OCC3=CC=CC=C3)C(=O)O
> <PUBCHEM_CACTVS_TPSA>
151
> <PUBCHEM_MONOISOTOPIC_WEIGHT>
637.28217189
> <PUBCHEM_TOTAL_CHARGE>
0
> <PUBCHEM_HEAVY_ATOM_COUNT>
45
> <PUBCHEM_ATOM_DEF_STEREO_COUNT>
2
> <PUBCHEM_ATOM_UDEF_STEREO_COUNT>
0
> <PUBCHEM_BOND_DEF_STEREO_COUNT>
0
> <PUBCHEM_BOND_UDEF_STEREO_COUNT>
0
> <PUBCHEM_ISOTOPIC_ATOM_COUNT>
0
> <PUBCHEM_COMPONENT_COUNT>
1
> <PUBCHEM_CACTVS_TAUTO_COUNT>
-1
> <PUBCHEM_COORDINATE_TYPE>
1
5
255
> <PUBCHEM_BONDANNOTATIONS>
25  11  5
19  23  8
19  24  8
23  27  8
24  28  8
27  29  8
28  29  8
31  33  8
31  34  8
33  36  8
34  37  8
36  38  8
37  38  8
40  41  8
40  42  8
41  43  8
42  44  8
43  45  8
44  45  8
12  9  6
$$$$
