508569
  -OEChem-10302200282D
 81 83  0     1  0  0  0  0  0999 V2000
    4.5981   -0.3644    0.0000 S   0  0  0  0  0  0  0  0  0  0  0  0
   12.3923    2.1356    0.0000 S   0  0  0  0  0  0  0  0  0  0  0  0
   11.5833    3.7234    0.0000 S   0  0  0  0  0  0  0  0  0  0  0  0
    5.5981   -0.3644    0.0000 O   0  0  0  0  0  0  0  0  0  0  0  0
    3.5981   -0.3644    0.0000 O   0  0  0  0  0  0  0  0  0  0  0  0
    6.3301    2.6356    0.0000 O   0  0  0  0  0  0  0  0  0  0  0  0
    4.5981    2.6356    0.0000 O   0  0  0  0  0  0  0  0  0  0  0  0
   10.6603    2.1356    0.0000 O   0  0  0  0  0  0  0  0  0  0  0  0
   13.3923    2.1356    0.0000 O   0  0  0  0  0  0  0  0  0  0  0  0
   11.3923    2.1356    0.0000 O   0  0  0  0  0  0  0  0  0  0  0  0
    4.5981    0.6356    0.0000 N   0  0  3  0  0  0  0  0  0  0  0  0
    9.7942    0.6356    0.0000 N   0  0  0  0  0  0  0  0  0  0  0  0
   12.3923    1.1356    0.0000 N   0  0  0  0  0  0  0  0  0  0  0  0
    4.5981   -4.3644    0.0000 N   0  0  0  0  0  0  0  0  0  0  0  0
    5.4641    1.1356    0.0000 C   0  0  1  0  0  0  0  0  0  0  0  0
    6.3301    0.6356    0.0000 C   0  0  0  0  0  0  0  0  0  0  0  0
    3.7320    1.1356    0.0000 C   0  0  0  0  0  0  0  0  0  0  0  0
    7.1962    1.1356    0.0000 C   0  0  0  0  0  0  0  0  0  0  0  0
    2.8660    0.6356    0.0000 C   0  0  0  0  0  0  0  0  0  0  0  0
    8.0622    0.6356    0.0000 C   0  0  0  0  0  0  0  0  0  0  0  0
    5.4641    2.1356    0.0000 C   0  0  0  0  0  0  0  0  0  0  0  0
    8.9282    1.1356    0.0000 C   0  0  0  0  0  0  0  0  0  0  0  0
    2.0000    1.1356    0.0000 C   0  0  0  0  0  0  0  0  0  0  0  0
    2.8660   -0.3644    0.0000 C   0  0  0  0  0  0  0  0  0  0  0  0
    4.5981   -1.3644    0.0000 C   0  0  0  0  0  0  0  0  0  0  0  0
   11.5263    0.6356    0.0000 C   0  0  2  0  0  0  0  0  0  0  0  0
    3.7320   -1.8644    0.0000 C   0  0  0  0  0  0  0  0  0  0  0  0
    5.4641   -1.8644    0.0000 C   0  0  0  0  0  0  0  0  0  0  0  0
   10.6603    1.1356    0.0000 C   0  0  0  0  0  0  0  0  0  0  0  0
   11.5263   -0.3644    0.0000 C   0  0  0  0  0  0  0  0  0  0  0  0
    3.7320   -2.8644    0.0000 C   0  0  0  0  0  0  0  0  0  0  0  0
    5.4641   -2.8644    0.0000 C   0  0  0  0  0  0  0  0  0  0  0  0
   12.3923   -0.8644    0.0000 C   0  0  0  0  0  0  0  0  0  0  0  0
    4.5981   -3.3644    0.0000 C   0  0  0  0  0  0  0  0  0  0  0  0
   13.2583   -0.3644    0.0000 C   0  0  0  0  0  0  0  0  0  0  0  0
   12.3923   -1.8644    0.0000 C   0  0  0  0  0  0  0  0  0  0  0  0
   12.3923    3.1356    0.0000 C   0  0  0  0  0  0  0  0  0  0  0  0
   14.1244   -0.8644    0.0000 C   0  0  0  0  0  0  0  0  0  0  0  0
   13.2583   -2.3644    0.0000 C   0  0  0  0  0  0  0  0  0  0  0  0
   13.2013    3.7234    0.0000 C   0  0  0  0  0  0  0  0  0  0  0  0
   14.1244   -1.8644    0.0000 C   0  0  0  0  0  0  0  0  0  0  0  0
   12.8923    4.6744    0.0000 C   0  0  0  0  0  0  0  0  0  0  0  0
   11.8923    4.6744    0.0000 C   0  0  0  0  0  0  0  0  0  0  0  0
    5.4641    0.5156    0.0000 H   0  0  0  0  0  0  0  0  0  0  0  0
    5.9316    0.1606    0.0000 H   0  0  0  0  0  0  0  0  0  0  0  0
    6.7287    0.1606    0.0000 H   0  0  0  0  0  0  0  0  0  0  0  0
    4.1306    1.6105    0.0000 H   0  0  0  0  0  0  0  0  0  0  0  0
    3.3335    1.6105    0.0000 H   0  0  0  0  0  0  0  0  0  0  0  0
    7.5947    1.6105    0.0000 H   0  0  0  0  0  0  0  0  0  0  0  0
    6.7976    1.6105    0.0000 H   0  0  0  0  0  0  0  0  0  0  0  0
    2.8660    1.2556    0.0000 H   0  0  0  0  0  0  0  0  0  0  0  0
    7.6636    0.1606    0.0000 H   0  0  0  0  0  0  0  0  0  0  0  0
    8.4607    0.1606    0.0000 H   0  0  0  0  0  0  0  0  0  0  0  0
    9.3267    1.6105    0.0000 H   0  0  0  0  0  0  0  0  0  0  0  0
    8.5297    1.6105    0.0000 H   0  0  0  0  0  0  0  0  0  0  0  0
    2.3100    1.6725    0.0000 H   0  0  0  0  0  0  0  0  0  0  0  0
    1.4631    1.4456    0.0000 H   0  0  0  0  0  0  0  0  0  0  0  0
    1.6900    0.5986    0.0000 H   0  0  0  0  0  0  0  0  0  0  0  0
    2.2460   -0.3644    0.0000 H   0  0  0  0  0  0  0  0  0  0  0  0
    2.8660   -0.9844    0.0000 H   0  0  0  0  0  0  0  0  0  0  0  0
    3.4860   -0.3644    0.0000 H   0  0  0  0  0  0  0  0  0  0  0  0
    9.7942    0.0156    0.0000 H   0  0  0  0  0  0  0  0  0  0  0  0
   12.0632    0.3256    0.0000 H   0  0  0  0  0  0  0  0  0  0  0  0
    3.1951   -1.5544    0.0000 H   0  0  0  0  0  0  0  0  0  0  0  0
    6.0010   -1.5544    0.0000 H   0  0  0  0  0  0  0  0  0  0  0  0
   10.9157   -0.2568    0.0000 H   0  0  0  0  0  0  0  0  0  0  0  0
   11.3142   -0.9470    0.0000 H   0  0  0  0  0  0  0  0  0  0  0  0
    6.3301    3.2556    0.0000 H   0  0  0  0  0  0  0  0  0  0  0  0
   12.9292    0.8256    0.0000 H   0  0  0  0  0  0  0  0  0  0  0  0
    3.1951   -3.1744    0.0000 H   0  0  0  0  0  0  0  0  0  0  0  0
    6.0010   -3.1744    0.0000 H   0  0  0  0  0  0  0  0  0  0  0  0
   13.2583    0.2556    0.0000 H   0  0  0  0  0  0  0  0  0  0  0  0
   11.8554   -2.1744    0.0000 H   0  0  0  0  0  0  0  0  0  0  0  0
    4.0611   -4.6744    0.0000 H   0  0  0  0  0  0  0  0  0  0  0  0
    5.1350   -4.6744    0.0000 H   0  0  0  0  0  0  0  0  0  0  0  0
   14.6613   -0.5544    0.0000 H   0  0  0  0  0  0  0  0  0  0  0  0
   13.2583   -2.9844    0.0000 H   0  0  0  0  0  0  0  0  0  0  0  0
   13.7910    3.5318    0.0000 H   0  0  0  0  0  0  0  0  0  0  0  0
   14.6613   -2.1744    0.0000 H   0  0  0  0  0  0  0  0  0  0  0  0
   13.2567    5.1760    0.0000 H   0  0  0  0  0  0  0  0  0  0  0  0
   11.5279    5.1760    0.0000 H   0  0  0  0  0  0  0  0  0  0  0  0
  1  4  2  0  0  0  0
  1  5  2  0  0  0  0
  1 11  1  0  0  0  0
  1 25  1  0  0  0  0
  2  9  2  0  0  0  0
  2 10  2  0  0  0  0
  2 13  1  0  0  0  0
  2 37  1  0  0  0  0
  3 37  1  0  0  0  0
  3 43  1  0  0  0  0
  6 21  1  0  0  0  0
  6 68  1  0  0  0  0
  7 21  2  0  0  0  0
  8 29  2  0  0  0  0
 15 11  1  6  0  0  0
 11 17  1  0  0  0  0
 12 22  1  0  0  0  0
 12 29  1  0  0  0  0
 12 62  1  0  0  0  0
 26 13  1  1  0  0  0
 13 69  1  0  0  0  0
 14 34  1  0  0  0  0
 14 74  1  0  0  0  0
 14 75  1  0  0  0  0
 15 16  1  0  0  0  0
 15 21  1  0  0  0  0
 15 44  1  0  0  0  0
 16 18  1  0  0  0  0
 16 45  1  0  0  0  0
 16 46  1  0  0  0  0
 17 19  1  0  0  0  0
 17 47  1  0  0  0  0
 17 48  1  0  0  0  0
 18 20  1  0  0  0  0
 18 49  1  0  0  0  0
 18 50  1  0  0  0  0
 19 23  1  0  0  0  0
 19 24  1  0  0  0  0
 19 51  1  0  0  0  0
 20 22  1  0  0  0  0
 20 52  1  0  0  0  0
 20 53  1  0  0  0  0
 22 54  1  0  0  0  0
 22 55  1  0  0  0  0
 23 56  1  0  0  0  0
 23 57  1  0  0  0  0
 23 58  1  0  0  0  0
 24 59  1  0  0  0  0
 24 60  1  0  0  0  0
 24 61  1  0  0  0  0
 25 27  2  0  0  0  0
 25 28  1  0  0  0  0
 26 29  1  0  0  0  0
 26 30  1  0  0  0  0
 26 63  1  0  0  0  0
 27 31  1  0  0  0  0
 27 64  1  0  0  0  0
 28 32  2  0  0  0  0
 28 65  1  0  0  0  0
 30 33  1  0  0  0  0
 30 66  1  0  0  0  0
 30 67  1  0  0  0  0
 31 34  2  0  0  0  0
 31 70  1  0  0  0  0
 32 34  1  0  0  0  0
 32 71  1  0  0  0  0
 33 35  2  0  0  0  0
 33 36  1  0  0  0  0
 35 38  1  0  0  0  0
 35 72  1  0  0  0  0
 36 39  2  0  0  0  0
 36 73  1  0  0  0  0
 37 40  2  0  0  0  0
 38 41  2  0  0  0  0
 38 76  1  0  0  0  0
 39 41  1  0  0  0  0
 39 77  1  0  0  0  0
 40 42  1  0  0  0  0
 40 78  1  0  0  0  0
 41 79  1  0  0  0  0
 42 43  2  0  0  0  0
 42 80  1  0  0  0  0
 43 81  1  0  0  0  0
M  END
> <PUBCHEM_COMPOUND_CID>
508569
> <PUBCHEM_COMPOUND_CANONICALIZED>
1
> <PUBCHEM_CACTVS_COMPLEXITY>
1090
> <PUBCHEM_CACTVS_HBOND_ACCEPTOR>
11
> <PUBCHEM_CACTVS_HBOND_DONOR>
4
> <PUBCHEM_CACTVS_ROTATABLE_BOND>
17
> <PUBCHEM_CACTVS_SUBSKEYS>
AAADcfB7uABgAAAAAAAAAAAAAAAAASAAAAAwYAAAAAAAAAAB0AAAHgQQSAAADSjF2ASyyYLAAgqMAiXSWHDDAZAgChBIiJmIZIgKYDKgkbGUYABklgC4yAeYyICOAAQAAAAAAAAACAAAAAAAAAAAAAAAAA==
> <PUBCHEM_IUPAC_OPENEYE_NAME>
(2S)-2-[(4-aminophenyl)sulfonyl-isobutyl-amino]-6-[[(2S)-3-phenyl-2-(2-thienylsulfonylamino)propanoyl]amino]hexanoic acid
> <PUBCHEM_IUPAC_CAS_NAME>
(2S)-2-[(4-aminophenyl)sulfonyl-(2-methylpropyl)amino]-6-[[(2S)-1-oxo-3-phenyl-2-(thiophen-2-ylsulfonylamino)propyl]amino]hexanoic acid
> <PUBCHEM_IUPAC_NAME_MARKUP>
(2<I>S</I>)-2-[(4-aminophenyl)sulfonyl-(2-methylpropyl)amino]-6-[[(2<I>S</I>)-3-phenyl-2-(thiophen-2-ylsulfonylamino)propanoyl]amino]hexanoic acid
> <PUBCHEM_IUPAC_NAME>
(2S)-2-[(4-aminophenyl)sulfonyl-(2-methylpropyl)amino]-6-[[(2S)-3-phenyl-2-(thiophen-2-ylsulfonylamino)propanoyl]amino]hexanoic acid
> <PUBCHEM_IUPAC_SYSTEMATIC_NAME>
(2S)-2-[(4-aminophenyl)sulfonyl-(2-methylpropyl)amino]-6-[[(2S)-3-phenyl-2-(thiophen-2-ylsulfonylamino)propanoyl]amino]hexanoic acid
> <PUBCHEM_IUPAC_TRADITIONAL_NAME>
(2S)-2-[isobutyl(sulfanilyl)amino]-6-[[(2S)-3-phenyl-2-(2-thienylsulfonylamino)propanoyl]amino]hexanoic acid
> <PUBCHEM_IUPAC_INCHI>
InChI=1S/C29H38N4O7S3/c1-21(2)20-33(43(39,40)24-15-13-23(30)14-16-24)26(29(35)36)11-6-7-17-31-28(34)25(19-22-9-4-3-5-10-22)32-42(37,38)27-12-8-18-41-27/h3-5,8-10,12-16,18,21,25-26,32H,6-7,11,17,19-20,30H2,1-2H3,(H,31,34)(H,35,36)/t25-,26-/m0/s1
> <PUBCHEM_IUPAC_INCHIKEY>
MQSASCBBQGVWQA-UIOOFZCWSA-N
> <PUBCHEM_XLOGP3_AA>
4.4
> <PUBCHEM_EXACT_MASS>
650.19026308
> <PUBCHEM_MOLECULAR_FORMULA>
C29H38N4O7S3
> <PUBCHEM_MOLECULAR_WEIGHT>
650.8
> <PUBCHEM_OPENEYE_CAN_SMILES>
CC(C)CN(C(CCCCNC(=O)C(CC1=CC=CC=C1)NS(=O)(=O)C2=CC=CS2)C(=O)O)S(=O)(=O)C3=CC=C(C=C3)N
> <PUBCHEM_OPENEYE_ISO_SMILES>
CC(C)CN([C@@H](CCCCNC(=O)[C@H](CC1=CC=CC=C1)NS(=O)(=O)C2=CC=CS2)C(=O)O)S(=O)(=O)C3=CC=C(C=C3)N
> <PUBCHEM_CACTVS_TPSA>
221
> <PUBCHEM_MONOISOTOPIC_WEIGHT>
650.19026308
> <PUBCHEM_TOTAL_CHARGE>
0
> <PUBCHEM_HEAVY_ATOM_COUNT>
43
> <PUBCHEM_ATOM_DEF_STEREO_COUNT>
2
> <PUBCHEM_ATOM_UDEF_STEREO_COUNT>
0
> <PUBCHEM_BOND_DEF_STEREO_COUNT>
0
> <PUBCHEM_BOND_UDEF_STEREO_COUNT>
0
> <PUBCHEM_ISOTOPIC_ATOM_COUNT>
0
> <PUBCHEM_COMPONENT_COUNT>
1
> <PUBCHEM_CACTVS_TAUTO_COUNT>
-1
> <PUBCHEM_COORDINATE_TYPE>
1
5
255
> <PUBCHEM_BONDANNOTATIONS>
15  11  6
26  13  5
25  27  8
25  28  8
27  31  8
28  32  8
3  37  8
3  43  8
31  34  8
32  34  8
33  35  8
33  36  8
35  38  8
36  39  8
37  40  8
38  41  8
39  41  8
40  42  8
42  43  8
$$$$
