508591
  -OEChem-10302200282D
 91 93  0     1  0  0  0  0  0999 V2000
    4.5981   -1.2500    0.0000 S   0  0  0  0  0  0  0  0  0  0  0  0
   12.3923    1.2500    0.0000 S   0  0  0  0  0  0  0  0  0  0  0  0
    5.5981   -1.2500    0.0000 O   0  0  0  0  0  0  0  0  0  0  0  0
    3.5981   -1.2500    0.0000 O   0  0  0  0  0  0  0  0  0  0  0  0
    6.3301    1.7500    0.0000 O   0  0  0  0  0  0  0  0  0  0  0  0
    4.5981    1.7500    0.0000 O   0  0  0  0  0  0  0  0  0  0  0  0
   10.6603    1.2500    0.0000 O   0  0  0  0  0  0  0  0  0  0  0  0
   13.3923    1.2500    0.0000 O   0  0  0  0  0  0  0  0  0  0  0  0
   11.3923    1.2500    0.0000 O   0  0  0  0  0  0  0  0  0  0  0  0
    4.5981   -0.2500    0.0000 N   0  0  3  0  0  0  0  0  0  0  0  0
    9.7942   -0.2500    0.0000 N   0  0  0  0  0  0  0  0  0  0  0  0
   12.3923    0.2500    0.0000 N   0  0  0  0  0  0  0  0  0  0  0  0
    5.4641    0.2500    0.0000 C   0  0  1  0  0  0  0  0  0  0  0  0
    6.3301   -0.2500    0.0000 C   0  0  0  0  0  0  0  0  0  0  0  0
    3.7320    0.2500    0.0000 C   0  0  0  0  0  0  0  0  0  0  0  0
    2.8660   -0.2500    0.0000 C   0  0  0  0  0  0  0  0  0  0  0  0
    7.1962    0.2500    0.0000 C   0  0  0  0  0  0  0  0  0  0  0  0
    8.0622   -0.2500    0.0000 C   0  0  0  0  0  0  0  0  0  0  0  0
    5.4641    1.2500    0.0000 C   0  0  0  0  0  0  0  0  0  0  0  0
    4.5981   -2.2500    0.0000 C   0  0  0  0  0  0  0  0  0  0  0  0
    8.9282    0.2500    0.0000 C   0  0  0  0  0  0  0  0  0  0  0  0
    2.0000    0.2500    0.0000 C   0  0  0  0  0  0  0  0  0  0  0  0
    2.8660   -1.2500    0.0000 C   0  0  0  0  0  0  0  0  0  0  0  0
   11.5263   -0.2500    0.0000 C   0  0  2  0  0  0  0  0  0  0  0  0
    5.4641   -2.7500    0.0000 C   0  0  0  0  0  0  0  0  0  0  0  0
    3.7320   -2.7500    0.0000 C   0  0  0  0  0  0  0  0  0  0  0  0
   10.6603    0.2500    0.0000 C   0  0  0  0  0  0  0  0  0  0  0  0
   11.5263   -1.2500    0.0000 C   0  0  0  0  0  0  0  0  0  0  0  0
    5.4641   -3.7500    0.0000 C   0  0  0  0  0  0  0  0  0  0  0  0
    3.7320   -3.7500    0.0000 C   0  0  0  0  0  0  0  0  0  0  0  0
    4.5981   -4.2500    0.0000 C   0  0  0  0  0  0  0  0  0  0  0  0
   12.3923   -1.7500    0.0000 C   0  0  0  0  0  0  0  0  0  0  0  0
    6.3301    2.7500    0.0000 C   0  0  0  0  0  0  0  0  0  0  0  0
    4.5981   -5.2500    0.0000 C   0  0  0  0  0  0  0  0  0  0  0  0
   12.3923    2.2500    0.0000 C   0  0  0  0  0  0  0  0  0  0  0  0
   13.2583   -1.2500    0.0000 C   0  0  0  0  0  0  0  0  0  0  0  0
   12.3923   -2.7500    0.0000 C   0  0  0  0  0  0  0  0  0  0  0  0
   13.2583    2.7500    0.0000 C   0  0  0  0  0  0  0  0  0  0  0  0
   11.5263    2.7500    0.0000 C   0  0  0  0  0  0  0  0  0  0  0  0
   14.1244   -1.7500    0.0000 C   0  0  0  0  0  0  0  0  0  0  0  0
   13.2583   -3.2500    0.0000 C   0  0  0  0  0  0  0  0  0  0  0  0
   14.1244   -2.7500    0.0000 C   0  0  0  0  0  0  0  0  0  0  0  0
   13.2583    3.7500    0.0000 C   0  0  0  0  0  0  0  0  0  0  0  0
   11.5263    3.7500    0.0000 C   0  0  0  0  0  0  0  0  0  0  0  0
   12.3923    4.2500    0.0000 C   0  0  0  0  0  0  0  0  0  0  0  0
   12.3923    5.2500    0.0000 C   0  0  0  0  0  0  0  0  0  0  0  0
    5.4641   -0.3700    0.0000 H   0  0  0  0  0  0  0  0  0  0  0  0
    5.9316   -0.7249    0.0000 H   0  0  0  0  0  0  0  0  0  0  0  0
    6.7287   -0.7249    0.0000 H   0  0  0  0  0  0  0  0  0  0  0  0
    4.1306    0.7249    0.0000 H   0  0  0  0  0  0  0  0  0  0  0  0
    3.3335    0.7249    0.0000 H   0  0  0  0  0  0  0  0  0  0  0  0
    2.8660    0.3700    0.0000 H   0  0  0  0  0  0  0  0  0  0  0  0
    7.5947    0.7249    0.0000 H   0  0  0  0  0  0  0  0  0  0  0  0
    6.7976    0.7249    0.0000 H   0  0  0  0  0  0  0  0  0  0  0  0
    7.6636   -0.7249    0.0000 H   0  0  0  0  0  0  0  0  0  0  0  0
    8.4607   -0.7249    0.0000 H   0  0  0  0  0  0  0  0  0  0  0  0
    9.3267    0.7249    0.0000 H   0  0  0  0  0  0  0  0  0  0  0  0
    8.5297    0.7249    0.0000 H   0  0  0  0  0  0  0  0  0  0  0  0
    2.3100    0.7869    0.0000 H   0  0  0  0  0  0  0  0  0  0  0  0
    1.4631    0.5600    0.0000 H   0  0  0  0  0  0  0  0  0  0  0  0
    1.6900   -0.2869    0.0000 H   0  0  0  0  0  0  0  0  0  0  0  0
    2.2460   -1.2500    0.0000 H   0  0  0  0  0  0  0  0  0  0  0  0
    2.8660   -1.8700    0.0000 H   0  0  0  0  0  0  0  0  0  0  0  0
    3.4860   -1.2500    0.0000 H   0  0  0  0  0  0  0  0  0  0  0  0
    9.7942   -0.8700    0.0000 H   0  0  0  0  0  0  0  0  0  0  0  0
   12.0632   -0.5600    0.0000 H   0  0  0  0  0  0  0  0  0  0  0  0
    6.0010   -2.4400    0.0000 H   0  0  0  0  0  0  0  0  0  0  0  0
    3.1951   -2.4400    0.0000 H   0  0  0  0  0  0  0  0  0  0  0  0
   10.9157   -1.1423    0.0000 H   0  0  0  0  0  0  0  0  0  0  0  0
   11.3142   -1.8326    0.0000 H   0  0  0  0  0  0  0  0  0  0  0  0
    6.0010   -4.0600    0.0000 H   0  0  0  0  0  0  0  0  0  0  0  0
    3.1951   -4.0600    0.0000 H   0  0  0  0  0  0  0  0  0  0  0  0
   12.9292   -0.0600    0.0000 H   0  0  0  0  0  0  0  0  0  0  0  0
    6.9501    2.7500    0.0000 H   0  0  0  0  0  0  0  0  0  0  0  0
    6.3301    3.3700    0.0000 H   0  0  0  0  0  0  0  0  0  0  0  0
    5.7101    2.7500    0.0000 H   0  0  0  0  0  0  0  0  0  0  0  0
    3.9781   -5.2500    0.0000 H   0  0  0  0  0  0  0  0  0  0  0  0
    4.5981   -5.8700    0.0000 H   0  0  0  0  0  0  0  0  0  0  0  0
    5.2181   -5.2500    0.0000 H   0  0  0  0  0  0  0  0  0  0  0  0
   13.2583   -0.6300    0.0000 H   0  0  0  0  0  0  0  0  0  0  0  0
   11.8554   -3.0600    0.0000 H   0  0  0  0  0  0  0  0  0  0  0  0
   13.7953    2.4400    0.0000 H   0  0  0  0  0  0  0  0  0  0  0  0
   10.9893    2.4400    0.0000 H   0  0  0  0  0  0  0  0  0  0  0  0
   14.6613   -1.4400    0.0000 H   0  0  0  0  0  0  0  0  0  0  0  0
   13.2583   -3.8700    0.0000 H   0  0  0  0  0  0  0  0  0  0  0  0
   14.6613   -3.0600    0.0000 H   0  0  0  0  0  0  0  0  0  0  0  0
   13.7953    4.0600    0.0000 H   0  0  0  0  0  0  0  0  0  0  0  0
   10.9893    4.0600    0.0000 H   0  0  0  0  0  0  0  0  0  0  0  0
   13.0123    5.2500    0.0000 H   0  0  0  0  0  0  0  0  0  0  0  0
   12.3923    5.8700    0.0000 H   0  0  0  0  0  0  0  0  0  0  0  0
   11.7723    5.2500    0.0000 H   0  0  0  0  0  0  0  0  0  0  0  0
  1  3  2  0  0  0  0
  1  4  2  0  0  0  0
  1 10  1  0  0  0  0
  1 20  1  0  0  0  0
  2  8  2  0  0  0  0
  2  9  2  0  0  0  0
  2 12  1  0  0  0  0
  2 35  1  0  0  0  0
  5 19  1  0  0  0  0
  5 33  1  0  0  0  0
  6 19  2  0  0  0  0
  7 27  2  0  0  0  0
 13 10  1  6  0  0  0
 10 15  1  0  0  0  0
 11 21  1  0  0  0  0
 11 27  1  0  0  0  0
 11 65  1  0  0  0  0
 24 12  1  1  0  0  0
 12 73  1  0  0  0  0
 13 14  1  0  0  0  0
 13 19  1  0  0  0  0
 13 47  1  0  0  0  0
 14 17  1  0  0  0  0
 14 48  1  0  0  0  0
 14 49  1  0  0  0  0
 15 16  1  0  0  0  0
 15 50  1  0  0  0  0
 15 51  1  0  0  0  0
 16 22  1  0  0  0  0
 16 23  1  0  0  0  0
 16 52  1  0  0  0  0
 17 18  1  0  0  0  0
 17 53  1  0  0  0  0
 17 54  1  0  0  0  0
 18 21  1  0  0  0  0
 18 55  1  0  0  0  0
 18 56  1  0  0  0  0
 20 25  2  0  0  0  0
 20 26  1  0  0  0  0
 21 57  1  0  0  0  0
 21 58  1  0  0  0  0
 22 59  1  0  0  0  0
 22 60  1  0  0  0  0
 22 61  1  0  0  0  0
 23 62  1  0  0  0  0
 23 63  1  0  0  0  0
 23 64  1  0  0  0  0
 24 27  1  0  0  0  0
 24 28  1  0  0  0  0
 24 66  1  0  0  0  0
 25 29  1  0  0  0  0
 25 67  1  0  0  0  0
 26 30  2  0  0  0  0
 26 68  1  0  0  0  0
 28 32  1  0  0  0  0
 28 69  1  0  0  0  0
 28 70  1  0  0  0  0
 29 31  2  0  0  0  0
 29 71  1  0  0  0  0
 30 31  1  0  0  0  0
 30 72  1  0  0  0  0
 31 34  1  0  0  0  0
 32 36  2  0  0  0  0
 32 37  1  0  0  0  0
 33 74  1  0  0  0  0
 33 75  1  0  0  0  0
 33 76  1  0  0  0  0
 34 77  1  0  0  0  0
 34 78  1  0  0  0  0
 34 79  1  0  0  0  0
 35 38  2  0  0  0  0
 35 39  1  0  0  0  0
 36 40  1  0  0  0  0
 36 80  1  0  0  0  0
 37 41  2  0  0  0  0
 37 81  1  0  0  0  0
 38 43  1  0  0  0  0
 38 82  1  0  0  0  0
 39 44  2  0  0  0  0
 39 83  1  0  0  0  0
 40 42  2  0  0  0  0
 40 84  1  0  0  0  0
 41 42  1  0  0  0  0
 41 85  1  0  0  0  0
 42 86  1  0  0  0  0
 43 45  2  0  0  0  0
 43 87  1  0  0  0  0
 44 45  1  0  0  0  0
 44 88  1  0  0  0  0
 45 46  1  0  0  0  0
 46 89  1  0  0  0  0
 46 90  1  0  0  0  0
 46 91  1  0  0  0  0
M  END
> <PUBCHEM_COMPOUND_CID>
508591
> <PUBCHEM_COMPOUND_CANONICALIZED>
1
> <PUBCHEM_CACTVS_COMPLEXITY>
1140
> <PUBCHEM_CACTVS_HBOND_ACCEPTOR>
9
> <PUBCHEM_CACTVS_HBOND_DONOR>
2
> <PUBCHEM_CACTVS_ROTATABLE_BOND>
18
> <PUBCHEM_CACTVS_SUBSKEYS>
AAADcfB/OABgAAAAAAAAAAAAAAAAAAAAAAAwYMAAAAAAAAABUAAAHgQQQAAADSjB2AYyCYLABAKIAiHSGHBCABAgAAAIiJmIAIgKYDKAkTGVIAAklgCYiAeYyICOEAAAAAAAAAAgAAAAAAAAAAAAAAAAAA==
> <PUBCHEM_IUPAC_OPENEYE_NAME>
methyl (2S)-2-[isobutyl(p-tolylsulfonyl)amino]-6-[[(2S)-3-phenyl-2-(p-tolylsulfonylamino)propanoyl]amino]hexanoate
> <PUBCHEM_IUPAC_CAS_NAME>
(2S)-6-[[(2S)-2-[(4-methylphenyl)sulfonylamino]-1-oxo-3-phenylpropyl]amino]-2-[(4-methylphenyl)sulfonyl-(2-methylpropyl)amino]hexanoic acid methyl ester
> <PUBCHEM_IUPAC_NAME_MARKUP>
methyl (2<I>S</I>)-6-[[(2<I>S</I>)-2-[(4-methylphenyl)sulfonylamino]-3-phenylpropanoyl]amino]-2-[(4-methylphenyl)sulfonyl-(2-methylpropyl)amino]hexanoate
> <PUBCHEM_IUPAC_NAME>
methyl (2S)-6-[[(2S)-2-[(4-methylphenyl)sulfonylamino]-3-phenylpropanoyl]amino]-2-[(4-methylphenyl)sulfonyl-(2-methylpropyl)amino]hexanoate
> <PUBCHEM_IUPAC_SYSTEMATIC_NAME>
methyl (2S)-6-[[(2S)-2-[(4-methylphenyl)sulfonylamino]-3-phenyl-propanoyl]amino]-2-[(4-methylphenyl)sulfonyl-(2-methylpropyl)amino]hexanoate
> <PUBCHEM_IUPAC_TRADITIONAL_NAME>
(2S)-2-[isobutyl(tosyl)amino]-6-[[(2S)-3-phenyl-2-(tosylamino)propanoyl]amino]hexanoic acid methyl ester
> <PUBCHEM_IUPAC_INCHI>
InChI=1S/C34H45N3O7S2/c1-25(2)24-37(46(42,43)30-20-16-27(4)17-21-30)32(34(39)44-5)13-9-10-22-35-33(38)31(23-28-11-7-6-8-12-28)36-45(40,41)29-18-14-26(3)15-19-29/h6-8,11-12,14-21,25,31-32,36H,9-10,13,22-24H2,1-5H3,(H,35,38)/t31-,32-/m0/s1
> <PUBCHEM_IUPAC_INCHIKEY>
DLYRKZYLWFWOGE-ACHIHNKUSA-N
> <PUBCHEM_XLOGP3_AA>
6.2
> <PUBCHEM_EXACT_MASS>
671.26989313
> <PUBCHEM_MOLECULAR_FORMULA>
C34H45N3O7S2
> <PUBCHEM_MOLECULAR_WEIGHT>
671.9
> <PUBCHEM_OPENEYE_CAN_SMILES>
CC1=CC=C(C=C1)S(=O)(=O)NC(CC2=CC=CC=C2)C(=O)NCCCCC(C(=O)OC)N(CC(C)C)S(=O)(=O)C3=CC=C(C=C3)C
> <PUBCHEM_OPENEYE_ISO_SMILES>
CC1=CC=C(C=C1)S(=O)(=O)N[C@@H](CC2=CC=CC=C2)C(=O)NCCCC[C@@H](C(=O)OC)N(CC(C)C)S(=O)(=O)C3=CC=C(C=C3)C
> <PUBCHEM_CACTVS_TPSA>
156
> <PUBCHEM_MONOISOTOPIC_WEIGHT>
671.26989313
> <PUBCHEM_TOTAL_CHARGE>
0
> <PUBCHEM_HEAVY_ATOM_COUNT>
46
> <PUBCHEM_ATOM_DEF_STEREO_COUNT>
2
> <PUBCHEM_ATOM_UDEF_STEREO_COUNT>
0
> <PUBCHEM_BOND_DEF_STEREO_COUNT>
0
> <PUBCHEM_BOND_UDEF_STEREO_COUNT>
0
> <PUBCHEM_ISOTOPIC_ATOM_COUNT>
0
> <PUBCHEM_COMPONENT_COUNT>
1
> <PUBCHEM_CACTVS_TAUTO_COUNT>
-1
> <PUBCHEM_COORDINATE_TYPE>
1
5
255
> <PUBCHEM_BONDANNOTATIONS>
13  10  6
24  12  5
20  25  8
20  26  8
25  29  8
26  30  8
29  31  8
30  31  8
32  36  8
32  37  8
35  38  8
35  39  8
36  40  8
37  41  8
38  43  8
39  44  8
40  42  8
41  42  8
43  45  8
44  45  8
$$$$
