508574
  -OEChem-10302200282D
 87 89  0     1  0  0  0  0  0999 V2000
    4.5981   -0.2500    0.0000 S   0  0  0  0  0  0  0  0  0  0  0  0
    5.5981   -0.2500    0.0000 O   0  0  0  0  0  0  0  0  0  0  0  0
    3.5981   -0.2500    0.0000 O   0  0  0  0  0  0  0  0  0  0  0  0
    6.3301    2.7500    0.0000 O   0  0  0  0  0  0  0  0  0  0  0  0
    4.5981    2.7500    0.0000 O   0  0  0  0  0  0  0  0  0  0  0  0
   14.9904    3.7500    0.0000 O   0  0  0  0  0  0  0  0  0  0  0  0
   10.6603    2.2500    0.0000 O   0  0  0  0  0  0  0  0  0  0  0  0
   11.5263    2.7500    0.0000 O   0  0  0  0  0  0  0  0  0  0  0  0
    4.5981    0.7500    0.0000 N   0  0  3  0  0  0  0  0  0  0  0  0
    9.7942    0.7500    0.0000 N   0  0  0  0  0  0  0  0  0  0  0  0
   13.2583    2.7500    0.0000 N   0  0  0  0  0  0  0  0  0  0  0  0
   12.3923    1.2500    0.0000 N   0  0  0  0  0  0  0  0  0  0  0  0
    5.4641    1.2500    0.0000 C   0  0  1  0  0  0  0  0  0  0  0  0
    6.3301    0.7500    0.0000 C   0  0  0  0  0  0  0  0  0  0  0  0
    3.7320    1.2500    0.0000 C   0  0  0  0  0  0  0  0  0  0  0  0
    2.8660    0.7500    0.0000 C   0  0  0  0  0  0  0  0  0  0  0  0
    7.1962    1.2500    0.0000 C   0  0  0  0  0  0  0  0  0  0  0  0
    8.0622    0.7500    0.0000 C   0  0  0  0  0  0  0  0  0  0  0  0
    5.4641    2.2500    0.0000 C   0  0  0  0  0  0  0  0  0  0  0  0
    8.9282    1.2500    0.0000 C   0  0  0  0  0  0  0  0  0  0  0  0
    4.5981   -1.2500    0.0000 C   0  0  0  0  0  0  0  0  0  0  0  0
    2.0000    1.2500    0.0000 C   0  0  0  0  0  0  0  0  0  0  0  0
    2.8660   -0.2500    0.0000 C   0  0  0  0  0  0  0  0  0  0  0  0
   11.5263    0.7500    0.0000 C   0  0  2  0  0  0  0  0  0  0  0  0
   10.6603    1.2500    0.0000 C   0  0  0  0  0  0  0  0  0  0  0  0
    3.7320   -1.7500    0.0000 C   0  0  0  0  0  0  0  0  0  0  0  0
    5.4641   -1.7500    0.0000 C   0  0  0  0  0  0  0  0  0  0  0  0
   11.5263   -0.2500    0.0000 C   0  0  0  0  0  0  0  0  0  0  0  0
   13.2583    3.7500    0.0000 C   0  0  0  0  0  0  0  0  0  0  0  0
   14.1244    2.2500    0.0000 C   0  0  0  0  0  0  0  0  0  0  0  0
   12.3923    2.2500    0.0000 C   0  0  0  0  0  0  0  0  0  0  0  0
    3.7320   -2.7500    0.0000 C   0  0  0  0  0  0  0  0  0  0  0  0
    5.4641   -2.7500    0.0000 C   0  0  0  0  0  0  0  0  0  0  0  0
    4.5981   -3.2500    0.0000 C   0  0  0  0  0  0  0  0  0  0  0  0
   14.1244    4.2500    0.0000 C   0  0  0  0  0  0  0  0  0  0  0  0
   14.9904    2.7500    0.0000 C   0  0  0  0  0  0  0  0  0  0  0  0
   12.3923   -0.7500    0.0000 C   0  0  0  0  0  0  0  0  0  0  0  0
    4.5981   -4.2500    0.0000 C   0  0  0  0  0  0  0  0  0  0  0  0
   13.2583   -0.2500    0.0000 C   0  0  0  0  0  0  0  0  0  0  0  0
   12.3923   -1.7500    0.0000 C   0  0  0  0  0  0  0  0  0  0  0  0
   14.1244   -0.7500    0.0000 C   0  0  0  0  0  0  0  0  0  0  0  0
   13.2583   -2.2500    0.0000 C   0  0  0  0  0  0  0  0  0  0  0  0
   14.1244   -1.7500    0.0000 C   0  0  0  0  0  0  0  0  0  0  0  0
    5.4641    0.6300    0.0000 H   0  0  0  0  0  0  0  0  0  0  0  0
    5.9316    0.2751    0.0000 H   0  0  0  0  0  0  0  0  0  0  0  0
    6.7287    0.2751    0.0000 H   0  0  0  0  0  0  0  0  0  0  0  0
    4.1306    1.7250    0.0000 H   0  0  0  0  0  0  0  0  0  0  0  0
    3.3335    1.7250    0.0000 H   0  0  0  0  0  0  0  0  0  0  0  0
    2.8660    1.3700    0.0000 H   0  0  0  0  0  0  0  0  0  0  0  0
    7.5947    1.7250    0.0000 H   0  0  0  0  0  0  0  0  0  0  0  0
    6.7976    1.7250    0.0000 H   0  0  0  0  0  0  0  0  0  0  0  0
    7.6636    0.2751    0.0000 H   0  0  0  0  0  0  0  0  0  0  0  0
    8.4607    0.2751    0.0000 H   0  0  0  0  0  0  0  0  0  0  0  0
    9.3267    1.7250    0.0000 H   0  0  0  0  0  0  0  0  0  0  0  0
    8.5297    1.7250    0.0000 H   0  0  0  0  0  0  0  0  0  0  0  0
    2.3100    1.7869    0.0000 H   0  0  0  0  0  0  0  0  0  0  0  0
    1.4631    1.5600    0.0000 H   0  0  0  0  0  0  0  0  0  0  0  0
    1.6900    0.7131    0.0000 H   0  0  0  0  0  0  0  0  0  0  0  0
    2.2460   -0.2500    0.0000 H   0  0  0  0  0  0  0  0  0  0  0  0
    2.8660   -0.8700    0.0000 H   0  0  0  0  0  0  0  0  0  0  0  0
    3.4860   -0.2500    0.0000 H   0  0  0  0  0  0  0  0  0  0  0  0
   12.0632    0.4400    0.0000 H   0  0  0  0  0  0  0  0  0  0  0  0
    9.7942    0.1300    0.0000 H   0  0  0  0  0  0  0  0  0  0  0  0
    3.1951   -1.4400    0.0000 H   0  0  0  0  0  0  0  0  0  0  0  0
    6.0010   -1.4400    0.0000 H   0  0  0  0  0  0  0  0  0  0  0  0
   10.9157   -0.1423    0.0000 H   0  0  0  0  0  0  0  0  0  0  0  0
   11.3142   -0.8326    0.0000 H   0  0  0  0  0  0  0  0  0  0  0  0
   12.9292    0.9400    0.0000 H   0  0  0  0  0  0  0  0  0  0  0  0
   13.0463    4.3326    0.0000 H   0  0  0  0  0  0  0  0  0  0  0  0
   12.6477    3.6423    0.0000 H   0  0  0  0  0  0  0  0  0  0  0  0
   13.7258    1.7750    0.0000 H   0  0  0  0  0  0  0  0  0  0  0  0
   14.5229    1.7750    0.0000 H   0  0  0  0  0  0  0  0  0  0  0  0
    6.3301    3.3700    0.0000 H   0  0  0  0  0  0  0  0  0  0  0  0
    3.1951   -3.0600    0.0000 H   0  0  0  0  0  0  0  0  0  0  0  0
    6.0010   -3.0600    0.0000 H   0  0  0  0  0  0  0  0  0  0  0  0
   14.5229    4.7250    0.0000 H   0  0  0  0  0  0  0  0  0  0  0  0
   13.7258    4.7250    0.0000 H   0  0  0  0  0  0  0  0  0  0  0  0
   15.2024    2.1674    0.0000 H   0  0  0  0  0  0  0  0  0  0  0  0
   15.6010    2.8577    0.0000 H   0  0  0  0  0  0  0  0  0  0  0  0
    3.9781   -4.2500    0.0000 H   0  0  0  0  0  0  0  0  0  0  0  0
    4.5981   -4.8700    0.0000 H   0  0  0  0  0  0  0  0  0  0  0  0
    5.2181   -4.2500    0.0000 H   0  0  0  0  0  0  0  0  0  0  0  0
   13.2583    0.3700    0.0000 H   0  0  0  0  0  0  0  0  0  0  0  0
   11.8554   -2.0600    0.0000 H   0  0  0  0  0  0  0  0  0  0  0  0
   14.6613   -0.4400    0.0000 H   0  0  0  0  0  0  0  0  0  0  0  0
   13.2583   -2.8700    0.0000 H   0  0  0  0  0  0  0  0  0  0  0  0
   14.6613   -2.0600    0.0000 H   0  0  0  0  0  0  0  0  0  0  0  0
  1  2  2  0  0  0  0
  1  3  2  0  0  0  0
  1  9  1  0  0  0  0
  1 21  1  0  0  0  0
  4 19  1  0  0  0  0
  4 73  1  0  0  0  0
  5 19  2  0  0  0  0
  6 35  1  0  0  0  0
  6 36  1  0  0  0  0
  7 25  2  0  0  0  0
  8 31  2  0  0  0  0
 13  9  1  6  0  0  0
  9 15  1  0  0  0  0
 10 20  1  0  0  0  0
 10 25  1  0  0  0  0
 10 63  1  0  0  0  0
 11 29  1  0  0  0  0
 11 30  1  0  0  0  0
 11 31  1  0  0  0  0
 24 12  1  1  0  0  0
 12 31  1  0  0  0  0
 12 68  1  0  0  0  0
 13 14  1  0  0  0  0
 13 19  1  0  0  0  0
 13 44  1  0  0  0  0
 14 17  1  0  0  0  0
 14 45  1  0  0  0  0
 14 46  1  0  0  0  0
 15 16  1  0  0  0  0
 15 47  1  0  0  0  0
 15 48  1  0  0  0  0
 16 22  1  0  0  0  0
 16 23  1  0  0  0  0
 16 49  1  0  0  0  0
 17 18  1  0  0  0  0
 17 50  1  0  0  0  0
 17 51  1  0  0  0  0
 18 20  1  0  0  0  0
 18 52  1  0  0  0  0
 18 53  1  0  0  0  0
 20 54  1  0  0  0  0
 20 55  1  0  0  0  0
 21 26  2  0  0  0  0
 21 27  1  0  0  0  0
 22 56  1  0  0  0  0
 22 57  1  0  0  0  0
 22 58  1  0  0  0  0
 23 59  1  0  0  0  0
 23 60  1  0  0  0  0
 23 61  1  0  0  0  0
 24 25  1  0  0  0  0
 24 28  1  0  0  0  0
 24 62  1  0  0  0  0
 26 32  1  0  0  0  0
 26 64  1  0  0  0  0
 27 33  2  0  0  0  0
 27 65  1  0  0  0  0
 28 37  1  0  0  0  0
 28 66  1  0  0  0  0
 28 67  1  0  0  0  0
 29 35  1  0  0  0  0
 29 69  1  0  0  0  0
 29 70  1  0  0  0  0
 30 36  1  0  0  0  0
 30 71  1  0  0  0  0
 30 72  1  0  0  0  0
 32 34  2  0  0  0  0
 32 74  1  0  0  0  0
 33 34  1  0  0  0  0
 33 75  1  0  0  0  0
 34 38  1  0  0  0  0
 35 76  1  0  0  0  0
 35 77  1  0  0  0  0
 36 78  1  0  0  0  0
 36 79  1  0  0  0  0
 37 39  2  0  0  0  0
 37 40  1  0  0  0  0
 38 80  1  0  0  0  0
 38 81  1  0  0  0  0
 38 82  1  0  0  0  0
 39 41  1  0  0  0  0
 39 83  1  0  0  0  0
 40 42  2  0  0  0  0
 40 84  1  0  0  0  0
 41 43  2  0  0  0  0
 41 85  1  0  0  0  0
 42 43  1  0  0  0  0
 42 86  1  0  0  0  0
 43 87  1  0  0  0  0
M  END
> <PUBCHEM_COMPOUND_CID>
508574
> <PUBCHEM_COMPOUND_CANONICALIZED>
1
> <PUBCHEM_CACTVS_COMPLEXITY>
983
> <PUBCHEM_CACTVS_HBOND_ACCEPTOR>
8
> <PUBCHEM_CACTVS_HBOND_DONOR>
3
> <PUBCHEM_CACTVS_ROTATABLE_BOND>
15
> <PUBCHEM_CACTVS_SUBSKEYS>
AAADcfB7uABAAAAAAAAAAAAAAAAAAAAAAAA8YIAAAAAAAAABQAAAHgQQSAAADSjh2AYzCYPABgKIAiHSGHBCABAgAAAIiJmIAIiKYDKAkTGXYAAslgKYiAeYyICOEAAAAAAAAAAgAAAAAAAAAAAAAAAAAA==
> <PUBCHEM_IUPAC_OPENEYE_NAME>
(2S)-2-[isobutyl(p-tolylsulfonyl)amino]-6-[[(2S)-2-(morpholine-4-carbonylamino)-3-phenyl-propanoyl]amino]hexanoic acid
> <PUBCHEM_IUPAC_CAS_NAME>
(2S)-2-[(4-methylphenyl)sulfonyl-(2-methylpropyl)amino]-6-[[(2S)-2-[[4-morpholinyl(oxo)methyl]amino]-1-oxo-3-phenylpropyl]amino]hexanoic acid
> <PUBCHEM_IUPAC_NAME_MARKUP>
(2<I>S</I>)-2-[(4-methylphenyl)sulfonyl-(2-methylpropyl)amino]-6-[[(2<I>S</I>)-2-(morpholine-4-carbonylamino)-3-phenylpropanoyl]amino]hexanoic acid
> <PUBCHEM_IUPAC_NAME>
(2S)-2-[(4-methylphenyl)sulfonyl-(2-methylpropyl)amino]-6-[[(2S)-2-(morpholine-4-carbonylamino)-3-phenylpropanoyl]amino]hexanoic acid
> <PUBCHEM_IUPAC_SYSTEMATIC_NAME>
(2S)-2-[(4-methylphenyl)sulfonyl-(2-methylpropyl)amino]-6-[[(2S)-2-(morpholin-4-ylcarbonylamino)-3-phenyl-propanoyl]amino]hexanoic acid
> <PUBCHEM_IUPAC_TRADITIONAL_NAME>
(2S)-2-[isobutyl(tosyl)amino]-6-[[(2S)-2-(morpholine-4-carbonylamino)-3-phenyl-propanoyl]amino]hexanoic acid
> <PUBCHEM_IUPAC_INCHI>
InChI=1S/C31H44N4O7S/c1-23(2)22-35(43(40,41)26-14-12-24(3)13-15-26)28(30(37)38)11-7-8-16-32-29(36)27(21-25-9-5-4-6-10-25)33-31(39)34-17-19-42-20-18-34/h4-6,9-10,12-15,23,27-28H,7-8,11,16-22H2,1-3H3,(H,32,36)(H,33,39)(H,37,38)/t27-,28-/m0/s1
> <PUBCHEM_IUPAC_INCHIKEY>
CLPWWFXPRLTXIX-NSOVKSMOSA-N
> <PUBCHEM_XLOGP3_AA>
3.8
> <PUBCHEM_EXACT_MASS>
616.29307093
> <PUBCHEM_MOLECULAR_FORMULA>
C31H44N4O7S
> <PUBCHEM_MOLECULAR_WEIGHT>
616.8
> <PUBCHEM_OPENEYE_CAN_SMILES>
CC1=CC=C(C=C1)S(=O)(=O)N(CC(C)C)C(CCCCNC(=O)C(CC2=CC=CC=C2)NC(=O)N3CCOCC3)C(=O)O
> <PUBCHEM_OPENEYE_ISO_SMILES>
CC1=CC=C(C=C1)S(=O)(=O)N(CC(C)C)[C@@H](CCCCNC(=O)[C@H](CC2=CC=CC=C2)NC(=O)N3CCOCC3)C(=O)O
> <PUBCHEM_CACTVS_TPSA>
154
> <PUBCHEM_MONOISOTOPIC_WEIGHT>
616.29307093
> <PUBCHEM_TOTAL_CHARGE>
0
> <PUBCHEM_HEAVY_ATOM_COUNT>
43
> <PUBCHEM_ATOM_DEF_STEREO_COUNT>
2
> <PUBCHEM_ATOM_UDEF_STEREO_COUNT>
0
> <PUBCHEM_BOND_DEF_STEREO_COUNT>
0
> <PUBCHEM_BOND_UDEF_STEREO_COUNT>
0
> <PUBCHEM_ISOTOPIC_ATOM_COUNT>
0
> <PUBCHEM_COMPONENT_COUNT>
1
> <PUBCHEM_CACTVS_TAUTO_COUNT>
-1
> <PUBCHEM_COORDINATE_TYPE>
1
5
255
> <PUBCHEM_BONDANNOTATIONS>
24  12  5
21  26  8
21  27  8
26  32  8
27  33  8
32  34  8
33  34  8
37  39  8
37  40  8
39  41  8
40  42  8
41  43  8
42  43  8
13  9  6
$$$$
