508527
  -OEChem-10302200282D
 92 95  0     1  0  0  0  0  0999 V2000
    9.3532   -4.0308    0.0000 S   0  0  0  0  0  0  0  0  0  0  0  0
    5.6103    4.0308    0.0000 S   0  0  0  0  0  0  0  0  0  0  0  0
    8.6089   -4.6987    0.0000 O   0  0  0  0  0  0  0  0  0  0  0  0
   10.0975   -3.3630    0.0000 O   0  0  0  0  0  0  0  0  0  0  0  0
   10.6423   -2.8741    0.0000 O   0  0  0  0  0  0  0  0  0  0  0  0
   10.2852   -1.1793    0.0000 O   0  0  0  0  0  0  0  0  0  0  0  0
    6.3246    0.6412    0.0000 O   0  0  0  0  0  0  0  0  0  0  0  0
    6.3546    4.6987    0.0000 O   0  0  0  0  0  0  0  0  0  0  0  0
    4.8660    3.3630    0.0000 O   0  0  0  0  0  0  0  0  0  0  0  0
    8.6853   -3.2865    0.0000 N   0  0  3  0  0  0  0  0  0  0  0  0
    7.6138    1.7979    0.0000 N   0  0  0  0  0  0  0  0  0  0  0  0
    6.2781    3.2865    0.0000 N   0  0  0  0  0  0  0  0  0  0  0  0
    4.6783   -0.4302    0.0000 N   0  0  0  0  0  0  0  0  0  0  0  0
    8.9960   -2.3360    0.0000 C   0  0  1  0  0  0  0  0  0  0  0  0
    8.3282   -1.5917    0.0000 C   0  0  0  0  0  0  0  0  0  0  0  0
    7.7068   -3.4928    0.0000 C   0  0  0  0  0  0  0  0  0  0  0  0
    8.6388   -0.6412    0.0000 C   0  0  0  0  0  0  0  0  0  0  0  0
    7.0390   -2.7484    0.0000 C   0  0  0  0  0  0  0  0  0  0  0  0
    7.9710    0.1031    0.0000 C   0  0  0  0  0  0  0  0  0  0  0  0
    9.9745   -2.1298    0.0000 C   0  0  0  0  0  0  0  0  0  0  0  0
    8.2816    1.0536    0.0000 C   0  0  0  0  0  0  0  0  0  0  0  0
   10.0210   -4.7751    0.0000 C   0  0  0  0  0  0  0  0  0  0  0  0
    6.0605   -2.9547    0.0000 C   0  0  0  0  0  0  0  0  0  0  0  0
    7.3496   -1.7979    0.0000 C   0  0  0  0  0  0  0  0  0  0  0  0
    5.9674    2.3360    0.0000 C   0  0  1  0  0  0  0  0  0  0  0  0
    4.9889    2.1298    0.0000 C   0  0  0  0  0  0  0  0  0  0  0  0
    6.6353    1.5917    0.0000 C   0  0  0  0  0  0  0  0  0  0  0  0
    4.6783    1.1793    0.0000 C   0  0  0  0  0  0  0  0  0  0  0  0
    9.7104   -5.7257    0.0000 C   0  0  0  0  0  0  0  0  0  0  0  0
   10.9995   -4.5689    0.0000 C   0  0  0  0  0  0  0  0  0  0  0  0
    3.7320    0.8745    0.0000 C   0  0  0  0  0  0  0  0  0  0  0  0
    3.7320   -0.1255    0.0000 C   0  0  0  0  0  0  0  0  0  0  0  0
    5.2619    0.3745    0.0000 C   0  0  0  0  0  0  0  0  0  0  0  0
   10.3782   -6.4700    0.0000 C   0  0  0  0  0  0  0  0  0  0  0  0
   11.6674   -5.3132    0.0000 C   0  0  0  0  0  0  0  0  0  0  0  0
   11.3567   -6.2637    0.0000 C   0  0  0  0  0  0  0  0  0  0  0  0
    2.8660    1.3745    0.0000 C   0  0  0  0  0  0  0  0  0  0  0  0
    4.9424    4.7751    0.0000 C   0  0  0  0  0  0  0  0  0  0  0  0
    2.8660   -0.6255    0.0000 C   0  0  0  0  0  0  0  0  0  0  0  0
   12.0246   -7.0080    0.0000 C   0  0  0  0  0  0  0  0  0  0  0  0
    2.0000    0.8745    0.0000 C   0  0  0  0  0  0  0  0  0  0  0  0
    2.0000   -0.1255    0.0000 C   0  0  0  0  0  0  0  0  0  0  0  0
    3.9639    4.5689    0.0000 C   0  0  0  0  0  0  0  0  0  0  0  0
    5.2531    5.7257    0.0000 C   0  0  0  0  0  0  0  0  0  0  0  0
    3.2961    5.3132    0.0000 C   0  0  0  0  0  0  0  0  0  0  0  0
    4.5852    6.4700    0.0000 C   0  0  0  0  0  0  0  0  0  0  0  0
    3.6067    6.2637    0.0000 C   0  0  0  0  0  0  0  0  0  0  0  0
    2.9389    7.0080    0.0000 C   0  0  0  0  0  0  0  0  0  0  0  0
    9.4101   -2.7975    0.0000 H   0  0  0  0  0  0  0  0  0  0  0  0
    7.7812   -1.2997    0.0000 H   0  0  0  0  0  0  0  0  0  0  0  0
    7.9456   -2.0796    0.0000 H   0  0  0  0  0  0  0  0  0  0  0  0
    7.1805   -3.8204    0.0000 H   0  0  0  0  0  0  0  0  0  0  0  0
    7.9381   -4.0680    0.0000 H   0  0  0  0  0  0  0  0  0  0  0  0
    9.1857   -0.9332    0.0000 H   0  0  0  0  0  0  0  0  0  0  0  0
    9.0214   -0.1533    0.0000 H   0  0  0  0  0  0  0  0  0  0  0  0
    7.6457   -2.6206    0.0000 H   0  0  0  0  0  0  0  0  0  0  0  0
    7.4240    0.3951    0.0000 H   0  0  0  0  0  0  0  0  0  0  0  0
    7.5884   -0.3848    0.0000 H   0  0  0  0  0  0  0  0  0  0  0  0
    8.8286    0.7616    0.0000 H   0  0  0  0  0  0  0  0  0  0  0  0
    8.6642    1.5415    0.0000 H   0  0  0  0  0  0  0  0  0  0  0  0
    5.9326   -2.3480    0.0000 H   0  0  0  0  0  0  0  0  0  0  0  0
    5.4538   -3.0825    0.0000 H   0  0  0  0  0  0  0  0  0  0  0  0
    6.1883   -3.5613    0.0000 H   0  0  0  0  0  0  0  0  0  0  0  0
    7.9390   -1.9905    0.0000 H   0  0  0  0  0  0  0  0  0  0  0  0
    7.5423   -1.2086    0.0000 H   0  0  0  0  0  0  0  0  0  0  0  0
    6.7603   -1.6053    0.0000 H   0  0  0  0  0  0  0  0  0  0  0  0
    5.5534    2.7975    0.0000 H   0  0  0  0  0  0  0  0  0  0  0  0
    4.9684    2.7494    0.0000 H   0  0  0  0  0  0  0  0  0  0  0  0
    4.3751    2.2172    0.0000 H   0  0  0  0  0  0  0  0  0  0  0  0
    7.8064    2.3872    0.0000 H   0  0  0  0  0  0  0  0  0  0  0  0
    9.1037   -5.8535    0.0000 H   0  0  0  0  0  0  0  0  0  0  0  0
   11.1921   -3.9796    0.0000 H   0  0  0  0  0  0  0  0  0  0  0  0
    6.8848    3.4144    0.0000 H   0  0  0  0  0  0  0  0  0  0  0  0
    5.8819    0.3745    0.0000 H   0  0  0  0  0  0  0  0  0  0  0  0
   11.2490   -2.7462    0.0000 H   0  0  0  0  0  0  0  0  0  0  0  0
   10.1856   -7.0593    0.0000 H   0  0  0  0  0  0  0  0  0  0  0  0
   12.2740   -5.1854    0.0000 H   0  0  0  0  0  0  0  0  0  0  0  0
    4.8709   -1.0195    0.0000 H   0  0  0  0  0  0  0  0  0  0  0  0
    2.8660    1.9945    0.0000 H   0  0  0  0  0  0  0  0  0  0  0  0
    2.8660   -1.2455    0.0000 H   0  0  0  0  0  0  0  0  0  0  0  0
    1.4631    1.1845    0.0000 H   0  0  0  0  0  0  0  0  0  0  0  0
   11.5631   -7.4221    0.0000 H   0  0  0  0  0  0  0  0  0  0  0  0
   12.4386   -7.4695    0.0000 H   0  0  0  0  0  0  0  0  0  0  0  0
   12.4860   -6.5940    0.0000 H   0  0  0  0  0  0  0  0  0  0  0  0
    1.4631   -0.4355    0.0000 H   0  0  0  0  0  0  0  0  0  0  0  0
    3.7713    3.9796    0.0000 H   0  0  0  0  0  0  0  0  0  0  0  0
    5.8598    5.8535    0.0000 H   0  0  0  0  0  0  0  0  0  0  0  0
    2.6894    5.1854    0.0000 H   0  0  0  0  0  0  0  0  0  0  0  0
    4.7778    7.0593    0.0000 H   0  0  0  0  0  0  0  0  0  0  0  0
    3.4004    7.4221    0.0000 H   0  0  0  0  0  0  0  0  0  0  0  0
    2.5248    7.4695    0.0000 H   0  0  0  0  0  0  0  0  0  0  0  0
    2.4774    6.5940    0.0000 H   0  0  0  0  0  0  0  0  0  0  0  0
  1  3  2  0  0  0  0
  1  4  2  0  0  0  0
  1 10  1  0  0  0  0
  1 22  1  0  0  0  0
  2  8  2  0  0  0  0
  2  9  2  0  0  0  0
  2 12  1  0  0  0  0
  2 38  1  0  0  0  0
  5 20  1  0  0  0  0
  5 75  1  0  0  0  0
  6 20  2  0  0  0  0
  7 27  2  0  0  0  0
 14 10  1  1  0  0  0
 10 16  1  0  0  0  0
 11 21  1  0  0  0  0
 11 27  1  0  0  0  0
 11 70  1  0  0  0  0
 25 12  1  6  0  0  0
 12 73  1  0  0  0  0
 13 32  1  0  0  0  0
 13 33  1  0  0  0  0
 13 78  1  0  0  0  0
 14 15  1  0  0  0  0
 14 20  1  0  0  0  0
 14 49  1  0  0  0  0
 15 17  1  0  0  0  0
 15 50  1  0  0  0  0
 15 51  1  0  0  0  0
 16 18  1  0  0  0  0
 16 52  1  0  0  0  0
 16 53  1  0  0  0  0
 17 19  1  0  0  0  0
 17 54  1  0  0  0  0
 17 55  1  0  0  0  0
 18 23  1  0  0  0  0
 18 24  1  0  0  0  0
 18 56  1  0  0  0  0
 19 21  1  0  0  0  0
 19 57  1  0  0  0  0
 19 58  1  0  0  0  0
 21 59  1  0  0  0  0
 21 60  1  0  0  0  0
 22 29  2  0  0  0  0
 22 30  1  0  0  0  0
 23 61  1  0  0  0  0
 23 62  1  0  0  0  0
 23 63  1  0  0  0  0
 24 64  1  0  0  0  0
 24 65  1  0  0  0  0
 24 66  1  0  0  0  0
 25 26  1  0  0  0  0
 25 27  1  0  0  0  0
 25 67  1  0  0  0  0
 26 28  1  0  0  0  0
 26 68  1  0  0  0  0
 26 69  1  0  0  0  0
 28 31  1  0  0  0  0
 28 33  2  0  0  0  0
 29 34  1  0  0  0  0
 29 71  1  0  0  0  0
 30 35  2  0  0  0  0
 30 72  1  0  0  0  0
 31 32  1  0  0  0  0
 31 37  2  0  0  0  0
 32 39  2  0  0  0  0
 33 74  1  0  0  0  0
 34 36  2  0  0  0  0
 34 76  1  0  0  0  0
 35 36  1  0  0  0  0
 35 77  1  0  0  0  0
 36 40  1  0  0  0  0
 37 41  1  0  0  0  0
 37 79  1  0  0  0  0
 38 43  2  0  0  0  0
 38 44  1  0  0  0  0
 39 42  1  0  0  0  0
 39 80  1  0  0  0  0
 40 82  1  0  0  0  0
 40 83  1  0  0  0  0
 40 84  1  0  0  0  0
 41 42  2  0  0  0  0
 41 81  1  0  0  0  0
 42 85  1  0  0  0  0
 43 45  1  0  0  0  0
 43 86  1  0  0  0  0
 44 46  2  0  0  0  0
 44 87  1  0  0  0  0
 45 47  2  0  0  0  0
 45 88  1  0  0  0  0
 46 47  1  0  0  0  0
 46 89  1  0  0  0  0
 47 48  1  0  0  0  0
 48 90  1  0  0  0  0
 48 91  1  0  0  0  0
 48 92  1  0  0  0  0
M  END
> <PUBCHEM_COMPOUND_CID>
508527
> <PUBCHEM_COMPOUND_CANONICALIZED>
1
> <PUBCHEM_CACTVS_COMPLEXITY>
1250
> <PUBCHEM_CACTVS_HBOND_ACCEPTOR>
9
> <PUBCHEM_CACTVS_HBOND_DONOR>
4
> <PUBCHEM_CACTVS_ROTATABLE_BOND>
17
> <PUBCHEM_CACTVS_SUBSKEYS>
AAADcfB/uABgAAAAAAAAAAAAAAAAAWAAAAAwYMAAAAAAAFgB9AAAHgQQSAAADSjB3gQ+yfLJkgKoAzX3XHDCgDAxAiAI2bm4ZJgKYPLAkbGUYAhklgDYyAeYycCOkAAAAAACAAAgAAAAAAQAAAAAAAAAAA==
> <PUBCHEM_IUPAC_OPENEYE_NAME>
(2S)-6-[[(2S)-3-(1H-indol-3-yl)-2-(p-tolylsulfonylamino)propanoyl]amino]-2-[isobutyl(p-tolylsulfonyl)amino]hexanoic acid
> <PUBCHEM_IUPAC_CAS_NAME>
(2S)-6-[[(2S)-3-(1H-indol-3-yl)-2-[(4-methylphenyl)sulfonylamino]-1-oxopropyl]amino]-2-[(4-methylphenyl)sulfonyl-(2-methylpropyl)amino]hexanoic acid
> <PUBCHEM_IUPAC_NAME_MARKUP>
(2<I>S</I>)-6-[[(2<I>S</I>)-3-(1<I>H</I>-indol-3-yl)-2-[(4-methylphenyl)sulfonylamino]propanoyl]amino]-2-[(4-methylphenyl)sulfonyl-(2-methylpropyl)amino]hexanoic acid
> <PUBCHEM_IUPAC_NAME>
(2S)-6-[[(2S)-3-(1H-indol-3-yl)-2-[(4-methylphenyl)sulfonylamino]propanoyl]amino]-2-[(4-methylphenyl)sulfonyl-(2-methylpropyl)amino]hexanoic acid
> <PUBCHEM_IUPAC_SYSTEMATIC_NAME>
(2S)-6-[[(2S)-3-(1H-indol-3-yl)-2-[(4-methylphenyl)sulfonylamino]propanoyl]amino]-2-[(4-methylphenyl)sulfonyl-(2-methylpropyl)amino]hexanoic acid
> <PUBCHEM_IUPAC_TRADITIONAL_NAME>
(2S)-6-[[(2S)-3-(1H-indol-3-yl)-2-(tosylamino)propanoyl]amino]-2-[isobutyl(tosyl)amino]hexanoic acid
> <PUBCHEM_IUPAC_INCHI>
InChI=1S/C35H44N4O7S2/c1-24(2)23-39(48(45,46)29-18-14-26(4)15-19-29)33(35(41)42)11-7-8-20-36-34(40)32(21-27-22-37-31-10-6-5-9-30(27)31)38-47(43,44)28-16-12-25(3)13-17-28/h5-6,9-10,12-19,22,24,32-33,37-38H,7-8,11,20-21,23H2,1-4H3,(H,36,40)(H,41,42)/t32-,33-/m0/s1
> <PUBCHEM_IUPAC_INCHIKEY>
KCYYVQVWJAJCLZ-LQJZCPKCSA-N
> <PUBCHEM_XLOGP3_AA>
6
> <PUBCHEM_EXACT_MASS>
696.26514210
> <PUBCHEM_MOLECULAR_FORMULA>
C35H44N4O7S2
> <PUBCHEM_MOLECULAR_WEIGHT>
696.9
> <PUBCHEM_OPENEYE_CAN_SMILES>
CC1=CC=C(C=C1)S(=O)(=O)NC(CC2=CNC3=CC=CC=C32)C(=O)NCCCCC(C(=O)O)N(CC(C)C)S(=O)(=O)C4=CC=C(C=C4)C
> <PUBCHEM_OPENEYE_ISO_SMILES>
CC1=CC=C(C=C1)S(=O)(=O)N[C@@H](CC2=CNC3=CC=CC=C32)C(=O)NCCCC[C@@H](C(=O)O)N(CC(C)C)S(=O)(=O)C4=CC=C(C=C4)C
> <PUBCHEM_CACTVS_TPSA>
183
> <PUBCHEM_MONOISOTOPIC_WEIGHT>
696.26514210
> <PUBCHEM_TOTAL_CHARGE>
0
> <PUBCHEM_HEAVY_ATOM_COUNT>
48
> <PUBCHEM_ATOM_DEF_STEREO_COUNT>
2
> <PUBCHEM_ATOM_UDEF_STEREO_COUNT>
0
> <PUBCHEM_BOND_DEF_STEREO_COUNT>
0
> <PUBCHEM_BOND_UDEF_STEREO_COUNT>
0
> <PUBCHEM_ISOTOPIC_ATOM_COUNT>
0
> <PUBCHEM_COMPONENT_COUNT>
1
> <PUBCHEM_CACTVS_TAUTO_COUNT>
-1
> <PUBCHEM_COORDINATE_TYPE>
1
5
255
> <PUBCHEM_BONDANNOTATIONS>
14  10  5
25  12  6
13  32  8
13  33  8
22  29  8
22  30  8
28  31  8
28  33  8
29  34  8
30  35  8
31  32  8
31  37  8
32  39  8
34  36  8
35  36  8
37  41  8
38  43  8
38  44  8
39  42  8
41  42  8
43  45  8
44  46  8
45  47  8
46  47  8
$$$$
