508511
  -OEChem-10302200282D
 38 41  0     1  0  0  0  0  0999 V2000
    6.5358    1.1308    0.0000 O   0  0  0  0  0  0  0  0  0  0  0  0
    3.6023   -0.3980    0.0000 N   0  0  0  0  0  0  0  0  0  0  0  0
    7.0358    0.2647    0.0000 N   0  0  0  0  0  0  0  0  0  0  0  0
    2.1736    0.3616    0.0000 N   0  0  0  0  0  0  0  0  0  0  0  0
    4.5871   -0.5717    0.0000 C   0  0  3  0  0  0  0  0  0  0  0  0
    5.4531   -0.0717    0.0000 C   0  0  0  0  0  0  0  0  0  0  0  0
    4.5871   -1.5717    0.0000 C   0  0  0  0  0  0  0  0  0  0  0  0
    5.5576    0.9228    0.0000 C   0  0  0  0  0  0  0  0  0  0  0  0
    6.3667   -0.4784    0.0000 C   0  0  0  0  0  0  0  0  0  0  0  0
    3.7211   -2.0717    0.0000 C   0  0  0  0  0  0  0  0  0  0  0  0
    5.4531   -2.0717    0.0000 C   0  0  0  0  0  0  0  0  0  0  0  0
    2.8830   -1.0927    0.0000 C   0  0  0  0  0  0  0  0  0  0  0  0
    5.0882    1.8058    0.0000 C   0  0  0  0  0  0  0  0  0  0  0  0
    3.1639    0.5008    0.0000 C   0  0  0  0  0  0  0  0  0  0  0  0
    3.7211   -3.0717    0.0000 C   0  0  0  0  0  0  0  0  0  0  0  0
    5.4531   -3.0717    0.0000 C   0  0  0  0  0  0  0  0  0  0  0  0
    2.0000   -0.6232    0.0000 C   0  0  0  0  0  0  0  0  0  0  0  0
    4.0888    1.8407    0.0000 C   0  0  0  0  0  0  0  0  0  0  0  0
    5.6181    2.6538    0.0000 C   0  0  0  0  0  0  0  0  0  0  0  0
    4.5871   -3.5717    0.0000 C   0  0  0  0  0  0  0  0  0  0  0  0
    3.6193    2.7236    0.0000 C   0  0  0  0  0  0  0  0  0  0  0  0
    5.1486    3.5368    0.0000 C   0  0  0  0  0  0  0  0  0  0  0  0
    4.1492    3.5717    0.0000 C   0  0  0  0  0  0  0  0  0  0  0  0
    4.4794    0.0389    0.0000 H   0  0  0  0  0  0  0  0  0  0  0  0
    6.4956   -1.0849    0.0000 H   0  0  0  0  0  0  0  0  0  0  0  0
    3.1841   -1.7617    0.0000 H   0  0  0  0  0  0  0  0  0  0  0  0
    5.9901   -1.7617    0.0000 H   0  0  0  0  0  0  0  0  0  0  0  0
    2.9692   -1.7067    0.0000 H   0  0  0  0  0  0  0  0  0  0  0  0
    3.4550    1.0482    0.0000 H   0  0  0  0  0  0  0  0  0  0  0  0
    3.1841   -3.3817    0.0000 H   0  0  0  0  0  0  0  0  0  0  0  0
    5.9901   -3.3817    0.0000 H   0  0  0  0  0  0  0  0  0  0  0  0
    1.4428   -0.8950    0.0000 H   0  0  0  0  0  0  0  0  0  0  0  0
    3.7602    1.3149    0.0000 H   0  0  0  0  0  0  0  0  0  0  0  0
    6.2377    2.6322    0.0000 H   0  0  0  0  0  0  0  0  0  0  0  0
    4.5871   -4.1917    0.0000 H   0  0  0  0  0  0  0  0  0  0  0  0
    2.9997    2.7453    0.0000 H   0  0  0  0  0  0  0  0  0  0  0  0
    5.4772    4.0626    0.0000 H   0  0  0  0  0  0  0  0  0  0  0  0
    3.8582    4.1191    0.0000 H   0  0  0  0  0  0  0  0  0  0  0  0
  1  3  1  0  0  0  0
  1  8  1  0  0  0  0
  2  5  1  0  0  0  0
  2 12  1  0  0  0  0
  2 14  1  0  0  0  0
  3  9  2  0  0  0  0
  4 14  2  0  0  0  0
  4 17  1  0  0  0  0
  5  6  1  0  0  0  0
  5  7  1  0  0  0  0
  5 24  1  0  0  0  0
  6  8  2  0  0  0  0
  6  9  1  0  0  0  0
  7 10  2  0  0  0  0
  7 11  1  0  0  0  0
  8 13  1  0  0  0  0
  9 25  1  0  0  0  0
 10 15  1  0  0  0  0
 10 26  1  0  0  0  0
 11 16  2  0  0  0  0
 11 27  1  0  0  0  0
 12 17  2  0  0  0  0
 12 28  1  0  0  0  0
 13 18  2  0  0  0  0
 13 19  1  0  0  0  0
 14 29  1  0  0  0  0
 15 20  2  0  0  0  0
 15 30  1  0  0  0  0
 16 20  1  0  0  0  0
 16 31  1  0  0  0  0
 17 32  1  0  0  0  0
 18 21  1  0  0  0  0
 18 33  1  0  0  0  0
 19 22  2  0  0  0  0
 19 34  1  0  0  0  0
 20 35  1  0  0  0  0
 21 23  2  0  0  0  0
 21 36  1  0  0  0  0
 22 23  1  0  0  0  0
 22 37  1  0  0  0  0
 23 38  1  0  0  0  0
M  END
> <PUBCHEM_COMPOUND_CID>
508511
> <PUBCHEM_COMPOUND_CANONICALIZED>
1
> <PUBCHEM_CACTVS_COMPLEXITY>
366
> <PUBCHEM_CACTVS_HBOND_ACCEPTOR>
3
> <PUBCHEM_CACTVS_HBOND_DONOR>
0
> <PUBCHEM_CACTVS_ROTATABLE_BOND>
4
> <PUBCHEM_CACTVS_SUBSKEYS>
AAADccB7IAAAAAAAAAAAAAAAAAAAAWLAAAAwYAAAAAAAAAAB9AAAHgAEAAAADCzBmgQ9lJccEACpArB3ZgCCgC01MqAp2CE8fNqIbjqA3ZOUMYhuwAuIyeeYyOCOAAAAAAAAAAAAAAAAAAAAAAAAAAAAAA==
> <PUBCHEM_IUPAC_OPENEYE_NAME>
4-[imidazol-1-yl(phenyl)methyl]-5-phenyl-isoxazole
> <PUBCHEM_IUPAC_CAS_NAME>
4-[1-imidazolyl(phenyl)methyl]-5-phenylisoxazole
> <PUBCHEM_IUPAC_NAME_MARKUP>
4-[imidazol-1-yl(phenyl)methyl]-5-phenyl-1,2-oxazole
> <PUBCHEM_IUPAC_NAME>
4-[imidazol-1-yl(phenyl)methyl]-5-phenyl-1,2-oxazole
> <PUBCHEM_IUPAC_SYSTEMATIC_NAME>
4-[imidazol-1-yl(phenyl)methyl]-5-phenyl-1,2-oxazole
> <PUBCHEM_IUPAC_TRADITIONAL_NAME>
4-[imidazol-1-yl(phenyl)methyl]-5-phenyl-isoxazole
> <PUBCHEM_IUPAC_INCHI>
InChI=1S/C19H15N3O/c1-3-7-15(8-4-1)18(22-12-11-20-14-22)17-13-21-23-19(17)16-9-5-2-6-10-16/h1-14,18H
> <PUBCHEM_IUPAC_INCHIKEY>
HWNYRMWOYGQNQZ-UHFFFAOYSA-N
> <PUBCHEM_XLOGP3_AA>
3.4
> <PUBCHEM_EXACT_MASS>
301.121512110
> <PUBCHEM_MOLECULAR_FORMULA>
C19H15N3O
> <PUBCHEM_MOLECULAR_WEIGHT>
301.3
> <PUBCHEM_OPENEYE_CAN_SMILES>
C1=CC=C(C=C1)C2=C(C=NO2)C(C3=CC=CC=C3)N4C=CN=C4
> <PUBCHEM_OPENEYE_ISO_SMILES>
C1=CC=C(C=C1)C2=C(C=NO2)C(C3=CC=CC=C3)N4C=CN=C4
> <PUBCHEM_CACTVS_TPSA>
43.8
> <PUBCHEM_MONOISOTOPIC_WEIGHT>
301.121512110
> <PUBCHEM_TOTAL_CHARGE>
0
> <PUBCHEM_HEAVY_ATOM_COUNT>
23
> <PUBCHEM_ATOM_DEF_STEREO_COUNT>
0
> <PUBCHEM_ATOM_UDEF_STEREO_COUNT>
1
> <PUBCHEM_BOND_DEF_STEREO_COUNT>
0
> <PUBCHEM_BOND_UDEF_STEREO_COUNT>
0
> <PUBCHEM_ISOTOPIC_ATOM_COUNT>
0
> <PUBCHEM_COMPONENT_COUNT>
1
> <PUBCHEM_CACTVS_TAUTO_COUNT>
-1
> <PUBCHEM_COORDINATE_TYPE>
1
5
255
> <PUBCHEM_BONDANNOTATIONS>
1  3  8
1  8  8
10  15  8
11  16  8
12  17  8
13  18  8
13  19  8
15  20  8
16  20  8
18  21  8
19  22  8
2  12  8
2  14  8
21  23  8
22  23  8
3  9  8
4  14  8
4  17  8
5  7  3
6  8  8
6  9  8
7  10  8
7  11  8
$$$$
