508575
  -OEChem-10302200282D
 86 87  0     1  0  0  0  0  0999 V2000
    4.5981    0.0670    0.0000 S   0  0  0  0  0  0  0  0  0  0  0  0
    5.5981    0.0670    0.0000 O   0  0  0  0  0  0  0  0  0  0  0  0
    3.5981    0.0670    0.0000 O   0  0  0  0  0  0  0  0  0  0  0  0
    6.3301    3.0670    0.0000 O   0  0  0  0  0  0  0  0  0  0  0  0
    4.5981    3.0670    0.0000 O   0  0  0  0  0  0  0  0  0  0  0  0
   10.6603    2.5670    0.0000 O   0  0  0  0  0  0  0  0  0  0  0  0
   11.5263    3.0670    0.0000 O   0  0  0  0  0  0  0  0  0  0  0  0
    4.5981    1.0670    0.0000 N   0  0  3  0  0  0  0  0  0  0  0  0
    9.7942    1.0670    0.0000 N   0  0  0  0  0  0  0  0  0  0  0  0
   12.3923    1.5670    0.0000 N   0  0  0  0  0  0  0  0  0  0  0  0
    5.4641    1.5670    0.0000 C   0  0  1  0  0  0  0  0  0  0  0  0
    6.3301    1.0670    0.0000 C   0  0  0  0  0  0  0  0  0  0  0  0
    3.7320    1.5670    0.0000 C   0  0  0  0  0  0  0  0  0  0  0  0
    7.1962    1.5670    0.0000 C   0  0  0  0  0  0  0  0  0  0  0  0
    2.8660    1.0670    0.0000 C   0  0  0  0  0  0  0  0  0  0  0  0
    8.0622    1.0670    0.0000 C   0  0  0  0  0  0  0  0  0  0  0  0
    5.4641    2.5670    0.0000 C   0  0  0  0  0  0  0  0  0  0  0  0
    8.9282    1.5670    0.0000 C   0  0  0  0  0  0  0  0  0  0  0  0
    4.5981   -0.9330    0.0000 C   0  0  0  0  0  0  0  0  0  0  0  0
    2.0000    1.5670    0.0000 C   0  0  0  0  0  0  0  0  0  0  0  0
    2.8660    0.0670    0.0000 C   0  0  0  0  0  0  0  0  0  0  0  0
   11.5263    1.0670    0.0000 C   0  0  2  0  0  0  0  0  0  0  0  0
   13.2583    3.0670    0.0000 C   0  0  0  0  0  0  0  0  0  0  0  0
   10.6603    1.5670    0.0000 C   0  0  0  0  0  0  0  0  0  0  0  0
   11.5263    0.0670    0.0000 C   0  0  0  0  0  0  0  0  0  0  0  0
    3.7320   -1.4330    0.0000 C   0  0  0  0  0  0  0  0  0  0  0  0
    5.4641   -1.4330    0.0000 C   0  0  0  0  0  0  0  0  0  0  0  0
   12.3923    2.5670    0.0000 C   0  0  0  0  0  0  0  0  0  0  0  0
   14.1244    3.5670    0.0000 C   0  0  0  0  0  0  0  0  0  0  0  0
   12.7583    3.9330    0.0000 C   0  0  0  0  0  0  0  0  0  0  0  0
   13.7583    2.2010    0.0000 C   0  0  0  0  0  0  0  0  0  0  0  0
    3.7320   -2.4330    0.0000 C   0  0  0  0  0  0  0  0  0  0  0  0
    5.4641   -2.4330    0.0000 C   0  0  0  0  0  0  0  0  0  0  0  0
   12.3923   -0.4330    0.0000 C   0  0  0  0  0  0  0  0  0  0  0  0
    4.5981   -2.9330    0.0000 C   0  0  0  0  0  0  0  0  0  0  0  0
   13.2583    0.0670    0.0000 C   0  0  0  0  0  0  0  0  0  0  0  0
   12.3923   -1.4330    0.0000 C   0  0  0  0  0  0  0  0  0  0  0  0
    4.5981   -3.9330    0.0000 C   0  0  0  0  0  0  0  0  0  0  0  0
   14.1244   -0.4330    0.0000 C   0  0  0  0  0  0  0  0  0  0  0  0
   13.2583   -1.9330    0.0000 C   0  0  0  0  0  0  0  0  0  0  0  0
   14.1244   -1.4330    0.0000 C   0  0  0  0  0  0  0  0  0  0  0  0
    5.4641    0.9470    0.0000 H   0  0  0  0  0  0  0  0  0  0  0  0
    5.9316    0.5920    0.0000 H   0  0  0  0  0  0  0  0  0  0  0  0
    6.7287    0.5920    0.0000 H   0  0  0  0  0  0  0  0  0  0  0  0
    4.1306    2.0419    0.0000 H   0  0  0  0  0  0  0  0  0  0  0  0
    3.3335    2.0419    0.0000 H   0  0  0  0  0  0  0  0  0  0  0  0
    7.5947    2.0419    0.0000 H   0  0  0  0  0  0  0  0  0  0  0  0
    6.7976    2.0419    0.0000 H   0  0  0  0  0  0  0  0  0  0  0  0
    2.8660    1.6870    0.0000 H   0  0  0  0  0  0  0  0  0  0  0  0
    7.6636    0.5920    0.0000 H   0  0  0  0  0  0  0  0  0  0  0  0
    8.4607    0.5920    0.0000 H   0  0  0  0  0  0  0  0  0  0  0  0
    9.3267    2.0419    0.0000 H   0  0  0  0  0  0  0  0  0  0  0  0
    8.5297    2.0419    0.0000 H   0  0  0  0  0  0  0  0  0  0  0  0
    2.3100    2.1039    0.0000 H   0  0  0  0  0  0  0  0  0  0  0  0
    1.4631    1.8770    0.0000 H   0  0  0  0  0  0  0  0  0  0  0  0
    1.6900    1.0300    0.0000 H   0  0  0  0  0  0  0  0  0  0  0  0
    2.2460    0.0670    0.0000 H   0  0  0  0  0  0  0  0  0  0  0  0
    2.8660   -0.5530    0.0000 H   0  0  0  0  0  0  0  0  0  0  0  0
    3.4860    0.0670    0.0000 H   0  0  0  0  0  0  0  0  0  0  0  0
   12.0632    0.7570    0.0000 H   0  0  0  0  0  0  0  0  0  0  0  0
    9.7942    0.4470    0.0000 H   0  0  0  0  0  0  0  0  0  0  0  0
   10.9157    0.1746    0.0000 H   0  0  0  0  0  0  0  0  0  0  0  0
   11.3142   -0.5156    0.0000 H   0  0  0  0  0  0  0  0  0  0  0  0
    3.1951   -1.1230    0.0000 H   0  0  0  0  0  0  0  0  0  0  0  0
    6.0010   -1.1230    0.0000 H   0  0  0  0  0  0  0  0  0  0  0  0
   12.9292    1.2570    0.0000 H   0  0  0  0  0  0  0  0  0  0  0  0
   14.4344    3.0300    0.0000 H   0  0  0  0  0  0  0  0  0  0  0  0
   14.6613    3.8770    0.0000 H   0  0  0  0  0  0  0  0  0  0  0  0
   13.8144    4.1039    0.0000 H   0  0  0  0  0  0  0  0  0  0  0  0
   13.2953    4.2430    0.0000 H   0  0  0  0  0  0  0  0  0  0  0  0
   12.4483    4.4700    0.0000 H   0  0  0  0  0  0  0  0  0  0  0  0
   12.2214    3.6230    0.0000 H   0  0  0  0  0  0  0  0  0  0  0  0
   13.2214    1.8910    0.0000 H   0  0  0  0  0  0  0  0  0  0  0  0
   14.0683    1.6640    0.0000 H   0  0  0  0  0  0  0  0  0  0  0  0
   14.2953    2.5110    0.0000 H   0  0  0  0  0  0  0  0  0  0  0  0
    6.3301    3.6870    0.0000 H   0  0  0  0  0  0  0  0  0  0  0  0
    3.1951   -2.7430    0.0000 H   0  0  0  0  0  0  0  0  0  0  0  0
    6.0010   -2.7430    0.0000 H   0  0  0  0  0  0  0  0  0  0  0  0
   13.2583    0.6870    0.0000 H   0  0  0  0  0  0  0  0  0  0  0  0
   11.8554   -1.7430    0.0000 H   0  0  0  0  0  0  0  0  0  0  0  0
    3.9781   -3.9330    0.0000 H   0  0  0  0  0  0  0  0  0  0  0  0
    4.5981   -4.5530    0.0000 H   0  0  0  0  0  0  0  0  0  0  0  0
    5.2181   -3.9330    0.0000 H   0  0  0  0  0  0  0  0  0  0  0  0
   14.6613   -0.1230    0.0000 H   0  0  0  0  0  0  0  0  0  0  0  0
   13.2583   -2.5530    0.0000 H   0  0  0  0  0  0  0  0  0  0  0  0
   14.6613   -1.7430    0.0000 H   0  0  0  0  0  0  0  0  0  0  0  0
  1  2  2  0  0  0  0
  1  3  2  0  0  0  0
  1  8  1  0  0  0  0
  1 19  1  0  0  0  0
  4 17  1  0  0  0  0
  4 76  1  0  0  0  0
  5 17  2  0  0  0  0
  6 24  2  0  0  0  0
  7 28  2  0  0  0  0
 11  8  1  6  0  0  0
  8 13  1  0  0  0  0
  9 18  1  0  0  0  0
  9 24  1  0  0  0  0
  9 61  1  0  0  0  0
 22 10  1  1  0  0  0
 10 28  1  0  0  0  0
 10 66  1  0  0  0  0
 11 12  1  0  0  0  0
 11 17  1  0  0  0  0
 11 42  1  0  0  0  0
 12 14  1  0  0  0  0
 12 43  1  0  0  0  0
 12 44  1  0  0  0  0
 13 15  1  0  0  0  0
 13 45  1  0  0  0  0
 13 46  1  0  0  0  0
 14 16  1  0  0  0  0
 14 47  1  0  0  0  0
 14 48  1  0  0  0  0
 15 20  1  0  0  0  0
 15 21  1  0  0  0  0
 15 49  1  0  0  0  0
 16 18  1  0  0  0  0
 16 50  1  0  0  0  0
 16 51  1  0  0  0  0
 18 52  1  0  0  0  0
 18 53  1  0  0  0  0
 19 26  2  0  0  0  0
 19 27  1  0  0  0  0
 20 54  1  0  0  0  0
 20 55  1  0  0  0  0
 20 56  1  0  0  0  0
 21 57  1  0  0  0  0
 21 58  1  0  0  0  0
 21 59  1  0  0  0  0
 22 24  1  0  0  0  0
 22 25  1  0  0  0  0
 22 60  1  0  0  0  0
 23 28  1  0  0  0  0
 23 29  1  0  0  0  0
 23 30  1  0  0  0  0
 23 31  1  0  0  0  0
 25 34  1  0  0  0  0
 25 62  1  0  0  0  0
 25 63  1  0  0  0  0
 26 32  1  0  0  0  0
 26 64  1  0  0  0  0
 27 33  2  0  0  0  0
 27 65  1  0  0  0  0
 29 67  1  0  0  0  0
 29 68  1  0  0  0  0
 29 69  1  0  0  0  0
 30 70  1  0  0  0  0
 30 71  1  0  0  0  0
 30 72  1  0  0  0  0
 31 73  1  0  0  0  0
 31 74  1  0  0  0  0
 31 75  1  0  0  0  0
 32 35  2  0  0  0  0
 32 77  1  0  0  0  0
 33 35  1  0  0  0  0
 33 78  1  0  0  0  0
 34 36  2  0  0  0  0
 34 37  1  0  0  0  0
 35 38  1  0  0  0  0
 36 39  1  0  0  0  0
 36 79  1  0  0  0  0
 37 40  2  0  0  0  0
 37 80  1  0  0  0  0
 38 81  1  0  0  0  0
 38 82  1  0  0  0  0
 38 83  1  0  0  0  0
 39 41  2  0  0  0  0
 39 84  1  0  0  0  0
 40 41  1  0  0  0  0
 40 85  1  0  0  0  0
 41 86  1  0  0  0  0
M  END
> <PUBCHEM_COMPOUND_CID>
508575
> <PUBCHEM_COMPOUND_CANONICALIZED>
1
> <PUBCHEM_CACTVS_COMPLEXITY>
942
> <PUBCHEM_CACTVS_HBOND_ACCEPTOR>
7
> <PUBCHEM_CACTVS_HBOND_DONOR>
3
> <PUBCHEM_CACTVS_ROTATABLE_BOND>
16
> <PUBCHEM_CACTVS_SUBSKEYS>
AAADcfB7OABAAAAAAAAAAAAAAAAAAAAAAAAwYAAAAAAAAAABQAAAHgQQSAAADyjB2AQyCYLAAgKIAiHSGHBCABAgAAAIiJmIAIgKYDKAkTGUYAAklgCYiAeYyICOEAAAAAAAAAAgAAAAAAAAAAAAAAAAAA==
> <PUBCHEM_IUPAC_OPENEYE_NAME>
(2S)-6-[[(2S)-2-(2,2-dimethylpropanoylamino)-3-phenyl-propanoyl]amino]-2-[isobutyl(p-tolylsulfonyl)amino]hexanoic acid
> <PUBCHEM_IUPAC_CAS_NAME>
(2S)-6-[[(2S)-2-[(2,2-dimethyl-1-oxopropyl)amino]-1-oxo-3-phenylpropyl]amino]-2-[(4-methylphenyl)sulfonyl-(2-methylpropyl)amino]hexanoic acid
> <PUBCHEM_IUPAC_NAME_MARKUP>
(2<I>S</I>)-6-[[(2<I>S</I>)-2-(2,2-dimethylpropanoylamino)-3-phenylpropanoyl]amino]-2-[(4-methylphenyl)sulfonyl-(2-methylpropyl)amino]hexanoic acid
> <PUBCHEM_IUPAC_NAME>
(2S)-6-[[(2S)-2-(2,2-dimethylpropanoylamino)-3-phenylpropanoyl]amino]-2-[(4-methylphenyl)sulfonyl-(2-methylpropyl)amino]hexanoic acid
> <PUBCHEM_IUPAC_SYSTEMATIC_NAME>
(2S)-6-[[(2S)-2-(2,2-dimethylpropanoylamino)-3-phenyl-propanoyl]amino]-2-[(4-methylphenyl)sulfonyl-(2-methylpropyl)amino]hexanoic acid
> <PUBCHEM_IUPAC_TRADITIONAL_NAME>
(2S)-2-[isobutyl(tosyl)amino]-6-[[(2S)-3-phenyl-2-(pivaloylamino)propanoyl]amino]hexanoic acid
> <PUBCHEM_IUPAC_INCHI>
InChI=1S/C31H45N3O6S/c1-22(2)21-34(41(39,40)25-17-15-23(3)16-18-25)27(29(36)37)14-10-11-19-32-28(35)26(33-30(38)31(4,5)6)20-24-12-8-7-9-13-24/h7-9,12-13,15-18,22,26-27H,10-11,14,19-21H2,1-6H3,(H,32,35)(H,33,38)(H,36,37)/t26-,27-/m0/s1
> <PUBCHEM_IUPAC_INCHIKEY>
VVHJOISDFYDJHE-SVBPBHIXSA-N
> <PUBCHEM_XLOGP3_AA>
5.5
> <PUBCHEM_EXACT_MASS>
587.30290734
> <PUBCHEM_MOLECULAR_FORMULA>
C31H45N3O6S
> <PUBCHEM_MOLECULAR_WEIGHT>
587.8
> <PUBCHEM_OPENEYE_CAN_SMILES>
CC1=CC=C(C=C1)S(=O)(=O)N(CC(C)C)C(CCCCNC(=O)C(CC2=CC=CC=C2)NC(=O)C(C)(C)C)C(=O)O
> <PUBCHEM_OPENEYE_ISO_SMILES>
CC1=CC=C(C=C1)S(=O)(=O)N(CC(C)C)[C@@H](CCCCNC(=O)[C@H](CC2=CC=CC=C2)NC(=O)C(C)(C)C)C(=O)O
> <PUBCHEM_CACTVS_TPSA>
141
> <PUBCHEM_MONOISOTOPIC_WEIGHT>
587.30290734
> <PUBCHEM_TOTAL_CHARGE>
0
> <PUBCHEM_HEAVY_ATOM_COUNT>
41
> <PUBCHEM_ATOM_DEF_STEREO_COUNT>
2
> <PUBCHEM_ATOM_UDEF_STEREO_COUNT>
0
> <PUBCHEM_BOND_DEF_STEREO_COUNT>
0
> <PUBCHEM_BOND_UDEF_STEREO_COUNT>
0
> <PUBCHEM_ISOTOPIC_ATOM_COUNT>
0
> <PUBCHEM_COMPONENT_COUNT>
1
> <PUBCHEM_CACTVS_TAUTO_COUNT>
-1
> <PUBCHEM_COORDINATE_TYPE>
1
5
255
> <PUBCHEM_BONDANNOTATIONS>
22  10  5
19  26  8
19  27  8
26  32  8
27  33  8
32  35  8
33  35  8
34  36  8
34  37  8
36  39  8
37  40  8
39  41  8
40  41  8
11  8  6
$$$$
