508525
  -OEChem-10302200282D
121126  0     1  0  0  0  0  0999 V2000
    6.1507    5.2614    0.0000 O   0  0  0  0  0  0  0  0  0  0  0  0
    4.7988    3.8380    0.0000 O   0  0  0  0  0  0  0  0  0  0  0  0
    8.7291    7.5748    0.0000 O   0  0  0  0  0  0  0  0  0  0  0  0
    7.2486   15.2905    0.0000 O   0  0  0  0  0  0  0  0  0  0  0  0
    5.1722    5.0551    0.0000 O   0  0  0  0  0  0  0  0  0  0  0  0
    8.5219   13.6350    0.0000 O   0  0  0  0  0  0  0  0  0  0  0  0
    8.1716   16.8783    0.0000 O   0  0  0  0  0  0  0  0  0  0  0  0
    6.4396   19.8783    0.0000 O   0  0  0  0  0  0  0  0  0  0  0  0
    8.1077    5.6738    0.0000 N   0  0  3  0  0  0  0  0  0  0  0  0
    9.4434    4.1852    0.0000 N   0  0  3  0  0  0  0  0  0  0  0  0
    3.5259    5.5932    0.0000 N   0  0  0  0  0  0  0  0  0  0  0  0
   10.3754    7.0368    0.0000 N   0  0  0  0  0  0  0  0  0  0  0  0
    6.4396   16.8783    0.0000 N   0  0  0  0  0  0  0  0  0  0  0  0
    5.3518   13.5304    0.0000 N   0  0  0  0  0  0  0  0  0  0  0  0
    8.5114    1.3336    0.0000 N   0  0  0  0  0  0  0  0  0  0  0  0
    7.3056   18.3783    0.0000 N   0  0  0  0  0  0  0  0  0  0  0  0
    4.3572   13.6350    0.0000 N   0  3  0  0  0  0  0  0  0  0  0  0
    3.3627   13.7395    0.0000 N   0  5  0  0  0  0  0  0  0  0  0  0
    9.0862    5.8800    0.0000 C   0  0  1  0  0  0  0  0  0  0  0  0
    9.7541    5.1357    0.0000 C   0  0  0  0  0  0  0  0  0  0  0  0
    7.7971    4.7233    0.0000 C   0  0  0  0  0  0  0  0  0  0  0  0
    7.4399    6.4181    0.0000 C   0  0  0  0  0  0  0  0  0  0  0  0
    8.4649    3.9790    0.0000 C   0  0  0  0  0  0  0  0  0  0  0  0
    6.4614    6.2119    0.0000 C   0  0  2  0  0  0  0  0  0  0  0  0
    5.7935    6.9562    0.0000 C   0  0  0  0  0  0  0  0  0  0  0  0
    4.8150    6.7500    0.0000 C   0  0  2  0  0  0  0  0  0  0  0  0
    3.2152    4.6427    0.0000 C   0  0  2  0  0  0  0  0  0  0  0  0
    9.3969    6.8305    0.0000 C   0  0  0  0  0  0  0  0  0  0  0  0
   10.1113    3.4409    0.0000 C   0  0  0  0  0  0  0  0  0  0  0  0
    3.7988    3.8380    0.0000 C   0  0  1  0  0  0  0  0  0  0  0  0
    3.2152    3.0332    0.0000 C   0  0  0  0  0  0  0  0  0  0  0  0
    2.2690    4.3380    0.0000 C   0  0  0  0  0  0  0  0  0  0  0  0
    4.1472    7.4943    0.0000 C   0  0  0  0  0  0  0  0  0  0  0  0
    4.5044    5.7994    0.0000 C   0  0  0  0  0  0  0  0  0  0  0  0
    2.2690    3.3380    0.0000 C   0  0  0  0  0  0  0  0  0  0  0  0
   11.0433    6.2924    0.0000 C   0  0  0  0  0  0  0  0  0  0  0  0
    9.8006    2.4904    0.0000 C   0  0  0  0  0  0  0  0  0  0  0  0
    5.9396   14.3394    0.0000 C   0  0  2  0  0  0  0  0  0  0  0  0
    4.4579    8.4448    0.0000 C   0  0  0  0  0  0  0  0  0  0  0  0
    6.9396   14.3394    0.0000 C   0  0  1  0  0  0  0  0  0  0  0  0
    5.6305   15.2905    0.0000 C   0  0  0  0  0  0  0  0  0  0  0  0
    1.4030    4.8380    0.0000 C   0  0  0  0  0  0  0  0  0  0  0  0
    6.4396   15.8783    0.0000 C   0  0  1  0  0  0  0  0  0  0  0  0
    1.4030    2.8380    0.0000 C   0  0  0  0  0  0  0  0  0  0  0  0
   11.7111    5.5481    0.0000 C   0  0  0  0  0  0  0  0  0  0  0  0
   11.7876    6.9603    0.0000 C   0  0  0  0  0  0  0  0  0  0  0  0
   10.2990    5.6246    0.0000 C   0  0  0  0  0  0  0  0  0  0  0  0
    0.5369    4.3380    0.0000 C   0  0  0  0  0  0  0  0  0  0  0  0
    0.5369    3.3380    0.0000 C   0  0  0  0  0  0  0  0  0  0  0  0
   10.4684    1.7461    0.0000 C   0  0  0  0  0  0  0  0  0  0  0  0
    7.5273   13.5304    0.0000 C   0  0  0  0  0  0  0  0  0  0  0  0
    8.8221    2.2841    0.0000 C   0  0  0  0  0  0  0  0  0  0  0  0
    5.4364    8.6510    0.0000 C   0  0  0  0  0  0  0  0  0  0  0  0
    3.7900    9.1891    0.0000 C   0  0  0  0  0  0  0  0  0  0  0  0
   10.1578    0.7955    0.0000 C   0  0  0  0  0  0  0  0  0  0  0  0
    7.3056   17.3783    0.0000 C   0  0  0  0  0  0  0  0  0  0  0  0
    5.5735   17.3783    0.0000 C   0  0  0  0  0  0  0  0  0  0  0  0
    5.7470    9.6015    0.0000 C   0  0  0  0  0  0  0  0  0  0  0  0
    4.1007   10.1396    0.0000 C   0  0  0  0  0  0  0  0  0  0  0  0
    9.1793    0.5893    0.0000 C   0  0  0  0  0  0  0  0  0  0  0  0
    5.0792   10.3458    0.0000 C   0  0  0  0  0  0  0  0  0  0  0  0
    5.5735   18.3783    0.0000 C   0  0  0  0  0  0  0  0  0  0  0  0
    6.4396   18.8783    0.0000 C   0  0  0  0  0  0  0  0  0  0  0  0
    8.6722    6.3415    0.0000 H   0  0  0  0  0  0  0  0  0  0  0  0
   10.3010    4.8437    0.0000 H   0  0  0  0  0  0  0  0  0  0  0  0
   10.1366    5.6236    0.0000 H   0  0  0  0  0  0  0  0  0  0  0  0
    7.2502    5.0153    0.0000 H   0  0  0  0  0  0  0  0  0  0  0  0
    7.4145    4.2354    0.0000 H   0  0  0  0  0  0  0  0  0  0  0  0
    7.9662    6.7457    0.0000 H   0  0  0  0  0  0  0  0  0  0  0  0
    7.2086    6.9934    0.0000 H   0  0  0  0  0  0  0  0  0  0  0  0
    7.9386    3.6513    0.0000 H   0  0  0  0  0  0  0  0  0  0  0  0
    8.6962    3.4037    0.0000 H   0  0  0  0  0  0  0  0  0  0  0  0
    6.8754    5.7504    0.0000 H   0  0  0  0  0  0  0  0  0  0  0  0
    6.3199    7.2838    0.0000 H   0  0  0  0  0  0  0  0  0  0  0  0
    5.5623    7.5314    0.0000 H   0  0  0  0  0  0  0  0  0  0  0  0
    5.2291    6.2885    0.0000 H   0  0  0  0  0  0  0  0  0  0  0  0
    3.8277    4.7389    0.0000 H   0  0  0  0  0  0  0  0  0  0  0  0
   10.6582    3.1489    0.0000 H   0  0  0  0  0  0  0  0  0  0  0  0
   10.4938    3.9288    0.0000 H   0  0  0  0  0  0  0  0  0  0  0  0
    4.0805    3.2857    0.0000 H   0  0  0  0  0  0  0  0  0  0  0  0
    2.9642    2.4663    0.0000 H   0  0  0  0  0  0  0  0  0  0  0  0
    3.7526    2.7240    0.0000 H   0  0  0  0  0  0  0  0  0  0  0  0
    3.6003    7.7863    0.0000 H   0  0  0  0  0  0  0  0  0  0  0  0
    3.7646    7.0064    0.0000 H   0  0  0  0  0  0  0  0  0  0  0  0
    3.1118    6.0547    0.0000 H   0  0  0  0  0  0  0  0  0  0  0  0
   10.5680    7.6261    0.0000 H   0  0  0  0  0  0  0  0  0  0  0  0
    6.5648    4.7999    0.0000 H   0  0  0  0  0  0  0  0  0  0  0  0
    5.3272   14.4364    0.0000 H   0  0  0  0  0  0  0  0  0  0  0  0
    7.5519   14.4364    0.0000 H   0  0  0  0  0  0  0  0  0  0  0  0
    5.3205   15.8274    0.0000 H   0  0  0  0  0  0  0  0  0  0  0  0
    5.0641   15.0383    0.0000 H   0  0  0  0  0  0  0  0  0  0  0  0
    5.8871   16.1598    0.0000 H   0  0  0  0  0  0  0  0  0  0  0  0
    1.4030    5.4580    0.0000 H   0  0  0  0  0  0  0  0  0  0  0  0
    1.4030    2.2180    0.0000 H   0  0  0  0  0  0  0  0  0  0  0  0
   11.2496    5.1341    0.0000 H   0  0  0  0  0  0  0  0  0  0  0  0
   12.1252    5.0867    0.0000 H   0  0  0  0  0  0  0  0  0  0  0  0
   12.1726    5.9622    0.0000 H   0  0  0  0  0  0  0  0  0  0  0  0
   12.2016    6.4988    0.0000 H   0  0  0  0  0  0  0  0  0  0  0  0
   12.2490    7.3744    0.0000 H   0  0  0  0  0  0  0  0  0  0  0  0
   11.3735    7.4218    0.0000 H   0  0  0  0  0  0  0  0  0  0  0  0
    9.8849    6.0861    0.0000 H   0  0  0  0  0  0  0  0  0  0  0  0
    9.8375    5.2105    0.0000 H   0  0  0  0  0  0  0  0  0  0  0  0
   10.7130    5.1631    0.0000 H   0  0  0  0  0  0  0  0  0  0  0  0
    5.1088    3.3010    0.0000 H   0  0  0  0  0  0  0  0  0  0  0  0
    0.0000    4.6480    0.0000 H   0  0  0  0  0  0  0  0  0  0  0  0
    0.0000    3.0280    0.0000 H   0  0  0  0  0  0  0  0  0  0  0  0
   11.0751    1.8739    0.0000 H   0  0  0  0  0  0  0  0  0  0  0  0
    6.9701   13.2586    0.0000 H   0  0  0  0  0  0  0  0  0  0  0  0
    7.6982   12.9344    0.0000 H   0  0  0  0  0  0  0  0  0  0  0  0
    8.4080    2.7456    0.0000 H   0  0  0  0  0  0  0  0  0  0  0  0
    5.8504    8.1895    0.0000 H   0  0  0  0  0  0  0  0  0  0  0  0
    3.1833    9.0612    0.0000 H   0  0  0  0  0  0  0  0  0  0  0  0
   10.5718    0.3341    0.0000 H   0  0  0  0  0  0  0  0  0  0  0  0
    5.0366   17.0683    0.0000 H   0  0  0  0  0  0  0  0  0  0  0  0
    6.3537    9.7294    0.0000 H   0  0  0  0  0  0  0  0  0  0  0  0
    3.6866   10.6011    0.0000 H   0  0  0  0  0  0  0  0  0  0  0  0
    8.9867    0.0000    0.0000 H   0  0  0  0  0  0  0  0  0  0  0  0
    5.2718   10.9351    0.0000 H   0  0  0  0  0  0  0  0  0  0  0  0
    8.8863   13.1334    0.0000 H   0  0  0  0  0  0  0  0  0  0  0  0
    7.8425   18.6883    0.0000 H   0  0  0  0  0  0  0  0  0  0  0  0
    5.0366   18.6883    0.0000 H   0  0  0  0  0  0  0  0  0  0  0  0
 24  1  1  1  0  0  0
  1 87  1  0  0  0  0
 30  2  1  6  0  0  0
  2104  1  0  0  0  0
  3 28  2  0  0  0  0
  4 40  1  0  0  0  0
  4 43  1  0  0  0  0
  5 34  2  0  0  0  0
  6 51  1  0  0  0  0
  6119  1  0  0  0  0
  7 56  2  0  0  0  0
  8 63  2  0  0  0  0
  9 19  1  0  0  0  0
  9 21  1  0  0  0  0
  9 22  1  0  0  0  0
 10 20  1  0  0  0  0
 10 23  1  0  0  0  0
 10 29  1  0  0  0  0
 27 11  1  6  0  0  0
 11 34  1  0  0  0  0
 11 85  1  0  0  0  0
 12 28  1  0  0  0  0
 12 36  1  0  0  0  0
 12 86  1  0  0  0  0
 43 13  1  6  0  0  0
 13 56  1  0  0  0  0
 13 57  1  0  0  0  0
 14 17  2  0  0  0  0
 38 14  1  1  0  0  0
 15 52  1  0  0  0  0
 15 60  2  0  0  0  0
 16 56  1  0  0  0  0
 16 63  1  0  0  0  0
 16120  1  0  0  0  0
 17 18  2  0  0  0  0
 19 20  1  0  0  0  0
 19 28  1  6  0  0  0
 19 64  1  0  0  0  0
 20 65  1  0  0  0  0
 20 66  1  0  0  0  0
 21 23  1  0  0  0  0
 21 67  1  0  0  0  0
 21 68  1  0  0  0  0
 22 24  1  0  0  0  0
 22 69  1  0  0  0  0
 22 70  1  0  0  0  0
 23 71  1  0  0  0  0
 23 72  1  0  0  0  0
 24 25  1  0  0  0  0
 24 73  1  0  0  0  0
 26 25  1  1  0  0  0
 25 74  1  0  0  0  0
 25 75  1  0  0  0  0
 26 33  1  0  0  0  0
 26 34  1  0  0  0  0
 26 76  1  0  0  0  0
 27 30  1  0  0  0  0
 27 32  1  0  0  0  0
 27 77  1  0  0  0  0
 29 37  1  0  0  0  0
 29 78  1  0  0  0  0
 29 79  1  0  0  0  0
 30 31  1  0  0  0  0
 30 80  1  0  0  0  0
 31 35  1  0  0  0  0
 31 81  1  0  0  0  0
 31 82  1  0  0  0  0
 32 35  1  0  0  0  0
 32 42  2  0  0  0  0
 33 39  1  0  0  0  0
 33 83  1  0  0  0  0
 33 84  1  0  0  0  0
 35 44  2  0  0  0  0
 36 45  1  0  0  0  0
 36 46  1  0  0  0  0
 36 47  1  0  0  0  0
 37 50  1  0  0  0  0
 37 52  2  0  0  0  0
 38 40  1  0  0  0  0
 38 41  1  0  0  0  0
 38 88  1  0  0  0  0
 39 53  2  0  0  0  0
 39 54  1  0  0  0  0
 40 51  1  6  0  0  0
 40 89  1  0  0  0  0
 41 43  1  0  0  0  0
 41 90  1  0  0  0  0
 41 91  1  0  0  0  0
 42 48  1  0  0  0  0
 42 93  1  0  0  0  0
 43 92  1  0  0  0  0
 44 49  1  0  0  0  0
 44 94  1  0  0  0  0
 45 95  1  0  0  0  0
 45 96  1  0  0  0  0
 45 97  1  0  0  0  0
 46 98  1  0  0  0  0
 46 99  1  0  0  0  0
 46100  1  0  0  0  0
 47101  1  0  0  0  0
 47102  1  0  0  0  0
 47103  1  0  0  0  0
 48 49  2  0  0  0  0
 48105  1  0  0  0  0
 49106  1  0  0  0  0
 50 55  2  0  0  0  0
 50107  1  0  0  0  0
 51108  1  0  0  0  0
 51109  1  0  0  0  0
 52110  1  0  0  0  0
 53 58  1  0  0  0  0
 53111  1  0  0  0  0
 54 59  2  0  0  0  0
 54112  1  0  0  0  0
 55 60  1  0  0  0  0
 55113  1  0  0  0  0
 57 62  2  0  0  0  0
 57114  1  0  0  0  0
 58 61  2  0  0  0  0
 58115  1  0  0  0  0
 59 61  1  0  0  0  0
 59116  1  0  0  0  0
 60117  1  0  0  0  0
 61118  1  0  0  0  0
 62 63  1  0  0  0  0
 62121  1  0  0  0  0
M  CHG  2  17   1  18  -1
M  END
> <PUBCHEM_COMPOUND_CID>
508525
> <PUBCHEM_COMPOUND_CANONICALIZED>
1
> <PUBCHEM_CACTVS_COMPLEXITY>
1400
> <PUBCHEM_CACTVS_HBOND_ACCEPTOR>
13
> <PUBCHEM_CACTVS_HBOND_DONOR>
6
> <PUBCHEM_CACTVS_ROTATABLE_BOND>
15
> <PUBCHEM_CACTVS_SUBSKEYS>
AAADcfB//AAAAAAAAAAAAAAAAAAAAaIAAAA8eIECAAAAAGAB0AAAHgAYCAAADbzhmgY/gJPIFgCqAjF3VACCgCAxAiAI2KG4ZNiLcPrA0bGfYAhu1yPbyMe6+fKOgAAAAAAQAAAAAAAAACAAAKAACQgAAA==
> <PUBCHEM_IUPAC_OPENEYE_NAME>
1-[(2R,4S,5S)-4-azido-5-(hydroxymethyl)tetrahydrofuran-2-yl]pyrimidine-2,4-dione;(2S)-1-[(2S,4S)-4-benzyl-2-hydroxy-5-[[(1S,2R)-2-hydroxyindan-1-yl]amino]-5-oxo-pentyl]-N-tert-butyl-4-(3-pyridylmethyl)piperazine-2-carboxamide
> <PUBCHEM_IUPAC_CAS_NAME>
1-[(2R,4S,5S)-4-azido-5-(hydroxymethyl)-2-oxolanyl]pyrimidine-2,4-dione;(2S)-N-tert-butyl-1-[(2S,4S)-2-hydroxy-5-[[(1S,2R)-2-hydroxy-2,3-dihydro-1H-inden-1-yl]amino]-5-oxo-4-(phenylmethyl)pentyl]-4-(3-pyridinylmethyl)-2-piperazinecarboxamide
> <PUBCHEM_IUPAC_NAME_MARKUP>
1-[(2<I>R</I>,4<I>S</I>,5<I>S</I>)-4-azido-5-(hydroxymethyl)oxolan-2-yl]pyrimidine-2,4-dione;(2<I>S</I>)-1-[(2<I>S</I>,4<I>S</I>)-4-benzyl-2-hydroxy-5-[[(1<I>S</I>,2<I>R</I>)-2-hydroxy-2,3-dihydro-1<I>H</I>-inden-1-yl]amino]-5-oxopentyl]-<I>N</I>-<I>tert</I>-butyl-4-(pyridin-3-ylmethyl)piperazine-2-carboxamide
> <PUBCHEM_IUPAC_NAME>
1-[(2R,4S,5S)-4-azido-5-(hydroxymethyl)oxolan-2-yl]pyrimidine-2,4-dione;(2S)-1-[(2S,4S)-4-benzyl-2-hydroxy-5-[[(1S,2R)-2-hydroxy-2,3-dihydro-1H-inden-1-yl]amino]-5-oxopentyl]-N-tert-butyl-4-(pyridin-3-ylmethyl)piperazine-2-carboxamide
> <PUBCHEM_IUPAC_SYSTEMATIC_NAME>
1-[(2R,4S,5S)-4-azido-5-(hydroxymethyl)oxolan-2-yl]pyrimidine-2,4-dione;(2S)-N-tert-butyl-1-[(2S,4S)-2-oxidanyl-5-[[(1S,2R)-2-oxidanyl-2,3-dihydro-1H-inden-1-yl]amino]-5-oxidanylidene-4-(phenylmethyl)pentyl]-4-(pyridin-3-ylmethyl)piperazine-2-carboxamide
> <PUBCHEM_IUPAC_TRADITIONAL_NAME>
1-[(2R,4S,5S)-4-azido-5-methylol-tetrahydrofuran-2-yl]pyrimidine-2,4-quinone;(2S)-1-[(2S,4S)-4-benzyl-2-hydroxy-5-[[(1S,2R)-2-hydroxyindan-1-yl]amino]-5-keto-pentyl]-N-tert-butyl-4-(3-pyridylmethyl)piperazine-2-carboxamide
> <PUBCHEM_IUPAC_INCHI>
InChI=1S/C36H47N5O4.C9H11N5O4/c1-36(2,3)39-35(45)31-24-40(22-26-12-9-15-37-21-26)16-17-41(31)23-29(42)19-28(18-25-10-5-4-6-11-25)34(44)38-33-30-14-8-7-13-27(30)20-32(33)43;10-13-12-5-3-8(18-6(5)4-15)14-2-1-7(16)11-9(14)17/h4-15,21,28-29,31-33,42-43H,16-20,22-24H2,1-3H3,(H,38,44)(H,39,45);1-2,5-6,8,15H,3-4H2,(H,11,16,17)/t28-,29-,31-,32+,33-;5-,6+,8+/m00/s1
> <PUBCHEM_IUPAC_INCHIKEY>
XUKKTTJDCIQEGY-NBOBGJFCSA-N
> <PUBCHEM_EXACT_MASS>
866.44390885
> <PUBCHEM_MOLECULAR_FORMULA>
C45H58N10O8
> <PUBCHEM_MOLECULAR_WEIGHT>
867.0
> <PUBCHEM_OPENEYE_CAN_SMILES>
CC(C)(C)NC(=O)C1CN(CCN1CC(CC(CC2=CC=CC=C2)C(=O)NC3C(CC4=CC=CC=C34)O)O)CC5=CN=CC=C5.C1C(C(OC1N2C=CC(=O)NC2=O)CO)N=[N+]=[N-]
> <PUBCHEM_OPENEYE_ISO_SMILES>
CC(C)(C)NC(=O)[C@@H]1CN(CCN1C[C@H](C[C@H](CC2=CC=CC=C2)C(=O)N[C@@H]3[C@@H](CC4=CC=CC=C34)O)O)CC5=CN=CC=C5.C1[C@@H]([C@H](O[C@H]1N2C=CC(=O)NC2=O)CO)N=[N+]=[N-]
> <PUBCHEM_CACTVS_TPSA>
211
> <PUBCHEM_MONOISOTOPIC_WEIGHT>
866.44390885
> <PUBCHEM_TOTAL_CHARGE>
0
> <PUBCHEM_HEAVY_ATOM_COUNT>
63
> <PUBCHEM_ATOM_DEF_STEREO_COUNT>
8
> <PUBCHEM_ATOM_UDEF_STEREO_COUNT>
0
> <PUBCHEM_BOND_DEF_STEREO_COUNT>
0
> <PUBCHEM_BOND_UDEF_STEREO_COUNT>
0
> <PUBCHEM_ISOTOPIC_ATOM_COUNT>
0
> <PUBCHEM_COMPONENT_COUNT>
2
> <PUBCHEM_CACTVS_TAUTO_COUNT>
-1
> <PUBCHEM_COORDINATE_TYPE>
1
5
255
> <PUBCHEM_BONDANNOTATIONS>
24  1  5
27  11  6
43  13  6
13  56  8
13  57  8
38  14  5
15  52  8
15  60  8
16  56  8
16  63  8
19  28  6
30  2  6
26  25  5
32  35  8
32  42  8
35  44  8
37  50  8
37  52  8
39  53  8
39  54  8
40  51  6
42  48  8
44  49  8
48  49  8
50  55  8
53  58  8
54  59  8
55  60  8
57  62  8
58  61  8
59  61  8
62  63  8
$$$$
