508502
  -OEChem-10302200282D
115115  0     1  0  0  0  0  0999 V2000
    9.0223    0.7177    0.0000 O   0  0  0  0  0  0  0  0  0  0  0  0
   10.7016   -2.3310    0.0000 O   0  0  0  0  0  0  0  0  0  0  0  0
    8.0984   -5.1587    0.0000 O   0  0  0  0  0  0  0  0  0  0  0  0
    4.3073   -4.5261    0.0000 O   0  0  0  0  0  0  0  0  0  0  0  0
    8.7091    2.2114    0.0000 O   0  0  0  0  0  0  0  0  0  0  0  0
    2.6010   -3.2932    0.0000 O   0  0  0  0  0  0  0  0  0  0  0  0
    2.7634   -1.0063    0.0000 O   0  0  0  0  0  0  0  0  0  0  0  0
    2.8623    1.0964    0.0000 O   0  0  0  0  0  0  0  0  0  0  0  0
    4.8656    2.2114    0.0000 O   0  0  0  0  0  0  0  0  0  0  0  0
    9.3305   -3.0012    0.0000 N   0  0  0  0  0  0  0  0  0  0  0  0
    6.7873   -4.3775    0.0000 N   0  0  0  0  0  0  0  0  0  0  0  0
    4.2442   -3.0012    0.0000 N   0  0  0  0  0  0  0  0  0  0  0  0
    4.0054   -0.1195    0.0000 N   0  0  0  0  0  0  0  0  0  0  0  0
    6.2873    1.6566    0.0000 N   0  0  0  0  0  0  0  0  0  0  0  0
    8.6532   -3.7370    0.0000 C   0  0  1  0  0  0  0  0  0  0  0  0
    9.8147   -1.0889    0.0000 C   0  0  2  0  0  0  0  0  0  0  0  0
    9.5692   -0.1195    0.0000 C   0  0  1  0  0  0  0  0  0  0  0  0
    9.2674   -4.5261    0.0000 C   0  0  0  0  0  0  0  0  0  0  0  0
   10.4850    0.2822    0.0000 C   0  0  0  0  0  0  0  0  0  0  0  0
   10.5950    1.2761    0.0000 C   0  0  0  0  0  0  0  0  0  0  0  0
    9.7322   -2.0855    0.0000 C   0  0  0  0  0  0  0  0  0  0  0  0
   10.1939   -4.9024    0.0000 C   0  0  0  0  0  0  0  0  0  0  0  0
    5.8010   -4.2129    0.0000 C   0  0  1  0  0  0  0  0  0  0  0  0
    5.4763   -5.1587    0.0000 C   0  0  1  0  0  0  0  0  0  0  0  0
   11.5108    1.6778    0.0000 C   0  0  0  0  0  0  0  0  0  0  0  0
    7.7737   -4.2129    0.0000 C   0  0  0  0  0  0  0  0  0  0  0  0
   10.8113   -1.0063    0.0000 C   0  0  0  0  0  0  0  0  0  0  0  0
   11.6208    2.6718    0.0000 C   0  0  0  0  0  0  0  0  0  0  0  0
    6.1330   -5.9128    0.0000 C   0  0  0  0  0  0  0  0  0  0  0  0
   12.5366    3.0735    0.0000 C   0  0  0  0  0  0  0  0  0  0  0  0
   10.1676   -3.5482    0.0000 C   0  0  0  0  0  0  0  0  0  0  0  0
   10.3312   -5.8929    0.0000 C   0  0  0  0  0  0  0  0  0  0  0  0
   10.9830   -4.2882    0.0000 C   0  0  0  0  0  0  0  0  0  0  0  0
    4.9215   -3.7370    0.0000 C   0  0  0  0  0  0  0  0  0  0  0  0
    4.4948   -5.3504    0.0000 C   0  0  0  0  0  0  0  0  0  0  0  0
   12.6466    4.0674    0.0000 C   0  0  0  0  0  0  0  0  0  0  0  0
   13.5624    4.4691    0.0000 C   0  0  0  0  0  0  0  0  0  0  0  0
    5.8083   -6.8586    0.0000 C   0  0  0  0  0  0  0  0  0  0  0  0
    3.8425   -2.0855    0.0000 C   0  0  1  0  0  0  0  0  0  0  0  0
    8.2332    1.3319    0.0000 C   0  0  0  0  0  0  0  0  0  0  0  0
   13.6724    5.4630    0.0000 C   0  0  0  0  0  0  0  0  0  0  0  0
    7.2873    1.6566    0.0000 C   0  0  0  0  0  0  0  0  0  0  0  0
    4.5524    0.7177    0.0000 C   0  0  2  0  0  0  0  0  0  0  0  0
    3.7600   -1.0889    0.0000 C   0  0  0  0  0  0  0  0  0  0  0  0
   14.5881    5.8647    0.0000 C   0  0  0  0  0  0  0  0  0  0  0  0
    2.8731   -2.3310    0.0000 C   0  0  0  0  0  0  0  0  0  0  0  0
    3.8167    1.3950    0.0000 C   0  0  2  0  0  0  0  0  0  0  0  0
    5.3415    1.3319    0.0000 C   0  0  0  0  0  0  0  0  0  0  0  0
   14.6982    6.8586    0.0000 C   0  0  0  0  0  0  0  0  0  0  0  0
    4.0353    2.3708    0.0000 C   0  0  0  0  0  0  0  0  0  0  0  0
    9.2726   -3.7626    0.0000 H   0  0  0  0  0  0  0  0  0  0  0  0
   10.2531   -1.5273    0.0000 H   0  0  0  0  0  0  0  0  0  0  0  0
    9.7462    0.4747    0.0000 H   0  0  0  0  0  0  0  0  0  0  0  0
    8.6774   -4.7166    0.0000 H   0  0  0  0  0  0  0  0  0  0  0  0
    9.6414   -4.0316    0.0000 H   0  0  0  0  0  0  0  0  0  0  0  0
   10.6317   -0.3202    0.0000 H   0  0  0  0  0  0  0  0  0  0  0  0
   11.1037    0.3221    0.0000 H   0  0  0  0  0  0  0  0  0  0  0  0
   10.4484    1.8786    0.0000 H   0  0  0  0  0  0  0  0  0  0  0  0
    9.9763    1.2363    0.0000 H   0  0  0  0  0  0  0  0  0  0  0  0
    9.7046   -5.2832    0.0000 H   0  0  0  0  0  0  0  0  0  0  0  0
    6.2361   -4.9431    0.0000 H   0  0  0  0  0  0  0  0  0  0  0  0
    5.2750   -5.7451    0.0000 H   0  0  0  0  0  0  0  0  0  0  0  0
   11.6575    1.0754    0.0000 H   0  0  0  0  0  0  0  0  0  0  0  0
   12.1295    1.7177    0.0000 H   0  0  0  0  0  0  0  0  0  0  0  0
   10.8625   -1.6242    0.0000 H   0  0  0  0  0  0  0  0  0  0  0  0
   11.4292   -0.9551    0.0000 H   0  0  0  0  0  0  0  0  0  0  0  0
   10.7601   -0.3884    0.0000 H   0  0  0  0  0  0  0  0  0  0  0  0
    6.7873   -4.9975    0.0000 H   0  0  0  0  0  0  0  0  0  0  0  0
   11.4741    3.2742    0.0000 H   0  0  0  0  0  0  0  0  0  0  0  0
   11.0021    2.6319    0.0000 H   0  0  0  0  0  0  0  0  0  0  0  0
    6.6756   -6.2129    0.0000 H   0  0  0  0  0  0  0  0  0  0  0  0
    6.5228   -5.4306    0.0000 H   0  0  0  0  0  0  0  0  0  0  0  0
   12.6833    2.4711    0.0000 H   0  0  0  0  0  0  0  0  0  0  0  0
   13.1553    3.1133    0.0000 H   0  0  0  0  0  0  0  0  0  0  0  0
    9.8285   -4.0672    0.0000 H   0  0  0  0  0  0  0  0  0  0  0  0
   10.6867   -3.8873    0.0000 H   0  0  0  0  0  0  0  0  0  0  0  0
   10.5067   -3.0291    0.0000 H   0  0  0  0  0  0  0  0  0  0  0  0
    9.7171   -5.9781    0.0000 H   0  0  0  0  0  0  0  0  0  0  0  0
   10.4164   -6.5071    0.0000 H   0  0  0  0  0  0  0  0  0  0  0  0
   10.9454   -5.8078    0.0000 H   0  0  0  0  0  0  0  0  0  0  0  0
   11.3638   -4.7775    0.0000 H   0  0  0  0  0  0  0  0  0  0  0  0
   11.4723   -3.9074    0.0000 H   0  0  0  0  0  0  0  0  0  0  0  0
   10.6022   -3.7989    0.0000 H   0  0  0  0  0  0  0  0  0  0  0  0
    4.3760   -4.7419    0.0000 H   0  0  0  0  0  0  0  0  0  0  0  0
    3.8863   -5.4693    0.0000 H   0  0  0  0  0  0  0  0  0  0  0  0
    4.6137   -5.9589    0.0000 H   0  0  0  0  0  0  0  0  0  0  0  0
   12.4999    4.6698    0.0000 H   0  0  0  0  0  0  0  0  0  0  0  0
   12.0279    4.0276    0.0000 H   0  0  0  0  0  0  0  0  0  0  0  0
   13.7090    3.8667    0.0000 H   0  0  0  0  0  0  0  0  0  0  0  0
   14.1811    4.5089    0.0000 H   0  0  0  0  0  0  0  0  0  0  0  0
    5.2219   -6.6573    0.0000 H   0  0  0  0  0  0  0  0  0  0  0  0
    5.6070   -7.4451    0.0000 H   0  0  0  0  0  0  0  0  0  0  0  0
    6.3947   -7.0600    0.0000 H   0  0  0  0  0  0  0  0  0  0  0  0
    3.7252   -3.3404    0.0000 H   0  0  0  0  0  0  0  0  0  0  0  0
    3.5702   -2.6425    0.0000 H   0  0  0  0  0  0  0  0  0  0  0  0
   13.5257    6.0654    0.0000 H   0  0  0  0  0  0  0  0  0  0  0  0
   13.0537    5.4232    0.0000 H   0  0  0  0  0  0  0  0  0  0  0  0
    7.7073    2.1128    0.0000 H   0  0  0  0  0  0  0  0  0  0  0  0
    7.1853    1.0450    0.0000 H   0  0  0  0  0  0  0  0  0  0  0  0
    3.7089    0.6125    0.0000 H   0  0  0  0  0  0  0  0  0  0  0  0
   14.7348    5.2623    0.0000 H   0  0  0  0  0  0  0  0  0  0  0  0
   15.2069    5.9046    0.0000 H   0  0  0  0  0  0  0  0  0  0  0  0
    2.8276   -1.7126    0.0000 H   0  0  0  0  0  0  0  0  0  0  0  0
    2.2563   -2.2684    0.0000 H   0  0  0  0  0  0  0  0  0  0  0  0
    3.4377    0.1296    0.0000 H   0  0  0  0  0  0  0  0  0  0  0  0
    6.1853    2.2681    0.0000 H   0  0  0  0  0  0  0  0  0  0  0  0
    3.6811    0.7900    0.0000 H   0  0  0  0  0  0  0  0  0  0  0  0
   15.3144    6.7904    0.0000 H   0  0  0  0  0  0  0  0  0  0  0  0
   14.7664    7.4749    0.0000 H   0  0  0  0  0  0  0  0  0  0  0  0
   14.0819    6.9269    0.0000 H   0  0  0  0  0  0  0  0  0  0  0  0
    4.6403    2.2352    0.0000 H   0  0  0  0  0  0  0  0  0  0  0  0
    4.1709    2.9758    0.0000 H   0  0  0  0  0  0  0  0  0  0  0  0
    3.4304    2.5064    0.0000 H   0  0  0  0  0  0  0  0  0  0  0  0
    2.0000   -3.4454    0.0000 H   0  0  0  0  0  0  0  0  0  0  0  0
    2.4061    1.5164    0.0000 H   0  0  0  0  0  0  0  0  0  0  0  0
  1 17  1  0  0  0  0
  1 40  1  0  0  0  0
  2 21  2  0  0  0  0
  3 26  2  0  0  0  0
  4 34  2  0  0  0  0
  5 40  2  0  0  0  0
  6 46  1  0  0  0  0
  6114  1  0  0  0  0
  7 44  2  0  0  0  0
 47  8  1  1  0  0  0
  8115  1  0  0  0  0
  9 48  2  0  0  0  0
 10 15  1  0  0  0  0
 10 21  1  0  0  0  0
 10 31  1  0  0  0  0
 11 23  1  0  0  0  0
 11 26  1  0  0  0  0
 11 68  1  0  0  0  0
 12 34  1  0  0  0  0
 12 39  1  0  0  0  0
 12 94  1  0  0  0  0
 13 43  1  0  0  0  0
 13 44  1  0  0  0  0
 13105  1  0  0  0  0
 14 42  1  0  0  0  0
 14 48  1  0  0  0  0
 14106  1  0  0  0  0
 15 18  1  1  0  0  0
 15 26  1  0  0  0  0
 15 51  1  0  0  0  0
 16 17  1  0  0  0  0
 16 21  1  0  0  0  0
 16 27  1  1  0  0  0
 16 52  1  0  0  0  0
 17 19  1  6  0  0  0
 17 53  1  0  0  0  0
 18 22  1  0  0  0  0
 18 54  1  0  0  0  0
 18 55  1  0  0  0  0
 19 20  1  0  0  0  0
 19 56  1  0  0  0  0
 19 57  1  0  0  0  0
 20 25  1  0  0  0  0
 20 58  1  0  0  0  0
 20 59  1  0  0  0  0
 22 32  1  0  0  0  0
 22 33  1  0  0  0  0
 22 60  1  0  0  0  0
 23 24  1  0  0  0  0
 23 34  1  0  0  0  0
 23 61  1  6  0  0  0
 24 29  1  0  0  0  0
 24 35  1  1  0  0  0
 24 62  1  0  0  0  0
 25 28  1  0  0  0  0
 25 63  1  0  0  0  0
 25 64  1  0  0  0  0
 27 65  1  0  0  0  0
 27 66  1  0  0  0  0
 27 67  1  0  0  0  0
 28 30  1  0  0  0  0
 28 69  1  0  0  0  0
 28 70  1  0  0  0  0
 29 38  1  0  0  0  0
 29 71  1  0  0  0  0
 29 72  1  0  0  0  0
 30 36  1  0  0  0  0
 30 73  1  0  0  0  0
 30 74  1  0  0  0  0
 31 75  1  0  0  0  0
 31 76  1  0  0  0  0
 31 77  1  0  0  0  0
 32 78  1  0  0  0  0
 32 79  1  0  0  0  0
 32 80  1  0  0  0  0
 33 81  1  0  0  0  0
 33 82  1  0  0  0  0
 33 83  1  0  0  0  0
 35 84  1  0  0  0  0
 35 85  1  0  0  0  0
 35 86  1  0  0  0  0
 36 37  1  0  0  0  0
 36 87  1  0  0  0  0
 36 88  1  0  0  0  0
 37 41  1  0  0  0  0
 37 89  1  0  0  0  0
 37 90  1  0  0  0  0
 38 91  1  0  0  0  0
 38 92  1  0  0  0  0
 38 93  1  0  0  0  0
 39 44  1  0  0  0  0
 39 46  1  6  0  0  0
 39 95  1  0  0  0  0
 40 42  1  0  0  0  0
 41 45  1  0  0  0  0
 41 96  1  0  0  0  0
 41 97  1  0  0  0  0
 42 98  1  0  0  0  0
 42 99  1  0  0  0  0
 43 47  1  0  0  0  0
 43 48  1  0  0  0  0
 43100  1  1  0  0  0
 45 49  1  0  0  0  0
 45101  1  0  0  0  0
 45102  1  0  0  0  0
 46103  1  0  0  0  0
 46104  1  0  0  0  0
 47 50  1  0  0  0  0
 47107  1  0  0  0  0
 49108  1  0  0  0  0
 49109  1  0  0  0  0
 49110  1  0  0  0  0
 50111  1  0  0  0  0
 50112  1  0  0  0  0
 50113  1  0  0  0  0
M  END
> <PUBCHEM_COMPOUND_CID>
508502
> <PUBCHEM_COMPOUND_CANONICALIZED>
1
> <PUBCHEM_CACTVS_COMPLEXITY>
1100
> <PUBCHEM_CACTVS_HBOND_ACCEPTOR>
9
> <PUBCHEM_CACTVS_HBOND_DONOR>
6
> <PUBCHEM_CACTVS_ROTATABLE_BOND>
15
> <PUBCHEM_CACTVS_SUBSKEYS>
AAADcfB/vAAAAAAAAAAAAAAAAAAAAAAAAAAAAAAAAAAAAAAAAAAAHgAQCAAADTzhgAYCCAPABgAIAAGQGAAAAAAAAAAAAIGIAAACUBYAgCAXQAAGNgCQAAGYyOCOAAAAAAAAAAAAAAAAAAAAAAAAAAAAAA==
> <PUBCHEM_IUPAC_OPENEYE_NAME>
(6R,9R,12S,15S,18R,19R)-19-decyl-6-[(1S)-1-hydroxyethyl]-9-(hydroxymethyl)-15-isobutyl-16,18-dimethyl-12-[(1R)-1-methylpropyl]-1-oxa-4,7,10,13,16-pentazacyclononadecane-2,5,8,11,14,17-hexone
> <PUBCHEM_IUPAC_CAS_NAME>
(6R,9R,12S,15S,18R,19R)-12-[(2R)-butan-2-yl]-19-decyl-6-[(1S)-1-hydroxyethyl]-9-(hydroxymethyl)-16,18-dimethyl-15-(2-methylpropyl)-1-oxa-4,7,10,13,16-pentazacyclononadecane-2,5,8,11,14,17-hexone
> <PUBCHEM_IUPAC_NAME_MARKUP>
(6<I>R</I>,9<I>R</I>,12<I>S</I>,15<I>S</I>,18<I>R</I>,19<I>R</I>)-12-[(2<I>R</I>)-butan-2-yl]-19-decyl-6-[(1<I>S</I>)-1-hydroxyethyl]-9-(hydroxymethyl)-16,18-dimethyl-15-(2-methylpropyl)-1-oxa-4,7,10,13,16-pentazacyclononadecane-2,5,8,11,14,17-hexone
> <PUBCHEM_IUPAC_NAME>
(6R,9R,12S,15S,18R,19R)-12-[(2R)-butan-2-yl]-19-decyl-6-[(1S)-1-hydroxyethyl]-9-(hydroxymethyl)-16,18-dimethyl-15-(2-methylpropyl)-1-oxa-4,7,10,13,16-pentazacyclononadecane-2,5,8,11,14,17-hexone
> <PUBCHEM_IUPAC_SYSTEMATIC_NAME>
(6R,9R,12S,15S,18R,19R)-12-[(2R)-butan-2-yl]-19-decyl-9-(hydroxymethyl)-16,18-dimethyl-15-(2-methylpropyl)-6-[(1S)-1-oxidanylethyl]-1-oxa-4,7,10,13,16-pentazacyclononadecane-2,5,8,11,14,17-hexone
> <PUBCHEM_IUPAC_TRADITIONAL_NAME>
(6R,9R,12S,15S,18R,19R)-19-decyl-6-[(1S)-1-hydroxyethyl]-15-isobutyl-16,18-dimethyl-9-methylol-12-[(1R)-1-methylpropyl]-1-oxa-4,7,10,13,16-pentazacyclononadecane-2,5,8,11,14,17-triquinone
> <PUBCHEM_IUPAC_INCHI>
InChI=1S/C36H65N5O9/c1-9-11-12-13-14-15-16-17-18-28-24(6)36(49)41(8)27(19-22(3)4)33(46)39-30(23(5)10-2)35(48)38-26(21-42)32(45)40-31(25(7)43)34(47)37-20-29(44)50-28/h22-28,30-31,42-43H,9-21H2,1-8H3,(H,37,47)(H,38,48)(H,39,46)(H,40,45)/t23-,24-,25+,26-,27+,28-,30+,31-/m1/s1
> <PUBCHEM_IUPAC_INCHIKEY>
XJUHQLYDQQQVBO-NSPCVNQBSA-N
> <PUBCHEM_XLOGP3_AA>
6.1
> <PUBCHEM_EXACT_MASS>
711.47822867
> <PUBCHEM_MOLECULAR_FORMULA>
C36H65N5O9
> <PUBCHEM_MOLECULAR_WEIGHT>
711.9
> <PUBCHEM_OPENEYE_CAN_SMILES>
CCCCCCCCCCC1C(C(=O)N(C(C(=O)NC(C(=O)NC(C(=O)NC(C(=O)NCC(=O)O1)C(C)O)CO)C(C)CC)CC(C)C)C)C
> <PUBCHEM_OPENEYE_ISO_SMILES>
CCCCCCCCCC[C@@H]1[C@H](C(=O)N([C@H](C(=O)N[C@H](C(=O)N[C@@H](C(=O)N[C@@H](C(=O)NCC(=O)O1)[C@H](C)O)CO)[C@H](C)CC)CC(C)C)C)C
> <PUBCHEM_CACTVS_TPSA>
204
> <PUBCHEM_MONOISOTOPIC_WEIGHT>
711.47822867
> <PUBCHEM_TOTAL_CHARGE>
0
> <PUBCHEM_HEAVY_ATOM_COUNT>
50
> <PUBCHEM_ATOM_DEF_STEREO_COUNT>
8
> <PUBCHEM_ATOM_UDEF_STEREO_COUNT>
0
> <PUBCHEM_BOND_DEF_STEREO_COUNT>
0
> <PUBCHEM_BOND_UDEF_STEREO_COUNT>
0
> <PUBCHEM_ISOTOPIC_ATOM_COUNT>
0
> <PUBCHEM_COMPONENT_COUNT>
1
> <PUBCHEM_CACTVS_TAUTO_COUNT>
-1
> <PUBCHEM_COORDINATE_TYPE>
1
5
255
> <PUBCHEM_BONDANNOTATIONS>
15  18  5
16  27  5
17  19  6
23  61  6
24  35  5
39  46  6
43  100  5
47  8  5
$$$$
