508524
  -OEChem-10302200282D
 99104  0     1  0  0  0  0  0999 V2000
    7.6138   -3.1842    0.0000 O   0  0  0  0  0  0  0  0  0  0  0  0
    6.2619   -4.6076    0.0000 O   0  0  0  0  0  0  0  0  0  0  0  0
   10.5493   -2.5655    0.0000 O   0  0  0  0  0  0  0  0  0  0  0  0
    6.6353   -3.3904    0.0000 O   0  0  0  0  0  0  0  0  0  0  0  0
    9.2236    5.2025    0.0000 O   0  0  0  0  0  0  0  0  0  0  0  0
    7.6488    4.8706    0.0000 O   0  0  0  0  0  0  0  0  0  0  0  0
    9.2136   -1.0769    0.0000 N   0  0  3  0  0  0  0  0  0  0  0  0
    9.8349    0.8241    0.0000 N   0  0  3  0  0  0  0  0  0  0  0  0
    4.9889   -2.8523    0.0000 N   0  0  0  0  0  0  0  0  0  0  0  0
   11.8385   -1.4088    0.0000 N   0  0  0  0  0  0  0  0  0  0  0  0
   10.1921   -0.8707    0.0000 C   0  0  1  0  0  0  0  0  0  0  0  0
    8.9030   -2.0275    0.0000 C   0  0  0  0  0  0  0  0  0  0  0  0
   10.5028    0.0798    0.0000 C   0  0  0  0  0  0  0  0  0  0  0  0
    8.5458   -0.3326    0.0000 C   0  0  0  0  0  0  0  0  0  0  0  0
    6.2781   -1.6956    0.0000 C   0  0  2  0  0  0  0  0  0  0  0  0
    7.9244   -2.2337    0.0000 C   0  0  2  0  0  0  0  0  0  0  0  0
    7.2566   -1.4894    0.0000 C   0  0  0  0  0  0  0  0  0  0  0  0
    8.8564    0.6179    0.0000 C   0  0  0  0  0  0  0  0  0  0  0  0
    5.6103   -0.9513    0.0000 C   0  0  3  0  0  0  0  0  0  0  0  0
    4.6783   -3.8028    0.0000 C   0  0  2  0  0  0  0  0  0  0  0  0
   10.8600   -1.6150    0.0000 C   0  0  0  0  0  0  0  0  0  0  0  0
    5.2619   -4.6076    0.0000 C   0  0  1  0  0  0  0  0  0  0  0  0
    5.9674   -2.6461    0.0000 C   0  0  0  0  0  0  0  0  0  0  0  0
   10.1456    1.7746    0.0000 C   0  0  0  0  0  0  0  0  0  0  0  0
    3.7320   -4.1076    0.0000 C   0  0  0  0  0  0  0  0  0  0  0  0
    4.6783   -5.4123    0.0000 C   0  0  0  0  0  0  0  0  0  0  0  0
    3.7320   -5.1076    0.0000 C   0  0  0  0  0  0  0  0  0  0  0  0
    5.9209   -0.0008    0.0000 C   0  0  0  0  0  0  0  0  0  0  0  0
    4.6318   -1.1575    0.0000 C   0  0  0  0  0  0  0  0  0  0  0  0
   12.1491   -0.4583    0.0000 C   0  0  0  0  0  0  0  0  0  0  0  0
    9.4778    2.5189    0.0000 C   0  0  0  0  0  0  0  0  0  0  0  0
    2.8660   -3.6076    0.0000 C   0  0  0  0  0  0  0  0  0  0  0  0
    2.8660   -5.6076    0.0000 C   0  0  0  0  0  0  0  0  0  0  0  0
    6.8994    0.2054    0.0000 C   0  0  0  0  0  0  0  0  0  0  0  0
    5.2531    0.7435    0.0000 C   0  0  0  0  0  0  0  0  0  0  0  0
   12.4598    0.4922    0.0000 C   0  0  0  0  0  0  0  0  0  0  0  0
   11.1986   -0.1476    0.0000 C   0  0  0  0  0  0  0  0  0  0  0  0
   13.0997   -0.7689    0.0000 C   0  0  0  0  0  0  0  0  0  0  0  0
    2.0000   -4.1076    0.0000 C   0  0  0  0  0  0  0  0  0  0  0  0
    9.7884    3.4694    0.0000 C   0  0  0  0  0  0  0  0  0  0  0  0
    2.0000   -5.1076    0.0000 C   0  0  0  0  0  0  0  0  0  0  0  0
    8.4993    2.3127    0.0000 C   0  0  0  0  0  0  0  0  0  0  0  0
    7.2101    1.1560    0.0000 C   0  0  0  0  0  0  0  0  0  0  0  0
    5.5637    1.6940    0.0000 C   0  0  0  0  0  0  0  0  0  0  0  0
    9.1206    4.2138    0.0000 C   0  0  0  0  0  0  0  0  0  0  0  0
    7.8314    3.0570    0.0000 C   0  0  0  0  0  0  0  0  0  0  0  0
    8.1421    4.0075    0.0000 C   0  0  0  0  0  0  0  0  0  0  0  0
    6.5422    1.9003    0.0000 C   0  0  0  0  0  0  0  0  0  0  0  0
    8.3158    5.6076    0.0000 C   0  0  0  0  0  0  0  0  0  0  0  0
    9.9995   -1.4600    0.0000 H   0  0  0  0  0  0  0  0  0  0  0  0
    8.9235   -2.6471    0.0000 H   0  0  0  0  0  0  0  0  0  0  0  0
    9.5168   -2.1148    0.0000 H   0  0  0  0  0  0  0  0  0  0  0  0
   11.0497   -0.2122    0.0000 H   0  0  0  0  0  0  0  0  0  0  0  0
   10.8853    0.5677    0.0000 H   0  0  0  0  0  0  0  0  0  0  0  0
    7.9988   -0.0406    0.0000 H   0  0  0  0  0  0  0  0  0  0  0  0
    8.1632   -0.8205    0.0000 H   0  0  0  0  0  0  0  0  0  0  0  0
    6.6922   -2.1571    0.0000 H   0  0  0  0  0  0  0  0  0  0  0  0
    8.3385   -2.6951    0.0000 H   0  0  0  0  0  0  0  0  0  0  0  0
    7.7830   -1.1617    0.0000 H   0  0  0  0  0  0  0  0  0  0  0  0
    7.0254   -0.9141    0.0000 H   0  0  0  0  0  0  0  0  0  0  0  0
    8.8359    1.2375    0.0000 H   0  0  0  0  0  0  0  0  0  0  0  0
    8.2426    0.7052    0.0000 H   0  0  0  0  0  0  0  0  0  0  0  0
    5.1962   -0.4898    0.0000 H   0  0  0  0  0  0  0  0  0  0  0  0
    5.2908   -3.7067    0.0000 H   0  0  0  0  0  0  0  0  0  0  0  0
    5.5436   -5.1599    0.0000 H   0  0  0  0  0  0  0  0  0  0  0  0
   10.6925    1.4826    0.0000 H   0  0  0  0  0  0  0  0  0  0  0  0
   10.5282    2.2625    0.0000 H   0  0  0  0  0  0  0  0  0  0  0  0
    4.4272   -5.9792    0.0000 H   0  0  0  0  0  0  0  0  0  0  0  0
    5.2156   -5.7215    0.0000 H   0  0  0  0  0  0  0  0  0  0  0  0
    4.5749   -2.3909    0.0000 H   0  0  0  0  0  0  0  0  0  0  0  0
    4.5039   -0.5508    0.0000 H   0  0  0  0  0  0  0  0  0  0  0  0
    4.0251   -1.2854    0.0000 H   0  0  0  0  0  0  0  0  0  0  0  0
    4.7596   -1.7642    0.0000 H   0  0  0  0  0  0  0  0  0  0  0  0
   12.2525   -1.8703    0.0000 H   0  0  0  0  0  0  0  0  0  0  0  0
    8.0279   -3.6457    0.0000 H   0  0  0  0  0  0  0  0  0  0  0  0
    2.8660   -2.9876    0.0000 H   0  0  0  0  0  0  0  0  0  0  0  0
    2.8660   -6.2276    0.0000 H   0  0  0  0  0  0  0  0  0  0  0  0
    6.5719   -5.1445    0.0000 H   0  0  0  0  0  0  0  0  0  0  0  0
    7.3135   -0.2560    0.0000 H   0  0  0  0  0  0  0  0  0  0  0  0
    4.6464    0.6157    0.0000 H   0  0  0  0  0  0  0  0  0  0  0  0
   13.0491    0.2996    0.0000 H   0  0  0  0  0  0  0  0  0  0  0  0
   12.6524    1.0816    0.0000 H   0  0  0  0  0  0  0  0  0  0  0  0
   11.8705    0.6848    0.0000 H   0  0  0  0  0  0  0  0  0  0  0  0
   11.3912    0.4417    0.0000 H   0  0  0  0  0  0  0  0  0  0  0  0
   10.6093    0.0450    0.0000 H   0  0  0  0  0  0  0  0  0  0  0  0
   11.0060   -0.7369    0.0000 H   0  0  0  0  0  0  0  0  0  0  0  0
   12.9070   -1.3583    0.0000 H   0  0  0  0  0  0  0  0  0  0  0  0
   13.6890   -0.9616    0.0000 H   0  0  0  0  0  0  0  0  0  0  0  0
   13.2923   -0.1796    0.0000 H   0  0  0  0  0  0  0  0  0  0  0  0
    1.4631   -3.7976    0.0000 H   0  0  0  0  0  0  0  0  0  0  0  0
   10.3951    3.5973    0.0000 H   0  0  0  0  0  0  0  0  0  0  0  0
    1.4631   -5.4176    0.0000 H   0  0  0  0  0  0  0  0  0  0  0  0
    8.3066    1.7234    0.0000 H   0  0  0  0  0  0  0  0  0  0  0  0
    7.8168    1.2838    0.0000 H   0  0  0  0  0  0  0  0  0  0  0  0
    5.1497    2.1555    0.0000 H   0  0  0  0  0  0  0  0  0  0  0  0
    7.2247    2.9292    0.0000 H   0  0  0  0  0  0  0  0  0  0  0  0
    6.7349    2.4896    0.0000 H   0  0  0  0  0  0  0  0  0  0  0  0
    8.6266    6.1441    0.0000 H   0  0  0  0  0  0  0  0  0  0  0  0
    7.8150    5.9730    0.0000 H   0  0  0  0  0  0  0  0  0  0  0  0
 16  1  1  1  0  0  0
  1 75  1  0  0  0  0
 22  2  1  6  0  0  0
  2 78  1  0  0  0  0
  3 21  2  0  0  0  0
  4 23  2  0  0  0  0
  5 45  1  0  0  0  0
  5 49  1  0  0  0  0
  6 47  1  0  0  0  0
  6 49  1  0  0  0  0
  7 11  1  0  0  0  0
  7 12  1  0  0  0  0
  7 14  1  0  0  0  0
  8 13  1  0  0  0  0
  8 18  1  0  0  0  0
  8 24  1  0  0  0  0
 20  9  1  6  0  0  0
  9 23  1  0  0  0  0
  9 70  1  0  0  0  0
 10 21  1  0  0  0  0
 10 30  1  0  0  0  0
 10 74  1  0  0  0  0
 11 13  1  0  0  0  0
 11 21  1  1  0  0  0
 11 50  1  0  0  0  0
 12 16  1  0  0  0  0
 12 51  1  0  0  0  0
 12 52  1  0  0  0  0
 13 53  1  0  0  0  0
 13 54  1  0  0  0  0
 14 18  1  0  0  0  0
 14 55  1  0  0  0  0
 14 56  1  0  0  0  0
 15 17  1  1  0  0  0
 15 19  1  0  0  0  0
 15 23  1  0  0  0  0
 15 57  1  0  0  0  0
 16 17  1  0  0  0  0
 16 58  1  0  0  0  0
 17 59  1  0  0  0  0
 17 60  1  0  0  0  0
 18 61  1  0  0  0  0
 18 62  1  0  0  0  0
 19 28  1  0  0  0  0
 19 29  1  0  0  0  0
 19 63  1  0  0  0  0
 20 22  1  0  0  0  0
 20 25  1  0  0  0  0
 20 64  1  0  0  0  0
 22 26  1  0  0  0  0
 22 65  1  0  0  0  0
 24 31  1  0  0  0  0
 24 66  1  0  0  0  0
 24 67  1  0  0  0  0
 25 27  1  0  0  0  0
 25 32  2  0  0  0  0
 26 27  1  0  0  0  0
 26 68  1  0  0  0  0
 26 69  1  0  0  0  0
 27 33  2  0  0  0  0
 28 34  2  0  0  0  0
 28 35  1  0  0  0  0
 29 71  1  0  0  0  0
 29 72  1  0  0  0  0
 29 73  1  0  0  0  0
 30 36  1  0  0  0  0
 30 37  1  0  0  0  0
 30 38  1  0  0  0  0
 31 40  2  0  0  0  0
 31 42  1  0  0  0  0
 32 39  1  0  0  0  0
 32 76  1  0  0  0  0
 33 41  1  0  0  0  0
 33 77  1  0  0  0  0
 34 43  1  0  0  0  0
 34 79  1  0  0  0  0
 35 44  2  0  0  0  0
 35 80  1  0  0  0  0
 36 81  1  0  0  0  0
 36 82  1  0  0  0  0
 36 83  1  0  0  0  0
 37 84  1  0  0  0  0
 37 85  1  0  0  0  0
 37 86  1  0  0  0  0
 38 87  1  0  0  0  0
 38 88  1  0  0  0  0
 38 89  1  0  0  0  0
 39 41  2  0  0  0  0
 39 90  1  0  0  0  0
 40 45  1  0  0  0  0
 40 91  1  0  0  0  0
 41 92  1  0  0  0  0
 42 46  2  0  0  0  0
 42 93  1  0  0  0  0
 43 48  2  0  0  0  0
 43 94  1  0  0  0  0
 44 48  1  0  0  0  0
 44 95  1  0  0  0  0
 45 47  2  0  0  0  0
 46 47  1  0  0  0  0
 46 96  1  0  0  0  0
 48 97  1  0  0  0  0
 49 98  1  0  0  0  0
 49 99  1  0  0  0  0
M  END
> <PUBCHEM_COMPOUND_CID>
508524
> <PUBCHEM_COMPOUND_CANONICALIZED>
1
> <PUBCHEM_CACTVS_COMPLEXITY>
1100
> <PUBCHEM_CACTVS_HBOND_ACCEPTOR>
8
> <PUBCHEM_CACTVS_HBOND_DONOR>
4
> <PUBCHEM_CACTVS_ROTATABLE_BOND>
12
> <PUBCHEM_CACTVS_SUBSKEYS>
AAADcfB/uAAAAAAAAAAAAAAAAAAAAaIAAAA8YMEAAAAAAGgBUAAAHgAQCAAADbzhmAcyDoPABgCIAiFSEACCCAAgIAAIiIGOjIgfdjqE8Tu0cCpk1hGeqAe62fKOoAABAAAQQABAAAIAACCAAKAACQgAAA==
> <PUBCHEM_IUPAC_OPENEYE_NAME>
(2S)-4-(1,3-benzodioxol-5-ylmethyl)-N-tert-butyl-1-[(2S,4R)-2-hydroxy-4-[[(1S,2R)-2-hydroxyindan-1-yl]carbamoyl]-5-phenyl-hexyl]piperazine-2-carboxamide
> <PUBCHEM_IUPAC_CAS_NAME>
(2S)-4-(1,3-benzodioxol-5-ylmethyl)-N-tert-butyl-1-[(2S,4R)-2-hydroxy-4-[[[(1S,2R)-2-hydroxy-2,3-dihydro-1H-inden-1-yl]amino]-oxomethyl]-5-phenylhexyl]-2-piperazinecarboxamide
> <PUBCHEM_IUPAC_NAME_MARKUP>
(2<I>S</I>)-4-(1,3-benzodioxol-5-ylmethyl)-<I>N</I>-<I>tert</I>-butyl-1-[(2<I>S</I>,4<I>R</I>)-2-hydroxy-4-[[(1<I>S</I>,2<I>R</I>)-2-hydroxy-2,3-dihydro-1<I>H</I>-inden-1-yl]carbamoyl]-5-phenylhexyl]piperazine-2-carboxamide
> <PUBCHEM_IUPAC_NAME>
(2S)-4-(1,3-benzodioxol-5-ylmethyl)-N-tert-butyl-1-[(2S,4R)-2-hydroxy-4-[[(1S,2R)-2-hydroxy-2,3-dihydro-1H-inden-1-yl]carbamoyl]-5-phenylhexyl]piperazine-2-carboxamide
> <PUBCHEM_IUPAC_SYSTEMATIC_NAME>
(2S)-4-(1,3-benzodioxol-5-ylmethyl)-N-tert-butyl-1-[(2S,4R)-2-oxidanyl-4-[[(1S,2R)-2-oxidanyl-2,3-dihydro-1H-inden-1-yl]carbamoyl]-5-phenyl-hexyl]piperazine-2-carboxamide
> <PUBCHEM_IUPAC_TRADITIONAL_NAME>
(2S)-N-tert-butyl-1-[(2S,4R)-2-hydroxy-4-[[(1S,2R)-2-hydroxyindan-1-yl]carbamoyl]-5-phenyl-hexyl]-4-piperonyl-piperazine-2-carboxamide
> <PUBCHEM_IUPAC_INCHI>
InChI=1S/C39H50N4O6/c1-25(27-10-6-5-7-11-27)31(37(46)40-36-30-13-9-8-12-28(30)19-33(36)45)20-29(44)22-43-17-16-42(23-32(43)38(47)41-39(2,3)4)21-26-14-15-34-35(18-26)49-24-48-34/h5-15,18,25,29,31-33,36,44-45H,16-17,19-24H2,1-4H3,(H,40,46)(H,41,47)/t25?,29-,31+,32-,33+,36-/m0/s1
> <PUBCHEM_IUPAC_INCHIKEY>
MJIRDPUZGGHJMX-SRWCNHMCSA-N
> <PUBCHEM_XLOGP3_AA>
4
> <PUBCHEM_EXACT_MASS>
670.37303533
> <PUBCHEM_MOLECULAR_FORMULA>
C39H50N4O6
> <PUBCHEM_MOLECULAR_WEIGHT>
670.8
> <PUBCHEM_OPENEYE_CAN_SMILES>
CC(C1=CC=CC=C1)C(CC(CN2CCN(CC2C(=O)NC(C)(C)C)CC3=CC4=C(C=C3)OCO4)O)C(=O)NC5C(CC6=CC=CC=C56)O
> <PUBCHEM_OPENEYE_ISO_SMILES>
CC(C1=CC=CC=C1)[C@@H](C[C@@H](CN2CCN(C[C@H]2C(=O)NC(C)(C)C)CC3=CC4=C(C=C3)OCO4)O)C(=O)N[C@@H]5[C@@H](CC6=CC=CC=C56)O
> <PUBCHEM_CACTVS_TPSA>
124
> <PUBCHEM_MONOISOTOPIC_WEIGHT>
670.37303533
> <PUBCHEM_TOTAL_CHARGE>
0
> <PUBCHEM_HEAVY_ATOM_COUNT>
49
> <PUBCHEM_ATOM_DEF_STEREO_COUNT>
5
> <PUBCHEM_ATOM_UDEF_STEREO_COUNT>
1
> <PUBCHEM_BOND_DEF_STEREO_COUNT>
0
> <PUBCHEM_BOND_UDEF_STEREO_COUNT>
0
> <PUBCHEM_ISOTOPIC_ATOM_COUNT>
0
> <PUBCHEM_COMPONENT_COUNT>
1
> <PUBCHEM_CACTVS_TAUTO_COUNT>
-1
> <PUBCHEM_COORDINATE_TYPE>
1
5
255
> <PUBCHEM_BONDANNOTATIONS>
16  1  5
11  21  5
15  17  5
19  29  3
22  2  6
25  27  8
25  32  8
27  33  8
28  34  8
28  35  8
31  40  8
31  42  8
32  39  8
33  41  8
34  43  8
35  44  8
39  41  8
40  45  8
42  46  8
43  48  8
44  48  8
45  47  8
46  47  8
20  9  6
$$$$
