508583
  -OEChem-10302200282D
 90 92  0     1  0  0  0  0  0999 V2000
    4.5981   -0.9050    0.0000 S   0  0  0  0  0  0  0  0  0  0  0  0
   12.3923    1.5950    0.0000 S   0  0  0  0  0  0  0  0  0  0  0  0
   11.5833    3.1828    0.0000 S   0  0  0  0  0  0  0  0  0  0  0  0
    5.5981   -0.9050    0.0000 O   0  0  0  0  0  0  0  0  0  0  0  0
    3.5981   -0.9050    0.0000 O   0  0  0  0  0  0  0  0  0  0  0  0
    4.5981    2.0950    0.0000 O   0  0  0  0  0  0  0  0  0  0  0  0
   10.6603    1.5950    0.0000 O   0  0  0  0  0  0  0  0  0  0  0  0
    7.1962    4.5950    0.0000 O   0  0  0  0  0  0  0  0  0  0  0  0
   13.3923    1.5950    0.0000 O   0  0  0  0  0  0  0  0  0  0  0  0
   11.3923    1.5950    0.0000 O   0  0  0  0  0  0  0  0  0  0  0  0
    4.5981    0.0950    0.0000 N   0  0  3  0  0  0  0  0  0  0  0  0
    6.3301    2.0950    0.0000 N   0  0  0  0  0  0  0  0  0  0  0  0
    9.7942    0.0950    0.0000 N   0  0  0  0  0  0  0  0  0  0  0  0
   12.3923    0.5950    0.0000 N   0  0  0  0  0  0  0  0  0  0  0  0
    5.4641    0.5950    0.0000 C   0  0  1  0  0  0  0  0  0  0  0  0
    6.3301    0.0950    0.0000 C   0  0  0  0  0  0  0  0  0  0  0  0
    3.7320    0.5950    0.0000 C   0  0  0  0  0  0  0  0  0  0  0  0
    7.1962    0.5950    0.0000 C   0  0  0  0  0  0  0  0  0  0  0  0
    2.8660    0.0950    0.0000 C   0  0  0  0  0  0  0  0  0  0  0  0
    8.0622    0.0950    0.0000 C   0  0  0  0  0  0  0  0  0  0  0  0
    5.4641    1.5950    0.0000 C   0  0  0  0  0  0  0  0  0  0  0  0
    4.5981   -1.9050    0.0000 C   0  0  0  0  0  0  0  0  0  0  0  0
    2.0000    0.5950    0.0000 C   0  0  0  0  0  0  0  0  0  0  0  0
    2.8660   -0.9050    0.0000 C   0  0  0  0  0  0  0  0  0  0  0  0
    8.9282    0.5950    0.0000 C   0  0  0  0  0  0  0  0  0  0  0  0
    3.7320   -2.4050    0.0000 C   0  0  0  0  0  0  0  0  0  0  0  0
    5.4641   -2.4050    0.0000 C   0  0  0  0  0  0  0  0  0  0  0  0
    6.3301    3.0950    0.0000 C   0  0  0  0  0  0  0  0  0  0  0  0
   11.5263    0.0950    0.0000 C   0  0  2  0  0  0  0  0  0  0  0  0
   10.6603    0.5950    0.0000 C   0  0  0  0  0  0  0  0  0  0  0  0
   11.5263   -0.9050    0.0000 C   0  0  0  0  0  0  0  0  0  0  0  0
    3.7320   -3.4050    0.0000 C   0  0  0  0  0  0  0  0  0  0  0  0
    5.4641   -3.4050    0.0000 C   0  0  0  0  0  0  0  0  0  0  0  0
    4.5981   -3.9050    0.0000 C   0  0  0  0  0  0  0  0  0  0  0  0
    7.1962    3.5950    0.0000 C   0  0  0  0  0  0  0  0  0  0  0  0
   12.3923   -1.4050    0.0000 C   0  0  0  0  0  0  0  0  0  0  0  0
    4.5981   -4.9050    0.0000 C   0  0  0  0  0  0  0  0  0  0  0  0
   13.2583   -0.9050    0.0000 C   0  0  0  0  0  0  0  0  0  0  0  0
   12.3923   -2.4050    0.0000 C   0  0  0  0  0  0  0  0  0  0  0  0
   12.3923    2.5950    0.0000 C   0  0  0  0  0  0  0  0  0  0  0  0
   14.1244   -1.4050    0.0000 C   0  0  0  0  0  0  0  0  0  0  0  0
   13.2583   -2.9050    0.0000 C   0  0  0  0  0  0  0  0  0  0  0  0
   13.2013    3.1828    0.0000 C   0  0  0  0  0  0  0  0  0  0  0  0
   14.1244   -2.4050    0.0000 C   0  0  0  0  0  0  0  0  0  0  0  0
   12.8923    4.1338    0.0000 C   0  0  0  0  0  0  0  0  0  0  0  0
   11.8923    4.1338    0.0000 C   0  0  0  0  0  0  0  0  0  0  0  0
    5.4641   -0.0250    0.0000 H   0  0  0  0  0  0  0  0  0  0  0  0
    5.9316   -0.3799    0.0000 H   0  0  0  0  0  0  0  0  0  0  0  0
    6.7287   -0.3799    0.0000 H   0  0  0  0  0  0  0  0  0  0  0  0
    4.1306    1.0700    0.0000 H   0  0  0  0  0  0  0  0  0  0  0  0
    3.3335    1.0700    0.0000 H   0  0  0  0  0  0  0  0  0  0  0  0
    7.5947    1.0700    0.0000 H   0  0  0  0  0  0  0  0  0  0  0  0
    6.7976    1.0700    0.0000 H   0  0  0  0  0  0  0  0  0  0  0  0
    2.8660    0.7150    0.0000 H   0  0  0  0  0  0  0  0  0  0  0  0
    7.6636   -0.3799    0.0000 H   0  0  0  0  0  0  0  0  0  0  0  0
    8.4607   -0.3799    0.0000 H   0  0  0  0  0  0  0  0  0  0  0  0
    2.3100    1.1319    0.0000 H   0  0  0  0  0  0  0  0  0  0  0  0
    1.4631    0.9050    0.0000 H   0  0  0  0  0  0  0  0  0  0  0  0
    1.6900    0.0581    0.0000 H   0  0  0  0  0  0  0  0  0  0  0  0
    2.2460   -0.9050    0.0000 H   0  0  0  0  0  0  0  0  0  0  0  0
    2.8660   -1.5250    0.0000 H   0  0  0  0  0  0  0  0  0  0  0  0
    3.4860   -0.9050    0.0000 H   0  0  0  0  0  0  0  0  0  0  0  0
    9.3267    1.0700    0.0000 H   0  0  0  0  0  0  0  0  0  0  0  0
    8.5297    1.0700    0.0000 H   0  0  0  0  0  0  0  0  0  0  0  0
    6.8671    1.7850    0.0000 H   0  0  0  0  0  0  0  0  0  0  0  0
    9.7942   -0.5250    0.0000 H   0  0  0  0  0  0  0  0  0  0  0  0
    3.1951   -2.0950    0.0000 H   0  0  0  0  0  0  0  0  0  0  0  0
    6.0010   -2.0950    0.0000 H   0  0  0  0  0  0  0  0  0  0  0  0
    6.1181    3.6776    0.0000 H   0  0  0  0  0  0  0  0  0  0  0  0
    5.7196    2.9873    0.0000 H   0  0  0  0  0  0  0  0  0  0  0  0
   12.0632   -0.2150    0.0000 H   0  0  0  0  0  0  0  0  0  0  0  0
   10.9157   -0.7973    0.0000 H   0  0  0  0  0  0  0  0  0  0  0  0
   11.3142   -1.4876    0.0000 H   0  0  0  0  0  0  0  0  0  0  0  0
    3.1951   -3.7150    0.0000 H   0  0  0  0  0  0  0  0  0  0  0  0
    6.0010   -3.7150    0.0000 H   0  0  0  0  0  0  0  0  0  0  0  0
   12.9292    0.2850    0.0000 H   0  0  0  0  0  0  0  0  0  0  0  0
    7.4082    3.0124    0.0000 H   0  0  0  0  0  0  0  0  0  0  0  0
    7.8067    3.7027    0.0000 H   0  0  0  0  0  0  0  0  0  0  0  0
    3.9781   -4.9050    0.0000 H   0  0  0  0  0  0  0  0  0  0  0  0
    4.5981   -5.5250    0.0000 H   0  0  0  0  0  0  0  0  0  0  0  0
    5.2181   -4.9050    0.0000 H   0  0  0  0  0  0  0  0  0  0  0  0
   13.2583   -0.2850    0.0000 H   0  0  0  0  0  0  0  0  0  0  0  0
   11.8554   -2.7150    0.0000 H   0  0  0  0  0  0  0  0  0  0  0  0
    7.7331    4.9050    0.0000 H   0  0  0  0  0  0  0  0  0  0  0  0
   14.6613   -1.0950    0.0000 H   0  0  0  0  0  0  0  0  0  0  0  0
   13.2583   -3.5250    0.0000 H   0  0  0  0  0  0  0  0  0  0  0  0
   13.7910    2.9912    0.0000 H   0  0  0  0  0  0  0  0  0  0  0  0
   14.6613   -2.7150    0.0000 H   0  0  0  0  0  0  0  0  0  0  0  0
   13.2567    4.6354    0.0000 H   0  0  0  0  0  0  0  0  0  0  0  0
   11.5279    4.6354    0.0000 H   0  0  0  0  0  0  0  0  0  0  0  0
  1  4  2  0  0  0  0
  1  5  2  0  0  0  0
  1 11  1  0  0  0  0
  1 22  1  0  0  0  0
  2  9  2  0  0  0  0
  2 10  2  0  0  0  0
  2 14  1  0  0  0  0
  2 40  1  0  0  0  0
  3 40  1  0  0  0  0
  3 46  1  0  0  0  0
  6 21  2  0  0  0  0
  7 30  2  0  0  0  0
  8 35  1  0  0  0  0
  8 84  1  0  0  0  0
 15 11  1  6  0  0  0
 11 17  1  0  0  0  0
 12 21  1  0  0  0  0
 12 28  1  0  0  0  0
 12 65  1  0  0  0  0
 13 25  1  0  0  0  0
 13 30  1  0  0  0  0
 13 66  1  0  0  0  0
 29 14  1  1  0  0  0
 14 76  1  0  0  0  0
 15 16  1  0  0  0  0
 15 21  1  0  0  0  0
 15 47  1  0  0  0  0
 16 18  1  0  0  0  0
 16 48  1  0  0  0  0
 16 49  1  0  0  0  0
 17 19  1  0  0  0  0
 17 50  1  0  0  0  0
 17 51  1  0  0  0  0
 18 20  1  0  0  0  0
 18 52  1  0  0  0  0
 18 53  1  0  0  0  0
 19 23  1  0  0  0  0
 19 24  1  0  0  0  0
 19 54  1  0  0  0  0
 20 25  1  0  0  0  0
 20 55  1  0  0  0  0
 20 56  1  0  0  0  0
 22 26  2  0  0  0  0
 22 27  1  0  0  0  0
 23 57  1  0  0  0  0
 23 58  1  0  0  0  0
 23 59  1  0  0  0  0
 24 60  1  0  0  0  0
 24 61  1  0  0  0  0
 24 62  1  0  0  0  0
 25 63  1  0  0  0  0
 25 64  1  0  0  0  0
 26 32  1  0  0  0  0
 26 67  1  0  0  0  0
 27 33  2  0  0  0  0
 27 68  1  0  0  0  0
 28 35  1  0  0  0  0
 28 69  1  0  0  0  0
 28 70  1  0  0  0  0
 29 30  1  0  0  0  0
 29 31  1  0  0  0  0
 29 71  1  0  0  0  0
 31 36  1  0  0  0  0
 31 72  1  0  0  0  0
 31 73  1  0  0  0  0
 32 34  2  0  0  0  0
 32 74  1  0  0  0  0
 33 34  1  0  0  0  0
 33 75  1  0  0  0  0
 34 37  1  0  0  0  0
 35 77  1  0  0  0  0
 35 78  1  0  0  0  0
 36 38  2  0  0  0  0
 36 39  1  0  0  0  0
 37 79  1  0  0  0  0
 37 80  1  0  0  0  0
 37 81  1  0  0  0  0
 38 41  1  0  0  0  0
 38 82  1  0  0  0  0
 39 42  2  0  0  0  0
 39 83  1  0  0  0  0
 40 43  2  0  0  0  0
 41 44  2  0  0  0  0
 41 85  1  0  0  0  0
 42 44  1  0  0  0  0
 42 86  1  0  0  0  0
 43 45  1  0  0  0  0
 43 87  1  0  0  0  0
 44 88  1  0  0  0  0
 45 46  2  0  0  0  0
 45 89  1  0  0  0  0
 46 90  1  0  0  0  0
M  END
> <PUBCHEM_COMPOUND_CID>
508583
> <PUBCHEM_COMPOUND_CANONICALIZED>
1
> <PUBCHEM_CACTVS_COMPLEXITY>
1140
> <PUBCHEM_CACTVS_HBOND_ACCEPTOR>
10
> <PUBCHEM_CACTVS_HBOND_DONOR>
4
> <PUBCHEM_CACTVS_ROTATABLE_BOND>
19
> <PUBCHEM_CACTVS_SUBSKEYS>
AAADcfB/uABgAAAAAAAAAAAAAAAAASAAAAAwYAAAAAAAAAAB0AAAHgQQSAAADSjl2AayAYLAAgqMAiFSEHBDAZAgCBBIiJmIAIgKcDKgkTGUIAAglgC4iAcYiICOEAAAAAAAAAAgAAAAAAAAAAAAAAAAAA==
> <PUBCHEM_IUPAC_OPENEYE_NAME>
(2S)-N-(2-hydroxyethyl)-2-[isobutyl(p-tolylsulfonyl)amino]-6-[[(2S)-3-phenyl-2-(2-thienylsulfonylamino)propanoyl]amino]hexanamide
> <PUBCHEM_IUPAC_CAS_NAME>
(2S)-N-(2-hydroxyethyl)-2-[(4-methylphenyl)sulfonyl-(2-methylpropyl)amino]-6-[[(2S)-1-oxo-3-phenyl-2-(thiophen-2-ylsulfonylamino)propyl]amino]hexanamide
> <PUBCHEM_IUPAC_NAME_MARKUP>
(2<I>S</I>)-<I>N</I>-(2-hydroxyethyl)-2-[(4-methylphenyl)sulfonyl-(2-methylpropyl)amino]-6-[[(2<I>S</I>)-3-phenyl-2-(thiophen-2-ylsulfonylamino)propanoyl]amino]hexanamide
> <PUBCHEM_IUPAC_NAME>
(2S)-N-(2-hydroxyethyl)-2-[(4-methylphenyl)sulfonyl-(2-methylpropyl)amino]-6-[[(2S)-3-phenyl-2-(thiophen-2-ylsulfonylamino)propanoyl]amino]hexanamide
> <PUBCHEM_IUPAC_SYSTEMATIC_NAME>
(2S)-N-(2-hydroxyethyl)-2-[(4-methylphenyl)sulfonyl-(2-methylpropyl)amino]-6-[[(2S)-3-phenyl-2-(thiophen-2-ylsulfonylamino)propanoyl]amino]hexanamide
> <PUBCHEM_IUPAC_TRADITIONAL_NAME>
(2S)-N-(2-hydroxyethyl)-2-[isobutyl(tosyl)amino]-6-[[(2S)-3-phenyl-2-(2-thienylsulfonylamino)propanoyl]amino]hexanamide
> <PUBCHEM_IUPAC_INCHI>
InChI=1S/C32H44N4O7S3/c1-24(2)23-36(46(42,43)27-16-14-25(3)15-17-27)29(32(39)34-19-20-37)12-7-8-18-33-31(38)28(22-26-10-5-4-6-11-26)35-45(40,41)30-13-9-21-44-30/h4-6,9-11,13-17,21,24,28-29,35,37H,7-8,12,18-20,22-23H2,1-3H3,(H,33,38)(H,34,39)/t28-,29-/m0/s1
> <PUBCHEM_IUPAC_INCHIKEY>
KQUIIHNGYWIPTJ-VMPREFPWSA-N
> <PUBCHEM_XLOGP3_AA>
4.5
> <PUBCHEM_EXACT_MASS>
692.23721328
> <PUBCHEM_MOLECULAR_FORMULA>
C32H44N4O7S3
> <PUBCHEM_MOLECULAR_WEIGHT>
692.9
> <PUBCHEM_OPENEYE_CAN_SMILES>
CC1=CC=C(C=C1)S(=O)(=O)N(CC(C)C)C(CCCCNC(=O)C(CC2=CC=CC=C2)NS(=O)(=O)C3=CC=CS3)C(=O)NCCO
> <PUBCHEM_OPENEYE_ISO_SMILES>
CC1=CC=C(C=C1)S(=O)(=O)N(CC(C)C)[C@@H](CCCCNC(=O)[C@H](CC2=CC=CC=C2)NS(=O)(=O)C3=CC=CS3)C(=O)NCCO
> <PUBCHEM_CACTVS_TPSA>
207
> <PUBCHEM_MONOISOTOPIC_WEIGHT>
692.23721328
> <PUBCHEM_TOTAL_CHARGE>
0
> <PUBCHEM_HEAVY_ATOM_COUNT>
46
> <PUBCHEM_ATOM_DEF_STEREO_COUNT>
2
> <PUBCHEM_ATOM_UDEF_STEREO_COUNT>
0
> <PUBCHEM_BOND_DEF_STEREO_COUNT>
0
> <PUBCHEM_BOND_UDEF_STEREO_COUNT>
0
> <PUBCHEM_ISOTOPIC_ATOM_COUNT>
0
> <PUBCHEM_COMPONENT_COUNT>
1
> <PUBCHEM_CACTVS_TAUTO_COUNT>
-1
> <PUBCHEM_COORDINATE_TYPE>
1
5
255
> <PUBCHEM_BONDANNOTATIONS>
15  11  6
29  14  5
22  26  8
22  27  8
26  32  8
27  33  8
3  40  8
3  46  8
32  34  8
33  34  8
36  38  8
36  39  8
38  41  8
39  42  8
40  43  8
41  44  8
42  44  8
43  45  8
45  46  8
$$$$
