508500
  -OEChem-10302200282D
103103  0     1  0  0  0  0  0999 V2000
    9.0223    2.1133    0.0000 O   0  0  0  0  0  0  0  0  0  0  0  0
   10.7016   -0.9353    0.0000 O   0  0  0  0  0  0  0  0  0  0  0  0
    8.0984   -3.7631    0.0000 O   0  0  0  0  0  0  0  0  0  0  0  0
    4.3073   -3.1305    0.0000 O   0  0  0  0  0  0  0  0  0  0  0  0
    8.7091    3.6070    0.0000 O   0  0  0  0  0  0  0  0  0  0  0  0
    2.6010   -1.8976    0.0000 O   0  0  0  0  0  0  0  0  0  0  0  0
    2.7634    0.3893    0.0000 O   0  0  0  0  0  0  0  0  0  0  0  0
    2.8623    2.4921    0.0000 O   0  0  0  0  0  0  0  0  0  0  0  0
    4.8656    3.6070    0.0000 O   0  0  0  0  0  0  0  0  0  0  0  0
    9.3305   -1.6056    0.0000 N   0  0  0  0  0  0  0  0  0  0  0  0
    6.7873   -2.9819    0.0000 N   0  0  0  0  0  0  0  0  0  0  0  0
    4.2442   -1.6056    0.0000 N   0  0  0  0  0  0  0  0  0  0  0  0
    4.0054    1.2761    0.0000 N   0  0  0  0  0  0  0  0  0  0  0  0
    6.2873    3.0522    0.0000 N   0  0  0  0  0  0  0  0  0  0  0  0
    8.6532   -2.3413    0.0000 C   0  0  1  0  0  0  0  0  0  0  0  0
    9.8147    0.3067    0.0000 C   0  0  2  0  0  0  0  0  0  0  0  0
    9.5692    1.2761    0.0000 C   0  0  1  0  0  0  0  0  0  0  0  0
    9.2674   -3.1305    0.0000 C   0  0  0  0  0  0  0  0  0  0  0  0
    5.8010   -2.8173    0.0000 C   0  0  1  0  0  0  0  0  0  0  0  0
   10.4850    1.6778    0.0000 C   0  0  0  0  0  0  0  0  0  0  0  0
   10.1939   -3.5068    0.0000 C   0  0  0  0  0  0  0  0  0  0  0  0
    5.4763   -3.7631    0.0000 C   0  0  1  0  0  0  0  0  0  0  0  0
    9.7322   -0.6898    0.0000 C   0  0  0  0  0  0  0  0  0  0  0  0
    7.7737   -2.8173    0.0000 C   0  0  0  0  0  0  0  0  0  0  0  0
   10.5950    2.6718    0.0000 C   0  0  0  0  0  0  0  0  0  0  0  0
   10.8113    0.3893    0.0000 C   0  0  0  0  0  0  0  0  0  0  0  0
    6.1330   -4.5172    0.0000 C   0  0  0  0  0  0  0  0  0  0  0  0
   11.5108    3.0735    0.0000 C   0  0  0  0  0  0  0  0  0  0  0  0
   10.1676   -2.1526    0.0000 C   0  0  0  0  0  0  0  0  0  0  0  0
    4.9215   -2.3413    0.0000 C   0  0  0  0  0  0  0  0  0  0  0  0
   10.3312   -4.4973    0.0000 C   0  0  0  0  0  0  0  0  0  0  0  0
   10.9830   -2.8926    0.0000 C   0  0  0  0  0  0  0  0  0  0  0  0
    4.4948   -3.9548    0.0000 C   0  0  0  0  0  0  0  0  0  0  0  0
   11.6208    4.0674    0.0000 C   0  0  0  0  0  0  0  0  0  0  0  0
    5.8083   -5.4630    0.0000 C   0  0  0  0  0  0  0  0  0  0  0  0
    3.8425   -0.6898    0.0000 C   0  0  1  0  0  0  0  0  0  0  0  0
   12.5366    4.4691    0.0000 C   0  0  0  0  0  0  0  0  0  0  0  0
    8.2332    2.7275    0.0000 C   0  0  0  0  0  0  0  0  0  0  0  0
    4.5524    2.1133    0.0000 C   0  0  2  0  0  0  0  0  0  0  0  0
    7.2873    3.0522    0.0000 C   0  0  0  0  0  0  0  0  0  0  0  0
    3.7600    0.3067    0.0000 C   0  0  0  0  0  0  0  0  0  0  0  0
    2.8731   -0.9353    0.0000 C   0  0  0  0  0  0  0  0  0  0  0  0
   12.6466    5.4630    0.0000 C   0  0  0  0  0  0  0  0  0  0  0  0
    3.8167    2.7906    0.0000 C   0  0  2  0  0  0  0  0  0  0  0  0
    5.3415    2.7275    0.0000 C   0  0  0  0  0  0  0  0  0  0  0  0
    4.0353    3.7664    0.0000 C   0  0  0  0  0  0  0  0  0  0  0  0
    9.2726   -2.3670    0.0000 H   0  0  0  0  0  0  0  0  0  0  0  0
   10.2531   -0.1317    0.0000 H   0  0  0  0  0  0  0  0  0  0  0  0
    9.7462    1.8704    0.0000 H   0  0  0  0  0  0  0  0  0  0  0  0
    8.6774   -3.3210    0.0000 H   0  0  0  0  0  0  0  0  0  0  0  0
    9.6414   -2.6360    0.0000 H   0  0  0  0  0  0  0  0  0  0  0  0
    6.2361   -3.5475    0.0000 H   0  0  0  0  0  0  0  0  0  0  0  0
   10.6317    1.0754    0.0000 H   0  0  0  0  0  0  0  0  0  0  0  0
   11.1037    1.7177    0.0000 H   0  0  0  0  0  0  0  0  0  0  0  0
    9.7046   -3.8876    0.0000 H   0  0  0  0  0  0  0  0  0  0  0  0
    5.2750   -4.3495    0.0000 H   0  0  0  0  0  0  0  0  0  0  0  0
   10.4484    3.2742    0.0000 H   0  0  0  0  0  0  0  0  0  0  0  0
    9.9763    2.6319    0.0000 H   0  0  0  0  0  0  0  0  0  0  0  0
    6.7873   -3.6019    0.0000 H   0  0  0  0  0  0  0  0  0  0  0  0
   10.8625   -0.2286    0.0000 H   0  0  0  0  0  0  0  0  0  0  0  0
   11.4292    0.4405    0.0000 H   0  0  0  0  0  0  0  0  0  0  0  0
   10.7601    1.0072    0.0000 H   0  0  0  0  0  0  0  0  0  0  0  0
    6.6756   -4.8173    0.0000 H   0  0  0  0  0  0  0  0  0  0  0  0
    6.5228   -4.0350    0.0000 H   0  0  0  0  0  0  0  0  0  0  0  0
   11.6575    2.4711    0.0000 H   0  0  0  0  0  0  0  0  0  0  0  0
   12.1295    3.1133    0.0000 H   0  0  0  0  0  0  0  0  0  0  0  0
    9.8285   -2.6716    0.0000 H   0  0  0  0  0  0  0  0  0  0  0  0
   10.6867   -2.4917    0.0000 H   0  0  0  0  0  0  0  0  0  0  0  0
   10.5067   -1.6335    0.0000 H   0  0  0  0  0  0  0  0  0  0  0  0
    9.7171   -4.5825    0.0000 H   0  0  0  0  0  0  0  0  0  0  0  0
   10.4164   -5.1114    0.0000 H   0  0  0  0  0  0  0  0  0  0  0  0
   10.9454   -4.4121    0.0000 H   0  0  0  0  0  0  0  0  0  0  0  0
   11.3638   -3.3818    0.0000 H   0  0  0  0  0  0  0  0  0  0  0  0
   11.4723   -2.5118    0.0000 H   0  0  0  0  0  0  0  0  0  0  0  0
   10.6022   -2.4033    0.0000 H   0  0  0  0  0  0  0  0  0  0  0  0
    4.3760   -3.3463    0.0000 H   0  0  0  0  0  0  0  0  0  0  0  0
    3.8863   -4.0737    0.0000 H   0  0  0  0  0  0  0  0  0  0  0  0
    4.6137   -4.5633    0.0000 H   0  0  0  0  0  0  0  0  0  0  0  0
   11.4741    4.6698    0.0000 H   0  0  0  0  0  0  0  0  0  0  0  0
   11.0021    4.0276    0.0000 H   0  0  0  0  0  0  0  0  0  0  0  0
    3.7252   -1.9447    0.0000 H   0  0  0  0  0  0  0  0  0  0  0  0
    5.2219   -5.2617    0.0000 H   0  0  0  0  0  0  0  0  0  0  0  0
    5.6070   -6.0494    0.0000 H   0  0  0  0  0  0  0  0  0  0  0  0
    6.3947   -5.6643    0.0000 H   0  0  0  0  0  0  0  0  0  0  0  0
    3.5702   -1.2468    0.0000 H   0  0  0  0  0  0  0  0  0  0  0  0
   12.6833    3.8667    0.0000 H   0  0  0  0  0  0  0  0  0  0  0  0
   13.1553    4.5089    0.0000 H   0  0  0  0  0  0  0  0  0  0  0  0
    3.7089    2.0082    0.0000 H   0  0  0  0  0  0  0  0  0  0  0  0
    7.7073    3.5084    0.0000 H   0  0  0  0  0  0  0  0  0  0  0  0
    7.1853    2.4407    0.0000 H   0  0  0  0  0  0  0  0  0  0  0  0
    2.8276   -0.3170    0.0000 H   0  0  0  0  0  0  0  0  0  0  0  0
    2.2563   -0.8728    0.0000 H   0  0  0  0  0  0  0  0  0  0  0  0
    3.4377    1.5252    0.0000 H   0  0  0  0  0  0  0  0  0  0  0  0
   13.2628    5.3948    0.0000 H   0  0  0  0  0  0  0  0  0  0  0  0
   12.7148    6.0793    0.0000 H   0  0  0  0  0  0  0  0  0  0  0  0
   12.0304    5.5312    0.0000 H   0  0  0  0  0  0  0  0  0  0  0  0
    3.6811    2.1856    0.0000 H   0  0  0  0  0  0  0  0  0  0  0  0
    6.1853    3.6638    0.0000 H   0  0  0  0  0  0  0  0  0  0  0  0
    4.6403    3.6308    0.0000 H   0  0  0  0  0  0  0  0  0  0  0  0
    4.1709    4.3714    0.0000 H   0  0  0  0  0  0  0  0  0  0  0  0
    3.4304    3.9020    0.0000 H   0  0  0  0  0  0  0  0  0  0  0  0
    2.0000   -2.0498    0.0000 H   0  0  0  0  0  0  0  0  0  0  0  0
    2.4061    2.9120    0.0000 H   0  0  0  0  0  0  0  0  0  0  0  0
  1 17  1  0  0  0  0
  1 38  1  0  0  0  0
  2 23  2  0  0  0  0
  3 24  2  0  0  0  0
  4 30  2  0  0  0  0
  5 38  2  0  0  0  0
  6 42  1  0  0  0  0
  6102  1  0  0  0  0
  7 41  2  0  0  0  0
 44  8  1  1  0  0  0
  8103  1  0  0  0  0
  9 45  2  0  0  0  0
 10 15  1  0  0  0  0
 10 23  1  0  0  0  0
 10 29  1  0  0  0  0
 11 19  1  0  0  0  0
 11 24  1  0  0  0  0
 11 59  1  0  0  0  0
 12 30  1  0  0  0  0
 12 36  1  0  0  0  0
 12 81  1  0  0  0  0
 13 39  1  0  0  0  0
 13 41  1  0  0  0  0
 13 93  1  0  0  0  0
 14 40  1  0  0  0  0
 14 45  1  0  0  0  0
 14 98  1  0  0  0  0
 15 18  1  1  0  0  0
 15 24  1  0  0  0  0
 15 47  1  0  0  0  0
 16 17  1  0  0  0  0
 16 23  1  0  0  0  0
 16 26  1  1  0  0  0
 16 48  1  0  0  0  0
 17 20  1  6  0  0  0
 17 49  1  0  0  0  0
 18 21  1  0  0  0  0
 18 50  1  0  0  0  0
 18 51  1  0  0  0  0
 19 22  1  0  0  0  0
 19 30  1  0  0  0  0
 19 52  1  6  0  0  0
 20 25  1  0  0  0  0
 20 53  1  0  0  0  0
 20 54  1  0  0  0  0
 21 31  1  0  0  0  0
 21 32  1  0  0  0  0
 21 55  1  0  0  0  0
 22 27  1  0  0  0  0
 22 33  1  1  0  0  0
 22 56  1  0  0  0  0
 25 28  1  0  0  0  0
 25 57  1  0  0  0  0
 25 58  1  0  0  0  0
 26 60  1  0  0  0  0
 26 61  1  0  0  0  0
 26 62  1  0  0  0  0
 27 35  1  0  0  0  0
 27 63  1  0  0  0  0
 27 64  1  0  0  0  0
 28 34  1  0  0  0  0
 28 65  1  0  0  0  0
 28 66  1  0  0  0  0
 29 67  1  0  0  0  0
 29 68  1  0  0  0  0
 29 69  1  0  0  0  0
 31 70  1  0  0  0  0
 31 71  1  0  0  0  0
 31 72  1  0  0  0  0
 32 73  1  0  0  0  0
 32 74  1  0  0  0  0
 32 75  1  0  0  0  0
 33 76  1  0  0  0  0
 33 77  1  0  0  0  0
 33 78  1  0  0  0  0
 34 37  1  0  0  0  0
 34 79  1  0  0  0  0
 34 80  1  0  0  0  0
 35 82  1  0  0  0  0
 35 83  1  0  0  0  0
 35 84  1  0  0  0  0
 36 41  1  0  0  0  0
 36 42  1  6  0  0  0
 36 85  1  0  0  0  0
 37 43  1  0  0  0  0
 37 86  1  0  0  0  0
 37 87  1  0  0  0  0
 38 40  1  0  0  0  0
 39 44  1  0  0  0  0
 39 45  1  0  0  0  0
 39 88  1  1  0  0  0
 40 89  1  0  0  0  0
 40 90  1  0  0  0  0
 42 91  1  0  0  0  0
 42 92  1  0  0  0  0
 43 94  1  0  0  0  0
 43 95  1  0  0  0  0
 43 96  1  0  0  0  0
 44 46  1  0  0  0  0
 44 97  1  0  0  0  0
 46 99  1  0  0  0  0
 46100  1  0  0  0  0
 46101  1  0  0  0  0
M  END
> <PUBCHEM_COMPOUND_CID>
508500
> <PUBCHEM_COMPOUND_CANONICALIZED>
1
> <PUBCHEM_CACTVS_COMPLEXITY>
1040
> <PUBCHEM_CACTVS_HBOND_ACCEPTOR>
9
> <PUBCHEM_CACTVS_HBOND_DONOR>
6
> <PUBCHEM_CACTVS_ROTATABLE_BOND>
11
> <PUBCHEM_CACTVS_SUBSKEYS>
AAADcfB/vAAAAAAAAAAAAAAAAAAAAAAAAAAAAAAAAAAAAAAAAAAAHgAQCAAADTzhgAYCCAPABgAIAAGQGAAAAAAAAAAAAIGIAAACUBYAgCAXQAAGNgCQAAGYyOCOAAAAAAAAAAAAAAAAAAAAAAAAAAAAAA==
> <PUBCHEM_IUPAC_OPENEYE_NAME>
(6R,9R,12S,15S,18R,19R)-19-hexyl-6-[(1S)-1-hydroxyethyl]-9-(hydroxymethyl)-15-isobutyl-16,18-dimethyl-12-[(1R)-1-methylpropyl]-1-oxa-4,7,10,13,16-pentazacyclononadecane-2,5,8,11,14,17-hexone
> <PUBCHEM_IUPAC_CAS_NAME>
(6R,9R,12S,15S,18R,19R)-12-[(2R)-butan-2-yl]-19-hexyl-6-[(1S)-1-hydroxyethyl]-9-(hydroxymethyl)-16,18-dimethyl-15-(2-methylpropyl)-1-oxa-4,7,10,13,16-pentazacyclononadecane-2,5,8,11,14,17-hexone
> <PUBCHEM_IUPAC_NAME_MARKUP>
(6<I>R</I>,9<I>R</I>,12<I>S</I>,15<I>S</I>,18<I>R</I>,19<I>R</I>)-12-[(2<I>R</I>)-butan-2-yl]-19-hexyl-6-[(1<I>S</I>)-1-hydroxyethyl]-9-(hydroxymethyl)-16,18-dimethyl-15-(2-methylpropyl)-1-oxa-4,7,10,13,16-pentazacyclononadecane-2,5,8,11,14,17-hexone
> <PUBCHEM_IUPAC_NAME>
(6R,9R,12S,15S,18R,19R)-12-[(2R)-butan-2-yl]-19-hexyl-6-[(1S)-1-hydroxyethyl]-9-(hydroxymethyl)-16,18-dimethyl-15-(2-methylpropyl)-1-oxa-4,7,10,13,16-pentazacyclononadecane-2,5,8,11,14,17-hexone
> <PUBCHEM_IUPAC_SYSTEMATIC_NAME>
(6R,9R,12S,15S,18R,19R)-12-[(2R)-butan-2-yl]-19-hexyl-9-(hydroxymethyl)-16,18-dimethyl-15-(2-methylpropyl)-6-[(1S)-1-oxidanylethyl]-1-oxa-4,7,10,13,16-pentazacyclononadecane-2,5,8,11,14,17-hexone
> <PUBCHEM_IUPAC_TRADITIONAL_NAME>
(6R,9R,12S,15S,18R,19R)-19-hexyl-6-[(1S)-1-hydroxyethyl]-15-isobutyl-16,18-dimethyl-9-methylol-12-[(1R)-1-methylpropyl]-1-oxa-4,7,10,13,16-pentazacyclononadecane-2,5,8,11,14,17-triquinone
> <PUBCHEM_IUPAC_INCHI>
InChI=1S/C32H57N5O9/c1-9-11-12-13-14-24-20(6)32(45)37(8)23(15-18(3)4)29(42)35-26(19(5)10-2)31(44)34-22(17-38)28(41)36-27(21(7)39)30(43)33-16-25(40)46-24/h18-24,26-27,38-39H,9-17H2,1-8H3,(H,33,43)(H,34,44)(H,35,42)(H,36,41)/t19-,20-,21+,22-,23+,24-,26+,27-/m1/s1
> <PUBCHEM_IUPAC_INCHIKEY>
VFGBXFZXJAWPOE-UEMXSQFKSA-N
> <PUBCHEM_XLOGP3_AA>
3.9
> <PUBCHEM_EXACT_MASS>
655.41562841
> <PUBCHEM_MOLECULAR_FORMULA>
C32H57N5O9
> <PUBCHEM_MOLECULAR_WEIGHT>
655.8
> <PUBCHEM_OPENEYE_CAN_SMILES>
CCCCCCC1C(C(=O)N(C(C(=O)NC(C(=O)NC(C(=O)NC(C(=O)NCC(=O)O1)C(C)O)CO)C(C)CC)CC(C)C)C)C
> <PUBCHEM_OPENEYE_ISO_SMILES>
CCCCCC[C@@H]1[C@H](C(=O)N([C@H](C(=O)N[C@H](C(=O)N[C@@H](C(=O)N[C@@H](C(=O)NCC(=O)O1)[C@H](C)O)CO)[C@H](C)CC)CC(C)C)C)C
> <PUBCHEM_CACTVS_TPSA>
204
> <PUBCHEM_MONOISOTOPIC_WEIGHT>
655.41562841
> <PUBCHEM_TOTAL_CHARGE>
0
> <PUBCHEM_HEAVY_ATOM_COUNT>
46
> <PUBCHEM_ATOM_DEF_STEREO_COUNT>
8
> <PUBCHEM_ATOM_UDEF_STEREO_COUNT>
0
> <PUBCHEM_BOND_DEF_STEREO_COUNT>
0
> <PUBCHEM_BOND_UDEF_STEREO_COUNT>
0
> <PUBCHEM_ISOTOPIC_ATOM_COUNT>
0
> <PUBCHEM_COMPONENT_COUNT>
1
> <PUBCHEM_CACTVS_TAUTO_COUNT>
324
> <PUBCHEM_COORDINATE_TYPE>
1
5
255
> <PUBCHEM_BONDANNOTATIONS>
15  18  5
16  26  5
17  20  6
19  52  6
22  33  5
36  42  6
39  88  5
44  8  5
$$$$
