508546
  -OEChem-10302200282D
 88 90  0     1  0  0  0  0  0999 V2000
    3.7320    4.7500    0.0000 S   0  0  0  0  0  0  0  0  0  0  0  0
    6.3301   -3.7500    0.0000 S   0  0  0  0  0  0  0  0  0  0  0  0
    6.3301   -8.7500    0.0000 F   0  0  0  0  0  0  0  0  0  0  0  0
    5.3301   -7.7500    0.0000 F   0  0  0  0  0  0  0  0  0  0  0  0
    7.3301   -7.7500    0.0000 F   0  0  0  0  0  0  0  0  0  0  0  0
    2.7320    4.7500    0.0000 O   0  0  0  0  0  0  0  0  0  0  0  0
    4.7320    4.7500    0.0000 O   0  0  0  0  0  0  0  0  0  0  0  0
    6.3301    3.2500    0.0000 O   0  0  0  0  0  0  0  0  0  0  0  0
    5.4641    4.7500    0.0000 O   0  0  0  0  0  0  0  0  0  0  0  0
    8.0622   -0.7500    0.0000 O   0  0  0  0  0  0  0  0  0  0  0  0
    7.3301   -3.7500    0.0000 O   0  0  0  0  0  0  0  0  0  0  0  0
    5.3301   -3.7500    0.0000 O   0  0  0  0  0  0  0  0  0  0  0  0
    3.7320    3.7500    0.0000 N   0  0  3  0  0  0  0  0  0  0  0  0
    6.3301   -0.7500    0.0000 N   0  0  0  0  0  0  0  0  0  0  0  0
    6.3301   -2.7500    0.0000 N   0  0  0  0  0  0  0  0  0  0  0  0
    4.5981    3.2500    0.0000 C   0  0  1  0  0  0  0  0  0  0  0  0
    4.5981    2.2500    0.0000 C   0  0  0  0  0  0  0  0  0  0  0  0
    2.8660    3.2500    0.0000 C   0  0  0  0  0  0  0  0  0  0  0  0
    2.8660    2.2500    0.0000 C   0  0  0  0  0  0  0  0  0  0  0  0
    5.4641    1.7500    0.0000 C   0  0  0  0  0  0  0  0  0  0  0  0
    5.4641    0.7500    0.0000 C   0  0  0  0  0  0  0  0  0  0  0  0
    5.4641    3.7500    0.0000 C   0  0  0  0  0  0  0  0  0  0  0  0
    6.3301    0.2500    0.0000 C   0  0  0  0  0  0  0  0  0  0  0  0
    3.7320    5.7500    0.0000 C   0  0  0  0  0  0  0  0  0  0  0  0
    2.0000    1.7500    0.0000 C   0  0  0  0  0  0  0  0  0  0  0  0
    3.7320    1.7500    0.0000 C   0  0  0  0  0  0  0  0  0  0  0  0
    7.1962   -2.2500    0.0000 C   0  0  2  0  0  0  0  0  0  0  0  0
    4.5981    6.2500    0.0000 C   0  0  0  0  0  0  0  0  0  0  0  0
    2.8660    6.2500    0.0000 C   0  0  0  0  0  0  0  0  0  0  0  0
    7.1962   -1.2500    0.0000 C   0  0  0  0  0  0  0  0  0  0  0  0
    8.0622   -2.7500    0.0000 C   0  0  0  0  0  0  0  0  0  0  0  0
    4.5981    7.2500    0.0000 C   0  0  0  0  0  0  0  0  0  0  0  0
    2.8660    7.2500    0.0000 C   0  0  0  0  0  0  0  0  0  0  0  0
    3.7320    7.7500    0.0000 C   0  0  0  0  0  0  0  0  0  0  0  0
    8.9282   -2.2500    0.0000 C   0  0  0  0  0  0  0  0  0  0  0  0
    6.3301   -4.7500    0.0000 C   0  0  0  0  0  0  0  0  0  0  0  0
    3.7320    8.7500    0.0000 C   0  0  0  0  0  0  0  0  0  0  0  0
    9.7942   -2.7500    0.0000 C   0  0  0  0  0  0  0  0  0  0  0  0
    8.9282   -1.2500    0.0000 C   0  0  0  0  0  0  0  0  0  0  0  0
    5.4641   -5.2500    0.0000 C   0  0  0  0  0  0  0  0  0  0  0  0
    7.1962   -5.2500    0.0000 C   0  0  0  0  0  0  0  0  0  0  0  0
   10.6603   -2.2500    0.0000 C   0  0  0  0  0  0  0  0  0  0  0  0
    9.7942   -0.7500    0.0000 C   0  0  0  0  0  0  0  0  0  0  0  0
   10.6603   -1.2500    0.0000 C   0  0  0  0  0  0  0  0  0  0  0  0
    5.4641   -6.2500    0.0000 C   0  0  0  0  0  0  0  0  0  0  0  0
    7.1962   -6.2500    0.0000 C   0  0  0  0  0  0  0  0  0  0  0  0
    6.3301   -6.7500    0.0000 C   0  0  0  0  0  0  0  0  0  0  0  0
    6.3301   -7.7500    0.0000 C   0  0  0  0  0  0  0  0  0  0  0  0
    4.5981    3.8700    0.0000 H   0  0  0  0  0  0  0  0  0  0  0  0
    3.9875    2.3577    0.0000 H   0  0  0  0  0  0  0  0  0  0  0  0
    4.3860    1.6674    0.0000 H   0  0  0  0  0  0  0  0  0  0  0  0
    2.6540    3.8326    0.0000 H   0  0  0  0  0  0  0  0  0  0  0  0
    2.2554    3.1423    0.0000 H   0  0  0  0  0  0  0  0  0  0  0  0
    2.8660    1.6300    0.0000 H   0  0  0  0  0  0  0  0  0  0  0  0
    6.0747    1.6423    0.0000 H   0  0  0  0  0  0  0  0  0  0  0  0
    5.6762    2.3326    0.0000 H   0  0  0  0  0  0  0  0  0  0  0  0
    4.8535    0.8577    0.0000 H   0  0  0  0  0  0  0  0  0  0  0  0
    5.2520    0.1674    0.0000 H   0  0  0  0  0  0  0  0  0  0  0  0
    6.9407    0.1423    0.0000 H   0  0  0  0  0  0  0  0  0  0  0  0
    6.5422    0.8326    0.0000 H   0  0  0  0  0  0  0  0  0  0  0  0
    1.6900    2.2869    0.0000 H   0  0  0  0  0  0  0  0  0  0  0  0
    1.4631    1.4400    0.0000 H   0  0  0  0  0  0  0  0  0  0  0  0
    2.3100    1.2131    0.0000 H   0  0  0  0  0  0  0  0  0  0  0  0
    3.4220    1.2131    0.0000 H   0  0  0  0  0  0  0  0  0  0  0  0
    4.2690    1.4400    0.0000 H   0  0  0  0  0  0  0  0  0  0  0  0
    4.0420    2.2869    0.0000 H   0  0  0  0  0  0  0  0  0  0  0  0
    5.7932   -1.0600    0.0000 H   0  0  0  0  0  0  0  0  0  0  0  0
    6.6592   -1.9400    0.0000 H   0  0  0  0  0  0  0  0  0  0  0  0
    5.1350    5.9400    0.0000 H   0  0  0  0  0  0  0  0  0  0  0  0
    2.3291    5.9400    0.0000 H   0  0  0  0  0  0  0  0  0  0  0  0
    7.6636   -3.2250    0.0000 H   0  0  0  0  0  0  0  0  0  0  0  0
    8.4607   -3.2250    0.0000 H   0  0  0  0  0  0  0  0  0  0  0  0
    6.8671    3.5600    0.0000 H   0  0  0  0  0  0  0  0  0  0  0  0
    5.7932   -2.4400    0.0000 H   0  0  0  0  0  0  0  0  0  0  0  0
    5.1350    7.5600    0.0000 H   0  0  0  0  0  0  0  0  0  0  0  0
    2.3291    7.5600    0.0000 H   0  0  0  0  0  0  0  0  0  0  0  0
    4.3520    8.7500    0.0000 H   0  0  0  0  0  0  0  0  0  0  0  0
    3.7320    9.3700    0.0000 H   0  0  0  0  0  0  0  0  0  0  0  0
    3.1120    8.7500    0.0000 H   0  0  0  0  0  0  0  0  0  0  0  0
    9.7942   -3.3700    0.0000 H   0  0  0  0  0  0  0  0  0  0  0  0
    8.3913   -0.9400    0.0000 H   0  0  0  0  0  0  0  0  0  0  0  0
    4.9272   -4.9400    0.0000 H   0  0  0  0  0  0  0  0  0  0  0  0
    7.7331   -4.9400    0.0000 H   0  0  0  0  0  0  0  0  0  0  0  0
   11.1972   -2.5600    0.0000 H   0  0  0  0  0  0  0  0  0  0  0  0
    9.7942   -0.1300    0.0000 H   0  0  0  0  0  0  0  0  0  0  0  0
   11.1972   -0.9400    0.0000 H   0  0  0  0  0  0  0  0  0  0  0  0
    4.9272   -6.5600    0.0000 H   0  0  0  0  0  0  0  0  0  0  0  0
    7.7331   -6.5600    0.0000 H   0  0  0  0  0  0  0  0  0  0  0  0
  1  6  2  0  0  0  0
  1  7  2  0  0  0  0
  1 13  1  0  0  0  0
  1 24  1  0  0  0  0
  2 11  2  0  0  0  0
  2 12  2  0  0  0  0
  2 15  1  0  0  0  0
  2 36  1  0  0  0  0
  3 48  1  0  0  0  0
  4 48  1  0  0  0  0
  5 48  1  0  0  0  0
  8 22  1  0  0  0  0
  8 73  1  0  0  0  0
  9 22  2  0  0  0  0
 10 30  2  0  0  0  0
 16 13  1  6  0  0  0
 13 18  1  0  0  0  0
 14 23  1  0  0  0  0
 14 30  1  0  0  0  0
 14 67  1  0  0  0  0
 27 15  1  6  0  0  0
 15 74  1  0  0  0  0
 16 17  1  0  0  0  0
 16 22  1  0  0  0  0
 16 49  1  0  0  0  0
 17 20  1  0  0  0  0
 17 50  1  0  0  0  0
 17 51  1  0  0  0  0
 18 19  1  0  0  0  0
 18 52  1  0  0  0  0
 18 53  1  0  0  0  0
 19 25  1  0  0  0  0
 19 26  1  0  0  0  0
 19 54  1  0  0  0  0
 20 21  1  0  0  0  0
 20 55  1  0  0  0  0
 20 56  1  0  0  0  0
 21 23  1  0  0  0  0
 21 57  1  0  0  0  0
 21 58  1  0  0  0  0
 23 59  1  0  0  0  0
 23 60  1  0  0  0  0
 24 28  2  0  0  0  0
 24 29  1  0  0  0  0
 25 61  1  0  0  0  0
 25 62  1  0  0  0  0
 25 63  1  0  0  0  0
 26 64  1  0  0  0  0
 26 65  1  0  0  0  0
 26 66  1  0  0  0  0
 27 30  1  0  0  0  0
 27 31  1  0  0  0  0
 27 68  1  0  0  0  0
 28 32  1  0  0  0  0
 28 69  1  0  0  0  0
 29 33  2  0  0  0  0
 29 70  1  0  0  0  0
 31 35  1  0  0  0  0
 31 71  1  0  0  0  0
 31 72  1  0  0  0  0
 32 34  2  0  0  0  0
 32 75  1  0  0  0  0
 33 34  1  0  0  0  0
 33 76  1  0  0  0  0
 34 37  1  0  0  0  0
 35 38  2  0  0  0  0
 35 39  1  0  0  0  0
 36 40  2  0  0  0  0
 36 41  1  0  0  0  0
 37 77  1  0  0  0  0
 37 78  1  0  0  0  0
 37 79  1  0  0  0  0
 38 42  1  0  0  0  0
 38 80  1  0  0  0  0
 39 43  2  0  0  0  0
 39 81  1  0  0  0  0
 40 45  1  0  0  0  0
 40 82  1  0  0  0  0
 41 46  2  0  0  0  0
 41 83  1  0  0  0  0
 42 44  2  0  0  0  0
 42 84  1  0  0  0  0
 43 44  1  0  0  0  0
 43 85  1  0  0  0  0
 44 86  1  0  0  0  0
 45 47  2  0  0  0  0
 45 87  1  0  0  0  0
 46 47  1  0  0  0  0
 46 88  1  0  0  0  0
 47 48  1  0  0  0  0
M  END
> <PUBCHEM_COMPOUND_CID>
508546
> <PUBCHEM_COMPOUND_CANONICALIZED>
1
> <PUBCHEM_CACTVS_COMPLEXITY>
1230
> <PUBCHEM_CACTVS_HBOND_ACCEPTOR>
12
> <PUBCHEM_CACTVS_HBOND_DONOR>
3
> <PUBCHEM_CACTVS_ROTATABLE_BOND>
17
> <PUBCHEM_CACTVS_SUBSKEYS>
AAADcfB/OYBgAAAAAAAAAAAAAAAAAAAAAAAwYMAAAAAAAAABUAAAHwQQSAAADSjB2BQyCYLAAgKIAiHSGHBCABAgAAAIiJmIAIgKYDKAkTGUYAAklgCYiAeYyICOEAAAAAAAAAAgAAAAAAAAAAAAAAAAAA==
> <PUBCHEM_IUPAC_OPENEYE_NAME>
(2S)-2-[isobutyl(p-tolylsulfonyl)amino]-6-[[(2S)-3-phenyl-2-[[4-(trifluoromethyl)phenyl]sulfonylamino]propanoyl]amino]hexanoic acid
> <PUBCHEM_IUPAC_CAS_NAME>
(2S)-2-[(4-methylphenyl)sulfonyl-(2-methylpropyl)amino]-6-[[(2S)-1-oxo-3-phenyl-2-[[4-(trifluoromethyl)phenyl]sulfonylamino]propyl]amino]hexanoic acid
> <PUBCHEM_IUPAC_NAME_MARKUP>
(2<I>S</I>)-2-[(4-methylphenyl)sulfonyl-(2-methylpropyl)amino]-6-[[(2<I>S</I>)-3-phenyl-2-[[4-(trifluoromethyl)phenyl]sulfonylamino]propanoyl]amino]hexanoic acid
> <PUBCHEM_IUPAC_NAME>
(2S)-2-[(4-methylphenyl)sulfonyl-(2-methylpropyl)amino]-6-[[(2S)-3-phenyl-2-[[4-(trifluoromethyl)phenyl]sulfonylamino]propanoyl]amino]hexanoic acid
> <PUBCHEM_IUPAC_SYSTEMATIC_NAME>
(2S)-2-[(4-methylphenyl)sulfonyl-(2-methylpropyl)amino]-6-[[(2S)-3-phenyl-2-[[4-(trifluoromethyl)phenyl]sulfonylamino]propanoyl]amino]hexanoic acid
> <PUBCHEM_IUPAC_TRADITIONAL_NAME>
(2S)-2-[isobutyl(tosyl)amino]-6-[[(2S)-3-phenyl-2-[[4-(trifluoromethyl)phenyl]sulfonylamino]propanoyl]amino]hexanoic acid
> <PUBCHEM_IUPAC_INCHI>
InChI=1S/C33H40F3N3O7S2/c1-23(2)22-39(48(45,46)28-16-12-24(3)13-17-28)30(32(41)42)11-7-8-20-37-31(40)29(21-25-9-5-4-6-10-25)38-47(43,44)27-18-14-26(15-19-27)33(34,35)36/h4-6,9-10,12-19,23,29-30,38H,7-8,11,20-22H2,1-3H3,(H,37,40)(H,41,42)/t29-,30-/m0/s1
> <PUBCHEM_IUPAC_INCHIKEY>
JDHXEYHXRRNDST-KYJUHHDHSA-N
> <PUBCHEM_XLOGP3_AA>
6.3
> <PUBCHEM_EXACT_MASS>
711.22597746
> <PUBCHEM_MOLECULAR_FORMULA>
C33H40F3N3O7S2
> <PUBCHEM_MOLECULAR_WEIGHT>
711.8
> <PUBCHEM_OPENEYE_CAN_SMILES>
CC1=CC=C(C=C1)S(=O)(=O)N(CC(C)C)C(CCCCNC(=O)C(CC2=CC=CC=C2)NS(=O)(=O)C3=CC=C(C=C3)C(F)(F)F)C(=O)O
> <PUBCHEM_OPENEYE_ISO_SMILES>
CC1=CC=C(C=C1)S(=O)(=O)N(CC(C)C)[C@@H](CCCCNC(=O)[C@H](CC2=CC=CC=C2)NS(=O)(=O)C3=CC=C(C=C3)C(F)(F)F)C(=O)O
> <PUBCHEM_CACTVS_TPSA>
167
> <PUBCHEM_MONOISOTOPIC_WEIGHT>
711.22597746
> <PUBCHEM_TOTAL_CHARGE>
0
> <PUBCHEM_HEAVY_ATOM_COUNT>
48
> <PUBCHEM_ATOM_DEF_STEREO_COUNT>
2
> <PUBCHEM_ATOM_UDEF_STEREO_COUNT>
0
> <PUBCHEM_BOND_DEF_STEREO_COUNT>
0
> <PUBCHEM_BOND_UDEF_STEREO_COUNT>
0
> <PUBCHEM_ISOTOPIC_ATOM_COUNT>
0
> <PUBCHEM_COMPONENT_COUNT>
1
> <PUBCHEM_CACTVS_TAUTO_COUNT>
-1
> <PUBCHEM_COORDINATE_TYPE>
1
5
255
> <PUBCHEM_BONDANNOTATIONS>
16  13  6
27  15  6
24  28  8
24  29  8
28  32  8
29  33  8
32  34  8
33  34  8
35  38  8
35  39  8
36  40  8
36  41  8
38  42  8
39  43  8
40  45  8
41  46  8
42  44  8
43  44  8
45  47  8
46  47  8
$$$$
