508551
  -OEChem-10302200282D
 91 93  0     1  0  0  0  0  0999 V2000
    3.7320    4.7500    0.0000 S   0  0  0  0  0  0  0  0  0  0  0  0
    6.3301   -3.7500    0.0000 S   0  0  0  0  0  0  0  0  0  0  0  0
    2.7320    4.7500    0.0000 O   0  0  0  0  0  0  0  0  0  0  0  0
    4.7320    4.7500    0.0000 O   0  0  0  0  0  0  0  0  0  0  0  0
    6.3301    3.2500    0.0000 O   0  0  0  0  0  0  0  0  0  0  0  0
    5.4641    4.7500    0.0000 O   0  0  0  0  0  0  0  0  0  0  0  0
    8.0622   -0.7500    0.0000 O   0  0  0  0  0  0  0  0  0  0  0  0
    7.3301   -3.7500    0.0000 O   0  0  0  0  0  0  0  0  0  0  0  0
    5.3301   -3.7500    0.0000 O   0  0  0  0  0  0  0  0  0  0  0  0
    2.8660    9.2500    0.0000 O   0  5  0  0  0  0  0  0  0  0  0  0
    4.5981    9.2500    0.0000 O   0  0  0  0  0  0  0  0  0  0  0  0
    4.5981   -7.7500    0.0000 O   0  0  0  0  0  0  0  0  0  0  0  0
    3.7320    3.7500    0.0000 N   0  0  3  0  0  0  0  0  0  0  0  0
    6.3301   -0.7500    0.0000 N   0  0  0  0  0  0  0  0  0  0  0  0
    6.3301   -2.7500    0.0000 N   0  0  0  0  0  0  0  0  0  0  0  0
    3.7320    8.7500    0.0000 N   0  3  0  0  0  0  0  0  0  0  0  0
    6.3301   -7.7500    0.0000 N   0  0  0  0  0  0  0  0  0  0  0  0
    4.5981    3.2500    0.0000 C   0  0  1  0  0  0  0  0  0  0  0  0
    4.5981    2.2500    0.0000 C   0  0  0  0  0  0  0  0  0  0  0  0
    2.8660    3.2500    0.0000 C   0  0  0  0  0  0  0  0  0  0  0  0
    2.8660    2.2500    0.0000 C   0  0  0  0  0  0  0  0  0  0  0  0
    5.4641    1.7500    0.0000 C   0  0  0  0  0  0  0  0  0  0  0  0
    5.4641    0.7500    0.0000 C   0  0  0  0  0  0  0  0  0  0  0  0
    5.4641    3.7500    0.0000 C   0  0  0  0  0  0  0  0  0  0  0  0
    6.3301    0.2500    0.0000 C   0  0  0  0  0  0  0  0  0  0  0  0
    2.0000    1.7500    0.0000 C   0  0  0  0  0  0  0  0  0  0  0  0
    3.7320    1.7500    0.0000 C   0  0  0  0  0  0  0  0  0  0  0  0
    3.7320    5.7500    0.0000 C   0  0  0  0  0  0  0  0  0  0  0  0
    7.1962   -2.2500    0.0000 C   0  0  2  0  0  0  0  0  0  0  0  0
    4.5981    6.2500    0.0000 C   0  0  0  0  0  0  0  0  0  0  0  0
    2.8660    6.2500    0.0000 C   0  0  0  0  0  0  0  0  0  0  0  0
    7.1962   -1.2500    0.0000 C   0  0  0  0  0  0  0  0  0  0  0  0
    8.0622   -2.7500    0.0000 C   0  0  0  0  0  0  0  0  0  0  0  0
    4.5981    7.2500    0.0000 C   0  0  0  0  0  0  0  0  0  0  0  0
    2.8660    7.2500    0.0000 C   0  0  0  0  0  0  0  0  0  0  0  0
    3.7320    7.7500    0.0000 C   0  0  0  0  0  0  0  0  0  0  0  0
    8.9282   -2.2500    0.0000 C   0  0  0  0  0  0  0  0  0  0  0  0
    6.3301   -4.7500    0.0000 C   0  0  0  0  0  0  0  0  0  0  0  0
    9.7942   -2.7500    0.0000 C   0  0  0  0  0  0  0  0  0  0  0  0
    8.9282   -1.2500    0.0000 C   0  0  0  0  0  0  0  0  0  0  0  0
    5.4641   -5.2500    0.0000 C   0  0  0  0  0  0  0  0  0  0  0  0
    7.1962   -5.2500    0.0000 C   0  0  0  0  0  0  0  0  0  0  0  0
   10.6603   -2.2500    0.0000 C   0  0  0  0  0  0  0  0  0  0  0  0
    9.7942   -0.7500    0.0000 C   0  0  0  0  0  0  0  0  0  0  0  0
   10.6603   -1.2500    0.0000 C   0  0  0  0  0  0  0  0  0  0  0  0
    5.4641   -6.2500    0.0000 C   0  0  0  0  0  0  0  0  0  0  0  0
    7.1962   -6.2500    0.0000 C   0  0  0  0  0  0  0  0  0  0  0  0
    6.3301   -6.7500    0.0000 C   0  0  0  0  0  0  0  0  0  0  0  0
    5.4641   -8.2500    0.0000 C   0  0  0  0  0  0  0  0  0  0  0  0
    5.4641   -9.2500    0.0000 C   0  0  0  0  0  0  0  0  0  0  0  0
    4.5981    3.8700    0.0000 H   0  0  0  0  0  0  0  0  0  0  0  0
    3.9875    2.3577    0.0000 H   0  0  0  0  0  0  0  0  0  0  0  0
    4.3860    1.6674    0.0000 H   0  0  0  0  0  0  0  0  0  0  0  0
    2.6540    3.8326    0.0000 H   0  0  0  0  0  0  0  0  0  0  0  0
    2.2554    3.1423    0.0000 H   0  0  0  0  0  0  0  0  0  0  0  0
    2.8660    1.6300    0.0000 H   0  0  0  0  0  0  0  0  0  0  0  0
    6.0747    1.6423    0.0000 H   0  0  0  0  0  0  0  0  0  0  0  0
    5.6762    2.3326    0.0000 H   0  0  0  0  0  0  0  0  0  0  0  0
    4.8535    0.8577    0.0000 H   0  0  0  0  0  0  0  0  0  0  0  0
    5.2520    0.1674    0.0000 H   0  0  0  0  0  0  0  0  0  0  0  0
    6.9407    0.1423    0.0000 H   0  0  0  0  0  0  0  0  0  0  0  0
    6.5422    0.8326    0.0000 H   0  0  0  0  0  0  0  0  0  0  0  0
    1.6900    2.2869    0.0000 H   0  0  0  0  0  0  0  0  0  0  0  0
    1.4631    1.4400    0.0000 H   0  0  0  0  0  0  0  0  0  0  0  0
    2.3100    1.2131    0.0000 H   0  0  0  0  0  0  0  0  0  0  0  0
    3.4220    1.2131    0.0000 H   0  0  0  0  0  0  0  0  0  0  0  0
    4.2690    1.4400    0.0000 H   0  0  0  0  0  0  0  0  0  0  0  0
    4.0420    2.2869    0.0000 H   0  0  0  0  0  0  0  0  0  0  0  0
    5.7932   -1.0600    0.0000 H   0  0  0  0  0  0  0  0  0  0  0  0
    6.6592   -1.9400    0.0000 H   0  0  0  0  0  0  0  0  0  0  0  0
    5.1350    5.9400    0.0000 H   0  0  0  0  0  0  0  0  0  0  0  0
    2.3291    5.9400    0.0000 H   0  0  0  0  0  0  0  0  0  0  0  0
    7.6636   -3.2250    0.0000 H   0  0  0  0  0  0  0  0  0  0  0  0
    8.4607   -3.2250    0.0000 H   0  0  0  0  0  0  0  0  0  0  0  0
    6.8671    3.5600    0.0000 H   0  0  0  0  0  0  0  0  0  0  0  0
    5.7932   -2.4400    0.0000 H   0  0  0  0  0  0  0  0  0  0  0  0
    5.1350    7.5600    0.0000 H   0  0  0  0  0  0  0  0  0  0  0  0
    2.3291    7.5600    0.0000 H   0  0  0  0  0  0  0  0  0  0  0  0
    9.7942   -3.3700    0.0000 H   0  0  0  0  0  0  0  0  0  0  0  0
    8.3913   -0.9400    0.0000 H   0  0  0  0  0  0  0  0  0  0  0  0
    4.9272   -4.9400    0.0000 H   0  0  0  0  0  0  0  0  0  0  0  0
    7.7331   -4.9400    0.0000 H   0  0  0  0  0  0  0  0  0  0  0  0
   11.1972   -2.5600    0.0000 H   0  0  0  0  0  0  0  0  0  0  0  0
    9.7942   -0.1300    0.0000 H   0  0  0  0  0  0  0  0  0  0  0  0
   11.1972   -0.9400    0.0000 H   0  0  0  0  0  0  0  0  0  0  0  0
    4.9272   -6.5600    0.0000 H   0  0  0  0  0  0  0  0  0  0  0  0
    7.7331   -6.5600    0.0000 H   0  0  0  0  0  0  0  0  0  0  0  0
    6.8671   -8.0600    0.0000 H   0  0  0  0  0  0  0  0  0  0  0  0
    4.8441   -9.2500    0.0000 H   0  0  0  0  0  0  0  0  0  0  0  0
    5.4641   -9.8700    0.0000 H   0  0  0  0  0  0  0  0  0  0  0  0
    6.0841   -9.2500    0.0000 H   0  0  0  0  0  0  0  0  0  0  0  0
  1  3  2  0  0  0  0
  1  4  2  0  0  0  0
  1 13  1  0  0  0  0
  1 28  1  0  0  0  0
  2  8  2  0  0  0  0
  2  9  2  0  0  0  0
  2 15  1  0  0  0  0
  2 38  1  0  0  0  0
  5 24  1  0  0  0  0
  5 75  1  0  0  0  0
  6 24  2  0  0  0  0
  7 32  2  0  0  0  0
 10 16  1  0  0  0  0
 11 16  2  0  0  0  0
 12 49  2  0  0  0  0
 18 13  1  6  0  0  0
 13 20  1  0  0  0  0
 14 25  1  0  0  0  0
 14 32  1  0  0  0  0
 14 69  1  0  0  0  0
 29 15  1  6  0  0  0
 15 76  1  0  0  0  0
 16 36  1  0  0  0  0
 17 48  1  0  0  0  0
 17 49  1  0  0  0  0
 17 88  1  0  0  0  0
 18 19  1  0  0  0  0
 18 24  1  0  0  0  0
 18 51  1  0  0  0  0
 19 22  1  0  0  0  0
 19 52  1  0  0  0  0
 19 53  1  0  0  0  0
 20 21  1  0  0  0  0
 20 54  1  0  0  0  0
 20 55  1  0  0  0  0
 21 26  1  0  0  0  0
 21 27  1  0  0  0  0
 21 56  1  0  0  0  0
 22 23  1  0  0  0  0
 22 57  1  0  0  0  0
 22 58  1  0  0  0  0
 23 25  1  0  0  0  0
 23 59  1  0  0  0  0
 23 60  1  0  0  0  0
 25 61  1  0  0  0  0
 25 62  1  0  0  0  0
 26 63  1  0  0  0  0
 26 64  1  0  0  0  0
 26 65  1  0  0  0  0
 27 66  1  0  0  0  0
 27 67  1  0  0  0  0
 27 68  1  0  0  0  0
 28 30  2  0  0  0  0
 28 31  1  0  0  0  0
 29 32  1  0  0  0  0
 29 33  1  0  0  0  0
 29 70  1  0  0  0  0
 30 34  1  0  0  0  0
 30 71  1  0  0  0  0
 31 35  2  0  0  0  0
 31 72  1  0  0  0  0
 33 37  1  0  0  0  0
 33 73  1  0  0  0  0
 33 74  1  0  0  0  0
 34 36  2  0  0  0  0
 34 77  1  0  0  0  0
 35 36  1  0  0  0  0
 35 78  1  0  0  0  0
 37 39  2  0  0  0  0
 37 40  1  0  0  0  0
 38 41  2  0  0  0  0
 38 42  1  0  0  0  0
 39 43  1  0  0  0  0
 39 79  1  0  0  0  0
 40 44  2  0  0  0  0
 40 80  1  0  0  0  0
 41 46  1  0  0  0  0
 41 81  1  0  0  0  0
 42 47  2  0  0  0  0
 42 82  1  0  0  0  0
 43 45  2  0  0  0  0
 43 83  1  0  0  0  0
 44 45  1  0  0  0  0
 44 84  1  0  0  0  0
 45 85  1  0  0  0  0
 46 48  2  0  0  0  0
 46 86  1  0  0  0  0
 47 48  1  0  0  0  0
 47 87  1  0  0  0  0
 49 50  1  0  0  0  0
 50 89  1  0  0  0  0
 50 90  1  0  0  0  0
 50 91  1  0  0  0  0
M  CHG  2  10  -1  16   1
M  END
> <PUBCHEM_COMPOUND_CID>
508551
> <PUBCHEM_COMPOUND_CANONICALIZED>
1
> <PUBCHEM_CACTVS_COMPLEXITY>
1340
> <PUBCHEM_CACTVS_HBOND_ACCEPTOR>
12
> <PUBCHEM_CACTVS_HBOND_DONOR>
4
> <PUBCHEM_CACTVS_ROTATABLE_BOND>
18
> <PUBCHEM_CACTVS_SUBSKEYS>
AAADcfB/vABgAAAAAAAAAAAAAAAAAAAAAAAwYMAAAAAAAAABUAAAHgQUSAAADSjB2AQyyYLQQgKJAiXSW3DCABAhAgAoiJmIZIoKYDLAkbGUYAhklgDYyAeYyICOAAQAAAAAAAAACAAAAAAAAAAAAAAAAA==
> <PUBCHEM_IUPAC_OPENEYE_NAME>
(2S)-6-[[(2S)-2-[(4-acetamidophenyl)sulfonylamino]-3-phenyl-propanoyl]amino]-2-[isobutyl-(4-nitrophenyl)sulfonyl-amino]hexanoic acid
> <PUBCHEM_IUPAC_CAS_NAME>
(2S)-6-[[(2S)-2-[(4-acetamidophenyl)sulfonylamino]-1-oxo-3-phenylpropyl]amino]-2-[2-methylpropyl-(4-nitrophenyl)sulfonylamino]hexanoic acid
> <PUBCHEM_IUPAC_NAME_MARKUP>
(2<I>S</I>)-6-[[(2<I>S</I>)-2-[(4-acetamidophenyl)sulfonylamino]-3-phenylpropanoyl]amino]-2-[2-methylpropyl-(4-nitrophenyl)sulfonylamino]hexanoic acid
> <PUBCHEM_IUPAC_NAME>
(2S)-6-[[(2S)-2-[(4-acetamidophenyl)sulfonylamino]-3-phenylpropanoyl]amino]-2-[2-methylpropyl-(4-nitrophenyl)sulfonylamino]hexanoic acid
> <PUBCHEM_IUPAC_SYSTEMATIC_NAME>
(2S)-6-[[(2S)-2-[(4-acetamidophenyl)sulfonylamino]-3-phenyl-propanoyl]amino]-2-[2-methylpropyl-(4-nitrophenyl)sulfonyl-amino]hexanoic acid
> <PUBCHEM_IUPAC_TRADITIONAL_NAME>
(2S)-6-[[(2S)-2-[(4-acetamidophenyl)sulfonylamino]-3-phenyl-propanoyl]amino]-2-[isobutyl(nosyl)amino]hexanoic acid
> <PUBCHEM_IUPAC_INCHI>
InChI=1S/C33H41N5O10S2/c1-23(2)22-37(50(47,48)29-18-14-27(15-19-29)38(43)44)31(33(41)42)11-7-8-20-34-32(40)30(21-25-9-5-4-6-10-25)36-49(45,46)28-16-12-26(13-17-28)35-24(3)39/h4-6,9-10,12-19,23,30-31,36H,7-8,11,20-22H2,1-3H3,(H,34,40)(H,35,39)(H,41,42)/t30-,31-/m0/s1
> <PUBCHEM_IUPAC_INCHIKEY>
GVUNYMARIFPJLK-CONSDPRKSA-N
> <PUBCHEM_XLOGP3_AA>
4.1
> <PUBCHEM_EXACT_MASS>
731.22948487
> <PUBCHEM_MOLECULAR_FORMULA>
C33H41N5O10S2
> <PUBCHEM_MOLECULAR_WEIGHT>
731.8
> <PUBCHEM_OPENEYE_CAN_SMILES>
CC(C)CN(C(CCCCNC(=O)C(CC1=CC=CC=C1)NS(=O)(=O)C2=CC=C(C=C2)NC(=O)C)C(=O)O)S(=O)(=O)C3=CC=C(C=C3)[N+](=O)[O-]
> <PUBCHEM_OPENEYE_ISO_SMILES>
CC(C)CN([C@@H](CCCCNC(=O)[C@H](CC1=CC=CC=C1)NS(=O)(=O)C2=CC=C(C=C2)NC(=O)C)C(=O)O)S(=O)(=O)C3=CC=C(C=C3)[N+](=O)[O-]
> <PUBCHEM_CACTVS_TPSA>
242
> <PUBCHEM_MONOISOTOPIC_WEIGHT>
731.22948487
> <PUBCHEM_TOTAL_CHARGE>
0
> <PUBCHEM_HEAVY_ATOM_COUNT>
50
> <PUBCHEM_ATOM_DEF_STEREO_COUNT>
2
> <PUBCHEM_ATOM_UDEF_STEREO_COUNT>
0
> <PUBCHEM_BOND_DEF_STEREO_COUNT>
0
> <PUBCHEM_BOND_UDEF_STEREO_COUNT>
0
> <PUBCHEM_ISOTOPIC_ATOM_COUNT>
0
> <PUBCHEM_COMPONENT_COUNT>
1
> <PUBCHEM_CACTVS_TAUTO_COUNT>
-1
> <PUBCHEM_COORDINATE_TYPE>
1
5
255
> <PUBCHEM_BONDANNOTATIONS>
18  13  6
29  15  6
28  30  8
28  31  8
30  34  8
31  35  8
34  36  8
35  36  8
37  39  8
37  40  8
38  41  8
38  42  8
39  43  8
40  44  8
41  46  8
42  47  8
43  45  8
44  45  8
46  48  8
47  48  8
$$$$
