508539
  -OEChem-10302200282D
 86 87  0     1  0  0  0  0  0999 V2000
    3.7320    4.5000    0.0000 S   0  0  0  0  0  0  0  0  0  0  0  0
    6.3301   -4.0000    0.0000 S   0  0  0  0  0  0  0  0  0  0  0  0
    2.7320    4.5000    0.0000 O   0  0  0  0  0  0  0  0  0  0  0  0
    4.7320    4.5000    0.0000 O   0  0  0  0  0  0  0  0  0  0  0  0
    6.3301    3.0000    0.0000 O   0  0  0  0  0  0  0  0  0  0  0  0
    5.4641    4.5000    0.0000 O   0  0  0  0  0  0  0  0  0  0  0  0
    8.0622   -1.0000    0.0000 O   0  0  0  0  0  0  0  0  0  0  0  0
    7.3301   -4.0000    0.0000 O   0  0  0  0  0  0  0  0  0  0  0  0
    5.3301   -4.0000    0.0000 O   0  0  0  0  0  0  0  0  0  0  0  0
    5.4641   -8.5000    0.0000 O   0  5  0  0  0  0  0  0  0  0  0  0
    7.1962   -8.5000    0.0000 O   0  0  0  0  0  0  0  0  0  0  0  0
    3.7320    3.5000    0.0000 N   0  0  3  0  0  0  0  0  0  0  0  0
    6.3301   -1.0000    0.0000 N   0  0  0  0  0  0  0  0  0  0  0  0
    6.3301   -3.0000    0.0000 N   0  0  0  0  0  0  0  0  0  0  0  0
    6.3301   -8.0000    0.0000 N   0  3  0  0  0  0  0  0  0  0  0  0
    4.5981    3.0000    0.0000 C   0  0  1  0  0  0  0  0  0  0  0  0
    4.5981    2.0000    0.0000 C   0  0  0  0  0  0  0  0  0  0  0  0
    2.8660    3.0000    0.0000 C   0  0  0  0  0  0  0  0  0  0  0  0
    5.4641    1.5000    0.0000 C   0  0  0  0  0  0  0  0  0  0  0  0
    2.8660    2.0000    0.0000 C   0  0  0  0  0  0  0  0  0  0  0  0
    5.4641    0.5000    0.0000 C   0  0  0  0  0  0  0  0  0  0  0  0
    7.1962   -2.5000    0.0000 C   0  0  1  0  0  0  0  0  0  0  0  0
    6.3301    0.0000    0.0000 C   0  0  0  0  0  0  0  0  0  0  0  0
    8.0622   -3.0000    0.0000 C   0  0  0  0  0  0  0  0  0  0  0  0
    5.4641    3.5000    0.0000 C   0  0  0  0  0  0  0  0  0  0  0  0
    8.9282   -2.5000    0.0000 C   0  0  0  0  0  0  0  0  0  0  0  0
    3.7320    5.5000    0.0000 C   0  0  0  0  0  0  0  0  0  0  0  0
    2.0000    1.5000    0.0000 C   0  0  0  0  0  0  0  0  0  0  0  0
    3.7320    1.5000    0.0000 C   0  0  0  0  0  0  0  0  0  0  0  0
    7.1962   -1.5000    0.0000 C   0  0  0  0  0  0  0  0  0  0  0  0
    9.7942   -3.0000    0.0000 C   0  0  0  0  0  0  0  0  0  0  0  0
    8.9282   -1.5000    0.0000 C   0  0  0  0  0  0  0  0  0  0  0  0
    2.8660    6.0000    0.0000 C   0  0  0  0  0  0  0  0  0  0  0  0
    4.5981    6.0000    0.0000 C   0  0  0  0  0  0  0  0  0  0  0  0
    2.8660    7.0000    0.0000 C   0  0  0  0  0  0  0  0  0  0  0  0
    4.5981    7.0000    0.0000 C   0  0  0  0  0  0  0  0  0  0  0  0
    3.7320    7.5000    0.0000 C   0  0  0  0  0  0  0  0  0  0  0  0
    6.3301   -5.0000    0.0000 C   0  0  0  0  0  0  0  0  0  0  0  0
    3.7320    8.5000    0.0000 C   0  0  0  0  0  0  0  0  0  0  0  0
    5.4641   -5.5000    0.0000 C   0  0  0  0  0  0  0  0  0  0  0  0
    7.1962   -5.5000    0.0000 C   0  0  0  0  0  0  0  0  0  0  0  0
    5.4641   -6.5000    0.0000 C   0  0  0  0  0  0  0  0  0  0  0  0
    7.1962   -6.5000    0.0000 C   0  0  0  0  0  0  0  0  0  0  0  0
    6.3301   -7.0000    0.0000 C   0  0  0  0  0  0  0  0  0  0  0  0
    4.5981    3.6200    0.0000 H   0  0  0  0  0  0  0  0  0  0  0  0
    3.9875    2.1077    0.0000 H   0  0  0  0  0  0  0  0  0  0  0  0
    4.3860    1.4174    0.0000 H   0  0  0  0  0  0  0  0  0  0  0  0
    2.6540    3.5826    0.0000 H   0  0  0  0  0  0  0  0  0  0  0  0
    2.2554    2.8923    0.0000 H   0  0  0  0  0  0  0  0  0  0  0  0
    6.0747    1.3923    0.0000 H   0  0  0  0  0  0  0  0  0  0  0  0
    5.6762    2.0826    0.0000 H   0  0  0  0  0  0  0  0  0  0  0  0
    2.8660    1.3800    0.0000 H   0  0  0  0  0  0  0  0  0  0  0  0
    4.8535    0.6077    0.0000 H   0  0  0  0  0  0  0  0  0  0  0  0
    5.2520   -0.0826    0.0000 H   0  0  0  0  0  0  0  0  0  0  0  0
    6.6592   -2.1900    0.0000 H   0  0  0  0  0  0  0  0  0  0  0  0
    6.9407   -0.1077    0.0000 H   0  0  0  0  0  0  0  0  0  0  0  0
    6.5422    0.5826    0.0000 H   0  0  0  0  0  0  0  0  0  0  0  0
    7.6636   -3.4750    0.0000 H   0  0  0  0  0  0  0  0  0  0  0  0
    8.4607   -3.4750    0.0000 H   0  0  0  0  0  0  0  0  0  0  0  0
    9.4651   -2.1900    0.0000 H   0  0  0  0  0  0  0  0  0  0  0  0
    1.6900    2.0369    0.0000 H   0  0  0  0  0  0  0  0  0  0  0  0
    1.4631    1.1900    0.0000 H   0  0  0  0  0  0  0  0  0  0  0  0
    2.3100    0.9631    0.0000 H   0  0  0  0  0  0  0  0  0  0  0  0
    3.4220    0.9631    0.0000 H   0  0  0  0  0  0  0  0  0  0  0  0
    4.2690    1.1900    0.0000 H   0  0  0  0  0  0  0  0  0  0  0  0
    4.0420    2.0369    0.0000 H   0  0  0  0  0  0  0  0  0  0  0  0
    5.7932   -1.3100    0.0000 H   0  0  0  0  0  0  0  0  0  0  0  0
    5.7932   -2.6900    0.0000 H   0  0  0  0  0  0  0  0  0  0  0  0
    9.4842   -3.5369    0.0000 H   0  0  0  0  0  0  0  0  0  0  0  0
   10.3312   -3.3100    0.0000 H   0  0  0  0  0  0  0  0  0  0  0  0
   10.1042   -2.4631    0.0000 H   0  0  0  0  0  0  0  0  0  0  0  0
    9.5482   -1.5000    0.0000 H   0  0  0  0  0  0  0  0  0  0  0  0
    8.9282   -0.8800    0.0000 H   0  0  0  0  0  0  0  0  0  0  0  0
    8.3082   -1.5000    0.0000 H   0  0  0  0  0  0  0  0  0  0  0  0
    2.3291    5.6900    0.0000 H   0  0  0  0  0  0  0  0  0  0  0  0
    5.1350    5.6900    0.0000 H   0  0  0  0  0  0  0  0  0  0  0  0
    6.8671    3.3100    0.0000 H   0  0  0  0  0  0  0  0  0  0  0  0
    2.3291    7.3100    0.0000 H   0  0  0  0  0  0  0  0  0  0  0  0
    5.1350    7.3100    0.0000 H   0  0  0  0  0  0  0  0  0  0  0  0
    4.3520    8.5000    0.0000 H   0  0  0  0  0  0  0  0  0  0  0  0
    3.7320    9.1200    0.0000 H   0  0  0  0  0  0  0  0  0  0  0  0
    3.1120    8.5000    0.0000 H   0  0  0  0  0  0  0  0  0  0  0  0
    4.9272   -5.1900    0.0000 H   0  0  0  0  0  0  0  0  0  0  0  0
    7.7331   -5.1900    0.0000 H   0  0  0  0  0  0  0  0  0  0  0  0
    4.9272   -6.8100    0.0000 H   0  0  0  0  0  0  0  0  0  0  0  0
    7.7331   -6.8100    0.0000 H   0  0  0  0  0  0  0  0  0  0  0  0
  1  3  2  0  0  0  0
  1  4  2  0  0  0  0
  1 12  1  0  0  0  0
  1 27  1  0  0  0  0
  2  8  2  0  0  0  0
  2  9  2  0  0  0  0
  2 14  1  0  0  0  0
  2 38  1  0  0  0  0
  5 25  1  0  0  0  0
  5 77  1  0  0  0  0
  6 25  2  0  0  0  0
  7 30  2  0  0  0  0
 10 15  1  0  0  0  0
 11 15  2  0  0  0  0
 16 12  1  6  0  0  0
 12 18  1  0  0  0  0
 13 23  1  0  0  0  0
 13 30  1  0  0  0  0
 13 67  1  0  0  0  0
 22 14  1  6  0  0  0
 14 68  1  0  0  0  0
 15 44  1  0  0  0  0
 16 17  1  0  0  0  0
 16 25  1  0  0  0  0
 16 45  1  0  0  0  0
 17 19  1  0  0  0  0
 17 46  1  0  0  0  0
 17 47  1  0  0  0  0
 18 20  1  0  0  0  0
 18 48  1  0  0  0  0
 18 49  1  0  0  0  0
 19 21  1  0  0  0  0
 19 50  1  0  0  0  0
 19 51  1  0  0  0  0
 20 28  1  0  0  0  0
 20 29  1  0  0  0  0
 20 52  1  0  0  0  0
 21 23  1  0  0  0  0
 21 53  1  0  0  0  0
 21 54  1  0  0  0  0
 22 24  1  0  0  0  0
 22 30  1  0  0  0  0
 22 55  1  0  0  0  0
 23 56  1  0  0  0  0
 23 57  1  0  0  0  0
 24 26  1  0  0  0  0
 24 58  1  0  0  0  0
 24 59  1  0  0  0  0
 26 31  1  0  0  0  0
 26 32  1  0  0  0  0
 26 60  1  0  0  0  0
 27 33  2  0  0  0  0
 27 34  1  0  0  0  0
 28 61  1  0  0  0  0
 28 62  1  0  0  0  0
 28 63  1  0  0  0  0
 29 64  1  0  0  0  0
 29 65  1  0  0  0  0
 29 66  1  0  0  0  0
 31 69  1  0  0  0  0
 31 70  1  0  0  0  0
 31 71  1  0  0  0  0
 32 72  1  0  0  0  0
 32 73  1  0  0  0  0
 32 74  1  0  0  0  0
 33 35  1  0  0  0  0
 33 75  1  0  0  0  0
 34 36  2  0  0  0  0
 34 76  1  0  0  0  0
 35 37  2  0  0  0  0
 35 78  1  0  0  0  0
 36 37  1  0  0  0  0
 36 79  1  0  0  0  0
 37 39  1  0  0  0  0
 38 40  2  0  0  0  0
 38 41  1  0  0  0  0
 39 80  1  0  0  0  0
 39 81  1  0  0  0  0
 39 82  1  0  0  0  0
 40 42  1  0  0  0  0
 40 83  1  0  0  0  0
 41 43  2  0  0  0  0
 41 84  1  0  0  0  0
 42 44  2  0  0  0  0
 42 85  1  0  0  0  0
 43 44  1  0  0  0  0
 43 86  1  0  0  0  0
M  CHG  2  10  -1  15   1
M  END
> <PUBCHEM_COMPOUND_CID>
508539
> <PUBCHEM_COMPOUND_CANONICALIZED>
1
> <PUBCHEM_CACTVS_COMPLEXITY>
1140
> <PUBCHEM_CACTVS_HBOND_ACCEPTOR>
11
> <PUBCHEM_CACTVS_HBOND_DONOR>
3
> <PUBCHEM_CACTVS_ROTATABLE_BOND>
17
> <PUBCHEM_CACTVS_SUBSKEYS>
AAADcfB7vABgAAAAAAAAAAAAAAAAAAAAAAAwYAAAAAAAAAABQAAAHgQUSAAADSjB2AQyyYLQQgKJAiXSW3DCABAgAgAoiJmIZIoKYDKAkbGUYABklgCYyAeYyAAOEAQAAAAAAAAgCAAAAAAAAAAAAAAAAA==
> <PUBCHEM_IUPAC_OPENEYE_NAME>
(2S)-2-[isobutyl(p-tolylsulfonyl)amino]-6-[[(2S)-4-methyl-2-[(4-nitrophenyl)sulfonylamino]pentanoyl]amino]hexanoic acid
> <PUBCHEM_IUPAC_CAS_NAME>
(2S)-6-[[(2S)-4-methyl-2-[(4-nitrophenyl)sulfonylamino]-1-oxopentyl]amino]-2-[(4-methylphenyl)sulfonyl-(2-methylpropyl)amino]hexanoic acid
> <PUBCHEM_IUPAC_NAME_MARKUP>
(2<I>S</I>)-6-[[(2<I>S</I>)-4-methyl-2-[(4-nitrophenyl)sulfonylamino]pentanoyl]amino]-2-[(4-methylphenyl)sulfonyl-(2-methylpropyl)amino]hexanoic acid
> <PUBCHEM_IUPAC_NAME>
(2S)-6-[[(2S)-4-methyl-2-[(4-nitrophenyl)sulfonylamino]pentanoyl]amino]-2-[(4-methylphenyl)sulfonyl-(2-methylpropyl)amino]hexanoic acid
> <PUBCHEM_IUPAC_SYSTEMATIC_NAME>
(2S)-6-[[(2S)-4-methyl-2-[(4-nitrophenyl)sulfonylamino]pentanoyl]amino]-2-[(4-methylphenyl)sulfonyl-(2-methylpropyl)amino]hexanoic acid
> <PUBCHEM_IUPAC_TRADITIONAL_NAME>
(2S)-2-[isobutyl(tosyl)amino]-6-[[(2S)-4-methyl-2-(nosylamino)pentanoyl]amino]hexanoic acid
> <PUBCHEM_IUPAC_INCHI>
InChI=1S/C29H42N4O9S2/c1-20(2)18-26(31-43(39,40)24-15-11-23(12-16-24)33(37)38)28(34)30-17-7-6-8-27(29(35)36)32(19-21(3)4)44(41,42)25-13-9-22(5)10-14-25/h9-16,20-21,26-27,31H,6-8,17-19H2,1-5H3,(H,30,34)(H,35,36)/t26-,27-/m0/s1
> <PUBCHEM_IUPAC_INCHIKEY>
SFOJMLTYMFZXPG-SVBPBHIXSA-N
> <PUBCHEM_XLOGP3_AA>
5
> <PUBCHEM_EXACT_MASS>
654.23932128
> <PUBCHEM_MOLECULAR_FORMULA>
C29H42N4O9S2
> <PUBCHEM_MOLECULAR_WEIGHT>
654.8
> <PUBCHEM_OPENEYE_CAN_SMILES>
CC1=CC=C(C=C1)S(=O)(=O)N(CC(C)C)C(CCCCNC(=O)C(CC(C)C)NS(=O)(=O)C2=CC=C(C=C2)[N+](=O)[O-])C(=O)O
> <PUBCHEM_OPENEYE_ISO_SMILES>
CC1=CC=C(C=C1)S(=O)(=O)N(CC(C)C)[C@@H](CCCCNC(=O)[C@H](CC(C)C)NS(=O)(=O)C2=CC=C(C=C2)[N+](=O)[O-])C(=O)O
> <PUBCHEM_CACTVS_TPSA>
213
> <PUBCHEM_MONOISOTOPIC_WEIGHT>
654.23932128
> <PUBCHEM_TOTAL_CHARGE>
0
> <PUBCHEM_HEAVY_ATOM_COUNT>
44
> <PUBCHEM_ATOM_DEF_STEREO_COUNT>
2
> <PUBCHEM_ATOM_UDEF_STEREO_COUNT>
0
> <PUBCHEM_BOND_DEF_STEREO_COUNT>
0
> <PUBCHEM_BOND_UDEF_STEREO_COUNT>
0
> <PUBCHEM_ISOTOPIC_ATOM_COUNT>
0
> <PUBCHEM_COMPONENT_COUNT>
1
> <PUBCHEM_CACTVS_TAUTO_COUNT>
-1
> <PUBCHEM_COORDINATE_TYPE>
1
5
255
> <PUBCHEM_BONDANNOTATIONS>
16  12  6
22  14  6
27  33  8
27  34  8
33  35  8
34  36  8
35  37  8
36  37  8
38  40  8
38  41  8
40  42  8
41  43  8
42  44  8
43  44  8
$$$$
