508588
  -OEChem-10302200282D
 89 92  0     1  0  0  0  0  0999 V2000
    6.3981   -4.0000    0.0000 S   0  0  0  0  0  0  0  0  0  0  0  0
    9.8622    4.0000    0.0000 S   0  0  0  0  0  0  0  0  0  0  0  0
    5.8981   -4.8660    0.0000 O   0  0  0  0  0  0  0  0  0  0  0  0
    6.8981   -3.1340    0.0000 O   0  0  0  0  0  0  0  0  0  0  0  0
    7.2641   -2.5000    0.0000 O   0  0  0  0  0  0  0  0  0  0  0  0
    9.3622    4.8660    0.0000 O   0  0  0  0  0  0  0  0  0  0  0  0
   10.3622    3.1340    0.0000 O   0  0  0  0  0  0  0  0  0  0  0  0
   10.7282    2.5000    0.0000 O   0  0  0  0  0  0  0  0  0  0  0  0
    9.8622    1.0000    0.0000 O   0  0  0  0  0  0  0  0  0  0  0  0
    5.5321   -3.5000    0.0000 N   0  0  3  0  0  0  0  0  0  0  0  0
    8.9962    3.5000    0.0000 N   0  0  3  0  0  0  0  0  0  0  0  0
    6.3981   -1.0000    0.0000 N   0  0  0  0  0  0  0  0  0  0  0  0
    5.5321   -2.5000    0.0000 C   0  0  3  0  0  0  0  0  0  0  0  0
    4.6660   -2.0000    0.0000 C   0  0  0  0  0  0  0  0  0  0  0  0
    4.6660   -4.0000    0.0000 C   0  0  0  0  0  0  0  0  0  0  0  0
    3.8000   -2.5000    0.0000 C   0  0  0  0  0  0  0  0  0  0  0  0
    3.8000   -3.5000    0.0000 C   0  0  0  0  0  0  0  0  0  0  0  0
    8.9962    2.5000    0.0000 C   0  0  1  0  0  0  0  0  0  0  0  0
    8.1301    2.0000    0.0000 C   0  0  0  0  0  0  0  0  0  0  0  0
    6.3981   -2.0000    0.0000 C   0  0  0  0  0  0  0  0  0  0  0  0
    8.1301    1.0000    0.0000 C   0  0  0  0  0  0  0  0  0  0  0  0
    8.1301    4.0000    0.0000 C   0  0  0  0  0  0  0  0  0  0  0  0
    7.2641    0.5000    0.0000 C   0  0  0  0  0  0  0  0  0  0  0  0
    7.2641   -0.5000    0.0000 C   0  0  0  0  0  0  0  0  0  0  0  0
    7.2641    3.5000    0.0000 C   0  0  0  0  0  0  0  0  0  0  0  0
    2.9061   -1.9653    0.0000 C   0  0  0  0  0  0  0  0  0  0  0  0
    2.9061   -4.0347    0.0000 C   0  0  0  0  0  0  0  0  0  0  0  0
    7.2641   -4.5000    0.0000 C   0  0  0  0  0  0  0  0  0  0  0  0
    9.8622    2.0000    0.0000 C   0  0  0  0  0  0  0  0  0  0  0  0
    2.0000   -2.4792    0.0000 C   0  0  0  0  0  0  0  0  0  0  0  0
   10.7282    4.5000    0.0000 C   0  0  0  0  0  0  0  0  0  0  0  0
    2.0000   -3.5208    0.0000 C   0  0  0  0  0  0  0  0  0  0  0  0
    6.3981    4.0000    0.0000 C   0  0  0  0  0  0  0  0  0  0  0  0
    7.2641    2.5000    0.0000 C   0  0  0  0  0  0  0  0  0  0  0  0
    7.2641   -5.5000    0.0000 C   0  0  0  0  0  0  0  0  0  0  0  0
    8.1301   -4.0000    0.0000 C   0  0  0  0  0  0  0  0  0  0  0  0
   11.5942    4.0000    0.0000 C   0  0  0  0  0  0  0  0  0  0  0  0
   10.7282    5.5000    0.0000 C   0  0  0  0  0  0  0  0  0  0  0  0
    8.1301   -6.0000    0.0000 C   0  0  0  0  0  0  0  0  0  0  0  0
    8.9962   -4.5000    0.0000 C   0  0  0  0  0  0  0  0  0  0  0  0
    8.9962   -5.5000    0.0000 C   0  0  0  0  0  0  0  0  0  0  0  0
   12.4603    4.5000    0.0000 C   0  0  0  0  0  0  0  0  0  0  0  0
   11.5942    6.0000    0.0000 C   0  0  0  0  0  0  0  0  0  0  0  0
   12.4603    5.5000    0.0000 C   0  0  0  0  0  0  0  0  0  0  0  0
    9.8622   -6.0000    0.0000 C   0  0  0  0  0  0  0  0  0  0  0  0
   13.3263    6.0000    0.0000 C   0  0  0  0  0  0  0  0  0  0  0  0
    6.0690   -2.8100    0.0000 H   0  0  0  0  0  0  0  0  0  0  0  0
    5.0646   -1.5250    0.0000 H   0  0  0  0  0  0  0  0  0  0  0  0
    4.2675   -1.5250    0.0000 H   0  0  0  0  0  0  0  0  0  0  0  0
    4.2675   -4.4750    0.0000 H   0  0  0  0  0  0  0  0  0  0  0  0
    5.0646   -4.4750    0.0000 H   0  0  0  0  0  0  0  0  0  0  0  0
    9.5331    2.8100    0.0000 H   0  0  0  0  0  0  0  0  0  0  0  0
    7.9181    2.5826    0.0000 H   0  0  0  0  0  0  0  0  0  0  0  0
    7.5196    1.8923    0.0000 H   0  0  0  0  0  0  0  0  0  0  0  0
    8.3422    0.4174    0.0000 H   0  0  0  0  0  0  0  0  0  0  0  0
    8.7407    1.1077    0.0000 H   0  0  0  0  0  0  0  0  0  0  0  0
    8.5287    4.4750    0.0000 H   0  0  0  0  0  0  0  0  0  0  0  0
    7.7316    4.4750    0.0000 H   0  0  0  0  0  0  0  0  0  0  0  0
    7.0521    1.0826    0.0000 H   0  0  0  0  0  0  0  0  0  0  0  0
    6.6535    0.3923    0.0000 H   0  0  0  0  0  0  0  0  0  0  0  0
    7.4762   -1.0826    0.0000 H   0  0  0  0  0  0  0  0  0  0  0  0
    7.8747   -0.3923    0.0000 H   0  0  0  0  0  0  0  0  0  0  0  0
    7.8010    3.1900    0.0000 H   0  0  0  0  0  0  0  0  0  0  0  0
    5.8612   -0.6900    0.0000 H   0  0  0  0  0  0  0  0  0  0  0  0
    2.9132   -1.3454    0.0000 H   0  0  0  0  0  0  0  0  0  0  0  0
    2.9132   -4.6546    0.0000 H   0  0  0  0  0  0  0  0  0  0  0  0
    1.4643   -2.1671    0.0000 H   0  0  0  0  0  0  0  0  0  0  0  0
    1.4643   -3.8329    0.0000 H   0  0  0  0  0  0  0  0  0  0  0  0
    6.7081    4.5369    0.0000 H   0  0  0  0  0  0  0  0  0  0  0  0
    5.8612    4.3100    0.0000 H   0  0  0  0  0  0  0  0  0  0  0  0
    6.0881    3.4631    0.0000 H   0  0  0  0  0  0  0  0  0  0  0  0
    6.6441    2.5000    0.0000 H   0  0  0  0  0  0  0  0  0  0  0  0
    7.2641    1.8800    0.0000 H   0  0  0  0  0  0  0  0  0  0  0  0
    7.8841    2.5000    0.0000 H   0  0  0  0  0  0  0  0  0  0  0  0
    6.7272   -5.8100    0.0000 H   0  0  0  0  0  0  0  0  0  0  0  0
    8.1301   -3.3800    0.0000 H   0  0  0  0  0  0  0  0  0  0  0  0
   11.5942    3.3800    0.0000 H   0  0  0  0  0  0  0  0  0  0  0  0
   10.1913    5.8100    0.0000 H   0  0  0  0  0  0  0  0  0  0  0  0
    8.1301   -6.6200    0.0000 H   0  0  0  0  0  0  0  0  0  0  0  0
    9.5331   -4.1900    0.0000 H   0  0  0  0  0  0  0  0  0  0  0  0
   11.2651    2.1900    0.0000 H   0  0  0  0  0  0  0  0  0  0  0  0
   12.9972    4.1900    0.0000 H   0  0  0  0  0  0  0  0  0  0  0  0
   11.5942    6.6200    0.0000 H   0  0  0  0  0  0  0  0  0  0  0  0
    9.5522   -6.5369    0.0000 H   0  0  0  0  0  0  0  0  0  0  0  0
   10.3991   -6.3100    0.0000 H   0  0  0  0  0  0  0  0  0  0  0  0
   10.1722   -5.4631    0.0000 H   0  0  0  0  0  0  0  0  0  0  0  0
   13.6363    5.4631    0.0000 H   0  0  0  0  0  0  0  0  0  0  0  0
   13.8632    6.3100    0.0000 H   0  0  0  0  0  0  0  0  0  0  0  0
   13.0163    6.5369    0.0000 H   0  0  0  0  0  0  0  0  0  0  0  0
  1  3  2  0  0  0  0
  1  4  2  0  0  0  0
  1 10  1  0  0  0  0
  1 28  1  0  0  0  0
  2  6  2  0  0  0  0
  2  7  2  0  0  0  0
  2 11  1  0  0  0  0
  2 31  1  0  0  0  0
  5 20  2  0  0  0  0
  8 29  1  0  0  0  0
  8 81  1  0  0  0  0
  9 29  2  0  0  0  0
 10 13  1  0  0  0  0
 10 15  1  0  0  0  0
 18 11  1  6  0  0  0
 11 22  1  0  0  0  0
 12 20  1  0  0  0  0
 12 24  1  0  0  0  0
 12 64  1  0  0  0  0
 13 14  1  0  0  0  0
 13 20  1  0  0  0  0
 13 47  1  0  0  0  0
 14 16  1  0  0  0  0
 14 48  1  0  0  0  0
 14 49  1  0  0  0  0
 15 17  1  0  0  0  0
 15 50  1  0  0  0  0
 15 51  1  0  0  0  0
 16 17  1  0  0  0  0
 16 26  2  0  0  0  0
 17 27  2  0  0  0  0
 18 19  1  0  0  0  0
 18 29  1  0  0  0  0
 18 52  1  0  0  0  0
 19 21  1  0  0  0  0
 19 53  1  0  0  0  0
 19 54  1  0  0  0  0
 21 23  1  0  0  0  0
 21 55  1  0  0  0  0
 21 56  1  0  0  0  0
 22 25  1  0  0  0  0
 22 57  1  0  0  0  0
 22 58  1  0  0  0  0
 23 24  1  0  0  0  0
 23 59  1  0  0  0  0
 23 60  1  0  0  0  0
 24 61  1  0  0  0  0
 24 62  1  0  0  0  0
 25 33  1  0  0  0  0
 25 34  1  0  0  0  0
 25 63  1  0  0  0  0
 26 30  1  0  0  0  0
 26 65  1  0  0  0  0
 27 32  1  0  0  0  0
 27 66  1  0  0  0  0
 28 35  2  0  0  0  0
 28 36  1  0  0  0  0
 30 32  2  0  0  0  0
 30 67  1  0  0  0  0
 31 37  2  0  0  0  0
 31 38  1  0  0  0  0
 32 68  1  0  0  0  0
 33 69  1  0  0  0  0
 33 70  1  0  0  0  0
 33 71  1  0  0  0  0
 34 72  1  0  0  0  0
 34 73  1  0  0  0  0
 34 74  1  0  0  0  0
 35 39  1  0  0  0  0
 35 75  1  0  0  0  0
 36 40  2  0  0  0  0
 36 76  1  0  0  0  0
 37 42  1  0  0  0  0
 37 77  1  0  0  0  0
 38 43  2  0  0  0  0
 38 78  1  0  0  0  0
 39 41  2  0  0  0  0
 39 79  1  0  0  0  0
 40 41  1  0  0  0  0
 40 80  1  0  0  0  0
 41 45  1  0  0  0  0
 42 44  2  0  0  0  0
 42 82  1  0  0  0  0
 43 44  1  0  0  0  0
 43 83  1  0  0  0  0
 44 46  1  0  0  0  0
 45 84  1  0  0  0  0
 45 85  1  0  0  0  0
 45 86  1  0  0  0  0
 46 87  1  0  0  0  0
 46 88  1  0  0  0  0
 46 89  1  0  0  0  0
M  END
> <PUBCHEM_COMPOUND_CID>
508588
> <PUBCHEM_COMPOUND_CANONICALIZED>
1
> <PUBCHEM_CACTVS_COMPLEXITY>
1210
> <PUBCHEM_CACTVS_HBOND_ACCEPTOR>
9
> <PUBCHEM_CACTVS_HBOND_DONOR>
2
> <PUBCHEM_CACTVS_ROTATABLE_BOND>
14
> <PUBCHEM_CACTVS_SUBSKEYS>
AAADcfB/OABgAAAAAAAAAAAAAAAAAAAAAAA8YMEAAAAAAACxUAAAHgQQSAAADSjB2AQyCYLAAgKIAiHSGHDCABAgAAAIiJmIBIgKYDKAkTGUYAhklgCYiAeYyICOkAAAAAAQAAAgAAAAACAAAAAAAAAAAA==
> <PUBCHEM_IUPAC_OPENEYE_NAME>
(2S)-2-[isobutyl(p-tolylsulfonyl)amino]-6-[[2-(p-tolylsulfonyl)-3,4-dihydro-1H-isoquinoline-3-carbonyl]amino]hexanoic acid
> <PUBCHEM_IUPAC_CAS_NAME>
(2S)-6-[[[2-(4-methylphenyl)sulfonyl-3,4-dihydro-1H-isoquinolin-3-yl]-oxomethyl]amino]-2-[(4-methylphenyl)sulfonyl-(2-methylpropyl)amino]hexanoic acid
> <PUBCHEM_IUPAC_NAME_MARKUP>
(2<I>S</I>)-6-[[2-(4-methylphenyl)sulfonyl-3,4-dihydro-1<I>H</I>-isoquinoline-3-carbonyl]amino]-2-[(4-methylphenyl)sulfonyl-(2-methylpropyl)amino]hexanoic acid
> <PUBCHEM_IUPAC_NAME>
(2S)-6-[[2-(4-methylphenyl)sulfonyl-3,4-dihydro-1H-isoquinoline-3-carbonyl]amino]-2-[(4-methylphenyl)sulfonyl-(2-methylpropyl)amino]hexanoic acid
> <PUBCHEM_IUPAC_SYSTEMATIC_NAME>
(2S)-6-[[2-(4-methylphenyl)sulfonyl-3,4-dihydro-1H-isoquinolin-3-yl]carbonylamino]-2-[(4-methylphenyl)sulfonyl-(2-methylpropyl)amino]hexanoic acid
> <PUBCHEM_IUPAC_TRADITIONAL_NAME>
(2S)-2-[isobutyl(tosyl)amino]-6-[(2-tosyl-3,4-dihydro-1H-isoquinoline-3-carbonyl)amino]hexanoic acid
> <PUBCHEM_IUPAC_INCHI>
InChI=1S/C34H43N3O7S2/c1-24(2)22-36(45(41,42)29-16-12-25(3)13-17-29)31(34(39)40)11-7-8-20-35-33(38)32-21-27-9-5-6-10-28(27)23-37(32)46(43,44)30-18-14-26(4)15-19-30/h5-6,9-10,12-19,24,31-32H,7-8,11,20-23H2,1-4H3,(H,35,38)(H,39,40)/t31-,32?/m0/s1
> <PUBCHEM_IUPAC_INCHIKEY>
SFNBCVULKBNPKB-CYZZXXEPSA-N
> <PUBCHEM_XLOGP3_AA>
5.6
> <PUBCHEM_EXACT_MASS>
669.25424307
> <PUBCHEM_MOLECULAR_FORMULA>
C34H43N3O7S2
> <PUBCHEM_MOLECULAR_WEIGHT>
669.9
> <PUBCHEM_OPENEYE_CAN_SMILES>
CC1=CC=C(C=C1)S(=O)(=O)N2CC3=CC=CC=C3CC2C(=O)NCCCCC(C(=O)O)N(CC(C)C)S(=O)(=O)C4=CC=C(C=C4)C
> <PUBCHEM_OPENEYE_ISO_SMILES>
CC1=CC=C(C=C1)S(=O)(=O)N2CC3=CC=CC=C3CC2C(=O)NCCCC[C@@H](C(=O)O)N(CC(C)C)S(=O)(=O)C4=CC=C(C=C4)C
> <PUBCHEM_CACTVS_TPSA>
158
> <PUBCHEM_MONOISOTOPIC_WEIGHT>
669.25424307
> <PUBCHEM_TOTAL_CHARGE>
0
> <PUBCHEM_HEAVY_ATOM_COUNT>
46
> <PUBCHEM_ATOM_DEF_STEREO_COUNT>
1
> <PUBCHEM_ATOM_UDEF_STEREO_COUNT>
1
> <PUBCHEM_BOND_DEF_STEREO_COUNT>
0
> <PUBCHEM_BOND_UDEF_STEREO_COUNT>
0
> <PUBCHEM_ISOTOPIC_ATOM_COUNT>
0
> <PUBCHEM_COMPONENT_COUNT>
1
> <PUBCHEM_CACTVS_TAUTO_COUNT>
-1
> <PUBCHEM_COORDINATE_TYPE>
1
5
255
> <PUBCHEM_BONDANNOTATIONS>
18  11  6
13  20  3
16  17  8
16  26  8
17  27  8
26  30  8
27  32  8
28  35  8
28  36  8
30  32  8
31  37  8
31  38  8
35  39  8
36  40  8
37  42  8
38  43  8
39  41  8
40  41  8
42  44  8
43  44  8
$$$$
