508537
  -OEChem-10302200282D
 81 82  0     1  0  0  0  0  0999 V2000
    4.5981    0.1900    0.0000 S   0  0  0  0  0  0  0  0  0  0  0  0
   13.2583    1.1900    0.0000 S   0  0  0  0  0  0  0  0  0  0  0  0
    5.5981    0.1900    0.0000 O   0  0  0  0  0  0  0  0  0  0  0  0
    3.5981    0.1900    0.0000 O   0  0  0  0  0  0  0  0  0  0  0  0
    6.3301    3.1900    0.0000 O   0  0  0  0  0  0  0  0  0  0  0  0
    4.5981    3.1900    0.0000 O   0  0  0  0  0  0  0  0  0  0  0  0
   10.6603    2.6900    0.0000 O   0  0  0  0  0  0  0  0  0  0  0  0
   13.7583    2.0560    0.0000 O   0  0  0  0  0  0  0  0  0  0  0  0
   12.7583    0.3240    0.0000 O   0  0  0  0  0  0  0  0  0  0  0  0
    4.5981    1.1900    0.0000 N   0  0  3  0  0  0  0  0  0  0  0  0
    9.7942    1.1900    0.0000 N   0  0  0  0  0  0  0  0  0  0  0  0
   12.3923    1.6900    0.0000 N   0  0  0  0  0  0  0  0  0  0  0  0
    5.4641    1.6900    0.0000 C   0  0  1  0  0  0  0  0  0  0  0  0
    6.3301    1.1900    0.0000 C   0  0  0  0  0  0  0  0  0  0  0  0
    3.7320    1.6900    0.0000 C   0  0  0  0  0  0  0  0  0  0  0  0
    7.1962    1.6900    0.0000 C   0  0  0  0  0  0  0  0  0  0  0  0
    2.8660    1.1900    0.0000 C   0  0  0  0  0  0  0  0  0  0  0  0
    8.0622    1.1900    0.0000 C   0  0  0  0  0  0  0  0  0  0  0  0
    5.4641    2.6900    0.0000 C   0  0  0  0  0  0  0  0  0  0  0  0
    8.9282    1.6900    0.0000 C   0  0  0  0  0  0  0  0  0  0  0  0
    4.5981   -0.8100    0.0000 C   0  0  0  0  0  0  0  0  0  0  0  0
    2.0000    1.6900    0.0000 C   0  0  0  0  0  0  0  0  0  0  0  0
    2.8660    0.1900    0.0000 C   0  0  0  0  0  0  0  0  0  0  0  0
   11.5263    1.1900    0.0000 C   0  0  1  0  0  0  0  0  0  0  0  0
   11.5263    0.1900    0.0000 C   0  0  0  0  0  0  0  0  0  0  0  0
   10.6603    1.6900    0.0000 C   0  0  0  0  0  0  0  0  0  0  0  0
    3.7320   -1.3100    0.0000 C   0  0  0  0  0  0  0  0  0  0  0  0
    5.4641   -1.3100    0.0000 C   0  0  0  0  0  0  0  0  0  0  0  0
   12.3923   -0.3100    0.0000 C   0  0  0  0  0  0  0  0  0  0  0  0
    3.7320   -2.3100    0.0000 C   0  0  0  0  0  0  0  0  0  0  0  0
    5.4641   -2.3100    0.0000 C   0  0  0  0  0  0  0  0  0  0  0  0
    4.5981   -2.8100    0.0000 C   0  0  0  0  0  0  0  0  0  0  0  0
   12.3923   -1.3100    0.0000 C   0  0  0  0  0  0  0  0  0  0  0  0
   14.1244    0.6900    0.0000 C   0  0  0  0  0  0  0  0  0  0  0  0
    4.5981   -3.8100    0.0000 C   0  0  0  0  0  0  0  0  0  0  0  0
   14.9904    1.1900    0.0000 C   0  0  0  0  0  0  0  0  0  0  0  0
   14.1244   -0.3100    0.0000 C   0  0  0  0  0  0  0  0  0  0  0  0
   15.8564    0.6900    0.0000 C   0  0  0  0  0  0  0  0  0  0  0  0
   14.9904   -0.8100    0.0000 C   0  0  0  0  0  0  0  0  0  0  0  0
   15.8564   -0.3100    0.0000 C   0  0  0  0  0  0  0  0  0  0  0  0
    5.4641    1.0700    0.0000 H   0  0  0  0  0  0  0  0  0  0  0  0
    5.9316    0.7151    0.0000 H   0  0  0  0  0  0  0  0  0  0  0  0
    6.7287    0.7151    0.0000 H   0  0  0  0  0  0  0  0  0  0  0  0
    4.1306    2.1650    0.0000 H   0  0  0  0  0  0  0  0  0  0  0  0
    3.3335    2.1650    0.0000 H   0  0  0  0  0  0  0  0  0  0  0  0
    7.5947    2.1650    0.0000 H   0  0  0  0  0  0  0  0  0  0  0  0
    6.7976    2.1650    0.0000 H   0  0  0  0  0  0  0  0  0  0  0  0
    2.8660    1.8100    0.0000 H   0  0  0  0  0  0  0  0  0  0  0  0
    7.6636    0.7151    0.0000 H   0  0  0  0  0  0  0  0  0  0  0  0
    8.4607    0.7151    0.0000 H   0  0  0  0  0  0  0  0  0  0  0  0
    9.3267    2.1650    0.0000 H   0  0  0  0  0  0  0  0  0  0  0  0
    8.5297    2.1650    0.0000 H   0  0  0  0  0  0  0  0  0  0  0  0
    2.3100    2.2269    0.0000 H   0  0  0  0  0  0  0  0  0  0  0  0
    1.4631    2.0000    0.0000 H   0  0  0  0  0  0  0  0  0  0  0  0
    1.6900    1.1531    0.0000 H   0  0  0  0  0  0  0  0  0  0  0  0
    2.2460    0.1900    0.0000 H   0  0  0  0  0  0  0  0  0  0  0  0
    2.8660   -0.4300    0.0000 H   0  0  0  0  0  0  0  0  0  0  0  0
    3.4860    0.1900    0.0000 H   0  0  0  0  0  0  0  0  0  0  0  0
   12.0632    0.8800    0.0000 H   0  0  0  0  0  0  0  0  0  0  0  0
    9.7942    0.5700    0.0000 H   0  0  0  0  0  0  0  0  0  0  0  0
   10.9157    0.2977    0.0000 H   0  0  0  0  0  0  0  0  0  0  0  0
   11.3142   -0.3926    0.0000 H   0  0  0  0  0  0  0  0  0  0  0  0
    3.1951   -1.0000    0.0000 H   0  0  0  0  0  0  0  0  0  0  0  0
    6.0010   -1.0000    0.0000 H   0  0  0  0  0  0  0  0  0  0  0  0
   12.3923    2.3100    0.0000 H   0  0  0  0  0  0  0  0  0  0  0  0
   13.0029   -0.4177    0.0000 H   0  0  0  0  0  0  0  0  0  0  0  0
   12.6044    0.2726    0.0000 H   0  0  0  0  0  0  0  0  0  0  0  0
    6.3301    3.8100    0.0000 H   0  0  0  0  0  0  0  0  0  0  0  0
    3.1951   -2.6200    0.0000 H   0  0  0  0  0  0  0  0  0  0  0  0
    6.0010   -2.6200    0.0000 H   0  0  0  0  0  0  0  0  0  0  0  0
   11.7723   -1.3100    0.0000 H   0  0  0  0  0  0  0  0  0  0  0  0
   12.3923   -1.9300    0.0000 H   0  0  0  0  0  0  0  0  0  0  0  0
   13.0123   -1.3100    0.0000 H   0  0  0  0  0  0  0  0  0  0  0  0
    3.9781   -3.8100    0.0000 H   0  0  0  0  0  0  0  0  0  0  0  0
    4.5981   -4.4300    0.0000 H   0  0  0  0  0  0  0  0  0  0  0  0
    5.2181   -3.8100    0.0000 H   0  0  0  0  0  0  0  0  0  0  0  0
   14.9904    1.8100    0.0000 H   0  0  0  0  0  0  0  0  0  0  0  0
   13.5874   -0.6200    0.0000 H   0  0  0  0  0  0  0  0  0  0  0  0
   16.3933    1.0000    0.0000 H   0  0  0  0  0  0  0  0  0  0  0  0
   14.9904   -1.4300    0.0000 H   0  0  0  0  0  0  0  0  0  0  0  0
   16.3933   -0.6200    0.0000 H   0  0  0  0  0  0  0  0  0  0  0  0
  1  3  2  0  0  0  0
  1  4  2  0  0  0  0
  1 10  1  0  0  0  0
  1 21  1  0  0  0  0
  2  8  2  0  0  0  0
  2  9  2  0  0  0  0
  2 12  1  0  0  0  0
  2 34  1  0  0  0  0
  5 19  1  0  0  0  0
  5 68  1  0  0  0  0
  6 19  2  0  0  0  0
  7 26  2  0  0  0  0
 13 10  1  6  0  0  0
 10 15  1  0  0  0  0
 11 20  1  0  0  0  0
 11 26  1  0  0  0  0
 11 60  1  0  0  0  0
 24 12  1  1  0  0  0
 12 65  1  0  0  0  0
 13 14  1  0  0  0  0
 13 19  1  0  0  0  0
 13 41  1  0  0  0  0
 14 16  1  0  0  0  0
 14 42  1  0  0  0  0
 14 43  1  0  0  0  0
 15 17  1  0  0  0  0
 15 44  1  0  0  0  0
 15 45  1  0  0  0  0
 16 18  1  0  0  0  0
 16 46  1  0  0  0  0
 16 47  1  0  0  0  0
 17 22  1  0  0  0  0
 17 23  1  0  0  0  0
 17 48  1  0  0  0  0
 18 20  1  0  0  0  0
 18 49  1  0  0  0  0
 18 50  1  0  0  0  0
 20 51  1  0  0  0  0
 20 52  1  0  0  0  0
 21 27  2  0  0  0  0
 21 28  1  0  0  0  0
 22 53  1  0  0  0  0
 22 54  1  0  0  0  0
 22 55  1  0  0  0  0
 23 56  1  0  0  0  0
 23 57  1  0  0  0  0
 23 58  1  0  0  0  0
 24 25  1  0  0  0  0
 24 26  1  0  0  0  0
 24 59  1  0  0  0  0
 25 29  1  0  0  0  0
 25 61  1  0  0  0  0
 25 62  1  0  0  0  0
 27 30  1  0  0  0  0
 27 63  1  0  0  0  0
 28 31  2  0  0  0  0
 28 64  1  0  0  0  0
 29 33  1  0  0  0  0
 29 66  1  0  0  0  0
 29 67  1  0  0  0  0
 30 32  2  0  0  0  0
 30 69  1  0  0  0  0
 31 32  1  0  0  0  0
 31 70  1  0  0  0  0
 32 35  1  0  0  0  0
 33 71  1  0  0  0  0
 33 72  1  0  0  0  0
 33 73  1  0  0  0  0
 34 36  2  0  0  0  0
 34 37  1  0  0  0  0
 35 74  1  0  0  0  0
 35 75  1  0  0  0  0
 35 76  1  0  0  0  0
 36 38  1  0  0  0  0
 36 77  1  0  0  0  0
 37 39  2  0  0  0  0
 37 78  1  0  0  0  0
 38 40  2  0  0  0  0
 38 79  1  0  0  0  0
 39 40  1  0  0  0  0
 39 80  1  0  0  0  0
 40 81  1  0  0  0  0
M  END
> <PUBCHEM_COMPOUND_CID>
508537
> <PUBCHEM_COMPOUND_CANONICALIZED>
1
> <PUBCHEM_CACTVS_COMPLEXITY>
992
> <PUBCHEM_CACTVS_HBOND_ACCEPTOR>
9
> <PUBCHEM_CACTVS_HBOND_DONOR>
3
> <PUBCHEM_CACTVS_ROTATABLE_BOND>
17
> <PUBCHEM_CACTVS_SUBSKEYS>
AAADcfB7OABgAAAAAAAAAAAAAAAAAAAAAAAwYAAAAAAAAAABQAAAHgQQSAAADSjB2AQyCYLAAgKIAiHSGHBCABAgAAAIiJmIAIgKYDKAkTCUYAAklgCYiAeYyAAOEAAAAAAAAAAgAAAAAAAAAAAAAAAAAA==
> <PUBCHEM_IUPAC_OPENEYE_NAME>
(2S)-6-[[(2S)-2-(benzenesulfonamido)pentanoyl]amino]-2-[isobutyl(p-tolylsulfonyl)amino]hexanoic acid
> <PUBCHEM_IUPAC_CAS_NAME>
(2S)-6-[[(2S)-2-(benzenesulfonamido)-1-oxopentyl]amino]-2-[(4-methylphenyl)sulfonyl-(2-methylpropyl)amino]hexanoic acid
> <PUBCHEM_IUPAC_NAME_MARKUP>
(2<I>S</I>)-6-[[(2<I>S</I>)-2-(benzenesulfonamido)pentanoyl]amino]-2-[(4-methylphenyl)sulfonyl-(2-methylpropyl)amino]hexanoic acid
> <PUBCHEM_IUPAC_NAME>
(2S)-6-[[(2S)-2-(benzenesulfonamido)pentanoyl]amino]-2-[(4-methylphenyl)sulfonyl-(2-methylpropyl)amino]hexanoic acid
> <PUBCHEM_IUPAC_SYSTEMATIC_NAME>
(2S)-2-[(4-methylphenyl)sulfonyl-(2-methylpropyl)amino]-6-[[(2S)-2-(phenylsulfonylamino)pentanoyl]amino]hexanoic acid
> <PUBCHEM_IUPAC_TRADITIONAL_NAME>
(2S)-6-[[(2S)-2-(benzenesulfonamido)pentanoyl]amino]-2-[isobutyl(tosyl)amino]hexanoic acid
> <PUBCHEM_IUPAC_INCHI>
InChI=1S/C28H41N3O7S2/c1-5-11-25(30-39(35,36)23-12-7-6-8-13-23)27(32)29-19-10-9-14-26(28(33)34)31(20-21(2)3)40(37,38)24-17-15-22(4)16-18-24/h6-8,12-13,15-18,21,25-26,30H,5,9-11,14,19-20H2,1-4H3,(H,29,32)(H,33,34)/t25-,26-/m0/s1
> <PUBCHEM_IUPAC_INCHIKEY>
SMOUYDCFVQNWCU-UIOOFZCWSA-N
> <PUBCHEM_XLOGP3_AA>
4.8
> <PUBCHEM_EXACT_MASS>
595.23859300
> <PUBCHEM_MOLECULAR_FORMULA>
C28H41N3O7S2
> <PUBCHEM_MOLECULAR_WEIGHT>
595.8
> <PUBCHEM_OPENEYE_CAN_SMILES>
CCCC(C(=O)NCCCCC(C(=O)O)N(CC(C)C)S(=O)(=O)C1=CC=C(C=C1)C)NS(=O)(=O)C2=CC=CC=C2
> <PUBCHEM_OPENEYE_ISO_SMILES>
CCC[C@@H](C(=O)NCCCC[C@@H](C(=O)O)N(CC(C)C)S(=O)(=O)C1=CC=C(C=C1)C)NS(=O)(=O)C2=CC=CC=C2
> <PUBCHEM_CACTVS_TPSA>
167
> <PUBCHEM_MONOISOTOPIC_WEIGHT>
595.23859300
> <PUBCHEM_TOTAL_CHARGE>
0
> <PUBCHEM_HEAVY_ATOM_COUNT>
40
> <PUBCHEM_ATOM_DEF_STEREO_COUNT>
2
> <PUBCHEM_ATOM_UDEF_STEREO_COUNT>
0
> <PUBCHEM_BOND_DEF_STEREO_COUNT>
0
> <PUBCHEM_BOND_UDEF_STEREO_COUNT>
0
> <PUBCHEM_ISOTOPIC_ATOM_COUNT>
0
> <PUBCHEM_COMPONENT_COUNT>
1
> <PUBCHEM_CACTVS_TAUTO_COUNT>
-1
> <PUBCHEM_COORDINATE_TYPE>
1
5
255
> <PUBCHEM_BONDANNOTATIONS>
13  10  6
24  12  5
21  27  8
21  28  8
27  30  8
28  31  8
30  32  8
31  32  8
34  36  8
34  37  8
36  38  8
37  39  8
38  40  8
39  40  8
$$$$
