508585
  -OEChem-10302200282D
 80 80  0     1  0  0  0  0  0999 V2000
    4.5981    0.0670    0.0000 S   0  0  0  0  0  0  0  0  0  0  0  0
    5.5981    0.0670    0.0000 O   0  0  0  0  0  0  0  0  0  0  0  0
    3.5981    0.0670    0.0000 O   0  0  0  0  0  0  0  0  0  0  0  0
    6.3301    3.0670    0.0000 O   0  0  0  0  0  0  0  0  0  0  0  0
    4.5981    3.0670    0.0000 O   0  0  0  0  0  0  0  0  0  0  0  0
   10.6603    2.5670    0.0000 O   0  0  0  0  0  0  0  0  0  0  0  0
   11.5263    3.0670    0.0000 O   0  0  0  0  0  0  0  0  0  0  0  0
   13.2583    0.0670    0.0000 O   0  0  0  0  0  0  0  0  0  0  0  0
    4.5981    1.0670    0.0000 N   0  0  3  0  0  0  0  0  0  0  0  0
    9.7942    1.0670    0.0000 N   0  0  0  0  0  0  0  0  0  0  0  0
   12.3923    1.5670    0.0000 N   0  0  0  0  0  0  0  0  0  0  0  0
   12.3923   -1.4330    0.0000 N   0  0  0  0  0  0  0  0  0  0  0  0
    5.4641    1.5670    0.0000 C   0  0  1  0  0  0  0  0  0  0  0  0
    6.3301    1.0670    0.0000 C   0  0  0  0  0  0  0  0  0  0  0  0
    3.7320    1.5670    0.0000 C   0  0  0  0  0  0  0  0  0  0  0  0
    2.8660    1.0670    0.0000 C   0  0  0  0  0  0  0  0  0  0  0  0
    7.1962    1.5670    0.0000 C   0  0  0  0  0  0  0  0  0  0  0  0
    8.0622    1.0670    0.0000 C   0  0  0  0  0  0  0  0  0  0  0  0
    5.4641    2.5670    0.0000 C   0  0  0  0  0  0  0  0  0  0  0  0
    8.9282    1.5670    0.0000 C   0  0  0  0  0  0  0  0  0  0  0  0
    4.5981   -0.9330    0.0000 C   0  0  0  0  0  0  0  0  0  0  0  0
    2.0000    1.5670    0.0000 C   0  0  0  0  0  0  0  0  0  0  0  0
    2.8660    0.0670    0.0000 C   0  0  0  0  0  0  0  0  0  0  0  0
   11.5263    1.0670    0.0000 C   0  0  2  0  0  0  0  0  0  0  0  0
   13.2583    3.0670    0.0000 C   0  0  0  0  0  0  0  0  0  0  0  0
    3.7320   -1.4330    0.0000 C   0  0  0  0  0  0  0  0  0  0  0  0
    5.4641   -1.4330    0.0000 C   0  0  0  0  0  0  0  0  0  0  0  0
   10.6603    1.5670    0.0000 C   0  0  0  0  0  0  0  0  0  0  0  0
   12.3923    2.5670    0.0000 C   0  0  0  0  0  0  0  0  0  0  0  0
   11.5263    0.0670    0.0000 C   0  0  0  0  0  0  0  0  0  0  0  0
   14.1244    3.5670    0.0000 C   0  0  0  0  0  0  0  0  0  0  0  0
   12.7583    3.9330    0.0000 C   0  0  0  0  0  0  0  0  0  0  0  0
   13.7583    2.2010    0.0000 C   0  0  0  0  0  0  0  0  0  0  0  0
    3.7320   -2.4330    0.0000 C   0  0  0  0  0  0  0  0  0  0  0  0
    5.4641   -2.4330    0.0000 C   0  0  0  0  0  0  0  0  0  0  0  0
    4.5981   -2.9330    0.0000 C   0  0  0  0  0  0  0  0  0  0  0  0
   12.3923   -0.4330    0.0000 C   0  0  0  0  0  0  0  0  0  0  0  0
    4.5981   -3.9330    0.0000 C   0  0  0  0  0  0  0  0  0  0  0  0
    5.4641    0.9470    0.0000 H   0  0  0  0  0  0  0  0  0  0  0  0
    5.9316    0.5920    0.0000 H   0  0  0  0  0  0  0  0  0  0  0  0
    6.7287    0.5920    0.0000 H   0  0  0  0  0  0  0  0  0  0  0  0
    4.1306    2.0419    0.0000 H   0  0  0  0  0  0  0  0  0  0  0  0
    3.3335    2.0419    0.0000 H   0  0  0  0  0  0  0  0  0  0  0  0
    2.8660    1.6870    0.0000 H   0  0  0  0  0  0  0  0  0  0  0  0
    7.5947    2.0419    0.0000 H   0  0  0  0  0  0  0  0  0  0  0  0
    6.7976    2.0419    0.0000 H   0  0  0  0  0  0  0  0  0  0  0  0
    7.6636    0.5920    0.0000 H   0  0  0  0  0  0  0  0  0  0  0  0
    8.4607    0.5920    0.0000 H   0  0  0  0  0  0  0  0  0  0  0  0
    9.3267    2.0419    0.0000 H   0  0  0  0  0  0  0  0  0  0  0  0
    8.5297    2.0419    0.0000 H   0  0  0  0  0  0  0  0  0  0  0  0
    2.3100    2.1039    0.0000 H   0  0  0  0  0  0  0  0  0  0  0  0
    1.4631    1.8770    0.0000 H   0  0  0  0  0  0  0  0  0  0  0  0
    1.6900    1.0300    0.0000 H   0  0  0  0  0  0  0  0  0  0  0  0
    2.2460    0.0670    0.0000 H   0  0  0  0  0  0  0  0  0  0  0  0
    2.8660   -0.5530    0.0000 H   0  0  0  0  0  0  0  0  0  0  0  0
    3.4860    0.0670    0.0000 H   0  0  0  0  0  0  0  0  0  0  0  0
   12.0632    0.7570    0.0000 H   0  0  0  0  0  0  0  0  0  0  0  0
    9.7942    0.4470    0.0000 H   0  0  0  0  0  0  0  0  0  0  0  0
    3.1951   -1.1230    0.0000 H   0  0  0  0  0  0  0  0  0  0  0  0
    6.0010   -1.1230    0.0000 H   0  0  0  0  0  0  0  0  0  0  0  0
   12.9292    1.2570    0.0000 H   0  0  0  0  0  0  0  0  0  0  0  0
   10.9157    0.1746    0.0000 H   0  0  0  0  0  0  0  0  0  0  0  0
   11.3142   -0.5156    0.0000 H   0  0  0  0  0  0  0  0  0  0  0  0
    6.3301    3.6870    0.0000 H   0  0  0  0  0  0  0  0  0  0  0  0
   14.4344    3.0300    0.0000 H   0  0  0  0  0  0  0  0  0  0  0  0
   14.6613    3.8770    0.0000 H   0  0  0  0  0  0  0  0  0  0  0  0
   13.8144    4.1039    0.0000 H   0  0  0  0  0  0  0  0  0  0  0  0
   13.2953    4.2430    0.0000 H   0  0  0  0  0  0  0  0  0  0  0  0
   12.4483    4.4700    0.0000 H   0  0  0  0  0  0  0  0  0  0  0  0
   12.2214    3.6230    0.0000 H   0  0  0  0  0  0  0  0  0  0  0  0
   13.2214    1.8910    0.0000 H   0  0  0  0  0  0  0  0  0  0  0  0
   14.0683    1.6640    0.0000 H   0  0  0  0  0  0  0  0  0  0  0  0
   14.2953    2.5110    0.0000 H   0  0  0  0  0  0  0  0  0  0  0  0
    3.1951   -2.7430    0.0000 H   0  0  0  0  0  0  0  0  0  0  0  0
    6.0010   -2.7430    0.0000 H   0  0  0  0  0  0  0  0  0  0  0  0
    3.9781   -3.9330    0.0000 H   0  0  0  0  0  0  0  0  0  0  0  0
    4.5981   -4.5530    0.0000 H   0  0  0  0  0  0  0  0  0  0  0  0
    5.2181   -3.9330    0.0000 H   0  0  0  0  0  0  0  0  0  0  0  0
   12.9292   -1.7430    0.0000 H   0  0  0  0  0  0  0  0  0  0  0  0
   11.8554   -1.7430    0.0000 H   0  0  0  0  0  0  0  0  0  0  0  0
  1  2  2  0  0  0  0
  1  3  2  0  0  0  0
  1  9  1  0  0  0  0
  1 21  1  0  0  0  0
  4 19  1  0  0  0  0
  4 64  1  0  0  0  0
  5 19  2  0  0  0  0
  6 28  2  0  0  0  0
  7 29  2  0  0  0  0
  8 37  2  0  0  0  0
 13  9  1  6  0  0  0
  9 15  1  0  0  0  0
 10 20  1  0  0  0  0
 10 28  1  0  0  0  0
 10 58  1  0  0  0  0
 24 11  1  1  0  0  0
 11 29  1  0  0  0  0
 11 61  1  0  0  0  0
 12 37  1  0  0  0  0
 12 79  1  0  0  0  0
 12 80  1  0  0  0  0
 13 14  1  0  0  0  0
 13 19  1  0  0  0  0
 13 39  1  0  0  0  0
 14 17  1  0  0  0  0
 14 40  1  0  0  0  0
 14 41  1  0  0  0  0
 15 16  1  0  0  0  0
 15 42  1  0  0  0  0
 15 43  1  0  0  0  0
 16 22  1  0  0  0  0
 16 23  1  0  0  0  0
 16 44  1  0  0  0  0
 17 18  1  0  0  0  0
 17 45  1  0  0  0  0
 17 46  1  0  0  0  0
 18 20  1  0  0  0  0
 18 47  1  0  0  0  0
 18 48  1  0  0  0  0
 20 49  1  0  0  0  0
 20 50  1  0  0  0  0
 21 26  2  0  0  0  0
 21 27  1  0  0  0  0
 22 51  1  0  0  0  0
 22 52  1  0  0  0  0
 22 53  1  0  0  0  0
 23 54  1  0  0  0  0
 23 55  1  0  0  0  0
 23 56  1  0  0  0  0
 24 28  1  0  0  0  0
 24 30  1  0  0  0  0
 24 57  1  0  0  0  0
 25 29  1  0  0  0  0
 25 31  1  0  0  0  0
 25 32  1  0  0  0  0
 25 33  1  0  0  0  0
 26 34  1  0  0  0  0
 26 59  1  0  0  0  0
 27 35  2  0  0  0  0
 27 60  1  0  0  0  0
 30 37  1  0  0  0  0
 30 62  1  0  0  0  0
 30 63  1  0  0  0  0
 31 65  1  0  0  0  0
 31 66  1  0  0  0  0
 31 67  1  0  0  0  0
 32 68  1  0  0  0  0
 32 69  1  0  0  0  0
 32 70  1  0  0  0  0
 33 71  1  0  0  0  0
 33 72  1  0  0  0  0
 33 73  1  0  0  0  0
 34 36  2  0  0  0  0
 34 74  1  0  0  0  0
 35 36  1  0  0  0  0
 35 75  1  0  0  0  0
 36 38  1  0  0  0  0
 38 76  1  0  0  0  0
 38 77  1  0  0  0  0
 38 78  1  0  0  0  0
M  END
> <PUBCHEM_COMPOUND_CID>
508585
> <PUBCHEM_COMPOUND_CANONICALIZED>
1
> <PUBCHEM_CACTVS_COMPLEXITY>
917
> <PUBCHEM_CACTVS_HBOND_ACCEPTOR>
8
> <PUBCHEM_CACTVS_HBOND_DONOR>
4
> <PUBCHEM_CACTVS_ROTATABLE_BOND>
16
> <PUBCHEM_CACTVS_SUBSKEYS>
AAADcfB7uABAAAAAAAAAAAAAAAAAAAAAAAAwAAAAAAAAAAABAAAAHgQQSAAADyjB2AQyCYLAAgKIAiHSGHBCABAgAAAIiJmIAIgKYDqA0TCUYAAklgCYiAedyAAOEAAAAAAAAAAgAAAAAAAAAAAAAAAAAA==
> <PUBCHEM_IUPAC_OPENEYE_NAME>
(2S)-6-[[(2S)-4-amino-2-(2,2-dimethylpropanoylamino)-4-oxo-butanoyl]amino]-2-[isobutyl(p-tolylsulfonyl)amino]hexanoic acid
> <PUBCHEM_IUPAC_CAS_NAME>
(2S)-6-[[(2S)-4-amino-2-[(2,2-dimethyl-1-oxopropyl)amino]-1,4-dioxobutyl]amino]-2-[(4-methylphenyl)sulfonyl-(2-methylpropyl)amino]hexanoic acid
> <PUBCHEM_IUPAC_NAME_MARKUP>
(2<I>S</I>)-6-[[(2<I>S</I>)-4-amino-2-(2,2-dimethylpropanoylamino)-4-oxobutanoyl]amino]-2-[(4-methylphenyl)sulfonyl-(2-methylpropyl)amino]hexanoic acid
> <PUBCHEM_IUPAC_NAME>
(2S)-6-[[(2S)-4-amino-2-(2,2-dimethylpropanoylamino)-4-oxobutanoyl]amino]-2-[(4-methylphenyl)sulfonyl-(2-methylpropyl)amino]hexanoic acid
> <PUBCHEM_IUPAC_SYSTEMATIC_NAME>
(2S)-6-[[(2S)-4-azanyl-2-(2,2-dimethylpropanoylamino)-4-oxidanylidene-butanoyl]amino]-2-[(4-methylphenyl)sulfonyl-(2-methylpropyl)amino]hexanoic acid
> <PUBCHEM_IUPAC_TRADITIONAL_NAME>
(2S)-6-[[(2S)-4-amino-4-keto-2-(pivaloylamino)butanoyl]amino]-2-[isobutyl(tosyl)amino]hexanoic acid
> <PUBCHEM_IUPAC_INCHI>
InChI=1S/C26H42N4O7S/c1-17(2)16-30(38(36,37)19-12-10-18(3)11-13-19)21(24(33)34)9-7-8-14-28-23(32)20(15-22(27)31)29-25(35)26(4,5)6/h10-13,17,20-21H,7-9,14-16H2,1-6H3,(H2,27,31)(H,28,32)(H,29,35)(H,33,34)/t20-,21-/m0/s1
> <PUBCHEM_IUPAC_INCHIKEY>
DLWPWBPXDUICKQ-SFTDATJTSA-N
> <PUBCHEM_XLOGP3_AA>
2.4
> <PUBCHEM_EXACT_MASS>
554.27742087
> <PUBCHEM_MOLECULAR_FORMULA>
C26H42N4O7S
> <PUBCHEM_MOLECULAR_WEIGHT>
554.7
> <PUBCHEM_OPENEYE_CAN_SMILES>
CC1=CC=C(C=C1)S(=O)(=O)N(CC(C)C)C(CCCCNC(=O)C(CC(=O)N)NC(=O)C(C)(C)C)C(=O)O
> <PUBCHEM_OPENEYE_ISO_SMILES>
CC1=CC=C(C=C1)S(=O)(=O)N(CC(C)C)[C@@H](CCCCNC(=O)[C@H](CC(=O)N)NC(=O)C(C)(C)C)C(=O)O
> <PUBCHEM_CACTVS_TPSA>
184
> <PUBCHEM_MONOISOTOPIC_WEIGHT>
554.27742087
> <PUBCHEM_TOTAL_CHARGE>
0
> <PUBCHEM_HEAVY_ATOM_COUNT>
38
> <PUBCHEM_ATOM_DEF_STEREO_COUNT>
2
> <PUBCHEM_ATOM_UDEF_STEREO_COUNT>
0
> <PUBCHEM_BOND_DEF_STEREO_COUNT>
0
> <PUBCHEM_BOND_UDEF_STEREO_COUNT>
0
> <PUBCHEM_ISOTOPIC_ATOM_COUNT>
0
> <PUBCHEM_COMPONENT_COUNT>
1
> <PUBCHEM_CACTVS_TAUTO_COUNT>
-1
> <PUBCHEM_COORDINATE_TYPE>
1
5
255
> <PUBCHEM_BONDANNOTATIONS>
24  11  5
21  26  8
21  27  8
26  34  8
27  35  8
34  36  8
35  36  8
13  9  6
$$$$
