508560
  -OEChem-10302200282D
105109  0     1  0  0  0  0  0999 V2000
   14.0536    1.9118    0.0000 S   0  0  0  0  0  0  0  0  0  0  0  0
    7.1254    2.9118    0.0000 O   0  0  0  0  0  0  0  0  0  0  0  0
    5.3934   -1.0882    0.0000 O   0  0  0  0  0  0  0  0  0  0  0  0
    4.5274    0.4118    0.0000 O   0  0  0  0  0  0  0  0  0  0  0  0
   14.5536    1.0458    0.0000 O   0  0  0  0  0  0  0  0  0  0  0  0
   13.5536    2.7778    0.0000 O   0  0  0  0  0  0  0  0  0  0  0  0
   11.4556    3.4118    0.0000 O   0  0  0  0  0  0  0  0  0  0  0  0
   13.1876    3.4118    0.0000 O   0  0  0  0  0  0  0  0  0  0  0  0
    6.2594    0.4118    0.0000 N   0  0  0  0  0  0  0  0  0  0  0  0
    7.9915    1.4118    0.0000 N   0  0  0  0  0  0  0  0  0  0  0  0
   13.1876    1.4118    0.0000 N   0  0  3  0  0  0  0  0  0  0  0  0
    5.3934    2.9118    0.0000 C   0  0  0  0  0  0  0  0  0  0  0  0
    6.2594    3.4118    0.0000 C   0  0  0  0  0  0  0  0  0  0  0  0
    4.5274    3.4118    0.0000 C   0  0  0  0  0  0  0  0  0  0  0  0
    6.2594    4.4118    0.0000 C   0  0  0  0  0  0  0  0  0  0  0  0
    4.5274    4.4118    0.0000 C   0  0  0  0  0  0  0  0  0  0  0  0
    5.3934    1.9118    0.0000 C   0  0  0  0  0  0  0  0  0  0  0  0
    5.3934    4.9118    0.0000 C   0  0  0  0  0  0  0  0  0  0  0  0
    6.2594    1.4118    0.0000 C   0  0  1  0  0  0  0  0  0  0  0  0
    7.1254    1.9118    0.0000 C   0  0  0  0  0  0  0  0  0  0  0  0
    8.8575    1.9118    0.0000 C   0  0  0  0  0  0  0  0  0  0  0  0
    9.7235    1.4118    0.0000 C   0  0  0  0  0  0  0  0  0  0  0  0
   12.3216    1.9118    0.0000 C   0  0  1  0  0  0  0  0  0  0  0  0
   11.4556    1.4118    0.0000 C   0  0  0  0  0  0  0  0  0  0  0  0
    5.3934   -0.0882    0.0000 C   0  0  0  0  0  0  0  0  0  0  0  0
   10.5895    1.9118    0.0000 C   0  0  0  0  0  0  0  0  0  0  0  0
    4.5274   -2.5882    0.0000 C   0  0  0  0  0  0  0  0  0  0  0  0
   13.1876    0.4118    0.0000 C   0  0  0  0  0  0  0  0  0  0  0  0
    4.5274   -1.5882    0.0000 C   0  0  0  0  0  0  0  0  0  0  0  0
    5.3364   -3.1760    0.0000 C   0  0  0  0  0  0  0  0  0  0  0  0
    3.7183   -3.1760    0.0000 C   0  0  0  0  0  0  0  0  0  0  0  0
   12.3216   -0.0882    0.0000 C   0  0  0  0  0  0  0  0  0  0  0  0
    5.0274   -4.1270    0.0000 C   0  0  0  0  0  0  0  0  0  0  0  0
    4.0274   -4.1270    0.0000 C   0  0  0  0  0  0  0  0  0  0  0  0
   12.3216    2.9118    0.0000 C   0  0  0  0  0  0  0  0  0  0  0  0
    6.3518   -2.9438    0.0000 C   0  0  0  0  0  0  0  0  0  0  0  0
    2.7029   -2.9438    0.0000 C   0  0  0  0  0  0  0  0  0  0  0  0
   14.9197    2.4118    0.0000 C   0  0  0  0  0  0  0  0  0  0  0  0
   12.3216   -1.0882    0.0000 C   0  0  0  0  0  0  0  0  0  0  0  0
   11.4556    0.4118    0.0000 C   0  0  0  0  0  0  0  0  0  0  0  0
    5.7123   -4.9118    0.0000 C   0  0  0  0  0  0  0  0  0  0  0  0
    3.3424   -4.9118    0.0000 C   0  0  0  0  0  0  0  0  0  0  0  0
    7.0547   -3.7124    0.0000 C   0  0  0  0  0  0  0  0  0  0  0  0
    2.0000   -3.7124    0.0000 C   0  0  0  0  0  0  0  0  0  0  0  0
    6.7328   -4.7031    0.0000 C   0  0  0  0  0  0  0  0  0  0  0  0
    2.3219   -4.7031    0.0000 C   0  0  0  0  0  0  0  0  0  0  0  0
   14.9197    3.4118    0.0000 C   0  0  0  0  0  0  0  0  0  0  0  0
   15.7857    1.9118    0.0000 C   0  0  0  0  0  0  0  0  0  0  0  0
   15.7857    3.9118    0.0000 C   0  0  0  0  0  0  0  0  0  0  0  0
   16.6517    2.4118    0.0000 C   0  0  0  0  0  0  0  0  0  0  0  0
   16.6517    3.4118    0.0000 C   0  0  0  0  0  0  0  0  0  0  0  0
   17.5177    3.9118    0.0000 C   0  0  0  0  0  0  0  0  0  0  0  0
    5.9303    2.6018    0.0000 H   0  0  0  0  0  0  0  0  0  0  0  0
    6.4715    2.8292    0.0000 H   0  0  0  0  0  0  0  0  0  0  0  0
    6.8700    3.5194    0.0000 H   0  0  0  0  0  0  0  0  0  0  0  0
    3.9168    3.5194    0.0000 H   0  0  0  0  0  0  0  0  0  0  0  0
    4.3153    2.8292    0.0000 H   0  0  0  0  0  0  0  0  0  0  0  0
    6.8700    4.3041    0.0000 H   0  0  0  0  0  0  0  0  0  0  0  0
    6.4715    4.9944    0.0000 H   0  0  0  0  0  0  0  0  0  0  0  0
    4.3153    4.9944    0.0000 H   0  0  0  0  0  0  0  0  0  0  0  0
    3.9168    4.3041    0.0000 H   0  0  0  0  0  0  0  0  0  0  0  0
    4.7828    2.0194    0.0000 H   0  0  0  0  0  0  0  0  0  0  0  0
    5.1813    1.3292    0.0000 H   0  0  0  0  0  0  0  0  0  0  0  0
    5.7919    5.3867    0.0000 H   0  0  0  0  0  0  0  0  0  0  0  0
    4.9949    5.3867    0.0000 H   0  0  0  0  0  0  0  0  0  0  0  0
    6.7964    1.1018    0.0000 H   0  0  0  0  0  0  0  0  0  0  0  0
    6.7964    0.1018    0.0000 H   0  0  0  0  0  0  0  0  0  0  0  0
    7.9915    0.7918    0.0000 H   0  0  0  0  0  0  0  0  0  0  0  0
    9.2560    2.3867    0.0000 H   0  0  0  0  0  0  0  0  0  0  0  0
    8.4590    2.3867    0.0000 H   0  0  0  0  0  0  0  0  0  0  0  0
   12.8585    2.2218    0.0000 H   0  0  0  0  0  0  0  0  0  0  0  0
    9.3250    0.9368    0.0000 H   0  0  0  0  0  0  0  0  0  0  0  0
   10.1220    0.9368    0.0000 H   0  0  0  0  0  0  0  0  0  0  0  0
   11.0570    0.9368    0.0000 H   0  0  0  0  0  0  0  0  0  0  0  0
   11.8541    0.9368    0.0000 H   0  0  0  0  0  0  0  0  0  0  0  0
   10.9881    2.3867    0.0000 H   0  0  0  0  0  0  0  0  0  0  0  0
   10.1910    2.3867    0.0000 H   0  0  0  0  0  0  0  0  0  0  0  0
    5.0798   -2.3067    0.0000 H   0  0  0  0  0  0  0  0  0  0  0  0
   13.3997   -0.1708    0.0000 H   0  0  0  0  0  0  0  0  0  0  0  0
   13.7982    0.5195    0.0000 H   0  0  0  0  0  0  0  0  0  0  0  0
    4.3153   -1.0056    0.0000 H   0  0  0  0  0  0  0  0  0  0  0  0
    3.9168   -1.6959    0.0000 H   0  0  0  0  0  0  0  0  0  0  0  0
   12.8585   -0.3982    0.0000 H   0  0  0  0  0  0  0  0  0  0  0  0
    6.5365   -2.3519    0.0000 H   0  0  0  0  0  0  0  0  0  0  0  0
    2.5182   -2.3519    0.0000 H   0  0  0  0  0  0  0  0  0  0  0  0
   11.7016   -1.0882    0.0000 H   0  0  0  0  0  0  0  0  0  0  0  0
   12.3216   -1.7082    0.0000 H   0  0  0  0  0  0  0  0  0  0  0  0
   12.9416   -1.0882    0.0000 H   0  0  0  0  0  0  0  0  0  0  0  0
   11.7656    0.9487    0.0000 H   0  0  0  0  0  0  0  0  0  0  0  0
   10.9186    0.7218    0.0000 H   0  0  0  0  0  0  0  0  0  0  0  0
   11.1456   -0.1251    0.0000 H   0  0  0  0  0  0  0  0  0  0  0  0
    5.5139   -5.4992    0.0000 H   0  0  0  0  0  0  0  0  0  0  0  0
    3.5408   -5.4992    0.0000 H   0  0  0  0  0  0  0  0  0  0  0  0
    7.6607   -3.5812    0.0000 H   0  0  0  0  0  0  0  0  0  0  0  0
    1.3940   -3.5812    0.0000 H   0  0  0  0  0  0  0  0  0  0  0  0
    7.1459   -5.1654    0.0000 H   0  0  0  0  0  0  0  0  0  0  0  0
    1.9088   -5.1654    0.0000 H   0  0  0  0  0  0  0  0  0  0  0  0
   14.3827    3.7218    0.0000 H   0  0  0  0  0  0  0  0  0  0  0  0
   15.7857    1.2918    0.0000 H   0  0  0  0  0  0  0  0  0  0  0  0
   11.4556    4.0318    0.0000 H   0  0  0  0  0  0  0  0  0  0  0  0
   15.7857    4.5318    0.0000 H   0  0  0  0  0  0  0  0  0  0  0  0
   17.1887    2.1018    0.0000 H   0  0  0  0  0  0  0  0  0  0  0  0
   17.8277    3.3748    0.0000 H   0  0  0  0  0  0  0  0  0  0  0  0
   18.0547    4.2218    0.0000 H   0  0  0  0  0  0  0  0  0  0  0  0
   17.2077    4.4487    0.0000 H   0  0  0  0  0  0  0  0  0  0  0  0
  1  5  2  0  0  0  0
  1  6  2  0  0  0  0
  1 11  1  0  0  0  0
  1 38  1  0  0  0  0
  2 20  2  0  0  0  0
  3 25  1  0  0  0  0
  3 29  1  0  0  0  0
  4 25  2  0  0  0  0
  7 35  1  0  0  0  0
  7100  1  0  0  0  0
  8 35  2  0  0  0  0
 19  9  1  1  0  0  0
  9 25  1  0  0  0  0
  9 67  1  0  0  0  0
 10 20  1  0  0  0  0
 10 21  1  0  0  0  0
 10 68  1  0  0  0  0
 23 11  1  1  0  0  0
 11 28  1  0  0  0  0
 12 13  1  0  0  0  0
 12 14  1  0  0  0  0
 12 17  1  0  0  0  0
 12 53  1  0  0  0  0
 13 15  1  0  0  0  0
 13 54  1  0  0  0  0
 13 55  1  0  0  0  0
 14 16  1  0  0  0  0
 14 56  1  0  0  0  0
 14 57  1  0  0  0  0
 15 18  1  0  0  0  0
 15 58  1  0  0  0  0
 15 59  1  0  0  0  0
 16 18  1  0  0  0  0
 16 60  1  0  0  0  0
 16 61  1  0  0  0  0
 17 19  1  0  0  0  0
 17 62  1  0  0  0  0
 17 63  1  0  0  0  0
 18 64  1  0  0  0  0
 18 65  1  0  0  0  0
 19 20  1  0  0  0  0
 19 66  1  0  0  0  0
 21 22  1  0  0  0  0
 21 69  1  0  0  0  0
 21 70  1  0  0  0  0
 22 26  1  0  0  0  0
 22 72  1  0  0  0  0
 22 73  1  0  0  0  0
 23 24  1  0  0  0  0
 23 35  1  0  0  0  0
 23 71  1  0  0  0  0
 24 26  1  0  0  0  0
 24 74  1  0  0  0  0
 24 75  1  0  0  0  0
 26 76  1  0  0  0  0
 26 77  1  0  0  0  0
 27 29  1  0  0  0  0
 27 30  1  0  0  0  0
 27 31  1  0  0  0  0
 27 78  1  0  0  0  0
 28 32  1  0  0  0  0
 28 79  1  0  0  0  0
 28 80  1  0  0  0  0
 29 81  1  0  0  0  0
 29 82  1  0  0  0  0
 30 33  1  0  0  0  0
 30 36  2  0  0  0  0
 31 34  1  0  0  0  0
 31 37  2  0  0  0  0
 32 39  1  0  0  0  0
 32 40  1  0  0  0  0
 32 83  1  0  0  0  0
 33 34  1  0  0  0  0
 33 41  2  0  0  0  0
 34 42  2  0  0  0  0
 36 43  1  0  0  0  0
 36 84  1  0  0  0  0
 37 44  1  0  0  0  0
 37 85  1  0  0  0  0
 38 47  2  0  0  0  0
 38 48  1  0  0  0  0
 39 86  1  0  0  0  0
 39 87  1  0  0  0  0
 39 88  1  0  0  0  0
 40 89  1  0  0  0  0
 40 90  1  0  0  0  0
 40 91  1  0  0  0  0
 41 45  1  0  0  0  0
 41 92  1  0  0  0  0
 42 46  1  0  0  0  0
 42 93  1  0  0  0  0
 43 45  2  0  0  0  0
 43 94  1  0  0  0  0
 44 46  2  0  0  0  0
 44 95  1  0  0  0  0
 45 96  1  0  0  0  0
 46 97  1  0  0  0  0
 47 49  1  0  0  0  0
 47 98  1  0  0  0  0
 48 50  2  0  0  0  0
 48 99  1  0  0  0  0
 49 51  2  0  0  0  0
 49101  1  0  0  0  0
 50 51  1  0  0  0  0
 50102  1  0  0  0  0
 51 52  1  0  0  0  0
 52103  1  0  0  0  0
 52104  1  0  0  0  0
 52105  1  0  0  0  0
M  END
> <PUBCHEM_COMPOUND_CID>
508560
> <PUBCHEM_COMPOUND_CANONICALIZED>
1
> <PUBCHEM_CACTVS_COMPLEXITY>
1240
> <PUBCHEM_CACTVS_HBOND_ACCEPTOR>
8
> <PUBCHEM_CACTVS_HBOND_DONOR>
3
> <PUBCHEM_CACTVS_ROTATABLE_BOND>
18
> <PUBCHEM_CACTVS_SUBSKEYS>
AAADcfB/OABAAAAAAAAAAAAAAAAAAYAAAAAwYMGAAAAAAGABUAAAHgQQSAAADSjh2AYyCYLABgKIAiHSGHBCABAgAAAIiJmIAIkKYDKAkTCcYAAk1gGYiAeYyPCOkAAAAAAQAAAgAAAAACAAAQAACAAAAA==
> <PUBCHEM_IUPAC_OPENEYE_NAME>
(2S)-6-[[(2S)-3-cyclohexyl-2-(9H-fluoren-9-ylmethoxycarbonylamino)propanoyl]amino]-2-[isobutyl(p-tolylsulfonyl)amino]hexanoic acid
> <PUBCHEM_IUPAC_CAS_NAME>
(2S)-6-[[(2S)-3-cyclohexyl-2-[[9H-fluoren-9-ylmethoxy(oxo)methyl]amino]-1-oxopropyl]amino]-2-[(4-methylphenyl)sulfonyl-(2-methylpropyl)amino]hexanoic acid
> <PUBCHEM_IUPAC_NAME_MARKUP>
(2<I>S</I>)-6-[[(2<I>S</I>)-3-cyclohexyl-2-(9<I>H</I>-fluoren-9-ylmethoxycarbonylamino)propanoyl]amino]-2-[(4-methylphenyl)sulfonyl-(2-methylpropyl)amino]hexanoic acid
> <PUBCHEM_IUPAC_NAME>
(2S)-6-[[(2S)-3-cyclohexyl-2-(9H-fluoren-9-ylmethoxycarbonylamino)propanoyl]amino]-2-[(4-methylphenyl)sulfonyl-(2-methylpropyl)amino]hexanoic acid
> <PUBCHEM_IUPAC_SYSTEMATIC_NAME>
(2S)-6-[[(2S)-3-cyclohexyl-2-(9H-fluoren-9-ylmethoxycarbonylamino)propanoyl]amino]-2-[(4-methylphenyl)sulfonyl-(2-methylpropyl)amino]hexanoic acid
> <PUBCHEM_IUPAC_TRADITIONAL_NAME>
(2S)-6-[[(2S)-3-cyclohexyl-2-(9H-fluoren-9-ylmethoxycarbonylamino)propanoyl]amino]-2-[isobutyl(tosyl)amino]hexanoic acid
> <PUBCHEM_IUPAC_INCHI>
InChI=1S/C41H53N3O7S/c1-28(2)26-44(52(49,50)31-22-20-29(3)21-23-31)38(40(46)47)19-11-12-24-42-39(45)37(25-30-13-5-4-6-14-30)43-41(48)51-27-36-34-17-9-7-15-32(34)33-16-8-10-18-35(33)36/h7-10,15-18,20-23,28,30,36-38H,4-6,11-14,19,24-27H2,1-3H3,(H,42,45)(H,43,48)(H,46,47)/t37-,38-/m0/s1
> <PUBCHEM_IUPAC_INCHIKEY>
BBJNFYOHEUIQIO-UWXQCODUSA-N
> <PUBCHEM_XLOGP3_AA>
8.8
> <PUBCHEM_EXACT_MASS>
731.36042221
> <PUBCHEM_MOLECULAR_FORMULA>
C41H53N3O7S
> <PUBCHEM_MOLECULAR_WEIGHT>
731.9
> <PUBCHEM_OPENEYE_CAN_SMILES>
CC1=CC=C(C=C1)S(=O)(=O)N(CC(C)C)C(CCCCNC(=O)C(CC2CCCCC2)NC(=O)OCC3C4=CC=CC=C4C5=CC=CC=C35)C(=O)O
> <PUBCHEM_OPENEYE_ISO_SMILES>
CC1=CC=C(C=C1)S(=O)(=O)N(CC(C)C)[C@@H](CCCCNC(=O)[C@H](CC2CCCCC2)NC(=O)OCC3C4=CC=CC=C4C5=CC=CC=C35)C(=O)O
> <PUBCHEM_CACTVS_TPSA>
151
> <PUBCHEM_MONOISOTOPIC_WEIGHT>
731.36042221
> <PUBCHEM_TOTAL_CHARGE>
0
> <PUBCHEM_HEAVY_ATOM_COUNT>
52
> <PUBCHEM_ATOM_DEF_STEREO_COUNT>
2
> <PUBCHEM_ATOM_UDEF_STEREO_COUNT>
0
> <PUBCHEM_BOND_DEF_STEREO_COUNT>
0
> <PUBCHEM_BOND_UDEF_STEREO_COUNT>
0
> <PUBCHEM_ISOTOPIC_ATOM_COUNT>
0
> <PUBCHEM_COMPONENT_COUNT>
1
> <PUBCHEM_CACTVS_TAUTO_COUNT>
-1
> <PUBCHEM_COORDINATE_TYPE>
1
5
255
> <PUBCHEM_BONDANNOTATIONS>
23  11  5
30  33  8
30  36  8
31  34  8
31  37  8
33  41  8
34  42  8
36  43  8
37  44  8
38  47  8
38  48  8
41  45  8
42  46  8
43  45  8
44  46  8
47  49  8
48  50  8
49  51  8
50  51  8
19  9  5
$$$$
