508570
  -OEChem-10302200282D
 81 82  0     1  0  0  0  0  0999 V2000
    4.5981   -1.0950    0.0000 S   0  0  0  0  0  0  0  0  0  0  0  0
   12.3923    1.4050    0.0000 S   0  0  0  0  0  0  0  0  0  0  0  0
    5.5981   -1.0950    0.0000 O   0  0  0  0  0  0  0  0  0  0  0  0
    3.5981   -1.0950    0.0000 O   0  0  0  0  0  0  0  0  0  0  0  0
    6.3301    1.9050    0.0000 O   0  0  0  0  0  0  0  0  0  0  0  0
    4.5981    1.9050    0.0000 O   0  0  0  0  0  0  0  0  0  0  0  0
   10.6603    1.4050    0.0000 O   0  0  0  0  0  0  0  0  0  0  0  0
   13.3923    1.4050    0.0000 O   0  0  0  0  0  0  0  0  0  0  0  0
   11.3923    1.4050    0.0000 O   0  0  0  0  0  0  0  0  0  0  0  0
   13.2583   -1.0950    0.0000 O   0  0  0  0  0  0  0  0  0  0  0  0
    4.5981   -0.0950    0.0000 N   0  0  3  0  0  0  0  0  0  0  0  0
    9.7942   -0.0950    0.0000 N   0  0  0  0  0  0  0  0  0  0  0  0
   12.3923    0.4050    0.0000 N   0  0  0  0  0  0  0  0  0  0  0  0
    4.5981   -5.0950    0.0000 N   0  0  0  0  0  0  0  0  0  0  0  0
   12.3923   -2.5950    0.0000 N   0  0  0  0  0  0  0  0  0  0  0  0
    5.4641    0.4050    0.0000 C   0  0  1  0  0  0  0  0  0  0  0  0
    6.3301   -0.0950    0.0000 C   0  0  0  0  0  0  0  0  0  0  0  0
    3.7320    0.4050    0.0000 C   0  0  0  0  0  0  0  0  0  0  0  0
    2.8660   -0.0950    0.0000 C   0  0  0  0  0  0  0  0  0  0  0  0
    7.1962    0.4050    0.0000 C   0  0  0  0  0  0  0  0  0  0  0  0
    8.0622   -0.0950    0.0000 C   0  0  0  0  0  0  0  0  0  0  0  0
    5.4641    1.4050    0.0000 C   0  0  0  0  0  0  0  0  0  0  0  0
    2.0000    0.4050    0.0000 C   0  0  0  0  0  0  0  0  0  0  0  0
    2.8660   -1.0950    0.0000 C   0  0  0  0  0  0  0  0  0  0  0  0
    8.9282    0.4050    0.0000 C   0  0  0  0  0  0  0  0  0  0  0  0
    4.5981   -2.0950    0.0000 C   0  0  0  0  0  0  0  0  0  0  0  0
    3.7320   -2.5950    0.0000 C   0  0  0  0  0  0  0  0  0  0  0  0
    5.4641   -2.5950    0.0000 C   0  0  0  0  0  0  0  0  0  0  0  0
   11.5263   -0.0950    0.0000 C   0  0  2  0  0  0  0  0  0  0  0  0
   10.6603    0.4050    0.0000 C   0  0  0  0  0  0  0  0  0  0  0  0
   11.5263   -1.0950    0.0000 C   0  0  0  0  0  0  0  0  0  0  0  0
    3.7320   -3.5950    0.0000 C   0  0  0  0  0  0  0  0  0  0  0  0
    5.4641   -3.5950    0.0000 C   0  0  0  0  0  0  0  0  0  0  0  0
    4.5981   -4.0950    0.0000 C   0  0  0  0  0  0  0  0  0  0  0  0
   12.3923    2.4050    0.0000 C   0  0  0  0  0  0  0  0  0  0  0  0
   12.3923   -1.5950    0.0000 C   0  0  0  0  0  0  0  0  0  0  0  0
   11.5263    2.9050    0.0000 C   0  0  0  0  0  0  0  0  0  0  0  0
   13.2583    2.9050    0.0000 C   0  0  0  0  0  0  0  0  0  0  0  0
   11.5263    3.9050    0.0000 C   0  0  0  0  0  0  0  0  0  0  0  0
   13.2583    3.9050    0.0000 C   0  0  0  0  0  0  0  0  0  0  0  0
   12.3923    4.4050    0.0000 C   0  0  0  0  0  0  0  0  0  0  0  0
   12.3923    5.4050    0.0000 C   0  0  0  0  0  0  0  0  0  0  0  0
    5.4641   -0.2150    0.0000 H   0  0  0  0  0  0  0  0  0  0  0  0
    5.9316   -0.5699    0.0000 H   0  0  0  0  0  0  0  0  0  0  0  0
    6.7287   -0.5699    0.0000 H   0  0  0  0  0  0  0  0  0  0  0  0
    4.1306    0.8799    0.0000 H   0  0  0  0  0  0  0  0  0  0  0  0
    3.3335    0.8799    0.0000 H   0  0  0  0  0  0  0  0  0  0  0  0
    2.8660    0.5250    0.0000 H   0  0  0  0  0  0  0  0  0  0  0  0
    7.5947    0.8799    0.0000 H   0  0  0  0  0  0  0  0  0  0  0  0
    6.7976    0.8799    0.0000 H   0  0  0  0  0  0  0  0  0  0  0  0
    7.6636   -0.5699    0.0000 H   0  0  0  0  0  0  0  0  0  0  0  0
    8.4607   -0.5699    0.0000 H   0  0  0  0  0  0  0  0  0  0  0  0
    2.3100    0.9419    0.0000 H   0  0  0  0  0  0  0  0  0  0  0  0
    1.4631    0.7150    0.0000 H   0  0  0  0  0  0  0  0  0  0  0  0
    1.6900   -0.1319    0.0000 H   0  0  0  0  0  0  0  0  0  0  0  0
    2.2460   -1.0950    0.0000 H   0  0  0  0  0  0  0  0  0  0  0  0
    2.8660   -1.7150    0.0000 H   0  0  0  0  0  0  0  0  0  0  0  0
    3.4860   -1.0950    0.0000 H   0  0  0  0  0  0  0  0  0  0  0  0
    9.3267    0.8799    0.0000 H   0  0  0  0  0  0  0  0  0  0  0  0
    8.5297    0.8799    0.0000 H   0  0  0  0  0  0  0  0  0  0  0  0
    9.7942   -0.7150    0.0000 H   0  0  0  0  0  0  0  0  0  0  0  0
    3.1951   -2.2850    0.0000 H   0  0  0  0  0  0  0  0  0  0  0  0
    6.0010   -2.2850    0.0000 H   0  0  0  0  0  0  0  0  0  0  0  0
   12.0632   -0.4050    0.0000 H   0  0  0  0  0  0  0  0  0  0  0  0
    6.3301    2.5250    0.0000 H   0  0  0  0  0  0  0  0  0  0  0  0
   10.9157   -0.9873    0.0000 H   0  0  0  0  0  0  0  0  0  0  0  0
   11.3142   -1.6776    0.0000 H   0  0  0  0  0  0  0  0  0  0  0  0
    3.1951   -3.9050    0.0000 H   0  0  0  0  0  0  0  0  0  0  0  0
    6.0010   -3.9050    0.0000 H   0  0  0  0  0  0  0  0  0  0  0  0
   12.9292    0.0950    0.0000 H   0  0  0  0  0  0  0  0  0  0  0  0
    4.0611   -5.4050    0.0000 H   0  0  0  0  0  0  0  0  0  0  0  0
    5.1350   -5.4050    0.0000 H   0  0  0  0  0  0  0  0  0  0  0  0
   10.9893    2.5950    0.0000 H   0  0  0  0  0  0  0  0  0  0  0  0
   13.7953    2.5950    0.0000 H   0  0  0  0  0  0  0  0  0  0  0  0
   10.9893    4.2150    0.0000 H   0  0  0  0  0  0  0  0  0  0  0  0
   13.7953    4.2150    0.0000 H   0  0  0  0  0  0  0  0  0  0  0  0
   11.8554   -2.9050    0.0000 H   0  0  0  0  0  0  0  0  0  0  0  0
   12.9292   -2.9050    0.0000 H   0  0  0  0  0  0  0  0  0  0  0  0
   13.0123    5.4050    0.0000 H   0  0  0  0  0  0  0  0  0  0  0  0
   12.3923    6.0250    0.0000 H   0  0  0  0  0  0  0  0  0  0  0  0
   11.7723    5.4050    0.0000 H   0  0  0  0  0  0  0  0  0  0  0  0
  1  3  2  0  0  0  0
  1  4  2  0  0  0  0
  1 11  1  0  0  0  0
  1 26  1  0  0  0  0
  2  8  2  0  0  0  0
  2  9  2  0  0  0  0
  2 13  1  0  0  0  0
  2 35  1  0  0  0  0
  5 22  1  0  0  0  0
  5 65  1  0  0  0  0
  6 22  2  0  0  0  0
  7 30  2  0  0  0  0
 10 36  2  0  0  0  0
 16 11  1  6  0  0  0
 11 18  1  0  0  0  0
 12 25  1  0  0  0  0
 12 30  1  0  0  0  0
 12 61  1  0  0  0  0
 29 13  1  1  0  0  0
 13 70  1  0  0  0  0
 14 34  1  0  0  0  0
 14 71  1  0  0  0  0
 14 72  1  0  0  0  0
 15 36  1  0  0  0  0
 15 77  1  0  0  0  0
 15 78  1  0  0  0  0
 16 17  1  0  0  0  0
 16 22  1  0  0  0  0
 16 43  1  0  0  0  0
 17 20  1  0  0  0  0
 17 44  1  0  0  0  0
 17 45  1  0  0  0  0
 18 19  1  0  0  0  0
 18 46  1  0  0  0  0
 18 47  1  0  0  0  0
 19 23  1  0  0  0  0
 19 24  1  0  0  0  0
 19 48  1  0  0  0  0
 20 21  1  0  0  0  0
 20 49  1  0  0  0  0
 20 50  1  0  0  0  0
 21 25  1  0  0  0  0
 21 51  1  0  0  0  0
 21 52  1  0  0  0  0
 23 53  1  0  0  0  0
 23 54  1  0  0  0  0
 23 55  1  0  0  0  0
 24 56  1  0  0  0  0
 24 57  1  0  0  0  0
 24 58  1  0  0  0  0
 25 59  1  0  0  0  0
 25 60  1  0  0  0  0
 26 27  2  0  0  0  0
 26 28  1  0  0  0  0
 27 32  1  0  0  0  0
 27 62  1  0  0  0  0
 28 33  2  0  0  0  0
 28 63  1  0  0  0  0
 29 30  1  0  0  0  0
 29 31  1  0  0  0  0
 29 64  1  0  0  0  0
 31 36  1  0  0  0  0
 31 66  1  0  0  0  0
 31 67  1  0  0  0  0
 32 34  2  0  0  0  0
 32 68  1  0  0  0  0
 33 34  1  0  0  0  0
 33 69  1  0  0  0  0
 35 37  2  0  0  0  0
 35 38  1  0  0  0  0
 37 39  1  0  0  0  0
 37 73  1  0  0  0  0
 38 40  2  0  0  0  0
 38 74  1  0  0  0  0
 39 41  2  0  0  0  0
 39 75  1  0  0  0  0
 40 41  1  0  0  0  0
 40 76  1  0  0  0  0
 41 42  1  0  0  0  0
 42 79  1  0  0  0  0
 42 80  1  0  0  0  0
 42 81  1  0  0  0  0
M  END
> <PUBCHEM_COMPOUND_CID>
508570
> <PUBCHEM_COMPOUND_CANONICALIZED>
1
> <PUBCHEM_CACTVS_COMPLEXITY>
1100
> <PUBCHEM_CACTVS_HBOND_ACCEPTOR>
11
> <PUBCHEM_CACTVS_HBOND_DONOR>
5
> <PUBCHEM_CACTVS_ROTATABLE_BOND>
17
> <PUBCHEM_CACTVS_SUBSKEYS>
AAADcfB7vABgAAAAAAAAAAAAAAAAAAAAAAAwYAAAAAAAAAABQAAAHgQQSAAADSjB2AQyyYLAAgKIAiXSWHDCABAgAgAIiJmIZIgKYDqA0bGUYABklgCYyAedyAAOEAQAAAAAAAAgCAAAAAAAAAAAAAAAAA==
> <PUBCHEM_IUPAC_OPENEYE_NAME>
(2S)-6-[[(2S)-4-amino-4-oxo-2-(p-tolylsulfonylamino)butanoyl]amino]-2-[(4-aminophenyl)sulfonyl-isobutyl-amino]hexanoic acid
> <PUBCHEM_IUPAC_CAS_NAME>
(2S)-6-[[(2S)-4-amino-2-[(4-methylphenyl)sulfonylamino]-1,4-dioxobutyl]amino]-2-[(4-aminophenyl)sulfonyl-(2-methylpropyl)amino]hexanoic acid
> <PUBCHEM_IUPAC_NAME_MARKUP>
(2<I>S</I>)-6-[[(2<I>S</I>)-4-amino-2-[(4-methylphenyl)sulfonylamino]-4-oxobutanoyl]amino]-2-[(4-aminophenyl)sulfonyl-(2-methylpropyl)amino]hexanoic acid
> <PUBCHEM_IUPAC_NAME>
(2S)-6-[[(2S)-4-amino-2-[(4-methylphenyl)sulfonylamino]-4-oxobutanoyl]amino]-2-[(4-aminophenyl)sulfonyl-(2-methylpropyl)amino]hexanoic acid
> <PUBCHEM_IUPAC_SYSTEMATIC_NAME>
(2S)-2-[(4-aminophenyl)sulfonyl-(2-methylpropyl)amino]-6-[[(2S)-4-azanyl-2-[(4-methylphenyl)sulfonylamino]-4-oxidanylidene-butanoyl]amino]hexanoic acid
> <PUBCHEM_IUPAC_TRADITIONAL_NAME>
(2S)-6-[[(2S)-4-amino-4-keto-2-(tosylamino)butanoyl]amino]-2-[isobutyl(sulfanilyl)amino]hexanoic acid
> <PUBCHEM_IUPAC_INCHI>
InChI=1S/C27H39N5O8S2/c1-18(2)17-32(42(39,40)22-13-9-20(28)10-14-22)24(27(35)36)6-4-5-15-30-26(34)23(16-25(29)33)31-41(37,38)21-11-7-19(3)8-12-21/h7-14,18,23-24,31H,4-6,15-17,28H2,1-3H3,(H2,29,33)(H,30,34)(H,35,36)/t23-,24-/m0/s1
> <PUBCHEM_IUPAC_INCHIKEY>
QUXCNLLQBLKAKS-ZEQRLZLVSA-N
> <PUBCHEM_XLOGP3_AA>
1.7
> <PUBCHEM_EXACT_MASS>
625.22400557
> <PUBCHEM_MOLECULAR_FORMULA>
C27H39N5O8S2
> <PUBCHEM_MOLECULAR_WEIGHT>
625.8
> <PUBCHEM_OPENEYE_CAN_SMILES>
CC1=CC=C(C=C1)S(=O)(=O)NC(CC(=O)N)C(=O)NCCCCC(C(=O)O)N(CC(C)C)S(=O)(=O)C2=CC=C(C=C2)N
> <PUBCHEM_OPENEYE_ISO_SMILES>
CC1=CC=C(C=C1)S(=O)(=O)N[C@@H](CC(=O)N)C(=O)NCCCC[C@@H](C(=O)O)N(CC(C)C)S(=O)(=O)C2=CC=C(C=C2)N
> <PUBCHEM_CACTVS_TPSA>
236
> <PUBCHEM_MONOISOTOPIC_WEIGHT>
625.22400557
> <PUBCHEM_TOTAL_CHARGE>
0
> <PUBCHEM_HEAVY_ATOM_COUNT>
42
> <PUBCHEM_ATOM_DEF_STEREO_COUNT>
2
> <PUBCHEM_ATOM_UDEF_STEREO_COUNT>
0
> <PUBCHEM_BOND_DEF_STEREO_COUNT>
0
> <PUBCHEM_BOND_UDEF_STEREO_COUNT>
0
> <PUBCHEM_ISOTOPIC_ATOM_COUNT>
0
> <PUBCHEM_COMPONENT_COUNT>
1
> <PUBCHEM_CACTVS_TAUTO_COUNT>
-1
> <PUBCHEM_COORDINATE_TYPE>
1
5
255
> <PUBCHEM_BONDANNOTATIONS>
16  11  6
29  13  5
26  27  8
26  28  8
27  32  8
28  33  8
32  34  8
33  34  8
35  37  8
35  38  8
37  39  8
38  40  8
39  41  8
40  41  8
$$$$
