508513
  -OEChem-10302200282D
 50 54  0     1  0  0  0  0  0999 V2000
    5.5197    2.6028    0.0000 N   0  0  0  0  0  0  0  0  0  0  0  0
    4.9544   -0.6030    0.0000 N   0  0  0  0  0  0  0  0  0  0  0  0
    6.6865   -0.6030    0.0000 N   0  0  0  0  0  0  0  0  0  0  0  0
    4.9136    4.1030    0.0000 N   0  0  0  0  0  0  0  0  0  0  0  0
    6.1625    1.8367    0.0000 C   0  0  3  0  0  0  0  0  0  0  0  0
    5.8204    0.8970    0.0000 C   0  0  0  0  0  0  0  0  0  0  0  0
    7.1473    2.0104    0.0000 C   0  0  0  0  0  0  0  0  0  0  0  0
    4.9544    0.3970    0.0000 C   0  0  0  0  0  0  0  0  0  0  0  0
    6.6865    0.3970    0.0000 C   0  0  0  0  0  0  0  0  0  0  0  0
    3.9696    0.5707    0.0000 C   0  0  0  0  0  0  0  0  0  0  0  0
    7.4893    2.9501    0.0000 C   0  0  0  0  0  0  0  0  0  0  0  0
    7.7901    1.2443    0.0000 C   0  0  0  0  0  0  0  0  0  0  0  0
    4.5221    2.5330    0.0000 C   0  0  0  0  0  0  0  0  0  0  0  0
    5.7616    3.5731    0.0000 C   0  0  0  0  0  0  0  0  0  0  0  0
    5.8204   -1.1030    0.0000 C   0  0  0  0  0  0  0  0  0  0  0  0
    8.4741    3.1237    0.0000 C   0  0  0  0  0  0  0  0  0  0  0  0
    8.7749    1.4180    0.0000 C   0  0  0  0  0  0  0  0  0  0  0  0
    4.1475    3.4602    0.0000 C   0  0  0  0  0  0  0  0  0  0  0  0
    3.6276    1.5104    0.0000 C   0  0  0  0  0  0  0  0  0  0  0  0
    3.3268   -0.1953    0.0000 C   0  0  0  0  0  0  0  0  0  0  0  0
    5.8204   -2.1030    0.0000 C   0  0  0  0  0  0  0  0  0  0  0  0
    9.1169    2.3577    0.0000 C   0  0  0  0  0  0  0  0  0  0  0  0
    2.6428    1.6840    0.0000 C   0  0  0  0  0  0  0  0  0  0  0  0
    2.3420   -0.0217    0.0000 C   0  0  0  0  0  0  0  0  0  0  0  0
    4.9544   -2.6030    0.0000 C   0  0  0  0  0  0  0  0  0  0  0  0
    6.6865   -2.6030    0.0000 C   0  0  0  0  0  0  0  0  0  0  0  0
    2.0000    0.9180    0.0000 C   0  0  0  0  0  0  0  0  0  0  0  0
    4.9544   -3.6030    0.0000 C   0  0  0  0  0  0  0  0  0  0  0  0
    6.6865   -3.6030    0.0000 C   0  0  0  0  0  0  0  0  0  0  0  0
    5.8204   -4.1030    0.0000 C   0  0  0  0  0  0  0  0  0  0  0  0
    6.3745    2.4193    0.0000 H   0  0  0  0  0  0  0  0  0  0  0  0
    7.2234    0.7070    0.0000 H   0  0  0  0  0  0  0  0  0  0  0  0
    7.0908    3.4250    0.0000 H   0  0  0  0  0  0  0  0  0  0  0  0
    7.5780    0.6617    0.0000 H   0  0  0  0  0  0  0  0  0  0  0  0
    4.1936    2.0072    0.0000 H   0  0  0  0  0  0  0  0  0  0  0  0
    6.3365    3.8053    0.0000 H   0  0  0  0  0  0  0  0  0  0  0  0
    8.6862    3.7063    0.0000 H   0  0  0  0  0  0  0  0  0  0  0  0
    9.1734    0.9430    0.0000 H   0  0  0  0  0  0  0  0  0  0  0  0
    3.5459    3.6102    0.0000 H   0  0  0  0  0  0  0  0  0  0  0  0
    4.0261    1.9853    0.0000 H   0  0  0  0  0  0  0  0  0  0  0  0
    3.5388   -0.7779    0.0000 H   0  0  0  0  0  0  0  0  0  0  0  0
    9.7275    2.4653    0.0000 H   0  0  0  0  0  0  0  0  0  0  0  0
    2.4307    2.2666    0.0000 H   0  0  0  0  0  0  0  0  0  0  0  0
    1.9435   -0.4967    0.0000 H   0  0  0  0  0  0  0  0  0  0  0  0
    4.4175   -2.2930    0.0000 H   0  0  0  0  0  0  0  0  0  0  0  0
    7.2234   -2.2930    0.0000 H   0  0  0  0  0  0  0  0  0  0  0  0
    1.3894    1.0256    0.0000 H   0  0  0  0  0  0  0  0  0  0  0  0
    4.4175   -3.9130    0.0000 H   0  0  0  0  0  0  0  0  0  0  0  0
    7.2234   -3.9130    0.0000 H   0  0  0  0  0  0  0  0  0  0  0  0
    5.8204   -4.7230    0.0000 H   0  0  0  0  0  0  0  0  0  0  0  0
  1  5  1  0  0  0  0
  1 13  1  0  0  0  0
  1 14  1  0  0  0  0
  2  8  2  0  0  0  0
  2 15  1  0  0  0  0
  3  9  1  0  0  0  0
  3 15  2  0  0  0  0
  4 14  2  0  0  0  0
  4 18  1  0  0  0  0
  5  6  1  0  0  0  0
  5  7  1  0  0  0  0
  5 31  1  0  0  0  0
  6  8  1  0  0  0  0
  6  9  2  0  0  0  0
  7 11  2  0  0  0  0
  7 12  1  0  0  0  0
  8 10  1  0  0  0  0
  9 32  1  0  0  0  0
 10 19  2  0  0  0  0
 10 20  1  0  0  0  0
 11 16  1  0  0  0  0
 11 33  1  0  0  0  0
 12 17  2  0  0  0  0
 12 34  1  0  0  0  0
 13 18  2  0  0  0  0
 13 35  1  0  0  0  0
 14 36  1  0  0  0  0
 15 21  1  0  0  0  0
 16 22  2  0  0  0  0
 16 37  1  0  0  0  0
 17 22  1  0  0  0  0
 17 38  1  0  0  0  0
 18 39  1  0  0  0  0
 19 23  1  0  0  0  0
 19 40  1  0  0  0  0
 20 24  2  0  0  0  0
 20 41  1  0  0  0  0
 21 25  2  0  0  0  0
 21 26  1  0  0  0  0
 22 42  1  0  0  0  0
 23 27  2  0  0  0  0
 23 43  1  0  0  0  0
 24 27  1  0  0  0  0
 24 44  1  0  0  0  0
 25 28  1  0  0  0  0
 25 45  1  0  0  0  0
 26 29  2  0  0  0  0
 26 46  1  0  0  0  0
 27 47  1  0  0  0  0
 28 30  2  0  0  0  0
 28 48  1  0  0  0  0
 29 30  1  0  0  0  0
 29 49  1  0  0  0  0
 30 50  1  0  0  0  0
M  END
> <PUBCHEM_COMPOUND_CID>
508513
> <PUBCHEM_COMPOUND_CANONICALIZED>
1
> <PUBCHEM_CACTVS_COMPLEXITY>
507
> <PUBCHEM_CACTVS_HBOND_ACCEPTOR>
3
> <PUBCHEM_CACTVS_HBOND_DONOR>
0
> <PUBCHEM_CACTVS_ROTATABLE_BOND>
5
> <PUBCHEM_CACTVS_SUBSKEYS>
AAADceB7gAAAAAAAAAAAAAAAAAAAAWAAAAA8YMEAAAAAAAAB9AAAHAAAAAAADCjBHwQ9kJcMEACgAzZnZACCgC0xEqAJ2CA4dJiIaKLA2dGUJAhogALIyCcQgMAOAAAAAAAAAAAAAAAAAAAAAAAAAAAAAA==
> <PUBCHEM_IUPAC_OPENEYE_NAME>
5-[imidazol-1-yl(phenyl)methyl]-2,4-diphenyl-pyrimidine
> <PUBCHEM_IUPAC_CAS_NAME>
5-[1-imidazolyl(phenyl)methyl]-2,4-diphenylpyrimidine
> <PUBCHEM_IUPAC_NAME_MARKUP>
5-[imidazol-1-yl(phenyl)methyl]-2,4-diphenylpyrimidine
> <PUBCHEM_IUPAC_NAME>
5-[imidazol-1-yl(phenyl)methyl]-2,4-diphenylpyrimidine
> <PUBCHEM_IUPAC_SYSTEMATIC_NAME>
5-[imidazol-1-yl(phenyl)methyl]-2,4-diphenyl-pyrimidine
> <PUBCHEM_IUPAC_TRADITIONAL_NAME>
5-[imidazol-1-yl(phenyl)methyl]-2,4-diphenyl-pyrimidine
> <PUBCHEM_IUPAC_INCHI>
InChI=1S/C26H20N4/c1-4-10-20(11-5-1)24-23(18-28-26(29-24)22-14-8-3-9-15-22)25(30-17-16-27-19-30)21-12-6-2-7-13-21/h1-19,25H
> <PUBCHEM_IUPAC_INCHIKEY>
WBHVWWVWOQELKS-UHFFFAOYSA-N
> <PUBCHEM_XLOGP3_AA>
4.9
> <PUBCHEM_EXACT_MASS>
388.16879665
> <PUBCHEM_MOLECULAR_FORMULA>
C26H20N4
> <PUBCHEM_MOLECULAR_WEIGHT>
388.5
> <PUBCHEM_OPENEYE_CAN_SMILES>
C1=CC=C(C=C1)C2=NC(=NC=C2C(C3=CC=CC=C3)N4C=CN=C4)C5=CC=CC=C5
> <PUBCHEM_OPENEYE_ISO_SMILES>
C1=CC=C(C=C1)C2=NC(=NC=C2C(C3=CC=CC=C3)N4C=CN=C4)C5=CC=CC=C5
> <PUBCHEM_CACTVS_TPSA>
43.6
> <PUBCHEM_MONOISOTOPIC_WEIGHT>
388.16879665
> <PUBCHEM_TOTAL_CHARGE>
0
> <PUBCHEM_HEAVY_ATOM_COUNT>
30
> <PUBCHEM_ATOM_DEF_STEREO_COUNT>
0
> <PUBCHEM_ATOM_UDEF_STEREO_COUNT>
1
> <PUBCHEM_BOND_DEF_STEREO_COUNT>
0
> <PUBCHEM_BOND_UDEF_STEREO_COUNT>
0
> <PUBCHEM_ISOTOPIC_ATOM_COUNT>
0
> <PUBCHEM_COMPONENT_COUNT>
1
> <PUBCHEM_CACTVS_TAUTO_COUNT>
-1
> <PUBCHEM_COORDINATE_TYPE>
1
5
255
> <PUBCHEM_BONDANNOTATIONS>
1  13  8
1  14  8
10  19  8
10  20  8
11  16  8
12  17  8
13  18  8
16  22  8
17  22  8
19  23  8
2  15  8
2  8  8
20  24  8
21  25  8
21  26  8
23  27  8
24  27  8
25  28  8
26  29  8
28  30  8
29  30  8
3  15  8
3  9  8
4  14  8
4  18  8
5  7  3
6  8  8
6  9  8
7  11  8
7  12  8
$$$$
