508576
  -OEChem-10302200282D
 89 92  0     1  0  0  0  0  0999 V2000
   13.2207   -1.9189    0.0000 S   0  0  0  0  0  0  0  0  0  0  0  0
    5.6103    2.6725    0.0000 S   0  0  0  0  0  0  0  0  0  0  0  0
    3.9477    3.3140    0.0000 S   0  0  0  0  0  0  0  0  0  0  0  0
   13.9650   -1.2511    0.0000 O   0  0  0  0  0  0  0  0  0  0  0  0
   12.4764   -2.5868    0.0000 O   0  0  0  0  0  0  0  0  0  0  0  0
   11.9315   -3.0757    0.0000 O   0  0  0  0  0  0  0  0  0  0  0  0
    6.3246   -0.7171    0.0000 O   0  0  0  0  0  0  0  0  0  0  0  0
    6.3546    3.3404    0.0000 O   0  0  0  0  0  0  0  0  0  0  0  0
    4.8660    2.0047    0.0000 O   0  0  0  0  0  0  0  0  0  0  0  0
   12.5528   -1.1746    0.0000 N   0  0  3  0  0  0  0  0  0  0  0  0
    7.6138    0.4396    0.0000 N   0  0  0  0  0  0  0  0  0  0  0  0
   10.2852   -2.5376    0.0000 N   0  0  0  0  0  0  0  0  0  0  0  0
    6.2781    1.9282    0.0000 N   0  0  0  0  0  0  0  0  0  0  0  0
    4.6783   -1.7885    0.0000 N   0  0  0  0  0  0  0  0  0  0  0  0
    9.9745   -3.4881    0.0000 N   0  0  0  0  0  0  0  0  0  0  0  0
   11.5743   -1.3808    0.0000 C   0  0  1  0  0  0  0  0  0  0  0  0
   10.9065   -0.6365    0.0000 C   0  0  0  0  0  0  0  0  0  0  0  0
   12.8635   -0.2241    0.0000 C   0  0  0  0  0  0  0  0  0  0  0  0
    9.9280   -0.8428    0.0000 C   0  0  0  0  0  0  0  0  0  0  0  0
   12.1957    0.5202    0.0000 C   0  0  0  0  0  0  0  0  0  0  0  0
    9.2601   -0.0984    0.0000 C   0  0  0  0  0  0  0  0  0  0  0  0
   11.2637   -2.3314    0.0000 C   0  0  0  0  0  0  0  0  0  0  0  0
    8.2816   -0.3047    0.0000 C   0  0  0  0  0  0  0  0  0  0  0  0
   13.8885   -2.6632    0.0000 C   0  0  0  0  0  0  0  0  0  0  0  0
   12.5063    1.4707    0.0000 C   0  0  0  0  0  0  0  0  0  0  0  0
   11.2171    0.3140    0.0000 C   0  0  0  0  0  0  0  0  0  0  0  0
    5.9674    0.9777    0.0000 C   0  0  1  0  0  0  0  0  0  0  0  0
    4.9889    0.7715    0.0000 C   0  0  0  0  0  0  0  0  0  0  0  0
    6.6353    0.2334    0.0000 C   0  0  0  0  0  0  0  0  0  0  0  0
    4.6783   -0.1790    0.0000 C   0  0  0  0  0  0  0  0  0  0  0  0
   13.5779   -3.6137    0.0000 C   0  0  0  0  0  0  0  0  0  0  0  0
   14.8670   -2.4570    0.0000 C   0  0  0  0  0  0  0  0  0  0  0  0
    3.7320   -0.4838    0.0000 C   0  0  0  0  0  0  0  0  0  0  0  0
   14.2457   -4.3580    0.0000 C   0  0  0  0  0  0  0  0  0  0  0  0
   15.5349   -3.2013    0.0000 C   0  0  0  0  0  0  0  0  0  0  0  0
    3.7320   -1.4838    0.0000 C   0  0  0  0  0  0  0  0  0  0  0  0
    5.2619   -0.9838    0.0000 C   0  0  0  0  0  0  0  0  0  0  0  0
   15.2242   -4.1518    0.0000 C   0  0  0  0  0  0  0  0  0  0  0  0
    2.8660    0.0162    0.0000 C   0  0  0  0  0  0  0  0  0  0  0  0
    2.8660   -1.9838    0.0000 C   0  0  0  0  0  0  0  0  0  0  0  0
    4.9424    3.4168    0.0000 C   0  0  0  0  0  0  0  0  0  0  0  0
   15.8921   -4.8961    0.0000 C   0  0  0  0  0  0  0  0  0  0  0  0
    2.0000   -0.4838    0.0000 C   0  0  0  0  0  0  0  0  0  0  0  0
    2.0000   -1.4838    0.0000 C   0  0  0  0  0  0  0  0  0  0  0  0
    5.1520    4.3946    0.0000 C   0  0  0  0  0  0  0  0  0  0  0  0
    4.2869    4.8961    0.0000 C   0  0  0  0  0  0  0  0  0  0  0  0
    3.5426    4.2283    0.0000 C   0  0  0  0  0  0  0  0  0  0  0  0
   11.7669   -0.7915    0.0000 H   0  0  0  0  0  0  0  0  0  0  0  0
   11.4328   -0.3089    0.0000 H   0  0  0  0  0  0  0  0  0  0  0  0
   10.6752   -0.0613    0.0000 H   0  0  0  0  0  0  0  0  0  0  0  0
   13.4104   -0.5161    0.0000 H   0  0  0  0  0  0  0  0  0  0  0  0
   13.2461    0.2638    0.0000 H   0  0  0  0  0  0  0  0  0  0  0  0
    9.4016   -1.1704    0.0000 H   0  0  0  0  0  0  0  0  0  0  0  0
   10.1592   -1.4180    0.0000 H   0  0  0  0  0  0  0  0  0  0  0  0
   12.0030   -0.0691    0.0000 H   0  0  0  0  0  0  0  0  0  0  0  0
    9.7865    0.2292    0.0000 H   0  0  0  0  0  0  0  0  0  0  0  0
    9.0289    0.4768    0.0000 H   0  0  0  0  0  0  0  0  0  0  0  0
    7.7553   -0.6323    0.0000 H   0  0  0  0  0  0  0  0  0  0  0  0
    8.5129   -0.8799    0.0000 H   0  0  0  0  0  0  0  0  0  0  0  0
   13.0956    1.2781    0.0000 H   0  0  0  0  0  0  0  0  0  0  0  0
   12.6989    2.0600    0.0000 H   0  0  0  0  0  0  0  0  0  0  0  0
   11.9170    1.6633    0.0000 H   0  0  0  0  0  0  0  0  0  0  0  0
   11.0893    0.9207    0.0000 H   0  0  0  0  0  0  0  0  0  0  0  0
   10.6105    0.1861    0.0000 H   0  0  0  0  0  0  0  0  0  0  0  0
   11.3450   -0.2927    0.0000 H   0  0  0  0  0  0  0  0  0  0  0  0
    5.5534    1.4392    0.0000 H   0  0  0  0  0  0  0  0  0  0  0  0
    4.9684    1.3912    0.0000 H   0  0  0  0  0  0  0  0  0  0  0  0
    4.3751    0.8588    0.0000 H   0  0  0  0  0  0  0  0  0  0  0  0
    7.8064    1.0290    0.0000 H   0  0  0  0  0  0  0  0  0  0  0  0
    9.8711   -2.0761    0.0000 H   0  0  0  0  0  0  0  0  0  0  0  0
   12.9712   -3.7416    0.0000 H   0  0  0  0  0  0  0  0  0  0  0  0
   15.0596   -1.8677    0.0000 H   0  0  0  0  0  0  0  0  0  0  0  0
    6.8848    2.0561    0.0000 H   0  0  0  0  0  0  0  0  0  0  0  0
    5.8819   -0.9838    0.0000 H   0  0  0  0  0  0  0  0  0  0  0  0
   14.0531   -4.9474    0.0000 H   0  0  0  0  0  0  0  0  0  0  0  0
   16.1415   -3.0734    0.0000 H   0  0  0  0  0  0  0  0  0  0  0  0
    4.8709   -2.3778    0.0000 H   0  0  0  0  0  0  0  0  0  0  0  0
   10.3886   -3.9496    0.0000 H   0  0  0  0  0  0  0  0  0  0  0  0
    9.3678   -3.6160    0.0000 H   0  0  0  0  0  0  0  0  0  0  0  0
    2.8660    0.6362    0.0000 H   0  0  0  0  0  0  0  0  0  0  0  0
    2.8660   -2.6038    0.0000 H   0  0  0  0  0  0  0  0  0  0  0  0
   15.4306   -5.3102    0.0000 H   0  0  0  0  0  0  0  0  0  0  0  0
   16.3061   -5.3576    0.0000 H   0  0  0  0  0  0  0  0  0  0  0  0
   16.3535   -4.4821    0.0000 H   0  0  0  0  0  0  0  0  0  0  0  0
    1.4631   -0.1738    0.0000 H   0  0  0  0  0  0  0  0  0  0  0  0
    1.4631   -1.7938    0.0000 H   0  0  0  0  0  0  0  0  0  0  0  0
    5.7188    4.6458    0.0000 H   0  0  0  0  0  0  0  0  0  0  0  0
    4.2231    5.5128    0.0000 H   0  0  0  0  0  0  0  0  0  0  0  0
    2.9363    4.3582    0.0000 H   0  0  0  0  0  0  0  0  0  0  0  0
  1  4  2  0  0  0  0
  1  5  2  0  0  0  0
  1 10  1  0  0  0  0
  1 24  1  0  0  0  0
  2  8  2  0  0  0  0
  2  9  2  0  0  0  0
  2 13  1  0  0  0  0
  2 41  1  0  0  0  0
  3 41  1  0  0  0  0
  3 47  1  0  0  0  0
  6 22  2  0  0  0  0
  7 29  2  0  0  0  0
 16 10  1  6  0  0  0
 10 18  1  0  0  0  0
 11 23  1  0  0  0  0
 11 29  1  0  0  0  0
 11 69  1  0  0  0  0
 12 15  1  0  0  0  0
 12 22  1  0  0  0  0
 12 70  1  0  0  0  0
 27 13  1  6  0  0  0
 13 73  1  0  0  0  0
 14 36  1  0  0  0  0
 14 37  1  0  0  0  0
 14 77  1  0  0  0  0
 15 78  1  0  0  0  0
 15 79  1  0  0  0  0
 16 17  1  0  0  0  0
 16 22  1  0  0  0  0
 16 48  1  0  0  0  0
 17 19  1  0  0  0  0
 17 49  1  0  0  0  0
 17 50  1  0  0  0  0
 18 20  1  0  0  0  0
 18 51  1  0  0  0  0
 18 52  1  0  0  0  0
 19 21  1  0  0  0  0
 19 53  1  0  0  0  0
 19 54  1  0  0  0  0
 20 25  1  0  0  0  0
 20 26  1  0  0  0  0
 20 55  1  0  0  0  0
 21 23  1  0  0  0  0
 21 56  1  0  0  0  0
 21 57  1  0  0  0  0
 23 58  1  0  0  0  0
 23 59  1  0  0  0  0
 24 31  2  0  0  0  0
 24 32  1  0  0  0  0
 25 60  1  0  0  0  0
 25 61  1  0  0  0  0
 25 62  1  0  0  0  0
 26 63  1  0  0  0  0
 26 64  1  0  0  0  0
 26 65  1  0  0  0  0
 27 28  1  0  0  0  0
 27 29  1  0  0  0  0
 27 66  1  0  0  0  0
 28 30  1  0  0  0  0
 28 67  1  0  0  0  0
 28 68  1  0  0  0  0
 30 33  1  0  0  0  0
 30 37  2  0  0  0  0
 31 34  1  0  0  0  0
 31 71  1  0  0  0  0
 32 35  2  0  0  0  0
 32 72  1  0  0  0  0
 33 36  1  0  0  0  0
 33 39  2  0  0  0  0
 34 38  2  0  0  0  0
 34 75  1  0  0  0  0
 35 38  1  0  0  0  0
 35 76  1  0  0  0  0
 36 40  2  0  0  0  0
 37 74  1  0  0  0  0
 38 42  1  0  0  0  0
 39 43  1  0  0  0  0
 39 80  1  0  0  0  0
 40 44  1  0  0  0  0
 40 81  1  0  0  0  0
 41 45  2  0  0  0  0
 42 82  1  0  0  0  0
 42 83  1  0  0  0  0
 42 84  1  0  0  0  0
 43 44  2  0  0  0  0
 43 85  1  0  0  0  0
 44 86  1  0  0  0  0
 45 46  1  0  0  0  0
 45 87  1  0  0  0  0
 46 47  2  0  0  0  0
 46 88  1  0  0  0  0
 47 89  1  0  0  0  0
M  END
> <PUBCHEM_COMPOUND_CID>
508576
> <PUBCHEM_COMPOUND_CANONICALIZED>
1
> <PUBCHEM_CACTVS_COMPLEXITY>
1230
> <PUBCHEM_CACTVS_HBOND_ACCEPTOR>
10
> <PUBCHEM_CACTVS_HBOND_DONOR>
5
> <PUBCHEM_CACTVS_ROTATABLE_BOND>
17
> <PUBCHEM_CACTVS_SUBSKEYS>
AAADcfB/uABgAAAAAAAAAAAAAAAAAWJAAAAwYAAAAAAAAFgB/AAAHgQYQAAADSjF3gS+wfLrkAqsAzV3VHDDgbAxCjJa+bm4ZJgIYPLgkbGUIAhglgDoyAcYicCOkAAAAAACAAAgAAAAAAQAAAAAAAAAAA==
> <PUBCHEM_IUPAC_OPENEYE_NAME>
(2S)-N-[(5S)-6-hydrazino-5-[isobutyl(p-tolylsulfonyl)amino]-6-oxo-hexyl]-3-(1H-indol-3-yl)-2-(2-thienylsulfonylamino)propanamide
> <PUBCHEM_IUPAC_CAS_NAME>
(2S)-N-[(5S)-6-hydrazinyl-5-[(4-methylphenyl)sulfonyl-(2-methylpropyl)amino]-6-oxohexyl]-3-(1H-indol-3-yl)-2-(thiophen-2-ylsulfonylamino)propanamide
> <PUBCHEM_IUPAC_NAME_MARKUP>
(2<I>S</I>)-<I>N</I>-[(5<I>S</I>)-6-hydrazinyl-5-[(4-methylphenyl)sulfonyl-(2-methylpropyl)amino]-6-oxohexyl]-3-(1<I>H</I>-indol-3-yl)-2-(thiophen-2-ylsulfonylamino)propanamide
> <PUBCHEM_IUPAC_NAME>
(2S)-N-[(5S)-6-hydrazinyl-5-[(4-methylphenyl)sulfonyl-(2-methylpropyl)amino]-6-oxohexyl]-3-(1H-indol-3-yl)-2-(thiophen-2-ylsulfonylamino)propanamide
> <PUBCHEM_IUPAC_SYSTEMATIC_NAME>
(2S)-N-[(5S)-6-diazanyl-5-[(4-methylphenyl)sulfonyl-(2-methylpropyl)amino]-6-oxidanylidene-hexyl]-3-(1H-indol-3-yl)-2-(thiophen-2-ylsulfonylamino)propanamide
> <PUBCHEM_IUPAC_TRADITIONAL_NAME>
(2S)-N-[(5S)-6-hydrazino-5-[isobutyl(tosyl)amino]-6-keto-hexyl]-3-(1H-indol-3-yl)-2-(2-thienylsulfonylamino)propionamide
> <PUBCHEM_IUPAC_INCHI>
InChI=1S/C32H42N6O6S3/c1-22(2)21-38(47(43,44)25-15-13-23(3)14-16-25)29(32(40)36-33)11-6-7-17-34-31(39)28(37-46(41,42)30-12-8-18-45-30)19-24-20-35-27-10-5-4-9-26(24)27/h4-5,8-10,12-16,18,20,22,28-29,35,37H,6-7,11,17,19,21,33H2,1-3H3,(H,34,39)(H,36,40)/t28-,29-/m0/s1
> <PUBCHEM_IUPAC_INCHIKEY>
UMVUWQSIRYYBKC-VMPREFPWSA-N
> <PUBCHEM_XLOGP3_AA>
4.6
> <PUBCHEM_EXACT_MASS>
702.23279660
> <PUBCHEM_MOLECULAR_FORMULA>
C32H42N6O6S3
> <PUBCHEM_MOLECULAR_WEIGHT>
702.9
> <PUBCHEM_OPENEYE_CAN_SMILES>
CC1=CC=C(C=C1)S(=O)(=O)N(CC(C)C)C(CCCCNC(=O)C(CC2=CNC3=CC=CC=C32)NS(=O)(=O)C4=CC=CS4)C(=O)NN
> <PUBCHEM_OPENEYE_ISO_SMILES>
CC1=CC=C(C=C1)S(=O)(=O)N(CC(C)C)[C@@H](CCCCNC(=O)[C@H](CC2=CNC3=CC=CC=C32)NS(=O)(=O)C4=CC=CS4)C(=O)NN
> <PUBCHEM_CACTVS_TPSA>
229
> <PUBCHEM_MONOISOTOPIC_WEIGHT>
702.23279660
> <PUBCHEM_TOTAL_CHARGE>
0
> <PUBCHEM_HEAVY_ATOM_COUNT>
47
> <PUBCHEM_ATOM_DEF_STEREO_COUNT>
2
> <PUBCHEM_ATOM_UDEF_STEREO_COUNT>
0
> <PUBCHEM_BOND_DEF_STEREO_COUNT>
0
> <PUBCHEM_BOND_UDEF_STEREO_COUNT>
0
> <PUBCHEM_ISOTOPIC_ATOM_COUNT>
0
> <PUBCHEM_COMPONENT_COUNT>
1
> <PUBCHEM_CACTVS_TAUTO_COUNT>
-1
> <PUBCHEM_COORDINATE_TYPE>
1
5
255
> <PUBCHEM_BONDANNOTATIONS>
16  10  6
27  13  6
14  36  8
14  37  8
24  31  8
24  32  8
3  41  8
3  47  8
30  33  8
30  37  8
31  34  8
32  35  8
33  36  8
33  39  8
34  38  8
35  38  8
36  40  8
39  43  8
40  44  8
41  45  8
43  44  8
45  46  8
46  47  8
$$$$
