508528
  -OEChem-10302200282D
 92 94  0     1  0  0  0  0  0999 V2000
    3.7320    5.0000    0.0000 S   0  0  0  0  0  0  0  0  0  0  0  0
    6.3301   -3.5000    0.0000 S   0  0  0  0  0  0  0  0  0  0  0  0
    2.7320    5.0000    0.0000 O   0  0  0  0  0  0  0  0  0  0  0  0
    4.7320    5.0000    0.0000 O   0  0  0  0  0  0  0  0  0  0  0  0
    6.3301    3.5000    0.0000 O   0  0  0  0  0  0  0  0  0  0  0  0
    5.4641    5.0000    0.0000 O   0  0  0  0  0  0  0  0  0  0  0  0
    8.0622   -0.5000    0.0000 O   0  0  0  0  0  0  0  0  0  0  0  0
    7.3301   -3.5000    0.0000 O   0  0  0  0  0  0  0  0  0  0  0  0
    5.3301   -3.5000    0.0000 O   0  0  0  0  0  0  0  0  0  0  0  0
    4.5981   -7.5000    0.0000 O   0  0  0  0  0  0  0  0  0  0  0  0
    3.7320    4.0000    0.0000 N   0  0  3  0  0  0  0  0  0  0  0  0
    6.3301   -0.5000    0.0000 N   0  0  0  0  0  0  0  0  0  0  0  0
    6.3301   -2.5000    0.0000 N   0  0  0  0  0  0  0  0  0  0  0  0
    6.3301   -7.5000    0.0000 N   0  0  0  0  0  0  0  0  0  0  0  0
    4.5981    3.5000    0.0000 C   0  0  1  0  0  0  0  0  0  0  0  0
    4.5981    2.5000    0.0000 C   0  0  0  0  0  0  0  0  0  0  0  0
    2.8660    3.5000    0.0000 C   0  0  0  0  0  0  0  0  0  0  0  0
    2.8660    2.5000    0.0000 C   0  0  0  0  0  0  0  0  0  0  0  0
    5.4641    2.0000    0.0000 C   0  0  0  0  0  0  0  0  0  0  0  0
    5.4641    1.0000    0.0000 C   0  0  0  0  0  0  0  0  0  0  0  0
    5.4641    4.0000    0.0000 C   0  0  0  0  0  0  0  0  0  0  0  0
    6.3301    0.5000    0.0000 C   0  0  0  0  0  0  0  0  0  0  0  0
    3.7320    6.0000    0.0000 C   0  0  0  0  0  0  0  0  0  0  0  0
    2.0000    2.0000    0.0000 C   0  0  0  0  0  0  0  0  0  0  0  0
    3.7320    2.0000    0.0000 C   0  0  0  0  0  0  0  0  0  0  0  0
    7.1962   -2.0000    0.0000 C   0  0  2  0  0  0  0  0  0  0  0  0
    4.5981    6.5000    0.0000 C   0  0  0  0  0  0  0  0  0  0  0  0
    2.8660    6.5000    0.0000 C   0  0  0  0  0  0  0  0  0  0  0  0
    7.1962   -1.0000    0.0000 C   0  0  0  0  0  0  0  0  0  0  0  0
    8.0622   -2.5000    0.0000 C   0  0  0  0  0  0  0  0  0  0  0  0
    4.5981    7.5000    0.0000 C   0  0  0  0  0  0  0  0  0  0  0  0
    2.8660    7.5000    0.0000 C   0  0  0  0  0  0  0  0  0  0  0  0
    3.7320    8.0000    0.0000 C   0  0  0  0  0  0  0  0  0  0  0  0
    8.9282   -2.0000    0.0000 C   0  0  0  0  0  0  0  0  0  0  0  0
    3.7320    9.0000    0.0000 C   0  0  0  0  0  0  0  0  0  0  0  0
    6.3301   -4.5000    0.0000 C   0  0  0  0  0  0  0  0  0  0  0  0
    8.9282   -1.0000    0.0000 C   0  0  0  0  0  0  0  0  0  0  0  0
    9.7942   -2.5000    0.0000 C   0  0  0  0  0  0  0  0  0  0  0  0
    7.1962   -5.0000    0.0000 C   0  0  0  0  0  0  0  0  0  0  0  0
    5.4641   -5.0000    0.0000 C   0  0  0  0  0  0  0  0  0  0  0  0
    9.7942   -0.5000    0.0000 C   0  0  0  0  0  0  0  0  0  0  0  0
   10.6603   -2.0000    0.0000 C   0  0  0  0  0  0  0  0  0  0  0  0
   10.6603   -1.0000    0.0000 C   0  0  0  0  0  0  0  0  0  0  0  0
    7.1962   -6.0000    0.0000 C   0  0  0  0  0  0  0  0  0  0  0  0
    5.4641   -6.0000    0.0000 C   0  0  0  0  0  0  0  0  0  0  0  0
    6.3301   -6.5000    0.0000 C   0  0  0  0  0  0  0  0  0  0  0  0
    5.4641   -8.0000    0.0000 C   0  0  0  0  0  0  0  0  0  0  0  0
    5.4641   -9.0000    0.0000 C   0  0  0  0  0  0  0  0  0  0  0  0
    4.5981    4.1200    0.0000 H   0  0  0  0  0  0  0  0  0  0  0  0
    3.9875    2.6077    0.0000 H   0  0  0  0  0  0  0  0  0  0  0  0
    4.3860    1.9174    0.0000 H   0  0  0  0  0  0  0  0  0  0  0  0
    2.6540    4.0826    0.0000 H   0  0  0  0  0  0  0  0  0  0  0  0
    2.2554    3.3923    0.0000 H   0  0  0  0  0  0  0  0  0  0  0  0
    2.8660    1.8800    0.0000 H   0  0  0  0  0  0  0  0  0  0  0  0
    6.0747    1.8923    0.0000 H   0  0  0  0  0  0  0  0  0  0  0  0
    5.6762    2.5826    0.0000 H   0  0  0  0  0  0  0  0  0  0  0  0
    4.8535    1.1077    0.0000 H   0  0  0  0  0  0  0  0  0  0  0  0
    5.2520    0.4174    0.0000 H   0  0  0  0  0  0  0  0  0  0  0  0
    6.9407    0.3923    0.0000 H   0  0  0  0  0  0  0  0  0  0  0  0
    6.5422    1.0826    0.0000 H   0  0  0  0  0  0  0  0  0  0  0  0
    1.6900    2.5369    0.0000 H   0  0  0  0  0  0  0  0  0  0  0  0
    1.4631    1.6900    0.0000 H   0  0  0  0  0  0  0  0  0  0  0  0
    2.3100    1.4631    0.0000 H   0  0  0  0  0  0  0  0  0  0  0  0
    3.4220    1.4631    0.0000 H   0  0  0  0  0  0  0  0  0  0  0  0
    4.2690    1.6900    0.0000 H   0  0  0  0  0  0  0  0  0  0  0  0
    4.0420    2.5369    0.0000 H   0  0  0  0  0  0  0  0  0  0  0  0
    5.7932   -0.8100    0.0000 H   0  0  0  0  0  0  0  0  0  0  0  0
    6.6592   -1.6900    0.0000 H   0  0  0  0  0  0  0  0  0  0  0  0
    5.1350    6.1900    0.0000 H   0  0  0  0  0  0  0  0  0  0  0  0
    2.3291    6.1900    0.0000 H   0  0  0  0  0  0  0  0  0  0  0  0
    7.6636   -2.9750    0.0000 H   0  0  0  0  0  0  0  0  0  0  0  0
    8.4607   -2.9750    0.0000 H   0  0  0  0  0  0  0  0  0  0  0  0
    6.8671    3.8100    0.0000 H   0  0  0  0  0  0  0  0  0  0  0  0
    5.7932   -2.1900    0.0000 H   0  0  0  0  0  0  0  0  0  0  0  0
    5.1350    7.8100    0.0000 H   0  0  0  0  0  0  0  0  0  0  0  0
    2.3291    7.8100    0.0000 H   0  0  0  0  0  0  0  0  0  0  0  0
    4.3520    9.0000    0.0000 H   0  0  0  0  0  0  0  0  0  0  0  0
    3.7320    9.6200    0.0000 H   0  0  0  0  0  0  0  0  0  0  0  0
    3.1120    9.0000    0.0000 H   0  0  0  0  0  0  0  0  0  0  0  0
    8.3913   -0.6900    0.0000 H   0  0  0  0  0  0  0  0  0  0  0  0
    9.7942   -3.1200    0.0000 H   0  0  0  0  0  0  0  0  0  0  0  0
    7.7331   -4.6900    0.0000 H   0  0  0  0  0  0  0  0  0  0  0  0
    4.9272   -4.6900    0.0000 H   0  0  0  0  0  0  0  0  0  0  0  0
    9.7942    0.1200    0.0000 H   0  0  0  0  0  0  0  0  0  0  0  0
   11.1972   -2.3100    0.0000 H   0  0  0  0  0  0  0  0  0  0  0  0
   11.1972   -0.6900    0.0000 H   0  0  0  0  0  0  0  0  0  0  0  0
    7.7331   -6.3100    0.0000 H   0  0  0  0  0  0  0  0  0  0  0  0
    4.9272   -6.3100    0.0000 H   0  0  0  0  0  0  0  0  0  0  0  0
    6.8671   -7.8100    0.0000 H   0  0  0  0  0  0  0  0  0  0  0  0
    4.8441   -9.0000    0.0000 H   0  0  0  0  0  0  0  0  0  0  0  0
    5.4641   -9.6200    0.0000 H   0  0  0  0  0  0  0  0  0  0  0  0
    6.0841   -9.0000    0.0000 H   0  0  0  0  0  0  0  0  0  0  0  0
  1  3  2  0  0  0  0
  1  4  2  0  0  0  0
  1 11  1  0  0  0  0
  1 23  1  0  0  0  0
  2  8  2  0  0  0  0
  2  9  2  0  0  0  0
  2 13  1  0  0  0  0
  2 36  1  0  0  0  0
  5 21  1  0  0  0  0
  5 73  1  0  0  0  0
  6 21  2  0  0  0  0
  7 29  2  0  0  0  0
 10 47  2  0  0  0  0
 15 11  1  6  0  0  0
 11 17  1  0  0  0  0
 12 22  1  0  0  0  0
 12 29  1  0  0  0  0
 12 67  1  0  0  0  0
 26 13  1  6  0  0  0
 13 74  1  0  0  0  0
 14 46  1  0  0  0  0
 14 47  1  0  0  0  0
 14 89  1  0  0  0  0
 15 16  1  0  0  0  0
 15 21  1  0  0  0  0
 15 49  1  0  0  0  0
 16 19  1  0  0  0  0
 16 50  1  0  0  0  0
 16 51  1  0  0  0  0
 17 18  1  0  0  0  0
 17 52  1  0  0  0  0
 17 53  1  0  0  0  0
 18 24  1  0  0  0  0
 18 25  1  0  0  0  0
 18 54  1  0  0  0  0
 19 20  1  0  0  0  0
 19 55  1  0  0  0  0
 19 56  1  0  0  0  0
 20 22  1  0  0  0  0
 20 57  1  0  0  0  0
 20 58  1  0  0  0  0
 22 59  1  0  0  0  0
 22 60  1  0  0  0  0
 23 27  2  0  0  0  0
 23 28  1  0  0  0  0
 24 61  1  0  0  0  0
 24 62  1  0  0  0  0
 24 63  1  0  0  0  0
 25 64  1  0  0  0  0
 25 65  1  0  0  0  0
 25 66  1  0  0  0  0
 26 29  1  0  0  0  0
 26 30  1  0  0  0  0
 26 68  1  0  0  0  0
 27 31  1  0  0  0  0
 27 69  1  0  0  0  0
 28 32  2  0  0  0  0
 28 70  1  0  0  0  0
 30 34  1  0  0  0  0
 30 71  1  0  0  0  0
 30 72  1  0  0  0  0
 31 33  2  0  0  0  0
 31 75  1  0  0  0  0
 32 33  1  0  0  0  0
 32 76  1  0  0  0  0
 33 35  1  0  0  0  0
 34 37  2  0  0  0  0
 34 38  1  0  0  0  0
 35 77  1  0  0  0  0
 35 78  1  0  0  0  0
 35 79  1  0  0  0  0
 36 39  2  0  0  0  0
 36 40  1  0  0  0  0
 37 41  1  0  0  0  0
 37 80  1  0  0  0  0
 38 42  2  0  0  0  0
 38 81  1  0  0  0  0
 39 44  1  0  0  0  0
 39 82  1  0  0  0  0
 40 45  2  0  0  0  0
 40 83  1  0  0  0  0
 41 43  2  0  0  0  0
 41 84  1  0  0  0  0
 42 43  1  0  0  0  0
 42 85  1  0  0  0  0
 43 86  1  0  0  0  0
 44 46  2  0  0  0  0
 44 87  1  0  0  0  0
 45 46  1  0  0  0  0
 45 88  1  0  0  0  0
 47 48  1  0  0  0  0
 48 90  1  0  0  0  0
 48 91  1  0  0  0  0
 48 92  1  0  0  0  0
M  END
> <PUBCHEM_COMPOUND_CID>
508528
> <PUBCHEM_COMPOUND_CANONICALIZED>
1
> <PUBCHEM_CACTVS_COMPLEXITY>
1240
> <PUBCHEM_CACTVS_HBOND_ACCEPTOR>
10
> <PUBCHEM_CACTVS_HBOND_DONOR>
4
> <PUBCHEM_CACTVS_ROTATABLE_BOND>
18
> <PUBCHEM_CACTVS_SUBSKEYS>
AAADcfB/vABgAAAAAAAAAAAAAAAAAAAAAAAwYMAAAAAAAAABUAAAHgQQSAAADSjB2AQyyYLAAgKIAiXSWHDCABAhAgAIiJmIZIgKYDLAkbGUYAhklgDYyAeYyICOEAQAAAAAAAAgCAAAAAAAAAAAAAAAAA==
> <PUBCHEM_IUPAC_OPENEYE_NAME>
(2S)-6-[[(2S)-2-[(4-acetamidophenyl)sulfonylamino]-3-phenyl-propanoyl]amino]-2-[isobutyl(p-tolylsulfonyl)amino]hexanoic acid
> <PUBCHEM_IUPAC_CAS_NAME>
(2S)-6-[[(2S)-2-[(4-acetamidophenyl)sulfonylamino]-1-oxo-3-phenylpropyl]amino]-2-[(4-methylphenyl)sulfonyl-(2-methylpropyl)amino]hexanoic acid
> <PUBCHEM_IUPAC_NAME_MARKUP>
(2<I>S</I>)-6-[[(2<I>S</I>)-2-[(4-acetamidophenyl)sulfonylamino]-3-phenylpropanoyl]amino]-2-[(4-methylphenyl)sulfonyl-(2-methylpropyl)amino]hexanoic acid
> <PUBCHEM_IUPAC_NAME>
(2S)-6-[[(2S)-2-[(4-acetamidophenyl)sulfonylamino]-3-phenylpropanoyl]amino]-2-[(4-methylphenyl)sulfonyl-(2-methylpropyl)amino]hexanoic acid
> <PUBCHEM_IUPAC_SYSTEMATIC_NAME>
(2S)-6-[[(2S)-2-[(4-acetamidophenyl)sulfonylamino]-3-phenyl-propanoyl]amino]-2-[(4-methylphenyl)sulfonyl-(2-methylpropyl)amino]hexanoic acid
> <PUBCHEM_IUPAC_TRADITIONAL_NAME>
(2S)-6-[[(2S)-2-[(4-acetamidophenyl)sulfonylamino]-3-phenyl-propanoyl]amino]-2-[isobutyl(tosyl)amino]hexanoic acid
> <PUBCHEM_IUPAC_INCHI>
InChI=1S/C34H44N4O8S2/c1-24(2)23-38(48(45,46)30-17-13-25(3)14-18-30)32(34(41)42)12-8-9-21-35-33(40)31(22-27-10-6-5-7-11-27)37-47(43,44)29-19-15-28(16-20-29)36-26(4)39/h5-7,10-11,13-20,24,31-32,37H,8-9,12,21-23H2,1-4H3,(H,35,40)(H,36,39)(H,41,42)/t31-,32-/m0/s1
> <PUBCHEM_IUPAC_INCHIKEY>
NNKSGEDCBNQFLY-ACHIHNKUSA-N
> <PUBCHEM_XLOGP3_AA>
4.6
> <PUBCHEM_EXACT_MASS>
700.26005672
> <PUBCHEM_MOLECULAR_FORMULA>
C34H44N4O8S2
> <PUBCHEM_MOLECULAR_WEIGHT>
700.9
> <PUBCHEM_OPENEYE_CAN_SMILES>
CC1=CC=C(C=C1)S(=O)(=O)N(CC(C)C)C(CCCCNC(=O)C(CC2=CC=CC=C2)NS(=O)(=O)C3=CC=C(C=C3)NC(=O)C)C(=O)O
> <PUBCHEM_OPENEYE_ISO_SMILES>
CC1=CC=C(C=C1)S(=O)(=O)N(CC(C)C)[C@@H](CCCCNC(=O)[C@H](CC2=CC=CC=C2)NS(=O)(=O)C3=CC=C(C=C3)NC(=O)C)C(=O)O
> <PUBCHEM_CACTVS_TPSA>
196
> <PUBCHEM_MONOISOTOPIC_WEIGHT>
700.26005672
> <PUBCHEM_TOTAL_CHARGE>
0
> <PUBCHEM_HEAVY_ATOM_COUNT>
48
> <PUBCHEM_ATOM_DEF_STEREO_COUNT>
2
> <PUBCHEM_ATOM_UDEF_STEREO_COUNT>
0
> <PUBCHEM_BOND_DEF_STEREO_COUNT>
0
> <PUBCHEM_BOND_UDEF_STEREO_COUNT>
0
> <PUBCHEM_ISOTOPIC_ATOM_COUNT>
0
> <PUBCHEM_COMPONENT_COUNT>
1
> <PUBCHEM_CACTVS_TAUTO_COUNT>
-1
> <PUBCHEM_COORDINATE_TYPE>
1
5
255
> <PUBCHEM_BONDANNOTATIONS>
15  11  6
26  13  6
23  27  8
23  28  8
27  31  8
28  32  8
31  33  8
32  33  8
34  37  8
34  38  8
36  39  8
36  40  8
37  41  8
38  42  8
39  44  8
40  45  8
41  43  8
42  43  8
44  46  8
45  46  8
$$$$
