508530
  -OEChem-10302200282D
 90 93  0     1  0  0  0  0  0999 V2000
    9.3532   -4.0308    0.0000 S   0  0  0  0  0  0  0  0  0  0  0  0
    5.6103    4.0308    0.0000 S   0  0  0  0  0  0  0  0  0  0  0  0
    8.6089   -4.6987    0.0000 O   0  0  0  0  0  0  0  0  0  0  0  0
   10.0975   -3.3630    0.0000 O   0  0  0  0  0  0  0  0  0  0  0  0
   10.6423   -2.8741    0.0000 O   0  0  0  0  0  0  0  0  0  0  0  0
   10.2852   -1.1793    0.0000 O   0  0  0  0  0  0  0  0  0  0  0  0
    6.3246    0.6412    0.0000 O   0  0  0  0  0  0  0  0  0  0  0  0
    6.3546    4.6987    0.0000 O   0  0  0  0  0  0  0  0  0  0  0  0
    4.8660    3.3630    0.0000 O   0  0  0  0  0  0  0  0  0  0  0  0
    8.6853   -3.2865    0.0000 N   0  0  3  0  0  0  0  0  0  0  0  0
    7.6138    1.7979    0.0000 N   0  0  0  0  0  0  0  0  0  0  0  0
    6.2781    3.2865    0.0000 N   0  0  0  0  0  0  0  0  0  0  0  0
    4.6783   -0.4302    0.0000 N   0  0  0  0  0  0  0  0  0  0  0  0
   12.0246   -7.0080    0.0000 N   0  0  0  0  0  0  0  0  0  0  0  0
    2.9389    7.0080    0.0000 N   0  0  0  0  0  0  0  0  0  0  0  0
    8.9960   -2.3360    0.0000 C   0  0  1  0  0  0  0  0  0  0  0  0
    8.3282   -1.5917    0.0000 C   0  0  0  0  0  0  0  0  0  0  0  0
    7.7068   -3.4928    0.0000 C   0  0  0  0  0  0  0  0  0  0  0  0
    8.6388   -0.6412    0.0000 C   0  0  0  0  0  0  0  0  0  0  0  0
    7.3962   -4.4433    0.0000 C   0  0  0  0  0  0  0  0  0  0  0  0
    7.9710    0.1031    0.0000 C   0  0  0  0  0  0  0  0  0  0  0  0
    9.9745   -2.1298    0.0000 C   0  0  0  0  0  0  0  0  0  0  0  0
    8.2816    1.0536    0.0000 C   0  0  0  0  0  0  0  0  0  0  0  0
    6.4177   -4.6495    0.0000 C   0  0  0  0  0  0  0  0  0  0  0  0
    8.0640   -5.1876    0.0000 C   0  0  0  0  0  0  0  0  0  0  0  0
   10.0210   -4.7751    0.0000 C   0  0  0  0  0  0  0  0  0  0  0  0
    5.9674    2.3360    0.0000 C   0  0  1  0  0  0  0  0  0  0  0  0
    4.9889    2.1298    0.0000 C   0  0  0  0  0  0  0  0  0  0  0  0
    6.6353    1.5917    0.0000 C   0  0  0  0  0  0  0  0  0  0  0  0
    4.6783    1.1793    0.0000 C   0  0  0  0  0  0  0  0  0  0  0  0
    9.7104   -5.7257    0.0000 C   0  0  0  0  0  0  0  0  0  0  0  0
   10.9995   -4.5689    0.0000 C   0  0  0  0  0  0  0  0  0  0  0  0
    3.7320    0.8745    0.0000 C   0  0  0  0  0  0  0  0  0  0  0  0
    3.7320   -0.1255    0.0000 C   0  0  0  0  0  0  0  0  0  0  0  0
    5.2619    0.3745    0.0000 C   0  0  0  0  0  0  0  0  0  0  0  0
   10.3782   -6.4700    0.0000 C   0  0  0  0  0  0  0  0  0  0  0  0
   11.6674   -5.3132    0.0000 C   0  0  0  0  0  0  0  0  0  0  0  0
   11.3567   -6.2637    0.0000 C   0  0  0  0  0  0  0  0  0  0  0  0
    2.8660    1.3745    0.0000 C   0  0  0  0  0  0  0  0  0  0  0  0
    4.9424    4.7751    0.0000 C   0  0  0  0  0  0  0  0  0  0  0  0
    2.8660   -0.6255    0.0000 C   0  0  0  0  0  0  0  0  0  0  0  0
    2.0000    0.8745    0.0000 C   0  0  0  0  0  0  0  0  0  0  0  0
    2.0000   -0.1255    0.0000 C   0  0  0  0  0  0  0  0  0  0  0  0
    3.9639    4.5689    0.0000 C   0  0  0  0  0  0  0  0  0  0  0  0
    5.2531    5.7257    0.0000 C   0  0  0  0  0  0  0  0  0  0  0  0
    3.2961    5.3132    0.0000 C   0  0  0  0  0  0  0  0  0  0  0  0
    4.5852    6.4700    0.0000 C   0  0  0  0  0  0  0  0  0  0  0  0
    3.6067    6.2637    0.0000 C   0  0  0  0  0  0  0  0  0  0  0  0
    9.4101   -2.7975    0.0000 H   0  0  0  0  0  0  0  0  0  0  0  0
    7.7812   -1.2997    0.0000 H   0  0  0  0  0  0  0  0  0  0  0  0
    7.9456   -2.0796    0.0000 H   0  0  0  0  0  0  0  0  0  0  0  0
    7.6863   -2.8731    0.0000 H   0  0  0  0  0  0  0  0  0  0  0  0
    7.0930   -3.4054    0.0000 H   0  0  0  0  0  0  0  0  0  0  0  0
    9.1857   -0.9332    0.0000 H   0  0  0  0  0  0  0  0  0  0  0  0
    9.0214   -0.1533    0.0000 H   0  0  0  0  0  0  0  0  0  0  0  0
    6.9821   -3.9818    0.0000 H   0  0  0  0  0  0  0  0  0  0  0  0
    7.4240    0.3951    0.0000 H   0  0  0  0  0  0  0  0  0  0  0  0
    7.5884   -0.3848    0.0000 H   0  0  0  0  0  0  0  0  0  0  0  0
    8.8286    0.7616    0.0000 H   0  0  0  0  0  0  0  0  0  0  0  0
    8.6642    1.5415    0.0000 H   0  0  0  0  0  0  0  0  0  0  0  0
    6.2898   -4.0428    0.0000 H   0  0  0  0  0  0  0  0  0  0  0  0
    5.8110   -4.7774    0.0000 H   0  0  0  0  0  0  0  0  0  0  0  0
    6.5455   -5.2562    0.0000 H   0  0  0  0  0  0  0  0  0  0  0  0
    7.6025   -5.6016    0.0000 H   0  0  0  0  0  0  0  0  0  0  0  0
    8.4781   -5.6490    0.0000 H   0  0  0  0  0  0  0  0  0  0  0  0
    8.5255   -4.7735    0.0000 H   0  0  0  0  0  0  0  0  0  0  0  0
    5.5534    2.7975    0.0000 H   0  0  0  0  0  0  0  0  0  0  0  0
    4.9684    2.7494    0.0000 H   0  0  0  0  0  0  0  0  0  0  0  0
    4.3751    2.2172    0.0000 H   0  0  0  0  0  0  0  0  0  0  0  0
    7.8064    2.3872    0.0000 H   0  0  0  0  0  0  0  0  0  0  0  0
    6.8848    3.4144    0.0000 H   0  0  0  0  0  0  0  0  0  0  0  0
    9.1037   -5.8535    0.0000 H   0  0  0  0  0  0  0  0  0  0  0  0
   11.1921   -3.9796    0.0000 H   0  0  0  0  0  0  0  0  0  0  0  0
    5.8819    0.3745    0.0000 H   0  0  0  0  0  0  0  0  0  0  0  0
   11.2490   -2.7462    0.0000 H   0  0  0  0  0  0  0  0  0  0  0  0
    4.8709   -1.0195    0.0000 H   0  0  0  0  0  0  0  0  0  0  0  0
   10.1856   -7.0593    0.0000 H   0  0  0  0  0  0  0  0  0  0  0  0
   12.2740   -5.1854    0.0000 H   0  0  0  0  0  0  0  0  0  0  0  0
    2.8660    1.9945    0.0000 H   0  0  0  0  0  0  0  0  0  0  0  0
    2.8660   -1.2455    0.0000 H   0  0  0  0  0  0  0  0  0  0  0  0
    1.4631    1.1845    0.0000 H   0  0  0  0  0  0  0  0  0  0  0  0
    1.4631   -0.4355    0.0000 H   0  0  0  0  0  0  0  0  0  0  0  0
    3.7713    3.9796    0.0000 H   0  0  0  0  0  0  0  0  0  0  0  0
    5.8598    5.8535    0.0000 H   0  0  0  0  0  0  0  0  0  0  0  0
   11.8319   -7.5974    0.0000 H   0  0  0  0  0  0  0  0  0  0  0  0
   12.6312   -6.8802    0.0000 H   0  0  0  0  0  0  0  0  0  0  0  0
    2.6894    5.1854    0.0000 H   0  0  0  0  0  0  0  0  0  0  0  0
    4.7778    7.0593    0.0000 H   0  0  0  0  0  0  0  0  0  0  0  0
    3.1315    7.5974    0.0000 H   0  0  0  0  0  0  0  0  0  0  0  0
    2.3322    6.8802    0.0000 H   0  0  0  0  0  0  0  0  0  0  0  0
  1  3  2  0  0  0  0
  1  4  2  0  0  0  0
  1 10  1  0  0  0  0
  1 26  1  0  0  0  0
  2  8  2  0  0  0  0
  2  9  2  0  0  0  0
  2 12  1  0  0  0  0
  2 40  1  0  0  0  0
  5 22  1  0  0  0  0
  5 75  1  0  0  0  0
  6 22  2  0  0  0  0
  7 29  2  0  0  0  0
 16 10  1  1  0  0  0
 10 18  1  0  0  0  0
 11 23  1  0  0  0  0
 11 29  1  0  0  0  0
 11 70  1  0  0  0  0
 27 12  1  6  0  0  0
 12 71  1  0  0  0  0
 13 34  1  0  0  0  0
 13 35  1  0  0  0  0
 13 76  1  0  0  0  0
 14 38  1  0  0  0  0
 14 85  1  0  0  0  0
 14 86  1  0  0  0  0
 15 48  1  0  0  0  0
 15 89  1  0  0  0  0
 15 90  1  0  0  0  0
 16 17  1  0  0  0  0
 16 22  1  0  0  0  0
 16 49  1  0  0  0  0
 17 19  1  0  0  0  0
 17 50  1  0  0  0  0
 17 51  1  0  0  0  0
 18 20  1  0  0  0  0
 18 52  1  0  0  0  0
 18 53  1  0  0  0  0
 19 21  1  0  0  0  0
 19 54  1  0  0  0  0
 19 55  1  0  0  0  0
 20 24  1  0  0  0  0
 20 25  1  0  0  0  0
 20 56  1  0  0  0  0
 21 23  1  0  0  0  0
 21 57  1  0  0  0  0
 21 58  1  0  0  0  0
 23 59  1  0  0  0  0
 23 60  1  0  0  0  0
 24 61  1  0  0  0  0
 24 62  1  0  0  0  0
 24 63  1  0  0  0  0
 25 64  1  0  0  0  0
 25 65  1  0  0  0  0
 25 66  1  0  0  0  0
 26 31  2  0  0  0  0
 26 32  1  0  0  0  0
 27 28  1  0  0  0  0
 27 29  1  0  0  0  0
 27 67  1  0  0  0  0
 28 30  1  0  0  0  0
 28 68  1  0  0  0  0
 28 69  1  0  0  0  0
 30 33  1  0  0  0  0
 30 35  2  0  0  0  0
 31 36  1  0  0  0  0
 31 72  1  0  0  0  0
 32 37  2  0  0  0  0
 32 73  1  0  0  0  0
 33 34  1  0  0  0  0
 33 39  2  0  0  0  0
 34 41  2  0  0  0  0
 35 74  1  0  0  0  0
 36 38  2  0  0  0  0
 36 77  1  0  0  0  0
 37 38  1  0  0  0  0
 37 78  1  0  0  0  0
 39 42  1  0  0  0  0
 39 79  1  0  0  0  0
 40 44  2  0  0  0  0
 40 45  1  0  0  0  0
 41 43  1  0  0  0  0
 41 80  1  0  0  0  0
 42 43  2  0  0  0  0
 42 81  1  0  0  0  0
 43 82  1  0  0  0  0
 44 46  1  0  0  0  0
 44 83  1  0  0  0  0
 45 47  2  0  0  0  0
 45 84  1  0  0  0  0
 46 48  2  0  0  0  0
 46 87  1  0  0  0  0
 47 48  1  0  0  0  0
 47 88  1  0  0  0  0
M  END
> <PUBCHEM_COMPOUND_CID>
508530
> <PUBCHEM_COMPOUND_CANONICALIZED>
1
> <PUBCHEM_CACTVS_COMPLEXITY>
1260
> <PUBCHEM_CACTVS_HBOND_ACCEPTOR>
11
> <PUBCHEM_CACTVS_HBOND_DONOR>
6
> <PUBCHEM_CACTVS_ROTATABLE_BOND>
17
> <PUBCHEM_CACTVS_SUBSKEYS>
AAADcfB/uABgAAAAAAAAAAAAAAAAAWAAAAAwYMAAAAAAAFgB9AAAHgQQSAAADSjB3gQ+yfLJkgKoAzX3XHDCgDAxAiAI2bm4ZJgKYPLAkbGUYAhklgDYyAeYycCOgAQAAAACAAAACAAAAAQAAAAAAAAAAA==
> <PUBCHEM_IUPAC_OPENEYE_NAME>
(2S)-6-[[(2S)-2-[(4-aminophenyl)sulfonylamino]-3-(1H-indol-3-yl)propanoyl]amino]-2-[(4-aminophenyl)sulfonyl-isobutyl-amino]hexanoic acid
> <PUBCHEM_IUPAC_CAS_NAME>
(2S)-6-[[(2S)-2-[(4-aminophenyl)sulfonylamino]-3-(1H-indol-3-yl)-1-oxopropyl]amino]-2-[(4-aminophenyl)sulfonyl-(2-methylpropyl)amino]hexanoic acid
> <PUBCHEM_IUPAC_NAME_MARKUP>
(2<I>S</I>)-6-[[(2<I>S</I>)-2-[(4-aminophenyl)sulfonylamino]-3-(1<I>H</I>-indol-3-yl)propanoyl]amino]-2-[(4-aminophenyl)sulfonyl-(2-methylpropyl)amino]hexanoic acid
> <PUBCHEM_IUPAC_NAME>
(2S)-6-[[(2S)-2-[(4-aminophenyl)sulfonylamino]-3-(1H-indol-3-yl)propanoyl]amino]-2-[(4-aminophenyl)sulfonyl-(2-methylpropyl)amino]hexanoic acid
> <PUBCHEM_IUPAC_SYSTEMATIC_NAME>
(2S)-6-[[(2S)-2-[(4-aminophenyl)sulfonylamino]-3-(1H-indol-3-yl)propanoyl]amino]-2-[(4-aminophenyl)sulfonyl-(2-methylpropyl)amino]hexanoic acid
> <PUBCHEM_IUPAC_TRADITIONAL_NAME>
(2S)-6-[[(2S)-3-(1H-indol-3-yl)-2-(sulfanilylamino)propanoyl]amino]-2-[isobutyl(sulfanilyl)amino]hexanoic acid
> <PUBCHEM_IUPAC_INCHI>
InChI=1S/C33H42N6O7S2/c1-22(2)21-39(48(45,46)27-16-12-25(35)13-17-27)31(33(41)42)9-5-6-18-36-32(40)30(19-23-20-37-29-8-4-3-7-28(23)29)38-47(43,44)26-14-10-24(34)11-15-26/h3-4,7-8,10-17,20,22,30-31,37-38H,5-6,9,18-19,21,34-35H2,1-2H3,(H,36,40)(H,41,42)/t30-,31-/m0/s1
> <PUBCHEM_IUPAC_INCHIKEY>
OMJKIXWOUOFZKA-CONSDPRKSA-N
> <PUBCHEM_XLOGP3_AA>
3.9
> <PUBCHEM_EXACT_MASS>
698.25564005
> <PUBCHEM_MOLECULAR_FORMULA>
C33H42N6O7S2
> <PUBCHEM_MOLECULAR_WEIGHT>
698.9
> <PUBCHEM_OPENEYE_CAN_SMILES>
CC(C)CN(C(CCCCNC(=O)C(CC1=CNC2=CC=CC=C21)NS(=O)(=O)C3=CC=C(C=C3)N)C(=O)O)S(=O)(=O)C4=CC=C(C=C4)N
> <PUBCHEM_OPENEYE_ISO_SMILES>
CC(C)CN([C@@H](CCCCNC(=O)[C@H](CC1=CNC2=CC=CC=C21)NS(=O)(=O)C3=CC=C(C=C3)N)C(=O)O)S(=O)(=O)C4=CC=C(C=C4)N
> <PUBCHEM_CACTVS_TPSA>
235
> <PUBCHEM_MONOISOTOPIC_WEIGHT>
698.25564005
> <PUBCHEM_TOTAL_CHARGE>
0
> <PUBCHEM_HEAVY_ATOM_COUNT>
48
> <PUBCHEM_ATOM_DEF_STEREO_COUNT>
2
> <PUBCHEM_ATOM_UDEF_STEREO_COUNT>
0
> <PUBCHEM_BOND_DEF_STEREO_COUNT>
0
> <PUBCHEM_BOND_UDEF_STEREO_COUNT>
0
> <PUBCHEM_ISOTOPIC_ATOM_COUNT>
0
> <PUBCHEM_COMPONENT_COUNT>
1
> <PUBCHEM_CACTVS_TAUTO_COUNT>
-1
> <PUBCHEM_COORDINATE_TYPE>
1
5
255
> <PUBCHEM_BONDANNOTATIONS>
16  10  5
27  12  6
13  34  8
13  35  8
26  31  8
26  32  8
30  33  8
30  35  8
31  36  8
32  37  8
33  34  8
33  39  8
34  41  8
36  38  8
37  38  8
39  42  8
40  44  8
40  45  8
41  43  8
42  43  8
44  46  8
45  47  8
46  48  8
47  48  8
$$$$
