508578
  -OEChem-10302200282D
 87 88  0     1  0  0  0  0  0999 V2000
    4.5981   -0.0000    0.0000 S   0  0  0  0  0  0  0  0  0  0  0  0
   13.2583    1.0000    0.0000 S   0  0  0  0  0  0  0  0  0  0  0  0
    5.5981   -0.0000    0.0000 O   0  0  0  0  0  0  0  0  0  0  0  0
    3.5981   -0.0000    0.0000 O   0  0  0  0  0  0  0  0  0  0  0  0
    6.3301    3.0000    0.0000 O   0  0  0  0  0  0  0  0  0  0  0  0
    4.5981    3.0000    0.0000 O   0  0  0  0  0  0  0  0  0  0  0  0
   13.7583    1.8660    0.0000 O   0  0  0  0  0  0  0  0  0  0  0  0
   12.7583    0.1340    0.0000 O   0  0  0  0  0  0  0  0  0  0  0  0
   10.6603    2.5000    0.0000 O   0  0  0  0  0  0  0  0  0  0  0  0
    4.5981    1.0000    0.0000 N   0  0  3  0  0  0  0  0  0  0  0  0
   12.3923    1.5000    0.0000 N   0  0  3  0  0  0  0  0  0  0  0  0
    9.7942    1.0000    0.0000 N   0  0  0  0  0  0  0  0  0  0  0  0
    5.4641    1.5000    0.0000 C   0  0  1  0  0  0  0  0  0  0  0  0
    6.3301    1.0000    0.0000 C   0  0  0  0  0  0  0  0  0  0  0  0
    3.7320    1.5000    0.0000 C   0  0  0  0  0  0  0  0  0  0  0  0
    2.8660    1.0000    0.0000 C   0  0  0  0  0  0  0  0  0  0  0  0
    7.1962    1.5000    0.0000 C   0  0  0  0  0  0  0  0  0  0  0  0
    8.0622    1.0000    0.0000 C   0  0  0  0  0  0  0  0  0  0  0  0
    5.4641    2.5000    0.0000 C   0  0  0  0  0  0  0  0  0  0  0  0
    8.9282    1.5000    0.0000 C   0  0  0  0  0  0  0  0  0  0  0  0
    4.5981   -1.0000    0.0000 C   0  0  0  0  0  0  0  0  0  0  0  0
    2.0000    1.5000    0.0000 C   0  0  0  0  0  0  0  0  0  0  0  0
    2.8660   -0.0000    0.0000 C   0  0  0  0  0  0  0  0  0  0  0  0
   12.3923    2.5000    0.0000 C   0  0  0  0  0  0  0  0  0  0  0  0
   13.2583    3.0000    0.0000 C   0  0  0  0  0  0  0  0  0  0  0  0
   11.5263    1.0000    0.0000 C   0  0  0  0  0  0  0  0  0  0  0  0
   10.6603    1.5000    0.0000 C   0  0  0  0  0  0  0  0  0  0  0  0
    3.7320   -1.5000    0.0000 C   0  0  0  0  0  0  0  0  0  0  0  0
    5.4641   -1.5000    0.0000 C   0  0  0  0  0  0  0  0  0  0  0  0
   13.2583    4.0000    0.0000 C   0  0  0  0  0  0  0  0  0  0  0  0
   14.1244    2.5000    0.0000 C   0  0  0  0  0  0  0  0  0  0  0  0
   14.1244    0.5000    0.0000 C   0  0  0  0  0  0  0  0  0  0  0  0
    3.7320   -2.5000    0.0000 C   0  0  0  0  0  0  0  0  0  0  0  0
    5.4641   -2.5000    0.0000 C   0  0  0  0  0  0  0  0  0  0  0  0
    4.5981   -3.0000    0.0000 C   0  0  0  0  0  0  0  0  0  0  0  0
   14.1244   -0.5000    0.0000 C   0  0  0  0  0  0  0  0  0  0  0  0
   14.9904    1.0000    0.0000 C   0  0  0  0  0  0  0  0  0  0  0  0
    4.5981   -4.0000    0.0000 C   0  0  0  0  0  0  0  0  0  0  0  0
   14.9904   -1.0000    0.0000 C   0  0  0  0  0  0  0  0  0  0  0  0
   15.8564    0.5000    0.0000 C   0  0  0  0  0  0  0  0  0  0  0  0
   15.8564   -0.5000    0.0000 C   0  0  0  0  0  0  0  0  0  0  0  0
   16.7224   -1.0000    0.0000 C   0  0  0  0  0  0  0  0  0  0  0  0
    5.4641    0.8800    0.0000 H   0  0  0  0  0  0  0  0  0  0  0  0
    5.9316    0.5251    0.0000 H   0  0  0  0  0  0  0  0  0  0  0  0
    6.7287    0.5251    0.0000 H   0  0  0  0  0  0  0  0  0  0  0  0
    4.1306    1.9750    0.0000 H   0  0  0  0  0  0  0  0  0  0  0  0
    3.3335    1.9750    0.0000 H   0  0  0  0  0  0  0  0  0  0  0  0
    2.8660    1.6200    0.0000 H   0  0  0  0  0  0  0  0  0  0  0  0
    7.5947    1.9750    0.0000 H   0  0  0  0  0  0  0  0  0  0  0  0
    6.7976    1.9750    0.0000 H   0  0  0  0  0  0  0  0  0  0  0  0
    7.6636    0.5251    0.0000 H   0  0  0  0  0  0  0  0  0  0  0  0
    8.4607    0.5251    0.0000 H   0  0  0  0  0  0  0  0  0  0  0  0
    9.3267    1.9750    0.0000 H   0  0  0  0  0  0  0  0  0  0  0  0
    8.5297    1.9750    0.0000 H   0  0  0  0  0  0  0  0  0  0  0  0
    2.3100    2.0369    0.0000 H   0  0  0  0  0  0  0  0  0  0  0  0
    1.4631    1.8100    0.0000 H   0  0  0  0  0  0  0  0  0  0  0  0
    1.6900    0.9631    0.0000 H   0  0  0  0  0  0  0  0  0  0  0  0
    2.2460   -0.0000    0.0000 H   0  0  0  0  0  0  0  0  0  0  0  0
    2.8660   -0.6200    0.0000 H   0  0  0  0  0  0  0  0  0  0  0  0
    3.4860   -0.0000    0.0000 H   0  0  0  0  0  0  0  0  0  0  0  0
   12.1803    3.0826    0.0000 H   0  0  0  0  0  0  0  0  0  0  0  0
   11.7817    2.3923    0.0000 H   0  0  0  0  0  0  0  0  0  0  0  0
   13.7953    3.3100    0.0000 H   0  0  0  0  0  0  0  0  0  0  0  0
   11.1278    0.5251    0.0000 H   0  0  0  0  0  0  0  0  0  0  0  0
   11.9248    0.5251    0.0000 H   0  0  0  0  0  0  0  0  0  0  0  0
    9.7942    0.3800    0.0000 H   0  0  0  0  0  0  0  0  0  0  0  0
    3.1951   -1.1900    0.0000 H   0  0  0  0  0  0  0  0  0  0  0  0
    6.0010   -1.1900    0.0000 H   0  0  0  0  0  0  0  0  0  0  0  0
   13.8783    4.0000    0.0000 H   0  0  0  0  0  0  0  0  0  0  0  0
   13.2583    4.6200    0.0000 H   0  0  0  0  0  0  0  0  0  0  0  0
   12.6383    4.0000    0.0000 H   0  0  0  0  0  0  0  0  0  0  0  0
   13.8144    1.9631    0.0000 H   0  0  0  0  0  0  0  0  0  0  0  0
   14.6613    2.1900    0.0000 H   0  0  0  0  0  0  0  0  0  0  0  0
   14.4344    3.0369    0.0000 H   0  0  0  0  0  0  0  0  0  0  0  0
    6.3301    3.6200    0.0000 H   0  0  0  0  0  0  0  0  0  0  0  0
    3.1951   -2.8100    0.0000 H   0  0  0  0  0  0  0  0  0  0  0  0
    6.0010   -2.8100    0.0000 H   0  0  0  0  0  0  0  0  0  0  0  0
   13.5874   -0.8100    0.0000 H   0  0  0  0  0  0  0  0  0  0  0  0
   14.9904    1.6200    0.0000 H   0  0  0  0  0  0  0  0  0  0  0  0
    3.9781   -4.0000    0.0000 H   0  0  0  0  0  0  0  0  0  0  0  0
    4.5981   -4.6200    0.0000 H   0  0  0  0  0  0  0  0  0  0  0  0
    5.2181   -4.0000    0.0000 H   0  0  0  0  0  0  0  0  0  0  0  0
   14.9904   -1.6200    0.0000 H   0  0  0  0  0  0  0  0  0  0  0  0
   16.3933    0.8100    0.0000 H   0  0  0  0  0  0  0  0  0  0  0  0
   16.4124   -1.5369    0.0000 H   0  0  0  0  0  0  0  0  0  0  0  0
   17.2594   -1.3100    0.0000 H   0  0  0  0  0  0  0  0  0  0  0  0
   17.0324   -0.4631    0.0000 H   0  0  0  0  0  0  0  0  0  0  0  0
  1  3  2  0  0  0  0
  1  4  2  0  0  0  0
  1 10  1  0  0  0  0
  1 21  1  0  0  0  0
  2  7  2  0  0  0  0
  2  8  2  0  0  0  0
  2 11  1  0  0  0  0
  2 32  1  0  0  0  0
  5 19  1  0  0  0  0
  5 75  1  0  0  0  0
  6 19  2  0  0  0  0
  9 27  2  0  0  0  0
 13 10  1  6  0  0  0
 10 15  1  0  0  0  0
 11 24  1  0  0  0  0
 11 26  1  0  0  0  0
 12 20  1  0  0  0  0
 12 27  1  0  0  0  0
 12 66  1  0  0  0  0
 13 14  1  0  0  0  0
 13 19  1  0  0  0  0
 13 43  1  0  0  0  0
 14 17  1  0  0  0  0
 14 44  1  0  0  0  0
 14 45  1  0  0  0  0
 15 16  1  0  0  0  0
 15 46  1  0  0  0  0
 15 47  1  0  0  0  0
 16 22  1  0  0  0  0
 16 23  1  0  0  0  0
 16 48  1  0  0  0  0
 17 18  1  0  0  0  0
 17 49  1  0  0  0  0
 17 50  1  0  0  0  0
 18 20  1  0  0  0  0
 18 51  1  0  0  0  0
 18 52  1  0  0  0  0
 20 53  1  0  0  0  0
 20 54  1  0  0  0  0
 21 28  2  0  0  0  0
 21 29  1  0  0  0  0
 22 55  1  0  0  0  0
 22 56  1  0  0  0  0
 22 57  1  0  0  0  0
 23 58  1  0  0  0  0
 23 59  1  0  0  0  0
 23 60  1  0  0  0  0
 24 25  1  0  0  0  0
 24 61  1  0  0  0  0
 24 62  1  0  0  0  0
 25 30  1  0  0  0  0
 25 31  1  0  0  0  0
 25 63  1  0  0  0  0
 26 27  1  0  0  0  0
 26 64  1  0  0  0  0
 26 65  1  0  0  0  0
 28 33  1  0  0  0  0
 28 67  1  0  0  0  0
 29 34  2  0  0  0  0
 29 68  1  0  0  0  0
 30 69  1  0  0  0  0
 30 70  1  0  0  0  0
 30 71  1  0  0  0  0
 31 72  1  0  0  0  0
 31 73  1  0  0  0  0
 31 74  1  0  0  0  0
 32 36  2  0  0  0  0
 32 37  1  0  0  0  0
 33 35  2  0  0  0  0
 33 76  1  0  0  0  0
 34 35  1  0  0  0  0
 34 77  1  0  0  0  0
 35 38  1  0  0  0  0
 36 39  1  0  0  0  0
 36 78  1  0  0  0  0
 37 40  2  0  0  0  0
 37 79  1  0  0  0  0
 38 80  1  0  0  0  0
 38 81  1  0  0  0  0
 38 82  1  0  0  0  0
 39 41  2  0  0  0  0
 39 83  1  0  0  0  0
 40 41  1  0  0  0  0
 40 84  1  0  0  0  0
 41 42  1  0  0  0  0
 42 85  1  0  0  0  0
 42 86  1  0  0  0  0
 42 87  1  0  0  0  0
M  END
> <PUBCHEM_COMPOUND_CID>
508578
> <PUBCHEM_COMPOUND_CANONICALIZED>
1
> <PUBCHEM_CACTVS_COMPLEXITY>
1050
> <PUBCHEM_CACTVS_HBOND_ACCEPTOR>
9
> <PUBCHEM_CACTVS_HBOND_DONOR>
2
> <PUBCHEM_CACTVS_ROTATABLE_BOND>
17
> <PUBCHEM_CACTVS_SUBSKEYS>
AAADcfB7OABgAAAAAAAAAAAAAAAAAAAAAAAwYAAAAAAAAAABQAAAHgQQSAAADSjB2AQyCYLAAgKIAiHSGHBCABAgAAAIiJmIAIgKYDKAkTCUYAAklgCYiAeYyAAOEAAAAAAAAAAgAAAAAAAAAAAAAAAAAA==
> <PUBCHEM_IUPAC_OPENEYE_NAME>
(2S)-2-[isobutyl(p-tolylsulfonyl)amino]-6-[[2-[isobutyl(p-tolylsulfonyl)amino]acetyl]amino]hexanoic acid
> <PUBCHEM_IUPAC_CAS_NAME>
(2S)-2-[(4-methylphenyl)sulfonyl-(2-methylpropyl)amino]-6-[[2-[(4-methylphenyl)sulfonyl-(2-methylpropyl)amino]-1-oxoethyl]amino]hexanoic acid
> <PUBCHEM_IUPAC_NAME_MARKUP>
(2<I>S</I>)-2-[(4-methylphenyl)sulfonyl-(2-methylpropyl)amino]-6-[[2-[(4-methylphenyl)sulfonyl-(2-methylpropyl)amino]acetyl]amino]hexanoic acid
> <PUBCHEM_IUPAC_NAME>
(2S)-2-[(4-methylphenyl)sulfonyl-(2-methylpropyl)amino]-6-[[2-[(4-methylphenyl)sulfonyl-(2-methylpropyl)amino]acetyl]amino]hexanoic acid
> <PUBCHEM_IUPAC_SYSTEMATIC_NAME>
(2S)-2-[(4-methylphenyl)sulfonyl-(2-methylpropyl)amino]-6-[2-[(4-methylphenyl)sulfonyl-(2-methylpropyl)amino]ethanoylamino]hexanoic acid
> <PUBCHEM_IUPAC_TRADITIONAL_NAME>
(2S)-2-[isobutyl(tosyl)amino]-6-[[2-[isobutyl(tosyl)amino]acetyl]amino]hexanoic acid
> <PUBCHEM_IUPAC_INCHI>
InChI=1S/C30H45N3O7S2/c1-22(2)19-32(41(37,38)26-14-10-24(5)11-15-26)21-29(34)31-18-8-7-9-28(30(35)36)33(20-23(3)4)42(39,40)27-16-12-25(6)13-17-27/h10-17,22-23,28H,7-9,18-21H2,1-6H3,(H,31,34)(H,35,36)/t28-/m0/s1
> <PUBCHEM_IUPAC_INCHIKEY>
DKHUBFWUMASRDC-NDEPHWFRSA-N
> <PUBCHEM_XLOGP3_AA>
5.4
> <PUBCHEM_EXACT_MASS>
623.26989313
> <PUBCHEM_MOLECULAR_FORMULA>
C30H45N3O7S2
> <PUBCHEM_MOLECULAR_WEIGHT>
623.8
> <PUBCHEM_OPENEYE_CAN_SMILES>
CC1=CC=C(C=C1)S(=O)(=O)N(CC(C)C)CC(=O)NCCCCC(C(=O)O)N(CC(C)C)S(=O)(=O)C2=CC=C(C=C2)C
> <PUBCHEM_OPENEYE_ISO_SMILES>
CC1=CC=C(C=C1)S(=O)(=O)N(CC(C)C)CC(=O)NCCCC[C@@H](C(=O)O)N(CC(C)C)S(=O)(=O)C2=CC=C(C=C2)C
> <PUBCHEM_CACTVS_TPSA>
158
> <PUBCHEM_MONOISOTOPIC_WEIGHT>
623.26989313
> <PUBCHEM_TOTAL_CHARGE>
0
> <PUBCHEM_HEAVY_ATOM_COUNT>
42
> <PUBCHEM_ATOM_DEF_STEREO_COUNT>
1
> <PUBCHEM_ATOM_UDEF_STEREO_COUNT>
0
> <PUBCHEM_BOND_DEF_STEREO_COUNT>
0
> <PUBCHEM_BOND_UDEF_STEREO_COUNT>
0
> <PUBCHEM_ISOTOPIC_ATOM_COUNT>
0
> <PUBCHEM_COMPONENT_COUNT>
1
> <PUBCHEM_CACTVS_TAUTO_COUNT>
-1
> <PUBCHEM_COORDINATE_TYPE>
1
5
255
> <PUBCHEM_BONDANNOTATIONS>
13  10  6
21  28  8
21  29  8
28  33  8
29  34  8
32  36  8
32  37  8
33  35  8
34  35  8
36  39  8
37  40  8
39  41  8
40  41  8
$$$$
