508501
  -OEChem-10302200282D
109109  0     1  0  0  0  0  0999 V2000
    9.0223    1.4155    0.0000 O   0  0  0  0  0  0  0  0  0  0  0  0
   10.7016   -1.6331    0.0000 O   0  0  0  0  0  0  0  0  0  0  0  0
    8.0984   -4.4609    0.0000 O   0  0  0  0  0  0  0  0  0  0  0  0
    4.3073   -3.8283    0.0000 O   0  0  0  0  0  0  0  0  0  0  0  0
    8.7091    2.9092    0.0000 O   0  0  0  0  0  0  0  0  0  0  0  0
    2.6010   -2.5954    0.0000 O   0  0  0  0  0  0  0  0  0  0  0  0
    2.7634   -0.3085    0.0000 O   0  0  0  0  0  0  0  0  0  0  0  0
    2.8623    1.7943    0.0000 O   0  0  0  0  0  0  0  0  0  0  0  0
    4.8656    2.9092    0.0000 O   0  0  0  0  0  0  0  0  0  0  0  0
    9.3305   -2.3034    0.0000 N   0  0  0  0  0  0  0  0  0  0  0  0
    6.7873   -3.6797    0.0000 N   0  0  0  0  0  0  0  0  0  0  0  0
    4.2442   -2.3034    0.0000 N   0  0  0  0  0  0  0  0  0  0  0  0
    4.0054    0.5783    0.0000 N   0  0  0  0  0  0  0  0  0  0  0  0
    6.2873    2.3544    0.0000 N   0  0  0  0  0  0  0  0  0  0  0  0
    8.6532   -3.0391    0.0000 C   0  0  1  0  0  0  0  0  0  0  0  0
    9.8147   -0.3911    0.0000 C   0  0  2  0  0  0  0  0  0  0  0  0
    9.5692    0.5783    0.0000 C   0  0  1  0  0  0  0  0  0  0  0  0
    9.2674   -3.8283    0.0000 C   0  0  0  0  0  0  0  0  0  0  0  0
   10.4850    0.9800    0.0000 C   0  0  0  0  0  0  0  0  0  0  0  0
   10.1939   -4.2046    0.0000 C   0  0  0  0  0  0  0  0  0  0  0  0
    5.8010   -3.5151    0.0000 C   0  0  1  0  0  0  0  0  0  0  0  0
    9.7322   -1.3876    0.0000 C   0  0  0  0  0  0  0  0  0  0  0  0
    5.4763   -4.4609    0.0000 C   0  0  1  0  0  0  0  0  0  0  0  0
   10.5950    1.9740    0.0000 C   0  0  0  0  0  0  0  0  0  0  0  0
    7.7737   -3.5151    0.0000 C   0  0  0  0  0  0  0  0  0  0  0  0
   11.5108    2.3756    0.0000 C   0  0  0  0  0  0  0  0  0  0  0  0
   10.8113   -0.3085    0.0000 C   0  0  0  0  0  0  0  0  0  0  0  0
    6.1330   -5.2150    0.0000 C   0  0  0  0  0  0  0  0  0  0  0  0
   11.6208    3.3696    0.0000 C   0  0  0  0  0  0  0  0  0  0  0  0
   10.1676   -2.8504    0.0000 C   0  0  0  0  0  0  0  0  0  0  0  0
   10.3312   -5.1951    0.0000 C   0  0  0  0  0  0  0  0  0  0  0  0
   10.9830   -3.5904    0.0000 C   0  0  0  0  0  0  0  0  0  0  0  0
    4.9215   -3.0391    0.0000 C   0  0  0  0  0  0  0  0  0  0  0  0
    4.4948   -4.6526    0.0000 C   0  0  0  0  0  0  0  0  0  0  0  0
   12.5366    3.7713    0.0000 C   0  0  0  0  0  0  0  0  0  0  0  0
   12.6466    4.7652    0.0000 C   0  0  0  0  0  0  0  0  0  0  0  0
    5.8083   -6.1608    0.0000 C   0  0  0  0  0  0  0  0  0  0  0  0
    3.8425   -1.3876    0.0000 C   0  0  1  0  0  0  0  0  0  0  0  0
    8.2332    2.0297    0.0000 C   0  0  0  0  0  0  0  0  0  0  0  0
   13.5624    5.1669    0.0000 C   0  0  0  0  0  0  0  0  0  0  0  0
    7.2873    2.3544    0.0000 C   0  0  0  0  0  0  0  0  0  0  0  0
    4.5524    1.4155    0.0000 C   0  0  2  0  0  0  0  0  0  0  0  0
    3.7600   -0.3911    0.0000 C   0  0  0  0  0  0  0  0  0  0  0  0
    2.8731   -1.6331    0.0000 C   0  0  0  0  0  0  0  0  0  0  0  0
    3.8167    2.0928    0.0000 C   0  0  2  0  0  0  0  0  0  0  0  0
    5.3415    2.0297    0.0000 C   0  0  0  0  0  0  0  0  0  0  0  0
   13.6724    6.1608    0.0000 C   0  0  0  0  0  0  0  0  0  0  0  0
    4.0353    3.0686    0.0000 C   0  0  0  0  0  0  0  0  0  0  0  0
    9.2726   -3.0648    0.0000 H   0  0  0  0  0  0  0  0  0  0  0  0
   10.2531   -0.8295    0.0000 H   0  0  0  0  0  0  0  0  0  0  0  0
    9.7462    1.1726    0.0000 H   0  0  0  0  0  0  0  0  0  0  0  0
    8.6774   -4.0188    0.0000 H   0  0  0  0  0  0  0  0  0  0  0  0
    9.6414   -3.3338    0.0000 H   0  0  0  0  0  0  0  0  0  0  0  0
   10.6317    0.3776    0.0000 H   0  0  0  0  0  0  0  0  0  0  0  0
   11.1037    1.0199    0.0000 H   0  0  0  0  0  0  0  0  0  0  0  0
    9.7046   -4.5854    0.0000 H   0  0  0  0  0  0  0  0  0  0  0  0
    6.2361   -4.2453    0.0000 H   0  0  0  0  0  0  0  0  0  0  0  0
    5.2750   -5.0473    0.0000 H   0  0  0  0  0  0  0  0  0  0  0  0
   10.4484    2.5764    0.0000 H   0  0  0  0  0  0  0  0  0  0  0  0
    9.9763    1.9341    0.0000 H   0  0  0  0  0  0  0  0  0  0  0  0
   11.6575    1.7732    0.0000 H   0  0  0  0  0  0  0  0  0  0  0  0
   12.1295    2.4155    0.0000 H   0  0  0  0  0  0  0  0  0  0  0  0
    6.7873   -4.2997    0.0000 H   0  0  0  0  0  0  0  0  0  0  0  0
   10.8625   -0.9264    0.0000 H   0  0  0  0  0  0  0  0  0  0  0  0
   11.4292   -0.2573    0.0000 H   0  0  0  0  0  0  0  0  0  0  0  0
   10.7601    0.3094    0.0000 H   0  0  0  0  0  0  0  0  0  0  0  0
    6.6756   -5.5151    0.0000 H   0  0  0  0  0  0  0  0  0  0  0  0
    6.5228   -4.7328    0.0000 H   0  0  0  0  0  0  0  0  0  0  0  0
   11.4741    3.9720    0.0000 H   0  0  0  0  0  0  0  0  0  0  0  0
   11.0021    3.3298    0.0000 H   0  0  0  0  0  0  0  0  0  0  0  0
    9.8285   -3.3694    0.0000 H   0  0  0  0  0  0  0  0  0  0  0  0
   10.6867   -3.1895    0.0000 H   0  0  0  0  0  0  0  0  0  0  0  0
   10.5067   -2.3313    0.0000 H   0  0  0  0  0  0  0  0  0  0  0  0
    9.7171   -5.2803    0.0000 H   0  0  0  0  0  0  0  0  0  0  0  0
   10.4164   -5.8092    0.0000 H   0  0  0  0  0  0  0  0  0  0  0  0
   10.9454   -5.1100    0.0000 H   0  0  0  0  0  0  0  0  0  0  0  0
   11.3638   -4.0796    0.0000 H   0  0  0  0  0  0  0  0  0  0  0  0
   11.4723   -3.2096    0.0000 H   0  0  0  0  0  0  0  0  0  0  0  0
   10.6022   -3.1011    0.0000 H   0  0  0  0  0  0  0  0  0  0  0  0
    4.3760   -4.0441    0.0000 H   0  0  0  0  0  0  0  0  0  0  0  0
    3.8863   -4.7715    0.0000 H   0  0  0  0  0  0  0  0  0  0  0  0
    4.6137   -5.2611    0.0000 H   0  0  0  0  0  0  0  0  0  0  0  0
   12.6833    3.1689    0.0000 H   0  0  0  0  0  0  0  0  0  0  0  0
   13.1553    3.8111    0.0000 H   0  0  0  0  0  0  0  0  0  0  0  0
   12.4999    5.3676    0.0000 H   0  0  0  0  0  0  0  0  0  0  0  0
   12.0279    4.7254    0.0000 H   0  0  0  0  0  0  0  0  0  0  0  0
    3.7252   -2.6425    0.0000 H   0  0  0  0  0  0  0  0  0  0  0  0
    5.2219   -5.9595    0.0000 H   0  0  0  0  0  0  0  0  0  0  0  0
    5.6070   -6.7472    0.0000 H   0  0  0  0  0  0  0  0  0  0  0  0
    6.3947   -6.3622    0.0000 H   0  0  0  0  0  0  0  0  0  0  0  0
    3.5702   -1.9446    0.0000 H   0  0  0  0  0  0  0  0  0  0  0  0
   13.7090    4.5645    0.0000 H   0  0  0  0  0  0  0  0  0  0  0  0
   14.1811    5.2068    0.0000 H   0  0  0  0  0  0  0  0  0  0  0  0
    7.7073    2.8106    0.0000 H   0  0  0  0  0  0  0  0  0  0  0  0
    7.1853    1.7429    0.0000 H   0  0  0  0  0  0  0  0  0  0  0  0
    3.7089    1.3104    0.0000 H   0  0  0  0  0  0  0  0  0  0  0  0
    2.8276   -1.0148    0.0000 H   0  0  0  0  0  0  0  0  0  0  0  0
    2.2563   -1.5706    0.0000 H   0  0  0  0  0  0  0  0  0  0  0  0
    3.4377    0.8274    0.0000 H   0  0  0  0  0  0  0  0  0  0  0  0
    3.6811    1.4878    0.0000 H   0  0  0  0  0  0  0  0  0  0  0  0
    6.1853    2.9660    0.0000 H   0  0  0  0  0  0  0  0  0  0  0  0
   14.2886    6.0926    0.0000 H   0  0  0  0  0  0  0  0  0  0  0  0
   13.7406    6.7771    0.0000 H   0  0  0  0  0  0  0  0  0  0  0  0
   13.0561    6.2290    0.0000 H   0  0  0  0  0  0  0  0  0  0  0  0
    4.6403    2.9330    0.0000 H   0  0  0  0  0  0  0  0  0  0  0  0
    4.1709    3.6736    0.0000 H   0  0  0  0  0  0  0  0  0  0  0  0
    3.4304    3.2042    0.0000 H   0  0  0  0  0  0  0  0  0  0  0  0
    2.0000   -2.7476    0.0000 H   0  0  0  0  0  0  0  0  0  0  0  0
    2.4061    2.2142    0.0000 H   0  0  0  0  0  0  0  0  0  0  0  0
  1 17  1  0  0  0  0
  1 39  1  0  0  0  0
  2 22  2  0  0  0  0
  3 25  2  0  0  0  0
  4 33  2  0  0  0  0
  5 39  2  0  0  0  0
  6 44  1  0  0  0  0
  6108  1  0  0  0  0
  7 43  2  0  0  0  0
 45  8  1  1  0  0  0
  8109  1  0  0  0  0
  9 46  2  0  0  0  0
 10 15  1  0  0  0  0
 10 22  1  0  0  0  0
 10 30  1  0  0  0  0
 11 21  1  0  0  0  0
 11 25  1  0  0  0  0
 11 63  1  0  0  0  0
 12 33  1  0  0  0  0
 12 38  1  0  0  0  0
 12 87  1  0  0  0  0
 13 42  1  0  0  0  0
 13 43  1  0  0  0  0
 13 99  1  0  0  0  0
 14 41  1  0  0  0  0
 14 46  1  0  0  0  0
 14101  1  0  0  0  0
 15 18  1  1  0  0  0
 15 25  1  0  0  0  0
 15 49  1  0  0  0  0
 16 17  1  0  0  0  0
 16 22  1  0  0  0  0
 16 27  1  1  0  0  0
 16 50  1  0  0  0  0
 17 19  1  6  0  0  0
 17 51  1  0  0  0  0
 18 20  1  0  0  0  0
 18 52  1  0  0  0  0
 18 53  1  0  0  0  0
 19 24  1  0  0  0  0
 19 54  1  0  0  0  0
 19 55  1  0  0  0  0
 20 31  1  0  0  0  0
 20 32  1  0  0  0  0
 20 56  1  0  0  0  0
 21 23  1  0  0  0  0
 21 33  1  0  0  0  0
 21 57  1  6  0  0  0
 23 28  1  0  0  0  0
 23 34  1  1  0  0  0
 23 58  1  0  0  0  0
 24 26  1  0  0  0  0
 24 59  1  0  0  0  0
 24 60  1  0  0  0  0
 26 29  1  0  0  0  0
 26 61  1  0  0  0  0
 26 62  1  0  0  0  0
 27 64  1  0  0  0  0
 27 65  1  0  0  0  0
 27 66  1  0  0  0  0
 28 37  1  0  0  0  0
 28 67  1  0  0  0  0
 28 68  1  0  0  0  0
 29 35  1  0  0  0  0
 29 69  1  0  0  0  0
 29 70  1  0  0  0  0
 30 71  1  0  0  0  0
 30 72  1  0  0  0  0
 30 73  1  0  0  0  0
 31 74  1  0  0  0  0
 31 75  1  0  0  0  0
 31 76  1  0  0  0  0
 32 77  1  0  0  0  0
 32 78  1  0  0  0  0
 32 79  1  0  0  0  0
 34 80  1  0  0  0  0
 34 81  1  0  0  0  0
 34 82  1  0  0  0  0
 35 36  1  0  0  0  0
 35 83  1  0  0  0  0
 35 84  1  0  0  0  0
 36 40  1  0  0  0  0
 36 85  1  0  0  0  0
 36 86  1  0  0  0  0
 37 88  1  0  0  0  0
 37 89  1  0  0  0  0
 37 90  1  0  0  0  0
 38 43  1  0  0  0  0
 38 44  1  6  0  0  0
 38 91  1  0  0  0  0
 39 41  1  0  0  0  0
 40 47  1  0  0  0  0
 40 92  1  0  0  0  0
 40 93  1  0  0  0  0
 41 94  1  0  0  0  0
 41 95  1  0  0  0  0
 42 45  1  0  0  0  0
 42 46  1  0  0  0  0
 42 96  1  1  0  0  0
 44 97  1  0  0  0  0
 44 98  1  0  0  0  0
 45 48  1  0  0  0  0
 45100  1  0  0  0  0
 47102  1  0  0  0  0
 47103  1  0  0  0  0
 47104  1  0  0  0  0
 48105  1  0  0  0  0
 48106  1  0  0  0  0
 48107  1  0  0  0  0
M  END
> <PUBCHEM_COMPOUND_CID>
508501
> <PUBCHEM_COMPOUND_CANONICALIZED>
1
> <PUBCHEM_CACTVS_COMPLEXITY>
1070
> <PUBCHEM_CACTVS_HBOND_ACCEPTOR>
9
> <PUBCHEM_CACTVS_HBOND_DONOR>
6
> <PUBCHEM_CACTVS_ROTATABLE_BOND>
13
> <PUBCHEM_CACTVS_SUBSKEYS>
AAADcfB/vAAAAAAAAAAAAAAAAAAAAAAAAAAAAAAAAAAAAAAAAAAAHgAQCAAADTzhgAYCCAPABgAIAAGQGAAAAAAAAAAAAIGIAAACUBYAgCAXQAAGNgCQAAGYyOCOAAAAAAAAAAAAAAAAAAAAAAAAAAAAAA==
> <PUBCHEM_IUPAC_OPENEYE_NAME>
(6R,9R,12S,15S,18R,19R)-6-[(1S)-1-hydroxyethyl]-9-(hydroxymethyl)-15-isobutyl-16,18-dimethyl-12-[(1R)-1-methylpropyl]-19-octyl-1-oxa-4,7,10,13,16-pentazacyclononadecane-2,5,8,11,14,17-hexone
> <PUBCHEM_IUPAC_CAS_NAME>
(6R,9R,12S,15S,18R,19R)-12-[(2R)-butan-2-yl]-6-[(1S)-1-hydroxyethyl]-9-(hydroxymethyl)-16,18-dimethyl-15-(2-methylpropyl)-19-octyl-1-oxa-4,7,10,13,16-pentazacyclononadecane-2,5,8,11,14,17-hexone
> <PUBCHEM_IUPAC_NAME_MARKUP>
(6<I>R</I>,9<I>R</I>,12<I>S</I>,15<I>S</I>,18<I>R</I>,19<I>R</I>)-12-[(2<I>R</I>)-butan-2-yl]-6-[(1<I>S</I>)-1-hydroxyethyl]-9-(hydroxymethyl)-16,18-dimethyl-15-(2-methylpropyl)-19-octyl-1-oxa-4,7,10,13,16-pentazacyclononadecane-2,5,8,11,14,17-hexone
> <PUBCHEM_IUPAC_NAME>
(6R,9R,12S,15S,18R,19R)-12-[(2R)-butan-2-yl]-6-[(1S)-1-hydroxyethyl]-9-(hydroxymethyl)-16,18-dimethyl-15-(2-methylpropyl)-19-octyl-1-oxa-4,7,10,13,16-pentazacyclononadecane-2,5,8,11,14,17-hexone
> <PUBCHEM_IUPAC_SYSTEMATIC_NAME>
(6R,9R,12S,15S,18R,19R)-12-[(2R)-butan-2-yl]-9-(hydroxymethyl)-16,18-dimethyl-15-(2-methylpropyl)-19-octyl-6-[(1S)-1-oxidanylethyl]-1-oxa-4,7,10,13,16-pentazacyclononadecane-2,5,8,11,14,17-hexone
> <PUBCHEM_IUPAC_TRADITIONAL_NAME>
(6R,9R,12S,15S,18R,19R)-6-[(1S)-1-hydroxyethyl]-15-isobutyl-16,18-dimethyl-9-methylol-12-[(1R)-1-methylpropyl]-19-octyl-1-oxa-4,7,10,13,16-pentazacyclononadecane-2,5,8,11,14,17-triquinone
> <PUBCHEM_IUPAC_INCHI>
InChI=1S/C34H61N5O9/c1-9-11-12-13-14-15-16-26-22(6)34(47)39(8)25(17-20(3)4)31(44)37-28(21(5)10-2)33(46)36-24(19-40)30(43)38-29(23(7)41)32(45)35-18-27(42)48-26/h20-26,28-29,40-41H,9-19H2,1-8H3,(H,35,45)(H,36,46)(H,37,44)(H,38,43)/t21-,22-,23+,24-,25+,26-,28+,29-/m1/s1
> <PUBCHEM_IUPAC_INCHIKEY>
IPDAQEWYJLJGEJ-OSVRLIOUSA-N
> <PUBCHEM_XLOGP3_AA>
5
> <PUBCHEM_EXACT_MASS>
683.44692854
> <PUBCHEM_MOLECULAR_FORMULA>
C34H61N5O9
> <PUBCHEM_MOLECULAR_WEIGHT>
683.9
> <PUBCHEM_OPENEYE_CAN_SMILES>
CCCCCCCCC1C(C(=O)N(C(C(=O)NC(C(=O)NC(C(=O)NC(C(=O)NCC(=O)O1)C(C)O)CO)C(C)CC)CC(C)C)C)C
> <PUBCHEM_OPENEYE_ISO_SMILES>
CCCCCCCC[C@@H]1[C@H](C(=O)N([C@H](C(=O)N[C@H](C(=O)N[C@@H](C(=O)N[C@@H](C(=O)NCC(=O)O1)[C@H](C)O)CO)[C@H](C)CC)CC(C)C)C)C
> <PUBCHEM_CACTVS_TPSA>
204
> <PUBCHEM_MONOISOTOPIC_WEIGHT>
683.44692854
> <PUBCHEM_TOTAL_CHARGE>
0
> <PUBCHEM_HEAVY_ATOM_COUNT>
48
> <PUBCHEM_ATOM_DEF_STEREO_COUNT>
8
> <PUBCHEM_ATOM_UDEF_STEREO_COUNT>
0
> <PUBCHEM_BOND_DEF_STEREO_COUNT>
0
> <PUBCHEM_BOND_UDEF_STEREO_COUNT>
0
> <PUBCHEM_ISOTOPIC_ATOM_COUNT>
0
> <PUBCHEM_COMPONENT_COUNT>
1
> <PUBCHEM_CACTVS_TAUTO_COUNT>
-1
> <PUBCHEM_COORDINATE_TYPE>
1
5
255
> <PUBCHEM_BONDANNOTATIONS>
15  18  5
16  27  5
17  19  6
21  57  6
23  34  5
38  44  6
42  96  5
45  8  5
$$$$
