508556
  -OEChem-10302200282D
 94 96  0     1  0  0  0  0  0999 V2000
   12.3923    1.2500    0.0000 S   0  0  0  0  0  0  0  0  0  0  0  0
    4.5981   -1.2500    0.0000 S   0  0  0  0  0  0  0  0  0  0  0  0
   10.6603    1.2500    0.0000 O   0  0  0  0  0  0  0  0  0  0  0  0
   13.3923    1.2500    0.0000 O   0  0  0  0  0  0  0  0  0  0  0  0
   11.3923    1.2500    0.0000 O   0  0  0  0  0  0  0  0  0  0  0  0
    5.5981   -1.2500    0.0000 O   0  0  0  0  0  0  0  0  0  0  0  0
    3.5981   -1.2500    0.0000 O   0  0  0  0  0  0  0  0  0  0  0  0
    6.3301    1.7500    0.0000 O   0  0  0  0  0  0  0  0  0  0  0  0
    4.5981    1.7500    0.0000 O   0  0  0  0  0  0  0  0  0  0  0  0
   12.3923    0.2500    0.0000 N   0  0  0  0  0  0  0  0  0  0  0  0
    9.7942   -0.2500    0.0000 N   0  0  0  0  0  0  0  0  0  0  0  0
    4.5981   -0.2500    0.0000 N   0  0  3  0  0  0  0  0  0  0  0  0
   12.3923   -1.7500    0.0000 C   0  0  0  0  0  0  0  0  0  0  0  0
   12.3923   -2.7500    0.0000 C   0  0  0  0  0  0  0  0  0  0  0  0
   13.2583   -1.2500    0.0000 C   0  0  0  0  0  0  0  0  0  0  0  0
   11.5263   -1.2500    0.0000 C   0  0  0  0  0  0  0  0  0  0  0  0
   13.2583   -3.2500    0.0000 C   0  0  0  0  0  0  0  0  0  0  0  0
   14.1244   -1.7500    0.0000 C   0  0  0  0  0  0  0  0  0  0  0  0
   14.1244   -2.7500    0.0000 C   0  0  0  0  0  0  0  0  0  0  0  0
   11.5263   -0.2500    0.0000 C   0  0  1  0  0  0  0  0  0  0  0  0
   10.6603    0.2500    0.0000 C   0  0  0  0  0  0  0  0  0  0  0  0
    8.9282    0.2500    0.0000 C   0  0  0  0  0  0  0  0  0  0  0  0
    5.4641    0.2500    0.0000 C   0  0  1  0  0  0  0  0  0  0  0  0
    6.3301   -0.2500    0.0000 C   0  0  0  0  0  0  0  0  0  0  0  0
    8.0622   -0.2500    0.0000 C   0  0  0  0  0  0  0  0  0  0  0  0
    7.1962    0.2500    0.0000 C   0  0  0  0  0  0  0  0  0  0  0  0
    3.7320    0.2500    0.0000 C   0  0  0  0  0  0  0  0  0  0  0  0
   12.3923    2.2500    0.0000 C   0  0  0  0  0  0  0  0  0  0  0  0
    2.8660   -0.2500    0.0000 C   0  0  0  0  0  0  0  0  0  0  0  0
    5.4641    1.2500    0.0000 C   0  0  0  0  0  0  0  0  0  0  0  0
    4.5981   -2.2500    0.0000 C   0  0  0  0  0  0  0  0  0  0  0  0
    2.0000    0.2500    0.0000 C   0  0  0  0  0  0  0  0  0  0  0  0
    2.8660   -1.2500    0.0000 C   0  0  0  0  0  0  0  0  0  0  0  0
   13.2583    2.7500    0.0000 C   0  0  0  0  0  0  0  0  0  0  0  0
   11.5263    2.7500    0.0000 C   0  0  0  0  0  0  0  0  0  0  0  0
    3.7320   -2.7500    0.0000 C   0  0  0  0  0  0  0  0  0  0  0  0
    5.4641   -2.7500    0.0000 C   0  0  0  0  0  0  0  0  0  0  0  0
   13.2583    3.7500    0.0000 C   0  0  0  0  0  0  0  0  0  0  0  0
   11.5263    3.7500    0.0000 C   0  0  0  0  0  0  0  0  0  0  0  0
   12.3923    4.2500    0.0000 C   0  0  0  0  0  0  0  0  0  0  0  0
    3.7320   -3.7500    0.0000 C   0  0  0  0  0  0  0  0  0  0  0  0
    5.4641   -3.7500    0.0000 C   0  0  0  0  0  0  0  0  0  0  0  0
    4.5981   -4.2500    0.0000 C   0  0  0  0  0  0  0  0  0  0  0  0
   12.3923    5.2500    0.0000 C   0  0  0  0  0  0  0  0  0  0  0  0
    4.5981   -5.2500    0.0000 C   0  0  0  0  0  0  0  0  0  0  0  0
   11.8554   -2.0600    0.0000 H   0  0  0  0  0  0  0  0  0  0  0  0
   11.7817   -2.6423    0.0000 H   0  0  0  0  0  0  0  0  0  0  0  0
   12.1803   -3.3326    0.0000 H   0  0  0  0  0  0  0  0  0  0  0  0
   13.6569   -0.7751    0.0000 H   0  0  0  0  0  0  0  0  0  0  0  0
   12.8598   -0.7751    0.0000 H   0  0  0  0  0  0  0  0  0  0  0  0
   10.9157   -1.1423    0.0000 H   0  0  0  0  0  0  0  0  0  0  0  0
   11.3142   -1.8326    0.0000 H   0  0  0  0  0  0  0  0  0  0  0  0
   12.8598   -3.7250    0.0000 H   0  0  0  0  0  0  0  0  0  0  0  0
   13.6569   -3.7250    0.0000 H   0  0  0  0  0  0  0  0  0  0  0  0
   14.7349   -1.8577    0.0000 H   0  0  0  0  0  0  0  0  0  0  0  0
   14.3364   -1.1674    0.0000 H   0  0  0  0  0  0  0  0  0  0  0  0
   14.3364   -3.3326    0.0000 H   0  0  0  0  0  0  0  0  0  0  0  0
   14.7349   -2.6423    0.0000 H   0  0  0  0  0  0  0  0  0  0  0  0
   12.0632   -0.5600    0.0000 H   0  0  0  0  0  0  0  0  0  0  0  0
   12.9292   -0.0600    0.0000 H   0  0  0  0  0  0  0  0  0  0  0  0
    9.7942   -0.8700    0.0000 H   0  0  0  0  0  0  0  0  0  0  0  0
    9.3267    0.7249    0.0000 H   0  0  0  0  0  0  0  0  0  0  0  0
    8.5297    0.7249    0.0000 H   0  0  0  0  0  0  0  0  0  0  0  0
    5.4641   -0.3700    0.0000 H   0  0  0  0  0  0  0  0  0  0  0  0
    5.9316   -0.7249    0.0000 H   0  0  0  0  0  0  0  0  0  0  0  0
    6.7287   -0.7249    0.0000 H   0  0  0  0  0  0  0  0  0  0  0  0
    7.6636   -0.7249    0.0000 H   0  0  0  0  0  0  0  0  0  0  0  0
    8.4607   -0.7249    0.0000 H   0  0  0  0  0  0  0  0  0  0  0  0
    7.5947    0.7249    0.0000 H   0  0  0  0  0  0  0  0  0  0  0  0
    6.7976    0.7249    0.0000 H   0  0  0  0  0  0  0  0  0  0  0  0
    4.1306    0.7249    0.0000 H   0  0  0  0  0  0  0  0  0  0  0  0
    3.3335    0.7249    0.0000 H   0  0  0  0  0  0  0  0  0  0  0  0
    2.8660    0.3700    0.0000 H   0  0  0  0  0  0  0  0  0  0  0  0
    2.3100    0.7869    0.0000 H   0  0  0  0  0  0  0  0  0  0  0  0
    1.4631    0.5600    0.0000 H   0  0  0  0  0  0  0  0  0  0  0  0
    1.6900   -0.2869    0.0000 H   0  0  0  0  0  0  0  0  0  0  0  0
    2.2460   -1.2500    0.0000 H   0  0  0  0  0  0  0  0  0  0  0  0
    2.8660   -1.8700    0.0000 H   0  0  0  0  0  0  0  0  0  0  0  0
    3.4860   -1.2500    0.0000 H   0  0  0  0  0  0  0  0  0  0  0  0
   13.7953    2.4400    0.0000 H   0  0  0  0  0  0  0  0  0  0  0  0
   10.9893    2.4400    0.0000 H   0  0  0  0  0  0  0  0  0  0  0  0
    3.1951   -2.4400    0.0000 H   0  0  0  0  0  0  0  0  0  0  0  0
    6.0010   -2.4400    0.0000 H   0  0  0  0  0  0  0  0  0  0  0  0
   13.7953    4.0600    0.0000 H   0  0  0  0  0  0  0  0  0  0  0  0
   10.9893    4.0600    0.0000 H   0  0  0  0  0  0  0  0  0  0  0  0
    6.3301    2.3700    0.0000 H   0  0  0  0  0  0  0  0  0  0  0  0
    3.1951   -4.0600    0.0000 H   0  0  0  0  0  0  0  0  0  0  0  0
    6.0010   -4.0600    0.0000 H   0  0  0  0  0  0  0  0  0  0  0  0
   13.0123    5.2500    0.0000 H   0  0  0  0  0  0  0  0  0  0  0  0
   12.3923    5.8700    0.0000 H   0  0  0  0  0  0  0  0  0  0  0  0
   11.7723    5.2500    0.0000 H   0  0  0  0  0  0  0  0  0  0  0  0
    3.9781   -5.2500    0.0000 H   0  0  0  0  0  0  0  0  0  0  0  0
    4.5981   -5.8700    0.0000 H   0  0  0  0  0  0  0  0  0  0  0  0
    5.2181   -5.2500    0.0000 H   0  0  0  0  0  0  0  0  0  0  0  0
  1  4  2  0  0  0  0
  1  5  2  0  0  0  0
  1 10  1  0  0  0  0
  1 28  1  0  0  0  0
  2  6  2  0  0  0  0
  2  7  2  0  0  0  0
  2 12  1  0  0  0  0
  2 31  1  0  0  0  0
  3 21  2  0  0  0  0
  8 30  1  0  0  0  0
  8 86  1  0  0  0  0
  9 30  2  0  0  0  0
 20 10  1  1  0  0  0
 10 60  1  0  0  0  0
 11 21  1  0  0  0  0
 11 22  1  0  0  0  0
 11 61  1  0  0  0  0
 23 12  1  6  0  0  0
 12 27  1  0  0  0  0
 13 14  1  0  0  0  0
 13 15  1  0  0  0  0
 13 16  1  0  0  0  0
 13 46  1  0  0  0  0
 14 17  1  0  0  0  0
 14 47  1  0  0  0  0
 14 48  1  0  0  0  0
 15 18  1  0  0  0  0
 15 49  1  0  0  0  0
 15 50  1  0  0  0  0
 16 20  1  0  0  0  0
 16 51  1  0  0  0  0
 16 52  1  0  0  0  0
 17 19  1  0  0  0  0
 17 53  1  0  0  0  0
 17 54  1  0  0  0  0
 18 19  1  0  0  0  0
 18 55  1  0  0  0  0
 18 56  1  0  0  0  0
 19 57  1  0  0  0  0
 19 58  1  0  0  0  0
 20 21  1  0  0  0  0
 20 59  1  0  0  0  0
 22 25  1  0  0  0  0
 22 62  1  0  0  0  0
 22 63  1  0  0  0  0
 23 24  1  0  0  0  0
 23 30  1  0  0  0  0
 23 64  1  0  0  0  0
 24 26  1  0  0  0  0
 24 65  1  0  0  0  0
 24 66  1  0  0  0  0
 25 26  1  0  0  0  0
 25 67  1  0  0  0  0
 25 68  1  0  0  0  0
 26 69  1  0  0  0  0
 26 70  1  0  0  0  0
 27 29  1  0  0  0  0
 27 71  1  0  0  0  0
 27 72  1  0  0  0  0
 28 34  2  0  0  0  0
 28 35  1  0  0  0  0
 29 32  1  0  0  0  0
 29 33  1  0  0  0  0
 29 73  1  0  0  0  0
 31 36  2  0  0  0  0
 31 37  1  0  0  0  0
 32 74  1  0  0  0  0
 32 75  1  0  0  0  0
 32 76  1  0  0  0  0
 33 77  1  0  0  0  0
 33 78  1  0  0  0  0
 33 79  1  0  0  0  0
 34 38  1  0  0  0  0
 34 80  1  0  0  0  0
 35 39  2  0  0  0  0
 35 81  1  0  0  0  0
 36 41  1  0  0  0  0
 36 82  1  0  0  0  0
 37 42  2  0  0  0  0
 37 83  1  0  0  0  0
 38 40  2  0  0  0  0
 38 84  1  0  0  0  0
 39 40  1  0  0  0  0
 39 85  1  0  0  0  0
 40 44  1  0  0  0  0
 41 43  2  0  0  0  0
 41 87  1  0  0  0  0
 42 43  1  0  0  0  0
 42 88  1  0  0  0  0
 43 45  1  0  0  0  0
 44 89  1  0  0  0  0
 44 90  1  0  0  0  0
 44 91  1  0  0  0  0
 45 92  1  0  0  0  0
 45 93  1  0  0  0  0
 45 94  1  0  0  0  0
M  END
> <PUBCHEM_COMPOUND_CID>
508556
> <PUBCHEM_COMPOUND_CANONICALIZED>
1
> <PUBCHEM_CACTVS_COMPLEXITY>
1130
> <PUBCHEM_CACTVS_HBOND_ACCEPTOR>
9
> <PUBCHEM_CACTVS_HBOND_DONOR>
3
> <PUBCHEM_CACTVS_ROTATABLE_BOND>
17
> <PUBCHEM_CACTVS_SUBSKEYS>
AAADcfB/OABgAAAAAAAAAAAAAAAAAAAAAAAwYMAAAAAAAAABQAAAHgQQSAAADSjB2AQyCYLAAgKIAiHSGHBCABAgAAAIiJmIAIgKYDKAkTCUYAAklgCYiAeYyICOEAAAAAAAAAAgAAAAAAAAAAAAAAAAAA==
> <PUBCHEM_IUPAC_OPENEYE_NAME>
(2S)-6-[[(2S)-3-cyclohexyl-2-(p-tolylsulfonylamino)propanoyl]amino]-2-[isobutyl(p-tolylsulfonyl)amino]hexanoic acid
> <PUBCHEM_IUPAC_CAS_NAME>
(2S)-6-[[(2S)-3-cyclohexyl-2-[(4-methylphenyl)sulfonylamino]-1-oxopropyl]amino]-2-[(4-methylphenyl)sulfonyl-(2-methylpropyl)amino]hexanoic acid
> <PUBCHEM_IUPAC_NAME_MARKUP>
(2<I>S</I>)-6-[[(2<I>S</I>)-3-cyclohexyl-2-[(4-methylphenyl)sulfonylamino]propanoyl]amino]-2-[(4-methylphenyl)sulfonyl-(2-methylpropyl)amino]hexanoic acid
> <PUBCHEM_IUPAC_NAME>
(2S)-6-[[(2S)-3-cyclohexyl-2-[(4-methylphenyl)sulfonylamino]propanoyl]amino]-2-[(4-methylphenyl)sulfonyl-(2-methylpropyl)amino]hexanoic acid
> <PUBCHEM_IUPAC_SYSTEMATIC_NAME>
(2S)-6-[[(2S)-3-cyclohexyl-2-[(4-methylphenyl)sulfonylamino]propanoyl]amino]-2-[(4-methylphenyl)sulfonyl-(2-methylpropyl)amino]hexanoic acid
> <PUBCHEM_IUPAC_TRADITIONAL_NAME>
(2S)-6-[[(2S)-3-cyclohexyl-2-(tosylamino)propanoyl]amino]-2-[isobutyl(tosyl)amino]hexanoic acid
> <PUBCHEM_IUPAC_INCHI>
InChI=1S/C33H49N3O7S2/c1-24(2)23-36(45(42,43)29-19-15-26(4)16-20-29)31(33(38)39)12-8-9-21-34-32(37)30(22-27-10-6-5-7-11-27)35-44(40,41)28-17-13-25(3)14-18-28/h13-20,24,27,30-31,35H,5-12,21-23H2,1-4H3,(H,34,37)(H,38,39)/t30-,31-/m0/s1
> <PUBCHEM_IUPAC_INCHIKEY>
OOFUZRDJAKLINI-CONSDPRKSA-N
> <PUBCHEM_XLOGP3_AA>
7
> <PUBCHEM_EXACT_MASS>
663.30119326
> <PUBCHEM_MOLECULAR_FORMULA>
C33H49N3O7S2
> <PUBCHEM_MOLECULAR_WEIGHT>
663.9
> <PUBCHEM_OPENEYE_CAN_SMILES>
CC1=CC=C(C=C1)S(=O)(=O)NC(CC2CCCCC2)C(=O)NCCCCC(C(=O)O)N(CC(C)C)S(=O)(=O)C3=CC=C(C=C3)C
> <PUBCHEM_OPENEYE_ISO_SMILES>
CC1=CC=C(C=C1)S(=O)(=O)N[C@@H](CC2CCCCC2)C(=O)NCCCC[C@@H](C(=O)O)N(CC(C)C)S(=O)(=O)C3=CC=C(C=C3)C
> <PUBCHEM_CACTVS_TPSA>
167
> <PUBCHEM_MONOISOTOPIC_WEIGHT>
663.30119326
> <PUBCHEM_TOTAL_CHARGE>
0
> <PUBCHEM_HEAVY_ATOM_COUNT>
45
> <PUBCHEM_ATOM_DEF_STEREO_COUNT>
2
> <PUBCHEM_ATOM_UDEF_STEREO_COUNT>
0
> <PUBCHEM_BOND_DEF_STEREO_COUNT>
0
> <PUBCHEM_BOND_UDEF_STEREO_COUNT>
0
> <PUBCHEM_ISOTOPIC_ATOM_COUNT>
0
> <PUBCHEM_COMPONENT_COUNT>
1
> <PUBCHEM_CACTVS_TAUTO_COUNT>
-1
> <PUBCHEM_COORDINATE_TYPE>
1
5
255
> <PUBCHEM_BONDANNOTATIONS>
20  10  5
23  12  6
28  34  8
28  35  8
31  36  8
31  37  8
34  38  8
35  39  8
36  41  8
37  42  8
38  40  8
39  40  8
41  43  8
42  43  8
$$$$
