508510
  -OEChem-10302200282D
106106  0     1  0  0  0  0  0999 V2000
    8.2136    1.2628    0.0000 O   0  0  0  0  0  0  0  0  0  0  0  0
   10.3309    4.0252    0.0000 O   0  0  0  0  0  0  0  0  0  0  0  0
   13.9662    2.7772    0.0000 O   0  0  0  0  0  0  0  0  0  0  0  0
   14.9097   -0.9487    0.0000 O   0  0  0  0  0  0  0  0  0  0  0  0
    6.9715    0.3760    0.0000 O   0  0  0  0  0  0  0  0  0  0  0  0
   14.4660   -3.0065    0.0000 O   0  0  0  0  0  0  0  0  0  0  0  0
   10.3412   -4.5306    0.0000 O   0  0  0  0  0  0  0  0  0  0  0  0
   12.3065   -3.7764    0.0000 O   0  0  0  0  0  0  0  0  0  0  0  0
    8.5154   -3.1438    0.0000 O   0  0  0  0  0  0  0  0  0  0  0  0
   11.4955    3.0389    0.0000 N   0  0  0  0  0  0  0  0  0  0  0  0
   13.7774    1.2628    0.0000 N   0  0  0  0  0  0  0  0  0  0  0  0
   13.5386   -1.6189    0.0000 N   0  0  0  0  0  0  0  0  0  0  0  0
   10.9955   -2.9952    0.0000 N   0  0  0  0  0  0  0  0  0  0  0  0
    8.4524   -1.6189    0.0000 N   0  0  0  0  0  0  0  0  0  0  0  0
    9.5497    2.7142    0.0000 C   0  0  2  0  0  0  0  0  0  0  0  0
    8.7605    2.1000    0.0000 C   0  0  1  0  0  0  0  0  0  0  0  0
   12.4413    2.7142    0.0000 C   0  0  1  0  0  0  0  0  0  0  0  0
    8.0248    2.7772    0.0000 C   0  0  0  0  0  0  0  0  0  0  0  0
   12.9172    3.5937    0.0000 C   0  0  0  0  0  0  0  0  0  0  0  0
   10.4955    3.0389    0.0000 C   0  0  0  0  0  0  0  0  0  0  0  0
    7.0704    2.4787    0.0000 C   0  0  0  0  0  0  0  0  0  0  0  0
   12.8897    4.5933    0.0000 C   0  0  0  0  0  0  0  0  0  0  0  0
    6.3347    3.1560    0.0000 C   0  0  0  0  0  0  0  0  0  0  0  0
   13.2304    2.1000    0.0000 C   0  0  0  0  0  0  0  0  0  0  0  0
    9.0737    3.5937    0.0000 C   0  0  0  0  0  0  0  0  0  0  0  0
   14.0229    0.2934    0.0000 C   0  0  1  0  0  0  0  0  0  0  0  0
    5.3803    2.8575    0.0000 C   0  0  0  0  0  0  0  0  0  0  0  0
   15.0194    0.3760    0.0000 C   0  0  0  0  0  0  0  0  0  0  0  0
   11.6601    4.0252    0.0000 C   0  0  0  0  0  0  0  0  0  0  0  0
   13.7416    5.1170    0.0000 C   0  0  0  0  0  0  0  0  0  0  0  0
   12.0102    5.0692    0.0000 C   0  0  0  0  0  0  0  0  0  0  0  0
    4.6445    3.5348    0.0000 C   0  0  0  0  0  0  0  0  0  0  0  0
   13.9403   -0.7032    0.0000 C   0  0  0  0  0  0  0  0  0  0  0  0
    3.6901    3.2363    0.0000 C   0  0  0  0  0  0  0  0  0  0  0  0
   15.4462    1.2803    0.0000 C   0  0  0  0  0  0  0  0  0  0  0  0
   15.5893   -0.4458    0.0000 C   0  0  0  0  0  0  0  0  0  0  0  0
    7.9681    0.2934    0.0000 C   0  0  0  0  0  0  0  0  0  0  0  0
   12.8613   -2.3547    0.0000 C   0  0  1  0  0  0  0  0  0  0  0  0
    2.9544    3.9136    0.0000 C   0  0  0  0  0  0  0  0  0  0  0  0
    8.0507   -0.7032    0.0000 C   0  0  0  0  0  0  0  0  0  0  0  0
   10.0091   -2.8306    0.0000 C   0  0  2  0  0  0  0  0  0  0  0  0
   11.9818   -2.8306    0.0000 C   0  0  0  0  0  0  0  0  0  0  0  0
   13.4755   -3.1438    0.0000 C   0  0  0  0  0  0  0  0  0  0  0  0
    9.6844   -3.7764    0.0000 C   0  0  2  0  0  0  0  0  0  0  0  0
    9.1296   -2.3547    0.0000 C   0  0  0  0  0  0  0  0  0  0  0  0
    2.0000    3.6150    0.0000 C   0  0  0  0  0  0  0  0  0  0  0  0
    8.7030   -3.9682    0.0000 C   0  0  0  0  0  0  0  0  0  0  0  0
    9.7750    3.2918    0.0000 H   0  0  0  0  0  0  0  0  0  0  0  0
    8.1453    2.0233    0.0000 H   0  0  0  0  0  0  0  0  0  0  0  0
   12.2159    3.2918    0.0000 H   0  0  0  0  0  0  0  0  0  0  0  0
    8.5175    3.1536    0.0000 H   0  0  0  0  0  0  0  0  0  0  0  0
    7.7398    3.3279    0.0000 H   0  0  0  0  0  0  0  0  0  0  0  0
   13.3287    3.1299    0.0000 H   0  0  0  0  0  0  0  0  0  0  0  0
   12.3142    3.7376    0.0000 H   0  0  0  0  0  0  0  0  0  0  0  0
    6.5776    2.1024    0.0000 H   0  0  0  0  0  0  0  0  0  0  0  0
    7.3554    1.9281    0.0000 H   0  0  0  0  0  0  0  0  0  0  0  0
   12.3615    4.2686    0.0000 H   0  0  0  0  0  0  0  0  0  0  0  0
    6.8274    3.5323    0.0000 H   0  0  0  0  0  0  0  0  0  0  0  0
    6.0496    3.7066    0.0000 H   0  0  0  0  0  0  0  0  0  0  0  0
    9.6190    3.8888    0.0000 H   0  0  0  0  0  0  0  0  0  0  0  0
    8.7786    4.1389    0.0000 H   0  0  0  0  0  0  0  0  0  0  0  0
    8.5284    3.2986    0.0000 H   0  0  0  0  0  0  0  0  0  0  0  0
   14.4613   -0.1450    0.0000 H   0  0  0  0  0  0  0  0  0  0  0  0
    4.8875    2.4812    0.0000 H   0  0  0  0  0  0  0  0  0  0  0  0
    5.6653    2.3069    0.0000 H   0  0  0  0  0  0  0  0  0  0  0  0
   14.6662    0.8855    0.0000 H   0  0  0  0  0  0  0  0  0  0  0  0
   14.3452    1.5119    0.0000 H   0  0  0  0  0  0  0  0  0  0  0  0
   12.2716    3.9232    0.0000 H   0  0  0  0  0  0  0  0  0  0  0  0
   11.7621    4.6368    0.0000 H   0  0  0  0  0  0  0  0  0  0  0  0
   11.0485    4.1273    0.0000 H   0  0  0  0  0  0  0  0  0  0  0  0
   14.0663    4.5888    0.0000 H   0  0  0  0  0  0  0  0  0  0  0  0
   14.2698    5.4416    0.0000 H   0  0  0  0  0  0  0  0  0  0  0  0
   13.4169    5.6451    0.0000 H   0  0  0  0  0  0  0  0  0  0  0  0
   12.3053    5.6145    0.0000 H   0  0  0  0  0  0  0  0  0  0  0  0
   11.4649    5.3643    0.0000 H   0  0  0  0  0  0  0  0  0  0  0  0
   11.7151    4.5240    0.0000 H   0  0  0  0  0  0  0  0  0  0  0  0
    5.1373    3.9111    0.0000 H   0  0  0  0  0  0  0  0  0  0  0  0
    4.3595    4.0854    0.0000 H   0  0  0  0  0  0  0  0  0  0  0  0
    3.1974    2.8600    0.0000 H   0  0  0  0  0  0  0  0  0  0  0  0
    3.9752    2.6857    0.0000 H   0  0  0  0  0  0  0  0  0  0  0  0
   16.0069    1.0157    0.0000 H   0  0  0  0  0  0  0  0  0  0  0  0
   15.7108    1.8410    0.0000 H   0  0  0  0  0  0  0  0  0  0  0  0
   14.8855    1.5449    0.0000 H   0  0  0  0  0  0  0  0  0  0  0  0
   15.0798   -0.7991    0.0000 H   0  0  0  0  0  0  0  0  0  0  0  0
   15.9425   -0.9553    0.0000 H   0  0  0  0  0  0  0  0  0  0  0  0
   16.0988   -0.0925    0.0000 H   0  0  0  0  0  0  0  0  0  0  0  0
   14.0576   -1.9581    0.0000 H   0  0  0  0  0  0  0  0  0  0  0  0
   13.4808   -2.3803    0.0000 H   0  0  0  0  0  0  0  0  0  0  0  0
    3.4472    4.2899    0.0000 H   0  0  0  0  0  0  0  0  0  0  0  0
    2.6694    4.4642    0.0000 H   0  0  0  0  0  0  0  0  0  0  0  0
    7.4642   -0.5019    0.0000 H   0  0  0  0  0  0  0  0  0  0  0  0
    8.6517   -0.5510    0.0000 H   0  0  0  0  0  0  0  0  0  0  0  0
   10.4442   -3.5608    0.0000 H   0  0  0  0  0  0  0  0  0  0  0  0
   12.9276   -3.4339    0.0000 H   0  0  0  0  0  0  0  0  0  0  0  0
   13.6660   -3.7338    0.0000 H   0  0  0  0  0  0  0  0  0  0  0  0
   10.9955   -3.6152    0.0000 H   0  0  0  0  0  0  0  0  0  0  0  0
    7.9333   -1.9581    0.0000 H   0  0  0  0  0  0  0  0  0  0  0  0
   10.2929   -3.6576    0.0000 H   0  0  0  0  0  0  0  0  0  0  0  0
    1.8149    4.2068    0.0000 H   0  0  0  0  0  0  0  0  0  0  0  0
    1.4083    3.4300    0.0000 H   0  0  0  0  0  0  0  0  0  0  0  0
    2.1851    3.0233    0.0000 H   0  0  0  0  0  0  0  0  0  0  0  0
    8.5841   -3.3596    0.0000 H   0  0  0  0  0  0  0  0  0  0  0  0
    8.0945   -4.0870    0.0000 H   0  0  0  0  0  0  0  0  0  0  0  0
    8.8218   -4.5766    0.0000 H   0  0  0  0  0  0  0  0  0  0  0  0
   14.8469   -3.4957    0.0000 H   0  0  0  0  0  0  0  0  0  0  0  0
   10.1399   -5.1170    0.0000 H   0  0  0  0  0  0  0  0  0  0  0  0
  1 16  1  0  0  0  0
  1 37  1  0  0  0  0
  2 20  2  0  0  0  0
  3 24  2  0  0  0  0
  4 33  2  0  0  0  0
  5 37  2  0  0  0  0
  6 43  1  0  0  0  0
  6105  1  0  0  0  0
 44  7  1  1  0  0  0
  7106  1  0  0  0  0
  8 42  2  0  0  0  0
  9 45  2  0  0  0  0
 10 17  1  0  0  0  0
 10 20  1  0  0  0  0
 10 29  1  0  0  0  0
 11 24  1  0  0  0  0
 11 26  1  0  0  0  0
 11 67  1  0  0  0  0
 12 33  1  0  0  0  0
 12 38  1  0  0  0  0
 12 87  1  0  0  0  0
 13 41  1  0  0  0  0
 13 42  1  0  0  0  0
 13 96  1  0  0  0  0
 14 40  1  0  0  0  0
 14 45  1  0  0  0  0
 14 97  1  0  0  0  0
 15 16  1  0  0  0  0
 15 20  1  0  0  0  0
 15 25  1  1  0  0  0
 15 48  1  0  0  0  0
 16 18  1  6  0  0  0
 16 49  1  0  0  0  0
 17 19  1  1  0  0  0
 17 24  1  0  0  0  0
 17 50  1  0  0  0  0
 18 21  1  0  0  0  0
 18 51  1  0  0  0  0
 18 52  1  0  0  0  0
 19 22  1  0  0  0  0
 19 53  1  0  0  0  0
 19 54  1  0  0  0  0
 21 23  1  0  0  0  0
 21 55  1  0  0  0  0
 21 56  1  0  0  0  0
 22 30  1  0  0  0  0
 22 31  1  0  0  0  0
 22 57  1  0  0  0  0
 23 27  1  0  0  0  0
 23 58  1  0  0  0  0
 23 59  1  0  0  0  0
 25 60  1  0  0  0  0
 25 61  1  0  0  0  0
 25 62  1  0  0  0  0
 26 28  1  1  0  0  0
 26 33  1  0  0  0  0
 26 63  1  0  0  0  0
 27 32  1  0  0  0  0
 27 64  1  0  0  0  0
 27 65  1  0  0  0  0
 28 35  1  0  0  0  0
 28 36  1  0  0  0  0
 28 66  1  0  0  0  0
 29 68  1  0  0  0  0
 29 69  1  0  0  0  0
 29 70  1  0  0  0  0
 30 71  1  0  0  0  0
 30 72  1  0  0  0  0
 30 73  1  0  0  0  0
 31 74  1  0  0  0  0
 31 75  1  0  0  0  0
 31 76  1  0  0  0  0
 32 34  1  0  0  0  0
 32 77  1  0  0  0  0
 32 78  1  0  0  0  0
 34 39  1  0  0  0  0
 34 79  1  0  0  0  0
 34 80  1  0  0  0  0
 35 81  1  0  0  0  0
 35 82  1  0  0  0  0
 35 83  1  0  0  0  0
 36 84  1  0  0  0  0
 36 85  1  0  0  0  0
 36 86  1  0  0  0  0
 37 40  1  0  0  0  0
 38 42  1  0  0  0  0
 38 43  1  6  0  0  0
 38 88  1  0  0  0  0
 39 46  1  0  0  0  0
 39 89  1  0  0  0  0
 39 90  1  0  0  0  0
 40 91  1  0  0  0  0
 40 92  1  0  0  0  0
 41 44  1  0  0  0  0
 41 45  1  0  0  0  0
 41 93  1  1  0  0  0
 43 94  1  0  0  0  0
 43 95  1  0  0  0  0
 44 47  1  0  0  0  0
 44 98  1  0  0  0  0
 46 99  1  0  0  0  0
 46100  1  0  0  0  0
 46101  1  0  0  0  0
 47102  1  0  0  0  0
 47103  1  0  0  0  0
 47104  1  0  0  0  0
M  END
> <PUBCHEM_COMPOUND_CID>
508510
> <PUBCHEM_COMPOUND_CANONICALIZED>
1
> <PUBCHEM_CACTVS_COMPLEXITY>
1050
> <PUBCHEM_CACTVS_HBOND_ACCEPTOR>
9
> <PUBCHEM_CACTVS_HBOND_DONOR>
6
> <PUBCHEM_CACTVS_ROTATABLE_BOND>
12
> <PUBCHEM_CACTVS_SUBSKEYS>
AAADcfB/vAAAAAAAAAAAAAAAAAAAAAAAAAAAAAAAAAAAAAAAAAAAHgAQCAAADTzhgAYCCAPABgAIAAGQGAAAAAAAAAAAAIGIAAACUBYAgCAXQAAGNgCQAAGYyOCMAAAAAAAAAAAAAAAAAAAAAAAAAAAAAA==
> <PUBCHEM_IUPAC_OPENEYE_NAME>
(6R,9R,12S,15S,18R,19R)-6-[(1S)-1-hydroxyethyl]-9-(hydroxymethyl)-15-isobutyl-12-isopropyl-16,18-dimethyl-19-octyl-1-oxa-4,7,10,13,16-pentazacyclononadecane-2,5,8,11,14,17-hexone
> <PUBCHEM_IUPAC_CAS_NAME>
(6R,9R,12S,15S,18R,19R)-6-[(1S)-1-hydroxyethyl]-9-(hydroxymethyl)-16,18-dimethyl-15-(2-methylpropyl)-19-octyl-12-propan-2-yl-1-oxa-4,7,10,13,16-pentazacyclononadecane-2,5,8,11,14,17-hexone
> <PUBCHEM_IUPAC_NAME_MARKUP>
(6<I>R</I>,9<I>R</I>,12<I>S</I>,15<I>S</I>,18<I>R</I>,19<I>R</I>)-6-[(1<I>S</I>)-1-hydroxyethyl]-9-(hydroxymethyl)-16,18-dimethyl-15-(2-methylpropyl)-19-octyl-12-propan-2-yl-1-oxa-4,7,10,13,16-pentazacyclononadecane-2,5,8,11,14,17-hexone
> <PUBCHEM_IUPAC_NAME>
(6R,9R,12S,15S,18R,19R)-6-[(1S)-1-hydroxyethyl]-9-(hydroxymethyl)-16,18-dimethyl-15-(2-methylpropyl)-19-octyl-12-propan-2-yl-1-oxa-4,7,10,13,16-pentazacyclononadecane-2,5,8,11,14,17-hexone
> <PUBCHEM_IUPAC_SYSTEMATIC_NAME>
(6R,9R,12S,15S,18R,19R)-9-(hydroxymethyl)-16,18-dimethyl-15-(2-methylpropyl)-19-octyl-6-[(1S)-1-oxidanylethyl]-12-propan-2-yl-1-oxa-4,7,10,13,16-pentazacyclononadecane-2,5,8,11,14,17-hexone
> <PUBCHEM_IUPAC_TRADITIONAL_NAME>
(6R,9R,12S,15S,18R,19R)-6-[(1S)-1-hydroxyethyl]-15-isobutyl-12-isopropyl-16,18-dimethyl-9-methylol-19-octyl-1-oxa-4,7,10,13,16-pentazacyclononadecane-2,5,8,11,14,17-triquinone
> <PUBCHEM_IUPAC_INCHI>
InChI=1S/C33H59N5O9/c1-9-10-11-12-13-14-15-25-21(6)33(46)38(8)24(16-19(2)3)30(43)36-27(20(4)5)32(45)35-23(18-39)29(42)37-28(22(7)40)31(44)34-17-26(41)47-25/h19-25,27-28,39-40H,9-18H2,1-8H3,(H,34,44)(H,35,45)(H,36,43)(H,37,42)/t21-,22+,23-,24+,25-,27+,28-/m1/s1
> <PUBCHEM_IUPAC_INCHIKEY>
JYWDZNCYCJGCAH-JGDBTYLISA-N
> <PUBCHEM_XLOGP3_AA>
4.7
> <PUBCHEM_EXACT_MASS>
669.43127848
> <PUBCHEM_MOLECULAR_FORMULA>
C33H59N5O9
> <PUBCHEM_MOLECULAR_WEIGHT>
669.8
> <PUBCHEM_OPENEYE_CAN_SMILES>
CCCCCCCCC1C(C(=O)N(C(C(=O)NC(C(=O)NC(C(=O)NC(C(=O)NCC(=O)O1)C(C)O)CO)C(C)C)CC(C)C)C)C
> <PUBCHEM_OPENEYE_ISO_SMILES>
CCCCCCCC[C@@H]1[C@H](C(=O)N([C@H](C(=O)N[C@H](C(=O)N[C@@H](C(=O)N[C@@H](C(=O)NCC(=O)O1)[C@H](C)O)CO)C(C)C)CC(C)C)C)C
> <PUBCHEM_CACTVS_TPSA>
204
> <PUBCHEM_MONOISOTOPIC_WEIGHT>
669.43127848
> <PUBCHEM_TOTAL_CHARGE>
0
> <PUBCHEM_HEAVY_ATOM_COUNT>
47
> <PUBCHEM_ATOM_DEF_STEREO_COUNT>
7
> <PUBCHEM_ATOM_UDEF_STEREO_COUNT>
0
> <PUBCHEM_BOND_DEF_STEREO_COUNT>
0
> <PUBCHEM_BOND_UDEF_STEREO_COUNT>
0
> <PUBCHEM_ISOTOPIC_ATOM_COUNT>
0
> <PUBCHEM_COMPONENT_COUNT>
1
> <PUBCHEM_CACTVS_TAUTO_COUNT>
-1
> <PUBCHEM_COORDINATE_TYPE>
1
5
255
> <PUBCHEM_BONDANNOTATIONS>
15  25  5
16  18  6
17  19  5
26  28  5
38  43  6
41  93  5
44  7  5
$$$$
