508602
  -OEChem-10302200282D
 90 91  0     1  0  0  0  0  0999 V2000
    4.5981   -0.5000    0.0000 S   0  0  0  0  0  0  0  0  0  0  0  0
    5.5981   -0.5000    0.0000 O   0  0  0  0  0  0  0  0  0  0  0  0
    3.5981   -0.5000    0.0000 O   0  0  0  0  0  0  0  0  0  0  0  0
    6.3301    2.5000    0.0000 O   0  0  0  0  0  0  0  0  0  0  0  0
    4.5981    2.5000    0.0000 O   0  0  0  0  0  0  0  0  0  0  0  0
   13.2583    2.5000    0.0000 O   0  0  0  0  0  0  0  0  0  0  0  0
   10.6603    2.0000    0.0000 O   0  0  0  0  0  0  0  0  0  0  0  0
   11.5263    2.5000    0.0000 O   0  0  0  0  0  0  0  0  0  0  0  0
    4.5981    0.5000    0.0000 N   0  0  3  0  0  0  0  0  0  0  0  0
    9.7942    0.5000    0.0000 N   0  0  0  0  0  0  0  0  0  0  0  0
   12.3923    1.0000    0.0000 N   0  0  0  0  0  0  0  0  0  0  0  0
    5.4641    1.0000    0.0000 C   0  0  1  0  0  0  0  0  0  0  0  0
    6.3301    0.5000    0.0000 C   0  0  0  0  0  0  0  0  0  0  0  0
    3.7320    1.0000    0.0000 C   0  0  0  0  0  0  0  0  0  0  0  0
    7.1962    1.0000    0.0000 C   0  0  0  0  0  0  0  0  0  0  0  0
    2.8660    0.5000    0.0000 C   0  0  0  0  0  0  0  0  0  0  0  0
    8.0622    0.5000    0.0000 C   0  0  0  0  0  0  0  0  0  0  0  0
    5.4641    2.0000    0.0000 C   0  0  0  0  0  0  0  0  0  0  0  0
    8.9282    1.0000    0.0000 C   0  0  0  0  0  0  0  0  0  0  0  0
    4.5981   -1.5000    0.0000 C   0  0  0  0  0  0  0  0  0  0  0  0
    2.0000    1.0000    0.0000 C   0  0  0  0  0  0  0  0  0  0  0  0
    2.8660   -0.5000    0.0000 C   0  0  0  0  0  0  0  0  0  0  0  0
   11.5263    0.5000    0.0000 C   0  0  2  0  0  0  0  0  0  0  0  0
   10.6603    1.0000    0.0000 C   0  0  0  0  0  0  0  0  0  0  0  0
    3.7320   -2.0000    0.0000 C   0  0  0  0  0  0  0  0  0  0  0  0
    5.4641   -2.0000    0.0000 C   0  0  0  0  0  0  0  0  0  0  0  0
   11.5263   -0.5000    0.0000 C   0  0  0  0  0  0  0  0  0  0  0  0
    3.7320   -3.0000    0.0000 C   0  0  0  0  0  0  0  0  0  0  0  0
    5.4641   -3.0000    0.0000 C   0  0  0  0  0  0  0  0  0  0  0  0
    4.5981   -3.5000    0.0000 C   0  0  0  0  0  0  0  0  0  0  0  0
   12.3923   -1.0000    0.0000 C   0  0  0  0  0  0  0  0  0  0  0  0
   13.2583    3.5000    0.0000 C   0  0  0  0  0  0  0  0  0  0  0  0
   12.3923    2.0000    0.0000 C   0  0  0  0  0  0  0  0  0  0  0  0
   13.2583    0.5000    0.0000 C   0  0  0  0  0  0  0  0  0  0  0  0
    4.5981   -4.5000    0.0000 C   0  0  0  0  0  0  0  0  0  0  0  0
   13.2583   -0.5000    0.0000 C   0  0  0  0  0  0  0  0  0  0  0  0
   12.3923   -2.0000    0.0000 C   0  0  0  0  0  0  0  0  0  0  0  0
   13.2583    4.5000    0.0000 C   0  0  0  0  0  0  0  0  0  0  0  0
   14.2583    3.5000    0.0000 C   0  0  0  0  0  0  0  0  0  0  0  0
   12.2583    3.5000    0.0000 C   0  0  0  0  0  0  0  0  0  0  0  0
   14.1244   -1.0000    0.0000 C   0  0  0  0  0  0  0  0  0  0  0  0
   13.2583   -2.5000    0.0000 C   0  0  0  0  0  0  0  0  0  0  0  0
   14.1244   -2.0000    0.0000 C   0  0  0  0  0  0  0  0  0  0  0  0
    5.4641    0.3800    0.0000 H   0  0  0  0  0  0  0  0  0  0  0  0
    5.9316    0.0251    0.0000 H   0  0  0  0  0  0  0  0  0  0  0  0
    6.7287    0.0251    0.0000 H   0  0  0  0  0  0  0  0  0  0  0  0
    4.1306    1.4750    0.0000 H   0  0  0  0  0  0  0  0  0  0  0  0
    3.3335    1.4750    0.0000 H   0  0  0  0  0  0  0  0  0  0  0  0
    7.5947    1.4750    0.0000 H   0  0  0  0  0  0  0  0  0  0  0  0
    6.7976    1.4750    0.0000 H   0  0  0  0  0  0  0  0  0  0  0  0
    2.8660    1.1200    0.0000 H   0  0  0  0  0  0  0  0  0  0  0  0
    7.6636    0.0251    0.0000 H   0  0  0  0  0  0  0  0  0  0  0  0
    8.4607    0.0251    0.0000 H   0  0  0  0  0  0  0  0  0  0  0  0
    9.3267    1.4750    0.0000 H   0  0  0  0  0  0  0  0  0  0  0  0
    8.5297    1.4750    0.0000 H   0  0  0  0  0  0  0  0  0  0  0  0
    2.3100    1.5369    0.0000 H   0  0  0  0  0  0  0  0  0  0  0  0
    1.4631    1.3100    0.0000 H   0  0  0  0  0  0  0  0  0  0  0  0
    1.6900    0.4631    0.0000 H   0  0  0  0  0  0  0  0  0  0  0  0
    2.2460   -0.5000    0.0000 H   0  0  0  0  0  0  0  0  0  0  0  0
    2.8660   -1.1200    0.0000 H   0  0  0  0  0  0  0  0  0  0  0  0
    3.4860   -0.5000    0.0000 H   0  0  0  0  0  0  0  0  0  0  0  0
   12.0632    0.1900    0.0000 H   0  0  0  0  0  0  0  0  0  0  0  0
    9.7942   -0.1200    0.0000 H   0  0  0  0  0  0  0  0  0  0  0  0
    3.1951   -1.6900    0.0000 H   0  0  0  0  0  0  0  0  0  0  0  0
    6.0010   -1.6900    0.0000 H   0  0  0  0  0  0  0  0  0  0  0  0
   10.9157   -0.3923    0.0000 H   0  0  0  0  0  0  0  0  0  0  0  0
   11.3142   -1.0826    0.0000 H   0  0  0  0  0  0  0  0  0  0  0  0
    6.3301    3.1200    0.0000 H   0  0  0  0  0  0  0  0  0  0  0  0
    3.1951   -3.3100    0.0000 H   0  0  0  0  0  0  0  0  0  0  0  0
    6.0010   -3.3100    0.0000 H   0  0  0  0  0  0  0  0  0  0  0  0
   12.9483   -0.0369    0.0000 H   0  0  0  0  0  0  0  0  0  0  0  0
   13.7953    0.1900    0.0000 H   0  0  0  0  0  0  0  0  0  0  0  0
   13.5683    1.0369    0.0000 H   0  0  0  0  0  0  0  0  0  0  0  0
    3.9781   -4.5000    0.0000 H   0  0  0  0  0  0  0  0  0  0  0  0
    4.5981   -5.1200    0.0000 H   0  0  0  0  0  0  0  0  0  0  0  0
    5.2181   -4.5000    0.0000 H   0  0  0  0  0  0  0  0  0  0  0  0
   13.2583    0.1200    0.0000 H   0  0  0  0  0  0  0  0  0  0  0  0
   11.8554   -2.3100    0.0000 H   0  0  0  0  0  0  0  0  0  0  0  0
   13.8783    4.5000    0.0000 H   0  0  0  0  0  0  0  0  0  0  0  0
   13.2583    5.1200    0.0000 H   0  0  0  0  0  0  0  0  0  0  0  0
   12.6383    4.5000    0.0000 H   0  0  0  0  0  0  0  0  0  0  0  0
   14.2583    2.8800    0.0000 H   0  0  0  0  0  0  0  0  0  0  0  0
   14.8783    3.5000    0.0000 H   0  0  0  0  0  0  0  0  0  0  0  0
   14.2583    4.1200    0.0000 H   0  0  0  0  0  0  0  0  0  0  0  0
   12.2583    4.1200    0.0000 H   0  0  0  0  0  0  0  0  0  0  0  0
   11.6383    3.5000    0.0000 H   0  0  0  0  0  0  0  0  0  0  0  0
   12.2583    2.8800    0.0000 H   0  0  0  0  0  0  0  0  0  0  0  0
   14.6613   -0.6900    0.0000 H   0  0  0  0  0  0  0  0  0  0  0  0
   13.2583   -3.1200    0.0000 H   0  0  0  0  0  0  0  0  0  0  0  0
   14.6613   -2.3100    0.0000 H   0  0  0  0  0  0  0  0  0  0  0  0
  1  2  2  0  0  0  0
  1  3  2  0  0  0  0
  1  9  1  0  0  0  0
  1 20  1  0  0  0  0
  4 18  1  0  0  0  0
  4 68  1  0  0  0  0
  5 18  2  0  0  0  0
  6 32  1  0  0  0  0
  6 33  1  0  0  0  0
  7 24  2  0  0  0  0
  8 33  2  0  0  0  0
 12  9  1  6  0  0  0
  9 14  1  0  0  0  0
 10 19  1  0  0  0  0
 10 24  1  0  0  0  0
 10 63  1  0  0  0  0
 23 11  1  1  0  0  0
 11 33  1  0  0  0  0
 11 34  1  0  0  0  0
 12 13  1  0  0  0  0
 12 18  1  0  0  0  0
 12 44  1  0  0  0  0
 13 15  1  0  0  0  0
 13 45  1  0  0  0  0
 13 46  1  0  0  0  0
 14 16  1  0  0  0  0
 14 47  1  0  0  0  0
 14 48  1  0  0  0  0
 15 17  1  0  0  0  0
 15 49  1  0  0  0  0
 15 50  1  0  0  0  0
 16 21  1  0  0  0  0
 16 22  1  0  0  0  0
 16 51  1  0  0  0  0
 17 19  1  0  0  0  0
 17 52  1  0  0  0  0
 17 53  1  0  0  0  0
 19 54  1  0  0  0  0
 19 55  1  0  0  0  0
 20 25  2  0  0  0  0
 20 26  1  0  0  0  0
 21 56  1  0  0  0  0
 21 57  1  0  0  0  0
 21 58  1  0  0  0  0
 22 59  1  0  0  0  0
 22 60  1  0  0  0  0
 22 61  1  0  0  0  0
 23 24  1  0  0  0  0
 23 27  1  0  0  0  0
 23 62  1  0  0  0  0
 25 28  1  0  0  0  0
 25 64  1  0  0  0  0
 26 29  2  0  0  0  0
 26 65  1  0  0  0  0
 27 31  1  0  0  0  0
 27 66  1  0  0  0  0
 27 67  1  0  0  0  0
 28 30  2  0  0  0  0
 28 69  1  0  0  0  0
 29 30  1  0  0  0  0
 29 70  1  0  0  0  0
 30 35  1  0  0  0  0
 31 36  2  0  0  0  0
 31 37  1  0  0  0  0
 32 38  1  0  0  0  0
 32 39  1  0  0  0  0
 32 40  1  0  0  0  0
 34 71  1  0  0  0  0
 34 72  1  0  0  0  0
 34 73  1  0  0  0  0
 35 74  1  0  0  0  0
 35 75  1  0  0  0  0
 35 76  1  0  0  0  0
 36 41  1  0  0  0  0
 36 77  1  0  0  0  0
 37 42  2  0  0  0  0
 37 78  1  0  0  0  0
 38 79  1  0  0  0  0
 38 80  1  0  0  0  0
 38 81  1  0  0  0  0
 39 82  1  0  0  0  0
 39 83  1  0  0  0  0
 39 84  1  0  0  0  0
 40 85  1  0  0  0  0
 40 86  1  0  0  0  0
 40 87  1  0  0  0  0
 41 43  2  0  0  0  0
 41 88  1  0  0  0  0
 42 43  1  0  0  0  0
 42 89  1  0  0  0  0
 43 90  1  0  0  0  0
M  END
> <PUBCHEM_COMPOUND_CID>
508602
> <PUBCHEM_COMPOUND_CANONICALIZED>
1
> <PUBCHEM_CACTVS_COMPLEXITY>
991
> <PUBCHEM_CACTVS_HBOND_ACCEPTOR>
8
> <PUBCHEM_CACTVS_HBOND_DONOR>
2
> <PUBCHEM_CACTVS_ROTATABLE_BOND>
17
> <PUBCHEM_CACTVS_SUBSKEYS>
AAADcfB/OABAAAAAAAAAAAAAAAAAAAAAAAAwYAAAAAAAAAABQAAAHgQQSAAADWzB2AQyCYPABgKIAiHSGHBCABAgAAAIiJmIAIgKYDKAkTGcYAAklgCYiAeYyICOEAAAAAAAAAAgAAAAAAAAAAAAAAAAAA==
> <PUBCHEM_IUPAC_OPENEYE_NAME>
(2S)-6-[[(2S)-2-[tert-butoxycarbonyl(methyl)amino]-3-phenyl-propanoyl]amino]-2-[isobutyl(p-tolylsulfonyl)amino]hexanoic acid
> <PUBCHEM_IUPAC_CAS_NAME>
(2S)-6-[[(2S)-2-[methyl-[(2-methylpropan-2-yl)oxy-oxomethyl]amino]-1-oxo-3-phenylpropyl]amino]-2-[(4-methylphenyl)sulfonyl-(2-methylpropyl)amino]hexanoic acid
> <PUBCHEM_IUPAC_NAME_MARKUP>
(2<I>S</I>)-6-[[(2<I>S</I>)-2-[methyl-[(2-methylpropan-2-yl)oxycarbonyl]amino]-3-phenylpropanoyl]amino]-2-[(4-methylphenyl)sulfonyl-(2-methylpropyl)amino]hexanoic acid
> <PUBCHEM_IUPAC_NAME>
(2S)-6-[[(2S)-2-[methyl-[(2-methylpropan-2-yl)oxycarbonyl]amino]-3-phenylpropanoyl]amino]-2-[(4-methylphenyl)sulfonyl-(2-methylpropyl)amino]hexanoic acid
> <PUBCHEM_IUPAC_SYSTEMATIC_NAME>
(2S)-6-[[(2S)-2-[methyl-[(2-methylpropan-2-yl)oxycarbonyl]amino]-3-phenyl-propanoyl]amino]-2-[(4-methylphenyl)sulfonyl-(2-methylpropyl)amino]hexanoic acid
> <PUBCHEM_IUPAC_TRADITIONAL_NAME>
(2S)-6-[[(2S)-2-[tert-butoxycarbonyl(methyl)amino]-3-phenyl-propanoyl]amino]-2-[isobutyl(tosyl)amino]hexanoic acid
> <PUBCHEM_IUPAC_INCHI>
InChI=1S/C32H47N3O7S/c1-23(2)22-35(43(40,41)26-18-16-24(3)17-19-26)27(30(37)38)15-11-12-20-33-29(36)28(21-25-13-9-8-10-14-25)34(7)31(39)42-32(4,5)6/h8-10,13-14,16-19,23,27-28H,11-12,15,20-22H2,1-7H3,(H,33,36)(H,37,38)/t27-,28-/m0/s1
> <PUBCHEM_IUPAC_INCHIKEY>
KYUQSPIELIDPSC-NSOVKSMOSA-N
> <PUBCHEM_XLOGP3_AA>
5.7
> <PUBCHEM_EXACT_MASS>
617.31347202
> <PUBCHEM_MOLECULAR_FORMULA>
C32H47N3O7S
> <PUBCHEM_MOLECULAR_WEIGHT>
617.8
> <PUBCHEM_OPENEYE_CAN_SMILES>
CC1=CC=C(C=C1)S(=O)(=O)N(CC(C)C)C(CCCCNC(=O)C(CC2=CC=CC=C2)N(C)C(=O)OC(C)(C)C)C(=O)O
> <PUBCHEM_OPENEYE_ISO_SMILES>
CC1=CC=C(C=C1)S(=O)(=O)N(CC(C)C)[C@@H](CCCCNC(=O)[C@H](CC2=CC=CC=C2)N(C)C(=O)OC(C)(C)C)C(=O)O
> <PUBCHEM_CACTVS_TPSA>
142
> <PUBCHEM_MONOISOTOPIC_WEIGHT>
617.31347202
> <PUBCHEM_TOTAL_CHARGE>
0
> <PUBCHEM_HEAVY_ATOM_COUNT>
43
> <PUBCHEM_ATOM_DEF_STEREO_COUNT>
2
> <PUBCHEM_ATOM_UDEF_STEREO_COUNT>
0
> <PUBCHEM_BOND_DEF_STEREO_COUNT>
0
> <PUBCHEM_BOND_UDEF_STEREO_COUNT>
0
> <PUBCHEM_ISOTOPIC_ATOM_COUNT>
0
> <PUBCHEM_COMPONENT_COUNT>
1
> <PUBCHEM_CACTVS_TAUTO_COUNT>
-1
> <PUBCHEM_COORDINATE_TYPE>
1
5
255
> <PUBCHEM_BONDANNOTATIONS>
23  11  5
20  25  8
20  26  8
25  28  8
26  29  8
28  30  8
29  30  8
31  36  8
31  37  8
36  41  8
37  42  8
41  43  8
42  43  8
12  9  6
$$$$
