508618
  -OEChem-10302200282D
 93 96  0     1  0  0  0  0  0999 V2000
    9.3532   -4.0308    0.0000 S   0  0  0  0  0  0  0  0  0  0  0  0
    5.6103    4.0308    0.0000 S   0  0  0  0  0  0  0  0  0  0  0  0
   10.6423   -2.8741    0.0000 O   0  0  0  0  0  0  0  0  0  0  0  0
    8.6089   -4.6987    0.0000 O   0  0  0  0  0  0  0  0  0  0  0  0
   10.0975   -3.3630    0.0000 O   0  0  0  0  0  0  0  0  0  0  0  0
    6.3246    0.6412    0.0000 O   0  0  0  0  0  0  0  0  0  0  0  0
    6.3546    4.6987    0.0000 O   0  0  0  0  0  0  0  0  0  0  0  0
    4.8660    3.3630    0.0000 O   0  0  0  0  0  0  0  0  0  0  0  0
    8.6853   -3.2865    0.0000 N   0  0  3  0  0  0  0  0  0  0  0  0
    7.6138    1.7979    0.0000 N   0  0  0  0  0  0  0  0  0  0  0  0
    6.2781    3.2865    0.0000 N   0  0  0  0  0  0  0  0  0  0  0  0
    4.6783   -0.4302    0.0000 N   0  0  0  0  0  0  0  0  0  0  0  0
    8.9960   -2.3360    0.0000 C   0  0  1  0  0  0  0  0  0  0  0  0
    8.3282   -1.5917    0.0000 C   0  0  0  0  0  0  0  0  0  0  0  0
    7.7068   -3.4928    0.0000 C   0  0  0  0  0  0  0  0  0  0  0  0
    8.6388   -0.6412    0.0000 C   0  0  0  0  0  0  0  0  0  0  0  0
    7.0390   -2.7484    0.0000 C   0  0  0  0  0  0  0  0  0  0  0  0
    9.9745   -2.1298    0.0000 C   0  0  0  0  0  0  0  0  0  0  0  0
    7.9710    0.1031    0.0000 C   0  0  0  0  0  0  0  0  0  0  0  0
    4.9889    2.1298    0.0000 C   0  0  0  0  0  0  0  0  0  0  0  0
    5.9674    2.3360    0.0000 C   0  0  1  0  0  0  0  0  0  0  0  0
    4.6783    1.1793    0.0000 C   0  0  3  0  0  0  0  0  0  0  0  0
    8.2816    1.0536    0.0000 C   0  0  0  0  0  0  0  0  0  0  0  0
   10.0210   -4.7751    0.0000 C   0  0  0  0  0  0  0  0  0  0  0  0
    6.0605   -2.9547    0.0000 C   0  0  0  0  0  0  0  0  0  0  0  0
    7.3496   -1.7979    0.0000 C   0  0  0  0  0  0  0  0  0  0  0  0
    3.7320    0.8745    0.0000 C   0  0  0  0  0  0  0  0  0  0  0  0
    6.6353    1.5917    0.0000 C   0  0  0  0  0  0  0  0  0  0  0  0
    5.2619    0.3745    0.0000 C   0  0  0  0  0  0  0  0  0  0  0  0
    3.7320   -0.1255    0.0000 C   0  0  0  0  0  0  0  0  0  0  0  0
    9.7104   -5.7257    0.0000 C   0  0  0  0  0  0  0  0  0  0  0  0
   10.9995   -4.5689    0.0000 C   0  0  0  0  0  0  0  0  0  0  0  0
    2.8660    1.3745    0.0000 C   0  0  0  0  0  0  0  0  0  0  0  0
    2.8660   -0.6255    0.0000 C   0  0  0  0  0  0  0  0  0  0  0  0
   10.3782   -6.4700    0.0000 C   0  0  0  0  0  0  0  0  0  0  0  0
   11.6674   -5.3132    0.0000 C   0  0  0  0  0  0  0  0  0  0  0  0
   11.3567   -6.2637    0.0000 C   0  0  0  0  0  0  0  0  0  0  0  0
    4.9424    4.7751    0.0000 C   0  0  0  0  0  0  0  0  0  0  0  0
    2.0000    0.8745    0.0000 C   0  0  0  0  0  0  0  0  0  0  0  0
    2.0000   -0.1255    0.0000 C   0  0  0  0  0  0  0  0  0  0  0  0
   12.0246   -7.0080    0.0000 C   0  0  0  0  0  0  0  0  0  0  0  0
    3.9639    4.5689    0.0000 C   0  0  0  0  0  0  0  0  0  0  0  0
    5.2531    5.7257    0.0000 C   0  0  0  0  0  0  0  0  0  0  0  0
    3.2961    5.3132    0.0000 C   0  0  0  0  0  0  0  0  0  0  0  0
    4.5852    6.4700    0.0000 C   0  0  0  0  0  0  0  0  0  0  0  0
    3.6067    6.2637    0.0000 C   0  0  0  0  0  0  0  0  0  0  0  0
    2.9389    7.0080    0.0000 C   0  0  0  0  0  0  0  0  0  0  0  0
    9.4101   -2.7975    0.0000 H   0  0  0  0  0  0  0  0  0  0  0  0
    7.7812   -1.2997    0.0000 H   0  0  0  0  0  0  0  0  0  0  0  0
    7.9456   -2.0796    0.0000 H   0  0  0  0  0  0  0  0  0  0  0  0
    7.1805   -3.8204    0.0000 H   0  0  0  0  0  0  0  0  0  0  0  0
    7.9381   -4.0680    0.0000 H   0  0  0  0  0  0  0  0  0  0  0  0
    9.1857   -0.9332    0.0000 H   0  0  0  0  0  0  0  0  0  0  0  0
    9.0214   -0.1533    0.0000 H   0  0  0  0  0  0  0  0  0  0  0  0
    7.6457   -2.6206    0.0000 H   0  0  0  0  0  0  0  0  0  0  0  0
   10.5009   -1.8022    0.0000 H   0  0  0  0  0  0  0  0  0  0  0  0
    9.7432   -1.5545    0.0000 H   0  0  0  0  0  0  0  0  0  0  0  0
    7.4240    0.3951    0.0000 H   0  0  0  0  0  0  0  0  0  0  0  0
    7.5884   -0.3848    0.0000 H   0  0  0  0  0  0  0  0  0  0  0  0
    4.9684    2.7494    0.0000 H   0  0  0  0  0  0  0  0  0  0  0  0
    4.3751    2.2172    0.0000 H   0  0  0  0  0  0  0  0  0  0  0  0
    5.5534    2.7975    0.0000 H   0  0  0  0  0  0  0  0  0  0  0  0
    5.2908    1.2755    0.0000 H   0  0  0  0  0  0  0  0  0  0  0  0
    8.8286    0.7616    0.0000 H   0  0  0  0  0  0  0  0  0  0  0  0
    8.6642    1.5415    0.0000 H   0  0  0  0  0  0  0  0  0  0  0  0
    5.9326   -2.3480    0.0000 H   0  0  0  0  0  0  0  0  0  0  0  0
    5.4538   -3.0825    0.0000 H   0  0  0  0  0  0  0  0  0  0  0  0
    6.1883   -3.5613    0.0000 H   0  0  0  0  0  0  0  0  0  0  0  0
    7.9390   -1.9905    0.0000 H   0  0  0  0  0  0  0  0  0  0  0  0
    7.5423   -1.2086    0.0000 H   0  0  0  0  0  0  0  0  0  0  0  0
    6.7603   -1.6053    0.0000 H   0  0  0  0  0  0  0  0  0  0  0  0
    7.8064    2.3872    0.0000 H   0  0  0  0  0  0  0  0  0  0  0  0
    6.8848    3.4144    0.0000 H   0  0  0  0  0  0  0  0  0  0  0  0
    5.8819    0.3745    0.0000 H   0  0  0  0  0  0  0  0  0  0  0  0
   11.2490   -2.7462    0.0000 H   0  0  0  0  0  0  0  0  0  0  0  0
    9.1037   -5.8535    0.0000 H   0  0  0  0  0  0  0  0  0  0  0  0
   11.1921   -3.9796    0.0000 H   0  0  0  0  0  0  0  0  0  0  0  0
    2.8660    1.9945    0.0000 H   0  0  0  0  0  0  0  0  0  0  0  0
    2.8660   -1.2455    0.0000 H   0  0  0  0  0  0  0  0  0  0  0  0
   10.1856   -7.0593    0.0000 H   0  0  0  0  0  0  0  0  0  0  0  0
   12.2740   -5.1854    0.0000 H   0  0  0  0  0  0  0  0  0  0  0  0
    1.4631    1.1845    0.0000 H   0  0  0  0  0  0  0  0  0  0  0  0
    1.4631   -0.4355    0.0000 H   0  0  0  0  0  0  0  0  0  0  0  0
   11.5631   -7.4221    0.0000 H   0  0  0  0  0  0  0  0  0  0  0  0
   12.4386   -7.4695    0.0000 H   0  0  0  0  0  0  0  0  0  0  0  0
   12.4860   -6.5940    0.0000 H   0  0  0  0  0  0  0  0  0  0  0  0
    3.7713    3.9796    0.0000 H   0  0  0  0  0  0  0  0  0  0  0  0
    5.8598    5.8535    0.0000 H   0  0  0  0  0  0  0  0  0  0  0  0
    2.6894    5.1854    0.0000 H   0  0  0  0  0  0  0  0  0  0  0  0
    4.7778    7.0593    0.0000 H   0  0  0  0  0  0  0  0  0  0  0  0
    3.4004    7.4221    0.0000 H   0  0  0  0  0  0  0  0  0  0  0  0
    2.5248    7.4695    0.0000 H   0  0  0  0  0  0  0  0  0  0  0  0
    2.4774    6.5940    0.0000 H   0  0  0  0  0  0  0  0  0  0  0  0
  1  4  2  0  0  0  0
  1  5  2  0  0  0  0
  1  9  1  0  0  0  0
  1 24  1  0  0  0  0
  2  7  2  0  0  0  0
  2  8  2  0  0  0  0
  2 11  1  0  0  0  0
  2 38  1  0  0  0  0
  3 18  1  0  0  0  0
  3 75  1  0  0  0  0
  6 28  2  0  0  0  0
 13  9  1  1  0  0  0
  9 15  1  0  0  0  0
 10 23  1  0  0  0  0
 10 28  1  0  0  0  0
 10 72  1  0  0  0  0
 21 11  1  6  0  0  0
 11 73  1  0  0  0  0
 12 29  2  0  0  0  0
 12 30  1  0  0  0  0
 13 14  1  0  0  0  0
 13 18  1  0  0  0  0
 13 48  1  0  0  0  0
 14 16  1  0  0  0  0
 14 49  1  0  0  0  0
 14 50  1  0  0  0  0
 15 17  1  0  0  0  0
 15 51  1  0  0  0  0
 15 52  1  0  0  0  0
 16 19  1  0  0  0  0
 16 53  1  0  0  0  0
 16 54  1  0  0  0  0
 17 25  1  0  0  0  0
 17 26  1  0  0  0  0
 17 55  1  0  0  0  0
 18 56  1  0  0  0  0
 18 57  1  0  0  0  0
 19 23  1  0  0  0  0
 19 58  1  0  0  0  0
 19 59  1  0  0  0  0
 20 21  1  0  0  0  0
 20 22  1  0  0  0  0
 20 60  1  0  0  0  0
 20 61  1  0  0  0  0
 21 28  1  0  0  0  0
 21 62  1  0  0  0  0
 22 27  1  0  0  0  0
 22 29  1  0  0  0  0
 22 63  1  0  0  0  0
 23 64  1  0  0  0  0
 23 65  1  0  0  0  0
 24 31  2  0  0  0  0
 24 32  1  0  0  0  0
 25 66  1  0  0  0  0
 25 67  1  0  0  0  0
 25 68  1  0  0  0  0
 26 69  1  0  0  0  0
 26 70  1  0  0  0  0
 26 71  1  0  0  0  0
 27 30  1  0  0  0  0
 27 33  2  0  0  0  0
 29 74  1  0  0  0  0
 30 34  2  0  0  0  0
 31 35  1  0  0  0  0
 31 76  1  0  0  0  0
 32 36  2  0  0  0  0
 32 77  1  0  0  0  0
 33 39  1  0  0  0  0
 33 78  1  0  0  0  0
 34 40  1  0  0  0  0
 34 79  1  0  0  0  0
 35 37  2  0  0  0  0
 35 80  1  0  0  0  0
 36 37  1  0  0  0  0
 36 81  1  0  0  0  0
 37 41  1  0  0  0  0
 38 42  2  0  0  0  0
 38 43  1  0  0  0  0
 39 40  2  0  0  0  0
 39 82  1  0  0  0  0
 40 83  1  0  0  0  0
 41 84  1  0  0  0  0
 41 85  1  0  0  0  0
 41 86  1  0  0  0  0
 42 44  1  0  0  0  0
 42 87  1  0  0  0  0
 43 45  2  0  0  0  0
 43 88  1  0  0  0  0
 44 46  2  0  0  0  0
 44 89  1  0  0  0  0
 45 46  1  0  0  0  0
 45 90  1  0  0  0  0
 46 47  1  0  0  0  0
 47 91  1  0  0  0  0
 47 92  1  0  0  0  0
 47 93  1  0  0  0  0
M  END
> <PUBCHEM_COMPOUND_CID>
508618
> <PUBCHEM_COMPOUND_CANONICALIZED>
1
> <PUBCHEM_CACTVS_COMPLEXITY>
1220
> <PUBCHEM_CACTVS_HBOND_ACCEPTOR>
9
> <PUBCHEM_CACTVS_HBOND_DONOR>
3
> <PUBCHEM_CACTVS_ROTATABLE_BOND>
17
> <PUBCHEM_CACTVS_SUBSKEYS>
AAADcfB/uABgAAAAAAAAAAAAAAAAAQAAAAAwYMAAAAAAAEABUAAAHgQQSAAADSjh2AYywYLAAgKoAjVzVHDCABAgAgAIiJm4ZIgKcDKAkZGUYABklgCYyAeYyMCOkAAAAAACAAAgAAAAAAQAAAAAAAAAAA==
> <PUBCHEM_IUPAC_OPENEYE_NAME>
(2S)-N-[(5S)-6-hydroxy-5-[isobutyl(p-tolylsulfonyl)amino]hexyl]-3-(3H-indol-3-yl)-2-(p-tolylsulfonylamino)propanamide
> <PUBCHEM_IUPAC_CAS_NAME>
(2S)-N-[(5S)-6-hydroxy-5-[(4-methylphenyl)sulfonyl-(2-methylpropyl)amino]hexyl]-3-(3H-indol-3-yl)-2-[(4-methylphenyl)sulfonylamino]propanamide
> <PUBCHEM_IUPAC_NAME_MARKUP>
(2<I>S</I>)-<I>N</I>-[(5<I>S</I>)-6-hydroxy-5-[(4-methylphenyl)sulfonyl-(2-methylpropyl)amino]hexyl]-3-(3<I>H</I>-indol-3-yl)-2-[(4-methylphenyl)sulfonylamino]propanamide
> <PUBCHEM_IUPAC_NAME>
(2S)-N-[(5S)-6-hydroxy-5-[(4-methylphenyl)sulfonyl-(2-methylpropyl)amino]hexyl]-3-(3H-indol-3-yl)-2-[(4-methylphenyl)sulfonylamino]propanamide
> <PUBCHEM_IUPAC_SYSTEMATIC_NAME>
(2S)-3-(3H-indol-3-yl)-2-[(4-methylphenyl)sulfonylamino]-N-[(5S)-5-[(4-methylphenyl)sulfonyl-(2-methylpropyl)amino]-6-oxidanyl-hexyl]propanamide
> <PUBCHEM_IUPAC_TRADITIONAL_NAME>
(2S)-N-[(5S)-6-hydroxy-5-[isobutyl(tosyl)amino]hexyl]-3-(3H-indol-3-yl)-2-(tosylamino)propionamide
> <PUBCHEM_IUPAC_INCHI>
InChI=1S/C35H46N4O6S2/c1-25(2)23-39(47(44,45)31-18-14-27(4)15-19-31)29(24-40)9-7-8-20-36-35(41)34(21-28-22-37-33-11-6-5-10-32(28)33)38-46(42,43)30-16-12-26(3)13-17-30/h5-6,10-19,22,25,28-29,34,38,40H,7-9,20-21,23-24H2,1-4H3,(H,36,41)/t28?,29-,34-/m0/s1
> <PUBCHEM_IUPAC_INCHIKEY>
KOOBBSVGEZTIKP-XBVKBMTLSA-N
> <PUBCHEM_XLOGP3_AA>
4.8
> <PUBCHEM_EXACT_MASS>
682.28587755
> <PUBCHEM_MOLECULAR_FORMULA>
C35H46N4O6S2
> <PUBCHEM_MOLECULAR_WEIGHT>
682.9
> <PUBCHEM_OPENEYE_CAN_SMILES>
CC1=CC=C(C=C1)S(=O)(=O)NC(CC2C=NC3=CC=CC=C23)C(=O)NCCCCC(CO)N(CC(C)C)S(=O)(=O)C4=CC=C(C=C4)C
> <PUBCHEM_OPENEYE_ISO_SMILES>
CC1=CC=C(C=C1)S(=O)(=O)N[C@@H](CC2C=NC3=CC=CC=C23)C(=O)NCCCC[C@@H](CO)N(CC(C)C)S(=O)(=O)C4=CC=C(C=C4)C
> <PUBCHEM_CACTVS_TPSA>
162
> <PUBCHEM_MONOISOTOPIC_WEIGHT>
682.28587755
> <PUBCHEM_TOTAL_CHARGE>
0
> <PUBCHEM_HEAVY_ATOM_COUNT>
47
> <PUBCHEM_ATOM_DEF_STEREO_COUNT>
2
> <PUBCHEM_ATOM_UDEF_STEREO_COUNT>
1
> <PUBCHEM_BOND_DEF_STEREO_COUNT>
0
> <PUBCHEM_BOND_UDEF_STEREO_COUNT>
0
> <PUBCHEM_ISOTOPIC_ATOM_COUNT>
0
> <PUBCHEM_COMPONENT_COUNT>
1
> <PUBCHEM_CACTVS_TAUTO_COUNT>
-1
> <PUBCHEM_COORDINATE_TYPE>
1
5
255
> <PUBCHEM_BONDANNOTATIONS>
21  11  6
22  20  3
24  31  8
24  32  8
27  30  8
27  33  8
30  34  8
31  35  8
32  36  8
33  39  8
34  40  8
35  37  8
36  37  8
38  42  8
38  43  8
39  40  8
42  44  8
43  45  8
44  46  8
45  46  8
13  9  5
$$$$
