508659
  -OEChem-10302200282D
 84 85  0     1  0  0  0  0  0999 V2000
    3.7320   -3.0194    0.0000 S   0  0  0  0  0  0  0  0  0  0  0  0
    5.8301    7.0194    0.0000 S   0  0  0  0  0  0  0  0  0  0  0  0
    6.3301   -1.5194    0.0000 O   0  0  0  0  0  0  0  0  0  0  0  0
    4.7320   -3.0194    0.0000 O   0  0  0  0  0  0  0  0  0  0  0  0
    2.7320   -3.0194    0.0000 O   0  0  0  0  0  0  0  0  0  0  0  0
    8.0622    2.4806    0.0000 O   0  0  0  0  0  0  0  0  0  0  0  0
    9.7942    4.4806    0.0000 O   0  0  0  0  0  0  0  0  0  0  0  0
    8.9282    2.9806    0.0000 O   0  0  0  0  0  0  0  0  0  0  0  0
    3.7320   -2.0194    0.0000 N   0  0  3  0  0  0  0  0  0  0  0  0
    6.3301    2.4806    0.0000 N   0  0  0  0  0  0  0  0  0  0  0  0
    8.0622    4.4806    0.0000 N   0  0  0  0  0  0  0  0  0  0  0  0
    7.1391    6.0684    0.0000 N   0  0  0  0  0  0  0  0  0  0  0  0
    4.5981   -1.5194    0.0000 C   0  0  1  0  0  0  0  0  0  0  0  0
    4.5981   -0.5194    0.0000 C   0  0  0  0  0  0  0  0  0  0  0  0
    2.8660   -1.5194    0.0000 C   0  0  0  0  0  0  0  0  0  0  0  0
    5.4641   -0.0194    0.0000 C   0  0  0  0  0  0  0  0  0  0  0  0
    2.8660   -0.5194    0.0000 C   0  0  0  0  0  0  0  0  0  0  0  0
    5.4641   -2.0194    0.0000 C   0  0  0  0  0  0  0  0  0  0  0  0
    5.4641    0.9806    0.0000 C   0  0  0  0  0  0  0  0  0  0  0  0
    3.7320   -4.0194    0.0000 C   0  0  0  0  0  0  0  0  0  0  0  0
    2.0000   -0.0194    0.0000 C   0  0  0  0  0  0  0  0  0  0  0  0
    3.7320   -0.0194    0.0000 C   0  0  0  0  0  0  0  0  0  0  0  0
    6.3301    1.4806    0.0000 C   0  0  0  0  0  0  0  0  0  0  0  0
    2.8660   -4.5194    0.0000 C   0  0  0  0  0  0  0  0  0  0  0  0
    4.5981   -4.5194    0.0000 C   0  0  0  0  0  0  0  0  0  0  0  0
    7.1962    3.9806    0.0000 C   0  0  2  0  0  0  0  0  0  0  0  0
    7.1962    2.9806    0.0000 C   0  0  0  0  0  0  0  0  0  0  0  0
    2.8660   -5.5194    0.0000 C   0  0  0  0  0  0  0  0  0  0  0  0
    4.5981   -5.5194    0.0000 C   0  0  0  0  0  0  0  0  0  0  0  0
    3.7320   -6.0194    0.0000 C   0  0  0  0  0  0  0  0  0  0  0  0
    6.3301    4.4806    0.0000 C   0  0  0  0  0  0  0  0  0  0  0  0
    3.7320   -7.0194    0.0000 C   0  0  0  0  0  0  0  0  0  0  0  0
   10.6603    3.9806    0.0000 C   0  0  0  0  0  0  0  0  0  0  0  0
    6.3301    5.4806    0.0000 C   0  0  0  0  0  0  0  0  0  0  0  0
    8.9282    3.9806    0.0000 C   0  0  0  0  0  0  0  0  0  0  0  0
   11.5263    3.4806    0.0000 C   0  0  0  0  0  0  0  0  0  0  0  0
   11.1603    4.8466    0.0000 C   0  0  0  0  0  0  0  0  0  0  0  0
   10.1603    3.1146    0.0000 C   0  0  0  0  0  0  0  0  0  0  0  0
    5.5211    6.0684    0.0000 C   0  0  0  0  0  0  0  0  0  0  0  0
    6.8301    7.0194    0.0000 C   0  0  0  0  0  0  0  0  0  0  0  0
    4.5981   -2.1394    0.0000 H   0  0  0  0  0  0  0  0  0  0  0  0
    4.3860    0.0632    0.0000 H   0  0  0  0  0  0  0  0  0  0  0  0
    3.9875   -0.6271    0.0000 H   0  0  0  0  0  0  0  0  0  0  0  0
    2.2554   -1.4118    0.0000 H   0  0  0  0  0  0  0  0  0  0  0  0
    2.6540   -2.1020    0.0000 H   0  0  0  0  0  0  0  0  0  0  0  0
    5.6762   -0.6020    0.0000 H   0  0  0  0  0  0  0  0  0  0  0  0
    6.0747    0.0882    0.0000 H   0  0  0  0  0  0  0  0  0  0  0  0
    2.8660    0.1006    0.0000 H   0  0  0  0  0  0  0  0  0  0  0  0
    5.0656   -2.4944    0.0000 H   0  0  0  0  0  0  0  0  0  0  0  0
    5.8626   -2.4944    0.0000 H   0  0  0  0  0  0  0  0  0  0  0  0
    5.2520    1.5632    0.0000 H   0  0  0  0  0  0  0  0  0  0  0  0
    4.8535    0.8729    0.0000 H   0  0  0  0  0  0  0  0  0  0  0  0
    2.3100    0.5175    0.0000 H   0  0  0  0  0  0  0  0  0  0  0  0
    1.4631    0.2906    0.0000 H   0  0  0  0  0  0  0  0  0  0  0  0
    1.6900   -0.5564    0.0000 H   0  0  0  0  0  0  0  0  0  0  0  0
    4.0420   -0.5564    0.0000 H   0  0  0  0  0  0  0  0  0  0  0  0
    4.2690    0.2906    0.0000 H   0  0  0  0  0  0  0  0  0  0  0  0
    3.4220    0.5175    0.0000 H   0  0  0  0  0  0  0  0  0  0  0  0
    6.5422    0.8980    0.0000 H   0  0  0  0  0  0  0  0  0  0  0  0
    6.9407    1.5882    0.0000 H   0  0  0  0  0  0  0  0  0  0  0  0
    6.8671   -1.8294    0.0000 H   0  0  0  0  0  0  0  0  0  0  0  0
    2.3291   -4.2094    0.0000 H   0  0  0  0  0  0  0  0  0  0  0  0
    5.1350   -4.2094    0.0000 H   0  0  0  0  0  0  0  0  0  0  0  0
    5.7932    2.7906    0.0000 H   0  0  0  0  0  0  0  0  0  0  0  0
    7.1962    4.6006    0.0000 H   0  0  0  0  0  0  0  0  0  0  0  0
    2.3291   -5.8294    0.0000 H   0  0  0  0  0  0  0  0  0  0  0  0
    5.1350   -5.8294    0.0000 H   0  0  0  0  0  0  0  0  0  0  0  0
    5.7196    4.5882    0.0000 H   0  0  0  0  0  0  0  0  0  0  0  0
    6.1181    3.8980    0.0000 H   0  0  0  0  0  0  0  0  0  0  0  0
    8.0622    5.1006    0.0000 H   0  0  0  0  0  0  0  0  0  0  0  0
    3.1120   -7.0194    0.0000 H   0  0  0  0  0  0  0  0  0  0  0  0
    3.7320   -7.6394    0.0000 H   0  0  0  0  0  0  0  0  0  0  0  0
    4.3520   -7.0194    0.0000 H   0  0  0  0  0  0  0  0  0  0  0  0
   11.2163    2.9436    0.0000 H   0  0  0  0  0  0  0  0  0  0  0  0
   12.0632    3.1706    0.0000 H   0  0  0  0  0  0  0  0  0  0  0  0
   11.8363    4.0175    0.0000 H   0  0  0  0  0  0  0  0  0  0  0  0
   11.6972    4.5366    0.0000 H   0  0  0  0  0  0  0  0  0  0  0  0
   11.4703    5.3835    0.0000 H   0  0  0  0  0  0  0  0  0  0  0  0
   10.6233    5.1566    0.0000 H   0  0  0  0  0  0  0  0  0  0  0  0
    9.6233    3.4246    0.0000 H   0  0  0  0  0  0  0  0  0  0  0  0
    9.8503    2.5776    0.0000 H   0  0  0  0  0  0  0  0  0  0  0  0
   10.6972    2.8046    0.0000 H   0  0  0  0  0  0  0  0  0  0  0  0
    4.9315    5.8768    0.0000 H   0  0  0  0  0  0  0  0  0  0  0  0
    7.1946    7.5210    0.0000 H   0  0  0  0  0  0  0  0  0  0  0  0
  1  4  2  0  0  0  0
  1  5  2  0  0  0  0
  1  9  1  0  0  0  0
  1 20  1  0  0  0  0
  2 39  1  0  0  0  0
  2 40  1  0  0  0  0
  3 18  1  0  0  0  0
  3 61  1  0  0  0  0
  6 27  2  0  0  0  0
  7 33  1  0  0  0  0
  7 35  1  0  0  0  0
  8 35  2  0  0  0  0
 13  9  1  1  0  0  0
  9 15  1  0  0  0  0
 10 23  1  0  0  0  0
 10 27  1  0  0  0  0
 10 64  1  0  0  0  0
 26 11  1  6  0  0  0
 11 35  1  0  0  0  0
 11 70  1  0  0  0  0
 12 34  1  0  0  0  0
 12 40  2  0  0  0  0
 13 14  1  0  0  0  0
 13 18  1  0  0  0  0
 13 41  1  0  0  0  0
 14 16  1  0  0  0  0
 14 42  1  0  0  0  0
 14 43  1  0  0  0  0
 15 17  1  0  0  0  0
 15 44  1  0  0  0  0
 15 45  1  0  0  0  0
 16 19  1  0  0  0  0
 16 46  1  0  0  0  0
 16 47  1  0  0  0  0
 17 21  1  0  0  0  0
 17 22  1  0  0  0  0
 17 48  1  0  0  0  0
 18 49  1  0  0  0  0
 18 50  1  0  0  0  0
 19 23  1  0  0  0  0
 19 51  1  0  0  0  0
 19 52  1  0  0  0  0
 20 24  2  0  0  0  0
 20 25  1  0  0  0  0
 21 53  1  0  0  0  0
 21 54  1  0  0  0  0
 21 55  1  0  0  0  0
 22 56  1  0  0  0  0
 22 57  1  0  0  0  0
 22 58  1  0  0  0  0
 23 59  1  0  0  0  0
 23 60  1  0  0  0  0
 24 28  1  0  0  0  0
 24 62  1  0  0  0  0
 25 29  2  0  0  0  0
 25 63  1  0  0  0  0
 26 27  1  0  0  0  0
 26 31  1  0  0  0  0
 26 65  1  0  0  0  0
 28 30  2  0  0  0  0
 28 66  1  0  0  0  0
 29 30  1  0  0  0  0
 29 67  1  0  0  0  0
 30 32  1  0  0  0  0
 31 34  1  0  0  0  0
 31 68  1  0  0  0  0
 31 69  1  0  0  0  0
 32 71  1  0  0  0  0
 32 72  1  0  0  0  0
 32 73  1  0  0  0  0
 33 36  1  0  0  0  0
 33 37  1  0  0  0  0
 33 38  1  0  0  0  0
 34 39  2  0  0  0  0
 36 74  1  0  0  0  0
 36 75  1  0  0  0  0
 36 76  1  0  0  0  0
 37 77  1  0  0  0  0
 37 78  1  0  0  0  0
 37 79  1  0  0  0  0
 38 80  1  0  0  0  0
 38 81  1  0  0  0  0
 38 82  1  0  0  0  0
 39 83  1  0  0  0  0
 40 84  1  0  0  0  0
M  END
> <PUBCHEM_COMPOUND_CID>
508659
> <PUBCHEM_COMPOUND_CANONICALIZED>
1
> <PUBCHEM_CACTVS_COMPLEXITY>
882
> <PUBCHEM_CACTVS_HBOND_ACCEPTOR>
9
> <PUBCHEM_CACTVS_HBOND_DONOR>
3
> <PUBCHEM_CACTVS_ROTATABLE_BOND>
17
> <PUBCHEM_CACTVS_SUBSKEYS>
AAADcfB7uABgAAAAAAAAAAAAAAAAAWAAAAAwAAAAAAAAAAABwAAAHgQQSAAADWzl3ga2iZLIFgqsAyVzXHBC8LBxCjgIyJ24IIkKcDKg0TGcYAAklgCYiAecwAAOEAAAAAAAAAAgAAAAAAAAAAAAAAAAAA==
> <PUBCHEM_IUPAC_OPENEYE_NAME>
tert-butyl N-[(1S)-2-[[(5S)-6-hydroxy-5-[isobutyl(p-tolylsulfonyl)amino]hexyl]amino]-2-oxo-1-(thiazol-4-ylmethyl)ethyl]carbamate
> <PUBCHEM_IUPAC_CAS_NAME>
N-[(2S)-1-[[(5S)-6-hydroxy-5-[(4-methylphenyl)sulfonyl-(2-methylpropyl)amino]hexyl]amino]-1-oxo-3-(4-thiazolyl)propan-2-yl]carbamic acid tert-butyl ester
> <PUBCHEM_IUPAC_NAME_MARKUP>
<I>tert</I>-butyl <I>N</I>-[(2<I>S</I>)-1-[[(5<I>S</I>)-6-hydroxy-5-[(4-methylphenyl)sulfonyl-(2-methylpropyl)amino]hexyl]amino]-1-oxo-3-(1,3-thiazol-4-yl)propan-2-yl]carbamate
> <PUBCHEM_IUPAC_NAME>
tert-butyl N-[(2S)-1-[[(5S)-6-hydroxy-5-[(4-methylphenyl)sulfonyl-(2-methylpropyl)amino]hexyl]amino]-1-oxo-3-(1,3-thiazol-4-yl)propan-2-yl]carbamate
> <PUBCHEM_IUPAC_SYSTEMATIC_NAME>
tert-butyl N-[(2S)-1-[[(5S)-5-[(4-methylphenyl)sulfonyl-(2-methylpropyl)amino]-6-oxidanyl-hexyl]amino]-1-oxidanylidene-3-(1,3-thiazol-4-yl)propan-2-yl]carbamate
> <PUBCHEM_IUPAC_TRADITIONAL_NAME>
N-[(1S)-2-[[(5S)-6-hydroxy-5-[isobutyl(tosyl)amino]hexyl]amino]-2-keto-1-(thiazol-4-ylmethyl)ethyl]carbamic acid tert-butyl ester
> <PUBCHEM_IUPAC_INCHI>
InChI=1S/C28H44N4O6S2/c1-20(2)16-32(40(36,37)24-12-10-21(3)11-13-24)23(17-33)9-7-8-14-29-26(34)25(15-22-18-39-19-30-22)31-27(35)38-28(4,5)6/h10-13,18-20,23,25,33H,7-9,14-17H2,1-6H3,(H,29,34)(H,31,35)/t23-,25-/m0/s1
> <PUBCHEM_IUPAC_INCHIKEY>
FPSNTTUQLWVQOM-ZCYQVOJMSA-N
> <PUBCHEM_XLOGP3_AA>
4.3
> <PUBCHEM_EXACT_MASS>
596.27022748
> <PUBCHEM_MOLECULAR_FORMULA>
C28H44N4O6S2
> <PUBCHEM_MOLECULAR_WEIGHT>
596.8
> <PUBCHEM_OPENEYE_CAN_SMILES>
CC1=CC=C(C=C1)S(=O)(=O)N(CC(C)C)C(CCCCNC(=O)C(CC2=CSC=N2)NC(=O)OC(C)(C)C)CO
> <PUBCHEM_OPENEYE_ISO_SMILES>
CC1=CC=C(C=C1)S(=O)(=O)N(CC(C)C)[C@@H](CCCCNC(=O)[C@H](CC2=CSC=N2)NC(=O)OC(C)(C)C)CO
> <PUBCHEM_CACTVS_TPSA>
175
> <PUBCHEM_MONOISOTOPIC_WEIGHT>
596.27022748
> <PUBCHEM_TOTAL_CHARGE>
0
> <PUBCHEM_HEAVY_ATOM_COUNT>
40
> <PUBCHEM_ATOM_DEF_STEREO_COUNT>
2
> <PUBCHEM_ATOM_UDEF_STEREO_COUNT>
0
> <PUBCHEM_BOND_DEF_STEREO_COUNT>
0
> <PUBCHEM_BOND_UDEF_STEREO_COUNT>
0
> <PUBCHEM_ISOTOPIC_ATOM_COUNT>
0
> <PUBCHEM_COMPONENT_COUNT>
1
> <PUBCHEM_CACTVS_TAUTO_COUNT>
-1
> <PUBCHEM_COORDINATE_TYPE>
1
5
255
> <PUBCHEM_BONDANNOTATIONS>
26  11  6
12  34  8
12  40  8
2  39  8
2  40  8
20  24  8
20  25  8
24  28  8
25  29  8
28  30  8
29  30  8
34  39  8
13  9  5
$$$$
