508688
  -OEChem-10302200282D
 86 89  0     1  0  0  0  0  0999 V2000
   13.2207   -1.6243    0.0000 S   0  0  0  0  0  0  0  0  0  0  0  0
    5.6103    2.9672    0.0000 S   0  0  0  0  0  0  0  0  0  0  0  0
    3.9477    3.6087    0.0000 S   0  0  0  0  0  0  0  0  0  0  0  0
   11.9315   -2.7810    0.0000 O   0  0  0  0  0  0  0  0  0  0  0  0
   13.9650   -0.9564    0.0000 O   0  0  0  0  0  0  0  0  0  0  0  0
   12.4764   -2.2921    0.0000 O   0  0  0  0  0  0  0  0  0  0  0  0
    6.3246   -0.4224    0.0000 O   0  0  0  0  0  0  0  0  0  0  0  0
    6.3546    3.6350    0.0000 O   0  0  0  0  0  0  0  0  0  0  0  0
    4.8660    2.2994    0.0000 O   0  0  0  0  0  0  0  0  0  0  0  0
   12.5528   -0.8800    0.0000 N   0  0  3  0  0  0  0  0  0  0  0  0
    7.6138    0.7343    0.0000 N   0  0  0  0  0  0  0  0  0  0  0  0
    6.2781    2.2229    0.0000 N   0  0  0  0  0  0  0  0  0  0  0  0
    4.6783   -1.4938    0.0000 N   0  0  0  0  0  0  0  0  0  0  0  0
   15.8921   -4.6015    0.0000 N   0  0  0  0  0  0  0  0  0  0  0  0
   11.5743   -1.0862    0.0000 C   0  0  1  0  0  0  0  0  0  0  0  0
   10.9065   -0.3419    0.0000 C   0  0  0  0  0  0  0  0  0  0  0  0
   12.8635    0.0706    0.0000 C   0  0  0  0  0  0  0  0  0  0  0  0
    9.9280   -0.5481    0.0000 C   0  0  0  0  0  0  0  0  0  0  0  0
   12.1957    0.8149    0.0000 C   0  0  0  0  0  0  0  0  0  0  0  0
   11.2637   -2.0367    0.0000 C   0  0  0  0  0  0  0  0  0  0  0  0
    9.2601    0.1962    0.0000 C   0  0  0  0  0  0  0  0  0  0  0  0
    8.2816   -0.0100    0.0000 C   0  0  0  0  0  0  0  0  0  0  0  0
   13.8885   -2.3686    0.0000 C   0  0  0  0  0  0  0  0  0  0  0  0
   12.5063    1.7654    0.0000 C   0  0  0  0  0  0  0  0  0  0  0  0
   11.2171    0.6086    0.0000 C   0  0  0  0  0  0  0  0  0  0  0  0
    5.9674    1.2724    0.0000 C   0  0  1  0  0  0  0  0  0  0  0  0
    4.9889    1.0662    0.0000 C   0  0  0  0  0  0  0  0  0  0  0  0
    6.6353    0.5281    0.0000 C   0  0  0  0  0  0  0  0  0  0  0  0
   13.5779   -3.3191    0.0000 C   0  0  0  0  0  0  0  0  0  0  0  0
   14.8670   -2.1623    0.0000 C   0  0  0  0  0  0  0  0  0  0  0  0
    4.6783    0.1156    0.0000 C   0  0  0  0  0  0  0  0  0  0  0  0
    3.7320   -0.1891    0.0000 C   0  0  0  0  0  0  0  0  0  0  0  0
   14.2457   -4.0634    0.0000 C   0  0  0  0  0  0  0  0  0  0  0  0
   15.5349   -2.9066    0.0000 C   0  0  0  0  0  0  0  0  0  0  0  0
    3.7320   -1.1891    0.0000 C   0  0  0  0  0  0  0  0  0  0  0  0
    5.2619   -0.6891    0.0000 C   0  0  0  0  0  0  0  0  0  0  0  0
   15.2242   -3.8572    0.0000 C   0  0  0  0  0  0  0  0  0  0  0  0
    2.8660    0.3109    0.0000 C   0  0  0  0  0  0  0  0  0  0  0  0
    2.8660   -1.6891    0.0000 C   0  0  0  0  0  0  0  0  0  0  0  0
    4.9424    3.7115    0.0000 C   0  0  0  0  0  0  0  0  0  0  0  0
    2.0000   -0.1891    0.0000 C   0  0  0  0  0  0  0  0  0  0  0  0
    2.0000   -1.1891    0.0000 C   0  0  0  0  0  0  0  0  0  0  0  0
    5.1520    4.6893    0.0000 C   0  0  0  0  0  0  0  0  0  0  0  0
    4.2869    5.1908    0.0000 C   0  0  0  0  0  0  0  0  0  0  0  0
    3.5426    4.5229    0.0000 C   0  0  0  0  0  0  0  0  0  0  0  0
   11.7669   -0.4968    0.0000 H   0  0  0  0  0  0  0  0  0  0  0  0
   11.4328   -0.0142    0.0000 H   0  0  0  0  0  0  0  0  0  0  0  0
   10.6752    0.2334    0.0000 H   0  0  0  0  0  0  0  0  0  0  0  0
   13.4104   -0.2215    0.0000 H   0  0  0  0  0  0  0  0  0  0  0  0
   13.2461    0.5585    0.0000 H   0  0  0  0  0  0  0  0  0  0  0  0
    9.4016   -0.8757    0.0000 H   0  0  0  0  0  0  0  0  0  0  0  0
   10.1592   -1.1234    0.0000 H   0  0  0  0  0  0  0  0  0  0  0  0
   12.0030    0.2255    0.0000 H   0  0  0  0  0  0  0  0  0  0  0  0
   10.7167   -1.7447    0.0000 H   0  0  0  0  0  0  0  0  0  0  0  0
   10.8811   -2.5246    0.0000 H   0  0  0  0  0  0  0  0  0  0  0  0
    9.7865    0.5239    0.0000 H   0  0  0  0  0  0  0  0  0  0  0  0
    9.0289    0.7715    0.0000 H   0  0  0  0  0  0  0  0  0  0  0  0
    7.7553   -0.3376    0.0000 H   0  0  0  0  0  0  0  0  0  0  0  0
    8.5129   -0.5853    0.0000 H   0  0  0  0  0  0  0  0  0  0  0  0
   13.0956    1.5728    0.0000 H   0  0  0  0  0  0  0  0  0  0  0  0
   12.6989    2.3547    0.0000 H   0  0  0  0  0  0  0  0  0  0  0  0
   11.9170    1.9580    0.0000 H   0  0  0  0  0  0  0  0  0  0  0  0
   11.0893    1.2153    0.0000 H   0  0  0  0  0  0  0  0  0  0  0  0
   10.6105    0.4808    0.0000 H   0  0  0  0  0  0  0  0  0  0  0  0
   11.3450    0.0020    0.0000 H   0  0  0  0  0  0  0  0  0  0  0  0
    5.5534    1.7338    0.0000 H   0  0  0  0  0  0  0  0  0  0  0  0
    7.8064    1.3236    0.0000 H   0  0  0  0  0  0  0  0  0  0  0  0
    4.9684    1.6858    0.0000 H   0  0  0  0  0  0  0  0  0  0  0  0
    4.3751    1.1535    0.0000 H   0  0  0  0  0  0  0  0  0  0  0  0
   11.7389   -3.3703    0.0000 H   0  0  0  0  0  0  0  0  0  0  0  0
   12.9712   -3.4469    0.0000 H   0  0  0  0  0  0  0  0  0  0  0  0
   15.0596   -1.5730    0.0000 H   0  0  0  0  0  0  0  0  0  0  0  0
    6.8848    2.3508    0.0000 H   0  0  0  0  0  0  0  0  0  0  0  0
   14.0531   -4.6527    0.0000 H   0  0  0  0  0  0  0  0  0  0  0  0
   16.1415   -2.7788    0.0000 H   0  0  0  0  0  0  0  0  0  0  0  0
    5.8819   -0.6891    0.0000 H   0  0  0  0  0  0  0  0  0  0  0  0
    4.8709   -2.0832    0.0000 H   0  0  0  0  0  0  0  0  0  0  0  0
    2.8660    0.9309    0.0000 H   0  0  0  0  0  0  0  0  0  0  0  0
    2.8660   -2.3091    0.0000 H   0  0  0  0  0  0  0  0  0  0  0  0
    1.4631    0.1209    0.0000 H   0  0  0  0  0  0  0  0  0  0  0  0
    1.4631   -1.4991    0.0000 H   0  0  0  0  0  0  0  0  0  0  0  0
   16.4987   -4.4736    0.0000 H   0  0  0  0  0  0  0  0  0  0  0  0
   15.6994   -5.1908    0.0000 H   0  0  0  0  0  0  0  0  0  0  0  0
    5.7188    4.9405    0.0000 H   0  0  0  0  0  0  0  0  0  0  0  0
    4.2231    5.8075    0.0000 H   0  0  0  0  0  0  0  0  0  0  0  0
    2.9363    4.6529    0.0000 H   0  0  0  0  0  0  0  0  0  0  0  0
  1  5  2  0  0  0  0
  1  6  2  0  0  0  0
  1 10  1  0  0  0  0
  1 23  1  0  0  0  0
  2  8  2  0  0  0  0
  2  9  2  0  0  0  0
  2 12  1  0  0  0  0
  2 40  1  0  0  0  0
  3 40  1  0  0  0  0
  3 45  1  0  0  0  0
  4 20  1  0  0  0  0
  4 70  1  0  0  0  0
  7 28  2  0  0  0  0
 15 10  1  6  0  0  0
 10 17  1  0  0  0  0
 11 22  1  0  0  0  0
 11 28  1  0  0  0  0
 11 67  1  0  0  0  0
 26 12  1  6  0  0  0
 12 73  1  0  0  0  0
 13 35  1  0  0  0  0
 13 36  1  0  0  0  0
 13 77  1  0  0  0  0
 14 37  1  0  0  0  0
 14 82  1  0  0  0  0
 14 83  1  0  0  0  0
 15 16  1  0  0  0  0
 15 20  1  0  0  0  0
 15 46  1  0  0  0  0
 16 18  1  0  0  0  0
 16 47  1  0  0  0  0
 16 48  1  0  0  0  0
 17 19  1  0  0  0  0
 17 49  1  0  0  0  0
 17 50  1  0  0  0  0
 18 21  1  0  0  0  0
 18 51  1  0  0  0  0
 18 52  1  0  0  0  0
 19 24  1  0  0  0  0
 19 25  1  0  0  0  0
 19 53  1  0  0  0  0
 20 54  1  0  0  0  0
 20 55  1  0  0  0  0
 21 22  1  0  0  0  0
 21 56  1  0  0  0  0
 21 57  1  0  0  0  0
 22 58  1  0  0  0  0
 22 59  1  0  0  0  0
 23 29  2  0  0  0  0
 23 30  1  0  0  0  0
 24 60  1  0  0  0  0
 24 61  1  0  0  0  0
 24 62  1  0  0  0  0
 25 63  1  0  0  0  0
 25 64  1  0  0  0  0
 25 65  1  0  0  0  0
 26 27  1  0  0  0  0
 26 28  1  0  0  0  0
 26 66  1  0  0  0  0
 27 31  1  0  0  0  0
 27 68  1  0  0  0  0
 27 69  1  0  0  0  0
 29 33  1  0  0  0  0
 29 71  1  0  0  0  0
 30 34  2  0  0  0  0
 30 72  1  0  0  0  0
 31 32  1  0  0  0  0
 31 36  2  0  0  0  0
 32 35  1  0  0  0  0
 32 38  2  0  0  0  0
 33 37  2  0  0  0  0
 33 74  1  0  0  0  0
 34 37  1  0  0  0  0
 34 75  1  0  0  0  0
 35 39  2  0  0  0  0
 36 76  1  0  0  0  0
 38 41  1  0  0  0  0
 38 78  1  0  0  0  0
 39 42  1  0  0  0  0
 39 79  1  0  0  0  0
 40 43  2  0  0  0  0
 41 42  2  0  0  0  0
 41 80  1  0  0  0  0
 42 81  1  0  0  0  0
 43 44  1  0  0  0  0
 43 84  1  0  0  0  0
 44 45  2  0  0  0  0
 44 85  1  0  0  0  0
 45 86  1  0  0  0  0
M  END
> <PUBCHEM_COMPOUND_CID>
508688
> <PUBCHEM_COMPOUND_CANONICALIZED>
1
> <PUBCHEM_CACTVS_COMPLEXITY>
1140
> <PUBCHEM_CACTVS_HBOND_ACCEPTOR>
10
> <PUBCHEM_CACTVS_HBOND_DONOR>
5
> <PUBCHEM_CACTVS_ROTATABLE_BOND>
17
> <PUBCHEM_CACTVS_SUBSKEYS>
AAADcfB7uABgAAAAAAAAAAAAAAAAAWJAAAAwYAAAAAAAAFgB/AAAHgQQSAAADSjl3ga+wfLJkgqsAzV3VHDDgbAxCjBI2bm4ZJgKcPLgkZGUYAhklgD4yAeYycCOgAQAAAACAAAACAAAAAQAAAAAAAAAAA==
> <PUBCHEM_IUPAC_OPENEYE_NAME>
(2S)-N-[(5S)-5-[(4-aminophenyl)sulfonyl-isobutyl-amino]-6-hydroxy-hexyl]-3-(1H-indol-3-yl)-2-(2-thienylsulfonylamino)propanamide
> <PUBCHEM_IUPAC_CAS_NAME>
(2S)-N-[(5S)-5-[(4-aminophenyl)sulfonyl-(2-methylpropyl)amino]-6-hydroxyhexyl]-3-(1H-indol-3-yl)-2-(thiophen-2-ylsulfonylamino)propanamide
> <PUBCHEM_IUPAC_NAME_MARKUP>
(2<I>S</I>)-<I>N</I>-[(5<I>S</I>)-5-[(4-aminophenyl)sulfonyl-(2-methylpropyl)amino]-6-hydroxyhexyl]-3-(1<I>H</I>-indol-3-yl)-2-(thiophen-2-ylsulfonylamino)propanamide
> <PUBCHEM_IUPAC_NAME>
(2S)-N-[(5S)-5-[(4-aminophenyl)sulfonyl-(2-methylpropyl)amino]-6-hydroxyhexyl]-3-(1H-indol-3-yl)-2-(thiophen-2-ylsulfonylamino)propanamide
> <PUBCHEM_IUPAC_SYSTEMATIC_NAME>
(2S)-N-[(5S)-5-[(4-aminophenyl)sulfonyl-(2-methylpropyl)amino]-6-oxidanyl-hexyl]-3-(1H-indol-3-yl)-2-(thiophen-2-ylsulfonylamino)propanamide
> <PUBCHEM_IUPAC_TRADITIONAL_NAME>
(2S)-N-[(5S)-6-hydroxy-5-[isobutyl(sulfanilyl)amino]hexyl]-3-(1H-indol-3-yl)-2-(2-thienylsulfonylamino)propionamide
> <PUBCHEM_IUPAC_INCHI>
InChI=1S/C31H41N5O6S3/c1-22(2)20-36(45(41,42)26-14-12-24(32)13-15-26)25(21-37)8-5-6-16-33-31(38)29(35-44(39,40)30-11-7-17-43-30)18-23-19-34-28-10-4-3-9-27(23)28/h3-4,7,9-15,17,19,22,25,29,34-35,37H,5-6,8,16,18,20-21,32H2,1-2H3,(H,33,38)/t25-,29-/m0/s1
> <PUBCHEM_IUPAC_INCHIKEY>
VYLRGGVRLAFTGD-SVEHJYQDSA-N
> <PUBCHEM_XLOGP3_AA>
4.3
> <PUBCHEM_EXACT_MASS>
675.22189757
> <PUBCHEM_MOLECULAR_FORMULA>
C31H41N5O6S3
> <PUBCHEM_MOLECULAR_WEIGHT>
675.9
> <PUBCHEM_OPENEYE_CAN_SMILES>
CC(C)CN(C(CCCCNC(=O)C(CC1=CNC2=CC=CC=C21)NS(=O)(=O)C3=CC=CS3)CO)S(=O)(=O)C4=CC=C(C=C4)N
> <PUBCHEM_OPENEYE_ISO_SMILES>
CC(C)CN([C@@H](CCCCNC(=O)[C@H](CC1=CNC2=CC=CC=C21)NS(=O)(=O)C3=CC=CS3)CO)S(=O)(=O)C4=CC=C(C=C4)N
> <PUBCHEM_CACTVS_TPSA>
220
> <PUBCHEM_MONOISOTOPIC_WEIGHT>
675.22189757
> <PUBCHEM_TOTAL_CHARGE>
0
> <PUBCHEM_HEAVY_ATOM_COUNT>
45
> <PUBCHEM_ATOM_DEF_STEREO_COUNT>
2
> <PUBCHEM_ATOM_UDEF_STEREO_COUNT>
0
> <PUBCHEM_BOND_DEF_STEREO_COUNT>
0
> <PUBCHEM_BOND_UDEF_STEREO_COUNT>
0
> <PUBCHEM_ISOTOPIC_ATOM_COUNT>
0
> <PUBCHEM_COMPONENT_COUNT>
1
> <PUBCHEM_CACTVS_TAUTO_COUNT>
-1
> <PUBCHEM_COORDINATE_TYPE>
1
5
255
> <PUBCHEM_BONDANNOTATIONS>
15  10  6
26  12  6
13  35  8
13  36  8
23  29  8
23  30  8
29  33  8
3  40  8
3  45  8
30  34  8
31  32  8
31  36  8
32  35  8
32  38  8
33  37  8
34  37  8
35  39  8
38  41  8
39  42  8
40  43  8
41  42  8
43  44  8
44  45  8
$$$$
