508607
  -OEChem-10302200282D
 91 93  0     1  0  0  0  0  0999 V2000
   13.2207   -2.0267    0.0000 S   0  0  0  0  0  0  0  0  0  0  0  0
   13.9650   -1.3588    0.0000 O   0  0  0  0  0  0  0  0  0  0  0  0
   12.4764   -2.6945    0.0000 O   0  0  0  0  0  0  0  0  0  0  0  0
   10.2852   -2.6453    0.0000 O   0  0  0  0  0  0  0  0  0  0  0  0
   11.9315   -3.1834    0.0000 O   0  0  0  0  0  0  0  0  0  0  0  0
    6.3246   -0.8249    0.0000 O   0  0  0  0  0  0  0  0  0  0  0  0
    5.9209    3.5153    0.0000 O   0  0  0  0  0  0  0  0  0  0  0  0
    4.6318    2.3586    0.0000 O   0  0  0  0  0  0  0  0  0  0  0  0
   12.5528   -1.2824    0.0000 N   0  0  3  0  0  0  0  0  0  0  0  0
    7.6138    0.3319    0.0000 N   0  0  0  0  0  0  0  0  0  0  0  0
    6.2781    1.8205    0.0000 N   0  0  0  0  0  0  0  0  0  0  0  0
    4.6783   -1.8963    0.0000 N   0  0  0  0  0  0  0  0  0  0  0  0
   11.5743   -1.4886    0.0000 C   0  0  1  0  0  0  0  0  0  0  0  0
   10.9065   -0.7443    0.0000 C   0  0  0  0  0  0  0  0  0  0  0  0
   12.8635   -0.3319    0.0000 C   0  0  0  0  0  0  0  0  0  0  0  0
    9.9280   -0.9505    0.0000 C   0  0  0  0  0  0  0  0  0  0  0  0
   12.1957    0.4124    0.0000 C   0  0  0  0  0  0  0  0  0  0  0  0
    9.2601   -0.2062    0.0000 C   0  0  0  0  0  0  0  0  0  0  0  0
    4.6783   -0.2868    0.0000 C   0  0  3  0  0  0  0  0  0  0  0  0
    4.9889    0.6637    0.0000 C   0  0  0  0  0  0  0  0  0  0  0  0
    5.9674    0.8699    0.0000 C   0  0  1  0  0  0  0  0  0  0  0  0
    8.2816   -0.4124    0.0000 C   0  0  0  0  0  0  0  0  0  0  0  0
   11.2637   -2.4391    0.0000 C   0  0  0  0  0  0  0  0  0  0  0  0
    3.7320   -0.5915    0.0000 C   0  0  0  0  0  0  0  0  0  0  0  0
   13.8885   -2.7710    0.0000 C   0  0  0  0  0  0  0  0  0  0  0  0
   12.5063    1.3630    0.0000 C   0  0  0  0  0  0  0  0  0  0  0  0
   11.2171    0.2062    0.0000 C   0  0  0  0  0  0  0  0  0  0  0  0
    6.6353    0.1256    0.0000 C   0  0  0  0  0  0  0  0  0  0  0  0
    5.2619   -1.0915    0.0000 C   0  0  0  0  0  0  0  0  0  0  0  0
    3.7320   -1.5915    0.0000 C   0  0  0  0  0  0  0  0  0  0  0  0
    2.8660   -0.0915    0.0000 C   0  0  0  0  0  0  0  0  0  0  0  0
   13.5779   -3.7215    0.0000 C   0  0  0  0  0  0  0  0  0  0  0  0
   14.8670   -2.5648    0.0000 C   0  0  0  0  0  0  0  0  0  0  0  0
    2.8660   -2.0915    0.0000 C   0  0  0  0  0  0  0  0  0  0  0  0
    5.6103    2.5648    0.0000 C   0  0  0  0  0  0  0  0  0  0  0  0
    2.0000   -0.5915    0.0000 C   0  0  0  0  0  0  0  0  0  0  0  0
   14.2457   -4.4658    0.0000 C   0  0  0  0  0  0  0  0  0  0  0  0
   15.5349   -3.3091    0.0000 C   0  0  0  0  0  0  0  0  0  0  0  0
   15.2242   -4.2596    0.0000 C   0  0  0  0  0  0  0  0  0  0  0  0
    2.0000   -1.5915    0.0000 C   0  0  0  0  0  0  0  0  0  0  0  0
    5.2531    4.2596    0.0000 C   0  0  0  0  0  0  0  0  0  0  0  0
   15.8921   -5.0039    0.0000 C   0  0  0  0  0  0  0  0  0  0  0  0
    4.5852    5.0039    0.0000 C   0  0  0  0  0  0  0  0  0  0  0  0
    5.9974    4.9274    0.0000 C   0  0  0  0  0  0  0  0  0  0  0  0
    4.5088    3.5918    0.0000 C   0  0  0  0  0  0  0  0  0  0  0  0
   11.7669   -0.8993    0.0000 H   0  0  0  0  0  0  0  0  0  0  0  0
   11.4328   -0.4167    0.0000 H   0  0  0  0  0  0  0  0  0  0  0  0
   10.6752   -0.1690    0.0000 H   0  0  0  0  0  0  0  0  0  0  0  0
   13.4104   -0.6239    0.0000 H   0  0  0  0  0  0  0  0  0  0  0  0
   13.2461    0.1560    0.0000 H   0  0  0  0  0  0  0  0  0  0  0  0
    9.4016   -1.2782    0.0000 H   0  0  0  0  0  0  0  0  0  0  0  0
   10.1592   -1.5258    0.0000 H   0  0  0  0  0  0  0  0  0  0  0  0
   12.0030   -0.1769    0.0000 H   0  0  0  0  0  0  0  0  0  0  0  0
    9.7865    0.1214    0.0000 H   0  0  0  0  0  0  0  0  0  0  0  0
    9.0289    0.3690    0.0000 H   0  0  0  0  0  0  0  0  0  0  0  0
    5.2908   -0.1906    0.0000 H   0  0  0  0  0  0  0  0  0  0  0  0
    4.9684    1.2834    0.0000 H   0  0  0  0  0  0  0  0  0  0  0  0
    4.3751    0.7511    0.0000 H   0  0  0  0  0  0  0  0  0  0  0  0
    5.5534    1.3314    0.0000 H   0  0  0  0  0  0  0  0  0  0  0  0
    7.7553   -0.7401    0.0000 H   0  0  0  0  0  0  0  0  0  0  0  0
    8.5129   -0.9877    0.0000 H   0  0  0  0  0  0  0  0  0  0  0  0
   13.0956    1.1704    0.0000 H   0  0  0  0  0  0  0  0  0  0  0  0
   12.6989    1.9523    0.0000 H   0  0  0  0  0  0  0  0  0  0  0  0
   11.9170    1.5556    0.0000 H   0  0  0  0  0  0  0  0  0  0  0  0
   11.0893    0.8129    0.0000 H   0  0  0  0  0  0  0  0  0  0  0  0
   10.6105    0.0784    0.0000 H   0  0  0  0  0  0  0  0  0  0  0  0
   11.3450   -0.4005    0.0000 H   0  0  0  0  0  0  0  0  0  0  0  0
    7.8064    0.9212    0.0000 H   0  0  0  0  0  0  0  0  0  0  0  0
    5.8819   -1.0915    0.0000 H   0  0  0  0  0  0  0  0  0  0  0  0
    6.8848    1.9483    0.0000 H   0  0  0  0  0  0  0  0  0  0  0  0
    2.8660    0.5285    0.0000 H   0  0  0  0  0  0  0  0  0  0  0  0
   12.9712   -3.8494    0.0000 H   0  0  0  0  0  0  0  0  0  0  0  0
   15.0596   -1.9754    0.0000 H   0  0  0  0  0  0  0  0  0  0  0  0
    2.8660   -2.7115    0.0000 H   0  0  0  0  0  0  0  0  0  0  0  0
   10.0926   -3.2347    0.0000 H   0  0  0  0  0  0  0  0  0  0  0  0
    1.4631   -0.2815    0.0000 H   0  0  0  0  0  0  0  0  0  0  0  0
   14.0531   -5.0551    0.0000 H   0  0  0  0  0  0  0  0  0  0  0  0
   16.1415   -3.1812    0.0000 H   0  0  0  0  0  0  0  0  0  0  0  0
    1.4631   -1.9015    0.0000 H   0  0  0  0  0  0  0  0  0  0  0  0
   15.4306   -5.4180    0.0000 H   0  0  0  0  0  0  0  0  0  0  0  0
   16.3061   -5.4654    0.0000 H   0  0  0  0  0  0  0  0  0  0  0  0
   16.3535   -4.5898    0.0000 H   0  0  0  0  0  0  0  0  0  0  0  0
    5.0467    5.4180    0.0000 H   0  0  0  0  0  0  0  0  0  0  0  0
    4.1712    5.4654    0.0000 H   0  0  0  0  0  0  0  0  0  0  0  0
    4.1238    4.5898    0.0000 H   0  0  0  0  0  0  0  0  0  0  0  0
    6.4114    4.4660    0.0000 H   0  0  0  0  0  0  0  0  0  0  0  0
    6.4588    5.3415    0.0000 H   0  0  0  0  0  0  0  0  0  0  0  0
    5.5833    5.3889    0.0000 H   0  0  0  0  0  0  0  0  0  0  0  0
    4.0947    4.0532    0.0000 H   0  0  0  0  0  0  0  0  0  0  0  0
    4.0473    3.1777    0.0000 H   0  0  0  0  0  0  0  0  0  0  0  0
    4.9228    3.1303    0.0000 H   0  0  0  0  0  0  0  0  0  0  0  0
  1  2  2  0  0  0  0
  1  3  2  0  0  0  0
  1  9  1  0  0  0  0
  1 25  1  0  0  0  0
  4 23  1  0  0  0  0
  4 75  1  0  0  0  0
  5 23  2  0  0  0  0
  6 28  2  0  0  0  0
  7 35  1  0  0  0  0
  7 41  1  0  0  0  0
  8 35  2  0  0  0  0
 13  9  1  6  0  0  0
  9 15  1  0  0  0  0
 10 22  1  0  0  0  0
 10 28  1  0  0  0  0
 10 68  1  0  0  0  0
 21 11  1  6  0  0  0
 11 35  1  0  0  0  0
 11 70  1  0  0  0  0
 12 29  2  0  0  0  0
 12 30  1  0  0  0  0
 13 14  1  0  0  0  0
 13 23  1  0  0  0  0
 13 46  1  0  0  0  0
 14 16  1  0  0  0  0
 14 47  1  0  0  0  0
 14 48  1  0  0  0  0
 15 17  1  0  0  0  0
 15 49  1  0  0  0  0
 15 50  1  0  0  0  0
 16 18  1  0  0  0  0
 16 51  1  0  0  0  0
 16 52  1  0  0  0  0
 17 26  1  0  0  0  0
 17 27  1  0  0  0  0
 17 53  1  0  0  0  0
 18 22  1  0  0  0  0
 18 54  1  0  0  0  0
 18 55  1  0  0  0  0
 19 20  1  0  0  0  0
 19 24  1  0  0  0  0
 19 29  1  0  0  0  0
 19 56  1  0  0  0  0
 20 21  1  0  0  0  0
 20 57  1  0  0  0  0
 20 58  1  0  0  0  0
 21 28  1  0  0  0  0
 21 59  1  0  0  0  0
 22 60  1  0  0  0  0
 22 61  1  0  0  0  0
 24 30  1  0  0  0  0
 24 31  2  0  0  0  0
 25 32  2  0  0  0  0
 25 33  1  0  0  0  0
 26 62  1  0  0  0  0
 26 63  1  0  0  0  0
 26 64  1  0  0  0  0
 27 65  1  0  0  0  0
 27 66  1  0  0  0  0
 27 67  1  0  0  0  0
 29 69  1  0  0  0  0
 30 34  2  0  0  0  0
 31 36  1  0  0  0  0
 31 71  1  0  0  0  0
 32 37  1  0  0  0  0
 32 72  1  0  0  0  0
 33 38  2  0  0  0  0
 33 73  1  0  0  0  0
 34 40  1  0  0  0  0
 34 74  1  0  0  0  0
 36 40  2  0  0  0  0
 36 76  1  0  0  0  0
 37 39  2  0  0  0  0
 37 77  1  0  0  0  0
 38 39  1  0  0  0  0
 38 78  1  0  0  0  0
 39 42  1  0  0  0  0
 40 79  1  0  0  0  0
 41 43  1  0  0  0  0
 41 44  1  0  0  0  0
 41 45  1  0  0  0  0
 42 80  1  0  0  0  0
 42 81  1  0  0  0  0
 42 82  1  0  0  0  0
 43 83  1  0  0  0  0
 43 84  1  0  0  0  0
 43 85  1  0  0  0  0
 44 86  1  0  0  0  0
 44 87  1  0  0  0  0
 44 88  1  0  0  0  0
 45 89  1  0  0  0  0
 45 90  1  0  0  0  0
 45 91  1  0  0  0  0
M  END
> <PUBCHEM_COMPOUND_CID>
508607
> <PUBCHEM_COMPOUND_CANONICALIZED>
1
> <PUBCHEM_CACTVS_COMPLEXITY>
1120
> <PUBCHEM_CACTVS_HBOND_ACCEPTOR>
9
> <PUBCHEM_CACTVS_HBOND_DONOR>
3
> <PUBCHEM_CACTVS_ROTATABLE_BOND>
17
> <PUBCHEM_CACTVS_SUBSKEYS>
AAADcfB/uABAAAAAAAAAAAAAAAAAAQAAAAAwYAAAAAAAAEABQAAAHgQQSAAADWzB2AQyyYLABgKoAjXzXHDCABAgAgAIiJm4ZIkKYDKAkbGcYABklgCYyAeYyMCOkAAAAAACAAAgAAAAAAQAAAAAAAAAAA==
> <PUBCHEM_IUPAC_OPENEYE_NAME>
(2S)-6-[[(2S)-2-(tert-butoxycarbonylamino)-3-(3H-indol-3-yl)propanoyl]amino]-2-[isobutyl(p-tolylsulfonyl)amino]hexanoic acid
> <PUBCHEM_IUPAC_CAS_NAME>
(2S)-6-[[(2S)-3-(3H-indol-3-yl)-2-[[(2-methylpropan-2-yl)oxy-oxomethyl]amino]-1-oxopropyl]amino]-2-[(4-methylphenyl)sulfonyl-(2-methylpropyl)amino]hexanoic acid
> <PUBCHEM_IUPAC_NAME_MARKUP>
(2<I>S</I>)-6-[[(2<I>S</I>)-3-(3<I>H</I>-indol-3-yl)-2-[(2-methylpropan-2-yl)oxycarbonylamino]propanoyl]amino]-2-[(4-methylphenyl)sulfonyl-(2-methylpropyl)amino]hexanoic acid
> <PUBCHEM_IUPAC_NAME>
(2S)-6-[[(2S)-3-(3H-indol-3-yl)-2-[(2-methylpropan-2-yl)oxycarbonylamino]propanoyl]amino]-2-[(4-methylphenyl)sulfonyl-(2-methylpropyl)amino]hexanoic acid
> <PUBCHEM_IUPAC_SYSTEMATIC_NAME>
(2S)-6-[[(2S)-3-(3H-indol-3-yl)-2-[(2-methylpropan-2-yl)oxycarbonylamino]propanoyl]amino]-2-[(4-methylphenyl)sulfonyl-(2-methylpropyl)amino]hexanoic acid
> <PUBCHEM_IUPAC_TRADITIONAL_NAME>
(2S)-6-[[(2S)-2-(tert-butoxycarbonylamino)-3-(3H-indol-3-yl)propanoyl]amino]-2-[isobutyl(tosyl)amino]hexanoic acid
> <PUBCHEM_IUPAC_INCHI>
InChI=1S/C33H46N4O7S/c1-22(2)21-37(45(42,43)25-16-14-23(3)15-17-25)29(31(39)40)13-9-10-18-34-30(38)28(36-32(41)44-33(4,5)6)19-24-20-35-27-12-8-7-11-26(24)27/h7-8,11-12,14-17,20,22,24,28-29H,9-10,13,18-19,21H2,1-6H3,(H,34,38)(H,36,41)(H,39,40)/t24?,28-,29-/m0/s1
> <PUBCHEM_IUPAC_INCHIKEY>
LBVZGTWVCHJYTH-UTARDKEYSA-N
> <PUBCHEM_XLOGP3_AA>
4.7
> <PUBCHEM_EXACT_MASS>
642.30872099
> <PUBCHEM_MOLECULAR_FORMULA>
C33H46N4O7S
> <PUBCHEM_MOLECULAR_WEIGHT>
642.8
> <PUBCHEM_OPENEYE_CAN_SMILES>
CC1=CC=C(C=C1)S(=O)(=O)N(CC(C)C)C(CCCCNC(=O)C(CC2C=NC3=CC=CC=C23)NC(=O)OC(C)(C)C)C(=O)O
> <PUBCHEM_OPENEYE_ISO_SMILES>
CC1=CC=C(C=C1)S(=O)(=O)N(CC(C)C)[C@@H](CCCCNC(=O)[C@H](CC2C=NC3=CC=CC=C23)NC(=O)OC(C)(C)C)C(=O)O
> <PUBCHEM_CACTVS_TPSA>
163
> <PUBCHEM_MONOISOTOPIC_WEIGHT>
642.30872099
> <PUBCHEM_TOTAL_CHARGE>
0
> <PUBCHEM_HEAVY_ATOM_COUNT>
45
> <PUBCHEM_ATOM_DEF_STEREO_COUNT>
2
> <PUBCHEM_ATOM_UDEF_STEREO_COUNT>
1
> <PUBCHEM_BOND_DEF_STEREO_COUNT>
0
> <PUBCHEM_BOND_UDEF_STEREO_COUNT>
0
> <PUBCHEM_ISOTOPIC_ATOM_COUNT>
0
> <PUBCHEM_COMPONENT_COUNT>
1
> <PUBCHEM_CACTVS_TAUTO_COUNT>
-1
> <PUBCHEM_COORDINATE_TYPE>
1
5
255
> <PUBCHEM_BONDANNOTATIONS>
21  11  6
19  20  3
24  30  8
24  31  8
25  32  8
25  33  8
30  34  8
31  36  8
32  37  8
33  38  8
34  40  8
36  40  8
37  39  8
38  39  8
13  9  6
$$$$
