508672
  -OEChem-10302200282D
 94 97  0     1  0  0  0  0  0999 V2000
    9.3532   -3.5556    0.0000 S   0  0  0  0  0  0  0  0  0  0  0  0
    5.6103    4.5061    0.0000 S   0  0  0  0  0  0  0  0  0  0  0  0
   10.6423   -2.3988    0.0000 O   0  0  0  0  0  0  0  0  0  0  0  0
    8.6089   -4.2234    0.0000 O   0  0  0  0  0  0  0  0  0  0  0  0
   10.0975   -2.8877    0.0000 O   0  0  0  0  0  0  0  0  0  0  0  0
    6.3246    1.1164    0.0000 O   0  0  0  0  0  0  0  0  0  0  0  0
   12.0246   -6.5328    0.0000 O   0  0  0  0  0  0  0  0  0  0  0  0
    6.3546    5.1739    0.0000 O   0  0  0  0  0  0  0  0  0  0  0  0
    4.8660    3.8382    0.0000 O   0  0  0  0  0  0  0  0  0  0  0  0
    8.6853   -2.8113    0.0000 N   0  0  3  0  0  0  0  0  0  0  0  0
    7.6138    2.2732    0.0000 N   0  0  0  0  0  0  0  0  0  0  0  0
    6.2781    3.7618    0.0000 N   0  0  0  0  0  0  0  0  0  0  0  0
    4.6783    0.0451    0.0000 N   0  0  0  0  0  0  0  0  0  0  0  0
    8.9960   -1.8608    0.0000 C   0  0  1  0  0  0  0  0  0  0  0  0
    8.3282   -1.1164    0.0000 C   0  0  0  0  0  0  0  0  0  0  0  0
    7.7068   -3.0175    0.0000 C   0  0  0  0  0  0  0  0  0  0  0  0
    8.6388   -0.1659    0.0000 C   0  0  0  0  0  0  0  0  0  0  0  0
    7.0390   -2.2732    0.0000 C   0  0  0  0  0  0  0  0  0  0  0  0
    9.9745   -1.6545    0.0000 C   0  0  0  0  0  0  0  0  0  0  0  0
    7.9710    0.5784    0.0000 C   0  0  0  0  0  0  0  0  0  0  0  0
    8.2816    1.5289    0.0000 C   0  0  0  0  0  0  0  0  0  0  0  0
   10.0210   -4.2999    0.0000 C   0  0  0  0  0  0  0  0  0  0  0  0
    6.0605   -2.4794    0.0000 C   0  0  0  0  0  0  0  0  0  0  0  0
    7.3496   -1.3227    0.0000 C   0  0  0  0  0  0  0  0  0  0  0  0
    5.9674    2.8113    0.0000 C   0  0  1  0  0  0  0  0  0  0  0  0
    4.9889    2.6051    0.0000 C   0  0  0  0  0  0  0  0  0  0  0  0
    6.6353    2.0670    0.0000 C   0  0  0  0  0  0  0  0  0  0  0  0
    9.7104   -5.2504    0.0000 C   0  0  0  0  0  0  0  0  0  0  0  0
   10.9995   -4.0937    0.0000 C   0  0  0  0  0  0  0  0  0  0  0  0
    4.6783    1.6545    0.0000 C   0  0  0  0  0  0  0  0  0  0  0  0
    3.7320    1.3498    0.0000 C   0  0  0  0  0  0  0  0  0  0  0  0
   10.3782   -5.9947    0.0000 C   0  0  0  0  0  0  0  0  0  0  0  0
   11.6674   -4.8380    0.0000 C   0  0  0  0  0  0  0  0  0  0  0  0
    5.2619    0.8498    0.0000 C   0  0  0  0  0  0  0  0  0  0  0  0
    3.7320    0.3498    0.0000 C   0  0  0  0  0  0  0  0  0  0  0  0
   11.3567   -5.7885    0.0000 C   0  0  0  0  0  0  0  0  0  0  0  0
    2.8660    1.8498    0.0000 C   0  0  0  0  0  0  0  0  0  0  0  0
    4.9424    5.2504    0.0000 C   0  0  0  0  0  0  0  0  0  0  0  0
    2.8660   -0.1502    0.0000 C   0  0  0  0  0  0  0  0  0  0  0  0
    2.0000    1.3498    0.0000 C   0  0  0  0  0  0  0  0  0  0  0  0
    2.0000    0.3498    0.0000 C   0  0  0  0  0  0  0  0  0  0  0  0
    3.9639    5.0442    0.0000 C   0  0  0  0  0  0  0  0  0  0  0  0
    5.2531    6.2009    0.0000 C   0  0  0  0  0  0  0  0  0  0  0  0
    3.2961    5.7885    0.0000 C   0  0  0  0  0  0  0  0  0  0  0  0
    4.5852    6.9452    0.0000 C   0  0  0  0  0  0  0  0  0  0  0  0
    3.6067    6.7390    0.0000 C   0  0  0  0  0  0  0  0  0  0  0  0
   11.7139   -7.4833    0.0000 C   0  0  0  0  0  0  0  0  0  0  0  0
    2.9389    7.4833    0.0000 C   0  0  0  0  0  0  0  0  0  0  0  0
    8.3893   -1.9886    0.0000 H   0  0  0  0  0  0  0  0  0  0  0  0
    7.7812   -0.8244    0.0000 H   0  0  0  0  0  0  0  0  0  0  0  0
    7.9456   -1.6044    0.0000 H   0  0  0  0  0  0  0  0  0  0  0  0
    7.1805   -3.3451    0.0000 H   0  0  0  0  0  0  0  0  0  0  0  0
    7.9381   -3.5928    0.0000 H   0  0  0  0  0  0  0  0  0  0  0  0
    9.1857   -0.4580    0.0000 H   0  0  0  0  0  0  0  0  0  0  0  0
    9.0214    0.3220    0.0000 H   0  0  0  0  0  0  0  0  0  0  0  0
    7.6457   -2.1453    0.0000 H   0  0  0  0  0  0  0  0  0  0  0  0
   10.5009   -1.3269    0.0000 H   0  0  0  0  0  0  0  0  0  0  0  0
    9.7432   -1.0793    0.0000 H   0  0  0  0  0  0  0  0  0  0  0  0
    7.4240    0.8704    0.0000 H   0  0  0  0  0  0  0  0  0  0  0  0
    7.5884    0.0905    0.0000 H   0  0  0  0  0  0  0  0  0  0  0  0
    8.8286    1.2369    0.0000 H   0  0  0  0  0  0  0  0  0  0  0  0
    8.6642    2.0168    0.0000 H   0  0  0  0  0  0  0  0  0  0  0  0
    5.9326   -1.8727    0.0000 H   0  0  0  0  0  0  0  0  0  0  0  0
    5.4538   -2.6073    0.0000 H   0  0  0  0  0  0  0  0  0  0  0  0
    6.1883   -3.0861    0.0000 H   0  0  0  0  0  0  0  0  0  0  0  0
    7.9390   -1.5153    0.0000 H   0  0  0  0  0  0  0  0  0  0  0  0
    7.5423   -0.7333    0.0000 H   0  0  0  0  0  0  0  0  0  0  0  0
    6.7603   -1.1301    0.0000 H   0  0  0  0  0  0  0  0  0  0  0  0
    5.5534    3.2727    0.0000 H   0  0  0  0  0  0  0  0  0  0  0  0
    7.8064    2.8625    0.0000 H   0  0  0  0  0  0  0  0  0  0  0  0
    4.9684    3.2247    0.0000 H   0  0  0  0  0  0  0  0  0  0  0  0
    4.3751    2.6924    0.0000 H   0  0  0  0  0  0  0  0  0  0  0  0
   11.2490   -2.2710    0.0000 H   0  0  0  0  0  0  0  0  0  0  0  0
    9.1037   -5.3783    0.0000 H   0  0  0  0  0  0  0  0  0  0  0  0
   11.1921   -3.5043    0.0000 H   0  0  0  0  0  0  0  0  0  0  0  0
    6.8848    3.8896    0.0000 H   0  0  0  0  0  0  0  0  0  0  0  0
   10.1856   -6.5840    0.0000 H   0  0  0  0  0  0  0  0  0  0  0  0
   12.2740   -4.7101    0.0000 H   0  0  0  0  0  0  0  0  0  0  0  0
    5.8819    0.8498    0.0000 H   0  0  0  0  0  0  0  0  0  0  0  0
    4.8709   -0.5443    0.0000 H   0  0  0  0  0  0  0  0  0  0  0  0
    2.8660    2.4698    0.0000 H   0  0  0  0  0  0  0  0  0  0  0  0
    2.8660   -0.7702    0.0000 H   0  0  0  0  0  0  0  0  0  0  0  0
    1.4631    1.6598    0.0000 H   0  0  0  0  0  0  0  0  0  0  0  0
    1.4631    0.0398    0.0000 H   0  0  0  0  0  0  0  0  0  0  0  0
    3.7713    4.4549    0.0000 H   0  0  0  0  0  0  0  0  0  0  0  0
    5.8598    6.3288    0.0000 H   0  0  0  0  0  0  0  0  0  0  0  0
    2.6894    5.6606    0.0000 H   0  0  0  0  0  0  0  0  0  0  0  0
    4.7778    7.5345    0.0000 H   0  0  0  0  0  0  0  0  0  0  0  0
   11.1246   -7.2907    0.0000 H   0  0  0  0  0  0  0  0  0  0  0  0
   11.5213   -8.0726    0.0000 H   0  0  0  0  0  0  0  0  0  0  0  0
   12.3032   -7.6759    0.0000 H   0  0  0  0  0  0  0  0  0  0  0  0
    3.4004    7.8974    0.0000 H   0  0  0  0  0  0  0  0  0  0  0  0
    2.5248    7.9448    0.0000 H   0  0  0  0  0  0  0  0  0  0  0  0
    2.4774    7.0692    0.0000 H   0  0  0  0  0  0  0  0  0  0  0  0
  1  4  2  0  0  0  0
  1  5  2  0  0  0  0
  1 10  1  0  0  0  0
  1 22  1  0  0  0  0
  2  8  2  0  0  0  0
  2  9  2  0  0  0  0
  2 12  1  0  0  0  0
  2 38  1  0  0  0  0
  3 19  1  0  0  0  0
  3 73  1  0  0  0  0
  6 27  2  0  0  0  0
  7 36  1  0  0  0  0
  7 47  1  0  0  0  0
 14 10  1  1  0  0  0
 10 16  1  0  0  0  0
 11 21  1  0  0  0  0
 11 27  1  0  0  0  0
 11 70  1  0  0  0  0
 25 12  1  6  0  0  0
 12 76  1  0  0  0  0
 13 34  1  0  0  0  0
 13 35  1  0  0  0  0
 13 80  1  0  0  0  0
 14 15  1  0  0  0  0
 14 19  1  0  0  0  0
 14 49  1  0  0  0  0
 15 17  1  0  0  0  0
 15 50  1  0  0  0  0
 15 51  1  0  0  0  0
 16 18  1  0  0  0  0
 16 52  1  0  0  0  0
 16 53  1  0  0  0  0
 17 20  1  0  0  0  0
 17 54  1  0  0  0  0
 17 55  1  0  0  0  0
 18 23  1  0  0  0  0
 18 24  1  0  0  0  0
 18 56  1  0  0  0  0
 19 57  1  0  0  0  0
 19 58  1  0  0  0  0
 20 21  1  0  0  0  0
 20 59  1  0  0  0  0
 20 60  1  0  0  0  0
 21 61  1  0  0  0  0
 21 62  1  0  0  0  0
 22 28  2  0  0  0  0
 22 29  1  0  0  0  0
 23 63  1  0  0  0  0
 23 64  1  0  0  0  0
 23 65  1  0  0  0  0
 24 66  1  0  0  0  0
 24 67  1  0  0  0  0
 24 68  1  0  0  0  0
 25 26  1  0  0  0  0
 25 27  1  0  0  0  0
 25 69  1  0  0  0  0
 26 30  1  0  0  0  0
 26 71  1  0  0  0  0
 26 72  1  0  0  0  0
 28 32  1  0  0  0  0
 28 74  1  0  0  0  0
 29 33  2  0  0  0  0
 29 75  1  0  0  0  0
 30 31  1  0  0  0  0
 30 34  2  0  0  0  0
 31 35  1  0  0  0  0
 31 37  2  0  0  0  0
 32 36  2  0  0  0  0
 32 77  1  0  0  0  0
 33 36  1  0  0  0  0
 33 78  1  0  0  0  0
 34 79  1  0  0  0  0
 35 39  2  0  0  0  0
 37 40  1  0  0  0  0
 37 81  1  0  0  0  0
 38 42  2  0  0  0  0
 38 43  1  0  0  0  0
 39 41  1  0  0  0  0
 39 82  1  0  0  0  0
 40 41  2  0  0  0  0
 40 83  1  0  0  0  0
 41 84  1  0  0  0  0
 42 44  1  0  0  0  0
 42 85  1  0  0  0  0
 43 45  2  0  0  0  0
 43 86  1  0  0  0  0
 44 46  2  0  0  0  0
 44 87  1  0  0  0  0
 45 46  1  0  0  0  0
 45 88  1  0  0  0  0
 46 48  1  0  0  0  0
 47 89  1  0  0  0  0
 47 90  1  0  0  0  0
 47 91  1  0  0  0  0
 48 92  1  0  0  0  0
 48 93  1  0  0  0  0
 48 94  1  0  0  0  0
M  END
> <PUBCHEM_COMPOUND_CID>
508672
> <PUBCHEM_COMPOUND_CANONICALIZED>
1
> <PUBCHEM_CACTVS_COMPLEXITY>
1190
> <PUBCHEM_CACTVS_HBOND_ACCEPTOR>
9
> <PUBCHEM_CACTVS_HBOND_DONOR>
4
> <PUBCHEM_CACTVS_ROTATABLE_BOND>
18
> <PUBCHEM_CACTVS_SUBSKEYS>
AAADcfB/uABgAAAAAAAAAAAAAAAAAWAAAAAwYMAAAAAAAFgB9AAAHgQQSAAADSzh3gY+x/LJlgKoAzV3VHDCiDAxIiAI2bm+bJgOdvLEsZuUcChk1hHY6AeYycCOkIAAAAACAAAhAAAAAAQAAAAAAAAAAA==
> <PUBCHEM_IUPAC_OPENEYE_NAME>
(2S)-N-[(5S)-6-hydroxy-5-[isobutyl-(4-methoxyphenyl)sulfonyl-amino]hexyl]-3-(1H-indol-3-yl)-2-(p-tolylsulfonylamino)propanamide
> <PUBCHEM_IUPAC_CAS_NAME>
(2S)-N-[(5S)-6-hydroxy-5-[(4-methoxyphenyl)sulfonyl-(2-methylpropyl)amino]hexyl]-3-(1H-indol-3-yl)-2-[(4-methylphenyl)sulfonylamino]propanamide
> <PUBCHEM_IUPAC_NAME_MARKUP>
(2<I>S</I>)-<I>N</I>-[(5<I>S</I>)-6-hydroxy-5-[(4-methoxyphenyl)sulfonyl-(2-methylpropyl)amino]hexyl]-3-(1<I>H</I>-indol-3-yl)-2-[(4-methylphenyl)sulfonylamino]propanamide
> <PUBCHEM_IUPAC_NAME>
(2S)-N-[(5S)-6-hydroxy-5-[(4-methoxyphenyl)sulfonyl-(2-methylpropyl)amino]hexyl]-3-(1H-indol-3-yl)-2-[(4-methylphenyl)sulfonylamino]propanamide
> <PUBCHEM_IUPAC_SYSTEMATIC_NAME>
(2S)-3-(1H-indol-3-yl)-N-[(5S)-5-[(4-methoxyphenyl)sulfonyl-(2-methylpropyl)amino]-6-oxidanyl-hexyl]-2-[(4-methylphenyl)sulfonylamino]propanamide
> <PUBCHEM_IUPAC_TRADITIONAL_NAME>
(2S)-N-[(5S)-6-hydroxy-5-[isobutyl-(4-methoxyphenyl)sulfonyl-amino]hexyl]-3-(1H-indol-3-yl)-2-(tosylamino)propionamide
> <PUBCHEM_IUPAC_INCHI>
InChI=1S/C35H46N4O7S2/c1-25(2)23-39(48(44,45)31-18-14-29(46-4)15-19-31)28(24-40)9-7-8-20-36-35(41)34(21-27-22-37-33-11-6-5-10-32(27)33)38-47(42,43)30-16-12-26(3)13-17-30/h5-6,10-19,22,25,28,34,37-38,40H,7-9,20-21,23-24H2,1-4H3,(H,36,41)/t28-,34-/m0/s1
> <PUBCHEM_IUPAC_INCHIKEY>
NKAGVTDWOKVUED-GVYVVWIYSA-N
> <PUBCHEM_XLOGP3_AA>
5.3
> <PUBCHEM_EXACT_MASS>
698.28079217
> <PUBCHEM_MOLECULAR_FORMULA>
C35H46N4O7S2
> <PUBCHEM_MOLECULAR_WEIGHT>
698.9
> <PUBCHEM_OPENEYE_CAN_SMILES>
CC1=CC=C(C=C1)S(=O)(=O)NC(CC2=CNC3=CC=CC=C32)C(=O)NCCCCC(CO)N(CC(C)C)S(=O)(=O)C4=CC=C(C=C4)OC
> <PUBCHEM_OPENEYE_ISO_SMILES>
CC1=CC=C(C=C1)S(=O)(=O)N[C@@H](CC2=CNC3=CC=CC=C32)C(=O)NCCCC[C@@H](CO)N(CC(C)C)S(=O)(=O)C4=CC=C(C=C4)OC
> <PUBCHEM_CACTVS_TPSA>
175
> <PUBCHEM_MONOISOTOPIC_WEIGHT>
698.28079217
> <PUBCHEM_TOTAL_CHARGE>
0
> <PUBCHEM_HEAVY_ATOM_COUNT>
48
> <PUBCHEM_ATOM_DEF_STEREO_COUNT>
2
> <PUBCHEM_ATOM_UDEF_STEREO_COUNT>
0
> <PUBCHEM_BOND_DEF_STEREO_COUNT>
0
> <PUBCHEM_BOND_UDEF_STEREO_COUNT>
0
> <PUBCHEM_ISOTOPIC_ATOM_COUNT>
0
> <PUBCHEM_COMPONENT_COUNT>
1
> <PUBCHEM_CACTVS_TAUTO_COUNT>
-1
> <PUBCHEM_COORDINATE_TYPE>
1
5
255
> <PUBCHEM_BONDANNOTATIONS>
14  10  5
25  12  6
13  34  8
13  35  8
22  28  8
22  29  8
28  32  8
29  33  8
30  31  8
30  34  8
31  35  8
31  37  8
32  36  8
33  36  8
35  39  8
37  40  8
38  42  8
38  43  8
39  41  8
40  41  8
42  44  8
43  45  8
44  46  8
45  46  8
$$$$
