508655
  -OEChem-10302200282D
 94 97  0     1  0  0  0  0  0999 V2000
   13.2207   -3.0803    0.0000 S   0  0  0  0  0  0  0  0  0  0  0  0
   13.9650   -2.4125    0.0000 O   0  0  0  0  0  0  0  0  0  0  0  0
   12.4764   -3.7482    0.0000 O   0  0  0  0  0  0  0  0  0  0  0  0
   10.2852   -3.6990    0.0000 O   0  0  0  0  0  0  0  0  0  0  0  0
   11.9315   -4.2370    0.0000 O   0  0  0  0  0  0  0  0  0  0  0  0
    6.3246   -1.8785    0.0000 O   0  0  0  0  0  0  0  0  0  0  0  0
    4.6318    1.3049    0.0000 O   0  0  0  0  0  0  0  0  0  0  0  0
   12.5528   -2.3360    0.0000 N   0  0  3  0  0  0  0  0  0  0  0  0
    7.6138   -0.7218    0.0000 N   0  0  0  0  0  0  0  0  0  0  0  0
    6.2781    0.7668    0.0000 N   0  0  0  0  0  0  0  0  0  0  0  0
    4.6783   -2.9499    0.0000 N   0  0  0  0  0  0  0  0  0  0  0  0
   11.5743   -2.5422    0.0000 C   0  0  1  0  0  0  0  0  0  0  0  0
   10.9065   -1.7979    0.0000 C   0  0  0  0  0  0  0  0  0  0  0  0
   12.8635   -1.3855    0.0000 C   0  0  0  0  0  0  0  0  0  0  0  0
    9.9280   -2.0042    0.0000 C   0  0  0  0  0  0  0  0  0  0  0  0
   12.1957   -0.6412    0.0000 C   0  0  0  0  0  0  0  0  0  0  0  0
    9.2601   -1.2598    0.0000 C   0  0  0  0  0  0  0  0  0  0  0  0
   11.2637   -3.4928    0.0000 C   0  0  0  0  0  0  0  0  0  0  0  0
    8.2816   -1.4661    0.0000 C   0  0  0  0  0  0  0  0  0  0  0  0
   13.8885   -3.8246    0.0000 C   0  0  0  0  0  0  0  0  0  0  0  0
   12.5063    0.3093    0.0000 C   0  0  0  0  0  0  0  0  0  0  0  0
   11.2171   -0.8474    0.0000 C   0  0  0  0  0  0  0  0  0  0  0  0
    5.9674   -0.1837    0.0000 C   0  0  1  0  0  0  0  0  0  0  0  0
    4.9889   -0.3899    0.0000 C   0  0  0  0  0  0  0  0  0  0  0  0
    6.6353   -0.9280    0.0000 C   0  0  0  0  0  0  0  0  0  0  0  0
   14.8670   -3.6184    0.0000 C   0  0  0  0  0  0  0  0  0  0  0  0
   13.5779   -4.7751    0.0000 C   0  0  0  0  0  0  0  0  0  0  0  0
    4.6783   -1.3404    0.0000 C   0  0  0  0  0  0  0  0  0  0  0  0
    3.7320   -1.6452    0.0000 C   0  0  0  0  0  0  0  0  0  0  0  0
   15.5349   -4.3627    0.0000 C   0  0  0  0  0  0  0  0  0  0  0  0
   14.2457   -5.5194    0.0000 C   0  0  0  0  0  0  0  0  0  0  0  0
    3.7320   -2.6452    0.0000 C   0  0  0  0  0  0  0  0  0  0  0  0
   15.2242   -5.3132    0.0000 C   0  0  0  0  0  0  0  0  0  0  0  0
    5.2619   -2.1452    0.0000 C   0  0  0  0  0  0  0  0  0  0  0  0
    5.6103    1.5111    0.0000 C   0  0  0  0  0  0  0  0  0  0  0  0
    2.8660   -1.1451    0.0000 C   0  0  0  0  0  0  0  0  0  0  0  0
    5.9209    2.4617    0.0000 C   0  0  0  0  0  0  0  0  0  0  0  0
    2.8660   -3.1452    0.0000 C   0  0  0  0  0  0  0  0  0  0  0  0
   15.8921   -6.0575    0.0000 C   0  0  0  0  0  0  0  0  0  0  0  0
    5.2531    3.2060    0.0000 C   0  0  0  0  0  0  0  0  0  0  0  0
    2.0000   -1.6452    0.0000 C   0  0  0  0  0  0  0  0  0  0  0  0
    2.0000   -2.6452    0.0000 C   0  0  0  0  0  0  0  0  0  0  0  0
    5.5637    4.1565    0.0000 C   0  0  0  0  0  0  0  0  0  0  0  0
    6.5422    4.3627    0.0000 C   0  0  0  0  0  0  0  0  0  0  0  0
    4.8959    4.9008    0.0000 C   0  0  0  0  0  0  0  0  0  0  0  0
    6.8529    5.3132    0.0000 C   0  0  0  0  0  0  0  0  0  0  0  0
    5.2066    5.8513    0.0000 C   0  0  0  0  0  0  0  0  0  0  0  0
    6.1851    6.0575    0.0000 C   0  0  0  0  0  0  0  0  0  0  0  0
   11.7669   -1.9529    0.0000 H   0  0  0  0  0  0  0  0  0  0  0  0
   11.4328   -1.4703    0.0000 H   0  0  0  0  0  0  0  0  0  0  0  0
   10.6752   -1.2227    0.0000 H   0  0  0  0  0  0  0  0  0  0  0  0
   13.4104   -1.6775    0.0000 H   0  0  0  0  0  0  0  0  0  0  0  0
   13.2461   -0.8976    0.0000 H   0  0  0  0  0  0  0  0  0  0  0  0
    9.4016   -2.3318    0.0000 H   0  0  0  0  0  0  0  0  0  0  0  0
   10.1592   -2.5794    0.0000 H   0  0  0  0  0  0  0  0  0  0  0  0
   12.0030   -1.2305    0.0000 H   0  0  0  0  0  0  0  0  0  0  0  0
    9.7865   -0.9322    0.0000 H   0  0  0  0  0  0  0  0  0  0  0  0
    9.0289   -0.6846    0.0000 H   0  0  0  0  0  0  0  0  0  0  0  0
    7.7553   -1.7937    0.0000 H   0  0  0  0  0  0  0  0  0  0  0  0
    8.5129   -2.0413    0.0000 H   0  0  0  0  0  0  0  0  0  0  0  0
   13.0956    0.1167    0.0000 H   0  0  0  0  0  0  0  0  0  0  0  0
   12.6989    0.8987    0.0000 H   0  0  0  0  0  0  0  0  0  0  0  0
   11.9170    0.5019    0.0000 H   0  0  0  0  0  0  0  0  0  0  0  0
   11.0893   -0.2407    0.0000 H   0  0  0  0  0  0  0  0  0  0  0  0
   10.6105   -0.9753    0.0000 H   0  0  0  0  0  0  0  0  0  0  0  0
   11.3450   -1.4541    0.0000 H   0  0  0  0  0  0  0  0  0  0  0  0
    5.5534    0.2778    0.0000 H   0  0  0  0  0  0  0  0  0  0  0  0
    7.8064   -0.1324    0.0000 H   0  0  0  0  0  0  0  0  0  0  0  0
    4.9684    0.2298    0.0000 H   0  0  0  0  0  0  0  0  0  0  0  0
    4.3751   -0.3026    0.0000 H   0  0  0  0  0  0  0  0  0  0  0  0
   15.0596   -3.0291    0.0000 H   0  0  0  0  0  0  0  0  0  0  0  0
   12.9712   -4.9030    0.0000 H   0  0  0  0  0  0  0  0  0  0  0  0
    6.8848    0.8947    0.0000 H   0  0  0  0  0  0  0  0  0  0  0  0
   10.0926   -4.2883    0.0000 H   0  0  0  0  0  0  0  0  0  0  0  0
   16.1415   -4.2348    0.0000 H   0  0  0  0  0  0  0  0  0  0  0  0
   14.0531   -6.1088    0.0000 H   0  0  0  0  0  0  0  0  0  0  0  0
    5.8819   -2.1452    0.0000 H   0  0  0  0  0  0  0  0  0  0  0  0
    4.8709   -3.5392    0.0000 H   0  0  0  0  0  0  0  0  0  0  0  0
    2.8660   -0.5252    0.0000 H   0  0  0  0  0  0  0  0  0  0  0  0
    6.4678    2.1696    0.0000 H   0  0  0  0  0  0  0  0  0  0  0  0
    6.3035    2.9496    0.0000 H   0  0  0  0  0  0  0  0  0  0  0  0
    2.8660   -3.7652    0.0000 H   0  0  0  0  0  0  0  0  0  0  0  0
   15.4306   -6.4716    0.0000 H   0  0  0  0  0  0  0  0  0  0  0  0
   16.3061   -6.5190    0.0000 H   0  0  0  0  0  0  0  0  0  0  0  0
   16.3535   -5.6435    0.0000 H   0  0  0  0  0  0  0  0  0  0  0  0
    4.7062    3.4980    0.0000 H   0  0  0  0  0  0  0  0  0  0  0  0
    4.8705    2.7181    0.0000 H   0  0  0  0  0  0  0  0  0  0  0  0
    1.4631   -1.3352    0.0000 H   0  0  0  0  0  0  0  0  0  0  0  0
    1.4631   -2.9552    0.0000 H   0  0  0  0  0  0  0  0  0  0  0  0
    6.9563    3.9012    0.0000 H   0  0  0  0  0  0  0  0  0  0  0  0
    4.2892    4.7729    0.0000 H   0  0  0  0  0  0  0  0  0  0  0  0
    7.4596    5.4411    0.0000 H   0  0  0  0  0  0  0  0  0  0  0  0
    4.7925    6.3128    0.0000 H   0  0  0  0  0  0  0  0  0  0  0  0
    6.3777    6.6468    0.0000 H   0  0  0  0  0  0  0  0  0  0  0  0
  1  2  2  0  0  0  0
  1  3  2  0  0  0  0
  1  8  1  0  0  0  0
  1 20  1  0  0  0  0
  4 18  1  0  0  0  0
  4 74  1  0  0  0  0
  5 18  2  0  0  0  0
  6 25  2  0  0  0  0
  7 35  2  0  0  0  0
 12  8  1  6  0  0  0
  8 14  1  0  0  0  0
  9 19  1  0  0  0  0
  9 25  1  0  0  0  0
  9 68  1  0  0  0  0
 23 10  1  6  0  0  0
 10 35  1  0  0  0  0
 10 73  1  0  0  0  0
 11 32  1  0  0  0  0
 11 34  1  0  0  0  0
 11 78  1  0  0  0  0
 12 13  1  0  0  0  0
 12 18  1  0  0  0  0
 12 49  1  0  0  0  0
 13 15  1  0  0  0  0
 13 50  1  0  0  0  0
 13 51  1  0  0  0  0
 14 16  1  0  0  0  0
 14 52  1  0  0  0  0
 14 53  1  0  0  0  0
 15 17  1  0  0  0  0
 15 54  1  0  0  0  0
 15 55  1  0  0  0  0
 16 21  1  0  0  0  0
 16 22  1  0  0  0  0
 16 56  1  0  0  0  0
 17 19  1  0  0  0  0
 17 57  1  0  0  0  0
 17 58  1  0  0  0  0
 19 59  1  0  0  0  0
 19 60  1  0  0  0  0
 20 26  2  0  0  0  0
 20 27  1  0  0  0  0
 21 61  1  0  0  0  0
 21 62  1  0  0  0  0
 21 63  1  0  0  0  0
 22 64  1  0  0  0  0
 22 65  1  0  0  0  0
 22 66  1  0  0  0  0
 23 24  1  0  0  0  0
 23 25  1  0  0  0  0
 23 67  1  0  0  0  0
 24 28  1  0  0  0  0
 24 69  1  0  0  0  0
 24 70  1  0  0  0  0
 26 30  1  0  0  0  0
 26 71  1  0  0  0  0
 27 31  2  0  0  0  0
 27 72  1  0  0  0  0
 28 29  1  0  0  0  0
 28 34  2  0  0  0  0
 29 32  1  0  0  0  0
 29 36  2  0  0  0  0
 30 33  2  0  0  0  0
 30 75  1  0  0  0  0
 31 33  1  0  0  0  0
 31 76  1  0  0  0  0
 32 38  2  0  0  0  0
 33 39  1  0  0  0  0
 34 77  1  0  0  0  0
 35 37  1  0  0  0  0
 36 41  1  0  0  0  0
 36 79  1  0  0  0  0
 37 40  1  0  0  0  0
 37 80  1  0  0  0  0
 37 81  1  0  0  0  0
 38 42  1  0  0  0  0
 38 82  1  0  0  0  0
 39 83  1  0  0  0  0
 39 84  1  0  0  0  0
 39 85  1  0  0  0  0
 40 43  1  0  0  0  0
 40 86  1  0  0  0  0
 40 87  1  0  0  0  0
 41 42  2  0  0  0  0
 41 88  1  0  0  0  0
 42 89  1  0  0  0  0
 43 44  2  0  0  0  0
 43 45  1  0  0  0  0
 44 46  1  0  0  0  0
 44 90  1  0  0  0  0
 45 47  2  0  0  0  0
 45 91  1  0  0  0  0
 46 48  2  0  0  0  0
 46 92  1  0  0  0  0
 47 48  1  0  0  0  0
 47 93  1  0  0  0  0
 48 94  1  0  0  0  0
M  END
> <PUBCHEM_COMPOUND_CID>
508655
> <PUBCHEM_COMPOUND_CANONICALIZED>
1
> <PUBCHEM_CACTVS_COMPLEXITY>
1130
> <PUBCHEM_CACTVS_HBOND_ACCEPTOR>
7
> <PUBCHEM_CACTVS_HBOND_DONOR>
4
> <PUBCHEM_CACTVS_ROTATABLE_BOND>
18
> <PUBCHEM_CACTVS_SUBSKEYS>
AAADcfB/uABAAAAAAAAAAAAAAAAAAWAAAAAwYMAAAAAAAFgB9AAAHgQQSAAADSjB3gQ+yfLJkgKoAzX3XHDCgDAxAiAI2bm4ZJgKYPLAkbGUYAhklgDYyAeYycCOkAAAAAACAAAgAAAAAAQAAAAAAAAAAA==
> <PUBCHEM_IUPAC_OPENEYE_NAME>
(2S)-6-[[(2S)-3-(1H-indol-3-yl)-2-(3-phenylpropanoylamino)propanoyl]amino]-2-[isobutyl(p-tolylsulfonyl)amino]hexanoic acid
> <PUBCHEM_IUPAC_CAS_NAME>
(2S)-6-[[(2S)-3-(1H-indol-3-yl)-1-oxo-2-[(1-oxo-3-phenylpropyl)amino]propyl]amino]-2-[(4-methylphenyl)sulfonyl-(2-methylpropyl)amino]hexanoic acid
> <PUBCHEM_IUPAC_NAME_MARKUP>
(2<I>S</I>)-6-[[(2<I>S</I>)-3-(1<I>H</I>-indol-3-yl)-2-(3-phenylpropanoylamino)propanoyl]amino]-2-[(4-methylphenyl)sulfonyl-(2-methylpropyl)amino]hexanoic acid
> <PUBCHEM_IUPAC_NAME>
(2S)-6-[[(2S)-3-(1H-indol-3-yl)-2-(3-phenylpropanoylamino)propanoyl]amino]-2-[(4-methylphenyl)sulfonyl-(2-methylpropyl)amino]hexanoic acid
> <PUBCHEM_IUPAC_SYSTEMATIC_NAME>
(2S)-6-[[(2S)-3-(1H-indol-3-yl)-2-(3-phenylpropanoylamino)propanoyl]amino]-2-[(4-methylphenyl)sulfonyl-(2-methylpropyl)amino]hexanoic acid
> <PUBCHEM_IUPAC_TRADITIONAL_NAME>
(2S)-6-[[(2S)-2-(hydrocinnamoylamino)-3-(1H-indol-3-yl)propanoyl]amino]-2-[isobutyl(tosyl)amino]hexanoic acid
> <PUBCHEM_IUPAC_INCHI>
InChI=1S/C37H46N4O6S/c1-26(2)25-41(48(46,47)30-19-16-27(3)17-20-30)34(37(44)45)15-9-10-22-38-36(43)33(23-29-24-39-32-14-8-7-13-31(29)32)40-35(42)21-18-28-11-5-4-6-12-28/h4-8,11-14,16-17,19-20,24,26,33-34,39H,9-10,15,18,21-23,25H2,1-3H3,(H,38,43)(H,40,42)(H,44,45)/t33-,34-/m0/s1
> <PUBCHEM_IUPAC_INCHIKEY>
KCEMQMWAELXLGQ-HEVIKAOCSA-N
> <PUBCHEM_XLOGP3_AA>
6.1
> <PUBCHEM_EXACT_MASS>
674.31380637
> <PUBCHEM_MOLECULAR_FORMULA>
C37H46N4O6S
> <PUBCHEM_MOLECULAR_WEIGHT>
674.9
> <PUBCHEM_OPENEYE_CAN_SMILES>
CC1=CC=C(C=C1)S(=O)(=O)N(CC(C)C)C(CCCCNC(=O)C(CC2=CNC3=CC=CC=C32)NC(=O)CCC4=CC=CC=C4)C(=O)O
> <PUBCHEM_OPENEYE_ISO_SMILES>
CC1=CC=C(C=C1)S(=O)(=O)N(CC(C)C)[C@@H](CCCCNC(=O)[C@H](CC2=CNC3=CC=CC=C32)NC(=O)CCC4=CC=CC=C4)C(=O)O
> <PUBCHEM_CACTVS_TPSA>
157
> <PUBCHEM_MONOISOTOPIC_WEIGHT>
674.31380637
> <PUBCHEM_TOTAL_CHARGE>
0
> <PUBCHEM_HEAVY_ATOM_COUNT>
48
> <PUBCHEM_ATOM_DEF_STEREO_COUNT>
2
> <PUBCHEM_ATOM_UDEF_STEREO_COUNT>
0
> <PUBCHEM_BOND_DEF_STEREO_COUNT>
0
> <PUBCHEM_BOND_UDEF_STEREO_COUNT>
0
> <PUBCHEM_ISOTOPIC_ATOM_COUNT>
0
> <PUBCHEM_COMPONENT_COUNT>
1
> <PUBCHEM_CACTVS_TAUTO_COUNT>
-1
> <PUBCHEM_COORDINATE_TYPE>
1
5
255
> <PUBCHEM_BONDANNOTATIONS>
23  10  6
11  32  8
11  34  8
20  26  8
20  27  8
26  30  8
27  31  8
28  29  8
28  34  8
29  32  8
29  36  8
30  33  8
31  33  8
32  38  8
36  41  8
38  42  8
41  42  8
43  44  8
43  45  8
44  46  8
45  47  8
46  48  8
47  48  8
12  8  6
$$$$
