508631
  -OEChem-10302200282D
 88 88  0     1  0  0  0  0  0999 V2000
    3.1350    4.6200    0.0000 S   0  0  0  0  0  0  0  0  0  0  0  0
    6.3675   10.6060    0.0000 F   0  0  0  0  0  0  0  0  0  0  0  0
    6.7335   11.9721    0.0000 F   0  0  0  0  0  0  0  0  0  0  0  0
    7.7335   10.2400    0.0000 F   0  0  0  0  0  0  0  0  0  0  0  0
    4.1350    4.6200    0.0000 O   0  0  0  0  0  0  0  0  0  0  0  0
    2.1350    4.6200    0.0000 O   0  0  0  0  0  0  0  0  0  0  0  0
    4.8671    7.6200    0.0000 O   0  0  0  0  0  0  0  0  0  0  0  0
    3.1350    7.6200    0.0000 O   0  0  0  0  0  0  0  0  0  0  0  0
    9.1972    7.1200    0.0000 O   0  0  0  0  0  0  0  0  0  0  0  0
    8.9655   11.1060    0.0000 O   0  0  0  0  0  0  0  0  0  0  0  0
    8.0995   12.6060    0.0000 O   0  0  0  0  0  0  0  0  0  0  0  0
   13.5273    5.6200    0.0000 N   0  0  0  0  0  0  0  0  0  0  0  0
    3.1350    5.6200    0.0000 N   0  0  3  0  0  0  0  0  0  0  0  0
   10.9292    6.1200    0.0000 N   0  0  0  0  0  0  0  0  0  0  0  0
    8.3312    5.6200    0.0000 N   0  0  0  0  0  0  0  0  0  0  0  0
   13.5273    4.6200    0.0000 C   0  0  0  0  0  0  0  0  0  0  0  0
   14.3933    6.1200    0.0000 C   0  0  0  0  0  0  0  0  0  0  0  0
   14.3933    4.1200    0.0000 C   0  0  0  0  0  0  0  0  0  0  0  0
   15.2594    5.6200    0.0000 C   0  0  0  0  0  0  0  0  0  0  0  0
   15.2594    4.6200    0.0000 C   0  0  0  0  0  0  0  0  0  0  0  0
    4.0010    6.1200    0.0000 C   0  0  1  0  0  0  0  0  0  0  0  0
   12.6613    6.1200    0.0000 C   0  0  0  0  0  0  0  0  0  0  0  0
    4.8671    5.6200    0.0000 C   0  0  0  0  0  0  0  0  0  0  0  0
    2.2690    6.1200    0.0000 C   0  0  0  0  0  0  0  0  0  0  0  0
    1.4030    5.6200    0.0000 C   0  0  0  0  0  0  0  0  0  0  0  0
    5.7331    6.1200    0.0000 C   0  0  0  0  0  0  0  0  0  0  0  0
   11.7953    5.6200    0.0000 C   0  0  0  0  0  0  0  0  0  0  0  0
    6.5991    5.6200    0.0000 C   0  0  0  0  0  0  0  0  0  0  0  0
    4.0010    7.1200    0.0000 C   0  0  0  0  0  0  0  0  0  0  0  0
    3.1350    3.6200    0.0000 C   0  0  0  0  0  0  0  0  0  0  0  0
    0.5369    6.1200    0.0000 C   0  0  0  0  0  0  0  0  0  0  0  0
    1.4030    4.6200    0.0000 C   0  0  0  0  0  0  0  0  0  0  0  0
    7.4651    6.1200    0.0000 C   0  0  0  0  0  0  0  0  0  0  0  0
   10.0632    5.6200    0.0000 C   0  0  0  0  0  0  0  0  0  0  0  0
    9.1972    6.1200    0.0000 C   0  0  0  0  0  0  0  0  0  0  0  0
    2.2690    3.1200    0.0000 C   0  0  0  0  0  0  0  0  0  0  0  0
    4.0010    3.1200    0.0000 C   0  0  0  0  0  0  0  0  0  0  0  0
    2.2690    2.1200    0.0000 C   0  0  0  0  0  0  0  0  0  0  0  0
    4.0010    2.1200    0.0000 C   0  0  0  0  0  0  0  0  0  0  0  0
    3.1350    1.6200    0.0000 C   0  0  0  0  0  0  0  0  0  0  0  0
    3.1350    0.6200    0.0000 C   0  0  0  0  0  0  0  0  0  0  0  0
    7.2335   11.1060    0.0000 C   0  0  0  0  0  0  0  0  0  0  0  0
    8.0995   11.6060    0.0000 C   0  0  0  0  0  0  0  0  0  0  0  0
   12.9167    4.7277    0.0000 H   0  0  0  0  0  0  0  0  0  0  0  0
   13.3153    4.0374    0.0000 H   0  0  0  0  0  0  0  0  0  0  0  0
   14.7919    6.5950    0.0000 H   0  0  0  0  0  0  0  0  0  0  0  0
   13.9948    6.5950    0.0000 H   0  0  0  0  0  0  0  0  0  0  0  0
   13.9948    3.6450    0.0000 H   0  0  0  0  0  0  0  0  0  0  0  0
   14.7919    3.6450    0.0000 H   0  0  0  0  0  0  0  0  0  0  0  0
   15.8699    5.5123    0.0000 H   0  0  0  0  0  0  0  0  0  0  0  0
   15.4714    6.2026    0.0000 H   0  0  0  0  0  0  0  0  0  0  0  0
   15.4714    4.0374    0.0000 H   0  0  0  0  0  0  0  0  0  0  0  0
   15.8699    4.7277    0.0000 H   0  0  0  0  0  0  0  0  0  0  0  0
    4.0010    5.5000    0.0000 H   0  0  0  0  0  0  0  0  0  0  0  0
   13.0598    6.5950    0.0000 H   0  0  0  0  0  0  0  0  0  0  0  0
   12.2628    6.5950    0.0000 H   0  0  0  0  0  0  0  0  0  0  0  0
    4.4685    5.1450    0.0000 H   0  0  0  0  0  0  0  0  0  0  0  0
    5.2656    5.1450    0.0000 H   0  0  0  0  0  0  0  0  0  0  0  0
    2.6675    6.5950    0.0000 H   0  0  0  0  0  0  0  0  0  0  0  0
    1.8705    6.5950    0.0000 H   0  0  0  0  0  0  0  0  0  0  0  0
    1.4030    6.2400    0.0000 H   0  0  0  0  0  0  0  0  0  0  0  0
    6.1316    6.5950    0.0000 H   0  0  0  0  0  0  0  0  0  0  0  0
    5.3346    6.5950    0.0000 H   0  0  0  0  0  0  0  0  0  0  0  0
   11.3967    5.1450    0.0000 H   0  0  0  0  0  0  0  0  0  0  0  0
   12.1938    5.1450    0.0000 H   0  0  0  0  0  0  0  0  0  0  0  0
    6.2006    5.1450    0.0000 H   0  0  0  0  0  0  0  0  0  0  0  0
    6.9976    5.1450    0.0000 H   0  0  0  0  0  0  0  0  0  0  0  0
    0.8469    6.6569    0.0000 H   0  0  0  0  0  0  0  0  0  0  0  0
    0.0000    6.4300    0.0000 H   0  0  0  0  0  0  0  0  0  0  0  0
    0.2269    5.5831    0.0000 H   0  0  0  0  0  0  0  0  0  0  0  0
    0.7830    4.6200    0.0000 H   0  0  0  0  0  0  0  0  0  0  0  0
    1.4030    4.0000    0.0000 H   0  0  0  0  0  0  0  0  0  0  0  0
    2.0230    4.6200    0.0000 H   0  0  0  0  0  0  0  0  0  0  0  0
    7.8637    6.5950    0.0000 H   0  0  0  0  0  0  0  0  0  0  0  0
    7.0666    6.5950    0.0000 H   0  0  0  0  0  0  0  0  0  0  0  0
   10.9292    6.7400    0.0000 H   0  0  0  0  0  0  0  0  0  0  0  0
    9.6647    5.1450    0.0000 H   0  0  0  0  0  0  0  0  0  0  0  0
   10.4617    5.1450    0.0000 H   0  0  0  0  0  0  0  0  0  0  0  0
    8.3312    5.0000    0.0000 H   0  0  0  0  0  0  0  0  0  0  0  0
    1.7320    3.4300    0.0000 H   0  0  0  0  0  0  0  0  0  0  0  0
    4.5380    3.4300    0.0000 H   0  0  0  0  0  0  0  0  0  0  0  0
    4.8671    8.2400    0.0000 H   0  0  0  0  0  0  0  0  0  0  0  0
    1.7320    1.8100    0.0000 H   0  0  0  0  0  0  0  0  0  0  0  0
    4.5380    1.8100    0.0000 H   0  0  0  0  0  0  0  0  0  0  0  0
    2.5150    0.6200    0.0000 H   0  0  0  0  0  0  0  0  0  0  0  0
    3.1350    0.0000    0.0000 H   0  0  0  0  0  0  0  0  0  0  0  0
    3.7550    0.6200    0.0000 H   0  0  0  0  0  0  0  0  0  0  0  0
    9.5025   11.4160    0.0000 H   0  0  0  0  0  0  0  0  0  0  0  0
  1  5  2  0  0  0  0
  1  6  2  0  0  0  0
  1 13  1  0  0  0  0
  1 30  1  0  0  0  0
  2 42  1  0  0  0  0
  3 42  1  0  0  0  0
  4 42  1  0  0  0  0
  7 29  1  0  0  0  0
  7 82  1  0  0  0  0
  8 29  2  0  0  0  0
  9 35  2  0  0  0  0
 10 43  1  0  0  0  0
 10 88  1  0  0  0  0
 11 43  2  0  0  0  0
 12 16  1  0  0  0  0
 12 17  1  0  0  0  0
 12 22  1  0  0  0  0
 21 13  1  6  0  0  0
 13 24  1  0  0  0  0
 14 27  1  0  0  0  0
 14 34  1  0  0  0  0
 14 76  1  0  0  0  0
 15 33  1  0  0  0  0
 15 35  1  0  0  0  0
 15 79  1  0  0  0  0
 16 18  1  0  0  0  0
 16 44  1  0  0  0  0
 16 45  1  0  0  0  0
 17 19  1  0  0  0  0
 17 46  1  0  0  0  0
 17 47  1  0  0  0  0
 18 20  1  0  0  0  0
 18 48  1  0  0  0  0
 18 49  1  0  0  0  0
 19 20  1  0  0  0  0
 19 50  1  0  0  0  0
 19 51  1  0  0  0  0
 20 52  1  0  0  0  0
 20 53  1  0  0  0  0
 21 23  1  0  0  0  0
 21 29  1  0  0  0  0
 21 54  1  0  0  0  0
 22 27  1  0  0  0  0
 22 55  1  0  0  0  0
 22 56  1  0  0  0  0
 23 26  1  0  0  0  0
 23 57  1  0  0  0  0
 23 58  1  0  0  0  0
 24 25  1  0  0  0  0
 24 59  1  0  0  0  0
 24 60  1  0  0  0  0
 25 31  1  0  0  0  0
 25 32  1  0  0  0  0
 25 61  1  0  0  0  0
 26 28  1  0  0  0  0
 26 62  1  0  0  0  0
 26 63  1  0  0  0  0
 27 64  1  0  0  0  0
 27 65  1  0  0  0  0
 28 33  1  0  0  0  0
 28 66  1  0  0  0  0
 28 67  1  0  0  0  0
 30 36  2  0  0  0  0
 30 37  1  0  0  0  0
 31 68  1  0  0  0  0
 31 69  1  0  0  0  0
 31 70  1  0  0  0  0
 32 71  1  0  0  0  0
 32 72  1  0  0  0  0
 32 73  1  0  0  0  0
 33 74  1  0  0  0  0
 33 75  1  0  0  0  0
 34 35  1  0  0  0  0
 34 77  1  0  0  0  0
 34 78  1  0  0  0  0
 36 38  1  0  0  0  0
 36 80  1  0  0  0  0
 37 39  2  0  0  0  0
 37 81  1  0  0  0  0
 38 40  2  0  0  0  0
 38 83  1  0  0  0  0
 39 40  1  0  0  0  0
 39 84  1  0  0  0  0
 40 41  1  0  0  0  0
 41 85  1  0  0  0  0
 41 86  1  0  0  0  0
 41 87  1  0  0  0  0
 42 43  1  0  0  0  0
M  END
> <PUBCHEM_COMPOUND_CID>
508631
> <PUBCHEM_COMPOUND_CANONICALIZED>
1
> <PUBCHEM_CACTVS_COMPLEXITY>
840
> <PUBCHEM_CACTVS_HBOND_ACCEPTOR>
13
> <PUBCHEM_CACTVS_HBOND_DONOR>
4
> <PUBCHEM_CACTVS_ROTATABLE_BOND>
16
> <PUBCHEM_CACTVS_SUBSKEYS>
AAADcfB7uYBAAAAAAAAAAAAAAAAAAAAAAAA8QAAAAAAAAAABAAAAHwQQSAAADSjB2BQyCYPAAgKIAiHSGHBCABAgAAAIiJmIAIgKYDKAkTCUYAAklgCYiAeYyAAOEAAAAAAAAAAgAAAAAAAAAAAAAAAAAA==
> <PUBCHEM_IUPAC_OPENEYE_NAME>
(2S)-2-[isobutyl(p-tolylsulfonyl)amino]-6-[[2-[2-(1-piperidyl)ethylamino]acetyl]amino]hexanoic acid;2,2,2-trifluoroacetic acid
> <PUBCHEM_IUPAC_CAS_NAME>
(2S)-2-[(4-methylphenyl)sulfonyl-(2-methylpropyl)amino]-6-[[1-oxo-2-[2-(1-piperidinyl)ethylamino]ethyl]amino]hexanoic acid;2,2,2-trifluoroacetic acid
> <PUBCHEM_IUPAC_NAME_MARKUP>
(2<I>S</I>)-2-[(4-methylphenyl)sulfonyl-(2-methylpropyl)amino]-6-[[2-(2-piperidin-1-ylethylamino)acetyl]amino]hexanoic acid;2,2,2-trifluoroacetic acid
> <PUBCHEM_IUPAC_NAME>
(2S)-2-[(4-methylphenyl)sulfonyl-(2-methylpropyl)amino]-6-[[2-(2-piperidin-1-ylethylamino)acetyl]amino]hexanoic acid;2,2,2-trifluoroacetic acid
> <PUBCHEM_IUPAC_SYSTEMATIC_NAME>
(2S)-2-[(4-methylphenyl)sulfonyl-(2-methylpropyl)amino]-6-[2-(2-piperidin-1-ylethylamino)ethanoylamino]hexanoic acid;2,2,2-tris(fluoranyl)ethanoic acid
> <PUBCHEM_IUPAC_TRADITIONAL_NAME>
(2S)-2-[isobutyl(tosyl)amino]-6-[[2-(2-piperidinoethylamino)acetyl]amino]hexanoic acid;2,2,2-trifluoroacetic acid
> <PUBCHEM_IUPAC_INCHI>
InChI=1S/C26H44N4O5S.C2HF3O2/c1-21(2)20-30(36(34,35)23-12-10-22(3)11-13-23)24(26(32)33)9-5-6-14-28-25(31)19-27-15-18-29-16-7-4-8-17-29;3-2(4,5)1(6)7/h10-13,21,24,27H,4-9,14-20H2,1-3H3,(H,28,31)(H,32,33);(H,6,7)/t24-;/m0./s1
> <PUBCHEM_IUPAC_INCHIKEY>
BNCLKOGAWWEADP-JIDHJSLPSA-N
> <PUBCHEM_EXACT_MASS>
638.29610545
> <PUBCHEM_MOLECULAR_FORMULA>
C28H45F3N4O7S
> <PUBCHEM_MOLECULAR_WEIGHT>
638.7
> <PUBCHEM_OPENEYE_CAN_SMILES>
CC1=CC=C(C=C1)S(=O)(=O)N(CC(C)C)C(CCCCNC(=O)CNCCN2CCCCC2)C(=O)O.C(=O)(C(F)(F)F)O
> <PUBCHEM_OPENEYE_ISO_SMILES>
CC1=CC=C(C=C1)S(=O)(=O)N(CC(C)C)[C@@H](CCCCNC(=O)CNCCN2CCCCC2)C(=O)O.C(=O)(C(F)(F)F)O
> <PUBCHEM_CACTVS_TPSA>
165
> <PUBCHEM_MONOISOTOPIC_WEIGHT>
638.29610545
> <PUBCHEM_TOTAL_CHARGE>
0
> <PUBCHEM_HEAVY_ATOM_COUNT>
43
> <PUBCHEM_ATOM_DEF_STEREO_COUNT>
1
> <PUBCHEM_ATOM_UDEF_STEREO_COUNT>
0
> <PUBCHEM_BOND_DEF_STEREO_COUNT>
0
> <PUBCHEM_BOND_UDEF_STEREO_COUNT>
0
> <PUBCHEM_ISOTOPIC_ATOM_COUNT>
0
> <PUBCHEM_COMPONENT_COUNT>
2
> <PUBCHEM_CACTVS_TAUTO_COUNT>
-1
> <PUBCHEM_COORDINATE_TYPE>
1
5
255
> <PUBCHEM_BONDANNOTATIONS>
21  13  6
30  36  8
30  37  8
36  38  8
37  39  8
38  40  8
39  40  8
$$$$
