508685
  -OEChem-10302200282D
 90 92  0     1  0  0  0  0  0999 V2000
    4.5981   -1.5950    0.0000 S   0  0  0  0  0  0  0  0  0  0  0  0
    5.5981   -1.5950    0.0000 O   0  0  0  0  0  0  0  0  0  0  0  0
    3.5981   -1.5950    0.0000 O   0  0  0  0  0  0  0  0  0  0  0  0
    6.3301    1.4050    0.0000 O   0  0  0  0  0  0  0  0  0  0  0  0
    4.5981    1.4050    0.0000 O   0  0  0  0  0  0  0  0  0  0  0  0
   10.6603    0.9050    0.0000 O   0  0  0  0  0  0  0  0  0  0  0  0
   11.5263    1.4050    0.0000 O   0  0  0  0  0  0  0  0  0  0  0  0
   13.2583    5.4050    0.0000 O   0  0  0  0  0  0  0  0  0  0  0  0
    4.5981   -0.5950    0.0000 N   0  0  3  0  0  0  0  0  0  0  0  0
    9.7942   -0.5950    0.0000 N   0  0  0  0  0  0  0  0  0  0  0  0
   12.3923   -0.0950    0.0000 N   0  0  0  0  0  0  0  0  0  0  0  0
    4.5981   -5.5950    0.0000 N   0  0  0  0  0  0  0  0  0  0  0  0
    5.4641   -0.0950    0.0000 C   0  0  1  0  0  0  0  0  0  0  0  0
    6.3301   -0.5950    0.0000 C   0  0  0  0  0  0  0  0  0  0  0  0
    3.7320   -0.0950    0.0000 C   0  0  0  0  0  0  0  0  0  0  0  0
    2.8660   -0.5950    0.0000 C   0  0  0  0  0  0  0  0  0  0  0  0
    7.1962   -0.0950    0.0000 C   0  0  0  0  0  0  0  0  0  0  0  0
    8.0622   -0.5950    0.0000 C   0  0  0  0  0  0  0  0  0  0  0  0
    5.4641    0.9050    0.0000 C   0  0  0  0  0  0  0  0  0  0  0  0
    2.0000   -0.0950    0.0000 C   0  0  0  0  0  0  0  0  0  0  0  0
    2.8660   -1.5950    0.0000 C   0  0  0  0  0  0  0  0  0  0  0  0
    4.5981   -2.5950    0.0000 C   0  0  0  0  0  0  0  0  0  0  0  0
    8.9282   -0.0950    0.0000 C   0  0  0  0  0  0  0  0  0  0  0  0
    5.4641   -3.0950    0.0000 C   0  0  0  0  0  0  0  0  0  0  0  0
    3.7320   -3.0950    0.0000 C   0  0  0  0  0  0  0  0  0  0  0  0
   11.5263   -0.5950    0.0000 C   0  0  2  0  0  0  0  0  0  0  0  0
   10.6603   -0.0950    0.0000 C   0  0  0  0  0  0  0  0  0  0  0  0
   11.5263   -1.5950    0.0000 C   0  0  0  0  0  0  0  0  0  0  0  0
    5.4641   -4.0950    0.0000 C   0  0  0  0  0  0  0  0  0  0  0  0
    3.7320   -4.0950    0.0000 C   0  0  0  0  0  0  0  0  0  0  0  0
    4.5981   -4.5950    0.0000 C   0  0  0  0  0  0  0  0  0  0  0  0
   12.3923   -2.0950    0.0000 C   0  0  0  0  0  0  0  0  0  0  0  0
   12.3923    0.9050    0.0000 C   0  0  0  0  0  0  0  0  0  0  0  0
   13.2583   -1.5950    0.0000 C   0  0  0  0  0  0  0  0  0  0  0  0
   12.3923   -3.0950    0.0000 C   0  0  0  0  0  0  0  0  0  0  0  0
   13.2583    1.4050    0.0000 C   0  0  0  0  0  0  0  0  0  0  0  0
   13.2583    2.4050    0.0000 C   0  0  0  0  0  0  0  0  0  0  0  0
   14.1244   -2.0950    0.0000 C   0  0  0  0  0  0  0  0  0  0  0  0
   13.2583   -3.5950    0.0000 C   0  0  0  0  0  0  0  0  0  0  0  0
   14.1244   -3.0950    0.0000 C   0  0  0  0  0  0  0  0  0  0  0  0
   12.3923    2.9050    0.0000 C   0  0  0  0  0  0  0  0  0  0  0  0
   14.1244    2.9050    0.0000 C   0  0  0  0  0  0  0  0  0  0  0  0
   12.3923    3.9050    0.0000 C   0  0  0  0  0  0  0  0  0  0  0  0
   14.1244    3.9050    0.0000 C   0  0  0  0  0  0  0  0  0  0  0  0
   13.2583    4.4050    0.0000 C   0  0  0  0  0  0  0  0  0  0  0  0
   14.1244    5.9050    0.0000 C   0  0  0  0  0  0  0  0  0  0  0  0
    5.4641   -0.7150    0.0000 H   0  0  0  0  0  0  0  0  0  0  0  0
    5.9316   -1.0700    0.0000 H   0  0  0  0  0  0  0  0  0  0  0  0
    6.7287   -1.0700    0.0000 H   0  0  0  0  0  0  0  0  0  0  0  0
    4.1306    0.3799    0.0000 H   0  0  0  0  0  0  0  0  0  0  0  0
    3.3335    0.3799    0.0000 H   0  0  0  0  0  0  0  0  0  0  0  0
    2.8660    0.0250    0.0000 H   0  0  0  0  0  0  0  0  0  0  0  0
    7.5947    0.3799    0.0000 H   0  0  0  0  0  0  0  0  0  0  0  0
    6.7976    0.3799    0.0000 H   0  0  0  0  0  0  0  0  0  0  0  0
    7.6636   -1.0700    0.0000 H   0  0  0  0  0  0  0  0  0  0  0  0
    8.4607   -1.0700    0.0000 H   0  0  0  0  0  0  0  0  0  0  0  0
    2.3100    0.4419    0.0000 H   0  0  0  0  0  0  0  0  0  0  0  0
    1.4631    0.2150    0.0000 H   0  0  0  0  0  0  0  0  0  0  0  0
    1.6900   -0.6319    0.0000 H   0  0  0  0  0  0  0  0  0  0  0  0
    2.2460   -1.5950    0.0000 H   0  0  0  0  0  0  0  0  0  0  0  0
    2.8660   -2.2150    0.0000 H   0  0  0  0  0  0  0  0  0  0  0  0
    3.4860   -1.5950    0.0000 H   0  0  0  0  0  0  0  0  0  0  0  0
    9.3267    0.3799    0.0000 H   0  0  0  0  0  0  0  0  0  0  0  0
    8.5297    0.3799    0.0000 H   0  0  0  0  0  0  0  0  0  0  0  0
    9.7942   -1.2150    0.0000 H   0  0  0  0  0  0  0  0  0  0  0  0
    6.0010   -2.7850    0.0000 H   0  0  0  0  0  0  0  0  0  0  0  0
    3.1951   -2.7850    0.0000 H   0  0  0  0  0  0  0  0  0  0  0  0
   12.0632   -0.9050    0.0000 H   0  0  0  0  0  0  0  0  0  0  0  0
    6.3301    2.0250    0.0000 H   0  0  0  0  0  0  0  0  0  0  0  0
   10.9157   -1.4873    0.0000 H   0  0  0  0  0  0  0  0  0  0  0  0
   11.3142   -2.1776    0.0000 H   0  0  0  0  0  0  0  0  0  0  0  0
    6.0010   -4.4050    0.0000 H   0  0  0  0  0  0  0  0  0  0  0  0
    3.1951   -4.4050    0.0000 H   0  0  0  0  0  0  0  0  0  0  0  0
   12.9292   -0.4050    0.0000 H   0  0  0  0  0  0  0  0  0  0  0  0
   13.2583   -0.9750    0.0000 H   0  0  0  0  0  0  0  0  0  0  0  0
   11.8554   -3.4050    0.0000 H   0  0  0  0  0  0  0  0  0  0  0  0
   13.4704    0.8224    0.0000 H   0  0  0  0  0  0  0  0  0  0  0  0
   13.8689    1.5127    0.0000 H   0  0  0  0  0  0  0  0  0  0  0  0
    4.0611   -5.9050    0.0000 H   0  0  0  0  0  0  0  0  0  0  0  0
    5.1350   -5.9050    0.0000 H   0  0  0  0  0  0  0  0  0  0  0  0
   14.6613   -1.7850    0.0000 H   0  0  0  0  0  0  0  0  0  0  0  0
   13.2583   -4.2150    0.0000 H   0  0  0  0  0  0  0  0  0  0  0  0
   14.6613   -3.4050    0.0000 H   0  0  0  0  0  0  0  0  0  0  0  0
   11.8554    2.5950    0.0000 H   0  0  0  0  0  0  0  0  0  0  0  0
   14.6613    2.5950    0.0000 H   0  0  0  0  0  0  0  0  0  0  0  0
   11.8554    4.2150    0.0000 H   0  0  0  0  0  0  0  0  0  0  0  0
   14.6613    4.2150    0.0000 H   0  0  0  0  0  0  0  0  0  0  0  0
   14.4344    5.3681    0.0000 H   0  0  0  0  0  0  0  0  0  0  0  0
   14.6613    6.2150    0.0000 H   0  0  0  0  0  0  0  0  0  0  0  0
   13.8144    6.4419    0.0000 H   0  0  0  0  0  0  0  0  0  0  0  0
  1  2  2  0  0  0  0
  1  3  2  0  0  0  0
  1  9  1  0  0  0  0
  1 22  1  0  0  0  0
  4 19  1  0  0  0  0
  4 69  1  0  0  0  0
  5 19  2  0  0  0  0
  6 27  2  0  0  0  0
  7 33  2  0  0  0  0
  8 45  1  0  0  0  0
  8 46  1  0  0  0  0
 13  9  1  6  0  0  0
  9 15  1  0  0  0  0
 10 23  1  0  0  0  0
 10 27  1  0  0  0  0
 10 65  1  0  0  0  0
 26 11  1  1  0  0  0
 11 33  1  0  0  0  0
 11 74  1  0  0  0  0
 12 31  1  0  0  0  0
 12 79  1  0  0  0  0
 12 80  1  0  0  0  0
 13 14  1  0  0  0  0
 13 19  1  0  0  0  0
 13 47  1  0  0  0  0
 14 17  1  0  0  0  0
 14 48  1  0  0  0  0
 14 49  1  0  0  0  0
 15 16  1  0  0  0  0
 15 50  1  0  0  0  0
 15 51  1  0  0  0  0
 16 20  1  0  0  0  0
 16 21  1  0  0  0  0
 16 52  1  0  0  0  0
 17 18  1  0  0  0  0
 17 53  1  0  0  0  0
 17 54  1  0  0  0  0
 18 23  1  0  0  0  0
 18 55  1  0  0  0  0
 18 56  1  0  0  0  0
 20 57  1  0  0  0  0
 20 58  1  0  0  0  0
 20 59  1  0  0  0  0
 21 60  1  0  0  0  0
 21 61  1  0  0  0  0
 21 62  1  0  0  0  0
 22 24  2  0  0  0  0
 22 25  1  0  0  0  0
 23 63  1  0  0  0  0
 23 64  1  0  0  0  0
 24 29  1  0  0  0  0
 24 66  1  0  0  0  0
 25 30  2  0  0  0  0
 25 67  1  0  0  0  0
 26 27  1  0  0  0  0
 26 28  1  0  0  0  0
 26 68  1  0  0  0  0
 28 32  1  0  0  0  0
 28 70  1  0  0  0  0
 28 71  1  0  0  0  0
 29 31  2  0  0  0  0
 29 72  1  0  0  0  0
 30 31  1  0  0  0  0
 30 73  1  0  0  0  0
 32 34  2  0  0  0  0
 32 35  1  0  0  0  0
 33 36  1  0  0  0  0
 34 38  1  0  0  0  0
 34 75  1  0  0  0  0
 35 39  2  0  0  0  0
 35 76  1  0  0  0  0
 36 37  1  0  0  0  0
 36 77  1  0  0  0  0
 36 78  1  0  0  0  0
 37 41  2  0  0  0  0
 37 42  1  0  0  0  0
 38 40  2  0  0  0  0
 38 81  1  0  0  0  0
 39 40  1  0  0  0  0
 39 82  1  0  0  0  0
 40 83  1  0  0  0  0
 41 43  1  0  0  0  0
 41 84  1  0  0  0  0
 42 44  2  0  0  0  0
 42 85  1  0  0  0  0
 43 45  2  0  0  0  0
 43 86  1  0  0  0  0
 44 45  1  0  0  0  0
 44 87  1  0  0  0  0
 46 88  1  0  0  0  0
 46 89  1  0  0  0  0
 46 90  1  0  0  0  0
M  END
> <PUBCHEM_COMPOUND_CID>
508685
> <PUBCHEM_COMPOUND_CANONICALIZED>
1
> <PUBCHEM_CACTVS_COMPLEXITY>
1040
> <PUBCHEM_CACTVS_HBOND_ACCEPTOR>
9
> <PUBCHEM_CACTVS_HBOND_DONOR>
4
> <PUBCHEM_CACTVS_ROTATABLE_BOND>
18
> <PUBCHEM_CACTVS_SUBSKEYS>
AAADcfB/uABAAAAAAAAAAAAAAAAAAAAAAAAwYMAAAAAAAAABUAAAHgQQSAAADSzB2AYyz4LABgKIAiXSWHDCCBAgIgAIiJmObIgOZjKEtbuUcCBk1hGY6AeYyICOIAQAAAAAAABACAAAAAAAAAAAAAAAAA==
> <PUBCHEM_IUPAC_OPENEYE_NAME>
(2S)-2-[(4-aminophenyl)sulfonyl-isobutyl-amino]-6-[[(2S)-2-[[2-(4-methoxyphenyl)acetyl]amino]-3-phenyl-propanoyl]amino]hexanoic acid
> <PUBCHEM_IUPAC_CAS_NAME>
(2S)-2-[(4-aminophenyl)sulfonyl-(2-methylpropyl)amino]-6-[[(2S)-2-[[2-(4-methoxyphenyl)-1-oxoethyl]amino]-1-oxo-3-phenylpropyl]amino]hexanoic acid
> <PUBCHEM_IUPAC_NAME_MARKUP>
(2<I>S</I>)-2-[(4-aminophenyl)sulfonyl-(2-methylpropyl)amino]-6-[[(2<I>S</I>)-2-[[2-(4-methoxyphenyl)acetyl]amino]-3-phenylpropanoyl]amino]hexanoic acid
> <PUBCHEM_IUPAC_NAME>
(2S)-2-[(4-aminophenyl)sulfonyl-(2-methylpropyl)amino]-6-[[(2S)-2-[[2-(4-methoxyphenyl)acetyl]amino]-3-phenylpropanoyl]amino]hexanoic acid
> <PUBCHEM_IUPAC_SYSTEMATIC_NAME>
(2S)-2-[(4-aminophenyl)sulfonyl-(2-methylpropyl)amino]-6-[[(2S)-2-[2-(4-methoxyphenyl)ethanoylamino]-3-phenyl-propanoyl]amino]hexanoic acid
> <PUBCHEM_IUPAC_TRADITIONAL_NAME>
(2S)-2-[isobutyl(sulfanilyl)amino]-6-[[(2S)-2-[[2-(4-methoxyphenyl)acetyl]amino]-3-phenyl-propanoyl]amino]hexanoic acid
> <PUBCHEM_IUPAC_INCHI>
InChI=1S/C34H44N4O7S/c1-24(2)23-38(46(43,44)29-18-14-27(35)15-19-29)31(34(41)42)11-7-8-20-36-33(40)30(21-25-9-5-4-6-10-25)37-32(39)22-26-12-16-28(45-3)17-13-26/h4-6,9-10,12-19,24,30-31H,7-8,11,20-23,35H2,1-3H3,(H,36,40)(H,37,39)(H,41,42)/t30-,31-/m0/s1
> <PUBCHEM_IUPAC_INCHIKEY>
MCPSMCKNEVJJJK-CONSDPRKSA-N
> <PUBCHEM_XLOGP3_AA>
4.6
> <PUBCHEM_EXACT_MASS>
652.29307093
> <PUBCHEM_MOLECULAR_FORMULA>
C34H44N4O7S
> <PUBCHEM_MOLECULAR_WEIGHT>
652.8
> <PUBCHEM_OPENEYE_CAN_SMILES>
CC(C)CN(C(CCCCNC(=O)C(CC1=CC=CC=C1)NC(=O)CC2=CC=C(C=C2)OC)C(=O)O)S(=O)(=O)C3=CC=C(C=C3)N
> <PUBCHEM_OPENEYE_ISO_SMILES>
CC(C)CN([C@@H](CCCCNC(=O)[C@H](CC1=CC=CC=C1)NC(=O)CC2=CC=C(C=C2)OC)C(=O)O)S(=O)(=O)C3=CC=C(C=C3)N
> <PUBCHEM_CACTVS_TPSA>
177
> <PUBCHEM_MONOISOTOPIC_WEIGHT>
652.29307093
> <PUBCHEM_TOTAL_CHARGE>
0
> <PUBCHEM_HEAVY_ATOM_COUNT>
46
> <PUBCHEM_ATOM_DEF_STEREO_COUNT>
2
> <PUBCHEM_ATOM_UDEF_STEREO_COUNT>
0
> <PUBCHEM_BOND_DEF_STEREO_COUNT>
0
> <PUBCHEM_BOND_UDEF_STEREO_COUNT>
0
> <PUBCHEM_ISOTOPIC_ATOM_COUNT>
0
> <PUBCHEM_COMPONENT_COUNT>
1
> <PUBCHEM_CACTVS_TAUTO_COUNT>
-1
> <PUBCHEM_COORDINATE_TYPE>
1
5
255
> <PUBCHEM_BONDANNOTATIONS>
26  11  5
22  24  8
22  25  8
24  29  8
25  30  8
29  31  8
30  31  8
32  34  8
32  35  8
34  38  8
35  39  8
37  41  8
37  42  8
38  40  8
39  40  8
41  43  8
42  44  8
43  45  8
44  45  8
13  9  6
$$$$
