508648
  -OEChem-10302200282D
 90 92  0     1  0  0  0  0  0999 V2000
    3.7320    4.5000    0.0000 S   0  0  0  0  0  0  0  0  0  0  0  0
    6.3301   -4.0000    0.0000 S   0  0  0  0  0  0  0  0  0  0  0  0
    6.3301    3.0000    0.0000 O   0  0  0  0  0  0  0  0  0  0  0  0
    2.7320    4.5000    0.0000 O   0  0  0  0  0  0  0  0  0  0  0  0
    4.7320    4.5000    0.0000 O   0  0  0  0  0  0  0  0  0  0  0  0
    8.0622   -1.0000    0.0000 O   0  0  0  0  0  0  0  0  0  0  0  0
    7.3301   -4.0000    0.0000 O   0  0  0  0  0  0  0  0  0  0  0  0
    5.3301   -4.0000    0.0000 O   0  0  0  0  0  0  0  0  0  0  0  0
    6.3301   -8.0000    0.0000 O   0  0  0  0  0  0  0  0  0  0  0  0
    3.7320    3.5000    0.0000 N   0  0  3  0  0  0  0  0  0  0  0  0
    6.3301   -1.0000    0.0000 N   0  0  0  0  0  0  0  0  0  0  0  0
    6.3301   -3.0000    0.0000 N   0  0  0  0  0  0  0  0  0  0  0  0
    4.5981    3.0000    0.0000 C   0  0  1  0  0  0  0  0  0  0  0  0
    4.5981    2.0000    0.0000 C   0  0  0  0  0  0  0  0  0  0  0  0
    2.8660    3.0000    0.0000 C   0  0  0  0  0  0  0  0  0  0  0  0
    5.4641    1.5000    0.0000 C   0  0  0  0  0  0  0  0  0  0  0  0
    2.8660    2.0000    0.0000 C   0  0  0  0  0  0  0  0  0  0  0  0
    5.4641    3.5000    0.0000 C   0  0  0  0  0  0  0  0  0  0  0  0
    5.4641    0.5000    0.0000 C   0  0  0  0  0  0  0  0  0  0  0  0
    3.7320    5.5000    0.0000 C   0  0  0  0  0  0  0  0  0  0  0  0
    2.0000    1.5000    0.0000 C   0  0  0  0  0  0  0  0  0  0  0  0
    3.7320    1.5000    0.0000 C   0  0  0  0  0  0  0  0  0  0  0  0
    6.3301    0.0000    0.0000 C   0  0  0  0  0  0  0  0  0  0  0  0
    4.5981    6.0000    0.0000 C   0  0  0  0  0  0  0  0  0  0  0  0
    2.8660    6.0000    0.0000 C   0  0  0  0  0  0  0  0  0  0  0  0
    7.1962   -2.5000    0.0000 C   0  0  2  0  0  0  0  0  0  0  0  0
    7.1962   -1.5000    0.0000 C   0  0  0  0  0  0  0  0  0  0  0  0
    8.0622   -3.0000    0.0000 C   0  0  0  0  0  0  0  0  0  0  0  0
    4.5981    7.0000    0.0000 C   0  0  0  0  0  0  0  0  0  0  0  0
    2.8660    7.0000    0.0000 C   0  0  0  0  0  0  0  0  0  0  0  0
    3.7320    7.5000    0.0000 C   0  0  0  0  0  0  0  0  0  0  0  0
    8.9282   -2.5000    0.0000 C   0  0  0  0  0  0  0  0  0  0  0  0
    3.7320    8.5000    0.0000 C   0  0  0  0  0  0  0  0  0  0  0  0
    6.3301   -5.0000    0.0000 C   0  0  0  0  0  0  0  0  0  0  0  0
    8.9282   -1.5000    0.0000 C   0  0  0  0  0  0  0  0  0  0  0  0
    9.7942   -3.0000    0.0000 C   0  0  0  0  0  0  0  0  0  0  0  0
    7.1962   -5.5000    0.0000 C   0  0  0  0  0  0  0  0  0  0  0  0
    5.4641   -5.5000    0.0000 C   0  0  0  0  0  0  0  0  0  0  0  0
    9.7942   -1.0000    0.0000 C   0  0  0  0  0  0  0  0  0  0  0  0
   10.6603   -2.5000    0.0000 C   0  0  0  0  0  0  0  0  0  0  0  0
   10.6603   -1.5000    0.0000 C   0  0  0  0  0  0  0  0  0  0  0  0
    7.1962   -6.5000    0.0000 C   0  0  0  0  0  0  0  0  0  0  0  0
    5.4641   -6.5000    0.0000 C   0  0  0  0  0  0  0  0  0  0  0  0
    6.3301   -7.0000    0.0000 C   0  0  0  0  0  0  0  0  0  0  0  0
    5.4641   -8.5000    0.0000 C   0  0  0  0  0  0  0  0  0  0  0  0
    4.5981    3.6200    0.0000 H   0  0  0  0  0  0  0  0  0  0  0  0
    3.9875    2.1077    0.0000 H   0  0  0  0  0  0  0  0  0  0  0  0
    4.3860    1.4174    0.0000 H   0  0  0  0  0  0  0  0  0  0  0  0
    2.6540    3.5826    0.0000 H   0  0  0  0  0  0  0  0  0  0  0  0
    2.2554    2.8923    0.0000 H   0  0  0  0  0  0  0  0  0  0  0  0
    6.0747    1.3923    0.0000 H   0  0  0  0  0  0  0  0  0  0  0  0
    5.6762    2.0826    0.0000 H   0  0  0  0  0  0  0  0  0  0  0  0
    2.8660    1.3800    0.0000 H   0  0  0  0  0  0  0  0  0  0  0  0
    5.8626    3.9750    0.0000 H   0  0  0  0  0  0  0  0  0  0  0  0
    5.0656    3.9750    0.0000 H   0  0  0  0  0  0  0  0  0  0  0  0
    4.8535    0.6077    0.0000 H   0  0  0  0  0  0  0  0  0  0  0  0
    5.2520   -0.0826    0.0000 H   0  0  0  0  0  0  0  0  0  0  0  0
    1.6900    2.0369    0.0000 H   0  0  0  0  0  0  0  0  0  0  0  0
    1.4631    1.1900    0.0000 H   0  0  0  0  0  0  0  0  0  0  0  0
    2.3100    0.9631    0.0000 H   0  0  0  0  0  0  0  0  0  0  0  0
    3.4220    0.9631    0.0000 H   0  0  0  0  0  0  0  0  0  0  0  0
    4.2690    1.1900    0.0000 H   0  0  0  0  0  0  0  0  0  0  0  0
    4.0420    2.0369    0.0000 H   0  0  0  0  0  0  0  0  0  0  0  0
    6.9407   -0.1077    0.0000 H   0  0  0  0  0  0  0  0  0  0  0  0
    6.5422    0.5826    0.0000 H   0  0  0  0  0  0  0  0  0  0  0  0
    6.8671    3.3100    0.0000 H   0  0  0  0  0  0  0  0  0  0  0  0
    5.7932   -1.3100    0.0000 H   0  0  0  0  0  0  0  0  0  0  0  0
    5.1350    5.6900    0.0000 H   0  0  0  0  0  0  0  0  0  0  0  0
    2.3291    5.6900    0.0000 H   0  0  0  0  0  0  0  0  0  0  0  0
    6.6592   -2.1900    0.0000 H   0  0  0  0  0  0  0  0  0  0  0  0
    7.6636   -3.4750    0.0000 H   0  0  0  0  0  0  0  0  0  0  0  0
    8.4607   -3.4750    0.0000 H   0  0  0  0  0  0  0  0  0  0  0  0
    5.1350    7.3100    0.0000 H   0  0  0  0  0  0  0  0  0  0  0  0
    2.3291    7.3100    0.0000 H   0  0  0  0  0  0  0  0  0  0  0  0
    5.7932   -2.6900    0.0000 H   0  0  0  0  0  0  0  0  0  0  0  0
    4.3520    8.5000    0.0000 H   0  0  0  0  0  0  0  0  0  0  0  0
    3.7320    9.1200    0.0000 H   0  0  0  0  0  0  0  0  0  0  0  0
    3.1120    8.5000    0.0000 H   0  0  0  0  0  0  0  0  0  0  0  0
    8.3913   -1.1900    0.0000 H   0  0  0  0  0  0  0  0  0  0  0  0
    9.7942   -3.6200    0.0000 H   0  0  0  0  0  0  0  0  0  0  0  0
    7.7331   -5.1900    0.0000 H   0  0  0  0  0  0  0  0  0  0  0  0
    4.9272   -5.1900    0.0000 H   0  0  0  0  0  0  0  0  0  0  0  0
    9.7942   -0.3800    0.0000 H   0  0  0  0  0  0  0  0  0  0  0  0
   11.1972   -2.8100    0.0000 H   0  0  0  0  0  0  0  0  0  0  0  0
   11.1972   -1.1900    0.0000 H   0  0  0  0  0  0  0  0  0  0  0  0
    7.7331   -6.8100    0.0000 H   0  0  0  0  0  0  0  0  0  0  0  0
    4.9272   -6.8100    0.0000 H   0  0  0  0  0  0  0  0  0  0  0  0
    5.1541   -7.9631    0.0000 H   0  0  0  0  0  0  0  0  0  0  0  0
    4.9272   -8.8100    0.0000 H   0  0  0  0  0  0  0  0  0  0  0  0
    5.7741   -9.0369    0.0000 H   0  0  0  0  0  0  0  0  0  0  0  0
  1  4  2  0  0  0  0
  1  5  2  0  0  0  0
  1 10  1  0  0  0  0
  1 20  1  0  0  0  0
  2  7  2  0  0  0  0
  2  8  2  0  0  0  0
  2 12  1  0  0  0  0
  2 34  1  0  0  0  0
  3 18  1  0  0  0  0
  3 66  1  0  0  0  0
  6 27  2  0  0  0  0
  9 44  1  0  0  0  0
  9 45  1  0  0  0  0
 13 10  1  6  0  0  0
 10 15  1  0  0  0  0
 11 23  1  0  0  0  0
 11 27  1  0  0  0  0
 11 67  1  0  0  0  0
 26 12  1  6  0  0  0
 12 75  1  0  0  0  0
 13 14  1  0  0  0  0
 13 18  1  0  0  0  0
 13 46  1  0  0  0  0
 14 16  1  0  0  0  0
 14 47  1  0  0  0  0
 14 48  1  0  0  0  0
 15 17  1  0  0  0  0
 15 49  1  0  0  0  0
 15 50  1  0  0  0  0
 16 19  1  0  0  0  0
 16 51  1  0  0  0  0
 16 52  1  0  0  0  0
 17 21  1  0  0  0  0
 17 22  1  0  0  0  0
 17 53  1  0  0  0  0
 18 54  1  0  0  0  0
 18 55  1  0  0  0  0
 19 23  1  0  0  0  0
 19 56  1  0  0  0  0
 19 57  1  0  0  0  0
 20 24  2  0  0  0  0
 20 25  1  0  0  0  0
 21 58  1  0  0  0  0
 21 59  1  0  0  0  0
 21 60  1  0  0  0  0
 22 61  1  0  0  0  0
 22 62  1  0  0  0  0
 22 63  1  0  0  0  0
 23 64  1  0  0  0  0
 23 65  1  0  0  0  0
 24 29  1  0  0  0  0
 24 68  1  0  0  0  0
 25 30  2  0  0  0  0
 25 69  1  0  0  0  0
 26 27  1  0  0  0  0
 26 28  1  0  0  0  0
 26 70  1  0  0  0  0
 28 32  1  0  0  0  0
 28 71  1  0  0  0  0
 28 72  1  0  0  0  0
 29 31  2  0  0  0  0
 29 73  1  0  0  0  0
 30 31  1  0  0  0  0
 30 74  1  0  0  0  0
 31 33  1  0  0  0  0
 32 35  2  0  0  0  0
 32 36  1  0  0  0  0
 33 76  1  0  0  0  0
 33 77  1  0  0  0  0
 33 78  1  0  0  0  0
 34 37  2  0  0  0  0
 34 38  1  0  0  0  0
 35 39  1  0  0  0  0
 35 79  1  0  0  0  0
 36 40  2  0  0  0  0
 36 80  1  0  0  0  0
 37 42  1  0  0  0  0
 37 81  1  0  0  0  0
 38 43  2  0  0  0  0
 38 82  1  0  0  0  0
 39 41  2  0  0  0  0
 39 83  1  0  0  0  0
 40 41  1  0  0  0  0
 40 84  1  0  0  0  0
 41 85  1  0  0  0  0
 42 44  2  0  0  0  0
 42 86  1  0  0  0  0
 43 44  1  0  0  0  0
 43 87  1  0  0  0  0
 45 88  1  0  0  0  0
 45 89  1  0  0  0  0
 45 90  1  0  0  0  0
M  END
> <PUBCHEM_COMPOUND_CID>
508648
> <PUBCHEM_COMPOUND_CANONICALIZED>
1
> <PUBCHEM_CACTVS_COMPLEXITY>
1070
> <PUBCHEM_CACTVS_HBOND_ACCEPTOR>
9
> <PUBCHEM_CACTVS_HBOND_DONOR>
3
> <PUBCHEM_CACTVS_ROTATABLE_BOND>
18
> <PUBCHEM_CACTVS_SUBSKEYS>
AAADcfB/OABgAAAAAAAAAAAAAAAAAAAAAAAwYMAAAAAAAAABUAAAHgQQSAAADSzh2AYyB4LABgKIAiFSEHBCCBAgIAAIiJmOCIgOdjKEsRuUcCAk1hGYqAeYyICOEIAAAAAAAAAhAAAAAAAAAAAAAAAAAA==
> <PUBCHEM_IUPAC_OPENEYE_NAME>
(2S)-N-[(5S)-6-hydroxy-5-[isobutyl(p-tolylsulfonyl)amino]hexyl]-2-[(4-methoxyphenyl)sulfonylamino]-3-phenyl-propanamide
> <PUBCHEM_IUPAC_CAS_NAME>
(2S)-N-[(5S)-6-hydroxy-5-[(4-methylphenyl)sulfonyl-(2-methylpropyl)amino]hexyl]-2-[(4-methoxyphenyl)sulfonylamino]-3-phenylpropanamide
> <PUBCHEM_IUPAC_NAME_MARKUP>
(2<I>S</I>)-<I>N</I>-[(5<I>S</I>)-6-hydroxy-5-[(4-methylphenyl)sulfonyl-(2-methylpropyl)amino]hexyl]-2-[(4-methoxyphenyl)sulfonylamino]-3-phenylpropanamide
> <PUBCHEM_IUPAC_NAME>
(2S)-N-[(5S)-6-hydroxy-5-[(4-methylphenyl)sulfonyl-(2-methylpropyl)amino]hexyl]-2-[(4-methoxyphenyl)sulfonylamino]-3-phenylpropanamide
> <PUBCHEM_IUPAC_SYSTEMATIC_NAME>
(2S)-2-[(4-methoxyphenyl)sulfonylamino]-N-[(5S)-5-[(4-methylphenyl)sulfonyl-(2-methylpropyl)amino]-6-oxidanyl-hexyl]-3-phenyl-propanamide
> <PUBCHEM_IUPAC_TRADITIONAL_NAME>
(2S)-N-[(5S)-6-hydroxy-5-[isobutyl(tosyl)amino]hexyl]-2-[(4-methoxyphenyl)sulfonylamino]-3-phenyl-propionamide
> <PUBCHEM_IUPAC_INCHI>
InChI=1S/C33H45N3O7S2/c1-25(2)23-36(45(41,42)31-17-13-26(3)14-18-31)28(24-37)12-8-9-21-34-33(38)32(22-27-10-6-5-7-11-27)35-44(39,40)30-19-15-29(43-4)16-20-30/h5-7,10-11,13-20,25,28,32,35,37H,8-9,12,21-24H2,1-4H3,(H,34,38)/t28-,32-/m0/s1
> <PUBCHEM_IUPAC_INCHIKEY>
HZACJPFSUNHCBJ-IUDBTDONSA-N
> <PUBCHEM_XLOGP3_AA>
5.2
> <PUBCHEM_EXACT_MASS>
659.26989313
> <PUBCHEM_MOLECULAR_FORMULA>
C33H45N3O7S2
> <PUBCHEM_MOLECULAR_WEIGHT>
659.9
> <PUBCHEM_OPENEYE_CAN_SMILES>
CC1=CC=C(C=C1)S(=O)(=O)N(CC(C)C)C(CCCCNC(=O)C(CC2=CC=CC=C2)NS(=O)(=O)C3=CC=C(C=C3)OC)CO
> <PUBCHEM_OPENEYE_ISO_SMILES>
CC1=CC=C(C=C1)S(=O)(=O)N(CC(C)C)[C@@H](CCCCNC(=O)[C@H](CC2=CC=CC=C2)NS(=O)(=O)C3=CC=C(C=C3)OC)CO
> <PUBCHEM_CACTVS_TPSA>
159
> <PUBCHEM_MONOISOTOPIC_WEIGHT>
659.26989313
> <PUBCHEM_TOTAL_CHARGE>
0
> <PUBCHEM_HEAVY_ATOM_COUNT>
45
> <PUBCHEM_ATOM_DEF_STEREO_COUNT>
2
> <PUBCHEM_ATOM_UDEF_STEREO_COUNT>
0
> <PUBCHEM_BOND_DEF_STEREO_COUNT>
0
> <PUBCHEM_BOND_UDEF_STEREO_COUNT>
0
> <PUBCHEM_ISOTOPIC_ATOM_COUNT>
0
> <PUBCHEM_COMPONENT_COUNT>
1
> <PUBCHEM_CACTVS_TAUTO_COUNT>
-1
> <PUBCHEM_COORDINATE_TYPE>
1
5
255
> <PUBCHEM_BONDANNOTATIONS>
13  10  6
26  12  6
20  24  8
20  25  8
24  29  8
25  30  8
29  31  8
30  31  8
32  35  8
32  36  8
34  37  8
34  38  8
35  39  8
36  40  8
37  42  8
38  43  8
39  41  8
40  41  8
42  44  8
43  44  8
$$$$
