508652
  -OEChem-10302200282D
 92 95  0     1  0  0  0  0  0999 V2000
    9.3928   -4.5061    0.0000 S   0  0  0  0  0  0  0  0  0  0  0  0
    5.6499    3.5556    0.0000 S   0  0  0  0  0  0  0  0  0  0  0  0
   10.6820   -3.3494    0.0000 O   0  0  0  0  0  0  0  0  0  0  0  0
    8.6485   -5.1739    0.0000 O   0  0  0  0  0  0  0  0  0  0  0  0
   10.1371   -3.8382    0.0000 O   0  0  0  0  0  0  0  0  0  0  0  0
    6.3642    0.1659    0.0000 O   0  0  0  0  0  0  0  0  0  0  0  0
    6.3942    4.2234    0.0000 O   0  0  0  0  0  0  0  0  0  0  0  0
    4.9056    2.8877    0.0000 O   0  0  0  0  0  0  0  0  0  0  0  0
    3.2892    7.4833    0.0000 O   0  5  0  0  0  0  0  0  0  0  0  0
    2.0000    6.3266    0.0000 O   0  0  0  0  0  0  0  0  0  0  0  0
    8.7250   -3.7618    0.0000 N   0  0  3  0  0  0  0  0  0  0  0  0
    7.6534    1.3227    0.0000 N   0  0  0  0  0  0  0  0  0  0  0  0
    6.3177    2.8113    0.0000 N   0  0  0  0  0  0  0  0  0  0  0  0
    4.7179   -0.9054    0.0000 N   0  0  0  0  0  0  0  0  0  0  0  0
    2.9785    6.5328    0.0000 N   0  3  0  0  0  0  0  0  0  0  0  0
    9.0356   -2.8113    0.0000 C   0  0  1  0  0  0  0  0  0  0  0  0
    8.3678   -2.0670    0.0000 C   0  0  0  0  0  0  0  0  0  0  0  0
    7.7464   -3.9680    0.0000 C   0  0  0  0  0  0  0  0  0  0  0  0
    8.6784   -1.1164    0.0000 C   0  0  0  0  0  0  0  0  0  0  0  0
    7.0786   -3.2237    0.0000 C   0  0  0  0  0  0  0  0  0  0  0  0
   10.0141   -2.6051    0.0000 C   0  0  0  0  0  0  0  0  0  0  0  0
    8.0106   -0.3722    0.0000 C   0  0  0  0  0  0  0  0  0  0  0  0
    8.3212    0.5784    0.0000 C   0  0  0  0  0  0  0  0  0  0  0  0
   10.0606   -5.2504    0.0000 C   0  0  0  0  0  0  0  0  0  0  0  0
    6.1001   -3.4299    0.0000 C   0  0  0  0  0  0  0  0  0  0  0  0
    7.3893   -2.2732    0.0000 C   0  0  0  0  0  0  0  0  0  0  0  0
    6.0071    1.8608    0.0000 C   0  0  1  0  0  0  0  0  0  0  0  0
    5.0286    1.6545    0.0000 C   0  0  0  0  0  0  0  0  0  0  0  0
    6.6749    1.1164    0.0000 C   0  0  0  0  0  0  0  0  0  0  0  0
    9.7500   -6.2009    0.0000 C   0  0  0  0  0  0  0  0  0  0  0  0
   11.0391   -5.0442    0.0000 C   0  0  0  0  0  0  0  0  0  0  0  0
    4.7179    0.7040    0.0000 C   0  0  0  0  0  0  0  0  0  0  0  0
    3.7717    0.3993    0.0000 C   0  0  0  0  0  0  0  0  0  0  0  0
   10.4178   -6.9452    0.0000 C   0  0  0  0  0  0  0  0  0  0  0  0
   11.7070   -5.7885    0.0000 C   0  0  0  0  0  0  0  0  0  0  0  0
   11.3963   -6.7390    0.0000 C   0  0  0  0  0  0  0  0  0  0  0  0
    5.3015   -0.1007    0.0000 C   0  0  0  0  0  0  0  0  0  0  0  0
    3.7717   -0.6007    0.0000 C   0  0  0  0  0  0  0  0  0  0  0  0
    2.9056    0.8993    0.0000 C   0  0  0  0  0  0  0  0  0  0  0  0
    4.9820    4.2999    0.0000 C   0  0  0  0  0  0  0  0  0  0  0  0
   12.0642   -7.4833    0.0000 C   0  0  0  0  0  0  0  0  0  0  0  0
    2.9056   -1.1007    0.0000 C   0  0  0  0  0  0  0  0  0  0  0  0
    2.0396    0.3993    0.0000 C   0  0  0  0  0  0  0  0  0  0  0  0
    2.0396   -0.6007    0.0000 C   0  0  0  0  0  0  0  0  0  0  0  0
    5.2927    5.2504    0.0000 C   0  0  0  0  0  0  0  0  0  0  0  0
    4.0035    4.0937    0.0000 C   0  0  0  0  0  0  0  0  0  0  0  0
    4.6249    5.9947    0.0000 C   0  0  0  0  0  0  0  0  0  0  0  0
    3.3357    4.8380    0.0000 C   0  0  0  0  0  0  0  0  0  0  0  0
    3.6464    5.7885    0.0000 C   0  0  0  0  0  0  0  0  0  0  0  0
    9.4497   -3.2727    0.0000 H   0  0  0  0  0  0  0  0  0  0  0  0
    7.8208   -1.7750    0.0000 H   0  0  0  0  0  0  0  0  0  0  0  0
    7.9852   -2.5549    0.0000 H   0  0  0  0  0  0  0  0  0  0  0  0
    7.2201   -4.2956    0.0000 H   0  0  0  0  0  0  0  0  0  0  0  0
    7.9777   -4.5433    0.0000 H   0  0  0  0  0  0  0  0  0  0  0  0
    9.2254   -1.4085    0.0000 H   0  0  0  0  0  0  0  0  0  0  0  0
    9.0610   -0.6285    0.0000 H   0  0  0  0  0  0  0  0  0  0  0  0
    7.6853   -3.0959    0.0000 H   0  0  0  0  0  0  0  0  0  0  0  0
   10.5405   -2.2774    0.0000 H   0  0  0  0  0  0  0  0  0  0  0  0
    9.7829   -2.0298    0.0000 H   0  0  0  0  0  0  0  0  0  0  0  0
    7.4637   -0.0801    0.0000 H   0  0  0  0  0  0  0  0  0  0  0  0
    7.6280   -0.8601    0.0000 H   0  0  0  0  0  0  0  0  0  0  0  0
    8.8682    0.2864    0.0000 H   0  0  0  0  0  0  0  0  0  0  0  0
    8.7038    1.0663    0.0000 H   0  0  0  0  0  0  0  0  0  0  0  0
    5.9722   -2.8233    0.0000 H   0  0  0  0  0  0  0  0  0  0  0  0
    5.4934   -3.5578    0.0000 H   0  0  0  0  0  0  0  0  0  0  0  0
    6.2280   -4.0366    0.0000 H   0  0  0  0  0  0  0  0  0  0  0  0
    7.9786   -2.4658    0.0000 H   0  0  0  0  0  0  0  0  0  0  0  0
    7.5819   -1.6839    0.0000 H   0  0  0  0  0  0  0  0  0  0  0  0
    6.8000   -2.0806    0.0000 H   0  0  0  0  0  0  0  0  0  0  0  0
    5.5930    2.3222    0.0000 H   0  0  0  0  0  0  0  0  0  0  0  0
    7.8460    1.9120    0.0000 H   0  0  0  0  0  0  0  0  0  0  0  0
    5.0080    2.2742    0.0000 H   0  0  0  0  0  0  0  0  0  0  0  0
    4.4147    1.7419    0.0000 H   0  0  0  0  0  0  0  0  0  0  0  0
   11.2886   -3.2215    0.0000 H   0  0  0  0  0  0  0  0  0  0  0  0
    9.1433   -6.3288    0.0000 H   0  0  0  0  0  0  0  0  0  0  0  0
   11.2318   -4.4549    0.0000 H   0  0  0  0  0  0  0  0  0  0  0  0
    6.9244    2.9391    0.0000 H   0  0  0  0  0  0  0  0  0  0  0  0
   10.2252   -7.5345    0.0000 H   0  0  0  0  0  0  0  0  0  0  0  0
   12.3137   -5.6606    0.0000 H   0  0  0  0  0  0  0  0  0  0  0  0
    5.9215   -0.1007    0.0000 H   0  0  0  0  0  0  0  0  0  0  0  0
    4.9105   -1.4948    0.0000 H   0  0  0  0  0  0  0  0  0  0  0  0
    2.9056    1.5193    0.0000 H   0  0  0  0  0  0  0  0  0  0  0  0
   11.6027   -7.8974    0.0000 H   0  0  0  0  0  0  0  0  0  0  0  0
   12.4782   -7.9448    0.0000 H   0  0  0  0  0  0  0  0  0  0  0  0
   12.5256   -7.0692    0.0000 H   0  0  0  0  0  0  0  0  0  0  0  0
    2.9056   -1.7207    0.0000 H   0  0  0  0  0  0  0  0  0  0  0  0
    1.5027    0.7093    0.0000 H   0  0  0  0  0  0  0  0  0  0  0  0
    1.5027   -0.9107    0.0000 H   0  0  0  0  0  0  0  0  0  0  0  0
    5.8994    5.3783    0.0000 H   0  0  0  0  0  0  0  0  0  0  0  0
    3.8109    3.5043    0.0000 H   0  0  0  0  0  0  0  0  0  0  0  0
    4.8175    6.5840    0.0000 H   0  0  0  0  0  0  0  0  0  0  0  0
    2.7290    4.7101    0.0000 H   0  0  0  0  0  0  0  0  0  0  0  0
  1  4  2  0  0  0  0
  1  5  2  0  0  0  0
  1 11  1  0  0  0  0
  1 24  1  0  0  0  0
  2  7  2  0  0  0  0
  2  8  2  0  0  0  0
  2 13  1  0  0  0  0
  2 40  1  0  0  0  0
  3 21  1  0  0  0  0
  3 74  1  0  0  0  0
  6 29  2  0  0  0  0
  9 15  1  0  0  0  0
 10 15  2  0  0  0  0
 16 11  1  1  0  0  0
 11 18  1  0  0  0  0
 12 23  1  0  0  0  0
 12 29  1  0  0  0  0
 12 71  1  0  0  0  0
 27 13  1  6  0  0  0
 13 77  1  0  0  0  0
 14 37  1  0  0  0  0
 14 38  1  0  0  0  0
 14 81  1  0  0  0  0
 15 49  1  0  0  0  0
 16 17  1  0  0  0  0
 16 21  1  0  0  0  0
 16 50  1  0  0  0  0
 17 19  1  0  0  0  0
 17 51  1  0  0  0  0
 17 52  1  0  0  0  0
 18 20  1  0  0  0  0
 18 53  1  0  0  0  0
 18 54  1  0  0  0  0
 19 22  1  0  0  0  0
 19 55  1  0  0  0  0
 19 56  1  0  0  0  0
 20 25  1  0  0  0  0
 20 26  1  0  0  0  0
 20 57  1  0  0  0  0
 21 58  1  0  0  0  0
 21 59  1  0  0  0  0
 22 23  1  0  0  0  0
 22 60  1  0  0  0  0
 22 61  1  0  0  0  0
 23 62  1  0  0  0  0
 23 63  1  0  0  0  0
 24 30  2  0  0  0  0
 24 31  1  0  0  0  0
 25 64  1  0  0  0  0
 25 65  1  0  0  0  0
 25 66  1  0  0  0  0
 26 67  1  0  0  0  0
 26 68  1  0  0  0  0
 26 69  1  0  0  0  0
 27 28  1  0  0  0  0
 27 29  1  0  0  0  0
 27 70  1  0  0  0  0
 28 32  1  0  0  0  0
 28 72  1  0  0  0  0
 28 73  1  0  0  0  0
 30 34  1  0  0  0  0
 30 75  1  0  0  0  0
 31 35  2  0  0  0  0
 31 76  1  0  0  0  0
 32 33  1  0  0  0  0
 32 37  2  0  0  0  0
 33 38  1  0  0  0  0
 33 39  2  0  0  0  0
 34 36  2  0  0  0  0
 34 78  1  0  0  0  0
 35 36  1  0  0  0  0
 35 79  1  0  0  0  0
 36 41  1  0  0  0  0
 37 80  1  0  0  0  0
 38 42  2  0  0  0  0
 39 43  1  0  0  0  0
 39 82  1  0  0  0  0
 40 45  2  0  0  0  0
 40 46  1  0  0  0  0
 41 83  1  0  0  0  0
 41 84  1  0  0  0  0
 41 85  1  0  0  0  0
 42 44  1  0  0  0  0
 42 86  1  0  0  0  0
 43 44  2  0  0  0  0
 43 87  1  0  0  0  0
 44 88  1  0  0  0  0
 45 47  1  0  0  0  0
 45 89  1  0  0  0  0
 46 48  2  0  0  0  0
 46 90  1  0  0  0  0
 47 49  2  0  0  0  0
 47 91  1  0  0  0  0
 48 49  1  0  0  0  0
 48 92  1  0  0  0  0
M  CHG  2   9  -1  15   1
M  END
> <PUBCHEM_COMPOUND_CID>
508652
> <PUBCHEM_COMPOUND_CANONICALIZED>
1
> <PUBCHEM_CACTVS_COMPLEXITY>
1270
> <PUBCHEM_CACTVS_HBOND_ACCEPTOR>
10
> <PUBCHEM_CACTVS_HBOND_DONOR>
4
> <PUBCHEM_CACTVS_ROTATABLE_BOND>
17
> <PUBCHEM_CACTVS_SUBSKEYS>
AAADcfB/vABgAAAAAAAAAAAAAAAAAWAAAAAwYMAAAAAAAFgB9AAAHgQUSAAADSjh3gY+wfLZ0gKpAzV3V3DCgDAxAiAo2bm4ZJoKcPLAkZGUYAhklgDYyAeYycCOkAQAAAACAAAgCAAAAAQAAAAAAAAAAA==
> <PUBCHEM_IUPAC_OPENEYE_NAME>
(2S)-N-[(5S)-6-hydroxy-5-[isobutyl(p-tolylsulfonyl)amino]hexyl]-3-(1H-indol-3-yl)-2-[(4-nitrophenyl)sulfonylamino]propanamide
> <PUBCHEM_IUPAC_CAS_NAME>
(2S)-N-[(5S)-6-hydroxy-5-[(4-methylphenyl)sulfonyl-(2-methylpropyl)amino]hexyl]-3-(1H-indol-3-yl)-2-[(4-nitrophenyl)sulfonylamino]propanamide
> <PUBCHEM_IUPAC_NAME_MARKUP>
(2<I>S</I>)-<I>N</I>-[(5<I>S</I>)-6-hydroxy-5-[(4-methylphenyl)sulfonyl-(2-methylpropyl)amino]hexyl]-3-(1<I>H</I>-indol-3-yl)-2-[(4-nitrophenyl)sulfonylamino]propanamide
> <PUBCHEM_IUPAC_NAME>
(2S)-N-[(5S)-6-hydroxy-5-[(4-methylphenyl)sulfonyl-(2-methylpropyl)amino]hexyl]-3-(1H-indol-3-yl)-2-[(4-nitrophenyl)sulfonylamino]propanamide
> <PUBCHEM_IUPAC_SYSTEMATIC_NAME>
(2S)-3-(1H-indol-3-yl)-N-[(5S)-5-[(4-methylphenyl)sulfonyl-(2-methylpropyl)amino]-6-oxidanyl-hexyl]-2-[(4-nitrophenyl)sulfonylamino]propanamide
> <PUBCHEM_IUPAC_TRADITIONAL_NAME>
(2S)-N-[(5S)-6-hydroxy-5-[isobutyl(tosyl)amino]hexyl]-3-(1H-indol-3-yl)-2-(nosylamino)propionamide
> <PUBCHEM_IUPAC_INCHI>
InChI=1S/C34H43N5O8S2/c1-24(2)22-38(49(46,47)30-15-11-25(3)12-16-30)28(23-40)8-6-7-19-35-34(41)33(20-26-21-36-32-10-5-4-9-31(26)32)37-48(44,45)29-17-13-27(14-18-29)39(42)43/h4-5,9-18,21,24,28,33,36-37,40H,6-8,19-20,22-23H2,1-3H3,(H,35,41)/t28-,33-/m0/s1
> <PUBCHEM_IUPAC_INCHIKEY>
ZMZZQGPNOQODEI-UVMMSNCQSA-N
> <PUBCHEM_XLOGP3_AA>
5.2
> <PUBCHEM_EXACT_MASS>
713.25530569
> <PUBCHEM_MOLECULAR_FORMULA>
C34H43N5O8S2
> <PUBCHEM_MOLECULAR_WEIGHT>
713.9
> <PUBCHEM_OPENEYE_CAN_SMILES>
CC1=CC=C(C=C1)S(=O)(=O)N(CC(C)C)C(CCCCNC(=O)C(CC2=CNC3=CC=CC=C32)NS(=O)(=O)C4=CC=C(C=C4)[N+](=O)[O-])CO
> <PUBCHEM_OPENEYE_ISO_SMILES>
CC1=CC=C(C=C1)S(=O)(=O)N(CC(C)C)[C@@H](CCCCNC(=O)[C@H](CC2=CNC3=CC=CC=C32)NS(=O)(=O)C4=CC=C(C=C4)[N+](=O)[O-])CO
> <PUBCHEM_CACTVS_TPSA>
211
> <PUBCHEM_MONOISOTOPIC_WEIGHT>
713.25530569
> <PUBCHEM_TOTAL_CHARGE>
0
> <PUBCHEM_HEAVY_ATOM_COUNT>
49
> <PUBCHEM_ATOM_DEF_STEREO_COUNT>
2
> <PUBCHEM_ATOM_UDEF_STEREO_COUNT>
0
> <PUBCHEM_BOND_DEF_STEREO_COUNT>
0
> <PUBCHEM_BOND_UDEF_STEREO_COUNT>
0
> <PUBCHEM_ISOTOPIC_ATOM_COUNT>
0
> <PUBCHEM_COMPONENT_COUNT>
1
> <PUBCHEM_CACTVS_TAUTO_COUNT>
-1
> <PUBCHEM_COORDINATE_TYPE>
1
5
255
> <PUBCHEM_BONDANNOTATIONS>
16  11  5
27  13  6
14  37  8
14  38  8
24  30  8
24  31  8
30  34  8
31  35  8
32  33  8
32  37  8
33  38  8
33  39  8
34  36  8
35  36  8
38  42  8
39  43  8
40  45  8
40  46  8
42  44  8
43  44  8
45  47  8
46  48  8
47  49  8
48  49  8
$$$$
