508620
  -OEChem-10302200282D
 81 83  0     1  0  0  0  0  0999 V2000
    4.8494    3.6416    0.0000 S   0  0  0  0  0  0  0  0  0  0  0  0
    3.8989    3.9523    0.0000 O   0  0  0  0  0  0  0  0  0  0  0  0
    5.7999    3.3310    0.0000 O   0  0  0  0  0  0  0  0  0  0  0  0
    6.8529    1.4087    0.0000 O   0  0  0  0  0  0  0  0  0  0  0  0
    6.4957    3.1035    0.0000 O   0  0  0  0  0  0  0  0  0  0  0  0
    7.2566   -2.9314    0.0000 O   0  0  0  0  0  0  0  0  0  0  0  0
    7.9244   -3.6757    0.0000 O   0  0  0  0  0  0  0  0  0  0  0  0
    4.5387    2.6911    0.0000 N   0  0  3  0  0  0  0  0  0  0  0  0
    5.6103   -2.3934    0.0000 N   0  0  0  0  0  0  0  0  0  0  0  0
    6.6353   -4.8325    0.0000 N   0  0  0  0  0  0  0  0  0  0  0  0
    4.6783   -6.8544    0.0000 N   0  0  0  0  0  0  0  0  0  0  0  0
    5.2066    1.9468    0.0000 C   0  0  1  0  0  0  0  0  0  0  0  0
    4.8959    0.9963    0.0000 C   0  0  0  0  0  0  0  0  0  0  0  0
    3.5602    2.4849    0.0000 C   0  0  0  0  0  0  0  0  0  0  0  0
    5.5637    0.2520    0.0000 C   0  0  0  0  0  0  0  0  0  0  0  0
    3.2496    1.5344    0.0000 C   0  0  0  0  0  0  0  0  0  0  0  0
    5.2531   -0.6985    0.0000 C   0  0  0  0  0  0  0  0  0  0  0  0
    6.1851    2.1530    0.0000 C   0  0  0  0  0  0  0  0  0  0  0  0
    5.9209   -1.4428    0.0000 C   0  0  0  0  0  0  0  0  0  0  0  0
    5.1600    4.5922    0.0000 C   0  0  0  0  0  0  0  0  0  0  0  0
    2.2710    1.3282    0.0000 C   0  0  0  0  0  0  0  0  0  0  0  0
    3.9174    0.7901    0.0000 C   0  0  0  0  0  0  0  0  0  0  0  0
    5.9674   -4.0882    0.0000 C   0  0  1  0  0  0  0  0  0  0  0  0
    4.9889   -4.2944    0.0000 C   0  0  0  0  0  0  0  0  0  0  0  0
    6.2781   -3.1377    0.0000 C   0  0  0  0  0  0  0  0  0  0  0  0
    6.1385    4.7984    0.0000 C   0  0  0  0  0  0  0  0  0  0  0  0
    4.4922    5.3364    0.0000 C   0  0  0  0  0  0  0  0  0  0  0  0
    4.6783   -5.2449    0.0000 C   0  0  0  0  0  0  0  0  0  0  0  0
    3.7320   -5.5496    0.0000 C   0  0  0  0  0  0  0  0  0  0  0  0
    6.4492    5.7489    0.0000 C   0  0  0  0  0  0  0  0  0  0  0  0
    4.8029    6.2870    0.0000 C   0  0  0  0  0  0  0  0  0  0  0  0
    3.7320   -6.5496    0.0000 C   0  0  0  0  0  0  0  0  0  0  0  0
    5.7814    6.4932    0.0000 C   0  0  0  0  0  0  0  0  0  0  0  0
    5.2619   -6.0496    0.0000 C   0  0  0  0  0  0  0  0  0  0  0  0
    2.8660   -5.0496    0.0000 C   0  0  0  0  0  0  0  0  0  0  0  0
    2.8660   -7.0496    0.0000 C   0  0  0  0  0  0  0  0  0  0  0  0
    6.0920    7.4437    0.0000 C   0  0  0  0  0  0  0  0  0  0  0  0
    7.6138   -4.6263    0.0000 C   0  0  0  0  0  0  0  0  0  0  0  0
    2.0000   -5.5496    0.0000 C   0  0  0  0  0  0  0  0  0  0  0  0
    2.0000   -6.5496    0.0000 C   0  0  0  0  0  0  0  0  0  0  0  0
    8.2816   -5.3706    0.0000 C   0  0  0  0  0  0  0  0  0  0  0  0
    5.3992    2.5361    0.0000 H   0  0  0  0  0  0  0  0  0  0  0  0
    4.3490    1.2883    0.0000 H   0  0  0  0  0  0  0  0  0  0  0  0
    4.5133    0.5084    0.0000 H   0  0  0  0  0  0  0  0  0  0  0  0
    3.5396    3.1046    0.0000 H   0  0  0  0  0  0  0  0  0  0  0  0
    2.9464    2.5722    0.0000 H   0  0  0  0  0  0  0  0  0  0  0  0
    6.1107   -0.0400    0.0000 H   0  0  0  0  0  0  0  0  0  0  0  0
    5.9463    0.7399    0.0000 H   0  0  0  0  0  0  0  0  0  0  0  0
    3.8562    1.6622    0.0000 H   0  0  0  0  0  0  0  0  0  0  0  0
    4.7062   -0.4065    0.0000 H   0  0  0  0  0  0  0  0  0  0  0  0
    4.8705   -1.1864    0.0000 H   0  0  0  0  0  0  0  0  0  0  0  0
    6.4678   -1.7349    0.0000 H   0  0  0  0  0  0  0  0  0  0  0  0
    6.3035   -0.9549    0.0000 H   0  0  0  0  0  0  0  0  0  0  0  0
    2.1432    1.9348    0.0000 H   0  0  0  0  0  0  0  0  0  0  0  0
    1.6644    1.2003    0.0000 H   0  0  0  0  0  0  0  0  0  0  0  0
    2.3989    0.7215    0.0000 H   0  0  0  0  0  0  0  0  0  0  0  0
    3.4559    0.3760    0.0000 H   0  0  0  0  0  0  0  0  0  0  0  0
    4.3314    0.3286    0.0000 H   0  0  0  0  0  0  0  0  0  0  0  0
    4.3789    1.2041    0.0000 H   0  0  0  0  0  0  0  0  0  0  0  0
    5.7748   -4.6775    0.0000 H   0  0  0  0  0  0  0  0  0  0  0  0
    5.0036   -2.5212    0.0000 H   0  0  0  0  0  0  0  0  0  0  0  0
    4.9684   -3.6747    0.0000 H   0  0  0  0  0  0  0  0  0  0  0  0
    4.3751   -4.2070    0.0000 H   0  0  0  0  0  0  0  0  0  0  0  0
    6.5526    4.3369    0.0000 H   0  0  0  0  0  0  0  0  0  0  0  0
    3.8855    5.2086    0.0000 H   0  0  0  0  0  0  0  0  0  0  0  0
    7.4596    1.5366    0.0000 H   0  0  0  0  0  0  0  0  0  0  0  0
    6.4427   -5.4218    0.0000 H   0  0  0  0  0  0  0  0  0  0  0  0
    7.0559    5.8767    0.0000 H   0  0  0  0  0  0  0  0  0  0  0  0
    4.3888    6.7484    0.0000 H   0  0  0  0  0  0  0  0  0  0  0  0
    5.8819   -6.0496    0.0000 H   0  0  0  0  0  0  0  0  0  0  0  0
    4.8709   -7.4437    0.0000 H   0  0  0  0  0  0  0  0  0  0  0  0
    2.8660   -4.4296    0.0000 H   0  0  0  0  0  0  0  0  0  0  0  0
    2.8660   -7.6696    0.0000 H   0  0  0  0  0  0  0  0  0  0  0  0
    6.6814    7.2511    0.0000 H   0  0  0  0  0  0  0  0  0  0  0  0
    6.2846    8.0330    0.0000 H   0  0  0  0  0  0  0  0  0  0  0  0
    5.5027    7.6363    0.0000 H   0  0  0  0  0  0  0  0  0  0  0  0
    1.4631   -5.2396    0.0000 H   0  0  0  0  0  0  0  0  0  0  0  0
    1.4631   -6.8596    0.0000 H   0  0  0  0  0  0  0  0  0  0  0  0
    7.8202   -5.7846    0.0000 H   0  0  0  0  0  0  0  0  0  0  0  0
    8.6957   -5.8320    0.0000 H   0  0  0  0  0  0  0  0  0  0  0  0
    8.7431   -4.9565    0.0000 H   0  0  0  0  0  0  0  0  0  0  0  0
  1  2  2  0  0  0  0
  1  3  2  0  0  0  0
  1  8  1  0  0  0  0
  1 20  1  0  0  0  0
  4 18  1  0  0  0  0
  4 66  1  0  0  0  0
  5 18  2  0  0  0  0
  6 25  2  0  0  0  0
  7 38  2  0  0  0  0
 12  8  1  6  0  0  0
  8 14  1  0  0  0  0
  9 19  1  0  0  0  0
  9 25  1  0  0  0  0
  9 61  1  0  0  0  0
 23 10  1  1  0  0  0
 10 38  1  0  0  0  0
 10 67  1  0  0  0  0
 11 32  1  0  0  0  0
 11 34  1  0  0  0  0
 11 71  1  0  0  0  0
 12 13  1  0  0  0  0
 12 18  1  0  0  0  0
 12 42  1  0  0  0  0
 13 15  1  0  0  0  0
 13 43  1  0  0  0  0
 13 44  1  0  0  0  0
 14 16  1  0  0  0  0
 14 45  1  0  0  0  0
 14 46  1  0  0  0  0
 15 17  1  0  0  0  0
 15 47  1  0  0  0  0
 15 48  1  0  0  0  0
 16 21  1  0  0  0  0
 16 22  1  0  0  0  0
 16 49  1  0  0  0  0
 17 19  1  0  0  0  0
 17 50  1  0  0  0  0
 17 51  1  0  0  0  0
 19 52  1  0  0  0  0
 19 53  1  0  0  0  0
 20 26  2  0  0  0  0
 20 27  1  0  0  0  0
 21 54  1  0  0  0  0
 21 55  1  0  0  0  0
 21 56  1  0  0  0  0
 22 57  1  0  0  0  0
 22 58  1  0  0  0  0
 22 59  1  0  0  0  0
 23 24  1  0  0  0  0
 23 25  1  0  0  0  0
 23 60  1  0  0  0  0
 24 28  1  0  0  0  0
 24 62  1  0  0  0  0
 24 63  1  0  0  0  0
 26 30  1  0  0  0  0
 26 64  1  0  0  0  0
 27 31  2  0  0  0  0
 27 65  1  0  0  0  0
 28 29  1  0  0  0  0
 28 34  2  0  0  0  0
 29 32  1  0  0  0  0
 29 35  2  0  0  0  0
 30 33  2  0  0  0  0
 30 68  1  0  0  0  0
 31 33  1  0  0  0  0
 31 69  1  0  0  0  0
 32 36  2  0  0  0  0
 33 37  1  0  0  0  0
 34 70  1  0  0  0  0
 35 39  1  0  0  0  0
 35 72  1  0  0  0  0
 36 40  1  0  0  0  0
 36 73  1  0  0  0  0
 37 74  1  0  0  0  0
 37 75  1  0  0  0  0
 37 76  1  0  0  0  0
 38 41  1  0  0  0  0
 39 40  2  0  0  0  0
 39 77  1  0  0  0  0
 40 78  1  0  0  0  0
 41 79  1  0  0  0  0
 41 80  1  0  0  0  0
 41 81  1  0  0  0  0
M  END
> <PUBCHEM_COMPOUND_CID>
508620
> <PUBCHEM_COMPOUND_CANONICALIZED>
1
> <PUBCHEM_CACTVS_COMPLEXITY>
976
> <PUBCHEM_CACTVS_HBOND_ACCEPTOR>
7
> <PUBCHEM_CACTVS_HBOND_DONOR>
4
> <PUBCHEM_CACTVS_ROTATABLE_BOND>
15
> <PUBCHEM_CACTVS_SUBSKEYS>
AAADcfB7uABAAAAAAAAAAAAAAAAAAWAAAAAwYAAAAAAAAFgB9AAAHgQQSAAADSjB3gQ+yfLJkgKoAzX3XHDCgDAxAiAI2bm4ZJgKYPLAkbGUYAhklgDYyAeYycCOkAAAAAACAAAgAAAAAAQAAAAAAAAAAA==
> <PUBCHEM_IUPAC_OPENEYE_NAME>
(2S)-6-[[(2S)-2-acetamido-3-(1H-indol-3-yl)propanoyl]amino]-2-[isobutyl(p-tolylsulfonyl)amino]hexanoic acid
> <PUBCHEM_IUPAC_CAS_NAME>
(2S)-6-[[(2S)-2-acetamido-3-(1H-indol-3-yl)-1-oxopropyl]amino]-2-[(4-methylphenyl)sulfonyl-(2-methylpropyl)amino]hexanoic acid
> <PUBCHEM_IUPAC_NAME_MARKUP>
(2<I>S</I>)-6-[[(2<I>S</I>)-2-acetamido-3-(1<I>H</I>-indol-3-yl)propanoyl]amino]-2-[(4-methylphenyl)sulfonyl-(2-methylpropyl)amino]hexanoic acid
> <PUBCHEM_IUPAC_NAME>
(2S)-6-[[(2S)-2-acetamido-3-(1H-indol-3-yl)propanoyl]amino]-2-[(4-methylphenyl)sulfonyl-(2-methylpropyl)amino]hexanoic acid
> <PUBCHEM_IUPAC_SYSTEMATIC_NAME>
(2S)-6-[[(2S)-2-acetamido-3-(1H-indol-3-yl)propanoyl]amino]-2-[(4-methylphenyl)sulfonyl-(2-methylpropyl)amino]hexanoic acid
> <PUBCHEM_IUPAC_TRADITIONAL_NAME>
(2S)-6-[[(2S)-2-acetamido-3-(1H-indol-3-yl)propanoyl]amino]-2-[isobutyl(tosyl)amino]hexanoic acid
> <PUBCHEM_IUPAC_INCHI>
InChI=1S/C30H40N4O6S/c1-20(2)19-34(41(39,40)24-14-12-21(3)13-15-24)28(30(37)38)11-7-8-16-31-29(36)27(33-22(4)35)17-23-18-32-26-10-6-5-9-25(23)26/h5-6,9-10,12-15,18,20,27-28,32H,7-8,11,16-17,19H2,1-4H3,(H,31,36)(H,33,35)(H,37,38)/t27-,28-/m0/s1
> <PUBCHEM_IUPAC_INCHIKEY>
JRYJXRMDNWFPHU-NSOVKSMOSA-N
> <PUBCHEM_XLOGP3_AA>
4.2
> <PUBCHEM_EXACT_MASS>
584.26685618
> <PUBCHEM_MOLECULAR_FORMULA>
C30H40N4O6S
> <PUBCHEM_MOLECULAR_WEIGHT>
584.7
> <PUBCHEM_OPENEYE_CAN_SMILES>
CC1=CC=C(C=C1)S(=O)(=O)N(CC(C)C)C(CCCCNC(=O)C(CC2=CNC3=CC=CC=C32)NC(=O)C)C(=O)O
> <PUBCHEM_OPENEYE_ISO_SMILES>
CC1=CC=C(C=C1)S(=O)(=O)N(CC(C)C)[C@@H](CCCCNC(=O)[C@H](CC2=CNC3=CC=CC=C32)NC(=O)C)C(=O)O
> <PUBCHEM_CACTVS_TPSA>
157
> <PUBCHEM_MONOISOTOPIC_WEIGHT>
584.26685618
> <PUBCHEM_TOTAL_CHARGE>
0
> <PUBCHEM_HEAVY_ATOM_COUNT>
41
> <PUBCHEM_ATOM_DEF_STEREO_COUNT>
2
> <PUBCHEM_ATOM_UDEF_STEREO_COUNT>
0
> <PUBCHEM_BOND_DEF_STEREO_COUNT>
0
> <PUBCHEM_BOND_UDEF_STEREO_COUNT>
0
> <PUBCHEM_ISOTOPIC_ATOM_COUNT>
0
> <PUBCHEM_COMPONENT_COUNT>
1
> <PUBCHEM_CACTVS_TAUTO_COUNT>
-1
> <PUBCHEM_COORDINATE_TYPE>
1
5
255
> <PUBCHEM_BONDANNOTATIONS>
23  10  5
11  32  8
11  34  8
20  26  8
20  27  8
26  30  8
27  31  8
28  29  8
28  34  8
29  32  8
29  35  8
30  33  8
31  33  8
32  36  8
35  39  8
36  40  8
39  40  8
12  8  6
$$$$
