508683
  -OEChem-10302200282D
 92 95  0     1  0  0  0  0  0999 V2000
    9.3532   -4.3255    0.0000 S   0  0  0  0  0  0  0  0  0  0  0  0
    5.6103    3.7362    0.0000 S   0  0  0  0  0  0  0  0  0  0  0  0
   10.6423   -3.1688    0.0000 O   0  0  0  0  0  0  0  0  0  0  0  0
    8.6089   -4.9933    0.0000 O   0  0  0  0  0  0  0  0  0  0  0  0
   10.0975   -3.6576    0.0000 O   0  0  0  0  0  0  0  0  0  0  0  0
    6.3246    0.3465    0.0000 O   0  0  0  0  0  0  0  0  0  0  0  0
    6.3546    4.4040    0.0000 O   0  0  0  0  0  0  0  0  0  0  0  0
    4.8660    3.0683    0.0000 O   0  0  0  0  0  0  0  0  0  0  0  0
    8.6853   -3.5812    0.0000 N   0  0  3  0  0  0  0  0  0  0  0  0
    7.6138    1.5033    0.0000 N   0  0  0  0  0  0  0  0  0  0  0  0
    6.2781    2.9919    0.0000 N   0  0  0  0  0  0  0  0  0  0  0  0
    4.6783   -0.7249    0.0000 N   0  0  0  0  0  0  0  0  0  0  0  0
    2.9389    6.7134    0.0000 N   0  0  0  0  0  0  0  0  0  0  0  0
    8.9960   -2.6307    0.0000 C   0  0  1  0  0  0  0  0  0  0  0  0
    8.3282   -1.8864    0.0000 C   0  0  0  0  0  0  0  0  0  0  0  0
    7.7068   -3.7874    0.0000 C   0  0  0  0  0  0  0  0  0  0  0  0
    8.6388   -0.9359    0.0000 C   0  0  0  0  0  0  0  0  0  0  0  0
    7.0390   -3.0431    0.0000 C   0  0  0  0  0  0  0  0  0  0  0  0
    9.9745   -2.4245    0.0000 C   0  0  0  0  0  0  0  0  0  0  0  0
    7.9710   -0.1916    0.0000 C   0  0  0  0  0  0  0  0  0  0  0  0
    8.2816    0.7590    0.0000 C   0  0  0  0  0  0  0  0  0  0  0  0
   10.0210   -5.0698    0.0000 C   0  0  0  0  0  0  0  0  0  0  0  0
    6.0605   -3.2493    0.0000 C   0  0  0  0  0  0  0  0  0  0  0  0
    7.3496   -2.0926    0.0000 C   0  0  0  0  0  0  0  0  0  0  0  0
    5.9674    2.0414    0.0000 C   0  0  1  0  0  0  0  0  0  0  0  0
    4.9889    1.8351    0.0000 C   0  0  0  0  0  0  0  0  0  0  0  0
    6.6353    1.2970    0.0000 C   0  0  0  0  0  0  0  0  0  0  0  0
    9.7104   -6.0203    0.0000 C   0  0  0  0  0  0  0  0  0  0  0  0
   10.9995   -4.8636    0.0000 C   0  0  0  0  0  0  0  0  0  0  0  0
    4.6783    0.8846    0.0000 C   0  0  0  0  0  0  0  0  0  0  0  0
    3.7320    0.5799    0.0000 C   0  0  0  0  0  0  0  0  0  0  0  0
   10.3782   -6.7646    0.0000 C   0  0  0  0  0  0  0  0  0  0  0  0
   11.6674   -5.6079    0.0000 C   0  0  0  0  0  0  0  0  0  0  0  0
   11.3567   -6.5584    0.0000 C   0  0  0  0  0  0  0  0  0  0  0  0
    5.2619    0.0799    0.0000 C   0  0  0  0  0  0  0  0  0  0  0  0
    3.7320   -0.4201    0.0000 C   0  0  0  0  0  0  0  0  0  0  0  0
    2.8660    1.0799    0.0000 C   0  0  0  0  0  0  0  0  0  0  0  0
    4.9424    4.4805    0.0000 C   0  0  0  0  0  0  0  0  0  0  0  0
   12.0246   -7.3027    0.0000 C   0  0  0  0  0  0  0  0  0  0  0  0
    2.8660   -0.9201    0.0000 C   0  0  0  0  0  0  0  0  0  0  0  0
    2.0000    0.5799    0.0000 C   0  0  0  0  0  0  0  0  0  0  0  0
    2.0000   -0.4201    0.0000 C   0  0  0  0  0  0  0  0  0  0  0  0
    3.9639    4.2743    0.0000 C   0  0  0  0  0  0  0  0  0  0  0  0
    5.2531    5.4310    0.0000 C   0  0  0  0  0  0  0  0  0  0  0  0
    3.2961    5.0186    0.0000 C   0  0  0  0  0  0  0  0  0  0  0  0
    4.5852    6.1753    0.0000 C   0  0  0  0  0  0  0  0  0  0  0  0
    3.6067    5.9691    0.0000 C   0  0  0  0  0  0  0  0  0  0  0  0
    9.4101   -3.0921    0.0000 H   0  0  0  0  0  0  0  0  0  0  0  0
    7.7812   -1.5944    0.0000 H   0  0  0  0  0  0  0  0  0  0  0  0
    7.9456   -2.3743    0.0000 H   0  0  0  0  0  0  0  0  0  0  0  0
    7.1805   -4.1150    0.0000 H   0  0  0  0  0  0  0  0  0  0  0  0
    7.9381   -4.3627    0.0000 H   0  0  0  0  0  0  0  0  0  0  0  0
    9.1857   -1.2279    0.0000 H   0  0  0  0  0  0  0  0  0  0  0  0
    9.0214   -0.4479    0.0000 H   0  0  0  0  0  0  0  0  0  0  0  0
    7.6457   -2.9153    0.0000 H   0  0  0  0  0  0  0  0  0  0  0  0
   10.5009   -2.0968    0.0000 H   0  0  0  0  0  0  0  0  0  0  0  0
    9.7432   -1.8492    0.0000 H   0  0  0  0  0  0  0  0  0  0  0  0
    7.4240    0.1005    0.0000 H   0  0  0  0  0  0  0  0  0  0  0  0
    7.5884   -0.6795    0.0000 H   0  0  0  0  0  0  0  0  0  0  0  0
    8.8286    0.4669    0.0000 H   0  0  0  0  0  0  0  0  0  0  0  0
    8.6642    1.2469    0.0000 H   0  0  0  0  0  0  0  0  0  0  0  0
    5.9326   -2.6427    0.0000 H   0  0  0  0  0  0  0  0  0  0  0  0
    5.4538   -3.3772    0.0000 H   0  0  0  0  0  0  0  0  0  0  0  0
    6.1883   -3.8560    0.0000 H   0  0  0  0  0  0  0  0  0  0  0  0
    7.9390   -2.2852    0.0000 H   0  0  0  0  0  0  0  0  0  0  0  0
    7.5423   -1.5033    0.0000 H   0  0  0  0  0  0  0  0  0  0  0  0
    6.7603   -1.9000    0.0000 H   0  0  0  0  0  0  0  0  0  0  0  0
    5.5534    2.5028    0.0000 H   0  0  0  0  0  0  0  0  0  0  0  0
    7.8064    2.0926    0.0000 H   0  0  0  0  0  0  0  0  0  0  0  0
    4.9684    2.4548    0.0000 H   0  0  0  0  0  0  0  0  0  0  0  0
    4.3751    1.9225    0.0000 H   0  0  0  0  0  0  0  0  0  0  0  0
   11.2490   -3.0409    0.0000 H   0  0  0  0  0  0  0  0  0  0  0  0
    9.1037   -6.1482    0.0000 H   0  0  0  0  0  0  0  0  0  0  0  0
   11.1921   -4.2743    0.0000 H   0  0  0  0  0  0  0  0  0  0  0  0
    6.8848    3.1197    0.0000 H   0  0  0  0  0  0  0  0  0  0  0  0
   10.1856   -7.3539    0.0000 H   0  0  0  0  0  0  0  0  0  0  0  0
   12.2740   -5.4800    0.0000 H   0  0  0  0  0  0  0  0  0  0  0  0
    5.8819    0.0799    0.0000 H   0  0  0  0  0  0  0  0  0  0  0  0
    4.8709   -1.3142    0.0000 H   0  0  0  0  0  0  0  0  0  0  0  0
    2.8660    1.6999    0.0000 H   0  0  0  0  0  0  0  0  0  0  0  0
   11.5631   -7.7168    0.0000 H   0  0  0  0  0  0  0  0  0  0  0  0
   12.4386   -7.7642    0.0000 H   0  0  0  0  0  0  0  0  0  0  0  0
   12.4860   -6.8886    0.0000 H   0  0  0  0  0  0  0  0  0  0  0  0
    2.8660   -1.5401    0.0000 H   0  0  0  0  0  0  0  0  0  0  0  0
    1.4631    0.8899    0.0000 H   0  0  0  0  0  0  0  0  0  0  0  0
    1.4631   -0.7301    0.0000 H   0  0  0  0  0  0  0  0  0  0  0  0
    3.7713    3.6849    0.0000 H   0  0  0  0  0  0  0  0  0  0  0  0
    5.8598    5.5588    0.0000 H   0  0  0  0  0  0  0  0  0  0  0  0
    2.6894    4.8907    0.0000 H   0  0  0  0  0  0  0  0  0  0  0  0
    4.7778    6.7646    0.0000 H   0  0  0  0  0  0  0  0  0  0  0  0
    3.1315    7.3027    0.0000 H   0  0  0  0  0  0  0  0  0  0  0  0
    2.3322    6.5855    0.0000 H   0  0  0  0  0  0  0  0  0  0  0  0
  1  4  2  0  0  0  0
  1  5  2  0  0  0  0
  1  9  1  0  0  0  0
  1 22  1  0  0  0  0
  2  7  2  0  0  0  0
  2  8  2  0  0  0  0
  2 11  1  0  0  0  0
  2 38  1  0  0  0  0
  3 19  1  0  0  0  0
  3 72  1  0  0  0  0
  6 27  2  0  0  0  0
 14  9  1  1  0  0  0
  9 16  1  0  0  0  0
 10 21  1  0  0  0  0
 10 27  1  0  0  0  0
 10 69  1  0  0  0  0
 25 11  1  6  0  0  0
 11 75  1  0  0  0  0
 12 35  1  0  0  0  0
 12 36  1  0  0  0  0
 12 79  1  0  0  0  0
 13 47  1  0  0  0  0
 13 91  1  0  0  0  0
 13 92  1  0  0  0  0
 14 15  1  0  0  0  0
 14 19  1  0  0  0  0
 14 48  1  0  0  0  0
 15 17  1  0  0  0  0
 15 49  1  0  0  0  0
 15 50  1  0  0  0  0
 16 18  1  0  0  0  0
 16 51  1  0  0  0  0
 16 52  1  0  0  0  0
 17 20  1  0  0  0  0
 17 53  1  0  0  0  0
 17 54  1  0  0  0  0
 18 23  1  0  0  0  0
 18 24  1  0  0  0  0
 18 55  1  0  0  0  0
 19 56  1  0  0  0  0
 19 57  1  0  0  0  0
 20 21  1  0  0  0  0
 20 58  1  0  0  0  0
 20 59  1  0  0  0  0
 21 60  1  0  0  0  0
 21 61  1  0  0  0  0
 22 28  2  0  0  0  0
 22 29  1  0  0  0  0
 23 62  1  0  0  0  0
 23 63  1  0  0  0  0
 23 64  1  0  0  0  0
 24 65  1  0  0  0  0
 24 66  1  0  0  0  0
 24 67  1  0  0  0  0
 25 26  1  0  0  0  0
 25 27  1  0  0  0  0
 25 68  1  0  0  0  0
 26 30  1  0  0  0  0
 26 70  1  0  0  0  0
 26 71  1  0  0  0  0
 28 32  1  0  0  0  0
 28 73  1  0  0  0  0
 29 33  2  0  0  0  0
 29 74  1  0  0  0  0
 30 31  1  0  0  0  0
 30 35  2  0  0  0  0
 31 36  1  0  0  0  0
 31 37  2  0  0  0  0
 32 34  2  0  0  0  0
 32 76  1  0  0  0  0
 33 34  1  0  0  0  0
 33 77  1  0  0  0  0
 34 39  1  0  0  0  0
 35 78  1  0  0  0  0
 36 40  2  0  0  0  0
 37 41  1  0  0  0  0
 37 80  1  0  0  0  0
 38 43  2  0  0  0  0
 38 44  1  0  0  0  0
 39 81  1  0  0  0  0
 39 82  1  0  0  0  0
 39 83  1  0  0  0  0
 40 42  1  0  0  0  0
 40 84  1  0  0  0  0
 41 42  2  0  0  0  0
 41 85  1  0  0  0  0
 42 86  1  0  0  0  0
 43 45  1  0  0  0  0
 43 87  1  0  0  0  0
 44 46  2  0  0  0  0
 44 88  1  0  0  0  0
 45 47  2  0  0  0  0
 45 89  1  0  0  0  0
 46 47  1  0  0  0  0
 46 90  1  0  0  0  0
M  END
> <PUBCHEM_COMPOUND_CID>
508683
> <PUBCHEM_COMPOUND_CANONICALIZED>
1
> <PUBCHEM_CACTVS_COMPLEXITY>
1170
> <PUBCHEM_CACTVS_HBOND_ACCEPTOR>
9
> <PUBCHEM_CACTVS_HBOND_DONOR>
5
> <PUBCHEM_CACTVS_ROTATABLE_BOND>
17
> <PUBCHEM_CACTVS_SUBSKEYS>
AAADcfB/uABgAAAAAAAAAAAAAAAAAWAAAAAwYMAAAAAAAFgB9AAAHgQQSAAADSjh3gY+wfLJkgKoAzV3VHDCgDAxAiAI2bm4ZJgKcPLAkZGUYAhklgDYyAeYycCOkAQAAAACAAAgCAAAAAQAAAAAAAAAAA==
> <PUBCHEM_IUPAC_OPENEYE_NAME>
(2S)-2-[(4-aminophenyl)sulfonylamino]-N-[(5S)-6-hydroxy-5-[isobutyl(p-tolylsulfonyl)amino]hexyl]-3-(1H-indol-3-yl)propanamide
> <PUBCHEM_IUPAC_CAS_NAME>
(2S)-2-[(4-aminophenyl)sulfonylamino]-N-[(5S)-6-hydroxy-5-[(4-methylphenyl)sulfonyl-(2-methylpropyl)amino]hexyl]-3-(1H-indol-3-yl)propanamide
> <PUBCHEM_IUPAC_NAME_MARKUP>
(2<I>S</I>)-2-[(4-aminophenyl)sulfonylamino]-<I>N</I>-[(5<I>S</I>)-6-hydroxy-5-[(4-methylphenyl)sulfonyl-(2-methylpropyl)amino]hexyl]-3-(1<I>H</I>-indol-3-yl)propanamide
> <PUBCHEM_IUPAC_NAME>
(2S)-2-[(4-aminophenyl)sulfonylamino]-N-[(5S)-6-hydroxy-5-[(4-methylphenyl)sulfonyl-(2-methylpropyl)amino]hexyl]-3-(1H-indol-3-yl)propanamide
> <PUBCHEM_IUPAC_SYSTEMATIC_NAME>
(2S)-2-[(4-aminophenyl)sulfonylamino]-3-(1H-indol-3-yl)-N-[(5S)-5-[(4-methylphenyl)sulfonyl-(2-methylpropyl)amino]-6-oxidanyl-hexyl]propanamide
> <PUBCHEM_IUPAC_TRADITIONAL_NAME>
(2S)-N-[(5S)-6-hydroxy-5-[isobutyl(tosyl)amino]hexyl]-3-(1H-indol-3-yl)-2-(sulfanilylamino)propionamide
> <PUBCHEM_IUPAC_INCHI>
InChI=1S/C34H45N5O6S2/c1-24(2)22-39(47(44,45)30-15-11-25(3)12-16-30)28(23-40)8-6-7-19-36-34(41)33(20-26-21-37-32-10-5-4-9-31(26)32)38-46(42,43)29-17-13-27(35)14-18-29/h4-5,9-18,21,24,28,33,37-38,40H,6-8,19-20,22-23,35H2,1-3H3,(H,36,41)/t28-,33-/m0/s1
> <PUBCHEM_IUPAC_INCHIKEY>
OUFLSDWYCMBKSO-UVMMSNCQSA-N
> <PUBCHEM_XLOGP3_AA>
4.7
> <PUBCHEM_EXACT_MASS>
683.28112652
> <PUBCHEM_MOLECULAR_FORMULA>
C34H45N5O6S2
> <PUBCHEM_MOLECULAR_WEIGHT>
683.9
> <PUBCHEM_OPENEYE_CAN_SMILES>
CC1=CC=C(C=C1)S(=O)(=O)N(CC(C)C)C(CCCCNC(=O)C(CC2=CNC3=CC=CC=C32)NS(=O)(=O)C4=CC=C(C=C4)N)CO
> <PUBCHEM_OPENEYE_ISO_SMILES>
CC1=CC=C(C=C1)S(=O)(=O)N(CC(C)C)[C@@H](CCCCNC(=O)[C@H](CC2=CNC3=CC=CC=C32)NS(=O)(=O)C4=CC=C(C=C4)N)CO
> <PUBCHEM_CACTVS_TPSA>
191
> <PUBCHEM_MONOISOTOPIC_WEIGHT>
683.28112652
> <PUBCHEM_TOTAL_CHARGE>
0
> <PUBCHEM_HEAVY_ATOM_COUNT>
47
> <PUBCHEM_ATOM_DEF_STEREO_COUNT>
2
> <PUBCHEM_ATOM_UDEF_STEREO_COUNT>
0
> <PUBCHEM_BOND_DEF_STEREO_COUNT>
0
> <PUBCHEM_BOND_UDEF_STEREO_COUNT>
0
> <PUBCHEM_ISOTOPIC_ATOM_COUNT>
0
> <PUBCHEM_COMPONENT_COUNT>
1
> <PUBCHEM_CACTVS_TAUTO_COUNT>
-1
> <PUBCHEM_COORDINATE_TYPE>
1
5
255
> <PUBCHEM_BONDANNOTATIONS>
25  11  6
12  35  8
12  36  8
22  28  8
22  29  8
28  32  8
29  33  8
30  31  8
30  35  8
31  36  8
31  37  8
32  34  8
33  34  8
36  40  8
37  41  8
38  43  8
38  44  8
40  42  8
41  42  8
43  45  8
44  46  8
45  47  8
46  47  8
14  9  5
$$$$
