508690
  -OEChem-10302200282D
 81 83  0     1  0  0  0  0  0999 V2000
    4.8494    3.4109    0.0000 S   0  0  0  0  0  0  0  0  0  0  0  0
    6.8529    1.1780    0.0000 O   0  0  0  0  0  0  0  0  0  0  0  0
    3.8989    3.7216    0.0000 O   0  0  0  0  0  0  0  0  0  0  0  0
    5.7999    3.1002    0.0000 O   0  0  0  0  0  0  0  0  0  0  0  0
    7.2566   -3.1622    0.0000 O   0  0  0  0  0  0  0  0  0  0  0  0
    7.9244   -3.9065    0.0000 O   0  0  0  0  0  0  0  0  0  0  0  0
    4.5387    2.4604    0.0000 N   0  0  3  0  0  0  0  0  0  0  0  0
    5.6103   -2.6241    0.0000 N   0  0  0  0  0  0  0  0  0  0  0  0
    6.6353   -5.0632    0.0000 N   0  0  0  0  0  0  0  0  0  0  0  0
    4.6783   -7.0851    0.0000 N   0  0  0  0  0  0  0  0  0  0  0  0
    6.0920    7.2130    0.0000 N   0  0  0  0  0  0  0  0  0  0  0  0
    5.2066    1.7161    0.0000 C   0  0  1  0  0  0  0  0  0  0  0  0
    4.8959    0.7656    0.0000 C   0  0  0  0  0  0  0  0  0  0  0  0
    3.5602    2.2542    0.0000 C   0  0  0  0  0  0  0  0  0  0  0  0
    5.5637    0.0212    0.0000 C   0  0  0  0  0  0  0  0  0  0  0  0
    3.2496    1.3036    0.0000 C   0  0  0  0  0  0  0  0  0  0  0  0
    6.1851    1.9223    0.0000 C   0  0  0  0  0  0  0  0  0  0  0  0
    5.2531   -0.9293    0.0000 C   0  0  0  0  0  0  0  0  0  0  0  0
    5.9209   -1.6736    0.0000 C   0  0  0  0  0  0  0  0  0  0  0  0
    5.1600    4.3614    0.0000 C   0  0  0  0  0  0  0  0  0  0  0  0
    2.2710    1.0974    0.0000 C   0  0  0  0  0  0  0  0  0  0  0  0
    3.9174    0.5593    0.0000 C   0  0  0  0  0  0  0  0  0  0  0  0
    5.9674   -4.3189    0.0000 C   0  0  1  0  0  0  0  0  0  0  0  0
    6.1385    4.5676    0.0000 C   0  0  0  0  0  0  0  0  0  0  0  0
    4.4922    5.1057    0.0000 C   0  0  0  0  0  0  0  0  0  0  0  0
    4.9889   -4.5251    0.0000 C   0  0  0  0  0  0  0  0  0  0  0  0
    6.2781   -3.3684    0.0000 C   0  0  0  0  0  0  0  0  0  0  0  0
    4.6783   -5.4756    0.0000 C   0  0  0  0  0  0  0  0  0  0  0  0
    3.7320   -5.7804    0.0000 C   0  0  0  0  0  0  0  0  0  0  0  0
    6.4492    5.5182    0.0000 C   0  0  0  0  0  0  0  0  0  0  0  0
    4.8029    6.0562    0.0000 C   0  0  0  0  0  0  0  0  0  0  0  0
    5.7814    6.2624    0.0000 C   0  0  0  0  0  0  0  0  0  0  0  0
    3.7320   -6.7804    0.0000 C   0  0  0  0  0  0  0  0  0  0  0  0
    5.2619   -6.2804    0.0000 C   0  0  0  0  0  0  0  0  0  0  0  0
    2.8660   -5.2804    0.0000 C   0  0  0  0  0  0  0  0  0  0  0  0
    2.8660   -7.2804    0.0000 C   0  0  0  0  0  0  0  0  0  0  0  0
    7.6138   -4.8570    0.0000 C   0  0  0  0  0  0  0  0  0  0  0  0
    2.0000   -5.7804    0.0000 C   0  0  0  0  0  0  0  0  0  0  0  0
    2.0000   -6.7804    0.0000 C   0  0  0  0  0  0  0  0  0  0  0  0
    8.2816   -5.6013    0.0000 C   0  0  0  0  0  0  0  0  0  0  0  0
    5.3992    2.3054    0.0000 H   0  0  0  0  0  0  0  0  0  0  0  0
    4.3490    1.0576    0.0000 H   0  0  0  0  0  0  0  0  0  0  0  0
    4.5133    0.2776    0.0000 H   0  0  0  0  0  0  0  0  0  0  0  0
    3.5396    2.8738    0.0000 H   0  0  0  0  0  0  0  0  0  0  0  0
    2.9464    2.3415    0.0000 H   0  0  0  0  0  0  0  0  0  0  0  0
    6.1107   -0.2708    0.0000 H   0  0  0  0  0  0  0  0  0  0  0  0
    5.9463    0.5092    0.0000 H   0  0  0  0  0  0  0  0  0  0  0  0
    3.8562    1.4315    0.0000 H   0  0  0  0  0  0  0  0  0  0  0  0
    6.7114    2.2499    0.0000 H   0  0  0  0  0  0  0  0  0  0  0  0
    5.9538    2.4976    0.0000 H   0  0  0  0  0  0  0  0  0  0  0  0
    4.7062   -0.6373    0.0000 H   0  0  0  0  0  0  0  0  0  0  0  0
    4.8705   -1.4172    0.0000 H   0  0  0  0  0  0  0  0  0  0  0  0
    6.4678   -1.9656    0.0000 H   0  0  0  0  0  0  0  0  0  0  0  0
    6.3035   -1.1857    0.0000 H   0  0  0  0  0  0  0  0  0  0  0  0
    2.1432    1.7041    0.0000 H   0  0  0  0  0  0  0  0  0  0  0  0
    1.6644    0.9696    0.0000 H   0  0  0  0  0  0  0  0  0  0  0  0
    2.3989    0.4907    0.0000 H   0  0  0  0  0  0  0  0  0  0  0  0
    3.4559    0.1453    0.0000 H   0  0  0  0  0  0  0  0  0  0  0  0
    4.3314    0.0979    0.0000 H   0  0  0  0  0  0  0  0  0  0  0  0
    4.3789    0.9734    0.0000 H   0  0  0  0  0  0  0  0  0  0  0  0
    5.0036   -2.7520    0.0000 H   0  0  0  0  0  0  0  0  0  0  0  0
    5.7748   -4.9082    0.0000 H   0  0  0  0  0  0  0  0  0  0  0  0
    7.4596    1.3058    0.0000 H   0  0  0  0  0  0  0  0  0  0  0  0
    6.5526    4.1062    0.0000 H   0  0  0  0  0  0  0  0  0  0  0  0
    3.8855    4.9779    0.0000 H   0  0  0  0  0  0  0  0  0  0  0  0
    4.9684   -3.9055    0.0000 H   0  0  0  0  0  0  0  0  0  0  0  0
    4.3751   -4.4378    0.0000 H   0  0  0  0  0  0  0  0  0  0  0  0
    7.0559    5.6460    0.0000 H   0  0  0  0  0  0  0  0  0  0  0  0
    4.3888    6.5177    0.0000 H   0  0  0  0  0  0  0  0  0  0  0  0
    6.4427   -5.6525    0.0000 H   0  0  0  0  0  0  0  0  0  0  0  0
    5.8819   -6.2804    0.0000 H   0  0  0  0  0  0  0  0  0  0  0  0
    4.8709   -7.6744    0.0000 H   0  0  0  0  0  0  0  0  0  0  0  0
    2.8660   -4.6604    0.0000 H   0  0  0  0  0  0  0  0  0  0  0  0
    2.8660   -7.9004    0.0000 H   0  0  0  0  0  0  0  0  0  0  0  0
    1.4631   -5.4704    0.0000 H   0  0  0  0  0  0  0  0  0  0  0  0
    1.4631   -7.0904    0.0000 H   0  0  0  0  0  0  0  0  0  0  0  0
    5.6780    7.6744    0.0000 H   0  0  0  0  0  0  0  0  0  0  0  0
    6.6987    7.3408    0.0000 H   0  0  0  0  0  0  0  0  0  0  0  0
    7.8202   -6.0154    0.0000 H   0  0  0  0  0  0  0  0  0  0  0  0
    8.6957   -6.0628    0.0000 H   0  0  0  0  0  0  0  0  0  0  0  0
    8.7431   -5.1872    0.0000 H   0  0  0  0  0  0  0  0  0  0  0  0
  1  3  2  0  0  0  0
  1  4  2  0  0  0  0
  1  7  1  0  0  0  0
  1 20  1  0  0  0  0
  2 17  1  0  0  0  0
  2 63  1  0  0  0  0
  5 27  2  0  0  0  0
  6 37  2  0  0  0  0
 12  7  1  6  0  0  0
  7 14  1  0  0  0  0
  8 19  1  0  0  0  0
  8 27  1  0  0  0  0
  8 61  1  0  0  0  0
 23  9  1  1  0  0  0
  9 37  1  0  0  0  0
  9 70  1  0  0  0  0
 10 33  1  0  0  0  0
 10 34  1  0  0  0  0
 10 72  1  0  0  0  0
 11 32  1  0  0  0  0
 11 77  1  0  0  0  0
 11 78  1  0  0  0  0
 12 13  1  0  0  0  0
 12 17  1  0  0  0  0
 12 41  1  0  0  0  0
 13 15  1  0  0  0  0
 13 42  1  0  0  0  0
 13 43  1  0  0  0  0
 14 16  1  0  0  0  0
 14 44  1  0  0  0  0
 14 45  1  0  0  0  0
 15 18  1  0  0  0  0
 15 46  1  0  0  0  0
 15 47  1  0  0  0  0
 16 21  1  0  0  0  0
 16 22  1  0  0  0  0
 16 48  1  0  0  0  0
 17 49  1  0  0  0  0
 17 50  1  0  0  0  0
 18 19  1  0  0  0  0
 18 51  1  0  0  0  0
 18 52  1  0  0  0  0
 19 53  1  0  0  0  0
 19 54  1  0  0  0  0
 20 24  2  0  0  0  0
 20 25  1  0  0  0  0
 21 55  1  0  0  0  0
 21 56  1  0  0  0  0
 21 57  1  0  0  0  0
 22 58  1  0  0  0  0
 22 59  1  0  0  0  0
 22 60  1  0  0  0  0
 23 26  1  0  0  0  0
 23 27  1  0  0  0  0
 23 62  1  0  0  0  0
 24 30  1  0  0  0  0
 24 64  1  0  0  0  0
 25 31  2  0  0  0  0
 25 65  1  0  0  0  0
 26 28  1  0  0  0  0
 26 66  1  0  0  0  0
 26 67  1  0  0  0  0
 28 29  1  0  0  0  0
 28 34  2  0  0  0  0
 29 33  1  0  0  0  0
 29 35  2  0  0  0  0
 30 32  2  0  0  0  0
 30 68  1  0  0  0  0
 31 32  1  0  0  0  0
 31 69  1  0  0  0  0
 33 36  2  0  0  0  0
 34 71  1  0  0  0  0
 35 38  1  0  0  0  0
 35 73  1  0  0  0  0
 36 39  1  0  0  0  0
 36 74  1  0  0  0  0
 37 40  1  0  0  0  0
 38 39  2  0  0  0  0
 38 75  1  0  0  0  0
 39 76  1  0  0  0  0
 40 79  1  0  0  0  0
 40 80  1  0  0  0  0
 40 81  1  0  0  0  0
M  END
> <PUBCHEM_COMPOUND_CID>
508690
> <PUBCHEM_COMPOUND_CANONICALIZED>
1
> <PUBCHEM_CACTVS_COMPLEXITY>
903
> <PUBCHEM_CACTVS_HBOND_ACCEPTOR>
7
> <PUBCHEM_CACTVS_HBOND_DONOR>
5
> <PUBCHEM_CACTVS_ROTATABLE_BOND>
15
> <PUBCHEM_CACTVS_SUBSKEYS>
AAADcfB7uABAAAAAAAAAAAAAAAAAAWAAAAAwYAAAAAAAAFgB9AAAHgQQSAAADSjh3gY+wfLJkgKoAzV3VHDCgDAxAiAI2bm4ZJgKcPLAkbGUYAhklgDYyAeYycCOgAQAAAACAAAACAAAAAQAAAAAAAAAAA==
> <PUBCHEM_IUPAC_OPENEYE_NAME>
(2S)-2-acetamido-N-[(5S)-5-[(4-aminophenyl)sulfonyl-isobutyl-amino]-6-hydroxy-hexyl]-3-(1H-indol-3-yl)propanamide
> <PUBCHEM_IUPAC_CAS_NAME>
(2S)-2-acetamido-N-[(5S)-5-[(4-aminophenyl)sulfonyl-(2-methylpropyl)amino]-6-hydroxyhexyl]-3-(1H-indol-3-yl)propanamide
> <PUBCHEM_IUPAC_NAME_MARKUP>
(2<I>S</I>)-2-acetamido-<I>N</I>-[(5<I>S</I>)-5-[(4-aminophenyl)sulfonyl-(2-methylpropyl)amino]-6-hydroxyhexyl]-3-(1<I>H</I>-indol-3-yl)propanamide
> <PUBCHEM_IUPAC_NAME>
(2S)-2-acetamido-N-[(5S)-5-[(4-aminophenyl)sulfonyl-(2-methylpropyl)amino]-6-hydroxyhexyl]-3-(1H-indol-3-yl)propanamide
> <PUBCHEM_IUPAC_SYSTEMATIC_NAME>
(2S)-2-acetamido-N-[(5S)-5-[(4-aminophenyl)sulfonyl-(2-methylpropyl)amino]-6-oxidanyl-hexyl]-3-(1H-indol-3-yl)propanamide
> <PUBCHEM_IUPAC_TRADITIONAL_NAME>
(2S)-2-acetamido-N-[(5S)-6-hydroxy-5-[isobutyl(sulfanilyl)amino]hexyl]-3-(1H-indol-3-yl)propionamide
> <PUBCHEM_IUPAC_INCHI>
InChI=1S/C29H41N5O5S/c1-20(2)18-34(40(38,39)25-13-11-23(30)12-14-25)24(19-35)8-6-7-15-31-29(37)28(33-21(3)36)16-22-17-32-27-10-5-4-9-26(22)27/h4-5,9-14,17,20,24,28,32,35H,6-8,15-16,18-19,30H2,1-3H3,(H,31,37)(H,33,36)/t24-,28-/m0/s1
> <PUBCHEM_IUPAC_INCHIKEY>
CYHDQJCFIACSAD-CUBQBAPOSA-N
> <PUBCHEM_XLOGP3_AA>
3
> <PUBCHEM_EXACT_MASS>
571.28284060
> <PUBCHEM_MOLECULAR_FORMULA>
C29H41N5O5S
> <PUBCHEM_MOLECULAR_WEIGHT>
571.7
> <PUBCHEM_OPENEYE_CAN_SMILES>
CC(C)CN(C(CCCCNC(=O)C(CC1=CNC2=CC=CC=C21)NC(=O)C)CO)S(=O)(=O)C3=CC=C(C=C3)N
> <PUBCHEM_OPENEYE_ISO_SMILES>
CC(C)CN([C@@H](CCCCNC(=O)[C@H](CC1=CNC2=CC=CC=C21)NC(=O)C)CO)S(=O)(=O)C3=CC=C(C=C3)N
> <PUBCHEM_CACTVS_TPSA>
166
> <PUBCHEM_MONOISOTOPIC_WEIGHT>
571.28284060
> <PUBCHEM_TOTAL_CHARGE>
0
> <PUBCHEM_HEAVY_ATOM_COUNT>
40
> <PUBCHEM_ATOM_DEF_STEREO_COUNT>
2
> <PUBCHEM_ATOM_UDEF_STEREO_COUNT>
0
> <PUBCHEM_BOND_DEF_STEREO_COUNT>
0
> <PUBCHEM_BOND_UDEF_STEREO_COUNT>
0
> <PUBCHEM_ISOTOPIC_ATOM_COUNT>
0
> <PUBCHEM_COMPONENT_COUNT>
1
> <PUBCHEM_CACTVS_TAUTO_COUNT>
-1
> <PUBCHEM_COORDINATE_TYPE>
1
5
255
> <PUBCHEM_BONDANNOTATIONS>
10  33  8
10  34  8
20  24  8
20  25  8
24  30  8
25  31  8
28  29  8
28  34  8
29  33  8
29  35  8
30  32  8
31  32  8
33  36  8
35  38  8
36  39  8
38  39  8
12  7  6
23  9  5
$$$$
