508694
  -OEChem-10302200282D
 83 85  0     1  0  0  0  0  0999 V2000
    4.8494    3.2695    0.0000 S   0  0  0  0  0  0  0  0  0  0  0  0
    6.8529    1.0366    0.0000 O   0  0  0  0  0  0  0  0  0  0  0  0
    3.8989    3.5801    0.0000 O   0  0  0  0  0  0  0  0  0  0  0  0
    5.7999    2.9588    0.0000 O   0  0  0  0  0  0  0  0  0  0  0  0
    7.2566   -3.3036    0.0000 O   0  0  0  0  0  0  0  0  0  0  0  0
    6.0920    7.0716    0.0000 O   0  0  0  0  0  0  0  0  0  0  0  0
    7.9244   -4.0479    0.0000 O   0  0  0  0  0  0  0  0  0  0  0  0
    4.5387    2.3190    0.0000 N   0  0  3  0  0  0  0  0  0  0  0  0
    5.6103   -2.7655    0.0000 N   0  0  0  0  0  0  0  0  0  0  0  0
    6.6353   -5.2046    0.0000 N   0  0  0  0  0  0  0  0  0  0  0  0
    4.6783   -7.2265    0.0000 N   0  0  0  0  0  0  0  0  0  0  0  0
    5.2066    1.5747    0.0000 C   0  0  1  0  0  0  0  0  0  0  0  0
    4.8959    0.6241    0.0000 C   0  0  0  0  0  0  0  0  0  0  0  0
    3.5602    2.1127    0.0000 C   0  0  0  0  0  0  0  0  0  0  0  0
    5.5637   -0.1202    0.0000 C   0  0  0  0  0  0  0  0  0  0  0  0
    3.2496    1.1622    0.0000 C   0  0  0  0  0  0  0  0  0  0  0  0
    6.1851    1.7809    0.0000 C   0  0  0  0  0  0  0  0  0  0  0  0
    5.2531   -1.0707    0.0000 C   0  0  0  0  0  0  0  0  0  0  0  0
    5.9209   -1.8150    0.0000 C   0  0  0  0  0  0  0  0  0  0  0  0
    5.1600    4.2200    0.0000 C   0  0  0  0  0  0  0  0  0  0  0  0
    2.2710    0.9560    0.0000 C   0  0  0  0  0  0  0  0  0  0  0  0
    3.9174    0.4179    0.0000 C   0  0  0  0  0  0  0  0  0  0  0  0
    5.9674   -4.4603    0.0000 C   0  0  1  0  0  0  0  0  0  0  0  0
    6.1385    4.4262    0.0000 C   0  0  0  0  0  0  0  0  0  0  0  0
    4.4922    4.9643    0.0000 C   0  0  0  0  0  0  0  0  0  0  0  0
    4.9889   -4.6666    0.0000 C   0  0  0  0  0  0  0  0  0  0  0  0
    6.2781   -3.5098    0.0000 C   0  0  0  0  0  0  0  0  0  0  0  0
    4.6783   -5.6171    0.0000 C   0  0  0  0  0  0  0  0  0  0  0  0
    6.4492    5.3767    0.0000 C   0  0  0  0  0  0  0  0  0  0  0  0
    4.8029    5.9148    0.0000 C   0  0  0  0  0  0  0  0  0  0  0  0
    3.7320   -5.9218    0.0000 C   0  0  0  0  0  0  0  0  0  0  0  0
    5.7814    6.1210    0.0000 C   0  0  0  0  0  0  0  0  0  0  0  0
    3.7320   -6.9218    0.0000 C   0  0  0  0  0  0  0  0  0  0  0  0
    5.2619   -6.4218    0.0000 C   0  0  0  0  0  0  0  0  0  0  0  0
    2.8660   -5.4218    0.0000 C   0  0  0  0  0  0  0  0  0  0  0  0
    2.8660   -7.4218    0.0000 C   0  0  0  0  0  0  0  0  0  0  0  0
    7.6138   -4.9984    0.0000 C   0  0  0  0  0  0  0  0  0  0  0  0
    2.0000   -5.9218    0.0000 C   0  0  0  0  0  0  0  0  0  0  0  0
    2.0000   -6.9218    0.0000 C   0  0  0  0  0  0  0  0  0  0  0  0
    8.2816   -5.7427    0.0000 C   0  0  0  0  0  0  0  0  0  0  0  0
    5.4242    7.8159    0.0000 C   0  0  0  0  0  0  0  0  0  0  0  0
    5.3992    2.1640    0.0000 H   0  0  0  0  0  0  0  0  0  0  0  0
    4.3490    0.9162    0.0000 H   0  0  0  0  0  0  0  0  0  0  0  0
    4.5133    0.1362    0.0000 H   0  0  0  0  0  0  0  0  0  0  0  0
    3.5396    2.7324    0.0000 H   0  0  0  0  0  0  0  0  0  0  0  0
    2.9464    2.2001    0.0000 H   0  0  0  0  0  0  0  0  0  0  0  0
    6.1107   -0.4122    0.0000 H   0  0  0  0  0  0  0  0  0  0  0  0
    5.9463    0.3677    0.0000 H   0  0  0  0  0  0  0  0  0  0  0  0
    3.0569    0.5729    0.0000 H   0  0  0  0  0  0  0  0  0  0  0  0
    6.7114    2.1085    0.0000 H   0  0  0  0  0  0  0  0  0  0  0  0
    5.9538    2.3561    0.0000 H   0  0  0  0  0  0  0  0  0  0  0  0
    4.7062   -0.7787    0.0000 H   0  0  0  0  0  0  0  0  0  0  0  0
    4.8705   -1.5586    0.0000 H   0  0  0  0  0  0  0  0  0  0  0  0
    6.4678   -2.1070    0.0000 H   0  0  0  0  0  0  0  0  0  0  0  0
    6.3035   -1.3271    0.0000 H   0  0  0  0  0  0  0  0  0  0  0  0
    2.1432    1.5627    0.0000 H   0  0  0  0  0  0  0  0  0  0  0  0
    1.6644    0.8281    0.0000 H   0  0  0  0  0  0  0  0  0  0  0  0
    2.3989    0.3493    0.0000 H   0  0  0  0  0  0  0  0  0  0  0  0
    3.4559    0.0039    0.0000 H   0  0  0  0  0  0  0  0  0  0  0  0
    4.3314   -0.0436    0.0000 H   0  0  0  0  0  0  0  0  0  0  0  0
    4.3789    0.8320    0.0000 H   0  0  0  0  0  0  0  0  0  0  0  0
    5.0036   -2.8934    0.0000 H   0  0  0  0  0  0  0  0  0  0  0  0
    7.4596    1.1644    0.0000 H   0  0  0  0  0  0  0  0  0  0  0  0
    5.7748   -5.0496    0.0000 H   0  0  0  0  0  0  0  0  0  0  0  0
    6.5526    3.9648    0.0000 H   0  0  0  0  0  0  0  0  0  0  0  0
    3.8855    4.8364    0.0000 H   0  0  0  0  0  0  0  0  0  0  0  0
    4.9684   -4.0469    0.0000 H   0  0  0  0  0  0  0  0  0  0  0  0
    4.3751   -4.5792    0.0000 H   0  0  0  0  0  0  0  0  0  0  0  0
    7.0559    5.5046    0.0000 H   0  0  0  0  0  0  0  0  0  0  0  0
    4.3888    6.3763    0.0000 H   0  0  0  0  0  0  0  0  0  0  0  0
    6.4427   -5.7940    0.0000 H   0  0  0  0  0  0  0  0  0  0  0  0
    5.8819   -6.4218    0.0000 H   0  0  0  0  0  0  0  0  0  0  0  0
    4.8709   -7.8159    0.0000 H   0  0  0  0  0  0  0  0  0  0  0  0
    2.8660   -4.8018    0.0000 H   0  0  0  0  0  0  0  0  0  0  0  0
    2.8660   -8.0418    0.0000 H   0  0  0  0  0  0  0  0  0  0  0  0
    1.4631   -5.6118    0.0000 H   0  0  0  0  0  0  0  0  0  0  0  0
    1.4631   -7.2318    0.0000 H   0  0  0  0  0  0  0  0  0  0  0  0
    7.8202   -6.1568    0.0000 H   0  0  0  0  0  0  0  0  0  0  0  0
    8.6957   -6.2042    0.0000 H   0  0  0  0  0  0  0  0  0  0  0  0
    8.7431   -5.3286    0.0000 H   0  0  0  0  0  0  0  0  0  0  0  0
    5.8856    8.2299    0.0000 H   0  0  0  0  0  0  0  0  0  0  0  0
    5.0101    8.2773    0.0000 H   0  0  0  0  0  0  0  0  0  0  0  0
    4.9627    7.4018    0.0000 H   0  0  0  0  0  0  0  0  0  0  0  0
  1  3  2  0  0  0  0
  1  4  2  0  0  0  0
  1  8  1  0  0  0  0
  1 20  1  0  0  0  0
  2 17  1  0  0  0  0
  2 63  1  0  0  0  0
  5 27  2  0  0  0  0
  6 32  1  0  0  0  0
  6 41  1  0  0  0  0
  7 37  2  0  0  0  0
 12  8  1  6  0  0  0
  8 14  1  0  0  0  0
  9 19  1  0  0  0  0
  9 27  1  0  0  0  0
  9 62  1  0  0  0  0
 23 10  1  1  0  0  0
 10 37  1  0  0  0  0
 10 71  1  0  0  0  0
 11 33  1  0  0  0  0
 11 34  1  0  0  0  0
 11 73  1  0  0  0  0
 12 13  1  0  0  0  0
 12 17  1  0  0  0  0
 12 42  1  0  0  0  0
 13 15  1  0  0  0  0
 13 43  1  0  0  0  0
 13 44  1  0  0  0  0
 14 16  1  0  0  0  0
 14 45  1  0  0  0  0
 14 46  1  0  0  0  0
 15 18  1  0  0  0  0
 15 47  1  0  0  0  0
 15 48  1  0  0  0  0
 16 21  1  0  0  0  0
 16 22  1  0  0  0  0
 16 49  1  0  0  0  0
 17 50  1  0  0  0  0
 17 51  1  0  0  0  0
 18 19  1  0  0  0  0
 18 52  1  0  0  0  0
 18 53  1  0  0  0  0
 19 54  1  0  0  0  0
 19 55  1  0  0  0  0
 20 24  2  0  0  0  0
 20 25  1  0  0  0  0
 21 56  1  0  0  0  0
 21 57  1  0  0  0  0
 21 58  1  0  0  0  0
 22 59  1  0  0  0  0
 22 60  1  0  0  0  0
 22 61  1  0  0  0  0
 23 26  1  0  0  0  0
 23 27  1  0  0  0  0
 23 64  1  0  0  0  0
 24 29  1  0  0  0  0
 24 65  1  0  0  0  0
 25 30  2  0  0  0  0
 25 66  1  0  0  0  0
 26 28  1  0  0  0  0
 26 67  1  0  0  0  0
 26 68  1  0  0  0  0
 28 31  1  0  0  0  0
 28 34  2  0  0  0  0
 29 32  2  0  0  0  0
 29 69  1  0  0  0  0
 30 32  1  0  0  0  0
 30 70  1  0  0  0  0
 31 33  1  0  0  0  0
 31 35  2  0  0  0  0
 33 36  2  0  0  0  0
 34 72  1  0  0  0  0
 35 38  1  0  0  0  0
 35 74  1  0  0  0  0
 36 39  1  0  0  0  0
 36 75  1  0  0  0  0
 37 40  1  0  0  0  0
 38 39  2  0  0  0  0
 38 76  1  0  0  0  0
 39 77  1  0  0  0  0
 40 78  1  0  0  0  0
 40 79  1  0  0  0  0
 40 80  1  0  0  0  0
 41 81  1  0  0  0  0
 41 82  1  0  0  0  0
 41 83  1  0  0  0  0
M  END
> <PUBCHEM_COMPOUND_CID>
508694
> <PUBCHEM_COMPOUND_CANONICALIZED>
1
> <PUBCHEM_CACTVS_COMPLEXITY>
918
> <PUBCHEM_CACTVS_HBOND_ACCEPTOR>
7
> <PUBCHEM_CACTVS_HBOND_DONOR>
4
> <PUBCHEM_CACTVS_ROTATABLE_BOND>
16
> <PUBCHEM_CACTVS_SUBSKEYS>
AAADcfB7uABAAAAAAAAAAAAAAAAAAWAAAAAwYAAAAAAAAFgB9AAAHgQQSAAADSzh3gY+x/LJlgKoAzV3VHDCiDAxIiAI2bm+bJgOdvLEsbuUcChk1hHY6AeYycCOgIAAAAACAAABAAAAAAQAAAAAAAAAAA==
> <PUBCHEM_IUPAC_OPENEYE_NAME>
(2S)-2-acetamido-N-[(5S)-6-hydroxy-5-[isobutyl-(4-methoxyphenyl)sulfonyl-amino]hexyl]-3-(1H-indol-3-yl)propanamide
> <PUBCHEM_IUPAC_CAS_NAME>
(2S)-2-acetamido-N-[(5S)-6-hydroxy-5-[(4-methoxyphenyl)sulfonyl-(2-methylpropyl)amino]hexyl]-3-(1H-indol-3-yl)propanamide
> <PUBCHEM_IUPAC_NAME_MARKUP>
(2<I>S</I>)-2-acetamido-<I>N</I>-[(5<I>S</I>)-6-hydroxy-5-[(4-methoxyphenyl)sulfonyl-(2-methylpropyl)amino]hexyl]-3-(1<I>H</I>-indol-3-yl)propanamide
> <PUBCHEM_IUPAC_NAME>
(2S)-2-acetamido-N-[(5S)-6-hydroxy-5-[(4-methoxyphenyl)sulfonyl-(2-methylpropyl)amino]hexyl]-3-(1H-indol-3-yl)propanamide
> <PUBCHEM_IUPAC_SYSTEMATIC_NAME>
(2S)-2-acetamido-3-(1H-indol-3-yl)-N-[(5S)-5-[(4-methoxyphenyl)sulfonyl-(2-methylpropyl)amino]-6-oxidanyl-hexyl]propanamide
> <PUBCHEM_IUPAC_TRADITIONAL_NAME>
(2S)-2-acetamido-N-[(5S)-6-hydroxy-5-[isobutyl-(4-methoxyphenyl)sulfonyl-amino]hexyl]-3-(1H-indol-3-yl)propionamide
> <PUBCHEM_IUPAC_INCHI>
InChI=1S/C30H42N4O6S/c1-21(2)19-34(41(38,39)26-14-12-25(40-4)13-15-26)24(20-35)9-7-8-16-31-30(37)29(33-22(3)36)17-23-18-32-28-11-6-5-10-27(23)28/h5-6,10-15,18,21,24,29,32,35H,7-9,16-17,19-20H2,1-4H3,(H,31,37)(H,33,36)/t24-,29-/m0/s1
> <PUBCHEM_IUPAC_INCHIKEY>
MRAJPJGQGUHJDS-OUTSHDOLSA-N
> <PUBCHEM_XLOGP3_AA>
3.6
> <PUBCHEM_EXACT_MASS>
586.28250625
> <PUBCHEM_MOLECULAR_FORMULA>
C30H42N4O6S
> <PUBCHEM_MOLECULAR_WEIGHT>
586.7
> <PUBCHEM_OPENEYE_CAN_SMILES>
CC(C)CN(C(CCCCNC(=O)C(CC1=CNC2=CC=CC=C21)NC(=O)C)CO)S(=O)(=O)C3=CC=C(C=C3)OC
> <PUBCHEM_OPENEYE_ISO_SMILES>
CC(C)CN([C@@H](CCCCNC(=O)[C@H](CC1=CNC2=CC=CC=C21)NC(=O)C)CO)S(=O)(=O)C3=CC=C(C=C3)OC
> <PUBCHEM_CACTVS_TPSA>
149
> <PUBCHEM_MONOISOTOPIC_WEIGHT>
586.28250625
> <PUBCHEM_TOTAL_CHARGE>
0
> <PUBCHEM_HEAVY_ATOM_COUNT>
41
> <PUBCHEM_ATOM_DEF_STEREO_COUNT>
2
> <PUBCHEM_ATOM_UDEF_STEREO_COUNT>
0
> <PUBCHEM_BOND_DEF_STEREO_COUNT>
0
> <PUBCHEM_BOND_UDEF_STEREO_COUNT>
0
> <PUBCHEM_ISOTOPIC_ATOM_COUNT>
0
> <PUBCHEM_COMPONENT_COUNT>
1
> <PUBCHEM_CACTVS_TAUTO_COUNT>
-1
> <PUBCHEM_COORDINATE_TYPE>
1
5
255
> <PUBCHEM_BONDANNOTATIONS>
23  10  5
11  33  8
11  34  8
20  24  8
20  25  8
24  29  8
25  30  8
28  31  8
28  34  8
29  32  8
30  32  8
31  33  8
31  35  8
33  36  8
35  38  8
36  39  8
38  39  8
12  8  6
$$$$
