508666
  -OEChem-10302200282D
120124  0     1  0  0  0  0  0999 V2000
    5.4641    6.9118    0.0000 S   0  0  0  0  0  0  0  0  0  0  0  0
    4.5981    5.4118    0.0000 O   0  0  0  0  0  0  0  0  0  0  0  0
    5.9641    7.7778    0.0000 O   0  0  0  0  0  0  0  0  0  0  0  0
    4.9641    6.0458    0.0000 O   0  0  0  0  0  0  0  0  0  0  0  0
    5.4641   -5.0882    0.0000 O   0  0  0  0  0  0  0  0  0  0  0  0
    8.0622    0.4118    0.0000 O   0  0  0  0  0  0  0  0  0  0  0  0
   12.3923    0.9118    0.0000 O   0  0  0  0  0  0  0  0  0  0  0  0
    4.5981   -3.5882    0.0000 O   0  0  0  0  0  0  0  0  0  0  0  0
   11.5263   -0.5882    0.0000 O   0  0  0  0  0  0  0  0  0  0  0  0
    6.3301    6.4118    0.0000 N   0  0  3  0  0  0  0  0  0  0  0  0
    8.9282    1.9118    0.0000 N   0  0  0  0  0  0  0  0  0  0  0  0
   10.6603    0.9118    0.0000 N   0  0  0  0  0  0  0  0  0  0  0  0
    6.3301   -3.5882    0.0000 N   0  0  0  0  0  0  0  0  0  0  0  0
    6.3301    5.4118    0.0000 C   0  0  1  0  0  0  0  0  0  0  0  0
    7.1962    4.9118    0.0000 C   0  0  0  0  0  0  0  0  0  0  0  0
    7.1962    6.9118    0.0000 C   0  0  0  0  0  0  0  0  0  0  0  0
    7.1962    3.9118    0.0000 C   0  0  0  0  0  0  0  0  0  0  0  0
    8.0622    6.4118    0.0000 C   0  0  0  0  0  0  0  0  0  0  0  0
    5.4641    4.9118    0.0000 C   0  0  0  0  0  0  0  0  0  0  0  0
    8.0622    3.4118    0.0000 C   0  0  0  0  0  0  0  0  0  0  0  0
    4.5981    7.4118    0.0000 C   0  0  0  0  0  0  0  0  0  0  0  0
    4.5981   -6.5882    0.0000 C   0  0  0  0  0  0  0  0  0  0  0  0
    8.9282    6.9118    0.0000 C   0  0  0  0  0  0  0  0  0  0  0  0
    8.0622    5.4118    0.0000 C   0  0  0  0  0  0  0  0  0  0  0  0
    8.0622    2.4118    0.0000 C   0  0  0  0  0  0  0  0  0  0  0  0
    5.4071   -7.1760    0.0000 C   0  0  0  0  0  0  0  0  0  0  0  0
    3.7891   -7.1760    0.0000 C   0  0  0  0  0  0  0  0  0  0  0  0
    5.0981   -8.1270    0.0000 C   0  0  0  0  0  0  0  0  0  0  0  0
    4.0981   -8.1270    0.0000 C   0  0  0  0  0  0  0  0  0  0  0  0
    4.5981   -5.5882    0.0000 C   0  0  0  0  0  0  0  0  0  0  0  0
    4.5981    8.4118    0.0000 C   0  0  0  0  0  0  0  0  0  0  0  0
    3.7320    6.9118    0.0000 C   0  0  0  0  0  0  0  0  0  0  0  0
    6.4225   -6.9438    0.0000 C   0  0  0  0  0  0  0  0  0  0  0  0
    2.7736   -6.9438    0.0000 C   0  0  0  0  0  0  0  0  0  0  0  0
    5.7830   -8.9118    0.0000 C   0  0  0  0  0  0  0  0  0  0  0  0
    3.4131   -8.9118    0.0000 C   0  0  0  0  0  0  0  0  0  0  0  0
    9.7942    0.4118    0.0000 C   0  0  2  0  0  0  0  0  0  0  0  0
    8.9282    0.9118    0.0000 C   0  0  0  0  0  0  0  0  0  0  0  0
    3.7320    8.9118    0.0000 C   0  0  0  0  0  0  0  0  0  0  0  0
    2.8660    7.4118    0.0000 C   0  0  0  0  0  0  0  0  0  0  0  0
    2.8660    8.4118    0.0000 C   0  0  0  0  0  0  0  0  0  0  0  0
    7.1254   -7.7124    0.0000 C   0  0  0  0  0  0  0  0  0  0  0  0
    2.0707   -7.7124    0.0000 C   0  0  0  0  0  0  0  0  0  0  0  0
    6.8036   -8.7031    0.0000 C   0  0  0  0  0  0  0  0  0  0  0  0
    2.3926   -8.7031    0.0000 C   0  0  0  0  0  0  0  0  0  0  0  0
    9.7942   -0.5882    0.0000 C   0  0  0  0  0  0  0  0  0  0  0  0
    8.9282   -1.0882    0.0000 C   0  0  0  0  0  0  0  0  0  0  0  0
    2.0000    8.9118    0.0000 C   0  0  0  0  0  0  0  0  0  0  0  0
    5.4641   -4.0882    0.0000 C   0  0  0  0  0  0  0  0  0  0  0  0
    8.9282   -2.0882    0.0000 C   0  0  0  0  0  0  0  0  0  0  0  0
    8.0622   -0.5882    0.0000 C   0  0  0  0  0  0  0  0  0  0  0  0
    7.1962   -2.0882    0.0000 C   0  0  0  0  0  0  0  0  0  0  0  0
    6.3301   -2.5882    0.0000 C   0  0  0  0  0  0  0  0  0  0  0  0
   11.5263    0.4118    0.0000 C   0  0  0  0  0  0  0  0  0  0  0  0
    8.0622   -2.5882    0.0000 C   0  0  0  0  0  0  0  0  0  0  0  0
    7.1962   -1.0882    0.0000 C   0  0  0  0  0  0  0  0  0  0  0  0
   13.2583    0.4118    0.0000 C   0  0  0  0  0  0  0  0  0  0  0  0
   14.1244   -0.0882    0.0000 C   0  0  0  0  0  0  0  0  0  0  0  0
   13.7583    1.2778    0.0000 C   0  0  0  0  0  0  0  0  0  0  0  0
   12.7583   -0.4542    0.0000 C   0  0  0  0  0  0  0  0  0  0  0  0
    6.8671    5.7218    0.0000 H   0  0  0  0  0  0  0  0  0  0  0  0
    7.8067    4.8041    0.0000 H   0  0  0  0  0  0  0  0  0  0  0  0
    7.4082    5.4944    0.0000 H   0  0  0  0  0  0  0  0  0  0  0  0
    7.5947    7.3867    0.0000 H   0  0  0  0  0  0  0  0  0  0  0  0
    6.7976    7.3867    0.0000 H   0  0  0  0  0  0  0  0  0  0  0  0
    6.5856    4.0194    0.0000 H   0  0  0  0  0  0  0  0  0  0  0  0
    6.9841    3.3292    0.0000 H   0  0  0  0  0  0  0  0  0  0  0  0
    8.0622    7.0318    0.0000 H   0  0  0  0  0  0  0  0  0  0  0  0
    5.0656    4.4368    0.0000 H   0  0  0  0  0  0  0  0  0  0  0  0
    5.8626    4.4368    0.0000 H   0  0  0  0  0  0  0  0  0  0  0  0
    8.6728    3.3041    0.0000 H   0  0  0  0  0  0  0  0  0  0  0  0
    8.2742    3.9944    0.0000 H   0  0  0  0  0  0  0  0  0  0  0  0
    5.1505   -6.3067    0.0000 H   0  0  0  0  0  0  0  0  0  0  0  0
    9.2382    6.3748    0.0000 H   0  0  0  0  0  0  0  0  0  0  0  0
    9.4651    7.2218    0.0000 H   0  0  0  0  0  0  0  0  0  0  0  0
    8.6182    7.4487    0.0000 H   0  0  0  0  0  0  0  0  0  0  0  0
    7.4422    5.4118    0.0000 H   0  0  0  0  0  0  0  0  0  0  0  0
    8.0622    4.7918    0.0000 H   0  0  0  0  0  0  0  0  0  0  0  0
    8.6822    5.4118    0.0000 H   0  0  0  0  0  0  0  0  0  0  0  0
    7.4516    2.5194    0.0000 H   0  0  0  0  0  0  0  0  0  0  0  0
    7.8501    1.8292    0.0000 H   0  0  0  0  0  0  0  0  0  0  0  0
    4.3860   -5.0056    0.0000 H   0  0  0  0  0  0  0  0  0  0  0  0
    3.9875   -5.6959    0.0000 H   0  0  0  0  0  0  0  0  0  0  0  0
    4.0611    5.1018    0.0000 H   0  0  0  0  0  0  0  0  0  0  0  0
    5.1350    8.7218    0.0000 H   0  0  0  0  0  0  0  0  0  0  0  0
    3.7320    6.2918    0.0000 H   0  0  0  0  0  0  0  0  0  0  0  0
    9.4651    2.2218    0.0000 H   0  0  0  0  0  0  0  0  0  0  0  0
    6.6073   -6.3519    0.0000 H   0  0  0  0  0  0  0  0  0  0  0  0
    2.5889   -6.3519    0.0000 H   0  0  0  0  0  0  0  0  0  0  0  0
    5.5846   -9.4992    0.0000 H   0  0  0  0  0  0  0  0  0  0  0  0
    3.6115   -9.4992    0.0000 H   0  0  0  0  0  0  0  0  0  0  0  0
    9.7942    1.0318    0.0000 H   0  0  0  0  0  0  0  0  0  0  0  0
    3.7320    9.5318    0.0000 H   0  0  0  0  0  0  0  0  0  0  0  0
    2.3291    7.1018    0.0000 H   0  0  0  0  0  0  0  0  0  0  0  0
    7.7314   -7.5812    0.0000 H   0  0  0  0  0  0  0  0  0  0  0  0
    1.4648   -7.5812    0.0000 H   0  0  0  0  0  0  0  0  0  0  0  0
    7.2166   -9.1654    0.0000 H   0  0  0  0  0  0  0  0  0  0  0  0
    1.9795   -9.1654    0.0000 H   0  0  0  0  0  0  0  0  0  0  0  0
   10.0063   -1.1708    0.0000 H   0  0  0  0  0  0  0  0  0  0  0  0
   10.4048   -0.4805    0.0000 H   0  0  0  0  0  0  0  0  0  0  0  0
   10.6603    1.5318    0.0000 H   0  0  0  0  0  0  0  0  0  0  0  0
    2.3100    9.4487    0.0000 H   0  0  0  0  0  0  0  0  0  0  0  0
    1.4631    9.2218    0.0000 H   0  0  0  0  0  0  0  0  0  0  0  0
    1.6900    8.3748    0.0000 H   0  0  0  0  0  0  0  0  0  0  0  0
    9.4651   -2.3982    0.0000 H   0  0  0  0  0  0  0  0  0  0  0  0
    8.0622    0.0318    0.0000 H   0  0  0  0  0  0  0  0  0  0  0  0
    6.1181   -2.0056    0.0000 H   0  0  0  0  0  0  0  0  0  0  0  0
    5.7196   -2.6959    0.0000 H   0  0  0  0  0  0  0  0  0  0  0  0
    6.8671   -3.8982    0.0000 H   0  0  0  0  0  0  0  0  0  0  0  0
    8.0622   -3.2082    0.0000 H   0  0  0  0  0  0  0  0  0  0  0  0
    6.6592   -0.7782    0.0000 H   0  0  0  0  0  0  0  0  0  0  0  0
   13.8144   -0.6251    0.0000 H   0  0  0  0  0  0  0  0  0  0  0  0
   14.6613   -0.3982    0.0000 H   0  0  0  0  0  0  0  0  0  0  0  0
   14.4344    0.4487    0.0000 H   0  0  0  0  0  0  0  0  0  0  0  0
   14.2953    0.9678    0.0000 H   0  0  0  0  0  0  0  0  0  0  0  0
   14.0683    1.8148    0.0000 H   0  0  0  0  0  0  0  0  0  0  0  0
   13.2214    1.5878    0.0000 H   0  0  0  0  0  0  0  0  0  0  0  0
   12.2214   -0.1442    0.0000 H   0  0  0  0  0  0  0  0  0  0  0  0
   12.4483   -0.9912    0.0000 H   0  0  0  0  0  0  0  0  0  0  0  0
   13.2953   -0.7642    0.0000 H   0  0  0  0  0  0  0  0  0  0  0  0
  1  3  2  0  0  0  0
  1  4  2  0  0  0  0
  1 10  1  0  0  0  0
  1 21  1  0  0  0  0
  2 19  1  0  0  0  0
  2 84  1  0  0  0  0
  5 30  1  0  0  0  0
  5 49  1  0  0  0  0
  6 38  2  0  0  0  0
  7 54  1  0  0  0  0
  7 57  1  0  0  0  0
  8 49  2  0  0  0  0
  9 54  2  0  0  0  0
 14 10  1  1  0  0  0
 10 16  1  0  0  0  0
 11 25  1  0  0  0  0
 11 38  1  0  0  0  0
 11 87  1  0  0  0  0
 37 12  1  1  0  0  0
 12 54  1  0  0  0  0
 12101  1  0  0  0  0
 13 49  1  0  0  0  0
 13 53  1  0  0  0  0
 13109  1  0  0  0  0
 14 15  1  0  0  0  0
 14 19  1  0  0  0  0
 14 61  1  0  0  0  0
 15 17  1  0  0  0  0
 15 62  1  0  0  0  0
 15 63  1  0  0  0  0
 16 18  1  0  0  0  0
 16 64  1  0  0  0  0
 16 65  1  0  0  0  0
 17 20  1  0  0  0  0
 17 66  1  0  0  0  0
 17 67  1  0  0  0  0
 18 23  1  0  0  0  0
 18 24  1  0  0  0  0
 18 68  1  0  0  0  0
 19 69  1  0  0  0  0
 19 70  1  0  0  0  0
 20 25  1  0  0  0  0
 20 71  1  0  0  0  0
 20 72  1  0  0  0  0
 21 31  2  0  0  0  0
 21 32  1  0  0  0  0
 22 26  1  0  0  0  0
 22 27  1  0  0  0  0
 22 30  1  0  0  0  0
 22 73  1  0  0  0  0
 23 74  1  0  0  0  0
 23 75  1  0  0  0  0
 23 76  1  0  0  0  0
 24 77  1  0  0  0  0
 24 78  1  0  0  0  0
 24 79  1  0  0  0  0
 25 80  1  0  0  0  0
 25 81  1  0  0  0  0
 26 28  1  0  0  0  0
 26 33  2  0  0  0  0
 27 29  1  0  0  0  0
 27 34  2  0  0  0  0
 28 29  1  0  0  0  0
 28 35  2  0  0  0  0
 29 36  2  0  0  0  0
 30 82  1  0  0  0  0
 30 83  1  0  0  0  0
 31 39  1  0  0  0  0
 31 85  1  0  0  0  0
 32 40  2  0  0  0  0
 32 86  1  0  0  0  0
 33 42  1  0  0  0  0
 33 88  1  0  0  0  0
 34 43  1  0  0  0  0
 34 89  1  0  0  0  0
 35 44  1  0  0  0  0
 35 90  1  0  0  0  0
 36 45  1  0  0  0  0
 36 91  1  0  0  0  0
 37 38  1  0  0  0  0
 37 46  1  0  0  0  0
 37 92  1  0  0  0  0
 39 41  2  0  0  0  0
 39 93  1  0  0  0  0
 40 41  1  0  0  0  0
 40 94  1  0  0  0  0
 41 48  1  0  0  0  0
 42 44  2  0  0  0  0
 42 95  1  0  0  0  0
 43 45  2  0  0  0  0
 43 96  1  0  0  0  0
 44 97  1  0  0  0  0
 45 98  1  0  0  0  0
 46 47  1  0  0  0  0
 46 99  1  0  0  0  0
 46100  1  0  0  0  0
 47 50  2  0  0  0  0
 47 51  1  0  0  0  0
 48102  1  0  0  0  0
 48103  1  0  0  0  0
 48104  1  0  0  0  0
 50 55  1  0  0  0  0
 50105  1  0  0  0  0
 51 56  2  0  0  0  0
 51106  1  0  0  0  0
 52 53  1  0  0  0  0
 52 55  2  0  0  0  0
 52 56  1  0  0  0  0
 53107  1  0  0  0  0
 53108  1  0  0  0  0
 55110  1  0  0  0  0
 56111  1  0  0  0  0
 57 58  1  0  0  0  0
 57 59  1  0  0  0  0
 57 60  1  0  0  0  0
 58112  1  0  0  0  0
 58113  1  0  0  0  0
 58114  1  0  0  0  0
 59115  1  0  0  0  0
 59116  1  0  0  0  0
 59117  1  0  0  0  0
 60118  1  0  0  0  0
 60119  1  0  0  0  0
 60120  1  0  0  0  0
M  END
> <PUBCHEM_COMPOUND_CID>
508666
> <PUBCHEM_COMPOUND_CANONICALIZED>
1
> <PUBCHEM_CACTVS_COMPLEXITY>
1430
> <PUBCHEM_CACTVS_HBOND_ACCEPTOR>
9
> <PUBCHEM_CACTVS_HBOND_DONOR>
4
> <PUBCHEM_CACTVS_ROTATABLE_BOND>
22
> <PUBCHEM_CACTVS_SUBSKEYS>
AAADcfB/vABAAAAAAAAAAAAAAAAAAYAAAAAwYMGAAAAAAGABVAAAHgQQSAAADWzh2AYyCYLABgKIAiFSGHDCABAgAAAIiJmIBIkKcDKAkTGcYAhk1gGYiAeYyPCO0AAAAAAQAACgAAAAACAAAQAACAAAAA==
> <PUBCHEM_IUPAC_OPENEYE_NAME>
9H-fluoren-9-ylmethyl N-[[4-[(2S)-2-(tert-butoxycarbonylamino)-3-[[(5S)-6-hydroxy-5-[isobutyl(p-tolylsulfonyl)amino]hexyl]amino]-3-oxo-propyl]phenyl]methyl]carbamate
> <PUBCHEM_IUPAC_CAS_NAME>
N-[(2S)-3-[4-[[[9H-fluoren-9-ylmethoxy(oxo)methyl]amino]methyl]phenyl]-1-[[(5S)-6-hydroxy-5-[(4-methylphenyl)sulfonyl-(2-methylpropyl)amino]hexyl]amino]-1-oxopropan-2-yl]carbamic acid tert-butyl ester
> <PUBCHEM_IUPAC_NAME_MARKUP>
<I>tert</I>-butyl <I>N</I>-[(2<I>S</I>)-3-[4-[(9<I>H</I>-fluoren-9-ylmethoxycarbonylamino)methyl]phenyl]-1-[[(5<I>S</I>)-6-hydroxy-5-[(4-methylphenyl)sulfonyl-(2-methylpropyl)amino]hexyl]amino]-1-oxopropan-2-yl]carbamate
> <PUBCHEM_IUPAC_NAME>
tert-butyl N-[(2S)-3-[4-[(9H-fluoren-9-ylmethoxycarbonylamino)methyl]phenyl]-1-[[(5S)-6-hydroxy-5-[(4-methylphenyl)sulfonyl-(2-methylpropyl)amino]hexyl]amino]-1-oxopropan-2-yl]carbamate
> <PUBCHEM_IUPAC_SYSTEMATIC_NAME>
tert-butyl N-[(2S)-3-[4-[(9H-fluoren-9-ylmethoxycarbonylamino)methyl]phenyl]-1-[[(5S)-5-[(4-methylphenyl)sulfonyl-(2-methylpropyl)amino]-6-oxidanyl-hexyl]amino]-1-oxidanylidene-propan-2-yl]carbamate
> <PUBCHEM_IUPAC_TRADITIONAL_NAME>
N-[4-[(2S)-2-(tert-butoxycarbonylamino)-3-[[(5S)-6-hydroxy-5-[isobutyl(tosyl)amino]hexyl]amino]-3-keto-propyl]benzyl]carbamic acid 9H-fluoren-9-ylmethyl ester
> <PUBCHEM_IUPAC_INCHI>
InChI=1S/C47H60N4O8S/c1-32(2)29-51(60(56,57)37-24-18-33(3)19-25-37)36(30-52)13-11-12-26-48-44(53)43(50-46(55)59-47(4,5)6)27-34-20-22-35(23-21-34)28-49-45(54)58-31-42-40-16-9-7-14-38(40)39-15-8-10-17-41(39)42/h7-10,14-25,32,36,42-43,52H,11-13,26-31H2,1-6H3,(H,48,53)(H,49,54)(H,50,55)/t36-,43-/m0/s1
> <PUBCHEM_IUPAC_INCHIKEY>
POLAOXMLOQOAAX-BIMBCEMMSA-N
> <PUBCHEM_XLOGP3_AA>
7.9
> <PUBCHEM_EXACT_MASS>
840.41318606
> <PUBCHEM_MOLECULAR_FORMULA>
C47H60N4O8S
> <PUBCHEM_MOLECULAR_WEIGHT>
841.1
> <PUBCHEM_OPENEYE_CAN_SMILES>
CC1=CC=C(C=C1)S(=O)(=O)N(CC(C)C)C(CCCCNC(=O)C(CC2=CC=C(C=C2)CNC(=O)OCC3C4=CC=CC=C4C5=CC=CC=C35)NC(=O)OC(C)(C)C)CO
> <PUBCHEM_OPENEYE_ISO_SMILES>
CC1=CC=C(C=C1)S(=O)(=O)N(CC(C)C)[C@@H](CCCCNC(=O)[C@H](CC2=CC=C(C=C2)CNC(=O)OCC3C4=CC=CC=C4C5=CC=CC=C35)NC(=O)OC(C)(C)C)CO
> <PUBCHEM_CACTVS_TPSA>
172
> <PUBCHEM_MONOISOTOPIC_WEIGHT>
840.41318606
> <PUBCHEM_TOTAL_CHARGE>
0
> <PUBCHEM_HEAVY_ATOM_COUNT>
60
> <PUBCHEM_ATOM_DEF_STEREO_COUNT>
2
> <PUBCHEM_ATOM_UDEF_STEREO_COUNT>
0
> <PUBCHEM_BOND_DEF_STEREO_COUNT>
0
> <PUBCHEM_BOND_UDEF_STEREO_COUNT>
0
> <PUBCHEM_ISOTOPIC_ATOM_COUNT>
0
> <PUBCHEM_COMPONENT_COUNT>
1
> <PUBCHEM_CACTVS_TAUTO_COUNT>
-1
> <PUBCHEM_COORDINATE_TYPE>
1
5
255
> <PUBCHEM_BONDANNOTATIONS>
14  10  5
37  12  5
21  31  8
21  32  8
26  28  8
26  33  8
27  29  8
27  34  8
28  35  8
29  36  8
31  39  8
32  40  8
33  42  8
34  43  8
35  44  8
36  45  8
39  41  8
40  41  8
42  44  8
43  45  8
47  50  8
47  51  8
50  55  8
51  56  8
52  55  8
52  56  8
$$$$
