508609
  -OEChem-10302200282D
 75 76  0     1  0  0  0  0  0999 V2000
    4.5981    0.1900    0.0000 S   0  0  0  0  0  0  0  0  0  0  0  0
    5.5981    0.1900    0.0000 O   0  0  0  0  0  0  0  0  0  0  0  0
    3.5981    0.1900    0.0000 O   0  0  0  0  0  0  0  0  0  0  0  0
    6.3301    3.1900    0.0000 O   0  0  0  0  0  0  0  0  0  0  0  0
    4.5981    3.1900    0.0000 O   0  0  0  0  0  0  0  0  0  0  0  0
   10.6603    2.6900    0.0000 O   0  0  0  0  0  0  0  0  0  0  0  0
    4.5981    1.1900    0.0000 N   0  0  3  0  0  0  0  0  0  0  0  0
    9.7942    1.1900    0.0000 N   0  0  0  0  0  0  0  0  0  0  0  0
   11.5263    0.1900    0.0000 N   0  0  0  0  0  0  0  0  0  0  0  0
    5.4641    1.6900    0.0000 C   0  0  1  0  0  0  0  0  0  0  0  0
    6.3301    1.1900    0.0000 C   0  0  0  0  0  0  0  0  0  0  0  0
    3.7320    1.6900    0.0000 C   0  0  0  0  0  0  0  0  0  0  0  0
    2.8660    1.1900    0.0000 C   0  0  0  0  0  0  0  0  0  0  0  0
    7.1962    1.6900    0.0000 C   0  0  0  0  0  0  0  0  0  0  0  0
    8.0622    1.1900    0.0000 C   0  0  0  0  0  0  0  0  0  0  0  0
    5.4641    2.6900    0.0000 C   0  0  0  0  0  0  0  0  0  0  0  0
    4.5981   -0.8100    0.0000 C   0  0  0  0  0  0  0  0  0  0  0  0
    2.0000    1.6900    0.0000 C   0  0  0  0  0  0  0  0  0  0  0  0
    2.8660    0.1900    0.0000 C   0  0  0  0  0  0  0  0  0  0  0  0
    8.9282    1.6900    0.0000 C   0  0  0  0  0  0  0  0  0  0  0  0
    5.4641   -1.3100    0.0000 C   0  0  0  0  0  0  0  0  0  0  0  0
    3.7320   -1.3100    0.0000 C   0  0  0  0  0  0  0  0  0  0  0  0
   11.5263    1.1900    0.0000 C   0  0  2  0  0  0  0  0  0  0  0  0
   10.6603    1.6900    0.0000 C   0  0  0  0  0  0  0  0  0  0  0  0
   12.3923    1.6900    0.0000 C   0  0  0  0  0  0  0  0  0  0  0  0
    5.4641   -2.3100    0.0000 C   0  0  0  0  0  0  0  0  0  0  0  0
    3.7320   -2.3100    0.0000 C   0  0  0  0  0  0  0  0  0  0  0  0
    4.5981   -2.8100    0.0000 C   0  0  0  0  0  0  0  0  0  0  0  0
   13.2583    1.1900    0.0000 C   0  0  0  0  0  0  0  0  0  0  0  0
    4.5981   -3.8100    0.0000 C   0  0  0  0  0  0  0  0  0  0  0  0
   10.6603   -0.3100    0.0000 C   0  0  0  0  0  0  0  0  0  0  0  0
   14.1244    1.6900    0.0000 C   0  0  0  0  0  0  0  0  0  0  0  0
   13.2583    0.1900    0.0000 C   0  0  0  0  0  0  0  0  0  0  0  0
   14.9904    1.1900    0.0000 C   0  0  0  0  0  0  0  0  0  0  0  0
   14.1244   -0.3100    0.0000 C   0  0  0  0  0  0  0  0  0  0  0  0
   14.9904    0.1900    0.0000 C   0  0  0  0  0  0  0  0  0  0  0  0
    5.4641    1.0700    0.0000 H   0  0  0  0  0  0  0  0  0  0  0  0
    5.9316    0.7151    0.0000 H   0  0  0  0  0  0  0  0  0  0  0  0
    6.7287    0.7151    0.0000 H   0  0  0  0  0  0  0  0  0  0  0  0
    4.1306    2.1650    0.0000 H   0  0  0  0  0  0  0  0  0  0  0  0
    3.3335    2.1650    0.0000 H   0  0  0  0  0  0  0  0  0  0  0  0
    2.8660    1.8100    0.0000 H   0  0  0  0  0  0  0  0  0  0  0  0
    7.5947    2.1650    0.0000 H   0  0  0  0  0  0  0  0  0  0  0  0
    6.7976    2.1650    0.0000 H   0  0  0  0  0  0  0  0  0  0  0  0
    7.6636    0.7151    0.0000 H   0  0  0  0  0  0  0  0  0  0  0  0
    8.4607    0.7151    0.0000 H   0  0  0  0  0  0  0  0  0  0  0  0
    2.3100    2.2269    0.0000 H   0  0  0  0  0  0  0  0  0  0  0  0
    1.4631    2.0000    0.0000 H   0  0  0  0  0  0  0  0  0  0  0  0
    1.6900    1.1531    0.0000 H   0  0  0  0  0  0  0  0  0  0  0  0
    2.2460    0.1900    0.0000 H   0  0  0  0  0  0  0  0  0  0  0  0
    2.8660   -0.4300    0.0000 H   0  0  0  0  0  0  0  0  0  0  0  0
    3.4860    0.1900    0.0000 H   0  0  0  0  0  0  0  0  0  0  0  0
    9.3267    2.1650    0.0000 H   0  0  0  0  0  0  0  0  0  0  0  0
    8.5297    2.1650    0.0000 H   0  0  0  0  0  0  0  0  0  0  0  0
    9.7942    0.5700    0.0000 H   0  0  0  0  0  0  0  0  0  0  0  0
    6.0010   -1.0000    0.0000 H   0  0  0  0  0  0  0  0  0  0  0  0
    3.1951   -1.0000    0.0000 H   0  0  0  0  0  0  0  0  0  0  0  0
   12.0632    0.8800    0.0000 H   0  0  0  0  0  0  0  0  0  0  0  0
    6.3301    3.8100    0.0000 H   0  0  0  0  0  0  0  0  0  0  0  0
   12.7908    2.1650    0.0000 H   0  0  0  0  0  0  0  0  0  0  0  0
   11.9938    2.1650    0.0000 H   0  0  0  0  0  0  0  0  0  0  0  0
    6.0010   -2.6200    0.0000 H   0  0  0  0  0  0  0  0  0  0  0  0
    3.1951   -2.6200    0.0000 H   0  0  0  0  0  0  0  0  0  0  0  0
   12.0632   -0.1200    0.0000 H   0  0  0  0  0  0  0  0  0  0  0  0
    3.9781   -3.8100    0.0000 H   0  0  0  0  0  0  0  0  0  0  0  0
    4.5981   -4.4300    0.0000 H   0  0  0  0  0  0  0  0  0  0  0  0
    5.2181   -3.8100    0.0000 H   0  0  0  0  0  0  0  0  0  0  0  0
   10.3503    0.2269    0.0000 H   0  0  0  0  0  0  0  0  0  0  0  0
   10.1233   -0.6200    0.0000 H   0  0  0  0  0  0  0  0  0  0  0  0
   10.9703   -0.8469    0.0000 H   0  0  0  0  0  0  0  0  0  0  0  0
   14.1244    2.3100    0.0000 H   0  0  0  0  0  0  0  0  0  0  0  0
   12.7214   -0.1200    0.0000 H   0  0  0  0  0  0  0  0  0  0  0  0
   15.5273    1.5000    0.0000 H   0  0  0  0  0  0  0  0  0  0  0  0
   14.1244   -0.9300    0.0000 H   0  0  0  0  0  0  0  0  0  0  0  0
   15.5273   -0.1200    0.0000 H   0  0  0  0  0  0  0  0  0  0  0  0
  1  2  2  0  0  0  0
  1  3  2  0  0  0  0
  1  7  1  0  0  0  0
  1 17  1  0  0  0  0
  4 16  1  0  0  0  0
  4 59  1  0  0  0  0
  5 16  2  0  0  0  0
  6 24  2  0  0  0  0
 10  7  1  6  0  0  0
  7 12  1  0  0  0  0
  8 20  1  0  0  0  0
  8 24  1  0  0  0  0
  8 55  1  0  0  0  0
 23  9  1  6  0  0  0
  9 31  1  0  0  0  0
  9 64  1  0  0  0  0
 10 11  1  0  0  0  0
 10 16  1  0  0  0  0
 10 37  1  0  0  0  0
 11 14  1  0  0  0  0
 11 38  1  0  0  0  0
 11 39  1  0  0  0  0
 12 13  1  0  0  0  0
 12 40  1  0  0  0  0
 12 41  1  0  0  0  0
 13 18  1  0  0  0  0
 13 19  1  0  0  0  0
 13 42  1  0  0  0  0
 14 15  1  0  0  0  0
 14 43  1  0  0  0  0
 14 44  1  0  0  0  0
 15 20  1  0  0  0  0
 15 45  1  0  0  0  0
 15 46  1  0  0  0  0
 17 21  2  0  0  0  0
 17 22  1  0  0  0  0
 18 47  1  0  0  0  0
 18 48  1  0  0  0  0
 18 49  1  0  0  0  0
 19 50  1  0  0  0  0
 19 51  1  0  0  0  0
 19 52  1  0  0  0  0
 20 53  1  0  0  0  0
 20 54  1  0  0  0  0
 21 26  1  0  0  0  0
 21 56  1  0  0  0  0
 22 27  2  0  0  0  0
 22 57  1  0  0  0  0
 23 24  1  0  0  0  0
 23 25  1  0  0  0  0
 23 58  1  0  0  0  0
 25 29  1  0  0  0  0
 25 60  1  0  0  0  0
 25 61  1  0  0  0  0
 26 28  2  0  0  0  0
 26 62  1  0  0  0  0
 27 28  1  0  0  0  0
 27 63  1  0  0  0  0
 28 30  1  0  0  0  0
 29 32  2  0  0  0  0
 29 33  1  0  0  0  0
 30 65  1  0  0  0  0
 30 66  1  0  0  0  0
 30 67  1  0  0  0  0
 31 68  1  0  0  0  0
 31 69  1  0  0  0  0
 31 70  1  0  0  0  0
 32 34  1  0  0  0  0
 32 71  1  0  0  0  0
 33 35  2  0  0  0  0
 33 72  1  0  0  0  0
 34 36  2  0  0  0  0
 34 73  1  0  0  0  0
 35 36  1  0  0  0  0
 35 74  1  0  0  0  0
 36 75  1  0  0  0  0
M  END
> <PUBCHEM_COMPOUND_CID>
508609
> <PUBCHEM_COMPOUND_CANONICALIZED>
1
> <PUBCHEM_CACTVS_COMPLEXITY>
769
> <PUBCHEM_CACTVS_HBOND_ACCEPTOR>
7
> <PUBCHEM_CACTVS_HBOND_DONOR>
3
> <PUBCHEM_CACTVS_ROTATABLE_BOND>
15
> <PUBCHEM_CACTVS_SUBSKEYS>
AAADcfB7OABAAAAAAAAAAAAAAAAAAAAAAAAwYAAAAAAAAAABQAAAHgQQSAAADSjB2AQyCYLAAgKIAiHSGHBCABAgAAAIiJmIAIgKYDKAkTGUYAAklgCYiAeYyICOEAAAAAAAAAAgAAAAAAAAAAAAAAAAAA==
> <PUBCHEM_IUPAC_OPENEYE_NAME>
(2S)-2-[isobutyl(p-tolylsulfonyl)amino]-6-[[(2S)-2-(methylamino)-3-phenyl-propanoyl]amino]hexanoic acid
> <PUBCHEM_IUPAC_CAS_NAME>
(2S)-6-[[(2S)-2-(methylamino)-1-oxo-3-phenylpropyl]amino]-2-[(4-methylphenyl)sulfonyl-(2-methylpropyl)amino]hexanoic acid
> <PUBCHEM_IUPAC_NAME_MARKUP>
(2<I>S</I>)-6-[[(2<I>S</I>)-2-(methylamino)-3-phenylpropanoyl]amino]-2-[(4-methylphenyl)sulfonyl-(2-methylpropyl)amino]hexanoic acid
> <PUBCHEM_IUPAC_NAME>
(2S)-6-[[(2S)-2-(methylamino)-3-phenylpropanoyl]amino]-2-[(4-methylphenyl)sulfonyl-(2-methylpropyl)amino]hexanoic acid
> <PUBCHEM_IUPAC_SYSTEMATIC_NAME>
(2S)-6-[[(2S)-2-(methylamino)-3-phenyl-propanoyl]amino]-2-[(4-methylphenyl)sulfonyl-(2-methylpropyl)amino]hexanoic acid
> <PUBCHEM_IUPAC_TRADITIONAL_NAME>
(2S)-2-[isobutyl(tosyl)amino]-6-[[(2S)-2-(methylamino)-3-phenyl-propanoyl]amino]hexanoic acid
> <PUBCHEM_IUPAC_INCHI>
InChI=1S/C27H39N3O5S/c1-20(2)19-30(36(34,35)23-15-13-21(3)14-16-23)25(27(32)33)12-8-9-17-29-26(31)24(28-4)18-22-10-6-5-7-11-22/h5-7,10-11,13-16,20,24-25,28H,8-9,12,17-19H2,1-4H3,(H,29,31)(H,32,33)/t24-,25-/m0/s1
> <PUBCHEM_IUPAC_INCHIKEY>
CNJNMHALPQEGGD-DQEYMECFSA-N
> <PUBCHEM_XLOGP3_AA>
2.1
> <PUBCHEM_EXACT_MASS>
517.26104253
> <PUBCHEM_MOLECULAR_FORMULA>
C27H39N3O5S
> <PUBCHEM_MOLECULAR_WEIGHT>
517.7
> <PUBCHEM_OPENEYE_CAN_SMILES>
CC1=CC=C(C=C1)S(=O)(=O)N(CC(C)C)C(CCCCNC(=O)C(CC2=CC=CC=C2)NC)C(=O)O
> <PUBCHEM_OPENEYE_ISO_SMILES>
CC1=CC=C(C=C1)S(=O)(=O)N(CC(C)C)[C@@H](CCCCNC(=O)[C@H](CC2=CC=CC=C2)NC)C(=O)O
> <PUBCHEM_CACTVS_TPSA>
124
> <PUBCHEM_MONOISOTOPIC_WEIGHT>
517.26104253
> <PUBCHEM_TOTAL_CHARGE>
0
> <PUBCHEM_HEAVY_ATOM_COUNT>
36
> <PUBCHEM_ATOM_DEF_STEREO_COUNT>
2
> <PUBCHEM_ATOM_UDEF_STEREO_COUNT>
0
> <PUBCHEM_BOND_DEF_STEREO_COUNT>
0
> <PUBCHEM_BOND_UDEF_STEREO_COUNT>
0
> <PUBCHEM_ISOTOPIC_ATOM_COUNT>
0
> <PUBCHEM_COMPONENT_COUNT>
1
> <PUBCHEM_CACTVS_TAUTO_COUNT>
-1
> <PUBCHEM_COORDINATE_TYPE>
1
5
255
> <PUBCHEM_BONDANNOTATIONS>
17  21  8
17  22  8
21  26  8
22  27  8
26  28  8
27  28  8
29  32  8
29  33  8
32  34  8
33  35  8
34  36  8
35  36  8
10  7  6
23  9  6
$$$$
