508670
  -OEChem-10302200282D
 93 95  0     1  0  0  0  0  0999 V2000
   13.2207   -2.0267    0.0000 S   0  0  0  0  0  0  0  0  0  0  0  0
   10.2852   -2.6453    0.0000 O   0  0  0  0  0  0  0  0  0  0  0  0
   13.9650   -1.3588    0.0000 O   0  0  0  0  0  0  0  0  0  0  0  0
   12.4764   -2.6945    0.0000 O   0  0  0  0  0  0  0  0  0  0  0  0
    6.3246   -0.8249    0.0000 O   0  0  0  0  0  0  0  0  0  0  0  0
    5.9209    3.5153    0.0000 O   0  0  0  0  0  0  0  0  0  0  0  0
   15.8921   -5.0039    0.0000 O   0  0  0  0  0  0  0  0  0  0  0  0
    4.6318    2.3586    0.0000 O   0  0  0  0  0  0  0  0  0  0  0  0
   12.5528   -1.2824    0.0000 N   0  0  3  0  0  0  0  0  0  0  0  0
    7.6138    0.3319    0.0000 N   0  0  0  0  0  0  0  0  0  0  0  0
    6.2781    1.8205    0.0000 N   0  0  0  0  0  0  0  0  0  0  0  0
    4.6783   -1.8963    0.0000 N   0  0  0  0  0  0  0  0  0  0  0  0
   11.5743   -1.4886    0.0000 C   0  0  1  0  0  0  0  0  0  0  0  0
   10.9065   -0.7443    0.0000 C   0  0  0  0  0  0  0  0  0  0  0  0
   12.8635   -0.3319    0.0000 C   0  0  0  0  0  0  0  0  0  0  0  0
    9.9280   -0.9505    0.0000 C   0  0  0  0  0  0  0  0  0  0  0  0
   12.1957    0.4124    0.0000 C   0  0  0  0  0  0  0  0  0  0  0  0
   11.2637   -2.4391    0.0000 C   0  0  0  0  0  0  0  0  0  0  0  0
    9.2601   -0.2062    0.0000 C   0  0  0  0  0  0  0  0  0  0  0  0
    8.2816   -0.4124    0.0000 C   0  0  0  0  0  0  0  0  0  0  0  0
   13.8885   -2.7710    0.0000 C   0  0  0  0  0  0  0  0  0  0  0  0
   12.5063    1.3630    0.0000 C   0  0  0  0  0  0  0  0  0  0  0  0
   11.2171    0.2062    0.0000 C   0  0  0  0  0  0  0  0  0  0  0  0
    5.9674    0.8699    0.0000 C   0  0  1  0  0  0  0  0  0  0  0  0
   13.5779   -3.7215    0.0000 C   0  0  0  0  0  0  0  0  0  0  0  0
   14.8670   -2.5648    0.0000 C   0  0  0  0  0  0  0  0  0  0  0  0
    4.9889    0.6637    0.0000 C   0  0  0  0  0  0  0  0  0  0  0  0
    6.6353    0.1256    0.0000 C   0  0  0  0  0  0  0  0  0  0  0  0
    4.6783   -0.2868    0.0000 C   0  0  0  0  0  0  0  0  0  0  0  0
   14.2457   -4.4658    0.0000 C   0  0  0  0  0  0  0  0  0  0  0  0
   15.5349   -3.3091    0.0000 C   0  0  0  0  0  0  0  0  0  0  0  0
    3.7320   -0.5915    0.0000 C   0  0  0  0  0  0  0  0  0  0  0  0
   15.2242   -4.2596    0.0000 C   0  0  0  0  0  0  0  0  0  0  0  0
    3.7320   -1.5915    0.0000 C   0  0  0  0  0  0  0  0  0  0  0  0
    5.2619   -1.0915    0.0000 C   0  0  0  0  0  0  0  0  0  0  0  0
    2.8660   -0.0915    0.0000 C   0  0  0  0  0  0  0  0  0  0  0  0
    5.6103    2.5648    0.0000 C   0  0  0  0  0  0  0  0  0  0  0  0
    5.2531    4.2596    0.0000 C   0  0  0  0  0  0  0  0  0  0  0  0
    2.8660   -2.0915    0.0000 C   0  0  0  0  0  0  0  0  0  0  0  0
    2.0000   -0.5915    0.0000 C   0  0  0  0  0  0  0  0  0  0  0  0
    2.0000   -1.5915    0.0000 C   0  0  0  0  0  0  0  0  0  0  0  0
    4.5852    5.0039    0.0000 C   0  0  0  0  0  0  0  0  0  0  0  0
    5.9974    4.9274    0.0000 C   0  0  0  0  0  0  0  0  0  0  0  0
    4.5088    3.5918    0.0000 C   0  0  0  0  0  0  0  0  0  0  0  0
   16.8706   -4.7977    0.0000 C   0  0  0  0  0  0  0  0  0  0  0  0
   11.7669   -0.8993    0.0000 H   0  0  0  0  0  0  0  0  0  0  0  0
   11.4328   -0.4167    0.0000 H   0  0  0  0  0  0  0  0  0  0  0  0
   10.6752   -0.1690    0.0000 H   0  0  0  0  0  0  0  0  0  0  0  0
   13.4104   -0.6239    0.0000 H   0  0  0  0  0  0  0  0  0  0  0  0
   13.2461    0.1560    0.0000 H   0  0  0  0  0  0  0  0  0  0  0  0
    9.4016   -1.2782    0.0000 H   0  0  0  0  0  0  0  0  0  0  0  0
   10.1592   -1.5258    0.0000 H   0  0  0  0  0  0  0  0  0  0  0  0
   12.0030   -0.1769    0.0000 H   0  0  0  0  0  0  0  0  0  0  0  0
   11.2842   -3.0588    0.0000 H   0  0  0  0  0  0  0  0  0  0  0  0
   11.8775   -2.5265    0.0000 H   0  0  0  0  0  0  0  0  0  0  0  0
    9.7865    0.1214    0.0000 H   0  0  0  0  0  0  0  0  0  0  0  0
    9.0289    0.3690    0.0000 H   0  0  0  0  0  0  0  0  0  0  0  0
    7.7553   -0.7401    0.0000 H   0  0  0  0  0  0  0  0  0  0  0  0
    8.5129   -0.9877    0.0000 H   0  0  0  0  0  0  0  0  0  0  0  0
   13.0956    1.1704    0.0000 H   0  0  0  0  0  0  0  0  0  0  0  0
   12.6989    1.9523    0.0000 H   0  0  0  0  0  0  0  0  0  0  0  0
   11.9170    1.5556    0.0000 H   0  0  0  0  0  0  0  0  0  0  0  0
   11.0893    0.8129    0.0000 H   0  0  0  0  0  0  0  0  0  0  0  0
   10.6105    0.0784    0.0000 H   0  0  0  0  0  0  0  0  0  0  0  0
   11.3450   -0.4005    0.0000 H   0  0  0  0  0  0  0  0  0  0  0  0
    7.8064    0.9212    0.0000 H   0  0  0  0  0  0  0  0  0  0  0  0
   10.0926   -3.2347    0.0000 H   0  0  0  0  0  0  0  0  0  0  0  0
    5.5534    1.3314    0.0000 H   0  0  0  0  0  0  0  0  0  0  0  0
   12.9712   -3.8494    0.0000 H   0  0  0  0  0  0  0  0  0  0  0  0
   15.0596   -1.9754    0.0000 H   0  0  0  0  0  0  0  0  0  0  0  0
    4.9684    1.2834    0.0000 H   0  0  0  0  0  0  0  0  0  0  0  0
    4.3751    0.7511    0.0000 H   0  0  0  0  0  0  0  0  0  0  0  0
   14.0531   -5.0551    0.0000 H   0  0  0  0  0  0  0  0  0  0  0  0
   16.1415   -3.1812    0.0000 H   0  0  0  0  0  0  0  0  0  0  0  0
    6.8848    1.9483    0.0000 H   0  0  0  0  0  0  0  0  0  0  0  0
    5.8819   -1.0915    0.0000 H   0  0  0  0  0  0  0  0  0  0  0  0
    4.8709   -2.4856    0.0000 H   0  0  0  0  0  0  0  0  0  0  0  0
    2.8660    0.5285    0.0000 H   0  0  0  0  0  0  0  0  0  0  0  0
    2.8660   -2.7115    0.0000 H   0  0  0  0  0  0  0  0  0  0  0  0
    1.4631   -0.2815    0.0000 H   0  0  0  0  0  0  0  0  0  0  0  0
    1.4631   -1.9015    0.0000 H   0  0  0  0  0  0  0  0  0  0  0  0
    5.0467    5.4180    0.0000 H   0  0  0  0  0  0  0  0  0  0  0  0
    4.1712    5.4654    0.0000 H   0  0  0  0  0  0  0  0  0  0  0  0
    4.1238    4.5898    0.0000 H   0  0  0  0  0  0  0  0  0  0  0  0
    6.4114    4.4660    0.0000 H   0  0  0  0  0  0  0  0  0  0  0  0
    6.4588    5.3415    0.0000 H   0  0  0  0  0  0  0  0  0  0  0  0
    5.5833    5.3889    0.0000 H   0  0  0  0  0  0  0  0  0  0  0  0
    4.0947    4.0532    0.0000 H   0  0  0  0  0  0  0  0  0  0  0  0
    4.0473    3.1777    0.0000 H   0  0  0  0  0  0  0  0  0  0  0  0
    4.9228    3.1303    0.0000 H   0  0  0  0  0  0  0  0  0  0  0  0
   16.9984   -5.4044    0.0000 H   0  0  0  0  0  0  0  0  0  0  0  0
   17.4772   -4.6698    0.0000 H   0  0  0  0  0  0  0  0  0  0  0  0
   16.7427   -4.1910    0.0000 H   0  0  0  0  0  0  0  0  0  0  0  0
  1  3  2  0  0  0  0
  1  4  2  0  0  0  0
  1  9  1  0  0  0  0
  1 21  1  0  0  0  0
  2 18  1  0  0  0  0
  2 67  1  0  0  0  0
  5 28  2  0  0  0  0
  6 37  1  0  0  0  0
  6 38  1  0  0  0  0
  7 33  1  0  0  0  0
  7 45  1  0  0  0  0
  8 37  2  0  0  0  0
 13  9  1  6  0  0  0
  9 15  1  0  0  0  0
 10 20  1  0  0  0  0
 10 28  1  0  0  0  0
 10 66  1  0  0  0  0
 24 11  1  6  0  0  0
 11 37  1  0  0  0  0
 11 75  1  0  0  0  0
 12 34  1  0  0  0  0
 12 35  1  0  0  0  0
 12 77  1  0  0  0  0
 13 14  1  0  0  0  0
 13 18  1  0  0  0  0
 13 46  1  0  0  0  0
 14 16  1  0  0  0  0
 14 47  1  0  0  0  0
 14 48  1  0  0  0  0
 15 17  1  0  0  0  0
 15 49  1  0  0  0  0
 15 50  1  0  0  0  0
 16 19  1  0  0  0  0
 16 51  1  0  0  0  0
 16 52  1  0  0  0  0
 17 22  1  0  0  0  0
 17 23  1  0  0  0  0
 17 53  1  0  0  0  0
 18 54  1  0  0  0  0
 18 55  1  0  0  0  0
 19 20  1  0  0  0  0
 19 56  1  0  0  0  0
 19 57  1  0  0  0  0
 20 58  1  0  0  0  0
 20 59  1  0  0  0  0
 21 25  2  0  0  0  0
 21 26  1  0  0  0  0
 22 60  1  0  0  0  0
 22 61  1  0  0  0  0
 22 62  1  0  0  0  0
 23 63  1  0  0  0  0
 23 64  1  0  0  0  0
 23 65  1  0  0  0  0
 24 27  1  0  0  0  0
 24 28  1  0  0  0  0
 24 68  1  0  0  0  0
 25 30  1  0  0  0  0
 25 69  1  0  0  0  0
 26 31  2  0  0  0  0
 26 70  1  0  0  0  0
 27 29  1  0  0  0  0
 27 71  1  0  0  0  0
 27 72  1  0  0  0  0
 29 32  1  0  0  0  0
 29 35  2  0  0  0  0
 30 33  2  0  0  0  0
 30 73  1  0  0  0  0
 31 33  1  0  0  0  0
 31 74  1  0  0  0  0
 32 34  1  0  0  0  0
 32 36  2  0  0  0  0
 34 39  2  0  0  0  0
 35 76  1  0  0  0  0
 36 40  1  0  0  0  0
 36 78  1  0  0  0  0
 38 42  1  0  0  0  0
 38 43  1  0  0  0  0
 38 44  1  0  0  0  0
 39 41  1  0  0  0  0
 39 79  1  0  0  0  0
 40 41  2  0  0  0  0
 40 80  1  0  0  0  0
 41 81  1  0  0  0  0
 42 82  1  0  0  0  0
 42 83  1  0  0  0  0
 42 84  1  0  0  0  0
 43 85  1  0  0  0  0
 43 86  1  0  0  0  0
 43 87  1  0  0  0  0
 44 88  1  0  0  0  0
 44 89  1  0  0  0  0
 44 90  1  0  0  0  0
 45 91  1  0  0  0  0
 45 92  1  0  0  0  0
 45 93  1  0  0  0  0
M  END
> <PUBCHEM_COMPOUND_CID>
508670
> <PUBCHEM_COMPOUND_CANONICALIZED>
1
> <PUBCHEM_CACTVS_COMPLEXITY>
1020
> <PUBCHEM_CACTVS_HBOND_ACCEPTOR>
8
> <PUBCHEM_CACTVS_HBOND_DONOR>
4
> <PUBCHEM_CACTVS_ROTATABLE_BOND>
18
> <PUBCHEM_CACTVS_SUBSKEYS>
AAADcfB/uABAAAAAAAAAAAAAAAAAAWAAAAAwYAAAAAAAAFgB9AAAHgQQSAAADWzh3gY+z/LJlgKoAzV3XHDCiDAxIiAI2bm+bJkOdvLEsbuccChk1hHY6AeYycCOgIAAAAACAAABAAAAAAQAAAAAAAAAAA==
> <PUBCHEM_IUPAC_OPENEYE_NAME>
tert-butyl N-[(1S)-2-[[(5S)-6-hydroxy-5-[isobutyl-(4-methoxyphenyl)sulfonyl-amino]hexyl]amino]-1-(1H-indol-3-ylmethyl)-2-oxo-ethyl]carbamate
> <PUBCHEM_IUPAC_CAS_NAME>
N-[(2S)-1-[[(5S)-6-hydroxy-5-[(4-methoxyphenyl)sulfonyl-(2-methylpropyl)amino]hexyl]amino]-3-(1H-indol-3-yl)-1-oxopropan-2-yl]carbamic acid tert-butyl ester
> <PUBCHEM_IUPAC_NAME_MARKUP>
<I>tert</I>-butyl <I>N</I>-[(2<I>S</I>)-1-[[(5<I>S</I>)-6-hydroxy-5-[(4-methoxyphenyl)sulfonyl-(2-methylpropyl)amino]hexyl]amino]-3-(1<I>H</I>-indol-3-yl)-1-oxopropan-2-yl]carbamate
> <PUBCHEM_IUPAC_NAME>
tert-butyl N-[(2S)-1-[[(5S)-6-hydroxy-5-[(4-methoxyphenyl)sulfonyl-(2-methylpropyl)amino]hexyl]amino]-3-(1H-indol-3-yl)-1-oxopropan-2-yl]carbamate
> <PUBCHEM_IUPAC_SYSTEMATIC_NAME>
tert-butyl N-[(2S)-3-(1H-indol-3-yl)-1-[[(5S)-5-[(4-methoxyphenyl)sulfonyl-(2-methylpropyl)amino]-6-oxidanyl-hexyl]amino]-1-oxidanylidene-propan-2-yl]carbamate
> <PUBCHEM_IUPAC_TRADITIONAL_NAME>
N-[(1S)-2-[[(5S)-6-hydroxy-5-[isobutyl-(4-methoxyphenyl)sulfonyl-amino]hexyl]amino]-1-(1H-indol-3-ylmethyl)-2-keto-ethyl]carbamic acid tert-butyl ester
> <PUBCHEM_IUPAC_INCHI>
InChI=1S/C33H48N4O7S/c1-23(2)21-37(45(41,42)27-16-14-26(43-6)15-17-27)25(22-38)11-9-10-18-34-31(39)30(36-32(40)44-33(3,4)5)19-24-20-35-29-13-8-7-12-28(24)29/h7-8,12-17,20,23,25,30,35,38H,9-11,18-19,21-22H2,1-6H3,(H,34,39)(H,36,40)/t25-,30-/m0/s1
> <PUBCHEM_IUPAC_INCHIKEY>
VDUUBWRROOGBJW-QCDSWUKFSA-N
> <PUBCHEM_XLOGP3_AA>
5
> <PUBCHEM_EXACT_MASS>
644.32437106
> <PUBCHEM_MOLECULAR_FORMULA>
C33H48N4O7S
> <PUBCHEM_MOLECULAR_WEIGHT>
644.8
> <PUBCHEM_OPENEYE_CAN_SMILES>
CC(C)CN(C(CCCCNC(=O)C(CC1=CNC2=CC=CC=C21)NC(=O)OC(C)(C)C)CO)S(=O)(=O)C3=CC=C(C=C3)OC
> <PUBCHEM_OPENEYE_ISO_SMILES>
CC(C)CN([C@@H](CCCCNC(=O)[C@H](CC1=CNC2=CC=CC=C21)NC(=O)OC(C)(C)C)CO)S(=O)(=O)C3=CC=C(C=C3)OC
> <PUBCHEM_CACTVS_TPSA>
158
> <PUBCHEM_MONOISOTOPIC_WEIGHT>
644.32437106
> <PUBCHEM_TOTAL_CHARGE>
0
> <PUBCHEM_HEAVY_ATOM_COUNT>
45
> <PUBCHEM_ATOM_DEF_STEREO_COUNT>
2
> <PUBCHEM_ATOM_UDEF_STEREO_COUNT>
0
> <PUBCHEM_BOND_DEF_STEREO_COUNT>
0
> <PUBCHEM_BOND_UDEF_STEREO_COUNT>
0
> <PUBCHEM_ISOTOPIC_ATOM_COUNT>
0
> <PUBCHEM_COMPONENT_COUNT>
1
> <PUBCHEM_CACTVS_TAUTO_COUNT>
-1
> <PUBCHEM_COORDINATE_TYPE>
1
5
255
> <PUBCHEM_BONDANNOTATIONS>
24  11  6
12  34  8
12  35  8
21  25  8
21  26  8
25  30  8
26  31  8
29  32  8
29  35  8
30  33  8
31  33  8
32  34  8
32  36  8
34  39  8
36  40  8
39  41  8
40  41  8
13  9  6
$$$$
