508614
  -OEChem-10302200282D
 76 78  0     1  0  0  0  0  0999 V2000
   11.4348    2.3684    0.0000 S   0  0  0  0  0  0  0  0  0  0  0  0
   12.3853    2.0578    0.0000 O   0  0  0  0  0  0  0  0  0  0  0  0
   10.4843    2.6791    0.0000 O   0  0  0  0  0  0  0  0  0  0  0  0
    8.4993    1.7498    0.0000 O   0  0  0  0  0  0  0  0  0  0  0  0
    9.7884    2.9065    0.0000 O   0  0  0  0  0  0  0  0  0  0  0  0
    5.6103   -1.5142    0.0000 O   0  0  0  0  0  0  0  0  0  0  0  0
   11.1241    1.4179    0.0000 N   0  0  3  0  0  0  0  0  0  0  0  0
    7.2566   -2.0523    0.0000 N   0  0  0  0  0  0  0  0  0  0  0  0
    6.6353   -3.9533    0.0000 N   0  0  0  0  0  0  0  0  0  0  0  0
    4.6783   -5.9752    0.0000 N   0  0  0  0  0  0  0  0  0  0  0  0
   10.1456    1.2117    0.0000 C   0  0  1  0  0  0  0  0  0  0  0  0
    9.8349    0.2612    0.0000 C   0  0  0  0  0  0  0  0  0  0  0  0
   11.7920    0.6736    0.0000 C   0  0  0  0  0  0  0  0  0  0  0  0
    8.8564    0.0550    0.0000 C   0  0  0  0  0  0  0  0  0  0  0  0
   11.4813   -0.2769    0.0000 C   0  0  0  0  0  0  0  0  0  0  0  0
    8.5458   -0.8956    0.0000 C   0  0  0  0  0  0  0  0  0  0  0  0
    4.6783   -4.3658    0.0000 C   0  0  3  0  0  0  0  0  0  0  0  0
    4.9889   -3.4153    0.0000 C   0  0  0  0  0  0  0  0  0  0  0  0
    7.5673   -1.1018    0.0000 C   0  0  0  0  0  0  0  0  0  0  0  0
    9.4778    1.9560    0.0000 C   0  0  0  0  0  0  0  0  0  0  0  0
    5.9674   -3.2090    0.0000 C   0  0  1  0  0  0  0  0  0  0  0  0
   11.7454    3.3190    0.0000 C   0  0  0  0  0  0  0  0  0  0  0  0
   12.1491   -1.0212    0.0000 C   0  0  0  0  0  0  0  0  0  0  0  0
   10.5028   -0.4831    0.0000 C   0  0  0  0  0  0  0  0  0  0  0  0
    3.7320   -4.6705    0.0000 C   0  0  0  0  0  0  0  0  0  0  0  0
    6.2781   -2.2585    0.0000 C   0  0  0  0  0  0  0  0  0  0  0  0
    5.2619   -5.1705    0.0000 C   0  0  0  0  0  0  0  0  0  0  0  0
    3.7320   -5.6705    0.0000 C   0  0  0  0  0  0  0  0  0  0  0  0
   12.7239    3.5252    0.0000 C   0  0  0  0  0  0  0  0  0  0  0  0
   11.0776    4.0633    0.0000 C   0  0  0  0  0  0  0  0  0  0  0  0
    2.8660   -4.1705    0.0000 C   0  0  0  0  0  0  0  0  0  0  0  0
    2.8660   -6.1705    0.0000 C   0  0  0  0  0  0  0  0  0  0  0  0
   13.0346    4.4757    0.0000 C   0  0  0  0  0  0  0  0  0  0  0  0
   11.3883    5.0138    0.0000 C   0  0  0  0  0  0  0  0  0  0  0  0
   12.3668    5.2200    0.0000 C   0  0  0  0  0  0  0  0  0  0  0  0
    2.0000   -4.6705    0.0000 C   0  0  0  0  0  0  0  0  0  0  0  0
    2.0000   -5.6705    0.0000 C   0  0  0  0  0  0  0  0  0  0  0  0
   12.6774    6.1705    0.0000 C   0  0  0  0  0  0  0  0  0  0  0  0
   10.3382    1.8010    0.0000 H   0  0  0  0  0  0  0  0  0  0  0  0
    9.8555   -0.3585    0.0000 H   0  0  0  0  0  0  0  0  0  0  0  0
   10.4488    0.1738    0.0000 H   0  0  0  0  0  0  0  0  0  0  0  0
   12.3389    0.3816    0.0000 H   0  0  0  0  0  0  0  0  0  0  0  0
   12.1745    1.1615    0.0000 H   0  0  0  0  0  0  0  0  0  0  0  0
    8.8359    0.6746    0.0000 H   0  0  0  0  0  0  0  0  0  0  0  0
    8.2426    0.1423    0.0000 H   0  0  0  0  0  0  0  0  0  0  0  0
   11.0672    0.1846    0.0000 H   0  0  0  0  0  0  0  0  0  0  0  0
    8.5663   -1.5152    0.0000 H   0  0  0  0  0  0  0  0  0  0  0  0
    9.1596   -0.9829    0.0000 H   0  0  0  0  0  0  0  0  0  0  0  0
    5.2908   -4.2696    0.0000 H   0  0  0  0  0  0  0  0  0  0  0  0
    4.9684   -2.7956    0.0000 H   0  0  0  0  0  0  0  0  0  0  0  0
    4.3751   -3.3279    0.0000 H   0  0  0  0  0  0  0  0  0  0  0  0
    7.5467   -0.4821    0.0000 H   0  0  0  0  0  0  0  0  0  0  0  0
    6.9534   -1.0144    0.0000 H   0  0  0  0  0  0  0  0  0  0  0  0
    5.7748   -3.7984    0.0000 H   0  0  0  0  0  0  0  0  0  0  0  0
   11.6877   -1.4353    0.0000 H   0  0  0  0  0  0  0  0  0  0  0  0
   12.5632   -1.4827    0.0000 H   0  0  0  0  0  0  0  0  0  0  0  0
   12.6106   -0.6071    0.0000 H   0  0  0  0  0  0  0  0  0  0  0  0
   10.3749    0.1235    0.0000 H   0  0  0  0  0  0  0  0  0  0  0  0
    9.8961   -0.6110    0.0000 H   0  0  0  0  0  0  0  0  0  0  0  0
   10.6306   -1.0898    0.0000 H   0  0  0  0  0  0  0  0  0  0  0  0
    7.6707   -2.5138    0.0000 H   0  0  0  0  0  0  0  0  0  0  0  0
    5.8819   -5.1705    0.0000 H   0  0  0  0  0  0  0  0  0  0  0  0
   13.1380    3.0637    0.0000 H   0  0  0  0  0  0  0  0  0  0  0  0
   10.4709    3.9354    0.0000 H   0  0  0  0  0  0  0  0  0  0  0  0
    2.8660   -3.5505    0.0000 H   0  0  0  0  0  0  0  0  0  0  0  0
    7.2420   -3.8255    0.0000 H   0  0  0  0  0  0  0  0  0  0  0  0
    6.4427   -4.5427    0.0000 H   0  0  0  0  0  0  0  0  0  0  0  0
    8.0852    2.2112    0.0000 H   0  0  0  0  0  0  0  0  0  0  0  0
    2.8660   -6.7905    0.0000 H   0  0  0  0  0  0  0  0  0  0  0  0
   13.6413    4.6036    0.0000 H   0  0  0  0  0  0  0  0  0  0  0  0
   10.9742    5.4752    0.0000 H   0  0  0  0  0  0  0  0  0  0  0  0
    1.4631   -4.3605    0.0000 H   0  0  0  0  0  0  0  0  0  0  0  0
    1.4631   -5.9805    0.0000 H   0  0  0  0  0  0  0  0  0  0  0  0
   13.2667    5.9779    0.0000 H   0  0  0  0  0  0  0  0  0  0  0  0
   12.8700    6.7598    0.0000 H   0  0  0  0  0  0  0  0  0  0  0  0
   12.0881    6.3631    0.0000 H   0  0  0  0  0  0  0  0  0  0  0  0
  1  2  2  0  0  0  0
  1  3  2  0  0  0  0
  1  7  1  0  0  0  0
  1 22  1  0  0  0  0
  4 20  1  0  0  0  0
  4 68  1  0  0  0  0
  5 20  2  0  0  0  0
  6 26  2  0  0  0  0
 11  7  1  1  0  0  0
  7 13  1  0  0  0  0
  8 19  1  0  0  0  0
  8 26  1  0  0  0  0
  8 61  1  0  0  0  0
 21  9  1  1  0  0  0
  9 66  1  0  0  0  0
  9 67  1  0  0  0  0
 10 27  2  0  0  0  0
 10 28  1  0  0  0  0
 11 12  1  0  0  0  0
 11 20  1  0  0  0  0
 11 39  1  0  0  0  0
 12 14  1  0  0  0  0
 12 40  1  0  0  0  0
 12 41  1  0  0  0  0
 13 15  1  0  0  0  0
 13 42  1  0  0  0  0
 13 43  1  0  0  0  0
 14 16  1  0  0  0  0
 14 44  1  0  0  0  0
 14 45  1  0  0  0  0
 15 23  1  0  0  0  0
 15 24  1  0  0  0  0
 15 46  1  0  0  0  0
 16 19  1  0  0  0  0
 16 47  1  0  0  0  0
 16 48  1  0  0  0  0
 17 18  1  0  0  0  0
 17 25  1  0  0  0  0
 17 27  1  0  0  0  0
 17 49  1  0  0  0  0
 18 21  1  0  0  0  0
 18 50  1  0  0  0  0
 18 51  1  0  0  0  0
 19 52  1  0  0  0  0
 19 53  1  0  0  0  0
 21 26  1  0  0  0  0
 21 54  1  0  0  0  0
 22 29  2  0  0  0  0
 22 30  1  0  0  0  0
 23 55  1  0  0  0  0
 23 56  1  0  0  0  0
 23 57  1  0  0  0  0
 24 58  1  0  0  0  0
 24 59  1  0  0  0  0
 24 60  1  0  0  0  0
 25 28  1  0  0  0  0
 25 31  2  0  0  0  0
 27 62  1  0  0  0  0
 28 32  2  0  0  0  0
 29 33  1  0  0  0  0
 29 63  1  0  0  0  0
 30 34  2  0  0  0  0
 30 64  1  0  0  0  0
 31 36  1  0  0  0  0
 31 65  1  0  0  0  0
 32 37  1  0  0  0  0
 32 69  1  0  0  0  0
 33 35  2  0  0  0  0
 33 70  1  0  0  0  0
 34 35  1  0  0  0  0
 34 71  1  0  0  0  0
 35 38  1  0  0  0  0
 36 37  2  0  0  0  0
 36 72  1  0  0  0  0
 37 73  1  0  0  0  0
 38 74  1  0  0  0  0
 38 75  1  0  0  0  0
 38 76  1  0  0  0  0
M  END
> <PUBCHEM_COMPOUND_CID>
508614
> <PUBCHEM_COMPOUND_CANONICALIZED>
1
> <PUBCHEM_CACTVS_COMPLEXITY>
911
> <PUBCHEM_CACTVS_HBOND_ACCEPTOR>
8
> <PUBCHEM_CACTVS_HBOND_DONOR>
3
> <PUBCHEM_CACTVS_ROTATABLE_BOND>
14
> <PUBCHEM_CACTVS_SUBSKEYS>
AAADcfB7uABAAAAAAAAAAAAAAAAAAQAAAAAwYAAAAAAAAEABQAAAHgQQSAAADSjB2AQyyYLAAgKoAjXzXHDCABAgAgAIiJm4ZIgKYDKAkbGUYABklgCYyAeYyMCOkAAAAAACAAAgAAAAAAQAAAAAAAAAAA==
> <PUBCHEM_IUPAC_OPENEYE_NAME>
(2S)-6-[[(2S)-2-amino-3-(3H-indol-3-yl)propanoyl]amino]-2-[isobutyl(p-tolylsulfonyl)amino]hexanoic acid
> <PUBCHEM_IUPAC_CAS_NAME>
(2S)-6-[[(2S)-2-amino-3-(3H-indol-3-yl)-1-oxopropyl]amino]-2-[(4-methylphenyl)sulfonyl-(2-methylpropyl)amino]hexanoic acid
> <PUBCHEM_IUPAC_NAME_MARKUP>
(2<I>S</I>)-6-[[(2<I>S</I>)-2-amino-3-(3<I>H</I>-indol-3-yl)propanoyl]amino]-2-[(4-methylphenyl)sulfonyl-(2-methylpropyl)amino]hexanoic acid
> <PUBCHEM_IUPAC_NAME>
(2S)-6-[[(2S)-2-amino-3-(3H-indol-3-yl)propanoyl]amino]-2-[(4-methylphenyl)sulfonyl-(2-methylpropyl)amino]hexanoic acid
> <PUBCHEM_IUPAC_SYSTEMATIC_NAME>
(2S)-6-[[(2S)-2-azanyl-3-(3H-indol-3-yl)propanoyl]amino]-2-[(4-methylphenyl)sulfonyl-(2-methylpropyl)amino]hexanoic acid
> <PUBCHEM_IUPAC_TRADITIONAL_NAME>
(2S)-6-[[(2S)-2-amino-3-(3H-indol-3-yl)propanoyl]amino]-2-[isobutyl(tosyl)amino]hexanoic acid
> <PUBCHEM_IUPAC_INCHI>
InChI=1S/C28H38N4O5S/c1-19(2)18-32(38(36,37)22-13-11-20(3)12-14-22)26(28(34)35)10-6-7-15-30-27(33)24(29)16-21-17-31-25-9-5-4-8-23(21)25/h4-5,8-9,11-14,17,19,21,24,26H,6-7,10,15-16,18,29H2,1-3H3,(H,30,33)(H,34,35)/t21?,24-,26-/m0/s1
> <PUBCHEM_IUPAC_INCHIKEY>
IOFSQXXSDOIPAH-KLZDYHPHSA-N
> <PUBCHEM_XLOGP3_AA>
0.8
> <PUBCHEM_EXACT_MASS>
542.25629150
> <PUBCHEM_MOLECULAR_FORMULA>
C28H38N4O5S
> <PUBCHEM_MOLECULAR_WEIGHT>
542.7
> <PUBCHEM_OPENEYE_CAN_SMILES>
CC1=CC=C(C=C1)S(=O)(=O)N(CC(C)C)C(CCCCNC(=O)C(CC2C=NC3=CC=CC=C23)N)C(=O)O
> <PUBCHEM_OPENEYE_ISO_SMILES>
CC1=CC=C(C=C1)S(=O)(=O)N(CC(C)C)[C@@H](CCCCNC(=O)[C@H](CC2C=NC3=CC=CC=C23)N)C(=O)O
> <PUBCHEM_CACTVS_TPSA>
151
> <PUBCHEM_MONOISOTOPIC_WEIGHT>
542.25629150
> <PUBCHEM_TOTAL_CHARGE>
0
> <PUBCHEM_HEAVY_ATOM_COUNT>
38
> <PUBCHEM_ATOM_DEF_STEREO_COUNT>
2
> <PUBCHEM_ATOM_UDEF_STEREO_COUNT>
1
> <PUBCHEM_BOND_DEF_STEREO_COUNT>
0
> <PUBCHEM_BOND_UDEF_STEREO_COUNT>
0
> <PUBCHEM_ISOTOPIC_ATOM_COUNT>
0
> <PUBCHEM_COMPONENT_COUNT>
1
> <PUBCHEM_CACTVS_TAUTO_COUNT>
-1
> <PUBCHEM_COORDINATE_TYPE>
1
5
255
> <PUBCHEM_BONDANNOTATIONS>
17  18  3
22  29  8
22  30  8
25  28  8
25  31  8
28  32  8
29  33  8
30  34  8
31  36  8
32  37  8
33  35  8
34  35  8
36  37  8
11  7  5
21  9  5
$$$$
