508606
  -OEChem-10302200282D
 97 99  0     1  0  0  0  0  0999 V2000
    4.5981   -0.5000    0.0000 S   0  0  0  0  0  0  0  0  0  0  0  0
    5.5981   -0.5000    0.0000 O   0  0  0  0  0  0  0  0  0  0  0  0
    3.5981   -0.5000    0.0000 O   0  0  0  0  0  0  0  0  0  0  0  0
    6.3301    2.5000    0.0000 O   0  0  0  0  0  0  0  0  0  0  0  0
    4.5981    2.5000    0.0000 O   0  0  0  0  0  0  0  0  0  0  0  0
   10.6603    2.0000    0.0000 O   0  0  0  0  0  0  0  0  0  0  0  0
   13.2583    2.5000    0.0000 O   0  0  0  0  0  0  0  0  0  0  0  0
   11.5263    2.5000    0.0000 O   0  0  0  0  0  0  0  0  0  0  0  0
    4.5981    0.5000    0.0000 N   0  0  3  0  0  0  0  0  0  0  0  0
    9.7942    0.5000    0.0000 N   0  0  0  0  0  0  0  0  0  0  0  0
   12.3923    1.0000    0.0000 N   0  0  0  0  0  0  0  0  0  0  0  0
   13.9750   -1.3364    0.0000 N   0  0  0  0  0  0  0  0  0  0  0  0
   12.4968   -1.9945    0.0000 N   0  0  0  0  0  0  0  0  0  0  0  0
    5.4641    1.0000    0.0000 C   0  0  1  0  0  0  0  0  0  0  0  0
    6.3301    0.5000    0.0000 C   0  0  0  0  0  0  0  0  0  0  0  0
    3.7320    1.0000    0.0000 C   0  0  0  0  0  0  0  0  0  0  0  0
    2.8660    0.5000    0.0000 C   0  0  0  0  0  0  0  0  0  0  0  0
    7.1962    1.0000    0.0000 C   0  0  0  0  0  0  0  0  0  0  0  0
    8.0622    0.5000    0.0000 C   0  0  0  0  0  0  0  0  0  0  0  0
    5.4641    2.0000    0.0000 C   0  0  0  0  0  0  0  0  0  0  0  0
    4.5981   -1.5000    0.0000 C   0  0  0  0  0  0  0  0  0  0  0  0
    2.0000    1.0000    0.0000 C   0  0  0  0  0  0  0  0  0  0  0  0
    2.8660   -0.5000    0.0000 C   0  0  0  0  0  0  0  0  0  0  0  0
    8.9282    1.0000    0.0000 C   0  0  0  0  0  0  0  0  0  0  0  0
    3.7320   -2.0000    0.0000 C   0  0  0  0  0  0  0  0  0  0  0  0
    5.4641   -2.0000    0.0000 C   0  0  0  0  0  0  0  0  0  0  0  0
   11.5263    0.5000    0.0000 C   0  0  2  0  0  0  0  0  0  0  0  0
   10.6603    1.0000    0.0000 C   0  0  0  0  0  0  0  0  0  0  0  0
   11.5263   -0.5000    0.0000 C   0  0  0  0  0  0  0  0  0  0  0  0
    3.7320   -3.0000    0.0000 C   0  0  0  0  0  0  0  0  0  0  0  0
    5.4641   -3.0000    0.0000 C   0  0  0  0  0  0  0  0  0  0  0  0
    4.5981   -3.5000    0.0000 C   0  0  0  0  0  0  0  0  0  0  0  0
   12.3923   -1.0000    0.0000 C   0  0  0  0  0  0  0  0  0  0  0  0
    4.5981   -4.5000    0.0000 C   0  0  0  0  0  0  0  0  0  0  0  0
   13.3059   -0.5933    0.0000 C   0  0  0  0  0  0  0  0  0  0  0  0
   13.2583    3.5000    0.0000 C   0  0  0  0  0  0  0  0  0  0  0  0
   12.3923    2.0000    0.0000 C   0  0  0  0  0  0  0  0  0  0  0  0
   14.9695   -1.2319    0.0000 C   0  0  0  0  0  0  0  0  0  0  0  0
   13.4750   -2.2024    0.0000 C   0  0  0  0  0  0  0  0  0  0  0  0
   13.2583    4.5000    0.0000 C   0  0  0  0  0  0  0  0  0  0  0  0
   14.2583    3.5000    0.0000 C   0  0  0  0  0  0  0  0  0  0  0  0
   12.2583    3.5000    0.0000 C   0  0  0  0  0  0  0  0  0  0  0  0
   15.5573   -2.0409    0.0000 C   0  0  0  0  0  0  0  0  0  0  0  0
   16.5518   -1.9364    0.0000 C   0  0  0  0  0  0  0  0  0  0  0  0
   15.1506   -2.9544    0.0000 C   0  0  0  0  0  0  0  0  0  0  0  0
   17.1396   -2.7454    0.0000 C   0  0  0  0  0  0  0  0  0  0  0  0
   15.7383   -3.7635    0.0000 C   0  0  0  0  0  0  0  0  0  0  0  0
   16.7329   -3.6589    0.0000 C   0  0  0  0  0  0  0  0  0  0  0  0
    5.4641    0.3800    0.0000 H   0  0  0  0  0  0  0  0  0  0  0  0
    5.9316    0.0251    0.0000 H   0  0  0  0  0  0  0  0  0  0  0  0
    6.7287    0.0251    0.0000 H   0  0  0  0  0  0  0  0  0  0  0  0
    4.1306    1.4750    0.0000 H   0  0  0  0  0  0  0  0  0  0  0  0
    3.3335    1.4750    0.0000 H   0  0  0  0  0  0  0  0  0  0  0  0
    2.8660    1.1200    0.0000 H   0  0  0  0  0  0  0  0  0  0  0  0
    7.5947    1.4750    0.0000 H   0  0  0  0  0  0  0  0  0  0  0  0
    6.7976    1.4750    0.0000 H   0  0  0  0  0  0  0  0  0  0  0  0
    7.6636    0.0251    0.0000 H   0  0  0  0  0  0  0  0  0  0  0  0
    8.4607    0.0251    0.0000 H   0  0  0  0  0  0  0  0  0  0  0  0
    2.3100    1.5369    0.0000 H   0  0  0  0  0  0  0  0  0  0  0  0
    1.4631    1.3100    0.0000 H   0  0  0  0  0  0  0  0  0  0  0  0
    1.6900    0.4631    0.0000 H   0  0  0  0  0  0  0  0  0  0  0  0
    2.2460   -0.5000    0.0000 H   0  0  0  0  0  0  0  0  0  0  0  0
    2.8660   -1.1200    0.0000 H   0  0  0  0  0  0  0  0  0  0  0  0
    3.4860   -0.5000    0.0000 H   0  0  0  0  0  0  0  0  0  0  0  0
    9.3267    1.4750    0.0000 H   0  0  0  0  0  0  0  0  0  0  0  0
    8.5297    1.4750    0.0000 H   0  0  0  0  0  0  0  0  0  0  0  0
    9.7942   -0.1200    0.0000 H   0  0  0  0  0  0  0  0  0  0  0  0
    3.1951   -1.6900    0.0000 H   0  0  0  0  0  0  0  0  0  0  0  0
    6.0010   -1.6900    0.0000 H   0  0  0  0  0  0  0  0  0  0  0  0
   12.0632    0.1900    0.0000 H   0  0  0  0  0  0  0  0  0  0  0  0
   10.9157   -0.3923    0.0000 H   0  0  0  0  0  0  0  0  0  0  0  0
   11.3142   -1.0826    0.0000 H   0  0  0  0  0  0  0  0  0  0  0  0
    6.3301    3.1200    0.0000 H   0  0  0  0  0  0  0  0  0  0  0  0
    3.1951   -3.3100    0.0000 H   0  0  0  0  0  0  0  0  0  0  0  0
    6.0010   -3.3100    0.0000 H   0  0  0  0  0  0  0  0  0  0  0  0
   12.9292    0.6900    0.0000 H   0  0  0  0  0  0  0  0  0  0  0  0
    3.9781   -4.5000    0.0000 H   0  0  0  0  0  0  0  0  0  0  0  0
    4.5981   -5.1200    0.0000 H   0  0  0  0  0  0  0  0  0  0  0  0
    5.2181   -4.5000    0.0000 H   0  0  0  0  0  0  0  0  0  0  0  0
   13.4348    0.0132    0.0000 H   0  0  0  0  0  0  0  0  0  0  0  0
   15.5268   -0.9601    0.0000 H   0  0  0  0  0  0  0  0  0  0  0  0
   14.7986   -0.6359    0.0000 H   0  0  0  0  0  0  0  0  0  0  0  0
   13.7272   -2.7688    0.0000 H   0  0  0  0  0  0  0  0  0  0  0  0
   13.8783    4.5000    0.0000 H   0  0  0  0  0  0  0  0  0  0  0  0
   13.2583    5.1200    0.0000 H   0  0  0  0  0  0  0  0  0  0  0  0
   12.6383    4.5000    0.0000 H   0  0  0  0  0  0  0  0  0  0  0  0
   14.2583    2.8800    0.0000 H   0  0  0  0  0  0  0  0  0  0  0  0
   14.8783    3.5000    0.0000 H   0  0  0  0  0  0  0  0  0  0  0  0
   14.2583    4.1200    0.0000 H   0  0  0  0  0  0  0  0  0  0  0  0
   12.2583    4.1200    0.0000 H   0  0  0  0  0  0  0  0  0  0  0  0
   11.6383    3.5000    0.0000 H   0  0  0  0  0  0  0  0  0  0  0  0
   12.2583    2.8800    0.0000 H   0  0  0  0  0  0  0  0  0  0  0  0
   16.8040   -1.3700    0.0000 H   0  0  0  0  0  0  0  0  0  0  0  0
   14.5339   -3.0192    0.0000 H   0  0  0  0  0  0  0  0  0  0  0  0
   17.7562   -2.6806    0.0000 H   0  0  0  0  0  0  0  0  0  0  0  0
   15.4862   -4.3299    0.0000 H   0  0  0  0  0  0  0  0  0  0  0  0
   17.0973   -4.1605    0.0000 H   0  0  0  0  0  0  0  0  0  0  0  0
  1  2  2  0  0  0  0
  1  3  2  0  0  0  0
  1  9  1  0  0  0  0
  1 21  1  0  0  0  0
  4 20  1  0  0  0  0
  4 73  1  0  0  0  0
  5 20  2  0  0  0  0
  6 28  2  0  0  0  0
  7 36  1  0  0  0  0
  7 37  1  0  0  0  0
  8 37  2  0  0  0  0
 14  9  1  6  0  0  0
  9 16  1  0  0  0  0
 10 24  1  0  0  0  0
 10 28  1  0  0  0  0
 10 67  1  0  0  0  0
 27 11  1  1  0  0  0
 11 37  1  0  0  0  0
 11 76  1  0  0  0  0
 12 35  1  0  0  0  0
 12 38  1  0  0  0  0
 12 39  1  0  0  0  0
 13 33  1  0  0  0  0
 13 39  2  0  0  0  0
 14 15  1  0  0  0  0
 14 20  1  0  0  0  0
 14 49  1  0  0  0  0
 15 18  1  0  0  0  0
 15 50  1  0  0  0  0
 15 51  1  0  0  0  0
 16 17  1  0  0  0  0
 16 52  1  0  0  0  0
 16 53  1  0  0  0  0
 17 22  1  0  0  0  0
 17 23  1  0  0  0  0
 17 54  1  0  0  0  0
 18 19  1  0  0  0  0
 18 55  1  0  0  0  0
 18 56  1  0  0  0  0
 19 24  1  0  0  0  0
 19 57  1  0  0  0  0
 19 58  1  0  0  0  0
 21 25  2  0  0  0  0
 21 26  1  0  0  0  0
 22 59  1  0  0  0  0
 22 60  1  0  0  0  0
 22 61  1  0  0  0  0
 23 62  1  0  0  0  0
 23 63  1  0  0  0  0
 23 64  1  0  0  0  0
 24 65  1  0  0  0  0
 24 66  1  0  0  0  0
 25 30  1  0  0  0  0
 25 68  1  0  0  0  0
 26 31  2  0  0  0  0
 26 69  1  0  0  0  0
 27 28  1  0  0  0  0
 27 29  1  0  0  0  0
 27 70  1  0  0  0  0
 29 33  1  0  0  0  0
 29 71  1  0  0  0  0
 29 72  1  0  0  0  0
 30 32  2  0  0  0  0
 30 74  1  0  0  0  0
 31 32  1  0  0  0  0
 31 75  1  0  0  0  0
 32 34  1  0  0  0  0
 33 35  2  0  0  0  0
 34 77  1  0  0  0  0
 34 78  1  0  0  0  0
 34 79  1  0  0  0  0
 35 80  1  0  0  0  0
 36 40  1  0  0  0  0
 36 41  1  0  0  0  0
 36 42  1  0  0  0  0
 38 43  1  0  0  0  0
 38 81  1  0  0  0  0
 38 82  1  0  0  0  0
 39 83  1  0  0  0  0
 40 84  1  0  0  0  0
 40 85  1  0  0  0  0
 40 86  1  0  0  0  0
 41 87  1  0  0  0  0
 41 88  1  0  0  0  0
 41 89  1  0  0  0  0
 42 90  1  0  0  0  0
 42 91  1  0  0  0  0
 42 92  1  0  0  0  0
 43 44  2  0  0  0  0
 43 45  1  0  0  0  0
 44 46  1  0  0  0  0
 44 93  1  0  0  0  0
 45 47  2  0  0  0  0
 45 94  1  0  0  0  0
 46 48  2  0  0  0  0
 46 95  1  0  0  0  0
 47 48  1  0  0  0  0
 47 96  1  0  0  0  0
 48 97  1  0  0  0  0
M  END
> <PUBCHEM_COMPOUND_CID>
508606
> <PUBCHEM_COMPOUND_CANONICALIZED>
1
> <PUBCHEM_CACTVS_COMPLEXITY>
1130
> <PUBCHEM_CACTVS_HBOND_ACCEPTOR>
9
> <PUBCHEM_CACTVS_HBOND_DONOR>
3
> <PUBCHEM_CACTVS_ROTATABLE_BOND>
19
> <PUBCHEM_CACTVS_SUBSKEYS>
AAADcfB/uABAAAAAAAAAAAAAAAAAAWAAAAAwYAAAAAAAAAAB0AAAHgQQSAAADWzB3gQ/mZfMFgKoAzX3fHDCgD0xEqAJ2Jm4dImKaDLA2TGcYAhslgLYyCecyQAOEAAAAAAAAAAgAAAAAAAAAAAAAAAAAA==
> <PUBCHEM_IUPAC_OPENEYE_NAME>
(2S)-6-[[(2S)-3-(1-benzylimidazol-4-yl)-2-(tert-butoxycarbonylamino)propanoyl]amino]-2-[isobutyl(p-tolylsulfonyl)amino]hexanoic acid
> <PUBCHEM_IUPAC_CAS_NAME>
(2S)-2-[(4-methylphenyl)sulfonyl-(2-methylpropyl)amino]-6-[[(2S)-2-[[(2-methylpropan-2-yl)oxy-oxomethyl]amino]-1-oxo-3-[1-(phenylmethyl)-4-imidazolyl]propyl]amino]hexanoic acid
> <PUBCHEM_IUPAC_NAME_MARKUP>
(2<I>S</I>)-6-[[(2<I>S</I>)-3-(1-benzylimidazol-4-yl)-2-[(2-methylpropan-2-yl)oxycarbonylamino]propanoyl]amino]-2-[(4-methylphenyl)sulfonyl-(2-methylpropyl)amino]hexanoic acid
> <PUBCHEM_IUPAC_NAME>
(2S)-6-[[(2S)-3-(1-benzylimidazol-4-yl)-2-[(2-methylpropan-2-yl)oxycarbonylamino]propanoyl]amino]-2-[(4-methylphenyl)sulfonyl-(2-methylpropyl)amino]hexanoic acid
> <PUBCHEM_IUPAC_SYSTEMATIC_NAME>
(2S)-2-[(4-methylphenyl)sulfonyl-(2-methylpropyl)amino]-6-[[(2S)-2-[(2-methylpropan-2-yl)oxycarbonylamino]-3-[1-(phenylmethyl)imidazol-4-yl]propanoyl]amino]hexanoic acid
> <PUBCHEM_IUPAC_TRADITIONAL_NAME>
(2S)-6-[[(2S)-3-(1-benzylimidazol-4-yl)-2-(tert-butoxycarbonylamino)propanoyl]amino]-2-[isobutyl(tosyl)amino]hexanoic acid
> <PUBCHEM_IUPAC_INCHI>
InChI=1S/C35H49N5O7S/c1-25(2)21-40(48(45,46)29-17-15-26(3)16-18-29)31(33(42)43)14-10-11-19-36-32(41)30(38-34(44)47-35(4,5)6)20-28-23-39(24-37-28)22-27-12-8-7-9-13-27/h7-9,12-13,15-18,23-25,30-31H,10-11,14,19-22H2,1-6H3,(H,36,41)(H,38,44)(H,42,43)/t30-,31-/m0/s1
> <PUBCHEM_IUPAC_INCHIKEY>
UWNDVODIZRMRBS-CONSDPRKSA-N
> <PUBCHEM_XLOGP3_AA>
5.2
> <PUBCHEM_EXACT_MASS>
683.33527009
> <PUBCHEM_MOLECULAR_FORMULA>
C35H49N5O7S
> <PUBCHEM_MOLECULAR_WEIGHT>
683.9
> <PUBCHEM_OPENEYE_CAN_SMILES>
CC1=CC=C(C=C1)S(=O)(=O)N(CC(C)C)C(CCCCNC(=O)C(CC2=CN(C=N2)CC3=CC=CC=C3)NC(=O)OC(C)(C)C)C(=O)O
> <PUBCHEM_OPENEYE_ISO_SMILES>
CC1=CC=C(C=C1)S(=O)(=O)N(CC(C)C)[C@@H](CCCCNC(=O)[C@H](CC2=CN(C=N2)CC3=CC=CC=C3)NC(=O)OC(C)(C)C)C(=O)O
> <PUBCHEM_CACTVS_TPSA>
168
> <PUBCHEM_MONOISOTOPIC_WEIGHT>
683.33527009
> <PUBCHEM_TOTAL_CHARGE>
0
> <PUBCHEM_HEAVY_ATOM_COUNT>
48
> <PUBCHEM_ATOM_DEF_STEREO_COUNT>
2
> <PUBCHEM_ATOM_UDEF_STEREO_COUNT>
0
> <PUBCHEM_BOND_DEF_STEREO_COUNT>
0
> <PUBCHEM_BOND_UDEF_STEREO_COUNT>
0
> <PUBCHEM_ISOTOPIC_ATOM_COUNT>
0
> <PUBCHEM_COMPONENT_COUNT>
1
> <PUBCHEM_CACTVS_TAUTO_COUNT>
-1
> <PUBCHEM_COORDINATE_TYPE>
1
5
255
> <PUBCHEM_BONDANNOTATIONS>
27  11  5
12  35  8
12  39  8
13  33  8
13  39  8
21  25  8
21  26  8
25  30  8
26  31  8
30  32  8
31  32  8
33  35  8
43  44  8
43  45  8
44  46  8
45  47  8
46  48  8
47  48  8
14  9  6
$$$$
