508647
  -OEChem-10302200282D
 86 88  0     1  0  0  0  0  0999 V2000
    3.7320   -3.2500    0.0000 S   0  0  0  0  0  0  0  0  0  0  0  0
    8.9282    3.7500    0.0000 S   0  0  0  0  0  0  0  0  0  0  0  0
   12.3923    1.7500    0.0000 F   0  0  0  0  0  0  0  0  0  0  0  0
    6.3301   -1.7500    0.0000 O   0  0  0  0  0  0  0  0  0  0  0  0
    4.7320   -3.2500    0.0000 O   0  0  0  0  0  0  0  0  0  0  0  0
    2.7320   -3.2500    0.0000 O   0  0  0  0  0  0  0  0  0  0  0  0
    8.0622    2.2500    0.0000 O   0  0  0  0  0  0  0  0  0  0  0  0
    9.4282    4.6160    0.0000 O   0  0  0  0  0  0  0  0  0  0  0  0
    8.4282    2.8840    0.0000 O   0  0  0  0  0  0  0  0  0  0  0  0
    3.7320   -2.2500    0.0000 N   0  0  3  0  0  0  0  0  0  0  0  0
    6.3301    2.2500    0.0000 N   0  0  0  0  0  0  0  0  0  0  0  0
    8.0622    4.2500    0.0000 N   0  0  0  0  0  0  0  0  0  0  0  0
    4.5981   -1.7500    0.0000 C   0  0  1  0  0  0  0  0  0  0  0  0
    4.5981   -0.7500    0.0000 C   0  0  0  0  0  0  0  0  0  0  0  0
    2.8660   -1.7500    0.0000 C   0  0  0  0  0  0  0  0  0  0  0  0
    5.4641   -0.2500    0.0000 C   0  0  0  0  0  0  0  0  0  0  0  0
    2.8660   -0.7500    0.0000 C   0  0  0  0  0  0  0  0  0  0  0  0
    5.4641   -2.2500    0.0000 C   0  0  0  0  0  0  0  0  0  0  0  0
    5.4641    0.7500    0.0000 C   0  0  0  0  0  0  0  0  0  0  0  0
    3.7320   -4.2500    0.0000 C   0  0  0  0  0  0  0  0  0  0  0  0
    2.0000   -0.2500    0.0000 C   0  0  0  0  0  0  0  0  0  0  0  0
    3.7320   -0.2500    0.0000 C   0  0  0  0  0  0  0  0  0  0  0  0
    6.3301    1.2500    0.0000 C   0  0  0  0  0  0  0  0  0  0  0  0
    2.8660   -4.7500    0.0000 C   0  0  0  0  0  0  0  0  0  0  0  0
    4.5981   -4.7500    0.0000 C   0  0  0  0  0  0  0  0  0  0  0  0
    7.1962    3.7500    0.0000 C   0  0  2  0  0  0  0  0  0  0  0  0
    7.1962    2.7500    0.0000 C   0  0  0  0  0  0  0  0  0  0  0  0
    6.3301    4.2500    0.0000 C   0  0  0  0  0  0  0  0  0  0  0  0
    2.8660   -5.7500    0.0000 C   0  0  0  0  0  0  0  0  0  0  0  0
    4.5981   -5.7500    0.0000 C   0  0  0  0  0  0  0  0  0  0  0  0
    3.7320   -6.2500    0.0000 C   0  0  0  0  0  0  0  0  0  0  0  0
    6.3301    5.2500    0.0000 C   0  0  0  0  0  0  0  0  0  0  0  0
    3.7320   -7.2500    0.0000 C   0  0  0  0  0  0  0  0  0  0  0  0
    9.7942    3.2500    0.0000 C   0  0  0  0  0  0  0  0  0  0  0  0
    5.4641    5.7500    0.0000 C   0  0  0  0  0  0  0  0  0  0  0  0
    7.1962    5.7500    0.0000 C   0  0  0  0  0  0  0  0  0  0  0  0
    5.4641    6.7500    0.0000 C   0  0  0  0  0  0  0  0  0  0  0  0
    7.1962    6.7500    0.0000 C   0  0  0  0  0  0  0  0  0  0  0  0
   10.6603    3.7500    0.0000 C   0  0  0  0  0  0  0  0  0  0  0  0
    9.7942    2.2500    0.0000 C   0  0  0  0  0  0  0  0  0  0  0  0
    6.3301    7.2500    0.0000 C   0  0  0  0  0  0  0  0  0  0  0  0
   11.5263    3.2500    0.0000 C   0  0  0  0  0  0  0  0  0  0  0  0
   10.6603    1.7500    0.0000 C   0  0  0  0  0  0  0  0  0  0  0  0
   11.5263    2.2500    0.0000 C   0  0  0  0  0  0  0  0  0  0  0  0
    4.5981   -2.3700    0.0000 H   0  0  0  0  0  0  0  0  0  0  0  0
    4.3860   -0.1674    0.0000 H   0  0  0  0  0  0  0  0  0  0  0  0
    3.9875   -0.8577    0.0000 H   0  0  0  0  0  0  0  0  0  0  0  0
    2.2554   -1.6423    0.0000 H   0  0  0  0  0  0  0  0  0  0  0  0
    2.6540   -2.3326    0.0000 H   0  0  0  0  0  0  0  0  0  0  0  0
    5.6762   -0.8326    0.0000 H   0  0  0  0  0  0  0  0  0  0  0  0
    6.0747   -0.1423    0.0000 H   0  0  0  0  0  0  0  0  0  0  0  0
    2.8660   -0.1300    0.0000 H   0  0  0  0  0  0  0  0  0  0  0  0
    5.0656   -2.7250    0.0000 H   0  0  0  0  0  0  0  0  0  0  0  0
    5.8626   -2.7250    0.0000 H   0  0  0  0  0  0  0  0  0  0  0  0
    5.2520    1.3326    0.0000 H   0  0  0  0  0  0  0  0  0  0  0  0
    4.8535    0.6423    0.0000 H   0  0  0  0  0  0  0  0  0  0  0  0
    6.5422    0.6674    0.0000 H   0  0  0  0  0  0  0  0  0  0  0  0
    6.9407    1.3577    0.0000 H   0  0  0  0  0  0  0  0  0  0  0  0
    2.3100    0.2869    0.0000 H   0  0  0  0  0  0  0  0  0  0  0  0
    1.4631    0.0600    0.0000 H   0  0  0  0  0  0  0  0  0  0  0  0
    1.6900   -0.7869    0.0000 H   0  0  0  0  0  0  0  0  0  0  0  0
    4.0420   -0.7869    0.0000 H   0  0  0  0  0  0  0  0  0  0  0  0
    4.2690    0.0600    0.0000 H   0  0  0  0  0  0  0  0  0  0  0  0
    3.4220    0.2869    0.0000 H   0  0  0  0  0  0  0  0  0  0  0  0
    5.7932    2.5600    0.0000 H   0  0  0  0  0  0  0  0  0  0  0  0
    6.8671   -2.0600    0.0000 H   0  0  0  0  0  0  0  0  0  0  0  0
    2.3291   -4.4400    0.0000 H   0  0  0  0  0  0  0  0  0  0  0  0
    5.1350   -4.4400    0.0000 H   0  0  0  0  0  0  0  0  0  0  0  0
    7.7331    3.4400    0.0000 H   0  0  0  0  0  0  0  0  0  0  0  0
    5.7196    4.3577    0.0000 H   0  0  0  0  0  0  0  0  0  0  0  0
    6.1181    3.6674    0.0000 H   0  0  0  0  0  0  0  0  0  0  0  0
    2.3291   -6.0600    0.0000 H   0  0  0  0  0  0  0  0  0  0  0  0
    5.1350   -6.0600    0.0000 H   0  0  0  0  0  0  0  0  0  0  0  0
    8.0622    4.8700    0.0000 H   0  0  0  0  0  0  0  0  0  0  0  0
    3.1120   -7.2500    0.0000 H   0  0  0  0  0  0  0  0  0  0  0  0
    3.7320   -7.8700    0.0000 H   0  0  0  0  0  0  0  0  0  0  0  0
    4.3520   -7.2500    0.0000 H   0  0  0  0  0  0  0  0  0  0  0  0
    4.9272    5.4400    0.0000 H   0  0  0  0  0  0  0  0  0  0  0  0
    7.7331    5.4400    0.0000 H   0  0  0  0  0  0  0  0  0  0  0  0
    4.9272    7.0600    0.0000 H   0  0  0  0  0  0  0  0  0  0  0  0
    7.7331    7.0600    0.0000 H   0  0  0  0  0  0  0  0  0  0  0  0
   10.6603    4.3700    0.0000 H   0  0  0  0  0  0  0  0  0  0  0  0
    9.2573    1.9400    0.0000 H   0  0  0  0  0  0  0  0  0  0  0  0
    6.3301    7.8700    0.0000 H   0  0  0  0  0  0  0  0  0  0  0  0
   12.0632    3.5600    0.0000 H   0  0  0  0  0  0  0  0  0  0  0  0
   10.6603    1.1300    0.0000 H   0  0  0  0  0  0  0  0  0  0  0  0
  1  5  2  0  0  0  0
  1  6  2  0  0  0  0
  1 10  1  0  0  0  0
  1 20  1  0  0  0  0
  2  8  2  0  0  0  0
  2  9  2  0  0  0  0
  2 12  1  0  0  0  0
  2 34  1  0  0  0  0
  3 44  1  0  0  0  0
  4 18  1  0  0  0  0
  4 66  1  0  0  0  0
  7 27  2  0  0  0  0
 13 10  1  1  0  0  0
 10 15  1  0  0  0  0
 11 23  1  0  0  0  0
 11 27  1  0  0  0  0
 11 65  1  0  0  0  0
 26 12  1  6  0  0  0
 12 74  1  0  0  0  0
 13 14  1  0  0  0  0
 13 18  1  0  0  0  0
 13 45  1  0  0  0  0
 14 16  1  0  0  0  0
 14 46  1  0  0  0  0
 14 47  1  0  0  0  0
 15 17  1  0  0  0  0
 15 48  1  0  0  0  0
 15 49  1  0  0  0  0
 16 19  1  0  0  0  0
 16 50  1  0  0  0  0
 16 51  1  0  0  0  0
 17 21  1  0  0  0  0
 17 22  1  0  0  0  0
 17 52  1  0  0  0  0
 18 53  1  0  0  0  0
 18 54  1  0  0  0  0
 19 23  1  0  0  0  0
 19 55  1  0  0  0  0
 19 56  1  0  0  0  0
 20 24  2  0  0  0  0
 20 25  1  0  0  0  0
 21 59  1  0  0  0  0
 21 60  1  0  0  0  0
 21 61  1  0  0  0  0
 22 62  1  0  0  0  0
 22 63  1  0  0  0  0
 22 64  1  0  0  0  0
 23 57  1  0  0  0  0
 23 58  1  0  0  0  0
 24 29  1  0  0  0  0
 24 67  1  0  0  0  0
 25 30  2  0  0  0  0
 25 68  1  0  0  0  0
 26 27  1  0  0  0  0
 26 28  1  0  0  0  0
 26 69  1  0  0  0  0
 28 32  1  0  0  0  0
 28 70  1  0  0  0  0
 28 71  1  0  0  0  0
 29 31  2  0  0  0  0
 29 72  1  0  0  0  0
 30 31  1  0  0  0  0
 30 73  1  0  0  0  0
 31 33  1  0  0  0  0
 32 35  2  0  0  0  0
 32 36  1  0  0  0  0
 33 75  1  0  0  0  0
 33 76  1  0  0  0  0
 33 77  1  0  0  0  0
 34 39  2  0  0  0  0
 34 40  1  0  0  0  0
 35 37  1  0  0  0  0
 35 78  1  0  0  0  0
 36 38  2  0  0  0  0
 36 79  1  0  0  0  0
 37 41  2  0  0  0  0
 37 80  1  0  0  0  0
 38 41  1  0  0  0  0
 38 81  1  0  0  0  0
 39 42  1  0  0  0  0
 39 82  1  0  0  0  0
 40 43  2  0  0  0  0
 40 83  1  0  0  0  0
 41 84  1  0  0  0  0
 42 44  2  0  0  0  0
 42 85  1  0  0  0  0
 43 44  1  0  0  0  0
 43 86  1  0  0  0  0
M  END
> <PUBCHEM_COMPOUND_CID>
508647
> <PUBCHEM_COMPOUND_CANONICALIZED>
1
> <PUBCHEM_CACTVS_COMPLEXITY>
1060
> <PUBCHEM_CACTVS_HBOND_ACCEPTOR>
9
> <PUBCHEM_CACTVS_HBOND_DONOR>
3
> <PUBCHEM_CACTVS_ROTATABLE_BOND>
17
> <PUBCHEM_CACTVS_SUBSKEYS>
AAADcfB/OQBgAAAAAAAAAAAAAAAAAAAAAAAwYMAAAAAAAAABUAAAHwQQSAAADSjh2A4yAYLAAgKIAiFSEHBCABAgAAAIiJmIAIgKcDKAkRGUYAAklgCYiAeYyICOEAAAAAAAAAAgAAAAAAAAAAAAAAAAAA==
> <PUBCHEM_IUPAC_OPENEYE_NAME>
(2S)-2-[(4-fluorophenyl)sulfonylamino]-N-[(5S)-6-hydroxy-5-[isobutyl(p-tolylsulfonyl)amino]hexyl]-3-phenyl-propanamide
> <PUBCHEM_IUPAC_CAS_NAME>
(2S)-2-[(4-fluorophenyl)sulfonylamino]-N-[(5S)-6-hydroxy-5-[(4-methylphenyl)sulfonyl-(2-methylpropyl)amino]hexyl]-3-phenylpropanamide
> <PUBCHEM_IUPAC_NAME_MARKUP>
(2<I>S</I>)-2-[(4-fluorophenyl)sulfonylamino]-<I>N</I>-[(5<I>S</I>)-6-hydroxy-5-[(4-methylphenyl)sulfonyl-(2-methylpropyl)amino]hexyl]-3-phenylpropanamide
> <PUBCHEM_IUPAC_NAME>
(2S)-2-[(4-fluorophenyl)sulfonylamino]-N-[(5S)-6-hydroxy-5-[(4-methylphenyl)sulfonyl-(2-methylpropyl)amino]hexyl]-3-phenylpropanamide
> <PUBCHEM_IUPAC_SYSTEMATIC_NAME>
(2S)-2-[(4-fluorophenyl)sulfonylamino]-N-[(5S)-5-[(4-methylphenyl)sulfonyl-(2-methylpropyl)amino]-6-oxidanyl-hexyl]-3-phenyl-propanamide
> <PUBCHEM_IUPAC_TRADITIONAL_NAME>
(2S)-2-[(4-fluorophenyl)sulfonylamino]-N-[(5S)-6-hydroxy-5-[isobutyl(tosyl)amino]hexyl]-3-phenyl-propionamide
> <PUBCHEM_IUPAC_INCHI>
InChI=1S/C32H42FN3O6S2/c1-24(2)22-36(44(41,42)30-16-12-25(3)13-17-30)28(23-37)11-7-8-20-34-32(38)31(21-26-9-5-4-6-10-26)35-43(39,40)29-18-14-27(33)15-19-29/h4-6,9-10,12-19,24,28,31,35,37H,7-8,11,20-23H2,1-3H3,(H,34,38)/t28-,31-/m0/s1
> <PUBCHEM_IUPAC_INCHIKEY>
PCGMFPZSABSWML-IZEXYCQBSA-N
> <PUBCHEM_XLOGP3_AA>
5.3
> <PUBCHEM_EXACT_MASS>
647.24990658
> <PUBCHEM_MOLECULAR_FORMULA>
C32H42FN3O6S2
> <PUBCHEM_MOLECULAR_WEIGHT>
647.8
> <PUBCHEM_OPENEYE_CAN_SMILES>
CC1=CC=C(C=C1)S(=O)(=O)N(CC(C)C)C(CCCCNC(=O)C(CC2=CC=CC=C2)NS(=O)(=O)C3=CC=C(C=C3)F)CO
> <PUBCHEM_OPENEYE_ISO_SMILES>
CC1=CC=C(C=C1)S(=O)(=O)N(CC(C)C)[C@@H](CCCCNC(=O)[C@H](CC2=CC=CC=C2)NS(=O)(=O)C3=CC=C(C=C3)F)CO
> <PUBCHEM_CACTVS_TPSA>
150
> <PUBCHEM_MONOISOTOPIC_WEIGHT>
647.24990658
> <PUBCHEM_TOTAL_CHARGE>
0
> <PUBCHEM_HEAVY_ATOM_COUNT>
44
> <PUBCHEM_ATOM_DEF_STEREO_COUNT>
2
> <PUBCHEM_ATOM_UDEF_STEREO_COUNT>
0
> <PUBCHEM_BOND_DEF_STEREO_COUNT>
0
> <PUBCHEM_BOND_UDEF_STEREO_COUNT>
0
> <PUBCHEM_ISOTOPIC_ATOM_COUNT>
0
> <PUBCHEM_COMPONENT_COUNT>
1
> <PUBCHEM_CACTVS_TAUTO_COUNT>
-1
> <PUBCHEM_COORDINATE_TYPE>
1
5
255
> <PUBCHEM_BONDANNOTATIONS>
13  10  5
26  12  6
20  24  8
20  25  8
24  29  8
25  30  8
29  31  8
30  31  8
32  35  8
32  36  8
34  39  8
34  40  8
35  37  8
36  38  8
37  41  8
38  41  8
39  42  8
40  43  8
42  44  8
43  44  8
$$$$
