508635
  -OEChem-10302200282D
 74 76  0     1  0  0  0  0  0999 V2000
   15.0583    0.4400    0.0000 S   0  0  0  0  0  0  0  0  0  0  0  0
   15.5583   -0.4260    0.0000 O   0  0  0  0  0  0  0  0  0  0  0  0
   14.5583    1.3060    0.0000 O   0  0  0  0  0  0  0  0  0  0  0  0
   12.4603    1.9400    0.0000 O   0  0  0  0  0  0  0  0  0  0  0  0
   14.1923    1.9400    0.0000 O   0  0  0  0  0  0  0  0  0  0  0  0
    8.1301    1.4400    0.0000 O   0  0  0  0  0  0  0  0  0  0  0  0
   14.1923   -0.0600    0.0000 N   0  0  3  0  0  0  0  0  0  0  0  0
    8.9962   -0.0600    0.0000 N   0  0  0  0  0  0  0  0  0  0  0  0
    6.3981    0.4400    0.0000 N   0  0  0  0  0  0  0  0  0  0  0  0
    4.6660   -1.5600    0.0000 N   0  0  0  0  0  0  0  0  0  0  0  0
   13.3263    0.4400    0.0000 C   0  0  1  0  0  0  0  0  0  0  0  0
   14.1923   -1.0600    0.0000 C   0  0  0  0  0  0  0  0  0  0  0  0
   12.4603   -0.0600    0.0000 C   0  0  0  0  0  0  0  0  0  0  0  0
   13.3263   -1.5600    0.0000 C   0  0  0  0  0  0  0  0  0  0  0  0
   11.5942    0.4400    0.0000 C   0  0  0  0  0  0  0  0  0  0  0  0
   10.7282   -0.0600    0.0000 C   0  0  0  0  0  0  0  0  0  0  0  0
   13.3263    1.4400    0.0000 C   0  0  0  0  0  0  0  0  0  0  0  0
   15.9244    0.9400    0.0000 C   0  0  0  0  0  0  0  0  0  0  0  0
   13.3263   -2.5600    0.0000 C   0  0  0  0  0  0  0  0  0  0  0  0
   12.4603   -1.0600    0.0000 C   0  0  0  0  0  0  0  0  0  0  0  0
    9.8622    0.4400    0.0000 C   0  0  0  0  0  0  0  0  0  0  0  0
   16.7904    0.4400    0.0000 C   0  0  0  0  0  0  0  0  0  0  0  0
   15.9244    1.9400    0.0000 C   0  0  0  0  0  0  0  0  0  0  0  0
   17.6564    0.9400    0.0000 C   0  0  0  0  0  0  0  0  0  0  0  0
   16.7904    2.4400    0.0000 C   0  0  0  0  0  0  0  0  0  0  0  0
   17.6564    1.9400    0.0000 C   0  0  0  0  0  0  0  0  0  0  0  0
    8.1301    0.4400    0.0000 C   0  0  0  0  0  0  0  0  0  0  0  0
   18.5224    2.4400    0.0000 C   0  0  0  0  0  0  0  0  0  0  0  0
    7.2641   -0.0600    0.0000 C   0  0  0  0  0  0  0  0  0  0  0  0
    5.5321   -0.0600    0.0000 C   0  0  0  0  0  0  0  0  0  0  0  0
    4.6660    0.4400    0.0000 C   0  0  0  0  0  0  0  0  0  0  0  0
    3.8000   -0.0600    0.0000 C   0  0  0  0  0  0  0  0  0  0  0  0
    5.5321   -1.0600    0.0000 C   0  0  0  0  0  0  0  0  0  0  0  0
    3.8000   -1.0600    0.0000 C   0  0  0  0  0  0  0  0  0  0  0  0
    2.9061    0.4747    0.0000 C   0  0  0  0  0  0  0  0  0  0  0  0
    2.9061   -1.5947    0.0000 C   0  0  0  0  0  0  0  0  0  0  0  0
    2.0000   -0.0392    0.0000 C   0  0  0  0  0  0  0  0  0  0  0  0
    2.0000   -1.0808    0.0000 C   0  0  0  0  0  0  0  0  0  0  0  0
   13.8632    0.7500    0.0000 H   0  0  0  0  0  0  0  0  0  0  0  0
   14.4044   -1.6426    0.0000 H   0  0  0  0  0  0  0  0  0  0  0  0
   14.8029   -0.9523    0.0000 H   0  0  0  0  0  0  0  0  0  0  0  0
   12.0617   -0.5349    0.0000 H   0  0  0  0  0  0  0  0  0  0  0  0
   12.8588   -0.5349    0.0000 H   0  0  0  0  0  0  0  0  0  0  0  0
   13.8632   -1.8700    0.0000 H   0  0  0  0  0  0  0  0  0  0  0  0
   11.9928    0.9149    0.0000 H   0  0  0  0  0  0  0  0  0  0  0  0
   11.1957    0.9149    0.0000 H   0  0  0  0  0  0  0  0  0  0  0  0
   10.3297   -0.5349    0.0000 H   0  0  0  0  0  0  0  0  0  0  0  0
   11.1267   -0.5349    0.0000 H   0  0  0  0  0  0  0  0  0  0  0  0
   12.7063   -2.5600    0.0000 H   0  0  0  0  0  0  0  0  0  0  0  0
   13.3263   -3.1800    0.0000 H   0  0  0  0  0  0  0  0  0  0  0  0
   13.9463   -2.5600    0.0000 H   0  0  0  0  0  0  0  0  0  0  0  0
   12.7703   -0.5231    0.0000 H   0  0  0  0  0  0  0  0  0  0  0  0
   11.9233   -0.7500    0.0000 H   0  0  0  0  0  0  0  0  0  0  0  0
   12.1503   -1.5969    0.0000 H   0  0  0  0  0  0  0  0  0  0  0  0
   10.2607    0.9149    0.0000 H   0  0  0  0  0  0  0  0  0  0  0  0
    9.4637    0.9149    0.0000 H   0  0  0  0  0  0  0  0  0  0  0  0
   16.7904   -0.1800    0.0000 H   0  0  0  0  0  0  0  0  0  0  0  0
   15.3874    2.2500    0.0000 H   0  0  0  0  0  0  0  0  0  0  0  0
    8.9962   -0.6800    0.0000 H   0  0  0  0  0  0  0  0  0  0  0  0
   12.4603    2.5600    0.0000 H   0  0  0  0  0  0  0  0  0  0  0  0
   18.1934    0.6300    0.0000 H   0  0  0  0  0  0  0  0  0  0  0  0
   16.7904    3.0600    0.0000 H   0  0  0  0  0  0  0  0  0  0  0  0
   18.8324    1.9031    0.0000 H   0  0  0  0  0  0  0  0  0  0  0  0
   19.0594    2.7500    0.0000 H   0  0  0  0  0  0  0  0  0  0  0  0
   18.2124    2.9769    0.0000 H   0  0  0  0  0  0  0  0  0  0  0  0
    6.8656   -0.5349    0.0000 H   0  0  0  0  0  0  0  0  0  0  0  0
    7.6626   -0.5349    0.0000 H   0  0  0  0  0  0  0  0  0  0  0  0
    6.3981    1.0600    0.0000 H   0  0  0  0  0  0  0  0  0  0  0  0
    4.6660    1.0600    0.0000 H   0  0  0  0  0  0  0  0  0  0  0  0
    6.0690   -1.3700    0.0000 H   0  0  0  0  0  0  0  0  0  0  0  0
    2.9132    1.0946    0.0000 H   0  0  0  0  0  0  0  0  0  0  0  0
    2.9132   -2.2146    0.0000 H   0  0  0  0  0  0  0  0  0  0  0  0
    1.4643    0.2729    0.0000 H   0  0  0  0  0  0  0  0  0  0  0  0
    1.4643   -1.3929    0.0000 H   0  0  0  0  0  0  0  0  0  0  0  0
  1  2  2  0  0  0  0
  1  3  2  0  0  0  0
  1  7  1  0  0  0  0
  1 18  1  0  0  0  0
  4 17  1  0  0  0  0
  4 60  1  0  0  0  0
  5 17  2  0  0  0  0
  6 27  2  0  0  0  0
 11  7  1  1  0  0  0
  7 12  1  0  0  0  0
  8 21  1  0  0  0  0
  8 27  1  0  0  0  0
  8 59  1  0  0  0  0
  9 29  1  0  0  0  0
  9 30  1  0  0  0  0
  9 68  1  0  0  0  0
 10 33  2  0  0  0  0
 10 34  1  0  0  0  0
 11 13  1  0  0  0  0
 11 17  1  0  0  0  0
 11 39  1  0  0  0  0
 12 14  1  0  0  0  0
 12 40  1  0  0  0  0
 12 41  1  0  0  0  0
 13 15  1  0  0  0  0
 13 42  1  0  0  0  0
 13 43  1  0  0  0  0
 14 19  1  0  0  0  0
 14 20  1  0  0  0  0
 14 44  1  0  0  0  0
 15 16  1  0  0  0  0
 15 45  1  0  0  0  0
 15 46  1  0  0  0  0
 16 21  1  0  0  0  0
 16 47  1  0  0  0  0
 16 48  1  0  0  0  0
 18 22  2  0  0  0  0
 18 23  1  0  0  0  0
 19 49  1  0  0  0  0
 19 50  1  0  0  0  0
 19 51  1  0  0  0  0
 20 52  1  0  0  0  0
 20 53  1  0  0  0  0
 20 54  1  0  0  0  0
 21 55  1  0  0  0  0
 21 56  1  0  0  0  0
 22 24  1  0  0  0  0
 22 57  1  0  0  0  0
 23 25  2  0  0  0  0
 23 58  1  0  0  0  0
 24 26  2  0  0  0  0
 24 61  1  0  0  0  0
 25 26  1  0  0  0  0
 25 62  1  0  0  0  0
 26 28  1  0  0  0  0
 27 29  1  0  0  0  0
 28 63  1  0  0  0  0
 28 64  1  0  0  0  0
 28 65  1  0  0  0  0
 29 66  1  0  0  0  0
 29 67  1  0  0  0  0
 30 31  2  0  0  0  0
 30 33  1  0  0  0  0
 31 32  1  0  0  0  0
 31 69  1  0  0  0  0
 32 34  1  0  0  0  0
 32 35  2  0  0  0  0
 33 70  1  0  0  0  0
 34 36  2  0  0  0  0
 35 37  1  0  0  0  0
 35 71  1  0  0  0  0
 36 38  1  0  0  0  0
 36 72  1  0  0  0  0
 37 38  2  0  0  0  0
 37 73  1  0  0  0  0
 38 74  1  0  0  0  0
M  END
> <PUBCHEM_COMPOUND_CID>
508635
> <PUBCHEM_COMPOUND_CANONICALIZED>
1
> <PUBCHEM_CACTVS_COMPLEXITY>
854
> <PUBCHEM_CACTVS_HBOND_ACCEPTOR>
8
> <PUBCHEM_CACTVS_HBOND_DONOR>
3
> <PUBCHEM_CACTVS_ROTATABLE_BOND>
14
> <PUBCHEM_CACTVS_SUBSKEYS>
AAADcfB7uABAAAAAAAAAAAAAAAAAAAAAAAA8YIAAAAAAAACx9AAAHgQQSAAADSjB3gQ+yfLIEgKoAzX3XHDCgDAxEiAI2Lm4dJgKYPLAkbGUYAhklgDYyAeYyIAOEAAAAAACAAAgAAAAAAQAAAAAAAAAAA==
> <PUBCHEM_IUPAC_OPENEYE_NAME>
(2S)-2-[isobutyl(p-tolylsulfonyl)amino]-6-[[2-(3-quinolylamino)acetyl]amino]hexanoic acid
> <PUBCHEM_IUPAC_CAS_NAME>
(2S)-2-[(4-methylphenyl)sulfonyl-(2-methylpropyl)amino]-6-[[1-oxo-2-(3-quinolinylamino)ethyl]amino]hexanoic acid
> <PUBCHEM_IUPAC_NAME_MARKUP>
(2<I>S</I>)-2-[(4-methylphenyl)sulfonyl-(2-methylpropyl)amino]-6-[[2-(quinolin-3-ylamino)acetyl]amino]hexanoic acid
> <PUBCHEM_IUPAC_NAME>
(2S)-2-[(4-methylphenyl)sulfonyl-(2-methylpropyl)amino]-6-[[2-(quinolin-3-ylamino)acetyl]amino]hexanoic acid
> <PUBCHEM_IUPAC_SYSTEMATIC_NAME>
(2S)-2-[(4-methylphenyl)sulfonyl-(2-methylpropyl)amino]-6-[2-(quinolin-3-ylamino)ethanoylamino]hexanoic acid
> <PUBCHEM_IUPAC_TRADITIONAL_NAME>
(2S)-2-[isobutyl(tosyl)amino]-6-[[2-(3-quinolylamino)acetyl]amino]hexanoic acid
> <PUBCHEM_IUPAC_INCHI>
InChI=1S/C28H36N4O5S/c1-20(2)19-32(38(36,37)24-13-11-21(3)12-14-24)26(28(34)35)10-6-7-15-29-27(33)18-30-23-16-22-8-4-5-9-25(22)31-17-23/h4-5,8-9,11-14,16-17,20,26,30H,6-7,10,15,18-19H2,1-3H3,(H,29,33)(H,34,35)/t26-/m0/s1
> <PUBCHEM_IUPAC_INCHIKEY>
NNGQKKXWWJMCPP-SANMLTNESA-N
> <PUBCHEM_XLOGP3_AA>
4.8
> <PUBCHEM_EXACT_MASS>
540.24064144
> <PUBCHEM_MOLECULAR_FORMULA>
C28H36N4O5S
> <PUBCHEM_MOLECULAR_WEIGHT>
540.7
> <PUBCHEM_OPENEYE_CAN_SMILES>
CC1=CC=C(C=C1)S(=O)(=O)N(CC(C)C)C(CCCCNC(=O)CNC2=CC3=CC=CC=C3N=C2)C(=O)O
> <PUBCHEM_OPENEYE_ISO_SMILES>
CC1=CC=C(C=C1)S(=O)(=O)N(CC(C)C)[C@@H](CCCCNC(=O)CNC2=CC3=CC=CC=C3N=C2)C(=O)O
> <PUBCHEM_CACTVS_TPSA>
137
> <PUBCHEM_MONOISOTOPIC_WEIGHT>
540.24064144
> <PUBCHEM_TOTAL_CHARGE>
0
> <PUBCHEM_HEAVY_ATOM_COUNT>
38
> <PUBCHEM_ATOM_DEF_STEREO_COUNT>
1
> <PUBCHEM_ATOM_UDEF_STEREO_COUNT>
0
> <PUBCHEM_BOND_DEF_STEREO_COUNT>
0
> <PUBCHEM_BOND_UDEF_STEREO_COUNT>
0
> <PUBCHEM_ISOTOPIC_ATOM_COUNT>
0
> <PUBCHEM_COMPONENT_COUNT>
1
> <PUBCHEM_CACTVS_TAUTO_COUNT>
-1
> <PUBCHEM_COORDINATE_TYPE>
1
5
255
> <PUBCHEM_BONDANNOTATIONS>
10  33  8
10  34  8
18  22  8
18  23  8
22  24  8
23  25  8
24  26  8
25  26  8
30  31  8
30  33  8
31  32  8
32  34  8
32  35  8
34  36  8
35  37  8
36  38  8
37  38  8
11  7  5
$$$$
