508681
  -OEChem-10302200282D
 89 91  0     1  0  0  0  0  0999 V2000
    3.7320   -4.2500    0.0000 S   0  0  0  0  0  0  0  0  0  0  0  0
    8.0622    4.2500    0.0000 S   0  0  0  0  0  0  0  0  0  0  0  0
    6.3301   -2.7500    0.0000 O   0  0  0  0  0  0  0  0  0  0  0  0
    4.7320   -4.2500    0.0000 O   0  0  0  0  0  0  0  0  0  0  0  0
    2.7320   -4.2500    0.0000 O   0  0  0  0  0  0  0  0  0  0  0  0
    8.0622    1.2500    0.0000 O   0  0  0  0  0  0  0  0  0  0  0  0
    9.0622    4.2500    0.0000 O   0  0  0  0  0  0  0  0  0  0  0  0
    7.0622    4.2500    0.0000 O   0  0  0  0  0  0  0  0  0  0  0  0
    3.7320   -3.2500    0.0000 N   0  0  3  0  0  0  0  0  0  0  0  0
    6.3301    1.2500    0.0000 N   0  0  0  0  0  0  0  0  0  0  0  0
    8.0622    3.2500    0.0000 N   0  0  3  0  0  0  0  0  0  0  0  0
    4.5981   -2.7500    0.0000 C   0  0  1  0  0  0  0  0  0  0  0  0
    4.5981   -1.7500    0.0000 C   0  0  0  0  0  0  0  0  0  0  0  0
    2.8660   -2.7500    0.0000 C   0  0  0  0  0  0  0  0  0  0  0  0
    5.4641   -1.2500    0.0000 C   0  0  0  0  0  0  0  0  0  0  0  0
    2.8660   -1.7500    0.0000 C   0  0  0  0  0  0  0  0  0  0  0  0
    5.4641   -3.2500    0.0000 C   0  0  0  0  0  0  0  0  0  0  0  0
    5.4641   -0.2500    0.0000 C   0  0  0  0  0  0  0  0  0  0  0  0
    3.7320   -5.2500    0.0000 C   0  0  0  0  0  0  0  0  0  0  0  0
    2.0000   -1.2500    0.0000 C   0  0  0  0  0  0  0  0  0  0  0  0
    3.7320   -1.2500    0.0000 C   0  0  0  0  0  0  0  0  0  0  0  0
    6.3301    0.2500    0.0000 C   0  0  0  0  0  0  0  0  0  0  0  0
    4.5981   -5.7500    0.0000 C   0  0  0  0  0  0  0  0  0  0  0  0
    2.8660   -5.7500    0.0000 C   0  0  0  0  0  0  0  0  0  0  0  0
    4.5981   -6.7500    0.0000 C   0  0  0  0  0  0  0  0  0  0  0  0
    2.8660   -6.7500    0.0000 C   0  0  0  0  0  0  0  0  0  0  0  0
    7.1962    1.7500    0.0000 C   0  0  0  0  0  0  0  0  0  0  0  0
    3.7320   -7.2500    0.0000 C   0  0  0  0  0  0  0  0  0  0  0  0
    7.1962    2.7500    0.0000 C   0  0  0  0  0  0  0  0  0  0  0  0
    8.9282    2.7500    0.0000 C   0  0  0  0  0  0  0  0  0  0  0  0
    3.7320   -8.2500    0.0000 C   0  0  0  0  0  0  0  0  0  0  0  0
    8.0622    5.2500    0.0000 C   0  0  0  0  0  0  0  0  0  0  0  0
    9.7942    3.2500    0.0000 C   0  0  0  0  0  0  0  0  0  0  0  0
    8.9282    5.7500    0.0000 C   0  0  0  0  0  0  0  0  0  0  0  0
    7.1962    5.7500    0.0000 C   0  0  0  0  0  0  0  0  0  0  0  0
    9.7942    4.2500    0.0000 C   0  0  0  0  0  0  0  0  0  0  0  0
   10.6603    2.7500    0.0000 C   0  0  0  0  0  0  0  0  0  0  0  0
    8.9282    6.7500    0.0000 C   0  0  0  0  0  0  0  0  0  0  0  0
    7.1962    6.7500    0.0000 C   0  0  0  0  0  0  0  0  0  0  0  0
    8.0622    7.2500    0.0000 C   0  0  0  0  0  0  0  0  0  0  0  0
   10.6603    4.7500    0.0000 C   0  0  0  0  0  0  0  0  0  0  0  0
   11.5263    3.2500    0.0000 C   0  0  0  0  0  0  0  0  0  0  0  0
   11.5263    4.2500    0.0000 C   0  0  0  0  0  0  0  0  0  0  0  0
    8.0622    8.2500    0.0000 C   0  0  0  0  0  0  0  0  0  0  0  0
    4.5981   -3.3700    0.0000 H   0  0  0  0  0  0  0  0  0  0  0  0
    4.3860   -1.1674    0.0000 H   0  0  0  0  0  0  0  0  0  0  0  0
    3.9875   -1.8577    0.0000 H   0  0  0  0  0  0  0  0  0  0  0  0
    2.2554   -2.6423    0.0000 H   0  0  0  0  0  0  0  0  0  0  0  0
    2.6540   -3.3326    0.0000 H   0  0  0  0  0  0  0  0  0  0  0  0
    5.6762   -1.8326    0.0000 H   0  0  0  0  0  0  0  0  0  0  0  0
    6.0747   -1.1423    0.0000 H   0  0  0  0  0  0  0  0  0  0  0  0
    2.8660   -1.1300    0.0000 H   0  0  0  0  0  0  0  0  0  0  0  0
    5.0656   -3.7250    0.0000 H   0  0  0  0  0  0  0  0  0  0  0  0
    5.8626   -3.7250    0.0000 H   0  0  0  0  0  0  0  0  0  0  0  0
    5.2520    0.3326    0.0000 H   0  0  0  0  0  0  0  0  0  0  0  0
    4.8535   -0.3577    0.0000 H   0  0  0  0  0  0  0  0  0  0  0  0
    2.3100   -0.7131    0.0000 H   0  0  0  0  0  0  0  0  0  0  0  0
    1.4631   -0.9400    0.0000 H   0  0  0  0  0  0  0  0  0  0  0  0
    1.6900   -1.7869    0.0000 H   0  0  0  0  0  0  0  0  0  0  0  0
    4.0420   -1.7869    0.0000 H   0  0  0  0  0  0  0  0  0  0  0  0
    4.2690   -0.9400    0.0000 H   0  0  0  0  0  0  0  0  0  0  0  0
    3.4220   -0.7131    0.0000 H   0  0  0  0  0  0  0  0  0  0  0  0
    6.5422   -0.3326    0.0000 H   0  0  0  0  0  0  0  0  0  0  0  0
    6.9407    0.3577    0.0000 H   0  0  0  0  0  0  0  0  0  0  0  0
    6.8671   -3.0600    0.0000 H   0  0  0  0  0  0  0  0  0  0  0  0
    5.1350   -5.4400    0.0000 H   0  0  0  0  0  0  0  0  0  0  0  0
    2.3291   -5.4400    0.0000 H   0  0  0  0  0  0  0  0  0  0  0  0
    5.7932    1.5600    0.0000 H   0  0  0  0  0  0  0  0  0  0  0  0
    5.1350   -7.0600    0.0000 H   0  0  0  0  0  0  0  0  0  0  0  0
    2.3291   -7.0600    0.0000 H   0  0  0  0  0  0  0  0  0  0  0  0
    6.9841    3.3326    0.0000 H   0  0  0  0  0  0  0  0  0  0  0  0
    6.5856    2.6423    0.0000 H   0  0  0  0  0  0  0  0  0  0  0  0
    8.5297    2.2750    0.0000 H   0  0  0  0  0  0  0  0  0  0  0  0
    9.3267    2.2750    0.0000 H   0  0  0  0  0  0  0  0  0  0  0  0
    3.1120   -8.2500    0.0000 H   0  0  0  0  0  0  0  0  0  0  0  0
    3.7320   -8.8700    0.0000 H   0  0  0  0  0  0  0  0  0  0  0  0
    4.3520   -8.2500    0.0000 H   0  0  0  0  0  0  0  0  0  0  0  0
    9.4651    5.4400    0.0000 H   0  0  0  0  0  0  0  0  0  0  0  0
    6.6592    5.4400    0.0000 H   0  0  0  0  0  0  0  0  0  0  0  0
    9.2573    4.5600    0.0000 H   0  0  0  0  0  0  0  0  0  0  0  0
   10.6603    2.1300    0.0000 H   0  0  0  0  0  0  0  0  0  0  0  0
    9.4651    7.0600    0.0000 H   0  0  0  0  0  0  0  0  0  0  0  0
    6.6592    7.0600    0.0000 H   0  0  0  0  0  0  0  0  0  0  0  0
   10.6603    5.3700    0.0000 H   0  0  0  0  0  0  0  0  0  0  0  0
   12.0632    2.9400    0.0000 H   0  0  0  0  0  0  0  0  0  0  0  0
   12.0632    4.5600    0.0000 H   0  0  0  0  0  0  0  0  0  0  0  0
    8.6822    8.2500    0.0000 H   0  0  0  0  0  0  0  0  0  0  0  0
    8.0622    8.8700    0.0000 H   0  0  0  0  0  0  0  0  0  0  0  0
    7.4422    8.2500    0.0000 H   0  0  0  0  0  0  0  0  0  0  0  0
  1  4  2  0  0  0  0
  1  5  2  0  0  0  0
  1  9  1  0  0  0  0
  1 19  1  0  0  0  0
  2  7  2  0  0  0  0
  2  8  2  0  0  0  0
  2 11  1  0  0  0  0
  2 32  1  0  0  0  0
  3 17  1  0  0  0  0
  3 65  1  0  0  0  0
  6 27  2  0  0  0  0
 12  9  1  1  0  0  0
  9 14  1  0  0  0  0
 10 22  1  0  0  0  0
 10 27  1  0  0  0  0
 10 68  1  0  0  0  0
 11 29  1  0  0  0  0
 11 30  1  0  0  0  0
 12 13  1  0  0  0  0
 12 17  1  0  0  0  0
 12 45  1  0  0  0  0
 13 15  1  0  0  0  0
 13 46  1  0  0  0  0
 13 47  1  0  0  0  0
 14 16  1  0  0  0  0
 14 48  1  0  0  0  0
 14 49  1  0  0  0  0
 15 18  1  0  0  0  0
 15 50  1  0  0  0  0
 15 51  1  0  0  0  0
 16 20  1  0  0  0  0
 16 21  1  0  0  0  0
 16 52  1  0  0  0  0
 17 53  1  0  0  0  0
 17 54  1  0  0  0  0
 18 22  1  0  0  0  0
 18 55  1  0  0  0  0
 18 56  1  0  0  0  0
 19 23  2  0  0  0  0
 19 24  1  0  0  0  0
 20 57  1  0  0  0  0
 20 58  1  0  0  0  0
 20 59  1  0  0  0  0
 21 60  1  0  0  0  0
 21 61  1  0  0  0  0
 21 62  1  0  0  0  0
 22 63  1  0  0  0  0
 22 64  1  0  0  0  0
 23 25  1  0  0  0  0
 23 66  1  0  0  0  0
 24 26  2  0  0  0  0
 24 67  1  0  0  0  0
 25 28  2  0  0  0  0
 25 69  1  0  0  0  0
 26 28  1  0  0  0  0
 26 70  1  0  0  0  0
 27 29  1  0  0  0  0
 28 31  1  0  0  0  0
 29 71  1  0  0  0  0
 29 72  1  0  0  0  0
 30 33  1  0  0  0  0
 30 73  1  0  0  0  0
 30 74  1  0  0  0  0
 31 75  1  0  0  0  0
 31 76  1  0  0  0  0
 31 77  1  0  0  0  0
 32 34  2  0  0  0  0
 32 35  1  0  0  0  0
 33 36  2  0  0  0  0
 33 37  1  0  0  0  0
 34 38  1  0  0  0  0
 34 78  1  0  0  0  0
 35 39  2  0  0  0  0
 35 79  1  0  0  0  0
 36 41  1  0  0  0  0
 36 80  1  0  0  0  0
 37 42  2  0  0  0  0
 37 81  1  0  0  0  0
 38 40  2  0  0  0  0
 38 82  1  0  0  0  0
 39 40  1  0  0  0  0
 39 83  1  0  0  0  0
 40 44  1  0  0  0  0
 41 43  2  0  0  0  0
 41 84  1  0  0  0  0
 42 43  1  0  0  0  0
 42 85  1  0  0  0  0
 43 86  1  0  0  0  0
 44 87  1  0  0  0  0
 44 88  1  0  0  0  0
 44 89  1  0  0  0  0
M  END
> <PUBCHEM_COMPOUND_CID>
508681
> <PUBCHEM_COMPOUND_CANONICALIZED>
1
> <PUBCHEM_CACTVS_COMPLEXITY>
1050
> <PUBCHEM_CACTVS_HBOND_ACCEPTOR>
8
> <PUBCHEM_CACTVS_HBOND_DONOR>
2
> <PUBCHEM_CACTVS_ROTATABLE_BOND>
17
> <PUBCHEM_CACTVS_SUBSKEYS>
AAADcfB/OABgAAAAAAAAAAAAAAAAAAAAAAAwYMAAAAAAAAABUAAAHgQQSAAADSjh2AYyAYLAAgKIAiFSEHDCABAgAAAIiJiIBIgKcCKAkTGUYAhklgCYiAeQwAAOEAAAAAAAAAAgAAAAAAAAAAAAAAAAAA==
> <PUBCHEM_IUPAC_OPENEYE_NAME>
2-[benzyl(p-tolylsulfonyl)amino]-N-[(5S)-6-hydroxy-5-[isobutyl(p-tolylsulfonyl)amino]hexyl]acetamide
> <PUBCHEM_IUPAC_CAS_NAME>
N-[(5S)-6-hydroxy-5-[(4-methylphenyl)sulfonyl-(2-methylpropyl)amino]hexyl]-2-[(4-methylphenyl)sulfonyl-(phenylmethyl)amino]acetamide
> <PUBCHEM_IUPAC_NAME_MARKUP>
2-[benzyl-(4-methylphenyl)sulfonylamino]-<I>N</I>-[(5<I>S</I>)-6-hydroxy-5-[(4-methylphenyl)sulfonyl-(2-methylpropyl)amino]hexyl]acetamide
> <PUBCHEM_IUPAC_NAME>
2-[benzyl-(4-methylphenyl)sulfonylamino]-N-[(5S)-6-hydroxy-5-[(4-methylphenyl)sulfonyl-(2-methylpropyl)amino]hexyl]acetamide
> <PUBCHEM_IUPAC_SYSTEMATIC_NAME>
N-[(5S)-5-[(4-methylphenyl)sulfonyl-(2-methylpropyl)amino]-6-oxidanyl-hexyl]-2-[(4-methylphenyl)sulfonyl-(phenylmethyl)amino]ethanamide
> <PUBCHEM_IUPAC_TRADITIONAL_NAME>
2-[benzyl(tosyl)amino]-N-[(5S)-6-hydroxy-5-[isobutyl(tosyl)amino]hexyl]acetamide
> <PUBCHEM_IUPAC_INCHI>
InChI=1S/C33H45N3O6S2/c1-26(2)22-36(44(41,42)32-19-15-28(4)16-20-32)30(25-37)12-8-9-21-34-33(38)24-35(23-29-10-6-5-7-11-29)43(39,40)31-17-13-27(3)14-18-31/h5-7,10-11,13-20,26,30,37H,8-9,12,21-25H2,1-4H3,(H,34,38)/t30-/m0/s1
> <PUBCHEM_IUPAC_INCHIKEY>
XXXMMFMMBDIHJR-PMERELPUSA-N
> <PUBCHEM_XLOGP3_AA>
5.3
> <PUBCHEM_EXACT_MASS>
643.27497851
> <PUBCHEM_MOLECULAR_FORMULA>
C33H45N3O6S2
> <PUBCHEM_MOLECULAR_WEIGHT>
643.9
> <PUBCHEM_OPENEYE_CAN_SMILES>
CC1=CC=C(C=C1)S(=O)(=O)N(CC2=CC=CC=C2)CC(=O)NCCCCC(CO)N(CC(C)C)S(=O)(=O)C3=CC=C(C=C3)C
> <PUBCHEM_OPENEYE_ISO_SMILES>
CC1=CC=C(C=C1)S(=O)(=O)N(CC2=CC=CC=C2)CC(=O)NCCCC[C@@H](CO)N(CC(C)C)S(=O)(=O)C3=CC=C(C=C3)C
> <PUBCHEM_CACTVS_TPSA>
141
> <PUBCHEM_MONOISOTOPIC_WEIGHT>
643.27497851
> <PUBCHEM_TOTAL_CHARGE>
0
> <PUBCHEM_HEAVY_ATOM_COUNT>
44
> <PUBCHEM_ATOM_DEF_STEREO_COUNT>
1
> <PUBCHEM_ATOM_UDEF_STEREO_COUNT>
0
> <PUBCHEM_BOND_DEF_STEREO_COUNT>
0
> <PUBCHEM_BOND_UDEF_STEREO_COUNT>
0
> <PUBCHEM_ISOTOPIC_ATOM_COUNT>
0
> <PUBCHEM_COMPONENT_COUNT>
1
> <PUBCHEM_CACTVS_TAUTO_COUNT>
-1
> <PUBCHEM_COORDINATE_TYPE>
1
5
255
> <PUBCHEM_BONDANNOTATIONS>
19  23  8
19  24  8
23  25  8
24  26  8
25  28  8
26  28  8
32  34  8
32  35  8
33  36  8
33  37  8
34  38  8
35  39  8
36  41  8
37  42  8
38  40  8
39  40  8
41  43  8
42  43  8
12  9  5
$$$$
