508695
  -OEChem-10302200282D
 87 90  0     1  0  0  0  0  0999 V2000
    4.8494    3.2695    0.0000 S   0  0  0  0  0  0  0  0  0  0  0  0
    3.8989    3.5801    0.0000 O   0  0  0  0  0  0  0  0  0  0  0  0
    5.7999    2.9588    0.0000 O   0  0  0  0  0  0  0  0  0  0  0  0
    6.8529    1.0366    0.0000 O   0  0  0  0  0  0  0  0  0  0  0  0
    6.0920    7.0716    0.0000 O   0  0  0  0  0  0  0  0  0  0  0  0
    7.2566   -3.3036    0.0000 O   0  0  0  0  0  0  0  0  0  0  0  0
    7.9244   -4.0479    0.0000 O   0  0  0  0  0  0  0  0  0  0  0  0
    4.5387    2.3190    0.0000 N   0  0  3  0  0  0  0  0  0  0  0  0
    5.6103   -2.7655    0.0000 N   0  0  0  0  0  0  0  0  0  0  0  0
    6.6353   -5.2046    0.0000 N   0  0  0  0  0  0  0  0  0  0  0  0
    4.6783   -7.2265    0.0000 N   0  0  0  0  0  0  0  0  0  0  0  0
    3.2496    1.1622    0.0000 C   0  0  0  0  0  0  0  0  0  0  0  0
    3.8359    0.3522    0.0000 C   0  0  0  0  0  0  0  0  0  0  0  0
    2.2980    0.8548    0.0000 C   0  0  0  0  0  0  0  0  0  0  0  0
    3.5602    2.1127    0.0000 C   0  0  0  0  0  0  0  0  0  0  0  0
    3.2468   -0.4558    0.0000 C   0  0  0  0  0  0  0  0  0  0  0  0
    2.2962   -0.1452    0.0000 C   0  0  0  0  0  0  0  0  0  0  0  0
    5.2066    1.5747    0.0000 C   0  0  1  0  0  0  0  0  0  0  0  0
    4.8959    0.6241    0.0000 C   0  0  0  0  0  0  0  0  0  0  0  0
    6.1851    1.7809    0.0000 C   0  0  0  0  0  0  0  0  0  0  0  0
    5.5637   -0.1202    0.0000 C   0  0  0  0  0  0  0  0  0  0  0  0
    5.1600    4.2200    0.0000 C   0  0  0  0  0  0  0  0  0  0  0  0
    5.2531   -1.0707    0.0000 C   0  0  0  0  0  0  0  0  0  0  0  0
    5.9209   -1.8150    0.0000 C   0  0  0  0  0  0  0  0  0  0  0  0
    4.4922    4.9643    0.0000 C   0  0  0  0  0  0  0  0  0  0  0  0
    6.1385    4.4262    0.0000 C   0  0  0  0  0  0  0  0  0  0  0  0
    4.8029    5.9148    0.0000 C   0  0  0  0  0  0  0  0  0  0  0  0
    6.4492    5.3767    0.0000 C   0  0  0  0  0  0  0  0  0  0  0  0
    5.7814    6.1210    0.0000 C   0  0  0  0  0  0  0  0  0  0  0  0
    5.9674   -4.4603    0.0000 C   0  0  2  0  0  0  0  0  0  0  0  0
    6.2781   -3.5098    0.0000 C   0  0  0  0  0  0  0  0  0  0  0  0
    4.9889   -4.6666    0.0000 C   0  0  0  0  0  0  0  0  0  0  0  0
    4.6783   -5.6171    0.0000 C   0  0  0  0  0  0  0  0  0  0  0  0
    3.7320   -5.9218    0.0000 C   0  0  0  0  0  0  0  0  0  0  0  0
    5.2619   -6.4218    0.0000 C   0  0  0  0  0  0  0  0  0  0  0  0
    3.7320   -6.9218    0.0000 C   0  0  0  0  0  0  0  0  0  0  0  0
    2.8660   -5.4218    0.0000 C   0  0  0  0  0  0  0  0  0  0  0  0
    7.6138   -4.9984    0.0000 C   0  0  0  0  0  0  0  0  0  0  0  0
    5.4242    7.8159    0.0000 C   0  0  0  0  0  0  0  0  0  0  0  0
    2.8660   -7.4218    0.0000 C   0  0  0  0  0  0  0  0  0  0  0  0
    2.0000   -5.9218    0.0000 C   0  0  0  0  0  0  0  0  0  0  0  0
    2.0000   -6.9218    0.0000 C   0  0  0  0  0  0  0  0  0  0  0  0
    8.2816   -5.7427    0.0000 C   0  0  0  0  0  0  0  0  0  0  0  0
    2.8119    1.6014    0.0000 H   0  0  0  0  0  0  0  0  0  0  0  0
    4.2960   -0.0635    0.0000 H   0  0  0  0  0  0  0  0  0  0  0  0
    4.2974    0.7662    0.0000 H   0  0  0  0  0  0  0  0  0  0  0  0
    2.1701    1.4615    0.0000 H   0  0  0  0  0  0  0  0  0  0  0  0
    1.6812    0.7911    0.0000 H   0  0  0  0  0  0  0  0  0  0  0  0
    3.5396    2.7324    0.0000 H   0  0  0  0  0  0  0  0  0  0  0  0
    2.9464    2.2001    0.0000 H   0  0  0  0  0  0  0  0  0  0  0  0
    2.9936   -1.0218    0.0000 H   0  0  0  0  0  0  0  0  0  0  0  0
    3.7831   -0.7667    0.0000 H   0  0  0  0  0  0  0  0  0  0  0  0
    1.6797   -0.0793    0.0000 H   0  0  0  0  0  0  0  0  0  0  0  0
    2.1663   -0.7514    0.0000 H   0  0  0  0  0  0  0  0  0  0  0  0
    5.3992    2.1640    0.0000 H   0  0  0  0  0  0  0  0  0  0  0  0
    4.3490    0.9162    0.0000 H   0  0  0  0  0  0  0  0  0  0  0  0
    4.5133    0.1362    0.0000 H   0  0  0  0  0  0  0  0  0  0  0  0
    6.7114    2.1085    0.0000 H   0  0  0  0  0  0  0  0  0  0  0  0
    5.9538    2.3561    0.0000 H   0  0  0  0  0  0  0  0  0  0  0  0
    6.1107   -0.4122    0.0000 H   0  0  0  0  0  0  0  0  0  0  0  0
    5.9463    0.3677    0.0000 H   0  0  0  0  0  0  0  0  0  0  0  0
    4.7062   -0.7787    0.0000 H   0  0  0  0  0  0  0  0  0  0  0  0
    4.8705   -1.5586    0.0000 H   0  0  0  0  0  0  0  0  0  0  0  0
    6.4678   -2.1070    0.0000 H   0  0  0  0  0  0  0  0  0  0  0  0
    6.3035   -1.3271    0.0000 H   0  0  0  0  0  0  0  0  0  0  0  0
    7.4596    1.1644    0.0000 H   0  0  0  0  0  0  0  0  0  0  0  0
    3.8855    4.8364    0.0000 H   0  0  0  0  0  0  0  0  0  0  0  0
    6.5526    3.9648    0.0000 H   0  0  0  0  0  0  0  0  0  0  0  0
    5.0036   -2.8934    0.0000 H   0  0  0  0  0  0  0  0  0  0  0  0
    4.3888    6.3763    0.0000 H   0  0  0  0  0  0  0  0  0  0  0  0
    7.0559    5.5046    0.0000 H   0  0  0  0  0  0  0  0  0  0  0  0
    5.7748   -5.0496    0.0000 H   0  0  0  0  0  0  0  0  0  0  0  0
    4.9684   -4.0469    0.0000 H   0  0  0  0  0  0  0  0  0  0  0  0
    4.3751   -4.5792    0.0000 H   0  0  0  0  0  0  0  0  0  0  0  0
    6.4427   -5.7940    0.0000 H   0  0  0  0  0  0  0  0  0  0  0  0
    5.8819   -6.4218    0.0000 H   0  0  0  0  0  0  0  0  0  0  0  0
    4.8709   -7.8159    0.0000 H   0  0  0  0  0  0  0  0  0  0  0  0
    2.8660   -4.8018    0.0000 H   0  0  0  0  0  0  0  0  0  0  0  0
    2.8660   -8.0418    0.0000 H   0  0  0  0  0  0  0  0  0  0  0  0
    5.8856    8.2299    0.0000 H   0  0  0  0  0  0  0  0  0  0  0  0
    5.0101    8.2773    0.0000 H   0  0  0  0  0  0  0  0  0  0  0  0
    4.9627    7.4018    0.0000 H   0  0  0  0  0  0  0  0  0  0  0  0
    1.4631   -5.6118    0.0000 H   0  0  0  0  0  0  0  0  0  0  0  0
    1.4631   -7.2318    0.0000 H   0  0  0  0  0  0  0  0  0  0  0  0
    7.8202   -6.1568    0.0000 H   0  0  0  0  0  0  0  0  0  0  0  0
    8.6957   -6.2042    0.0000 H   0  0  0  0  0  0  0  0  0  0  0  0
    8.7431   -5.3286    0.0000 H   0  0  0  0  0  0  0  0  0  0  0  0
  1  2  2  0  0  0  0
  1  3  2  0  0  0  0
  1  8  1  0  0  0  0
  1 22  1  0  0  0  0
  4 20  1  0  0  0  0
  4 66  1  0  0  0  0
  5 29  1  0  0  0  0
  5 39  1  0  0  0  0
  6 31  2  0  0  0  0
  7 38  2  0  0  0  0
  8 15  1  0  0  0  0
 18  8  1  6  0  0  0
  9 24  1  0  0  0  0
  9 31  1  0  0  0  0
  9 69  1  0  0  0  0
 30 10  1  1  0  0  0
 10 38  1  0  0  0  0
 10 75  1  0  0  0  0
 11 35  1  0  0  0  0
 11 36  1  0  0  0  0
 11 77  1  0  0  0  0
 12 13  1  0  0  0  0
 12 14  1  0  0  0  0
 12 15  1  0  0  0  0
 12 44  1  0  0  0  0
 13 16  1  0  0  0  0
 13 45  1  0  0  0  0
 13 46  1  0  0  0  0
 14 17  1  0  0  0  0
 14 47  1  0  0  0  0
 14 48  1  0  0  0  0
 15 49  1  0  0  0  0
 15 50  1  0  0  0  0
 16 17  1  0  0  0  0
 16 51  1  0  0  0  0
 16 52  1  0  0  0  0
 17 53  1  0  0  0  0
 17 54  1  0  0  0  0
 18 19  1  0  0  0  0
 18 20  1  0  0  0  0
 18 55  1  0  0  0  0
 19 21  1  0  0  0  0
 19 56  1  0  0  0  0
 19 57  1  0  0  0  0
 20 58  1  0  0  0  0
 20 59  1  0  0  0  0
 21 23  1  0  0  0  0
 21 60  1  0  0  0  0
 21 61  1  0  0  0  0
 22 25  2  0  0  0  0
 22 26  1  0  0  0  0
 23 24  1  0  0  0  0
 23 62  1  0  0  0  0
 23 63  1  0  0  0  0
 24 64  1  0  0  0  0
 24 65  1  0  0  0  0
 25 27  1  0  0  0  0
 25 67  1  0  0  0  0
 26 28  2  0  0  0  0
 26 68  1  0  0  0  0
 27 29  2  0  0  0  0
 27 70  1  0  0  0  0
 28 29  1  0  0  0  0
 28 71  1  0  0  0  0
 30 31  1  0  0  0  0
 30 32  1  0  0  0  0
 30 72  1  0  0  0  0
 32 33  1  0  0  0  0
 32 73  1  0  0  0  0
 32 74  1  0  0  0  0
 33 34  1  0  0  0  0
 33 35  2  0  0  0  0
 34 36  1  0  0  0  0
 34 37  2  0  0  0  0
 35 76  1  0  0  0  0
 36 40  2  0  0  0  0
 37 41  1  0  0  0  0
 37 78  1  0  0  0  0
 38 43  1  0  0  0  0
 39 80  1  0  0  0  0
 39 81  1  0  0  0  0
 39 82  1  0  0  0  0
 40 42  1  0  0  0  0
 40 79  1  0  0  0  0
 41 42  2  0  0  0  0
 41 83  1  0  0  0  0
 42 84  1  0  0  0  0
 43 85  1  0  0  0  0
 43 86  1  0  0  0  0
 43 87  1  0  0  0  0
M  END
> <PUBCHEM_COMPOUND_CID>
508695
> <PUBCHEM_COMPOUND_CANONICALIZED>
1
> <PUBCHEM_CACTVS_COMPLEXITY>
977
> <PUBCHEM_CACTVS_HBOND_ACCEPTOR>
7
> <PUBCHEM_CACTVS_HBOND_DONOR>
4
> <PUBCHEM_CACTVS_ROTATABLE_BOND>
16
> <PUBCHEM_CACTVS_SUBSKEYS>
AAADcfB/uABAAAAAAAAAAAAAAAAAAeIAAAAwYAAAAAAAAFgB9AAAHgQQSAAADSzh3gY+x/LJlgKoAzV3VHDCiDAxIiAI2bm+bJgOdvLEsbuUcChk1hHY6AeYycCOgIAAAAACAAABAAAAAAQAAAAAAAAAAA==
> <PUBCHEM_IUPAC_OPENEYE_NAME>
(2S)-2-acetamido-N-[(5S)-5-[cyclopentylmethyl-(4-methoxyphenyl)sulfonyl-amino]-6-hydroxy-hexyl]-3-(1H-indol-3-yl)propanamide
> <PUBCHEM_IUPAC_CAS_NAME>
(2S)-2-acetamido-N-[(5S)-5-[cyclopentylmethyl-(4-methoxyphenyl)sulfonylamino]-6-hydroxyhexyl]-3-(1H-indol-3-yl)propanamide
> <PUBCHEM_IUPAC_NAME_MARKUP>
(2<I>S</I>)-2-acetamido-<I>N</I>-[(5<I>S</I>)-5-[cyclopentylmethyl-(4-methoxyphenyl)sulfonylamino]-6-hydroxyhexyl]-3-(1<I>H</I>-indol-3-yl)propanamide
> <PUBCHEM_IUPAC_NAME>
(2S)-2-acetamido-N-[(5S)-5-[cyclopentylmethyl-(4-methoxyphenyl)sulfonylamino]-6-hydroxyhexyl]-3-(1H-indol-3-yl)propanamide
> <PUBCHEM_IUPAC_SYSTEMATIC_NAME>
(2S)-2-acetamido-N-[(5S)-5-[cyclopentylmethyl-(4-methoxyphenyl)sulfonyl-amino]-6-oxidanyl-hexyl]-3-(1H-indol-3-yl)propanamide
> <PUBCHEM_IUPAC_TRADITIONAL_NAME>
(2S)-2-acetamido-N-[(5S)-5-[cyclopentylmethyl-(4-methoxyphenyl)sulfonyl-amino]-6-hydroxy-hexyl]-3-(1H-indol-3-yl)propionamide
> <PUBCHEM_IUPAC_INCHI>
InChI=1S/C32H44N4O6S/c1-23(38)35-31(19-25-20-34-30-13-6-5-12-29(25)30)32(39)33-18-8-7-11-26(22-37)36(21-24-9-3-4-10-24)43(40,41)28-16-14-27(42-2)15-17-28/h5-6,12-17,20,24,26,31,34,37H,3-4,7-11,18-19,21-22H2,1-2H3,(H,33,39)(H,35,38)/t26-,31-/m0/s1
> <PUBCHEM_IUPAC_INCHIKEY>
VTUXHNBXVXFDMS-HVNZXBJASA-N
> <PUBCHEM_XLOGP3_AA>
4.1
> <PUBCHEM_EXACT_MASS>
612.29815631
> <PUBCHEM_MOLECULAR_FORMULA>
C32H44N4O6S
> <PUBCHEM_MOLECULAR_WEIGHT>
612.8
> <PUBCHEM_OPENEYE_CAN_SMILES>
CC(=O)NC(CC1=CNC2=CC=CC=C21)C(=O)NCCCCC(CO)N(CC3CCCC3)S(=O)(=O)C4=CC=C(C=C4)OC
> <PUBCHEM_OPENEYE_ISO_SMILES>
CC(=O)N[C@@H](CC1=CNC2=CC=CC=C21)C(=O)NCCCC[C@@H](CO)N(CC3CCCC3)S(=O)(=O)C4=CC=C(C=C4)OC
> <PUBCHEM_CACTVS_TPSA>
149
> <PUBCHEM_MONOISOTOPIC_WEIGHT>
612.29815631
> <PUBCHEM_TOTAL_CHARGE>
0
> <PUBCHEM_HEAVY_ATOM_COUNT>
43
> <PUBCHEM_ATOM_DEF_STEREO_COUNT>
2
> <PUBCHEM_ATOM_UDEF_STEREO_COUNT>
0
> <PUBCHEM_BOND_DEF_STEREO_COUNT>
0
> <PUBCHEM_BOND_UDEF_STEREO_COUNT>
0
> <PUBCHEM_ISOTOPIC_ATOM_COUNT>
0
> <PUBCHEM_COMPONENT_COUNT>
1
> <PUBCHEM_CACTVS_TAUTO_COUNT>
-1
> <PUBCHEM_COORDINATE_TYPE>
1
5
255
> <PUBCHEM_BONDANNOTATIONS>
30  10  5
11  35  8
11  36  8
22  25  8
22  26  8
25  27  8
26  28  8
27  29  8
28  29  8
33  34  8
33  35  8
34  36  8
34  37  8
36  40  8
37  41  8
40  42  8
41  42  8
18  8  6
$$$$
