508663
  -OEChem-10302200282D
 93 96  0     1  0  0  0  0  0999 V2000
    8.8134   -3.9444    0.0000 S   0  0  0  0  0  0  0  0  0  0  0  0
    8.3374    5.7382    0.0000 O   0  0  0  0  0  0  0  0  0  0  0  0
   10.1050   -2.7904    0.0000 O   0  0  0  0  0  0  0  0  0  0  0  0
    8.3780    3.0421    0.0000 O   0  0  0  0  0  0  0  0  0  0  0  0
    8.0677   -4.6106    0.0000 O   0  0  0  0  0  0  0  0  0  0  0  0
    9.5591   -3.2781    0.0000 O   0  0  0  0  0  0  0  0  0  0  0  0
    8.7040    4.0454    0.0000 O   0  0  0  0  0  0  0  0  0  0  0  0
    7.0547    4.5743    0.0000 N   0  0  0  0  0  0  0  0  0  0  0  0
    8.1472   -3.1987    0.0000 N   0  0  3  0  0  0  0  0  0  0  0  0
    4.5274    5.6985    0.0000 N   0  0  0  0  0  0  0  0  0  0  0  0
    7.0864    1.8881    0.0000 N   0  0  0  0  0  0  0  0  0  0  0  0
    6.7328    3.5836    0.0000 C   0  0  1  0  0  0  0  0  0  0  0  0
    5.7123    3.3750    0.0000 C   0  0  0  0  0  0  0  0  0  0  0  0
    5.0274    4.1597    0.0000 C   0  0  0  0  0  0  0  0  0  0  0  0
    8.4598   -2.2488    0.0000 C   0  0  1  0  0  0  0  0  0  0  0  0
    5.3364    5.1107    0.0000 C   0  0  0  0  0  0  0  0  0  0  0  0
    6.3518    5.3430    0.0000 C   0  0  0  0  0  0  0  0  0  0  0  0
    7.7936   -1.5031    0.0000 C   0  0  0  0  0  0  0  0  0  0  0  0
    4.0274    4.1597    0.0000 C   0  0  0  0  0  0  0  0  0  0  0  0
    8.1063   -0.5532    0.0000 C   0  0  0  0  0  0  0  0  0  0  0  0
    7.1682   -3.4028    0.0000 C   0  0  0  0  0  0  0  0  0  0  0  0
    7.3991    2.8379    0.0000 C   0  0  0  0  0  0  0  0  0  0  0  0
    3.7183    5.1107    0.0000 C   0  0  0  0  0  0  0  0  0  0  0  0
    7.4400    0.1925    0.0000 C   0  0  0  0  0  0  0  0  0  0  0  0
    6.5020   -2.6571    0.0000 C   0  0  0  0  0  0  0  0  0  0  0  0
    9.4388   -2.0446    0.0000 C   0  0  0  0  0  0  0  0  0  0  0  0
    7.7527    1.1424    0.0000 C   0  0  0  0  0  0  0  0  0  0  0  0
    8.0321    4.7860    0.0000 C   0  0  0  0  0  0  0  0  0  0  0  0
    3.3424    3.3750    0.0000 C   0  0  0  0  0  0  0  0  0  0  0  0
    2.7029    5.3430    0.0000 C   0  0  0  0  0  0  0  0  0  0  0  0
    9.4797   -4.6901    0.0000 C   0  0  0  0  0  0  0  0  0  0  0  0
    5.5230   -2.8612    0.0000 C   0  0  0  0  0  0  0  0  0  0  0  0
    6.8146   -1.7072    0.0000 C   0  0  0  0  0  0  0  0  0  0  0  0
    9.3148    5.9499    0.0000 C   0  0  0  0  0  0  0  0  0  0  0  0
    2.3219    3.5836    0.0000 C   0  0  0  0  0  0  0  0  0  0  0  0
    2.0000    4.5743    0.0000 C   0  0  0  0  0  0  0  0  0  0  0  0
    9.1670   -5.6400    0.0000 C   0  0  0  0  0  0  0  0  0  0  0  0
   10.4586   -4.4860    0.0000 C   0  0  0  0  0  0  0  0  0  0  0  0
   10.2921    6.1616    0.0000 C   0  0  0  0  0  0  0  0  0  0  0  0
    9.1031    6.9272    0.0000 C   0  0  0  0  0  0  0  0  0  0  0  0
    9.5264    4.9726    0.0000 C   0  0  0  0  0  0  0  0  0  0  0  0
    9.8333   -6.3857    0.0000 C   0  0  0  0  0  0  0  0  0  0  0  0
   11.1249   -5.2317    0.0000 C   0  0  0  0  0  0  0  0  0  0  0  0
   10.8122   -6.1815    0.0000 C   0  0  0  0  0  0  0  0  0  0  0  0
   11.4785   -6.9272    0.0000 C   0  0  0  0  0  0  0  0  0  0  0  0
    7.3395    3.7114    0.0000 H   0  0  0  0  0  0  0  0  0  0  0  0
    5.1824    3.0532    0.0000 H   0  0  0  0  0  0  0  0  0  0  0  0
    5.9387    2.7977    0.0000 H   0  0  0  0  0  0  0  0  0  0  0  0
    7.8529   -2.3754    0.0000 H   0  0  0  0  0  0  0  0  0  0  0  0
    6.8742    5.6769    0.0000 H   0  0  0  0  0  0  0  0  0  0  0  0
    6.1122    5.9148    0.0000 H   0  0  0  0  0  0  0  0  0  0  0  0
    7.2473   -1.2099    0.0000 H   0  0  0  0  0  0  0  0  0  0  0  0
    7.4100   -1.9902    0.0000 H   0  0  0  0  0  0  0  0  0  0  0  0
    8.6526   -0.8464    0.0000 H   0  0  0  0  0  0  0  0  0  0  0  0
    8.4898   -0.0661    0.0000 H   0  0  0  0  0  0  0  0  0  0  0  0
    6.6412   -3.7293    0.0000 H   0  0  0  0  0  0  0  0  0  0  0  0
    7.3983   -3.9785    0.0000 H   0  0  0  0  0  0  0  0  0  0  0  0
    4.5274    6.3185    0.0000 H   0  0  0  0  0  0  0  0  0  0  0  0
    6.8937    0.4857    0.0000 H   0  0  0  0  0  0  0  0  0  0  0  0
    7.0564   -0.2946    0.0000 H   0  0  0  0  0  0  0  0  0  0  0  0
    7.1089   -2.5305    0.0000 H   0  0  0  0  0  0  0  0  0  0  0  0
    9.9658   -1.7181    0.0000 H   0  0  0  0  0  0  0  0  0  0  0  0
    9.2087   -1.4689    0.0000 H   0  0  0  0  0  0  0  0  0  0  0  0
    8.2990    0.8492    0.0000 H   0  0  0  0  0  0  0  0  0  0  0  0
    8.1363    1.6294    0.0000 H   0  0  0  0  0  0  0  0  0  0  0  0
    6.4795    1.7615    0.0000 H   0  0  0  0  0  0  0  0  0  0  0  0
    3.5408    2.7876    0.0000 H   0  0  0  0  0  0  0  0  0  0  0  0
    2.5182    5.9348    0.0000 H   0  0  0  0  0  0  0  0  0  0  0  0
    5.3964   -2.2543    0.0000 H   0  0  0  0  0  0  0  0  0  0  0  0
    4.9161   -2.9878    0.0000 H   0  0  0  0  0  0  0  0  0  0  0  0
    5.6496   -3.4682    0.0000 H   0  0  0  0  0  0  0  0  0  0  0  0
    7.4036   -1.9011    0.0000 H   0  0  0  0  0  0  0  0  0  0  0  0
    7.0085   -1.1183    0.0000 H   0  0  0  0  0  0  0  0  0  0  0  0
    6.2257   -1.5134    0.0000 H   0  0  0  0  0  0  0  0  0  0  0  0
    1.9088    3.1213    0.0000 H   0  0  0  0  0  0  0  0  0  0  0  0
    1.3940    4.7056    0.0000 H   0  0  0  0  0  0  0  0  0  0  0  0
   10.7120   -2.6638    0.0000 H   0  0  0  0  0  0  0  0  0  0  0  0
    8.5601   -5.7665    0.0000 H   0  0  0  0  0  0  0  0  0  0  0  0
   10.6525   -3.8970    0.0000 H   0  0  0  0  0  0  0  0  0  0  0  0
   10.4233    5.5556    0.0000 H   0  0  0  0  0  0  0  0  0  0  0  0
   10.8980    6.2928    0.0000 H   0  0  0  0  0  0  0  0  0  0  0  0
   10.1608    6.7675    0.0000 H   0  0  0  0  0  0  0  0  0  0  0  0
    9.7090    7.0585    0.0000 H   0  0  0  0  0  0  0  0  0  0  0  0
    8.9718    7.5332    0.0000 H   0  0  0  0  0  0  0  0  0  0  0  0
    8.4971    6.7960    0.0000 H   0  0  0  0  0  0  0  0  0  0  0  0
    8.9205    4.8413    0.0000 H   0  0  0  0  0  0  0  0  0  0  0  0
    9.6577    4.3666    0.0000 H   0  0  0  0  0  0  0  0  0  0  0  0
   10.1324    5.1038    0.0000 H   0  0  0  0  0  0  0  0  0  0  0  0
    9.6394   -6.9746    0.0000 H   0  0  0  0  0  0  0  0  0  0  0  0
   11.7318   -5.1051    0.0000 H   0  0  0  0  0  0  0  0  0  0  0  0
   11.0161   -7.3403    0.0000 H   0  0  0  0  0  0  0  0  0  0  0  0
   11.8915   -7.3896    0.0000 H   0  0  0  0  0  0  0  0  0  0  0  0
   11.9408   -6.5142    0.0000 H   0  0  0  0  0  0  0  0  0  0  0  0
  1  5  2  0  0  0  0
  1  6  2  0  0  0  0
  1  9  1  0  0  0  0
  1 31  1  0  0  0  0
  2 28  1  0  0  0  0
  2 34  1  0  0  0  0
  3 26  1  0  0  0  0
  3 77  1  0  0  0  0
  4 22  2  0  0  0  0
  7 28  2  0  0  0  0
  8 12  1  0  0  0  0
  8 17  1  0  0  0  0
  8 28  1  0  0  0  0
 15  9  1  1  0  0  0
  9 21  1  0  0  0  0
 10 16  1  0  0  0  0
 10 23  1  0  0  0  0
 10 58  1  0  0  0  0
 11 22  1  0  0  0  0
 11 27  1  0  0  0  0
 11 66  1  0  0  0  0
 12 13  1  0  0  0  0
 12 22  1  6  0  0  0
 12 46  1  0  0  0  0
 13 14  1  0  0  0  0
 13 47  1  0  0  0  0
 13 48  1  0  0  0  0
 14 16  2  0  0  0  0
 14 19  1  0  0  0  0
 15 18  1  0  0  0  0
 15 26  1  0  0  0  0
 15 49  1  0  0  0  0
 16 17  1  0  0  0  0
 17 50  1  0  0  0  0
 17 51  1  0  0  0  0
 18 20  1  0  0  0  0
 18 52  1  0  0  0  0
 18 53  1  0  0  0  0
 19 23  1  0  0  0  0
 19 29  2  0  0  0  0
 20 24  1  0  0  0  0
 20 54  1  0  0  0  0
 20 55  1  0  0  0  0
 21 25  1  0  0  0  0
 21 56  1  0  0  0  0
 21 57  1  0  0  0  0
 23 30  2  0  0  0  0
 24 27  1  0  0  0  0
 24 59  1  0  0  0  0
 24 60  1  0  0  0  0
 25 32  1  0  0  0  0
 25 33  1  0  0  0  0
 25 61  1  0  0  0  0
 26 62  1  0  0  0  0
 26 63  1  0  0  0  0
 27 64  1  0  0  0  0
 27 65  1  0  0  0  0
 29 35  1  0  0  0  0
 29 67  1  0  0  0  0
 30 36  1  0  0  0  0
 30 68  1  0  0  0  0
 31 37  2  0  0  0  0
 31 38  1  0  0  0  0
 32 69  1  0  0  0  0
 32 70  1  0  0  0  0
 32 71  1  0  0  0  0
 33 72  1  0  0  0  0
 33 73  1  0  0  0  0
 33 74  1  0  0  0  0
 34 39  1  0  0  0  0
 34 40  1  0  0  0  0
 34 41  1  0  0  0  0
 35 36  2  0  0  0  0
 35 75  1  0  0  0  0
 36 76  1  0  0  0  0
 37 42  1  0  0  0  0
 37 78  1  0  0  0  0
 38 43  2  0  0  0  0
 38 79  1  0  0  0  0
 39 80  1  0  0  0  0
 39 81  1  0  0  0  0
 39 82  1  0  0  0  0
 40 83  1  0  0  0  0
 40 84  1  0  0  0  0
 40 85  1  0  0  0  0
 41 86  1  0  0  0  0
 41 87  1  0  0  0  0
 41 88  1  0  0  0  0
 42 44  2  0  0  0  0
 42 89  1  0  0  0  0
 43 44  1  0  0  0  0
 43 90  1  0  0  0  0
 44 45  1  0  0  0  0
 45 91  1  0  0  0  0
 45 92  1  0  0  0  0
 45 93  1  0  0  0  0
M  END
> <PUBCHEM_COMPOUND_CID>
508663
> <PUBCHEM_COMPOUND_CANONICALIZED>
1
> <PUBCHEM_CACTVS_COMPLEXITY>
1080
> <PUBCHEM_CACTVS_HBOND_ACCEPTOR>
7
> <PUBCHEM_CACTVS_HBOND_DONOR>
3
> <PUBCHEM_CACTVS_ROTATABLE_BOND>
14
> <PUBCHEM_CACTVS_SUBSKEYS>
AAADcfB/uABAAAAAAAAAAAAAAAAAAWAAAAA8YIAAAAAAAFgB9AAAHgQQSAAADWzh3gYyyfPJlgKoAyVyXHDCgDAhAiAImbm4ZJgKcPLAkbGcYAhklgDYyAeYycCekAAAAAACAAAgAAAAAAQAAAAAAAAAAA==
> <PUBCHEM_IUPAC_OPENEYE_NAME>
tert-butyl (3S)-3-[[(5S)-6-hydroxy-5-[isobutyl(p-tolylsulfonyl)amino]hexyl]carbamoyl]-1,3,4,9-tetrahydropyrido[3,4-b]indole-2-carboxylate
> <PUBCHEM_IUPAC_CAS_NAME>
(3S)-3-[[[(5S)-6-hydroxy-5-[(4-methylphenyl)sulfonyl-(2-methylpropyl)amino]hexyl]amino]-oxomethyl]-1,3,4,9-tetrahydropyrido[3,4-b]indole-2-carboxylic acid tert-butyl ester
> <PUBCHEM_IUPAC_NAME_MARKUP>
<I>tert</I>-butyl (3<I>S</I>)-3-[[(5<I>S</I>)-6-hydroxy-5-[(4-methylphenyl)sulfonyl-(2-methylpropyl)amino]hexyl]carbamoyl]-1,3,4,9-tetrahydropyrido[3,4-b]indole-2-carboxylate
> <PUBCHEM_IUPAC_NAME>
tert-butyl (3S)-3-[[(5S)-6-hydroxy-5-[(4-methylphenyl)sulfonyl-(2-methylpropyl)amino]hexyl]carbamoyl]-1,3,4,9-tetrahydropyrido[3,4-b]indole-2-carboxylate
> <PUBCHEM_IUPAC_SYSTEMATIC_NAME>
tert-butyl (3S)-3-[[(5S)-5-[(4-methylphenyl)sulfonyl-(2-methylpropyl)amino]-6-oxidanyl-hexyl]carbamoyl]-1,3,4,9-tetrahydropyrido[3,4-b]indole-2-carboxylate
> <PUBCHEM_IUPAC_TRADITIONAL_NAME>
(3S)-3-[[(5S)-6-hydroxy-5-[isobutyl(tosyl)amino]hexyl]carbamoyl]-1,3,4,9-tetrahydro-beta-carboline-2-carboxylic acid tert-butyl ester
> <PUBCHEM_IUPAC_INCHI>
InChI=1S/C34H48N4O6S/c1-23(2)20-38(45(42,43)26-16-14-24(3)15-17-26)25(22-39)11-9-10-18-35-32(40)31-19-28-27-12-7-8-13-29(27)36-30(28)21-37(31)33(41)44-34(4,5)6/h7-8,12-17,23,25,31,36,39H,9-11,18-22H2,1-6H3,(H,35,40)/t25-,31-/m0/s1
> <PUBCHEM_IUPAC_INCHIKEY>
TYRSRWHOJJZTHR-FKAPRUDGSA-N
> <PUBCHEM_XLOGP3_AA>
5.2
> <PUBCHEM_EXACT_MASS>
640.32945644
> <PUBCHEM_MOLECULAR_FORMULA>
C34H48N4O6S
> <PUBCHEM_MOLECULAR_WEIGHT>
640.8
> <PUBCHEM_OPENEYE_CAN_SMILES>
CC1=CC=C(C=C1)S(=O)(=O)N(CC(C)C)C(CCCCNC(=O)C2CC3=C(CN2C(=O)OC(C)(C)C)NC4=CC=CC=C34)CO
> <PUBCHEM_OPENEYE_ISO_SMILES>
CC1=CC=C(C=C1)S(=O)(=O)N(CC(C)C)[C@@H](CCCCNC(=O)[C@@H]2CC3=C(CN2C(=O)OC(C)(C)C)NC4=CC=CC=C34)CO
> <PUBCHEM_CACTVS_TPSA>
140
> <PUBCHEM_MONOISOTOPIC_WEIGHT>
640.32945644
> <PUBCHEM_TOTAL_CHARGE>
0
> <PUBCHEM_HEAVY_ATOM_COUNT>
45
> <PUBCHEM_ATOM_DEF_STEREO_COUNT>
2
> <PUBCHEM_ATOM_UDEF_STEREO_COUNT>
0
> <PUBCHEM_BOND_DEF_STEREO_COUNT>
0
> <PUBCHEM_BOND_UDEF_STEREO_COUNT>
0
> <PUBCHEM_ISOTOPIC_ATOM_COUNT>
0
> <PUBCHEM_COMPONENT_COUNT>
1
> <PUBCHEM_CACTVS_TAUTO_COUNT>
-1
> <PUBCHEM_COORDINATE_TYPE>
1
5
255
> <PUBCHEM_BONDANNOTATIONS>
10  16  8
10  23  8
12  22  6
14  16  8
14  19  8
19  23  8
19  29  8
23  30  8
29  35  8
30  36  8
31  37  8
31  38  8
35  36  8
37  42  8
38  43  8
42  44  8
43  44  8
15  9  5
$$$$
