508628
  -OEChem-10302200282D
 80 81  0     1  0  0  0  0  0999 V2000
    5.4641   -0.4400    0.0000 S   0  0  0  0  0  0  0  0  0  0  0  0
    4.9641    0.4260    0.0000 O   0  0  0  0  0  0  0  0  0  0  0  0
    5.9641   -1.3060    0.0000 O   0  0  0  0  0  0  0  0  0  0  0  0
    8.0622   -1.9400    0.0000 O   0  0  0  0  0  0  0  0  0  0  0  0
    6.3301   -1.9400    0.0000 O   0  0  0  0  0  0  0  0  0  0  0  0
   12.3923   -1.4400    0.0000 O   0  0  0  0  0  0  0  0  0  0  0  0
   16.7224    1.0600    0.0000 O   0  0  0  0  0  0  0  0  0  0  0  0
   18.4545    0.0600    0.0000 O   0  0  0  0  0  0  0  0  0  0  0  0
    6.3301    0.0600    0.0000 N   0  0  3  0  0  0  0  0  0  0  0  0
   11.5263    0.0600    0.0000 N   0  0  0  0  0  0  0  0  0  0  0  0
   14.1244   -0.4400    0.0000 N   0  0  0  0  0  0  0  0  0  0  0  0
    7.1962   -0.4400    0.0000 C   0  0  1  0  0  0  0  0  0  0  0  0
    6.3301    1.0600    0.0000 C   0  0  0  0  0  0  0  0  0  0  0  0
    8.0622    0.0600    0.0000 C   0  0  0  0  0  0  0  0  0  0  0  0
    7.1962    1.5600    0.0000 C   0  0  0  0  0  0  0  0  0  0  0  0
    8.9282   -0.4400    0.0000 C   0  0  0  0  0  0  0  0  0  0  0  0
    9.7942    0.0600    0.0000 C   0  0  0  0  0  0  0  0  0  0  0  0
    7.1962   -1.4400    0.0000 C   0  0  0  0  0  0  0  0  0  0  0  0
    4.5981   -0.9400    0.0000 C   0  0  0  0  0  0  0  0  0  0  0  0
    7.1962    2.5600    0.0000 C   0  0  0  0  0  0  0  0  0  0  0  0
    8.0622    1.0600    0.0000 C   0  0  0  0  0  0  0  0  0  0  0  0
   10.6603   -0.4400    0.0000 C   0  0  0  0  0  0  0  0  0  0  0  0
    3.7320   -0.4400    0.0000 C   0  0  0  0  0  0  0  0  0  0  0  0
    4.5981   -1.9400    0.0000 C   0  0  0  0  0  0  0  0  0  0  0  0
    2.8660   -0.9400    0.0000 C   0  0  0  0  0  0  0  0  0  0  0  0
    3.7320   -2.4400    0.0000 C   0  0  0  0  0  0  0  0  0  0  0  0
    2.8660   -1.9400    0.0000 C   0  0  0  0  0  0  0  0  0  0  0  0
   12.3923   -0.4400    0.0000 C   0  0  0  0  0  0  0  0  0  0  0  0
   13.2583    0.0600    0.0000 C   0  0  0  0  0  0  0  0  0  0  0  0
    2.0000   -2.4400    0.0000 C   0  0  0  0  0  0  0  0  0  0  0  0
   14.9904    0.0600    0.0000 C   0  0  0  0  0  0  0  0  0  0  0  0
   15.8564   -0.4400    0.0000 C   0  0  0  0  0  0  0  0  0  0  0  0
   16.7224    0.0600    0.0000 C   0  0  0  0  0  0  0  0  0  0  0  0
   15.8564   -1.4400    0.0000 C   0  0  0  0  0  0  0  0  0  0  0  0
   17.5885   -0.4400    0.0000 C   0  0  0  0  0  0  0  0  0  0  0  0
   16.7224   -1.9400    0.0000 C   0  0  0  0  0  0  0  0  0  0  0  0
   17.5885   -1.4400    0.0000 C   0  0  0  0  0  0  0  0  0  0  0  0
   17.5885    1.5600    0.0000 C   0  0  0  0  0  0  0  0  0  0  0  0
   19.3205   -0.4400    0.0000 C   0  0  0  0  0  0  0  0  0  0  0  0
    6.6592   -0.7500    0.0000 H   0  0  0  0  0  0  0  0  0  0  0  0
    6.1181    1.6426    0.0000 H   0  0  0  0  0  0  0  0  0  0  0  0
    5.7196    0.9523    0.0000 H   0  0  0  0  0  0  0  0  0  0  0  0
    8.4607    0.5349    0.0000 H   0  0  0  0  0  0  0  0  0  0  0  0
    7.6636    0.5349    0.0000 H   0  0  0  0  0  0  0  0  0  0  0  0
    6.6592    1.8700    0.0000 H   0  0  0  0  0  0  0  0  0  0  0  0
    8.5297   -0.9149    0.0000 H   0  0  0  0  0  0  0  0  0  0  0  0
    9.3267   -0.9149    0.0000 H   0  0  0  0  0  0  0  0  0  0  0  0
   10.1928    0.5349    0.0000 H   0  0  0  0  0  0  0  0  0  0  0  0
    9.3957    0.5349    0.0000 H   0  0  0  0  0  0  0  0  0  0  0  0
    7.8162    2.5600    0.0000 H   0  0  0  0  0  0  0  0  0  0  0  0
    7.1962    3.1800    0.0000 H   0  0  0  0  0  0  0  0  0  0  0  0
    6.5762    2.5600    0.0000 H   0  0  0  0  0  0  0  0  0  0  0  0
    7.7522    0.5231    0.0000 H   0  0  0  0  0  0  0  0  0  0  0  0
    8.5991    0.7500    0.0000 H   0  0  0  0  0  0  0  0  0  0  0  0
    8.3722    1.5969    0.0000 H   0  0  0  0  0  0  0  0  0  0  0  0
   10.2617   -0.9149    0.0000 H   0  0  0  0  0  0  0  0  0  0  0  0
   11.0588   -0.9149    0.0000 H   0  0  0  0  0  0  0  0  0  0  0  0
    3.7320    0.1800    0.0000 H   0  0  0  0  0  0  0  0  0  0  0  0
    5.1350   -2.2500    0.0000 H   0  0  0  0  0  0  0  0  0  0  0  0
   11.5263    0.6800    0.0000 H   0  0  0  0  0  0  0  0  0  0  0  0
    8.0622   -2.5600    0.0000 H   0  0  0  0  0  0  0  0  0  0  0  0
    2.3291   -0.6300    0.0000 H   0  0  0  0  0  0  0  0  0  0  0  0
    3.7320   -3.0600    0.0000 H   0  0  0  0  0  0  0  0  0  0  0  0
   13.6569    0.5349    0.0000 H   0  0  0  0  0  0  0  0  0  0  0  0
   12.8598    0.5349    0.0000 H   0  0  0  0  0  0  0  0  0  0  0  0
    1.6900   -1.9031    0.0000 H   0  0  0  0  0  0  0  0  0  0  0  0
    1.4631   -2.7500    0.0000 H   0  0  0  0  0  0  0  0  0  0  0  0
    2.3100   -2.9769    0.0000 H   0  0  0  0  0  0  0  0  0  0  0  0
   14.1244   -1.0600    0.0000 H   0  0  0  0  0  0  0  0  0  0  0  0
   15.3889    0.5349    0.0000 H   0  0  0  0  0  0  0  0  0  0  0  0
   14.5919    0.5349    0.0000 H   0  0  0  0  0  0  0  0  0  0  0  0
   15.3195   -1.7500    0.0000 H   0  0  0  0  0  0  0  0  0  0  0  0
   16.7224   -2.5600    0.0000 H   0  0  0  0  0  0  0  0  0  0  0  0
   18.1254   -1.7500    0.0000 H   0  0  0  0  0  0  0  0  0  0  0  0
   17.8985    1.0231    0.0000 H   0  0  0  0  0  0  0  0  0  0  0  0
   18.1254    1.8700    0.0000 H   0  0  0  0  0  0  0  0  0  0  0  0
   17.2785    2.0969    0.0000 H   0  0  0  0  0  0  0  0  0  0  0  0
   19.0105   -0.9769    0.0000 H   0  0  0  0  0  0  0  0  0  0  0  0
   19.8574   -0.7500    0.0000 H   0  0  0  0  0  0  0  0  0  0  0  0
   19.6305    0.0969    0.0000 H   0  0  0  0  0  0  0  0  0  0  0  0
  1  2  2  0  0  0  0
  1  3  2  0  0  0  0
  1  9  1  0  0  0  0
  1 19  1  0  0  0  0
  4 18  1  0  0  0  0
  4 61  1  0  0  0  0
  5 18  2  0  0  0  0
  6 28  2  0  0  0  0
  7 33  1  0  0  0  0
  7 38  1  0  0  0  0
  8 35  1  0  0  0  0
  8 39  1  0  0  0  0
 12  9  1  1  0  0  0
  9 13  1  0  0  0  0
 10 22  1  0  0  0  0
 10 28  1  0  0  0  0
 10 60  1  0  0  0  0
 11 29  1  0  0  0  0
 11 31  1  0  0  0  0
 11 69  1  0  0  0  0
 12 14  1  0  0  0  0
 12 18  1  0  0  0  0
 12 40  1  0  0  0  0
 13 15  1  0  0  0  0
 13 41  1  0  0  0  0
 13 42  1  0  0  0  0
 14 16  1  0  0  0  0
 14 43  1  0  0  0  0
 14 44  1  0  0  0  0
 15 20  1  0  0  0  0
 15 21  1  0  0  0  0
 15 45  1  0  0  0  0
 16 17  1  0  0  0  0
 16 46  1  0  0  0  0
 16 47  1  0  0  0  0
 17 22  1  0  0  0  0
 17 48  1  0  0  0  0
 17 49  1  0  0  0  0
 19 23  2  0  0  0  0
 19 24  1  0  0  0  0
 20 50  1  0  0  0  0
 20 51  1  0  0  0  0
 20 52  1  0  0  0  0
 21 53  1  0  0  0  0
 21 54  1  0  0  0  0
 21 55  1  0  0  0  0
 22 56  1  0  0  0  0
 22 57  1  0  0  0  0
 23 25  1  0  0  0  0
 23 58  1  0  0  0  0
 24 26  2  0  0  0  0
 24 59  1  0  0  0  0
 25 27  2  0  0  0  0
 25 62  1  0  0  0  0
 26 27  1  0  0  0  0
 26 63  1  0  0  0  0
 27 30  1  0  0  0  0
 28 29  1  0  0  0  0
 29 64  1  0  0  0  0
 29 65  1  0  0  0  0
 30 66  1  0  0  0  0
 30 67  1  0  0  0  0
 30 68  1  0  0  0  0
 31 32  1  0  0  0  0
 31 70  1  0  0  0  0
 31 71  1  0  0  0  0
 32 33  2  0  0  0  0
 32 34  1  0  0  0  0
 33 35  1  0  0  0  0
 34 36  2  0  0  0  0
 34 72  1  0  0  0  0
 35 37  2  0  0  0  0
 36 37  1  0  0  0  0
 36 73  1  0  0  0  0
 37 74  1  0  0  0  0
 38 75  1  0  0  0  0
 38 76  1  0  0  0  0
 38 77  1  0  0  0  0
 39 78  1  0  0  0  0
 39 79  1  0  0  0  0
 39 80  1  0  0  0  0
M  END
> <PUBCHEM_COMPOUND_CID>
508628
> <PUBCHEM_COMPOUND_CANONICALIZED>
1
> <PUBCHEM_CACTVS_COMPLEXITY>
841
> <PUBCHEM_CACTVS_HBOND_ACCEPTOR>
9
> <PUBCHEM_CACTVS_HBOND_DONOR>
3
> <PUBCHEM_CACTVS_ROTATABLE_BOND>
17
> <PUBCHEM_CACTVS_SUBSKEYS>
AAADcfB7OABAAAAAAAAAAAAAAAAAAAAAAAAwYAAAAAAAAAABQAAAHgQQSAAADSzB2AYyD4LABgKIAiHSGHDCCBAgIAAIiJmOjIgPZjKEsTuUcCpm1hGaqAe4yDAOEAABAAAIQAAgAAIAABCAAAAAAAAAAA==
> <PUBCHEM_IUPAC_OPENEYE_NAME>
(2S)-6-[[2-[(2,3-dimethoxyphenyl)methylamino]acetyl]amino]-2-[isobutyl(p-tolylsulfonyl)amino]hexanoic acid
> <PUBCHEM_IUPAC_CAS_NAME>
(2S)-6-[[2-[(2,3-dimethoxyphenyl)methylamino]-1-oxoethyl]amino]-2-[(4-methylphenyl)sulfonyl-(2-methylpropyl)amino]hexanoic acid
> <PUBCHEM_IUPAC_NAME_MARKUP>
(2<I>S</I>)-6-[[2-[(2,3-dimethoxyphenyl)methylamino]acetyl]amino]-2-[(4-methylphenyl)sulfonyl-(2-methylpropyl)amino]hexanoic acid
> <PUBCHEM_IUPAC_NAME>
(2S)-6-[[2-[(2,3-dimethoxyphenyl)methylamino]acetyl]amino]-2-[(4-methylphenyl)sulfonyl-(2-methylpropyl)amino]hexanoic acid
> <PUBCHEM_IUPAC_SYSTEMATIC_NAME>
(2S)-6-[2-[(2,3-dimethoxyphenyl)methylamino]ethanoylamino]-2-[(4-methylphenyl)sulfonyl-(2-methylpropyl)amino]hexanoic acid
> <PUBCHEM_IUPAC_TRADITIONAL_NAME>
(2S)-2-[isobutyl(tosyl)amino]-6-[[2-(o-veratrylamino)acetyl]amino]hexanoic acid
> <PUBCHEM_IUPAC_INCHI>
InChI=1S/C28H41N3O7S/c1-20(2)19-31(39(35,36)23-14-12-21(3)13-15-23)24(28(33)34)10-6-7-16-30-26(32)18-29-17-22-9-8-11-25(37-4)27(22)38-5/h8-9,11-15,20,24,29H,6-7,10,16-19H2,1-5H3,(H,30,32)(H,33,34)/t24-/m0/s1
> <PUBCHEM_IUPAC_INCHIKEY>
SUNQWHFJNJJFDL-DEOSSOPVSA-N
> <PUBCHEM_XLOGP3_AA>
1.5
> <PUBCHEM_EXACT_MASS>
563.26652183
> <PUBCHEM_MOLECULAR_FORMULA>
C28H41N3O7S
> <PUBCHEM_MOLECULAR_WEIGHT>
563.7
> <PUBCHEM_OPENEYE_CAN_SMILES>
CC1=CC=C(C=C1)S(=O)(=O)N(CC(C)C)C(CCCCNC(=O)CNCC2=C(C(=CC=C2)OC)OC)C(=O)O
> <PUBCHEM_OPENEYE_ISO_SMILES>
CC1=CC=C(C=C1)S(=O)(=O)N(CC(C)C)[C@@H](CCCCNC(=O)CNCC2=C(C(=CC=C2)OC)OC)C(=O)O
> <PUBCHEM_CACTVS_TPSA>
143
> <PUBCHEM_MONOISOTOPIC_WEIGHT>
563.26652183
> <PUBCHEM_TOTAL_CHARGE>
0
> <PUBCHEM_HEAVY_ATOM_COUNT>
39
> <PUBCHEM_ATOM_DEF_STEREO_COUNT>
1
> <PUBCHEM_ATOM_UDEF_STEREO_COUNT>
0
> <PUBCHEM_BOND_DEF_STEREO_COUNT>
0
> <PUBCHEM_BOND_UDEF_STEREO_COUNT>
0
> <PUBCHEM_ISOTOPIC_ATOM_COUNT>
0
> <PUBCHEM_COMPONENT_COUNT>
1
> <PUBCHEM_CACTVS_TAUTO_COUNT>
-1
> <PUBCHEM_COORDINATE_TYPE>
1
5
255
> <PUBCHEM_BONDANNOTATIONS>
19  23  8
19  24  8
23  25  8
24  26  8
25  27  8
26  27  8
32  33  8
32  34  8
33  35  8
34  36  8
35  37  8
36  37  8
12  9  5
$$$$
