508669
  -OEChem-10302200282D
 78 80  0     1  0  0  0  0  0999 V2000
   11.4348    2.4623    0.0000 S   0  0  0  0  0  0  0  0  0  0  0  0
    8.4993    1.8437    0.0000 O   0  0  0  0  0  0  0  0  0  0  0  0
   12.3853    2.1517    0.0000 O   0  0  0  0  0  0  0  0  0  0  0  0
   10.4843    2.7730    0.0000 O   0  0  0  0  0  0  0  0  0  0  0  0
    5.6103   -1.4203    0.0000 O   0  0  0  0  0  0  0  0  0  0  0  0
   12.6774    6.2644    0.0000 O   0  0  0  0  0  0  0  0  0  0  0  0
   11.1241    1.5118    0.0000 N   0  0  3  0  0  0  0  0  0  0  0  0
    7.2566   -1.9584    0.0000 N   0  0  0  0  0  0  0  0  0  0  0  0
    6.6353   -3.8594    0.0000 N   0  0  0  0  0  0  0  0  0  0  0  0
    4.6783   -5.8813    0.0000 N   0  0  0  0  0  0  0  0  0  0  0  0
   10.1456    1.3056    0.0000 C   0  0  1  0  0  0  0  0  0  0  0  0
    9.8349    0.3551    0.0000 C   0  0  0  0  0  0  0  0  0  0  0  0
   11.7920    0.7675    0.0000 C   0  0  0  0  0  0  0  0  0  0  0  0
    8.8564    0.1489    0.0000 C   0  0  0  0  0  0  0  0  0  0  0  0
   11.4813   -0.1830    0.0000 C   0  0  0  0  0  0  0  0  0  0  0  0
    9.4778    2.0499    0.0000 C   0  0  0  0  0  0  0  0  0  0  0  0
    8.5458   -0.8016    0.0000 C   0  0  0  0  0  0  0  0  0  0  0  0
   11.7454    3.4129    0.0000 C   0  0  0  0  0  0  0  0  0  0  0  0
   12.1491   -0.9273    0.0000 C   0  0  0  0  0  0  0  0  0  0  0  0
   10.5028   -0.3892    0.0000 C   0  0  0  0  0  0  0  0  0  0  0  0
    7.5673   -1.0079    0.0000 C   0  0  0  0  0  0  0  0  0  0  0  0
   12.7239    3.6191    0.0000 C   0  0  0  0  0  0  0  0  0  0  0  0
   11.0776    4.1572    0.0000 C   0  0  0  0  0  0  0  0  0  0  0  0
    5.9674   -3.1151    0.0000 C   0  0  1  0  0  0  0  0  0  0  0  0
    4.9889   -3.3213    0.0000 C   0  0  0  0  0  0  0  0  0  0  0  0
    6.2781   -2.1646    0.0000 C   0  0  0  0  0  0  0  0  0  0  0  0
    4.6783   -4.2719    0.0000 C   0  0  0  0  0  0  0  0  0  0  0  0
   13.0346    4.5696    0.0000 C   0  0  0  0  0  0  0  0  0  0  0  0
   11.3883    5.1077    0.0000 C   0  0  0  0  0  0  0  0  0  0  0  0
    3.7320   -4.5766    0.0000 C   0  0  0  0  0  0  0  0  0  0  0  0
   12.3668    5.3139    0.0000 C   0  0  0  0  0  0  0  0  0  0  0  0
    3.7320   -5.5766    0.0000 C   0  0  0  0  0  0  0  0  0  0  0  0
    5.2619   -5.0766    0.0000 C   0  0  0  0  0  0  0  0  0  0  0  0
    2.8660   -4.0766    0.0000 C   0  0  0  0  0  0  0  0  0  0  0  0
    2.8660   -6.0766    0.0000 C   0  0  0  0  0  0  0  0  0  0  0  0
    2.0000   -4.5766    0.0000 C   0  0  0  0  0  0  0  0  0  0  0  0
    2.0000   -5.5766    0.0000 C   0  0  0  0  0  0  0  0  0  0  0  0
   13.6559    6.4706    0.0000 C   0  0  0  0  0  0  0  0  0  0  0  0
   10.3382    1.8949    0.0000 H   0  0  0  0  0  0  0  0  0  0  0  0
    9.8555   -0.2646    0.0000 H   0  0  0  0  0  0  0  0  0  0  0  0
   10.4488    0.2677    0.0000 H   0  0  0  0  0  0  0  0  0  0  0  0
   12.3389    0.4755    0.0000 H   0  0  0  0  0  0  0  0  0  0  0  0
   12.1745    1.2554    0.0000 H   0  0  0  0  0  0  0  0  0  0  0  0
    8.8359    0.7685    0.0000 H   0  0  0  0  0  0  0  0  0  0  0  0
    8.2426    0.2362    0.0000 H   0  0  0  0  0  0  0  0  0  0  0  0
   11.0672    0.2785    0.0000 H   0  0  0  0  0  0  0  0  0  0  0  0
   10.0041    2.3776    0.0000 H   0  0  0  0  0  0  0  0  0  0  0  0
    9.2465    2.6252    0.0000 H   0  0  0  0  0  0  0  0  0  0  0  0
    8.5663   -1.4213    0.0000 H   0  0  0  0  0  0  0  0  0  0  0  0
    9.1596   -0.8890    0.0000 H   0  0  0  0  0  0  0  0  0  0  0  0
   11.6877   -1.3414    0.0000 H   0  0  0  0  0  0  0  0  0  0  0  0
   12.5632   -1.3888    0.0000 H   0  0  0  0  0  0  0  0  0  0  0  0
   12.6106   -0.5132    0.0000 H   0  0  0  0  0  0  0  0  0  0  0  0
   10.3749    0.2175    0.0000 H   0  0  0  0  0  0  0  0  0  0  0  0
    9.8961   -0.5171    0.0000 H   0  0  0  0  0  0  0  0  0  0  0  0
   10.6306   -0.9959    0.0000 H   0  0  0  0  0  0  0  0  0  0  0  0
    7.5467   -0.3882    0.0000 H   0  0  0  0  0  0  0  0  0  0  0  0
    6.9534   -0.9205    0.0000 H   0  0  0  0  0  0  0  0  0  0  0  0
    8.0852    2.3052    0.0000 H   0  0  0  0  0  0  0  0  0  0  0  0
    7.6707   -2.4198    0.0000 H   0  0  0  0  0  0  0  0  0  0  0  0
   13.1380    3.1576    0.0000 H   0  0  0  0  0  0  0  0  0  0  0  0
   10.4709    4.0293    0.0000 H   0  0  0  0  0  0  0  0  0  0  0  0
    5.7748   -3.7044    0.0000 H   0  0  0  0  0  0  0  0  0  0  0  0
    4.9684   -2.7017    0.0000 H   0  0  0  0  0  0  0  0  0  0  0  0
    4.3751   -3.2340    0.0000 H   0  0  0  0  0  0  0  0  0  0  0  0
   13.6413    4.6975    0.0000 H   0  0  0  0  0  0  0  0  0  0  0  0
   10.9742    5.5692    0.0000 H   0  0  0  0  0  0  0  0  0  0  0  0
    5.8819   -5.0766    0.0000 H   0  0  0  0  0  0  0  0  0  0  0  0
    7.2420   -3.7316    0.0000 H   0  0  0  0  0  0  0  0  0  0  0  0
    6.4427   -4.4488    0.0000 H   0  0  0  0  0  0  0  0  0  0  0  0
    4.8709   -6.4706    0.0000 H   0  0  0  0  0  0  0  0  0  0  0  0
    2.8660   -3.4566    0.0000 H   0  0  0  0  0  0  0  0  0  0  0  0
    2.8660   -6.6966    0.0000 H   0  0  0  0  0  0  0  0  0  0  0  0
    1.4631   -4.2666    0.0000 H   0  0  0  0  0  0  0  0  0  0  0  0
    1.4631   -5.8866    0.0000 H   0  0  0  0  0  0  0  0  0  0  0  0
   13.7838    5.8640    0.0000 H   0  0  0  0  0  0  0  0  0  0  0  0
   14.2626    6.5985    0.0000 H   0  0  0  0  0  0  0  0  0  0  0  0
   13.5281    7.0773    0.0000 H   0  0  0  0  0  0  0  0  0  0  0  0
  1  3  2  0  0  0  0
  1  4  2  0  0  0  0
  1  7  1  0  0  0  0
  1 18  1  0  0  0  0
  2 16  1  0  0  0  0
  2 59  1  0  0  0  0
  5 26  2  0  0  0  0
  6 31  1  0  0  0  0
  6 38  1  0  0  0  0
 11  7  1  1  0  0  0
  7 13  1  0  0  0  0
  8 21  1  0  0  0  0
  8 26  1  0  0  0  0
  8 60  1  0  0  0  0
 24  9  1  1  0  0  0
  9 69  1  0  0  0  0
  9 70  1  0  0  0  0
 10 32  1  0  0  0  0
 10 33  1  0  0  0  0
 10 71  1  0  0  0  0
 11 12  1  0  0  0  0
 11 16  1  0  0  0  0
 11 39  1  0  0  0  0
 12 14  1  0  0  0  0
 12 40  1  0  0  0  0
 12 41  1  0  0  0  0
 13 15  1  0  0  0  0
 13 42  1  0  0  0  0
 13 43  1  0  0  0  0
 14 17  1  0  0  0  0
 14 44  1  0  0  0  0
 14 45  1  0  0  0  0
 15 19  1  0  0  0  0
 15 20  1  0  0  0  0
 15 46  1  0  0  0  0
 16 47  1  0  0  0  0
 16 48  1  0  0  0  0
 17 21  1  0  0  0  0
 17 49  1  0  0  0  0
 17 50  1  0  0  0  0
 18 22  2  0  0  0  0
 18 23  1  0  0  0  0
 19 51  1  0  0  0  0
 19 52  1  0  0  0  0
 19 53  1  0  0  0  0
 20 54  1  0  0  0  0
 20 55  1  0  0  0  0
 20 56  1  0  0  0  0
 21 57  1  0  0  0  0
 21 58  1  0  0  0  0
 22 28  1  0  0  0  0
 22 61  1  0  0  0  0
 23 29  2  0  0  0  0
 23 62  1  0  0  0  0
 24 25  1  0  0  0  0
 24 26  1  0  0  0  0
 24 63  1  0  0  0  0
 25 27  1  0  0  0  0
 25 64  1  0  0  0  0
 25 65  1  0  0  0  0
 27 30  1  0  0  0  0
 27 33  2  0  0  0  0
 28 31  2  0  0  0  0
 28 66  1  0  0  0  0
 29 31  1  0  0  0  0
 29 67  1  0  0  0  0
 30 32  1  0  0  0  0
 30 34  2  0  0  0  0
 32 35  2  0  0  0  0
 33 68  1  0  0  0  0
 34 36  1  0  0  0  0
 34 72  1  0  0  0  0
 35 37  1  0  0  0  0
 35 73  1  0  0  0  0
 36 37  2  0  0  0  0
 36 74  1  0  0  0  0
 37 75  1  0  0  0  0
 38 76  1  0  0  0  0
 38 77  1  0  0  0  0
 38 78  1  0  0  0  0
M  END
> <PUBCHEM_COMPOUND_CID>
508669
> <PUBCHEM_COMPOUND_CANONICALIZED>
1
> <PUBCHEM_CACTVS_COMPLEXITY>
813
> <PUBCHEM_CACTVS_HBOND_ACCEPTOR>
7
> <PUBCHEM_CACTVS_HBOND_DONOR>
4
> <PUBCHEM_CACTVS_ROTATABLE_BOND>
15
> <PUBCHEM_CACTVS_SUBSKEYS>
AAADcfB7uABAAAAAAAAAAAAAAAAAAWAAAAAwYAAAAAAAAFgB9AAAHgQQSAAADSzh3gY+x/LJlgKoAzV3VHDCiDAxIiAI2bm+bJgOdvLEsZuUcChk1hHY6AeYycCOgIAAAAACAAABAAAAAAQAAAAAAAAAAA==
> <PUBCHEM_IUPAC_OPENEYE_NAME>
(2S)-2-amino-N-[(5S)-6-hydroxy-5-[isobutyl-(4-methoxyphenyl)sulfonyl-amino]hexyl]-3-(1H-indol-3-yl)propanamide
> <PUBCHEM_IUPAC_CAS_NAME>
(2S)-2-amino-N-[(5S)-6-hydroxy-5-[(4-methoxyphenyl)sulfonyl-(2-methylpropyl)amino]hexyl]-3-(1H-indol-3-yl)propanamide
> <PUBCHEM_IUPAC_NAME_MARKUP>
(2<I>S</I>)-2-amino-<I>N</I>-[(5<I>S</I>)-6-hydroxy-5-[(4-methoxyphenyl)sulfonyl-(2-methylpropyl)amino]hexyl]-3-(1<I>H</I>-indol-3-yl)propanamide
> <PUBCHEM_IUPAC_NAME>
(2S)-2-amino-N-[(5S)-6-hydroxy-5-[(4-methoxyphenyl)sulfonyl-(2-methylpropyl)amino]hexyl]-3-(1H-indol-3-yl)propanamide
> <PUBCHEM_IUPAC_SYSTEMATIC_NAME>
(2S)-2-azanyl-3-(1H-indol-3-yl)-N-[(5S)-5-[(4-methoxyphenyl)sulfonyl-(2-methylpropyl)amino]-6-oxidanyl-hexyl]propanamide
> <PUBCHEM_IUPAC_TRADITIONAL_NAME>
(2S)-2-amino-N-[(5S)-6-hydroxy-5-[isobutyl-(4-methoxyphenyl)sulfonyl-amino]hexyl]-3-(1H-indol-3-yl)propionamide
> <PUBCHEM_IUPAC_INCHI>
InChI=1S/C28H40N4O5S/c1-20(2)18-32(38(35,36)24-13-11-23(37-3)12-14-24)22(19-33)8-6-7-15-30-28(34)26(29)16-21-17-31-27-10-5-4-9-25(21)27/h4-5,9-14,17,20,22,26,31,33H,6-8,15-16,18-19,29H2,1-3H3,(H,30,34)/t22-,26-/m0/s1
> <PUBCHEM_IUPAC_INCHIKEY>
PMOKKXBOXGKFJL-NVQXNPDNSA-N
> <PUBCHEM_XLOGP3_AA>
3.3
> <PUBCHEM_EXACT_MASS>
544.27194156
> <PUBCHEM_MOLECULAR_FORMULA>
C28H40N4O5S
> <PUBCHEM_MOLECULAR_WEIGHT>
544.7
> <PUBCHEM_OPENEYE_CAN_SMILES>
CC(C)CN(C(CCCCNC(=O)C(CC1=CNC2=CC=CC=C21)N)CO)S(=O)(=O)C3=CC=C(C=C3)OC
> <PUBCHEM_OPENEYE_ISO_SMILES>
CC(C)CN([C@@H](CCCCNC(=O)[C@H](CC1=CNC2=CC=CC=C21)N)CO)S(=O)(=O)C3=CC=C(C=C3)OC
> <PUBCHEM_CACTVS_TPSA>
146
> <PUBCHEM_MONOISOTOPIC_WEIGHT>
544.27194156
> <PUBCHEM_TOTAL_CHARGE>
0
> <PUBCHEM_HEAVY_ATOM_COUNT>
38
> <PUBCHEM_ATOM_DEF_STEREO_COUNT>
2
> <PUBCHEM_ATOM_UDEF_STEREO_COUNT>
0
> <PUBCHEM_BOND_DEF_STEREO_COUNT>
0
> <PUBCHEM_BOND_UDEF_STEREO_COUNT>
0
> <PUBCHEM_ISOTOPIC_ATOM_COUNT>
0
> <PUBCHEM_COMPONENT_COUNT>
1
> <PUBCHEM_CACTVS_TAUTO_COUNT>
-1
> <PUBCHEM_COORDINATE_TYPE>
1
5
255
> <PUBCHEM_BONDANNOTATIONS>
10  32  8
10  33  8
18  22  8
18  23  8
22  28  8
23  29  8
27  30  8
27  33  8
28  31  8
29  31  8
30  32  8
30  34  8
32  35  8
34  36  8
35  37  8
36  37  8
11  7  5
24  9  5
$$$$
