508675
  -OEChem-10302200282D
 90 92  0     1  0  0  0  0  0999 V2000
    9.9717    9.1590    0.0000 S   0  0  0  0  0  0  0  0  0  0  0  0
    4.8323   16.1390    0.0000 F   0  0  0  0  0  0  0  0  0  0  0  0
    5.1983   17.5050    0.0000 F   0  0  0  0  0  0  0  0  0  0  0  0
    6.1983   15.7730    0.0000 F   0  0  0  0  0  0  0  0  0  0  0  0
   10.9222    8.8483    0.0000 O   0  0  0  0  0  0  0  0  0  0  0  0
    9.0212    9.4696    0.0000 O   0  0  0  0  0  0  0  0  0  0  0  0
    7.0362    8.5403    0.0000 O   0  0  0  0  0  0  0  0  0  0  0  0
   11.2144   12.9610    0.0000 O   0  0  0  0  0  0  0  0  0  0  0  0
    4.1472    5.2763    0.0000 O   0  0  0  0  0  0  0  0  0  0  0  0
    7.4303   16.6390    0.0000 O   0  0  0  0  0  0  0  0  0  0  0  0
    6.5643   18.1390    0.0000 O   0  0  0  0  0  0  0  0  0  0  0  0
    9.6610    8.2084    0.0000 N   0  0  3  0  0  0  0  0  0  0  0  0
    5.7935    4.7382    0.0000 N   0  0  0  0  0  0  0  0  0  0  0  0
    5.1722    2.8372    0.0000 N   0  0  0  0  0  0  0  0  0  0  0  0
    3.2152    0.8153    0.0000 N   0  0  0  0  0  0  0  0  0  0  0  0
   10.0182    6.5136    0.0000 C   0  0  0  0  0  0  0  0  0  0  0  0
    9.0666    6.2062    0.0000 C   0  0  0  0  0  0  0  0  0  0  0  0
   10.6046    5.7036    0.0000 C   0  0  0  0  0  0  0  0  0  0  0  0
   10.3289    7.4641    0.0000 C   0  0  0  0  0  0  0  0  0  0  0  0
    9.0649    5.2062    0.0000 C   0  0  0  0  0  0  0  0  0  0  0  0
   10.0154    4.8956    0.0000 C   0  0  0  0  0  0  0  0  0  0  0  0
    8.6825    8.0022    0.0000 C   0  0  1  0  0  0  0  0  0  0  0  0
    8.3719    7.0517    0.0000 C   0  0  0  0  0  0  0  0  0  0  0  0
    8.0147    8.7465    0.0000 C   0  0  0  0  0  0  0  0  0  0  0  0
    7.3934    6.8455    0.0000 C   0  0  0  0  0  0  0  0  0  0  0  0
   10.2824   10.1095    0.0000 C   0  0  0  0  0  0  0  0  0  0  0  0
    7.0827    5.8950    0.0000 C   0  0  0  0  0  0  0  0  0  0  0  0
    6.1042    5.6887    0.0000 C   0  0  0  0  0  0  0  0  0  0  0  0
   11.2609   10.3157    0.0000 C   0  0  0  0  0  0  0  0  0  0  0  0
    9.6145   10.8538    0.0000 C   0  0  0  0  0  0  0  0  0  0  0  0
   11.5715   11.2662    0.0000 C   0  0  0  0  0  0  0  0  0  0  0  0
    9.9252   11.8043    0.0000 C   0  0  0  0  0  0  0  0  0  0  0  0
   10.9037   12.0105    0.0000 C   0  0  0  0  0  0  0  0  0  0  0  0
    4.8150    4.5320    0.0000 C   0  0  0  0  0  0  0  0  0  0  0  0
    4.5044    3.5815    0.0000 C   0  0  2  0  0  0  0  0  0  0  0  0
    3.5259    3.3752    0.0000 C   0  0  0  0  0  0  0  0  0  0  0  0
    3.2152    2.4247    0.0000 C   0  0  0  0  0  0  0  0  0  0  0  0
    2.2690    2.1200    0.0000 C   0  0  0  0  0  0  0  0  0  0  0  0
    3.7988    1.6200    0.0000 C   0  0  0  0  0  0  0  0  0  0  0  0
    2.2690    1.1200    0.0000 C   0  0  0  0  0  0  0  0  0  0  0  0
   12.1929   13.1672    0.0000 C   0  0  0  0  0  0  0  0  0  0  0  0
    1.4030    2.6200    0.0000 C   0  0  0  0  0  0  0  0  0  0  0  0
    1.4030    0.6200    0.0000 C   0  0  0  0  0  0  0  0  0  0  0  0
    0.5369    2.1200    0.0000 C   0  0  0  0  0  0  0  0  0  0  0  0
    0.5369    1.1200    0.0000 C   0  0  0  0  0  0  0  0  0  0  0  0
    5.6983   16.6390    0.0000 C   0  0  0  0  0  0  0  0  0  0  0  0
    6.5643   17.1390    0.0000 C   0  0  0  0  0  0  0  0  0  0  0  0
    9.5806    6.9528    0.0000 H   0  0  0  0  0  0  0  0  0  0  0  0
    8.9388    6.8129    0.0000 H   0  0  0  0  0  0  0  0  0  0  0  0
    8.4499    6.1425    0.0000 H   0  0  0  0  0  0  0  0  0  0  0  0
   11.0646    5.2879    0.0000 H   0  0  0  0  0  0  0  0  0  0  0  0
   11.0661    6.1176    0.0000 H   0  0  0  0  0  0  0  0  0  0  0  0
   10.8758    7.1721    0.0000 H   0  0  0  0  0  0  0  0  0  0  0  0
   10.7114    7.9520    0.0000 H   0  0  0  0  0  0  0  0  0  0  0  0
    8.4484    5.2721    0.0000 H   0  0  0  0  0  0  0  0  0  0  0  0
    8.9350    4.6000    0.0000 H   0  0  0  0  0  0  0  0  0  0  0  0
    9.7623    4.3296    0.0000 H   0  0  0  0  0  0  0  0  0  0  0  0
   10.5518    4.5846    0.0000 H   0  0  0  0  0  0  0  0  0  0  0  0
    8.8752    8.5915    0.0000 H   0  0  0  0  0  0  0  0  0  0  0  0
    8.3924    6.4320    0.0000 H   0  0  0  0  0  0  0  0  0  0  0  0
    8.9857    6.9643    0.0000 H   0  0  0  0  0  0  0  0  0  0  0  0
    8.5411    9.0742    0.0000 H   0  0  0  0  0  0  0  0  0  0  0  0
    7.7834    9.3218    0.0000 H   0  0  0  0  0  0  0  0  0  0  0  0
    7.3728    7.4651    0.0000 H   0  0  0  0  0  0  0  0  0  0  0  0
    6.7796    6.9328    0.0000 H   0  0  0  0  0  0  0  0  0  0  0  0
    7.1033    5.2753    0.0000 H   0  0  0  0  0  0  0  0  0  0  0  0
    7.6965    5.8076    0.0000 H   0  0  0  0  0  0  0  0  0  0  0  0
    6.0836    6.3084    0.0000 H   0  0  0  0  0  0  0  0  0  0  0  0
    5.4904    5.7761    0.0000 H   0  0  0  0  0  0  0  0  0  0  0  0
    6.6221    9.0018    0.0000 H   0  0  0  0  0  0  0  0  0  0  0  0
   11.6749    9.8542    0.0000 H   0  0  0  0  0  0  0  0  0  0  0  0
    9.0079   10.7259    0.0000 H   0  0  0  0  0  0  0  0  0  0  0  0
   12.1782   11.3941    0.0000 H   0  0  0  0  0  0  0  0  0  0  0  0
    9.5111   12.2658    0.0000 H   0  0  0  0  0  0  0  0  0  0  0  0
    6.2076    4.2767    0.0000 H   0  0  0  0  0  0  0  0  0  0  0  0
    4.3118    2.9922    0.0000 H   0  0  0  0  0  0  0  0  0  0  0  0
    3.5053    3.9949    0.0000 H   0  0  0  0  0  0  0  0  0  0  0  0
    2.9120    3.4626    0.0000 H   0  0  0  0  0  0  0  0  0  0  0  0
    5.7789    2.9650    0.0000 H   0  0  0  0  0  0  0  0  0  0  0  0
    4.9796    2.2478    0.0000 H   0  0  0  0  0  0  0  0  0  0  0  0
    4.4188    1.6200    0.0000 H   0  0  0  0  0  0  0  0  0  0  0  0
    3.4078    0.2259    0.0000 H   0  0  0  0  0  0  0  0  0  0  0  0
   12.3207   12.5606    0.0000 H   0  0  0  0  0  0  0  0  0  0  0  0
   12.7995   13.2951    0.0000 H   0  0  0  0  0  0  0  0  0  0  0  0
   12.0650   13.7739    0.0000 H   0  0  0  0  0  0  0  0  0  0  0  0
    1.4030    3.2400    0.0000 H   0  0  0  0  0  0  0  0  0  0  0  0
    1.4030    0.0000    0.0000 H   0  0  0  0  0  0  0  0  0  0  0  0
    0.0000    2.4300    0.0000 H   0  0  0  0  0  0  0  0  0  0  0  0
    0.0000    0.8100    0.0000 H   0  0  0  0  0  0  0  0  0  0  0  0
    7.9673   16.9490    0.0000 H   0  0  0  0  0  0  0  0  0  0  0  0
  1  5  2  0  0  0  0
  1  6  2  0  0  0  0
  1 12  1  0  0  0  0
  1 26  1  0  0  0  0
  2 46  1  0  0  0  0
  3 46  1  0  0  0  0
  4 46  1  0  0  0  0
  7 24  1  0  0  0  0
  7 70  1  0  0  0  0
  8 33  1  0  0  0  0
  8 41  1  0  0  0  0
  9 34  2  0  0  0  0
 10 47  1  0  0  0  0
 10 90  1  0  0  0  0
 11 47  2  0  0  0  0
 12 19  1  0  0  0  0
 22 12  1  1  0  0  0
 13 28  1  0  0  0  0
 13 34  1  0  0  0  0
 13 75  1  0  0  0  0
 35 14  1  1  0  0  0
 14 79  1  0  0  0  0
 14 80  1  0  0  0  0
 15 39  1  0  0  0  0
 15 40  1  0  0  0  0
 15 82  1  0  0  0  0
 16 17  1  0  0  0  0
 16 18  1  0  0  0  0
 16 19  1  0  0  0  0
 16 48  1  0  0  0  0
 17 20  1  0  0  0  0
 17 49  1  0  0  0  0
 17 50  1  0  0  0  0
 18 21  1  0  0  0  0
 18 51  1  0  0  0  0
 18 52  1  0  0  0  0
 19 53  1  0  0  0  0
 19 54  1  0  0  0  0
 20 21  1  0  0  0  0
 20 55  1  0  0  0  0
 20 56  1  0  0  0  0
 21 57  1  0  0  0  0
 21 58  1  0  0  0  0
 22 23  1  0  0  0  0
 22 24  1  0  0  0  0
 22 59  1  0  0  0  0
 23 25  1  0  0  0  0
 23 60  1  0  0  0  0
 23 61  1  0  0  0  0
 24 62  1  0  0  0  0
 24 63  1  0  0  0  0
 25 27  1  0  0  0  0
 25 64  1  0  0  0  0
 25 65  1  0  0  0  0
 26 29  2  0  0  0  0
 26 30  1  0  0  0  0
 27 28  1  0  0  0  0
 27 66  1  0  0  0  0
 27 67  1  0  0  0  0
 28 68  1  0  0  0  0
 28 69  1  0  0  0  0
 29 31  1  0  0  0  0
 29 71  1  0  0  0  0
 30 32  2  0  0  0  0
 30 72  1  0  0  0  0
 31 33  2  0  0  0  0
 31 73  1  0  0  0  0
 32 33  1  0  0  0  0
 32 74  1  0  0  0  0
 34 35  1  0  0  0  0
 35 36  1  0  0  0  0
 35 76  1  0  0  0  0
 36 37  1  0  0  0  0
 36 77  1  0  0  0  0
 36 78  1  0  0  0  0
 37 38  1  0  0  0  0
 37 39  2  0  0  0  0
 38 40  1  0  0  0  0
 38 42  2  0  0  0  0
 39 81  1  0  0  0  0
 40 43  2  0  0  0  0
 41 83  1  0  0  0  0
 41 84  1  0  0  0  0
 41 85  1  0  0  0  0
 42 44  1  0  0  0  0
 42 86  1  0  0  0  0
 43 45  1  0  0  0  0
 43 87  1  0  0  0  0
 44 45  2  0  0  0  0
 44 88  1  0  0  0  0
 45 89  1  0  0  0  0
 46 47  1  0  0  0  0
M  END
> <PUBCHEM_COMPOUND_CID>
508675
> <PUBCHEM_COMPOUND_CANONICALIZED>
1
> <PUBCHEM_CACTVS_COMPLEXITY>
953
> <PUBCHEM_CACTVS_HBOND_ACCEPTOR>
12
> <PUBCHEM_CACTVS_HBOND_DONOR>
5
> <PUBCHEM_CACTVS_ROTATABLE_BOND>
15
> <PUBCHEM_CACTVS_SUBSKEYS>
AAADcfB/uYBAAAAAAAAAAAAAAAAAAeIAAAAwYAAAAAAAAFgB9AAAHwQQSAAADSzh3hY+z/LJlgKoAzX3XHDCiDAxIiAI2bm+bJgOdvLEsZuUcChk1hHY6AeYycCOgIAAAAACAAABAAAAAAQAAAAAAAAAAA==
> <PUBCHEM_IUPAC_OPENEYE_NAME>
(2S)-2-amino-N-[(5S)-5-[cyclopentylmethyl-(4-methoxyphenyl)sulfonyl-amino]-6-hydroxy-hexyl]-3-(1H-indol-3-yl)propanamide;2,2,2-trifluoroacetic acid
> <PUBCHEM_IUPAC_CAS_NAME>
(2S)-2-amino-N-[(5S)-5-[cyclopentylmethyl-(4-methoxyphenyl)sulfonylamino]-6-hydroxyhexyl]-3-(1H-indol-3-yl)propanamide;2,2,2-trifluoroacetic acid
> <PUBCHEM_IUPAC_NAME_MARKUP>
(2<I>S</I>)-2-amino-<I>N</I>-[(5<I>S</I>)-5-[cyclopentylmethyl-(4-methoxyphenyl)sulfonylamino]-6-hydroxyhexyl]-3-(1<I>H</I>-indol-3-yl)propanamide;2,2,2-trifluoroacetic acid
> <PUBCHEM_IUPAC_NAME>
(2S)-2-amino-N-[(5S)-5-[cyclopentylmethyl-(4-methoxyphenyl)sulfonylamino]-6-hydroxyhexyl]-3-(1H-indol-3-yl)propanamide;2,2,2-trifluoroacetic acid
> <PUBCHEM_IUPAC_SYSTEMATIC_NAME>
(2S)-2-azanyl-N-[(5S)-5-[cyclopentylmethyl-(4-methoxyphenyl)sulfonyl-amino]-6-oxidanyl-hexyl]-3-(1H-indol-3-yl)propanamide;2,2,2-tris(fluoranyl)ethanoic acid
> <PUBCHEM_IUPAC_TRADITIONAL_NAME>
(2S)-2-amino-N-[(5S)-5-[cyclopentylmethyl-(4-methoxyphenyl)sulfonyl-amino]-6-hydroxy-hexyl]-3-(1H-indol-3-yl)propionamide;2,2,2-trifluoroacetic acid
> <PUBCHEM_IUPAC_INCHI>
InChI=1S/C30H42N4O5S.C2HF3O2/c1-39-25-13-15-26(16-14-25)40(37,38)34(20-22-8-2-3-9-22)24(21-35)10-6-7-17-32-30(36)28(31)18-23-19-33-29-12-5-4-11-27(23)29;3-2(4,5)1(6)7/h4-5,11-16,19,22,24,28,33,35H,2-3,6-10,17-18,20-21,31H2,1H3,(H,32,36);(H,6,7)/t24-,28-;/m0./s1
> <PUBCHEM_IUPAC_INCHIKEY>
FHCMVSMYUUNZAE-JOFLZTHPSA-N
> <PUBCHEM_EXACT_MASS>
684.28045538
> <PUBCHEM_MOLECULAR_FORMULA>
C32H43F3N4O7S
> <PUBCHEM_MOLECULAR_WEIGHT>
684.8
> <PUBCHEM_OPENEYE_CAN_SMILES>
COC1=CC=C(C=C1)S(=O)(=O)N(CC2CCCC2)C(CCCCNC(=O)C(CC3=CNC4=CC=CC=C43)N)CO.C(=O)(C(F)(F)F)O
> <PUBCHEM_OPENEYE_ISO_SMILES>
COC1=CC=C(C=C1)S(=O)(=O)N(CC2CCCC2)[C@@H](CCCCNC(=O)[C@H](CC3=CNC4=CC=CC=C43)N)CO.C(=O)(C(F)(F)F)O
> <PUBCHEM_CACTVS_TPSA>
183
> <PUBCHEM_MONOISOTOPIC_WEIGHT>
684.28045538
> <PUBCHEM_TOTAL_CHARGE>
0
> <PUBCHEM_HEAVY_ATOM_COUNT>
47
> <PUBCHEM_ATOM_DEF_STEREO_COUNT>
2
> <PUBCHEM_ATOM_UDEF_STEREO_COUNT>
0
> <PUBCHEM_BOND_DEF_STEREO_COUNT>
0
> <PUBCHEM_BOND_UDEF_STEREO_COUNT>
0
> <PUBCHEM_ISOTOPIC_ATOM_COUNT>
0
> <PUBCHEM_COMPONENT_COUNT>
2
> <PUBCHEM_CACTVS_TAUTO_COUNT>
-1
> <PUBCHEM_COORDINATE_TYPE>
1
5
255
> <PUBCHEM_BONDANNOTATIONS>
22  12  5
35  14  5
15  39  8
15  40  8
26  29  8
26  30  8
29  31  8
30  32  8
31  33  8
32  33  8
37  38  8
37  39  8
38  40  8
38  42  8
40  43  8
42  44  8
43  45  8
44  45  8
$$$$
