508770
  -OEChem-10302200282D
 60 62  0     1  0  0  0  0  0999 V2000
    2.0000    6.6830    0.0000 Cl  0  0  0  0  0  0  0  0  0  0  0  0
    9.7942   -3.8170    0.0000 Cl  0  0  0  0  0  0  0  0  0  0  0  0
    5.4641   -6.3170    0.0000 F   0  0  0  0  0  0  0  0  0  0  0  0
    6.8301   -6.6830    0.0000 F   0  0  0  0  0  0  0  0  0  0  0  0
    5.8301   -4.9510    0.0000 F   0  0  0  0  0  0  0  0  0  0  0  0
    5.4641   -1.3170    0.0000 O   0  0  0  0  0  0  0  0  0  0  0  0
    8.9282   -2.3170    0.0000 O   0  0  0  0  0  0  0  0  0  0  0  0
    5.4641    3.6830    0.0000 N   0  0  0  0  0  0  0  0  0  0  0  0
    6.3301    0.1830    0.0000 N   0  0  0  0  0  0  0  0  0  0  0  0
    7.1962   -2.3170    0.0000 N   0  0  0  0  0  0  0  0  0  0  0  0
    5.4641    1.6830    0.0000 C   0  0  0  0  0  0  0  0  0  0  0  0
    4.5981    2.1830    0.0000 C   0  0  0  0  0  0  0  0  0  0  0  0
    6.3301    2.1830    0.0000 C   0  0  0  0  0  0  0  0  0  0  0  0
    4.5981    3.1830    0.0000 C   0  0  0  0  0  0  0  0  0  0  0  0
    6.3301    3.1830    0.0000 C   0  0  0  0  0  0  0  0  0  0  0  0
    5.4641    0.6830    0.0000 C   0  0  0  0  0  0  0  0  0  0  0  0
    5.4641    4.6830    0.0000 C   0  0  0  0  0  0  0  0  0  0  0  0
    4.5981    5.1830    0.0000 C   0  0  0  0  0  0  0  0  0  0  0  0
    6.3301   -0.8170    0.0000 C   0  0  0  0  0  0  0  0  0  0  0  0
    7.1962   -1.3170    0.0000 C   0  0  3  0  0  0  0  0  0  0  0  0
    3.7320    4.6830    0.0000 C   0  0  0  0  0  0  0  0  0  0  0  0
    4.5981    6.1830    0.0000 C   0  0  0  0  0  0  0  0  0  0  0  0
    8.0622   -0.8170    0.0000 C   0  0  0  0  0  0  0  0  0  0  0  0
    2.8660    5.1830    0.0000 C   0  0  0  0  0  0  0  0  0  0  0  0
    3.7320    6.6830    0.0000 C   0  0  0  0  0  0  0  0  0  0  0  0
    2.8660    6.1830    0.0000 C   0  0  0  0  0  0  0  0  0  0  0  0
    8.0622   -2.8170    0.0000 C   0  0  0  0  0  0  0  0  0  0  0  0
    8.0622   -3.8170    0.0000 C   0  0  0  0  0  0  0  0  0  0  0  0
    7.1962   -4.3170    0.0000 C   0  0  0  0  0  0  0  0  0  0  0  0
    8.9282   -4.3170    0.0000 C   0  0  0  0  0  0  0  0  0  0  0  0
    7.1962   -5.3170    0.0000 C   0  0  0  0  0  0  0  0  0  0  0  0
    8.9282   -5.3170    0.0000 C   0  0  0  0  0  0  0  0  0  0  0  0
    8.0622   -5.8170    0.0000 C   0  0  0  0  0  0  0  0  0  0  0  0
    6.3301   -5.8170    0.0000 C   0  0  0  0  0  0  0  0  0  0  0  0
    6.0010    1.3730    0.0000 H   0  0  0  0  0  0  0  0  0  0  0  0
    3.9875    2.2907    0.0000 H   0  0  0  0  0  0  0  0  0  0  0  0
    4.3860    1.6004    0.0000 H   0  0  0  0  0  0  0  0  0  0  0  0
    6.5422    1.6004    0.0000 H   0  0  0  0  0  0  0  0  0  0  0  0
    6.9407    2.2907    0.0000 H   0  0  0  0  0  0  0  0  0  0  0  0
    4.3860    3.7656    0.0000 H   0  0  0  0  0  0  0  0  0  0  0  0
    3.9875    3.0753    0.0000 H   0  0  0  0  0  0  0  0  0  0  0  0
    6.9407    3.0753    0.0000 H   0  0  0  0  0  0  0  0  0  0  0  0
    6.5422    3.7656    0.0000 H   0  0  0  0  0  0  0  0  0  0  0  0
    4.8535    0.7907    0.0000 H   0  0  0  0  0  0  0  0  0  0  0  0
    5.2520    0.1004    0.0000 H   0  0  0  0  0  0  0  0  0  0  0  0
    6.0747    4.5754    0.0000 H   0  0  0  0  0  0  0  0  0  0  0  0
    5.6762    5.2656    0.0000 H   0  0  0  0  0  0  0  0  0  0  0  0
    6.8671    0.4930    0.0000 H   0  0  0  0  0  0  0  0  0  0  0  0
    6.6592   -1.6270    0.0000 H   0  0  0  0  0  0  0  0  0  0  0  0
    3.7320    4.0630    0.0000 H   0  0  0  0  0  0  0  0  0  0  0  0
    5.1350    6.4930    0.0000 H   0  0  0  0  0  0  0  0  0  0  0  0
    8.3722   -1.3539    0.0000 H   0  0  0  0  0  0  0  0  0  0  0  0
    8.5991   -0.5070    0.0000 H   0  0  0  0  0  0  0  0  0  0  0  0
    7.7522   -0.2801    0.0000 H   0  0  0  0  0  0  0  0  0  0  0  0
    6.6592   -2.6270    0.0000 H   0  0  0  0  0  0  0  0  0  0  0  0
    2.3291    4.8730    0.0000 H   0  0  0  0  0  0  0  0  0  0  0  0
    3.7320    7.3030    0.0000 H   0  0  0  0  0  0  0  0  0  0  0  0
    6.6592   -4.0070    0.0000 H   0  0  0  0  0  0  0  0  0  0  0  0
    9.4651   -5.6270    0.0000 H   0  0  0  0  0  0  0  0  0  0  0  0
    8.0622   -6.4370    0.0000 H   0  0  0  0  0  0  0  0  0  0  0  0
  1 26  1  0  0  0  0
  2 30  1  0  0  0  0
  3 34  1  0  0  0  0
  4 34  1  0  0  0  0
  5 34  1  0  0  0  0
  6 19  2  0  0  0  0
  7 27  2  0  0  0  0
  8 14  1  0  0  0  0
  8 15  1  0  0  0  0
  8 17  1  0  0  0  0
  9 16  1  0  0  0  0
  9 19  1  0  0  0  0
  9 48  1  0  0  0  0
 10 20  1  0  0  0  0
 10 27  1  0  0  0  0
 10 55  1  0  0  0  0
 11 12  1  0  0  0  0
 11 13  1  0  0  0  0
 11 16  1  0  0  0  0
 11 35  1  0  0  0  0
 12 14  1  0  0  0  0
 12 36  1  0  0  0  0
 12 37  1  0  0  0  0
 13 15  1  0  0  0  0
 13 38  1  0  0  0  0
 13 39  1  0  0  0  0
 14 40  1  0  0  0  0
 14 41  1  0  0  0  0
 15 42  1  0  0  0  0
 15 43  1  0  0  0  0
 16 44  1  0  0  0  0
 16 45  1  0  0  0  0
 17 18  1  0  0  0  0
 17 46  1  0  0  0  0
 17 47  1  0  0  0  0
 18 21  2  0  0  0  0
 18 22  1  0  0  0  0
 19 20  1  0  0  0  0
 20 23  1  0  0  0  0
 20 49  1  0  0  0  0
 21 24  1  0  0  0  0
 21 50  1  0  0  0  0
 22 25  2  0  0  0  0
 22 51  1  0  0  0  0
 23 52  1  0  0  0  0
 23 53  1  0  0  0  0
 23 54  1  0  0  0  0
 24 26  2  0  0  0  0
 24 56  1  0  0  0  0
 25 26  1  0  0  0  0
 25 57  1  0  0  0  0
 27 28  1  0  0  0  0
 28 29  1  0  0  0  0
 28 30  2  0  0  0  0
 29 31  2  0  0  0  0
 29 58  1  0  0  0  0
 30 32  1  0  0  0  0
 31 33  1  0  0  0  0
 31 34  1  0  0  0  0
 32 33  2  0  0  0  0
 32 59  1  0  0  0  0
 33 60  1  0  0  0  0
M  END
> <PUBCHEM_COMPOUND_CID>
508770
> <PUBCHEM_COMPOUND_CANONICALIZED>
1
> <PUBCHEM_CACTVS_COMPLEXITY>
681
> <PUBCHEM_CACTVS_HBOND_ACCEPTOR>
6
> <PUBCHEM_CACTVS_HBOND_DONOR>
2
> <PUBCHEM_CACTVS_ROTATABLE_BOND>
7
> <PUBCHEM_CACTVS_SUBSKEYS>
AAADceB7MYAGAAAAAAAAAAAAAAAAAAAAAAA8YIAAAAAAAAABQAAAHwIQAAAADSrBmDQyAIPAAACIAiFSEACCAAAkBQAIiIGIBsgIYDKBlzGUIQhglgCIjYcYiECOBAACAAABAAAIAAQAAAIAAAAAAAAAAA==
> <PUBCHEM_IUPAC_OPENEYE_NAME>
2-chloro-N-[2-[[1-[(4-chlorophenyl)methyl]-4-piperidyl]methylamino]-1-methyl-2-oxo-ethyl]-5-(trifluoromethyl)benzamide
> <PUBCHEM_IUPAC_CAS_NAME>
2-chloro-N-[1-[[1-[(4-chlorophenyl)methyl]-4-piperidinyl]methylamino]-1-oxopropan-2-yl]-5-(trifluoromethyl)benzamide
> <PUBCHEM_IUPAC_NAME_MARKUP>
2-chloro-<I>N</I>-[1-[[1-[(4-chlorophenyl)methyl]piperidin-4-yl]methylamino]-1-oxopropan-2-yl]-5-(trifluoromethyl)benzamide
> <PUBCHEM_IUPAC_NAME>
2-chloro-N-[1-[[1-[(4-chlorophenyl)methyl]piperidin-4-yl]methylamino]-1-oxopropan-2-yl]-5-(trifluoromethyl)benzamide
> <PUBCHEM_IUPAC_SYSTEMATIC_NAME>
2-chloranyl-N-[1-[[1-[(4-chlorophenyl)methyl]piperidin-4-yl]methylamino]-1-oxidanylidene-propan-2-yl]-5-(trifluoromethyl)benzamide
> <PUBCHEM_IUPAC_TRADITIONAL_NAME>
2-chloro-N-[2-[[1-(4-chlorobenzyl)-4-piperidyl]methylamino]-2-keto-1-methyl-ethyl]-5-(trifluoromethyl)benzamide
> <PUBCHEM_IUPAC_INCHI>
InChI=1S/C24H26Cl2F3N3O2/c1-15(31-23(34)20-12-18(24(27,28)29)4-7-21(20)26)22(33)30-13-16-8-10-32(11-9-16)14-17-2-5-19(25)6-3-17/h2-7,12,15-16H,8-11,13-14H2,1H3,(H,30,33)(H,31,34)
> <PUBCHEM_IUPAC_INCHIKEY>
QKYFFMLPELDMLF-UHFFFAOYSA-N
> <PUBCHEM_XLOGP3_AA>
5.4
> <PUBCHEM_EXACT_MASS>
515.1354170
> <PUBCHEM_MOLECULAR_FORMULA>
C24H26Cl2F3N3O2
> <PUBCHEM_MOLECULAR_WEIGHT>
516.4
> <PUBCHEM_OPENEYE_CAN_SMILES>
CC(C(=O)NCC1CCN(CC1)CC2=CC=C(C=C2)Cl)NC(=O)C3=C(C=CC(=C3)C(F)(F)F)Cl
> <PUBCHEM_OPENEYE_ISO_SMILES>
CC(C(=O)NCC1CCN(CC1)CC2=CC=C(C=C2)Cl)NC(=O)C3=C(C=CC(=C3)C(F)(F)F)Cl
> <PUBCHEM_CACTVS_TPSA>
61.4
> <PUBCHEM_MONOISOTOPIC_WEIGHT>
515.1354170
> <PUBCHEM_TOTAL_CHARGE>
0
> <PUBCHEM_HEAVY_ATOM_COUNT>
34
> <PUBCHEM_ATOM_DEF_STEREO_COUNT>
0
> <PUBCHEM_ATOM_UDEF_STEREO_COUNT>
1
> <PUBCHEM_BOND_DEF_STEREO_COUNT>
0
> <PUBCHEM_BOND_UDEF_STEREO_COUNT>
0
> <PUBCHEM_ISOTOPIC_ATOM_COUNT>
0
> <PUBCHEM_COMPONENT_COUNT>
1
> <PUBCHEM_CACTVS_TAUTO_COUNT>
-1
> <PUBCHEM_COORDINATE_TYPE>
1
5
255
> <PUBCHEM_BONDANNOTATIONS>
18  21  8
18  22  8
20  23  3
21  24  8
22  25  8
24  26  8
25  26  8
28  29  8
28  30  8
29  31  8
30  32  8
31  33  8
32  33  8
$$$$
