508723
  -OEChem-10302200282D
 85 87  0     1  0  0  0  0  0999 V2000
    3.7320    4.7500    0.0000 S   0  0  0  0  0  0  0  0  0  0  0  0
    6.3301   -3.7500    0.0000 S   0  0  0  0  0  0  0  0  0  0  0  0
    2.7320    4.7500    0.0000 O   0  0  0  0  0  0  0  0  0  0  0  0
    4.7320    4.7500    0.0000 O   0  0  0  0  0  0  0  0  0  0  0  0
    6.3301    3.2500    0.0000 O   0  0  0  0  0  0  0  0  0  0  0  0
    5.4641    4.7500    0.0000 O   0  0  0  0  0  0  0  0  0  0  0  0
    8.0622   -0.7500    0.0000 O   0  0  0  0  0  0  0  0  0  0  0  0
    7.3301   -3.7500    0.0000 O   0  0  0  0  0  0  0  0  0  0  0  0
    5.3301   -3.7500    0.0000 O   0  0  0  0  0  0  0  0  0  0  0  0
    3.7320    3.7500    0.0000 N   0  0  3  0  0  0  0  0  0  0  0  0
    6.3301   -0.7500    0.0000 N   0  0  0  0  0  0  0  0  0  0  0  0
    6.3301   -2.7500    0.0000 N   0  0  0  0  0  0  0  0  0  0  0  0
    4.5981    3.2500    0.0000 C   0  0  1  0  0  0  0  0  0  0  0  0
    4.5981    2.2500    0.0000 C   0  0  0  0  0  0  0  0  0  0  0  0
    2.8660    3.2500    0.0000 C   0  0  0  0  0  0  0  0  0  0  0  0
    5.4641    1.7500    0.0000 C   0  0  0  0  0  0  0  0  0  0  0  0
    2.8660    2.2500    0.0000 C   0  0  0  0  0  0  0  0  0  0  0  0
    5.4641    0.7500    0.0000 C   0  0  0  0  0  0  0  0  0  0  0  0
    5.4641    3.7500    0.0000 C   0  0  0  0  0  0  0  0  0  0  0  0
    6.3301    0.2500    0.0000 C   0  0  0  0  0  0  0  0  0  0  0  0
    2.0000    1.7500    0.0000 C   0  0  0  0  0  0  0  0  0  0  0  0
    3.7320    1.7500    0.0000 C   0  0  0  0  0  0  0  0  0  0  0  0
    3.7320    5.7500    0.0000 C   0  0  0  0  0  0  0  0  0  0  0  0
    7.1962   -2.2500    0.0000 C   0  0  2  0  0  0  0  0  0  0  0  0
    7.1962   -1.2500    0.0000 C   0  0  0  0  0  0  0  0  0  0  0  0
    2.8660    6.2500    0.0000 C   0  0  0  0  0  0  0  0  0  0  0  0
    4.5981    6.2500    0.0000 C   0  0  0  0  0  0  0  0  0  0  0  0
    8.0622   -2.7500    0.0000 C   0  0  0  0  0  0  0  0  0  0  0  0
    8.9282   -2.2500    0.0000 C   0  0  0  0  0  0  0  0  0  0  0  0
    2.8660    7.2500    0.0000 C   0  0  0  0  0  0  0  0  0  0  0  0
    4.5981    7.2500    0.0000 C   0  0  0  0  0  0  0  0  0  0  0  0
    3.7320    7.7500    0.0000 C   0  0  0  0  0  0  0  0  0  0  0  0
    6.3301   -4.7500    0.0000 C   0  0  0  0  0  0  0  0  0  0  0  0
    8.9282   -1.2500    0.0000 C   0  0  0  0  0  0  0  0  0  0  0  0
    9.7942   -2.7500    0.0000 C   0  0  0  0  0  0  0  0  0  0  0  0
    5.4641   -5.2500    0.0000 C   0  0  0  0  0  0  0  0  0  0  0  0
    7.1962   -5.2500    0.0000 C   0  0  0  0  0  0  0  0  0  0  0  0
    9.7942   -0.7500    0.0000 C   0  0  0  0  0  0  0  0  0  0  0  0
   10.6603   -2.2500    0.0000 C   0  0  0  0  0  0  0  0  0  0  0  0
   10.6603   -1.2500    0.0000 C   0  0  0  0  0  0  0  0  0  0  0  0
    5.4641   -6.2500    0.0000 C   0  0  0  0  0  0  0  0  0  0  0  0
    7.1962   -6.2500    0.0000 C   0  0  0  0  0  0  0  0  0  0  0  0
    6.3301   -6.7500    0.0000 C   0  0  0  0  0  0  0  0  0  0  0  0
    6.3301   -7.7500    0.0000 C   0  0  0  0  0  0  0  0  0  0  0  0
    4.5981    3.8700    0.0000 H   0  0  0  0  0  0  0  0  0  0  0  0
    3.9875    2.3577    0.0000 H   0  0  0  0  0  0  0  0  0  0  0  0
    4.3860    1.6674    0.0000 H   0  0  0  0  0  0  0  0  0  0  0  0
    2.6540    3.8326    0.0000 H   0  0  0  0  0  0  0  0  0  0  0  0
    2.2554    3.1423    0.0000 H   0  0  0  0  0  0  0  0  0  0  0  0
    6.0747    1.6423    0.0000 H   0  0  0  0  0  0  0  0  0  0  0  0
    5.6762    2.3326    0.0000 H   0  0  0  0  0  0  0  0  0  0  0  0
    2.8660    1.6300    0.0000 H   0  0  0  0  0  0  0  0  0  0  0  0
    4.8535    0.8577    0.0000 H   0  0  0  0  0  0  0  0  0  0  0  0
    5.2520    0.1674    0.0000 H   0  0  0  0  0  0  0  0  0  0  0  0
    6.9407    0.1423    0.0000 H   0  0  0  0  0  0  0  0  0  0  0  0
    6.5422    0.8326    0.0000 H   0  0  0  0  0  0  0  0  0  0  0  0
    1.6900    2.2869    0.0000 H   0  0  0  0  0  0  0  0  0  0  0  0
    1.4631    1.4400    0.0000 H   0  0  0  0  0  0  0  0  0  0  0  0
    2.3100    1.2131    0.0000 H   0  0  0  0  0  0  0  0  0  0  0  0
    3.4220    1.2131    0.0000 H   0  0  0  0  0  0  0  0  0  0  0  0
    4.2690    1.4400    0.0000 H   0  0  0  0  0  0  0  0  0  0  0  0
    4.0420    2.2869    0.0000 H   0  0  0  0  0  0  0  0  0  0  0  0
    6.6592   -1.9400    0.0000 H   0  0  0  0  0  0  0  0  0  0  0  0
    5.7932   -1.0600    0.0000 H   0  0  0  0  0  0  0  0  0  0  0  0
    2.3291    5.9400    0.0000 H   0  0  0  0  0  0  0  0  0  0  0  0
    5.1350    5.9400    0.0000 H   0  0  0  0  0  0  0  0  0  0  0  0
    7.6636   -3.2250    0.0000 H   0  0  0  0  0  0  0  0  0  0  0  0
    8.4607   -3.2250    0.0000 H   0  0  0  0  0  0  0  0  0  0  0  0
    5.7932   -2.4400    0.0000 H   0  0  0  0  0  0  0  0  0  0  0  0
    6.8671    3.5600    0.0000 H   0  0  0  0  0  0  0  0  0  0  0  0
    2.3291    7.5600    0.0000 H   0  0  0  0  0  0  0  0  0  0  0  0
    5.1350    7.5600    0.0000 H   0  0  0  0  0  0  0  0  0  0  0  0
    3.7320    8.3700    0.0000 H   0  0  0  0  0  0  0  0  0  0  0  0
    8.3913   -0.9400    0.0000 H   0  0  0  0  0  0  0  0  0  0  0  0
    9.7942   -3.3700    0.0000 H   0  0  0  0  0  0  0  0  0  0  0  0
    4.9272   -4.9400    0.0000 H   0  0  0  0  0  0  0  0  0  0  0  0
    7.7331   -4.9400    0.0000 H   0  0  0  0  0  0  0  0  0  0  0  0
    9.7942   -0.1300    0.0000 H   0  0  0  0  0  0  0  0  0  0  0  0
   11.1972   -2.5600    0.0000 H   0  0  0  0  0  0  0  0  0  0  0  0
   11.1972   -0.9400    0.0000 H   0  0  0  0  0  0  0  0  0  0  0  0
    4.9272   -6.5600    0.0000 H   0  0  0  0  0  0  0  0  0  0  0  0
    7.7331   -6.5600    0.0000 H   0  0  0  0  0  0  0  0  0  0  0  0
    5.7101   -7.7500    0.0000 H   0  0  0  0  0  0  0  0  0  0  0  0
    6.3301   -8.3700    0.0000 H   0  0  0  0  0  0  0  0  0  0  0  0
    6.9501   -7.7500    0.0000 H   0  0  0  0  0  0  0  0  0  0  0  0
  1  3  2  0  0  0  0
  1  4  2  0  0  0  0
  1 10  1  0  0  0  0
  1 23  1  0  0  0  0
  2  8  2  0  0  0  0
  2  9  2  0  0  0  0
  2 12  1  0  0  0  0
  2 33  1  0  0  0  0
  5 19  1  0  0  0  0
  5 70  1  0  0  0  0
  6 19  2  0  0  0  0
  7 25  2  0  0  0  0
 13 10  1  6  0  0  0
 10 15  1  0  0  0  0
 11 20  1  0  0  0  0
 11 25  1  0  0  0  0
 11 64  1  0  0  0  0
 24 12  1  6  0  0  0
 12 69  1  0  0  0  0
 13 14  1  0  0  0  0
 13 19  1  0  0  0  0
 13 45  1  0  0  0  0
 14 16  1  0  0  0  0
 14 46  1  0  0  0  0
 14 47  1  0  0  0  0
 15 17  1  0  0  0  0
 15 48  1  0  0  0  0
 15 49  1  0  0  0  0
 16 18  1  0  0  0  0
 16 50  1  0  0  0  0
 16 51  1  0  0  0  0
 17 21  1  0  0  0  0
 17 22  1  0  0  0  0
 17 52  1  0  0  0  0
 18 20  1  0  0  0  0
 18 53  1  0  0  0  0
 18 54  1  0  0  0  0
 20 55  1  0  0  0  0
 20 56  1  0  0  0  0
 21 57  1  0  0  0  0
 21 58  1  0  0  0  0
 21 59  1  0  0  0  0
 22 60  1  0  0  0  0
 22 61  1  0  0  0  0
 22 62  1  0  0  0  0
 23 26  2  0  0  0  0
 23 27  1  0  0  0  0
 24 25  1  0  0  0  0
 24 28  1  0  0  0  0
 24 63  1  0  0  0  0
 26 30  1  0  0  0  0
 26 65  1  0  0  0  0
 27 31  2  0  0  0  0
 27 66  1  0  0  0  0
 28 29  1  0  0  0  0
 28 67  1  0  0  0  0
 28 68  1  0  0  0  0
 29 34  2  0  0  0  0
 29 35  1  0  0  0  0
 30 32  2  0  0  0  0
 30 71  1  0  0  0  0
 31 32  1  0  0  0  0
 31 72  1  0  0  0  0
 32 73  1  0  0  0  0
 33 36  2  0  0  0  0
 33 37  1  0  0  0  0
 34 38  1  0  0  0  0
 34 74  1  0  0  0  0
 35 39  2  0  0  0  0
 35 75  1  0  0  0  0
 36 41  1  0  0  0  0
 36 76  1  0  0  0  0
 37 42  2  0  0  0  0
 37 77  1  0  0  0  0
 38 40  2  0  0  0  0
 38 78  1  0  0  0  0
 39 40  1  0  0  0  0
 39 79  1  0  0  0  0
 40 80  1  0  0  0  0
 41 43  2  0  0  0  0
 41 81  1  0  0  0  0
 42 43  1  0  0  0  0
 42 82  1  0  0  0  0
 43 44  1  0  0  0  0
 44 83  1  0  0  0  0
 44 84  1  0  0  0  0
 44 85  1  0  0  0  0
M  END
> <PUBCHEM_COMPOUND_CID>
508723
> <PUBCHEM_COMPOUND_CANONICALIZED>
1
> <PUBCHEM_CACTVS_COMPLEXITY>
1100
> <PUBCHEM_CACTVS_HBOND_ACCEPTOR>
9
> <PUBCHEM_CACTVS_HBOND_DONOR>
3
> <PUBCHEM_CACTVS_ROTATABLE_BOND>
17
> <PUBCHEM_CACTVS_SUBSKEYS>
AAADcfB/OABgAAAAAAAAAAAAAAAAAAAAAAAwYMAAAAAAAAABUAAAHgQQSAAADSjB2AQyCYLAAgKIAiHSGHBCABAgAAAIiJmIAIgKYDKAkTGUYAAklgCYiAeYyICOEAAAAAAAAAAgAAAAAAAAAAAAAAAAAA==
> <PUBCHEM_IUPAC_OPENEYE_NAME>
(2S)-2-[benzenesulfonyl(isobutyl)amino]-6-[[(2S)-3-phenyl-2-(p-tolylsulfonylamino)propanoyl]amino]hexanoic acid
> <PUBCHEM_IUPAC_CAS_NAME>
(2S)-2-[benzenesulfonyl(2-methylpropyl)amino]-6-[[(2S)-2-[(4-methylphenyl)sulfonylamino]-1-oxo-3-phenylpropyl]amino]hexanoic acid
> <PUBCHEM_IUPAC_NAME_MARKUP>
(2<I>S</I>)-2-[benzenesulfonyl(2-methylpropyl)amino]-6-[[(2<I>S</I>)-2-[(4-methylphenyl)sulfonylamino]-3-phenylpropanoyl]amino]hexanoic acid
> <PUBCHEM_IUPAC_NAME>
(2S)-2-[benzenesulfonyl(2-methylpropyl)amino]-6-[[(2S)-2-[(4-methylphenyl)sulfonylamino]-3-phenylpropanoyl]amino]hexanoic acid
> <PUBCHEM_IUPAC_SYSTEMATIC_NAME>
(2S)-6-[[(2S)-2-[(4-methylphenyl)sulfonylamino]-3-phenyl-propanoyl]amino]-2-[2-methylpropyl(phenylsulfonyl)amino]hexanoic acid
> <PUBCHEM_IUPAC_TRADITIONAL_NAME>
(2S)-2-[besyl(isobutyl)amino]-6-[[(2S)-3-phenyl-2-(tosylamino)propanoyl]amino]hexanoic acid
> <PUBCHEM_IUPAC_INCHI>
InChI=1S/C32H41N3O7S2/c1-24(2)23-35(44(41,42)28-14-8-5-9-15-28)30(32(37)38)16-10-11-21-33-31(36)29(22-26-12-6-4-7-13-26)34-43(39,40)27-19-17-25(3)18-20-27/h4-9,12-15,17-20,24,29-30,34H,10-11,16,21-23H2,1-3H3,(H,33,36)(H,37,38)/t29-,30-/m0/s1
> <PUBCHEM_IUPAC_INCHIKEY>
MNESLFYASIVMOK-KYJUHHDHSA-N
> <PUBCHEM_XLOGP3_AA>
5.5
> <PUBCHEM_EXACT_MASS>
643.23859300
> <PUBCHEM_MOLECULAR_FORMULA>
C32H41N3O7S2
> <PUBCHEM_MOLECULAR_WEIGHT>
643.8
> <PUBCHEM_OPENEYE_CAN_SMILES>
CC1=CC=C(C=C1)S(=O)(=O)NC(CC2=CC=CC=C2)C(=O)NCCCCC(C(=O)O)N(CC(C)C)S(=O)(=O)C3=CC=CC=C3
> <PUBCHEM_OPENEYE_ISO_SMILES>
CC1=CC=C(C=C1)S(=O)(=O)N[C@@H](CC2=CC=CC=C2)C(=O)NCCCC[C@@H](C(=O)O)N(CC(C)C)S(=O)(=O)C3=CC=CC=C3
> <PUBCHEM_CACTVS_TPSA>
167
> <PUBCHEM_MONOISOTOPIC_WEIGHT>
643.23859300
> <PUBCHEM_TOTAL_CHARGE>
0
> <PUBCHEM_HEAVY_ATOM_COUNT>
44
> <PUBCHEM_ATOM_DEF_STEREO_COUNT>
2
> <PUBCHEM_ATOM_UDEF_STEREO_COUNT>
0
> <PUBCHEM_BOND_DEF_STEREO_COUNT>
0
> <PUBCHEM_BOND_UDEF_STEREO_COUNT>
0
> <PUBCHEM_ISOTOPIC_ATOM_COUNT>
0
> <PUBCHEM_COMPONENT_COUNT>
1
> <PUBCHEM_CACTVS_TAUTO_COUNT>
-1
> <PUBCHEM_COORDINATE_TYPE>
1
5
255
> <PUBCHEM_BONDANNOTATIONS>
13  10  6
24  12  6
23  26  8
23  27  8
26  30  8
27  31  8
29  34  8
29  35  8
30  32  8
31  32  8
33  36  8
33  37  8
34  38  8
35  39  8
36  41  8
37  42  8
38  40  8
39  40  8
41  43  8
42  43  8
$$$$
