508790
  -OEChem-10302200282D
 60 63  0     1  0  0  0  0  0999 V2000
    2.0000   -6.9868    0.0000 Cl  0  0  0  0  0  0  0  0  0  0  0  0
    7.5745    5.0563    0.0000 S   0  0  0  0  0  0  0  0  0  0  0  0
    5.4641    1.0132    0.0000 O   0  0  0  0  0  0  0  0  0  0  0  0
    5.6065    2.3679    0.0000 O   0  0  0  0  0  0  0  0  0  0  0  0
    6.7774    6.9868    0.0000 O   0  5  0  0  0  0  0  0  0  0  0  0
    5.1951    6.2823    0.0000 O   0  0  0  0  0  0  0  0  0  0  0  0
    5.4641   -3.9868    0.0000 N   0  0  0  0  0  0  0  0  0  0  0  0
    7.3007    2.0078    0.0000 N   0  0  0  0  0  0  0  0  0  0  0  0
    6.3301   -0.4868    0.0000 N   0  0  0  0  0  0  0  0  0  0  0  0
    6.1896    6.1777    0.0000 N   0  3  0  0  0  0  0  0  0  0  0  0
    5.4641   -1.9868    0.0000 C   0  0  0  0  0  0  0  0  0  0  0  0
    4.5981   -2.4868    0.0000 C   0  0  0  0  0  0  0  0  0  0  0  0
    6.3301   -2.4868    0.0000 C   0  0  0  0  0  0  0  0  0  0  0  0
    4.5981   -3.4868    0.0000 C   0  0  0  0  0  0  0  0  0  0  0  0
    6.3301   -3.4868    0.0000 C   0  0  0  0  0  0  0  0  0  0  0  0
    5.4641   -0.9868    0.0000 C   0  0  0  0  0  0  0  0  0  0  0  0
    7.1962    1.0132    0.0000 C   0  0  3  0  0  0  0  0  0  0  0  0
    8.1097    0.6065    0.0000 C   0  0  0  0  0  0  0  0  0  0  0  0
    8.7788    1.3496    0.0000 C   0  0  0  0  0  0  0  0  0  0  0  0
    8.2788    2.2157    0.0000 C   0  0  0  0  0  0  0  0  0  0  0  0
    6.3301    0.5132    0.0000 C   0  0  0  0  0  0  0  0  0  0  0  0
    5.4641   -4.9868    0.0000 C   0  0  0  0  0  0  0  0  0  0  0  0
    6.5575    2.6769    0.0000 C   0  0  0  0  0  0  0  0  0  0  0  0
    4.5981   -5.4868    0.0000 C   0  0  0  0  0  0  0  0  0  0  0  0
    6.7654    3.6550    0.0000 C   0  0  0  0  0  0  0  0  0  0  0  0
    4.5981   -6.4868    0.0000 C   0  0  0  0  0  0  0  0  0  0  0  0
    3.7320   -4.9868    0.0000 C   0  0  0  0  0  0  0  0  0  0  0  0
    6.0963    4.3982    0.0000 C   0  0  0  0  0  0  0  0  0  0  0  0
    7.6790    4.0618    0.0000 C   0  0  0  0  0  0  0  0  0  0  0  0
    3.7320   -6.9868    0.0000 C   0  0  0  0  0  0  0  0  0  0  0  0
    2.8660   -5.4868    0.0000 C   0  0  0  0  0  0  0  0  0  0  0  0
    2.8660   -6.4868    0.0000 C   0  0  0  0  0  0  0  0  0  0  0  0
    6.5963    5.2642    0.0000 C   0  0  0  0  0  0  0  0  0  0  0  0
    6.0010   -1.6768    0.0000 H   0  0  0  0  0  0  0  0  0  0  0  0
    4.3860   -1.9042    0.0000 H   0  0  0  0  0  0  0  0  0  0  0  0
    3.9875   -2.5944    0.0000 H   0  0  0  0  0  0  0  0  0  0  0  0
    6.9407   -2.5944    0.0000 H   0  0  0  0  0  0  0  0  0  0  0  0
    6.5422   -1.9042    0.0000 H   0  0  0  0  0  0  0  0  0  0  0  0
    3.9875   -3.3791    0.0000 H   0  0  0  0  0  0  0  0  0  0  0  0
    4.3860   -4.0694    0.0000 H   0  0  0  0  0  0  0  0  0  0  0  0
    6.5422   -4.0694    0.0000 H   0  0  0  0  0  0  0  0  0  0  0  0
    6.9407   -3.3791    0.0000 H   0  0  0  0  0  0  0  0  0  0  0  0
    5.2520   -0.4042    0.0000 H   0  0  0  0  0  0  0  0  0  0  0  0
    4.8535   -1.0944    0.0000 H   0  0  0  0  0  0  0  0  0  0  0  0
    6.6762    1.3509    0.0000 H   0  0  0  0  0  0  0  0  0  0  0  0
    7.7997    0.0696    0.0000 H   0  0  0  0  0  0  0  0  0  0  0  0
    8.6113    0.2421    0.0000 H   0  0  0  0  0  0  0  0  0  0  0  0
    9.1937    0.8889    0.0000 H   0  0  0  0  0  0  0  0  0  0  0  0
    9.2804    1.7141    0.0000 H   0  0  0  0  0  0  0  0  0  0  0  0
    8.8452    2.4678    0.0000 H   0  0  0  0  0  0  0  0  0  0  0  0
    8.0872    2.8053    0.0000 H   0  0  0  0  0  0  0  0  0  0  0  0
    6.8671   -0.7968    0.0000 H   0  0  0  0  0  0  0  0  0  0  0  0
    5.6762   -5.5694    0.0000 H   0  0  0  0  0  0  0  0  0  0  0  0
    6.0747   -4.8791    0.0000 H   0  0  0  0  0  0  0  0  0  0  0  0
    5.1350   -6.7968    0.0000 H   0  0  0  0  0  0  0  0  0  0  0  0
    3.7320   -4.3668    0.0000 H   0  0  0  0  0  0  0  0  0  0  0  0
    5.4797    4.3334    0.0000 H   0  0  0  0  0  0  0  0  0  0  0  0
    8.2159    3.7518    0.0000 H   0  0  0  0  0  0  0  0  0  0  0  0
    3.7320   -7.6068    0.0000 H   0  0  0  0  0  0  0  0  0  0  0  0
    2.3291   -5.1768    0.0000 H   0  0  0  0  0  0  0  0  0  0  0  0
  1 32  1  0  0  0  0
  2 29  1  0  0  0  0
  2 33  1  0  0  0  0
  3 21  2  0  0  0  0
  4 23  2  0  0  0  0
  5 10  1  0  0  0  0
  6 10  2  0  0  0  0
  7 14  1  0  0  0  0
  7 15  1  0  0  0  0
  7 22  1  0  0  0  0
  8 17  1  0  0  0  0
  8 20  1  0  0  0  0
  8 23  1  0  0  0  0
  9 16  1  0  0  0  0
  9 21  1  0  0  0  0
  9 52  1  0  0  0  0
 10 33  1  0  0  0  0
 11 12  1  0  0  0  0
 11 13  1  0  0  0  0
 11 16  1  0  0  0  0
 11 34  1  0  0  0  0
 12 14  1  0  0  0  0
 12 35  1  0  0  0  0
 12 36  1  0  0  0  0
 13 15  1  0  0  0  0
 13 37  1  0  0  0  0
 13 38  1  0  0  0  0
 14 39  1  0  0  0  0
 14 40  1  0  0  0  0
 15 41  1  0  0  0  0
 15 42  1  0  0  0  0
 16 43  1  0  0  0  0
 16 44  1  0  0  0  0
 17 18  1  0  0  0  0
 17 21  1  0  0  0  0
 17 45  1  0  0  0  0
 18 19  1  0  0  0  0
 18 46  1  0  0  0  0
 18 47  1  0  0  0  0
 19 20  1  0  0  0  0
 19 48  1  0  0  0  0
 19 49  1  0  0  0  0
 20 50  1  0  0  0  0
 20 51  1  0  0  0  0
 22 24  1  0  0  0  0
 22 53  1  0  0  0  0
 22 54  1  0  0  0  0
 23 25  1  0  0  0  0
 24 26  2  0  0  0  0
 24 27  1  0  0  0  0
 25 28  1  0  0  0  0
 25 29  2  0  0  0  0
 26 30  1  0  0  0  0
 26 55  1  0  0  0  0
 27 31  2  0  0  0  0
 27 56  1  0  0  0  0
 28 33  2  0  0  0  0
 28 57  1  0  0  0  0
 29 58  1  0  0  0  0
 30 32  2  0  0  0  0
 30 59  1  0  0  0  0
 31 32  1  0  0  0  0
 31 60  1  0  0  0  0
M  CHG  2   5  -1  10   1
M  END
> <PUBCHEM_COMPOUND_CID>
508790
> <PUBCHEM_COMPOUND_CANONICALIZED>
1
> <PUBCHEM_CACTVS_COMPLEXITY>
707
> <PUBCHEM_CACTVS_HBOND_ACCEPTOR>
6
> <PUBCHEM_CACTVS_HBOND_DONOR>
1
> <PUBCHEM_CACTVS_ROTATABLE_BOND>
6
> <PUBCHEM_CACTVS_SUBSKEYS>
AAADceB7uABEAAAAAAAAAAAAAAAAAWJAAAA8QAAAAAAAAAABwAAAHgYUAAAADSrF2CSwgYPQQAiNAiFSUwCDAIBkDxBoiJmIZsoIYDKhl7GUIQhglgCoyYccgQAOBAAAAAAAAAAIAAAAAAAAAAAAAAAAAA==
> <PUBCHEM_IUPAC_OPENEYE_NAME>
N-[[1-[(4-chlorophenyl)methyl]-4-piperidyl]methyl]-1-(5-nitrothiophene-3-carbonyl)pyrrolidine-2-carboxamide
> <PUBCHEM_IUPAC_CAS_NAME>
N-[[1-[(4-chlorophenyl)methyl]-4-piperidinyl]methyl]-1-[(5-nitro-3-thiophenyl)-oxomethyl]-2-pyrrolidinecarboxamide
> <PUBCHEM_IUPAC_NAME_MARKUP>
<I>N</I>-[[1-[(4-chlorophenyl)methyl]piperidin-4-yl]methyl]-1-(5-nitrothiophene-3-carbonyl)pyrrolidine-2-carboxamide
> <PUBCHEM_IUPAC_NAME>
N-[[1-[(4-chlorophenyl)methyl]piperidin-4-yl]methyl]-1-(5-nitrothiophene-3-carbonyl)pyrrolidine-2-carboxamide
> <PUBCHEM_IUPAC_SYSTEMATIC_NAME>
N-[[1-[(4-chlorophenyl)methyl]piperidin-4-yl]methyl]-1-(5-nitrothiophen-3-yl)carbonyl-pyrrolidine-2-carboxamide
> <PUBCHEM_IUPAC_TRADITIONAL_NAME>
N-[[1-(4-chlorobenzyl)-4-piperidyl]methyl]-1-(5-nitrothiophene-3-carbonyl)pyrrolidine-2-carboxamide
> <PUBCHEM_IUPAC_INCHI>
InChI=1S/C23H27ClN4O4S/c24-19-5-3-17(4-6-19)14-26-10-7-16(8-11-26)13-25-22(29)20-2-1-9-27(20)23(30)18-12-21(28(31)32)33-15-18/h3-6,12,15-16,20H,1-2,7-11,13-14H2,(H,25,29)
> <PUBCHEM_IUPAC_INCHIKEY>
MQSRIWFWWPMPLT-UHFFFAOYSA-N
> <PUBCHEM_XLOGP3_AA>
4
> <PUBCHEM_EXACT_MASS>
490.1441542
> <PUBCHEM_MOLECULAR_FORMULA>
C23H27ClN4O4S
> <PUBCHEM_MOLECULAR_WEIGHT>
491.0
> <PUBCHEM_OPENEYE_CAN_SMILES>
C1CC(N(C1)C(=O)C2=CSC(=C2)[N+](=O)[O-])C(=O)NCC3CCN(CC3)CC4=CC=C(C=C4)Cl
> <PUBCHEM_OPENEYE_ISO_SMILES>
C1CC(N(C1)C(=O)C2=CSC(=C2)[N+](=O)[O-])C(=O)NCC3CCN(CC3)CC4=CC=C(C=C4)Cl
> <PUBCHEM_CACTVS_TPSA>
127
> <PUBCHEM_MONOISOTOPIC_WEIGHT>
490.1441542
> <PUBCHEM_TOTAL_CHARGE>
0
> <PUBCHEM_HEAVY_ATOM_COUNT>
33
> <PUBCHEM_ATOM_DEF_STEREO_COUNT>
0
> <PUBCHEM_ATOM_UDEF_STEREO_COUNT>
1
> <PUBCHEM_BOND_DEF_STEREO_COUNT>
0
> <PUBCHEM_BOND_UDEF_STEREO_COUNT>
0
> <PUBCHEM_ISOTOPIC_ATOM_COUNT>
0
> <PUBCHEM_COMPONENT_COUNT>
1
> <PUBCHEM_CACTVS_TAUTO_COUNT>
-1
> <PUBCHEM_COORDINATE_TYPE>
1
5
255
> <PUBCHEM_BONDANNOTATIONS>
17  21  3
2  29  8
2  33  8
24  26  8
24  27  8
25  28  8
25  29  8
26  30  8
27  31  8
28  33  8
30  32  8
31  32  8
$$$$
