508778
  -OEChem-10302200282D
 67 69  0     1  0  0  0  0  0999 V2000
   10.7942    7.2500    0.0000 Cl  0  0  0  0  0  0  0  0  0  0  0  0
    3.0000   -7.2500    0.0000 F   0  0  0  0  0  0  0  0  0  0  0  0
    2.0000   -6.2500    0.0000 F   0  0  0  0  0  0  0  0  0  0  0  0
    4.0000   -6.2500    0.0000 F   0  0  0  0  0  0  0  0  0  0  0  0
    7.3301   -0.7500    0.0000 O   0  0  0  0  0  0  0  0  0  0  0  0
    3.8660   -1.7500    0.0000 O   0  0  0  0  0  0  0  0  0  0  0  0
    3.0000   -5.2500    0.0000 O   0  0  0  0  0  0  0  0  0  0  0  0
    7.3301    4.2500    0.0000 N   0  0  0  0  0  0  0  0  0  0  0  0
    6.4641    0.7500    0.0000 N   0  0  0  0  0  0  0  0  0  0  0  0
    5.5981   -1.7500    0.0000 N   0  0  0  0  0  0  0  0  0  0  0  0
    7.3301    2.2500    0.0000 C   0  0  0  0  0  0  0  0  0  0  0  0
    6.4641    2.7500    0.0000 C   0  0  0  0  0  0  0  0  0  0  0  0
    8.1962    2.7500    0.0000 C   0  0  0  0  0  0  0  0  0  0  0  0
    6.4641    3.7500    0.0000 C   0  0  0  0  0  0  0  0  0  0  0  0
    8.1962    3.7500    0.0000 C   0  0  0  0  0  0  0  0  0  0  0  0
    7.3301    1.2500    0.0000 C   0  0  0  0  0  0  0  0  0  0  0  0
    7.3301    5.2500    0.0000 C   0  0  0  0  0  0  0  0  0  0  0  0
    8.1962    5.7500    0.0000 C   0  0  0  0  0  0  0  0  0  0  0  0
    5.5981   -0.7500    0.0000 C   0  0  3  0  0  0  0  0  0  0  0  0
    6.4641   -0.2500    0.0000 C   0  0  0  0  0  0  0  0  0  0  0  0
    4.7320   -0.2500    0.0000 C   0  0  0  0  0  0  0  0  0  0  0  0
    9.0622    5.2500    0.0000 C   0  0  0  0  0  0  0  0  0  0  0  0
    8.1962    6.7500    0.0000 C   0  0  0  0  0  0  0  0  0  0  0  0
    4.7320    0.7500    0.0000 C   0  0  0  0  0  0  0  0  0  0  0  0
    3.8660   -0.7500    0.0000 C   0  0  0  0  0  0  0  0  0  0  0  0
    9.9282    5.7500    0.0000 C   0  0  0  0  0  0  0  0  0  0  0  0
    9.0622    7.2500    0.0000 C   0  0  0  0  0  0  0  0  0  0  0  0
    4.7320   -2.2500    0.0000 C   0  0  0  0  0  0  0  0  0  0  0  0
    9.9282    6.7500    0.0000 C   0  0  0  0  0  0  0  0  0  0  0  0
    4.7320   -3.2500    0.0000 C   0  0  0  0  0  0  0  0  0  0  0  0
    3.8660   -3.7500    0.0000 C   0  0  0  0  0  0  0  0  0  0  0  0
    5.5981   -3.7500    0.0000 C   0  0  0  0  0  0  0  0  0  0  0  0
    3.8660   -4.7500    0.0000 C   0  0  0  0  0  0  0  0  0  0  0  0
    5.5981   -4.7500    0.0000 C   0  0  0  0  0  0  0  0  0  0  0  0
    4.7320   -5.2500    0.0000 C   0  0  0  0  0  0  0  0  0  0  0  0
    3.0000   -6.2500    0.0000 C   0  0  0  0  0  0  0  0  0  0  0  0
    7.8671    1.9400    0.0000 H   0  0  0  0  0  0  0  0  0  0  0  0
    5.8535    2.8577    0.0000 H   0  0  0  0  0  0  0  0  0  0  0  0
    6.2520    2.1674    0.0000 H   0  0  0  0  0  0  0  0  0  0  0  0
    8.4082    2.1674    0.0000 H   0  0  0  0  0  0  0  0  0  0  0  0
    8.8067    2.8577    0.0000 H   0  0  0  0  0  0  0  0  0  0  0  0
    6.2520    4.3326    0.0000 H   0  0  0  0  0  0  0  0  0  0  0  0
    5.8535    3.6423    0.0000 H   0  0  0  0  0  0  0  0  0  0  0  0
    8.8067    3.6423    0.0000 H   0  0  0  0  0  0  0  0  0  0  0  0
    8.4082    4.3326    0.0000 H   0  0  0  0  0  0  0  0  0  0  0  0
    7.5422    0.6674    0.0000 H   0  0  0  0  0  0  0  0  0  0  0  0
    7.9407    1.3577    0.0000 H   0  0  0  0  0  0  0  0  0  0  0  0
    7.1181    5.8326    0.0000 H   0  0  0  0  0  0  0  0  0  0  0  0
    6.7196    5.1423    0.0000 H   0  0  0  0  0  0  0  0  0  0  0  0
    5.9272    1.0600    0.0000 H   0  0  0  0  0  0  0  0  0  0  0  0
    6.1350   -1.0600    0.0000 H   0  0  0  0  0  0  0  0  0  0  0  0
    4.7320   -0.8700    0.0000 H   0  0  0  0  0  0  0  0  0  0  0  0
    6.1350   -2.0600    0.0000 H   0  0  0  0  0  0  0  0  0  0  0  0
    9.0622    4.6300    0.0000 H   0  0  0  0  0  0  0  0  0  0  0  0
    7.6592    7.0600    0.0000 H   0  0  0  0  0  0  0  0  0  0  0  0
    5.3520    0.7500    0.0000 H   0  0  0  0  0  0  0  0  0  0  0  0
    4.7320    1.3700    0.0000 H   0  0  0  0  0  0  0  0  0  0  0  0
    4.1120    0.7500    0.0000 H   0  0  0  0  0  0  0  0  0  0  0  0
    3.5560   -0.2131    0.0000 H   0  0  0  0  0  0  0  0  0  0  0  0
    3.3291   -1.0600    0.0000 H   0  0  0  0  0  0  0  0  0  0  0  0
    4.1760   -1.2869    0.0000 H   0  0  0  0  0  0  0  0  0  0  0  0
   10.4651    5.4400    0.0000 H   0  0  0  0  0  0  0  0  0  0  0  0
    9.0622    7.8700    0.0000 H   0  0  0  0  0  0  0  0  0  0  0  0
    3.3291   -3.4400    0.0000 H   0  0  0  0  0  0  0  0  0  0  0  0
    6.1350   -3.4400    0.0000 H   0  0  0  0  0  0  0  0  0  0  0  0
    6.1350   -5.0600    0.0000 H   0  0  0  0  0  0  0  0  0  0  0  0
    4.7320   -5.8700    0.0000 H   0  0  0  0  0  0  0  0  0  0  0  0
  1 29  1  0  0  0  0
  2 36  1  0  0  0  0
  3 36  1  0  0  0  0
  4 36  1  0  0  0  0
  5 20  2  0  0  0  0
  6 28  2  0  0  0  0
  7 33  1  0  0  0  0
  7 36  1  0  0  0  0
  8 14  1  0  0  0  0
  8 15  1  0  0  0  0
  8 17  1  0  0  0  0
  9 16  1  0  0  0  0
  9 20  1  0  0  0  0
  9 50  1  0  0  0  0
 10 19  1  0  0  0  0
 10 28  1  0  0  0  0
 10 53  1  0  0  0  0
 11 12  1  0  0  0  0
 11 13  1  0  0  0  0
 11 16  1  0  0  0  0
 11 37  1  0  0  0  0
 12 14  1  0  0  0  0
 12 38  1  0  0  0  0
 12 39  1  0  0  0  0
 13 15  1  0  0  0  0
 13 40  1  0  0  0  0
 13 41  1  0  0  0  0
 14 42  1  0  0  0  0
 14 43  1  0  0  0  0
 15 44  1  0  0  0  0
 15 45  1  0  0  0  0
 16 46  1  0  0  0  0
 16 47  1  0  0  0  0
 17 18  1  0  0  0  0
 17 48  1  0  0  0  0
 17 49  1  0  0  0  0
 18 22  2  0  0  0  0
 18 23  1  0  0  0  0
 19 20  1  0  0  0  0
 19 21  1  0  0  0  0
 19 51  1  0  0  0  0
 21 24  1  0  0  0  0
 21 25  1  0  0  0  0
 21 52  1  0  0  0  0
 22 26  1  0  0  0  0
 22 54  1  0  0  0  0
 23 27  2  0  0  0  0
 23 55  1  0  0  0  0
 24 56  1  0  0  0  0
 24 57  1  0  0  0  0
 24 58  1  0  0  0  0
 25 59  1  0  0  0  0
 25 60  1  0  0  0  0
 25 61  1  0  0  0  0
 26 29  2  0  0  0  0
 26 62  1  0  0  0  0
 27 29  1  0  0  0  0
 27 63  1  0  0  0  0
 28 30  1  0  0  0  0
 30 31  2  0  0  0  0
 30 32  1  0  0  0  0
 31 33  1  0  0  0  0
 31 64  1  0  0  0  0
 32 34  2  0  0  0  0
 32 65  1  0  0  0  0
 33 35  2  0  0  0  0
 34 35  1  0  0  0  0
 34 66  1  0  0  0  0
 35 67  1  0  0  0  0
M  END
> <PUBCHEM_COMPOUND_CID>
508778
> <PUBCHEM_COMPOUND_CANONICALIZED>
1
> <PUBCHEM_CACTVS_COMPLEXITY>
708
> <PUBCHEM_CACTVS_HBOND_ACCEPTOR>
7
> <PUBCHEM_CACTVS_HBOND_DONOR>
2
> <PUBCHEM_CACTVS_ROTATABLE_BOND>
9
> <PUBCHEM_CACTVS_SUBSKEYS>
AAADceB7MYAEAAAAAAAAAAAAAAAAAAAAAAA8YIAAAAAAAAABQAAAHwIQAAAADS7BmDQyBoPABACIAiFSEACCCAAkJQAIiIGODsgMZjKFtzuUMShk1hGIqYe6yBCOBAABAAAAAAAIAAIAAAAAAAAAAAAAAA==
> <PUBCHEM_IUPAC_OPENEYE_NAME>
N-[1-[[1-[(4-chlorophenyl)methyl]-4-piperidyl]methylcarbamoyl]-2-methyl-propyl]-3-(trifluoromethoxy)benzamide
> <PUBCHEM_IUPAC_CAS_NAME>
N-[1-[[1-[(4-chlorophenyl)methyl]-4-piperidinyl]methylamino]-3-methyl-1-oxobutan-2-yl]-3-(trifluoromethoxy)benzamide
> <PUBCHEM_IUPAC_NAME_MARKUP>
<I>N</I>-[1-[[1-[(4-chlorophenyl)methyl]piperidin-4-yl]methylamino]-3-methyl-1-oxobutan-2-yl]-3-(trifluoromethoxy)benzamide
> <PUBCHEM_IUPAC_NAME>
N-[1-[[1-[(4-chlorophenyl)methyl]piperidin-4-yl]methylamino]-3-methyl-1-oxobutan-2-yl]-3-(trifluoromethoxy)benzamide
> <PUBCHEM_IUPAC_SYSTEMATIC_NAME>
N-[1-[[1-[(4-chlorophenyl)methyl]piperidin-4-yl]methylamino]-3-methyl-1-oxidanylidene-butan-2-yl]-3-(trifluoromethyloxy)benzamide
> <PUBCHEM_IUPAC_TRADITIONAL_NAME>
N-[1-[[1-(4-chlorobenzyl)-4-piperidyl]methylcarbamoyl]-2-methyl-propyl]-3-(trifluoromethoxy)benzamide
> <PUBCHEM_IUPAC_INCHI>
InChI=1S/C26H31ClF3N3O3/c1-17(2)23(32-24(34)20-4-3-5-22(14-20)36-26(28,29)30)25(35)31-15-18-10-12-33(13-11-18)16-19-6-8-21(27)9-7-19/h3-9,14,17-18,23H,10-13,15-16H2,1-2H3,(H,31,35)(H,32,34)
> <PUBCHEM_IUPAC_INCHIKEY>
PLPVPUHYXVTJEM-UHFFFAOYSA-N
> <PUBCHEM_XLOGP3_AA>
6
> <PUBCHEM_EXACT_MASS>
525.2006040
> <PUBCHEM_MOLECULAR_FORMULA>
C26H31ClF3N3O3
> <PUBCHEM_MOLECULAR_WEIGHT>
526.0
> <PUBCHEM_OPENEYE_CAN_SMILES>
CC(C)C(C(=O)NCC1CCN(CC1)CC2=CC=C(C=C2)Cl)NC(=O)C3=CC(=CC=C3)OC(F)(F)F
> <PUBCHEM_OPENEYE_ISO_SMILES>
CC(C)C(C(=O)NCC1CCN(CC1)CC2=CC=C(C=C2)Cl)NC(=O)C3=CC(=CC=C3)OC(F)(F)F
> <PUBCHEM_CACTVS_TPSA>
70.7
> <PUBCHEM_MONOISOTOPIC_WEIGHT>
525.2006040
> <PUBCHEM_TOTAL_CHARGE>
0
> <PUBCHEM_HEAVY_ATOM_COUNT>
36
> <PUBCHEM_ATOM_DEF_STEREO_COUNT>
0
> <PUBCHEM_ATOM_UDEF_STEREO_COUNT>
1
> <PUBCHEM_BOND_DEF_STEREO_COUNT>
0
> <PUBCHEM_BOND_UDEF_STEREO_COUNT>
0
> <PUBCHEM_ISOTOPIC_ATOM_COUNT>
0
> <PUBCHEM_COMPONENT_COUNT>
1
> <PUBCHEM_CACTVS_TAUTO_COUNT>
-1
> <PUBCHEM_COORDINATE_TYPE>
1
5
255
> <PUBCHEM_BONDANNOTATIONS>
18  22  8
18  23  8
19  21  3
22  26  8
23  27  8
26  29  8
27  29  8
30  31  8
30  32  8
31  33  8
32  34  8
33  35  8
34  35  8
$$$$
