508707
  -OEChem-10302200282D
 87 89  0     1  0  0  0  0  0999 V2000
   13.2207   -1.3599    0.0000 S   0  0  0  0  0  0  0  0  0  0  0  0
   10.2852   -1.9785    0.0000 O   0  0  0  0  0  0  0  0  0  0  0  0
   13.9650   -0.6920    0.0000 O   0  0  0  0  0  0  0  0  0  0  0  0
   12.4764   -2.0277    0.0000 O   0  0  0  0  0  0  0  0  0  0  0  0
    6.3246   -0.1581    0.0000 O   0  0  0  0  0  0  0  0  0  0  0  0
    4.6318    3.0254    0.0000 O   0  0  0  0  0  0  0  0  0  0  0  0
   12.5528   -0.6156    0.0000 N   0  0  3  0  0  0  0  0  0  0  0  0
    7.6138    0.9987    0.0000 N   0  0  0  0  0  0  0  0  0  0  0  0
    6.2781    2.4873    0.0000 N   0  0  0  0  0  0  0  0  0  0  0  0
    4.6783   -1.2294    0.0000 N   0  0  0  0  0  0  0  0  0  0  0  0
   15.8921   -4.3371    0.0000 N   0  0  0  0  0  0  0  0  0  0  0  0
   11.5743   -0.8218    0.0000 C   0  0  1  0  0  0  0  0  0  0  0  0
   10.9065   -0.0775    0.0000 C   0  0  0  0  0  0  0  0  0  0  0  0
   12.8635    0.3349    0.0000 C   0  0  0  0  0  0  0  0  0  0  0  0
    9.9280   -0.2837    0.0000 C   0  0  0  0  0  0  0  0  0  0  0  0
   12.1957    1.0792    0.0000 C   0  0  0  0  0  0  0  0  0  0  0  0
   11.2637   -1.7723    0.0000 C   0  0  0  0  0  0  0  0  0  0  0  0
    9.2601    0.4606    0.0000 C   0  0  0  0  0  0  0  0  0  0  0  0
    8.2816    0.2544    0.0000 C   0  0  0  0  0  0  0  0  0  0  0  0
   13.8885   -2.1042    0.0000 C   0  0  0  0  0  0  0  0  0  0  0  0
   12.5063    2.0298    0.0000 C   0  0  0  0  0  0  0  0  0  0  0  0
   11.2171    0.8730    0.0000 C   0  0  0  0  0  0  0  0  0  0  0  0
    5.9674    1.5368    0.0000 C   0  0  1  0  0  0  0  0  0  0  0  0
    4.9889    1.3305    0.0000 C   0  0  0  0  0  0  0  0  0  0  0  0
    6.6353    0.7925    0.0000 C   0  0  0  0  0  0  0  0  0  0  0  0
   14.8670   -1.8980    0.0000 C   0  0  0  0  0  0  0  0  0  0  0  0
   13.5779   -3.0547    0.0000 C   0  0  0  0  0  0  0  0  0  0  0  0
    4.6783    0.3800    0.0000 C   0  0  0  0  0  0  0  0  0  0  0  0
    3.7320    0.0753    0.0000 C   0  0  0  0  0  0  0  0  0  0  0  0
   15.5349   -2.6423    0.0000 C   0  0  0  0  0  0  0  0  0  0  0  0
   14.2457   -3.7990    0.0000 C   0  0  0  0  0  0  0  0  0  0  0  0
   15.2242   -3.5928    0.0000 C   0  0  0  0  0  0  0  0  0  0  0  0
    3.7320   -0.9247    0.0000 C   0  0  0  0  0  0  0  0  0  0  0  0
    5.2619   -0.4247    0.0000 C   0  0  0  0  0  0  0  0  0  0  0  0
    5.6103    3.2316    0.0000 C   0  0  0  0  0  0  0  0  0  0  0  0
    5.9209    4.1821    0.0000 C   0  0  0  0  0  0  0  0  0  0  0  0
    2.8660    0.5753    0.0000 C   0  0  0  0  0  0  0  0  0  0  0  0
    2.8660   -1.4247    0.0000 C   0  0  0  0  0  0  0  0  0  0  0  0
    2.0000    0.0753    0.0000 C   0  0  0  0  0  0  0  0  0  0  0  0
    5.2531    4.9264    0.0000 C   0  0  0  0  0  0  0  0  0  0  0  0
    6.8994    4.3883    0.0000 C   0  0  0  0  0  0  0  0  0  0  0  0
    2.0000   -0.9247    0.0000 C   0  0  0  0  0  0  0  0  0  0  0  0
   11.7669   -0.2325    0.0000 H   0  0  0  0  0  0  0  0  0  0  0  0
   11.4328    0.2502    0.0000 H   0  0  0  0  0  0  0  0  0  0  0  0
   10.6752    0.4978    0.0000 H   0  0  0  0  0  0  0  0  0  0  0  0
   13.4104    0.0429    0.0000 H   0  0  0  0  0  0  0  0  0  0  0  0
   13.2461    0.8229    0.0000 H   0  0  0  0  0  0  0  0  0  0  0  0
    9.4016   -0.6113    0.0000 H   0  0  0  0  0  0  0  0  0  0  0  0
   10.1592   -0.8590    0.0000 H   0  0  0  0  0  0  0  0  0  0  0  0
   12.0030    0.4899    0.0000 H   0  0  0  0  0  0  0  0  0  0  0  0
   11.2842   -2.3920    0.0000 H   0  0  0  0  0  0  0  0  0  0  0  0
   11.8775   -1.8597    0.0000 H   0  0  0  0  0  0  0  0  0  0  0  0
    9.7865    0.7882    0.0000 H   0  0  0  0  0  0  0  0  0  0  0  0
    9.0289    1.0358    0.0000 H   0  0  0  0  0  0  0  0  0  0  0  0
    7.7553   -0.0733    0.0000 H   0  0  0  0  0  0  0  0  0  0  0  0
    8.5129   -0.3209    0.0000 H   0  0  0  0  0  0  0  0  0  0  0  0
   13.0956    1.8372    0.0000 H   0  0  0  0  0  0  0  0  0  0  0  0
   12.6989    2.6191    0.0000 H   0  0  0  0  0  0  0  0  0  0  0  0
   11.9170    2.2224    0.0000 H   0  0  0  0  0  0  0  0  0  0  0  0
   11.0893    1.4797    0.0000 H   0  0  0  0  0  0  0  0  0  0  0  0
   10.6105    0.7452    0.0000 H   0  0  0  0  0  0  0  0  0  0  0  0
   11.3450    0.2664    0.0000 H   0  0  0  0  0  0  0  0  0  0  0  0
    5.5534    1.9982    0.0000 H   0  0  0  0  0  0  0  0  0  0  0  0
    7.8064    1.5880    0.0000 H   0  0  0  0  0  0  0  0  0  0  0  0
   10.0926   -2.5678    0.0000 H   0  0  0  0  0  0  0  0  0  0  0  0
    4.9684    1.9502    0.0000 H   0  0  0  0  0  0  0  0  0  0  0  0
    4.3751    1.4179    0.0000 H   0  0  0  0  0  0  0  0  0  0  0  0
   15.0596   -1.3086    0.0000 H   0  0  0  0  0  0  0  0  0  0  0  0
   12.9712   -3.1826    0.0000 H   0  0  0  0  0  0  0  0  0  0  0  0
    6.8848    2.6151    0.0000 H   0  0  0  0  0  0  0  0  0  0  0  0
   16.1415   -2.5144    0.0000 H   0  0  0  0  0  0  0  0  0  0  0  0
   14.0531   -4.3883    0.0000 H   0  0  0  0  0  0  0  0  0  0  0  0
    5.8819   -0.4247    0.0000 H   0  0  0  0  0  0  0  0  0  0  0  0
    4.8709   -1.8188    0.0000 H   0  0  0  0  0  0  0  0  0  0  0  0
    6.1135    4.7714    0.0000 H   0  0  0  0  0  0  0  0  0  0  0  0
    2.8660    1.1953    0.0000 H   0  0  0  0  0  0  0  0  0  0  0  0
    2.8660   -2.0447    0.0000 H   0  0  0  0  0  0  0  0  0  0  0  0
    1.4631    0.3853    0.0000 H   0  0  0  0  0  0  0  0  0  0  0  0
    5.7145    5.3405    0.0000 H   0  0  0  0  0  0  0  0  0  0  0  0
    4.8390    5.3879    0.0000 H   0  0  0  0  0  0  0  0  0  0  0  0
    4.7916    4.5123    0.0000 H   0  0  0  0  0  0  0  0  0  0  0  0
    7.0273    3.7816    0.0000 H   0  0  0  0  0  0  0  0  0  0  0  0
    7.5061    4.5162    0.0000 H   0  0  0  0  0  0  0  0  0  0  0  0
    6.7716    4.9950    0.0000 H   0  0  0  0  0  0  0  0  0  0  0  0
    1.4631   -1.2347    0.0000 H   0  0  0  0  0  0  0  0  0  0  0  0
   16.4987   -4.2092    0.0000 H   0  0  0  0  0  0  0  0  0  0  0  0
   15.6994   -4.9264    0.0000 H   0  0  0  0  0  0  0  0  0  0  0  0
  1  3  2  0  0  0  0
  1  4  2  0  0  0  0
  1  7  1  0  0  0  0
  1 20  1  0  0  0  0
  2 17  1  0  0  0  0
  2 65  1  0  0  0  0
  5 25  2  0  0  0  0
  6 35  2  0  0  0  0
 12  7  1  6  0  0  0
  7 14  1  0  0  0  0
  8 19  1  0  0  0  0
  8 25  1  0  0  0  0
  8 64  1  0  0  0  0
 23  9  1  6  0  0  0
  9 35  1  0  0  0  0
  9 70  1  0  0  0  0
 10 33  1  0  0  0  0
 10 34  1  0  0  0  0
 10 74  1  0  0  0  0
 11 32  1  0  0  0  0
 11 86  1  0  0  0  0
 11 87  1  0  0  0  0
 12 13  1  0  0  0  0
 12 17  1  0  0  0  0
 12 43  1  0  0  0  0
 13 15  1  0  0  0  0
 13 44  1  0  0  0  0
 13 45  1  0  0  0  0
 14 16  1  0  0  0  0
 14 46  1  0  0  0  0
 14 47  1  0  0  0  0
 15 18  1  0  0  0  0
 15 48  1  0  0  0  0
 15 49  1  0  0  0  0
 16 21  1  0  0  0  0
 16 22  1  0  0  0  0
 16 50  1  0  0  0  0
 17 51  1  0  0  0  0
 17 52  1  0  0  0  0
 18 19  1  0  0  0  0
 18 53  1  0  0  0  0
 18 54  1  0  0  0  0
 19 55  1  0  0  0  0
 19 56  1  0  0  0  0
 20 26  2  0  0  0  0
 20 27  1  0  0  0  0
 21 57  1  0  0  0  0
 21 58  1  0  0  0  0
 21 59  1  0  0  0  0
 22 60  1  0  0  0  0
 22 61  1  0  0  0  0
 22 62  1  0  0  0  0
 23 24  1  0  0  0  0
 23 25  1  0  0  0  0
 23 63  1  0  0  0  0
 24 28  1  0  0  0  0
 24 66  1  0  0  0  0
 24 67  1  0  0  0  0
 26 30  1  0  0  0  0
 26 68  1  0  0  0  0
 27 31  2  0  0  0  0
 27 69  1  0  0  0  0
 28 29  1  0  0  0  0
 28 34  2  0  0  0  0
 29 33  1  0  0  0  0
 29 37  2  0  0  0  0
 30 32  2  0  0  0  0
 30 71  1  0  0  0  0
 31 32  1  0  0  0  0
 31 72  1  0  0  0  0
 33 38  2  0  0  0  0
 34 73  1  0  0  0  0
 35 36  1  0  0  0  0
 36 40  1  0  0  0  0
 36 41  1  0  0  0  0
 36 75  1  0  0  0  0
 37 39  1  0  0  0  0
 37 76  1  0  0  0  0
 38 42  1  0  0  0  0
 38 77  1  0  0  0  0
 39 42  2  0  0  0  0
 39 78  1  0  0  0  0
 40 79  1  0  0  0  0
 40 80  1  0  0  0  0
 40 81  1  0  0  0  0
 41 82  1  0  0  0  0
 41 83  1  0  0  0  0
 41 84  1  0  0  0  0
 42 85  1  0  0  0  0
M  END
> <PUBCHEM_COMPOUND_CID>
508707
> <PUBCHEM_COMPOUND_CANONICALIZED>
1
> <PUBCHEM_CACTVS_COMPLEXITY>
948
> <PUBCHEM_CACTVS_HBOND_ACCEPTOR>
7
> <PUBCHEM_CACTVS_HBOND_DONOR>
5
> <PUBCHEM_CACTVS_ROTATABLE_BOND>
16
> <PUBCHEM_CACTVS_SUBSKEYS>
AAADcfB7uABAAAAAAAAAAAAAAAAAAWAAAAAwYAAAAAAAAFgB9AAAHgQQSAAADSjh3gY+wfLJkgKoAzV3VHDCgDAxAiAI2bm4ZJgKcPLAkbGUYAhklgDYyAeYycCOgAQAAAACAAAACAAAAAQAAAAAAAAAAA==
> <PUBCHEM_IUPAC_OPENEYE_NAME>
N-[(1S)-2-[[(5S)-5-[(4-aminophenyl)sulfonyl-isobutyl-amino]-6-hydroxy-hexyl]amino]-1-(1H-indol-3-ylmethyl)-2-oxo-ethyl]-2-methyl-propanamide
> <PUBCHEM_IUPAC_CAS_NAME>
N-[(2S)-1-[[(5S)-5-[(4-aminophenyl)sulfonyl-(2-methylpropyl)amino]-6-hydroxyhexyl]amino]-3-(1H-indol-3-yl)-1-oxopropan-2-yl]-2-methylpropanamide
> <PUBCHEM_IUPAC_NAME_MARKUP>
<I>N</I>-[(2<I>S</I>)-1-[[(5<I>S</I>)-5-[(4-aminophenyl)sulfonyl-(2-methylpropyl)amino]-6-hydroxyhexyl]amino]-3-(1<I>H</I>-indol-3-yl)-1-oxopropan-2-yl]-2-methylpropanamide
> <PUBCHEM_IUPAC_NAME>
N-[(2S)-1-[[(5S)-5-[(4-aminophenyl)sulfonyl-(2-methylpropyl)amino]-6-hydroxyhexyl]amino]-3-(1H-indol-3-yl)-1-oxopropan-2-yl]-2-methylpropanamide
> <PUBCHEM_IUPAC_SYSTEMATIC_NAME>
N-[(2S)-1-[[(5S)-5-[(4-aminophenyl)sulfonyl-(2-methylpropyl)amino]-6-oxidanyl-hexyl]amino]-3-(1H-indol-3-yl)-1-oxidanylidene-propan-2-yl]-2-methyl-propanamide
> <PUBCHEM_IUPAC_TRADITIONAL_NAME>
N-[(1S)-2-[[(5S)-6-hydroxy-5-[isobutyl(sulfanilyl)amino]hexyl]amino]-1-(1H-indol-3-ylmethyl)-2-keto-ethyl]-2-methyl-propionamide
> <PUBCHEM_IUPAC_INCHI>
InChI=1S/C31H45N5O5S/c1-21(2)19-36(42(40,41)26-14-12-24(32)13-15-26)25(20-37)9-7-8-16-33-31(39)29(35-30(38)22(3)4)17-23-18-34-28-11-6-5-10-27(23)28/h5-6,10-15,18,21-22,25,29,34,37H,7-9,16-17,19-20,32H2,1-4H3,(H,33,39)(H,35,38)/t25-,29-/m0/s1
> <PUBCHEM_IUPAC_INCHIKEY>
AXXUEVWGVIMMHT-SVEHJYQDSA-N
> <PUBCHEM_XLOGP3_AA>
4
> <PUBCHEM_EXACT_MASS>
599.31414073
> <PUBCHEM_MOLECULAR_FORMULA>
C31H45N5O5S
> <PUBCHEM_MOLECULAR_WEIGHT>
599.8
> <PUBCHEM_OPENEYE_CAN_SMILES>
CC(C)CN(C(CCCCNC(=O)C(CC1=CNC2=CC=CC=C21)NC(=O)C(C)C)CO)S(=O)(=O)C3=CC=C(C=C3)N
> <PUBCHEM_OPENEYE_ISO_SMILES>
CC(C)CN([C@@H](CCCCNC(=O)[C@H](CC1=CNC2=CC=CC=C21)NC(=O)C(C)C)CO)S(=O)(=O)C3=CC=C(C=C3)N
> <PUBCHEM_CACTVS_TPSA>
166
> <PUBCHEM_MONOISOTOPIC_WEIGHT>
599.31414073
> <PUBCHEM_TOTAL_CHARGE>
0
> <PUBCHEM_HEAVY_ATOM_COUNT>
42
> <PUBCHEM_ATOM_DEF_STEREO_COUNT>
2
> <PUBCHEM_ATOM_UDEF_STEREO_COUNT>
0
> <PUBCHEM_BOND_DEF_STEREO_COUNT>
0
> <PUBCHEM_BOND_UDEF_STEREO_COUNT>
0
> <PUBCHEM_ISOTOPIC_ATOM_COUNT>
0
> <PUBCHEM_COMPONENT_COUNT>
1
> <PUBCHEM_CACTVS_TAUTO_COUNT>
-1
> <PUBCHEM_COORDINATE_TYPE>
1
5
255
> <PUBCHEM_BONDANNOTATIONS>
10  33  8
10  34  8
20  26  8
20  27  8
26  30  8
27  31  8
28  29  8
28  34  8
29  33  8
29  37  8
30  32  8
31  32  8
33  38  8
37  39  8
38  42  8
39  42  8
12  7  6
23  9  6
$$$$
