508771
  -OEChem-10302200282D
 60 62  0     1  0  0  0  0  0999 V2000
   10.6603   -7.0000    0.0000 Cl  0  0  0  0  0  0  0  0  0  0  0  0
    2.0000    5.0000    0.0000 F   0  0  0  0  0  0  0  0  0  0  0  0
    3.7320    7.0000    0.0000 F   0  0  0  0  0  0  0  0  0  0  0  0
    4.7320    6.0000    0.0000 F   0  0  0  0  0  0  0  0  0  0  0  0
    2.7320    6.0000    0.0000 F   0  0  0  0  0  0  0  0  0  0  0  0
    5.4641    0.0000    0.0000 O   0  0  0  0  0  0  0  0  0  0  0  0
    6.3301    3.5000    0.0000 O   0  0  0  0  0  0  0  0  0  0  0  0
    9.7942   -2.5000    0.0000 N   0  0  0  0  0  0  0  0  0  0  0  0
    7.1962    0.0000    0.0000 N   0  0  0  0  0  0  0  0  0  0  0  0
    5.4641    2.0000    0.0000 N   0  0  0  0  0  0  0  0  0  0  0  0
    8.0622   -1.5000    0.0000 C   0  0  0  0  0  0  0  0  0  0  0  0
    8.9282   -1.0000    0.0000 C   0  0  0  0  0  0  0  0  0  0  0  0
    8.0622   -2.5000    0.0000 C   0  0  0  0  0  0  0  0  0  0  0  0
    9.7942   -1.5000    0.0000 C   0  0  0  0  0  0  0  0  0  0  0  0
    8.9282   -3.0000    0.0000 C   0  0  0  0  0  0  0  0  0  0  0  0
    7.1962   -1.0000    0.0000 C   0  0  0  0  0  0  0  0  0  0  0  0
   10.6603   -3.0000    0.0000 C   0  0  0  0  0  0  0  0  0  0  0  0
   10.6603   -4.0000    0.0000 C   0  0  0  0  0  0  0  0  0  0  0  0
    6.3301    0.5000    0.0000 C   0  0  0  0  0  0  0  0  0  0  0  0
    6.3301    1.5000    0.0000 C   0  0  3  0  0  0  0  0  0  0  0  0
   11.5263   -4.5000    0.0000 C   0  0  0  0  0  0  0  0  0  0  0  0
    9.7942   -4.5000    0.0000 C   0  0  0  0  0  0  0  0  0  0  0  0
    7.1962    2.0000    0.0000 C   0  0  0  0  0  0  0  0  0  0  0  0
   11.5263   -5.5000    0.0000 C   0  0  0  0  0  0  0  0  0  0  0  0
    9.7942   -5.5000    0.0000 C   0  0  0  0  0  0  0  0  0  0  0  0
   10.6603   -6.0000    0.0000 C   0  0  0  0  0  0  0  0  0  0  0  0
    5.4641    3.0000    0.0000 C   0  0  0  0  0  0  0  0  0  0  0  0
    4.5981    3.5000    0.0000 C   0  0  0  0  0  0  0  0  0  0  0  0
    4.5981    4.5000    0.0000 C   0  0  0  0  0  0  0  0  0  0  0  0
    3.7320    3.0000    0.0000 C   0  0  0  0  0  0  0  0  0  0  0  0
    3.7320    5.0000    0.0000 C   0  0  0  0  0  0  0  0  0  0  0  0
    2.8660    3.5000    0.0000 C   0  0  0  0  0  0  0  0  0  0  0  0
    2.8660    4.5000    0.0000 C   0  0  0  0  0  0  0  0  0  0  0  0
    3.7320    6.0000    0.0000 C   0  0  0  0  0  0  0  0  0  0  0  0
    8.0622   -0.8800    0.0000 H   0  0  0  0  0  0  0  0  0  0  0  0
    9.3267   -0.5251    0.0000 H   0  0  0  0  0  0  0  0  0  0  0  0
    8.5297   -0.5251    0.0000 H   0  0  0  0  0  0  0  0  0  0  0  0
    7.4516   -2.3923    0.0000 H   0  0  0  0  0  0  0  0  0  0  0  0
    7.8501   -3.0826    0.0000 H   0  0  0  0  0  0  0  0  0  0  0  0
   10.4048   -1.6077    0.0000 H   0  0  0  0  0  0  0  0  0  0  0  0
   10.0063   -0.9174    0.0000 H   0  0  0  0  0  0  0  0  0  0  0  0
    8.5297   -3.4750    0.0000 H   0  0  0  0  0  0  0  0  0  0  0  0
    9.3267   -3.4750    0.0000 H   0  0  0  0  0  0  0  0  0  0  0  0
    6.5856   -0.8923    0.0000 H   0  0  0  0  0  0  0  0  0  0  0  0
    6.9841   -1.5826    0.0000 H   0  0  0  0  0  0  0  0  0  0  0  0
   11.2708   -3.1077    0.0000 H   0  0  0  0  0  0  0  0  0  0  0  0
   10.8723   -2.4174    0.0000 H   0  0  0  0  0  0  0  0  0  0  0  0
    7.7331    0.3100    0.0000 H   0  0  0  0  0  0  0  0  0  0  0  0
    5.7932    1.1900    0.0000 H   0  0  0  0  0  0  0  0  0  0  0  0
   12.0632   -4.1900    0.0000 H   0  0  0  0  0  0  0  0  0  0  0  0
    9.2573   -4.1900    0.0000 H   0  0  0  0  0  0  0  0  0  0  0  0
    7.5062    1.4631    0.0000 H   0  0  0  0  0  0  0  0  0  0  0  0
    7.7331    2.3100    0.0000 H   0  0  0  0  0  0  0  0  0  0  0  0
    6.8862    2.5369    0.0000 H   0  0  0  0  0  0  0  0  0  0  0  0
    4.9272    1.6900    0.0000 H   0  0  0  0  0  0  0  0  0  0  0  0
   12.0632   -5.8100    0.0000 H   0  0  0  0  0  0  0  0  0  0  0  0
    9.2573   -5.8100    0.0000 H   0  0  0  0  0  0  0  0  0  0  0  0
    5.1350    4.8100    0.0000 H   0  0  0  0  0  0  0  0  0  0  0  0
    3.7320    2.3800    0.0000 H   0  0  0  0  0  0  0  0  0  0  0  0
    2.3291    3.1900    0.0000 H   0  0  0  0  0  0  0  0  0  0  0  0
  1 26  1  0  0  0  0
  2 33  1  0  0  0  0
  3 34  1  0  0  0  0
  4 34  1  0  0  0  0
  5 34  1  0  0  0  0
  6 19  2  0  0  0  0
  7 27  2  0  0  0  0
  8 14  1  0  0  0  0
  8 15  1  0  0  0  0
  8 17  1  0  0  0  0
  9 16  1  0  0  0  0
  9 19  1  0  0  0  0
  9 48  1  0  0  0  0
 10 20  1  0  0  0  0
 10 27  1  0  0  0  0
 10 55  1  0  0  0  0
 11 12  1  0  0  0  0
 11 13  1  0  0  0  0
 11 16  1  0  0  0  0
 11 35  1  0  0  0  0
 12 14  1  0  0  0  0
 12 36  1  0  0  0  0
 12 37  1  0  0  0  0
 13 15  1  0  0  0  0
 13 38  1  0  0  0  0
 13 39  1  0  0  0  0
 14 40  1  0  0  0  0
 14 41  1  0  0  0  0
 15 42  1  0  0  0  0
 15 43  1  0  0  0  0
 16 44  1  0  0  0  0
 16 45  1  0  0  0  0
 17 18  1  0  0  0  0
 17 46  1  0  0  0  0
 17 47  1  0  0  0  0
 18 21  2  0  0  0  0
 18 22  1  0  0  0  0
 19 20  1  0  0  0  0
 20 23  1  0  0  0  0
 20 49  1  0  0  0  0
 21 24  1  0  0  0  0
 21 50  1  0  0  0  0
 22 25  2  0  0  0  0
 22 51  1  0  0  0  0
 23 52  1  0  0  0  0
 23 53  1  0  0  0  0
 23 54  1  0  0  0  0
 24 26  2  0  0  0  0
 24 56  1  0  0  0  0
 25 26  1  0  0  0  0
 25 57  1  0  0  0  0
 27 28  1  0  0  0  0
 28 29  2  0  0  0  0
 28 30  1  0  0  0  0
 29 31  1  0  0  0  0
 29 58  1  0  0  0  0
 30 32  2  0  0  0  0
 30 59  1  0  0  0  0
 31 33  2  0  0  0  0
 31 34  1  0  0  0  0
 32 33  1  0  0  0  0
 32 60  1  0  0  0  0
M  END
> <PUBCHEM_COMPOUND_CID>
508771
> <PUBCHEM_COMPOUND_CANONICALIZED>
1
> <PUBCHEM_CACTVS_COMPLEXITY>
680
> <PUBCHEM_CACTVS_HBOND_ACCEPTOR>
7
> <PUBCHEM_CACTVS_HBOND_DONOR>
2
> <PUBCHEM_CACTVS_ROTATABLE_BOND>
7
> <PUBCHEM_CACTVS_SUBSKEYS>
AAADceB7McAEAAAAAAAAAAAAAAAAAAAAAAA8YIAAAAAAAAABQAAAHwIQAAAADSrBmDwyAIPAAACIAiFSEACCAAAkBQAIiIGIBsgIYDKBlzGUIQhglgCIiYcYiECOBAACAAAAAAAIAAQAAAAAAAAAAAAAAA==
> <PUBCHEM_IUPAC_OPENEYE_NAME>
N-[2-[[1-[(4-chlorophenyl)methyl]-4-piperidyl]methylamino]-1-methyl-2-oxo-ethyl]-4-fluoro-3-(trifluoromethyl)benzamide
> <PUBCHEM_IUPAC_CAS_NAME>
N-[1-[[1-[(4-chlorophenyl)methyl]-4-piperidinyl]methylamino]-1-oxopropan-2-yl]-4-fluoro-3-(trifluoromethyl)benzamide
> <PUBCHEM_IUPAC_NAME_MARKUP>
<I>N</I>-[1-[[1-[(4-chlorophenyl)methyl]piperidin-4-yl]methylamino]-1-oxopropan-2-yl]-4-fluoro-3-(trifluoromethyl)benzamide
> <PUBCHEM_IUPAC_NAME>
N-[1-[[1-[(4-chlorophenyl)methyl]piperidin-4-yl]methylamino]-1-oxopropan-2-yl]-4-fluoro-3-(trifluoromethyl)benzamide
> <PUBCHEM_IUPAC_SYSTEMATIC_NAME>
N-[1-[[1-[(4-chlorophenyl)methyl]piperidin-4-yl]methylamino]-1-oxidanylidene-propan-2-yl]-4-fluoranyl-3-(trifluoromethyl)benzamide
> <PUBCHEM_IUPAC_TRADITIONAL_NAME>
N-[2-[[1-(4-chlorobenzyl)-4-piperidyl]methylamino]-2-keto-1-methyl-ethyl]-4-fluoro-3-(trifluoromethyl)benzamide
> <PUBCHEM_IUPAC_INCHI>
InChI=1S/C24H26ClF4N3O2/c1-15(31-23(34)18-4-7-21(26)20(12-18)24(27,28)29)22(33)30-13-16-8-10-32(11-9-16)14-17-2-5-19(25)6-3-17/h2-7,12,15-16H,8-11,13-14H2,1H3,(H,30,33)(H,31,34)
> <PUBCHEM_IUPAC_INCHIKEY>
GNHOARIKKXHUQH-UHFFFAOYSA-N
> <PUBCHEM_XLOGP3_AA>
4.8
> <PUBCHEM_EXACT_MASS>
499.1649674
> <PUBCHEM_MOLECULAR_FORMULA>
C24H26ClF4N3O2
> <PUBCHEM_MOLECULAR_WEIGHT>
499.9
> <PUBCHEM_OPENEYE_CAN_SMILES>
CC(C(=O)NCC1CCN(CC1)CC2=CC=C(C=C2)Cl)NC(=O)C3=CC(=C(C=C3)F)C(F)(F)F
> <PUBCHEM_OPENEYE_ISO_SMILES>
CC(C(=O)NCC1CCN(CC1)CC2=CC=C(C=C2)Cl)NC(=O)C3=CC(=C(C=C3)F)C(F)(F)F
> <PUBCHEM_CACTVS_TPSA>
61.4
> <PUBCHEM_MONOISOTOPIC_WEIGHT>
499.1649674
> <PUBCHEM_TOTAL_CHARGE>
0
> <PUBCHEM_HEAVY_ATOM_COUNT>
34
> <PUBCHEM_ATOM_DEF_STEREO_COUNT>
0
> <PUBCHEM_ATOM_UDEF_STEREO_COUNT>
1
> <PUBCHEM_BOND_DEF_STEREO_COUNT>
0
> <PUBCHEM_BOND_UDEF_STEREO_COUNT>
0
> <PUBCHEM_ISOTOPIC_ATOM_COUNT>
0
> <PUBCHEM_COMPONENT_COUNT>
1
> <PUBCHEM_CACTVS_TAUTO_COUNT>
-1
> <PUBCHEM_COORDINATE_TYPE>
1
5
255
> <PUBCHEM_BONDANNOTATIONS>
18  21  8
18  22  8
20  23  3
21  24  8
22  25  8
24  26  8
25  26  8
28  29  8
28  30  8
29  31  8
30  32  8
31  33  8
32  33  8
$$$$
