508782
  -OEChem-10302200282D
 66 68  0     1  0  0  0  0  0999 V2000
    2.0000   -6.8284    0.0000 Cl  0  0  0  0  0  0  0  0  0  0  0  0
    8.8712    4.2594    0.0000 S   0  0  0  0  0  0  0  0  0  0  0  0
    9.1500    6.0194    0.0000 S   0  0  0  0  0  0  0  0  0  0  0  0
    5.4641    1.1716    0.0000 O   0  0  0  0  0  0  0  0  0  0  0  0
    8.9282    2.1716    0.0000 O   0  0  0  0  0  0  0  0  0  0  0  0
    8.3410    6.6072    0.0000 O   0  0  0  0  0  0  0  0  0  0  0  0
    9.9590    5.4316    0.0000 O   0  0  0  0  0  0  0  0  0  0  0  0
    5.4641   -3.8284    0.0000 N   0  0  0  0  0  0  0  0  0  0  0  0
    6.3301   -0.3284    0.0000 N   0  0  0  0  0  0  0  0  0  0  0  0
    7.1962    2.1716    0.0000 N   0  0  0  0  0  0  0  0  0  0  0  0
    5.4641   -1.8284    0.0000 C   0  0  0  0  0  0  0  0  0  0  0  0
    4.5981   -2.3284    0.0000 C   0  0  0  0  0  0  0  0  0  0  0  0
    6.3301   -2.3284    0.0000 C   0  0  0  0  0  0  0  0  0  0  0  0
    4.5981   -3.3284    0.0000 C   0  0  0  0  0  0  0  0  0  0  0  0
    6.3301   -3.3284    0.0000 C   0  0  0  0  0  0  0  0  0  0  0  0
    5.4641   -0.8284    0.0000 C   0  0  0  0  0  0  0  0  0  0  0  0
    5.4641   -4.8284    0.0000 C   0  0  0  0  0  0  0  0  0  0  0  0
    7.1962    1.1716    0.0000 C   0  0  3  0  0  0  0  0  0  0  0  0
    4.5981   -5.3284    0.0000 C   0  0  0  0  0  0  0  0  0  0  0  0
    6.3301    0.6716    0.0000 C   0  0  0  0  0  0  0  0  0  0  0  0
    8.0622    0.6716    0.0000 C   0  0  0  0  0  0  0  0  0  0  0  0
    4.5981   -6.3284    0.0000 C   0  0  0  0  0  0  0  0  0  0  0  0
    3.7320   -4.8284    0.0000 C   0  0  0  0  0  0  0  0  0  0  0  0
    8.9282    1.1716    0.0000 C   0  0  0  0  0  0  0  0  0  0  0  0
    8.0622   -0.3284    0.0000 C   0  0  0  0  0  0  0  0  0  0  0  0
    3.7320   -6.8284    0.0000 C   0  0  0  0  0  0  0  0  0  0  0  0
    2.8660   -5.3284    0.0000 C   0  0  0  0  0  0  0  0  0  0  0  0
    8.0622    2.6716    0.0000 C   0  0  0  0  0  0  0  0  0  0  0  0
    2.8660   -6.3284    0.0000 C   0  0  0  0  0  0  0  0  0  0  0  0
    8.0622    3.6716    0.0000 C   0  0  0  0  0  0  0  0  0  0  0  0
    7.2532    4.2594    0.0000 C   0  0  0  0  0  0  0  0  0  0  0  0
    8.5622    5.2104    0.0000 C   0  0  0  0  0  0  0  0  0  0  0  0
    7.5622    5.2104    0.0000 C   0  0  0  0  0  0  0  0  0  0  0  0
    9.7378    6.8284    0.0000 C   0  0  0  0  0  0  0  0  0  0  0  0
    6.0010   -1.5184    0.0000 H   0  0  0  0  0  0  0  0  0  0  0  0
    4.3860   -1.7458    0.0000 H   0  0  0  0  0  0  0  0  0  0  0  0
    3.9875   -2.4361    0.0000 H   0  0  0  0  0  0  0  0  0  0  0  0
    6.9407   -2.4361    0.0000 H   0  0  0  0  0  0  0  0  0  0  0  0
    6.5422   -1.7458    0.0000 H   0  0  0  0  0  0  0  0  0  0  0  0
    3.9875   -3.2208    0.0000 H   0  0  0  0  0  0  0  0  0  0  0  0
    4.3860   -3.9110    0.0000 H   0  0  0  0  0  0  0  0  0  0  0  0
    6.5422   -3.9110    0.0000 H   0  0  0  0  0  0  0  0  0  0  0  0
    6.9407   -3.2208    0.0000 H   0  0  0  0  0  0  0  0  0  0  0  0
    5.2520   -0.2458    0.0000 H   0  0  0  0  0  0  0  0  0  0  0  0
    4.8535   -0.9361    0.0000 H   0  0  0  0  0  0  0  0  0  0  0  0
    5.6762   -5.4110    0.0000 H   0  0  0  0  0  0  0  0  0  0  0  0
    6.0747   -4.7208    0.0000 H   0  0  0  0  0  0  0  0  0  0  0  0
    6.8671   -0.6384    0.0000 H   0  0  0  0  0  0  0  0  0  0  0  0
    6.6592    1.4816    0.0000 H   0  0  0  0  0  0  0  0  0  0  0  0
    8.0622    1.2916    0.0000 H   0  0  0  0  0  0  0  0  0  0  0  0
    6.6592    2.4816    0.0000 H   0  0  0  0  0  0  0  0  0  0  0  0
    5.1350   -6.6384    0.0000 H   0  0  0  0  0  0  0  0  0  0  0  0
    3.7320   -4.2084    0.0000 H   0  0  0  0  0  0  0  0  0  0  0  0
    9.2382    0.6346    0.0000 H   0  0  0  0  0  0  0  0  0  0  0  0
    9.4651    1.4816    0.0000 H   0  0  0  0  0  0  0  0  0  0  0  0
    8.6182    1.7085    0.0000 H   0  0  0  0  0  0  0  0  0  0  0  0
    7.4422   -0.3284    0.0000 H   0  0  0  0  0  0  0  0  0  0  0  0
    8.0622   -0.9484    0.0000 H   0  0  0  0  0  0  0  0  0  0  0  0
    8.6822   -0.3284    0.0000 H   0  0  0  0  0  0  0  0  0  0  0  0
    3.7320   -7.4484    0.0000 H   0  0  0  0  0  0  0  0  0  0  0  0
    2.3291   -5.0184    0.0000 H   0  0  0  0  0  0  0  0  0  0  0  0
    6.6635    4.0678    0.0000 H   0  0  0  0  0  0  0  0  0  0  0  0
    7.1978    5.7120    0.0000 H   0  0  0  0  0  0  0  0  0  0  0  0
   10.2393    6.4640    0.0000 H   0  0  0  0  0  0  0  0  0  0  0  0
   10.1022    7.3300    0.0000 H   0  0  0  0  0  0  0  0  0  0  0  0
    9.2362    7.1929    0.0000 H   0  0  0  0  0  0  0  0  0  0  0  0
  1 29  1  0  0  0  0
  2 30  1  0  0  0  0
  2 32  1  0  0  0  0
  3  6  2  0  0  0  0
  3  7  2  0  0  0  0
  3 32  1  0  0  0  0
  3 34  1  0  0  0  0
  4 20  2  0  0  0  0
  5 28  2  0  0  0  0
  8 14  1  0  0  0  0
  8 15  1  0  0  0  0
  8 17  1  0  0  0  0
  9 16  1  0  0  0  0
  9 20  1  0  0  0  0
  9 48  1  0  0  0  0
 10 18  1  0  0  0  0
 10 28  1  0  0  0  0
 10 51  1  0  0  0  0
 11 12  1  0  0  0  0
 11 13  1  0  0  0  0
 11 16  1  0  0  0  0
 11 35  1  0  0  0  0
 12 14  1  0  0  0  0
 12 36  1  0  0  0  0
 12 37  1  0  0  0  0
 13 15  1  0  0  0  0
 13 38  1  0  0  0  0
 13 39  1  0  0  0  0
 14 40  1  0  0  0  0
 14 41  1  0  0  0  0
 15 42  1  0  0  0  0
 15 43  1  0  0  0  0
 16 44  1  0  0  0  0
 16 45  1  0  0  0  0
 17 19  1  0  0  0  0
 17 46  1  0  0  0  0
 17 47  1  0  0  0  0
 18 20  1  0  0  0  0
 18 21  1  0  0  0  0
 18 49  1  0  0  0  0
 19 22  2  0  0  0  0
 19 23  1  0  0  0  0
 21 24  1  0  0  0  0
 21 25  1  0  0  0  0
 21 50  1  0  0  0  0
 22 26  1  0  0  0  0
 22 52  1  0  0  0  0
 23 27  2  0  0  0  0
 23 53  1  0  0  0  0
 24 54  1  0  0  0  0
 24 55  1  0  0  0  0
 24 56  1  0  0  0  0
 25 57  1  0  0  0  0
 25 58  1  0  0  0  0
 25 59  1  0  0  0  0
 26 29  2  0  0  0  0
 26 60  1  0  0  0  0
 27 29  1  0  0  0  0
 27 61  1  0  0  0  0
 28 30  1  0  0  0  0
 30 31  2  0  0  0  0
 31 33  1  0  0  0  0
 31 62  1  0  0  0  0
 32 33  2  0  0  0  0
 33 63  1  0  0  0  0
 34 64  1  0  0  0  0
 34 65  1  0  0  0  0
 34 66  1  0  0  0  0
M  END
> <PUBCHEM_COMPOUND_CID>
508782
> <PUBCHEM_COMPOUND_CANONICALIZED>
1
> <PUBCHEM_CACTVS_COMPLEXITY>
789
> <PUBCHEM_CACTVS_HBOND_ACCEPTOR>
6
> <PUBCHEM_CACTVS_HBOND_DONOR>
2
> <PUBCHEM_CACTVS_ROTATABLE_BOND>
9
> <PUBCHEM_CACTVS_SUBSKEYS>
AAADcfB7OABkAAAAAAAAAAAAAAAAASAAAAA8QAAAAAAAAAABwAAAHgYQAAAADSrB2CSyAYPAAAqMAiFSEHDDAYAkDRBIiJmIBsgIYDKhlzGUIQhglgCoiYcYgAAOBAAAAAAAAAAIAAAAAAAAAAAAAAAAAA==
> <PUBCHEM_IUPAC_OPENEYE_NAME>
N-[1-[[1-[(4-chlorophenyl)methyl]-4-piperidyl]methylcarbamoyl]-2-methyl-propyl]-5-methylsulfonyl-thiophene-2-carboxamide
> <PUBCHEM_IUPAC_CAS_NAME>
N-[1-[[1-[(4-chlorophenyl)methyl]-4-piperidinyl]methylamino]-3-methyl-1-oxobutan-2-yl]-5-methylsulfonyl-2-thiophenecarboxamide
> <PUBCHEM_IUPAC_NAME_MARKUP>
<I>N</I>-[1-[[1-[(4-chlorophenyl)methyl]piperidin-4-yl]methylamino]-3-methyl-1-oxobutan-2-yl]-5-methylsulfonylthiophene-2-carboxamide
> <PUBCHEM_IUPAC_NAME>
N-[1-[[1-[(4-chlorophenyl)methyl]piperidin-4-yl]methylamino]-3-methyl-1-oxobutan-2-yl]-5-methylsulfonylthiophene-2-carboxamide
> <PUBCHEM_IUPAC_SYSTEMATIC_NAME>
N-[1-[[1-[(4-chlorophenyl)methyl]piperidin-4-yl]methylamino]-3-methyl-1-oxidanylidene-butan-2-yl]-5-methylsulfonyl-thiophene-2-carboxamide
> <PUBCHEM_IUPAC_TRADITIONAL_NAME>
N-[1-[[1-(4-chlorobenzyl)-4-piperidyl]methylcarbamoyl]-2-methyl-propyl]-5-mesyl-thiophene-2-carboxamide
> <PUBCHEM_IUPAC_INCHI>
InChI=1S/C24H32ClN3O4S2/c1-16(2)22(27-23(29)20-8-9-21(33-20)34(3,31)32)24(30)26-14-17-10-12-28(13-11-17)15-18-4-6-19(25)7-5-18/h4-9,16-17,22H,10-15H2,1-3H3,(H,26,30)(H,27,29)
> <PUBCHEM_IUPAC_INCHIKEY>
NAMGKUJWQADMMA-UHFFFAOYSA-N
> <PUBCHEM_XLOGP3_AA>
4.4
> <PUBCHEM_EXACT_MASS>
525.1522766
> <PUBCHEM_MOLECULAR_FORMULA>
C24H32ClN3O4S2
> <PUBCHEM_MOLECULAR_WEIGHT>
526.1
> <PUBCHEM_OPENEYE_CAN_SMILES>
CC(C)C(C(=O)NCC1CCN(CC1)CC2=CC=C(C=C2)Cl)NC(=O)C3=CC=C(S3)S(=O)(=O)C
> <PUBCHEM_OPENEYE_ISO_SMILES>
CC(C)C(C(=O)NCC1CCN(CC1)CC2=CC=C(C=C2)Cl)NC(=O)C3=CC=C(S3)S(=O)(=O)C
> <PUBCHEM_CACTVS_TPSA>
132
> <PUBCHEM_MONOISOTOPIC_WEIGHT>
525.1522766
> <PUBCHEM_TOTAL_CHARGE>
0
> <PUBCHEM_HEAVY_ATOM_COUNT>
34
> <PUBCHEM_ATOM_DEF_STEREO_COUNT>
0
> <PUBCHEM_ATOM_UDEF_STEREO_COUNT>
1
> <PUBCHEM_BOND_DEF_STEREO_COUNT>
0
> <PUBCHEM_BOND_UDEF_STEREO_COUNT>
0
> <PUBCHEM_ISOTOPIC_ATOM_COUNT>
0
> <PUBCHEM_COMPONENT_COUNT>
1
> <PUBCHEM_CACTVS_TAUTO_COUNT>
-1
> <PUBCHEM_COORDINATE_TYPE>
1
5
255
> <PUBCHEM_BONDANNOTATIONS>
18  21  3
19  22  8
19  23  8
2  30  8
2  32  8
22  26  8
23  27  8
26  29  8
27  29  8
30  31  8
31  33  8
32  33  8
$$$$
