508726
  -OEChem-10302200282D
 56 58  0     1  0  0  0  0  0999 V2000
   12.6637    4.9148    0.0000 Cl  0  0  0  0  0  0  0  0  0  0  0  0
    7.1962    0.3807    0.0000 O   0  0  0  0  0  0  0  0  0  0  0  0
    3.7320   -0.6193    0.0000 O   0  0  0  0  0  0  0  0  0  0  0  0
    2.8660   -4.1193    0.0000 O   0  0  0  0  0  0  0  0  0  0  0  0
    4.5981   -5.1193    0.0000 O   0  0  0  0  0  0  0  0  0  0  0  0
    8.2788    3.5831    0.0000 N   0  0  3  0  0  0  0  0  0  0  0  0
    6.3301    1.8807    0.0000 N   0  0  0  0  0  0  0  0  0  0  0  0
    5.4641   -0.6193    0.0000 N   0  0  0  0  0  0  0  0  0  0  0  0
    7.1962    2.3807    0.0000 C   0  0  1  0  0  0  0  0  0  0  0  0
    8.1097    1.9740    0.0000 C   0  0  0  0  0  0  0  0  0  0  0  0
    7.3007    3.3752    0.0000 C   0  0  0  0  0  0  0  0  0  0  0  0
    8.7788    2.7171    0.0000 C   0  0  0  0  0  0  0  0  0  0  0  0
    8.6856    4.4967    0.0000 C   0  0  0  0  0  0  0  0  0  0  0  0
    9.6801    4.6012    0.0000 C   0  0  0  0  0  0  0  0  0  0  0  0
    6.3301    0.8807    0.0000 C   0  0  0  0  0  0  0  0  0  0  0  0
    5.4641    0.3807    0.0000 C   0  0  0  0  0  0  0  0  0  0  0  0
   10.0868    5.5148    0.0000 C   0  0  0  0  0  0  0  0  0  0  0  0
   10.2679    3.7922    0.0000 C   0  0  0  0  0  0  0  0  0  0  0  0
   11.0813    5.6193    0.0000 C   0  0  0  0  0  0  0  0  0  0  0  0
   11.2624    3.8967    0.0000 C   0  0  0  0  0  0  0  0  0  0  0  0
   11.6691    4.8103    0.0000 C   0  0  0  0  0  0  0  0  0  0  0  0
    4.5981   -1.1193    0.0000 C   0  0  0  0  0  0  0  0  0  0  0  0
    4.5981   -2.1193    0.0000 C   0  0  0  0  0  0  0  0  0  0  0  0
    3.7320   -2.6193    0.0000 C   0  0  0  0  0  0  0  0  0  0  0  0
    5.4641   -2.6193    0.0000 C   0  0  0  0  0  0  0  0  0  0  0  0
    3.7320   -3.6193    0.0000 C   0  0  0  0  0  0  0  0  0  0  0  0
    5.4641   -3.6193    0.0000 C   0  0  0  0  0  0  0  0  0  0  0  0
    4.5981   -4.1193    0.0000 C   0  0  0  0  0  0  0  0  0  0  0  0
    2.0000   -3.6193    0.0000 C   0  0  0  0  0  0  0  0  0  0  0  0
    5.4641   -5.6193    0.0000 C   0  0  0  0  0  0  0  0  0  0  0  0
    6.6762    2.7184    0.0000 H   0  0  0  0  0  0  0  0  0  0  0  0
    7.7997    1.4370    0.0000 H   0  0  0  0  0  0  0  0  0  0  0  0
    8.6113    1.6096    0.0000 H   0  0  0  0  0  0  0  0  0  0  0  0
    7.2359    3.9918    0.0000 H   0  0  0  0  0  0  0  0  0  0  0  0
    6.6807    3.3752    0.0000 H   0  0  0  0  0  0  0  0  0  0  0  0
    9.1937    2.2564    0.0000 H   0  0  0  0  0  0  0  0  0  0  0  0
    9.2804    3.0815    0.0000 H   0  0  0  0  0  0  0  0  0  0  0  0
    8.7288    5.1152    0.0000 H   0  0  0  0  0  0  0  0  0  0  0  0
    8.0840    4.6467    0.0000 H   0  0  0  0  0  0  0  0  0  0  0  0
    5.7932    2.1907    0.0000 H   0  0  0  0  0  0  0  0  0  0  0  0
    5.2520    0.9633    0.0000 H   0  0  0  0  0  0  0  0  0  0  0  0
    4.8535    0.2730    0.0000 H   0  0  0  0  0  0  0  0  0  0  0  0
    9.7224    6.0164    0.0000 H   0  0  0  0  0  0  0  0  0  0  0  0
   10.0157    3.2258    0.0000 H   0  0  0  0  0  0  0  0  0  0  0  0
   11.3335    6.1857    0.0000 H   0  0  0  0  0  0  0  0  0  0  0  0
   11.6268    3.3951    0.0000 H   0  0  0  0  0  0  0  0  0  0  0  0
    6.0010   -0.9293    0.0000 H   0  0  0  0  0  0  0  0  0  0  0  0
    3.1951   -2.3093    0.0000 H   0  0  0  0  0  0  0  0  0  0  0  0
    6.0010   -2.3093    0.0000 H   0  0  0  0  0  0  0  0  0  0  0  0
    6.0010   -3.9293    0.0000 H   0  0  0  0  0  0  0  0  0  0  0  0
    2.3100   -3.0824    0.0000 H   0  0  0  0  0  0  0  0  0  0  0  0
    1.4631   -3.3093    0.0000 H   0  0  0  0  0  0  0  0  0  0  0  0
    1.6900   -4.1562    0.0000 H   0  0  0  0  0  0  0  0  0  0  0  0
    5.1541   -6.1562    0.0000 H   0  0  0  0  0  0  0  0  0  0  0  0
    6.0010   -5.9293    0.0000 H   0  0  0  0  0  0  0  0  0  0  0  0
    5.7741   -5.0824    0.0000 H   0  0  0  0  0  0  0  0  0  0  0  0
  1 21  1  0  0  0  0
  2 15  2  0  0  0  0
  3 22  2  0  0  0  0
  4 26  1  0  0  0  0
  4 29  1  0  0  0  0
  5 28  1  0  0  0  0
  5 30  1  0  0  0  0
  6 11  1  0  0  0  0
  6 12  1  0  0  0  0
  6 13  1  0  0  0  0
  9  7  1  6  0  0  0
  7 15  1  0  0  0  0
  7 40  1  0  0  0  0
  8 16  1  0  0  0  0
  8 22  1  0  0  0  0
  8 47  1  0  0  0  0
  9 10  1  0  0  0  0
  9 11  1  0  0  0  0
  9 31  1  0  0  0  0
 10 12  1  0  0  0  0
 10 32  1  0  0  0  0
 10 33  1  0  0  0  0
 11 34  1  0  0  0  0
 11 35  1  0  0  0  0
 12 36  1  0  0  0  0
 12 37  1  0  0  0  0
 13 14  1  0  0  0  0
 13 38  1  0  0  0  0
 13 39  1  0  0  0  0
 14 17  2  0  0  0  0
 14 18  1  0  0  0  0
 15 16  1  0  0  0  0
 16 41  1  0  0  0  0
 16 42  1  0  0  0  0
 17 19  1  0  0  0  0
 17 43  1  0  0  0  0
 18 20  2  0  0  0  0
 18 44  1  0  0  0  0
 19 21  2  0  0  0  0
 19 45  1  0  0  0  0
 20 21  1  0  0  0  0
 20 46  1  0  0  0  0
 22 23  1  0  0  0  0
 23 24  2  0  0  0  0
 23 25  1  0  0  0  0
 24 26  1  0  0  0  0
 24 48  1  0  0  0  0
 25 27  2  0  0  0  0
 25 49  1  0  0  0  0
 26 28  2  0  0  0  0
 27 28  1  0  0  0  0
 27 50  1  0  0  0  0
 29 51  1  0  0  0  0
 29 52  1  0  0  0  0
 29 53  1  0  0  0  0
 30 54  1  0  0  0  0
 30 55  1  0  0  0  0
 30 56  1  0  0  0  0
M  END
> <PUBCHEM_COMPOUND_CID>
508726
> <PUBCHEM_COMPOUND_CANONICALIZED>
1
> <PUBCHEM_CACTVS_COMPLEXITY>
571
> <PUBCHEM_CACTVS_HBOND_ACCEPTOR>
5
> <PUBCHEM_CACTVS_HBOND_DONOR>
2
> <PUBCHEM_CACTVS_ROTATABLE_BOND>
8
> <PUBCHEM_CACTVS_SUBSKEYS>
AAADceB7OAAEAAAAAAAAAAAAAAAAAWAAAAAwYAAAAAAAAAABQAAAHgIQAAAADC7BmCYyBoPABACIAiFSEACCCAAkJQAIiIGOjsgNZjKF9zuUMSpk1hGKqYe63BLOJAABAAAAQABIAAIAAACAAAAAAAAAAA==
> <PUBCHEM_IUPAC_OPENEYE_NAME>
N-[2-[[(3S)-1-[(4-chlorophenyl)methyl]pyrrolidin-3-yl]amino]-2-oxo-ethyl]-3,4-dimethoxy-benzamide
> <PUBCHEM_IUPAC_CAS_NAME>
N-[2-[[(3S)-1-[(4-chlorophenyl)methyl]-3-pyrrolidinyl]amino]-2-oxoethyl]-3,4-dimethoxybenzamide
> <PUBCHEM_IUPAC_NAME_MARKUP>
<I>N</I>-[2-[[(3<I>S</I>)-1-[(4-chlorophenyl)methyl]pyrrolidin-3-yl]amino]-2-oxoethyl]-3,4-dimethoxybenzamide
> <PUBCHEM_IUPAC_NAME>
N-[2-[[(3S)-1-[(4-chlorophenyl)methyl]pyrrolidin-3-yl]amino]-2-oxoethyl]-3,4-dimethoxybenzamide
> <PUBCHEM_IUPAC_SYSTEMATIC_NAME>
N-[2-[[(3S)-1-[(4-chlorophenyl)methyl]pyrrolidin-3-yl]amino]-2-oxidanylidene-ethyl]-3,4-dimethoxy-benzamide
> <PUBCHEM_IUPAC_TRADITIONAL_NAME>
N-[2-[[(3S)-1-(4-chlorobenzyl)pyrrolidin-3-yl]amino]-2-keto-ethyl]-3,4-dimethoxy-benzamide
> <PUBCHEM_IUPAC_INCHI>
InChI=1S/C22H26ClN3O4/c1-29-19-8-5-16(11-20(19)30-2)22(28)24-12-21(27)25-18-9-10-26(14-18)13-15-3-6-17(23)7-4-15/h3-8,11,18H,9-10,12-14H2,1-2H3,(H,24,28)(H,25,27)/t18-/m0/s1
> <PUBCHEM_IUPAC_INCHIKEY>
CHQBZTNQSIPPEO-SFHVURJKSA-N
> <PUBCHEM_XLOGP3_AA>
2.8
> <PUBCHEM_EXACT_MASS>
431.1611840
> <PUBCHEM_MOLECULAR_FORMULA>
C22H26ClN3O4
> <PUBCHEM_MOLECULAR_WEIGHT>
431.9
> <PUBCHEM_OPENEYE_CAN_SMILES>
COC1=C(C=C(C=C1)C(=O)NCC(=O)NC2CCN(C2)CC3=CC=C(C=C3)Cl)OC
> <PUBCHEM_OPENEYE_ISO_SMILES>
COC1=C(C=C(C=C1)C(=O)NCC(=O)N[C@H]2CCN(C2)CC3=CC=C(C=C3)Cl)OC
> <PUBCHEM_CACTVS_TPSA>
79.9
> <PUBCHEM_MONOISOTOPIC_WEIGHT>
431.1611840
> <PUBCHEM_TOTAL_CHARGE>
0
> <PUBCHEM_HEAVY_ATOM_COUNT>
30
> <PUBCHEM_ATOM_DEF_STEREO_COUNT>
1
> <PUBCHEM_ATOM_UDEF_STEREO_COUNT>
0
> <PUBCHEM_BOND_DEF_STEREO_COUNT>
0
> <PUBCHEM_BOND_UDEF_STEREO_COUNT>
0
> <PUBCHEM_ISOTOPIC_ATOM_COUNT>
0
> <PUBCHEM_COMPONENT_COUNT>
1
> <PUBCHEM_CACTVS_TAUTO_COUNT>
-1
> <PUBCHEM_COORDINATE_TYPE>
1
5
255
> <PUBCHEM_BONDANNOTATIONS>
14  17  8
14  18  8
17  19  8
18  20  8
19  21  8
20  21  8
23  24  8
23  25  8
24  26  8
25  27  8
26  28  8
27  28  8
9  7  6
$$$$
