508715
  -OEChem-10302200282D
 92 94  0     1  0  0  0  0  0999 V2000
   13.2207   -2.5020    0.0000 S   0  0  0  0  0  0  0  0  0  0  0  0
   10.2852   -3.1206    0.0000 O   0  0  0  0  0  0  0  0  0  0  0  0
   13.9650   -1.8341    0.0000 O   0  0  0  0  0  0  0  0  0  0  0  0
   12.4764   -3.1698    0.0000 O   0  0  0  0  0  0  0  0  0  0  0  0
    6.3246   -1.3001    0.0000 O   0  0  0  0  0  0  0  0  0  0  0  0
    5.9209    3.0400    0.0000 O   0  0  0  0  0  0  0  0  0  0  0  0
    4.6318    1.8833    0.0000 O   0  0  0  0  0  0  0  0  0  0  0  0
   12.5528   -1.7576    0.0000 N   0  0  3  0  0  0  0  0  0  0  0  0
    7.6138   -0.1434    0.0000 N   0  0  0  0  0  0  0  0  0  0  0  0
    6.2781    1.3452    0.0000 N   0  0  0  0  0  0  0  0  0  0  0  0
    4.6783   -2.3715    0.0000 N   0  0  0  0  0  0  0  0  0  0  0  0
   11.5743   -1.9639    0.0000 C   0  0  1  0  0  0  0  0  0  0  0  0
   10.9065   -1.2196    0.0000 C   0  0  0  0  0  0  0  0  0  0  0  0
   12.8635   -0.8071    0.0000 C   0  0  0  0  0  0  0  0  0  0  0  0
    9.9280   -1.4258    0.0000 C   0  0  0  0  0  0  0  0  0  0  0  0
   12.1957   -0.0628    0.0000 C   0  0  0  0  0  0  0  0  0  0  0  0
   11.2637   -2.9144    0.0000 C   0  0  0  0  0  0  0  0  0  0  0  0
    9.2601   -0.6815    0.0000 C   0  0  0  0  0  0  0  0  0  0  0  0
   13.8885   -3.2462    0.0000 C   0  0  0  0  0  0  0  0  0  0  0  0
    8.2816   -0.8877    0.0000 C   0  0  0  0  0  0  0  0  0  0  0  0
   12.5063    0.8877    0.0000 C   0  0  0  0  0  0  0  0  0  0  0  0
   11.2171   -0.2690    0.0000 C   0  0  0  0  0  0  0  0  0  0  0  0
   13.5779   -4.1968    0.0000 C   0  0  0  0  0  0  0  0  0  0  0  0
   14.8670   -3.0400    0.0000 C   0  0  0  0  0  0  0  0  0  0  0  0
    5.9674    0.3947    0.0000 C   0  0  2  0  0  0  0  0  0  0  0  0
    6.6353   -0.3496    0.0000 C   0  0  0  0  0  0  0  0  0  0  0  0
    4.9889    0.1885    0.0000 C   0  0  0  0  0  0  0  0  0  0  0  0
    4.6783   -0.7621    0.0000 C   0  0  0  0  0  0  0  0  0  0  0  0
   14.2457   -4.9411    0.0000 C   0  0  0  0  0  0  0  0  0  0  0  0
   15.5349   -3.7843    0.0000 C   0  0  0  0  0  0  0  0  0  0  0  0
   15.2242   -4.7348    0.0000 C   0  0  0  0  0  0  0  0  0  0  0  0
    3.7320   -1.0668    0.0000 C   0  0  0  0  0  0  0  0  0  0  0  0
    3.7320   -2.0668    0.0000 C   0  0  0  0  0  0  0  0  0  0  0  0
    5.2619   -1.5668    0.0000 C   0  0  0  0  0  0  0  0  0  0  0  0
   15.8921   -5.4792    0.0000 C   0  0  0  0  0  0  0  0  0  0  0  0
    2.8660   -0.5668    0.0000 C   0  0  0  0  0  0  0  0  0  0  0  0
    5.6103    2.0895    0.0000 C   0  0  0  0  0  0  0  0  0  0  0  0
    2.8660   -2.5668    0.0000 C   0  0  0  0  0  0  0  0  0  0  0  0
    2.0000   -1.0668    0.0000 C   0  0  0  0  0  0  0  0  0  0  0  0
    2.0000   -2.0668    0.0000 C   0  0  0  0  0  0  0  0  0  0  0  0
    5.5637    4.7348    0.0000 C   0  0  0  0  0  0  0  0  0  0  0  0
    5.2531    3.7843    0.0000 C   0  0  0  0  0  0  0  0  0  0  0  0
    4.8959    5.4792    0.0000 C   0  0  0  0  0  0  0  0  0  0  0  0
    6.5422    4.9411    0.0000 C   0  0  0  0  0  0  0  0  0  0  0  0
   11.7669   -1.3745    0.0000 H   0  0  0  0  0  0  0  0  0  0  0  0
   11.4328   -0.8919    0.0000 H   0  0  0  0  0  0  0  0  0  0  0  0
   10.6752   -0.6443    0.0000 H   0  0  0  0  0  0  0  0  0  0  0  0
   13.4104   -1.0991    0.0000 H   0  0  0  0  0  0  0  0  0  0  0  0
   13.2461   -0.3192    0.0000 H   0  0  0  0  0  0  0  0  0  0  0  0
    9.4016   -1.7534    0.0000 H   0  0  0  0  0  0  0  0  0  0  0  0
   10.1592   -2.0010    0.0000 H   0  0  0  0  0  0  0  0  0  0  0  0
   12.0030   -0.6521    0.0000 H   0  0  0  0  0  0  0  0  0  0  0  0
   11.2842   -3.5340    0.0000 H   0  0  0  0  0  0  0  0  0  0  0  0
   11.8775   -3.0017    0.0000 H   0  0  0  0  0  0  0  0  0  0  0  0
    9.7865   -0.3538    0.0000 H   0  0  0  0  0  0  0  0  0  0  0  0
    9.0289   -0.1062    0.0000 H   0  0  0  0  0  0  0  0  0  0  0  0
    7.7553   -1.2153    0.0000 H   0  0  0  0  0  0  0  0  0  0  0  0
    8.5129   -1.4630    0.0000 H   0  0  0  0  0  0  0  0  0  0  0  0
   13.0956    0.6951    0.0000 H   0  0  0  0  0  0  0  0  0  0  0  0
   12.6989    1.4770    0.0000 H   0  0  0  0  0  0  0  0  0  0  0  0
   11.9170    1.0803    0.0000 H   0  0  0  0  0  0  0  0  0  0  0  0
   11.0893    0.3376    0.0000 H   0  0  0  0  0  0  0  0  0  0  0  0
   10.6105   -0.3969    0.0000 H   0  0  0  0  0  0  0  0  0  0  0  0
   11.3450   -0.8757    0.0000 H   0  0  0  0  0  0  0  0  0  0  0  0
    7.8064    0.4459    0.0000 H   0  0  0  0  0  0  0  0  0  0  0  0
   10.0926   -3.7099    0.0000 H   0  0  0  0  0  0  0  0  0  0  0  0
   12.9712   -4.3246    0.0000 H   0  0  0  0  0  0  0  0  0  0  0  0
   15.0596   -2.4507    0.0000 H   0  0  0  0  0  0  0  0  0  0  0  0
    5.5534    0.8562    0.0000 H   0  0  0  0  0  0  0  0  0  0  0  0
    4.9684    0.8081    0.0000 H   0  0  0  0  0  0  0  0  0  0  0  0
    4.3751    0.2758    0.0000 H   0  0  0  0  0  0  0  0  0  0  0  0
   14.0531   -5.5304    0.0000 H   0  0  0  0  0  0  0  0  0  0  0  0
   16.1415   -3.6565    0.0000 H   0  0  0  0  0  0  0  0  0  0  0  0
    6.8848    1.4731    0.0000 H   0  0  0  0  0  0  0  0  0  0  0  0
    5.8819   -1.5668    0.0000 H   0  0  0  0  0  0  0  0  0  0  0  0
    4.8709   -2.9608    0.0000 H   0  0  0  0  0  0  0  0  0  0  0  0
   15.4306   -5.8932    0.0000 H   0  0  0  0  0  0  0  0  0  0  0  0
   16.3061   -5.9406    0.0000 H   0  0  0  0  0  0  0  0  0  0  0  0
   16.3535   -5.0651    0.0000 H   0  0  0  0  0  0  0  0  0  0  0  0
    2.8660    0.0532    0.0000 H   0  0  0  0  0  0  0  0  0  0  0  0
    2.8660   -3.1868    0.0000 H   0  0  0  0  0  0  0  0  0  0  0  0
    1.4631   -0.7568    0.0000 H   0  0  0  0  0  0  0  0  0  0  0  0
    1.4631   -2.3768    0.0000 H   0  0  0  0  0  0  0  0  0  0  0  0
    4.9571    4.6070    0.0000 H   0  0  0  0  0  0  0  0  0  0  0  0
    4.7062    4.0764    0.0000 H   0  0  0  0  0  0  0  0  0  0  0  0
    4.8705    3.2964    0.0000 H   0  0  0  0  0  0  0  0  0  0  0  0
    5.3574    5.8932    0.0000 H   0  0  0  0  0  0  0  0  0  0  0  0
    4.4818    5.9406    0.0000 H   0  0  0  0  0  0  0  0  0  0  0  0
    4.4344    5.0651    0.0000 H   0  0  0  0  0  0  0  0  0  0  0  0
    6.6701    4.3344    0.0000 H   0  0  0  0  0  0  0  0  0  0  0  0
    7.1489    5.0689    0.0000 H   0  0  0  0  0  0  0  0  0  0  0  0
    6.4144    5.5477    0.0000 H   0  0  0  0  0  0  0  0  0  0  0  0
  1  3  2  0  0  0  0
  1  4  2  0  0  0  0
  1  8  1  0  0  0  0
  1 19  1  0  0  0  0
  2 17  1  0  0  0  0
  2 66  1  0  0  0  0
  5 26  2  0  0  0  0
  6 37  1  0  0  0  0
  6 42  1  0  0  0  0
  7 37  2  0  0  0  0
 12  8  1  6  0  0  0
  8 14  1  0  0  0  0
  9 20  1  0  0  0  0
  9 26  1  0  0  0  0
  9 65  1  0  0  0  0
 25 10  1  6  0  0  0
 10 37  1  0  0  0  0
 10 74  1  0  0  0  0
 11 33  1  0  0  0  0
 11 34  1  0  0  0  0
 11 76  1  0  0  0  0
 12 13  1  0  0  0  0
 12 17  1  0  0  0  0
 12 45  1  0  0  0  0
 13 15  1  0  0  0  0
 13 46  1  0  0  0  0
 13 47  1  0  0  0  0
 14 16  1  0  0  0  0
 14 48  1  0  0  0  0
 14 49  1  0  0  0  0
 15 18  1  0  0  0  0
 15 50  1  0  0  0  0
 15 51  1  0  0  0  0
 16 21  1  0  0  0  0
 16 22  1  0  0  0  0
 16 52  1  0  0  0  0
 17 53  1  0  0  0  0
 17 54  1  0  0  0  0
 18 20  1  0  0  0  0
 18 55  1  0  0  0  0
 18 56  1  0  0  0  0
 19 23  2  0  0  0  0
 19 24  1  0  0  0  0
 20 57  1  0  0  0  0
 20 58  1  0  0  0  0
 21 59  1  0  0  0  0
 21 60  1  0  0  0  0
 21 61  1  0  0  0  0
 22 62  1  0  0  0  0
 22 63  1  0  0  0  0
 22 64  1  0  0  0  0
 23 29  1  0  0  0  0
 23 67  1  0  0  0  0
 24 30  2  0  0  0  0
 24 68  1  0  0  0  0
 25 26  1  0  0  0  0
 25 27  1  0  0  0  0
 25 69  1  0  0  0  0
 27 28  1  0  0  0  0
 27 70  1  0  0  0  0
 27 71  1  0  0  0  0
 28 32  1  0  0  0  0
 28 34  2  0  0  0  0
 29 31  2  0  0  0  0
 29 72  1  0  0  0  0
 30 31  1  0  0  0  0
 30 73  1  0  0  0  0
 31 35  1  0  0  0  0
 32 33  1  0  0  0  0
 32 36  2  0  0  0  0
 33 38  2  0  0  0  0
 34 75  1  0  0  0  0
 35 77  1  0  0  0  0
 35 78  1  0  0  0  0
 35 79  1  0  0  0  0
 36 39  1  0  0  0  0
 36 80  1  0  0  0  0
 38 40  1  0  0  0  0
 38 81  1  0  0  0  0
 39 40  2  0  0  0  0
 39 82  1  0  0  0  0
 40 83  1  0  0  0  0
 41 42  1  0  0  0  0
 41 43  1  0  0  0  0
 41 44  1  0  0  0  0
 41 84  1  0  0  0  0
 42 85  1  0  0  0  0
 42 86  1  0  0  0  0
 43 87  1  0  0  0  0
 43 88  1  0  0  0  0
 43 89  1  0  0  0  0
 44 90  1  0  0  0  0
 44 91  1  0  0  0  0
 44 92  1  0  0  0  0
M  END
> <PUBCHEM_COMPOUND_CID>
508715
> <PUBCHEM_COMPOUND_CANONICALIZED>
1
> <PUBCHEM_CACTVS_COMPLEXITY>
979
> <PUBCHEM_CACTVS_HBOND_ACCEPTOR>
7
> <PUBCHEM_CACTVS_HBOND_DONOR>
4
> <PUBCHEM_CACTVS_ROTATABLE_BOND>
18
> <PUBCHEM_CACTVS_SUBSKEYS>
AAADcfB/uABAAAAAAAAAAAAAAAAAAWAAAAAwYAAAAAAAAFgB9AAAHgQQSAAADSjh3gY+yfLJlgKoAzV3XHDCgDAxAiAI2bm4ZJkKcPLAkbGcYAhklgDYyAeYycCOkAAAAAACAAAgAAAAAAQAAAAAAAAAAA==
> <PUBCHEM_IUPAC_OPENEYE_NAME>
isobutyl N-[(1S)-2-[[(5S)-6-hydroxy-5-[isobutyl(p-tolylsulfonyl)amino]hexyl]amino]-1-(1H-indol-3-ylmethyl)-2-oxo-ethyl]carbamate
> <PUBCHEM_IUPAC_CAS_NAME>
N-[(2S)-1-[[(5S)-6-hydroxy-5-[(4-methylphenyl)sulfonyl-(2-methylpropyl)amino]hexyl]amino]-3-(1H-indol-3-yl)-1-oxopropan-2-yl]carbamic acid 2-methylpropyl ester
> <PUBCHEM_IUPAC_NAME_MARKUP>
2-methylpropyl <I>N</I>-[(2<I>S</I>)-1-[[(5<I>S</I>)-6-hydroxy-5-[(4-methylphenyl)sulfonyl-(2-methylpropyl)amino]hexyl]amino]-3-(1<I>H</I>-indol-3-yl)-1-oxopropan-2-yl]carbamate
> <PUBCHEM_IUPAC_NAME>
2-methylpropyl N-[(2S)-1-[[(5S)-6-hydroxy-5-[(4-methylphenyl)sulfonyl-(2-methylpropyl)amino]hexyl]amino]-3-(1H-indol-3-yl)-1-oxopropan-2-yl]carbamate
> <PUBCHEM_IUPAC_SYSTEMATIC_NAME>
2-methylpropyl N-[(2S)-3-(1H-indol-3-yl)-1-[[(5S)-5-[(4-methylphenyl)sulfonyl-(2-methylpropyl)amino]-6-oxidanyl-hexyl]amino]-1-oxidanylidene-propan-2-yl]carbamate
> <PUBCHEM_IUPAC_TRADITIONAL_NAME>
N-[(1S)-2-[[(5S)-6-hydroxy-5-[isobutyl(tosyl)amino]hexyl]amino]-1-(1H-indol-3-ylmethyl)-2-keto-ethyl]carbamic acid isobutyl ester
> <PUBCHEM_IUPAC_INCHI>
InChI=1S/C33H48N4O6S/c1-23(2)20-37(44(41,42)28-15-13-25(5)14-16-28)27(21-38)10-8-9-17-34-32(39)31(36-33(40)43-22-24(3)4)18-26-19-35-30-12-7-6-11-29(26)30/h6-7,11-16,19,23-24,27,31,35,38H,8-10,17-18,20-22H2,1-5H3,(H,34,39)(H,36,40)/t27-,31-/m0/s1
> <PUBCHEM_IUPAC_INCHIKEY>
AFRZRCYZCCGXPC-DHIFEGFHSA-N
> <PUBCHEM_XLOGP3_AA>
5.7
> <PUBCHEM_EXACT_MASS>
628.32945644
> <PUBCHEM_MOLECULAR_FORMULA>
C33H48N4O6S
> <PUBCHEM_MOLECULAR_WEIGHT>
628.8
> <PUBCHEM_OPENEYE_CAN_SMILES>
CC1=CC=C(C=C1)S(=O)(=O)N(CC(C)C)C(CCCCNC(=O)C(CC2=CNC3=CC=CC=C32)NC(=O)OCC(C)C)CO
> <PUBCHEM_OPENEYE_ISO_SMILES>
CC1=CC=C(C=C1)S(=O)(=O)N(CC(C)C)[C@@H](CCCCNC(=O)[C@H](CC2=CNC3=CC=CC=C32)NC(=O)OCC(C)C)CO
> <PUBCHEM_CACTVS_TPSA>
149
> <PUBCHEM_MONOISOTOPIC_WEIGHT>
628.32945644
> <PUBCHEM_TOTAL_CHARGE>
0
> <PUBCHEM_HEAVY_ATOM_COUNT>
44
> <PUBCHEM_ATOM_DEF_STEREO_COUNT>
2
> <PUBCHEM_ATOM_UDEF_STEREO_COUNT>
0
> <PUBCHEM_BOND_DEF_STEREO_COUNT>
0
> <PUBCHEM_BOND_UDEF_STEREO_COUNT>
0
> <PUBCHEM_ISOTOPIC_ATOM_COUNT>
0
> <PUBCHEM_COMPONENT_COUNT>
1
> <PUBCHEM_CACTVS_TAUTO_COUNT>
-1
> <PUBCHEM_COORDINATE_TYPE>
1
5
255
> <PUBCHEM_BONDANNOTATIONS>
25  10  6
11  33  8
11  34  8
19  23  8
19  24  8
23  29  8
24  30  8
28  32  8
28  34  8
29  31  8
30  31  8
32  33  8
32  36  8
33  38  8
36  39  8
38  40  8
39  40  8
12  8  6
$$$$
