508788
  -OEChem-10302200282D
 71 74  0     1  0  0  0  0  0999 V2000
    2.1493    7.2000    0.0000 Cl  0  0  0  0  0  0  0  0  0  0  0  0
    3.8744   -1.3454    0.0000 O   0  0  0  0  0  0  0  0  0  0  0  0
    3.7320   -2.7000    0.0000 O   0  0  0  0  0  0  0  0  0  0  0  0
    2.8660   -4.2000    0.0000 O   0  0  0  0  0  0  0  0  0  0  0  0
    4.9140    3.5454    0.0000 N   0  0  0  0  0  0  0  0  0  0  0  0
    5.4641   -2.7000    0.0000 N   0  0  0  0  0  0  0  0  0  0  0  0
    5.0334   -0.0582    0.0000 N   0  0  0  0  0  0  0  0  0  0  0  0
    4.4982    1.5891    0.0000 C   0  0  0  0  0  0  0  0  0  0  0  0
    5.4492    1.8981    0.0000 C   0  0  0  0  0  0  0  0  0  0  0  0
    3.7550    2.2582    0.0000 C   0  0  0  0  0  0  0  0  0  0  0  0
    5.6571    2.8762    0.0000 C   0  0  0  0  0  0  0  0  0  0  0  0
    3.9629    3.2363    0.0000 C   0  0  0  0  0  0  0  0  0  0  0  0
    4.2902    0.6109    0.0000 C   0  0  0  0  0  0  0  0  0  0  0  0
    5.5686   -1.7055    0.0000 C   0  0  3  0  0  0  0  0  0  0  0  0
    6.5468   -1.4976    0.0000 C   0  0  0  0  0  0  0  0  0  0  0  0
    7.0468   -2.3636    0.0000 C   0  0  0  0  0  0  0  0  0  0  0  0
    6.3776   -3.1068    0.0000 C   0  0  0  0  0  0  0  0  0  0  0  0
    4.8255   -1.0364    0.0000 C   0  0  0  0  0  0  0  0  0  0  0  0
    5.1219    4.5235    0.0000 C   0  0  0  0  0  0  0  0  0  0  0  0
    4.5981   -3.2000    0.0000 C   0  0  0  0  0  0  0  0  0  0  0  0
    4.3788    5.1926    0.0000 C   0  0  0  0  0  0  0  0  0  0  0  0
    4.5981   -4.2000    0.0000 C   0  0  0  0  0  0  0  0  0  0  0  0
    4.5867    6.1708    0.0000 C   0  0  0  0  0  0  0  0  0  0  0  0
    3.4277    4.8836    0.0000 C   0  0  0  0  0  0  0  0  0  0  0  0
    3.7320   -4.7000    0.0000 C   0  0  0  0  0  0  0  0  0  0  0  0
    5.4641   -4.7000    0.0000 C   0  0  0  0  0  0  0  0  0  0  0  0
    3.7320   -5.7000    0.0000 C   0  0  0  0  0  0  0  0  0  0  0  0
    2.8660   -6.2000    0.0000 C   0  0  0  0  0  0  0  0  0  0  0  0
    3.8435    6.8399    0.0000 C   0  0  0  0  0  0  0  0  0  0  0  0
    2.6846    5.5527    0.0000 C   0  0  0  0  0  0  0  0  0  0  0  0
    5.4641   -5.7000    0.0000 C   0  0  0  0  0  0  0  0  0  0  0  0
    4.5981   -6.2000    0.0000 C   0  0  0  0  0  0  0  0  0  0  0  0
    2.8925    6.5309    0.0000 C   0  0  0  0  0  0  0  0  0  0  0  0
    2.8660   -7.2000    0.0000 C   0  0  0  0  0  0  0  0  0  0  0  0
    2.0000   -5.7000    0.0000 C   0  0  0  0  0  0  0  0  0  0  0  0
    3.9085    1.3975    0.0000 H   0  0  0  0  0  0  0  0  0  0  0  0
    5.5355    1.2841    0.0000 H   0  0  0  0  0  0  0  0  0  0  0  0
    6.0688    1.8764    0.0000 H   0  0  0  0  0  0  0  0  0  0  0  0
    3.1802    2.4904    0.0000 H   0  0  0  0  0  0  0  0  0  0  0  0
    3.4265    1.7324    0.0000 H   0  0  0  0  0  0  0  0  0  0  0  0
    6.2320    2.6440    0.0000 H   0  0  0  0  0  0  0  0  0  0  0  0
    5.9857    3.4020    0.0000 H   0  0  0  0  0  0  0  0  0  0  0  0
    3.8766    3.8503    0.0000 H   0  0  0  0  0  0  0  0  0  0  0  0
    3.3433    3.2580    0.0000 H   0  0  0  0  0  0  0  0  0  0  0  0
    3.7154    0.8432    0.0000 H   0  0  0  0  0  0  0  0  0  0  0  0
    3.9617    0.0851    0.0000 H   0  0  0  0  0  0  0  0  0  0  0  0
    4.9898   -1.9277    0.0000 H   0  0  0  0  0  0  0  0  0  0  0  0
    7.1132   -1.2454    0.0000 H   0  0  0  0  0  0  0  0  0  0  0  0
    6.3552   -0.9079    0.0000 H   0  0  0  0  0  0  0  0  0  0  0  0
    7.4616   -2.8244    0.0000 H   0  0  0  0  0  0  0  0  0  0  0  0
    7.5484   -1.9992    0.0000 H   0  0  0  0  0  0  0  0  0  0  0  0
    6.0677   -3.6437    0.0000 H   0  0  0  0  0  0  0  0  0  0  0  0
    6.8792   -3.4712    0.0000 H   0  0  0  0  0  0  0  0  0  0  0  0
    5.6230    0.1334    0.0000 H   0  0  0  0  0  0  0  0  0  0  0  0
    5.6968    4.2912    0.0000 H   0  0  0  0  0  0  0  0  0  0  0  0
    5.4504    5.0493    0.0000 H   0  0  0  0  0  0  0  0  0  0  0  0
    5.1763    6.3624    0.0000 H   0  0  0  0  0  0  0  0  0  0  0  0
    3.2988    4.2772    0.0000 H   0  0  0  0  0  0  0  0  0  0  0  0
    6.0010   -4.3900    0.0000 H   0  0  0  0  0  0  0  0  0  0  0  0
    2.8660   -5.5800    0.0000 H   0  0  0  0  0  0  0  0  0  0  0  0
    3.9724    7.4464    0.0000 H   0  0  0  0  0  0  0  0  0  0  0  0
    2.0949    5.3612    0.0000 H   0  0  0  0  0  0  0  0  0  0  0  0
    6.0010   -6.0100    0.0000 H   0  0  0  0  0  0  0  0  0  0  0  0
    4.5981   -6.8200    0.0000 H   0  0  0  0  0  0  0  0  0  0  0  0
    2.2460   -7.2000    0.0000 H   0  0  0  0  0  0  0  0  0  0  0  0
    2.8660   -7.8200    0.0000 H   0  0  0  0  0  0  0  0  0  0  0  0
    3.4860   -7.2000    0.0000 H   0  0  0  0  0  0  0  0  0  0  0  0
    2.3100   -5.1631    0.0000 H   0  0  0  0  0  0  0  0  0  0  0  0
    1.4631   -5.3900    0.0000 H   0  0  0  0  0  0  0  0  0  0  0  0
    1.6900   -6.2370    0.0000 H   0  0  0  0  0  0  0  0  0  0  0  0
    2.3291   -4.5100    0.0000 H   0  0  0  0  0  0  0  0  0  0  0  0
  1 33  1  0  0  0  0
  2 18  2  0  0  0  0
  3 20  2  0  0  0  0
  4 25  1  0  0  0  0
  4 71  1  0  0  0  0
  5 11  1  0  0  0  0
  5 12  1  0  0  0  0
  5 19  1  0  0  0  0
  6 14  1  0  0  0  0
  6 17  1  0  0  0  0
  6 20  1  0  0  0  0
  7 13  1  0  0  0  0
  7 18  1  0  0  0  0
  7 54  1  0  0  0  0
  8  9  1  0  0  0  0
  8 10  1  0  0  0  0
  8 13  1  0  0  0  0
  8 36  1  0  0  0  0
  9 11  1  0  0  0  0
  9 37  1  0  0  0  0
  9 38  1  0  0  0  0
 10 12  1  0  0  0  0
 10 39  1  0  0  0  0
 10 40  1  0  0  0  0
 11 41  1  0  0  0  0
 11 42  1  0  0  0  0
 12 43  1  0  0  0  0
 12 44  1  0  0  0  0
 13 45  1  0  0  0  0
 13 46  1  0  0  0  0
 14 15  1  0  0  0  0
 14 18  1  0  0  0  0
 14 47  1  0  0  0  0
 15 16  1  0  0  0  0
 15 48  1  0  0  0  0
 15 49  1  0  0  0  0
 16 17  1  0  0  0  0
 16 50  1  0  0  0  0
 16 51  1  0  0  0  0
 17 52  1  0  0  0  0
 17 53  1  0  0  0  0
 19 21  1  0  0  0  0
 19 55  1  0  0  0  0
 19 56  1  0  0  0  0
 20 22  1  0  0  0  0
 21 23  2  0  0  0  0
 21 24  1  0  0  0  0
 22 25  1  0  0  0  0
 22 26  2  0  0  0  0
 23 29  1  0  0  0  0
 23 57  1  0  0  0  0
 24 30  2  0  0  0  0
 24 58  1  0  0  0  0
 25 27  2  0  0  0  0
 26 31  1  0  0  0  0
 26 59  1  0  0  0  0
 27 28  1  0  0  0  0
 27 32  1  0  0  0  0
 28 34  1  0  0  0  0
 28 35  1  0  0  0  0
 28 60  1  0  0  0  0
 29 33  2  0  0  0  0
 29 61  1  0  0  0  0
 30 33  1  0  0  0  0
 30 62  1  0  0  0  0
 31 32  2  0  0  0  0
 31 63  1  0  0  0  0
 32 64  1  0  0  0  0
 34 65  1  0  0  0  0
 34 66  1  0  0  0  0
 34 67  1  0  0  0  0
 35 68  1  0  0  0  0
 35 69  1  0  0  0  0
 35 70  1  0  0  0  0
M  END
> <PUBCHEM_COMPOUND_CID>
508788
> <PUBCHEM_COMPOUND_CANONICALIZED>
1
> <PUBCHEM_CACTVS_COMPLEXITY>
704
> <PUBCHEM_CACTVS_HBOND_ACCEPTOR>
4
> <PUBCHEM_CACTVS_HBOND_DONOR>
2
> <PUBCHEM_CACTVS_ROTATABLE_BOND>
7
> <PUBCHEM_CACTVS_SUBSKEYS>
AAADcfB7MAAEAAAAAAAAAAAAAAAAAWAAAAA8YIAAAAAAAAABQAAAHgIQCAAADS7BmCQyBoPAAgCIAiFSEACCAAAkJQAIiIGMDsgIZjaDlzOUcUhm9hGImYeYyeCOhAACAAAIAAAIAAQAABAAAAAAAAAAAA==
> <PUBCHEM_IUPAC_OPENEYE_NAME>
N-[[1-[(4-chlorophenyl)methyl]-4-piperidyl]methyl]-1-(2-hydroxy-3-isopropyl-benzoyl)pyrrolidine-2-carboxamide
> <PUBCHEM_IUPAC_CAS_NAME>
N-[[1-[(4-chlorophenyl)methyl]-4-piperidinyl]methyl]-1-[(2-hydroxy-3-propan-2-ylphenyl)-oxomethyl]-2-pyrrolidinecarboxamide
> <PUBCHEM_IUPAC_NAME_MARKUP>
<I>N</I>-[[1-[(4-chlorophenyl)methyl]piperidin-4-yl]methyl]-1-(2-hydroxy-3-propan-2-ylbenzoyl)pyrrolidine-2-carboxamide
> <PUBCHEM_IUPAC_NAME>
N-[[1-[(4-chlorophenyl)methyl]piperidin-4-yl]methyl]-1-(2-hydroxy-3-propan-2-ylbenzoyl)pyrrolidine-2-carboxamide
> <PUBCHEM_IUPAC_SYSTEMATIC_NAME>
N-[[1-[(4-chlorophenyl)methyl]piperidin-4-yl]methyl]-1-(2-oxidanyl-3-propan-2-yl-phenyl)carbonyl-pyrrolidine-2-carboxamide
> <PUBCHEM_IUPAC_TRADITIONAL_NAME>
N-[[1-(4-chlorobenzyl)-4-piperidyl]methyl]-1-(2-hydroxy-3-isopropyl-benzoyl)pyrrolidine-2-carboxamide
> <PUBCHEM_IUPAC_INCHI>
InChI=1S/C28H36ClN3O3/c1-19(2)23-5-3-6-24(26(23)33)28(35)32-14-4-7-25(32)27(34)30-17-20-12-15-31(16-13-20)18-21-8-10-22(29)11-9-21/h3,5-6,8-11,19-20,25,33H,4,7,12-18H2,1-2H3,(H,30,34)
> <PUBCHEM_IUPAC_INCHIKEY>
NAWCGIRWMLSNME-UHFFFAOYSA-N
> <PUBCHEM_XLOGP3_AA>
5.5
> <PUBCHEM_EXACT_MASS>
497.2445197
> <PUBCHEM_MOLECULAR_FORMULA>
C28H36ClN3O3
> <PUBCHEM_MOLECULAR_WEIGHT>
498.1
> <PUBCHEM_OPENEYE_CAN_SMILES>
CC(C)C1=C(C(=CC=C1)C(=O)N2CCCC2C(=O)NCC3CCN(CC3)CC4=CC=C(C=C4)Cl)O
> <PUBCHEM_OPENEYE_ISO_SMILES>
CC(C)C1=C(C(=CC=C1)C(=O)N2CCCC2C(=O)NCC3CCN(CC3)CC4=CC=C(C=C4)Cl)O
> <PUBCHEM_CACTVS_TPSA>
72.9
> <PUBCHEM_MONOISOTOPIC_WEIGHT>
497.2445197
> <PUBCHEM_TOTAL_CHARGE>
0
> <PUBCHEM_HEAVY_ATOM_COUNT>
35
> <PUBCHEM_ATOM_DEF_STEREO_COUNT>
0
> <PUBCHEM_ATOM_UDEF_STEREO_COUNT>
1
> <PUBCHEM_BOND_DEF_STEREO_COUNT>
0
> <PUBCHEM_BOND_UDEF_STEREO_COUNT>
0
> <PUBCHEM_ISOTOPIC_ATOM_COUNT>
0
> <PUBCHEM_COMPONENT_COUNT>
1
> <PUBCHEM_CACTVS_TAUTO_COUNT>
-1
> <PUBCHEM_COORDINATE_TYPE>
1
5
255
> <PUBCHEM_BONDANNOTATIONS>
14  18  3
21  23  8
21  24  8
22  25  8
22  26  8
23  29  8
24  30  8
25  27  8
26  31  8
27  32  8
29  33  8
30  33  8
31  32  8
$$$$
