508740
  -OEChem-10302200282D
 56 58  0     1  0  0  0  0  0999 V2000
    2.0000    2.2940    0.0000 Cl  0  0  0  0  0  0  0  0  0  0  0  0
    8.6604   -0.1740    0.0000 O   0  0  0  0  0  0  0  0  0  0  0  0
   12.1245   -0.1740    0.0000 O   0  0  0  0  0  0  0  0  0  0  0  0
    5.3457   -0.8376    0.0000 N   0  0  3  0  0  0  0  0  0  0  0  0
    7.7944   -1.6740    0.0000 N   0  0  0  0  0  0  0  0  0  0  0  0
   12.9905   -1.6740    0.0000 N   0  0  0  0  0  0  0  0  0  0  0  0
   14.7226   -1.6740    0.0000 N   0  0  0  0  0  0  0  0  0  0  0  0
    6.9283   -1.1740    0.0000 C   0  0  3  0  0  0  0  0  0  0  0  0
    6.8238   -0.1795    0.0000 C   0  0  0  0  0  0  0  0  0  0  0  0
    6.0148   -1.5807    0.0000 C   0  0  0  0  0  0  0  0  0  0  0  0
    5.8457    0.0285    0.0000 C   0  0  0  0  0  0  0  0  0  0  0  0
    4.3511   -0.9421    0.0000 C   0  0  0  0  0  0  0  0  0  0  0  0
    3.7634   -0.1331    0.0000 C   0  0  0  0  0  0  0  0  0  0  0  0
    8.6604   -1.1740    0.0000 C   0  0  0  0  0  0  0  0  0  0  0  0
    9.5264   -1.6740    0.0000 C   0  0  0  0  0  0  0  0  0  0  0  0
   10.3924   -1.1740    0.0000 C   0  0  0  0  0  0  0  0  0  0  0  0
    2.7688   -0.2376    0.0000 C   0  0  0  0  0  0  0  0  0  0  0  0
    4.1701    0.7805    0.0000 C   0  0  0  0  0  0  0  0  0  0  0  0
   11.2585   -1.6740    0.0000 C   0  0  0  0  0  0  0  0  0  0  0  0
    2.1810    0.5714    0.0000 C   0  0  0  0  0  0  0  0  0  0  0  0
    3.5823    1.5895    0.0000 C   0  0  0  0  0  0  0  0  0  0  0  0
    2.5878    1.4850    0.0000 C   0  0  0  0  0  0  0  0  0  0  0  0
   12.1245   -1.1740    0.0000 C   0  0  0  0  0  0  0  0  0  0  0  0
   13.8565   -1.1740    0.0000 C   0  0  0  0  0  0  0  0  0  0  0  0
   13.8565   -0.1740    0.0000 C   0  0  0  0  0  0  0  0  0  0  0  0
   15.5886   -1.1740    0.0000 C   0  0  0  0  0  0  0  0  0  0  0  0
   14.7226    0.3260    0.0000 C   0  0  0  0  0  0  0  0  0  0  0  0
   15.5886   -0.1740    0.0000 C   0  0  0  0  0  0  0  0  0  0  0  0
   16.4546   -1.6740    0.0000 C   0  0  0  0  0  0  0  0  0  0  0  0
    6.8959   -1.7931    0.0000 H   0  0  0  0  0  0  0  0  0  0  0  0
    7.4438   -0.1795    0.0000 H   0  0  0  0  0  0  0  0  0  0  0  0
    6.8886    0.4372    0.0000 H   0  0  0  0  0  0  0  0  0  0  0  0
    5.5132   -1.9451    0.0000 H   0  0  0  0  0  0  0  0  0  0  0  0
    6.3248   -2.1176    0.0000 H   0  0  0  0  0  0  0  0  0  0  0  0
    6.0372    0.6181    0.0000 H   0  0  0  0  0  0  0  0  0  0  0  0
    5.2793    0.2806    0.0000 H   0  0  0  0  0  0  0  0  0  0  0  0
    3.7939   -1.2139    0.0000 H   0  0  0  0  0  0  0  0  0  0  0  0
    4.5220   -1.5381    0.0000 H   0  0  0  0  0  0  0  0  0  0  0  0
    7.7944   -2.2940    0.0000 H   0  0  0  0  0  0  0  0  0  0  0  0
    9.1279   -2.1489    0.0000 H   0  0  0  0  0  0  0  0  0  0  0  0
    9.9249   -2.1489    0.0000 H   0  0  0  0  0  0  0  0  0  0  0  0
   10.7910   -0.6990    0.0000 H   0  0  0  0  0  0  0  0  0  0  0  0
    9.9939   -0.6990    0.0000 H   0  0  0  0  0  0  0  0  0  0  0  0
    2.5167   -0.8040    0.0000 H   0  0  0  0  0  0  0  0  0  0  0  0
    4.7867    0.8453    0.0000 H   0  0  0  0  0  0  0  0  0  0  0  0
   10.8599   -2.1489    0.0000 H   0  0  0  0  0  0  0  0  0  0  0  0
   11.6570   -2.1489    0.0000 H   0  0  0  0  0  0  0  0  0  0  0  0
    1.5644    0.5066    0.0000 H   0  0  0  0  0  0  0  0  0  0  0  0
    3.8345    2.1559    0.0000 H   0  0  0  0  0  0  0  0  0  0  0  0
   12.9905   -2.2940    0.0000 H   0  0  0  0  0  0  0  0  0  0  0  0
   13.3196    0.1360    0.0000 H   0  0  0  0  0  0  0  0  0  0  0  0
   14.7226    0.9460    0.0000 H   0  0  0  0  0  0  0  0  0  0  0  0
   16.1255    0.1360    0.0000 H   0  0  0  0  0  0  0  0  0  0  0  0
   16.1446   -2.2109    0.0000 H   0  0  0  0  0  0  0  0  0  0  0  0
   16.9916   -1.9840    0.0000 H   0  0  0  0  0  0  0  0  0  0  0  0
   16.7646   -1.1370    0.0000 H   0  0  0  0  0  0  0  0  0  0  0  0
  1 22  1  0  0  0  0
  2 14  2  0  0  0  0
  3 23  2  0  0  0  0
  4 10  1  0  0  0  0
  4 11  1  0  0  0  0
  4 12  1  0  0  0  0
  5  8  1  0  0  0  0
  5 14  1  0  0  0  0
  5 39  1  0  0  0  0
  6 23  1  0  0  0  0
  6 24  1  0  0  0  0
  6 50  1  0  0  0  0
  7 24  1  0  0  0  0
  7 26  2  0  0  0  0
  8  9  1  0  0  0  0
  8 10  1  0  0  0  0
  8 30  1  0  0  0  0
  9 11  1  0  0  0  0
  9 31  1  0  0  0  0
  9 32  1  0  0  0  0
 10 33  1  0  0  0  0
 10 34  1  0  0  0  0
 11 35  1  0  0  0  0
 11 36  1  0  0  0  0
 12 13  1  0  0  0  0
 12 37  1  0  0  0  0
 12 38  1  0  0  0  0
 13 17  2  0  0  0  0
 13 18  1  0  0  0  0
 14 15  1  0  0  0  0
 15 16  1  0  0  0  0
 15 40  1  0  0  0  0
 15 41  1  0  0  0  0
 16 19  1  0  0  0  0
 16 42  1  0  0  0  0
 16 43  1  0  0  0  0
 17 20  1  0  0  0  0
 17 44  1  0  0  0  0
 18 21  2  0  0  0  0
 18 45  1  0  0  0  0
 19 23  1  0  0  0  0
 19 46  1  0  0  0  0
 19 47  1  0  0  0  0
 20 22  2  0  0  0  0
 20 48  1  0  0  0  0
 21 22  1  0  0  0  0
 21 49  1  0  0  0  0
 24 25  2  0  0  0  0
 25 27  1  0  0  0  0
 25 51  1  0  0  0  0
 26 28  1  0  0  0  0
 26 29  1  0  0  0  0
 27 28  2  0  0  0  0
 27 52  1  0  0  0  0
 28 53  1  0  0  0  0
 29 54  1  0  0  0  0
 29 55  1  0  0  0  0
 29 56  1  0  0  0  0
M  END
> <PUBCHEM_COMPOUND_CID>
508740
> <PUBCHEM_COMPOUND_CANONICALIZED>
1
> <PUBCHEM_CACTVS_COMPLEXITY>
539
> <PUBCHEM_CACTVS_HBOND_ACCEPTOR>
4
> <PUBCHEM_CACTVS_HBOND_DONOR>
2
> <PUBCHEM_CACTVS_ROTATABLE_BOND>
8
> <PUBCHEM_CACTVS_SUBSKEYS>
AAADceB7sAAEAAAAAAAAAAAAAAAAAWAAAAA8QAAAAAAAAAABwAAAHgIQAAAADCrBniQzsJPIEACoAydydACCgCkhByAJmKE4ZpiIYPLB25GUIAholwLIyCcYgwAOBAAAAAAAAAAIAAAAAAAAAAAAAAAAAA==
> <PUBCHEM_IUPAC_OPENEYE_NAME>
N-[1-[(4-chlorophenyl)methyl]pyrrolidin-3-yl]-N'-(6-methyl-2-pyridyl)pentanediamide
> <PUBCHEM_IUPAC_CAS_NAME>
N-[1-[(4-chlorophenyl)methyl]-3-pyrrolidinyl]-N'-(6-methyl-2-pyridinyl)pentanediamide
> <PUBCHEM_IUPAC_NAME_MARKUP>
<I>N</I>-[1-[(4-chlorophenyl)methyl]pyrrolidin-3-yl]-<I>N</I>&apos;-(6-methylpyridin-2-yl)pentanediamide
> <PUBCHEM_IUPAC_NAME>
N-[1-[(4-chlorophenyl)methyl]pyrrolidin-3-yl]-N'-(6-methylpyridin-2-yl)pentanediamide
> <PUBCHEM_IUPAC_SYSTEMATIC_NAME>
N-[1-[(4-chlorophenyl)methyl]pyrrolidin-3-yl]-N'-(6-methylpyridin-2-yl)pentanediamide
> <PUBCHEM_IUPAC_TRADITIONAL_NAME>
N-[1-(4-chlorobenzyl)pyrrolidin-3-yl]-N'-(6-methyl-2-pyridyl)glutaramide
> <PUBCHEM_IUPAC_INCHI>
InChI=1S/C22H27ClN4O2/c1-16-4-2-5-20(24-16)26-22(29)7-3-6-21(28)25-19-12-13-27(15-19)14-17-8-10-18(23)11-9-17/h2,4-5,8-11,19H,3,6-7,12-15H2,1H3,(H,25,28)(H,24,26,29)
> <PUBCHEM_IUPAC_INCHIKEY>
ZIKJRQUECWEZRN-UHFFFAOYSA-N
> <PUBCHEM_XLOGP3_AA>
2.7
> <PUBCHEM_EXACT_MASS>
414.1822538
> <PUBCHEM_MOLECULAR_FORMULA>
C22H27ClN4O2
> <PUBCHEM_MOLECULAR_WEIGHT>
414.9
> <PUBCHEM_OPENEYE_CAN_SMILES>
CC1=NC(=CC=C1)NC(=O)CCCC(=O)NC2CCN(C2)CC3=CC=C(C=C3)Cl
> <PUBCHEM_OPENEYE_ISO_SMILES>
CC1=NC(=CC=C1)NC(=O)CCCC(=O)NC2CCN(C2)CC3=CC=C(C=C3)Cl
> <PUBCHEM_CACTVS_TPSA>
74.3
> <PUBCHEM_MONOISOTOPIC_WEIGHT>
414.1822538
> <PUBCHEM_TOTAL_CHARGE>
0
> <PUBCHEM_HEAVY_ATOM_COUNT>
29
> <PUBCHEM_ATOM_DEF_STEREO_COUNT>
0
> <PUBCHEM_ATOM_UDEF_STEREO_COUNT>
1
> <PUBCHEM_BOND_DEF_STEREO_COUNT>
0
> <PUBCHEM_BOND_UDEF_STEREO_COUNT>
0
> <PUBCHEM_ISOTOPIC_ATOM_COUNT>
0
> <PUBCHEM_COMPONENT_COUNT>
1
> <PUBCHEM_CACTVS_TAUTO_COUNT>
-1
> <PUBCHEM_COORDINATE_TYPE>
1
5
255
> <PUBCHEM_BONDANNOTATIONS>
13  17  8
13  18  8
17  20  8
18  21  8
20  22  8
21  22  8
24  25  8
25  27  8
26  28  8
27  28  8
8  5  3
7  24  8
7  26  8
$$$$
