508792
  -OEChem-10302200282D
 62 64  0     1  0  0  0  0  0999 V2000
    9.7942    6.7500    0.0000 Cl  0  0  0  0  0  0  0  0  0  0  0  0
    6.3301   -1.2500    0.0000 O   0  0  0  0  0  0  0  0  0  0  0  0
    3.7320    0.2500    0.0000 O   0  0  0  0  0  0  0  0  0  0  0  0
    2.8660   -2.2500    0.0000 O   0  0  0  0  0  0  0  0  0  0  0  0
    2.0000   -5.7500    0.0000 O   0  0  0  0  0  0  0  0  0  0  0  0
    6.3301    3.7500    0.0000 N   0  0  0  0  0  0  0  0  0  0  0  0
    5.4641    0.2500    0.0000 N   0  0  0  0  0  0  0  0  0  0  0  0
    4.5981   -2.2500    0.0000 N   0  0  0  0  0  0  0  0  0  0  0  0
    6.3301    1.7500    0.0000 C   0  0  0  0  0  0  0  0  0  0  0  0
    5.4641    2.2500    0.0000 C   0  0  0  0  0  0  0  0  0  0  0  0
    7.1962    2.2500    0.0000 C   0  0  0  0  0  0  0  0  0  0  0  0
    5.4641    3.2500    0.0000 C   0  0  0  0  0  0  0  0  0  0  0  0
    7.1962    3.2500    0.0000 C   0  0  0  0  0  0  0  0  0  0  0  0
    6.3301    0.7500    0.0000 C   0  0  0  0  0  0  0  0  0  0  0  0
    6.3301    4.7500    0.0000 C   0  0  0  0  0  0  0  0  0  0  0  0
    7.1962    5.2500    0.0000 C   0  0  0  0  0  0  0  0  0  0  0  0
    5.4641   -0.7500    0.0000 C   0  0  0  0  0  0  0  0  0  0  0  0
    4.5981   -1.2500    0.0000 C   0  0  3  0  0  0  0  0  0  0  0  0
    7.1962    6.2500    0.0000 C   0  0  0  0  0  0  0  0  0  0  0  0
    8.0622    4.7500    0.0000 C   0  0  0  0  0  0  0  0  0  0  0  0
    3.7320   -0.7500    0.0000 C   0  0  0  0  0  0  0  0  0  0  0  0
    8.0622    6.7500    0.0000 C   0  0  0  0  0  0  0  0  0  0  0  0
    8.9282    5.2500    0.0000 C   0  0  0  0  0  0  0  0  0  0  0  0
    8.9282    6.2500    0.0000 C   0  0  0  0  0  0  0  0  0  0  0  0
    3.7320   -2.7500    0.0000 C   0  0  0  0  0  0  0  0  0  0  0  0
    3.7320   -3.7500    0.0000 C   0  0  0  0  0  0  0  0  0  0  0  0
    2.8660   -4.2500    0.0000 C   0  0  0  0  0  0  0  0  0  0  0  0
    4.5981   -4.2500    0.0000 C   0  0  0  0  0  0  0  0  0  0  0  0
    2.8660   -5.2500    0.0000 C   0  0  0  0  0  0  0  0  0  0  0  0
    4.5981   -5.2500    0.0000 C   0  0  0  0  0  0  0  0  0  0  0  0
    3.7320   -5.7500    0.0000 C   0  0  0  0  0  0  0  0  0  0  0  0
    2.0000   -6.7500    0.0000 C   0  0  0  0  0  0  0  0  0  0  0  0
    6.8671    1.4400    0.0000 H   0  0  0  0  0  0  0  0  0  0  0  0
    4.8535    2.3577    0.0000 H   0  0  0  0  0  0  0  0  0  0  0  0
    5.2520    1.6674    0.0000 H   0  0  0  0  0  0  0  0  0  0  0  0
    7.4082    1.6674    0.0000 H   0  0  0  0  0  0  0  0  0  0  0  0
    7.8067    2.3577    0.0000 H   0  0  0  0  0  0  0  0  0  0  0  0
    5.2520    3.8326    0.0000 H   0  0  0  0  0  0  0  0  0  0  0  0
    4.8535    3.1423    0.0000 H   0  0  0  0  0  0  0  0  0  0  0  0
    7.8067    3.1423    0.0000 H   0  0  0  0  0  0  0  0  0  0  0  0
    7.4082    3.8326    0.0000 H   0  0  0  0  0  0  0  0  0  0  0  0
    6.5422    0.1674    0.0000 H   0  0  0  0  0  0  0  0  0  0  0  0
    6.9407    0.8577    0.0000 H   0  0  0  0  0  0  0  0  0  0  0  0
    6.1181    5.3326    0.0000 H   0  0  0  0  0  0  0  0  0  0  0  0
    5.7196    4.6423    0.0000 H   0  0  0  0  0  0  0  0  0  0  0  0
    4.9272    0.5600    0.0000 H   0  0  0  0  0  0  0  0  0  0  0  0
    5.1350   -1.5600    0.0000 H   0  0  0  0  0  0  0  0  0  0  0  0
    6.6592    6.5600    0.0000 H   0  0  0  0  0  0  0  0  0  0  0  0
    8.0622    4.1300    0.0000 H   0  0  0  0  0  0  0  0  0  0  0  0
    3.1215   -0.6423    0.0000 H   0  0  0  0  0  0  0  0  0  0  0  0
    3.5200   -1.3326    0.0000 H   0  0  0  0  0  0  0  0  0  0  0  0
    5.1350   -2.5600    0.0000 H   0  0  0  0  0  0  0  0  0  0  0  0
    8.0622    7.3700    0.0000 H   0  0  0  0  0  0  0  0  0  0  0  0
    9.4651    4.9400    0.0000 H   0  0  0  0  0  0  0  0  0  0  0  0
    3.1951    0.5600    0.0000 H   0  0  0  0  0  0  0  0  0  0  0  0
    2.3291   -3.9400    0.0000 H   0  0  0  0  0  0  0  0  0  0  0  0
    5.1350   -3.9400    0.0000 H   0  0  0  0  0  0  0  0  0  0  0  0
    5.1350   -5.5600    0.0000 H   0  0  0  0  0  0  0  0  0  0  0  0
    3.7320   -6.3700    0.0000 H   0  0  0  0  0  0  0  0  0  0  0  0
    1.3800   -6.7500    0.0000 H   0  0  0  0  0  0  0  0  0  0  0  0
    2.0000   -7.3700    0.0000 H   0  0  0  0  0  0  0  0  0  0  0  0
    2.6200   -6.7500    0.0000 H   0  0  0  0  0  0  0  0  0  0  0  0
  1 24  1  0  0  0  0
  2 17  2  0  0  0  0
  3 21  1  0  0  0  0
  3 55  1  0  0  0  0
  4 25  2  0  0  0  0
  5 29  1  0  0  0  0
  5 32  1  0  0  0  0
  6 12  1  0  0  0  0
  6 13  1  0  0  0  0
  6 15  1  0  0  0  0
  7 14  1  0  0  0  0
  7 17  1  0  0  0  0
  7 46  1  0  0  0  0
  8 18  1  0  0  0  0
  8 25  1  0  0  0  0
  8 52  1  0  0  0  0
  9 10  1  0  0  0  0
  9 11  1  0  0  0  0
  9 14  1  0  0  0  0
  9 33  1  0  0  0  0
 10 12  1  0  0  0  0
 10 34  1  0  0  0  0
 10 35  1  0  0  0  0
 11 13  1  0  0  0  0
 11 36  1  0  0  0  0
 11 37  1  0  0  0  0
 12 38  1  0  0  0  0
 12 39  1  0  0  0  0
 13 40  1  0  0  0  0
 13 41  1  0  0  0  0
 14 42  1  0  0  0  0
 14 43  1  0  0  0  0
 15 16  1  0  0  0  0
 15 44  1  0  0  0  0
 15 45  1  0  0  0  0
 16 19  2  0  0  0  0
 16 20  1  0  0  0  0
 17 18  1  0  0  0  0
 18 21  1  0  0  0  0
 18 47  1  0  0  0  0
 19 22  1  0  0  0  0
 19 48  1  0  0  0  0
 20 23  2  0  0  0  0
 20 49  1  0  0  0  0
 21 50  1  0  0  0  0
 21 51  1  0  0  0  0
 22 24  2  0  0  0  0
 22 53  1  0  0  0  0
 23 24  1  0  0  0  0
 23 54  1  0  0  0  0
 25 26  1  0  0  0  0
 26 27  2  0  0  0  0
 26 28  1  0  0  0  0
 27 29  1  0  0  0  0
 27 56  1  0  0  0  0
 28 30  2  0  0  0  0
 28 57  1  0  0  0  0
 29 31  2  0  0  0  0
 30 31  1  0  0  0  0
 30 58  1  0  0  0  0
 31 59  1  0  0  0  0
 32 60  1  0  0  0  0
 32 61  1  0  0  0  0
 32 62  1  0  0  0  0
M  END
> <PUBCHEM_COMPOUND_CID>
508792
> <PUBCHEM_COMPOUND_CANONICALIZED>
1
> <PUBCHEM_CACTVS_COMPLEXITY>
592
> <PUBCHEM_CACTVS_HBOND_ACCEPTOR>
5
> <PUBCHEM_CACTVS_HBOND_DONOR>
3
> <PUBCHEM_CACTVS_ROTATABLE_BOND>
9
> <PUBCHEM_CACTVS_SUBSKEYS>
AAADceB7OAAEAAAAAAAAAAAAAAAAAAAAAAA8YIAAAAAAAAABQAAAHgIQCAAADS7hmCYyBoPABgCIAiFSEACCCAAkJQAIiIGODsgOdjaFtzuUcShm9hGYqYe6yBCOBAABAAAAAAAIAAIAAAAAAAAAAAAAAA==
> <PUBCHEM_IUPAC_OPENEYE_NAME>
N-[2-[[1-[(4-chlorophenyl)methyl]-4-piperidyl]methylamino]-1-(hydroxymethyl)-2-oxo-ethyl]-3-methoxy-benzamide
> <PUBCHEM_IUPAC_CAS_NAME>
N-[1-[[1-[(4-chlorophenyl)methyl]-4-piperidinyl]methylamino]-3-hydroxy-1-oxopropan-2-yl]-3-methoxybenzamide
> <PUBCHEM_IUPAC_NAME_MARKUP>
<I>N</I>-[1-[[1-[(4-chlorophenyl)methyl]piperidin-4-yl]methylamino]-3-hydroxy-1-oxopropan-2-yl]-3-methoxybenzamide
> <PUBCHEM_IUPAC_NAME>
N-[1-[[1-[(4-chlorophenyl)methyl]piperidin-4-yl]methylamino]-3-hydroxy-1-oxopropan-2-yl]-3-methoxybenzamide
> <PUBCHEM_IUPAC_SYSTEMATIC_NAME>
N-[1-[[1-[(4-chlorophenyl)methyl]piperidin-4-yl]methylamino]-3-oxidanyl-1-oxidanylidene-propan-2-yl]-3-methoxy-benzamide
> <PUBCHEM_IUPAC_TRADITIONAL_NAME>
N-[2-[[1-(4-chlorobenzyl)-4-piperidyl]methylamino]-2-keto-1-methylol-ethyl]-3-methoxy-benzamide
> <PUBCHEM_IUPAC_INCHI>
InChI=1S/C24H30ClN3O4/c1-32-21-4-2-3-19(13-21)23(30)27-22(16-29)24(31)26-14-17-9-11-28(12-10-17)15-18-5-7-20(25)8-6-18/h2-8,13,17,22,29H,9-12,14-16H2,1H3,(H,26,31)(H,27,30)
> <PUBCHEM_IUPAC_INCHIKEY>
MLPGFFDLWMCQCA-UHFFFAOYSA-N
> <PUBCHEM_XLOGP3_AA>
2.8
> <PUBCHEM_EXACT_MASS>
459.1924841
> <PUBCHEM_MOLECULAR_FORMULA>
C24H30ClN3O4
> <PUBCHEM_MOLECULAR_WEIGHT>
460.0
> <PUBCHEM_OPENEYE_CAN_SMILES>
COC1=CC=CC(=C1)C(=O)NC(CO)C(=O)NCC2CCN(CC2)CC3=CC=C(C=C3)Cl
> <PUBCHEM_OPENEYE_ISO_SMILES>
COC1=CC=CC(=C1)C(=O)NC(CO)C(=O)NCC2CCN(CC2)CC3=CC=C(C=C3)Cl
> <PUBCHEM_CACTVS_TPSA>
90.9
> <PUBCHEM_MONOISOTOPIC_WEIGHT>
459.1924841
> <PUBCHEM_TOTAL_CHARGE>
0
> <PUBCHEM_HEAVY_ATOM_COUNT>
32
> <PUBCHEM_ATOM_DEF_STEREO_COUNT>
0
> <PUBCHEM_ATOM_UDEF_STEREO_COUNT>
1
> <PUBCHEM_BOND_DEF_STEREO_COUNT>
0
> <PUBCHEM_BOND_UDEF_STEREO_COUNT>
0
> <PUBCHEM_ISOTOPIC_ATOM_COUNT>
0
> <PUBCHEM_COMPONENT_COUNT>
1
> <PUBCHEM_CACTVS_TAUTO_COUNT>
-1
> <PUBCHEM_COORDINATE_TYPE>
1
5
255
> <PUBCHEM_BONDANNOTATIONS>
16  19  8
16  20  8
18  21  3
19  22  8
20  23  8
22  24  8
23  24  8
26  27  8
26  28  8
27  29  8
28  30  8
29  31  8
30  31  8
$$$$
