508730
  -OEChem-10302200282D
 51 53  0     1  0  0  0  0  0999 V2000
    6.8693    7.2510    0.0000 Cl  0  0  0  0  0  0  0  0  0  0  0  0
    2.0000   -6.2510    0.0000 Cl  0  0  0  0  0  0  0  0  0  0  0  0
    3.7320   -7.2510    0.0000 Cl  0  0  0  0  0  0  0  0  0  0  0  0
    4.5981    0.2490    0.0000 O   0  0  0  0  0  0  0  0  0  0  0  0
    2.8660   -2.7510    0.0000 O   0  0  0  0  0  0  0  0  0  0  0  0
    5.8301    2.7878    0.0000 N   0  0  3  0  0  0  0  0  0  0  0  0
    6.3301    0.2490    0.0000 N   0  0  0  0  0  0  0  0  0  0  0  0
    4.5981   -2.7510    0.0000 N   0  0  0  0  0  0  0  0  0  0  0  0
    6.3301    1.2490    0.0000 C   0  0  2  0  0  0  0  0  0  0  0  0
    7.1391    1.8368    0.0000 C   0  0  0  0  0  0  0  0  0  0  0  0
    5.5211    1.8368    0.0000 C   0  0  0  0  0  0  0  0  0  0  0  0
    6.8301    2.7878    0.0000 C   0  0  0  0  0  0  0  0  0  0  0  0
    5.2423    3.5968    0.0000 C   0  0  0  0  0  0  0  0  0  0  0  0
    5.6491    4.5104    0.0000 C   0  0  0  0  0  0  0  0  0  0  0  0
    5.4641   -0.2510    0.0000 C   0  0  0  0  0  0  0  0  0  0  0  0
    5.4641   -1.2510    0.0000 C   0  0  0  0  0  0  0  0  0  0  0  0
    6.6436    4.6149    0.0000 C   0  0  0  0  0  0  0  0  0  0  0  0
    5.0613    5.3194    0.0000 C   0  0  0  0  0  0  0  0  0  0  0  0
    4.5981   -1.7510    0.0000 C   0  0  0  0  0  0  0  0  0  0  0  0
    7.0503    5.5285    0.0000 C   0  0  0  0  0  0  0  0  0  0  0  0
    5.4680    6.2330    0.0000 C   0  0  0  0  0  0  0  0  0  0  0  0
    6.4626    6.3375    0.0000 C   0  0  0  0  0  0  0  0  0  0  0  0
    3.7320   -3.2510    0.0000 C   0  0  0  0  0  0  0  0  0  0  0  0
    3.7320   -4.2510    0.0000 C   0  0  0  0  0  0  0  0  0  0  0  0
    2.8660   -4.7510    0.0000 C   0  0  0  0  0  0  0  0  0  0  0  0
    4.5981   -4.7510    0.0000 C   0  0  0  0  0  0  0  0  0  0  0  0
    2.8660   -5.7510    0.0000 C   0  0  0  0  0  0  0  0  0  0  0  0
    4.5981   -5.7510    0.0000 C   0  0  0  0  0  0  0  0  0  0  0  0
    3.7320   -6.2510    0.0000 C   0  0  0  0  0  0  0  0  0  0  0  0
    6.8826    0.9675    0.0000 H   0  0  0  0  0  0  0  0  0  0  0  0
    7.4491    1.2998    0.0000 H   0  0  0  0  0  0  0  0  0  0  0  0
    7.7055    2.0889    0.0000 H   0  0  0  0  0  0  0  0  0  0  0  0
    4.9547    2.0889    0.0000 H   0  0  0  0  0  0  0  0  0  0  0  0
    5.2111    1.2998    0.0000 H   0  0  0  0  0  0  0  0  0  0  0  0
    7.4366    2.9167    0.0000 H   0  0  0  0  0  0  0  0  0  0  0  0
    6.7653    3.4044    0.0000 H   0  0  0  0  0  0  0  0  0  0  0  0
    4.7283    3.9435    0.0000 H   0  0  0  0  0  0  0  0  0  0  0  0
    4.8116    3.1508    0.0000 H   0  0  0  0  0  0  0  0  0  0  0  0
    6.8671   -0.0610    0.0000 H   0  0  0  0  0  0  0  0  0  0  0  0
    5.6762   -1.8336    0.0000 H   0  0  0  0  0  0  0  0  0  0  0  0
    6.0747   -1.1434    0.0000 H   0  0  0  0  0  0  0  0  0  0  0  0
    7.0080    4.1133    0.0000 H   0  0  0  0  0  0  0  0  0  0  0  0
    4.4447    5.2546    0.0000 H   0  0  0  0  0  0  0  0  0  0  0  0
    4.3860   -1.1684    0.0000 H   0  0  0  0  0  0  0  0  0  0  0  0
    3.9875   -1.8587    0.0000 H   0  0  0  0  0  0  0  0  0  0  0  0
    7.6669    5.5933    0.0000 H   0  0  0  0  0  0  0  0  0  0  0  0
    5.1036    6.7345    0.0000 H   0  0  0  0  0  0  0  0  0  0  0  0
    5.1350   -3.0610    0.0000 H   0  0  0  0  0  0  0  0  0  0  0  0
    2.3291   -4.4410    0.0000 H   0  0  0  0  0  0  0  0  0  0  0  0
    5.1350   -4.4410    0.0000 H   0  0  0  0  0  0  0  0  0  0  0  0
    5.1350   -6.0610    0.0000 H   0  0  0  0  0  0  0  0  0  0  0  0
  1 22  1  0  0  0  0
  2 27  1  0  0  0  0
  3 29  1  0  0  0  0
  4 15  2  0  0  0  0
  5 23  2  0  0  0  0
  6 11  1  0  0  0  0
  6 12  1  0  0  0  0
  6 13  1  0  0  0  0
  9  7  1  1  0  0  0
  7 15  1  0  0  0  0
  7 39  1  0  0  0  0
  8 19  1  0  0  0  0
  8 23  1  0  0  0  0
  8 48  1  0  0  0  0
  9 10  1  0  0  0  0
  9 11  1  0  0  0  0
  9 30  1  0  0  0  0
 10 12  1  0  0  0  0
 10 31  1  0  0  0  0
 10 32  1  0  0  0  0
 11 33  1  0  0  0  0
 11 34  1  0  0  0  0
 12 35  1  0  0  0  0
 12 36  1  0  0  0  0
 13 14  1  0  0  0  0
 13 37  1  0  0  0  0
 13 38  1  0  0  0  0
 14 17  2  0  0  0  0
 14 18  1  0  0  0  0
 15 16  1  0  0  0  0
 16 19  1  0  0  0  0
 16 40  1  0  0  0  0
 16 41  1  0  0  0  0
 17 20  1  0  0  0  0
 17 42  1  0  0  0  0
 18 21  2  0  0  0  0
 18 43  1  0  0  0  0
 19 44  1  0  0  0  0
 19 45  1  0  0  0  0
 20 22  2  0  0  0  0
 20 46  1  0  0  0  0
 21 22  1  0  0  0  0
 21 47  1  0  0  0  0
 23 24  1  0  0  0  0
 24 25  2  0  0  0  0
 24 26  1  0  0  0  0
 25 27  1  0  0  0  0
 25 49  1  0  0  0  0
 26 28  2  0  0  0  0
 26 50  1  0  0  0  0
 27 29  2  0  0  0  0
 28 29  1  0  0  0  0
 28 51  1  0  0  0  0
M  END
> <PUBCHEM_COMPOUND_CID>
508730
> <PUBCHEM_COMPOUND_CANONICALIZED>
1
> <PUBCHEM_CACTVS_COMPLEXITY>
557
> <PUBCHEM_CACTVS_HBOND_ACCEPTOR>
3
> <PUBCHEM_CACTVS_HBOND_DONOR>
2
> <PUBCHEM_CACTVS_ROTATABLE_BOND>
7
> <PUBCHEM_CACTVS_SUBSKEYS>
AAADceB7MAAGAAAAAAAAAAAAAAAAAWAAAAAwYAAAAAAAAAABQAAAHgIQAAAADCrBmCQwAIPAAACIAiFSEACCAAAkBQAIisEIBsgIYDqB1xGUIQhglgCIiYcYiACOBAAAIAAAAAQIAABAAAAACAAAAAAAAA==
> <PUBCHEM_IUPAC_OPENEYE_NAME>
3,4-dichloro-N-[3-[[(3R)-1-[(4-chlorophenyl)methyl]pyrrolidin-3-yl]amino]-3-oxo-propyl]benzamide
> <PUBCHEM_IUPAC_CAS_NAME>
3,4-dichloro-N-[3-[[(3R)-1-[(4-chlorophenyl)methyl]-3-pyrrolidinyl]amino]-3-oxopropyl]benzamide
> <PUBCHEM_IUPAC_NAME_MARKUP>
3,4-dichloro-<I>N</I>-[3-[[(3<I>R</I>)-1-[(4-chlorophenyl)methyl]pyrrolidin-3-yl]amino]-3-oxopropyl]benzamide
> <PUBCHEM_IUPAC_NAME>
3,4-dichloro-N-[3-[[(3R)-1-[(4-chlorophenyl)methyl]pyrrolidin-3-yl]amino]-3-oxopropyl]benzamide
> <PUBCHEM_IUPAC_SYSTEMATIC_NAME>
3,4-bis(chloranyl)-N-[3-[[(3R)-1-[(4-chlorophenyl)methyl]pyrrolidin-3-yl]amino]-3-oxidanylidene-propyl]benzamide
> <PUBCHEM_IUPAC_TRADITIONAL_NAME>
3,4-dichloro-N-[3-[[(3R)-1-(4-chlorobenzyl)pyrrolidin-3-yl]amino]-3-keto-propyl]benzamide
> <PUBCHEM_IUPAC_INCHI>
InChI=1S/C21H22Cl3N3O2/c22-16-4-1-14(2-5-16)12-27-10-8-17(13-27)26-20(28)7-9-25-21(29)15-3-6-18(23)19(24)11-15/h1-6,11,17H,7-10,12-13H2,(H,25,29)(H,26,28)/t17-/m1/s1
> <PUBCHEM_IUPAC_INCHIKEY>
VIIWWHQYCDCJGL-QGZVFWFLSA-N
> <PUBCHEM_XLOGP3_AA>
4.1
> <PUBCHEM_EXACT_MASS>
453.077760
> <PUBCHEM_MOLECULAR_FORMULA>
C21H22Cl3N3O2
> <PUBCHEM_MOLECULAR_WEIGHT>
454.8
> <PUBCHEM_OPENEYE_CAN_SMILES>
C1CN(CC1NC(=O)CCNC(=O)C2=CC(=C(C=C2)Cl)Cl)CC3=CC=C(C=C3)Cl
> <PUBCHEM_OPENEYE_ISO_SMILES>
C1CN(C[C@@H]1NC(=O)CCNC(=O)C2=CC(=C(C=C2)Cl)Cl)CC3=CC=C(C=C3)Cl
> <PUBCHEM_CACTVS_TPSA>
61.4
> <PUBCHEM_MONOISOTOPIC_WEIGHT>
453.077760
> <PUBCHEM_TOTAL_CHARGE>
0
> <PUBCHEM_HEAVY_ATOM_COUNT>
29
> <PUBCHEM_ATOM_DEF_STEREO_COUNT>
1
> <PUBCHEM_ATOM_UDEF_STEREO_COUNT>
0
> <PUBCHEM_BOND_DEF_STEREO_COUNT>
0
> <PUBCHEM_BOND_UDEF_STEREO_COUNT>
0
> <PUBCHEM_ISOTOPIC_ATOM_COUNT>
0
> <PUBCHEM_COMPONENT_COUNT>
1
> <PUBCHEM_CACTVS_TAUTO_COUNT>
-1
> <PUBCHEM_COORDINATE_TYPE>
1
5
255
> <PUBCHEM_BONDANNOTATIONS>
14  17  8
14  18  8
17  20  8
18  21  8
20  22  8
21  22  8
24  25  8
24  26  8
25  27  8
26  28  8
27  29  8
28  29  8
9  7  5
$$$$
