508731
  -OEChem-10302200282D
 54 56  0     1  0  0  0  0  0999 V2000
    6.0033    7.2510    0.0000 Cl  0  0  0  0  0  0  0  0  0  0  0  0
    3.7320    0.2490    0.0000 O   0  0  0  0  0  0  0  0  0  0  0  0
    2.0000   -2.7510    0.0000 O   0  0  0  0  0  0  0  0  0  0  0  0
    4.9641    2.7878    0.0000 N   0  0  3  0  0  0  0  0  0  0  0  0
    5.4641    0.2490    0.0000 N   0  0  0  0  0  0  0  0  0  0  0  0
    3.7320   -2.7510    0.0000 N   0  0  0  0  0  0  0  0  0  0  0  0
    5.4641    1.2490    0.0000 C   0  0  2  0  0  0  0  0  0  0  0  0
    6.2731    1.8368    0.0000 C   0  0  0  0  0  0  0  0  0  0  0  0
    4.6551    1.8368    0.0000 C   0  0  0  0  0  0  0  0  0  0  0  0
    5.9641    2.7878    0.0000 C   0  0  0  0  0  0  0  0  0  0  0  0
    4.3763    3.5968    0.0000 C   0  0  0  0  0  0  0  0  0  0  0  0
    4.7830    4.5104    0.0000 C   0  0  0  0  0  0  0  0  0  0  0  0
    4.5981   -0.2510    0.0000 C   0  0  0  0  0  0  0  0  0  0  0  0
    4.5981   -1.2510    0.0000 C   0  0  0  0  0  0  0  0  0  0  0  0
    5.7776    4.6149    0.0000 C   0  0  0  0  0  0  0  0  0  0  0  0
    4.1953    5.3194    0.0000 C   0  0  0  0  0  0  0  0  0  0  0  0
    3.7320   -1.7510    0.0000 C   0  0  0  0  0  0  0  0  0  0  0  0
    6.1843    5.5285    0.0000 C   0  0  0  0  0  0  0  0  0  0  0  0
    4.6020    6.2330    0.0000 C   0  0  0  0  0  0  0  0  0  0  0  0
    5.5965    6.3375    0.0000 C   0  0  0  0  0  0  0  0  0  0  0  0
    2.8660   -3.2510    0.0000 C   0  0  0  0  0  0  0  0  0  0  0  0
    2.8660   -4.2510    0.0000 C   0  0  0  0  0  0  0  0  0  0  0  0
    2.0000   -4.7510    0.0000 C   0  0  0  0  0  0  0  0  0  0  0  0
    3.7320   -4.7510    0.0000 C   0  0  0  0  0  0  0  0  0  0  0  0
    2.8660   -6.2510    0.0000 C   0  0  0  0  0  0  0  0  0  0  0  0
    2.0000   -5.7510    0.0000 C   0  0  0  0  0  0  0  0  0  0  0  0
    3.7320   -5.7510    0.0000 C   0  0  0  0  0  0  0  0  0  0  0  0
    2.8660   -7.2510    0.0000 C   0  0  0  0  0  0  0  0  0  0  0  0
    6.0165    0.9675    0.0000 H   0  0  0  0  0  0  0  0  0  0  0  0
    6.5831    1.2998    0.0000 H   0  0  0  0  0  0  0  0  0  0  0  0
    6.8395    2.0889    0.0000 H   0  0  0  0  0  0  0  0  0  0  0  0
    4.0887    2.0889    0.0000 H   0  0  0  0  0  0  0  0  0  0  0  0
    4.3451    1.2998    0.0000 H   0  0  0  0  0  0  0  0  0  0  0  0
    6.5706    2.9167    0.0000 H   0  0  0  0  0  0  0  0  0  0  0  0
    5.8993    3.4044    0.0000 H   0  0  0  0  0  0  0  0  0  0  0  0
    3.8623    3.9435    0.0000 H   0  0  0  0  0  0  0  0  0  0  0  0
    3.9456    3.1508    0.0000 H   0  0  0  0  0  0  0  0  0  0  0  0
    6.0010   -0.0610    0.0000 H   0  0  0  0  0  0  0  0  0  0  0  0
    4.8101   -1.8336    0.0000 H   0  0  0  0  0  0  0  0  0  0  0  0
    5.2087   -1.1434    0.0000 H   0  0  0  0  0  0  0  0  0  0  0  0
    6.1420    4.1133    0.0000 H   0  0  0  0  0  0  0  0  0  0  0  0
    3.5787    5.2546    0.0000 H   0  0  0  0  0  0  0  0  0  0  0  0
    3.5200   -1.1684    0.0000 H   0  0  0  0  0  0  0  0  0  0  0  0
    3.1215   -1.8587    0.0000 H   0  0  0  0  0  0  0  0  0  0  0  0
    6.8009    5.5933    0.0000 H   0  0  0  0  0  0  0  0  0  0  0  0
    4.2376    6.7345    0.0000 H   0  0  0  0  0  0  0  0  0  0  0  0
    4.2690   -3.0610    0.0000 H   0  0  0  0  0  0  0  0  0  0  0  0
    1.4631   -4.4410    0.0000 H   0  0  0  0  0  0  0  0  0  0  0  0
    4.2690   -4.4410    0.0000 H   0  0  0  0  0  0  0  0  0  0  0  0
    1.4631   -6.0610    0.0000 H   0  0  0  0  0  0  0  0  0  0  0  0
    4.2690   -6.0610    0.0000 H   0  0  0  0  0  0  0  0  0  0  0  0
    2.2460   -7.2510    0.0000 H   0  0  0  0  0  0  0  0  0  0  0  0
    2.8660   -7.8710    0.0000 H   0  0  0  0  0  0  0  0  0  0  0  0
    3.4860   -7.2510    0.0000 H   0  0  0  0  0  0  0  0  0  0  0  0
  1 20  1  0  0  0  0
  2 13  2  0  0  0  0
  3 21  2  0  0  0  0
  4  9  1  0  0  0  0
  4 10  1  0  0  0  0
  4 11  1  0  0  0  0
  7  5  1  1  0  0  0
  5 13  1  0  0  0  0
  5 38  1  0  0  0  0
  6 17  1  0  0  0  0
  6 21  1  0  0  0  0
  6 47  1  0  0  0  0
  7  8  1  0  0  0  0
  7  9  1  0  0  0  0
  7 29  1  0  0  0  0
  8 10  1  0  0  0  0
  8 30  1  0  0  0  0
  8 31  1  0  0  0  0
  9 32  1  0  0  0  0
  9 33  1  0  0  0  0
 10 34  1  0  0  0  0
 10 35  1  0  0  0  0
 11 12  1  0  0  0  0
 11 36  1  0  0  0  0
 11 37  1  0  0  0  0
 12 15  2  0  0  0  0
 12 16  1  0  0  0  0
 13 14  1  0  0  0  0
 14 17  1  0  0  0  0
 14 39  1  0  0  0  0
 14 40  1  0  0  0  0
 15 18  1  0  0  0  0
 15 41  1  0  0  0  0
 16 19  2  0  0  0  0
 16 42  1  0  0  0  0
 17 43  1  0  0  0  0
 17 44  1  0  0  0  0
 18 20  2  0  0  0  0
 18 45  1  0  0  0  0
 19 20  1  0  0  0  0
 19 46  1  0  0  0  0
 21 22  1  0  0  0  0
 22 23  2  0  0  0  0
 22 24  1  0  0  0  0
 23 26  1  0  0  0  0
 23 48  1  0  0  0  0
 24 27  2  0  0  0  0
 24 49  1  0  0  0  0
 25 26  2  0  0  0  0
 25 27  1  0  0  0  0
 25 28  1  0  0  0  0
 26 50  1  0  0  0  0
 27 51  1  0  0  0  0
 28 52  1  0  0  0  0
 28 53  1  0  0  0  0
 28 54  1  0  0  0  0
M  END
> <PUBCHEM_COMPOUND_CID>
508731
> <PUBCHEM_COMPOUND_CANONICALIZED>
1
> <PUBCHEM_CACTVS_COMPLEXITY>
514
> <PUBCHEM_CACTVS_HBOND_ACCEPTOR>
3
> <PUBCHEM_CACTVS_HBOND_DONOR>
2
> <PUBCHEM_CACTVS_ROTATABLE_BOND>
7
> <PUBCHEM_CACTVS_SUBSKEYS>
AAADceB7MAAEAAAAAAAAAAAAAAAAAWAAAAAwYAAAAAAAAAABQAAAHgIQAAAADCrBmCQyAIPAAACIAiFSEACCAAAkBQAIiIEIBsgIYDqB1xGUIQhglgCIiYcYiACORAAAAAAAAACIAAAAAAAAAAAAAAAAAA==
> <PUBCHEM_IUPAC_OPENEYE_NAME>
N-[3-[[(3R)-1-[(4-chlorophenyl)methyl]pyrrolidin-3-yl]amino]-3-oxo-propyl]-4-methyl-benzamide
> <PUBCHEM_IUPAC_CAS_NAME>
N-[3-[[(3R)-1-[(4-chlorophenyl)methyl]-3-pyrrolidinyl]amino]-3-oxopropyl]-4-methylbenzamide
> <PUBCHEM_IUPAC_NAME_MARKUP>
<I>N</I>-[3-[[(3<I>R</I>)-1-[(4-chlorophenyl)methyl]pyrrolidin-3-yl]amino]-3-oxopropyl]-4-methylbenzamide
> <PUBCHEM_IUPAC_NAME>
N-[3-[[(3R)-1-[(4-chlorophenyl)methyl]pyrrolidin-3-yl]amino]-3-oxopropyl]-4-methylbenzamide
> <PUBCHEM_IUPAC_SYSTEMATIC_NAME>
N-[3-[[(3R)-1-[(4-chlorophenyl)methyl]pyrrolidin-3-yl]amino]-3-oxidanylidene-propyl]-4-methyl-benzamide
> <PUBCHEM_IUPAC_TRADITIONAL_NAME>
N-[3-[[(3R)-1-(4-chlorobenzyl)pyrrolidin-3-yl]amino]-3-keto-propyl]-4-methyl-benzamide
> <PUBCHEM_IUPAC_INCHI>
InChI=1S/C22H26ClN3O2/c1-16-2-6-18(7-3-16)22(28)24-12-10-21(27)25-20-11-13-26(15-20)14-17-4-8-19(23)9-5-17/h2-9,20H,10-15H2,1H3,(H,24,28)(H,25,27)/t20-/m1/s1
> <PUBCHEM_IUPAC_INCHIKEY>
DDACJKUKUWLCFF-HXUWFJFHSA-N
> <PUBCHEM_XLOGP3_AA>
3.2
> <PUBCHEM_EXACT_MASS>
399.1713548
> <PUBCHEM_MOLECULAR_FORMULA>
C22H26ClN3O2
> <PUBCHEM_MOLECULAR_WEIGHT>
399.9
> <PUBCHEM_OPENEYE_CAN_SMILES>
CC1=CC=C(C=C1)C(=O)NCCC(=O)NC2CCN(C2)CC3=CC=C(C=C3)Cl
> <PUBCHEM_OPENEYE_ISO_SMILES>
CC1=CC=C(C=C1)C(=O)NCCC(=O)N[C@@H]2CCN(C2)CC3=CC=C(C=C3)Cl
> <PUBCHEM_CACTVS_TPSA>
61.4
> <PUBCHEM_MONOISOTOPIC_WEIGHT>
399.1713548
> <PUBCHEM_TOTAL_CHARGE>
0
> <PUBCHEM_HEAVY_ATOM_COUNT>
28
> <PUBCHEM_ATOM_DEF_STEREO_COUNT>
1
> <PUBCHEM_ATOM_UDEF_STEREO_COUNT>
0
> <PUBCHEM_BOND_DEF_STEREO_COUNT>
0
> <PUBCHEM_BOND_UDEF_STEREO_COUNT>
0
> <PUBCHEM_ISOTOPIC_ATOM_COUNT>
0
> <PUBCHEM_COMPONENT_COUNT>
1
> <PUBCHEM_CACTVS_TAUTO_COUNT>
-1
> <PUBCHEM_COORDINATE_TYPE>
1
5
255
> <PUBCHEM_BONDANNOTATIONS>
12  15  8
12  16  8
15  18  8
16  19  8
18  20  8
19  20  8
22  23  8
22  24  8
23  26  8
24  27  8
25  26  8
25  27  8
7  5  5
$$$$
