508721
  -OEChem-10302200282D
 79 80  0     1  0  0  0  0  0999 V2000
    4.5981   -0.0000    0.0000 S   0  0  0  0  0  0  0  0  0  0  0  0
    5.5981   -0.0000    0.0000 O   0  0  0  0  0  0  0  0  0  0  0  0
    3.5981   -0.0000    0.0000 O   0  0  0  0  0  0  0  0  0  0  0  0
    6.3301    3.0000    0.0000 O   0  0  0  0  0  0  0  0  0  0  0  0
    4.5981    3.0000    0.0000 O   0  0  0  0  0  0  0  0  0  0  0  0
   10.6603    2.5000    0.0000 O   0  0  0  0  0  0  0  0  0  0  0  0
   11.5263    3.0000    0.0000 O   0  0  0  0  0  0  0  0  0  0  0  0
    4.5981    1.0000    0.0000 N   0  0  3  0  0  0  0  0  0  0  0  0
    9.7942    1.0000    0.0000 N   0  0  0  0  0  0  0  0  0  0  0  0
   12.3923    1.5000    0.0000 N   0  0  0  0  0  0  0  0  0  0  0  0
   13.2583    3.0000    0.0000 N   0  0  0  0  0  0  0  0  0  0  0  0
    5.4641    1.5000    0.0000 C   0  0  1  0  0  0  0  0  0  0  0  0
    6.3301    1.0000    0.0000 C   0  0  0  0  0  0  0  0  0  0  0  0
    3.7320    1.5000    0.0000 C   0  0  0  0  0  0  0  0  0  0  0  0
    2.8660    1.0000    0.0000 C   0  0  0  0  0  0  0  0  0  0  0  0
    7.1962    1.5000    0.0000 C   0  0  0  0  0  0  0  0  0  0  0  0
    8.0622    1.0000    0.0000 C   0  0  0  0  0  0  0  0  0  0  0  0
    5.4641    2.5000    0.0000 C   0  0  0  0  0  0  0  0  0  0  0  0
    4.5981   -1.0000    0.0000 C   0  0  0  0  0  0  0  0  0  0  0  0
    2.0000    1.5000    0.0000 C   0  0  0  0  0  0  0  0  0  0  0  0
    2.8660   -0.0000    0.0000 C   0  0  0  0  0  0  0  0  0  0  0  0
    8.9282    1.5000    0.0000 C   0  0  0  0  0  0  0  0  0  0  0  0
    3.7320   -1.5000    0.0000 C   0  0  0  0  0  0  0  0  0  0  0  0
    5.4641   -1.5000    0.0000 C   0  0  0  0  0  0  0  0  0  0  0  0
   11.5263    1.0000    0.0000 C   0  0  2  0  0  0  0  0  0  0  0  0
   10.6603    1.5000    0.0000 C   0  0  0  0  0  0  0  0  0  0  0  0
    3.7320   -2.5000    0.0000 C   0  0  0  0  0  0  0  0  0  0  0  0
    5.4641   -2.5000    0.0000 C   0  0  0  0  0  0  0  0  0  0  0  0
   11.5263    0.0000    0.0000 C   0  0  0  0  0  0  0  0  0  0  0  0
    4.5981   -3.0000    0.0000 C   0  0  0  0  0  0  0  0  0  0  0  0
   12.3923   -0.5000    0.0000 C   0  0  0  0  0  0  0  0  0  0  0  0
    4.5981   -4.0000    0.0000 C   0  0  0  0  0  0  0  0  0  0  0  0
   13.2583    0.0000    0.0000 C   0  0  0  0  0  0  0  0  0  0  0  0
   12.3923   -1.5000    0.0000 C   0  0  0  0  0  0  0  0  0  0  0  0
   12.3923    2.5000    0.0000 C   0  0  0  0  0  0  0  0  0  0  0  0
   14.1244   -0.5000    0.0000 C   0  0  0  0  0  0  0  0  0  0  0  0
   13.2583   -2.0000    0.0000 C   0  0  0  0  0  0  0  0  0  0  0  0
   14.1244   -1.5000    0.0000 C   0  0  0  0  0  0  0  0  0  0  0  0
   13.2583    4.0000    0.0000 C   0  0  0  0  0  0  0  0  0  0  0  0
    5.4641    0.8800    0.0000 H   0  0  0  0  0  0  0  0  0  0  0  0
    5.9316    0.5251    0.0000 H   0  0  0  0  0  0  0  0  0  0  0  0
    6.7287    0.5251    0.0000 H   0  0  0  0  0  0  0  0  0  0  0  0
    4.1306    1.9750    0.0000 H   0  0  0  0  0  0  0  0  0  0  0  0
    3.3335    1.9750    0.0000 H   0  0  0  0  0  0  0  0  0  0  0  0
    2.8660    1.6200    0.0000 H   0  0  0  0  0  0  0  0  0  0  0  0
    7.5947    1.9750    0.0000 H   0  0  0  0  0  0  0  0  0  0  0  0
    6.7976    1.9750    0.0000 H   0  0  0  0  0  0  0  0  0  0  0  0
    7.6636    0.5251    0.0000 H   0  0  0  0  0  0  0  0  0  0  0  0
    8.4607    0.5251    0.0000 H   0  0  0  0  0  0  0  0  0  0  0  0
    2.3100    2.0369    0.0000 H   0  0  0  0  0  0  0  0  0  0  0  0
    1.4631    1.8100    0.0000 H   0  0  0  0  0  0  0  0  0  0  0  0
    1.6900    0.9631    0.0000 H   0  0  0  0  0  0  0  0  0  0  0  0
    2.2460   -0.0000    0.0000 H   0  0  0  0  0  0  0  0  0  0  0  0
    2.8660   -0.6200    0.0000 H   0  0  0  0  0  0  0  0  0  0  0  0
    3.4860   -0.0000    0.0000 H   0  0  0  0  0  0  0  0  0  0  0  0
    9.3267    1.9750    0.0000 H   0  0  0  0  0  0  0  0  0  0  0  0
    8.5297    1.9750    0.0000 H   0  0  0  0  0  0  0  0  0  0  0  0
    9.7942    0.3800    0.0000 H   0  0  0  0  0  0  0  0  0  0  0  0
    3.1951   -1.1900    0.0000 H   0  0  0  0  0  0  0  0  0  0  0  0
    6.0010   -1.1900    0.0000 H   0  0  0  0  0  0  0  0  0  0  0  0
   12.0632    0.6900    0.0000 H   0  0  0  0  0  0  0  0  0  0  0  0
    6.3301    3.6200    0.0000 H   0  0  0  0  0  0  0  0  0  0  0  0
    3.1951   -2.8100    0.0000 H   0  0  0  0  0  0  0  0  0  0  0  0
    6.0010   -2.8100    0.0000 H   0  0  0  0  0  0  0  0  0  0  0  0
   10.9157    0.1077    0.0000 H   0  0  0  0  0  0  0  0  0  0  0  0
   11.3142   -0.5826    0.0000 H   0  0  0  0  0  0  0  0  0  0  0  0
   12.9292    1.1900    0.0000 H   0  0  0  0  0  0  0  0  0  0  0  0
    3.9781   -4.0000    0.0000 H   0  0  0  0  0  0  0  0  0  0  0  0
    4.5981   -4.6200    0.0000 H   0  0  0  0  0  0  0  0  0  0  0  0
    5.2181   -4.0000    0.0000 H   0  0  0  0  0  0  0  0  0  0  0  0
   13.2583    0.6200    0.0000 H   0  0  0  0  0  0  0  0  0  0  0  0
   11.8554   -1.8100    0.0000 H   0  0  0  0  0  0  0  0  0  0  0  0
   14.6613   -0.1900    0.0000 H   0  0  0  0  0  0  0  0  0  0  0  0
   13.2583   -2.6200    0.0000 H   0  0  0  0  0  0  0  0  0  0  0  0
   14.6613   -1.8100    0.0000 H   0  0  0  0  0  0  0  0  0  0  0  0
   13.7953    2.6900    0.0000 H   0  0  0  0  0  0  0  0  0  0  0  0
   13.8783    4.0000    0.0000 H   0  0  0  0  0  0  0  0  0  0  0  0
   13.2583    4.6200    0.0000 H   0  0  0  0  0  0  0  0  0  0  0  0
   12.6383    4.0000    0.0000 H   0  0  0  0  0  0  0  0  0  0  0  0
  1  2  2  0  0  0  0
  1  3  2  0  0  0  0
  1  8  1  0  0  0  0
  1 19  1  0  0  0  0
  4 18  1  0  0  0  0
  4 62  1  0  0  0  0
  5 18  2  0  0  0  0
  6 26  2  0  0  0  0
  7 35  2  0  0  0  0
 12  8  1  6  0  0  0
  8 14  1  0  0  0  0
  9 22  1  0  0  0  0
  9 26  1  0  0  0  0
  9 58  1  0  0  0  0
 25 10  1  1  0  0  0
 10 35  1  0  0  0  0
 10 67  1  0  0  0  0
 11 35  1  0  0  0  0
 11 39  1  0  0  0  0
 11 76  1  0  0  0  0
 12 13  1  0  0  0  0
 12 18  1  0  0  0  0
 12 40  1  0  0  0  0
 13 16  1  0  0  0  0
 13 41  1  0  0  0  0
 13 42  1  0  0  0  0
 14 15  1  0  0  0  0
 14 43  1  0  0  0  0
 14 44  1  0  0  0  0
 15 20  1  0  0  0  0
 15 21  1  0  0  0  0
 15 45  1  0  0  0  0
 16 17  1  0  0  0  0
 16 46  1  0  0  0  0
 16 47  1  0  0  0  0
 17 22  1  0  0  0  0
 17 48  1  0  0  0  0
 17 49  1  0  0  0  0
 19 23  2  0  0  0  0
 19 24  1  0  0  0  0
 20 50  1  0  0  0  0
 20 51  1  0  0  0  0
 20 52  1  0  0  0  0
 21 53  1  0  0  0  0
 21 54  1  0  0  0  0
 21 55  1  0  0  0  0
 22 56  1  0  0  0  0
 22 57  1  0  0  0  0
 23 27  1  0  0  0  0
 23 59  1  0  0  0  0
 24 28  2  0  0  0  0
 24 60  1  0  0  0  0
 25 26  1  0  0  0  0
 25 29  1  0  0  0  0
 25 61  1  0  0  0  0
 27 30  2  0  0  0  0
 27 63  1  0  0  0  0
 28 30  1  0  0  0  0
 28 64  1  0  0  0  0
 29 31  1  0  0  0  0
 29 65  1  0  0  0  0
 29 66  1  0  0  0  0
 30 32  1  0  0  0  0
 31 33  2  0  0  0  0
 31 34  1  0  0  0  0
 32 68  1  0  0  0  0
 32 69  1  0  0  0  0
 32 70  1  0  0  0  0
 33 36  1  0  0  0  0
 33 71  1  0  0  0  0
 34 37  2  0  0  0  0
 34 72  1  0  0  0  0
 36 38  2  0  0  0  0
 36 73  1  0  0  0  0
 37 38  1  0  0  0  0
 37 74  1  0  0  0  0
 38 75  1  0  0  0  0
 39 77  1  0  0  0  0
 39 78  1  0  0  0  0
 39 79  1  0  0  0  0
M  END
> <PUBCHEM_COMPOUND_CID>
508721
> <PUBCHEM_COMPOUND_CANONICALIZED>
1
> <PUBCHEM_CACTVS_COMPLEXITY>
877
> <PUBCHEM_CACTVS_HBOND_ACCEPTOR>
7
> <PUBCHEM_CACTVS_HBOND_DONOR>
4
> <PUBCHEM_CACTVS_ROTATABLE_BOND>
15
> <PUBCHEM_CACTVS_SUBSKEYS>
AAADcfB7uABAAAAAAAAAAAAAAAAAAAAAAAAwYAAAAAAAAAABQAAAHgQQSAAADSjB2AQzCYLAAgKIAiHSGHBCABAgAAAIiJmIAIiKYDKAkTGUYAAslgKYiAeYyICOEAAAAAAAAAAgAAAAAAAAAAAAAAAAAA==
> <PUBCHEM_IUPAC_OPENEYE_NAME>
(2S)-2-[isobutyl(p-tolylsulfonyl)amino]-6-[[(2S)-2-(methylcarbamoylamino)-3-phenyl-propanoyl]amino]hexanoic acid
> <PUBCHEM_IUPAC_CAS_NAME>
(2S)-6-[[(2S)-2-(methylcarbamoylamino)-1-oxo-3-phenylpropyl]amino]-2-[(4-methylphenyl)sulfonyl-(2-methylpropyl)amino]hexanoic acid
> <PUBCHEM_IUPAC_NAME_MARKUP>
(2<I>S</I>)-6-[[(2<I>S</I>)-2-(methylcarbamoylamino)-3-phenylpropanoyl]amino]-2-[(4-methylphenyl)sulfonyl-(2-methylpropyl)amino]hexanoic acid
> <PUBCHEM_IUPAC_NAME>
(2S)-6-[[(2S)-2-(methylcarbamoylamino)-3-phenylpropanoyl]amino]-2-[(4-methylphenyl)sulfonyl-(2-methylpropyl)amino]hexanoic acid
> <PUBCHEM_IUPAC_SYSTEMATIC_NAME>
(2S)-6-[[(2S)-2-(methylcarbamoylamino)-3-phenyl-propanoyl]amino]-2-[(4-methylphenyl)sulfonyl-(2-methylpropyl)amino]hexanoic acid
> <PUBCHEM_IUPAC_TRADITIONAL_NAME>
(2S)-2-[isobutyl(tosyl)amino]-6-[[(2S)-2-(methylcarbamoylamino)-3-phenyl-propanoyl]amino]hexanoic acid
> <PUBCHEM_IUPAC_INCHI>
InChI=1S/C28H40N4O6S/c1-20(2)19-32(39(37,38)23-15-13-21(3)14-16-23)25(27(34)35)12-8-9-17-30-26(33)24(31-28(36)29-4)18-22-10-6-5-7-11-22/h5-7,10-11,13-16,20,24-25H,8-9,12,17-19H2,1-4H3,(H,30,33)(H,34,35)(H2,29,31,36)/t24-,25-/m0/s1
> <PUBCHEM_IUPAC_INCHIKEY>
FWZPMVBPLFJCGK-DQEYMECFSA-N
> <PUBCHEM_XLOGP3_AA>
3.9
> <PUBCHEM_EXACT_MASS>
560.26685618
> <PUBCHEM_MOLECULAR_FORMULA>
C28H40N4O6S
> <PUBCHEM_MOLECULAR_WEIGHT>
560.7
> <PUBCHEM_OPENEYE_CAN_SMILES>
CC1=CC=C(C=C1)S(=O)(=O)N(CC(C)C)C(CCCCNC(=O)C(CC2=CC=CC=C2)NC(=O)NC)C(=O)O
> <PUBCHEM_OPENEYE_ISO_SMILES>
CC1=CC=C(C=C1)S(=O)(=O)N(CC(C)C)[C@@H](CCCCNC(=O)[C@H](CC2=CC=CC=C2)NC(=O)NC)C(=O)O
> <PUBCHEM_CACTVS_TPSA>
153
> <PUBCHEM_MONOISOTOPIC_WEIGHT>
560.26685618
> <PUBCHEM_TOTAL_CHARGE>
0
> <PUBCHEM_HEAVY_ATOM_COUNT>
39
> <PUBCHEM_ATOM_DEF_STEREO_COUNT>
2
> <PUBCHEM_ATOM_UDEF_STEREO_COUNT>
0
> <PUBCHEM_BOND_DEF_STEREO_COUNT>
0
> <PUBCHEM_BOND_UDEF_STEREO_COUNT>
0
> <PUBCHEM_ISOTOPIC_ATOM_COUNT>
0
> <PUBCHEM_COMPONENT_COUNT>
1
> <PUBCHEM_CACTVS_TAUTO_COUNT>
-1
> <PUBCHEM_COORDINATE_TYPE>
1
5
255
> <PUBCHEM_BONDANNOTATIONS>
25  10  5
19  23  8
19  24  8
23  27  8
24  28  8
27  30  8
28  30  8
31  33  8
31  34  8
33  36  8
34  37  8
36  38  8
37  38  8
12  8  6
$$$$
