508703
  -OEChem-10302200282D
 81 82  0     1  0  0  0  0  0999 V2000
    3.7320   -3.0950    0.0000 S   0  0  0  0  0  0  0  0  0  0  0  0
    6.3301   -1.5950    0.0000 O   0  0  0  0  0  0  0  0  0  0  0  0
    4.7320   -3.0950    0.0000 O   0  0  0  0  0  0  0  0  0  0  0  0
    2.7320   -3.0950    0.0000 O   0  0  0  0  0  0  0  0  0  0  0  0
    8.0622    2.4050    0.0000 O   0  0  0  0  0  0  0  0  0  0  0  0
    3.7320   -2.0950    0.0000 N   0  0  3  0  0  0  0  0  0  0  0  0
    6.3301    2.4050    0.0000 N   0  0  0  0  0  0  0  0  0  0  0  0
    8.0622    4.4050    0.0000 N   0  0  3  0  0  0  0  0  0  0  0  0
    3.7320   -7.0950    0.0000 N   0  0  0  0  0  0  0  0  0  0  0  0
    4.5981   -1.5950    0.0000 C   0  0  1  0  0  0  0  0  0  0  0  0
    4.5981   -0.5950    0.0000 C   0  0  0  0  0  0  0  0  0  0  0  0
    2.8660   -1.5950    0.0000 C   0  0  0  0  0  0  0  0  0  0  0  0
    5.4641   -0.0950    0.0000 C   0  0  0  0  0  0  0  0  0  0  0  0
    2.8660   -0.5950    0.0000 C   0  0  0  0  0  0  0  0  0  0  0  0
    5.4641   -2.0950    0.0000 C   0  0  0  0  0  0  0  0  0  0  0  0
    5.4641    0.9050    0.0000 C   0  0  0  0  0  0  0  0  0  0  0  0
    3.7320   -4.0950    0.0000 C   0  0  0  0  0  0  0  0  0  0  0  0
    2.0000   -0.0950    0.0000 C   0  0  0  0  0  0  0  0  0  0  0  0
    3.7320   -0.0950    0.0000 C   0  0  0  0  0  0  0  0  0  0  0  0
    6.3301    1.4050    0.0000 C   0  0  0  0  0  0  0  0  0  0  0  0
    2.8660   -4.5950    0.0000 C   0  0  0  0  0  0  0  0  0  0  0  0
    4.5981   -4.5950    0.0000 C   0  0  0  0  0  0  0  0  0  0  0  0
    8.9282    3.9050    0.0000 C   0  0  0  0  0  0  0  0  0  0  0  0
    7.1962    3.9050    0.0000 C   0  0  0  0  0  0  0  0  0  0  0  0
    9.7942    4.4050    0.0000 C   0  0  0  0  0  0  0  0  0  0  0  0
    7.1962    2.9050    0.0000 C   0  0  0  0  0  0  0  0  0  0  0  0
    2.8660   -5.5950    0.0000 C   0  0  0  0  0  0  0  0  0  0  0  0
    4.5981   -5.5950    0.0000 C   0  0  0  0  0  0  0  0  0  0  0  0
    3.7320   -6.0950    0.0000 C   0  0  0  0  0  0  0  0  0  0  0  0
    8.0622    5.4050    0.0000 C   0  0  0  0  0  0  0  0  0  0  0  0
   10.6603    3.9050    0.0000 C   0  0  0  0  0  0  0  0  0  0  0  0
    9.7942    5.4050    0.0000 C   0  0  0  0  0  0  0  0  0  0  0  0
    7.1962    5.9050    0.0000 C   0  0  0  0  0  0  0  0  0  0  0  0
    8.9282    5.9050    0.0000 C   0  0  0  0  0  0  0  0  0  0  0  0
    7.1962    6.9050    0.0000 C   0  0  0  0  0  0  0  0  0  0  0  0
    8.9282    6.9050    0.0000 C   0  0  0  0  0  0  0  0  0  0  0  0
    8.0622    7.4050    0.0000 C   0  0  0  0  0  0  0  0  0  0  0  0
    4.5981   -2.2150    0.0000 H   0  0  0  0  0  0  0  0  0  0  0  0
    4.3860   -0.0124    0.0000 H   0  0  0  0  0  0  0  0  0  0  0  0
    3.9875   -0.7027    0.0000 H   0  0  0  0  0  0  0  0  0  0  0  0
    2.2554   -1.4873    0.0000 H   0  0  0  0  0  0  0  0  0  0  0  0
    2.6540   -2.1776    0.0000 H   0  0  0  0  0  0  0  0  0  0  0  0
    5.6762   -0.6776    0.0000 H   0  0  0  0  0  0  0  0  0  0  0  0
    6.0747    0.0127    0.0000 H   0  0  0  0  0  0  0  0  0  0  0  0
    2.8660    0.0250    0.0000 H   0  0  0  0  0  0  0  0  0  0  0  0
    5.0656   -2.5700    0.0000 H   0  0  0  0  0  0  0  0  0  0  0  0
    5.8626   -2.5700    0.0000 H   0  0  0  0  0  0  0  0  0  0  0  0
    5.2520    1.4876    0.0000 H   0  0  0  0  0  0  0  0  0  0  0  0
    4.8535    0.7973    0.0000 H   0  0  0  0  0  0  0  0  0  0  0  0
    2.3100    0.4419    0.0000 H   0  0  0  0  0  0  0  0  0  0  0  0
    1.4631    0.2150    0.0000 H   0  0  0  0  0  0  0  0  0  0  0  0
    1.6900   -0.6319    0.0000 H   0  0  0  0  0  0  0  0  0  0  0  0
    4.0420   -0.6319    0.0000 H   0  0  0  0  0  0  0  0  0  0  0  0
    4.2690    0.2150    0.0000 H   0  0  0  0  0  0  0  0  0  0  0  0
    3.4220    0.4419    0.0000 H   0  0  0  0  0  0  0  0  0  0  0  0
    6.5422    0.8224    0.0000 H   0  0  0  0  0  0  0  0  0  0  0  0
    6.9407    1.5127    0.0000 H   0  0  0  0  0  0  0  0  0  0  0  0
    6.8671   -1.9050    0.0000 H   0  0  0  0  0  0  0  0  0  0  0  0
    5.7932    2.7150    0.0000 H   0  0  0  0  0  0  0  0  0  0  0  0
    2.3291   -4.2850    0.0000 H   0  0  0  0  0  0  0  0  0  0  0  0
    5.1350   -4.2850    0.0000 H   0  0  0  0  0  0  0  0  0  0  0  0
    8.5297    3.4300    0.0000 H   0  0  0  0  0  0  0  0  0  0  0  0
    9.3267    3.4300    0.0000 H   0  0  0  0  0  0  0  0  0  0  0  0
    6.9841    4.4876    0.0000 H   0  0  0  0  0  0  0  0  0  0  0  0
    6.5856    3.7973    0.0000 H   0  0  0  0  0  0  0  0  0  0  0  0
    9.2573    4.7150    0.0000 H   0  0  0  0  0  0  0  0  0  0  0  0
    2.3291   -5.9050    0.0000 H   0  0  0  0  0  0  0  0  0  0  0  0
    5.1350   -5.9050    0.0000 H   0  0  0  0  0  0  0  0  0  0  0  0
   10.3503    3.3681    0.0000 H   0  0  0  0  0  0  0  0  0  0  0  0
   11.1972    3.5950    0.0000 H   0  0  0  0  0  0  0  0  0  0  0  0
   10.9703    4.4419    0.0000 H   0  0  0  0  0  0  0  0  0  0  0  0
   10.4142    5.4050    0.0000 H   0  0  0  0  0  0  0  0  0  0  0  0
    9.7942    6.0250    0.0000 H   0  0  0  0  0  0  0  0  0  0  0  0
    9.1742    5.4050    0.0000 H   0  0  0  0  0  0  0  0  0  0  0  0
    6.6592    5.5950    0.0000 H   0  0  0  0  0  0  0  0  0  0  0  0
    9.4651    5.5950    0.0000 H   0  0  0  0  0  0  0  0  0  0  0  0
    3.1951   -7.4050    0.0000 H   0  0  0  0  0  0  0  0  0  0  0  0
    4.2690   -7.4050    0.0000 H   0  0  0  0  0  0  0  0  0  0  0  0
    6.6592    7.2150    0.0000 H   0  0  0  0  0  0  0  0  0  0  0  0
    9.4651    7.2150    0.0000 H   0  0  0  0  0  0  0  0  0  0  0  0
    8.0622    8.0250    0.0000 H   0  0  0  0  0  0  0  0  0  0  0  0
  1  3  2  0  0  0  0
  1  4  2  0  0  0  0
  1  6  1  0  0  0  0
  1 17  1  0  0  0  0
  2 15  1  0  0  0  0
  2 58  1  0  0  0  0
  5 26  2  0  0  0  0
 10  6  1  1  0  0  0
  6 12  1  0  0  0  0
  7 20  1  0  0  0  0
  7 26  1  0  0  0  0
  7 59  1  0  0  0  0
  8 23  1  0  0  0  0
  8 24  1  0  0  0  0
  8 30  1  0  0  0  0
  9 29  1  0  0  0  0
  9 77  1  0  0  0  0
  9 78  1  0  0  0  0
 10 11  1  0  0  0  0
 10 15  1  0  0  0  0
 10 38  1  0  0  0  0
 11 13  1  0  0  0  0
 11 39  1  0  0  0  0
 11 40  1  0  0  0  0
 12 14  1  0  0  0  0
 12 41  1  0  0  0  0
 12 42  1  0  0  0  0
 13 16  1  0  0  0  0
 13 43  1  0  0  0  0
 13 44  1  0  0  0  0
 14 18  1  0  0  0  0
 14 19  1  0  0  0  0
 14 45  1  0  0  0  0
 15 46  1  0  0  0  0
 15 47  1  0  0  0  0
 16 20  1  0  0  0  0
 16 48  1  0  0  0  0
 16 49  1  0  0  0  0
 17 21  2  0  0  0  0
 17 22  1  0  0  0  0
 18 50  1  0  0  0  0
 18 51  1  0  0  0  0
 18 52  1  0  0  0  0
 19 53  1  0  0  0  0
 19 54  1  0  0  0  0
 19 55  1  0  0  0  0
 20 56  1  0  0  0  0
 20 57  1  0  0  0  0
 21 27  1  0  0  0  0
 21 60  1  0  0  0  0
 22 28  2  0  0  0  0
 22 61  1  0  0  0  0
 23 25  1  0  0  0  0
 23 62  1  0  0  0  0
 23 63  1  0  0  0  0
 24 26  1  0  0  0  0
 24 64  1  0  0  0  0
 24 65  1  0  0  0  0
 25 31  1  0  0  0  0
 25 32  1  0  0  0  0
 25 66  1  0  0  0  0
 27 29  2  0  0  0  0
 27 67  1  0  0  0  0
 28 29  1  0  0  0  0
 28 68  1  0  0  0  0
 30 33  2  0  0  0  0
 30 34  1  0  0  0  0
 31 69  1  0  0  0  0
 31 70  1  0  0  0  0
 31 71  1  0  0  0  0
 32 72  1  0  0  0  0
 32 73  1  0  0  0  0
 32 74  1  0  0  0  0
 33 35  1  0  0  0  0
 33 75  1  0  0  0  0
 34 36  2  0  0  0  0
 34 76  1  0  0  0  0
 35 37  2  0  0  0  0
 35 79  1  0  0  0  0
 36 37  1  0  0  0  0
 36 80  1  0  0  0  0
 37 81  1  0  0  0  0
M  END
> <PUBCHEM_COMPOUND_CID>
508703
> <PUBCHEM_COMPOUND_CANONICALIZED>
1
> <PUBCHEM_CACTVS_COMPLEXITY>
742
> <PUBCHEM_CACTVS_HBOND_ACCEPTOR>
7
> <PUBCHEM_CACTVS_HBOND_DONOR>
3
> <PUBCHEM_CACTVS_ROTATABLE_BOND>
16
> <PUBCHEM_CACTVS_SUBSKEYS>
AAADcfB7uABAAAAAAAAAAAAAAAAAAAAAAAAwYAAAAAAAAAABQAAAHgQQSAAADSjh0AYywYPAAgKIACVSUHDCABAhAgAIiJiIZIgKcCLAkbGUYAhklgDYyAeQQAAAAAQAAAAAAAAACAAAAAAAAAAAAAAAAA==
> <PUBCHEM_IUPAC_OPENEYE_NAME>
N-[(5S)-5-[(4-aminophenyl)sulfonyl-isobutyl-amino]-6-hydroxy-hexyl]-2-(N-isobutylanilino)acetamide
> <PUBCHEM_IUPAC_CAS_NAME>
N-[(5S)-5-[(4-aminophenyl)sulfonyl-(2-methylpropyl)amino]-6-hydroxyhexyl]-2-[N-(2-methylpropyl)anilino]acetamide
> <PUBCHEM_IUPAC_NAME_MARKUP>
<I>N</I>-[(5<I>S</I>)-5-[(4-aminophenyl)sulfonyl-(2-methylpropyl)amino]-6-hydroxyhexyl]-2-[<I>N</I>-(2-methylpropyl)anilino]acetamide
> <PUBCHEM_IUPAC_NAME>
N-[(5S)-5-[(4-aminophenyl)sulfonyl-(2-methylpropyl)amino]-6-hydroxyhexyl]-2-[N-(2-methylpropyl)anilino]acetamide
> <PUBCHEM_IUPAC_SYSTEMATIC_NAME>
N-[(5S)-5-[(4-aminophenyl)sulfonyl-(2-methylpropyl)amino]-6-oxidanyl-hexyl]-2-[2-methylpropyl(phenyl)amino]ethanamide
> <PUBCHEM_IUPAC_TRADITIONAL_NAME>
N-[(5S)-6-hydroxy-5-[isobutyl(sulfanilyl)amino]hexyl]-2-(N-isobutylanilino)acetamide
> <PUBCHEM_IUPAC_INCHI>
InChI=1S/C28H44N4O4S/c1-22(2)18-31(25-10-6-5-7-11-25)20-28(34)30-17-9-8-12-26(21-33)32(19-23(3)4)37(35,36)27-15-13-24(29)14-16-27/h5-7,10-11,13-16,22-23,26,33H,8-9,12,17-21,29H2,1-4H3,(H,30,34)/t26-/m0/s1
> <PUBCHEM_IUPAC_INCHIKEY>
GXVQHBOKOIDNLU-SANMLTNESA-N
> <PUBCHEM_XLOGP3_AA>
4.7
> <PUBCHEM_EXACT_MASS>
532.30832707
> <PUBCHEM_MOLECULAR_FORMULA>
C28H44N4O4S
> <PUBCHEM_MOLECULAR_WEIGHT>
532.7
> <PUBCHEM_OPENEYE_CAN_SMILES>
CC(C)CN(CC(=O)NCCCCC(CO)N(CC(C)C)S(=O)(=O)C1=CC=C(C=C1)N)C2=CC=CC=C2
> <PUBCHEM_OPENEYE_ISO_SMILES>
CC(C)CN(CC(=O)NCCCC[C@@H](CO)N(CC(C)C)S(=O)(=O)C1=CC=C(C=C1)N)C2=CC=CC=C2
> <PUBCHEM_CACTVS_TPSA>
124
> <PUBCHEM_MONOISOTOPIC_WEIGHT>
532.30832707
> <PUBCHEM_TOTAL_CHARGE>
0
> <PUBCHEM_HEAVY_ATOM_COUNT>
37
> <PUBCHEM_ATOM_DEF_STEREO_COUNT>
1
> <PUBCHEM_ATOM_UDEF_STEREO_COUNT>
0
> <PUBCHEM_BOND_DEF_STEREO_COUNT>
0
> <PUBCHEM_BOND_UDEF_STEREO_COUNT>
0
> <PUBCHEM_ISOTOPIC_ATOM_COUNT>
0
> <PUBCHEM_COMPONENT_COUNT>
1
> <PUBCHEM_CACTVS_TAUTO_COUNT>
-1
> <PUBCHEM_COORDINATE_TYPE>
1
5
255
> <PUBCHEM_BONDANNOTATIONS>
17  21  8
17  22  8
21  27  8
22  28  8
27  29  8
28  29  8
30  33  8
30  34  8
33  35  8
34  36  8
35  37  8
36  37  8
10  6  5
$$$$
