508701
  -OEChem-10302200282D
 91 94  0     1  0  0  0  0  0999 V2000
    9.3928   -4.2114    0.0000 S   0  0  0  0  0  0  0  0  0  0  0  0
    5.6499    3.8502    0.0000 S   0  0  0  0  0  0  0  0  0  0  0  0
   10.6820   -3.0547    0.0000 O   0  0  0  0  0  0  0  0  0  0  0  0
    8.6485   -4.8793    0.0000 O   0  0  0  0  0  0  0  0  0  0  0  0
   10.1371   -3.5436    0.0000 O   0  0  0  0  0  0  0  0  0  0  0  0
    6.3642    0.4606    0.0000 O   0  0  0  0  0  0  0  0  0  0  0  0
    6.3942    4.5181    0.0000 O   0  0  0  0  0  0  0  0  0  0  0  0
    4.9056    3.1824    0.0000 O   0  0  0  0  0  0  0  0  0  0  0  0
    3.2892    7.7780    0.0000 O   0  5  0  0  0  0  0  0  0  0  0  0
    2.0000    6.6212    0.0000 O   0  0  0  0  0  0  0  0  0  0  0  0
    8.7250   -3.4671    0.0000 N   0  0  3  0  0  0  0  0  0  0  0  0
    7.6534    1.6173    0.0000 N   0  0  0  0  0  0  0  0  0  0  0  0
    6.3177    3.1059    0.0000 N   0  0  0  0  0  0  0  0  0  0  0  0
    4.7179   -0.6108    0.0000 N   0  0  0  0  0  0  0  0  0  0  0  0
   12.0642   -7.1886    0.0000 N   0  0  0  0  0  0  0  0  0  0  0  0
    2.9785    6.8274    0.0000 N   0  3  0  0  0  0  0  0  0  0  0  0
    9.0356   -2.5166    0.0000 C   0  0  1  0  0  0  0  0  0  0  0  0
    8.3678   -1.7723    0.0000 C   0  0  0  0  0  0  0  0  0  0  0  0
    7.7464   -3.6734    0.0000 C   0  0  0  0  0  0  0  0  0  0  0  0
    8.6784   -0.8218    0.0000 C   0  0  0  0  0  0  0  0  0  0  0  0
    7.0786   -2.9290    0.0000 C   0  0  0  0  0  0  0  0  0  0  0  0
   10.0141   -2.3104    0.0000 C   0  0  0  0  0  0  0  0  0  0  0  0
    8.0106   -0.0775    0.0000 C   0  0  0  0  0  0  0  0  0  0  0  0
    8.3212    0.8730    0.0000 C   0  0  0  0  0  0  0  0  0  0  0  0
   10.0606   -4.9557    0.0000 C   0  0  0  0  0  0  0  0  0  0  0  0
    6.1001   -3.1353    0.0000 C   0  0  0  0  0  0  0  0  0  0  0  0
    7.3893   -1.9785    0.0000 C   0  0  0  0  0  0  0  0  0  0  0  0
    6.0071    2.1554    0.0000 C   0  0  1  0  0  0  0  0  0  0  0  0
    5.0286    1.9492    0.0000 C   0  0  0  0  0  0  0  0  0  0  0  0
    6.6749    1.4111    0.0000 C   0  0  0  0  0  0  0  0  0  0  0  0
    9.7500   -5.9063    0.0000 C   0  0  0  0  0  0  0  0  0  0  0  0
   11.0391   -4.7495    0.0000 C   0  0  0  0  0  0  0  0  0  0  0  0
    4.7179    0.9987    0.0000 C   0  0  0  0  0  0  0  0  0  0  0  0
    3.7717    0.6939    0.0000 C   0  0  0  0  0  0  0  0  0  0  0  0
   10.4178   -6.6506    0.0000 C   0  0  0  0  0  0  0  0  0  0  0  0
   11.7070   -5.4938    0.0000 C   0  0  0  0  0  0  0  0  0  0  0  0
    5.3015    0.1939    0.0000 C   0  0  0  0  0  0  0  0  0  0  0  0
    3.7717   -0.3061    0.0000 C   0  0  0  0  0  0  0  0  0  0  0  0
   11.3963   -6.4443    0.0000 C   0  0  0  0  0  0  0  0  0  0  0  0
    2.9056    1.1939    0.0000 C   0  0  0  0  0  0  0  0  0  0  0  0
    4.9820    4.5945    0.0000 C   0  0  0  0  0  0  0  0  0  0  0  0
    2.9056   -0.8061    0.0000 C   0  0  0  0  0  0  0  0  0  0  0  0
    2.0396    0.6939    0.0000 C   0  0  0  0  0  0  0  0  0  0  0  0
    2.0396   -0.3061    0.0000 C   0  0  0  0  0  0  0  0  0  0  0  0
    4.0035    4.3883    0.0000 C   0  0  0  0  0  0  0  0  0  0  0  0
    5.2927    5.5451    0.0000 C   0  0  0  0  0  0  0  0  0  0  0  0
    3.3357    5.1326    0.0000 C   0  0  0  0  0  0  0  0  0  0  0  0
    4.6249    6.2894    0.0000 C   0  0  0  0  0  0  0  0  0  0  0  0
    3.6464    6.0831    0.0000 C   0  0  0  0  0  0  0  0  0  0  0  0
    9.4497   -2.9781    0.0000 H   0  0  0  0  0  0  0  0  0  0  0  0
    7.8208   -1.4803    0.0000 H   0  0  0  0  0  0  0  0  0  0  0  0
    7.9852   -2.2602    0.0000 H   0  0  0  0  0  0  0  0  0  0  0  0
    7.2201   -4.0010    0.0000 H   0  0  0  0  0  0  0  0  0  0  0  0
    7.9777   -4.2486    0.0000 H   0  0  0  0  0  0  0  0  0  0  0  0
    9.2254   -1.1138    0.0000 H   0  0  0  0  0  0  0  0  0  0  0  0
    9.0610   -0.3339    0.0000 H   0  0  0  0  0  0  0  0  0  0  0  0
    7.6853   -2.8012    0.0000 H   0  0  0  0  0  0  0  0  0  0  0  0
   10.5405   -1.9828    0.0000 H   0  0  0  0  0  0  0  0  0  0  0  0
    9.7829   -1.7351    0.0000 H   0  0  0  0  0  0  0  0  0  0  0  0
    7.4637    0.2145    0.0000 H   0  0  0  0  0  0  0  0  0  0  0  0
    7.6280   -0.5654    0.0000 H   0  0  0  0  0  0  0  0  0  0  0  0
    8.8682    0.5810    0.0000 H   0  0  0  0  0  0  0  0  0  0  0  0
    8.7038    1.3609    0.0000 H   0  0  0  0  0  0  0  0  0  0  0  0
    5.9722   -2.5286    0.0000 H   0  0  0  0  0  0  0  0  0  0  0  0
    5.4934   -3.2631    0.0000 H   0  0  0  0  0  0  0  0  0  0  0  0
    6.2280   -3.7419    0.0000 H   0  0  0  0  0  0  0  0  0  0  0  0
    7.9786   -2.1711    0.0000 H   0  0  0  0  0  0  0  0  0  0  0  0
    7.5819   -1.3892    0.0000 H   0  0  0  0  0  0  0  0  0  0  0  0
    6.8000   -1.7859    0.0000 H   0  0  0  0  0  0  0  0  0  0  0  0
    6.6137    2.2833    0.0000 H   0  0  0  0  0  0  0  0  0  0  0  0
    7.8460    2.2067    0.0000 H   0  0  0  0  0  0  0  0  0  0  0  0
    5.0080    2.5689    0.0000 H   0  0  0  0  0  0  0  0  0  0  0  0
    4.4147    2.0366    0.0000 H   0  0  0  0  0  0  0  0  0  0  0  0
   11.2886   -2.9268    0.0000 H   0  0  0  0  0  0  0  0  0  0  0  0
    9.1433   -6.0341    0.0000 H   0  0  0  0  0  0  0  0  0  0  0  0
   11.2318   -4.1602    0.0000 H   0  0  0  0  0  0  0  0  0  0  0  0
    6.9244    3.2338    0.0000 H   0  0  0  0  0  0  0  0  0  0  0  0
   10.2252   -7.2399    0.0000 H   0  0  0  0  0  0  0  0  0  0  0  0
   12.3137   -5.3660    0.0000 H   0  0  0  0  0  0  0  0  0  0  0  0
    5.9215    0.1939    0.0000 H   0  0  0  0  0  0  0  0  0  0  0  0
    4.9105   -1.2001    0.0000 H   0  0  0  0  0  0  0  0  0  0  0  0
    2.9056    1.8139    0.0000 H   0  0  0  0  0  0  0  0  0  0  0  0
    2.9056   -1.4261    0.0000 H   0  0  0  0  0  0  0  0  0  0  0  0
    1.5027    1.0039    0.0000 H   0  0  0  0  0  0  0  0  0  0  0  0
    1.5027   -0.6161    0.0000 H   0  0  0  0  0  0  0  0  0  0  0  0
   11.8716   -7.7780    0.0000 H   0  0  0  0  0  0  0  0  0  0  0  0
   12.6708   -7.0608    0.0000 H   0  0  0  0  0  0  0  0  0  0  0  0
    3.8109    3.7990    0.0000 H   0  0  0  0  0  0  0  0  0  0  0  0
    5.8994    5.6729    0.0000 H   0  0  0  0  0  0  0  0  0  0  0  0
    2.7290    5.0048    0.0000 H   0  0  0  0  0  0  0  0  0  0  0  0
    4.8175    6.8787    0.0000 H   0  0  0  0  0  0  0  0  0  0  0  0
  1  4  2  0  0  0  0
  1  5  2  0  0  0  0
  1 11  1  0  0  0  0
  1 25  1  0  0  0  0
  2  7  2  0  0  0  0
  2  8  2  0  0  0  0
  2 13  1  0  0  0  0
  2 41  1  0  0  0  0
  3 22  1  0  0  0  0
  3 74  1  0  0  0  0
  6 30  2  0  0  0  0
  9 16  1  0  0  0  0
 10 16  2  0  0  0  0
 17 11  1  1  0  0  0
 11 19  1  0  0  0  0
 12 24  1  0  0  0  0
 12 30  1  0  0  0  0
 12 71  1  0  0  0  0
 28 13  1  6  0  0  0
 13 77  1  0  0  0  0
 14 37  1  0  0  0  0
 14 38  1  0  0  0  0
 14 81  1  0  0  0  0
 15 39  1  0  0  0  0
 15 86  1  0  0  0  0
 15 87  1  0  0  0  0
 16 49  1  0  0  0  0
 17 18  1  0  0  0  0
 17 22  1  0  0  0  0
 17 50  1  0  0  0  0
 18 20  1  0  0  0  0
 18 51  1  0  0  0  0
 18 52  1  0  0  0  0
 19 21  1  0  0  0  0
 19 53  1  0  0  0  0
 19 54  1  0  0  0  0
 20 23  1  0  0  0  0
 20 55  1  0  0  0  0
 20 56  1  0  0  0  0
 21 26  1  0  0  0  0
 21 27  1  0  0  0  0
 21 57  1  0  0  0  0
 22 58  1  0  0  0  0
 22 59  1  0  0  0  0
 23 24  1  0  0  0  0
 23 60  1  0  0  0  0
 23 61  1  0  0  0  0
 24 62  1  0  0  0  0
 24 63  1  0  0  0  0
 25 31  2  0  0  0  0
 25 32  1  0  0  0  0
 26 64  1  0  0  0  0
 26 65  1  0  0  0  0
 26 66  1  0  0  0  0
 27 67  1  0  0  0  0
 27 68  1  0  0  0  0
 27 69  1  0  0  0  0
 28 29  1  0  0  0  0
 28 30  1  0  0  0  0
 28 70  1  0  0  0  0
 29 33  1  0  0  0  0
 29 72  1  0  0  0  0
 29 73  1  0  0  0  0
 31 35  1  0  0  0  0
 31 75  1  0  0  0  0
 32 36  2  0  0  0  0
 32 76  1  0  0  0  0
 33 34  1  0  0  0  0
 33 37  2  0  0  0  0
 34 38  1  0  0  0  0
 34 40  2  0  0  0  0
 35 39  2  0  0  0  0
 35 78  1  0  0  0  0
 36 39  1  0  0  0  0
 36 79  1  0  0  0  0
 37 80  1  0  0  0  0
 38 42  2  0  0  0  0
 40 43  1  0  0  0  0
 40 82  1  0  0  0  0
 41 45  2  0  0  0  0
 41 46  1  0  0  0  0
 42 44  1  0  0  0  0
 42 83  1  0  0  0  0
 43 44  2  0  0  0  0
 43 84  1  0  0  0  0
 44 85  1  0  0  0  0
 45 47  1  0  0  0  0
 45 88  1  0  0  0  0
 46 48  2  0  0  0  0
 46 89  1  0  0  0  0
 47 49  2  0  0  0  0
 47 90  1  0  0  0  0
 48 49  1  0  0  0  0
 48 91  1  0  0  0  0
M  CHG  2   9  -1  16   1
M  END
> <PUBCHEM_COMPOUND_CID>
508701
> <PUBCHEM_COMPOUND_CANONICALIZED>
1
> <PUBCHEM_CACTVS_COMPLEXITY>
1270
> <PUBCHEM_CACTVS_HBOND_ACCEPTOR>
11
> <PUBCHEM_CACTVS_HBOND_DONOR>
5
> <PUBCHEM_CACTVS_ROTATABLE_BOND>
17
> <PUBCHEM_CACTVS_SUBSKEYS>
AAADcfB/vABgAAAAAAAAAAAAAAAAAWAAAAAwYMAAAAAAAFgB9AAAHgQUSAAADSjh3gY+wfLZ0gKpAzV3V3DCgDAxAiAo2bm4ZJoKcPLAkZGUYAhklgDYyAeYycCOgAQAAAACAAAACAAAAAQAAAAAAAAAAA==
> <PUBCHEM_IUPAC_OPENEYE_NAME>
(2S)-N-[(5S)-5-[(4-aminophenyl)sulfonyl-isobutyl-amino]-6-hydroxy-hexyl]-3-(1H-indol-3-yl)-2-[(4-nitrophenyl)sulfonylamino]propanamide
> <PUBCHEM_IUPAC_CAS_NAME>
(2S)-N-[(5S)-5-[(4-aminophenyl)sulfonyl-(2-methylpropyl)amino]-6-hydroxyhexyl]-3-(1H-indol-3-yl)-2-[(4-nitrophenyl)sulfonylamino]propanamide
> <PUBCHEM_IUPAC_NAME_MARKUP>
(2<I>S</I>)-<I>N</I>-[(5<I>S</I>)-5-[(4-aminophenyl)sulfonyl-(2-methylpropyl)amino]-6-hydroxyhexyl]-3-(1<I>H</I>-indol-3-yl)-2-[(4-nitrophenyl)sulfonylamino]propanamide
> <PUBCHEM_IUPAC_NAME>
(2S)-N-[(5S)-5-[(4-aminophenyl)sulfonyl-(2-methylpropyl)amino]-6-hydroxyhexyl]-3-(1H-indol-3-yl)-2-[(4-nitrophenyl)sulfonylamino]propanamide
> <PUBCHEM_IUPAC_SYSTEMATIC_NAME>
(2S)-N-[(5S)-5-[(4-aminophenyl)sulfonyl-(2-methylpropyl)amino]-6-oxidanyl-hexyl]-3-(1H-indol-3-yl)-2-[(4-nitrophenyl)sulfonylamino]propanamide
> <PUBCHEM_IUPAC_TRADITIONAL_NAME>
(2S)-N-[(5S)-6-hydroxy-5-[isobutyl(sulfanilyl)amino]hexyl]-3-(1H-indol-3-yl)-2-(nosylamino)propionamide
> <PUBCHEM_IUPAC_INCHI>
InChI=1S/C33H42N6O8S2/c1-23(2)21-38(49(46,47)29-14-10-25(34)11-15-29)27(22-40)7-5-6-18-35-33(41)32(19-24-20-36-31-9-4-3-8-30(24)31)37-48(44,45)28-16-12-26(13-17-28)39(42)43/h3-4,8-17,20,23,27,32,36-37,40H,5-7,18-19,21-22,34H2,1-2H3,(H,35,41)/t27-,32-/m0/s1
> <PUBCHEM_IUPAC_INCHIKEY>
JYTPYPNMKALVBB-UCGGBYDDSA-N
> <PUBCHEM_XLOGP3_AA>
4.1
> <PUBCHEM_EXACT_MASS>
714.25055467
> <PUBCHEM_MOLECULAR_FORMULA>
C33H42N6O8S2
> <PUBCHEM_MOLECULAR_WEIGHT>
714.9
> <PUBCHEM_OPENEYE_CAN_SMILES>
CC(C)CN(C(CCCCNC(=O)C(CC1=CNC2=CC=CC=C21)NS(=O)(=O)C3=CC=C(C=C3)[N+](=O)[O-])CO)S(=O)(=O)C4=CC=C(C=C4)N
> <PUBCHEM_OPENEYE_ISO_SMILES>
CC(C)CN([C@@H](CCCCNC(=O)[C@H](CC1=CNC2=CC=CC=C21)NS(=O)(=O)C3=CC=C(C=C3)[N+](=O)[O-])CO)S(=O)(=O)C4=CC=C(C=C4)N
> <PUBCHEM_CACTVS_TPSA>
237
> <PUBCHEM_MONOISOTOPIC_WEIGHT>
714.25055467
> <PUBCHEM_TOTAL_CHARGE>
0
> <PUBCHEM_HEAVY_ATOM_COUNT>
49
> <PUBCHEM_ATOM_DEF_STEREO_COUNT>
2
> <PUBCHEM_ATOM_UDEF_STEREO_COUNT>
0
> <PUBCHEM_BOND_DEF_STEREO_COUNT>
0
> <PUBCHEM_BOND_UDEF_STEREO_COUNT>
0
> <PUBCHEM_ISOTOPIC_ATOM_COUNT>
0
> <PUBCHEM_COMPONENT_COUNT>
1
> <PUBCHEM_CACTVS_TAUTO_COUNT>
-1
> <PUBCHEM_COORDINATE_TYPE>
1
5
255
> <PUBCHEM_BONDANNOTATIONS>
17  11  5
28  13  6
14  37  8
14  38  8
25  31  8
25  32  8
31  35  8
32  36  8
33  34  8
33  37  8
34  38  8
34  40  8
35  39  8
36  39  8
38  42  8
40  43  8
41  45  8
41  46  8
42  44  8
43  44  8
45  47  8
46  48  8
47  49  8
48  49  8
$$$$
