508717
  -OEChem-10302200282D
 87 89  0     1  0  0  0  0  0999 V2000
    3.7320   -3.0950    0.0000 S   0  0  0  0  0  0  0  0  0  0  0  0
    8.9282    3.9050    0.0000 S   0  0  0  0  0  0  0  0  0  0  0  0
    6.3301   -1.5950    0.0000 O   0  0  0  0  0  0  0  0  0  0  0  0
    4.7320   -3.0950    0.0000 O   0  0  0  0  0  0  0  0  0  0  0  0
    2.7320   -3.0950    0.0000 O   0  0  0  0  0  0  0  0  0  0  0  0
    8.0622    2.4050    0.0000 O   0  0  0  0  0  0  0  0  0  0  0  0
    9.4282    4.7710    0.0000 O   0  0  0  0  0  0  0  0  0  0  0  0
    8.4282    3.0390    0.0000 O   0  0  0  0  0  0  0  0  0  0  0  0
   13.2583    2.4050    0.0000 O   0  5  0  0  0  0  0  0  0  0  0  0
   12.3923    0.9050    0.0000 O   0  0  0  0  0  0  0  0  0  0  0  0
    3.7320   -2.0950    0.0000 N   0  0  3  0  0  0  0  0  0  0  0  0
    6.3301    2.4050    0.0000 N   0  0  0  0  0  0  0  0  0  0  0  0
    8.0622    4.4050    0.0000 N   0  0  0  0  0  0  0  0  0  0  0  0
    3.7320   -7.0950    0.0000 N   0  0  0  0  0  0  0  0  0  0  0  0
   12.3923    1.9050    0.0000 N   0  3  0  0  0  0  0  0  0  0  0  0
    4.5981   -1.5950    0.0000 C   0  0  1  0  0  0  0  0  0  0  0  0
    4.5981   -0.5950    0.0000 C   0  0  0  0  0  0  0  0  0  0  0  0
    2.8660   -1.5950    0.0000 C   0  0  0  0  0  0  0  0  0  0  0  0
    5.4641   -0.0950    0.0000 C   0  0  0  0  0  0  0  0  0  0  0  0
    2.8660   -0.5950    0.0000 C   0  0  0  0  0  0  0  0  0  0  0  0
    5.4641   -2.0950    0.0000 C   0  0  0  0  0  0  0  0  0  0  0  0
    5.4641    0.9050    0.0000 C   0  0  0  0  0  0  0  0  0  0  0  0
    3.7320   -4.0950    0.0000 C   0  0  0  0  0  0  0  0  0  0  0  0
    6.3301    1.4050    0.0000 C   0  0  0  0  0  0  0  0  0  0  0  0
    2.0000   -0.0950    0.0000 C   0  0  0  0  0  0  0  0  0  0  0  0
    3.7320   -0.0950    0.0000 C   0  0  0  0  0  0  0  0  0  0  0  0
    2.8660   -4.5950    0.0000 C   0  0  0  0  0  0  0  0  0  0  0  0
    4.5981   -4.5950    0.0000 C   0  0  0  0  0  0  0  0  0  0  0  0
    7.1962    3.9050    0.0000 C   0  0  2  0  0  0  0  0  0  0  0  0
    7.1962    2.9050    0.0000 C   0  0  0  0  0  0  0  0  0  0  0  0
    6.3301    4.4050    0.0000 C   0  0  0  0  0  0  0  0  0  0  0  0
    2.8660   -5.5950    0.0000 C   0  0  0  0  0  0  0  0  0  0  0  0
    4.5981   -5.5950    0.0000 C   0  0  0  0  0  0  0  0  0  0  0  0
    3.7320   -6.0950    0.0000 C   0  0  0  0  0  0  0  0  0  0  0  0
    6.3301    5.4050    0.0000 C   0  0  0  0  0  0  0  0  0  0  0  0
    9.7942    3.4050    0.0000 C   0  0  0  0  0  0  0  0  0  0  0  0
    5.4641    5.9050    0.0000 C   0  0  0  0  0  0  0  0  0  0  0  0
    7.1962    5.9050    0.0000 C   0  0  0  0  0  0  0  0  0  0  0  0
    9.7942    2.4050    0.0000 C   0  0  0  0  0  0  0  0  0  0  0  0
   10.6603    3.9050    0.0000 C   0  0  0  0  0  0  0  0  0  0  0  0
    5.4641    6.9050    0.0000 C   0  0  0  0  0  0  0  0  0  0  0  0
    7.1962    6.9050    0.0000 C   0  0  0  0  0  0  0  0  0  0  0  0
    6.3301    7.4050    0.0000 C   0  0  0  0  0  0  0  0  0  0  0  0
   10.6603    1.9050    0.0000 C   0  0  0  0  0  0  0  0  0  0  0  0
   11.5263    3.4050    0.0000 C   0  0  0  0  0  0  0  0  0  0  0  0
   11.5263    2.4050    0.0000 C   0  0  0  0  0  0  0  0  0  0  0  0
    4.5981   -2.2150    0.0000 H   0  0  0  0  0  0  0  0  0  0  0  0
    4.3860   -0.0124    0.0000 H   0  0  0  0  0  0  0  0  0  0  0  0
    3.9875   -0.7027    0.0000 H   0  0  0  0  0  0  0  0  0  0  0  0
    2.2554   -1.4873    0.0000 H   0  0  0  0  0  0  0  0  0  0  0  0
    2.6540   -2.1776    0.0000 H   0  0  0  0  0  0  0  0  0  0  0  0
    5.6762   -0.6776    0.0000 H   0  0  0  0  0  0  0  0  0  0  0  0
    6.0747    0.0127    0.0000 H   0  0  0  0  0  0  0  0  0  0  0  0
    2.8660    0.0250    0.0000 H   0  0  0  0  0  0  0  0  0  0  0  0
    5.0656   -2.5700    0.0000 H   0  0  0  0  0  0  0  0  0  0  0  0
    5.8626   -2.5700    0.0000 H   0  0  0  0  0  0  0  0  0  0  0  0
    5.2520    1.4876    0.0000 H   0  0  0  0  0  0  0  0  0  0  0  0
    4.8535    0.7973    0.0000 H   0  0  0  0  0  0  0  0  0  0  0  0
    6.5422    0.8224    0.0000 H   0  0  0  0  0  0  0  0  0  0  0  0
    6.9407    1.5127    0.0000 H   0  0  0  0  0  0  0  0  0  0  0  0
    2.3100    0.4419    0.0000 H   0  0  0  0  0  0  0  0  0  0  0  0
    1.4631    0.2150    0.0000 H   0  0  0  0  0  0  0  0  0  0  0  0
    1.6900   -0.6319    0.0000 H   0  0  0  0  0  0  0  0  0  0  0  0
    4.0420   -0.6319    0.0000 H   0  0  0  0  0  0  0  0  0  0  0  0
    4.2690    0.2150    0.0000 H   0  0  0  0  0  0  0  0  0  0  0  0
    3.4220    0.4419    0.0000 H   0  0  0  0  0  0  0  0  0  0  0  0
    5.7932    2.7150    0.0000 H   0  0  0  0  0  0  0  0  0  0  0  0
    6.8671   -1.9050    0.0000 H   0  0  0  0  0  0  0  0  0  0  0  0
    2.3291   -4.2850    0.0000 H   0  0  0  0  0  0  0  0  0  0  0  0
    5.1350   -4.2850    0.0000 H   0  0  0  0  0  0  0  0  0  0  0  0
    7.7331    3.5950    0.0000 H   0  0  0  0  0  0  0  0  0  0  0  0
    5.7196    4.5127    0.0000 H   0  0  0  0  0  0  0  0  0  0  0  0
    6.1181    3.8224    0.0000 H   0  0  0  0  0  0  0  0  0  0  0  0
    2.3291   -5.9050    0.0000 H   0  0  0  0  0  0  0  0  0  0  0  0
    5.1350   -5.9050    0.0000 H   0  0  0  0  0  0  0  0  0  0  0  0
    8.0622    5.0250    0.0000 H   0  0  0  0  0  0  0  0  0  0  0  0
    4.9272    5.5950    0.0000 H   0  0  0  0  0  0  0  0  0  0  0  0
    7.7331    5.5950    0.0000 H   0  0  0  0  0  0  0  0  0  0  0  0
    3.1951   -7.4050    0.0000 H   0  0  0  0  0  0  0  0  0  0  0  0
    4.2690   -7.4050    0.0000 H   0  0  0  0  0  0  0  0  0  0  0  0
    9.2573    2.0950    0.0000 H   0  0  0  0  0  0  0  0  0  0  0  0
   10.6603    4.5250    0.0000 H   0  0  0  0  0  0  0  0  0  0  0  0
    4.9272    7.2150    0.0000 H   0  0  0  0  0  0  0  0  0  0  0  0
    7.7331    7.2150    0.0000 H   0  0  0  0  0  0  0  0  0  0  0  0
    6.3301    8.0250    0.0000 H   0  0  0  0  0  0  0  0  0  0  0  0
   10.6603    1.2850    0.0000 H   0  0  0  0  0  0  0  0  0  0  0  0
   12.0632    3.7150    0.0000 H   0  0  0  0  0  0  0  0  0  0  0  0
  1  4  2  0  0  0  0
  1  5  2  0  0  0  0
  1 11  1  0  0  0  0
  1 23  1  0  0  0  0
  2  7  2  0  0  0  0
  2  8  2  0  0  0  0
  2 13  1  0  0  0  0
  2 36  1  0  0  0  0
  3 21  1  0  0  0  0
  3 68  1  0  0  0  0
  6 30  2  0  0  0  0
  9 15  1  0  0  0  0
 10 15  2  0  0  0  0
 16 11  1  1  0  0  0
 11 18  1  0  0  0  0
 12 24  1  0  0  0  0
 12 30  1  0  0  0  0
 12 67  1  0  0  0  0
 29 13  1  6  0  0  0
 13 76  1  0  0  0  0
 14 34  1  0  0  0  0
 14 79  1  0  0  0  0
 14 80  1  0  0  0  0
 15 46  1  0  0  0  0
 16 17  1  0  0  0  0
 16 21  1  0  0  0  0
 16 47  1  0  0  0  0
 17 19  1  0  0  0  0
 17 48  1  0  0  0  0
 17 49  1  0  0  0  0
 18 20  1  0  0  0  0
 18 50  1  0  0  0  0
 18 51  1  0  0  0  0
 19 22  1  0  0  0  0
 19 52  1  0  0  0  0
 19 53  1  0  0  0  0
 20 25  1  0  0  0  0
 20 26  1  0  0  0  0
 20 54  1  0  0  0  0
 21 55  1  0  0  0  0
 21 56  1  0  0  0  0
 22 24  1  0  0  0  0
 22 57  1  0  0  0  0
 22 58  1  0  0  0  0
 23 27  2  0  0  0  0
 23 28  1  0  0  0  0
 24 59  1  0  0  0  0
 24 60  1  0  0  0  0
 25 61  1  0  0  0  0
 25 62  1  0  0  0  0
 25 63  1  0  0  0  0
 26 64  1  0  0  0  0
 26 65  1  0  0  0  0
 26 66  1  0  0  0  0
 27 32  1  0  0  0  0
 27 69  1  0  0  0  0
 28 33  2  0  0  0  0
 28 70  1  0  0  0  0
 29 30  1  0  0  0  0
 29 31  1  0  0  0  0
 29 71  1  0  0  0  0
 31 35  1  0  0  0  0
 31 72  1  0  0  0  0
 31 73  1  0  0  0  0
 32 34  2  0  0  0  0
 32 74  1  0  0  0  0
 33 34  1  0  0  0  0
 33 75  1  0  0  0  0
 35 37  2  0  0  0  0
 35 38  1  0  0  0  0
 36 39  2  0  0  0  0
 36 40  1  0  0  0  0
 37 41  1  0  0  0  0
 37 77  1  0  0  0  0
 38 42  2  0  0  0  0
 38 78  1  0  0  0  0
 39 44  1  0  0  0  0
 39 81  1  0  0  0  0
 40 45  2  0  0  0  0
 40 82  1  0  0  0  0
 41 43  2  0  0  0  0
 41 83  1  0  0  0  0
 42 43  1  0  0  0  0
 42 84  1  0  0  0  0
 43 85  1  0  0  0  0
 44 46  2  0  0  0  0
 44 86  1  0  0  0  0
 45 46  1  0  0  0  0
 45 87  1  0  0  0  0
M  CHG  2   9  -1  15   1
M  END
> <PUBCHEM_COMPOUND_CID>
508717
> <PUBCHEM_COMPOUND_CANONICALIZED>
1
> <PUBCHEM_CACTVS_COMPLEXITY>
1150
> <PUBCHEM_CACTVS_HBOND_ACCEPTOR>
11
> <PUBCHEM_CACTVS_HBOND_DONOR>
4
> <PUBCHEM_CACTVS_ROTATABLE_BOND>
17
> <PUBCHEM_CACTVS_SUBSKEYS>
AAADcfB7vABgAAAAAAAAAAAAAAAAAAAAAAAwYMAAAAAAAAABUAAAHgQUSAAADSjh2AYywYLQQgKJAiVSU3DCABAgAgAoiJmIZIoKcDKAkZGUYABklgCYyAeYyICOAAQAAAAAAAAACAAAAAAAAAAAAAAAAA==
> <PUBCHEM_IUPAC_OPENEYE_NAME>
(2S)-N-[(5S)-5-[(4-aminophenyl)sulfonyl-isobutyl-amino]-6-hydroxy-hexyl]-2-[(4-nitrophenyl)sulfonylamino]-3-phenyl-propanamide
> <PUBCHEM_IUPAC_CAS_NAME>
(2S)-N-[(5S)-5-[(4-aminophenyl)sulfonyl-(2-methylpropyl)amino]-6-hydroxyhexyl]-2-[(4-nitrophenyl)sulfonylamino]-3-phenylpropanamide
> <PUBCHEM_IUPAC_NAME_MARKUP>
(2<I>S</I>)-<I>N</I>-[(5<I>S</I>)-5-[(4-aminophenyl)sulfonyl-(2-methylpropyl)amino]-6-hydroxyhexyl]-2-[(4-nitrophenyl)sulfonylamino]-3-phenylpropanamide
> <PUBCHEM_IUPAC_NAME>
(2S)-N-[(5S)-5-[(4-aminophenyl)sulfonyl-(2-methylpropyl)amino]-6-hydroxyhexyl]-2-[(4-nitrophenyl)sulfonylamino]-3-phenylpropanamide
> <PUBCHEM_IUPAC_SYSTEMATIC_NAME>
(2S)-N-[(5S)-5-[(4-aminophenyl)sulfonyl-(2-methylpropyl)amino]-6-oxidanyl-hexyl]-2-[(4-nitrophenyl)sulfonylamino]-3-phenyl-propanamide
> <PUBCHEM_IUPAC_TRADITIONAL_NAME>
(2S)-N-[(5S)-6-hydroxy-5-[isobutyl(sulfanilyl)amino]hexyl]-2-(nosylamino)-3-phenyl-propionamide
> <PUBCHEM_IUPAC_INCHI>
InChI=1S/C31H41N5O8S2/c1-23(2)21-35(46(43,44)29-15-11-25(32)12-16-29)27(22-37)10-6-7-19-33-31(38)30(20-24-8-4-3-5-9-24)34-45(41,42)28-17-13-26(14-18-28)36(39)40/h3-5,8-9,11-18,23,27,30,34,37H,6-7,10,19-22,32H2,1-2H3,(H,33,38)/t27-,30-/m0/s1
> <PUBCHEM_IUPAC_INCHIKEY>
CGUDGSGBCWASOZ-FIBWVYCGSA-N
> <PUBCHEM_XLOGP3_AA>
4
> <PUBCHEM_EXACT_MASS>
675.23965563
> <PUBCHEM_MOLECULAR_FORMULA>
C31H41N5O8S2
> <PUBCHEM_MOLECULAR_WEIGHT>
675.8
> <PUBCHEM_OPENEYE_CAN_SMILES>
CC(C)CN(C(CCCCNC(=O)C(CC1=CC=CC=C1)NS(=O)(=O)C2=CC=C(C=C2)[N+](=O)[O-])CO)S(=O)(=O)C3=CC=C(C=C3)N
> <PUBCHEM_OPENEYE_ISO_SMILES>
CC(C)CN([C@@H](CCCCNC(=O)[C@H](CC1=CC=CC=C1)NS(=O)(=O)C2=CC=C(C=C2)[N+](=O)[O-])CO)S(=O)(=O)C3=CC=C(C=C3)N
> <PUBCHEM_CACTVS_TPSA>
222
> <PUBCHEM_MONOISOTOPIC_WEIGHT>
675.23965563
> <PUBCHEM_TOTAL_CHARGE>
0
> <PUBCHEM_HEAVY_ATOM_COUNT>
46
> <PUBCHEM_ATOM_DEF_STEREO_COUNT>
2
> <PUBCHEM_ATOM_UDEF_STEREO_COUNT>
0
> <PUBCHEM_BOND_DEF_STEREO_COUNT>
0
> <PUBCHEM_BOND_UDEF_STEREO_COUNT>
0
> <PUBCHEM_ISOTOPIC_ATOM_COUNT>
0
> <PUBCHEM_COMPONENT_COUNT>
1
> <PUBCHEM_CACTVS_TAUTO_COUNT>
-1
> <PUBCHEM_COORDINATE_TYPE>
1
5
255
> <PUBCHEM_BONDANNOTATIONS>
16  11  5
29  13  6
23  27  8
23  28  8
27  32  8
28  33  8
32  34  8
33  34  8
35  37  8
35  38  8
36  39  8
36  40  8
37  41  8
38  42  8
39  44  8
40  45  8
41  43  8
42  43  8
44  46  8
45  46  8
$$$$
