508741
  -OEChem-10302200282D
 55 57  0     1  0  0  0  0  0999 V2000
    5.2731    6.3533    0.0000 F   0  0  0  0  0  0  0  0  0  0  0  0
    6.2731    7.3533    0.0000 F   0  0  0  0  0  0  0  0  0  0  0  0
    7.2731    6.3533    0.0000 F   0  0  0  0  0  0  0  0  0  0  0  0
    4.5411    0.3533    0.0000 O   0  0  0  0  0  0  0  0  0  0  0  0
    4.2589   -6.4397    0.0000 O   0  0  0  0  0  0  0  0  0  0  0  0
    3.6750    3.8533    0.0000 O   0  0  0  0  0  0  0  0  0  0  0  0
    3.3090   -2.1856    0.0000 N   0  0  3  0  0  0  0  0  0  0  0  0
    2.8090    0.3533    0.0000 N   0  0  0  0  0  0  0  0  0  0  0  0
    4.5411    2.3533    0.0000 N   0  0  0  0  0  0  0  0  0  0  0  0
    2.8090   -0.6467    0.0000 C   0  0  2  0  0  0  0  0  0  0  0  0
    2.0000   -1.2345    0.0000 C   0  0  0  0  0  0  0  0  0  0  0  0
    3.6180   -1.2345    0.0000 C   0  0  0  0  0  0  0  0  0  0  0  0
    2.3090   -2.1856    0.0000 C   0  0  0  0  0  0  0  0  0  0  0  0
    3.8968   -2.9946    0.0000 C   0  0  0  0  0  0  0  0  0  0  0  0
    3.4901   -3.9081    0.0000 C   0  0  0  0  0  0  0  0  0  0  0  0
    3.6750    0.8533    0.0000 C   0  0  0  0  0  0  0  0  0  0  0  0
    4.0778   -4.7172    0.0000 C   0  0  0  0  0  0  0  0  0  0  0  0
    2.4955   -4.0127    0.0000 C   0  0  0  0  0  0  0  0  0  0  0  0
    3.6750    1.8533    0.0000 C   0  0  0  0  0  0  0  0  0  0  0  0
    3.6711   -5.6307    0.0000 C   0  0  0  0  0  0  0  0  0  0  0  0
    2.0888   -4.9262    0.0000 C   0  0  0  0  0  0  0  0  0  0  0  0
    2.6766   -5.7352    0.0000 C   0  0  0  0  0  0  0  0  0  0  0  0
    4.5411    3.3533    0.0000 C   0  0  0  0  0  0  0  0  0  0  0  0
    5.4071    3.8533    0.0000 C   0  0  0  0  0  0  0  0  0  0  0  0
    5.4071    4.8533    0.0000 C   0  0  0  0  0  0  0  0  0  0  0  0
    3.8522   -7.3533    0.0000 C   0  0  0  0  0  0  0  0  0  0  0  0
    6.2731    3.3533    0.0000 C   0  0  0  0  0  0  0  0  0  0  0  0
    6.2731    5.3533    0.0000 C   0  0  0  0  0  0  0  0  0  0  0  0
    7.1391    3.8533    0.0000 C   0  0  0  0  0  0  0  0  0  0  0  0
    7.1391    4.8533    0.0000 C   0  0  0  0  0  0  0  0  0  0  0  0
    6.2731    6.3533    0.0000 C   0  0  0  0  0  0  0  0  0  0  0  0
    3.3614   -0.3653    0.0000 H   0  0  0  0  0  0  0  0  0  0  0  0
    1.6900   -0.6976    0.0000 H   0  0  0  0  0  0  0  0  0  0  0  0
    1.4336   -1.4867    0.0000 H   0  0  0  0  0  0  0  0  0  0  0  0
    4.1844   -1.4867    0.0000 H   0  0  0  0  0  0  0  0  0  0  0  0
    3.9280   -0.6976    0.0000 H   0  0  0  0  0  0  0  0  0  0  0  0
    1.7026   -2.3145    0.0000 H   0  0  0  0  0  0  0  0  0  0  0  0
    2.3738   -2.8022    0.0000 H   0  0  0  0  0  0  0  0  0  0  0  0
    4.4108   -3.3413    0.0000 H   0  0  0  0  0  0  0  0  0  0  0  0
    4.3275   -2.5486    0.0000 H   0  0  0  0  0  0  0  0  0  0  0  0
    2.2721    0.6633    0.0000 H   0  0  0  0  0  0  0  0  0  0  0  0
    4.6944   -4.6524    0.0000 H   0  0  0  0  0  0  0  0  0  0  0  0
    3.4630    2.4359    0.0000 H   0  0  0  0  0  0  0  0  0  0  0  0
    3.0645    1.7456    0.0000 H   0  0  0  0  0  0  0  0  0  0  0  0
    2.1311   -3.5111    0.0000 H   0  0  0  0  0  0  0  0  0  0  0  0
    1.4722   -4.9910    0.0000 H   0  0  0  0  0  0  0  0  0  0  0  0
    5.0780    2.0433    0.0000 H   0  0  0  0  0  0  0  0  0  0  0  0
    2.4244   -6.3016    0.0000 H   0  0  0  0  0  0  0  0  0  0  0  0
    4.8702    5.1633    0.0000 H   0  0  0  0  0  0  0  0  0  0  0  0
    6.2731    2.7333    0.0000 H   0  0  0  0  0  0  0  0  0  0  0  0
    3.2858   -7.1011    0.0000 H   0  0  0  0  0  0  0  0  0  0  0  0
    3.6000   -7.9197    0.0000 H   0  0  0  0  0  0  0  0  0  0  0  0
    4.4186   -7.6054    0.0000 H   0  0  0  0  0  0  0  0  0  0  0  0
    7.6761    3.5433    0.0000 H   0  0  0  0  0  0  0  0  0  0  0  0
    7.6761    5.1633    0.0000 H   0  0  0  0  0  0  0  0  0  0  0  0
  1 31  1  0  0  0  0
  2 31  1  0  0  0  0
  3 31  1  0  0  0  0
  4 16  2  0  0  0  0
  5 20  1  0  0  0  0
  5 26  1  0  0  0  0
  6 23  2  0  0  0  0
  7 12  1  0  0  0  0
  7 13  1  0  0  0  0
  7 14  1  0  0  0  0
 10  8  1  1  0  0  0
  8 16  1  0  0  0  0
  8 41  1  0  0  0  0
  9 19  1  0  0  0  0
  9 23  1  0  0  0  0
  9 47  1  0  0  0  0
 10 11  1  0  0  0  0
 10 12  1  0  0  0  0
 10 32  1  0  0  0  0
 11 13  1  0  0  0  0
 11 33  1  0  0  0  0
 11 34  1  0  0  0  0
 12 35  1  0  0  0  0
 12 36  1  0  0  0  0
 13 37  1  0  0  0  0
 13 38  1  0  0  0  0
 14 15  1  0  0  0  0
 14 39  1  0  0  0  0
 14 40  1  0  0  0  0
 15 17  2  0  0  0  0
 15 18  1  0  0  0  0
 16 19  1  0  0  0  0
 17 20  1  0  0  0  0
 17 42  1  0  0  0  0
 18 21  2  0  0  0  0
 18 45  1  0  0  0  0
 19 43  1  0  0  0  0
 19 44  1  0  0  0  0
 20 22  2  0  0  0  0
 21 22  1  0  0  0  0
 21 46  1  0  0  0  0
 22 48  1  0  0  0  0
 23 24  1  0  0  0  0
 24 25  2  0  0  0  0
 24 27  1  0  0  0  0
 25 28  1  0  0  0  0
 25 49  1  0  0  0  0
 26 51  1  0  0  0  0
 26 52  1  0  0  0  0
 26 53  1  0  0  0  0
 27 29  2  0  0  0  0
 27 50  1  0  0  0  0
 28 30  2  0  0  0  0
 28 31  1  0  0  0  0
 29 30  1  0  0  0  0
 29 54  1  0  0  0  0
 30 55  1  0  0  0  0
M  END
> <PUBCHEM_COMPOUND_CID>
508741
> <PUBCHEM_COMPOUND_CANONICALIZED>
1
> <PUBCHEM_CACTVS_COMPLEXITY>
617
> <PUBCHEM_CACTVS_HBOND_ACCEPTOR>
7
> <PUBCHEM_CACTVS_HBOND_DONOR>
2
> <PUBCHEM_CACTVS_ROTATABLE_BOND>
7
> <PUBCHEM_CACTVS_SUBSKEYS>
AAADceB7MYAAAAAAAAAAAAAAAAAAAWAAAAAwYAAAAAAAAAABQAAAHwAQAAAADCzBmBYyBoPABACIAiFSEACCCAAkIAAIiIGODMgMZjKE9TuUMShk1hGIqYe4yFCOAAADAAAAAAAAAAYAAAAAAAAAAAAAAA==
> <PUBCHEM_IUPAC_OPENEYE_NAME>
N-[2-[[(3R)-1-[(3-methoxyphenyl)methyl]pyrrolidin-3-yl]amino]-2-oxo-ethyl]-3-(trifluoromethyl)benzamide
> <PUBCHEM_IUPAC_CAS_NAME>
N-[2-[[(3R)-1-[(3-methoxyphenyl)methyl]-3-pyrrolidinyl]amino]-2-oxoethyl]-3-(trifluoromethyl)benzamide
> <PUBCHEM_IUPAC_NAME_MARKUP>
<I>N</I>-[2-[[(3<I>R</I>)-1-[(3-methoxyphenyl)methyl]pyrrolidin-3-yl]amino]-2-oxoethyl]-3-(trifluoromethyl)benzamide
> <PUBCHEM_IUPAC_NAME>
N-[2-[[(3R)-1-[(3-methoxyphenyl)methyl]pyrrolidin-3-yl]amino]-2-oxoethyl]-3-(trifluoromethyl)benzamide
> <PUBCHEM_IUPAC_SYSTEMATIC_NAME>
N-[2-[[(3R)-1-[(3-methoxyphenyl)methyl]pyrrolidin-3-yl]amino]-2-oxidanylidene-ethyl]-3-(trifluoromethyl)benzamide
> <PUBCHEM_IUPAC_TRADITIONAL_NAME>
N-[2-keto-2-[[(3R)-1-m-anisylpyrrolidin-3-yl]amino]ethyl]-3-(trifluoromethyl)benzamide
> <PUBCHEM_IUPAC_INCHI>
InChI=1S/C22H24F3N3O3/c1-31-19-7-2-4-15(10-19)13-28-9-8-18(14-28)27-20(29)12-26-21(30)16-5-3-6-17(11-16)22(23,24)25/h2-7,10-11,18H,8-9,12-14H2,1H3,(H,26,30)(H,27,29)/t18-/m1/s1
> <PUBCHEM_IUPAC_INCHIKEY>
PFBSTWIIFXZIAD-GOSISDBHSA-N
> <PUBCHEM_XLOGP3_AA>
3.1
> <PUBCHEM_EXACT_MASS>
435.17697612
> <PUBCHEM_MOLECULAR_FORMULA>
C22H24F3N3O3
> <PUBCHEM_MOLECULAR_WEIGHT>
435.4
> <PUBCHEM_OPENEYE_CAN_SMILES>
COC1=CC=CC(=C1)CN2CCC(C2)NC(=O)CNC(=O)C3=CC(=CC=C3)C(F)(F)F
> <PUBCHEM_OPENEYE_ISO_SMILES>
COC1=CC=CC(=C1)CN2CC[C@H](C2)NC(=O)CNC(=O)C3=CC(=CC=C3)C(F)(F)F
> <PUBCHEM_CACTVS_TPSA>
70.7
> <PUBCHEM_MONOISOTOPIC_WEIGHT>
435.17697612
> <PUBCHEM_TOTAL_CHARGE>
0
> <PUBCHEM_HEAVY_ATOM_COUNT>
31
> <PUBCHEM_ATOM_DEF_STEREO_COUNT>
1
> <PUBCHEM_ATOM_UDEF_STEREO_COUNT>
0
> <PUBCHEM_BOND_DEF_STEREO_COUNT>
0
> <PUBCHEM_BOND_UDEF_STEREO_COUNT>
0
> <PUBCHEM_ISOTOPIC_ATOM_COUNT>
0
> <PUBCHEM_COMPONENT_COUNT>
1
> <PUBCHEM_CACTVS_TAUTO_COUNT>
-1
> <PUBCHEM_COORDINATE_TYPE>
1
5
255
> <PUBCHEM_BONDANNOTATIONS>
15  17  8
15  18  8
17  20  8
18  21  8
20  22  8
21  22  8
24  25  8
24  27  8
25  28  8
27  29  8
28  30  8
29  30  8
10  8  5
$$$$
