508784
  -OEChem-10302200282D
 66 69  0     1  0  0  0  0  0999 V2000
    2.0000    7.4500    0.0000 Cl  0  0  0  0  0  0  0  0  0  0  0  0
    3.7251   -1.0954    0.0000 O   0  0  0  0  0  0  0  0  0  0  0  0
    3.5827   -2.4500    0.0000 O   0  0  0  0  0  0  0  0  0  0  0  0
    5.3148   -7.4500    0.0000 O   0  0  0  0  0  0  0  0  0  0  0  0
    4.7647    3.7954    0.0000 N   0  0  0  0  0  0  0  0  0  0  0  0
    5.3148   -2.4500    0.0000 N   0  0  0  0  0  0  0  0  0  0  0  0
    4.8841    0.1918    0.0000 N   0  0  0  0  0  0  0  0  0  0  0  0
    4.3488    1.8391    0.0000 C   0  0  0  0  0  0  0  0  0  0  0  0
    5.2999    2.1481    0.0000 C   0  0  0  0  0  0  0  0  0  0  0  0
    3.6057    2.5082    0.0000 C   0  0  0  0  0  0  0  0  0  0  0  0
    5.5078    3.1262    0.0000 C   0  0  0  0  0  0  0  0  0  0  0  0
    3.8136    3.4863    0.0000 C   0  0  0  0  0  0  0  0  0  0  0  0
    4.1409    0.8609    0.0000 C   0  0  0  0  0  0  0  0  0  0  0  0
    5.4193   -1.4555    0.0000 C   0  0  3  0  0  0  0  0  0  0  0  0
    6.3975   -1.2476    0.0000 C   0  0  0  0  0  0  0  0  0  0  0  0
    6.8975   -2.1136    0.0000 C   0  0  0  0  0  0  0  0  0  0  0  0
    6.2283   -2.8568    0.0000 C   0  0  0  0  0  0  0  0  0  0  0  0
    4.6762   -0.7864    0.0000 C   0  0  0  0  0  0  0  0  0  0  0  0
    4.9726    4.7735    0.0000 C   0  0  0  0  0  0  0  0  0  0  0  0
    4.4488   -2.9500    0.0000 C   0  0  0  0  0  0  0  0  0  0  0  0
    4.2294    5.4426    0.0000 C   0  0  0  0  0  0  0  0  0  0  0  0
    4.4488   -3.9500    0.0000 C   0  0  0  0  0  0  0  0  0  0  0  0
    4.4374    6.4208    0.0000 C   0  0  0  0  0  0  0  0  0  0  0  0
    3.2784    5.1336    0.0000 C   0  0  0  0  0  0  0  0  0  0  0  0
    5.3148   -4.4500    0.0000 C   0  0  0  0  0  0  0  0  0  0  0  0
    3.5827   -4.4500    0.0000 C   0  0  0  0  0  0  0  0  0  0  0  0
    3.6942    7.0899    0.0000 C   0  0  0  0  0  0  0  0  0  0  0  0
    2.5352    5.8027    0.0000 C   0  0  0  0  0  0  0  0  0  0  0  0
    2.7431    6.7809    0.0000 C   0  0  0  0  0  0  0  0  0  0  0  0
    5.3148   -5.4500    0.0000 C   0  0  0  0  0  0  0  0  0  0  0  0
    3.5827   -5.4500    0.0000 C   0  0  0  0  0  0  0  0  0  0  0  0
    4.4488   -5.9500    0.0000 C   0  0  0  0  0  0  0  0  0  0  0  0
    4.4488   -6.9500    0.0000 C   0  0  0  0  0  0  0  0  0  0  0  0
    3.5827   -7.4500    0.0000 C   0  0  0  0  0  0  0  0  0  0  0  0
    3.7592    1.6475    0.0000 H   0  0  0  0  0  0  0  0  0  0  0  0
    5.3862    1.5341    0.0000 H   0  0  0  0  0  0  0  0  0  0  0  0
    5.9195    2.1264    0.0000 H   0  0  0  0  0  0  0  0  0  0  0  0
    3.0308    2.7404    0.0000 H   0  0  0  0  0  0  0  0  0  0  0  0
    3.2772    1.9824    0.0000 H   0  0  0  0  0  0  0  0  0  0  0  0
    6.0827    2.8940    0.0000 H   0  0  0  0  0  0  0  0  0  0  0  0
    5.8364    3.6520    0.0000 H   0  0  0  0  0  0  0  0  0  0  0  0
    3.7273    4.1003    0.0000 H   0  0  0  0  0  0  0  0  0  0  0  0
    3.1940    3.5080    0.0000 H   0  0  0  0  0  0  0  0  0  0  0  0
    3.5661    1.0932    0.0000 H   0  0  0  0  0  0  0  0  0  0  0  0
    3.8124    0.3351    0.0000 H   0  0  0  0  0  0  0  0  0  0  0  0
    4.8405   -1.6777    0.0000 H   0  0  0  0  0  0  0  0  0  0  0  0
    6.9639   -0.9954    0.0000 H   0  0  0  0  0  0  0  0  0  0  0  0
    6.2059   -0.6579    0.0000 H   0  0  0  0  0  0  0  0  0  0  0  0
    7.3123   -2.5744    0.0000 H   0  0  0  0  0  0  0  0  0  0  0  0
    7.3990   -1.7492    0.0000 H   0  0  0  0  0  0  0  0  0  0  0  0
    5.9183   -3.3937    0.0000 H   0  0  0  0  0  0  0  0  0  0  0  0
    6.7299   -3.2212    0.0000 H   0  0  0  0  0  0  0  0  0  0  0  0
    5.4737    0.3834    0.0000 H   0  0  0  0  0  0  0  0  0  0  0  0
    5.5474    4.5412    0.0000 H   0  0  0  0  0  0  0  0  0  0  0  0
    5.3011    5.2993    0.0000 H   0  0  0  0  0  0  0  0  0  0  0  0
    5.0270    6.6124    0.0000 H   0  0  0  0  0  0  0  0  0  0  0  0
    3.1495    4.5272    0.0000 H   0  0  0  0  0  0  0  0  0  0  0  0
    5.8517   -4.1400    0.0000 H   0  0  0  0  0  0  0  0  0  0  0  0
    3.0458   -4.1400    0.0000 H   0  0  0  0  0  0  0  0  0  0  0  0
    3.8231    7.6964    0.0000 H   0  0  0  0  0  0  0  0  0  0  0  0
    1.9456    5.6112    0.0000 H   0  0  0  0  0  0  0  0  0  0  0  0
    5.8517   -5.7600    0.0000 H   0  0  0  0  0  0  0  0  0  0  0  0
    3.0458   -5.7600    0.0000 H   0  0  0  0  0  0  0  0  0  0  0  0
    3.2727   -6.9131    0.0000 H   0  0  0  0  0  0  0  0  0  0  0  0
    3.0458   -7.7600    0.0000 H   0  0  0  0  0  0  0  0  0  0  0  0
    3.8927   -7.9870    0.0000 H   0  0  0  0  0  0  0  0  0  0  0  0
  1 29  1  0  0  0  0
  2 18  2  0  0  0  0
  3 20  2  0  0  0  0
  4 33  2  0  0  0  0
  5 11  1  0  0  0  0
  5 12  1  0  0  0  0
  5 19  1  0  0  0  0
  6 14  1  0  0  0  0
  6 17  1  0  0  0  0
  6 20  1  0  0  0  0
  7 13  1  0  0  0  0
  7 18  1  0  0  0  0
  7 53  1  0  0  0  0
  8  9  1  0  0  0  0
  8 10  1  0  0  0  0
  8 13  1  0  0  0  0
  8 35  1  0  0  0  0
  9 11  1  0  0  0  0
  9 36  1  0  0  0  0
  9 37  1  0  0  0  0
 10 12  1  0  0  0  0
 10 38  1  0  0  0  0
 10 39  1  0  0  0  0
 11 40  1  0  0  0  0
 11 41  1  0  0  0  0
 12 42  1  0  0  0  0
 12 43  1  0  0  0  0
 13 44  1  0  0  0  0
 13 45  1  0  0  0  0
 14 15  1  0  0  0  0
 14 18  1  0  0  0  0
 14 46  1  0  0  0  0
 15 16  1  0  0  0  0
 15 47  1  0  0  0  0
 15 48  1  0  0  0  0
 16 17  1  0  0  0  0
 16 49  1  0  0  0  0
 16 50  1  0  0  0  0
 17 51  1  0  0  0  0
 17 52  1  0  0  0  0
 19 21  1  0  0  0  0
 19 54  1  0  0  0  0
 19 55  1  0  0  0  0
 20 22  1  0  0  0  0
 21 23  2  0  0  0  0
 21 24  1  0  0  0  0
 22 25  2  0  0  0  0
 22 26  1  0  0  0  0
 23 27  1  0  0  0  0
 23 56  1  0  0  0  0
 24 28  2  0  0  0  0
 24 57  1  0  0  0  0
 25 30  1  0  0  0  0
 25 58  1  0  0  0  0
 26 31  2  0  0  0  0
 26 59  1  0  0  0  0
 27 29  2  0  0  0  0
 27 60  1  0  0  0  0
 28 29  1  0  0  0  0
 28 61  1  0  0  0  0
 30 32  2  0  0  0  0
 30 62  1  0  0  0  0
 31 32  1  0  0  0  0
 31 63  1  0  0  0  0
 32 33  1  0  0  0  0
 33 34  1  0  0  0  0
 34 64  1  0  0  0  0
 34 65  1  0  0  0  0
 34 66  1  0  0  0  0
M  END
> <PUBCHEM_COMPOUND_CID>
508784
> <PUBCHEM_COMPOUND_CANONICALIZED>
1
> <PUBCHEM_CACTVS_COMPLEXITY>
708
> <PUBCHEM_CACTVS_HBOND_ACCEPTOR>
4
> <PUBCHEM_CACTVS_HBOND_DONOR>
1
> <PUBCHEM_CACTVS_ROTATABLE_BOND>
7
> <PUBCHEM_CACTVS_SUBSKEYS>
AAADcfB7MAAEAAAAAAAAAAAAAAAAAWAAAAA8YIAAAAAAAAABQAAAHgIQAAAADS7BmCQyAIPAAACIAqFSEACCAAAkBQAIiIGIBsgIYDKBlzGUIQhglgCIiYcYicCORAAAAAAAAACIAAAAAAAAAAAAAAAAAA==
> <PUBCHEM_IUPAC_OPENEYE_NAME>
1-(4-acetylbenzoyl)-N-[[1-[(4-chlorophenyl)methyl]-4-piperidyl]methyl]pyrrolidine-2-carboxamide
> <PUBCHEM_IUPAC_CAS_NAME>
1-[(4-acetylphenyl)-oxomethyl]-N-[[1-[(4-chlorophenyl)methyl]-4-piperidinyl]methyl]-2-pyrrolidinecarboxamide
> <PUBCHEM_IUPAC_NAME_MARKUP>
1-(4-acetylbenzoyl)-<I>N</I>-[[1-[(4-chlorophenyl)methyl]piperidin-4-yl]methyl]pyrrolidine-2-carboxamide
> <PUBCHEM_IUPAC_NAME>
1-(4-acetylbenzoyl)-N-[[1-[(4-chlorophenyl)methyl]piperidin-4-yl]methyl]pyrrolidine-2-carboxamide
> <PUBCHEM_IUPAC_SYSTEMATIC_NAME>
N-[[1-[(4-chlorophenyl)methyl]piperidin-4-yl]methyl]-1-(4-ethanoylphenyl)carbonyl-pyrrolidine-2-carboxamide
> <PUBCHEM_IUPAC_TRADITIONAL_NAME>
1-(4-acetylbenzoyl)-N-[[1-(4-chlorobenzyl)-4-piperidyl]methyl]pyrrolidine-2-carboxamide
> <PUBCHEM_IUPAC_INCHI>
InChI=1S/C27H32ClN3O3/c1-19(32)22-6-8-23(9-7-22)27(34)31-14-2-3-25(31)26(33)29-17-20-12-15-30(16-13-20)18-21-4-10-24(28)11-5-21/h4-11,20,25H,2-3,12-18H2,1H3,(H,29,33)
> <PUBCHEM_IUPAC_INCHIKEY>
QBJVKWLPHBYNEL-UHFFFAOYSA-N
> <PUBCHEM_XLOGP3_AA>
3.8
> <PUBCHEM_EXACT_MASS>
481.2132196
> <PUBCHEM_MOLECULAR_FORMULA>
C27H32ClN3O3
> <PUBCHEM_MOLECULAR_WEIGHT>
482.0
> <PUBCHEM_OPENEYE_CAN_SMILES>
CC(=O)C1=CC=C(C=C1)C(=O)N2CCCC2C(=O)NCC3CCN(CC3)CC4=CC=C(C=C4)Cl
> <PUBCHEM_OPENEYE_ISO_SMILES>
CC(=O)C1=CC=C(C=C1)C(=O)N2CCCC2C(=O)NCC3CCN(CC3)CC4=CC=C(C=C4)Cl
> <PUBCHEM_CACTVS_TPSA>
69.7
> <PUBCHEM_MONOISOTOPIC_WEIGHT>
481.2132196
> <PUBCHEM_TOTAL_CHARGE>
0
> <PUBCHEM_HEAVY_ATOM_COUNT>
34
> <PUBCHEM_ATOM_DEF_STEREO_COUNT>
0
> <PUBCHEM_ATOM_UDEF_STEREO_COUNT>
1
> <PUBCHEM_BOND_DEF_STEREO_COUNT>
0
> <PUBCHEM_BOND_UDEF_STEREO_COUNT>
0
> <PUBCHEM_ISOTOPIC_ATOM_COUNT>
0
> <PUBCHEM_COMPONENT_COUNT>
1
> <PUBCHEM_CACTVS_TAUTO_COUNT>
-1
> <PUBCHEM_COORDINATE_TYPE>
1
5
255
> <PUBCHEM_BONDANNOTATIONS>
14  18  3
21  23  8
21  24  8
22  25  8
22  26  8
23  27  8
24  28  8
25  30  8
26  31  8
27  29  8
28  29  8
30  32  8
31  32  8
$$$$
