508729
  -OEChem-10302200282D
 50 52  0     1  0  0  0  0  0999 V2000
   12.6637    4.6648    0.0000 Cl  0  0  0  0  0  0  0  0  0  0  0  0
    7.1962    0.1307    0.0000 O   0  0  0  0  0  0  0  0  0  0  0  0
    3.7320   -0.8693    0.0000 O   0  0  0  0  0  0  0  0  0  0  0  0
    2.8660   -5.3693    0.0000 O   0  5  0  0  0  0  0  0  0  0  0  0
    2.0000   -3.8693    0.0000 O   0  0  0  0  0  0  0  0  0  0  0  0
    8.2788    3.3331    0.0000 N   0  0  3  0  0  0  0  0  0  0  0  0
    6.3301    1.6307    0.0000 N   0  0  0  0  0  0  0  0  0  0  0  0
    5.4641   -0.8693    0.0000 N   0  0  0  0  0  0  0  0  0  0  0  0
    2.8660   -4.3693    0.0000 N   0  3  0  0  0  0  0  0  0  0  0  0
    7.1962    2.1307    0.0000 C   0  0  2  0  0  0  0  0  0  0  0  0
    8.1097    1.7240    0.0000 C   0  0  0  0  0  0  0  0  0  0  0  0
    7.3007    3.1252    0.0000 C   0  0  0  0  0  0  0  0  0  0  0  0
    8.7788    2.4671    0.0000 C   0  0  0  0  0  0  0  0  0  0  0  0
    8.6856    4.2467    0.0000 C   0  0  0  0  0  0  0  0  0  0  0  0
    9.6801    4.3512    0.0000 C   0  0  0  0  0  0  0  0  0  0  0  0
    6.3301    0.6307    0.0000 C   0  0  0  0  0  0  0  0  0  0  0  0
    5.4641    0.1307    0.0000 C   0  0  0  0  0  0  0  0  0  0  0  0
   10.0868    5.2648    0.0000 C   0  0  0  0  0  0  0  0  0  0  0  0
   10.2679    3.5422    0.0000 C   0  0  0  0  0  0  0  0  0  0  0  0
   11.0813    5.3693    0.0000 C   0  0  0  0  0  0  0  0  0  0  0  0
   11.2624    3.6467    0.0000 C   0  0  0  0  0  0  0  0  0  0  0  0
   11.6691    4.5603    0.0000 C   0  0  0  0  0  0  0  0  0  0  0  0
    4.5981   -1.3693    0.0000 C   0  0  0  0  0  0  0  0  0  0  0  0
    4.5981   -2.3693    0.0000 C   0  0  0  0  0  0  0  0  0  0  0  0
    3.7320   -2.8693    0.0000 C   0  0  0  0  0  0  0  0  0  0  0  0
    5.4641   -2.8693    0.0000 C   0  0  0  0  0  0  0  0  0  0  0  0
    3.7320   -3.8693    0.0000 C   0  0  0  0  0  0  0  0  0  0  0  0
    5.4641   -3.8693    0.0000 C   0  0  0  0  0  0  0  0  0  0  0  0
    4.5981   -4.3693    0.0000 C   0  0  0  0  0  0  0  0  0  0  0  0
    6.6762    2.4684    0.0000 H   0  0  0  0  0  0  0  0  0  0  0  0
    7.7997    1.1870    0.0000 H   0  0  0  0  0  0  0  0  0  0  0  0
    8.6113    1.3596    0.0000 H   0  0  0  0  0  0  0  0  0  0  0  0
    7.2359    3.7418    0.0000 H   0  0  0  0  0  0  0  0  0  0  0  0
    6.6807    3.1252    0.0000 H   0  0  0  0  0  0  0  0  0  0  0  0
    9.1937    2.0064    0.0000 H   0  0  0  0  0  0  0  0  0  0  0  0
    9.2804    2.8315    0.0000 H   0  0  0  0  0  0  0  0  0  0  0  0
    8.7288    4.8652    0.0000 H   0  0  0  0  0  0  0  0  0  0  0  0
    8.0840    4.3967    0.0000 H   0  0  0  0  0  0  0  0  0  0  0  0
    5.7932    1.9407    0.0000 H   0  0  0  0  0  0  0  0  0  0  0  0
    5.2520    0.7133    0.0000 H   0  0  0  0  0  0  0  0  0  0  0  0
    4.8535    0.0230    0.0000 H   0  0  0  0  0  0  0  0  0  0  0  0
    9.7224    5.7664    0.0000 H   0  0  0  0  0  0  0  0  0  0  0  0
   10.0157    2.9758    0.0000 H   0  0  0  0  0  0  0  0  0  0  0  0
   11.3335    5.9357    0.0000 H   0  0  0  0  0  0  0  0  0  0  0  0
   11.6268    3.1451    0.0000 H   0  0  0  0  0  0  0  0  0  0  0  0
    6.0010   -1.1793    0.0000 H   0  0  0  0  0  0  0  0  0  0  0  0
    3.1951   -2.5593    0.0000 H   0  0  0  0  0  0  0  0  0  0  0  0
    6.0010   -2.5593    0.0000 H   0  0  0  0  0  0  0  0  0  0  0  0
    6.0010   -4.1793    0.0000 H   0  0  0  0  0  0  0  0  0  0  0  0
    4.5981   -4.9893    0.0000 H   0  0  0  0  0  0  0  0  0  0  0  0
  1 22  1  0  0  0  0
  2 16  2  0  0  0  0
  3 23  2  0  0  0  0
  4  9  1  0  0  0  0
  5  9  2  0  0  0  0
  6 12  1  0  0  0  0
  6 13  1  0  0  0  0
  6 14  1  0  0  0  0
 10  7  1  1  0  0  0
  7 16  1  0  0  0  0
  7 39  1  0  0  0  0
  8 17  1  0  0  0  0
  8 23  1  0  0  0  0
  8 46  1  0  0  0  0
  9 27  1  0  0  0  0
 10 11  1  0  0  0  0
 10 12  1  0  0  0  0
 10 30  1  0  0  0  0
 11 13  1  0  0  0  0
 11 31  1  0  0  0  0
 11 32  1  0  0  0  0
 12 33  1  0  0  0  0
 12 34  1  0  0  0  0
 13 35  1  0  0  0  0
 13 36  1  0  0  0  0
 14 15  1  0  0  0  0
 14 37  1  0  0  0  0
 14 38  1  0  0  0  0
 15 18  2  0  0  0  0
 15 19  1  0  0  0  0
 16 17  1  0  0  0  0
 17 40  1  0  0  0  0
 17 41  1  0  0  0  0
 18 20  1  0  0  0  0
 18 42  1  0  0  0  0
 19 21  2  0  0  0  0
 19 43  1  0  0  0  0
 20 22  2  0  0  0  0
 20 44  1  0  0  0  0
 21 22  1  0  0  0  0
 21 45  1  0  0  0  0
 23 24  1  0  0  0  0
 24 25  2  0  0  0  0
 24 26  1  0  0  0  0
 25 27  1  0  0  0  0
 25 47  1  0  0  0  0
 26 28  2  0  0  0  0
 26 48  1  0  0  0  0
 27 29  2  0  0  0  0
 28 29  1  0  0  0  0
 28 49  1  0  0  0  0
 29 50  1  0  0  0  0
M  CHG  2   4  -1   9   1
M  END
> <PUBCHEM_COMPOUND_CID>
508729
> <PUBCHEM_COMPOUND_CANONICALIZED>
1
> <PUBCHEM_CACTVS_COMPLEXITY>
592
> <PUBCHEM_CACTVS_HBOND_ACCEPTOR>
5
> <PUBCHEM_CACTVS_HBOND_DONOR>
2
> <PUBCHEM_CACTVS_ROTATABLE_BOND>
6
> <PUBCHEM_CACTVS_SUBSKEYS>
AAADceB7uAAEAAAAAAAAAAAAAAAAAWAAAAAwYAAAAAAAAAABQAAAHgIUAAAADCrBmCQwwIPQQACJAiVSUwCCAAAkBwAoiIGIZsoIYDKB17GUIQhglgCIyYcciACOBAAAQAAAAAAIAACAAAAAAAAAAAAAAA==
> <PUBCHEM_IUPAC_OPENEYE_NAME>
N-[2-[[(3R)-1-[(4-chlorophenyl)methyl]pyrrolidin-3-yl]amino]-2-oxo-ethyl]-3-nitro-benzamide
> <PUBCHEM_IUPAC_CAS_NAME>
N-[2-[[(3R)-1-[(4-chlorophenyl)methyl]-3-pyrrolidinyl]amino]-2-oxoethyl]-3-nitrobenzamide
> <PUBCHEM_IUPAC_NAME_MARKUP>
<I>N</I>-[2-[[(3<I>R</I>)-1-[(4-chlorophenyl)methyl]pyrrolidin-3-yl]amino]-2-oxoethyl]-3-nitrobenzamide
> <PUBCHEM_IUPAC_NAME>
N-[2-[[(3R)-1-[(4-chlorophenyl)methyl]pyrrolidin-3-yl]amino]-2-oxoethyl]-3-nitrobenzamide
> <PUBCHEM_IUPAC_SYSTEMATIC_NAME>
N-[2-[[(3R)-1-[(4-chlorophenyl)methyl]pyrrolidin-3-yl]amino]-2-oxidanylidene-ethyl]-3-nitro-benzamide
> <PUBCHEM_IUPAC_TRADITIONAL_NAME>
N-[2-[[(3R)-1-(4-chlorobenzyl)pyrrolidin-3-yl]amino]-2-keto-ethyl]-3-nitro-benzamide
> <PUBCHEM_IUPAC_INCHI>
InChI=1S/C20H21ClN4O4/c21-16-6-4-14(5-7-16)12-24-9-8-17(13-24)23-19(26)11-22-20(27)15-2-1-3-18(10-15)25(28)29/h1-7,10,17H,8-9,11-13H2,(H,22,27)(H,23,26)/t17-/m1/s1
> <PUBCHEM_IUPAC_INCHIKEY>
LHKSOGKNOXWLED-QGZVFWFLSA-N
> <PUBCHEM_XLOGP3_AA>
2.7
> <PUBCHEM_EXACT_MASS>
416.1251329
> <PUBCHEM_MOLECULAR_FORMULA>
C20H21ClN4O4
> <PUBCHEM_MOLECULAR_WEIGHT>
416.9
> <PUBCHEM_OPENEYE_CAN_SMILES>
C1CN(CC1NC(=O)CNC(=O)C2=CC(=CC=C2)[N+](=O)[O-])CC3=CC=C(C=C3)Cl
> <PUBCHEM_OPENEYE_ISO_SMILES>
C1CN(C[C@@H]1NC(=O)CNC(=O)C2=CC(=CC=C2)[N+](=O)[O-])CC3=CC=C(C=C3)Cl
> <PUBCHEM_CACTVS_TPSA>
107
> <PUBCHEM_MONOISOTOPIC_WEIGHT>
416.1251329
> <PUBCHEM_TOTAL_CHARGE>
0
> <PUBCHEM_HEAVY_ATOM_COUNT>
29
> <PUBCHEM_ATOM_DEF_STEREO_COUNT>
1
> <PUBCHEM_ATOM_UDEF_STEREO_COUNT>
0
> <PUBCHEM_BOND_DEF_STEREO_COUNT>
0
> <PUBCHEM_BOND_UDEF_STEREO_COUNT>
0
> <PUBCHEM_ISOTOPIC_ATOM_COUNT>
0
> <PUBCHEM_COMPONENT_COUNT>
1
> <PUBCHEM_CACTVS_TAUTO_COUNT>
-1
> <PUBCHEM_COORDINATE_TYPE>
1
5
255
> <PUBCHEM_BONDANNOTATIONS>
15  18  8
15  19  8
18  20  8
19  21  8
20  22  8
21  22  8
24  25  8
24  26  8
25  27  8
26  28  8
27  29  8
28  29  8
10  7  5
$$$$
