508743
  -OEChem-10302200282D
 51 53  0     1  0  0  0  0  0999 V2000
    2.0000   -3.5559    0.0000 F   0  0  0  0  0  0  0  0  0  0  0  0
    2.3621   -7.0010    0.0000 F   0  0  0  0  0  0  0  0  0  0  0  0
    6.3654    7.0010    0.0000 F   0  0  0  0  0  0  0  0  0  0  0  0
    7.3654    6.0010    0.0000 F   0  0  0  0  0  0  0  0  0  0  0  0
    5.3654    6.0010    0.0000 F   0  0  0  0  0  0  0  0  0  0  0  0
    4.6333    0.0010    0.0000 O   0  0  0  0  0  0  0  0  0  0  0  0
    3.7673    3.5010    0.0000 O   0  0  0  0  0  0  0  0  0  0  0  0
    3.4013   -2.5378    0.0000 N   0  0  3  0  0  0  0  0  0  0  0  0
    2.9013    0.0010    0.0000 N   0  0  0  0  0  0  0  0  0  0  0  0
    4.6333    2.0010    0.0000 N   0  0  0  0  0  0  0  0  0  0  0  0
    2.9013   -0.9990    0.0000 C   0  0  2  0  0  0  0  0  0  0  0  0
    2.0922   -1.5868    0.0000 C   0  0  0  0  0  0  0  0  0  0  0  0
    3.7103   -1.5868    0.0000 C   0  0  0  0  0  0  0  0  0  0  0  0
    2.4013   -2.5378    0.0000 C   0  0  0  0  0  0  0  0  0  0  0  0
    3.9890   -3.3468    0.0000 C   0  0  0  0  0  0  0  0  0  0  0  0
    3.5823   -4.2604    0.0000 C   0  0  0  0  0  0  0  0  0  0  0  0
    3.7673    0.5010    0.0000 C   0  0  0  0  0  0  0  0  0  0  0  0
    3.7673    1.5010    0.0000 C   0  0  0  0  0  0  0  0  0  0  0  0
    2.5878   -4.3649    0.0000 C   0  0  0  0  0  0  0  0  0  0  0  0
    4.1701   -5.0694    0.0000 C   0  0  0  0  0  0  0  0  0  0  0  0
    2.1810   -5.2785    0.0000 C   0  0  0  0  0  0  0  0  0  0  0  0
    3.7634   -5.9830    0.0000 C   0  0  0  0  0  0  0  0  0  0  0  0
    2.7688   -6.0875    0.0000 C   0  0  0  0  0  0  0  0  0  0  0  0
    4.6333    3.0010    0.0000 C   0  0  0  0  0  0  0  0  0  0  0  0
    5.4993    3.5010    0.0000 C   0  0  0  0  0  0  0  0  0  0  0  0
    5.4993    4.5010    0.0000 C   0  0  0  0  0  0  0  0  0  0  0  0
    6.3654    3.0010    0.0000 C   0  0  0  0  0  0  0  0  0  0  0  0
    6.3654    5.0010    0.0000 C   0  0  0  0  0  0  0  0  0  0  0  0
    7.2314    3.5010    0.0000 C   0  0  0  0  0  0  0  0  0  0  0  0
    7.2314    4.5010    0.0000 C   0  0  0  0  0  0  0  0  0  0  0  0
    6.3654    6.0010    0.0000 C   0  0  0  0  0  0  0  0  0  0  0  0
    2.3488   -0.7175    0.0000 H   0  0  0  0  0  0  0  0  0  0  0  0
    1.7822   -1.0498    0.0000 H   0  0  0  0  0  0  0  0  0  0  0  0
    1.5258   -1.8389    0.0000 H   0  0  0  0  0  0  0  0  0  0  0  0
    4.2767   -1.8389    0.0000 H   0  0  0  0  0  0  0  0  0  0  0  0
    4.0203   -1.0498    0.0000 H   0  0  0  0  0  0  0  0  0  0  0  0
    1.7948   -2.6667    0.0000 H   0  0  0  0  0  0  0  0  0  0  0  0
    2.4661   -3.1544    0.0000 H   0  0  0  0  0  0  0  0  0  0  0  0
    4.5030   -3.6935    0.0000 H   0  0  0  0  0  0  0  0  0  0  0  0
    4.4197   -2.9008    0.0000 H   0  0  0  0  0  0  0  0  0  0  0  0
    2.3643    0.3110    0.0000 H   0  0  0  0  0  0  0  0  0  0  0  0
    3.5552    2.0836    0.0000 H   0  0  0  0  0  0  0  0  0  0  0  0
    3.1567    1.3934    0.0000 H   0  0  0  0  0  0  0  0  0  0  0  0
    4.7867   -5.0046    0.0000 H   0  0  0  0  0  0  0  0  0  0  0  0
    1.5644   -5.3433    0.0000 H   0  0  0  0  0  0  0  0  0  0  0  0
    4.1278   -6.4845    0.0000 H   0  0  0  0  0  0  0  0  0  0  0  0
    5.1702    1.6910    0.0000 H   0  0  0  0  0  0  0  0  0  0  0  0
    4.9624    4.8110    0.0000 H   0  0  0  0  0  0  0  0  0  0  0  0
    6.3654    2.3810    0.0000 H   0  0  0  0  0  0  0  0  0  0  0  0
    7.7683    3.1910    0.0000 H   0  0  0  0  0  0  0  0  0  0  0  0
    7.7683    4.8110    0.0000 H   0  0  0  0  0  0  0  0  0  0  0  0
  1 19  1  0  0  0  0
  2 23  1  0  0  0  0
  3 31  1  0  0  0  0
  4 31  1  0  0  0  0
  5 31  1  0  0  0  0
  6 17  2  0  0  0  0
  7 24  2  0  0  0  0
  8 13  1  0  0  0  0
  8 14  1  0  0  0  0
  8 15  1  0  0  0  0
 11  9  1  1  0  0  0
  9 17  1  0  0  0  0
  9 41  1  0  0  0  0
 10 18  1  0  0  0  0
 10 24  1  0  0  0  0
 10 47  1  0  0  0  0
 11 12  1  0  0  0  0
 11 13  1  0  0  0  0
 11 32  1  0  0  0  0
 12 14  1  0  0  0  0
 12 33  1  0  0  0  0
 12 34  1  0  0  0  0
 13 35  1  0  0  0  0
 13 36  1  0  0  0  0
 14 37  1  0  0  0  0
 14 38  1  0  0  0  0
 15 16  1  0  0  0  0
 15 39  1  0  0  0  0
 15 40  1  0  0  0  0
 16 19  2  0  0  0  0
 16 20  1  0  0  0  0
 17 18  1  0  0  0  0
 18 42  1  0  0  0  0
 18 43  1  0  0  0  0
 19 21  1  0  0  0  0
 20 22  2  0  0  0  0
 20 44  1  0  0  0  0
 21 23  2  0  0  0  0
 21 45  1  0  0  0  0
 22 23  1  0  0  0  0
 22 46  1  0  0  0  0
 24 25  1  0  0  0  0
 25 26  2  0  0  0  0
 25 27  1  0  0  0  0
 26 28  1  0  0  0  0
 26 48  1  0  0  0  0
 27 29  2  0  0  0  0
 27 49  1  0  0  0  0
 28 30  2  0  0  0  0
 28 31  1  0  0  0  0
 29 30  1  0  0  0  0
 29 50  1  0  0  0  0
 30 51  1  0  0  0  0
M  END
> <PUBCHEM_COMPOUND_CID>
508743
> <PUBCHEM_COMPOUND_CANONICALIZED>
1
> <PUBCHEM_CACTVS_COMPLEXITY>
633
> <PUBCHEM_CACTVS_HBOND_ACCEPTOR>
8
> <PUBCHEM_CACTVS_HBOND_DONOR>
2
> <PUBCHEM_CACTVS_ROTATABLE_BOND>
6
> <PUBCHEM_CACTVS_SUBSKEYS>
AAADceB7McAAAAAAAAAAAAAAAAAAAWAAAAAwYAAAAAAAAAABQAAAHwAQAAAADCjBmBwwAIPAAACIAiFSEACCAAAkAAAIiIGIBMgIYDKA1TGUIQhglgCIiYcYiECOAAACAAAAAAAAAAQAAAAAAAAAAAAAAA==
> <PUBCHEM_IUPAC_OPENEYE_NAME>
N-[2-[[(3R)-1-[(2,4-difluorophenyl)methyl]pyrrolidin-3-yl]amino]-2-oxo-ethyl]-3-(trifluoromethyl)benzamide
> <PUBCHEM_IUPAC_CAS_NAME>
N-[2-[[(3R)-1-[(2,4-difluorophenyl)methyl]-3-pyrrolidinyl]amino]-2-oxoethyl]-3-(trifluoromethyl)benzamide
> <PUBCHEM_IUPAC_NAME_MARKUP>
<I>N</I>-[2-[[(3<I>R</I>)-1-[(2,4-difluorophenyl)methyl]pyrrolidin-3-yl]amino]-2-oxoethyl]-3-(trifluoromethyl)benzamide
> <PUBCHEM_IUPAC_NAME>
N-[2-[[(3R)-1-[(2,4-difluorophenyl)methyl]pyrrolidin-3-yl]amino]-2-oxoethyl]-3-(trifluoromethyl)benzamide
> <PUBCHEM_IUPAC_SYSTEMATIC_NAME>
N-[2-[[(3R)-1-[[2,4-bis(fluoranyl)phenyl]methyl]pyrrolidin-3-yl]amino]-2-oxidanylidene-ethyl]-3-(trifluoromethyl)benzamide
> <PUBCHEM_IUPAC_TRADITIONAL_NAME>
N-[2-[[(3R)-1-(2,4-difluorobenzyl)pyrrolidin-3-yl]amino]-2-keto-ethyl]-3-(trifluoromethyl)benzamide
> <PUBCHEM_IUPAC_INCHI>
InChI=1S/C21H20F5N3O2/c22-16-5-4-14(18(23)9-16)11-29-7-6-17(12-29)28-19(30)10-27-20(31)13-2-1-3-15(8-13)21(24,25)26/h1-5,8-9,17H,6-7,10-12H2,(H,27,31)(H,28,30)/t17-/m1/s1
> <PUBCHEM_IUPAC_INCHIKEY>
QGVCBIFHFPAMGR-QGZVFWFLSA-N
> <PUBCHEM_XLOGP3_AA>
3.4
> <PUBCHEM_EXACT_MASS>
441.14756770
> <PUBCHEM_MOLECULAR_FORMULA>
C21H20F5N3O2
> <PUBCHEM_MOLECULAR_WEIGHT>
441.4
> <PUBCHEM_OPENEYE_CAN_SMILES>
C1CN(CC1NC(=O)CNC(=O)C2=CC(=CC=C2)C(F)(F)F)CC3=C(C=C(C=C3)F)F
> <PUBCHEM_OPENEYE_ISO_SMILES>
C1CN(C[C@@H]1NC(=O)CNC(=O)C2=CC(=CC=C2)C(F)(F)F)CC3=C(C=C(C=C3)F)F
> <PUBCHEM_CACTVS_TPSA>
61.4
> <PUBCHEM_MONOISOTOPIC_WEIGHT>
441.14756770
> <PUBCHEM_TOTAL_CHARGE>
0
> <PUBCHEM_HEAVY_ATOM_COUNT>
31
> <PUBCHEM_ATOM_DEF_STEREO_COUNT>
1
> <PUBCHEM_ATOM_UDEF_STEREO_COUNT>
0
> <PUBCHEM_BOND_DEF_STEREO_COUNT>
0
> <PUBCHEM_BOND_UDEF_STEREO_COUNT>
0
> <PUBCHEM_ISOTOPIC_ATOM_COUNT>
0
> <PUBCHEM_COMPONENT_COUNT>
1
> <PUBCHEM_CACTVS_TAUTO_COUNT>
-1
> <PUBCHEM_COORDINATE_TYPE>
1
5
255
> <PUBCHEM_BONDANNOTATIONS>
16  19  8
16  20  8
19  21  8
20  22  8
21  23  8
22  23  8
25  26  8
25  27  8
26  28  8
27  29  8
28  30  8
29  30  8
11  9  5
$$$$
