508720
  -OEChem-10302200282D
 86 88  0     1  0  0  0  0  0999 V2000
    4.5981   -0.1012    0.0000 S   0  0  0  0  0  0  0  0  0  0  0  0
    5.5981   -0.1012    0.0000 O   0  0  0  0  0  0  0  0  0  0  0  0
    3.5981   -0.1012    0.0000 O   0  0  0  0  0  0  0  0  0  0  0  0
    6.3301    2.8988    0.0000 O   0  0  0  0  0  0  0  0  0  0  0  0
    4.5981    2.8988    0.0000 O   0  0  0  0  0  0  0  0  0  0  0  0
   11.5263    2.8988    0.0000 O   0  0  0  0  0  0  0  0  0  0  0  0
   10.6603    2.3988    0.0000 O   0  0  0  0  0  0  0  0  0  0  0  0
    4.5981    0.8988    0.0000 N   0  0  3  0  0  0  0  0  0  0  0  0
   13.2583    2.8988    0.0000 N   0  0  0  0  0  0  0  0  0  0  0  0
   12.3923    1.3988    0.0000 N   0  0  0  0  0  0  0  0  0  0  0  0
    9.7942    0.8988    0.0000 N   0  0  0  0  0  0  0  0  0  0  0  0
    5.4641    1.3988    0.0000 C   0  0  1  0  0  0  0  0  0  0  0  0
    6.3301    0.8988    0.0000 C   0  0  0  0  0  0  0  0  0  0  0  0
    3.7320    1.3988    0.0000 C   0  0  0  0  0  0  0  0  0  0  0  0
    7.1962    1.3988    0.0000 C   0  0  0  0  0  0  0  0  0  0  0  0
    2.8660    0.8988    0.0000 C   0  0  0  0  0  0  0  0  0  0  0  0
   14.8410    3.2352    0.0000 C   0  0  0  0  0  0  0  0  0  0  0  0
   14.3410    4.1012    0.0000 C   0  0  0  0  0  0  0  0  0  0  0  0
   14.1719    2.4920    0.0000 C   0  0  0  0  0  0  0  0  0  0  0  0
   13.3629    3.8933    0.0000 C   0  0  0  0  0  0  0  0  0  0  0  0
    8.0622    0.8988    0.0000 C   0  0  0  0  0  0  0  0  0  0  0  0
    8.9282    1.3988    0.0000 C   0  0  0  0  0  0  0  0  0  0  0  0
    5.4641    2.3988    0.0000 C   0  0  0  0  0  0  0  0  0  0  0  0
   11.5263    0.8988    0.0000 C   0  0  1  0  0  0  0  0  0  0  0  0
   12.3923    2.3988    0.0000 C   0  0  0  0  0  0  0  0  0  0  0  0
    4.5981   -1.1012    0.0000 C   0  0  0  0  0  0  0  0  0  0  0  0
    2.0000    1.3988    0.0000 C   0  0  0  0  0  0  0  0  0  0  0  0
    2.8660   -0.1012    0.0000 C   0  0  0  0  0  0  0  0  0  0  0  0
   11.5263   -0.1012    0.0000 C   0  0  0  0  0  0  0  0  0  0  0  0
   10.6603    1.3988    0.0000 C   0  0  0  0  0  0  0  0  0  0  0  0
    5.4641   -1.6012    0.0000 C   0  0  0  0  0  0  0  0  0  0  0  0
    3.7320   -1.6012    0.0000 C   0  0  0  0  0  0  0  0  0  0  0  0
   12.3923   -0.6012    0.0000 C   0  0  0  0  0  0  0  0  0  0  0  0
    5.4641   -2.6012    0.0000 C   0  0  0  0  0  0  0  0  0  0  0  0
    3.7320   -2.6012    0.0000 C   0  0  0  0  0  0  0  0  0  0  0  0
    4.5981   -3.1012    0.0000 C   0  0  0  0  0  0  0  0  0  0  0  0
   13.2583   -0.1012    0.0000 C   0  0  0  0  0  0  0  0  0  0  0  0
   12.3923   -1.6012    0.0000 C   0  0  0  0  0  0  0  0  0  0  0  0
    4.5981   -4.1012    0.0000 C   0  0  0  0  0  0  0  0  0  0  0  0
   14.1244   -0.6012    0.0000 C   0  0  0  0  0  0  0  0  0  0  0  0
   13.2583   -2.1012    0.0000 C   0  0  0  0  0  0  0  0  0  0  0  0
   14.1244   -1.6012    0.0000 C   0  0  0  0  0  0  0  0  0  0  0  0
    5.4641    0.7788    0.0000 H   0  0  0  0  0  0  0  0  0  0  0  0
    5.9316    0.4238    0.0000 H   0  0  0  0  0  0  0  0  0  0  0  0
    6.7287    0.4238    0.0000 H   0  0  0  0  0  0  0  0  0  0  0  0
    4.1306    1.8737    0.0000 H   0  0  0  0  0  0  0  0  0  0  0  0
    3.3335    1.8737    0.0000 H   0  0  0  0  0  0  0  0  0  0  0  0
    7.5947    1.8737    0.0000 H   0  0  0  0  0  0  0  0  0  0  0  0
    6.7976    1.8737    0.0000 H   0  0  0  0  0  0  0  0  0  0  0  0
    2.8660    1.5188    0.0000 H   0  0  0  0  0  0  0  0  0  0  0  0
   15.2559    2.7744    0.0000 H   0  0  0  0  0  0  0  0  0  0  0  0
   15.3426    3.5996    0.0000 H   0  0  0  0  0  0  0  0  0  0  0  0
   14.9074    4.3534    0.0000 H   0  0  0  0  0  0  0  0  0  0  0  0
   14.1494    4.6909    0.0000 H   0  0  0  0  0  0  0  0  0  0  0  0
   13.8619    1.9551    0.0000 H   0  0  0  0  0  0  0  0  0  0  0  0
   14.6735    2.1276    0.0000 H   0  0  0  0  0  0  0  0  0  0  0  0
   13.2981    4.5099    0.0000 H   0  0  0  0  0  0  0  0  0  0  0  0
   12.7429    3.8933    0.0000 H   0  0  0  0  0  0  0  0  0  0  0  0
    7.6636    0.4238    0.0000 H   0  0  0  0  0  0  0  0  0  0  0  0
    8.4607    0.4238    0.0000 H   0  0  0  0  0  0  0  0  0  0  0  0
    9.3267    1.8737    0.0000 H   0  0  0  0  0  0  0  0  0  0  0  0
    8.5297    1.8737    0.0000 H   0  0  0  0  0  0  0  0  0  0  0  0
   12.0632    0.5888    0.0000 H   0  0  0  0  0  0  0  0  0  0  0  0
    2.3100    1.9357    0.0000 H   0  0  0  0  0  0  0  0  0  0  0  0
    1.4631    1.7088    0.0000 H   0  0  0  0  0  0  0  0  0  0  0  0
    1.6900    0.8618    0.0000 H   0  0  0  0  0  0  0  0  0  0  0  0
    2.2460   -0.1012    0.0000 H   0  0  0  0  0  0  0  0  0  0  0  0
    2.8660   -0.7212    0.0000 H   0  0  0  0  0  0  0  0  0  0  0  0
    3.4860   -0.1012    0.0000 H   0  0  0  0  0  0  0  0  0  0  0  0
   12.9292    1.0888    0.0000 H   0  0  0  0  0  0  0  0  0  0  0  0
    9.7942    0.2788    0.0000 H   0  0  0  0  0  0  0  0  0  0  0  0
   10.9157    0.0064    0.0000 H   0  0  0  0  0  0  0  0  0  0  0  0
   11.3142   -0.6838    0.0000 H   0  0  0  0  0  0  0  0  0  0  0  0
    6.0010   -1.2912    0.0000 H   0  0  0  0  0  0  0  0  0  0  0  0
    3.1951   -1.2912    0.0000 H   0  0  0  0  0  0  0  0  0  0  0  0
    6.3301    3.5188    0.0000 H   0  0  0  0  0  0  0  0  0  0  0  0
    6.0010   -2.9112    0.0000 H   0  0  0  0  0  0  0  0  0  0  0  0
    3.1951   -2.9112    0.0000 H   0  0  0  0  0  0  0  0  0  0  0  0
   13.2583    0.5188    0.0000 H   0  0  0  0  0  0  0  0  0  0  0  0
   11.8554   -1.9112    0.0000 H   0  0  0  0  0  0  0  0  0  0  0  0
    3.9781   -4.1012    0.0000 H   0  0  0  0  0  0  0  0  0  0  0  0
    4.5981   -4.7212    0.0000 H   0  0  0  0  0  0  0  0  0  0  0  0
    5.2181   -4.1012    0.0000 H   0  0  0  0  0  0  0  0  0  0  0  0
   14.6613   -0.2912    0.0000 H   0  0  0  0  0  0  0  0  0  0  0  0
   13.2583   -2.7212    0.0000 H   0  0  0  0  0  0  0  0  0  0  0  0
   14.6613   -1.9112    0.0000 H   0  0  0  0  0  0  0  0  0  0  0  0
  1  2  2  0  0  0  0
  1  3  2  0  0  0  0
  1  8  1  0  0  0  0
  1 26  1  0  0  0  0
  4 23  1  0  0  0  0
  4 76  1  0  0  0  0
  5 23  2  0  0  0  0
  6 25  2  0  0  0  0
  7 30  2  0  0  0  0
 12  8  1  6  0  0  0
  8 14  1  0  0  0  0
  9 19  1  0  0  0  0
  9 20  1  0  0  0  0
  9 25  1  0  0  0  0
 24 10  1  1  0  0  0
 10 25  1  0  0  0  0
 10 70  1  0  0  0  0
 11 22  1  0  0  0  0
 11 30  1  0  0  0  0
 11 71  1  0  0  0  0
 12 13  1  0  0  0  0
 12 23  1  0  0  0  0
 12 43  1  0  0  0  0
 13 15  1  0  0  0  0
 13 44  1  0  0  0  0
 13 45  1  0  0  0  0
 14 16  1  0  0  0  0
 14 46  1  0  0  0  0
 14 47  1  0  0  0  0
 15 21  1  0  0  0  0
 15 48  1  0  0  0  0
 15 49  1  0  0  0  0
 16 27  1  0  0  0  0
 16 28  1  0  0  0  0
 16 50  1  0  0  0  0
 17 18  1  0  0  0  0
 17 19  1  0  0  0  0
 17 51  1  0  0  0  0
 17 52  1  0  0  0  0
 18 20  1  0  0  0  0
 18 53  1  0  0  0  0
 18 54  1  0  0  0  0
 19 55  1  0  0  0  0
 19 56  1  0  0  0  0
 20 57  1  0  0  0  0
 20 58  1  0  0  0  0
 21 22  1  0  0  0  0
 21 59  1  0  0  0  0
 21 60  1  0  0  0  0
 22 61  1  0  0  0  0
 22 62  1  0  0  0  0
 24 29  1  0  0  0  0
 24 30  1  0  0  0  0
 24 63  1  0  0  0  0
 26 31  2  0  0  0  0
 26 32  1  0  0  0  0
 27 64  1  0  0  0  0
 27 65  1  0  0  0  0
 27 66  1  0  0  0  0
 28 67  1  0  0  0  0
 28 68  1  0  0  0  0
 28 69  1  0  0  0  0
 29 33  1  0  0  0  0
 29 72  1  0  0  0  0
 29 73  1  0  0  0  0
 31 34  1  0  0  0  0
 31 74  1  0  0  0  0
 32 35  2  0  0  0  0
 32 75  1  0  0  0  0
 33 37  2  0  0  0  0
 33 38  1  0  0  0  0
 34 36  2  0  0  0  0
 34 77  1  0  0  0  0
 35 36  1  0  0  0  0
 35 78  1  0  0  0  0
 36 39  1  0  0  0  0
 37 40  1  0  0  0  0
 37 79  1  0  0  0  0
 38 41  2  0  0  0  0
 38 80  1  0  0  0  0
 39 81  1  0  0  0  0
 39 82  1  0  0  0  0
 39 83  1  0  0  0  0
 40 42  2  0  0  0  0
 40 84  1  0  0  0  0
 41 42  1  0  0  0  0
 41 85  1  0  0  0  0
 42 86  1  0  0  0  0
M  END
> <PUBCHEM_COMPOUND_CID>
508720
> <PUBCHEM_COMPOUND_CANONICALIZED>
1
> <PUBCHEM_CACTVS_COMPLEXITY>
964
> <PUBCHEM_CACTVS_HBOND_ACCEPTOR>
7
> <PUBCHEM_CACTVS_HBOND_DONOR>
3
> <PUBCHEM_CACTVS_ROTATABLE_BOND>
15
> <PUBCHEM_CACTVS_SUBSKEYS>
AAADcfB7uABAAAAAAAAAAAAAAAAAAWAAAAAwYAAAAAAAAAABQAAAHgQQSAAADSjB2AQzCYPAAgKIAiHSGHBCABAgAAAIiJmIAIiKYDKAkTGUYAAslgKYiAeYyICOEAAAAAAAAAAgAAAAAAAAAAAAAAAAAA==
> <PUBCHEM_IUPAC_OPENEYE_NAME>
(2S)-2-[isobutyl(p-tolylsulfonyl)amino]-6-[[(2S)-3-phenyl-2-(pyrrolidine-1-carbonylamino)propanoyl]amino]hexanoic acid
> <PUBCHEM_IUPAC_CAS_NAME>
(2S)-2-[(4-methylphenyl)sulfonyl-(2-methylpropyl)amino]-6-[[(2S)-1-oxo-2-[[oxo(1-pyrrolidinyl)methyl]amino]-3-phenylpropyl]amino]hexanoic acid
> <PUBCHEM_IUPAC_NAME_MARKUP>
(2<I>S</I>)-2-[(4-methylphenyl)sulfonyl-(2-methylpropyl)amino]-6-[[(2<I>S</I>)-3-phenyl-2-(pyrrolidine-1-carbonylamino)propanoyl]amino]hexanoic acid
> <PUBCHEM_IUPAC_NAME>
(2S)-2-[(4-methylphenyl)sulfonyl-(2-methylpropyl)amino]-6-[[(2S)-3-phenyl-2-(pyrrolidine-1-carbonylamino)propanoyl]amino]hexanoic acid
> <PUBCHEM_IUPAC_SYSTEMATIC_NAME>
(2S)-2-[(4-methylphenyl)sulfonyl-(2-methylpropyl)amino]-6-[[(2S)-3-phenyl-2-(pyrrolidin-1-ylcarbonylamino)propanoyl]amino]hexanoic acid
> <PUBCHEM_IUPAC_TRADITIONAL_NAME>
(2S)-2-[isobutyl(tosyl)amino]-6-[[(2S)-3-phenyl-2-(pyrrolidine-1-carbonylamino)propanoyl]amino]hexanoic acid
> <PUBCHEM_IUPAC_INCHI>
InChI=1S/C31H44N4O6S/c1-23(2)22-35(42(40,41)26-16-14-24(3)15-17-26)28(30(37)38)13-7-8-18-32-29(36)27(21-25-11-5-4-6-12-25)33-31(39)34-19-9-10-20-34/h4-6,11-12,14-17,23,27-28H,7-10,13,18-22H2,1-3H3,(H,32,36)(H,33,39)(H,37,38)/t27-,28-/m0/s1
> <PUBCHEM_IUPAC_INCHIKEY>
UTGGULVNIQUFRG-NSOVKSMOSA-N
> <PUBCHEM_XLOGP3_AA>
4.6
> <PUBCHEM_EXACT_MASS>
600.29815631
> <PUBCHEM_MOLECULAR_FORMULA>
C31H44N4O6S
> <PUBCHEM_MOLECULAR_WEIGHT>
600.8
> <PUBCHEM_OPENEYE_CAN_SMILES>
CC1=CC=C(C=C1)S(=O)(=O)N(CC(C)C)C(CCCCNC(=O)C(CC2=CC=CC=C2)NC(=O)N3CCCC3)C(=O)O
> <PUBCHEM_OPENEYE_ISO_SMILES>
CC1=CC=C(C=C1)S(=O)(=O)N(CC(C)C)[C@@H](CCCCNC(=O)[C@H](CC2=CC=CC=C2)NC(=O)N3CCCC3)C(=O)O
> <PUBCHEM_CACTVS_TPSA>
145
> <PUBCHEM_MONOISOTOPIC_WEIGHT>
600.29815631
> <PUBCHEM_TOTAL_CHARGE>
0
> <PUBCHEM_HEAVY_ATOM_COUNT>
42
> <PUBCHEM_ATOM_DEF_STEREO_COUNT>
2
> <PUBCHEM_ATOM_UDEF_STEREO_COUNT>
0
> <PUBCHEM_BOND_DEF_STEREO_COUNT>
0
> <PUBCHEM_BOND_UDEF_STEREO_COUNT>
0
> <PUBCHEM_ISOTOPIC_ATOM_COUNT>
0
> <PUBCHEM_COMPONENT_COUNT>
1
> <PUBCHEM_CACTVS_TAUTO_COUNT>
-1
> <PUBCHEM_COORDINATE_TYPE>
1
5
255
> <PUBCHEM_BONDANNOTATIONS>
24  10  5
26  31  8
26  32  8
31  34  8
32  35  8
33  37  8
33  38  8
34  36  8
35  36  8
37  40  8
38  41  8
40  42  8
41  42  8
12  8  6
$$$$
