508706
  -OEChem-10302200282D
 77 79  0     1  0  0  0  0  0999 V2000
   11.4348    2.5655    0.0000 S   0  0  0  0  0  0  0  0  0  0  0  0
    8.4993    1.9468    0.0000 O   0  0  0  0  0  0  0  0  0  0  0  0
   12.3853    2.2548    0.0000 O   0  0  0  0  0  0  0  0  0  0  0  0
   10.4843    2.8761    0.0000 O   0  0  0  0  0  0  0  0  0  0  0  0
    5.6103   -1.3172    0.0000 O   0  0  0  0  0  0  0  0  0  0  0  0
   11.1241    1.6149    0.0000 N   0  0  3  0  0  0  0  0  0  0  0  0
    7.2566   -1.8553    0.0000 N   0  0  0  0  0  0  0  0  0  0  0  0
    6.6353   -3.7563    0.0000 N   0  0  0  0  0  0  0  0  0  0  0  0
    4.6783   -5.7782    0.0000 N   0  0  0  0  0  0  0  0  0  0  0  0
   10.1456    1.4087    0.0000 C   0  0  1  0  0  0  0  0  0  0  0  0
    9.8349    0.4582    0.0000 C   0  0  0  0  0  0  0  0  0  0  0  0
   11.7920    0.8706    0.0000 C   0  0  0  0  0  0  0  0  0  0  0  0
    8.8564    0.2520    0.0000 C   0  0  0  0  0  0  0  0  0  0  0  0
   11.4813   -0.0799    0.0000 C   0  0  0  0  0  0  0  0  0  0  0  0
    9.4778    2.1530    0.0000 C   0  0  0  0  0  0  0  0  0  0  0  0
    8.5458   -0.6985    0.0000 C   0  0  0  0  0  0  0  0  0  0  0  0
   11.7454    3.5160    0.0000 C   0  0  0  0  0  0  0  0  0  0  0  0
   12.1491   -0.8242    0.0000 C   0  0  0  0  0  0  0  0  0  0  0  0
   10.5028   -0.2861    0.0000 C   0  0  0  0  0  0  0  0  0  0  0  0
    7.5673   -0.9048    0.0000 C   0  0  0  0  0  0  0  0  0  0  0  0
   12.7239    3.7222    0.0000 C   0  0  0  0  0  0  0  0  0  0  0  0
   11.0776    4.2603    0.0000 C   0  0  0  0  0  0  0  0  0  0  0  0
    5.9674   -3.0120    0.0000 C   0  0  1  0  0  0  0  0  0  0  0  0
    4.9889   -3.2182    0.0000 C   0  0  0  0  0  0  0  0  0  0  0  0
    6.2781   -2.0615    0.0000 C   0  0  0  0  0  0  0  0  0  0  0  0
    4.6783   -4.1688    0.0000 C   0  0  0  0  0  0  0  0  0  0  0  0
   13.0346    4.6727    0.0000 C   0  0  0  0  0  0  0  0  0  0  0  0
   11.3883    5.2108    0.0000 C   0  0  0  0  0  0  0  0  0  0  0  0
   12.3668    5.4170    0.0000 C   0  0  0  0  0  0  0  0  0  0  0  0
    3.7320   -4.4735    0.0000 C   0  0  0  0  0  0  0  0  0  0  0  0
    3.7320   -5.4735    0.0000 C   0  0  0  0  0  0  0  0  0  0  0  0
    5.2619   -4.9735    0.0000 C   0  0  0  0  0  0  0  0  0  0  0  0
   12.6774    6.3675    0.0000 C   0  0  0  0  0  0  0  0  0  0  0  0
    2.8660   -3.9735    0.0000 C   0  0  0  0  0  0  0  0  0  0  0  0
    2.8660   -5.9735    0.0000 C   0  0  0  0  0  0  0  0  0  0  0  0
    2.0000   -4.4735    0.0000 C   0  0  0  0  0  0  0  0  0  0  0  0
    2.0000   -5.4735    0.0000 C   0  0  0  0  0  0  0  0  0  0  0  0
   10.3382    1.9980    0.0000 H   0  0  0  0  0  0  0  0  0  0  0  0
    9.8555   -0.1615    0.0000 H   0  0  0  0  0  0  0  0  0  0  0  0
   10.4488    0.3709    0.0000 H   0  0  0  0  0  0  0  0  0  0  0  0
   12.3389    0.5786    0.0000 H   0  0  0  0  0  0  0  0  0  0  0  0
   12.1745    1.3585    0.0000 H   0  0  0  0  0  0  0  0  0  0  0  0
    8.8359    0.8716    0.0000 H   0  0  0  0  0  0  0  0  0  0  0  0
    8.2426    0.3393    0.0000 H   0  0  0  0  0  0  0  0  0  0  0  0
   11.0672    0.3816    0.0000 H   0  0  0  0  0  0  0  0  0  0  0  0
   10.0041    2.4807    0.0000 H   0  0  0  0  0  0  0  0  0  0  0  0
    9.2465    2.7283    0.0000 H   0  0  0  0  0  0  0  0  0  0  0  0
    8.5663   -1.3182    0.0000 H   0  0  0  0  0  0  0  0  0  0  0  0
    9.1596   -0.7859    0.0000 H   0  0  0  0  0  0  0  0  0  0  0  0
   11.6877   -1.2382    0.0000 H   0  0  0  0  0  0  0  0  0  0  0  0
   12.5632   -1.2856    0.0000 H   0  0  0  0  0  0  0  0  0  0  0  0
   12.6106   -0.4101    0.0000 H   0  0  0  0  0  0  0  0  0  0  0  0
   10.3749    0.3206    0.0000 H   0  0  0  0  0  0  0  0  0  0  0  0
    9.8961   -0.4140    0.0000 H   0  0  0  0  0  0  0  0  0  0  0  0
   10.6306   -0.8928    0.0000 H   0  0  0  0  0  0  0  0  0  0  0  0
    7.5467   -0.2851    0.0000 H   0  0  0  0  0  0  0  0  0  0  0  0
    6.9534   -0.8174    0.0000 H   0  0  0  0  0  0  0  0  0  0  0  0
    8.0852    2.4083    0.0000 H   0  0  0  0  0  0  0  0  0  0  0  0
    7.6707   -2.3167    0.0000 H   0  0  0  0  0  0  0  0  0  0  0  0
   13.1380    3.2607    0.0000 H   0  0  0  0  0  0  0  0  0  0  0  0
   10.4709    4.1324    0.0000 H   0  0  0  0  0  0  0  0  0  0  0  0
    5.7748   -3.6013    0.0000 H   0  0  0  0  0  0  0  0  0  0  0  0
    4.9684   -2.5986    0.0000 H   0  0  0  0  0  0  0  0  0  0  0  0
    4.3751   -3.1309    0.0000 H   0  0  0  0  0  0  0  0  0  0  0  0
   13.6413    4.8006    0.0000 H   0  0  0  0  0  0  0  0  0  0  0  0
   10.9742    5.6723    0.0000 H   0  0  0  0  0  0  0  0  0  0  0  0
    5.8819   -4.9735    0.0000 H   0  0  0  0  0  0  0  0  0  0  0  0
    7.2420   -3.6285    0.0000 H   0  0  0  0  0  0  0  0  0  0  0  0
    6.4427   -4.3456    0.0000 H   0  0  0  0  0  0  0  0  0  0  0  0
    4.8709   -6.3675    0.0000 H   0  0  0  0  0  0  0  0  0  0  0  0
   13.2667    6.1749    0.0000 H   0  0  0  0  0  0  0  0  0  0  0  0
   12.8700    6.9569    0.0000 H   0  0  0  0  0  0  0  0  0  0  0  0
   12.0881    6.5602    0.0000 H   0  0  0  0  0  0  0  0  0  0  0  0
    2.8660   -3.3535    0.0000 H   0  0  0  0  0  0  0  0  0  0  0  0
    2.8660   -6.5935    0.0000 H   0  0  0  0  0  0  0  0  0  0  0  0
    1.4631   -4.1635    0.0000 H   0  0  0  0  0  0  0  0  0  0  0  0
    1.4631   -5.7835    0.0000 H   0  0  0  0  0  0  0  0  0  0  0  0
  1  3  2  0  0  0  0
  1  4  2  0  0  0  0
  1  6  1  0  0  0  0
  1 17  1  0  0  0  0
  2 15  1  0  0  0  0
  2 58  1  0  0  0  0
  5 25  2  0  0  0  0
 10  6  1  1  0  0  0
  6 12  1  0  0  0  0
  7 20  1  0  0  0  0
  7 25  1  0  0  0  0
  7 59  1  0  0  0  0
 23  8  1  1  0  0  0
  8 68  1  0  0  0  0
  8 69  1  0  0  0  0
  9 31  1  0  0  0  0
  9 32  1  0  0  0  0
  9 70  1  0  0  0  0
 10 11  1  0  0  0  0
 10 15  1  0  0  0  0
 10 38  1  0  0  0  0
 11 13  1  0  0  0  0
 11 39  1  0  0  0  0
 11 40  1  0  0  0  0
 12 14  1  0  0  0  0
 12 41  1  0  0  0  0
 12 42  1  0  0  0  0
 13 16  1  0  0  0  0
 13 43  1  0  0  0  0
 13 44  1  0  0  0  0
 14 18  1  0  0  0  0
 14 19  1  0  0  0  0
 14 45  1  0  0  0  0
 15 46  1  0  0  0  0
 15 47  1  0  0  0  0
 16 20  1  0  0  0  0
 16 48  1  0  0  0  0
 16 49  1  0  0  0  0
 17 21  2  0  0  0  0
 17 22  1  0  0  0  0
 18 50  1  0  0  0  0
 18 51  1  0  0  0  0
 18 52  1  0  0  0  0
 19 53  1  0  0  0  0
 19 54  1  0  0  0  0
 19 55  1  0  0  0  0
 20 56  1  0  0  0  0
 20 57  1  0  0  0  0
 21 27  1  0  0  0  0
 21 60  1  0  0  0  0
 22 28  2  0  0  0  0
 22 61  1  0  0  0  0
 23 24  1  0  0  0  0
 23 25  1  0  0  0  0
 23 62  1  0  0  0  0
 24 26  1  0  0  0  0
 24 63  1  0  0  0  0
 24 64  1  0  0  0  0
 26 30  1  0  0  0  0
 26 32  2  0  0  0  0
 27 29  2  0  0  0  0
 27 65  1  0  0  0  0
 28 29  1  0  0  0  0
 28 66  1  0  0  0  0
 29 33  1  0  0  0  0
 30 31  1  0  0  0  0
 30 34  2  0  0  0  0
 31 35  2  0  0  0  0
 32 67  1  0  0  0  0
 33 71  1  0  0  0  0
 33 72  1  0  0  0  0
 33 73  1  0  0  0  0
 34 36  1  0  0  0  0
 34 74  1  0  0  0  0
 35 37  1  0  0  0  0
 35 75  1  0  0  0  0
 36 37  2  0  0  0  0
 36 76  1  0  0  0  0
 37 77  1  0  0  0  0
M  END
> <PUBCHEM_COMPOUND_CID>
508706
> <PUBCHEM_COMPOUND_CANONICALIZED>
1
> <PUBCHEM_CACTVS_COMPLEXITY>
795
> <PUBCHEM_CACTVS_HBOND_ACCEPTOR>
6
> <PUBCHEM_CACTVS_HBOND_DONOR>
4
> <PUBCHEM_CACTVS_ROTATABLE_BOND>
14
> <PUBCHEM_CACTVS_SUBSKEYS>
AAADcfB7uABAAAAAAAAAAAAAAAAAAWAAAAAwYAAAAAAAAFgB9AAAHgQQSAAADSjh3gY+wfLJkgKoAzV3VHDCgDAxAiAI2bm4ZJgKcPLAkZGUYAhklgDYyAeYycCOkAAAAAACAAAgAAAAAAQAAAAAAAAAAA==
> <PUBCHEM_IUPAC_OPENEYE_NAME>
(2S)-2-amino-N-[(5S)-6-hydroxy-5-[isobutyl(p-tolylsulfonyl)amino]hexyl]-3-(1H-indol-3-yl)propanamide
> <PUBCHEM_IUPAC_CAS_NAME>
(2S)-2-amino-N-[(5S)-6-hydroxy-5-[(4-methylphenyl)sulfonyl-(2-methylpropyl)amino]hexyl]-3-(1H-indol-3-yl)propanamide
> <PUBCHEM_IUPAC_NAME_MARKUP>
(2<I>S</I>)-2-amino-<I>N</I>-[(5<I>S</I>)-6-hydroxy-5-[(4-methylphenyl)sulfonyl-(2-methylpropyl)amino]hexyl]-3-(1<I>H</I>-indol-3-yl)propanamide
> <PUBCHEM_IUPAC_NAME>
(2S)-2-amino-N-[(5S)-6-hydroxy-5-[(4-methylphenyl)sulfonyl-(2-methylpropyl)amino]hexyl]-3-(1H-indol-3-yl)propanamide
> <PUBCHEM_IUPAC_SYSTEMATIC_NAME>
(2S)-2-azanyl-3-(1H-indol-3-yl)-N-[(5S)-5-[(4-methylphenyl)sulfonyl-(2-methylpropyl)amino]-6-oxidanyl-hexyl]propanamide
> <PUBCHEM_IUPAC_TRADITIONAL_NAME>
(2S)-2-amino-N-[(5S)-6-hydroxy-5-[isobutyl(tosyl)amino]hexyl]-3-(1H-indol-3-yl)propionamide
> <PUBCHEM_IUPAC_INCHI>
InChI=1S/C28H40N4O4S/c1-20(2)18-32(37(35,36)24-13-11-21(3)12-14-24)23(19-33)8-6-7-15-30-28(34)26(29)16-22-17-31-27-10-5-4-9-25(22)27/h4-5,9-14,17,20,23,26,31,33H,6-8,15-16,18-19,29H2,1-3H3,(H,30,34)/t23-,26-/m0/s1
> <PUBCHEM_IUPAC_INCHIKEY>
FUWQWFBQTNFXBO-OZXSUGGESA-N
> <PUBCHEM_XLOGP3_AA>
3.7
> <PUBCHEM_EXACT_MASS>
528.27702694
> <PUBCHEM_MOLECULAR_FORMULA>
C28H40N4O4S
> <PUBCHEM_MOLECULAR_WEIGHT>
528.7
> <PUBCHEM_OPENEYE_CAN_SMILES>
CC1=CC=C(C=C1)S(=O)(=O)N(CC(C)C)C(CCCCNC(=O)C(CC2=CNC3=CC=CC=C32)N)CO
> <PUBCHEM_OPENEYE_ISO_SMILES>
CC1=CC=C(C=C1)S(=O)(=O)N(CC(C)C)[C@@H](CCCCNC(=O)[C@H](CC2=CNC3=CC=CC=C32)N)CO
> <PUBCHEM_CACTVS_TPSA>
137
> <PUBCHEM_MONOISOTOPIC_WEIGHT>
528.27702694
> <PUBCHEM_TOTAL_CHARGE>
0
> <PUBCHEM_HEAVY_ATOM_COUNT>
37
> <PUBCHEM_ATOM_DEF_STEREO_COUNT>
2
> <PUBCHEM_ATOM_UDEF_STEREO_COUNT>
0
> <PUBCHEM_BOND_DEF_STEREO_COUNT>
0
> <PUBCHEM_BOND_UDEF_STEREO_COUNT>
0
> <PUBCHEM_ISOTOPIC_ATOM_COUNT>
0
> <PUBCHEM_COMPONENT_COUNT>
1
> <PUBCHEM_CACTVS_TAUTO_COUNT>
-1
> <PUBCHEM_COORDINATE_TYPE>
1
5
255
> <PUBCHEM_BONDANNOTATIONS>
17  21  8
17  22  8
21  27  8
22  28  8
26  30  8
26  32  8
27  29  8
28  29  8
30  31  8
30  34  8
31  35  8
34  36  8
35  37  8
36  37  8
10  6  5
23  8  5
9  31  8
9  32  8
$$$$
