508705
  -OEChem-10302200282D
 85 86  0     1  0  0  0  0  0999 V2000
   15.1057    9.1590    0.0000 S   0  0  0  0  0  0  0  0  0  0  0  0
    0.0000    5.9582    0.0000 F   0  0  0  0  0  0  0  0  0  0  0  0
    0.3660    7.3242    0.0000 F   0  0  0  0  0  0  0  0  0  0  0  0
    1.3660    5.5922    0.0000 F   0  0  0  0  0  0  0  0  0  0  0  0
   12.1702    8.5403    0.0000 O   0  0  0  0  0  0  0  0  0  0  0  0
   16.0562    8.8483    0.0000 O   0  0  0  0  0  0  0  0  0  0  0  0
   14.1551    9.4696    0.0000 O   0  0  0  0  0  0  0  0  0  0  0  0
    9.2812    5.2763    0.0000 O   0  0  0  0  0  0  0  0  0  0  0  0
    2.5981    6.4582    0.0000 O   0  0  0  0  0  0  0  0  0  0  0  0
    1.7320    7.9582    0.0000 O   0  0  0  0  0  0  0  0  0  0  0  0
   14.7950    8.2084    0.0000 N   0  0  3  0  0  0  0  0  0  0  0  0
   10.9275    4.7382    0.0000 N   0  0  0  0  0  0  0  0  0  0  0  0
   10.3062    2.8372    0.0000 N   0  0  0  0  0  0  0  0  0  0  0  0
    8.3492    0.8153    0.0000 N   0  0  0  0  0  0  0  0  0  0  0  0
   13.8165    8.0022    0.0000 C   0  0  1  0  0  0  0  0  0  0  0  0
   13.5058    7.0517    0.0000 C   0  0  0  0  0  0  0  0  0  0  0  0
   15.4628    7.4641    0.0000 C   0  0  0  0  0  0  0  0  0  0  0  0
   12.5273    6.8455    0.0000 C   0  0  0  0  0  0  0  0  0  0  0  0
   15.1522    6.5136    0.0000 C   0  0  0  0  0  0  0  0  0  0  0  0
   13.1487    8.7465    0.0000 C   0  0  0  0  0  0  0  0  0  0  0  0
   12.2167    5.8950    0.0000 C   0  0  0  0  0  0  0  0  0  0  0  0
   15.4163   10.1095    0.0000 C   0  0  0  0  0  0  0  0  0  0  0  0
   15.8200    5.7693    0.0000 C   0  0  0  0  0  0  0  0  0  0  0  0
   14.1737    6.3074    0.0000 C   0  0  0  0  0  0  0  0  0  0  0  0
   11.2382    5.6887    0.0000 C   0  0  0  0  0  0  0  0  0  0  0  0
   16.3948   10.3157    0.0000 C   0  0  0  0  0  0  0  0  0  0  0  0
   14.7485   10.8538    0.0000 C   0  0  0  0  0  0  0  0  0  0  0  0
    9.6383    3.5815    0.0000 C   0  0  2  0  0  0  0  0  0  0  0  0
    9.9490    4.5320    0.0000 C   0  0  0  0  0  0  0  0  0  0  0  0
    8.6598    3.3752    0.0000 C   0  0  0  0  0  0  0  0  0  0  0  0
   16.7055   11.2662    0.0000 C   0  0  0  0  0  0  0  0  0  0  0  0
   15.0591   11.8043    0.0000 C   0  0  0  0  0  0  0  0  0  0  0  0
   16.0377   12.0105    0.0000 C   0  0  0  0  0  0  0  0  0  0  0  0
    8.3492    2.4247    0.0000 C   0  0  0  0  0  0  0  0  0  0  0  0
    7.4030    2.1200    0.0000 C   0  0  0  0  0  0  0  0  0  0  0  0
    7.4030    1.1200    0.0000 C   0  0  0  0  0  0  0  0  0  0  0  0
    8.9328    1.6200    0.0000 C   0  0  0  0  0  0  0  0  0  0  0  0
   16.3483   12.9610    0.0000 C   0  0  0  0  0  0  0  0  0  0  0  0
    6.5369    2.6200    0.0000 C   0  0  0  0  0  0  0  0  0  0  0  0
    6.5369    0.6200    0.0000 C   0  0  0  0  0  0  0  0  0  0  0  0
    5.6709    2.1200    0.0000 C   0  0  0  0  0  0  0  0  0  0  0  0
    5.6709    1.1200    0.0000 C   0  0  0  0  0  0  0  0  0  0  0  0
    0.8660    6.4582    0.0000 C   0  0  0  0  0  0  0  0  0  0  0  0
    1.7320    6.9582    0.0000 C   0  0  0  0  0  0  0  0  0  0  0  0
   14.0091    8.5915    0.0000 H   0  0  0  0  0  0  0  0  0  0  0  0
   13.5264    6.4320    0.0000 H   0  0  0  0  0  0  0  0  0  0  0  0
   14.1197    6.9643    0.0000 H   0  0  0  0  0  0  0  0  0  0  0  0
   16.0098    7.1721    0.0000 H   0  0  0  0  0  0  0  0  0  0  0  0
   15.8454    7.9520    0.0000 H   0  0  0  0  0  0  0  0  0  0  0  0
   12.5068    7.4651    0.0000 H   0  0  0  0  0  0  0  0  0  0  0  0
   11.9135    6.9328    0.0000 H   0  0  0  0  0  0  0  0  0  0  0  0
   14.7381    6.9751    0.0000 H   0  0  0  0  0  0  0  0  0  0  0  0
   13.6750    9.0742    0.0000 H   0  0  0  0  0  0  0  0  0  0  0  0
   12.9174    9.3218    0.0000 H   0  0  0  0  0  0  0  0  0  0  0  0
   12.2372    5.2753    0.0000 H   0  0  0  0  0  0  0  0  0  0  0  0
   12.8305    5.8076    0.0000 H   0  0  0  0  0  0  0  0  0  0  0  0
   15.3586    5.3552    0.0000 H   0  0  0  0  0  0  0  0  0  0  0  0
   16.2341    5.3078    0.0000 H   0  0  0  0  0  0  0  0  0  0  0  0
   16.2815    6.1834    0.0000 H   0  0  0  0  0  0  0  0  0  0  0  0
   14.0458    6.9141    0.0000 H   0  0  0  0  0  0  0  0  0  0  0  0
   13.5670    6.1795    0.0000 H   0  0  0  0  0  0  0  0  0  0  0  0
   14.3015    5.7007    0.0000 H   0  0  0  0  0  0  0  0  0  0  0  0
   11.2176    6.3084    0.0000 H   0  0  0  0  0  0  0  0  0  0  0  0
   10.6243    5.7761    0.0000 H   0  0  0  0  0  0  0  0  0  0  0  0
   11.7561    9.0018    0.0000 H   0  0  0  0  0  0  0  0  0  0  0  0
   11.3416    4.2767    0.0000 H   0  0  0  0  0  0  0  0  0  0  0  0
   16.8089    9.8542    0.0000 H   0  0  0  0  0  0  0  0  0  0  0  0
   14.1418   10.7259    0.0000 H   0  0  0  0  0  0  0  0  0  0  0  0
    9.4457    2.9922    0.0000 H   0  0  0  0  0  0  0  0  0  0  0  0
    8.6393    3.9949    0.0000 H   0  0  0  0  0  0  0  0  0  0  0  0
    8.0460    3.4626    0.0000 H   0  0  0  0  0  0  0  0  0  0  0  0
   17.3122   11.3941    0.0000 H   0  0  0  0  0  0  0  0  0  0  0  0
   14.6451   12.2658    0.0000 H   0  0  0  0  0  0  0  0  0  0  0  0
    9.5528    1.6200    0.0000 H   0  0  0  0  0  0  0  0  0  0  0  0
   10.9129    2.9650    0.0000 H   0  0  0  0  0  0  0  0  0  0  0  0
   10.1136    2.2478    0.0000 H   0  0  0  0  0  0  0  0  0  0  0  0
   16.9376   12.7684    0.0000 H   0  0  0  0  0  0  0  0  0  0  0  0
   16.5409   13.5504    0.0000 H   0  0  0  0  0  0  0  0  0  0  0  0
   15.7590   13.1536    0.0000 H   0  0  0  0  0  0  0  0  0  0  0  0
    8.5418    0.2259    0.0000 H   0  0  0  0  0  0  0  0  0  0  0  0
    6.5369    3.2400    0.0000 H   0  0  0  0  0  0  0  0  0  0  0  0
    6.5369    0.0000    0.0000 H   0  0  0  0  0  0  0  0  0  0  0  0
    5.1340    2.4300    0.0000 H   0  0  0  0  0  0  0  0  0  0  0  0
    5.1340    0.8100    0.0000 H   0  0  0  0  0  0  0  0  0  0  0  0
    3.1350    6.7682    0.0000 H   0  0  0  0  0  0  0  0  0  0  0  0
  1  6  2  0  0  0  0
  1  7  2  0  0  0  0
  1 11  1  0  0  0  0
  1 22  1  0  0  0  0
  2 43  1  0  0  0  0
  3 43  1  0  0  0  0
  4 43  1  0  0  0  0
  5 20  1  0  0  0  0
  5 65  1  0  0  0  0
  8 29  2  0  0  0  0
  9 44  1  0  0  0  0
  9 85  1  0  0  0  0
 10 44  2  0  0  0  0
 15 11  1  1  0  0  0
 11 17  1  0  0  0  0
 12 25  1  0  0  0  0
 12 29  1  0  0  0  0
 12 66  1  0  0  0  0
 28 13  1  1  0  0  0
 13 75  1  0  0  0  0
 13 76  1  0  0  0  0
 14 36  1  0  0  0  0
 14 37  1  0  0  0  0
 14 80  1  0  0  0  0
 15 16  1  0  0  0  0
 15 20  1  0  0  0  0
 15 45  1  0  0  0  0
 16 18  1  0  0  0  0
 16 46  1  0  0  0  0
 16 47  1  0  0  0  0
 17 19  1  0  0  0  0
 17 48  1  0  0  0  0
 17 49  1  0  0  0  0
 18 21  1  0  0  0  0
 18 50  1  0  0  0  0
 18 51  1  0  0  0  0
 19 23  1  0  0  0  0
 19 24  1  0  0  0  0
 19 52  1  0  0  0  0
 20 53  1  0  0  0  0
 20 54  1  0  0  0  0
 21 25  1  0  0  0  0
 21 55  1  0  0  0  0
 21 56  1  0  0  0  0
 22 26  2  0  0  0  0
 22 27  1  0  0  0  0
 23 57  1  0  0  0  0
 23 58  1  0  0  0  0
 23 59  1  0  0  0  0
 24 60  1  0  0  0  0
 24 61  1  0  0  0  0
 24 62  1  0  0  0  0
 25 63  1  0  0  0  0
 25 64  1  0  0  0  0
 26 31  1  0  0  0  0
 26 67  1  0  0  0  0
 27 32  2  0  0  0  0
 27 68  1  0  0  0  0
 28 29  1  0  0  0  0
 28 30  1  0  0  0  0
 28 69  1  0  0  0  0
 30 34  1  0  0  0  0
 30 70  1  0  0  0  0
 30 71  1  0  0  0  0
 31 33  2  0  0  0  0
 31 72  1  0  0  0  0
 32 33  1  0  0  0  0
 32 73  1  0  0  0  0
 33 38  1  0  0  0  0
 34 35  1  0  0  0  0
 34 37  2  0  0  0  0
 35 36  1  0  0  0  0
 35 39  2  0  0  0  0
 36 40  2  0  0  0  0
 37 74  1  0  0  0  0
 38 77  1  0  0  0  0
 38 78  1  0  0  0  0
 38 79  1  0  0  0  0
 39 41  1  0  0  0  0
 39 81  1  0  0  0  0
 40 42  1  0  0  0  0
 40 82  1  0  0  0  0
 41 42  2  0  0  0  0
 41 83  1  0  0  0  0
 42 84  1  0  0  0  0
 43 44  1  0  0  0  0
M  END
> <PUBCHEM_COMPOUND_CID>
508705
> <PUBCHEM_COMPOUND_CANONICALIZED>
1
> <PUBCHEM_CACTVS_COMPLEXITY>
878
> <PUBCHEM_CACTVS_HBOND_ACCEPTOR>
11
> <PUBCHEM_CACTVS_HBOND_DONOR>
5
> <PUBCHEM_CACTVS_ROTATABLE_BOND>
14
> <PUBCHEM_CACTVS_SUBSKEYS>
AAADcfB7uYBAAAAAAAAAAAAAAAAAAWAAAAAwYAAAAAAAAFgB9AAAHwQQSAAADSjh3hY+yfLJkgKoAzX3XHDCgDAxAiAI2bm4ZJgKcPLAkZGUYAhklgDYyAeYycCOkAAAAAACAAAgAAAAAAQAAAAAAAAAAA==
> <PUBCHEM_IUPAC_OPENEYE_NAME>
(2S)-2-amino-N-[(5S)-6-hydroxy-5-[isobutyl(p-tolylsulfonyl)amino]hexyl]-3-(1H-indol-3-yl)propanamide;2,2,2-trifluoroacetic acid
> <PUBCHEM_IUPAC_CAS_NAME>
(2S)-2-amino-N-[(5S)-6-hydroxy-5-[(4-methylphenyl)sulfonyl-(2-methylpropyl)amino]hexyl]-3-(1H-indol-3-yl)propanamide;2,2,2-trifluoroacetic acid
> <PUBCHEM_IUPAC_NAME_MARKUP>
(2<I>S</I>)-2-amino-<I>N</I>-[(5<I>S</I>)-6-hydroxy-5-[(4-methylphenyl)sulfonyl-(2-methylpropyl)amino]hexyl]-3-(1<I>H</I>-indol-3-yl)propanamide;2,2,2-trifluoroacetic acid
> <PUBCHEM_IUPAC_NAME>
(2S)-2-amino-N-[(5S)-6-hydroxy-5-[(4-methylphenyl)sulfonyl-(2-methylpropyl)amino]hexyl]-3-(1H-indol-3-yl)propanamide;2,2,2-trifluoroacetic acid
> <PUBCHEM_IUPAC_SYSTEMATIC_NAME>
(2S)-2-azanyl-3-(1H-indol-3-yl)-N-[(5S)-5-[(4-methylphenyl)sulfonyl-(2-methylpropyl)amino]-6-oxidanyl-hexyl]propanamide;2,2,2-tris(fluoranyl)ethanoic acid
> <PUBCHEM_IUPAC_TRADITIONAL_NAME>
(2S)-2-amino-N-[(5S)-6-hydroxy-5-[isobutyl(tosyl)amino]hexyl]-3-(1H-indol-3-yl)propionamide;2,2,2-trifluoroacetic acid
> <PUBCHEM_IUPAC_INCHI>
InChI=1S/C28H40N4O4S.C2HF3O2/c1-20(2)18-32(37(35,36)24-13-11-21(3)12-14-24)23(19-33)8-6-7-15-30-28(34)26(29)16-22-17-31-27-10-5-4-9-25(22)27;3-2(4,5)1(6)7/h4-5,9-14,17,20,23,26,31,33H,6-8,15-16,18-19,29H2,1-3H3,(H,30,34);(H,6,7)/t23-,26-;/m0./s1
> <PUBCHEM_IUPAC_INCHIKEY>
MNRVXQLYSCGMKW-MHUAFMOUSA-N
> <PUBCHEM_EXACT_MASS>
642.26989070
> <PUBCHEM_MOLECULAR_FORMULA>
C30H41F3N4O6S
> <PUBCHEM_MOLECULAR_WEIGHT>
642.7
> <PUBCHEM_OPENEYE_CAN_SMILES>
CC1=CC=C(C=C1)S(=O)(=O)N(CC(C)C)C(CCCCNC(=O)C(CC2=CNC3=CC=CC=C32)N)CO.C(=O)(C(F)(F)F)O
> <PUBCHEM_OPENEYE_ISO_SMILES>
CC1=CC=C(C=C1)S(=O)(=O)N(CC(C)C)[C@@H](CCCCNC(=O)[C@H](CC2=CNC3=CC=CC=C32)N)CO.C(=O)(C(F)(F)F)O
> <PUBCHEM_CACTVS_TPSA>
174
> <PUBCHEM_MONOISOTOPIC_WEIGHT>
642.26989070
> <PUBCHEM_TOTAL_CHARGE>
0
> <PUBCHEM_HEAVY_ATOM_COUNT>
44
> <PUBCHEM_ATOM_DEF_STEREO_COUNT>
2
> <PUBCHEM_ATOM_UDEF_STEREO_COUNT>
0
> <PUBCHEM_BOND_DEF_STEREO_COUNT>
0
> <PUBCHEM_BOND_UDEF_STEREO_COUNT>
0
> <PUBCHEM_ISOTOPIC_ATOM_COUNT>
0
> <PUBCHEM_COMPONENT_COUNT>
2
> <PUBCHEM_CACTVS_TAUTO_COUNT>
-1
> <PUBCHEM_COORDINATE_TYPE>
1
5
255
> <PUBCHEM_BONDANNOTATIONS>
15  11  5
28  13  5
14  36  8
14  37  8
22  26  8
22  27  8
26  31  8
27  32  8
31  33  8
32  33  8
34  35  8
34  37  8
35  36  8
35  39  8
36  40  8
39  41  8
40  42  8
41  42  8
$$$$
