508849
  -OEChem-10302200282D
 53 55  0     1  0  0  0  0  0999 V2000
    7.4062    7.2510    0.0000 Cl  0  0  0  0  0  0  0  0  0  0  0  0
    6.0010   -6.2510    0.0000 F   0  0  0  0  0  0  0  0  0  0  0  0
    4.2690   -7.2510    0.0000 F   0  0  0  0  0  0  0  0  0  0  0  0
    6.8671   -1.7510    0.0000 O   0  0  0  0  0  0  0  0  0  0  0  0
    3.4030   -2.7510    0.0000 O   0  0  0  0  0  0  0  0  0  0  0  0
    6.3671    2.7878    0.0000 N   0  0  3  0  0  0  0  0  0  0  0  0
    6.0010   -0.2510    0.0000 N   0  0  0  0  0  0  0  0  0  0  0  0
    5.1350   -2.7510    0.0000 N   0  0  0  0  0  0  0  0  0  0  0  0
    2.5369   -4.2510    0.0000 N   0  0  0  0  0  0  0  0  0  0  0  0
    6.8671    1.2490    0.0000 C   0  0  3  0  0  0  0  0  0  0  0  0
    7.6761    1.8368    0.0000 C   0  0  0  0  0  0  0  0  0  0  0  0
    6.0580    1.8368    0.0000 C   0  0  0  0  0  0  0  0  0  0  0  0
    7.3671    2.7878    0.0000 C   0  0  0  0  0  0  0  0  0  0  0  0
    6.8671    0.2490    0.0000 C   0  0  0  0  0  0  0  0  0  0  0  0
    5.7793    3.5968    0.0000 C   0  0  0  0  0  0  0  0  0  0  0  0
    6.1860    4.5104    0.0000 C   0  0  0  0  0  0  0  0  0  0  0  0
    6.0010   -1.2510    0.0000 C   0  0  0  0  0  0  0  0  0  0  0  0
    5.5982    5.3194    0.0000 C   0  0  0  0  0  0  0  0  0  0  0  0
    7.1805    4.6149    0.0000 C   0  0  0  0  0  0  0  0  0  0  0  0
    5.1350   -1.7510    0.0000 C   0  0  0  0  0  0  0  0  0  0  0  0
    6.0050    6.2330    0.0000 C   0  0  0  0  0  0  0  0  0  0  0  0
    7.5873    5.5285    0.0000 C   0  0  0  0  0  0  0  0  0  0  0  0
    6.9995    6.3375    0.0000 C   0  0  0  0  0  0  0  0  0  0  0  0
    4.2690   -3.2510    0.0000 C   0  0  0  0  0  0  0  0  0  0  0  0
    4.2690   -4.2510    0.0000 C   0  0  0  0  0  0  0  0  0  0  0  0
    3.4030   -4.7510    0.0000 C   0  0  0  0  0  0  0  0  0  0  0  0
    5.1350   -4.7510    0.0000 C   0  0  0  0  0  0  0  0  0  0  0  0
    3.4030   -5.7510    0.0000 C   0  0  0  0  0  0  0  0  0  0  0  0
    5.1350   -5.7510    0.0000 C   0  0  0  0  0  0  0  0  0  0  0  0
    4.2690   -6.2510    0.0000 C   0  0  0  0  0  0  0  0  0  0  0  0
    6.3146    0.9675    0.0000 H   0  0  0  0  0  0  0  0  0  0  0  0
    7.9861    1.2998    0.0000 H   0  0  0  0  0  0  0  0  0  0  0  0
    8.2425    2.0889    0.0000 H   0  0  0  0  0  0  0  0  0  0  0  0
    5.4916    2.0889    0.0000 H   0  0  0  0  0  0  0  0  0  0  0  0
    5.7480    1.2998    0.0000 H   0  0  0  0  0  0  0  0  0  0  0  0
    7.9735    2.9167    0.0000 H   0  0  0  0  0  0  0  0  0  0  0  0
    7.3022    3.4044    0.0000 H   0  0  0  0  0  0  0  0  0  0  0  0
    7.0791   -0.3336    0.0000 H   0  0  0  0  0  0  0  0  0  0  0  0
    7.4776    0.3566    0.0000 H   0  0  0  0  0  0  0  0  0  0  0  0
    5.2653    3.9435    0.0000 H   0  0  0  0  0  0  0  0  0  0  0  0
    5.3486    3.1508    0.0000 H   0  0  0  0  0  0  0  0  0  0  0  0
    5.4641    0.0590    0.0000 H   0  0  0  0  0  0  0  0  0  0  0  0
    4.9816    5.2546    0.0000 H   0  0  0  0  0  0  0  0  0  0  0  0
    7.5450    4.1133    0.0000 H   0  0  0  0  0  0  0  0  0  0  0  0
    4.9230   -1.1684    0.0000 H   0  0  0  0  0  0  0  0  0  0  0  0
    4.5244   -1.8587    0.0000 H   0  0  0  0  0  0  0  0  0  0  0  0
    5.6405    6.7345    0.0000 H   0  0  0  0  0  0  0  0  0  0  0  0
    8.2039    5.5933    0.0000 H   0  0  0  0  0  0  0  0  0  0  0  0
    5.6720   -3.0610    0.0000 H   0  0  0  0  0  0  0  0  0  0  0  0
    5.6720   -4.4410    0.0000 H   0  0  0  0  0  0  0  0  0  0  0  0
    2.8660   -6.0610    0.0000 H   0  0  0  0  0  0  0  0  0  0  0  0
    2.0000   -4.5610    0.0000 H   0  0  0  0  0  0  0  0  0  0  0  0
    2.5369   -3.6310    0.0000 H   0  0  0  0  0  0  0  0  0  0  0  0
  1 23  1  0  0  0  0
  2 29  1  0  0  0  0
  3 30  1  0  0  0  0
  4 17  2  0  0  0  0
  5 24  2  0  0  0  0
  6 12  1  0  0  0  0
  6 13  1  0  0  0  0
  6 15  1  0  0  0  0
  7 14  1  0  0  0  0
  7 17  1  0  0  0  0
  7 42  1  0  0  0  0
  8 20  1  0  0  0  0
  8 24  1  0  0  0  0
  8 49  1  0  0  0  0
  9 26  1  0  0  0  0
  9 52  1  0  0  0  0
  9 53  1  0  0  0  0
 10 11  1  0  0  0  0
 10 12  1  0  0  0  0
 10 14  1  0  0  0  0
 10 31  1  0  0  0  0
 11 13  1  0  0  0  0
 11 32  1  0  0  0  0
 11 33  1  0  0  0  0
 12 34  1  0  0  0  0
 12 35  1  0  0  0  0
 13 36  1  0  0  0  0
 13 37  1  0  0  0  0
 14 38  1  0  0  0  0
 14 39  1  0  0  0  0
 15 16  1  0  0  0  0
 15 40  1  0  0  0  0
 15 41  1  0  0  0  0
 16 18  2  0  0  0  0
 16 19  1  0  0  0  0
 17 20  1  0  0  0  0
 18 21  1  0  0  0  0
 18 43  1  0  0  0  0
 19 22  2  0  0  0  0
 19 44  1  0  0  0  0
 20 45  1  0  0  0  0
 20 46  1  0  0  0  0
 21 23  2  0  0  0  0
 21 47  1  0  0  0  0
 22 23  1  0  0  0  0
 22 48  1  0  0  0  0
 24 25  1  0  0  0  0
 25 26  1  0  0  0  0
 25 27  2  0  0  0  0
 26 28  2  0  0  0  0
 27 29  1  0  0  0  0
 27 50  1  0  0  0  0
 28 30  1  0  0  0  0
 28 51  1  0  0  0  0
 29 30  2  0  0  0  0
M  END
> <PUBCHEM_COMPOUND_CID>
508849
> <PUBCHEM_COMPOUND_CANONICALIZED>
1
> <PUBCHEM_CACTVS_COMPLEXITY>
591
> <PUBCHEM_CACTVS_HBOND_ACCEPTOR>
6
> <PUBCHEM_CACTVS_HBOND_DONOR>
3
> <PUBCHEM_CACTVS_ROTATABLE_BOND>
7
> <PUBCHEM_CACTVS_SUBSKEYS>
AAADceB7sYAEAAAAAAAAAAAAAAAAAWAAAAAwYAAAAAAAAAABQAAAHwIQAAAADQrBmCwwwIPAAACIAiVSUACCAAAkBwAIiIGIZsgIYDqB17GUIYhglgCIyccYiACOBAAAAAACAAAIAAAAAAQAAAAAAAAAAA==
> <PUBCHEM_IUPAC_OPENEYE_NAME>
2-amino-N-[2-[[1-[(4-chlorophenyl)methyl]pyrrolidin-3-yl]methylamino]-2-oxo-ethyl]-4,5-difluoro-benzamide
> <PUBCHEM_IUPAC_CAS_NAME>
2-amino-N-[2-[[1-[(4-chlorophenyl)methyl]-3-pyrrolidinyl]methylamino]-2-oxoethyl]-4,5-difluorobenzamide
> <PUBCHEM_IUPAC_NAME_MARKUP>
2-amino-<I>N</I>-[2-[[1-[(4-chlorophenyl)methyl]pyrrolidin-3-yl]methylamino]-2-oxoethyl]-4,5-difluorobenzamide
> <PUBCHEM_IUPAC_NAME>
2-amino-N-[2-[[1-[(4-chlorophenyl)methyl]pyrrolidin-3-yl]methylamino]-2-oxoethyl]-4,5-difluorobenzamide
> <PUBCHEM_IUPAC_SYSTEMATIC_NAME>
2-azanyl-N-[2-[[1-[(4-chlorophenyl)methyl]pyrrolidin-3-yl]methylamino]-2-oxidanylidene-ethyl]-4,5-bis(fluoranyl)benzamide
> <PUBCHEM_IUPAC_TRADITIONAL_NAME>
2-amino-N-[2-[[1-(4-chlorobenzyl)pyrrolidin-3-yl]methylamino]-2-keto-ethyl]-4,5-difluoro-benzamide
> <PUBCHEM_IUPAC_INCHI>
InChI=1S/C21H23ClF2N4O2/c22-15-3-1-13(2-4-15)11-28-6-5-14(12-28)9-26-20(29)10-27-21(30)16-7-17(23)18(24)8-19(16)25/h1-4,7-8,14H,5-6,9-12,25H2,(H,26,29)(H,27,30)
> <PUBCHEM_IUPAC_INCHIKEY>
KYARXIKYALKCTG-UHFFFAOYSA-N
> <PUBCHEM_XLOGP3_AA>
3.2
> <PUBCHEM_EXACT_MASS>
436.1477600
> <PUBCHEM_MOLECULAR_FORMULA>
C21H23ClF2N4O2
> <PUBCHEM_MOLECULAR_WEIGHT>
436.9
> <PUBCHEM_OPENEYE_CAN_SMILES>
C1CN(CC1CNC(=O)CNC(=O)C2=CC(=C(C=C2N)F)F)CC3=CC=C(C=C3)Cl
> <PUBCHEM_OPENEYE_ISO_SMILES>
C1CN(CC1CNC(=O)CNC(=O)C2=CC(=C(C=C2N)F)F)CC3=CC=C(C=C3)Cl
> <PUBCHEM_CACTVS_TPSA>
87.5
> <PUBCHEM_MONOISOTOPIC_WEIGHT>
436.1477600
> <PUBCHEM_TOTAL_CHARGE>
0
> <PUBCHEM_HEAVY_ATOM_COUNT>
30
> <PUBCHEM_ATOM_DEF_STEREO_COUNT>
0
> <PUBCHEM_ATOM_UDEF_STEREO_COUNT>
1
> <PUBCHEM_BOND_DEF_STEREO_COUNT>
0
> <PUBCHEM_BOND_UDEF_STEREO_COUNT>
0
> <PUBCHEM_ISOTOPIC_ATOM_COUNT>
0
> <PUBCHEM_COMPONENT_COUNT>
1
> <PUBCHEM_CACTVS_TAUTO_COUNT>
-1
> <PUBCHEM_COORDINATE_TYPE>
1
5
255
> <PUBCHEM_BONDANNOTATIONS>
10  14  3
16  18  8
16  19  8
18  21  8
19  22  8
21  23  8
22  23  8
25  26  8
25  27  8
26  28  8
27  29  8
28  30  8
29  30  8
$$$$
