508857
  -OEChem-10302200282D
 57 59  0     1  0  0  0  0  0999 V2000
    9.1996   -0.3807    0.0000 O   0  0  0  0  0  0  0  0  0  0  0  0
   11.7976    2.1193    0.0000 O   0  0  0  0  0  0  0  0  0  0  0  0
   15.2617    1.1193    0.0000 O   0  0  0  0  0  0  0  0  0  0  0  0
   14.3957    2.6193    0.0000 O   0  5  0  0  0  0  0  0  0  0  0  0
   12.6637    2.6193    0.0000 O   0  0  0  0  0  0  0  0  0  0  0  0
    6.3848   -0.5831    0.0000 N   0  0  3  0  0  0  0  0  0  0  0  0
    8.3335    1.1193    0.0000 N   0  0  0  0  0  0  0  0  0  0  0  0
   10.9316    0.6193    0.0000 N   0  0  0  0  0  0  0  0  0  0  0  0
   13.5297    2.1193    0.0000 N   0  3  0  0  0  0  0  0  0  0  0  0
    7.4675    0.6193    0.0000 C   0  0  2  0  0  0  0  0  0  0  0  0
    6.5540    1.0260    0.0000 C   0  0  0  0  0  0  0  0  0  0  0  0
    7.3630   -0.3752    0.0000 C   0  0  0  0  0  0  0  0  0  0  0  0
    5.8848    0.2829    0.0000 C   0  0  0  0  0  0  0  0  0  0  0  0
    5.9781   -1.4967    0.0000 C   0  0  0  0  0  0  0  0  0  0  0  0
    4.9836   -1.6012    0.0000 C   0  0  0  0  0  0  0  0  0  0  0  0
    9.1996    0.6193    0.0000 C   0  0  0  0  0  0  0  0  0  0  0  0
    4.3958   -0.7922    0.0000 C   0  0  0  0  0  0  0  0  0  0  0  0
    4.5768   -2.5148    0.0000 C   0  0  0  0  0  0  0  0  0  0  0  0
   10.0656    1.1193    0.0000 C   0  0  0  0  0  0  0  0  0  0  0  0
    3.4013   -0.8967    0.0000 C   0  0  0  0  0  0  0  0  0  0  0  0
    3.5823   -2.6193    0.0000 C   0  0  0  0  0  0  0  0  0  0  0  0
    2.9945   -1.8103    0.0000 C   0  0  0  0  0  0  0  0  0  0  0  0
    2.0000   -1.9148    0.0000 C   0  0  0  0  0  0  0  0  0  0  0  0
   11.7976    1.1193    0.0000 C   0  0  0  0  0  0  0  0  0  0  0  0
   12.6637    0.6193    0.0000 C   0  0  0  0  0  0  0  0  0  0  0  0
   13.5297    1.1193    0.0000 C   0  0  0  0  0  0  0  0  0  0  0  0
   12.6637   -0.3807    0.0000 C   0  0  0  0  0  0  0  0  0  0  0  0
   14.3957    0.6193    0.0000 C   0  0  0  0  0  0  0  0  0  0  0  0
   13.5297   -0.8807    0.0000 C   0  0  0  0  0  0  0  0  0  0  0  0
   14.3957   -0.3807    0.0000 C   0  0  0  0  0  0  0  0  0  0  0  0
   16.1278    0.6193    0.0000 C   0  0  0  0  0  0  0  0  0  0  0  0
    7.4350    1.2384    0.0000 H   0  0  0  0  0  0  0  0  0  0  0  0
    6.8640    1.5630    0.0000 H   0  0  0  0  0  0  0  0  0  0  0  0
    6.0524    1.3904    0.0000 H   0  0  0  0  0  0  0  0  0  0  0  0
    7.4278   -0.9918    0.0000 H   0  0  0  0  0  0  0  0  0  0  0  0
    7.9830   -0.3752    0.0000 H   0  0  0  0  0  0  0  0  0  0  0  0
    5.4700    0.7436    0.0000 H   0  0  0  0  0  0  0  0  0  0  0  0
    5.3832   -0.0815    0.0000 H   0  0  0  0  0  0  0  0  0  0  0  0
    5.9348   -2.1152    0.0000 H   0  0  0  0  0  0  0  0  0  0  0  0
    6.5797   -1.6467    0.0000 H   0  0  0  0  0  0  0  0  0  0  0  0
    8.3335    1.7393    0.0000 H   0  0  0  0  0  0  0  0  0  0  0  0
    4.6480   -0.2258    0.0000 H   0  0  0  0  0  0  0  0  0  0  0  0
    4.9413   -3.0164    0.0000 H   0  0  0  0  0  0  0  0  0  0  0  0
   10.4641    1.5942    0.0000 H   0  0  0  0  0  0  0  0  0  0  0  0
    9.6670    1.5942    0.0000 H   0  0  0  0  0  0  0  0  0  0  0  0
    3.0368   -0.3951    0.0000 H   0  0  0  0  0  0  0  0  0  0  0  0
    3.3301   -3.1857    0.0000 H   0  0  0  0  0  0  0  0  0  0  0  0
   10.9316   -0.0007    0.0000 H   0  0  0  0  0  0  0  0  0  0  0  0
    1.9352   -1.2982    0.0000 H   0  0  0  0  0  0  0  0  0  0  0  0
    1.3834   -1.9796    0.0000 H   0  0  0  0  0  0  0  0  0  0  0  0
    2.0648   -2.5314    0.0000 H   0  0  0  0  0  0  0  0  0  0  0  0
   12.1267   -0.6907    0.0000 H   0  0  0  0  0  0  0  0  0  0  0  0
   13.5297   -1.5007    0.0000 H   0  0  0  0  0  0  0  0  0  0  0  0
   14.9326   -0.6907    0.0000 H   0  0  0  0  0  0  0  0  0  0  0  0
   15.8178    0.0824    0.0000 H   0  0  0  0  0  0  0  0  0  0  0  0
   16.6647    0.3093    0.0000 H   0  0  0  0  0  0  0  0  0  0  0  0
   16.4378    1.1562    0.0000 H   0  0  0  0  0  0  0  0  0  0  0  0
  1 16  2  0  0  0  0
  2 24  2  0  0  0  0
  3 28  1  0  0  0  0
  3 31  1  0  0  0  0
  4  9  1  0  0  0  0
  5  9  2  0  0  0  0
  6 12  1  0  0  0  0
  6 13  1  0  0  0  0
  6 14  1  0  0  0  0
 10  7  1  1  0  0  0
  7 16  1  0  0  0  0
  7 41  1  0  0  0  0
  8 19  1  0  0  0  0
  8 24  1  0  0  0  0
  8 48  1  0  0  0  0
  9 26  1  0  0  0  0
 10 11  1  0  0  0  0
 10 12  1  0  0  0  0
 10 32  1  0  0  0  0
 11 13  1  0  0  0  0
 11 33  1  0  0  0  0
 11 34  1  0  0  0  0
 12 35  1  0  0  0  0
 12 36  1  0  0  0  0
 13 37  1  0  0  0  0
 13 38  1  0  0  0  0
 14 15  1  0  0  0  0
 14 39  1  0  0  0  0
 14 40  1  0  0  0  0
 15 17  2  0  0  0  0
 15 18  1  0  0  0  0
 16 19  1  0  0  0  0
 17 20  1  0  0  0  0
 17 42  1  0  0  0  0
 18 21  2  0  0  0  0
 18 43  1  0  0  0  0
 19 44  1  0  0  0  0
 19 45  1  0  0  0  0
 20 22  2  0  0  0  0
 20 46  1  0  0  0  0
 21 22  1  0  0  0  0
 21 47  1  0  0  0  0
 22 23  1  0  0  0  0
 23 49  1  0  0  0  0
 23 50  1  0  0  0  0
 23 51  1  0  0  0  0
 24 25  1  0  0  0  0
 25 26  2  0  0  0  0
 25 27  1  0  0  0  0
 26 28  1  0  0  0  0
 27 29  2  0  0  0  0
 27 52  1  0  0  0  0
 28 30  2  0  0  0  0
 29 30  1  0  0  0  0
 29 53  1  0  0  0  0
 30 54  1  0  0  0  0
 31 55  1  0  0  0  0
 31 56  1  0  0  0  0
 31 57  1  0  0  0  0
M  CHG  2   4  -1   9   1
M  END
> <PUBCHEM_COMPOUND_CID>
508857
> <PUBCHEM_COMPOUND_CANONICALIZED>
1
> <PUBCHEM_CACTVS_COMPLEXITY>
632
> <PUBCHEM_CACTVS_HBOND_ACCEPTOR>
6
> <PUBCHEM_CACTVS_HBOND_DONOR>
2
> <PUBCHEM_CACTVS_ROTATABLE_BOND>
7
> <PUBCHEM_CACTVS_SUBSKEYS>
AAADceB7uAAAAAAAAAAAAAAAAAAAAWAAAAAwYAAAAAAAAAABQAAAHgAUAAAADCzBmAYyxoPQRACJAiVSUwCCCAAkIAAoiIGPTMoOZjqE9buVMahk1lGI6ce6yBCOQAABAAACEACAAAIAAAQgAAAAAAAAAA==
> <PUBCHEM_IUPAC_OPENEYE_NAME>
3-methoxy-2-nitro-N-[2-oxo-2-[[(3R)-1-(p-tolylmethyl)pyrrolidin-3-yl]amino]ethyl]benzamide
> <PUBCHEM_IUPAC_CAS_NAME>
3-methoxy-N-[2-[[(3R)-1-[(4-methylphenyl)methyl]-3-pyrrolidinyl]amino]-2-oxoethyl]-2-nitrobenzamide
> <PUBCHEM_IUPAC_NAME_MARKUP>
3-methoxy-<I>N</I>-[2-[[(3<I>R</I>)-1-[(4-methylphenyl)methyl]pyrrolidin-3-yl]amino]-2-oxoethyl]-2-nitrobenzamide
> <PUBCHEM_IUPAC_NAME>
3-methoxy-N-[2-[[(3R)-1-[(4-methylphenyl)methyl]pyrrolidin-3-yl]amino]-2-oxoethyl]-2-nitrobenzamide
> <PUBCHEM_IUPAC_SYSTEMATIC_NAME>
3-methoxy-N-[2-[[(3R)-1-[(4-methylphenyl)methyl]pyrrolidin-3-yl]amino]-2-oxidanylidene-ethyl]-2-nitro-benzamide
> <PUBCHEM_IUPAC_TRADITIONAL_NAME>
N-[2-keto-2-[[(3R)-1-(4-methylbenzyl)pyrrolidin-3-yl]amino]ethyl]-3-methoxy-2-nitro-benzamide
> <PUBCHEM_IUPAC_INCHI>
InChI=1S/C22H26N4O5/c1-15-6-8-16(9-7-15)13-25-11-10-17(14-25)24-20(27)12-23-22(28)18-4-3-5-19(31-2)21(18)26(29)30/h3-9,17H,10-14H2,1-2H3,(H,23,28)(H,24,27)/t17-/m1/s1
> <PUBCHEM_IUPAC_INCHIKEY>
ADSCNNNSOCQOHF-QGZVFWFLSA-N
> <PUBCHEM_XLOGP3_AA>
2.4
> <PUBCHEM_EXACT_MASS>
426.19031994
> <PUBCHEM_MOLECULAR_FORMULA>
C22H26N4O5
> <PUBCHEM_MOLECULAR_WEIGHT>
426.5
> <PUBCHEM_OPENEYE_CAN_SMILES>
CC1=CC=C(C=C1)CN2CCC(C2)NC(=O)CNC(=O)C3=C(C(=CC=C3)OC)[N+](=O)[O-]
> <PUBCHEM_OPENEYE_ISO_SMILES>
CC1=CC=C(C=C1)CN2CC[C@H](C2)NC(=O)CNC(=O)C3=C(C(=CC=C3)OC)[N+](=O)[O-]
> <PUBCHEM_CACTVS_TPSA>
117
> <PUBCHEM_MONOISOTOPIC_WEIGHT>
426.19031994
> <PUBCHEM_TOTAL_CHARGE>
0
> <PUBCHEM_HEAVY_ATOM_COUNT>
31
> <PUBCHEM_ATOM_DEF_STEREO_COUNT>
1
> <PUBCHEM_ATOM_UDEF_STEREO_COUNT>
0
> <PUBCHEM_BOND_DEF_STEREO_COUNT>
0
> <PUBCHEM_BOND_UDEF_STEREO_COUNT>
0
> <PUBCHEM_ISOTOPIC_ATOM_COUNT>
0
> <PUBCHEM_COMPONENT_COUNT>
1
> <PUBCHEM_CACTVS_TAUTO_COUNT>
-1
> <PUBCHEM_COORDINATE_TYPE>
1
5
255
> <PUBCHEM_BONDANNOTATIONS>
15  17  8
15  18  8
17  20  8
18  21  8
20  22  8
21  22  8
25  26  8
25  27  8
26  28  8
27  29  8
28  30  8
29  30  8
10  7  5
$$$$
