508896
  -OEChem-10302200282D
 55 58  0     1  0  0  0  0  0999 V2000
    7.5892    0.7431    0.0000 O   0  0  0  0  0  0  0  0  0  0  0  0
   14.7578    3.0022    0.0000 O   0  0  0  0  0  0  0  0  0  0  0  0
   14.7578    1.3928    0.0000 O   0  0  0  0  0  0  0  0  0  0  0  0
    4.1989    1.9702    0.0000 O   0  0  0  0  0  0  0  0  0  0  0  0
    3.6558   -3.1975    0.0000 O   0  5  0  0  0  0  0  0  0  0  0  0
    5.2381   -2.4930    0.0000 O   0  0  0  0  0  0  0  0  0  0  0  0
   10.3475    2.6975    0.0000 N   0  0  3  0  0  0  0  0  0  0  0  0
    7.7703    2.4656    0.0000 N   0  0  0  0  0  0  0  0  0  0  0  0
    5.6002    0.9521    0.0000 N   0  0  0  0  0  0  0  0  0  0  0  0
    2.6166    1.2657    0.0000 N   0  0  0  0  0  0  0  0  0  0  0  0
    4.2436   -2.3885    0.0000 N   0  3  0  0  0  0  0  0  0  0  0  0
    8.7648    2.3611    0.0000 C   0  0  2  0  0  0  0  0  0  0  0  0
    9.2648    1.4951    0.0000 C   0  0  0  0  0  0  0  0  0  0  0  0
    9.4339    3.1042    0.0000 C   0  0  0  0  0  0  0  0  0  0  0  0
   10.2429    1.7030    0.0000 C   0  0  0  0  0  0  0  0  0  0  0  0
   11.2135    3.1975    0.0000 C   0  0  0  0  0  0  0  0  0  0  0  0
   12.0795    2.6975    0.0000 C   0  0  0  0  0  0  0  0  0  0  0  0
    7.1825    1.6566    0.0000 C   0  0  0  0  0  0  0  0  0  0  0  0
   12.9455    3.1975    0.0000 C   0  0  0  0  0  0  0  0  0  0  0  0
   12.0795    1.6975    0.0000 C   0  0  0  0  0  0  0  0  0  0  0  0
    6.1880    1.7611    0.0000 C   0  0  0  0  0  0  0  0  0  0  0  0
   13.8116    2.6975    0.0000 C   0  0  0  0  0  0  0  0  0  0  0  0
   12.9455    1.1975    0.0000 C   0  0  0  0  0  0  0  0  0  0  0  0
   13.8116    1.6975    0.0000 C   0  0  0  0  0  0  0  0  0  0  0  0
   15.3414    2.1975    0.0000 C   0  0  0  0  0  0  0  0  0  0  0  0
    4.6056    1.0566    0.0000 C   0  0  0  0  0  0  0  0  0  0  0  0
    4.0179    0.2476    0.0000 C   0  0  0  0  0  0  0  0  0  0  0  0
    3.0233    0.3522    0.0000 C   0  0  0  0  0  0  0  0  0  0  0  0
    4.4246   -0.6659    0.0000 C   0  0  0  0  0  0  0  0  0  0  0  0
    3.8368   -1.4749    0.0000 C   0  0  0  0  0  0  0  0  0  0  0  0
    2.4356   -0.4569    0.0000 C   0  0  0  0  0  0  0  0  0  0  0  0
    2.8423   -1.3704    0.0000 C   0  0  0  0  0  0  0  0  0  0  0  0
    8.4271    1.8411    0.0000 H   0  0  0  0  0  0  0  0  0  0  0  0
    9.7439    3.6412    0.0000 H   0  0  0  0  0  0  0  0  0  0  0  0
    8.9323    3.4687    0.0000 H   0  0  0  0  0  0  0  0  0  0  0  0
    8.6984    1.2429    0.0000 H   0  0  0  0  0  0  0  0  0  0  0  0
    9.4564    0.9054    0.0000 H   0  0  0  0  0  0  0  0  0  0  0  0
   10.3077    1.0864    0.0000 H   0  0  0  0  0  0  0  0  0  0  0  0
   10.8629    1.7030    0.0000 H   0  0  0  0  0  0  0  0  0  0  0  0
   11.6120    3.6724    0.0000 H   0  0  0  0  0  0  0  0  0  0  0  0
   10.8150    3.6724    0.0000 H   0  0  0  0  0  0  0  0  0  0  0  0
    7.5181    3.0320    0.0000 H   0  0  0  0  0  0  0  0  0  0  0  0
   12.9455    3.8175    0.0000 H   0  0  0  0  0  0  0  0  0  0  0  0
   11.5426    1.3875    0.0000 H   0  0  0  0  0  0  0  0  0  0  0  0
    6.3588    2.3571    0.0000 H   0  0  0  0  0  0  0  0  0  0  0  0
    5.6307    2.0329    0.0000 H   0  0  0  0  0  0  0  0  0  0  0  0
   12.9455    0.5775    0.0000 H   0  0  0  0  0  0  0  0  0  0  0  0
    5.8524    0.3857    0.0000 H   0  0  0  0  0  0  0  0  0  0  0  0
   15.8023    1.7828    0.0000 H   0  0  0  0  0  0  0  0  0  0  0  0
   15.8023    2.6122    0.0000 H   0  0  0  0  0  0  0  0  0  0  0  0
    5.0412   -0.7307    0.0000 H   0  0  0  0  0  0  0  0  0  0  0  0
    1.8190   -0.3921    0.0000 H   0  0  0  0  0  0  0  0  0  0  0  0
    2.4779   -1.8720    0.0000 H   0  0  0  0  0  0  0  0  0  0  0  0
    2.0000    1.3305    0.0000 H   0  0  0  0  0  0  0  0  0  0  0  0
    2.9810    1.7673    0.0000 H   0  0  0  0  0  0  0  0  0  0  0  0
  1 18  2  0  0  0  0
  2 22  1  0  0  0  0
  2 25  1  0  0  0  0
  3 24  1  0  0  0  0
  3 25  1  0  0  0  0
  4 26  2  0  0  0  0
  5 11  1  0  0  0  0
  6 11  2  0  0  0  0
  7 14  1  0  0  0  0
  7 15  1  0  0  0  0
  7 16  1  0  0  0  0
 12  8  1  1  0  0  0
  8 18  1  0  0  0  0
  8 42  1  0  0  0  0
  9 21  1  0  0  0  0
  9 26  1  0  0  0  0
  9 48  1  0  0  0  0
 10 28  1  0  0  0  0
 10 54  1  0  0  0  0
 10 55  1  0  0  0  0
 11 30  1  0  0  0  0
 12 13  1  0  0  0  0
 12 14  1  0  0  0  0
 12 33  1  0  0  0  0
 13 15  1  0  0  0  0
 13 36  1  0  0  0  0
 13 37  1  0  0  0  0
 14 34  1  0  0  0  0
 14 35  1  0  0  0  0
 15 38  1  0  0  0  0
 15 39  1  0  0  0  0
 16 17  1  0  0  0  0
 16 40  1  0  0  0  0
 16 41  1  0  0  0  0
 17 19  2  0  0  0  0
 17 20  1  0  0  0  0
 18 21  1  0  0  0  0
 19 22  1  0  0  0  0
 19 43  1  0  0  0  0
 20 23  2  0  0  0  0
 20 44  1  0  0  0  0
 21 45  1  0  0  0  0
 21 46  1  0  0  0  0
 22 24  2  0  0  0  0
 23 24  1  0  0  0  0
 23 47  1  0  0  0  0
 25 49  1  0  0  0  0
 25 50  1  0  0  0  0
 26 27  1  0  0  0  0
 27 28  2  0  0  0  0
 27 29  1  0  0  0  0
 28 31  1  0  0  0  0
 29 30  2  0  0  0  0
 29 51  1  0  0  0  0
 30 32  1  0  0  0  0
 31 32  2  0  0  0  0
 31 52  1  0  0  0  0
 32 53  1  0  0  0  0
M  CHG  2   5  -1  11   1
M  END
> <PUBCHEM_COMPOUND_CID>
508896
> <PUBCHEM_COMPOUND_CANONICALIZED>
1
> <PUBCHEM_CACTVS_COMPLEXITY>
703
> <PUBCHEM_CACTVS_HBOND_ACCEPTOR>
8
> <PUBCHEM_CACTVS_HBOND_DONOR>
3
> <PUBCHEM_CACTVS_ROTATABLE_BOND>
6
> <PUBCHEM_CACTVS_SUBSKEYS>
AAADceB7uAAAAAAAAAAAAAAAAAAAAWJAAAAwYAAAAAAAAEgBQAAAHgAUAAAADCzBmAcwzoPQRACJAiVSUwCCCAAkIgAoiIGO7ModZjqE9bu0Mapk1hGO6ce82BKOIACBQAACQABAAQKAAASAAAAAAAAAAA==
> <PUBCHEM_IUPAC_OPENEYE_NAME>
2-amino-N-[2-[[(3R)-1-(1,3-benzodioxol-5-ylmethyl)pyrrolidin-3-yl]amino]-2-oxo-ethyl]-5-nitro-benzamide
> <PUBCHEM_IUPAC_CAS_NAME>
2-amino-N-[2-[[(3R)-1-(1,3-benzodioxol-5-ylmethyl)-3-pyrrolidinyl]amino]-2-oxoethyl]-5-nitrobenzamide
> <PUBCHEM_IUPAC_NAME_MARKUP>
2-amino-<I>N</I>-[2-[[(3<I>R</I>)-1-(1,3-benzodioxol-5-ylmethyl)pyrrolidin-3-yl]amino]-2-oxoethyl]-5-nitrobenzamide
> <PUBCHEM_IUPAC_NAME>
2-amino-N-[2-[[(3R)-1-(1,3-benzodioxol-5-ylmethyl)pyrrolidin-3-yl]amino]-2-oxoethyl]-5-nitrobenzamide
> <PUBCHEM_IUPAC_SYSTEMATIC_NAME>
2-azanyl-N-[2-[[(3R)-1-(1,3-benzodioxol-5-ylmethyl)pyrrolidin-3-yl]amino]-2-oxidanylidene-ethyl]-5-nitro-benzamide
> <PUBCHEM_IUPAC_TRADITIONAL_NAME>
2-amino-N-[2-keto-2-[[(3R)-1-piperonylpyrrolidin-3-yl]amino]ethyl]-5-nitro-benzamide
> <PUBCHEM_IUPAC_INCHI>
InChI=1S/C21H23N5O6/c22-17-3-2-15(26(29)30)8-16(17)21(28)23-9-20(27)24-14-5-6-25(11-14)10-13-1-4-18-19(7-13)32-12-31-18/h1-4,7-8,14H,5-6,9-12,22H2,(H,23,28)(H,24,27)/t14-/m1/s1
> <PUBCHEM_IUPAC_INCHIKEY>
GQIKNSVHYNPYEE-CQSZACIVSA-N
> <PUBCHEM_XLOGP3_AA>
1.8
> <PUBCHEM_EXACT_MASS>
441.16483347
> <PUBCHEM_MOLECULAR_FORMULA>
C21H23N5O6
> <PUBCHEM_MOLECULAR_WEIGHT>
441.4
> <PUBCHEM_OPENEYE_CAN_SMILES>
C1CN(CC1NC(=O)CNC(=O)C2=C(C=CC(=C2)[N+](=O)[O-])N)CC3=CC4=C(C=C3)OCO4
> <PUBCHEM_OPENEYE_ISO_SMILES>
C1CN(C[C@@H]1NC(=O)CNC(=O)C2=C(C=CC(=C2)[N+](=O)[O-])N)CC3=CC4=C(C=C3)OCO4
> <PUBCHEM_CACTVS_TPSA>
152
> <PUBCHEM_MONOISOTOPIC_WEIGHT>
441.16483347
> <PUBCHEM_TOTAL_CHARGE>
0
> <PUBCHEM_HEAVY_ATOM_COUNT>
32
> <PUBCHEM_ATOM_DEF_STEREO_COUNT>
1
> <PUBCHEM_ATOM_UDEF_STEREO_COUNT>
0
> <PUBCHEM_BOND_DEF_STEREO_COUNT>
0
> <PUBCHEM_BOND_UDEF_STEREO_COUNT>
0
> <PUBCHEM_ISOTOPIC_ATOM_COUNT>
0
> <PUBCHEM_COMPONENT_COUNT>
1
> <PUBCHEM_CACTVS_TAUTO_COUNT>
-1
> <PUBCHEM_COORDINATE_TYPE>
1
5
255
> <PUBCHEM_BONDANNOTATIONS>
17  19  8
17  20  8
19  22  8
20  23  8
22  24  8
23  24  8
27  28  8
27  29  8
28  31  8
29  30  8
30  32  8
31  32  8
12  8  5
$$$$
