508827
  -OEChem-10302200282D
 60 63  0     1  0  0  0  0  0999 V2000
    2.2699   -7.5010    0.0000 Cl  0  0  0  0  0  0  0  0  0  0  0  0
    6.2731    5.5010    0.0000 S   0  0  3  0  0  0  0  0  0  0  0  0
    4.5411   -0.4990    0.0000 O   0  0  0  0  0  0  0  0  0  0  0  0
    3.6750    3.0010    0.0000 O   0  0  0  0  0  0  0  0  0  0  0  0
    5.4071    6.0010    0.0000 O   0  0  0  0  0  0  0  0  0  0  0  0
    3.3090   -3.0378    0.0000 N   0  0  3  0  0  0  0  0  0  0  0  0
    2.8090   -0.4990    0.0000 N   0  0  0  0  0  0  0  0  0  0  0  0
    4.5411    1.5010    0.0000 N   0  0  0  0  0  0  0  0  0  0  0  0
    2.8090   -1.4990    0.0000 C   0  0  2  0  0  0  0  0  0  0  0  0
    2.0000   -2.0868    0.0000 C   0  0  0  0  0  0  0  0  0  0  0  0
    3.6180   -2.0868    0.0000 C   0  0  0  0  0  0  0  0  0  0  0  0
    2.3090   -3.0378    0.0000 C   0  0  0  0  0  0  0  0  0  0  0  0
    3.8968   -3.8468    0.0000 C   0  0  0  0  0  0  0  0  0  0  0  0
    3.4901   -4.7604    0.0000 C   0  0  0  0  0  0  0  0  0  0  0  0
    3.6750    0.0010    0.0000 C   0  0  0  0  0  0  0  0  0  0  0  0
    3.6750    1.0010    0.0000 C   0  0  0  0  0  0  0  0  0  0  0  0
    4.0778   -5.5694    0.0000 C   0  0  0  0  0  0  0  0  0  0  0  0
    2.4955   -4.8649    0.0000 C   0  0  0  0  0  0  0  0  0  0  0  0
    3.6711   -6.4830    0.0000 C   0  0  0  0  0  0  0  0  0  0  0  0
    2.0888   -5.7785    0.0000 C   0  0  0  0  0  0  0  0  0  0  0  0
    2.6766   -6.5875    0.0000 C   0  0  0  0  0  0  0  0  0  0  0  0
    4.5411    2.5010    0.0000 C   0  0  0  0  0  0  0  0  0  0  0  0
    5.4071    3.0010    0.0000 C   0  0  0  0  0  0  0  0  0  0  0  0
    5.4071    4.0010    0.0000 C   0  0  0  0  0  0  0  0  0  0  0  0
    6.2731    2.5010    0.0000 C   0  0  0  0  0  0  0  0  0  0  0  0
    6.2731    4.5010    0.0000 C   0  0  0  0  0  0  0  0  0  0  0  0
    7.1391    3.0010    0.0000 C   0  0  0  0  0  0  0  0  0  0  0  0
    7.1391    4.0010    0.0000 C   0  0  0  0  0  0  0  0  0  0  0  0
    7.1391    6.0010    0.0000 C   0  0  0  0  0  0  0  0  0  0  0  0
    8.0052    5.5010    0.0000 C   0  0  0  0  0  0  0  0  0  0  0  0
    7.1391    7.0010    0.0000 C   0  0  0  0  0  0  0  0  0  0  0  0
    8.8712    6.0010    0.0000 C   0  0  0  0  0  0  0  0  0  0  0  0
    8.0052    7.5010    0.0000 C   0  0  0  0  0  0  0  0  0  0  0  0
    8.8712    7.0010    0.0000 C   0  0  0  0  0  0  0  0  0  0  0  0
    3.3614   -1.2175    0.0000 H   0  0  0  0  0  0  0  0  0  0  0  0
    1.6900   -1.5498    0.0000 H   0  0  0  0  0  0  0  0  0  0  0  0
    1.4336   -2.3389    0.0000 H   0  0  0  0  0  0  0  0  0  0  0  0
    4.1844   -2.3389    0.0000 H   0  0  0  0  0  0  0  0  0  0  0  0
    3.9280   -1.5498    0.0000 H   0  0  0  0  0  0  0  0  0  0  0  0
    1.7026   -3.1667    0.0000 H   0  0  0  0  0  0  0  0  0  0  0  0
    2.3738   -3.6544    0.0000 H   0  0  0  0  0  0  0  0  0  0  0  0
    4.4108   -4.1935    0.0000 H   0  0  0  0  0  0  0  0  0  0  0  0
    4.3275   -3.4008    0.0000 H   0  0  0  0  0  0  0  0  0  0  0  0
    2.2721   -0.1890    0.0000 H   0  0  0  0  0  0  0  0  0  0  0  0
    3.4630    1.5836    0.0000 H   0  0  0  0  0  0  0  0  0  0  0  0
    3.0645    0.8934    0.0000 H   0  0  0  0  0  0  0  0  0  0  0  0
    4.6944   -5.5046    0.0000 H   0  0  0  0  0  0  0  0  0  0  0  0
    2.1311   -4.3633    0.0000 H   0  0  0  0  0  0  0  0  0  0  0  0
    4.0355   -6.9845    0.0000 H   0  0  0  0  0  0  0  0  0  0  0  0
    1.4722   -5.8433    0.0000 H   0  0  0  0  0  0  0  0  0  0  0  0
    5.0780    1.1910    0.0000 H   0  0  0  0  0  0  0  0  0  0  0  0
    4.8702    4.3110    0.0000 H   0  0  0  0  0  0  0  0  0  0  0  0
    6.2731    1.8810    0.0000 H   0  0  0  0  0  0  0  0  0  0  0  0
    7.6761    4.3110    0.0000 H   0  0  0  0  0  0  0  0  0  0  0  0
    7.6761    2.6910    0.0000 H   0  0  0  0  0  0  0  0  0  0  0  0
    8.0052    4.8810    0.0000 H   0  0  0  0  0  0  0  0  0  0  0  0
    6.6022    7.3110    0.0000 H   0  0  0  0  0  0  0  0  0  0  0  0
    9.4081    5.6910    0.0000 H   0  0  0  0  0  0  0  0  0  0  0  0
    8.0052    8.1210    0.0000 H   0  0  0  0  0  0  0  0  0  0  0  0
    9.4081    7.3110    0.0000 H   0  0  0  0  0  0  0  0  0  0  0  0
  1 21  1  0  0  0  0
  2  5  2  0  0  0  0
  2 26  1  0  0  0  0
  2 29  1  0  0  0  0
  3 15  2  0  0  0  0
  4 22  2  0  0  0  0
  6 11  1  0  0  0  0
  6 12  1  0  0  0  0
  6 13  1  0  0  0  0
  9  7  1  1  0  0  0
  7 15  1  0  0  0  0
  7 44  1  0  0  0  0
  8 16  1  0  0  0  0
  8 22  1  0  0  0  0
  8 51  1  0  0  0  0
  9 10  1  0  0  0  0
  9 11  1  0  0  0  0
  9 35  1  0  0  0  0
 10 12  1  0  0  0  0
 10 36  1  0  0  0  0
 10 37  1  0  0  0  0
 11 38  1  0  0  0  0
 11 39  1  0  0  0  0
 12 40  1  0  0  0  0
 12 41  1  0  0  0  0
 13 14  1  0  0  0  0
 13 42  1  0  0  0  0
 13 43  1  0  0  0  0
 14 17  2  0  0  0  0
 14 18  1  0  0  0  0
 15 16  1  0  0  0  0
 16 45  1  0  0  0  0
 16 46  1  0  0  0  0
 17 19  1  0  0  0  0
 17 47  1  0  0  0  0
 18 20  2  0  0  0  0
 18 48  1  0  0  0  0
 19 21  2  0  0  0  0
 19 49  1  0  0  0  0
 20 21  1  0  0  0  0
 20 50  1  0  0  0  0
 22 23  1  0  0  0  0
 23 24  2  0  0  0  0
 23 25  1  0  0  0  0
 24 26  1  0  0  0  0
 24 52  1  0  0  0  0
 25 27  2  0  0  0  0
 25 53  1  0  0  0  0
 26 28  2  0  0  0  0
 27 28  1  0  0  0  0
 27 55  1  0  0  0  0
 28 54  1  0  0  0  0
 29 30  2  0  0  0  0
 29 31  1  0  0  0  0
 30 32  1  0  0  0  0
 30 56  1  0  0  0  0
 31 33  2  0  0  0  0
 31 57  1  0  0  0  0
 32 34  2  0  0  0  0
 32 58  1  0  0  0  0
 33 34  1  0  0  0  0
 33 59  1  0  0  0  0
 34 60  1  0  0  0  0
M  END
> <PUBCHEM_COMPOUND_CID>
508827
> <PUBCHEM_COMPOUND_CANONICALIZED>
1
> <PUBCHEM_CACTVS_COMPLEXITY>
709
> <PUBCHEM_CACTVS_HBOND_ACCEPTOR>
5
> <PUBCHEM_CACTVS_HBOND_DONOR>
2
> <PUBCHEM_CACTVS_ROTATABLE_BOND>
8
> <PUBCHEM_CACTVS_SUBSKEYS>
AAADceB7MABEAAAAAAAAAAAAAAAAAWAAAAAwYMAAAAAAAAABUAAAHgYQAAAADCrB2CQwAYPAAAqIAiFSEEDCAAAkDRAIiJmIBsgIYDKh1zGUIQhglgCoiYcYiACOBAAAgAAAAAAIAAEAAAAAAAAAAAAAAA==
> <PUBCHEM_IUPAC_OPENEYE_NAME>
3-(benzenesulfinyl)-N-[2-[[(3R)-1-[(4-chlorophenyl)methyl]pyrrolidin-3-yl]amino]-2-oxo-ethyl]benzamide
> <PUBCHEM_IUPAC_CAS_NAME>
3-(benzenesulfinyl)-N-[2-[[(3R)-1-[(4-chlorophenyl)methyl]-3-pyrrolidinyl]amino]-2-oxoethyl]benzamide
> <PUBCHEM_IUPAC_NAME_MARKUP>
3-(benzenesulfinyl)-<I>N</I>-[2-[[(3<I>R</I>)-1-[(4-chlorophenyl)methyl]pyrrolidin-3-yl]amino]-2-oxoethyl]benzamide
> <PUBCHEM_IUPAC_NAME>
3-(benzenesulfinyl)-N-[2-[[(3R)-1-[(4-chlorophenyl)methyl]pyrrolidin-3-yl]amino]-2-oxoethyl]benzamide
> <PUBCHEM_IUPAC_SYSTEMATIC_NAME>
N-[2-[[(3R)-1-[(4-chlorophenyl)methyl]pyrrolidin-3-yl]amino]-2-oxidanylidene-ethyl]-3-(phenylsulfinyl)benzamide
> <PUBCHEM_IUPAC_TRADITIONAL_NAME>
3-(benzenesulfinyl)-N-[2-[[(3R)-1-(4-chlorobenzyl)pyrrolidin-3-yl]amino]-2-keto-ethyl]benzamide
> <PUBCHEM_IUPAC_INCHI>
InChI=1S/C26H26ClN3O3S/c27-21-11-9-19(10-12-21)17-30-14-13-22(18-30)29-25(31)16-28-26(32)20-5-4-8-24(15-20)34(33)23-6-2-1-3-7-23/h1-12,15,22H,13-14,16-18H2,(H,28,32)(H,29,31)/t22-,34?/m1/s1
> <PUBCHEM_IUPAC_INCHIKEY>
CDLBTWXSLSVCEG-PVFJFFHYSA-N
> <PUBCHEM_XLOGP3_AA>
3.7
> <PUBCHEM_EXACT_MASS>
495.1383406
> <PUBCHEM_MOLECULAR_FORMULA>
C26H26ClN3O3S
> <PUBCHEM_MOLECULAR_WEIGHT>
496.0
> <PUBCHEM_OPENEYE_CAN_SMILES>
C1CN(CC1NC(=O)CNC(=O)C2=CC(=CC=C2)S(=O)C3=CC=CC=C3)CC4=CC=C(C=C4)Cl
> <PUBCHEM_OPENEYE_ISO_SMILES>
C1CN(C[C@@H]1NC(=O)CNC(=O)C2=CC(=CC=C2)S(=O)C3=CC=CC=C3)CC4=CC=C(C=C4)Cl
> <PUBCHEM_CACTVS_TPSA>
97.7
> <PUBCHEM_MONOISOTOPIC_WEIGHT>
495.1383406
> <PUBCHEM_TOTAL_CHARGE>
0
> <PUBCHEM_HEAVY_ATOM_COUNT>
34
> <PUBCHEM_ATOM_DEF_STEREO_COUNT>
1
> <PUBCHEM_ATOM_UDEF_STEREO_COUNT>
1
> <PUBCHEM_BOND_DEF_STEREO_COUNT>
0
> <PUBCHEM_BOND_UDEF_STEREO_COUNT>
0
> <PUBCHEM_ISOTOPIC_ATOM_COUNT>
0
> <PUBCHEM_COMPONENT_COUNT>
1
> <PUBCHEM_CACTVS_TAUTO_COUNT>
-1
> <PUBCHEM_COORDINATE_TYPE>
1
5
255
> <PUBCHEM_BONDANNOTATIONS>
14  17  8
14  18  8
17  19  8
18  20  8
19  21  8
2  29  3
20  21  8
23  24  8
23  25  8
24  26  8
25  27  8
26  28  8
27  28  8
29  30  8
29  31  8
30  32  8
31  33  8
32  34  8
33  34  8
9  7  5
$$$$
