508815
  -OEChem-10302200282D
 72 74  0     1  0  0  0  0  0999 V2000
    9.7942    6.7500    0.0000 Cl  0  0  0  0  0  0  0  0  0  0  0  0
    6.3301   -1.2500    0.0000 O   0  0  0  0  0  0  0  0  0  0  0  0
    2.8660   -2.2500    0.0000 O   0  0  0  0  0  0  0  0  0  0  0  0
    2.0000    0.2500    0.0000 O   0  0  0  0  0  0  0  0  0  0  0  0
    5.4641   -5.7500    0.0000 O   0  0  0  0  0  0  0  0  0  0  0  0
    2.0000   -5.7500    0.0000 O   0  0  0  0  0  0  0  0  0  0  0  0
    6.3301    3.7500    0.0000 N   0  0  0  0  0  0  0  0  0  0  0  0
    5.4641    0.2500    0.0000 N   0  0  0  0  0  0  0  0  0  0  0  0
    4.5981   -2.2500    0.0000 N   0  0  0  0  0  0  0  0  0  0  0  0
    2.8660    1.7500    0.0000 N   0  0  0  0  0  0  0  0  0  0  0  0
    6.3301    1.7500    0.0000 C   0  0  0  0  0  0  0  0  0  0  0  0
    5.4641    2.2500    0.0000 C   0  0  0  0  0  0  0  0  0  0  0  0
    7.1962    2.2500    0.0000 C   0  0  0  0  0  0  0  0  0  0  0  0
    5.4641    3.2500    0.0000 C   0  0  0  0  0  0  0  0  0  0  0  0
    7.1962    3.2500    0.0000 C   0  0  0  0  0  0  0  0  0  0  0  0
    6.3301    0.7500    0.0000 C   0  0  0  0  0  0  0  0  0  0  0  0
    6.3301    4.7500    0.0000 C   0  0  0  0  0  0  0  0  0  0  0  0
    7.1962    5.2500    0.0000 C   0  0  0  0  0  0  0  0  0  0  0  0
    5.4641   -0.7500    0.0000 C   0  0  0  0  0  0  0  0  0  0  0  0
    4.5981   -1.2500    0.0000 C   0  0  3  0  0  0  0  0  0  0  0  0
    3.7320   -0.7500    0.0000 C   0  0  0  0  0  0  0  0  0  0  0  0
    7.1962    6.2500    0.0000 C   0  0  0  0  0  0  0  0  0  0  0  0
    8.0622    4.7500    0.0000 C   0  0  0  0  0  0  0  0  0  0  0  0
    3.7320    0.2500    0.0000 C   0  0  0  0  0  0  0  0  0  0  0  0
    8.0622    6.7500    0.0000 C   0  0  0  0  0  0  0  0  0  0  0  0
    8.9282    5.2500    0.0000 C   0  0  0  0  0  0  0  0  0  0  0  0
    8.9282    6.2500    0.0000 C   0  0  0  0  0  0  0  0  0  0  0  0
    3.7320   -2.7500    0.0000 C   0  0  0  0  0  0  0  0  0  0  0  0
    2.8660    0.7500    0.0000 C   0  0  0  0  0  0  0  0  0  0  0  0
    3.7320   -3.7500    0.0000 C   0  0  0  0  0  0  0  0  0  0  0  0
    2.8660   -4.2500    0.0000 C   0  0  0  0  0  0  0  0  0  0  0  0
    4.5981   -4.2500    0.0000 C   0  0  0  0  0  0  0  0  0  0  0  0
    4.5981   -5.2500    0.0000 C   0  0  0  0  0  0  0  0  0  0  0  0
    2.8660   -5.2500    0.0000 C   0  0  0  0  0  0  0  0  0  0  0  0
    3.7320   -5.7500    0.0000 C   0  0  0  0  0  0  0  0  0  0  0  0
    5.4641   -6.7500    0.0000 C   0  0  0  0  0  0  0  0  0  0  0  0
    2.0000   -6.7500    0.0000 C   0  0  0  0  0  0  0  0  0  0  0  0
    6.8671    1.4400    0.0000 H   0  0  0  0  0  0  0  0  0  0  0  0
    4.8535    2.3577    0.0000 H   0  0  0  0  0  0  0  0  0  0  0  0
    5.2520    1.6674    0.0000 H   0  0  0  0  0  0  0  0  0  0  0  0
    7.4082    1.6674    0.0000 H   0  0  0  0  0  0  0  0  0  0  0  0
    7.8067    2.3577    0.0000 H   0  0  0  0  0  0  0  0  0  0  0  0
    5.2520    3.8326    0.0000 H   0  0  0  0  0  0  0  0  0  0  0  0
    4.8535    3.1423    0.0000 H   0  0  0  0  0  0  0  0  0  0  0  0
    7.8067    3.1423    0.0000 H   0  0  0  0  0  0  0  0  0  0  0  0
    7.4082    3.8326    0.0000 H   0  0  0  0  0  0  0  0  0  0  0  0
    6.5422    0.1674    0.0000 H   0  0  0  0  0  0  0  0  0  0  0  0
    6.9407    0.8577    0.0000 H   0  0  0  0  0  0  0  0  0  0  0  0
    6.1181    5.3326    0.0000 H   0  0  0  0  0  0  0  0  0  0  0  0
    5.7196    4.6423    0.0000 H   0  0  0  0  0  0  0  0  0  0  0  0
    4.9272    0.5600    0.0000 H   0  0  0  0  0  0  0  0  0  0  0  0
    5.1350   -1.5600    0.0000 H   0  0  0  0  0  0  0  0  0  0  0  0
    3.1215   -0.6423    0.0000 H   0  0  0  0  0  0  0  0  0  0  0  0
    3.5200   -1.3326    0.0000 H   0  0  0  0  0  0  0  0  0  0  0  0
    6.6592    6.5600    0.0000 H   0  0  0  0  0  0  0  0  0  0  0  0
    8.0622    4.1300    0.0000 H   0  0  0  0  0  0  0  0  0  0  0  0
    5.1350   -2.5600    0.0000 H   0  0  0  0  0  0  0  0  0  0  0  0
    4.3426    0.1423    0.0000 H   0  0  0  0  0  0  0  0  0  0  0  0
    3.9441    0.8326    0.0000 H   0  0  0  0  0  0  0  0  0  0  0  0
    8.0622    7.3700    0.0000 H   0  0  0  0  0  0  0  0  0  0  0  0
    9.4651    4.9400    0.0000 H   0  0  0  0  0  0  0  0  0  0  0  0
    2.3291   -3.9400    0.0000 H   0  0  0  0  0  0  0  0  0  0  0  0
    5.1350   -3.9400    0.0000 H   0  0  0  0  0  0  0  0  0  0  0  0
    2.3291    2.0600    0.0000 H   0  0  0  0  0  0  0  0  0  0  0  0
    3.4030    2.0600    0.0000 H   0  0  0  0  0  0  0  0  0  0  0  0
    3.7320   -6.3700    0.0000 H   0  0  0  0  0  0  0  0  0  0  0  0
    4.8441   -6.7500    0.0000 H   0  0  0  0  0  0  0  0  0  0  0  0
    5.4641   -7.3700    0.0000 H   0  0  0  0  0  0  0  0  0  0  0  0
    6.0841   -6.7500    0.0000 H   0  0  0  0  0  0  0  0  0  0  0  0
    1.3800   -6.7500    0.0000 H   0  0  0  0  0  0  0  0  0  0  0  0
    2.0000   -7.3700    0.0000 H   0  0  0  0  0  0  0  0  0  0  0  0
    2.6200   -6.7500    0.0000 H   0  0  0  0  0  0  0  0  0  0  0  0
  1 27  1  0  0  0  0
  2 19  2  0  0  0  0
  3 28  2  0  0  0  0
  4 29  2  0  0  0  0
  5 33  1  0  0  0  0
  5 36  1  0  0  0  0
  6 34  1  0  0  0  0
  6 37  1  0  0  0  0
  7 14  1  0  0  0  0
  7 15  1  0  0  0  0
  7 17  1  0  0  0  0
  8 16  1  0  0  0  0
  8 19  1  0  0  0  0
  8 51  1  0  0  0  0
  9 20  1  0  0  0  0
  9 28  1  0  0  0  0
  9 57  1  0  0  0  0
 10 29  1  0  0  0  0
 10 64  1  0  0  0  0
 10 65  1  0  0  0  0
 11 12  1  0  0  0  0
 11 13  1  0  0  0  0
 11 16  1  0  0  0  0
 11 38  1  0  0  0  0
 12 14  1  0  0  0  0
 12 39  1  0  0  0  0
 12 40  1  0  0  0  0
 13 15  1  0  0  0  0
 13 41  1  0  0  0  0
 13 42  1  0  0  0  0
 14 43  1  0  0  0  0
 14 44  1  0  0  0  0
 15 45  1  0  0  0  0
 15 46  1  0  0  0  0
 16 47  1  0  0  0  0
 16 48  1  0  0  0  0
 17 18  1  0  0  0  0
 17 49  1  0  0  0  0
 17 50  1  0  0  0  0
 18 22  2  0  0  0  0
 18 23  1  0  0  0  0
 19 20  1  0  0  0  0
 20 21  1  0  0  0  0
 20 52  1  0  0  0  0
 21 24  1  0  0  0  0
 21 53  1  0  0  0  0
 21 54  1  0  0  0  0
 22 25  1  0  0  0  0
 22 55  1  0  0  0  0
 23 26  2  0  0  0  0
 23 56  1  0  0  0  0
 24 29  1  0  0  0  0
 24 58  1  0  0  0  0
 24 59  1  0  0  0  0
 25 27  2  0  0  0  0
 25 60  1  0  0  0  0
 26 27  1  0  0  0  0
 26 61  1  0  0  0  0
 28 30  1  0  0  0  0
 30 31  2  0  0  0  0
 30 32  1  0  0  0  0
 31 34  1  0  0  0  0
 31 62  1  0  0  0  0
 32 33  2  0  0  0  0
 32 63  1  0  0  0  0
 33 35  1  0  0  0  0
 34 35  2  0  0  0  0
 35 66  1  0  0  0  0
 36 67  1  0  0  0  0
 36 68  1  0  0  0  0
 36 69  1  0  0  0  0
 37 70  1  0  0  0  0
 37 71  1  0  0  0  0
 37 72  1  0  0  0  0
M  END
> <PUBCHEM_COMPOUND_CID>
508815
> <PUBCHEM_COMPOUND_CANONICALIZED>
1
> <PUBCHEM_CACTVS_COMPLEXITY>
728
> <PUBCHEM_CACTVS_HBOND_ACCEPTOR>
6
> <PUBCHEM_CACTVS_HBOND_DONOR>
3
> <PUBCHEM_CACTVS_ROTATABLE_BOND>
12
> <PUBCHEM_CACTVS_SUBSKEYS>
AAADcfB7uAAEAAAAAAAAAAAAAAAAAAAAAAA8YIAAAAAAAAABQAAAHgIQAAAADS7BmCYyBoPABACIAiFSEACCCAAkJQAIiIGODsgMZzKFtzuUMShl1hWIqYe+6xyOBAABCAAAAAAIAAIQAAAAAAAAAAAAAA==
> <PUBCHEM_IUPAC_OPENEYE_NAME>
N-[[1-[(4-chlorophenyl)methyl]-4-piperidyl]methyl]-2-[(3,5-dimethoxybenzoyl)amino]pentanediamide
> <PUBCHEM_IUPAC_CAS_NAME>
N-[[1-[(4-chlorophenyl)methyl]-4-piperidinyl]methyl]-2-[[(3,5-dimethoxyphenyl)-oxomethyl]amino]pentanediamide
> <PUBCHEM_IUPAC_NAME_MARKUP>
<I>N</I>-[[1-[(4-chlorophenyl)methyl]piperidin-4-yl]methyl]-2-[(3,5-dimethoxybenzoyl)amino]pentanediamide
> <PUBCHEM_IUPAC_NAME>
N-[[1-[(4-chlorophenyl)methyl]piperidin-4-yl]methyl]-2-[(3,5-dimethoxybenzoyl)amino]pentanediamide
> <PUBCHEM_IUPAC_SYSTEMATIC_NAME>
N-[[1-[(4-chlorophenyl)methyl]piperidin-4-yl]methyl]-2-[(3,5-dimethoxyphenyl)carbonylamino]pentanediamide
> <PUBCHEM_IUPAC_TRADITIONAL_NAME>
N-[[1-(4-chlorobenzyl)-4-piperidyl]methyl]-2-[(3,5-dimethoxybenzoyl)amino]glutaramide
> <PUBCHEM_IUPAC_INCHI>
InChI=1S/C27H35ClN4O5/c1-36-22-13-20(14-23(15-22)37-2)26(34)31-24(7-8-25(29)33)27(35)30-16-18-9-11-32(12-10-18)17-19-3-5-21(28)6-4-19/h3-6,13-15,18,24H,7-12,16-17H2,1-2H3,(H2,29,33)(H,30,35)(H,31,34)
> <PUBCHEM_IUPAC_INCHIKEY>
ZRJPJLOBKGLNQY-UHFFFAOYSA-N
> <PUBCHEM_XLOGP3_AA>
2.6
> <PUBCHEM_EXACT_MASS>
530.2295979
> <PUBCHEM_MOLECULAR_FORMULA>
C27H35ClN4O5
> <PUBCHEM_MOLECULAR_WEIGHT>
531.0
> <PUBCHEM_OPENEYE_CAN_SMILES>
COC1=CC(=CC(=C1)C(=O)NC(CCC(=O)N)C(=O)NCC2CCN(CC2)CC3=CC=C(C=C3)Cl)OC
> <PUBCHEM_OPENEYE_ISO_SMILES>
COC1=CC(=CC(=C1)C(=O)NC(CCC(=O)N)C(=O)NCC2CCN(CC2)CC3=CC=C(C=C3)Cl)OC
> <PUBCHEM_CACTVS_TPSA>
123
> <PUBCHEM_MONOISOTOPIC_WEIGHT>
530.2295979
> <PUBCHEM_TOTAL_CHARGE>
0
> <PUBCHEM_HEAVY_ATOM_COUNT>
37
> <PUBCHEM_ATOM_DEF_STEREO_COUNT>
0
> <PUBCHEM_ATOM_UDEF_STEREO_COUNT>
1
> <PUBCHEM_BOND_DEF_STEREO_COUNT>
0
> <PUBCHEM_BOND_UDEF_STEREO_COUNT>
0
> <PUBCHEM_ISOTOPIC_ATOM_COUNT>
0
> <PUBCHEM_COMPONENT_COUNT>
1
> <PUBCHEM_CACTVS_TAUTO_COUNT>
-1
> <PUBCHEM_COORDINATE_TYPE>
1
5
255
> <PUBCHEM_BONDANNOTATIONS>
18  22  8
18  23  8
20  21  3
22  25  8
23  26  8
25  27  8
26  27  8
30  31  8
30  32  8
31  34  8
32  33  8
33  35  8
34  35  8
$$$$
