508871
  -OEChem-10302200282D
 46 48  0     1  0  0  0  0  0999 V2000
    5.2731    5.4353    0.0000 F   0  0  0  0  0  0  0  0  0  0  0  0
    6.2731    6.4353    0.0000 F   0  0  0  0  0  0  0  0  0  0  0  0
    7.2731    5.4353    0.0000 F   0  0  0  0  0  0  0  0  0  0  0  0
    4.5411   -0.5647    0.0000 O   0  0  0  0  0  0  0  0  0  0  0  0
    3.3209   -6.4353    0.0000 O   0  0  0  0  0  0  0  0  0  0  0  0
    3.6750    2.9353    0.0000 O   0  0  0  0  0  0  0  0  0  0  0  0
    3.3090   -3.1035    0.0000 N   0  0  3  0  0  0  0  0  0  0  0  0
    2.8090   -0.5647    0.0000 N   0  0  0  0  0  0  0  0  0  0  0  0
    2.5119   -5.0340    0.0000 N   0  0  0  0  0  0  0  0  0  0  0  0
    3.9901   -5.6921    0.0000 N   0  0  0  0  0  0  0  0  0  0  0  0
    4.5411    1.4353    0.0000 N   0  0  0  0  0  0  0  0  0  0  0  0
    2.8090   -1.5647    0.0000 C   0  0  2  0  0  0  0  0  0  0  0  0
    2.0000   -2.1525    0.0000 C   0  0  0  0  0  0  0  0  0  0  0  0
    3.6180   -2.1525    0.0000 C   0  0  0  0  0  0  0  0  0  0  0  0
    2.3090   -3.1035    0.0000 C   0  0  0  0  0  0  0  0  0  0  0  0
    3.8968   -3.9126    0.0000 C   0  0  0  0  0  0  0  0  0  0  0  0
    3.6750   -0.0647    0.0000 C   0  0  0  0  0  0  0  0  0  0  0  0
    3.4901   -4.8261    0.0000 C   0  0  0  0  0  0  0  0  0  0  0  0
    3.6750    0.9353    0.0000 C   0  0  0  0  0  0  0  0  0  0  0  0
    2.4074   -6.0286    0.0000 C   0  0  0  0  0  0  0  0  0  0  0  0
    4.5411    2.4353    0.0000 C   0  0  0  0  0  0  0  0  0  0  0  0
    5.4071    2.9353    0.0000 C   0  0  0  0  0  0  0  0  0  0  0  0
    5.4071    3.9353    0.0000 C   0  0  0  0  0  0  0  0  0  0  0  0
    6.2731    4.4353    0.0000 C   0  0  0  0  0  0  0  0  0  0  0  0
    6.2731    2.4353    0.0000 C   0  0  0  0  0  0  0  0  0  0  0  0
    7.1391    3.9353    0.0000 C   0  0  0  0  0  0  0  0  0  0  0  0
    7.1391    2.9353    0.0000 C   0  0  0  0  0  0  0  0  0  0  0  0
    6.2731    5.4353    0.0000 C   0  0  0  0  0  0  0  0  0  0  0  0
    3.3614   -1.2832    0.0000 H   0  0  0  0  0  0  0  0  0  0  0  0
    1.6900   -1.6156    0.0000 H   0  0  0  0  0  0  0  0  0  0  0  0
    1.4336   -2.4047    0.0000 H   0  0  0  0  0  0  0  0  0  0  0  0
    4.1844   -2.4047    0.0000 H   0  0  0  0  0  0  0  0  0  0  0  0
    3.9280   -1.6156    0.0000 H   0  0  0  0  0  0  0  0  0  0  0  0
    1.7026   -3.2325    0.0000 H   0  0  0  0  0  0  0  0  0  0  0  0
    2.3738   -3.7202    0.0000 H   0  0  0  0  0  0  0  0  0  0  0  0
    4.4108   -4.2593    0.0000 H   0  0  0  0  0  0  0  0  0  0  0  0
    4.3275   -3.4666    0.0000 H   0  0  0  0  0  0  0  0  0  0  0  0
    2.2721   -0.2547    0.0000 H   0  0  0  0  0  0  0  0  0  0  0  0
    3.4630    1.5179    0.0000 H   0  0  0  0  0  0  0  0  0  0  0  0
    3.0645    0.8276    0.0000 H   0  0  0  0  0  0  0  0  0  0  0  0
    5.0780    1.1253    0.0000 H   0  0  0  0  0  0  0  0  0  0  0  0
    1.8704   -6.3386    0.0000 H   0  0  0  0  0  0  0  0  0  0  0  0
    4.8702    4.2453    0.0000 H   0  0  0  0  0  0  0  0  0  0  0  0
    6.2731    1.8153    0.0000 H   0  0  0  0  0  0  0  0  0  0  0  0
    7.6761    4.2453    0.0000 H   0  0  0  0  0  0  0  0  0  0  0  0
    7.6761    2.6253    0.0000 H   0  0  0  0  0  0  0  0  0  0  0  0
  1 28  1  0  0  0  0
  2 28  1  0  0  0  0
  3 28  1  0  0  0  0
  4 17  2  0  0  0  0
  5 10  1  0  0  0  0
  5 20  1  0  0  0  0
  6 21  2  0  0  0  0
  7 14  1  0  0  0  0
  7 15  1  0  0  0  0
  7 16  1  0  0  0  0
 12  8  1  1  0  0  0
  8 17  1  0  0  0  0
  8 38  1  0  0  0  0
  9 18  1  0  0  0  0
  9 20  2  0  0  0  0
 10 18  2  0  0  0  0
 11 19  1  0  0  0  0
 11 21  1  0  0  0  0
 11 41  1  0  0  0  0
 12 13  1  0  0  0  0
 12 14  1  0  0  0  0
 12 29  1  0  0  0  0
 13 15  1  0  0  0  0
 13 30  1  0  0  0  0
 13 31  1  0  0  0  0
 14 32  1  0  0  0  0
 14 33  1  0  0  0  0
 15 34  1  0  0  0  0
 15 35  1  0  0  0  0
 16 18  1  0  0  0  0
 16 36  1  0  0  0  0
 16 37  1  0  0  0  0
 17 19  1  0  0  0  0
 19 39  1  0  0  0  0
 19 40  1  0  0  0  0
 20 42  1  0  0  0  0
 21 22  1  0  0  0  0
 22 23  2  0  0  0  0
 22 25  1  0  0  0  0
 23 24  1  0  0  0  0
 23 43  1  0  0  0  0
 24 26  2  0  0  0  0
 24 28  1  0  0  0  0
 25 27  2  0  0  0  0
 25 44  1  0  0  0  0
 26 27  1  0  0  0  0
 26 45  1  0  0  0  0
 27 46  1  0  0  0  0
M  END
> <PUBCHEM_COMPOUND_CID>
508871
> <PUBCHEM_COMPOUND_CANONICALIZED>
1
> <PUBCHEM_CACTVS_COMPLEXITY>
563
> <PUBCHEM_CACTVS_HBOND_ACCEPTOR>
9
> <PUBCHEM_CACTVS_HBOND_DONOR>
2
> <PUBCHEM_CACTVS_ROTATABLE_BOND>
6
> <PUBCHEM_CACTVS_SUBSKEYS>
AAADceB7sYAAAAAAAAAAAAAAAAAAAWLAAAAwAAAAAAAAAAABwAAAHwAUAAAADCjBmxY1EIfYEACpAiNztgCCgAk0AKApyIGYBMiIaDKA1TGUIQhglwCIiYcYiECOAAACAAAAAAAAAAQAAAAAAAAAAAAAAA==
> <PUBCHEM_IUPAC_OPENEYE_NAME>
N-[2-[[(3R)-1-(1,2,4-oxadiazol-3-ylmethyl)pyrrolidin-3-yl]amino]-2-oxo-ethyl]-3-(trifluoromethyl)benzamide
> <PUBCHEM_IUPAC_CAS_NAME>
N-[2-[[(3R)-1-(1,2,4-oxadiazol-3-ylmethyl)-3-pyrrolidinyl]amino]-2-oxoethyl]-3-(trifluoromethyl)benzamide
> <PUBCHEM_IUPAC_NAME_MARKUP>
<I>N</I>-[2-[[(3<I>R</I>)-1-(1,2,4-oxadiazol-3-ylmethyl)pyrrolidin-3-yl]amino]-2-oxoethyl]-3-(trifluoromethyl)benzamide
> <PUBCHEM_IUPAC_NAME>
N-[2-[[(3R)-1-(1,2,4-oxadiazol-3-ylmethyl)pyrrolidin-3-yl]amino]-2-oxoethyl]-3-(trifluoromethyl)benzamide
> <PUBCHEM_IUPAC_SYSTEMATIC_NAME>
N-[2-[[(3R)-1-(1,2,4-oxadiazol-3-ylmethyl)pyrrolidin-3-yl]amino]-2-oxidanylidene-ethyl]-3-(trifluoromethyl)benzamide
> <PUBCHEM_IUPAC_TRADITIONAL_NAME>
N-[2-keto-2-[[(3R)-1-(1,2,4-oxadiazol-3-ylmethyl)pyrrolidin-3-yl]amino]ethyl]-3-(trifluoromethyl)benzamide
> <PUBCHEM_IUPAC_INCHI>
InChI=1S/C17H18F3N5O3/c18-17(19,20)12-3-1-2-11(6-12)16(27)21-7-15(26)23-13-4-5-25(8-13)9-14-22-10-28-24-14/h1-3,6,10,13H,4-5,7-9H2,(H,21,27)(H,23,26)/t13-/m1/s1
> <PUBCHEM_IUPAC_INCHIKEY>
UNANNIUISLCJJU-CYBMUJFWSA-N
> <PUBCHEM_XLOGP3_AA>
1.4
> <PUBCHEM_EXACT_MASS>
397.13617394
> <PUBCHEM_MOLECULAR_FORMULA>
C17H18F3N5O3
> <PUBCHEM_MOLECULAR_WEIGHT>
397.4
> <PUBCHEM_OPENEYE_CAN_SMILES>
C1CN(CC1NC(=O)CNC(=O)C2=CC(=CC=C2)C(F)(F)F)CC3=NOC=N3
> <PUBCHEM_OPENEYE_ISO_SMILES>
C1CN(C[C@@H]1NC(=O)CNC(=O)C2=CC(=CC=C2)C(F)(F)F)CC3=NOC=N3
> <PUBCHEM_CACTVS_TPSA>
100
> <PUBCHEM_MONOISOTOPIC_WEIGHT>
397.13617394
> <PUBCHEM_TOTAL_CHARGE>
0
> <PUBCHEM_HEAVY_ATOM_COUNT>
28
> <PUBCHEM_ATOM_DEF_STEREO_COUNT>
1
> <PUBCHEM_ATOM_UDEF_STEREO_COUNT>
0
> <PUBCHEM_BOND_DEF_STEREO_COUNT>
0
> <PUBCHEM_BOND_UDEF_STEREO_COUNT>
0
> <PUBCHEM_ISOTOPIC_ATOM_COUNT>
0
> <PUBCHEM_COMPONENT_COUNT>
1
> <PUBCHEM_CACTVS_TAUTO_COUNT>
-1
> <PUBCHEM_COORDINATE_TYPE>
1
5
255
> <PUBCHEM_BONDANNOTATIONS>
10  18  8
22  23  8
22  25  8
23  24  8
24  26  8
25  27  8
26  27  8
5  10  8
5  20  8
12  8  5
9  18  8
9  20  8
$$$$
