508812
  -OEChem-10302200282D
 69 71  0     1  0  0  0  0  0999 V2000
   14.9904    2.1830    0.0000 Cl  0  0  0  0  0  0  0  0  0  0  0  0
    2.0000   -3.3170    0.0000 F   0  0  0  0  0  0  0  0  0  0  0  0
    3.3660   -3.6830    0.0000 F   0  0  0  0  0  0  0  0  0  0  0  0
    2.3660   -1.9510    0.0000 F   0  0  0  0  0  0  0  0  0  0  0  0
    6.3301    3.1830    0.0000 O   0  0  0  0  0  0  0  0  0  0  0  0
    3.7320    0.6830    0.0000 O   0  0  0  0  0  0  0  0  0  0  0  0
   10.6603    0.6830    0.0000 N   0  0  0  0  0  0  0  0  0  0  0  0
    7.1962    1.6830    0.0000 N   0  0  0  0  0  0  0  0  0  0  0  0
    5.4641    0.6830    0.0000 N   0  0  0  0  0  0  0  0  0  0  0  0
    8.9282    1.6830    0.0000 C   0  0  0  0  0  0  0  0  0  0  0  0
    8.9282    0.6830    0.0000 C   0  0  0  0  0  0  0  0  0  0  0  0
    9.7942    2.1830    0.0000 C   0  0  0  0  0  0  0  0  0  0  0  0
    9.7942    0.1830    0.0000 C   0  0  0  0  0  0  0  0  0  0  0  0
   10.6603    1.6830    0.0000 C   0  0  0  0  0  0  0  0  0  0  0  0
    8.0622    2.1830    0.0000 C   0  0  0  0  0  0  0  0  0  0  0  0
   11.5263    0.1830    0.0000 C   0  0  0  0  0  0  0  0  0  0  0  0
    5.4641    1.6830    0.0000 C   0  0  3  0  0  0  0  0  0  0  0  0
   12.3923    0.6830    0.0000 C   0  0  0  0  0  0  0  0  0  0  0  0
    6.3301    2.1830    0.0000 C   0  0  0  0  0  0  0  0  0  0  0  0
    4.5981    2.1830    0.0000 C   0  0  0  0  0  0  0  0  0  0  0  0
    4.5981    3.1830    0.0000 C   0  0  0  0  0  0  0  0  0  0  0  0
   12.3923    1.6830    0.0000 C   0  0  0  0  0  0  0  0  0  0  0  0
   13.2583    0.1830    0.0000 C   0  0  0  0  0  0  0  0  0  0  0  0
    3.7320    3.6830    0.0000 C   0  0  0  0  0  0  0  0  0  0  0  0
    5.4641    3.6830    0.0000 C   0  0  0  0  0  0  0  0  0  0  0  0
   13.2583    2.1830    0.0000 C   0  0  0  0  0  0  0  0  0  0  0  0
   14.1244    0.6830    0.0000 C   0  0  0  0  0  0  0  0  0  0  0  0
    4.5981    0.1830    0.0000 C   0  0  0  0  0  0  0  0  0  0  0  0
   14.1244    1.6830    0.0000 C   0  0  0  0  0  0  0  0  0  0  0  0
    4.5981   -0.8170    0.0000 C   0  0  0  0  0  0  0  0  0  0  0  0
    3.7320   -1.3170    0.0000 C   0  0  0  0  0  0  0  0  0  0  0  0
    5.4641   -1.3170    0.0000 C   0  0  0  0  0  0  0  0  0  0  0  0
    3.7320   -2.3170    0.0000 C   0  0  0  0  0  0  0  0  0  0  0  0
    5.4641   -2.3170    0.0000 C   0  0  0  0  0  0  0  0  0  0  0  0
    4.5981   -2.8170    0.0000 C   0  0  0  0  0  0  0  0  0  0  0  0
    2.8660   -2.8170    0.0000 C   0  0  0  0  0  0  0  0  0  0  0  0
    8.9282    2.3030    0.0000 H   0  0  0  0  0  0  0  0  0  0  0  0
    8.3176    0.7907    0.0000 H   0  0  0  0  0  0  0  0  0  0  0  0
    8.7162    0.1004    0.0000 H   0  0  0  0  0  0  0  0  0  0  0  0
   10.1928    2.6580    0.0000 H   0  0  0  0  0  0  0  0  0  0  0  0
    9.3957    2.6580    0.0000 H   0  0  0  0  0  0  0  0  0  0  0  0
    9.3957   -0.2919    0.0000 H   0  0  0  0  0  0  0  0  0  0  0  0
   10.1928   -0.2919    0.0000 H   0  0  0  0  0  0  0  0  0  0  0  0
   11.2708    1.5754    0.0000 H   0  0  0  0  0  0  0  0  0  0  0  0
   10.8723    2.2656    0.0000 H   0  0  0  0  0  0  0  0  0  0  0  0
    8.4607    2.6580    0.0000 H   0  0  0  0  0  0  0  0  0  0  0  0
    7.6636    2.6580    0.0000 H   0  0  0  0  0  0  0  0  0  0  0  0
   11.1278   -0.2919    0.0000 H   0  0  0  0  0  0  0  0  0  0  0  0
   11.9248   -0.2919    0.0000 H   0  0  0  0  0  0  0  0  0  0  0  0
    7.1962    1.0630    0.0000 H   0  0  0  0  0  0  0  0  0  0  0  0
    6.0010    1.3730    0.0000 H   0  0  0  0  0  0  0  0  0  0  0  0
    3.9875    2.2907    0.0000 H   0  0  0  0  0  0  0  0  0  0  0  0
    4.3860    1.6004    0.0000 H   0  0  0  0  0  0  0  0  0  0  0  0
    4.5981    3.8030    0.0000 H   0  0  0  0  0  0  0  0  0  0  0  0
    6.0010    0.3730    0.0000 H   0  0  0  0  0  0  0  0  0  0  0  0
   11.8554    1.9930    0.0000 H   0  0  0  0  0  0  0  0  0  0  0  0
   13.2583   -0.4370    0.0000 H   0  0  0  0  0  0  0  0  0  0  0  0
    4.0420    4.2200    0.0000 H   0  0  0  0  0  0  0  0  0  0  0  0
    3.1951    3.9930    0.0000 H   0  0  0  0  0  0  0  0  0  0  0  0
    3.4220    3.1461    0.0000 H   0  0  0  0  0  0  0  0  0  0  0  0
    5.7741    3.1461    0.0000 H   0  0  0  0  0  0  0  0  0  0  0  0
    6.0010    3.9930    0.0000 H   0  0  0  0  0  0  0  0  0  0  0  0
    5.1541    4.2200    0.0000 H   0  0  0  0  0  0  0  0  0  0  0  0
   13.2583    2.8030    0.0000 H   0  0  0  0  0  0  0  0  0  0  0  0
   14.6613    0.3730    0.0000 H   0  0  0  0  0  0  0  0  0  0  0  0
    3.1951   -1.0070    0.0000 H   0  0  0  0  0  0  0  0  0  0  0  0
    6.0010   -1.0070    0.0000 H   0  0  0  0  0  0  0  0  0  0  0  0
    6.0010   -2.6270    0.0000 H   0  0  0  0  0  0  0  0  0  0  0  0
    4.5981   -3.4370    0.0000 H   0  0  0  0  0  0  0  0  0  0  0  0
  1 29  1  0  0  0  0
  2 36  1  0  0  0  0
  3 36  1  0  0  0  0
  4 36  1  0  0  0  0
  5 19  2  0  0  0  0
  6 28  2  0  0  0  0
  7 13  1  0  0  0  0
  7 14  1  0  0  0  0
  7 16  1  0  0  0  0
  8 15  1  0  0  0  0
  8 19  1  0  0  0  0
  8 50  1  0  0  0  0
  9 17  1  0  0  0  0
  9 28  1  0  0  0  0
  9 55  1  0  0  0  0
 10 11  1  0  0  0  0
 10 12  1  0  0  0  0
 10 15  1  0  0  0  0
 10 37  1  0  0  0  0
 11 13  1  0  0  0  0
 11 38  1  0  0  0  0
 11 39  1  0  0  0  0
 12 14  1  0  0  0  0
 12 40  1  0  0  0  0
 12 41  1  0  0  0  0
 13 42  1  0  0  0  0
 13 43  1  0  0  0  0
 14 44  1  0  0  0  0
 14 45  1  0  0  0  0
 15 46  1  0  0  0  0
 15 47  1  0  0  0  0
 16 18  1  0  0  0  0
 16 48  1  0  0  0  0
 16 49  1  0  0  0  0
 17 19  1  0  0  0  0
 17 20  1  0  0  0  0
 17 51  1  0  0  0  0
 18 22  2  0  0  0  0
 18 23  1  0  0  0  0
 20 21  1  0  0  0  0
 20 52  1  0  0  0  0
 20 53  1  0  0  0  0
 21 24  1  0  0  0  0
 21 25  1  0  0  0  0
 21 54  1  0  0  0  0
 22 26  1  0  0  0  0
 22 56  1  0  0  0  0
 23 27  2  0  0  0  0
 23 57  1  0  0  0  0
 24 58  1  0  0  0  0
 24 59  1  0  0  0  0
 24 60  1  0  0  0  0
 25 61  1  0  0  0  0
 25 62  1  0  0  0  0
 25 63  1  0  0  0  0
 26 29  2  0  0  0  0
 26 64  1  0  0  0  0
 27 29  1  0  0  0  0
 27 65  1  0  0  0  0
 28 30  1  0  0  0  0
 30 31  2  0  0  0  0
 30 32  1  0  0  0  0
 31 33  1  0  0  0  0
 31 66  1  0  0  0  0
 32 34  2  0  0  0  0
 32 67  1  0  0  0  0
 33 35  2  0  0  0  0
 33 36  1  0  0  0  0
 34 35  1  0  0  0  0
 34 68  1  0  0  0  0
 35 69  1  0  0  0  0
M  END
> <PUBCHEM_COMPOUND_CID>
508812
> <PUBCHEM_COMPOUND_CANONICALIZED>
1
> <PUBCHEM_CACTVS_COMPLEXITY>
705
> <PUBCHEM_CACTVS_HBOND_ACCEPTOR>
6
> <PUBCHEM_CACTVS_HBOND_DONOR>
2
> <PUBCHEM_CACTVS_ROTATABLE_BOND>
9
> <PUBCHEM_CACTVS_SUBSKEYS>
AAADcfB7MYAEAAAAAAAAAAAAAAAAAAAAAAA8YIAAAAAAAAABQAAAHwIQAAAADSrBmDQyAIPAAACIAiFSEACCAAAkBQAIiIGIBsgIYDKBlzGUIQhglgCIiYcYiECOBAACAAAAAAAIAAQAAAAAAAAAAAAAAA==
> <PUBCHEM_IUPAC_OPENEYE_NAME>
N-[1-[[1-[(4-chlorophenyl)methyl]-4-piperidyl]methylcarbamoyl]-3-methyl-butyl]-3-(trifluoromethyl)benzamide
> <PUBCHEM_IUPAC_CAS_NAME>
N-[1-[[1-[(4-chlorophenyl)methyl]-4-piperidinyl]methylamino]-4-methyl-1-oxopentan-2-yl]-3-(trifluoromethyl)benzamide
> <PUBCHEM_IUPAC_NAME_MARKUP>
<I>N</I>-[1-[[1-[(4-chlorophenyl)methyl]piperidin-4-yl]methylamino]-4-methyl-1-oxopentan-2-yl]-3-(trifluoromethyl)benzamide
> <PUBCHEM_IUPAC_NAME>
N-[1-[[1-[(4-chlorophenyl)methyl]piperidin-4-yl]methylamino]-4-methyl-1-oxopentan-2-yl]-3-(trifluoromethyl)benzamide
> <PUBCHEM_IUPAC_SYSTEMATIC_NAME>
N-[1-[[1-[(4-chlorophenyl)methyl]piperidin-4-yl]methylamino]-4-methyl-1-oxidanylidene-pentan-2-yl]-3-(trifluoromethyl)benzamide
> <PUBCHEM_IUPAC_TRADITIONAL_NAME>
N-[1-[[1-(4-chlorobenzyl)-4-piperidyl]methylcarbamoyl]-3-methyl-butyl]-3-(trifluoromethyl)benzamide
> <PUBCHEM_IUPAC_INCHI>
InChI=1S/C27H33ClF3N3O2/c1-18(2)14-24(33-25(35)21-4-3-5-22(15-21)27(29,30)31)26(36)32-16-19-10-12-34(13-11-19)17-20-6-8-23(28)9-7-20/h3-9,15,18-19,24H,10-14,16-17H2,1-2H3,(H,32,36)(H,33,35)
> <PUBCHEM_IUPAC_INCHIKEY>
UYZNKHHTEQOQLB-UHFFFAOYSA-N
> <PUBCHEM_XLOGP3_AA>
6.1
> <PUBCHEM_EXACT_MASS>
523.2213395
> <PUBCHEM_MOLECULAR_FORMULA>
C27H33ClF3N3O2
> <PUBCHEM_MOLECULAR_WEIGHT>
524.0
> <PUBCHEM_OPENEYE_CAN_SMILES>
CC(C)CC(C(=O)NCC1CCN(CC1)CC2=CC=C(C=C2)Cl)NC(=O)C3=CC(=CC=C3)C(F)(F)F
> <PUBCHEM_OPENEYE_ISO_SMILES>
CC(C)CC(C(=O)NCC1CCN(CC1)CC2=CC=C(C=C2)Cl)NC(=O)C3=CC(=CC=C3)C(F)(F)F
> <PUBCHEM_CACTVS_TPSA>
61.4
> <PUBCHEM_MONOISOTOPIC_WEIGHT>
523.2213395
> <PUBCHEM_TOTAL_CHARGE>
0
> <PUBCHEM_HEAVY_ATOM_COUNT>
36
> <PUBCHEM_ATOM_DEF_STEREO_COUNT>
0
> <PUBCHEM_ATOM_UDEF_STEREO_COUNT>
1
> <PUBCHEM_BOND_DEF_STEREO_COUNT>
0
> <PUBCHEM_BOND_UDEF_STEREO_COUNT>
0
> <PUBCHEM_ISOTOPIC_ATOM_COUNT>
0
> <PUBCHEM_COMPONENT_COUNT>
1
> <PUBCHEM_CACTVS_TAUTO_COUNT>
-1
> <PUBCHEM_COORDINATE_TYPE>
1
5
255
> <PUBCHEM_BONDANNOTATIONS>
17  20  3
18  22  8
18  23  8
22  26  8
23  27  8
26  29  8
27  29  8
30  31  8
30  32  8
31  33  8
32  34  8
33  35  8
34  35  8
$$$$
