508881
  -OEChem-10302200282D
 57 59  0     1  0  0  0  0  0999 V2000
    6.5010   -3.5702    0.0000 F   0  0  0  0  0  0  0  0  0  0  0  0
    6.8671   -4.9363    0.0000 F   0  0  0  0  0  0  0  0  0  0  0  0
    5.5010   -5.3023    0.0000 F   0  0  0  0  0  0  0  0  0  0  0  0
    6.8671    0.0637    0.0000 O   0  0  0  0  0  0  0  0  0  0  0  0
   12.3346    4.5978    0.0000 O   0  0  0  0  0  0  0  0  0  0  0  0
    3.4030   -0.9363    0.0000 O   0  0  0  0  0  0  0  0  0  0  0  0
    7.9497    3.2662    0.0000 N   0  0  3  0  0  0  0  0  0  0  0  0
    6.0010    1.5637    0.0000 N   0  0  0  0  0  0  0  0  0  0  0  0
    5.1350   -0.9363    0.0000 N   0  0  0  0  0  0  0  0  0  0  0  0
    2.5369   -2.4363    0.0000 N   0  0  0  0  0  0  0  0  0  0  0  0
    6.8671    2.0637    0.0000 C   0  0  2  0  0  0  0  0  0  0  0  0
    7.7806    1.6570    0.0000 C   0  0  0  0  0  0  0  0  0  0  0  0
    6.9716    3.0582    0.0000 C   0  0  0  0  0  0  0  0  0  0  0  0
    8.4497    2.4001    0.0000 C   0  0  0  0  0  0  0  0  0  0  0  0
    8.3565    4.1797    0.0000 C   0  0  0  0  0  0  0  0  0  0  0  0
    9.3510    4.2842    0.0000 C   0  0  0  0  0  0  0  0  0  0  0  0
    6.0010    0.5637    0.0000 C   0  0  0  0  0  0  0  0  0  0  0  0
    9.9388    3.4752    0.0000 C   0  0  0  0  0  0  0  0  0  0  0  0
    9.7577    5.1978    0.0000 C   0  0  0  0  0  0  0  0  0  0  0  0
    5.1350    0.0637    0.0000 C   0  0  0  0  0  0  0  0  0  0  0  0
   10.9333    3.5797    0.0000 C   0  0  0  0  0  0  0  0  0  0  0  0
   10.7523    5.3023    0.0000 C   0  0  0  0  0  0  0  0  0  0  0  0
   11.3400    4.4933    0.0000 C   0  0  0  0  0  0  0  0  0  0  0  0
   11.5211    2.7707    0.0000 C   0  0  0  0  0  0  0  0  0  0  0  0
    4.2690   -1.4363    0.0000 C   0  0  0  0  0  0  0  0  0  0  0  0
    4.2690   -2.4363    0.0000 C   0  0  0  0  0  0  0  0  0  0  0  0
    3.4030   -2.9363    0.0000 C   0  0  0  0  0  0  0  0  0  0  0  0
    5.1350   -2.9363    0.0000 C   0  0  0  0  0  0  0  0  0  0  0  0
    5.1350   -3.9363    0.0000 C   0  0  0  0  0  0  0  0  0  0  0  0
    3.4030   -3.9363    0.0000 C   0  0  0  0  0  0  0  0  0  0  0  0
    4.2690   -4.4363    0.0000 C   0  0  0  0  0  0  0  0  0  0  0  0
    6.0010   -4.4363    0.0000 C   0  0  0  0  0  0  0  0  0  0  0  0
    6.8995    1.4446    0.0000 H   0  0  0  0  0  0  0  0  0  0  0  0
    7.4706    1.1200    0.0000 H   0  0  0  0  0  0  0  0  0  0  0  0
    8.2822    1.2926    0.0000 H   0  0  0  0  0  0  0  0  0  0  0  0
    6.9068    3.6748    0.0000 H   0  0  0  0  0  0  0  0  0  0  0  0
    6.3516    3.0582    0.0000 H   0  0  0  0  0  0  0  0  0  0  0  0
    8.8646    1.9394    0.0000 H   0  0  0  0  0  0  0  0  0  0  0  0
    8.9513    2.7646    0.0000 H   0  0  0  0  0  0  0  0  0  0  0  0
    8.3997    4.7982    0.0000 H   0  0  0  0  0  0  0  0  0  0  0  0
    7.7549    4.3297    0.0000 H   0  0  0  0  0  0  0  0  0  0  0  0
    5.4641    1.8737    0.0000 H   0  0  0  0  0  0  0  0  0  0  0  0
    9.6866    2.9088    0.0000 H   0  0  0  0  0  0  0  0  0  0  0  0
    9.3933    5.6994    0.0000 H   0  0  0  0  0  0  0  0  0  0  0  0
    4.9230    0.6463    0.0000 H   0  0  0  0  0  0  0  0  0  0  0  0
    4.5244   -0.0439    0.0000 H   0  0  0  0  0  0  0  0  0  0  0  0
   11.0044    5.8687    0.0000 H   0  0  0  0  0  0  0  0  0  0  0  0
    5.6720   -1.2463    0.0000 H   0  0  0  0  0  0  0  0  0  0  0  0
   11.0195    2.4063    0.0000 H   0  0  0  0  0  0  0  0  0  0  0  0
   11.8855    2.2691    0.0000 H   0  0  0  0  0  0  0  0  0  0  0  0
   12.0227    3.1352    0.0000 H   0  0  0  0  0  0  0  0  0  0  0  0
   12.5867    5.1642    0.0000 H   0  0  0  0  0  0  0  0  0  0  0  0
    5.6720   -2.6263    0.0000 H   0  0  0  0  0  0  0  0  0  0  0  0
    2.8660   -4.2463    0.0000 H   0  0  0  0  0  0  0  0  0  0  0  0
    4.2690   -5.0563    0.0000 H   0  0  0  0  0  0  0  0  0  0  0  0
    2.0000   -2.7463    0.0000 H   0  0  0  0  0  0  0  0  0  0  0  0
    2.5369   -1.8163    0.0000 H   0  0  0  0  0  0  0  0  0  0  0  0
  1 32  1  0  0  0  0
  2 32  1  0  0  0  0
  3 32  1  0  0  0  0
  4 17  2  0  0  0  0
  5 23  1  0  0  0  0
  5 52  1  0  0  0  0
  6 25  2  0  0  0  0
  7 13  1  0  0  0  0
  7 14  1  0  0  0  0
  7 15  1  0  0  0  0
 11  8  1  1  0  0  0
  8 17  1  0  0  0  0
  8 42  1  0  0  0  0
  9 20  1  0  0  0  0
  9 25  1  0  0  0  0
  9 48  1  0  0  0  0
 10 27  1  0  0  0  0
 10 56  1  0  0  0  0
 10 57  1  0  0  0  0
 11 12  1  0  0  0  0
 11 13  1  0  0  0  0
 11 33  1  0  0  0  0
 12 14  1  0  0  0  0
 12 34  1  0  0  0  0
 12 35  1  0  0  0  0
 13 36  1  0  0  0  0
 13 37  1  0  0  0  0
 14 38  1  0  0  0  0
 14 39  1  0  0  0  0
 15 16  1  0  0  0  0
 15 40  1  0  0  0  0
 15 41  1  0  0  0  0
 16 18  2  0  0  0  0
 16 19  1  0  0  0  0
 17 20  1  0  0  0  0
 18 21  1  0  0  0  0
 18 43  1  0  0  0  0
 19 22  2  0  0  0  0
 19 44  1  0  0  0  0
 20 45  1  0  0  0  0
 20 46  1  0  0  0  0
 21 23  2  0  0  0  0
 21 24  1  0  0  0  0
 22 23  1  0  0  0  0
 22 47  1  0  0  0  0
 24 49  1  0  0  0  0
 24 50  1  0  0  0  0
 24 51  1  0  0  0  0
 25 26  1  0  0  0  0
 26 27  2  0  0  0  0
 26 28  1  0  0  0  0
 27 30  1  0  0  0  0
 28 29  2  0  0  0  0
 28 53  1  0  0  0  0
 29 31  1  0  0  0  0
 29 32  1  0  0  0  0
 30 31  2  0  0  0  0
 30 54  1  0  0  0  0
 31 55  1  0  0  0  0
M  END
> <PUBCHEM_COMPOUND_CID>
508881
> <PUBCHEM_COMPOUND_CANONICALIZED>
1
> <PUBCHEM_CACTVS_COMPLEXITY>
663
> <PUBCHEM_CACTVS_HBOND_ACCEPTOR>
8
> <PUBCHEM_CACTVS_HBOND_DONOR>
4
> <PUBCHEM_CACTVS_ROTATABLE_BOND>
6
> <PUBCHEM_CACTVS_SUBSKEYS>
AAADceB7sYAAAAAAAAAAAAAAAAAAAWAAAAAwYAAAAAAAAAABQAAAHwAQCAAADCzBmBQyxoPAAgCIAiVSUACCAAAkIgAIiIGObMgIZjqC1bOUcYhk1hGI2ceY2GKOKAACAAAKAABQAAQAABQAAAAAAAAAAA==
> <PUBCHEM_IUPAC_OPENEYE_NAME>
2-amino-N-[2-[[(3R)-1-[(4-hydroxy-3-methyl-phenyl)methyl]pyrrolidin-3-yl]amino]-2-oxo-ethyl]-5-(trifluoromethyl)benzamide
> <PUBCHEM_IUPAC_CAS_NAME>
2-amino-N-[2-[[(3R)-1-[(4-hydroxy-3-methylphenyl)methyl]-3-pyrrolidinyl]amino]-2-oxoethyl]-5-(trifluoromethyl)benzamide
> <PUBCHEM_IUPAC_NAME_MARKUP>
2-amino-<I>N</I>-[2-[[(3<I>R</I>)-1-[(4-hydroxy-3-methylphenyl)methyl]pyrrolidin-3-yl]amino]-2-oxoethyl]-5-(trifluoromethyl)benzamide
> <PUBCHEM_IUPAC_NAME>
2-amino-N-[2-[[(3R)-1-[(4-hydroxy-3-methylphenyl)methyl]pyrrolidin-3-yl]amino]-2-oxoethyl]-5-(trifluoromethyl)benzamide
> <PUBCHEM_IUPAC_SYSTEMATIC_NAME>
2-azanyl-N-[2-[[(3R)-1-[(3-methyl-4-oxidanyl-phenyl)methyl]pyrrolidin-3-yl]amino]-2-oxidanylidene-ethyl]-5-(trifluoromethyl)benzamide
> <PUBCHEM_IUPAC_TRADITIONAL_NAME>
2-amino-N-[2-[[(3R)-1-(4-hydroxy-3-methyl-benzyl)pyrrolidin-3-yl]amino]-2-keto-ethyl]-5-(trifluoromethyl)benzamide
> <PUBCHEM_IUPAC_INCHI>
InChI=1S/C22H25F3N4O3/c1-13-8-14(2-5-19(13)30)11-29-7-6-16(12-29)28-20(31)10-27-21(32)17-9-15(22(23,24)25)3-4-18(17)26/h2-5,8-9,16,30H,6-7,10-12,26H2,1H3,(H,27,32)(H,28,31)/t16-/m1/s1
> <PUBCHEM_IUPAC_INCHIKEY>
YNJOSZXFYNVAPL-MRXNPFEDSA-N
> <PUBCHEM_XLOGP3_AA>
3
> <PUBCHEM_EXACT_MASS>
450.18787516
> <PUBCHEM_MOLECULAR_FORMULA>
C22H25F3N4O3
> <PUBCHEM_MOLECULAR_WEIGHT>
450.5
> <PUBCHEM_OPENEYE_CAN_SMILES>
CC1=C(C=CC(=C1)CN2CCC(C2)NC(=O)CNC(=O)C3=C(C=CC(=C3)C(F)(F)F)N)O
> <PUBCHEM_OPENEYE_ISO_SMILES>
CC1=C(C=CC(=C1)CN2CC[C@H](C2)NC(=O)CNC(=O)C3=C(C=CC(=C3)C(F)(F)F)N)O
> <PUBCHEM_CACTVS_TPSA>
108
> <PUBCHEM_MONOISOTOPIC_WEIGHT>
450.18787516
> <PUBCHEM_TOTAL_CHARGE>
0
> <PUBCHEM_HEAVY_ATOM_COUNT>
32
> <PUBCHEM_ATOM_DEF_STEREO_COUNT>
1
> <PUBCHEM_ATOM_UDEF_STEREO_COUNT>
0
> <PUBCHEM_BOND_DEF_STEREO_COUNT>
0
> <PUBCHEM_BOND_UDEF_STEREO_COUNT>
0
> <PUBCHEM_ISOTOPIC_ATOM_COUNT>
0
> <PUBCHEM_COMPONENT_COUNT>
1
> <PUBCHEM_CACTVS_TAUTO_COUNT>
-1
> <PUBCHEM_COORDINATE_TYPE>
1
5
255
> <PUBCHEM_BONDANNOTATIONS>
16  18  8
16  19  8
18  21  8
19  22  8
21  23  8
22  23  8
26  27  8
26  28  8
27  30  8
28  29  8
29  31  8
30  31  8
11  8  5
$$$$
