508834
  -OEChem-10302200282D
 51 53  0     1  0  0  0  0  0999 V2000
    5.2731    5.9244    0.0000 F   0  0  0  0  0  0  0  0  0  0  0  0
    6.2731    6.9244    0.0000 F   0  0  0  0  0  0  0  0  0  0  0  0
    7.2731    5.9244    0.0000 F   0  0  0  0  0  0  0  0  0  0  0  0
    3.9901   -5.2031    0.0000 O   0  0  0  0  0  0  0  0  0  0  0  0
    4.5411   -0.0756    0.0000 O   0  0  0  0  0  0  0  0  0  0  0  0
    3.6750    3.4244    0.0000 O   0  0  0  0  0  0  0  0  0  0  0  0
    3.3090   -2.6145    0.0000 N   0  0  3  0  0  0  0  0  0  0  0  0
    2.8090   -0.0756    0.0000 N   0  0  0  0  0  0  0  0  0  0  0  0
    4.5411    1.9244    0.0000 N   0  0  0  0  0  0  0  0  0  0  0  0
    2.8090   -1.0756    0.0000 C   0  0  2  0  0  0  0  0  0  0  0  0
    2.0000   -1.6634    0.0000 C   0  0  0  0  0  0  0  0  0  0  0  0
    3.6180   -1.6634    0.0000 C   0  0  0  0  0  0  0  0  0  0  0  0
    2.3090   -2.6145    0.0000 C   0  0  0  0  0  0  0  0  0  0  0  0
    3.8968   -3.4235    0.0000 C   0  0  0  0  0  0  0  0  0  0  0  0
    3.4901   -4.3370    0.0000 C   0  0  0  0  0  0  0  0  0  0  0  0
    3.6750    0.4244    0.0000 C   0  0  0  0  0  0  0  0  0  0  0  0
    2.5119   -4.5450    0.0000 C   0  0  0  0  0  0  0  0  0  0  0  0
    3.6750    1.4244    0.0000 C   0  0  0  0  0  0  0  0  0  0  0  0
    3.3209   -5.9462    0.0000 C   0  0  0  0  0  0  0  0  0  0  0  0
    2.4074   -5.5395    0.0000 C   0  0  0  0  0  0  0  0  0  0  0  0
    3.5288   -6.9244    0.0000 C   0  0  0  0  0  0  0  0  0  0  0  0
    4.5411    2.9244    0.0000 C   0  0  0  0  0  0  0  0  0  0  0  0
    5.4071    3.4244    0.0000 C   0  0  0  0  0  0  0  0  0  0  0  0
    5.4071    4.4244    0.0000 C   0  0  0  0  0  0  0  0  0  0  0  0
    6.2731    2.9244    0.0000 C   0  0  0  0  0  0  0  0  0  0  0  0
    6.2731    4.9244    0.0000 C   0  0  0  0  0  0  0  0  0  0  0  0
    7.1391    3.4244    0.0000 C   0  0  0  0  0  0  0  0  0  0  0  0
    7.1391    4.4244    0.0000 C   0  0  0  0  0  0  0  0  0  0  0  0
    6.2731    5.9244    0.0000 C   0  0  0  0  0  0  0  0  0  0  0  0
    3.3614   -0.7942    0.0000 H   0  0  0  0  0  0  0  0  0  0  0  0
    1.6900   -1.1265    0.0000 H   0  0  0  0  0  0  0  0  0  0  0  0
    1.4336   -1.9156    0.0000 H   0  0  0  0  0  0  0  0  0  0  0  0
    4.1844   -1.9156    0.0000 H   0  0  0  0  0  0  0  0  0  0  0  0
    3.9280   -1.1265    0.0000 H   0  0  0  0  0  0  0  0  0  0  0  0
    1.7026   -2.7434    0.0000 H   0  0  0  0  0  0  0  0  0  0  0  0
    2.3738   -3.2311    0.0000 H   0  0  0  0  0  0  0  0  0  0  0  0
    4.4108   -3.7702    0.0000 H   0  0  0  0  0  0  0  0  0  0  0  0
    4.3275   -2.9775    0.0000 H   0  0  0  0  0  0  0  0  0  0  0  0
    2.2721    0.2344    0.0000 H   0  0  0  0  0  0  0  0  0  0  0  0
    2.0512   -4.1301    0.0000 H   0  0  0  0  0  0  0  0  0  0  0  0
    3.4630    2.0070    0.0000 H   0  0  0  0  0  0  0  0  0  0  0  0
    3.0645    1.3167    0.0000 H   0  0  0  0  0  0  0  0  0  0  0  0
    1.8704   -5.8495    0.0000 H   0  0  0  0  0  0  0  0  0  0  0  0
    5.0780    1.6144    0.0000 H   0  0  0  0  0  0  0  0  0  0  0  0
    2.9224   -7.0533    0.0000 H   0  0  0  0  0  0  0  0  0  0  0  0
    3.6578   -7.5308    0.0000 H   0  0  0  0  0  0  0  0  0  0  0  0
    4.1353   -6.7955    0.0000 H   0  0  0  0  0  0  0  0  0  0  0  0
    4.8702    4.7344    0.0000 H   0  0  0  0  0  0  0  0  0  0  0  0
    6.2731    2.3044    0.0000 H   0  0  0  0  0  0  0  0  0  0  0  0
    7.6761    3.1144    0.0000 H   0  0  0  0  0  0  0  0  0  0  0  0
    7.6761    4.7344    0.0000 H   0  0  0  0  0  0  0  0  0  0  0  0
  1 29  1  0  0  0  0
  2 29  1  0  0  0  0
  3 29  1  0  0  0  0
  4 15  1  0  0  0  0
  4 19  1  0  0  0  0
  5 16  2  0  0  0  0
  6 22  2  0  0  0  0
  7 12  1  0  0  0  0
  7 13  1  0  0  0  0
  7 14  1  0  0  0  0
 10  8  1  1  0  0  0
  8 16  1  0  0  0  0
  8 39  1  0  0  0  0
  9 18  1  0  0  0  0
  9 22  1  0  0  0  0
  9 44  1  0  0  0  0
 10 11  1  0  0  0  0
 10 12  1  0  0  0  0
 10 30  1  0  0  0  0
 11 13  1  0  0  0  0
 11 31  1  0  0  0  0
 11 32  1  0  0  0  0
 12 33  1  0  0  0  0
 12 34  1  0  0  0  0
 13 35  1  0  0  0  0
 13 36  1  0  0  0  0
 14 15  1  0  0  0  0
 14 37  1  0  0  0  0
 14 38  1  0  0  0  0
 15 17  2  0  0  0  0
 16 18  1  0  0  0  0
 17 20  1  0  0  0  0
 17 40  1  0  0  0  0
 18 41  1  0  0  0  0
 18 42  1  0  0  0  0
 19 20  2  0  0  0  0
 19 21  1  0  0  0  0
 20 43  1  0  0  0  0
 21 45  1  0  0  0  0
 21 46  1  0  0  0  0
 21 47  1  0  0  0  0
 22 23  1  0  0  0  0
 23 24  2  0  0  0  0
 23 25  1  0  0  0  0
 24 26  1  0  0  0  0
 24 48  1  0  0  0  0
 25 27  2  0  0  0  0
 25 49  1  0  0  0  0
 26 28  2  0  0  0  0
 26 29  1  0  0  0  0
 27 28  1  0  0  0  0
 27 50  1  0  0  0  0
 28 51  1  0  0  0  0
M  END
> <PUBCHEM_COMPOUND_CID>
508834
> <PUBCHEM_COMPOUND_CANONICALIZED>
1
> <PUBCHEM_CACTVS_COMPLEXITY>
587
> <PUBCHEM_CACTVS_HBOND_ACCEPTOR>
7
> <PUBCHEM_CACTVS_HBOND_DONOR>
2
> <PUBCHEM_CACTVS_ROTATABLE_BOND>
6
> <PUBCHEM_CACTVS_SUBSKEYS>
AAADceB7MYAAAAAAAAAAAAAAAAAAAWJAAAAwAAAAAAAAAAABwAAAHwAQAAAADCzBmBQyBIPABECIAqFSEACCCAAkIAAIiIGODMgOZjKE9TuXOSjk1hGYqYeYmUKOAAACAAAAAAAAAAQAAAAAAAAAAAAAAA==
> <PUBCHEM_IUPAC_OPENEYE_NAME>
N-[2-[[(3R)-1-[(5-methyl-2-furyl)methyl]pyrrolidin-3-yl]amino]-2-oxo-ethyl]-3-(trifluoromethyl)benzamide
> <PUBCHEM_IUPAC_CAS_NAME>
N-[2-[[(3R)-1-[(5-methyl-2-furanyl)methyl]-3-pyrrolidinyl]amino]-2-oxoethyl]-3-(trifluoromethyl)benzamide
> <PUBCHEM_IUPAC_NAME_MARKUP>
<I>N</I>-[2-[[(3<I>R</I>)-1-[(5-methylfuran-2-yl)methyl]pyrrolidin-3-yl]amino]-2-oxoethyl]-3-(trifluoromethyl)benzamide
> <PUBCHEM_IUPAC_NAME>
N-[2-[[(3R)-1-[(5-methylfuran-2-yl)methyl]pyrrolidin-3-yl]amino]-2-oxoethyl]-3-(trifluoromethyl)benzamide
> <PUBCHEM_IUPAC_SYSTEMATIC_NAME>
N-[2-[[(3R)-1-[(5-methylfuran-2-yl)methyl]pyrrolidin-3-yl]amino]-2-oxidanylidene-ethyl]-3-(trifluoromethyl)benzamide
> <PUBCHEM_IUPAC_TRADITIONAL_NAME>
N-[2-keto-2-[[(3R)-1-[(5-methyl-2-furyl)methyl]pyrrolidin-3-yl]amino]ethyl]-3-(trifluoromethyl)benzamide
> <PUBCHEM_IUPAC_INCHI>
InChI=1S/C20H22F3N3O3/c1-13-5-6-17(29-13)12-26-8-7-16(11-26)25-18(27)10-24-19(28)14-3-2-4-15(9-14)20(21,22)23/h2-6,9,16H,7-8,10-12H2,1H3,(H,24,28)(H,25,27)/t16-/m1/s1
> <PUBCHEM_IUPAC_INCHIKEY>
QYCCRJWFASLQIQ-MRXNPFEDSA-N
> <PUBCHEM_XLOGP3_AA>
2.7
> <PUBCHEM_EXACT_MASS>
409.16132606
> <PUBCHEM_MOLECULAR_FORMULA>
C20H22F3N3O3
> <PUBCHEM_MOLECULAR_WEIGHT>
409.4
> <PUBCHEM_OPENEYE_CAN_SMILES>
CC1=CC=C(O1)CN2CCC(C2)NC(=O)CNC(=O)C3=CC(=CC=C3)C(F)(F)F
> <PUBCHEM_OPENEYE_ISO_SMILES>
CC1=CC=C(O1)CN2CC[C@H](C2)NC(=O)CNC(=O)C3=CC(=CC=C3)C(F)(F)F
> <PUBCHEM_CACTVS_TPSA>
74.6
> <PUBCHEM_MONOISOTOPIC_WEIGHT>
409.16132606
> <PUBCHEM_TOTAL_CHARGE>
0
> <PUBCHEM_HEAVY_ATOM_COUNT>
29
> <PUBCHEM_ATOM_DEF_STEREO_COUNT>
1
> <PUBCHEM_ATOM_UDEF_STEREO_COUNT>
0
> <PUBCHEM_BOND_DEF_STEREO_COUNT>
0
> <PUBCHEM_BOND_UDEF_STEREO_COUNT>
0
> <PUBCHEM_ISOTOPIC_ATOM_COUNT>
0
> <PUBCHEM_COMPONENT_COUNT>
1
> <PUBCHEM_CACTVS_TAUTO_COUNT>
-1
> <PUBCHEM_COORDINATE_TYPE>
1
5
255
> <PUBCHEM_BONDANNOTATIONS>
15  17  8
17  20  8
19  20  8
23  24  8
23  25  8
24  26  8
25  27  8
26  28  8
27  28  8
4  15  8
4  19  8
10  8  5
$$$$
