508889
  -OEChem-10302200282D
 50 52  0     1  0  0  0  0  0999 V2000
    6.0010   -4.8693    0.0000 I   0  0  0  0  0  0  0  0  0  0  0  0
   12.3346    4.1648    0.0000 Br  0  0  0  0  0  0  0  0  0  0  0  0
    6.8671   -0.3693    0.0000 O   0  0  0  0  0  0  0  0  0  0  0  0
    3.4030   -1.3693    0.0000 O   0  0  0  0  0  0  0  0  0  0  0  0
    7.9497    2.8331    0.0000 N   0  0  3  0  0  0  0  0  0  0  0  0
    6.0010    1.1307    0.0000 N   0  0  0  0  0  0  0  0  0  0  0  0
    5.1350   -1.3693    0.0000 N   0  0  0  0  0  0  0  0  0  0  0  0
    2.5369   -2.8693    0.0000 N   0  0  0  0  0  0  0  0  0  0  0  0
    6.8671    1.6307    0.0000 C   0  0  2  0  0  0  0  0  0  0  0  0
    7.7806    1.2240    0.0000 C   0  0  0  0  0  0  0  0  0  0  0  0
    6.9716    2.6252    0.0000 C   0  0  0  0  0  0  0  0  0  0  0  0
    8.4497    1.9671    0.0000 C   0  0  0  0  0  0  0  0  0  0  0  0
    8.3565    3.7467    0.0000 C   0  0  0  0  0  0  0  0  0  0  0  0
    9.3510    3.8512    0.0000 C   0  0  0  0  0  0  0  0  0  0  0  0
    6.0010    0.1307    0.0000 C   0  0  0  0  0  0  0  0  0  0  0  0
    5.1350   -0.3693    0.0000 C   0  0  0  0  0  0  0  0  0  0  0  0
    9.7577    4.7648    0.0000 C   0  0  0  0  0  0  0  0  0  0  0  0
    9.9388    3.0422    0.0000 C   0  0  0  0  0  0  0  0  0  0  0  0
   10.7523    4.8693    0.0000 C   0  0  0  0  0  0  0  0  0  0  0  0
   10.9333    3.1467    0.0000 C   0  0  0  0  0  0  0  0  0  0  0  0
   11.3400    4.0603    0.0000 C   0  0  0  0  0  0  0  0  0  0  0  0
    4.2690   -1.8693    0.0000 C   0  0  0  0  0  0  0  0  0  0  0  0
    4.2690   -2.8693    0.0000 C   0  0  0  0  0  0  0  0  0  0  0  0
    3.4030   -3.3693    0.0000 C   0  0  0  0  0  0  0  0  0  0  0  0
    5.1350   -3.3693    0.0000 C   0  0  0  0  0  0  0  0  0  0  0  0
    3.4030   -4.3693    0.0000 C   0  0  0  0  0  0  0  0  0  0  0  0
    5.1350   -4.3693    0.0000 C   0  0  0  0  0  0  0  0  0  0  0  0
    4.2690   -4.8693    0.0000 C   0  0  0  0  0  0  0  0  0  0  0  0
    6.3471    1.9684    0.0000 H   0  0  0  0  0  0  0  0  0  0  0  0
    7.4706    0.6870    0.0000 H   0  0  0  0  0  0  0  0  0  0  0  0
    8.2822    0.8595    0.0000 H   0  0  0  0  0  0  0  0  0  0  0  0
    6.9068    3.2418    0.0000 H   0  0  0  0  0  0  0  0  0  0  0  0
    6.3516    2.6252    0.0000 H   0  0  0  0  0  0  0  0  0  0  0  0
    8.8646    1.5064    0.0000 H   0  0  0  0  0  0  0  0  0  0  0  0
    8.9513    2.3315    0.0000 H   0  0  0  0  0  0  0  0  0  0  0  0
    8.3997    4.3652    0.0000 H   0  0  0  0  0  0  0  0  0  0  0  0
    7.7549    3.8967    0.0000 H   0  0  0  0  0  0  0  0  0  0  0  0
    5.4641    1.4407    0.0000 H   0  0  0  0  0  0  0  0  0  0  0  0
    4.9230    0.2133    0.0000 H   0  0  0  0  0  0  0  0  0  0  0  0
    4.5244   -0.4770    0.0000 H   0  0  0  0  0  0  0  0  0  0  0  0
    9.3933    5.2664    0.0000 H   0  0  0  0  0  0  0  0  0  0  0  0
    9.6866    2.4758    0.0000 H   0  0  0  0  0  0  0  0  0  0  0  0
   11.0044    5.4357    0.0000 H   0  0  0  0  0  0  0  0  0  0  0  0
   11.2977    2.6451    0.0000 H   0  0  0  0  0  0  0  0  0  0  0  0
    5.6720   -1.6793    0.0000 H   0  0  0  0  0  0  0  0  0  0  0  0
    5.6720   -3.0593    0.0000 H   0  0  0  0  0  0  0  0  0  0  0  0
    2.8660   -4.6793    0.0000 H   0  0  0  0  0  0  0  0  0  0  0  0
    4.2690   -5.4893    0.0000 H   0  0  0  0  0  0  0  0  0  0  0  0
    2.0000   -3.1793    0.0000 H   0  0  0  0  0  0  0  0  0  0  0  0
    2.5369   -2.2493    0.0000 H   0  0  0  0  0  0  0  0  0  0  0  0
  1 27  1  0  0  0  0
  2 21  1  0  0  0  0
  3 15  2  0  0  0  0
  4 22  2  0  0  0  0
  5 11  1  0  0  0  0
  5 12  1  0  0  0  0
  5 13  1  0  0  0  0
  9  6  1  1  0  0  0
  6 15  1  0  0  0  0
  6 38  1  0  0  0  0
  7 16  1  0  0  0  0
  7 22  1  0  0  0  0
  7 45  1  0  0  0  0
  8 24  1  0  0  0  0
  8 49  1  0  0  0  0
  8 50  1  0  0  0  0
  9 10  1  0  0  0  0
  9 11  1  0  0  0  0
  9 29  1  0  0  0  0
 10 12  1  0  0  0  0
 10 30  1  0  0  0  0
 10 31  1  0  0  0  0
 11 32  1  0  0  0  0
 11 33  1  0  0  0  0
 12 34  1  0  0  0  0
 12 35  1  0  0  0  0
 13 14  1  0  0  0  0
 13 36  1  0  0  0  0
 13 37  1  0  0  0  0
 14 17  2  0  0  0  0
 14 18  1  0  0  0  0
 15 16  1  0  0  0  0
 16 39  1  0  0  0  0
 16 40  1  0  0  0  0
 17 19  1  0  0  0  0
 17 41  1  0  0  0  0
 18 20  2  0  0  0  0
 18 42  1  0  0  0  0
 19 21  2  0  0  0  0
 19 43  1  0  0  0  0
 20 21  1  0  0  0  0
 20 44  1  0  0  0  0
 22 23  1  0  0  0  0
 23 24  2  0  0  0  0
 23 25  1  0  0  0  0
 24 26  1  0  0  0  0
 25 27  2  0  0  0  0
 25 46  1  0  0  0  0
 26 28  2  0  0  0  0
 26 47  1  0  0  0  0
 27 28  1  0  0  0  0
 28 48  1  0  0  0  0
M  END
> <PUBCHEM_COMPOUND_CID>
508889
> <PUBCHEM_COMPOUND_CANONICALIZED>
1
> <PUBCHEM_CACTVS_COMPLEXITY>
544
> <PUBCHEM_CACTVS_HBOND_ACCEPTOR>
4
> <PUBCHEM_CACTVS_HBOND_DONOR>
3
> <PUBCHEM_CACTVS_ROTATABLE_BOND>
6
> <PUBCHEM_CACTVS_SUBSKEYS>
AAADceB7sAAAEgAAAAAAAAAAAAAAAWAAAAAwYAAAAAAAAAABQAAAHgBwAAABrCjDmAQwwIPAAACIAiVSUACCAAAkAgQIiIGIZOgIYDqA1bGUIYhglgCIy9cYiACOAgAAAAACAAAEAAAAAAQAAAAAAAAAAA==
> <PUBCHEM_IUPAC_OPENEYE_NAME>
2-amino-N-[2-[[(3R)-1-[(4-bromophenyl)methyl]pyrrolidin-3-yl]amino]-2-oxo-ethyl]-5-iodo-benzamide
> <PUBCHEM_IUPAC_CAS_NAME>
2-amino-N-[2-[[(3R)-1-[(4-bromophenyl)methyl]-3-pyrrolidinyl]amino]-2-oxoethyl]-5-iodobenzamide
> <PUBCHEM_IUPAC_NAME_MARKUP>
2-amino-<I>N</I>-[2-[[(3<I>R</I>)-1-[(4-bromophenyl)methyl]pyrrolidin-3-yl]amino]-2-oxoethyl]-5-iodobenzamide
> <PUBCHEM_IUPAC_NAME>
2-amino-N-[2-[[(3R)-1-[(4-bromophenyl)methyl]pyrrolidin-3-yl]amino]-2-oxoethyl]-5-iodobenzamide
> <PUBCHEM_IUPAC_SYSTEMATIC_NAME>
2-azanyl-N-[2-[[(3R)-1-[(4-bromophenyl)methyl]pyrrolidin-3-yl]amino]-2-oxidanylidene-ethyl]-5-iodanyl-benzamide
> <PUBCHEM_IUPAC_TRADITIONAL_NAME>
2-amino-N-[2-[[(3R)-1-(4-bromobenzyl)pyrrolidin-3-yl]amino]-2-keto-ethyl]-5-iodo-benzamide
> <PUBCHEM_IUPAC_INCHI>
InChI=1S/C20H22BrIN4O2/c21-14-3-1-13(2-4-14)11-26-8-7-16(12-26)25-19(27)10-24-20(28)17-9-15(22)5-6-18(17)23/h1-6,9,16H,7-8,10-12,23H2,(H,24,28)(H,25,27)/t16-/m1/s1
> <PUBCHEM_IUPAC_INCHIKEY>
SJYNZHQHQHNROL-MRXNPFEDSA-N
> <PUBCHEM_XLOGP3_AA>
3.5
> <PUBCHEM_EXACT_MASS>
555.99709
> <PUBCHEM_MOLECULAR_FORMULA>
C20H22BrIN4O2
> <PUBCHEM_MOLECULAR_WEIGHT>
557.2
> <PUBCHEM_OPENEYE_CAN_SMILES>
C1CN(CC1NC(=O)CNC(=O)C2=C(C=CC(=C2)I)N)CC3=CC=C(C=C3)Br
> <PUBCHEM_OPENEYE_ISO_SMILES>
C1CN(C[C@@H]1NC(=O)CNC(=O)C2=C(C=CC(=C2)I)N)CC3=CC=C(C=C3)Br
> <PUBCHEM_CACTVS_TPSA>
87.5
> <PUBCHEM_MONOISOTOPIC_WEIGHT>
555.99709
> <PUBCHEM_TOTAL_CHARGE>
0
> <PUBCHEM_HEAVY_ATOM_COUNT>
28
> <PUBCHEM_ATOM_DEF_STEREO_COUNT>
1
> <PUBCHEM_ATOM_UDEF_STEREO_COUNT>
0
> <PUBCHEM_BOND_DEF_STEREO_COUNT>
0
> <PUBCHEM_BOND_UDEF_STEREO_COUNT>
0
> <PUBCHEM_ISOTOPIC_ATOM_COUNT>
0
> <PUBCHEM_COMPONENT_COUNT>
1
> <PUBCHEM_CACTVS_TAUTO_COUNT>
-1
> <PUBCHEM_COORDINATE_TYPE>
1
5
255
> <PUBCHEM_BONDANNOTATIONS>
14  17  8
14  18  8
17  19  8
18  20  8
19  21  8
20  21  8
23  24  8
23  25  8
24  26  8
25  27  8
26  28  8
27  28  8
9  6  5
$$$$
