508876
  -OEChem-10302200282D
 61 63  0     1  0  0  0  0  0999 V2000
    2.0000   -3.0000    0.0000 Cl  0  0  0  0  0  0  0  0  0  0  0  0
    3.2320   -2.1340    0.0000 F   0  0  0  0  0  0  0  0  0  0  0  0
    4.2320   -3.8661    0.0000 F   0  0  0  0  0  0  0  0  0  0  0  0
    2.8660   -4.5000    0.0000 F   0  0  0  0  0  0  0  0  0  0  0  0
   12.9948    3.8841    0.0000 O   0  0  0  0  0  0  0  0  0  0  0  0
    8.9282   -0.0000    0.0000 O   0  0  0  0  0  0  0  0  0  0  0  0
    5.4641   -1.0000    0.0000 O   0  0  0  0  0  0  0  0  0  0  0  0
    4.5981   -2.5000    0.0000 O   0  0  0  0  0  0  0  0  0  0  0  0
    6.3301   -5.5000    0.0000 O   0  0  0  0  0  0  0  0  0  0  0  0
   10.0109    3.2024    0.0000 N   0  0  3  0  0  0  0  0  0  0  0  0
    8.0622    1.5000    0.0000 N   0  0  0  0  0  0  0  0  0  0  0  0
   12.8903    4.8786    0.0000 N   0  0  0  0  0  0  0  0  0  0  0  0
    7.1962   -1.0000    0.0000 N   0  0  0  0  0  0  0  0  0  0  0  0
    8.9282    2.0000    0.0000 C   0  0  1  0  0  0  0  0  0  0  0  0
    9.0327    2.9945    0.0000 C   0  0  0  0  0  0  0  0  0  0  0  0
    9.8418    1.5932    0.0000 C   0  0  0  0  0  0  0  0  0  0  0  0
   10.5109    2.3364    0.0000 C   0  0  0  0  0  0  0  0  0  0  0  0
   10.4176    4.1159    0.0000 C   0  0  0  0  0  0  0  0  0  0  0  0
   11.4121    4.2205    0.0000 C   0  0  0  0  0  0  0  0  0  0  0  0
    8.0622    0.5000    0.0000 C   0  0  0  0  0  0  0  0  0  0  0  0
   12.0813    3.4773    0.0000 C   0  0  0  0  0  0  0  0  0  0  0  0
   11.9121    5.0865    0.0000 C   0  0  0  0  0  0  0  0  0  0  0  0
    7.1962   -0.0000    0.0000 C   0  0  0  0  0  0  0  0  0  0  0  0
   11.8734    2.4992    0.0000 C   0  0  0  0  0  0  0  0  0  0  0  0
   11.5054    6.0000    0.0000 C   0  0  0  0  0  0  0  0  0  0  0  0
    6.3301   -1.5000    0.0000 C   0  0  0  0  0  0  0  0  0  0  0  0
    6.3301   -2.5000    0.0000 C   0  0  0  0  0  0  0  0  0  0  0  0
    5.4641   -3.0000    0.0000 C   0  0  0  0  0  0  0  0  0  0  0  0
    7.1962   -3.0000    0.0000 C   0  0  0  0  0  0  0  0  0  0  0  0
    5.4641   -4.0000    0.0000 C   0  0  0  0  0  0  0  0  0  0  0  0
    7.1962   -4.0000    0.0000 C   0  0  0  0  0  0  0  0  0  0  0  0
    6.3301   -4.5000    0.0000 C   0  0  0  0  0  0  0  0  0  0  0  0
    3.7320   -3.0000    0.0000 C   0  0  0  0  0  0  0  0  0  0  0  0
    2.8660   -3.5000    0.0000 C   0  0  3  0  0  0  0  0  0  0  0  0
    7.1962   -6.0000    0.0000 C   0  0  0  0  0  0  0  0  0  0  0  0
    8.9606    1.3808    0.0000 H   0  0  0  0  0  0  0  0  0  0  0  0
    8.9679    3.6111    0.0000 H   0  0  0  0  0  0  0  0  0  0  0  0
    8.4127    2.9945    0.0000 H   0  0  0  0  0  0  0  0  0  0  0  0
    9.5318    1.0563    0.0000 H   0  0  0  0  0  0  0  0  0  0  0  0
   10.3433    1.2288    0.0000 H   0  0  0  0  0  0  0  0  0  0  0  0
   10.9257    1.8756    0.0000 H   0  0  0  0  0  0  0  0  0  0  0  0
   11.0125    2.7008    0.0000 H   0  0  0  0  0  0  0  0  0  0  0  0
   10.4609    4.7344    0.0000 H   0  0  0  0  0  0  0  0  0  0  0  0
    9.8160    4.2659    0.0000 H   0  0  0  0  0  0  0  0  0  0  0  0
    7.5252    1.8100    0.0000 H   0  0  0  0  0  0  0  0  0  0  0  0
    6.9841    0.5826    0.0000 H   0  0  0  0  0  0  0  0  0  0  0  0
    6.5856   -0.1077    0.0000 H   0  0  0  0  0  0  0  0  0  0  0  0
   11.2669    2.6281    0.0000 H   0  0  0  0  0  0  0  0  0  0  0  0
   11.7445    1.8927    0.0000 H   0  0  0  0  0  0  0  0  0  0  0  0
   12.4798    2.3703    0.0000 H   0  0  0  0  0  0  0  0  0  0  0  0
   12.0718    6.2522    0.0000 H   0  0  0  0  0  0  0  0  0  0  0  0
   11.2532    6.5664    0.0000 H   0  0  0  0  0  0  0  0  0  0  0  0
   10.9390    5.7479    0.0000 H   0  0  0  0  0  0  0  0  0  0  0  0
    7.7331   -1.3100    0.0000 H   0  0  0  0  0  0  0  0  0  0  0  0
    7.7331   -2.6900    0.0000 H   0  0  0  0  0  0  0  0  0  0  0  0
    4.9272   -4.3100    0.0000 H   0  0  0  0  0  0  0  0  0  0  0  0
    7.7331   -4.3100    0.0000 H   0  0  0  0  0  0  0  0  0  0  0  0
    2.8660   -2.8800    0.0000 H   0  0  0  0  0  0  0  0  0  0  0  0
    6.8862   -6.5370    0.0000 H   0  0  0  0  0  0  0  0  0  0  0  0
    7.7331   -6.3100    0.0000 H   0  0  0  0  0  0  0  0  0  0  0  0
    7.5062   -5.4631    0.0000 H   0  0  0  0  0  0  0  0  0  0  0  0
  1 34  1  0  0  0  0
  2 33  1  0  0  0  0
  3 33  1  0  0  0  0
  4 34  1  0  0  0  0
  5 12  1  0  0  0  0
  5 21  1  0  0  0  0
  6 20  2  0  0  0  0
  7 26  2  0  0  0  0
  8 28  1  0  0  0  0
  8 33  1  0  0  0  0
  9 32  1  0  0  0  0
  9 35  1  0  0  0  0
 10 15  1  0  0  0  0
 10 17  1  0  0  0  0
 10 18  1  0  0  0  0
 14 11  1  1  0  0  0
 11 20  1  0  0  0  0
 11 45  1  0  0  0  0
 12 22  2  0  0  0  0
 13 23  1  0  0  0  0
 13 26  1  0  0  0  0
 13 54  1  0  0  0  0
 14 15  1  0  0  0  0
 14 16  1  0  0  0  0
 14 36  1  0  0  0  0
 15 37  1  0  0  0  0
 15 38  1  0  0  0  0
 16 17  1  0  0  0  0
 16 39  1  0  0  0  0
 16 40  1  0  0  0  0
 17 41  1  0  0  0  0
 17 42  1  0  0  0  0
 18 19  1  0  0  0  0
 18 43  1  0  0  0  0
 18 44  1  0  0  0  0
 19 21  2  0  0  0  0
 19 22  1  0  0  0  0
 20 23  1  0  0  0  0
 21 24  1  0  0  0  0
 22 25  1  0  0  0  0
 23 46  1  0  0  0  0
 23 47  1  0  0  0  0
 24 48  1  0  0  0  0
 24 49  1  0  0  0  0
 24 50  1  0  0  0  0
 25 51  1  0  0  0  0
 25 52  1  0  0  0  0
 25 53  1  0  0  0  0
 26 27  1  0  0  0  0
 27 28  2  0  0  0  0
 27 29  1  0  0  0  0
 28 30  1  0  0  0  0
 29 31  2  0  0  0  0
 29 55  1  0  0  0  0
 30 32  2  0  0  0  0
 30 56  1  0  0  0  0
 31 32  1  0  0  0  0
 31 57  1  0  0  0  0
 33 34  1  0  0  0  0
 34 58  1  0  0  0  0
 35 59  1  0  0  0  0
 35 60  1  0  0  0  0
 35 61  1  0  0  0  0
M  END
> <PUBCHEM_COMPOUND_CID>
508876
> <PUBCHEM_COMPOUND_CANONICALIZED>
1
> <PUBCHEM_CACTVS_COMPLEXITY>
739
> <PUBCHEM_CACTVS_HBOND_ACCEPTOR>
10
> <PUBCHEM_CACTVS_HBOND_DONOR>
2
> <PUBCHEM_CACTVS_ROTATABLE_BOND>
10
> <PUBCHEM_CACTVS_SUBSKEYS>
AAADceB7uYAEAAAAAAAAAAAAAAAAAWLAAAAwAAAAAAAAAAABwAAAHwIUAAAADC/BnlYyhpPQBACpA6VyUgCCCAAkIAAomKG+TdoMZz6E9buWOejn9h2I6ceY/C7OIAAACAAIAABAAAAQABAAAAAAAAAAAA==
> <PUBCHEM_IUPAC_OPENEYE_NAME>
2-(2-chloro-1,1,2-trifluoro-ethoxy)-N-[2-[[(3R)-1-[(3,5-dimethylisoxazol-4-yl)methyl]pyrrolidin-3-yl]amino]-2-oxo-ethyl]-4-methoxy-benzamide
> <PUBCHEM_IUPAC_CAS_NAME>
2-(2-chloro-1,1,2-trifluoroethoxy)-N-[2-[[(3R)-1-[(3,5-dimethyl-4-isoxazolyl)methyl]-3-pyrrolidinyl]amino]-2-oxoethyl]-4-methoxybenzamide
> <PUBCHEM_IUPAC_NAME_MARKUP>
2-(2-chloro-1,1,2-trifluoroethoxy)-<I>N</I>-[2-[[(3<I>R</I>)-1-[(3,5-dimethyl-1,2-oxazol-4-yl)methyl]pyrrolidin-3-yl]amino]-2-oxoethyl]-4-methoxybenzamide
> <PUBCHEM_IUPAC_NAME>
2-(2-chloro-1,1,2-trifluoroethoxy)-N-[2-[[(3R)-1-[(3,5-dimethyl-1,2-oxazol-4-yl)methyl]pyrrolidin-3-yl]amino]-2-oxoethyl]-4-methoxybenzamide
> <PUBCHEM_IUPAC_SYSTEMATIC_NAME>
2-[2-chloranyl-1,1,2-tris(fluoranyl)ethoxy]-N-[2-[[(3R)-1-[(3,5-dimethyl-1,2-oxazol-4-yl)methyl]pyrrolidin-3-yl]amino]-2-oxidanylidene-ethyl]-4-methoxy-benzamide
> <PUBCHEM_IUPAC_TRADITIONAL_NAME>
2-(2-chloro-1,1,2-trifluoro-ethoxy)-N-[2-[[(3R)-1-[(3,5-dimethylisoxazol-4-yl)methyl]pyrrolidin-3-yl]amino]-2-keto-ethyl]-4-methoxy-benzamide
> <PUBCHEM_IUPAC_INCHI>
InChI=1S/C22H26ClF3N4O5/c1-12-17(13(2)35-29-12)11-30-7-6-14(10-30)28-19(31)9-27-20(32)16-5-4-15(33-3)8-18(16)34-22(25,26)21(23)24/h4-5,8,14,21H,6-7,9-11H2,1-3H3,(H,27,32)(H,28,31)/t14-,21?/m1/s1
> <PUBCHEM_IUPAC_INCHIKEY>
RRGIXYCJVYXBMZ-CKAQCJTGSA-N
> <PUBCHEM_XLOGP3_AA>
3.3
> <PUBCHEM_EXACT_MASS>
518.1543821
> <PUBCHEM_MOLECULAR_FORMULA>
C22H26ClF3N4O5
> <PUBCHEM_MOLECULAR_WEIGHT>
518.9
> <PUBCHEM_OPENEYE_CAN_SMILES>
CC1=C(C(=NO1)C)CN2CCC(C2)NC(=O)CNC(=O)C3=C(C=C(C=C3)OC)OC(C(F)Cl)(F)F
> <PUBCHEM_OPENEYE_ISO_SMILES>
CC1=C(C(=NO1)C)CN2CC[C@H](C2)NC(=O)CNC(=O)C3=C(C=C(C=C3)OC)OC(C(F)Cl)(F)F
> <PUBCHEM_CACTVS_TPSA>
106
> <PUBCHEM_MONOISOTOPIC_WEIGHT>
518.1543821
> <PUBCHEM_TOTAL_CHARGE>
0
> <PUBCHEM_HEAVY_ATOM_COUNT>
35
> <PUBCHEM_ATOM_DEF_STEREO_COUNT>
1
> <PUBCHEM_ATOM_UDEF_STEREO_COUNT>
1
> <PUBCHEM_BOND_DEF_STEREO_COUNT>
0
> <PUBCHEM_BOND_UDEF_STEREO_COUNT>
0
> <PUBCHEM_ISOTOPIC_ATOM_COUNT>
0
> <PUBCHEM_COMPONENT_COUNT>
1
> <PUBCHEM_CACTVS_TAUTO_COUNT>
-1
> <PUBCHEM_COORDINATE_TYPE>
1
5
255
> <PUBCHEM_BONDANNOTATIONS>
14  11  5
12  22  8
19  21  8
19  22  8
27  28  8
27  29  8
28  30  8
29  31  8
30  32  8
31  32  8
34  4  3
5  12  8
5  21  8
$$$$
