508819
  -OEChem-10302200282D
 71 73  0     1  0  0  0  0  0999 V2000
   12.3923    7.4330    0.0000 Cl  0  0  0  0  0  0  0  0  0  0  0  0
    2.0000   -2.5670    0.0000 F   0  0  0  0  0  0  0  0  0  0  0  0
    2.3660   -3.9330    0.0000 F   0  0  0  0  0  0  0  0  0  0  0  0
    3.3660   -2.2010    0.0000 F   0  0  0  0  0  0  0  0  0  0  0  0
    9.7942   -7.0670    0.0000 F   0  0  0  0  0  0  0  0  0  0  0  0
    8.4282   -7.4330    0.0000 F   0  0  0  0  0  0  0  0  0  0  0  0
    9.4282   -5.7010    0.0000 F   0  0  0  0  0  0  0  0  0  0  0  0
    8.9282   -0.5670    0.0000 O   0  0  0  0  0  0  0  0  0  0  0  0
    5.4641   -1.5670    0.0000 O   0  0  0  0  0  0  0  0  0  0  0  0
    4.5981   -3.0670    0.0000 O   0  0  0  0  0  0  0  0  0  0  0  0
    8.0622   -5.0670    0.0000 O   0  0  0  0  0  0  0  0  0  0  0  0
    8.9282    4.4330    0.0000 N   0  0  0  0  0  0  0  0  0  0  0  0
    8.0622    0.9330    0.0000 N   0  0  0  0  0  0  0  0  0  0  0  0
    7.1962   -1.5670    0.0000 N   0  0  0  0  0  0  0  0  0  0  0  0
    8.9282    2.4330    0.0000 C   0  0  0  0  0  0  0  0  0  0  0  0
    8.0622    2.9330    0.0000 C   0  0  0  0  0  0  0  0  0  0  0  0
    9.7942    2.9330    0.0000 C   0  0  0  0  0  0  0  0  0  0  0  0
    8.0622    3.9330    0.0000 C   0  0  0  0  0  0  0  0  0  0  0  0
    9.7942    3.9330    0.0000 C   0  0  0  0  0  0  0  0  0  0  0  0
    8.9282    1.4330    0.0000 C   0  0  0  0  0  0  0  0  0  0  0  0
    8.9282    5.4330    0.0000 C   0  0  0  0  0  0  0  0  0  0  0  0
    9.7942    5.9330    0.0000 C   0  0  0  0  0  0  0  0  0  0  0  0
    8.0622   -0.0670    0.0000 C   0  0  0  0  0  0  0  0  0  0  0  0
    7.1962   -0.5670    0.0000 C   0  0  1  0  0  0  0  0  0  0  0  0
    9.7942    6.9330    0.0000 C   0  0  0  0  0  0  0  0  0  0  0  0
   10.6603    5.4330    0.0000 C   0  0  0  0  0  0  0  0  0  0  0  0
    6.3301   -0.0670    0.0000 C   0  0  0  0  0  0  0  0  0  0  0  0
   10.6603    7.4330    0.0000 C   0  0  0  0  0  0  0  0  0  0  0  0
   11.5263    5.9330    0.0000 C   0  0  0  0  0  0  0  0  0  0  0  0
   11.5263    6.9330    0.0000 C   0  0  0  0  0  0  0  0  0  0  0  0
    6.3301   -2.0670    0.0000 C   0  0  0  0  0  0  0  0  0  0  0  0
    6.3301   -3.0670    0.0000 C   0  0  0  0  0  0  0  0  0  0  0  0
    5.4641   -3.5670    0.0000 C   0  0  0  0  0  0  0  0  0  0  0  0
    7.1962   -3.5670    0.0000 C   0  0  0  0  0  0  0  0  0  0  0  0
    7.1962   -4.5670    0.0000 C   0  0  0  0  0  0  0  0  0  0  0  0
    5.4641   -4.5670    0.0000 C   0  0  0  0  0  0  0  0  0  0  0  0
    6.3301   -5.0670    0.0000 C   0  0  0  0  0  0  0  0  0  0  0  0
    3.7320   -3.5670    0.0000 C   0  0  0  0  0  0  0  0  0  0  0  0
    8.0622   -6.0670    0.0000 C   0  0  0  0  0  0  0  0  0  0  0  0
    2.8660   -3.0670    0.0000 C   0  0  0  0  0  0  0  0  0  0  0  0
    8.9282   -6.5670    0.0000 C   0  0  0  0  0  0  0  0  0  0  0  0
    9.4651    2.1230    0.0000 H   0  0  0  0  0  0  0  0  0  0  0  0
    7.4516    3.0407    0.0000 H   0  0  0  0  0  0  0  0  0  0  0  0
    7.8501    2.3504    0.0000 H   0  0  0  0  0  0  0  0  0  0  0  0
   10.0063    2.3504    0.0000 H   0  0  0  0  0  0  0  0  0  0  0  0
   10.4048    3.0407    0.0000 H   0  0  0  0  0  0  0  0  0  0  0  0
    7.8501    4.5156    0.0000 H   0  0  0  0  0  0  0  0  0  0  0  0
    7.4516    3.8254    0.0000 H   0  0  0  0  0  0  0  0  0  0  0  0
   10.4048    3.8254    0.0000 H   0  0  0  0  0  0  0  0  0  0  0  0
   10.0063    4.5156    0.0000 H   0  0  0  0  0  0  0  0  0  0  0  0
    9.1403    0.8504    0.0000 H   0  0  0  0  0  0  0  0  0  0  0  0
    9.5388    1.5407    0.0000 H   0  0  0  0  0  0  0  0  0  0  0  0
    8.7162    6.0156    0.0000 H   0  0  0  0  0  0  0  0  0  0  0  0
    8.3176    5.3254    0.0000 H   0  0  0  0  0  0  0  0  0  0  0  0
    7.5252    1.2430    0.0000 H   0  0  0  0  0  0  0  0  0  0  0  0
    6.6592   -0.8770    0.0000 H   0  0  0  0  0  0  0  0  0  0  0  0
    9.2573    7.2430    0.0000 H   0  0  0  0  0  0  0  0  0  0  0  0
   10.6603    4.8130    0.0000 H   0  0  0  0  0  0  0  0  0  0  0  0
    6.6401    0.4699    0.0000 H   0  0  0  0  0  0  0  0  0  0  0  0
    5.7932    0.2430    0.0000 H   0  0  0  0  0  0  0  0  0  0  0  0
    6.0201   -0.6039    0.0000 H   0  0  0  0  0  0  0  0  0  0  0  0
   10.6603    8.0530    0.0000 H   0  0  0  0  0  0  0  0  0  0  0  0
   12.0632    5.6230    0.0000 H   0  0  0  0  0  0  0  0  0  0  0  0
    7.7331   -1.8770    0.0000 H   0  0  0  0  0  0  0  0  0  0  0  0
    7.7331   -3.2570    0.0000 H   0  0  0  0  0  0  0  0  0  0  0  0
    4.9272   -4.8770    0.0000 H   0  0  0  0  0  0  0  0  0  0  0  0
    6.3301   -5.6870    0.0000 H   0  0  0  0  0  0  0  0  0  0  0  0
    3.3335   -4.0419    0.0000 H   0  0  0  0  0  0  0  0  0  0  0  0
    4.1306   -4.0419    0.0000 H   0  0  0  0  0  0  0  0  0  0  0  0
    7.4516   -5.9593    0.0000 H   0  0  0  0  0  0  0  0  0  0  0  0
    7.8501   -6.6496    0.0000 H   0  0  0  0  0  0  0  0  0  0  0  0
  1 30  1  0  0  0  0
  2 40  1  0  0  0  0
  3 40  1  0  0  0  0
  4 40  1  0  0  0  0
  5 41  1  0  0  0  0
  6 41  1  0  0  0  0
  7 41  1  0  0  0  0
  8 23  2  0  0  0  0
  9 31  2  0  0  0  0
 10 33  1  0  0  0  0
 10 38  1  0  0  0  0
 11 35  1  0  0  0  0
 11 39  1  0  0  0  0
 12 18  1  0  0  0  0
 12 19  1  0  0  0  0
 12 21  1  0  0  0  0
 13 20  1  0  0  0  0
 13 23  1  0  0  0  0
 13 55  1  0  0  0  0
 24 14  1  6  0  0  0
 14 31  1  0  0  0  0
 14 64  1  0  0  0  0
 15 16  1  0  0  0  0
 15 17  1  0  0  0  0
 15 20  1  0  0  0  0
 15 42  1  0  0  0  0
 16 18  1  0  0  0  0
 16 43  1  0  0  0  0
 16 44  1  0  0  0  0
 17 19  1  0  0  0  0
 17 45  1  0  0  0  0
 17 46  1  0  0  0  0
 18 47  1  0  0  0  0
 18 48  1  0  0  0  0
 19 49  1  0  0  0  0
 19 50  1  0  0  0  0
 20 51  1  0  0  0  0
 20 52  1  0  0  0  0
 21 22  1  0  0  0  0
 21 53  1  0  0  0  0
 21 54  1  0  0  0  0
 22 25  2  0  0  0  0
 22 26  1  0  0  0  0
 23 24  1  0  0  0  0
 24 27  1  0  0  0  0
 24 56  1  0  0  0  0
 25 28  1  0  0  0  0
 25 57  1  0  0  0  0
 26 29  2  0  0  0  0
 26 58  1  0  0  0  0
 27 59  1  0  0  0  0
 27 60  1  0  0  0  0
 27 61  1  0  0  0  0
 28 30  2  0  0  0  0
 28 62  1  0  0  0  0
 29 30  1  0  0  0  0
 29 63  1  0  0  0  0
 31 32  1  0  0  0  0
 32 33  2  0  0  0  0
 32 34  1  0  0  0  0
 33 36  1  0  0  0  0
 34 35  2  0  0  0  0
 34 65  1  0  0  0  0
 35 37  1  0  0  0  0
 36 37  2  0  0  0  0
 36 66  1  0  0  0  0
 37 67  1  0  0  0  0
 38 40  1  0  0  0  0
 38 68  1  0  0  0  0
 38 69  1  0  0  0  0
 39 41  1  0  0  0  0
 39 70  1  0  0  0  0
 39 71  1  0  0  0  0
M  END
> <PUBCHEM_COMPOUND_CID>
508819
> <PUBCHEM_COMPOUND_CANONICALIZED>
1
> <PUBCHEM_CACTVS_COMPLEXITY>
833
> <PUBCHEM_CACTVS_HBOND_ACCEPTOR>
11
> <PUBCHEM_CACTVS_HBOND_DONOR>
2
> <PUBCHEM_CACTVS_ROTATABLE_BOND>
11
> <PUBCHEM_CACTVS_SUBSKEYS>
AAADceB7OcAEAAAAAAAAAAAAAAAAAAAAAAA8YIAAAAAAAAABQAAAHwIQAAAADS7hmDYyBoPABACIAiFSEACCCAAkJQAIiIGODsgMZjaFtzuWOWjm9hGIqYf6yDCOBQABAAAIAAAKAAIAABAAAAAAAAAAAA==
> <PUBCHEM_IUPAC_OPENEYE_NAME>
N-[(1R)-2-[[1-[(4-chlorophenyl)methyl]-4-piperidyl]methylamino]-1-methyl-2-oxo-ethyl]-2,5-bis(2,2,2-trifluoroethoxy)benzamide
> <PUBCHEM_IUPAC_CAS_NAME>
N-[(2R)-1-[[1-[(4-chlorophenyl)methyl]-4-piperidinyl]methylamino]-1-oxopropan-2-yl]-2,5-bis(2,2,2-trifluoroethoxy)benzamide
> <PUBCHEM_IUPAC_NAME_MARKUP>
<I>N</I>-[(2<I>R</I>)-1-[[1-[(4-chlorophenyl)methyl]piperidin-4-yl]methylamino]-1-oxopropan-2-yl]-2,5-bis(2,2,2-trifluoroethoxy)benzamide
> <PUBCHEM_IUPAC_NAME>
N-[(2R)-1-[[1-[(4-chlorophenyl)methyl]piperidin-4-yl]methylamino]-1-oxopropan-2-yl]-2,5-bis(2,2,2-trifluoroethoxy)benzamide
> <PUBCHEM_IUPAC_SYSTEMATIC_NAME>
N-[(2R)-1-[[1-[(4-chlorophenyl)methyl]piperidin-4-yl]methylamino]-1-oxidanylidene-propan-2-yl]-2,5-bis[2,2,2-tris(fluoranyl)ethoxy]benzamide
> <PUBCHEM_IUPAC_TRADITIONAL_NAME>
N-[(1R)-2-[[1-(4-chlorobenzyl)-4-piperidyl]methylamino]-2-keto-1-methyl-ethyl]-2,5-bis(2,2,2-trifluoroethoxy)benzamide
> <PUBCHEM_IUPAC_INCHI>
InChI=1S/C27H30ClF6N3O4/c1-17(24(38)35-13-18-8-10-37(11-9-18)14-19-2-4-20(28)5-3-19)36-25(39)22-12-21(40-15-26(29,30)31)6-7-23(22)41-16-27(32,33)34/h2-7,12,17-18H,8-11,13-16H2,1H3,(H,35,38)(H,36,39)/t17-/m1/s1
> <PUBCHEM_IUPAC_INCHIKEY>
RGBMDCBROZGLFO-QGZVFWFLSA-N
> <PUBCHEM_XLOGP3_AA>
6
> <PUBCHEM_EXACT_MASS>
609.1829031
> <PUBCHEM_MOLECULAR_FORMULA>
C27H30ClF6N3O4
> <PUBCHEM_MOLECULAR_WEIGHT>
610.0
> <PUBCHEM_OPENEYE_CAN_SMILES>
CC(C(=O)NCC1CCN(CC1)CC2=CC=C(C=C2)Cl)NC(=O)C3=C(C=CC(=C3)OCC(F)(F)F)OCC(F)(F)F
> <PUBCHEM_OPENEYE_ISO_SMILES>
C[C@H](C(=O)NCC1CCN(CC1)CC2=CC=C(C=C2)Cl)NC(=O)C3=C(C=CC(=C3)OCC(F)(F)F)OCC(F)(F)F
> <PUBCHEM_CACTVS_TPSA>
79.9
> <PUBCHEM_MONOISOTOPIC_WEIGHT>
609.1829031
> <PUBCHEM_TOTAL_CHARGE>
0
> <PUBCHEM_HEAVY_ATOM_COUNT>
41
> <PUBCHEM_ATOM_DEF_STEREO_COUNT>
1
> <PUBCHEM_ATOM_UDEF_STEREO_COUNT>
0
> <PUBCHEM_BOND_DEF_STEREO_COUNT>
0
> <PUBCHEM_BOND_UDEF_STEREO_COUNT>
0
> <PUBCHEM_ISOTOPIC_ATOM_COUNT>
0
> <PUBCHEM_COMPONENT_COUNT>
1
> <PUBCHEM_CACTVS_TAUTO_COUNT>
-1
> <PUBCHEM_COORDINATE_TYPE>
1
5
255
> <PUBCHEM_BONDANNOTATIONS>
24  14  6
22  25  8
22  26  8
25  28  8
26  29  8
28  30  8
29  30  8
32  33  8
32  34  8
33  36  8
34  35  8
35  37  8
36  37  8
$$$$
