508872
  -OEChem-10302200282D
 60 62  0     1  0  0  0  0  0999 V2000
    8.0974    3.0010    0.0000 F   0  0  0  0  0  0  0  0  0  0  0  0
    6.3654    7.0010    0.0000 F   0  0  0  0  0  0  0  0  0  0  0  0
    7.3654    6.0010    0.0000 F   0  0  0  0  0  0  0  0  0  0  0  0
    5.3654    6.0010    0.0000 F   0  0  0  0  0  0  0  0  0  0  0  0
    4.6333    0.0010    0.0000 O   0  0  0  0  0  0  0  0  0  0  0  0
    3.7673    3.5010    0.0000 O   0  0  0  0  0  0  0  0  0  0  0  0
    3.4013   -2.5378    0.0000 N   0  0  3  0  0  0  0  0  0  0  0  0
    2.9013    0.0010    0.0000 N   0  0  0  0  0  0  0  0  0  0  0  0
    4.6333    2.0010    0.0000 N   0  0  0  0  0  0  0  0  0  0  0  0
    2.9013   -0.9990    0.0000 C   0  0  1  0  0  0  0  0  0  0  0  0
    3.7103   -1.5868    0.0000 C   0  0  0  0  0  0  0  0  0  0  0  0
    2.0922   -1.5868    0.0000 C   0  0  0  0  0  0  0  0  0  0  0  0
    2.4013   -2.5378    0.0000 C   0  0  0  0  0  0  0  0  0  0  0  0
    3.9890   -3.3468    0.0000 C   0  0  0  0  0  0  0  0  0  0  0  0
    3.5823   -4.2604    0.0000 C   0  0  0  0  0  0  0  0  0  0  0  0
    3.7673    0.5010    0.0000 C   0  0  0  0  0  0  0  0  0  0  0  0
    2.5878   -4.3649    0.0000 C   0  0  0  0  0  0  0  0  0  0  0  0
    4.1701   -5.0694    0.0000 C   0  0  0  0  0  0  0  0  0  0  0  0
    3.7634   -5.9830    0.0000 C   0  0  0  0  0  0  0  0  0  0  0  0
    2.1810   -5.2785    0.0000 C   0  0  0  0  0  0  0  0  0  0  0  0
    3.7673    1.5010    0.0000 C   0  0  0  0  0  0  0  0  0  0  0  0
    2.7688   -6.0875    0.0000 C   0  0  0  0  0  0  0  0  0  0  0  0
    2.0000   -3.5559    0.0000 C   0  0  0  0  0  0  0  0  0  0  0  0
    4.3511   -6.7920    0.0000 C   0  0  0  0  0  0  0  0  0  0  0  0
    2.3621   -7.0010    0.0000 C   0  0  0  0  0  0  0  0  0  0  0  0
    4.6333    3.0010    0.0000 C   0  0  0  0  0  0  0  0  0  0  0  0
    5.4993    3.5010    0.0000 C   0  0  0  0  0  0  0  0  0  0  0  0
    5.4993    4.5010    0.0000 C   0  0  0  0  0  0  0  0  0  0  0  0
    6.3654    3.0010    0.0000 C   0  0  0  0  0  0  0  0  0  0  0  0
    6.3654    5.0010    0.0000 C   0  0  0  0  0  0  0  0  0  0  0  0
    7.2314    3.5010    0.0000 C   0  0  0  0  0  0  0  0  0  0  0  0
    7.2314    4.5010    0.0000 C   0  0  0  0  0  0  0  0  0  0  0  0
    6.3654    6.0010    0.0000 C   0  0  0  0  0  0  0  0  0  0  0  0
    2.3488   -0.7175    0.0000 H   0  0  0  0  0  0  0  0  0  0  0  0
    4.2767   -1.8389    0.0000 H   0  0  0  0  0  0  0  0  0  0  0  0
    4.0203   -1.0498    0.0000 H   0  0  0  0  0  0  0  0  0  0  0  0
    1.7822   -1.0498    0.0000 H   0  0  0  0  0  0  0  0  0  0  0  0
    1.5258   -1.8389    0.0000 H   0  0  0  0  0  0  0  0  0  0  0  0
    1.7948   -2.6667    0.0000 H   0  0  0  0  0  0  0  0  0  0  0  0
    2.4661   -3.1544    0.0000 H   0  0  0  0  0  0  0  0  0  0  0  0
    4.5030   -3.6935    0.0000 H   0  0  0  0  0  0  0  0  0  0  0  0
    4.4197   -2.9008    0.0000 H   0  0  0  0  0  0  0  0  0  0  0  0
    2.3643    0.3110    0.0000 H   0  0  0  0  0  0  0  0  0  0  0  0
    4.7867   -5.0046    0.0000 H   0  0  0  0  0  0  0  0  0  0  0  0
    1.5644   -5.3433    0.0000 H   0  0  0  0  0  0  0  0  0  0  0  0
    3.5552    2.0836    0.0000 H   0  0  0  0  0  0  0  0  0  0  0  0
    3.1567    1.3934    0.0000 H   0  0  0  0  0  0  0  0  0  0  0  0
    2.5016   -3.1915    0.0000 H   0  0  0  0  0  0  0  0  0  0  0  0
    1.6356   -3.0543    0.0000 H   0  0  0  0  0  0  0  0  0  0  0  0
    1.4984   -3.9203    0.0000 H   0  0  0  0  0  0  0  0  0  0  0  0
    3.8496   -7.1564    0.0000 H   0  0  0  0  0  0  0  0  0  0  0  0
    4.7156   -7.2936    0.0000 H   0  0  0  0  0  0  0  0  0  0  0  0
    4.8527   -6.4275    0.0000 H   0  0  0  0  0  0  0  0  0  0  0  0
    1.7957   -6.7488    0.0000 H   0  0  0  0  0  0  0  0  0  0  0  0
    2.1099   -7.5674    0.0000 H   0  0  0  0  0  0  0  0  0  0  0  0
    2.9285   -7.2532    0.0000 H   0  0  0  0  0  0  0  0  0  0  0  0
    5.1702    1.6910    0.0000 H   0  0  0  0  0  0  0  0  0  0  0  0
    4.9624    4.8110    0.0000 H   0  0  0  0  0  0  0  0  0  0  0  0
    6.3654    2.3810    0.0000 H   0  0  0  0  0  0  0  0  0  0  0  0
    7.7683    4.8110    0.0000 H   0  0  0  0  0  0  0  0  0  0  0  0
  1 31  1  0  0  0  0
  2 33  1  0  0  0  0
  3 33  1  0  0  0  0
  4 33  1  0  0  0  0
  5 16  2  0  0  0  0
  6 26  2  0  0  0  0
  7 11  1  0  0  0  0
  7 13  1  0  0  0  0
  7 14  1  0  0  0  0
 10  8  1  1  0  0  0
  8 16  1  0  0  0  0
  8 43  1  0  0  0  0
  9 21  1  0  0  0  0
  9 26  1  0  0  0  0
  9 57  1  0  0  0  0
 10 11  1  0  0  0  0
 10 12  1  0  0  0  0
 10 34  1  0  0  0  0
 11 35  1  0  0  0  0
 11 36  1  0  0  0  0
 12 13  1  0  0  0  0
 12 37  1  0  0  0  0
 12 38  1  0  0  0  0
 13 39  1  0  0  0  0
 13 40  1  0  0  0  0
 14 15  1  0  0  0  0
 14 41  1  0  0  0  0
 14 42  1  0  0  0  0
 15 17  2  0  0  0  0
 15 18  1  0  0  0  0
 16 21  1  0  0  0  0
 17 20  1  0  0  0  0
 17 23  1  0  0  0  0
 18 19  2  0  0  0  0
 18 44  1  0  0  0  0
 19 22  1  0  0  0  0
 19 24  1  0  0  0  0
 20 22  2  0  0  0  0
 20 45  1  0  0  0  0
 21 46  1  0  0  0  0
 21 47  1  0  0  0  0
 22 25  1  0  0  0  0
 23 48  1  0  0  0  0
 23 49  1  0  0  0  0
 23 50  1  0  0  0  0
 24 51  1  0  0  0  0
 24 52  1  0  0  0  0
 24 53  1  0  0  0  0
 25 54  1  0  0  0  0
 25 55  1  0  0  0  0
 25 56  1  0  0  0  0
 26 27  1  0  0  0  0
 27 28  2  0  0  0  0
 27 29  1  0  0  0  0
 28 30  1  0  0  0  0
 28 58  1  0  0  0  0
 29 31  2  0  0  0  0
 29 59  1  0  0  0  0
 30 32  2  0  0  0  0
 30 33  1  0  0  0  0
 31 32  1  0  0  0  0
 32 60  1  0  0  0  0
M  END
> <PUBCHEM_COMPOUND_CID>
508872
> <PUBCHEM_COMPOUND_CANONICALIZED>
1
> <PUBCHEM_CACTVS_COMPLEXITY>
689
> <PUBCHEM_CACTVS_HBOND_ACCEPTOR>
7
> <PUBCHEM_CACTVS_HBOND_DONOR>
2
> <PUBCHEM_CACTVS_ROTATABLE_BOND>
6
> <PUBCHEM_CACTVS_SUBSKEYS>
AAADceB7McAAAAAAAAAAAAAAAAAAAWAAAAAwYAAAAAAAAAABQAAAHwAQAAAADCjBmBwyAIPAAACIAiFSEACCAAAkAAAAiIGIBMgIYDKA1TGUIQhglgCIiYcYiMCOwAACAAAQAACAAAQAACAAAAAAAAAAAA==
> <PUBCHEM_IUPAC_OPENEYE_NAME>
3-fluoro-N-[2-oxo-2-[[(3R)-1-[(2,4,5-trimethylphenyl)methyl]pyrrolidin-3-yl]amino]ethyl]-5-(trifluoromethyl)benzamide
> <PUBCHEM_IUPAC_CAS_NAME>
3-fluoro-N-[2-oxo-2-[[(3R)-1-[(2,4,5-trimethylphenyl)methyl]-3-pyrrolidinyl]amino]ethyl]-5-(trifluoromethyl)benzamide
> <PUBCHEM_IUPAC_NAME_MARKUP>
3-fluoro-<I>N</I>-[2-oxo-2-[[(3<I>R</I>)-1-[(2,4,5-trimethylphenyl)methyl]pyrrolidin-3-yl]amino]ethyl]-5-(trifluoromethyl)benzamide
> <PUBCHEM_IUPAC_NAME>
3-fluoro-N-[2-oxo-2-[[(3R)-1-[(2,4,5-trimethylphenyl)methyl]pyrrolidin-3-yl]amino]ethyl]-5-(trifluoromethyl)benzamide
> <PUBCHEM_IUPAC_SYSTEMATIC_NAME>
3-fluoranyl-N-[2-oxidanylidene-2-[[(3R)-1-[(2,4,5-trimethylphenyl)methyl]pyrrolidin-3-yl]amino]ethyl]-5-(trifluoromethyl)benzamide
> <PUBCHEM_IUPAC_TRADITIONAL_NAME>
3-fluoro-N-[2-keto-2-[[(3R)-1-(2,4,5-trimethylbenzyl)pyrrolidin-3-yl]amino]ethyl]-5-(trifluoromethyl)benzamide
> <PUBCHEM_IUPAC_INCHI>
InChI=1S/C24H27F4N3O2/c1-14-6-16(3)18(7-15(14)2)12-31-5-4-21(13-31)30-22(32)11-29-23(33)17-8-19(24(26,27)28)10-20(25)9-17/h6-10,21H,4-5,11-13H2,1-3H3,(H,29,33)(H,30,32)/t21-/m1/s1
> <PUBCHEM_IUPAC_INCHIKEY>
YQLIVWZOQTYDBN-OAQYLSRUSA-N
> <PUBCHEM_XLOGP3_AA>
4.4
> <PUBCHEM_EXACT_MASS>
465.20393976
> <PUBCHEM_MOLECULAR_FORMULA>
C24H27F4N3O2
> <PUBCHEM_MOLECULAR_WEIGHT>
465.5
> <PUBCHEM_OPENEYE_CAN_SMILES>
CC1=CC(=C(C=C1C)CN2CCC(C2)NC(=O)CNC(=O)C3=CC(=CC(=C3)F)C(F)(F)F)C
> <PUBCHEM_OPENEYE_ISO_SMILES>
CC1=CC(=C(C=C1C)CN2CC[C@H](C2)NC(=O)CNC(=O)C3=CC(=CC(=C3)F)C(F)(F)F)C
> <PUBCHEM_CACTVS_TPSA>
61.4
> <PUBCHEM_MONOISOTOPIC_WEIGHT>
465.20393976
> <PUBCHEM_TOTAL_CHARGE>
0
> <PUBCHEM_HEAVY_ATOM_COUNT>
33
> <PUBCHEM_ATOM_DEF_STEREO_COUNT>
1
> <PUBCHEM_ATOM_UDEF_STEREO_COUNT>
0
> <PUBCHEM_BOND_DEF_STEREO_COUNT>
0
> <PUBCHEM_BOND_UDEF_STEREO_COUNT>
0
> <PUBCHEM_ISOTOPIC_ATOM_COUNT>
0
> <PUBCHEM_COMPONENT_COUNT>
1
> <PUBCHEM_CACTVS_TAUTO_COUNT>
-1
> <PUBCHEM_COORDINATE_TYPE>
1
5
255
> <PUBCHEM_BONDANNOTATIONS>
15  17  8
15  18  8
17  20  8
18  19  8
19  22  8
20  22  8
27  28  8
27  29  8
28  30  8
29  31  8
30  32  8
31  32  8
10  8  5
$$$$
