508893
  -OEChem-10302200282D
 56 58  0     1  0  0  0  0  0999 V2000
    6.0010   -4.9738    0.0000 I   0  0  0  0  0  0  0  0  0  0  0  0
    6.8671   -0.4738    0.0000 O   0  0  0  0  0  0  0  0  0  0  0  0
    3.4030   -1.4738    0.0000 O   0  0  0  0  0  0  0  0  0  0  0  0
    7.9497    2.7286    0.0000 N   0  0  3  0  0  0  0  0  0  0  0  0
    6.0010    1.0262    0.0000 N   0  0  0  0  0  0  0  0  0  0  0  0
    5.1350   -1.4738    0.0000 N   0  0  0  0  0  0  0  0  0  0  0  0
    2.5369   -2.9738    0.0000 N   0  0  0  0  0  0  0  0  0  0  0  0
    6.8671    1.5262    0.0000 C   0  0  2  0  0  0  0  0  0  0  0  0
    7.7806    1.1194    0.0000 C   0  0  0  0  0  0  0  0  0  0  0  0
    6.9716    2.5207    0.0000 C   0  0  0  0  0  0  0  0  0  0  0  0
    8.4497    1.8626    0.0000 C   0  0  0  0  0  0  0  0  0  0  0  0
    8.3565    3.6422    0.0000 C   0  0  0  0  0  0  0  0  0  0  0  0
    9.3510    3.7467    0.0000 C   0  0  0  0  0  0  0  0  0  0  0  0
    6.0010    0.0262    0.0000 C   0  0  0  0  0  0  0  0  0  0  0  0
    9.9388    2.9377    0.0000 C   0  0  0  0  0  0  0  0  0  0  0  0
    9.7577    4.6602    0.0000 C   0  0  0  0  0  0  0  0  0  0  0  0
    5.1350   -0.4738    0.0000 C   0  0  0  0  0  0  0  0  0  0  0  0
   10.9333    3.0422    0.0000 C   0  0  0  0  0  0  0  0  0  0  0  0
   10.7523    4.7648    0.0000 C   0  0  0  0  0  0  0  0  0  0  0  0
   11.3400    3.9558    0.0000 C   0  0  0  0  0  0  0  0  0  0  0  0
   12.3346    4.0603    0.0000 C   0  0  0  0  0  0  0  0  0  0  0  0
    4.2690   -1.9738    0.0000 C   0  0  0  0  0  0  0  0  0  0  0  0
   12.7413    4.9738    0.0000 C   0  0  0  0  0  0  0  0  0  0  0  0
    4.2690   -2.9738    0.0000 C   0  0  0  0  0  0  0  0  0  0  0  0
    3.4030   -3.4738    0.0000 C   0  0  0  0  0  0  0  0  0  0  0  0
    5.1350   -3.4738    0.0000 C   0  0  0  0  0  0  0  0  0  0  0  0
    3.4030   -4.4738    0.0000 C   0  0  0  0  0  0  0  0  0  0  0  0
    5.1350   -4.4738    0.0000 C   0  0  0  0  0  0  0  0  0  0  0  0
    4.2690   -4.9738    0.0000 C   0  0  0  0  0  0  0  0  0  0  0  0
    6.3471    1.8639    0.0000 H   0  0  0  0  0  0  0  0  0  0  0  0
    7.4706    0.5825    0.0000 H   0  0  0  0  0  0  0  0  0  0  0  0
    8.2822    0.7550    0.0000 H   0  0  0  0  0  0  0  0  0  0  0  0
    6.9068    3.1373    0.0000 H   0  0  0  0  0  0  0  0  0  0  0  0
    6.3516    2.5207    0.0000 H   0  0  0  0  0  0  0  0  0  0  0  0
    8.8646    1.4018    0.0000 H   0  0  0  0  0  0  0  0  0  0  0  0
    8.9513    2.2270    0.0000 H   0  0  0  0  0  0  0  0  0  0  0  0
    8.3997    4.2606    0.0000 H   0  0  0  0  0  0  0  0  0  0  0  0
    7.7549    3.7922    0.0000 H   0  0  0  0  0  0  0  0  0  0  0  0
    5.4641    1.3362    0.0000 H   0  0  0  0  0  0  0  0  0  0  0  0
    9.6866    2.3713    0.0000 H   0  0  0  0  0  0  0  0  0  0  0  0
    9.3933    5.1618    0.0000 H   0  0  0  0  0  0  0  0  0  0  0  0
    4.9230    0.1088    0.0000 H   0  0  0  0  0  0  0  0  0  0  0  0
    4.5244   -0.5815    0.0000 H   0  0  0  0  0  0  0  0  0  0  0  0
   11.2977    2.5406    0.0000 H   0  0  0  0  0  0  0  0  0  0  0  0
   11.0044    5.3312    0.0000 H   0  0  0  0  0  0  0  0  0  0  0  0
    5.6720   -1.7838    0.0000 H   0  0  0  0  0  0  0  0  0  0  0  0
   12.2913    3.4418    0.0000 H   0  0  0  0  0  0  0  0  0  0  0  0
   12.9361    3.9103    0.0000 H   0  0  0  0  0  0  0  0  0  0  0  0
   13.3077    4.7216    0.0000 H   0  0  0  0  0  0  0  0  0  0  0  0
   12.9935    5.5402    0.0000 H   0  0  0  0  0  0  0  0  0  0  0  0
   12.1749    5.2260    0.0000 H   0  0  0  0  0  0  0  0  0  0  0  0
    5.6720   -3.1638    0.0000 H   0  0  0  0  0  0  0  0  0  0  0  0
    2.8660   -4.7838    0.0000 H   0  0  0  0  0  0  0  0  0  0  0  0
    4.2690   -5.5938    0.0000 H   0  0  0  0  0  0  0  0  0  0  0  0
    2.0000   -3.2838    0.0000 H   0  0  0  0  0  0  0  0  0  0  0  0
    2.5369   -2.3538    0.0000 H   0  0  0  0  0  0  0  0  0  0  0  0
  1 28  1  0  0  0  0
  2 14  2  0  0  0  0
  3 22  2  0  0  0  0
  4 10  1  0  0  0  0
  4 11  1  0  0  0  0
  4 12  1  0  0  0  0
  8  5  1  1  0  0  0
  5 14  1  0  0  0  0
  5 39  1  0  0  0  0
  6 17  1  0  0  0  0
  6 22  1  0  0  0  0
  6 46  1  0  0  0  0
  7 25  1  0  0  0  0
  7 55  1  0  0  0  0
  7 56  1  0  0  0  0
  8  9  1  0  0  0  0
  8 10  1  0  0  0  0
  8 30  1  0  0  0  0
  9 11  1  0  0  0  0
  9 31  1  0  0  0  0
  9 32  1  0  0  0  0
 10 33  1  0  0  0  0
 10 34  1  0  0  0  0
 11 35  1  0  0  0  0
 11 36  1  0  0  0  0
 12 13  1  0  0  0  0
 12 37  1  0  0  0  0
 12 38  1  0  0  0  0
 13 15  2  0  0  0  0
 13 16  1  0  0  0  0
 14 17  1  0  0  0  0
 15 18  1  0  0  0  0
 15 40  1  0  0  0  0
 16 19  2  0  0  0  0
 16 41  1  0  0  0  0
 17 42  1  0  0  0  0
 17 43  1  0  0  0  0
 18 20  2  0  0  0  0
 18 44  1  0  0  0  0
 19 20  1  0  0  0  0
 19 45  1  0  0  0  0
 20 21  1  0  0  0  0
 21 23  1  0  0  0  0
 21 47  1  0  0  0  0
 21 48  1  0  0  0  0
 22 24  1  0  0  0  0
 23 49  1  0  0  0  0
 23 50  1  0  0  0  0
 23 51  1  0  0  0  0
 24 25  2  0  0  0  0
 24 26  1  0  0  0  0
 25 27  1  0  0  0  0
 26 28  2  0  0  0  0
 26 52  1  0  0  0  0
 27 29  2  0  0  0  0
 27 53  1  0  0  0  0
 28 29  1  0  0  0  0
 29 54  1  0  0  0  0
M  END
> <PUBCHEM_COMPOUND_CID>
508893
> <PUBCHEM_COMPOUND_CANONICALIZED>
1
> <PUBCHEM_CACTVS_COMPLEXITY>
553
> <PUBCHEM_CACTVS_HBOND_ACCEPTOR>
4
> <PUBCHEM_CACTVS_HBOND_DONOR>
3
> <PUBCHEM_CACTVS_ROTATABLE_BOND>
7
> <PUBCHEM_CACTVS_SUBSKEYS>
AAADceB7sAAAAgAAAAAAAAAAAAAAAWAAAAAwYAAAAAAAAAABQAAAHgAwAAAADCjDmAQywIPAAACIAiVSUACCAAAkAgAIiIGIZMgIYDqA1bGUIYhglgCIyccYiMCOQAAAAAACAACAAAAAAAQAAAAAAAAAAA==
> <PUBCHEM_IUPAC_OPENEYE_NAME>
2-amino-N-[2-[[(3R)-1-[(4-ethylphenyl)methyl]pyrrolidin-3-yl]amino]-2-oxo-ethyl]-5-iodo-benzamide
> <PUBCHEM_IUPAC_CAS_NAME>
2-amino-N-[2-[[(3R)-1-[(4-ethylphenyl)methyl]-3-pyrrolidinyl]amino]-2-oxoethyl]-5-iodobenzamide
> <PUBCHEM_IUPAC_NAME_MARKUP>
2-amino-<I>N</I>-[2-[[(3<I>R</I>)-1-[(4-ethylphenyl)methyl]pyrrolidin-3-yl]amino]-2-oxoethyl]-5-iodobenzamide
> <PUBCHEM_IUPAC_NAME>
2-amino-N-[2-[[(3R)-1-[(4-ethylphenyl)methyl]pyrrolidin-3-yl]amino]-2-oxoethyl]-5-iodobenzamide
> <PUBCHEM_IUPAC_SYSTEMATIC_NAME>
2-azanyl-N-[2-[[(3R)-1-[(4-ethylphenyl)methyl]pyrrolidin-3-yl]amino]-2-oxidanylidene-ethyl]-5-iodanyl-benzamide
> <PUBCHEM_IUPAC_TRADITIONAL_NAME>
2-amino-N-[2-[[(3R)-1-(4-ethylbenzyl)pyrrolidin-3-yl]amino]-2-keto-ethyl]-5-iodo-benzamide
> <PUBCHEM_IUPAC_INCHI>
InChI=1S/C22H27IN4O2/c1-2-15-3-5-16(6-4-15)13-27-10-9-18(14-27)26-21(28)12-25-22(29)19-11-17(23)7-8-20(19)24/h3-8,11,18H,2,9-10,12-14,24H2,1H3,(H,25,29)(H,26,28)/t18-/m1/s1
> <PUBCHEM_IUPAC_INCHIKEY>
OXRNIGOBMUGPBU-GOSISDBHSA-N
> <PUBCHEM_XLOGP3_AA>
3.6
> <PUBCHEM_EXACT_MASS>
506.11787
> <PUBCHEM_MOLECULAR_FORMULA>
C22H27IN4O2
> <PUBCHEM_MOLECULAR_WEIGHT>
506.4
> <PUBCHEM_OPENEYE_CAN_SMILES>
CCC1=CC=C(C=C1)CN2CCC(C2)NC(=O)CNC(=O)C3=C(C=CC(=C3)I)N
> <PUBCHEM_OPENEYE_ISO_SMILES>
CCC1=CC=C(C=C1)CN2CC[C@H](C2)NC(=O)CNC(=O)C3=C(C=CC(=C3)I)N
> <PUBCHEM_CACTVS_TPSA>
87.5
> <PUBCHEM_MONOISOTOPIC_WEIGHT>
506.11787
> <PUBCHEM_TOTAL_CHARGE>
0
> <PUBCHEM_HEAVY_ATOM_COUNT>
29
> <PUBCHEM_ATOM_DEF_STEREO_COUNT>
1
> <PUBCHEM_ATOM_UDEF_STEREO_COUNT>
0
> <PUBCHEM_BOND_DEF_STEREO_COUNT>
0
> <PUBCHEM_BOND_UDEF_STEREO_COUNT>
0
> <PUBCHEM_ISOTOPIC_ATOM_COUNT>
0
> <PUBCHEM_COMPONENT_COUNT>
1
> <PUBCHEM_CACTVS_TAUTO_COUNT>
-1
> <PUBCHEM_COORDINATE_TYPE>
1
5
255
> <PUBCHEM_BONDANNOTATIONS>
13  15  8
13  16  8
15  18  8
16  19  8
18  20  8
19  20  8
24  25  8
24  26  8
25  27  8
26  28  8
27  29  8
28  29  8
8  5  5
$$$$
