508891
  -OEChem-10302200282D
 55 57  0     1  0  0  0  0  0999 V2000
    6.0010   -4.8693    0.0000 I   0  0  0  0  0  0  0  0  0  0  0  0
    6.8671   -0.3693    0.0000 O   0  0  0  0  0  0  0  0  0  0  0  0
   11.5211    2.3377    0.0000 O   0  0  0  0  0  0  0  0  0  0  0  0
   12.3346    4.1648    0.0000 O   0  0  0  0  0  0  0  0  0  0  0  0
    3.4030   -1.3693    0.0000 O   0  0  0  0  0  0  0  0  0  0  0  0
    7.9497    2.8331    0.0000 N   0  0  3  0  0  0  0  0  0  0  0  0
    6.0010    1.1307    0.0000 N   0  0  0  0  0  0  0  0  0  0  0  0
    5.1350   -1.3693    0.0000 N   0  0  0  0  0  0  0  0  0  0  0  0
    2.5369   -2.8693    0.0000 N   0  0  0  0  0  0  0  0  0  0  0  0
    6.8671    1.6307    0.0000 C   0  0  2  0  0  0  0  0  0  0  0  0
    7.7806    1.2240    0.0000 C   0  0  0  0  0  0  0  0  0  0  0  0
    6.9716    2.6252    0.0000 C   0  0  0  0  0  0  0  0  0  0  0  0
    8.4497    1.9671    0.0000 C   0  0  0  0  0  0  0  0  0  0  0  0
    8.3565    3.7467    0.0000 C   0  0  0  0  0  0  0  0  0  0  0  0
    9.3510    3.8512    0.0000 C   0  0  0  0  0  0  0  0  0  0  0  0
    6.0010    0.1307    0.0000 C   0  0  0  0  0  0  0  0  0  0  0  0
    9.9388    3.0422    0.0000 C   0  0  0  0  0  0  0  0  0  0  0  0
    9.7577    4.7648    0.0000 C   0  0  0  0  0  0  0  0  0  0  0  0
    5.1350   -0.3693    0.0000 C   0  0  0  0  0  0  0  0  0  0  0  0
   10.9333    3.1467    0.0000 C   0  0  0  0  0  0  0  0  0  0  0  0
   10.7523    4.8693    0.0000 C   0  0  0  0  0  0  0  0  0  0  0  0
   11.3400    4.0603    0.0000 C   0  0  0  0  0  0  0  0  0  0  0  0
    4.2690   -1.8693    0.0000 C   0  0  0  0  0  0  0  0  0  0  0  0
    4.2690   -2.8693    0.0000 C   0  0  0  0  0  0  0  0  0  0  0  0
   12.5156    2.4422    0.0000 C   0  0  0  0  0  0  0  0  0  0  0  0
    3.4030   -3.3693    0.0000 C   0  0  0  0  0  0  0  0  0  0  0  0
    5.1350   -3.3693    0.0000 C   0  0  0  0  0  0  0  0  0  0  0  0
    3.4030   -4.3693    0.0000 C   0  0  0  0  0  0  0  0  0  0  0  0
    5.1350   -4.3693    0.0000 C   0  0  0  0  0  0  0  0  0  0  0  0
    4.2690   -4.8693    0.0000 C   0  0  0  0  0  0  0  0  0  0  0  0
    6.3471    1.9684    0.0000 H   0  0  0  0  0  0  0  0  0  0  0  0
    7.4706    0.6870    0.0000 H   0  0  0  0  0  0  0  0  0  0  0  0
    8.2822    0.8595    0.0000 H   0  0  0  0  0  0  0  0  0  0  0  0
    6.9068    3.2418    0.0000 H   0  0  0  0  0  0  0  0  0  0  0  0
    6.3516    2.6252    0.0000 H   0  0  0  0  0  0  0  0  0  0  0  0
    8.8646    1.5064    0.0000 H   0  0  0  0  0  0  0  0  0  0  0  0
    8.9513    2.3315    0.0000 H   0  0  0  0  0  0  0  0  0  0  0  0
    8.3997    4.3652    0.0000 H   0  0  0  0  0  0  0  0  0  0  0  0
    7.7549    3.8967    0.0000 H   0  0  0  0  0  0  0  0  0  0  0  0
    5.4641    1.4407    0.0000 H   0  0  0  0  0  0  0  0  0  0  0  0
    9.6866    2.4758    0.0000 H   0  0  0  0  0  0  0  0  0  0  0  0
    9.3933    5.2664    0.0000 H   0  0  0  0  0  0  0  0  0  0  0  0
    4.9230    0.2133    0.0000 H   0  0  0  0  0  0  0  0  0  0  0  0
    4.5244   -0.4770    0.0000 H   0  0  0  0  0  0  0  0  0  0  0  0
   11.0044    5.4357    0.0000 H   0  0  0  0  0  0  0  0  0  0  0  0
    5.6720   -1.6793    0.0000 H   0  0  0  0  0  0  0  0  0  0  0  0
   12.5867    4.7312    0.0000 H   0  0  0  0  0  0  0  0  0  0  0  0
   12.5804    1.8256    0.0000 H   0  0  0  0  0  0  0  0  0  0  0  0
   13.1322    2.5070    0.0000 H   0  0  0  0  0  0  0  0  0  0  0  0
   12.4508    3.0588    0.0000 H   0  0  0  0  0  0  0  0  0  0  0  0
    5.6720   -3.0593    0.0000 H   0  0  0  0  0  0  0  0  0  0  0  0
    2.8660   -4.6793    0.0000 H   0  0  0  0  0  0  0  0  0  0  0  0
    4.2690   -5.4893    0.0000 H   0  0  0  0  0  0  0  0  0  0  0  0
    2.0000   -3.1793    0.0000 H   0  0  0  0  0  0  0  0  0  0  0  0
    2.5369   -2.2493    0.0000 H   0  0  0  0  0  0  0  0  0  0  0  0
  1 29  1  0  0  0  0
  2 16  2  0  0  0  0
  3 20  1  0  0  0  0
  3 25  1  0  0  0  0
  4 22  1  0  0  0  0
  4 47  1  0  0  0  0
  5 23  2  0  0  0  0
  6 12  1  0  0  0  0
  6 13  1  0  0  0  0
  6 14  1  0  0  0  0
 10  7  1  1  0  0  0
  7 16  1  0  0  0  0
  7 40  1  0  0  0  0
  8 19  1  0  0  0  0
  8 23  1  0  0  0  0
  8 46  1  0  0  0  0
  9 26  1  0  0  0  0
  9 54  1  0  0  0  0
  9 55  1  0  0  0  0
 10 11  1  0  0  0  0
 10 12  1  0  0  0  0
 10 31  1  0  0  0  0
 11 13  1  0  0  0  0
 11 32  1  0  0  0  0
 11 33  1  0  0  0  0
 12 34  1  0  0  0  0
 12 35  1  0  0  0  0
 13 36  1  0  0  0  0
 13 37  1  0  0  0  0
 14 15  1  0  0  0  0
 14 38  1  0  0  0  0
 14 39  1  0  0  0  0
 15 17  2  0  0  0  0
 15 18  1  0  0  0  0
 16 19  1  0  0  0  0
 17 20  1  0  0  0  0
 17 41  1  0  0  0  0
 18 21  2  0  0  0  0
 18 42  1  0  0  0  0
 19 43  1  0  0  0  0
 19 44  1  0  0  0  0
 20 22  2  0  0  0  0
 21 22  1  0  0  0  0
 21 45  1  0  0  0  0
 23 24  1  0  0  0  0
 24 26  2  0  0  0  0
 24 27  1  0  0  0  0
 25 48  1  0  0  0  0
 25 49  1  0  0  0  0
 25 50  1  0  0  0  0
 26 28  1  0  0  0  0
 27 29  2  0  0  0  0
 27 51  1  0  0  0  0
 28 30  2  0  0  0  0
 28 52  1  0  0  0  0
 29 30  1  0  0  0  0
 30 53  1  0  0  0  0
M  END
> <PUBCHEM_COMPOUND_CID>
508891
> <PUBCHEM_COMPOUND_CANONICALIZED>
1
> <PUBCHEM_CACTVS_COMPLEXITY>
595
> <PUBCHEM_CACTVS_HBOND_ACCEPTOR>
6
> <PUBCHEM_CACTVS_HBOND_DONOR>
4
> <PUBCHEM_CACTVS_ROTATABLE_BOND>
7
> <PUBCHEM_CACTVS_SUBSKEYS>
AAADceB7uAAAAgAAAAAAAAAAAAAAAWAAAAAwYAAAAAAAAAABQAAAHgAwCAAADCzDmAYyxoPABgCIAiVSUACCCAAkIgAIiIGO7MgNZjqG9buUcatk1hGL+ce42BKOIAABAAACQABAAAIAAASAAAAAAAAAAA==
> <PUBCHEM_IUPAC_OPENEYE_NAME>
2-amino-N-[2-[[(3R)-1-[(4-hydroxy-3-methoxy-phenyl)methyl]pyrrolidin-3-yl]amino]-2-oxo-ethyl]-5-iodo-benzamide
> <PUBCHEM_IUPAC_CAS_NAME>
2-amino-N-[2-[[(3R)-1-[(4-hydroxy-3-methoxyphenyl)methyl]-3-pyrrolidinyl]amino]-2-oxoethyl]-5-iodobenzamide
> <PUBCHEM_IUPAC_NAME_MARKUP>
2-amino-<I>N</I>-[2-[[(3<I>R</I>)-1-[(4-hydroxy-3-methoxyphenyl)methyl]pyrrolidin-3-yl]amino]-2-oxoethyl]-5-iodobenzamide
> <PUBCHEM_IUPAC_NAME>
2-amino-N-[2-[[(3R)-1-[(4-hydroxy-3-methoxyphenyl)methyl]pyrrolidin-3-yl]amino]-2-oxoethyl]-5-iodobenzamide
> <PUBCHEM_IUPAC_SYSTEMATIC_NAME>
2-azanyl-5-iodanyl-N-[2-[[(3R)-1-[(3-methoxy-4-oxidanyl-phenyl)methyl]pyrrolidin-3-yl]amino]-2-oxidanylidene-ethyl]benzamide
> <PUBCHEM_IUPAC_TRADITIONAL_NAME>
2-amino-5-iodo-N-[2-keto-2-[[(3R)-1-vanillylpyrrolidin-3-yl]amino]ethyl]benzamide
> <PUBCHEM_IUPAC_INCHI>
InChI=1S/C21H25IN4O4/c1-30-19-8-13(2-5-18(19)27)11-26-7-6-15(12-26)25-20(28)10-24-21(29)16-9-14(22)3-4-17(16)23/h2-5,8-9,15,27H,6-7,10-12,23H2,1H3,(H,24,29)(H,25,28)/t15-/m1/s1
> <PUBCHEM_IUPAC_INCHIKEY>
CSCJXVKJYLWFSG-OAHLLOKOSA-N
> <PUBCHEM_XLOGP3_AA>
2.4
> <PUBCHEM_EXACT_MASS>
524.09205
> <PUBCHEM_MOLECULAR_FORMULA>
C21H25IN4O4
> <PUBCHEM_MOLECULAR_WEIGHT>
524.4
> <PUBCHEM_OPENEYE_CAN_SMILES>
COC1=C(C=CC(=C1)CN2CCC(C2)NC(=O)CNC(=O)C3=C(C=CC(=C3)I)N)O
> <PUBCHEM_OPENEYE_ISO_SMILES>
COC1=C(C=CC(=C1)CN2CC[C@H](C2)NC(=O)CNC(=O)C3=C(C=CC(=C3)I)N)O
> <PUBCHEM_CACTVS_TPSA>
117
> <PUBCHEM_MONOISOTOPIC_WEIGHT>
524.09205
> <PUBCHEM_TOTAL_CHARGE>
0
> <PUBCHEM_HEAVY_ATOM_COUNT>
30
> <PUBCHEM_ATOM_DEF_STEREO_COUNT>
1
> <PUBCHEM_ATOM_UDEF_STEREO_COUNT>
0
> <PUBCHEM_BOND_DEF_STEREO_COUNT>
0
> <PUBCHEM_BOND_UDEF_STEREO_COUNT>
0
> <PUBCHEM_ISOTOPIC_ATOM_COUNT>
0
> <PUBCHEM_COMPONENT_COUNT>
1
> <PUBCHEM_CACTVS_TAUTO_COUNT>
-1
> <PUBCHEM_COORDINATE_TYPE>
1
5
255
> <PUBCHEM_BONDANNOTATIONS>
15  17  8
15  18  8
17  20  8
18  21  8
20  22  8
21  22  8
24  26  8
24  27  8
26  28  8
27  29  8
28  30  8
29  30  8
10  7  5
$$$$
