508897
  -OEChem-10302200282D
 58 60  0     1  0  0  0  0  0999 V2000
    6.8671    0.1307    0.0000 O   0  0  0  0  0  0  0  0  0  0  0  0
    3.4030   -0.8693    0.0000 O   0  0  0  0  0  0  0  0  0  0  0  0
    6.0010   -5.3693    0.0000 O   0  5  0  0  0  0  0  0  0  0  0  0
    6.8671   -3.8693    0.0000 O   0  0  0  0  0  0  0  0  0  0  0  0
    7.9497    3.3331    0.0000 N   0  0  3  0  0  0  0  0  0  0  0  0
    6.0010    1.6307    0.0000 N   0  0  0  0  0  0  0  0  0  0  0  0
    5.1350   -0.8693    0.0000 N   0  0  0  0  0  0  0  0  0  0  0  0
    2.5369   -2.3693    0.0000 N   0  0  0  0  0  0  0  0  0  0  0  0
    6.0010   -4.3693    0.0000 N   0  3  0  0  0  0  0  0  0  0  0  0
    6.8671    2.1307    0.0000 C   0  0  1  0  0  0  0  0  0  0  0  0
    6.9716    3.1252    0.0000 C   0  0  0  0  0  0  0  0  0  0  0  0
    7.7806    1.7240    0.0000 C   0  0  0  0  0  0  0  0  0  0  0  0
    8.4497    2.4671    0.0000 C   0  0  0  0  0  0  0  0  0  0  0  0
    8.3565    4.2467    0.0000 C   0  0  0  0  0  0  0  0  0  0  0  0
    9.3510    4.3512    0.0000 C   0  0  0  0  0  0  0  0  0  0  0  0
    6.0010    0.6307    0.0000 C   0  0  0  0  0  0  0  0  0  0  0  0
    9.9388    3.5422    0.0000 C   0  0  0  0  0  0  0  0  0  0  0  0
    9.7577    5.2648    0.0000 C   0  0  0  0  0  0  0  0  0  0  0  0
    5.1350    0.1307    0.0000 C   0  0  0  0  0  0  0  0  0  0  0  0
   10.9333    3.6467    0.0000 C   0  0  0  0  0  0  0  0  0  0  0  0
   10.7523    5.3693    0.0000 C   0  0  0  0  0  0  0  0  0  0  0  0
    9.5320    2.6286    0.0000 C   0  0  0  0  0  0  0  0  0  0  0  0
   11.3400    4.5603    0.0000 C   0  0  0  0  0  0  0  0  0  0  0  0
   12.3346    4.6648    0.0000 C   0  0  0  0  0  0  0  0  0  0  0  0
    4.2690   -1.3693    0.0000 C   0  0  0  0  0  0  0  0  0  0  0  0
    4.2690   -2.3693    0.0000 C   0  0  0  0  0  0  0  0  0  0  0  0
    3.4030   -2.8693    0.0000 C   0  0  0  0  0  0  0  0  0  0  0  0
    5.1350   -2.8693    0.0000 C   0  0  0  0  0  0  0  0  0  0  0  0
    5.1350   -3.8693    0.0000 C   0  0  0  0  0  0  0  0  0  0  0  0
    3.4030   -3.8693    0.0000 C   0  0  0  0  0  0  0  0  0  0  0  0
    4.2690   -4.3693    0.0000 C   0  0  0  0  0  0  0  0  0  0  0  0
    6.8995    1.5116    0.0000 H   0  0  0  0  0  0  0  0  0  0  0  0
    6.9068    3.7418    0.0000 H   0  0  0  0  0  0  0  0  0  0  0  0
    6.3516    3.1252    0.0000 H   0  0  0  0  0  0  0  0  0  0  0  0
    7.4706    1.1870    0.0000 H   0  0  0  0  0  0  0  0  0  0  0  0
    8.2822    1.3596    0.0000 H   0  0  0  0  0  0  0  0  0  0  0  0
    8.8646    2.0064    0.0000 H   0  0  0  0  0  0  0  0  0  0  0  0
    8.9513    2.8315    0.0000 H   0  0  0  0  0  0  0  0  0  0  0  0
    8.3997    4.8652    0.0000 H   0  0  0  0  0  0  0  0  0  0  0  0
    7.7549    4.3967    0.0000 H   0  0  0  0  0  0  0  0  0  0  0  0
    5.4641    1.9407    0.0000 H   0  0  0  0  0  0  0  0  0  0  0  0
    9.3933    5.7664    0.0000 H   0  0  0  0  0  0  0  0  0  0  0  0
    4.9230    0.7133    0.0000 H   0  0  0  0  0  0  0  0  0  0  0  0
    4.5244    0.0230    0.0000 H   0  0  0  0  0  0  0  0  0  0  0  0
   11.2977    3.1451    0.0000 H   0  0  0  0  0  0  0  0  0  0  0  0
   11.0044    5.9357    0.0000 H   0  0  0  0  0  0  0  0  0  0  0  0
    8.9656    2.8808    0.0000 H   0  0  0  0  0  0  0  0  0  0  0  0
    9.2799    2.0623    0.0000 H   0  0  0  0  0  0  0  0  0  0  0  0
   10.0984    2.3765    0.0000 H   0  0  0  0  0  0  0  0  0  0  0  0
    5.6720   -1.1793    0.0000 H   0  0  0  0  0  0  0  0  0  0  0  0
   12.3994    4.0482    0.0000 H   0  0  0  0  0  0  0  0  0  0  0  0
   12.9512    4.7296    0.0000 H   0  0  0  0  0  0  0  0  0  0  0  0
   12.2698    5.2814    0.0000 H   0  0  0  0  0  0  0  0  0  0  0  0
    5.6720   -2.5593    0.0000 H   0  0  0  0  0  0  0  0  0  0  0  0
    2.8660   -4.1793    0.0000 H   0  0  0  0  0  0  0  0  0  0  0  0
    4.2690   -4.9893    0.0000 H   0  0  0  0  0  0  0  0  0  0  0  0
    2.0000   -2.6793    0.0000 H   0  0  0  0  0  0  0  0  0  0  0  0
    2.5369   -1.7493    0.0000 H   0  0  0  0  0  0  0  0  0  0  0  0
  1 16  2  0  0  0  0
  2 25  2  0  0  0  0
  3  9  1  0  0  0  0
  4  9  2  0  0  0  0
  5 11  1  0  0  0  0
  5 13  1  0  0  0  0
  5 14  1  0  0  0  0
 10  6  1  1  0  0  0
  6 16  1  0  0  0  0
  6 41  1  0  0  0  0
  7 19  1  0  0  0  0
  7 25  1  0  0  0  0
  7 50  1  0  0  0  0
  8 27  1  0  0  0  0
  8 57  1  0  0  0  0
  8 58  1  0  0  0  0
  9 29  1  0  0  0  0
 10 11  1  0  0  0  0
 10 12  1  0  0  0  0
 10 32  1  0  0  0  0
 11 33  1  0  0  0  0
 11 34  1  0  0  0  0
 12 13  1  0  0  0  0
 12 35  1  0  0  0  0
 12 36  1  0  0  0  0
 13 37  1  0  0  0  0
 13 38  1  0  0  0  0
 14 15  1  0  0  0  0
 14 39  1  0  0  0  0
 14 40  1  0  0  0  0
 15 17  2  0  0  0  0
 15 18  1  0  0  0  0
 16 19  1  0  0  0  0
 17 20  1  0  0  0  0
 17 22  1  0  0  0  0
 18 21  2  0  0  0  0
 18 42  1  0  0  0  0
 19 43  1  0  0  0  0
 19 44  1  0  0  0  0
 20 23  2  0  0  0  0
 20 45  1  0  0  0  0
 21 23  1  0  0  0  0
 21 46  1  0  0  0  0
 22 47  1  0  0  0  0
 22 48  1  0  0  0  0
 22 49  1  0  0  0  0
 23 24  1  0  0  0  0
 24 51  1  0  0  0  0
 24 52  1  0  0  0  0
 24 53  1  0  0  0  0
 25 26  1  0  0  0  0
 26 27  2  0  0  0  0
 26 28  1  0  0  0  0
 27 30  1  0  0  0  0
 28 29  2  0  0  0  0
 28 54  1  0  0  0  0
 29 31  1  0  0  0  0
 30 31  2  0  0  0  0
 30 55  1  0  0  0  0
 31 56  1  0  0  0  0
M  CHG  2   3  -1   9   1
M  END
> <PUBCHEM_COMPOUND_CID>
508897
> <PUBCHEM_COMPOUND_CANONICALIZED>
1
> <PUBCHEM_CACTVS_COMPLEXITY>
654
> <PUBCHEM_CACTVS_HBOND_ACCEPTOR>
6
> <PUBCHEM_CACTVS_HBOND_DONOR>
3
> <PUBCHEM_CACTVS_ROTATABLE_BOND>
6
> <PUBCHEM_CACTVS_SUBSKEYS>
AAADceB7uAAAAAAAAAAAAAAAAAAAAWAAAAAwYAAAAAAAAAABQAAAHgAUAAAADCjBmAQywIPQQACJAiVSUwCCAAAkAgAoiIGIZMoIYDqA1bGUIYhglgCIyccciMCOwACCQAASAACAAQSAACQAAAAAAAAAAA==
> <PUBCHEM_IUPAC_OPENEYE_NAME>
2-amino-N-[2-[[(3R)-1-[(2,4-dimethylphenyl)methyl]pyrrolidin-3-yl]amino]-2-oxo-ethyl]-5-nitro-benzamide
> <PUBCHEM_IUPAC_CAS_NAME>
2-amino-N-[2-[[(3R)-1-[(2,4-dimethylphenyl)methyl]-3-pyrrolidinyl]amino]-2-oxoethyl]-5-nitrobenzamide
> <PUBCHEM_IUPAC_NAME_MARKUP>
2-amino-<I>N</I>-[2-[[(3<I>R</I>)-1-[(2,4-dimethylphenyl)methyl]pyrrolidin-3-yl]amino]-2-oxoethyl]-5-nitrobenzamide
> <PUBCHEM_IUPAC_NAME>
2-amino-N-[2-[[(3R)-1-[(2,4-dimethylphenyl)methyl]pyrrolidin-3-yl]amino]-2-oxoethyl]-5-nitrobenzamide
> <PUBCHEM_IUPAC_SYSTEMATIC_NAME>
2-azanyl-N-[2-[[(3R)-1-[(2,4-dimethylphenyl)methyl]pyrrolidin-3-yl]amino]-2-oxidanylidene-ethyl]-5-nitro-benzamide
> <PUBCHEM_IUPAC_TRADITIONAL_NAME>
2-amino-N-[2-[[(3R)-1-(2,4-dimethylbenzyl)pyrrolidin-3-yl]amino]-2-keto-ethyl]-5-nitro-benzamide
> <PUBCHEM_IUPAC_INCHI>
InChI=1S/C22H27N5O4/c1-14-3-4-16(15(2)9-14)12-26-8-7-17(13-26)25-21(28)11-24-22(29)19-10-18(27(30)31)5-6-20(19)23/h3-6,9-10,17H,7-8,11-13,23H2,1-2H3,(H,24,29)(H,25,28)/t17-/m1/s1
> <PUBCHEM_IUPAC_INCHIKEY>
STZOBRZJGUIVTB-QGZVFWFLSA-N
> <PUBCHEM_XLOGP3_AA>
2.7
> <PUBCHEM_EXACT_MASS>
425.20630436
> <PUBCHEM_MOLECULAR_FORMULA>
C22H27N5O4
> <PUBCHEM_MOLECULAR_WEIGHT>
425.5
> <PUBCHEM_OPENEYE_CAN_SMILES>
CC1=CC(=C(C=C1)CN2CCC(C2)NC(=O)CNC(=O)C3=C(C=CC(=C3)[N+](=O)[O-])N)C
> <PUBCHEM_OPENEYE_ISO_SMILES>
CC1=CC(=C(C=C1)CN2CC[C@H](C2)NC(=O)CNC(=O)C3=C(C=CC(=C3)[N+](=O)[O-])N)C
> <PUBCHEM_CACTVS_TPSA>
133
> <PUBCHEM_MONOISOTOPIC_WEIGHT>
425.20630436
> <PUBCHEM_TOTAL_CHARGE>
0
> <PUBCHEM_HEAVY_ATOM_COUNT>
31
> <PUBCHEM_ATOM_DEF_STEREO_COUNT>
1
> <PUBCHEM_ATOM_UDEF_STEREO_COUNT>
0
> <PUBCHEM_BOND_DEF_STEREO_COUNT>
0
> <PUBCHEM_BOND_UDEF_STEREO_COUNT>
0
> <PUBCHEM_ISOTOPIC_ATOM_COUNT>
0
> <PUBCHEM_COMPONENT_COUNT>
1
> <PUBCHEM_CACTVS_TAUTO_COUNT>
-1
> <PUBCHEM_COORDINATE_TYPE>
1
5
255
> <PUBCHEM_BONDANNOTATIONS>
15  17  8
15  18  8
17  20  8
18  21  8
20  23  8
21  23  8
26  27  8
26  28  8
27  30  8
28  29  8
29  31  8
30  31  8
10  6  5
$$$$
