508885
  -OEChem-10302200282D
 63 65  0     1  0  0  0  0  0999 V2000
    7.3563    1.8739    0.0000 O   0  0  0  0  0  0  0  0  0  0  0  0
   11.9277    2.3694    0.0000 O   0  0  0  0  0  0  0  0  0  0  0  0
   10.7466    0.6468    0.0000 O   0  0  0  0  0  0  0  0  0  0  0  0
    4.5981   -0.0805    0.0000 N   0  0  3  0  0  0  0  0  0  0  0  0
    7.1753    0.1514    0.0000 N   0  0  0  0  0  0  0  0  0  0  0  0
    9.3454    1.6649    0.0000 N   0  0  0  0  0  0  0  0  0  0  0  0
    6.1808    0.2559    0.0000 C   0  0  1  0  0  0  0  0  0  0  0  0
    5.5116   -0.4872    0.0000 C   0  0  0  0  0  0  0  0  0  0  0  0
    5.6808    1.1219    0.0000 C   0  0  0  0  0  0  0  0  0  0  0  0
    4.7026    0.9140    0.0000 C   0  0  0  0  0  0  0  0  0  0  0  0
    3.7320   -0.5805    0.0000 C   0  0  0  0  0  0  0  0  0  0  0  0
    3.7320   -1.5805    0.0000 C   0  0  0  0  0  0  0  0  0  0  0  0
    7.7631    0.9604    0.0000 C   0  0  0  0  0  0  0  0  0  0  0  0
    2.8660   -2.0805    0.0000 C   0  0  0  0  0  0  0  0  0  0  0  0
    4.5981   -2.0805    0.0000 C   0  0  0  0  0  0  0  0  0  0  0  0
    8.7576    0.8559    0.0000 C   0  0  0  0  0  0  0  0  0  0  0  0
   13.1877    3.6294    0.0000 C   0  0  0  0  0  0  0  0  0  0  0  0
    2.8660   -3.0805    0.0000 C   0  0  0  0  0  0  0  0  0  0  0  0
    4.5981   -3.0805    0.0000 C   0  0  0  0  0  0  0  0  0  0  0  0
    2.0000   -1.5805    0.0000 C   0  0  0  0  0  0  0  0  0  0  0  0
    3.7320   -3.5805    0.0000 C   0  0  0  0  0  0  0  0  0  0  0  0
   12.2367    3.3204    0.0000 C   0  0  0  0  0  0  0  0  0  0  0  0
   14.1388    3.9385    0.0000 C   0  0  0  0  0  0  0  0  0  0  0  0
   12.8787    4.5805    0.0000 C   0  0  0  0  0  0  0  0  0  0  0  0
   13.4968    2.6784    0.0000 C   0  0  0  0  0  0  0  0  0  0  0  0
   10.9277    2.3694    0.0000 C   0  0  0  0  0  0  0  0  0  0  0  0
   10.3399    1.5603    0.0000 C   0  0  0  0  0  0  0  0  0  0  0  0
   11.4277    3.9082    0.0000 C   0  0  0  0  0  0  0  0  0  0  0  0
    3.7320   -4.5805    0.0000 C   0  0  0  0  0  0  0  0  0  0  0  0
   10.6187    3.3204    0.0000 C   0  0  0  0  0  0  0  0  0  0  0  0
    6.4029   -0.3229    0.0000 H   0  0  0  0  0  0  0  0  0  0  0  0
    5.2016   -1.0242    0.0000 H   0  0  0  0  0  0  0  0  0  0  0  0
    6.0132   -0.8517    0.0000 H   0  0  0  0  0  0  0  0  0  0  0  0
    6.2472    1.3741    0.0000 H   0  0  0  0  0  0  0  0  0  0  0  0
    5.4892    1.7116    0.0000 H   0  0  0  0  0  0  0  0  0  0  0  0
    4.6378    1.5306    0.0000 H   0  0  0  0  0  0  0  0  0  0  0  0
    4.0826    0.9140    0.0000 H   0  0  0  0  0  0  0  0  0  0  0  0
    3.5200    0.0021    0.0000 H   0  0  0  0  0  0  0  0  0  0  0  0
    3.1215   -0.6882    0.0000 H   0  0  0  0  0  0  0  0  0  0  0  0
    7.4274   -0.4150    0.0000 H   0  0  0  0  0  0  0  0  0  0  0  0
    5.1350   -1.7705    0.0000 H   0  0  0  0  0  0  0  0  0  0  0  0
    8.5867    0.2599    0.0000 H   0  0  0  0  0  0  0  0  0  0  0  0
    9.3148    0.5841    0.0000 H   0  0  0  0  0  0  0  0  0  0  0  0
    2.3291   -3.3905    0.0000 H   0  0  0  0  0  0  0  0  0  0  0  0
    5.1350   -3.3905    0.0000 H   0  0  0  0  0  0  0  0  0  0  0  0
    2.3100   -1.0436    0.0000 H   0  0  0  0  0  0  0  0  0  0  0  0
    1.4631   -1.2705    0.0000 H   0  0  0  0  0  0  0  0  0  0  0  0
    1.6900   -2.1174    0.0000 H   0  0  0  0  0  0  0  0  0  0  0  0
    9.0932    2.2313    0.0000 H   0  0  0  0  0  0  0  0  0  0  0  0
   14.3304    3.3488    0.0000 H   0  0  0  0  0  0  0  0  0  0  0  0
   14.7285    4.1300    0.0000 H   0  0  0  0  0  0  0  0  0  0  0  0
   13.9472    4.5281    0.0000 H   0  0  0  0  0  0  0  0  0  0  0  0
   13.4684    4.7721    0.0000 H   0  0  0  0  0  0  0  0  0  0  0  0
   12.6871    5.1702    0.0000 H   0  0  0  0  0  0  0  0  0  0  0  0
   12.2891    4.3889    0.0000 H   0  0  0  0  0  0  0  0  0  0  0  0
   12.9071    2.4868    0.0000 H   0  0  0  0  0  0  0  0  0  0  0  0
   13.6884    2.0887    0.0000 H   0  0  0  0  0  0  0  0  0  0  0  0
   14.0864    2.8700    0.0000 H   0  0  0  0  0  0  0  0  0  0  0  0
   11.4277    4.5282    0.0000 H   0  0  0  0  0  0  0  0  0  0  0  0
    3.1120   -4.5805    0.0000 H   0  0  0  0  0  0  0  0  0  0  0  0
    3.7320   -5.2005    0.0000 H   0  0  0  0  0  0  0  0  0  0  0  0
    4.3520   -4.5805    0.0000 H   0  0  0  0  0  0  0  0  0  0  0  0
   10.0290    3.5120    0.0000 H   0  0  0  0  0  0  0  0  0  0  0  0
  1 13  2  0  0  0  0
  2 22  1  0  0  0  0
  2 26  1  0  0  0  0
  3 27  2  0  0  0  0
  4  8  1  0  0  0  0
  4 10  1  0  0  0  0
  4 11  1  0  0  0  0
  7  5  1  1  0  0  0
  5 13  1  0  0  0  0
  5 40  1  0  0  0  0
  6 16  1  0  0  0  0
  6 27  1  0  0  0  0
  6 49  1  0  0  0  0
  7  8  1  0  0  0  0
  7  9  1  0  0  0  0
  7 31  1  0  0  0  0
  8 32  1  0  0  0  0
  8 33  1  0  0  0  0
  9 10  1  0  0  0  0
  9 34  1  0  0  0  0
  9 35  1  0  0  0  0
 10 36  1  0  0  0  0
 10 37  1  0  0  0  0
 11 12  1  0  0  0  0
 11 38  1  0  0  0  0
 11 39  1  0  0  0  0
 12 14  2  0  0  0  0
 12 15  1  0  0  0  0
 13 16  1  0  0  0  0
 14 18  1  0  0  0  0
 14 20  1  0  0  0  0
 15 19  2  0  0  0  0
 15 41  1  0  0  0  0
 16 42  1  0  0  0  0
 16 43  1  0  0  0  0
 17 22  1  0  0  0  0
 17 23  1  0  0  0  0
 17 24  1  0  0  0  0
 17 25  1  0  0  0  0
 18 21  2  0  0  0  0
 18 44  1  0  0  0  0
 19 21  1  0  0  0  0
 19 45  1  0  0  0  0
 20 46  1  0  0  0  0
 20 47  1  0  0  0  0
 20 48  1  0  0  0  0
 21 29  1  0  0  0  0
 22 28  2  0  0  0  0
 23 50  1  0  0  0  0
 23 51  1  0  0  0  0
 23 52  1  0  0  0  0
 24 53  1  0  0  0  0
 24 54  1  0  0  0  0
 24 55  1  0  0  0  0
 25 56  1  0  0  0  0
 25 57  1  0  0  0  0
 25 58  1  0  0  0  0
 26 27  1  0  0  0  0
 26 30  2  0  0  0  0
 28 30  1  0  0  0  0
 28 59  1  0  0  0  0
 29 60  1  0  0  0  0
 29 61  1  0  0  0  0
 29 62  1  0  0  0  0
 30 63  1  0  0  0  0
M  END
> <PUBCHEM_COMPOUND_CID>
508885
> <PUBCHEM_COMPOUND_CANONICALIZED>
1
> <PUBCHEM_CACTVS_COMPLEXITY>
603
> <PUBCHEM_CACTVS_HBOND_ACCEPTOR>
4
> <PUBCHEM_CACTVS_HBOND_DONOR>
2
> <PUBCHEM_CACTVS_ROTATABLE_BOND>
7
> <PUBCHEM_CACTVS_SUBSKEYS>
AAADcfB7MAAAAAAAAAAAAAAAAAAAAWJAAAAwAAAAAAAAAAABwAAAHgAQAAAADizBmAQyBIPABECIAqFSEAKCCAAkIAAIiIHODMgOZjKE9T+XOSjk1hGYqYeY39LvwAACAAAQAACAAAQAACAAAAAAAAAAAA==
> <PUBCHEM_IUPAC_OPENEYE_NAME>
5-tert-butyl-N-[2-[[(3R)-1-[(2,4-dimethylphenyl)methyl]pyrrolidin-3-yl]amino]-2-oxo-ethyl]furan-2-carboxamide
> <PUBCHEM_IUPAC_CAS_NAME>
5-tert-butyl-N-[2-[[(3R)-1-[(2,4-dimethylphenyl)methyl]-3-pyrrolidinyl]amino]-2-oxoethyl]-2-furancarboxamide
> <PUBCHEM_IUPAC_NAME_MARKUP>
5-<I>tert</I>-butyl-<I>N</I>-[2-[[(3<I>R</I>)-1-[(2,4-dimethylphenyl)methyl]pyrrolidin-3-yl]amino]-2-oxoethyl]furan-2-carboxamide
> <PUBCHEM_IUPAC_NAME>
5-tert-butyl-N-[2-[[(3R)-1-[(2,4-dimethylphenyl)methyl]pyrrolidin-3-yl]amino]-2-oxoethyl]furan-2-carboxamide
> <PUBCHEM_IUPAC_SYSTEMATIC_NAME>
5-tert-butyl-N-[2-[[(3R)-1-[(2,4-dimethylphenyl)methyl]pyrrolidin-3-yl]amino]-2-oxidanylidene-ethyl]furan-2-carboxamide
> <PUBCHEM_IUPAC_TRADITIONAL_NAME>
5-tert-butyl-N-[2-[[(3R)-1-(2,4-dimethylbenzyl)pyrrolidin-3-yl]amino]-2-keto-ethyl]-2-furamide
> <PUBCHEM_IUPAC_INCHI>
InChI=1S/C24H33N3O3/c1-16-6-7-18(17(2)12-16)14-27-11-10-19(15-27)26-22(28)13-25-23(29)20-8-9-21(30-20)24(3,4)5/h6-9,12,19H,10-11,13-15H2,1-5H3,(H,25,29)(H,26,28)/t19-/m1/s1
> <PUBCHEM_IUPAC_INCHIKEY>
IYIFPBPJGXTMQB-LJQANCHMSA-N
> <PUBCHEM_XLOGP3_AA>
4.1
> <PUBCHEM_EXACT_MASS>
411.25219192
> <PUBCHEM_MOLECULAR_FORMULA>
C24H33N3O3
> <PUBCHEM_MOLECULAR_WEIGHT>
411.5
> <PUBCHEM_OPENEYE_CAN_SMILES>
CC1=CC(=C(C=C1)CN2CCC(C2)NC(=O)CNC(=O)C3=CC=C(O3)C(C)(C)C)C
> <PUBCHEM_OPENEYE_ISO_SMILES>
CC1=CC(=C(C=C1)CN2CC[C@H](C2)NC(=O)CNC(=O)C3=CC=C(O3)C(C)(C)C)C
> <PUBCHEM_CACTVS_TPSA>
74.6
> <PUBCHEM_MONOISOTOPIC_WEIGHT>
411.25219192
> <PUBCHEM_TOTAL_CHARGE>
0
> <PUBCHEM_HEAVY_ATOM_COUNT>
30
> <PUBCHEM_ATOM_DEF_STEREO_COUNT>
1
> <PUBCHEM_ATOM_UDEF_STEREO_COUNT>
0
> <PUBCHEM_BOND_DEF_STEREO_COUNT>
0
> <PUBCHEM_BOND_UDEF_STEREO_COUNT>
0
> <PUBCHEM_ISOTOPIC_ATOM_COUNT>
0
> <PUBCHEM_COMPONENT_COUNT>
1
> <PUBCHEM_CACTVS_TAUTO_COUNT>
-1
> <PUBCHEM_COORDINATE_TYPE>
1
5
255
> <PUBCHEM_BONDANNOTATIONS>
12  14  8
12  15  8
14  18  8
15  19  8
18  21  8
19  21  8
2  22  8
2  26  8
22  28  8
26  30  8
28  30  8
7  5  5
$$$$
