508811
  -OEChem-10302200282D
 56 58  0     1  0  0  0  0  0999 V2000
   11.6663   -5.6602    0.0000 Cl  0  0  0  0  0  0  0  0  0  0  0  0
    6.4892    0.6598    0.0000 O   0  0  0  0  0  0  0  0  0  0  0  0
    2.8843    0.5943    0.0000 O   0  0  0  0  0  0  0  0  0  0  0  0
    4.0405    5.6602    0.0000 O   0  5  0  0  0  0  0  0  0  0  0  0
    5.3102    4.4821    0.0000 O   0  0  0  0  0  0  0  0  0  0  0  0
    8.2022   -2.6602    0.0000 N   0  0  3  0  0  0  0  0  0  0  0  0
    6.1038   -1.0288    0.0000 N   0  0  0  0  0  0  0  0  0  0  0  0
    4.5394    1.1048    0.0000 N   0  0  0  0  0  0  0  0  0  0  0  0
    4.3353    4.7046    0.0000 N   0  3  0  0  0  0  0  0  0  0  0  0
    7.0787   -1.2514    0.0000 C   0  0  3  0  0  0  0  0  0  0  0  0
    7.7022   -0.4695    0.0000 C   0  0  0  0  0  0  0  0  0  0  0  0
    7.3012   -2.2263    0.0000 C   0  0  0  0  0  0  0  0  0  0  0  0
    8.7022   -0.4695    0.0000 C   0  0  0  0  0  0  0  0  0  0  0  0
    9.3257   -1.2514    0.0000 C   0  0  0  0  0  0  0  0  0  0  0  0
    9.1032   -2.2263    0.0000 C   0  0  0  0  0  0  0  0  0  0  0  0
    8.2022   -3.6602    0.0000 C   0  0  0  0  0  0  0  0  0  0  0  0
    9.0683   -4.1602    0.0000 C   0  0  0  0  0  0  0  0  0  0  0  0
    5.8090   -0.0733    0.0000 C   0  0  0  0  0  0  0  0  0  0  0  0
    4.8341    0.1493    0.0000 C   0  0  0  0  0  0  0  0  0  0  0  0
    9.9343   -3.6602    0.0000 C   0  0  0  0  0  0  0  0  0  0  0  0
    9.0683   -5.1602    0.0000 C   0  0  0  0  0  0  0  0  0  0  0  0
   10.8003   -4.1602    0.0000 C   0  0  0  0  0  0  0  0  0  0  0  0
    9.9343   -5.6602    0.0000 C   0  0  0  0  0  0  0  0  0  0  0  0
   10.8003   -5.1602    0.0000 C   0  0  0  0  0  0  0  0  0  0  0  0
    3.5644    1.3274    0.0000 C   0  0  0  0  0  0  0  0  0  0  0  0
    3.2697    2.2829    0.0000 C   0  0  0  0  0  0  0  0  0  0  0  0
    3.9499    3.0160    0.0000 C   0  0  0  0  0  0  0  0  0  0  0  0
    2.2948    2.5054    0.0000 C   0  0  0  0  0  0  0  0  0  0  0  0
    3.6551    3.9716    0.0000 C   0  0  0  0  0  0  0  0  0  0  0  0
    2.0000    3.4610    0.0000 C   0  0  0  0  0  0  0  0  0  0  0  0
    2.6802    4.1941    0.0000 C   0  0  0  0  0  0  0  0  0  0  0  0
    6.8740   -0.6662    0.0000 H   0  0  0  0  0  0  0  0  0  0  0  0
    7.8402    0.1349    0.0000 H   0  0  0  0  0  0  0  0  0  0  0  0
    7.1436   -0.2005    0.0000 H   0  0  0  0  0  0  0  0  0  0  0  0
    6.6812   -2.2263    0.0000 H   0  0  0  0  0  0  0  0  0  0  0  0
    7.1633   -2.8307    0.0000 H   0  0  0  0  0  0  0  0  0  0  0  0
    9.2608   -0.2005    0.0000 H   0  0  0  0  0  0  0  0  0  0  0  0
    8.5643    0.1349    0.0000 H   0  0  0  0  0  0  0  0  0  0  0  0
    9.8843   -1.5204    0.0000 H   0  0  0  0  0  0  0  0  0  0  0  0
    9.7123   -0.7666    0.0000 H   0  0  0  0  0  0  0  0  0  0  0  0
    9.2412   -2.8307    0.0000 H   0  0  0  0  0  0  0  0  0  0  0  0
    9.7232   -2.2263    0.0000 H   0  0  0  0  0  0  0  0  0  0  0  0
    7.5916   -3.5525    0.0000 H   0  0  0  0  0  0  0  0  0  0  0  0
    7.9902   -4.2428    0.0000 H   0  0  0  0  0  0  0  0  0  0  0  0
    5.6821   -1.4833    0.0000 H   0  0  0  0  0  0  0  0  0  0  0  0
    4.2189    0.0722    0.0000 H   0  0  0  0  0  0  0  0  0  0  0  0
    4.8032   -0.4700    0.0000 H   0  0  0  0  0  0  0  0  0  0  0  0
    9.9343   -3.0402    0.0000 H   0  0  0  0  0  0  0  0  0  0  0  0
    8.5313   -5.4702    0.0000 H   0  0  0  0  0  0  0  0  0  0  0  0
   11.3372   -3.8502    0.0000 H   0  0  0  0  0  0  0  0  0  0  0  0
    9.9343   -6.2802    0.0000 H   0  0  0  0  0  0  0  0  0  0  0  0
    4.9611    1.5593    0.0000 H   0  0  0  0  0  0  0  0  0  0  0  0
    4.5543    2.8780    0.0000 H   0  0  0  0  0  0  0  0  0  0  0  0
    1.8730    2.0510    0.0000 H   0  0  0  0  0  0  0  0  0  0  0  0
    1.3955    3.5990    0.0000 H   0  0  0  0  0  0  0  0  0  0  0  0
    2.4974    4.7865    0.0000 H   0  0  0  0  0  0  0  0  0  0  0  0
  1 24  1  0  0  0  0
  2 18  2  0  0  0  0
  3 25  2  0  0  0  0
  4  9  1  0  0  0  0
  5  9  2  0  0  0  0
  6 12  1  0  0  0  0
  6 15  1  0  0  0  0
  6 16  1  0  0  0  0
  7 10  1  0  0  0  0
  7 18  1  0  0  0  0
  7 45  1  0  0  0  0
  8 19  1  0  0  0  0
  8 25  1  0  0  0  0
  8 52  1  0  0  0  0
  9 29  1  0  0  0  0
 10 11  1  0  0  0  0
 10 12  1  0  0  0  0
 10 32  1  0  0  0  0
 11 13  1  0  0  0  0
 11 33  1  0  0  0  0
 11 34  1  0  0  0  0
 12 35  1  0  0  0  0
 12 36  1  0  0  0  0
 13 14  1  0  0  0  0
 13 37  1  0  0  0  0
 13 38  1  0  0  0  0
 14 15  1  0  0  0  0
 14 39  1  0  0  0  0
 14 40  1  0  0  0  0
 15 41  1  0  0  0  0
 15 42  1  0  0  0  0
 16 17  1  0  0  0  0
 16 43  1  0  0  0  0
 16 44  1  0  0  0  0
 17 20  2  0  0  0  0
 17 21  1  0  0  0  0
 18 19  1  0  0  0  0
 19 46  1  0  0  0  0
 19 47  1  0  0  0  0
 20 22  1  0  0  0  0
 20 48  1  0  0  0  0
 21 23  2  0  0  0  0
 21 49  1  0  0  0  0
 22 24  2  0  0  0  0
 22 50  1  0  0  0  0
 23 24  1  0  0  0  0
 23 51  1  0  0  0  0
 25 26  1  0  0  0  0
 26 27  2  0  0  0  0
 26 28  1  0  0  0  0
 27 29  1  0  0  0  0
 27 53  1  0  0  0  0
 28 30  2  0  0  0  0
 28 54  1  0  0  0  0
 29 31  2  0  0  0  0
 30 31  1  0  0  0  0
 30 55  1  0  0  0  0
 31 56  1  0  0  0  0
M  CHG  2   4  -1   9   1
M  END
> <PUBCHEM_COMPOUND_CID>
508811
> <PUBCHEM_COMPOUND_CANONICALIZED>
1
> <PUBCHEM_CACTVS_COMPLEXITY>
621
> <PUBCHEM_CACTVS_HBOND_ACCEPTOR>
5
> <PUBCHEM_CACTVS_HBOND_DONOR>
2
> <PUBCHEM_CACTVS_ROTATABLE_BOND>
6
> <PUBCHEM_CACTVS_SUBSKEYS>
AAADceB7uAAEAAAAAAAAAAAAAAAAAAAAAAAwYAAABYAAAAABQAAAHgIUAAAADCrBmCQwwIPQQACJAiVSUwCCAAAkBwAoiIGIZsoIYDKBl7GUIQhglgCIyYcciACOBAAAQAAAAAAIAACAAAAAAAAAAAAAAA==
> <PUBCHEM_IUPAC_OPENEYE_NAME>
N-[2-[[1-[(4-chlorophenyl)methyl]azepan-3-yl]amino]-2-oxo-ethyl]-3-nitro-benzamide
> <PUBCHEM_IUPAC_CAS_NAME>
N-[2-[[1-[(4-chlorophenyl)methyl]-3-azepanyl]amino]-2-oxoethyl]-3-nitrobenzamide
> <PUBCHEM_IUPAC_NAME_MARKUP>
<I>N</I>-[2-[[1-[(4-chlorophenyl)methyl]azepan-3-yl]amino]-2-oxoethyl]-3-nitrobenzamide
> <PUBCHEM_IUPAC_NAME>
N-[2-[[1-[(4-chlorophenyl)methyl]azepan-3-yl]amino]-2-oxoethyl]-3-nitrobenzamide
> <PUBCHEM_IUPAC_SYSTEMATIC_NAME>
N-[2-[[1-[(4-chlorophenyl)methyl]azepan-3-yl]amino]-2-oxidanylidene-ethyl]-3-nitro-benzamide
> <PUBCHEM_IUPAC_TRADITIONAL_NAME>
N-[2-[[1-(4-chlorobenzyl)azepan-3-yl]amino]-2-keto-ethyl]-3-nitro-benzamide
> <PUBCHEM_IUPAC_INCHI>
InChI=1S/C22H25ClN4O4/c23-18-9-7-16(8-10-18)14-26-11-2-1-5-19(15-26)25-21(28)13-24-22(29)17-4-3-6-20(12-17)27(30)31/h3-4,6-10,12,19H,1-2,5,11,13-15H2,(H,24,29)(H,25,28)
> <PUBCHEM_IUPAC_INCHIKEY>
HBAXAHGMLQVWGE-UHFFFAOYSA-N
> <PUBCHEM_XLOGP3_AA>
3.4
> <PUBCHEM_EXACT_MASS>
444.1564330
> <PUBCHEM_MOLECULAR_FORMULA>
C22H25ClN4O4
> <PUBCHEM_MOLECULAR_WEIGHT>
444.9
> <PUBCHEM_OPENEYE_CAN_SMILES>
C1CCN(CC(C1)NC(=O)CNC(=O)C2=CC(=CC=C2)[N+](=O)[O-])CC3=CC=C(C=C3)Cl
> <PUBCHEM_OPENEYE_ISO_SMILES>
C1CCN(CC(C1)NC(=O)CNC(=O)C2=CC(=CC=C2)[N+](=O)[O-])CC3=CC=C(C=C3)Cl
> <PUBCHEM_CACTVS_TPSA>
107
> <PUBCHEM_MONOISOTOPIC_WEIGHT>
444.1564330
> <PUBCHEM_TOTAL_CHARGE>
0
> <PUBCHEM_HEAVY_ATOM_COUNT>
31
> <PUBCHEM_ATOM_DEF_STEREO_COUNT>
0
> <PUBCHEM_ATOM_UDEF_STEREO_COUNT>
1
> <PUBCHEM_BOND_DEF_STEREO_COUNT>
0
> <PUBCHEM_BOND_UDEF_STEREO_COUNT>
0
> <PUBCHEM_ISOTOPIC_ATOM_COUNT>
0
> <PUBCHEM_COMPONENT_COUNT>
1
> <PUBCHEM_CACTVS_TAUTO_COUNT>
-1
> <PUBCHEM_COORDINATE_TYPE>
1
5
255
> <PUBCHEM_BONDANNOTATIONS>
17  20  8
17  21  8
20  22  8
21  23  8
22  24  8
23  24  8
26  27  8
26  28  8
27  29  8
28  30  8
29  31  8
30  31  8
10  7  3
$$$$
