508840
  -OEChem-10302200282D
 57 59  0     1  0  0  0  0  0999 V2000
   11.2585   -2.9840    0.0000 S   0  0  0  0  0  0  0  0  0  0  0  0
    6.9283   -0.4840    0.0000 O   0  0  0  0  0  0  0  0  0  0  0  0
   10.3924   -1.4840    0.0000 O   0  0  0  0  0  0  0  0  0  0  0  0
    5.3457    1.8524    0.0000 N   0  0  3  0  0  0  0  0  0  0  0  0
    7.7944    1.0160    0.0000 N   0  0  0  0  0  0  0  0  0  0  0  0
    8.6604   -1.4840    0.0000 N   0  0  0  0  0  0  0  0  0  0  0  0
   10.3924   -4.4840    0.0000 N   0  0  0  0  0  0  0  0  0  0  0  0
    6.9283    1.5160    0.0000 C   0  0  2  0  0  0  0  0  0  0  0  0
    6.8238    2.5106    0.0000 C   0  0  0  0  0  0  0  0  0  0  0  0
    6.0148    1.1093    0.0000 C   0  0  0  0  0  0  0  0  0  0  0  0
    5.8457    2.7185    0.0000 C   0  0  0  0  0  0  0  0  0  0  0  0
    4.3511    1.7479    0.0000 C   0  0  0  0  0  0  0  0  0  0  0  0
    3.7634    2.5569    0.0000 C   0  0  0  0  0  0  0  0  0  0  0  0
    7.7944    0.0160    0.0000 C   0  0  0  0  0  0  0  0  0  0  0  0
    4.1701    3.4705    0.0000 C   0  0  0  0  0  0  0  0  0  0  0  0
    2.7688    2.4524    0.0000 C   0  0  0  0  0  0  0  0  0  0  0  0
    8.6604   -0.4840    0.0000 C   0  0  0  0  0  0  0  0  0  0  0  0
    3.5823    4.2795    0.0000 C   0  0  0  0  0  0  0  0  0  0  0  0
    2.1810    3.2614    0.0000 C   0  0  0  0  0  0  0  0  0  0  0  0
    2.5878    4.1750    0.0000 C   0  0  0  0  0  0  0  0  0  0  0  0
    2.0000    4.9840    0.0000 C   0  0  0  0  0  0  0  0  0  0  0  0
    9.5264   -1.9840    0.0000 C   0  0  0  0  0  0  0  0  0  0  0  0
    9.5264   -2.9840    0.0000 C   0  0  0  0  0  0  0  0  0  0  0  0
   10.3924   -3.4840    0.0000 C   0  0  0  0  0  0  0  0  0  0  0  0
    8.6604   -3.4840    0.0000 C   0  0  0  0  0  0  0  0  0  0  0  0
    8.6604   -4.4840    0.0000 C   0  0  0  0  0  0  0  0  0  0  0  0
    9.5264   -4.9840    0.0000 C   0  0  0  0  0  0  0  0  0  0  0  0
   12.1245   -3.4840    0.0000 C   0  0  0  0  0  0  0  0  0  0  0  0
   12.9905   -2.9840    0.0000 C   0  0  0  0  0  0  0  0  0  0  0  0
    6.8959    0.8969    0.0000 H   0  0  0  0  0  0  0  0  0  0  0  0
    7.4438    2.5106    0.0000 H   0  0  0  0  0  0  0  0  0  0  0  0
    6.8886    3.1272    0.0000 H   0  0  0  0  0  0  0  0  0  0  0  0
    5.5132    0.7449    0.0000 H   0  0  0  0  0  0  0  0  0  0  0  0
    6.3248    0.5724    0.0000 H   0  0  0  0  0  0  0  0  0  0  0  0
    6.0372    3.3081    0.0000 H   0  0  0  0  0  0  0  0  0  0  0  0
    5.2793    2.9706    0.0000 H   0  0  0  0  0  0  0  0  0  0  0  0
    3.7939    1.4761    0.0000 H   0  0  0  0  0  0  0  0  0  0  0  0
    4.5220    1.1519    0.0000 H   0  0  0  0  0  0  0  0  0  0  0  0
    8.3313    1.3260    0.0000 H   0  0  0  0  0  0  0  0  0  0  0  0
    4.7867    3.5353    0.0000 H   0  0  0  0  0  0  0  0  0  0  0  0
    2.5167    1.8860    0.0000 H   0  0  0  0  0  0  0  0  0  0  0  0
    9.2710   -0.5916    0.0000 H   0  0  0  0  0  0  0  0  0  0  0  0
    8.8724    0.0986    0.0000 H   0  0  0  0  0  0  0  0  0  0  0  0
    3.8345    4.8459    0.0000 H   0  0  0  0  0  0  0  0  0  0  0  0
    1.5644    3.1966    0.0000 H   0  0  0  0  0  0  0  0  0  0  0  0
    8.1234   -1.7940    0.0000 H   0  0  0  0  0  0  0  0  0  0  0  0
    2.5016    5.3484    0.0000 H   0  0  0  0  0  0  0  0  0  0  0  0
    1.6356    5.4856    0.0000 H   0  0  0  0  0  0  0  0  0  0  0  0
    1.4984    4.6196    0.0000 H   0  0  0  0  0  0  0  0  0  0  0  0
    8.1234   -3.1740    0.0000 H   0  0  0  0  0  0  0  0  0  0  0  0
    8.1234   -4.7940    0.0000 H   0  0  0  0  0  0  0  0  0  0  0  0
    9.5264   -5.6040    0.0000 H   0  0  0  0  0  0  0  0  0  0  0  0
   11.7260   -3.9589    0.0000 H   0  0  0  0  0  0  0  0  0  0  0  0
   12.5230   -3.9589    0.0000 H   0  0  0  0  0  0  0  0  0  0  0  0
   13.3005   -3.5209    0.0000 H   0  0  0  0  0  0  0  0  0  0  0  0
   13.5275   -2.6740    0.0000 H   0  0  0  0  0  0  0  0  0  0  0  0
   12.6805   -2.4470    0.0000 H   0  0  0  0  0  0  0  0  0  0  0  0
  1 24  1  0  0  0  0
  1 28  1  0  0  0  0
  2 14  2  0  0  0  0
  3 22  2  0  0  0  0
  4 10  1  0  0  0  0
  4 11  1  0  0  0  0
  4 12  1  0  0  0  0
  8  5  1  1  0  0  0
  5 14  1  0  0  0  0
  5 39  1  0  0  0  0
  6 17  1  0  0  0  0
  6 22  1  0  0  0  0
  6 46  1  0  0  0  0
  7 24  1  0  0  0  0
  7 27  2  0  0  0  0
  8  9  1  0  0  0  0
  8 10  1  0  0  0  0
  8 30  1  0  0  0  0
  9 11  1  0  0  0  0
  9 31  1  0  0  0  0
  9 32  1  0  0  0  0
 10 33  1  0  0  0  0
 10 34  1  0  0  0  0
 11 35  1  0  0  0  0
 11 36  1  0  0  0  0
 12 13  1  0  0  0  0
 12 37  1  0  0  0  0
 12 38  1  0  0  0  0
 13 15  2  0  0  0  0
 13 16  1  0  0  0  0
 14 17  1  0  0  0  0
 15 18  1  0  0  0  0
 15 40  1  0  0  0  0
 16 19  2  0  0  0  0
 16 41  1  0  0  0  0
 17 42  1  0  0  0  0
 17 43  1  0  0  0  0
 18 20  2  0  0  0  0
 18 44  1  0  0  0  0
 19 20  1  0  0  0  0
 19 45  1  0  0  0  0
 20 21  1  0  0  0  0
 21 47  1  0  0  0  0
 21 48  1  0  0  0  0
 21 49  1  0  0  0  0
 22 23  1  0  0  0  0
 23 24  2  0  0  0  0
 23 25  1  0  0  0  0
 25 26  2  0  0  0  0
 25 50  1  0  0  0  0
 26 27  1  0  0  0  0
 26 51  1  0  0  0  0
 27 52  1  0  0  0  0
 28 29  1  0  0  0  0
 28 53  1  0  0  0  0
 28 54  1  0  0  0  0
 29 55  1  0  0  0  0
 29 56  1  0  0  0  0
 29 57  1  0  0  0  0
M  END
> <PUBCHEM_COMPOUND_CID>
508840
> <PUBCHEM_COMPOUND_CANONICALIZED>
1
> <PUBCHEM_CACTVS_COMPLEXITY>
539
> <PUBCHEM_CACTVS_HBOND_ACCEPTOR>
5
> <PUBCHEM_CACTVS_HBOND_DONOR>
2
> <PUBCHEM_CACTVS_ROTATABLE_BOND>
8
> <PUBCHEM_CACTVS_SUBSKEYS>
AAADceB7sABAAAAAAAAAAAAAAAAAAWAAAAA8QAAAAAAAAAABwAAAHgQQAAAADCjF2gS+gZPIEAioAjF3VACC0CB1CjAI2LG4ZNgIYPrg1bGUIYhglgDoyccYgQAOQAAAAAAAAACAAAAAAAAAAAAAAAAAAA==
> <PUBCHEM_IUPAC_OPENEYE_NAME>
2-ethylsulfanyl-N-[2-oxo-2-[[(3R)-1-(p-tolylmethyl)pyrrolidin-3-yl]amino]ethyl]pyridine-3-carboxamide
> <PUBCHEM_IUPAC_CAS_NAME>
2-(ethylthio)-N-[2-[[(3R)-1-[(4-methylphenyl)methyl]-3-pyrrolidinyl]amino]-2-oxoethyl]-3-pyridinecarboxamide
> <PUBCHEM_IUPAC_NAME_MARKUP>
2-ethylsulfanyl-<I>N</I>-[2-[[(3<I>R</I>)-1-[(4-methylphenyl)methyl]pyrrolidin-3-yl]amino]-2-oxoethyl]pyridine-3-carboxamide
> <PUBCHEM_IUPAC_NAME>
2-ethylsulfanyl-N-[2-[[(3R)-1-[(4-methylphenyl)methyl]pyrrolidin-3-yl]amino]-2-oxoethyl]pyridine-3-carboxamide
> <PUBCHEM_IUPAC_SYSTEMATIC_NAME>
2-ethylsulfanyl-N-[2-[[(3R)-1-[(4-methylphenyl)methyl]pyrrolidin-3-yl]amino]-2-oxidanylidene-ethyl]pyridine-3-carboxamide
> <PUBCHEM_IUPAC_TRADITIONAL_NAME>
2-(ethylthio)-N-[2-keto-2-[[(3R)-1-(4-methylbenzyl)pyrrolidin-3-yl]amino]ethyl]nicotinamide
> <PUBCHEM_IUPAC_INCHI>
InChI=1S/C22H28N4O2S/c1-3-29-22-19(5-4-11-23-22)21(28)24-13-20(27)25-18-10-12-26(15-18)14-17-8-6-16(2)7-9-17/h4-9,11,18H,3,10,12-15H2,1-2H3,(H,24,28)(H,25,27)/t18-/m1/s1
> <PUBCHEM_IUPAC_INCHIKEY>
IBKGRLNRSLYSJW-GOSISDBHSA-N
> <PUBCHEM_XLOGP3_AA>
2.8
> <PUBCHEM_EXACT_MASS>
412.19329732
> <PUBCHEM_MOLECULAR_FORMULA>
C22H28N4O2S
> <PUBCHEM_MOLECULAR_WEIGHT>
412.6
> <PUBCHEM_OPENEYE_CAN_SMILES>
CCSC1=C(C=CC=N1)C(=O)NCC(=O)NC2CCN(C2)CC3=CC=C(C=C3)C
> <PUBCHEM_OPENEYE_ISO_SMILES>
CCSC1=C(C=CC=N1)C(=O)NCC(=O)N[C@@H]2CCN(C2)CC3=CC=C(C=C3)C
> <PUBCHEM_CACTVS_TPSA>
99.6
> <PUBCHEM_MONOISOTOPIC_WEIGHT>
412.19329732
> <PUBCHEM_TOTAL_CHARGE>
0
> <PUBCHEM_HEAVY_ATOM_COUNT>
29
> <PUBCHEM_ATOM_DEF_STEREO_COUNT>
1
> <PUBCHEM_ATOM_UDEF_STEREO_COUNT>
0
> <PUBCHEM_BOND_DEF_STEREO_COUNT>
0
> <PUBCHEM_BOND_UDEF_STEREO_COUNT>
0
> <PUBCHEM_ISOTOPIC_ATOM_COUNT>
0
> <PUBCHEM_COMPONENT_COUNT>
1
> <PUBCHEM_CACTVS_TAUTO_COUNT>
-1
> <PUBCHEM_COORDINATE_TYPE>
1
5
255
> <PUBCHEM_BONDANNOTATIONS>
13  15  8
13  16  8
15  18  8
16  19  8
18  20  8
19  20  8
23  24  8
23  25  8
25  26  8
26  27  8
8  5  5
7  24  8
7  27  8
$$$$
