508854
  -OEChem-10302200282D
 48 50  0     1  0  0  0  0  0999 V2000
    3.5288   -6.9244    0.0000 Cl  0  0  0  0  0  0  0  0  0  0  0  0
    3.9901   -5.2031    0.0000 S   0  0  0  0  0  0  0  0  0  0  0  0
    6.2731    6.9244    0.0000 F   0  0  0  0  0  0  0  0  0  0  0  0
    7.2731    5.9244    0.0000 F   0  0  0  0  0  0  0  0  0  0  0  0
    5.2731    5.9244    0.0000 F   0  0  0  0  0  0  0  0  0  0  0  0
    4.5411   -0.0756    0.0000 O   0  0  0  0  0  0  0  0  0  0  0  0
    3.6750    3.4244    0.0000 O   0  0  0  0  0  0  0  0  0  0  0  0
    3.3090   -2.6145    0.0000 N   0  0  3  0  0  0  0  0  0  0  0  0
    2.8090   -0.0756    0.0000 N   0  0  0  0  0  0  0  0  0  0  0  0
    4.5411    1.9244    0.0000 N   0  0  0  0  0  0  0  0  0  0  0  0
    2.8090   -1.0756    0.0000 C   0  0  2  0  0  0  0  0  0  0  0  0
    2.0000   -1.6634    0.0000 C   0  0  0  0  0  0  0  0  0  0  0  0
    3.6180   -1.6634    0.0000 C   0  0  0  0  0  0  0  0  0  0  0  0
    2.3090   -2.6145    0.0000 C   0  0  0  0  0  0  0  0  0  0  0  0
    3.8968   -3.4235    0.0000 C   0  0  0  0  0  0  0  0  0  0  0  0
    3.4901   -4.3370    0.0000 C   0  0  0  0  0  0  0  0  0  0  0  0
    3.6750    0.4244    0.0000 C   0  0  0  0  0  0  0  0  0  0  0  0
    3.6750    1.4244    0.0000 C   0  0  0  0  0  0  0  0  0  0  0  0
    2.5119   -4.5450    0.0000 C   0  0  0  0  0  0  0  0  0  0  0  0
    2.4074   -5.5395    0.0000 C   0  0  0  0  0  0  0  0  0  0  0  0
    3.3209   -5.9462    0.0000 C   0  0  0  0  0  0  0  0  0  0  0  0
    4.5411    2.9244    0.0000 C   0  0  0  0  0  0  0  0  0  0  0  0
    5.4071    3.4244    0.0000 C   0  0  0  0  0  0  0  0  0  0  0  0
    5.4071    4.4244    0.0000 C   0  0  0  0  0  0  0  0  0  0  0  0
    6.2731    2.9244    0.0000 C   0  0  0  0  0  0  0  0  0  0  0  0
    6.2731    4.9244    0.0000 C   0  0  0  0  0  0  0  0  0  0  0  0
    7.1391    4.4244    0.0000 C   0  0  0  0  0  0  0  0  0  0  0  0
    7.1391    3.4244    0.0000 C   0  0  0  0  0  0  0  0  0  0  0  0
    6.2731    5.9244    0.0000 C   0  0  0  0  0  0  0  0  0  0  0  0
    3.3614   -0.7942    0.0000 H   0  0  0  0  0  0  0  0  0  0  0  0
    1.6900   -1.1265    0.0000 H   0  0  0  0  0  0  0  0  0  0  0  0
    1.4336   -1.9156    0.0000 H   0  0  0  0  0  0  0  0  0  0  0  0
    4.1844   -1.9156    0.0000 H   0  0  0  0  0  0  0  0  0  0  0  0
    3.9280   -1.1265    0.0000 H   0  0  0  0  0  0  0  0  0  0  0  0
    1.7026   -2.7434    0.0000 H   0  0  0  0  0  0  0  0  0  0  0  0
    2.3738   -3.2311    0.0000 H   0  0  0  0  0  0  0  0  0  0  0  0
    4.4108   -3.7702    0.0000 H   0  0  0  0  0  0  0  0  0  0  0  0
    4.3275   -2.9775    0.0000 H   0  0  0  0  0  0  0  0  0  0  0  0
    2.2721    0.2344    0.0000 H   0  0  0  0  0  0  0  0  0  0  0  0
    3.4630    2.0070    0.0000 H   0  0  0  0  0  0  0  0  0  0  0  0
    3.0645    1.3167    0.0000 H   0  0  0  0  0  0  0  0  0  0  0  0
    2.0512   -4.1301    0.0000 H   0  0  0  0  0  0  0  0  0  0  0  0
    1.8704   -5.8495    0.0000 H   0  0  0  0  0  0  0  0  0  0  0  0
    5.0780    1.6144    0.0000 H   0  0  0  0  0  0  0  0  0  0  0  0
    4.8702    4.7344    0.0000 H   0  0  0  0  0  0  0  0  0  0  0  0
    6.2731    2.3044    0.0000 H   0  0  0  0  0  0  0  0  0  0  0  0
    7.6761    4.7344    0.0000 H   0  0  0  0  0  0  0  0  0  0  0  0
    7.6761    3.1144    0.0000 H   0  0  0  0  0  0  0  0  0  0  0  0
  1 21  1  0  0  0  0
  2 16  1  0  0  0  0
  2 21  1  0  0  0  0
  3 29  1  0  0  0  0
  4 29  1  0  0  0  0
  5 29  1  0  0  0  0
  6 17  2  0  0  0  0
  7 22  2  0  0  0  0
  8 13  1  0  0  0  0
  8 14  1  0  0  0  0
  8 15  1  0  0  0  0
 11  9  1  1  0  0  0
  9 17  1  0  0  0  0
  9 39  1  0  0  0  0
 10 18  1  0  0  0  0
 10 22  1  0  0  0  0
 10 44  1  0  0  0  0
 11 12  1  0  0  0  0
 11 13  1  0  0  0  0
 11 30  1  0  0  0  0
 12 14  1  0  0  0  0
 12 31  1  0  0  0  0
 12 32  1  0  0  0  0
 13 33  1  0  0  0  0
 13 34  1  0  0  0  0
 14 35  1  0  0  0  0
 14 36  1  0  0  0  0
 15 16  1  0  0  0  0
 15 37  1  0  0  0  0
 15 38  1  0  0  0  0
 16 19  2  0  0  0  0
 17 18  1  0  0  0  0
 18 40  1  0  0  0  0
 18 41  1  0  0  0  0
 19 20  1  0  0  0  0
 19 42  1  0  0  0  0
 20 21  2  0  0  0  0
 20 43  1  0  0  0  0
 22 23  1  0  0  0  0
 23 24  2  0  0  0  0
 23 25  1  0  0  0  0
 24 26  1  0  0  0  0
 24 45  1  0  0  0  0
 25 28  2  0  0  0  0
 25 46  1  0  0  0  0
 26 27  2  0  0  0  0
 26 29  1  0  0  0  0
 27 28  1  0  0  0  0
 27 47  1  0  0  0  0
 28 48  1  0  0  0  0
M  END
> <PUBCHEM_COMPOUND_CID>
508854
> <PUBCHEM_COMPOUND_CANONICALIZED>
1
> <PUBCHEM_CACTVS_COMPLEXITY>
596
> <PUBCHEM_CACTVS_HBOND_ACCEPTOR>
7
> <PUBCHEM_CACTVS_HBOND_DONOR>
2
> <PUBCHEM_CACTVS_ROTATABLE_BOND>
6
> <PUBCHEM_CACTVS_SUBSKEYS>
AAADceB7MYBEAAAAAAAAAAAAAAAAAWJAAAAwAAAAAAAAAAABwAAAHwYQAAAADCrB2DQwAYPAAAiMAiFSEACDAIAkDRBIiJmIBsgIYDKh1zGUIQhglgCoiYcYiECOAAACAAAAAAAAAAQAAAAAAAAAAAAAAA==
> <PUBCHEM_IUPAC_OPENEYE_NAME>
N-[2-[[(3R)-1-[(5-chloro-2-thienyl)methyl]pyrrolidin-3-yl]amino]-2-oxo-ethyl]-3-(trifluoromethyl)benzamide
> <PUBCHEM_IUPAC_CAS_NAME>
N-[2-[[(3R)-1-[(5-chloro-2-thiophenyl)methyl]-3-pyrrolidinyl]amino]-2-oxoethyl]-3-(trifluoromethyl)benzamide
> <PUBCHEM_IUPAC_NAME_MARKUP>
<I>N</I>-[2-[[(3<I>R</I>)-1-[(5-chlorothiophen-2-yl)methyl]pyrrolidin-3-yl]amino]-2-oxoethyl]-3-(trifluoromethyl)benzamide
> <PUBCHEM_IUPAC_NAME>
N-[2-[[(3R)-1-[(5-chlorothiophen-2-yl)methyl]pyrrolidin-3-yl]amino]-2-oxoethyl]-3-(trifluoromethyl)benzamide
> <PUBCHEM_IUPAC_SYSTEMATIC_NAME>
N-[2-[[(3R)-1-[(5-chloranylthiophen-2-yl)methyl]pyrrolidin-3-yl]amino]-2-oxidanylidene-ethyl]-3-(trifluoromethyl)benzamide
> <PUBCHEM_IUPAC_TRADITIONAL_NAME>
N-[2-[[(3R)-1-[(5-chloro-2-thienyl)methyl]pyrrolidin-3-yl]amino]-2-keto-ethyl]-3-(trifluoromethyl)benzamide
> <PUBCHEM_IUPAC_INCHI>
InChI=1S/C19H19ClF3N3O2S/c20-16-5-4-15(29-16)11-26-7-6-14(10-26)25-17(27)9-24-18(28)12-2-1-3-13(8-12)19(21,22)23/h1-5,8,14H,6-7,9-11H2,(H,24,28)(H,25,27)/t14-/m1/s1
> <PUBCHEM_IUPAC_INCHIKEY>
OBQHRLXHTZBCCS-CQSZACIVSA-N
> <PUBCHEM_XLOGP3_AA>
3.8
> <PUBCHEM_EXACT_MASS>
445.0838602
> <PUBCHEM_MOLECULAR_FORMULA>
C19H19ClF3N3O2S
> <PUBCHEM_MOLECULAR_WEIGHT>
445.9
> <PUBCHEM_OPENEYE_CAN_SMILES>
C1CN(CC1NC(=O)CNC(=O)C2=CC(=CC=C2)C(F)(F)F)CC3=CC=C(S3)Cl
> <PUBCHEM_OPENEYE_ISO_SMILES>
C1CN(C[C@@H]1NC(=O)CNC(=O)C2=CC(=CC=C2)C(F)(F)F)CC3=CC=C(S3)Cl
> <PUBCHEM_CACTVS_TPSA>
89.7
> <PUBCHEM_MONOISOTOPIC_WEIGHT>
445.0838602
> <PUBCHEM_TOTAL_CHARGE>
0
> <PUBCHEM_HEAVY_ATOM_COUNT>
29
> <PUBCHEM_ATOM_DEF_STEREO_COUNT>
1
> <PUBCHEM_ATOM_UDEF_STEREO_COUNT>
0
> <PUBCHEM_BOND_DEF_STEREO_COUNT>
0
> <PUBCHEM_BOND_UDEF_STEREO_COUNT>
0
> <PUBCHEM_ISOTOPIC_ATOM_COUNT>
0
> <PUBCHEM_COMPONENT_COUNT>
1
> <PUBCHEM_CACTVS_TAUTO_COUNT>
-1
> <PUBCHEM_COORDINATE_TYPE>
1
5
255
> <PUBCHEM_BONDANNOTATIONS>
16  19  8
19  20  8
2  16  8
2  21  8
20  21  8
23  24  8
23  25  8
24  26  8
25  28  8
26  27  8
27  28  8
11  9  5
$$$$
