508856
  -OEChem-10302200282D
 58 61  0     1  0  0  0  0  0999 V2000
    9.1996   -0.1307    0.0000 O   0  0  0  0  0  0  0  0  0  0  0  0
   11.7976    2.3693    0.0000 O   0  0  0  0  0  0  0  0  0  0  0  0
    6.3848   -0.3331    0.0000 N   0  0  3  0  0  0  0  0  0  0  0  0
    8.3335    1.3693    0.0000 N   0  0  0  0  0  0  0  0  0  0  0  0
   10.9316    0.8693    0.0000 N   0  0  0  0  0  0  0  0  0  0  0  0
   14.3957    0.8693    0.0000 N   0  0  0  0  0  0  0  0  0  0  0  0
   12.6637   -0.1307    0.0000 N   0  0  0  0  0  0  0  0  0  0  0  0
   15.3419    1.1740    0.0000 N   0  0  0  0  0  0  0  0  0  0  0  0
   13.5297   -0.6307    0.0000 N   0  0  0  0  0  0  0  0  0  0  0  0
    7.4675    0.8693    0.0000 C   0  0  2  0  0  0  0  0  0  0  0  0
    6.5540    1.2760    0.0000 C   0  0  0  0  0  0  0  0  0  0  0  0
    7.3630   -0.1252    0.0000 C   0  0  0  0  0  0  0  0  0  0  0  0
    5.8848    0.5329    0.0000 C   0  0  0  0  0  0  0  0  0  0  0  0
    5.9781   -1.2467    0.0000 C   0  0  0  0  0  0  0  0  0  0  0  0
    4.9836   -1.3512    0.0000 C   0  0  0  0  0  0  0  0  0  0  0  0
    9.1996    0.8693    0.0000 C   0  0  0  0  0  0  0  0  0  0  0  0
    4.3958   -0.5422    0.0000 C   0  0  0  0  0  0  0  0  0  0  0  0
    4.5768   -2.2648    0.0000 C   0  0  0  0  0  0  0  0  0  0  0  0
   10.0656    1.3693    0.0000 C   0  0  0  0  0  0  0  0  0  0  0  0
    3.4013   -0.6467    0.0000 C   0  0  0  0  0  0  0  0  0  0  0  0
    3.5823   -2.3693    0.0000 C   0  0  0  0  0  0  0  0  0  0  0  0
    2.9945   -1.5603    0.0000 C   0  0  0  0  0  0  0  0  0  0  0  0
   11.7976    1.3693    0.0000 C   0  0  0  0  0  0  0  0  0  0  0  0
    2.0000   -1.6648    0.0000 C   0  0  0  0  0  0  0  0  0  0  0  0
   12.6637    0.8693    0.0000 C   0  0  0  0  0  0  0  0  0  0  0  0
   13.5297    1.3693    0.0000 C   0  0  0  0  0  0  0  0  0  0  0  0
   14.3957   -0.1307    0.0000 C   0  0  0  0  0  0  0  0  0  0  0  0
   13.5297    2.3693    0.0000 C   0  0  0  0  0  0  0  0  0  0  0  0
   15.3419   -0.4354    0.0000 C   0  0  0  0  0  0  0  0  0  0  0  0
   15.9255    0.3693    0.0000 C   0  0  0  0  0  0  0  0  0  0  0  0
   16.9255    0.3693    0.0000 C   0  0  0  0  0  0  0  0  0  0  0  0
    7.4350    1.4884    0.0000 H   0  0  0  0  0  0  0  0  0  0  0  0
    6.8640    1.8130    0.0000 H   0  0  0  0  0  0  0  0  0  0  0  0
    6.0524    1.6404    0.0000 H   0  0  0  0  0  0  0  0  0  0  0  0
    7.4278   -0.7418    0.0000 H   0  0  0  0  0  0  0  0  0  0  0  0
    7.9830   -0.1252    0.0000 H   0  0  0  0  0  0  0  0  0  0  0  0
    5.4700    0.9936    0.0000 H   0  0  0  0  0  0  0  0  0  0  0  0
    5.3832    0.1685    0.0000 H   0  0  0  0  0  0  0  0  0  0  0  0
    5.9348   -1.8652    0.0000 H   0  0  0  0  0  0  0  0  0  0  0  0
    6.5797   -1.3967    0.0000 H   0  0  0  0  0  0  0  0  0  0  0  0
    8.3335    1.9893    0.0000 H   0  0  0  0  0  0  0  0  0  0  0  0
    4.6480    0.0242    0.0000 H   0  0  0  0  0  0  0  0  0  0  0  0
    4.9413   -2.7664    0.0000 H   0  0  0  0  0  0  0  0  0  0  0  0
   10.4641    1.8442    0.0000 H   0  0  0  0  0  0  0  0  0  0  0  0
    9.6670    1.8442    0.0000 H   0  0  0  0  0  0  0  0  0  0  0  0
    3.0368   -0.1451    0.0000 H   0  0  0  0  0  0  0  0  0  0  0  0
    3.3301   -2.9357    0.0000 H   0  0  0  0  0  0  0  0  0  0  0  0
   10.9316    0.2493    0.0000 H   0  0  0  0  0  0  0  0  0  0  0  0
    1.9352   -1.0482    0.0000 H   0  0  0  0  0  0  0  0  0  0  0  0
    1.3834   -1.7296    0.0000 H   0  0  0  0  0  0  0  0  0  0  0  0
    2.0648   -2.2814    0.0000 H   0  0  0  0  0  0  0  0  0  0  0  0
   14.1497    2.3693    0.0000 H   0  0  0  0  0  0  0  0  0  0  0  0
   13.5297    2.9893    0.0000 H   0  0  0  0  0  0  0  0  0  0  0  0
   12.9097    2.3693    0.0000 H   0  0  0  0  0  0  0  0  0  0  0  0
   15.5345   -1.0248    0.0000 H   0  0  0  0  0  0  0  0  0  0  0  0
   16.9255   -0.2507    0.0000 H   0  0  0  0  0  0  0  0  0  0  0  0
   17.5455    0.3693    0.0000 H   0  0  0  0  0  0  0  0  0  0  0  0
   16.9255    0.9893    0.0000 H   0  0  0  0  0  0  0  0  0  0  0  0
  1 16  2  0  0  0  0
  2 23  2  0  0  0  0
  3 12  1  0  0  0  0
  3 13  1  0  0  0  0
  3 14  1  0  0  0  0
 10  4  1  1  0  0  0
  4 16  1  0  0  0  0
  4 41  1  0  0  0  0
  5 19  1  0  0  0  0
  5 23  1  0  0  0  0
  5 48  1  0  0  0  0
  6  8  1  0  0  0  0
  6 26  1  0  0  0  0
  6 27  1  0  0  0  0
  7  9  2  0  0  0  0
  7 25  1  0  0  0  0
  8 30  2  0  0  0  0
  9 27  1  0  0  0  0
 10 11  1  0  0  0  0
 10 12  1  0  0  0  0
 10 32  1  0  0  0  0
 11 13  1  0  0  0  0
 11 33  1  0  0  0  0
 11 34  1  0  0  0  0
 12 35  1  0  0  0  0
 12 36  1  0  0  0  0
 13 37  1  0  0  0  0
 13 38  1  0  0  0  0
 14 15  1  0  0  0  0
 14 39  1  0  0  0  0
 14 40  1  0  0  0  0
 15 17  2  0  0  0  0
 15 18  1  0  0  0  0
 16 19  1  0  0  0  0
 17 20  1  0  0  0  0
 17 42  1  0  0  0  0
 18 21  2  0  0  0  0
 18 43  1  0  0  0  0
 19 44  1  0  0  0  0
 19 45  1  0  0  0  0
 20 22  2  0  0  0  0
 20 46  1  0  0  0  0
 21 22  1  0  0  0  0
 21 47  1  0  0  0  0
 22 24  1  0  0  0  0
 23 25  1  0  0  0  0
 24 49  1  0  0  0  0
 24 50  1  0  0  0  0
 24 51  1  0  0  0  0
 25 26  2  0  0  0  0
 26 28  1  0  0  0  0
 27 29  2  0  0  0  0
 28 52  1  0  0  0  0
 28 53  1  0  0  0  0
 28 54  1  0  0  0  0
 29 30  1  0  0  0  0
 29 55  1  0  0  0  0
 30 31  1  0  0  0  0
 31 56  1  0  0  0  0
 31 57  1  0  0  0  0
 31 58  1  0  0  0  0
M  END
> <PUBCHEM_COMPOUND_CID>
508856
> <PUBCHEM_COMPOUND_CANONICALIZED>
1
> <PUBCHEM_CACTVS_COMPLEXITY>
639
> <PUBCHEM_CACTVS_HBOND_ACCEPTOR>
6
> <PUBCHEM_CACTVS_HBOND_DONOR>
2
> <PUBCHEM_CACTVS_ROTATABLE_BOND>
6
> <PUBCHEM_CACTVS_SUBSKEYS>
AAADceB7sAAAAAAAAAAAAAAAAAAAAWLAAAA8QAAAAAAAAFgB8AAAHgAYAAAADCjBnwQzsJ/IEACqAydydACShC8nEqAdmKG4dNiIaHrA2fGUpYhgngLIyWcQgAAOQAAAAAAAAACAAAAAAAAAAAAAAAAAAA==
> <PUBCHEM_IUPAC_OPENEYE_NAME>
4,7-dimethyl-N-[2-oxo-2-[[(3R)-1-(p-tolylmethyl)pyrrolidin-3-yl]amino]ethyl]pyrazolo[5,1-c][1,2,4]triazine-3-carboxamide
> <PUBCHEM_IUPAC_CAS_NAME>
4,7-dimethyl-N-[2-[[(3R)-1-[(4-methylphenyl)methyl]-3-pyrrolidinyl]amino]-2-oxoethyl]-3-pyrazolo[5,1-c][1,2,4]triazinecarboxamide
> <PUBCHEM_IUPAC_NAME_MARKUP>
4,7-dimethyl-<I>N</I>-[2-[[(3<I>R</I>)-1-[(4-methylphenyl)methyl]pyrrolidin-3-yl]amino]-2-oxoethyl]pyrazolo[5,1-c][1,2,4]triazine-3-carboxamide
> <PUBCHEM_IUPAC_NAME>
4,7-dimethyl-N-[2-[[(3R)-1-[(4-methylphenyl)methyl]pyrrolidin-3-yl]amino]-2-oxoethyl]pyrazolo[5,1-c][1,2,4]triazine-3-carboxamide
> <PUBCHEM_IUPAC_SYSTEMATIC_NAME>
4,7-dimethyl-N-[2-[[(3R)-1-[(4-methylphenyl)methyl]pyrrolidin-3-yl]amino]-2-oxidanylidene-ethyl]pyrazolo[5,1-c][1,2,4]triazine-3-carboxamide
> <PUBCHEM_IUPAC_TRADITIONAL_NAME>
N-[2-keto-2-[[(3R)-1-(4-methylbenzyl)pyrrolidin-3-yl]amino]ethyl]-4,7-dimethyl-pyrazolo[5,1-c][1,2,4]triazine-3-carboxamide
> <PUBCHEM_IUPAC_INCHI>
InChI=1S/C22H27N7O2/c1-14-4-6-17(7-5-14)12-28-9-8-18(13-28)24-20(30)11-23-22(31)21-16(3)29-19(25-26-21)10-15(2)27-29/h4-7,10,18H,8-9,11-13H2,1-3H3,(H,23,31)(H,24,30)/t18-/m1/s1
> <PUBCHEM_IUPAC_INCHIKEY>
LNPRLMDGYWIERM-GOSISDBHSA-N
> <PUBCHEM_XLOGP3_AA>
1.2
> <PUBCHEM_EXACT_MASS>
421.22262313
> <PUBCHEM_MOLECULAR_FORMULA>
C22H27N7O2
> <PUBCHEM_MOLECULAR_WEIGHT>
421.5
> <PUBCHEM_OPENEYE_CAN_SMILES>
CC1=CC=C(C=C1)CN2CCC(C2)NC(=O)CNC(=O)C3=C(N4C(=CC(=N4)C)N=N3)C
> <PUBCHEM_OPENEYE_ISO_SMILES>
CC1=CC=C(C=C1)CN2CC[C@H](C2)NC(=O)CNC(=O)C3=C(N4C(=CC(=N4)C)N=N3)C
> <PUBCHEM_CACTVS_TPSA>
105
> <PUBCHEM_MONOISOTOPIC_WEIGHT>
421.22262313
> <PUBCHEM_TOTAL_CHARGE>
0
> <PUBCHEM_HEAVY_ATOM_COUNT>
31
> <PUBCHEM_ATOM_DEF_STEREO_COUNT>
1
> <PUBCHEM_ATOM_UDEF_STEREO_COUNT>
0
> <PUBCHEM_BOND_DEF_STEREO_COUNT>
0
> <PUBCHEM_BOND_UDEF_STEREO_COUNT>
0
> <PUBCHEM_ISOTOPIC_ATOM_COUNT>
0
> <PUBCHEM_COMPONENT_COUNT>
1
> <PUBCHEM_CACTVS_TAUTO_COUNT>
-1
> <PUBCHEM_COORDINATE_TYPE>
1
5
255
> <PUBCHEM_BONDANNOTATIONS>
15  17  8
15  18  8
17  20  8
18  21  8
20  22  8
21  22  8
25  26  8
27  29  8
29  30  8
10  4  5
6  26  8
6  27  8
6  8  8
7  25  8
7  9  8
8  30  8
9  27  8
$$$$
