508847
  -OEChem-10302200282D
 54 57  0     1  0  0  0  0  0999 V2000
    5.5443    2.4585    0.0000 S   0  0  0  0  0  0  0  0  0  0  0  0
    2.0000    4.2632    0.0000 F   0  0  0  0  0  0  0  0  0  0  0  0
    8.6279    0.6651    0.0000 O   0  0  0  0  0  0  0  0  0  0  0  0
    7.6279    4.1292    0.0000 O   0  0  0  0  0  0  0  0  0  0  0  0
   10.9643   -0.9175    0.0000 N   0  0  3  0  0  0  0  0  0  0  0  0
   10.1279    1.5312    0.0000 N   0  0  0  0  0  0  0  0  0  0  0  0
    7.6279    2.3972    0.0000 N   0  0  0  0  0  0  0  0  0  0  0  0
   10.6279    0.6651    0.0000 C   0  0  2  0  0  0  0  0  0  0  0  0
   11.6224    0.5606    0.0000 C   0  0  0  0  0  0  0  0  0  0  0  0
   10.2212   -0.2484    0.0000 C   0  0  0  0  0  0  0  0  0  0  0  0
   11.8303   -0.4175    0.0000 C   0  0  0  0  0  0  0  0  0  0  0  0
   10.8598   -1.9121    0.0000 C   0  0  0  0  0  0  0  0  0  0  0  0
   11.6688   -2.4998    0.0000 C   0  0  0  0  0  0  0  0  0  0  0  0
    9.1279    1.5312    0.0000 C   0  0  0  0  0  0  0  0  0  0  0  0
   11.5643   -3.4944    0.0000 C   0  0  0  0  0  0  0  0  0  0  0  0
   12.5823   -2.0931    0.0000 C   0  0  0  0  0  0  0  0  0  0  0  0
    8.6279    2.3972    0.0000 C   0  0  0  0  0  0  0  0  0  0  0  0
   12.3733   -4.0822    0.0000 C   0  0  0  0  0  0  0  0  0  0  0  0
   13.3914   -2.6809    0.0000 C   0  0  0  0  0  0  0  0  0  0  0  0
   13.2868   -3.6754    0.0000 C   0  0  0  0  0  0  0  0  0  0  0  0
   14.0959   -4.2632    0.0000 C   0  0  0  0  0  0  0  0  0  0  0  0
    7.1279    3.2632    0.0000 C   0  0  0  0  0  0  0  0  0  0  0  0
    6.1279    3.2632    0.0000 C   0  0  0  0  0  0  0  0  0  0  0  0
    4.5981    3.7632    0.0000 C   0  0  0  0  0  0  0  0  0  0  0  0
    5.5443    4.0679    0.0000 C   0  0  0  0  0  0  0  0  0  0  0  0
    4.5981    2.7632    0.0000 C   0  0  0  0  0  0  0  0  0  0  0  0
    3.7320    4.2632    0.0000 C   0  0  0  0  0  0  0  0  0  0  0  0
    3.7320    2.2632    0.0000 C   0  0  0  0  0  0  0  0  0  0  0  0
    2.8660    3.7632    0.0000 C   0  0  0  0  0  0  0  0  0  0  0  0
    2.8660    2.7632    0.0000 C   0  0  0  0  0  0  0  0  0  0  0  0
   10.0088    0.6327    0.0000 H   0  0  0  0  0  0  0  0  0  0  0  0
   12.2390    0.6254    0.0000 H   0  0  0  0  0  0  0  0  0  0  0  0
   11.6224    1.1806    0.0000 H   0  0  0  0  0  0  0  0  0  0  0  0
    9.6842    0.0616    0.0000 H   0  0  0  0  0  0  0  0  0  0  0  0
    9.8567   -0.7500    0.0000 H   0  0  0  0  0  0  0  0  0  0  0  0
   12.0825   -0.9839    0.0000 H   0  0  0  0  0  0  0  0  0  0  0  0
   12.4200   -0.2260    0.0000 H   0  0  0  0  0  0  0  0  0  0  0  0
   10.2638   -1.7412    0.0000 H   0  0  0  0  0  0  0  0  0  0  0  0
   10.5880   -2.4693    0.0000 H   0  0  0  0  0  0  0  0  0  0  0  0
   10.4379    2.0681    0.0000 H   0  0  0  0  0  0  0  0  0  0  0  0
   10.9979   -3.7466    0.0000 H   0  0  0  0  0  0  0  0  0  0  0  0
   12.6472   -1.4765    0.0000 H   0  0  0  0  0  0  0  0  0  0  0  0
    9.2105    2.6092    0.0000 H   0  0  0  0  0  0  0  0  0  0  0  0
    8.5202    3.0078    0.0000 H   0  0  0  0  0  0  0  0  0  0  0  0
   12.3085   -4.6988    0.0000 H   0  0  0  0  0  0  0  0  0  0  0  0
   13.9578   -2.4287    0.0000 H   0  0  0  0  0  0  0  0  0  0  0  0
    7.3179    1.8602    0.0000 H   0  0  0  0  0  0  0  0  0  0  0  0
   13.7314   -4.7648    0.0000 H   0  0  0  0  0  0  0  0  0  0  0  0
   14.5974   -4.6276    0.0000 H   0  0  0  0  0  0  0  0  0  0  0  0
   14.4603   -3.7616    0.0000 H   0  0  0  0  0  0  0  0  0  0  0  0
    5.7369    4.6573    0.0000 H   0  0  0  0  0  0  0  0  0  0  0  0
    3.7320    4.8832    0.0000 H   0  0  0  0  0  0  0  0  0  0  0  0
    3.7320    1.6432    0.0000 H   0  0  0  0  0  0  0  0  0  0  0  0
    2.3291    2.4532    0.0000 H   0  0  0  0  0  0  0  0  0  0  0  0
  1 23  1  0  0  0  0
  1 26  1  0  0  0  0
  2 29  1  0  0  0  0
  3 14  2  0  0  0  0
  4 22  2  0  0  0  0
  5 10  1  0  0  0  0
  5 11  1  0  0  0  0
  5 12  1  0  0  0  0
  8  6  1  6  0  0  0
  6 14  1  0  0  0  0
  6 40  1  0  0  0  0
  7 17  1  0  0  0  0
  7 22  1  0  0  0  0
  7 47  1  0  0  0  0
  8  9  1  0  0  0  0
  8 10  1  0  0  0  0
  8 31  1  0  0  0  0
  9 11  1  0  0  0  0
  9 32  1  0  0  0  0
  9 33  1  0  0  0  0
 10 34  1  0  0  0  0
 10 35  1  0  0  0  0
 11 36  1  0  0  0  0
 11 37  1  0  0  0  0
 12 13  1  0  0  0  0
 12 38  1  0  0  0  0
 12 39  1  0  0  0  0
 13 15  2  0  0  0  0
 13 16  1  0  0  0  0
 14 17  1  0  0  0  0
 15 18  1  0  0  0  0
 15 41  1  0  0  0  0
 16 19  2  0  0  0  0
 16 42  1  0  0  0  0
 17 43  1  0  0  0  0
 17 44  1  0  0  0  0
 18 20  2  0  0  0  0
 18 45  1  0  0  0  0
 19 20  1  0  0  0  0
 19 46  1  0  0  0  0
 20 21  1  0  0  0  0
 21 48  1  0  0  0  0
 21 49  1  0  0  0  0
 21 50  1  0  0  0  0
 22 23  1  0  0  0  0
 23 25  2  0  0  0  0
 24 25  1  0  0  0  0
 24 26  2  0  0  0  0
 24 27  1  0  0  0  0
 25 51  1  0  0  0  0
 26 28  1  0  0  0  0
 27 29  2  0  0  0  0
 27 52  1  0  0  0  0
 28 30  2  0  0  0  0
 28 53  1  0  0  0  0
 29 30  1  0  0  0  0
 30 54  1  0  0  0  0
M  END
> <PUBCHEM_COMPOUND_CID>
508847
> <PUBCHEM_COMPOUND_CANONICALIZED>
1
> <PUBCHEM_CACTVS_COMPLEXITY>
613
> <PUBCHEM_CACTVS_HBOND_ACCEPTOR>
5
> <PUBCHEM_CACTVS_HBOND_DONOR>
2
> <PUBCHEM_CACTVS_ROTATABLE_BOND>
6
> <PUBCHEM_CACTVS_SUBSKEYS>
AAADceB7MQBAAAAAAAAAAAAAAAAAAWJAAAAwYAAAAAAAAEgB9AAAHwQQAAAADCjB2AwyAcPAAAiMAiFSEACDAIAkCBBIiJmIBMgIYDKg1TGUIQhglgCoiYcYiICOQAAAAAAEAACAAAAAAAgAAAAAAAAAAA==
> <PUBCHEM_IUPAC_OPENEYE_NAME>
5-fluoro-N-[2-oxo-2-[[(3R)-1-(p-tolylmethyl)pyrrolidin-3-yl]amino]ethyl]benzothiophene-2-carboxamide
> <PUBCHEM_IUPAC_CAS_NAME>
5-fluoro-N-[2-[[(3R)-1-[(4-methylphenyl)methyl]-3-pyrrolidinyl]amino]-2-oxoethyl]-1-benzothiophene-2-carboxamide
> <PUBCHEM_IUPAC_NAME_MARKUP>
5-fluoro-<I>N</I>-[2-[[(3<I>R</I>)-1-[(4-methylphenyl)methyl]pyrrolidin-3-yl]amino]-2-oxoethyl]-1-benzothiophene-2-carboxamide
> <PUBCHEM_IUPAC_NAME>
5-fluoro-N-[2-[[(3R)-1-[(4-methylphenyl)methyl]pyrrolidin-3-yl]amino]-2-oxoethyl]-1-benzothiophene-2-carboxamide
> <PUBCHEM_IUPAC_SYSTEMATIC_NAME>
5-fluoranyl-N-[2-[[(3R)-1-[(4-methylphenyl)methyl]pyrrolidin-3-yl]amino]-2-oxidanylidene-ethyl]-1-benzothiophene-2-carboxamide
> <PUBCHEM_IUPAC_TRADITIONAL_NAME>
5-fluoro-N-[2-keto-2-[[(3R)-1-(4-methylbenzyl)pyrrolidin-3-yl]amino]ethyl]benzothiophene-2-carboxamide
> <PUBCHEM_IUPAC_INCHI>
InChI=1S/C23H24FN3O2S/c1-15-2-4-16(5-3-15)13-27-9-8-19(14-27)26-22(28)12-25-23(29)21-11-17-10-18(24)6-7-20(17)30-21/h2-7,10-11,19H,8-9,12-14H2,1H3,(H,25,29)(H,26,28)/t19-/m1/s1
> <PUBCHEM_IUPAC_INCHIKEY>
PZVPWLBJLOCHEJ-LJQANCHMSA-N
> <PUBCHEM_XLOGP3_AA>
4.1
> <PUBCHEM_EXACT_MASS>
425.15732635
> <PUBCHEM_MOLECULAR_FORMULA>
C23H24FN3O2S
> <PUBCHEM_MOLECULAR_WEIGHT>
425.5
> <PUBCHEM_OPENEYE_CAN_SMILES>
CC1=CC=C(C=C1)CN2CCC(C2)NC(=O)CNC(=O)C3=CC4=C(S3)C=CC(=C4)F
> <PUBCHEM_OPENEYE_ISO_SMILES>
CC1=CC=C(C=C1)CN2CC[C@H](C2)NC(=O)CNC(=O)C3=CC4=C(S3)C=CC(=C4)F
> <PUBCHEM_CACTVS_TPSA>
89.7
> <PUBCHEM_MONOISOTOPIC_WEIGHT>
425.15732635
> <PUBCHEM_TOTAL_CHARGE>
0
> <PUBCHEM_HEAVY_ATOM_COUNT>
30
> <PUBCHEM_ATOM_DEF_STEREO_COUNT>
1
> <PUBCHEM_ATOM_UDEF_STEREO_COUNT>
0
> <PUBCHEM_BOND_DEF_STEREO_COUNT>
0
> <PUBCHEM_BOND_UDEF_STEREO_COUNT>
0
> <PUBCHEM_ISOTOPIC_ATOM_COUNT>
0
> <PUBCHEM_COMPONENT_COUNT>
1
> <PUBCHEM_CACTVS_TAUTO_COUNT>
-1
> <PUBCHEM_COORDINATE_TYPE>
1
5
255
> <PUBCHEM_BONDANNOTATIONS>
1  23  8
1  26  8
13  15  8
13  16  8
15  18  8
16  19  8
18  20  8
19  20  8
23  25  8
24  25  8
24  26  8
24  27  8
26  28  8
27  29  8
28  30  8
29  30  8
8  6  6
$$$$
