508860
  -OEChem-10302200282D
 56 58  0     1  0  0  0  0  0999 V2000
    5.0010   -5.2500    0.0000 F   0  0  0  0  0  0  0  0  0  0  0  0
    6.0010   -6.2500    0.0000 F   0  0  0  0  0  0  0  0  0  0  0  0
    7.0010   -5.2500    0.0000 F   0  0  0  0  0  0  0  0  0  0  0  0
   10.9337    4.1341    0.0000 O   0  0  0  0  0  0  0  0  0  0  0  0
    6.8671    0.2500    0.0000 O   0  0  0  0  0  0  0  0  0  0  0  0
    3.4030   -0.7500    0.0000 O   0  0  0  0  0  0  0  0  0  0  0  0
    6.0010   -4.2500    0.0000 O   0  0  0  0  0  0  0  0  0  0  0  0
    7.9497    3.4524    0.0000 N   0  0  3  0  0  0  0  0  0  0  0  0
    6.0010    1.7500    0.0000 N   0  0  0  0  0  0  0  0  0  0  0  0
   10.8291    5.1286    0.0000 N   0  0  0  0  0  0  0  0  0  0  0  0
    5.1350   -0.7500    0.0000 N   0  0  0  0  0  0  0  0  0  0  0  0
    2.5369   -2.2500    0.0000 N   0  0  0  0  0  0  0  0  0  0  0  0
    6.8671    2.2500    0.0000 C   0  0  1  0  0  0  0  0  0  0  0  0
    6.9716    3.2445    0.0000 C   0  0  0  0  0  0  0  0  0  0  0  0
    7.7806    1.8432    0.0000 C   0  0  0  0  0  0  0  0  0  0  0  0
    8.4497    2.5864    0.0000 C   0  0  0  0  0  0  0  0  0  0  0  0
    8.3565    4.3659    0.0000 C   0  0  0  0  0  0  0  0  0  0  0  0
    9.3510    4.4705    0.0000 C   0  0  0  0  0  0  0  0  0  0  0  0
    6.0010    0.7500    0.0000 C   0  0  0  0  0  0  0  0  0  0  0  0
   10.0201    3.7273    0.0000 C   0  0  0  0  0  0  0  0  0  0  0  0
    9.8510    5.3365    0.0000 C   0  0  0  0  0  0  0  0  0  0  0  0
    5.1350    0.2500    0.0000 C   0  0  0  0  0  0  0  0  0  0  0  0
    9.8122    2.7492    0.0000 C   0  0  0  0  0  0  0  0  0  0  0  0
    9.4443    6.2500    0.0000 C   0  0  0  0  0  0  0  0  0  0  0  0
    4.2690   -1.2500    0.0000 C   0  0  0  0  0  0  0  0  0  0  0  0
    4.2690   -2.2500    0.0000 C   0  0  0  0  0  0  0  0  0  0  0  0
    3.4030   -2.7500    0.0000 C   0  0  0  0  0  0  0  0  0  0  0  0
    5.1350   -2.7500    0.0000 C   0  0  0  0  0  0  0  0  0  0  0  0
    5.1350   -3.7500    0.0000 C   0  0  0  0  0  0  0  0  0  0  0  0
    3.4030   -3.7500    0.0000 C   0  0  0  0  0  0  0  0  0  0  0  0
    4.2690   -4.2500    0.0000 C   0  0  0  0  0  0  0  0  0  0  0  0
    6.0010   -5.2500    0.0000 C   0  0  0  0  0  0  0  0  0  0  0  0
    6.3471    2.5876    0.0000 H   0  0  0  0  0  0  0  0  0  0  0  0
    6.9068    3.8611    0.0000 H   0  0  0  0  0  0  0  0  0  0  0  0
    6.3516    3.2445    0.0000 H   0  0  0  0  0  0  0  0  0  0  0  0
    7.4706    1.3063    0.0000 H   0  0  0  0  0  0  0  0  0  0  0  0
    8.2822    1.4788    0.0000 H   0  0  0  0  0  0  0  0  0  0  0  0
    8.8646    2.1256    0.0000 H   0  0  0  0  0  0  0  0  0  0  0  0
    8.9513    2.9508    0.0000 H   0  0  0  0  0  0  0  0  0  0  0  0
    8.3997    4.9844    0.0000 H   0  0  0  0  0  0  0  0  0  0  0  0
    7.7549    4.5159    0.0000 H   0  0  0  0  0  0  0  0  0  0  0  0
    5.4641    2.0600    0.0000 H   0  0  0  0  0  0  0  0  0  0  0  0
    4.9230    0.8326    0.0000 H   0  0  0  0  0  0  0  0  0  0  0  0
    4.5244    0.1423    0.0000 H   0  0  0  0  0  0  0  0  0  0  0  0
    9.2058    2.8781    0.0000 H   0  0  0  0  0  0  0  0  0  0  0  0
    9.6833    2.1427    0.0000 H   0  0  0  0  0  0  0  0  0  0  0  0
   10.4187    2.6203    0.0000 H   0  0  0  0  0  0  0  0  0  0  0  0
   10.0107    6.5022    0.0000 H   0  0  0  0  0  0  0  0  0  0  0  0
    9.1921    6.8164    0.0000 H   0  0  0  0  0  0  0  0  0  0  0  0
    8.8779    5.9979    0.0000 H   0  0  0  0  0  0  0  0  0  0  0  0
    5.6720   -1.0600    0.0000 H   0  0  0  0  0  0  0  0  0  0  0  0
    5.6720   -2.4400    0.0000 H   0  0  0  0  0  0  0  0  0  0  0  0
    2.8660   -4.0600    0.0000 H   0  0  0  0  0  0  0  0  0  0  0  0
    4.2690   -4.8700    0.0000 H   0  0  0  0  0  0  0  0  0  0  0  0
    2.0000   -2.5600    0.0000 H   0  0  0  0  0  0  0  0  0  0  0  0
    2.5369   -1.6300    0.0000 H   0  0  0  0  0  0  0  0  0  0  0  0
  1 32  1  0  0  0  0
  2 32  1  0  0  0  0
  3 32  1  0  0  0  0
  4 10  1  0  0  0  0
  4 20  1  0  0  0  0
  5 19  2  0  0  0  0
  6 25  2  0  0  0  0
  7 29  1  0  0  0  0
  7 32  1  0  0  0  0
  8 14  1  0  0  0  0
  8 16  1  0  0  0  0
  8 17  1  0  0  0  0
 13  9  1  1  0  0  0
  9 19  1  0  0  0  0
  9 42  1  0  0  0  0
 10 21  2  0  0  0  0
 11 22  1  0  0  0  0
 11 25  1  0  0  0  0
 11 51  1  0  0  0  0
 12 27  1  0  0  0  0
 12 55  1  0  0  0  0
 12 56  1  0  0  0  0
 13 14  1  0  0  0  0
 13 15  1  0  0  0  0
 13 33  1  0  0  0  0
 14 34  1  0  0  0  0
 14 35  1  0  0  0  0
 15 16  1  0  0  0  0
 15 36  1  0  0  0  0
 15 37  1  0  0  0  0
 16 38  1  0  0  0  0
 16 39  1  0  0  0  0
 17 18  1  0  0  0  0
 17 40  1  0  0  0  0
 17 41  1  0  0  0  0
 18 20  2  0  0  0  0
 18 21  1  0  0  0  0
 19 22  1  0  0  0  0
 20 23  1  0  0  0  0
 21 24  1  0  0  0  0
 22 43  1  0  0  0  0
 22 44  1  0  0  0  0
 23 45  1  0  0  0  0
 23 46  1  0  0  0  0
 23 47  1  0  0  0  0
 24 48  1  0  0  0  0
 24 49  1  0  0  0  0
 24 50  1  0  0  0  0
 25 26  1  0  0  0  0
 26 27  2  0  0  0  0
 26 28  1  0  0  0  0
 27 30  1  0  0  0  0
 28 29  2  0  0  0  0
 28 52  1  0  0  0  0
 29 31  1  0  0  0  0
 30 31  2  0  0  0  0
 30 53  1  0  0  0  0
 31 54  1  0  0  0  0
M  END
> <PUBCHEM_COMPOUND_CID>
508860
> <PUBCHEM_COMPOUND_CANONICALIZED>
1
> <PUBCHEM_CACTVS_COMPLEXITY>
668
> <PUBCHEM_CACTVS_HBOND_ACCEPTOR>
10
> <PUBCHEM_CACTVS_HBOND_DONOR>
3
> <PUBCHEM_CACTVS_ROTATABLE_BOND>
7
> <PUBCHEM_CACTVS_SUBSKEYS>
AAADceB7uYAAAAAAAAAAAAAAAAAAAWLAAAAwAAAAAAAAAAABwAAAHwAUAAAADCzBnhQyxpPQBACpA6VyUgCCCAAkIgAomKG+bNoMZjqE9buUMahm1hmI6ce6yBCOAEABAAACAAAAgAIAAAQAAAAAAAAAAA==
> <PUBCHEM_IUPAC_OPENEYE_NAME>
2-amino-N-[2-[[(3R)-1-[(3,5-dimethylisoxazol-4-yl)methyl]pyrrolidin-3-yl]amino]-2-oxo-ethyl]-5-(trifluoromethoxy)benzamide
> <PUBCHEM_IUPAC_CAS_NAME>
2-amino-N-[2-[[(3R)-1-[(3,5-dimethyl-4-isoxazolyl)methyl]-3-pyrrolidinyl]amino]-2-oxoethyl]-5-(trifluoromethoxy)benzamide
> <PUBCHEM_IUPAC_NAME_MARKUP>
2-amino-<I>N</I>-[2-[[(3<I>R</I>)-1-[(3,5-dimethyl-1,2-oxazol-4-yl)methyl]pyrrolidin-3-yl]amino]-2-oxoethyl]-5-(trifluoromethoxy)benzamide
> <PUBCHEM_IUPAC_NAME>
2-amino-N-[2-[[(3R)-1-[(3,5-dimethyl-1,2-oxazol-4-yl)methyl]pyrrolidin-3-yl]amino]-2-oxoethyl]-5-(trifluoromethoxy)benzamide
> <PUBCHEM_IUPAC_SYSTEMATIC_NAME>
2-azanyl-N-[2-[[(3R)-1-[(3,5-dimethyl-1,2-oxazol-4-yl)methyl]pyrrolidin-3-yl]amino]-2-oxidanylidene-ethyl]-5-(trifluoromethyloxy)benzamide
> <PUBCHEM_IUPAC_TRADITIONAL_NAME>
2-amino-N-[2-[[(3R)-1-[(3,5-dimethylisoxazol-4-yl)methyl]pyrrolidin-3-yl]amino]-2-keto-ethyl]-5-(trifluoromethoxy)benzamide
> <PUBCHEM_IUPAC_INCHI>
InChI=1S/C20H24F3N5O4/c1-11-16(12(2)32-27-11)10-28-6-5-13(9-28)26-18(29)8-25-19(30)15-7-14(3-4-17(15)24)31-20(21,22)23/h3-4,7,13H,5-6,8-10,24H2,1-2H3,(H,25,30)(H,26,29)/t13-/m1/s1
> <PUBCHEM_IUPAC_INCHIKEY>
RETXPICLLHFQGR-CYBMUJFWSA-N
> <PUBCHEM_XLOGP3_AA>
2.6
> <PUBCHEM_EXACT_MASS>
455.17803875
> <PUBCHEM_MOLECULAR_FORMULA>
C20H24F3N5O4
> <PUBCHEM_MOLECULAR_WEIGHT>
455.4
> <PUBCHEM_OPENEYE_CAN_SMILES>
CC1=C(C(=NO1)C)CN2CCC(C2)NC(=O)CNC(=O)C3=C(C=CC(=C3)OC(F)(F)F)N
> <PUBCHEM_OPENEYE_ISO_SMILES>
CC1=C(C(=NO1)C)CN2CC[C@H](C2)NC(=O)CNC(=O)C3=C(C=CC(=C3)OC(F)(F)F)N
> <PUBCHEM_CACTVS_TPSA>
123
> <PUBCHEM_MONOISOTOPIC_WEIGHT>
455.17803875
> <PUBCHEM_TOTAL_CHARGE>
0
> <PUBCHEM_HEAVY_ATOM_COUNT>
32
> <PUBCHEM_ATOM_DEF_STEREO_COUNT>
1
> <PUBCHEM_ATOM_UDEF_STEREO_COUNT>
0
> <PUBCHEM_BOND_DEF_STEREO_COUNT>
0
> <PUBCHEM_BOND_UDEF_STEREO_COUNT>
0
> <PUBCHEM_ISOTOPIC_ATOM_COUNT>
0
> <PUBCHEM_COMPONENT_COUNT>
1
> <PUBCHEM_CACTVS_TAUTO_COUNT>
-1
> <PUBCHEM_COORDINATE_TYPE>
1
5
255
> <PUBCHEM_BONDANNOTATIONS>
10  21  8
18  20  8
18  21  8
26  27  8
26  28  8
27  30  8
28  29  8
29  31  8
30  31  8
4  10  8
4  20  8
13  9  5
$$$$
