508850
  -OEChem-10302200282D
 64 67  0     1  0  0  0  0  0999 V2000
    2.0000   -6.1648    0.0000 Cl  0  0  0  0  0  0  0  0  0  0  0  0
   11.7976    3.8693    0.0000 S   0  0  0  0  0  0  0  0  0  0  0  0
   10.0656   -2.1307    0.0000 O   0  0  0  0  0  0  0  0  0  0  0  0
    9.1996    1.3693    0.0000 O   0  0  0  0  0  0  0  0  0  0  0  0
   12.7976    3.8693    0.0000 O   0  0  0  0  0  0  0  0  0  0  0  0
   10.7976    3.8693    0.0000 O   0  0  0  0  0  0  0  0  0  0  0  0
    6.3848   -4.8331    0.0000 N   0  0  3  0  0  0  0  0  0  0  0  0
    8.3335   -2.1307    0.0000 N   0  0  0  0  0  0  0  0  0  0  0  0
   10.0656   -0.1307    0.0000 N   0  0  0  0  0  0  0  0  0  0  0  0
    7.4675   -3.6307    0.0000 C   0  0  3  0  0  0  0  0  0  0  0  0
    6.5540   -3.2240    0.0000 C   0  0  0  0  0  0  0  0  0  0  0  0
    7.3630   -4.6252    0.0000 C   0  0  0  0  0  0  0  0  0  0  0  0
    5.8848   -3.9671    0.0000 C   0  0  0  0  0  0  0  0  0  0  0  0
    8.3335   -3.1307    0.0000 C   0  0  0  0  0  0  0  0  0  0  0  0
    5.9781   -5.7467    0.0000 C   0  0  0  0  0  0  0  0  0  0  0  0
    4.9836   -5.8512    0.0000 C   0  0  0  0  0  0  0  0  0  0  0  0
    9.1996   -1.6307    0.0000 C   0  0  0  0  0  0  0  0  0  0  0  0
    4.5768   -6.7648    0.0000 C   0  0  0  0  0  0  0  0  0  0  0  0
    4.3958   -5.0422    0.0000 C   0  0  0  0  0  0  0  0  0  0  0  0
    9.1996   -0.6307    0.0000 C   0  0  0  0  0  0  0  0  0  0  0  0
    3.5823   -6.8693    0.0000 C   0  0  0  0  0  0  0  0  0  0  0  0
    3.4013   -5.1467    0.0000 C   0  0  0  0  0  0  0  0  0  0  0  0
    2.9945   -6.0603    0.0000 C   0  0  0  0  0  0  0  0  0  0  0  0
   10.0656    0.8693    0.0000 C   0  0  0  0  0  0  0  0  0  0  0  0
   10.9316    1.3693    0.0000 C   0  0  0  0  0  0  0  0  0  0  0  0
   11.7976    2.8693    0.0000 C   0  0  0  0  0  0  0  0  0  0  0  0
   10.9316    2.3693    0.0000 C   0  0  0  0  0  0  0  0  0  0  0  0
   11.7976    0.8693    0.0000 C   0  0  0  0  0  0  0  0  0  0  0  0
   11.7976    4.8693    0.0000 C   0  0  0  0  0  0  0  0  0  0  0  0
   12.6637    2.3693    0.0000 C   0  0  0  0  0  0  0  0  0  0  0  0
   12.6637    1.3693    0.0000 C   0  0  0  0  0  0  0  0  0  0  0  0
   10.9316    5.3693    0.0000 C   0  0  0  0  0  0  0  0  0  0  0  0
   12.6637    5.3693    0.0000 C   0  0  0  0  0  0  0  0  0  0  0  0
   10.9316    6.3693    0.0000 C   0  0  0  0  0  0  0  0  0  0  0  0
   12.6637    6.3693    0.0000 C   0  0  0  0  0  0  0  0  0  0  0  0
   11.7976    6.8693    0.0000 C   0  0  0  0  0  0  0  0  0  0  0  0
    7.4350   -3.0116    0.0000 H   0  0  0  0  0  0  0  0  0  0  0  0
    6.8640   -2.6870    0.0000 H   0  0  0  0  0  0  0  0  0  0  0  0
    6.0524   -2.8596    0.0000 H   0  0  0  0  0  0  0  0  0  0  0  0
    7.4278   -5.2418    0.0000 H   0  0  0  0  0  0  0  0  0  0  0  0
    7.9830   -4.6252    0.0000 H   0  0  0  0  0  0  0  0  0  0  0  0
    5.4700   -3.5064    0.0000 H   0  0  0  0  0  0  0  0  0  0  0  0
    5.3832   -4.3315    0.0000 H   0  0  0  0  0  0  0  0  0  0  0  0
    8.5456   -3.7133    0.0000 H   0  0  0  0  0  0  0  0  0  0  0  0
    8.9441   -3.0230    0.0000 H   0  0  0  0  0  0  0  0  0  0  0  0
    5.9348   -6.3652    0.0000 H   0  0  0  0  0  0  0  0  0  0  0  0
    6.5797   -5.8967    0.0000 H   0  0  0  0  0  0  0  0  0  0  0  0
    7.7966   -1.8207    0.0000 H   0  0  0  0  0  0  0  0  0  0  0  0
    4.9413   -7.2664    0.0000 H   0  0  0  0  0  0  0  0  0  0  0  0
    4.6480   -4.4758    0.0000 H   0  0  0  0  0  0  0  0  0  0  0  0
    8.9875   -0.0481    0.0000 H   0  0  0  0  0  0  0  0  0  0  0  0
    8.5890   -0.7384    0.0000 H   0  0  0  0  0  0  0  0  0  0  0  0
    3.3301   -7.4357    0.0000 H   0  0  0  0  0  0  0  0  0  0  0  0
    3.0368   -4.6451    0.0000 H   0  0  0  0  0  0  0  0  0  0  0  0
   10.6025   -0.4407    0.0000 H   0  0  0  0  0  0  0  0  0  0  0  0
   10.3947    2.6793    0.0000 H   0  0  0  0  0  0  0  0  0  0  0  0
   11.7976    0.2493    0.0000 H   0  0  0  0  0  0  0  0  0  0  0  0
   13.2006    2.6793    0.0000 H   0  0  0  0  0  0  0  0  0  0  0  0
   13.2006    1.0593    0.0000 H   0  0  0  0  0  0  0  0  0  0  0  0
   10.3947    5.0593    0.0000 H   0  0  0  0  0  0  0  0  0  0  0  0
   13.2006    5.0593    0.0000 H   0  0  0  0  0  0  0  0  0  0  0  0
   10.3947    6.6793    0.0000 H   0  0  0  0  0  0  0  0  0  0  0  0
   13.2006    6.6793    0.0000 H   0  0  0  0  0  0  0  0  0  0  0  0
   11.7976    7.4893    0.0000 H   0  0  0  0  0  0  0  0  0  0  0  0
  1 23  1  0  0  0  0
  2  5  2  0  0  0  0
  2  6  2  0  0  0  0
  2 26  1  0  0  0  0
  2 29  1  0  0  0  0
  3 17  2  0  0  0  0
  4 24  2  0  0  0  0
  7 12  1  0  0  0  0
  7 13  1  0  0  0  0
  7 15  1  0  0  0  0
  8 14  1  0  0  0  0
  8 17  1  0  0  0  0
  8 48  1  0  0  0  0
  9 20  1  0  0  0  0
  9 24  1  0  0  0  0
  9 55  1  0  0  0  0
 10 11  1  0  0  0  0
 10 12  1  0  0  0  0
 10 14  1  0  0  0  0
 10 37  1  0  0  0  0
 11 13  1  0  0  0  0
 11 38  1  0  0  0  0
 11 39  1  0  0  0  0
 12 40  1  0  0  0  0
 12 41  1  0  0  0  0
 13 42  1  0  0  0  0
 13 43  1  0  0  0  0
 14 44  1  0  0  0  0
 14 45  1  0  0  0  0
 15 16  1  0  0  0  0
 15 46  1  0  0  0  0
 15 47  1  0  0  0  0
 16 18  2  0  0  0  0
 16 19  1  0  0  0  0
 17 20  1  0  0  0  0
 18 21  1  0  0  0  0
 18 49  1  0  0  0  0
 19 22  2  0  0  0  0
 19 50  1  0  0  0  0
 20 51  1  0  0  0  0
 20 52  1  0  0  0  0
 21 23  2  0  0  0  0
 21 53  1  0  0  0  0
 22 23  1  0  0  0  0
 22 54  1  0  0  0  0
 24 25  1  0  0  0  0
 25 27  2  0  0  0  0
 25 28  1  0  0  0  0
 26 27  1  0  0  0  0
 26 30  2  0  0  0  0
 27 56  1  0  0  0  0
 28 31  2  0  0  0  0
 28 57  1  0  0  0  0
 29 32  2  0  0  0  0
 29 33  1  0  0  0  0
 30 31  1  0  0  0  0
 30 58  1  0  0  0  0
 31 59  1  0  0  0  0
 32 34  1  0  0  0  0
 32 60  1  0  0  0  0
 33 35  2  0  0  0  0
 33 61  1  0  0  0  0
 34 36  2  0  0  0  0
 34 62  1  0  0  0  0
 35 36  1  0  0  0  0
 35 63  1  0  0  0  0
 36 64  1  0  0  0  0
M  END
> <PUBCHEM_COMPOUND_CID>
508850
> <PUBCHEM_COMPOUND_CANONICALIZED>
1
> <PUBCHEM_CACTVS_COMPLEXITY>
834
> <PUBCHEM_CACTVS_HBOND_ACCEPTOR>
5
> <PUBCHEM_CACTVS_HBOND_DONOR>
2
> <PUBCHEM_CACTVS_ROTATABLE_BOND>
9
> <PUBCHEM_CACTVS_SUBSKEYS>
AAADceB7OABEAAAAAAAAAAAAAAAAAWAAAAAwYMAAAAAAAAABUAAAHgYQAAAADQLB2CQwAYPAAAqIAiFSEHDCAAAkDRAIiJmIBsgIYDKh1zGUIQhglgCoiYcYiACOBAAAgAAAAAAIAAEAAAAAAAAAAAAAAA==
> <PUBCHEM_IUPAC_OPENEYE_NAME>
3-(benzenesulfonyl)-N-[2-[[1-[(4-chlorophenyl)methyl]pyrrolidin-3-yl]methylamino]-2-oxo-ethyl]benzamide
> <PUBCHEM_IUPAC_CAS_NAME>
3-(benzenesulfonyl)-N-[2-[[1-[(4-chlorophenyl)methyl]-3-pyrrolidinyl]methylamino]-2-oxoethyl]benzamide
> <PUBCHEM_IUPAC_NAME_MARKUP>
3-(benzenesulfonyl)-<I>N</I>-[2-[[1-[(4-chlorophenyl)methyl]pyrrolidin-3-yl]methylamino]-2-oxoethyl]benzamide
> <PUBCHEM_IUPAC_NAME>
3-(benzenesulfonyl)-N-[2-[[1-[(4-chlorophenyl)methyl]pyrrolidin-3-yl]methylamino]-2-oxoethyl]benzamide
> <PUBCHEM_IUPAC_SYSTEMATIC_NAME>
N-[2-[[1-[(4-chlorophenyl)methyl]pyrrolidin-3-yl]methylamino]-2-oxidanylidene-ethyl]-3-(phenylsulfonyl)benzamide
> <PUBCHEM_IUPAC_TRADITIONAL_NAME>
3-besyl-N-[2-[[1-(4-chlorobenzyl)pyrrolidin-3-yl]methylamino]-2-keto-ethyl]benzamide
> <PUBCHEM_IUPAC_INCHI>
InChI=1S/C27H28ClN3O4S/c28-23-11-9-20(10-12-23)18-31-14-13-21(19-31)16-29-26(32)17-30-27(33)22-5-4-8-25(15-22)36(34,35)24-6-2-1-3-7-24/h1-12,15,21H,13-14,16-19H2,(H,29,32)(H,30,33)
> <PUBCHEM_IUPAC_INCHIKEY>
VLJUTAGUHJQFPK-UHFFFAOYSA-N
> <PUBCHEM_XLOGP3_AA>
3.9
> <PUBCHEM_EXACT_MASS>
525.1489053
> <PUBCHEM_MOLECULAR_FORMULA>
C27H28ClN3O4S
> <PUBCHEM_MOLECULAR_WEIGHT>
526.0
> <PUBCHEM_OPENEYE_CAN_SMILES>
C1CN(CC1CNC(=O)CNC(=O)C2=CC(=CC=C2)S(=O)(=O)C3=CC=CC=C3)CC4=CC=C(C=C4)Cl
> <PUBCHEM_OPENEYE_ISO_SMILES>
C1CN(CC1CNC(=O)CNC(=O)C2=CC(=CC=C2)S(=O)(=O)C3=CC=CC=C3)CC4=CC=C(C=C4)Cl
> <PUBCHEM_CACTVS_TPSA>
104
> <PUBCHEM_MONOISOTOPIC_WEIGHT>
525.1489053
> <PUBCHEM_TOTAL_CHARGE>
0
> <PUBCHEM_HEAVY_ATOM_COUNT>
36
> <PUBCHEM_ATOM_DEF_STEREO_COUNT>
0
> <PUBCHEM_ATOM_UDEF_STEREO_COUNT>
1
> <PUBCHEM_BOND_DEF_STEREO_COUNT>
0
> <PUBCHEM_BOND_UDEF_STEREO_COUNT>
0
> <PUBCHEM_ISOTOPIC_ATOM_COUNT>
0
> <PUBCHEM_COMPONENT_COUNT>
1
> <PUBCHEM_CACTVS_TAUTO_COUNT>
-1
> <PUBCHEM_COORDINATE_TYPE>
1
5
255
> <PUBCHEM_BONDANNOTATIONS>
10  14  3
16  18  8
16  19  8
18  21  8
19  22  8
21  23  8
22  23  8
25  27  8
25  28  8
26  27  8
26  30  8
28  31  8
29  32  8
29  33  8
30  31  8
32  34  8
33  35  8
34  36  8
35  36  8
$$$$
