508873
  -OEChem-10302200282D
 56 58  0     1  0  0  0  0  0999 V2000
   12.7976    5.0603    0.0000 S   0  0  0  0  0  0  0  0  0  0  0  0
    3.0000   -5.9738    0.0000 F   0  0  0  0  0  0  0  0  0  0  0  0
    2.0000   -4.9738    0.0000 F   0  0  0  0  0  0  0  0  0  0  0  0
    4.0000   -4.9738    0.0000 F   0  0  0  0  0  0  0  0  0  0  0  0
    7.3301    0.5262    0.0000 O   0  0  0  0  0  0  0  0  0  0  0  0
    3.8660   -0.4738    0.0000 O   0  0  0  0  0  0  0  0  0  0  0  0
    3.0000   -3.9738    0.0000 O   0  0  0  0  0  0  0  0  0  0  0  0
    8.4128    3.7286    0.0000 N   0  0  3  0  0  0  0  0  0  0  0  0
    6.4641    2.0262    0.0000 N   0  0  0  0  0  0  0  0  0  0  0  0
    5.5981   -0.4738    0.0000 N   0  0  0  0  0  0  0  0  0  0  0  0
    7.3301    2.5262    0.0000 C   0  0  2  0  0  0  0  0  0  0  0  0
    8.2437    2.1194    0.0000 C   0  0  0  0  0  0  0  0  0  0  0  0
    7.4347    3.5207    0.0000 C   0  0  0  0  0  0  0  0  0  0  0  0
    8.9128    2.8626    0.0000 C   0  0  0  0  0  0  0  0  0  0  0  0
    8.8195    4.6422    0.0000 C   0  0  0  0  0  0  0  0  0  0  0  0
    9.8141    4.7467    0.0000 C   0  0  0  0  0  0  0  0  0  0  0  0
    6.4641    1.0262    0.0000 C   0  0  0  0  0  0  0  0  0  0  0  0
   10.2208    5.6602    0.0000 C   0  0  0  0  0  0  0  0  0  0  0  0
   10.4018    3.9377    0.0000 C   0  0  0  0  0  0  0  0  0  0  0  0
    5.5981    0.5262    0.0000 C   0  0  0  0  0  0  0  0  0  0  0  0
   11.2153    5.7648    0.0000 C   0  0  0  0  0  0  0  0  0  0  0  0
   11.3964    4.0422    0.0000 C   0  0  0  0  0  0  0  0  0  0  0  0
   11.8031    4.9558    0.0000 C   0  0  0  0  0  0  0  0  0  0  0  0
    4.7320   -0.9738    0.0000 C   0  0  0  0  0  0  0  0  0  0  0  0
    4.7320   -1.9738    0.0000 C   0  0  0  0  0  0  0  0  0  0  0  0
    3.8660   -2.4738    0.0000 C   0  0  0  0  0  0  0  0  0  0  0  0
   13.2044    5.9738    0.0000 C   0  0  0  0  0  0  0  0  0  0  0  0
    5.5981   -2.4738    0.0000 C   0  0  0  0  0  0  0  0  0  0  0  0
    3.8660   -3.4738    0.0000 C   0  0  0  0  0  0  0  0  0  0  0  0
    5.5981   -3.4738    0.0000 C   0  0  0  0  0  0  0  0  0  0  0  0
    4.7320   -3.9738    0.0000 C   0  0  0  0  0  0  0  0  0  0  0  0
    3.0000   -4.9738    0.0000 C   0  0  0  0  0  0  0  0  0  0  0  0
    6.8102    2.8639    0.0000 H   0  0  0  0  0  0  0  0  0  0  0  0
    7.9337    1.5825    0.0000 H   0  0  0  0  0  0  0  0  0  0  0  0
    8.7453    1.7550    0.0000 H   0  0  0  0  0  0  0  0  0  0  0  0
    7.3698    4.1373    0.0000 H   0  0  0  0  0  0  0  0  0  0  0  0
    6.8147    3.5207    0.0000 H   0  0  0  0  0  0  0  0  0  0  0  0
    9.3277    2.4018    0.0000 H   0  0  0  0  0  0  0  0  0  0  0  0
    9.4144    3.2270    0.0000 H   0  0  0  0  0  0  0  0  0  0  0  0
    8.8628    5.2606    0.0000 H   0  0  0  0  0  0  0  0  0  0  0  0
    8.2180    4.7922    0.0000 H   0  0  0  0  0  0  0  0  0  0  0  0
    5.9272    2.3362    0.0000 H   0  0  0  0  0  0  0  0  0  0  0  0
    9.8564    6.1618    0.0000 H   0  0  0  0  0  0  0  0  0  0  0  0
   10.1497    3.3713    0.0000 H   0  0  0  0  0  0  0  0  0  0  0  0
    5.3860    1.1088    0.0000 H   0  0  0  0  0  0  0  0  0  0  0  0
    4.9875    0.4185    0.0000 H   0  0  0  0  0  0  0  0  0  0  0  0
   11.4675    6.3312    0.0000 H   0  0  0  0  0  0  0  0  0  0  0  0
   11.7608    3.5406    0.0000 H   0  0  0  0  0  0  0  0  0  0  0  0
    6.1350   -0.7838    0.0000 H   0  0  0  0  0  0  0  0  0  0  0  0
    3.3291   -2.1638    0.0000 H   0  0  0  0  0  0  0  0  0  0  0  0
    6.1350   -2.1638    0.0000 H   0  0  0  0  0  0  0  0  0  0  0  0
   13.7708    5.7216    0.0000 H   0  0  0  0  0  0  0  0  0  0  0  0
   13.4565    6.5402    0.0000 H   0  0  0  0  0  0  0  0  0  0  0  0
   12.6380    6.2260    0.0000 H   0  0  0  0  0  0  0  0  0  0  0  0
    6.1350   -3.7838    0.0000 H   0  0  0  0  0  0  0  0  0  0  0  0
    4.7320   -4.5938    0.0000 H   0  0  0  0  0  0  0  0  0  0  0  0
  1 23  1  0  0  0  0
  1 27  1  0  0  0  0
  2 32  1  0  0  0  0
  3 32  1  0  0  0  0
  4 32  1  0  0  0  0
  5 17  2  0  0  0  0
  6 24  2  0  0  0  0
  7 29  1  0  0  0  0
  7 32  1  0  0  0  0
  8 13  1  0  0  0  0
  8 14  1  0  0  0  0
  8 15  1  0  0  0  0
 11  9  1  1  0  0  0
  9 17  1  0  0  0  0
  9 42  1  0  0  0  0
 10 20  1  0  0  0  0
 10 24  1  0  0  0  0
 10 49  1  0  0  0  0
 11 12  1  0  0  0  0
 11 13  1  0  0  0  0
 11 33  1  0  0  0  0
 12 14  1  0  0  0  0
 12 34  1  0  0  0  0
 12 35  1  0  0  0  0
 13 36  1  0  0  0  0
 13 37  1  0  0  0  0
 14 38  1  0  0  0  0
 14 39  1  0  0  0  0
 15 16  1  0  0  0  0
 15 40  1  0  0  0  0
 15 41  1  0  0  0  0
 16 18  2  0  0  0  0
 16 19  1  0  0  0  0
 17 20  1  0  0  0  0
 18 21  1  0  0  0  0
 18 43  1  0  0  0  0
 19 22  2  0  0  0  0
 19 44  1  0  0  0  0
 20 45  1  0  0  0  0
 20 46  1  0  0  0  0
 21 23  2  0  0  0  0
 21 47  1  0  0  0  0
 22 23  1  0  0  0  0
 22 48  1  0  0  0  0
 24 25  1  0  0  0  0
 25 26  2  0  0  0  0
 25 28  1  0  0  0  0
 26 29  1  0  0  0  0
 26 50  1  0  0  0  0
 27 52  1  0  0  0  0
 27 53  1  0  0  0  0
 27 54  1  0  0  0  0
 28 30  2  0  0  0  0
 28 51  1  0  0  0  0
 29 31  2  0  0  0  0
 30 31  1  0  0  0  0
 30 55  1  0  0  0  0
 31 56  1  0  0  0  0
M  END
> <PUBCHEM_COMPOUND_CID>
508873
> <PUBCHEM_COMPOUND_CANONICALIZED>
1
> <PUBCHEM_CACTVS_COMPLEXITY>
629
> <PUBCHEM_CACTVS_HBOND_ACCEPTOR>
8
> <PUBCHEM_CACTVS_HBOND_DONOR>
2
> <PUBCHEM_CACTVS_ROTATABLE_BOND>
8
> <PUBCHEM_CACTVS_SUBSKEYS>
AAADceB7MYBAAAAAAAAAAAAAAAAAAWAAAAAwYAAAAAAAAAABQAAAHwQQAAAADCzB2BSyB4PABAiIAiFSEACCCAAkKBAIiJmODMgMZjKk9TuUMShk1hGIqYe6yBCOEAABAAAAAAAgAAIAAAAAAAAAAAAAAA==
> <PUBCHEM_IUPAC_OPENEYE_NAME>
N-[2-[[(3R)-1-[(4-methylsulfanylphenyl)methyl]pyrrolidin-3-yl]amino]-2-oxo-ethyl]-3-(trifluoromethoxy)benzamide
> <PUBCHEM_IUPAC_CAS_NAME>
N-[2-[[(3R)-1-[[4-(methylthio)phenyl]methyl]-3-pyrrolidinyl]amino]-2-oxoethyl]-3-(trifluoromethoxy)benzamide
> <PUBCHEM_IUPAC_NAME_MARKUP>
<I>N</I>-[2-[[(3<I>R</I>)-1-[(4-methylsulfanylphenyl)methyl]pyrrolidin-3-yl]amino]-2-oxoethyl]-3-(trifluoromethoxy)benzamide
> <PUBCHEM_IUPAC_NAME>
N-[2-[[(3R)-1-[(4-methylsulfanylphenyl)methyl]pyrrolidin-3-yl]amino]-2-oxoethyl]-3-(trifluoromethoxy)benzamide
> <PUBCHEM_IUPAC_SYSTEMATIC_NAME>
N-[2-[[(3R)-1-[(4-methylsulfanylphenyl)methyl]pyrrolidin-3-yl]amino]-2-oxidanylidene-ethyl]-3-(trifluoromethyloxy)benzamide
> <PUBCHEM_IUPAC_TRADITIONAL_NAME>
N-[2-keto-2-[[(3R)-1-[4-(methylthio)benzyl]pyrrolidin-3-yl]amino]ethyl]-3-(trifluoromethoxy)benzamide
> <PUBCHEM_IUPAC_INCHI>
InChI=1S/C22H24F3N3O3S/c1-32-19-7-5-15(6-8-19)13-28-10-9-17(14-28)27-20(29)12-26-21(30)16-3-2-4-18(11-16)31-22(23,24)25/h2-8,11,17H,9-10,12-14H2,1H3,(H,26,30)(H,27,29)/t17-/m1/s1
> <PUBCHEM_IUPAC_INCHIKEY>
BJMMDTSSHMEMPA-QGZVFWFLSA-N
> <PUBCHEM_XLOGP3_AA>
4
> <PUBCHEM_EXACT_MASS>
467.14904730
> <PUBCHEM_MOLECULAR_FORMULA>
C22H24F3N3O3S
> <PUBCHEM_MOLECULAR_WEIGHT>
467.5
> <PUBCHEM_OPENEYE_CAN_SMILES>
CSC1=CC=C(C=C1)CN2CCC(C2)NC(=O)CNC(=O)C3=CC(=CC=C3)OC(F)(F)F
> <PUBCHEM_OPENEYE_ISO_SMILES>
CSC1=CC=C(C=C1)CN2CC[C@H](C2)NC(=O)CNC(=O)C3=CC(=CC=C3)OC(F)(F)F
> <PUBCHEM_CACTVS_TPSA>
96
> <PUBCHEM_MONOISOTOPIC_WEIGHT>
467.14904730
> <PUBCHEM_TOTAL_CHARGE>
0
> <PUBCHEM_HEAVY_ATOM_COUNT>
32
> <PUBCHEM_ATOM_DEF_STEREO_COUNT>
1
> <PUBCHEM_ATOM_UDEF_STEREO_COUNT>
0
> <PUBCHEM_BOND_DEF_STEREO_COUNT>
0
> <PUBCHEM_BOND_UDEF_STEREO_COUNT>
0
> <PUBCHEM_ISOTOPIC_ATOM_COUNT>
0
> <PUBCHEM_COMPONENT_COUNT>
1
> <PUBCHEM_CACTVS_TAUTO_COUNT>
-1
> <PUBCHEM_COORDINATE_TYPE>
1
5
255
> <PUBCHEM_BONDANNOTATIONS>
16  18  8
16  19  8
18  21  8
19  22  8
21  23  8
22  23  8
25  26  8
25  28  8
26  29  8
28  30  8
29  31  8
30  31  8
11  9  5
$$$$
