508890
  -OEChem-10302200282D
 54 56  0     1  0  0  0  0  0999 V2000
    6.0010   -4.9738    0.0000 I   0  0  0  0  0  0  0  0  0  0  0  0
    6.8671   -0.4738    0.0000 O   0  0  0  0  0  0  0  0  0  0  0  0
   12.3346    4.0603    0.0000 O   0  0  0  0  0  0  0  0  0  0  0  0
    3.4030   -1.4738    0.0000 O   0  0  0  0  0  0  0  0  0  0  0  0
    7.9497    2.7286    0.0000 N   0  0  3  0  0  0  0  0  0  0  0  0
    6.0010    1.0262    0.0000 N   0  0  0  0  0  0  0  0  0  0  0  0
    5.1350   -1.4738    0.0000 N   0  0  0  0  0  0  0  0  0  0  0  0
    2.5369   -2.9738    0.0000 N   0  0  0  0  0  0  0  0  0  0  0  0
    6.8671    1.5262    0.0000 C   0  0  2  0  0  0  0  0  0  0  0  0
    7.7806    1.1194    0.0000 C   0  0  0  0  0  0  0  0  0  0  0  0
    6.9716    2.5207    0.0000 C   0  0  0  0  0  0  0  0  0  0  0  0
    8.4497    1.8626    0.0000 C   0  0  0  0  0  0  0  0  0  0  0  0
    8.3565    3.6422    0.0000 C   0  0  0  0  0  0  0  0  0  0  0  0
    9.3510    3.7467    0.0000 C   0  0  0  0  0  0  0  0  0  0  0  0
    6.0010    0.0262    0.0000 C   0  0  0  0  0  0  0  0  0  0  0  0
    9.7577    4.6602    0.0000 C   0  0  0  0  0  0  0  0  0  0  0  0
    9.9388    2.9377    0.0000 C   0  0  0  0  0  0  0  0  0  0  0  0
    5.1350   -0.4738    0.0000 C   0  0  0  0  0  0  0  0  0  0  0  0
   10.7523    4.7648    0.0000 C   0  0  0  0  0  0  0  0  0  0  0  0
   10.9333    3.0422    0.0000 C   0  0  0  0  0  0  0  0  0  0  0  0
   11.3400    3.9558    0.0000 C   0  0  0  0  0  0  0  0  0  0  0  0
    4.2690   -1.9738    0.0000 C   0  0  0  0  0  0  0  0  0  0  0  0
    4.2690   -2.9738    0.0000 C   0  0  0  0  0  0  0  0  0  0  0  0
    3.4030   -3.4738    0.0000 C   0  0  0  0  0  0  0  0  0  0  0  0
    5.1350   -3.4738    0.0000 C   0  0  0  0  0  0  0  0  0  0  0  0
   12.7413    4.9738    0.0000 C   0  0  0  0  0  0  0  0  0  0  0  0
    3.4030   -4.4738    0.0000 C   0  0  0  0  0  0  0  0  0  0  0  0
    5.1350   -4.4738    0.0000 C   0  0  0  0  0  0  0  0  0  0  0  0
    4.2690   -4.9738    0.0000 C   0  0  0  0  0  0  0  0  0  0  0  0
    6.3471    1.8639    0.0000 H   0  0  0  0  0  0  0  0  0  0  0  0
    7.4706    0.5825    0.0000 H   0  0  0  0  0  0  0  0  0  0  0  0
    8.2822    0.7550    0.0000 H   0  0  0  0  0  0  0  0  0  0  0  0
    6.9068    3.1373    0.0000 H   0  0  0  0  0  0  0  0  0  0  0  0
    6.3516    2.5207    0.0000 H   0  0  0  0  0  0  0  0  0  0  0  0
    8.8646    1.4018    0.0000 H   0  0  0  0  0  0  0  0  0  0  0  0
    8.9513    2.2270    0.0000 H   0  0  0  0  0  0  0  0  0  0  0  0
    8.3997    4.2606    0.0000 H   0  0  0  0  0  0  0  0  0  0  0  0
    7.7549    3.7922    0.0000 H   0  0  0  0  0  0  0  0  0  0  0  0
    5.4641    1.3362    0.0000 H   0  0  0  0  0  0  0  0  0  0  0  0
    4.9230    0.1088    0.0000 H   0  0  0  0  0  0  0  0  0  0  0  0
    4.5244   -0.5815    0.0000 H   0  0  0  0  0  0  0  0  0  0  0  0
    9.3933    5.1618    0.0000 H   0  0  0  0  0  0  0  0  0  0  0  0
    9.6866    2.3713    0.0000 H   0  0  0  0  0  0  0  0  0  0  0  0
   11.0044    5.3312    0.0000 H   0  0  0  0  0  0  0  0  0  0  0  0
   11.2977    2.5406    0.0000 H   0  0  0  0  0  0  0  0  0  0  0  0
    5.6720   -1.7838    0.0000 H   0  0  0  0  0  0  0  0  0  0  0  0
    5.6720   -3.1638    0.0000 H   0  0  0  0  0  0  0  0  0  0  0  0
   13.3077    4.7216    0.0000 H   0  0  0  0  0  0  0  0  0  0  0  0
   12.9935    5.5402    0.0000 H   0  0  0  0  0  0  0  0  0  0  0  0
   12.1749    5.2260    0.0000 H   0  0  0  0  0  0  0  0  0  0  0  0
    2.8660   -4.7838    0.0000 H   0  0  0  0  0  0  0  0  0  0  0  0
    4.2690   -5.5938    0.0000 H   0  0  0  0  0  0  0  0  0  0  0  0
    2.0000   -3.2838    0.0000 H   0  0  0  0  0  0  0  0  0  0  0  0
    2.5369   -2.3538    0.0000 H   0  0  0  0  0  0  0  0  0  0  0  0
  1 28  1  0  0  0  0
  2 15  2  0  0  0  0
  3 21  1  0  0  0  0
  3 26  1  0  0  0  0
  4 22  2  0  0  0  0
  5 11  1  0  0  0  0
  5 12  1  0  0  0  0
  5 13  1  0  0  0  0
  9  6  1  1  0  0  0
  6 15  1  0  0  0  0
  6 39  1  0  0  0  0
  7 18  1  0  0  0  0
  7 22  1  0  0  0  0
  7 46  1  0  0  0  0
  8 24  1  0  0  0  0
  8 53  1  0  0  0  0
  8 54  1  0  0  0  0
  9 10  1  0  0  0  0
  9 11  1  0  0  0  0
  9 30  1  0  0  0  0
 10 12  1  0  0  0  0
 10 31  1  0  0  0  0
 10 32  1  0  0  0  0
 11 33  1  0  0  0  0
 11 34  1  0  0  0  0
 12 35  1  0  0  0  0
 12 36  1  0  0  0  0
 13 14  1  0  0  0  0
 13 37  1  0  0  0  0
 13 38  1  0  0  0  0
 14 16  2  0  0  0  0
 14 17  1  0  0  0  0
 15 18  1  0  0  0  0
 16 19  1  0  0  0  0
 16 42  1  0  0  0  0
 17 20  2  0  0  0  0
 17 43  1  0  0  0  0
 18 40  1  0  0  0  0
 18 41  1  0  0  0  0
 19 21  2  0  0  0  0
 19 44  1  0  0  0  0
 20 21  1  0  0  0  0
 20 45  1  0  0  0  0
 22 23  1  0  0  0  0
 23 24  2  0  0  0  0
 23 25  1  0  0  0  0
 24 27  1  0  0  0  0
 25 28  2  0  0  0  0
 25 47  1  0  0  0  0
 26 48  1  0  0  0  0
 26 49  1  0  0  0  0
 26 50  1  0  0  0  0
 27 29  2  0  0  0  0
 27 51  1  0  0  0  0
 28 29  1  0  0  0  0
 29 52  1  0  0  0  0
M  END
> <PUBCHEM_COMPOUND_CID>
508890
> <PUBCHEM_COMPOUND_CANONICALIZED>
1
> <PUBCHEM_CACTVS_COMPLEXITY>
556
> <PUBCHEM_CACTVS_HBOND_ACCEPTOR>
5
> <PUBCHEM_CACTVS_HBOND_DONOR>
3
> <PUBCHEM_CACTVS_ROTATABLE_BOND>
7
> <PUBCHEM_CACTVS_SUBSKEYS>
AAADceB7sAAAAgAAAAAAAAAAAAAAAWAAAAAwYAAAAAAAAAABQAAAHgAwAAAADCzDmAYyxoPABACIAiVSUACCCAAkIgAIiIGObMgMZjqE9buUMahk1hGI6ceY2AKOIAAAAAACAABAAAAAAAQAAAAAAAAAAA==
> <PUBCHEM_IUPAC_OPENEYE_NAME>
2-amino-5-iodo-N-[2-[[(3R)-1-[(4-methoxyphenyl)methyl]pyrrolidin-3-yl]amino]-2-oxo-ethyl]benzamide
> <PUBCHEM_IUPAC_CAS_NAME>
2-amino-5-iodo-N-[2-[[(3R)-1-[(4-methoxyphenyl)methyl]-3-pyrrolidinyl]amino]-2-oxoethyl]benzamide
> <PUBCHEM_IUPAC_NAME_MARKUP>
2-amino-5-iodo-<I>N</I>-[2-[[(3<I>R</I>)-1-[(4-methoxyphenyl)methyl]pyrrolidin-3-yl]amino]-2-oxoethyl]benzamide
> <PUBCHEM_IUPAC_NAME>
2-amino-5-iodo-N-[2-[[(3R)-1-[(4-methoxyphenyl)methyl]pyrrolidin-3-yl]amino]-2-oxoethyl]benzamide
> <PUBCHEM_IUPAC_SYSTEMATIC_NAME>
2-azanyl-5-iodanyl-N-[2-[[(3R)-1-[(4-methoxyphenyl)methyl]pyrrolidin-3-yl]amino]-2-oxidanylidene-ethyl]benzamide
> <PUBCHEM_IUPAC_TRADITIONAL_NAME>
2-amino-5-iodo-N-[2-keto-2-[[(3R)-1-p-anisylpyrrolidin-3-yl]amino]ethyl]benzamide
> <PUBCHEM_IUPAC_INCHI>
InChI=1S/C21H25IN4O3/c1-29-17-5-2-14(3-6-17)12-26-9-8-16(13-26)25-20(27)11-24-21(28)18-10-15(22)4-7-19(18)23/h2-7,10,16H,8-9,11-13,23H2,1H3,(H,24,28)(H,25,27)/t16-/m1/s1
> <PUBCHEM_IUPAC_INCHIKEY>
YZYWAPOPGQVOLX-MRXNPFEDSA-N
> <PUBCHEM_XLOGP3_AA>
2.8
> <PUBCHEM_EXACT_MASS>
508.09714
> <PUBCHEM_MOLECULAR_FORMULA>
C21H25IN4O3
> <PUBCHEM_MOLECULAR_WEIGHT>
508.4
> <PUBCHEM_OPENEYE_CAN_SMILES>
COC1=CC=C(C=C1)CN2CCC(C2)NC(=O)CNC(=O)C3=C(C=CC(=C3)I)N
> <PUBCHEM_OPENEYE_ISO_SMILES>
COC1=CC=C(C=C1)CN2CC[C@H](C2)NC(=O)CNC(=O)C3=C(C=CC(=C3)I)N
> <PUBCHEM_CACTVS_TPSA>
96.7
> <PUBCHEM_MONOISOTOPIC_WEIGHT>
508.09714
> <PUBCHEM_TOTAL_CHARGE>
0
> <PUBCHEM_HEAVY_ATOM_COUNT>
29
> <PUBCHEM_ATOM_DEF_STEREO_COUNT>
1
> <PUBCHEM_ATOM_UDEF_STEREO_COUNT>
0
> <PUBCHEM_BOND_DEF_STEREO_COUNT>
0
> <PUBCHEM_BOND_UDEF_STEREO_COUNT>
0
> <PUBCHEM_ISOTOPIC_ATOM_COUNT>
0
> <PUBCHEM_COMPONENT_COUNT>
1
> <PUBCHEM_CACTVS_TAUTO_COUNT>
-1
> <PUBCHEM_COORDINATE_TYPE>
1
5
255
> <PUBCHEM_BONDANNOTATIONS>
14  16  8
14  17  8
16  19  8
17  20  8
19  21  8
20  21  8
23  24  8
23  25  8
24  27  8
25  28  8
27  29  8
28  29  8
9  6  5
$$$$
