508824
  -OEChem-10302200282D
 64 66  0     1  0  0  0  0  0999 V2000
    2.1045   -1.7836    0.0000 O   0  0  0  0  0  0  0  0  0  0  0  0
    7.7987    0.0950    0.0000 O   0  0  0  0  0  0  0  0  0  0  0  0
   10.3967    2.5950    0.0000 O   0  0  0  0  0  0  0  0  0  0  0  0
   13.8608    1.5950    0.0000 O   0  0  0  0  0  0  0  0  0  0  0  0
   12.1288   -1.4050    0.0000 O   0  0  0  0  0  0  0  0  0  0  0  0
   13.8608   -0.4050    0.0000 O   0  0  0  0  0  0  0  0  0  0  0  0
    4.9839   -0.1074    0.0000 N   0  0  3  0  0  0  0  0  0  0  0  0
    6.9326    1.5950    0.0000 N   0  0  0  0  0  0  0  0  0  0  0  0
    2.0000   -0.7891    0.0000 N   0  0  0  0  0  0  0  0  0  0  0  0
    9.5307    1.0950    0.0000 N   0  0  0  0  0  0  0  0  0  0  0  0
   12.1288    2.5950    0.0000 N   0  0  0  0  0  0  0  0  0  0  0  0
    6.0666    1.0950    0.0000 C   0  0  1  0  0  0  0  0  0  0  0  0
    5.9621    0.1005    0.0000 C   0  0  0  0  0  0  0  0  0  0  0  0
    5.1531    1.5018    0.0000 C   0  0  0  0  0  0  0  0  0  0  0  0
    4.4839    0.7586    0.0000 C   0  0  0  0  0  0  0  0  0  0  0  0
    4.5772   -1.0209    0.0000 C   0  0  0  0  0  0  0  0  0  0  0  0
    3.5827   -1.1255    0.0000 C   0  0  0  0  0  0  0  0  0  0  0  0
    7.7987    1.0950    0.0000 C   0  0  0  0  0  0  0  0  0  0  0  0
    3.0827   -1.9915    0.0000 C   0  0  0  0  0  0  0  0  0  0  0  0
    2.9136   -0.3823    0.0000 C   0  0  0  0  0  0  0  0  0  0  0  0
    8.6647    1.5950    0.0000 C   0  0  0  0  0  0  0  0  0  0  0  0
    3.4894   -2.9050    0.0000 C   0  0  0  0  0  0  0  0  0  0  0  0
    3.1215    0.5958    0.0000 C   0  0  0  0  0  0  0  0  0  0  0  0
   10.3967    1.5950    0.0000 C   0  0  0  0  0  0  0  0  0  0  0  0
   11.2628    1.0950    0.0000 C   0  0  0  0  0  0  0  0  0  0  0  0
   12.1288    1.5950    0.0000 C   0  0  0  0  0  0  0  0  0  0  0  0
   11.2628    0.0950    0.0000 C   0  0  0  0  0  0  0  0  0  0  0  0
   12.9948    1.0950    0.0000 C   0  0  0  0  0  0  0  0  0  0  0  0
   12.1288   -0.4050    0.0000 C   0  0  0  0  0  0  0  0  0  0  0  0
   12.9948    0.0950    0.0000 C   0  0  0  0  0  0  0  0  0  0  0  0
   14.7269    1.0950    0.0000 C   0  0  0  0  0  0  0  0  0  0  0  0
   11.2628   -1.9050    0.0000 C   0  0  0  0  0  0  0  0  0  0  0  0
   13.8608   -1.4050    0.0000 C   0  0  0  0  0  0  0  0  0  0  0  0
    6.0342    1.7142    0.0000 H   0  0  0  0  0  0  0  0  0  0  0  0
    6.0269   -0.5161    0.0000 H   0  0  0  0  0  0  0  0  0  0  0  0
    6.5821    0.1005    0.0000 H   0  0  0  0  0  0  0  0  0  0  0  0
    5.4631    2.0387    0.0000 H   0  0  0  0  0  0  0  0  0  0  0  0
    4.6515    1.8662    0.0000 H   0  0  0  0  0  0  0  0  0  0  0  0
    4.0691    1.2194    0.0000 H   0  0  0  0  0  0  0  0  0  0  0  0
    3.9823    0.3942    0.0000 H   0  0  0  0  0  0  0  0  0  0  0  0
    4.5340   -1.6394    0.0000 H   0  0  0  0  0  0  0  0  0  0  0  0
    5.1788   -1.1709    0.0000 H   0  0  0  0  0  0  0  0  0  0  0  0
    6.9326    2.2150    0.0000 H   0  0  0  0  0  0  0  0  0  0  0  0
    9.0632    2.0700    0.0000 H   0  0  0  0  0  0  0  0  0  0  0  0
    8.2662    2.0700    0.0000 H   0  0  0  0  0  0  0  0  0  0  0  0
    2.9230   -3.1572    0.0000 H   0  0  0  0  0  0  0  0  0  0  0  0
    3.7416   -3.4714    0.0000 H   0  0  0  0  0  0  0  0  0  0  0  0
    4.0558   -2.6529    0.0000 H   0  0  0  0  0  0  0  0  0  0  0  0
    3.7279    0.4669    0.0000 H   0  0  0  0  0  0  0  0  0  0  0  0
    3.2504    1.2023    0.0000 H   0  0  0  0  0  0  0  0  0  0  0  0
    2.5150    0.7247    0.0000 H   0  0  0  0  0  0  0  0  0  0  0  0
    9.5307    0.4750    0.0000 H   0  0  0  0  0  0  0  0  0  0  0  0
   10.7258   -0.2150    0.0000 H   0  0  0  0  0  0  0  0  0  0  0  0
   12.6657    2.9050    0.0000 H   0  0  0  0  0  0  0  0  0  0  0  0
   11.5919    2.9050    0.0000 H   0  0  0  0  0  0  0  0  0  0  0  0
   14.4169    0.5581    0.0000 H   0  0  0  0  0  0  0  0  0  0  0  0
   15.2638    0.7850    0.0000 H   0  0  0  0  0  0  0  0  0  0  0  0
   15.0369    1.6320    0.0000 H   0  0  0  0  0  0  0  0  0  0  0  0
   10.9528   -1.3680    0.0000 H   0  0  0  0  0  0  0  0  0  0  0  0
   10.7258   -2.2150    0.0000 H   0  0  0  0  0  0  0  0  0  0  0  0
   11.5728   -2.4419    0.0000 H   0  0  0  0  0  0  0  0  0  0  0  0
   13.2408   -1.4050    0.0000 H   0  0  0  0  0  0  0  0  0  0  0  0
   13.8608   -2.0250    0.0000 H   0  0  0  0  0  0  0  0  0  0  0  0
   14.4808   -1.4050    0.0000 H   0  0  0  0  0  0  0  0  0  0  0  0
  1  9  1  0  0  0  0
  1 19  1  0  0  0  0
  2 18  2  0  0  0  0
  3 24  2  0  0  0  0
  4 28  1  0  0  0  0
  4 31  1  0  0  0  0
  5 29  1  0  0  0  0
  5 32  1  0  0  0  0
  6 30  1  0  0  0  0
  6 33  1  0  0  0  0
  7 13  1  0  0  0  0
  7 15  1  0  0  0  0
  7 16  1  0  0  0  0
 12  8  1  1  0  0  0
  8 18  1  0  0  0  0
  8 43  1  0  0  0  0
  9 20  2  0  0  0  0
 10 21  1  0  0  0  0
 10 24  1  0  0  0  0
 10 52  1  0  0  0  0
 11 26  1  0  0  0  0
 11 54  1  0  0  0  0
 11 55  1  0  0  0  0
 12 13  1  0  0  0  0
 12 14  1  0  0  0  0
 12 34  1  0  0  0  0
 13 35  1  0  0  0  0
 13 36  1  0  0  0  0
 14 15  1  0  0  0  0
 14 37  1  0  0  0  0
 14 38  1  0  0  0  0
 15 39  1  0  0  0  0
 15 40  1  0  0  0  0
 16 17  1  0  0  0  0
 16 41  1  0  0  0  0
 16 42  1  0  0  0  0
 17 19  2  0  0  0  0
 17 20  1  0  0  0  0
 18 21  1  0  0  0  0
 19 22  1  0  0  0  0
 20 23  1  0  0  0  0
 21 44  1  0  0  0  0
 21 45  1  0  0  0  0
 22 46  1  0  0  0  0
 22 47  1  0  0  0  0
 22 48  1  0  0  0  0
 23 49  1  0  0  0  0
 23 50  1  0  0  0  0
 23 51  1  0  0  0  0
 24 25  1  0  0  0  0
 25 26  1  0  0  0  0
 25 27  2  0  0  0  0
 26 28  2  0  0  0  0
 27 29  1  0  0  0  0
 27 53  1  0  0  0  0
 28 30  1  0  0  0  0
 29 30  2  0  0  0  0
 31 56  1  0  0  0  0
 31 57  1  0  0  0  0
 31 58  1  0  0  0  0
 32 59  1  0  0  0  0
 32 60  1  0  0  0  0
 32 61  1  0  0  0  0
 33 62  1  0  0  0  0
 33 63  1  0  0  0  0
 33 64  1  0  0  0  0
M  END
> <PUBCHEM_COMPOUND_CID>
508824
> <PUBCHEM_COMPOUND_CANONICALIZED>
1
> <PUBCHEM_CACTVS_COMPLEXITY>
669
> <PUBCHEM_CACTVS_HBOND_ACCEPTOR>
9
> <PUBCHEM_CACTVS_HBOND_DONOR>
3
> <PUBCHEM_CACTVS_ROTATABLE_BOND>
9
> <PUBCHEM_CACTVS_SUBSKEYS>
AAADceB7uAAAAAAAAAAAAAAAAAAAAWLAAAAwAAAAAAAAAAABwAAAHgAUAAAADCzBngYyxpPQBACpA6VyUgCCCAAkIAAgmKG/zNoPZzqE9LuVMapn1h2K6ce6/B/OIEABCgACUABAgAIUAASgAAAAAAAAAA==
> <PUBCHEM_IUPAC_OPENEYE_NAME>
2-amino-N-[2-[[(3R)-1-[(3,5-dimethylisoxazol-4-yl)methyl]pyrrolidin-3-yl]amino]-2-oxo-ethyl]-3,4,5-trimethoxy-benzamide
> <PUBCHEM_IUPAC_CAS_NAME>
2-amino-N-[2-[[(3R)-1-[(3,5-dimethyl-4-isoxazolyl)methyl]-3-pyrrolidinyl]amino]-2-oxoethyl]-3,4,5-trimethoxybenzamide
> <PUBCHEM_IUPAC_NAME_MARKUP>
2-amino-<I>N</I>-[2-[[(3<I>R</I>)-1-[(3,5-dimethyl-1,2-oxazol-4-yl)methyl]pyrrolidin-3-yl]amino]-2-oxoethyl]-3,4,5-trimethoxybenzamide
> <PUBCHEM_IUPAC_NAME>
2-amino-N-[2-[[(3R)-1-[(3,5-dimethyl-1,2-oxazol-4-yl)methyl]pyrrolidin-3-yl]amino]-2-oxoethyl]-3,4,5-trimethoxybenzamide
> <PUBCHEM_IUPAC_SYSTEMATIC_NAME>
2-azanyl-N-[2-[[(3R)-1-[(3,5-dimethyl-1,2-oxazol-4-yl)methyl]pyrrolidin-3-yl]amino]-2-oxidanylidene-ethyl]-3,4,5-trimethoxy-benzamide
> <PUBCHEM_IUPAC_TRADITIONAL_NAME>
2-amino-N-[2-[[(3R)-1-[(3,5-dimethylisoxazol-4-yl)methyl]pyrrolidin-3-yl]amino]-2-keto-ethyl]-3,4,5-trimethoxy-benzamide
> <PUBCHEM_IUPAC_INCHI>
InChI=1S/C22H31N5O6/c1-12-16(13(2)33-26-12)11-27-7-6-14(10-27)25-18(28)9-24-22(29)15-8-17(30-3)20(31-4)21(32-5)19(15)23/h8,14H,6-7,9-11,23H2,1-5H3,(H,24,29)(H,25,28)/t14-/m1/s1
> <PUBCHEM_IUPAC_INCHIKEY>
NNSWNTASUQSRFP-CQSZACIVSA-N
> <PUBCHEM_XLOGP3_AA>
1.3
> <PUBCHEM_EXACT_MASS>
461.22743373
> <PUBCHEM_MOLECULAR_FORMULA>
C22H31N5O6
> <PUBCHEM_MOLECULAR_WEIGHT>
461.5
> <PUBCHEM_OPENEYE_CAN_SMILES>
CC1=C(C(=NO1)C)CN2CCC(C2)NC(=O)CNC(=O)C3=CC(=C(C(=C3N)OC)OC)OC
> <PUBCHEM_OPENEYE_ISO_SMILES>
CC1=C(C(=NO1)C)CN2CC[C@H](C2)NC(=O)CNC(=O)C3=CC(=C(C(=C3N)OC)OC)OC
> <PUBCHEM_CACTVS_TPSA>
141
> <PUBCHEM_MONOISOTOPIC_WEIGHT>
461.22743373
> <PUBCHEM_TOTAL_CHARGE>
0
> <PUBCHEM_HEAVY_ATOM_COUNT>
33
> <PUBCHEM_ATOM_DEF_STEREO_COUNT>
1
> <PUBCHEM_ATOM_UDEF_STEREO_COUNT>
0
> <PUBCHEM_BOND_DEF_STEREO_COUNT>
0
> <PUBCHEM_BOND_UDEF_STEREO_COUNT>
0
> <PUBCHEM_ISOTOPIC_ATOM_COUNT>
0
> <PUBCHEM_COMPONENT_COUNT>
1
> <PUBCHEM_CACTVS_TAUTO_COUNT>
-1
> <PUBCHEM_COORDINATE_TYPE>
1
5
255
> <PUBCHEM_BONDANNOTATIONS>
1  19  8
1  9  8
17  19  8
17  20  8
25  26  8
25  27  8
26  28  8
27  29  8
28  30  8
29  30  8
12  8  5
9  20  8
$$$$
