508888
  -OEChem-10302200282D
 67 70  0     1  0  0  0  0  0999 V2000
    6.3654    5.0010    0.0000 S   0  0  0  0  0  0  0  0  0  0  0  0
    4.6333   -0.9990    0.0000 O   0  0  0  0  0  0  0  0  0  0  0  0
    3.7673    2.5010    0.0000 O   0  0  0  0  0  0  0  0  0  0  0  0
    7.3654    5.0010    0.0000 O   0  0  0  0  0  0  0  0  0  0  0  0
    5.3654    5.0010    0.0000 O   0  0  0  0  0  0  0  0  0  0  0  0
    3.4013   -3.5378    0.0000 N   0  0  3  0  0  0  0  0  0  0  0  0
    2.9013   -0.9990    0.0000 N   0  0  0  0  0  0  0  0  0  0  0  0
    4.6333    1.0010    0.0000 N   0  0  0  0  0  0  0  0  0  0  0  0
    2.9013   -1.9990    0.0000 C   0  0  1  0  0  0  0  0  0  0  0  0
    3.7103   -2.5868    0.0000 C   0  0  0  0  0  0  0  0  0  0  0  0
    2.0922   -2.5868    0.0000 C   0  0  0  0  0  0  0  0  0  0  0  0
    2.4013   -3.5378    0.0000 C   0  0  0  0  0  0  0  0  0  0  0  0
    3.9890   -4.3468    0.0000 C   0  0  0  0  0  0  0  0  0  0  0  0
    3.5823   -5.2604    0.0000 C   0  0  0  0  0  0  0  0  0  0  0  0
    3.7673   -0.4990    0.0000 C   0  0  0  0  0  0  0  0  0  0  0  0
    2.5878   -5.3649    0.0000 C   0  0  0  0  0  0  0  0  0  0  0  0
    4.1701   -6.0694    0.0000 C   0  0  0  0  0  0  0  0  0  0  0  0
    3.7673    0.5010    0.0000 C   0  0  0  0  0  0  0  0  0  0  0  0
    2.1810   -6.2785    0.0000 C   0  0  0  0  0  0  0  0  0  0  0  0
    3.7634   -6.9830    0.0000 C   0  0  0  0  0  0  0  0  0  0  0  0
    2.0000   -4.5559    0.0000 C   0  0  0  0  0  0  0  0  0  0  0  0
    2.7688   -7.0875    0.0000 C   0  0  0  0  0  0  0  0  0  0  0  0
    2.3621   -8.0010    0.0000 C   0  0  0  0  0  0  0  0  0  0  0  0
    4.6333    2.0010    0.0000 C   0  0  0  0  0  0  0  0  0  0  0  0
    5.4993    2.5010    0.0000 C   0  0  0  0  0  0  0  0  0  0  0  0
    6.3654    4.0010    0.0000 C   0  0  0  0  0  0  0  0  0  0  0  0
    5.4993    3.5010    0.0000 C   0  0  0  0  0  0  0  0  0  0  0  0
    6.3654    2.0010    0.0000 C   0  0  0  0  0  0  0  0  0  0  0  0
    7.2314    3.5010    0.0000 C   0  0  0  0  0  0  0  0  0  0  0  0
    6.3654    6.0010    0.0000 C   0  0  0  0  0  0  0  0  0  0  0  0
    7.2314    2.5010    0.0000 C   0  0  0  0  0  0  0  0  0  0  0  0
    5.4993    6.5010    0.0000 C   0  0  0  0  0  0  0  0  0  0  0  0
    7.2314    6.5010    0.0000 C   0  0  0  0  0  0  0  0  0  0  0  0
    5.4993    7.5010    0.0000 C   0  0  0  0  0  0  0  0  0  0  0  0
    7.2314    7.5010    0.0000 C   0  0  0  0  0  0  0  0  0  0  0  0
    6.3654    8.0010    0.0000 C   0  0  0  0  0  0  0  0  0  0  0  0
    2.3488   -1.7175    0.0000 H   0  0  0  0  0  0  0  0  0  0  0  0
    4.2767   -2.8389    0.0000 H   0  0  0  0  0  0  0  0  0  0  0  0
    4.0203   -2.0498    0.0000 H   0  0  0  0  0  0  0  0  0  0  0  0
    1.7822   -2.0498    0.0000 H   0  0  0  0  0  0  0  0  0  0  0  0
    1.5258   -2.8389    0.0000 H   0  0  0  0  0  0  0  0  0  0  0  0
    1.7948   -3.6667    0.0000 H   0  0  0  0  0  0  0  0  0  0  0  0
    2.4661   -4.1544    0.0000 H   0  0  0  0  0  0  0  0  0  0  0  0
    4.5030   -4.6935    0.0000 H   0  0  0  0  0  0  0  0  0  0  0  0
    4.4197   -3.9008    0.0000 H   0  0  0  0  0  0  0  0  0  0  0  0
    2.3643   -0.6890    0.0000 H   0  0  0  0  0  0  0  0  0  0  0  0
    4.7867   -6.0046    0.0000 H   0  0  0  0  0  0  0  0  0  0  0  0
    3.5552    1.0836    0.0000 H   0  0  0  0  0  0  0  0  0  0  0  0
    3.1567    0.3934    0.0000 H   0  0  0  0  0  0  0  0  0  0  0  0
    1.5644   -6.3433    0.0000 H   0  0  0  0  0  0  0  0  0  0  0  0
    4.1278   -7.4845    0.0000 H   0  0  0  0  0  0  0  0  0  0  0  0
    2.5016   -4.1915    0.0000 H   0  0  0  0  0  0  0  0  0  0  0  0
    1.6356   -4.0543    0.0000 H   0  0  0  0  0  0  0  0  0  0  0  0
    1.4984   -4.9203    0.0000 H   0  0  0  0  0  0  0  0  0  0  0  0
    5.1702    0.6910    0.0000 H   0  0  0  0  0  0  0  0  0  0  0  0
    1.7957   -7.7488    0.0000 H   0  0  0  0  0  0  0  0  0  0  0  0
    2.1099   -8.5674    0.0000 H   0  0  0  0  0  0  0  0  0  0  0  0
    2.9285   -8.2532    0.0000 H   0  0  0  0  0  0  0  0  0  0  0  0
    4.9624    3.8110    0.0000 H   0  0  0  0  0  0  0  0  0  0  0  0
    6.3654    1.3810    0.0000 H   0  0  0  0  0  0  0  0  0  0  0  0
    7.7683    3.8110    0.0000 H   0  0  0  0  0  0  0  0  0  0  0  0
    7.7683    2.1910    0.0000 H   0  0  0  0  0  0  0  0  0  0  0  0
    4.9624    6.1910    0.0000 H   0  0  0  0  0  0  0  0  0  0  0  0
    7.7683    6.1910    0.0000 H   0  0  0  0  0  0  0  0  0  0  0  0
    4.9624    7.8110    0.0000 H   0  0  0  0  0  0  0  0  0  0  0  0
    7.7683    7.8110    0.0000 H   0  0  0  0  0  0  0  0  0  0  0  0
    6.3654    8.6210    0.0000 H   0  0  0  0  0  0  0  0  0  0  0  0
  1  4  2  0  0  0  0
  1  5  2  0  0  0  0
  1 26  1  0  0  0  0
  1 30  1  0  0  0  0
  2 15  2  0  0  0  0
  3 24  2  0  0  0  0
  6 10  1  0  0  0  0
  6 12  1  0  0  0  0
  6 13  1  0  0  0  0
  9  7  1  1  0  0  0
  7 15  1  0  0  0  0
  7 46  1  0  0  0  0
  8 18  1  0  0  0  0
  8 24  1  0  0  0  0
  8 55  1  0  0  0  0
  9 10  1  0  0  0  0
  9 11  1  0  0  0  0
  9 37  1  0  0  0  0
 10 38  1  0  0  0  0
 10 39  1  0  0  0  0
 11 12  1  0  0  0  0
 11 40  1  0  0  0  0
 11 41  1  0  0  0  0
 12 42  1  0  0  0  0
 12 43  1  0  0  0  0
 13 14  1  0  0  0  0
 13 44  1  0  0  0  0
 13 45  1  0  0  0  0
 14 16  2  0  0  0  0
 14 17  1  0  0  0  0
 15 18  1  0  0  0  0
 16 19  1  0  0  0  0
 16 21  1  0  0  0  0
 17 20  2  0  0  0  0
 17 47  1  0  0  0  0
 18 48  1  0  0  0  0
 18 49  1  0  0  0  0
 19 22  2  0  0  0  0
 19 50  1  0  0  0  0
 20 22  1  0  0  0  0
 20 51  1  0  0  0  0
 21 52  1  0  0  0  0
 21 53  1  0  0  0  0
 21 54  1  0  0  0  0
 22 23  1  0  0  0  0
 23 56  1  0  0  0  0
 23 57  1  0  0  0  0
 23 58  1  0  0  0  0
 24 25  1  0  0  0  0
 25 27  2  0  0  0  0
 25 28  1  0  0  0  0
 26 27  1  0  0  0  0
 26 29  2  0  0  0  0
 27 59  1  0  0  0  0
 28 31  2  0  0  0  0
 28 60  1  0  0  0  0
 29 31  1  0  0  0  0
 29 61  1  0  0  0  0
 30 32  2  0  0  0  0
 30 33  1  0  0  0  0
 31 62  1  0  0  0  0
 32 34  1  0  0  0  0
 32 63  1  0  0  0  0
 33 35  2  0  0  0  0
 33 64  1  0  0  0  0
 34 36  2  0  0  0  0
 34 65  1  0  0  0  0
 35 36  1  0  0  0  0
 35 66  1  0  0  0  0
 36 67  1  0  0  0  0
M  END
> <PUBCHEM_COMPOUND_CID>
508888
> <PUBCHEM_COMPOUND_CANONICALIZED>
1
> <PUBCHEM_CACTVS_COMPLEXITY>
851
> <PUBCHEM_CACTVS_HBOND_ACCEPTOR>
5
> <PUBCHEM_CACTVS_HBOND_DONOR>
2
> <PUBCHEM_CACTVS_ROTATABLE_BOND>
8
> <PUBCHEM_CACTVS_SUBSKEYS>
AAADceB7OABAAAAAAAAAAAAAAAAAAWAAAAAwYMAAAAAAAAABUAAAHgQQAAAADCjB2AQyAYPAAAqIAiFSEHDCAAAkCBAIiJmIBMgIYDKg1TGUIQhglgCoiYcYiMCOwAACgAAQAACAAAUAACAAAAAAAAAAAA==
> <PUBCHEM_IUPAC_OPENEYE_NAME>
3-(benzenesulfonyl)-N-[2-[[(3R)-1-[(2,4-dimethylphenyl)methyl]pyrrolidin-3-yl]amino]-2-oxo-ethyl]benzamide
> <PUBCHEM_IUPAC_CAS_NAME>
3-(benzenesulfonyl)-N-[2-[[(3R)-1-[(2,4-dimethylphenyl)methyl]-3-pyrrolidinyl]amino]-2-oxoethyl]benzamide
> <PUBCHEM_IUPAC_NAME_MARKUP>
3-(benzenesulfonyl)-<I>N</I>-[2-[[(3<I>R</I>)-1-[(2,4-dimethylphenyl)methyl]pyrrolidin-3-yl]amino]-2-oxoethyl]benzamide
> <PUBCHEM_IUPAC_NAME>
3-(benzenesulfonyl)-N-[2-[[(3R)-1-[(2,4-dimethylphenyl)methyl]pyrrolidin-3-yl]amino]-2-oxoethyl]benzamide
> <PUBCHEM_IUPAC_SYSTEMATIC_NAME>
N-[2-[[(3R)-1-[(2,4-dimethylphenyl)methyl]pyrrolidin-3-yl]amino]-2-oxidanylidene-ethyl]-3-(phenylsulfonyl)benzamide
> <PUBCHEM_IUPAC_TRADITIONAL_NAME>
3-besyl-N-[2-[[(3R)-1-(2,4-dimethylbenzyl)pyrrolidin-3-yl]amino]-2-keto-ethyl]benzamide
> <PUBCHEM_IUPAC_INCHI>
InChI=1S/C28H31N3O4S/c1-20-11-12-23(21(2)15-20)18-31-14-13-24(19-31)30-27(32)17-29-28(33)22-7-6-10-26(16-22)36(34,35)25-8-4-3-5-9-25/h3-12,15-16,24H,13-14,17-19H2,1-2H3,(H,29,33)(H,30,32)/t24-/m1/s1
> <PUBCHEM_IUPAC_INCHIKEY>
PWMNILFFAIVLGY-XMMPIXPASA-N
> <PUBCHEM_XLOGP3_AA>
3.8
> <PUBCHEM_EXACT_MASS>
505.20352765
> <PUBCHEM_MOLECULAR_FORMULA>
C28H31N3O4S
> <PUBCHEM_MOLECULAR_WEIGHT>
505.6
> <PUBCHEM_OPENEYE_CAN_SMILES>
CC1=CC(=C(C=C1)CN2CCC(C2)NC(=O)CNC(=O)C3=CC(=CC=C3)S(=O)(=O)C4=CC=CC=C4)C
> <PUBCHEM_OPENEYE_ISO_SMILES>
CC1=CC(=C(C=C1)CN2CC[C@H](C2)NC(=O)CNC(=O)C3=CC(=CC=C3)S(=O)(=O)C4=CC=CC=C4)C
> <PUBCHEM_CACTVS_TPSA>
104
> <PUBCHEM_MONOISOTOPIC_WEIGHT>
505.20352765
> <PUBCHEM_TOTAL_CHARGE>
0
> <PUBCHEM_HEAVY_ATOM_COUNT>
36
> <PUBCHEM_ATOM_DEF_STEREO_COUNT>
1
> <PUBCHEM_ATOM_UDEF_STEREO_COUNT>
0
> <PUBCHEM_BOND_DEF_STEREO_COUNT>
0
> <PUBCHEM_BOND_UDEF_STEREO_COUNT>
0
> <PUBCHEM_ISOTOPIC_ATOM_COUNT>
0
> <PUBCHEM_COMPONENT_COUNT>
1
> <PUBCHEM_CACTVS_TAUTO_COUNT>
-1
> <PUBCHEM_COORDINATE_TYPE>
1
5
255
> <PUBCHEM_BONDANNOTATIONS>
14  16  8
14  17  8
16  19  8
17  20  8
19  22  8
20  22  8
25  27  8
25  28  8
26  27  8
26  29  8
28  31  8
29  31  8
30  32  8
30  33  8
32  34  8
33  35  8
34  36  8
35  36  8
9  7  5
$$$$
