508830
  -OEChem-10302200282D
 53 55  0     1  0  0  0  0  0999 V2000
    6.0010   -4.8693    0.0000 Cl  0  0  0  0  0  0  0  0  0  0  0  0
    6.8671   -0.3693    0.0000 O   0  0  0  0  0  0  0  0  0  0  0  0
    3.4030   -1.3693    0.0000 O   0  0  0  0  0  0  0  0  0  0  0  0
    7.9497    2.8331    0.0000 N   0  0  3  0  0  0  0  0  0  0  0  0
    6.0010    1.1307    0.0000 N   0  0  0  0  0  0  0  0  0  0  0  0
    5.1350   -1.3693    0.0000 N   0  0  0  0  0  0  0  0  0  0  0  0
    2.5369   -2.8693    0.0000 N   0  0  0  0  0  0  0  0  0  0  0  0
    6.8671    1.6307    0.0000 C   0  0  2  0  0  0  0  0  0  0  0  0
    7.7806    1.2240    0.0000 C   0  0  0  0  0  0  0  0  0  0  0  0
    6.9716    2.6252    0.0000 C   0  0  0  0  0  0  0  0  0  0  0  0
    8.4497    1.9671    0.0000 C   0  0  0  0  0  0  0  0  0  0  0  0
    8.3565    3.7467    0.0000 C   0  0  0  0  0  0  0  0  0  0  0  0
    9.3510    3.8512    0.0000 C   0  0  0  0  0  0  0  0  0  0  0  0
    6.0010    0.1307    0.0000 C   0  0  0  0  0  0  0  0  0  0  0  0
    9.9388    3.0422    0.0000 C   0  0  0  0  0  0  0  0  0  0  0  0
    9.7577    4.7648    0.0000 C   0  0  0  0  0  0  0  0  0  0  0  0
    5.1350   -0.3693    0.0000 C   0  0  0  0  0  0  0  0  0  0  0  0
   10.9333    3.1467    0.0000 C   0  0  0  0  0  0  0  0  0  0  0  0
   10.7523    4.8693    0.0000 C   0  0  0  0  0  0  0  0  0  0  0  0
   11.3400    4.0603    0.0000 C   0  0  0  0  0  0  0  0  0  0  0  0
   12.3346    4.1648    0.0000 C   0  0  0  0  0  0  0  0  0  0  0  0
    4.2690   -1.8693    0.0000 C   0  0  0  0  0  0  0  0  0  0  0  0
    4.2690   -2.8693    0.0000 C   0  0  0  0  0  0  0  0  0  0  0  0
    3.4030   -3.3693    0.0000 C   0  0  0  0  0  0  0  0  0  0  0  0
    5.1350   -3.3693    0.0000 C   0  0  0  0  0  0  0  0  0  0  0  0
    3.4030   -4.3693    0.0000 C   0  0  0  0  0  0  0  0  0  0  0  0
    5.1350   -4.3693    0.0000 C   0  0  0  0  0  0  0  0  0  0  0  0
    4.2690   -4.8693    0.0000 C   0  0  0  0  0  0  0  0  0  0  0  0
    6.3471    1.9684    0.0000 H   0  0  0  0  0  0  0  0  0  0  0  0
    7.4706    0.6870    0.0000 H   0  0  0  0  0  0  0  0  0  0  0  0
    8.2822    0.8595    0.0000 H   0  0  0  0  0  0  0  0  0  0  0  0
    6.9068    3.2418    0.0000 H   0  0  0  0  0  0  0  0  0  0  0  0
    6.3516    2.6252    0.0000 H   0  0  0  0  0  0  0  0  0  0  0  0
    8.8646    1.5064    0.0000 H   0  0  0  0  0  0  0  0  0  0  0  0
    8.9513    2.3315    0.0000 H   0  0  0  0  0  0  0  0  0  0  0  0
    8.3997    4.3652    0.0000 H   0  0  0  0  0  0  0  0  0  0  0  0
    7.7549    3.8967    0.0000 H   0  0  0  0  0  0  0  0  0  0  0  0
    5.4641    1.4407    0.0000 H   0  0  0  0  0  0  0  0  0  0  0  0
    9.6866    2.4758    0.0000 H   0  0  0  0  0  0  0  0  0  0  0  0
    9.3933    5.2664    0.0000 H   0  0  0  0  0  0  0  0  0  0  0  0
    4.9230    0.2133    0.0000 H   0  0  0  0  0  0  0  0  0  0  0  0
    4.5244   -0.4770    0.0000 H   0  0  0  0  0  0  0  0  0  0  0  0
   11.2977    2.6451    0.0000 H   0  0  0  0  0  0  0  0  0  0  0  0
   11.0044    5.4357    0.0000 H   0  0  0  0  0  0  0  0  0  0  0  0
    5.6720   -1.6793    0.0000 H   0  0  0  0  0  0  0  0  0  0  0  0
   12.3994    3.5482    0.0000 H   0  0  0  0  0  0  0  0  0  0  0  0
   12.9512    4.2296    0.0000 H   0  0  0  0  0  0  0  0  0  0  0  0
   12.2698    4.7814    0.0000 H   0  0  0  0  0  0  0  0  0  0  0  0
    5.6720   -3.0593    0.0000 H   0  0  0  0  0  0  0  0  0  0  0  0
    2.8660   -4.6793    0.0000 H   0  0  0  0  0  0  0  0  0  0  0  0
    4.2690   -5.4893    0.0000 H   0  0  0  0  0  0  0  0  0  0  0  0
    2.0000   -3.1793    0.0000 H   0  0  0  0  0  0  0  0  0  0  0  0
    2.5369   -2.2493    0.0000 H   0  0  0  0  0  0  0  0  0  0  0  0
  1 27  1  0  0  0  0
  2 14  2  0  0  0  0
  3 22  2  0  0  0  0
  4 10  1  0  0  0  0
  4 11  1  0  0  0  0
  4 12  1  0  0  0  0
  8  5  1  1  0  0  0
  5 14  1  0  0  0  0
  5 38  1  0  0  0  0
  6 17  1  0  0  0  0
  6 22  1  0  0  0  0
  6 45  1  0  0  0  0
  7 24  1  0  0  0  0
  7 52  1  0  0  0  0
  7 53  1  0  0  0  0
  8  9  1  0  0  0  0
  8 10  1  0  0  0  0
  8 29  1  0  0  0  0
  9 11  1  0  0  0  0
  9 30  1  0  0  0  0
  9 31  1  0  0  0  0
 10 32  1  0  0  0  0
 10 33  1  0  0  0  0
 11 34  1  0  0  0  0
 11 35  1  0  0  0  0
 12 13  1  0  0  0  0
 12 36  1  0  0  0  0
 12 37  1  0  0  0  0
 13 15  2  0  0  0  0
 13 16  1  0  0  0  0
 14 17  1  0  0  0  0
 15 18  1  0  0  0  0
 15 39  1  0  0  0  0
 16 19  2  0  0  0  0
 16 40  1  0  0  0  0
 17 41  1  0  0  0  0
 17 42  1  0  0  0  0
 18 20  2  0  0  0  0
 18 43  1  0  0  0  0
 19 20  1  0  0  0  0
 19 44  1  0  0  0  0
 20 21  1  0  0  0  0
 21 46  1  0  0  0  0
 21 47  1  0  0  0  0
 21 48  1  0  0  0  0
 22 23  1  0  0  0  0
 23 24  2  0  0  0  0
 23 25  1  0  0  0  0
 24 26  1  0  0  0  0
 25 27  2  0  0  0  0
 25 49  1  0  0  0  0
 26 28  2  0  0  0  0
 26 50  1  0  0  0  0
 27 28  1  0  0  0  0
 28 51  1  0  0  0  0
M  END
> <PUBCHEM_COMPOUND_CID>
508830
> <PUBCHEM_COMPOUND_CANONICALIZED>
1
> <PUBCHEM_CACTVS_COMPLEXITY>
539
> <PUBCHEM_CACTVS_HBOND_ACCEPTOR>
4
> <PUBCHEM_CACTVS_HBOND_DONOR>
3
> <PUBCHEM_CACTVS_ROTATABLE_BOND>
6
> <PUBCHEM_CACTVS_SUBSKEYS>
AAADceB7sAAEAAAAAAAAAAAAAAAAAWAAAAAwYAAAAAAAAAABQAAAHgIQAAAADCrBmCQywIPAAACIAiVSUACCAAAkBwAIiIGIZsgIYDqB17GUIYhglgCIyccYiACOQABAIAACAACAAIBAAAQAAAAAAAAAAA==
> <PUBCHEM_IUPAC_OPENEYE_NAME>
2-amino-5-chloro-N-[2-oxo-2-[[(3R)-1-(p-tolylmethyl)pyrrolidin-3-yl]amino]ethyl]benzamide
> <PUBCHEM_IUPAC_CAS_NAME>
2-amino-5-chloro-N-[2-[[(3R)-1-[(4-methylphenyl)methyl]-3-pyrrolidinyl]amino]-2-oxoethyl]benzamide
> <PUBCHEM_IUPAC_NAME_MARKUP>
2-amino-5-chloro-<I>N</I>-[2-[[(3<I>R</I>)-1-[(4-methylphenyl)methyl]pyrrolidin-3-yl]amino]-2-oxoethyl]benzamide
> <PUBCHEM_IUPAC_NAME>
2-amino-5-chloro-N-[2-[[(3R)-1-[(4-methylphenyl)methyl]pyrrolidin-3-yl]amino]-2-oxoethyl]benzamide
> <PUBCHEM_IUPAC_SYSTEMATIC_NAME>
2-azanyl-5-chloranyl-N-[2-[[(3R)-1-[(4-methylphenyl)methyl]pyrrolidin-3-yl]amino]-2-oxidanylidene-ethyl]benzamide
> <PUBCHEM_IUPAC_TRADITIONAL_NAME>
2-amino-5-chloro-N-[2-keto-2-[[(3R)-1-(4-methylbenzyl)pyrrolidin-3-yl]amino]ethyl]benzamide
> <PUBCHEM_IUPAC_INCHI>
InChI=1S/C21H25ClN4O2/c1-14-2-4-15(5-3-14)12-26-9-8-17(13-26)25-20(27)11-24-21(28)18-10-16(22)6-7-19(18)23/h2-7,10,17H,8-9,11-13,23H2,1H3,(H,24,28)(H,25,27)/t17-/m1/s1
> <PUBCHEM_IUPAC_INCHIKEY>
LWEVPARHWBPWNT-QGZVFWFLSA-N
> <PUBCHEM_XLOGP3_AA>
3.1
> <PUBCHEM_EXACT_MASS>
400.1666037
> <PUBCHEM_MOLECULAR_FORMULA>
C21H25ClN4O2
> <PUBCHEM_MOLECULAR_WEIGHT>
400.9
> <PUBCHEM_OPENEYE_CAN_SMILES>
CC1=CC=C(C=C1)CN2CCC(C2)NC(=O)CNC(=O)C3=C(C=CC(=C3)Cl)N
> <PUBCHEM_OPENEYE_ISO_SMILES>
CC1=CC=C(C=C1)CN2CC[C@H](C2)NC(=O)CNC(=O)C3=C(C=CC(=C3)Cl)N
> <PUBCHEM_CACTVS_TPSA>
87.5
> <PUBCHEM_MONOISOTOPIC_WEIGHT>
400.1666037
> <PUBCHEM_TOTAL_CHARGE>
0
> <PUBCHEM_HEAVY_ATOM_COUNT>
28
> <PUBCHEM_ATOM_DEF_STEREO_COUNT>
1
> <PUBCHEM_ATOM_UDEF_STEREO_COUNT>
0
> <PUBCHEM_BOND_DEF_STEREO_COUNT>
0
> <PUBCHEM_BOND_UDEF_STEREO_COUNT>
0
> <PUBCHEM_ISOTOPIC_ATOM_COUNT>
0
> <PUBCHEM_COMPONENT_COUNT>
1
> <PUBCHEM_CACTVS_TAUTO_COUNT>
-1
> <PUBCHEM_COORDINATE_TYPE>
1
5
255
> <PUBCHEM_BONDANNOTATIONS>
13  15  8
13  16  8
15  18  8
16  19  8
18  20  8
19  20  8
23  24  8
23  25  8
24  26  8
25  27  8
26  28  8
27  28  8
8  5  5
$$$$
