508884
  -OEChem-10302200282D
 60 63  0     1  0  0  0  0  0999 V2000
    8.7825    0.1261    0.0000 O   0  0  0  0  0  0  0  0  0  0  0  0
   15.9510    2.3852    0.0000 O   0  0  0  0  0  0  0  0  0  0  0  0
    4.2111   -0.3694    0.0000 O   0  0  0  0  0  0  0  0  0  0  0  0
   15.9510    0.7758    0.0000 O   0  0  0  0  0  0  0  0  0  0  0  0
    5.3922    1.3532    0.0000 O   0  0  0  0  0  0  0  0  0  0  0  0
   11.5407    2.0805    0.0000 N   0  0  3  0  0  0  0  0  0  0  0  0
    8.9635    1.8486    0.0000 N   0  0  0  0  0  0  0  0  0  0  0  0
    6.7934    0.3351    0.0000 N   0  0  0  0  0  0  0  0  0  0  0  0
    9.9580    1.7441    0.0000 C   0  0  2  0  0  0  0  0  0  0  0  0
   10.4581    0.8781    0.0000 C   0  0  0  0  0  0  0  0  0  0  0  0
   10.6272    2.4872    0.0000 C   0  0  0  0  0  0  0  0  0  0  0  0
   11.4362    1.0860    0.0000 C   0  0  0  0  0  0  0  0  0  0  0  0
   12.4068    2.5805    0.0000 C   0  0  0  0  0  0  0  0  0  0  0  0
   13.2728    2.0805    0.0000 C   0  0  0  0  0  0  0  0  0  0  0  0
    8.3757    1.0396    0.0000 C   0  0  0  0  0  0  0  0  0  0  0  0
   14.1388    2.5805    0.0000 C   0  0  0  0  0  0  0  0  0  0  0  0
   13.2728    1.0805    0.0000 C   0  0  0  0  0  0  0  0  0  0  0  0
    7.3812    1.1441    0.0000 C   0  0  0  0  0  0  0  0  0  0  0  0
    2.9511   -1.6294    0.0000 C   0  0  0  0  0  0  0  0  0  0  0  0
   15.0048    2.0805    0.0000 C   0  0  0  0  0  0  0  0  0  0  0  0
   14.1388    0.5805    0.0000 C   0  0  0  0  0  0  0  0  0  0  0  0
   15.0048    1.0805    0.0000 C   0  0  0  0  0  0  0  0  0  0  0  0
    3.9021   -1.3204    0.0000 C   0  0  0  0  0  0  0  0  0  0  0  0
    2.0000   -1.9385    0.0000 C   0  0  0  0  0  0  0  0  0  0  0  0
    3.2601   -2.5805    0.0000 C   0  0  0  0  0  0  0  0  0  0  0  0
    2.6420   -0.6784    0.0000 C   0  0  0  0  0  0  0  0  0  0  0  0
    5.2111   -0.3694    0.0000 C   0  0  0  0  0  0  0  0  0  0  0  0
    4.7111   -1.9082    0.0000 C   0  0  0  0  0  0  0  0  0  0  0  0
    5.7989    0.4396    0.0000 C   0  0  0  0  0  0  0  0  0  0  0  0
   16.5347    1.5805    0.0000 C   0  0  0  0  0  0  0  0  0  0  0  0
    5.5202   -1.3204    0.0000 C   0  0  0  0  0  0  0  0  0  0  0  0
    9.6204    1.2241    0.0000 H   0  0  0  0  0  0  0  0  0  0  0  0
    9.8916    0.6259    0.0000 H   0  0  0  0  0  0  0  0  0  0  0  0
   10.6496    0.2884    0.0000 H   0  0  0  0  0  0  0  0  0  0  0  0
   10.9372    3.0242    0.0000 H   0  0  0  0  0  0  0  0  0  0  0  0
   10.1256    2.8517    0.0000 H   0  0  0  0  0  0  0  0  0  0  0  0
   11.5010    0.4694    0.0000 H   0  0  0  0  0  0  0  0  0  0  0  0
   12.0562    1.0860    0.0000 H   0  0  0  0  0  0  0  0  0  0  0  0
   12.8053    3.0554    0.0000 H   0  0  0  0  0  0  0  0  0  0  0  0
   12.0082    3.0554    0.0000 H   0  0  0  0  0  0  0  0  0  0  0  0
    8.7114    2.4150    0.0000 H   0  0  0  0  0  0  0  0  0  0  0  0
   14.1388    3.2005    0.0000 H   0  0  0  0  0  0  0  0  0  0  0  0
   12.7358    0.7705    0.0000 H   0  0  0  0  0  0  0  0  0  0  0  0
    7.5521    1.7401    0.0000 H   0  0  0  0  0  0  0  0  0  0  0  0
    6.8240    1.4159    0.0000 H   0  0  0  0  0  0  0  0  0  0  0  0
   14.1388   -0.0395    0.0000 H   0  0  0  0  0  0  0  0  0  0  0  0
    1.8084   -1.3488    0.0000 H   0  0  0  0  0  0  0  0  0  0  0  0
    1.4103   -2.1301    0.0000 H   0  0  0  0  0  0  0  0  0  0  0  0
    2.1916   -2.5281    0.0000 H   0  0  0  0  0  0  0  0  0  0  0  0
    2.6704   -2.7721    0.0000 H   0  0  0  0  0  0  0  0  0  0  0  0
    3.4517   -3.1702    0.0000 H   0  0  0  0  0  0  0  0  0  0  0  0
    3.8497   -2.3889    0.0000 H   0  0  0  0  0  0  0  0  0  0  0  0
    3.2317   -0.4868    0.0000 H   0  0  0  0  0  0  0  0  0  0  0  0
    2.4504   -0.0887    0.0000 H   0  0  0  0  0  0  0  0  0  0  0  0
    2.0524   -0.8700    0.0000 H   0  0  0  0  0  0  0  0  0  0  0  0
    7.0456   -0.2313    0.0000 H   0  0  0  0  0  0  0  0  0  0  0  0
    4.7111   -2.5282    0.0000 H   0  0  0  0  0  0  0  0  0  0  0  0
    6.1098   -1.5120    0.0000 H   0  0  0  0  0  0  0  0  0  0  0  0
   16.9955    1.1658    0.0000 H   0  0  0  0  0  0  0  0  0  0  0  0
   16.9955    1.9952    0.0000 H   0  0  0  0  0  0  0  0  0  0  0  0
  1 15  2  0  0  0  0
  2 20  1  0  0  0  0
  2 30  1  0  0  0  0
  3 23  1  0  0  0  0
  3 27  1  0  0  0  0
  4 22  1  0  0  0  0
  4 30  1  0  0  0  0
  5 29  2  0  0  0  0
  6 11  1  0  0  0  0
  6 12  1  0  0  0  0
  6 13  1  0  0  0  0
  9  7  1  1  0  0  0
  7 15  1  0  0  0  0
  7 41  1  0  0  0  0
  8 18  1  0  0  0  0
  8 29  1  0  0  0  0
  8 56  1  0  0  0  0
  9 10  1  0  0  0  0
  9 11  1  0  0  0  0
  9 32  1  0  0  0  0
 10 12  1  0  0  0  0
 10 33  1  0  0  0  0
 10 34  1  0  0  0  0
 11 35  1  0  0  0  0
 11 36  1  0  0  0  0
 12 37  1  0  0  0  0
 12 38  1  0  0  0  0
 13 14  1  0  0  0  0
 13 39  1  0  0  0  0
 13 40  1  0  0  0  0
 14 16  2  0  0  0  0
 14 17  1  0  0  0  0
 15 18  1  0  0  0  0
 16 20  1  0  0  0  0
 16 42  1  0  0  0  0
 17 21  2  0  0  0  0
 17 43  1  0  0  0  0
 18 44  1  0  0  0  0
 18 45  1  0  0  0  0
 19 23  1  0  0  0  0
 19 24  1  0  0  0  0
 19 25  1  0  0  0  0
 19 26  1  0  0  0  0
 20 22  2  0  0  0  0
 21 22  1  0  0  0  0
 21 46  1  0  0  0  0
 23 28  2  0  0  0  0
 24 47  1  0  0  0  0
 24 48  1  0  0  0  0
 24 49  1  0  0  0  0
 25 50  1  0  0  0  0
 25 51  1  0  0  0  0
 25 52  1  0  0  0  0
 26 53  1  0  0  0  0
 26 54  1  0  0  0  0
 26 55  1  0  0  0  0
 27 29  1  0  0  0  0
 27 31  2  0  0  0  0
 28 31  1  0  0  0  0
 28 57  1  0  0  0  0
 30 59  1  0  0  0  0
 30 60  1  0  0  0  0
 31 58  1  0  0  0  0
M  END
> <PUBCHEM_COMPOUND_CID>
508884
> <PUBCHEM_COMPOUND_CANONICALIZED>
1
> <PUBCHEM_CACTVS_COMPLEXITY>
652
> <PUBCHEM_CACTVS_HBOND_ACCEPTOR>
6
> <PUBCHEM_CACTVS_HBOND_DONOR>
2
> <PUBCHEM_CACTVS_ROTATABLE_BOND>
7
> <PUBCHEM_CACTVS_SUBSKEYS>
AAADceB7OAAAAAAAAAAAAAAAAAAAAWJEgAAwAAAAAAAAAEgBwAAAHgAQAAAADizBmAcyDoPABECIAqFSEAKCCAAkIAAIiIHOjMgfZjKE9T+3OSrk1hGeqYe431LvIAABAAAAQABAAAIAAACAAAAAAAAAAA==
> <PUBCHEM_IUPAC_OPENEYE_NAME>
N-[2-[[(3R)-1-(1,3-benzodioxol-5-ylmethyl)pyrrolidin-3-yl]amino]-2-oxo-ethyl]-5-tert-butyl-furan-2-carboxamide
> <PUBCHEM_IUPAC_CAS_NAME>
N-[2-[[(3R)-1-(1,3-benzodioxol-5-ylmethyl)-3-pyrrolidinyl]amino]-2-oxoethyl]-5-tert-butyl-2-furancarboxamide
> <PUBCHEM_IUPAC_NAME_MARKUP>
<I>N</I>-[2-[[(3<I>R</I>)-1-(1,3-benzodioxol-5-ylmethyl)pyrrolidin-3-yl]amino]-2-oxoethyl]-5-<I>tert</I>-butylfuran-2-carboxamide
> <PUBCHEM_IUPAC_NAME>
N-[2-[[(3R)-1-(1,3-benzodioxol-5-ylmethyl)pyrrolidin-3-yl]amino]-2-oxoethyl]-5-tert-butylfuran-2-carboxamide
> <PUBCHEM_IUPAC_SYSTEMATIC_NAME>
N-[2-[[(3R)-1-(1,3-benzodioxol-5-ylmethyl)pyrrolidin-3-yl]amino]-2-oxidanylidene-ethyl]-5-tert-butyl-furan-2-carboxamide
> <PUBCHEM_IUPAC_TRADITIONAL_NAME>
5-tert-butyl-N-[2-keto-2-[[(3R)-1-piperonylpyrrolidin-3-yl]amino]ethyl]-2-furamide
> <PUBCHEM_IUPAC_INCHI>
InChI=1S/C23H29N3O5/c1-23(2,3)20-7-6-18(31-20)22(28)24-11-21(27)25-16-8-9-26(13-16)12-15-4-5-17-19(10-15)30-14-29-17/h4-7,10,16H,8-9,11-14H2,1-3H3,(H,24,28)(H,25,27)/t16-/m1/s1
> <PUBCHEM_IUPAC_INCHIKEY>
BCXJQYMODKUDII-MRXNPFEDSA-N
> <PUBCHEM_XLOGP3_AA>
3.2
> <PUBCHEM_EXACT_MASS>
427.21072103
> <PUBCHEM_MOLECULAR_FORMULA>
C23H29N3O5
> <PUBCHEM_MOLECULAR_WEIGHT>
427.5
> <PUBCHEM_OPENEYE_CAN_SMILES>
CC(C)(C)C1=CC=C(O1)C(=O)NCC(=O)NC2CCN(C2)CC3=CC4=C(C=C3)OCO4
> <PUBCHEM_OPENEYE_ISO_SMILES>
CC(C)(C)C1=CC=C(O1)C(=O)NCC(=O)N[C@@H]2CCN(C2)CC3=CC4=C(C=C3)OCO4
> <PUBCHEM_CACTVS_TPSA>
93
> <PUBCHEM_MONOISOTOPIC_WEIGHT>
427.21072103
> <PUBCHEM_TOTAL_CHARGE>
0
> <PUBCHEM_HEAVY_ATOM_COUNT>
31
> <PUBCHEM_ATOM_DEF_STEREO_COUNT>
1
> <PUBCHEM_ATOM_UDEF_STEREO_COUNT>
0
> <PUBCHEM_BOND_DEF_STEREO_COUNT>
0
> <PUBCHEM_BOND_UDEF_STEREO_COUNT>
0
> <PUBCHEM_ISOTOPIC_ATOM_COUNT>
0
> <PUBCHEM_COMPONENT_COUNT>
1
> <PUBCHEM_CACTVS_TAUTO_COUNT>
-1
> <PUBCHEM_COORDINATE_TYPE>
1
5
255
> <PUBCHEM_BONDANNOTATIONS>
14  16  8
14  17  8
16  20  8
17  21  8
20  22  8
21  22  8
23  28  8
27  31  8
28  31  8
3  23  8
3  27  8
9  7  5
$$$$
