508813
  -OEChem-10302200282D
 70 72  0     1  0  0  0  0  0999 V2000
   15.1244    2.7500    0.0000 Cl  0  0  0  0  0  0  0  0  0  0  0  0
    3.0000   -4.2500    0.0000 F   0  0  0  0  0  0  0  0  0  0  0  0
    2.0000   -3.2500    0.0000 F   0  0  0  0  0  0  0  0  0  0  0  0
    4.0000   -3.2500    0.0000 F   0  0  0  0  0  0  0  0  0  0  0  0
    6.4641    3.7500    0.0000 O   0  0  0  0  0  0  0  0  0  0  0  0
    3.8660    1.2500    0.0000 O   0  0  0  0  0  0  0  0  0  0  0  0
    3.0000   -2.2500    0.0000 O   0  0  0  0  0  0  0  0  0  0  0  0
   10.7942    1.2500    0.0000 N   0  0  0  0  0  0  0  0  0  0  0  0
    7.3301    2.2500    0.0000 N   0  0  0  0  0  0  0  0  0  0  0  0
    5.5981    1.2500    0.0000 N   0  0  0  0  0  0  0  0  0  0  0  0
    9.0622    2.2500    0.0000 C   0  0  0  0  0  0  0  0  0  0  0  0
    9.0622    1.2500    0.0000 C   0  0  0  0  0  0  0  0  0  0  0  0
    9.9282    2.7500    0.0000 C   0  0  0  0  0  0  0  0  0  0  0  0
    9.9282    0.7500    0.0000 C   0  0  0  0  0  0  0  0  0  0  0  0
   10.7942    2.2500    0.0000 C   0  0  0  0  0  0  0  0  0  0  0  0
    8.1962    2.7500    0.0000 C   0  0  0  0  0  0  0  0  0  0  0  0
   11.6603    0.7500    0.0000 C   0  0  0  0  0  0  0  0  0  0  0  0
    5.5981    2.2500    0.0000 C   0  0  3  0  0  0  0  0  0  0  0  0
   12.5263    1.2500    0.0000 C   0  0  0  0  0  0  0  0  0  0  0  0
    6.4641    2.7500    0.0000 C   0  0  0  0  0  0  0  0  0  0  0  0
    4.7320    2.7500    0.0000 C   0  0  0  0  0  0  0  0  0  0  0  0
    4.7320    3.7500    0.0000 C   0  0  0  0  0  0  0  0  0  0  0  0
   12.5263    2.2500    0.0000 C   0  0  0  0  0  0  0  0  0  0  0  0
   13.3923    0.7500    0.0000 C   0  0  0  0  0  0  0  0  0  0  0  0
    3.8660    4.2500    0.0000 C   0  0  0  0  0  0  0  0  0  0  0  0
    5.5981    4.2500    0.0000 C   0  0  0  0  0  0  0  0  0  0  0  0
   13.3923    2.7500    0.0000 C   0  0  0  0  0  0  0  0  0  0  0  0
   14.2583    1.2500    0.0000 C   0  0  0  0  0  0  0  0  0  0  0  0
    4.7320    0.7500    0.0000 C   0  0  0  0  0  0  0  0  0  0  0  0
   14.2583    2.2500    0.0000 C   0  0  0  0  0  0  0  0  0  0  0  0
    4.7320   -0.2500    0.0000 C   0  0  0  0  0  0  0  0  0  0  0  0
    3.8660   -0.7500    0.0000 C   0  0  0  0  0  0  0  0  0  0  0  0
    5.5981   -0.7500    0.0000 C   0  0  0  0  0  0  0  0  0  0  0  0
    3.8660   -1.7500    0.0000 C   0  0  0  0  0  0  0  0  0  0  0  0
    5.5981   -1.7500    0.0000 C   0  0  0  0  0  0  0  0  0  0  0  0
    4.7320   -2.2500    0.0000 C   0  0  0  0  0  0  0  0  0  0  0  0
    3.0000   -3.2500    0.0000 C   0  0  0  0  0  0  0  0  0  0  0  0
    8.5252    1.9400    0.0000 H   0  0  0  0  0  0  0  0  0  0  0  0
    8.4516    1.3577    0.0000 H   0  0  0  0  0  0  0  0  0  0  0  0
    8.8501    0.6674    0.0000 H   0  0  0  0  0  0  0  0  0  0  0  0
   10.3267    3.2250    0.0000 H   0  0  0  0  0  0  0  0  0  0  0  0
    9.5297    3.2250    0.0000 H   0  0  0  0  0  0  0  0  0  0  0  0
    9.5297    0.2751    0.0000 H   0  0  0  0  0  0  0  0  0  0  0  0
   10.3267    0.2751    0.0000 H   0  0  0  0  0  0  0  0  0  0  0  0
   11.4048    2.1423    0.0000 H   0  0  0  0  0  0  0  0  0  0  0  0
   11.0063    2.8326    0.0000 H   0  0  0  0  0  0  0  0  0  0  0  0
    8.5947    3.2250    0.0000 H   0  0  0  0  0  0  0  0  0  0  0  0
    7.7976    3.2250    0.0000 H   0  0  0  0  0  0  0  0  0  0  0  0
   11.2617    0.2751    0.0000 H   0  0  0  0  0  0  0  0  0  0  0  0
   12.0588    0.2751    0.0000 H   0  0  0  0  0  0  0  0  0  0  0  0
    7.3301    1.6300    0.0000 H   0  0  0  0  0  0  0  0  0  0  0  0
    6.1350    1.9400    0.0000 H   0  0  0  0  0  0  0  0  0  0  0  0
    4.1215    2.8577    0.0000 H   0  0  0  0  0  0  0  0  0  0  0  0
    4.5200    2.1674    0.0000 H   0  0  0  0  0  0  0  0  0  0  0  0
    4.7320    4.3700    0.0000 H   0  0  0  0  0  0  0  0  0  0  0  0
    6.1350    0.9400    0.0000 H   0  0  0  0  0  0  0  0  0  0  0  0
   11.9893    2.5600    0.0000 H   0  0  0  0  0  0  0  0  0  0  0  0
   13.3923    0.1300    0.0000 H   0  0  0  0  0  0  0  0  0  0  0  0
    4.1760    4.7869    0.0000 H   0  0  0  0  0  0  0  0  0  0  0  0
    3.3291    4.5600    0.0000 H   0  0  0  0  0  0  0  0  0  0  0  0
    3.5560    3.7131    0.0000 H   0  0  0  0  0  0  0  0  0  0  0  0
    5.9081    3.7131    0.0000 H   0  0  0  0  0  0  0  0  0  0  0  0
    6.1350    4.5600    0.0000 H   0  0  0  0  0  0  0  0  0  0  0  0
    5.2881    4.7869    0.0000 H   0  0  0  0  0  0  0  0  0  0  0  0
   13.3923    3.3700    0.0000 H   0  0  0  0  0  0  0  0  0  0  0  0
   14.7953    0.9400    0.0000 H   0  0  0  0  0  0  0  0  0  0  0  0
    3.3291   -0.4400    0.0000 H   0  0  0  0  0  0  0  0  0  0  0  0
    6.1350   -0.4400    0.0000 H   0  0  0  0  0  0  0  0  0  0  0  0
    6.1350   -2.0600    0.0000 H   0  0  0  0  0  0  0  0  0  0  0  0
    4.7320   -2.8700    0.0000 H   0  0  0  0  0  0  0  0  0  0  0  0
  1 30  1  0  0  0  0
  2 37  1  0  0  0  0
  3 37  1  0  0  0  0
  4 37  1  0  0  0  0
  5 20  2  0  0  0  0
  6 29  2  0  0  0  0
  7 34  1  0  0  0  0
  7 37  1  0  0  0  0
  8 14  1  0  0  0  0
  8 15  1  0  0  0  0
  8 17  1  0  0  0  0
  9 16  1  0  0  0  0
  9 20  1  0  0  0  0
  9 51  1  0  0  0  0
 10 18  1  0  0  0  0
 10 29  1  0  0  0  0
 10 56  1  0  0  0  0
 11 12  1  0  0  0  0
 11 13  1  0  0  0  0
 11 16  1  0  0  0  0
 11 38  1  0  0  0  0
 12 14  1  0  0  0  0
 12 39  1  0  0  0  0
 12 40  1  0  0  0  0
 13 15  1  0  0  0  0
 13 41  1  0  0  0  0
 13 42  1  0  0  0  0
 14 43  1  0  0  0  0
 14 44  1  0  0  0  0
 15 45  1  0  0  0  0
 15 46  1  0  0  0  0
 16 47  1  0  0  0  0
 16 48  1  0  0  0  0
 17 19  1  0  0  0  0
 17 49  1  0  0  0  0
 17 50  1  0  0  0  0
 18 20  1  0  0  0  0
 18 21  1  0  0  0  0
 18 52  1  0  0  0  0
 19 23  2  0  0  0  0
 19 24  1  0  0  0  0
 21 22  1  0  0  0  0
 21 53  1  0  0  0  0
 21 54  1  0  0  0  0
 22 25  1  0  0  0  0
 22 26  1  0  0  0  0
 22 55  1  0  0  0  0
 23 27  1  0  0  0  0
 23 57  1  0  0  0  0
 24 28  2  0  0  0  0
 24 58  1  0  0  0  0
 25 59  1  0  0  0  0
 25 60  1  0  0  0  0
 25 61  1  0  0  0  0
 26 62  1  0  0  0  0
 26 63  1  0  0  0  0
 26 64  1  0  0  0  0
 27 30  2  0  0  0  0
 27 65  1  0  0  0  0
 28 30  1  0  0  0  0
 28 66  1  0  0  0  0
 29 31  1  0  0  0  0
 31 32  2  0  0  0  0
 31 33  1  0  0  0  0
 32 34  1  0  0  0  0
 32 67  1  0  0  0  0
 33 35  2  0  0  0  0
 33 68  1  0  0  0  0
 34 36  2  0  0  0  0
 35 36  1  0  0  0  0
 35 69  1  0  0  0  0
 36 70  1  0  0  0  0
M  END
> <PUBCHEM_COMPOUND_CID>
508813
> <PUBCHEM_COMPOUND_CANONICALIZED>
1
> <PUBCHEM_CACTVS_COMPLEXITY>
723
> <PUBCHEM_CACTVS_HBOND_ACCEPTOR>
7
> <PUBCHEM_CACTVS_HBOND_DONOR>
2
> <PUBCHEM_CACTVS_ROTATABLE_BOND>
10
> <PUBCHEM_CACTVS_SUBSKEYS>
AAADcfB7MYAEAAAAAAAAAAAAAAAAAAAAAAA8YIAAAAAAAAABQAAAHwIQAAAADS7BmDQyBoPABACIAiFSEACCCAAkJQAIiIGODsgMZjKFtzuUMShk1hGIqYe6yBCOBAABAAAAAAAIAAIAAAAAAAAAAAAAAA==
> <PUBCHEM_IUPAC_OPENEYE_NAME>
N-[1-[[1-[(4-chlorophenyl)methyl]-4-piperidyl]methylcarbamoyl]-3-methyl-butyl]-3-(trifluoromethoxy)benzamide
> <PUBCHEM_IUPAC_CAS_NAME>
N-[1-[[1-[(4-chlorophenyl)methyl]-4-piperidinyl]methylamino]-4-methyl-1-oxopentan-2-yl]-3-(trifluoromethoxy)benzamide
> <PUBCHEM_IUPAC_NAME_MARKUP>
<I>N</I>-[1-[[1-[(4-chlorophenyl)methyl]piperidin-4-yl]methylamino]-4-methyl-1-oxopentan-2-yl]-3-(trifluoromethoxy)benzamide
> <PUBCHEM_IUPAC_NAME>
N-[1-[[1-[(4-chlorophenyl)methyl]piperidin-4-yl]methylamino]-4-methyl-1-oxopentan-2-yl]-3-(trifluoromethoxy)benzamide
> <PUBCHEM_IUPAC_SYSTEMATIC_NAME>
N-[1-[[1-[(4-chlorophenyl)methyl]piperidin-4-yl]methylamino]-4-methyl-1-oxidanylidene-pentan-2-yl]-3-(trifluoromethyloxy)benzamide
> <PUBCHEM_IUPAC_TRADITIONAL_NAME>
N-[1-[[1-(4-chlorobenzyl)-4-piperidyl]methylcarbamoyl]-3-methyl-butyl]-3-(trifluoromethoxy)benzamide
> <PUBCHEM_IUPAC_INCHI>
InChI=1S/C27H33ClF3N3O3/c1-18(2)14-24(33-25(35)21-4-3-5-23(15-21)37-27(29,30)31)26(36)32-16-19-10-12-34(13-11-19)17-20-6-8-22(28)9-7-20/h3-9,15,18-19,24H,10-14,16-17H2,1-2H3,(H,32,36)(H,33,35)
> <PUBCHEM_IUPAC_INCHIKEY>
UCSANOZZYOWWLI-UHFFFAOYSA-N
> <PUBCHEM_XLOGP3_AA>
6.4
> <PUBCHEM_EXACT_MASS>
539.2162541
> <PUBCHEM_MOLECULAR_FORMULA>
C27H33ClF3N3O3
> <PUBCHEM_MOLECULAR_WEIGHT>
540.0
> <PUBCHEM_OPENEYE_CAN_SMILES>
CC(C)CC(C(=O)NCC1CCN(CC1)CC2=CC=C(C=C2)Cl)NC(=O)C3=CC(=CC=C3)OC(F)(F)F
> <PUBCHEM_OPENEYE_ISO_SMILES>
CC(C)CC(C(=O)NCC1CCN(CC1)CC2=CC=C(C=C2)Cl)NC(=O)C3=CC(=CC=C3)OC(F)(F)F
> <PUBCHEM_CACTVS_TPSA>
70.7
> <PUBCHEM_MONOISOTOPIC_WEIGHT>
539.2162541
> <PUBCHEM_TOTAL_CHARGE>
0
> <PUBCHEM_HEAVY_ATOM_COUNT>
37
> <PUBCHEM_ATOM_DEF_STEREO_COUNT>
0
> <PUBCHEM_ATOM_UDEF_STEREO_COUNT>
1
> <PUBCHEM_BOND_DEF_STEREO_COUNT>
0
> <PUBCHEM_BOND_UDEF_STEREO_COUNT>
0
> <PUBCHEM_ISOTOPIC_ATOM_COUNT>
0
> <PUBCHEM_COMPONENT_COUNT>
1
> <PUBCHEM_CACTVS_TAUTO_COUNT>
-1
> <PUBCHEM_COORDINATE_TYPE>
1
5
255
> <PUBCHEM_BONDANNOTATIONS>
18  21  3
19  23  8
19  24  8
23  27  8
24  28  8
27  30  8
28  30  8
31  32  8
31  33  8
32  34  8
33  35  8
34  36  8
35  36  8
$$$$
