508898
  -OEChem-10302200282D
 63 65  0     1  0  0  0  0  0999 V2000
    7.0010   -4.9738    0.0000 F   0  0  0  0  0  0  0  0  0  0  0  0
    6.0010   -5.9738    0.0000 F   0  0  0  0  0  0  0  0  0  0  0  0
    5.0010   -4.9738    0.0000 F   0  0  0  0  0  0  0  0  0  0  0  0
    6.8671    0.5262    0.0000 O   0  0  0  0  0  0  0  0  0  0  0  0
    3.4030   -0.4738    0.0000 O   0  0  0  0  0  0  0  0  0  0  0  0
    6.0010   -3.9738    0.0000 O   0  0  0  0  0  0  0  0  0  0  0  0
    7.9497    3.7286    0.0000 N   0  0  3  0  0  0  0  0  0  0  0  0
    6.0010    2.0262    0.0000 N   0  0  0  0  0  0  0  0  0  0  0  0
    5.1350   -0.4738    0.0000 N   0  0  0  0  0  0  0  0  0  0  0  0
    2.5369   -1.9738    0.0000 N   0  0  0  0  0  0  0  0  0  0  0  0
    6.8671    2.5262    0.0000 C   0  0  1  0  0  0  0  0  0  0  0  0
    6.9716    3.5207    0.0000 C   0  0  0  0  0  0  0  0  0  0  0  0
    7.7806    2.1194    0.0000 C   0  0  0  0  0  0  0  0  0  0  0  0
    8.4497    2.8626    0.0000 C   0  0  0  0  0  0  0  0  0  0  0  0
    8.3565    4.6422    0.0000 C   0  0  0  0  0  0  0  0  0  0  0  0
    9.3510    4.7467    0.0000 C   0  0  0  0  0  0  0  0  0  0  0  0
    6.0010    1.0262    0.0000 C   0  0  0  0  0  0  0  0  0  0  0  0
    9.7577    5.6602    0.0000 C   0  0  0  0  0  0  0  0  0  0  0  0
    9.9388    3.9377    0.0000 C   0  0  0  0  0  0  0  0  0  0  0  0
    5.1350    0.5262    0.0000 C   0  0  0  0  0  0  0  0  0  0  0  0
   11.3400    4.9558    0.0000 C   0  0  0  0  0  0  0  0  0  0  0  0
   10.7523    5.7648    0.0000 C   0  0  0  0  0  0  0  0  0  0  0  0
   10.9333    4.0422    0.0000 C   0  0  0  0  0  0  0  0  0  0  0  0
   12.3346    5.0603    0.0000 C   0  0  0  0  0  0  0  0  0  0  0  0
   12.7413    5.9738    0.0000 C   0  0  0  0  0  0  0  0  0  0  0  0
   12.9223    4.2513    0.0000 C   0  0  0  0  0  0  0  0  0  0  0  0
    4.2690   -0.9738    0.0000 C   0  0  0  0  0  0  0  0  0  0  0  0
    4.2690   -1.9738    0.0000 C   0  0  0  0  0  0  0  0  0  0  0  0
    3.4030   -2.4738    0.0000 C   0  0  0  0  0  0  0  0  0  0  0  0
    5.1350   -2.4738    0.0000 C   0  0  0  0  0  0  0  0  0  0  0  0
    5.1350   -3.4738    0.0000 C   0  0  0  0  0  0  0  0  0  0  0  0
    3.4030   -3.4738    0.0000 C   0  0  0  0  0  0  0  0  0  0  0  0
    4.2690   -3.9738    0.0000 C   0  0  0  0  0  0  0  0  0  0  0  0
    6.0010   -4.9738    0.0000 C   0  0  0  0  0  0  0  0  0  0  0  0
    6.3471    2.8639    0.0000 H   0  0  0  0  0  0  0  0  0  0  0  0
    6.9068    4.1373    0.0000 H   0  0  0  0  0  0  0  0  0  0  0  0
    6.3516    3.5207    0.0000 H   0  0  0  0  0  0  0  0  0  0  0  0
    7.4706    1.5825    0.0000 H   0  0  0  0  0  0  0  0  0  0  0  0
    8.2822    1.7550    0.0000 H   0  0  0  0  0  0  0  0  0  0  0  0
    8.8646    2.4018    0.0000 H   0  0  0  0  0  0  0  0  0  0  0  0
    8.9513    3.2270    0.0000 H   0  0  0  0  0  0  0  0  0  0  0  0
    8.3997    5.2606    0.0000 H   0  0  0  0  0  0  0  0  0  0  0  0
    7.7549    4.7922    0.0000 H   0  0  0  0  0  0  0  0  0  0  0  0
    5.4641    2.3362    0.0000 H   0  0  0  0  0  0  0  0  0  0  0  0
    9.3933    6.1618    0.0000 H   0  0  0  0  0  0  0  0  0  0  0  0
    9.6866    3.3713    0.0000 H   0  0  0  0  0  0  0  0  0  0  0  0
    4.9230    1.1088    0.0000 H   0  0  0  0  0  0  0  0  0  0  0  0
    4.5244    0.4185    0.0000 H   0  0  0  0  0  0  0  0  0  0  0  0
   11.0044    6.3312    0.0000 H   0  0  0  0  0  0  0  0  0  0  0  0
   11.2977    3.5406    0.0000 H   0  0  0  0  0  0  0  0  0  0  0  0
   12.9512    5.1251    0.0000 H   0  0  0  0  0  0  0  0  0  0  0  0
    5.6720   -0.7838    0.0000 H   0  0  0  0  0  0  0  0  0  0  0  0
   13.3077    5.7216    0.0000 H   0  0  0  0  0  0  0  0  0  0  0  0
   12.9935    6.5402    0.0000 H   0  0  0  0  0  0  0  0  0  0  0  0
   12.1749    6.2260    0.0000 H   0  0  0  0  0  0  0  0  0  0  0  0
   12.4208    3.8868    0.0000 H   0  0  0  0  0  0  0  0  0  0  0  0
   13.2868    3.7497    0.0000 H   0  0  0  0  0  0  0  0  0  0  0  0
   13.4239    4.6157    0.0000 H   0  0  0  0  0  0  0  0  0  0  0  0
    5.6720   -2.1638    0.0000 H   0  0  0  0  0  0  0  0  0  0  0  0
    2.8660   -3.7838    0.0000 H   0  0  0  0  0  0  0  0  0  0  0  0
    4.2690   -4.5938    0.0000 H   0  0  0  0  0  0  0  0  0  0  0  0
    2.0000   -2.2838    0.0000 H   0  0  0  0  0  0  0  0  0  0  0  0
    2.5369   -1.3538    0.0000 H   0  0  0  0  0  0  0  0  0  0  0  0
  1 34  1  0  0  0  0
  2 34  1  0  0  0  0
  3 34  1  0  0  0  0
  4 17  2  0  0  0  0
  5 27  2  0  0  0  0
  6 31  1  0  0  0  0
  6 34  1  0  0  0  0
  7 12  1  0  0  0  0
  7 14  1  0  0  0  0
  7 15  1  0  0  0  0
 11  8  1  1  0  0  0
  8 17  1  0  0  0  0
  8 44  1  0  0  0  0
  9 20  1  0  0  0  0
  9 27  1  0  0  0  0
  9 52  1  0  0  0  0
 10 29  1  0  0  0  0
 10 62  1  0  0  0  0
 10 63  1  0  0  0  0
 11 12  1  0  0  0  0
 11 13  1  0  0  0  0
 11 35  1  0  0  0  0
 12 36  1  0  0  0  0
 12 37  1  0  0  0  0
 13 14  1  0  0  0  0
 13 38  1  0  0  0  0
 13 39  1  0  0  0  0
 14 40  1  0  0  0  0
 14 41  1  0  0  0  0
 15 16  1  0  0  0  0
 15 42  1  0  0  0  0
 15 43  1  0  0  0  0
 16 18  2  0  0  0  0
 16 19  1  0  0  0  0
 17 20  1  0  0  0  0
 18 22  1  0  0  0  0
 18 45  1  0  0  0  0
 19 23  2  0  0  0  0
 19 46  1  0  0  0  0
 20 47  1  0  0  0  0
 20 48  1  0  0  0  0
 21 22  2  0  0  0  0
 21 23  1  0  0  0  0
 21 24  1  0  0  0  0
 22 49  1  0  0  0  0
 23 50  1  0  0  0  0
 24 25  1  0  0  0  0
 24 26  1  0  0  0  0
 24 51  1  0  0  0  0
 25 53  1  0  0  0  0
 25 54  1  0  0  0  0
 25 55  1  0  0  0  0
 26 56  1  0  0  0  0
 26 57  1  0  0  0  0
 26 58  1  0  0  0  0
 27 28  1  0  0  0  0
 28 29  2  0  0  0  0
 28 30  1  0  0  0  0
 29 32  1  0  0  0  0
 30 31  2  0  0  0  0
 30 59  1  0  0  0  0
 31 33  1  0  0  0  0
 32 33  2  0  0  0  0
 32 60  1  0  0  0  0
 33 61  1  0  0  0  0
M  END
> <PUBCHEM_COMPOUND_CID>
508898
> <PUBCHEM_COMPOUND_CANONICALIZED>
1
> <PUBCHEM_CACTVS_COMPLEXITY>
683
> <PUBCHEM_CACTVS_HBOND_ACCEPTOR>
8
> <PUBCHEM_CACTVS_HBOND_DONOR>
3
> <PUBCHEM_CACTVS_ROTATABLE_BOND>
8
> <PUBCHEM_CACTVS_SUBSKEYS>
AAADceB7sYAAAAAAAAAAAAAAAAAAAWAAAAAwYAAAAAAAAAABQAAAHwAQAAAADSzBmBQyxoPABACIAiVSUACCCAAkIgAIiIGObMgMZjqE9buUMahk1hGI6ce6yNCOwEABAAACAACAgAIAAAQAAAAAAAAAAA==
> <PUBCHEM_IUPAC_OPENEYE_NAME>
2-amino-N-[2-[[(3R)-1-[(4-isopropylphenyl)methyl]pyrrolidin-3-yl]amino]-2-oxo-ethyl]-5-(trifluoromethoxy)benzamide
> <PUBCHEM_IUPAC_CAS_NAME>
2-amino-N-[2-oxo-2-[[(3R)-1-[(4-propan-2-ylphenyl)methyl]-3-pyrrolidinyl]amino]ethyl]-5-(trifluoromethoxy)benzamide
> <PUBCHEM_IUPAC_NAME_MARKUP>
2-amino-<I>N</I>-[2-oxo-2-[[(3<I>R</I>)-1-[(4-propan-2-ylphenyl)methyl]pyrrolidin-3-yl]amino]ethyl]-5-(trifluoromethoxy)benzamide
> <PUBCHEM_IUPAC_NAME>
2-amino-N-[2-oxo-2-[[(3R)-1-[(4-propan-2-ylphenyl)methyl]pyrrolidin-3-yl]amino]ethyl]-5-(trifluoromethoxy)benzamide
> <PUBCHEM_IUPAC_SYSTEMATIC_NAME>
2-azanyl-N-[2-oxidanylidene-2-[[(3R)-1-[(4-propan-2-ylphenyl)methyl]pyrrolidin-3-yl]amino]ethyl]-5-(trifluoromethyloxy)benzamide
> <PUBCHEM_IUPAC_TRADITIONAL_NAME>
2-amino-N-[2-[[(3R)-1-(4-isopropylbenzyl)pyrrolidin-3-yl]amino]-2-keto-ethyl]-5-(trifluoromethoxy)benzamide
> <PUBCHEM_IUPAC_INCHI>
InChI=1S/C24H29F3N4O3/c1-15(2)17-5-3-16(4-6-17)13-31-10-9-18(14-31)30-22(32)12-29-23(33)20-11-19(7-8-21(20)28)34-24(25,26)27/h3-8,11,15,18H,9-10,12-14,28H2,1-2H3,(H,29,33)(H,30,32)/t18-/m1/s1
> <PUBCHEM_IUPAC_INCHIKEY>
HNGLRBFAXFOJMZ-GOSISDBHSA-N
> <PUBCHEM_XLOGP3_AA>
4.5
> <PUBCHEM_EXACT_MASS>
478.21917529
> <PUBCHEM_MOLECULAR_FORMULA>
C24H29F3N4O3
> <PUBCHEM_MOLECULAR_WEIGHT>
478.5
> <PUBCHEM_OPENEYE_CAN_SMILES>
CC(C)C1=CC=C(C=C1)CN2CCC(C2)NC(=O)CNC(=O)C3=C(C=CC(=C3)OC(F)(F)F)N
> <PUBCHEM_OPENEYE_ISO_SMILES>
CC(C)C1=CC=C(C=C1)CN2CC[C@H](C2)NC(=O)CNC(=O)C3=C(C=CC(=C3)OC(F)(F)F)N
> <PUBCHEM_CACTVS_TPSA>
96.7
> <PUBCHEM_MONOISOTOPIC_WEIGHT>
478.21917529
> <PUBCHEM_TOTAL_CHARGE>
0
> <PUBCHEM_HEAVY_ATOM_COUNT>
34
> <PUBCHEM_ATOM_DEF_STEREO_COUNT>
1
> <PUBCHEM_ATOM_UDEF_STEREO_COUNT>
0
> <PUBCHEM_BOND_DEF_STEREO_COUNT>
0
> <PUBCHEM_BOND_UDEF_STEREO_COUNT>
0
> <PUBCHEM_ISOTOPIC_ATOM_COUNT>
0
> <PUBCHEM_COMPONENT_COUNT>
1
> <PUBCHEM_CACTVS_TAUTO_COUNT>
-1
> <PUBCHEM_COORDINATE_TYPE>
1
5
255
> <PUBCHEM_BONDANNOTATIONS>
16  18  8
16  19  8
18  22  8
19  23  8
21  22  8
21  23  8
28  29  8
28  30  8
29  32  8
30  31  8
31  33  8
32  33  8
11  8  5
$$$$
