508916
  -OEChem-10302200282D
 64 66  0     1  0  0  0  0  0999 V2000
    6.5010   -3.5702    0.0000 F   0  0  0  0  0  0  0  0  0  0  0  0
    6.8671   -4.9363    0.0000 F   0  0  0  0  0  0  0  0  0  0  0  0
    5.5010   -5.3023    0.0000 F   0  0  0  0  0  0  0  0  0  0  0  0
    6.8671    0.0637    0.0000 O   0  0  0  0  0  0  0  0  0  0  0  0
    3.4030   -0.9363    0.0000 O   0  0  0  0  0  0  0  0  0  0  0  0
    7.9497    3.2662    0.0000 N   0  0  3  0  0  0  0  0  0  0  0  0
    6.0010    1.5637    0.0000 N   0  0  0  0  0  0  0  0  0  0  0  0
   11.5211    2.7707    0.0000 N   0  0  0  0  0  0  0  0  0  0  0  0
    5.1350   -0.9363    0.0000 N   0  0  0  0  0  0  0  0  0  0  0  0
    2.5369   -2.4363    0.0000 N   0  0  0  0  0  0  0  0  0  0  0  0
    6.8671    2.0637    0.0000 C   0  0  1  0  0  0  0  0  0  0  0  0
    6.9716    3.0582    0.0000 C   0  0  0  0  0  0  0  0  0  0  0  0
    7.7806    1.6570    0.0000 C   0  0  0  0  0  0  0  0  0  0  0  0
    8.4497    2.4001    0.0000 C   0  0  0  0  0  0  0  0  0  0  0  0
    8.3565    4.1797    0.0000 C   0  0  0  0  0  0  0  0  0  0  0  0
    9.3510    4.2842    0.0000 C   0  0  0  0  0  0  0  0  0  0  0  0
    6.0010    0.5637    0.0000 C   0  0  0  0  0  0  0  0  0  0  0  0
    9.9388    3.4752    0.0000 C   0  0  0  0  0  0  0  0  0  0  0  0
    9.7577    5.1978    0.0000 C   0  0  0  0  0  0  0  0  0  0  0  0
    5.1350    0.0637    0.0000 C   0  0  0  0  0  0  0  0  0  0  0  0
   10.9333    3.5797    0.0000 C   0  0  0  0  0  0  0  0  0  0  0  0
   11.3400    4.4933    0.0000 C   0  0  0  0  0  0  0  0  0  0  0  0
   10.7523    5.3023    0.0000 C   0  0  0  0  0  0  0  0  0  0  0  0
   12.3346    4.5978    0.0000 C   0  0  0  0  0  0  0  0  0  0  0  0
   12.5156    2.8752    0.0000 C   0  0  0  0  0  0  0  0  0  0  0  0
   11.1144    1.8572    0.0000 C   0  0  0  0  0  0  0  0  0  0  0  0
    4.2690   -1.4363    0.0000 C   0  0  0  0  0  0  0  0  0  0  0  0
    4.2690   -2.4363    0.0000 C   0  0  0  0  0  0  0  0  0  0  0  0
    3.4030   -2.9363    0.0000 C   0  0  0  0  0  0  0  0  0  0  0  0
    5.1350   -2.9363    0.0000 C   0  0  0  0  0  0  0  0  0  0  0  0
    5.1350   -3.9363    0.0000 C   0  0  0  0  0  0  0  0  0  0  0  0
    3.4030   -3.9363    0.0000 C   0  0  0  0  0  0  0  0  0  0  0  0
    4.2690   -4.4363    0.0000 C   0  0  0  0  0  0  0  0  0  0  0  0
    6.0010   -4.4363    0.0000 C   0  0  0  0  0  0  0  0  0  0  0  0
    6.8995    1.4446    0.0000 H   0  0  0  0  0  0  0  0  0  0  0  0
    6.9068    3.6748    0.0000 H   0  0  0  0  0  0  0  0  0  0  0  0
    6.3516    3.0582    0.0000 H   0  0  0  0  0  0  0  0  0  0  0  0
    7.4706    1.1200    0.0000 H   0  0  0  0  0  0  0  0  0  0  0  0
    8.2822    1.2926    0.0000 H   0  0  0  0  0  0  0  0  0  0  0  0
    8.8646    1.9394    0.0000 H   0  0  0  0  0  0  0  0  0  0  0  0
    8.9513    2.7646    0.0000 H   0  0  0  0  0  0  0  0  0  0  0  0
    8.3997    4.7982    0.0000 H   0  0  0  0  0  0  0  0  0  0  0  0
    7.7549    4.3297    0.0000 H   0  0  0  0  0  0  0  0  0  0  0  0
    5.4641    1.8737    0.0000 H   0  0  0  0  0  0  0  0  0  0  0  0
    9.6866    2.9088    0.0000 H   0  0  0  0  0  0  0  0  0  0  0  0
    9.3933    5.6994    0.0000 H   0  0  0  0  0  0  0  0  0  0  0  0
    4.9230    0.6463    0.0000 H   0  0  0  0  0  0  0  0  0  0  0  0
    4.5244   -0.0439    0.0000 H   0  0  0  0  0  0  0  0  0  0  0  0
   11.0044    5.8687    0.0000 H   0  0  0  0  0  0  0  0  0  0  0  0
    5.6720   -1.2463    0.0000 H   0  0  0  0  0  0  0  0  0  0  0  0
   12.3994    3.9812    0.0000 H   0  0  0  0  0  0  0  0  0  0  0  0
   12.9512    4.6626    0.0000 H   0  0  0  0  0  0  0  0  0  0  0  0
   12.2698    5.2144    0.0000 H   0  0  0  0  0  0  0  0  0  0  0  0
   12.5804    2.2586    0.0000 H   0  0  0  0  0  0  0  0  0  0  0  0
   13.1322    2.9401    0.0000 H   0  0  0  0  0  0  0  0  0  0  0  0
   12.4508    3.4919    0.0000 H   0  0  0  0  0  0  0  0  0  0  0  0
   10.5480    2.1094    0.0000 H   0  0  0  0  0  0  0  0  0  0  0  0
   10.8622    1.2908    0.0000 H   0  0  0  0  0  0  0  0  0  0  0  0
   11.6808    1.6050    0.0000 H   0  0  0  0  0  0  0  0  0  0  0  0
    5.6720   -2.6263    0.0000 H   0  0  0  0  0  0  0  0  0  0  0  0
    2.8660   -4.2463    0.0000 H   0  0  0  0  0  0  0  0  0  0  0  0
    4.2690   -5.0563    0.0000 H   0  0  0  0  0  0  0  0  0  0  0  0
    2.0000   -2.7463    0.0000 H   0  0  0  0  0  0  0  0  0  0  0  0
    2.5369   -1.8163    0.0000 H   0  0  0  0  0  0  0  0  0  0  0  0
  1 34  1  0  0  0  0
  2 34  1  0  0  0  0
  3 34  1  0  0  0  0
  4 17  2  0  0  0  0
  5 27  2  0  0  0  0
  6 12  1  0  0  0  0
  6 14  1  0  0  0  0
  6 15  1  0  0  0  0
 11  7  1  1  0  0  0
  7 17  1  0  0  0  0
  7 44  1  0  0  0  0
  8 21  1  0  0  0  0
  8 25  1  0  0  0  0
  8 26  1  0  0  0  0
  9 20  1  0  0  0  0
  9 27  1  0  0  0  0
  9 50  1  0  0  0  0
 10 29  1  0  0  0  0
 10 63  1  0  0  0  0
 10 64  1  0  0  0  0
 11 12  1  0  0  0  0
 11 13  1  0  0  0  0
 11 35  1  0  0  0  0
 12 36  1  0  0  0  0
 12 37  1  0  0  0  0
 13 14  1  0  0  0  0
 13 38  1  0  0  0  0
 13 39  1  0  0  0  0
 14 40  1  0  0  0  0
 14 41  1  0  0  0  0
 15 16  1  0  0  0  0
 15 42  1  0  0  0  0
 15 43  1  0  0  0  0
 16 18  2  0  0  0  0
 16 19  1  0  0  0  0
 17 20  1  0  0  0  0
 18 21  1  0  0  0  0
 18 45  1  0  0  0  0
 19 23  2  0  0  0  0
 19 46  1  0  0  0  0
 20 47  1  0  0  0  0
 20 48  1  0  0  0  0
 21 22  2  0  0  0  0
 22 23  1  0  0  0  0
 22 24  1  0  0  0  0
 23 49  1  0  0  0  0
 24 51  1  0  0  0  0
 24 52  1  0  0  0  0
 24 53  1  0  0  0  0
 25 54  1  0  0  0  0
 25 55  1  0  0  0  0
 25 56  1  0  0  0  0
 26 57  1  0  0  0  0
 26 58  1  0  0  0  0
 26 59  1  0  0  0  0
 27 28  1  0  0  0  0
 28 29  2  0  0  0  0
 28 30  1  0  0  0  0
 29 32  1  0  0  0  0
 30 31  2  0  0  0  0
 30 60  1  0  0  0  0
 31 33  1  0  0  0  0
 31 34  1  0  0  0  0
 32 33  2  0  0  0  0
 32 61  1  0  0  0  0
 33 62  1  0  0  0  0
M  END
> <PUBCHEM_COMPOUND_CID>
508916
> <PUBCHEM_COMPOUND_CANONICALIZED>
1
> <PUBCHEM_CACTVS_COMPLEXITY>
705
> <PUBCHEM_CACTVS_HBOND_ACCEPTOR>
8
> <PUBCHEM_CACTVS_HBOND_DONOR>
3
> <PUBCHEM_CACTVS_ROTATABLE_BOND>
7
> <PUBCHEM_CACTVS_SUBSKEYS>
AAADceB7sYAAAAAAAAAAAAAAAAAAAWAAAAAwYAAAAAAAAAABQAAAHwAQAAAADCjBmBQywIPAAACIAiVSUACCAAAlAgAIiIGIZMgIYDrA1bGUIYhglgDIyccYiECOSAACQAACAACQAASAAAQAAAAAAAAAAA==
> <PUBCHEM_IUPAC_OPENEYE_NAME>
2-amino-N-[2-[[(3R)-1-[[3-(dimethylamino)-4-methyl-phenyl]methyl]pyrrolidin-3-yl]amino]-2-oxo-ethyl]-5-(trifluoromethyl)benzamide
> <PUBCHEM_IUPAC_CAS_NAME>
2-amino-N-[2-[[(3R)-1-[[3-(dimethylamino)-4-methylphenyl]methyl]-3-pyrrolidinyl]amino]-2-oxoethyl]-5-(trifluoromethyl)benzamide
> <PUBCHEM_IUPAC_NAME_MARKUP>
2-amino-<I>N</I>-[2-[[(3<I>R</I>)-1-[[3-(dimethylamino)-4-methylphenyl]methyl]pyrrolidin-3-yl]amino]-2-oxoethyl]-5-(trifluoromethyl)benzamide
> <PUBCHEM_IUPAC_NAME>
2-amino-N-[2-[[(3R)-1-[[3-(dimethylamino)-4-methylphenyl]methyl]pyrrolidin-3-yl]amino]-2-oxoethyl]-5-(trifluoromethyl)benzamide
> <PUBCHEM_IUPAC_SYSTEMATIC_NAME>
2-azanyl-N-[2-[[(3R)-1-[[3-(dimethylamino)-4-methyl-phenyl]methyl]pyrrolidin-3-yl]amino]-2-oxidanylidene-ethyl]-5-(trifluoromethyl)benzamide
> <PUBCHEM_IUPAC_TRADITIONAL_NAME>
2-amino-N-[2-[[(3R)-1-[3-(dimethylamino)-4-methyl-benzyl]pyrrolidin-3-yl]amino]-2-keto-ethyl]-5-(trifluoromethyl)benzamide
> <PUBCHEM_IUPAC_INCHI>
InChI=1S/C24H30F3N5O2/c1-15-4-5-16(10-21(15)31(2)3)13-32-9-8-18(14-32)30-22(33)12-29-23(34)19-11-17(24(25,26)27)6-7-20(19)28/h4-7,10-11,18H,8-9,12-14,28H2,1-3H3,(H,29,34)(H,30,33)/t18-/m1/s1
> <PUBCHEM_IUPAC_INCHIKEY>
KUPJUTRANAUQNR-GOSISDBHSA-N
> <PUBCHEM_XLOGP3_AA>
3.5
> <PUBCHEM_EXACT_MASS>
477.23515970
> <PUBCHEM_MOLECULAR_FORMULA>
C24H30F3N5O2
> <PUBCHEM_MOLECULAR_WEIGHT>
477.5
> <PUBCHEM_OPENEYE_CAN_SMILES>
CC1=C(C=C(C=C1)CN2CCC(C2)NC(=O)CNC(=O)C3=C(C=CC(=C3)C(F)(F)F)N)N(C)C
> <PUBCHEM_OPENEYE_ISO_SMILES>
CC1=C(C=C(C=C1)CN2CC[C@H](C2)NC(=O)CNC(=O)C3=C(C=CC(=C3)C(F)(F)F)N)N(C)C
> <PUBCHEM_CACTVS_TPSA>
90.7
> <PUBCHEM_MONOISOTOPIC_WEIGHT>
477.23515970
> <PUBCHEM_TOTAL_CHARGE>
0
> <PUBCHEM_HEAVY_ATOM_COUNT>
34
> <PUBCHEM_ATOM_DEF_STEREO_COUNT>
1
> <PUBCHEM_ATOM_UDEF_STEREO_COUNT>
0
> <PUBCHEM_BOND_DEF_STEREO_COUNT>
0
> <PUBCHEM_BOND_UDEF_STEREO_COUNT>
0
> <PUBCHEM_ISOTOPIC_ATOM_COUNT>
0
> <PUBCHEM_COMPONENT_COUNT>
1
> <PUBCHEM_CACTVS_TAUTO_COUNT>
-1
> <PUBCHEM_COORDINATE_TYPE>
1
5
255
> <PUBCHEM_BONDANNOTATIONS>
16  18  8
16  19  8
18  21  8
19  23  8
21  22  8
22  23  8
28  29  8
28  30  8
29  32  8
30  31  8
31  33  8
32  33  8
11  7  5
$$$$
