508938
  -OEChem-10302200282D
 60 62  0     1  0  0  0  0  0999 V2000
   10.9842    2.8377    0.0000 Cl  0  0  0  0  0  0  0  0  0  0  0  0
   11.7976    4.6648    0.0000 Cl  0  0  0  0  0  0  0  0  0  0  0  0
    2.0000   -4.3693    0.0000 Cl  0  0  0  0  0  0  0  0  0  0  0  0
    3.7320   -5.3693    0.0000 Cl  0  0  0  0  0  0  0  0  0  0  0  0
    2.8660    2.1307    0.0000 S   0  0  0  0  0  0  0  0  0  0  0  0
    6.3301    0.1307    0.0000 O   0  0  0  0  0  0  0  0  0  0  0  0
    3.3660    2.9967    0.0000 O   0  0  0  0  0  0  0  0  0  0  0  0
    2.3660    1.2647    0.0000 O   0  0  0  0  0  0  0  0  0  0  0  0
    2.8660   -0.8693    0.0000 O   0  0  0  0  0  0  0  0  0  0  0  0
    7.4128    3.3331    0.0000 N   0  0  3  0  0  0  0  0  0  0  0  0
    5.4641    1.6307    0.0000 N   0  0  0  0  0  0  0  0  0  0  0  0
    4.5981   -0.8693    0.0000 N   0  0  0  0  0  0  0  0  0  0  0  0
    6.3301    2.1307    0.0000 C   0  0  1  0  0  0  0  0  0  0  0  0
    7.2437    1.7240    0.0000 C   0  0  0  0  0  0  0  0  0  0  0  0
    6.4347    3.1252    0.0000 C   0  0  0  0  0  0  0  0  0  0  0  0
    7.9128    2.4671    0.0000 C   0  0  0  0  0  0  0  0  0  0  0  0
    7.8195    4.2467    0.0000 C   0  0  0  0  0  0  0  0  0  0  0  0
    4.5981    0.1307    0.0000 C   0  0  2  0  0  0  0  0  0  0  0  0
    5.4641    0.6307    0.0000 C   0  0  0  0  0  0  0  0  0  0  0  0
    8.8141    4.3512    0.0000 C   0  0  0  0  0  0  0  0  0  0  0  0
    3.7320    0.6307    0.0000 C   0  0  0  0  0  0  0  0  0  0  0  0
    3.7320    1.6307    0.0000 C   0  0  0  0  0  0  0  0  0  0  0  0
    9.4018    3.5422    0.0000 C   0  0  0  0  0  0  0  0  0  0  0  0
    9.2208    5.2648    0.0000 C   0  0  0  0  0  0  0  0  0  0  0  0
    3.7320   -1.3693    0.0000 C   0  0  0  0  0  0  0  0  0  0  0  0
   10.3964    3.6467    0.0000 C   0  0  0  0  0  0  0  0  0  0  0  0
   10.2153    5.3693    0.0000 C   0  0  0  0  0  0  0  0  0  0  0  0
    2.0000    2.6307    0.0000 C   0  0  0  0  0  0  0  0  0  0  0  0
   10.8031    4.5603    0.0000 C   0  0  0  0  0  0  0  0  0  0  0  0
    3.7320   -2.3693    0.0000 C   0  0  0  0  0  0  0  0  0  0  0  0
    2.8660   -2.8693    0.0000 C   0  0  0  0  0  0  0  0  0  0  0  0
    4.5981   -2.8693    0.0000 C   0  0  0  0  0  0  0  0  0  0  0  0
    2.8660   -3.8693    0.0000 C   0  0  0  0  0  0  0  0  0  0  0  0
    4.5981   -3.8693    0.0000 C   0  0  0  0  0  0  0  0  0  0  0  0
    3.7320   -4.3693    0.0000 C   0  0  0  0  0  0  0  0  0  0  0  0
    6.3626    1.5116    0.0000 H   0  0  0  0  0  0  0  0  0  0  0  0
    6.9337    1.1870    0.0000 H   0  0  0  0  0  0  0  0  0  0  0  0
    7.7453    1.3596    0.0000 H   0  0  0  0  0  0  0  0  0  0  0  0
    6.3698    3.7418    0.0000 H   0  0  0  0  0  0  0  0  0  0  0  0
    5.8147    3.1252    0.0000 H   0  0  0  0  0  0  0  0  0  0  0  0
    8.3277    2.0064    0.0000 H   0  0  0  0  0  0  0  0  0  0  0  0
    8.4144    2.8315    0.0000 H   0  0  0  0  0  0  0  0  0  0  0  0
    4.9272    1.9407    0.0000 H   0  0  0  0  0  0  0  0  0  0  0  0
    7.8628    4.8652    0.0000 H   0  0  0  0  0  0  0  0  0  0  0  0
    7.2180    4.3967    0.0000 H   0  0  0  0  0  0  0  0  0  0  0  0
    5.1350   -0.1793    0.0000 H   0  0  0  0  0  0  0  0  0  0  0  0
    3.1215    0.7384    0.0000 H   0  0  0  0  0  0  0  0  0  0  0  0
    3.5200    0.0481    0.0000 H   0  0  0  0  0  0  0  0  0  0  0  0
    4.3426    1.5230    0.0000 H   0  0  0  0  0  0  0  0  0  0  0  0
    3.9441    2.2133    0.0000 H   0  0  0  0  0  0  0  0  0  0  0  0
    5.1350   -1.1793    0.0000 H   0  0  0  0  0  0  0  0  0  0  0  0
    9.1497    2.9758    0.0000 H   0  0  0  0  0  0  0  0  0  0  0  0
    8.8564    5.7664    0.0000 H   0  0  0  0  0  0  0  0  0  0  0  0
   10.4675    5.9357    0.0000 H   0  0  0  0  0  0  0  0  0  0  0  0
    2.3100    3.1676    0.0000 H   0  0  0  0  0  0  0  0  0  0  0  0
    1.4631    2.9407    0.0000 H   0  0  0  0  0  0  0  0  0  0  0  0
    1.6900    2.0938    0.0000 H   0  0  0  0  0  0  0  0  0  0  0  0
    2.3291   -2.5593    0.0000 H   0  0  0  0  0  0  0  0  0  0  0  0
    5.1350   -2.5593    0.0000 H   0  0  0  0  0  0  0  0  0  0  0  0
    5.1350   -4.1793    0.0000 H   0  0  0  0  0  0  0  0  0  0  0  0
  1 26  1  0  0  0  0
  2 29  1  0  0  0  0
  3 33  1  0  0  0  0
  4 35  1  0  0  0  0
  5  7  2  0  0  0  0
  5  8  2  0  0  0  0
  5 22  1  0  0  0  0
  5 28  1  0  0  0  0
  6 19  2  0  0  0  0
  9 25  2  0  0  0  0
 10 15  1  0  0  0  0
 10 16  1  0  0  0  0
 10 17  1  0  0  0  0
 13 11  1  6  0  0  0
 11 19  1  0  0  0  0
 11 43  1  0  0  0  0
 18 12  1  1  0  0  0
 12 25  1  0  0  0  0
 12 51  1  0  0  0  0
 13 14  1  0  0  0  0
 13 15  1  0  0  0  0
 13 36  1  0  0  0  0
 14 16  1  0  0  0  0
 14 37  1  0  0  0  0
 14 38  1  0  0  0  0
 15 39  1  0  0  0  0
 15 40  1  0  0  0  0
 16 41  1  0  0  0  0
 16 42  1  0  0  0  0
 17 20  1  0  0  0  0
 17 44  1  0  0  0  0
 17 45  1  0  0  0  0
 18 19  1  0  0  0  0
 18 21  1  0  0  0  0
 18 46  1  0  0  0  0
 20 23  2  0  0  0  0
 20 24  1  0  0  0  0
 21 22  1  0  0  0  0
 21 47  1  0  0  0  0
 21 48  1  0  0  0  0
 22 49  1  0  0  0  0
 22 50  1  0  0  0  0
 23 26  1  0  0  0  0
 23 52  1  0  0  0  0
 24 27  2  0  0  0  0
 24 53  1  0  0  0  0
 25 30  1  0  0  0  0
 26 29  2  0  0  0  0
 27 29  1  0  0  0  0
 27 54  1  0  0  0  0
 28 55  1  0  0  0  0
 28 56  1  0  0  0  0
 28 57  1  0  0  0  0
 30 31  2  0  0  0  0
 30 32  1  0  0  0  0
 31 33  1  0  0  0  0
 31 58  1  0  0  0  0
 32 34  2  0  0  0  0
 32 59  1  0  0  0  0
 33 35  2  0  0  0  0
 34 35  1  0  0  0  0
 34 60  1  0  0  0  0
M  END
> <PUBCHEM_COMPOUND_CID>
508938
> <PUBCHEM_COMPOUND_CANONICALIZED>
1
> <PUBCHEM_CACTVS_COMPLEXITY>
843
> <PUBCHEM_CACTVS_HBOND_ACCEPTOR>
5
> <PUBCHEM_CACTVS_HBOND_DONOR>
2
> <PUBCHEM_CACTVS_ROTATABLE_BOND>
9
> <PUBCHEM_CACTVS_SUBSKEYS>
AAADceB7OABHAAAAAAAAAAAAAAAAAWAAAAAwYAAAAAAAAAABQAAAHgYQAAAADCrF2CSyAIPAAAqIAiFSEHDCAAAkBRAIisGIBsgIYDKh1zGUIQhglgCIiYcYiACOBAAAIAAAAAQIAABAAAAACAAAAAAAAA==
> <PUBCHEM_IUPAC_OPENEYE_NAME>
3,4-dichloro-N-[(1S)-1-[[(3S)-1-[(3,4-dichlorophenyl)methyl]pyrrolidin-3-yl]carbamoyl]-3-methylsulfonyl-propyl]benzamide
> <PUBCHEM_IUPAC_CAS_NAME>
3,4-dichloro-N-[(2S)-1-[[(3S)-1-[(3,4-dichlorophenyl)methyl]-3-pyrrolidinyl]amino]-4-methylsulfonyl-1-oxobutan-2-yl]benzamide
> <PUBCHEM_IUPAC_NAME_MARKUP>
3,4-dichloro-<I>N</I>-[(2<I>S</I>)-1-[[(3<I>S</I>)-1-[(3,4-dichlorophenyl)methyl]pyrrolidin-3-yl]amino]-4-methylsulfonyl-1-oxobutan-2-yl]benzamide
> <PUBCHEM_IUPAC_NAME>
3,4-dichloro-N-[(2S)-1-[[(3S)-1-[(3,4-dichlorophenyl)methyl]pyrrolidin-3-yl]amino]-4-methylsulfonyl-1-oxobutan-2-yl]benzamide
> <PUBCHEM_IUPAC_SYSTEMATIC_NAME>
3,4-bis(chloranyl)-N-[(2S)-1-[[(3S)-1-[(3,4-dichlorophenyl)methyl]pyrrolidin-3-yl]amino]-4-methylsulfonyl-1-oxidanylidene-butan-2-yl]benzamide
> <PUBCHEM_IUPAC_TRADITIONAL_NAME>
3,4-dichloro-N-[(1S)-1-[[(3S)-1-(3,4-dichlorobenzyl)pyrrolidin-3-yl]carbamoyl]-3-mesyl-propyl]benzamide
> <PUBCHEM_IUPAC_INCHI>
InChI=1S/C23H25Cl4N3O4S/c1-35(33,34)9-7-21(29-22(31)15-3-5-18(25)20(27)11-15)23(32)28-16-6-8-30(13-16)12-14-2-4-17(24)19(26)10-14/h2-5,10-11,16,21H,6-9,12-13H2,1H3,(H,28,32)(H,29,31)/t16-,21-/m0/s1
> <PUBCHEM_IUPAC_INCHIKEY>
MRLNXGHRSJJREM-KKSFZXQISA-N
> <PUBCHEM_XLOGP3_AA>
4.6
> <PUBCHEM_EXACT_MASS>
581.029038
> <PUBCHEM_MOLECULAR_FORMULA>
C23H25Cl4N3O4S
> <PUBCHEM_MOLECULAR_WEIGHT>
581.3
> <PUBCHEM_OPENEYE_CAN_SMILES>
CS(=O)(=O)CCC(C(=O)NC1CCN(C1)CC2=CC(=C(C=C2)Cl)Cl)NC(=O)C3=CC(=C(C=C3)Cl)Cl
> <PUBCHEM_OPENEYE_ISO_SMILES>
CS(=O)(=O)CC[C@@H](C(=O)N[C@H]1CCN(C1)CC2=CC(=C(C=C2)Cl)Cl)NC(=O)C3=CC(=C(C=C3)Cl)Cl
> <PUBCHEM_CACTVS_TPSA>
104
> <PUBCHEM_MONOISOTOPIC_WEIGHT>
579.031988
> <PUBCHEM_TOTAL_CHARGE>
0
> <PUBCHEM_HEAVY_ATOM_COUNT>
35
> <PUBCHEM_ATOM_DEF_STEREO_COUNT>
2
> <PUBCHEM_ATOM_UDEF_STEREO_COUNT>
0
> <PUBCHEM_BOND_DEF_STEREO_COUNT>
0
> <PUBCHEM_BOND_UDEF_STEREO_COUNT>
0
> <PUBCHEM_ISOTOPIC_ATOM_COUNT>
0
> <PUBCHEM_COMPONENT_COUNT>
1
> <PUBCHEM_CACTVS_TAUTO_COUNT>
-1
> <PUBCHEM_COORDINATE_TYPE>
1
5
255
> <PUBCHEM_BONDANNOTATIONS>
13  11  6
18  12  5
20  23  8
20  24  8
23  26  8
24  27  8
26  29  8
27  29  8
30  31  8
30  32  8
31  33  8
32  34  8
33  35  8
34  35  8
$$$$
