508911
  -OEChem-10302200282D
 58 60  0     1  0  0  0  0  0999 V2000
   11.5211    1.9094    0.0000 Br  0  0  0  0  0  0  0  0  0  0  0  0
    6.8671   -5.7976    0.0000 F   0  0  0  0  0  0  0  0  0  0  0  0
    5.5010   -6.1636    0.0000 F   0  0  0  0  0  0  0  0  0  0  0  0
    6.5010   -4.4315    0.0000 F   0  0  0  0  0  0  0  0  0  0  0  0
    6.8671   -0.7976    0.0000 O   0  0  0  0  0  0  0  0  0  0  0  0
   11.1590    5.3546    0.0000 O   0  0  0  0  0  0  0  0  0  0  0  0
   12.3346    3.7365    0.0000 O   0  0  0  0  0  0  0  0  0  0  0  0
    3.4030   -1.7976    0.0000 O   0  0  0  0  0  0  0  0  0  0  0  0
    7.9497    2.4049    0.0000 N   0  0  3  0  0  0  0  0  0  0  0  0
    6.0010    0.7024    0.0000 N   0  0  0  0  0  0  0  0  0  0  0  0
    5.1350   -1.7976    0.0000 N   0  0  0  0  0  0  0  0  0  0  0  0
    2.5369   -3.2976    0.0000 N   0  0  0  0  0  0  0  0  0  0  0  0
    6.8671    1.2024    0.0000 C   0  0  2  0  0  0  0  0  0  0  0  0
    7.7806    0.7957    0.0000 C   0  0  0  0  0  0  0  0  0  0  0  0
    6.9716    2.1970    0.0000 C   0  0  0  0  0  0  0  0  0  0  0  0
    8.4497    1.5388    0.0000 C   0  0  0  0  0  0  0  0  0  0  0  0
    8.3565    3.3184    0.0000 C   0  0  0  0  0  0  0  0  0  0  0  0
    9.3510    3.4230    0.0000 C   0  0  0  0  0  0  0  0  0  0  0  0
    6.0010   -0.2976    0.0000 C   0  0  0  0  0  0  0  0  0  0  0  0
    9.7577    4.3365    0.0000 C   0  0  0  0  0  0  0  0  0  0  0  0
    9.9388    2.6139    0.0000 C   0  0  0  0  0  0  0  0  0  0  0  0
    5.1350   -0.7976    0.0000 C   0  0  0  0  0  0  0  0  0  0  0  0
   10.7523    4.4410    0.0000 C   0  0  0  0  0  0  0  0  0  0  0  0
   10.9333    2.7185    0.0000 C   0  0  0  0  0  0  0  0  0  0  0  0
   11.3400    3.6320    0.0000 C   0  0  0  0  0  0  0  0  0  0  0  0
    4.2690   -2.2976    0.0000 C   0  0  0  0  0  0  0  0  0  0  0  0
    4.2690   -3.2976    0.0000 C   0  0  0  0  0  0  0  0  0  0  0  0
    3.4030   -3.7976    0.0000 C   0  0  0  0  0  0  0  0  0  0  0  0
    5.1350   -3.7976    0.0000 C   0  0  0  0  0  0  0  0  0  0  0  0
   10.5712    6.1636    0.0000 C   0  0  0  0  0  0  0  0  0  0  0  0
    5.1350   -4.7976    0.0000 C   0  0  0  0  0  0  0  0  0  0  0  0
    3.4030   -4.7976    0.0000 C   0  0  0  0  0  0  0  0  0  0  0  0
    4.2690   -5.2976    0.0000 C   0  0  0  0  0  0  0  0  0  0  0  0
    6.0010   -5.2976    0.0000 C   0  0  0  0  0  0  0  0  0  0  0  0
    6.3471    1.5401    0.0000 H   0  0  0  0  0  0  0  0  0  0  0  0
    7.4706    0.2588    0.0000 H   0  0  0  0  0  0  0  0  0  0  0  0
    8.2822    0.4313    0.0000 H   0  0  0  0  0  0  0  0  0  0  0  0
    6.9068    2.8136    0.0000 H   0  0  0  0  0  0  0  0  0  0  0  0
    6.3516    2.1970    0.0000 H   0  0  0  0  0  0  0  0  0  0  0  0
    8.8646    1.0781    0.0000 H   0  0  0  0  0  0  0  0  0  0  0  0
    8.9513    1.9033    0.0000 H   0  0  0  0  0  0  0  0  0  0  0  0
    8.3997    3.9369    0.0000 H   0  0  0  0  0  0  0  0  0  0  0  0
    7.7549    3.4684    0.0000 H   0  0  0  0  0  0  0  0  0  0  0  0
    5.4641    1.0124    0.0000 H   0  0  0  0  0  0  0  0  0  0  0  0
    9.3933    4.8381    0.0000 H   0  0  0  0  0  0  0  0  0  0  0  0
    9.6866    2.0475    0.0000 H   0  0  0  0  0  0  0  0  0  0  0  0
    4.9230   -0.2150    0.0000 H   0  0  0  0  0  0  0  0  0  0  0  0
    4.5244   -0.9052    0.0000 H   0  0  0  0  0  0  0  0  0  0  0  0
    5.6720   -2.1076    0.0000 H   0  0  0  0  0  0  0  0  0  0  0  0
   12.5867    4.3029    0.0000 H   0  0  0  0  0  0  0  0  0  0  0  0
    5.6720   -3.4876    0.0000 H   0  0  0  0  0  0  0  0  0  0  0  0
   11.0728    6.5280    0.0000 H   0  0  0  0  0  0  0  0  0  0  0  0
   10.2068    6.6652    0.0000 H   0  0  0  0  0  0  0  0  0  0  0  0
   10.0696    5.7992    0.0000 H   0  0  0  0  0  0  0  0  0  0  0  0
    2.8660   -5.1076    0.0000 H   0  0  0  0  0  0  0  0  0  0  0  0
    4.2690   -5.9176    0.0000 H   0  0  0  0  0  0  0  0  0  0  0  0
    2.0000   -3.6076    0.0000 H   0  0  0  0  0  0  0  0  0  0  0  0
    2.5369   -2.6776    0.0000 H   0  0  0  0  0  0  0  0  0  0  0  0
  1 24  1  0  0  0  0
  2 34  1  0  0  0  0
  3 34  1  0  0  0  0
  4 34  1  0  0  0  0
  5 19  2  0  0  0  0
  6 23  1  0  0  0  0
  6 30  1  0  0  0  0
  7 25  1  0  0  0  0
  7 50  1  0  0  0  0
  8 26  2  0  0  0  0
  9 15  1  0  0  0  0
  9 16  1  0  0  0  0
  9 17  1  0  0  0  0
 13 10  1  1  0  0  0
 10 19  1  0  0  0  0
 10 44  1  0  0  0  0
 11 22  1  0  0  0  0
 11 26  1  0  0  0  0
 11 49  1  0  0  0  0
 12 28  1  0  0  0  0
 12 57  1  0  0  0  0
 12 58  1  0  0  0  0
 13 14  1  0  0  0  0
 13 15  1  0  0  0  0
 13 35  1  0  0  0  0
 14 16  1  0  0  0  0
 14 36  1  0  0  0  0
 14 37  1  0  0  0  0
 15 38  1  0  0  0  0
 15 39  1  0  0  0  0
 16 40  1  0  0  0  0
 16 41  1  0  0  0  0
 17 18  1  0  0  0  0
 17 42  1  0  0  0  0
 17 43  1  0  0  0  0
 18 20  2  0  0  0  0
 18 21  1  0  0  0  0
 19 22  1  0  0  0  0
 20 23  1  0  0  0  0
 20 45  1  0  0  0  0
 21 24  2  0  0  0  0
 21 46  1  0  0  0  0
 22 47  1  0  0  0  0
 22 48  1  0  0  0  0
 23 25  2  0  0  0  0
 24 25  1  0  0  0  0
 26 27  1  0  0  0  0
 27 28  2  0  0  0  0
 27 29  1  0  0  0  0
 28 32  1  0  0  0  0
 29 31  2  0  0  0  0
 29 51  1  0  0  0  0
 30 52  1  0  0  0  0
 30 53  1  0  0  0  0
 30 54  1  0  0  0  0
 31 33  1  0  0  0  0
 31 34  1  0  0  0  0
 32 33  2  0  0  0  0
 32 55  1  0  0  0  0
 33 56  1  0  0  0  0
M  END
> <PUBCHEM_COMPOUND_CID>
508911
> <PUBCHEM_COMPOUND_CANONICALIZED>
1
> <PUBCHEM_CACTVS_COMPLEXITY>
716
> <PUBCHEM_CACTVS_HBOND_ACCEPTOR>
9
> <PUBCHEM_CACTVS_HBOND_DONOR>
4
> <PUBCHEM_CACTVS_ROTATABLE_BOND>
7
> <PUBCHEM_CACTVS_SUBSKEYS>
AAADceB7uYAAEAAAAAAAAAAAAAAAAWAAAAAwYAAAAAAAAAABQAAAHwBQCAABrCzBmBYyxoPABgCIAiVSUACCCAAkIgQIiIGO7OgNZjqG9buUcatk1hGL+9e42FKOKAADEIACRABQAAYhAASIAAAAAAAAAA==
> <PUBCHEM_IUPAC_OPENEYE_NAME>
2-amino-N-[2-[[(3R)-1-[(3-bromo-4-hydroxy-5-methoxy-phenyl)methyl]pyrrolidin-3-yl]amino]-2-oxo-ethyl]-5-(trifluoromethyl)benzamide
> <PUBCHEM_IUPAC_CAS_NAME>
2-amino-N-[2-[[(3R)-1-[(3-bromo-4-hydroxy-5-methoxyphenyl)methyl]-3-pyrrolidinyl]amino]-2-oxoethyl]-5-(trifluoromethyl)benzamide
> <PUBCHEM_IUPAC_NAME_MARKUP>
2-amino-<I>N</I>-[2-[[(3<I>R</I>)-1-[(3-bromo-4-hydroxy-5-methoxyphenyl)methyl]pyrrolidin-3-yl]amino]-2-oxoethyl]-5-(trifluoromethyl)benzamide
> <PUBCHEM_IUPAC_NAME>
2-amino-N-[2-[[(3R)-1-[(3-bromo-4-hydroxy-5-methoxyphenyl)methyl]pyrrolidin-3-yl]amino]-2-oxoethyl]-5-(trifluoromethyl)benzamide
> <PUBCHEM_IUPAC_SYSTEMATIC_NAME>
2-azanyl-N-[2-[[(3R)-1-[(3-bromanyl-5-methoxy-4-oxidanyl-phenyl)methyl]pyrrolidin-3-yl]amino]-2-oxidanylidene-ethyl]-5-(trifluoromethyl)benzamide
> <PUBCHEM_IUPAC_TRADITIONAL_NAME>
2-amino-N-[2-[[(3R)-1-(3-bromo-4-hydroxy-5-methoxy-benzyl)pyrrolidin-3-yl]amino]-2-keto-ethyl]-5-(trifluoromethyl)benzamide
> <PUBCHEM_IUPAC_INCHI>
InChI=1S/C22H24BrF3N4O4/c1-34-18-7-12(6-16(23)20(18)32)10-30-5-4-14(11-30)29-19(31)9-28-21(33)15-8-13(22(24,25)26)2-3-17(15)27/h2-3,6-8,14,32H,4-5,9-11,27H2,1H3,(H,28,33)(H,29,31)/t14-/m1/s1
> <PUBCHEM_IUPAC_INCHIKEY>
QBTIYOVCGIKKQQ-CQSZACIVSA-N
> <PUBCHEM_XLOGP3_AA>
3.3
> <PUBCHEM_EXACT_MASS>
544.09330
> <PUBCHEM_MOLECULAR_FORMULA>
C22H24BrF3N4O4
> <PUBCHEM_MOLECULAR_WEIGHT>
545.3
> <PUBCHEM_OPENEYE_CAN_SMILES>
COC1=C(C(=CC(=C1)CN2CCC(C2)NC(=O)CNC(=O)C3=C(C=CC(=C3)C(F)(F)F)N)Br)O
> <PUBCHEM_OPENEYE_ISO_SMILES>
COC1=C(C(=CC(=C1)CN2CC[C@H](C2)NC(=O)CNC(=O)C3=C(C=CC(=C3)C(F)(F)F)N)Br)O
> <PUBCHEM_CACTVS_TPSA>
117
> <PUBCHEM_MONOISOTOPIC_WEIGHT>
544.09330
> <PUBCHEM_TOTAL_CHARGE>
0
> <PUBCHEM_HEAVY_ATOM_COUNT>
34
> <PUBCHEM_ATOM_DEF_STEREO_COUNT>
1
> <PUBCHEM_ATOM_UDEF_STEREO_COUNT>
0
> <PUBCHEM_BOND_DEF_STEREO_COUNT>
0
> <PUBCHEM_BOND_UDEF_STEREO_COUNT>
0
> <PUBCHEM_ISOTOPIC_ATOM_COUNT>
0
> <PUBCHEM_COMPONENT_COUNT>
1
> <PUBCHEM_CACTVS_TAUTO_COUNT>
-1
> <PUBCHEM_COORDINATE_TYPE>
1
5
255
> <PUBCHEM_BONDANNOTATIONS>
13  10  5
18  20  8
18  21  8
20  23  8
21  24  8
23  25  8
24  25  8
27  28  8
27  29  8
28  32  8
29  31  8
31  33  8
32  33  8
$$$$
