508915
  -OEChem-10302200282D
 58 61  0     1  0  0  0  0  0999 V2000
    6.4470   -4.2328    0.0000 F   0  0  0  0  0  0  0  0  0  0  0  0
    7.3370   -5.3318    0.0000 F   0  0  0  0  0  0  0  0  0  0  0  0
    6.2380   -6.2218    0.0000 F   0  0  0  0  0  0  0  0  0  0  0  0
    8.5342    3.7971    0.0000 O   0  0  0  0  0  0  0  0  0  0  0  0
    5.3034   -0.7641    0.0000 O   0  0  0  0  0  0  0  0  0  0  0  0
    8.5342    5.4066    0.0000 O   0  0  0  0  0  0  0  0  0  0  0  0
    2.5455   -3.0866    0.0000 O   0  0  0  0  0  0  0  0  0  0  0  0
    4.9899    2.6018    0.0000 N   0  0  3  0  0  0  0  0  0  0  0  0
    3.9021    0.2540    0.0000 N   0  0  0  0  0  0  0  0  0  0  0  0
    4.9899    5.6018    0.0000 N   0  0  0  0  0  0  0  0  0  0  0  0
    4.1278   -2.3821    0.0000 N   0  0  0  0  0  0  0  0  0  0  0  0
    2.3644   -4.8092    0.0000 N   0  0  0  0  0  0  0  0  0  0  0  0
    4.4899    1.0630    0.0000 C   0  0  1  0  0  0  0  0  0  0  0  0
    4.1809    2.0140    0.0000 C   0  0  0  0  0  0  0  0  0  0  0  0
    5.4899    1.0630    0.0000 C   0  0  0  0  0  0  0  0  0  0  0  0
    5.7989    2.0140    0.0000 C   0  0  0  0  0  0  0  0  0  0  0  0
    4.9899    3.6018    0.0000 C   0  0  0  0  0  0  0  0  0  0  0  0
    5.8559    4.1018    0.0000 C   0  0  0  0  0  0  0  0  0  0  0  0
    4.3088   -0.6596    0.0000 C   0  0  0  0  0  0  0  0  0  0  0  0
    5.8559    5.1018    0.0000 C   0  0  0  0  0  0  0  0  0  0  0  0
    6.7219    3.6018    0.0000 C   0  0  0  0  0  0  0  0  0  0  0  0
    3.7210   -1.4686    0.0000 C   0  0  0  0  0  0  0  0  0  0  0  0
    7.5880    4.1018    0.0000 C   0  0  0  0  0  0  0  0  0  0  0  0
    6.7219    5.6018    0.0000 C   0  0  0  0  0  0  0  0  0  0  0  0
    7.5880    5.1018    0.0000 C   0  0  0  0  0  0  0  0  0  0  0  0
    9.1178    4.6018    0.0000 C   0  0  0  0  0  0  0  0  0  0  0  0
    3.5400   -3.1912    0.0000 C   0  0  0  0  0  0  0  0  0  0  0  0
    3.9467   -4.1047    0.0000 C   0  0  0  0  0  0  0  0  0  0  0  0
    3.3590   -4.9137    0.0000 C   0  0  0  0  0  0  0  0  0  0  0  0
    4.9413   -4.2092    0.0000 C   0  0  0  0  0  0  0  0  0  0  0  0
    5.3480   -5.1228    0.0000 C   0  0  0  0  0  0  0  0  0  0  0  0
    3.7657   -5.8273    0.0000 C   0  0  0  0  0  0  0  0  0  0  0  0
    4.7602   -5.9318    0.0000 C   0  0  0  0  0  0  0  0  0  0  0  0
    6.3425   -5.2273    0.0000 C   0  0  0  0  0  0  0  0  0  0  0  0
    3.8775    1.1600    0.0000 H   0  0  0  0  0  0  0  0  0  0  0  0
    3.8709    2.5510    0.0000 H   0  0  0  0  0  0  0  0  0  0  0  0
    3.6145    1.7619    0.0000 H   0  0  0  0  0  0  0  0  0  0  0  0
    5.4251    0.4464    0.0000 H   0  0  0  0  0  0  0  0  0  0  0  0
    6.0963    0.9341    0.0000 H   0  0  0  0  0  0  0  0  0  0  0  0
    6.3653    1.7619    0.0000 H   0  0  0  0  0  0  0  0  0  0  0  0
    6.1089    2.5510    0.0000 H   0  0  0  0  0  0  0  0  0  0  0  0
    4.7778    4.1844    0.0000 H   0  0  0  0  0  0  0  0  0  0  0  0
    4.3793    3.4942    0.0000 H   0  0  0  0  0  0  0  0  0  0  0  0
    3.2855    0.3188    0.0000 H   0  0  0  0  0  0  0  0  0  0  0  0
    6.7219    2.9818    0.0000 H   0  0  0  0  0  0  0  0  0  0  0  0
    3.2904   -1.0226    0.0000 H   0  0  0  0  0  0  0  0  0  0  0  0
    3.2070   -1.8153    0.0000 H   0  0  0  0  0  0  0  0  0  0  0  0
    6.7219    6.2218    0.0000 H   0  0  0  0  0  0  0  0  0  0  0  0
    4.9899    6.2218    0.0000 H   0  0  0  0  0  0  0  0  0  0  0  0
    4.4529    5.2918    0.0000 H   0  0  0  0  0  0  0  0  0  0  0  0
    4.7444   -2.4470    0.0000 H   0  0  0  0  0  0  0  0  0  0  0  0
    9.5786    4.1871    0.0000 H   0  0  0  0  0  0  0  0  0  0  0  0
    9.5786    5.0165    0.0000 H   0  0  0  0  0  0  0  0  0  0  0  0
    5.3057   -3.7076    0.0000 H   0  0  0  0  0  0  0  0  0  0  0  0
    3.4013   -6.3289    0.0000 H   0  0  0  0  0  0  0  0  0  0  0  0
    5.0124   -6.4982    0.0000 H   0  0  0  0  0  0  0  0  0  0  0  0
    2.0000   -5.3108    0.0000 H   0  0  0  0  0  0  0  0  0  0  0  0
    2.1122   -4.2428    0.0000 H   0  0  0  0  0  0  0  0  0  0  0  0
  1 34  1  0  0  0  0
  2 34  1  0  0  0  0
  3 34  1  0  0  0  0
  4 23  1  0  0  0  0
  4 26  1  0  0  0  0
  5 19  2  0  0  0  0
  6 25  1  0  0  0  0
  6 26  1  0  0  0  0
  7 27  2  0  0  0  0
  8 14  1  0  0  0  0
  8 16  1  0  0  0  0
  8 17  1  0  0  0  0
 13  9  1  1  0  0  0
  9 19  1  0  0  0  0
  9 44  1  0  0  0  0
 10 20  1  0  0  0  0
 10 49  1  0  0  0  0
 10 50  1  0  0  0  0
 11 22  1  0  0  0  0
 11 27  1  0  0  0  0
 11 51  1  0  0  0  0
 12 29  1  0  0  0  0
 12 57  1  0  0  0  0
 12 58  1  0  0  0  0
 13 14  1  0  0  0  0
 13 15  1  0  0  0  0
 13 35  1  0  0  0  0
 14 36  1  0  0  0  0
 14 37  1  0  0  0  0
 15 16  1  0  0  0  0
 15 38  1  0  0  0  0
 15 39  1  0  0  0  0
 16 40  1  0  0  0  0
 16 41  1  0  0  0  0
 17 18  1  0  0  0  0
 17 42  1  0  0  0  0
 17 43  1  0  0  0  0
 18 20  1  0  0  0  0
 18 21  2  0  0  0  0
 19 22  1  0  0  0  0
 20 24  2  0  0  0  0
 21 23  1  0  0  0  0
 21 45  1  0  0  0  0
 22 46  1  0  0  0  0
 22 47  1  0  0  0  0
 23 25  2  0  0  0  0
 24 25  1  0  0  0  0
 24 48  1  0  0  0  0
 26 52  1  0  0  0  0
 26 53  1  0  0  0  0
 27 28  1  0  0  0  0
 28 29  2  0  0  0  0
 28 30  1  0  0  0  0
 29 32  1  0  0  0  0
 30 31  2  0  0  0  0
 30 54  1  0  0  0  0
 31 33  1  0  0  0  0
 31 34  1  0  0  0  0
 32 33  2  0  0  0  0
 32 55  1  0  0  0  0
 33 56  1  0  0  0  0
M  END
> <PUBCHEM_COMPOUND_CID>
508915
> <PUBCHEM_COMPOUND_CANONICALIZED>
1
> <PUBCHEM_CACTVS_COMPLEXITY>
742
> <PUBCHEM_CACTVS_HBOND_ACCEPTOR>
10
> <PUBCHEM_CACTVS_HBOND_DONOR>
4
> <PUBCHEM_CACTVS_ROTATABLE_BOND>
6
> <PUBCHEM_CACTVS_SUBSKEYS>
AAADceB7uYAAAAAAAAAAAAAAAAAAAWJAAAAwYAAAAAAAAEgBQAAAHwAQAAAADCzBmBcwzoPABACIAiVSUACCCAAkIgAIiIGO7MgdZjqE9bu0Mapm1hmO6ce42FOOKEADAgACQABQgAYEAASAAAAAAAAAAA==
> <PUBCHEM_IUPAC_OPENEYE_NAME>
2-amino-N-[2-[[(3R)-1-[(6-amino-1,3-benzodioxol-5-yl)methyl]pyrrolidin-3-yl]amino]-2-oxo-ethyl]-5-(trifluoromethyl)benzamide
> <PUBCHEM_IUPAC_CAS_NAME>
2-amino-N-[2-[[(3R)-1-[(6-amino-1,3-benzodioxol-5-yl)methyl]-3-pyrrolidinyl]amino]-2-oxoethyl]-5-(trifluoromethyl)benzamide
> <PUBCHEM_IUPAC_NAME_MARKUP>
2-amino-<I>N</I>-[2-[[(3<I>R</I>)-1-[(6-amino-1,3-benzodioxol-5-yl)methyl]pyrrolidin-3-yl]amino]-2-oxoethyl]-5-(trifluoromethyl)benzamide
> <PUBCHEM_IUPAC_NAME>
2-amino-N-[2-[[(3R)-1-[(6-amino-1,3-benzodioxol-5-yl)methyl]pyrrolidin-3-yl]amino]-2-oxoethyl]-5-(trifluoromethyl)benzamide
> <PUBCHEM_IUPAC_SYSTEMATIC_NAME>
2-azanyl-N-[2-[[(3R)-1-[(6-azanyl-1,3-benzodioxol-5-yl)methyl]pyrrolidin-3-yl]amino]-2-oxidanylidene-ethyl]-5-(trifluoromethyl)benzamide
> <PUBCHEM_IUPAC_TRADITIONAL_NAME>
2-amino-N-[2-[[(3R)-1-[(6-amino-1,3-benzodioxol-5-yl)methyl]pyrrolidin-3-yl]amino]-2-keto-ethyl]-5-(trifluoromethyl)benzamide
> <PUBCHEM_IUPAC_INCHI>
InChI=1S/C22H24F3N5O4/c23-22(24,25)13-1-2-16(26)15(6-13)21(32)28-8-20(31)29-14-3-4-30(10-14)9-12-5-18-19(7-17(12)27)34-11-33-18/h1-2,5-7,14H,3-4,8-11,26-27H2,(H,28,32)(H,29,31)/t14-/m1/s1
> <PUBCHEM_IUPAC_INCHIKEY>
IIRQFJYVRKSPIB-CQSZACIVSA-N
> <PUBCHEM_XLOGP3_AA>
2.2
> <PUBCHEM_EXACT_MASS>
479.17803875
> <PUBCHEM_MOLECULAR_FORMULA>
C22H24F3N5O4
> <PUBCHEM_MOLECULAR_WEIGHT>
479.5
> <PUBCHEM_OPENEYE_CAN_SMILES>
C1CN(CC1NC(=O)CNC(=O)C2=C(C=CC(=C2)C(F)(F)F)N)CC3=CC4=C(C=C3N)OCO4
> <PUBCHEM_OPENEYE_ISO_SMILES>
C1CN(C[C@@H]1NC(=O)CNC(=O)C2=C(C=CC(=C2)C(F)(F)F)N)CC3=CC4=C(C=C3N)OCO4
> <PUBCHEM_CACTVS_TPSA>
132
> <PUBCHEM_MONOISOTOPIC_WEIGHT>
479.17803875
> <PUBCHEM_TOTAL_CHARGE>
0
> <PUBCHEM_HEAVY_ATOM_COUNT>
34
> <PUBCHEM_ATOM_DEF_STEREO_COUNT>
1
> <PUBCHEM_ATOM_UDEF_STEREO_COUNT>
0
> <PUBCHEM_BOND_DEF_STEREO_COUNT>
0
> <PUBCHEM_BOND_UDEF_STEREO_COUNT>
0
> <PUBCHEM_ISOTOPIC_ATOM_COUNT>
0
> <PUBCHEM_COMPONENT_COUNT>
1
> <PUBCHEM_CACTVS_TAUTO_COUNT>
-1
> <PUBCHEM_COORDINATE_TYPE>
1
5
255
> <PUBCHEM_BONDANNOTATIONS>
18  20  8
18  21  8
20  24  8
21  23  8
23  25  8
24  25  8
28  29  8
28  30  8
29  32  8
30  31  8
31  33  8
32  33  8
13  9  5
$$$$
