508986
  -OEChem-10302200282D
 63 65  0     1  0  0  0  0  0999 V2000
    2.0000   -6.5000    0.0000 Cl  0  0  0  0  0  0  0  0  0  0  0  0
    3.7320   -7.5000    0.0000 Cl  0  0  0  0  0  0  0  0  0  0  0  0
    8.9282   -0.5000    0.0000 O   0  0  0  0  0  0  0  0  0  0  0  0
    8.0622    3.0000    0.0000 O   0  0  0  0  0  0  0  0  0  0  0  0
    9.7942    7.0000    0.0000 O   0  0  0  0  0  0  0  0  0  0  0  0
    4.5981   -3.0000    0.0000 N   0  0  0  0  0  0  0  0  0  0  0  0
    7.1962   -0.5000    0.0000 N   0  0  0  0  0  0  0  0  0  0  0  0
    8.9282    1.5000    0.0000 N   0  0  0  0  0  0  0  0  0  0  0  0
    9.7942    3.0000    0.0000 N   0  0  0  0  0  0  0  0  0  0  0  0
    6.3301   -2.0000    0.0000 C   0  0  0  0  0  0  0  0  0  0  0  0
    5.4641   -1.5000    0.0000 C   0  0  0  0  0  0  0  0  0  0  0  0
    6.3301   -3.0000    0.0000 C   0  0  0  0  0  0  0  0  0  0  0  0
    4.5981   -2.0000    0.0000 C   0  0  0  0  0  0  0  0  0  0  0  0
    5.4641   -3.5000    0.0000 C   0  0  0  0  0  0  0  0  0  0  0  0
    7.1962   -1.5000    0.0000 C   0  0  0  0  0  0  0  0  0  0  0  0
    3.7320   -3.5000    0.0000 C   0  0  0  0  0  0  0  0  0  0  0  0
    3.7320   -4.5000    0.0000 C   0  0  0  0  0  0  0  0  0  0  0  0
    8.0622    0.0000    0.0000 C   0  0  0  0  0  0  0  0  0  0  0  0
    8.0622    1.0000    0.0000 C   0  0  2  0  0  0  0  0  0  0  0  0
    2.8660   -5.0000    0.0000 C   0  0  0  0  0  0  0  0  0  0  0  0
    4.5981   -5.0000    0.0000 C   0  0  0  0  0  0  0  0  0  0  0  0
    2.8660   -6.0000    0.0000 C   0  0  0  0  0  0  0  0  0  0  0  0
    4.5981   -6.0000    0.0000 C   0  0  0  0  0  0  0  0  0  0  0  0
    7.1962    1.5000    0.0000 C   0  0  0  0  0  0  0  0  0  0  0  0
    3.7320   -6.5000    0.0000 C   0  0  0  0  0  0  0  0  0  0  0  0
    8.9282    2.5000    0.0000 C   0  0  0  0  0  0  0  0  0  0  0  0
    9.7942    4.0000    0.0000 C   0  0  0  0  0  0  0  0  0  0  0  0
    8.9282    4.5000    0.0000 C   0  0  0  0  0  0  0  0  0  0  0  0
   10.6603    4.5000    0.0000 C   0  0  0  0  0  0  0  0  0  0  0  0
    8.9282    5.5000    0.0000 C   0  0  0  0  0  0  0  0  0  0  0  0
   10.6603    5.5000    0.0000 C   0  0  0  0  0  0  0  0  0  0  0  0
    9.7942    6.0000    0.0000 C   0  0  0  0  0  0  0  0  0  0  0  0
   10.6603    7.5000    0.0000 C   0  0  0  0  0  0  0  0  0  0  0  0
    6.8671   -2.3100    0.0000 H   0  0  0  0  0  0  0  0  0  0  0  0
    5.8626   -1.0250    0.0000 H   0  0  0  0  0  0  0  0  0  0  0  0
    5.0656   -1.0250    0.0000 H   0  0  0  0  0  0  0  0  0  0  0  0
    6.5422   -3.5826    0.0000 H   0  0  0  0  0  0  0  0  0  0  0  0
    6.9407   -2.8923    0.0000 H   0  0  0  0  0  0  0  0  0  0  0  0
    4.3860   -1.4174    0.0000 H   0  0  0  0  0  0  0  0  0  0  0  0
    3.9875   -2.1077    0.0000 H   0  0  0  0  0  0  0  0  0  0  0  0
    5.0656   -3.9750    0.0000 H   0  0  0  0  0  0  0  0  0  0  0  0
    5.8626   -3.9750    0.0000 H   0  0  0  0  0  0  0  0  0  0  0  0
    7.4082   -2.0826    0.0000 H   0  0  0  0  0  0  0  0  0  0  0  0
    7.8067   -1.3923    0.0000 H   0  0  0  0  0  0  0  0  0  0  0  0
    3.5200   -2.9174    0.0000 H   0  0  0  0  0  0  0  0  0  0  0  0
    3.1215   -3.6077    0.0000 H   0  0  0  0  0  0  0  0  0  0  0  0
    6.6592   -0.1900    0.0000 H   0  0  0  0  0  0  0  0  0  0  0  0
    8.0622    1.6200    0.0000 H   0  0  0  0  0  0  0  0  0  0  0  0
    2.3291   -4.6900    0.0000 H   0  0  0  0  0  0  0  0  0  0  0  0
    5.1350   -4.6900    0.0000 H   0  0  0  0  0  0  0  0  0  0  0  0
    7.5062    2.0369    0.0000 H   0  0  0  0  0  0  0  0  0  0  0  0
    6.6592    1.8100    0.0000 H   0  0  0  0  0  0  0  0  0  0  0  0
    6.8862    0.9631    0.0000 H   0  0  0  0  0  0  0  0  0  0  0  0
    5.1350   -6.3100    0.0000 H   0  0  0  0  0  0  0  0  0  0  0  0
    9.4651    1.1900    0.0000 H   0  0  0  0  0  0  0  0  0  0  0  0
   10.3312    2.6900    0.0000 H   0  0  0  0  0  0  0  0  0  0  0  0
    8.3913    4.1900    0.0000 H   0  0  0  0  0  0  0  0  0  0  0  0
   11.1972    4.1900    0.0000 H   0  0  0  0  0  0  0  0  0  0  0  0
    8.3913    5.8100    0.0000 H   0  0  0  0  0  0  0  0  0  0  0  0
   11.1972    5.8100    0.0000 H   0  0  0  0  0  0  0  0  0  0  0  0
   10.9703    6.9631    0.0000 H   0  0  0  0  0  0  0  0  0  0  0  0
   11.1972    7.8100    0.0000 H   0  0  0  0  0  0  0  0  0  0  0  0
   10.3503    8.0369    0.0000 H   0  0  0  0  0  0  0  0  0  0  0  0
  1 22  1  0  0  0  0
  2 25  1  0  0  0  0
  3 18  2  0  0  0  0
  4 26  2  0  0  0  0
  5 32  1  0  0  0  0
  5 33  1  0  0  0  0
  6 13  1  0  0  0  0
  6 14  1  0  0  0  0
  6 16  1  0  0  0  0
  7 15  1  0  0  0  0
  7 18  1  0  0  0  0
  7 47  1  0  0  0  0
 19  8  1  6  0  0  0
  8 26  1  0  0  0  0
  8 55  1  0  0  0  0
  9 26  1  0  0  0  0
  9 27  1  0  0  0  0
  9 56  1  0  0  0  0
 10 11  1  0  0  0  0
 10 12  1  0  0  0  0
 10 15  1  0  0  0  0
 10 34  1  0  0  0  0
 11 13  1  0  0  0  0
 11 35  1  0  0  0  0
 11 36  1  0  0  0  0
 12 14  1  0  0  0  0
 12 37  1  0  0  0  0
 12 38  1  0  0  0  0
 13 39  1  0  0  0  0
 13 40  1  0  0  0  0
 14 41  1  0  0  0  0
 14 42  1  0  0  0  0
 15 43  1  0  0  0  0
 15 44  1  0  0  0  0
 16 17  1  0  0  0  0
 16 45  1  0  0  0  0
 16 46  1  0  0  0  0
 17 20  2  0  0  0  0
 17 21  1  0  0  0  0
 18 19  1  0  0  0  0
 19 24  1  0  0  0  0
 19 48  1  0  0  0  0
 20 22  1  0  0  0  0
 20 49  1  0  0  0  0
 21 23  2  0  0  0  0
 21 50  1  0  0  0  0
 22 25  2  0  0  0  0
 23 25  1  0  0  0  0
 23 54  1  0  0  0  0
 24 51  1  0  0  0  0
 24 52  1  0  0  0  0
 24 53  1  0  0  0  0
 27 28  2  0  0  0  0
 27 29  1  0  0  0  0
 28 30  1  0  0  0  0
 28 57  1  0  0  0  0
 29 31  2  0  0  0  0
 29 58  1  0  0  0  0
 30 32  2  0  0  0  0
 30 59  1  0  0  0  0
 31 32  1  0  0  0  0
 31 60  1  0  0  0  0
 33 61  1  0  0  0  0
 33 62  1  0  0  0  0
 33 63  1  0  0  0  0
M  END
> <PUBCHEM_COMPOUND_CID>
508986
> <PUBCHEM_COMPOUND_CANONICALIZED>
1
> <PUBCHEM_CACTVS_COMPLEXITY>
625
> <PUBCHEM_CACTVS_HBOND_ACCEPTOR>
4
> <PUBCHEM_CACTVS_HBOND_DONOR>
3
> <PUBCHEM_CACTVS_ROTATABLE_BOND>
8
> <PUBCHEM_CACTVS_SUBSKEYS>
AAADceB7sAAGAAAAAAAAAAAAAAAAAAAAAAA8YIAAAAAAAAABQAAAHgIQAAAADS7BmCYzxoPABACIAiVSUACCCAAhJwAIisGOboiMZiLFs7uUMChs1hPI6CewwAAOBEAAIAAAAAQIgABAAAAACAAAAAAAAA==
> <PUBCHEM_IUPAC_OPENEYE_NAME>
(2S)-N-[[1-[(3,4-dichlorophenyl)methyl]-4-piperidyl]methyl]-2-[(4-methoxyphenyl)carbamoylamino]propanamide
> <PUBCHEM_IUPAC_CAS_NAME>
(2S)-N-[[1-[(3,4-dichlorophenyl)methyl]-4-piperidinyl]methyl]-2-[[(4-methoxyanilino)-oxomethyl]amino]propanamide
> <PUBCHEM_IUPAC_NAME_MARKUP>
(2<I>S</I>)-<I>N</I>-[[1-[(3,4-dichlorophenyl)methyl]piperidin-4-yl]methyl]-2-[(4-methoxyphenyl)carbamoylamino]propanamide
> <PUBCHEM_IUPAC_NAME>
(2S)-N-[[1-[(3,4-dichlorophenyl)methyl]piperidin-4-yl]methyl]-2-[(4-methoxyphenyl)carbamoylamino]propanamide
> <PUBCHEM_IUPAC_SYSTEMATIC_NAME>
(2S)-N-[[1-[(3,4-dichlorophenyl)methyl]piperidin-4-yl]methyl]-2-[(4-methoxyphenyl)carbamoylamino]propanamide
> <PUBCHEM_IUPAC_TRADITIONAL_NAME>
(2S)-N-[[1-(3,4-dichlorobenzyl)-4-piperidyl]methyl]-2-[(4-methoxyphenyl)carbamoylamino]propionamide
> <PUBCHEM_IUPAC_INCHI>
InChI=1S/C24H30Cl2N4O3/c1-16(28-24(32)29-19-4-6-20(33-2)7-5-19)23(31)27-14-17-9-11-30(12-10-17)15-18-3-8-21(25)22(26)13-18/h3-8,13,16-17H,9-12,14-15H2,1-2H3,(H,27,31)(H2,28,29,32)/t16-/m0/s1
> <PUBCHEM_IUPAC_INCHIKEY>
SXSCIXVBYKRRED-INIZCTEOSA-N
> <PUBCHEM_XLOGP3_AA>
4.2
> <PUBCHEM_EXACT_MASS>
492.1694962
> <PUBCHEM_MOLECULAR_FORMULA>
C24H30Cl2N4O3
> <PUBCHEM_MOLECULAR_WEIGHT>
493.4
> <PUBCHEM_OPENEYE_CAN_SMILES>
CC(C(=O)NCC1CCN(CC1)CC2=CC(=C(C=C2)Cl)Cl)NC(=O)NC3=CC=C(C=C3)OC
> <PUBCHEM_OPENEYE_ISO_SMILES>
C[C@@H](C(=O)NCC1CCN(CC1)CC2=CC(=C(C=C2)Cl)Cl)NC(=O)NC3=CC=C(C=C3)OC
> <PUBCHEM_CACTVS_TPSA>
82.7
> <PUBCHEM_MONOISOTOPIC_WEIGHT>
492.1694962
> <PUBCHEM_TOTAL_CHARGE>
0
> <PUBCHEM_HEAVY_ATOM_COUNT>
33
> <PUBCHEM_ATOM_DEF_STEREO_COUNT>
1
> <PUBCHEM_ATOM_UDEF_STEREO_COUNT>
0
> <PUBCHEM_BOND_DEF_STEREO_COUNT>
0
> <PUBCHEM_BOND_UDEF_STEREO_COUNT>
0
> <PUBCHEM_ISOTOPIC_ATOM_COUNT>
0
> <PUBCHEM_COMPONENT_COUNT>
1
> <PUBCHEM_CACTVS_TAUTO_COUNT>
-1
> <PUBCHEM_COORDINATE_TYPE>
1
5
255
> <PUBCHEM_BONDANNOTATIONS>
17  20  8
17  21  8
20  22  8
21  23  8
22  25  8
23  25  8
27  28  8
27  29  8
28  30  8
29  31  8
30  32  8
31  32  8
19  8  6
$$$$
