508917
  -OEChem-10302200282D
 66 69  0     1  0  0  0  0  0999 V2000
    5.5010   -6.2805    0.0000 F   0  0  0  0  0  0  0  0  0  0  0  0
    6.8671   -5.9145    0.0000 F   0  0  0  0  0  0  0  0  0  0  0  0
    6.5010   -4.5485    0.0000 F   0  0  0  0  0  0  0  0  0  0  0  0
    6.8671   -0.9145    0.0000 O   0  0  0  0  0  0  0  0  0  0  0  0
    3.4030   -1.9145    0.0000 O   0  0  0  0  0  0  0  0  0  0  0  0
    7.9497    2.2879    0.0000 N   0  0  3  0  0  0  0  0  0  0  0  0
    6.0010    0.5855    0.0000 N   0  0  0  0  0  0  0  0  0  0  0  0
   10.8291    3.9641    0.0000 N   0  0  0  0  0  0  0  0  0  0  0  0
   10.9337    2.9696    0.0000 N   0  0  0  0  0  0  0  0  0  0  0  0
    5.1350   -1.9145    0.0000 N   0  0  0  0  0  0  0  0  0  0  0  0
    2.5369   -3.4145    0.0000 N   0  0  0  0  0  0  0  0  0  0  0  0
    6.8671    1.0855    0.0000 C   0  0  1  0  0  0  0  0  0  0  0  0
    6.9716    2.0800    0.0000 C   0  0  0  0  0  0  0  0  0  0  0  0
    7.7806    0.6788    0.0000 C   0  0  0  0  0  0  0  0  0  0  0  0
    8.4497    1.4219    0.0000 C   0  0  0  0  0  0  0  0  0  0  0  0
    8.3565    3.2015    0.0000 C   0  0  0  0  0  0  0  0  0  0  0  0
    9.3510    3.3060    0.0000 C   0  0  0  0  0  0  0  0  0  0  0  0
    9.8510    4.1720    0.0000 C   0  0  0  0  0  0  0  0  0  0  0  0
   10.0201    2.5629    0.0000 C   0  0  0  0  0  0  0  0  0  0  0  0
    6.0010   -0.4145    0.0000 C   0  0  0  0  0  0  0  0  0  0  0  0
    5.1350   -0.9145    0.0000 C   0  0  0  0  0  0  0  0  0  0  0  0
    9.4443    5.0856    0.0000 C   0  0  0  0  0  0  0  0  0  0  0  0
    9.8122    1.5847    0.0000 C   0  0  0  0  0  0  0  0  0  0  0  0
   11.5723    4.6332    0.0000 C   0  0  0  0  0  0  0  0  0  0  0  0
   11.3644    5.6114    0.0000 C   0  0  0  0  0  0  0  0  0  0  0  0
   12.5233    4.3242    0.0000 C   0  0  0  0  0  0  0  0  0  0  0  0
    4.2690   -2.4145    0.0000 C   0  0  0  0  0  0  0  0  0  0  0  0
   12.1075    6.2805    0.0000 C   0  0  0  0  0  0  0  0  0  0  0  0
   13.2665    4.9934    0.0000 C   0  0  0  0  0  0  0  0  0  0  0  0
    4.2690   -3.4145    0.0000 C   0  0  0  0  0  0  0  0  0  0  0  0
   13.0586    5.9715    0.0000 C   0  0  0  0  0  0  0  0  0  0  0  0
    3.4030   -3.9145    0.0000 C   0  0  0  0  0  0  0  0  0  0  0  0
    5.1350   -3.9145    0.0000 C   0  0  0  0  0  0  0  0  0  0  0  0
    5.1350   -4.9145    0.0000 C   0  0  0  0  0  0  0  0  0  0  0  0
    3.4030   -4.9145    0.0000 C   0  0  0  0  0  0  0  0  0  0  0  0
    4.2690   -5.4145    0.0000 C   0  0  0  0  0  0  0  0  0  0  0  0
    6.0010   -5.4145    0.0000 C   0  0  0  0  0  0  0  0  0  0  0  0
    6.3471    1.4232    0.0000 H   0  0  0  0  0  0  0  0  0  0  0  0
    6.9068    2.6966    0.0000 H   0  0  0  0  0  0  0  0  0  0  0  0
    6.3516    2.0800    0.0000 H   0  0  0  0  0  0  0  0  0  0  0  0
    7.4706    0.1418    0.0000 H   0  0  0  0  0  0  0  0  0  0  0  0
    8.2822    0.3143    0.0000 H   0  0  0  0  0  0  0  0  0  0  0  0
    8.8646    0.9612    0.0000 H   0  0  0  0  0  0  0  0  0  0  0  0
    8.9513    1.7863    0.0000 H   0  0  0  0  0  0  0  0  0  0  0  0
    8.3997    3.8200    0.0000 H   0  0  0  0  0  0  0  0  0  0  0  0
    7.7549    3.3515    0.0000 H   0  0  0  0  0  0  0  0  0  0  0  0
    5.4641    0.8955    0.0000 H   0  0  0  0  0  0  0  0  0  0  0  0
    4.9230   -0.3319    0.0000 H   0  0  0  0  0  0  0  0  0  0  0  0
    4.5244   -1.0222    0.0000 H   0  0  0  0  0  0  0  0  0  0  0  0
   10.0107    5.3378    0.0000 H   0  0  0  0  0  0  0  0  0  0  0  0
    9.1921    5.6520    0.0000 H   0  0  0  0  0  0  0  0  0  0  0  0
    8.8779    4.8334    0.0000 H   0  0  0  0  0  0  0  0  0  0  0  0
    9.2058    1.7136    0.0000 H   0  0  0  0  0  0  0  0  0  0  0  0
    9.6833    0.9783    0.0000 H   0  0  0  0  0  0  0  0  0  0  0  0
   10.4187    1.4558    0.0000 H   0  0  0  0  0  0  0  0  0  0  0  0
    5.6720   -2.2245    0.0000 H   0  0  0  0  0  0  0  0  0  0  0  0
   10.7747    5.8030    0.0000 H   0  0  0  0  0  0  0  0  0  0  0  0
   12.6523    3.7178    0.0000 H   0  0  0  0  0  0  0  0  0  0  0  0
   11.9786    6.8870    0.0000 H   0  0  0  0  0  0  0  0  0  0  0  0
   13.8561    4.8018    0.0000 H   0  0  0  0  0  0  0  0  0  0  0  0
   13.5193    6.3864    0.0000 H   0  0  0  0  0  0  0  0  0  0  0  0
    5.6720   -3.6045    0.0000 H   0  0  0  0  0  0  0  0  0  0  0  0
    2.8660   -5.2245    0.0000 H   0  0  0  0  0  0  0  0  0  0  0  0
    4.2690   -6.0345    0.0000 H   0  0  0  0  0  0  0  0  0  0  0  0
    2.0000   -3.7245    0.0000 H   0  0  0  0  0  0  0  0  0  0  0  0
    2.5369   -2.7945    0.0000 H   0  0  0  0  0  0  0  0  0  0  0  0
  1 37  1  0  0  0  0
  2 37  1  0  0  0  0
  3 37  1  0  0  0  0
  4 20  2  0  0  0  0
  5 27  2  0  0  0  0
  6 13  1  0  0  0  0
  6 15  1  0  0  0  0
  6 16  1  0  0  0  0
 12  7  1  1  0  0  0
  7 20  1  0  0  0  0
  7 47  1  0  0  0  0
  8  9  1  0  0  0  0
  8 18  1  0  0  0  0
  8 24  1  0  0  0  0
  9 19  2  0  0  0  0
 10 21  1  0  0  0  0
 10 27  1  0  0  0  0
 10 56  1  0  0  0  0
 11 32  1  0  0  0  0
 11 65  1  0  0  0  0
 11 66  1  0  0  0  0
 12 13  1  0  0  0  0
 12 14  1  0  0  0  0
 12 38  1  0  0  0  0
 13 39  1  0  0  0  0
 13 40  1  0  0  0  0
 14 15  1  0  0  0  0
 14 41  1  0  0  0  0
 14 42  1  0  0  0  0
 15 43  1  0  0  0  0
 15 44  1  0  0  0  0
 16 17  1  0  0  0  0
 16 45  1  0  0  0  0
 16 46  1  0  0  0  0
 17 18  2  0  0  0  0
 17 19  1  0  0  0  0
 18 22  1  0  0  0  0
 19 23  1  0  0  0  0
 20 21  1  0  0  0  0
 21 48  1  0  0  0  0
 21 49  1  0  0  0  0
 22 50  1  0  0  0  0
 22 51  1  0  0  0  0
 22 52  1  0  0  0  0
 23 53  1  0  0  0  0
 23 54  1  0  0  0  0
 23 55  1  0  0  0  0
 24 25  2  0  0  0  0
 24 26  1  0  0  0  0
 25 28  1  0  0  0  0
 25 57  1  0  0  0  0
 26 29  2  0  0  0  0
 26 58  1  0  0  0  0
 27 30  1  0  0  0  0
 28 31  2  0  0  0  0
 28 59  1  0  0  0  0
 29 31  1  0  0  0  0
 29 60  1  0  0  0  0
 30 32  2  0  0  0  0
 30 33  1  0  0  0  0
 31 61  1  0  0  0  0
 32 35  1  0  0  0  0
 33 34  2  0  0  0  0
 33 62  1  0  0  0  0
 34 36  1  0  0  0  0
 34 37  1  0  0  0  0
 35 36  2  0  0  0  0
 35 63  1  0  0  0  0
 36 64  1  0  0  0  0
M  END
> <PUBCHEM_COMPOUND_CID>
508917
> <PUBCHEM_COMPOUND_CANONICALIZED>
1
> <PUBCHEM_CACTVS_COMPLEXITY>
793
> <PUBCHEM_CACTVS_HBOND_ACCEPTOR>
8
> <PUBCHEM_CACTVS_HBOND_DONOR>
3
> <PUBCHEM_CACTVS_ROTATABLE_BOND>
7
> <PUBCHEM_CACTVS_SUBSKEYS>
AAADceB7sYAAAAAAAAAAAAAAAAAAAWLAAAAwYAAAAAAAAAAB0AAAHwAYAAAADCjBnhQywJPIAACqAyVyVACSBCAlAgAYmKG4ZNgIYHrA1fGUpYhgngDIyccYiECOCAACAAACAAAQAAQAAAQAAAAAAAAAAA==
> <PUBCHEM_IUPAC_OPENEYE_NAME>
2-amino-N-[2-[[(3R)-1-[(3,5-dimethyl-1-phenyl-pyrazol-4-yl)methyl]pyrrolidin-3-yl]amino]-2-oxo-ethyl]-5-(trifluoromethyl)benzamide
> <PUBCHEM_IUPAC_CAS_NAME>
2-amino-N-[2-[[(3R)-1-[(3,5-dimethyl-1-phenyl-4-pyrazolyl)methyl]-3-pyrrolidinyl]amino]-2-oxoethyl]-5-(trifluoromethyl)benzamide
> <PUBCHEM_IUPAC_NAME_MARKUP>
2-amino-<I>N</I>-[2-[[(3<I>R</I>)-1-[(3,5-dimethyl-1-phenylpyrazol-4-yl)methyl]pyrrolidin-3-yl]amino]-2-oxoethyl]-5-(trifluoromethyl)benzamide
> <PUBCHEM_IUPAC_NAME>
2-amino-N-[2-[[(3R)-1-[(3,5-dimethyl-1-phenylpyrazol-4-yl)methyl]pyrrolidin-3-yl]amino]-2-oxoethyl]-5-(trifluoromethyl)benzamide
> <PUBCHEM_IUPAC_SYSTEMATIC_NAME>
2-azanyl-N-[2-[[(3R)-1-[(3,5-dimethyl-1-phenyl-pyrazol-4-yl)methyl]pyrrolidin-3-yl]amino]-2-oxidanylidene-ethyl]-5-(trifluoromethyl)benzamide
> <PUBCHEM_IUPAC_TRADITIONAL_NAME>
2-amino-N-[2-[[(3R)-1-[(3,5-dimethyl-1-phenyl-pyrazol-4-yl)methyl]pyrrolidin-3-yl]amino]-2-keto-ethyl]-5-(trifluoromethyl)benzamide
> <PUBCHEM_IUPAC_INCHI>
InChI=1S/C26H29F3N6O2/c1-16-22(17(2)35(33-16)20-6-4-3-5-7-20)15-34-11-10-19(14-34)32-24(36)13-31-25(37)21-12-18(26(27,28)29)8-9-23(21)30/h3-9,12,19H,10-11,13-15,30H2,1-2H3,(H,31,37)(H,32,36)/t19-/m1/s1
> <PUBCHEM_IUPAC_INCHIKEY>
BGCLEGDIYDGPNH-LJQANCHMSA-N
> <PUBCHEM_XLOGP3_AA>
3.8
> <PUBCHEM_EXACT_MASS>
514.23040868
> <PUBCHEM_MOLECULAR_FORMULA>
C26H29F3N6O2
> <PUBCHEM_MOLECULAR_WEIGHT>
514.5
> <PUBCHEM_OPENEYE_CAN_SMILES>
CC1=C(C(=NN1C2=CC=CC=C2)C)CN3CCC(C3)NC(=O)CNC(=O)C4=C(C=CC(=C4)C(F)(F)F)N
> <PUBCHEM_OPENEYE_ISO_SMILES>
CC1=C(C(=NN1C2=CC=CC=C2)C)CN3CC[C@H](C3)NC(=O)CNC(=O)C4=C(C=CC(=C4)C(F)(F)F)N
> <PUBCHEM_CACTVS_TPSA>
105
> <PUBCHEM_MONOISOTOPIC_WEIGHT>
514.23040868
> <PUBCHEM_TOTAL_CHARGE>
0
> <PUBCHEM_HEAVY_ATOM_COUNT>
37
> <PUBCHEM_ATOM_DEF_STEREO_COUNT>
1
> <PUBCHEM_ATOM_UDEF_STEREO_COUNT>
0
> <PUBCHEM_BOND_DEF_STEREO_COUNT>
0
> <PUBCHEM_BOND_UDEF_STEREO_COUNT>
0
> <PUBCHEM_ISOTOPIC_ATOM_COUNT>
0
> <PUBCHEM_COMPONENT_COUNT>
1
> <PUBCHEM_CACTVS_TAUTO_COUNT>
-1
> <PUBCHEM_COORDINATE_TYPE>
1
5
255
> <PUBCHEM_BONDANNOTATIONS>
17  18  8
17  19  8
24  25  8
24  26  8
25  28  8
26  29  8
28  31  8
29  31  8
30  32  8
30  33  8
32  35  8
33  34  8
34  36  8
35  36  8
12  7  5
8  18  8
8  9  8
9  19  8
$$$$
