508976
  -OEChem-10302200282D
 57 59  0     1  0  0  0  0  0999 V2000
    2.0000   -3.2444    0.0000 Cl  0  0  0  0  0  0  0  0  0  0  0  0
    3.7320   -4.2444    0.0000 Cl  0  0  0  0  0  0  0  0  0  0  0  0
   10.5656   -0.7396    0.0000 S   0  0  0  0  0  0  0  0  0  0  0  0
   10.6187    3.6566    0.0000 S   0  0  0  0  0  0  0  0  0  0  0  0
    7.3563    2.2101    0.0000 O   0  0  0  0  0  0  0  0  0  0  0  0
   11.4791   -0.3329    0.0000 O   0  0  0  0  0  0  0  0  0  0  0  0
    9.6520   -1.1464    0.0000 O   0  0  0  0  0  0  0  0  0  0  0  0
   10.7466    0.9830    0.0000 O   0  0  0  0  0  0  0  0  0  0  0  0
    4.5981    0.2556    0.0000 N   0  0  3  0  0  0  0  0  0  0  0  0
    7.1753    0.4875    0.0000 N   0  0  0  0  0  0  0  0  0  0  0  0
    9.3454    2.0010    0.0000 N   0  0  0  0  0  0  0  0  0  0  0  0
    6.1808    0.5920    0.0000 C   0  0  2  0  0  0  0  0  0  0  0  0
    5.6808    1.4581    0.0000 C   0  0  0  0  0  0  0  0  0  0  0  0
    5.5116   -0.1511    0.0000 C   0  0  0  0  0  0  0  0  0  0  0  0
    4.7026    1.2502    0.0000 C   0  0  0  0  0  0  0  0  0  0  0  0
    3.7320   -0.2444    0.0000 C   0  0  0  0  0  0  0  0  0  0  0  0
    8.7576    1.1920    0.0000 C   0  0  2  0  0  0  0  0  0  0  0  0
    7.7631    1.2965    0.0000 C   0  0  0  0  0  0  0  0  0  0  0  0
    3.7320   -1.2444    0.0000 C   0  0  0  0  0  0  0  0  0  0  0  0
    9.1643    0.2785    0.0000 C   0  0  0  0  0  0  0  0  0  0  0  0
   10.1588    0.1739    0.0000 C   0  0  0  0  0  0  0  0  0  0  0  0
    2.8660   -1.7444    0.0000 C   0  0  0  0  0  0  0  0  0  0  0  0
    4.5981   -1.7444    0.0000 C   0  0  0  0  0  0  0  0  0  0  0  0
   10.3399    1.8965    0.0000 C   0  0  0  0  0  0  0  0  0  0  0  0
   10.9723   -1.6532    0.0000 C   0  0  0  0  0  0  0  0  0  0  0  0
    2.8660   -2.7444    0.0000 C   0  0  0  0  0  0  0  0  0  0  0  0
    4.5981   -2.7444    0.0000 C   0  0  0  0  0  0  0  0  0  0  0  0
    3.7320   -3.2444    0.0000 C   0  0  0  0  0  0  0  0  0  0  0  0
   10.9277    2.7055    0.0000 C   0  0  0  0  0  0  0  0  0  0  0  0
   11.9277    2.7055    0.0000 C   0  0  0  0  0  0  0  0  0  0  0  0
   12.2367    3.6566    0.0000 C   0  0  0  0  0  0  0  0  0  0  0  0
   11.4277    4.2444    0.0000 C   0  0  0  0  0  0  0  0  0  0  0  0
    6.4029    0.0132    0.0000 H   0  0  0  0  0  0  0  0  0  0  0  0
    6.2472    1.7102    0.0000 H   0  0  0  0  0  0  0  0  0  0  0  0
    5.4892    2.0477    0.0000 H   0  0  0  0  0  0  0  0  0  0  0  0
    5.2016   -0.6880    0.0000 H   0  0  0  0  0  0  0  0  0  0  0  0
    6.0132   -0.5155    0.0000 H   0  0  0  0  0  0  0  0  0  0  0  0
    4.6378    1.8668    0.0000 H   0  0  0  0  0  0  0  0  0  0  0  0
    4.0826    1.2502    0.0000 H   0  0  0  0  0  0  0  0  0  0  0  0
    7.4274   -0.0789    0.0000 H   0  0  0  0  0  0  0  0  0  0  0  0
    3.5200    0.3383    0.0000 H   0  0  0  0  0  0  0  0  0  0  0  0
    3.1215   -0.3520    0.0000 H   0  0  0  0  0  0  0  0  0  0  0  0
    9.3742    1.1272    0.0000 H   0  0  0  0  0  0  0  0  0  0  0  0
    8.5627    0.1285    0.0000 H   0  0  0  0  0  0  0  0  0  0  0  0
    9.2076   -0.3400    0.0000 H   0  0  0  0  0  0  0  0  0  0  0  0
   10.7604    0.3239    0.0000 H   0  0  0  0  0  0  0  0  0  0  0  0
   10.1156    0.7924    0.0000 H   0  0  0  0  0  0  0  0  0  0  0  0
    9.0932    2.5674    0.0000 H   0  0  0  0  0  0  0  0  0  0  0  0
    2.3291   -1.4344    0.0000 H   0  0  0  0  0  0  0  0  0  0  0  0
    5.1350   -1.4344    0.0000 H   0  0  0  0  0  0  0  0  0  0  0  0
   10.4059   -1.9053    0.0000 H   0  0  0  0  0  0  0  0  0  0  0  0
   11.2245   -2.2196    0.0000 H   0  0  0  0  0  0  0  0  0  0  0  0
   11.5387   -1.4010    0.0000 H   0  0  0  0  0  0  0  0  0  0  0  0
    5.1350   -3.0544    0.0000 H   0  0  0  0  0  0  0  0  0  0  0  0
   12.2921    2.2039    0.0000 H   0  0  0  0  0  0  0  0  0  0  0  0
   12.8263    3.8482    0.0000 H   0  0  0  0  0  0  0  0  0  0  0  0
   11.4277    4.8644    0.0000 H   0  0  0  0  0  0  0  0  0  0  0  0
  1 26  1  0  0  0  0
  2 28  1  0  0  0  0
  3  6  2  0  0  0  0
  3  7  2  0  0  0  0
  3 21  1  0  0  0  0
  3 25  1  0  0  0  0
  4 29  1  0  0  0  0
  4 32  1  0  0  0  0
  5 18  2  0  0  0  0
  8 24  2  0  0  0  0
  9 14  1  0  0  0  0
  9 15  1  0  0  0  0
  9 16  1  0  0  0  0
 12 10  1  1  0  0  0
 10 18  1  0  0  0  0
 10 40  1  0  0  0  0
 17 11  1  1  0  0  0
 11 24  1  0  0  0  0
 11 48  1  0  0  0  0
 12 13  1  0  0  0  0
 12 14  1  0  0  0  0
 12 33  1  0  0  0  0
 13 15  1  0  0  0  0
 13 34  1  0  0  0  0
 13 35  1  0  0  0  0
 14 36  1  0  0  0  0
 14 37  1  0  0  0  0
 15 38  1  0  0  0  0
 15 39  1  0  0  0  0
 16 19  1  0  0  0  0
 16 41  1  0  0  0  0
 16 42  1  0  0  0  0
 17 18  1  0  0  0  0
 17 20  1  0  0  0  0
 17 43  1  0  0  0  0
 19 22  2  0  0  0  0
 19 23  1  0  0  0  0
 20 21  1  0  0  0  0
 20 44  1  0  0  0  0
 20 45  1  0  0  0  0
 21 46  1  0  0  0  0
 21 47  1  0  0  0  0
 22 26  1  0  0  0  0
 22 49  1  0  0  0  0
 23 27  2  0  0  0  0
 23 50  1  0  0  0  0
 24 29  1  0  0  0  0
 25 51  1  0  0  0  0
 25 52  1  0  0  0  0
 25 53  1  0  0  0  0
 26 28  2  0  0  0  0
 27 28  1  0  0  0  0
 27 54  1  0  0  0  0
 29 30  2  0  0  0  0
 30 31  1  0  0  0  0
 30 55  1  0  0  0  0
 31 32  2  0  0  0  0
 31 56  1  0  0  0  0
 32 57  1  0  0  0  0
M  END
> <PUBCHEM_COMPOUND_CID>
508976
> <PUBCHEM_COMPOUND_CANONICALIZED>
1
> <PUBCHEM_CACTVS_COMPLEXITY>
765
> <PUBCHEM_CACTVS_HBOND_ACCEPTOR>
6
> <PUBCHEM_CACTVS_HBOND_DONOR>
2
> <PUBCHEM_CACTVS_ROTATABLE_BOND>
9
> <PUBCHEM_CACTVS_SUBSKEYS>
AAADceB7OABmAAAAAAAAAAAAAAAAAWJAAAAwAAAAAAAAAAABwAAAHgYQAAAADCrF2CSyAYPAAAqMAiFSEHDDAIAkDRBIitmIBsgIYDKh1zGUIQhglgCoiYcYgAAOBAAAIAAAAAQIAABAAAAACAAAAAAAAA==
> <PUBCHEM_IUPAC_OPENEYE_NAME>
N-[(1S)-1-[[(3R)-1-[(3,4-dichlorophenyl)methyl]pyrrolidin-3-yl]carbamoyl]-3-methylsulfonyl-propyl]thiophene-2-carboxamide
> <PUBCHEM_IUPAC_CAS_NAME>
N-[(2S)-1-[[(3R)-1-[(3,4-dichlorophenyl)methyl]-3-pyrrolidinyl]amino]-4-methylsulfonyl-1-oxobutan-2-yl]-2-thiophenecarboxamide
> <PUBCHEM_IUPAC_NAME_MARKUP>
<I>N</I>-[(2<I>S</I>)-1-[[(3<I>R</I>)-1-[(3,4-dichlorophenyl)methyl]pyrrolidin-3-yl]amino]-4-methylsulfonyl-1-oxobutan-2-yl]thiophene-2-carboxamide
> <PUBCHEM_IUPAC_NAME>
N-[(2S)-1-[[(3R)-1-[(3,4-dichlorophenyl)methyl]pyrrolidin-3-yl]amino]-4-methylsulfonyl-1-oxobutan-2-yl]thiophene-2-carboxamide
> <PUBCHEM_IUPAC_SYSTEMATIC_NAME>
N-[(2S)-1-[[(3R)-1-[(3,4-dichlorophenyl)methyl]pyrrolidin-3-yl]amino]-4-methylsulfonyl-1-oxidanylidene-butan-2-yl]thiophene-2-carboxamide
> <PUBCHEM_IUPAC_TRADITIONAL_NAME>
N-[(1S)-1-[[(3R)-1-(3,4-dichlorobenzyl)pyrrolidin-3-yl]carbamoyl]-3-mesyl-propyl]thiophene-2-carboxamide
> <PUBCHEM_IUPAC_INCHI>
InChI=1S/C21H25Cl2N3O4S2/c1-32(29,30)10-7-18(25-21(28)19-3-2-9-31-19)20(27)24-15-6-8-26(13-15)12-14-4-5-16(22)17(23)11-14/h2-5,9,11,15,18H,6-8,10,12-13H2,1H3,(H,24,27)(H,25,28)/t15-,18+/m1/s1
> <PUBCHEM_IUPAC_INCHIKEY>
ONDSJJZFLMQWCW-QAPCUYQASA-N
> <PUBCHEM_XLOGP3_AA>
3.3
> <PUBCHEM_EXACT_MASS>
517.0663540
> <PUBCHEM_MOLECULAR_FORMULA>
C21H25Cl2N3O4S2
> <PUBCHEM_MOLECULAR_WEIGHT>
518.5
> <PUBCHEM_OPENEYE_CAN_SMILES>
CS(=O)(=O)CCC(C(=O)NC1CCN(C1)CC2=CC(=C(C=C2)Cl)Cl)NC(=O)C3=CC=CS3
> <PUBCHEM_OPENEYE_ISO_SMILES>
CS(=O)(=O)CC[C@@H](C(=O)N[C@@H]1CCN(C1)CC2=CC(=C(C=C2)Cl)Cl)NC(=O)C3=CC=CS3
> <PUBCHEM_CACTVS_TPSA>
132
> <PUBCHEM_MONOISOTOPIC_WEIGHT>
517.0663540
> <PUBCHEM_TOTAL_CHARGE>
0
> <PUBCHEM_HEAVY_ATOM_COUNT>
32
> <PUBCHEM_ATOM_DEF_STEREO_COUNT>
2
> <PUBCHEM_ATOM_UDEF_STEREO_COUNT>
0
> <PUBCHEM_BOND_DEF_STEREO_COUNT>
0
> <PUBCHEM_BOND_UDEF_STEREO_COUNT>
0
> <PUBCHEM_ISOTOPIC_ATOM_COUNT>
0
> <PUBCHEM_COMPONENT_COUNT>
1
> <PUBCHEM_CACTVS_TAUTO_COUNT>
-1
> <PUBCHEM_COORDINATE_TYPE>
1
5
255
> <PUBCHEM_BONDANNOTATIONS>
12  10  5
17  11  5
19  22  8
19  23  8
22  26  8
23  27  8
26  28  8
27  28  8
29  30  8
30  31  8
31  32  8
4  29  8
4  32  8
$$$$
