508935
  -OEChem-10302200282D
 64 66  0     1  0  0  0  0  0999 V2000
    2.0000   -4.4738    0.0000 Cl  0  0  0  0  0  0  0  0  0  0  0  0
    3.7320   -5.4738    0.0000 Cl  0  0  0  0  0  0  0  0  0  0  0  0
    2.8660    2.0262    0.0000 S   0  0  0  0  0  0  0  0  0  0  0  0
   11.7976    4.5603    0.0000 S   0  0  0  0  0  0  0  0  0  0  0  0
    6.3301    0.0262    0.0000 O   0  0  0  0  0  0  0  0  0  0  0  0
    3.3660    2.8922    0.0000 O   0  0  0  0  0  0  0  0  0  0  0  0
    2.3660    1.1602    0.0000 O   0  0  0  0  0  0  0  0  0  0  0  0
    2.8660   -0.9738    0.0000 O   0  0  0  0  0  0  0  0  0  0  0  0
    7.4128    3.2286    0.0000 N   0  0  3  0  0  0  0  0  0  0  0  0
    5.4641    1.5262    0.0000 N   0  0  0  0  0  0  0  0  0  0  0  0
    4.5981   -0.9738    0.0000 N   0  0  0  0  0  0  0  0  0  0  0  0
    6.3301    2.0262    0.0000 C   0  0  2  0  0  0  0  0  0  0  0  0
    7.2437    1.6194    0.0000 C   0  0  0  0  0  0  0  0  0  0  0  0
    6.4347    3.0207    0.0000 C   0  0  0  0  0  0  0  0  0  0  0  0
    7.9128    2.3626    0.0000 C   0  0  0  0  0  0  0  0  0  0  0  0
    7.8195    4.1422    0.0000 C   0  0  0  0  0  0  0  0  0  0  0  0
    5.4641    0.5262    0.0000 C   0  0  0  0  0  0  0  0  0  0  0  0
    4.5981    0.0262    0.0000 C   0  0  2  0  0  0  0  0  0  0  0  0
    8.8141    4.2467    0.0000 C   0  0  0  0  0  0  0  0  0  0  0  0
    3.7320    0.5262    0.0000 C   0  0  0  0  0  0  0  0  0  0  0  0
    3.7320    1.5262    0.0000 C   0  0  0  0  0  0  0  0  0  0  0  0
    9.2208    5.1602    0.0000 C   0  0  0  0  0  0  0  0  0  0  0  0
    9.4018    3.4377    0.0000 C   0  0  0  0  0  0  0  0  0  0  0  0
   10.2153    5.2648    0.0000 C   0  0  0  0  0  0  0  0  0  0  0  0
   10.3964    3.5422    0.0000 C   0  0  0  0  0  0  0  0  0  0  0  0
    3.7320   -1.4738    0.0000 C   0  0  0  0  0  0  0  0  0  0  0  0
    2.0000    2.5262    0.0000 C   0  0  0  0  0  0  0  0  0  0  0  0
   10.8031    4.4558    0.0000 C   0  0  0  0  0  0  0  0  0  0  0  0
    3.7320   -2.4738    0.0000 C   0  0  0  0  0  0  0  0  0  0  0  0
    2.8660   -2.9738    0.0000 C   0  0  0  0  0  0  0  0  0  0  0  0
    4.5981   -2.9738    0.0000 C   0  0  0  0  0  0  0  0  0  0  0  0
    2.8660   -3.9738    0.0000 C   0  0  0  0  0  0  0  0  0  0  0  0
    4.5981   -3.9738    0.0000 C   0  0  0  0  0  0  0  0  0  0  0  0
   12.2044    5.4738    0.0000 C   0  0  0  0  0  0  0  0  0  0  0  0
    3.7320   -4.4738    0.0000 C   0  0  0  0  0  0  0  0  0  0  0  0
    6.3626    1.4070    0.0000 H   0  0  0  0  0  0  0  0  0  0  0  0
    6.9337    1.0825    0.0000 H   0  0  0  0  0  0  0  0  0  0  0  0
    7.7453    1.2550    0.0000 H   0  0  0  0  0  0  0  0  0  0  0  0
    6.3698    3.6373    0.0000 H   0  0  0  0  0  0  0  0  0  0  0  0
    5.8147    3.0207    0.0000 H   0  0  0  0  0  0  0  0  0  0  0  0
    8.3277    1.9018    0.0000 H   0  0  0  0  0  0  0  0  0  0  0  0
    8.4144    2.7270    0.0000 H   0  0  0  0  0  0  0  0  0  0  0  0
    7.8628    4.7606    0.0000 H   0  0  0  0  0  0  0  0  0  0  0  0
    7.2180    4.2922    0.0000 H   0  0  0  0  0  0  0  0  0  0  0  0
    4.9272    1.8362    0.0000 H   0  0  0  0  0  0  0  0  0  0  0  0
    5.1350   -0.2838    0.0000 H   0  0  0  0  0  0  0  0  0  0  0  0
    3.1215    0.6338    0.0000 H   0  0  0  0  0  0  0  0  0  0  0  0
    3.5200   -0.0564    0.0000 H   0  0  0  0  0  0  0  0  0  0  0  0
    4.3426    1.4185    0.0000 H   0  0  0  0  0  0  0  0  0  0  0  0
    3.9441    2.1088    0.0000 H   0  0  0  0  0  0  0  0  0  0  0  0
    5.1350   -1.2838    0.0000 H   0  0  0  0  0  0  0  0  0  0  0  0
    8.8564    5.6618    0.0000 H   0  0  0  0  0  0  0  0  0  0  0  0
    9.1497    2.8713    0.0000 H   0  0  0  0  0  0  0  0  0  0  0  0
   10.4675    5.8312    0.0000 H   0  0  0  0  0  0  0  0  0  0  0  0
   10.7608    3.0406    0.0000 H   0  0  0  0  0  0  0  0  0  0  0  0
    2.3100    3.0631    0.0000 H   0  0  0  0  0  0  0  0  0  0  0  0
    1.4631    2.8362    0.0000 H   0  0  0  0  0  0  0  0  0  0  0  0
    1.6900    1.9892    0.0000 H   0  0  0  0  0  0  0  0  0  0  0  0
    2.3291   -2.6638    0.0000 H   0  0  0  0  0  0  0  0  0  0  0  0
    5.1350   -2.6638    0.0000 H   0  0  0  0  0  0  0  0  0  0  0  0
    5.1350   -4.2838    0.0000 H   0  0  0  0  0  0  0  0  0  0  0  0
   12.7708    5.2216    0.0000 H   0  0  0  0  0  0  0  0  0  0  0  0
   12.4565    6.0402    0.0000 H   0  0  0  0  0  0  0  0  0  0  0  0
   11.6380    5.7260    0.0000 H   0  0  0  0  0  0  0  0  0  0  0  0
  1 32  1  0  0  0  0
  2 35  1  0  0  0  0
  3  6  2  0  0  0  0
  3  7  2  0  0  0  0
  3 21  1  0  0  0  0
  3 27  1  0  0  0  0
  4 28  1  0  0  0  0
  4 34  1  0  0  0  0
  5 17  2  0  0  0  0
  8 26  2  0  0  0  0
  9 14  1  0  0  0  0
  9 15  1  0  0  0  0
  9 16  1  0  0  0  0
 12 10  1  1  0  0  0
 10 17  1  0  0  0  0
 10 45  1  0  0  0  0
 18 11  1  1  0  0  0
 11 26  1  0  0  0  0
 11 51  1  0  0  0  0
 12 13  1  0  0  0  0
 12 14  1  0  0  0  0
 12 36  1  0  0  0  0
 13 15  1  0  0  0  0
 13 37  1  0  0  0  0
 13 38  1  0  0  0  0
 14 39  1  0  0  0  0
 14 40  1  0  0  0  0
 15 41  1  0  0  0  0
 15 42  1  0  0  0  0
 16 19  1  0  0  0  0
 16 43  1  0  0  0  0
 16 44  1  0  0  0  0
 17 18  1  0  0  0  0
 18 20  1  0  0  0  0
 18 46  1  0  0  0  0
 19 22  2  0  0  0  0
 19 23  1  0  0  0  0
 20 21  1  0  0  0  0
 20 47  1  0  0  0  0
 20 48  1  0  0  0  0
 21 49  1  0  0  0  0
 21 50  1  0  0  0  0
 22 24  1  0  0  0  0
 22 52  1  0  0  0  0
 23 25  2  0  0  0  0
 23 53  1  0  0  0  0
 24 28  2  0  0  0  0
 24 54  1  0  0  0  0
 25 28  1  0  0  0  0
 25 55  1  0  0  0  0
 26 29  1  0  0  0  0
 27 56  1  0  0  0  0
 27 57  1  0  0  0  0
 27 58  1  0  0  0  0
 29 30  2  0  0  0  0
 29 31  1  0  0  0  0
 30 32  1  0  0  0  0
 30 59  1  0  0  0  0
 31 33  2  0  0  0  0
 31 60  1  0  0  0  0
 32 35  2  0  0  0  0
 33 35  1  0  0  0  0
 33 61  1  0  0  0  0
 34 62  1  0  0  0  0
 34 63  1  0  0  0  0
 34 64  1  0  0  0  0
M  END
> <PUBCHEM_COMPOUND_CID>
508935
> <PUBCHEM_COMPOUND_CANONICALIZED>
1
> <PUBCHEM_CACTVS_COMPLEXITY>
818
> <PUBCHEM_CACTVS_HBOND_ACCEPTOR>
6
> <PUBCHEM_CACTVS_HBOND_DONOR>
2
> <PUBCHEM_CACTVS_ROTATABLE_BOND>
10
> <PUBCHEM_CACTVS_SUBSKEYS>
AAADceB7OABmAAAAAAAAAAAAAAAAAWAAAAAwYAAAAAAAAAABQAAAHgYQAAAADCrF2CSyAYPAAAqIAiFSEHDCAAAkDRAIitmIBsgIYDKh1zGUIQhglgCIiYcYiACOFAAAIAAAAAQoAABAAAAACAAAAAAAAA==
> <PUBCHEM_IUPAC_OPENEYE_NAME>
3,4-dichloro-N-[(1S)-1-[[(3R)-1-[(4-methylsulfanylphenyl)methyl]pyrrolidin-3-yl]carbamoyl]-3-methylsulfonyl-propyl]benzamide
> <PUBCHEM_IUPAC_CAS_NAME>
3,4-dichloro-N-[(2S)-4-methylsulfonyl-1-[[(3R)-1-[[4-(methylthio)phenyl]methyl]-3-pyrrolidinyl]amino]-1-oxobutan-2-yl]benzamide
> <PUBCHEM_IUPAC_NAME_MARKUP>
3,4-dichloro-<I>N</I>-[(2<I>S</I>)-1-[[(3<I>R</I>)-1-[(4-methylsulfanylphenyl)methyl]pyrrolidin-3-yl]amino]-4-methylsulfonyl-1-oxobutan-2-yl]benzamide
> <PUBCHEM_IUPAC_NAME>
3,4-dichloro-N-[(2S)-1-[[(3R)-1-[(4-methylsulfanylphenyl)methyl]pyrrolidin-3-yl]amino]-4-methylsulfonyl-1-oxobutan-2-yl]benzamide
> <PUBCHEM_IUPAC_SYSTEMATIC_NAME>
3,4-bis(chloranyl)-N-[(2S)-1-[[(3R)-1-[(4-methylsulfanylphenyl)methyl]pyrrolidin-3-yl]amino]-4-methylsulfonyl-1-oxidanylidene-butan-2-yl]benzamide
> <PUBCHEM_IUPAC_TRADITIONAL_NAME>
3,4-dichloro-N-[(1S)-3-mesyl-1-[[(3R)-1-[4-(methylthio)benzyl]pyrrolidin-3-yl]carbamoyl]propyl]benzamide
> <PUBCHEM_IUPAC_INCHI>
InChI=1S/C24H29Cl2N3O4S2/c1-34-19-6-3-16(4-7-19)14-29-11-9-18(15-29)27-24(31)22(10-12-35(2,32)33)28-23(30)17-5-8-20(25)21(26)13-17/h3-8,13,18,22H,9-12,14-15H2,1-2H3,(H,27,31)(H,28,30)/t18-,22+/m1/s1
> <PUBCHEM_IUPAC_INCHIKEY>
YLSNWHUCZYMRGQ-GCJKJVERSA-N
> <PUBCHEM_XLOGP3_AA>
3.8
> <PUBCHEM_EXACT_MASS>
557.0976541
> <PUBCHEM_MOLECULAR_FORMULA>
C24H29Cl2N3O4S2
> <PUBCHEM_MOLECULAR_WEIGHT>
558.5
> <PUBCHEM_OPENEYE_CAN_SMILES>
CSC1=CC=C(C=C1)CN2CCC(C2)NC(=O)C(CCS(=O)(=O)C)NC(=O)C3=CC(=C(C=C3)Cl)Cl
> <PUBCHEM_OPENEYE_ISO_SMILES>
CSC1=CC=C(C=C1)CN2CC[C@H](C2)NC(=O)[C@H](CCS(=O)(=O)C)NC(=O)C3=CC(=C(C=C3)Cl)Cl
> <PUBCHEM_CACTVS_TPSA>
129
> <PUBCHEM_MONOISOTOPIC_WEIGHT>
557.0976541
> <PUBCHEM_TOTAL_CHARGE>
0
> <PUBCHEM_HEAVY_ATOM_COUNT>
35
> <PUBCHEM_ATOM_DEF_STEREO_COUNT>
2
> <PUBCHEM_ATOM_UDEF_STEREO_COUNT>
0
> <PUBCHEM_BOND_DEF_STEREO_COUNT>
0
> <PUBCHEM_BOND_UDEF_STEREO_COUNT>
0
> <PUBCHEM_ISOTOPIC_ATOM_COUNT>
0
> <PUBCHEM_COMPONENT_COUNT>
1
> <PUBCHEM_CACTVS_TAUTO_COUNT>
-1
> <PUBCHEM_COORDINATE_TYPE>
1
5
255
> <PUBCHEM_BONDANNOTATIONS>
12  10  5
18  11  5
19  22  8
19  23  8
22  24  8
23  25  8
24  28  8
25  28  8
29  30  8
29  31  8
30  32  8
31  33  8
32  35  8
33  35  8
$$$$
