508984
  -OEChem-10302200282D
 54 56  0     1  0  0  0  0  0999 V2000
    2.0000   -4.8512    0.0000 Cl  0  0  0  0  0  0  0  0  0  0  0  0
    3.7320   -5.8512    0.0000 Cl  0  0  0  0  0  0  0  0  0  0  0  0
    9.8988    5.6433    0.0000 S   0  0  0  0  0  0  0  0  0  0  0  0
    8.9282    1.1488    0.0000 O   0  0  0  0  0  0  0  0  0  0  0  0
    8.0622    4.6488    0.0000 O   0  0  0  0  0  0  0  0  0  0  0  0
    4.5981   -1.3512    0.0000 N   0  0  0  0  0  0  0  0  0  0  0  0
    7.1962    1.1488    0.0000 N   0  0  0  0  0  0  0  0  0  0  0  0
    8.9282    3.1488    0.0000 N   0  0  0  0  0  0  0  0  0  0  0  0
    6.3301   -0.3512    0.0000 C   0  0  0  0  0  0  0  0  0  0  0  0
    6.3301   -1.3512    0.0000 C   0  0  0  0  0  0  0  0  0  0  0  0
    5.4641    0.1488    0.0000 C   0  0  0  0  0  0  0  0  0  0  0  0
    5.4641   -1.8512    0.0000 C   0  0  0  0  0  0  0  0  0  0  0  0
    4.5981   -0.3512    0.0000 C   0  0  0  0  0  0  0  0  0  0  0  0
    7.1962    0.1488    0.0000 C   0  0  0  0  0  0  0  0  0  0  0  0
    3.7320   -1.8512    0.0000 C   0  0  0  0  0  0  0  0  0  0  0  0
    3.7320   -2.8512    0.0000 C   0  0  0  0  0  0  0  0  0  0  0  0
    8.0622    1.6488    0.0000 C   0  0  0  0  0  0  0  0  0  0  0  0
    8.0622    2.6488    0.0000 C   0  0  2  0  0  0  0  0  0  0  0  0
    2.8660   -3.3512    0.0000 C   0  0  0  0  0  0  0  0  0  0  0  0
    4.5981   -3.3512    0.0000 C   0  0  0  0  0  0  0  0  0  0  0  0
    7.1962    3.1488    0.0000 C   0  0  0  0  0  0  0  0  0  0  0  0
    2.8660   -4.3512    0.0000 C   0  0  0  0  0  0  0  0  0  0  0  0
    4.5981   -4.3512    0.0000 C   0  0  0  0  0  0  0  0  0  0  0  0
    3.7320   -4.8512    0.0000 C   0  0  0  0  0  0  0  0  0  0  0  0
    8.9282    4.1488    0.0000 C   0  0  0  0  0  0  0  0  0  0  0  0
    9.7942    4.6488    0.0000 C   0  0  0  0  0  0  0  0  0  0  0  0
   10.7078    4.2420    0.0000 C   0  0  0  0  0  0  0  0  0  0  0  0
   11.3769    4.9852    0.0000 C   0  0  0  0  0  0  0  0  0  0  0  0
   10.8769    5.8512    0.0000 C   0  0  0  0  0  0  0  0  0  0  0  0
    6.8671   -0.6612    0.0000 H   0  0  0  0  0  0  0  0  0  0  0  0
    6.5422   -1.9338    0.0000 H   0  0  0  0  0  0  0  0  0  0  0  0
    6.9407   -1.2436    0.0000 H   0  0  0  0  0  0  0  0  0  0  0  0
    5.8626    0.6237    0.0000 H   0  0  0  0  0  0  0  0  0  0  0  0
    5.0656    0.6237    0.0000 H   0  0  0  0  0  0  0  0  0  0  0  0
    5.0656   -2.3262    0.0000 H   0  0  0  0  0  0  0  0  0  0  0  0
    5.8626   -2.3262    0.0000 H   0  0  0  0  0  0  0  0  0  0  0  0
    4.3860    0.2314    0.0000 H   0  0  0  0  0  0  0  0  0  0  0  0
    3.9875   -0.4589    0.0000 H   0  0  0  0  0  0  0  0  0  0  0  0
    7.4082   -0.4338    0.0000 H   0  0  0  0  0  0  0  0  0  0  0  0
    7.8067    0.2564    0.0000 H   0  0  0  0  0  0  0  0  0  0  0  0
    3.5200   -1.2686    0.0000 H   0  0  0  0  0  0  0  0  0  0  0  0
    3.1215   -1.9589    0.0000 H   0  0  0  0  0  0  0  0  0  0  0  0
    6.6592    1.4588    0.0000 H   0  0  0  0  0  0  0  0  0  0  0  0
    8.0622    3.2688    0.0000 H   0  0  0  0  0  0  0  0  0  0  0  0
    2.3291   -3.0412    0.0000 H   0  0  0  0  0  0  0  0  0  0  0  0
    5.1350   -3.0412    0.0000 H   0  0  0  0  0  0  0  0  0  0  0  0
    7.5062    3.6857    0.0000 H   0  0  0  0  0  0  0  0  0  0  0  0
    6.6592    3.4588    0.0000 H   0  0  0  0  0  0  0  0  0  0  0  0
    6.8862    2.6118    0.0000 H   0  0  0  0  0  0  0  0  0  0  0  0
    5.1350   -4.6612    0.0000 H   0  0  0  0  0  0  0  0  0  0  0  0
    9.4651    2.8388    0.0000 H   0  0  0  0  0  0  0  0  0  0  0  0
   10.8367    3.6356    0.0000 H   0  0  0  0  0  0  0  0  0  0  0  0
   11.9935    4.9204    0.0000 H   0  0  0  0  0  0  0  0  0  0  0  0
   11.1291    6.4176    0.0000 H   0  0  0  0  0  0  0  0  0  0  0  0
  1 22  1  0  0  0  0
  2 24  1  0  0  0  0
  3 26  1  0  0  0  0
  3 29  1  0  0  0  0
  4 17  2  0  0  0  0
  5 25  2  0  0  0  0
  6 12  1  0  0  0  0
  6 13  1  0  0  0  0
  6 15  1  0  0  0  0
  7 14  1  0  0  0  0
  7 17  1  0  0  0  0
  7 43  1  0  0  0  0
 18  8  1  6  0  0  0
  8 25  1  0  0  0  0
  8 51  1  0  0  0  0
  9 10  1  0  0  0  0
  9 11  1  0  0  0  0
  9 14  1  0  0  0  0
  9 30  1  0  0  0  0
 10 12  1  0  0  0  0
 10 31  1  0  0  0  0
 10 32  1  0  0  0  0
 11 13  1  0  0  0  0
 11 33  1  0  0  0  0
 11 34  1  0  0  0  0
 12 35  1  0  0  0  0
 12 36  1  0  0  0  0
 13 37  1  0  0  0  0
 13 38  1  0  0  0  0
 14 39  1  0  0  0  0
 14 40  1  0  0  0  0
 15 16  1  0  0  0  0
 15 41  1  0  0  0  0
 15 42  1  0  0  0  0
 16 19  2  0  0  0  0
 16 20  1  0  0  0  0
 17 18  1  0  0  0  0
 18 21  1  0  0  0  0
 18 44  1  0  0  0  0
 19 22  1  0  0  0  0
 19 45  1  0  0  0  0
 20 23  2  0  0  0  0
 20 46  1  0  0  0  0
 21 47  1  0  0  0  0
 21 48  1  0  0  0  0
 21 49  1  0  0  0  0
 22 24  2  0  0  0  0
 23 24  1  0  0  0  0
 23 50  1  0  0  0  0
 25 26  1  0  0  0  0
 26 27  2  0  0  0  0
 27 28  1  0  0  0  0
 27 52  1  0  0  0  0
 28 29  2  0  0  0  0
 28 53  1  0  0  0  0
 29 54  1  0  0  0  0
M  END
> <PUBCHEM_COMPOUND_CID>
508984
> <PUBCHEM_COMPOUND_CANONICALIZED>
1
> <PUBCHEM_CACTVS_COMPLEXITY>
560
> <PUBCHEM_CACTVS_HBOND_ACCEPTOR>
4
> <PUBCHEM_CACTVS_HBOND_DONOR>
2
> <PUBCHEM_CACTVS_ROTATABLE_BOND>
7
> <PUBCHEM_CACTVS_SUBSKEYS>
AAADceB7MABGAAAAAAAAAAAAAAAAASAAAAA8QAAAAAAAAAABwAAAHgYQAAAADSrF2CSyAYPAAAiMAiFSEACDAIAkDRBIitmIBsgIYDKhlzGUIQhglgCoiYcYgAAOBAAAIAAAAAQIAABAAAAACAAAAAAAAA==
> <PUBCHEM_IUPAC_OPENEYE_NAME>
N-[(1S)-2-[[1-[(3,4-dichlorophenyl)methyl]-4-piperidyl]methylamino]-1-methyl-2-oxo-ethyl]thiophene-2-carboxamide
> <PUBCHEM_IUPAC_CAS_NAME>
N-[(2S)-1-[[1-[(3,4-dichlorophenyl)methyl]-4-piperidinyl]methylamino]-1-oxopropan-2-yl]-2-thiophenecarboxamide
> <PUBCHEM_IUPAC_NAME_MARKUP>
<I>N</I>-[(2<I>S</I>)-1-[[1-[(3,4-dichlorophenyl)methyl]piperidin-4-yl]methylamino]-1-oxopropan-2-yl]thiophene-2-carboxamide
> <PUBCHEM_IUPAC_NAME>
N-[(2S)-1-[[1-[(3,4-dichlorophenyl)methyl]piperidin-4-yl]methylamino]-1-oxopropan-2-yl]thiophene-2-carboxamide
> <PUBCHEM_IUPAC_SYSTEMATIC_NAME>
N-[(2S)-1-[[1-[(3,4-dichlorophenyl)methyl]piperidin-4-yl]methylamino]-1-oxidanylidene-propan-2-yl]thiophene-2-carboxamide
> <PUBCHEM_IUPAC_TRADITIONAL_NAME>
N-[(1S)-2-[[1-(3,4-dichlorobenzyl)-4-piperidyl]methylamino]-2-keto-1-methyl-ethyl]thiophene-2-carboxamide
> <PUBCHEM_IUPAC_INCHI>
InChI=1S/C21H25Cl2N3O2S/c1-14(25-21(28)19-3-2-10-29-19)20(27)24-12-15-6-8-26(9-7-15)13-16-4-5-17(22)18(23)11-16/h2-5,10-11,14-15H,6-9,12-13H2,1H3,(H,24,27)(H,25,28)/t14-/m0/s1
> <PUBCHEM_IUPAC_INCHIKEY>
CLGMVPHLDDTSRZ-AWEZNQCLSA-N
> <PUBCHEM_XLOGP3_AA>
4.5
> <PUBCHEM_EXACT_MASS>
453.1044536
> <PUBCHEM_MOLECULAR_FORMULA>
C21H25Cl2N3O2S
> <PUBCHEM_MOLECULAR_WEIGHT>
454.4
> <PUBCHEM_OPENEYE_CAN_SMILES>
CC(C(=O)NCC1CCN(CC1)CC2=CC(=C(C=C2)Cl)Cl)NC(=O)C3=CC=CS3
> <PUBCHEM_OPENEYE_ISO_SMILES>
C[C@@H](C(=O)NCC1CCN(CC1)CC2=CC(=C(C=C2)Cl)Cl)NC(=O)C3=CC=CS3
> <PUBCHEM_CACTVS_TPSA>
89.7
> <PUBCHEM_MONOISOTOPIC_WEIGHT>
453.1044536
> <PUBCHEM_TOTAL_CHARGE>
0
> <PUBCHEM_HEAVY_ATOM_COUNT>
29
> <PUBCHEM_ATOM_DEF_STEREO_COUNT>
1
> <PUBCHEM_ATOM_UDEF_STEREO_COUNT>
0
> <PUBCHEM_BOND_DEF_STEREO_COUNT>
0
> <PUBCHEM_BOND_UDEF_STEREO_COUNT>
0
> <PUBCHEM_ISOTOPIC_ATOM_COUNT>
0
> <PUBCHEM_COMPONENT_COUNT>
1
> <PUBCHEM_CACTVS_TAUTO_COUNT>
-1
> <PUBCHEM_COORDINATE_TYPE>
1
5
255
> <PUBCHEM_BONDANNOTATIONS>
16  19  8
16  20  8
19  22  8
20  23  8
22  24  8
23  24  8
26  27  8
27  28  8
28  29  8
3  26  8
3  29  8
18  8  6
$$$$
