508978
  -OEChem-10302200282D
 62 64  0     1  0  0  0  0  0999 V2000
    2.0000   -2.8272    0.0000 Cl  0  0  0  0  0  0  0  0  0  0  0  0
    3.7320   -3.8272    0.0000 Cl  0  0  0  0  0  0  0  0  0  0  0  0
   14.9058    2.7046    0.0000 Cl  0  0  0  0  0  0  0  0  0  0  0  0
   10.5656   -0.3224    0.0000 S   0  0  0  0  0  0  0  0  0  0  0  0
    7.3563    2.6273    0.0000 O   0  0  0  0  0  0  0  0  0  0  0  0
   11.4791    0.0843    0.0000 O   0  0  0  0  0  0  0  0  0  0  0  0
    9.6520   -0.7292    0.0000 O   0  0  0  0  0  0  0  0  0  0  0  0
   10.7466    1.4001    0.0000 O   0  0  0  0  0  0  0  0  0  0  0  0
    4.5981    0.6728    0.0000 N   0  0  3  0  0  0  0  0  0  0  0  0
    7.1753    0.9047    0.0000 N   0  0  0  0  0  0  0  0  0  0  0  0
    9.3454    2.4182    0.0000 N   0  0  0  0  0  0  0  0  0  0  0  0
   10.9277    3.1227    0.0000 N   0  0  0  0  0  0  0  0  0  0  0  0
    6.1808    1.0092    0.0000 C   0  0  2  0  0  0  0  0  0  0  0  0
    5.6808    1.8752    0.0000 C   0  0  0  0  0  0  0  0  0  0  0  0
    5.5116    0.2661    0.0000 C   0  0  0  0  0  0  0  0  0  0  0  0
    4.7026    1.6673    0.0000 C   0  0  0  0  0  0  0  0  0  0  0  0
    3.7320    0.1728    0.0000 C   0  0  0  0  0  0  0  0  0  0  0  0
    7.7631    1.7137    0.0000 C   0  0  0  0  0  0  0  0  0  0  0  0
    8.7576    1.6092    0.0000 C   0  0  2  0  0  0  0  0  0  0  0  0
    3.7320   -0.8272    0.0000 C   0  0  0  0  0  0  0  0  0  0  0  0
    9.1643    0.6956    0.0000 C   0  0  0  0  0  0  0  0  0  0  0  0
   10.1588    0.5911    0.0000 C   0  0  0  0  0  0  0  0  0  0  0  0
    2.8660   -1.3272    0.0000 C   0  0  0  0  0  0  0  0  0  0  0  0
    4.5981   -1.3272    0.0000 C   0  0  0  0  0  0  0  0  0  0  0  0
   10.3399    2.3137    0.0000 C   0  0  0  0  0  0  0  0  0  0  0  0
    2.8660   -2.3272    0.0000 C   0  0  0  0  0  0  0  0  0  0  0  0
    4.5981   -2.3272    0.0000 C   0  0  0  0  0  0  0  0  0  0  0  0
   10.9723   -1.2360    0.0000 C   0  0  0  0  0  0  0  0  0  0  0  0
    3.7320   -2.8272    0.0000 C   0  0  0  0  0  0  0  0  0  0  0  0
   11.9222    3.0182    0.0000 C   0  0  0  0  0  0  0  0  0  0  0  0
   12.5100    3.8272    0.0000 C   0  0  0  0  0  0  0  0  0  0  0  0
   12.3289    2.1046    0.0000 C   0  0  0  0  0  0  0  0  0  0  0  0
   13.5045    3.7226    0.0000 C   0  0  0  0  0  0  0  0  0  0  0  0
   13.3235    2.0001    0.0000 C   0  0  0  0  0  0  0  0  0  0  0  0
   13.9112    2.8091    0.0000 C   0  0  0  0  0  0  0  0  0  0  0  0
    6.4029    0.4304    0.0000 H   0  0  0  0  0  0  0  0  0  0  0  0
    6.2472    2.1274    0.0000 H   0  0  0  0  0  0  0  0  0  0  0  0
    5.4892    2.4649    0.0000 H   0  0  0  0  0  0  0  0  0  0  0  0
    5.2016   -0.2709    0.0000 H   0  0  0  0  0  0  0  0  0  0  0  0
    6.0132   -0.0983    0.0000 H   0  0  0  0  0  0  0  0  0  0  0  0
    4.6378    2.2839    0.0000 H   0  0  0  0  0  0  0  0  0  0  0  0
    4.0826    1.6673    0.0000 H   0  0  0  0  0  0  0  0  0  0  0  0
    7.4274    0.3383    0.0000 H   0  0  0  0  0  0  0  0  0  0  0  0
    3.5200    0.7554    0.0000 H   0  0  0  0  0  0  0  0  0  0  0  0
    3.1215    0.0652    0.0000 H   0  0  0  0  0  0  0  0  0  0  0  0
    9.3742    1.5444    0.0000 H   0  0  0  0  0  0  0  0  0  0  0  0
    8.5627    0.5456    0.0000 H   0  0  0  0  0  0  0  0  0  0  0  0
    9.2076    0.0772    0.0000 H   0  0  0  0  0  0  0  0  0  0  0  0
   10.7604    0.7411    0.0000 H   0  0  0  0  0  0  0  0  0  0  0  0
   10.1156    1.2096    0.0000 H   0  0  0  0  0  0  0  0  0  0  0  0
    9.0932    2.9846    0.0000 H   0  0  0  0  0  0  0  0  0  0  0  0
    2.3291   -1.0172    0.0000 H   0  0  0  0  0  0  0  0  0  0  0  0
    5.1350   -1.0172    0.0000 H   0  0  0  0  0  0  0  0  0  0  0  0
    5.1350   -2.6372    0.0000 H   0  0  0  0  0  0  0  0  0  0  0  0
   10.4059   -1.4882    0.0000 H   0  0  0  0  0  0  0  0  0  0  0  0
   11.2245   -1.8024    0.0000 H   0  0  0  0  0  0  0  0  0  0  0  0
   11.5387   -0.9838    0.0000 H   0  0  0  0  0  0  0  0  0  0  0  0
   10.6755    3.6891    0.0000 H   0  0  0  0  0  0  0  0  0  0  0  0
   12.2578    4.3936    0.0000 H   0  0  0  0  0  0  0  0  0  0  0  0
   11.9645    1.6030    0.0000 H   0  0  0  0  0  0  0  0  0  0  0  0
   13.8689    4.2242    0.0000 H   0  0  0  0  0  0  0  0  0  0  0  0
   13.5756    1.4337    0.0000 H   0  0  0  0  0  0  0  0  0  0  0  0
  1 26  1  0  0  0  0
  2 29  1  0  0  0  0
  3 35  1  0  0  0  0
  4  6  2  0  0  0  0
  4  7  2  0  0  0  0
  4 22  1  0  0  0  0
  4 28  1  0  0  0  0
  5 18  2  0  0  0  0
  8 25  2  0  0  0  0
  9 15  1  0  0  0  0
  9 16  1  0  0  0  0
  9 17  1  0  0  0  0
 13 10  1  1  0  0  0
 10 18  1  0  0  0  0
 10 43  1  0  0  0  0
 19 11  1  1  0  0  0
 11 25  1  0  0  0  0
 11 51  1  0  0  0  0
 12 25  1  0  0  0  0
 12 30  1  0  0  0  0
 12 58  1  0  0  0  0
 13 14  1  0  0  0  0
 13 15  1  0  0  0  0
 13 36  1  0  0  0  0
 14 16  1  0  0  0  0
 14 37  1  0  0  0  0
 14 38  1  0  0  0  0
 15 39  1  0  0  0  0
 15 40  1  0  0  0  0
 16 41  1  0  0  0  0
 16 42  1  0  0  0  0
 17 20  1  0  0  0  0
 17 44  1  0  0  0  0
 17 45  1  0  0  0  0
 18 19  1  0  0  0  0
 19 21  1  0  0  0  0
 19 46  1  0  0  0  0
 20 23  2  0  0  0  0
 20 24  1  0  0  0  0
 21 22  1  0  0  0  0
 21 47  1  0  0  0  0
 21 48  1  0  0  0  0
 22 49  1  0  0  0  0
 22 50  1  0  0  0  0
 23 26  1  0  0  0  0
 23 52  1  0  0  0  0
 24 27  2  0  0  0  0
 24 53  1  0  0  0  0
 26 29  2  0  0  0  0
 27 29  1  0  0  0  0
 27 54  1  0  0  0  0
 28 55  1  0  0  0  0
 28 56  1  0  0  0  0
 28 57  1  0  0  0  0
 30 31  2  0  0  0  0
 30 32  1  0  0  0  0
 31 33  1  0  0  0  0
 31 59  1  0  0  0  0
 32 34  2  0  0  0  0
 32 60  1  0  0  0  0
 33 35  2  0  0  0  0
 33 61  1  0  0  0  0
 34 35  1  0  0  0  0
 34 62  1  0  0  0  0
M  END
> <PUBCHEM_COMPOUND_CID>
508978
> <PUBCHEM_COMPOUND_CANONICALIZED>
1
> <PUBCHEM_CACTVS_COMPLEXITY>
820
> <PUBCHEM_CACTVS_HBOND_ACCEPTOR>
5
> <PUBCHEM_CACTVS_HBOND_DONOR>
3
> <PUBCHEM_CACTVS_ROTATABLE_BOND>
9
> <PUBCHEM_CACTVS_SUBSKEYS>
AAADceB7uABGAAAAAAAAAAAAAAAAAWAAAAAwYAAAAAAAAAABQAAAHgYQAAAADCrF2CSzwIPAAAqIAiVSUHDCAAAhBxAIisGIZoiIYDLh07GUIAholgLIyCcQgAAOBABAIAAAAAQIAIBAAAAACAAAAAAAAA==
> <PUBCHEM_IUPAC_OPENEYE_NAME>
(2S)-2-[(4-chlorophenyl)carbamoylamino]-N-[(3R)-1-[(3,4-dichlorophenyl)methyl]pyrrolidin-3-yl]-4-methylsulfonyl-butanamide
> <PUBCHEM_IUPAC_CAS_NAME>
(2S)-2-[[(4-chloroanilino)-oxomethyl]amino]-N-[(3R)-1-[(3,4-dichlorophenyl)methyl]-3-pyrrolidinyl]-4-methylsulfonylbutanamide
> <PUBCHEM_IUPAC_NAME_MARKUP>
(2<I>S</I>)-2-[(4-chlorophenyl)carbamoylamino]-<I>N</I>-[(3<I>R</I>)-1-[(3,4-dichlorophenyl)methyl]pyrrolidin-3-yl]-4-methylsulfonylbutanamide
> <PUBCHEM_IUPAC_NAME>
(2S)-2-[(4-chlorophenyl)carbamoylamino]-N-[(3R)-1-[(3,4-dichlorophenyl)methyl]pyrrolidin-3-yl]-4-methylsulfonylbutanamide
> <PUBCHEM_IUPAC_SYSTEMATIC_NAME>
(2S)-2-[(4-chlorophenyl)carbamoylamino]-N-[(3R)-1-[(3,4-dichlorophenyl)methyl]pyrrolidin-3-yl]-4-methylsulfonyl-butanamide
> <PUBCHEM_IUPAC_TRADITIONAL_NAME>
(2S)-2-[(4-chlorophenyl)carbamoylamino]-N-[(3R)-1-(3,4-dichlorobenzyl)pyrrolidin-3-yl]-4-mesyl-butyramide
> <PUBCHEM_IUPAC_INCHI>
InChI=1S/C23H27Cl3N4O4S/c1-35(33,34)11-9-21(29-23(32)28-17-5-3-16(24)4-6-17)22(31)27-18-8-10-30(14-18)13-15-2-7-19(25)20(26)12-15/h2-7,12,18,21H,8-11,13-14H2,1H3,(H,27,31)(H2,28,29,32)/t18-,21+/m1/s1
> <PUBCHEM_IUPAC_INCHIKEY>
TVGARIMVQGQLBQ-NQIIRXRSSA-N
> <PUBCHEM_XLOGP3_AA>
3.7
> <PUBCHEM_EXACT_MASS>
560.081860
> <PUBCHEM_MOLECULAR_FORMULA>
C23H27Cl3N4O4S
> <PUBCHEM_MOLECULAR_WEIGHT>
561.9
> <PUBCHEM_OPENEYE_CAN_SMILES>
CS(=O)(=O)CCC(C(=O)NC1CCN(C1)CC2=CC(=C(C=C2)Cl)Cl)NC(=O)NC3=CC=C(C=C3)Cl
> <PUBCHEM_OPENEYE_ISO_SMILES>
CS(=O)(=O)CC[C@@H](C(=O)N[C@@H]1CCN(C1)CC2=CC(=C(C=C2)Cl)Cl)NC(=O)NC3=CC=C(C=C3)Cl
> <PUBCHEM_CACTVS_TPSA>
116
> <PUBCHEM_MONOISOTOPIC_WEIGHT>
560.081860
> <PUBCHEM_TOTAL_CHARGE>
0
> <PUBCHEM_HEAVY_ATOM_COUNT>
35
> <PUBCHEM_ATOM_DEF_STEREO_COUNT>
2
> <PUBCHEM_ATOM_UDEF_STEREO_COUNT>
0
> <PUBCHEM_BOND_DEF_STEREO_COUNT>
0
> <PUBCHEM_BOND_UDEF_STEREO_COUNT>
0
> <PUBCHEM_ISOTOPIC_ATOM_COUNT>
0
> <PUBCHEM_COMPONENT_COUNT>
1
> <PUBCHEM_CACTVS_TAUTO_COUNT>
-1
> <PUBCHEM_COORDINATE_TYPE>
1
5
255
> <PUBCHEM_BONDANNOTATIONS>
13  10  5
19  11  5
20  23  8
20  24  8
23  26  8
24  27  8
26  29  8
27  29  8
30  31  8
30  32  8
31  33  8
32  34  8
33  35  8
34  35  8
$$$$
