508925
  -OEChem-10302200282D
 65 67  0     1  0  0  0  0  0999 V2000
    2.0000   -5.7500    0.0000 Cl  0  0  0  0  0  0  0  0  0  0  0  0
    3.7320   -6.7500    0.0000 Cl  0  0  0  0  0  0  0  0  0  0  0  0
    8.9282    0.2500    0.0000 O   0  0  0  0  0  0  0  0  0  0  0  0
    8.0622    3.7500    0.0000 O   0  0  0  0  0  0  0  0  0  0  0  0
    4.5981   -2.2500    0.0000 N   0  0  0  0  0  0  0  0  0  0  0  0
    7.1962    0.2500    0.0000 N   0  0  0  0  0  0  0  0  0  0  0  0
    8.9282    2.2500    0.0000 N   0  0  0  0  0  0  0  0  0  0  0  0
    9.7942    3.7500    0.0000 N   0  0  0  0  0  0  0  0  0  0  0  0
    6.3301   -1.2500    0.0000 C   0  0  0  0  0  0  0  0  0  0  0  0
    6.3301   -2.2500    0.0000 C   0  0  0  0  0  0  0  0  0  0  0  0
    5.4641   -0.7500    0.0000 C   0  0  0  0  0  0  0  0  0  0  0  0
    5.4641   -2.7500    0.0000 C   0  0  0  0  0  0  0  0  0  0  0  0
    4.5981   -1.2500    0.0000 C   0  0  0  0  0  0  0  0  0  0  0  0
    7.1962   -0.7500    0.0000 C   0  0  0  0  0  0  0  0  0  0  0  0
    3.7320   -2.7500    0.0000 C   0  0  0  0  0  0  0  0  0  0  0  0
    3.7320   -3.7500    0.0000 C   0  0  0  0  0  0  0  0  0  0  0  0
    8.0622    1.7500    0.0000 C   0  0  2  0  0  0  0  0  0  0  0  0
    8.0622    0.7500    0.0000 C   0  0  0  0  0  0  0  0  0  0  0  0
    7.1962    2.2500    0.0000 C   0  0  0  0  0  0  0  0  0  0  0  0
    2.8660   -4.2500    0.0000 C   0  0  0  0  0  0  0  0  0  0  0  0
    4.5981   -4.2500    0.0000 C   0  0  0  0  0  0  0  0  0  0  0  0
    7.1962    3.2500    0.0000 C   0  0  0  0  0  0  0  0  0  0  0  0
    6.3301    1.7500    0.0000 C   0  0  0  0  0  0  0  0  0  0  0  0
    2.8660   -5.2500    0.0000 C   0  0  0  0  0  0  0  0  0  0  0  0
    4.5981   -5.2500    0.0000 C   0  0  0  0  0  0  0  0  0  0  0  0
    8.9282    3.2500    0.0000 C   0  0  0  0  0  0  0  0  0  0  0  0
    3.7320   -5.7500    0.0000 C   0  0  0  0  0  0  0  0  0  0  0  0
    9.7942    4.7500    0.0000 C   0  0  0  0  0  0  0  0  0  0  0  0
    8.9282    5.2500    0.0000 C   0  0  0  0  0  0  0  0  0  0  0  0
   10.6603    5.2500    0.0000 C   0  0  0  0  0  0  0  0  0  0  0  0
    8.9282    6.2500    0.0000 C   0  0  0  0  0  0  0  0  0  0  0  0
   10.6603    6.2500    0.0000 C   0  0  0  0  0  0  0  0  0  0  0  0
    9.7942    6.7500    0.0000 C   0  0  0  0  0  0  0  0  0  0  0  0
    6.8671   -1.5600    0.0000 H   0  0  0  0  0  0  0  0  0  0  0  0
    6.5422   -2.8326    0.0000 H   0  0  0  0  0  0  0  0  0  0  0  0
    6.9407   -2.1423    0.0000 H   0  0  0  0  0  0  0  0  0  0  0  0
    5.8626   -0.2751    0.0000 H   0  0  0  0  0  0  0  0  0  0  0  0
    5.0656   -0.2751    0.0000 H   0  0  0  0  0  0  0  0  0  0  0  0
    5.0656   -3.2250    0.0000 H   0  0  0  0  0  0  0  0  0  0  0  0
    5.8626   -3.2250    0.0000 H   0  0  0  0  0  0  0  0  0  0  0  0
    4.3860   -0.6674    0.0000 H   0  0  0  0  0  0  0  0  0  0  0  0
    3.9875   -1.3577    0.0000 H   0  0  0  0  0  0  0  0  0  0  0  0
    7.4082   -1.3326    0.0000 H   0  0  0  0  0  0  0  0  0  0  0  0
    7.8067   -0.6423    0.0000 H   0  0  0  0  0  0  0  0  0  0  0  0
    3.5200   -2.1674    0.0000 H   0  0  0  0  0  0  0  0  0  0  0  0
    3.1215   -2.8577    0.0000 H   0  0  0  0  0  0  0  0  0  0  0  0
    6.6592    0.5600    0.0000 H   0  0  0  0  0  0  0  0  0  0  0  0
    8.0622    2.3700    0.0000 H   0  0  0  0  0  0  0  0  0  0  0  0
    6.6592    2.5600    0.0000 H   0  0  0  0  0  0  0  0  0  0  0  0
    2.3291   -3.9400    0.0000 H   0  0  0  0  0  0  0  0  0  0  0  0
    5.1350   -3.9400    0.0000 H   0  0  0  0  0  0  0  0  0  0  0  0
    9.4651    1.9400    0.0000 H   0  0  0  0  0  0  0  0  0  0  0  0
    7.8162    3.2500    0.0000 H   0  0  0  0  0  0  0  0  0  0  0  0
    7.1962    3.8700    0.0000 H   0  0  0  0  0  0  0  0  0  0  0  0
    6.5762    3.2500    0.0000 H   0  0  0  0  0  0  0  0  0  0  0  0
    6.0201    2.2869    0.0000 H   0  0  0  0  0  0  0  0  0  0  0  0
    5.7932    1.4400    0.0000 H   0  0  0  0  0  0  0  0  0  0  0  0
    6.6401    1.2131    0.0000 H   0  0  0  0  0  0  0  0  0  0  0  0
    5.1350   -5.5600    0.0000 H   0  0  0  0  0  0  0  0  0  0  0  0
   10.3312    3.4400    0.0000 H   0  0  0  0  0  0  0  0  0  0  0  0
    8.3913    4.9400    0.0000 H   0  0  0  0  0  0  0  0  0  0  0  0
   11.1972    4.9400    0.0000 H   0  0  0  0  0  0  0  0  0  0  0  0
    8.3913    6.5600    0.0000 H   0  0  0  0  0  0  0  0  0  0  0  0
   11.1972    6.5600    0.0000 H   0  0  0  0  0  0  0  0  0  0  0  0
    9.7942    7.3700    0.0000 H   0  0  0  0  0  0  0  0  0  0  0  0
  1 24  1  0  0  0  0
  2 27  1  0  0  0  0
  3 18  2  0  0  0  0
  4 26  2  0  0  0  0
  5 12  1  0  0  0  0
  5 13  1  0  0  0  0
  5 15  1  0  0  0  0
  6 14  1  0  0  0  0
  6 18  1  0  0  0  0
  6 47  1  0  0  0  0
 17  7  1  6  0  0  0
  7 26  1  0  0  0  0
  7 52  1  0  0  0  0
  8 26  1  0  0  0  0
  8 28  1  0  0  0  0
  8 60  1  0  0  0  0
  9 10  1  0  0  0  0
  9 11  1  0  0  0  0
  9 14  1  0  0  0  0
  9 34  1  0  0  0  0
 10 12  1  0  0  0  0
 10 35  1  0  0  0  0
 10 36  1  0  0  0  0
 11 13  1  0  0  0  0
 11 37  1  0  0  0  0
 11 38  1  0  0  0  0
 12 39  1  0  0  0  0
 12 40  1  0  0  0  0
 13 41  1  0  0  0  0
 13 42  1  0  0  0  0
 14 43  1  0  0  0  0
 14 44  1  0  0  0  0
 15 16  1  0  0  0  0
 15 45  1  0  0  0  0
 15 46  1  0  0  0  0
 16 20  2  0  0  0  0
 16 21  1  0  0  0  0
 17 18  1  0  0  0  0
 17 19  1  0  0  0  0
 17 48  1  0  0  0  0
 19 22  1  0  0  0  0
 19 23  1  0  0  0  0
 19 49  1  0  0  0  0
 20 24  1  0  0  0  0
 20 50  1  0  0  0  0
 21 25  2  0  0  0  0
 21 51  1  0  0  0  0
 22 53  1  0  0  0  0
 22 54  1  0  0  0  0
 22 55  1  0  0  0  0
 23 56  1  0  0  0  0
 23 57  1  0  0  0  0
 23 58  1  0  0  0  0
 24 27  2  0  0  0  0
 25 27  1  0  0  0  0
 25 59  1  0  0  0  0
 28 29  2  0  0  0  0
 28 30  1  0  0  0  0
 29 31  1  0  0  0  0
 29 61  1  0  0  0  0
 30 32  2  0  0  0  0
 30 62  1  0  0  0  0
 31 33  2  0  0  0  0
 31 63  1  0  0  0  0
 32 33  1  0  0  0  0
 32 64  1  0  0  0  0
 33 65  1  0  0  0  0
M  END
> <PUBCHEM_COMPOUND_CID>
508925
> <PUBCHEM_COMPOUND_CANONICALIZED>
1
> <PUBCHEM_CACTVS_COMPLEXITY>
622
> <PUBCHEM_CACTVS_HBOND_ACCEPTOR>
3
> <PUBCHEM_CACTVS_HBOND_DONOR>
3
> <PUBCHEM_CACTVS_ROTATABLE_BOND>
8
> <PUBCHEM_CACTVS_SUBSKEYS>
AAADcfB7sAAGAAAAAAAAAAAAAAAAAAAAAAA8YIAAAAAAAAABQAAAHgIQAAAADSrBmCQzwIPAAACIAiVSUACCAAAhBwAIisGIZoiIYDLBk7GUIAholgLIyCcQgAAOBAAAIAAAAAQIAABAAAAACAAAAAAAAA==
> <PUBCHEM_IUPAC_OPENEYE_NAME>
(2S)-N-[[1-[(3,4-dichlorophenyl)methyl]-4-piperidyl]methyl]-3-methyl-2-(phenylcarbamoylamino)butanamide
> <PUBCHEM_IUPAC_CAS_NAME>
(2S)-2-[[anilino(oxo)methyl]amino]-N-[[1-[(3,4-dichlorophenyl)methyl]-4-piperidinyl]methyl]-3-methylbutanamide
> <PUBCHEM_IUPAC_NAME_MARKUP>
(2<I>S</I>)-<I>N</I>-[[1-[(3,4-dichlorophenyl)methyl]piperidin-4-yl]methyl]-3-methyl-2-(phenylcarbamoylamino)butanamide
> <PUBCHEM_IUPAC_NAME>
(2S)-N-[[1-[(3,4-dichlorophenyl)methyl]piperidin-4-yl]methyl]-3-methyl-2-(phenylcarbamoylamino)butanamide
> <PUBCHEM_IUPAC_SYSTEMATIC_NAME>
(2S)-N-[[1-[(3,4-dichlorophenyl)methyl]piperidin-4-yl]methyl]-3-methyl-2-(phenylcarbamoylamino)butanamide
> <PUBCHEM_IUPAC_TRADITIONAL_NAME>
(2S)-N-[[1-(3,4-dichlorobenzyl)-4-piperidyl]methyl]-3-methyl-2-(phenylcarbamoylamino)butyramide
> <PUBCHEM_IUPAC_INCHI>
InChI=1S/C25H32Cl2N4O2/c1-17(2)23(30-25(33)29-20-6-4-3-5-7-20)24(32)28-15-18-10-12-31(13-11-18)16-19-8-9-21(26)22(27)14-19/h3-9,14,17-18,23H,10-13,15-16H2,1-2H3,(H,28,32)(H2,29,30,33)/t23-/m0/s1
> <PUBCHEM_IUPAC_INCHIKEY>
WLDCQQZWODKPBJ-QHCPKHFHSA-N
> <PUBCHEM_XLOGP3_AA>
5.2
> <PUBCHEM_EXACT_MASS>
490.1902317
> <PUBCHEM_MOLECULAR_FORMULA>
C25H32Cl2N4O2
> <PUBCHEM_MOLECULAR_WEIGHT>
491.4
> <PUBCHEM_OPENEYE_CAN_SMILES>
CC(C)C(C(=O)NCC1CCN(CC1)CC2=CC(=C(C=C2)Cl)Cl)NC(=O)NC3=CC=CC=C3
> <PUBCHEM_OPENEYE_ISO_SMILES>
CC(C)[C@@H](C(=O)NCC1CCN(CC1)CC2=CC(=C(C=C2)Cl)Cl)NC(=O)NC3=CC=CC=C3
> <PUBCHEM_CACTVS_TPSA>
73.5
> <PUBCHEM_MONOISOTOPIC_WEIGHT>
490.1902317
> <PUBCHEM_TOTAL_CHARGE>
0
> <PUBCHEM_HEAVY_ATOM_COUNT>
33
> <PUBCHEM_ATOM_DEF_STEREO_COUNT>
1
> <PUBCHEM_ATOM_UDEF_STEREO_COUNT>
0
> <PUBCHEM_BOND_DEF_STEREO_COUNT>
0
> <PUBCHEM_BOND_UDEF_STEREO_COUNT>
0
> <PUBCHEM_ISOTOPIC_ATOM_COUNT>
0
> <PUBCHEM_COMPONENT_COUNT>
1
> <PUBCHEM_CACTVS_TAUTO_COUNT>
-1
> <PUBCHEM_COORDINATE_TYPE>
1
5
255
> <PUBCHEM_BONDANNOTATIONS>
16  20  8
16  21  8
20  24  8
21  25  8
24  27  8
25  27  8
28  29  8
28  30  8
29  31  8
30  32  8
31  33  8
32  33  8
17  7  6
$$$$
