508997
  -OEChem-10302200282D
 58 60  0     1  0  0  0  0  0999 V2000
    2.0000   -5.0000    0.0000 Cl  0  0  0  0  0  0  0  0  0  0  0  0
    3.7320   -6.0000    0.0000 Cl  0  0  0  0  0  0  0  0  0  0  0  0
    8.9282    1.0000    0.0000 O   0  0  0  0  0  0  0  0  0  0  0  0
    8.0622    4.5000    0.0000 O   0  0  0  0  0  0  0  0  0  0  0  0
   10.6603    3.0000    0.0000 O   0  0  0  0  0  0  0  0  0  0  0  0
    4.5981   -1.5000    0.0000 N   0  0  0  0  0  0  0  0  0  0  0  0
    7.1962    1.0000    0.0000 N   0  0  0  0  0  0  0  0  0  0  0  0
    8.9282    3.0000    0.0000 N   0  0  0  0  0  0  0  0  0  0  0  0
    6.3301   -0.5000    0.0000 C   0  0  0  0  0  0  0  0  0  0  0  0
    6.3301   -1.5000    0.0000 C   0  0  0  0  0  0  0  0  0  0  0  0
    5.4641    0.0000    0.0000 C   0  0  0  0  0  0  0  0  0  0  0  0
    5.4641   -2.0000    0.0000 C   0  0  0  0  0  0  0  0  0  0  0  0
    4.5981   -0.5000    0.0000 C   0  0  0  0  0  0  0  0  0  0  0  0
    7.1962    0.0000    0.0000 C   0  0  0  0  0  0  0  0  0  0  0  0
    3.7320   -2.0000    0.0000 C   0  0  0  0  0  0  0  0  0  0  0  0
    3.7320   -3.0000    0.0000 C   0  0  0  0  0  0  0  0  0  0  0  0
    8.0622    1.5000    0.0000 C   0  0  0  0  0  0  0  0  0  0  0  0
    8.0622    2.5000    0.0000 C   0  0  2  0  0  0  0  0  0  0  0  0
    2.8660   -3.5000    0.0000 C   0  0  0  0  0  0  0  0  0  0  0  0
    4.5981   -3.5000    0.0000 C   0  0  0  0  0  0  0  0  0  0  0  0
    7.1962    3.0000    0.0000 C   0  0  0  0  0  0  0  0  0  0  0  0
    2.8660   -4.5000    0.0000 C   0  0  0  0  0  0  0  0  0  0  0  0
    4.5981   -4.5000    0.0000 C   0  0  0  0  0  0  0  0  0  0  0  0
    3.7320   -5.0000    0.0000 C   0  0  0  0  0  0  0  0  0  0  0  0
    8.9282    4.0000    0.0000 C   0  0  0  0  0  0  0  0  0  0  0  0
    9.7942    4.5000    0.0000 C   0  0  0  0  0  0  0  0  0  0  0  0
   10.6603    4.0000    0.0000 C   0  0  0  0  0  0  0  0  0  0  0  0
    9.7942    5.5000    0.0000 C   0  0  0  0  0  0  0  0  0  0  0  0
   11.5263    4.5000    0.0000 C   0  0  0  0  0  0  0  0  0  0  0  0
   10.6603    6.0000    0.0000 C   0  0  0  0  0  0  0  0  0  0  0  0
   11.5263    5.5000    0.0000 C   0  0  0  0  0  0  0  0  0  0  0  0
    6.8671   -0.8100    0.0000 H   0  0  0  0  0  0  0  0  0  0  0  0
    6.5422   -2.0826    0.0000 H   0  0  0  0  0  0  0  0  0  0  0  0
    6.9407   -1.3923    0.0000 H   0  0  0  0  0  0  0  0  0  0  0  0
    5.8626    0.4749    0.0000 H   0  0  0  0  0  0  0  0  0  0  0  0
    5.0656    0.4749    0.0000 H   0  0  0  0  0  0  0  0  0  0  0  0
    5.0656   -2.4750    0.0000 H   0  0  0  0  0  0  0  0  0  0  0  0
    5.8626   -2.4750    0.0000 H   0  0  0  0  0  0  0  0  0  0  0  0
    4.3860    0.0826    0.0000 H   0  0  0  0  0  0  0  0  0  0  0  0
    3.9875   -0.6077    0.0000 H   0  0  0  0  0  0  0  0  0  0  0  0
    7.4082   -0.5826    0.0000 H   0  0  0  0  0  0  0  0  0  0  0  0
    7.8067    0.1077    0.0000 H   0  0  0  0  0  0  0  0  0  0  0  0
    3.5200   -1.4174    0.0000 H   0  0  0  0  0  0  0  0  0  0  0  0
    3.1215   -2.1077    0.0000 H   0  0  0  0  0  0  0  0  0  0  0  0
    6.6592    1.3100    0.0000 H   0  0  0  0  0  0  0  0  0  0  0  0
    8.0622    3.1200    0.0000 H   0  0  0  0  0  0  0  0  0  0  0  0
    2.3291   -3.1900    0.0000 H   0  0  0  0  0  0  0  0  0  0  0  0
    5.1350   -3.1900    0.0000 H   0  0  0  0  0  0  0  0  0  0  0  0
    7.5062    3.5369    0.0000 H   0  0  0  0  0  0  0  0  0  0  0  0
    6.6592    3.3100    0.0000 H   0  0  0  0  0  0  0  0  0  0  0  0
    6.8862    2.4631    0.0000 H   0  0  0  0  0  0  0  0  0  0  0  0
    5.1350   -4.8100    0.0000 H   0  0  0  0  0  0  0  0  0  0  0  0
    9.4651    2.6900    0.0000 H   0  0  0  0  0  0  0  0  0  0  0  0
    9.2573    5.8100    0.0000 H   0  0  0  0  0  0  0  0  0  0  0  0
   12.0632    4.1900    0.0000 H   0  0  0  0  0  0  0  0  0  0  0  0
   10.6603    6.6200    0.0000 H   0  0  0  0  0  0  0  0  0  0  0  0
   12.0632    5.8100    0.0000 H   0  0  0  0  0  0  0  0  0  0  0  0
   11.1972    2.6900    0.0000 H   0  0  0  0  0  0  0  0  0  0  0  0
  1 22  1  0  0  0  0
  2 24  1  0  0  0  0
  3 17  2  0  0  0  0
  4 25  2  0  0  0  0
  5 27  1  0  0  0  0
  5 58  1  0  0  0  0
  6 12  1  0  0  0  0
  6 13  1  0  0  0  0
  6 15  1  0  0  0  0
  7 14  1  0  0  0  0
  7 17  1  0  0  0  0
  7 45  1  0  0  0  0
 18  8  1  6  0  0  0
  8 25  1  0  0  0  0
  8 53  1  0  0  0  0
  9 10  1  0  0  0  0
  9 11  1  0  0  0  0
  9 14  1  0  0  0  0
  9 32  1  0  0  0  0
 10 12  1  0  0  0  0
 10 33  1  0  0  0  0
 10 34  1  0  0  0  0
 11 13  1  0  0  0  0
 11 35  1  0  0  0  0
 11 36  1  0  0  0  0
 12 37  1  0  0  0  0
 12 38  1  0  0  0  0
 13 39  1  0  0  0  0
 13 40  1  0  0  0  0
 14 41  1  0  0  0  0
 14 42  1  0  0  0  0
 15 16  1  0  0  0  0
 15 43  1  0  0  0  0
 15 44  1  0  0  0  0
 16 19  2  0  0  0  0
 16 20  1  0  0  0  0
 17 18  1  0  0  0  0
 18 21  1  0  0  0  0
 18 46  1  0  0  0  0
 19 22  1  0  0  0  0
 19 47  1  0  0  0  0
 20 23  2  0  0  0  0
 20 48  1  0  0  0  0
 21 49  1  0  0  0  0
 21 50  1  0  0  0  0
 21 51  1  0  0  0  0
 22 24  2  0  0  0  0
 23 24  1  0  0  0  0
 23 52  1  0  0  0  0
 25 26  1  0  0  0  0
 26 27  1  0  0  0  0
 26 28  2  0  0  0  0
 27 29  2  0  0  0  0
 28 30  1  0  0  0  0
 28 54  1  0  0  0  0
 29 31  1  0  0  0  0
 29 55  1  0  0  0  0
 30 31  2  0  0  0  0
 30 56  1  0  0  0  0
 31 57  1  0  0  0  0
M  END
> <PUBCHEM_COMPOUND_CID>
508997
> <PUBCHEM_COMPOUND_CANONICALIZED>
1
> <PUBCHEM_CACTVS_COMPLEXITY>
601
> <PUBCHEM_CACTVS_HBOND_ACCEPTOR>
4
> <PUBCHEM_CACTVS_HBOND_DONOR>
3
> <PUBCHEM_CACTVS_ROTATABLE_BOND>
7
> <PUBCHEM_CACTVS_SUBSKEYS>
AAADceB7MAAGAAAAAAAAAAAAAAAAAAAAAAA8YIAAAAAAAAABQAAAHgIQCAAADS7BmCQyBoPAAgCIAiFSEACCAAAkJQAIisGODsgIZjaDlzOUcUhm9hGImYeYyCCOBAAAIAAIAAQIAABAABAACAAAAAAAAA==
> <PUBCHEM_IUPAC_OPENEYE_NAME>
N-[(1S)-2-[[1-[(3,4-dichlorophenyl)methyl]-4-piperidyl]methylamino]-1-methyl-2-oxo-ethyl]-2-hydroxy-benzamide
> <PUBCHEM_IUPAC_CAS_NAME>
N-[(2S)-1-[[1-[(3,4-dichlorophenyl)methyl]-4-piperidinyl]methylamino]-1-oxopropan-2-yl]-2-hydroxybenzamide
> <PUBCHEM_IUPAC_NAME_MARKUP>
<I>N</I>-[(2<I>S</I>)-1-[[1-[(3,4-dichlorophenyl)methyl]piperidin-4-yl]methylamino]-1-oxopropan-2-yl]-2-hydroxybenzamide
> <PUBCHEM_IUPAC_NAME>
N-[(2S)-1-[[1-[(3,4-dichlorophenyl)methyl]piperidin-4-yl]methylamino]-1-oxopropan-2-yl]-2-hydroxybenzamide
> <PUBCHEM_IUPAC_SYSTEMATIC_NAME>
N-[(2S)-1-[[1-[(3,4-dichlorophenyl)methyl]piperidin-4-yl]methylamino]-1-oxidanylidene-propan-2-yl]-2-oxidanyl-benzamide
> <PUBCHEM_IUPAC_TRADITIONAL_NAME>
N-[(1S)-2-[[1-(3,4-dichlorobenzyl)-4-piperidyl]methylamino]-2-keto-1-methyl-ethyl]-2-hydroxy-benzamide
> <PUBCHEM_IUPAC_INCHI>
InChI=1S/C23H27Cl2N3O3/c1-15(27-23(31)18-4-2-3-5-21(18)29)22(30)26-13-16-8-10-28(11-9-16)14-17-6-7-19(24)20(25)12-17/h2-7,12,15-16,29H,8-11,13-14H2,1H3,(H,26,30)(H,27,31)/t15-/m0/s1
> <PUBCHEM_IUPAC_INCHIKEY>
MXILUDRFTDDBOF-HNNXBMFYSA-N
> <PUBCHEM_XLOGP3_AA>
4.7
> <PUBCHEM_EXACT_MASS>
463.1429471
> <PUBCHEM_MOLECULAR_FORMULA>
C23H27Cl2N3O3
> <PUBCHEM_MOLECULAR_WEIGHT>
464.4
> <PUBCHEM_OPENEYE_CAN_SMILES>
CC(C(=O)NCC1CCN(CC1)CC2=CC(=C(C=C2)Cl)Cl)NC(=O)C3=CC=CC=C3O
> <PUBCHEM_OPENEYE_ISO_SMILES>
C[C@@H](C(=O)NCC1CCN(CC1)CC2=CC(=C(C=C2)Cl)Cl)NC(=O)C3=CC=CC=C3O
> <PUBCHEM_CACTVS_TPSA>
81.7
> <PUBCHEM_MONOISOTOPIC_WEIGHT>
463.1429471
> <PUBCHEM_TOTAL_CHARGE>
0
> <PUBCHEM_HEAVY_ATOM_COUNT>
31
> <PUBCHEM_ATOM_DEF_STEREO_COUNT>
1
> <PUBCHEM_ATOM_UDEF_STEREO_COUNT>
0
> <PUBCHEM_BOND_DEF_STEREO_COUNT>
0
> <PUBCHEM_BOND_UDEF_STEREO_COUNT>
0
> <PUBCHEM_ISOTOPIC_ATOM_COUNT>
0
> <PUBCHEM_COMPONENT_COUNT>
1
> <PUBCHEM_CACTVS_TAUTO_COUNT>
-1
> <PUBCHEM_COORDINATE_TYPE>
1
5
255
> <PUBCHEM_BONDANNOTATIONS>
16  19  8
16  20  8
19  22  8
20  23  8
22  24  8
23  24  8
26  27  8
26  28  8
27  29  8
28  30  8
29  31  8
30  31  8
18  8  6
$$$$
