508968
  -OEChem-10302200282D
 66 69  0     1  0  0  0  0  0999 V2000
    2.0000   -2.3787    0.0000 Cl  0  0  0  0  0  0  0  0  0  0  0  0
    2.8135   -4.2058    0.0000 Cl  0  0  0  0  0  0  0  0  0  0  0  0
    4.9389    1.6664    0.0000 S   0  0  0  0  0  0  0  0  0  0  0  0
    8.1482   -1.2833    0.0000 O   0  0  0  0  0  0  0  0  0  0  0  0
    4.0254    1.2596    0.0000 O   0  0  0  0  0  0  0  0  0  0  0  0
    5.8525    2.0731    0.0000 O   0  0  0  0  0  0  0  0  0  0  0  0
    4.7579   -0.0562    0.0000 O   0  0  0  0  0  0  0  0  0  0  0  0
   10.9064    0.6711    0.0000 N   0  0  3  0  0  0  0  0  0  0  0  0
    8.3292    0.4393    0.0000 N   0  0  0  0  0  0  0  0  0  0  0  0
    6.1591   -1.0742    0.0000 N   0  0  0  0  0  0  0  0  0  0  0  0
    9.3238    0.3347    0.0000 C   0  0  2  0  0  0  0  0  0  0  0  0
    9.8238   -0.5313    0.0000 C   0  0  0  0  0  0  0  0  0  0  0  0
    9.9929    1.0779    0.0000 C   0  0  0  0  0  0  0  0  0  0  0  0
   10.8019   -0.3234    0.0000 C   0  0  0  0  0  0  0  0  0  0  0  0
   11.7725    1.1711    0.0000 C   0  0  0  0  0  0  0  0  0  0  0  0
    7.7414   -0.3698    0.0000 C   0  0  0  0  0  0  0  0  0  0  0  0
   11.7725    2.1711    0.0000 C   0  0  0  0  0  0  0  0  0  0  0  0
    6.7469   -0.2652    0.0000 C   0  0  2  0  0  0  0  0  0  0  0  0
    6.3402    0.6483    0.0000 C   0  0  0  0  0  0  0  0  0  0  0  0
   12.6385    2.6711    0.0000 C   0  0  0  0  0  0  0  0  0  0  0  0
    5.3457    0.7528    0.0000 C   0  0  0  0  0  0  0  0  0  0  0  0
   10.9064    2.6711    0.0000 C   0  0  0  0  0  0  0  0  0  0  0  0
   12.6385    3.6711    0.0000 C   0  0  0  0  0  0  0  0  0  0  0  0
   10.9064    3.6711    0.0000 C   0  0  0  0  0  0  0  0  0  0  0  0
   13.5324    2.1365    0.0000 C   0  0  0  0  0  0  0  0  0  0  0  0
   11.7725    4.1711    0.0000 C   0  0  0  0  0  0  0  0  0  0  0  0
    5.1646   -0.9697    0.0000 C   0  0  0  0  0  0  0  0  0  0  0  0
   13.5324    4.2058    0.0000 C   0  0  0  0  0  0  0  0  0  0  0  0
    4.5322    2.5799    0.0000 C   0  0  0  0  0  0  0  0  0  0  0  0
   14.4385    2.6503    0.0000 C   0  0  0  0  0  0  0  0  0  0  0  0
   14.4385    3.6920    0.0000 C   0  0  0  0  0  0  0  0  0  0  0  0
    4.5768   -1.7787    0.0000 C   0  0  0  0  0  0  0  0  0  0  0  0
    3.5823   -1.6742    0.0000 C   0  0  0  0  0  0  0  0  0  0  0  0
    4.9836   -2.6923    0.0000 C   0  0  0  0  0  0  0  0  0  0  0  0
    2.9945   -2.4832    0.0000 C   0  0  0  0  0  0  0  0  0  0  0  0
    4.3958   -3.5013    0.0000 C   0  0  0  0  0  0  0  0  0  0  0  0
    3.4013   -3.3968    0.0000 C   0  0  0  0  0  0  0  0  0  0  0  0
    8.9861   -0.1853    0.0000 H   0  0  0  0  0  0  0  0  0  0  0  0
    9.2574   -0.7835    0.0000 H   0  0  0  0  0  0  0  0  0  0  0  0
   10.0153   -1.1210    0.0000 H   0  0  0  0  0  0  0  0  0  0  0  0
   10.3029    1.6148    0.0000 H   0  0  0  0  0  0  0  0  0  0  0  0
    9.4913    1.4423    0.0000 H   0  0  0  0  0  0  0  0  0  0  0  0
   10.8667   -0.9400    0.0000 H   0  0  0  0  0  0  0  0  0  0  0  0
   11.4219   -0.3234    0.0000 H   0  0  0  0  0  0  0  0  0  0  0  0
   11.9845    0.5885    0.0000 H   0  0  0  0  0  0  0  0  0  0  0  0
   12.3830    1.2788    0.0000 H   0  0  0  0  0  0  0  0  0  0  0  0
    8.0770    1.0056    0.0000 H   0  0  0  0  0  0  0  0  0  0  0  0
    6.9991   -0.8316    0.0000 H   0  0  0  0  0  0  0  0  0  0  0  0
    6.9418    0.7983    0.0000 H   0  0  0  0  0  0  0  0  0  0  0  0
    6.2969    1.2668    0.0000 H   0  0  0  0  0  0  0  0  0  0  0  0
    4.7441    0.6028    0.0000 H   0  0  0  0  0  0  0  0  0  0  0  0
    5.3889    0.1343    0.0000 H   0  0  0  0  0  0  0  0  0  0  0  0
   10.3695    2.3611    0.0000 H   0  0  0  0  0  0  0  0  0  0  0  0
    6.4113   -1.6406    0.0000 H   0  0  0  0  0  0  0  0  0  0  0  0
   10.3695    3.9811    0.0000 H   0  0  0  0  0  0  0  0  0  0  0  0
   13.5252    1.5165    0.0000 H   0  0  0  0  0  0  0  0  0  0  0  0
   11.7725    4.7911    0.0000 H   0  0  0  0  0  0  0  0  0  0  0  0
   13.5253    4.8258    0.0000 H   0  0  0  0  0  0  0  0  0  0  0  0
    5.0986    2.8321    0.0000 H   0  0  0  0  0  0  0  0  0  0  0  0
    4.2800    3.1463    0.0000 H   0  0  0  0  0  0  0  0  0  0  0  0
    3.9658    2.3278    0.0000 H   0  0  0  0  0  0  0  0  0  0  0  0
   14.9742    2.3382    0.0000 H   0  0  0  0  0  0  0  0  0  0  0  0
   14.9742    4.0040    0.0000 H   0  0  0  0  0  0  0  0  0  0  0  0
    3.3301   -1.1078    0.0000 H   0  0  0  0  0  0  0  0  0  0  0  0
    5.6002   -2.7571    0.0000 H   0  0  0  0  0  0  0  0  0  0  0  0
    4.6480   -4.0677    0.0000 H   0  0  0  0  0  0  0  0  0  0  0  0
  1 35  1  0  0  0  0
  2 37  1  0  0  0  0
  3  5  2  0  0  0  0
  3  6  2  0  0  0  0
  3 21  1  0  0  0  0
  3 29  1  0  0  0  0
  4 16  2  0  0  0  0
  7 27  2  0  0  0  0
  8 13  1  0  0  0  0
  8 14  1  0  0  0  0
  8 15  1  0  0  0  0
 11  9  1  1  0  0  0
  9 16  1  0  0  0  0
  9 47  1  0  0  0  0
 18 10  1  1  0  0  0
 10 27  1  0  0  0  0
 10 54  1  0  0  0  0
 11 12  1  0  0  0  0
 11 13  1  0  0  0  0
 11 38  1  0  0  0  0
 12 14  1  0  0  0  0
 12 39  1  0  0  0  0
 12 40  1  0  0  0  0
 13 41  1  0  0  0  0
 13 42  1  0  0  0  0
 14 43  1  0  0  0  0
 14 44  1  0  0  0  0
 15 17  1  0  0  0  0
 15 45  1  0  0  0  0
 15 46  1  0  0  0  0
 16 18  1  0  0  0  0
 17 20  1  0  0  0  0
 17 22  2  0  0  0  0
 18 19  1  0  0  0  0
 18 48  1  0  0  0  0
 19 21  1  0  0  0  0
 19 49  1  0  0  0  0
 19 50  1  0  0  0  0
 20 23  1  0  0  0  0
 20 25  2  0  0  0  0
 21 51  1  0  0  0  0
 21 52  1  0  0  0  0
 22 24  1  0  0  0  0
 22 53  1  0  0  0  0
 23 26  1  0  0  0  0
 23 28  2  0  0  0  0
 24 26  2  0  0  0  0
 24 55  1  0  0  0  0
 25 30  1  0  0  0  0
 25 56  1  0  0  0  0
 26 57  1  0  0  0  0
 27 32  1  0  0  0  0
 28 31  1  0  0  0  0
 28 58  1  0  0  0  0
 29 59  1  0  0  0  0
 29 60  1  0  0  0  0
 29 61  1  0  0  0  0
 30 31  2  0  0  0  0
 30 62  1  0  0  0  0
 31 63  1  0  0  0  0
 32 33  2  0  0  0  0
 32 34  1  0  0  0  0
 33 35  1  0  0  0  0
 33 64  1  0  0  0  0
 34 36  2  0  0  0  0
 34 65  1  0  0  0  0
 35 37  2  0  0  0  0
 36 37  1  0  0  0  0
 36 66  1  0  0  0  0
M  END
> <PUBCHEM_COMPOUND_CID>
508968
> <PUBCHEM_COMPOUND_CANONICALIZED>
1
> <PUBCHEM_CACTVS_COMPLEXITY>
899
> <PUBCHEM_CACTVS_HBOND_ACCEPTOR>
5
> <PUBCHEM_CACTVS_HBOND_DONOR>
2
> <PUBCHEM_CACTVS_ROTATABLE_BOND>
9
> <PUBCHEM_CACTVS_SUBSKEYS>
AAADceB7OABGAAAAAAAAAAAAAAAAAWAAAAAwYMAAAAAAAADBVAAAHgYQAAAADCrF2CSyAMPAAAqIAiFSEHDCAAAkBRAIisGIBsgIYDKh1zGUIQhglgCIiYcYiMCOhAACIAAQAAQIAARAACAACAAAAAAAAA==
> <PUBCHEM_IUPAC_OPENEYE_NAME>
3,4-dichloro-N-[(1S)-3-methylsulfonyl-1-[[(3R)-1-(1-naphthylmethyl)pyrrolidin-3-yl]carbamoyl]propyl]benzamide
> <PUBCHEM_IUPAC_CAS_NAME>
3,4-dichloro-N-[(2S)-4-methylsulfonyl-1-[[(3R)-1-(1-naphthalenylmethyl)-3-pyrrolidinyl]amino]-1-oxobutan-2-yl]benzamide
> <PUBCHEM_IUPAC_NAME_MARKUP>
3,4-dichloro-<I>N</I>-[(2<I>S</I>)-4-methylsulfonyl-1-[[(3<I>R</I>)-1-(naphthalen-1-ylmethyl)pyrrolidin-3-yl]amino]-1-oxobutan-2-yl]benzamide
> <PUBCHEM_IUPAC_NAME>
3,4-dichloro-N-[(2S)-4-methylsulfonyl-1-[[(3R)-1-(naphthalen-1-ylmethyl)pyrrolidin-3-yl]amino]-1-oxobutan-2-yl]benzamide
> <PUBCHEM_IUPAC_SYSTEMATIC_NAME>
3,4-bis(chloranyl)-N-[(2S)-4-methylsulfonyl-1-[[(3R)-1-(naphthalen-1-ylmethyl)pyrrolidin-3-yl]amino]-1-oxidanylidene-butan-2-yl]benzamide
> <PUBCHEM_IUPAC_TRADITIONAL_NAME>
3,4-dichloro-N-[(1S)-3-mesyl-1-[[(3R)-1-(1-naphthylmethyl)pyrrolidin-3-yl]carbamoyl]propyl]benzamide
> <PUBCHEM_IUPAC_INCHI>
InChI=1S/C27H29Cl2N3O4S/c1-37(35,36)14-12-25(31-26(33)19-9-10-23(28)24(29)15-19)27(34)30-21-11-13-32(17-21)16-20-7-4-6-18-5-2-3-8-22(18)20/h2-10,15,21,25H,11-14,16-17H2,1H3,(H,30,34)(H,31,33)/t21-,25+/m1/s1
> <PUBCHEM_IUPAC_INCHIKEY>
FRNPNBNFQFQURW-BWKNWUBXSA-N
> <PUBCHEM_XLOGP3_AA>
4.5
> <PUBCHEM_EXACT_MASS>
561.1255830
> <PUBCHEM_MOLECULAR_FORMULA>
C27H29Cl2N3O4S
> <PUBCHEM_MOLECULAR_WEIGHT>
562.5
> <PUBCHEM_OPENEYE_CAN_SMILES>
CS(=O)(=O)CCC(C(=O)NC1CCN(C1)CC2=CC=CC3=CC=CC=C32)NC(=O)C4=CC(=C(C=C4)Cl)Cl
> <PUBCHEM_OPENEYE_ISO_SMILES>
CS(=O)(=O)CC[C@@H](C(=O)N[C@@H]1CCN(C1)CC2=CC=CC3=CC=CC=C32)NC(=O)C4=CC(=C(C=C4)Cl)Cl
> <PUBCHEM_CACTVS_TPSA>
104
> <PUBCHEM_MONOISOTOPIC_WEIGHT>
561.1255830
> <PUBCHEM_TOTAL_CHARGE>
0
> <PUBCHEM_HEAVY_ATOM_COUNT>
37
> <PUBCHEM_ATOM_DEF_STEREO_COUNT>
2
> <PUBCHEM_ATOM_UDEF_STEREO_COUNT>
0
> <PUBCHEM_BOND_DEF_STEREO_COUNT>
0
> <PUBCHEM_BOND_UDEF_STEREO_COUNT>
0
> <PUBCHEM_ISOTOPIC_ATOM_COUNT>
0
> <PUBCHEM_COMPONENT_COUNT>
1
> <PUBCHEM_CACTVS_TAUTO_COUNT>
-1
> <PUBCHEM_COORDINATE_TYPE>
1
5
255
> <PUBCHEM_BONDANNOTATIONS>
18  10  5
17  20  8
17  22  8
20  23  8
20  25  8
22  24  8
23  26  8
23  28  8
24  26  8
25  30  8
28  31  8
30  31  8
32  33  8
32  34  8
33  35  8
34  36  8
35  37  8
36  37  8
11  9  5
$$$$
