508979
  -OEChem-10302200282D
 66 68  0     1  0  0  0  0  0999 V2000
    2.0000   -2.8272    0.0000 Cl  0  0  0  0  0  0  0  0  0  0  0  0
    3.7320   -3.8272    0.0000 Cl  0  0  0  0  0  0  0  0  0  0  0  0
   10.5656   -0.3224    0.0000 S   0  0  0  0  0  0  0  0  0  0  0  0
    7.3563    2.6273    0.0000 O   0  0  0  0  0  0  0  0  0  0  0  0
   11.4791    0.0843    0.0000 O   0  0  0  0  0  0  0  0  0  0  0  0
    9.6520   -0.7292    0.0000 O   0  0  0  0  0  0  0  0  0  0  0  0
   10.7466    1.4001    0.0000 O   0  0  0  0  0  0  0  0  0  0  0  0
   14.9058    2.7046    0.0000 O   0  0  0  0  0  0  0  0  0  0  0  0
    4.5981    0.6728    0.0000 N   0  0  3  0  0  0  0  0  0  0  0  0
    7.1753    0.9047    0.0000 N   0  0  0  0  0  0  0  0  0  0  0  0
    9.3454    2.4182    0.0000 N   0  0  0  0  0  0  0  0  0  0  0  0
   10.9277    3.1227    0.0000 N   0  0  0  0  0  0  0  0  0  0  0  0
    6.1808    1.0092    0.0000 C   0  0  2  0  0  0  0  0  0  0  0  0
    5.6808    1.8752    0.0000 C   0  0  0  0  0  0  0  0  0  0  0  0
    5.5116    0.2661    0.0000 C   0  0  0  0  0  0  0  0  0  0  0  0
    4.7026    1.6673    0.0000 C   0  0  0  0  0  0  0  0  0  0  0  0
    3.7320    0.1728    0.0000 C   0  0  0  0  0  0  0  0  0  0  0  0
    7.7631    1.7137    0.0000 C   0  0  0  0  0  0  0  0  0  0  0  0
    8.7576    1.6092    0.0000 C   0  0  2  0  0  0  0  0  0  0  0  0
    3.7320   -0.8272    0.0000 C   0  0  0  0  0  0  0  0  0  0  0  0
    9.1643    0.6956    0.0000 C   0  0  0  0  0  0  0  0  0  0  0  0
   10.1588    0.5911    0.0000 C   0  0  0  0  0  0  0  0  0  0  0  0
    2.8660   -1.3272    0.0000 C   0  0  0  0  0  0  0  0  0  0  0  0
    4.5981   -1.3272    0.0000 C   0  0  0  0  0  0  0  0  0  0  0  0
    2.8660   -2.3272    0.0000 C   0  0  0  0  0  0  0  0  0  0  0  0
    4.5981   -2.3272    0.0000 C   0  0  0  0  0  0  0  0  0  0  0  0
   10.3399    2.3137    0.0000 C   0  0  0  0  0  0  0  0  0  0  0  0
   10.9723   -1.2360    0.0000 C   0  0  0  0  0  0  0  0  0  0  0  0
    3.7320   -2.8272    0.0000 C   0  0  0  0  0  0  0  0  0  0  0  0
   11.9222    3.0182    0.0000 C   0  0  0  0  0  0  0  0  0  0  0  0
   12.5100    3.8272    0.0000 C   0  0  0  0  0  0  0  0  0  0  0  0
   12.3289    2.1046    0.0000 C   0  0  0  0  0  0  0  0  0  0  0  0
   13.5045    3.7226    0.0000 C   0  0  0  0  0  0  0  0  0  0  0  0
   13.3235    2.0001    0.0000 C   0  0  0  0  0  0  0  0  0  0  0  0
   13.9112    2.8091    0.0000 C   0  0  0  0  0  0  0  0  0  0  0  0
   15.4935    3.5136    0.0000 C   0  0  0  0  0  0  0  0  0  0  0  0
    6.4029    0.4304    0.0000 H   0  0  0  0  0  0  0  0  0  0  0  0
    6.2472    2.1274    0.0000 H   0  0  0  0  0  0  0  0  0  0  0  0
    5.4892    2.4649    0.0000 H   0  0  0  0  0  0  0  0  0  0  0  0
    5.2016   -0.2709    0.0000 H   0  0  0  0  0  0  0  0  0  0  0  0
    6.0132   -0.0983    0.0000 H   0  0  0  0  0  0  0  0  0  0  0  0
    4.6378    2.2839    0.0000 H   0  0  0  0  0  0  0  0  0  0  0  0
    4.0826    1.6673    0.0000 H   0  0  0  0  0  0  0  0  0  0  0  0
    3.5200    0.7554    0.0000 H   0  0  0  0  0  0  0  0  0  0  0  0
    3.1215    0.0652    0.0000 H   0  0  0  0  0  0  0  0  0  0  0  0
    7.4274    0.3383    0.0000 H   0  0  0  0  0  0  0  0  0  0  0  0
    9.3742    1.5444    0.0000 H   0  0  0  0  0  0  0  0  0  0  0  0
    8.5627    0.5456    0.0000 H   0  0  0  0  0  0  0  0  0  0  0  0
    9.2076    0.0772    0.0000 H   0  0  0  0  0  0  0  0  0  0  0  0
   10.7604    0.7411    0.0000 H   0  0  0  0  0  0  0  0  0  0  0  0
   10.1156    1.2096    0.0000 H   0  0  0  0  0  0  0  0  0  0  0  0
    9.0932    2.9846    0.0000 H   0  0  0  0  0  0  0  0  0  0  0  0
    2.3291   -1.0172    0.0000 H   0  0  0  0  0  0  0  0  0  0  0  0
    5.1350   -1.0172    0.0000 H   0  0  0  0  0  0  0  0  0  0  0  0
    5.1350   -2.6372    0.0000 H   0  0  0  0  0  0  0  0  0  0  0  0
   10.4059   -1.4882    0.0000 H   0  0  0  0  0  0  0  0  0  0  0  0
   11.2245   -1.8024    0.0000 H   0  0  0  0  0  0  0  0  0  0  0  0
   11.5387   -0.9838    0.0000 H   0  0  0  0  0  0  0  0  0  0  0  0
   10.6755    3.6891    0.0000 H   0  0  0  0  0  0  0  0  0  0  0  0
   12.2578    4.3936    0.0000 H   0  0  0  0  0  0  0  0  0  0  0  0
   11.9645    1.6030    0.0000 H   0  0  0  0  0  0  0  0  0  0  0  0
   13.8689    4.2242    0.0000 H   0  0  0  0  0  0  0  0  0  0  0  0
   13.5756    1.4337    0.0000 H   0  0  0  0  0  0  0  0  0  0  0  0
   15.9951    3.1492    0.0000 H   0  0  0  0  0  0  0  0  0  0  0  0
   15.8580    4.0152    0.0000 H   0  0  0  0  0  0  0  0  0  0  0  0
   14.9920    3.8780    0.0000 H   0  0  0  0  0  0  0  0  0  0  0  0
  1 25  1  0  0  0  0
  2 29  1  0  0  0  0
  3  5  2  0  0  0  0
  3  6  2  0  0  0  0
  3 22  1  0  0  0  0
  3 28  1  0  0  0  0
  4 18  2  0  0  0  0
  7 27  2  0  0  0  0
  8 35  1  0  0  0  0
  8 36  1  0  0  0  0
  9 15  1  0  0  0  0
  9 16  1  0  0  0  0
  9 17  1  0  0  0  0
 13 10  1  1  0  0  0
 10 18  1  0  0  0  0
 10 46  1  0  0  0  0
 19 11  1  1  0  0  0
 11 27  1  0  0  0  0
 11 52  1  0  0  0  0
 12 27  1  0  0  0  0
 12 30  1  0  0  0  0
 12 59  1  0  0  0  0
 13 14  1  0  0  0  0
 13 15  1  0  0  0  0
 13 37  1  0  0  0  0
 14 16  1  0  0  0  0
 14 38  1  0  0  0  0
 14 39  1  0  0  0  0
 15 40  1  0  0  0  0
 15 41  1  0  0  0  0
 16 42  1  0  0  0  0
 16 43  1  0  0  0  0
 17 20  1  0  0  0  0
 17 44  1  0  0  0  0
 17 45  1  0  0  0  0
 18 19  1  0  0  0  0
 19 21  1  0  0  0  0
 19 47  1  0  0  0  0
 20 23  2  0  0  0  0
 20 24  1  0  0  0  0
 21 22  1  0  0  0  0
 21 48  1  0  0  0  0
 21 49  1  0  0  0  0
 22 50  1  0  0  0  0
 22 51  1  0  0  0  0
 23 25  1  0  0  0  0
 23 53  1  0  0  0  0
 24 26  2  0  0  0  0
 24 54  1  0  0  0  0
 25 29  2  0  0  0  0
 26 29  1  0  0  0  0
 26 55  1  0  0  0  0
 28 56  1  0  0  0  0
 28 57  1  0  0  0  0
 28 58  1  0  0  0  0
 30 31  2  0  0  0  0
 30 32  1  0  0  0  0
 31 33  1  0  0  0  0
 31 60  1  0  0  0  0
 32 34  2  0  0  0  0
 32 61  1  0  0  0  0
 33 35  2  0  0  0  0
 33 62  1  0  0  0  0
 34 35  1  0  0  0  0
 34 63  1  0  0  0  0
 36 64  1  0  0  0  0
 36 65  1  0  0  0  0
 36 66  1  0  0  0  0
M  END
> <PUBCHEM_COMPOUND_CID>
508979
> <PUBCHEM_COMPOUND_CANONICALIZED>
1
> <PUBCHEM_CACTVS_COMPLEXITY>
835
> <PUBCHEM_CACTVS_HBOND_ACCEPTOR>
6
> <PUBCHEM_CACTVS_HBOND_DONOR>
3
> <PUBCHEM_CACTVS_ROTATABLE_BOND>
10
> <PUBCHEM_CACTVS_SUBSKEYS>
AAADceB7uABGAAAAAAAAAAAAAAAAAWAAAAAwYAAAAAAAAAABQAAAHgYQAAAADC7F2CazxoPABAqIAiVSUHDCCAAhJxAIisGOboiMZjLl87uUMChs1hPI6CewwAAOBEAAIAAAAAQIgABAAAAACAAAAAAAAA==
> <PUBCHEM_IUPAC_OPENEYE_NAME>
(2S)-N-[(3R)-1-[(3,4-dichlorophenyl)methyl]pyrrolidin-3-yl]-2-[(4-methoxyphenyl)carbamoylamino]-4-methylsulfonyl-butanamide
> <PUBCHEM_IUPAC_CAS_NAME>
(2S)-N-[(3R)-1-[(3,4-dichlorophenyl)methyl]-3-pyrrolidinyl]-2-[[(4-methoxyanilino)-oxomethyl]amino]-4-methylsulfonylbutanamide
> <PUBCHEM_IUPAC_NAME_MARKUP>
(2<I>S</I>)-<I>N</I>-[(3<I>R</I>)-1-[(3,4-dichlorophenyl)methyl]pyrrolidin-3-yl]-2-[(4-methoxyphenyl)carbamoylamino]-4-methylsulfonylbutanamide
> <PUBCHEM_IUPAC_NAME>
(2S)-N-[(3R)-1-[(3,4-dichlorophenyl)methyl]pyrrolidin-3-yl]-2-[(4-methoxyphenyl)carbamoylamino]-4-methylsulfonylbutanamide
> <PUBCHEM_IUPAC_SYSTEMATIC_NAME>
(2S)-N-[(3R)-1-[(3,4-dichlorophenyl)methyl]pyrrolidin-3-yl]-2-[(4-methoxyphenyl)carbamoylamino]-4-methylsulfonyl-butanamide
> <PUBCHEM_IUPAC_TRADITIONAL_NAME>
(2S)-N-[(3R)-1-(3,4-dichlorobenzyl)pyrrolidin-3-yl]-4-mesyl-2-[(4-methoxyphenyl)carbamoylamino]butyramide
> <PUBCHEM_IUPAC_INCHI>
InChI=1S/C24H30Cl2N4O5S/c1-35-19-6-4-17(5-7-19)28-24(32)29-22(10-12-36(2,33)34)23(31)27-18-9-11-30(15-18)14-16-3-8-20(25)21(26)13-16/h3-8,13,18,22H,9-12,14-15H2,1-2H3,(H,27,31)(H2,28,29,32)/t18-,22+/m1/s1
> <PUBCHEM_IUPAC_INCHIKEY>
SVVKQNBWNSLLPP-GCJKJVERSA-N
> <PUBCHEM_XLOGP3_AA>
3
> <PUBCHEM_EXACT_MASS>
556.1313966
> <PUBCHEM_MOLECULAR_FORMULA>
C24H30Cl2N4O5S
> <PUBCHEM_MOLECULAR_WEIGHT>
557.5
> <PUBCHEM_OPENEYE_CAN_SMILES>
COC1=CC=C(C=C1)NC(=O)NC(CCS(=O)(=O)C)C(=O)NC2CCN(C2)CC3=CC(=C(C=C3)Cl)Cl
> <PUBCHEM_OPENEYE_ISO_SMILES>
COC1=CC=C(C=C1)NC(=O)N[C@@H](CCS(=O)(=O)C)C(=O)N[C@@H]2CCN(C2)CC3=CC(=C(C=C3)Cl)Cl
> <PUBCHEM_CACTVS_TPSA>
125
> <PUBCHEM_MONOISOTOPIC_WEIGHT>
556.1313966
> <PUBCHEM_TOTAL_CHARGE>
0
> <PUBCHEM_HEAVY_ATOM_COUNT>
36
> <PUBCHEM_ATOM_DEF_STEREO_COUNT>
2
> <PUBCHEM_ATOM_UDEF_STEREO_COUNT>
0
> <PUBCHEM_BOND_DEF_STEREO_COUNT>
0
> <PUBCHEM_BOND_UDEF_STEREO_COUNT>
0
> <PUBCHEM_ISOTOPIC_ATOM_COUNT>
0
> <PUBCHEM_COMPONENT_COUNT>
1
> <PUBCHEM_CACTVS_TAUTO_COUNT>
-1
> <PUBCHEM_COORDINATE_TYPE>
1
5
255
> <PUBCHEM_BONDANNOTATIONS>
13  10  5
19  11  5
20  23  8
20  24  8
23  25  8
24  26  8
25  29  8
26  29  8
30  31  8
30  32  8
31  33  8
32  34  8
33  35  8
34  35  8
$$$$
