508970
  -OEChem-10302200282D
 65 68  0     1  0  0  0  0  0999 V2000
    2.0000   -5.7673    0.0000 Cl  0  0  0  0  0  0  0  0  0  0  0  0
    3.7320   -6.7673    0.0000 Cl  0  0  0  0  0  0  0  0  0  0  0  0
    8.9282    0.2327    0.0000 O   0  0  0  0  0  0  0  0  0  0  0  0
    8.0622    3.7327    0.0000 O   0  0  0  0  0  0  0  0  0  0  0  0
    4.5981   -2.2673    0.0000 N   0  0  0  0  0  0  0  0  0  0  0  0
    7.1962    0.2327    0.0000 N   0  0  0  0  0  0  0  0  0  0  0  0
    8.9282    2.2327    0.0000 N   0  0  0  0  0  0  0  0  0  0  0  0
    9.7942    3.7327    0.0000 N   0  0  0  0  0  0  0  0  0  0  0  0
    6.3301   -1.2673    0.0000 C   0  0  0  0  0  0  0  0  0  0  0  0
    6.3301   -2.2673    0.0000 C   0  0  0  0  0  0  0  0  0  0  0  0
    5.4641   -0.7673    0.0000 C   0  0  0  0  0  0  0  0  0  0  0  0
    5.4641   -2.7673    0.0000 C   0  0  0  0  0  0  0  0  0  0  0  0
    4.5981   -1.2673    0.0000 C   0  0  0  0  0  0  0  0  0  0  0  0
    7.1962   -0.7673    0.0000 C   0  0  0  0  0  0  0  0  0  0  0  0
    3.7320   -2.7673    0.0000 C   0  0  0  0  0  0  0  0  0  0  0  0
    3.7320   -3.7673    0.0000 C   0  0  0  0  0  0  0  0  0  0  0  0
    8.0622    0.7327    0.0000 C   0  0  0  0  0  0  0  0  0  0  0  0
    8.0622    1.7327    0.0000 C   0  0  2  0  0  0  0  0  0  0  0  0
    2.8660   -4.2673    0.0000 C   0  0  0  0  0  0  0  0  0  0  0  0
    4.5981   -4.2673    0.0000 C   0  0  0  0  0  0  0  0  0  0  0  0
    7.1962    2.2327    0.0000 C   0  0  0  0  0  0  0  0  0  0  0  0
    2.8660   -5.2673    0.0000 C   0  0  0  0  0  0  0  0  0  0  0  0
    4.5981   -5.2673    0.0000 C   0  0  0  0  0  0  0  0  0  0  0  0
    3.7320   -5.7673    0.0000 C   0  0  0  0  0  0  0  0  0  0  0  0
    8.9282    3.2327    0.0000 C   0  0  0  0  0  0  0  0  0  0  0  0
    9.7942    4.7327    0.0000 C   0  0  0  0  0  0  0  0  0  0  0  0
   10.6603    5.2327    0.0000 C   0  0  0  0  0  0  0  0  0  0  0  0
   10.6603    6.2327    0.0000 C   0  0  0  0  0  0  0  0  0  0  0  0
    8.9282    5.2327    0.0000 C   0  0  0  0  0  0  0  0  0  0  0  0
   11.5542    4.6980    0.0000 C   0  0  0  0  0  0  0  0  0  0  0  0
    9.7942    6.7327    0.0000 C   0  0  0  0  0  0  0  0  0  0  0  0
    8.9282    6.2327    0.0000 C   0  0  0  0  0  0  0  0  0  0  0  0
   11.5542    6.7673    0.0000 C   0  0  0  0  0  0  0  0  0  0  0  0
   12.4603    5.2118    0.0000 C   0  0  0  0  0  0  0  0  0  0  0  0
   12.4603    6.2535    0.0000 C   0  0  0  0  0  0  0  0  0  0  0  0
    6.8671   -1.5773    0.0000 H   0  0  0  0  0  0  0  0  0  0  0  0
    6.5422   -2.8499    0.0000 H   0  0  0  0  0  0  0  0  0  0  0  0
    6.9407   -2.1597    0.0000 H   0  0  0  0  0  0  0  0  0  0  0  0
    5.8626   -0.2924    0.0000 H   0  0  0  0  0  0  0  0  0  0  0  0
    5.0656   -0.2924    0.0000 H   0  0  0  0  0  0  0  0  0  0  0  0
    5.0656   -3.2423    0.0000 H   0  0  0  0  0  0  0  0  0  0  0  0
    5.8626   -3.2423    0.0000 H   0  0  0  0  0  0  0  0  0  0  0  0
    4.3860   -0.6847    0.0000 H   0  0  0  0  0  0  0  0  0  0  0  0
    3.9875   -1.3750    0.0000 H   0  0  0  0  0  0  0  0  0  0  0  0
    7.4082   -1.3499    0.0000 H   0  0  0  0  0  0  0  0  0  0  0  0
    7.8067   -0.6597    0.0000 H   0  0  0  0  0  0  0  0  0  0  0  0
    3.5200   -2.1847    0.0000 H   0  0  0  0  0  0  0  0  0  0  0  0
    3.1215   -2.8750    0.0000 H   0  0  0  0  0  0  0  0  0  0  0  0
    6.6592    0.5427    0.0000 H   0  0  0  0  0  0  0  0  0  0  0  0
    8.0622    2.3527    0.0000 H   0  0  0  0  0  0  0  0  0  0  0  0
    2.3291   -3.9573    0.0000 H   0  0  0  0  0  0  0  0  0  0  0  0
    5.1350   -3.9573    0.0000 H   0  0  0  0  0  0  0  0  0  0  0  0
    7.5062    2.7696    0.0000 H   0  0  0  0  0  0  0  0  0  0  0  0
    6.6592    2.5427    0.0000 H   0  0  0  0  0  0  0  0  0  0  0  0
    6.8862    1.6957    0.0000 H   0  0  0  0  0  0  0  0  0  0  0  0
    5.1350   -5.5773    0.0000 H   0  0  0  0  0  0  0  0  0  0  0  0
    9.4651    1.9227    0.0000 H   0  0  0  0  0  0  0  0  0  0  0  0
   10.3312    3.4227    0.0000 H   0  0  0  0  0  0  0  0  0  0  0  0
    8.3913    4.9227    0.0000 H   0  0  0  0  0  0  0  0  0  0  0  0
   11.5470    4.0780    0.0000 H   0  0  0  0  0  0  0  0  0  0  0  0
    9.7942    7.3527    0.0000 H   0  0  0  0  0  0  0  0  0  0  0  0
    8.3913    6.5427    0.0000 H   0  0  0  0  0  0  0  0  0  0  0  0
   11.5470    7.3873    0.0000 H   0  0  0  0  0  0  0  0  0  0  0  0
   12.9960    4.8998    0.0000 H   0  0  0  0  0  0  0  0  0  0  0  0
   12.9960    6.5656    0.0000 H   0  0  0  0  0  0  0  0  0  0  0  0
  1 22  1  0  0  0  0
  2 24  1  0  0  0  0
  3 17  2  0  0  0  0
  4 25  2  0  0  0  0
  5 12  1  0  0  0  0
  5 13  1  0  0  0  0
  5 15  1  0  0  0  0
  6 14  1  0  0  0  0
  6 17  1  0  0  0  0
  6 49  1  0  0  0  0
 18  7  1  6  0  0  0
  7 25  1  0  0  0  0
  7 57  1  0  0  0  0
  8 25  1  0  0  0  0
  8 26  1  0  0  0  0
  8 58  1  0  0  0  0
  9 10  1  0  0  0  0
  9 11  1  0  0  0  0
  9 14  1  0  0  0  0
  9 36  1  0  0  0  0
 10 12  1  0  0  0  0
 10 37  1  0  0  0  0
 10 38  1  0  0  0  0
 11 13  1  0  0  0  0
 11 39  1  0  0  0  0
 11 40  1  0  0  0  0
 12 41  1  0  0  0  0
 12 42  1  0  0  0  0
 13 43  1  0  0  0  0
 13 44  1  0  0  0  0
 14 45  1  0  0  0  0
 14 46  1  0  0  0  0
 15 16  1  0  0  0  0
 15 47  1  0  0  0  0
 15 48  1  0  0  0  0
 16 19  2  0  0  0  0
 16 20  1  0  0  0  0
 17 18  1  0  0  0  0
 18 21  1  0  0  0  0
 18 50  1  0  0  0  0
 19 22  1  0  0  0  0
 19 51  1  0  0  0  0
 20 23  2  0  0  0  0
 20 52  1  0  0  0  0
 21 53  1  0  0  0  0
 21 54  1  0  0  0  0
 21 55  1  0  0  0  0
 22 24  2  0  0  0  0
 23 24  1  0  0  0  0
 23 56  1  0  0  0  0
 26 27  1  0  0  0  0
 26 29  2  0  0  0  0
 27 28  1  0  0  0  0
 27 30  2  0  0  0  0
 28 31  1  0  0  0  0
 28 33  2  0  0  0  0
 29 32  1  0  0  0  0
 29 59  1  0  0  0  0
 30 34  1  0  0  0  0
 30 60  1  0  0  0  0
 31 32  2  0  0  0  0
 31 61  1  0  0  0  0
 32 62  1  0  0  0  0
 33 35  1  0  0  0  0
 33 63  1  0  0  0  0
 34 35  2  0  0  0  0
 34 64  1  0  0  0  0
 35 65  1  0  0  0  0
M  END
> <PUBCHEM_COMPOUND_CID>
508970
> <PUBCHEM_COMPOUND_CANONICALIZED>
1
> <PUBCHEM_CACTVS_COMPLEXITY>
703
> <PUBCHEM_CACTVS_HBOND_ACCEPTOR>
3
> <PUBCHEM_CACTVS_HBOND_DONOR>
3
> <PUBCHEM_CACTVS_ROTATABLE_BOND>
7
> <PUBCHEM_CACTVS_SUBSKEYS>
AAADceB7sAAGAAAAAAAAAAAAAAAAAAAAAAA8YMEAAAAAAADBVAAAHgIQAAAADSrBmCQzwMPAAACIAiVSUACCAAAhBwAIisGIZoiIYCLBk7GUIAholgLIyCcQgIAOhAAAYAASAAQIAADAACQACAAAAAAAAA==
> <PUBCHEM_IUPAC_OPENEYE_NAME>
(2S)-N-[[1-[(3,4-dichlorophenyl)methyl]-4-piperidyl]methyl]-2-(1-naphthylcarbamoylamino)propanamide
> <PUBCHEM_IUPAC_CAS_NAME>
(2S)-N-[[1-[(3,4-dichlorophenyl)methyl]-4-piperidinyl]methyl]-2-[[(1-naphthalenylamino)-oxomethyl]amino]propanamide
> <PUBCHEM_IUPAC_NAME_MARKUP>
(2<I>S</I>)-<I>N</I>-[[1-[(3,4-dichlorophenyl)methyl]piperidin-4-yl]methyl]-2-(naphthalen-1-ylcarbamoylamino)propanamide
> <PUBCHEM_IUPAC_NAME>
(2S)-N-[[1-[(3,4-dichlorophenyl)methyl]piperidin-4-yl]methyl]-2-(naphthalen-1-ylcarbamoylamino)propanamide
> <PUBCHEM_IUPAC_SYSTEMATIC_NAME>
(2S)-N-[[1-[(3,4-dichlorophenyl)methyl]piperidin-4-yl]methyl]-2-(naphthalen-1-ylcarbamoylamino)propanamide
> <PUBCHEM_IUPAC_TRADITIONAL_NAME>
(2S)-N-[[1-(3,4-dichlorobenzyl)-4-piperidyl]methyl]-2-(1-naphthylcarbamoylamino)propionamide
> <PUBCHEM_IUPAC_INCHI>
InChI=1S/C27H30Cl2N4O2/c1-18(31-27(35)32-25-8-4-6-21-5-2-3-7-22(21)25)26(34)30-16-19-11-13-33(14-12-19)17-20-9-10-23(28)24(29)15-20/h2-10,15,18-19H,11-14,16-17H2,1H3,(H,30,34)(H2,31,32,35)/t18-/m0/s1
> <PUBCHEM_IUPAC_INCHIKEY>
NGBKGCFFPNXKMC-SFHVURJKSA-N
> <PUBCHEM_XLOGP3_AA>
5.5
> <PUBCHEM_EXACT_MASS>
512.1745816
> <PUBCHEM_MOLECULAR_FORMULA>
C27H30Cl2N4O2
> <PUBCHEM_MOLECULAR_WEIGHT>
513.5
> <PUBCHEM_OPENEYE_CAN_SMILES>
CC(C(=O)NCC1CCN(CC1)CC2=CC(=C(C=C2)Cl)Cl)NC(=O)NC3=CC=CC4=CC=CC=C43
> <PUBCHEM_OPENEYE_ISO_SMILES>
C[C@@H](C(=O)NCC1CCN(CC1)CC2=CC(=C(C=C2)Cl)Cl)NC(=O)NC3=CC=CC4=CC=CC=C43
> <PUBCHEM_CACTVS_TPSA>
73.5
> <PUBCHEM_MONOISOTOPIC_WEIGHT>
512.1745816
> <PUBCHEM_TOTAL_CHARGE>
0
> <PUBCHEM_HEAVY_ATOM_COUNT>
35
> <PUBCHEM_ATOM_DEF_STEREO_COUNT>
1
> <PUBCHEM_ATOM_UDEF_STEREO_COUNT>
0
> <PUBCHEM_BOND_DEF_STEREO_COUNT>
0
> <PUBCHEM_BOND_UDEF_STEREO_COUNT>
0
> <PUBCHEM_ISOTOPIC_ATOM_COUNT>
0
> <PUBCHEM_COMPONENT_COUNT>
1
> <PUBCHEM_CACTVS_TAUTO_COUNT>
-1
> <PUBCHEM_COORDINATE_TYPE>
1
5
255
> <PUBCHEM_BONDANNOTATIONS>
16  19  8
16  20  8
19  22  8
20  23  8
22  24  8
23  24  8
26  27  8
26  29  8
27  28  8
27  30  8
28  31  8
28  33  8
29  32  8
30  34  8
31  32  8
33  35  8
34  35  8
18  7  6
$$$$
