508918
  -OEChem-10302200282D
 62 65  0     1  0  0  0  0  0999 V2000
   12.3547    3.0994    0.0000 F   0  0  0  0  0  0  0  0  0  0  0  0
   13.2465    4.1969    0.0000 F   0  0  0  0  0  0  0  0  0  0  0  0
   14.3441    3.3050    0.0000 F   0  0  0  0  0  0  0  0  0  0  0  0
    9.1964    1.2650    0.0000 O   0  0  0  0  0  0  0  0  0  0  0  0
    4.3211   -4.1969    0.0000 O   0  0  0  0  0  0  0  0  0  0  0  0
   12.0377   -0.9547    0.0000 O   0  0  0  0  0  0  0  0  0  0  0  0
    5.9674    0.2641    0.0000 N   0  0  3  0  0  0  0  0  0  0  0  0
    8.4892   -0.3161    0.0000 N   0  0  0  0  0  0  0  0  0  0  0  0
    4.6783   -2.5021    0.0000 N   0  0  0  0  0  0  0  0  0  0  0  0
   11.0221    0.4483    0.0000 N   0  0  0  0  0  0  0  0  0  0  0  0
   13.7606   -0.7766    0.0000 N   0  0  0  0  0  0  0  0  0  0  0  0
    7.5763    0.0922    0.0000 C   0  0  1  0  0  0  0  0  0  0  0  0
    6.7094   -0.4063    0.0000 C   0  0  0  0  0  0  0  0  0  0  0  0
    7.3701    1.0707    0.0000 C   0  0  0  0  0  0  0  0  0  0  0  0
    6.3758    1.1770    0.0000 C   0  0  0  0  0  0  0  0  0  0  0  0
    4.9889    0.0579    0.0000 C   0  0  0  0  0  0  0  0  0  0  0  0
    4.6783   -0.8926    0.0000 C   0  0  0  0  0  0  0  0  0  0  0  0
    3.7320   -1.1974    0.0000 C   0  0  0  0  0  0  0  0  0  0  0  0
    5.2619   -1.6974    0.0000 C   0  0  0  0  0  0  0  0  0  0  0  0
    9.2992    0.2703    0.0000 C   0  0  0  0  0  0  0  0  0  0  0  0
    3.7320   -2.1974    0.0000 C   0  0  0  0  0  0  0  0  0  0  0  0
    2.8660   -0.6973    0.0000 C   0  0  0  0  0  0  0  0  0  0  0  0
   10.2120   -0.1380    0.0000 C   0  0  0  0  0  0  0  0  0  0  0  0
    2.8660   -2.6974    0.0000 C   0  0  0  0  0  0  0  0  0  0  0  0
    4.9889   -3.4526    0.0000 C   0  0  0  0  0  0  0  0  0  0  0  0
    2.0000   -1.1974    0.0000 C   0  0  0  0  0  0  0  0  0  0  0  0
    2.0000   -2.1974    0.0000 C   0  0  0  0  0  0  0  0  0  0  0  0
    5.9674   -3.6588    0.0000 C   0  0  0  0  0  0  0  0  0  0  0  0
   11.9349    0.0400    0.0000 C   0  0  0  0  0  0  0  0  0  0  0  0
   12.7449    0.6264    0.0000 C   0  0  0  0  0  0  0  0  0  0  0  0
   13.6578    0.2181    0.0000 C   0  0  0  0  0  0  0  0  0  0  0  0
   12.6421    1.6211    0.0000 C   0  0  0  0  0  0  0  0  0  0  0  0
   13.4522    2.2075    0.0000 C   0  0  0  0  0  0  0  0  0  0  0  0
   14.4678    0.8045    0.0000 C   0  0  0  0  0  0  0  0  0  0  0  0
   14.3650    1.7992    0.0000 C   0  0  0  0  0  0  0  0  0  0  0  0
   13.3494    3.2022    0.0000 C   0  0  0  0  0  0  0  0  0  0  0  0
    8.0588    0.4816    0.0000 H   0  0  0  0  0  0  0  0  0  0  0  0
    6.2480   -0.8204    0.0000 H   0  0  0  0  0  0  0  0  0  0  0  0
    7.0730   -0.9085    0.0000 H   0  0  0  0  0  0  0  0  0  0  0  0
    7.9868    1.1345    0.0000 H   0  0  0  0  0  0  0  0  0  0  0  0
    7.3712    1.6907    0.0000 H   0  0  0  0  0  0  0  0  0  0  0  0
    6.5057    1.7832    0.0000 H   0  0  0  0  0  0  0  0  0  0  0  0
    5.7864    1.3696    0.0000 H   0  0  0  0  0  0  0  0  0  0  0  0
    4.9684    0.6776    0.0000 H   0  0  0  0  0  0  0  0  0  0  0  0
    4.3751    0.1453    0.0000 H   0  0  0  0  0  0  0  0  0  0  0  0
    8.5529   -0.9328    0.0000 H   0  0  0  0  0  0  0  0  0  0  0  0
    5.8819   -1.6974    0.0000 H   0  0  0  0  0  0  0  0  0  0  0  0
    2.8660   -0.0773    0.0000 H   0  0  0  0  0  0  0  0  0  0  0  0
    9.8644   -0.6514    0.0000 H   0  0  0  0  0  0  0  0  0  0  0  0
   10.6573   -0.5695    0.0000 H   0  0  0  0  0  0  0  0  0  0  0  0
    2.8660   -3.3174    0.0000 H   0  0  0  0  0  0  0  0  0  0  0  0
    1.4631   -0.8873    0.0000 H   0  0  0  0  0  0  0  0  0  0  0  0
    1.4631   -2.5074    0.0000 H   0  0  0  0  0  0  0  0  0  0  0  0
   10.9583    1.0651    0.0000 H   0  0  0  0  0  0  0  0  0  0  0  0
    5.8396   -4.2655    0.0000 H   0  0  0  0  0  0  0  0  0  0  0  0
    6.5741   -3.7867    0.0000 H   0  0  0  0  0  0  0  0  0  0  0  0
    6.0953   -3.0521    0.0000 H   0  0  0  0  0  0  0  0  0  0  0  0
   12.0762    1.8743    0.0000 H   0  0  0  0  0  0  0  0  0  0  0  0
   15.0338    0.5513    0.0000 H   0  0  0  0  0  0  0  0  0  0  0  0
   14.8672    2.1627    0.0000 H   0  0  0  0  0  0  0  0  0  0  0  0
   14.3265   -1.0298    0.0000 H   0  0  0  0  0  0  0  0  0  0  0  0
   13.2584   -1.1402    0.0000 H   0  0  0  0  0  0  0  0  0  0  0  0
  1 36  1  0  0  0  0
  2 36  1  0  0  0  0
  3 36  1  0  0  0  0
  4 20  2  0  0  0  0
  5 25  2  0  0  0  0
  6 29  2  0  0  0  0
  7 13  1  0  0  0  0
  7 15  1  0  0  0  0
  7 16  1  0  0  0  0
 12  8  1  1  0  0  0
  8 20  1  0  0  0  0
  8 46  1  0  0  0  0
  9 19  1  0  0  0  0
  9 21  1  0  0  0  0
  9 25  1  0  0  0  0
 10 23  1  0  0  0  0
 10 29  1  0  0  0  0
 10 54  1  0  0  0  0
 11 31  1  0  0  0  0
 11 61  1  0  0  0  0
 11 62  1  0  0  0  0
 12 13  1  0  0  0  0
 12 14  1  0  0  0  0
 12 37  1  0  0  0  0
 13 38  1  0  0  0  0
 13 39  1  0  0  0  0
 14 15  1  0  0  0  0
 14 40  1  0  0  0  0
 14 41  1  0  0  0  0
 15 42  1  0  0  0  0
 15 43  1  0  0  0  0
 16 17  1  0  0  0  0
 16 44  1  0  0  0  0
 16 45  1  0  0  0  0
 17 18  1  0  0  0  0
 17 19  2  0  0  0  0
 18 21  1  0  0  0  0
 18 22  2  0  0  0  0
 19 47  1  0  0  0  0
 20 23  1  0  0  0  0
 21 24  2  0  0  0  0
 22 26  1  0  0  0  0
 22 48  1  0  0  0  0
 23 49  1  0  0  0  0
 23 50  1  0  0  0  0
 24 27  1  0  0  0  0
 24 51  1  0  0  0  0
 25 28  1  0  0  0  0
 26 27  2  0  0  0  0
 26 52  1  0  0  0  0
 27 53  1  0  0  0  0
 28 55  1  0  0  0  0
 28 56  1  0  0  0  0
 28 57  1  0  0  0  0
 29 30  1  0  0  0  0
 30 31  2  0  0  0  0
 30 32  1  0  0  0  0
 31 34  1  0  0  0  0
 32 33  2  0  0  0  0
 32 58  1  0  0  0  0
 33 35  1  0  0  0  0
 33 36  1  0  0  0  0
 34 35  2  0  0  0  0
 34 59  1  0  0  0  0
 35 60  1  0  0  0  0
M  END
> <PUBCHEM_COMPOUND_CID>
508918
> <PUBCHEM_COMPOUND_CANONICALIZED>
1
> <PUBCHEM_CACTVS_COMPLEXITY>
825
> <PUBCHEM_CACTVS_HBOND_ACCEPTOR>
8
> <PUBCHEM_CACTVS_HBOND_DONOR>
3
> <PUBCHEM_CACTVS_ROTATABLE_BOND>
6
> <PUBCHEM_CACTVS_SUBSKEYS>
AAADceB7sYAAAAAAAAAAAAAAAAAAAWLAAAAwYAAAAAAAAFgB9AAAHwAQAAAADCjBnhQ+wPPMEACoAzV3VACCgCA1AiAI2KG4ZNgIYPrA1bGUIYhglgDIyccYiMCOiAACAAACAAAQAAQAAAQAAAAAAAAAAA==
> <PUBCHEM_IUPAC_OPENEYE_NAME>
N-[2-[[(3R)-1-[(1-acetylindol-3-yl)methyl]pyrrolidin-3-yl]amino]-2-oxo-ethyl]-2-amino-5-(trifluoromethyl)benzamide
> <PUBCHEM_IUPAC_CAS_NAME>
N-[2-[[(3R)-1-[(1-acetyl-3-indolyl)methyl]-3-pyrrolidinyl]amino]-2-oxoethyl]-2-amino-5-(trifluoromethyl)benzamide
> <PUBCHEM_IUPAC_NAME_MARKUP>
<I>N</I>-[2-[[(3<I>R</I>)-1-[(1-acetylindol-3-yl)methyl]pyrrolidin-3-yl]amino]-2-oxoethyl]-2-amino-5-(trifluoromethyl)benzamide
> <PUBCHEM_IUPAC_NAME>
N-[2-[[(3R)-1-[(1-acetylindol-3-yl)methyl]pyrrolidin-3-yl]amino]-2-oxoethyl]-2-amino-5-(trifluoromethyl)benzamide
> <PUBCHEM_IUPAC_SYSTEMATIC_NAME>
2-azanyl-N-[2-[[(3R)-1-[(1-ethanoylindol-3-yl)methyl]pyrrolidin-3-yl]amino]-2-oxidanylidene-ethyl]-5-(trifluoromethyl)benzamide
> <PUBCHEM_IUPAC_TRADITIONAL_NAME>
N-[2-[[(3R)-1-[(1-acetylindol-3-yl)methyl]pyrrolidin-3-yl]amino]-2-keto-ethyl]-2-amino-5-(trifluoromethyl)benzamide
> <PUBCHEM_IUPAC_INCHI>
InChI=1S/C25H26F3N5O3/c1-15(34)33-13-16(19-4-2-3-5-22(19)33)12-32-9-8-18(14-32)31-23(35)11-30-24(36)20-10-17(25(26,27)28)6-7-21(20)29/h2-7,10,13,18H,8-9,11-12,14,29H2,1H3,(H,30,36)(H,31,35)/t18-/m1/s1
> <PUBCHEM_IUPAC_INCHIKEY>
TVTPQSNBPCEJIJ-GOSISDBHSA-N
> <PUBCHEM_XLOGP3_AA>
3
> <PUBCHEM_EXACT_MASS>
501.19877419
> <PUBCHEM_MOLECULAR_FORMULA>
C25H26F3N5O3
> <PUBCHEM_MOLECULAR_WEIGHT>
501.5
> <PUBCHEM_OPENEYE_CAN_SMILES>
CC(=O)N1C=C(C2=CC=CC=C21)CN3CCC(C3)NC(=O)CNC(=O)C4=C(C=CC(=C4)C(F)(F)F)N
> <PUBCHEM_OPENEYE_ISO_SMILES>
CC(=O)N1C=C(C2=CC=CC=C21)CN3CC[C@H](C3)NC(=O)CNC(=O)C4=C(C=CC(=C4)C(F)(F)F)N
> <PUBCHEM_CACTVS_TPSA>
110
> <PUBCHEM_MONOISOTOPIC_WEIGHT>
501.19877419
> <PUBCHEM_TOTAL_CHARGE>
0
> <PUBCHEM_HEAVY_ATOM_COUNT>
36
> <PUBCHEM_ATOM_DEF_STEREO_COUNT>
1
> <PUBCHEM_ATOM_UDEF_STEREO_COUNT>
0
> <PUBCHEM_BOND_DEF_STEREO_COUNT>
0
> <PUBCHEM_BOND_UDEF_STEREO_COUNT>
0
> <PUBCHEM_ISOTOPIC_ATOM_COUNT>
0
> <PUBCHEM_COMPONENT_COUNT>
1
> <PUBCHEM_CACTVS_TAUTO_COUNT>
-1
> <PUBCHEM_COORDINATE_TYPE>
1
5
255
> <PUBCHEM_BONDANNOTATIONS>
17  18  8
17  19  8
18  21  8
18  22  8
21  24  8
22  26  8
24  27  8
26  27  8
30  31  8
30  32  8
31  34  8
32  33  8
33  35  8
34  35  8
12  8  5
9  19  8
9  21  8
$$$$
