508958
  -OEChem-10302200282D
 62 64  0     1  0  0  0  0  0999 V2000
    2.8660   -3.8272    0.0000 Cl  0  0  0  0  0  0  0  0  0  0  0  0
    9.6996   -0.3224    0.0000 S   0  0  0  0  0  0  0  0  0  0  0  0
    6.4903    2.6273    0.0000 O   0  0  0  0  0  0  0  0  0  0  0  0
   10.6131    0.0843    0.0000 O   0  0  0  0  0  0  0  0  0  0  0  0
    8.7860   -0.7292    0.0000 O   0  0  0  0  0  0  0  0  0  0  0  0
    9.8806    1.4001    0.0000 O   0  0  0  0  0  0  0  0  0  0  0  0
    3.7320    0.6728    0.0000 N   0  0  3  0  0  0  0  0  0  0  0  0
    6.3092    0.9047    0.0000 N   0  0  0  0  0  0  0  0  0  0  0  0
    8.4793    2.4182    0.0000 N   0  0  0  0  0  0  0  0  0  0  0  0
   10.0616    3.1227    0.0000 N   0  0  0  0  0  0  0  0  0  0  0  0
    5.3147    1.0092    0.0000 C   0  0  1  0  0  0  0  0  0  0  0  0
    4.8147    1.8752    0.0000 C   0  0  0  0  0  0  0  0  0  0  0  0
    4.6456    0.2661    0.0000 C   0  0  0  0  0  0  0  0  0  0  0  0
    3.8366    1.6673    0.0000 C   0  0  0  0  0  0  0  0  0  0  0  0
    2.8660    0.1728    0.0000 C   0  0  0  0  0  0  0  0  0  0  0  0
    6.8970    1.7137    0.0000 C   0  0  0  0  0  0  0  0  0  0  0  0
    7.8916    1.6092    0.0000 C   0  0  2  0  0  0  0  0  0  0  0  0
    2.8660   -0.8272    0.0000 C   0  0  0  0  0  0  0  0  0  0  0  0
    8.2983    0.6956    0.0000 C   0  0  0  0  0  0  0  0  0  0  0  0
    9.2928    0.5911    0.0000 C   0  0  0  0  0  0  0  0  0  0  0  0
    3.7320   -1.3272    0.0000 C   0  0  0  0  0  0  0  0  0  0  0  0
    2.0000   -1.3272    0.0000 C   0  0  0  0  0  0  0  0  0  0  0  0
    9.4739    2.3137    0.0000 C   0  0  0  0  0  0  0  0  0  0  0  0
    3.7320   -2.3272    0.0000 C   0  0  0  0  0  0  0  0  0  0  0  0
    2.0000   -2.3272    0.0000 C   0  0  0  0  0  0  0  0  0  0  0  0
   10.1063   -1.2360    0.0000 C   0  0  0  0  0  0  0  0  0  0  0  0
    2.8660   -2.8272    0.0000 C   0  0  0  0  0  0  0  0  0  0  0  0
   11.0562    3.0182    0.0000 C   0  0  0  0  0  0  0  0  0  0  0  0
   11.6440    3.8272    0.0000 C   0  0  0  0  0  0  0  0  0  0  0  0
   11.4629    2.1046    0.0000 C   0  0  0  0  0  0  0  0  0  0  0  0
   12.6385    3.7226    0.0000 C   0  0  0  0  0  0  0  0  0  0  0  0
   12.4574    2.0001    0.0000 C   0  0  0  0  0  0  0  0  0  0  0  0
   13.0452    2.8091    0.0000 C   0  0  0  0  0  0  0  0  0  0  0  0
    5.5369    0.4304    0.0000 H   0  0  0  0  0  0  0  0  0  0  0  0
    5.3811    2.1274    0.0000 H   0  0  0  0  0  0  0  0  0  0  0  0
    4.6231    2.4649    0.0000 H   0  0  0  0  0  0  0  0  0  0  0  0
    4.3356   -0.2709    0.0000 H   0  0  0  0  0  0  0  0  0  0  0  0
    5.1472   -0.0983    0.0000 H   0  0  0  0  0  0  0  0  0  0  0  0
    3.7718    2.2839    0.0000 H   0  0  0  0  0  0  0  0  0  0  0  0
    3.2166    1.6673    0.0000 H   0  0  0  0  0  0  0  0  0  0  0  0
    6.5614    0.3383    0.0000 H   0  0  0  0  0  0  0  0  0  0  0  0
    2.6540    0.7554    0.0000 H   0  0  0  0  0  0  0  0  0  0  0  0
    2.2554    0.0652    0.0000 H   0  0  0  0  0  0  0  0  0  0  0  0
    7.6394    2.1756    0.0000 H   0  0  0  0  0  0  0  0  0  0  0  0
    7.6967    0.5456    0.0000 H   0  0  0  0  0  0  0  0  0  0  0  0
    8.3415    0.0772    0.0000 H   0  0  0  0  0  0  0  0  0  0  0  0
    9.8944    0.7411    0.0000 H   0  0  0  0  0  0  0  0  0  0  0  0
    9.2496    1.2096    0.0000 H   0  0  0  0  0  0  0  0  0  0  0  0
    8.2272    2.9846    0.0000 H   0  0  0  0  0  0  0  0  0  0  0  0
    4.2690   -1.0172    0.0000 H   0  0  0  0  0  0  0  0  0  0  0  0
    1.4631   -1.0172    0.0000 H   0  0  0  0  0  0  0  0  0  0  0  0
    4.2690   -2.6372    0.0000 H   0  0  0  0  0  0  0  0  0  0  0  0
    1.4631   -2.6372    0.0000 H   0  0  0  0  0  0  0  0  0  0  0  0
    9.5399   -1.4882    0.0000 H   0  0  0  0  0  0  0  0  0  0  0  0
   10.3585   -1.8024    0.0000 H   0  0  0  0  0  0  0  0  0  0  0  0
   10.6727   -0.9838    0.0000 H   0  0  0  0  0  0  0  0  0  0  0  0
    9.8095    3.6891    0.0000 H   0  0  0  0  0  0  0  0  0  0  0  0
   11.3918    4.3936    0.0000 H   0  0  0  0  0  0  0  0  0  0  0  0
   11.0985    1.6030    0.0000 H   0  0  0  0  0  0  0  0  0  0  0  0
   13.0029    4.2242    0.0000 H   0  0  0  0  0  0  0  0  0  0  0  0
   12.7096    1.4337    0.0000 H   0  0  0  0  0  0  0  0  0  0  0  0
   13.6618    2.7443    0.0000 H   0  0  0  0  0  0  0  0  0  0  0  0
  1 27  1  0  0  0  0
  2  4  2  0  0  0  0
  2  5  2  0  0  0  0
  2 20  1  0  0  0  0
  2 26  1  0  0  0  0
  3 16  2  0  0  0  0
  6 23  2  0  0  0  0
  7 13  1  0  0  0  0
  7 14  1  0  0  0  0
  7 15  1  0  0  0  0
 11  8  1  6  0  0  0
  8 16  1  0  0  0  0
  8 41  1  0  0  0  0
 17  9  1  1  0  0  0
  9 23  1  0  0  0  0
  9 49  1  0  0  0  0
 10 23  1  0  0  0  0
 10 28  1  0  0  0  0
 10 57  1  0  0  0  0
 11 12  1  0  0  0  0
 11 13  1  0  0  0  0
 11 34  1  0  0  0  0
 12 14  1  0  0  0  0
 12 35  1  0  0  0  0
 12 36  1  0  0  0  0
 13 37  1  0  0  0  0
 13 38  1  0  0  0  0
 14 39  1  0  0  0  0
 14 40  1  0  0  0  0
 15 18  1  0  0  0  0
 15 42  1  0  0  0  0
 15 43  1  0  0  0  0
 16 17  1  0  0  0  0
 17 19  1  0  0  0  0
 17 44  1  0  0  0  0
 18 21  2  0  0  0  0
 18 22  1  0  0  0  0
 19 20  1  0  0  0  0
 19 45  1  0  0  0  0
 19 46  1  0  0  0  0
 20 47  1  0  0  0  0
 20 48  1  0  0  0  0
 21 24  1  0  0  0  0
 21 50  1  0  0  0  0
 22 25  2  0  0  0  0
 22 51  1  0  0  0  0
 24 27  2  0  0  0  0
 24 52  1  0  0  0  0
 25 27  1  0  0  0  0
 25 53  1  0  0  0  0
 26 54  1  0  0  0  0
 26 55  1  0  0  0  0
 26 56  1  0  0  0  0
 28 29  2  0  0  0  0
 28 30  1  0  0  0  0
 29 31  1  0  0  0  0
 29 58  1  0  0  0  0
 30 32  2  0  0  0  0
 30 59  1  0  0  0  0
 31 33  2  0  0  0  0
 31 60  1  0  0  0  0
 32 33  1  0  0  0  0
 32 61  1  0  0  0  0
 33 62  1  0  0  0  0
M  END
> <PUBCHEM_COMPOUND_CID>
508958
> <PUBCHEM_COMPOUND_CANONICALIZED>
1
> <PUBCHEM_CACTVS_COMPLEXITY>
746
> <PUBCHEM_CACTVS_HBOND_ACCEPTOR>
5
> <PUBCHEM_CACTVS_HBOND_DONOR>
3
> <PUBCHEM_CACTVS_ROTATABLE_BOND>
9
> <PUBCHEM_CACTVS_SUBSKEYS>
AAADceB7uABEAAAAAAAAAAAAAAAAAWAAAAAwYAAAAAAAAAABQAAAHgYQAAAADCrF2CSzwIPAAAqIAiVSUHDCAAAhBxAIiIGIZoiIYDLh07GUIAholgLIyCcQgAAOBAAAAAAAAAAIAAAAAAAAAAAAAAAAAA==
> <PUBCHEM_IUPAC_OPENEYE_NAME>
(2S)-N-[(3S)-1-[(4-chlorophenyl)methyl]pyrrolidin-3-yl]-4-methylsulfonyl-2-(phenylcarbamoylamino)butanamide
> <PUBCHEM_IUPAC_CAS_NAME>
(2S)-2-[[anilino(oxo)methyl]amino]-N-[(3S)-1-[(4-chlorophenyl)methyl]-3-pyrrolidinyl]-4-methylsulfonylbutanamide
> <PUBCHEM_IUPAC_NAME_MARKUP>
(2<I>S</I>)-<I>N</I>-[(3<I>S</I>)-1-[(4-chlorophenyl)methyl]pyrrolidin-3-yl]-4-methylsulfonyl-2-(phenylcarbamoylamino)butanamide
> <PUBCHEM_IUPAC_NAME>
(2S)-N-[(3S)-1-[(4-chlorophenyl)methyl]pyrrolidin-3-yl]-4-methylsulfonyl-2-(phenylcarbamoylamino)butanamide
> <PUBCHEM_IUPAC_SYSTEMATIC_NAME>
(2S)-N-[(3S)-1-[(4-chlorophenyl)methyl]pyrrolidin-3-yl]-4-methylsulfonyl-2-(phenylcarbamoylamino)butanamide
> <PUBCHEM_IUPAC_TRADITIONAL_NAME>
(2S)-N-[(3S)-1-(4-chlorobenzyl)pyrrolidin-3-yl]-4-mesyl-2-(phenylcarbamoylamino)butyramide
> <PUBCHEM_IUPAC_INCHI>
InChI=1S/C23H29ClN4O4S/c1-33(31,32)14-12-21(27-23(30)26-19-5-3-2-4-6-19)22(29)25-20-11-13-28(16-20)15-17-7-9-18(24)10-8-17/h2-10,20-21H,11-16H2,1H3,(H,25,29)(H2,26,27,30)/t20-,21-/m0/s1
> <PUBCHEM_IUPAC_INCHIKEY>
KDPKEAPRKRLWOZ-SFTDATJTSA-N
> <PUBCHEM_XLOGP3_AA>
2.4
> <PUBCHEM_EXACT_MASS>
492.1598043
> <PUBCHEM_MOLECULAR_FORMULA>
C23H29ClN4O4S
> <PUBCHEM_MOLECULAR_WEIGHT>
493.0
> <PUBCHEM_OPENEYE_CAN_SMILES>
CS(=O)(=O)CCC(C(=O)NC1CCN(C1)CC2=CC=C(C=C2)Cl)NC(=O)NC3=CC=CC=C3
> <PUBCHEM_OPENEYE_ISO_SMILES>
CS(=O)(=O)CC[C@@H](C(=O)N[C@H]1CCN(C1)CC2=CC=C(C=C2)Cl)NC(=O)NC3=CC=CC=C3
> <PUBCHEM_CACTVS_TPSA>
116
> <PUBCHEM_MONOISOTOPIC_WEIGHT>
492.1598043
> <PUBCHEM_TOTAL_CHARGE>
0
> <PUBCHEM_HEAVY_ATOM_COUNT>
33
> <PUBCHEM_ATOM_DEF_STEREO_COUNT>
2
> <PUBCHEM_ATOM_UDEF_STEREO_COUNT>
0
> <PUBCHEM_BOND_DEF_STEREO_COUNT>
0
> <PUBCHEM_BOND_UDEF_STEREO_COUNT>
0
> <PUBCHEM_ISOTOPIC_ATOM_COUNT>
0
> <PUBCHEM_COMPONENT_COUNT>
1
> <PUBCHEM_CACTVS_TAUTO_COUNT>
-1
> <PUBCHEM_COORDINATE_TYPE>
1
5
255
> <PUBCHEM_BONDANNOTATIONS>
18  21  8
18  22  8
21  24  8
22  25  8
24  27  8
25  27  8
28  29  8
28  30  8
29  31  8
30  32  8
31  33  8
32  33  8
11  8  6
17  9  5
$$$$
