509013
  -OEChem-10302200282D
 64 66  0     1  0  0  0  0  0999 V2000
    2.0000   -6.5000    0.0000 Cl  0  0  0  0  0  0  0  0  0  0  0  0
    3.7320   -7.5000    0.0000 Cl  0  0  0  0  0  0  0  0  0  0  0  0
    6.3301   -2.0000    0.0000 O   0  0  0  0  0  0  0  0  0  0  0  0
    3.7320   -0.5000    0.0000 O   0  0  0  0  0  0  0  0  0  0  0  0
    9.7942    7.0000    0.0000 O   0  0  0  0  0  0  0  0  0  0  0  0
    2.8660   -3.0000    0.0000 O   0  0  0  0  0  0  0  0  0  0  0  0
   10.6603    5.5000    0.0000 O   0  0  0  0  0  0  0  0  0  0  0  0
    6.3301    3.0000    0.0000 N   0  0  0  0  0  0  0  0  0  0  0  0
    5.4641   -0.5000    0.0000 N   0  0  0  0  0  0  0  0  0  0  0  0
    4.5981   -3.0000    0.0000 N   0  0  0  0  0  0  0  0  0  0  0  0
    6.3301    1.0000    0.0000 C   0  0  0  0  0  0  0  0  0  0  0  0
    5.4641    1.5000    0.0000 C   0  0  0  0  0  0  0  0  0  0  0  0
    7.1962    1.5000    0.0000 C   0  0  0  0  0  0  0  0  0  0  0  0
    5.4641    2.5000    0.0000 C   0  0  0  0  0  0  0  0  0  0  0  0
    7.1962    2.5000    0.0000 C   0  0  0  0  0  0  0  0  0  0  0  0
    6.3301   -0.0000    0.0000 C   0  0  0  0  0  0  0  0  0  0  0  0
    6.3301    4.0000    0.0000 C   0  0  0  0  0  0  0  0  0  0  0  0
    7.1962    4.5000    0.0000 C   0  0  0  0  0  0  0  0  0  0  0  0
    5.4641   -1.5000    0.0000 C   0  0  0  0  0  0  0  0  0  0  0  0
    4.5981   -2.0000    0.0000 C   0  0  2  0  0  0  0  0  0  0  0  0
    7.1962    5.5000    0.0000 C   0  0  0  0  0  0  0  0  0  0  0  0
    8.0622    4.0000    0.0000 C   0  0  0  0  0  0  0  0  0  0  0  0
    3.7320   -1.5000    0.0000 C   0  0  0  0  0  0  0  0  0  0  0  0
    8.0622    6.0000    0.0000 C   0  0  0  0  0  0  0  0  0  0  0  0
    8.9282    4.5000    0.0000 C   0  0  0  0  0  0  0  0  0  0  0  0
    8.9282    5.5000    0.0000 C   0  0  0  0  0  0  0  0  0  0  0  0
    3.7320   -3.5000    0.0000 C   0  0  0  0  0  0  0  0  0  0  0  0
    9.7942    6.0000    0.0000 C   0  0  0  0  0  0  0  0  0  0  0  0
    3.7320   -4.5000    0.0000 C   0  0  0  0  0  0  0  0  0  0  0  0
    2.8660   -5.0000    0.0000 C   0  0  0  0  0  0  0  0  0  0  0  0
    4.5981   -5.0000    0.0000 C   0  0  0  0  0  0  0  0  0  0  0  0
    2.8660   -6.0000    0.0000 C   0  0  0  0  0  0  0  0  0  0  0  0
    4.5981   -6.0000    0.0000 C   0  0  0  0  0  0  0  0  0  0  0  0
    3.7320   -6.5000    0.0000 C   0  0  0  0  0  0  0  0  0  0  0  0
   10.6603    7.5000    0.0000 C   0  0  0  0  0  0  0  0  0  0  0  0
    6.8671    0.6900    0.0000 H   0  0  0  0  0  0  0  0  0  0  0  0
    4.8535    1.6077    0.0000 H   0  0  0  0  0  0  0  0  0  0  0  0
    5.2520    0.9174    0.0000 H   0  0  0  0  0  0  0  0  0  0  0  0
    7.4082    0.9174    0.0000 H   0  0  0  0  0  0  0  0  0  0  0  0
    7.8067    1.6077    0.0000 H   0  0  0  0  0  0  0  0  0  0  0  0
    5.2520    3.0826    0.0000 H   0  0  0  0  0  0  0  0  0  0  0  0
    4.8535    2.3923    0.0000 H   0  0  0  0  0  0  0  0  0  0  0  0
    7.8067    2.3923    0.0000 H   0  0  0  0  0  0  0  0  0  0  0  0
    7.4082    3.0826    0.0000 H   0  0  0  0  0  0  0  0  0  0  0  0
    6.5422   -0.5826    0.0000 H   0  0  0  0  0  0  0  0  0  0  0  0
    6.9407    0.1077    0.0000 H   0  0  0  0  0  0  0  0  0  0  0  0
    6.1181    4.5826    0.0000 H   0  0  0  0  0  0  0  0  0  0  0  0
    5.7196    3.8923    0.0000 H   0  0  0  0  0  0  0  0  0  0  0  0
    4.9272   -0.1900    0.0000 H   0  0  0  0  0  0  0  0  0  0  0  0
    5.1350   -2.3100    0.0000 H   0  0  0  0  0  0  0  0  0  0  0  0
    6.6592    5.8100    0.0000 H   0  0  0  0  0  0  0  0  0  0  0  0
    8.0622    3.3800    0.0000 H   0  0  0  0  0  0  0  0  0  0  0  0
    3.1215   -1.3923    0.0000 H   0  0  0  0  0  0  0  0  0  0  0  0
    3.5200   -2.0826    0.0000 H   0  0  0  0  0  0  0  0  0  0  0  0
    8.0622    6.6200    0.0000 H   0  0  0  0  0  0  0  0  0  0  0  0
    9.4651    4.1900    0.0000 H   0  0  0  0  0  0  0  0  0  0  0  0
    5.1350   -3.3100    0.0000 H   0  0  0  0  0  0  0  0  0  0  0  0
    3.1951   -0.1900    0.0000 H   0  0  0  0  0  0  0  0  0  0  0  0
    2.3291   -4.6900    0.0000 H   0  0  0  0  0  0  0  0  0  0  0  0
    5.1350   -4.6900    0.0000 H   0  0  0  0  0  0  0  0  0  0  0  0
    5.1350   -6.3100    0.0000 H   0  0  0  0  0  0  0  0  0  0  0  0
   10.9703    6.9631    0.0000 H   0  0  0  0  0  0  0  0  0  0  0  0
   11.1972    7.8100    0.0000 H   0  0  0  0  0  0  0  0  0  0  0  0
   10.3503    8.0369    0.0000 H   0  0  0  0  0  0  0  0  0  0  0  0
  1 32  1  0  0  0  0
  2 34  1  0  0  0  0
  3 19  2  0  0  0  0
  4 23  1  0  0  0  0
  4 58  1  0  0  0  0
  5 28  1  0  0  0  0
  5 35  1  0  0  0  0
  6 27  2  0  0  0  0
  7 28  2  0  0  0  0
  8 14  1  0  0  0  0
  8 15  1  0  0  0  0
  8 17  1  0  0  0  0
  9 16  1  0  0  0  0
  9 19  1  0  0  0  0
  9 49  1  0  0  0  0
 20 10  1  1  0  0  0
 10 27  1  0  0  0  0
 10 57  1  0  0  0  0
 11 12  1  0  0  0  0
 11 13  1  0  0  0  0
 11 16  1  0  0  0  0
 11 36  1  0  0  0  0
 12 14  1  0  0  0  0
 12 37  1  0  0  0  0
 12 38  1  0  0  0  0
 13 15  1  0  0  0  0
 13 39  1  0  0  0  0
 13 40  1  0  0  0  0
 14 41  1  0  0  0  0
 14 42  1  0  0  0  0
 15 43  1  0  0  0  0
 15 44  1  0  0  0  0
 16 45  1  0  0  0  0
 16 46  1  0  0  0  0
 17 18  1  0  0  0  0
 17 47  1  0  0  0  0
 17 48  1  0  0  0  0
 18 21  2  0  0  0  0
 18 22  1  0  0  0  0
 19 20  1  0  0  0  0
 20 23  1  0  0  0  0
 20 50  1  0  0  0  0
 21 24  1  0  0  0  0
 21 51  1  0  0  0  0
 22 25  2  0  0  0  0
 22 52  1  0  0  0  0
 23 53  1  0  0  0  0
 23 54  1  0  0  0  0
 24 26  2  0  0  0  0
 24 55  1  0  0  0  0
 25 26  1  0  0  0  0
 25 56  1  0  0  0  0
 26 28  1  0  0  0  0
 27 29  1  0  0  0  0
 29 30  2  0  0  0  0
 29 31  1  0  0  0  0
 30 32  1  0  0  0  0
 30 59  1  0  0  0  0
 31 33  2  0  0  0  0
 31 60  1  0  0  0  0
 32 34  2  0  0  0  0
 33 34  1  0  0  0  0
 33 61  1  0  0  0  0
 35 62  1  0  0  0  0
 35 63  1  0  0  0  0
 35 64  1  0  0  0  0
M  END
> <PUBCHEM_COMPOUND_CID>
509013
> <PUBCHEM_COMPOUND_CANONICALIZED>
1
> <PUBCHEM_CACTVS_COMPLEXITY>
711
> <PUBCHEM_CACTVS_HBOND_ACCEPTOR>
6
> <PUBCHEM_CACTVS_HBOND_DONOR>
3
> <PUBCHEM_CACTVS_ROTATABLE_BOND>
10
> <PUBCHEM_CACTVS_SUBSKEYS>
AAADceB7OAAGAAAAAAAAAAAAAAAAAAAAAAA8YIAAAAAAAAABQAAAHgIQCAAADSrhmCYyCIPABgCIAiHSGACCAAAkBQAIisGIDsgKdjaBtzmUcQhm9gGYqYeYyDCORAAAIAAAAASIAABAAAAACAAAAAAAAA==
> <PUBCHEM_IUPAC_OPENEYE_NAME>
methyl 4-[[4-[[[(2S)-2-[(3,4-dichlorobenzoyl)amino]-3-hydroxy-propanoyl]amino]methyl]-1-piperidyl]methyl]benzoate
> <PUBCHEM_IUPAC_CAS_NAME>
4-[[4-[[[(2S)-2-[[(3,4-dichlorophenyl)-oxomethyl]amino]-3-hydroxy-1-oxopropyl]amino]methyl]-1-piperidinyl]methyl]benzoic acid methyl ester
> <PUBCHEM_IUPAC_NAME_MARKUP>
methyl 4-[[4-[[[(2<I>S</I>)-2-[(3,4-dichlorobenzoyl)amino]-3-hydroxypropanoyl]amino]methyl]piperidin-1-yl]methyl]benzoate
> <PUBCHEM_IUPAC_NAME>
methyl 4-[[4-[[[(2S)-2-[(3,4-dichlorobenzoyl)amino]-3-hydroxypropanoyl]amino]methyl]piperidin-1-yl]methyl]benzoate
> <PUBCHEM_IUPAC_SYSTEMATIC_NAME>
methyl 4-[[4-[[[(2S)-2-[(3,4-dichlorophenyl)carbonylamino]-3-oxidanyl-propanoyl]amino]methyl]piperidin-1-yl]methyl]benzoate
> <PUBCHEM_IUPAC_TRADITIONAL_NAME>
4-[[4-[[[(2S)-2-[(3,4-dichlorobenzoyl)amino]-3-hydroxy-propanoyl]amino]methyl]piperidino]methyl]benzoic acid methyl ester
> <PUBCHEM_IUPAC_INCHI>
InChI=1S/C25H29Cl2N3O5/c1-35-25(34)18-4-2-17(3-5-18)14-30-10-8-16(9-11-30)13-28-24(33)22(15-31)29-23(32)19-6-7-20(26)21(27)12-19/h2-7,12,16,22,31H,8-11,13-15H2,1H3,(H,28,33)(H,29,32)/t22-/m0/s1
> <PUBCHEM_IUPAC_INCHIKEY>
HGJUQKWEFRATQQ-QFIPXVFZSA-N
> <PUBCHEM_XLOGP3_AA>
3.3
> <PUBCHEM_EXACT_MASS>
521.1484264
> <PUBCHEM_MOLECULAR_FORMULA>
C25H29Cl2N3O5
> <PUBCHEM_MOLECULAR_WEIGHT>
522.4
> <PUBCHEM_OPENEYE_CAN_SMILES>
COC(=O)C1=CC=C(C=C1)CN2CCC(CC2)CNC(=O)C(CO)NC(=O)C3=CC(=C(C=C3)Cl)Cl
> <PUBCHEM_OPENEYE_ISO_SMILES>
COC(=O)C1=CC=C(C=C1)CN2CCC(CC2)CNC(=O)[C@H](CO)NC(=O)C3=CC(=C(C=C3)Cl)Cl
> <PUBCHEM_CACTVS_TPSA>
108
> <PUBCHEM_MONOISOTOPIC_WEIGHT>
521.1484264
> <PUBCHEM_TOTAL_CHARGE>
0
> <PUBCHEM_HEAVY_ATOM_COUNT>
35
> <PUBCHEM_ATOM_DEF_STEREO_COUNT>
1
> <PUBCHEM_ATOM_UDEF_STEREO_COUNT>
0
> <PUBCHEM_BOND_DEF_STEREO_COUNT>
0
> <PUBCHEM_BOND_UDEF_STEREO_COUNT>
0
> <PUBCHEM_ISOTOPIC_ATOM_COUNT>
0
> <PUBCHEM_COMPONENT_COUNT>
1
> <PUBCHEM_CACTVS_TAUTO_COUNT>
-1
> <PUBCHEM_COORDINATE_TYPE>
1
5
255
> <PUBCHEM_BONDANNOTATIONS>
20  10  5
18  21  8
18  22  8
21  24  8
22  25  8
24  26  8
25  26  8
29  30  8
29  31  8
30  32  8
31  33  8
32  34  8
33  34  8
$$$$
