509049
  -OEChem-10302200282D
 53 56  0     1  0  0  0  0  0999 V2000
    7.1962    1.8100    0.0000 Cl  0  0  0  0  0  0  0  0  0  0  0  0
    8.0622    0.3100    0.0000 F   0  0  0  0  0  0  0  0  0  0  0  0
    5.4641    4.8100    0.0000 F   0  0  0  0  0  0  0  0  0  0  0  0
    9.7942   -2.6900    0.0000 F   0  0  0  0  0  0  0  0  0  0  0  0
    2.0000   -4.1900    0.0000 O   0  0  0  0  0  0  0  0  0  0  0  0
    2.8660    0.3100    0.0000 O   0  0  0  0  0  0  0  0  0  0  0  0
    3.7320    1.8100    0.0000 O   0  0  0  0  0  0  0  0  0  0  0  0
    3.7320   -2.1900    0.0000 N   0  0  3  0  0  0  0  0  0  0  0  0
    5.4641   -1.1900    0.0000 N   0  0  0  0  0  0  0  0  0  0  0  0
    3.7320   -4.1900    0.0000 N   0  0  0  0  0  0  0  0  0  0  0  0
    6.3301    0.3100    0.0000 N   0  0  0  0  0  0  0  0  0  0  0  0
    7.1962   -2.1900    0.0000 N   0  0  0  0  0  0  0  0  0  0  0  0
    3.7320   -1.1900    0.0000 C   0  0  0  0  0  0  0  0  0  0  0  0
    4.5981   -2.6900    0.0000 C   0  0  0  0  0  0  0  0  0  0  0  0
    4.5981   -0.6900    0.0000 C   0  0  0  0  0  0  0  0  0  0  0  0
    2.8660   -2.6900    0.0000 C   0  0  0  0  0  0  0  0  0  0  0  0
    5.4641    0.8100    0.0000 C   0  0  2  0  0  0  0  0  0  0  0  0
    4.5981    0.3100    0.0000 C   0  0  0  0  0  0  0  0  0  0  0  0
    4.5981   -3.6900    0.0000 C   0  0  0  0  0  0  0  0  0  0  0  0
    2.8660   -3.6900    0.0000 C   0  0  0  0  0  0  0  0  0  0  0  0
    5.4641    1.8100    0.0000 C   0  0  0  0  0  0  0  0  0  0  0  0
    6.3301   -0.6900    0.0000 C   0  0  0  0  0  0  0  0  0  0  0  0
    3.7320    0.8100    0.0000 C   0  0  0  0  0  0  0  0  0  0  0  0
    7.1962   -1.1900    0.0000 C   0  0  0  0  0  0  0  0  0  0  0  0
    6.3301    2.3100    0.0000 C   0  0  0  0  0  0  0  0  0  0  0  0
    4.5981    2.3100    0.0000 C   0  0  0  0  0  0  0  0  0  0  0  0
    6.3301    3.3100    0.0000 C   0  0  0  0  0  0  0  0  0  0  0  0
    4.5981    3.3100    0.0000 C   0  0  0  0  0  0  0  0  0  0  0  0
    8.0622   -0.6900    0.0000 C   0  0  0  0  0  0  0  0  0  0  0  0
    5.4641    3.8100    0.0000 C   0  0  0  0  0  0  0  0  0  0  0  0
    8.9282   -1.1900    0.0000 C   0  0  0  0  0  0  0  0  0  0  0  0
    2.0000    0.8100    0.0000 C   0  0  0  0  0  0  0  0  0  0  0  0
    8.0622   -2.6900    0.0000 C   0  0  0  0  0  0  0  0  0  0  0  0
    8.9282   -2.1900    0.0000 C   0  0  0  0  0  0  0  0  0  0  0  0
    3.5200   -0.6074    0.0000 H   0  0  0  0  0  0  0  0  0  0  0  0
    3.1215   -1.2977    0.0000 H   0  0  0  0  0  0  0  0  0  0  0  0
    5.2087   -2.7977    0.0000 H   0  0  0  0  0  0  0  0  0  0  0  0
    4.8101   -2.1074    0.0000 H   0  0  0  0  0  0  0  0  0  0  0  0
    2.6540   -2.1074    0.0000 H   0  0  0  0  0  0  0  0  0  0  0  0
    2.2554   -2.7977    0.0000 H   0  0  0  0  0  0  0  0  0  0  0  0
    6.0010    1.1200    0.0000 H   0  0  0  0  0  0  0  0  0  0  0  0
    4.8101   -4.2726    0.0000 H   0  0  0  0  0  0  0  0  0  0  0  0
    5.2087   -3.5823    0.0000 H   0  0  0  0  0  0  0  0  0  0  0  0
    5.4641   -1.8100    0.0000 H   0  0  0  0  0  0  0  0  0  0  0  0
    3.7320   -4.8100    0.0000 H   0  0  0  0  0  0  0  0  0  0  0  0
    4.0611    2.0000    0.0000 H   0  0  0  0  0  0  0  0  0  0  0  0
    6.8671    3.6200    0.0000 H   0  0  0  0  0  0  0  0  0  0  0  0
    4.0611    3.6200    0.0000 H   0  0  0  0  0  0  0  0  0  0  0  0
    9.4651   -0.8800    0.0000 H   0  0  0  0  0  0  0  0  0  0  0  0
    2.3100    1.3469    0.0000 H   0  0  0  0  0  0  0  0  0  0  0  0
    1.4631    1.1200    0.0000 H   0  0  0  0  0  0  0  0  0  0  0  0
    1.6900    0.2731    0.0000 H   0  0  0  0  0  0  0  0  0  0  0  0
    8.0622   -3.3100    0.0000 H   0  0  0  0  0  0  0  0  0  0  0  0
  1 25  1  0  0  0  0
  2 29  1  0  0  0  0
  3 30  1  0  0  0  0
  4 34  1  0  0  0  0
  5 20  2  0  0  0  0
  6 23  1  0  0  0  0
  6 32  1  0  0  0  0
  7 23  2  0  0  0  0
  8 13  1  0  0  0  0
  8 14  1  0  0  0  0
  8 16  1  0  0  0  0
  9 15  1  0  0  0  0
  9 22  1  0  0  0  0
  9 44  1  0  0  0  0
 10 19  1  0  0  0  0
 10 20  1  0  0  0  0
 10 45  1  0  0  0  0
 11 17  1  0  0  0  0
 11 22  2  0  0  0  0
 12 24  1  0  0  0  0
 12 33  2  0  0  0  0
 13 15  1  0  0  0  0
 13 35  1  0  0  0  0
 13 36  1  0  0  0  0
 14 19  1  0  0  0  0
 14 37  1  0  0  0  0
 14 38  1  0  0  0  0
 15 18  2  0  0  0  0
 16 20  1  0  0  0  0
 16 39  1  0  0  0  0
 16 40  1  0  0  0  0
 17 18  1  0  0  0  0
 17 21  1  6  0  0  0
 17 41  1  0  0  0  0
 18 23  1  0  0  0  0
 19 42  1  0  0  0  0
 19 43  1  0  0  0  0
 21 25  2  0  0  0  0
 21 26  1  0  0  0  0
 22 24  1  0  0  0  0
 24 29  2  0  0  0  0
 25 27  1  0  0  0  0
 26 28  2  0  0  0  0
 26 46  1  0  0  0  0
 27 30  2  0  0  0  0
 27 47  1  0  0  0  0
 28 30  1  0  0  0  0
 28 48  1  0  0  0  0
 29 31  1  0  0  0  0
 31 34  2  0  0  0  0
 31 49  1  0  0  0  0
 32 50  1  0  0  0  0
 32 51  1  0  0  0  0
 32 52  1  0  0  0  0
 33 34  1  0  0  0  0
 33 53  1  0  0  0  0
M  END
> <PUBCHEM_COMPOUND_CID>
509049
> <PUBCHEM_COMPOUND_CANONICALIZED>
1
> <PUBCHEM_CACTVS_COMPLEXITY>
860
> <PUBCHEM_CACTVS_HBOND_ACCEPTOR>
9
> <PUBCHEM_CACTVS_HBOND_DONOR>
2
> <PUBCHEM_CACTVS_ROTATABLE_BOND>
6
> <PUBCHEM_CACTVS_SUBSKEYS>
AAADceB7sYAEAAAAAAAAAAAAAAAAAAAAAAA8WIEAAAAAAAABwAAAHwIQAAAADCrBni4/iJPIFACoAzf3fACCgCExBSAJ2KGoRtgIZPrBu7GUMAhmlgDI6UeYyKCOAAAAAAABAAAAAAAAAAIAAAAAAAAAAA==
> <PUBCHEM_IUPAC_OPENEYE_NAME>
methyl (4R)-4-(2-chloro-4-fluoro-phenyl)-2-(3,5-difluoro-2-pyridyl)-6-[(3-oxopiperazin-1-yl)methyl]-1,4-dihydropyrimidine-5-carboxylate
> <PUBCHEM_IUPAC_CAS_NAME>
(4R)-4-(2-chloro-4-fluorophenyl)-2-(3,5-difluoro-2-pyridinyl)-6-[(3-oxo-1-piperazinyl)methyl]-1,4-dihydropyrimidine-5-carboxylic acid methyl ester
> <PUBCHEM_IUPAC_NAME_MARKUP>
methyl (4<I>R</I>)-4-(2-chloro-4-fluorophenyl)-2-(3,5-difluoropyridin-2-yl)-6-[(3-oxopiperazin-1-yl)methyl]-1,4-dihydropyrimidine-5-carboxylate
> <PUBCHEM_IUPAC_NAME>
methyl (4R)-4-(2-chloro-4-fluorophenyl)-2-(3,5-difluoropyridin-2-yl)-6-[(3-oxopiperazin-1-yl)methyl]-1,4-dihydropyrimidine-5-carboxylate
> <PUBCHEM_IUPAC_SYSTEMATIC_NAME>
methyl (4R)-2-[3,5-bis(fluoranyl)pyridin-2-yl]-4-(2-chloranyl-4-fluoranyl-phenyl)-6-[(3-oxidanylidenepiperazin-1-yl)methyl]-1,4-dihydropyrimidine-5-carboxylate
> <PUBCHEM_IUPAC_TRADITIONAL_NAME>
(4R)-4-(2-chloro-4-fluoro-phenyl)-2-(3,5-difluoro-2-pyridyl)-6-[(3-ketopiperazino)methyl]-1,4-dihydropyrimidine-5-carboxylic acid methyl ester
> <PUBCHEM_IUPAC_INCHI>
InChI=1S/C22H19ClF3N5O3/c1-34-22(33)18-16(9-31-5-4-27-17(32)10-31)29-21(20-15(26)7-12(25)8-28-20)30-19(18)13-3-2-11(24)6-14(13)23/h2-3,6-8,19H,4-5,9-10H2,1H3,(H,27,32)(H,29,30)/t19-/m0/s1
> <PUBCHEM_IUPAC_INCHIKEY>
ZTZCBTBSJNFEGS-IBGZPJMESA-N
> <PUBCHEM_XLOGP3_AA>
1.7
> <PUBCHEM_EXACT_MASS>
493.1128517
> <PUBCHEM_MOLECULAR_FORMULA>
C22H19ClF3N5O3
> <PUBCHEM_MOLECULAR_WEIGHT>
493.9
> <PUBCHEM_OPENEYE_CAN_SMILES>
COC(=O)C1=C(NC(=NC1C2=C(C=C(C=C2)F)Cl)C3=C(C=C(C=N3)F)F)CN4CCNC(=O)C4
> <PUBCHEM_OPENEYE_ISO_SMILES>
COC(=O)C1=C(NC(=N[C@H]1C2=C(C=C(C=C2)F)Cl)C3=C(C=C(C=N3)F)F)CN4CCNC(=O)C4
> <PUBCHEM_CACTVS_TPSA>
95.9
> <PUBCHEM_MONOISOTOPIC_WEIGHT>
493.1128517
> <PUBCHEM_TOTAL_CHARGE>
0
> <PUBCHEM_HEAVY_ATOM_COUNT>
34
> <PUBCHEM_ATOM_DEF_STEREO_COUNT>
1
> <PUBCHEM_ATOM_UDEF_STEREO_COUNT>
0
> <PUBCHEM_BOND_DEF_STEREO_COUNT>
0
> <PUBCHEM_BOND_UDEF_STEREO_COUNT>
0
> <PUBCHEM_ISOTOPIC_ATOM_COUNT>
0
> <PUBCHEM_COMPONENT_COUNT>
1
> <PUBCHEM_CACTVS_TAUTO_COUNT>
-1
> <PUBCHEM_COORDINATE_TYPE>
1
5
255
> <PUBCHEM_BONDANNOTATIONS>
12  24  8
12  33  8
17  21  6
21  25  8
21  26  8
24  29  8
25  27  8
26  28  8
27  30  8
28  30  8
29  31  8
31  34  8
33  34  8
$$$$
