509098
  -OEChem-10302200282D
 79 84  0     1  0  0  0  0  0999 V2000
    6.9369   -0.0490    0.0000 O   0  0  0  0  0  0  0  0  0  0  0  0
   10.7430   -1.9887    0.0000 O   0  0  0  0  0  0  0  0  0  0  0  0
   11.4010   -1.0491    0.0000 O   0  0  0  0  0  0  0  0  0  0  0  0
   11.8178    0.9474    0.0000 O   0  0  0  0  0  0  0  0  0  0  0  0
    6.0709    1.4510    0.0000 O   0  0  0  0  0  0  0  0  0  0  0  0
    5.2049   -1.0490    0.0000 O   0  0  0  0  0  0  0  0  0  0  0  0
    3.3926    0.1463    0.0000 O   0  0  0  0  0  0  0  0  0  0  0  0
    3.3926    1.7558    0.0000 O   0  0  0  0  0  0  0  0  0  0  0  0
    8.6690   -0.0490    0.0000 C   0  0  3  0  0  0  0  0  0  0  0  0
    9.5350   -0.5490    0.0000 C   0  0  3  0  0  0  0  0  0  0  0  0
   10.4010   -0.0490    0.0000 C   0  0  3  0  0  0  0  0  0  0  0  0
   10.4010    0.9510    0.0000 C   0  0  1  0  0  0  0  0  0  0  0  0
    7.9320   -0.7161    0.0000 C   0  0  3  0  0  0  0  0  0  0  0  0
    9.5350    1.4510    0.0000 C   0  0  2  0  0  0  0  0  0  0  0  0
    8.9739    0.3302    0.0000 C   0  0  0  0  0  0  0  0  0  0  0  0
    8.6690    0.9510    0.0000 C   0  0  0  0  0  0  0  0  0  0  0  0
    9.3258   -1.5208    0.0000 C   0  0  0  0  0  0  0  0  0  0  0  0
    9.7442    2.4228    0.0000 C   0  0  1  0  0  0  0  0  0  0  0  0
   11.1380    1.6181    0.0000 C   0  0  0  0  0  0  0  0  0  0  0  0
    8.3371   -1.6238    0.0000 C   0  0  0  0  0  0  0  0  0  0  0  0
    7.8030    0.4510    0.0000 C   0  0  0  0  0  0  0  0  0  0  0  0
   10.7329    2.5259    0.0000 C   0  0  0  0  0  0  0  0  0  0  0  0
   10.4010   -1.0490    0.0000 C   0  0  0  0  0  0  0  0  0  0  0  0
   11.3970    0.0402    0.0000 C   0  0  0  0  0  0  0  0  0  0  0  0
    9.5320   -2.4993    0.0000 C   0  0  0  0  0  0  0  0  0  0  0  0
    9.0764    3.1671    0.0000 C   0  0  0  0  0  0  0  0  0  0  0  0
    8.7877   -3.1671    0.0000 C   0  0  0  0  0  0  0  0  0  0  0  0
   10.4825   -2.8100    0.0000 C   0  0  0  0  0  0  0  0  0  0  0  0
    6.0709    0.4510    0.0000 C   0  0  2  0  0  0  0  0  0  0  0  0
    5.2049   -0.0490    0.0000 C   0  0  1  0  0  0  0  0  0  0  0  0
    4.3388    0.4510    0.0000 C   0  0  3  0  0  0  0  0  0  0  0  0
    4.3388    1.4510    0.0000 C   0  0  3  0  0  0  0  0  0  0  0  0
    5.2049    1.9510    0.0000 C   0  0  1  0  0  0  0  0  0  0  0  0
    2.8090    0.9510    0.0000 C   0  0  0  0  0  0  0  0  0  0  0  0
    5.2049    2.9510    0.0000 C   0  0  0  0  0  0  0  0  0  0  0  0
    2.0000    1.5388    0.0000 C   0  0  0  0  0  0  0  0  0  0  0  0
    2.0000    0.3632    0.0000 C   0  0  0  0  0  0  0  0  0  0  0  0
   11.1371    0.5260    0.0000 H   0  0  0  0  0  0  0  0  0  0  0  0
    7.3222   -0.6040    0.0000 H   0  0  0  0  0  0  0  0  0  0  0  0
    8.7989    1.8760    0.0000 H   0  0  0  0  0  0  0  0  0  0  0  0
    9.2348    0.8927    0.0000 H   0  0  0  0  0  0  0  0  0  0  0  0
    8.4653    0.6848    0.0000 H   0  0  0  0  0  0  0  0  0  0  0  0
    8.4569    1.5336    0.0000 H   0  0  0  0  0  0  0  0  0  0  0  0
    8.0584    0.8434    0.0000 H   0  0  0  0  0  0  0  0  0  0  0  0
    9.9671    3.0014    0.0000 H   0  0  0  0  0  0  0  0  0  0  0  0
   11.5035    1.1172    0.0000 H   0  0  0  0  0  0  0  0  0  0  0  0
   11.6745    1.9289    0.0000 H   0  0  0  0  0  0  0  0  0  0  0  0
    8.0271   -2.1608    0.0000 H   0  0  0  0  0  0  0  0  0  0  0  0
    8.2015    0.9260    0.0000 H   0  0  0  0  0  0  0  0  0  0  0  0
    7.4044    0.9260    0.0000 H   0  0  0  0  0  0  0  0  0  0  0  0
   11.3225    2.7177    0.0000 H   0  0  0  0  0  0  0  0  0  0  0  0
   10.6042    3.1324    0.0000 H   0  0  0  0  0  0  0  0  0  0  0  0
   11.7537   -0.4669    0.0000 H   0  0  0  0  0  0  0  0  0  0  0  0
    9.6599   -3.1060    0.0000 H   0  0  0  0  0  0  0  0  0  0  0  0
    9.5378    3.5812    0.0000 H   0  0  0  0  0  0  0  0  0  0  0  0
    8.6623    3.6286    0.0000 H   0  0  0  0  0  0  0  0  0  0  0  0
    8.6149    2.7531    0.0000 H   0  0  0  0  0  0  0  0  0  0  0  0
    8.3736   -2.7057    0.0000 H   0  0  0  0  0  0  0  0  0  0  0  0
    8.3262   -3.5812    0.0000 H   0  0  0  0  0  0  0  0  0  0  0  0
    9.2018   -3.6286    0.0000 H   0  0  0  0  0  0  0  0  0  0  0  0
   10.2899   -3.3993    0.0000 H   0  0  0  0  0  0  0  0  0  0  0  0
   11.0719   -3.0026    0.0000 H   0  0  0  0  0  0  0  0  0  0  0  0
   10.6751   -2.2206    0.0000 H   0  0  0  0  0  0  0  0  0  0  0  0
   11.3536   -2.0963    0.0000 H   0  0  0  0  0  0  0  0  0  0  0  0
    6.0709   -0.1690    0.0000 H   0  0  0  0  0  0  0  0  0  0  0  0
    4.6679   -0.3590    0.0000 H   0  0  0  0  0  0  0  0  0  0  0  0
    4.2732   -0.1655    0.0000 H   0  0  0  0  0  0  0  0  0  0  0  0
    4.2732    2.0675    0.0000 H   0  0  0  0  0  0  0  0  0  0  0  0
    5.7418    2.2610    0.0000 H   0  0  0  0  0  0  0  0  0  0  0  0
    4.6679   -1.3590    0.0000 H   0  0  0  0  0  0  0  0  0  0  0  0
    5.8249    2.9510    0.0000 H   0  0  0  0  0  0  0  0  0  0  0  0
    5.2049    3.5710    0.0000 H   0  0  0  0  0  0  0  0  0  0  0  0
    4.5849    2.9510    0.0000 H   0  0  0  0  0  0  0  0  0  0  0  0
    2.3644    2.0404    0.0000 H   0  0  0  0  0  0  0  0  0  0  0  0
    1.4984    1.9032    0.0000 H   0  0  0  0  0  0  0  0  0  0  0  0
    1.6356    1.0372    0.0000 H   0  0  0  0  0  0  0  0  0  0  0  0
    1.6356    0.8648    0.0000 H   0  0  0  0  0  0  0  0  0  0  0  0
    1.4984   -0.0012    0.0000 H   0  0  0  0  0  0  0  0  0  0  0  0
    2.3644   -0.1384    0.0000 H   0  0  0  0  0  0  0  0  0  0  0  0
  1 21  1  0  0  0  0
 29  1  1  1  0  0  0
  2 23  1  0  0  0  0
  2 64  1  0  0  0  0
  3 23  2  0  0  0  0
  4 24  2  0  0  0  0
  5 29  1  0  0  0  0
  5 33  1  0  0  0  0
 30  6  1  6  0  0  0
  6 70  1  0  0  0  0
  7 31  1  0  0  0  0
  7 34  1  0  0  0  0
  8 32  1  0  0  0  0
  8 34  1  0  0  0  0
  9 10  1  0  0  0  0
  9 13  1  0  0  0  0
  9 16  1  0  0  0  0
  9 21  1  0  0  0  0
 10 11  1  0  0  0  0
 10 17  1  0  0  0  0
 10 23  1  0  0  0  0
 11 12  1  0  0  0  0
 11 15  1  0  0  0  0
 11 24  1  0  0  0  0
 12 14  1  0  0  0  0
 12 19  1  0  0  0  0
 12 38  1  6  0  0  0
 13 15  1  0  0  0  0
 13 20  1  0  0  0  0
 13 39  1  0  0  0  0
 14 16  1  0  0  0  0
 14 18  1  0  0  0  0
 14 40  1  1  0  0  0
 15 41  1  0  0  0  0
 15 42  1  0  0  0  0
 16 43  1  0  0  0  0
 16 44  1  0  0  0  0
 17 20  2  0  0  0  0
 17 25  1  0  0  0  0
 18 22  1  0  0  0  0
 18 26  1  6  0  0  0
 18 45  1  0  0  0  0
 19 22  1  0  0  0  0
 19 46  1  0  0  0  0
 19 47  1  0  0  0  0
 20 48  1  0  0  0  0
 21 49  1  0  0  0  0
 21 50  1  0  0  0  0
 22 51  1  0  0  0  0
 22 52  1  0  0  0  0
 24 53  1  0  0  0  0
 25 27  1  0  0  0  0
 25 28  1  0  0  0  0
 25 54  1  0  0  0  0
 26 55  1  0  0  0  0
 26 56  1  0  0  0  0
 26 57  1  0  0  0  0
 27 58  1  0  0  0  0
 27 59  1  0  0  0  0
 27 60  1  0  0  0  0
 28 61  1  0  0  0  0
 28 62  1  0  0  0  0
 28 63  1  0  0  0  0
 29 30  1  0  0  0  0
 29 65  1  0  0  0  0
 30 31  1  0  0  0  0
 30 66  1  0  0  0  0
 31 32  1  0  0  0  0
 31 67  1  0  0  0  0
 32 33  1  0  0  0  0
 32 68  1  0  0  0  0
 33 35  1  1  0  0  0
 33 69  1  0  0  0  0
 34 36  1  0  0  0  0
 34 37  1  0  0  0  0
 35 71  1  0  0  0  0
 35 72  1  0  0  0  0
 35 73  1  0  0  0  0
 36 74  1  0  0  0  0
 36 75  1  0  0  0  0
 36 76  1  0  0  0  0
 37 77  1  0  0  0  0
 37 78  1  0  0  0  0
 37 79  1  0  0  0  0
M  END
> <PUBCHEM_COMPOUND_CID>
509098
> <PUBCHEM_COMPOUND_CANONICALIZED>
1
> <PUBCHEM_CACTVS_COMPLEXITY>
1020
> <PUBCHEM_CACTVS_HBOND_ACCEPTOR>
8
> <PUBCHEM_CACTVS_HBOND_DONOR>
2
> <PUBCHEM_CACTVS_ROTATABLE_BOND>
6
> <PUBCHEM_CACTVS_SUBSKEYS>
AAADcfB4PAAAAAAAAAAAAAAAAAAAAaMECAA0QIAABgAAAGgAAAAAGgAACAAADxSwgAMCCAAABgCIAijSiAAAAAAgAAAACAEAAAgREBIAAQAiQAAFwAAPAAPL7PyPgAAAAAAAAACAAAQAACAAAQAACAAAAA==
> <PUBCHEM_IUPAC_OPENEYE_NAME>
(4R,5R,8R)-9-formyl-2-[[(4R,6R,7R)-7-hydroxy-2,2,4-trimethyl-4,6,7,7a-tetrahydro-3aH-[1,3]dioxolo[4,5-c]pyran-6-yl]oxymethyl]-13-isopropyl-5-methyl-tetracyclo[7.4.0.02,11.04,8]tridec-12-ene-1-carboxylic acid
> <PUBCHEM_IUPAC_CAS_NAME>
(4R,5R,8R)-9-formyl-2-[[(4R,6R,7R)-7-hydroxy-2,2,4-trimethyl-4,6,7,7a-tetrahydro-3aH-[1,3]dioxolo[4,5-c]pyran-6-yl]oxymethyl]-5-methyl-13-propan-2-yl-1-tetracyclo[7.4.0.02,11.04,8]tridec-12-enecarboxylic acid
> <PUBCHEM_IUPAC_NAME_MARKUP>
(4<I>R</I>,5<I>R</I>,8<I>R</I>)-9-formyl-2-[[(4<I>R</I>,6<I>R</I>,7<I>R</I>)-7-hydroxy-2,2,4-trimethyl-4,6,7,7<I>a</I>-tetrahydro-3<I>a</I><I>H</I>-[1,3]dioxolo[4,5-c]pyran-6-yl]oxymethyl]-5-methyl-13-propan-2-yltetracyclo[7.4.0.0<SUP>2,11</SUP>.0<SUP>4,8</SUP>]tridec-12-ene-1-carboxylic acid
> <PUBCHEM_IUPAC_NAME>
(4R,5R,8R)-9-formyl-2-[[(4R,6R,7R)-7-hydroxy-2,2,4-trimethyl-4,6,7,7a-tetrahydro-3aH-[1,3]dioxolo[4,5-c]pyran-6-yl]oxymethyl]-5-methyl-13-propan-2-yltetracyclo[7.4.0.02,11.04,8]tridec-12-ene-1-carboxylic acid
> <PUBCHEM_IUPAC_SYSTEMATIC_NAME>
(4R,5R,8R)-9-methanoyl-5-methyl-13-propan-2-yl-2-[[(4R,6R,7R)-2,2,4-trimethyl-7-oxidanyl-4,6,7,7a-tetrahydro-3aH-[1,3]dioxolo[4,5-c]pyran-6-yl]oxymethyl]tetracyclo[7.4.0.02,11.04,8]tridec-12-ene-1-carboxylic acid
> <PUBCHEM_IUPAC_TRADITIONAL_NAME>
(4R,5R,8R)-9-formyl-2-[[(4R,6R,7R)-7-hydroxy-2,2,4-trimethyl-4,6,7,7a-tetrahydro-3aH-[1,3]dioxolo[4,5-c]pyran-6-yl]oxymethyl]-13-isopropyl-5-methyl-tetracyclo[7.4.0.02,11.04,8]tridec-12-ene-1-carboxylic acid
> <PUBCHEM_IUPAC_INCHI>
InChI=1S/C29H42O8/c1-14(2)20-9-17-10-27(12-30)19-8-7-15(3)18(19)11-28(17,29(20,27)25(32)33)13-34-24-21(31)23-22(16(4)35-24)36-26(5,6)37-23/h9,12,14-19,21-24,31H,7-8,10-11,13H2,1-6H3,(H,32,33)/t15-,16-,17?,18-,19-,21-,22?,23?,24-,27?,28?,29?/m1/s1
> <PUBCHEM_IUPAC_INCHIKEY>
BPVNJNBTESVCGD-KWGYCBJNSA-N
> <PUBCHEM_XLOGP3_AA>
2.5
> <PUBCHEM_EXACT_MASS>
518.28796829
> <PUBCHEM_MOLECULAR_FORMULA>
C29H42O8
> <PUBCHEM_MOLECULAR_WEIGHT>
518.6
> <PUBCHEM_OPENEYE_CAN_SMILES>
CC1CCC2C1CC3(C4CC2(C3(C(=C4)C(C)C)C(=O)O)C=O)COC5C(C6C(C(O5)C)OC(O6)(C)C)O
> <PUBCHEM_OPENEYE_ISO_SMILES>
C[C@@H]1CC[C@@H]2[C@@H]1CC3(C4CC2(C3(C(=C4)C(C)C)C(=O)O)C=O)CO[C@H]5[C@@H](C6C([C@H](O5)C)OC(O6)(C)C)O
> <PUBCHEM_CACTVS_TPSA>
112
> <PUBCHEM_MONOISOTOPIC_WEIGHT>
518.28796829
> <PUBCHEM_TOTAL_CHARGE>
0
> <PUBCHEM_HEAVY_ATOM_COUNT>
37
> <PUBCHEM_ATOM_DEF_STEREO_COUNT>
6
> <PUBCHEM_ATOM_UDEF_STEREO_COUNT>
6
> <PUBCHEM_BOND_DEF_STEREO_COUNT>
0
> <PUBCHEM_BOND_UDEF_STEREO_COUNT>
0
> <PUBCHEM_ISOTOPIC_ATOM_COUNT>
0
> <PUBCHEM_COMPONENT_COUNT>
1
> <PUBCHEM_CACTVS_TAUTO_COUNT>
-1
> <PUBCHEM_COORDINATE_TYPE>
1
5
255
> <PUBCHEM_BONDANNOTATIONS>
29  1  5
10  23  3
11  15  3
12  38  6
13  15  3
14  40  5
18  26  6
33  35  5
30  6  6
31  7  3
32  8  3
9  21  3
$$$$
