509097
  -OEChem-10302200282D
 81 86  0     1  0  0  0  0  0999 V2000
    7.3981   -0.0490    0.0000 O   0  0  0  0  0  0  0  0  0  0  0  0
   11.2042   -1.9887    0.0000 O   0  0  0  0  0  0  0  0  0  0  0  0
   11.8622   -1.0491    0.0000 O   0  0  0  0  0  0  0  0  0  0  0  0
   12.2789    0.9474    0.0000 O   0  0  0  0  0  0  0  0  0  0  0  0
    6.5320    1.4510    0.0000 O   0  0  0  0  0  0  0  0  0  0  0  0
    3.9061   -0.0836    0.0000 O   0  0  0  0  0  0  0  0  0  0  0  0
    3.9061    1.9857    0.0000 O   0  0  0  0  0  0  0  0  0  0  0  0
    9.1301   -0.0490    0.0000 C   0  0  3  0  0  0  0  0  0  0  0  0
    9.9962   -0.5490    0.0000 C   0  0  3  0  0  0  0  0  0  0  0  0
   10.8622   -0.0490    0.0000 C   0  0  3  0  0  0  0  0  0  0  0  0
   10.8622    0.9510    0.0000 C   0  0  1  0  0  0  0  0  0  0  0  0
    8.3931   -0.7161    0.0000 C   0  0  3  0  0  0  0  0  0  0  0  0
    9.9962    1.4510    0.0000 C   0  0  2  0  0  0  0  0  0  0  0  0
    9.4351    0.3302    0.0000 C   0  0  0  0  0  0  0  0  0  0  0  0
    9.1301    0.9510    0.0000 C   0  0  0  0  0  0  0  0  0  0  0  0
    9.7869   -1.5208    0.0000 C   0  0  0  0  0  0  0  0  0  0  0  0
   10.2054    2.4228    0.0000 C   0  0  1  0  0  0  0  0  0  0  0  0
   11.5992    1.6181    0.0000 C   0  0  0  0  0  0  0  0  0  0  0  0
    8.7982   -1.6238    0.0000 C   0  0  0  0  0  0  0  0  0  0  0  0
    8.2641    0.4510    0.0000 C   0  0  0  0  0  0  0  0  0  0  0  0
   11.1941    2.5259    0.0000 C   0  0  0  0  0  0  0  0  0  0  0  0
   10.8622   -1.0490    0.0000 C   0  0  0  0  0  0  0  0  0  0  0  0
   11.8582    0.0402    0.0000 C   0  0  0  0  0  0  0  0  0  0  0  0
    9.9932   -2.4993    0.0000 C   0  0  0  0  0  0  0  0  0  0  0  0
    9.5375    3.1671    0.0000 C   0  0  0  0  0  0  0  0  0  0  0  0
    9.2489   -3.1671    0.0000 C   0  0  0  0  0  0  0  0  0  0  0  0
   10.9437   -2.8100    0.0000 C   0  0  0  0  0  0  0  0  0  0  0  0
    6.5320    0.4510    0.0000 C   0  0  2  0  0  0  0  0  0  0  0  0
    5.6660   -0.0490    0.0000 C   0  0  0  0  0  0  0  0  0  0  0  0
    4.8000    0.4510    0.0000 C   0  0  3  0  0  0  0  0  0  0  0  0
    5.6660    1.9510    0.0000 C   0  0  1  0  0  0  0  0  0  0  0  0
    4.8000    1.4510    0.0000 C   0  0  3  0  0  0  0  0  0  0  0  0
    5.6660    2.9510    0.0000 C   0  0  0  0  0  0  0  0  0  0  0  0
    3.0000    0.4302    0.0000 C   0  0  0  0  0  0  0  0  0  0  0  0
    3.0000    1.4718    0.0000 C   0  0  0  0  0  0  0  0  0  0  0  0
    2.0000    0.4264    0.0000 C   0  0  0  0  0  0  0  0  0  0  0  0
    2.5033   -0.4377    0.0000 C   0  0  0  0  0  0  0  0  0  0  0  0
   11.5983    0.5260    0.0000 H   0  0  0  0  0  0  0  0  0  0  0  0
    7.7833   -0.6040    0.0000 H   0  0  0  0  0  0  0  0  0  0  0  0
    9.2600    1.8760    0.0000 H   0  0  0  0  0  0  0  0  0  0  0  0
    9.6959    0.8927    0.0000 H   0  0  0  0  0  0  0  0  0  0  0  0
    8.9265    0.6848    0.0000 H   0  0  0  0  0  0  0  0  0  0  0  0
    8.9181    1.5336    0.0000 H   0  0  0  0  0  0  0  0  0  0  0  0
    8.5196    0.8434    0.0000 H   0  0  0  0  0  0  0  0  0  0  0  0
   10.4283    3.0014    0.0000 H   0  0  0  0  0  0  0  0  0  0  0  0
   11.9646    1.1172    0.0000 H   0  0  0  0  0  0  0  0  0  0  0  0
   12.1357    1.9289    0.0000 H   0  0  0  0  0  0  0  0  0  0  0  0
    8.4882   -2.1608    0.0000 H   0  0  0  0  0  0  0  0  0  0  0  0
    8.6626    0.9260    0.0000 H   0  0  0  0  0  0  0  0  0  0  0  0
    7.8656    0.9260    0.0000 H   0  0  0  0  0  0  0  0  0  0  0  0
   11.7837    2.7177    0.0000 H   0  0  0  0  0  0  0  0  0  0  0  0
   11.0654    3.1324    0.0000 H   0  0  0  0  0  0  0  0  0  0  0  0
   12.2149   -0.4669    0.0000 H   0  0  0  0  0  0  0  0  0  0  0  0
   10.1210   -3.1060    0.0000 H   0  0  0  0  0  0  0  0  0  0  0  0
    9.9990    3.5812    0.0000 H   0  0  0  0  0  0  0  0  0  0  0  0
    9.1234    3.6286    0.0000 H   0  0  0  0  0  0  0  0  0  0  0  0
    9.0760    2.7531    0.0000 H   0  0  0  0  0  0  0  0  0  0  0  0
    8.8348   -2.7057    0.0000 H   0  0  0  0  0  0  0  0  0  0  0  0
    8.7874   -3.5812    0.0000 H   0  0  0  0  0  0  0  0  0  0  0  0
    9.6629   -3.6286    0.0000 H   0  0  0  0  0  0  0  0  0  0  0  0
   10.7511   -3.3993    0.0000 H   0  0  0  0  0  0  0  0  0  0  0  0
   11.5330   -3.0026    0.0000 H   0  0  0  0  0  0  0  0  0  0  0  0
   11.1363   -2.2206    0.0000 H   0  0  0  0  0  0  0  0  0  0  0  0
   11.8148   -2.0963    0.0000 H   0  0  0  0  0  0  0  0  0  0  0  0
    6.5320   -0.1690    0.0000 H   0  0  0  0  0  0  0  0  0  0  0  0
    5.2675   -0.5239    0.0000 H   0  0  0  0  0  0  0  0  0  0  0  0
    6.0646   -0.5239    0.0000 H   0  0  0  0  0  0  0  0  0  0  0  0
    4.8048   -0.1690    0.0000 H   0  0  0  0  0  0  0  0  0  0  0  0
    6.2030    2.2610    0.0000 H   0  0  0  0  0  0  0  0  0  0  0  0
    4.8048    2.0710    0.0000 H   0  0  0  0  0  0  0  0  0  0  0  0
    6.2860    2.9510    0.0000 H   0  0  0  0  0  0  0  0  0  0  0  0
    5.6660    3.5710    0.0000 H   0  0  0  0  0  0  0  0  0  0  0  0
    5.0460    2.9510    0.0000 H   0  0  0  0  0  0  0  0  0  0  0  0
    2.7909    2.0555    0.0000 H   0  0  0  0  0  0  0  0  0  0  0  0
    2.3891    1.3658    0.0000 H   0  0  0  0  0  0  0  0  0  0  0  0
    1.9976    1.0463    0.0000 H   0  0  0  0  0  0  0  0  0  0  0  0
    1.3800    0.4240    0.0000 H   0  0  0  0  0  0  0  0  0  0  0  0
    2.0024   -0.1936    0.0000 H   0  0  0  0  0  0  0  0  0  0  0  0
    1.9652   -0.1298    0.0000 H   0  0  0  0  0  0  0  0  0  0  0  0
    2.1954   -0.9759    0.0000 H   0  0  0  0  0  0  0  0  0  0  0  0
    3.0415   -0.7457    0.0000 H   0  0  0  0  0  0  0  0  0  0  0  0
  1 20  1  0  0  0  0
 28  1  1  1  0  0  0
  2 22  1  0  0  0  0
  2 64  1  0  0  0  0
  3 22  2  0  0  0  0
  4 23  2  0  0  0  0
  5 28  1  0  0  0  0
  5 31  1  0  0  0  0
  6 30  1  0  0  0  0
  6 34  1  0  0  0  0
  7 32  1  0  0  0  0
  7 35  1  0  0  0  0
  8  9  1  0  0  0  0
  8 12  1  0  0  0  0
  8 15  1  0  0  0  0
  8 20  1  0  0  0  0
  9 10  1  0  0  0  0
  9 16  1  0  0  0  0
  9 22  1  0  0  0  0
 10 11  1  0  0  0  0
 10 14  1  0  0  0  0
 10 23  1  0  0  0  0
 11 13  1  0  0  0  0
 11 18  1  0  0  0  0
 11 38  1  6  0  0  0
 12 14  1  0  0  0  0
 12 19  1  0  0  0  0
 12 39  1  0  0  0  0
 13 15  1  0  0  0  0
 13 17  1  0  0  0  0
 13 40  1  1  0  0  0
 14 41  1  0  0  0  0
 14 42  1  0  0  0  0
 15 43  1  0  0  0  0
 15 44  1  0  0  0  0
 16 19  2  0  0  0  0
 16 24  1  0  0  0  0
 17 21  1  0  0  0  0
 17 25  1  6  0  0  0
 17 45  1  0  0  0  0
 18 21  1  0  0  0  0
 18 46  1  0  0  0  0
 18 47  1  0  0  0  0
 19 48  1  0  0  0  0
 20 49  1  0  0  0  0
 20 50  1  0  0  0  0
 21 51  1  0  0  0  0
 21 52  1  0  0  0  0
 23 53  1  0  0  0  0
 24 26  1  0  0  0  0
 24 27  1  0  0  0  0
 24 54  1  0  0  0  0
 25 55  1  0  0  0  0
 25 56  1  0  0  0  0
 25 57  1  0  0  0  0
 26 58  1  0  0  0  0
 26 59  1  0  0  0  0
 26 60  1  0  0  0  0
 27 61  1  0  0  0  0
 27 62  1  0  0  0  0
 27 63  1  0  0  0  0
 28 29  1  0  0  0  0
 28 65  1  0  0  0  0
 29 30  1  0  0  0  0
 29 66  1  0  0  0  0
 29 67  1  0  0  0  0
 30 32  1  0  0  0  0
 30 68  1  0  0  0  0
 31 32  1  0  0  0  0
 31 33  1  1  0  0  0
 31 69  1  0  0  0  0
 32 70  1  0  0  0  0
 33 71  1  0  0  0  0
 33 72  1  0  0  0  0
 33 73  1  0  0  0  0
 34 35  1  0  0  0  0
 34 36  1  0  0  0  0
 34 37  1  0  0  0  0
 35 74  1  0  0  0  0
 35 75  1  0  0  0  0
 36 76  1  0  0  0  0
 36 77  1  0  0  0  0
 36 78  1  0  0  0  0
 37 79  1  0  0  0  0
 37 80  1  0  0  0  0
 37 81  1  0  0  0  0
M  END
> <PUBCHEM_COMPOUND_CID>
509097
> <PUBCHEM_COMPOUND_CANONICALIZED>
1
> <PUBCHEM_CACTVS_COMPLEXITY>
1000
> <PUBCHEM_CACTVS_HBOND_ACCEPTOR>
7
> <PUBCHEM_CACTVS_HBOND_DONOR>
1
> <PUBCHEM_CACTVS_ROTATABLE_BOND>
6
> <PUBCHEM_CACTVS_SUBSKEYS>
AAADcfB4OAAAAAAAAAAAAAAAAAAAAYMEAAA0SIEABgAAAGCQAAAAGgAACAAAD1SwgAMCCAAABgCIAijSiAAAAAAgAAAACAEAAAgRABIAAQAiQAAFwAAOAAPL7PyPgAAAAAAAAACAAAQAACAAAQAACAAAAA==
> <PUBCHEM_IUPAC_OPENEYE_NAME>
(4R,5R,8R)-9-formyl-13-isopropyl-5-methyl-2-[[(5R,7R)-2,2,5-trimethyl-3,4a,5,7,8,8a-hexahydropyrano[3,4-b][1,4]dioxin-7-yl]oxymethyl]tetracyclo[7.4.0.02,11.04,8]tridec-12-ene-1-carboxylic acid
> <PUBCHEM_IUPAC_CAS_NAME>
(4R,5R,8R)-9-formyl-5-methyl-13-propan-2-yl-2-[[(5R,7R)-2,2,5-trimethyl-3,4a,5,7,8,8a-hexahydropyrano[3,4-b][1,4]dioxin-7-yl]oxymethyl]-1-tetracyclo[7.4.0.02,11.04,8]tridec-12-enecarboxylic acid
> <PUBCHEM_IUPAC_NAME_MARKUP>
(4<I>R</I>,5<I>R</I>,8<I>R</I>)-9-formyl-5-methyl-13-propan-2-yl-2-[[(5<I>R</I>,7<I>R</I>)-2,2,5-trimethyl-3,4<I>a</I>,5,7,8,8<I>a</I>-hexahydropyrano[3,4-b][1,4]dioxin-7-yl]oxymethyl]tetracyclo[7.4.0.0<SUP>2,11</SUP>.0<SUP>4,8</SUP>]tridec-12-ene-1-carboxylic acid
> <PUBCHEM_IUPAC_NAME>
(4R,5R,8R)-9-formyl-5-methyl-13-propan-2-yl-2-[[(5R,7R)-2,2,5-trimethyl-3,4a,5,7,8,8a-hexahydropyrano[3,4-b][1,4]dioxin-7-yl]oxymethyl]tetracyclo[7.4.0.02,11.04,8]tridec-12-ene-1-carboxylic acid
> <PUBCHEM_IUPAC_SYSTEMATIC_NAME>
(4R,5R,8R)-9-methanoyl-5-methyl-13-propan-2-yl-2-[[(5R,7R)-2,2,5-trimethyl-3,4a,5,7,8,8a-hexahydropyrano[3,4-b][1,4]dioxin-7-yl]oxymethyl]tetracyclo[7.4.0.02,11.04,8]tridec-12-ene-1-carboxylic acid
> <PUBCHEM_IUPAC_TRADITIONAL_NAME>
(4R,5R,8R)-9-formyl-13-isopropyl-5-methyl-2-[[(5R,7R)-2,2,5-trimethyl-3,4a,5,7,8,8a-hexahydropyrano[3,4-b][1,4]dioxin-7-yl]oxymethyl]tetracyclo[7.4.0.02,11.04,8]tridec-12-ene-1-carboxylic acid
> <PUBCHEM_IUPAC_INCHI>
InChI=1S/C30H44O7/c1-16(2)22-9-19-11-28(13-31)21-8-7-17(3)20(21)12-29(19,30(22,28)26(32)33)15-34-24-10-23-25(18(4)36-24)35-14-27(5,6)37-23/h9,13,16-21,23-25H,7-8,10-12,14-15H2,1-6H3,(H,32,33)/t17-,18-,19?,20-,21-,23?,24-,25?,28?,29?,30?/m1/s1
> <PUBCHEM_IUPAC_INCHIKEY>
HFYJCYZAYFIQJN-HAZQLRFVSA-N
> <PUBCHEM_XLOGP3_AA>
3.4
> <PUBCHEM_EXACT_MASS>
516.30870374
> <PUBCHEM_MOLECULAR_FORMULA>
C30H44O7
> <PUBCHEM_MOLECULAR_WEIGHT>
516.7
> <PUBCHEM_OPENEYE_CAN_SMILES>
CC1CCC2C1CC3(C4CC2(C3(C(=C4)C(C)C)C(=O)O)C=O)COC5CC6C(C(O5)C)OCC(O6)(C)C
> <PUBCHEM_OPENEYE_ISO_SMILES>
C[C@@H]1CC[C@@H]2[C@@H]1CC3(C4CC2(C3(C(=C4)C(C)C)C(=O)O)C=O)CO[C@H]5CC6C([C@H](O5)C)OCC(O6)(C)C
> <PUBCHEM_CACTVS_TPSA>
91.3
> <PUBCHEM_MONOISOTOPIC_WEIGHT>
516.30870374
> <PUBCHEM_TOTAL_CHARGE>
0
> <PUBCHEM_HEAVY_ATOM_COUNT>
37
> <PUBCHEM_ATOM_DEF_STEREO_COUNT>
5
> <PUBCHEM_ATOM_UDEF_STEREO_COUNT>
6
> <PUBCHEM_BOND_DEF_STEREO_COUNT>
0
> <PUBCHEM_BOND_UDEF_STEREO_COUNT>
0
> <PUBCHEM_ISOTOPIC_ATOM_COUNT>
0
> <PUBCHEM_COMPONENT_COUNT>
1
> <PUBCHEM_CACTVS_TAUTO_COUNT>
-1
> <PUBCHEM_COORDINATE_TYPE>
1
5
255
> <PUBCHEM_BONDANNOTATIONS>
28  1  5
10  14  3
11  38  6
12  14  3
13  40  5
17  25  6
30  29  3
31  33  5
32  7  3
8  20  3
9  22  3
$$$$
