509015
  -OEChem-10302200282D
 58 60  0     1  0  0  0  0  0999 V2000
    9.7942    4.2500    0.0000 Cl  0  0  0  0  0  0  0  0  0  0  0  0
    9.7942    6.2500    0.0000 Cl  0  0  0  0  0  0  0  0  0  0  0  0
    2.0000   -4.2500    0.0000 Cl  0  0  0  0  0  0  0  0  0  0  0  0
    2.0000   -6.2500    0.0000 Cl  0  0  0  0  0  0  0  0  0  0  0  0
    6.3301   -1.7500    0.0000 O   0  0  0  0  0  0  0  0  0  0  0  0
    3.7320   -0.2500    0.0000 O   0  0  0  0  0  0  0  0  0  0  0  0
    2.8660   -2.7500    0.0000 O   0  0  0  0  0  0  0  0  0  0  0  0
    6.3301    3.2500    0.0000 N   0  0  0  0  0  0  0  0  0  0  0  0
    5.4641   -0.2500    0.0000 N   0  0  0  0  0  0  0  0  0  0  0  0
    4.5981   -2.7500    0.0000 N   0  0  0  0  0  0  0  0  0  0  0  0
    6.3301    1.2500    0.0000 C   0  0  0  0  0  0  0  0  0  0  0  0
    5.4641    1.7500    0.0000 C   0  0  0  0  0  0  0  0  0  0  0  0
    7.1962    1.7500    0.0000 C   0  0  0  0  0  0  0  0  0  0  0  0
    5.4641    2.7500    0.0000 C   0  0  0  0  0  0  0  0  0  0  0  0
    7.1962    2.7500    0.0000 C   0  0  0  0  0  0  0  0  0  0  0  0
    6.3301    0.2500    0.0000 C   0  0  0  0  0  0  0  0  0  0  0  0
    6.3301    4.2500    0.0000 C   0  0  0  0  0  0  0  0  0  0  0  0
    7.1962    4.7500    0.0000 C   0  0  0  0  0  0  0  0  0  0  0  0
    5.4641   -1.2500    0.0000 C   0  0  0  0  0  0  0  0  0  0  0  0
    4.5981   -1.7500    0.0000 C   0  0  2  0  0  0  0  0  0  0  0  0
    8.0622    4.2500    0.0000 C   0  0  0  0  0  0  0  0  0  0  0  0
    7.1962    5.7500    0.0000 C   0  0  0  0  0  0  0  0  0  0  0  0
    3.7320   -1.2500    0.0000 C   0  0  0  0  0  0  0  0  0  0  0  0
    8.9282    4.7500    0.0000 C   0  0  0  0  0  0  0  0  0  0  0  0
    8.0622    6.2500    0.0000 C   0  0  0  0  0  0  0  0  0  0  0  0
    8.9282    5.7500    0.0000 C   0  0  0  0  0  0  0  0  0  0  0  0
    3.7320   -3.2500    0.0000 C   0  0  0  0  0  0  0  0  0  0  0  0
    3.7320   -4.2500    0.0000 C   0  0  0  0  0  0  0  0  0  0  0  0
    2.8660   -4.7500    0.0000 C   0  0  0  0  0  0  0  0  0  0  0  0
    4.5981   -4.7500    0.0000 C   0  0  0  0  0  0  0  0  0  0  0  0
    2.8660   -5.7500    0.0000 C   0  0  0  0  0  0  0  0  0  0  0  0
    4.5981   -5.7500    0.0000 C   0  0  0  0  0  0  0  0  0  0  0  0
    3.7320   -6.2500    0.0000 C   0  0  0  0  0  0  0  0  0  0  0  0
    6.8671    0.9400    0.0000 H   0  0  0  0  0  0  0  0  0  0  0  0
    4.8535    1.8577    0.0000 H   0  0  0  0  0  0  0  0  0  0  0  0
    5.2520    1.1674    0.0000 H   0  0  0  0  0  0  0  0  0  0  0  0
    7.4082    1.1674    0.0000 H   0  0  0  0  0  0  0  0  0  0  0  0
    7.8067    1.8577    0.0000 H   0  0  0  0  0  0  0  0  0  0  0  0
    5.2520    3.3326    0.0000 H   0  0  0  0  0  0  0  0  0  0  0  0
    4.8535    2.6423    0.0000 H   0  0  0  0  0  0  0  0  0  0  0  0
    7.8067    2.6423    0.0000 H   0  0  0  0  0  0  0  0  0  0  0  0
    7.4082    3.3326    0.0000 H   0  0  0  0  0  0  0  0  0  0  0  0
    6.5422   -0.3326    0.0000 H   0  0  0  0  0  0  0  0  0  0  0  0
    6.9407    0.3577    0.0000 H   0  0  0  0  0  0  0  0  0  0  0  0
    6.1181    4.8326    0.0000 H   0  0  0  0  0  0  0  0  0  0  0  0
    5.7196    4.1423    0.0000 H   0  0  0  0  0  0  0  0  0  0  0  0
    4.9272    0.0600    0.0000 H   0  0  0  0  0  0  0  0  0  0  0  0
    5.1350   -2.0600    0.0000 H   0  0  0  0  0  0  0  0  0  0  0  0
    8.0622    3.6300    0.0000 H   0  0  0  0  0  0  0  0  0  0  0  0
    6.6592    6.0600    0.0000 H   0  0  0  0  0  0  0  0  0  0  0  0
    3.1215   -1.1423    0.0000 H   0  0  0  0  0  0  0  0  0  0  0  0
    3.5200   -1.8326    0.0000 H   0  0  0  0  0  0  0  0  0  0  0  0
    5.1350   -3.0600    0.0000 H   0  0  0  0  0  0  0  0  0  0  0  0
    8.0622    6.8700    0.0000 H   0  0  0  0  0  0  0  0  0  0  0  0
    3.1951    0.0600    0.0000 H   0  0  0  0  0  0  0  0  0  0  0  0
    5.1350   -4.4400    0.0000 H   0  0  0  0  0  0  0  0  0  0  0  0
    5.1350   -6.0600    0.0000 H   0  0  0  0  0  0  0  0  0  0  0  0
    3.7320   -6.8700    0.0000 H   0  0  0  0  0  0  0  0  0  0  0  0
  1 24  1  0  0  0  0
  2 26  1  0  0  0  0
  3 29  1  0  0  0  0
  4 31  1  0  0  0  0
  5 19  2  0  0  0  0
  6 23  1  0  0  0  0
  6 55  1  0  0  0  0
  7 27  2  0  0  0  0
  8 14  1  0  0  0  0
  8 15  1  0  0  0  0
  8 17  1  0  0  0  0
  9 16  1  0  0  0  0
  9 19  1  0  0  0  0
  9 47  1  0  0  0  0
 20 10  1  1  0  0  0
 10 27  1  0  0  0  0
 10 53  1  0  0  0  0
 11 12  1  0  0  0  0
 11 13  1  0  0  0  0
 11 16  1  0  0  0  0
 11 34  1  0  0  0  0
 12 14  1  0  0  0  0
 12 35  1  0  0  0  0
 12 36  1  0  0  0  0
 13 15  1  0  0  0  0
 13 37  1  0  0  0  0
 13 38  1  0  0  0  0
 14 39  1  0  0  0  0
 14 40  1  0  0  0  0
 15 41  1  0  0  0  0
 15 42  1  0  0  0  0
 16 43  1  0  0  0  0
 16 44  1  0  0  0  0
 17 18  1  0  0  0  0
 17 45  1  0  0  0  0
 17 46  1  0  0  0  0
 18 21  2  0  0  0  0
 18 22  1  0  0  0  0
 19 20  1  0  0  0  0
 20 23  1  0  0  0  0
 20 48  1  0  0  0  0
 21 24  1  0  0  0  0
 21 49  1  0  0  0  0
 22 25  2  0  0  0  0
 22 50  1  0  0  0  0
 23 51  1  0  0  0  0
 23 52  1  0  0  0  0
 24 26  2  0  0  0  0
 25 26  1  0  0  0  0
 25 54  1  0  0  0  0
 27 28  1  0  0  0  0
 28 29  2  0  0  0  0
 28 30  1  0  0  0  0
 29 31  1  0  0  0  0
 30 32  2  0  0  0  0
 30 56  1  0  0  0  0
 31 33  2  0  0  0  0
 32 33  1  0  0  0  0
 32 57  1  0  0  0  0
 33 58  1  0  0  0  0
M  END
> <PUBCHEM_COMPOUND_CID>
509015
> <PUBCHEM_COMPOUND_CANONICALIZED>
1
> <PUBCHEM_CACTVS_COMPLEXITY>
650
> <PUBCHEM_CACTVS_HBOND_ACCEPTOR>
4
> <PUBCHEM_CACTVS_HBOND_DONOR>
3
> <PUBCHEM_CACTVS_ROTATABLE_BOND>
8
> <PUBCHEM_CACTVS_SUBSKEYS>
AAADceB7MAAHAAAAAAAAAAAAAAAAAAAAAAA8YIAAAAAAAAABQAAAHgIQCAAADSrhmCYwAIPAAgCIAiFSEACCAAAkBQAIisGIBsgKcDaBlzGUYQhitgCYjYcYiACOBAAAIAABAAQIAABAAAIACAAAAAAAAA==
> <PUBCHEM_IUPAC_OPENEYE_NAME>
2,3-dichloro-N-[(1S)-2-[[1-[(3,4-dichlorophenyl)methyl]-4-piperidyl]methylamino]-1-(hydroxymethyl)-2-oxo-ethyl]benzamide
> <PUBCHEM_IUPAC_CAS_NAME>
2,3-dichloro-N-[(2S)-1-[[1-[(3,4-dichlorophenyl)methyl]-4-piperidinyl]methylamino]-3-hydroxy-1-oxopropan-2-yl]benzamide
> <PUBCHEM_IUPAC_NAME_MARKUP>
2,3-dichloro-<I>N</I>-[(2<I>S</I>)-1-[[1-[(3,4-dichlorophenyl)methyl]piperidin-4-yl]methylamino]-3-hydroxy-1-oxopropan-2-yl]benzamide
> <PUBCHEM_IUPAC_NAME>
2,3-dichloro-N-[(2S)-1-[[1-[(3,4-dichlorophenyl)methyl]piperidin-4-yl]methylamino]-3-hydroxy-1-oxopropan-2-yl]benzamide
> <PUBCHEM_IUPAC_SYSTEMATIC_NAME>
2,3-bis(chloranyl)-N-[(2S)-1-[[1-[(3,4-dichlorophenyl)methyl]piperidin-4-yl]methylamino]-3-oxidanyl-1-oxidanylidene-propan-2-yl]benzamide
> <PUBCHEM_IUPAC_TRADITIONAL_NAME>
2,3-dichloro-N-[(1S)-2-[[1-(3,4-dichlorobenzyl)-4-piperidyl]methylamino]-2-keto-1-methylol-ethyl]benzamide
> <PUBCHEM_IUPAC_INCHI>
InChI=1S/C23H25Cl4N3O3/c24-17-5-4-15(10-19(17)26)12-30-8-6-14(7-9-30)11-28-23(33)20(13-31)29-22(32)16-2-1-3-18(25)21(16)27/h1-5,10,14,20,31H,6-9,11-13H2,(H,28,33)(H,29,32)/t20-/m0/s1
> <PUBCHEM_IUPAC_INCHIKEY>
GVMOCYPEBREULU-FQEVSTJZSA-N
> <PUBCHEM_XLOGP3_AA>
4.7
> <PUBCHEM_EXACT_MASS>
533.062052
> <PUBCHEM_MOLECULAR_FORMULA>
C23H25Cl4N3O3
> <PUBCHEM_MOLECULAR_WEIGHT>
533.3
> <PUBCHEM_OPENEYE_CAN_SMILES>
C1CN(CCC1CNC(=O)C(CO)NC(=O)C2=C(C(=CC=C2)Cl)Cl)CC3=CC(=C(C=C3)Cl)Cl
> <PUBCHEM_OPENEYE_ISO_SMILES>
C1CN(CCC1CNC(=O)[C@H](CO)NC(=O)C2=C(C(=CC=C2)Cl)Cl)CC3=CC(=C(C=C3)Cl)Cl
> <PUBCHEM_CACTVS_TPSA>
81.7
> <PUBCHEM_MONOISOTOPIC_WEIGHT>
531.065002
> <PUBCHEM_TOTAL_CHARGE>
0
> <PUBCHEM_HEAVY_ATOM_COUNT>
33
> <PUBCHEM_ATOM_DEF_STEREO_COUNT>
1
> <PUBCHEM_ATOM_UDEF_STEREO_COUNT>
0
> <PUBCHEM_BOND_DEF_STEREO_COUNT>
0
> <PUBCHEM_BOND_UDEF_STEREO_COUNT>
0
> <PUBCHEM_ISOTOPIC_ATOM_COUNT>
0
> <PUBCHEM_COMPONENT_COUNT>
1
> <PUBCHEM_CACTVS_TAUTO_COUNT>
-1
> <PUBCHEM_COORDINATE_TYPE>
1
5
255
> <PUBCHEM_BONDANNOTATIONS>
20  10  5
18  21  8
18  22  8
21  24  8
22  25  8
24  26  8
25  26  8
28  29  8
28  30  8
29  31  8
30  32  8
31  33  8
32  33  8
$$$$
