509052
  -OEChem-10302200282D
 74 78  0     1  0  0  0  0  0999 V2000
    4.5981    1.9330    0.0000 Cl  0  0  0  0  0  0  0  0  0  0  0  0
    3.7320    0.4330    0.0000 F   0  0  0  0  0  0  0  0  0  0  0  0
    6.3301    4.9330    0.0000 F   0  0  0  0  0  0  0  0  0  0  0  0
    2.0000   -2.5670    0.0000 F   0  0  0  0  0  0  0  0  0  0  0  0
    8.0622   -4.0670    0.0000 O   0  0  0  0  0  0  0  0  0  0  0  0
   11.9580   -3.9330    0.0000 O   0  0  0  0  0  0  0  0  0  0  0  0
   11.9580   -2.2010    0.0000 O   0  0  0  0  0  0  0  0  0  0  0  0
    8.9282    0.4330    0.0000 O   0  0  0  0  0  0  0  0  0  0  0  0
    8.0622    1.9330    0.0000 O   0  0  0  0  0  0  0  0  0  0  0  0
    8.0622   -2.0670    0.0000 N   0  0  3  0  0  0  0  0  0  0  0  0
   10.4580   -3.0670    0.0000 N   0  0  0  0  0  0  0  0  0  0  0  0
    6.3301   -1.0670    0.0000 N   0  0  0  0  0  0  0  0  0  0  0  0
    5.4641    0.4330    0.0000 N   0  0  0  0  0  0  0  0  0  0  0  0
    4.5981   -2.0670    0.0000 N   0  0  0  0  0  0  0  0  0  0  0  0
    8.9282   -2.5670    0.0000 C   0  0  3  0  0  0  0  0  0  0  0  0
    8.9282   -3.5670    0.0000 C   0  0  3  0  0  0  0  0  0  0  0  0
    9.8744   -2.2622    0.0000 C   0  0  0  0  0  0  0  0  0  0  0  0
    9.8744   -3.8717    0.0000 C   0  0  0  0  0  0  0  0  0  0  0  0
    7.1962   -2.5670    0.0000 C   0  0  0  0  0  0  0  0  0  0  0  0
    7.1962   -3.5670    0.0000 C   0  0  0  0  0  0  0  0  0  0  0  0
    8.0622   -1.0670    0.0000 C   0  0  0  0  0  0  0  0  0  0  0  0
   11.4580   -3.0670    0.0000 C   0  0  0  0  0  0  0  0  0  0  0  0
    7.1962   -0.5670    0.0000 C   0  0  0  0  0  0  0  0  0  0  0  0
    7.1962    0.4330    0.0000 C   0  0  0  0  0  0  0  0  0  0  0  0
    6.3301    0.9330    0.0000 C   0  0  2  0  0  0  0  0  0  0  0  0
   12.9580   -3.9330    0.0000 C   0  0  0  0  0  0  0  0  0  0  0  0
    5.4641   -0.5670    0.0000 C   0  0  0  0  0  0  0  0  0  0  0  0
    8.0622    0.9330    0.0000 C   0  0  0  0  0  0  0  0  0  0  0  0
    6.3301    1.9330    0.0000 C   0  0  0  0  0  0  0  0  0  0  0  0
   13.9580   -3.9330    0.0000 C   0  0  0  0  0  0  0  0  0  0  0  0
   12.9580   -4.9330    0.0000 C   0  0  0  0  0  0  0  0  0  0  0  0
   12.9580   -2.9330    0.0000 C   0  0  0  0  0  0  0  0  0  0  0  0
    4.5981   -1.0670    0.0000 C   0  0  0  0  0  0  0  0  0  0  0  0
    5.4641    2.4330    0.0000 C   0  0  0  0  0  0  0  0  0  0  0  0
    7.1962    2.4330    0.0000 C   0  0  0  0  0  0  0  0  0  0  0  0
    3.7320   -0.5670    0.0000 C   0  0  0  0  0  0  0  0  0  0  0  0
    5.4641    3.4330    0.0000 C   0  0  0  0  0  0  0  0  0  0  0  0
    7.1962    3.4330    0.0000 C   0  0  0  0  0  0  0  0  0  0  0  0
    6.3301    3.9330    0.0000 C   0  0  0  0  0  0  0  0  0  0  0  0
    9.7942    0.9330    0.0000 C   0  0  0  0  0  0  0  0  0  0  0  0
    2.8660   -1.0670    0.0000 C   0  0  0  0  0  0  0  0  0  0  0  0
    3.7320   -2.5670    0.0000 C   0  0  0  0  0  0  0  0  0  0  0  0
    2.8660   -2.0670    0.0000 C   0  0  0  0  0  0  0  0  0  0  0  0
    8.9938   -1.9505    0.0000 H   0  0  0  0  0  0  0  0  0  0  0  0
    8.9938   -4.1835    0.0000 H   0  0  0  0  0  0  0  0  0  0  0  0
   10.4118   -1.9530    0.0000 H   0  0  0  0  0  0  0  0  0  0  0  0
    9.6234   -1.6954    0.0000 H   0  0  0  0  0  0  0  0  0  0  0  0
    9.6234   -4.4386    0.0000 H   0  0  0  0  0  0  0  0  0  0  0  0
   10.4118   -4.1809    0.0000 H   0  0  0  0  0  0  0  0  0  0  0  0
    6.9841   -1.9844    0.0000 H   0  0  0  0  0  0  0  0  0  0  0  0
    6.5856   -2.6747    0.0000 H   0  0  0  0  0  0  0  0  0  0  0  0
    6.5856   -3.4593    0.0000 H   0  0  0  0  0  0  0  0  0  0  0  0
    6.9841   -4.1496    0.0000 H   0  0  0  0  0  0  0  0  0  0  0  0
    8.6728   -1.1746    0.0000 H   0  0  0  0  0  0  0  0  0  0  0  0
    8.2742   -0.4844    0.0000 H   0  0  0  0  0  0  0  0  0  0  0  0
    6.3301   -1.6870    0.0000 H   0  0  0  0  0  0  0  0  0  0  0  0
    6.8671    1.2430    0.0000 H   0  0  0  0  0  0  0  0  0  0  0  0
   13.9580   -4.5530    0.0000 H   0  0  0  0  0  0  0  0  0  0  0  0
   14.5780   -3.9330    0.0000 H   0  0  0  0  0  0  0  0  0  0  0  0
   13.9580   -3.3130    0.0000 H   0  0  0  0  0  0  0  0  0  0  0  0
   12.3380   -4.9330    0.0000 H   0  0  0  0  0  0  0  0  0  0  0  0
   12.9580   -5.5530    0.0000 H   0  0  0  0  0  0  0  0  0  0  0  0
   13.5780   -4.9330    0.0000 H   0  0  0  0  0  0  0  0  0  0  0  0
   13.5780   -2.9330    0.0000 H   0  0  0  0  0  0  0  0  0  0  0  0
   12.9580   -2.3130    0.0000 H   0  0  0  0  0  0  0  0  0  0  0  0
   12.3380   -2.9330    0.0000 H   0  0  0  0  0  0  0  0  0  0  0  0
    7.7331    2.1230    0.0000 H   0  0  0  0  0  0  0  0  0  0  0  0
    4.9272    3.7430    0.0000 H   0  0  0  0  0  0  0  0  0  0  0  0
    7.7331    3.7430    0.0000 H   0  0  0  0  0  0  0  0  0  0  0  0
   10.1042    0.3961    0.0000 H   0  0  0  0  0  0  0  0  0  0  0  0
   10.3312    1.2430    0.0000 H   0  0  0  0  0  0  0  0  0  0  0  0
    9.4842    1.4700    0.0000 H   0  0  0  0  0  0  0  0  0  0  0  0
    2.3291   -0.7570    0.0000 H   0  0  0  0  0  0  0  0  0  0  0  0
    3.7320   -3.1870    0.0000 H   0  0  0  0  0  0  0  0  0  0  0  0
  1 34  1  0  0  0  0
  2 36  1  0  0  0  0
  3 39  1  0  0  0  0
  4 43  1  0  0  0  0
  5 16  1  0  0  0  0
  5 20  1  0  0  0  0
  6 22  1  0  0  0  0
  6 26  1  0  0  0  0
  7 22  2  0  0  0  0
  8 28  1  0  0  0  0
  8 40  1  0  0  0  0
  9 28  2  0  0  0  0
 10 15  1  0  0  0  0
 10 19  1  0  0  0  0
 10 21  1  0  0  0  0
 11 17  1  0  0  0  0
 11 18  1  0  0  0  0
 11 22  1  0  0  0  0
 12 23  1  0  0  0  0
 12 27  1  0  0  0  0
 12 56  1  0  0  0  0
 13 25  1  0  0  0  0
 13 27  2  0  0  0  0
 14 33  1  0  0  0  0
 14 42  2  0  0  0  0
 15 16  1  0  0  0  0
 15 17  1  0  0  0  0
 15 44  1  0  0  0  0
 16 18  1  0  0  0  0
 16 45  1  0  0  0  0
 17 46  1  0  0  0  0
 17 47  1  0  0  0  0
 18 48  1  0  0  0  0
 18 49  1  0  0  0  0
 19 20  1  0  0  0  0
 19 50  1  0  0  0  0
 19 51  1  0  0  0  0
 20 52  1  0  0  0  0
 20 53  1  0  0  0  0
 21 23  1  0  0  0  0
 21 54  1  0  0  0  0
 21 55  1  0  0  0  0
 23 24  2  0  0  0  0
 24 25  1  0  0  0  0
 24 28  1  0  0  0  0
 25 29  1  1  0  0  0
 25 57  1  0  0  0  0
 26 30  1  0  0  0  0
 26 31  1  0  0  0  0
 26 32  1  0  0  0  0
 27 33  1  0  0  0  0
 29 34  2  0  0  0  0
 29 35  1  0  0  0  0
 30 58  1  0  0  0  0
 30 59  1  0  0  0  0
 30 60  1  0  0  0  0
 31 61  1  0  0  0  0
 31 62  1  0  0  0  0
 31 63  1  0  0  0  0
 32 64  1  0  0  0  0
 32 65  1  0  0  0  0
 32 66  1  0  0  0  0
 33 36  2  0  0  0  0
 34 37  1  0  0  0  0
 35 38  2  0  0  0  0
 35 67  1  0  0  0  0
 36 41  1  0  0  0  0
 37 39  2  0  0  0  0
 37 68  1  0  0  0  0
 38 39  1  0  0  0  0
 38 69  1  0  0  0  0
 40 70  1  0  0  0  0
 40 71  1  0  0  0  0
 40 72  1  0  0  0  0
 41 43  2  0  0  0  0
 41 73  1  0  0  0  0
 42 43  1  0  0  0  0
 42 74  1  0  0  0  0
M  END
> <PUBCHEM_COMPOUND_CID>
509052
> <PUBCHEM_COMPOUND_CANONICALIZED>
1
> <PUBCHEM_CACTVS_COMPLEXITY>
1120
> <PUBCHEM_CACTVS_HBOND_ACCEPTOR>
11
> <PUBCHEM_CACTVS_HBOND_DONOR>
1
> <PUBCHEM_CACTVS_ROTATABLE_BOND>
8
> <PUBCHEM_CACTVS_SUBSKEYS>
AAADceB7uYAEAAAAAAAAAAAAAAAAAWAAAAA8WIEAAAAAAFgBwAAAHwIQAAAADH7hni4/iJPIFACoAzb3fACCgCExBSAJ2CEoRtgKZPrB+5GfMAhmlgDY6UeYyKCOAAAAAAABAAAAAAAAAAIAAAAAAAAAAA==
> <PUBCHEM_IUPAC_OPENEYE_NAME>
tert-butyl 4-[[(4R)-4-(2-chloro-4-fluoro-phenyl)-2-(3,5-difluoro-2-pyridyl)-5-methoxycarbonyl-1,4-dihydropyrimidin-6-yl]methyl]-2,3,4a,5,7,7a-hexahydropyrrolo[3,4-b][1,4]oxazine-6-carboxylate
> <PUBCHEM_IUPAC_CAS_NAME>
4-[[(4R)-4-(2-chloro-4-fluorophenyl)-2-(3,5-difluoro-2-pyridinyl)-5-methoxycarbonyl-1,4-dihydropyrimidin-6-yl]methyl]-2,3,4a,5,7,7a-hexahydropyrrolo[3,4-b][1,4]oxazine-6-carboxylic acid tert-butyl ester
> <PUBCHEM_IUPAC_NAME_MARKUP>
<I>tert</I>-butyl 4-[[(4<I>R</I>)-4-(2-chloro-4-fluorophenyl)-2-(3,5-difluoropyridin-2-yl)-5-methoxycarbonyl-1,4-dihydropyrimidin-6-yl]methyl]-2,3,4<I>a</I>,5,7,7<I>a</I>-hexahydropyrrolo[3,4-b][1,4]oxazine-6-carboxylate
> <PUBCHEM_IUPAC_NAME>
tert-butyl 4-[[(4R)-4-(2-chloro-4-fluorophenyl)-2-(3,5-difluoropyridin-2-yl)-5-methoxycarbonyl-1,4-dihydropyrimidin-6-yl]methyl]-2,3,4a,5,7,7a-hexahydropyrrolo[3,4-b][1,4]oxazine-6-carboxylate
> <PUBCHEM_IUPAC_SYSTEMATIC_NAME>
tert-butyl 4-[[(4R)-2-[3,5-bis(fluoranyl)pyridin-2-yl]-4-(2-chloranyl-4-fluoranyl-phenyl)-5-methoxycarbonyl-1,4-dihydropyrimidin-6-yl]methyl]-2,3,4a,5,7,7a-hexahydropyrrolo[3,4-b][1,4]oxazine-6-carboxylate
> <PUBCHEM_IUPAC_TRADITIONAL_NAME>
4-[[(4R)-5-carbomethoxy-4-(2-chloro-4-fluoro-phenyl)-2-(3,5-difluoro-2-pyridyl)-1,4-dihydropyrimidin-6-yl]methyl]-2,3,4a,5,7,7a-hexahydropyrrolo[3,4-b][1,4]oxazine-6-carboxylic acid tert-butyl ester
> <PUBCHEM_IUPAC_INCHI>
InChI=1S/C29H31ClF3N5O5/c1-29(2,3)43-28(40)38-13-21-22(14-38)42-8-7-37(21)12-20-23(27(39)41-4)24(17-6-5-15(31)9-18(17)30)36-26(35-20)25-19(33)10-16(32)11-34-25/h5-6,9-11,21-22,24H,7-8,12-14H2,1-4H3,(H,35,36)/t21?,22?,24-/m0/s1
> <PUBCHEM_IUPAC_INCHIKEY>
JKDXYSDMDVQBHJ-IWAAJCSBSA-N
> <PUBCHEM_XLOGP3_AA>
3
> <PUBCHEM_EXACT_MASS>
621.1965813
> <PUBCHEM_MOLECULAR_FORMULA>
C29H31ClF3N5O5
> <PUBCHEM_MOLECULAR_WEIGHT>
622.0
> <PUBCHEM_OPENEYE_CAN_SMILES>
CC(C)(C)OC(=O)N1CC2C(C1)OCCN2CC3=C(C(N=C(N3)C4=C(C=C(C=N4)F)F)C5=C(C=C(C=C5)F)Cl)C(=O)OC
> <PUBCHEM_OPENEYE_ISO_SMILES>
CC(C)(C)OC(=O)N1CC2C(C1)OCCN2CC3=C([C@@H](N=C(N3)C4=C(C=C(C=N4)F)F)C5=C(C=C(C=C5)F)Cl)C(=O)OC
> <PUBCHEM_CACTVS_TPSA>
106
> <PUBCHEM_MONOISOTOPIC_WEIGHT>
621.1965813
> <PUBCHEM_TOTAL_CHARGE>
0
> <PUBCHEM_HEAVY_ATOM_COUNT>
43
> <PUBCHEM_ATOM_DEF_STEREO_COUNT>
1
> <PUBCHEM_ATOM_UDEF_STEREO_COUNT>
2
> <PUBCHEM_BOND_DEF_STEREO_COUNT>
0
> <PUBCHEM_BOND_UDEF_STEREO_COUNT>
0
> <PUBCHEM_ISOTOPIC_ATOM_COUNT>
0
> <PUBCHEM_COMPONENT_COUNT>
1
> <PUBCHEM_CACTVS_TAUTO_COUNT>
-1
> <PUBCHEM_COORDINATE_TYPE>
1
5
255
> <PUBCHEM_BONDANNOTATIONS>
14  33  8
14  42  8
15  17  3
16  18  3
25  29  5
29  34  8
29  35  8
33  36  8
34  37  8
35  38  8
36  41  8
37  39  8
38  39  8
41  43  8
42  43  8
$$$$
