509046
  -OEChem-10302200282D
 62 66  0     1  0  0  0  0  0999 V2000
    7.1962    3.5000    0.0000 Cl  0  0  0  0  0  0  0  0  0  0  0  0
    8.0622    2.0000    0.0000 F   0  0  0  0  0  0  0  0  0  0  0  0
    5.4641    6.5000    0.0000 F   0  0  0  0  0  0  0  0  0  0  0  0
    3.7320   -6.5000    0.0000 F   0  0  0  0  0  0  0  0  0  0  0  0
    9.7942   -1.0000    0.0000 F   0  0  0  0  0  0  0  0  0  0  0  0
    2.8660    2.0000    0.0000 O   0  0  0  0  0  0  0  0  0  0  0  0
    3.7320    3.5000    0.0000 O   0  0  0  0  0  0  0  0  0  0  0  0
    3.7320   -0.5000    0.0000 N   0  0  0  0  0  0  0  0  0  0  0  0
    3.7320   -2.5000    0.0000 N   0  0  0  0  0  0  0  0  0  0  0  0
    5.4641    0.5000    0.0000 N   0  0  0  0  0  0  0  0  0  0  0  0
    6.3301    2.0000    0.0000 N   0  0  0  0  0  0  0  0  0  0  0  0
    2.8660   -4.0000    0.0000 N   0  0  0  0  0  0  0  0  0  0  0  0
    4.5981   -4.0000    0.0000 N   0  0  0  0  0  0  0  0  0  0  0  0
    7.1962   -0.5000    0.0000 N   0  0  0  0  0  0  0  0  0  0  0  0
    2.8660   -1.0000    0.0000 C   0  0  0  0  0  0  0  0  0  0  0  0
    4.5981   -1.0000    0.0000 C   0  0  0  0  0  0  0  0  0  0  0  0
    2.8660   -2.0000    0.0000 C   0  0  0  0  0  0  0  0  0  0  0  0
    4.5981   -2.0000    0.0000 C   0  0  0  0  0  0  0  0  0  0  0  0
    3.7320    0.5000    0.0000 C   0  0  0  0  0  0  0  0  0  0  0  0
    4.5981    1.0000    0.0000 C   0  0  0  0  0  0  0  0  0  0  0  0
    4.5981    2.0000    0.0000 C   0  0  0  0  0  0  0  0  0  0  0  0
    5.4641    2.5000    0.0000 C   0  0  2  0  0  0  0  0  0  0  0  0
    3.7320   -3.5000    0.0000 C   0  0  0  0  0  0  0  0  0  0  0  0
    6.3301    1.0000    0.0000 C   0  0  0  0  0  0  0  0  0  0  0  0
    5.4641    3.5000    0.0000 C   0  0  0  0  0  0  0  0  0  0  0  0
    3.7320    2.5000    0.0000 C   0  0  0  0  0  0  0  0  0  0  0  0
    7.1962    0.5000    0.0000 C   0  0  0  0  0  0  0  0  0  0  0  0
    6.3301    4.0000    0.0000 C   0  0  0  0  0  0  0  0  0  0  0  0
    4.5981    4.0000    0.0000 C   0  0  0  0  0  0  0  0  0  0  0  0
    2.8660   -5.0000    0.0000 C   0  0  0  0  0  0  0  0  0  0  0  0
    4.5981   -5.0000    0.0000 C   0  0  0  0  0  0  0  0  0  0  0  0
    6.3301    5.0000    0.0000 C   0  0  0  0  0  0  0  0  0  0  0  0
    4.5981    5.0000    0.0000 C   0  0  0  0  0  0  0  0  0  0  0  0
    8.0622    1.0000    0.0000 C   0  0  0  0  0  0  0  0  0  0  0  0
    3.7320   -5.5000    0.0000 C   0  0  0  0  0  0  0  0  0  0  0  0
    5.4641    5.5000    0.0000 C   0  0  0  0  0  0  0  0  0  0  0  0
    8.9282    0.5000    0.0000 C   0  0  0  0  0  0  0  0  0  0  0  0
    2.0000    2.5000    0.0000 C   0  0  0  0  0  0  0  0  0  0  0  0
    8.0622   -1.0000    0.0000 C   0  0  0  0  0  0  0  0  0  0  0  0
    8.9282   -0.5000    0.0000 C   0  0  0  0  0  0  0  0  0  0  0  0
    2.6540   -0.4174    0.0000 H   0  0  0  0  0  0  0  0  0  0  0  0
    2.2554   -1.1077    0.0000 H   0  0  0  0  0  0  0  0  0  0  0  0
    5.2087   -1.1077    0.0000 H   0  0  0  0  0  0  0  0  0  0  0  0
    4.8101   -0.4174    0.0000 H   0  0  0  0  0  0  0  0  0  0  0  0
    2.2554   -1.8923    0.0000 H   0  0  0  0  0  0  0  0  0  0  0  0
    2.6540   -2.5826    0.0000 H   0  0  0  0  0  0  0  0  0  0  0  0
    4.8101   -2.5826    0.0000 H   0  0  0  0  0  0  0  0  0  0  0  0
    5.2087   -1.8923    0.0000 H   0  0  0  0  0  0  0  0  0  0  0  0
    3.5200    1.0826    0.0000 H   0  0  0  0  0  0  0  0  0  0  0  0
    3.1215    0.3923    0.0000 H   0  0  0  0  0  0  0  0  0  0  0  0
    6.0010    2.8100    0.0000 H   0  0  0  0  0  0  0  0  0  0  0  0
    5.4641   -0.1200    0.0000 H   0  0  0  0  0  0  0  0  0  0  0  0
    4.0611    3.6900    0.0000 H   0  0  0  0  0  0  0  0  0  0  0  0
    2.3291   -5.3100    0.0000 H   0  0  0  0  0  0  0  0  0  0  0  0
    5.1350   -5.3100    0.0000 H   0  0  0  0  0  0  0  0  0  0  0  0
    6.8671    5.3100    0.0000 H   0  0  0  0  0  0  0  0  0  0  0  0
    4.0611    5.3100    0.0000 H   0  0  0  0  0  0  0  0  0  0  0  0
    9.4651    0.8100    0.0000 H   0  0  0  0  0  0  0  0  0  0  0  0
    2.3100    3.0369    0.0000 H   0  0  0  0  0  0  0  0  0  0  0  0
    1.4631    2.8100    0.0000 H   0  0  0  0  0  0  0  0  0  0  0  0
    1.6900    1.9631    0.0000 H   0  0  0  0  0  0  0  0  0  0  0  0
    8.0622   -1.6200    0.0000 H   0  0  0  0  0  0  0  0  0  0  0  0
  1 28  1  0  0  0  0
  2 34  1  0  0  0  0
  3 36  1  0  0  0  0
  4 35  1  0  0  0  0
  5 40  1  0  0  0  0
  6 26  1  0  0  0  0
  6 38  1  0  0  0  0
  7 26  2  0  0  0  0
  8 15  1  0  0  0  0
  8 16  1  0  0  0  0
  8 19  1  0  0  0  0
  9 17  1  0  0  0  0
  9 18  1  0  0  0  0
  9 23  1  0  0  0  0
 10 20  1  0  0  0  0
 10 24  1  0  0  0  0
 10 52  1  0  0  0  0
 11 22  1  0  0  0  0
 11 24  2  0  0  0  0
 12 23  2  0  0  0  0
 12 30  1  0  0  0  0
 13 23  1  0  0  0  0
 13 31  2  0  0  0  0
 14 27  1  0  0  0  0
 14 39  2  0  0  0  0
 15 17  1  0  0  0  0
 15 41  1  0  0  0  0
 15 42  1  0  0  0  0
 16 18  1  0  0  0  0
 16 43  1  0  0  0  0
 16 44  1  0  0  0  0
 17 45  1  0  0  0  0
 17 46  1  0  0  0  0
 18 47  1  0  0  0  0
 18 48  1  0  0  0  0
 19 20  1  0  0  0  0
 19 49  1  0  0  0  0
 19 50  1  0  0  0  0
 20 21  2  0  0  0  0
 21 22  1  0  0  0  0
 21 26  1  0  0  0  0
 22 25  1  6  0  0  0
 22 51  1  0  0  0  0
 24 27  1  0  0  0  0
 25 28  2  0  0  0  0
 25 29  1  0  0  0  0
 27 34  2  0  0  0  0
 28 32  1  0  0  0  0
 29 33  2  0  0  0  0
 29 53  1  0  0  0  0
 30 35  2  0  0  0  0
 30 54  1  0  0  0  0
 31 35  1  0  0  0  0
 31 55  1  0  0  0  0
 32 36  2  0  0  0  0
 32 56  1  0  0  0  0
 33 36  1  0  0  0  0
 33 57  1  0  0  0  0
 34 37  1  0  0  0  0
 37 40  2  0  0  0  0
 37 58  1  0  0  0  0
 38 59  1  0  0  0  0
 38 60  1  0  0  0  0
 38 61  1  0  0  0  0
 39 40  1  0  0  0  0
 39 62  1  0  0  0  0
M  END
> <PUBCHEM_COMPOUND_CID>
509046
> <PUBCHEM_COMPOUND_CANONICALIZED>
1
> <PUBCHEM_CACTVS_COMPLEXITY>
961
> <PUBCHEM_CACTVS_HBOND_ACCEPTOR>
12
> <PUBCHEM_CACTVS_HBOND_DONOR>
1
> <PUBCHEM_CACTVS_ROTATABLE_BOND>
7
> <PUBCHEM_CACTVS_SUBSKEYS>
AAADceB7scAEAAAAAAAAAAAAAAAAAAAAAAA8WLECAAAAAAAB8AAAHwIQAAAADCrBni4/mJfIFACoAzb3bACCgCkxBaAJ2CEoRtiIbPrB+9GUNAhukALI6WeYyKCOAAAAAAABAAAAAAAAAAIAAAAAAAAAAA==
> <PUBCHEM_IUPAC_OPENEYE_NAME>
methyl (4R)-4-(2-chloro-4-fluoro-phenyl)-2-(3,5-difluoro-2-pyridyl)-6-[[4-(5-fluoropyrimidin-2-yl)piperazin-1-yl]methyl]-1,4-dihydropyrimidine-5-carboxylate
> <PUBCHEM_IUPAC_CAS_NAME>
(4R)-4-(2-chloro-4-fluorophenyl)-2-(3,5-difluoro-2-pyridinyl)-6-[[4-(5-fluoro-2-pyrimidinyl)-1-piperazinyl]methyl]-1,4-dihydropyrimidine-5-carboxylic acid methyl ester
> <PUBCHEM_IUPAC_NAME_MARKUP>
methyl (4<I>R</I>)-4-(2-chloro-4-fluorophenyl)-2-(3,5-difluoropyridin-2-yl)-6-[[4-(5-fluoropyrimidin-2-yl)piperazin-1-yl]methyl]-1,4-dihydropyrimidine-5-carboxylate
> <PUBCHEM_IUPAC_NAME>
methyl (4R)-4-(2-chloro-4-fluorophenyl)-2-(3,5-difluoropyridin-2-yl)-6-[[4-(5-fluoropyrimidin-2-yl)piperazin-1-yl]methyl]-1,4-dihydropyrimidine-5-carboxylate
> <PUBCHEM_IUPAC_SYSTEMATIC_NAME>
methyl (4R)-2-[3,5-bis(fluoranyl)pyridin-2-yl]-4-(2-chloranyl-4-fluoranyl-phenyl)-6-[[4-(5-fluoranylpyrimidin-2-yl)piperazin-1-yl]methyl]-1,4-dihydropyrimidine-5-carboxylate
> <PUBCHEM_IUPAC_TRADITIONAL_NAME>
(4R)-4-(2-chloro-4-fluoro-phenyl)-2-(3,5-difluoro-2-pyridyl)-6-[[4-(5-fluoropyrimidin-2-yl)piperazino]methyl]-1,4-dihydropyrimidine-5-carboxylic acid methyl ester
> <PUBCHEM_IUPAC_INCHI>
InChI=1S/C26H22ClF4N7O2/c1-40-25(39)21-20(13-37-4-6-38(7-5-37)26-33-11-16(30)12-34-26)35-24(23-19(31)9-15(29)10-32-23)36-22(21)17-3-2-14(28)8-18(17)27/h2-3,8-12,22H,4-7,13H2,1H3,(H,35,36)/t22-/m0/s1
> <PUBCHEM_IUPAC_INCHIKEY>
TYPAXIDRBWIKPF-QFIPXVFZSA-N
> <PUBCHEM_XLOGP3_AA>
2.9
> <PUBCHEM_EXACT_MASS>
575.1459633
> <PUBCHEM_MOLECULAR_FORMULA>
C26H22ClF4N7O2
> <PUBCHEM_MOLECULAR_WEIGHT>
575.9
> <PUBCHEM_OPENEYE_CAN_SMILES>
COC(=O)C1=C(NC(=NC1C2=C(C=C(C=C2)F)Cl)C3=C(C=C(C=N3)F)F)CN4CCN(CC4)C5=NC=C(C=N5)F
> <PUBCHEM_OPENEYE_ISO_SMILES>
COC(=O)C1=C(NC(=N[C@H]1C2=C(C=C(C=C2)F)Cl)C3=C(C=C(C=N3)F)F)CN4CCN(CC4)C5=NC=C(C=N5)F
> <PUBCHEM_CACTVS_TPSA>
95.8
> <PUBCHEM_MONOISOTOPIC_WEIGHT>
575.1459633
> <PUBCHEM_TOTAL_CHARGE>
0
> <PUBCHEM_HEAVY_ATOM_COUNT>
40
> <PUBCHEM_ATOM_DEF_STEREO_COUNT>
1
> <PUBCHEM_ATOM_UDEF_STEREO_COUNT>
0
> <PUBCHEM_BOND_DEF_STEREO_COUNT>
0
> <PUBCHEM_BOND_UDEF_STEREO_COUNT>
0
> <PUBCHEM_ISOTOPIC_ATOM_COUNT>
0
> <PUBCHEM_COMPONENT_COUNT>
1
> <PUBCHEM_CACTVS_TAUTO_COUNT>
-1
> <PUBCHEM_COORDINATE_TYPE>
1
5
255
> <PUBCHEM_BONDANNOTATIONS>
12  23  8
12  30  8
13  23  8
13  31  8
14  27  8
14  39  8
22  25  6
25  28  8
25  29  8
27  34  8
28  32  8
29  33  8
30  35  8
31  35  8
32  36  8
33  36  8
34  37  8
37  40  8
39  40  8
$$$$
