509039
  -OEChem-10302200282D
 97101  0     1  0  0  0  0  0999 V2000
    6.2859   -2.4419    0.0000 O   0  0  0  0  0  0  0  0  0  0  0  0
    9.5140   -0.4825    0.0000 O   0  0  0  0  0  0  0  0  0  0  0  0
    8.0460   -2.7207    0.0000 O   0  0  0  0  0  0  0  0  0  0  0  0
    7.3737   -4.7898    0.0000 O   0  0  0  0  0  0  0  0  0  0  0  0
    5.1981   -4.7898    0.0000 O   0  0  0  0  0  0  0  0  0  0  0  0
   11.1018    0.3266    0.0000 O   0  0  0  0  0  0  0  0  0  0  0  0
   10.0140   -3.0213    0.0000 O   0  0  0  0  0  0  0  0  0  0  0  0
   11.7741   -1.7425    0.0000 O   0  0  0  0  0  0  0  0  0  0  0  0
    4.3179   -1.7425    0.0000 O   0  0  0  0  0  0  0  0  0  0  0  0
    8.7750   -3.7717    0.0000 O   0  0  0  0  0  0  0  0  0  0  0  0
    3.7969   -3.7717    0.0000 O   0  0  0  0  0  0  0  0  0  0  0  0
    2.6237   -2.1026    0.0000 O   0  0  0  0  0  0  0  0  0  0  0  0
    6.7859   -3.9808    0.0000 C   0  0  1  0  0  0  0  0  0  0  0  0
    5.7859   -3.9808    0.0000 C   0  0  1  0  0  0  0  0  0  0  0  0
    9.2050   -1.4335    0.0000 C   0  0  1  0  0  0  0  0  0  0  0  0
    7.0949   -3.0297    0.0000 C   0  0  2  0  0  0  0  0  0  0  0  0
    5.4769   -3.0297    0.0000 C   0  0  1  0  0  0  0  0  0  0  0  0
   10.0140   -2.0213    0.0000 C   0  0  2  0  0  0  0  0  0  0  0  0
   10.8230   -1.4335    0.0000 C   0  0  1  0  0  0  0  0  0  0  0  0
   10.5140   -0.4825    0.0000 C   0  0  2  0  0  0  0  0  0  0  0  0
    8.2539   -1.7425    0.0000 C   0  0  0  0  0  0  0  0  0  0  0  0
    4.5258   -2.7207    0.0000 C   0  0  0  0  0  0  0  0  0  0  0  0
   10.6950    1.2401    0.0000 C   0  0  0  0  0  0  0  0  0  0  0  0
   11.2828    2.0491    0.0000 C   0  0  0  0  0  0  0  0  0  0  0  0
    8.3682   -4.6852    0.0000 C   0  0  0  0  0  0  0  0  0  0  0  0
    4.2036   -4.6852    0.0000 C   0  0  0  0  0  0  0  0  0  0  0  0
   10.8761    2.9627    0.0000 C   0  0  0  0  0  0  0  0  0  0  0  0
   11.4639    3.7717    0.0000 C   0  0  0  0  0  0  0  0  0  0  0  0
    8.9560   -5.4942    0.0000 C   0  0  0  0  0  0  0  0  0  0  0  0
    3.6158   -5.4942    0.0000 C   0  0  0  0  0  0  0  0  0  0  0  0
   11.0571    4.6852    0.0000 C   0  0  0  0  0  0  0  0  0  0  0  0
    3.3669   -1.4335    0.0000 C   0  0  0  0  0  0  0  0  0  0  0  0
   11.6449    5.4942    0.0000 C   0  0  0  0  0  0  0  0  0  0  0  0
    3.1590   -0.4554    0.0000 C   0  0  0  0  0  0  0  0  0  0  0  0
    9.9505   -5.3897    0.0000 C   0  0  0  0  0  0  0  0  0  0  0  0
    8.5493   -6.4078    0.0000 C   0  0  0  0  0  0  0  0  0  0  0  0
    4.0226   -6.4078    0.0000 C   0  0  0  0  0  0  0  0  0  0  0  0
    2.6213   -5.3897    0.0000 C   0  0  0  0  0  0  0  0  0  0  0  0
   11.2382    6.4078    0.0000 C   0  0  0  0  0  0  0  0  0  0  0  0
   10.5383   -6.1987    0.0000 C   0  0  0  0  0  0  0  0  0  0  0  0
    9.1371   -7.2168    0.0000 C   0  0  0  0  0  0  0  0  0  0  0  0
    3.4348   -7.2168    0.0000 C   0  0  0  0  0  0  0  0  0  0  0  0
    2.0335   -6.1987    0.0000 C   0  0  0  0  0  0  0  0  0  0  0  0
    2.2079   -0.1463    0.0000 C   0  0  0  0  0  0  0  0  0  0  0  0
    3.9021    0.2138    0.0000 C   0  0  0  0  0  0  0  0  0  0  0  0
   11.8260    7.2168    0.0000 C   0  0  0  0  0  0  0  0  0  0  0  0
   10.1316   -7.1123    0.0000 C   0  0  0  0  0  0  0  0  0  0  0  0
    2.4403   -7.1123    0.0000 C   0  0  0  0  0  0  0  0  0  0  0  0
    2.0000    0.8318    0.0000 C   0  0  0  0  0  0  0  0  0  0  0  0
    3.6942    1.1919    0.0000 C   0  0  0  0  0  0  0  0  0  0  0  0
    2.7431    1.5009    0.0000 C   0  0  0  0  0  0  0  0  0  0  0  0
    7.3983   -3.8838    0.0000 H   0  0  0  0  0  0  0  0  0  0  0  0
    5.1736   -3.8838    0.0000 H   0  0  0  0  0  0  0  0  0  0  0  0
    8.7666   -0.9951    0.0000 H   0  0  0  0  0  0  0  0  0  0  0  0
    7.1919   -2.4173    0.0000 H   0  0  0  0  0  0  0  0  0  0  0  0
    5.3799   -2.4173    0.0000 H   0  0  0  0  0  0  0  0  0  0  0  0
   10.5664   -2.3028    0.0000 H   0  0  0  0  0  0  0  0  0  0  0  0
   10.9200   -2.0459    0.0000 H   0  0  0  0  0  0  0  0  0  0  0  0
   10.2325    0.0700    0.0000 H   0  0  0  0  0  0  0  0  0  0  0  0
    8.1676   -1.1286    0.0000 H   0  0  0  0  0  0  0  0  0  0  0  0
    7.6343   -1.7209    0.0000 H   0  0  0  0  0  0  0  0  0  0  0  0
    3.9062   -2.7423    0.0000 H   0  0  0  0  0  0  0  0  0  0  0  0
    4.4396   -3.3346    0.0000 H   0  0  0  0  0  0  0  0  0  0  0  0
   10.5509   -3.3313    0.0000 H   0  0  0  0  0  0  0  0  0  0  0  0
   12.2348   -1.3277    0.0000 H   0  0  0  0  0  0  0  0  0  0  0  0
   10.2643    1.6861    0.0000 H   0  0  0  0  0  0  0  0  0  0  0  0
   10.1810    0.8934    0.0000 H   0  0  0  0  0  0  0  0  0  0  0  0
   11.7135    1.6031    0.0000 H   0  0  0  0  0  0  0  0  0  0  0  0
   11.7968    2.3958    0.0000 H   0  0  0  0  0  0  0  0  0  0  0  0
   10.4454    3.4087    0.0000 H   0  0  0  0  0  0  0  0  0  0  0  0
   10.3621    2.6160    0.0000 H   0  0  0  0  0  0  0  0  0  0  0  0
   11.8946    3.3257    0.0000 H   0  0  0  0  0  0  0  0  0  0  0  0
   11.9779    4.1184    0.0000 H   0  0  0  0  0  0  0  0  0  0  0  0
   10.6264    5.1312    0.0000 H   0  0  0  0  0  0  0  0  0  0  0  0
   10.5431    4.3385    0.0000 H   0  0  0  0  0  0  0  0  0  0  0  0
   12.0756    5.0483    0.0000 H   0  0  0  0  0  0  0  0  0  0  0  0
   12.1589    5.8410    0.0000 H   0  0  0  0  0  0  0  0  0  0  0  0
   10.2027   -4.8233    0.0000 H   0  0  0  0  0  0  0  0  0  0  0  0
    7.9327   -6.4726    0.0000 H   0  0  0  0  0  0  0  0  0  0  0  0
    4.6392   -6.4726    0.0000 H   0  0  0  0  0  0  0  0  0  0  0  0
    2.3691   -4.8233    0.0000 H   0  0  0  0  0  0  0  0  0  0  0  0
   10.8075    6.8538    0.0000 H   0  0  0  0  0  0  0  0  0  0  0  0
   10.7242    6.0611    0.0000 H   0  0  0  0  0  0  0  0  0  0  0  0
   11.1549   -6.1339    0.0000 H   0  0  0  0  0  0  0  0  0  0  0  0
    8.8849   -7.7832    0.0000 H   0  0  0  0  0  0  0  0  0  0  0  0
    3.6870   -7.7832    0.0000 H   0  0  0  0  0  0  0  0  0  0  0  0
    1.4169   -6.1339    0.0000 H   0  0  0  0  0  0  0  0  0  0  0  0
   12.3275    6.8524    0.0000 H   0  0  0  0  0  0  0  0  0  0  0  0
   12.1904    7.7184    0.0000 H   0  0  0  0  0  0  0  0  0  0  0  0
   11.3244    7.5812    0.0000 H   0  0  0  0  0  0  0  0  0  0  0  0
    1.7472   -0.5612    0.0000 H   0  0  0  0  0  0  0  0  0  0  0  0
    4.4918    0.0222    0.0000 H   0  0  0  0  0  0  0  0  0  0  0  0
   10.4960   -7.6139    0.0000 H   0  0  0  0  0  0  0  0  0  0  0  0
    2.0758   -7.6139    0.0000 H   0  0  0  0  0  0  0  0  0  0  0  0
    1.4103    1.0234    0.0000 H   0  0  0  0  0  0  0  0  0  0  0  0
    4.1550    1.6068    0.0000 H   0  0  0  0  0  0  0  0  0  0  0  0
    2.6142    2.1074    0.0000 H   0  0  0  0  0  0  0  0  0  0  0  0
  1 16  1  0  0  0  0
  1 17  1  0  0  0  0
  2 15  1  0  0  0  0
  2 20  1  0  0  0  0
 16  3  1  6  0  0  0
  3 21  1  0  0  0  0
 13  4  1  1  0  0  0
  4 25  1  0  0  0  0
 14  5  1  6  0  0  0
  5 26  1  0  0  0  0
 20  6  1  6  0  0  0
  6 23  1  0  0  0  0
 18  7  1  6  0  0  0
  7 64  1  0  0  0  0
 19  8  1  1  0  0  0
  8 65  1  0  0  0  0
  9 22  1  0  0  0  0
  9 32  1  0  0  0  0
 10 25  2  0  0  0  0
 11 26  2  0  0  0  0
 12 32  2  0  0  0  0
 13 14  1  0  0  0  0
 13 16  1  0  0  0  0
 13 52  1  0  0  0  0
 14 17  1  0  0  0  0
 14 53  1  0  0  0  0
 15 18  1  0  0  0  0
 15 21  1  1  0  0  0
 15 54  1  0  0  0  0
 16 55  1  0  0  0  0
 17 22  1  1  0  0  0
 17 56  1  0  0  0  0
 18 19  1  0  0  0  0
 18 57  1  0  0  0  0
 19 20  1  0  0  0  0
 19 58  1  0  0  0  0
 20 59  1  0  0  0  0
 21 60  1  0  0  0  0
 21 61  1  0  0  0  0
 22 62  1  0  0  0  0
 22 63  1  0  0  0  0
 23 24  1  0  0  0  0
 23 66  1  0  0  0  0
 23 67  1  0  0  0  0
 24 27  1  0  0  0  0
 24 68  1  0  0  0  0
 24 69  1  0  0  0  0
 25 29  1  0  0  0  0
 26 30  1  0  0  0  0
 27 28  1  0  0  0  0
 27 70  1  0  0  0  0
 27 71  1  0  0  0  0
 28 31  1  0  0  0  0
 28 72  1  0  0  0  0
 28 73  1  0  0  0  0
 29 35  2  0  0  0  0
 29 36  1  0  0  0  0
 30 37  2  0  0  0  0
 30 38  1  0  0  0  0
 31 33  1  0  0  0  0
 31 74  1  0  0  0  0
 31 75  1  0  0  0  0
 32 34  1  0  0  0  0
 33 39  1  0  0  0  0
 33 76  1  0  0  0  0
 33 77  1  0  0  0  0
 34 44  2  0  0  0  0
 34 45  1  0  0  0  0
 35 40  1  0  0  0  0
 35 78  1  0  0  0  0
 36 41  2  0  0  0  0
 36 79  1  0  0  0  0
 37 42  1  0  0  0  0
 37 80  1  0  0  0  0
 38 43  2  0  0  0  0
 38 81  1  0  0  0  0
 39 46  1  0  0  0  0
 39 82  1  0  0  0  0
 39 83  1  0  0  0  0
 40 47  2  0  0  0  0
 40 84  1  0  0  0  0
 41 47  1  0  0  0  0
 41 85  1  0  0  0  0
 42 48  2  0  0  0  0
 42 86  1  0  0  0  0
 43 48  1  0  0  0  0
 43 87  1  0  0  0  0
 44 49  1  0  0  0  0
 44 91  1  0  0  0  0
 45 50  2  0  0  0  0
 45 92  1  0  0  0  0
 46 88  1  0  0  0  0
 46 89  1  0  0  0  0
 46 90  1  0  0  0  0
 47 93  1  0  0  0  0
 48 94  1  0  0  0  0
 49 51  2  0  0  0  0
 49 95  1  0  0  0  0
 50 51  1  0  0  0  0
 50 96  1  0  0  0  0
 51 97  1  0  0  0  0
M  END
> <PUBCHEM_COMPOUND_CID>
509039
> <PUBCHEM_COMPOUND_CANONICALIZED>
1
> <PUBCHEM_CACTVS_COMPLEXITY>
1050
> <PUBCHEM_CACTVS_HBOND_ACCEPTOR>
12
> <PUBCHEM_CACTVS_HBOND_DONOR>
2
> <PUBCHEM_CACTVS_ROTATABLE_BOND>
21
> <PUBCHEM_CACTVS_SUBSKEYS>
AAADcfB8PAAAAAAAAAAAAAAAAAAAASJAAAAwYMAAAAAAAAABUAAAGgAACAAADBSwmAMyCIAABgCIAiDSCAACAAAkAAAIiAEACMgZNjKANRiicQAlwAEPqYfI6KiOAAAAAAAAAAAAAAAAAAAAAAAAAAAAAA==
> <PUBCHEM_IUPAC_OPENEYE_NAME>
[(2R,3R,4S,5S)-3,4-dibenzoyloxy-5-[[(2R,3S,4S,5S)-3,4-dihydroxy-5-octoxy-tetrahydrofuran-2-yl]methoxy]tetrahydrofuran-2-yl]methyl benzoate
> <PUBCHEM_IUPAC_CAS_NAME>
benzoic acid [(2R,3R,4S,5S)-3,4-dibenzoyloxy-5-[[(2R,3S,4S,5S)-3,4-dihydroxy-5-octoxy-2-oxolanyl]methoxy]-2-oxolanyl]methyl ester
> <PUBCHEM_IUPAC_NAME_MARKUP>
[(2<I>R</I>,3<I>R</I>,4<I>S</I>,5<I>S</I>)-3,4-dibenzoyloxy-5-[[(2<I>R</I>,3<I>S</I>,4<I>S</I>,5<I>S</I>)-3,4-dihydroxy-5-octoxyoxolan-2-yl]methoxy]oxolan-2-yl]methyl benzoate
> <PUBCHEM_IUPAC_NAME>
[(2R,3R,4S,5S)-3,4-dibenzoyloxy-5-[[(2R,3S,4S,5S)-3,4-dihydroxy-5-octoxyoxolan-2-yl]methoxy]oxolan-2-yl]methyl benzoate
> <PUBCHEM_IUPAC_SYSTEMATIC_NAME>
[(2R,3R,4S,5S)-5-[[(2R,3S,4S,5S)-5-octoxy-3,4-bis(oxidanyl)oxolan-2-yl]methoxy]-3,4-bis(phenylcarbonyloxy)oxolan-2-yl]methyl benzoate
> <PUBCHEM_IUPAC_TRADITIONAL_NAME>
benzoic acid [(2R,3R,4S,5S)-3,4-dibenzoyloxy-5-[[(2R,3S,4S,5S)-3,4-dihydroxy-5-octoxy-tetrahydrofuran-2-yl]methoxy]tetrahydrofuran-2-yl]methyl ester
> <PUBCHEM_IUPAC_INCHI>
InChI=1S/C39H46O12/c1-2-3-4-5-6-16-23-45-38-32(41)31(40)29(48-38)24-47-39-34(51-37(44)28-21-14-9-15-22-28)33(50-36(43)27-19-12-8-13-20-27)30(49-39)25-46-35(42)26-17-10-7-11-18-26/h7-15,17-22,29-34,38-41H,2-6,16,23-25H2,1H3/t29-,30-,31-,32+,33-,34+,38+,39+/m1/s1
> <PUBCHEM_IUPAC_INCHIKEY>
CUJANOUPVAECRB-SWIBVEPJSA-N
> <PUBCHEM_XLOGP3_AA>
6.6
> <PUBCHEM_EXACT_MASS>
706.29892690
> <PUBCHEM_MOLECULAR_FORMULA>
C39H46O12
> <PUBCHEM_MOLECULAR_WEIGHT>
706.8
> <PUBCHEM_OPENEYE_CAN_SMILES>
CCCCCCCCOC1C(C(C(O1)COC2C(C(C(O2)COC(=O)C3=CC=CC=C3)OC(=O)C4=CC=CC=C4)OC(=O)C5=CC=CC=C5)O)O
> <PUBCHEM_OPENEYE_ISO_SMILES>
CCCCCCCCO[C@@H]1[C@H]([C@@H]([C@H](O1)CO[C@@H]2[C@H]([C@@H]([C@H](O2)COC(=O)C3=CC=CC=C3)OC(=O)C4=CC=CC=C4)OC(=O)C5=CC=CC=C5)O)O
> <PUBCHEM_CACTVS_TPSA>
156
> <PUBCHEM_MONOISOTOPIC_WEIGHT>
706.29892690
> <PUBCHEM_TOTAL_CHARGE>
0
> <PUBCHEM_HEAVY_ATOM_COUNT>
51
> <PUBCHEM_ATOM_DEF_STEREO_COUNT>
8
> <PUBCHEM_ATOM_UDEF_STEREO_COUNT>
0
> <PUBCHEM_BOND_DEF_STEREO_COUNT>
0
> <PUBCHEM_BOND_UDEF_STEREO_COUNT>
0
> <PUBCHEM_ISOTOPIC_ATOM_COUNT>
0
> <PUBCHEM_COMPONENT_COUNT>
1
> <PUBCHEM_CACTVS_TAUTO_COUNT>
-1
> <PUBCHEM_COORDINATE_TYPE>
1
5
255
> <PUBCHEM_BONDANNOTATIONS>
15  21  5
17  22  5
29  35  8
29  36  8
16  3  6
30  37  8
30  38  8
34  44  8
34  45  8
35  40  8
36  41  8
37  42  8
38  43  8
13  4  5
40  47  8
41  47  8
42  48  8
43  48  8
44  49  8
45  50  8
49  51  8
14  5  6
50  51  8
20  6  6
18  7  6
19  8  5
$$$$
