509099
  -OEChem-10302200282D
 78 83  0     1  0  0  0  0  0999 V2000
    6.9369   -0.0490    0.0000 O   0  0  0  0  0  0  0  0  0  0  0  0
   10.7430   -1.9887    0.0000 O   0  0  0  0  0  0  0  0  0  0  0  0
   11.4010   -1.0491    0.0000 O   0  0  0  0  0  0  0  0  0  0  0  0
   11.8178    0.9474    0.0000 O   0  0  0  0  0  0  0  0  0  0  0  0
    6.0709    1.4510    0.0000 O   0  0  0  0  0  0  0  0  0  0  0  0
    3.3926    0.1463    0.0000 O   0  0  0  0  0  0  0  0  0  0  0  0
    3.3926    1.7558    0.0000 O   0  0  0  0  0  0  0  0  0  0  0  0
    8.6690   -0.0490    0.0000 C   0  0  3  0  0  0  0  0  0  0  0  0
    9.5350   -0.5490    0.0000 C   0  0  3  0  0  0  0  0  0  0  0  0
   10.4010   -0.0490    0.0000 C   0  0  3  0  0  0  0  0  0  0  0  0
   10.4010    0.9510    0.0000 C   0  0  1  0  0  0  0  0  0  0  0  0
    7.9320   -0.7161    0.0000 C   0  0  3  0  0  0  0  0  0  0  0  0
    9.5350    1.4510    0.0000 C   0  0  2  0  0  0  0  0  0  0  0  0
    8.9739    0.3302    0.0000 C   0  0  0  0  0  0  0  0  0  0  0  0
    8.6690    0.9510    0.0000 C   0  0  0  0  0  0  0  0  0  0  0  0
    9.3258   -1.5208    0.0000 C   0  0  0  0  0  0  0  0  0  0  0  0
    9.7442    2.4228    0.0000 C   0  0  1  0  0  0  0  0  0  0  0  0
   11.1380    1.6181    0.0000 C   0  0  0  0  0  0  0  0  0  0  0  0
    8.3371   -1.6238    0.0000 C   0  0  0  0  0  0  0  0  0  0  0  0
    7.8030    0.4510    0.0000 C   0  0  0  0  0  0  0  0  0  0  0  0
   10.7329    2.5259    0.0000 C   0  0  0  0  0  0  0  0  0  0  0  0
   10.4010   -1.0490    0.0000 C   0  0  0  0  0  0  0  0  0  0  0  0
   11.3970    0.0402    0.0000 C   0  0  0  0  0  0  0  0  0  0  0  0
    9.5320   -2.4993    0.0000 C   0  0  0  0  0  0  0  0  0  0  0  0
    9.0764    3.1671    0.0000 C   0  0  0  0  0  0  0  0  0  0  0  0
    8.7877   -3.1671    0.0000 C   0  0  0  0  0  0  0  0  0  0  0  0
   10.4825   -2.8100    0.0000 C   0  0  0  0  0  0  0  0  0  0  0  0
    6.0709    0.4510    0.0000 C   0  0  2  0  0  0  0  0  0  0  0  0
    5.2049   -0.0490    0.0000 C   0  0  0  0  0  0  0  0  0  0  0  0
    4.3388    0.4510    0.0000 C   0  0  3  0  0  0  0  0  0  0  0  0
    5.2049    1.9510    0.0000 C   0  0  1  0  0  0  0  0  0  0  0  0
    4.3388    1.4510    0.0000 C   0  0  3  0  0  0  0  0  0  0  0  0
    2.8090    0.9510    0.0000 C   0  0  0  0  0  0  0  0  0  0  0  0
    5.2049    2.9510    0.0000 C   0  0  0  0  0  0  0  0  0  0  0  0
    2.0000    1.5388    0.0000 C   0  0  0  0  0  0  0  0  0  0  0  0
    2.0000    0.3632    0.0000 C   0  0  0  0  0  0  0  0  0  0  0  0
   11.1371    0.5260    0.0000 H   0  0  0  0  0  0  0  0  0  0  0  0
    7.3222   -0.6040    0.0000 H   0  0  0  0  0  0  0  0  0  0  0  0
    8.7989    1.8760    0.0000 H   0  0  0  0  0  0  0  0  0  0  0  0
    9.2348    0.8927    0.0000 H   0  0  0  0  0  0  0  0  0  0  0  0
    8.4653    0.6848    0.0000 H   0  0  0  0  0  0  0  0  0  0  0  0
    8.4569    1.5336    0.0000 H   0  0  0  0  0  0  0  0  0  0  0  0
    8.0584    0.8434    0.0000 H   0  0  0  0  0  0  0  0  0  0  0  0
    9.9671    3.0014    0.0000 H   0  0  0  0  0  0  0  0  0  0  0  0
   11.5035    1.1172    0.0000 H   0  0  0  0  0  0  0  0  0  0  0  0
   11.6745    1.9289    0.0000 H   0  0  0  0  0  0  0  0  0  0  0  0
    8.0271   -2.1608    0.0000 H   0  0  0  0  0  0  0  0  0  0  0  0
    8.2015    0.9260    0.0000 H   0  0  0  0  0  0  0  0  0  0  0  0
    7.4044    0.9260    0.0000 H   0  0  0  0  0  0  0  0  0  0  0  0
   11.3225    2.7177    0.0000 H   0  0  0  0  0  0  0  0  0  0  0  0
   10.6042    3.1324    0.0000 H   0  0  0  0  0  0  0  0  0  0  0  0
   11.7537   -0.4669    0.0000 H   0  0  0  0  0  0  0  0  0  0  0  0
    9.6599   -3.1060    0.0000 H   0  0  0  0  0  0  0  0  0  0  0  0
    9.5378    3.5812    0.0000 H   0  0  0  0  0  0  0  0  0  0  0  0
    8.6623    3.6286    0.0000 H   0  0  0  0  0  0  0  0  0  0  0  0
    8.6149    2.7531    0.0000 H   0  0  0  0  0  0  0  0  0  0  0  0
    8.3736   -2.7057    0.0000 H   0  0  0  0  0  0  0  0  0  0  0  0
    8.3262   -3.5812    0.0000 H   0  0  0  0  0  0  0  0  0  0  0  0
    9.2018   -3.6286    0.0000 H   0  0  0  0  0  0  0  0  0  0  0  0
   10.2899   -3.3993    0.0000 H   0  0  0  0  0  0  0  0  0  0  0  0
   11.0719   -3.0026    0.0000 H   0  0  0  0  0  0  0  0  0  0  0  0
   10.6751   -2.2206    0.0000 H   0  0  0  0  0  0  0  0  0  0  0  0
   11.3536   -2.0963    0.0000 H   0  0  0  0  0  0  0  0  0  0  0  0
    6.0709   -0.1690    0.0000 H   0  0  0  0  0  0  0  0  0  0  0  0
    4.8063   -0.5239    0.0000 H   0  0  0  0  0  0  0  0  0  0  0  0
    5.6034   -0.5239    0.0000 H   0  0  0  0  0  0  0  0  0  0  0  0
    4.2732   -0.1655    0.0000 H   0  0  0  0  0  0  0  0  0  0  0  0
    4.2732    2.0675    0.0000 H   0  0  0  0  0  0  0  0  0  0  0  0
    5.7418    2.2610    0.0000 H   0  0  0  0  0  0  0  0  0  0  0  0
    5.8249    2.9510    0.0000 H   0  0  0  0  0  0  0  0  0  0  0  0
    5.2049    3.5710    0.0000 H   0  0  0  0  0  0  0  0  0  0  0  0
    4.5849    2.9510    0.0000 H   0  0  0  0  0  0  0  0  0  0  0  0
    2.3644    2.0404    0.0000 H   0  0  0  0  0  0  0  0  0  0  0  0
    1.4984    1.9032    0.0000 H   0  0  0  0  0  0  0  0  0  0  0  0
    1.6356    1.0372    0.0000 H   0  0  0  0  0  0  0  0  0  0  0  0
    1.6356    0.8648    0.0000 H   0  0  0  0  0  0  0  0  0  0  0  0
    1.4984   -0.0012    0.0000 H   0  0  0  0  0  0  0  0  0  0  0  0
    2.3644   -0.1384    0.0000 H   0  0  0  0  0  0  0  0  0  0  0  0
  1 20  1  0  0  0  0
 28  1  1  1  0  0  0
  2 22  1  0  0  0  0
  2 63  1  0  0  0  0
  3 22  2  0  0  0  0
  4 23  2  0  0  0  0
  5 28  1  0  0  0  0
  5 31  1  0  0  0  0
  6 30  1  0  0  0  0
  6 33  1  0  0  0  0
  7 32  1  0  0  0  0
  7 33  1  0  0  0  0
  8  9  1  0  0  0  0
  8 12  1  0  0  0  0
  8 15  1  0  0  0  0
  8 20  1  0  0  0  0
  9 10  1  0  0  0  0
  9 16  1  0  0  0  0
  9 22  1  0  0  0  0
 10 11  1  0  0  0  0
 10 14  1  0  0  0  0
 10 23  1  0  0  0  0
 11 13  1  0  0  0  0
 11 18  1  0  0  0  0
 11 37  1  6  0  0  0
 12 14  1  0  0  0  0
 12 19  1  0  0  0  0
 12 38  1  0  0  0  0
 13 15  1  0  0  0  0
 13 17  1  0  0  0  0
 13 39  1  1  0  0  0
 14 40  1  0  0  0  0
 14 41  1  0  0  0  0
 15 42  1  0  0  0  0
 15 43  1  0  0  0  0
 16 19  2  0  0  0  0
 16 24  1  0  0  0  0
 17 21  1  0  0  0  0
 17 25  1  6  0  0  0
 17 44  1  0  0  0  0
 18 21  1  0  0  0  0
 18 45  1  0  0  0  0
 18 46  1  0  0  0  0
 19 47  1  0  0  0  0
 20 48  1  0  0  0  0
 20 49  1  0  0  0  0
 21 50  1  0  0  0  0
 21 51  1  0  0  0  0
 23 52  1  0  0  0  0
 24 26  1  0  0  0  0
 24 27  1  0  0  0  0
 24 53  1  0  0  0  0
 25 54  1  0  0  0  0
 25 55  1  0  0  0  0
 25 56  1  0  0  0  0
 26 57  1  0  0  0  0
 26 58  1  0  0  0  0
 26 59  1  0  0  0  0
 27 60  1  0  0  0  0
 27 61  1  0  0  0  0
 27 62  1  0  0  0  0
 28 29  1  0  0  0  0
 28 64  1  0  0  0  0
 29 30  1  0  0  0  0
 29 65  1  0  0  0  0
 29 66  1  0  0  0  0
 30 32  1  0  0  0  0
 30 67  1  0  0  0  0
 31 32  1  0  0  0  0
 31 34  1  1  0  0  0
 31 69  1  0  0  0  0
 32 68  1  0  0  0  0
 33 35  1  0  0  0  0
 33 36  1  0  0  0  0
 34 70  1  0  0  0  0
 34 71  1  0  0  0  0
 34 72  1  0  0  0  0
 35 73  1  0  0  0  0
 35 74  1  0  0  0  0
 35 75  1  0  0  0  0
 36 76  1  0  0  0  0
 36 77  1  0  0  0  0
 36 78  1  0  0  0  0
M  END
> <PUBCHEM_COMPOUND_CID>
509099
> <PUBCHEM_COMPOUND_CANONICALIZED>
1
> <PUBCHEM_CACTVS_COMPLEXITY>
988
> <PUBCHEM_CACTVS_HBOND_ACCEPTOR>
7
> <PUBCHEM_CACTVS_HBOND_DONOR>
1
> <PUBCHEM_CACTVS_ROTATABLE_BOND>
6
> <PUBCHEM_CACTVS_SUBSKEYS>
AAADcfB4OAAAAAAAAAAAAAAAAAAAAaMECAA0QIAABgAAAGgAAAAAGgAACAAADxSwgAMCCAAABgCIAijSiAAAAAAgAAAACAEAAAgRABIAAQAiQAAFwAAOAAPL7PyPgAAAAAAAAACAAAQAACAAAQAACAAAAA==
> <PUBCHEM_IUPAC_OPENEYE_NAME>
(4R,5R,8R)-9-formyl-13-isopropyl-5-methyl-2-[[(4R,6R)-2,2,4-trimethyl-4,6,7,7a-tetrahydro-3aH-[1,3]dioxolo[4,5-c]pyran-6-yl]oxymethyl]tetracyclo[7.4.0.02,11.04,8]tridec-12-ene-1-carboxylic acid
> <PUBCHEM_IUPAC_CAS_NAME>
(4R,5R,8R)-9-formyl-5-methyl-13-propan-2-yl-2-[[(4R,6R)-2,2,4-trimethyl-4,6,7,7a-tetrahydro-3aH-[1,3]dioxolo[4,5-c]pyran-6-yl]oxymethyl]-1-tetracyclo[7.4.0.02,11.04,8]tridec-12-enecarboxylic acid
> <PUBCHEM_IUPAC_NAME_MARKUP>
(4<I>R</I>,5<I>R</I>,8<I>R</I>)-9-formyl-5-methyl-13-propan-2-yl-2-[[(4<I>R</I>,6<I>R</I>)-2,2,4-trimethyl-4,6,7,7<I>a</I>-tetrahydro-3<I>a</I><I>H</I>-[1,3]dioxolo[4,5-c]pyran-6-yl]oxymethyl]tetracyclo[7.4.0.0<SUP>2,11</SUP>.0<SUP>4,8</SUP>]tridec-12-ene-1-carboxylic acid
> <PUBCHEM_IUPAC_NAME>
(4R,5R,8R)-9-formyl-5-methyl-13-propan-2-yl-2-[[(4R,6R)-2,2,4-trimethyl-4,6,7,7a-tetrahydro-3aH-[1,3]dioxolo[4,5-c]pyran-6-yl]oxymethyl]tetracyclo[7.4.0.02,11.04,8]tridec-12-ene-1-carboxylic acid
> <PUBCHEM_IUPAC_SYSTEMATIC_NAME>
(4R,5R,8R)-9-methanoyl-5-methyl-13-propan-2-yl-2-[[(4R,6R)-2,2,4-trimethyl-4,6,7,7a-tetrahydro-3aH-[1,3]dioxolo[4,5-c]pyran-6-yl]oxymethyl]tetracyclo[7.4.0.02,11.04,8]tridec-12-ene-1-carboxylic acid
> <PUBCHEM_IUPAC_TRADITIONAL_NAME>
(4R,5R,8R)-9-formyl-13-isopropyl-5-methyl-2-[[(4R,6R)-2,2,4-trimethyl-4,6,7,7a-tetrahydro-3aH-[1,3]dioxolo[4,5-c]pyran-6-yl]oxymethyl]tetracyclo[7.4.0.02,11.04,8]tridec-12-ene-1-carboxylic acid
> <PUBCHEM_IUPAC_INCHI>
InChI=1S/C29H42O7/c1-15(2)21-9-18-11-27(13-30)20-8-7-16(3)19(20)12-28(18,29(21,27)25(31)32)14-33-23-10-22-24(17(4)34-23)36-26(5,6)35-22/h9,13,15-20,22-24H,7-8,10-12,14H2,1-6H3,(H,31,32)/t16-,17-,18?,19-,20-,22?,23-,24?,27?,28?,29?/m1/s1
> <PUBCHEM_IUPAC_INCHIKEY>
YIJXUKFDZCRZIC-LJUVGJRQSA-N
> <PUBCHEM_XLOGP3_AA>
3.5
> <PUBCHEM_EXACT_MASS>
502.29305367
> <PUBCHEM_MOLECULAR_FORMULA>
C29H42O7
> <PUBCHEM_MOLECULAR_WEIGHT>
502.6
> <PUBCHEM_OPENEYE_CAN_SMILES>
CC1CCC2C1CC3(C4CC2(C3(C(=C4)C(C)C)C(=O)O)C=O)COC5CC6C(C(O5)C)OC(O6)(C)C
> <PUBCHEM_OPENEYE_ISO_SMILES>
C[C@@H]1CC[C@@H]2[C@@H]1CC3(C4CC2(C3(C(=C4)C(C)C)C(=O)O)C=O)CO[C@H]5CC6C([C@H](O5)C)OC(O6)(C)C
> <PUBCHEM_CACTVS_TPSA>
91.3
> <PUBCHEM_MONOISOTOPIC_WEIGHT>
502.29305367
> <PUBCHEM_TOTAL_CHARGE>
0
> <PUBCHEM_HEAVY_ATOM_COUNT>
36
> <PUBCHEM_ATOM_DEF_STEREO_COUNT>
5
> <PUBCHEM_ATOM_UDEF_STEREO_COUNT>
6
> <PUBCHEM_BOND_DEF_STEREO_COUNT>
0
> <PUBCHEM_BOND_UDEF_STEREO_COUNT>
0
> <PUBCHEM_ISOTOPIC_ATOM_COUNT>
0
> <PUBCHEM_COMPONENT_COUNT>
1
> <PUBCHEM_CACTVS_TAUTO_COUNT>
-1
> <PUBCHEM_COORDINATE_TYPE>
1
5
255
> <PUBCHEM_BONDANNOTATIONS>
28  1  5
10  14  3
11  37  6
12  14  3
13  39  5
17  25  6
30  29  3
31  34  5
32  7  3
8  20  3
9  22  3
$$$$
