509005
  -OEChem-10302200282D
 68 71  0     1  0  0  0  0  0999 V2000
   14.1244   -1.1550    0.0000 Cl  0  0  0  0  0  0  0  0  0  0  0  0
   14.1244    0.8450    0.0000 Cl  0  0  0  0  0  0  0  0  0  0  0  0
    2.0000   -4.1550    0.0000 Cl  0  0  0  0  0  0  0  0  0  0  0  0
    3.7320   -5.1550    0.0000 Cl  0  0  0  0  0  0  0  0  0  0  0  0
    5.4641    1.8450    0.0000 O   0  0  0  0  0  0  0  0  0  0  0  0
    2.8660   -0.6550    0.0000 O   0  0  0  0  0  0  0  0  0  0  0  0
    3.7320    4.8450    0.0000 O   0  0  0  0  0  0  0  0  0  0  0  0
    9.7942   -0.6550    0.0000 N   0  0  0  0  0  0  0  0  0  0  0  0
    6.3301    0.3450    0.0000 N   0  0  0  0  0  0  0  0  0  0  0  0
    4.5981   -0.6550    0.0000 N   0  0  0  0  0  0  0  0  0  0  0  0
    8.0622    0.3450    0.0000 C   0  0  0  0  0  0  0  0  0  0  0  0
    8.9282    0.8450    0.0000 C   0  0  0  0  0  0  0  0  0  0  0  0
    8.0622   -0.6550    0.0000 C   0  0  0  0  0  0  0  0  0  0  0  0
    9.7942    0.3450    0.0000 C   0  0  0  0  0  0  0  0  0  0  0  0
    8.9282   -1.1550    0.0000 C   0  0  0  0  0  0  0  0  0  0  0  0
    7.1962    0.8450    0.0000 C   0  0  0  0  0  0  0  0  0  0  0  0
   10.6603   -1.1550    0.0000 C   0  0  0  0  0  0  0  0  0  0  0  0
   11.5263   -0.6550    0.0000 C   0  0  0  0  0  0  0  0  0  0  0  0
    5.4641    0.8450    0.0000 C   0  0  0  0  0  0  0  0  0  0  0  0
    4.5981    0.3450    0.0000 C   0  0  2  0  0  0  0  0  0  0  0  0
   12.3923   -1.1550    0.0000 C   0  0  0  0  0  0  0  0  0  0  0  0
   11.5263    0.3450    0.0000 C   0  0  0  0  0  0  0  0  0  0  0  0
    3.7320    0.8450    0.0000 C   0  0  0  0  0  0  0  0  0  0  0  0
    3.7320    1.8450    0.0000 C   0  0  0  0  0  0  0  0  0  0  0  0
   13.2583   -0.6550    0.0000 C   0  0  0  0  0  0  0  0  0  0  0  0
   12.3923    0.8450    0.0000 C   0  0  0  0  0  0  0  0  0  0  0  0
   13.2583    0.3450    0.0000 C   0  0  0  0  0  0  0  0  0  0  0  0
    3.7320   -1.1550    0.0000 C   0  0  0  0  0  0  0  0  0  0  0  0
    2.8660    2.3450    0.0000 C   0  0  0  0  0  0  0  0  0  0  0  0
    4.5981    2.3450    0.0000 C   0  0  0  0  0  0  0  0  0  0  0  0
    3.7320   -2.1550    0.0000 C   0  0  0  0  0  0  0  0  0  0  0  0
    2.8660    3.3450    0.0000 C   0  0  0  0  0  0  0  0  0  0  0  0
    4.5981    3.3450    0.0000 C   0  0  0  0  0  0  0  0  0  0  0  0
    3.7320    3.8450    0.0000 C   0  0  0  0  0  0  0  0  0  0  0  0
    2.8660   -2.6550    0.0000 C   0  0  0  0  0  0  0  0  0  0  0  0
    4.5981   -2.6550    0.0000 C   0  0  0  0  0  0  0  0  0  0  0  0
    2.8660   -3.6550    0.0000 C   0  0  0  0  0  0  0  0  0  0  0  0
    4.5981   -3.6550    0.0000 C   0  0  0  0  0  0  0  0  0  0  0  0
    3.7320   -4.1550    0.0000 C   0  0  0  0  0  0  0  0  0  0  0  0
    8.0622    0.9650    0.0000 H   0  0  0  0  0  0  0  0  0  0  0  0
    9.3267    1.3200    0.0000 H   0  0  0  0  0  0  0  0  0  0  0  0
    8.5297    1.3200    0.0000 H   0  0  0  0  0  0  0  0  0  0  0  0
    7.4516   -0.5473    0.0000 H   0  0  0  0  0  0  0  0  0  0  0  0
    7.8501   -1.2376    0.0000 H   0  0  0  0  0  0  0  0  0  0  0  0
   10.4048    0.2373    0.0000 H   0  0  0  0  0  0  0  0  0  0  0  0
   10.0063    0.9276    0.0000 H   0  0  0  0  0  0  0  0  0  0  0  0
    8.5297   -1.6300    0.0000 H   0  0  0  0  0  0  0  0  0  0  0  0
    9.3267   -1.6300    0.0000 H   0  0  0  0  0  0  0  0  0  0  0  0
    7.5947    1.3200    0.0000 H   0  0  0  0  0  0  0  0  0  0  0  0
    6.7976    1.3200    0.0000 H   0  0  0  0  0  0  0  0  0  0  0  0
   10.2617   -1.6300    0.0000 H   0  0  0  0  0  0  0  0  0  0  0  0
   11.0588   -1.6300    0.0000 H   0  0  0  0  0  0  0  0  0  0  0  0
    6.3301   -0.2750    0.0000 H   0  0  0  0  0  0  0  0  0  0  0  0
    5.1350    0.0350    0.0000 H   0  0  0  0  0  0  0  0  0  0  0  0
    3.1215    0.9527    0.0000 H   0  0  0  0  0  0  0  0  0  0  0  0
    3.5200    0.2624    0.0000 H   0  0  0  0  0  0  0  0  0  0  0  0
   12.3923   -1.7750    0.0000 H   0  0  0  0  0  0  0  0  0  0  0  0
   10.9893    0.6550    0.0000 H   0  0  0  0  0  0  0  0  0  0  0  0
    5.1350   -0.9650    0.0000 H   0  0  0  0  0  0  0  0  0  0  0  0
   12.3923    1.4650    0.0000 H   0  0  0  0  0  0  0  0  0  0  0  0
    2.3291    2.0350    0.0000 H   0  0  0  0  0  0  0  0  0  0  0  0
    5.1350    2.0350    0.0000 H   0  0  0  0  0  0  0  0  0  0  0  0
    2.3291    3.6550    0.0000 H   0  0  0  0  0  0  0  0  0  0  0  0
    5.1350    3.6550    0.0000 H   0  0  0  0  0  0  0  0  0  0  0  0
    2.3291   -2.3450    0.0000 H   0  0  0  0  0  0  0  0  0  0  0  0
    5.1350   -2.3450    0.0000 H   0  0  0  0  0  0  0  0  0  0  0  0
    5.1350   -3.9650    0.0000 H   0  0  0  0  0  0  0  0  0  0  0  0
    3.1951    5.1550    0.0000 H   0  0  0  0  0  0  0  0  0  0  0  0
  1 25  1  0  0  0  0
  2 27  1  0  0  0  0
  3 37  1  0  0  0  0
  4 39  1  0  0  0  0
  5 19  2  0  0  0  0
  6 28  2  0  0  0  0
  7 34  1  0  0  0  0
  7 68  1  0  0  0  0
  8 14  1  0  0  0  0
  8 15  1  0  0  0  0
  8 17  1  0  0  0  0
  9 16  1  0  0  0  0
  9 19  1  0  0  0  0
  9 53  1  0  0  0  0
 20 10  1  1  0  0  0
 10 28  1  0  0  0  0
 10 59  1  0  0  0  0
 11 12  1  0  0  0  0
 11 13  1  0  0  0  0
 11 16  1  0  0  0  0
 11 40  1  0  0  0  0
 12 14  1  0  0  0  0
 12 41  1  0  0  0  0
 12 42  1  0  0  0  0
 13 15  1  0  0  0  0
 13 43  1  0  0  0  0
 13 44  1  0  0  0  0
 14 45  1  0  0  0  0
 14 46  1  0  0  0  0
 15 47  1  0  0  0  0
 15 48  1  0  0  0  0
 16 49  1  0  0  0  0
 16 50  1  0  0  0  0
 17 18  1  0  0  0  0
 17 51  1  0  0  0  0
 17 52  1  0  0  0  0
 18 21  2  0  0  0  0
 18 22  1  0  0  0  0
 19 20  1  0  0  0  0
 20 23  1  0  0  0  0
 20 54  1  0  0  0  0
 21 25  1  0  0  0  0
 21 57  1  0  0  0  0
 22 26  2  0  0  0  0
 22 58  1  0  0  0  0
 23 24  1  0  0  0  0
 23 55  1  0  0  0  0
 23 56  1  0  0  0  0
 24 29  2  0  0  0  0
 24 30  1  0  0  0  0
 25 27  2  0  0  0  0
 26 27  1  0  0  0  0
 26 60  1  0  0  0  0
 28 31  1  0  0  0  0
 29 32  1  0  0  0  0
 29 61  1  0  0  0  0
 30 33  2  0  0  0  0
 30 62  1  0  0  0  0
 31 35  2  0  0  0  0
 31 36  1  0  0  0  0
 32 34  2  0  0  0  0
 32 63  1  0  0  0  0
 33 34  1  0  0  0  0
 33 64  1  0  0  0  0
 35 37  1  0  0  0  0
 35 65  1  0  0  0  0
 36 38  2  0  0  0  0
 36 66  1  0  0  0  0
 37 39  2  0  0  0  0
 38 39  1  0  0  0  0
 38 67  1  0  0  0  0
M  END
> <PUBCHEM_COMPOUND_CID>
509005
> <PUBCHEM_COMPOUND_CANONICALIZED>
1
> <PUBCHEM_CACTVS_COMPLEXITY>
792
> <PUBCHEM_CACTVS_HBOND_ACCEPTOR>
4
> <PUBCHEM_CACTVS_HBOND_DONOR>
3
> <PUBCHEM_CACTVS_ROTATABLE_BOND>
9
> <PUBCHEM_CACTVS_SUBSKEYS>
AAADceB7MAAHAAAAAAAAAAAAAAAAAAAAAAA8YMEAAAAAAAABUAAAHgIQCAAADS7BmCQwBoPAAgCIAiFSEACCAAAkJQAIisGODsgIZjKDlzOUcQhk1hGImYeYyKCOJAAAIAAAAARIAABAAAAACAAAAAAAAA==
> <PUBCHEM_IUPAC_OPENEYE_NAME>
3,4-dichloro-N-[(1S)-2-[[1-[(3,4-dichlorophenyl)methyl]-4-piperidyl]methylamino]-1-[(4-hydroxyphenyl)methyl]-2-oxo-ethyl]benzamide
> <PUBCHEM_IUPAC_CAS_NAME>
3,4-dichloro-N-[(2S)-1-[[1-[(3,4-dichlorophenyl)methyl]-4-piperidinyl]methylamino]-3-(4-hydroxyphenyl)-1-oxopropan-2-yl]benzamide
> <PUBCHEM_IUPAC_NAME_MARKUP>
3,4-dichloro-<I>N</I>-[(2<I>S</I>)-1-[[1-[(3,4-dichlorophenyl)methyl]piperidin-4-yl]methylamino]-3-(4-hydroxyphenyl)-1-oxopropan-2-yl]benzamide
> <PUBCHEM_IUPAC_NAME>
3,4-dichloro-N-[(2S)-1-[[1-[(3,4-dichlorophenyl)methyl]piperidin-4-yl]methylamino]-3-(4-hydroxyphenyl)-1-oxopropan-2-yl]benzamide
> <PUBCHEM_IUPAC_SYSTEMATIC_NAME>
3,4-bis(chloranyl)-N-[(2S)-1-[[1-[(3,4-dichlorophenyl)methyl]piperidin-4-yl]methylamino]-3-(4-hydroxyphenyl)-1-oxidanylidene-propan-2-yl]benzamide
> <PUBCHEM_IUPAC_TRADITIONAL_NAME>
3,4-dichloro-N-[(1S)-2-[[1-(3,4-dichlorobenzyl)-4-piperidyl]methylamino]-1-(4-hydroxybenzyl)-2-keto-ethyl]benzamide
> <PUBCHEM_IUPAC_INCHI>
InChI=1S/C29H29Cl4N3O3/c30-23-7-3-20(13-25(23)32)17-36-11-9-19(10-12-36)16-34-29(39)27(14-18-1-5-22(37)6-2-18)35-28(38)21-4-8-24(31)26(33)15-21/h1-8,13,15,19,27,37H,9-12,14,16-17H2,(H,34,39)(H,35,38)/t27-/m0/s1
> <PUBCHEM_IUPAC_INCHIKEY>
DEQMYPRZFMXQAZ-MHZLTWQESA-N
> <PUBCHEM_XLOGP3_AA>
7
> <PUBCHEM_EXACT_MASS>
609.093352
> <PUBCHEM_MOLECULAR_FORMULA>
C29H29Cl4N3O3
> <PUBCHEM_MOLECULAR_WEIGHT>
609.4
> <PUBCHEM_OPENEYE_CAN_SMILES>
C1CN(CCC1CNC(=O)C(CC2=CC=C(C=C2)O)NC(=O)C3=CC(=C(C=C3)Cl)Cl)CC4=CC(=C(C=C4)Cl)Cl
> <PUBCHEM_OPENEYE_ISO_SMILES>
C1CN(CCC1CNC(=O)[C@H](CC2=CC=C(C=C2)O)NC(=O)C3=CC(=C(C=C3)Cl)Cl)CC4=CC(=C(C=C4)Cl)Cl
> <PUBCHEM_CACTVS_TPSA>
81.7
> <PUBCHEM_MONOISOTOPIC_WEIGHT>
607.096303
> <PUBCHEM_TOTAL_CHARGE>
0
> <PUBCHEM_HEAVY_ATOM_COUNT>
39
> <PUBCHEM_ATOM_DEF_STEREO_COUNT>
1
> <PUBCHEM_ATOM_UDEF_STEREO_COUNT>
0
> <PUBCHEM_BOND_DEF_STEREO_COUNT>
0
> <PUBCHEM_BOND_UDEF_STEREO_COUNT>
0
> <PUBCHEM_ISOTOPIC_ATOM_COUNT>
0
> <PUBCHEM_COMPONENT_COUNT>
1
> <PUBCHEM_CACTVS_TAUTO_COUNT>
-1
> <PUBCHEM_COORDINATE_TYPE>
1
5
255
> <PUBCHEM_BONDANNOTATIONS>
20  10  5
18  21  8
18  22  8
21  25  8
22  26  8
24  29  8
24  30  8
25  27  8
26  27  8
29  32  8
30  33  8
31  35  8
31  36  8
32  34  8
33  34  8
35  37  8
36  38  8
37  39  8
38  39  8
$$$$
