509036
  -OEChem-10302200282D
 52 55  0     1  0  0  0  0  0999 V2000
    9.1996   -0.1307    0.0000 O   0  0  0  0  0  0  0  0  0  0  0  0
   11.7976    2.3693    0.0000 O   0  0  0  0  0  0  0  0  0  0  0  0
   15.9255    0.3693    0.0000 O   0  0  0  0  0  0  0  0  0  0  0  0
    6.3848   -0.3331    0.0000 N   0  0  3  0  0  0  0  0  0  0  0  0
    8.3335    1.3693    0.0000 N   0  0  0  0  0  0  0  0  0  0  0  0
   10.9316    0.8693    0.0000 N   0  0  0  0  0  0  0  0  0  0  0  0
   15.3419    1.1740    0.0000 N   0  0  0  0  0  0  0  0  0  0  0  0
   15.3419   -0.4354    0.0000 N   0  0  0  0  0  0  0  0  0  0  0  0
    7.4675    0.8693    0.0000 C   0  0  2  0  0  0  0  0  0  0  0  0
    6.5540    1.2760    0.0000 C   0  0  0  0  0  0  0  0  0  0  0  0
    7.3630   -0.1252    0.0000 C   0  0  0  0  0  0  0  0  0  0  0  0
    5.8848    0.5329    0.0000 C   0  0  0  0  0  0  0  0  0  0  0  0
    5.9781   -1.2467    0.0000 C   0  0  0  0  0  0  0  0  0  0  0  0
    4.9836   -1.3512    0.0000 C   0  0  0  0  0  0  0  0  0  0  0  0
    9.1996    0.8693    0.0000 C   0  0  0  0  0  0  0  0  0  0  0  0
    4.5768   -2.2648    0.0000 C   0  0  0  0  0  0  0  0  0  0  0  0
    4.3958   -0.5422    0.0000 C   0  0  0  0  0  0  0  0  0  0  0  0
   10.0656    1.3693    0.0000 C   0  0  0  0  0  0  0  0  0  0  0  0
    3.5823   -2.3693    0.0000 C   0  0  0  0  0  0  0  0  0  0  0  0
    3.4013   -0.6467    0.0000 C   0  0  0  0  0  0  0  0  0  0  0  0
    2.9945   -1.5603    0.0000 C   0  0  0  0  0  0  0  0  0  0  0  0
    2.0000   -1.6648    0.0000 C   0  0  0  0  0  0  0  0  0  0  0  0
   11.7976    1.3693    0.0000 C   0  0  0  0  0  0  0  0  0  0  0  0
   12.6637    0.8693    0.0000 C   0  0  0  0  0  0  0  0  0  0  0  0
   13.5297    1.3693    0.0000 C   0  0  0  0  0  0  0  0  0  0  0  0
   12.6637   -0.1307    0.0000 C   0  0  0  0  0  0  0  0  0  0  0  0
   14.3957    0.8693    0.0000 C   0  0  0  0  0  0  0  0  0  0  0  0
   14.3957   -0.1307    0.0000 C   0  0  0  0  0  0  0  0  0  0  0  0
   13.5297   -0.6307    0.0000 C   0  0  0  0  0  0  0  0  0  0  0  0
    7.4350    1.4884    0.0000 H   0  0  0  0  0  0  0  0  0  0  0  0
    6.8640    1.8130    0.0000 H   0  0  0  0  0  0  0  0  0  0  0  0
    6.0524    1.6404    0.0000 H   0  0  0  0  0  0  0  0  0  0  0  0
    7.4278   -0.7418    0.0000 H   0  0  0  0  0  0  0  0  0  0  0  0
    7.9830   -0.1252    0.0000 H   0  0  0  0  0  0  0  0  0  0  0  0
    5.4700    0.9936    0.0000 H   0  0  0  0  0  0  0  0  0  0  0  0
    5.3832    0.1685    0.0000 H   0  0  0  0  0  0  0  0  0  0  0  0
    5.9348   -1.8652    0.0000 H   0  0  0  0  0  0  0  0  0  0  0  0
    6.5797   -1.3967    0.0000 H   0  0  0  0  0  0  0  0  0  0  0  0
    8.3335    1.9893    0.0000 H   0  0  0  0  0  0  0  0  0  0  0  0
    4.9413   -2.7664    0.0000 H   0  0  0  0  0  0  0  0  0  0  0  0
    4.6480    0.0242    0.0000 H   0  0  0  0  0  0  0  0  0  0  0  0
   10.4641    1.8442    0.0000 H   0  0  0  0  0  0  0  0  0  0  0  0
    9.6670    1.8442    0.0000 H   0  0  0  0  0  0  0  0  0  0  0  0
    3.3301   -2.9357    0.0000 H   0  0  0  0  0  0  0  0  0  0  0  0
    3.0368   -0.1451    0.0000 H   0  0  0  0  0  0  0  0  0  0  0  0
   10.9316    0.2493    0.0000 H   0  0  0  0  0  0  0  0  0  0  0  0
    1.9352   -1.0482    0.0000 H   0  0  0  0  0  0  0  0  0  0  0  0
    1.3834   -1.7296    0.0000 H   0  0  0  0  0  0  0  0  0  0  0  0
    2.0648   -2.2814    0.0000 H   0  0  0  0  0  0  0  0  0  0  0  0
   13.5297    1.9893    0.0000 H   0  0  0  0  0  0  0  0  0  0  0  0
   12.1267   -0.4407    0.0000 H   0  0  0  0  0  0  0  0  0  0  0  0
   13.5297   -1.2507    0.0000 H   0  0  0  0  0  0  0  0  0  0  0  0
  1 15  2  0  0  0  0
  2 23  2  0  0  0  0
  3  7  1  0  0  0  0
  3  8  1  0  0  0  0
  4 11  1  0  0  0  0
  4 12  1  0  0  0  0
  4 13  1  0  0  0  0
  9  5  1  1  0  0  0
  5 15  1  0  0  0  0
  5 39  1  0  0  0  0
  6 18  1  0  0  0  0
  6 23  1  0  0  0  0
  6 46  1  0  0  0  0
  7 27  2  0  0  0  0
  8 28  2  0  0  0  0
  9 10  1  0  0  0  0
  9 11  1  0  0  0  0
  9 30  1  0  0  0  0
 10 12  1  0  0  0  0
 10 31  1  0  0  0  0
 10 32  1  0  0  0  0
 11 33  1  0  0  0  0
 11 34  1  0  0  0  0
 12 35  1  0  0  0  0
 12 36  1  0  0  0  0
 13 14  1  0  0  0  0
 13 37  1  0  0  0  0
 13 38  1  0  0  0  0
 14 16  2  0  0  0  0
 14 17  1  0  0  0  0
 15 18  1  0  0  0  0
 16 19  1  0  0  0  0
 16 40  1  0  0  0  0
 17 20  2  0  0  0  0
 17 41  1  0  0  0  0
 18 42  1  0  0  0  0
 18 43  1  0  0  0  0
 19 21  2  0  0  0  0
 19 44  1  0  0  0  0
 20 21  1  0  0  0  0
 20 45  1  0  0  0  0
 21 22  1  0  0  0  0
 22 47  1  0  0  0  0
 22 48  1  0  0  0  0
 22 49  1  0  0  0  0
 23 24  1  0  0  0  0
 24 25  2  0  0  0  0
 24 26  1  0  0  0  0
 25 27  1  0  0  0  0
 25 50  1  0  0  0  0
 26 29  2  0  0  0  0
 26 51  1  0  0  0  0
 27 28  1  0  0  0  0
 28 29  1  0  0  0  0
 29 52  1  0  0  0  0
M  END
> <PUBCHEM_COMPOUND_CID>
509036
> <PUBCHEM_COMPOUND_CANONICALIZED>
1
> <PUBCHEM_CACTVS_COMPLEXITY>
581
> <PUBCHEM_CACTVS_HBOND_ACCEPTOR>
6
> <PUBCHEM_CACTVS_HBOND_DONOR>
2
> <PUBCHEM_CACTVS_ROTATABLE_BOND>
6
> <PUBCHEM_CACTVS_SUBSKEYS>
AAADceB7sAAAAAAAAAAAAAAAAAAAAWLAAAAwYAAAAAAAAFgB9AAAHgAUAAAADCjBngQywLPQAACpAyVyUgCCAAQkEgAomKG4dNoIYLKA1bGUIQhgloCIyYcciQCeSAAAQAAAACCQAACAAAAAQAAAAAAAAA==
> <PUBCHEM_IUPAC_OPENEYE_NAME>
N-[2-oxo-2-[[(3R)-1-(p-tolylmethyl)pyrrolidin-3-yl]amino]ethyl]-2,1,3-benzoxadiazole-5-carboxamide
> <PUBCHEM_IUPAC_CAS_NAME>
N-[2-[[(3R)-1-[(4-methylphenyl)methyl]-3-pyrrolidinyl]amino]-2-oxoethyl]-2,1,3-benzoxadiazole-5-carboxamide
> <PUBCHEM_IUPAC_NAME_MARKUP>
<I>N</I>-[2-[[(3<I>R</I>)-1-[(4-methylphenyl)methyl]pyrrolidin-3-yl]amino]-2-oxoethyl]-2,1,3-benzoxadiazole-5-carboxamide
> <PUBCHEM_IUPAC_NAME>
N-[2-[[(3R)-1-[(4-methylphenyl)methyl]pyrrolidin-3-yl]amino]-2-oxoethyl]-2,1,3-benzoxadiazole-5-carboxamide
> <PUBCHEM_IUPAC_SYSTEMATIC_NAME>
N-[2-[[(3R)-1-[(4-methylphenyl)methyl]pyrrolidin-3-yl]amino]-2-oxidanylidene-ethyl]-2,1,3-benzoxadiazole-5-carboxamide
> <PUBCHEM_IUPAC_TRADITIONAL_NAME>
N-[2-keto-2-[[(3R)-1-(4-methylbenzyl)pyrrolidin-3-yl]amino]ethyl]benzofurazan-5-carboxamide
> <PUBCHEM_IUPAC_INCHI>
InChI=1S/C21H23N5O3/c1-14-2-4-15(5-3-14)12-26-9-8-17(13-26)23-20(27)11-22-21(28)16-6-7-18-19(10-16)25-29-24-18/h2-7,10,17H,8-9,11-13H2,1H3,(H,22,28)(H,23,27)/t17-/m1/s1
> <PUBCHEM_IUPAC_INCHIKEY>
IFVQQKCIJWUXRD-QGZVFWFLSA-N
> <PUBCHEM_XLOGP3_AA>
1.9
> <PUBCHEM_EXACT_MASS>
393.18008961
> <PUBCHEM_MOLECULAR_FORMULA>
C21H23N5O3
> <PUBCHEM_MOLECULAR_WEIGHT>
393.4
> <PUBCHEM_OPENEYE_CAN_SMILES>
CC1=CC=C(C=C1)CN2CCC(C2)NC(=O)CNC(=O)C3=CC4=NON=C4C=C3
> <PUBCHEM_OPENEYE_ISO_SMILES>
CC1=CC=C(C=C1)CN2CC[C@H](C2)NC(=O)CNC(=O)C3=CC4=NON=C4C=C3
> <PUBCHEM_CACTVS_TPSA>
100
> <PUBCHEM_MONOISOTOPIC_WEIGHT>
393.18008961
> <PUBCHEM_TOTAL_CHARGE>
0
> <PUBCHEM_HEAVY_ATOM_COUNT>
29
> <PUBCHEM_ATOM_DEF_STEREO_COUNT>
1
> <PUBCHEM_ATOM_UDEF_STEREO_COUNT>
0
> <PUBCHEM_BOND_DEF_STEREO_COUNT>
0
> <PUBCHEM_BOND_UDEF_STEREO_COUNT>
0
> <PUBCHEM_ISOTOPIC_ATOM_COUNT>
0
> <PUBCHEM_COMPONENT_COUNT>
1
> <PUBCHEM_CACTVS_TAUTO_COUNT>
-1
> <PUBCHEM_COORDINATE_TYPE>
1
5
255
> <PUBCHEM_BONDANNOTATIONS>
14  16  8
14  17  8
16  19  8
17  20  8
19  21  8
20  21  8
24  25  8
24  26  8
25  27  8
26  29  8
27  28  8
28  29  8
3  7  8
3  8  8
9  5  5
7  27  8
8  28  8
$$$$
