509041
  -OEChem-10302200282D
 50 52  0     1  0  0  0  0  0999 V2000
    8.0622    1.2500    0.0000 Br  0  0  0  0  0  0  0  0  0  0  0  0
    6.3301    4.2500    0.0000 F   0  0  0  0  0  0  0  0  0  0  0  0
    7.1962   -3.2500    0.0000 F   0  0  0  0  0  0  0  0  0  0  0  0
    4.5981   -2.7500    0.0000 O   0  0  0  0  0  0  0  0  0  0  0  0
    3.7320   -0.2500    0.0000 O   0  0  0  0  0  0  0  0  0  0  0  0
    4.5981    1.2500    0.0000 O   0  0  0  0  0  0  0  0  0  0  0  0
    6.3301   -1.7500    0.0000 N   0  0  0  0  0  0  0  0  0  0  0  0
    7.1962   -0.2500    0.0000 N   0  0  0  0  0  0  0  0  0  0  0  0
    8.9282   -1.2500    0.0000 N   0  0  0  0  0  0  0  0  0  0  0  0
    6.3301    0.2500    0.0000 C   0  0  3  0  0  0  0  0  0  0  0  0
    5.4641   -0.2500    0.0000 C   0  0  0  0  0  0  0  0  0  0  0  0
    5.4641   -1.2500    0.0000 C   0  0  0  0  0  0  0  0  0  0  0  0
    6.3301    1.2500    0.0000 C   0  0  0  0  0  0  0  0  0  0  0  0
    7.1962   -1.2500    0.0000 C   0  0  0  0  0  0  0  0  0  0  0  0
    4.5981   -1.7500    0.0000 C   0  0  0  0  0  0  0  0  0  0  0  0
    4.5981    0.2500    0.0000 C   0  0  0  0  0  0  0  0  0  0  0  0
    7.1962    1.7500    0.0000 C   0  0  0  0  0  0  0  0  0  0  0  0
    5.4641    1.7500    0.0000 C   0  0  0  0  0  0  0  0  0  0  0  0
    8.0622   -1.7500    0.0000 C   0  0  0  0  0  0  0  0  0  0  0  0
    7.1962    2.7500    0.0000 C   0  0  0  0  0  0  0  0  0  0  0  0
    5.4641    2.7500    0.0000 C   0  0  0  0  0  0  0  0  0  0  0  0
    6.3301    3.2500    0.0000 C   0  0  0  0  0  0  0  0  0  0  0  0
    8.0622   -2.7500    0.0000 C   0  0  0  0  0  0  0  0  0  0  0  0
    3.7320   -3.2500    0.0000 C   0  0  0  0  0  0  0  0  0  0  0  0
    2.8660    0.2500    0.0000 C   0  0  0  0  0  0  0  0  0  0  0  0
    8.9282   -3.2500    0.0000 C   0  0  0  0  0  0  0  0  0  0  0  0
    3.7320   -4.2500    0.0000 C   0  0  0  0  0  0  0  0  0  0  0  0
    9.7942   -1.7500    0.0000 C   0  0  0  0  0  0  0  0  0  0  0  0
    9.7942   -2.7500    0.0000 C   0  0  0  0  0  0  0  0  0  0  0  0
    2.0000   -0.2500    0.0000 C   0  0  0  0  0  0  0  0  0  0  0  0
    6.8671    0.5600    0.0000 H   0  0  0  0  0  0  0  0  0  0  0  0
    6.3301   -2.3700    0.0000 H   0  0  0  0  0  0  0  0  0  0  0  0
    4.3860   -1.1674    0.0000 H   0  0  0  0  0  0  0  0  0  0  0  0
    3.9875   -1.8577    0.0000 H   0  0  0  0  0  0  0  0  0  0  0  0
    4.9272    1.4400    0.0000 H   0  0  0  0  0  0  0  0  0  0  0  0
    7.7331    3.0600    0.0000 H   0  0  0  0  0  0  0  0  0  0  0  0
    4.9272    3.0600    0.0000 H   0  0  0  0  0  0  0  0  0  0  0  0
    3.5200   -2.6674    0.0000 H   0  0  0  0  0  0  0  0  0  0  0  0
    3.1215   -3.3577    0.0000 H   0  0  0  0  0  0  0  0  0  0  0  0
    3.2646    0.7249    0.0000 H   0  0  0  0  0  0  0  0  0  0  0  0
    2.4675    0.7249    0.0000 H   0  0  0  0  0  0  0  0  0  0  0  0
    8.9282   -3.8700    0.0000 H   0  0  0  0  0  0  0  0  0  0  0  0
    3.1120   -4.2500    0.0000 H   0  0  0  0  0  0  0  0  0  0  0  0
    3.7320   -4.8700    0.0000 H   0  0  0  0  0  0  0  0  0  0  0  0
    4.3520   -4.2500    0.0000 H   0  0  0  0  0  0  0  0  0  0  0  0
   10.3312   -1.4400    0.0000 H   0  0  0  0  0  0  0  0  0  0  0  0
   10.3312   -3.0600    0.0000 H   0  0  0  0  0  0  0  0  0  0  0  0
    1.6900    0.2869    0.0000 H   0  0  0  0  0  0  0  0  0  0  0  0
    1.4631   -0.5600    0.0000 H   0  0  0  0  0  0  0  0  0  0  0  0
    2.3100   -0.7869    0.0000 H   0  0  0  0  0  0  0  0  0  0  0  0
  1 17  1  0  0  0  0
  2 22  1  0  0  0  0
  3 23  1  0  0  0  0
  4 15  1  0  0  0  0
  4 24  1  0  0  0  0
  5 16  1  0  0  0  0
  5 25  1  0  0  0  0
  6 16  2  0  0  0  0
  7 12  1  0  0  0  0
  7 14  1  0  0  0  0
  7 32  1  0  0  0  0
  8 10  1  0  0  0  0
  8 14  2  0  0  0  0
  9 19  1  0  0  0  0
  9 28  2  0  0  0  0
 10 11  1  0  0  0  0
 10 13  1  0  0  0  0
 10 31  1  0  0  0  0
 11 12  2  0  0  0  0
 11 16  1  0  0  0  0
 12 15  1  0  0  0  0
 13 17  2  0  0  0  0
 13 18  1  0  0  0  0
 14 19  1  0  0  0  0
 15 33  1  0  0  0  0
 15 34  1  0  0  0  0
 17 20  1  0  0  0  0
 18 21  2  0  0  0  0
 18 35  1  0  0  0  0
 19 23  2  0  0  0  0
 20 22  2  0  0  0  0
 20 36  1  0  0  0  0
 21 22  1  0  0  0  0
 21 37  1  0  0  0  0
 23 26  1  0  0  0  0
 24 27  1  0  0  0  0
 24 38  1  0  0  0  0
 24 39  1  0  0  0  0
 25 30  1  0  0  0  0
 25 40  1  0  0  0  0
 25 41  1  0  0  0  0
 26 29  2  0  0  0  0
 26 42  1  0  0  0  0
 27 43  1  0  0  0  0
 27 44  1  0  0  0  0
 27 45  1  0  0  0  0
 28 29  1  0  0  0  0
 28 46  1  0  0  0  0
 29 47  1  0  0  0  0
 30 48  1  0  0  0  0
 30 49  1  0  0  0  0
 30 50  1  0  0  0  0
M  END
> <PUBCHEM_COMPOUND_CID>
509041
> <PUBCHEM_COMPOUND_CANONICALIZED>
1
> <PUBCHEM_CACTVS_COMPLEXITY>
676
> <PUBCHEM_CACTVS_HBOND_ACCEPTOR>
7
> <PUBCHEM_CACTVS_HBOND_DONOR>
1
> <PUBCHEM_CACTVS_ROTATABLE_BOND>
8
> <PUBCHEM_CACTVS_SUBSKEYS>
AAADceB7MYAAEAAAAAAAAAAAAAAAAAAAAAA8QIAAAAAAAAABwAAAHwBQAAABrCjhng4/iJLIFACoAzb3bACCgCExAiQJ2CE4ZPgKZPrAuZGXMAhmkADY61eYyKCOAAAAAAAAgAAAAAAAAAEAAAAAAAAAAA==
> <PUBCHEM_IUPAC_OPENEYE_NAME>
ethyl 4-(2-bromo-4-fluoro-phenyl)-6-(ethoxymethyl)-2-(3-fluoro-2-pyridyl)-1,4-dihydropyrimidine-5-carboxylate
> <PUBCHEM_IUPAC_CAS_NAME>
4-(2-bromo-4-fluorophenyl)-6-(ethoxymethyl)-2-(3-fluoro-2-pyridinyl)-1,4-dihydropyrimidine-5-carboxylic acid ethyl ester
> <PUBCHEM_IUPAC_NAME_MARKUP>
ethyl 4-(2-bromo-4-fluorophenyl)-6-(ethoxymethyl)-2-(3-fluoropyridin-2-yl)-1,4-dihydropyrimidine-5-carboxylate
> <PUBCHEM_IUPAC_NAME>
ethyl 4-(2-bromo-4-fluorophenyl)-6-(ethoxymethyl)-2-(3-fluoropyridin-2-yl)-1,4-dihydropyrimidine-5-carboxylate
> <PUBCHEM_IUPAC_SYSTEMATIC_NAME>
ethyl 4-(2-bromanyl-4-fluoranyl-phenyl)-6-(ethoxymethyl)-2-(3-fluoranylpyridin-2-yl)-1,4-dihydropyrimidine-5-carboxylate
> <PUBCHEM_IUPAC_TRADITIONAL_NAME>
4-(2-bromo-4-fluoro-phenyl)-6-(ethoxymethyl)-2-(3-fluoro-2-pyridyl)-1,4-dihydropyrimidine-5-carboxylic acid ethyl ester
> <PUBCHEM_IUPAC_INCHI>
InChI=1S/C21H20BrF2N3O3/c1-3-29-11-16-17(21(28)30-4-2)18(13-8-7-12(23)10-14(13)22)27-20(26-16)19-15(24)6-5-9-25-19/h5-10,18H,3-4,11H2,1-2H3,(H,26,27)
> <PUBCHEM_IUPAC_INCHIKEY>
WCKNYQMZHIIMIA-UHFFFAOYSA-N
> <PUBCHEM_XLOGP3_AA>
3.1
> <PUBCHEM_EXACT_MASS>
479.06561
> <PUBCHEM_MOLECULAR_FORMULA>
C21H20BrF2N3O3
> <PUBCHEM_MOLECULAR_WEIGHT>
480.3
> <PUBCHEM_OPENEYE_CAN_SMILES>
CCOCC1=C(C(N=C(N1)C2=C(C=CC=N2)F)C3=C(C=C(C=C3)F)Br)C(=O)OCC
> <PUBCHEM_OPENEYE_ISO_SMILES>
CCOCC1=C(C(N=C(N1)C2=C(C=CC=N2)F)C3=C(C=C(C=C3)F)Br)C(=O)OCC
> <PUBCHEM_CACTVS_TPSA>
72.8
> <PUBCHEM_MONOISOTOPIC_WEIGHT>
479.06561
> <PUBCHEM_TOTAL_CHARGE>
0
> <PUBCHEM_HEAVY_ATOM_COUNT>
30
> <PUBCHEM_ATOM_DEF_STEREO_COUNT>
0
> <PUBCHEM_ATOM_UDEF_STEREO_COUNT>
1
> <PUBCHEM_BOND_DEF_STEREO_COUNT>
0
> <PUBCHEM_BOND_UDEF_STEREO_COUNT>
0
> <PUBCHEM_ISOTOPIC_ATOM_COUNT>
0
> <PUBCHEM_COMPONENT_COUNT>
1
> <PUBCHEM_CACTVS_TAUTO_COUNT>
-1
> <PUBCHEM_COORDINATE_TYPE>
1
5
255
> <PUBCHEM_BONDANNOTATIONS>
10  13  3
13  17  8
13  18  8
17  20  8
18  21  8
19  23  8
20  22  8
21  22  8
23  26  8
26  29  8
28  29  8
9  19  8
9  28  8
$$$$
