509053
  -OEChem-10302200282D
 57 61  0     1  0  0  0  0  0999 V2000
    6.0000    3.1392    0.0000 Cl  0  0  0  0  0  0  0  0  0  0  0  0
    7.5000   -1.1910    0.0000 F   0  0  0  0  0  0  0  0  0  0  0  0
    3.0000    4.8712    0.0000 F   0  0  0  0  0  0  0  0  0  0  0  0
   10.5000    0.5411    0.0000 F   0  0  0  0  0  0  0  0  0  0  0  0
    3.4277   -4.3120    0.0000 O   0  0  0  0  0  0  0  0  0  0  0  0
    3.0000   -0.3250    0.0000 O   0  0  0  0  0  0  0  0  0  0  0  0
    3.0000    1.4071    0.0000 O   0  0  0  0  0  0  0  0  0  0  0  0
    5.0000   -2.0570    0.0000 N   0  0  0  0  0  0  0  0  0  0  0  0
    6.0000   -0.3250    0.0000 N   0  0  0  0  0  0  0  0  0  0  0  0
    6.0000    1.4071    0.0000 N   0  0  0  0  0  0  0  0  0  0  0  0
    8.0000    1.4071    0.0000 N   0  0  0  0  0  0  0  0  0  0  0  0
    5.7366   -3.0396    0.0000 C   0  0  2  0  0  0  0  0  0  0  0  0
    5.4778   -4.0055    0.0000 C   0  0  2  0  0  0  0  0  0  0  0  0
    7.1356   -3.5484    0.0000 C   0  0  0  0  0  0  0  0  0  0  0  0
    6.8767   -4.5144    0.0000 C   0  0  0  0  0  0  0  0  0  0  0  0
    3.7034   -3.3508    0.0000 C   0  0  0  0  0  0  0  0  0  0  0  0
    4.2568   -4.8712    0.0000 C   0  0  0  0  0  0  0  0  0  0  0  0
    4.5000   -1.1910    0.0000 C   0  0  0  0  0  0  0  0  0  0  0  0
    5.0000   -0.3250    0.0000 C   0  0  0  0  0  0  0  0  0  0  0  0
    4.5000    0.5411    0.0000 C   0  0  0  0  0  0  0  0  0  0  0  0
    5.0000    1.4071    0.0000 C   0  0  2  0  0  0  0  0  0  0  0  0
    6.5000    0.5411    0.0000 C   0  0  0  0  0  0  0  0  0  0  0  0
    3.5000    0.5411    0.0000 C   0  0  0  0  0  0  0  0  0  0  0  0
    4.5000    2.2731    0.0000 C   0  0  0  0  0  0  0  0  0  0  0  0
    7.5000    0.5411    0.0000 C   0  0  0  0  0  0  0  0  0  0  0  0
    5.0000    3.1392    0.0000 C   0  0  0  0  0  0  0  0  0  0  0  0
    3.5000    2.2731    0.0000 C   0  0  0  0  0  0  0  0  0  0  0  0
    8.0000   -0.3250    0.0000 C   0  0  0  0  0  0  0  0  0  0  0  0
    4.5000    4.0052    0.0000 C   0  0  0  0  0  0  0  0  0  0  0  0
    3.0000    3.1392    0.0000 C   0  0  0  0  0  0  0  0  0  0  0  0
    3.5000    4.0052    0.0000 C   0  0  0  0  0  0  0  0  0  0  0  0
    2.0000   -0.3250    0.0000 C   0  0  0  0  0  0  0  0  0  0  0  0
    9.0000   -0.3250    0.0000 C   0  0  0  0  0  0  0  0  0  0  0  0
    9.0000    1.4071    0.0000 C   0  0  0  0  0  0  0  0  0  0  0  0
    9.5000    0.5411    0.0000 C   0  0  0  0  0  0  0  0  0  0  0  0
    5.9566   -2.2186    0.0000 H   0  0  0  0  0  0  0  0  0  0  0  0
    5.2578   -4.8266    0.0000 H   0  0  0  0  0  0  0  0  0  0  0  0
    7.7295   -3.7262    0.0000 H   0  0  0  0  0  0  0  0  0  0  0  0
    7.3305   -2.9599    0.0000 H   0  0  0  0  0  0  0  0  0  0  0  0
    6.6818   -5.1029    0.0000 H   0  0  0  0  0  0  0  0  0  0  0  0
    7.4707   -4.6921    0.0000 H   0  0  0  0  0  0  0  0  0  0  0  0
    3.6983   -2.7308    0.0000 H   0  0  0  0  0  0  0  0  0  0  0  0
    3.0891   -3.2670    0.0000 H   0  0  0  0  0  0  0  0  0  0  0  0
    3.8509   -5.3399    0.0000 H   0  0  0  0  0  0  0  0  0  0  0  0
    4.6734   -5.3303    0.0000 H   0  0  0  0  0  0  0  0  0  0  0  0
    4.0250   -0.7924    0.0000 H   0  0  0  0  0  0  0  0  0  0  0  0
    4.0250   -1.5895    0.0000 H   0  0  0  0  0  0  0  0  0  0  0  0
    6.3100   -0.8619    0.0000 H   0  0  0  0  0  0  0  0  0  0  0  0
    5.3100    1.9440    0.0000 H   0  0  0  0  0  0  0  0  0  0  0  0
    3.1900    1.7362    0.0000 H   0  0  0  0  0  0  0  0  0  0  0  0
    4.8100    4.5421    0.0000 H   0  0  0  0  0  0  0  0  0  0  0  0
    2.3800    3.1392    0.0000 H   0  0  0  0  0  0  0  0  0  0  0  0
    2.0000    0.2950    0.0000 H   0  0  0  0  0  0  0  0  0  0  0  0
    1.3800   -0.3250    0.0000 H   0  0  0  0  0  0  0  0  0  0  0  0
    2.0000   -0.9450    0.0000 H   0  0  0  0  0  0  0  0  0  0  0  0
    9.3100   -0.8619    0.0000 H   0  0  0  0  0  0  0  0  0  0  0  0
    9.3100    1.9440    0.0000 H   0  0  0  0  0  0  0  0  0  0  0  0
  1 26  1  0  0  0  0
  2 28  1  0  0  0  0
  3 31  1  0  0  0  0
  4 35  1  0  0  0  0
  5 16  1  0  0  0  0
  5 17  1  0  0  0  0
  6 23  1  0  0  0  0
  6 32  1  0  0  0  0
  7 23  2  0  0  0  0
  8 12  1  0  0  0  0
  8 13  1  0  0  0  0
  8 18  1  0  0  0  0
  9 19  1  0  0  0  0
  9 22  1  0  0  0  0
  9 48  1  0  0  0  0
 10 21  1  0  0  0  0
 10 22  2  0  0  0  0
 11 25  1  0  0  0  0
 11 34  2  0  0  0  0
 12 14  1  0  0  0  0
 12 16  1  0  0  0  0
 12 36  1  1  0  0  0
 13 15  1  0  0  0  0
 13 17  1  0  0  0  0
 13 37  1  1  0  0  0
 14 15  1  0  0  0  0
 14 38  1  0  0  0  0
 14 39  1  0  0  0  0
 15 40  1  0  0  0  0
 15 41  1  0  0  0  0
 16 42  1  0  0  0  0
 16 43  1  0  0  0  0
 17 44  1  0  0  0  0
 17 45  1  0  0  0  0
 18 19  1  0  0  0  0
 18 46  1  0  0  0  0
 18 47  1  0  0  0  0
 19 20  2  0  0  0  0
 20 21  1  0  0  0  0
 20 23  1  0  0  0  0
 21 24  1  6  0  0  0
 21 49  1  0  0  0  0
 22 25  1  0  0  0  0
 24 26  2  0  0  0  0
 24 27  1  0  0  0  0
 25 28  2  0  0  0  0
 26 29  1  0  0  0  0
 27 30  2  0  0  0  0
 27 50  1  0  0  0  0
 28 33  1  0  0  0  0
 29 31  2  0  0  0  0
 29 51  1  0  0  0  0
 30 31  1  0  0  0  0
 30 52  1  0  0  0  0
 32 53  1  0  0  0  0
 32 54  1  0  0  0  0
 32 55  1  0  0  0  0
 33 35  2  0  0  0  0
 33 56  1  0  0  0  0
 34 35  1  0  0  0  0
 34 57  1  0  0  0  0
M  END
> <PUBCHEM_COMPOUND_CID>
509053
> <PUBCHEM_COMPOUND_CANONICALIZED>
1
> <PUBCHEM_CACTVS_COMPLEXITY>
865
> <PUBCHEM_CACTVS_HBOND_ACCEPTOR>
9
> <PUBCHEM_CACTVS_HBOND_DONOR>
1
> <PUBCHEM_CACTVS_ROTATABLE_BOND>
6
> <PUBCHEM_CACTVS_SUBSKEYS>
AAADceB7sYAEAAAAAAAAAAAAAAAAAWAAAAA8WIEABIAAAAABwAAAHwIQAAAADCrhni4/iJPIFACoAzb3bACCgCExBSAJ2CEoRtgKZPrBu5GXMAhmkADY6UeY2KOOAAAAAAABAAAAAAAAAAIAAAAAAAAAAA==
> <PUBCHEM_IUPAC_OPENEYE_NAME>
methyl (4R)-4-(2-chloro-4-fluoro-phenyl)-2-(3,5-difluoro-2-pyridyl)-6-[[(1R,5R)-3-oxa-8-azabicyclo[3.2.1]octan-8-yl]methyl]-1,4-dihydropyrimidine-5-carboxylate
> <PUBCHEM_IUPAC_CAS_NAME>
(4R)-4-(2-chloro-4-fluorophenyl)-2-(3,5-difluoro-2-pyridinyl)-6-[[(1R,5R)-3-oxa-8-azabicyclo[3.2.1]octan-8-yl]methyl]-1,4-dihydropyrimidine-5-carboxylic acid methyl ester
> <PUBCHEM_IUPAC_NAME_MARKUP>
methyl (4<I>R</I>)-4-(2-chloro-4-fluorophenyl)-2-(3,5-difluoropyridin-2-yl)-6-[[(1<I>R</I>,5<I>R</I>)-3-oxa-8-azabicyclo[3.2.1]octan-8-yl]methyl]-1,4-dihydropyrimidine-5-carboxylate
> <PUBCHEM_IUPAC_NAME>
methyl (4R)-4-(2-chloro-4-fluorophenyl)-2-(3,5-difluoropyridin-2-yl)-6-[[(1R,5R)-3-oxa-8-azabicyclo[3.2.1]octan-8-yl]methyl]-1,4-dihydropyrimidine-5-carboxylate
> <PUBCHEM_IUPAC_SYSTEMATIC_NAME>
methyl (4R)-2-[3,5-bis(fluoranyl)pyridin-2-yl]-4-(2-chloranyl-4-fluoranyl-phenyl)-6-[[(1R,5R)-3-oxa-8-azabicyclo[3.2.1]octan-8-yl]methyl]-1,4-dihydropyrimidine-5-carboxylate
> <PUBCHEM_IUPAC_TRADITIONAL_NAME>
(4R)-4-(2-chloro-4-fluoro-phenyl)-2-(3,5-difluoro-2-pyridyl)-6-[[(1R,5R)-3-oxa-8-azabicyclo[3.2.1]octan-8-yl]methyl]-1,4-dihydropyrimidine-5-carboxylic acid methyl ester
> <PUBCHEM_IUPAC_INCHI>
InChI=1S/C24H22ClF3N4O3/c1-34-24(33)20-19(9-32-14-3-4-15(32)11-35-10-14)30-23(22-18(28)7-13(27)8-29-22)31-21(20)16-5-2-12(26)6-17(16)25/h2,5-8,14-15,21H,3-4,9-11H2,1H3,(H,30,31)/t14-,15-,21+/m1/s1
> <PUBCHEM_IUPAC_INCHIKEY>
KCWDKCQCJNWGGL-PZPWOCDFSA-N
> <PUBCHEM_XLOGP3_AA>
2.8
> <PUBCHEM_EXACT_MASS>
506.1332528
> <PUBCHEM_MOLECULAR_FORMULA>
C24H22ClF3N4O3
> <PUBCHEM_MOLECULAR_WEIGHT>
506.9
> <PUBCHEM_OPENEYE_CAN_SMILES>
COC(=O)C1=C(NC(=NC1C2=C(C=C(C=C2)F)Cl)C3=C(C=C(C=N3)F)F)CN4C5CCC4COC5
> <PUBCHEM_OPENEYE_ISO_SMILES>
COC(=O)C1=C(NC(=N[C@H]1C2=C(C=C(C=C2)F)Cl)C3=C(C=C(C=N3)F)F)CN4[C@@H]5CC[C@@H]4COC5
> <PUBCHEM_CACTVS_TPSA>
76
> <PUBCHEM_MONOISOTOPIC_WEIGHT>
506.1332528
> <PUBCHEM_TOTAL_CHARGE>
0
> <PUBCHEM_HEAVY_ATOM_COUNT>
35
> <PUBCHEM_ATOM_DEF_STEREO_COUNT>
3
> <PUBCHEM_ATOM_UDEF_STEREO_COUNT>
0
> <PUBCHEM_BOND_DEF_STEREO_COUNT>
0
> <PUBCHEM_BOND_UDEF_STEREO_COUNT>
0
> <PUBCHEM_ISOTOPIC_ATOM_COUNT>
0
> <PUBCHEM_COMPONENT_COUNT>
1
> <PUBCHEM_CACTVS_TAUTO_COUNT>
-1
> <PUBCHEM_COORDINATE_TYPE>
1
5
255
> <PUBCHEM_BONDANNOTATIONS>
11  25  8
11  34  8
12  36  5
13  37  5
21  24  6
24  26  8
24  27  8
25  28  8
26  29  8
27  30  8
28  33  8
29  31  8
30  31  8
33  35  8
34  35  8
$$$$
