509034
  -OEChem-10302200282D
 92 95  0     1  0  0  0  0  0999 V2000
    2.0000   -0.5691    0.0000 S   0  0  0  0  0  0  0  0  0  0  0  0
   10.5109    3.7673    0.0000 F   0  0  0  0  0  0  0  0  0  0  0  0
    9.1448    4.1334    0.0000 F   0  0  0  0  0  0  0  0  0  0  0  0
   10.1449    2.4013    0.0000 F   0  0  0  0  0  0  0  0  0  0  0  0
    3.5827    1.7673    0.0000 O   0  0  0  0  0  0  0  0  0  0  0  0
    5.3147   -0.2327    0.0000 O   0  0  0  0  0  0  0  0  0  0  0  0
    5.1724   -1.5873    0.0000 O   0  0  0  0  0  0  0  0  0  0  0  0
    7.0468    2.7673    0.0000 O   0  0  0  0  0  0  0  0  0  0  0  0
    9.6448    0.2673    0.0000 O   0  0  0  0  0  0  0  0  0  0  0  0
    9.6448   -1.7327    0.0000 O   0  0  0  0  0  0  0  0  0  0  0  0
    3.5827   -0.2327    0.0000 N   0  0  0  0  0  0  0  0  0  0  0  0
    6.1808    1.2673    0.0000 N   0  0  0  0  0  0  0  0  0  0  0  0
    4.0134   -2.8745    0.0000 N   0  0  0  0  0  0  0  0  0  0  0  0
    7.9128    0.2673    0.0000 N   0  0  0  0  0  0  0  0  0  0  0  0
   12.3109   -4.2535    0.0000 N   0  0  0  0  0  0  0  0  0  0  0  0
    3.4782   -1.2272    0.0000 C   0  0  1  0  0  0  0  0  0  0  0  0
    5.3147    1.7673    0.0000 C   0  0  2  0  0  0  0  0  0  0  0  0
    4.4487    1.2673    0.0000 C   0  0  1  0  0  0  0  0  0  0  0  0
    2.5000   -1.4351    0.0000 C   0  0  0  0  0  0  0  0  0  0  0  0
    4.4487    0.2673    0.0000 C   0  0  0  0  0  0  0  0  0  0  0  0
    2.6691    0.1741    0.0000 C   0  0  0  0  0  0  0  0  0  0  0  0
    5.3147    2.7673    0.0000 C   0  0  0  0  0  0  0  0  0  0  0  0
    7.9128    1.2673    0.0000 C   0  0  1  0  0  0  0  0  0  0  0  0
    4.2213   -1.8963    0.0000 C   0  0  0  0  0  0  0  0  0  0  0  0
    3.0623   -3.1835    0.0000 C   0  0  0  0  0  0  0  0  0  0  0  0
    8.7788    1.7673    0.0000 C   0  0  0  0  0  0  0  0  0  0  0  0
    8.7788    2.7673    0.0000 C   0  0  3  0  0  0  0  0  0  0  0  0
    7.0468    1.7673    0.0000 C   0  0  0  0  0  0  0  0  0  0  0  0
    4.4487    3.2673    0.0000 C   0  0  0  0  0  0  0  0  0  0  0  0
    2.1113   -3.4925    0.0000 C   0  0  0  0  0  0  0  0  0  0  0  0
    3.3713   -4.1345    0.0000 C   0  0  0  0  0  0  0  0  0  0  0  0
    2.7533   -2.2324    0.0000 C   0  0  0  0  0  0  0  0  0  0  0  0
    9.6448    3.2673    0.0000 C   0  0  0  0  0  0  0  0  0  0  0  0
    7.9128    3.2673    0.0000 C   0  0  0  0  0  0  0  0  0  0  0  0
    4.4487    4.2673    0.0000 C   0  0  0  0  0  0  0  0  0  0  0  0
    3.5827    2.7673    0.0000 C   0  0  0  0  0  0  0  0  0  0  0  0
    8.7788   -0.2327    0.0000 C   0  0  0  0  0  0  0  0  0  0  0  0
    3.5827    4.7673    0.0000 C   0  0  0  0  0  0  0  0  0  0  0  0
    2.7166    3.2673    0.0000 C   0  0  0  0  0  0  0  0  0  0  0  0
    8.7788   -1.2327    0.0000 C   0  0  0  0  0  0  0  0  0  0  0  0
    2.7166    4.2673    0.0000 C   0  0  0  0  0  0  0  0  0  0  0  0
    9.6448   -2.7327    0.0000 C   0  0  0  0  0  0  0  0  0  0  0  0
   10.5109   -3.2327    0.0000 C   0  0  0  0  0  0  0  0  0  0  0  0
    8.7788   -3.2327    0.0000 C   0  0  0  0  0  0  0  0  0  0  0  0
   10.5109   -4.2327    0.0000 C   0  0  0  0  0  0  0  0  0  0  0  0
    8.7788   -4.2327    0.0000 C   0  0  0  0  0  0  0  0  0  0  0  0
   11.4048   -2.6980    0.0000 C   0  0  0  0  0  0  0  0  0  0  0  0
    9.6448   -4.7327    0.0000 C   0  0  0  0  0  0  0  0  0  0  0  0
   11.4048   -4.7673    0.0000 C   0  0  0  0  0  0  0  0  0  0  0  0
   12.3109   -3.2118    0.0000 C   0  0  0  0  0  0  0  0  0  0  0  0
    4.0570   -1.0050    0.0000 H   0  0  0  0  0  0  0  0  0  0  0  0
    5.3147    1.1473    0.0000 H   0  0  0  0  0  0  0  0  0  0  0  0
    3.9118    0.9573    0.0000 H   0  0  0  0  0  0  0  0  0  0  0  0
    1.9336   -1.6873    0.0000 H   0  0  0  0  0  0  0  0  0  0  0  0
    2.6916   -2.0248    0.0000 H   0  0  0  0  0  0  0  0  0  0  0  0
    2.9791    0.7110    0.0000 H   0  0  0  0  0  0  0  0  0  0  0  0
    2.1675    0.5385    0.0000 H   0  0  0  0  0  0  0  0  0  0  0  0
    5.9253    2.6597    0.0000 H   0  0  0  0  0  0  0  0  0  0  0  0
    5.5268    3.3499    0.0000 H   0  0  0  0  0  0  0  0  0  0  0  0
    8.4497    0.9573    0.0000 H   0  0  0  0  0  0  0  0  0  0  0  0
    6.1808    0.6473    0.0000 H   0  0  0  0  0  0  0  0  0  0  0  0
    8.9909    1.1847    0.0000 H   0  0  0  0  0  0  0  0  0  0  0  0
    9.3894    1.8750    0.0000 H   0  0  0  0  0  0  0  0  0  0  0  0
    8.2419    2.4573    0.0000 H   0  0  0  0  0  0  0  0  0  0  0  0
    4.4741   -3.2893    0.0000 H   0  0  0  0  0  0  0  0  0  0  0  0
    1.9197   -2.9028    0.0000 H   0  0  0  0  0  0  0  0  0  0  0  0
    1.5216   -3.6841    0.0000 H   0  0  0  0  0  0  0  0  0  0  0  0
    2.3029   -4.0822    0.0000 H   0  0  0  0  0  0  0  0  0  0  0  0
    2.7817   -4.3261    0.0000 H   0  0  0  0  0  0  0  0  0  0  0  0
    3.5629   -4.7242    0.0000 H   0  0  0  0  0  0  0  0  0  0  0  0
    3.9610   -3.9430    0.0000 H   0  0  0  0  0  0  0  0  0  0  0  0
    3.3430   -2.0408    0.0000 H   0  0  0  0  0  0  0  0  0  0  0  0
    2.5617   -1.6428    0.0000 H   0  0  0  0  0  0  0  0  0  0  0  0
    2.1636   -2.4240    0.0000 H   0  0  0  0  0  0  0  0  0  0  0  0
    3.0457    1.4573    0.0000 H   0  0  0  0  0  0  0  0  0  0  0  0
    7.3759   -0.0427    0.0000 H   0  0  0  0  0  0  0  0  0  0  0  0
    8.2228    3.8043    0.0000 H   0  0  0  0  0  0  0  0  0  0  0  0
    7.3759    3.5773    0.0000 H   0  0  0  0  0  0  0  0  0  0  0  0
    7.6028    2.7304    0.0000 H   0  0  0  0  0  0  0  0  0  0  0  0
    4.9856    4.5773    0.0000 H   0  0  0  0  0  0  0  0  0  0  0  0
    3.5827    2.1473    0.0000 H   0  0  0  0  0  0  0  0  0  0  0  0
    3.5827    5.3873    0.0000 H   0  0  0  0  0  0  0  0  0  0  0  0
    2.1797    2.9573    0.0000 H   0  0  0  0  0  0  0  0  0  0  0  0
    8.1682   -1.1250    0.0000 H   0  0  0  0  0  0  0  0  0  0  0  0
    8.5668   -1.8153    0.0000 H   0  0  0  0  0  0  0  0  0  0  0  0
    2.1797    4.5773    0.0000 H   0  0  0  0  0  0  0  0  0  0  0  0
    8.2419   -2.9227    0.0000 H   0  0  0  0  0  0  0  0  0  0  0  0
    8.2419   -4.5427    0.0000 H   0  0  0  0  0  0  0  0  0  0  0  0
   11.3977   -2.0780    0.0000 H   0  0  0  0  0  0  0  0  0  0  0  0
    9.6448   -5.3527    0.0000 H   0  0  0  0  0  0  0  0  0  0  0  0
   11.3977   -5.3873    0.0000 H   0  0  0  0  0  0  0  0  0  0  0  0
   12.8466   -2.8998    0.0000 H   0  0  0  0  0  0  0  0  0  0  0  0
  1 19  1  0  0  0  0
  1 21  1  0  0  0  0
  2 33  1  0  0  0  0
  3 33  1  0  0  0  0
  4 33  1  0  0  0  0
 18  5  1  1  0  0  0
  5 75  1  0  0  0  0
  6 20  2  0  0  0  0
  7 24  2  0  0  0  0
  8 28  2  0  0  0  0
  9 37  2  0  0  0  0
 10 40  1  0  0  0  0
 10 42  1  0  0  0  0
 11 16  1  0  0  0  0
 11 20  1  0  0  0  0
 11 21  1  0  0  0  0
 17 12  1  6  0  0  0
 12 28  1  0  0  0  0
 12 61  1  0  0  0  0
 13 24  1  0  0  0  0
 13 25  1  0  0  0  0
 13 65  1  0  0  0  0
 23 14  1  6  0  0  0
 14 37  1  0  0  0  0
 14 76  1  0  0  0  0
 15 49  2  0  0  0  0
 15 50  1  0  0  0  0
 16 19  1  0  0  0  0
 16 24  1  6  0  0  0
 16 51  1  0  0  0  0
 17 18  1  0  0  0  0
 17 22  1  0  0  0  0
 17 52  1  0  0  0  0
 18 20  1  0  0  0  0
 18 53  1  0  0  0  0
 19 54  1  0  0  0  0
 19 55  1  0  0  0  0
 21 56  1  0  0  0  0
 21 57  1  0  0  0  0
 22 29  1  0  0  0  0
 22 58  1  0  0  0  0
 22 59  1  0  0  0  0
 23 26  1  0  0  0  0
 23 28  1  0  0  0  0
 23 60  1  0  0  0  0
 25 30  1  0  0  0  0
 25 31  1  0  0  0  0
 25 32  1  0  0  0  0
 26 27  1  0  0  0  0
 26 62  1  0  0  0  0
 26 63  1  0  0  0  0
 27 33  1  0  0  0  0
 27 34  1  0  0  0  0
 27 64  1  0  0  0  0
 29 35  2  0  0  0  0
 29 36  1  0  0  0  0
 30 66  1  0  0  0  0
 30 67  1  0  0  0  0
 30 68  1  0  0  0  0
 31 69  1  0  0  0  0
 31 70  1  0  0  0  0
 31 71  1  0  0  0  0
 32 72  1  0  0  0  0
 32 73  1  0  0  0  0
 32 74  1  0  0  0  0
 34 77  1  0  0  0  0
 34 78  1  0  0  0  0
 34 79  1  0  0  0  0
 35 38  1  0  0  0  0
 35 80  1  0  0  0  0
 36 39  2  0  0  0  0
 36 81  1  0  0  0  0
 37 40  1  0  0  0  0
 38 41  2  0  0  0  0
 38 82  1  0  0  0  0
 39 41  1  0  0  0  0
 39 83  1  0  0  0  0
 40 84  1  0  0  0  0
 40 85  1  0  0  0  0
 41 86  1  0  0  0  0
 42 43  1  0  0  0  0
 42 44  2  0  0  0  0
 43 45  2  0  0  0  0
 43 47  1  0  0  0  0
 44 46  1  0  0  0  0
 44 87  1  0  0  0  0
 45 48  1  0  0  0  0
 45 49  1  0  0  0  0
 46 48  2  0  0  0  0
 46 88  1  0  0  0  0
 47 50  2  0  0  0  0
 47 89  1  0  0  0  0
 48 90  1  0  0  0  0
 49 91  1  0  0  0  0
 50 92  1  0  0  0  0
M  END
> <PUBCHEM_COMPOUND_CID>
509034
> <PUBCHEM_COMPOUND_CANONICALIZED>
1
> <PUBCHEM_CACTVS_COMPLEXITY>
1170
> <PUBCHEM_CACTVS_HBOND_ACCEPTOR>
11
> <PUBCHEM_CACTVS_HBOND_DONOR>
4
> <PUBCHEM_CACTVS_ROTATABLE_BOND>
14
> <PUBCHEM_CACTVS_SUBSKEYS>
AAADcfB/uYBAAAAAAAAAAAAAAAAAAWAAAAA8YIAAAAAAAACx9AAAHwQQCAAADbzl2ha+htPIFgioAjF3VAKCiCBxIjAI2KH+bJgOdvrk8b+XeCjk1hHY6Ae4yLCOgAABAAAYAAAAAAIAADAAAAAAAAAAAA==
> <PUBCHEM_IUPAC_OPENEYE_NAME>
(4R)-N-tert-butyl-3-[(2S,3S)-2-hydroxy-4-phenyl-3-[[(2S)-5,5,5-trifluoro-2-[[2-(5-isoquinolyloxy)acetyl]amino]-4-methyl-pentanoyl]amino]butanoyl]thiazolidine-4-carboxamide
> <PUBCHEM_IUPAC_CAS_NAME>
(4R)-N-tert-butyl-3-[(2S,3S)-2-hydroxy-1-oxo-4-phenyl-3-[[(2S)-5,5,5-trifluoro-2-[[2-(5-isoquinolinyloxy)-1-oxoethyl]amino]-4-methyl-1-oxopentyl]amino]butyl]-4-thiazolidinecarboxamide
> <PUBCHEM_IUPAC_NAME_MARKUP>
(4<I>R</I>)-<I>N</I>-<I>tert</I>-butyl-3-[(2<I>S</I>,3<I>S</I>)-2-hydroxy-4-phenyl-3-[[(2<I>S</I>)-5,5,5-trifluoro-2-[(2-isoquinolin-5-yloxyacetyl)amino]-4-methylpentanoyl]amino]butanoyl]-1,3-thiazolidine-4-carboxamide
> <PUBCHEM_IUPAC_NAME>
(4R)-N-tert-butyl-3-[(2S,3S)-2-hydroxy-4-phenyl-3-[[(2S)-5,5,5-trifluoro-2-[(2-isoquinolin-5-yloxyacetyl)amino]-4-methylpentanoyl]amino]butanoyl]-1,3-thiazolidine-4-carboxamide
> <PUBCHEM_IUPAC_SYSTEMATIC_NAME>
(4R)-N-tert-butyl-3-[(2S,3S)-2-oxidanyl-4-phenyl-3-[[(2S)-5,5,5-tris(fluoranyl)-2-(2-isoquinolin-5-yloxyethanoylamino)-4-methyl-pentanoyl]amino]butanoyl]-1,3-thiazolidine-4-carboxamide
> <PUBCHEM_IUPAC_TRADITIONAL_NAME>
(4R)-N-tert-butyl-3-[(2S,3S)-2-hydroxy-4-phenyl-3-[[(2S)-5,5,5-trifluoro-2-[[2-(5-isoquinolyloxy)acetyl]amino]-4-methyl-pentanoyl]amino]butanoyl]thiazolidine-4-carboxamide
> <PUBCHEM_IUPAC_INCHI>
InChI=1S/C35H42F3N5O6S/c1-21(35(36,37)38)15-26(40-29(44)18-49-28-12-8-11-23-17-39-14-13-24(23)28)31(46)41-25(16-22-9-6-5-7-10-22)30(45)33(48)43-20-50-19-27(43)32(47)42-34(2,3)4/h5-14,17,21,25-27,30,45H,15-16,18-20H2,1-4H3,(H,40,44)(H,41,46)(H,42,47)/t21?,25-,26-,27-,30-/m0/s1
> <PUBCHEM_IUPAC_INCHIKEY>
PWHYWBKAVDQXFA-JPLNDPSTSA-N
> <PUBCHEM_XLOGP3_AA>
4.8
> <PUBCHEM_EXACT_MASS>
717.28078974
> <PUBCHEM_MOLECULAR_FORMULA>
C35H42F3N5O6S
> <PUBCHEM_MOLECULAR_WEIGHT>
717.8
> <PUBCHEM_OPENEYE_CAN_SMILES>
CC(CC(C(=O)NC(CC1=CC=CC=C1)C(C(=O)N2CSCC2C(=O)NC(C)(C)C)O)NC(=O)COC3=CC=CC4=C3C=CN=C4)C(F)(F)F
> <PUBCHEM_OPENEYE_ISO_SMILES>
CC(C[C@@H](C(=O)N[C@@H](CC1=CC=CC=C1)[C@@H](C(=O)N2CSC[C@H]2C(=O)NC(C)(C)C)O)NC(=O)COC3=CC=CC4=C3C=CN=C4)C(F)(F)F
> <PUBCHEM_CACTVS_TPSA>
175
> <PUBCHEM_MONOISOTOPIC_WEIGHT>
717.28078974
> <PUBCHEM_TOTAL_CHARGE>
0
> <PUBCHEM_HEAVY_ATOM_COUNT>
50
> <PUBCHEM_ATOM_DEF_STEREO_COUNT>
4
> <PUBCHEM_ATOM_UDEF_STEREO_COUNT>
1
> <PUBCHEM_BOND_DEF_STEREO_COUNT>
0
> <PUBCHEM_BOND_UDEF_STEREO_COUNT>
0
> <PUBCHEM_ISOTOPIC_ATOM_COUNT>
0
> <PUBCHEM_COMPONENT_COUNT>
1
> <PUBCHEM_CACTVS_TAUTO_COUNT>
-1
> <PUBCHEM_COORDINATE_TYPE>
1
5
255
> <PUBCHEM_BONDANNOTATIONS>
17  12  6
23  14  6
15  49  8
15  50  8
16  24  6
27  34  3
29  35  8
29  36  8
35  38  8
36  39  8
38  41  8
39  41  8
42  43  8
42  44  8
43  45  8
43  47  8
44  46  8
45  48  8
45  49  8
46  48  8
47  50  8
18  5  5
$$$$
