509040
  -OEChem-10302200282D
 50 52  0     1  0  0  0  0  0999 V2000
    8.0622    1.2500    0.0000 Cl  0  0  0  0  0  0  0  0  0  0  0  0
    6.3301    4.2500    0.0000 F   0  0  0  0  0  0  0  0  0  0  0  0
    7.1962   -3.2500    0.0000 F   0  0  0  0  0  0  0  0  0  0  0  0
   10.6603   -3.2500    0.0000 F   0  0  0  0  0  0  0  0  0  0  0  0
    4.5981   -2.7500    0.0000 O   0  0  0  0  0  0  0  0  0  0  0  0
    3.7320   -0.2500    0.0000 O   0  0  0  0  0  0  0  0  0  0  0  0
    4.5981    1.2500    0.0000 O   0  0  0  0  0  0  0  0  0  0  0  0
    6.3301   -1.7500    0.0000 N   0  0  0  0  0  0  0  0  0  0  0  0
    7.1962   -0.2500    0.0000 N   0  0  0  0  0  0  0  0  0  0  0  0
    8.9282   -1.2500    0.0000 N   0  0  0  0  0  0  0  0  0  0  0  0
    6.3301    0.2500    0.0000 C   0  0  3  0  0  0  0  0  0  0  0  0
    5.4641   -0.2500    0.0000 C   0  0  0  0  0  0  0  0  0  0  0  0
    5.4641   -1.2500    0.0000 C   0  0  0  0  0  0  0  0  0  0  0  0
    6.3301    1.2500    0.0000 C   0  0  0  0  0  0  0  0  0  0  0  0
    7.1962   -1.2500    0.0000 C   0  0  0  0  0  0  0  0  0  0  0  0
    4.5981   -1.7500    0.0000 C   0  0  0  0  0  0  0  0  0  0  0  0
    4.5981    0.2500    0.0000 C   0  0  0  0  0  0  0  0  0  0  0  0
    7.1962    1.7500    0.0000 C   0  0  0  0  0  0  0  0  0  0  0  0
    5.4641    1.7500    0.0000 C   0  0  0  0  0  0  0  0  0  0  0  0
    8.0622   -1.7500    0.0000 C   0  0  0  0  0  0  0  0  0  0  0  0
    7.1962    2.7500    0.0000 C   0  0  0  0  0  0  0  0  0  0  0  0
    5.4641    2.7500    0.0000 C   0  0  0  0  0  0  0  0  0  0  0  0
    6.3301    3.2500    0.0000 C   0  0  0  0  0  0  0  0  0  0  0  0
    8.0622   -2.7500    0.0000 C   0  0  0  0  0  0  0  0  0  0  0  0
    3.7320   -3.2500    0.0000 C   0  0  0  0  0  0  0  0  0  0  0  0
    2.8660    0.2500    0.0000 C   0  0  0  0  0  0  0  0  0  0  0  0
    8.9282   -3.2500    0.0000 C   0  0  0  0  0  0  0  0  0  0  0  0
    3.7320   -4.2500    0.0000 C   0  0  0  0  0  0  0  0  0  0  0  0
    9.7942   -1.7500    0.0000 C   0  0  0  0  0  0  0  0  0  0  0  0
    9.7942   -2.7500    0.0000 C   0  0  0  0  0  0  0  0  0  0  0  0
    2.0000   -0.2500    0.0000 C   0  0  0  0  0  0  0  0  0  0  0  0
    6.8671    0.5600    0.0000 H   0  0  0  0  0  0  0  0  0  0  0  0
    6.3301   -2.3700    0.0000 H   0  0  0  0  0  0  0  0  0  0  0  0
    4.3860   -1.1674    0.0000 H   0  0  0  0  0  0  0  0  0  0  0  0
    3.9875   -1.8577    0.0000 H   0  0  0  0  0  0  0  0  0  0  0  0
    4.9272    1.4400    0.0000 H   0  0  0  0  0  0  0  0  0  0  0  0
    7.7331    3.0600    0.0000 H   0  0  0  0  0  0  0  0  0  0  0  0
    4.9272    3.0600    0.0000 H   0  0  0  0  0  0  0  0  0  0  0  0
    3.5200   -2.6674    0.0000 H   0  0  0  0  0  0  0  0  0  0  0  0
    3.1215   -3.3577    0.0000 H   0  0  0  0  0  0  0  0  0  0  0  0
    3.2646    0.7249    0.0000 H   0  0  0  0  0  0  0  0  0  0  0  0
    2.4675    0.7249    0.0000 H   0  0  0  0  0  0  0  0  0  0  0  0
    8.9282   -3.8700    0.0000 H   0  0  0  0  0  0  0  0  0  0  0  0
    3.1120   -4.2500    0.0000 H   0  0  0  0  0  0  0  0  0  0  0  0
    3.7320   -4.8700    0.0000 H   0  0  0  0  0  0  0  0  0  0  0  0
    4.3520   -4.2500    0.0000 H   0  0  0  0  0  0  0  0  0  0  0  0
   10.3312   -1.4400    0.0000 H   0  0  0  0  0  0  0  0  0  0  0  0
    1.6900    0.2869    0.0000 H   0  0  0  0  0  0  0  0  0  0  0  0
    1.4631   -0.5600    0.0000 H   0  0  0  0  0  0  0  0  0  0  0  0
    2.3100   -0.7869    0.0000 H   0  0  0  0  0  0  0  0  0  0  0  0
  1 18  1  0  0  0  0
  2 23  1  0  0  0  0
  3 24  1  0  0  0  0
  4 30  1  0  0  0  0
  5 16  1  0  0  0  0
  5 25  1  0  0  0  0
  6 17  1  0  0  0  0
  6 26  1  0  0  0  0
  7 17  2  0  0  0  0
  8 13  1  0  0  0  0
  8 15  1  0  0  0  0
  8 33  1  0  0  0  0
  9 11  1  0  0  0  0
  9 15  2  0  0  0  0
 10 20  1  0  0  0  0
 10 29  2  0  0  0  0
 11 12  1  0  0  0  0
 11 14  1  0  0  0  0
 11 32  1  0  0  0  0
 12 13  2  0  0  0  0
 12 17  1  0  0  0  0
 13 16  1  0  0  0  0
 14 18  2  0  0  0  0
 14 19  1  0  0  0  0
 15 20  1  0  0  0  0
 16 34  1  0  0  0  0
 16 35  1  0  0  0  0
 18 21  1  0  0  0  0
 19 22  2  0  0  0  0
 19 36  1  0  0  0  0
 20 24  2  0  0  0  0
 21 23  2  0  0  0  0
 21 37  1  0  0  0  0
 22 23  1  0  0  0  0
 22 38  1  0  0  0  0
 24 27  1  0  0  0  0
 25 28  1  0  0  0  0
 25 39  1  0  0  0  0
 25 40  1  0  0  0  0
 26 31  1  0  0  0  0
 26 41  1  0  0  0  0
 26 42  1  0  0  0  0
 27 30  2  0  0  0  0
 27 43  1  0  0  0  0
 28 44  1  0  0  0  0
 28 45  1  0  0  0  0
 28 46  1  0  0  0  0
 29 30  1  0  0  0  0
 29 47  1  0  0  0  0
 31 48  1  0  0  0  0
 31 49  1  0  0  0  0
 31 50  1  0  0  0  0
M  END
> <PUBCHEM_COMPOUND_CID>
509040
> <PUBCHEM_COMPOUND_CANONICALIZED>
1
> <PUBCHEM_CACTVS_COMPLEXITY>
709
> <PUBCHEM_CACTVS_HBOND_ACCEPTOR>
8
> <PUBCHEM_CACTVS_HBOND_DONOR>
1
> <PUBCHEM_CACTVS_ROTATABLE_BOND>
8
> <PUBCHEM_CACTVS_SUBSKEYS>
AAADceB7MYAEAAAAAAAAAAAAAAAAAAAAAAA8QIAAAAAAAAABwAAAHwIQAAAADCrhni4/iJLIFACoAzb3bACCgCExBSAJ2CEoRtgKZPrBu5GXMAhmkADY6UeYyKCOAAAAAAABAAAAAAAAAAIAAAAAAAAAAA==
> <PUBCHEM_IUPAC_OPENEYE_NAME>
ethyl 4-(2-chloro-4-fluoro-phenyl)-2-(3,5-difluoro-2-pyridyl)-6-(ethoxymethyl)-1,4-dihydropyrimidine-5-carboxylate
> <PUBCHEM_IUPAC_CAS_NAME>
4-(2-chloro-4-fluorophenyl)-2-(3,5-difluoro-2-pyridinyl)-6-(ethoxymethyl)-1,4-dihydropyrimidine-5-carboxylic acid ethyl ester
> <PUBCHEM_IUPAC_NAME_MARKUP>
ethyl 4-(2-chloro-4-fluorophenyl)-2-(3,5-difluoropyridin-2-yl)-6-(ethoxymethyl)-1,4-dihydropyrimidine-5-carboxylate
> <PUBCHEM_IUPAC_NAME>
ethyl 4-(2-chloro-4-fluorophenyl)-2-(3,5-difluoropyridin-2-yl)-6-(ethoxymethyl)-1,4-dihydropyrimidine-5-carboxylate
> <PUBCHEM_IUPAC_SYSTEMATIC_NAME>
ethyl 2-[3,5-bis(fluoranyl)pyridin-2-yl]-4-(2-chloranyl-4-fluoranyl-phenyl)-6-(ethoxymethyl)-1,4-dihydropyrimidine-5-carboxylate
> <PUBCHEM_IUPAC_TRADITIONAL_NAME>
4-(2-chloro-4-fluoro-phenyl)-2-(3,5-difluoro-2-pyridyl)-6-(ethoxymethyl)-1,4-dihydropyrimidine-5-carboxylic acid ethyl ester
> <PUBCHEM_IUPAC_INCHI>
InChI=1S/C21H19ClF3N3O3/c1-3-30-10-16-17(21(29)31-4-2)18(13-6-5-11(23)7-14(13)22)28-20(27-16)19-15(25)8-12(24)9-26-19/h5-9,18H,3-4,10H2,1-2H3,(H,27,28)
> <PUBCHEM_IUPAC_INCHIKEY>
QTDOZNXBRMVTOE-UHFFFAOYSA-N
> <PUBCHEM_XLOGP3_AA>
3.1
> <PUBCHEM_EXACT_MASS>
453.1067037
> <PUBCHEM_MOLECULAR_FORMULA>
C21H19ClF3N3O3
> <PUBCHEM_MOLECULAR_WEIGHT>
453.8
> <PUBCHEM_OPENEYE_CAN_SMILES>
CCOCC1=C(C(N=C(N1)C2=C(C=C(C=N2)F)F)C3=C(C=C(C=C3)F)Cl)C(=O)OCC
> <PUBCHEM_OPENEYE_ISO_SMILES>
CCOCC1=C(C(N=C(N1)C2=C(C=C(C=N2)F)F)C3=C(C=C(C=C3)F)Cl)C(=O)OCC
> <PUBCHEM_CACTVS_TPSA>
72.8
> <PUBCHEM_MONOISOTOPIC_WEIGHT>
453.1067037
> <PUBCHEM_TOTAL_CHARGE>
0
> <PUBCHEM_HEAVY_ATOM_COUNT>
31
> <PUBCHEM_ATOM_DEF_STEREO_COUNT>
0
> <PUBCHEM_ATOM_UDEF_STEREO_COUNT>
1
> <PUBCHEM_BOND_DEF_STEREO_COUNT>
0
> <PUBCHEM_BOND_UDEF_STEREO_COUNT>
0
> <PUBCHEM_ISOTOPIC_ATOM_COUNT>
0
> <PUBCHEM_COMPONENT_COUNT>
1
> <PUBCHEM_CACTVS_TAUTO_COUNT>
-1
> <PUBCHEM_COORDINATE_TYPE>
1
5
255
> <PUBCHEM_BONDANNOTATIONS>
10  20  8
10  29  8
11  14  3
14  18  8
14  19  8
18  21  8
19  22  8
20  24  8
21  23  8
22  23  8
24  27  8
27  30  8
29  30  8
$$$$
