509051
  -OEChem-10302200282D
 65 69  0     1  0  0  0  0  0999 V2000
   10.8111   -0.5655    0.0000 Cl  0  0  0  0  0  0  0  0  0  0  0  0
    6.6614    1.3789    0.0000 F   0  0  0  0  0  0  0  0  0  0  0  0
   12.2200   -3.7301    0.0000 F   0  0  0  0  0  0  0  0  0  0  0  0
    8.6976    4.1815    0.0000 F   0  0  0  0  0  0  0  0  0  0  0  0
    3.5000   -1.3829    0.0000 O   0  0  0  0  0  0  0  0  0  0  0  0
    7.0524   -3.1869    0.0000 O   0  0  0  0  0  0  0  0  0  0  0  0
    8.7749   -3.3680    0.0000 O   0  0  0  0  0  0  0  0  0  0  0  0
    5.5388   -1.0168    0.0000 N   0  0  3  0  0  0  0  0  0  0  0  0
    2.5000    0.3492    0.0000 N   0  0  3  0  0  0  0  0  0  0  0  0
    7.3659   -0.2034    0.0000 N   0  0  0  0  0  0  0  0  0  0  0  0
    9.0885   -0.3844    0.0000 N   0  0  0  0  0  0  0  0  0  0  0  0
    9.2976    1.6046    0.0000 N   0  0  0  0  0  0  0  0  0  0  0  0
    4.0000   -0.5168    0.0000 C   0  0  3  0  0  0  0  0  0  0  0  0
    4.5878    0.2922    0.0000 C   0  0  0  0  0  0  0  0  0  0  0  0
    4.5878   -1.3259    0.0000 C   0  0  0  0  0  0  0  0  0  0  0  0
    3.5000    0.3492    0.0000 C   0  0  0  0  0  0  0  0  0  0  0  0
    5.5388   -0.0168    0.0000 C   0  0  0  0  0  0  0  0  0  0  0  0
    6.3479   -1.6046    0.0000 C   0  0  0  0  0  0  0  0  0  0  0  0
    2.0000   -0.5168    0.0000 C   0  0  0  0  0  0  0  0  0  0  0  0
    2.5000   -1.3829    0.0000 C   0  0  0  0  0  0  0  0  0  0  0  0
    7.2614   -1.1979    0.0000 C   0  0  0  0  0  0  0  0  0  0  0  0
    2.0000    1.2152    0.0000 C   0  0  0  0  0  0  0  0  0  0  0  0
    8.0704   -1.7857    0.0000 C   0  0  0  0  0  0  0  0  0  0  0  0
    8.9840   -1.3789    0.0000 C   0  0  2  0  0  0  0  0  0  0  0  0
    8.2795    0.2034    0.0000 C   0  0  0  0  0  0  0  0  0  0  0  0
    7.9659   -2.7802    0.0000 C   0  0  0  0  0  0  0  0  0  0  0  0
    9.7930   -1.9667    0.0000 C   0  0  0  0  0  0  0  0  0  0  0  0
    8.3840    1.1979    0.0000 C   0  0  0  0  0  0  0  0  0  0  0  0
   10.7065   -1.5600    0.0000 C   0  0  0  0  0  0  0  0  0  0  0  0
    9.6885   -2.9612    0.0000 C   0  0  0  0  0  0  0  0  0  0  0  0
    7.5750    1.7857    0.0000 C   0  0  0  0  0  0  0  0  0  0  0  0
   11.5155   -2.1478    0.0000 C   0  0  0  0  0  0  0  0  0  0  0  0
   10.4975   -3.5490    0.0000 C   0  0  0  0  0  0  0  0  0  0  0  0
   11.4110   -3.1423    0.0000 C   0  0  0  0  0  0  0  0  0  0  0  0
    6.9478   -4.1815    0.0000 C   0  0  0  0  0  0  0  0  0  0  0  0
    7.6795    2.7802    0.0000 C   0  0  0  0  0  0  0  0  0  0  0  0
    9.4021    2.5992    0.0000 C   0  0  0  0  0  0  0  0  0  0  0  0
    8.5931    3.1869    0.0000 C   0  0  0  0  0  0  0  0  0  0  0  0
    4.8400    0.8586    0.0000 H   0  0  0  0  0  0  0  0  0  0  0  0
    4.0508    0.6022    0.0000 H   0  0  0  0  0  0  0  0  0  0  0  0
    4.0508   -1.6359    0.0000 H   0  0  0  0  0  0  0  0  0  0  0  0
    4.8400   -1.8923    0.0000 H   0  0  0  0  0  0  0  0  0  0  0  0
    4.0826    0.5612    0.0000 H   0  0  0  0  0  0  0  0  0  0  0  0
    3.3923    0.9598    0.0000 H   0  0  0  0  0  0  0  0  0  0  0  0
    6.1554   -0.0816    0.0000 H   0  0  0  0  0  0  0  0  0  0  0  0
    5.6678    0.5896    0.0000 H   0  0  0  0  0  0  0  0  0  0  0  0
    5.9019   -2.0353    0.0000 H   0  0  0  0  0  0  0  0  0  0  0  0
    6.6946   -2.1186    0.0000 H   0  0  0  0  0  0  0  0  0  0  0  0
    1.5250   -0.1183    0.0000 H   0  0  0  0  0  0  0  0  0  0  0  0
    1.5250   -0.9154    0.0000 H   0  0  0  0  0  0  0  0  0  0  0  0
    1.9174   -1.5949    0.0000 H   0  0  0  0  0  0  0  0  0  0  0  0
    2.6077   -1.9934    0.0000 H   0  0  0  0  0  0  0  0  0  0  0  0
    2.5369    1.5252    0.0000 H   0  0  0  0  0  0  0  0  0  0  0  0
    1.6900    1.7522    0.0000 H   0  0  0  0  0  0  0  0  0  0  0  0
    1.4631    0.9052    0.0000 H   0  0  0  0  0  0  0  0  0  0  0  0
    6.8643    0.1611    0.0000 H   0  0  0  0  0  0  0  0  0  0  0  0
    8.9192   -1.9955    0.0000 H   0  0  0  0  0  0  0  0  0  0  0  0
    9.1221   -3.2134    0.0000 H   0  0  0  0  0  0  0  0  0  0  0  0
   12.0819   -1.8956    0.0000 H   0  0  0  0  0  0  0  0  0  0  0  0
   10.4327   -4.1656    0.0000 H   0  0  0  0  0  0  0  0  0  0  0  0
    6.3312   -4.1166    0.0000 H   0  0  0  0  0  0  0  0  0  0  0  0
    6.8830   -4.7981    0.0000 H   0  0  0  0  0  0  0  0  0  0  0  0
    7.5644   -4.2463    0.0000 H   0  0  0  0  0  0  0  0  0  0  0  0
    7.1779    3.1446    0.0000 H   0  0  0  0  0  0  0  0  0  0  0  0
    9.9685    2.8513    0.0000 H   0  0  0  0  0  0  0  0  0  0  0  0
  1 29  1  0  0  0  0
  2 31  1  0  0  0  0
  3 34  1  0  0  0  0
  4 38  1  0  0  0  0
  5 13  1  0  0  0  0
  5 20  1  0  0  0  0
  6 26  1  0  0  0  0
  6 35  1  0  0  0  0
  7 26  2  0  0  0  0
  8 15  1  0  0  0  0
  8 17  1  0  0  0  0
  8 18  1  0  0  0  0
  9 16  1  0  0  0  0
  9 19  1  0  0  0  0
  9 22  1  0  0  0  0
 10 21  1  0  0  0  0
 10 25  1  0  0  0  0
 10 56  1  0  0  0  0
 11 24  1  0  0  0  0
 11 25  2  0  0  0  0
 12 28  1  0  0  0  0
 12 37  2  0  0  0  0
 13 14  1  0  0  0  0
 13 15  1  0  0  0  0
 13 16  1  0  0  0  0
 14 17  1  0  0  0  0
 14 39  1  0  0  0  0
 14 40  1  0  0  0  0
 15 41  1  0  0  0  0
 15 42  1  0  0  0  0
 16 43  1  0  0  0  0
 16 44  1  0  0  0  0
 17 45  1  0  0  0  0
 17 46  1  0  0  0  0
 18 21  1  0  0  0  0
 18 47  1  0  0  0  0
 18 48  1  0  0  0  0
 19 20  1  0  0  0  0
 19 49  1  0  0  0  0
 19 50  1  0  0  0  0
 20 51  1  0  0  0  0
 20 52  1  0  0  0  0
 21 23  2  0  0  0  0
 22 53  1  0  0  0  0
 22 54  1  0  0  0  0
 22 55  1  0  0  0  0
 23 24  1  0  0  0  0
 23 26  1  0  0  0  0
 24 27  1  1  0  0  0
 24 57  1  0  0  0  0
 25 28  1  0  0  0  0
 27 29  2  0  0  0  0
 27 30  1  0  0  0  0
 28 31  2  0  0  0  0
 29 32  1  0  0  0  0
 30 33  2  0  0  0  0
 30 58  1  0  0  0  0
 31 36  1  0  0  0  0
 32 34  2  0  0  0  0
 32 59  1  0  0  0  0
 33 34  1  0  0  0  0
 33 60  1  0  0  0  0
 35 61  1  0  0  0  0
 35 62  1  0  0  0  0
 35 63  1  0  0  0  0
 36 38  2  0  0  0  0
 36 64  1  0  0  0  0
 37 38  1  0  0  0  0
 37 65  1  0  0  0  0
M  END
> <PUBCHEM_COMPOUND_CID>
509051
> <PUBCHEM_COMPOUND_CANONICALIZED>
1
> <PUBCHEM_CACTVS_COMPLEXITY>
957
> <PUBCHEM_CACTVS_HBOND_ACCEPTOR>
10
> <PUBCHEM_CACTVS_HBOND_DONOR>
1
> <PUBCHEM_CACTVS_ROTATABLE_BOND>
6
> <PUBCHEM_CACTVS_SUBSKEYS>
AAADceB7sYAEAAAAAAAAAAAAAAAAAWAAAAA8WIEAAAAAAAABwAAAHwIQAAAADG7hni4/iJPIFACoAzb3bACCgCExBSAJ2CEoRtgKZPrB+5GXMAhmkADY6UeYyKCOAAAAAAABAAAAAAAAAAIAAAAAAAAAAA==
> <PUBCHEM_IUPAC_OPENEYE_NAME>
methyl (4R)-4-(2-chloro-4-fluoro-phenyl)-2-(3,5-difluoro-2-pyridyl)-6-[(9-methyl-6-oxa-2,9-diazaspiro[4.5]decan-2-yl)methyl]-1,4-dihydropyrimidine-5-carboxylate
> <PUBCHEM_IUPAC_CAS_NAME>
(4R)-4-(2-chloro-4-fluorophenyl)-2-(3,5-difluoro-2-pyridinyl)-6-[(9-methyl-6-oxa-2,9-diazaspiro[4.5]decan-2-yl)methyl]-1,4-dihydropyrimidine-5-carboxylic acid methyl ester
> <PUBCHEM_IUPAC_NAME_MARKUP>
methyl (4<I>R</I>)-4-(2-chloro-4-fluorophenyl)-2-(3,5-difluoropyridin-2-yl)-6-[(9-methyl-6-oxa-2,9-diazaspiro[4.5]decan-2-yl)methyl]-1,4-dihydropyrimidine-5-carboxylate
> <PUBCHEM_IUPAC_NAME>
methyl (4R)-4-(2-chloro-4-fluorophenyl)-2-(3,5-difluoropyridin-2-yl)-6-[(9-methyl-6-oxa-2,9-diazaspiro[4.5]decan-2-yl)methyl]-1,4-dihydropyrimidine-5-carboxylate
> <PUBCHEM_IUPAC_SYSTEMATIC_NAME>
methyl (4R)-2-[3,5-bis(fluoranyl)pyridin-2-yl]-4-(2-chloranyl-4-fluoranyl-phenyl)-6-[(9-methyl-6-oxa-2,9-diazaspiro[4.5]decan-2-yl)methyl]-1,4-dihydropyrimidine-5-carboxylate
> <PUBCHEM_IUPAC_TRADITIONAL_NAME>
(4R)-4-(2-chloro-4-fluoro-phenyl)-2-(3,5-difluoro-2-pyridyl)-6-[(9-methyl-6-oxa-2,9-diazaspiro[4.5]decan-2-yl)methyl]-1,4-dihydropyrimidine-5-carboxylic acid methyl ester
> <PUBCHEM_IUPAC_INCHI>
InChI=1S/C26H27ClF3N5O3/c1-34-7-8-38-26(13-34)5-6-35(14-26)12-20-21(25(36)37-2)22(17-4-3-15(28)9-18(17)27)33-24(32-20)23-19(30)10-16(29)11-31-23/h3-4,9-11,22H,5-8,12-14H2,1-2H3,(H,32,33)/t22-,26?/m0/s1
> <PUBCHEM_IUPAC_INCHIKEY>
ZMVDIKQWNQTWML-CHQVSRGASA-N
> <PUBCHEM_XLOGP3_AA>
2.3
> <PUBCHEM_EXACT_MASS>
549.1754519
> <PUBCHEM_MOLECULAR_FORMULA>
C26H27ClF3N5O3
> <PUBCHEM_MOLECULAR_WEIGHT>
550.0
> <PUBCHEM_OPENEYE_CAN_SMILES>
CN1CCOC2(C1)CCN(C2)CC3=C(C(N=C(N3)C4=C(C=C(C=N4)F)F)C5=C(C=C(C=C5)F)Cl)C(=O)OC
> <PUBCHEM_OPENEYE_ISO_SMILES>
CN1CCOC2(C1)CCN(C2)CC3=C([C@@H](N=C(N3)C4=C(C=C(C=N4)F)F)C5=C(C=C(C=C5)F)Cl)C(=O)OC
> <PUBCHEM_CACTVS_TPSA>
79.3
> <PUBCHEM_MONOISOTOPIC_WEIGHT>
549.1754519
> <PUBCHEM_TOTAL_CHARGE>
0
> <PUBCHEM_HEAVY_ATOM_COUNT>
38
> <PUBCHEM_ATOM_DEF_STEREO_COUNT>
1
> <PUBCHEM_ATOM_UDEF_STEREO_COUNT>
1
> <PUBCHEM_BOND_DEF_STEREO_COUNT>
0
> <PUBCHEM_BOND_UDEF_STEREO_COUNT>
0
> <PUBCHEM_ISOTOPIC_ATOM_COUNT>
0
> <PUBCHEM_COMPONENT_COUNT>
1
> <PUBCHEM_CACTVS_TAUTO_COUNT>
-1
> <PUBCHEM_COORDINATE_TYPE>
1
5
255
> <PUBCHEM_BONDANNOTATIONS>
12  28  8
12  37  8
13  14  3
24  27  5
27  29  8
27  30  8
28  31  8
29  32  8
30  33  8
31  36  8
32  34  8
33  34  8
36  38  8
37  38  8
$$$$
