509003
  -OEChem-10302200282D
 68 70  0     1  0  0  0  0  0999 V2000
   10.3312    4.7500    0.0000 Cl  0  0  0  0  0  0  0  0  0  0  0  0
   10.3312    6.7500    0.0000 Cl  0  0  0  0  0  0  0  0  0  0  0  0
    2.5369   -5.7500    0.0000 Cl  0  0  0  0  0  0  0  0  0  0  0  0
    4.2690   -6.7500    0.0000 Cl  0  0  0  0  0  0  0  0  0  0  0  0
    6.8671   -1.2500    0.0000 O   0  0  0  0  0  0  0  0  0  0  0  0
    3.4030   -2.2500    0.0000 O   0  0  0  0  0  0  0  0  0  0  0  0
    6.8671    3.7500    0.0000 N   0  0  0  0  0  0  0  0  0  0  0  0
    6.0010    0.2500    0.0000 N   0  0  0  0  0  0  0  0  0  0  0  0
    5.1350   -2.2500    0.0000 N   0  0  0  0  0  0  0  0  0  0  0  0
    2.5369    2.2500    0.0000 N   0  0  0  0  0  0  0  0  0  0  0  0
    6.8671    1.7500    0.0000 C   0  0  0  0  0  0  0  0  0  0  0  0
    6.0010    2.2500    0.0000 C   0  0  0  0  0  0  0  0  0  0  0  0
    7.7331    2.2500    0.0000 C   0  0  0  0  0  0  0  0  0  0  0  0
    6.0010    3.2500    0.0000 C   0  0  0  0  0  0  0  0  0  0  0  0
    7.7331    3.2500    0.0000 C   0  0  0  0  0  0  0  0  0  0  0  0
    6.8671    0.7500    0.0000 C   0  0  0  0  0  0  0  0  0  0  0  0
    6.8671    4.7500    0.0000 C   0  0  0  0  0  0  0  0  0  0  0  0
    7.7331    5.2500    0.0000 C   0  0  0  0  0  0  0  0  0  0  0  0
    5.1350   -1.2500    0.0000 C   0  0  2  0  0  0  0  0  0  0  0  0
    6.0010   -0.7500    0.0000 C   0  0  0  0  0  0  0  0  0  0  0  0
    4.2690   -0.7500    0.0000 C   0  0  0  0  0  0  0  0  0  0  0  0
    4.2690    0.2500    0.0000 C   0  0  0  0  0  0  0  0  0  0  0  0
    8.5991    4.7500    0.0000 C   0  0  0  0  0  0  0  0  0  0  0  0
    7.7331    6.2500    0.0000 C   0  0  0  0  0  0  0  0  0  0  0  0
    3.4030    0.7500    0.0000 C   0  0  0  0  0  0  0  0  0  0  0  0
    9.4651    5.2500    0.0000 C   0  0  0  0  0  0  0  0  0  0  0  0
    8.5991    6.7500    0.0000 C   0  0  0  0  0  0  0  0  0  0  0  0
    3.4030    1.7500    0.0000 C   0  0  0  0  0  0  0  0  0  0  0  0
    4.2690   -2.7500    0.0000 C   0  0  0  0  0  0  0  0  0  0  0  0
    9.4651    6.2500    0.0000 C   0  0  0  0  0  0  0  0  0  0  0  0
    4.2690   -3.7500    0.0000 C   0  0  0  0  0  0  0  0  0  0  0  0
    3.4030   -4.2500    0.0000 C   0  0  0  0  0  0  0  0  0  0  0  0
    5.1350   -4.2500    0.0000 C   0  0  0  0  0  0  0  0  0  0  0  0
    3.4030   -5.2500    0.0000 C   0  0  0  0  0  0  0  0  0  0  0  0
    5.1350   -5.2500    0.0000 C   0  0  0  0  0  0  0  0  0  0  0  0
    4.2690   -5.7500    0.0000 C   0  0  0  0  0  0  0  0  0  0  0  0
    6.3301    1.4400    0.0000 H   0  0  0  0  0  0  0  0  0  0  0  0
    5.3905    2.3577    0.0000 H   0  0  0  0  0  0  0  0  0  0  0  0
    5.7890    1.6674    0.0000 H   0  0  0  0  0  0  0  0  0  0  0  0
    7.9451    1.6674    0.0000 H   0  0  0  0  0  0  0  0  0  0  0  0
    8.3437    2.3577    0.0000 H   0  0  0  0  0  0  0  0  0  0  0  0
    5.7890    3.8326    0.0000 H   0  0  0  0  0  0  0  0  0  0  0  0
    5.3905    3.1423    0.0000 H   0  0  0  0  0  0  0  0  0  0  0  0
    8.3437    3.1423    0.0000 H   0  0  0  0  0  0  0  0  0  0  0  0
    7.9451    3.8326    0.0000 H   0  0  0  0  0  0  0  0  0  0  0  0
    7.0791    0.1674    0.0000 H   0  0  0  0  0  0  0  0  0  0  0  0
    7.4776    0.8577    0.0000 H   0  0  0  0  0  0  0  0  0  0  0  0
    6.6550    5.3326    0.0000 H   0  0  0  0  0  0  0  0  0  0  0  0
    6.2565    4.6423    0.0000 H   0  0  0  0  0  0  0  0  0  0  0  0
    5.4641    0.5600    0.0000 H   0  0  0  0  0  0  0  0  0  0  0  0
    5.6720   -1.5600    0.0000 H   0  0  0  0  0  0  0  0  0  0  0  0
    3.6584   -0.6423    0.0000 H   0  0  0  0  0  0  0  0  0  0  0  0
    4.0569   -1.3326    0.0000 H   0  0  0  0  0  0  0  0  0  0  0  0
    4.8796    0.1423    0.0000 H   0  0  0  0  0  0  0  0  0  0  0  0
    4.4810    0.8326    0.0000 H   0  0  0  0  0  0  0  0  0  0  0  0
    8.5991    4.1300    0.0000 H   0  0  0  0  0  0  0  0  0  0  0  0
    7.1962    6.5600    0.0000 H   0  0  0  0  0  0  0  0  0  0  0  0
    5.6720   -2.5600    0.0000 H   0  0  0  0  0  0  0  0  0  0  0  0
    2.7924    0.8577    0.0000 H   0  0  0  0  0  0  0  0  0  0  0  0
    3.1909    0.1674    0.0000 H   0  0  0  0  0  0  0  0  0  0  0  0
    8.5991    7.3700    0.0000 H   0  0  0  0  0  0  0  0  0  0  0  0
    4.0135    1.6423    0.0000 H   0  0  0  0  0  0  0  0  0  0  0  0
    3.6150    2.3326    0.0000 H   0  0  0  0  0  0  0  0  0  0  0  0
    2.5369    2.8700    0.0000 H   0  0  0  0  0  0  0  0  0  0  0  0
    2.0000    1.9400    0.0000 H   0  0  0  0  0  0  0  0  0  0  0  0
    2.8660   -3.9400    0.0000 H   0  0  0  0  0  0  0  0  0  0  0  0
    5.6720   -3.9400    0.0000 H   0  0  0  0  0  0  0  0  0  0  0  0
    5.6720   -5.5600    0.0000 H   0  0  0  0  0  0  0  0  0  0  0  0
  1 26  1  0  0  0  0
  2 30  1  0  0  0  0
  3 34  1  0  0  0  0
  4 36  1  0  0  0  0
  5 20  2  0  0  0  0
  6 29  2  0  0  0  0
  7 14  1  0  0  0  0
  7 15  1  0  0  0  0
  7 17  1  0  0  0  0
  8 16  1  0  0  0  0
  8 20  1  0  0  0  0
  8 50  1  0  0  0  0
 19  9  1  1  0  0  0
  9 29  1  0  0  0  0
  9 58  1  0  0  0  0
 10 28  1  0  0  0  0
 10 64  1  0  0  0  0
 10 65  1  0  0  0  0
 11 12  1  0  0  0  0
 11 13  1  0  0  0  0
 11 16  1  0  0  0  0
 11 37  1  0  0  0  0
 12 14  1  0  0  0  0
 12 38  1  0  0  0  0
 12 39  1  0  0  0  0
 13 15  1  0  0  0  0
 13 40  1  0  0  0  0
 13 41  1  0  0  0  0
 14 42  1  0  0  0  0
 14 43  1  0  0  0  0
 15 44  1  0  0  0  0
 15 45  1  0  0  0  0
 16 46  1  0  0  0  0
 16 47  1  0  0  0  0
 17 18  1  0  0  0  0
 17 48  1  0  0  0  0
 17 49  1  0  0  0  0
 18 23  2  0  0  0  0
 18 24  1  0  0  0  0
 19 20  1  0  0  0  0
 19 21  1  0  0  0  0
 19 51  1  0  0  0  0
 21 22  1  0  0  0  0
 21 52  1  0  0  0  0
 21 53  1  0  0  0  0
 22 25  1  0  0  0  0
 22 54  1  0  0  0  0
 22 55  1  0  0  0  0
 23 26  1  0  0  0  0
 23 56  1  0  0  0  0
 24 27  2  0  0  0  0
 24 57  1  0  0  0  0
 25 28  1  0  0  0  0
 25 59  1  0  0  0  0
 25 60  1  0  0  0  0
 26 30  2  0  0  0  0
 27 30  1  0  0  0  0
 27 61  1  0  0  0  0
 28 62  1  0  0  0  0
 28 63  1  0  0  0  0
 29 31  1  0  0  0  0
 31 32  2  0  0  0  0
 31 33  1  0  0  0  0
 32 34  1  0  0  0  0
 32 66  1  0  0  0  0
 33 35  2  0  0  0  0
 33 67  1  0  0  0  0
 34 36  2  0  0  0  0
 35 36  1  0  0  0  0
 35 68  1  0  0  0  0
M  END
> <PUBCHEM_COMPOUND_CID>
509003
> <PUBCHEM_COMPOUND_CANONICALIZED>
1
> <PUBCHEM_CACTVS_COMPLEXITY>
695
> <PUBCHEM_CACTVS_HBOND_ACCEPTOR>
4
> <PUBCHEM_CACTVS_HBOND_DONOR>
3
> <PUBCHEM_CACTVS_ROTATABLE_BOND>
11
> <PUBCHEM_CACTVS_SUBSKEYS>
AAADcfB7sAAHAAAAAAAAAAAAAAAAAAAAAAA8YIAAAAAAAAABQAAAHgIQAAAADSrBmCQwAIPAAACIAiFSEACCAAAkBQAIisGIBsgIYDKBlzGUIQhglgCIiYcYiACOBAAAIAAAAAQIAABAAAAACAAAAAAAAA==
> <PUBCHEM_IUPAC_OPENEYE_NAME>
N-[(1S)-5-amino-1-[[1-[(3,4-dichlorophenyl)methyl]-4-piperidyl]methylcarbamoyl]pentyl]-3,4-dichloro-benzamide
> <PUBCHEM_IUPAC_CAS_NAME>
N-[(2S)-6-amino-1-[[1-[(3,4-dichlorophenyl)methyl]-4-piperidinyl]methylamino]-1-oxohexan-2-yl]-3,4-dichlorobenzamide
> <PUBCHEM_IUPAC_NAME_MARKUP>
<I>N</I>-[(2<I>S</I>)-6-amino-1-[[1-[(3,4-dichlorophenyl)methyl]piperidin-4-yl]methylamino]-1-oxohexan-2-yl]-3,4-dichlorobenzamide
> <PUBCHEM_IUPAC_NAME>
N-[(2S)-6-amino-1-[[1-[(3,4-dichlorophenyl)methyl]piperidin-4-yl]methylamino]-1-oxohexan-2-yl]-3,4-dichlorobenzamide
> <PUBCHEM_IUPAC_SYSTEMATIC_NAME>
N-[(2S)-6-azanyl-1-[[1-[(3,4-dichlorophenyl)methyl]piperidin-4-yl]methylamino]-1-oxidanylidene-hexan-2-yl]-3,4-bis(chloranyl)benzamide
> <PUBCHEM_IUPAC_TRADITIONAL_NAME>
N-[(1S)-5-amino-1-[[1-(3,4-dichlorobenzyl)-4-piperidyl]methylcarbamoyl]pentyl]-3,4-dichloro-benzamide
> <PUBCHEM_IUPAC_INCHI>
InChI=1S/C26H32Cl4N4O2/c27-20-6-4-18(13-22(20)29)16-34-11-8-17(9-12-34)15-32-26(36)24(3-1-2-10-31)33-25(35)19-5-7-21(28)23(30)14-19/h4-7,13-14,17,24H,1-3,8-12,15-16,31H2,(H,32,36)(H,33,35)/t24-/m0/s1
> <PUBCHEM_IUPAC_INCHIKEY>
BXTRNTLNWLFKLM-DEOSSOPVSA-N
> <PUBCHEM_XLOGP3_AA>
5.5
> <PUBCHEM_EXACT_MASS>
574.124987
> <PUBCHEM_MOLECULAR_FORMULA>
C26H32Cl4N4O2
> <PUBCHEM_MOLECULAR_WEIGHT>
574.4
> <PUBCHEM_OPENEYE_CAN_SMILES>
C1CN(CCC1CNC(=O)C(CCCCN)NC(=O)C2=CC(=C(C=C2)Cl)Cl)CC3=CC(=C(C=C3)Cl)Cl
> <PUBCHEM_OPENEYE_ISO_SMILES>
C1CN(CCC1CNC(=O)[C@H](CCCCN)NC(=O)C2=CC(=C(C=C2)Cl)Cl)CC3=CC(=C(C=C3)Cl)Cl
> <PUBCHEM_CACTVS_TPSA>
87.5
> <PUBCHEM_MONOISOTOPIC_WEIGHT>
572.127937
> <PUBCHEM_TOTAL_CHARGE>
0
> <PUBCHEM_HEAVY_ATOM_COUNT>
36
> <PUBCHEM_ATOM_DEF_STEREO_COUNT>
1
> <PUBCHEM_ATOM_UDEF_STEREO_COUNT>
0
> <PUBCHEM_BOND_DEF_STEREO_COUNT>
0
> <PUBCHEM_BOND_UDEF_STEREO_COUNT>
0
> <PUBCHEM_ISOTOPIC_ATOM_COUNT>
0
> <PUBCHEM_COMPONENT_COUNT>
1
> <PUBCHEM_CACTVS_TAUTO_COUNT>
-1
> <PUBCHEM_COORDINATE_TYPE>
1
5
255
> <PUBCHEM_BONDANNOTATIONS>
18  23  8
18  24  8
23  26  8
24  27  8
26  30  8
27  30  8
31  32  8
31  33  8
32  34  8
33  35  8
34  36  8
35  36  8
19  9  5
$$$$
