509011
  -OEChem-10302200282D
 64 67  0     1  0  0  0  0  0999 V2000
    2.0000   -3.5173    0.0000 Cl  0  0  0  0  0  0  0  0  0  0  0  0
    2.0000   -5.5173    0.0000 Cl  0  0  0  0  0  0  0  0  0  0  0  0
    5.4641   -0.5173    0.0000 O   0  0  0  0  0  0  0  0  0  0  0  0
    7.1962   -3.5173    0.0000 O   0  0  0  0  0  0  0  0  0  0  0  0
    6.3301   -4.0173    0.0000 O   0  0  0  0  0  0  0  0  0  0  0  0
    9.7942    1.9827    0.0000 N   0  0  0  0  0  0  0  0  0  0  0  0
    7.1962   -0.5173    0.0000 N   0  0  0  0  0  0  0  0  0  0  0  0
    5.4641   -2.5173    0.0000 N   0  0  0  0  0  0  0  0  0  0  0  0
    8.0622    0.9827    0.0000 C   0  0  0  0  0  0  0  0  0  0  0  0
    8.9282    0.4827    0.0000 C   0  0  0  0  0  0  0  0  0  0  0  0
    8.0622    1.9827    0.0000 C   0  0  0  0  0  0  0  0  0  0  0  0
    9.7942    0.9827    0.0000 C   0  0  0  0  0  0  0  0  0  0  0  0
    8.9282    2.4827    0.0000 C   0  0  0  0  0  0  0  0  0  0  0  0
    7.1962    0.4827    0.0000 C   0  0  0  0  0  0  0  0  0  0  0  0
   10.6603    2.4827    0.0000 C   0  0  0  0  0  0  0  0  0  0  0  0
   10.6603    3.4827    0.0000 C   0  0  0  0  0  0  0  0  0  0  0  0
   11.5263    3.9827    0.0000 C   0  0  0  0  0  0  0  0  0  0  0  0
    6.3301   -1.0173    0.0000 C   0  0  0  0  0  0  0  0  0  0  0  0
    9.7942    3.9827    0.0000 C   0  0  0  0  0  0  0  0  0  0  0  0
    6.3301   -2.0173    0.0000 C   0  0  2  0  0  0  0  0  0  0  0  0
   11.5263    4.9827    0.0000 C   0  0  0  0  0  0  0  0  0  0  0  0
    9.7942    4.9827    0.0000 C   0  0  0  0  0  0  0  0  0  0  0  0
   12.4202    3.4480    0.0000 C   0  0  0  0  0  0  0  0  0  0  0  0
   10.6603    5.4827    0.0000 C   0  0  0  0  0  0  0  0  0  0  0  0
    7.1962   -2.5173    0.0000 C   0  0  0  0  0  0  0  0  0  0  0  0
   12.4202    5.5173    0.0000 C   0  0  0  0  0  0  0  0  0  0  0  0
   13.3263    3.9618    0.0000 C   0  0  0  0  0  0  0  0  0  0  0  0
   13.3263    5.0035    0.0000 C   0  0  0  0  0  0  0  0  0  0  0  0
    5.4641   -3.5173    0.0000 C   0  0  0  0  0  0  0  0  0  0  0  0
    4.5981   -4.0173    0.0000 C   0  0  0  0  0  0  0  0  0  0  0  0
    3.7320   -3.5173    0.0000 C   0  0  0  0  0  0  0  0  0  0  0  0
    4.5981   -5.0173    0.0000 C   0  0  0  0  0  0  0  0  0  0  0  0
    2.8660   -4.0173    0.0000 C   0  0  0  0  0  0  0  0  0  0  0  0
    3.7320   -5.5173    0.0000 C   0  0  0  0  0  0  0  0  0  0  0  0
    2.8660   -5.0173    0.0000 C   0  0  0  0  0  0  0  0  0  0  0  0
    8.0622    0.3627    0.0000 H   0  0  0  0  0  0  0  0  0  0  0  0
    8.5297    0.0077    0.0000 H   0  0  0  0  0  0  0  0  0  0  0  0
    9.3267    0.0077    0.0000 H   0  0  0  0  0  0  0  0  0  0  0  0
    7.8501    2.5653    0.0000 H   0  0  0  0  0  0  0  0  0  0  0  0
    7.4516    1.8750    0.0000 H   0  0  0  0  0  0  0  0  0  0  0  0
   10.0063    0.4001    0.0000 H   0  0  0  0  0  0  0  0  0  0  0  0
   10.4048    1.0903    0.0000 H   0  0  0  0  0  0  0  0  0  0  0  0
    9.3267    2.9576    0.0000 H   0  0  0  0  0  0  0  0  0  0  0  0
    8.5297    2.9576    0.0000 H   0  0  0  0  0  0  0  0  0  0  0  0
    6.9841    1.0653    0.0000 H   0  0  0  0  0  0  0  0  0  0  0  0
    6.5856    0.3750    0.0000 H   0  0  0  0  0  0  0  0  0  0  0  0
   10.8723    1.9001    0.0000 H   0  0  0  0  0  0  0  0  0  0  0  0
   11.2708    2.5903    0.0000 H   0  0  0  0  0  0  0  0  0  0  0  0
    7.7331   -0.8273    0.0000 H   0  0  0  0  0  0  0  0  0  0  0  0
    9.2573    3.6727    0.0000 H   0  0  0  0  0  0  0  0  0  0  0  0
    5.7932   -1.7073    0.0000 H   0  0  0  0  0  0  0  0  0  0  0  0
    9.2573    5.2927    0.0000 H   0  0  0  0  0  0  0  0  0  0  0  0
   12.4131    2.8280    0.0000 H   0  0  0  0  0  0  0  0  0  0  0  0
   10.6603    6.1027    0.0000 H   0  0  0  0  0  0  0  0  0  0  0  0
    7.8067   -2.6250    0.0000 H   0  0  0  0  0  0  0  0  0  0  0  0
    7.4082   -1.9347    0.0000 H   0  0  0  0  0  0  0  0  0  0  0  0
   12.4131    6.1373    0.0000 H   0  0  0  0  0  0  0  0  0  0  0  0
    4.9272   -2.2073    0.0000 H   0  0  0  0  0  0  0  0  0  0  0  0
   13.8620    3.6498    0.0000 H   0  0  0  0  0  0  0  0  0  0  0  0
   13.8620    5.3156    0.0000 H   0  0  0  0  0  0  0  0  0  0  0  0
    7.7331   -3.8273    0.0000 H   0  0  0  0  0  0  0  0  0  0  0  0
    3.7320   -2.8973    0.0000 H   0  0  0  0  0  0  0  0  0  0  0  0
    5.1350   -5.3273    0.0000 H   0  0  0  0  0  0  0  0  0  0  0  0
    3.7320   -6.1373    0.0000 H   0  0  0  0  0  0  0  0  0  0  0  0
  1 33  1  0  0  0  0
  2 35  1  0  0  0  0
  3 18  2  0  0  0  0
  4 25  1  0  0  0  0
  4 61  1  0  0  0  0
  5 29  2  0  0  0  0
  6 12  1  0  0  0  0
  6 13  1  0  0  0  0
  6 15  1  0  0  0  0
  7 14  1  0  0  0  0
  7 18  1  0  0  0  0
  7 49  1  0  0  0  0
 20  8  1  6  0  0  0
  8 29  1  0  0  0  0
  8 58  1  0  0  0  0
  9 10  1  0  0  0  0
  9 11  1  0  0  0  0
  9 14  1  0  0  0  0
  9 36  1  0  0  0  0
 10 12  1  0  0  0  0
 10 37  1  0  0  0  0
 10 38  1  0  0  0  0
 11 13  1  0  0  0  0
 11 39  1  0  0  0  0
 11 40  1  0  0  0  0
 12 41  1  0  0  0  0
 12 42  1  0  0  0  0
 13 43  1  0  0  0  0
 13 44  1  0  0  0  0
 14 45  1  0  0  0  0
 14 46  1  0  0  0  0
 15 16  1  0  0  0  0
 15 47  1  0  0  0  0
 15 48  1  0  0  0  0
 16 17  1  0  0  0  0
 16 19  2  0  0  0  0
 17 21  1  0  0  0  0
 17 23  2  0  0  0  0
 18 20  1  0  0  0  0
 19 22  1  0  0  0  0
 19 50  1  0  0  0  0
 20 25  1  0  0  0  0
 20 51  1  0  0  0  0
 21 24  1  0  0  0  0
 21 26  2  0  0  0  0
 22 24  2  0  0  0  0
 22 52  1  0  0  0  0
 23 27  1  0  0  0  0
 23 53  1  0  0  0  0
 24 54  1  0  0  0  0
 25 55  1  0  0  0  0
 25 56  1  0  0  0  0
 26 28  1  0  0  0  0
 26 57  1  0  0  0  0
 27 28  2  0  0  0  0
 27 59  1  0  0  0  0
 28 60  1  0  0  0  0
 29 30  1  0  0  0  0
 30 31  2  0  0  0  0
 30 32  1  0  0  0  0
 31 33  1  0  0  0  0
 31 62  1  0  0  0  0
 32 34  2  0  0  0  0
 32 63  1  0  0  0  0
 33 35  2  0  0  0  0
 34 35  1  0  0  0  0
 34 64  1  0  0  0  0
M  END
> <PUBCHEM_COMPOUND_CID>
509011
> <PUBCHEM_COMPOUND_CANONICALIZED>
1
> <PUBCHEM_CACTVS_COMPLEXITY>
703
> <PUBCHEM_CACTVS_HBOND_ACCEPTOR>
4
> <PUBCHEM_CACTVS_HBOND_DONOR>
3
> <PUBCHEM_CACTVS_ROTATABLE_BOND>
8
> <PUBCHEM_CACTVS_SUBSKEYS>
AAADceB7MAAGAAAAAAAAAAAAAAAAAAAAAAA8YMEAAAAAAADBVAAAHgIQCAAADSrhmCYwAMPAAgCIAiFSEACCAAAkBQAIisGIBsgKcDaBlzGUYQhitgCYiYcYiMCOhAACIAAQAAQIAARAACAACAAAAAAAAA==
> <PUBCHEM_IUPAC_OPENEYE_NAME>
3,4-dichloro-N-[(1S)-1-(hydroxymethyl)-2-[[1-(1-naphthylmethyl)-4-piperidyl]methylamino]-2-oxo-ethyl]benzamide
> <PUBCHEM_IUPAC_CAS_NAME>
3,4-dichloro-N-[(2S)-3-hydroxy-1-[[1-(1-naphthalenylmethyl)-4-piperidinyl]methylamino]-1-oxopropan-2-yl]benzamide
> <PUBCHEM_IUPAC_NAME_MARKUP>
3,4-dichloro-<I>N</I>-[(2<I>S</I>)-3-hydroxy-1-[[1-(naphthalen-1-ylmethyl)piperidin-4-yl]methylamino]-1-oxopropan-2-yl]benzamide
> <PUBCHEM_IUPAC_NAME>
3,4-dichloro-N-[(2S)-3-hydroxy-1-[[1-(naphthalen-1-ylmethyl)piperidin-4-yl]methylamino]-1-oxopropan-2-yl]benzamide
> <PUBCHEM_IUPAC_SYSTEMATIC_NAME>
3,4-bis(chloranyl)-N-[(2S)-1-[[1-(naphthalen-1-ylmethyl)piperidin-4-yl]methylamino]-3-oxidanyl-1-oxidanylidene-propan-2-yl]benzamide
> <PUBCHEM_IUPAC_TRADITIONAL_NAME>
3,4-dichloro-N-[(1S)-2-keto-1-methylol-2-[[1-(1-naphthylmethyl)-4-piperidyl]methylamino]ethyl]benzamide
> <PUBCHEM_IUPAC_INCHI>
InChI=1S/C27H29Cl2N3O3/c28-23-9-8-20(14-24(23)29)26(34)31-25(17-33)27(35)30-15-18-10-12-32(13-11-18)16-21-6-3-5-19-4-1-2-7-22(19)21/h1-9,14,18,25,33H,10-13,15-17H2,(H,30,35)(H,31,34)/t25-/m0/s1
> <PUBCHEM_IUPAC_INCHIKEY>
YEYLRWFUXPEWJU-VWLOTQADSA-N
> <PUBCHEM_XLOGP3_AA>
4.7
> <PUBCHEM_EXACT_MASS>
513.1585972
> <PUBCHEM_MOLECULAR_FORMULA>
C27H29Cl2N3O3
> <PUBCHEM_MOLECULAR_WEIGHT>
514.4
> <PUBCHEM_OPENEYE_CAN_SMILES>
C1CN(CCC1CNC(=O)C(CO)NC(=O)C2=CC(=C(C=C2)Cl)Cl)CC3=CC=CC4=CC=CC=C43
> <PUBCHEM_OPENEYE_ISO_SMILES>
C1CN(CCC1CNC(=O)[C@H](CO)NC(=O)C2=CC(=C(C=C2)Cl)Cl)CC3=CC=CC4=CC=CC=C43
> <PUBCHEM_CACTVS_TPSA>
81.7
> <PUBCHEM_MONOISOTOPIC_WEIGHT>
513.1585972
> <PUBCHEM_TOTAL_CHARGE>
0
> <PUBCHEM_HEAVY_ATOM_COUNT>
35
> <PUBCHEM_ATOM_DEF_STEREO_COUNT>
1
> <PUBCHEM_ATOM_UDEF_STEREO_COUNT>
0
> <PUBCHEM_BOND_DEF_STEREO_COUNT>
0
> <PUBCHEM_BOND_UDEF_STEREO_COUNT>
0
> <PUBCHEM_ISOTOPIC_ATOM_COUNT>
0
> <PUBCHEM_COMPONENT_COUNT>
1
> <PUBCHEM_CACTVS_TAUTO_COUNT>
-1
> <PUBCHEM_COORDINATE_TYPE>
1
5
255
> <PUBCHEM_BONDANNOTATIONS>
16  17  8
16  19  8
17  21  8
17  23  8
19  22  8
21  24  8
21  26  8
22  24  8
23  27  8
26  28  8
27  28  8
30  31  8
30  32  8
31  33  8
32  34  8
33  35  8
34  35  8
20  8  6
$$$$
