509091
  -OEChem-10302200282D
 76 81  0     1  0  0  0  0  0999 V2000
    7.1279   -0.0490    0.0000 O   0  0  0  0  0  0  0  0  0  0  0  0
   10.9340   -1.9887    0.0000 O   0  0  0  0  0  0  0  0  0  0  0  0
   11.5920   -1.0491    0.0000 O   0  0  0  0  0  0  0  0  0  0  0  0
   12.0088    0.9474    0.0000 O   0  0  0  0  0  0  0  0  0  0  0  0
    6.2619    1.4510    0.0000 O   0  0  0  0  0  0  0  0  0  0  0  0
    5.3958   -1.0490    0.0000 O   0  0  0  0  0  0  0  0  0  0  0  0
    3.5836    0.1463    0.0000 O   0  0  0  0  0  0  0  0  0  0  0  0
    3.5836    1.7558    0.0000 O   0  0  0  0  0  0  0  0  0  0  0  0
    8.8600   -0.0490    0.0000 C   0  0  3  0  0  0  0  0  0  0  0  0
    9.7260   -0.5490    0.0000 C   0  0  3  0  0  0  0  0  0  0  0  0
   10.5920   -0.0490    0.0000 C   0  0  3  0  0  0  0  0  0  0  0  0
   10.5920    0.9510    0.0000 C   0  0  1  0  0  0  0  0  0  0  0  0
    8.1229   -0.7161    0.0000 C   0  0  3  0  0  0  0  0  0  0  0  0
    9.7260    1.4510    0.0000 C   0  0  2  0  0  0  0  0  0  0  0  0
    9.1649    0.3302    0.0000 C   0  0  0  0  0  0  0  0  0  0  0  0
    8.8600    0.9510    0.0000 C   0  0  0  0  0  0  0  0  0  0  0  0
    9.5168   -1.5208    0.0000 C   0  0  0  0  0  0  0  0  0  0  0  0
    9.9352    2.4228    0.0000 C   0  0  1  0  0  0  0  0  0  0  0  0
   11.3290    1.6181    0.0000 C   0  0  0  0  0  0  0  0  0  0  0  0
    8.5280   -1.6238    0.0000 C   0  0  0  0  0  0  0  0  0  0  0  0
    7.9939    0.4510    0.0000 C   0  0  0  0  0  0  0  0  0  0  0  0
   10.9239    2.5259    0.0000 C   0  0  0  0  0  0  0  0  0  0  0  0
   10.5920   -1.0490    0.0000 C   0  0  0  0  0  0  0  0  0  0  0  0
   11.5880    0.0402    0.0000 C   0  0  0  0  0  0  0  0  0  0  0  0
    9.7230   -2.4993    0.0000 C   0  0  0  0  0  0  0  0  0  0  0  0
    9.2673    3.1671    0.0000 C   0  0  0  0  0  0  0  0  0  0  0  0
    8.9787   -3.1671    0.0000 C   0  0  0  0  0  0  0  0  0  0  0  0
   10.6735   -2.8100    0.0000 C   0  0  0  0  0  0  0  0  0  0  0  0
    6.2619    0.4510    0.0000 C   0  0  2  0  0  0  0  0  0  0  0  0
    5.3958   -0.0490    0.0000 C   0  0  2  0  0  0  0  0  0  0  0  0
    4.5298    0.4510    0.0000 C   0  0  3  0  0  0  0  0  0  0  0  0
    5.3958    1.9510    0.0000 C   0  0  1  0  0  0  0  0  0  0  0  0
    4.5298    1.4510    0.0000 C   0  0  3  0  0  0  0  0  0  0  0  0
    5.3958    2.9510    0.0000 C   0  0  0  0  0  0  0  0  0  0  0  0
    3.0000    0.9510    0.0000 C   0  0  3  0  0  0  0  0  0  0  0  0
    2.0000    0.9510    0.0000 C   0  0  0  0  0  0  0  0  0  0  0  0
   11.3281    0.5260    0.0000 H   0  0  0  0  0  0  0  0  0  0  0  0
    7.5132   -0.6040    0.0000 H   0  0  0  0  0  0  0  0  0  0  0  0
    8.9899    1.8760    0.0000 H   0  0  0  0  0  0  0  0  0  0  0  0
    9.4258    0.8927    0.0000 H   0  0  0  0  0  0  0  0  0  0  0  0
    8.6563    0.6848    0.0000 H   0  0  0  0  0  0  0  0  0  0  0  0
    8.6479    1.5336    0.0000 H   0  0  0  0  0  0  0  0  0  0  0  0
    8.2494    0.8434    0.0000 H   0  0  0  0  0  0  0  0  0  0  0  0
   10.1581    3.0014    0.0000 H   0  0  0  0  0  0  0  0  0  0  0  0
   11.6945    1.1172    0.0000 H   0  0  0  0  0  0  0  0  0  0  0  0
   11.8655    1.9289    0.0000 H   0  0  0  0  0  0  0  0  0  0  0  0
    8.2180   -2.1608    0.0000 H   0  0  0  0  0  0  0  0  0  0  0  0
    8.3925    0.9260    0.0000 H   0  0  0  0  0  0  0  0  0  0  0  0
    7.5954    0.9260    0.0000 H   0  0  0  0  0  0  0  0  0  0  0  0
   11.5135    2.7177    0.0000 H   0  0  0  0  0  0  0  0  0  0  0  0
   10.7952    3.1324    0.0000 H   0  0  0  0  0  0  0  0  0  0  0  0
   11.9447   -0.4669    0.0000 H   0  0  0  0  0  0  0  0  0  0  0  0
    9.8508   -3.1060    0.0000 H   0  0  0  0  0  0  0  0  0  0  0  0
    9.7288    3.5812    0.0000 H   0  0  0  0  0  0  0  0  0  0  0  0
    8.8533    3.6286    0.0000 H   0  0  0  0  0  0  0  0  0  0  0  0
    8.8059    2.7531    0.0000 H   0  0  0  0  0  0  0  0  0  0  0  0
    8.5646   -2.7057    0.0000 H   0  0  0  0  0  0  0  0  0  0  0  0
    8.5172   -3.5812    0.0000 H   0  0  0  0  0  0  0  0  0  0  0  0
    9.3928   -3.6286    0.0000 H   0  0  0  0  0  0  0  0  0  0  0  0
   10.4809   -3.3993    0.0000 H   0  0  0  0  0  0  0  0  0  0  0  0
   11.2628   -3.0026    0.0000 H   0  0  0  0  0  0  0  0  0  0  0  0
   10.8661   -2.2206    0.0000 H   0  0  0  0  0  0  0  0  0  0  0  0
   11.5446   -2.0963    0.0000 H   0  0  0  0  0  0  0  0  0  0  0  0
    6.2619   -0.1690    0.0000 H   0  0  0  0  0  0  0  0  0  0  0  0
    4.8589   -0.3590    0.0000 H   0  0  0  0  0  0  0  0  0  0  0  0
    4.4642   -0.1655    0.0000 H   0  0  0  0  0  0  0  0  0  0  0  0
    5.9328    2.2610    0.0000 H   0  0  0  0  0  0  0  0  0  0  0  0
    4.4642    2.0675    0.0000 H   0  0  0  0  0  0  0  0  0  0  0  0
    4.8589   -1.3590    0.0000 H   0  0  0  0  0  0  0  0  0  0  0  0
    6.0158    2.9510    0.0000 H   0  0  0  0  0  0  0  0  0  0  0  0
    5.3958    3.5710    0.0000 H   0  0  0  0  0  0  0  0  0  0  0  0
    4.7758    2.9510    0.0000 H   0  0  0  0  0  0  0  0  0  0  0  0
    2.7183    0.3987    0.0000 H   0  0  0  0  0  0  0  0  0  0  0  0
    2.0000    1.5710    0.0000 H   0  0  0  0  0  0  0  0  0  0  0  0
    1.3800    0.9510    0.0000 H   0  0  0  0  0  0  0  0  0  0  0  0
    2.0000    0.3310    0.0000 H   0  0  0  0  0  0  0  0  0  0  0  0
  1 21  1  0  0  0  0
 29  1  1  1  0  0  0
  2 23  1  0  0  0  0
  2 63  1  0  0  0  0
  3 23  2  0  0  0  0
  4 24  2  0  0  0  0
  5 29  1  0  0  0  0
  5 32  1  0  0  0  0
 30  6  1  1  0  0  0
  6 69  1  0  0  0  0
  7 31  1  0  0  0  0
  7 35  1  0  0  0  0
  8 33  1  0  0  0  0
  8 35  1  0  0  0  0
  9 10  1  0  0  0  0
  9 13  1  0  0  0  0
  9 16  1  0  0  0  0
  9 21  1  0  0  0  0
 10 11  1  0  0  0  0
 10 17  1  0  0  0  0
 10 23  1  0  0  0  0
 11 12  1  0  0  0  0
 11 15  1  0  0  0  0
 11 24  1  0  0  0  0
 12 14  1  0  0  0  0
 12 19  1  0  0  0  0
 12 37  1  6  0  0  0
 13 15  1  0  0  0  0
 13 20  1  0  0  0  0
 13 38  1  0  0  0  0
 14 16  1  0  0  0  0
 14 18  1  0  0  0  0
 14 39  1  1  0  0  0
 15 40  1  0  0  0  0
 15 41  1  0  0  0  0
 16 42  1  0  0  0  0
 16 43  1  0  0  0  0
 17 20  2  0  0  0  0
 17 25  1  0  0  0  0
 18 22  1  0  0  0  0
 18 26  1  6  0  0  0
 18 44  1  0  0  0  0
 19 22  1  0  0  0  0
 19 45  1  0  0  0  0
 19 46  1  0  0  0  0
 20 47  1  0  0  0  0
 21 48  1  0  0  0  0
 21 49  1  0  0  0  0
 22 50  1  0  0  0  0
 22 51  1  0  0  0  0
 24 52  1  0  0  0  0
 25 27  1  0  0  0  0
 25 28  1  0  0  0  0
 25 53  1  0  0  0  0
 26 54  1  0  0  0  0
 26 55  1  0  0  0  0
 26 56  1  0  0  0  0
 27 57  1  0  0  0  0
 27 58  1  0  0  0  0
 27 59  1  0  0  0  0
 28 60  1  0  0  0  0
 28 61  1  0  0  0  0
 28 62  1  0  0  0  0
 29 30  1  0  0  0  0
 29 64  1  0  0  0  0
 30 31  1  0  0  0  0
 30 65  1  0  0  0  0
 31 33  1  0  0  0  0
 31 66  1  0  0  0  0
 32 33  1  0  0  0  0
 32 34  1  1  0  0  0
 32 67  1  0  0  0  0
 33 68  1  0  0  0  0
 34 70  1  0  0  0  0
 34 71  1  0  0  0  0
 34 72  1  0  0  0  0
 35 36  1  0  0  0  0
 35 73  1  0  0  0  0
 36 74  1  0  0  0  0
 36 75  1  0  0  0  0
 36 76  1  0  0  0  0
M  END
> <PUBCHEM_COMPOUND_CID>
509091
> <PUBCHEM_COMPOUND_CANONICALIZED>
1
> <PUBCHEM_CACTVS_COMPLEXITY>
979
> <PUBCHEM_CACTVS_HBOND_ACCEPTOR>
8
> <PUBCHEM_CACTVS_HBOND_DONOR>
2
> <PUBCHEM_CACTVS_ROTATABLE_BOND>
6
> <PUBCHEM_CACTVS_SUBSKEYS>
AAADcfB4PAAAAAAAAAAAAAAAAAAAAaMECAA0QIAABgAAAGgAAAAAGgAACAAADxSwgAMCCAAABgCIAijSiAAAAAAgAAAACAEAAAgREBIAAQAiQAAFwAAPAAPL7PyPgAAAAAAAAACAAAQAACAAAQAACAAAAA==
> <PUBCHEM_IUPAC_OPENEYE_NAME>
(4R,5R,8R)-9-formyl-2-[[(4R,6R,7S)-7-hydroxy-2,4-dimethyl-4,6,7,7a-tetrahydro-3aH-[1,3]dioxolo[4,5-c]pyran-6-yl]oxymethyl]-13-isopropyl-5-methyl-tetracyclo[7.4.0.02,11.04,8]tridec-12-ene-1-carboxylic acid
> <PUBCHEM_IUPAC_CAS_NAME>
(4R,5R,8R)-9-formyl-2-[[(4R,6R,7S)-7-hydroxy-2,4-dimethyl-4,6,7,7a-tetrahydro-3aH-[1,3]dioxolo[4,5-c]pyran-6-yl]oxymethyl]-5-methyl-13-propan-2-yl-1-tetracyclo[7.4.0.02,11.04,8]tridec-12-enecarboxylic acid
> <PUBCHEM_IUPAC_NAME_MARKUP>
(4<I>R</I>,5<I>R</I>,8<I>R</I>)-9-formyl-2-[[(4<I>R</I>,6<I>R</I>,7<I>S</I>)-7-hydroxy-2,4-dimethyl-4,6,7,7<I>a</I>-tetrahydro-3<I>a</I><I>H</I>-[1,3]dioxolo[4,5-c]pyran-6-yl]oxymethyl]-5-methyl-13-propan-2-yltetracyclo[7.4.0.0<SUP>2,11</SUP>.0<SUP>4,8</SUP>]tridec-12-ene-1-carboxylic acid
> <PUBCHEM_IUPAC_NAME>
(4R,5R,8R)-9-formyl-2-[[(4R,6R,7S)-7-hydroxy-2,4-dimethyl-4,6,7,7a-tetrahydro-3aH-[1,3]dioxolo[4,5-c]pyran-6-yl]oxymethyl]-5-methyl-13-propan-2-yltetracyclo[7.4.0.02,11.04,8]tridec-12-ene-1-carboxylic acid
> <PUBCHEM_IUPAC_SYSTEMATIC_NAME>
(4R,5R,8R)-2-[[(4R,6R,7S)-2,4-dimethyl-7-oxidanyl-4,6,7,7a-tetrahydro-3aH-[1,3]dioxolo[4,5-c]pyran-6-yl]oxymethyl]-9-methanoyl-5-methyl-13-propan-2-yl-tetracyclo[7.4.0.02,11.04,8]tridec-12-ene-1-carboxylic acid
> <PUBCHEM_IUPAC_TRADITIONAL_NAME>
(4R,5R,8R)-9-formyl-2-[[(4R,6R,7S)-7-hydroxy-2,4-dimethyl-4,6,7,7a-tetrahydro-3aH-[1,3]dioxolo[4,5-c]pyran-6-yl]oxymethyl]-13-isopropyl-5-methyl-tetracyclo[7.4.0.02,11.04,8]tridec-12-ene-1-carboxylic acid
> <PUBCHEM_IUPAC_INCHI>
InChI=1S/C28H40O8/c1-13(2)20-8-17-9-26(11-29)19-7-6-14(3)18(19)10-27(17,28(20,26)25(31)32)12-33-24-21(30)23-22(15(4)34-24)35-16(5)36-23/h8,11,13-19,21-24,30H,6-7,9-10,12H2,1-5H3,(H,31,32)/t14-,15-,16?,17?,18-,19-,21+,22?,23?,24-,26?,27?,28?/m1/s1
> <PUBCHEM_IUPAC_INCHIKEY>
XCWZLHSBHRAXMD-XUJVDLFNSA-N
> <PUBCHEM_XLOGP3_AA>
2.3
> <PUBCHEM_EXACT_MASS>
504.27231823
> <PUBCHEM_MOLECULAR_FORMULA>
C28H40O8
> <PUBCHEM_MOLECULAR_WEIGHT>
504.6
> <PUBCHEM_OPENEYE_CAN_SMILES>
CC1CCC2C1CC3(C4CC2(C3(C(=C4)C(C)C)C(=O)O)C=O)COC5C(C6C(C(O5)C)OC(O6)C)O
> <PUBCHEM_OPENEYE_ISO_SMILES>
C[C@@H]1CC[C@@H]2[C@@H]1CC3(C4CC2(C3(C(=C4)C(C)C)C(=O)O)C=O)CO[C@H]5[C@H](C6C([C@H](O5)C)OC(O6)C)O
> <PUBCHEM_CACTVS_TPSA>
112
> <PUBCHEM_MONOISOTOPIC_WEIGHT>
504.27231823
> <PUBCHEM_TOTAL_CHARGE>
0
> <PUBCHEM_HEAVY_ATOM_COUNT>
36
> <PUBCHEM_ATOM_DEF_STEREO_COUNT>
6
> <PUBCHEM_ATOM_UDEF_STEREO_COUNT>
7
> <PUBCHEM_BOND_DEF_STEREO_COUNT>
0
> <PUBCHEM_BOND_UDEF_STEREO_COUNT>
0
> <PUBCHEM_ISOTOPIC_ATOM_COUNT>
0
> <PUBCHEM_COMPONENT_COUNT>
1
> <PUBCHEM_CACTVS_TAUTO_COUNT>
-1
> <PUBCHEM_COORDINATE_TYPE>
1
5
255
> <PUBCHEM_BONDANNOTATIONS>
29  1  5
10  23  3
11  15  3
12  37  6
13  15  3
14  39  5
18  26  6
32  34  5
35  36  3
30  6  5
31  7  3
33  8  3
9  21  3
$$$$
