509058
  -OEChem-10302200282D
 60 63  0     1  0  0  0  0  0999 V2000
    7.1962    2.7500    0.0000 Br  0  0  0  0  0  0  0  0  0  0  0  0
    8.0622    1.2500    0.0000 F   0  0  0  0  0  0  0  0  0  0  0  0
    5.4641    5.7500    0.0000 F   0  0  0  0  0  0  0  0  0  0  0  0
    2.8660   -4.7500    0.0000 O   0  0  0  0  0  0  0  0  0  0  0  0
    4.5981   -4.7500    0.0000 O   0  0  0  0  0  0  0  0  0  0  0  0
    2.8660    1.2500    0.0000 O   0  0  0  0  0  0  0  0  0  0  0  0
    3.7320    2.7500    0.0000 O   0  0  0  0  0  0  0  0  0  0  0  0
    3.7320   -1.2500    0.0000 N   0  0  0  0  0  0  0  0  0  0  0  0
    3.7320   -3.2500    0.0000 N   0  0  0  0  0  0  0  0  0  0  0  0
    5.4641   -0.2500    0.0000 N   0  0  0  0  0  0  0  0  0  0  0  0
    6.3301    1.2500    0.0000 N   0  0  0  0  0  0  0  0  0  0  0  0
    7.1962   -1.2500    0.0000 N   0  0  0  0  0  0  0  0  0  0  0  0
    2.8660   -1.7500    0.0000 C   0  0  0  0  0  0  0  0  0  0  0  0
    4.5981   -1.7500    0.0000 C   0  0  0  0  0  0  0  0  0  0  0  0
    2.8660   -2.7500    0.0000 C   0  0  0  0  0  0  0  0  0  0  0  0
    4.5981   -2.7500    0.0000 C   0  0  0  0  0  0  0  0  0  0  0  0
    3.7320   -0.2500    0.0000 C   0  0  0  0  0  0  0  0  0  0  0  0
    4.5981    0.2500    0.0000 C   0  0  0  0  0  0  0  0  0  0  0  0
    4.5981    1.2500    0.0000 C   0  0  0  0  0  0  0  0  0  0  0  0
    5.4641    1.7500    0.0000 C   0  0  3  0  0  0  0  0  0  0  0  0
    3.7320   -4.2500    0.0000 C   0  0  0  0  0  0  0  0  0  0  0  0
    6.3301    0.2500    0.0000 C   0  0  0  0  0  0  0  0  0  0  0  0
    5.4641    2.7500    0.0000 C   0  0  0  0  0  0  0  0  0  0  0  0
    3.7320    1.7500    0.0000 C   0  0  0  0  0  0  0  0  0  0  0  0
    7.1962   -0.2500    0.0000 C   0  0  0  0  0  0  0  0  0  0  0  0
    6.3301    3.2500    0.0000 C   0  0  0  0  0  0  0  0  0  0  0  0
    4.5981    3.2500    0.0000 C   0  0  0  0  0  0  0  0  0  0  0  0
    6.3301    4.2500    0.0000 C   0  0  0  0  0  0  0  0  0  0  0  0
    4.5981    4.2500    0.0000 C   0  0  0  0  0  0  0  0  0  0  0  0
    8.0622    0.2500    0.0000 C   0  0  0  0  0  0  0  0  0  0  0  0
    5.4641    4.7500    0.0000 C   0  0  0  0  0  0  0  0  0  0  0  0
    2.8660   -5.7500    0.0000 C   0  0  0  0  0  0  0  0  0  0  0  0
    8.9282   -0.2500    0.0000 C   0  0  0  0  0  0  0  0  0  0  0  0
    2.0000    1.7500    0.0000 C   0  0  0  0  0  0  0  0  0  0  0  0
    8.0622   -1.7500    0.0000 C   0  0  0  0  0  0  0  0  0  0  0  0
    8.9282   -1.2500    0.0000 C   0  0  0  0  0  0  0  0  0  0  0  0
    2.6540   -1.1674    0.0000 H   0  0  0  0  0  0  0  0  0  0  0  0
    2.2554   -1.8577    0.0000 H   0  0  0  0  0  0  0  0  0  0  0  0
    5.2087   -1.8577    0.0000 H   0  0  0  0  0  0  0  0  0  0  0  0
    4.8101   -1.1674    0.0000 H   0  0  0  0  0  0  0  0  0  0  0  0
    2.2554   -2.6423    0.0000 H   0  0  0  0  0  0  0  0  0  0  0  0
    2.6540   -3.3326    0.0000 H   0  0  0  0  0  0  0  0  0  0  0  0
    4.8101   -3.3326    0.0000 H   0  0  0  0  0  0  0  0  0  0  0  0
    5.2087   -2.6423    0.0000 H   0  0  0  0  0  0  0  0  0  0  0  0
    3.5200    0.3326    0.0000 H   0  0  0  0  0  0  0  0  0  0  0  0
    3.1215   -0.3577    0.0000 H   0  0  0  0  0  0  0  0  0  0  0  0
    6.0010    2.0600    0.0000 H   0  0  0  0  0  0  0  0  0  0  0  0
    5.4641   -0.8700    0.0000 H   0  0  0  0  0  0  0  0  0  0  0  0
    4.0611    2.9400    0.0000 H   0  0  0  0  0  0  0  0  0  0  0  0
    6.8671    4.5600    0.0000 H   0  0  0  0  0  0  0  0  0  0  0  0
    4.0611    4.5600    0.0000 H   0  0  0  0  0  0  0  0  0  0  0  0
    2.2460   -5.7500    0.0000 H   0  0  0  0  0  0  0  0  0  0  0  0
    2.8660   -6.3700    0.0000 H   0  0  0  0  0  0  0  0  0  0  0  0
    3.4860   -5.7500    0.0000 H   0  0  0  0  0  0  0  0  0  0  0  0
    9.4651    0.0600    0.0000 H   0  0  0  0  0  0  0  0  0  0  0  0
    2.3100    2.2869    0.0000 H   0  0  0  0  0  0  0  0  0  0  0  0
    1.4631    2.0600    0.0000 H   0  0  0  0  0  0  0  0  0  0  0  0
    1.6900    1.2131    0.0000 H   0  0  0  0  0  0  0  0  0  0  0  0
    8.0622   -2.3700    0.0000 H   0  0  0  0  0  0  0  0  0  0  0  0
    9.4651   -1.5600    0.0000 H   0  0  0  0  0  0  0  0  0  0  0  0
  1 26  1  0  0  0  0
  2 30  1  0  0  0  0
  3 31  1  0  0  0  0
  4 21  1  0  0  0  0
  4 32  1  0  0  0  0
  5 21  2  0  0  0  0
  6 24  1  0  0  0  0
  6 34  1  0  0  0  0
  7 24  2  0  0  0  0
  8 13  1  0  0  0  0
  8 14  1  0  0  0  0
  8 17  1  0  0  0  0
  9 15  1  0  0  0  0
  9 16  1  0  0  0  0
  9 21  1  0  0  0  0
 10 18  1  0  0  0  0
 10 22  1  0  0  0  0
 10 48  1  0  0  0  0
 11 20  1  0  0  0  0
 11 22  2  0  0  0  0
 12 25  1  0  0  0  0
 12 35  2  0  0  0  0
 13 15  1  0  0  0  0
 13 37  1  0  0  0  0
 13 38  1  0  0  0  0
 14 16  1  0  0  0  0
 14 39  1  0  0  0  0
 14 40  1  0  0  0  0
 15 41  1  0  0  0  0
 15 42  1  0  0  0  0
 16 43  1  0  0  0  0
 16 44  1  0  0  0  0
 17 18  1  0  0  0  0
 17 45  1  0  0  0  0
 17 46  1  0  0  0  0
 18 19  2  0  0  0  0
 19 20  1  0  0  0  0
 19 24  1  0  0  0  0
 20 23  1  0  0  0  0
 20 47  1  0  0  0  0
 22 25  1  0  0  0  0
 23 26  2  0  0  0  0
 23 27  1  0  0  0  0
 25 30  2  0  0  0  0
 26 28  1  0  0  0  0
 27 29  2  0  0  0  0
 27 49  1  0  0  0  0
 28 31  2  0  0  0  0
 28 50  1  0  0  0  0
 29 31  1  0  0  0  0
 29 51  1  0  0  0  0
 30 33  1  0  0  0  0
 32 52  1  0  0  0  0
 32 53  1  0  0  0  0
 32 54  1  0  0  0  0
 33 36  2  0  0  0  0
 33 55  1  0  0  0  0
 34 56  1  0  0  0  0
 34 57  1  0  0  0  0
 34 58  1  0  0  0  0
 35 36  1  0  0  0  0
 35 59  1  0  0  0  0
 36 60  1  0  0  0  0
M  END
> <PUBCHEM_COMPOUND_CID>
509058
> <PUBCHEM_COMPOUND_CANONICALIZED>
1
> <PUBCHEM_CACTVS_COMPLEXITY>
883
> <PUBCHEM_CACTVS_HBOND_ACCEPTOR>
9
> <PUBCHEM_CACTVS_HBOND_DONOR>
1
> <PUBCHEM_CACTVS_ROTATABLE_BOND>
7
> <PUBCHEM_CACTVS_SUBSKEYS>
AAADceB7uYAAEAAAAAAAAAAAAAAAAAAAAAA8WIEAAAAAAAABwAAAHwBQAAABrCjBng4/iJPIFACoAzb3fACCgCExAiQJ2CE4ZPgIZPrAuZGUMAhmlgDI61eYyKCOAAAAAAAAgAAAAAAAAAEAAAAAAAAAAA==
> <PUBCHEM_IUPAC_OPENEYE_NAME>
methyl 4-(2-bromo-4-fluoro-phenyl)-2-(3-fluoro-2-pyridyl)-6-[(4-methoxycarbonylpiperazin-1-yl)methyl]-1,4-dihydropyrimidine-5-carboxylate
> <PUBCHEM_IUPAC_CAS_NAME>
4-(2-bromo-4-fluorophenyl)-2-(3-fluoro-2-pyridinyl)-6-[(4-methoxycarbonyl-1-piperazinyl)methyl]-1,4-dihydropyrimidine-5-carboxylic acid methyl ester
> <PUBCHEM_IUPAC_NAME_MARKUP>
methyl 4-(2-bromo-4-fluorophenyl)-2-(3-fluoropyridin-2-yl)-6-[(4-methoxycarbonylpiperazin-1-yl)methyl]-1,4-dihydropyrimidine-5-carboxylate
> <PUBCHEM_IUPAC_NAME>
methyl 4-(2-bromo-4-fluorophenyl)-2-(3-fluoropyridin-2-yl)-6-[(4-methoxycarbonylpiperazin-1-yl)methyl]-1,4-dihydropyrimidine-5-carboxylate
> <PUBCHEM_IUPAC_SYSTEMATIC_NAME>
methyl 4-(2-bromanyl-4-fluoranyl-phenyl)-2-(3-fluoranylpyridin-2-yl)-6-[(4-methoxycarbonylpiperazin-1-yl)methyl]-1,4-dihydropyrimidine-5-carboxylate
> <PUBCHEM_IUPAC_TRADITIONAL_NAME>
4-(2-bromo-4-fluoro-phenyl)-6-[(4-carbomethoxypiperazino)methyl]-2-(3-fluoro-2-pyridyl)-1,4-dihydropyrimidine-5-carboxylic acid methyl ester
> <PUBCHEM_IUPAC_INCHI>
InChI=1S/C24H24BrF2N5O4/c1-35-23(33)19-18(13-31-8-10-32(11-9-31)24(34)36-2)29-22(21-17(27)4-3-7-28-21)30-20(19)15-6-5-14(26)12-16(15)25/h3-7,12,20H,8-11,13H2,1-2H3,(H,29,30)
> <PUBCHEM_IUPAC_INCHIKEY>
YRGPFJJEDQMSDS-UHFFFAOYSA-N
> <PUBCHEM_XLOGP3_AA>
2.2
> <PUBCHEM_EXACT_MASS>
563.09797
> <PUBCHEM_MOLECULAR_FORMULA>
C24H24BrF2N5O4
> <PUBCHEM_MOLECULAR_WEIGHT>
564.4
> <PUBCHEM_OPENEYE_CAN_SMILES>
COC(=O)C1=C(NC(=NC1C2=C(C=C(C=C2)F)Br)C3=C(C=CC=N3)F)CN4CCN(CC4)C(=O)OC
> <PUBCHEM_OPENEYE_ISO_SMILES>
COC(=O)C1=C(NC(=NC1C2=C(C=C(C=C2)F)Br)C3=C(C=CC=N3)F)CN4CCN(CC4)C(=O)OC
> <PUBCHEM_CACTVS_TPSA>
96.4
> <PUBCHEM_MONOISOTOPIC_WEIGHT>
563.09797
> <PUBCHEM_TOTAL_CHARGE>
0
> <PUBCHEM_HEAVY_ATOM_COUNT>
36
> <PUBCHEM_ATOM_DEF_STEREO_COUNT>
0
> <PUBCHEM_ATOM_UDEF_STEREO_COUNT>
1
> <PUBCHEM_BOND_DEF_STEREO_COUNT>
0
> <PUBCHEM_BOND_UDEF_STEREO_COUNT>
0
> <PUBCHEM_ISOTOPIC_ATOM_COUNT>
0
> <PUBCHEM_COMPONENT_COUNT>
1
> <PUBCHEM_CACTVS_TAUTO_COUNT>
-1
> <PUBCHEM_COORDINATE_TYPE>
1
5
255
> <PUBCHEM_BONDANNOTATIONS>
12  25  8
12  35  8
20  23  3
23  26  8
23  27  8
25  30  8
26  28  8
27  29  8
28  31  8
29  31  8
30  33  8
33  36  8
35  36  8
$$$$
