509004
  -OEChem-10302200282D
 80 83  0     1  0  0  0  0  0999 V2000
   14.1244   -1.6830    0.0000 Cl  0  0  0  0  0  0  0  0  0  0  0  0
   14.1244    0.3170    0.0000 Cl  0  0  0  0  0  0  0  0  0  0  0  0
    2.0000   -4.6830    0.0000 Cl  0  0  0  0  0  0  0  0  0  0  0  0
    3.7320   -5.6830    0.0000 Cl  0  0  0  0  0  0  0  0  0  0  0  0
    5.4641    1.3170    0.0000 O   0  0  0  0  0  0  0  0  0  0  0  0
    3.7320    4.3170    0.0000 O   0  0  0  0  0  0  0  0  0  0  0  0
    2.8660   -1.1830    0.0000 O   0  0  0  0  0  0  0  0  0  0  0  0
    9.7942   -1.1830    0.0000 N   0  0  0  0  0  0  0  0  0  0  0  0
    6.3301   -0.1830    0.0000 N   0  0  0  0  0  0  0  0  0  0  0  0
    4.5981   -1.1830    0.0000 N   0  0  0  0  0  0  0  0  0  0  0  0
    8.0622   -0.1830    0.0000 C   0  0  0  0  0  0  0  0  0  0  0  0
    8.9282    0.3170    0.0000 C   0  0  0  0  0  0  0  0  0  0  0  0
    8.0622   -1.1830    0.0000 C   0  0  0  0  0  0  0  0  0  0  0  0
    9.7942   -0.1830    0.0000 C   0  0  0  0  0  0  0  0  0  0  0  0
    8.9282   -1.6830    0.0000 C   0  0  0  0  0  0  0  0  0  0  0  0
    7.1962    0.3170    0.0000 C   0  0  0  0  0  0  0  0  0  0  0  0
   10.6603   -1.6830    0.0000 C   0  0  0  0  0  0  0  0  0  0  0  0
   11.5263   -1.1830    0.0000 C   0  0  0  0  0  0  0  0  0  0  0  0
    5.4641    0.3170    0.0000 C   0  0  0  0  0  0  0  0  0  0  0  0
    4.5981   -0.1830    0.0000 C   0  0  2  0  0  0  0  0  0  0  0  0
   12.3923   -1.6830    0.0000 C   0  0  0  0  0  0  0  0  0  0  0  0
   11.5263   -0.1830    0.0000 C   0  0  0  0  0  0  0  0  0  0  0  0
    3.7320    0.3170    0.0000 C   0  0  0  0  0  0  0  0  0  0  0  0
    3.7320    1.3170    0.0000 C   0  0  0  0  0  0  0  0  0  0  0  0
   13.2583   -1.1830    0.0000 C   0  0  0  0  0  0  0  0  0  0  0  0
   12.3923    0.3170    0.0000 C   0  0  0  0  0  0  0  0  0  0  0  0
   13.2583   -0.1830    0.0000 C   0  0  0  0  0  0  0  0  0  0  0  0
    3.7320   -1.6830    0.0000 C   0  0  0  0  0  0  0  0  0  0  0  0
    2.8660    1.8170    0.0000 C   0  0  0  0  0  0  0  0  0  0  0  0
    4.5981    1.8170    0.0000 C   0  0  0  0  0  0  0  0  0  0  0  0
    2.8660    4.8170    0.0000 C   0  0  0  0  0  0  0  0  0  0  0  0
    3.7320    3.3170    0.0000 C   0  0  0  0  0  0  0  0  0  0  0  0
    2.8660    2.8170    0.0000 C   0  0  0  0  0  0  0  0  0  0  0  0
    4.5981    2.8170    0.0000 C   0  0  0  0  0  0  0  0  0  0  0  0
    3.7320   -2.6830    0.0000 C   0  0  0  0  0  0  0  0  0  0  0  0
    2.0000    5.3170    0.0000 C   0  0  0  0  0  0  0  0  0  0  0  0
    3.3660    5.6830    0.0000 C   0  0  0  0  0  0  0  0  0  0  0  0
    2.3660    3.9510    0.0000 C   0  0  0  0  0  0  0  0  0  0  0  0
    2.8660   -3.1830    0.0000 C   0  0  0  0  0  0  0  0  0  0  0  0
    4.5981   -3.1830    0.0000 C   0  0  0  0  0  0  0  0  0  0  0  0
    2.8660   -4.1830    0.0000 C   0  0  0  0  0  0  0  0  0  0  0  0
    4.5981   -4.1830    0.0000 C   0  0  0  0  0  0  0  0  0  0  0  0
    3.7320   -4.6830    0.0000 C   0  0  0  0  0  0  0  0  0  0  0  0
    8.0622    0.4370    0.0000 H   0  0  0  0  0  0  0  0  0  0  0  0
    9.3267    0.7919    0.0000 H   0  0  0  0  0  0  0  0  0  0  0  0
    8.5297    0.7919    0.0000 H   0  0  0  0  0  0  0  0  0  0  0  0
    7.4516   -1.0754    0.0000 H   0  0  0  0  0  0  0  0  0  0  0  0
    7.8501   -1.7656    0.0000 H   0  0  0  0  0  0  0  0  0  0  0  0
   10.4048   -0.2907    0.0000 H   0  0  0  0  0  0  0  0  0  0  0  0
   10.0063    0.3996    0.0000 H   0  0  0  0  0  0  0  0  0  0  0  0
    8.5297   -2.1580    0.0000 H   0  0  0  0  0  0  0  0  0  0  0  0
    9.3267   -2.1580    0.0000 H   0  0  0  0  0  0  0  0  0  0  0  0
    7.5947    0.7919    0.0000 H   0  0  0  0  0  0  0  0  0  0  0  0
    6.7976    0.7919    0.0000 H   0  0  0  0  0  0  0  0  0  0  0  0
   10.2617   -2.1580    0.0000 H   0  0  0  0  0  0  0  0  0  0  0  0
   11.0588   -2.1580    0.0000 H   0  0  0  0  0  0  0  0  0  0  0  0
    6.3301   -0.8030    0.0000 H   0  0  0  0  0  0  0  0  0  0  0  0
    5.1350   -0.4930    0.0000 H   0  0  0  0  0  0  0  0  0  0  0  0
   12.3923   -2.3030    0.0000 H   0  0  0  0  0  0  0  0  0  0  0  0
   10.9893    0.1270    0.0000 H   0  0  0  0  0  0  0  0  0  0  0  0
    3.1215    0.4246    0.0000 H   0  0  0  0  0  0  0  0  0  0  0  0
    3.5200   -0.2656    0.0000 H   0  0  0  0  0  0  0  0  0  0  0  0
    5.1350   -1.4930    0.0000 H   0  0  0  0  0  0  0  0  0  0  0  0
   12.3923    0.9370    0.0000 H   0  0  0  0  0  0  0  0  0  0  0  0
    2.3291    1.5070    0.0000 H   0  0  0  0  0  0  0  0  0  0  0  0
    5.1350    1.5070    0.0000 H   0  0  0  0  0  0  0  0  0  0  0  0
    2.3291    3.1270    0.0000 H   0  0  0  0  0  0  0  0  0  0  0  0
    5.1350    3.1270    0.0000 H   0  0  0  0  0  0  0  0  0  0  0  0
    2.3100    5.8539    0.0000 H   0  0  0  0  0  0  0  0  0  0  0  0
    1.4631    5.6270    0.0000 H   0  0  0  0  0  0  0  0  0  0  0  0
    1.6900    4.7800    0.0000 H   0  0  0  0  0  0  0  0  0  0  0  0
    3.9030    5.3730    0.0000 H   0  0  0  0  0  0  0  0  0  0  0  0
    3.6760    6.2200    0.0000 H   0  0  0  0  0  0  0  0  0  0  0  0
    2.8291    5.9930    0.0000 H   0  0  0  0  0  0  0  0  0  0  0  0
    1.8291    4.2610    0.0000 H   0  0  0  0  0  0  0  0  0  0  0  0
    2.0560    3.4140    0.0000 H   0  0  0  0  0  0  0  0  0  0  0  0
    2.9030    3.6410    0.0000 H   0  0  0  0  0  0  0  0  0  0  0  0
    2.3291   -2.8730    0.0000 H   0  0  0  0  0  0  0  0  0  0  0  0
    5.1350   -2.8730    0.0000 H   0  0  0  0  0  0  0  0  0  0  0  0
    5.1350   -4.4930    0.0000 H   0  0  0  0  0  0  0  0  0  0  0  0
  1 25  1  0  0  0  0
  2 27  1  0  0  0  0
  3 41  1  0  0  0  0
  4 43  1  0  0  0  0
  5 19  2  0  0  0  0
  6 31  1  0  0  0  0
  6 32  1  0  0  0  0
  7 28  2  0  0  0  0
  8 14  1  0  0  0  0
  8 15  1  0  0  0  0
  8 17  1  0  0  0  0
  9 16  1  0  0  0  0
  9 19  1  0  0  0  0
  9 57  1  0  0  0  0
 20 10  1  1  0  0  0
 10 28  1  0  0  0  0
 10 63  1  0  0  0  0
 11 12  1  0  0  0  0
 11 13  1  0  0  0  0
 11 16  1  0  0  0  0
 11 44  1  0  0  0  0
 12 14  1  0  0  0  0
 12 45  1  0  0  0  0
 12 46  1  0  0  0  0
 13 15  1  0  0  0  0
 13 47  1  0  0  0  0
 13 48  1  0  0  0  0
 14 49  1  0  0  0  0
 14 50  1  0  0  0  0
 15 51  1  0  0  0  0
 15 52  1  0  0  0  0
 16 53  1  0  0  0  0
 16 54  1  0  0  0  0
 17 18  1  0  0  0  0
 17 55  1  0  0  0  0
 17 56  1  0  0  0  0
 18 21  2  0  0  0  0
 18 22  1  0  0  0  0
 19 20  1  0  0  0  0
 20 23  1  0  0  0  0
 20 58  1  0  0  0  0
 21 25  1  0  0  0  0
 21 59  1  0  0  0  0
 22 26  2  0  0  0  0
 22 60  1  0  0  0  0
 23 24  1  0  0  0  0
 23 61  1  0  0  0  0
 23 62  1  0  0  0  0
 24 29  2  0  0  0  0
 24 30  1  0  0  0  0
 25 27  2  0  0  0  0
 26 27  1  0  0  0  0
 26 64  1  0  0  0  0
 28 35  1  0  0  0  0
 29 33  1  0  0  0  0
 29 65  1  0  0  0  0
 30 34  2  0  0  0  0
 30 66  1  0  0  0  0
 31 36  1  0  0  0  0
 31 37  1  0  0  0  0
 31 38  1  0  0  0  0
 32 33  2  0  0  0  0
 32 34  1  0  0  0  0
 33 67  1  0  0  0  0
 34 68  1  0  0  0  0
 35 39  2  0  0  0  0
 35 40  1  0  0  0  0
 36 69  1  0  0  0  0
 36 70  1  0  0  0  0
 36 71  1  0  0  0  0
 37 72  1  0  0  0  0
 37 73  1  0  0  0  0
 37 74  1  0  0  0  0
 38 75  1  0  0  0  0
 38 76  1  0  0  0  0
 38 77  1  0  0  0  0
 39 41  1  0  0  0  0
 39 78  1  0  0  0  0
 40 42  2  0  0  0  0
 40 79  1  0  0  0  0
 41 43  2  0  0  0  0
 42 43  1  0  0  0  0
 42 80  1  0  0  0  0
M  END
> <PUBCHEM_COMPOUND_CID>
509004
> <PUBCHEM_COMPOUND_CANONICALIZED>
1
> <PUBCHEM_CACTVS_COMPLEXITY>
889
> <PUBCHEM_CACTVS_HBOND_ACCEPTOR>
4
> <PUBCHEM_CACTVS_HBOND_DONOR>
2
> <PUBCHEM_CACTVS_ROTATABLE_BOND>
11
> <PUBCHEM_CACTVS_SUBSKEYS>
AAADcfB/MAAHAAAAAAAAAAAAAAAAAAAAAAA8YMEAAAAAAAABUAAAHgIQAAAADW7BmCQyBoPABACIAiFSEACCCAAkJQAIisGODsgMZjKFtzuWOSjk1hGIqYeYyKCOJAAAIAAAAARIAABAAAAACAAAAAAAAA==
> <PUBCHEM_IUPAC_OPENEYE_NAME>
N-[(1S)-1-[(4-tert-butoxyphenyl)methyl]-2-[[1-[(3,4-dichlorophenyl)methyl]-4-piperidyl]methylamino]-2-oxo-ethyl]-3,4-dichloro-benzamide
> <PUBCHEM_IUPAC_CAS_NAME>
3,4-dichloro-N-[(2S)-1-[[1-[(3,4-dichlorophenyl)methyl]-4-piperidinyl]methylamino]-3-[4-[(2-methylpropan-2-yl)oxy]phenyl]-1-oxopropan-2-yl]benzamide
> <PUBCHEM_IUPAC_NAME_MARKUP>
3,4-dichloro-<I>N</I>-[(2<I>S</I>)-1-[[1-[(3,4-dichlorophenyl)methyl]piperidin-4-yl]methylamino]-3-[4-[(2-methylpropan-2-yl)oxy]phenyl]-1-oxopropan-2-yl]benzamide
> <PUBCHEM_IUPAC_NAME>
3,4-dichloro-N-[(2S)-1-[[1-[(3,4-dichlorophenyl)methyl]piperidin-4-yl]methylamino]-3-[4-[(2-methylpropan-2-yl)oxy]phenyl]-1-oxopropan-2-yl]benzamide
> <PUBCHEM_IUPAC_SYSTEMATIC_NAME>
3,4-bis(chloranyl)-N-[(2S)-1-[[1-[(3,4-dichlorophenyl)methyl]piperidin-4-yl]methylamino]-3-[4-[(2-methylpropan-2-yl)oxy]phenyl]-1-oxidanylidene-propan-2-yl]benzamide
> <PUBCHEM_IUPAC_TRADITIONAL_NAME>
N-[(1S)-1-(4-tert-butoxybenzyl)-2-[[1-(3,4-dichlorobenzyl)-4-piperidyl]methylamino]-2-keto-ethyl]-3,4-dichloro-benzamide
> <PUBCHEM_IUPAC_INCHI>
InChI=1S/C33H37Cl4N3O3/c1-33(2,3)43-25-8-4-21(5-9-25)17-30(39-31(41)24-7-11-27(35)29(37)18-24)32(42)38-19-22-12-14-40(15-13-22)20-23-6-10-26(34)28(36)16-23/h4-11,16,18,22,30H,12-15,17,19-20H2,1-3H3,(H,38,42)(H,39,41)/t30-/m0/s1
> <PUBCHEM_IUPAC_INCHIKEY>
YZBSPSBSGINBGV-PMERELPUSA-N
> <PUBCHEM_XLOGP3_AA>
8.3
> <PUBCHEM_EXACT_MASS>
665.155953
> <PUBCHEM_MOLECULAR_FORMULA>
C33H37Cl4N3O3
> <PUBCHEM_MOLECULAR_WEIGHT>
665.5
> <PUBCHEM_OPENEYE_CAN_SMILES>
CC(C)(C)OC1=CC=C(C=C1)CC(C(=O)NCC2CCN(CC2)CC3=CC(=C(C=C3)Cl)Cl)NC(=O)C4=CC(=C(C=C4)Cl)Cl
> <PUBCHEM_OPENEYE_ISO_SMILES>
CC(C)(C)OC1=CC=C(C=C1)C[C@@H](C(=O)NCC2CCN(CC2)CC3=CC(=C(C=C3)Cl)Cl)NC(=O)C4=CC(=C(C=C4)Cl)Cl
> <PUBCHEM_CACTVS_TPSA>
70.7
> <PUBCHEM_MONOISOTOPIC_WEIGHT>
663.158903
> <PUBCHEM_TOTAL_CHARGE>
0
> <PUBCHEM_HEAVY_ATOM_COUNT>
43
> <PUBCHEM_ATOM_DEF_STEREO_COUNT>
1
> <PUBCHEM_ATOM_UDEF_STEREO_COUNT>
0
> <PUBCHEM_BOND_DEF_STEREO_COUNT>
0
> <PUBCHEM_BOND_UDEF_STEREO_COUNT>
0
> <PUBCHEM_ISOTOPIC_ATOM_COUNT>
0
> <PUBCHEM_COMPONENT_COUNT>
1
> <PUBCHEM_CACTVS_TAUTO_COUNT>
-1
> <PUBCHEM_COORDINATE_TYPE>
1
5
255
> <PUBCHEM_BONDANNOTATIONS>
20  10  5
18  21  8
18  22  8
21  25  8
22  26  8
24  29  8
24  30  8
25  27  8
26  27  8
29  33  8
30  34  8
32  33  8
32  34  8
35  39  8
35  40  8
39  41  8
40  42  8
41  43  8
42  43  8
$$$$
