509109
  -OEChem-10302200282D
 58 61  0     1  0  0  0  0  0999 V2000
    2.0000   -3.6964    0.0000 Cl  0  0  0  0  0  0  0  0  0  0  0  0
    7.1962   -6.6964    0.0000 Cl  0  0  0  0  0  0  0  0  0  0  0  0
    3.9595    1.4673    0.0000 O   0  0  0  0  0  0  0  0  0  0  0  0
    7.1753    0.0355    0.0000 O   0  0  0  0  0  0  0  0  0  0  0  0
    7.3077    4.6602    0.0000 O   0  0  0  0  0  0  0  0  0  0  0  0
    3.7320   -4.6964    0.0000 O   0  0  0  0  0  0  0  0  0  0  0  0
    5.6808    1.0061    0.0000 N   0  0  0  0  0  0  0  0  0  0  0  0
    3.7320   -0.6964    0.0000 N   0  0  0  0  0  0  0  0  0  0  0  0
    4.5981   -0.1964    0.0000 C   0  0  3  0  0  0  0  0  0  0  0  0
    5.5116   -0.6031    0.0000 C   0  0  0  0  0  0  0  0  0  0  0  0
    4.7026    0.7981    0.0000 C   0  0  0  0  0  0  0  0  0  0  0  0
    6.1808    0.1400    0.0000 C   0  0  0  0  0  0  0  0  0  0  0  0
    6.0875    1.9196    0.0000 C   0  0  0  0  0  0  0  0  0  0  0  0
    3.7320   -1.6964    0.0000 C   0  0  0  0  0  0  0  0  0  0  0  0
    5.4997    2.7286    0.0000 C   0  0  0  0  0  0  0  0  0  0  0  0
    7.0820    2.0241    0.0000 C   0  0  0  0  0  0  0  0  0  0  0  0
    2.8660   -2.1964    0.0000 C   0  0  0  0  0  0  0  0  0  0  0  0
    4.5981   -2.1964    0.0000 C   0  0  0  0  0  0  0  0  0  0  0  0
    6.9010    3.7467    0.0000 C   0  0  0  0  0  0  0  0  0  0  0  0
    5.9064    3.6422    0.0000 C   0  0  0  0  0  0  0  0  0  0  0  0
    7.4888    2.9377    0.0000 C   0  0  0  0  0  0  0  0  0  0  0  0
    8.3022    4.7648    0.0000 C   0  0  0  0  0  0  0  0  0  0  0  0
    8.7090    5.6783    0.0000 C   0  0  0  0  0  0  0  0  0  0  0  0
    2.8660   -3.1964    0.0000 C   0  0  0  0  0  0  0  0  0  0  0  0
    4.5981   -3.1964    0.0000 C   0  0  0  0  0  0  0  0  0  0  0  0
    3.7320   -3.6964    0.0000 C   0  0  0  0  0  0  0  0  0  0  0  0
    9.7035    5.7828    0.0000 C   0  0  0  0  0  0  0  0  0  0  0  0
   10.1102    6.6964    0.0000 C   0  0  0  0  0  0  0  0  0  0  0  0
    4.5981   -5.1964    0.0000 C   0  0  0  0  0  0  0  0  0  0  0  0
    5.4641   -4.6964    0.0000 C   0  0  0  0  0  0  0  0  0  0  0  0
    4.5981   -6.1964    0.0000 C   0  0  0  0  0  0  0  0  0  0  0  0
    6.3301   -5.1964    0.0000 C   0  0  0  0  0  0  0  0  0  0  0  0
    5.4641   -6.6964    0.0000 C   0  0  0  0  0  0  0  0  0  0  0  0
    6.3301   -6.1964    0.0000 C   0  0  0  0  0  0  0  0  0  0  0  0
    4.0781    0.1413    0.0000 H   0  0  0  0  0  0  0  0  0  0  0  0
    5.2016   -1.1400    0.0000 H   0  0  0  0  0  0  0  0  0  0  0  0
    6.0132   -0.9675    0.0000 H   0  0  0  0  0  0  0  0  0  0  0  0
    3.1951   -0.3864    0.0000 H   0  0  0  0  0  0  0  0  0  0  0  0
    4.8831    2.6638    0.0000 H   0  0  0  0  0  0  0  0  0  0  0  0
    7.4464    1.5225    0.0000 H   0  0  0  0  0  0  0  0  0  0  0  0
    2.3291   -1.8864    0.0000 H   0  0  0  0  0  0  0  0  0  0  0  0
    5.1350   -1.8864    0.0000 H   0  0  0  0  0  0  0  0  0  0  0  0
    5.5420    4.1438    0.0000 H   0  0  0  0  0  0  0  0  0  0  0  0
    8.1054    3.0025    0.0000 H   0  0  0  0  0  0  0  0  0  0  0  0
    8.7522    6.2968    0.0000 H   0  0  0  0  0  0  0  0  0  0  0  0
    8.1074    5.8283    0.0000 H   0  0  0  0  0  0  0  0  0  0  0  0
    8.2590    4.1463    0.0000 H   0  0  0  0  0  0  0  0  0  0  0  0
    8.9038    4.6148    0.0000 H   0  0  0  0  0  0  0  0  0  0  0  0
    5.1350   -3.5064    0.0000 H   0  0  0  0  0  0  0  0  0  0  0  0
    9.6602    5.1644    0.0000 H   0  0  0  0  0  0  0  0  0  0  0  0
   10.3051    5.6328    0.0000 H   0  0  0  0  0  0  0  0  0  0  0  0
   10.6766    6.4442    0.0000 H   0  0  0  0  0  0  0  0  0  0  0  0
   10.3624    7.2628    0.0000 H   0  0  0  0  0  0  0  0  0  0  0  0
    9.5438    6.9486    0.0000 H   0  0  0  0  0  0  0  0  0  0  0  0
    5.4641   -4.0764    0.0000 H   0  0  0  0  0  0  0  0  0  0  0  0
    4.0611   -6.5064    0.0000 H   0  0  0  0  0  0  0  0  0  0  0  0
    6.8671   -4.8864    0.0000 H   0  0  0  0  0  0  0  0  0  0  0  0
    5.4641   -7.3164    0.0000 H   0  0  0  0  0  0  0  0  0  0  0  0
  1 24  1  0  0  0  0
  2 34  1  0  0  0  0
  3 11  2  0  0  0  0
  4 12  2  0  0  0  0
  5 19  1  0  0  0  0
  5 22  1  0  0  0  0
  6 26  1  0  0  0  0
  6 29  1  0  0  0  0
  7 11  1  0  0  0  0
  7 12  1  0  0  0  0
  7 13  1  0  0  0  0
  8  9  1  0  0  0  0
  8 14  1  0  0  0  0
  8 38  1  0  0  0  0
  9 10  1  0  0  0  0
  9 11  1  0  0  0  0
  9 35  1  0  0  0  0
 10 12  1  0  0  0  0
 10 36  1  0  0  0  0
 10 37  1  0  0  0  0
 13 15  2  0  0  0  0
 13 16  1  0  0  0  0
 14 17  2  0  0  0  0
 14 18  1  0  0  0  0
 15 20  1  0  0  0  0
 15 39  1  0  0  0  0
 16 21  2  0  0  0  0
 16 40  1  0  0  0  0
 17 24  1  0  0  0  0
 17 41  1  0  0  0  0
 18 25  2  0  0  0  0
 18 42  1  0  0  0  0
 19 20  2  0  0  0  0
 19 21  1  0  0  0  0
 20 43  1  0  0  0  0
 21 44  1  0  0  0  0
 22 23  1  0  0  0  0
 22 47  1  0  0  0  0
 22 48  1  0  0  0  0
 23 27  1  0  0  0  0
 23 45  1  0  0  0  0
 23 46  1  0  0  0  0
 24 26  2  0  0  0  0
 25 26  1  0  0  0  0
 25 49  1  0  0  0  0
 27 28  1  0  0  0  0
 27 50  1  0  0  0  0
 27 51  1  0  0  0  0
 28 52  1  0  0  0  0
 28 53  1  0  0  0  0
 28 54  1  0  0  0  0
 29 30  2  0  0  0  0
 29 31  1  0  0  0  0
 30 32  1  0  0  0  0
 30 55  1  0  0  0  0
 31 33  2  0  0  0  0
 31 56  1  0  0  0  0
 32 34  2  0  0  0  0
 32 57  1  0  0  0  0
 33 34  1  0  0  0  0
 33 58  1  0  0  0  0
M  END
> <PUBCHEM_COMPOUND_CID>
509109
> <PUBCHEM_COMPOUND_CANONICALIZED>
1
> <PUBCHEM_CACTVS_COMPLEXITY>
680
> <PUBCHEM_CACTVS_HBOND_ACCEPTOR>
5
> <PUBCHEM_CACTVS_HBOND_DONOR>
1
> <PUBCHEM_CACTVS_ROTATABLE_BOND>
9
> <PUBCHEM_CACTVS_SUBSKEYS>
AAADceB7OAAGAAAAAAAAAAAAAAAAAWAAAAAwYMAAAAAAAAABUAAAHgIQAAAACC7hkCYyxoPABACIACVSUACCCAAhJ0AIiIGOb4gMZjvF87uWOCjk1DHI6Ae1QAAAAGAAAAIACAAAwAAABAAQAAAAAAAAAA==
> <PUBCHEM_IUPAC_OPENEYE_NAME>
1-(4-butoxyphenyl)-3-[3-chloro-4-(4-chlorophenoxy)anilino]pyrrolidine-2,5-dione
> <PUBCHEM_IUPAC_CAS_NAME>
1-(4-butoxyphenyl)-3-[3-chloro-4-(4-chlorophenoxy)anilino]pyrrolidine-2,5-dione
> <PUBCHEM_IUPAC_NAME_MARKUP>
1-(4-butoxyphenyl)-3-[3-chloro-4-(4-chlorophenoxy)anilino]pyrrolidine-2,5-dione
> <PUBCHEM_IUPAC_NAME>
1-(4-butoxyphenyl)-3-[3-chloro-4-(4-chlorophenoxy)anilino]pyrrolidine-2,5-dione
> <PUBCHEM_IUPAC_SYSTEMATIC_NAME>
1-(4-butoxyphenyl)-3-[[3-chloranyl-4-(4-chloranylphenoxy)phenyl]amino]pyrrolidine-2,5-dione
> <PUBCHEM_IUPAC_TRADITIONAL_NAME>
1-(4-butoxyphenyl)-3-[3-chloro-4-(4-chlorophenoxy)anilino]pyrrolidine-2,5-quinone
> <PUBCHEM_IUPAC_INCHI>
InChI=1S/C26H24Cl2N2O4/c1-2-3-14-33-20-11-7-19(8-12-20)30-25(31)16-23(26(30)32)29-18-6-13-24(22(28)15-18)34-21-9-4-17(27)5-10-21/h4-13,15,23,29H,2-3,14,16H2,1H3
> <PUBCHEM_IUPAC_INCHIKEY>
QCSOXNAUSCFTDA-UHFFFAOYSA-N
> <PUBCHEM_XLOGP3_AA>
6.5
> <PUBCHEM_EXACT_MASS>
498.1113126
> <PUBCHEM_MOLECULAR_FORMULA>
C26H24Cl2N2O4
> <PUBCHEM_MOLECULAR_WEIGHT>
499.4
> <PUBCHEM_OPENEYE_CAN_SMILES>
CCCCOC1=CC=C(C=C1)N2C(=O)CC(C2=O)NC3=CC(=C(C=C3)OC4=CC=C(C=C4)Cl)Cl
> <PUBCHEM_OPENEYE_ISO_SMILES>
CCCCOC1=CC=C(C=C1)N2C(=O)CC(C2=O)NC3=CC(=C(C=C3)OC4=CC=C(C=C4)Cl)Cl
> <PUBCHEM_CACTVS_TPSA>
67.9
> <PUBCHEM_MONOISOTOPIC_WEIGHT>
498.1113126
> <PUBCHEM_TOTAL_CHARGE>
0
> <PUBCHEM_HEAVY_ATOM_COUNT>
34
> <PUBCHEM_ATOM_DEF_STEREO_COUNT>
0
> <PUBCHEM_ATOM_UDEF_STEREO_COUNT>
1
> <PUBCHEM_BOND_DEF_STEREO_COUNT>
0
> <PUBCHEM_BOND_UDEF_STEREO_COUNT>
0
> <PUBCHEM_ISOTOPIC_ATOM_COUNT>
0
> <PUBCHEM_COMPONENT_COUNT>
1
> <PUBCHEM_CACTVS_TAUTO_COUNT>
-1
> <PUBCHEM_COORDINATE_TYPE>
1
5
255
> <PUBCHEM_BONDANNOTATIONS>
13  15  8
13  16  8
14  17  8
14  18  8
15  20  8
16  21  8
17  24  8
18  25  8
19  20  8
19  21  8
24  26  8
25  26  8
29  30  8
29  31  8
30  32  8
31  33  8
32  34  8
33  34  8
9  8  3
$$$$
