509199
  -OEChem-10302200282D
101104  0     1  0  0  0  0  0999 V2000
    5.0298    1.6060    0.0000 O   0  0  0  0  0  0  0  0  0  0  0  0
    5.3086   -0.1541    0.0000 O   0  0  0  0  0  0  0  0  0  0  0  0
    6.5763    5.8097    0.0000 O   0  0  0  0  0  0  0  0  0  0  0  0
    7.6640    3.9256    0.0000 O   0  0  0  0  0  0  0  0  0  0  0  0
    2.4608    1.9150    0.0000 O   0  0  0  0  0  0  0  0  0  0  0  0
    6.4897   -1.8767    0.0000 O   0  0  0  0  0  0  0  0  0  0  0  0
    3.1330   -0.1541    0.0000 O   0  0  0  0  0  0  0  0  0  0  0  0
    4.6561    6.3355    0.0000 O   0  0  0  0  0  0  0  0  0  0  0  0
    7.7497   -3.1368    0.0000 O   0  0  0  0  0  0  0  0  0  0  0  0
    9.7177   -3.8361    0.0000 O   0  0  0  0  0  0  0  0  0  0  0  0
    4.2296   -3.1368    0.0000 O   0  0  0  0  0  0  0  0  0  0  0  0
    5.9897   -4.4155    0.0000 O   0  0  0  0  0  0  0  0  0  0  0  0
   11.4778   -4.1149    0.0000 O   0  0  0  0  0  0  0  0  0  0  0  0
    8.6299   -6.1840    0.0000 O   0  0  0  0  0  0  0  0  0  0  0  0
   10.8055   -6.1840    0.0000 O   0  0  0  0  0  0  0  0  0  0  0  0
   17.2726    2.3209    0.0000 O   0  0  0  0  0  0  0  0  0  0  0  0
   15.5784    2.6810    0.0000 O   0  0  0  0  0  0  0  0  0  0  0  0
    5.0868    3.6937    0.0000 N   0  0  3  0  0  0  0  0  0  0  0  0
    5.1914    4.6883    0.0000 C   0  0  1  0  0  0  0  0  0  0  0  0
    4.2208    2.1937    0.0000 C   0  0  2  0  0  0  0  0  0  0  0  0
    6.1695    4.8962    0.0000 C   0  0  2  0  0  0  0  0  0  0  0  0
    4.2208    3.1937    0.0000 C   0  0  0  0  0  0  0  0  0  0  0  0
    6.0004    3.2870    0.0000 C   0  0  0  0  0  0  0  0  0  0  0  0
    6.6695    4.0301    0.0000 C   0  0  1  0  0  0  0  0  0  0  0  0
    3.4118    1.6060    0.0000 C   0  0  2  0  0  0  0  0  0  0  0  0
    3.7208    0.6549    0.0000 C   0  0  1  0  0  0  0  0  0  0  0  0
    4.7208    0.6549    0.0000 C   0  0  2  0  0  0  0  0  0  0  0  0
    4.4482    5.3574    0.0000 C   0  0  0  0  0  0  0  0  0  0  0  0
    5.4897   -1.8767    0.0000 C   0  0  1  0  0  0  0  0  0  0  0  0
    5.1806   -2.8277    0.0000 C   0  0  2  0  0  0  0  0  0  0  0  0
    4.9019   -1.0677    0.0000 C   0  0  0  0  0  0  0  0  0  0  0  0
    5.9897   -3.4155    0.0000 C   0  0  1  0  0  0  0  0  0  0  0  0
    6.7987   -2.8277    0.0000 C   0  0  2  0  0  0  0  0  0  0  0  0
    8.9087   -4.4239    0.0000 C   0  0  1  0  0  0  0  0  0  0  0  0
    9.2177   -5.3750    0.0000 C   0  0  2  0  0  0  0  0  0  0  0  0
   10.2177   -5.3750    0.0000 C   0  0  1  0  0  0  0  0  0  0  0  0
    7.9576   -4.1149    0.0000 C   0  0  0  0  0  0  0  0  0  0  0  0
   10.5267   -4.4239    0.0000 C   0  0  2  0  0  0  0  0  0  0  0  0
   11.6857   -3.1368    0.0000 C   0  0  0  0  0  0  0  0  0  0  0  0
   12.6368   -2.8277    0.0000 C   0  0  0  0  0  0  0  0  0  0  0  0
   12.8447   -1.8496    0.0000 C   0  0  0  0  0  0  0  0  0  0  0  0
   13.7957   -1.5406    0.0000 C   0  0  0  0  0  0  0  0  0  0  0  0
   14.0036   -0.5624    0.0000 C   0  0  0  0  0  0  0  0  0  0  0  0
   14.9547   -0.2534    0.0000 C   0  0  0  0  0  0  0  0  0  0  0  0
   15.1626    0.7247    0.0000 C   0  0  0  0  0  0  0  0  0  0  0  0
   16.1137    1.0338    0.0000 C   0  0  0  0  0  0  0  0  0  0  0  0
   16.3216    2.0119    0.0000 C   0  0  0  0  0  0  0  0  0  0  0  0
   17.4805    3.2991    0.0000 C   0  0  0  0  0  0  0  0  0  0  0  0
    4.6126    4.4661    0.0000 H   0  0  0  0  0  0  0  0  0  0  0  0
    4.7732    2.4752    0.0000 H   0  0  0  0  0  0  0  0  0  0  0  0
    5.7794    5.3780    0.0000 H   0  0  0  0  0  0  0  0  0  0  0  0
    4.0088    3.7763    0.0000 H   0  0  0  0  0  0  0  0  0  0  0  0
    3.6102    3.0861    0.0000 H   0  0  0  0  0  0  0  0  0  0  0  0
    5.6904    2.7501    0.0000 H   0  0  0  0  0  0  0  0  0  0  0  0
    6.5020    2.9226    0.0000 H   0  0  0  0  0  0  0  0  0  0  0  0
    7.0072    4.5501    0.0000 H   0  0  0  0  0  0  0  0  0  0  0  0
    2.9734    1.1675    0.0000 H   0  0  0  0  0  0  0  0  0  0  0  0
    3.1085    0.7519    0.0000 H   0  0  0  0  0  0  0  0  0  0  0  0
    4.4394    0.1025    0.0000 H   0  0  0  0  0  0  0  0  0  0  0  0
    3.8734    5.5896    0.0000 H   0  0  0  0  0  0  0  0  0  0  0  0
    4.1197    4.8316    0.0000 H   0  0  0  0  0  0  0  0  0  0  0  0
    5.7711   -1.3243    0.0000 H   0  0  0  0  0  0  0  0  0  0  0  0
    5.0836   -3.4401    0.0000 H   0  0  0  0  0  0  0  0  0  0  0  0
    4.3879   -0.7210    0.0000 H   0  0  0  0  0  0  0  0  0  0  0  0
    4.4712   -1.5137    0.0000 H   0  0  0  0  0  0  0  0  0  0  0  0
    5.4372   -3.6970    0.0000 H   0  0  0  0  0  0  0  0  0  0  0  0
    6.8957   -3.4401    0.0000 H   0  0  0  0  0  0  0  0  0  0  0  0
    7.1929    5.8745    0.0000 H   0  0  0  0  0  0  0  0  0  0  0  0
    7.9162    3.3592    0.0000 H   0  0  0  0  0  0  0  0  0  0  0  0
    2.0000    1.5001    0.0000 H   0  0  0  0  0  0  0  0  0  0  0  0
    8.8117   -3.8116    0.0000 H   0  0  0  0  0  0  0  0  0  0  0  0
    2.5164   -0.0893    0.0000 H   0  0  0  0  0  0  0  0  0  0  0  0
    8.6054   -5.2780    0.0000 H   0  0  0  0  0  0  0  0  0  0  0  0
    9.9362   -5.9274    0.0000 H   0  0  0  0  0  0  0  0  0  0  0  0
    7.3380   -4.1365    0.0000 H   0  0  0  0  0  0  0  0  0  0  0  0
    7.8714   -4.7289    0.0000 H   0  0  0  0  0  0  0  0  0  0  0  0
    4.1954    6.7504    0.0000 H   0  0  0  0  0  0  0  0  0  0  0  0
   10.9651   -4.8623    0.0000 H   0  0  0  0  0  0  0  0  0  0  0  0
    3.7688   -2.7219    0.0000 H   0  0  0  0  0  0  0  0  0  0  0  0
    5.4527   -4.7255    0.0000 H   0  0  0  0  0  0  0  0  0  0  0  0
    8.8821   -6.7504    0.0000 H   0  0  0  0  0  0  0  0  0  0  0  0
   11.4221   -6.1192    0.0000 H   0  0  0  0  0  0  0  0  0  0  0  0
   11.5994   -2.5228    0.0000 H   0  0  0  0  0  0  0  0  0  0  0  0
   11.0661   -3.1151    0.0000 H   0  0  0  0  0  0  0  0  0  0  0  0
   12.7230   -3.4417    0.0000 H   0  0  0  0  0  0  0  0  0  0  0  0
   13.2564   -2.8494    0.0000 H   0  0  0  0  0  0  0  0  0  0  0  0
   12.7584   -1.2356    0.0000 H   0  0  0  0  0  0  0  0  0  0  0  0
   12.2250   -1.8280    0.0000 H   0  0  0  0  0  0  0  0  0  0  0  0
   13.8820   -2.1545    0.0000 H   0  0  0  0  0  0  0  0  0  0  0  0
   14.4153   -1.5622    0.0000 H   0  0  0  0  0  0  0  0  0  0  0  0
   13.9173    0.0515    0.0000 H   0  0  0  0  0  0  0  0  0  0  0  0
   13.3840   -0.5408    0.0000 H   0  0  0  0  0  0  0  0  0  0  0  0
   15.0410   -0.8674    0.0000 H   0  0  0  0  0  0  0  0  0  0  0  0
   15.5743   -0.2751    0.0000 H   0  0  0  0  0  0  0  0  0  0  0  0
   15.0763    1.3387    0.0000 H   0  0  0  0  0  0  0  0  0  0  0  0
   14.5430    0.7464    0.0000 H   0  0  0  0  0  0  0  0  0  0  0  0
   16.1999    0.4198    0.0000 H   0  0  0  0  0  0  0  0  0  0  0  0
   16.7333    1.0121    0.0000 H   0  0  0  0  0  0  0  0  0  0  0  0
   18.0870    3.1702    0.0000 H   0  0  0  0  0  0  0  0  0  0  0  0
   17.6094    3.9055    0.0000 H   0  0  0  0  0  0  0  0  0  0  0  0
   16.8741    3.4280    0.0000 H   0  0  0  0  0  0  0  0  0  0  0  0
  1 20  1  0  0  0  0
  1 27  1  0  0  0  0
 27  2  1  6  0  0  0
  2 31  1  0  0  0  0
 21  3  1  1  0  0  0
  3 68  1  0  0  0  0
 24  4  1  6  0  0  0
  4 69  1  0  0  0  0
 25  5  1  6  0  0  0
  5 70  1  0  0  0  0
  6 29  1  0  0  0  0
  6 33  1  0  0  0  0
 26  7  1  1  0  0  0
  7 72  1  0  0  0  0
  8 28  1  0  0  0  0
  8 77  1  0  0  0  0
 33  9  1  6  0  0  0
  9 37  1  0  0  0  0
 10 34  1  0  0  0  0
 10 38  1  0  0  0  0
 30 11  1  6  0  0  0
 11 79  1  0  0  0  0
 32 12  1  1  0  0  0
 12 80  1  0  0  0  0
 38 13  1  6  0  0  0
 13 39  1  0  0  0  0
 35 14  1  6  0  0  0
 14 81  1  0  0  0  0
 36 15  1  1  0  0  0
 15 82  1  0  0  0  0
 16 47  1  0  0  0  0
 16 48  1  0  0  0  0
 17 47  2  0  0  0  0
 18 19  1  0  0  0  0
 18 22  1  0  0  0  0
 18 23  1  0  0  0  0
 19 21  1  0  0  0  0
 19 28  1  6  0  0  0
 19 49  1  0  0  0  0
 20 22  1  1  0  0  0
 20 25  1  0  0  0  0
 20 50  1  0  0  0  0
 21 24  1  0  0  0  0
 21 51  1  0  0  0  0
 22 52  1  0  0  0  0
 22 53  1  0  0  0  0
 23 24  1  0  0  0  0
 23 54  1  0  0  0  0
 23 55  1  0  0  0  0
 24 56  1  0  0  0  0
 25 26  1  0  0  0  0
 25 57  1  0  0  0  0
 26 27  1  0  0  0  0
 26 58  1  0  0  0  0
 27 59  1  0  0  0  0
 28 60  1  0  0  0  0
 28 61  1  0  0  0  0
 29 30  1  0  0  0  0
 29 31  1  1  0  0  0
 29 62  1  0  0  0  0
 30 32  1  0  0  0  0
 30 63  1  0  0  0  0
 31 64  1  0  0  0  0
 31 65  1  0  0  0  0
 32 33  1  0  0  0  0
 32 66  1  0  0  0  0
 33 67  1  0  0  0  0
 34 35  1  0  0  0  0
 34 37  1  1  0  0  0
 34 71  1  0  0  0  0
 35 36  1  0  0  0  0
 35 73  1  0  0  0  0
 36 38  1  0  0  0  0
 36 74  1  0  0  0  0
 37 75  1  0  0  0  0
 37 76  1  0  0  0  0
 38 78  1  0  0  0  0
 39 40  1  0  0  0  0
 39 83  1  0  0  0  0
 39 84  1  0  0  0  0
 40 41  1  0  0  0  0
 40 85  1  0  0  0  0
 40 86  1  0  0  0  0
 41 42  1  0  0  0  0
 41 87  1  0  0  0  0
 41 88  1  0  0  0  0
 42 43  1  0  0  0  0
 42 89  1  0  0  0  0
 42 90  1  0  0  0  0
 43 44  1  0  0  0  0
 43 91  1  0  0  0  0
 43 92  1  0  0  0  0
 44 45  1  0  0  0  0
 44 93  1  0  0  0  0
 44 94  1  0  0  0  0
 45 46  1  0  0  0  0
 45 95  1  0  0  0  0
 45 96  1  0  0  0  0
 46 47  1  0  0  0  0
 46 97  1  0  0  0  0
 46 98  1  0  0  0  0
 48 99  1  0  0  0  0
 48100  1  0  0  0  0
 48101  1  0  0  0  0
M  END
> <PUBCHEM_COMPOUND_CID>
509199
> <PUBCHEM_COMPOUND_CANONICALIZED>
1
> <PUBCHEM_CACTVS_COMPLEXITY>
966
> <PUBCHEM_CACTVS_HBOND_ACCEPTOR>
18
> <PUBCHEM_CACTVS_HBOND_DONOR>
9
> <PUBCHEM_CACTVS_ROTATABLE_BOND>
20
> <PUBCHEM_CACTVS_SUBSKEYS>
AAADcfB6PgAAAAAAAAAAAAAAAAAAAWJEiQAAAAAAAAAAAAAAAAAAHgAACAAACDzxgAcCCAMABgAIAACQCAAAAAAAAAAAAAEIAAATEBIAgAAnQAAHAACXAAH4+KqAAAAAAAAAAAAAAAAAAAAAAAAAAAAAAA==
> <PUBCHEM_IUPAC_OPENEYE_NAME>
methyl 9-[(2S,3S,4S,5R)-5-[[(2S,3S,4S,5R)-5-[[(2S,3S,4S,5R)-5-[[(2R,3R,4R)-3,4-dihydroxy-2-(hydroxymethyl)pyrrolidin-1-yl]methyl]-3,4-dihydroxy-tetrahydrofuran-2-yl]oxymethyl]-3,4-dihydroxy-tetrahydrofuran-2-yl]oxymethyl]-3,4-dihydroxy-tetrahydrofuran-2-yl]oxynonanoate
> <PUBCHEM_IUPAC_CAS_NAME>
9-[[(2S,3S,4S,5R)-5-[[(2S,3S,4S,5R)-5-[[(2S,3S,4S,5R)-5-[[(2R,3R,4R)-3,4-dihydroxy-2-(hydroxymethyl)-1-pyrrolidinyl]methyl]-3,4-dihydroxy-2-oxolanyl]oxymethyl]-3,4-dihydroxy-2-oxolanyl]oxymethyl]-3,4-dihydroxy-2-oxolanyl]oxy]nonanoic acid methyl ester
> <PUBCHEM_IUPAC_NAME_MARKUP>
methyl 9-[(2<I>S</I>,3<I>S</I>,4<I>S</I>,5<I>R</I>)-5-[[(2<I>S</I>,3<I>S</I>,4<I>S</I>,5<I>R</I>)-5-[[(2<I>S</I>,3<I>S</I>,4<I>S</I>,5<I>R</I>)-5-[[(2<I>R</I>,3<I>R</I>,4<I>R</I>)-3,4-dihydroxy-2-(hydroxymethyl)pyrrolidin-1-yl]methyl]-3,4-dihydroxyoxolan-2-yl]oxymethyl]-3,4-dihydroxyoxolan-2-yl]oxymethyl]-3,4-dihydroxyoxolan-2-yl]oxynonanoate
> <PUBCHEM_IUPAC_NAME>
methyl 9-[(2S,3S,4S,5R)-5-[[(2S,3S,4S,5R)-5-[[(2S,3S,4S,5R)-5-[[(2R,3R,4R)-3,4-dihydroxy-2-(hydroxymethyl)pyrrolidin-1-yl]methyl]-3,4-dihydroxyoxolan-2-yl]oxymethyl]-3,4-dihydroxyoxolan-2-yl]oxymethyl]-3,4-dihydroxyoxolan-2-yl]oxynonanoate
> <PUBCHEM_IUPAC_SYSTEMATIC_NAME>
methyl 9-[(2S,3S,4S,5R)-5-[[(2S,3S,4S,5R)-5-[[(2S,3S,4S,5R)-5-[[(2R,3R,4R)-2-(hydroxymethyl)-3,4-bis(oxidanyl)pyrrolidin-1-yl]methyl]-3,4-bis(oxidanyl)oxolan-2-yl]oxymethyl]-3,4-bis(oxidanyl)oxolan-2-yl]oxymethyl]-3,4-bis(oxidanyl)oxolan-2-yl]oxynonanoate
> <PUBCHEM_IUPAC_TRADITIONAL_NAME>
9-[(2S,3S,4S,5R)-5-[[(2S,3S,4S,5R)-5-[[(2S,3S,4S,5R)-5-[[(2R,3R,4R)-3,4-dihydroxy-2-methylol-pyrrolidino]methyl]-3,4-dihydroxy-tetrahydrofuran-2-yl]oxymethyl]-3,4-dihydroxy-tetrahydrofuran-2-yl]oxymethyl]-3,4-dihydroxy-tetrahydrofuran-2-yl]oxypelargonic acid methyl ester
> <PUBCHEM_IUPAC_INCHI>
InChI=1S/C30H53NO17/c1-42-20(34)8-6-4-2-3-5-7-9-43-28-26(40)23(37)18(47-28)13-45-30-27(41)24(38)19(48-30)14-44-29-25(39)22(36)17(46-29)11-31-10-16(33)21(35)15(31)12-32/h15-19,21-30,32-33,35-41H,2-14H2,1H3/t15-,16-,17-,18-,19-,21-,22-,23-,24-,25+,26+,27+,28+,29+,30+/m1/s1
> <PUBCHEM_IUPAC_INCHIKEY>
QSQFKIKXIDQYGB-AZWOGAIWSA-N
> <PUBCHEM_XLOGP3_AA>
-3.3
> <PUBCHEM_EXACT_MASS>
699.33134922
> <PUBCHEM_MOLECULAR_FORMULA>
C30H53NO17
> <PUBCHEM_MOLECULAR_WEIGHT>
699.7
> <PUBCHEM_OPENEYE_CAN_SMILES>
COC(=O)CCCCCCCCOC1C(C(C(O1)COC2C(C(C(O2)COC3C(C(C(O3)CN4CC(C(C4CO)O)O)O)O)O)O)O)O
> <PUBCHEM_OPENEYE_ISO_SMILES>
COC(=O)CCCCCCCCO[C@@H]1[C@H]([C@@H]([C@H](O1)CO[C@@H]2[C@H]([C@@H]([C@H](O2)CO[C@@H]3[C@H]([C@@H]([C@H](O3)CN4C[C@H]([C@@H]([C@H]4CO)O)O)O)O)O)O)O)O
> <PUBCHEM_CACTVS_TPSA>
267
> <PUBCHEM_MONOISOTOPIC_WEIGHT>
699.33134922
> <PUBCHEM_TOTAL_CHARGE>
0
> <PUBCHEM_HEAVY_ATOM_COUNT>
48
> <PUBCHEM_ATOM_DEF_STEREO_COUNT>
15
> <PUBCHEM_ATOM_UDEF_STEREO_COUNT>
0
> <PUBCHEM_BOND_DEF_STEREO_COUNT>
0
> <PUBCHEM_BOND_UDEF_STEREO_COUNT>
0
> <PUBCHEM_ISOTOPIC_ATOM_COUNT>
0
> <PUBCHEM_COMPONENT_COUNT>
1
> <PUBCHEM_CACTVS_TAUTO_COUNT>
-1
> <PUBCHEM_COORDINATE_TYPE>
1
5
255
> <PUBCHEM_BONDANNOTATIONS>
30  11  6
32  12  5
38  13  6
35  14  6
36  15  5
19  28  6
27  2  6
20  22  5
29  31  5
21  3  5
34  37  5
24  4  6
25  5  6
26  7  5
33  9  6
$$$$
