509105
  -OEChem-10302200282D
 48 51  0     1  0  0  0  0  0999 V2000
    2.0000   -3.0828    0.0000 Cl  0  0  0  0  0  0  0  0  0  0  0  0
    7.1962   -6.0828    0.0000 Cl  0  0  0  0  0  0  0  0  0  0  0  0
    3.9595    2.0808    0.0000 O   0  0  0  0  0  0  0  0  0  0  0  0
    7.1753    0.6491    0.0000 O   0  0  0  0  0  0  0  0  0  0  0  0
    3.7320   -4.0828    0.0000 O   0  0  0  0  0  0  0  0  0  0  0  0
    8.3022    5.3783    0.0000 O   0  0  0  0  0  0  0  0  0  0  0  0
    6.7199    6.0828    0.0000 O   0  0  0  0  0  0  0  0  0  0  0  0
    5.6808    1.6196    0.0000 N   0  0  0  0  0  0  0  0  0  0  0  0
    3.7320   -0.0828    0.0000 N   0  0  0  0  0  0  0  0  0  0  0  0
    4.5981    0.4172    0.0000 C   0  0  3  0  0  0  0  0  0  0  0  0
    5.5116    0.0104    0.0000 C   0  0  0  0  0  0  0  0  0  0  0  0
    4.7026    1.4117    0.0000 C   0  0  0  0  0  0  0  0  0  0  0  0
    6.1808    0.7536    0.0000 C   0  0  0  0  0  0  0  0  0  0  0  0
    6.0875    2.5332    0.0000 C   0  0  0  0  0  0  0  0  0  0  0  0
    3.7320   -1.0828    0.0000 C   0  0  0  0  0  0  0  0  0  0  0  0
    7.0820    2.6377    0.0000 C   0  0  0  0  0  0  0  0  0  0  0  0
    5.4997    3.3422    0.0000 C   0  0  0  0  0  0  0  0  0  0  0  0
    2.8660   -1.5828    0.0000 C   0  0  0  0  0  0  0  0  0  0  0  0
    4.5981   -1.5828    0.0000 C   0  0  0  0  0  0  0  0  0  0  0  0
    7.4888    3.5512    0.0000 C   0  0  0  0  0  0  0  0  0  0  0  0
    5.9064    4.2557    0.0000 C   0  0  0  0  0  0  0  0  0  0  0  0
    6.9010    4.3602    0.0000 C   0  0  0  0  0  0  0  0  0  0  0  0
    2.8660   -2.5828    0.0000 C   0  0  0  0  0  0  0  0  0  0  0  0
    4.5981   -2.5828    0.0000 C   0  0  0  0  0  0  0  0  0  0  0  0
    3.7320   -3.0828    0.0000 C   0  0  0  0  0  0  0  0  0  0  0  0
    7.3077    5.2738    0.0000 C   0  0  0  0  0  0  0  0  0  0  0  0
    4.5981   -4.5828    0.0000 C   0  0  0  0  0  0  0  0  0  0  0  0
    4.5981   -5.5828    0.0000 C   0  0  0  0  0  0  0  0  0  0  0  0
    5.4641   -4.0828    0.0000 C   0  0  0  0  0  0  0  0  0  0  0  0
    5.4641   -6.0828    0.0000 C   0  0  0  0  0  0  0  0  0  0  0  0
    6.3301   -4.5828    0.0000 C   0  0  0  0  0  0  0  0  0  0  0  0
    6.3301   -5.5828    0.0000 C   0  0  0  0  0  0  0  0  0  0  0  0
    4.0781    0.7549    0.0000 H   0  0  0  0  0  0  0  0  0  0  0  0
    5.2016   -0.5265    0.0000 H   0  0  0  0  0  0  0  0  0  0  0  0
    6.0132   -0.3540    0.0000 H   0  0  0  0  0  0  0  0  0  0  0  0
    3.1951    0.2272    0.0000 H   0  0  0  0  0  0  0  0  0  0  0  0
    7.4464    2.1361    0.0000 H   0  0  0  0  0  0  0  0  0  0  0  0
    4.8831    3.2774    0.0000 H   0  0  0  0  0  0  0  0  0  0  0  0
    2.3291   -1.2728    0.0000 H   0  0  0  0  0  0  0  0  0  0  0  0
    5.1350   -1.2728    0.0000 H   0  0  0  0  0  0  0  0  0  0  0  0
    8.1054    3.6160    0.0000 H   0  0  0  0  0  0  0  0  0  0  0  0
    5.5420    4.7573    0.0000 H   0  0  0  0  0  0  0  0  0  0  0  0
    5.1350   -2.8928    0.0000 H   0  0  0  0  0  0  0  0  0  0  0  0
    4.0611   -5.8928    0.0000 H   0  0  0  0  0  0  0  0  0  0  0  0
    5.4641   -3.4628    0.0000 H   0  0  0  0  0  0  0  0  0  0  0  0
    5.4641   -6.7028    0.0000 H   0  0  0  0  0  0  0  0  0  0  0  0
    6.8671   -4.2728    0.0000 H   0  0  0  0  0  0  0  0  0  0  0  0
    8.5544    5.9447    0.0000 H   0  0  0  0  0  0  0  0  0  0  0  0
  1 23  1  0  0  0  0
  2 32  1  0  0  0  0
  3 12  2  0  0  0  0
  4 13  2  0  0  0  0
  5 25  1  0  0  0  0
  5 27  1  0  0  0  0
  6 26  1  0  0  0  0
  6 48  1  0  0  0  0
  7 26  2  0  0  0  0
  8 12  1  0  0  0  0
  8 13  1  0  0  0  0
  8 14  1  0  0  0  0
  9 10  1  0  0  0  0
  9 15  1  0  0  0  0
  9 36  1  0  0  0  0
 10 11  1  0  0  0  0
 10 12  1  0  0  0  0
 10 33  1  0  0  0  0
 11 13  1  0  0  0  0
 11 34  1  0  0  0  0
 11 35  1  0  0  0  0
 14 16  2  0  0  0  0
 14 17  1  0  0  0  0
 15 18  2  0  0  0  0
 15 19  1  0  0  0  0
 16 20  1  0  0  0  0
 16 37  1  0  0  0  0
 17 21  2  0  0  0  0
 17 38  1  0  0  0  0
 18 23  1  0  0  0  0
 18 39  1  0  0  0  0
 19 24  2  0  0  0  0
 19 40  1  0  0  0  0
 20 22  2  0  0  0  0
 20 41  1  0  0  0  0
 21 22  1  0  0  0  0
 21 42  1  0  0  0  0
 22 26  1  0  0  0  0
 23 25  2  0  0  0  0
 24 25  1  0  0  0  0
 24 43  1  0  0  0  0
 27 28  2  0  0  0  0
 27 29  1  0  0  0  0
 28 30  1  0  0  0  0
 28 44  1  0  0  0  0
 29 31  2  0  0  0  0
 29 45  1  0  0  0  0
 30 32  2  0  0  0  0
 30 46  1  0  0  0  0
 31 32  1  0  0  0  0
 31 47  1  0  0  0  0
M  END
> <PUBCHEM_COMPOUND_CID>
509105
> <PUBCHEM_COMPOUND_CANONICALIZED>
1
> <PUBCHEM_CACTVS_COMPLEXITY>
707
> <PUBCHEM_CACTVS_HBOND_ACCEPTOR>
6
> <PUBCHEM_CACTVS_HBOND_DONOR>
2
> <PUBCHEM_CACTVS_ROTATABLE_BOND>
6
> <PUBCHEM_CACTVS_SUBSKEYS>
AAADceB7OAAGAAAAAAAAAAAAAAAAAWAAAAAwYMAAAAAAAAABUAAAHgIQCAAADC7BmCQwzoPABgCIAiXSWACCCAAlJ0AIiIGOb8gMZjvF97uWeSjk1DHI+Ye92SOeCGAAAAIACAAQwAAABAAQAAAAAAAAAA==
> <PUBCHEM_IUPAC_OPENEYE_NAME>
4-[3-[3-chloro-4-(4-chlorophenoxy)anilino]-2,5-dioxo-pyrrolidin-1-yl]benzoic acid
> <PUBCHEM_IUPAC_CAS_NAME>
4-[3-[3-chloro-4-(4-chlorophenoxy)anilino]-2,5-dioxo-1-pyrrolidinyl]benzoic acid
> <PUBCHEM_IUPAC_NAME_MARKUP>
4-[3-[3-chloro-4-(4-chlorophenoxy)anilino]-2,5-dioxopyrrolidin-1-yl]benzoic acid
> <PUBCHEM_IUPAC_NAME>
4-[3-[3-chloro-4-(4-chlorophenoxy)anilino]-2,5-dioxopyrrolidin-1-yl]benzoic acid
> <PUBCHEM_IUPAC_SYSTEMATIC_NAME>
4-[3-[[3-chloranyl-4-(4-chloranylphenoxy)phenyl]amino]-2,5-bis(oxidanylidene)pyrrolidin-1-yl]benzoic acid
> <PUBCHEM_IUPAC_TRADITIONAL_NAME>
4-[3-[3-chloro-4-(4-chlorophenoxy)anilino]-2,5-diketo-pyrrolidino]benzoic acid
> <PUBCHEM_IUPAC_INCHI>
InChI=1S/C23H16Cl2N2O5/c24-14-3-8-17(9-4-14)32-20-10-5-15(11-18(20)25)26-19-12-21(28)27(22(19)29)16-6-1-13(2-7-16)23(30)31/h1-11,19,26H,12H2,(H,30,31)
> <PUBCHEM_IUPAC_INCHIKEY>
QSDVPMPYIZVEEO-UHFFFAOYSA-N
> <PUBCHEM_XLOGP3_AA>
4.8
> <PUBCHEM_EXACT_MASS>
470.0436270
> <PUBCHEM_MOLECULAR_FORMULA>
C23H16Cl2N2O5
> <PUBCHEM_MOLECULAR_WEIGHT>
471.3
> <PUBCHEM_OPENEYE_CAN_SMILES>
C1C(C(=O)N(C1=O)C2=CC=C(C=C2)C(=O)O)NC3=CC(=C(C=C3)OC4=CC=C(C=C4)Cl)Cl
> <PUBCHEM_OPENEYE_ISO_SMILES>
C1C(C(=O)N(C1=O)C2=CC=C(C=C2)C(=O)O)NC3=CC(=C(C=C3)OC4=CC=C(C=C4)Cl)Cl
> <PUBCHEM_CACTVS_TPSA>
95.9
> <PUBCHEM_MONOISOTOPIC_WEIGHT>
470.0436270
> <PUBCHEM_TOTAL_CHARGE>
0
> <PUBCHEM_HEAVY_ATOM_COUNT>
32
> <PUBCHEM_ATOM_DEF_STEREO_COUNT>
0
> <PUBCHEM_ATOM_UDEF_STEREO_COUNT>
1
> <PUBCHEM_BOND_DEF_STEREO_COUNT>
0
> <PUBCHEM_BOND_UDEF_STEREO_COUNT>
0
> <PUBCHEM_ISOTOPIC_ATOM_COUNT>
0
> <PUBCHEM_COMPONENT_COUNT>
1
> <PUBCHEM_CACTVS_TAUTO_COUNT>
-1
> <PUBCHEM_COORDINATE_TYPE>
1
5
255
> <PUBCHEM_BONDANNOTATIONS>
14  16  8
14  17  8
15  18  8
15  19  8
16  20  8
17  21  8
18  23  8
19  24  8
20  22  8
21  22  8
23  25  8
24  25  8
27  28  8
27  29  8
28  30  8
29  31  8
30  32  8
31  32  8
10  9  3
$$$$
