509193
  -OEChem-10302200282D
 69 70  0     1  0  0  0  0  0999 V2000
    6.1098   -2.1105    0.0000 O   0  0  0  0  0  0  0  0  0  0  0  0
    4.7177    1.1116    0.0000 O   0  0  0  0  0  0  0  0  0  0  0  0
    2.5897    0.6593    0.0000 O   0  0  0  0  0  0  0  0  0  0  0  0
    5.0220   -4.4583    0.0000 O   0  0  0  0  0  0  0  0  0  0  0  0
    7.8699   -2.3892    0.0000 O   0  0  0  0  0  0  0  0  0  0  0  0
    7.1976   -4.4583    0.0000 O   0  0  0  0  0  0  0  0  0  0  0  0
   13.6647    4.0466    0.0000 O   0  0  0  0  0  0  0  0  0  0  0  0
   11.9705    4.4067    0.0000 O   0  0  0  0  0  0  0  0  0  0  0  0
    4.1418   -1.4111    0.0000 N   0  0  3  0  0  0  0  0  0  0  0  0
    4.8110   -0.6679    0.0000 C   0  0  1  0  0  0  0  0  0  0  0  0
    4.3110    0.1981    0.0000 C   0  0  2  0  0  0  0  0  0  0  0  0
    3.2283   -1.0044    0.0000 C   0  0  0  0  0  0  0  0  0  0  0  0
    3.3328   -0.0098    0.0000 C   0  0  1  0  0  0  0  0  0  0  0  0
    4.3497   -2.3892    0.0000 C   0  0  0  0  0  0  0  0  0  0  0  0
    5.3008   -2.6983    0.0000 C   0  0  2  0  0  0  0  0  0  0  0  0
    5.6098   -3.6493    0.0000 C   0  0  2  0  0  0  0  0  0  0  0  0
    5.8055   -0.7725    0.0000 C   0  0  0  0  0  0  0  0  0  0  0  0
    6.6098   -3.6493    0.0000 C   0  0  1  0  0  0  0  0  0  0  0  0
    6.9188   -2.6983    0.0000 C   0  0  2  0  0  0  0  0  0  0  0  0
    6.3932    0.0365    0.0000 C   0  0  0  0  0  0  0  0  0  0  0  0
    8.0778   -1.4111    0.0000 C   0  0  0  0  0  0  0  0  0  0  0  0
    9.0288   -1.1021    0.0000 C   0  0  0  0  0  0  0  0  0  0  0  0
    9.2368   -0.1239    0.0000 C   0  0  0  0  0  0  0  0  0  0  0  0
   10.1878    0.1851    0.0000 C   0  0  0  0  0  0  0  0  0  0  0  0
   10.3957    1.1632    0.0000 C   0  0  0  0  0  0  0  0  0  0  0  0
   11.3468    1.4722    0.0000 C   0  0  0  0  0  0  0  0  0  0  0  0
   11.5547    2.4504    0.0000 C   0  0  0  0  0  0  0  0  0  0  0  0
   12.5057    2.7594    0.0000 C   0  0  0  0  0  0  0  0  0  0  0  0
   12.7137    3.7376    0.0000 C   0  0  0  0  0  0  0  0  0  0  0  0
   13.8726    5.0247    0.0000 C   0  0  0  0  0  0  0  0  0  0  0  0
    5.0331   -1.2468    0.0000 H   0  0  0  0  0  0  0  0  0  0  0  0
    3.9208    0.6799    0.0000 H   0  0  0  0  0  0  0  0  0  0  0  0
    2.6218   -0.8755    0.0000 H   0  0  0  0  0  0  0  0  0  0  0  0
    3.0367   -1.5940    0.0000 H   0  0  0  0  0  0  0  0  0  0  0  0
    3.4933    0.5890    0.0000 H   0  0  0  0  0  0  0  0  0  0  0  0
    3.7301   -2.4109    0.0000 H   0  0  0  0  0  0  0  0  0  0  0  0
    4.2634   -3.0032    0.0000 H   0  0  0  0  0  0  0  0  0  0  0  0
    5.2038   -2.0859    0.0000 H   0  0  0  0  0  0  0  0  0  0  0  0
    4.9974   -3.5523    0.0000 H   0  0  0  0  0  0  0  0  0  0  0  0
    5.6346   -1.3685    0.0000 H   0  0  0  0  0  0  0  0  0  0  0  0
    6.3627   -1.0443    0.0000 H   0  0  0  0  0  0  0  0  0  0  0  0
    6.3283   -4.2017    0.0000 H   0  0  0  0  0  0  0  0  0  0  0  0
    7.3572   -3.1367    0.0000 H   0  0  0  0  0  0  0  0  0  0  0  0
    6.8948   -0.3279    0.0000 H   0  0  0  0  0  0  0  0  0  0  0  0
    6.7577    0.5381    0.0000 H   0  0  0  0  0  0  0  0  0  0  0  0
    5.8917    0.4010    0.0000 H   0  0  0  0  0  0  0  0  0  0  0  0
    4.3533    1.6132    0.0000 H   0  0  0  0  0  0  0  0  0  0  0  0
    2.0000    0.4677    0.0000 H   0  0  0  0  0  0  0  0  0  0  0  0
    5.2742   -5.0247    0.0000 H   0  0  0  0  0  0  0  0  0  0  0  0
    7.8142   -4.3935    0.0000 H   0  0  0  0  0  0  0  0  0  0  0  0
    7.9915   -0.7971    0.0000 H   0  0  0  0  0  0  0  0  0  0  0  0
    7.4582   -1.3895    0.0000 H   0  0  0  0  0  0  0  0  0  0  0  0
    9.1151   -1.7160    0.0000 H   0  0  0  0  0  0  0  0  0  0  0  0
    9.6485   -1.1237    0.0000 H   0  0  0  0  0  0  0  0  0  0  0  0
    9.1505    0.4900    0.0000 H   0  0  0  0  0  0  0  0  0  0  0  0
    8.6171   -0.1023    0.0000 H   0  0  0  0  0  0  0  0  0  0  0  0
   10.2741   -0.4289    0.0000 H   0  0  0  0  0  0  0  0  0  0  0  0
   10.8074    0.1635    0.0000 H   0  0  0  0  0  0  0  0  0  0  0  0
   10.3094    1.7772    0.0000 H   0  0  0  0  0  0  0  0  0  0  0  0
    9.7761    1.1849    0.0000 H   0  0  0  0  0  0  0  0  0  0  0  0
   11.4331    0.8583    0.0000 H   0  0  0  0  0  0  0  0  0  0  0  0
   11.9664    1.4506    0.0000 H   0  0  0  0  0  0  0  0  0  0  0  0
   11.4684    3.0644    0.0000 H   0  0  0  0  0  0  0  0  0  0  0  0
   10.9351    2.4720    0.0000 H   0  0  0  0  0  0  0  0  0  0  0  0
   12.5920    2.1454    0.0000 H   0  0  0  0  0  0  0  0  0  0  0  0
   13.1254    2.7378    0.0000 H   0  0  0  0  0  0  0  0  0  0  0  0
   14.4791    4.8958    0.0000 H   0  0  0  0  0  0  0  0  0  0  0  0
   14.0015    5.6312    0.0000 H   0  0  0  0  0  0  0  0  0  0  0  0
   13.2662    5.1536    0.0000 H   0  0  0  0  0  0  0  0  0  0  0  0
  1 15  1  0  0  0  0
  1 19  1  0  0  0  0
 11  2  1  6  0  0  0
  2 47  1  0  0  0  0
 13  3  1  1  0  0  0
  3 48  1  0  0  0  0
 16  4  1  6  0  0  0
  4 49  1  0  0  0  0
 19  5  1  6  0  0  0
  5 21  1  0  0  0  0
 18  6  1  1  0  0  0
  6 50  1  0  0  0  0
  7 29  1  0  0  0  0
  7 30  1  0  0  0  0
  8 29  2  0  0  0  0
  9 10  1  0  0  0  0
  9 12  1  0  0  0  0
  9 14  1  0  0  0  0
 10 11  1  0  0  0  0
 10 17  1  1  0  0  0
 10 31  1  0  0  0  0
 11 13  1  0  0  0  0
 11 32  1  0  0  0  0
 12 13  1  0  0  0  0
 12 33  1  0  0  0  0
 12 34  1  0  0  0  0
 13 35  1  0  0  0  0
 15 14  1  1  0  0  0
 14 36  1  0  0  0  0
 14 37  1  0  0  0  0
 15 16  1  0  0  0  0
 15 38  1  0  0  0  0
 16 18  1  0  0  0  0
 16 39  1  0  0  0  0
 17 20  1  0  0  0  0
 17 40  1  0  0  0  0
 17 41  1  0  0  0  0
 18 19  1  0  0  0  0
 18 42  1  0  0  0  0
 19 43  1  0  0  0  0
 20 44  1  0  0  0  0
 20 45  1  0  0  0  0
 20 46  1  0  0  0  0
 21 22  1  0  0  0  0
 21 51  1  0  0  0  0
 21 52  1  0  0  0  0
 22 23  1  0  0  0  0
 22 53  1  0  0  0  0
 22 54  1  0  0  0  0
 23 24  1  0  0  0  0
 23 55  1  0  0  0  0
 23 56  1  0  0  0  0
 24 25  1  0  0  0  0
 24 57  1  0  0  0  0
 24 58  1  0  0  0  0
 25 26  1  0  0  0  0
 25 59  1  0  0  0  0
 25 60  1  0  0  0  0
 26 27  1  0  0  0  0
 26 61  1  0  0  0  0
 26 62  1  0  0  0  0
 27 28  1  0  0  0  0
 27 63  1  0  0  0  0
 27 64  1  0  0  0  0
 28 29  1  0  0  0  0
 28 65  1  0  0  0  0
 28 66  1  0  0  0  0
 30 67  1  0  0  0  0
 30 68  1  0  0  0  0
 30 69  1  0  0  0  0
M  END
> <PUBCHEM_COMPOUND_CID>
509193
> <PUBCHEM_COMPOUND_CANONICALIZED>
1
> <PUBCHEM_CACTVS_COMPLEXITY>
507
> <PUBCHEM_CACTVS_HBOND_ACCEPTOR>
9
> <PUBCHEM_CACTVS_HBOND_DONOR>
4
> <PUBCHEM_CACTVS_ROTATABLE_BOND>
14
> <PUBCHEM_CACTVS_SUBSKEYS>
AAADcfB6PAAAAAAAAAAAAAAAAAAAAWJAAAAAAAAAAAAAAAAAAAAAHgAACAAACDzxgAcCCAMABgAIAACQCAAAAAAAAAAAAAEIAAATEBIAgAAnQAAHAACXAAH42KKAAAAAAAAAAAAAAAAAAAAAAAAAAAAAAA==
> <PUBCHEM_IUPAC_OPENEYE_NAME>
methyl 9-[(2S,3S,4S,5R)-5-[[(2R,3R,4R)-2-ethyl-3,4-dihydroxy-pyrrolidin-1-yl]methyl]-3,4-dihydroxy-tetrahydrofuran-2-yl]oxynonanoate
> <PUBCHEM_IUPAC_CAS_NAME>
9-[[(2S,3S,4S,5R)-5-[[(2R,3R,4R)-2-ethyl-3,4-dihydroxy-1-pyrrolidinyl]methyl]-3,4-dihydroxy-2-oxolanyl]oxy]nonanoic acid methyl ester
> <PUBCHEM_IUPAC_NAME_MARKUP>
methyl 9-[(2<I>S</I>,3<I>S</I>,4<I>S</I>,5<I>R</I>)-5-[[(2<I>R</I>,3<I>R</I>,4<I>R</I>)-2-ethyl-3,4-dihydroxypyrrolidin-1-yl]methyl]-3,4-dihydroxyoxolan-2-yl]oxynonanoate
> <PUBCHEM_IUPAC_NAME>
methyl 9-[(2S,3S,4S,5R)-5-[[(2R,3R,4R)-2-ethyl-3,4-dihydroxypyrrolidin-1-yl]methyl]-3,4-dihydroxyoxolan-2-yl]oxynonanoate
> <PUBCHEM_IUPAC_SYSTEMATIC_NAME>
methyl 9-[(2S,3S,4S,5R)-5-[[(2R,3R,4R)-2-ethyl-3,4-bis(oxidanyl)pyrrolidin-1-yl]methyl]-3,4-bis(oxidanyl)oxolan-2-yl]oxynonanoate
> <PUBCHEM_IUPAC_TRADITIONAL_NAME>
9-[(2S,3S,4S,5R)-5-[[(2R,3R,4R)-2-ethyl-3,4-dihydroxy-pyrrolidino]methyl]-3,4-dihydroxy-tetrahydrofuran-2-yl]oxypelargonic acid methyl ester
> <PUBCHEM_IUPAC_INCHI>
InChI=1S/C21H39NO8/c1-3-14-18(25)15(23)12-22(14)13-16-19(26)20(27)21(30-16)29-11-9-7-5-4-6-8-10-17(24)28-2/h14-16,18-21,23,25-27H,3-13H2,1-2H3/t14-,15-,16-,18-,19-,20+,21+/m1/s1
> <PUBCHEM_IUPAC_INCHIKEY>
ULDVUEIDWDNMSV-RXPDXRJRSA-N
> <PUBCHEM_XLOGP3_AA>
0.8
> <PUBCHEM_EXACT_MASS>
433.26756720
> <PUBCHEM_MOLECULAR_FORMULA>
C21H39NO8
> <PUBCHEM_MOLECULAR_WEIGHT>
433.5
> <PUBCHEM_OPENEYE_CAN_SMILES>
CCC1C(C(CN1CC2C(C(C(O2)OCCCCCCCCC(=O)OC)O)O)O)O
> <PUBCHEM_OPENEYE_ISO_SMILES>
CC[C@@H]1[C@H]([C@@H](CN1C[C@@H]2[C@H]([C@@H]([C@H](O2)OCCCCCCCCC(=O)OC)O)O)O)O
> <PUBCHEM_CACTVS_TPSA>
129
> <PUBCHEM_MONOISOTOPIC_WEIGHT>
433.26756720
> <PUBCHEM_TOTAL_CHARGE>
0
> <PUBCHEM_HEAVY_ATOM_COUNT>
30
> <PUBCHEM_ATOM_DEF_STEREO_COUNT>
7
> <PUBCHEM_ATOM_UDEF_STEREO_COUNT>
0
> <PUBCHEM_BOND_DEF_STEREO_COUNT>
0
> <PUBCHEM_BOND_UDEF_STEREO_COUNT>
0
> <PUBCHEM_ISOTOPIC_ATOM_COUNT>
0
> <PUBCHEM_COMPONENT_COUNT>
1
> <PUBCHEM_CACTVS_TAUTO_COUNT>
-1
> <PUBCHEM_COORDINATE_TYPE>
1
5
255
> <PUBCHEM_BONDANNOTATIONS>
10  17  5
15  14  5
11  2  6
13  3  5
16  4  6
19  5  6
18  6  5
$$$$
