509112
  -OEChem-10302200282D
 51 55  0     1  0  0  0  0  0999 V2000
    2.3102   -3.7480    0.0000 Cl  0  0  0  0  0  0  0  0  0  0  0  0
    8.2773   -4.3752    0.0000 Cl  0  0  0  0  0  0  0  0  0  0  0  0
    2.0000    1.7662    0.0000 O   0  0  0  0  0  0  0  0  0  0  0  0
    5.5202    1.7662    0.0000 O   0  0  0  0  0  0  0  0  0  0  0  0
    4.2992   -3.9570    0.0000 O   0  0  0  0  0  0  0  0  0  0  0  0
    3.7601    2.0450    0.0000 N   0  0  0  0  0  0  0  0  0  0  0  0
    2.6723   -0.3029    0.0000 N   0  0  0  0  0  0  0  0  0  0  0  0
    3.2601    0.5061    0.0000 C   0  0  3  0  0  0  0  0  0  0  0  0
    4.2601    0.5061    0.0000 C   0  0  0  0  0  0  0  0  0  0  0  0
    2.9511    1.4572    0.0000 C   0  0  0  0  0  0  0  0  0  0  0  0
    4.5691    1.4572    0.0000 C   0  0  0  0  0  0  0  0  0  0  0  0
    3.7601    3.0450    0.0000 C   0  0  0  0  0  0  0  0  0  0  0  0
    4.6261    3.5450    0.0000 C   0  0  0  0  0  0  0  0  0  0  0  0
    3.0790   -1.2164    0.0000 C   0  0  0  0  0  0  0  0  0  0  0  0
    2.8940    3.5450    0.0000 C   0  0  0  0  0  0  0  0  0  0  0  0
    4.6261    4.5450    0.0000 C   0  0  0  0  0  0  0  0  0  0  0  0
    5.5200    3.0103    0.0000 C   0  0  0  0  0  0  0  0  0  0  0  0
    2.8940    4.5450    0.0000 C   0  0  0  0  0  0  0  0  0  0  0  0
    3.7601    5.0450    0.0000 C   0  0  0  0  0  0  0  0  0  0  0  0
    2.4912   -2.0254    0.0000 C   0  0  0  0  0  0  0  0  0  0  0  0
    4.0736   -1.3209    0.0000 C   0  0  0  0  0  0  0  0  0  0  0  0
    5.5200    5.0796    0.0000 C   0  0  0  0  0  0  0  0  0  0  0  0
    6.4261    3.5242    0.0000 C   0  0  0  0  0  0  0  0  0  0  0  0
    6.4261    4.5658    0.0000 C   0  0  0  0  0  0  0  0  0  0  0  0
    2.8980   -2.9390    0.0000 C   0  0  0  0  0  0  0  0  0  0  0  0
    4.4803   -2.2345    0.0000 C   0  0  0  0  0  0  0  0  0  0  0  0
    3.8925   -3.0435    0.0000 C   0  0  0  0  0  0  0  0  0  0  0  0
    5.2938   -4.0616    0.0000 C   0  0  0  0  0  0  0  0  0  0  0  0
    5.8815   -3.2526    0.0000 C   0  0  0  0  0  0  0  0  0  0  0  0
    5.7005   -4.9751    0.0000 C   0  0  0  0  0  0  0  0  0  0  0  0
    6.8761   -3.3571    0.0000 C   0  0  0  0  0  0  0  0  0  0  0  0
    6.6950   -5.0796    0.0000 C   0  0  0  0  0  0  0  0  0  0  0  0
    7.2828   -4.2706    0.0000 C   0  0  0  0  0  0  0  0  0  0  0  0
    2.6477    0.6031    0.0000 H   0  0  0  0  0  0  0  0  0  0  0  0
    4.1953   -0.1105    0.0000 H   0  0  0  0  0  0  0  0  0  0  0  0
    4.8665    0.3772    0.0000 H   0  0  0  0  0  0  0  0  0  0  0  0
    2.0557   -0.2381    0.0000 H   0  0  0  0  0  0  0  0  0  0  0  0
    2.3571    3.2350    0.0000 H   0  0  0  0  0  0  0  0  0  0  0  0
    5.5129    2.3904    0.0000 H   0  0  0  0  0  0  0  0  0  0  0  0
    2.3571    4.8550    0.0000 H   0  0  0  0  0  0  0  0  0  0  0  0
    3.7601    5.6650    0.0000 H   0  0  0  0  0  0  0  0  0  0  0  0
    1.8746   -1.9606    0.0000 H   0  0  0  0  0  0  0  0  0  0  0  0
    4.4380   -0.8194    0.0000 H   0  0  0  0  0  0  0  0  0  0  0  0
    5.5129    5.6996    0.0000 H   0  0  0  0  0  0  0  0  0  0  0  0
    6.9618    3.2121    0.0000 H   0  0  0  0  0  0  0  0  0  0  0  0
    6.9618    4.8779    0.0000 H   0  0  0  0  0  0  0  0  0  0  0  0
    5.0969   -2.2993    0.0000 H   0  0  0  0  0  0  0  0  0  0  0  0
    5.6294   -2.6862    0.0000 H   0  0  0  0  0  0  0  0  0  0  0  0
    5.3361   -5.4767    0.0000 H   0  0  0  0  0  0  0  0  0  0  0  0
    7.2405   -2.8555    0.0000 H   0  0  0  0  0  0  0  0  0  0  0  0
    6.9472   -5.6460    0.0000 H   0  0  0  0  0  0  0  0  0  0  0  0
  1 25  1  0  0  0  0
  2 33  1  0  0  0  0
  3 10  2  0  0  0  0
  4 11  2  0  0  0  0
  5 27  1  0  0  0  0
  5 28  1  0  0  0  0
  6 10  1  0  0  0  0
  6 11  1  0  0  0  0
  6 12  1  0  0  0  0
  7  8  1  0  0  0  0
  7 14  1  0  0  0  0
  7 37  1  0  0  0  0
  8  9  1  0  0  0  0
  8 10  1  0  0  0  0
  8 34  1  0  0  0  0
  9 11  1  0  0  0  0
  9 35  1  0  0  0  0
  9 36  1  0  0  0  0
 12 13  1  0  0  0  0
 12 15  2  0  0  0  0
 13 16  1  0  0  0  0
 13 17  2  0  0  0  0
 14 20  2  0  0  0  0
 14 21  1  0  0  0  0
 15 18  1  0  0  0  0
 15 38  1  0  0  0  0
 16 19  1  0  0  0  0
 16 22  2  0  0  0  0
 17 23  1  0  0  0  0
 17 39  1  0  0  0  0
 18 19  2  0  0  0  0
 18 40  1  0  0  0  0
 19 41  1  0  0  0  0
 20 25  1  0  0  0  0
 20 42  1  0  0  0  0
 21 26  2  0  0  0  0
 21 43  1  0  0  0  0
 22 24  1  0  0  0  0
 22 44  1  0  0  0  0
 23 24  2  0  0  0  0
 23 45  1  0  0  0  0
 24 46  1  0  0  0  0
 25 27  2  0  0  0  0
 26 27  1  0  0  0  0
 26 47  1  0  0  0  0
 28 29  2  0  0  0  0
 28 30  1  0  0  0  0
 29 31  1  0  0  0  0
 29 48  1  0  0  0  0
 30 32  2  0  0  0  0
 30 49  1  0  0  0  0
 31 33  2  0  0  0  0
 31 50  1  0  0  0  0
 32 33  1  0  0  0  0
 32 51  1  0  0  0  0
M  END
> <PUBCHEM_COMPOUND_CID>
509112
> <PUBCHEM_COMPOUND_CANONICALIZED>
1
> <PUBCHEM_CACTVS_COMPLEXITY>
714
> <PUBCHEM_CACTVS_HBOND_ACCEPTOR>
4
> <PUBCHEM_CACTVS_HBOND_DONOR>
1
> <PUBCHEM_CACTVS_ROTATABLE_BOND>
5
> <PUBCHEM_CACTVS_SUBSKEYS>
AAADceB7MAAGAAAAAAAAAAAAAAAAAWAAAAAwYMGAAAAAAADBVAAAHgIQAAAADC7BmCQwxsPABACIAiVSUACCCAAhJ0AIiIGOb4gMZjvF87uWOCjk1DHI6Ae1wIAOgGAAQAISCAAAwACABCQQAAAAAAAAAA==
> <PUBCHEM_IUPAC_OPENEYE_NAME>
3-[3-chloro-4-(4-chlorophenoxy)anilino]-1-(1-naphthyl)pyrrolidine-2,5-dione
> <PUBCHEM_IUPAC_CAS_NAME>
3-[3-chloro-4-(4-chlorophenoxy)anilino]-1-(1-naphthalenyl)pyrrolidine-2,5-dione
> <PUBCHEM_IUPAC_NAME_MARKUP>
3-[3-chloro-4-(4-chlorophenoxy)anilino]-1-naphthalen-1-ylpyrrolidine-2,5-dione
> <PUBCHEM_IUPAC_NAME>
3-[3-chloro-4-(4-chlorophenoxy)anilino]-1-naphthalen-1-ylpyrrolidine-2,5-dione
> <PUBCHEM_IUPAC_SYSTEMATIC_NAME>
3-[[3-chloranyl-4-(4-chloranylphenoxy)phenyl]amino]-1-naphthalen-1-yl-pyrrolidine-2,5-dione
> <PUBCHEM_IUPAC_TRADITIONAL_NAME>
3-[3-chloro-4-(4-chlorophenoxy)anilino]-1-(1-naphthyl)pyrrolidine-2,5-quinone
> <PUBCHEM_IUPAC_INCHI>
InChI=1S/C26H18Cl2N2O3/c27-17-8-11-19(12-9-17)33-24-13-10-18(14-21(24)28)29-22-15-25(31)30(26(22)32)23-7-3-5-16-4-1-2-6-20(16)23/h1-14,22,29H,15H2
> <PUBCHEM_IUPAC_INCHIKEY>
QOVTXRUJJXKTCT-UHFFFAOYSA-N
> <PUBCHEM_XLOGP3_AA>
6.5
> <PUBCHEM_EXACT_MASS>
476.0694478
> <PUBCHEM_MOLECULAR_FORMULA>
C26H18Cl2N2O3
> <PUBCHEM_MOLECULAR_WEIGHT>
477.3
> <PUBCHEM_OPENEYE_CAN_SMILES>
C1C(C(=O)N(C1=O)C2=CC=CC3=CC=CC=C32)NC4=CC(=C(C=C4)OC5=CC=C(C=C5)Cl)Cl
> <PUBCHEM_OPENEYE_ISO_SMILES>
C1C(C(=O)N(C1=O)C2=CC=CC3=CC=CC=C32)NC4=CC(=C(C=C4)OC5=CC=C(C=C5)Cl)Cl
> <PUBCHEM_CACTVS_TPSA>
58.6
> <PUBCHEM_MONOISOTOPIC_WEIGHT>
476.0694478
> <PUBCHEM_TOTAL_CHARGE>
0
> <PUBCHEM_HEAVY_ATOM_COUNT>
33
> <PUBCHEM_ATOM_DEF_STEREO_COUNT>
0
> <PUBCHEM_ATOM_UDEF_STEREO_COUNT>
1
> <PUBCHEM_BOND_DEF_STEREO_COUNT>
0
> <PUBCHEM_BOND_UDEF_STEREO_COUNT>
0
> <PUBCHEM_ISOTOPIC_ATOM_COUNT>
0
> <PUBCHEM_COMPONENT_COUNT>
1
> <PUBCHEM_CACTVS_TAUTO_COUNT>
-1
> <PUBCHEM_COORDINATE_TYPE>
1
5
255
> <PUBCHEM_BONDANNOTATIONS>
12  13  8
12  15  8
13  16  8
13  17  8
14  20  8
14  21  8
15  18  8
16  19  8
16  22  8
17  23  8
18  19  8
20  25  8
21  26  8
22  24  8
23  24  8
25  27  8
26  27  8
28  29  8
28  30  8
29  31  8
30  32  8
31  33  8
32  33  8
8  7  3
$$$$
