509102
  -OEChem-10302200282D
 45 48  0     1  0  0  0  0  0999 V2000
    2.0000   -2.2215    0.0000 Cl  0  0  0  0  0  0  0  0  0  0  0  0
    7.1962   -5.2215    0.0000 Cl  0  0  0  0  0  0  0  0  0  0  0  0
    3.9595    2.9421    0.0000 O   0  0  0  0  0  0  0  0  0  0  0  0
    7.1753    1.5103    0.0000 O   0  0  0  0  0  0  0  0  0  0  0  0
    3.7320   -3.2215    0.0000 O   0  0  0  0  0  0  0  0  0  0  0  0
    5.6808    2.4809    0.0000 N   0  0  0  0  0  0  0  0  0  0  0  0
    3.7320    0.7785    0.0000 N   0  0  0  0  0  0  0  0  0  0  0  0
    4.5981    1.2785    0.0000 C   0  0  3  0  0  0  0  0  0  0  0  0
    5.5116    0.8717    0.0000 C   0  0  0  0  0  0  0  0  0  0  0  0
    4.7026    2.2730    0.0000 C   0  0  0  0  0  0  0  0  0  0  0  0
    6.1808    1.6149    0.0000 C   0  0  0  0  0  0  0  0  0  0  0  0
    6.0875    3.3944    0.0000 C   0  0  0  0  0  0  0  0  0  0  0  0
    3.7320   -0.2215    0.0000 C   0  0  0  0  0  0  0  0  0  0  0  0
    5.4997    4.2035    0.0000 C   0  0  0  0  0  0  0  0  0  0  0  0
    7.0820    3.4990    0.0000 C   0  0  0  0  0  0  0  0  0  0  0  0
    2.8660   -0.7215    0.0000 C   0  0  0  0  0  0  0  0  0  0  0  0
    4.5981   -0.7215    0.0000 C   0  0  0  0  0  0  0  0  0  0  0  0
    2.8660   -1.7215    0.0000 C   0  0  0  0  0  0  0  0  0  0  0  0
    4.5981   -1.7215    0.0000 C   0  0  0  0  0  0  0  0  0  0  0  0
    3.7320   -2.2215    0.0000 C   0  0  0  0  0  0  0  0  0  0  0  0
    5.9064    5.1170    0.0000 C   0  0  0  0  0  0  0  0  0  0  0  0
    7.4888    4.4125    0.0000 C   0  0  0  0  0  0  0  0  0  0  0  0
    6.9010    5.2215    0.0000 C   0  0  0  0  0  0  0  0  0  0  0  0
    4.5981   -3.7215    0.0000 C   0  0  0  0  0  0  0  0  0  0  0  0
    4.5981   -4.7215    0.0000 C   0  0  0  0  0  0  0  0  0  0  0  0
    5.4641   -3.2215    0.0000 C   0  0  0  0  0  0  0  0  0  0  0  0
    5.4641   -5.2215    0.0000 C   0  0  0  0  0  0  0  0  0  0  0  0
    6.3301   -3.7215    0.0000 C   0  0  0  0  0  0  0  0  0  0  0  0
    6.3301   -4.7215    0.0000 C   0  0  0  0  0  0  0  0  0  0  0  0
    4.0781    1.6161    0.0000 H   0  0  0  0  0  0  0  0  0  0  0  0
    5.2016    0.3348    0.0000 H   0  0  0  0  0  0  0  0  0  0  0  0
    6.0132    0.5073    0.0000 H   0  0  0  0  0  0  0  0  0  0  0  0
    3.1951    1.0885    0.0000 H   0  0  0  0  0  0  0  0  0  0  0  0
    4.8831    4.1386    0.0000 H   0  0  0  0  0  0  0  0  0  0  0  0
    7.4464    2.9974    0.0000 H   0  0  0  0  0  0  0  0  0  0  0  0
    2.3291   -0.4115    0.0000 H   0  0  0  0  0  0  0  0  0  0  0  0
    5.1350   -0.4115    0.0000 H   0  0  0  0  0  0  0  0  0  0  0  0
    5.1350   -2.0315    0.0000 H   0  0  0  0  0  0  0  0  0  0  0  0
    5.5420    5.6186    0.0000 H   0  0  0  0  0  0  0  0  0  0  0  0
    8.1054    4.4773    0.0000 H   0  0  0  0  0  0  0  0  0  0  0  0
    7.1531    5.7879    0.0000 H   0  0  0  0  0  0  0  0  0  0  0  0
    4.0611   -5.0315    0.0000 H   0  0  0  0  0  0  0  0  0  0  0  0
    5.4641   -2.6015    0.0000 H   0  0  0  0  0  0  0  0  0  0  0  0
    5.4641   -5.8415    0.0000 H   0  0  0  0  0  0  0  0  0  0  0  0
    6.8671   -3.4115    0.0000 H   0  0  0  0  0  0  0  0  0  0  0  0
  1 18  1  0  0  0  0
  2 29  1  0  0  0  0
  3 10  2  0  0  0  0
  4 11  2  0  0  0  0
  5 20  1  0  0  0  0
  5 24  1  0  0  0  0
  6 10  1  0  0  0  0
  6 11  1  0  0  0  0
  6 12  1  0  0  0  0
  7  8  1  0  0  0  0
  7 13  1  0  0  0  0
  7 33  1  0  0  0  0
  8  9  1  0  0  0  0
  8 10  1  0  0  0  0
  8 30  1  0  0  0  0
  9 11  1  0  0  0  0
  9 31  1  0  0  0  0
  9 32  1  0  0  0  0
 12 14  2  0  0  0  0
 12 15  1  0  0  0  0
 13 16  2  0  0  0  0
 13 17  1  0  0  0  0
 14 21  1  0  0  0  0
 14 34  1  0  0  0  0
 15 22  2  0  0  0  0
 15 35  1  0  0  0  0
 16 18  1  0  0  0  0
 16 36  1  0  0  0  0
 17 19  2  0  0  0  0
 17 37  1  0  0  0  0
 18 20  2  0  0  0  0
 19 20  1  0  0  0  0
 19 38  1  0  0  0  0
 21 23  2  0  0  0  0
 21 39  1  0  0  0  0
 22 23  1  0  0  0  0
 22 40  1  0  0  0  0
 23 41  1  0  0  0  0
 24 25  2  0  0  0  0
 24 26  1  0  0  0  0
 25 27  1  0  0  0  0
 25 42  1  0  0  0  0
 26 28  2  0  0  0  0
 26 43  1  0  0  0  0
 27 29  2  0  0  0  0
 27 44  1  0  0  0  0
 28 29  1  0  0  0  0
 28 45  1  0  0  0  0
M  END
> <PUBCHEM_COMPOUND_CID>
509102
> <PUBCHEM_COMPOUND_CANONICALIZED>
1
> <PUBCHEM_CACTVS_COMPLEXITY>
591
> <PUBCHEM_CACTVS_HBOND_ACCEPTOR>
4
> <PUBCHEM_CACTVS_HBOND_DONOR>
1
> <PUBCHEM_CACTVS_ROTATABLE_BOND>
5
> <PUBCHEM_CACTVS_SUBSKEYS>
AAADceB7MAAGAAAAAAAAAAAAAAAAAWAAAAAwYMAAAAAAAAABUAAAHgIQAAAACC7BkCQwxoPABACIACVSUACCCAAhJ0AIiIGOb4gMZjvF87uWOCjk1DHI6Ae1QAAAAGAAAAIACAAAwAAABAAQAAAAAAAAAA==
> <PUBCHEM_IUPAC_OPENEYE_NAME>
3-[3-chloro-4-(4-chlorophenoxy)anilino]-1-phenyl-pyrrolidine-2,5-dione
> <PUBCHEM_IUPAC_CAS_NAME>
3-[3-chloro-4-(4-chlorophenoxy)anilino]-1-phenylpyrrolidine-2,5-dione
> <PUBCHEM_IUPAC_NAME_MARKUP>
3-[3-chloro-4-(4-chlorophenoxy)anilino]-1-phenylpyrrolidine-2,5-dione
> <PUBCHEM_IUPAC_NAME>
3-[3-chloro-4-(4-chlorophenoxy)anilino]-1-phenylpyrrolidine-2,5-dione
> <PUBCHEM_IUPAC_SYSTEMATIC_NAME>
3-[[3-chloranyl-4-(4-chloranylphenoxy)phenyl]amino]-1-phenyl-pyrrolidine-2,5-dione
> <PUBCHEM_IUPAC_TRADITIONAL_NAME>
3-[3-chloro-4-(4-chlorophenoxy)anilino]-1-phenyl-pyrrolidine-2,5-quinone
> <PUBCHEM_IUPAC_INCHI>
InChI=1S/C22H16Cl2N2O3/c23-14-6-9-17(10-7-14)29-20-11-8-15(12-18(20)24)25-19-13-21(27)26(22(19)28)16-4-2-1-3-5-16/h1-12,19,25H,13H2
> <PUBCHEM_IUPAC_INCHIKEY>
UPHOXVKOYKHXPN-UHFFFAOYSA-N
> <PUBCHEM_XLOGP3_AA>
5.3
> <PUBCHEM_EXACT_MASS>
426.0537978
> <PUBCHEM_MOLECULAR_FORMULA>
C22H16Cl2N2O3
> <PUBCHEM_MOLECULAR_WEIGHT>
427.3
> <PUBCHEM_OPENEYE_CAN_SMILES>
C1C(C(=O)N(C1=O)C2=CC=CC=C2)NC3=CC(=C(C=C3)OC4=CC=C(C=C4)Cl)Cl
> <PUBCHEM_OPENEYE_ISO_SMILES>
C1C(C(=O)N(C1=O)C2=CC=CC=C2)NC3=CC(=C(C=C3)OC4=CC=C(C=C4)Cl)Cl
> <PUBCHEM_CACTVS_TPSA>
58.6
> <PUBCHEM_MONOISOTOPIC_WEIGHT>
426.0537978
> <PUBCHEM_TOTAL_CHARGE>
0
> <PUBCHEM_HEAVY_ATOM_COUNT>
29
> <PUBCHEM_ATOM_DEF_STEREO_COUNT>
0
> <PUBCHEM_ATOM_UDEF_STEREO_COUNT>
1
> <PUBCHEM_BOND_DEF_STEREO_COUNT>
0
> <PUBCHEM_BOND_UDEF_STEREO_COUNT>
0
> <PUBCHEM_ISOTOPIC_ATOM_COUNT>
0
> <PUBCHEM_COMPONENT_COUNT>
1
> <PUBCHEM_CACTVS_TAUTO_COUNT>
-1
> <PUBCHEM_COORDINATE_TYPE>
1
5
255
> <PUBCHEM_BONDANNOTATIONS>
12  14  8
12  15  8
13  16  8
13  17  8
14  21  8
15  22  8
16  18  8
17  19  8
18  20  8
19  20  8
21  23  8
22  23  8
24  25  8
24  26  8
25  27  8
26  28  8
27  29  8
28  29  8
8  7  3
$$$$
