509198
  -OEChem-10302200282D
 99102  0     1  0  0  0  0  0999 V2000
    5.0298    2.5331    0.0000 O   0  0  0  0  0  0  0  0  0  0  0  0
    5.3086    0.7730    0.0000 O   0  0  0  0  0  0  0  0  0  0  0  0
    6.4897   -0.9496    0.0000 O   0  0  0  0  0  0  0  0  0  0  0  0
    2.4608    2.8421    0.0000 O   0  0  0  0  0  0  0  0  0  0  0  0
    3.1330    0.7730    0.0000 O   0  0  0  0  0  0  0  0  0  0  0  0
    7.7497   -2.2096    0.0000 O   0  0  0  0  0  0  0  0  0  0  0  0
    9.7177   -2.9090    0.0000 O   0  0  0  0  0  0  0  0  0  0  0  0
    7.1594    2.9270    0.0000 O   0  0  0  0  0  0  0  0  0  0  0  0
    4.2296   -2.2096    0.0000 O   0  0  0  0  0  0  0  0  0  0  0  0
    5.9897   -3.4884    0.0000 O   0  0  0  0  0  0  0  0  0  0  0  0
   11.4778   -3.1878    0.0000 O   0  0  0  0  0  0  0  0  0  0  0  0
    8.6299   -5.2569    0.0000 O   0  0  0  0  0  0  0  0  0  0  0  0
   10.8055   -5.2569    0.0000 O   0  0  0  0  0  0  0  0  0  0  0  0
   17.2726    3.2480    0.0000 O   0  0  0  0  0  0  0  0  0  0  0  0
   15.5784    3.6081    0.0000 O   0  0  0  0  0  0  0  0  0  0  0  0
    5.0868    4.6208    0.0000 N   0  0  3  0  0  0  0  0  0  0  0  0
    4.2208    3.1208    0.0000 C   0  0  2  0  0  0  0  0  0  0  0  0
    6.0004    4.2141    0.0000 C   0  0  1  0  0  0  0  0  0  0  0  0
    4.2208    4.1208    0.0000 C   0  0  0  0  0  0  0  0  0  0  0  0
    3.4118    2.5331    0.0000 C   0  0  2  0  0  0  0  0  0  0  0  0
    5.1914    5.6154    0.0000 C   0  0  0  0  0  0  0  0  0  0  0  0
    6.6695    4.9573    0.0000 C   0  0  0  0  0  0  0  0  0  0  0  0
    6.1695    5.8233    0.0000 C   0  0  0  0  0  0  0  0  0  0  0  0
    3.7208    1.5820    0.0000 C   0  0  1  0  0  0  0  0  0  0  0  0
    4.7208    1.5820    0.0000 C   0  0  2  0  0  0  0  0  0  0  0  0
    6.2083    3.2360    0.0000 C   0  0  0  0  0  0  0  0  0  0  0  0
    5.4897   -0.9496    0.0000 C   0  0  1  0  0  0  0  0  0  0  0  0
    5.1806   -1.9006    0.0000 C   0  0  2  0  0  0  0  0  0  0  0  0
    5.9897   -2.4884    0.0000 C   0  0  1  0  0  0  0  0  0  0  0  0
    4.9019   -0.1406    0.0000 C   0  0  0  0  0  0  0  0  0  0  0  0
    6.7987   -1.9006    0.0000 C   0  0  2  0  0  0  0  0  0  0  0  0
    8.9087   -3.4968    0.0000 C   0  0  1  0  0  0  0  0  0  0  0  0
    9.2177   -4.4479    0.0000 C   0  0  2  0  0  0  0  0  0  0  0  0
   10.2177   -4.4479    0.0000 C   0  0  1  0  0  0  0  0  0  0  0  0
    7.9576   -3.1878    0.0000 C   0  0  0  0  0  0  0  0  0  0  0  0
   10.5267   -3.4968    0.0000 C   0  0  2  0  0  0  0  0  0  0  0  0
   11.6857   -2.2096    0.0000 C   0  0  0  0  0  0  0  0  0  0  0  0
   12.6368   -1.9006    0.0000 C   0  0  0  0  0  0  0  0  0  0  0  0
   12.8447   -0.9225    0.0000 C   0  0  0  0  0  0  0  0  0  0  0  0
   13.7957   -0.6135    0.0000 C   0  0  0  0  0  0  0  0  0  0  0  0
   14.0036    0.3647    0.0000 C   0  0  0  0  0  0  0  0  0  0  0  0
   14.9547    0.6737    0.0000 C   0  0  0  0  0  0  0  0  0  0  0  0
   15.1626    1.6518    0.0000 C   0  0  0  0  0  0  0  0  0  0  0  0
   16.1137    1.9609    0.0000 C   0  0  0  0  0  0  0  0  0  0  0  0
   16.3216    2.9390    0.0000 C   0  0  0  0  0  0  0  0  0  0  0  0
   17.4805    4.2262    0.0000 C   0  0  0  0  0  0  0  0  0  0  0  0
    4.7732    3.4023    0.0000 H   0  0  0  0  0  0  0  0  0  0  0  0
    5.5186    3.8239    0.0000 H   0  0  0  0  0  0  0  0  0  0  0  0
    4.0088    4.7035    0.0000 H   0  0  0  0  0  0  0  0  0  0  0  0
    3.6102    4.0132    0.0000 H   0  0  0  0  0  0  0  0  0  0  0  0
    3.3148    3.1454    0.0000 H   0  0  0  0  0  0  0  0  0  0  0  0
    5.1266    6.2320    0.0000 H   0  0  0  0  0  0  0  0  0  0  0  0
    4.5714    5.6154    0.0000 H   0  0  0  0  0  0  0  0  0  0  0  0
    7.0844    4.4965    0.0000 H   0  0  0  0  0  0  0  0  0  0  0  0
    7.1711    5.3217    0.0000 H   0  0  0  0  0  0  0  0  0  0  0  0
    6.7359    6.0755    0.0000 H   0  0  0  0  0  0  0  0  0  0  0  0
    5.9779    6.4129    0.0000 H   0  0  0  0  0  0  0  0  0  0  0  0
    3.1085    1.6790    0.0000 H   0  0  0  0  0  0  0  0  0  0  0  0
    4.4394    1.0296    0.0000 H   0  0  0  0  0  0  0  0  0  0  0  0
    5.5887    3.2143    0.0000 H   0  0  0  0  0  0  0  0  0  0  0  0
    6.1220    2.6220    0.0000 H   0  0  0  0  0  0  0  0  0  0  0  0
    5.7711   -0.3971    0.0000 H   0  0  0  0  0  0  0  0  0  0  0  0
    5.0836   -2.5130    0.0000 H   0  0  0  0  0  0  0  0  0  0  0  0
    5.4372   -2.7699    0.0000 H   0  0  0  0  0  0  0  0  0  0  0  0
    4.3879    0.2061    0.0000 H   0  0  0  0  0  0  0  0  0  0  0  0
    4.4712   -0.5865    0.0000 H   0  0  0  0  0  0  0  0  0  0  0  0
    6.8957   -2.5130    0.0000 H   0  0  0  0  0  0  0  0  0  0  0  0
    8.8117   -2.8844    0.0000 H   0  0  0  0  0  0  0  0  0  0  0  0
    8.6054   -4.3509    0.0000 H   0  0  0  0  0  0  0  0  0  0  0  0
    2.0000    2.4272    0.0000 H   0  0  0  0  0  0  0  0  0  0  0  0
    9.9362   -5.0003    0.0000 H   0  0  0  0  0  0  0  0  0  0  0  0
    7.3380   -3.2094    0.0000 H   0  0  0  0  0  0  0  0  0  0  0  0
    7.8714   -3.8018    0.0000 H   0  0  0  0  0  0  0  0  0  0  0  0
    2.5164    0.8378    0.0000 H   0  0  0  0  0  0  0  0  0  0  0  0
   10.9651   -3.9352    0.0000 H   0  0  0  0  0  0  0  0  0  0  0  0
    7.6201    3.3418    0.0000 H   0  0  0  0  0  0  0  0  0  0  0  0
    3.7688   -1.7948    0.0000 H   0  0  0  0  0  0  0  0  0  0  0  0
    5.4527   -3.7984    0.0000 H   0  0  0  0  0  0  0  0  0  0  0  0
    8.8821   -5.8233    0.0000 H   0  0  0  0  0  0  0  0  0  0  0  0
   11.4221   -5.1921    0.0000 H   0  0  0  0  0  0  0  0  0  0  0  0
   11.5994   -1.5957    0.0000 H   0  0  0  0  0  0  0  0  0  0  0  0
   11.0661   -2.1880    0.0000 H   0  0  0  0  0  0  0  0  0  0  0  0
   12.7230   -2.5146    0.0000 H   0  0  0  0  0  0  0  0  0  0  0  0
   13.2564   -1.9223    0.0000 H   0  0  0  0  0  0  0  0  0  0  0  0
   12.7584   -0.3085    0.0000 H   0  0  0  0  0  0  0  0  0  0  0  0
   12.2250   -0.9008    0.0000 H   0  0  0  0  0  0  0  0  0  0  0  0
   13.8820   -1.2274    0.0000 H   0  0  0  0  0  0  0  0  0  0  0  0
   14.4153   -0.6351    0.0000 H   0  0  0  0  0  0  0  0  0  0  0  0
   13.9173    0.9786    0.0000 H   0  0  0  0  0  0  0  0  0  0  0  0
   13.3840    0.3863    0.0000 H   0  0  0  0  0  0  0  0  0  0  0  0
   15.0410    0.0597    0.0000 H   0  0  0  0  0  0  0  0  0  0  0  0
   15.5743    0.6521    0.0000 H   0  0  0  0  0  0  0  0  0  0  0  0
   15.0763    2.2658    0.0000 H   0  0  0  0  0  0  0  0  0  0  0  0
   14.5430    1.6735    0.0000 H   0  0  0  0  0  0  0  0  0  0  0  0
   16.1999    1.3469    0.0000 H   0  0  0  0  0  0  0  0  0  0  0  0
   16.7333    1.9392    0.0000 H   0  0  0  0  0  0  0  0  0  0  0  0
   18.0870    4.0973    0.0000 H   0  0  0  0  0  0  0  0  0  0  0  0
   17.6094    4.8326    0.0000 H   0  0  0  0  0  0  0  0  0  0  0  0
   16.8741    4.3551    0.0000 H   0  0  0  0  0  0  0  0  0  0  0  0
  1 17  1  0  0  0  0
  1 25  1  0  0  0  0
 25  2  1  6  0  0  0
  2 30  1  0  0  0  0
  3 27  1  0  0  0  0
  3 31  1  0  0  0  0
 20  4  1  6  0  0  0
  4 70  1  0  0  0  0
 24  5  1  1  0  0  0
  5 74  1  0  0  0  0
 31  6  1  6  0  0  0
  6 35  1  0  0  0  0
  7 32  1  0  0  0  0
  7 36  1  0  0  0  0
  8 26  1  0  0  0  0
  8 76  1  0  0  0  0
 28  9  1  6  0  0  0
  9 77  1  0  0  0  0
 29 10  1  1  0  0  0
 10 78  1  0  0  0  0
 36 11  1  6  0  0  0
 11 37  1  0  0  0  0
 33 12  1  6  0  0  0
 12 79  1  0  0  0  0
 34 13  1  1  0  0  0
 13 80  1  0  0  0  0
 14 45  1  0  0  0  0
 14 46  1  0  0  0  0
 15 45  2  0  0  0  0
 16 18  1  0  0  0  0
 16 19  1  0  0  0  0
 16 21  1  0  0  0  0
 17 19  1  1  0  0  0
 17 20  1  0  0  0  0
 17 47  1  0  0  0  0
 18 22  1  0  0  0  0
 18 26  1  1  0  0  0
 18 48  1  0  0  0  0
 19 49  1  0  0  0  0
 19 50  1  0  0  0  0
 20 24  1  0  0  0  0
 20 51  1  0  0  0  0
 21 23  1  0  0  0  0
 21 52  1  0  0  0  0
 21 53  1  0  0  0  0
 22 23  1  0  0  0  0
 22 54  1  0  0  0  0
 22 55  1  0  0  0  0
 23 56  1  0  0  0  0
 23 57  1  0  0  0  0
 24 25  1  0  0  0  0
 24 58  1  0  0  0  0
 25 59  1  0  0  0  0
 26 60  1  0  0  0  0
 26 61  1  0  0  0  0
 27 28  1  0  0  0  0
 27 30  1  1  0  0  0
 27 62  1  0  0  0  0
 28 29  1  0  0  0  0
 28 63  1  0  0  0  0
 29 31  1  0  0  0  0
 29 64  1  0  0  0  0
 30 65  1  0  0  0  0
 30 66  1  0  0  0  0
 31 67  1  0  0  0  0
 32 33  1  0  0  0  0
 32 35  1  1  0  0  0
 32 68  1  0  0  0  0
 33 34  1  0  0  0  0
 33 69  1  0  0  0  0
 34 36  1  0  0  0  0
 34 71  1  0  0  0  0
 35 72  1  0  0  0  0
 35 73  1  0  0  0  0
 36 75  1  0  0  0  0
 37 38  1  0  0  0  0
 37 81  1  0  0  0  0
 37 82  1  0  0  0  0
 38 39  1  0  0  0  0
 38 83  1  0  0  0  0
 38 84  1  0  0  0  0
 39 40  1  0  0  0  0
 39 85  1  0  0  0  0
 39 86  1  0  0  0  0
 40 41  1  0  0  0  0
 40 87  1  0  0  0  0
 40 88  1  0  0  0  0
 41 42  1  0  0  0  0
 41 89  1  0  0  0  0
 41 90  1  0  0  0  0
 42 43  1  0  0  0  0
 42 91  1  0  0  0  0
 42 92  1  0  0  0  0
 43 44  1  0  0  0  0
 43 93  1  0  0  0  0
 43 94  1  0  0  0  0
 44 45  1  0  0  0  0
 44 95  1  0  0  0  0
 44 96  1  0  0  0  0
 46 97  1  0  0  0  0
 46 98  1  0  0  0  0
 46 99  1  0  0  0  0
M  END
> <PUBCHEM_COMPOUND_CID>
509198
> <PUBCHEM_COMPOUND_CANONICALIZED>
1
> <PUBCHEM_CACTVS_COMPLEXITY>
902
> <PUBCHEM_CACTVS_HBOND_ACCEPTOR>
16
> <PUBCHEM_CACTVS_HBOND_DONOR>
7
> <PUBCHEM_CACTVS_ROTATABLE_BOND>
20
> <PUBCHEM_CACTVS_SUBSKEYS>
AAADcfB6PAAAAAAAAAAAAAAAAAAAAWJEiQAAAAAAAAAAAAAAAAAAHgAACAAACDzxgAcCCAMABgAIAACQCAAAAAAAAAAAAAEIAAATEBIAgAAnQAAHAACXAAH4+KqAAAAAAAAAAAAAAAAAAAAAAAAAAAAAAA==
> <PUBCHEM_IUPAC_OPENEYE_NAME>
methyl 9-[(2S,3S,4S,5R)-5-[[(2S,3S,4S,5R)-5-[[(2S,3S,4S,5R)-3,4-dihydroxy-5-[[(2S)-2-(hydroxymethyl)pyrrolidin-1-yl]methyl]tetrahydrofuran-2-yl]oxymethyl]-3,4-dihydroxy-tetrahydrofuran-2-yl]oxymethyl]-3,4-dihydroxy-tetrahydrofuran-2-yl]oxynonanoate
> <PUBCHEM_IUPAC_CAS_NAME>
9-[[(2S,3S,4S,5R)-5-[[(2S,3S,4S,5R)-5-[[(2S,3S,4S,5R)-3,4-dihydroxy-5-[[(2S)-2-(hydroxymethyl)-1-pyrrolidinyl]methyl]-2-oxolanyl]oxymethyl]-3,4-dihydroxy-2-oxolanyl]oxymethyl]-3,4-dihydroxy-2-oxolanyl]oxy]nonanoic acid methyl ester
> <PUBCHEM_IUPAC_NAME_MARKUP>
methyl 9-[(2<I>S</I>,3<I>S</I>,4<I>S</I>,5<I>R</I>)-5-[[(2<I>S</I>,3<I>S</I>,4<I>S</I>,5<I>R</I>)-5-[[(2<I>S</I>,3<I>S</I>,4<I>S</I>,5<I>R</I>)-3,4-dihydroxy-5-[[(2<I>S</I>)-2-(hydroxymethyl)pyrrolidin-1-yl]methyl]oxolan-2-yl]oxymethyl]-3,4-dihydroxyoxolan-2-yl]oxymethyl]-3,4-dihydroxyoxolan-2-yl]oxynonanoate
> <PUBCHEM_IUPAC_NAME>
methyl 9-[(2S,3S,4S,5R)-5-[[(2S,3S,4S,5R)-5-[[(2S,3S,4S,5R)-3,4-dihydroxy-5-[[(2S)-2-(hydroxymethyl)pyrrolidin-1-yl]methyl]oxolan-2-yl]oxymethyl]-3,4-dihydroxyoxolan-2-yl]oxymethyl]-3,4-dihydroxyoxolan-2-yl]oxynonanoate
> <PUBCHEM_IUPAC_SYSTEMATIC_NAME>
methyl 9-[(2S,3S,4S,5R)-5-[[(2S,3S,4S,5R)-5-[[(2S,3S,4S,5R)-5-[[(2S)-2-(hydroxymethyl)pyrrolidin-1-yl]methyl]-3,4-bis(oxidanyl)oxolan-2-yl]oxymethyl]-3,4-bis(oxidanyl)oxolan-2-yl]oxymethyl]-3,4-bis(oxidanyl)oxolan-2-yl]oxynonanoate
> <PUBCHEM_IUPAC_TRADITIONAL_NAME>
9-[(2S,3S,4S,5R)-5-[[(2S,3S,4S,5R)-5-[[(2S,3S,4S,5R)-3,4-dihydroxy-5-[[(2S)-2-methylolpyrrolidino]methyl]tetrahydrofuran-2-yl]oxymethyl]-3,4-dihydroxy-tetrahydrofuran-2-yl]oxymethyl]-3,4-dihydroxy-tetrahydrofuran-2-yl]oxypelargonic acid methyl ester
> <PUBCHEM_IUPAC_INCHI>
InChI=1S/C30H53NO15/c1-40-21(33)10-6-4-2-3-5-7-12-41-28-26(38)23(35)19(45-28)15-43-30-27(39)24(36)20(46-30)16-42-29-25(37)22(34)18(44-29)13-31-11-8-9-17(31)14-32/h17-20,22-30,32,34-39H,2-16H2,1H3/t17-,18+,19+,20+,22+,23+,24+,25-,26-,27-,28-,29-,30-/m0/s1
> <PUBCHEM_IUPAC_INCHIKEY>
UJOFTOAJRHOUFA-AJISOWIYSA-N
> <PUBCHEM_XLOGP3_AA>
-1.9
> <PUBCHEM_EXACT_MASS>
667.34151998
> <PUBCHEM_MOLECULAR_FORMULA>
C30H53NO15
> <PUBCHEM_MOLECULAR_WEIGHT>
667.7
> <PUBCHEM_OPENEYE_CAN_SMILES>
COC(=O)CCCCCCCCOC1C(C(C(O1)COC2C(C(C(O2)COC3C(C(C(O3)CN4CCCC4CO)O)O)O)O)O)O
> <PUBCHEM_OPENEYE_ISO_SMILES>
COC(=O)CCCCCCCCO[C@@H]1[C@H]([C@@H]([C@H](O1)CO[C@@H]2[C@H]([C@@H]([C@H](O2)CO[C@@H]3[C@H]([C@@H]([C@H](O3)CN4CCC[C@H]4CO)O)O)O)O)O)O
> <PUBCHEM_CACTVS_TPSA>
227
> <PUBCHEM_MONOISOTOPIC_WEIGHT>
667.34151998
> <PUBCHEM_TOTAL_CHARGE>
0
> <PUBCHEM_HEAVY_ATOM_COUNT>
46
> <PUBCHEM_ATOM_DEF_STEREO_COUNT>
13
> <PUBCHEM_ATOM_UDEF_STEREO_COUNT>
0
> <PUBCHEM_BOND_DEF_STEREO_COUNT>
0
> <PUBCHEM_BOND_UDEF_STEREO_COUNT>
0
> <PUBCHEM_ISOTOPIC_ATOM_COUNT>
0
> <PUBCHEM_COMPONENT_COUNT>
1
> <PUBCHEM_CACTVS_TAUTO_COUNT>
-1
> <PUBCHEM_COORDINATE_TYPE>
1
5
255
> <PUBCHEM_BONDANNOTATIONS>
29  10  5
36  11  6
33  12  6
34  13  5
17  19  5
18  26  5
25  2  6
27  30  5
32  35  5
20  4  6
24  5  5
31  6  6
28  9  6
$$$$
