509106
  -OEChem-10302200282D
 49 52  0     1  0  0  0  0  0999 V2000
    2.0000   -2.7306    0.0000 Cl  0  0  0  0  0  0  0  0  0  0  0  0
    7.1962   -5.7306    0.0000 Cl  0  0  0  0  0  0  0  0  0  0  0  0
    3.9595    2.4331    0.0000 O   0  0  0  0  0  0  0  0  0  0  0  0
    7.1753    1.0013    0.0000 O   0  0  0  0  0  0  0  0  0  0  0  0
    3.7320   -3.7306    0.0000 O   0  0  0  0  0  0  0  0  0  0  0  0
    7.3077    5.6260    0.0000 O   0  0  0  0  0  0  0  0  0  0  0  0
    5.6808    1.9719    0.0000 N   0  0  0  0  0  0  0  0  0  0  0  0
    3.7320    0.2694    0.0000 N   0  0  0  0  0  0  0  0  0  0  0  0
    4.5981    0.7694    0.0000 C   0  0  3  0  0  0  0  0  0  0  0  0
    5.5116    0.3627    0.0000 C   0  0  0  0  0  0  0  0  0  0  0  0
    4.7026    1.7640    0.0000 C   0  0  0  0  0  0  0  0  0  0  0  0
    6.1808    1.1058    0.0000 C   0  0  0  0  0  0  0  0  0  0  0  0
    6.0875    2.8854    0.0000 C   0  0  0  0  0  0  0  0  0  0  0  0
    3.7320   -0.7306    0.0000 C   0  0  0  0  0  0  0  0  0  0  0  0
    5.4997    3.6944    0.0000 C   0  0  0  0  0  0  0  0  0  0  0  0
    7.0820    2.9899    0.0000 C   0  0  0  0  0  0  0  0  0  0  0  0
    2.8660   -1.2306    0.0000 C   0  0  0  0  0  0  0  0  0  0  0  0
    4.5981   -1.2306    0.0000 C   0  0  0  0  0  0  0  0  0  0  0  0
    5.9064    4.6080    0.0000 C   0  0  0  0  0  0  0  0  0  0  0  0
    7.4888    3.9035    0.0000 C   0  0  0  0  0  0  0  0  0  0  0  0
    2.8660   -2.2306    0.0000 C   0  0  0  0  0  0  0  0  0  0  0  0
    4.5981   -2.2306    0.0000 C   0  0  0  0  0  0  0  0  0  0  0  0
    6.9010    4.7125    0.0000 C   0  0  0  0  0  0  0  0  0  0  0  0
    3.7320   -2.7306    0.0000 C   0  0  0  0  0  0  0  0  0  0  0  0
    4.5981   -4.2306    0.0000 C   0  0  0  0  0  0  0  0  0  0  0  0
    8.3022    5.7306    0.0000 C   0  0  0  0  0  0  0  0  0  0  0  0
    4.5981   -5.2306    0.0000 C   0  0  0  0  0  0  0  0  0  0  0  0
    5.4641   -3.7306    0.0000 C   0  0  0  0  0  0  0  0  0  0  0  0
    5.4641   -5.7306    0.0000 C   0  0  0  0  0  0  0  0  0  0  0  0
    6.3301   -4.2306    0.0000 C   0  0  0  0  0  0  0  0  0  0  0  0
    6.3301   -5.2306    0.0000 C   0  0  0  0  0  0  0  0  0  0  0  0
    4.0781    1.1071    0.0000 H   0  0  0  0  0  0  0  0  0  0  0  0
    5.2016   -0.1742    0.0000 H   0  0  0  0  0  0  0  0  0  0  0  0
    6.0132   -0.0017    0.0000 H   0  0  0  0  0  0  0  0  0  0  0  0
    3.1951    0.5794    0.0000 H   0  0  0  0  0  0  0  0  0  0  0  0
    4.8831    3.6296    0.0000 H   0  0  0  0  0  0  0  0  0  0  0  0
    7.4464    2.4884    0.0000 H   0  0  0  0  0  0  0  0  0  0  0  0
    2.3291   -0.9206    0.0000 H   0  0  0  0  0  0  0  0  0  0  0  0
    5.1350   -0.9206    0.0000 H   0  0  0  0  0  0  0  0  0  0  0  0
    5.5420    5.1096    0.0000 H   0  0  0  0  0  0  0  0  0  0  0  0
    8.1054    3.9683    0.0000 H   0  0  0  0  0  0  0  0  0  0  0  0
    5.1350   -2.5406    0.0000 H   0  0  0  0  0  0  0  0  0  0  0  0
    4.0611   -5.5406    0.0000 H   0  0  0  0  0  0  0  0  0  0  0  0
    5.4641   -3.1106    0.0000 H   0  0  0  0  0  0  0  0  0  0  0  0
    8.3670    5.1140    0.0000 H   0  0  0  0  0  0  0  0  0  0  0  0
    8.9188    5.7954    0.0000 H   0  0  0  0  0  0  0  0  0  0  0  0
    8.2374    6.3472    0.0000 H   0  0  0  0  0  0  0  0  0  0  0  0
    5.4641   -6.3506    0.0000 H   0  0  0  0  0  0  0  0  0  0  0  0
    6.8671   -3.9206    0.0000 H   0  0  0  0  0  0  0  0  0  0  0  0
  1 21  1  0  0  0  0
  2 31  1  0  0  0  0
  3 11  2  0  0  0  0
  4 12  2  0  0  0  0
  5 24  1  0  0  0  0
  5 25  1  0  0  0  0
  6 23  1  0  0  0  0
  6 26  1  0  0  0  0
  7 11  1  0  0  0  0
  7 12  1  0  0  0  0
  7 13  1  0  0  0  0
  8  9  1  0  0  0  0
  8 14  1  0  0  0  0
  8 35  1  0  0  0  0
  9 10  1  0  0  0  0
  9 11  1  0  0  0  0
  9 32  1  0  0  0  0
 10 12  1  0  0  0  0
 10 33  1  0  0  0  0
 10 34  1  0  0  0  0
 13 15  2  0  0  0  0
 13 16  1  0  0  0  0
 14 17  2  0  0  0  0
 14 18  1  0  0  0  0
 15 19  1  0  0  0  0
 15 36  1  0  0  0  0
 16 20  2  0  0  0  0
 16 37  1  0  0  0  0
 17 21  1  0  0  0  0
 17 38  1  0  0  0  0
 18 22  2  0  0  0  0
 18 39  1  0  0  0  0
 19 23  2  0  0  0  0
 19 40  1  0  0  0  0
 20 23  1  0  0  0  0
 20 41  1  0  0  0  0
 21 24  2  0  0  0  0
 22 24  1  0  0  0  0
 22 42  1  0  0  0  0
 25 27  2  0  0  0  0
 25 28  1  0  0  0  0
 26 45  1  0  0  0  0
 26 46  1  0  0  0  0
 26 47  1  0  0  0  0
 27 29  1  0  0  0  0
 27 43  1  0  0  0  0
 28 30  2  0  0  0  0
 28 44  1  0  0  0  0
 29 31  2  0  0  0  0
 29 48  1  0  0  0  0
 30 31  1  0  0  0  0
 30 49  1  0  0  0  0
M  END
> <PUBCHEM_COMPOUND_CID>
509106
> <PUBCHEM_COMPOUND_CANONICALIZED>
1
> <PUBCHEM_CACTVS_COMPLEXITY>
635
> <PUBCHEM_CACTVS_HBOND_ACCEPTOR>
5
> <PUBCHEM_CACTVS_HBOND_DONOR>
1
> <PUBCHEM_CACTVS_ROTATABLE_BOND>
6
> <PUBCHEM_CACTVS_SUBSKEYS>
AAADceB7OAAGAAAAAAAAAAAAAAAAAWAAAAAwYMAAAAAAAAABUAAAHgIQAAAACC7BkCYyxoPABACIACVSUACCCAAhJ0AIiIGOb4gMZjvF87uWOCjk1DHI6Ae1QAAAAGAAAAIACAAAwAAABAAQAAAAAAAAAA==
> <PUBCHEM_IUPAC_OPENEYE_NAME>
3-[3-chloro-4-(4-chlorophenoxy)anilino]-1-(4-methoxyphenyl)pyrrolidine-2,5-dione
> <PUBCHEM_IUPAC_CAS_NAME>
3-[3-chloro-4-(4-chlorophenoxy)anilino]-1-(4-methoxyphenyl)pyrrolidine-2,5-dione
> <PUBCHEM_IUPAC_NAME_MARKUP>
3-[3-chloro-4-(4-chlorophenoxy)anilino]-1-(4-methoxyphenyl)pyrrolidine-2,5-dione
> <PUBCHEM_IUPAC_NAME>
3-[3-chloro-4-(4-chlorophenoxy)anilino]-1-(4-methoxyphenyl)pyrrolidine-2,5-dione
> <PUBCHEM_IUPAC_SYSTEMATIC_NAME>
3-[[3-chloranyl-4-(4-chloranylphenoxy)phenyl]amino]-1-(4-methoxyphenyl)pyrrolidine-2,5-dione
> <PUBCHEM_IUPAC_TRADITIONAL_NAME>
3-[3-chloro-4-(4-chlorophenoxy)anilino]-1-(4-methoxyphenyl)pyrrolidine-2,5-quinone
> <PUBCHEM_IUPAC_INCHI>
InChI=1S/C23H18Cl2N2O4/c1-30-17-9-5-16(6-10-17)27-22(28)13-20(23(27)29)26-15-4-11-21(19(25)12-15)31-18-7-2-14(24)3-8-18/h2-12,20,26H,13H2,1H3
> <PUBCHEM_IUPAC_INCHIKEY>
VOKSWSPVSKKPRP-UHFFFAOYSA-N
> <PUBCHEM_XLOGP3_AA>
5.3
> <PUBCHEM_EXACT_MASS>
456.0643624
> <PUBCHEM_MOLECULAR_FORMULA>
C23H18Cl2N2O4
> <PUBCHEM_MOLECULAR_WEIGHT>
457.3
> <PUBCHEM_OPENEYE_CAN_SMILES>
COC1=CC=C(C=C1)N2C(=O)CC(C2=O)NC3=CC(=C(C=C3)OC4=CC=C(C=C4)Cl)Cl
> <PUBCHEM_OPENEYE_ISO_SMILES>
COC1=CC=C(C=C1)N2C(=O)CC(C2=O)NC3=CC(=C(C=C3)OC4=CC=C(C=C4)Cl)Cl
> <PUBCHEM_CACTVS_TPSA>
67.9
> <PUBCHEM_MONOISOTOPIC_WEIGHT>
456.0643624
> <PUBCHEM_TOTAL_CHARGE>
0
> <PUBCHEM_HEAVY_ATOM_COUNT>
31
> <PUBCHEM_ATOM_DEF_STEREO_COUNT>
0
> <PUBCHEM_ATOM_UDEF_STEREO_COUNT>
1
> <PUBCHEM_BOND_DEF_STEREO_COUNT>
0
> <PUBCHEM_BOND_UDEF_STEREO_COUNT>
0
> <PUBCHEM_ISOTOPIC_ATOM_COUNT>
0
> <PUBCHEM_COMPONENT_COUNT>
1
> <PUBCHEM_CACTVS_TAUTO_COUNT>
-1
> <PUBCHEM_COORDINATE_TYPE>
1
5
255
> <PUBCHEM_BONDANNOTATIONS>
13  15  8
13  16  8
14  17  8
14  18  8
15  19  8
16  20  8
17  21  8
18  22  8
19  23  8
20  23  8
21  24  8
22  24  8
25  27  8
25  28  8
27  29  8
28  30  8
29  31  8
30  31  8
9  8  3
$$$$
