509101
  -OEChem-10302200282D
 38 40  0     1  0  0  0  0  0999 V2000
    2.0000   -1.3080    0.0000 Cl  0  0  0  0  0  0  0  0  0  0  0  0
    7.1962   -4.3080    0.0000 Cl  0  0  0  0  0  0  0  0  0  0  0  0
    3.9595    3.8557    0.0000 O   0  0  0  0  0  0  0  0  0  0  0  0
    7.1753    2.4239    0.0000 O   0  0  0  0  0  0  0  0  0  0  0  0
    3.7320   -2.3080    0.0000 O   0  0  0  0  0  0  0  0  0  0  0  0
    5.6808    3.3944    0.0000 N   0  0  0  0  0  0  0  0  0  0  0  0
    3.7320    1.6920    0.0000 N   0  0  0  0  0  0  0  0  0  0  0  0
    4.5981    2.1920    0.0000 C   0  0  3  0  0  0  0  0  0  0  0  0
    5.5116    1.7853    0.0000 C   0  0  0  0  0  0  0  0  0  0  0  0
    4.7026    3.1865    0.0000 C   0  0  0  0  0  0  0  0  0  0  0  0
    6.1808    2.5284    0.0000 C   0  0  0  0  0  0  0  0  0  0  0  0
    3.7320    0.6920    0.0000 C   0  0  0  0  0  0  0  0  0  0  0  0
    6.0875    4.3080    0.0000 C   0  0  0  0  0  0  0  0  0  0  0  0
    2.8660    0.1920    0.0000 C   0  0  0  0  0  0  0  0  0  0  0  0
    4.5981    0.1920    0.0000 C   0  0  0  0  0  0  0  0  0  0  0  0
    2.8660   -0.8080    0.0000 C   0  0  0  0  0  0  0  0  0  0  0  0
    4.5981   -0.8080    0.0000 C   0  0  0  0  0  0  0  0  0  0  0  0
    3.7320   -1.3080    0.0000 C   0  0  0  0  0  0  0  0  0  0  0  0
    4.5981   -2.8080    0.0000 C   0  0  0  0  0  0  0  0  0  0  0  0
    5.4641   -2.3080    0.0000 C   0  0  0  0  0  0  0  0  0  0  0  0
    4.5981   -3.8080    0.0000 C   0  0  0  0  0  0  0  0  0  0  0  0
    6.3301   -2.8080    0.0000 C   0  0  0  0  0  0  0  0  0  0  0  0
    5.4641   -4.3080    0.0000 C   0  0  0  0  0  0  0  0  0  0  0  0
    6.3301   -3.8080    0.0000 C   0  0  0  0  0  0  0  0  0  0  0  0
    4.6305    1.5729    0.0000 H   0  0  0  0  0  0  0  0  0  0  0  0
    5.2016    1.2483    0.0000 H   0  0  0  0  0  0  0  0  0  0  0  0
    6.0132    1.4208    0.0000 H   0  0  0  0  0  0  0  0  0  0  0  0
    3.1951    2.0020    0.0000 H   0  0  0  0  0  0  0  0  0  0  0  0
    6.6539    4.0558    0.0000 H   0  0  0  0  0  0  0  0  0  0  0  0
    6.3397    4.8744    0.0000 H   0  0  0  0  0  0  0  0  0  0  0  0
    5.5211    4.5602    0.0000 H   0  0  0  0  0  0  0  0  0  0  0  0
    2.3291    0.5020    0.0000 H   0  0  0  0  0  0  0  0  0  0  0  0
    5.1350    0.5020    0.0000 H   0  0  0  0  0  0  0  0  0  0  0  0
    5.1350   -1.1180    0.0000 H   0  0  0  0  0  0  0  0  0  0  0  0
    5.4641   -1.6880    0.0000 H   0  0  0  0  0  0  0  0  0  0  0  0
    4.0611   -4.1180    0.0000 H   0  0  0  0  0  0  0  0  0  0  0  0
    6.8671   -2.4980    0.0000 H   0  0  0  0  0  0  0  0  0  0  0  0
    5.4641   -4.9280    0.0000 H   0  0  0  0  0  0  0  0  0  0  0  0
  1 16  1  0  0  0  0
  2 24  1  0  0  0  0
  3 10  2  0  0  0  0
  4 11  2  0  0  0  0
  5 18  1  0  0  0  0
  5 19  1  0  0  0  0
  6 10  1  0  0  0  0
  6 11  1  0  0  0  0
  6 13  1  0  0  0  0
  7  8  1  0  0  0  0
  7 12  1  0  0  0  0
  7 28  1  0  0  0  0
  8  9  1  0  0  0  0
  8 10  1  0  0  0  0
  8 25  1  0  0  0  0
  9 11  1  0  0  0  0
  9 26  1  0  0  0  0
  9 27  1  0  0  0  0
 12 14  2  0  0  0  0
 12 15  1  0  0  0  0
 13 29  1  0  0  0  0
 13 30  1  0  0  0  0
 13 31  1  0  0  0  0
 14 16  1  0  0  0  0
 14 32  1  0  0  0  0
 15 17  2  0  0  0  0
 15 33  1  0  0  0  0
 16 18  2  0  0  0  0
 17 18  1  0  0  0  0
 17 34  1  0  0  0  0
 19 20  2  0  0  0  0
 19 21  1  0  0  0  0
 20 22  1  0  0  0  0
 20 35  1  0  0  0  0
 21 23  2  0  0  0  0
 21 36  1  0  0  0  0
 22 24  2  0  0  0  0
 22 37  1  0  0  0  0
 23 24  1  0  0  0  0
 23 38  1  0  0  0  0
M  END
> <PUBCHEM_COMPOUND_CID>
509101
> <PUBCHEM_COMPOUND_CANONICALIZED>
1
> <PUBCHEM_CACTVS_COMPLEXITY>
483
> <PUBCHEM_CACTVS_HBOND_ACCEPTOR>
4
> <PUBCHEM_CACTVS_HBOND_DONOR>
1
> <PUBCHEM_CACTVS_ROTATABLE_BOND>
4
> <PUBCHEM_CACTVS_SUBSKEYS>
AAADccB7MAAGAAAAAAAAAAAAAAAAAWAAAAAwYAAAAAAAAAABQAAAHgIQAAAACC7BkCQyxoPABACIACVSUACCCAAhJ0AIiIGOb4gMZjvF87uWOCjk1jHI6Ae1QAAAAGAAAAIACAAAwAAABAAQAAAAAAAAAA==
> <PUBCHEM_IUPAC_OPENEYE_NAME>
3-[3-chloro-4-(4-chlorophenoxy)anilino]-1-methyl-pyrrolidine-2,5-dione
> <PUBCHEM_IUPAC_CAS_NAME>
3-[3-chloro-4-(4-chlorophenoxy)anilino]-1-methylpyrrolidine-2,5-dione
> <PUBCHEM_IUPAC_NAME_MARKUP>
3-[3-chloro-4-(4-chlorophenoxy)anilino]-1-methylpyrrolidine-2,5-dione
> <PUBCHEM_IUPAC_NAME>
3-[3-chloro-4-(4-chlorophenoxy)anilino]-1-methylpyrrolidine-2,5-dione
> <PUBCHEM_IUPAC_SYSTEMATIC_NAME>
3-[[3-chloranyl-4-(4-chloranylphenoxy)phenyl]amino]-1-methyl-pyrrolidine-2,5-dione
> <PUBCHEM_IUPAC_TRADITIONAL_NAME>
3-[3-chloro-4-(4-chlorophenoxy)anilino]-1-methyl-pyrrolidine-2,5-quinone
> <PUBCHEM_IUPAC_INCHI>
InChI=1S/C17H14Cl2N2O3/c1-21-16(22)9-14(17(21)23)20-11-4-7-15(13(19)8-11)24-12-5-2-10(18)3-6-12/h2-8,14,20H,9H2,1H3
> <PUBCHEM_IUPAC_INCHIKEY>
MFWKDXIFMZNFPC-UHFFFAOYSA-N
> <PUBCHEM_XLOGP3_AA>
3.7
> <PUBCHEM_EXACT_MASS>
364.0381477
> <PUBCHEM_MOLECULAR_FORMULA>
C17H14Cl2N2O3
> <PUBCHEM_MOLECULAR_WEIGHT>
365.2
> <PUBCHEM_OPENEYE_CAN_SMILES>
CN1C(=O)CC(C1=O)NC2=CC(=C(C=C2)OC3=CC=C(C=C3)Cl)Cl
> <PUBCHEM_OPENEYE_ISO_SMILES>
CN1C(=O)CC(C1=O)NC2=CC(=C(C=C2)OC3=CC=C(C=C3)Cl)Cl
> <PUBCHEM_CACTVS_TPSA>
58.6
> <PUBCHEM_MONOISOTOPIC_WEIGHT>
364.0381477
> <PUBCHEM_TOTAL_CHARGE>
0
> <PUBCHEM_HEAVY_ATOM_COUNT>
24
> <PUBCHEM_ATOM_DEF_STEREO_COUNT>
0
> <PUBCHEM_ATOM_UDEF_STEREO_COUNT>
1
> <PUBCHEM_BOND_DEF_STEREO_COUNT>
0
> <PUBCHEM_BOND_UDEF_STEREO_COUNT>
0
> <PUBCHEM_ISOTOPIC_ATOM_COUNT>
0
> <PUBCHEM_COMPONENT_COUNT>
1
> <PUBCHEM_CACTVS_TAUTO_COUNT>
-1
> <PUBCHEM_COORDINATE_TYPE>
1
5
255
> <PUBCHEM_BONDANNOTATIONS>
12  14  8
12  15  8
14  16  8
15  17  8
16  18  8
17  18  8
19  20  8
19  21  8
20  22  8
21  23  8
22  24  8
23  24  8
8  7  3
$$$$
