509107
  -OEChem-10302200282D
 52 55  0     1  0  0  0  0  0999 V2000
    2.0000   -3.1873    0.0000 Cl  0  0  0  0  0  0  0  0  0  0  0  0
    7.1962   -6.1873    0.0000 Cl  0  0  0  0  0  0  0  0  0  0  0  0
    3.9595    1.9763    0.0000 O   0  0  0  0  0  0  0  0  0  0  0  0
    7.1753    0.5445    0.0000 O   0  0  0  0  0  0  0  0  0  0  0  0
    7.3077    5.1693    0.0000 O   0  0  0  0  0  0  0  0  0  0  0  0
    3.7320   -4.1873    0.0000 O   0  0  0  0  0  0  0  0  0  0  0  0
    5.6808    1.5151    0.0000 N   0  0  0  0  0  0  0  0  0  0  0  0
    3.7320   -0.1873    0.0000 N   0  0  0  0  0  0  0  0  0  0  0  0
    4.5981    0.3127    0.0000 C   0  0  3  0  0  0  0  0  0  0  0  0
    5.5116   -0.0941    0.0000 C   0  0  0  0  0  0  0  0  0  0  0  0
    4.7026    1.3072    0.0000 C   0  0  0  0  0  0  0  0  0  0  0  0
    6.1808    0.6491    0.0000 C   0  0  0  0  0  0  0  0  0  0  0  0
    6.0875    2.4286    0.0000 C   0  0  0  0  0  0  0  0  0  0  0  0
    3.7320   -1.1873    0.0000 C   0  0  0  0  0  0  0  0  0  0  0  0
    5.4997    3.2376    0.0000 C   0  0  0  0  0  0  0  0  0  0  0  0
    7.0820    2.5332    0.0000 C   0  0  0  0  0  0  0  0  0  0  0  0
    2.8660   -1.6873    0.0000 C   0  0  0  0  0  0  0  0  0  0  0  0
    4.5981   -1.6873    0.0000 C   0  0  0  0  0  0  0  0  0  0  0  0
    5.9064    4.1512    0.0000 C   0  0  0  0  0  0  0  0  0  0  0  0
    7.4888    3.4467    0.0000 C   0  0  0  0  0  0  0  0  0  0  0  0
    6.9010    4.2557    0.0000 C   0  0  0  0  0  0  0  0  0  0  0  0
    2.8660   -2.6873    0.0000 C   0  0  0  0  0  0  0  0  0  0  0  0
    4.5981   -2.6873    0.0000 C   0  0  0  0  0  0  0  0  0  0  0  0
    3.7320   -3.1873    0.0000 C   0  0  0  0  0  0  0  0  0  0  0  0
    8.3022    5.2738    0.0000 C   0  0  0  0  0  0  0  0  0  0  0  0
    4.5981   -4.6873    0.0000 C   0  0  0  0  0  0  0  0  0  0  0  0
    8.7090    6.1873    0.0000 C   0  0  0  0  0  0  0  0  0  0  0  0
    5.4641   -4.1873    0.0000 C   0  0  0  0  0  0  0  0  0  0  0  0
    4.5981   -5.6873    0.0000 C   0  0  0  0  0  0  0  0  0  0  0  0
    6.3301   -4.6873    0.0000 C   0  0  0  0  0  0  0  0  0  0  0  0
    5.4641   -6.1873    0.0000 C   0  0  0  0  0  0  0  0  0  0  0  0
    6.3301   -5.6873    0.0000 C   0  0  0  0  0  0  0  0  0  0  0  0
    4.0781    0.6503    0.0000 H   0  0  0  0  0  0  0  0  0  0  0  0
    5.2016   -0.6310    0.0000 H   0  0  0  0  0  0  0  0  0  0  0  0
    6.0132   -0.4585    0.0000 H   0  0  0  0  0  0  0  0  0  0  0  0
    3.1951    0.1227    0.0000 H   0  0  0  0  0  0  0  0  0  0  0  0
    4.8831    3.1728    0.0000 H   0  0  0  0  0  0  0  0  0  0  0  0
    7.4464    2.0316    0.0000 H   0  0  0  0  0  0  0  0  0  0  0  0
    2.3291   -1.3773    0.0000 H   0  0  0  0  0  0  0  0  0  0  0  0
    5.1350   -1.3773    0.0000 H   0  0  0  0  0  0  0  0  0  0  0  0
    5.5420    4.6528    0.0000 H   0  0  0  0  0  0  0  0  0  0  0  0
    8.1054    3.5115    0.0000 H   0  0  0  0  0  0  0  0  0  0  0  0
    5.1350   -2.9973    0.0000 H   0  0  0  0  0  0  0  0  0  0  0  0
    8.2590    4.6553    0.0000 H   0  0  0  0  0  0  0  0  0  0  0  0
    8.9038    5.1238    0.0000 H   0  0  0  0  0  0  0  0  0  0  0  0
    9.2754    5.9352    0.0000 H   0  0  0  0  0  0  0  0  0  0  0  0
    8.9611    6.7537    0.0000 H   0  0  0  0  0  0  0  0  0  0  0  0
    8.1426    6.4395    0.0000 H   0  0  0  0  0  0  0  0  0  0  0  0
    5.4641   -3.5673    0.0000 H   0  0  0  0  0  0  0  0  0  0  0  0
    4.0611   -5.9973    0.0000 H   0  0  0  0  0  0  0  0  0  0  0  0
    6.8671   -4.3773    0.0000 H   0  0  0  0  0  0  0  0  0  0  0  0
    5.4641   -6.8073    0.0000 H   0  0  0  0  0  0  0  0  0  0  0  0
  1 22  1  0  0  0  0
  2 32  1  0  0  0  0
  3 11  2  0  0  0  0
  4 12  2  0  0  0  0
  5 21  1  0  0  0  0
  5 25  1  0  0  0  0
  6 24  1  0  0  0  0
  6 26  1  0  0  0  0
  7 11  1  0  0  0  0
  7 12  1  0  0  0  0
  7 13  1  0  0  0  0
  8  9  1  0  0  0  0
  8 14  1  0  0  0  0
  8 36  1  0  0  0  0
  9 10  1  0  0  0  0
  9 11  1  0  0  0  0
  9 33  1  0  0  0  0
 10 12  1  0  0  0  0
 10 34  1  0  0  0  0
 10 35  1  0  0  0  0
 13 15  2  0  0  0  0
 13 16  1  0  0  0  0
 14 17  2  0  0  0  0
 14 18  1  0  0  0  0
 15 19  1  0  0  0  0
 15 37  1  0  0  0  0
 16 20  2  0  0  0  0
 16 38  1  0  0  0  0
 17 22  1  0  0  0  0
 17 39  1  0  0  0  0
 18 23  2  0  0  0  0
 18 40  1  0  0  0  0
 19 21  2  0  0  0  0
 19 41  1  0  0  0  0
 20 21  1  0  0  0  0
 20 42  1  0  0  0  0
 22 24  2  0  0  0  0
 23 24  1  0  0  0  0
 23 43  1  0  0  0  0
 25 27  1  0  0  0  0
 25 44  1  0  0  0  0
 25 45  1  0  0  0  0
 26 28  2  0  0  0  0
 26 29  1  0  0  0  0
 27 46  1  0  0  0  0
 27 47  1  0  0  0  0
 27 48  1  0  0  0  0
 28 30  1  0  0  0  0
 28 49  1  0  0  0  0
 29 31  2  0  0  0  0
 29 50  1  0  0  0  0
 30 32  2  0  0  0  0
 30 51  1  0  0  0  0
 31 32  1  0  0  0  0
 31 52  1  0  0  0  0
M  END
> <PUBCHEM_COMPOUND_CID>
509107
> <PUBCHEM_COMPOUND_CANONICALIZED>
1
> <PUBCHEM_CACTVS_COMPLEXITY>
650
> <PUBCHEM_CACTVS_HBOND_ACCEPTOR>
5
> <PUBCHEM_CACTVS_HBOND_DONOR>
1
> <PUBCHEM_CACTVS_ROTATABLE_BOND>
7
> <PUBCHEM_CACTVS_SUBSKEYS>
AAADceB7OAAGAAAAAAAAAAAAAAAAAWAAAAAwYMAAAAAAAAABUAAAHgIQAAAACC7hkCYyxoPABACIACVSUACCCAAhJ0AIiIGOb4gMZjvF87uWOCjk1DHI6Ae1QAAAAGAAAAIACAAAwAAABAAQAAAAAAAAAA==
> <PUBCHEM_IUPAC_OPENEYE_NAME>
3-[3-chloro-4-(4-chlorophenoxy)anilino]-1-(4-ethoxyphenyl)pyrrolidine-2,5-dione
> <PUBCHEM_IUPAC_CAS_NAME>
3-[3-chloro-4-(4-chlorophenoxy)anilino]-1-(4-ethoxyphenyl)pyrrolidine-2,5-dione
> <PUBCHEM_IUPAC_NAME_MARKUP>
3-[3-chloro-4-(4-chlorophenoxy)anilino]-1-(4-ethoxyphenyl)pyrrolidine-2,5-dione
> <PUBCHEM_IUPAC_NAME>
3-[3-chloro-4-(4-chlorophenoxy)anilino]-1-(4-ethoxyphenyl)pyrrolidine-2,5-dione
> <PUBCHEM_IUPAC_SYSTEMATIC_NAME>
3-[[3-chloranyl-4-(4-chloranylphenoxy)phenyl]amino]-1-(4-ethoxyphenyl)pyrrolidine-2,5-dione
> <PUBCHEM_IUPAC_TRADITIONAL_NAME>
3-[3-chloro-4-(4-chlorophenoxy)anilino]-1-p-phenetyl-pyrrolidine-2,5-quinone
> <PUBCHEM_IUPAC_INCHI>
InChI=1S/C24H20Cl2N2O4/c1-2-31-18-10-6-17(7-11-18)28-23(29)14-21(24(28)30)27-16-5-12-22(20(26)13-16)32-19-8-3-15(25)4-9-19/h3-13,21,27H,2,14H2,1H3
> <PUBCHEM_IUPAC_INCHIKEY>
GOXQVIQQQHJUND-UHFFFAOYSA-N
> <PUBCHEM_XLOGP3_AA>
5.6
> <PUBCHEM_EXACT_MASS>
470.0800125
> <PUBCHEM_MOLECULAR_FORMULA>
C24H20Cl2N2O4
> <PUBCHEM_MOLECULAR_WEIGHT>
471.3
> <PUBCHEM_OPENEYE_CAN_SMILES>
CCOC1=CC=C(C=C1)N2C(=O)CC(C2=O)NC3=CC(=C(C=C3)OC4=CC=C(C=C4)Cl)Cl
> <PUBCHEM_OPENEYE_ISO_SMILES>
CCOC1=CC=C(C=C1)N2C(=O)CC(C2=O)NC3=CC(=C(C=C3)OC4=CC=C(C=C4)Cl)Cl
> <PUBCHEM_CACTVS_TPSA>
67.9
> <PUBCHEM_MONOISOTOPIC_WEIGHT>
470.0800125
> <PUBCHEM_TOTAL_CHARGE>
0
> <PUBCHEM_HEAVY_ATOM_COUNT>
32
> <PUBCHEM_ATOM_DEF_STEREO_COUNT>
0
> <PUBCHEM_ATOM_UDEF_STEREO_COUNT>
1
> <PUBCHEM_BOND_DEF_STEREO_COUNT>
0
> <PUBCHEM_BOND_UDEF_STEREO_COUNT>
0
> <PUBCHEM_ISOTOPIC_ATOM_COUNT>
0
> <PUBCHEM_COMPONENT_COUNT>
1
> <PUBCHEM_CACTVS_TAUTO_COUNT>
-1
> <PUBCHEM_COORDINATE_TYPE>
1
5
255
> <PUBCHEM_BONDANNOTATIONS>
13  15  8
13  16  8
14  17  8
14  18  8
15  19  8
16  20  8
17  22  8
18  23  8
19  21  8
20  21  8
22  24  8
23  24  8
26  28  8
26  29  8
28  30  8
29  31  8
30  32  8
31  32  8
9  8  3
$$$$
