509111
  -OEChem-10302200282D
 50 54  0     1  0  0  0  0  0999 V2000
   12.1399   -0.9029    0.0000 Cl  0  0  0  0  0  0  0  0  0  0  0  0
    9.6995    4.5784    0.0000 Cl  0  0  0  0  0  0  0  0  0  0  0  0
    7.5195   -3.9286    0.0000 O   0  0  0  0  0  0  0  0  0  0  0  0
    5.7595   -0.8801    0.0000 O   0  0  0  0  0  0  0  0  0  0  0  0
   11.3264    0.9242    0.0000 O   0  0  0  0  0  0  0  0  0  0  0  0
    6.3981   -2.5437    0.0000 N   0  0  0  0  0  0  0  0  0  0  0  0
    8.9753   -2.3119    0.0000 N   0  0  0  0  0  0  0  0  0  0  0  0
    4.6660   -4.5437    0.0000 N   0  0  0  0  0  0  0  0  0  0  0  0
    7.9808   -2.2073    0.0000 C   0  0  3  0  0  0  0  0  0  0  0  0
    7.4808   -1.3413    0.0000 C   0  0  0  0  0  0  0  0  0  0  0  0
    7.3116   -2.9505    0.0000 C   0  0  0  0  0  0  0  0  0  0  0  0
    6.5026   -1.5492    0.0000 C   0  0  0  0  0  0  0  0  0  0  0  0
    5.5321   -3.0437    0.0000 C   0  0  0  0  0  0  0  0  0  0  0  0
    9.5631   -1.5028    0.0000 C   0  0  0  0  0  0  0  0  0  0  0  0
    4.6660   -2.5437    0.0000 C   0  0  0  0  0  0  0  0  0  0  0  0
    5.5321   -4.0437    0.0000 C   0  0  0  0  0  0  0  0  0  0  0  0
    3.8000   -3.0437    0.0000 C   0  0  0  0  0  0  0  0  0  0  0  0
   10.5576   -1.6074    0.0000 C   0  0  0  0  0  0  0  0  0  0  0  0
    9.1563   -0.5893    0.0000 C   0  0  0  0  0  0  0  0  0  0  0  0
    3.8000   -4.0437    0.0000 C   0  0  0  0  0  0  0  0  0  0  0  0
   11.1454   -0.7983    0.0000 C   0  0  0  0  0  0  0  0  0  0  0  0
    9.7441    0.2197    0.0000 C   0  0  0  0  0  0  0  0  0  0  0  0
    2.9061   -2.5091    0.0000 C   0  0  0  0  0  0  0  0  0  0  0  0
   10.7386    0.1152    0.0000 C   0  0  0  0  0  0  0  0  0  0  0  0
    2.9061   -4.5784    0.0000 C   0  0  0  0  0  0  0  0  0  0  0  0
    2.0000   -3.0229    0.0000 C   0  0  0  0  0  0  0  0  0  0  0  0
    2.0000   -4.0646    0.0000 C   0  0  0  0  0  0  0  0  0  0  0  0
   10.9197    1.8378    0.0000 C   0  0  0  0  0  0  0  0  0  0  0  0
   11.5075    2.6468    0.0000 C   0  0  0  0  0  0  0  0  0  0  0  0
    9.9252    1.9423    0.0000 C   0  0  0  0  0  0  0  0  0  0  0  0
   11.1007    3.5603    0.0000 C   0  0  0  0  0  0  0  0  0  0  0  0
    9.5184    2.8558    0.0000 C   0  0  0  0  0  0  0  0  0  0  0  0
   10.1062    3.6648    0.0000 C   0  0  0  0  0  0  0  0  0  0  0  0
    8.2030   -2.7862    0.0000 H   0  0  0  0  0  0  0  0  0  0  0  0
    8.0472   -1.0891    0.0000 H   0  0  0  0  0  0  0  0  0  0  0  0
    7.2892   -0.7516    0.0000 H   0  0  0  0  0  0  0  0  0  0  0  0
    9.2275   -2.8782    0.0000 H   0  0  0  0  0  0  0  0  0  0  0  0
    4.6660   -1.9237    0.0000 H   0  0  0  0  0  0  0  0  0  0  0  0
    6.0690   -4.3537    0.0000 H   0  0  0  0  0  0  0  0  0  0  0  0
   10.8098   -2.1738    0.0000 H   0  0  0  0  0  0  0  0  0  0  0  0
    8.5397   -0.5245    0.0000 H   0  0  0  0  0  0  0  0  0  0  0  0
    9.4919    0.7861    0.0000 H   0  0  0  0  0  0  0  0  0  0  0  0
    2.9132   -1.8891    0.0000 H   0  0  0  0  0  0  0  0  0  0  0  0
    2.9132   -5.1983    0.0000 H   0  0  0  0  0  0  0  0  0  0  0  0
    1.4643   -2.7109    0.0000 H   0  0  0  0  0  0  0  0  0  0  0  0
    1.4643   -4.3766    0.0000 H   0  0  0  0  0  0  0  0  0  0  0  0
   12.1241    2.5820    0.0000 H   0  0  0  0  0  0  0  0  0  0  0  0
    9.5607    1.4407    0.0000 H   0  0  0  0  0  0  0  0  0  0  0  0
   11.4652    4.0619    0.0000 H   0  0  0  0  0  0  0  0  0  0  0  0
    8.9018    2.9206    0.0000 H   0  0  0  0  0  0  0  0  0  0  0  0
  1 21  1  0  0  0  0
  2 33  1  0  0  0  0
  3 11  2  0  0  0  0
  4 12  2  0  0  0  0
  5 24  1  0  0  0  0
  5 28  1  0  0  0  0
  6 11  1  0  0  0  0
  6 12  1  0  0  0  0
  6 13  1  0  0  0  0
  7  9  1  0  0  0  0
  7 14  1  0  0  0  0
  7 37  1  0  0  0  0
  8 16  2  0  0  0  0
  8 20  1  0  0  0  0
  9 10  1  0  0  0  0
  9 11  1  0  0  0  0
  9 34  1  0  0  0  0
 10 12  1  0  0  0  0
 10 35  1  0  0  0  0
 10 36  1  0  0  0  0
 13 15  2  0  0  0  0
 13 16  1  0  0  0  0
 14 18  2  0  0  0  0
 14 19  1  0  0  0  0
 15 17  1  0  0  0  0
 15 38  1  0  0  0  0
 16 39  1  0  0  0  0
 17 20  1  0  0  0  0
 17 23  2  0  0  0  0
 18 21  1  0  0  0  0
 18 40  1  0  0  0  0
 19 22  2  0  0  0  0
 19 41  1  0  0  0  0
 20 25  2  0  0  0  0
 21 24  2  0  0  0  0
 22 24  1  0  0  0  0
 22 42  1  0  0  0  0
 23 26  1  0  0  0  0
 23 43  1  0  0  0  0
 25 27  1  0  0  0  0
 25 44  1  0  0  0  0
 26 27  2  0  0  0  0
 26 45  1  0  0  0  0
 27 46  1  0  0  0  0
 28 29  2  0  0  0  0
 28 30  1  0  0  0  0
 29 31  1  0  0  0  0
 29 47  1  0  0  0  0
 30 32  2  0  0  0  0
 30 48  1  0  0  0  0
 31 33  2  0  0  0  0
 31 49  1  0  0  0  0
 32 33  1  0  0  0  0
 32 50  1  0  0  0  0
M  END
> <PUBCHEM_COMPOUND_CID>
509111
> <PUBCHEM_COMPOUND_CANONICALIZED>
1
> <PUBCHEM_CACTVS_COMPLEXITY>
717
> <PUBCHEM_CACTVS_HBOND_ACCEPTOR>
5
> <PUBCHEM_CACTVS_HBOND_DONOR>
1
> <PUBCHEM_CACTVS_ROTATABLE_BOND>
5
> <PUBCHEM_CACTVS_SUBSKEYS>
AAADceB7MAAGAAAAAAAAAAAAAAAAAWAAAAA8YMEAAAAAAACx9AAAHgIQAAAADC7BniQ8xvPIFACoAzV3VACCiCAxN2AI2KG+f5gMZvvF87uWOCjk1DHI6Ae1wIAOAGAAAAICCAAAwAAABAQQAAAAAAAAAA==
> <PUBCHEM_IUPAC_OPENEYE_NAME>
3-[3-chloro-4-(4-chlorophenoxy)anilino]-1-(3-quinolyl)pyrrolidine-2,5-dione
> <PUBCHEM_IUPAC_CAS_NAME>
3-[3-chloro-4-(4-chlorophenoxy)anilino]-1-(3-quinolinyl)pyrrolidine-2,5-dione
> <PUBCHEM_IUPAC_NAME_MARKUP>
3-[3-chloro-4-(4-chlorophenoxy)anilino]-1-quinolin-3-ylpyrrolidine-2,5-dione
> <PUBCHEM_IUPAC_NAME>
3-[3-chloro-4-(4-chlorophenoxy)anilino]-1-quinolin-3-ylpyrrolidine-2,5-dione
> <PUBCHEM_IUPAC_SYSTEMATIC_NAME>
3-[[3-chloranyl-4-(4-chloranylphenoxy)phenyl]amino]-1-quinolin-3-yl-pyrrolidine-2,5-dione
> <PUBCHEM_IUPAC_TRADITIONAL_NAME>
3-[3-chloro-4-(4-chlorophenoxy)anilino]-1-(3-quinolyl)pyrrolidine-2,5-quinone
> <PUBCHEM_IUPAC_INCHI>
InChI=1S/C25H17Cl2N3O3/c26-16-5-8-19(9-6-16)33-23-10-7-17(12-20(23)27)29-22-13-24(31)30(25(22)32)18-11-15-3-1-2-4-21(15)28-14-18/h1-12,14,22,29H,13H2
> <PUBCHEM_IUPAC_INCHIKEY>
ZXFKAEMJDUTMJE-UHFFFAOYSA-N
> <PUBCHEM_XLOGP3_AA>
5.6
> <PUBCHEM_EXACT_MASS>
477.0646968
> <PUBCHEM_MOLECULAR_FORMULA>
C25H17Cl2N3O3
> <PUBCHEM_MOLECULAR_WEIGHT>
478.3
> <PUBCHEM_OPENEYE_CAN_SMILES>
C1C(C(=O)N(C1=O)C2=CC3=CC=CC=C3N=C2)NC4=CC(=C(C=C4)OC5=CC=C(C=C5)Cl)Cl
> <PUBCHEM_OPENEYE_ISO_SMILES>
C1C(C(=O)N(C1=O)C2=CC3=CC=CC=C3N=C2)NC4=CC(=C(C=C4)OC5=CC=C(C=C5)Cl)Cl
> <PUBCHEM_CACTVS_TPSA>
71.5
> <PUBCHEM_MONOISOTOPIC_WEIGHT>
477.0646968
> <PUBCHEM_TOTAL_CHARGE>
0
> <PUBCHEM_HEAVY_ATOM_COUNT>
33
> <PUBCHEM_ATOM_DEF_STEREO_COUNT>
0
> <PUBCHEM_ATOM_UDEF_STEREO_COUNT>
1
> <PUBCHEM_BOND_DEF_STEREO_COUNT>
0
> <PUBCHEM_BOND_UDEF_STEREO_COUNT>
0
> <PUBCHEM_ISOTOPIC_ATOM_COUNT>
0
> <PUBCHEM_COMPONENT_COUNT>
1
> <PUBCHEM_CACTVS_TAUTO_COUNT>
-1
> <PUBCHEM_COORDINATE_TYPE>
1
5
255
> <PUBCHEM_BONDANNOTATIONS>
13  15  8
13  16  8
14  18  8
14  19  8
15  17  8
17  20  8
17  23  8
18  21  8
19  22  8
20  25  8
21  24  8
22  24  8
23  26  8
25  27  8
26  27  8
28  29  8
28  30  8
29  31  8
30  32  8
31  33  8
32  33  8
9  7  3
8  16  8
8  20  8
$$$$
