509201
  -OEChem-10302200282D
104107  0     1  0  0  0  0  0999 V2000
    7.6640    3.4952    0.0000 F   0  0  0  0  0  0  0  0  0  0  0  0
    5.0298    1.1756    0.0000 O   0  0  0  0  0  0  0  0  0  0  0  0
    6.5763    5.3793    0.0000 O   0  0  0  0  0  0  0  0  0  0  0  0
    5.3086   -0.5845    0.0000 O   0  0  0  0  0  0  0  0  0  0  0  0
    2.4608    1.4846    0.0000 O   0  0  0  0  0  0  0  0  0  0  0  0
    3.4972    4.6180    0.0000 O   0  0  0  0  0  0  0  0  0  0  0  0
    3.1330   -0.5845    0.0000 O   0  0  0  0  0  0  0  0  0  0  0  0
    6.4897   -2.3070    0.0000 O   0  0  0  0  0  0  0  0  0  0  0  0
    7.7497   -3.5671    0.0000 O   0  0  0  0  0  0  0  0  0  0  0  0
    3.9130    6.5743    0.0000 O   0  0  0  0  0  0  0  0  0  0  0  0
    9.7177   -4.2665    0.0000 O   0  0  0  0  0  0  0  0  0  0  0  0
    4.2296   -3.5671    0.0000 O   0  0  0  0  0  0  0  0  0  0  0  0
    5.9897   -4.8459    0.0000 O   0  0  0  0  0  0  0  0  0  0  0  0
   11.4778   -4.5453    0.0000 O   0  0  0  0  0  0  0  0  0  0  0  0
    8.6299   -6.6144    0.0000 O   0  0  0  0  0  0  0  0  0  0  0  0
   10.8055   -6.6144    0.0000 O   0  0  0  0  0  0  0  0  0  0  0  0
   17.2726    1.8906    0.0000 O   0  0  0  0  0  0  0  0  0  0  0  0
   15.5784    2.2507    0.0000 O   0  0  0  0  0  0  0  0  0  0  0  0
    5.0868    3.2634    0.0000 N   0  0  3  0  0  0  0  0  0  0  0  0
    5.1914    4.2579    0.0000 C   0  0  2  0  0  0  0  0  0  0  0  0
    6.1695    4.4658    0.0000 C   0  0  2  0  0  0  0  0  0  0  0  0
    4.2208    2.7634    0.0000 C   0  0  0  0  0  0  0  0  0  0  0  0
    4.2208    1.7634    0.0000 C   0  0  2  0  0  0  0  0  0  0  0  0
    6.0004    2.8566    0.0000 C   0  0  0  0  0  0  0  0  0  0  0  0
    6.6695    3.5998    0.0000 C   0  0  1  0  0  0  0  0  0  0  0  0
    3.4118    1.1756    0.0000 C   0  0  2  0  0  0  0  0  0  0  0  0
    4.4482    4.9270    0.0000 C   0  0  2  0  0  0  0  0  0  0  0  0
    3.7208    0.2245    0.0000 C   0  0  1  0  0  0  0  0  0  0  0  0
    4.7208    0.2245    0.0000 C   0  0  2  0  0  0  0  0  0  0  0  0
    4.6561    5.9052    0.0000 C   0  0  0  0  0  0  0  0  0  0  0  0
    5.4897   -2.3070    0.0000 C   0  0  2  0  0  0  0  0  0  0  0  0
    4.9019   -1.4980    0.0000 C   0  0  0  0  0  0  0  0  0  0  0  0
    5.1806   -3.2581    0.0000 C   0  0  2  0  0  0  0  0  0  0  0  0
    5.9897   -3.8459    0.0000 C   0  0  1  0  0  0  0  0  0  0  0  0
    6.7987   -3.2581    0.0000 C   0  0  2  0  0  0  0  0  0  0  0  0
    8.9087   -4.8543    0.0000 C   0  0  1  0  0  0  0  0  0  0  0  0
    9.2177   -5.8053    0.0000 C   0  0  2  0  0  0  0  0  0  0  0  0
    7.9576   -4.5453    0.0000 C   0  0  0  0  0  0  0  0  0  0  0  0
   10.2177   -5.8053    0.0000 C   0  0  1  0  0  0  0  0  0  0  0  0
   10.5267   -4.8543    0.0000 C   0  0  2  0  0  0  0  0  0  0  0  0
   11.6857   -3.5671    0.0000 C   0  0  0  0  0  0  0  0  0  0  0  0
   12.6368   -3.2581    0.0000 C   0  0  0  0  0  0  0  0  0  0  0  0
   12.8447   -2.2800    0.0000 C   0  0  0  0  0  0  0  0  0  0  0  0
   13.7957   -1.9709    0.0000 C   0  0  0  0  0  0  0  0  0  0  0  0
   14.0036   -0.9928    0.0000 C   0  0  0  0  0  0  0  0  0  0  0  0
   14.9547   -0.6838    0.0000 C   0  0  0  0  0  0  0  0  0  0  0  0
   15.1626    0.2944    0.0000 C   0  0  0  0  0  0  0  0  0  0  0  0
   16.1137    0.6034    0.0000 C   0  0  0  0  0  0  0  0  0  0  0  0
   16.3216    1.5815    0.0000 C   0  0  0  0  0  0  0  0  0  0  0  0
   17.4805    2.8687    0.0000 C   0  0  0  0  0  0  0  0  0  0  0  0
    5.8230    3.6891    0.0000 H   0  0  0  0  0  0  0  0  0  0  0  0
    5.7794    4.9476    0.0000 H   0  0  0  0  0  0  0  0  0  0  0  0
    4.0088    3.3460    0.0000 H   0  0  0  0  0  0  0  0  0  0  0  0
    3.6102    2.6557    0.0000 H   0  0  0  0  0  0  0  0  0  0  0  0
    4.7732    2.0448    0.0000 H   0  0  0  0  0  0  0  0  0  0  0  0
    5.6904    2.3197    0.0000 H   0  0  0  0  0  0  0  0  0  0  0  0
    6.5020    2.4922    0.0000 H   0  0  0  0  0  0  0  0  0  0  0  0
    7.0072    4.1198    0.0000 H   0  0  0  0  0  0  0  0  0  0  0  0
    2.9734    0.7372    0.0000 H   0  0  0  0  0  0  0  0  0  0  0  0
    4.3193    4.3206    0.0000 H   0  0  0  0  0  0  0  0  0  0  0  0
    3.1085    0.3215    0.0000 H   0  0  0  0  0  0  0  0  0  0  0  0
    4.4394   -0.3279    0.0000 H   0  0  0  0  0  0  0  0  0  0  0  0
    5.2310    5.6729    0.0000 H   0  0  0  0  0  0  0  0  0  0  0  0
    4.9847    6.4310    0.0000 H   0  0  0  0  0  0  0  0  0  0  0  0
    5.7711   -1.7546    0.0000 H   0  0  0  0  0  0  0  0  0  0  0  0
    7.1929    5.4442    0.0000 H   0  0  0  0  0  0  0  0  0  0  0  0
    5.0836   -3.8705    0.0000 H   0  0  0  0  0  0  0  0  0  0  0  0
    4.3879   -1.1513    0.0000 H   0  0  0  0  0  0  0  0  0  0  0  0
    4.4712   -1.9440    0.0000 H   0  0  0  0  0  0  0  0  0  0  0  0
    5.4372   -4.1274    0.0000 H   0  0  0  0  0  0  0  0  0  0  0  0
    6.8957   -3.8705    0.0000 H   0  0  0  0  0  0  0  0  0  0  0  0
    2.0000    1.0698    0.0000 H   0  0  0  0  0  0  0  0  0  0  0  0
    3.0364    5.0329    0.0000 H   0  0  0  0  0  0  0  0  0  0  0  0
    2.5164   -0.5197    0.0000 H   0  0  0  0  0  0  0  0  0  0  0  0
    8.8117   -4.2419    0.0000 H   0  0  0  0  0  0  0  0  0  0  0  0
    8.6054   -5.7084    0.0000 H   0  0  0  0  0  0  0  0  0  0  0  0
    7.3380   -4.5669    0.0000 H   0  0  0  0  0  0  0  0  0  0  0  0
    7.8714   -5.1592    0.0000 H   0  0  0  0  0  0  0  0  0  0  0  0
    9.9362   -6.3578    0.0000 H   0  0  0  0  0  0  0  0  0  0  0  0
   10.9651   -5.2927    0.0000 H   0  0  0  0  0  0  0  0  0  0  0  0
    4.0419    7.1808    0.0000 H   0  0  0  0  0  0  0  0  0  0  0  0
    3.7688   -3.1523    0.0000 H   0  0  0  0  0  0  0  0  0  0  0  0
    5.4527   -5.1559    0.0000 H   0  0  0  0  0  0  0  0  0  0  0  0
    8.8821   -7.1808    0.0000 H   0  0  0  0  0  0  0  0  0  0  0  0
   11.4221   -6.5496    0.0000 H   0  0  0  0  0  0  0  0  0  0  0  0
   11.5994   -2.9532    0.0000 H   0  0  0  0  0  0  0  0  0  0  0  0
   11.0661   -3.5455    0.0000 H   0  0  0  0  0  0  0  0  0  0  0  0
   12.7230   -3.8721    0.0000 H   0  0  0  0  0  0  0  0  0  0  0  0
   13.2564   -3.2797    0.0000 H   0  0  0  0  0  0  0  0  0  0  0  0
   12.7584   -1.6660    0.0000 H   0  0  0  0  0  0  0  0  0  0  0  0
   12.2250   -2.2583    0.0000 H   0  0  0  0  0  0  0  0  0  0  0  0
   13.8820   -2.5849    0.0000 H   0  0  0  0  0  0  0  0  0  0  0  0
   14.4153   -1.9926    0.0000 H   0  0  0  0  0  0  0  0  0  0  0  0
   13.9173   -0.3788    0.0000 H   0  0  0  0  0  0  0  0  0  0  0  0
   13.3840   -0.9712    0.0000 H   0  0  0  0  0  0  0  0  0  0  0  0
   15.0410   -1.2977    0.0000 H   0  0  0  0  0  0  0  0  0  0  0  0
   15.5743   -0.7054    0.0000 H   0  0  0  0  0  0  0  0  0  0  0  0
   15.0763    0.9083    0.0000 H   0  0  0  0  0  0  0  0  0  0  0  0
   14.5430    0.3160    0.0000 H   0  0  0  0  0  0  0  0  0  0  0  0
   16.1999   -0.0106    0.0000 H   0  0  0  0  0  0  0  0  0  0  0  0
   16.7333    0.5818    0.0000 H   0  0  0  0  0  0  0  0  0  0  0  0
   18.0870    2.7398    0.0000 H   0  0  0  0  0  0  0  0  0  0  0  0
   17.6094    3.4752    0.0000 H   0  0  0  0  0  0  0  0  0  0  0  0
   16.8741    2.9976    0.0000 H   0  0  0  0  0  0  0  0  0  0  0  0
 25  1  1  6  0  0  0
  2 23  1  0  0  0  0
  2 29  1  0  0  0  0
 21  3  1  1  0  0  0
  3 66  1  0  0  0  0
 29  4  1  6  0  0  0
  4 32  1  0  0  0  0
 26  5  1  6  0  0  0
  5 72  1  0  0  0  0
 27  6  1  1  0  0  0
  6 73  1  0  0  0  0
 28  7  1  1  0  0  0
  7 74  1  0  0  0  0
  8 31  1  0  0  0  0
  8 35  1  0  0  0  0
 35  9  1  6  0  0  0
  9 38  1  0  0  0  0
 10 30  1  0  0  0  0
 10 81  1  0  0  0  0
 11 36  1  0  0  0  0
 11 40  1  0  0  0  0
 33 12  1  6  0  0  0
 12 82  1  0  0  0  0
 34 13  1  1  0  0  0
 13 83  1  0  0  0  0
 40 14  1  6  0  0  0
 14 41  1  0  0  0  0
 37 15  1  6  0  0  0
 15 84  1  0  0  0  0
 39 16  1  1  0  0  0
 16 85  1  0  0  0  0
 17 49  1  0  0  0  0
 17 50  1  0  0  0  0
 18 49  2  0  0  0  0
 19 20  1  0  0  0  0
 19 22  1  0  0  0  0
 19 24  1  0  0  0  0
 20 21  1  0  0  0  0
 20 27  1  0  0  0  0
 20 51  1  6  0  0  0
 21 25  1  0  0  0  0
 21 52  1  0  0  0  0
 23 22  1  1  0  0  0
 22 53  1  0  0  0  0
 22 54  1  0  0  0  0
 23 26  1  0  0  0  0
 23 55  1  0  0  0  0
 24 25  1  0  0  0  0
 24 56  1  0  0  0  0
 24 57  1  0  0  0  0
 25 58  1  0  0  0  0
 26 28  1  0  0  0  0
 26 59  1  0  0  0  0
 27 30  1  0  0  0  0
 27 60  1  0  0  0  0
 28 29  1  0  0  0  0
 28 61  1  0  0  0  0
 29 62  1  0  0  0  0
 30 63  1  0  0  0  0
 30 64  1  0  0  0  0
 31 32  1  1  0  0  0
 31 33  1  0  0  0  0
 31 65  1  0  0  0  0
 32 68  1  0  0  0  0
 32 69  1  0  0  0  0
 33 34  1  0  0  0  0
 33 67  1  0  0  0  0
 34 35  1  0  0  0  0
 34 70  1  0  0  0  0
 35 71  1  0  0  0  0
 36 37  1  0  0  0  0
 36 38  1  1  0  0  0
 36 75  1  0  0  0  0
 37 39  1  0  0  0  0
 37 76  1  0  0  0  0
 38 77  1  0  0  0  0
 38 78  1  0  0  0  0
 39 40  1  0  0  0  0
 39 79  1  0  0  0  0
 40 80  1  0  0  0  0
 41 42  1  0  0  0  0
 41 86  1  0  0  0  0
 41 87  1  0  0  0  0
 42 43  1  0  0  0  0
 42 88  1  0  0  0  0
 42 89  1  0  0  0  0
 43 44  1  0  0  0  0
 43 90  1  0  0  0  0
 43 91  1  0  0  0  0
 44 45  1  0  0  0  0
 44 92  1  0  0  0  0
 44 93  1  0  0  0  0
 45 46  1  0  0  0  0
 45 94  1  0  0  0  0
 45 95  1  0  0  0  0
 46 47  1  0  0  0  0
 46 96  1  0  0  0  0
 46 97  1  0  0  0  0
 47 48  1  0  0  0  0
 47 98  1  0  0  0  0
 47 99  1  0  0  0  0
 48 49  1  0  0  0  0
 48100  1  0  0  0  0
 48101  1  0  0  0  0
 50102  1  0  0  0  0
 50103  1  0  0  0  0
 50104  1  0  0  0  0
M  END
> <PUBCHEM_COMPOUND_CID>
509201
> <PUBCHEM_COMPOUND_CANONICALIZED>
1
> <PUBCHEM_CACTVS_COMPLEXITY>
1020
> <PUBCHEM_CACTVS_HBOND_ACCEPTOR>
19
> <PUBCHEM_CACTVS_HBOND_DONOR>
9
> <PUBCHEM_CACTVS_ROTATABLE_BOND>
21
> <PUBCHEM_CACTVS_SUBSKEYS>
AAADcfB6PwAAAAAAAAAAAAAAAAAAAWJEiQAAAAAAAAAAAAAAAAAAHwAACAAACDzxgAcCCAMABgAIAACQCAAAAAAAAAAAAAEIAAATEBIAgAAnQAAHAACXAAH4+KqAAAAAAAAAAAAAAAAAAAAAAAAAAAAAAA==
> <PUBCHEM_IUPAC_OPENEYE_NAME>
methyl 9-[(2S,3S,4S,5R)-5-[[(2S,3S,4S,5R)-5-[[(2S,3S,4S,5R)-5-[[(2S,3R,4R)-2-[(1R)-1,2-dihydroxyethyl]-4-fluoro-3-hydroxy-pyrrolidin-1-yl]methyl]-3,4-dihydroxy-tetrahydrofuran-2-yl]oxymethyl]-3,4-dihydroxy-tetrahydrofuran-2-yl]oxymethyl]-3,4-dihydroxy-tetrahydrofuran-2-yl]oxynonanoate
> <PUBCHEM_IUPAC_CAS_NAME>
9-[[(2S,3S,4S,5R)-5-[[(2S,3S,4S,5R)-5-[[(2S,3S,4S,5R)-5-[[(2S,3R,4R)-2-[(1R)-1,2-dihydroxyethyl]-4-fluoro-3-hydroxy-1-pyrrolidinyl]methyl]-3,4-dihydroxy-2-oxolanyl]oxymethyl]-3,4-dihydroxy-2-oxolanyl]oxymethyl]-3,4-dihydroxy-2-oxolanyl]oxy]nonanoic acid methyl ester
> <PUBCHEM_IUPAC_NAME_MARKUP>
methyl 9-[(2<I>S</I>,3<I>S</I>,4<I>S</I>,5<I>R</I>)-5-[[(2<I>S</I>,3<I>S</I>,4<I>S</I>,5<I>R</I>)-5-[[(2<I>S</I>,3<I>S</I>,4<I>S</I>,5<I>R</I>)-5-[[(2<I>S</I>,3<I>R</I>,4<I>R</I>)-2-[(1<I>R</I>)-1,2-dihydroxyethyl]-4-fluoro-3-hydroxypyrrolidin-1-yl]methyl]-3,4-dihydroxyoxolan-2-yl]oxymethyl]-3,4-dihydroxyoxolan-2-yl]oxymethyl]-3,4-dihydroxyoxolan-2-yl]oxynonanoate
> <PUBCHEM_IUPAC_NAME>
methyl 9-[(2S,3S,4S,5R)-5-[[(2S,3S,4S,5R)-5-[[(2S,3S,4S,5R)-5-[[(2S,3R,4R)-2-[(1R)-1,2-dihydroxyethyl]-4-fluoro-3-hydroxypyrrolidin-1-yl]methyl]-3,4-dihydroxyoxolan-2-yl]oxymethyl]-3,4-dihydroxyoxolan-2-yl]oxymethyl]-3,4-dihydroxyoxolan-2-yl]oxynonanoate
> <PUBCHEM_IUPAC_SYSTEMATIC_NAME>
methyl 9-[(2S,3S,4S,5R)-5-[[(2S,3S,4S,5R)-5-[[(2S,3S,4S,5R)-5-[[(2S,3R,4R)-2-[(1R)-1,2-bis(oxidanyl)ethyl]-4-fluoranyl-3-oxidanyl-pyrrolidin-1-yl]methyl]-3,4-bis(oxidanyl)oxolan-2-yl]oxymethyl]-3,4-bis(oxidanyl)oxolan-2-yl]oxymethyl]-3,4-bis(oxidanyl)oxolan-2-yl]oxynonanoate
> <PUBCHEM_IUPAC_TRADITIONAL_NAME>
9-[(2S,3S,4S,5R)-5-[[(2S,3S,4S,5R)-5-[[(2S,3S,4S,5R)-5-[[(2S,3R,4R)-2-[(1R)-1,2-dihydroxyethyl]-4-fluoro-3-hydroxy-pyrrolidino]methyl]-3,4-dihydroxy-tetrahydrofuran-2-yl]oxymethyl]-3,4-dihydroxy-tetrahydrofuran-2-yl]oxymethyl]-3,4-dihydroxy-tetrahydrofuran-2-yl]oxypelargonic acid methyl ester
> <PUBCHEM_IUPAC_INCHI>
InChI=1S/C31H54FNO17/c1-44-20(36)8-6-4-2-3-5-7-9-45-29-27(42)24(39)18(49-29)13-47-31-28(43)25(40)19(50-31)14-46-30-26(41)23(38)17(48-30)11-33-10-15(32)22(37)21(33)16(35)12-34/h15-19,21-31,34-35,37-43H,2-14H2,1H3/t15-,16+,17-,18-,19-,21+,22+,23-,24-,25-,26+,27+,28+,29+,30+,31+/m1/s1
> <PUBCHEM_IUPAC_INCHIKEY>
XDKXDCTUZQKGLO-NYOIKLEISA-N
> <PUBCHEM_XLOGP3_AA>
-2.9
> <PUBCHEM_EXACT_MASS>
731.33757742
> <PUBCHEM_MOLECULAR_FORMULA>
C31H54FNO17
> <PUBCHEM_MOLECULAR_WEIGHT>
731.8
> <PUBCHEM_OPENEYE_CAN_SMILES>
COC(=O)CCCCCCCCOC1C(C(C(O1)COC2C(C(C(O2)COC3C(C(C(O3)CN4CC(C(C4C(CO)O)O)F)O)O)O)O)O)O
> <PUBCHEM_OPENEYE_ISO_SMILES>
COC(=O)CCCCCCCCO[C@@H]1[C@H]([C@@H]([C@H](O1)CO[C@@H]2[C@H]([C@@H]([C@H](O2)CO[C@@H]3[C@H]([C@@H]([C@H](O3)CN4C[C@H]([C@@H]([C@@H]4[C@H](CO)O)O)F)O)O)O)O)O)O
> <PUBCHEM_CACTVS_TPSA>
267
> <PUBCHEM_MONOISOTOPIC_WEIGHT>
731.33757742
> <PUBCHEM_TOTAL_CHARGE>
0
> <PUBCHEM_HEAVY_ATOM_COUNT>
50
> <PUBCHEM_ATOM_DEF_STEREO_COUNT>
16
> <PUBCHEM_ATOM_UDEF_STEREO_COUNT>
0
> <PUBCHEM_BOND_DEF_STEREO_COUNT>
0
> <PUBCHEM_BOND_UDEF_STEREO_COUNT>
0
> <PUBCHEM_ISOTOPIC_ATOM_COUNT>
0
> <PUBCHEM_COMPONENT_COUNT>
1
> <PUBCHEM_CACTVS_TAUTO_COUNT>
-1
> <PUBCHEM_COORDINATE_TYPE>
1
5
255
> <PUBCHEM_BONDANNOTATIONS>
25  1  6
33  12  6
34  13  5
40  14  6
37  15  6
39  16  5
20  51  6
23  22  5
21  3  5
31  32  5
36  38  5
29  4  6
26  5  6
27  6  5
28  7  5
35  9  6
$$$$
