509255
  -OEChem-10302200282D
 83 87  0     1  0  0  0  0  0999 V2000
    6.1847   -3.5010    0.0000 O   0  0  0  0  0  0  0  0  0  0  0  0
    2.5357   -2.4840    0.0000 O   0  0  0  0  0  0  0  0  0  0  0  0
    2.5519   -0.3924    0.0000 O   0  0  0  0  0  0  0  0  0  0  0  0
   11.4608    0.6025    0.0000 O   0  0  0  0  0  0  0  0  0  0  0  0
   10.6064   -0.9042    0.0000 O   0  0  0  0  0  0  0  0  0  0  0  0
    7.0628   -0.9317    0.0000 C   0  0  1  0  0  0  0  0  0  0  0  0
    7.9288   -0.4317    0.0000 C   0  0  1  0  0  0  0  0  0  0  0  0
    6.1968   -0.4317    0.0000 C   0  0  3  0  0  0  0  0  0  0  0  0
    7.9288    0.5683    0.0000 C   0  0  3  0  0  0  0  0  0  0  0  0
    5.2868   -0.9386    0.0000 C   0  0  2  0  0  0  0  0  0  0  0  0
    8.8228    1.1030    0.0000 C   0  0  3  0  0  0  0  0  0  0  0  0
    5.2787   -1.9802    0.0000 C   0  0  3  0  0  0  0  0  0  0  0  0
    7.0789   -1.9732    0.0000 C   0  0  0  0  0  0  0  0  0  0  0  0
    9.7288    0.5891    0.0000 C   0  0  1  0  0  0  0  0  0  0  0  0
    6.1968    0.5683    0.0000 C   0  0  0  0  0  0  0  0  0  0  0  0
    8.8228   -0.9664    0.0000 C   0  0  0  0  0  0  0  0  0  0  0  0
    7.0628    1.0683    0.0000 C   0  0  0  0  0  0  0  0  0  0  0  0
    6.1808   -2.5010    0.0000 C   0  0  2  0  0  0  0  0  0  0  0  0
    9.7288   -0.4525    0.0000 C   0  0  0  0  0  0  0  0  0  0  0  0
    4.3433   -2.5299    0.0000 C   0  0  0  0  0  0  0  0  0  0  0  0
    4.3599   -0.3745    0.0000 C   0  0  0  0  0  0  0  0  0  0  0  0
    9.0329    2.1169    0.0000 C   0  0  1  0  0  0  0  0  0  0  0  0
    7.7056   -1.6978    0.0000 C   0  0  0  0  0  0  0  0  0  0  0  0
    8.2709   -1.3714    0.0000 C   0  0  0  0  0  0  0  0  0  0  0  0
   10.4911    1.2899    0.0000 C   0  0  0  0  0  0  0  0  0  0  0  0
    5.2945    0.0614    0.0000 C   0  0  0  0  0  0  0  0  0  0  0  0
   10.0619    2.2322    0.0000 C   0  0  0  0  0  0  0  0  0  0  0  0
    3.4037   -1.9874    0.0000 C   0  0  2  0  0  0  0  0  0  0  0  0
    3.4120   -0.9024    0.0000 C   0  0  2  0  0  0  0  0  0  0  0  0
   10.5987    0.0958    0.0000 C   0  0  0  0  0  0  0  0  0  0  0  0
    3.8467   -3.3978    0.0000 C   0  0  0  0  0  0  0  0  0  0  0  0
    4.8466   -3.3940    0.0000 C   0  0  0  0  0  0  0  0  0  0  0  0
    8.3593    2.8560    0.0000 C   0  0  0  0  0  0  0  0  0  0  0  0
    8.6626    3.8089    0.0000 C   0  0  0  0  0  0  0  0  0  0  0  0
    7.3824    2.6423    0.0000 C   0  0  0  0  0  0  0  0  0  0  0  0
    6.7337   -0.1217    0.0000 H   0  0  0  0  0  0  0  0  0  0  0  0
    7.9240    1.1883    0.0000 H   0  0  0  0  0  0  0  0  0  0  0  0
    8.3175    1.4622    0.0000 H   0  0  0  0  0  0  0  0  0  0  0  0
    5.2811   -2.6002    0.0000 H   0  0  0  0  0  0  0  0  0  0  0  0
    7.2969   -2.5536    0.0000 H   0  0  0  0  0  0  0  0  0  0  0  0
    7.6880   -1.8577    0.0000 H   0  0  0  0  0  0  0  0  0  0  0  0
    5.9847    1.1509    0.0000 H   0  0  0  0  0  0  0  0  0  0  0  0
    5.5862    0.4606    0.0000 H   0  0  0  0  0  0  0  0  0  0  0  0
    8.4182   -1.4362    0.0000 H   0  0  0  0  0  0  0  0  0  0  0  0
    9.2164   -1.4454    0.0000 H   0  0  0  0  0  0  0  0  0  0  0  0
    7.4613    1.5432    0.0000 H   0  0  0  0  0  0  0  0  0  0  0  0
    6.6643    1.5432    0.0000 H   0  0  0  0  0  0  0  0  0  0  0  0
    6.7195   -2.8079    0.0000 H   0  0  0  0  0  0  0  0  0  0  0  0
    9.9379   -1.0362    0.0000 H   0  0  0  0  0  0  0  0  0  0  0  0
   10.3397   -0.3464    0.0000 H   0  0  0  0  0  0  0  0  0  0  0  0
    4.7681    0.0922    0.0000 H   0  0  0  0  0  0  0  0  0  0  0  0
    3.9700    0.1076    0.0000 H   0  0  0  0  0  0  0  0  0  0  0  0
    9.2513    2.6971    0.0000 H   0  0  0  0  0  0  0  0  0  0  0  0
    7.2306   -2.0963    0.0000 H   0  0  0  0  0  0  0  0  0  0  0  0
    8.1041   -2.1727    0.0000 H   0  0  0  0  0  0  0  0  0  0  0  0
    8.1805   -1.2992    0.0000 H   0  0  0  0  0  0  0  0  0  0  0  0
    7.6884   -1.5835    0.0000 H   0  0  0  0  0  0  0  0  0  0  0  0
    8.4830   -1.9540    0.0000 H   0  0  0  0  0  0  0  0  0  0  0  0
    8.8535   -1.1593    0.0000 H   0  0  0  0  0  0  0  0  0  0  0  0
   10.8604    0.7918    0.0000 H   0  0  0  0  0  0  0  0  0  0  0  0
   11.0252    1.6048    0.0000 H   0  0  0  0  0  0  0  0  0  0  0  0
    5.9145    0.0566    0.0000 H   0  0  0  0  0  0  0  0  0  0  0  0
    5.2993    0.6814    0.0000 H   0  0  0  0  0  0  0  0  0  0  0  0
    4.6745    0.0662    0.0000 H   0  0  0  0  0  0  0  0  0  0  0  0
   10.6500    2.4285    0.0000 H   0  0  0  0  0  0  0  0  0  0  0  0
    9.9285    2.8376    0.0000 H   0  0  0  0  0  0  0  0  0  0  0  0
    2.8686   -1.6743    0.0000 H   0  0  0  0  0  0  0  0  0  0  0  0
    2.8722   -1.2072    0.0000 H   0  0  0  0  0  0  0  0  0  0  0  0
    3.3085   -3.0899    0.0000 H   0  0  0  0  0  0  0  0  0  0  0  0
    3.5387   -3.9360    0.0000 H   0  0  0  0  0  0  0  0  0  0  0  0
    4.3848   -3.7058    0.0000 H   0  0  0  0  0  0  0  0  0  0  0  0
    4.3109   -3.7060    0.0000 H   0  0  0  0  0  0  0  0  0  0  0  0
    5.1587   -3.9297    0.0000 H   0  0  0  0  0  0  0  0  0  0  0  0
    5.3824   -3.0819    0.0000 H   0  0  0  0  0  0  0  0  0  0  0  0
    6.7228   -3.8089    0.0000 H   0  0  0  0  0  0  0  0  0  0  0  0
    2.0000   -2.1720    0.0000 H   0  0  0  0  0  0  0  0  0  0  0  0
    2.5590    0.2275    0.0000 H   0  0  0  0  0  0  0  0  0  0  0  0
    9.2534    3.6208    0.0000 H   0  0  0  0  0  0  0  0  0  0  0  0
    8.8507    4.3997    0.0000 H   0  0  0  0  0  0  0  0  0  0  0  0
    8.0718    3.9970    0.0000 H   0  0  0  0  0  0  0  0  0  0  0  0
   12.0001    0.2966    0.0000 H   0  0  0  0  0  0  0  0  0  0  0  0
    6.9648    3.1005    0.0000 H   0  0  0  0  0  0  0  0  0  0  0  0
    7.1944    2.0515    0.0000 H   0  0  0  0  0  0  0  0  0  0  0  0
 18  1  1  6  0  0  0
  1 75  1  0  0  0  0
 28  2  1  1  0  0  0
  2 76  1  0  0  0  0
 29  3  1  6  0  0  0
  3 77  1  0  0  0  0
  4 30  1  0  0  0  0
  4 81  1  0  0  0  0
  5 30  2  0  0  0  0
  6  7  1  0  0  0  0
  6  8  1  0  0  0  0
  6 13  1  0  0  0  0
  6 23  1  1  0  0  0
  7  9  1  0  0  0  0
  7 16  1  0  0  0  0
  7 24  1  6  0  0  0
  8 10  1  0  0  0  0
  8 15  1  0  0  0  0
  8 36  1  0  0  0  0
  9 11  1  0  0  0  0
  9 17  1  0  0  0  0
  9 37  1  0  0  0  0
 10 12  1  0  0  0  0
 10 21  1  0  0  0  0
 10 26  1  1  0  0  0
 11 14  1  0  0  0  0
 11 22  1  0  0  0  0
 11 38  1  0  0  0  0
 12 18  1  0  0  0  0
 12 20  1  0  0  0  0
 12 39  1  0  0  0  0
 13 18  1  0  0  0  0
 13 40  1  0  0  0  0
 13 41  1  0  0  0  0
 14 19  1  0  0  0  0
 14 25  1  0  0  0  0
 14 30  1  1  0  0  0
 15 17  1  0  0  0  0
 15 42  1  0  0  0  0
 15 43  1  0  0  0  0
 16 19  1  0  0  0  0
 16 44  1  0  0  0  0
 16 45  1  0  0  0  0
 17 46  1  0  0  0  0
 17 47  1  0  0  0  0
 18 48  1  0  0  0  0
 19 49  1  0  0  0  0
 19 50  1  0  0  0  0
 20 28  1  0  0  0  0
 20 31  1  0  0  0  0
 20 32  1  0  0  0  0
 21 29  1  0  0  0  0
 21 51  1  0  0  0  0
 21 52  1  0  0  0  0
 22 27  1  0  0  0  0
 22 33  1  0  0  0  0
 22 53  1  0  0  0  0
 23 54  1  0  0  0  0
 23 55  1  0  0  0  0
 23 56  1  0  0  0  0
 24 57  1  0  0  0  0
 24 58  1  0  0  0  0
 24 59  1  0  0  0  0
 25 27  1  0  0  0  0
 25 60  1  0  0  0  0
 25 61  1  0  0  0  0
 26 62  1  0  0  0  0
 26 63  1  0  0  0  0
 26 64  1  0  0  0  0
 27 65  1  0  0  0  0
 27 66  1  0  0  0  0
 28 29  1  0  0  0  0
 28 67  1  0  0  0  0
 29 68  1  0  0  0  0
 31 69  1  0  0  0  0
 31 70  1  0  0  0  0
 31 71  1  0  0  0  0
 32 72  1  0  0  0  0
 32 73  1  0  0  0  0
 32 74  1  0  0  0  0
 33 34  1  0  0  0  0
 33 35  2  0  0  0  0
 34 78  1  0  0  0  0
 34 79  1  0  0  0  0
 34 80  1  0  0  0  0
 35 82  1  0  0  0  0
 35 83  1  0  0  0  0
M  END
> <PUBCHEM_COMPOUND_CID>
509255
> <PUBCHEM_COMPOUND_CANONICALIZED>
1
> <PUBCHEM_CACTVS_COMPLEXITY>
928
> <PUBCHEM_CACTVS_HBOND_ACCEPTOR>
5
> <PUBCHEM_CACTVS_HBOND_DONOR>
4
> <PUBCHEM_CACTVS_ROTATABLE_BOND>
2
> <PUBCHEM_CACTVS_SUBSKEYS>
AAADcfB4OAAAAAAAAAAAAAAAAAAAAYAAAAAwYMGAAAAAAGDAAAAAGgAACAAADxSggAICCAAAAgCIAgDSCAAAAAAgAAAAAAEAAAgBEBIAAQAAQAAEgAABAAHI6PSPgAAAAAAAAADAAAYAADCAAQAACAAAAA==
> <PUBCHEM_IUPAC_OPENEYE_NAME>
(1R,3aS,5aR,5bR,7S,9R,10R,11aR)-7,9,10-trihydroxy-1-isopropenyl-5a,5b,8,8,11a-pentamethyl-1,2,3,4,5,6,7,7a,9,10,11,11b,12,13,13a,13b-hexadecahydrocyclopenta[a]chrysene-3a-carboxylic acid
> <PUBCHEM_IUPAC_CAS_NAME>
(1R,3aS,5aR,5bR,7S,9R,10R,11aR)-7,9,10-trihydroxy-5a,5b,8,8,11a-pentamethyl-1-(1-methylethenyl)-1,2,3,4,5,6,7,7a,9,10,11,11b,12,13,13a,13b-hexadecahydrocyclopenta[a]chrysene-3a-carboxylic acid
> <PUBCHEM_IUPAC_NAME_MARKUP>
(1<I>R</I>,3<I>a</I><I>S</I>,5<I>a</I><I>R</I>,5<I>b</I><I>R</I>,7<I>S</I>,9<I>R</I>,10<I>R</I>,11<I>a</I><I>R</I>)-7,9,10-trihydroxy-5<I>a</I>,5<I>b</I>,8,8,11<I>a</I>-pentamethyl-1-prop-1-en-2-yl-1,2,3,4,5,6,7,7<I>a</I>,9,10,11,11<I>b</I>,12,13,13<I>a</I>,13<I>b</I>-hexadecahydrocyclopenta[a]chrysene-3<I>a</I>-carboxylic acid
> <PUBCHEM_IUPAC_NAME>
(1R,3aS,5aR,5bR,7S,9R,10R,11aR)-7,9,10-trihydroxy-5a,5b,8,8,11a-pentamethyl-1-prop-1-en-2-yl-1,2,3,4,5,6,7,7a,9,10,11,11b,12,13,13a,13b-hexadecahydrocyclopenta[a]chrysene-3a-carboxylic acid
> <PUBCHEM_IUPAC_SYSTEMATIC_NAME>
(1R,3aS,5aR,5bR,7S,9R,10R,11aR)-5a,5b,8,8,11a-pentamethyl-7,9,10-tris(oxidanyl)-1-prop-1-en-2-yl-1,2,3,4,5,6,7,7a,9,10,11,11b,12,13,13a,13b-hexadecahydrocyclopenta[a]chrysene-3a-carboxylic acid
> <PUBCHEM_IUPAC_TRADITIONAL_NAME>
(1R,3aS,5aR,5bR,7S,9R,10R,11aR)-7,9,10-trihydroxy-1-isopropenyl-5a,5b,8,8,11a-pentamethyl-1,2,3,4,5,6,7,7a,9,10,11,11b,12,13,13a,13b-hexadecahydrocyclopenta[a]chrysene-3a-carboxylic acid
> <PUBCHEM_IUPAC_INCHI>
InChI=1S/C30H48O5/c1-16(2)17-10-11-30(25(34)35)13-12-28(6)18(22(17)30)8-9-21-27(5)14-20(32)24(33)26(3,4)23(27)19(31)15-29(21,28)7/h17-24,31-33H,1,8-15H2,2-7H3,(H,34,35)/t17-,18?,19-,20+,21?,22?,23?,24-,27+,28+,29+,30-/m0/s1
> <PUBCHEM_IUPAC_INCHIKEY>
HWFGKGTUJQBDEU-JWVDHMLPSA-N
> <PUBCHEM_XLOGP3_AA>
5.9
> <PUBCHEM_EXACT_MASS>
488.35017463
> <PUBCHEM_MOLECULAR_FORMULA>
C30H48O5
> <PUBCHEM_MOLECULAR_WEIGHT>
488.7
> <PUBCHEM_OPENEYE_CAN_SMILES>
CC(=C)C1CCC2(C1C3CCC4C5(CC(C(C(C5C(CC4(C3(CC2)C)C)O)(C)C)O)O)C)C(=O)O
> <PUBCHEM_OPENEYE_ISO_SMILES>
CC(=C)[C@@H]1CC[C@]2(C1C3CCC4[C@]5(C[C@H]([C@@H](C(C5[C@H](C[C@]4([C@@]3(CC2)C)C)O)(C)C)O)O)C)C(=O)O
> <PUBCHEM_CACTVS_TPSA>
98
> <PUBCHEM_MONOISOTOPIC_WEIGHT>
488.35017463
> <PUBCHEM_TOTAL_CHARGE>
0
> <PUBCHEM_HEAVY_ATOM_COUNT>
35
> <PUBCHEM_ATOM_DEF_STEREO_COUNT>
8
> <PUBCHEM_ATOM_UDEF_STEREO_COUNT>
4
> <PUBCHEM_BOND_DEF_STEREO_COUNT>
0
> <PUBCHEM_BOND_UDEF_STEREO_COUNT>
0
> <PUBCHEM_ISOTOPIC_ATOM_COUNT>
0
> <PUBCHEM_COMPONENT_COUNT>
1
> <PUBCHEM_CACTVS_TAUTO_COUNT>
-1
> <PUBCHEM_COORDINATE_TYPE>
1
5
255
> <PUBCHEM_BONDANNOTATIONS>
18  1  6
10  26  5
11  22  3
12  20  3
14  30  5
28  2  5
29  3  6
6  23  5
7  24  6
8  15  3
9  17  3
$$$$
