509257
  -OEChem-10302200282D
 97 99  0     1  0  0  0  0  0999 V2000
   13.8805   -1.2355    0.0000 O   0  0  0  0  0  0  0  0  0  0  0  0
   18.5182   -6.2231    0.0000 O   0  0  0  0  0  0  0  0  0  0  0  0
   16.8354   -5.4127    0.0000 O   0  0  0  0  0  0  0  0  0  0  0  0
   16.8052   -1.9031    0.0000 O   0  0  0  0  0  0  0  0  0  0  0  0
   10.1150    3.3993    0.0000 O   0  0  0  0  0  0  0  0  0  0  0  0
   14.2659    0.4531    0.0000 O   0  0  0  0  0  0  0  0  0  0  0  0
    9.0058   -0.1229    0.0000 O   0  0  0  0  0  0  0  0  0  0  0  0
   10.6609    0.3876    0.0000 O   0  0  0  0  0  0  0  0  0  0  0  0
    8.9152   -2.7671    0.0000 O   0  0  0  0  0  0  0  0  0  0  0  0
    2.6802   -3.1206    0.0000 O   0  0  0  0  0  0  0  0  0  0  0  0
   13.0328    4.0806    0.0000 O   0  0  0  0  0  0  0  0  0  0  0  0
    3.9499   -4.2987    0.0000 O   0  0  0  0  0  0  0  0  0  0  0  0
   18.5182   -5.2231    0.0000 N   0  0  0  0  0  0  0  0  0  0  0  0
   16.4198   -3.5917    0.0000 N   0  0  0  0  0  0  0  0  0  0  0  0
   12.3160    0.8981    0.0000 N   0  0  0  0  0  0  0  0  0  0  0  0
    9.3006   -1.0785    0.0000 N   0  0  0  0  0  0  0  0  0  0  0  0
   11.6462    2.8764    0.0000 N   0  0  0  0  0  0  0  0  0  0  0  0
   17.3948   -3.8142    0.0000 C   0  0  3  0  0  0  0  0  0  0  0  0
   18.0182   -3.0324    0.0000 C   0  0  0  0  0  0  0  0  0  0  0  0
   19.0182   -3.0324    0.0000 C   0  0  0  0  0  0  0  0  0  0  0  0
   19.6417   -3.8142    0.0000 C   0  0  0  0  0  0  0  0  0  0  0  0
   19.4192   -4.7892    0.0000 C   0  0  0  0  0  0  0  0  0  0  0  0
   17.6173   -4.7892    0.0000 C   0  0  0  0  0  0  0  0  0  0  0  0
   12.6108   -0.0574    0.0000 C   0  0  1  0  0  0  0  0  0  0  0  0
   11.9306   -0.7905    0.0000 C   0  0  0  0  0  0  0  0  0  0  0  0
   15.1501   -2.4136    0.0000 C   0  0  0  0  0  0  0  0  0  0  0  0
   10.9557   -0.5680    0.0000 C   0  0  0  0  0  0  0  0  0  0  0  0
   16.1251   -2.6362    0.0000 C   0  0  0  0  0  0  0  0  0  0  0  0
   14.8554   -1.4581    0.0000 C   0  0  2  0  0  0  0  0  0  0  0  0
   10.2755   -1.3010    0.0000 C   0  0  0  0  0  0  0  0  0  0  0  0
   13.5857   -0.2800    0.0000 C   0  0  0  0  0  0  0  0  0  0  0  0
   11.0463    2.0762    0.0000 C   0  0  2  0  0  0  0  0  0  0  0  0
   15.5356   -0.7250    0.0000 C   0  0  0  0  0  0  0  0  0  0  0  0
   11.3411    1.1206    0.0000 C   0  0  0  0  0  0  0  0  0  0  0  0
    6.9653   -2.3221    0.0000 C   0  0  0  0  0  0  0  0  0  0  0  0
    7.6455   -1.5890    0.0000 C   0  0  0  0  0  0  0  0  0  0  0  0
    5.9904   -2.0996    0.0000 C   0  0  0  0  0  0  0  0  0  0  0  0
   10.1000    2.3994    0.0000 C   0  0  0  0  0  0  0  0  0  0  0  0
    8.6204   -1.8116    0.0000 C   0  0  0  0  0  0  0  0  0  0  0  0
    5.3102   -2.8326    0.0000 C   0  0  0  0  0  0  0  0  0  0  0  0
   11.0705    3.6941    0.0000 C   0  0  0  0  0  0  0  0  0  0  0  0
    4.3353   -2.6101    0.0000 C   0  0  0  0  0  0  0  0  0  0  0  0
   11.3938    4.6404    0.0000 C   0  0  0  0  0  0  0  0  0  0  0  0
    3.6551   -3.3432    0.0000 C   0  0  0  0  0  0  0  0  0  0  0  0
   12.3749    4.8337    0.0000 C   0  0  0  0  0  0  0  0  0  0  0  0
   10.7358    5.3935    0.0000 C   0  0  0  0  0  0  0  0  0  0  0  0
   12.6981    5.7800    0.0000 C   0  0  0  0  0  0  0  0  0  0  0  0
   11.0590    6.3398    0.0000 C   0  0  0  0  0  0  0  0  0  0  0  0
   12.0402    6.5331    0.0000 C   0  0  0  0  0  0  0  0  0  0  0  0
    2.0000   -3.8537    0.0000 C   0  0  0  0  0  0  0  0  0  0  0  0
   16.9563   -4.2526    0.0000 H   0  0  0  0  0  0  0  0  0  0  0  0
   18.1562   -2.4280    0.0000 H   0  0  0  0  0  0  0  0  0  0  0  0
   17.4596   -2.7634    0.0000 H   0  0  0  0  0  0  0  0  0  0  0  0
   19.5768   -2.7634    0.0000 H   0  0  0  0  0  0  0  0  0  0  0  0
   18.8803   -2.4280    0.0000 H   0  0  0  0  0  0  0  0  0  0  0  0
   20.2003   -4.0832    0.0000 H   0  0  0  0  0  0  0  0  0  0  0  0
   20.0283   -3.3295    0.0000 H   0  0  0  0  0  0  0  0  0  0  0  0
   19.5572   -5.3936    0.0000 H   0  0  0  0  0  0  0  0  0  0  0  0
   20.0392   -4.7892    0.0000 H   0  0  0  0  0  0  0  0  0  0  0  0
   15.9981   -4.0462    0.0000 H   0  0  0  0  0  0  0  0  0  0  0  0
   12.0063    0.0805    0.0000 H   0  0  0  0  0  0  0  0  0  0  0  0
   11.6898   -1.3618    0.0000 H   0  0  0  0  0  0  0  0  0  0  0  0
   12.4514   -1.1269    0.0000 H   0  0  0  0  0  0  0  0  0  0  0  0
   11.1965    0.0033    0.0000 H   0  0  0  0  0  0  0  0  0  0  0  0
   10.4349   -0.2316    0.0000 H   0  0  0  0  0  0  0  0  0  0  0  0
   14.5350   -2.4907    0.0000 H   0  0  0  0  0  0  0  0  0  0  0  0
   15.1192   -3.0329    0.0000 H   0  0  0  0  0  0  0  0  0  0  0  0
   14.6726   -0.8656    0.0000 H   0  0  0  0  0  0  0  0  0  0  0  0
   10.0347   -1.8723    0.0000 H   0  0  0  0  0  0  0  0  0  0  0  0
   10.7963   -1.6374    0.0000 H   0  0  0  0  0  0  0  0  0  0  0  0
   12.7377    1.3526    0.0000 H   0  0  0  0  0  0  0  0  0  0  0  0
   11.6572    1.9701    0.0000 H   0  0  0  0  0  0  0  0  0  0  0  0
   15.9901   -1.1467    0.0000 H   0  0  0  0  0  0  0  0  0  0  0  0
   15.9573   -0.2705    0.0000 H   0  0  0  0  0  0  0  0  0  0  0  0
   15.0811   -0.3033    0.0000 H   0  0  0  0  0  0  0  0  0  0  0  0
   19.0552   -6.5331    0.0000 H   0  0  0  0  0  0  0  0  0  0  0  0
    6.7245   -2.8934    0.0000 H   0  0  0  0  0  0  0  0  0  0  0  0
    7.4861   -2.6585    0.0000 H   0  0  0  0  0  0  0  0  0  0  0  0
    7.8863   -1.0177    0.0000 H   0  0  0  0  0  0  0  0  0  0  0  0
    7.1247   -1.2527    0.0000 H   0  0  0  0  0  0  0  0  0  0  0  0
    6.2312   -1.5283    0.0000 H   0  0  0  0  0  0  0  0  0  0  0  0
    5.4696   -1.7632    0.0000 H   0  0  0  0  0  0  0  0  0  0  0  0
    9.4844    2.4735    0.0000 H   0  0  0  0  0  0  0  0  0  0  0  0
    9.9620    1.7950    0.0000 H   0  0  0  0  0  0  0  0  0  0  0  0
    5.0694   -3.4039    0.0000 H   0  0  0  0  0  0  0  0  0  0  0  0
    5.8310   -3.1690    0.0000 H   0  0  0  0  0  0  0  0  0  0  0  0
    4.5761   -2.0388    0.0000 H   0  0  0  0  0  0  0  0  0  0  0  0
    3.8145   -2.2737    0.0000 H   0  0  0  0  0  0  0  0  0  0  0  0
    8.4014    0.0150    0.0000 H   0  0  0  0  0  0  0  0  0  0  0  0
   10.1275    5.2737    0.0000 H   0  0  0  0  0  0  0  0  0  0  0  0
   13.3064    5.8998    0.0000 H   0  0  0  0  0  0  0  0  0  0  0  0
   10.6511    6.8067    0.0000 H   0  0  0  0  0  0  0  0  0  0  0  0
   12.2406    7.1198    0.0000 H   0  0  0  0  0  0  0  0  0  0  0  0
   13.6412    4.2004    0.0000 H   0  0  0  0  0  0  0  0  0  0  0  0
    1.5455   -3.4320    0.0000 H   0  0  0  0  0  0  0  0  0  0  0  0
    1.5783   -4.3082    0.0000 H   0  0  0  0  0  0  0  0  0  0  0  0
    2.4545   -4.2754    0.0000 H   0  0  0  0  0  0  0  0  0  0  0  0
 29  1  1  1  0  0  0
  1 31  1  0  0  0  0
  2 13  1  0  0  0  0
  2 76  1  0  0  0  0
  3 23  2  0  0  0  0
  4 28  2  0  0  0  0
  5 38  1  0  0  0  0
  5 41  1  0  0  0  0
  6 31  2  0  0  0  0
  7 16  1  0  0  0  0
  7 89  1  0  0  0  0
  8 34  2  0  0  0  0
  9 39  2  0  0  0  0
 10 44  1  0  0  0  0
 10 50  1  0  0  0  0
 11 45  1  0  0  0  0
 11 94  1  0  0  0  0
 12 44  2  0  0  0  0
 13 22  1  0  0  0  0
 13 23  1  0  0  0  0
 14 18  1  0  0  0  0
 14 28  1  0  0  0  0
 14 60  1  0  0  0  0
 24 15  1  6  0  0  0
 15 34  1  0  0  0  0
 15 71  1  0  0  0  0
 16 30  1  0  0  0  0
 16 39  1  0  0  0  0
 17 32  1  0  0  0  0
 17 41  2  0  0  0  0
 18 19  1  0  0  0  0
 18 23  1  0  0  0  0
 18 51  1  0  0  0  0
 19 20  1  0  0  0  0
 19 52  1  0  0  0  0
 19 53  1  0  0  0  0
 20 21  1  0  0  0  0
 20 54  1  0  0  0  0
 20 55  1  0  0  0  0
 21 22  1  0  0  0  0
 21 56  1  0  0  0  0
 21 57  1  0  0  0  0
 22 58  1  0  0  0  0
 22 59  1  0  0  0  0
 24 25  1  0  0  0  0
 24 31  1  0  0  0  0
 24 61  1  0  0  0  0
 25 27  1  0  0  0  0
 25 62  1  0  0  0  0
 25 63  1  0  0  0  0
 26 28  1  0  0  0  0
 26 29  1  0  0  0  0
 26 66  1  0  0  0  0
 26 67  1  0  0  0  0
 27 30  1  0  0  0  0
 27 64  1  0  0  0  0
 27 65  1  0  0  0  0
 29 33  1  0  0  0  0
 29 68  1  0  0  0  0
 30 69  1  0  0  0  0
 30 70  1  0  0  0  0
 32 34  1  6  0  0  0
 32 38  1  0  0  0  0
 32 72  1  0  0  0  0
 33 73  1  0  0  0  0
 33 74  1  0  0  0  0
 33 75  1  0  0  0  0
 35 36  1  0  0  0  0
 35 37  1  0  0  0  0
 35 77  1  0  0  0  0
 35 78  1  0  0  0  0
 36 39  1  0  0  0  0
 36 79  1  0  0  0  0
 36 80  1  0  0  0  0
 37 40  1  0  0  0  0
 37 81  1  0  0  0  0
 37 82  1  0  0  0  0
 38 83  1  0  0  0  0
 38 84  1  0  0  0  0
 40 42  1  0  0  0  0
 40 85  1  0  0  0  0
 40 86  1  0  0  0  0
 41 43  1  0  0  0  0
 42 44  1  0  0  0  0
 42 87  1  0  0  0  0
 42 88  1  0  0  0  0
 43 45  1  0  0  0  0
 43 46  2  0  0  0  0
 45 47  2  0  0  0  0
 46 48  1  0  0  0  0
 46 90  1  0  0  0  0
 47 49  1  0  0  0  0
 47 91  1  0  0  0  0
 48 49  2  0  0  0  0
 48 92  1  0  0  0  0
 49 93  1  0  0  0  0
 50 95  1  0  0  0  0
 50 96  1  0  0  0  0
 50 97  1  0  0  0  0
M  END
> <PUBCHEM_COMPOUND_CID>
509257
> <PUBCHEM_COMPOUND_CANONICALIZED>
1
> <PUBCHEM_CACTVS_COMPLEXITY>
1220
> <PUBCHEM_CACTVS_HBOND_ACCEPTOR>
13
> <PUBCHEM_CACTVS_HBOND_DONOR>
5
> <PUBCHEM_CACTVS_ROTATABLE_BOND>
20
> <PUBCHEM_CACTVS_SUBSKEYS>
AAADcfB/vAAAAAAAAAAAAAAAAAAAAQAAAAAwAAAABYAAAAABAAAAHgAUCAAADDzhmAYyDoLQBgCoAiHyHAACAAAgIAAoiIGuCJgKZ7aCsTqXcAAn9hGYuAeY2SKOAAAAAAAIAAAAAAAAABAAAAAAAAAAAA==
> <PUBCHEM_IUPAC_OPENEYE_NAME>
methyl 7-[hydroxy-[(4S)-5-[(1S)-3-[(1-hydroxy-2-oxo-azepan-3-yl)amino]-1-methyl-3-oxo-propoxy]-4-[[(4S)-2-(2-hydroxyphenyl)-4,5-dihydrooxazole-4-carbonyl]amino]-5-oxo-pentyl]amino]-7-oxo-heptanoate
> <PUBCHEM_IUPAC_CAS_NAME>
7-[hydroxy-[(4S)-5-[(2S)-4-[(1-hydroxy-2-oxo-3-azepanyl)amino]-4-oxobutan-2-yl]oxy-4-[[[(4S)-2-(2-hydroxyphenyl)-4,5-dihydrooxazol-4-yl]-oxomethyl]amino]-5-oxopentyl]amino]-7-oxoheptanoic acid methyl ester
> <PUBCHEM_IUPAC_NAME_MARKUP>
methyl 7-[hydroxy-[(4<I>S</I>)-5-[(2<I>S</I>)-4-[(1-hydroxy-2-oxoazepan-3-yl)amino]-4-oxobutan-2-yl]oxy-4-[[(4<I>S</I>)-2-(2-hydroxyphenyl)-4,5-dihydro-1,3-oxazole-4-carbonyl]amino]-5-oxopentyl]amino]-7-oxoheptanoate
> <PUBCHEM_IUPAC_NAME>
methyl 7-[hydroxy-[(4S)-5-[(2S)-4-[(1-hydroxy-2-oxoazepan-3-yl)amino]-4-oxobutan-2-yl]oxy-4-[[(4S)-2-(2-hydroxyphenyl)-4,5-dihydro-1,3-oxazole-4-carbonyl]amino]-5-oxopentyl]amino]-7-oxoheptanoate
> <PUBCHEM_IUPAC_SYSTEMATIC_NAME>
methyl 7-[[(4S)-4-[[(4S)-2-(2-hydroxyphenyl)-4,5-dihydro-1,3-oxazol-4-yl]carbonylamino]-5-oxidanylidene-5-[(2S)-4-oxidanylidene-4-[(1-oxidanyl-2-oxidanylidene-azepan-3-yl)amino]butan-2-yl]oxy-pentyl]-oxidanyl-amino]-7-oxidanylidene-heptanoate
> <PUBCHEM_IUPAC_TRADITIONAL_NAME>
7-[hydroxy-[(4S)-5-[(1S)-3-[(1-hydroxy-2-keto-azepan-3-yl)amino]-3-keto-1-methyl-propoxy]-4-[[(4S)-2-(2-hydroxyphenyl)-2-oxazoline-4-carbonyl]amino]-5-keto-pentyl]amino]-7-keto-enanthic acid methyl ester
> <PUBCHEM_IUPAC_INCHI>
InChI=1S/C33H47N5O12/c1-21(19-27(40)34-23-12-8-9-17-38(47)32(23)44)50-33(45)24(13-10-18-37(46)28(41)15-4-3-5-16-29(42)48-2)35-30(43)25-20-49-31(36-25)22-11-6-7-14-26(22)39/h6-7,11,14,21,23-25,39,46-47H,3-5,8-10,12-13,15-20H2,1-2H3,(H,34,40)(H,35,43)/t21-,23?,24-,25-/m0/s1
> <PUBCHEM_IUPAC_INCHIKEY>
GBIJTFIGIHEXIU-ANQDZAAWSA-N
> <PUBCHEM_XLOGP3_AA>
0.9
> <PUBCHEM_EXACT_MASS>
705.32212195
> <PUBCHEM_MOLECULAR_FORMULA>
C33H47N5O12
> <PUBCHEM_MOLECULAR_WEIGHT>
705.8
> <PUBCHEM_OPENEYE_CAN_SMILES>
CC(CC(=O)NC1CCCCN(C1=O)O)OC(=O)C(CCCN(C(=O)CCCCCC(=O)OC)O)NC(=O)C2COC(=N2)C3=CC=CC=C3O
> <PUBCHEM_OPENEYE_ISO_SMILES>
C[C@@H](CC(=O)NC1CCCCN(C1=O)O)OC(=O)[C@H](CCCN(C(=O)CCCCCC(=O)OC)O)NC(=O)[C@@H]2COC(=N2)C3=CC=CC=C3O
> <PUBCHEM_CACTVS_TPSA>
234
> <PUBCHEM_MONOISOTOPIC_WEIGHT>
705.32212195
> <PUBCHEM_TOTAL_CHARGE>
0
> <PUBCHEM_HEAVY_ATOM_COUNT>
50
> <PUBCHEM_ATOM_DEF_STEREO_COUNT>
3
> <PUBCHEM_ATOM_UDEF_STEREO_COUNT>
1
> <PUBCHEM_BOND_DEF_STEREO_COUNT>
0
> <PUBCHEM_BOND_UDEF_STEREO_COUNT>
0
> <PUBCHEM_ISOTOPIC_ATOM_COUNT>
0
> <PUBCHEM_COMPONENT_COUNT>
1
> <PUBCHEM_CACTVS_TAUTO_COUNT>
-1
> <PUBCHEM_COORDINATE_TYPE>
1
5
255
> <PUBCHEM_BONDANNOTATIONS>
29  1  5
18  14  3
24  15  6
32  34  6
43  45  8
43  46  8
45  47  8
46  48  8
47  49  8
48  49  8
$$$$
