509200
  -OEChem-10302200282D
100103  0     1  0  0  0  0  0999 V2000
    6.5763    6.2801    0.0000 F   0  0  0  0  0  0  0  0  0  0  0  0
    5.0298    2.0763    0.0000 O   0  0  0  0  0  0  0  0  0  0  0  0
    5.3086    0.3162    0.0000 O   0  0  0  0  0  0  0  0  0  0  0  0
    7.6640    4.3960    0.0000 O   0  0  0  0  0  0  0  0  0  0  0  0
    2.4608    2.3853    0.0000 O   0  0  0  0  0  0  0  0  0  0  0  0
    6.4897   -1.4064    0.0000 O   0  0  0  0  0  0  0  0  0  0  0  0
    3.1330    0.3162    0.0000 O   0  0  0  0  0  0  0  0  0  0  0  0
    7.7497   -2.6664    0.0000 O   0  0  0  0  0  0  0  0  0  0  0  0
    7.1594    2.4702    0.0000 O   0  0  0  0  0  0  0  0  0  0  0  0
    9.7177   -3.3658    0.0000 O   0  0  0  0  0  0  0  0  0  0  0  0
    4.2296   -2.6664    0.0000 O   0  0  0  0  0  0  0  0  0  0  0  0
    5.9897   -3.9452    0.0000 O   0  0  0  0  0  0  0  0  0  0  0  0
   11.4778   -3.6446    0.0000 O   0  0  0  0  0  0  0  0  0  0  0  0
    8.6299   -5.7137    0.0000 O   0  0  0  0  0  0  0  0  0  0  0  0
   10.8055   -5.7137    0.0000 O   0  0  0  0  0  0  0  0  0  0  0  0
   17.2726    2.7913    0.0000 O   0  0  0  0  0  0  0  0  0  0  0  0
   15.5784    3.1514    0.0000 O   0  0  0  0  0  0  0  0  0  0  0  0
    5.0868    4.1641    0.0000 N   0  0  3  0  0  0  0  0  0  0  0  0
    6.0004    3.7573    0.0000 C   0  0  1  0  0  0  0  0  0  0  0  0
    4.2208    2.6641    0.0000 C   0  0  2  0  0  0  0  0  0  0  0  0
    4.2208    3.6641    0.0000 C   0  0  0  0  0  0  0  0  0  0  0  0
    6.6695    4.5005    0.0000 C   0  0  2  0  0  0  0  0  0  0  0  0
    5.1914    5.1586    0.0000 C   0  0  0  0  0  0  0  0  0  0  0  0
    6.1695    5.3665    0.0000 C   0  0  1  0  0  0  0  0  0  0  0  0
    3.4118    2.0763    0.0000 C   0  0  2  0  0  0  0  0  0  0  0  0
    3.7208    1.1252    0.0000 C   0  0  1  0  0  0  0  0  0  0  0  0
    4.7208    1.1252    0.0000 C   0  0  2  0  0  0  0  0  0  0  0  0
    6.2083    2.7792    0.0000 C   0  0  0  0  0  0  0  0  0  0  0  0
    5.4897   -1.4064    0.0000 C   0  0  1  0  0  0  0  0  0  0  0  0
    5.1806   -2.3574    0.0000 C   0  0  2  0  0  0  0  0  0  0  0  0
    4.9019   -0.5973    0.0000 C   0  0  0  0  0  0  0  0  0  0  0  0
    5.9897   -2.9452    0.0000 C   0  0  1  0  0  0  0  0  0  0  0  0
    6.7987   -2.3574    0.0000 C   0  0  2  0  0  0  0  0  0  0  0  0
    8.9087   -3.9536    0.0000 C   0  0  1  0  0  0  0  0  0  0  0  0
    9.2177   -4.9046    0.0000 C   0  0  2  0  0  0  0  0  0  0  0  0
   10.2177   -4.9046    0.0000 C   0  0  1  0  0  0  0  0  0  0  0  0
    7.9576   -3.6446    0.0000 C   0  0  0  0  0  0  0  0  0  0  0  0
   10.5267   -3.9536    0.0000 C   0  0  2  0  0  0  0  0  0  0  0  0
   11.6857   -2.6664    0.0000 C   0  0  0  0  0  0  0  0  0  0  0  0
   12.6368   -2.3574    0.0000 C   0  0  0  0  0  0  0  0  0  0  0  0
   12.8447   -1.3792    0.0000 C   0  0  0  0  0  0  0  0  0  0  0  0
   13.7957   -1.0702    0.0000 C   0  0  0  0  0  0  0  0  0  0  0  0
   14.0036   -0.0921    0.0000 C   0  0  0  0  0  0  0  0  0  0  0  0
   14.9547    0.2169    0.0000 C   0  0  0  0  0  0  0  0  0  0  0  0
   15.1626    1.1951    0.0000 C   0  0  0  0  0  0  0  0  0  0  0  0
   16.1137    1.5041    0.0000 C   0  0  0  0  0  0  0  0  0  0  0  0
   16.3216    2.4822    0.0000 C   0  0  0  0  0  0  0  0  0  0  0  0
   17.4805    3.7694    0.0000 C   0  0  0  0  0  0  0  0  0  0  0  0
    5.5186    3.3672    0.0000 H   0  0  0  0  0  0  0  0  0  0  0  0
    4.7732    2.9456    0.0000 H   0  0  0  0  0  0  0  0  0  0  0  0
    4.0088    4.2467    0.0000 H   0  0  0  0  0  0  0  0  0  0  0  0
    3.6102    3.5564    0.0000 H   0  0  0  0  0  0  0  0  0  0  0  0
    7.0072    5.0205    0.0000 H   0  0  0  0  0  0  0  0  0  0  0  0
    5.1266    5.7752    0.0000 H   0  0  0  0  0  0  0  0  0  0  0  0
    4.5714    5.1586    0.0000 H   0  0  0  0  0  0  0  0  0  0  0  0
    5.7794    5.8483    0.0000 H   0  0  0  0  0  0  0  0  0  0  0  0
    3.3148    2.6887    0.0000 H   0  0  0  0  0  0  0  0  0  0  0  0
    3.1085    1.2222    0.0000 H   0  0  0  0  0  0  0  0  0  0  0  0
    4.4394    0.5728    0.0000 H   0  0  0  0  0  0  0  0  0  0  0  0
    5.5887    2.7576    0.0000 H   0  0  0  0  0  0  0  0  0  0  0  0
    6.1220    2.1652    0.0000 H   0  0  0  0  0  0  0  0  0  0  0  0
    5.7711   -0.8539    0.0000 H   0  0  0  0  0  0  0  0  0  0  0  0
    4.7422   -1.9190    0.0000 H   0  0  0  0  0  0  0  0  0  0  0  0
    4.3879   -0.2506    0.0000 H   0  0  0  0  0  0  0  0  0  0  0  0
    4.4712   -1.0433    0.0000 H   0  0  0  0  0  0  0  0  0  0  0  0
    5.4372   -3.2267    0.0000 H   0  0  0  0  0  0  0  0  0  0  0  0
    6.8957   -2.9698    0.0000 H   0  0  0  0  0  0  0  0  0  0  0  0
    8.0285    4.8976    0.0000 H   0  0  0  0  0  0  0  0  0  0  0  0
    2.0000    1.9704    0.0000 H   0  0  0  0  0  0  0  0  0  0  0  0
    8.8117   -3.3412    0.0000 H   0  0  0  0  0  0  0  0  0  0  0  0
    2.5164    0.3810    0.0000 H   0  0  0  0  0  0  0  0  0  0  0  0
    8.6054   -4.8076    0.0000 H   0  0  0  0  0  0  0  0  0  0  0  0
    9.9362   -5.4571    0.0000 H   0  0  0  0  0  0  0  0  0  0  0  0
    7.3380   -3.6662    0.0000 H   0  0  0  0  0  0  0  0  0  0  0  0
    7.8714   -4.2585    0.0000 H   0  0  0  0  0  0  0  0  0  0  0  0
   10.9651   -4.3920    0.0000 H   0  0  0  0  0  0  0  0  0  0  0  0
    7.2883    1.8637    0.0000 H   0  0  0  0  0  0  0  0  0  0  0  0
    3.7688   -2.2516    0.0000 H   0  0  0  0  0  0  0  0  0  0  0  0
    5.4527   -4.2552    0.0000 H   0  0  0  0  0  0  0  0  0  0  0  0
    8.8821   -6.2801    0.0000 H   0  0  0  0  0  0  0  0  0  0  0  0
   11.4221   -5.6489    0.0000 H   0  0  0  0  0  0  0  0  0  0  0  0
   11.5994   -2.0524    0.0000 H   0  0  0  0  0  0  0  0  0  0  0  0
   11.0661   -2.6448    0.0000 H   0  0  0  0  0  0  0  0  0  0  0  0
   12.7230   -2.9714    0.0000 H   0  0  0  0  0  0  0  0  0  0  0  0
   13.2564   -2.3790    0.0000 H   0  0  0  0  0  0  0  0  0  0  0  0
   12.7584   -0.7653    0.0000 H   0  0  0  0  0  0  0  0  0  0  0  0
   12.2250   -1.3576    0.0000 H   0  0  0  0  0  0  0  0  0  0  0  0
   13.8820   -1.6842    0.0000 H   0  0  0  0  0  0  0  0  0  0  0  0
   14.4153   -1.0919    0.0000 H   0  0  0  0  0  0  0  0  0  0  0  0
   13.9173    0.5219    0.0000 H   0  0  0  0  0  0  0  0  0  0  0  0
   13.3840   -0.0705    0.0000 H   0  0  0  0  0  0  0  0  0  0  0  0
   15.0410   -0.3970    0.0000 H   0  0  0  0  0  0  0  0  0  0  0  0
   15.5743    0.1953    0.0000 H   0  0  0  0  0  0  0  0  0  0  0  0
   15.0763    1.8090    0.0000 H   0  0  0  0  0  0  0  0  0  0  0  0
   14.5430    1.2167    0.0000 H   0  0  0  0  0  0  0  0  0  0  0  0
   16.1999    0.8901    0.0000 H   0  0  0  0  0  0  0  0  0  0  0  0
   16.7333    1.4824    0.0000 H   0  0  0  0  0  0  0  0  0  0  0  0
   18.0870    3.6405    0.0000 H   0  0  0  0  0  0  0  0  0  0  0  0
   17.6094    4.3759    0.0000 H   0  0  0  0  0  0  0  0  0  0  0  0
   16.8741    3.8983    0.0000 H   0  0  0  0  0  0  0  0  0  0  0  0
 24  1  1  1  0  0  0
  2 20  1  0  0  0  0
  2 27  1  0  0  0  0
 27  3  1  6  0  0  0
  3 31  1  0  0  0  0
 22  4  1  6  0  0  0
  4 68  1  0  0  0  0
 25  5  1  6  0  0  0
  5 69  1  0  0  0  0
  6 29  1  0  0  0  0
  6 33  1  0  0  0  0
 26  7  1  1  0  0  0
  7 71  1  0  0  0  0
 33  8  1  6  0  0  0
  8 37  1  0  0  0  0
  9 28  1  0  0  0  0
  9 77  1  0  0  0  0
 10 34  1  0  0  0  0
 10 38  1  0  0  0  0
 30 11  1  6  0  0  0
 11 78  1  0  0  0  0
 32 12  1  1  0  0  0
 12 79  1  0  0  0  0
 38 13  1  6  0  0  0
 13 39  1  0  0  0  0
 35 14  1  6  0  0  0
 14 80  1  0  0  0  0
 36 15  1  1  0  0  0
 15 81  1  0  0  0  0
 16 47  1  0  0  0  0
 16 48  1  0  0  0  0
 17 47  2  0  0  0  0
 18 19  1  0  0  0  0
 18 21  1  0  0  0  0
 18 23  1  0  0  0  0
 19 22  1  0  0  0  0
 19 28  1  1  0  0  0
 19 49  1  0  0  0  0
 20 21  1  1  0  0  0
 20 25  1  0  0  0  0
 20 50  1  0  0  0  0
 21 51  1  0  0  0  0
 21 52  1  0  0  0  0
 22 24  1  0  0  0  0
 22 53  1  0  0  0  0
 23 24  1  0  0  0  0
 23 54  1  0  0  0  0
 23 55  1  0  0  0  0
 24 56  1  0  0  0  0
 25 26  1  0  0  0  0
 25 57  1  0  0  0  0
 26 27  1  0  0  0  0
 26 58  1  0  0  0  0
 27 59  1  0  0  0  0
 28 60  1  0  0  0  0
 28 61  1  0  0  0  0
 29 30  1  0  0  0  0
 29 31  1  1  0  0  0
 29 62  1  0  0  0  0
 30 32  1  0  0  0  0
 30 63  1  0  0  0  0
 31 64  1  0  0  0  0
 31 65  1  0  0  0  0
 32 33  1  0  0  0  0
 32 66  1  0  0  0  0
 33 67  1  0  0  0  0
 34 35  1  0  0  0  0
 34 37  1  1  0  0  0
 34 70  1  0  0  0  0
 35 36  1  0  0  0  0
 35 72  1  0  0  0  0
 36 38  1  0  0  0  0
 36 73  1  0  0  0  0
 37 74  1  0  0  0  0
 37 75  1  0  0  0  0
 38 76  1  0  0  0  0
 39 40  1  0  0  0  0
 39 82  1  0  0  0  0
 39 83  1  0  0  0  0
 40 41  1  0  0  0  0
 40 84  1  0  0  0  0
 40 85  1  0  0  0  0
 41 42  1  0  0  0  0
 41 86  1  0  0  0  0
 41 87  1  0  0  0  0
 42 43  1  0  0  0  0
 42 88  1  0  0  0  0
 42 89  1  0  0  0  0
 43 44  1  0  0  0  0
 43 90  1  0  0  0  0
 43 91  1  0  0  0  0
 44 45  1  0  0  0  0
 44 92  1  0  0  0  0
 44 93  1  0  0  0  0
 45 46  1  0  0  0  0
 45 94  1  0  0  0  0
 45 95  1  0  0  0  0
 46 47  1  0  0  0  0
 46 96  1  0  0  0  0
 46 97  1  0  0  0  0
 48 98  1  0  0  0  0
 48 99  1  0  0  0  0
 48100  1  0  0  0  0
M  END
> <PUBCHEM_COMPOUND_CID>
509200
> <PUBCHEM_COMPOUND_CANONICALIZED>
1
> <PUBCHEM_CACTVS_COMPLEXITY>
972
> <PUBCHEM_CACTVS_HBOND_ACCEPTOR>
18
> <PUBCHEM_CACTVS_HBOND_DONOR>
8
> <PUBCHEM_CACTVS_ROTATABLE_BOND>
20
> <PUBCHEM_CACTVS_SUBSKEYS>
AAADcfB6PwAAAAAAAAAAAAAAAAAAAWJEiQAAAAAAAAAAAAAAAAAAHwAACAAACDzxgAcCCAMABgAIAACQCAAAAAAAAAAAAAEIAAATEBIAgAAnQAAHAACXAAH4+KqAAAAAAAAAAAAAAAAAAAAAAAAAAAAAAA==
> <PUBCHEM_IUPAC_OPENEYE_NAME>
methyl 9-[(2S,3S,4S,5R)-5-[[(2S,3S,4S,5R)-5-[[(2S,3S,4S,5R)-5-[[(2R,3R,4R)-4-fluoro-3-hydroxy-2-(hydroxymethyl)pyrrolidin-1-yl]methyl]-3,4-dihydroxy-tetrahydrofuran-2-yl]oxymethyl]-3,4-dihydroxy-tetrahydrofuran-2-yl]oxymethyl]-3,4-dihydroxy-tetrahydrofuran-2-yl]oxynonanoate
> <PUBCHEM_IUPAC_CAS_NAME>
9-[[(2S,3S,4S,5R)-5-[[(2S,3S,4S,5R)-5-[[(2S,3S,4S,5R)-5-[[(2R,3R,4R)-4-fluoro-3-hydroxy-2-(hydroxymethyl)-1-pyrrolidinyl]methyl]-3,4-dihydroxy-2-oxolanyl]oxymethyl]-3,4-dihydroxy-2-oxolanyl]oxymethyl]-3,4-dihydroxy-2-oxolanyl]oxy]nonanoic acid methyl ester
> <PUBCHEM_IUPAC_NAME_MARKUP>
methyl 9-[(2<I>S</I>,3<I>S</I>,4<I>S</I>,5<I>R</I>)-5-[[(2<I>S</I>,3<I>S</I>,4<I>S</I>,5<I>R</I>)-5-[[(2<I>S</I>,3<I>S</I>,4<I>S</I>,5<I>R</I>)-5-[[(2<I>R</I>,3<I>R</I>,4<I>R</I>)-4-fluoro-3-hydroxy-2-(hydroxymethyl)pyrrolidin-1-yl]methyl]-3,4-dihydroxyoxolan-2-yl]oxymethyl]-3,4-dihydroxyoxolan-2-yl]oxymethyl]-3,4-dihydroxyoxolan-2-yl]oxynonanoate
> <PUBCHEM_IUPAC_NAME>
methyl 9-[(2S,3S,4S,5R)-5-[[(2S,3S,4S,5R)-5-[[(2S,3S,4S,5R)-5-[[(2R,3R,4R)-4-fluoro-3-hydroxy-2-(hydroxymethyl)pyrrolidin-1-yl]methyl]-3,4-dihydroxyoxolan-2-yl]oxymethyl]-3,4-dihydroxyoxolan-2-yl]oxymethyl]-3,4-dihydroxyoxolan-2-yl]oxynonanoate
> <PUBCHEM_IUPAC_SYSTEMATIC_NAME>
methyl 9-[(2S,3S,4S,5R)-5-[[(2S,3S,4S,5R)-5-[[(2S,3S,4S,5R)-5-[[(2R,3R,4R)-4-fluoranyl-2-(hydroxymethyl)-3-oxidanyl-pyrrolidin-1-yl]methyl]-3,4-bis(oxidanyl)oxolan-2-yl]oxymethyl]-3,4-bis(oxidanyl)oxolan-2-yl]oxymethyl]-3,4-bis(oxidanyl)oxolan-2-yl]oxynonanoate
> <PUBCHEM_IUPAC_TRADITIONAL_NAME>
9-[(2S,3S,4S,5R)-5-[[(2S,3S,4S,5R)-5-[[(2S,3S,4S,5R)-5-[[(2R,3R,4R)-4-fluoro-3-hydroxy-2-methylol-pyrrolidino]methyl]-3,4-dihydroxy-tetrahydrofuran-2-yl]oxymethyl]-3,4-dihydroxy-tetrahydrofuran-2-yl]oxymethyl]-3,4-dihydroxy-tetrahydrofuran-2-yl]oxypelargonic acid methyl ester
> <PUBCHEM_IUPAC_INCHI>
InChI=1S/C30H52FNO16/c1-42-20(34)8-6-4-2-3-5-7-9-43-28-26(40)23(37)18(47-28)13-45-30-27(41)24(38)19(48-30)14-44-29-25(39)22(36)17(46-29)11-32-10-15(31)21(35)16(32)12-33/h15-19,21-30,33,35-41H,2-14H2,1H3/t15-,16-,17-,18-,19-,21+,22-,23-,24-,25+,26+,27+,28+,29+,30+/m1/s1
> <PUBCHEM_IUPAC_INCHIKEY>
PTCZBPLZAPVAMS-MPVWAFABSA-N
> <PUBCHEM_XLOGP3_AA>
-2.3
> <PUBCHEM_EXACT_MASS>
701.32701273
> <PUBCHEM_MOLECULAR_FORMULA>
C30H52FNO16
> <PUBCHEM_MOLECULAR_WEIGHT>
701.7
> <PUBCHEM_OPENEYE_CAN_SMILES>
COC(=O)CCCCCCCCOC1C(C(C(O1)COC2C(C(C(O2)COC3C(C(C(O3)CN4CC(C(C4CO)O)F)O)O)O)O)O)O
> <PUBCHEM_OPENEYE_ISO_SMILES>
COC(=O)CCCCCCCCO[C@@H]1[C@H]([C@@H]([C@H](O1)CO[C@@H]2[C@H]([C@@H]([C@H](O2)CO[C@@H]3[C@H]([C@@H]([C@H](O3)CN4C[C@H]([C@@H]([C@H]4CO)O)F)O)O)O)O)O)O
> <PUBCHEM_CACTVS_TPSA>
247
> <PUBCHEM_MONOISOTOPIC_WEIGHT>
701.32701273
> <PUBCHEM_TOTAL_CHARGE>
0
> <PUBCHEM_HEAVY_ATOM_COUNT>
48
> <PUBCHEM_ATOM_DEF_STEREO_COUNT>
15
> <PUBCHEM_ATOM_UDEF_STEREO_COUNT>
0
> <PUBCHEM_BOND_DEF_STEREO_COUNT>
0
> <PUBCHEM_BOND_UDEF_STEREO_COUNT>
0
> <PUBCHEM_ISOTOPIC_ATOM_COUNT>
0
> <PUBCHEM_COMPONENT_COUNT>
1
> <PUBCHEM_CACTVS_TAUTO_COUNT>
-1
> <PUBCHEM_COORDINATE_TYPE>
1
5
255
> <PUBCHEM_BONDANNOTATIONS>
24  1  5
30  11  6
32  12  5
38  13  6
35  14  6
36  15  5
19  28  5
20  21  5
29  31  5
27  3  6
34  37  5
22  4  6
25  5  6
26  7  5
33  8  6
$$$$
