509318
  -OEChem-10302200282D
 43 47  0     1  0  0  0  0  0999 V2000
    6.5239   -0.0156    0.0000 S   0  0  0  0  0  0  0  0  0  0  0  0
   12.4884   -2.0101    0.0000 O   0  0  0  0  0  0  0  0  0  0  0  0
    8.3605   -0.0101    0.0000 O   0  0  0  0  0  0  0  0  0  0  0  0
   12.2154   -0.2548    0.0000 O   0  0  0  0  0  0  0  0  0  0  0  0
   12.2154   -3.7653    0.0000 O   0  0  0  0  0  0  0  0  0  0  0  0
    5.1390    1.1059    0.0000 N   0  0  0  0  0  0  0  0  0  0  0  0
    5.0458   -0.6737    0.0000 N   0  0  0  0  0  0  0  0  0  0  0  0
    5.7149   -1.4168    0.0000 N   0  0  0  0  0  0  0  0  0  0  0  0
    7.4945   -1.5101    0.0000 N   0  0  0  0  0  0  0  0  0  0  0  0
    4.1445    1.2104    0.0000 C   0  0  3  0  0  0  0  0  0  0  0  0
    3.4800    0.4711    0.0000 C   0  0  0  0  0  0  0  0  0  0  0  0
    2.5708    0.8731    0.0000 C   0  0  0  0  0  0  0  0  0  0  0  0
    3.6482    2.0718    0.0000 C   0  0  0  0  0  0  0  0  0  0  0  0
    2.6704    1.8622    0.0000 C   0  0  0  0  0  0  0  0  0  0  0  0
    3.9556    3.0234    0.0000 C   0  0  0  0  0  0  0  0  0  0  0  0
    2.0000    2.6041    0.0000 C   0  0  0  0  0  0  0  0  0  0  0  0
    3.2852    3.7653    0.0000 C   0  0  0  0  0  0  0  0  0  0  0  0
    2.3074    3.5557    0.0000 C   0  0  0  0  0  0  0  0  0  0  0  0
    5.5458    0.1924    0.0000 C   0  0  0  0  0  0  0  0  0  0  0  0
    6.6284   -1.0101    0.0000 C   0  0  0  0  0  0  0  0  0  0  0  0
   10.9586   -1.5101    0.0000 C   0  0  0  0  0  0  0  0  0  0  0  0
    9.2265   -1.5101    0.0000 C   0  0  0  0  0  0  0  0  0  0  0  0
   10.9586   -2.5101    0.0000 C   0  0  0  0  0  0  0  0  0  0  0  0
   10.0925   -1.0101    0.0000 C   0  0  0  0  0  0  0  0  0  0  0  0
    8.3605   -1.0101    0.0000 C   0  0  0  0  0  0  0  0  0  0  0  0
    9.2265   -2.5101    0.0000 C   0  0  0  0  0  0  0  0  0  0  0  0
   10.0925   -3.0101    0.0000 C   0  0  0  0  0  0  0  0  0  0  0  0
   11.9048   -1.2054    0.0000 C   0  0  0  0  0  0  0  0  0  0  0  0
   11.9048   -2.8148    0.0000 C   0  0  0  0  0  0  0  0  0  0  0  0
    4.4824    1.7303    0.0000 H   0  0  0  0  0  0  0  0  0  0  0  0
    3.1710   -0.0665    0.0000 H   0  0  0  0  0  0  0  0  0  0  0  0
    3.9821    0.1074    0.0000 H   0  0  0  0  0  0  0  0  0  0  0  0
    1.9638    0.9997    0.0000 H   0  0  0  0  0  0  0  0  0  0  0  0
    2.3811    0.2828    0.0000 H   0  0  0  0  0  0  0  0  0  0  0  0
    5.5034    1.6075    0.0000 H   0  0  0  0  0  0  0  0  0  0  0  0
    4.5618    3.1533    0.0000 H   0  0  0  0  0  0  0  0  0  0  0  0
    1.3938    2.4742    0.0000 H   0  0  0  0  0  0  0  0  0  0  0  0
    3.4757    4.3553    0.0000 H   0  0  0  0  0  0  0  0  0  0  0  0
    1.8917    4.0158    0.0000 H   0  0  0  0  0  0  0  0  0  0  0  0
   10.0925   -0.3901    0.0000 H   0  0  0  0  0  0  0  0  0  0  0  0
    7.4945   -2.1301    0.0000 H   0  0  0  0  0  0  0  0  0  0  0  0
    8.6896   -2.8201    0.0000 H   0  0  0  0  0  0  0  0  0  0  0  0
   10.0925   -3.6301    0.0000 H   0  0  0  0  0  0  0  0  0  0  0  0
  1 19  1  0  0  0  0
  1 20  1  0  0  0  0
  2 28  1  0  0  0  0
  2 29  1  0  0  0  0
  3 25  2  0  0  0  0
  4 28  2  0  0  0  0
  5 29  2  0  0  0  0
  6 10  1  0  0  0  0
  6 19  1  0  0  0  0
  6 35  1  0  0  0  0
  7  8  1  0  0  0  0
  7 19  2  0  0  0  0
  8 20  2  0  0  0  0
  9 20  1  0  0  0  0
  9 25  1  0  0  0  0
  9 41  1  0  0  0  0
 10 11  1  0  0  0  0
 10 13  1  0  0  0  0
 10 30  1  0  0  0  0
 11 12  1  0  0  0  0
 11 31  1  0  0  0  0
 11 32  1  0  0  0  0
 12 14  1  0  0  0  0
 12 33  1  0  0  0  0
 12 34  1  0  0  0  0
 13 14  1  0  0  0  0
 13 15  2  0  0  0  0
 14 16  2  0  0  0  0
 15 17  1  0  0  0  0
 15 36  1  0  0  0  0
 16 18  1  0  0  0  0
 16 37  1  0  0  0  0
 17 18  2  0  0  0  0
 17 38  1  0  0  0  0
 18 39  1  0  0  0  0
 21 23  2  0  0  0  0
 21 24  1  0  0  0  0
 21 28  1  0  0  0  0
 22 24  2  0  0  0  0
 22 25  1  0  0  0  0
 22 26  1  0  0  0  0
 23 27  1  0  0  0  0
 23 29  1  0  0  0  0
 24 40  1  0  0  0  0
 26 27  2  0  0  0  0
 26 42  1  0  0  0  0
 27 43  1  0  0  0  0
M  END
> <PUBCHEM_COMPOUND_CID>
509318
> <PUBCHEM_COMPOUND_CANONICALIZED>
1
> <PUBCHEM_CACTVS_COMPLEXITY>
691
> <PUBCHEM_CACTVS_HBOND_ACCEPTOR>
8
> <PUBCHEM_CACTVS_HBOND_DONOR>
2
> <PUBCHEM_CACTVS_ROTATABLE_BOND>
4
> <PUBCHEM_CACTVS_SUBSKEYS>
AAADccB7uABAAAAAAAAAAAAAAAAAAeJEAAAwYAAAAAAAAGgB0AAAHgQYAAAADCjBmAQxGILABAiuAiHSOACSAAJkAAkNiIEIDMiIJjKAvRmGMQh00QMIqYeb3/KOwAACAAAQAACAAAQAACAAACAACQAAAA==
> <PUBCHEM_IUPAC_OPENEYE_NAME>
N-[5-(indan-1-ylamino)-1,3,4-thiadiazol-2-yl]-1,3-dioxo-isobenzofuran-5-carboxamide
> <PUBCHEM_IUPAC_CAS_NAME>
N-[5-(2,3-dihydro-1H-inden-1-ylamino)-1,3,4-thiadiazol-2-yl]-1,3-dioxo-5-isobenzofurancarboxamide
> <PUBCHEM_IUPAC_NAME_MARKUP>
<I>N</I>-[5-(2,3-dihydro-1<I>H</I>-inden-1-ylamino)-1,3,4-thiadiazol-2-yl]-1,3-dioxo-2-benzofuran-5-carboxamide
> <PUBCHEM_IUPAC_NAME>
N-[5-(2,3-dihydro-1H-inden-1-ylamino)-1,3,4-thiadiazol-2-yl]-1,3-dioxo-2-benzofuran-5-carboxamide
> <PUBCHEM_IUPAC_SYSTEMATIC_NAME>
N-[5-(2,3-dihydro-1H-inden-1-ylamino)-1,3,4-thiadiazol-2-yl]-1,3-bis(oxidanylidene)-2-benzofuran-5-carboxamide
> <PUBCHEM_IUPAC_TRADITIONAL_NAME>
N-[5-(indan-1-ylamino)-1,3,4-thiadiazol-2-yl]-1,3-diketo-phthalan-5-carboxamide
> <PUBCHEM_IUPAC_INCHI>
InChI=1S/C20H14N4O4S/c25-16(11-5-7-13-14(9-11)18(27)28-17(13)26)22-20-24-23-19(29-20)21-15-8-6-10-3-1-2-4-12(10)15/h1-5,7,9,15H,6,8H2,(H,21,23)(H,22,24,25)
> <PUBCHEM_IUPAC_INCHIKEY>
CPSBTESIKKIBMT-UHFFFAOYSA-N
> <PUBCHEM_XLOGP3_AA>
3.1
> <PUBCHEM_EXACT_MASS>
406.07357611
> <PUBCHEM_MOLECULAR_FORMULA>
C20H14N4O4S
> <PUBCHEM_MOLECULAR_WEIGHT>
406.4
> <PUBCHEM_OPENEYE_CAN_SMILES>
C1CC2=CC=CC=C2C1NC3=NN=C(S3)NC(=O)C4=CC5=C(C=C4)C(=O)OC5=O
> <PUBCHEM_OPENEYE_ISO_SMILES>
C1CC2=CC=CC=C2C1NC3=NN=C(S3)NC(=O)C4=CC5=C(C=C4)C(=O)OC5=O
> <PUBCHEM_CACTVS_TPSA>
139
> <PUBCHEM_MONOISOTOPIC_WEIGHT>
406.07357611
> <PUBCHEM_TOTAL_CHARGE>
0
> <PUBCHEM_HEAVY_ATOM_COUNT>
29
> <PUBCHEM_ATOM_DEF_STEREO_COUNT>
0
> <PUBCHEM_ATOM_UDEF_STEREO_COUNT>
1
> <PUBCHEM_BOND_DEF_STEREO_COUNT>
0
> <PUBCHEM_BOND_UDEF_STEREO_COUNT>
0
> <PUBCHEM_ISOTOPIC_ATOM_COUNT>
0
> <PUBCHEM_COMPONENT_COUNT>
1
> <PUBCHEM_CACTVS_TAUTO_COUNT>
-1
> <PUBCHEM_COORDINATE_TYPE>
1
5
255
> <PUBCHEM_BONDANNOTATIONS>
1  19  8
1  20  8
13  14  8
13  15  8
14  16  8
15  17  8
16  18  8
17  18  8
21  23  8
21  24  8
22  24  8
22  26  8
23  27  8
26  27  8
10  6  3
7  19  8
7  8  8
8  20  8
$$$$
