509302
  -OEChem-10302200282D
 53 56  0     1  0  0  0  0  0999 V2000
    4.7715   -0.3671    0.0000 S   0  0  0  0  0  0  0  0  0  0  0  0
    5.9903   -3.1044    0.0000 O   0  0  0  0  0  0  0  0  0  0  0  0
    2.9976   -2.8951    0.0000 O   0  0  0  0  0  0  0  0  0  0  0  0
    5.5246    1.2480    0.0000 N   0  0  0  0  0  0  0  0  0  0  0  0
    6.3885   -0.3106    0.0000 N   0  0  0  0  0  0  0  0  0  0  0  0
    6.1129   -1.2719    0.0000 N   0  0  0  0  0  0  0  0  0  0  0  0
    4.5543   -2.1358    0.0000 N   0  0  0  0  0  0  0  0  0  0  0  0
    8.9577    3.6518    0.0000 C   0  0  0  0  0  0  0  0  0  0  0  0
    7.5588    3.6429    0.0000 C   0  0  3  0  0  0  0  0  0  0  0  0
    7.8176    4.6089    0.0000 C   0  0  3  0  0  0  0  0  0  0  0  0
    7.0810    5.5915    0.0000 C   0  0  0  0  0  0  0  0  0  0  0  0
    6.3378    2.7773    0.0000 C   0  0  1  0  0  0  0  0  0  0  0  0
    5.7844    4.2977    0.0000 C   0  0  0  0  0  0  0  0  0  0  0  0
    5.5087    3.3365    0.0000 C   0  0  0  0  0  0  0  0  0  0  0  0
    9.4577    2.7857    0.0000 C   0  0  0  0  0  0  0  0  0  0  0  0
    9.8237    4.1518    0.0000 C   0  0  0  0  0  0  0  0  0  0  0  0
    6.3726    1.7779    0.0000 C   0  0  0  0  0  0  0  0  0  0  0  0
    5.5595    0.2486    0.0000 C   0  0  0  0  0  0  0  0  0  0  0  0
    5.1135   -1.3068    0.0000 C   0  0  0  0  0  0  0  0  0  0  0  0
    4.9927   -3.0346    0.0000 C   0  0  0  0  0  0  0  0  0  0  0  0
    4.4335   -3.8636    0.0000 C   0  0  0  0  0  0  0  0  0  0  0  0
    3.4359   -3.7939    0.0000 C   0  0  0  0  0  0  0  0  0  0  0  0
    4.8719   -4.7624    0.0000 C   0  0  0  0  0  0  0  0  0  0  0  0
    2.8767   -4.6229    0.0000 C   0  0  0  0  0  0  0  0  0  0  0  0
    4.3127   -5.5915    0.0000 C   0  0  0  0  0  0  0  0  0  0  0  0
    3.3151   -5.5217    0.0000 C   0  0  0  0  0  0  0  0  0  0  0  0
    2.0000   -2.8253    0.0000 C   0  0  0  0  0  0  0  0  0  0  0  0
    7.7488    3.0528    0.0000 H   0  0  0  0  0  0  0  0  0  0  0  0
    8.2679    5.0350    0.0000 H   0  0  0  0  0  0  0  0  0  0  0  0
    7.3988    6.1238    0.0000 H   0  0  0  0  0  0  0  0  0  0  0  0
    6.4678    5.6834    0.0000 H   0  0  0  0  0  0  0  0  0  0  0  0
    5.7955    2.4767    0.0000 H   0  0  0  0  0  0  0  0  0  0  0  0
    5.7793    4.9177    0.0000 H   0  0  0  0  0  0  0  0  0  0  0  0
    5.1700    4.3815    0.0000 H   0  0  0  0  0  0  0  0  0  0  0  0
    4.9339    3.5687    0.0000 H   0  0  0  0  0  0  0  0  0  0  0  0
    5.2176    2.7890    0.0000 H   0  0  0  0  0  0  0  0  0  0  0  0
    8.9208    2.4757    0.0000 H   0  0  0  0  0  0  0  0  0  0  0  0
    9.7677    2.2488    0.0000 H   0  0  0  0  0  0  0  0  0  0  0  0
    9.9946    3.0957    0.0000 H   0  0  0  0  0  0  0  0  0  0  0  0
   10.1337    3.6148    0.0000 H   0  0  0  0  0  0  0  0  0  0  0  0
   10.3607    4.4618    0.0000 H   0  0  0  0  0  0  0  0  0  0  0  0
    9.5137    4.6887    0.0000 H   0  0  0  0  0  0  0  0  0  0  0  0
    6.6049    1.2030    0.0000 H   0  0  0  0  0  0  0  0  0  0  0  0
    6.9791    1.9068    0.0000 H   0  0  0  0  0  0  0  0  0  0  0  0
    4.9772    1.5390    0.0000 H   0  0  0  0  0  0  0  0  0  0  0  0
    3.9358   -2.0926    0.0000 H   0  0  0  0  0  0  0  0  0  0  0  0
    5.4904   -4.8057    0.0000 H   0  0  0  0  0  0  0  0  0  0  0  0
    2.2582   -4.5797    0.0000 H   0  0  0  0  0  0  0  0  0  0  0  0
    4.5845   -6.1487    0.0000 H   0  0  0  0  0  0  0  0  0  0  0  0
    2.9684   -6.0357    0.0000 H   0  0  0  0  0  0  0  0  0  0  0  0
    2.0432   -2.2069    0.0000 H   0  0  0  0  0  0  0  0  0  0  0  0
    1.3815   -2.7821    0.0000 H   0  0  0  0  0  0  0  0  0  0  0  0
    1.9568   -3.4438    0.0000 H   0  0  0  0  0  0  0  0  0  0  0  0
  1 18  1  0  0  0  0
  1 19  1  0  0  0  0
  2 20  2  0  0  0  0
  3 22  1  0  0  0  0
  3 27  1  0  0  0  0
  4 17  1  0  0  0  0
  4 18  1  0  0  0  0
  4 45  1  0  0  0  0
  5  6  1  0  0  0  0
  5 18  2  0  0  0  0
  6 19  2  0  0  0  0
  7 19  1  0  0  0  0
  7 20  1  0  0  0  0
  7 46  1  0  0  0  0
  8  9  1  0  0  0  0
  8 10  1  0  0  0  0
  8 15  1  0  0  0  0
  8 16  1  0  0  0  0
  9 11  1  0  0  0  0
  9 12  1  0  0  0  0
  9 28  1  0  0  0  0
 10 11  1  0  0  0  0
 10 13  1  0  0  0  0
 10 29  1  0  0  0  0
 11 30  1  0  0  0  0
 11 31  1  0  0  0  0
 12 14  1  0  0  0  0
 12 17  1  6  0  0  0
 12 32  1  0  0  0  0
 13 14  1  0  0  0  0
 13 33  1  0  0  0  0
 13 34  1  0  0  0  0
 14 35  1  0  0  0  0
 14 36  1  0  0  0  0
 15 37  1  0  0  0  0
 15 38  1  0  0  0  0
 15 39  1  0  0  0  0
 16 40  1  0  0  0  0
 16 41  1  0  0  0  0
 16 42  1  0  0  0  0
 17 43  1  0  0  0  0
 17 44  1  0  0  0  0
 20 21  1  0  0  0  0
 21 22  1  0  0  0  0
 21 23  2  0  0  0  0
 22 24  2  0  0  0  0
 23 25  1  0  0  0  0
 23 47  1  0  0  0  0
 24 26  1  0  0  0  0
 24 48  1  0  0  0  0
 25 26  2  0  0  0  0
 25 49  1  0  0  0  0
 26 50  1  0  0  0  0
 27 51  1  0  0  0  0
 27 52  1  0  0  0  0
 27 53  1  0  0  0  0
M  END
> <PUBCHEM_COMPOUND_CID>
509302
> <PUBCHEM_COMPOUND_CANONICALIZED>
1
> <PUBCHEM_CACTVS_COMPLEXITY>
546
> <PUBCHEM_CACTVS_HBOND_ACCEPTOR>
6
> <PUBCHEM_CACTVS_HBOND_DONOR>
2
> <PUBCHEM_CACTVS_ROTATABLE_BOND>
6
> <PUBCHEM_CACTVS_SUBSKEYS>
AAADceB7sABAAAAAAAAAAAAAAABgAWAAAAAwYMAAAAAAAAABwAAAHgQYAAAADwTBmAYzFoLABAiuAiFSMACSCAJkIAkNiIEODMiMJjaEvRuEMWh28RMIqYeYyOCPgAAAAAAIAACAAAQAADAAAAAAAAAAAA==
> <PUBCHEM_IUPAC_OPENEYE_NAME>
N-[5-[[(2R)-6,6-dimethylnorpinan-2-yl]methylamino]-1,3,4-thiadiazol-2-yl]-2-methoxy-benzamide
> <PUBCHEM_IUPAC_CAS_NAME>
N-[5-[[(2R)-6,6-dimethyl-2-bicyclo[3.1.1]heptanyl]methylamino]-1,3,4-thiadiazol-2-yl]-2-methoxybenzamide
> <PUBCHEM_IUPAC_NAME_MARKUP>
<I>N</I>-[5-[[(2<I>R</I>)-6,6-dimethyl-2-bicyclo[3.1.1]heptanyl]methylamino]-1,3,4-thiadiazol-2-yl]-2-methoxybenzamide
> <PUBCHEM_IUPAC_NAME>
N-[5-[[(2R)-6,6-dimethyl-2-bicyclo[3.1.1]heptanyl]methylamino]-1,3,4-thiadiazol-2-yl]-2-methoxybenzamide
> <PUBCHEM_IUPAC_SYSTEMATIC_NAME>
N-[5-[[(2R)-6,6-dimethyl-2-bicyclo[3.1.1]heptanyl]methylamino]-1,3,4-thiadiazol-2-yl]-2-methoxy-benzamide
> <PUBCHEM_IUPAC_TRADITIONAL_NAME>
N-[5-[[(2R)-6,6-dimethylnorpinan-2-yl]methylamino]-1,3,4-thiadiazol-2-yl]-2-methoxy-benzamide
> <PUBCHEM_IUPAC_INCHI>
InChI=1S/C20H26N4O2S/c1-20(2)13-9-8-12(15(20)10-13)11-21-18-23-24-19(27-18)22-17(25)14-6-4-5-7-16(14)26-3/h4-7,12-13,15H,8-11H2,1-3H3,(H,21,23)(H,22,24,25)/t12-,13?,15?/m0/s1
> <PUBCHEM_IUPAC_INCHIKEY>
FEGMIZZSDMPHDI-OPFPJEHXSA-N
> <PUBCHEM_XLOGP3_AA>
4.8
> <PUBCHEM_EXACT_MASS>
386.17764726
> <PUBCHEM_MOLECULAR_FORMULA>
C20H26N4O2S
> <PUBCHEM_MOLECULAR_WEIGHT>
386.5
> <PUBCHEM_OPENEYE_CAN_SMILES>
CC1(C2CCC(C1C2)CNC3=NN=C(S3)NC(=O)C4=CC=CC=C4OC)C
> <PUBCHEM_OPENEYE_ISO_SMILES>
CC1(C2CC[C@H](C1C2)CNC3=NN=C(S3)NC(=O)C4=CC=CC=C4OC)C
> <PUBCHEM_CACTVS_TPSA>
104
> <PUBCHEM_MONOISOTOPIC_WEIGHT>
386.17764726
> <PUBCHEM_TOTAL_CHARGE>
0
> <PUBCHEM_HEAVY_ATOM_COUNT>
27
> <PUBCHEM_ATOM_DEF_STEREO_COUNT>
1
> <PUBCHEM_ATOM_UDEF_STEREO_COUNT>
2
> <PUBCHEM_BOND_DEF_STEREO_COUNT>
0
> <PUBCHEM_BOND_UDEF_STEREO_COUNT>
0
> <PUBCHEM_ISOTOPIC_ATOM_COUNT>
0
> <PUBCHEM_COMPONENT_COUNT>
1
> <PUBCHEM_CACTVS_TAUTO_COUNT>
-1
> <PUBCHEM_COORDINATE_TYPE>
1
5
255
> <PUBCHEM_BONDANNOTATIONS>
1  18  8
1  19  8
10  13  3
12  17  6
21  22  8
21  23  8
22  24  8
23  25  8
24  26  8
25  26  8
5  18  8
5  6  8
6  19  8
9  11  3
$$$$
