509384
  -OEChem-10302200282D
 71 73  0     1  0  0  0  0  0999 V2000
    4.6551    0.2912    0.0000 S   0  0  0  0  0  0  0  0  0  0  0  0
    3.7320   -1.2966    0.0000 O   0  0  0  0  0  0  0  0  0  0  0  0
    5.5802    4.8953    0.0000 N   0  0  3  0  0  0  0  0  0  0  0  0
    4.3763    2.0513    0.0000 N   0  0  0  0  0  0  0  0  0  0  0  0
    5.4641   -1.2966    0.0000 N   0  0  0  0  0  0  0  0  0  0  0  0
    5.9641    1.2423    0.0000 N   0  0  0  0  0  0  0  0  0  0  0  0
    6.2731    0.2912    0.0000 N   0  0  0  0  0  0  0  0  0  0  0  0
    4.6020    4.6874    0.0000 C   0  0  3  0  0  0  0  0  0  0  0  0
    4.1020    5.5534    0.0000 C   0  0  0  0  0  0  0  0  0  0  0  0
    4.7711    6.2966    0.0000 C   0  0  0  0  0  0  0  0  0  0  0  0
    5.6847    5.8898    0.0000 C   0  0  0  0  0  0  0  0  0  0  0  0
    4.1953    3.7738    0.0000 C   0  0  0  0  0  0  0  0  0  0  0  0
    6.3233    4.2262    0.0000 C   0  0  0  0  0  0  0  0  0  0  0  0
    4.7830    2.9648    0.0000 C   0  0  0  0  0  0  0  0  0  0  0  0
    3.7320   -3.2966    0.0000 C   0  0  0  0  0  0  0  0  0  0  0  0
    5.4641   -3.2966    0.0000 C   0  0  0  0  0  0  0  0  0  0  0  0
    4.5981   -2.7966    0.0000 C   0  0  0  0  0  0  0  0  0  0  0  0
    4.5981   -4.7966    0.0000 C   0  0  0  0  0  0  0  0  0  0  0  0
    2.8660   -2.7966    0.0000 C   0  0  0  0  0  0  0  0  0  0  0  0
    6.4641   -3.2966    0.0000 C   0  0  0  0  0  0  0  0  0  0  0  0
    4.5981   -5.7966    0.0000 C   0  0  0  0  0  0  0  0  0  0  0  0
    3.7320   -4.2966    0.0000 C   0  0  0  0  0  0  0  0  0  0  0  0
    5.4641   -4.2966    0.0000 C   0  0  0  0  0  0  0  0  0  0  0  0
    4.9641    1.2423    0.0000 C   0  0  0  0  0  0  0  0  0  0  0  0
    4.5981   -1.7966    0.0000 C   0  0  0  0  0  0  0  0  0  0  0  0
    2.0000   -3.2966    0.0000 C   0  0  0  0  0  0  0  0  0  0  0  0
    2.8660   -1.7966    0.0000 C   0  0  0  0  0  0  0  0  0  0  0  0
    6.9641   -4.1626    0.0000 C   0  0  0  0  0  0  0  0  0  0  0  0
    6.9641   -2.4305    0.0000 C   0  0  0  0  0  0  0  0  0  0  0  0
    3.7320   -6.2966    0.0000 C   0  0  0  0  0  0  0  0  0  0  0  0
    5.4641   -6.2966    0.0000 C   0  0  0  0  0  0  0  0  0  0  0  0
    5.4641   -0.2966    0.0000 C   0  0  0  0  0  0  0  0  0  0  0  0
    4.9922    4.2056    0.0000 H   0  0  0  0  0  0  0  0  0  0  0  0
    3.6871    6.0142    0.0000 H   0  0  0  0  0  0  0  0  0  0  0  0
    3.6004    5.1890    0.0000 H   0  0  0  0  0  0  0  0  0  0  0  0
    5.0811    6.8335    0.0000 H   0  0  0  0  0  0  0  0  0  0  0  0
    4.2695    6.6610    0.0000 H   0  0  0  0  0  0  0  0  0  0  0  0
    6.2911    5.7609    0.0000 H   0  0  0  0  0  0  0  0  0  0  0  0
    5.8763    6.4795    0.0000 H   0  0  0  0  0  0  0  0  0  0  0  0
    3.6813    4.1206    0.0000 H   0  0  0  0  0  0  0  0  0  0  0  0
    3.7646    3.3279    0.0000 H   0  0  0  0  0  0  0  0  0  0  0  0
    5.9084    3.7654    0.0000 H   0  0  0  0  0  0  0  0  0  0  0  0
    6.7840    3.8113    0.0000 H   0  0  0  0  0  0  0  0  0  0  0  0
    6.7382    4.6869    0.0000 H   0  0  0  0  0  0  0  0  0  0  0  0
    5.2971    2.6181    0.0000 H   0  0  0  0  0  0  0  0  0  0  0  0
    5.2137    3.4108    0.0000 H   0  0  0  0  0  0  0  0  0  0  0  0
    3.7597    1.9865    0.0000 H   0  0  0  0  0  0  0  0  0  0  0  0
    2.8660   -3.4166    0.0000 H   0  0  0  0  0  0  0  0  0  0  0  0
    7.0841   -3.2966    0.0000 H   0  0  0  0  0  0  0  0  0  0  0  0
    4.5981   -6.4166    0.0000 H   0  0  0  0  0  0  0  0  0  0  0  0
    3.1951   -4.6066    0.0000 H   0  0  0  0  0  0  0  0  0  0  0  0
    6.0010   -4.6066    0.0000 H   0  0  0  0  0  0  0  0  0  0  0  0
    1.6900   -2.7596    0.0000 H   0  0  0  0  0  0  0  0  0  0  0  0
    1.4631   -3.6066    0.0000 H   0  0  0  0  0  0  0  0  0  0  0  0
    2.3100   -3.8335    0.0000 H   0  0  0  0  0  0  0  0  0  0  0  0
    3.4860   -1.7966    0.0000 H   0  0  0  0  0  0  0  0  0  0  0  0
    2.8660   -1.1766    0.0000 H   0  0  0  0  0  0  0  0  0  0  0  0
    2.2460   -1.7966    0.0000 H   0  0  0  0  0  0  0  0  0  0  0  0
    6.4272   -4.4726    0.0000 H   0  0  0  0  0  0  0  0  0  0  0  0
    7.2741   -4.6995    0.0000 H   0  0  0  0  0  0  0  0  0  0  0  0
    7.5010   -3.8526    0.0000 H   0  0  0  0  0  0  0  0  0  0  0  0
    7.5010   -2.7405    0.0000 H   0  0  0  0  0  0  0  0  0  0  0  0
    7.2741   -1.8936    0.0000 H   0  0  0  0  0  0  0  0  0  0  0  0
    6.4272   -2.1205    0.0000 H   0  0  0  0  0  0  0  0  0  0  0  0
    3.4220   -5.7596    0.0000 H   0  0  0  0  0  0  0  0  0  0  0  0
    3.1951   -6.6066    0.0000 H   0  0  0  0  0  0  0  0  0  0  0  0
    4.0420   -6.8335    0.0000 H   0  0  0  0  0  0  0  0  0  0  0  0
    5.1541   -6.8335    0.0000 H   0  0  0  0  0  0  0  0  0  0  0  0
    6.0010   -6.6066    0.0000 H   0  0  0  0  0  0  0  0  0  0  0  0
    5.7741   -5.7596    0.0000 H   0  0  0  0  0  0  0  0  0  0  0  0
    6.0841   -1.2966    0.0000 H   0  0  0  0  0  0  0  0  0  0  0  0
  1 24  1  0  0  0  0
  1 32  1  0  0  0  0
  2 25  2  0  0  0  0
  3  8  1  0  0  0  0
  3 11  1  0  0  0  0
  3 13  1  0  0  0  0
  4 14  1  0  0  0  0
  4 24  1  0  0  0  0
  4 47  1  0  0  0  0
  5 25  1  0  0  0  0
  5 32  1  0  0  0  0
  5 71  1  0  0  0  0
  6  7  1  0  0  0  0
  6 24  2  0  0  0  0
  7 32  2  0  0  0  0
  8  9  1  0  0  0  0
  8 12  1  0  0  0  0
  8 33  1  0  0  0  0
  9 10  1  0  0  0  0
  9 34  1  0  0  0  0
  9 35  1  0  0  0  0
 10 11  1  0  0  0  0
 10 36  1  0  0  0  0
 10 37  1  0  0  0  0
 11 38  1  0  0  0  0
 11 39  1  0  0  0  0
 12 14  1  0  0  0  0
 12 40  1  0  0  0  0
 12 41  1  0  0  0  0
 13 42  1  0  0  0  0
 13 43  1  0  0  0  0
 13 44  1  0  0  0  0
 14 45  1  0  0  0  0
 14 46  1  0  0  0  0
 15 17  2  0  0  0  0
 15 19  1  0  0  0  0
 15 22  1  0  0  0  0
 16 17  1  0  0  0  0
 16 20  1  0  0  0  0
 16 23  2  0  0  0  0
 17 25  1  0  0  0  0
 18 21  1  0  0  0  0
 18 22  2  0  0  0  0
 18 23  1  0  0  0  0
 19 26  1  0  0  0  0
 19 27  1  0  0  0  0
 19 48  1  0  0  0  0
 20 28  1  0  0  0  0
 20 29  1  0  0  0  0
 20 49  1  0  0  0  0
 21 30  1  0  0  0  0
 21 31  1  0  0  0  0
 21 50  1  0  0  0  0
 22 51  1  0  0  0  0
 23 52  1  0  0  0  0
 26 53  1  0  0  0  0
 26 54  1  0  0  0  0
 26 55  1  0  0  0  0
 27 56  1  0  0  0  0
 27 57  1  0  0  0  0
 27 58  1  0  0  0  0
 28 59  1  0  0  0  0
 28 60  1  0  0  0  0
 28 61  1  0  0  0  0
 29 62  1  0  0  0  0
 29 63  1  0  0  0  0
 29 64  1  0  0  0  0
 30 65  1  0  0  0  0
 30 66  1  0  0  0  0
 30 67  1  0  0  0  0
 31 68  1  0  0  0  0
 31 69  1  0  0  0  0
 31 70  1  0  0  0  0
M  END
> <PUBCHEM_COMPOUND_CID>
509384
> <PUBCHEM_COMPOUND_CANONICALIZED>
1
> <PUBCHEM_CACTVS_COMPLEXITY>
583
> <PUBCHEM_CACTVS_HBOND_ACCEPTOR>
6
> <PUBCHEM_CACTVS_HBOND_DONOR>
2
> <PUBCHEM_CACTVS_ROTATABLE_BOND>
9
> <PUBCHEM_CACTVS_SUBSKEYS>
AAADcfB7oABAAAAAAAAAAAAAAAAAAWLAAAAwAAAAAAAAAAABwAAAHgQYAAAADSjBmAQzEIPAAAiuAiFSMACSAAJkAAkFiIEIBMiIIDKA3RGEIQhwkQKIiQcYiMCOwAACAAAQAACAAAQAACAAAAAAAAAAAA==
> <PUBCHEM_IUPAC_OPENEYE_NAME>
2,4,6-triisopropyl-N-[5-[2-(1-methylpyrrolidin-2-yl)ethylamino]-1,3,4-thiadiazol-2-yl]benzamide
> <PUBCHEM_IUPAC_CAS_NAME>
N-[5-[2-(1-methyl-2-pyrrolidinyl)ethylamino]-1,3,4-thiadiazol-2-yl]-2,4,6-tri(propan-2-yl)benzamide
> <PUBCHEM_IUPAC_NAME_MARKUP>
<I>N</I>-[5-[2-(1-methylpyrrolidin-2-yl)ethylamino]-1,3,4-thiadiazol-2-yl]-2,4,6-tri(propan-2-yl)benzamide
> <PUBCHEM_IUPAC_NAME>
N-[5-[2-(1-methylpyrrolidin-2-yl)ethylamino]-1,3,4-thiadiazol-2-yl]-2,4,6-tri(propan-2-yl)benzamide
> <PUBCHEM_IUPAC_SYSTEMATIC_NAME>
N-[5-[2-(1-methylpyrrolidin-2-yl)ethylamino]-1,3,4-thiadiazol-2-yl]-2,4,6-tri(propan-2-yl)benzamide
> <PUBCHEM_IUPAC_TRADITIONAL_NAME>
2,4,6-triisopropyl-N-[5-[2-(1-methylpyrrolidin-2-yl)ethylamino]-1,3,4-thiadiazol-2-yl]benzamide
> <PUBCHEM_IUPAC_INCHI>
InChI=1S/C25H39N5OS/c1-15(2)18-13-20(16(3)4)22(21(14-18)17(5)6)23(31)27-25-29-28-24(32-25)26-11-10-19-9-8-12-30(19)7/h13-17,19H,8-12H2,1-7H3,(H,26,28)(H,27,29,31)
> <PUBCHEM_IUPAC_INCHIKEY>
UTJFFGKYYINQMH-UHFFFAOYSA-N
> <PUBCHEM_XLOGP3_AA>
6.2
> <PUBCHEM_EXACT_MASS>
457.28753206
> <PUBCHEM_MOLECULAR_FORMULA>
C25H39N5OS
> <PUBCHEM_MOLECULAR_WEIGHT>
457.7
> <PUBCHEM_OPENEYE_CAN_SMILES>
CC(C)C1=CC(=C(C(=C1)C(C)C)C(=O)NC2=NN=C(S2)NCCC3CCCN3C)C(C)C
> <PUBCHEM_OPENEYE_ISO_SMILES>
CC(C)C1=CC(=C(C(=C1)C(C)C)C(=O)NC2=NN=C(S2)NCCC3CCCN3C)C(C)C
> <PUBCHEM_CACTVS_TPSA>
98.4
> <PUBCHEM_MONOISOTOPIC_WEIGHT>
457.28753206
> <PUBCHEM_TOTAL_CHARGE>
0
> <PUBCHEM_HEAVY_ATOM_COUNT>
32
> <PUBCHEM_ATOM_DEF_STEREO_COUNT>
0
> <PUBCHEM_ATOM_UDEF_STEREO_COUNT>
1
> <PUBCHEM_BOND_DEF_STEREO_COUNT>
0
> <PUBCHEM_BOND_UDEF_STEREO_COUNT>
0
> <PUBCHEM_ISOTOPIC_ATOM_COUNT>
0
> <PUBCHEM_COMPONENT_COUNT>
1
> <PUBCHEM_CACTVS_TAUTO_COUNT>
-1
> <PUBCHEM_COORDINATE_TYPE>
1
5
255
> <PUBCHEM_BONDANNOTATIONS>
1  24  8
1  32  8
15  17  8
15  22  8
16  17  8
16  23  8
18  22  8
18  23  8
6  24  8
6  7  8
7  32  8
8  12  3
$$$$
