509351
  -OEChem-10302200282D
 43 46  0     1  0  0  0  0  0999 V2000
    3.8080   -3.0968    0.0000 Cl  0  0  0  0  0  0  0  0  0  0  0  0
    4.1701    0.3483    0.0000 Cl  0  0  0  0  0  0  0  0  0  0  0  0
    7.2350   -0.0311    0.0000 S   0  0  0  0  0  0  0  0  0  0  0  0
    5.3903   -2.3923    0.0000 O   0  0  0  0  0  0  0  0  0  0  0  0
    9.0146    0.0621    0.0000 N   0  0  0  0  0  0  0  0  0  0  0  0
    8.0440   -1.4324    0.0000 N   0  0  0  0  0  0  0  0  0  0  0  0
    7.0659   -1.6403    0.0000 N   0  0  0  0  0  0  0  0  0  0  0  0
    5.5714   -0.6697    0.0000 N   0  0  0  0  0  0  0  0  0  0  0  0
    9.0146    1.0621    0.0000 C   0  0  3  0  0  0  0  0  0  0  0  0
    8.1486    1.5621    0.0000 C   0  0  0  0  0  0  0  0  0  0  0  0
    8.1486    2.5621    0.0000 C   0  0  0  0  0  0  0  0  0  0  0  0
    9.0146    3.0621    0.0000 C   0  0  0  0  0  0  0  0  0  0  0  0
    9.8806    1.5621    0.0000 C   0  0  0  0  0  0  0  0  0  0  0  0
    9.8806    2.5621    0.0000 C   0  0  0  0  0  0  0  0  0  0  0  0
   10.7745    1.0275    0.0000 C   0  0  0  0  0  0  0  0  0  0  0  0
   10.7745    3.0968    0.0000 C   0  0  0  0  0  0  0  0  0  0  0  0
   11.6806    1.5413    0.0000 C   0  0  0  0  0  0  0  0  0  0  0  0
   11.6806    2.5830    0.0000 C   0  0  0  0  0  0  0  0  0  0  0  0
    8.1486   -0.4379    0.0000 C   0  0  0  0  0  0  0  0  0  0  0  0
    6.5659   -0.7743    0.0000 C   0  0  0  0  0  0  0  0  0  0  0  0
    4.9836   -1.4788    0.0000 C   0  0  0  0  0  0  0  0  0  0  0  0
    3.9890   -1.3742    0.0000 C   0  0  0  0  0  0  0  0  0  0  0  0
    3.4013   -2.1832    0.0000 C   0  0  0  0  0  0  0  0  0  0  0  0
    3.5823   -0.4607    0.0000 C   0  0  0  0  0  0  0  0  0  0  0  0
    2.4067   -2.0787    0.0000 C   0  0  0  0  0  0  0  0  0  0  0  0
    2.5878   -0.3562    0.0000 C   0  0  0  0  0  0  0  0  0  0  0  0
    2.0000   -1.1652    0.0000 C   0  0  0  0  0  0  0  0  0  0  0  0
    8.4776    0.7521    0.0000 H   0  0  0  0  0  0  0  0  0  0  0  0
    7.5380    1.6698    0.0000 H   0  0  0  0  0  0  0  0  0  0  0  0
    7.9365    0.9795    0.0000 H   0  0  0  0  0  0  0  0  0  0  0  0
    7.9365    3.1447    0.0000 H   0  0  0  0  0  0  0  0  0  0  0  0
    7.5380    2.4545    0.0000 H   0  0  0  0  0  0  0  0  0  0  0  0
    9.4131    3.5371    0.0000 H   0  0  0  0  0  0  0  0  0  0  0  0
    8.6160    3.5371    0.0000 H   0  0  0  0  0  0  0  0  0  0  0  0
    9.5515   -0.2479    0.0000 H   0  0  0  0  0  0  0  0  0  0  0  0
   10.7674    0.4075    0.0000 H   0  0  0  0  0  0  0  0  0  0  0  0
   10.7674    3.7168    0.0000 H   0  0  0  0  0  0  0  0  0  0  0  0
   12.2163    1.2292    0.0000 H   0  0  0  0  0  0  0  0  0  0  0  0
   12.2163    2.8950    0.0000 H   0  0  0  0  0  0  0  0  0  0  0  0
    5.3192   -0.1033    0.0000 H   0  0  0  0  0  0  0  0  0  0  0  0
    2.0423   -2.5803    0.0000 H   0  0  0  0  0  0  0  0  0  0  0  0
    2.3356    0.2102    0.0000 H   0  0  0  0  0  0  0  0  0  0  0  0
    1.3834   -1.1004    0.0000 H   0  0  0  0  0  0  0  0  0  0  0  0
  1 23  1  0  0  0  0
  2 24  1  0  0  0  0
  3 19  1  0  0  0  0
  3 20  1  0  0  0  0
  4 21  2  0  0  0  0
  5  9  1  0  0  0  0
  5 19  1  0  0  0  0
  5 35  1  0  0  0  0
  6  7  1  0  0  0  0
  6 19  2  0  0  0  0
  7 20  2  0  0  0  0
  8 20  1  0  0  0  0
  8 21  1  0  0  0  0
  8 40  1  0  0  0  0
  9 10  1  0  0  0  0
  9 13  1  0  0  0  0
  9 28  1  0  0  0  0
 10 11  1  0  0  0  0
 10 29  1  0  0  0  0
 10 30  1  0  0  0  0
 11 12  1  0  0  0  0
 11 31  1  0  0  0  0
 11 32  1  0  0  0  0
 12 14  1  0  0  0  0
 12 33  1  0  0  0  0
 12 34  1  0  0  0  0
 13 14  1  0  0  0  0
 13 15  2  0  0  0  0
 14 16  2  0  0  0  0
 15 17  1  0  0  0  0
 15 36  1  0  0  0  0
 16 18  1  0  0  0  0
 16 37  1  0  0  0  0
 17 18  2  0  0  0  0
 17 38  1  0  0  0  0
 18 39  1  0  0  0  0
 21 22  1  0  0  0  0
 22 23  2  0  0  0  0
 22 24  1  0  0  0  0
 23 25  1  0  0  0  0
 24 26  2  0  0  0  0
 25 27  2  0  0  0  0
 25 41  1  0  0  0  0
 26 27  1  0  0  0  0
 26 42  1  0  0  0  0
 27 43  1  0  0  0  0
M  END
> <PUBCHEM_COMPOUND_CID>
509351
> <PUBCHEM_COMPOUND_CANONICALIZED>
1
> <PUBCHEM_CACTVS_COMPLEXITY>
518
> <PUBCHEM_CACTVS_HBOND_ACCEPTOR>
5
> <PUBCHEM_CACTVS_HBOND_DONOR>
2
> <PUBCHEM_CACTVS_ROTATABLE_BOND>
4
> <PUBCHEM_CACTVS_SUBSKEYS>
AAADceB7oABGAAAAAAAAAAAAAAAAAWAAAAAwYMAAAAAAAADB0AAAHgYYAAAADCrBmCQxEILAAAiuAiFSMACSAAJkBQkNiIEIBsiIIDKBnxGEIQhwkQIIjQcYiICOgAAAAACRAAAAAACAASYAAAAAAAAAAA==
> <PUBCHEM_IUPAC_OPENEYE_NAME>
2,6-dichloro-N-[5-(tetralin-1-ylamino)-1,3,4-thiadiazol-2-yl]benzamide
> <PUBCHEM_IUPAC_CAS_NAME>
2,6-dichloro-N-[5-(1,2,3,4-tetrahydronaphthalen-1-ylamino)-1,3,4-thiadiazol-2-yl]benzamide
> <PUBCHEM_IUPAC_NAME_MARKUP>
2,6-dichloro-<I>N</I>-[5-(1,2,3,4-tetrahydronaphthalen-1-ylamino)-1,3,4-thiadiazol-2-yl]benzamide
> <PUBCHEM_IUPAC_NAME>
2,6-dichloro-N-[5-(1,2,3,4-tetrahydronaphthalen-1-ylamino)-1,3,4-thiadiazol-2-yl]benzamide
> <PUBCHEM_IUPAC_SYSTEMATIC_NAME>
2,6-bis(chloranyl)-N-[5-(1,2,3,4-tetrahydronaphthalen-1-ylamino)-1,3,4-thiadiazol-2-yl]benzamide
> <PUBCHEM_IUPAC_TRADITIONAL_NAME>
2,6-dichloro-N-[5-(tetralin-1-ylamino)-1,3,4-thiadiazol-2-yl]benzamide
> <PUBCHEM_IUPAC_INCHI>
InChI=1S/C19H16Cl2N4OS/c20-13-8-4-9-14(21)16(13)17(26)23-19-25-24-18(27-19)22-15-10-3-6-11-5-1-2-7-12(11)15/h1-2,4-5,7-9,15H,3,6,10H2,(H,22,24)(H,23,25,26)
> <PUBCHEM_IUPAC_INCHIKEY>
FDHUPCVBSSDNKU-UHFFFAOYSA-N
> <PUBCHEM_XLOGP3_AA>
5.4
> <PUBCHEM_EXACT_MASS>
418.0421877
> <PUBCHEM_MOLECULAR_FORMULA>
C19H16Cl2N4OS
> <PUBCHEM_MOLECULAR_WEIGHT>
419.3
> <PUBCHEM_OPENEYE_CAN_SMILES>
C1CC(C2=CC=CC=C2C1)NC3=NN=C(S3)NC(=O)C4=C(C=CC=C4Cl)Cl
> <PUBCHEM_OPENEYE_ISO_SMILES>
C1CC(C2=CC=CC=C2C1)NC3=NN=C(S3)NC(=O)C4=C(C=CC=C4Cl)Cl
> <PUBCHEM_CACTVS_TPSA>
95.2
> <PUBCHEM_MONOISOTOPIC_WEIGHT>
418.0421877
> <PUBCHEM_TOTAL_CHARGE>
0
> <PUBCHEM_HEAVY_ATOM_COUNT>
27
> <PUBCHEM_ATOM_DEF_STEREO_COUNT>
0
> <PUBCHEM_ATOM_UDEF_STEREO_COUNT>
1
> <PUBCHEM_BOND_DEF_STEREO_COUNT>
0
> <PUBCHEM_BOND_UDEF_STEREO_COUNT>
0
> <PUBCHEM_ISOTOPIC_ATOM_COUNT>
0
> <PUBCHEM_COMPONENT_COUNT>
1
> <PUBCHEM_CACTVS_TAUTO_COUNT>
-1
> <PUBCHEM_COORDINATE_TYPE>
1
5
255
> <PUBCHEM_BONDANNOTATIONS>
13  14  8
13  15  8
14  16  8
15  17  8
16  18  8
17  18  8
22  23  8
22  24  8
23  25  8
24  26  8
25  27  8
26  27  8
3  19  8
3  20  8
9  5  3
6  19  8
6  7  8
7  20  8
$$$$
