509301
  -OEChem-10302200282D
 46 50  0     1  0  0  0  0  0999 V2000
    8.8938    0.2888    0.0000 S   0  0  0  0  0  0  0  0  0  0  0  0
    2.4646   -1.9242    0.0000 O   0  0  0  0  0  0  0  0  0  0  0  0
    7.0491   -2.0724    0.0000 O   0  0  0  0  0  0  0  0  0  0  0  0
    3.4278   -3.4167    0.0000 O   0  0  0  0  0  0  0  0  0  0  0  0
    2.0000   -0.2097    0.0000 O   0  0  0  0  0  0  0  0  0  0  0  0
   10.6734    0.3821    0.0000 N   0  0  0  0  0  0  0  0  0  0  0  0
    9.7028   -1.1124    0.0000 N   0  0  0  0  0  0  0  0  0  0  0  0
    8.7246   -1.3204    0.0000 N   0  0  0  0  0  0  0  0  0  0  0  0
    7.2301   -0.3498    0.0000 N   0  0  0  0  0  0  0  0  0  0  0  0
   10.6734    1.3821    0.0000 C   0  0  3  0  0  0  0  0  0  0  0  0
    9.8073    1.8821    0.0000 C   0  0  0  0  0  0  0  0  0  0  0  0
    9.8073    2.8821    0.0000 C   0  0  0  0  0  0  0  0  0  0  0  0
   10.6734    3.3821    0.0000 C   0  0  0  0  0  0  0  0  0  0  0  0
   11.5394    1.8821    0.0000 C   0  0  0  0  0  0  0  0  0  0  0  0
   11.5394    2.8821    0.0000 C   0  0  0  0  0  0  0  0  0  0  0  0
   12.4333    1.3474    0.0000 C   0  0  0  0  0  0  0  0  0  0  0  0
   12.4333    3.4167    0.0000 C   0  0  0  0  0  0  0  0  0  0  0  0
   13.3394    1.8613    0.0000 C   0  0  0  0  0  0  0  0  0  0  0  0
   13.3394    2.9029    0.0000 C   0  0  0  0  0  0  0  0  0  0  0  0
    9.8073   -0.1179    0.0000 C   0  0  0  0  0  0  0  0  0  0  0  0
    8.2246   -0.4543    0.0000 C   0  0  0  0  0  0  0  0  0  0  0  0
    4.0655   -1.7588    0.0000 C   0  0  0  0  0  0  0  0  0  0  0  0
    5.6478   -1.0543    0.0000 C   0  0  0  0  0  0  0  0  0  0  0  0
    3.6588   -0.8452    0.0000 C   0  0  0  0  0  0  0  0  0  0  0  0
    5.0600   -1.8633    0.0000 C   0  0  0  0  0  0  0  0  0  0  0  0
    6.6423   -1.1588    0.0000 C   0  0  0  0  0  0  0  0  0  0  0  0
    5.2411   -0.1407    0.0000 C   0  0  0  0  0  0  0  0  0  0  0  0
    4.2466   -0.0362    0.0000 C   0  0  0  0  0  0  0  0  0  0  0  0
    3.3250   -2.4220    0.0000 C   0  0  0  0  0  0  0  0  0  0  0  0
    2.6704   -0.9517    0.0000 C   0  0  0  0  0  0  0  0  0  0  0  0
   10.1364    1.0721    0.0000 H   0  0  0  0  0  0  0  0  0  0  0  0
    9.1967    1.9897    0.0000 H   0  0  0  0  0  0  0  0  0  0  0  0
    9.5953    1.2995    0.0000 H   0  0  0  0  0  0  0  0  0  0  0  0
    9.5953    3.4647    0.0000 H   0  0  0  0  0  0  0  0  0  0  0  0
    9.1967    2.7744    0.0000 H   0  0  0  0  0  0  0  0  0  0  0  0
   11.0719    3.8570    0.0000 H   0  0  0  0  0  0  0  0  0  0  0  0
   10.2748    3.8570    0.0000 H   0  0  0  0  0  0  0  0  0  0  0  0
   11.2103    0.0721    0.0000 H   0  0  0  0  0  0  0  0  0  0  0  0
   12.4261    0.7275    0.0000 H   0  0  0  0  0  0  0  0  0  0  0  0
   12.4261    4.0367    0.0000 H   0  0  0  0  0  0  0  0  0  0  0  0
   13.8751    1.5492    0.0000 H   0  0  0  0  0  0  0  0  0  0  0  0
   13.8751    3.2150    0.0000 H   0  0  0  0  0  0  0  0  0  0  0  0
    5.3122   -2.4297    0.0000 H   0  0  0  0  0  0  0  0  0  0  0  0
    6.9780    0.2166    0.0000 H   0  0  0  0  0  0  0  0  0  0  0  0
    5.6055    0.3608    0.0000 H   0  0  0  0  0  0  0  0  0  0  0  0
    3.9944    0.5302    0.0000 H   0  0  0  0  0  0  0  0  0  0  0  0
  1 20  1  0  0  0  0
  1 21  1  0  0  0  0
  2 29  1  0  0  0  0
  2 30  1  0  0  0  0
  3 26  2  0  0  0  0
  4 29  2  0  0  0  0
  5 30  2  0  0  0  0
  6 10  1  0  0  0  0
  6 20  1  0  0  0  0
  6 38  1  0  0  0  0
  7  8  1  0  0  0  0
  7 20  2  0  0  0  0
  8 21  2  0  0  0  0
  9 21  1  0  0  0  0
  9 26  1  0  0  0  0
  9 44  1  0  0  0  0
 10 11  1  0  0  0  0
 10 14  1  0  0  0  0
 10 31  1  0  0  0  0
 11 12  1  0  0  0  0
 11 32  1  0  0  0  0
 11 33  1  0  0  0  0
 12 13  1  0  0  0  0
 12 34  1  0  0  0  0
 12 35  1  0  0  0  0
 13 15  1  0  0  0  0
 13 36  1  0  0  0  0
 13 37  1  0  0  0  0
 14 15  1  0  0  0  0
 14 16  2  0  0  0  0
 15 17  2  0  0  0  0
 16 18  1  0  0  0  0
 16 39  1  0  0  0  0
 17 19  1  0  0  0  0
 17 40  1  0  0  0  0
 18 19  2  0  0  0  0
 18 41  1  0  0  0  0
 19 42  1  0  0  0  0
 22 24  2  0  0  0  0
 22 25  1  0  0  0  0
 22 29  1  0  0  0  0
 23 25  2  0  0  0  0
 23 26  1  0  0  0  0
 23 27  1  0  0  0  0
 24 28  1  0  0  0  0
 24 30  1  0  0  0  0
 25 43  1  0  0  0  0
 27 28  2  0  0  0  0
 27 45  1  0  0  0  0
 28 46  1  0  0  0  0
M  END
> <PUBCHEM_COMPOUND_CID>
509301
> <PUBCHEM_COMPOUND_CANONICALIZED>
1
> <PUBCHEM_CACTVS_COMPLEXITY>
707
> <PUBCHEM_CACTVS_HBOND_ACCEPTOR>
8
> <PUBCHEM_CACTVS_HBOND_DONOR>
2
> <PUBCHEM_CACTVS_ROTATABLE_BOND>
4
> <PUBCHEM_CACTVS_SUBSKEYS>
AAADceB7uABAAAAAAAAAAAAAAAAAAWJAAAAwYMAAAAAAAEjB0AAAHgQYAAAADCjBmAQxGILABAiuAiHSOACSAAJkAAkNiIEIDMiIJjKAvRmGMQh00QMIqYeb3/KOwAACAAAQAACAAASAACQAAAAAAAAAAA==
> <PUBCHEM_IUPAC_OPENEYE_NAME>
1,3-dioxo-N-[5-(tetralin-1-ylamino)-1,3,4-thiadiazol-2-yl]isobenzofuran-5-carboxamide
> <PUBCHEM_IUPAC_CAS_NAME>
1,3-dioxo-N-[5-(1,2,3,4-tetrahydronaphthalen-1-ylamino)-1,3,4-thiadiazol-2-yl]-5-isobenzofurancarboxamide
> <PUBCHEM_IUPAC_NAME_MARKUP>
1,3-dioxo-<I>N</I>-[5-(1,2,3,4-tetrahydronaphthalen-1-ylamino)-1,3,4-thiadiazol-2-yl]-2-benzofuran-5-carboxamide
> <PUBCHEM_IUPAC_NAME>
1,3-dioxo-N-[5-(1,2,3,4-tetrahydronaphthalen-1-ylamino)-1,3,4-thiadiazol-2-yl]-2-benzofuran-5-carboxamide
> <PUBCHEM_IUPAC_SYSTEMATIC_NAME>
1,3-bis(oxidanylidene)-N-[5-(1,2,3,4-tetrahydronaphthalen-1-ylamino)-1,3,4-thiadiazol-2-yl]-2-benzofuran-5-carboxamide
> <PUBCHEM_IUPAC_TRADITIONAL_NAME>
1,3-diketo-N-[5-(tetralin-1-ylamino)-1,3,4-thiadiazol-2-yl]phthalan-5-carboxamide
> <PUBCHEM_IUPAC_INCHI>
InChI=1S/C21H16N4O4S/c26-17(12-8-9-14-15(10-12)19(28)29-18(14)27)23-21-25-24-20(30-21)22-16-7-3-5-11-4-1-2-6-13(11)16/h1-2,4,6,8-10,16H,3,5,7H2,(H,22,24)(H,23,25,26)
> <PUBCHEM_IUPAC_INCHIKEY>
VHMLXYVBIMVXGE-UHFFFAOYSA-N
> <PUBCHEM_XLOGP3_AA>
3.5
> <PUBCHEM_EXACT_MASS>
420.08922618
> <PUBCHEM_MOLECULAR_FORMULA>
C21H16N4O4S
> <PUBCHEM_MOLECULAR_WEIGHT>
420.4
> <PUBCHEM_OPENEYE_CAN_SMILES>
C1CC(C2=CC=CC=C2C1)NC3=NN=C(S3)NC(=O)C4=CC5=C(C=C4)C(=O)OC5=O
> <PUBCHEM_OPENEYE_ISO_SMILES>
C1CC(C2=CC=CC=C2C1)NC3=NN=C(S3)NC(=O)C4=CC5=C(C=C4)C(=O)OC5=O
> <PUBCHEM_CACTVS_TPSA>
139
> <PUBCHEM_MONOISOTOPIC_WEIGHT>
420.08922618
> <PUBCHEM_TOTAL_CHARGE>
0
> <PUBCHEM_HEAVY_ATOM_COUNT>
30
> <PUBCHEM_ATOM_DEF_STEREO_COUNT>
0
> <PUBCHEM_ATOM_UDEF_STEREO_COUNT>
1
> <PUBCHEM_BOND_DEF_STEREO_COUNT>
0
> <PUBCHEM_BOND_UDEF_STEREO_COUNT>
0
> <PUBCHEM_ISOTOPIC_ATOM_COUNT>
0
> <PUBCHEM_COMPONENT_COUNT>
1
> <PUBCHEM_CACTVS_TAUTO_COUNT>
-1
> <PUBCHEM_COORDINATE_TYPE>
1
5
255
> <PUBCHEM_BONDANNOTATIONS>
1  20  8
1  21  8
14  15  8
14  16  8
15  17  8
16  18  8
17  19  8
18  19  8
22  24  8
22  25  8
23  25  8
23  27  8
24  28  8
27  28  8
10  6  3
7  20  8
7  8  8
8  21  8
$$$$
