509485
  -OEChem-10302200282D
 69 72  0     1  0  0  0  0  0999 V2000
    6.5512    7.9565    0.0000 F   0  0  0  0  0  0  0  0  0  0  0  0
    7.9158    7.5852    0.0000 F   0  0  0  0  0  0  0  0  0  0  0  0
    7.5445    6.2206    0.0000 F   0  0  0  0  0  0  0  0  0  0  0  0
    5.2619    2.0435    0.0000 O   0  0  0  0  0  0  0  0  0  0  0  0
    6.9939   -4.9565    0.0000 O   0  0  0  0  0  0  0  0  0  0  0  0
    4.3958   -6.4565    0.0000 O   0  0  0  0  0  0  0  0  0  0  0  0
    7.8600   -3.4565    0.0000 O   0  0  0  0  0  0  0  0  0  0  0  0
    4.3958   -2.4565    0.0000 O   0  0  0  0  0  0  0  0  0  0  0  0
    3.5298   -4.9565    0.0000 O   0  0  0  0  0  0  0  0  0  0  0  0
    3.5298    5.0435    0.0000 N   0  0  0  0  0  0  0  0  0  0  0  0
    5.2619    4.0435    0.0000 N   0  0  0  0  0  0  0  0  0  0  0  0
    6.1279   -2.4565    0.0000 N   0  0  0  0  0  0  0  0  0  0  0  0
    3.5298    4.0435    0.0000 C   0  0  0  0  0  0  0  0  0  0  0  0
    4.3958    5.5435    0.0000 C   0  0  0  0  0  0  0  0  0  0  0  0
    4.3958    3.5435    0.0000 C   0  0  0  0  0  0  0  0  0  0  0  0
    5.2619    5.0435    0.0000 C   0  0  0  0  0  0  0  0  0  0  0  0
    6.1279   -3.4565    0.0000 C   0  0  3  0  0  0  0  0  0  0  0  0
    5.2619   -3.9565    0.0000 C   0  0  0  0  0  0  0  0  0  0  0  0
    2.5836    5.3482    0.0000 C   0  0  0  0  0  0  0  0  0  0  0  0
    2.5836    3.7387    0.0000 C   0  0  0  0  0  0  0  0  0  0  0  0
    4.3958    2.5435    0.0000 C   0  0  0  0  0  0  0  0  0  0  0  0
    4.3798    6.5850    0.0000 C   0  0  0  0  0  0  0  0  0  0  0  0
    6.1719    5.5503    0.0000 C   0  0  0  0  0  0  0  0  0  0  0  0
    5.2619   -4.9565    0.0000 C   0  0  0  0  0  0  0  0  0  0  0  0
    2.0000    4.5435    0.0000 C   0  0  0  0  0  0  0  0  0  0  0  0
    6.1799    6.5919    0.0000 C   0  0  0  0  0  0  0  0  0  0  0  0
    5.2778    7.1127    0.0000 C   0  0  0  0  0  0  0  0  0  0  0  0
    6.9939   -3.9565    0.0000 C   0  0  0  0  0  0  0  0  0  0  0  0
    5.2619   -1.9565    0.0000 C   0  0  0  0  0  0  0  0  0  0  0  0
    5.2619   -0.9565    0.0000 C   0  0  0  0  0  0  0  0  0  0  0  0
    5.2619    1.0435    0.0000 C   0  0  0  0  0  0  0  0  0  0  0  0
    7.0479    7.0886    0.0000 C   0  0  0  0  0  0  0  0  0  0  0  0
    4.3958   -5.4565    0.0000 C   0  0  0  0  0  0  0  0  0  0  0  0
    4.3958   -0.4565    0.0000 C   0  0  0  0  0  0  0  0  0  0  0  0
    6.1279   -0.4565    0.0000 C   0  0  0  0  0  0  0  0  0  0  0  0
    4.3958    0.5435    0.0000 C   0  0  0  0  0  0  0  0  0  0  0  0
    6.1279    0.5435    0.0000 C   0  0  0  0  0  0  0  0  0  0  0  0
    7.8600   -5.4565    0.0000 C   0  0  0  0  0  0  0  0  0  0  0  0
    3.5298   -6.9565    0.0000 C   0  0  0  0  0  0  0  0  0  0  0  0
    7.8600   -6.4565    0.0000 C   0  0  0  0  0  0  0  0  0  0  0  0
    3.5298   -7.9565    0.0000 C   0  0  0  0  0  0  0  0  0  0  0  0
    6.6648   -3.1465    0.0000 H   0  0  0  0  0  0  0  0  0  0  0  0
    5.0498   -3.3739    0.0000 H   0  0  0  0  0  0  0  0  0  0  0  0
    4.6513   -4.0642    0.0000 H   0  0  0  0  0  0  0  0  0  0  0  0
    2.3910    5.9375    0.0000 H   0  0  0  0  0  0  0  0  0  0  0  0
    2.3910    3.1494    0.0000 H   0  0  0  0  0  0  0  0  0  0  0  0
    3.7853    2.6511    0.0000 H   0  0  0  0  0  0  0  0  0  0  0  0
    4.1838    1.9609    0.0000 H   0  0  0  0  0  0  0  0  0  0  0  0
    3.8393    6.8888    0.0000 H   0  0  0  0  0  0  0  0  0  0  0  0
    6.7052    5.2341    0.0000 H   0  0  0  0  0  0  0  0  0  0  0  0
    5.4739   -5.5391    0.0000 H   0  0  0  0  0  0  0  0  0  0  0  0
    5.8725   -4.8489    0.0000 H   0  0  0  0  0  0  0  0  0  0  0  0
    1.3800    4.5435    0.0000 H   0  0  0  0  0  0  0  0  0  0  0  0
    6.6648   -2.1465    0.0000 H   0  0  0  0  0  0  0  0  0  0  0  0
    5.2754    7.7327    0.0000 H   0  0  0  0  0  0  0  0  0  0  0  0
    3.8589   -0.7665    0.0000 H   0  0  0  0  0  0  0  0  0  0  0  0
    6.6648   -0.7665    0.0000 H   0  0  0  0  0  0  0  0  0  0  0  0
    3.8589    0.8535    0.0000 H   0  0  0  0  0  0  0  0  0  0  0  0
    6.6648    0.8535    0.0000 H   0  0  0  0  0  0  0  0  0  0  0  0
    8.4705   -5.5642    0.0000 H   0  0  0  0  0  0  0  0  0  0  0  0
    8.0720   -4.8739    0.0000 H   0  0  0  0  0  0  0  0  0  0  0  0
    3.3178   -6.3739    0.0000 H   0  0  0  0  0  0  0  0  0  0  0  0
    2.9192   -7.0642    0.0000 H   0  0  0  0  0  0  0  0  0  0  0  0
    7.2400   -6.4565    0.0000 H   0  0  0  0  0  0  0  0  0  0  0  0
    7.8600   -7.0765    0.0000 H   0  0  0  0  0  0  0  0  0  0  0  0
    8.4800   -6.4565    0.0000 H   0  0  0  0  0  0  0  0  0  0  0  0
    2.9098   -7.9565    0.0000 H   0  0  0  0  0  0  0  0  0  0  0  0
    3.5298   -8.5765    0.0000 H   0  0  0  0  0  0  0  0  0  0  0  0
    4.1498   -7.9565    0.0000 H   0  0  0  0  0  0  0  0  0  0  0  0
  1 32  1  0  0  0  0
  2 32  1  0  0  0  0
  3 32  1  0  0  0  0
  4 21  1  0  0  0  0
  4 31  1  0  0  0  0
  5 28  1  0  0  0  0
  5 38  1  0  0  0  0
  6 33  1  0  0  0  0
  6 39  1  0  0  0  0
  7 28  2  0  0  0  0
  8 29  2  0  0  0  0
  9 33  2  0  0  0  0
 10 13  1  0  0  0  0
 10 14  1  0  0  0  0
 10 19  1  0  0  0  0
 11 15  2  0  0  0  0
 11 16  1  0  0  0  0
 12 17  1  0  0  0  0
 12 29  1  0  0  0  0
 12 54  1  0  0  0  0
 13 15  1  0  0  0  0
 13 20  2  0  0  0  0
 14 16  2  0  0  0  0
 14 22  1  0  0  0  0
 15 21  1  0  0  0  0
 16 23  1  0  0  0  0
 17 18  1  0  0  0  0
 17 28  1  0  0  0  0
 17 42  1  0  0  0  0
 18 24  1  0  0  0  0
 18 43  1  0  0  0  0
 18 44  1  0  0  0  0
 19 25  2  0  0  0  0
 19 45  1  0  0  0  0
 20 25  1  0  0  0  0
 20 46  1  0  0  0  0
 21 47  1  0  0  0  0
 21 48  1  0  0  0  0
 22 27  2  0  0  0  0
 22 49  1  0  0  0  0
 23 26  2  0  0  0  0
 23 50  1  0  0  0  0
 24 33  1  0  0  0  0
 24 51  1  0  0  0  0
 24 52  1  0  0  0  0
 25 53  1  0  0  0  0
 26 27  1  0  0  0  0
 26 32  1  0  0  0  0
 27 55  1  0  0  0  0
 29 30  1  0  0  0  0
 30 34  2  0  0  0  0
 30 35  1  0  0  0  0
 31 36  2  0  0  0  0
 31 37  1  0  0  0  0
 34 36  1  0  0  0  0
 34 56  1  0  0  0  0
 35 37  2  0  0  0  0
 35 57  1  0  0  0  0
 36 58  1  0  0  0  0
 37 59  1  0  0  0  0
 38 40  1  0  0  0  0
 38 60  1  0  0  0  0
 38 61  1  0  0  0  0
 39 41  1  0  0  0  0
 39 62  1  0  0  0  0
 39 63  1  0  0  0  0
 40 64  1  0  0  0  0
 40 65  1  0  0  0  0
 40 66  1  0  0  0  0
 41 67  1  0  0  0  0
 41 68  1  0  0  0  0
 41 69  1  0  0  0  0
M  END
> <PUBCHEM_COMPOUND_CID>
509485
> <PUBCHEM_COMPOUND_CANONICALIZED>
1
> <PUBCHEM_CACTVS_COMPLEXITY>
898
> <PUBCHEM_CACTVS_HBOND_ACCEPTOR>
10
> <PUBCHEM_CACTVS_HBOND_DONOR>
1
> <PUBCHEM_CACTVS_ROTATABLE_BOND>
13
> <PUBCHEM_CACTVS_SUBSKEYS>
AAADceB7OYAAAAAAAAAAAAAAAAAAAWAAAAA8YIAAAAAAAFix9AAAHwAQAAAADCzhnhY+zrPMHACoAzX3XASCiCQ1MiAI2KG+fNgOZvLEtbuXOSjm1hHY6Ye8/grOKAAAQAAAACBQAACAAAAAQAAAAAAAAA==
> <PUBCHEM_IUPAC_OPENEYE_NAME>
diethyl 2-[[4-[[7-(trifluoromethyl)pyrrolo[1,2-a]quinoxalin-4-yl]methoxy]benzoyl]amino]pentanedioate
> <PUBCHEM_IUPAC_CAS_NAME>
2-[[oxo-[4-[[7-(trifluoromethyl)-4-pyrrolo[1,2-a]quinoxalinyl]methoxy]phenyl]methyl]amino]pentanedioic acid diethyl ester
> <PUBCHEM_IUPAC_NAME_MARKUP>
diethyl 2-[[4-[[7-(trifluoromethyl)pyrrolo[1,2-a]quinoxalin-4-yl]methoxy]benzoyl]amino]pentanedioate
> <PUBCHEM_IUPAC_NAME>
diethyl 2-[[4-[[7-(trifluoromethyl)pyrrolo[1,2-a]quinoxalin-4-yl]methoxy]benzoyl]amino]pentanedioate
> <PUBCHEM_IUPAC_SYSTEMATIC_NAME>
diethyl 2-[[4-[[7-(trifluoromethyl)pyrrolo[1,2-a]quinoxalin-4-yl]methoxy]phenyl]carbonylamino]pentanedioate
> <PUBCHEM_IUPAC_TRADITIONAL_NAME>
2-[[4-[[7-(trifluoromethyl)pyrrolo[1,2-a]quinoxalin-4-yl]methoxy]benzoyl]amino]glutaric acid diethyl ester
> <PUBCHEM_IUPAC_INCHI>
InChI=1S/C29H28F3N3O6/c1-3-39-26(36)14-12-21(28(38)40-4-2)34-27(37)18-7-10-20(11-8-18)41-17-23-24-6-5-15-35(24)25-13-9-19(29(30,31)32)16-22(25)33-23/h5-11,13,15-16,21H,3-4,12,14,17H2,1-2H3,(H,34,37)
> <PUBCHEM_IUPAC_INCHIKEY>
YCHAHTBDLWGUJQ-UHFFFAOYSA-N
> <PUBCHEM_XLOGP3_AA>
5.4
> <PUBCHEM_EXACT_MASS>
571.19302011
> <PUBCHEM_MOLECULAR_FORMULA>
C29H28F3N3O6
> <PUBCHEM_MOLECULAR_WEIGHT>
571.5
> <PUBCHEM_OPENEYE_CAN_SMILES>
CCOC(=O)CCC(C(=O)OCC)NC(=O)C1=CC=C(C=C1)OCC2=NC3=C(C=CC(=C3)C(F)(F)F)N4C2=CC=C4
> <PUBCHEM_OPENEYE_ISO_SMILES>
CCOC(=O)CCC(C(=O)OCC)NC(=O)C1=CC=C(C=C1)OCC2=NC3=C(C=CC(=C3)C(F)(F)F)N4C2=CC=C4
> <PUBCHEM_CACTVS_TPSA>
108
> <PUBCHEM_MONOISOTOPIC_WEIGHT>
571.19302011
> <PUBCHEM_TOTAL_CHARGE>
0
> <PUBCHEM_HEAVY_ATOM_COUNT>
41
> <PUBCHEM_ATOM_DEF_STEREO_COUNT>
0
> <PUBCHEM_ATOM_UDEF_STEREO_COUNT>
1
> <PUBCHEM_BOND_DEF_STEREO_COUNT>
0
> <PUBCHEM_BOND_UDEF_STEREO_COUNT>
0
> <PUBCHEM_ISOTOPIC_ATOM_COUNT>
0
> <PUBCHEM_COMPONENT_COUNT>
1
> <PUBCHEM_CACTVS_TAUTO_COUNT>
-1
> <PUBCHEM_COORDINATE_TYPE>
1
5
255
> <PUBCHEM_BONDANNOTATIONS>
10  13  8
10  14  8
10  19  8
11  15  8
11  16  8
13  15  8
13  20  8
14  16  8
14  22  8
16  23  8
17  18  3
19  25  8
20  25  8
22  27  8
23  26  8
26  27  8
30  34  8
30  35  8
31  36  8
31  37  8
34  36  8
35  37  8
$$$$
