509484
  -OEChem-10302200282D
 55 58  0     1  0  0  0  0  0999 V2000
    6.5512    5.5165    0.0000 F   0  0  0  0  0  0  0  0  0  0  0  0
    7.9158    5.1452    0.0000 F   0  0  0  0  0  0  0  0  0  0  0  0
    7.5445    3.7806    0.0000 F   0  0  0  0  0  0  0  0  0  0  0  0
    9.5920   -4.8965    0.0000 O   0  0  0  0  0  0  0  0  0  0  0  0
    8.7260   -1.3965    0.0000 O   0  0  0  0  0  0  0  0  0  0  0  0
    7.8600   -4.8965    0.0000 O   0  0  0  0  0  0  0  0  0  0  0  0
   12.1901   -3.3965    0.0000 O   0  0  0  0  0  0  0  0  0  0  0  0
   11.3241   -1.8965    0.0000 O   0  0  0  0  0  0  0  0  0  0  0  0
    3.5298    2.6035    0.0000 N   0  0  0  0  0  0  0  0  0  0  0  0
    5.2619    1.6035    0.0000 N   0  0  0  0  0  0  0  0  0  0  0  0
    4.3958    0.1035    0.0000 N   0  0  0  0  0  0  0  0  0  0  0  0
    7.8600   -2.8965    0.0000 N   0  0  0  0  0  0  0  0  0  0  0  0
    3.5298    1.6035    0.0000 C   0  0  0  0  0  0  0  0  0  0  0  0
    4.3958    3.1035    0.0000 C   0  0  0  0  0  0  0  0  0  0  0  0
    5.2619    2.6035    0.0000 C   0  0  0  0  0  0  0  0  0  0  0  0
    4.3958    1.1035    0.0000 C   0  0  0  0  0  0  0  0  0  0  0  0
    8.7260   -3.3965    0.0000 C   0  0  3  0  0  0  0  0  0  0  0  0
    2.5836    2.9082    0.0000 C   0  0  0  0  0  0  0  0  0  0  0  0
    9.5920   -2.8965    0.0000 C   0  0  0  0  0  0  0  0  0  0  0  0
    2.5836    1.2987    0.0000 C   0  0  0  0  0  0  0  0  0  0  0  0
    4.3798    4.1450    0.0000 C   0  0  0  0  0  0  0  0  0  0  0  0
    6.1719    3.1103    0.0000 C   0  0  0  0  0  0  0  0  0  0  0  0
    2.0000    2.1035    0.0000 C   0  0  0  0  0  0  0  0  0  0  0  0
    6.1799    4.1519    0.0000 C   0  0  0  0  0  0  0  0  0  0  0  0
    5.2619   -0.3965    0.0000 C   0  0  0  0  0  0  0  0  0  0  0  0
    5.2778    4.6727    0.0000 C   0  0  0  0  0  0  0  0  0  0  0  0
   10.4580   -3.3965    0.0000 C   0  0  0  0  0  0  0  0  0  0  0  0
    6.9939   -1.3965    0.0000 C   0  0  0  0  0  0  0  0  0  0  0  0
    7.8600   -1.8965    0.0000 C   0  0  0  0  0  0  0  0  0  0  0  0
    5.2619   -1.3965    0.0000 C   0  0  0  0  0  0  0  0  0  0  0  0
    6.1279    0.1035    0.0000 C   0  0  0  0  0  0  0  0  0  0  0  0
    8.7260   -4.3965    0.0000 C   0  0  0  0  0  0  0  0  0  0  0  0
    6.1279   -1.8965    0.0000 C   0  0  0  0  0  0  0  0  0  0  0  0
    6.9939   -0.3965    0.0000 C   0  0  0  0  0  0  0  0  0  0  0  0
    7.0479    4.6486    0.0000 C   0  0  0  0  0  0  0  0  0  0  0  0
   11.3241   -2.8965    0.0000 C   0  0  0  0  0  0  0  0  0  0  0  0
    8.7260   -2.7765    0.0000 H   0  0  0  0  0  0  0  0  0  0  0  0
    2.3910    3.4975    0.0000 H   0  0  0  0  0  0  0  0  0  0  0  0
    9.9905   -2.4216    0.0000 H   0  0  0  0  0  0  0  0  0  0  0  0
    9.1935   -2.4216    0.0000 H   0  0  0  0  0  0  0  0  0  0  0  0
    2.3910    0.7094    0.0000 H   0  0  0  0  0  0  0  0  0  0  0  0
    3.8393    4.4488    0.0000 H   0  0  0  0  0  0  0  0  0  0  0  0
    6.7052    2.7941    0.0000 H   0  0  0  0  0  0  0  0  0  0  0  0
    3.8589   -0.2065    0.0000 H   0  0  0  0  0  0  0  0  0  0  0  0
    1.3800    2.1035    0.0000 H   0  0  0  0  0  0  0  0  0  0  0  0
    5.2754    5.2927    0.0000 H   0  0  0  0  0  0  0  0  0  0  0  0
   10.0595   -3.8715    0.0000 H   0  0  0  0  0  0  0  0  0  0  0  0
   10.8566   -3.8715    0.0000 H   0  0  0  0  0  0  0  0  0  0  0  0
    7.3230   -3.2065    0.0000 H   0  0  0  0  0  0  0  0  0  0  0  0
    4.7249   -1.7065    0.0000 H   0  0  0  0  0  0  0  0  0  0  0  0
    6.1279    0.7235    0.0000 H   0  0  0  0  0  0  0  0  0  0  0  0
    6.1279   -2.5165    0.0000 H   0  0  0  0  0  0  0  0  0  0  0  0
    7.5309   -0.0865    0.0000 H   0  0  0  0  0  0  0  0  0  0  0  0
    9.5920   -5.5165    0.0000 H   0  0  0  0  0  0  0  0  0  0  0  0
   12.7270   -3.0865    0.0000 H   0  0  0  0  0  0  0  0  0  0  0  0
  1 35  1  0  0  0  0
  2 35  1  0  0  0  0
  3 35  1  0  0  0  0
  4 32  1  0  0  0  0
  4 54  1  0  0  0  0
  5 29  2  0  0  0  0
  6 32  2  0  0  0  0
  7 36  1  0  0  0  0
  7 55  1  0  0  0  0
  8 36  2  0  0  0  0
  9 13  1  0  0  0  0
  9 14  1  0  0  0  0
  9 18  1  0  0  0  0
 10 15  1  0  0  0  0
 10 16  2  0  0  0  0
 11 16  1  0  0  0  0
 11 25  1  0  0  0  0
 11 44  1  0  0  0  0
 12 17  1  0  0  0  0
 12 29  1  0  0  0  0
 12 49  1  0  0  0  0
 13 16  1  0  0  0  0
 13 20  2  0  0  0  0
 14 15  2  0  0  0  0
 14 21  1  0  0  0  0
 15 22  1  0  0  0  0
 17 19  1  0  0  0  0
 17 32  1  0  0  0  0
 17 37  1  0  0  0  0
 18 23  2  0  0  0  0
 18 38  1  0  0  0  0
 19 27  1  0  0  0  0
 19 39  1  0  0  0  0
 19 40  1  0  0  0  0
 20 23  1  0  0  0  0
 20 41  1  0  0  0  0
 21 26  2  0  0  0  0
 21 42  1  0  0  0  0
 22 24  2  0  0  0  0
 22 43  1  0  0  0  0
 23 45  1  0  0  0  0
 24 26  1  0  0  0  0
 24 35  1  0  0  0  0
 25 30  2  0  0  0  0
 25 31  1  0  0  0  0
 26 46  1  0  0  0  0
 27 36  1  0  0  0  0
 27 47  1  0  0  0  0
 27 48  1  0  0  0  0
 28 29  1  0  0  0  0
 28 33  2  0  0  0  0
 28 34  1  0  0  0  0
 30 33  1  0  0  0  0
 30 50  1  0  0  0  0
 31 34  2  0  0  0  0
 31 51  1  0  0  0  0
 33 52  1  0  0  0  0
 34 53  1  0  0  0  0
M  END
> <PUBCHEM_COMPOUND_CID>
509484
> <PUBCHEM_COMPOUND_CANONICALIZED>
1
> <PUBCHEM_CACTVS_COMPLEXITY>
820
> <PUBCHEM_CACTVS_HBOND_ACCEPTOR>
10
> <PUBCHEM_CACTVS_HBOND_DONOR>
4
> <PUBCHEM_CACTVS_ROTATABLE_BOND>
8
> <PUBCHEM_CACTVS_SUBSKEYS>
AAADceB7uYAAAAAAAAAAAAAAAAAAAWAAAAA8YIAAAAAAAFix9AAAHwAQCAAADCjBnhQ9+LPMGgCoAzf3fACCgC01EiAJ2KG4dNiKYPLAnbGUYQhslgLYyae8rwCeCAAAQAAAACAQAACAAAAAQAAAAAAAAA==
> <PUBCHEM_IUPAC_OPENEYE_NAME>
2-[[4-[[7-(trifluoromethyl)pyrrolo[1,2-a]quinoxalin-4-yl]amino]benzoyl]amino]pentanedioic acid
> <PUBCHEM_IUPAC_CAS_NAME>
2-[[oxo-[4-[[7-(trifluoromethyl)-4-pyrrolo[1,2-a]quinoxalinyl]amino]phenyl]methyl]amino]pentanedioic acid
> <PUBCHEM_IUPAC_NAME_MARKUP>
2-[[4-[[7-(trifluoromethyl)pyrrolo[1,2-a]quinoxalin-4-yl]amino]benzoyl]amino]pentanedioic acid
> <PUBCHEM_IUPAC_NAME>
2-[[4-[[7-(trifluoromethyl)pyrrolo[1,2-a]quinoxalin-4-yl]amino]benzoyl]amino]pentanedioic acid
> <PUBCHEM_IUPAC_SYSTEMATIC_NAME>
2-[[4-[[7-(trifluoromethyl)pyrrolo[1,2-a]quinoxalin-4-yl]amino]phenyl]carbonylamino]pentanedioic acid
> <PUBCHEM_IUPAC_TRADITIONAL_NAME>
2-[[4-[[7-(trifluoromethyl)pyrrolo[1,2-a]quinoxalin-4-yl]amino]benzoyl]amino]glutaric acid
> <PUBCHEM_IUPAC_INCHI>
InChI=1S/C24H19F3N4O5/c25-24(26,27)14-5-9-18-17(12-14)29-21(19-2-1-11-31(18)19)28-15-6-3-13(4-7-15)22(34)30-16(23(35)36)8-10-20(32)33/h1-7,9,11-12,16H,8,10H2,(H,28,29)(H,30,34)(H,32,33)(H,35,36)
> <PUBCHEM_IUPAC_INCHIKEY>
OKTBEQQZQQPECB-UHFFFAOYSA-N
> <PUBCHEM_XLOGP3_AA>
4.4
> <PUBCHEM_EXACT_MASS>
500.13075421
> <PUBCHEM_MOLECULAR_FORMULA>
C24H19F3N4O5
> <PUBCHEM_MOLECULAR_WEIGHT>
500.4
> <PUBCHEM_OPENEYE_CAN_SMILES>
C1=CN2C3=C(C=C(C=C3)C(F)(F)F)N=C(C2=C1)NC4=CC=C(C=C4)C(=O)NC(CCC(=O)O)C(=O)O
> <PUBCHEM_OPENEYE_ISO_SMILES>
C1=CN2C3=C(C=C(C=C3)C(F)(F)F)N=C(C2=C1)NC4=CC=C(C=C4)C(=O)NC(CCC(=O)O)C(=O)O
> <PUBCHEM_CACTVS_TPSA>
133
> <PUBCHEM_MONOISOTOPIC_WEIGHT>
500.13075421
> <PUBCHEM_TOTAL_CHARGE>
0
> <PUBCHEM_HEAVY_ATOM_COUNT>
36
> <PUBCHEM_ATOM_DEF_STEREO_COUNT>
0
> <PUBCHEM_ATOM_UDEF_STEREO_COUNT>
1
> <PUBCHEM_BOND_DEF_STEREO_COUNT>
0
> <PUBCHEM_BOND_UDEF_STEREO_COUNT>
0
> <PUBCHEM_ISOTOPIC_ATOM_COUNT>
0
> <PUBCHEM_COMPONENT_COUNT>
1
> <PUBCHEM_CACTVS_TAUTO_COUNT>
-1
> <PUBCHEM_COORDINATE_TYPE>
1
5
255
> <PUBCHEM_BONDANNOTATIONS>
10  15  8
10  16  8
13  16  8
13  20  8
14  15  8
14  21  8
15  22  8
17  19  3
18  23  8
20  23  8
21  26  8
22  24  8
24  26  8
25  30  8
25  31  8
28  33  8
28  34  8
30  33  8
31  34  8
9  13  8
9  14  8
9  18  8
$$$$
