509487
  -OEChem-10302200282D
 57 60  0     1  0  0  0  0  0999 V2000
    6.5512    7.3615    0.0000 F   0  0  0  0  0  0  0  0  0  0  0  0
    7.9158    6.9902    0.0000 F   0  0  0  0  0  0  0  0  0  0  0  0
    7.5445    5.6256    0.0000 F   0  0  0  0  0  0  0  0  0  0  0  0
    5.2619    1.4485    0.0000 O   0  0  0  0  0  0  0  0  0  0  0  0
    6.9939   -5.5515    0.0000 O   0  0  0  0  0  0  0  0  0  0  0  0
    4.3958   -3.0515    0.0000 O   0  0  0  0  0  0  0  0  0  0  0  0
    7.8600   -4.0515    0.0000 O   0  0  0  0  0  0  0  0  0  0  0  0
    4.3958   -7.0515    0.0000 O   0  0  0  0  0  0  0  0  0  0  0  0
    3.5298   -5.5515    0.0000 O   0  0  0  0  0  0  0  0  0  0  0  0
    3.5298    4.4485    0.0000 N   0  0  0  0  0  0  0  0  0  0  0  0
    5.2619    3.4485    0.0000 N   0  0  0  0  0  0  0  0  0  0  0  0
    6.1279   -3.0515    0.0000 N   0  0  0  0  0  0  0  0  0  0  0  0
    3.5298    3.4485    0.0000 C   0  0  0  0  0  0  0  0  0  0  0  0
    4.3958    4.9485    0.0000 C   0  0  0  0  0  0  0  0  0  0  0  0
    4.3958    2.9485    0.0000 C   0  0  0  0  0  0  0  0  0  0  0  0
    5.2619    4.4485    0.0000 C   0  0  0  0  0  0  0  0  0  0  0  0
    2.5836    4.7532    0.0000 C   0  0  0  0  0  0  0  0  0  0  0  0
    2.5836    3.1437    0.0000 C   0  0  0  0  0  0  0  0  0  0  0  0
    4.3958    1.9485    0.0000 C   0  0  0  0  0  0  0  0  0  0  0  0
    6.1279   -4.0515    0.0000 C   0  0  3  0  0  0  0  0  0  0  0  0
    4.3798    5.9900    0.0000 C   0  0  0  0  0  0  0  0  0  0  0  0
    5.2619   -4.5515    0.0000 C   0  0  0  0  0  0  0  0  0  0  0  0
    6.1719    4.9553    0.0000 C   0  0  0  0  0  0  0  0  0  0  0  0
    2.0000    3.9485    0.0000 C   0  0  0  0  0  0  0  0  0  0  0  0
    6.1799    5.9969    0.0000 C   0  0  0  0  0  0  0  0  0  0  0  0
    5.2778    6.5177    0.0000 C   0  0  0  0  0  0  0  0  0  0  0  0
    5.2619   -5.5515    0.0000 C   0  0  0  0  0  0  0  0  0  0  0  0
    5.2619    0.4485    0.0000 C   0  0  0  0  0  0  0  0  0  0  0  0
    7.0479    6.4936    0.0000 C   0  0  0  0  0  0  0  0  0  0  0  0
    5.2619   -1.5515    0.0000 C   0  0  0  0  0  0  0  0  0  0  0  0
    5.2619   -2.5515    0.0000 C   0  0  0  0  0  0  0  0  0  0  0  0
    6.9939   -4.5515    0.0000 C   0  0  0  0  0  0  0  0  0  0  0  0
    4.3958   -0.0515    0.0000 C   0  0  0  0  0  0  0  0  0  0  0  0
    6.1279   -0.0515    0.0000 C   0  0  0  0  0  0  0  0  0  0  0  0
    4.3958   -1.0515    0.0000 C   0  0  0  0  0  0  0  0  0  0  0  0
    6.1279   -1.0515    0.0000 C   0  0  0  0  0  0  0  0  0  0  0  0
    4.3958   -6.0515    0.0000 C   0  0  0  0  0  0  0  0  0  0  0  0
    2.3910    5.3425    0.0000 H   0  0  0  0  0  0  0  0  0  0  0  0
    2.3910    2.5544    0.0000 H   0  0  0  0  0  0  0  0  0  0  0  0
    6.6648   -3.7415    0.0000 H   0  0  0  0  0  0  0  0  0  0  0  0
    3.7853    2.0561    0.0000 H   0  0  0  0  0  0  0  0  0  0  0  0
    4.1838    1.3659    0.0000 H   0  0  0  0  0  0  0  0  0  0  0  0
    3.8393    6.2938    0.0000 H   0  0  0  0  0  0  0  0  0  0  0  0
    5.0498   -3.9689    0.0000 H   0  0  0  0  0  0  0  0  0  0  0  0
    4.6513   -4.6592    0.0000 H   0  0  0  0  0  0  0  0  0  0  0  0
    6.7052    4.6391    0.0000 H   0  0  0  0  0  0  0  0  0  0  0  0
    1.3800    3.9485    0.0000 H   0  0  0  0  0  0  0  0  0  0  0  0
    5.2754    7.1377    0.0000 H   0  0  0  0  0  0  0  0  0  0  0  0
    5.4739   -6.1341    0.0000 H   0  0  0  0  0  0  0  0  0  0  0  0
    5.8725   -5.4439    0.0000 H   0  0  0  0  0  0  0  0  0  0  0  0
    6.6648   -2.7415    0.0000 H   0  0  0  0  0  0  0  0  0  0  0  0
    3.8589    0.2585    0.0000 H   0  0  0  0  0  0  0  0  0  0  0  0
    6.6648    0.2585    0.0000 H   0  0  0  0  0  0  0  0  0  0  0  0
    3.8589   -1.3615    0.0000 H   0  0  0  0  0  0  0  0  0  0  0  0
    6.6648   -1.3615    0.0000 H   0  0  0  0  0  0  0  0  0  0  0  0
    7.5309   -5.8615    0.0000 H   0  0  0  0  0  0  0  0  0  0  0  0
    3.8589   -7.3615    0.0000 H   0  0  0  0  0  0  0  0  0  0  0  0
  1 29  1  0  0  0  0
  2 29  1  0  0  0  0
  3 29  1  0  0  0  0
  4 19  1  0  0  0  0
  4 28  1  0  0  0  0
  5 32  1  0  0  0  0
  5 56  1  0  0  0  0
  6 31  2  0  0  0  0
  7 32  2  0  0  0  0
  8 37  1  0  0  0  0
  8 57  1  0  0  0  0
  9 37  2  0  0  0  0
 10 13  1  0  0  0  0
 10 14  1  0  0  0  0
 10 17  1  0  0  0  0
 11 15  2  0  0  0  0
 11 16  1  0  0  0  0
 12 20  1  0  0  0  0
 12 31  1  0  0  0  0
 12 51  1  0  0  0  0
 13 15  1  0  0  0  0
 13 18  2  0  0  0  0
 14 16  2  0  0  0  0
 14 21  1  0  0  0  0
 15 19  1  0  0  0  0
 16 23  1  0  0  0  0
 17 24  2  0  0  0  0
 17 38  1  0  0  0  0
 18 24  1  0  0  0  0
 18 39  1  0  0  0  0
 19 41  1  0  0  0  0
 19 42  1  0  0  0  0
 20 22  1  0  0  0  0
 20 32  1  0  0  0  0
 20 40  1  0  0  0  0
 21 26  2  0  0  0  0
 21 43  1  0  0  0  0
 22 27  1  0  0  0  0
 22 44  1  0  0  0  0
 22 45  1  0  0  0  0
 23 25  2  0  0  0  0
 23 46  1  0  0  0  0
 24 47  1  0  0  0  0
 25 26  1  0  0  0  0
 25 29  1  0  0  0  0
 26 48  1  0  0  0  0
 27 37  1  0  0  0  0
 27 49  1  0  0  0  0
 27 50  1  0  0  0  0
 28 33  2  0  0  0  0
 28 34  1  0  0  0  0
 30 31  1  0  0  0  0
 30 35  2  0  0  0  0
 30 36  1  0  0  0  0
 33 35  1  0  0  0  0
 33 52  1  0  0  0  0
 34 36  2  0  0  0  0
 34 53  1  0  0  0  0
 35 54  1  0  0  0  0
 36 55  1  0  0  0  0
M  END
> <PUBCHEM_COMPOUND_CID>
509487
> <PUBCHEM_COMPOUND_CANONICALIZED>
1
> <PUBCHEM_CACTVS_COMPLEXITY>
835
> <PUBCHEM_CACTVS_HBOND_ACCEPTOR>
10
> <PUBCHEM_CACTVS_HBOND_DONOR>
3
> <PUBCHEM_CACTVS_ROTATABLE_BOND>
9
> <PUBCHEM_CACTVS_SUBSKEYS>
AAADceB7OYAAAAAAAAAAAAAAAAAAAWAAAAA8YIAAAAAAAFix9AAAHwAQCAAADCzhnhY8zrPMHgCoAzX3XASCiCQ1MiAI2KG+fNgOZvLEtbuXeSjm1hHY6Ye8/gLOKAAAQAAAACBQAACAAAAAQAAAAAAAAA==
> <PUBCHEM_IUPAC_OPENEYE_NAME>
2-[[4-[[7-(trifluoromethyl)pyrrolo[1,2-a]quinoxalin-4-yl]methoxy]benzoyl]amino]pentanedioic acid
> <PUBCHEM_IUPAC_CAS_NAME>
2-[[oxo-[4-[[7-(trifluoromethyl)-4-pyrrolo[1,2-a]quinoxalinyl]methoxy]phenyl]methyl]amino]pentanedioic acid
> <PUBCHEM_IUPAC_NAME_MARKUP>
2-[[4-[[7-(trifluoromethyl)pyrrolo[1,2-a]quinoxalin-4-yl]methoxy]benzoyl]amino]pentanedioic acid
> <PUBCHEM_IUPAC_NAME>
2-[[4-[[7-(trifluoromethyl)pyrrolo[1,2-a]quinoxalin-4-yl]methoxy]benzoyl]amino]pentanedioic acid
> <PUBCHEM_IUPAC_SYSTEMATIC_NAME>
2-[[4-[[7-(trifluoromethyl)pyrrolo[1,2-a]quinoxalin-4-yl]methoxy]phenyl]carbonylamino]pentanedioic acid
> <PUBCHEM_IUPAC_TRADITIONAL_NAME>
2-[[4-[[7-(trifluoromethyl)pyrrolo[1,2-a]quinoxalin-4-yl]methoxy]benzoyl]amino]glutaric acid
> <PUBCHEM_IUPAC_INCHI>
InChI=1S/C25H20F3N3O6/c26-25(27,28)15-5-9-21-18(12-15)29-19(20-2-1-11-31(20)21)13-37-16-6-3-14(4-7-16)23(34)30-17(24(35)36)8-10-22(32)33/h1-7,9,11-12,17H,8,10,13H2,(H,30,34)(H,32,33)(H,35,36)
> <PUBCHEM_IUPAC_INCHIKEY>
VLZKKQRVRCNHPR-UHFFFAOYSA-N
> <PUBCHEM_XLOGP3_AA>
4
> <PUBCHEM_EXACT_MASS>
515.13041985
> <PUBCHEM_MOLECULAR_FORMULA>
C25H20F3N3O6
> <PUBCHEM_MOLECULAR_WEIGHT>
515.4
> <PUBCHEM_OPENEYE_CAN_SMILES>
C1=CN2C3=C(C=C(C=C3)C(F)(F)F)N=C(C2=C1)COC4=CC=C(C=C4)C(=O)NC(CCC(=O)O)C(=O)O
> <PUBCHEM_OPENEYE_ISO_SMILES>
C1=CN2C3=C(C=C(C=C3)C(F)(F)F)N=C(C2=C1)COC4=CC=C(C=C4)C(=O)NC(CCC(=O)O)C(=O)O
> <PUBCHEM_CACTVS_TPSA>
130
> <PUBCHEM_MONOISOTOPIC_WEIGHT>
515.13041985
> <PUBCHEM_TOTAL_CHARGE>
0
> <PUBCHEM_HEAVY_ATOM_COUNT>
37
> <PUBCHEM_ATOM_DEF_STEREO_COUNT>
0
> <PUBCHEM_ATOM_UDEF_STEREO_COUNT>
1
> <PUBCHEM_BOND_DEF_STEREO_COUNT>
0
> <PUBCHEM_BOND_UDEF_STEREO_COUNT>
0
> <PUBCHEM_ISOTOPIC_ATOM_COUNT>
0
> <PUBCHEM_COMPONENT_COUNT>
1
> <PUBCHEM_CACTVS_TAUTO_COUNT>
-1
> <PUBCHEM_COORDINATE_TYPE>
1
5
255
> <PUBCHEM_BONDANNOTATIONS>
10  13  8
10  14  8
10  17  8
11  15  8
11  16  8
13  15  8
13  18  8
14  16  8
14  21  8
16  23  8
17  24  8
18  24  8
20  22  3
21  26  8
23  25  8
25  26  8
28  33  8
28  34  8
30  35  8
30  36  8
33  35  8
34  36  8
$$$$
