509442
  -OEChem-10302200282D
 88 90  0     1  0  0  0  0  0999 V2000
    3.3046    5.6803    0.0000 S   0  0  0  0  0  0  0  0  0  0  0  0
    4.5233    2.9430    0.0000 O   0  0  0  0  0  0  0  0  0  0  0  0
    4.0577    7.2954    0.0000 N   0  0  0  0  0  0  0  0  0  0  0  0
    4.9216    5.7368    0.0000 N   0  0  0  0  0  0  0  0  0  0  0  0
    4.6460    4.7755    0.0000 N   0  0  0  0  0  0  0  0  0  0  0  0
    3.0874    3.9116    0.0000 N   0  0  0  0  0  0  0  0  0  0  0  0
    7.4908    9.6992    0.0000 C   0  0  0  0  0  0  0  0  0  0  0  0
    6.0918    9.6904    0.0000 C   0  0  3  0  0  0  0  0  0  0  0  0
    6.3507   10.6563    0.0000 C   0  0  3  0  0  0  0  0  0  0  0  0
    5.6141   11.6389    0.0000 C   0  0  0  0  0  0  0  0  0  0  0  0
    4.8708    8.8247    0.0000 C   0  0  1  0  0  0  0  0  0  0  0  0
    4.3174   10.3451    0.0000 C   0  0  0  0  0  0  0  0  0  0  0  0
    4.0418    9.3839    0.0000 C   0  0  0  0  0  0  0  0  0  0  0  0
    7.9908    8.8331    0.0000 C   0  0  0  0  0  0  0  0  0  0  0  0
    8.3568   10.1992    0.0000 C   0  0  0  0  0  0  0  0  0  0  0  0
    4.9057    7.8253    0.0000 C   0  0  0  0  0  0  0  0  0  0  0  0
    4.0926    6.2960    0.0000 C   0  0  0  0  0  0  0  0  0  0  0  0
    3.6466    4.7406    0.0000 C   0  0  0  0  0  0  0  0  0  0  0  0
    3.5258    3.0128    0.0000 C   0  0  0  0  0  0  0  0  0  0  0  0
    2.9666    2.1838    0.0000 C   0  0  0  0  0  0  0  0  0  0  0  0
    3.4050    1.2850    0.0000 C   0  0  0  0  0  0  0  0  0  0  0  0
    2.8457    0.4559    0.0000 C   0  0  0  0  0  0  0  0  0  0  0  0
    3.2841   -0.4429    0.0000 C   0  0  0  0  0  0  0  0  0  0  0  0
    2.7249   -1.2719    0.0000 C   0  0  0  0  0  0  0  0  0  0  0  0
    3.1633   -2.1707    0.0000 C   0  0  0  0  0  0  0  0  0  0  0  0
    2.2416   -8.1832    0.0000 C   0  0  0  0  0  0  0  0  0  0  0  0
    2.8008   -7.3542    0.0000 C   0  0  0  0  0  0  0  0  0  0  0  0
    2.6800   -9.0820    0.0000 C   0  0  0  0  0  0  0  0  0  0  0  0
    2.3625   -6.4554    0.0000 C   0  0  0  0  0  0  0  0  0  0  0  0
    2.6041   -2.9997    0.0000 C   0  0  0  0  0  0  0  0  0  0  0  0
    2.1208   -9.9111    0.0000 C   0  0  0  0  0  0  0  0  0  0  0  0
    2.9217   -5.6264    0.0000 C   0  0  0  0  0  0  0  0  0  0  0  0
    3.0425   -3.8985    0.0000 C   0  0  0  0  0  0  0  0  0  0  0  0
    2.5592  -10.8099    0.0000 C   0  0  0  0  0  0  0  0  0  0  0  0
    2.4833   -4.7276    0.0000 C   0  0  0  0  0  0  0  0  0  0  0  0
    2.0000  -11.6389    0.0000 C   0  0  0  0  0  0  0  0  0  0  0  0
    6.2819    9.1002    0.0000 H   0  0  0  0  0  0  0  0  0  0  0  0
    6.8010   11.0824    0.0000 H   0  0  0  0  0  0  0  0  0  0  0  0
    5.9319   12.1712    0.0000 H   0  0  0  0  0  0  0  0  0  0  0  0
    5.0009   11.7308    0.0000 H   0  0  0  0  0  0  0  0  0  0  0  0
    4.3286    8.5241    0.0000 H   0  0  0  0  0  0  0  0  0  0  0  0
    4.3124   10.9651    0.0000 H   0  0  0  0  0  0  0  0  0  0  0  0
    3.7031   10.4289    0.0000 H   0  0  0  0  0  0  0  0  0  0  0  0
    3.4669    9.6161    0.0000 H   0  0  0  0  0  0  0  0  0  0  0  0
    3.7507    8.8364    0.0000 H   0  0  0  0  0  0  0  0  0  0  0  0
    7.4538    8.5231    0.0000 H   0  0  0  0  0  0  0  0  0  0  0  0
    8.3008    8.2962    0.0000 H   0  0  0  0  0  0  0  0  0  0  0  0
    8.5277    9.1431    0.0000 H   0  0  0  0  0  0  0  0  0  0  0  0
    8.6668    9.6622    0.0000 H   0  0  0  0  0  0  0  0  0  0  0  0
    8.8938   10.5092    0.0000 H   0  0  0  0  0  0  0  0  0  0  0  0
    8.0468   10.7361    0.0000 H   0  0  0  0  0  0  0  0  0  0  0  0
    5.1380    7.2504    0.0000 H   0  0  0  0  0  0  0  0  0  0  0  0
    5.5122    7.9542    0.0000 H   0  0  0  0  0  0  0  0  0  0  0  0
    3.5102    7.5864    0.0000 H   0  0  0  0  0  0  0  0  0  0  0  0
    2.4689    3.9548    0.0000 H   0  0  0  0  0  0  0  0  0  0  0  0
    2.5206    2.6144    0.0000 H   0  0  0  0  0  0  0  0  0  0  0  0
    2.4650    1.8193    0.0000 H   0  0  0  0  0  0  0  0  0  0  0  0
    3.8509    0.8543    0.0000 H   0  0  0  0  0  0  0  0  0  0  0  0
    3.9065    1.6494    0.0000 H   0  0  0  0  0  0  0  0  0  0  0  0
    2.3998    0.8866    0.0000 H   0  0  0  0  0  0  0  0  0  0  0  0
    2.3442    0.0915    0.0000 H   0  0  0  0  0  0  0  0  0  0  0  0
    3.7301   -0.8736    0.0000 H   0  0  0  0  0  0  0  0  0  0  0  0
    3.7857   -0.0784    0.0000 H   0  0  0  0  0  0  0  0  0  0  0  0
    2.2789   -0.8412    0.0000 H   0  0  0  0  0  0  0  0  0  0  0  0
    2.2233   -1.6363    0.0000 H   0  0  0  0  0  0  0  0  0  0  0  0
    3.6093   -2.6014    0.0000 H   0  0  0  0  0  0  0  0  0  0  0  0
    3.6649   -1.8063    0.0000 H   0  0  0  0  0  0  0  0  0  0  0  0
    1.7956   -7.7525    0.0000 H   0  0  0  0  0  0  0  0  0  0  0  0
    1.7400   -8.5477    0.0000 H   0  0  0  0  0  0  0  0  0  0  0  0
    3.2468   -7.7849    0.0000 H   0  0  0  0  0  0  0  0  0  0  0  0
    3.3024   -6.9898    0.0000 H   0  0  0  0  0  0  0  0  0  0  0  0
    3.1260   -9.5127    0.0000 H   0  0  0  0  0  0  0  0  0  0  0  0
    3.1816   -8.7176    0.0000 H   0  0  0  0  0  0  0  0  0  0  0  0
    1.9165   -6.0247    0.0000 H   0  0  0  0  0  0  0  0  0  0  0  0
    1.8609   -6.8198    0.0000 H   0  0  0  0  0  0  0  0  0  0  0  0
    2.1581   -2.5690    0.0000 H   0  0  0  0  0  0  0  0  0  0  0  0
    2.1025   -3.3642    0.0000 H   0  0  0  0  0  0  0  0  0  0  0  0
    1.6748   -9.4804    0.0000 H   0  0  0  0  0  0  0  0  0  0  0  0
    1.6192  -10.2755    0.0000 H   0  0  0  0  0  0  0  0  0  0  0  0
    3.3676   -6.0570    0.0000 H   0  0  0  0  0  0  0  0  0  0  0  0
    3.4232   -5.2619    0.0000 H   0  0  0  0  0  0  0  0  0  0  0  0
    3.6610   -3.9418    0.0000 H   0  0  0  0  0  0  0  0  0  0  0  0
    3.0052  -11.2405    0.0000 H   0  0  0  0  0  0  0  0  0  0  0  0
    3.0608  -10.4454    0.0000 H   0  0  0  0  0  0  0  0  0  0  0  0
    1.8648   -4.6843    0.0000 H   0  0  0  0  0  0  0  0  0  0  0  0
    1.4860  -11.2922    0.0000 H   0  0  0  0  0  0  0  0  0  0  0  0
    1.6533  -12.1529    0.0000 H   0  0  0  0  0  0  0  0  0  0  0  0
    2.5140  -11.9856    0.0000 H   0  0  0  0  0  0  0  0  0  0  0  0
  1 17  1  0  0  0  0
  1 18  1  0  0  0  0
  2 19  2  0  0  0  0
  3 16  1  0  0  0  0
  3 17  1  0  0  0  0
  3 54  1  0  0  0  0
  4  5  1  0  0  0  0
  4 17  2  0  0  0  0
  5 18  2  0  0  0  0
  6 18  1  0  0  0  0
  6 19  1  0  0  0  0
  6 55  1  0  0  0  0
  7  8  1  0  0  0  0
  7  9  1  0  0  0  0
  7 14  1  0  0  0  0
  7 15  1  0  0  0  0
  8 10  1  0  0  0  0
  8 11  1  0  0  0  0
  8 37  1  0  0  0  0
  9 10  1  0  0  0  0
  9 12  1  0  0  0  0
  9 38  1  0  0  0  0
 10 39  1  0  0  0  0
 10 40  1  0  0  0  0
 11 13  1  0  0  0  0
 11 16  1  6  0  0  0
 11 41  1  0  0  0  0
 12 13  1  0  0  0  0
 12 42  1  0  0  0  0
 12 43  1  0  0  0  0
 13 44  1  0  0  0  0
 13 45  1  0  0  0  0
 14 46  1  0  0  0  0
 14 47  1  0  0  0  0
 14 48  1  0  0  0  0
 15 49  1  0  0  0  0
 15 50  1  0  0  0  0
 15 51  1  0  0  0  0
 16 52  1  0  0  0  0
 16 53  1  0  0  0  0
 19 20  1  0  0  0  0
 20 21  1  0  0  0  0
 20 56  1  0  0  0  0
 20 57  1  0  0  0  0
 21 22  1  0  0  0  0
 21 58  1  0  0  0  0
 21 59  1  0  0  0  0
 22 23  1  0  0  0  0
 22 60  1  0  0  0  0
 22 61  1  0  0  0  0
 23 24  1  0  0  0  0
 23 62  1  0  0  0  0
 23 63  1  0  0  0  0
 24 25  1  0  0  0  0
 24 64  1  0  0  0  0
 24 65  1  0  0  0  0
 25 30  1  0  0  0  0
 25 66  1  0  0  0  0
 25 67  1  0  0  0  0
 26 27  1  0  0  0  0
 26 28  1  0  0  0  0
 26 68  1  0  0  0  0
 26 69  1  0  0  0  0
 27 29  1  0  0  0  0
 27 70  1  0  0  0  0
 27 71  1  0  0  0  0
 28 31  1  0  0  0  0
 28 72  1  0  0  0  0
 28 73  1  0  0  0  0
 29 32  1  0  0  0  0
 29 74  1  0  0  0  0
 29 75  1  0  0  0  0
 30 33  1  0  0  0  0
 30 76  1  0  0  0  0
 30 77  1  0  0  0  0
 31 34  1  0  0  0  0
 31 78  1  0  0  0  0
 31 79  1  0  0  0  0
 32 35  1  0  0  0  0
 32 80  1  0  0  0  0
 32 81  1  0  0  0  0
 33 35  2  3  0  0  0
 33 82  1  0  0  0  0
 34 36  1  0  0  0  0
 34 83  1  0  0  0  0
 34 84  1  0  0  0  0
 35 85  1  0  0  0  0
 36 86  1  0  0  0  0
 36 87  1  0  0  0  0
 36 88  1  0  0  0  0
M  END
> <PUBCHEM_COMPOUND_CID>
509442
> <PUBCHEM_COMPOUND_CANONICALIZED>
1
> <PUBCHEM_CACTVS_COMPLEXITY>
655
> <PUBCHEM_CACTVS_HBOND_ACCEPTOR>
5
> <PUBCHEM_CACTVS_HBOND_DONOR>
2
> <PUBCHEM_CACTVS_ROTATABLE_BOND>
19
> <PUBCHEM_CACTVS_SUBSKEYS>
AAADcfB7oABAAAAAAAAAAAAAAABgAWAAAAAwYAAAAAAAAAABgAAAHgQYAAAADwDBgAQDEALAAAiuACFSMAAQAAJgAAkNCIEIAAiAABIAiQAEAAAQkQIIAAMYiMCPgAAAAAAAAACAAAQAACAAAAAAAAAAAA==
> <PUBCHEM_IUPAC_OPENEYE_NAME>
N-[5-[[(2R)-6,6-dimethylnorpinan-2-yl]methylamino]-1,3,4-thiadiazol-2-yl]octadec-9-enamide
> <PUBCHEM_IUPAC_CAS_NAME>
N-[5-[[(2R)-6,6-dimethyl-2-bicyclo[3.1.1]heptanyl]methylamino]-1,3,4-thiadiazol-2-yl]-9-octadecenamide
> <PUBCHEM_IUPAC_NAME_MARKUP>
<I>N</I>-[5-[[(2<I>R</I>)-6,6-dimethyl-2-bicyclo[3.1.1]heptanyl]methylamino]-1,3,4-thiadiazol-2-yl]octadec-9-enamide
> <PUBCHEM_IUPAC_NAME>
N-[5-[[(2R)-6,6-dimethyl-2-bicyclo[3.1.1]heptanyl]methylamino]-1,3,4-thiadiazol-2-yl]octadec-9-enamide
> <PUBCHEM_IUPAC_SYSTEMATIC_NAME>
N-[5-[[(2R)-6,6-dimethyl-2-bicyclo[3.1.1]heptanyl]methylamino]-1,3,4-thiadiazol-2-yl]octadec-9-enamide
> <PUBCHEM_IUPAC_TRADITIONAL_NAME>
N-[5-[[(2R)-6,6-dimethylnorpinan-2-yl]methylamino]-1,3,4-thiadiazol-2-yl]octadec-9-enamide
> <PUBCHEM_IUPAC_INCHI>
InChI=1S/C30H52N4OS/c1-4-5-6-7-8-9-10-11-12-13-14-15-16-17-18-19-27(35)32-29-34-33-28(36-29)31-23-24-20-21-25-22-26(24)30(25,2)3/h11-12,24-26H,4-10,13-23H2,1-3H3,(H,31,33)(H,32,34,35)/t24-,25?,26?/m0/s1
> <PUBCHEM_IUPAC_INCHIKEY>
NMHZNKHSGRXKDB-IHSPPPAMSA-N
> <PUBCHEM_XLOGP3_AA>
10.6
> <PUBCHEM_EXACT_MASS>
516.38618347
> <PUBCHEM_MOLECULAR_FORMULA>
C30H52N4OS
> <PUBCHEM_MOLECULAR_WEIGHT>
516.8
> <PUBCHEM_OPENEYE_CAN_SMILES>
CCCCCCCCC=CCCCCCCCC(=O)NC1=NN=C(S1)NCC2CCC3CC2C3(C)C
> <PUBCHEM_OPENEYE_ISO_SMILES>
CCCCCCCCC=CCCCCCCCC(=O)NC1=NN=C(S1)NC[C@@H]2CCC3CC2C3(C)C
> <PUBCHEM_CACTVS_TPSA>
95.2
> <PUBCHEM_MONOISOTOPIC_WEIGHT>
516.38618347
> <PUBCHEM_TOTAL_CHARGE>
0
> <PUBCHEM_HEAVY_ATOM_COUNT>
36
> <PUBCHEM_ATOM_DEF_STEREO_COUNT>
1
> <PUBCHEM_ATOM_UDEF_STEREO_COUNT>
2
> <PUBCHEM_BOND_DEF_STEREO_COUNT>
0
> <PUBCHEM_BOND_UDEF_STEREO_COUNT>
1
> <PUBCHEM_ISOTOPIC_ATOM_COUNT>
0
> <PUBCHEM_COMPONENT_COUNT>
1
> <PUBCHEM_CACTVS_TAUTO_COUNT>
-1
> <PUBCHEM_COORDINATE_TYPE>
1
5
255
> <PUBCHEM_BONDANNOTATIONS>
1  17  8
1  18  8
11  16  6
33  35  1
4  17  8
4  5  8
5  18  8
8  10  3
9  12  3
$$$$
