509530
  -OEChem-10302200282D
110117  0     1  0  0  0  0  0999 V2000
   10.6602    2.6549    0.0000 Cl  0  0  0  0  0  0  0  0  0  0  0  0
    3.1585    2.4742    0.0000 O   0  0  0  0  0  0  0  0  0  0  0  0
    4.5954    1.1502    0.0000 O   0  0  0  0  0  0  0  0  0  0  0  0
    7.1962    3.6550    0.0000 O   0  0  0  0  0  0  0  0  0  0  0  0
    2.0000    0.6550    0.0000 O   0  0  0  0  0  0  0  0  0  0  0  0
    8.0609   -0.8450    0.0000 O   0  0  0  0  0  0  0  0  0  0  0  0
   10.6603    3.6550    0.0000 O   0  0  0  0  0  0  0  0  0  0  0  0
    6.3301   -3.8450    0.0000 O   0  0  0  0  0  0  0  0  0  0  0  0
    5.4641   -4.3450    0.0000 O   0  0  0  0  0  0  0  0  0  0  0  0
   10.6603    1.6550    0.0000 O   0  0  0  0  0  0  0  0  0  0  0  0
   14.8315    2.3621    0.0000 O   0  0  0  0  0  0  0  0  0  0  0  0
    5.3574   -1.9436    0.0000 O   0  0  0  0  0  0  0  0  0  0  0  0
    2.0000   -4.3450    0.0000 O   0  0  0  0  0  0  0  0  0  0  0  0
    5.4860   -0.5353    0.0000 O   0  0  0  0  0  0  0  0  0  0  0  0
    8.9282    4.6550    0.0000 O   0  0  0  0  0  0  0  0  0  0  0  0
   13.2583   -0.8450    0.0000 O   0  0  0  0  0  0  0  0  0  0  0  0
   10.6811   -1.6576    0.0000 O   0  0  0  0  0  0  0  0  0  0  0  0
    4.5981    0.1550    0.0000 N   0  0  0  0  0  0  0  0  0  0  0  0
    7.1962    0.6550    0.0000 N   0  0  0  0  0  0  0  0  0  0  0  0
    2.8660   -0.8450    0.0000 N   0  0  0  0  0  0  0  0  0  0  0  0
    9.7942    0.1550    0.0000 N   0  0  0  0  0  0  0  0  0  0  0  0
   12.3923    0.6550    0.0000 N   0  0  0  0  0  0  0  0  0  0  0  0
   15.0903    0.3962    0.0000 N   0  0  0  0  0  0  0  0  0  0  0  0
   12.2509   -2.3896    0.0000 N   0  0  0  0  0  0  0  0  0  0  0  0
    3.7321    0.6550    0.0000 C   0  0  1  0  0  0  0  0  0  0  0  0
    6.3301    0.1550    0.0000 C   0  0  2  0  0  0  0  0  0  0  0  0
    3.7321    1.6550    0.0000 C   0  0  1  0  0  0  0  0  0  0  0  0
    6.3301   -0.8450    0.0000 C   0  0  0  0  0  0  0  0  0  0  0  0
    8.9282    0.6550    0.0000 C   0  0  1  0  0  0  0  0  0  0  0  0
    3.7320   -1.3450    0.0000 C   0  0  1  0  0  0  0  0  0  0  0  0
    5.4641    0.6550    0.0000 C   0  0  0  0  0  0  0  0  0  0  0  0
    2.8660    0.1550    0.0000 C   0  0  0  0  0  0  0  0  0  0  0  0
    3.7320   -2.3450    0.0000 C   0  0  0  0  0  0  0  0  0  0  0  0
    4.5981   -2.8450    0.0000 C   0  0  0  0  0  0  0  0  0  0  0  0
    5.4641   -2.3450    0.0000 C   0  0  0  0  0  0  0  0  0  0  0  0
    4.5981    2.1550    0.0000 C   0  0  0  0  0  0  0  0  0  0  0  0
    5.4641   -1.3450    0.0000 C   0  0  0  0  0  0  0  0  0  0  0  0
    8.0622    0.1550    0.0000 C   0  0  0  0  0  0  0  0  0  0  0  0
    8.9282    1.6550    0.0000 C   0  0  0  0  0  0  0  0  0  0  0  0
   11.5263    0.1550    0.0000 C   0  0  2  0  0  0  0  0  0  0  0  0
    7.1962   -1.3450    0.0000 C   0  0  0  0  0  0  0  0  0  0  0  0
    6.3301   -2.8450    0.0000 C   0  0  0  0  0  0  0  0  0  0  0  0
   10.6603    0.6550    0.0000 C   0  0  0  0  0  0  0  0  0  0  0  0
    4.5981   -3.8450    0.0000 C   0  0  0  0  0  0  0  0  0  0  0  0
    2.8660   -2.8450    0.0000 C   0  0  0  0  0  0  0  0  0  0  0  0
    7.1962   -2.3450    0.0000 C   0  0  0  0  0  0  0  0  0  0  0  0
   14.1244    0.6550    0.0000 C   0  0  2  0  0  0  0  0  0  0  0  0
    8.0622    2.1550    0.0000 C   0  0  0  0  0  0  0  0  0  0  0  0
    9.7942    2.1550    0.0000 C   0  0  0  0  0  0  0  0  0  0  0  0
    5.4641    1.6550    0.0000 C   0  0  0  0  0  0  0  0  0  0  0  0
    4.5981    3.1550    0.0000 C   0  0  0  0  0  0  0  0  0  0  0  0
   12.0999   -0.6642    0.0000 C   0  0  0  0  0  0  0  0  0  0  0  0
   14.1244    1.6550    0.0000 C   0  0  1  0  0  0  0  0  0  0  0  0
    4.7175   -1.1751    0.0000 C   0  0  0  0  0  0  0  0  0  0  0  0
    8.0622    3.1550    0.0000 C   0  0  0  0  0  0  0  0  0  0  0  0
    9.7942    3.1550    0.0000 C   0  0  0  0  0  0  0  0  0  0  0  0
   13.2583    0.1550    0.0000 C   0  0  0  0  0  0  0  0  0  0  0  0
    2.8660   -3.8450    0.0000 C   0  0  0  0  0  0  0  0  0  0  0  0
    3.7320   -4.3450    0.0000 C   0  0  0  0  0  0  0  0  0  0  0  0
    6.3301    3.1550    0.0000 C   0  0  0  0  0  0  0  0  0  0  0  0
    8.9282    3.6550    0.0000 C   0  0  0  0  0  0  0  0  0  0  0  0
    6.3301    2.1550    0.0000 C   0  0  0  0  0  0  0  0  0  0  0  0
    5.4641    3.6550    0.0000 C   0  0  0  0  0  0  0  0  0  0  0  0
   13.2583    2.1550    0.0000 C   0  0  0  0  0  0  0  0  0  0  0  0
   11.5263    3.1550    0.0000 C   0  0  0  0  0  0  0  0  0  0  0  0
   11.6773   -1.5705    0.0000 C   0  0  0  0  0  0  0  0  0  0  0  0
   12.3923    1.6550    0.0000 C   0  0  0  0  0  0  0  0  0  0  0  0
   13.2583    3.1550    0.0000 C   0  0  0  0  0  0  0  0  0  0  0  0
   11.5263    2.1550    0.0000 C   0  0  0  0  0  0  0  0  0  0  0  0
   12.3923    3.6550    0.0000 C   0  0  0  0  0  0  0  0  0  0  0  0
    2.9959    1.0800    0.0000 H   0  0  0  0  0  0  0  0  0  0  0  0
    6.9944   -0.3753    0.0000 H   0  0  0  0  0  0  0  0  0  0  0  0
    3.1332    1.8155    0.0000 H   0  0  0  0  0  0  0  0  0  0  0  0
    8.9282   -0.1950    0.0000 H   0  0  0  0  0  0  0  0  0  0  0  0
    4.5981   -0.4650    0.0000 H   0  0  0  0  0  0  0  0  0  0  0  0
    3.9463   -0.7632    0.0000 H   0  0  0  0  0  0  0  0  0  0  0  0
    7.1962    1.2750    0.0000 H   0  0  0  0  0  0  0  0  0  0  0  0
    4.9272   -1.0350    0.0000 H   0  0  0  0  0  0  0  0  0  0  0  0
    2.3291   -1.1550    0.0000 H   0  0  0  0  0  0  0  0  0  0  0  0
   11.3658   -0.4439    0.0000 H   0  0  0  0  0  0  0  0  0  0  0  0
    9.7942   -0.4650    0.0000 H   0  0  0  0  0  0  0  0  0  0  0  0
    7.7331   -1.0350    0.0000 H   0  0  0  0  0  0  0  0  0  0  0  0
    2.3291   -2.5350    0.0000 H   0  0  0  0  0  0  0  0  0  0  0  0
    7.7331   -2.6550    0.0000 H   0  0  0  0  0  0  0  0  0  0  0  0
   14.2848    0.0561    0.0000 H   0  0  0  0  0  0  0  0  0  0  0  0
    7.5252    1.8450    0.0000 H   0  0  0  0  0  0  0  0  0  0  0  0
   10.3312    1.8450    0.0000 H   0  0  0  0  0  0  0  0  0  0  0  0
    5.4641    1.0350    0.0000 H   0  0  0  0  0  0  0  0  0  0  0  0
    4.0611    3.4650    0.0000 H   0  0  0  0  0  0  0  0  0  0  0  0
   12.6078   -1.0198    0.0000 H   0  0  0  0  0  0  0  0  0  0  0  0
   12.5383   -0.2257    0.0000 H   0  0  0  0  0  0  0  0  0  0  0  0
   14.7420    1.6010    0.0000 H   0  0  0  0  0  0  0  0  0  0  0  0
   11.8973    1.0283    0.0000 H   0  0  0  0  0  0  0  0  0  0  0  0
    3.4205    3.0361    0.0000 H   0  0  0  0  0  0  0  0  0  0  0  0
    3.7320   -4.9650    0.0000 H   0  0  0  0  0  0  0  0  0  0  0  0
    6.8671    1.8450    0.0000 H   0  0  0  0  0  0  0  0  0  0  0  0
    5.4641    4.2750    0.0000 H   0  0  0  0  0  0  0  0  0  0  0  0
   12.3923    1.0350    0.0000 H   0  0  0  0  0  0  0  0  0  0  0  0
   13.7953    3.4650    0.0000 H   0  0  0  0  0  0  0  0  0  0  0  0
   15.2508   -0.2027    0.0000 H   0  0  0  0  0  0  0  0  0  0  0  0
   15.5287    0.8346    0.0000 H   0  0  0  0  0  0  0  0  0  0  0  0
    6.8671   -4.1550    0.0000 H   0  0  0  0  0  0  0  0  0  0  0  0
   12.3923    4.2750    0.0000 H   0  0  0  0  0  0  0  0  0  0  0  0
    5.4641   -4.9650    0.0000 H   0  0  0  0  0  0  0  0  0  0  0  0
   14.6710    2.9610    0.0000 H   0  0  0  0  0  0  0  0  0  0  0  0
    5.9684   -1.8383    0.0000 H   0  0  0  0  0  0  0  0  0  0  0  0
    2.0000   -4.9650    0.0000 H   0  0  0  0  0  0  0  0  0  0  0  0
    9.4651    4.9650    0.0000 H   0  0  0  0  0  0  0  0  0  0  0  0
   12.8685   -2.3356    0.0000 H   0  0  0  0  0  0  0  0  0  0  0  0
   11.9889   -2.9515    0.0000 H   0  0  0  0  0  0  0  0  0  0  0  0
  1 69  1  0  0  0  0
 27  2  1  6  0  0  0
  2 94  1  0  0  0  0
  3 31  2  0  0  0  0
  4 55  1  0  0  0  0
  4 60  1  0  0  0  0
  5 32  2  0  0  0  0
  6 38  2  0  0  0  0
  7 56  1  0  0  0  0
  7 65  1  0  0  0  0
  8 42  1  0  0  0  0
  8102  1  0  0  0  0
  9 44  1  0  0  0  0
  9104  1  0  0  0  0
 10 43  2  0  0  0  0
 53 11  1  1  0  0  0
 11105  1  0  0  0  0
 12 54  1  0  0  0  0
 12106  1  0  0  0  0
 13 58  1  0  0  0  0
 13107  1  0  0  0  0
 14 54  2  0  0  0  0
 15 61  1  0  0  0  0
 15108  1  0  0  0  0
 16 57  2  0  0  0  0
 17 66  2  0  0  0  0
 18 25  1  0  0  0  0
 18 31  1  0  0  0  0
 18 75  1  0  0  0  0
 19 26  1  0  0  0  0
 19 38  1  0  0  0  0
 19 77  1  0  0  0  0
 20 30  1  0  0  0  0
 20 32  1  0  0  0  0
 20 79  1  0  0  0  0
 21 29  1  0  0  0  0
 21 43  1  0  0  0  0
 21 81  1  0  0  0  0
 22 40  1  0  0  0  0
 22 57  1  0  0  0  0
 22 93  1  0  0  0  0
 47 23  1  1  0  0  0
 23100  1  0  0  0  0
 23101  1  0  0  0  0
 24 66  1  0  0  0  0
 24109  1  0  0  0  0
 24110  1  0  0  0  0
 25 27  1  0  0  0  0
 25 32  1  0  0  0  0
 25 71  1  1  0  0  0
 26 28  1  0  0  0  0
 26 31  1  0  0  0  0
 26 72  1  1  0  0  0
 27 36  1  0  0  0  0
 27 73  1  0  0  0  0
 28 37  2  0  0  0  0
 28 41  1  0  0  0  0
 29 38  1  0  0  0  0
 29 39  1  0  0  0  0
 29 74  1  6  0  0  0
 30 33  1  0  0  0  0
 30 54  1  6  0  0  0
 30 76  1  0  0  0  0
 33 34  2  0  0  0  0
 33 45  1  0  0  0  0
 34 35  1  0  0  0  0
 34 44  1  0  0  0  0
 35 37  1  0  0  0  0
 35 42  2  0  0  0  0
 36 50  2  0  0  0  0
 36 51  1  0  0  0  0
 37 78  1  0  0  0  0
 39 48  2  0  0  0  0
 39 49  1  0  0  0  0
 40 43  1  0  0  0  0
 40 52  1  1  0  0  0
 40 80  1  0  0  0  0
 41 46  2  0  0  0  0
 41 82  1  0  0  0  0
 42 46  1  0  0  0  0
 44 59  2  0  0  0  0
 45 58  2  0  0  0  0
 45 83  1  0  0  0  0
 46 84  1  0  0  0  0
 47 53  1  0  0  0  0
 47 57  1  0  0  0  0
 47 85  1  0  0  0  0
 48 55  1  0  0  0  0
 48 86  1  0  0  0  0
 49 56  2  0  0  0  0
 49 87  1  0  0  0  0
 50 62  1  0  0  0  0
 50 88  1  0  0  0  0
 51 63  2  0  0  0  0
 51 89  1  0  0  0  0
 52 66  1  0  0  0  0
 52 90  1  0  0  0  0
 52 91  1  0  0  0  0
 53 64  1  0  0  0  0
 53 92  1  0  0  0  0
 55 61  2  0  0  0  0
 56 61  1  0  0  0  0
 58 59  1  0  0  0  0
 59 95  1  0  0  0  0
 60 62  2  0  0  0  0
 60 63  1  0  0  0  0
 62 96  1  0  0  0  0
 63 97  1  0  0  0  0
 64 67  2  0  0  0  0
 64 68  1  0  0  0  0
 65 69  2  0  0  0  0
 65 70  1  0  0  0  0
 67 69  1  0  0  0  0
 67 98  1  0  0  0  0
 68 70  2  0  0  0  0
 68 99  1  0  0  0  0
 70103  1  0  0  0  0
M  END
> <PUBCHEM_COMPOUND_CID>
509530
> <PUBCHEM_COMPOUND_CANONICALIZED>
1
> <PUBCHEM_CACTVS_COMPLEXITY>
1980
> <PUBCHEM_CACTVS_HBOND_ACCEPTOR>
17
> <PUBCHEM_CACTVS_HBOND_DONOR>
14
> <PUBCHEM_CACTVS_ROTATABLE_BOND>
3
> <PUBCHEM_CACTVS_SUBSKEYS>
AAADcfB/vgAEAAAAAAAAAAAAAAAAAAAAAAAwYMGDAAAAAAABVAAAHgIQCAAADD7hmCYwDoLABgCIAiHSGACCCAAgJUAIiIGOj4gPdz+H9zuWeCvn9hWbuAf9/P/OoAADKAAYSABAAAZQADCQAAAAAAAAAA==
> <PUBCHEM_IUPAC_OPENEYE_NAME>
(1S,2R,18R,19R,22S,25R,28R,40S)-19-amino-22-(2-amino-2-oxo-ethyl)-15-chloro-2,18,32,35,37,48-hexahydroxy-20,23,26,42,44-pentaoxo-7,13-dioxa-21,24,27,41,43-pentazaoctacyclo[26.14.2.23,6.214,17.18,12.129,33.010,25.034,39]pentaconta-3(50),4,6(49),8(48),9,11,14,16,29(45),30,32,34(39),35,37,46-pentadecaene-40-carboxylic acid
> <PUBCHEM_IUPAC_CAS_NAME>
(1S,2R,18R,19R,22S,25R,28R,40S)-19-amino-22-(2-amino-2-oxoethyl)-15-chloro-2,18,32,35,37,48-hexahydroxy-20,23,26,42,44-pentaoxo-7,13-dioxa-21,24,27,41,43-pentazaoctacyclo[26.14.2.23,6.214,17.18,12.129,33.010,25.034,39]pentaconta-3(50),4,6(49),8(48),9,11,14,16,29(45),30,32,34(39),35,37,46-pentadecaene-40-carboxylic acid
> <PUBCHEM_IUPAC_NAME_MARKUP>
(1<I>S</I>,2<I>R</I>,18<I>R</I>,19<I>R</I>,22<I>S</I>,25<I>R</I>,28<I>R</I>,40<I>S</I>)-19-amino-22-(2-amino-2-oxoethyl)-15-chloro-2,18,32,35,37,48-hexahydroxy-20,23,26,42,44-pentaoxo-7,13-dioxa-21,24,27,41,43-pentazaoctacyclo[26.14.2.2<SUP>3,6</SUP>.2<SUP>14,17</SUP>.1<SUP>8,12</SUP>.1<SUP>29,33</SUP>.0<SUP>10,25</SUP>.0<SUP>34,39</SUP>]pentaconta-3(50),4,6(49),8(48),9,11,14,16,29(45),30,32,34(39),35,37,46-pentadecaene-40-carboxylic acid
> <PUBCHEM_IUPAC_NAME>
(1S,2R,18R,19R,22S,25R,28R,40S)-19-amino-22-(2-amino-2-oxoethyl)-15-chloro-2,18,32,35,37,48-hexahydroxy-20,23,26,42,44-pentaoxo-7,13-dioxa-21,24,27,41,43-pentazaoctacyclo[26.14.2.23,6.214,17.18,12.129,33.010,25.034,39]pentaconta-3(50),4,6(49),8(48),9,11,14,16,29(45),30,32,34(39),35,37,46-pentadecaene-40-carboxylic acid
> <PUBCHEM_IUPAC_SYSTEMATIC_NAME>
(1S,2R,18R,19R,22S,25R,28R,40S)-19-azanyl-22-(2-azanyl-2-oxidanylidene-ethyl)-15-chloranyl-2,18,32,35,37,48-hexakis(oxidanyl)-20,23,26,42,44-pentakis(oxidanylidene)-7,13-dioxa-21,24,27,41,43-pentazaoctacyclo[26.14.2.23,6.214,17.18,12.129,33.010,25.034,39]pentaconta-3(50),4,6(49),8(48),9,11,14,16,29(45),30,32,34(39),35,37,46-pentadecaene-40-carboxylic acid
> <PUBCHEM_IUPAC_TRADITIONAL_NAME>
(1S,2R,18R,19R,22S,25R,28R,40S)-19-amino-22-(2-amino-2-keto-ethyl)-15-chloro-2,18,32,35,37,48-hexahydroxy-20,23,26,42,44-pentaketo-7,13-dioxa-21,24,27,41,43-pentazaoctacyclo[26.14.2.23,6.214,17.18,12.129,33.010,25.034,39]pentaconta-3(50),4,6(49),8(48),9,11,14,16,29(45),30,32,34(39),35,37,46-pentadecaene-40-carboxylic acid
> <PUBCHEM_IUPAC_INCHI>
InChI=1S/C46H40ClN7O16/c47-24-10-18-4-8-28(24)70-30-12-19-11-29(40(30)61)69-21-5-1-16(2-6-21)39(60)37-45(66)53-36(46(67)68)23-13-20(55)14-27(57)32(23)22-9-17(3-7-26(22)56)34(43(64)54-37)52-44(65)35(19)51-41(62)25(15-31(48)58)50-42(63)33(49)38(18)59/h1-14,25,33-39,55-57,59-61H,15,49H2,(H2,48,58)(H,50,63)(H,51,62)(H,52,65)(H,53,66)(H,54,64)(H,67,68)/t25-,33+,34+,35+,36-,37-,38+,39+/m0/s1
> <PUBCHEM_IUPAC_INCHIKEY>
ZUXYELXLKGTWOK-WZRYFPGASA-N
> <PUBCHEM_XLOGP3_AA>
-2.8
> <PUBCHEM_EXACT_MASS>
981.2220059
> <PUBCHEM_MOLECULAR_FORMULA>
C46H40ClN7O16
> <PUBCHEM_MOLECULAR_WEIGHT>
982.3
> <PUBCHEM_OPENEYE_CAN_SMILES>
C1=CC2=CC=C1C(C3C(=O)NC(C4=C(C(=CC(=C4)O)O)C5=C(C=CC(=C5)C(C(=O)N3)NC(=O)C6C7=CC(=C(C(=C7)OC8=C(C=C(C=C8)C(C(C(=O)NC(C(=O)N6)CC(=O)N)N)O)Cl)O)O2)O)C(=O)O)O
> <PUBCHEM_OPENEYE_ISO_SMILES>
C1=CC2=CC=C1[C@H]([C@H]3C(=O)N[C@@H](C4=C(C(=CC(=C4)O)O)C5=C(C=CC(=C5)[C@H](C(=O)N3)NC(=O)[C@H]6C7=CC(=C(C(=C7)OC8=C(C=C(C=C8)[C@H]([C@H](C(=O)N[C@H](C(=O)N6)CC(=O)N)N)O)Cl)O)O2)O)C(=O)O)O
> <PUBCHEM_CACTVS_TPSA>
392
> <PUBCHEM_MONOISOTOPIC_WEIGHT>
981.2220059
> <PUBCHEM_TOTAL_CHARGE>
0
> <PUBCHEM_HEAVY_ATOM_COUNT>
70
> <PUBCHEM_ATOM_DEF_STEREO_COUNT>
8
> <PUBCHEM_ATOM_UDEF_STEREO_COUNT>
0
> <PUBCHEM_BOND_DEF_STEREO_COUNT>
0
> <PUBCHEM_BOND_UDEF_STEREO_COUNT>
0
> <PUBCHEM_ISOTOPIC_ATOM_COUNT>
0
> <PUBCHEM_COMPONENT_COUNT>
1
> <PUBCHEM_CACTVS_TAUTO_COUNT>
864
> <PUBCHEM_COORDINATE_TYPE>
1
5
255
> <PUBCHEM_BONDANNOTATIONS>
53  11  5
27  2  6
47  23  5
25  71  5
26  72  5
28  37  8
28  41  8
29  74  6
30  54  6
33  34  8
33  45  8
34  44  8
35  37  8
35  42  8
36  50  8
36  51  8
39  48  8
39  49  8
40  52  5
41  46  8
42  46  8
44  59  8
45  58  8
48  55  8
49  56  8
50  62  8
51  63  8
55  61  8
56  61  8
58  59  8
60  62  8
60  63  8
64  67  8
64  68  8
65  69  8
65  70  8
67  69  8
68  70  8
$$$$
