509533
  -OEChem-10302200282D
207216  0     1  0  0  0  0  0999 V2000
   13.4143   -1.3711    0.0000 Cl  0  0  0  0  0  0  0  0  0  0  0  0
   10.0350   -1.5609    0.0000 Cl  0  0  0  0  0  0  0  0  0  0  0  0
   12.6330   -7.0610    0.0000 O   0  0  0  0  0  0  0  0  0  0  0  0
   11.7669   -5.5610    0.0000 O   0  0  0  0  0  0  0  0  0  0  0  0
   10.0349   -3.5610    0.0000 O   0  0  0  0  0  0  0  0  0  0  0  0
   11.7669   -9.5610    0.0000 O   0  0  0  0  0  0  0  0  0  0  0  0
   10.0349   -6.5610    0.0000 O   0  0  0  0  0  0  0  0  0  0  0  0
   11.7669   -3.5610    0.0000 O   0  0  0  0  0  0  0  0  0  0  0  0
    8.3028   -5.5610    0.0000 O   0  0  0  0  0  0  0  0  0  0  0  0
    7.4368   -4.0610    0.0000 O   0  0  0  0  0  0  0  0  0  0  0  0
   13.4990   -2.5610    0.0000 O   0  0  0  0  0  0  0  0  0  0  0  0
   10.0349   -2.5610    0.0000 O   0  0  0  0  0  0  0  0  0  0  0  0
   12.6343    1.9390    0.0000 O   0  0  0  0  0  0  0  0  0  0  0  0
   10.0349   -0.5610    0.0000 O   0  0  0  0  0  0  0  0  0  0  0  0
   17.6702   -1.2681    0.0000 O   0  0  0  0  0  0  0  0  0  0  0  0
    5.7048   -1.0610    0.0000 O   0  0  0  0  0  0  0  0  0  0  0  0
   16.0998   -0.0562    0.0000 O   0  0  0  0  0  0  0  0  0  0  0  0
    7.4368    1.9390    0.0000 O   0  0  0  0  0  0  0  0  0  0  0  0
   18.6952    0.4390    0.0000 O   0  0  0  0  0  0  0  0  0  0  0  0
    6.0532    2.3709    0.0000 O   0  0  0  0  0  0  0  0  0  0  0  0
   14.3651    4.9390    0.0000 O   0  0  0  0  0  0  0  0  0  0  0  0
   10.5831    2.3532    0.0000 O   0  0  0  0  0  0  0  0  0  0  0  0
   15.2311    5.4390    0.0000 O   0  0  0  0  0  0  0  0  0  0  0  0
   15.3320    1.5055    0.0000 O   0  0  0  0  0  0  0  0  0  0  0  0
   18.6952    5.4390    0.0000 O   0  0  0  0  0  0  0  0  0  0  0  0
   10.4009   -8.9270    0.0000 N   0  0  0  0  0  0  0  0  0  0  0  0
   10.9009    0.9390    0.0000 N   0  0  0  0  0  0  0  0  0  0  0  0
   13.4990    0.4390    0.0000 N   0  0  0  0  0  0  0  0  0  0  0  0
    8.3029    0.4390    0.0000 N   0  0  0  0  0  0  0  0  0  0  0  0
   16.0971    0.9390    0.0000 N   0  0  0  0  0  0  0  0  0  0  0  0
    5.6049    0.6979    0.0000 N   0  0  0  0  0  0  0  0  0  0  0  0
   17.8291    1.9390    0.0000 N   0  0  0  0  0  0  0  0  0  0  0  0
    4.1213    2.8885    0.0000 N   0  0  0  0  0  0  0  0  0  0  0  0
   15.3378    3.0376    0.0000 N   0  0  0  0  0  0  0  0  0  0  0  0
    9.3584    3.5780    0.0000 N   0  0  0  0  0  0  0  0  0  0  0  0
   10.9009   -8.0610    0.0000 C   0  0  2  0  0  0  0  0  0  0  0  0
   11.7669   -8.5610    0.0000 C   0  0  1  0  0  0  0  0  0  0  0  0
   10.9009   -7.0610    0.0000 C   0  0  0  0  0  0  0  0  0  0  0  0
   11.7669   -6.5610    0.0000 C   0  0  1  0  0  0  0  0  0  0  0  0
   12.6330   -8.0610    0.0000 C   0  0  2  0  0  0  0  0  0  0  0  0
   10.9009   -5.0610    0.0000 C   0  0  2  0  0  0  0  0  0  0  0  0
   10.0349   -5.5610    0.0000 C   0  0  2  0  0  0  0  0  0  0  0  0
    9.9009   -8.0610    0.0000 C   0  0  0  0  0  0  0  0  0  0  0  0
    9.1689   -5.0610    0.0000 C   0  0  1  0  0  0  0  0  0  0  0  0
   10.9009   -4.0610    0.0000 C   0  0  1  0  0  0  0  0  0  0  0  0
    9.1689   -4.0610    0.0000 C   0  0  1  0  0  0  0  0  0  0  0  0
   13.4990   -8.5610    0.0000 C   0  0  0  0  0  0  0  0  0  0  0  0
    8.3028   -3.5610    0.0000 C   0  0  0  0  0  0  0  0  0  0  0  0
   11.7669   -2.5610    0.0000 C   0  0  0  0  0  0  0  0  0  0  0  0
   12.6330   -2.0610    0.0000 C   0  0  0  0  0  0  0  0  0  0  0  0
   10.9009   -2.0610    0.0000 C   0  0  0  0  0  0  0  0  0  0  0  0
   12.6330   -1.0610    0.0000 C   0  0  0  0  0  0  0  0  0  0  0  0
   10.9009   -1.0610    0.0000 C   0  0  0  0  0  0  0  0  0  0  0  0
   11.7670   -0.5610    0.0000 C   0  0  0  0  0  0  0  0  0  0  0  0
   11.7670    0.4390    0.0000 C   0  0  2  0  0  0  0  0  0  0  0  0
   12.6330    0.9390    0.0000 C   0  0  0  0  0  0  0  0  0  0  0  0
   14.3650   -2.0610    0.0000 C   0  0  0  0  0  0  0  0  0  0  0  0
    9.1689   -2.0610    0.0000 C   0  0  0  0  0  0  0  0  0  0  0  0
   10.0349    0.4390    0.0000 C   0  0  0  0  0  0  0  0  0  0  0  0
   14.3650    0.9390    0.0000 C   0  0  1  0  0  0  0  0  0  0  0  0
   14.3650   -1.0610    0.0000 C   0  0  0  0  0  0  0  0  0  0  0  0
   15.2310   -2.5610    0.0000 C   0  0  0  0  0  0  0  0  0  0  0  0
    9.1689   -1.0610    0.0000 C   0  0  0  0  0  0  0  0  0  0  0  0
    8.3028   -2.5610    0.0000 C   0  0  0  0  0  0  0  0  0  0  0  0
    9.1689    0.9390    0.0000 C   0  0  2  0  0  0  0  0  0  0  0  0
   16.0971   -1.0610    0.0000 C   0  0  0  0  0  0  0  0  0  0  0  0
    7.4368   -1.0610    0.0000 C   0  0  0  0  0  0  0  0  0  0  0  0
   16.9631   -0.5610    0.0000 C   0  0  2  0  0  0  0  0  0  0  0  0
   16.9631    0.4390    0.0000 C   0  0  1  0  0  0  0  0  0  0  0  0
    6.5708   -0.5610    0.0000 C   0  0  3  0  0  0  0  0  0  0  0  0
   15.2311   -0.5610    0.0000 C   0  0  0  0  0  0  0  0  0  0  0  0
   16.0971   -2.0610    0.0000 C   0  0  0  0  0  0  0  0  0  0  0  0
    6.5708    0.4390    0.0000 C   0  0  2  0  0  0  0  0  0  0  0  0
    8.3029   -0.5610    0.0000 C   0  0  0  0  0  0  0  0  0  0  0  0
    7.4368   -2.0610    0.0000 C   0  0  0  0  0  0  0  0  0  0  0  0
   15.2311    0.4390    0.0000 C   0  0  0  0  0  0  0  0  0  0  0  0
   14.3650    1.9390    0.0000 C   0  0  0  0  0  0  0  0  0  0  0  0
    8.9101    1.9050    0.0000 C   0  0  0  0  0  0  0  0  0  0  0  0
    7.4368    0.9390    0.0000 C   0  0  0  0  0  0  0  0  0  0  0  0
   17.8291    0.9390    0.0000 C   0  0  0  0  0  0  0  0  0  0  0  0
   15.2311    2.4390    0.0000 C   0  0  0  0  0  0  0  0  0  0  0  0
   16.9631    2.4390    0.0000 C   0  0  1  0  0  0  0  0  0  0  0  0
   13.4990    2.4390    0.0000 C   0  0  0  0  0  0  0  0  0  0  0  0
   15.2311    3.4390    0.0000 C   0  0  0  0  0  0  0  0  0  0  0  0
    4.3801    1.9226    0.0000 C   0  0  1  0  0  0  0  0  0  0  0  0
   16.9631    3.4390    0.0000 C   0  0  0  0  0  0  0  0  0  0  0  0
   16.0971    3.9390    0.0000 C   0  0  0  0  0  0  0  0  0  0  0  0
    5.3461    1.6638    0.0000 C   0  0  0  0  0  0  0  0  0  0  0  0
    9.6172    2.6121    0.0000 C   0  0  0  0  0  0  0  0  0  0  0  0
    3.6730    1.2155    0.0000 C   0  0  0  0  0  0  0  0  0  0  0  0
   14.3651    3.9390    0.0000 C   0  0  0  0  0  0  0  0  0  0  0  0
   13.4990    3.4390    0.0000 C   0  0  0  0  0  0  0  0  0  0  0  0
    2.7071    1.4743    0.0000 C   0  0  0  0  0  0  0  0  0  0  0  0
   15.9777    2.2691    0.0000 C   0  0  0  0  0  0  0  0  0  0  0  0
   16.0971    4.9390    0.0000 C   0  0  0  0  0  0  0  0  0  0  0  0
   17.8292    3.9390    0.0000 C   0  0  0  0  0  0  0  0  0  0  0  0
   12.7742    3.9818    0.0000 C   0  0  0  0  0  0  0  0  0  0  0  0
   13.7596    4.1517    0.0000 C   0  0  0  0  0  0  0  0  0  0  0  0
   14.3995    3.3833    0.0000 C   0  0  0  0  0  0  0  0  0  0  0  0
   12.1343    4.7504    0.0000 C   0  0  0  0  0  0  0  0  0  0  0  0
   12.4799    5.6887    0.0000 C   0  0  0  0  0  0  0  0  0  0  0  0
    2.0000    0.7672    0.0000 C   0  0  0  0  0  0  0  0  0  0  0  0
    2.4483    2.4402    0.0000 C   0  0  0  0  0  0  0  0  0  0  0  0
   11.8401    6.4572    0.0000 C   0  0  0  0  0  0  0  0  0  0  0  0
   17.8292    4.9390    0.0000 C   0  0  0  0  0  0  0  0  0  0  0  0
   16.9631    5.4390    0.0000 C   0  0  0  0  0  0  0  0  0  0  0  0
   12.1857    7.3956    0.0000 C   0  0  0  0  0  0  0  0  0  0  0  0
    3.1554    3.1474    0.0000 C   0  0  0  0  0  0  0  0  0  0  0  0
   11.5458    8.1641    0.0000 C   0  0  0  0  0  0  0  0  0  0  0  0
   11.8914    9.1025    0.0000 C   0  0  0  0  0  0  0  0  0  0  0  0
   11.2516    9.8710    0.0000 C   0  0  0  0  0  0  0  0  0  0  0  0
   11.2300   -8.8710    0.0000 H   0  0  0  0  0  0  0  0  0  0  0  0
   10.6889   -6.4784    0.0000 H   0  0  0  0  0  0  0  0  0  0  0  0
   10.2903   -7.1686    0.0000 H   0  0  0  0  0  0  0  0  0  0  0  0
   11.2300   -6.2510    0.0000 H   0  0  0  0  0  0  0  0  0  0  0  0
   13.1699   -7.7510    0.0000 H   0  0  0  0  0  0  0  0  0  0  0  0
   10.9009   -5.6810    0.0000 H   0  0  0  0  0  0  0  0  0  0  0  0
   10.5718   -5.8710    0.0000 H   0  0  0  0  0  0  0  0  0  0  0  0
    9.9009   -7.4410    0.0000 H   0  0  0  0  0  0  0  0  0  0  0  0
    9.2809   -8.0610    0.0000 H   0  0  0  0  0  0  0  0  0  0  0  0
    9.9009   -8.6810    0.0000 H   0  0  0  0  0  0  0  0  0  0  0  0
    9.1689   -5.6810    0.0000 H   0  0  0  0  0  0  0  0  0  0  0  0
   11.4379   -4.3710    0.0000 H   0  0  0  0  0  0  0  0  0  0  0  0
    9.1689   -3.4410    0.0000 H   0  0  0  0  0  0  0  0  0  0  0  0
    9.7809   -8.9270    0.0000 H   0  0  0  0  0  0  0  0  0  0  0  0
   10.7109   -9.4639    0.0000 H   0  0  0  0  0  0  0  0  0  0  0  0
   13.1890   -9.0979    0.0000 H   0  0  0  0  0  0  0  0  0  0  0  0
   14.0359   -8.8710    0.0000 H   0  0  0  0  0  0  0  0  0  0  0  0
   13.8090   -8.0240    0.0000 H   0  0  0  0  0  0  0  0  0  0  0  0
   12.3039   -9.8710    0.0000 H   0  0  0  0  0  0  0  0  0  0  0  0
    8.7014   -3.0860    0.0000 H   0  0  0  0  0  0  0  0  0  0  0  0
    7.9043   -3.0860    0.0000 H   0  0  0  0  0  0  0  0  0  0  0  0
    9.4980   -6.8710    0.0000 H   0  0  0  0  0  0  0  0  0  0  0  0
    8.3028   -6.1810    0.0000 H   0  0  0  0  0  0  0  0  0  0  0  0
    6.8999   -3.7510    0.0000 H   0  0  0  0  0  0  0  0  0  0  0  0
   13.1699   -0.7510    0.0000 H   0  0  0  0  0  0  0  0  0  0  0  0
   10.3640   -0.7510    0.0000 H   0  0  0  0  0  0  0  0  0  0  0  0
   11.7670    1.2890    0.0000 H   0  0  0  0  0  0  0  0  0  0  0  0
   10.9009    1.5590    0.0000 H   0  0  0  0  0  0  0  0  0  0  0  0
   13.4990   -0.1810    0.0000 H   0  0  0  0  0  0  0  0  0  0  0  0
   13.7007    1.4693    0.0000 H   0  0  0  0  0  0  0  0  0  0  0  0
   15.2310   -3.1810    0.0000 H   0  0  0  0  0  0  0  0  0  0  0  0
    8.3028   -3.1810    0.0000 H   0  0  0  0  0  0  0  0  0  0  0  0
    9.3294    1.5379    0.0000 H   0  0  0  0  0  0  0  0  0  0  0  0
   17.5620   -0.7215    0.0000 H   0  0  0  0  0  0  0  0  0  0  0  0
   17.6992    0.0140    0.0000 H   0  0  0  0  0  0  0  0  0  0  0  0
    5.8347   -0.1360    0.0000 H   0  0  0  0  0  0  0  0  0  0  0  0
    6.1324    0.8774    0.0000 H   0  0  0  0  0  0  0  0  0  0  0  0
   15.2311    0.0590    0.0000 H   0  0  0  0  0  0  0  0  0  0  0  0
   16.6340   -2.3710    0.0000 H   0  0  0  0  0  0  0  0  0  0  0  0
    8.3029    0.0590    0.0000 H   0  0  0  0  0  0  0  0  0  0  0  0
    6.8999   -2.3710    0.0000 H   0  0  0  0  0  0  0  0  0  0  0  0
    8.7979    0.0657    0.0000 H   0  0  0  0  0  0  0  0  0  0  0  0
    8.5544    2.4128    0.0000 H   0  0  0  0  0  0  0  0  0  0  0  0
    8.3482    1.6429    0.0000 H   0  0  0  0  0  0  0  0  0  0  0  0
   16.0971    1.5590    0.0000 H   0  0  0  0  0  0  0  0  0  0  0  0
    5.1665    0.2595    0.0000 H   0  0  0  0  0  0  0  0  0  0  0  0
   15.7680    2.1290    0.0000 H   0  0  0  0  0  0  0  0  0  0  0  0
   16.4867    2.0423    0.0000 H   0  0  0  0  0  0  0  0  0  0  0  0
   12.9621    2.1290    0.0000 H   0  0  0  0  0  0  0  0  0  0  0  0
   18.3661    2.2490    0.0000 H   0  0  0  0  0  0  0  0  0  0  0  0
    4.8186    2.3610    0.0000 H   0  0  0  0  0  0  0  0  0  0  0  0
   17.5097   -1.8670    0.0000 H   0  0  0  0  0  0  0  0  0  0  0  0
    5.7048   -1.6810    0.0000 H   0  0  0  0  0  0  0  0  0  0  0  0
    3.4110    0.6536    0.0000 H   0  0  0  0  0  0  0  0  0  0  0  0
    4.1809    0.8599    0.0000 H   0  0  0  0  0  0  0  0  0  0  0  0
   12.9621    3.7490    0.0000 H   0  0  0  0  0  0  0  0  0  0  0  0
    2.1082    1.6348    0.0000 H   0  0  0  0  0  0  0  0  0  0  0  0
   18.3661    3.6290    0.0000 H   0  0  0  0  0  0  0  0  0  0  0  0
    4.5597    3.3269    0.0000 H   0  0  0  0  0  0  0  0  0  0  0  0
   12.2360    3.6739    0.0000 H   0  0  0  0  0  0  0  0  0  0  0  0
   12.9840    3.3984    0.0000 H   0  0  0  0  0  0  0  0  0  0  0  0
   14.2977    4.4597    0.0000 H   0  0  0  0  0  0  0  0  0  0  0  0
   13.5498    4.7351    0.0000 H   0  0  0  0  0  0  0  0  0  0  0  0
   11.5986    5.0624    0.0000 H   0  0  0  0  0  0  0  0  0  0  0  0
   11.7340    4.2769    0.0000 H   0  0  0  0  0  0  0  0  0  0  0  0
   13.8160    3.1735    0.0000 H   0  0  0  0  0  0  0  0  0  0  0  0
   14.7570    3.8898    0.0000 H   0  0  0  0  0  0  0  0  0  0  0  0
   15.9488    3.1430    0.0000 H   0  0  0  0  0  0  0  0  0  0  0  0
   13.0157    5.3767    0.0000 H   0  0  0  0  0  0  0  0  0  0  0  0
   12.8803    6.1621    0.0000 H   0  0  0  0  0  0  0  0  0  0  0  0
   11.3043    6.7693    0.0000 H   0  0  0  0  0  0  0  0  0  0  0  0
   11.4397    5.9838    0.0000 H   0  0  0  0  0  0  0  0  0  0  0  0
    1.5616    1.2056    0.0000 H   0  0  0  0  0  0  0  0  0  0  0  0
    1.5616    0.3288    0.0000 H   0  0  0  0  0  0  0  0  0  0  0  0
    2.4384    0.3288    0.0000 H   0  0  0  0  0  0  0  0  0  0  0  0
    3.0472    2.6007    0.0000 H   0  0  0  0  0  0  0  0  0  0  0  0
    2.2878    3.0391    0.0000 H   0  0  0  0  0  0  0  0  0  0  0  0
    1.8494    2.2798    0.0000 H   0  0  0  0  0  0  0  0  0  0  0  0
    9.7968    4.0164    0.0000 H   0  0  0  0  0  0  0  0  0  0  0  0
    8.7595    3.7385    0.0000 H   0  0  0  0  0  0  0  0  0  0  0  0
   16.9631    6.0590    0.0000 H   0  0  0  0  0  0  0  0  0  0  0  0
   12.7214    7.0836    0.0000 H   0  0  0  0  0  0  0  0  0  0  0  0
   12.5860    7.8690    0.0000 H   0  0  0  0  0  0  0  0  0  0  0  0
    3.3159    3.7462    0.0000 H   0  0  0  0  0  0  0  0  0  0  0  0
    2.5565    3.3078    0.0000 H   0  0  0  0  0  0  0  0  0  0  0  0
    2.9949    2.5485    0.0000 H   0  0  0  0  0  0  0  0  0  0  0  0
   11.0101    8.4762    0.0000 H   0  0  0  0  0  0  0  0  0  0  0  0
   11.1455    7.6907    0.0000 H   0  0  0  0  0  0  0  0  0  0  0  0
   13.8281    5.2490    0.0000 H   0  0  0  0  0  0  0  0  0  0  0  0
   15.2311    6.0590    0.0000 H   0  0  0  0  0  0  0  0  0  0  0  0
   12.4272    8.7904    0.0000 H   0  0  0  0  0  0  0  0  0  0  0  0
   12.2918    9.5759    0.0000 H   0  0  0  0  0  0  0  0  0  0  0  0
   18.6952    6.0590    0.0000 H   0  0  0  0  0  0  0  0  0  0  0  0
   11.7281   10.2677    0.0000 H   0  0  0  0  0  0  0  0  0  0  0  0
   10.8549   10.3474    0.0000 H   0  0  0  0  0  0  0  0  0  0  0  0
   10.7751    9.4743    0.0000 H   0  0  0  0  0  0  0  0  0  0  0  0
  1 61  1  0  0  0  0
  2 63  1  0  0  0  0
  3 39  1  0  0  0  0
  3 40  1  0  0  0  0
 39  4  1  6  0  0  0
 41  4  1  6  0  0  0
  5 45  1  0  0  0  0
  5 46  1  0  0  0  0
 37  6  1  1  0  0  0
  6130  1  0  0  0  0
 42  7  1  1  0  0  0
  7133  1  0  0  0  0
 45  8  1  1  0  0  0
  8 49  1  0  0  0  0
 44  9  1  6  0  0  0
  9134  1  0  0  0  0
 10 48  1  0  0  0  0
 10135  1  0  0  0  0
 11 50  1  0  0  0  0
 11 57  1  0  0  0  0
 12 51  1  0  0  0  0
 12 58  1  0  0  0  0
 13 56  2  0  0  0  0
 14 59  2  0  0  0  0
 68 15  1  6  0  0  0
 15163  1  0  0  0  0
 16 70  1  0  0  0  0
 16164  1  0  0  0  0
 17 76  2  0  0  0  0
 18 79  2  0  0  0  0
 19 80  2  0  0  0  0
 20 88  2  0  0  0  0
 21 91  1  0  0  0  0
 21200  1  0  0  0  0
 22 89  2  0  0  0  0
 23 95  1  0  0  0  0
 23201  1  0  0  0  0
 24 94  2  0  0  0  0
 25105  1  0  0  0  0
 25204  1  0  0  0  0
 36 26  1  1  0  0  0
 26125  1  0  0  0  0
 26126  1  0  0  0  0
 27 55  1  0  0  0  0
 27 59  1  0  0  0  0
 27139  1  0  0  0  0
 28 56  1  0  0  0  0
 28 60  1  0  0  0  0
 28140  1  0  0  0  0
 29 65  1  0  0  0  0
 29 79  1  0  0  0  0
 29153  1  0  0  0  0
 30 69  1  0  0  0  0
 30 76  1  0  0  0  0
 30156  1  0  0  0  0
 73 31  1  1  0  0  0
 31 88  1  0  0  0  0
 31157  1  0  0  0  0
 32 80  1  0  0  0  0
 32 82  1  0  0  0  0
 32161  1  0  0  0  0
 85 33  1  1  0  0  0
 33108  1  0  0  0  0
 33170  1  0  0  0  0
 34 94  1  0  0  0  0
 34 99  1  0  0  0  0
 34179  1  0  0  0  0
 35 89  1  0  0  0  0
 35190  1  0  0  0  0
 35191  1  0  0  0  0
 36 37  1  0  0  0  0
 36 38  1  0  0  0  0
 36 43  1  0  0  0  0
 37 40  1  0  0  0  0
 37112  1  0  0  0  0
 38 39  1  0  0  0  0
 38113  1  0  0  0  0
 38114  1  0  0  0  0
 39115  1  0  0  0  0
 40 47  1  1  0  0  0
 40116  1  0  0  0  0
 41 42  1  0  0  0  0
 41 45  1  0  0  0  0
 41117  1  0  0  0  0
 42 44  1  0  0  0  0
 42118  1  0  0  0  0
 43119  1  0  0  0  0
 43120  1  0  0  0  0
 43121  1  0  0  0  0
 44 46  1  0  0  0  0
 44122  1  0  0  0  0
 45123  1  0  0  0  0
 46 48  1  1  0  0  0
 46124  1  0  0  0  0
 47127  1  0  0  0  0
 47128  1  0  0  0  0
 47129  1  0  0  0  0
 48131  1  0  0  0  0
 48132  1  0  0  0  0
 49 50  2  0  0  0  0
 49 51  1  0  0  0  0
 50 52  1  0  0  0  0
 51 53  2  0  0  0  0
 52 54  2  0  0  0  0
 52136  1  0  0  0  0
 53 54  1  0  0  0  0
 53137  1  0  0  0  0
 54 55  1  0  0  0  0
 55 56  1  0  0  0  0
 55138  1  6  0  0  0
 57 61  2  0  0  0  0
 57 62  1  0  0  0  0
 58 63  2  0  0  0  0
 58 64  1  0  0  0  0
 59 65  1  0  0  0  0
 60 76  1  0  0  0  0
 60 77  1  0  0  0  0
 60141  1  1  0  0  0
 61 71  1  0  0  0  0
 62 72  2  0  0  0  0
 62142  1  0  0  0  0
 63 74  1  0  0  0  0
 64 75  2  0  0  0  0
 64143  1  0  0  0  0
 65 78  1  1  0  0  0
 65144  1  0  0  0  0
 66 68  1  0  0  0  0
 66 71  2  0  0  0  0
 66 72  1  0  0  0  0
 67 70  1  0  0  0  0
 67 74  2  0  0  0  0
 67 75  1  0  0  0  0
 68 69  1  0  0  0  0
 68145  1  0  0  0  0
 69 80  1  0  0  0  0
 69146  1  1  0  0  0
 70 73  1  0  0  0  0
 70147  1  0  0  0  0
 71149  1  0  0  0  0
 72150  1  0  0  0  0
 73 79  1  0  0  0  0
 73148  1  0  0  0  0
 74151  1  0  0  0  0
 75152  1  0  0  0  0
 77 81  2  0  0  0  0
 77 83  1  0  0  0  0
 78 89  1  0  0  0  0
 78154  1  0  0  0  0
 78155  1  0  0  0  0
 81 84  1  0  0  0  0
 81158  1  0  0  0  0
 82 86  1  0  0  0  0
 82 94  1  6  0  0  0
 82159  1  0  0  0  0
 83 92  2  0  0  0  0
 83160  1  0  0  0  0
 84 87  1  0  0  0  0
 84 91  2  0  0  0  0
 85 88  1  0  0  0  0
 85 90  1  0  0  0  0
 85162  1  0  0  0  0
 86 87  2  0  0  0  0
 86 96  1  0  0  0  0
 87 95  1  0  0  0  0
 90 93  1  0  0  0  0
 90165  1  0  0  0  0
 90166  1  0  0  0  0
 91 92  1  0  0  0  0
 92167  1  0  0  0  0
 93102  1  0  0  0  0
 93103  1  0  0  0  0
 93168  1  0  0  0  0
 95106  2  0  0  0  0
 96105  2  0  0  0  0
 96169  1  0  0  0  0
 97 98  1  0  0  0  0
 97100  1  0  0  0  0
 97171  1  0  0  0  0
 97172  1  0  0  0  0
 98 99  1  0  0  0  0
 98173  1  0  0  0  0
 98174  1  0  0  0  0
 99177  1  0  0  0  0
 99178  1  0  0  0  0
100101  1  0  0  0  0
100175  1  0  0  0  0
100176  1  0  0  0  0
101104  1  0  0  0  0
101180  1  0  0  0  0
101181  1  0  0  0  0
102184  1  0  0  0  0
102185  1  0  0  0  0
102186  1  0  0  0  0
103187  1  0  0  0  0
103188  1  0  0  0  0
103189  1  0  0  0  0
104107  1  0  0  0  0
104182  1  0  0  0  0
104183  1  0  0  0  0
105106  1  0  0  0  0
106192  1  0  0  0  0
107109  1  0  0  0  0
107193  1  0  0  0  0
107194  1  0  0  0  0
108195  1  0  0  0  0
108196  1  0  0  0  0
108197  1  0  0  0  0
109110  1  0  0  0  0
109198  1  0  0  0  0
109199  1  0  0  0  0
110111  1  0  0  0  0
110202  1  0  0  0  0
110203  1  0  0  0  0
111205  1  0  0  0  0
111206  1  0  0  0  0
111207  1  0  0  0  0
M  END
> <PUBCHEM_COMPOUND_CID>
509533
> <PUBCHEM_COMPOUND_CANONICALIZED>
1
> <PUBCHEM_CACTVS_COMPLEXITY>
3150
> <PUBCHEM_CACTVS_HBOND_ACCEPTOR>
25
> <PUBCHEM_CACTVS_HBOND_DONOR>
19
> <PUBCHEM_CACTVS_ROTATABLE_BOND>
22
> <PUBCHEM_CACTVS_SUBSKEYS>
AAADcfB//gAGAAAAAAAAAAAAAAAAAAAAAAA0aMGDAAAAAAABVAAAHgIQCAAADb7xmCcyDoLABgCIAiFSEACCCAAgJUAIiIGOj4gfdz+H9zu2eCrn9hWfuAf9/P/OoAADKAAYSABAAAZQADCQAAAAAAAAAA==
> <PUBCHEM_IUPAC_OPENEYE_NAME>
(1S,2R,19R,22S,25R,28R,40S)-48-[(2S,3R,4S,5S,6R)-3-[(2S,4S,5S,6S)-4-amino-5-hydroxy-4,6-dimethyl-tetrahydropyran-2-yl]oxy-4,5-dihydroxy-6-(hydroxymethyl)tetrahydropyran-2-yl]oxy-22-(2-amino-2-oxo-ethyl)-5,15-dichloro-N-decyl-2,18,32,35,37-pentahydroxy-19-[[(2R)-4-methyl-2-(methylamino)pentanoyl]amino]-20,23,26,42,44-pentaoxo-7,13-dioxa-21,24,27,41,43-pentazaoctacyclo[26.14.2.23,6.214,17.18,12.129,33.010,25.034,39]pentaconta-3,5,8(48),9,11,14,16,29(45),30,32,34(39),35,37,46,49-pentadecaene-40-carboxamide
> <PUBCHEM_IUPAC_CAS_NAME>
(1S,2R,19R,22S,25R,28R,40S)-48-[[(2S,3R,4S,5S,6R)-3-[[(2S,4S,5S,6S)-4-amino-5-hydroxy-4,6-dimethyl-2-oxanyl]oxy]-4,5-dihydroxy-6-(hydroxymethyl)-2-oxanyl]oxy]-22-(2-amino-2-oxoethyl)-5,15-dichloro-N-decyl-2,18,32,35,37-pentahydroxy-19-[[(2R)-4-methyl-2-(methylamino)-1-oxopentyl]amino]-20,23,26,42,44-pentaoxo-7,13-dioxa-21,24,27,41,43-pentazaoctacyclo[26.14.2.23,6.214,17.18,12.129,33.010,25.034,39]pentaconta-3,5,8(48),9,11,14,16,29(45),30,32,34(39),35,37,46,49-pentadecaene-40-carboxamide
> <PUBCHEM_IUPAC_NAME_MARKUP>
(1<I>S</I>,2<I>R</I>,19<I>R</I>,22<I>S</I>,25<I>R</I>,28<I>R</I>,40<I>S</I>)-48-[(2<I>S</I>,3<I>R</I>,4<I>S</I>,5<I>S</I>,6<I>R</I>)-3-[(2<I>S</I>,4<I>S</I>,5<I>S</I>,6<I>S</I>)-4-amino-5-hydroxy-4,6-dimethyloxan-2-yl]oxy-4,5-dihydroxy-6-(hydroxymethyl)oxan-2-yl]oxy-22-(2-amino-2-oxoethyl)-5,15-dichloro-<I>N</I>-decyl-2,18,32,35,37-pentahydroxy-19-[[(2<I>R</I>)-4-methyl-2-(methylamino)pentanoyl]amino]-20,23,26,42,44-pentaoxo-7,13-dioxa-21,24,27,41,43-pentazaoctacyclo[26.14.2.2<SUP>3,6</SUP>.2<SUP>14,17</SUP>.1<SUP>8,12</SUP>.1<SUP>29,33</SUP>.0<SUP>10,25</SUP>.0<SUP>34,39</SUP>]pentaconta-3,5,8(48),9,11,14,16,29(45),30,32,34(39),35,37,46,49-pentadecaene-40-carboxamide
> <PUBCHEM_IUPAC_NAME>
(1S,2R,19R,22S,25R,28R,40S)-48-[(2S,3R,4S,5S,6R)-3-[(2S,4S,5S,6S)-4-amino-5-hydroxy-4,6-dimethyloxan-2-yl]oxy-4,5-dihydroxy-6-(hydroxymethyl)oxan-2-yl]oxy-22-(2-amino-2-oxoethyl)-5,15-dichloro-N-decyl-2,18,32,35,37-pentahydroxy-19-[[(2R)-4-methyl-2-(methylamino)pentanoyl]amino]-20,23,26,42,44-pentaoxo-7,13-dioxa-21,24,27,41,43-pentazaoctacyclo[26.14.2.23,6.214,17.18,12.129,33.010,25.034,39]pentaconta-3,5,8(48),9,11,14,16,29(45),30,32,34(39),35,37,46,49-pentadecaene-40-carboxamide
> <PUBCHEM_IUPAC_SYSTEMATIC_NAME>
(1S,2R,19R,22S,25R,28R,40S)-48-[(2S,3R,4S,5S,6R)-3-[(2S,4S,5S,6S)-4-azanyl-4,6-dimethyl-5-oxidanyl-oxan-2-yl]oxy-6-(hydroxymethyl)-4,5-bis(oxidanyl)oxan-2-yl]oxy-22-(2-azanyl-2-oxidanylidene-ethyl)-5,15-bis(chloranyl)-N-decyl-19-[[(2R)-4-methyl-2-(methylamino)pentanoyl]amino]-2,18,32,35,37-pentakis(oxidanyl)-20,23,26,42,44-pentakis(oxidanylidene)-7,13-dioxa-21,24,27,41,43-pentazaoctacyclo[26.14.2.23,6.214,17.18,12.129,33.010,25.034,39]pentaconta-3,5,8(48),9,11,14,16,29(45),30,32,34(39),35,37,46,49-pentadecaene-40-carboxamide
> <PUBCHEM_IUPAC_TRADITIONAL_NAME>
(1S,2R,19R,22S,25R,28R,40S)-48-[(2S,3R,4S,5S,6R)-3-[(2S,4S,5S,6S)-4-amino-5-hydroxy-4,6-dimethyl-tetrahydropyran-2-yl]oxy-4,5-dihydroxy-6-methylol-tetrahydropyran-2-yl]oxy-22-(2-amino-2-keto-ethyl)-5,15-dichloro-N-decyl-2,18,32,35,37-pentahydroxy-20,23,26,42,44-pentaketo-19-[[(2R)-4-methyl-2-(methylamino)pentanoyl]amino]-7,13-dioxa-21,24,27,41,43-pentazaoctacyclo[26.14.2.23,6.214,17.18,12.129,33.010,25.034,39]pentaconta-3,5,8(48),9,11,14,16,29(45),30,32,34(39),35,37,46,49-pentadecaene-40-carboxamide
> <PUBCHEM_IUPAC_INCHI>
InChI=1S/C76H96Cl2N10O23/c1-7-8-9-10-11-12-13-14-21-82-70(101)58-41-28-39(90)29-47(92)55(41)40-23-35(15-18-46(40)91)56-71(102)88-60(74(105)86-58)62(95)37-17-20-49(43(78)25-37)108-51-27-38-26-50(65(51)111-75-66(64(97)63(96)52(32-89)109-75)110-54-31-76(5,80)67(98)34(4)106-54)107-48-19-16-36(24-42(48)77)61(94)59(87-68(99)44(81-6)22-33(2)3)73(104)83-45(30-53(79)93)69(100)84-57(38)72(103)85-56/h15-20,23-29,33-34,44-45,52,54,56-64,66-67,75,81,89-92,94-98H,7-14,21-22,30-32,80H2,1-6H3,(H2,79,93)(H,82,101)(H,83,104)(H,84,100)(H,85,103)(H,86,105)(H,87,99)(H,88,102)/t34-,44+,45-,52+,54-,56+,57+,58-,59+,60-,61?,62+,63+,64-,66+,67+,75-,76-/m0/s1
> <PUBCHEM_IUPAC_INCHIKEY>
UUNRJROOHGEQSP-MUCWUSEMSA-N
> <PUBCHEM_XLOGP3_AA>
3.9
> <PUBCHEM_EXACT_MASS>
1586.6026847
> <PUBCHEM_MOLECULAR_FORMULA>
C76H96Cl2N10O23
> <PUBCHEM_MOLECULAR_WEIGHT>
1588.5
> <PUBCHEM_OPENEYE_CAN_SMILES>
CCCCCCCCCCNC(=O)C1C2=C(C(=CC(=C2)O)O)C3=C(C=CC(=C3)C4C(=O)NC(C(C5=CC(=C(C=C5)OC6=C(C7=CC(=C6)C(C(=O)N4)NC(=O)C(NC(=O)C(C(C8=CC(=C(O7)C=C8)Cl)O)NC(=O)C(CC(C)C)NC)CC(=O)N)OC9C(C(C(C(O9)CO)O)O)OC2CC(C(C(O2)C)O)(C)N)Cl)O)C(=O)N1)O
> <PUBCHEM_OPENEYE_ISO_SMILES>
CCCCCCCCCCNC(=O)[C@@H]1C2=C(C(=CC(=C2)O)O)C3=C(C=CC(=C3)[C@@H]4C(=O)N[C@@H]([C@@H](C5=CC(=C(C=C5)OC6=C(C7=CC(=C6)[C@H](C(=O)N4)NC(=O)[C@@H](NC(=O)[C@@H](C(C8=CC(=C(O7)C=C8)Cl)O)NC(=O)[C@@H](CC(C)C)NC)CC(=O)N)O[C@H]9[C@@H]([C@H]([C@@H]([C@H](O9)CO)O)O)O[C@H]2C[C@]([C@@H]([C@@H](O2)C)O)(C)N)Cl)O)C(=O)N1)O
> <PUBCHEM_CACTVS_TPSA>
522
> <PUBCHEM_MONOISOTOPIC_WEIGHT>
1586.6026847
> <PUBCHEM_TOTAL_CHARGE>
0
> <PUBCHEM_HEAVY_ATOM_COUNT>
111
> <PUBCHEM_ATOM_DEF_STEREO_COUNT>
17
> <PUBCHEM_ATOM_UDEF_STEREO_COUNT>
1
> <PUBCHEM_BOND_DEF_STEREO_COUNT>
0
> <PUBCHEM_BOND_UDEF_STEREO_COUNT>
0
> <PUBCHEM_ISOTOPIC_ATOM_COUNT>
0
> <PUBCHEM_COMPONENT_COUNT>
1
> <PUBCHEM_CACTVS_TAUTO_COUNT>
970
> <PUBCHEM_COORDINATE_TYPE>
1
5
255
> <PUBCHEM_BONDANNOTATIONS>
105  106  8
68  15  6
36  26  5
73  31  5
85  33  5
39  4  6
41  4  6
40  47  5
46  48  5
49  50  8
49  51  8
50  52  8
51  53  8
52  54  8
53  54  8
55  138  6
57  61  8
57  62  8
58  63  8
58  64  8
37  6  5
60  141  5
61  71  8
62  72  8
63  74  8
64  75  8
65  78  5
66  71  8
66  72  8
67  74  8
67  75  8
69  146  5
42  7  5
70  147  3
77  81  8
77  83  8
45  8  5
81  84  8
82  94  6
83  92  8
84  91  8
86  87  8
86  96  8
87  95  8
44  9  6
91  92  8
95  106  8
96  105  8
$$$$
