509508
  -OEChem-10302200282D
 28 29  0     1  0  0  0  0  0999 V2000
    3.2320   -3.3214    0.0000 F   0  0  0  0  0  0  0  0  0  0  0  0
    2.2810   -2.6304    0.0000 F   0  0  0  0  0  0  0  0  0  0  0  0
    2.0000    2.2175    0.0000 F   0  0  0  0  0  0  0  0  0  0  0  0
    4.5411   -1.3703    0.0000 O   0  0  0  0  0  0  0  0  0  0  0  0
    5.8144   -3.0259    0.0000 O   0  0  0  0  0  0  0  0  0  0  0  0
    5.4641    0.2175    0.0000 O   0  0  0  0  0  0  0  0  0  0  0  0
    3.7320    0.2175    0.0000 N   0  0  0  0  0  0  0  0  0  0  0  0
    4.5981    1.7175    0.0000 N   0  0  0  0  0  0  0  0  0  0  0  0
    3.7320    3.2175    0.0000 N   0  0  0  0  0  0  0  0  0  0  0  0
    3.7320   -0.7825    0.0000 C   0  0  2  0  0  0  0  0  0  0  0  0
    2.9230   -1.3703    0.0000 C   0  0  0  0  0  0  0  0  0  0  0  0
    3.2320   -2.3214    0.0000 C   0  0  0  0  0  0  0  0  0  0  0  0
    4.2320   -2.3214    0.0000 C   0  0  2  0  0  0  0  0  0  0  0  0
    4.8198   -3.1304    0.0000 C   0  0  0  0  0  0  0  0  0  0  0  0
    2.8660    0.7175    0.0000 C   0  0  0  0  0  0  0  0  0  0  0  0
    4.5981    0.7175    0.0000 C   0  0  0  0  0  0  0  0  0  0  0  0
    2.8660    1.7175    0.0000 C   0  0  0  0  0  0  0  0  0  0  0  0
    3.7320    2.2175    0.0000 C   0  0  0  0  0  0  0  0  0  0  0  0
    4.2845   -0.5011    0.0000 H   0  0  0  0  0  0  0  0  0  0  0  0
    2.6130   -0.8334    0.0000 H   0  0  0  0  0  0  0  0  0  0  0  0
    2.3566   -1.6225    0.0000 H   0  0  0  0  0  0  0  0  0  0  0  0
    4.8444   -2.2244    0.0000 H   0  0  0  0  0  0  0  0  0  0  0  0
    4.2626   -3.4022    0.0000 H   0  0  0  0  0  0  0  0  0  0  0  0
    4.9907   -3.7264    0.0000 H   0  0  0  0  0  0  0  0  0  0  0  0
    2.3291    0.4075    0.0000 H   0  0  0  0  0  0  0  0  0  0  0  0
    6.1788   -3.5275    0.0000 H   0  0  0  0  0  0  0  0  0  0  0  0
    4.2690    3.5275    0.0000 H   0  0  0  0  0  0  0  0  0  0  0  0
    3.1951    3.5275    0.0000 H   0  0  0  0  0  0  0  0  0  0  0  0
  1 12  1  0  0  0  0
  2 12  1  0  0  0  0
  3 17  1  0  0  0  0
  4 10  1  0  0  0  0
  4 13  1  0  0  0  0
  5 14  1  0  0  0  0
  5 26  1  0  0  0  0
  6 16  2  0  0  0  0
 10  7  1  1  0  0  0
  7 15  1  0  0  0  0
  7 16  1  0  0  0  0
  8 16  1  0  0  0  0
  8 18  2  0  0  0  0
  9 18  1  0  0  0  0
  9 27  1  0  0  0  0
  9 28  1  0  0  0  0
 10 11  1  0  0  0  0
 10 19  1  0  0  0  0
 11 12  1  0  0  0  0
 11 20  1  0  0  0  0
 11 21  1  0  0  0  0
 12 13  1  0  0  0  0
 13 14  1  1  0  0  0
 13 22  1  0  0  0  0
 14 23  1  0  0  0  0
 14 24  1  0  0  0  0
 15 17  2  0  0  0  0
 15 25  1  0  0  0  0
 17 18  1  0  0  0  0
M  END
> <PUBCHEM_COMPOUND_CID>
509508
> <PUBCHEM_COMPOUND_CANONICALIZED>
1
> <PUBCHEM_CACTVS_COMPLEXITY>
438
> <PUBCHEM_CACTVS_HBOND_ACCEPTOR>
6
> <PUBCHEM_CACTVS_HBOND_DONOR>
2
> <PUBCHEM_CACTVS_ROTATABLE_BOND>
2
> <PUBCHEM_CACTVS_SUBSKEYS>
AAADccBzMYAAAAAAAAAAAAAAAAAAASAAAAAgAAAAAAAAAAAAAAAAHwAQCAAACBThgBYBAANABgCoAAJmdACAAAEAAAAAAAAIABCBEAIAgAAOQAAEBgIDAACwMAIAAAAAAAAAAAAAAAAAAAAAAAAAAAAAAA==
> <PUBCHEM_IUPAC_OPENEYE_NAME>
4-amino-1-[(2S,5S)-4,4-difluoro-5-(hydroxymethyl)tetrahydrofuran-2-yl]-5-fluoro-pyrimidin-2-one
> <PUBCHEM_IUPAC_CAS_NAME>
4-amino-1-[(2S,5S)-4,4-difluoro-5-(hydroxymethyl)-2-oxolanyl]-5-fluoro-2-pyrimidinone
> <PUBCHEM_IUPAC_NAME_MARKUP>
4-amino-1-[(2<I>S</I>,5<I>S</I>)-4,4-difluoro-5-(hydroxymethyl)oxolan-2-yl]-5-fluoropyrimidin-2-one
> <PUBCHEM_IUPAC_NAME>
4-amino-1-[(2S,5S)-4,4-difluoro-5-(hydroxymethyl)oxolan-2-yl]-5-fluoropyrimidin-2-one
> <PUBCHEM_IUPAC_SYSTEMATIC_NAME>
4-azanyl-1-[(2S,5S)-4,4-bis(fluoranyl)-5-(hydroxymethyl)oxolan-2-yl]-5-fluoranyl-pyrimidin-2-one
> <PUBCHEM_IUPAC_TRADITIONAL_NAME>
4-amino-1-[(2S,5S)-4,4-difluoro-5-methylol-tetrahydrofuran-2-yl]-5-fluoro-pyrimidin-2-one
> <PUBCHEM_IUPAC_INCHI>
InChI=1S/C9H10F3N3O3/c10-4-2-15(8(17)14-7(4)13)6-1-9(11,12)5(3-16)18-6/h2,5-6,16H,1,3H2,(H2,13,14,17)/t5-,6-/m0/s1
> <PUBCHEM_IUPAC_INCHIKEY>
GASVLOLKVYHJRB-WDSKDSINSA-N
> <PUBCHEM_XLOGP3>
-0.8
> <PUBCHEM_EXACT_MASS>
265.06742568
> <PUBCHEM_MOLECULAR_FORMULA>
C9H10F3N3O3
> <PUBCHEM_MOLECULAR_WEIGHT>
265.19
> <PUBCHEM_OPENEYE_CAN_SMILES>
C1C(OC(C1(F)F)CO)N2C=C(C(=NC2=O)N)F
> <PUBCHEM_OPENEYE_ISO_SMILES>
C1[C@H](O[C@H](C1(F)F)CO)N2C=C(C(=NC2=O)N)F
> <PUBCHEM_CACTVS_TPSA>
88.2
> <PUBCHEM_MONOISOTOPIC_WEIGHT>
265.06742568
> <PUBCHEM_TOTAL_CHARGE>
0
> <PUBCHEM_HEAVY_ATOM_COUNT>
18
> <PUBCHEM_ATOM_DEF_STEREO_COUNT>
2
> <PUBCHEM_ATOM_UDEF_STEREO_COUNT>
0
> <PUBCHEM_BOND_DEF_STEREO_COUNT>
0
> <PUBCHEM_BOND_UDEF_STEREO_COUNT>
0
> <PUBCHEM_ISOTOPIC_ATOM_COUNT>
0
> <PUBCHEM_COMPONENT_COUNT>
1
> <PUBCHEM_CACTVS_TAUTO_COUNT>
-1
> <PUBCHEM_COORDINATE_TYPE>
1
5
255
> <PUBCHEM_BONDANNOTATIONS>
13  14  5
15  17  8
17  18  8
10  7  5
7  15  8
7  16  8
8  16  8
8  18  8
$$$$
