509529
  -OEChem-10302200282D
203213  0     1  0  0  0  0  0999 V2000
    9.5173    0.3451    0.0000 Cl  0  0  0  0  0  0  0  0  0  0  0  0
   12.1153   -5.1550    0.0000 O   0  0  0  0  0  0  0  0  0  0  0  0
   11.2493   -3.6550    0.0000 O   0  0  0  0  0  0  0  0  0  0  0  0
    9.5173   -1.6550    0.0000 O   0  0  0  0  0  0  0  0  0  0  0  0
   11.2493   -7.6550    0.0000 O   0  0  0  0  0  0  0  0  0  0  0  0
   18.7445    0.6768    0.0000 O   0  0  0  0  0  0  0  0  0  0  0  0
   11.2493   -1.6550    0.0000 O   0  0  0  0  0  0  0  0  0  0  0  0
    9.5173   -4.6550    0.0000 O   0  0  0  0  0  0  0  0  0  0  0  0
   17.0190    0.5258    0.0000 O   0  0  0  0  0  0  0  0  0  0  0  0
    7.7852   -3.6550    0.0000 O   0  0  0  0  0  0  0  0  0  0  0  0
   20.6443   -1.1647    0.0000 O   0  0  0  0  0  0  0  0  0  0  0  0
    6.9192   -2.1550    0.0000 O   0  0  0  0  0  0  0  0  0  0  0  0
   12.9814   -0.6550    0.0000 O   0  0  0  0  0  0  0  0  0  0  0  0
    9.5173   -0.6550    0.0000 O   0  0  0  0  0  0  0  0  0  0  0  0
   18.3115    2.8450    0.0000 O   0  0  0  0  0  0  0  0  0  0  0  0
   13.8502    1.8402    0.0000 O   0  0  0  0  0  0  0  0  0  0  0  0
   12.1166    3.8450    0.0000 O   0  0  0  0  0  0  0  0  0  0  0  0
   14.8144    3.4115    0.0000 O   0  0  0  0  0  0  0  0  0  0  0  0
    9.5173    1.3450    0.0000 O   0  0  0  0  0  0  0  0  0  0  0  0
   13.8474    6.8450    0.0000 O   0  0  0  0  0  0  0  0  0  0  0  0
   14.7134    7.3450    0.0000 O   0  0  0  0  0  0  0  0  0  0  0  0
   18.1775    7.3450    0.0000 O   0  0  0  0  0  0  0  0  0  0  0  0
    5.0872    1.0862    0.0000 O   0  0  0  0  0  0  0  0  0  0  0  0
    6.9192    3.8450    0.0000 O   0  0  0  0  0  0  0  0  0  0  0  0
   10.0655    4.2592    0.0000 O   0  0  0  0  0  0  0  0  0  0  0  0
    4.1213    1.8274    0.0000 O   0  0  0  0  0  0  0  0  0  0  0  0
    9.8833   -7.0210    0.0000 N   0  0  0  0  0  0  0  0  0  0  0  0
   19.4924   -2.1348    0.0000 N   0  0  0  0  0  0  0  0  0  0  0  0
   15.5795    2.8450    0.0000 N   0  0  0  0  0  0  0  0  0  0  0  0
   17.3115    3.8450    0.0000 N   0  0  0  0  0  0  0  0  0  0  0  0
   12.9814    2.3450    0.0000 N   0  0  0  0  0  0  0  0  0  0  0  0
   10.3833    2.8450    0.0000 N   0  0  0  0  0  0  0  0  0  0  0  0
   14.8202    4.9436    0.0000 N   0  0  0  0  0  0  0  0  0  0  0  0
    7.7852    2.3450    0.0000 N   0  0  0  0  0  0  0  0  0  0  0  0
    5.3461    3.0521    0.0000 N   0  0  0  0  0  0  0  0  0  0  0  0
    2.7071    3.2416    0.0000 N   0  0  0  0  0  0  0  0  0  0  0  0
    8.8407    5.4840    0.0000 N   0  0  0  0  0  0  0  0  0  0  0  0
   10.3833   -6.1550    0.0000 C   0  0  2  0  0  0  0  0  0  0  0  0
   11.2493   -6.6550    0.0000 C   0  0  2  0  0  0  0  0  0  0  0  0
   10.3833   -5.1550    0.0000 C   0  0  0  0  0  0  0  0  0  0  0  0
   11.2493   -4.6550    0.0000 C   0  0  1  0  0  0  0  0  0  0  0  0
   12.1153   -6.1550    0.0000 C   0  0  2  0  0  0  0  0  0  0  0  0
   10.3833   -3.1550    0.0000 C   0  0  2  0  0  0  0  0  0  0  0  0
    9.5173   -3.6550    0.0000 C   0  0  2  0  0  0  0  0  0  0  0  0
    9.3833   -6.1550    0.0000 C   0  0  0  0  0  0  0  0  0  0  0  0
   18.9188   -1.3156    0.0000 C   0  0  2  0  0  0  0  0  0  0  0  0
    8.6512   -3.1550    0.0000 C   0  0  1  0  0  0  0  0  0  0  0  0
   10.3833   -2.1550    0.0000 C   0  0  3  0  0  0  0  0  0  0  0  0
    8.6512   -2.1550    0.0000 C   0  0  1  0  0  0  0  0  0  0  0  0
   19.7380   -0.7420    0.0000 C   0  0  2  0  0  0  0  0  0  0  0  0
   18.0125   -0.8930    0.0000 C   0  0  0  0  0  0  0  0  0  0  0  0
   12.9814   -6.6550    0.0000 C   0  0  0  0  0  0  0  0  0  0  0  0
   19.6508    0.2542    0.0000 C   0  0  2  0  0  0  0  0  0  0  0  0
   17.9253    0.1032    0.0000 C   0  0  1  0  0  0  0  0  0  0  0  0
   18.4962   -2.2219    0.0000 C   0  0  0  0  0  0  0  0  0  0  0  0
    7.7852   -1.6550    0.0000 C   0  0  0  0  0  0  0  0  0  0  0  0
   20.4700    0.8277    0.0000 C   0  0  0  0  0  0  0  0  0  0  0  0
   16.4455    1.3450    0.0000 C   0  0  1  0  0  0  0  0  0  0  0  0
   16.4455    2.3450    0.0000 C   0  0  1  0  0  0  0  0  0  0  0  0
   11.2493   -0.6550    0.0000 C   0  0  0  0  0  0  0  0  0  0  0  0
   15.5794    0.8450    0.0000 C   0  0  0  0  0  0  0  0  0  0  0  0
   12.1153   -0.1550    0.0000 C   0  0  0  0  0  0  0  0  0  0  0  0
   10.3833   -0.1550    0.0000 C   0  0  0  0  0  0  0  0  0  0  0  0
   17.3115    2.8450    0.0000 C   0  0  0  0  0  0  0  0  0  0  0  0
   14.7134    1.3450    0.0000 C   0  0  0  0  0  0  0  0  0  0  0  0
   15.5794   -0.1550    0.0000 C   0  0  0  0  0  0  0  0  0  0  0  0
   11.2493    1.3450    0.0000 C   0  0  0  0  0  0  0  0  0  0  0  0
   12.1153    0.8450    0.0000 C   0  0  0  0  0  0  0  0  0  0  0  0
   10.3833    0.8450    0.0000 C   0  0  0  0  0  0  0  0  0  0  0  0
   13.8474   -0.1550    0.0000 C   0  0  0  0  0  0  0  0  0  0  0  0
   11.2493    2.3450    0.0000 C   0  0  2  0  0  0  0  0  0  0  0  0
   14.7134    2.3450    0.0000 C   0  0  0  0  0  0  0  0  0  0  0  0
   13.8474    2.8450    0.0000 C   0  0  1  0  0  0  0  0  0  0  0  0
   13.8474    0.8450    0.0000 C   0  0  0  0  0  0  0  0  0  0  0  0
   14.7134   -0.6550    0.0000 C   0  0  0  0  0  0  0  0  0  0  0  0
   16.4455    4.3450    0.0000 C   0  0  1  0  0  0  0  0  0  0  0  0
   12.1153    2.8450    0.0000 C   0  0  0  0  0  0  0  0  0  0  0  0
   13.8474    3.8450    0.0000 C   0  0  0  0  0  0  0  0  0  0  0  0
   16.4455    5.3450    0.0000 C   0  0  0  0  0  0  0  0  0  0  0  0
   15.5795    5.8450    0.0000 C   0  0  0  0  0  0  0  0  0  0  0  0
    8.6512   -0.1550    0.0000 C   0  0  0  0  0  0  0  0  0  0  0  0
   14.7134    4.3450    0.0000 C   0  0  0  0  0  0  0  0  0  0  0  0
   14.7134    5.3450    0.0000 C   0  0  0  0  0  0  0  0  0  0  0  0
   15.4600    4.1751    0.0000 C   0  0  0  0  0  0  0  0  0  0  0  0
   12.9814    4.3450    0.0000 C   0  0  0  0  0  0  0  0  0  0  0  0
    9.5173    2.3450    0.0000 C   0  0  0  0  0  0  0  0  0  0  0  0
   17.3115    5.8450    0.0000 C   0  0  0  0  0  0  0  0  0  0  0  0
    8.6512    2.8450    0.0000 C   0  0  2  0  0  0  0  0  0  0  0  0
   13.8474    5.8450    0.0000 C   0  0  0  0  0  0  0  0  0  0  0  0
   15.5795    6.8450    0.0000 C   0  0  0  0  0  0  0  0  0  0  0  0
   12.9814    5.3450    0.0000 C   0  0  0  0  0  0  0  0  0  0  0  0
    8.6512    0.8450    0.0000 C   0  0  0  0  0  0  0  0  0  0  0  0
    7.7852   -0.6550    0.0000 C   0  0  0  0  0  0  0  0  0  0  0  0
    6.9192    0.8450    0.0000 C   0  0  0  0  0  0  0  0  0  0  0  0
   17.3115    6.8450    0.0000 C   0  0  0  0  0  0  0  0  0  0  0  0
    6.0532    1.3450    0.0000 C   0  0  2  0  0  0  0  0  0  0  0  0
    6.0532    2.3450    0.0000 C   0  0  2  0  0  0  0  0  0  0  0  0
   16.4455    7.3450    0.0000 C   0  0  0  0  0  0  0  0  0  0  0  0
    7.7852    1.3450    0.0000 C   0  0  0  0  0  0  0  0  0  0  0  0
    6.9192   -0.1550    0.0000 C   0  0  0  0  0  0  0  0  0  0  0  0
    8.3924    3.8109    0.0000 C   0  0  0  0  0  0  0  0  0  0  0  0
    6.9192    2.8450    0.0000 C   0  0  0  0  0  0  0  0  0  0  0  0
   14.8240    5.9436    0.0000 C   0  0  0  0  0  0  0  0  0  0  0  0
    9.0995    4.5180    0.0000 C   0  0  0  0  0  0  0  0  0  0  0  0
    3.6730    3.5004    0.0000 C   0  0  1  0  0  0  0  0  0  0  0  0
    4.3801    2.7933    0.0000 C   0  0  0  0  0  0  0  0  0  0  0  0
    3.9318    4.4664    0.0000 C   0  0  0  0  0  0  0  0  0  0  0  0
    3.2247    5.1734    0.0000 C   0  0  0  0  0  0  0  0  0  0  0  0
    3.4836    6.1394    0.0000 C   0  0  0  0  0  0  0  0  0  0  0  0
    2.2588    4.9146    0.0000 C   0  0  0  0  0  0  0  0  0  0  0  0
    2.0000    3.9487    0.0000 C   0  0  0  0  0  0  0  0  0  0  0  0
   10.7124   -6.9650    0.0000 H   0  0  0  0  0  0  0  0  0  0  0  0
   10.1712   -4.5724    0.0000 H   0  0  0  0  0  0  0  0  0  0  0  0
    9.7727   -5.2626    0.0000 H   0  0  0  0  0  0  0  0  0  0  0  0
   10.7124   -4.3450    0.0000 H   0  0  0  0  0  0  0  0  0  0  0  0
   12.6523   -5.8450    0.0000 H   0  0  0  0  0  0  0  0  0  0  0  0
   10.3833   -3.7750    0.0000 H   0  0  0  0  0  0  0  0  0  0  0  0
    8.9803   -3.9650    0.0000 H   0  0  0  0  0  0  0  0  0  0  0  0
    9.3833   -5.5350    0.0000 H   0  0  0  0  0  0  0  0  0  0  0  0
    8.7633   -6.1550    0.0000 H   0  0  0  0  0  0  0  0  0  0  0  0
    9.3833   -6.7750    0.0000 H   0  0  0  0  0  0  0  0  0  0  0  0
    8.1143   -2.8450    0.0000 H   0  0  0  0  0  0  0  0  0  0  0  0
   11.1194   -2.5800    0.0000 H   0  0  0  0  0  0  0  0  0  0  0  0
    8.6512   -1.5350    0.0000 H   0  0  0  0  0  0  0  0  0  0  0  0
   19.7920   -1.3597    0.0000 H   0  0  0  0  0  0  0  0  0  0  0  0
    9.2633   -7.0210    0.0000 H   0  0  0  0  0  0  0  0  0  0  0  0
   10.1933   -7.5580    0.0000 H   0  0  0  0  0  0  0  0  0  0  0  0
   17.3949   -0.8389    0.0000 H   0  0  0  0  0  0  0  0  0  0  0  0
   17.8520   -1.4919    0.0000 H   0  0  0  0  0  0  0  0  0  0  0  0
   12.6714   -7.1919    0.0000 H   0  0  0  0  0  0  0  0  0  0  0  0
   13.5183   -6.9650    0.0000 H   0  0  0  0  0  0  0  0  0  0  0  0
   13.2914   -6.1181    0.0000 H   0  0  0  0  0  0  0  0  0  0  0  0
   19.5968    0.8718    0.0000 H   0  0  0  0  0  0  0  0  0  0  0  0
   17.4175   -0.2524    0.0000 H   0  0  0  0  0  0  0  0  0  0  0  0
   11.7862   -7.9650    0.0000 H   0  0  0  0  0  0  0  0  0  0  0  0
   17.9343   -1.9599    0.0000 H   0  0  0  0  0  0  0  0  0  0  0  0
   18.2341   -2.7838    0.0000 H   0  0  0  0  0  0  0  0  0  0  0  0
   19.0581   -2.4840    0.0000 H   0  0  0  0  0  0  0  0  0  0  0  0
    8.1837   -1.1800    0.0000 H   0  0  0  0  0  0  0  0  0  0  0  0
    7.3867   -1.1800    0.0000 H   0  0  0  0  0  0  0  0  0  0  0  0
   19.2303   -2.6967    0.0000 H   0  0  0  0  0  0  0  0  0  0  0  0
   20.1100   -2.0807    0.0000 H   0  0  0  0  0  0  0  0  0  0  0  0
   20.8256    0.3198    0.0000 H   0  0  0  0  0  0  0  0  0  0  0  0
   20.9778    1.1833    0.0000 H   0  0  0  0  0  0  0  0  0  0  0  0
   20.1143    1.3356    0.0000 H   0  0  0  0  0  0  0  0  0  0  0  0
    8.9803   -4.9650    0.0000 H   0  0  0  0  0  0  0  0  0  0  0  0
    7.7852   -4.2750    0.0000 H   0  0  0  0  0  0  0  0  0  0  0  0
   17.0443    1.1845    0.0000 H   0  0  0  0  0  0  0  0  0  0  0  0
   21.1521   -0.8091    0.0000 H   0  0  0  0  0  0  0  0  0  0  0  0
   17.1816    1.9200    0.0000 H   0  0  0  0  0  0  0  0  0  0  0  0
    6.3822   -1.8450    0.0000 H   0  0  0  0  0  0  0  0  0  0  0  0
   15.5795    3.4650    0.0000 H   0  0  0  0  0  0  0  0  0  0  0  0
   14.7134    1.9650    0.0000 H   0  0  0  0  0  0  0  0  0  0  0  0
   16.1164   -0.4650    0.0000 H   0  0  0  0  0  0  0  0  0  0  0  0
   12.6523    1.1550    0.0000 H   0  0  0  0  0  0  0  0  0  0  0  0
    9.8463    1.1550    0.0000 H   0  0  0  0  0  0  0  0  0  0  0  0
   11.2493    3.1950    0.0000 H   0  0  0  0  0  0  0  0  0  0  0  0
   13.1831    3.3753    0.0000 H   0  0  0  0  0  0  0  0  0  0  0  0
   13.3105    1.1550    0.0000 H   0  0  0  0  0  0  0  0  0  0  0  0
   14.7134   -1.2750    0.0000 H   0  0  0  0  0  0  0  0  0  0  0  0
   17.8484    4.1550    0.0000 H   0  0  0  0  0  0  0  0  0  0  0  0
   15.9690    3.9483    0.0000 H   0  0  0  0  0  0  0  0  0  0  0  0
   12.9814    1.7250    0.0000 H   0  0  0  0  0  0  0  0  0  0  0  0
   10.3833    3.4650    0.0000 H   0  0  0  0  0  0  0  0  0  0  0  0
   15.2504    4.0350    0.0000 H   0  0  0  0  0  0  0  0  0  0  0  0
   12.4444    4.0350    0.0000 H   0  0  0  0  0  0  0  0  0  0  0  0
   17.8484    5.5350    0.0000 H   0  0  0  0  0  0  0  0  0  0  0  0
    8.8117    3.4439    0.0000 H   0  0  0  0  0  0  0  0  0  0  0  0
   12.4444    5.6550    0.0000 H   0  0  0  0  0  0  0  0  0  0  0  0
    7.7852   -1.2750    0.0000 H   0  0  0  0  0  0  0  0  0  0  0  0
   14.2092    4.8383    0.0000 H   0  0  0  0  0  0  0  0  0  0  0  0
    5.6148    0.9066    0.0000 H   0  0  0  0  0  0  0  0  0  0  0  0
    5.4543    2.5055    0.0000 H   0  0  0  0  0  0  0  0  0  0  0  0
   16.4455    7.9650    0.0000 H   0  0  0  0  0  0  0  0  0  0  0  0
    7.7852    1.9650    0.0000 H   0  0  0  0  0  0  0  0  0  0  0  0
    6.3822   -0.4650    0.0000 H   0  0  0  0  0  0  0  0  0  0  0  0
    8.0368    4.3188    0.0000 H   0  0  0  0  0  0  0  0  0  0  0  0
    7.8305    3.5489    0.0000 H   0  0  0  0  0  0  0  0  0  0  0  0
    8.3375    2.0633    0.0000 H   0  0  0  0  0  0  0  0  0  0  0  0
    5.5065    3.6510    0.0000 H   0  0  0  0  0  0  0  0  0  0  0  0
   15.4440    5.9412    0.0000 H   0  0  0  0  0  0  0  0  0  0  0  0
   14.8264    6.5636    0.0000 H   0  0  0  0  0  0  0  0  0  0  0  0
   14.2040    5.9460    0.0000 H   0  0  0  0  0  0  0  0  0  0  0  0
   13.3105    7.1550    0.0000 H   0  0  0  0  0  0  0  0  0  0  0  0
   14.7134    7.9650    0.0000 H   0  0  0  0  0  0  0  0  0  0  0  0
    3.5126    2.9016    0.0000 H   0  0  0  0  0  0  0  0  0  0  0  0
   18.1775    7.9650    0.0000 H   0  0  0  0  0  0  0  0  0  0  0  0
    4.9268    0.4873    0.0000 H   0  0  0  0  0  0  0  0  0  0  0  0
    4.4938    4.2043    0.0000 H   0  0  0  0  0  0  0  0  0  0  0  0
    4.2875    4.9742    0.0000 H   0  0  0  0  0  0  0  0  0  0  0  0
    2.7863    5.6119    0.0000 H   0  0  0  0  0  0  0  0  0  0  0  0
    2.5466    2.6427    0.0000 H   0  0  0  0  0  0  0  0  0  0  0  0
    9.2791    5.9224    0.0000 H   0  0  0  0  0  0  0  0  0  0  0  0
    8.2418    5.6444    0.0000 H   0  0  0  0  0  0  0  0  0  0  0  0
    4.0824    5.9789    0.0000 H   0  0  0  0  0  0  0  0  0  0  0  0
    3.6440    6.7382    0.0000 H   0  0  0  0  0  0  0  0  0  0  0  0
    2.8847    6.2998    0.0000 H   0  0  0  0  0  0  0  0  0  0  0  0
    2.0984    5.5135    0.0000 H   0  0  0  0  0  0  0  0  0  0  0  0
    1.6600    4.7542    0.0000 H   0  0  0  0  0  0  0  0  0  0  0  0
    2.4193    4.3158    0.0000 H   0  0  0  0  0  0  0  0  0  0  0  0
    2.4384    4.3871    0.0000 H   0  0  0  0  0  0  0  0  0  0  0  0
    1.5616    4.3871    0.0000 H   0  0  0  0  0  0  0  0  0  0  0  0
    1.5616    3.5103    0.0000 H   0  0  0  0  0  0  0  0  0  0  0  0
  1 92  1  0  0  0  0
  2 41  1  0  0  0  0
  2 42  1  0  0  0  0
 41  3  1  6  0  0  0
 43  3  1  6  0  0  0
  4 48  1  0  0  0  0
  4 49  1  0  0  0  0
 39  5  1  6  0  0  0
  5135  1  0  0  0  0
  6 53  1  0  0  0  0
  6 54  1  0  0  0  0
  7 48  1  0  0  0  0
  7 60  1  0  0  0  0
 44  8  1  1  0  0  0
  8146  1  0  0  0  0
 54  9  1  6  0  0  0
 58  9  1  6  0  0  0
 47 10  1  6  0  0  0
 10147  1  0  0  0  0
 50 11  1  6  0  0  0
 11149  1  0  0  0  0
 12 56  1  0  0  0  0
 12151  1  0  0  0  0
 13 62  1  0  0  0  0
 13 70  1  0  0  0  0
 14 63  1  0  0  0  0
 14 81  1  0  0  0  0
 15 64  2  0  0  0  0
 16 72  2  0  0  0  0
 17 77  2  0  0  0  0
 18 84  2  0  0  0  0
 19 86  2  0  0  0  0
 20 89  1  0  0  0  0
 20184  1  0  0  0  0
 21 90  1  0  0  0  0
 21185  1  0  0  0  0
 22 95  1  0  0  0  0
 22187  1  0  0  0  0
 96 23  1  1  0  0  0
 23188  1  0  0  0  0
 24102  2  0  0  0  0
 25104  2  0  0  0  0
 26106  2  0  0  0  0
 38 27  1  1  0  0  0
 27126  1  0  0  0  0
 27127  1  0  0  0  0
 46 28  1  1  0  0  0
 28141  1  0  0  0  0
 28142  1  0  0  0  0
 29 59  1  0  0  0  0
 29 72  1  0  0  0  0
 29152  1  0  0  0  0
 30 64  1  0  0  0  0
 30 76  1  0  0  0  0
 30161  1  0  0  0  0
 31 73  1  0  0  0  0
 31 77  1  0  0  0  0
 31163  1  0  0  0  0
 32 71  1  0  0  0  0
 32 86  1  0  0  0  0
 32164  1  0  0  0  0
 33 84  1  0  0  0  0
 33103  1  0  0  0  0
 33171  1  0  0  0  0
 34 88  1  0  0  0  0
 34102  1  0  0  0  0
 34179  1  0  0  0  0
 97 35  1  1  0  0  0
 35106  1  0  0  0  0
 35180  1  0  0  0  0
105 36  1  6  0  0  0
 36111  1  0  0  0  0
 36192  1  0  0  0  0
 37104  1  0  0  0  0
 37193  1  0  0  0  0
 37194  1  0  0  0  0
 38 39  1  0  0  0  0
 38 40  1  0  0  0  0
 38 45  1  0  0  0  0
 39 42  1  0  0  0  0
 39112  1  0  0  0  0
 40 41  1  0  0  0  0
 40113  1  0  0  0  0
 40114  1  0  0  0  0
 41115  1  0  0  0  0
 42 52  1  1  0  0  0
 42116  1  0  0  0  0
 43 44  1  0  0  0  0
 43 48  1  0  0  0  0
 43117  1  0  0  0  0
 44 47  1  0  0  0  0
 44118  1  0  0  0  0
 45119  1  0  0  0  0
 45120  1  0  0  0  0
 45121  1  0  0  0  0
 46 50  1  0  0  0  0
 46 51  1  0  0  0  0
 46 55  1  0  0  0  0
 47 49  1  0  0  0  0
 47122  1  0  0  0  0
 48123  1  0  0  0  0
 49 56  1  1  0  0  0
 49124  1  0  0  0  0
 50 53  1  0  0  0  0
 50125  1  0  0  0  0
 51 54  1  0  0  0  0
 51128  1  0  0  0  0
 51129  1  0  0  0  0
 52130  1  0  0  0  0
 52131  1  0  0  0  0
 52132  1  0  0  0  0
 53 57  1  1  0  0  0
 53133  1  0  0  0  0
 54134  1  0  0  0  0
 55136  1  0  0  0  0
 55137  1  0  0  0  0
 55138  1  0  0  0  0
 56139  1  0  0  0  0
 56140  1  0  0  0  0
 57143  1  0  0  0  0
 57144  1  0  0  0  0
 57145  1  0  0  0  0
 58 59  1  0  0  0  0
 58 61  1  0  0  0  0
 58148  1  0  0  0  0
 59 64  1  0  0  0  0
 59150  1  1  0  0  0
 60 62  2  0  0  0  0
 60 63  1  0  0  0  0
 61 65  2  0  0  0  0
 61 66  1  0  0  0  0
 62 68  1  0  0  0  0
 63 69  2  0  0  0  0
 65 74  1  0  0  0  0
 65153  1  0  0  0  0
 66 75  2  0  0  0  0
 66154  1  0  0  0  0
 67 68  2  0  0  0  0
 67 69  1  0  0  0  0
 67 71  1  0  0  0  0
 68155  1  0  0  0  0
 69156  1  0  0  0  0
 70 74  2  0  0  0  0
 70 75  1  0  0  0  0
 71 77  1  0  0  0  0
 71157  1  6  0  0  0
 72 73  1  0  0  0  0
 73 78  1  0  0  0  0
 73158  1  1  0  0  0
 74159  1  0  0  0  0
 75160  1  0  0  0  0
 76 79  1  0  0  0  0
 76 84  1  6  0  0  0
 76162  1  0  0  0  0
 78 82  2  0  0  0  0
 78 85  1  0  0  0  0
 79 80  2  0  0  0  0
 79 87  1  0  0  0  0
 80 83  1  0  0  0  0
 80 90  1  0  0  0  0
 81 92  2  0  0  0  0
 81 93  1  0  0  0  0
 82 83  1  0  0  0  0
 82165  1  0  0  0  0
 83 89  2  0  0  0  0
 85 91  2  0  0  0  0
 85166  1  0  0  0  0
 86 88  1  0  0  0  0
 87 95  2  0  0  0  0
 87167  1  0  0  0  0
 88101  1  1  0  0  0
 88168  1  0  0  0  0
 89 91  1  0  0  0  0
 90 98  2  0  0  0  0
 91169  1  0  0  0  0
 92 99  1  0  0  0  0
 93100  2  0  0  0  0
 93170  1  0  0  0  0
 94 96  1  0  0  0  0
 94 99  2  0  0  0  0
 94100  1  0  0  0  0
 95 98  1  0  0  0  0
 96 97  1  0  0  0  0
 96172  1  0  0  0  0
 97102  1  0  0  0  0
 97173  1  0  0  0  0
 98174  1  0  0  0  0
 99175  1  0  0  0  0
100176  1  0  0  0  0
101104  1  0  0  0  0
101177  1  0  0  0  0
101178  1  0  0  0  0
103181  1  0  0  0  0
103182  1  0  0  0  0
103183  1  0  0  0  0
105106  1  0  0  0  0
105107  1  0  0  0  0
105186  1  0  0  0  0
107108  1  0  0  0  0
107189  1  0  0  0  0
107190  1  0  0  0  0
108109  1  0  0  0  0
108110  1  0  0  0  0
108191  1  0  0  0  0
109195  1  0  0  0  0
109196  1  0  0  0  0
109197  1  0  0  0  0
110198  1  0  0  0  0
110199  1  0  0  0  0
110200  1  0  0  0  0
111201  1  0  0  0  0
111202  1  0  0  0  0
111203  1  0  0  0  0
M  END
> <PUBCHEM_COMPOUND_CID>
509529
> <PUBCHEM_COMPOUND_CANONICALIZED>
1
> <PUBCHEM_CACTVS_COMPLEXITY>
3270
> <PUBCHEM_CACTVS_HBOND_ACCEPTOR>
28
> <PUBCHEM_CACTVS_HBOND_DONOR>
20
> <PUBCHEM_CACTVS_ROTATABLE_BOND>
15
> <PUBCHEM_CACTVS_SUBSKEYS>
AAADcfB//gAEAAAAAAAAAAAAAAAAAAAAAAA0aNGDAAAAAAABVAAAHgIQCAAADb7xmCcyDoLABgCIAiFSEACCCAAgJUAIiIGOj4gfdz+H9zu3eCrn9hWfuAf9/P/OoAADKAAYSABAAAZQADCQAAAAAAAAAA==
> <PUBCHEM_IUPAC_OPENEYE_NAME>
(1S,2R,18R,19R,22S,25R,28R,40S)-2-[(2R,4S,5R,6S)-4-amino-5-hydroxy-4,6-dimethyl-tetrahydropyran-2-yl]oxy-48-[(3R,4S,5S,6R)-3-[(2R,4S,5R,6S)-4-amino-5-hydroxy-4,6-dimethyl-tetrahydropyran-2-yl]oxy-4,5-dihydroxy-6-(hydroxymethyl)tetrahydropyran-2-yl]oxy-22-(2-amino-2-oxo-ethyl)-15-chloro-18,32,35,37-tetrahydroxy-N-methyl-19-[[(2R)-4-methyl-2-(methylamino)pentanoyl]amino]-20,23,26,42,44-pentaoxo-7,13-dioxa-21,24,27,41,43-pentazaoctacyclo[26.14.2.23,6.214,17.18,12.129,33.010,25.034,39]pentaconta-3(50),4,6(49),8(48),9,11,14,16,29(45),30,32,34(39),35,37,46-pentadecaene-40-carboxamide
> <PUBCHEM_IUPAC_CAS_NAME>
(1S,2R,18R,19R,22S,25R,28R,40S)-2-[[(2R,4S,5R,6S)-4-amino-5-hydroxy-4,6-dimethyl-2-oxanyl]oxy]-48-[[(3R,4S,5S,6R)-3-[[(2R,4S,5R,6S)-4-amino-5-hydroxy-4,6-dimethyl-2-oxanyl]oxy]-4,5-dihydroxy-6-(hydroxymethyl)-2-oxanyl]oxy]-22-(2-amino-2-oxoethyl)-15-chloro-18,32,35,37-tetrahydroxy-N-methyl-19-[[(2R)-4-methyl-2-(methylamino)-1-oxopentyl]amino]-20,23,26,42,44-pentaoxo-7,13-dioxa-21,24,27,41,43-pentazaoctacyclo[26.14.2.23,6.214,17.18,12.129,33.010,25.034,39]pentaconta-3(50),4,6(49),8(48),9,11,14,16,29(45),30,32,34(39),35,37,46-pentadecaene-40-carboxamide
> <PUBCHEM_IUPAC_NAME_MARKUP>
(1<I>S</I>,2<I>R</I>,18<I>R</I>,19<I>R</I>,22<I>S</I>,25<I>R</I>,28<I>R</I>,40<I>S</I>)-2-[(2<I>R</I>,4<I>S</I>,5<I>R</I>,6<I>S</I>)-4-amino-5-hydroxy-4,6-dimethyloxan-2-yl]oxy-48-[(3<I>R</I>,4<I>S</I>,5<I>S</I>,6<I>R</I>)-3-[(2<I>R</I>,4<I>S</I>,5<I>R</I>,6<I>S</I>)-4-amino-5-hydroxy-4,6-dimethyloxan-2-yl]oxy-4,5-dihydroxy-6-(hydroxymethyl)oxan-2-yl]oxy-22-(2-amino-2-oxoethyl)-15-chloro-18,32,35,37-tetrahydroxy-<I>N</I>-methyl-19-[[(2<I>R</I>)-4-methyl-2-(methylamino)pentanoyl]amino]-20,23,26,42,44-pentaoxo-7,13-dioxa-21,24,27,41,43-pentazaoctacyclo[26.14.2.2<SUP>3,6</SUP>.2<SUP>14,17</SUP>.1<SUP>8,12</SUP>.1<SUP>29,33</SUP>.0<SUP>10,25</SUP>.0<SUP>34,39</SUP>]pentaconta-3(50),4,6(49),8(48),9,11,14,16,29(45),30,32,34(39),35,37,46-pentadecaene-40-carboxamide
> <PUBCHEM_IUPAC_NAME>
(1S,2R,18R,19R,22S,25R,28R,40S)-2-[(2R,4S,5R,6S)-4-amino-5-hydroxy-4,6-dimethyloxan-2-yl]oxy-48-[(3R,4S,5S,6R)-3-[(2R,4S,5R,6S)-4-amino-5-hydroxy-4,6-dimethyloxan-2-yl]oxy-4,5-dihydroxy-6-(hydroxymethyl)oxan-2-yl]oxy-22-(2-amino-2-oxoethyl)-15-chloro-18,32,35,37-tetrahydroxy-N-methyl-19-[[(2R)-4-methyl-2-(methylamino)pentanoyl]amino]-20,23,26,42,44-pentaoxo-7,13-dioxa-21,24,27,41,43-pentazaoctacyclo[26.14.2.23,6.214,17.18,12.129,33.010,25.034,39]pentaconta-3(50),4,6(49),8(48),9,11,14,16,29(45),30,32,34(39),35,37,46-pentadecaene-40-carboxamide
> <PUBCHEM_IUPAC_SYSTEMATIC_NAME>
(1S,2R,18R,19R,22S,25R,28R,40S)-2-[(2R,4S,5R,6S)-4-azanyl-4,6-dimethyl-5-oxidanyl-oxan-2-yl]oxy-48-[(3R,4S,5S,6R)-3-[(2R,4S,5R,6S)-4-azanyl-4,6-dimethyl-5-oxidanyl-oxan-2-yl]oxy-6-(hydroxymethyl)-4,5-bis(oxidanyl)oxan-2-yl]oxy-22-(2-azanyl-2-oxidanylidene-ethyl)-15-chloranyl-N-methyl-19-[[(2R)-4-methyl-2-(methylamino)pentanoyl]amino]-18,32,35,37-tetrakis(oxidanyl)-20,23,26,42,44-pentakis(oxidanylidene)-7,13-dioxa-21,24,27,41,43-pentazaoctacyclo[26.14.2.23,6.214,17.18,12.129,33.010,25.034,39]pentaconta-3(50),4,6(49),8(48),9,11,14,16,29(45),30,32,34(39),35,37,46-pentadecaene-40-carboxamide
> <PUBCHEM_IUPAC_TRADITIONAL_NAME>
(1S,2R,18R,19R,22S,25R,28R,40S)-2-[(2R,4S,5R,6S)-4-amino-5-hydroxy-4,6-dimethyl-tetrahydropyran-2-yl]oxy-48-[(3R,4S,5S,6R)-3-[(2R,4S,5R,6S)-4-amino-5-hydroxy-4,6-dimethyl-tetrahydropyran-2-yl]oxy-4,5-dihydroxy-6-methylol-tetrahydropyran-2-yl]oxy-22-(2-amino-2-keto-ethyl)-15-chloro-18,32,35,37-tetrahydroxy-20,23,26,42,44-pentaketo-N-methyl-19-[[(2R)-4-methyl-2-(methylamino)pentanoyl]amino]-7,13-dioxa-21,24,27,41,43-pentazaoctacyclo[26.14.2.23,6.214,17.18,12.129,33.010,25.034,39]pentaconta-3(50),4,6(49),8(48),9,11,14,16,29(45),30,32,34(39),35,37,46-pentadecaene-40-carboxamide
> <PUBCHEM_IUPAC_INCHI>
InChI=1S/C74H92ClN11O25/c1-28(2)17-40(79-7)65(97)85-55-57(92)33-12-16-44(39(75)19-33)107-46-21-34-20-45(61(46)111-72-62(59(94)58(93)47(27-87)108-72)110-50-26-74(6,78)64(96)30(4)105-50)106-36-13-9-31(10-14-36)60(109-49-25-73(5,77)63(95)29(3)104-49)56-71(103)84-54(67(99)80-8)38-22-35(88)23-43(90)51(38)37-18-32(11-15-42(37)89)52(68(100)86-56)83-69(101)53(34)82-66(98)41(24-48(76)91)81-70(55)102/h9-16,18-23,28-30,40-41,47,49-50,52-60,62-64,72,79,87-90,92-96H,17,24-27,77-78H2,1-8H3,(H2,76,91)(H,80,99)(H,81,102)(H,82,98)(H,83,101)(H,84,103)(H,85,97)(H,86,100)/t29-,30-,40+,41-,47+,49-,50-,52+,53+,54-,55+,56-,57+,58+,59-,60+,62+,63-,64-,72?,73-,74-/m0/s1
> <PUBCHEM_IUPAC_INCHIKEY>
OUSASZQWCMJMTB-BSMDWCOLSA-N
> <PUBCHEM_XLOGP3_AA>
-1.4
> <PUBCHEM_EXACT_MASS>
1569.5954352
> <PUBCHEM_MOLECULAR_FORMULA>
C74H92ClN11O25
> <PUBCHEM_MOLECULAR_WEIGHT>
1571.0
> <PUBCHEM_OPENEYE_CAN_SMILES>
CC1C(C(CC(O1)OC2C(C(C(OC2OC3=C4C=C5C=C3OC6=C(C=C(C=C6)C(C(C(=O)NC(C(=O)NC5C(=O)NC7C8=CC(=C(C=C8)O)C9=C(C=C(C=C9O)O)C(NC(=O)C(C(C1=CC=C(O4)C=C1)OC1CC(C(C(O1)C)O)(C)N)NC7=O)C(=O)NC)CC(=O)N)NC(=O)C(CC(C)C)NC)O)Cl)CO)O)O)(C)N)O
> <PUBCHEM_OPENEYE_ISO_SMILES>
C[C@H]1[C@@H]([C@@](C[C@@H](O1)O[C@@H]2[C@H]([C@@H]([C@H](OC2OC3=C4C=C5C=C3OC6=C(C=C(C=C6)[C@H]([C@H](C(=O)N[C@H](C(=O)N[C@H]5C(=O)N[C@@H]7C8=CC(=C(C=C8)O)C9=C(C=C(C=C9O)O)[C@H](NC(=O)[C@H]([C@@H](C1=CC=C(O4)C=C1)O[C@H]1C[C@]([C@H]([C@@H](O1)C)O)(C)N)NC7=O)C(=O)NC)CC(=O)N)NC(=O)[C@@H](CC(C)C)NC)O)Cl)CO)O)O)(C)N)O
> <PUBCHEM_CACTVS_TPSA>
567
> <PUBCHEM_MONOISOTOPIC_WEIGHT>
1569.5954352
> <PUBCHEM_TOTAL_CHARGE>
0
> <PUBCHEM_HEAVY_ATOM_COUNT>
111
> <PUBCHEM_ATOM_DEF_STEREO_COUNT>
21
> <PUBCHEM_ATOM_UDEF_STEREO_COUNT>
1
> <PUBCHEM_BOND_DEF_STEREO_COUNT>
0
> <PUBCHEM_BOND_UDEF_STEREO_COUNT>
0
> <PUBCHEM_ISOTOPIC_ATOM_COUNT>
0
> <PUBCHEM_COMPONENT_COUNT>
1
> <PUBCHEM_CACTVS_TAUTO_COUNT>
986
> <PUBCHEM_COORDINATE_TYPE>
1
5
255
> <PUBCHEM_BONDANNOTATIONS>
47  10  6
50  11  6
96  23  5
38  27  5
46  28  5
41  3  6
43  3  6
97  35  5
105  36  6
42  52  5
48  123  3
49  56  5
39  5  6
53  57  5
59  150  5
60  62  8
60  63  8
61  65  8
61  66  8
62  68  8
63  69  8
65  74  8
66  75  8
67  68  8
67  69  8
70  74  8
70  75  8
71  157  6
73  158  5
76  84  6
78  82  8
78  85  8
79  80  8
79  87  8
44  8  5
80  90  8
81  92  8
81  93  8
82  83  8
83  89  8
85  91  8
87  95  8
88  101  5
89  91  8
54  9  6
58  9  6
90  98  8
92  99  8
93  100  8
94  100  8
94  99  8
95  98  8
$$$$
