509532
  -OEChem-10302200282D
141151  0     1  0  0  0  0  0999 V2000
   11.8426    4.1194    0.0000 Cl  0  0  0  0  0  0  0  0  0  0  0  0
    6.6465   -2.8806    0.0000 O   0  0  0  0  0  0  0  0  0  0  0  0
    3.1824   -2.8806    0.0000 O   0  0  0  0  0  0  0  0  0  0  0  0
    7.5125   -2.3806    0.0000 O   0  0  0  0  0  0  0  0  0  0  0  0
    6.5456    1.0529    0.0000 O   0  0  0  0  0  0  0  0  0  0  0  0
    3.1824    2.1194    0.0000 O   0  0  0  0  0  0  0  0  0  0  0  0
    5.7777    2.6146    0.0000 O   0  0  0  0  0  0  0  0  0  0  0  0
    4.2073    3.8265    0.0000 O   0  0  0  0  0  0  0  0  0  0  0  0
    9.2432    0.6194    0.0000 O   0  0  0  0  0  0  0  0  0  0  0  0
    8.3785    5.1194    0.0000 O   0  0  0  0  0  0  0  0  0  0  0  0
   11.8426    3.1194    0.0000 O   0  0  0  0  0  0  0  0  0  0  0  0
   11.8426    5.1194    0.0000 O   0  0  0  0  0  0  0  0  0  0  0  0
   10.1106    6.1194    0.0000 O   0  0  0  0  0  0  0  0  0  0  0  0
   14.4407    0.6194    0.0000 O   0  0  0  0  0  0  0  0  0  0  0  0
   11.2944    0.2052    0.0000 O   0  0  0  0  0  0  0  0  0  0  0  0
   16.0138    3.8265    0.0000 O   0  0  0  0  0  0  0  0  0  0  0  0
    4.0484    0.6194    0.0000 N   0  0  0  0  0  0  0  0  0  0  0  0
    6.5397   -0.4792    0.0000 N   0  0  0  0  0  0  0  0  0  0  0  0
    5.7804    1.6194    0.0000 N   0  0  0  0  0  0  0  0  0  0  0  0
    8.3785    2.1194    0.0000 N   0  0  0  0  0  0  0  0  0  0  0  0
   10.9766    1.6194    0.0000 N   0  0  0  0  0  0  0  0  0  0  0  0
   13.5747    2.1194    0.0000 N   0  0  0  0  0  0  0  0  0  0  0  0
   12.5192   -1.0195    0.0000 N   0  0  0  0  0  0  0  0  0  0  0  0
   16.2726    1.8606    0.0000 N   0  0  0  0  0  0  0  0  0  0  0  0
    4.2983   -5.3132    0.0000 C   0  0  0  0  0  0  0  0  0  0  0  0
    3.1157   -4.1307    0.0000 C   0  0  0  0  0  0  0  0  0  0  0  0
    4.0484   -4.3806    0.0000 C   0  0  0  0  0  0  0  0  0  0  0  0
    2.3002   -5.4933    0.0000 C   0  0  0  0  0  0  0  0  0  0  0  0
    2.6829   -5.7461    0.0000 C   0  0  0  0  0  0  0  0  0  0  0  0
    3.3099   -5.7638    0.0000 C   0  0  0  0  0  0  0  0  0  0  0  0
    3.6155   -5.9960    0.0000 C   0  0  0  0  0  0  0  0  0  0  0  0
    2.0740   -4.4951    0.0000 C   0  0  0  0  0  0  0  0  0  0  0  0
    2.6069   -4.8600    0.0000 C   0  0  0  0  0  0  0  0  0  0  0  0
    2.0000   -6.4294    0.0000 C   0  0  0  0  0  0  0  0  0  0  0  0
    4.9144   -3.8806    0.0000 C   0  0  0  0  0  0  0  0  0  0  0  0
    4.9144   -2.8806    0.0000 C   0  0  0  0  0  0  0  0  0  0  0  0
    5.7804   -2.3806    0.0000 C   0  0  0  0  0  0  0  0  0  0  0  0
    4.0484   -2.3806    0.0000 C   0  0  0  0  0  0  0  0  0  0  0  0
    5.7804   -1.3806    0.0000 C   0  0  0  0  0  0  0  0  0  0  0  0
    4.0484   -1.3806    0.0000 C   0  0  0  0  0  0  0  0  0  0  0  0
    4.9144   -0.8806    0.0000 C   0  0  0  0  0  0  0  0  0  0  0  0
    6.6465   -0.8806    0.0000 C   0  0  0  0  0  0  0  0  0  0  0  0
    4.9144    0.1194    0.0000 C   0  0  1  0  0  0  0  0  0  0  0  0
    6.6465    0.1194    0.0000 C   0  0  0  0  0  0  0  0  0  0  0  0
    7.5125   -1.3806    0.0000 C   0  0  0  0  0  0  0  0  0  0  0  0
    5.8999    0.2893    0.0000 C   0  0  0  0  0  0  0  0  0  0  0  0
    7.5125    0.6194    0.0000 C   0  0  0  0  0  0  0  0  0  0  0  0
    8.3785   -0.8806    0.0000 C   0  0  0  0  0  0  0  0  0  0  0  0
    4.0484    1.6194    0.0000 C   0  0  0  0  0  0  0  0  0  0  0  0
    8.3785    0.1194    0.0000 C   0  0  0  0  0  0  0  0  0  0  0  0
    7.5125    1.6194    0.0000 C   0  0  2  0  0  0  0  0  0  0  0  0
    4.9144    2.1194    0.0000 C   0  0  2  0  0  0  0  0  0  0  0  0
    6.6465    2.1194    0.0000 C   0  0  0  0  0  0  0  0  0  0  0  0
    6.5360   -1.4792    0.0000 C   0  0  0  0  0  0  0  0  0  0  0  0
    4.9144    3.1194    0.0000 C   0  0  1  0  0  0  0  0  0  0  0  0
    5.7804    3.6194    0.0000 C   0  0  0  0  0  0  0  0  0  0  0  0
    9.2445    1.6194    0.0000 C   0  0  0  0  0  0  0  0  0  0  0  0
   10.1106    2.1194    0.0000 C   0  0  1  0  0  0  0  0  0  0  0  0
    5.7804    4.6194    0.0000 C   0  0  0  0  0  0  0  0  0  0  0  0
    6.6465    3.1194    0.0000 C   0  0  0  0  0  0  0  0  0  0  0  0
   10.1106    3.1194    0.0000 C   0  0  0  0  0  0  0  0  0  0  0  0
    6.6465    5.1194    0.0000 C   0  0  0  0  0  0  0  0  0  0  0  0
    7.5125    3.6194    0.0000 C   0  0  0  0  0  0  0  0  0  0  0  0
    7.5125    4.6194    0.0000 C   0  0  0  0  0  0  0  0  0  0  0  0
    9.2445    3.6194    0.0000 C   0  0  0  0  0  0  0  0  0  0  0  0
   10.9766    3.6194    0.0000 C   0  0  0  0  0  0  0  0  0  0  0  0
   11.8426    2.1194    0.0000 C   0  0  0  0  0  0  0  0  0  0  0  0
    9.2445    4.6194    0.0000 C   0  0  0  0  0  0  0  0  0  0  0  0
   10.9766    4.6194    0.0000 C   0  0  0  0  0  0  0  0  0  0  0  0
   12.7086    1.6194    0.0000 C   0  0  2  0  0  0  0  0  0  0  0  0
   10.1106    5.1194    0.0000 C   0  0  0  0  0  0  0  0  0  0  0  0
   12.9675    0.6535    0.0000 C   0  0  0  0  0  0  0  0  0  0  0  0
   14.4407    1.6194    0.0000 C   0  0  0  0  0  0  0  0  0  0  0  0
   12.2604   -0.0536    0.0000 C   0  0  0  0  0  0  0  0  0  0  0  0
   12.7086    4.6194    0.0000 C   0  0  0  0  0  0  0  0  0  0  0  0
   15.3067    2.1194    0.0000 C   0  0  1  0  0  0  0  0  0  0  0  0
   15.3067    3.1194    0.0000 C   0  0  1  0  0  0  0  0  0  0  0  0
   12.7086    3.6194    0.0000 C   0  0  0  0  0  0  0  0  0  0  0  0
   13.5747    5.1194    0.0000 C   0  0  0  0  0  0  0  0  0  0  0  0
   14.4407    3.6194    0.0000 C   0  0  0  0  0  0  0  0  0  0  0  0
   13.5747    3.1194    0.0000 C   0  0  0  0  0  0  0  0  0  0  0  0
   14.4407    4.6194    0.0000 C   0  0  0  0  0  0  0  0  0  0  0  0
    4.8972   -5.4737    0.0000 H   0  0  0  0  0  0  0  0  0  0  0  0
    3.0926   -3.5111    0.0000 H   0  0  0  0  0  0  0  0  0  0  0  0
    3.9674   -3.7659    0.0000 H   0  0  0  0  0  0  0  0  0  0  0  0
    1.6808   -5.4662    0.0000 H   0  0  0  0  0  0  0  0  0  0  0  0
    3.1582   -5.3480    0.0000 H   0  0  0  0  0  0  0  0  0  0  0  0
    2.9829   -6.2906    0.0000 H   0  0  0  0  0  0  0  0  0  0  0  0
    3.7194   -6.2293    0.0000 H   0  0  0  0  0  0  0  0  0  0  0  0
    3.3535   -6.5579    0.0000 H   0  0  0  0  0  0  0  0  0  0  0  0
    4.1234   -6.3516    0.0000 H   0  0  0  0  0  0  0  0  0  0  0  0
    1.8916   -3.9025    0.0000 H   0  0  0  0  0  0  0  0  0  0  0  0
    1.4750   -4.6549    0.0000 H   0  0  0  0  0  0  0  0  0  0  0  0
    2.2220   -4.3739    0.0000 H   0  0  0  0  0  0  0  0  0  0  0  0
    2.0305   -5.0886    0.0000 H   0  0  0  0  0  0  0  0  0  0  0  0
    1.3809   -6.4635    0.0000 H   0  0  0  0  0  0  0  0  0  0  0  0
    2.2530   -6.9954    0.0000 H   0  0  0  0  0  0  0  0  0  0  0  0
    5.1265   -4.4632    0.0000 H   0  0  0  0  0  0  0  0  0  0  0  0
    5.5250   -3.7729    0.0000 H   0  0  0  0  0  0  0  0  0  0  0  0
    3.5114   -1.0706    0.0000 H   0  0  0  0  0  0  0  0  0  0  0  0
    6.6465   -3.5006    0.0000 H   0  0  0  0  0  0  0  0  0  0  0  0
    2.6454   -2.5706    0.0000 H   0  0  0  0  0  0  0  0  0  0  0  0
    5.3909    0.5161    0.0000 H   0  0  0  0  0  0  0  0  0  0  0  0
    6.1095    0.4294    0.0000 H   0  0  0  0  0  0  0  0  0  0  0  0
    3.5114    0.3094    0.0000 H   0  0  0  0  0  0  0  0  0  0  0  0
    8.9154   -1.1906    0.0000 H   0  0  0  0  0  0  0  0  0  0  0  0
    8.9154    0.4294    0.0000 H   0  0  0  0  0  0  0  0  0  0  0  0
    7.1507   -0.3739    0.0000 H   0  0  0  0  0  0  0  0  0  0  0  0
    8.1768    1.0892    0.0000 H   0  0  0  0  0  0  0  0  0  0  0  0
    8.0494   -2.6906    0.0000 H   0  0  0  0  0  0  0  0  0  0  0  0
    4.1783    2.5444    0.0000 H   0  0  0  0  0  0  0  0  0  0  0  0
    5.9160   -1.4768    0.0000 H   0  0  0  0  0  0  0  0  0  0  0  0
    6.5336   -2.0992    0.0000 H   0  0  0  0  0  0  0  0  0  0  0  0
    7.1560   -1.4815    0.0000 H   0  0  0  0  0  0  0  0  0  0  0  0
    5.7804    0.9994    0.0000 H   0  0  0  0  0  0  0  0  0  0  0  0
    4.3155    3.2799    0.0000 H   0  0  0  0  0  0  0  0  0  0  0  0
    8.3785    2.7394    0.0000 H   0  0  0  0  0  0  0  0  0  0  0  0
    4.3678    4.4254    0.0000 H   0  0  0  0  0  0  0  0  0  0  0  0
   10.1106    1.2694    0.0000 H   0  0  0  0  0  0  0  0  0  0  0  0
    5.2435    4.9294    0.0000 H   0  0  0  0  0  0  0  0  0  0  0  0
    6.6465    2.4994    0.0000 H   0  0  0  0  0  0  0  0  0  0  0  0
   10.9766    0.9994    0.0000 H   0  0  0  0  0  0  0  0  0  0  0  0
    6.6465    5.7394    0.0000 H   0  0  0  0  0  0  0  0  0  0  0  0
    8.0494    3.3094    0.0000 H   0  0  0  0  0  0  0  0  0  0  0  0
    8.7076    3.3094    0.0000 H   0  0  0  0  0  0  0  0  0  0  0  0
   11.5135    3.3094    0.0000 H   0  0  0  0  0  0  0  0  0  0  0  0
   12.5482    1.0205    0.0000 H   0  0  0  0  0  0  0  0  0  0  0  0
   13.3231    0.1456    0.0000 H   0  0  0  0  0  0  0  0  0  0  0  0
   13.5294    0.9155    0.0000 H   0  0  0  0  0  0  0  0  0  0  0  0
   13.0796    2.4927    0.0000 H   0  0  0  0  0  0  0  0  0  0  0  0
   10.6475    6.4294    0.0000 H   0  0  0  0  0  0  0  0  0  0  0  0
   15.7451    1.6810    0.0000 H   0  0  0  0  0  0  0  0  0  0  0  0
   15.9056    3.2799    0.0000 H   0  0  0  0  0  0  0  0  0  0  0  0
   13.5747    5.7394    0.0000 H   0  0  0  0  0  0  0  0  0  0  0  0
   13.1180   -1.1800    0.0000 H   0  0  0  0  0  0  0  0  0  0  0  0
   12.0808   -1.4580    0.0000 H   0  0  0  0  0  0  0  0  0  0  0  0
   13.5747    2.4994    0.0000 H   0  0  0  0  0  0  0  0  0  0  0  0
   14.9776    4.9294    0.0000 H   0  0  0  0  0  0  0  0  0  0  0  0
   16.4331    1.2617    0.0000 H   0  0  0  0  0  0  0  0  0  0  0  0
   16.7110    2.2990    0.0000 H   0  0  0  0  0  0  0  0  0  0  0  0
   15.8533    4.4254    0.0000 H   0  0  0  0  0  0  0  0  0  0  0  0
  1 78  1  0  0  0  0
  2 37  1  0  0  0  0
  2101  1  0  0  0  0
  3 38  1  0  0  0  0
  3102  1  0  0  0  0
  4 45  1  0  0  0  0
  4110  1  0  0  0  0
  5 46  2  0  0  0  0
  6 49  2  0  0  0  0
  7 53  2  0  0  0  0
 55  8  1  6  0  0  0
  8118  1  0  0  0  0
  9 57  2  0  0  0  0
 10 64  1  0  0  0  0
 10 68  1  0  0  0  0
 11 67  2  0  0  0  0
 12 69  1  0  0  0  0
 12 75  1  0  0  0  0
 13 71  1  0  0  0  0
 13131  1  0  0  0  0
 14 73  2  0  0  0  0
 15 74  2  0  0  0  0
 77 16  1  1  0  0  0
 16141  1  0  0  0  0
 17 43  1  0  0  0  0
 17 49  1  0  0  0  0
 17105  1  0  0  0  0
 18 46  1  0  0  0  0
 18 54  1  0  0  0  0
 18108  1  0  0  0  0
 19 52  1  0  0  0  0
 19 53  1  0  0  0  0
 19115  1  0  0  0  0
 20 51  1  0  0  0  0
 20 57  1  0  0  0  0
 20117  1  0  0  0  0
 21 58  1  0  0  0  0
 21 67  1  0  0  0  0
 21122  1  0  0  0  0
 22 70  1  0  0  0  0
 22 73  1  0  0  0  0
 22130  1  0  0  0  0
 23 74  1  0  0  0  0
 23135  1  0  0  0  0
 23136  1  0  0  0  0
 76 24  1  1  0  0  0
 24139  1  0  0  0  0
 24140  1  0  0  0  0
 25 27  1  0  0  0  0
 25 30  1  0  0  0  0
 25 31  1  0  0  0  0
 25 83  1  0  0  0  0
 26 27  1  0  0  0  0
 26 32  1  0  0  0  0
 26 33  1  0  0  0  0
 26 84  1  0  0  0  0
 27 35  1  0  0  0  0
 27 85  1  0  0  0  0
 28 30  1  0  0  0  0
 28 32  1  0  0  0  0
 28 34  1  0  0  0  0
 28 86  1  0  0  0  0
 29 31  1  0  0  0  0
 29 33  1  0  0  0  0
 29 34  1  0  0  0  0
 29 87  1  0  0  0  0
 30 88  1  0  0  0  0
 30 89  1  0  0  0  0
 31 90  1  0  0  0  0
 31 91  1  0  0  0  0
 32 92  1  0  0  0  0
 32 93  1  0  0  0  0
 33 94  1  0  0  0  0
 33 95  1  0  0  0  0
 34 96  1  0  0  0  0
 34 97  1  0  0  0  0
 35 36  1  0  0  0  0
 35 98  1  0  0  0  0
 35 99  1  0  0  0  0
 36 37  1  0  0  0  0
 36 38  2  0  0  0  0
 37 39  2  0  0  0  0
 38 40  1  0  0  0  0
 39 41  1  0  0  0  0
 39 42  1  0  0  0  0
 40 41  2  0  0  0  0
 40100  1  0  0  0  0
 41 43  1  0  0  0  0
 42 44  1  0  0  0  0
 42 45  2  0  0  0  0
 43 46  1  6  0  0  0
 43103  1  0  0  0  0
 44 47  2  0  0  0  0
 44104  1  0  0  0  0
 45 48  1  0  0  0  0
 47 50  1  0  0  0  0
 47 51  1  0  0  0  0
 48 50  2  0  0  0  0
 48106  1  0  0  0  0
 49 52  1  0  0  0  0
 50107  1  0  0  0  0
 51 53  1  0  0  0  0
 51109  1  1  0  0  0
 52 55  1  0  0  0  0
 52111  1  1  0  0  0
 54112  1  0  0  0  0
 54113  1  0  0  0  0
 54114  1  0  0  0  0
 55 56  1  0  0  0  0
 55116  1  0  0  0  0
 56 59  2  0  0  0  0
 56 60  1  0  0  0  0
 57 58  1  0  0  0  0
 58 61  1  0  0  0  0
 58119  1  6  0  0  0
 59 62  1  0  0  0  0
 59120  1  0  0  0  0
 60 63  2  0  0  0  0
 60121  1  0  0  0  0
 61 65  2  0  0  0  0
 61 66  1  0  0  0  0
 62 64  2  0  0  0  0
 62123  1  0  0  0  0
 63 64  1  0  0  0  0
 63124  1  0  0  0  0
 65 68  1  0  0  0  0
 65125  1  0  0  0  0
 66 69  2  0  0  0  0
 66126  1  0  0  0  0
 67 70  1  0  0  0  0
 68 71  2  0  0  0  0
 69 71  1  0  0  0  0
 70 72  1  1  0  0  0
 70127  1  0  0  0  0
 72 74  1  0  0  0  0
 72128  1  0  0  0  0
 72129  1  0  0  0  0
 73 76  1  0  0  0  0
 75 78  2  0  0  0  0
 75 79  1  0  0  0  0
 76 77  1  0  0  0  0
 76132  1  0  0  0  0
 77 80  1  0  0  0  0
 77133  1  0  0  0  0
 78 81  1  0  0  0  0
 79 82  2  0  0  0  0
 79134  1  0  0  0  0
 80 81  2  0  0  0  0
 80 82  1  0  0  0  0
 81137  1  0  0  0  0
 82138  1  0  0  0  0
M  END
> <PUBCHEM_COMPOUND_CID>
509532
> <PUBCHEM_COMPOUND_CANONICALIZED>
1
> <PUBCHEM_CACTVS_COMPLEXITY>
2380
> <PUBCHEM_CACTVS_HBOND_ACCEPTOR>
16
> <PUBCHEM_CACTVS_HBOND_DONOR>
14
> <PUBCHEM_CACTVS_ROTATABLE_BOND>
5
> <PUBCHEM_CACTVS_SUBSKEYS>
AAADcfB//AAEAAAAAAAAAAAAAAAAAAAAAAAwYMGDAAAAAAABVAAAHgIQCAAADT7hmCYyBoLABgCIAiFSEACCCAAgJUAIiIGOj4gPdz+H9zuWeCvn9hWbuAf9/P/O4AADKAAYSADAAAZQADCQAAAAAAAAAA==
> <PUBCHEM_IUPAC_OPENEYE_NAME>
(1S,2R,18R,19R,22S,25R,28R,40S)-36-(2-adamantylmethyl)-19-amino-22-(2-amino-2-oxo-ethyl)-15-chloro-2,18,32,35,37,48-hexahydroxy-N-methyl-20,23,26,42,44-pentaoxo-7,13-dioxa-21,24,27,41,43-pentazaoctacyclo[26.14.2.23,6.214,17.18,12.129,33.010,25.034,39]pentaconta-3(50),4,6(49),8(48),9,11,14,16,29(45),30,32,34,36,38,46-pentadecaene-40-carboxamide
> <PUBCHEM_IUPAC_CAS_NAME>
(1S,2R,18R,19R,22S,25R,28R,40S)-36-(2-adamantylmethyl)-19-amino-22-(2-amino-2-oxoethyl)-15-chloro-2,18,32,35,37,48-hexahydroxy-N-methyl-20,23,26,42,44-pentaoxo-7,13-dioxa-21,24,27,41,43-pentazaoctacyclo[26.14.2.23,6.214,17.18,12.129,33.010,25.034,39]pentaconta-3(50),4,6(49),8(48),9,11,14,16,29(45),30,32,34,36,38,46-pentadecaene-40-carboxamide
> <PUBCHEM_IUPAC_NAME_MARKUP>
(1<I>S</I>,2<I>R</I>,18<I>R</I>,19<I>R</I>,22<I>S</I>,25<I>R</I>,28<I>R</I>,40<I>S</I>)-36-(2-adamantylmethyl)-19-amino-22-(2-amino-2-oxoethyl)-15-chloro-2,18,32,35,37,48-hexahydroxy-<I>N</I>-methyl-20,23,26,42,44-pentaoxo-7,13-dioxa-21,24,27,41,43-pentazaoctacyclo[26.14.2.2<SUP>3,6</SUP>.2<SUP>14,17</SUP>.1<SUP>8,12</SUP>.1<SUP>29,33</SUP>.0<SUP>10,25</SUP>.0<SUP>34,39</SUP>]pentaconta-3(50),4,6(49),8(48),9,11,14,16,29(45),30,32,34,36,38,46-pentadecaene-40-carboxamide
> <PUBCHEM_IUPAC_NAME>
(1S,2R,18R,19R,22S,25R,28R,40S)-36-(2-adamantylmethyl)-19-amino-22-(2-amino-2-oxoethyl)-15-chloro-2,18,32,35,37,48-hexahydroxy-N-methyl-20,23,26,42,44-pentaoxo-7,13-dioxa-21,24,27,41,43-pentazaoctacyclo[26.14.2.23,6.214,17.18,12.129,33.010,25.034,39]pentaconta-3(50),4,6(49),8(48),9,11,14,16,29(45),30,32,34,36,38,46-pentadecaene-40-carboxamide
> <PUBCHEM_IUPAC_SYSTEMATIC_NAME>
(1S,2R,18R,19R,22S,25R,28R,40S)-36-(2-adamantylmethyl)-19-azanyl-22-(2-azanyl-2-oxidanylidene-ethyl)-15-chloranyl-N-methyl-2,18,32,35,37,48-hexakis(oxidanyl)-20,23,26,42,44-pentakis(oxidanylidene)-7,13-dioxa-21,24,27,41,43-pentazaoctacyclo[26.14.2.23,6.214,17.18,12.129,33.010,25.034,39]pentaconta-3(50),4,6(49),8(48),9,11,14,16,29(45),30,32,34,36,38,46-pentadecaene-40-carboxamide
> <PUBCHEM_IUPAC_TRADITIONAL_NAME>
(1S,2R,18R,19R,22S,25R,28R,40S)-36-(2-adamantylmethyl)-19-amino-22-(2-amino-2-keto-ethyl)-15-chloro-2,18,32,35,37,48-hexahydroxy-20,23,26,42,44-pentaketo-N-methyl-7,13-dioxa-21,24,27,41,43-pentazaoctacyclo[26.14.2.23,6.214,17.18,12.129,33.010,25.034,39]pentaconta-3(50),4,6(49),8(48),9,11,14,16,29(45),30,32,34,36,38,46-pentadecaene-40-carboxamide
> <PUBCHEM_IUPAC_INCHI>
InChI=1S/C58H59ClN8O15/c1-62-55(77)47-34-20-38(69)33(19-31-27-11-22-10-23(13-27)14-28(31)12-22)51(73)43(34)32-15-25(4-8-37(32)68)45-56(78)67-48(58(80)66-47)50(72)24-2-6-30(7-3-24)81-40-17-29-18-41(52(40)74)82-39-9-5-26(16-35(39)59)49(71)44(61)54(76)63-36(21-42(60)70)53(75)64-46(29)57(79)65-45/h2-9,15-18,20,22-23,27-28,31,36,44-50,68-69,71-74H,10-14,19,21,61H2,1H3,(H2,60,70)(H,62,77)(H,63,76)(H,64,75)(H,65,79)(H,66,80)(H,67,78)/t22?,23?,27?,28?,31?,36-,44+,45+,46+,47-,48-,49+,50+/m0/s1
> <PUBCHEM_IUPAC_INCHIKEY>
HQTCIKMYIHXVON-TUUDCCPRSA-N
> <PUBCHEM_XLOGP3_AA>
2.8
> <PUBCHEM_EXACT_MASS>
1142.3788409
> <PUBCHEM_MOLECULAR_FORMULA>
C58H59ClN8O15
> <PUBCHEM_MOLECULAR_WEIGHT>
1143.6
> <PUBCHEM_OPENEYE_CAN_SMILES>
CNC(=O)C1C2=CC(=C(C(=C2C3=C(C=CC(=C3)C4C(=O)NC(C(C5=CC=C(C=C5)OC6=C(C7=CC(=C6)C(C(=O)N4)NC(=O)C(NC(=O)C(C(C8=CC(=C(O7)C=C8)Cl)O)N)CC(=O)N)O)O)C(=O)N1)O)O)CC9C1CC2CC(C1)CC9C2)O
> <PUBCHEM_OPENEYE_ISO_SMILES>
CNC(=O)[C@@H]1C2=CC(=C(C(=C2C3=C(C=CC(=C3)[C@@H]4C(=O)N[C@@H]([C@@H](C5=CC=C(C=C5)OC6=C(C7=CC(=C6)[C@H](C(=O)N4)NC(=O)[C@@H](NC(=O)[C@@H]([C@@H](C8=CC(=C(O7)C=C8)Cl)O)N)CC(=O)N)O)O)C(=O)N1)O)O)CC9C1CC2CC(C1)CC9C2)O
> <PUBCHEM_CACTVS_TPSA>
384
> <PUBCHEM_MONOISOTOPIC_WEIGHT>
1142.3788409
> <PUBCHEM_TOTAL_CHARGE>
0
> <PUBCHEM_HEAVY_ATOM_COUNT>
82
> <PUBCHEM_ATOM_DEF_STEREO_COUNT>
8
> <PUBCHEM_ATOM_UDEF_STEREO_COUNT>
0
> <PUBCHEM_BOND_DEF_STEREO_COUNT>
0
> <PUBCHEM_BOND_UDEF_STEREO_COUNT>
0
> <PUBCHEM_ISOTOPIC_ATOM_COUNT>
0
> <PUBCHEM_COMPONENT_COUNT>
1
> <PUBCHEM_CACTVS_TAUTO_COUNT>
-1
> <PUBCHEM_COORDINATE_TYPE>
1
5
255
> <PUBCHEM_BONDANNOTATIONS>
77  16  5
76  24  5
36  37  8
36  38  8
37  39  8
38  40  8
39  41  8
40  41  8
42  44  8
42  45  8
43  46  6
44  47  8
45  48  8
47  50  8
48  50  8
51  109  5
52  111  5
56  59  8
56  60  8
58  119  6
59  62  8
60  63  8
61  65  8
61  66  8
62  64  8
63  64  8
65  68  8
66  69  8
68  71  8
69  71  8
70  72  5
75  78  8
75  79  8
78  81  8
79  82  8
55  8  6
80  81  8
80  82  8
$$$$
