509506
  -OEChem-10302200282D
 46 48  0     1  0  0  0  0  0999 V2000
    6.0197    1.6516    0.0000 P   0  0  3  0  0  0  0  0  0  0  0  0
    6.8857    3.1516    0.0000 P   0  0  3  0  0  0  0  0  0  0  0  0
    7.7518    4.6516    0.0000 P   0  0  0  0  0  0  0  0  0  0  0  0
    6.0197    0.6516    0.0000 O   0  0  0  0  0  0  0  0  0  0  0  0
    2.2463   -2.5732    0.0000 O   0  0  0  0  0  0  0  0  0  0  0  0
    6.0197    2.6516    0.0000 O   0  0  0  0  0  0  0  0  0  0  0  0
    7.0197    1.6516    0.0000 O   0  0  0  0  0  0  0  0  0  0  0  0
    5.0197    1.6516    0.0000 O   0  0  0  0  0  0  0  0  0  0  0  0
    2.9666   -5.9616    0.0000 O   0  0  0  0  0  0  0  0  0  0  0  0
    7.7518    3.6516    0.0000 O   0  0  0  0  0  0  0  0  0  0  0  0
    6.3857    4.0176    0.0000 O   0  0  0  0  0  0  0  0  0  0  0  0
    7.3857    2.2856    0.0000 O   0  0  0  0  0  0  0  0  0  0  0  0
    7.7518    5.6516    0.0000 O   0  0  0  0  0  0  0  0  0  0  0  0
    8.7518    4.6516    0.0000 O   0  0  0  0  0  0  0  0  0  0  0  0
    6.7518    4.6516    0.0000 O   0  0  0  0  0  0  0  0  0  0  0  0
    3.8936   -3.1084    0.0000 N   0  0  0  0  0  0  0  0  0  0  0  0
    2.6064   -4.2674    0.0000 N   0  0  0  0  0  0  0  0  0  0  0  0
    5.1537   -0.8484    0.0000 C   0  0  1  0  0  0  0  0  0  0  0  0
    5.1537   -1.8484    0.0000 C   0  0  2  0  0  0  0  0  0  0  0  0
    6.0202   -1.3484    0.0000 C   0  0  0  0  0  0  0  0  0  0  0  0
    4.2026   -2.1574    0.0000 C   0  0  2  0  0  0  0  0  0  0  0  0
    4.2026   -0.5394    0.0000 C   0  0  0  0  0  0  0  0  0  0  0  0
    5.1537    0.1516    0.0000 C   0  0  0  0  0  0  0  0  0  0  0  0
    3.6148   -1.3484    0.0000 C   0  0  0  0  0  0  0  0  0  0  0  0
    4.5628   -3.8516    0.0000 C   0  0  0  0  0  0  0  0  0  0  0  0
    2.9155   -3.3164    0.0000 C   0  0  0  0  0  0  0  0  0  0  0  0
    4.2537   -4.8026    0.0000 C   0  0  0  0  0  0  0  0  0  0  0  0
    3.2756   -5.0106    0.0000 C   0  0  0  0  0  0  0  0  0  0  0  0
    4.9229   -5.5458    0.0000 C   0  0  0  0  0  0  0  0  0  0  0  0
    5.4993   -2.6249    0.0000 H   0  0  0  0  0  0  0  0  0  0  0  0
    6.4187   -1.8234    0.0000 H   0  0  0  0  0  0  0  0  0  0  0  0
    6.4187   -0.8734    0.0000 H   0  0  0  0  0  0  0  0  0  0  0  0
    3.5903   -2.2544    0.0000 H   0  0  0  0  0  0  0  0  0  0  0  0
    4.0110    0.0503    0.0000 H   0  0  0  0  0  0  0  0  0  0  0  0
    4.9416    0.7342    0.0000 H   0  0  0  0  0  0  0  0  0  0  0  0
    4.5431    0.0440    0.0000 H   0  0  0  0  0  0  0  0  0  0  0  0
    2.9948   -1.3484    0.0000 H   0  0  0  0  0  0  0  0  0  0  0  0
    5.1692   -3.7227    0.0000 H   0  0  0  0  0  0  0  0  0  0  0  0
    2.0000   -4.3963    0.0000 H   0  0  0  0  0  0  0  0  0  0  0  0
    4.4621   -5.9607    0.0000 H   0  0  0  0  0  0  0  0  0  0  0  0
    5.3377   -6.0066    0.0000 H   0  0  0  0  0  0  0  0  0  0  0  0
    5.3836   -5.1309    0.0000 H   0  0  0  0  0  0  0  0  0  0  0  0
    7.3297    1.1147    0.0000 H   0  0  0  0  0  0  0  0  0  0  0  0
    5.7657    4.0176    0.0000 H   0  0  0  0  0  0  0  0  0  0  0  0
    8.2887    5.9616    0.0000 H   0  0  0  0  0  0  0  0  0  0  0  0
    9.0618    4.1147    0.0000 H   0  0  0  0  0  0  0  0  0  0  0  0
  1  4  1  0  0  0  0
  1  6  1  0  0  0  0
  1  7  1  0  0  0  0
  1  8  2  0  0  0  0
  2  6  1  0  0  0  0
  2 10  1  0  0  0  0
  2 11  1  0  0  0  0
  2 12  2  0  0  0  0
  3 10  1  0  0  0  0
  3 13  1  0  0  0  0
  3 14  1  0  0  0  0
  3 15  2  0  0  0  0
  4 23  1  0  0  0  0
  5 26  2  0  0  0  0
  7 43  1  0  0  0  0
  9 28  2  0  0  0  0
 11 44  1  0  0  0  0
 13 45  1  0  0  0  0
 14 46  1  0  0  0  0
 21 16  1  1  0  0  0
 16 25  1  0  0  0  0
 16 26  1  0  0  0  0
 17 26  1  0  0  0  0
 17 28  1  0  0  0  0
 17 39  1  0  0  0  0
 18 19  1  0  0  0  0
 18 20  1  0  0  0  0
 18 22  1  0  0  0  0
 18 23  1  1  0  0  0
 19 20  1  0  0  0  0
 19 21  1  0  0  0  0
 19 30  1  1  0  0  0
 20 31  1  0  0  0  0
 20 32  1  0  0  0  0
 21 24  1  0  0  0  0
 21 33  1  0  0  0  0
 22 24  2  0  0  0  0
 22 34  1  0  0  0  0
 23 35  1  0  0  0  0
 23 36  1  0  0  0  0
 24 37  1  0  0  0  0
 25 27  2  0  0  0  0
 25 38  1  0  0  0  0
 27 28  1  0  0  0  0
 27 29  1  0  0  0  0
 29 40  1  0  0  0  0
 29 41  1  0  0  0  0
 29 42  1  0  0  0  0
M  END
> <PUBCHEM_COMPOUND_CID>
509506
> <PUBCHEM_COMPOUND_CANONICALIZED>
1
> <PUBCHEM_CACTVS_COMPLEXITY>
956
> <PUBCHEM_CACTVS_HBOND_ACCEPTOR>
12
> <PUBCHEM_CACTVS_HBOND_DONOR>
5
> <PUBCHEM_CACTVS_ROTATABLE_BOND>
8
> <PUBCHEM_CACTVS_SUBSKEYS>
AAADceBzPAMAAAAAAAAAAAAAGAAAAQAAAAAgQAAAAAAAAAAAAAAAHgAQCCAADyjhgAYDAAPAARCIQiFWUICAAAAgAAAICAEIAEiAAAIAgQAEAAAMxyIIAMOwUAMPgAAAAAAAAAAAAAAAAAAAAAAAAAAAAA==
> <PUBCHEM_IUPAC_OPENEYE_NAME>
[hydroxy-[[(1R,4S,5S)-4-(5-methyl-2,4-dioxo-pyrimidin-1-yl)-1-bicyclo[3.1.0]hex-2-enyl]methoxy]phosphoryl] phosphono hydrogen phosphate
> <PUBCHEM_IUPAC_CAS_NAME>
[hydroxy-[[(1R,4S,5S)-4-(5-methyl-2,4-dioxo-1-pyrimidinyl)-1-bicyclo[3.1.0]hex-2-enyl]methoxy]phosphoryl] phosphono hydrogen phosphate
> <PUBCHEM_IUPAC_NAME_MARKUP>
[hydroxy-[[(1<I>R</I>,4<I>S</I>,5<I>S</I>)-4-(5-methyl-2,4-dioxopyrimidin-1-yl)-1-bicyclo[3.1.0]hex-2-enyl]methoxy]phosphoryl] phosphono hydrogen phosphate
> <PUBCHEM_IUPAC_NAME>
[hydroxy-[[(1R,4S,5S)-4-(5-methyl-2,4-dioxopyrimidin-1-yl)-1-bicyclo[3.1.0]hex-2-enyl]methoxy]phosphoryl] phosphono hydrogen phosphate
> <PUBCHEM_IUPAC_SYSTEMATIC_NAME>
[[(1R,4S,5S)-4-[5-methyl-2,4-bis(oxidanylidene)pyrimidin-1-yl]-1-bicyclo[3.1.0]hex-2-enyl]methoxy-oxidanyl-phosphoryl] phosphono hydrogen phosphate
> <PUBCHEM_IUPAC_TRADITIONAL_NAME>
[[(1R,4S,5S)-4-(2,4-diketo-5-methyl-pyrimidin-1-yl)-1-bicyclo[3.1.0]hex-2-enyl]methoxy-hydroxy-phosphoryl] phosphono hydrogen phosphate
> <PUBCHEM_IUPAC_INCHI>
InChI=1S/C12H17N2O12P3/c1-7-5-14(11(16)13-10(7)15)9-2-3-12(4-8(9)12)6-24-28(20,21)26-29(22,23)25-27(17,18)19/h2-3,5,8-9H,4,6H2,1H3,(H,20,21)(H,22,23)(H,13,15,16)(H2,17,18,19)/t8-,9+,12-/m1/s1
> <PUBCHEM_IUPAC_INCHIKEY>
JTFZQNJUWZQTAU-VDDIYKPWSA-N
> <PUBCHEM_XLOGP3_AA>
-3.5
> <PUBCHEM_EXACT_MASS>
473.99943497
> <PUBCHEM_MOLECULAR_FORMULA>
C12H17N2O12P3
> <PUBCHEM_MOLECULAR_WEIGHT>
474.19
> <PUBCHEM_OPENEYE_CAN_SMILES>
CC1=CN(C(=O)NC1=O)C2C=CC3(C2C3)COP(=O)(O)OP(=O)(O)OP(=O)(O)O
> <PUBCHEM_OPENEYE_ISO_SMILES>
CC1=CN(C(=O)NC1=O)[C@H]2C=C[C@]3([C@@H]2C3)COP(=O)(O)OP(=O)(O)OP(=O)(O)O
> <PUBCHEM_CACTVS_TPSA>
209
> <PUBCHEM_MONOISOTOPIC_WEIGHT>
473.99943497
> <PUBCHEM_TOTAL_CHARGE>
0
> <PUBCHEM_HEAVY_ATOM_COUNT>
29
> <PUBCHEM_ATOM_DEF_STEREO_COUNT>
3
> <PUBCHEM_ATOM_UDEF_STEREO_COUNT>
0
> <PUBCHEM_BOND_DEF_STEREO_COUNT>
0
> <PUBCHEM_BOND_UDEF_STEREO_COUNT>
0
> <PUBCHEM_ISOTOPIC_ATOM_COUNT>
0
> <PUBCHEM_COMPONENT_COUNT>
1
> <PUBCHEM_CACTVS_TAUTO_COUNT>
-1
> <PUBCHEM_COORDINATE_TYPE>
1
5
255
> <PUBCHEM_BONDANNOTATIONS>
21  16  5
16  25  8
16  26  8
17  26  8
17  28  8
18  23  5
19  30  5
25  27  8
27  28  8
$$$$
