509696
  -OEChem-10302200282D
 91 94  0     1  0  0  0  0  0999 V2000
    8.1962    0.1574    0.0000 S   0  0  0  0  0  0  0  0  0  0  0  0
   11.7404   -0.0379    0.0000 S   0  0  0  0  0  0  0  0  0  0  0  0
    5.5981    1.6574    0.0000 O   0  0  0  0  0  0  0  0  0  0  0  0
    7.6962   -0.7087    0.0000 O   0  0  0  0  0  0  0  0  0  0  0  0
    8.6962    1.0234    0.0000 O   0  0  0  0  0  0  0  0  0  0  0  0
    3.0000    2.1574    0.0000 O   0  0  0  0  0  0  0  0  0  0  0  0
    4.7320    2.1574    0.0000 O   0  0  0  0  0  0  0  0  0  0  0  0
   15.3241   -2.5747    0.0000 N   0  0  0  0  0  0  0  0  0  0  0  0
    7.3301    0.6574    0.0000 N   0  0  3  0  0  0  0  0  0  0  0  0
    3.8660    0.6574    0.0000 N   0  0  0  0  0  0  0  0  0  0  0  0
   13.3241   -0.8426    0.0000 N   0  0  0  0  0  0  0  0  0  0  0  0
   11.7404   -1.6474    0.0000 N   0  0  0  0  0  0  0  0  0  0  0  0
   14.9173   -3.4882    0.0000 C   0  0  0  0  0  0  0  0  0  0  0  0
   16.3186   -2.6792    0.0000 C   0  0  0  0  0  0  0  0  0  0  0  0
   15.6605   -4.1574    0.0000 C   0  0  0  0  0  0  0  0  0  0  0  0
   16.5265   -3.6574    0.0000 C   0  0  0  0  0  0  0  0  0  0  0  0
    5.5981    0.6574    0.0000 C   0  0  2  0  0  0  0  0  0  0  0  0
    6.4641    0.1574    0.0000 C   0  0  0  0  0  0  0  0  0  0  0  0
    4.7320    0.1574    0.0000 C   0  0  2  0  0  0  0  0  0  0  0  0
   14.8241   -1.7087    0.0000 C   0  0  0  0  0  0  0  0  0  0  0  0
    7.3301    1.6574    0.0000 C   0  0  0  0  0  0  0  0  0  0  0  0
    8.1962    2.1574    0.0000 C   0  0  0  0  0  0  0  0  0  0  0  0
    4.7320   -0.8426    0.0000 C   0  0  0  0  0  0  0  0  0  0  0  0
   13.8241   -1.7087    0.0000 C   0  0  0  0  0  0  0  0  0  0  0  0
    9.0622   -0.3426    0.0000 C   0  0  0  0  0  0  0  0  0  0  0  0
    8.1962    3.1574    0.0000 C   0  0  0  0  0  0  0  0  0  0  0  0
    9.0622    1.6574    0.0000 C   0  0  0  0  0  0  0  0  0  0  0  0
    3.8660   -1.3426    0.0000 C   0  0  0  0  0  0  0  0  0  0  0  0
    9.9282    0.1574    0.0000 C   0  0  0  0  0  0  0  0  0  0  0  0
    9.0622   -1.3426    0.0000 C   0  0  0  0  0  0  0  0  0  0  0  0
   10.7942   -0.3426    0.0000 C   0  0  0  0  0  0  0  0  0  0  0  0
    3.8660    1.6574    0.0000 C   0  0  0  0  0  0  0  0  0  0  0  0
   12.3241   -0.8426    0.0000 C   0  0  0  0  0  0  0  0  0  0  0  0
   10.7942   -1.3426    0.0000 C   0  0  0  0  0  0  0  0  0  0  0  0
    9.9282   -1.8426    0.0000 C   0  0  0  0  0  0  0  0  0  0  0  0
    3.8660   -2.3426    0.0000 C   0  0  0  0  0  0  0  0  0  0  0  0
    3.0000   -0.8426    0.0000 C   0  0  0  0  0  0  0  0  0  0  0  0
    3.0000    3.1574    0.0000 C   0  0  0  0  0  0  0  0  0  0  0  0
    3.0000   -2.8426    0.0000 C   0  0  0  0  0  0  0  0  0  0  0  0
    2.1340   -1.3426    0.0000 C   0  0  0  0  0  0  0  0  0  0  0  0
    3.0000    4.1574    0.0000 C   0  0  0  0  0  0  0  0  0  0  0  0
    2.0000    3.1574    0.0000 C   0  0  0  0  0  0  0  0  0  0  0  0
    4.0000    3.1574    0.0000 C   0  0  0  0  0  0  0  0  0  0  0  0
    2.1340   -2.3426    0.0000 C   0  0  0  0  0  0  0  0  0  0  0  0
   14.3804   -3.1782    0.0000 H   0  0  0  0  0  0  0  0  0  0  0  0
   14.5529   -3.9898    0.0000 H   0  0  0  0  0  0  0  0  0  0  0  0
   16.9352   -2.6144    0.0000 H   0  0  0  0  0  0  0  0  0  0  0  0
   16.3186   -2.0592    0.0000 H   0  0  0  0  0  0  0  0  0  0  0  0
   15.1997   -4.5722    0.0000 H   0  0  0  0  0  0  0  0  0  0  0  0
   16.0249   -4.6590    0.0000 H   0  0  0  0  0  0  0  0  0  0  0  0
   16.7787   -4.2238    0.0000 H   0  0  0  0  0  0  0  0  0  0  0  0
   17.1161   -3.4658    0.0000 H   0  0  0  0  0  0  0  0  0  0  0  0
    6.1350    0.9674    0.0000 H   0  0  0  0  0  0  0  0  0  0  0  0
    6.0656   -0.3176    0.0000 H   0  0  0  0  0  0  0  0  0  0  0  0
    6.8626   -0.3176    0.0000 H   0  0  0  0  0  0  0  0  0  0  0  0
    4.7320    0.7774    0.0000 H   0  0  0  0  0  0  0  0  0  0  0  0
   15.4067   -1.4966    0.0000 H   0  0  0  0  0  0  0  0  0  0  0  0
   14.7164   -1.0981    0.0000 H   0  0  0  0  0  0  0  0  0  0  0  0
    7.1181    2.2400    0.0000 H   0  0  0  0  0  0  0  0  0  0  0  0
    6.7196    1.5497    0.0000 H   0  0  0  0  0  0  0  0  0  0  0  0
    8.7331    2.4674    0.0000 H   0  0  0  0  0  0  0  0  0  0  0  0
    4.9441   -1.4252    0.0000 H   0  0  0  0  0  0  0  0  0  0  0  0
    5.3426   -0.7350    0.0000 H   0  0  0  0  0  0  0  0  0  0  0  0
   13.2414   -1.9207    0.0000 H   0  0  0  0  0  0  0  0  0  0  0  0
   13.9317   -2.3192    0.0000 H   0  0  0  0  0  0  0  0  0  0  0  0
    3.3291    0.3474    0.0000 H   0  0  0  0  0  0  0  0  0  0  0  0
    8.8162    3.1574    0.0000 H   0  0  0  0  0  0  0  0  0  0  0  0
    8.1962    3.7774    0.0000 H   0  0  0  0  0  0  0  0  0  0  0  0
    7.5762    3.1574    0.0000 H   0  0  0  0  0  0  0  0  0  0  0  0
    8.7522    1.1204    0.0000 H   0  0  0  0  0  0  0  0  0  0  0  0
    9.5991    1.3474    0.0000 H   0  0  0  0  0  0  0  0  0  0  0  0
    9.3722    2.1943    0.0000 H   0  0  0  0  0  0  0  0  0  0  0  0
    6.1350    1.9674    0.0000 H   0  0  0  0  0  0  0  0  0  0  0  0
   13.6341   -0.3057    0.0000 H   0  0  0  0  0  0  0  0  0  0  0  0
    9.9282    0.7774    0.0000 H   0  0  0  0  0  0  0  0  0  0  0  0
    8.5252   -1.6526    0.0000 H   0  0  0  0  0  0  0  0  0  0  0  0
    9.9282   -2.4626    0.0000 H   0  0  0  0  0  0  0  0  0  0  0  0
    4.4030   -2.6526    0.0000 H   0  0  0  0  0  0  0  0  0  0  0  0
    3.0000   -0.2226    0.0000 H   0  0  0  0  0  0  0  0  0  0  0  0
    3.0000   -3.4626    0.0000 H   0  0  0  0  0  0  0  0  0  0  0  0
    1.5970   -1.0326    0.0000 H   0  0  0  0  0  0  0  0  0  0  0  0
    3.6200    4.1574    0.0000 H   0  0  0  0  0  0  0  0  0  0  0  0
    3.0000    4.7774    0.0000 H   0  0  0  0  0  0  0  0  0  0  0  0
    2.3800    4.1574    0.0000 H   0  0  0  0  0  0  0  0  0  0  0  0
    2.0000    3.7774    0.0000 H   0  0  0  0  0  0  0  0  0  0  0  0
    1.3800    3.1574    0.0000 H   0  0  0  0  0  0  0  0  0  0  0  0
    2.0000    2.5374    0.0000 H   0  0  0  0  0  0  0  0  0  0  0  0
    4.0000    2.5374    0.0000 H   0  0  0  0  0  0  0  0  0  0  0  0
    4.6200    3.1574    0.0000 H   0  0  0  0  0  0  0  0  0  0  0  0
    4.0000    3.7774    0.0000 H   0  0  0  0  0  0  0  0  0  0  0  0
    1.5970   -2.6526    0.0000 H   0  0  0  0  0  0  0  0  0  0  0  0
  1  4  2  0  0  0  0
  1  5  2  0  0  0  0
  1  9  1  0  0  0  0
  1 25  1  0  0  0  0
  2 31  1  0  0  0  0
  2 33  1  0  0  0  0
 17  3  1  6  0  0  0
  3 73  1  0  0  0  0
  6 32  1  0  0  0  0
  6 38  1  0  0  0  0
  7 32  2  0  0  0  0
  8 13  1  0  0  0  0
  8 14  1  0  0  0  0
  8 20  1  0  0  0  0
  9 18  1  0  0  0  0
  9 21  1  0  0  0  0
 19 10  1  6  0  0  0
 10 32  1  0  0  0  0
 10 66  1  0  0  0  0
 11 24  1  0  0  0  0
 11 33  1  0  0  0  0
 11 74  1  0  0  0  0
 12 33  2  0  0  0  0
 12 34  1  0  0  0  0
 13 15  1  0  0  0  0
 13 45  1  0  0  0  0
 13 46  1  0  0  0  0
 14 16  1  0  0  0  0
 14 47  1  0  0  0  0
 14 48  1  0  0  0  0
 15 16  1  0  0  0  0
 15 49  1  0  0  0  0
 15 50  1  0  0  0  0
 16 51  1  0  0  0  0
 16 52  1  0  0  0  0
 17 18  1  0  0  0  0
 17 19  1  0  0  0  0
 17 53  1  0  0  0  0
 18 54  1  0  0  0  0
 18 55  1  0  0  0  0
 19 23  1  0  0  0  0
 19 56  1  0  0  0  0
 20 24  1  0  0  0  0
 20 57  1  0  0  0  0
 20 58  1  0  0  0  0
 21 22  1  0  0  0  0
 21 59  1  0  0  0  0
 21 60  1  0  0  0  0
 22 26  1  0  0  0  0
 22 27  1  0  0  0  0
 22 61  1  0  0  0  0
 23 28  1  0  0  0  0
 23 62  1  0  0  0  0
 23 63  1  0  0  0  0
 24 64  1  0  0  0  0
 24 65  1  0  0  0  0
 25 29  2  0  0  0  0
 25 30  1  0  0  0  0
 26 67  1  0  0  0  0
 26 68  1  0  0  0  0
 26 69  1  0  0  0  0
 27 70  1  0  0  0  0
 27 71  1  0  0  0  0
 27 72  1  0  0  0  0
 28 36  2  0  0  0  0
 28 37  1  0  0  0  0
 29 31  1  0  0  0  0
 29 75  1  0  0  0  0
 30 35  2  0  0  0  0
 30 76  1  0  0  0  0
 31 34  2  0  0  0  0
 34 35  1  0  0  0  0
 35 77  1  0  0  0  0
 36 39  1  0  0  0  0
 36 78  1  0  0  0  0
 37 40  2  0  0  0  0
 37 79  1  0  0  0  0
 38 41  1  0  0  0  0
 38 42  1  0  0  0  0
 38 43  1  0  0  0  0
 39 44  2  0  0  0  0
 39 80  1  0  0  0  0
 40 44  1  0  0  0  0
 40 81  1  0  0  0  0
 41 82  1  0  0  0  0
 41 83  1  0  0  0  0
 41 84  1  0  0  0  0
 42 85  1  0  0  0  0
 42 86  1  0  0  0  0
 42 87  1  0  0  0  0
 43 88  1  0  0  0  0
 43 89  1  0  0  0  0
 43 90  1  0  0  0  0
 44 91  1  0  0  0  0
M  END
> <PUBCHEM_COMPOUND_CID>
509696
> <PUBCHEM_COMPOUND_CANONICALIZED>
1
> <PUBCHEM_CACTVS_COMPLEXITY>
992
> <PUBCHEM_CACTVS_HBOND_ACCEPTOR>
10
> <PUBCHEM_CACTVS_HBOND_DONOR>
3
> <PUBCHEM_CACTVS_ROTATABLE_BOND>
16
> <PUBCHEM_CACTVS_SUBSKEYS>
AAADcfB/uABgAAAAAAAAAAAAAAAAAWLAAAAwYAAAAAAAAFgB9AAAHgQQSAAADXzh3gYz2bPIFgqsAyRifHDD8LlhCjlJmLw4ZJmKcKLg2ZGcYAhslgLYyCeQwKAOAAQAAEAAAQAACAAAgAACAAAAAAAAAA==
> <PUBCHEM_IUPAC_OPENEYE_NAME>
tert-butyl N-[(1S,2R)-1-benzyl-2-hydroxy-3-[isobutyl-[[2-(2-pyrrolidin-1-ylethylamino)-1,3-benzothiazol-6-yl]sulfonyl]amino]propyl]carbamate
> <PUBCHEM_IUPAC_CAS_NAME>
N-[(2S,3R)-3-hydroxy-4-[2-methylpropyl-[[2-[2-(1-pyrrolidinyl)ethylamino]-1,3-benzothiazol-6-yl]sulfonyl]amino]-1-phenylbutan-2-yl]carbamic acid tert-butyl ester
> <PUBCHEM_IUPAC_NAME_MARKUP>
<I>tert</I>-butyl <I>N</I>-[(2<I>S</I>,3<I>R</I>)-3-hydroxy-4-[2-methylpropyl-[[2-(2-pyrrolidin-1-ylethylamino)-1,3-benzothiazol-6-yl]sulfonyl]amino]-1-phenylbutan-2-yl]carbamate
> <PUBCHEM_IUPAC_NAME>
tert-butyl N-[(2S,3R)-3-hydroxy-4-[2-methylpropyl-[[2-(2-pyrrolidin-1-ylethylamino)-1,3-benzothiazol-6-yl]sulfonyl]amino]-1-phenylbutan-2-yl]carbamate
> <PUBCHEM_IUPAC_SYSTEMATIC_NAME>
tert-butyl N-[(2S,3R)-4-[2-methylpropyl-[[2-(2-pyrrolidin-1-ylethylamino)-1,3-benzothiazol-6-yl]sulfonyl]amino]-3-oxidanyl-1-phenyl-butan-2-yl]carbamate
> <PUBCHEM_IUPAC_TRADITIONAL_NAME>
N-[(1S,2R)-1-benzyl-2-hydroxy-3-[isobutyl-[[2-(2-pyrrolidinoethylamino)-1,3-benzothiazol-6-yl]sulfonyl]amino]propyl]carbamic acid tert-butyl ester
> <PUBCHEM_IUPAC_INCHI>
InChI=1S/C32H47N5O5S2/c1-23(2)21-37(22-28(38)27(19-24-11-7-6-8-12-24)35-31(39)42-32(3,4)5)44(40,41)25-13-14-26-29(20-25)43-30(34-26)33-15-18-36-16-9-10-17-36/h6-8,11-14,20,23,27-28,38H,9-10,15-19,21-22H2,1-5H3,(H,33,34)(H,35,39)/t27-,28+/m0/s1
> <PUBCHEM_IUPAC_INCHIKEY>
BZKCZXPQIDYXDC-WUFINQPMSA-N
> <PUBCHEM_XLOGP3_AA>
5.8
> <PUBCHEM_EXACT_MASS>
645.30186196
> <PUBCHEM_MOLECULAR_FORMULA>
C32H47N5O5S2
> <PUBCHEM_MOLECULAR_WEIGHT>
645.9
> <PUBCHEM_OPENEYE_CAN_SMILES>
CC(C)CN(CC(C(CC1=CC=CC=C1)NC(=O)OC(C)(C)C)O)S(=O)(=O)C2=CC3=C(C=C2)N=C(S3)NCCN4CCCC4
> <PUBCHEM_OPENEYE_ISO_SMILES>
CC(C)CN(C[C@H]([C@H](CC1=CC=CC=C1)NC(=O)OC(C)(C)C)O)S(=O)(=O)C2=CC3=C(C=C2)N=C(S3)NCCN4CCCC4
> <PUBCHEM_CACTVS_TPSA>
161
> <PUBCHEM_MONOISOTOPIC_WEIGHT>
645.30186196
> <PUBCHEM_TOTAL_CHARGE>
0
> <PUBCHEM_HEAVY_ATOM_COUNT>
44
> <PUBCHEM_ATOM_DEF_STEREO_COUNT>
2
> <PUBCHEM_ATOM_UDEF_STEREO_COUNT>
0
> <PUBCHEM_BOND_DEF_STEREO_COUNT>
0
> <PUBCHEM_BOND_UDEF_STEREO_COUNT>
0
> <PUBCHEM_ISOTOPIC_ATOM_COUNT>
0
> <PUBCHEM_COMPONENT_COUNT>
1
> <PUBCHEM_CACTVS_TAUTO_COUNT>
-1
> <PUBCHEM_COORDINATE_TYPE>
1
5
255
> <PUBCHEM_BONDANNOTATIONS>
19  10  6
12  33  8
12  34  8
2  31  8
2  33  8
25  29  8
25  30  8
28  36  8
28  37  8
29  31  8
17  3  6
30  35  8
31  34  8
34  35  8
36  39  8
37  40  8
39  44  8
40  44  8
$$$$
