509609
  -OEChem-10302200282D
103107  0     1  0  0  0  0  0999 V2000
    9.3056   -0.2615    0.0000 S   0  0  0  0  0  0  0  0  0  0  0  0
   12.8499   -0.4568    0.0000 S   0  0  0  0  0  0  0  0  0  0  0  0
    4.6095    4.2774    0.0000 O   0  0  0  0  0  0  0  0  0  0  0  0
    2.8037    4.8596    0.0000 O   0  0  0  0  0  0  0  0  0  0  0  0
    4.1095    1.7385    0.0000 O   0  0  0  0  0  0  0  0  0  0  0  0
    5.8415    1.7385    0.0000 O   0  0  0  0  0  0  0  0  0  0  0  0
    6.7075    1.2385    0.0000 O   0  0  0  0  0  0  0  0  0  0  0  0
    8.8056   -1.1275    0.0000 O   0  0  0  0  0  0  0  0  0  0  0  0
    9.8056    0.6045    0.0000 O   0  0  0  0  0  0  0  0  0  0  0  0
   17.9335   -3.8596    0.0000 O   0  0  0  0  0  0  0  0  0  0  0  0
   17.9335   -2.1275    0.0000 O   0  0  0  0  0  0  0  0  0  0  0  0
    4.9755    0.2385    0.0000 N   0  0  0  0  0  0  0  0  0  0  0  0
    8.4396    0.2385    0.0000 N   0  0  3  0  0  0  0  0  0  0  0  0
   12.8499   -2.0662    0.0000 N   0  0  0  0  0  0  0  0  0  0  0  0
   14.4335   -1.2615    0.0000 N   0  0  0  0  0  0  0  0  0  0  0  0
   16.4335   -2.9935    0.0000 N   0  0  0  0  0  0  0  0  0  0  0  0
    3.3004    3.3263    0.0000 C   0  0  2  0  0  0  0  0  0  0  0  0
    3.6095    4.2774    0.0000 C   0  0  1  0  0  0  0  0  0  0  0  0
    4.1095    2.7385    0.0000 C   0  0  2  0  0  0  0  0  0  0  0  0
    2.3064    3.3289    0.0000 C   0  0  0  0  0  0  0  0  0  0  0  0
    4.9185    3.3263    0.0000 C   0  0  0  0  0  0  0  0  0  0  0  0
    2.0000    4.2746    0.0000 C   0  0  0  0  0  0  0  0  0  0  0  0
    4.9755    1.2385    0.0000 C   0  0  0  0  0  0  0  0  0  0  0  0
    5.8415   -0.2615    0.0000 C   0  0  2  0  0  0  0  0  0  0  0  0
    6.7075    0.2385    0.0000 C   0  0  1  0  0  0  0  0  0  0  0  0
    7.5736   -0.2615    0.0000 C   0  0  0  0  0  0  0  0  0  0  0  0
    5.8415   -1.2615    0.0000 C   0  0  0  0  0  0  0  0  0  0  0  0
    8.4396    1.2385    0.0000 C   0  0  0  0  0  0  0  0  0  0  0  0
    9.3056    1.7385    0.0000 C   0  0  0  0  0  0  0  0  0  0  0  0
    4.9755   -1.7615    0.0000 C   0  0  0  0  0  0  0  0  0  0  0  0
   10.1716   -0.7615    0.0000 C   0  0  0  0  0  0  0  0  0  0  0  0
    9.3056    2.7385    0.0000 C   0  0  0  0  0  0  0  0  0  0  0  0
   10.1716    1.2385    0.0000 C   0  0  0  0  0  0  0  0  0  0  0  0
    4.9755   -2.7615    0.0000 C   0  0  0  0  0  0  0  0  0  0  0  0
    4.1095   -1.2615    0.0000 C   0  0  0  0  0  0  0  0  0  0  0  0
   11.0377   -0.2615    0.0000 C   0  0  0  0  0  0  0  0  0  0  0  0
   10.1716   -1.7615    0.0000 C   0  0  0  0  0  0  0  0  0  0  0  0
    4.1095   -3.2615    0.0000 C   0  0  0  0  0  0  0  0  0  0  0  0
    3.2434   -1.7615    0.0000 C   0  0  0  0  0  0  0  0  0  0  0  0
   11.9037   -0.7615    0.0000 C   0  0  0  0  0  0  0  0  0  0  0  0
   11.0377   -2.2615    0.0000 C   0  0  0  0  0  0  0  0  0  0  0  0
   11.9037   -1.7615    0.0000 C   0  0  0  0  0  0  0  0  0  0  0  0
    3.2434   -2.7615    0.0000 C   0  0  0  0  0  0  0  0  0  0  0  0
   13.4335   -1.2615    0.0000 C   0  0  0  0  0  0  0  0  0  0  0  0
   14.9335   -2.1275    0.0000 C   0  0  0  0  0  0  0  0  0  0  0  0
   15.9335   -2.1275    0.0000 C   0  0  0  0  0  0  0  0  0  0  0  0
   18.9335   -3.8596    0.0000 C   0  0  0  0  0  0  0  0  0  0  0  0
   17.4335   -2.9935    0.0000 C   0  0  0  0  0  0  0  0  0  0  0  0
   19.9335   -3.8596    0.0000 C   0  0  0  0  0  0  0  0  0  0  0  0
   18.9335   -4.8596    0.0000 C   0  0  0  0  0  0  0  0  0  0  0  0
   18.9335   -2.8596    0.0000 C   0  0  0  0  0  0  0  0  0  0  0  0
   15.9335   -3.8596    0.0000 C   0  0  0  0  0  0  0  0  0  0  0  0
    3.0367    2.5182    0.0000 H   0  0  0  0  0  0  0  0  0  0  0  0
    3.8711    5.0861    0.0000 H   0  0  0  0  0  0  0  0  0  0  0  0
    3.5570    2.4570    0.0000 H   0  0  0  0  0  0  0  0  0  0  0  0
    1.6997    3.2008    0.0000 H   0  0  0  0  0  0  0  0  0  0  0  0
    2.3699    2.7121    0.0000 H   0  0  0  0  0  0  0  0  0  0  0  0
    5.2285    2.7894    0.0000 H   0  0  0  0  0  0  0  0  0  0  0  0
    5.4849    3.5785    0.0000 H   0  0  0  0  0  0  0  0  0  0  0  0
    1.6898    4.8114    0.0000 H   0  0  0  0  0  0  0  0  0  0  0  0
    1.4335    4.0226    0.0000 H   0  0  0  0  0  0  0  0  0  0  0  0
    5.8415    0.3585    0.0000 H   0  0  0  0  0  0  0  0  0  0  0  0
    7.2445    0.5485    0.0000 H   0  0  0  0  0  0  0  0  0  0  0  0
    4.4386   -0.0715    0.0000 H   0  0  0  0  0  0  0  0  0  0  0  0
    7.1750   -0.7364    0.0000 H   0  0  0  0  0  0  0  0  0  0  0  0
    7.9721   -0.7364    0.0000 H   0  0  0  0  0  0  0  0  0  0  0  0
    6.0536   -1.8441    0.0000 H   0  0  0  0  0  0  0  0  0  0  0  0
    6.4521   -1.1538    0.0000 H   0  0  0  0  0  0  0  0  0  0  0  0
    8.2275    1.8211    0.0000 H   0  0  0  0  0  0  0  0  0  0  0  0
    7.8290    1.1308    0.0000 H   0  0  0  0  0  0  0  0  0  0  0  0
    8.7687    2.0485    0.0000 H   0  0  0  0  0  0  0  0  0  0  0  0
    7.2445    1.5485    0.0000 H   0  0  0  0  0  0  0  0  0  0  0  0
    9.9256    2.7385    0.0000 H   0  0  0  0  0  0  0  0  0  0  0  0
    9.3056    3.3585    0.0000 H   0  0  0  0  0  0  0  0  0  0  0  0
    8.6856    2.7385    0.0000 H   0  0  0  0  0  0  0  0  0  0  0  0
    9.8616    0.7016    0.0000 H   0  0  0  0  0  0  0  0  0  0  0  0
   10.7086    0.9285    0.0000 H   0  0  0  0  0  0  0  0  0  0  0  0
   10.4816    1.7754    0.0000 H   0  0  0  0  0  0  0  0  0  0  0  0
    5.5124   -3.0715    0.0000 H   0  0  0  0  0  0  0  0  0  0  0  0
    4.1095   -0.6415    0.0000 H   0  0  0  0  0  0  0  0  0  0  0  0
   11.0377    0.3585    0.0000 H   0  0  0  0  0  0  0  0  0  0  0  0
    9.6347   -2.0715    0.0000 H   0  0  0  0  0  0  0  0  0  0  0  0
    4.1095   -3.8815    0.0000 H   0  0  0  0  0  0  0  0  0  0  0  0
    2.7065   -1.4515    0.0000 H   0  0  0  0  0  0  0  0  0  0  0  0
   11.0377   -2.8815    0.0000 H   0  0  0  0  0  0  0  0  0  0  0  0
    2.7065   -3.0715    0.0000 H   0  0  0  0  0  0  0  0  0  0  0  0
   14.7435   -0.7246    0.0000 H   0  0  0  0  0  0  0  0  0  0  0  0
   14.3509   -2.3396    0.0000 H   0  0  0  0  0  0  0  0  0  0  0  0
   15.0412   -2.7381    0.0000 H   0  0  0  0  0  0  0  0  0  0  0  0
   16.5161   -1.9155    0.0000 H   0  0  0  0  0  0  0  0  0  0  0  0
   15.8259   -1.5169    0.0000 H   0  0  0  0  0  0  0  0  0  0  0  0
   19.9335   -4.4796    0.0000 H   0  0  0  0  0  0  0  0  0  0  0  0
   20.5535   -3.8596    0.0000 H   0  0  0  0  0  0  0  0  0  0  0  0
   19.9335   -3.2396    0.0000 H   0  0  0  0  0  0  0  0  0  0  0  0
   18.3135   -4.8596    0.0000 H   0  0  0  0  0  0  0  0  0  0  0  0
   18.9335   -5.4796    0.0000 H   0  0  0  0  0  0  0  0  0  0  0  0
   19.5535   -4.8596    0.0000 H   0  0  0  0  0  0  0  0  0  0  0  0
   19.5535   -2.8596    0.0000 H   0  0  0  0  0  0  0  0  0  0  0  0
   18.9335   -2.2396    0.0000 H   0  0  0  0  0  0  0  0  0  0  0  0
   18.3135   -2.8596    0.0000 H   0  0  0  0  0  0  0  0  0  0  0  0
   15.3966   -3.5496    0.0000 H   0  0  0  0  0  0  0  0  0  0  0  0
   15.6235   -4.3965    0.0000 H   0  0  0  0  0  0  0  0  0  0  0  0
   16.4705   -4.1696    0.0000 H   0  0  0  0  0  0  0  0  0  0  0  0
  1  8  2  0  0  0  0
  1  9  2  0  0  0  0
  1 13  1  0  0  0  0
  1 31  1  0  0  0  0
  2 40  1  0  0  0  0
  2 44  1  0  0  0  0
  3 18  1  0  0  0  0
  3 21  1  0  0  0  0
  4 18  1  0  0  0  0
  4 22  1  0  0  0  0
 19  5  1  6  0  0  0
  5 23  1  0  0  0  0
  6 23  2  0  0  0  0
 25  7  1  6  0  0  0
  7 72  1  0  0  0  0
 10 47  1  0  0  0  0
 10 48  1  0  0  0  0
 11 48  2  0  0  0  0
 12 23  1  0  0  0  0
 24 12  1  6  0  0  0
 12 64  1  0  0  0  0
 13 26  1  0  0  0  0
 13 28  1  0  0  0  0
 14 42  1  0  0  0  0
 14 44  2  0  0  0  0
 15 44  1  0  0  0  0
 15 45  1  0  0  0  0
 15 87  1  0  0  0  0
 16 46  1  0  0  0  0
 16 48  1  0  0  0  0
 16 52  1  0  0  0  0
 17 18  1  0  0  0  0
 17 19  1  0  0  0  0
 17 20  1  0  0  0  0
 17 53  1  1  0  0  0
 18 54  1  1  0  0  0
 19 21  1  0  0  0  0
 19 55  1  0  0  0  0
 20 22  1  0  0  0  0
 20 56  1  0  0  0  0
 20 57  1  0  0  0  0
 21 58  1  0  0  0  0
 21 59  1  0  0  0  0
 22 60  1  0  0  0  0
 22 61  1  0  0  0  0
 24 25  1  0  0  0  0
 24 27  1  0  0  0  0
 24 62  1  0  0  0  0
 25 26  1  0  0  0  0
 25 63  1  0  0  0  0
 26 65  1  0  0  0  0
 26 66  1  0  0  0  0
 27 30  1  0  0  0  0
 27 67  1  0  0  0  0
 27 68  1  0  0  0  0
 28 29  1  0  0  0  0
 28 69  1  0  0  0  0
 28 70  1  0  0  0  0
 29 32  1  0  0  0  0
 29 33  1  0  0  0  0
 29 71  1  0  0  0  0
 30 34  2  0  0  0  0
 30 35  1  0  0  0  0
 31 36  2  0  0  0  0
 31 37  1  0  0  0  0
 32 73  1  0  0  0  0
 32 74  1  0  0  0  0
 32 75  1  0  0  0  0
 33 76  1  0  0  0  0
 33 77  1  0  0  0  0
 33 78  1  0  0  0  0
 34 38  1  0  0  0  0
 34 79  1  0  0  0  0
 35 39  2  0  0  0  0
 35 80  1  0  0  0  0
 36 40  1  0  0  0  0
 36 81  1  0  0  0  0
 37 41  2  0  0  0  0
 37 82  1  0  0  0  0
 38 43  2  0  0  0  0
 38 83  1  0  0  0  0
 39 43  1  0  0  0  0
 39 84  1  0  0  0  0
 40 42  2  0  0  0  0
 41 42  1  0  0  0  0
 41 85  1  0  0  0  0
 43 86  1  0  0  0  0
 45 46  1  0  0  0  0
 45 88  1  0  0  0  0
 45 89  1  0  0  0  0
 46 90  1  0  0  0  0
 46 91  1  0  0  0  0
 47 49  1  0  0  0  0
 47 50  1  0  0  0  0
 47 51  1  0  0  0  0
 49 92  1  0  0  0  0
 49 93  1  0  0  0  0
 49 94  1  0  0  0  0
 50 95  1  0  0  0  0
 50 96  1  0  0  0  0
 50 97  1  0  0  0  0
 51 98  1  0  0  0  0
 51 99  1  0  0  0  0
 51100  1  0  0  0  0
 52101  1  0  0  0  0
 52102  1  0  0  0  0
 52103  1  0  0  0  0
M  END
> <PUBCHEM_COMPOUND_CID>
509609
> <PUBCHEM_COMPOUND_CANONICALIZED>
1
> <PUBCHEM_CACTVS_COMPLEXITY>
1280
> <PUBCHEM_CACTVS_HBOND_ACCEPTOR>
13
> <PUBCHEM_CACTVS_HBOND_DONOR>
3
> <PUBCHEM_CACTVS_ROTATABLE_BOND>
18
> <PUBCHEM_CACTVS_SUBSKEYS>
AAADcfB/vABgAAAAAAAAAAAAAAAAAWJEgAAwYAAAAAASAFgB9AAAHgQQSAAADXzx3gcz2bPIFgqsAyRifHDD8LlhCjlJmLw4ZJmbcKLg2ZG+YAhtlgLeyCfQ4KgOAAQAAEAAAQAACAAAgAACAAAAAAAAAA==
> <PUBCHEM_IUPAC_OPENEYE_NAME>
tert-butyl N-[2-[[6-[[(2R,3S)-3-[[(3aS,4R,6aR)-2,3,3a,4,5,6a-hexahydrofuro[2,3-b]furan-4-yl]oxycarbonylamino]-2-hydroxy-4-phenyl-butyl]-isobutyl-sulfamoyl]-1,3-benzothiazol-2-yl]amino]ethyl]-N-methyl-carbamate
> <PUBCHEM_IUPAC_CAS_NAME>
N-[2-[[6-[[(2R,3S)-3-[[[(3aS,4R,6aR)-2,3,3a,4,5,6a-hexahydrofuro[2,3-b]furan-4-yl]oxy-oxomethyl]amino]-2-hydroxy-4-phenylbutyl]-(2-methylpropyl)sulfamoyl]-1,3-benzothiazol-2-yl]amino]ethyl]-N-methylcarbamic acid tert-butyl ester
> <PUBCHEM_IUPAC_NAME_MARKUP>
<I>tert</I>-butyl <I>N</I>-[2-[[6-[[(2<I>R</I>,3<I>S</I>)-3-[[(3<I>a</I><I>S</I>,4<I>R</I>,6<I>a</I><I>R</I>)-2,3,3<I>a</I>,4,5,6<I>a</I>-hexahydrofuro[2,3-b]furan-4-yl]oxycarbonylamino]-2-hydroxy-4-phenylbutyl]-(2-methylpropyl)sulfamoyl]-1,3-benzothiazol-2-yl]amino]ethyl]-<I>N</I>-methylcarbamate
> <PUBCHEM_IUPAC_NAME>
tert-butyl N-[2-[[6-[[(2R,3S)-3-[[(3aS,4R,6aR)-2,3,3a,4,5,6a-hexahydrofuro[2,3-b]furan-4-yl]oxycarbonylamino]-2-hydroxy-4-phenylbutyl]-(2-methylpropyl)sulfamoyl]-1,3-benzothiazol-2-yl]amino]ethyl]-N-methylcarbamate
> <PUBCHEM_IUPAC_SYSTEMATIC_NAME>
tert-butyl N-[2-[[6-[[(2R,3S)-3-[[(3aS,4R,6aR)-2,3,3a,4,5,6a-hexahydrofuro[2,3-b]furan-4-yl]oxycarbonylamino]-2-oxidanyl-4-phenyl-butyl]-(2-methylpropyl)sulfamoyl]-1,3-benzothiazol-2-yl]amino]ethyl]-N-methyl-carbamate
> <PUBCHEM_IUPAC_TRADITIONAL_NAME>
N-[2-[[6-[[(2R,3S)-3-[[(3aS,4R,6aR)-2,3,3a,4,5,6a-hexahydrofuro[2,3-b]furan-4-yl]oxycarbonylamino]-2-hydroxy-4-phenyl-butyl]-isobutyl-sulfamoyl]-1,3-benzothiazol-2-yl]amino]ethyl]-N-methyl-carbamic acid tert-butyl ester
> <PUBCHEM_IUPAC_INCHI>
InChI=1S/C36H51N5O9S2/c1-23(2)20-41(21-29(42)28(18-24-10-8-7-9-11-24)39-34(43)49-30-22-48-32-26(30)14-17-47-32)52(45,46)25-12-13-27-31(19-25)51-33(38-27)37-15-16-40(6)35(44)50-36(3,4)5/h7-13,19,23,26,28-30,32,42H,14-18,20-22H2,1-6H3,(H,37,38)(H,39,43)/t26-,28-,29+,30-,32+/m0/s1
> <PUBCHEM_IUPAC_INCHIKEY>
NAOYLTBMRPOWDU-OFGMPYHFSA-N
> <PUBCHEM_XLOGP3_AA>
5.3
> <PUBCHEM_EXACT_MASS>
761.31282057
> <PUBCHEM_MOLECULAR_FORMULA>
C36H51N5O9S2
> <PUBCHEM_MOLECULAR_WEIGHT>
762.0
> <PUBCHEM_OPENEYE_CAN_SMILES>
CC(C)CN(CC(C(CC1=CC=CC=C1)NC(=O)OC2COC3C2CCO3)O)S(=O)(=O)C4=CC5=C(C=C4)N=C(S5)NCCN(C)C(=O)OC(C)(C)C
> <PUBCHEM_OPENEYE_ISO_SMILES>
CC(C)CN(C[C@H]([C@H](CC1=CC=CC=C1)NC(=O)O[C@H]2CO[C@@H]3[C@H]2CCO3)O)S(=O)(=O)C4=CC5=C(C=C4)N=C(S5)NCCN(C)C(=O)OC(C)(C)C
> <PUBCHEM_CACTVS_TPSA>
206
> <PUBCHEM_MONOISOTOPIC_WEIGHT>
761.31282057
> <PUBCHEM_TOTAL_CHARGE>
0
> <PUBCHEM_HEAVY_ATOM_COUNT>
52
> <PUBCHEM_ATOM_DEF_STEREO_COUNT>
5
> <PUBCHEM_ATOM_UDEF_STEREO_COUNT>
0
> <PUBCHEM_BOND_DEF_STEREO_COUNT>
0
> <PUBCHEM_BOND_UDEF_STEREO_COUNT>
0
> <PUBCHEM_ISOTOPIC_ATOM_COUNT>
0
> <PUBCHEM_COMPONENT_COUNT>
1
> <PUBCHEM_CACTVS_TAUTO_COUNT>
-1
> <PUBCHEM_COORDINATE_TYPE>
1
5
255
> <PUBCHEM_BONDANNOTATIONS>
24  12  6
14  42  8
14  44  8
17  53  5
18  54  5
2  40  8
2  44  8
30  34  8
30  35  8
31  36  8
31  37  8
34  38  8
35  39  8
36  40  8
37  41  8
38  43  8
39  43  8
40  42  8
41  42  8
19  5  6
25  7  6
$$$$
