509693
  -OEChem-10302200282D
 94 97  0     1  0  0  0  0  0999 V2000
    8.1962    0.1574    0.0000 S   0  0  0  0  0  0  0  0  0  0  0  0
   11.7404   -0.0379    0.0000 S   0  0  0  0  0  0  0  0  0  0  0  0
    5.5981    1.6574    0.0000 O   0  0  0  0  0  0  0  0  0  0  0  0
    7.6962   -0.7087    0.0000 O   0  0  0  0  0  0  0  0  0  0  0  0
    8.6962    1.0234    0.0000 O   0  0  0  0  0  0  0  0  0  0  0  0
    3.0000    2.1574    0.0000 O   0  0  0  0  0  0  0  0  0  0  0  0
    4.7320    2.1574    0.0000 O   0  0  0  0  0  0  0  0  0  0  0  0
   15.3241   -2.5747    0.0000 N   0  0  0  0  0  0  0  0  0  0  0  0
    7.3301    0.6574    0.0000 N   0  0  3  0  0  0  0  0  0  0  0  0
   13.3241   -0.8426    0.0000 N   0  0  3  0  0  0  0  0  0  0  0  0
    3.8660    0.6574    0.0000 N   0  0  0  0  0  0  0  0  0  0  0  0
   11.7404   -1.6474    0.0000 N   0  0  0  0  0  0  0  0  0  0  0  0
   14.9173   -3.4882    0.0000 C   0  0  0  0  0  0  0  0  0  0  0  0
   16.3186   -2.6792    0.0000 C   0  0  0  0  0  0  0  0  0  0  0  0
   15.6605   -4.1574    0.0000 C   0  0  0  0  0  0  0  0  0  0  0  0
   16.5265   -3.6574    0.0000 C   0  0  0  0  0  0  0  0  0  0  0  0
   14.8241   -1.7087    0.0000 C   0  0  0  0  0  0  0  0  0  0  0  0
    5.5981    0.6574    0.0000 C   0  0  2  0  0  0  0  0  0  0  0  0
    6.4641    0.1574    0.0000 C   0  0  0  0  0  0  0  0  0  0  0  0
    4.7320    0.1574    0.0000 C   0  0  2  0  0  0  0  0  0  0  0  0
    7.3301    1.6574    0.0000 C   0  0  0  0  0  0  0  0  0  0  0  0
   13.8241   -1.7087    0.0000 C   0  0  0  0  0  0  0  0  0  0  0  0
    8.1962    2.1574    0.0000 C   0  0  0  0  0  0  0  0  0  0  0  0
    4.7320   -0.8426    0.0000 C   0  0  0  0  0  0  0  0  0  0  0  0
    9.0622   -0.3426    0.0000 C   0  0  0  0  0  0  0  0  0  0  0  0
    8.1962    3.1574    0.0000 C   0  0  0  0  0  0  0  0  0  0  0  0
    9.0622    1.6574    0.0000 C   0  0  0  0  0  0  0  0  0  0  0  0
    3.8660   -1.3426    0.0000 C   0  0  0  0  0  0  0  0  0  0  0  0
   12.3241   -0.8426    0.0000 C   0  0  0  0  0  0  0  0  0  0  0  0
    9.9282    0.1574    0.0000 C   0  0  0  0  0  0  0  0  0  0  0  0
   10.7942   -0.3426    0.0000 C   0  0  0  0  0  0  0  0  0  0  0  0
    9.0622   -1.3426    0.0000 C   0  0  0  0  0  0  0  0  0  0  0  0
   10.7942   -1.3426    0.0000 C   0  0  0  0  0  0  0  0  0  0  0  0
   13.8241    0.0234    0.0000 C   0  0  0  0  0  0  0  0  0  0  0  0
    3.8660    1.6574    0.0000 C   0  0  0  0  0  0  0  0  0  0  0  0
    9.9282   -1.8426    0.0000 C   0  0  0  0  0  0  0  0  0  0  0  0
    3.8660   -2.3426    0.0000 C   0  0  0  0  0  0  0  0  0  0  0  0
    3.0000   -0.8426    0.0000 C   0  0  0  0  0  0  0  0  0  0  0  0
    3.0000    3.1574    0.0000 C   0  0  0  0  0  0  0  0  0  0  0  0
    3.0000   -2.8426    0.0000 C   0  0  0  0  0  0  0  0  0  0  0  0
    2.1340   -1.3426    0.0000 C   0  0  0  0  0  0  0  0  0  0  0  0
    2.1340   -2.3426    0.0000 C   0  0  0  0  0  0  0  0  0  0  0  0
    3.0000    4.1574    0.0000 C   0  0  0  0  0  0  0  0  0  0  0  0
    2.0000    3.1574    0.0000 C   0  0  0  0  0  0  0  0  0  0  0  0
    4.0000    3.1574    0.0000 C   0  0  0  0  0  0  0  0  0  0  0  0
   14.3804   -3.1782    0.0000 H   0  0  0  0  0  0  0  0  0  0  0  0
   14.5529   -3.9898    0.0000 H   0  0  0  0  0  0  0  0  0  0  0  0
   16.9352   -2.6144    0.0000 H   0  0  0  0  0  0  0  0  0  0  0  0
   16.3186   -2.0592    0.0000 H   0  0  0  0  0  0  0  0  0  0  0  0
   15.1997   -4.5722    0.0000 H   0  0  0  0  0  0  0  0  0  0  0  0
   16.0249   -4.6590    0.0000 H   0  0  0  0  0  0  0  0  0  0  0  0
   16.7787   -4.2238    0.0000 H   0  0  0  0  0  0  0  0  0  0  0  0
   17.1161   -3.4658    0.0000 H   0  0  0  0  0  0  0  0  0  0  0  0
   15.4067   -1.4966    0.0000 H   0  0  0  0  0  0  0  0  0  0  0  0
   14.7164   -1.0981    0.0000 H   0  0  0  0  0  0  0  0  0  0  0  0
    6.1350    0.9674    0.0000 H   0  0  0  0  0  0  0  0  0  0  0  0
    6.0656   -0.3176    0.0000 H   0  0  0  0  0  0  0  0  0  0  0  0
    6.8626   -0.3176    0.0000 H   0  0  0  0  0  0  0  0  0  0  0  0
    4.7320    0.7774    0.0000 H   0  0  0  0  0  0  0  0  0  0  0  0
    7.1181    2.2400    0.0000 H   0  0  0  0  0  0  0  0  0  0  0  0
    6.7196    1.5497    0.0000 H   0  0  0  0  0  0  0  0  0  0  0  0
   13.2414   -1.9207    0.0000 H   0  0  0  0  0  0  0  0  0  0  0  0
   13.9317   -2.3192    0.0000 H   0  0  0  0  0  0  0  0  0  0  0  0
    8.7331    2.4674    0.0000 H   0  0  0  0  0  0  0  0  0  0  0  0
    4.9441   -1.4252    0.0000 H   0  0  0  0  0  0  0  0  0  0  0  0
    5.3426   -0.7350    0.0000 H   0  0  0  0  0  0  0  0  0  0  0  0
    3.3291    0.3474    0.0000 H   0  0  0  0  0  0  0  0  0  0  0  0
    8.8162    3.1574    0.0000 H   0  0  0  0  0  0  0  0  0  0  0  0
    8.1962    3.7774    0.0000 H   0  0  0  0  0  0  0  0  0  0  0  0
    7.5762    3.1574    0.0000 H   0  0  0  0  0  0  0  0  0  0  0  0
    8.7522    1.1204    0.0000 H   0  0  0  0  0  0  0  0  0  0  0  0
    9.5991    1.3474    0.0000 H   0  0  0  0  0  0  0  0  0  0  0  0
    9.3722    2.1943    0.0000 H   0  0  0  0  0  0  0  0  0  0  0  0
    6.1350    1.9674    0.0000 H   0  0  0  0  0  0  0  0  0  0  0  0
    9.9282    0.7774    0.0000 H   0  0  0  0  0  0  0  0  0  0  0  0
    8.5252   -1.6526    0.0000 H   0  0  0  0  0  0  0  0  0  0  0  0
   14.3610   -0.2866    0.0000 H   0  0  0  0  0  0  0  0  0  0  0  0
   14.1341    0.5603    0.0000 H   0  0  0  0  0  0  0  0  0  0  0  0
   13.2871    0.3334    0.0000 H   0  0  0  0  0  0  0  0  0  0  0  0
    9.9282   -2.4626    0.0000 H   0  0  0  0  0  0  0  0  0  0  0  0
    4.4030   -2.6526    0.0000 H   0  0  0  0  0  0  0  0  0  0  0  0
    3.0000   -0.2226    0.0000 H   0  0  0  0  0  0  0  0  0  0  0  0
    3.0000   -3.4626    0.0000 H   0  0  0  0  0  0  0  0  0  0  0  0
    1.5970   -1.0326    0.0000 H   0  0  0  0  0  0  0  0  0  0  0  0
    3.6200    4.1574    0.0000 H   0  0  0  0  0  0  0  0  0  0  0  0
    3.0000    4.7774    0.0000 H   0  0  0  0  0  0  0  0  0  0  0  0
    2.3800    4.1574    0.0000 H   0  0  0  0  0  0  0  0  0  0  0  0
    2.0000    3.7774    0.0000 H   0  0  0  0  0  0  0  0  0  0  0  0
    1.3800    3.1574    0.0000 H   0  0  0  0  0  0  0  0  0  0  0  0
    2.0000    2.5374    0.0000 H   0  0  0  0  0  0  0  0  0  0  0  0
    4.0000    2.5374    0.0000 H   0  0  0  0  0  0  0  0  0  0  0  0
    4.6200    3.1574    0.0000 H   0  0  0  0  0  0  0  0  0  0  0  0
    4.0000    3.7774    0.0000 H   0  0  0  0  0  0  0  0  0  0  0  0
    1.5970   -2.6526    0.0000 H   0  0  0  0  0  0  0  0  0  0  0  0
  1  4  2  0  0  0  0
  1  5  2  0  0  0  0
  1  9  1  0  0  0  0
  1 25  1  0  0  0  0
  2 29  1  0  0  0  0
  2 31  1  0  0  0  0
 18  3  1  6  0  0  0
  3 74  1  0  0  0  0
  6 35  1  0  0  0  0
  6 39  1  0  0  0  0
  7 35  2  0  0  0  0
  8 13  1  0  0  0  0
  8 14  1  0  0  0  0
  8 17  1  0  0  0  0
  9 19  1  0  0  0  0
  9 21  1  0  0  0  0
 10 22  1  0  0  0  0
 10 29  1  0  0  0  0
 10 34  1  0  0  0  0
 20 11  1  6  0  0  0
 11 35  1  0  0  0  0
 11 67  1  0  0  0  0
 12 29  2  0  0  0  0
 12 33  1  0  0  0  0
 13 15  1  0  0  0  0
 13 46  1  0  0  0  0
 13 47  1  0  0  0  0
 14 16  1  0  0  0  0
 14 48  1  0  0  0  0
 14 49  1  0  0  0  0
 15 16  1  0  0  0  0
 15 50  1  0  0  0  0
 15 51  1  0  0  0  0
 16 52  1  0  0  0  0
 16 53  1  0  0  0  0
 17 22  1  0  0  0  0
 17 54  1  0  0  0  0
 17 55  1  0  0  0  0
 18 19  1  0  0  0  0
 18 20  1  0  0  0  0
 18 56  1  0  0  0  0
 19 57  1  0  0  0  0
 19 58  1  0  0  0  0
 20 24  1  0  0  0  0
 20 59  1  0  0  0  0
 21 23  1  0  0  0  0
 21 60  1  0  0  0  0
 21 61  1  0  0  0  0
 22 62  1  0  0  0  0
 22 63  1  0  0  0  0
 23 26  1  0  0  0  0
 23 27  1  0  0  0  0
 23 64  1  0  0  0  0
 24 28  1  0  0  0  0
 24 65  1  0  0  0  0
 24 66  1  0  0  0  0
 25 30  2  0  0  0  0
 25 32  1  0  0  0  0
 26 68  1  0  0  0  0
 26 69  1  0  0  0  0
 26 70  1  0  0  0  0
 27 71  1  0  0  0  0
 27 72  1  0  0  0  0
 27 73  1  0  0  0  0
 28 37  2  0  0  0  0
 28 38  1  0  0  0  0
 30 31  1  0  0  0  0
 30 75  1  0  0  0  0
 31 33  2  0  0  0  0
 32 36  2  0  0  0  0
 32 76  1  0  0  0  0
 33 36  1  0  0  0  0
 34 77  1  0  0  0  0
 34 78  1  0  0  0  0
 34 79  1  0  0  0  0
 36 80  1  0  0  0  0
 37 40  1  0  0  0  0
 37 81  1  0  0  0  0
 38 41  2  0  0  0  0
 38 82  1  0  0  0  0
 39 43  1  0  0  0  0
 39 44  1  0  0  0  0
 39 45  1  0  0  0  0
 40 42  2  0  0  0  0
 40 83  1  0  0  0  0
 41 42  1  0  0  0  0
 41 84  1  0  0  0  0
 42 94  1  0  0  0  0
 43 85  1  0  0  0  0
 43 86  1  0  0  0  0
 43 87  1  0  0  0  0
 44 88  1  0  0  0  0
 44 89  1  0  0  0  0
 44 90  1  0  0  0  0
 45 91  1  0  0  0  0
 45 92  1  0  0  0  0
 45 93  1  0  0  0  0
M  END
> <PUBCHEM_COMPOUND_CID>
509693
> <PUBCHEM_COMPOUND_CANONICALIZED>
1
> <PUBCHEM_CACTVS_COMPLEXITY>
1020
> <PUBCHEM_CACTVS_HBOND_ACCEPTOR>
10
> <PUBCHEM_CACTVS_HBOND_DONOR>
2
> <PUBCHEM_CACTVS_ROTATABLE_BOND>
16
> <PUBCHEM_CACTVS_SUBSKEYS>
AAADcfB/uABgAAAAAAAAAAAAAAAAAWLAAAAwYAAAAAAAAFgB9AAAHgQQSAAADXzh3gYz2bPIFgqsAyRifHDD8LlhCjhJmLw4ZJmKcKLg2ZGcYAhslgLYyCeQwKAOAAQAAEAAAQAACAAAgAACAAAAAAAAAA==
> <PUBCHEM_IUPAC_OPENEYE_NAME>
tert-butyl N-[(1S,2R)-1-benzyl-2-hydroxy-3-[isobutyl-[[2-[methyl(2-pyrrolidin-1-ylethyl)amino]-1,3-benzothiazol-6-yl]sulfonyl]amino]propyl]carbamate
> <PUBCHEM_IUPAC_CAS_NAME>
N-[(2S,3R)-3-hydroxy-4-[2-methylpropyl-[[2-[methyl-[2-(1-pyrrolidinyl)ethyl]amino]-1,3-benzothiazol-6-yl]sulfonyl]amino]-1-phenylbutan-2-yl]carbamic acid tert-butyl ester
> <PUBCHEM_IUPAC_NAME_MARKUP>
<I>tert</I>-butyl <I>N</I>-[(2<I>S</I>,3<I>R</I>)-3-hydroxy-4-[2-methylpropyl-[[2-[methyl(2-pyrrolidin-1-ylethyl)amino]-1,3-benzothiazol-6-yl]sulfonyl]amino]-1-phenylbutan-2-yl]carbamate
> <PUBCHEM_IUPAC_NAME>
tert-butyl N-[(2S,3R)-3-hydroxy-4-[2-methylpropyl-[[2-[methyl(2-pyrrolidin-1-ylethyl)amino]-1,3-benzothiazol-6-yl]sulfonyl]amino]-1-phenylbutan-2-yl]carbamate
> <PUBCHEM_IUPAC_SYSTEMATIC_NAME>
tert-butyl N-[(2S,3R)-4-[2-methylpropyl-[[2-[methyl(2-pyrrolidin-1-ylethyl)amino]-1,3-benzothiazol-6-yl]sulfonyl]amino]-3-oxidanyl-1-phenyl-butan-2-yl]carbamate
> <PUBCHEM_IUPAC_TRADITIONAL_NAME>
N-[(1S,2R)-1-benzyl-2-hydroxy-3-[isobutyl-[[2-[methyl(2-pyrrolidinoethyl)amino]-1,3-benzothiazol-6-yl]sulfonyl]amino]propyl]carbamic acid tert-butyl ester
> <PUBCHEM_IUPAC_INCHI>
InChI=1S/C33H49N5O5S2/c1-24(2)22-38(23-29(39)28(20-25-12-8-7-9-13-25)35-32(40)43-33(3,4)5)45(41,42)26-14-15-27-30(21-26)44-31(34-27)36(6)18-19-37-16-10-11-17-37/h7-9,12-15,21,24,28-29,39H,10-11,16-20,22-23H2,1-6H3,(H,35,40)/t28-,29+/m0/s1
> <PUBCHEM_IUPAC_INCHIKEY>
ZFGBOBAJYXTPRU-URLMMPGGSA-N
> <PUBCHEM_XLOGP3_AA>
5.9
> <PUBCHEM_EXACT_MASS>
659.31751203
> <PUBCHEM_MOLECULAR_FORMULA>
C33H49N5O5S2
> <PUBCHEM_MOLECULAR_WEIGHT>
659.9
> <PUBCHEM_OPENEYE_CAN_SMILES>
CC(C)CN(CC(C(CC1=CC=CC=C1)NC(=O)OC(C)(C)C)O)S(=O)(=O)C2=CC3=C(C=C2)N=C(S3)N(C)CCN4CCCC4
> <PUBCHEM_OPENEYE_ISO_SMILES>
CC(C)CN(C[C@H]([C@H](CC1=CC=CC=C1)NC(=O)OC(C)(C)C)O)S(=O)(=O)C2=CC3=C(C=C2)N=C(S3)N(C)CCN4CCCC4
> <PUBCHEM_CACTVS_TPSA>
152
> <PUBCHEM_MONOISOTOPIC_WEIGHT>
659.31751203
> <PUBCHEM_TOTAL_CHARGE>
0
> <PUBCHEM_HEAVY_ATOM_COUNT>
45
> <PUBCHEM_ATOM_DEF_STEREO_COUNT>
2
> <PUBCHEM_ATOM_UDEF_STEREO_COUNT>
0
> <PUBCHEM_BOND_DEF_STEREO_COUNT>
0
> <PUBCHEM_BOND_UDEF_STEREO_COUNT>
0
> <PUBCHEM_ISOTOPIC_ATOM_COUNT>
0
> <PUBCHEM_COMPONENT_COUNT>
1
> <PUBCHEM_CACTVS_TAUTO_COUNT>
-1
> <PUBCHEM_COORDINATE_TYPE>
1
5
255
> <PUBCHEM_BONDANNOTATIONS>
20  11  6
12  29  8
12  33  8
2  29  8
2  31  8
25  30  8
25  32  8
28  37  8
28  38  8
18  3  6
30  31  8
31  33  8
32  36  8
33  36  8
37  40  8
38  41  8
40  42  8
41  42  8
$$$$
