509655
  -OEChem-10302200282D
 80 83  0     1  0  0  0  0  0999 V2000
   10.3312   -0.2500    0.0000 S   0  0  0  0  0  0  0  0  0  0  0  0
   13.8755   -0.4453    0.0000 S   0  0  0  0  0  0  0  0  0  0  0  0
    7.7331    1.2500    0.0000 O   0  0  0  0  0  0  0  0  0  0  0  0
    9.8312   -1.1160    0.0000 O   0  0  0  0  0  0  0  0  0  0  0  0
   10.8312    0.6160    0.0000 O   0  0  0  0  0  0  0  0  0  0  0  0
    6.8671    1.7500    0.0000 O   0  0  0  0  0  0  0  0  0  0  0  0
   15.4591   -2.9820    0.0000 O   0  0  0  0  0  0  0  0  0  0  0  0
    9.4651    0.2500    0.0000 N   0  0  3  0  0  0  0  0  0  0  0  0
    6.0010    0.2500    0.0000 N   0  0  0  0  0  0  0  0  0  0  0  0
   13.8755   -2.0547    0.0000 N   0  0  0  0  0  0  0  0  0  0  0  0
   15.4591   -1.2500    0.0000 N   0  0  0  0  0  0  0  0  0  0  0  0
    2.5369    1.2500    0.0000 N   0  0  0  0  0  0  0  0  0  0  0  0
    7.7331    0.2500    0.0000 C   0  0  2  0  0  0  0  0  0  0  0  0
    8.5991   -0.2500    0.0000 C   0  0  0  0  0  0  0  0  0  0  0  0
    6.8671   -0.2500    0.0000 C   0  0  2  0  0  0  0  0  0  0  0  0
    9.4651    1.2500    0.0000 C   0  0  0  0  0  0  0  0  0  0  0  0
   10.3312    1.7500    0.0000 C   0  0  0  0  0  0  0  0  0  0  0  0
    6.8671   -1.2500    0.0000 C   0  0  0  0  0  0  0  0  0  0  0  0
   11.1972   -0.7500    0.0000 C   0  0  0  0  0  0  0  0  0  0  0  0
    6.0010   -1.7500    0.0000 C   0  0  0  0  0  0  0  0  0  0  0  0
   10.3312    2.7500    0.0000 C   0  0  0  0  0  0  0  0  0  0  0  0
   11.1972    1.2500    0.0000 C   0  0  0  0  0  0  0  0  0  0  0  0
    6.0010    1.2500    0.0000 C   0  0  0  0  0  0  0  0  0  0  0  0
   12.0632   -0.2500    0.0000 C   0  0  0  0  0  0  0  0  0  0  0  0
   11.1972   -1.7500    0.0000 C   0  0  0  0  0  0  0  0  0  0  0  0
    6.0010   -2.7500    0.0000 C   0  0  0  0  0  0  0  0  0  0  0  0
    5.1350   -1.2500    0.0000 C   0  0  0  0  0  0  0  0  0  0  0  0
    5.1350    1.7500    0.0000 C   0  0  0  0  0  0  0  0  0  0  0  0
   12.9292   -0.7500    0.0000 C   0  0  0  0  0  0  0  0  0  0  0  0
   12.0632   -2.2500    0.0000 C   0  0  0  0  0  0  0  0  0  0  0  0
   12.9292   -1.7500    0.0000 C   0  0  0  0  0  0  0  0  0  0  0  0
    5.1350   -3.2500    0.0000 C   0  0  0  0  0  0  0  0  0  0  0  0
    4.2690   -1.7500    0.0000 C   0  0  0  0  0  0  0  0  0  0  0  0
    5.1350    2.7500    0.0000 C   0  0  0  0  0  0  0  0  0  0  0  0
    4.2690   -2.7500    0.0000 C   0  0  0  0  0  0  0  0  0  0  0  0
    4.2690    1.2500    0.0000 C   0  0  0  0  0  0  0  0  0  0  0  0
   14.4591   -1.2500    0.0000 C   0  0  0  0  0  0  0  0  0  0  0  0
    4.2690    3.2500    0.0000 C   0  0  0  0  0  0  0  0  0  0  0  0
    3.4030    1.7500    0.0000 C   0  0  0  0  0  0  0  0  0  0  0  0
    6.0010    3.2500    0.0000 C   0  0  0  0  0  0  0  0  0  0  0  0
    3.4030    2.7500    0.0000 C   0  0  0  0  0  0  0  0  0  0  0  0
   15.9591   -2.1160    0.0000 C   0  0  0  0  0  0  0  0  0  0  0  0
   16.9591   -2.1160    0.0000 C   0  0  0  0  0  0  0  0  0  0  0  0
    8.2700    0.5600    0.0000 H   0  0  0  0  0  0  0  0  0  0  0  0
    8.2006   -0.7249    0.0000 H   0  0  0  0  0  0  0  0  0  0  0  0
    8.9976   -0.7249    0.0000 H   0  0  0  0  0  0  0  0  0  0  0  0
    6.3301   -0.5600    0.0000 H   0  0  0  0  0  0  0  0  0  0  0  0
    9.2531    1.8326    0.0000 H   0  0  0  0  0  0  0  0  0  0  0  0
    8.8546    1.1423    0.0000 H   0  0  0  0  0  0  0  0  0  0  0  0
   10.8681    2.0600    0.0000 H   0  0  0  0  0  0  0  0  0  0  0  0
    7.0791   -1.8326    0.0000 H   0  0  0  0  0  0  0  0  0  0  0  0
    7.4776   -1.1423    0.0000 H   0  0  0  0  0  0  0  0  0  0  0  0
    5.4641   -0.0600    0.0000 H   0  0  0  0  0  0  0  0  0  0  0  0
   10.9512    2.7500    0.0000 H   0  0  0  0  0  0  0  0  0  0  0  0
   10.3312    3.3700    0.0000 H   0  0  0  0  0  0  0  0  0  0  0  0
    9.7112    2.7500    0.0000 H   0  0  0  0  0  0  0  0  0  0  0  0
   10.8872    0.7131    0.0000 H   0  0  0  0  0  0  0  0  0  0  0  0
   11.7341    0.9400    0.0000 H   0  0  0  0  0  0  0  0  0  0  0  0
   11.5072    1.7869    0.0000 H   0  0  0  0  0  0  0  0  0  0  0  0
    8.2700    1.5600    0.0000 H   0  0  0  0  0  0  0  0  0  0  0  0
   12.0632    0.3700    0.0000 H   0  0  0  0  0  0  0  0  0  0  0  0
   10.6603   -2.0600    0.0000 H   0  0  0  0  0  0  0  0  0  0  0  0
    6.5380   -3.0600    0.0000 H   0  0  0  0  0  0  0  0  0  0  0  0
    5.1350   -0.6300    0.0000 H   0  0  0  0  0  0  0  0  0  0  0  0
   12.0632   -2.8700    0.0000 H   0  0  0  0  0  0  0  0  0  0  0  0
    5.1350   -3.8700    0.0000 H   0  0  0  0  0  0  0  0  0  0  0  0
    3.7320   -1.4400    0.0000 H   0  0  0  0  0  0  0  0  0  0  0  0
    3.7320   -3.0600    0.0000 H   0  0  0  0  0  0  0  0  0  0  0  0
    4.2690    0.6300    0.0000 H   0  0  0  0  0  0  0  0  0  0  0  0
    4.2690    3.8700    0.0000 H   0  0  0  0  0  0  0  0  0  0  0  0
    6.3110    2.7131    0.0000 H   0  0  0  0  0  0  0  0  0  0  0  0
    6.5380    3.5600    0.0000 H   0  0  0  0  0  0  0  0  0  0  0  0
    5.6910    3.7869    0.0000 H   0  0  0  0  0  0  0  0  0  0  0  0
    2.8660    3.0600    0.0000 H   0  0  0  0  0  0  0  0  0  0  0  0
   15.7691   -0.7131    0.0000 H   0  0  0  0  0  0  0  0  0  0  0  0
    2.0000    1.5600    0.0000 H   0  0  0  0  0  0  0  0  0  0  0  0
    2.5369    0.6300    0.0000 H   0  0  0  0  0  0  0  0  0  0  0  0
   16.9591   -2.7360    0.0000 H   0  0  0  0  0  0  0  0  0  0  0  0
   17.5791   -2.1160    0.0000 H   0  0  0  0  0  0  0  0  0  0  0  0
   16.9591   -1.4960    0.0000 H   0  0  0  0  0  0  0  0  0  0  0  0
  1  4  2  0  0  0  0
  1  5  2  0  0  0  0
  1  8  1  0  0  0  0
  1 19  1  0  0  0  0
  2 29  1  0  0  0  0
  2 37  1  0  0  0  0
 13  3  1  6  0  0  0
  3 60  1  0  0  0  0
  6 23  2  0  0  0  0
  7 42  2  0  0  0  0
  8 14  1  0  0  0  0
  8 16  1  0  0  0  0
 15  9  1  6  0  0  0
  9 23  1  0  0  0  0
  9 53  1  0  0  0  0
 10 31  1  0  0  0  0
 10 37  2  0  0  0  0
 11 37  1  0  0  0  0
 11 42  1  0  0  0  0
 11 75  1  0  0  0  0
 12 39  1  0  0  0  0
 12 76  1  0  0  0  0
 12 77  1  0  0  0  0
 13 14  1  0  0  0  0
 13 15  1  0  0  0  0
 13 44  1  0  0  0  0
 14 45  1  0  0  0  0
 14 46  1  0  0  0  0
 15 18  1  0  0  0  0
 15 47  1  0  0  0  0
 16 17  1  0  0  0  0
 16 48  1  0  0  0  0
 16 49  1  0  0  0  0
 17 21  1  0  0  0  0
 17 22  1  0  0  0  0
 17 50  1  0  0  0  0
 18 20  1  0  0  0  0
 18 51  1  0  0  0  0
 18 52  1  0  0  0  0
 19 24  2  0  0  0  0
 19 25  1  0  0  0  0
 20 26  2  0  0  0  0
 20 27  1  0  0  0  0
 21 54  1  0  0  0  0
 21 55  1  0  0  0  0
 21 56  1  0  0  0  0
 22 57  1  0  0  0  0
 22 58  1  0  0  0  0
 22 59  1  0  0  0  0
 23 28  1  0  0  0  0
 24 29  1  0  0  0  0
 24 61  1  0  0  0  0
 25 30  2  0  0  0  0
 25 62  1  0  0  0  0
 26 32  1  0  0  0  0
 26 63  1  0  0  0  0
 27 33  2  0  0  0  0
 27 64  1  0  0  0  0
 28 34  2  0  0  0  0
 28 36  1  0  0  0  0
 29 31  2  0  0  0  0
 30 31  1  0  0  0  0
 30 65  1  0  0  0  0
 32 35  2  0  0  0  0
 32 66  1  0  0  0  0
 33 35  1  0  0  0  0
 33 67  1  0  0  0  0
 34 38  1  0  0  0  0
 34 40  1  0  0  0  0
 35 68  1  0  0  0  0
 36 39  2  0  0  0  0
 36 69  1  0  0  0  0
 38 41  2  0  0  0  0
 38 70  1  0  0  0  0
 39 41  1  0  0  0  0
 40 71  1  0  0  0  0
 40 72  1  0  0  0  0
 40 73  1  0  0  0  0
 41 74  1  0  0  0  0
 42 43  1  0  0  0  0
 43 78  1  0  0  0  0
 43 79  1  0  0  0  0
 43 80  1  0  0  0  0
M  END
> <PUBCHEM_COMPOUND_CID>
509655
> <PUBCHEM_COMPOUND_CANONICALIZED>
1
> <PUBCHEM_CACTVS_COMPLEXITY>
1030
> <PUBCHEM_CACTVS_HBOND_ACCEPTOR>
9
> <PUBCHEM_CACTVS_HBOND_DONOR>
4
> <PUBCHEM_CACTVS_ROTATABLE_BOND>
12
> <PUBCHEM_CACTVS_SUBSKEYS>
AAADcfB7uABgAAAAAAAAAAAAAAAAAWAAAAAwYMAAAAAAAFgB9AAAHgQQSAAADTzh3gYz0bLIEgqsAyVydHDD8LllCjlJmL04ZNiKMLLg3ZGEYQhslwLYyaecyKCOiAQAQEAQAQAQCACAgCACAAAAAAAAAA==
> <PUBCHEM_IUPAC_OPENEYE_NAME>
N-[(1S,2R)-3-[(2-acetamido-1,3-benzothiazol-6-yl)sulfonyl-isobutyl-amino]-1-benzyl-2-hydroxy-propyl]-5-amino-2-methyl-benzamide
> <PUBCHEM_IUPAC_CAS_NAME>
N-[(2S,3R)-4-[(2-acetamido-1,3-benzothiazol-6-yl)sulfonyl-(2-methylpropyl)amino]-3-hydroxy-1-phenylbutan-2-yl]-5-amino-2-methylbenzamide
> <PUBCHEM_IUPAC_NAME_MARKUP>
<I>N</I>-[(2<I>S</I>,3<I>R</I>)-4-[(2-acetamido-1,3-benzothiazol-6-yl)sulfonyl-(2-methylpropyl)amino]-3-hydroxy-1-phenylbutan-2-yl]-5-amino-2-methylbenzamide
> <PUBCHEM_IUPAC_NAME>
N-[(2S,3R)-4-[(2-acetamido-1,3-benzothiazol-6-yl)sulfonyl-(2-methylpropyl)amino]-3-hydroxy-1-phenylbutan-2-yl]-5-amino-2-methylbenzamide
> <PUBCHEM_IUPAC_SYSTEMATIC_NAME>
N-[(2S,3R)-4-[(2-acetamido-1,3-benzothiazol-6-yl)sulfonyl-(2-methylpropyl)amino]-3-oxidanyl-1-phenyl-butan-2-yl]-5-azanyl-2-methyl-benzamide
> <PUBCHEM_IUPAC_TRADITIONAL_NAME>
N-[(1S,2R)-3-[(2-acetamido-1,3-benzothiazol-6-yl)sulfonyl-isobutyl-amino]-1-benzyl-2-hydroxy-propyl]-5-amino-2-methyl-benzamide
> <PUBCHEM_IUPAC_INCHI>
InChI=1S/C31H37N5O5S2/c1-19(2)17-36(43(40,41)24-12-13-26-29(16-24)42-31(35-26)33-21(4)37)18-28(38)27(14-22-8-6-5-7-9-22)34-30(39)25-15-23(32)11-10-20(25)3/h5-13,15-16,19,27-28,38H,14,17-18,32H2,1-4H3,(H,34,39)(H,33,35,37)/t27-,28+/m0/s1
> <PUBCHEM_IUPAC_INCHIKEY>
ILFBTCCLEUHDHT-WUFINQPMSA-N
> <PUBCHEM_XLOGP3_AA>
4.4
> <PUBCHEM_EXACT_MASS>
623.22361164
> <PUBCHEM_MOLECULAR_FORMULA>
C31H37N5O5S2
> <PUBCHEM_MOLECULAR_WEIGHT>
623.8
> <PUBCHEM_OPENEYE_CAN_SMILES>
CC1=C(C=C(C=C1)N)C(=O)NC(CC2=CC=CC=C2)C(CN(CC(C)C)S(=O)(=O)C3=CC4=C(C=C3)N=C(S4)NC(=O)C)O
> <PUBCHEM_OPENEYE_ISO_SMILES>
CC1=C(C=C(C=C1)N)C(=O)N[C@@H](CC2=CC=CC=C2)[C@@H](CN(CC(C)C)S(=O)(=O)C3=CC4=C(C=C3)N=C(S4)NC(=O)C)O
> <PUBCHEM_CACTVS_TPSA>
191
> <PUBCHEM_MONOISOTOPIC_WEIGHT>
623.22361164
> <PUBCHEM_TOTAL_CHARGE>
0
> <PUBCHEM_HEAVY_ATOM_COUNT>
43
> <PUBCHEM_ATOM_DEF_STEREO_COUNT>
2
> <PUBCHEM_ATOM_UDEF_STEREO_COUNT>
0
> <PUBCHEM_BOND_DEF_STEREO_COUNT>
0
> <PUBCHEM_BOND_UDEF_STEREO_COUNT>
0
> <PUBCHEM_ISOTOPIC_ATOM_COUNT>
0
> <PUBCHEM_COMPONENT_COUNT>
1
> <PUBCHEM_CACTVS_TAUTO_COUNT>
-1
> <PUBCHEM_COORDINATE_TYPE>
1
5
255
> <PUBCHEM_BONDANNOTATIONS>
10  31  8
10  37  8
19  24  8
19  25  8
2  29  8
2  37  8
20  26  8
20  27  8
24  29  8
25  30  8
26  32  8
27  33  8
28  34  8
28  36  8
29  31  8
13  3  6
30  31  8
32  35  8
33  35  8
34  38  8
36  39  8
38  41  8
39  41  8
15  9  6
$$$$
