509642
  -OEChem-10302200282D
 90 94  0     1  0  0  0  0  0999 V2000
    9.6448    0.1493    0.0000 S   0  0  0  0  0  0  0  0  0  0  0  0
   13.1891   -0.0460    0.0000 S   0  0  0  0  0  0  0  0  0  0  0  0
    3.4782    4.6438    0.0000 S   0  0  0  0  0  0  0  0  0  0  0  0
    7.0468    1.6493    0.0000 O   0  0  0  0  0  0  0  0  0  0  0  0
    9.1448   -0.7167    0.0000 O   0  0  0  0  0  0  0  0  0  0  0  0
   10.1449    1.0153    0.0000 O   0  0  0  0  0  0  0  0  0  0  0  0
    4.4487    2.1493    0.0000 O   0  0  0  0  0  0  0  0  0  0  0  0
    6.1808    2.1493    0.0000 O   0  0  0  0  0  0  0  0  0  0  0  0
    8.7788    0.6493    0.0000 N   0  0  3  0  0  0  0  0  0  0  0  0
   16.7728   -2.5828    0.0000 N   0  0  0  0  0  0  0  0  0  0  0  0
    5.3147    0.6493    0.0000 N   0  0  0  0  0  0  0  0  0  0  0  0
   17.7728   -4.3148    0.0000 N   0  0  0  0  0  0  0  0  0  0  0  0
   14.7728   -0.8507    0.0000 N   0  0  0  0  0  0  0  0  0  0  0  0
   13.1891   -1.6554    0.0000 N   0  0  0  0  0  0  0  0  0  0  0  0
    2.0000    3.9857    0.0000 N   0  0  0  0  0  0  0  0  0  0  0  0
    7.0468    0.6493    0.0000 C   0  0  2  0  0  0  0  0  0  0  0  0
    7.9128    0.1493    0.0000 C   0  0  0  0  0  0  0  0  0  0  0  0
    6.1808    0.1493    0.0000 C   0  0  2  0  0  0  0  0  0  0  0  0
    8.7788    1.6493    0.0000 C   0  0  0  0  0  0  0  0  0  0  0  0
    9.6448    2.1493    0.0000 C   0  0  0  0  0  0  0  0  0  0  0  0
    6.1808   -0.8507    0.0000 C   0  0  0  0  0  0  0  0  0  0  0  0
   16.2728   -3.4488    0.0000 C   0  0  0  0  0  0  0  0  0  0  0  0
   17.7728   -2.5828    0.0000 C   0  0  0  0  0  0  0  0  0  0  0  0
   10.5109   -0.3507    0.0000 C   0  0  0  0  0  0  0  0  0  0  0  0
   16.2728   -1.7167    0.0000 C   0  0  0  0  0  0  0  0  0  0  0  0
   16.7728   -4.3148    0.0000 C   0  0  0  0  0  0  0  0  0  0  0  0
   18.2728   -3.4488    0.0000 C   0  0  0  0  0  0  0  0  0  0  0  0
    9.6448    3.1493    0.0000 C   0  0  0  0  0  0  0  0  0  0  0  0
   10.5109    1.6493    0.0000 C   0  0  0  0  0  0  0  0  0  0  0  0
    5.3147   -1.3507    0.0000 C   0  0  0  0  0  0  0  0  0  0  0  0
   15.2728   -1.7167    0.0000 C   0  0  0  0  0  0  0  0  0  0  0  0
   11.3769    0.1493    0.0000 C   0  0  0  0  0  0  0  0  0  0  0  0
   10.5109   -1.3507    0.0000 C   0  0  0  0  0  0  0  0  0  0  0  0
   12.2429   -0.3507    0.0000 C   0  0  0  0  0  0  0  0  0  0  0  0
   12.2429   -1.3507    0.0000 C   0  0  0  0  0  0  0  0  0  0  0  0
    5.3147    1.6493    0.0000 C   0  0  0  0  0  0  0  0  0  0  0  0
    5.3147   -2.3507    0.0000 C   0  0  0  0  0  0  0  0  0  0  0  0
    4.4487   -0.8507    0.0000 C   0  0  0  0  0  0  0  0  0  0  0  0
   11.3769   -1.8507    0.0000 C   0  0  0  0  0  0  0  0  0  0  0  0
   13.7728   -0.8507    0.0000 C   0  0  0  0  0  0  0  0  0  0  0  0
    4.4487   -2.8507    0.0000 C   0  0  0  0  0  0  0  0  0  0  0  0
    3.5827   -1.3507    0.0000 C   0  0  0  0  0  0  0  0  0  0  0  0
    3.5827   -2.3507    0.0000 C   0  0  0  0  0  0  0  0  0  0  0  0
    4.4487    3.1493    0.0000 C   0  0  0  0  0  0  0  0  0  0  0  0
    3.5827    3.6493    0.0000 C   0  0  0  0  0  0  0  0  0  0  0  0
    2.6691    3.2426    0.0000 C   0  0  0  0  0  0  0  0  0  0  0  0
    2.5000    4.8517    0.0000 C   0  0  0  0  0  0  0  0  0  0  0  0
    7.5837    0.9593    0.0000 H   0  0  0  0  0  0  0  0  0  0  0  0
    7.5143   -0.3256    0.0000 H   0  0  0  0  0  0  0  0  0  0  0  0
    8.3113   -0.3256    0.0000 H   0  0  0  0  0  0  0  0  0  0  0  0
    6.1808    0.7693    0.0000 H   0  0  0  0  0  0  0  0  0  0  0  0
    8.5668    2.2319    0.0000 H   0  0  0  0  0  0  0  0  0  0  0  0
    8.1682    1.5416    0.0000 H   0  0  0  0  0  0  0  0  0  0  0  0
    9.1079    2.4593    0.0000 H   0  0  0  0  0  0  0  0  0  0  0  0
    6.3928   -1.4333    0.0000 H   0  0  0  0  0  0  0  0  0  0  0  0
    6.7913   -0.7430    0.0000 H   0  0  0  0  0  0  0  0  0  0  0  0
   15.7978   -3.0502    0.0000 H   0  0  0  0  0  0  0  0  0  0  0  0
   15.7978   -3.8473    0.0000 H   0  0  0  0  0  0  0  0  0  0  0  0
   18.3554   -2.3707    0.0000 H   0  0  0  0  0  0  0  0  0  0  0  0
   17.6651   -1.9722    0.0000 H   0  0  0  0  0  0  0  0  0  0  0  0
    4.7778    0.3393    0.0000 H   0  0  0  0  0  0  0  0  0  0  0  0
   16.8554   -1.5047    0.0000 H   0  0  0  0  0  0  0  0  0  0  0  0
   16.1651   -1.1061    0.0000 H   0  0  0  0  0  0  0  0  0  0  0  0
   16.1901   -4.5268    0.0000 H   0  0  0  0  0  0  0  0  0  0  0  0
   16.8804   -4.9254    0.0000 H   0  0  0  0  0  0  0  0  0  0  0  0
   18.7477   -3.8473    0.0000 H   0  0  0  0  0  0  0  0  0  0  0  0
   18.7477   -3.0502    0.0000 H   0  0  0  0  0  0  0  0  0  0  0  0
   10.2649    3.1493    0.0000 H   0  0  0  0  0  0  0  0  0  0  0  0
    9.6448    3.7693    0.0000 H   0  0  0  0  0  0  0  0  0  0  0  0
    9.0248    3.1493    0.0000 H   0  0  0  0  0  0  0  0  0  0  0  0
   10.2009    1.1124    0.0000 H   0  0  0  0  0  0  0  0  0  0  0  0
   11.0478    1.3393    0.0000 H   0  0  0  0  0  0  0  0  0  0  0  0
   10.8209    2.1862    0.0000 H   0  0  0  0  0  0  0  0  0  0  0  0
    7.5837    1.9593    0.0000 H   0  0  0  0  0  0  0  0  0  0  0  0
   18.0828   -4.8517    0.0000 H   0  0  0  0  0  0  0  0  0  0  0  0
   14.6902   -1.9288    0.0000 H   0  0  0  0  0  0  0  0  0  0  0  0
   15.3804   -2.3273    0.0000 H   0  0  0  0  0  0  0  0  0  0  0  0
   11.3769    0.7693    0.0000 H   0  0  0  0  0  0  0  0  0  0  0  0
    9.9739   -1.6607    0.0000 H   0  0  0  0  0  0  0  0  0  0  0  0
   15.0828   -0.3138    0.0000 H   0  0  0  0  0  0  0  0  0  0  0  0
    5.8517   -2.6607    0.0000 H   0  0  0  0  0  0  0  0  0  0  0  0
    4.4487   -0.2307    0.0000 H   0  0  0  0  0  0  0  0  0  0  0  0
   11.3769   -2.4707    0.0000 H   0  0  0  0  0  0  0  0  0  0  0  0
    4.4487   -3.4707    0.0000 H   0  0  0  0  0  0  0  0  0  0  0  0
    3.0457   -1.0407    0.0000 H   0  0  0  0  0  0  0  0  0  0  0  0
    3.0457   -2.6607    0.0000 H   0  0  0  0  0  0  0  0  0  0  0  0
    5.0593    3.0416    0.0000 H   0  0  0  0  0  0  0  0  0  0  0  0
    4.6608    3.7319    0.0000 H   0  0  0  0  0  0  0  0  0  0  0  0
    2.5402    2.6361    0.0000 H   0  0  0  0  0  0  0  0  0  0  0  0
    2.2478    5.4181    0.0000 H   0  0  0  0  0  0  0  0  0  0  0  0
  1  5  2  0  0  0  0
  1  6  2  0  0  0  0
  1  9  1  0  0  0  0
  1 24  1  0  0  0  0
  2 34  1  0  0  0  0
  2 40  1  0  0  0  0
  3 45  1  0  0  0  0
  3 47  1  0  0  0  0
 16  4  1  6  0  0  0
  4 74  1  0  0  0  0
  7 36  1  0  0  0  0
  7 44  1  0  0  0  0
  8 36  2  0  0  0  0
  9 17  1  0  0  0  0
  9 19  1  0  0  0  0
 10 22  1  0  0  0  0
 10 23  1  0  0  0  0
 10 25  1  0  0  0  0
 18 11  1  6  0  0  0
 11 36  1  0  0  0  0
 11 61  1  0  0  0  0
 12 26  1  0  0  0  0
 12 27  1  0  0  0  0
 12 75  1  0  0  0  0
 13 31  1  0  0  0  0
 13 40  1  0  0  0  0
 13 80  1  0  0  0  0
 14 35  1  0  0  0  0
 14 40  2  0  0  0  0
 15 46  1  0  0  0  0
 15 47  2  0  0  0  0
 16 17  1  0  0  0  0
 16 18  1  0  0  0  0
 16 48  1  0  0  0  0
 17 49  1  0  0  0  0
 17 50  1  0  0  0  0
 18 21  1  0  0  0  0
 18 51  1  0  0  0  0
 19 20  1  0  0  0  0
 19 52  1  0  0  0  0
 19 53  1  0  0  0  0
 20 28  1  0  0  0  0
 20 29  1  0  0  0  0
 20 54  1  0  0  0  0
 21 30  1  0  0  0  0
 21 55  1  0  0  0  0
 21 56  1  0  0  0  0
 22 26  1  0  0  0  0
 22 57  1  0  0  0  0
 22 58  1  0  0  0  0
 23 27  1  0  0  0  0
 23 59  1  0  0  0  0
 23 60  1  0  0  0  0
 24 32  2  0  0  0  0
 24 33  1  0  0  0  0
 25 31  1  0  0  0  0
 25 62  1  0  0  0  0
 25 63  1  0  0  0  0
 26 64  1  0  0  0  0
 26 65  1  0  0  0  0
 27 66  1  0  0  0  0
 27 67  1  0  0  0  0
 28 68  1  0  0  0  0
 28 69  1  0  0  0  0
 28 70  1  0  0  0  0
 29 71  1  0  0  0  0
 29 72  1  0  0  0  0
 29 73  1  0  0  0  0
 30 37  2  0  0  0  0
 30 38  1  0  0  0  0
 31 76  1  0  0  0  0
 31 77  1  0  0  0  0
 32 34  1  0  0  0  0
 32 78  1  0  0  0  0
 33 39  2  0  0  0  0
 33 79  1  0  0  0  0
 34 35  2  0  0  0  0
 35 39  1  0  0  0  0
 37 41  1  0  0  0  0
 37 81  1  0  0  0  0
 38 42  2  0  0  0  0
 38 82  1  0  0  0  0
 39 83  1  0  0  0  0
 41 43  2  0  0  0  0
 41 84  1  0  0  0  0
 42 43  1  0  0  0  0
 42 85  1  0  0  0  0
 43 86  1  0  0  0  0
 44 45  1  0  0  0  0
 44 87  1  0  0  0  0
 44 88  1  0  0  0  0
 45 46  2  0  0  0  0
 46 89  1  0  0  0  0
 47 90  1  0  0  0  0
M  END
> <PUBCHEM_COMPOUND_CID>
509642
> <PUBCHEM_COMPOUND_CANONICALIZED>
1
> <PUBCHEM_CACTVS_COMPLEXITY>
1060
> <PUBCHEM_CACTVS_HBOND_ACCEPTOR>
13
> <PUBCHEM_CACTVS_HBOND_DONOR>
4
> <PUBCHEM_CACTVS_ROTATABLE_BOND>
17
> <PUBCHEM_CACTVS_SUBSKEYS>
AAADcfB/uABgAAAAAAAAAAAAAAAAAWLAAAA8YIAAAAAAAFgB/AAAHgQQSAAADTzh3ga/2bPIFgqsAzRnfHDD8LlxCjlJ2Lw4bJmKdKLg+ZmcYAhulgLY6CeQwKAOAAQAAEAAAQAACAAAgAACAAAAAAAAAA==
> <PUBCHEM_IUPAC_OPENEYE_NAME>
thiazol-5-ylmethyl N-[(1S,2R)-1-benzyl-2-hydroxy-3-[isobutyl-[[2-(2-piperazin-1-ylethylamino)-1,3-benzothiazol-6-yl]sulfonyl]amino]propyl]carbamate
> <PUBCHEM_IUPAC_CAS_NAME>
N-[(2S,3R)-3-hydroxy-4-[2-methylpropyl-[[2-[2-(1-piperazinyl)ethylamino]-1,3-benzothiazol-6-yl]sulfonyl]amino]-1-phenylbutan-2-yl]carbamic acid 5-thiazolylmethyl ester
> <PUBCHEM_IUPAC_NAME_MARKUP>
1,3-thiazol-5-ylmethyl <I>N</I>-[(2<I>S</I>,3<I>R</I>)-3-hydroxy-4-[2-methylpropyl-[[2-(2-piperazin-1-ylethylamino)-1,3-benzothiazol-6-yl]sulfonyl]amino]-1-phenylbutan-2-yl]carbamate
> <PUBCHEM_IUPAC_NAME>
1,3-thiazol-5-ylmethyl N-[(2S,3R)-3-hydroxy-4-[2-methylpropyl-[[2-(2-piperazin-1-ylethylamino)-1,3-benzothiazol-6-yl]sulfonyl]amino]-1-phenylbutan-2-yl]carbamate
> <PUBCHEM_IUPAC_SYSTEMATIC_NAME>
1,3-thiazol-5-ylmethyl N-[(2S,3R)-4-[2-methylpropyl-[[2-(2-piperazin-1-ylethylamino)-1,3-benzothiazol-6-yl]sulfonyl]amino]-3-oxidanyl-1-phenyl-butan-2-yl]carbamate
> <PUBCHEM_IUPAC_TRADITIONAL_NAME>
N-[(1S,2R)-1-benzyl-2-hydroxy-3-[isobutyl-[[2-(2-piperazinoethylamino)-1,3-benzothiazol-6-yl]sulfonyl]amino]propyl]carbamic acid thiazol-5-ylmethyl ester
> <PUBCHEM_IUPAC_INCHI>
InChI=1S/C32H43N7O5S3/c1-23(2)19-39(20-29(40)28(16-24-6-4-3-5-7-24)37-32(41)44-21-25-18-34-22-45-25)47(42,43)26-8-9-27-30(17-26)46-31(36-27)35-12-15-38-13-10-33-11-14-38/h3-9,17-18,22-23,28-29,33,40H,10-16,19-21H2,1-2H3,(H,35,36)(H,37,41)/t28-,29+/m0/s1
> <PUBCHEM_IUPAC_INCHIKEY>
NMIHIZKCAXBJCT-URLMMPGGSA-N
> <PUBCHEM_XLOGP3_AA>
4.2
> <PUBCHEM_EXACT_MASS>
701.24878102
> <PUBCHEM_MOLECULAR_FORMULA>
C32H43N7O5S3
> <PUBCHEM_MOLECULAR_WEIGHT>
701.9
> <PUBCHEM_OPENEYE_CAN_SMILES>
CC(C)CN(CC(C(CC1=CC=CC=C1)NC(=O)OCC2=CN=CS2)O)S(=O)(=O)C3=CC4=C(C=C3)N=C(S4)NCCN5CCNCC5
> <PUBCHEM_OPENEYE_ISO_SMILES>
CC(C)CN(C[C@H]([C@H](CC1=CC=CC=C1)NC(=O)OCC2=CN=CS2)O)S(=O)(=O)C3=CC4=C(C=C3)N=C(S4)NCCN5CCNCC5
> <PUBCHEM_CACTVS_TPSA>
214
> <PUBCHEM_MONOISOTOPIC_WEIGHT>
701.24878102
> <PUBCHEM_TOTAL_CHARGE>
0
> <PUBCHEM_HEAVY_ATOM_COUNT>
47
> <PUBCHEM_ATOM_DEF_STEREO_COUNT>
2
> <PUBCHEM_ATOM_UDEF_STEREO_COUNT>
0
> <PUBCHEM_BOND_DEF_STEREO_COUNT>
0
> <PUBCHEM_BOND_UDEF_STEREO_COUNT>
0
> <PUBCHEM_ISOTOPIC_ATOM_COUNT>
0
> <PUBCHEM_COMPONENT_COUNT>
1
> <PUBCHEM_CACTVS_TAUTO_COUNT>
-1
> <PUBCHEM_COORDINATE_TYPE>
1
5
255
> <PUBCHEM_BONDANNOTATIONS>
18  11  6
14  35  8
14  40  8
15  46  8
15  47  8
2  34  8
2  40  8
24  32  8
24  33  8
3  45  8
3  47  8
30  37  8
30  38  8
32  34  8
33  39  8
34  35  8
35  39  8
37  41  8
38  42  8
16  4  6
41  43  8
42  43  8
45  46  8
$$$$
