509672
  -OEChem-10302200282D
 97102  0     1  0  0  0  0  0999 V2000
    9.6472   -0.4819    0.0000 S   0  0  0  0  0  0  0  0  0  0  0  0
   13.1915   -0.6771    0.0000 S   0  0  0  0  0  0  0  0  0  0  0  0
    4.9511    4.0480    0.0000 O   0  0  0  0  0  0  0  0  0  0  0  0
    3.2892    4.7966    0.0000 O   0  0  0  0  0  0  0  0  0  0  0  0
    4.4511    1.5182    0.0000 O   0  0  0  0  0  0  0  0  0  0  0  0
    7.0492    1.0182    0.0000 O   0  0  0  0  0  0  0  0  0  0  0  0
    6.1831    1.5182    0.0000 O   0  0  0  0  0  0  0  0  0  0  0  0
    9.1472   -1.3479    0.0000 O   0  0  0  0  0  0  0  0  0  0  0  0
   10.1472    0.3842    0.0000 O   0  0  0  0  0  0  0  0  0  0  0  0
    2.6678    2.8955    0.0000 N   0  0  0  0  0  0  0  0  0  0  0  0
   16.7751   -3.2139    0.0000 N   0  0  0  0  0  0  0  0  0  0  0  0
    8.7812    0.0181    0.0000 N   0  0  3  0  0  0  0  0  0  0  0  0
    5.3171    0.0181    0.0000 N   0  0  0  0  0  0  0  0  0  0  0  0
   14.7751   -1.4818    0.0000 N   0  0  0  0  0  0  0  0  0  0  0  0
   13.1915   -2.2866    0.0000 N   0  0  0  0  0  0  0  0  0  0  0  0
    3.6464    3.1018    0.0000 C   0  0  3  0  0  0  0  0  0  0  0  0
    4.4511    2.5182    0.0000 C   0  0  3  0  0  0  0  0  0  0  0  0
    3.9570    4.0523    0.0000 C   0  0  3  0  0  0  0  0  0  0  0  0
    5.2558    3.1018    0.0000 C   0  0  0  0  0  0  0  0  0  0  0  0
    2.0000    3.6398    0.0000 C   0  0  0  0  0  0  0  0  0  0  0  0
    2.3107    4.5904    0.0000 C   0  0  0  0  0  0  0  0  0  0  0  0
    6.1831   -0.4819    0.0000 C   0  0  2  0  0  0  0  0  0  0  0  0
    7.0492    0.0181    0.0000 C   0  0  1  0  0  0  0  0  0  0  0  0
    7.9152   -0.4819    0.0000 C   0  0  0  0  0  0  0  0  0  0  0  0
   16.3684   -4.1274    0.0000 C   0  0  0  0  0  0  0  0  0  0  0  0
   17.7697   -3.3184    0.0000 C   0  0  0  0  0  0  0  0  0  0  0  0
   17.1115   -4.7966    0.0000 C   0  0  0  0  0  0  0  0  0  0  0  0
   17.9776   -4.2966    0.0000 C   0  0  0  0  0  0  0  0  0  0  0  0
    6.1831   -1.4818    0.0000 C   0  0  0  0  0  0  0  0  0  0  0  0
    5.3171    1.0182    0.0000 C   0  0  0  0  0  0  0  0  0  0  0  0
    8.7812    1.0182    0.0000 C   0  0  0  0  0  0  0  0  0  0  0  0
   16.2751   -2.3479    0.0000 C   0  0  0  0  0  0  0  0  0  0  0  0
    9.6472    1.5182    0.0000 C   0  0  0  0  0  0  0  0  0  0  0  0
    5.3171   -1.9818    0.0000 C   0  0  0  0  0  0  0  0  0  0  0  0
   15.2751   -2.3479    0.0000 C   0  0  0  0  0  0  0  0  0  0  0  0
   10.5133   -0.9819    0.0000 C   0  0  0  0  0  0  0  0  0  0  0  0
    9.6472    2.5182    0.0000 C   0  0  0  0  0  0  0  0  0  0  0  0
   10.5133    1.0182    0.0000 C   0  0  0  0  0  0  0  0  0  0  0  0
   11.3793   -0.4819    0.0000 C   0  0  0  0  0  0  0  0  0  0  0  0
   10.5133   -1.9818    0.0000 C   0  0  0  0  0  0  0  0  0  0  0  0
    5.3171   -2.9818    0.0000 C   0  0  0  0  0  0  0  0  0  0  0  0
    4.4511   -1.4818    0.0000 C   0  0  0  0  0  0  0  0  0  0  0  0
   12.2453   -0.9819    0.0000 C   0  0  0  0  0  0  0  0  0  0  0  0
   13.7751   -1.4818    0.0000 C   0  0  0  0  0  0  0  0  0  0  0  0
   12.2453   -1.9818    0.0000 C   0  0  0  0  0  0  0  0  0  0  0  0
   11.3793   -2.4818    0.0000 C   0  0  0  0  0  0  0  0  0  0  0  0
    4.4511   -3.4818    0.0000 C   0  0  0  0  0  0  0  0  0  0  0  0
    3.5851   -1.9818    0.0000 C   0  0  0  0  0  0  0  0  0  0  0  0
    3.5851   -2.9818    0.0000 C   0  0  0  0  0  0  0  0  0  0  0  0
    3.5172    2.4954    0.0000 H   0  0  0  0  0  0  0  0  0  0  0  0
    5.0034    2.2364    0.0000 H   0  0  0  0  0  0  0  0  0  0  0  0
    4.2109    4.6179    0.0000 H   0  0  0  0  0  0  0  0  0  0  0  0
    5.5650    2.5644    0.0000 H   0  0  0  0  0  0  0  0  0  0  0  0
    5.8227    3.3528    0.0000 H   0  0  0  0  0  0  0  0  0  0  0  0
    2.4752    2.3062    0.0000 H   0  0  0  0  0  0  0  0  0  0  0  0
    1.4531    3.9319    0.0000 H   0  0  0  0  0  0  0  0  0  0  0  0
    1.6174    3.1519    0.0000 H   0  0  0  0  0  0  0  0  0  0  0  0
    2.2901    5.2100    0.0000 H   0  0  0  0  0  0  0  0  0  0  0  0
    1.6968    4.6777    0.0000 H   0  0  0  0  0  0  0  0  0  0  0  0
    6.1831    0.1381    0.0000 H   0  0  0  0  0  0  0  0  0  0  0  0
    7.5861    0.3281    0.0000 H   0  0  0  0  0  0  0  0  0  0  0  0
    7.5167   -0.9568    0.0000 H   0  0  0  0  0  0  0  0  0  0  0  0
    8.3137   -0.9568    0.0000 H   0  0  0  0  0  0  0  0  0  0  0  0
   15.8315   -3.8174    0.0000 H   0  0  0  0  0  0  0  0  0  0  0  0
   16.0040   -4.6290    0.0000 H   0  0  0  0  0  0  0  0  0  0  0  0
   18.3863   -3.2536    0.0000 H   0  0  0  0  0  0  0  0  0  0  0  0
   17.7697   -2.6984    0.0000 H   0  0  0  0  0  0  0  0  0  0  0  0
   16.6508   -5.2114    0.0000 H   0  0  0  0  0  0  0  0  0  0  0  0
   17.4760   -5.2982    0.0000 H   0  0  0  0  0  0  0  0  0  0  0  0
   18.2297   -4.8630    0.0000 H   0  0  0  0  0  0  0  0  0  0  0  0
   18.5672   -4.1050    0.0000 H   0  0  0  0  0  0  0  0  0  0  0  0
    6.3952   -2.0645    0.0000 H   0  0  0  0  0  0  0  0  0  0  0  0
    6.7937   -1.3742    0.0000 H   0  0  0  0  0  0  0  0  0  0  0  0
    4.7802   -0.2919    0.0000 H   0  0  0  0  0  0  0  0  0  0  0  0
    8.5692    1.6008    0.0000 H   0  0  0  0  0  0  0  0  0  0  0  0
    8.1706    0.9105    0.0000 H   0  0  0  0  0  0  0  0  0  0  0  0
   16.8577   -2.1358    0.0000 H   0  0  0  0  0  0  0  0  0  0  0  0
   16.1675   -1.7373    0.0000 H   0  0  0  0  0  0  0  0  0  0  0  0
    9.1103    1.8282    0.0000 H   0  0  0  0  0  0  0  0  0  0  0  0
   14.6925   -2.5599    0.0000 H   0  0  0  0  0  0  0  0  0  0  0  0
   15.3828   -2.9585    0.0000 H   0  0  0  0  0  0  0  0  0  0  0  0
    7.5861    1.3282    0.0000 H   0  0  0  0  0  0  0  0  0  0  0  0
   10.2672    2.5182    0.0000 H   0  0  0  0  0  0  0  0  0  0  0  0
    9.6472    3.1382    0.0000 H   0  0  0  0  0  0  0  0  0  0  0  0
    9.0272    2.5182    0.0000 H   0  0  0  0  0  0  0  0  0  0  0  0
   10.2033    0.4812    0.0000 H   0  0  0  0  0  0  0  0  0  0  0  0
   11.0502    0.7081    0.0000 H   0  0  0  0  0  0  0  0  0  0  0  0
   10.8233    1.5551    0.0000 H   0  0  0  0  0  0  0  0  0  0  0  0
   15.0851   -0.9449    0.0000 H   0  0  0  0  0  0  0  0  0  0  0  0
   11.3793    0.1381    0.0000 H   0  0  0  0  0  0  0  0  0  0  0  0
    9.9763   -2.2918    0.0000 H   0  0  0  0  0  0  0  0  0  0  0  0
    5.8540   -3.2918    0.0000 H   0  0  0  0  0  0  0  0  0  0  0  0
    4.4511   -0.8619    0.0000 H   0  0  0  0  0  0  0  0  0  0  0  0
   11.3793   -3.1019    0.0000 H   0  0  0  0  0  0  0  0  0  0  0  0
    4.4511   -4.1018    0.0000 H   0  0  0  0  0  0  0  0  0  0  0  0
    3.0481   -1.6718    0.0000 H   0  0  0  0  0  0  0  0  0  0  0  0
    3.0481   -3.2918    0.0000 H   0  0  0  0  0  0  0  0  0  0  0  0
  1  8  2  0  0  0  0
  1  9  2  0  0  0  0
  1 12  1  0  0  0  0
  1 36  1  0  0  0  0
  2 43  1  0  0  0  0
  2 44  1  0  0  0  0
  3 18  1  0  0  0  0
  3 19  1  0  0  0  0
  4 18  1  0  0  0  0
  4 21  1  0  0  0  0
  5 17  1  0  0  0  0
  5 30  1  0  0  0  0
 23  6  1  6  0  0  0
  6 82  1  0  0  0  0
  7 30  2  0  0  0  0
 10 16  1  0  0  0  0
 10 20  1  0  0  0  0
 10 55  1  0  0  0  0
 11 25  1  0  0  0  0
 11 26  1  0  0  0  0
 11 32  1  0  0  0  0
 12 24  1  0  0  0  0
 12 31  1  0  0  0  0
 22 13  1  6  0  0  0
 13 30  1  0  0  0  0
 13 74  1  0  0  0  0
 14 35  1  0  0  0  0
 14 44  1  0  0  0  0
 14 89  1  0  0  0  0
 15 44  2  0  0  0  0
 15 45  1  0  0  0  0
 16 17  1  0  0  0  0
 16 18  1  0  0  0  0
 16 50  1  0  0  0  0
 17 19  1  0  0  0  0
 17 51  1  0  0  0  0
 18 52  1  0  0  0  0
 19 53  1  0  0  0  0
 19 54  1  0  0  0  0
 20 21  1  0  0  0  0
 20 56  1  0  0  0  0
 20 57  1  0  0  0  0
 21 58  1  0  0  0  0
 21 59  1  0  0  0  0
 22 23  1  0  0  0  0
 22 29  1  0  0  0  0
 22 60  1  0  0  0  0
 23 24  1  0  0  0  0
 23 61  1  0  0  0  0
 24 62  1  0  0  0  0
 24 63  1  0  0  0  0
 25 27  1  0  0  0  0
 25 64  1  0  0  0  0
 25 65  1  0  0  0  0
 26 28  1  0  0  0  0
 26 66  1  0  0  0  0
 26 67  1  0  0  0  0
 27 28  1  0  0  0  0
 27 68  1  0  0  0  0
 27 69  1  0  0  0  0
 28 70  1  0  0  0  0
 28 71  1  0  0  0  0
 29 34  1  0  0  0  0
 29 72  1  0  0  0  0
 29 73  1  0  0  0  0
 31 33  1  0  0  0  0
 31 75  1  0  0  0  0
 31 76  1  0  0  0  0
 32 35  1  0  0  0  0
 32 77  1  0  0  0  0
 32 78  1  0  0  0  0
 33 37  1  0  0  0  0
 33 38  1  0  0  0  0
 33 79  1  0  0  0  0
 34 41  2  0  0  0  0
 34 42  1  0  0  0  0
 35 80  1  0  0  0  0
 35 81  1  0  0  0  0
 36 39  2  0  0  0  0
 36 40  1  0  0  0  0
 37 83  1  0  0  0  0
 37 84  1  0  0  0  0
 37 85  1  0  0  0  0
 38 86  1  0  0  0  0
 38 87  1  0  0  0  0
 38 88  1  0  0  0  0
 39 43  1  0  0  0  0
 39 90  1  0  0  0  0
 40 46  2  0  0  0  0
 40 91  1  0  0  0  0
 41 47  1  0  0  0  0
 41 92  1  0  0  0  0
 42 48  2  0  0  0  0
 42 93  1  0  0  0  0
 43 45  2  0  0  0  0
 45 46  1  0  0  0  0
 46 94  1  0  0  0  0
 47 49  2  0  0  0  0
 47 95  1  0  0  0  0
 48 49  1  0  0  0  0
 48 96  1  0  0  0  0
 49 97  1  0  0  0  0
M  END
> <PUBCHEM_COMPOUND_CID>
509672
> <PUBCHEM_COMPOUND_CANONICALIZED>
1
> <PUBCHEM_CACTVS_COMPLEXITY>
1150
> <PUBCHEM_CACTVS_HBOND_ACCEPTOR>
13
> <PUBCHEM_CACTVS_HBOND_DONOR>
4
> <PUBCHEM_CACTVS_ROTATABLE_BOND>
16
> <PUBCHEM_CACTVS_SUBSKEYS>
AAADcfB/uABgAAAAAAAAAAAAAAAAAWLEgAA8YIAAAAAAAFgB9AAAHgQQSAAADTzx3gcz2bPIFgqsAyRifHDD8LlhCjlJmLw4ZJmbcKLg2ZG/YAhvlgLeyCfQwKAOAAQAAEAAAQAACAAAgAACAAAAAAAAAA==
> <PUBCHEM_IUPAC_OPENEYE_NAME>
2,3,4a,6,7,7a-hexahydro-1H-furo[2,3-b][1,4]oxazin-7-yl N-[(1S,2R)-1-benzyl-2-hydroxy-3-[isobutyl-[[2-(2-pyrrolidin-1-ylethylamino)-1,3-benzothiazol-6-yl]sulfonyl]amino]propyl]carbamate
> <PUBCHEM_IUPAC_CAS_NAME>
N-[(2S,3R)-3-hydroxy-4-[2-methylpropyl-[[2-[2-(1-pyrrolidinyl)ethylamino]-1,3-benzothiazol-6-yl]sulfonyl]amino]-1-phenylbutan-2-yl]carbamic acid 2,3,4a,6,7,7a-hexahydro-1H-furo[2,3-b][1,4]oxazin-7-yl ester
> <PUBCHEM_IUPAC_NAME_MARKUP>
2,3,4<I>a</I>,6,7,7<I>a</I>-hexahydro-1<I>H</I>-furo[2,3-b][1,4]oxazin-7-yl <I>N</I>-[(2<I>S</I>,3<I>R</I>)-3-hydroxy-4-[2-methylpropyl-[[2-(2-pyrrolidin-1-ylethylamino)-1,3-benzothiazol-6-yl]sulfonyl]amino]-1-phenylbutan-2-yl]carbamate
> <PUBCHEM_IUPAC_NAME>
2,3,4a,6,7,7a-hexahydro-1H-furo[2,3-b][1,4]oxazin-7-yl N-[(2S,3R)-3-hydroxy-4-[2-methylpropyl-[[2-(2-pyrrolidin-1-ylethylamino)-1,3-benzothiazol-6-yl]sulfonyl]amino]-1-phenylbutan-2-yl]carbamate
> <PUBCHEM_IUPAC_SYSTEMATIC_NAME>
2,3,4a,6,7,7a-hexahydro-1H-furo[2,3-b][1,4]oxazin-7-yl N-[(2S,3R)-4-[2-methylpropyl-[[2-(2-pyrrolidin-1-ylethylamino)-1,3-benzothiazol-6-yl]sulfonyl]amino]-3-oxidanyl-1-phenyl-butan-2-yl]carbamate
> <PUBCHEM_IUPAC_TRADITIONAL_NAME>
N-[(1S,2R)-1-benzyl-2-hydroxy-3-[isobutyl-[[2-(2-pyrrolidinoethylamino)-1,3-benzothiazol-6-yl]sulfonyl]amino]propyl]carbamic acid 2,3,4a,6,7,7a-hexahydro-1H-furo[2,3-b][1,4]oxazin-7-yl ester
> <PUBCHEM_IUPAC_INCHI>
InChI=1S/C34H48N6O7S2/c1-23(2)20-40(49(43,44)25-10-11-26-30(19-25)48-33(37-26)36-12-16-39-14-6-7-15-39)21-28(41)27(18-24-8-4-3-5-9-24)38-34(42)47-29-22-46-32-31(29)35-13-17-45-32/h3-5,8-11,19,23,27-29,31-32,35,41H,6-7,12-18,20-22H2,1-2H3,(H,36,37)(H,38,42)/t27-,28+,29?,31?,32?/m0/s1
> <PUBCHEM_IUPAC_INCHIKEY>
ZKQHCEXCYXYJLM-TZFSCBKJSA-N
> <PUBCHEM_XLOGP3_AA>
3.9
> <PUBCHEM_EXACT_MASS>
716.30259024
> <PUBCHEM_MOLECULAR_FORMULA>
C34H48N6O7S2
> <PUBCHEM_MOLECULAR_WEIGHT>
716.9
> <PUBCHEM_OPENEYE_CAN_SMILES>
CC(C)CN(CC(C(CC1=CC=CC=C1)NC(=O)OC2COC3C2NCCO3)O)S(=O)(=O)C4=CC5=C(C=C4)N=C(S5)NCCN6CCCC6
> <PUBCHEM_OPENEYE_ISO_SMILES>
CC(C)CN(C[C@H]([C@H](CC1=CC=CC=C1)NC(=O)OC2COC3C2NCCO3)O)S(=O)(=O)C4=CC5=C(C=C4)N=C(S5)NCCN6CCCC6
> <PUBCHEM_CACTVS_TPSA>
191
> <PUBCHEM_MONOISOTOPIC_WEIGHT>
716.30259024
> <PUBCHEM_TOTAL_CHARGE>
0
> <PUBCHEM_HEAVY_ATOM_COUNT>
49
> <PUBCHEM_ATOM_DEF_STEREO_COUNT>
2
> <PUBCHEM_ATOM_UDEF_STEREO_COUNT>
3
> <PUBCHEM_BOND_DEF_STEREO_COUNT>
0
> <PUBCHEM_BOND_UDEF_STEREO_COUNT>
0
> <PUBCHEM_ISOTOPIC_ATOM_COUNT>
0
> <PUBCHEM_COMPONENT_COUNT>
1
> <PUBCHEM_CACTVS_TAUTO_COUNT>
-1
> <PUBCHEM_COORDINATE_TYPE>
1
5
255
> <PUBCHEM_BONDANNOTATIONS>
16  10  3
22  13  6
15  44  8
15  45  8
2  43  8
2  44  8
34  41  8
34  42  8
36  39  8
36  40  8
39  43  8
18  4  3
40  46  8
41  47  8
42  48  8
43  45  8
45  46  8
47  49  8
48  49  8
17  5  3
23  6  6
$$$$
