509639
  -OEChem-10302200282D
 92 95  0     1  0  0  0  0  0999 V2000
    8.9282   -0.6060    0.0000 S   0  0  0  0  0  0  0  0  0  0  0  0
   12.4725   -0.8012    0.0000 S   0  0  0  0  0  0  0  0  0  0  0  0
    6.3301    0.8940    0.0000 O   0  0  0  0  0  0  0  0  0  0  0  0
    8.4282   -1.4720    0.0000 O   0  0  0  0  0  0  0  0  0  0  0  0
    9.4282    0.2601    0.0000 O   0  0  0  0  0  0  0  0  0  0  0  0
    5.4641    1.3940    0.0000 O   0  0  0  0  0  0  0  0  0  0  0  0
    8.0622   -0.1060    0.0000 N   0  0  3  0  0  0  0  0  0  0  0  0
    4.5981   -0.1060    0.0000 N   0  0  0  0  0  0  0  0  0  0  0  0
   12.4725   -2.4107    0.0000 N   0  0  0  0  0  0  0  0  0  0  0  0
   14.0561   -1.6060    0.0000 N   0  0  0  0  0  0  0  0  0  0  0  0
   17.0561   -3.3380    0.0000 N   0  0  0  0  0  0  0  0  0  0  0  0
    2.8660    3.8940    0.0000 N   0  0  0  0  0  0  0  0  0  0  0  0
    6.3301   -0.1060    0.0000 C   0  0  2  0  0  0  0  0  0  0  0  0
    7.1962   -0.6060    0.0000 C   0  0  0  0  0  0  0  0  0  0  0  0
    5.4641   -0.6060    0.0000 C   0  0  2  0  0  0  0  0  0  0  0  0
    8.0622    0.8940    0.0000 C   0  0  0  0  0  0  0  0  0  0  0  0
    8.9282    1.3940    0.0000 C   0  0  0  0  0  0  0  0  0  0  0  0
    5.4641   -1.6060    0.0000 C   0  0  0  0  0  0  0  0  0  0  0  0
    9.7942   -1.1060    0.0000 C   0  0  0  0  0  0  0  0  0  0  0  0
    4.5981   -2.1060    0.0000 C   0  0  0  0  0  0  0  0  0  0  0  0
    8.9282    2.3940    0.0000 C   0  0  0  0  0  0  0  0  0  0  0  0
    9.7942    0.8940    0.0000 C   0  0  0  0  0  0  0  0  0  0  0  0
    4.5981    0.8940    0.0000 C   0  0  0  0  0  0  0  0  0  0  0  0
   10.6603   -0.6060    0.0000 C   0  0  0  0  0  0  0  0  0  0  0  0
    9.7942   -2.1060    0.0000 C   0  0  0  0  0  0  0  0  0  0  0  0
    4.5981   -3.1060    0.0000 C   0  0  0  0  0  0  0  0  0  0  0  0
    3.7320   -1.6060    0.0000 C   0  0  0  0  0  0  0  0  0  0  0  0
   11.5263   -1.1060    0.0000 C   0  0  0  0  0  0  0  0  0  0  0  0
    3.7320    1.3940    0.0000 C   0  0  0  0  0  0  0  0  0  0  0  0
   11.5263   -2.1060    0.0000 C   0  0  0  0  0  0  0  0  0  0  0  0
   10.6603   -2.6060    0.0000 C   0  0  0  0  0  0  0  0  0  0  0  0
    3.7320   -3.6060    0.0000 C   0  0  0  0  0  0  0  0  0  0  0  0
    2.8660   -2.1060    0.0000 C   0  0  0  0  0  0  0  0  0  0  0  0
    3.7320    2.3940    0.0000 C   0  0  0  0  0  0  0  0  0  0  0  0
    2.8660   -3.1060    0.0000 C   0  0  0  0  0  0  0  0  0  0  0  0
   13.0561   -1.6060    0.0000 C   0  0  0  0  0  0  0  0  0  0  0  0
    2.8660    0.8940    0.0000 C   0  0  0  0  0  0  0  0  0  0  0  0
    2.8660    2.8940    0.0000 C   0  0  0  0  0  0  0  0  0  0  0  0
   14.5561   -2.4720    0.0000 C   0  0  0  0  0  0  0  0  0  0  0  0
    4.5981    2.8940    0.0000 C   0  0  0  0  0  0  0  0  0  0  0  0
    2.0000    1.3940    0.0000 C   0  0  0  0  0  0  0  0  0  0  0  0
   15.5561   -2.4720    0.0000 C   0  0  0  0  0  0  0  0  0  0  0  0
    2.0000    2.3940    0.0000 C   0  0  0  0  0  0  0  0  0  0  0  0
   16.0561   -3.3380    0.0000 C   0  0  0  0  0  0  0  0  0  0  0  0
   17.5561   -4.2040    0.0000 C   0  0  0  0  0  0  0  0  0  0  0  0
   17.5561   -2.4720    0.0000 C   0  0  0  0  0  0  0  0  0  0  0  0
    6.8671    0.2040    0.0000 H   0  0  0  0  0  0  0  0  0  0  0  0
    6.7976   -1.0809    0.0000 H   0  0  0  0  0  0  0  0  0  0  0  0
    7.5947   -1.0809    0.0000 H   0  0  0  0  0  0  0  0  0  0  0  0
    5.4641    0.0140    0.0000 H   0  0  0  0  0  0  0  0  0  0  0  0
    7.8501    1.4766    0.0000 H   0  0  0  0  0  0  0  0  0  0  0  0
    7.4516    0.7864    0.0000 H   0  0  0  0  0  0  0  0  0  0  0  0
    9.4651    1.7040    0.0000 H   0  0  0  0  0  0  0  0  0  0  0  0
    5.6762   -2.1886    0.0000 H   0  0  0  0  0  0  0  0  0  0  0  0
    6.0747   -1.4983    0.0000 H   0  0  0  0  0  0  0  0  0  0  0  0
    4.0611   -0.4160    0.0000 H   0  0  0  0  0  0  0  0  0  0  0  0
    9.5482    2.3940    0.0000 H   0  0  0  0  0  0  0  0  0  0  0  0
    8.9282    3.0140    0.0000 H   0  0  0  0  0  0  0  0  0  0  0  0
    8.3082    2.3940    0.0000 H   0  0  0  0  0  0  0  0  0  0  0  0
    9.4842    0.3571    0.0000 H   0  0  0  0  0  0  0  0  0  0  0  0
   10.3312    0.5840    0.0000 H   0  0  0  0  0  0  0  0  0  0  0  0
   10.1042    1.4310    0.0000 H   0  0  0  0  0  0  0  0  0  0  0  0
    6.8671    1.2040    0.0000 H   0  0  0  0  0  0  0  0  0  0  0  0
   10.6603    0.0140    0.0000 H   0  0  0  0  0  0  0  0  0  0  0  0
    9.2573   -2.4160    0.0000 H   0  0  0  0  0  0  0  0  0  0  0  0
    5.1350   -3.4160    0.0000 H   0  0  0  0  0  0  0  0  0  0  0  0
    3.7320   -0.9860    0.0000 H   0  0  0  0  0  0  0  0  0  0  0  0
   10.6603   -3.2260    0.0000 H   0  0  0  0  0  0  0  0  0  0  0  0
    3.7320   -4.2260    0.0000 H   0  0  0  0  0  0  0  0  0  0  0  0
    2.3291   -1.7960    0.0000 H   0  0  0  0  0  0  0  0  0  0  0  0
    2.3291   -3.4160    0.0000 H   0  0  0  0  0  0  0  0  0  0  0  0
    2.8660    0.2740    0.0000 H   0  0  0  0  0  0  0  0  0  0  0  0
   14.3661   -1.0690    0.0000 H   0  0  0  0  0  0  0  0  0  0  0  0
   13.9735   -2.6840    0.0000 H   0  0  0  0  0  0  0  0  0  0  0  0
   14.6638   -3.0826    0.0000 H   0  0  0  0  0  0  0  0  0  0  0  0
    4.9081    2.3571    0.0000 H   0  0  0  0  0  0  0  0  0  0  0  0
    5.1350    3.2040    0.0000 H   0  0  0  0  0  0  0  0  0  0  0  0
    4.2881    3.4310    0.0000 H   0  0  0  0  0  0  0  0  0  0  0  0
   16.1387   -2.2599    0.0000 H   0  0  0  0  0  0  0  0  0  0  0  0
   15.4484   -1.8614    0.0000 H   0  0  0  0  0  0  0  0  0  0  0  0
    1.4631    1.0840    0.0000 H   0  0  0  0  0  0  0  0  0  0  0  0
    1.4631    2.7040    0.0000 H   0  0  0  0  0  0  0  0  0  0  0  0
   15.4735   -3.5501    0.0000 H   0  0  0  0  0  0  0  0  0  0  0  0
   16.1638   -3.9486    0.0000 H   0  0  0  0  0  0  0  0  0  0  0  0
    2.3291    4.2040    0.0000 H   0  0  0  0  0  0  0  0  0  0  0  0
    3.4030    4.2040    0.0000 H   0  0  0  0  0  0  0  0  0  0  0  0
   17.0192   -4.5140    0.0000 H   0  0  0  0  0  0  0  0  0  0  0  0
   17.8661   -4.7410    0.0000 H   0  0  0  0  0  0  0  0  0  0  0  0
   18.0930   -3.8940    0.0000 H   0  0  0  0  0  0  0  0  0  0  0  0
   18.0930   -2.7820    0.0000 H   0  0  0  0  0  0  0  0  0  0  0  0
   17.8661   -1.9350    0.0000 H   0  0  0  0  0  0  0  0  0  0  0  0
   17.0192   -2.1620    0.0000 H   0  0  0  0  0  0  0  0  0  0  0  0
  1  4  2  0  0  0  0
  1  5  2  0  0  0  0
  1  7  1  0  0  0  0
  1 19  1  0  0  0  0
  2 28  1  0  0  0  0
  2 36  1  0  0  0  0
 13  3  1  6  0  0  0
  3 63  1  0  0  0  0
  6 23  2  0  0  0  0
  7 14  1  0  0  0  0
  7 16  1  0  0  0  0
 15  8  1  6  0  0  0
  8 23  1  0  0  0  0
  8 56  1  0  0  0  0
  9 30  1  0  0  0  0
  9 36  2  0  0  0  0
 10 36  1  0  0  0  0
 10 39  1  0  0  0  0
 10 73  1  0  0  0  0
 11 44  1  0  0  0  0
 11 45  1  0  0  0  0
 11 46  1  0  0  0  0
 12 38  1  0  0  0  0
 12 85  1  0  0  0  0
 12 86  1  0  0  0  0
 13 14  1  0  0  0  0
 13 15  1  0  0  0  0
 13 47  1  0  0  0  0
 14 48  1  0  0  0  0
 14 49  1  0  0  0  0
 15 18  1  0  0  0  0
 15 50  1  0  0  0  0
 16 17  1  0  0  0  0
 16 51  1  0  0  0  0
 16 52  1  0  0  0  0
 17 21  1  0  0  0  0
 17 22  1  0  0  0  0
 17 53  1  0  0  0  0
 18 20  1  0  0  0  0
 18 54  1  0  0  0  0
 18 55  1  0  0  0  0
 19 24  2  0  0  0  0
 19 25  1  0  0  0  0
 20 26  2  0  0  0  0
 20 27  1  0  0  0  0
 21 57  1  0  0  0  0
 21 58  1  0  0  0  0
 21 59  1  0  0  0  0
 22 60  1  0  0  0  0
 22 61  1  0  0  0  0
 22 62  1  0  0  0  0
 23 29  1  0  0  0  0
 24 28  1  0  0  0  0
 24 64  1  0  0  0  0
 25 31  2  0  0  0  0
 25 65  1  0  0  0  0
 26 32  1  0  0  0  0
 26 66  1  0  0  0  0
 27 33  2  0  0  0  0
 27 67  1  0  0  0  0
 28 30  2  0  0  0  0
 29 34  2  0  0  0  0
 29 37  1  0  0  0  0
 30 31  1  0  0  0  0
 31 68  1  0  0  0  0
 32 35  2  0  0  0  0
 32 69  1  0  0  0  0
 33 35  1  0  0  0  0
 33 70  1  0  0  0  0
 34 38  1  0  0  0  0
 34 40  1  0  0  0  0
 35 71  1  0  0  0  0
 37 41  2  0  0  0  0
 37 72  1  0  0  0  0
 38 43  2  0  0  0  0
 39 42  1  0  0  0  0
 39 74  1  0  0  0  0
 39 75  1  0  0  0  0
 40 76  1  0  0  0  0
 40 77  1  0  0  0  0
 40 78  1  0  0  0  0
 41 43  1  0  0  0  0
 41 81  1  0  0  0  0
 42 44  1  0  0  0  0
 42 79  1  0  0  0  0
 42 80  1  0  0  0  0
 43 82  1  0  0  0  0
 44 83  1  0  0  0  0
 44 84  1  0  0  0  0
 45 87  1  0  0  0  0
 45 88  1  0  0  0  0
 45 89  1  0  0  0  0
 46 90  1  0  0  0  0
 46 91  1  0  0  0  0
 46 92  1  0  0  0  0
M  END
> <PUBCHEM_COMPOUND_CID>
509639
> <PUBCHEM_COMPOUND_CANONICALIZED>
1
> <PUBCHEM_CACTVS_COMPLEXITY>
1040
> <PUBCHEM_CACTVS_HBOND_ACCEPTOR>
10
> <PUBCHEM_CACTVS_HBOND_DONOR>
4
> <PUBCHEM_CACTVS_ROTATABLE_BOND>
16
> <PUBCHEM_CACTVS_SUBSKEYS>
AAADcfB/uABgAAAAAAAAAAAAAAAAAWAAAAAwYMAAAAAAAFgB9AAAHgQQSAAADTzh3gYz0bPIEgqsAyVydHDD8LllCjlJmL04ZNiKMLLg3ZGEYQhslgLYyaecyKCOgAQAQEASAQAACACAgCQCAAAAAAAAAA==
> <PUBCHEM_IUPAC_OPENEYE_NAME>
3-amino-N-[(1S,2R)-1-benzyl-3-[[2-[3-(dimethylamino)propylamino]-1,3-benzothiazol-6-yl]sulfonyl-isobutyl-amino]-2-hydroxy-propyl]-2-methyl-benzamide
> <PUBCHEM_IUPAC_CAS_NAME>
3-amino-N-[(2S,3R)-4-[[2-[3-(dimethylamino)propylamino]-1,3-benzothiazol-6-yl]sulfonyl-(2-methylpropyl)amino]-3-hydroxy-1-phenylbutan-2-yl]-2-methylbenzamide
> <PUBCHEM_IUPAC_NAME_MARKUP>
3-amino-<I>N</I>-[(2<I>S</I>,3<I>R</I>)-4-[[2-[3-(dimethylamino)propylamino]-1,3-benzothiazol-6-yl]sulfonyl-(2-methylpropyl)amino]-3-hydroxy-1-phenylbutan-2-yl]-2-methylbenzamide
> <PUBCHEM_IUPAC_NAME>
3-amino-N-[(2S,3R)-4-[[2-[3-(dimethylamino)propylamino]-1,3-benzothiazol-6-yl]sulfonyl-(2-methylpropyl)amino]-3-hydroxy-1-phenylbutan-2-yl]-2-methylbenzamide
> <PUBCHEM_IUPAC_SYSTEMATIC_NAME>
3-azanyl-N-[(2S,3R)-4-[[2-[3-(dimethylamino)propylamino]-1,3-benzothiazol-6-yl]sulfonyl-(2-methylpropyl)amino]-3-oxidanyl-1-phenyl-butan-2-yl]-2-methyl-benzamide
> <PUBCHEM_IUPAC_TRADITIONAL_NAME>
3-amino-N-[(1S,2R)-1-benzyl-3-[[2-[3-(dimethylamino)propylamino]-1,3-benzothiazol-6-yl]sulfonyl-isobutyl-amino]-2-hydroxy-propyl]-2-methyl-benzamide
> <PUBCHEM_IUPAC_INCHI>
InChI=1S/C34H46N6O4S2/c1-23(2)21-40(46(43,44)26-15-16-29-32(20-26)45-34(38-29)36-17-10-18-39(4)5)22-31(41)30(19-25-11-7-6-8-12-25)37-33(42)27-13-9-14-28(35)24(27)3/h6-9,11-16,20,23,30-31,41H,10,17-19,21-22,35H2,1-5H3,(H,36,38)(H,37,42)/t30-,31+/m0/s1
> <PUBCHEM_IUPAC_INCHIKEY>
IETZJHJXLQUHGZ-IOWSJCHKSA-N
> <PUBCHEM_XLOGP3_AA>
5.6
> <PUBCHEM_EXACT_MASS>
666.30219632
> <PUBCHEM_MOLECULAR_FORMULA>
C34H46N6O4S2
> <PUBCHEM_MOLECULAR_WEIGHT>
666.9
> <PUBCHEM_OPENEYE_CAN_SMILES>
CC1=C(C=CC=C1N)C(=O)NC(CC2=CC=CC=C2)C(CN(CC(C)C)S(=O)(=O)C3=CC4=C(C=C3)N=C(S4)NCCCN(C)C)O
> <PUBCHEM_OPENEYE_ISO_SMILES>
CC1=C(C=CC=C1N)C(=O)N[C@@H](CC2=CC=CC=C2)[C@@H](CN(CC(C)C)S(=O)(=O)C3=CC4=C(C=C3)N=C(S4)NCCCN(C)C)O
> <PUBCHEM_CACTVS_TPSA>
178
> <PUBCHEM_MONOISOTOPIC_WEIGHT>
666.30219632
> <PUBCHEM_TOTAL_CHARGE>
0
> <PUBCHEM_HEAVY_ATOM_COUNT>
46
> <PUBCHEM_ATOM_DEF_STEREO_COUNT>
2
> <PUBCHEM_ATOM_UDEF_STEREO_COUNT>
0
> <PUBCHEM_BOND_DEF_STEREO_COUNT>
0
> <PUBCHEM_BOND_UDEF_STEREO_COUNT>
0
> <PUBCHEM_ISOTOPIC_ATOM_COUNT>
0
> <PUBCHEM_COMPONENT_COUNT>
1
> <PUBCHEM_CACTVS_TAUTO_COUNT>
-1
> <PUBCHEM_COORDINATE_TYPE>
1
5
255
> <PUBCHEM_BONDANNOTATIONS>
19  24  8
19  25  8
2  28  8
2  36  8
20  26  8
20  27  8
24  28  8
25  31  8
26  32  8
27  33  8
28  30  8
29  34  8
29  37  8
13  3  6
30  31  8
32  35  8
33  35  8
34  38  8
37  41  8
38  43  8
41  43  8
15  8  6
9  30  8
9  36  8
$$$$
