509636
  -OEChem-10302200282D
 87 90  0     1  0  0  0  0  0999 V2000
    9.6448   -0.5522    0.0000 S   0  0  0  0  0  0  0  0  0  0  0  0
   13.1891   -0.7474    0.0000 S   0  0  0  0  0  0  0  0  0  0  0  0
    3.4782    3.9423    0.0000 S   0  0  0  0  0  0  0  0  0  0  0  0
    7.0468    0.9478    0.0000 O   0  0  0  0  0  0  0  0  0  0  0  0
    9.1448   -1.4182    0.0000 O   0  0  0  0  0  0  0  0  0  0  0  0
   10.1449    0.3138    0.0000 O   0  0  0  0  0  0  0  0  0  0  0  0
    4.4487    1.4478    0.0000 O   0  0  0  0  0  0  0  0  0  0  0  0
    6.1808    1.4478    0.0000 O   0  0  0  0  0  0  0  0  0  0  0  0
    8.7788   -0.0522    0.0000 N   0  0  3  0  0  0  0  0  0  0  0  0
    5.3147   -0.0522    0.0000 N   0  0  0  0  0  0  0  0  0  0  0  0
   13.1891   -2.3569    0.0000 N   0  0  0  0  0  0  0  0  0  0  0  0
   14.7728   -1.5522    0.0000 N   0  0  0  0  0  0  0  0  0  0  0  0
   17.7728   -3.2842    0.0000 N   0  0  0  0  0  0  0  0  0  0  0  0
    2.0000    3.2842    0.0000 N   0  0  0  0  0  0  0  0  0  0  0  0
    7.0468   -0.0522    0.0000 C   0  0  2  0  0  0  0  0  0  0  0  0
    7.9128   -0.5522    0.0000 C   0  0  0  0  0  0  0  0  0  0  0  0
    6.1808   -0.5522    0.0000 C   0  0  2  0  0  0  0  0  0  0  0  0
    8.7788    0.9478    0.0000 C   0  0  0  0  0  0  0  0  0  0  0  0
    9.6448    1.4478    0.0000 C   0  0  0  0  0  0  0  0  0  0  0  0
    6.1808   -1.5522    0.0000 C   0  0  0  0  0  0  0  0  0  0  0  0
   10.5109   -1.0522    0.0000 C   0  0  0  0  0  0  0  0  0  0  0  0
    9.6448    2.4478    0.0000 C   0  0  0  0  0  0  0  0  0  0  0  0
   10.5109    0.9478    0.0000 C   0  0  0  0  0  0  0  0  0  0  0  0
    5.3147   -2.0522    0.0000 C   0  0  0  0  0  0  0  0  0  0  0  0
   11.3769   -0.5522    0.0000 C   0  0  0  0  0  0  0  0  0  0  0  0
   10.5109   -2.0522    0.0000 C   0  0  0  0  0  0  0  0  0  0  0  0
    5.3147    0.9478    0.0000 C   0  0  0  0  0  0  0  0  0  0  0  0
    5.3147   -3.0522    0.0000 C   0  0  0  0  0  0  0  0  0  0  0  0
    4.4487   -1.5522    0.0000 C   0  0  0  0  0  0  0  0  0  0  0  0
   12.2429   -1.0522    0.0000 C   0  0  0  0  0  0  0  0  0  0  0  0
   12.2429   -2.0522    0.0000 C   0  0  0  0  0  0  0  0  0  0  0  0
   11.3769   -2.5522    0.0000 C   0  0  0  0  0  0  0  0  0  0  0  0
    4.4487   -3.5522    0.0000 C   0  0  0  0  0  0  0  0  0  0  0  0
    3.5827   -2.0522    0.0000 C   0  0  0  0  0  0  0  0  0  0  0  0
   13.7728   -1.5522    0.0000 C   0  0  0  0  0  0  0  0  0  0  0  0
    3.5827   -3.0522    0.0000 C   0  0  0  0  0  0  0  0  0  0  0  0
   15.2728   -2.4182    0.0000 C   0  0  0  0  0  0  0  0  0  0  0  0
   16.2728   -2.4182    0.0000 C   0  0  0  0  0  0  0  0  0  0  0  0
    4.4487    2.4478    0.0000 C   0  0  0  0  0  0  0  0  0  0  0  0
   16.7728   -3.2842    0.0000 C   0  0  0  0  0  0  0  0  0  0  0  0
    3.5827    2.9478    0.0000 C   0  0  0  0  0  0  0  0  0  0  0  0
   18.2728   -4.1502    0.0000 C   0  0  0  0  0  0  0  0  0  0  0  0
   18.2728   -2.4182    0.0000 C   0  0  0  0  0  0  0  0  0  0  0  0
    2.6691    2.5411    0.0000 C   0  0  0  0  0  0  0  0  0  0  0  0
    2.5000    4.1502    0.0000 C   0  0  0  0  0  0  0  0  0  0  0  0
    7.5837    0.2578    0.0000 H   0  0  0  0  0  0  0  0  0  0  0  0
    7.5143   -1.0271    0.0000 H   0  0  0  0  0  0  0  0  0  0  0  0
    8.3113   -1.0271    0.0000 H   0  0  0  0  0  0  0  0  0  0  0  0
    6.1808    0.0678    0.0000 H   0  0  0  0  0  0  0  0  0  0  0  0
    8.5668    1.5304    0.0000 H   0  0  0  0  0  0  0  0  0  0  0  0
    8.1682    0.8402    0.0000 H   0  0  0  0  0  0  0  0  0  0  0  0
    9.1079    1.7578    0.0000 H   0  0  0  0  0  0  0  0  0  0  0  0
    6.3928   -2.1348    0.0000 H   0  0  0  0  0  0  0  0  0  0  0  0
    6.7913   -1.4445    0.0000 H   0  0  0  0  0  0  0  0  0  0  0  0
    4.7778   -0.3622    0.0000 H   0  0  0  0  0  0  0  0  0  0  0  0
   10.2649    2.4478    0.0000 H   0  0  0  0  0  0  0  0  0  0  0  0
    9.6448    3.0678    0.0000 H   0  0  0  0  0  0  0  0  0  0  0  0
    9.0248    2.4478    0.0000 H   0  0  0  0  0  0  0  0  0  0  0  0
   10.2009    0.4109    0.0000 H   0  0  0  0  0  0  0  0  0  0  0  0
   11.0478    0.6378    0.0000 H   0  0  0  0  0  0  0  0  0  0  0  0
   10.8209    1.4848    0.0000 H   0  0  0  0  0  0  0  0  0  0  0  0
    7.5837    1.2578    0.0000 H   0  0  0  0  0  0  0  0  0  0  0  0
   11.3769    0.0678    0.0000 H   0  0  0  0  0  0  0  0  0  0  0  0
    9.9739   -2.3622    0.0000 H   0  0  0  0  0  0  0  0  0  0  0  0
    5.8517   -3.3622    0.0000 H   0  0  0  0  0  0  0  0  0  0  0  0
    4.4487   -0.9322    0.0000 H   0  0  0  0  0  0  0  0  0  0  0  0
   11.3769   -3.1722    0.0000 H   0  0  0  0  0  0  0  0  0  0  0  0
    4.4487   -4.1722    0.0000 H   0  0  0  0  0  0  0  0  0  0  0  0
    3.0457   -1.7422    0.0000 H   0  0  0  0  0  0  0  0  0  0  0  0
    3.0457   -3.3622    0.0000 H   0  0  0  0  0  0  0  0  0  0  0  0
   14.6902   -2.6303    0.0000 H   0  0  0  0  0  0  0  0  0  0  0  0
   15.3804   -3.0288    0.0000 H   0  0  0  0  0  0  0  0  0  0  0  0
   15.0828   -1.0152    0.0000 H   0  0  0  0  0  0  0  0  0  0  0  0
   16.8554   -2.2062    0.0000 H   0  0  0  0  0  0  0  0  0  0  0  0
   16.1651   -1.8076    0.0000 H   0  0  0  0  0  0  0  0  0  0  0  0
    5.0593    2.3402    0.0000 H   0  0  0  0  0  0  0  0  0  0  0  0
    4.6608    3.0304    0.0000 H   0  0  0  0  0  0  0  0  0  0  0  0
   16.1901   -3.4963    0.0000 H   0  0  0  0  0  0  0  0  0  0  0  0
   16.8804   -3.8948    0.0000 H   0  0  0  0  0  0  0  0  0  0  0  0
   17.7358   -4.4602    0.0000 H   0  0  0  0  0  0  0  0  0  0  0  0
   18.5828   -4.6872    0.0000 H   0  0  0  0  0  0  0  0  0  0  0  0
   18.8097   -3.8402    0.0000 H   0  0  0  0  0  0  0  0  0  0  0  0
   18.8097   -2.7282    0.0000 H   0  0  0  0  0  0  0  0  0  0  0  0
   18.5828   -1.8813    0.0000 H   0  0  0  0  0  0  0  0  0  0  0  0
   17.7358   -2.1082    0.0000 H   0  0  0  0  0  0  0  0  0  0  0  0
    2.5402    1.9346    0.0000 H   0  0  0  0  0  0  0  0  0  0  0  0
    2.2478    4.7166    0.0000 H   0  0  0  0  0  0  0  0  0  0  0  0
  1  5  2  0  0  0  0
  1  6  2  0  0  0  0
  1  9  1  0  0  0  0
  1 21  1  0  0  0  0
  2 30  1  0  0  0  0
  2 35  1  0  0  0  0
  3 41  1  0  0  0  0
  3 45  1  0  0  0  0
 15  4  1  6  0  0  0
  4 62  1  0  0  0  0
  7 27  1  0  0  0  0
  7 39  1  0  0  0  0
  8 27  2  0  0  0  0
  9 16  1  0  0  0  0
  9 18  1  0  0  0  0
 17 10  1  6  0  0  0
 10 27  1  0  0  0  0
 10 55  1  0  0  0  0
 11 31  1  0  0  0  0
 11 35  2  0  0  0  0
 12 35  1  0  0  0  0
 12 37  1  0  0  0  0
 12 73  1  0  0  0  0
 13 40  1  0  0  0  0
 13 42  1  0  0  0  0
 13 43  1  0  0  0  0
 14 44  1  0  0  0  0
 14 45  2  0  0  0  0
 15 16  1  0  0  0  0
 15 17  1  0  0  0  0
 15 46  1  0  0  0  0
 16 47  1  0  0  0  0
 16 48  1  0  0  0  0
 17 20  1  0  0  0  0
 17 49  1  0  0  0  0
 18 19  1  0  0  0  0
 18 50  1  0  0  0  0
 18 51  1  0  0  0  0
 19 22  1  0  0  0  0
 19 23  1  0  0  0  0
 19 52  1  0  0  0  0
 20 24  1  0  0  0  0
 20 53  1  0  0  0  0
 20 54  1  0  0  0  0
 21 25  2  0  0  0  0
 21 26  1  0  0  0  0
 22 56  1  0  0  0  0
 22 57  1  0  0  0  0
 22 58  1  0  0  0  0
 23 59  1  0  0  0  0
 23 60  1  0  0  0  0
 23 61  1  0  0  0  0
 24 28  2  0  0  0  0
 24 29  1  0  0  0  0
 25 30  1  0  0  0  0
 25 63  1  0  0  0  0
 26 32  2  0  0  0  0
 26 64  1  0  0  0  0
 28 33  1  0  0  0  0
 28 65  1  0  0  0  0
 29 34  2  0  0  0  0
 29 66  1  0  0  0  0
 30 31  2  0  0  0  0
 31 32  1  0  0  0  0
 32 67  1  0  0  0  0
 33 36  2  0  0  0  0
 33 68  1  0  0  0  0
 34 36  1  0  0  0  0
 34 69  1  0  0  0  0
 36 70  1  0  0  0  0
 37 38  1  0  0  0  0
 37 71  1  0  0  0  0
 37 72  1  0  0  0  0
 38 40  1  0  0  0  0
 38 74  1  0  0  0  0
 38 75  1  0  0  0  0
 39 41  1  0  0  0  0
 39 76  1  0  0  0  0
 39 77  1  0  0  0  0
 40 78  1  0  0  0  0
 40 79  1  0  0  0  0
 41 44  2  0  0  0  0
 42 80  1  0  0  0  0
 42 81  1  0  0  0  0
 42 82  1  0  0  0  0
 43 83  1  0  0  0  0
 43 84  1  0  0  0  0
 43 85  1  0  0  0  0
 44 86  1  0  0  0  0
 45 87  1  0  0  0  0
M  END
> <PUBCHEM_COMPOUND_CID>
509636
> <PUBCHEM_COMPOUND_CANONICALIZED>
1
> <PUBCHEM_CACTVS_COMPLEXITY>
997
> <PUBCHEM_CACTVS_HBOND_ACCEPTOR>
12
> <PUBCHEM_CACTVS_HBOND_DONOR>
3
> <PUBCHEM_CACTVS_ROTATABLE_BOND>
18
> <PUBCHEM_CACTVS_SUBSKEYS>
AAADcfB7uABgAAAAAAAAAAAAAAAAAWLAAAAwYAAAAAAAAFgB/AAAHgQQSAAADTzh3ga/2bPIFgqsAzRnfHDD8LlxCjlJ2Lw4bJmKNKLg+ZmMYAhulgLY6CeQwKAOAAQAAEAAAQAACAAAgAACAAAAAAAAAA==
> <PUBCHEM_IUPAC_OPENEYE_NAME>
thiazol-5-ylmethyl N-[(1S,2R)-1-benzyl-3-[[2-[3-(dimethylamino)propylamino]-1,3-benzothiazol-6-yl]sulfonyl-isobutyl-amino]-2-hydroxy-propyl]carbamate
> <PUBCHEM_IUPAC_CAS_NAME>
N-[(2S,3R)-4-[[2-[3-(dimethylamino)propylamino]-1,3-benzothiazol-6-yl]sulfonyl-(2-methylpropyl)amino]-3-hydroxy-1-phenylbutan-2-yl]carbamic acid 5-thiazolylmethyl ester
> <PUBCHEM_IUPAC_NAME_MARKUP>
1,3-thiazol-5-ylmethyl <I>N</I>-[(2<I>S</I>,3<I>R</I>)-4-[[2-[3-(dimethylamino)propylamino]-1,3-benzothiazol-6-yl]sulfonyl-(2-methylpropyl)amino]-3-hydroxy-1-phenylbutan-2-yl]carbamate
> <PUBCHEM_IUPAC_NAME>
1,3-thiazol-5-ylmethyl N-[(2S,3R)-4-[[2-[3-(dimethylamino)propylamino]-1,3-benzothiazol-6-yl]sulfonyl-(2-methylpropyl)amino]-3-hydroxy-1-phenylbutan-2-yl]carbamate
> <PUBCHEM_IUPAC_SYSTEMATIC_NAME>
1,3-thiazol-5-ylmethyl N-[(2S,3R)-4-[[2-[3-(dimethylamino)propylamino]-1,3-benzothiazol-6-yl]sulfonyl-(2-methylpropyl)amino]-3-oxidanyl-1-phenyl-butan-2-yl]carbamate
> <PUBCHEM_IUPAC_TRADITIONAL_NAME>
N-[(1S,2R)-1-benzyl-3-[[2-[3-(dimethylamino)propylamino]-1,3-benzothiazol-6-yl]sulfonyl-isobutyl-amino]-2-hydroxy-propyl]carbamic acid thiazol-5-ylmethyl ester
> <PUBCHEM_IUPAC_INCHI>
InChI=1S/C31H42N6O5S3/c1-22(2)18-37(45(40,41)25-11-12-26-29(16-25)44-30(34-26)33-13-8-14-36(3)4)19-28(38)27(15-23-9-6-5-7-10-23)35-31(39)42-20-24-17-32-21-43-24/h5-7,9-12,16-17,21-22,27-28,38H,8,13-15,18-20H2,1-4H3,(H,33,34)(H,35,39)/t27-,28+/m0/s1
> <PUBCHEM_IUPAC_INCHIKEY>
ZDOLBFVQUSCGAS-WUFINQPMSA-N
> <PUBCHEM_XLOGP3_AA>
5.3
> <PUBCHEM_EXACT_MASS>
674.23788198
> <PUBCHEM_MOLECULAR_FORMULA>
C31H42N6O5S3
> <PUBCHEM_MOLECULAR_WEIGHT>
674.9
> <PUBCHEM_OPENEYE_CAN_SMILES>
CC(C)CN(CC(C(CC1=CC=CC=C1)NC(=O)OCC2=CN=CS2)O)S(=O)(=O)C3=CC4=C(C=C3)N=C(S4)NCCCN(C)C
> <PUBCHEM_OPENEYE_ISO_SMILES>
CC(C)CN(C[C@H]([C@H](CC1=CC=CC=C1)NC(=O)OCC2=CN=CS2)O)S(=O)(=O)C3=CC4=C(C=C3)N=C(S4)NCCCN(C)C
> <PUBCHEM_CACTVS_TPSA>
202
> <PUBCHEM_MONOISOTOPIC_WEIGHT>
674.23788198
> <PUBCHEM_TOTAL_CHARGE>
0
> <PUBCHEM_HEAVY_ATOM_COUNT>
45
> <PUBCHEM_ATOM_DEF_STEREO_COUNT>
2
> <PUBCHEM_ATOM_UDEF_STEREO_COUNT>
0
> <PUBCHEM_BOND_DEF_STEREO_COUNT>
0
> <PUBCHEM_BOND_UDEF_STEREO_COUNT>
0
> <PUBCHEM_ISOTOPIC_ATOM_COUNT>
0
> <PUBCHEM_COMPONENT_COUNT>
1
> <PUBCHEM_CACTVS_TAUTO_COUNT>
-1
> <PUBCHEM_COORDINATE_TYPE>
1
5
255
> <PUBCHEM_BONDANNOTATIONS>
17  10  6
11  31  8
11  35  8
14  44  8
14  45  8
2  30  8
2  35  8
21  25  8
21  26  8
24  28  8
24  29  8
25  30  8
26  32  8
28  33  8
29  34  8
3  41  8
3  45  8
30  31  8
31  32  8
33  36  8
34  36  8
15  4  6
41  44  8
$$$$
