509656
  -OEChem-10302200282D
 85 88  0     1  0  0  0  0  0999 V2000
   11.5263   -0.2500    0.0000 S   0  0  0  0  0  0  0  0  0  0  0  0
   15.0706   -0.4453    0.0000 S   0  0  0  0  0  0  0  0  0  0  0  0
    8.9282    1.2500    0.0000 O   0  0  0  0  0  0  0  0  0  0  0  0
   11.0263   -1.1160    0.0000 O   0  0  0  0  0  0  0  0  0  0  0  0
   12.0263    0.6160    0.0000 O   0  0  0  0  0  0  0  0  0  0  0  0
    8.0622    1.7500    0.0000 O   0  0  0  0  0  0  0  0  0  0  0  0
    2.8660    2.7500    0.0000 O   0  0  0  0  0  0  0  0  0  0  0  0
   16.6542   -2.9820    0.0000 O   0  0  0  0  0  0  0  0  0  0  0  0
   10.6603    0.2500    0.0000 N   0  0  3  0  0  0  0  0  0  0  0  0
    7.1962    0.2500    0.0000 N   0  0  0  0  0  0  0  0  0  0  0  0
   15.0706   -2.0547    0.0000 N   0  0  0  0  0  0  0  0  0  0  0  0
    3.7320    1.2500    0.0000 N   0  0  0  0  0  0  0  0  0  0  0  0
   16.6542   -1.2500    0.0000 N   0  0  0  0  0  0  0  0  0  0  0  0
    8.9282    0.2500    0.0000 C   0  0  1  0  0  0  0  0  0  0  0  0
    8.0622   -0.2500    0.0000 C   0  0  2  0  0  0  0  0  0  0  0  0
    9.7942   -0.2500    0.0000 C   0  0  0  0  0  0  0  0  0  0  0  0
   10.6603    1.2500    0.0000 C   0  0  0  0  0  0  0  0  0  0  0  0
   11.5263    1.7500    0.0000 C   0  0  0  0  0  0  0  0  0  0  0  0
    8.0622   -1.2500    0.0000 C   0  0  0  0  0  0  0  0  0  0  0  0
   12.3923   -0.7500    0.0000 C   0  0  0  0  0  0  0  0  0  0  0  0
    7.1962   -1.7500    0.0000 C   0  0  0  0  0  0  0  0  0  0  0  0
   11.5263    2.7500    0.0000 C   0  0  0  0  0  0  0  0  0  0  0  0
   12.3923    1.2500    0.0000 C   0  0  0  0  0  0  0  0  0  0  0  0
    7.1962    1.2500    0.0000 C   0  0  0  0  0  0  0  0  0  0  0  0
   13.2583   -0.2500    0.0000 C   0  0  0  0  0  0  0  0  0  0  0  0
   12.3923   -1.7500    0.0000 C   0  0  0  0  0  0  0  0  0  0  0  0
    7.1962   -2.7500    0.0000 C   0  0  0  0  0  0  0  0  0  0  0  0
    6.3301   -1.2500    0.0000 C   0  0  0  0  0  0  0  0  0  0  0  0
    6.3301    1.7500    0.0000 C   0  0  0  0  0  0  0  0  0  0  0  0
   14.1244   -0.7500    0.0000 C   0  0  0  0  0  0  0  0  0  0  0  0
   13.2583   -2.2500    0.0000 C   0  0  0  0  0  0  0  0  0  0  0  0
   14.1244   -1.7500    0.0000 C   0  0  0  0  0  0  0  0  0  0  0  0
    6.3301   -3.2500    0.0000 C   0  0  0  0  0  0  0  0  0  0  0  0
    5.4641   -1.7500    0.0000 C   0  0  0  0  0  0  0  0  0  0  0  0
    6.3301    2.7500    0.0000 C   0  0  0  0  0  0  0  0  0  0  0  0
    5.4641    1.2500    0.0000 C   0  0  0  0  0  0  0  0  0  0  0  0
    5.4641   -2.7500    0.0000 C   0  0  0  0  0  0  0  0  0  0  0  0
    4.5981    1.7500    0.0000 C   0  0  0  0  0  0  0  0  0  0  0  0
    5.4641    3.2500    0.0000 C   0  0  0  0  0  0  0  0  0  0  0  0
   15.6542   -1.2500    0.0000 C   0  0  0  0  0  0  0  0  0  0  0  0
    7.1962    3.2500    0.0000 C   0  0  0  0  0  0  0  0  0  0  0  0
    4.5981    2.7500    0.0000 C   0  0  0  0  0  0  0  0  0  0  0  0
    2.8660    1.7500    0.0000 C   0  0  0  0  0  0  0  0  0  0  0  0
   17.1542   -2.1160    0.0000 C   0  0  0  0  0  0  0  0  0  0  0  0
    2.0000    1.2500    0.0000 C   0  0  0  0  0  0  0  0  0  0  0  0
   18.1542   -2.1160    0.0000 C   0  0  0  0  0  0  0  0  0  0  0  0
    9.4651    0.5600    0.0000 H   0  0  0  0  0  0  0  0  0  0  0  0
    8.0622    0.3700    0.0000 H   0  0  0  0  0  0  0  0  0  0  0  0
    9.3957   -0.7249    0.0000 H   0  0  0  0  0  0  0  0  0  0  0  0
   10.1928   -0.7249    0.0000 H   0  0  0  0  0  0  0  0  0  0  0  0
   10.4482    1.8326    0.0000 H   0  0  0  0  0  0  0  0  0  0  0  0
   10.0497    1.1423    0.0000 H   0  0  0  0  0  0  0  0  0  0  0  0
   12.0632    2.0600    0.0000 H   0  0  0  0  0  0  0  0  0  0  0  0
    8.2742   -1.8326    0.0000 H   0  0  0  0  0  0  0  0  0  0  0  0
    8.6728   -1.1423    0.0000 H   0  0  0  0  0  0  0  0  0  0  0  0
    6.6592   -0.0600    0.0000 H   0  0  0  0  0  0  0  0  0  0  0  0
   12.1463    2.7500    0.0000 H   0  0  0  0  0  0  0  0  0  0  0  0
   11.5263    3.3700    0.0000 H   0  0  0  0  0  0  0  0  0  0  0  0
   10.9063    2.7500    0.0000 H   0  0  0  0  0  0  0  0  0  0  0  0
   12.0823    0.7131    0.0000 H   0  0  0  0  0  0  0  0  0  0  0  0
   12.9292    0.9400    0.0000 H   0  0  0  0  0  0  0  0  0  0  0  0
   12.7023    1.7869    0.0000 H   0  0  0  0  0  0  0  0  0  0  0  0
    9.4651    1.5600    0.0000 H   0  0  0  0  0  0  0  0  0  0  0  0
   13.2583    0.3700    0.0000 H   0  0  0  0  0  0  0  0  0  0  0  0
   11.8554   -2.0600    0.0000 H   0  0  0  0  0  0  0  0  0  0  0  0
    7.7331   -3.0600    0.0000 H   0  0  0  0  0  0  0  0  0  0  0  0
    6.3301   -0.6300    0.0000 H   0  0  0  0  0  0  0  0  0  0  0  0
   13.2583   -2.8700    0.0000 H   0  0  0  0  0  0  0  0  0  0  0  0
    6.3301   -3.8700    0.0000 H   0  0  0  0  0  0  0  0  0  0  0  0
    4.9272   -1.4400    0.0000 H   0  0  0  0  0  0  0  0  0  0  0  0
    5.4641    0.6300    0.0000 H   0  0  0  0  0  0  0  0  0  0  0  0
    4.9272   -3.0600    0.0000 H   0  0  0  0  0  0  0  0  0  0  0  0
    5.4641    3.8700    0.0000 H   0  0  0  0  0  0  0  0  0  0  0  0
    7.5062    2.7131    0.0000 H   0  0  0  0  0  0  0  0  0  0  0  0
    7.7331    3.5600    0.0000 H   0  0  0  0  0  0  0  0  0  0  0  0
    6.8862    3.7869    0.0000 H   0  0  0  0  0  0  0  0  0  0  0  0
    4.0611    3.0600    0.0000 H   0  0  0  0  0  0  0  0  0  0  0  0
    3.7320    0.6300    0.0000 H   0  0  0  0  0  0  0  0  0  0  0  0
   16.9642   -0.7131    0.0000 H   0  0  0  0  0  0  0  0  0  0  0  0
    1.6900    1.7869    0.0000 H   0  0  0  0  0  0  0  0  0  0  0  0
    1.4631    0.9400    0.0000 H   0  0  0  0  0  0  0  0  0  0  0  0
    2.3100    0.7131    0.0000 H   0  0  0  0  0  0  0  0  0  0  0  0
   18.1542   -2.7360    0.0000 H   0  0  0  0  0  0  0  0  0  0  0  0
   18.7742   -2.1160    0.0000 H   0  0  0  0  0  0  0  0  0  0  0  0
   18.1542   -1.4960    0.0000 H   0  0  0  0  0  0  0  0  0  0  0  0
  1  4  2  0  0  0  0
  1  5  2  0  0  0  0
  1  9  1  0  0  0  0
  1 20  1  0  0  0  0
  2 30  1  0  0  0  0
  2 40  1  0  0  0  0
 14  3  1  6  0  0  0
  3 63  1  0  0  0  0
  6 24  2  0  0  0  0
  7 43  2  0  0  0  0
  8 44  2  0  0  0  0
  9 16  1  0  0  0  0
  9 17  1  0  0  0  0
 15 10  1  6  0  0  0
 10 24  1  0  0  0  0
 10 56  1  0  0  0  0
 11 32  1  0  0  0  0
 11 40  2  0  0  0  0
 12 38  1  0  0  0  0
 12 43  1  0  0  0  0
 12 78  1  0  0  0  0
 13 40  1  0  0  0  0
 13 44  1  0  0  0  0
 13 79  1  0  0  0  0
 14 15  1  0  0  0  0
 14 16  1  0  0  0  0
 14 47  1  0  0  0  0
 15 19  1  0  0  0  0
 15 48  1  0  0  0  0
 16 49  1  0  0  0  0
 16 50  1  0  0  0  0
 17 18  1  0  0  0  0
 17 51  1  0  0  0  0
 17 52  1  0  0  0  0
 18 22  1  0  0  0  0
 18 23  1  0  0  0  0
 18 53  1  0  0  0  0
 19 21  1  0  0  0  0
 19 54  1  0  0  0  0
 19 55  1  0  0  0  0
 20 25  2  0  0  0  0
 20 26  1  0  0  0  0
 21 27  2  0  0  0  0
 21 28  1  0  0  0  0
 22 57  1  0  0  0  0
 22 58  1  0  0  0  0
 22 59  1  0  0  0  0
 23 60  1  0  0  0  0
 23 61  1  0  0  0  0
 23 62  1  0  0  0  0
 24 29  1  0  0  0  0
 25 30  1  0  0  0  0
 25 64  1  0  0  0  0
 26 31  2  0  0  0  0
 26 65  1  0  0  0  0
 27 33  1  0  0  0  0
 27 66  1  0  0  0  0
 28 34  2  0  0  0  0
 28 67  1  0  0  0  0
 29 35  2  0  0  0  0
 29 36  1  0  0  0  0
 30 32  2  0  0  0  0
 31 32  1  0  0  0  0
 31 68  1  0  0  0  0
 33 37  2  0  0  0  0
 33 69  1  0  0  0  0
 34 37  1  0  0  0  0
 34 70  1  0  0  0  0
 35 39  1  0  0  0  0
 35 41  1  0  0  0  0
 36 38  2  0  0  0  0
 36 71  1  0  0  0  0
 37 72  1  0  0  0  0
 38 42  1  0  0  0  0
 39 42  2  0  0  0  0
 39 73  1  0  0  0  0
 41 74  1  0  0  0  0
 41 75  1  0  0  0  0
 41 76  1  0  0  0  0
 42 77  1  0  0  0  0
 43 45  1  0  0  0  0
 44 46  1  0  0  0  0
 45 80  1  0  0  0  0
 45 81  1  0  0  0  0
 45 82  1  0  0  0  0
 46 83  1  0  0  0  0
 46 84  1  0  0  0  0
 46 85  1  0  0  0  0
M  END
> <PUBCHEM_COMPOUND_CID>
509656
> <PUBCHEM_COMPOUND_CANONICALIZED>
1
> <PUBCHEM_CACTVS_COMPLEXITY>
1140
> <PUBCHEM_CACTVS_HBOND_ACCEPTOR>
9
> <PUBCHEM_CACTVS_HBOND_DONOR>
4
> <PUBCHEM_CACTVS_ROTATABLE_BOND>
13
> <PUBCHEM_CACTVS_SUBSKEYS>
AAADcfB/uABgAAAAAAAAAAAAAAAAAWAAAAAwYMAAAAAAAFgB9AAAHgQQSAAADTzh3gYz0bLIEgqsAyVydHDD8LllCjlJmL04ZNiKMLLg3ZGEYQhslwLYyaecyKCOiAQAQEAQAQAQCACAgCACAAAAAAAAAA==
> <PUBCHEM_IUPAC_OPENEYE_NAME>
5-acetamido-N-[(1S,2R)-3-[(2-acetamido-1,3-benzothiazol-6-yl)sulfonyl-isobutyl-amino]-1-benzyl-2-hydroxy-propyl]-2-methyl-benzamide
> <PUBCHEM_IUPAC_CAS_NAME>
5-acetamido-N-[(2S,3R)-4-[(2-acetamido-1,3-benzothiazol-6-yl)sulfonyl-(2-methylpropyl)amino]-3-hydroxy-1-phenylbutan-2-yl]-2-methylbenzamide
> <PUBCHEM_IUPAC_NAME_MARKUP>
5-acetamido-<I>N</I>-[(2<I>S</I>,3<I>R</I>)-4-[(2-acetamido-1,3-benzothiazol-6-yl)sulfonyl-(2-methylpropyl)amino]-3-hydroxy-1-phenylbutan-2-yl]-2-methylbenzamide
> <PUBCHEM_IUPAC_NAME>
5-acetamido-N-[(2S,3R)-4-[(2-acetamido-1,3-benzothiazol-6-yl)sulfonyl-(2-methylpropyl)amino]-3-hydroxy-1-phenylbutan-2-yl]-2-methylbenzamide
> <PUBCHEM_IUPAC_SYSTEMATIC_NAME>
5-acetamido-N-[(2S,3R)-4-[(2-acetamido-1,3-benzothiazol-6-yl)sulfonyl-(2-methylpropyl)amino]-3-oxidanyl-1-phenyl-butan-2-yl]-2-methyl-benzamide
> <PUBCHEM_IUPAC_TRADITIONAL_NAME>
5-acetamido-N-[(1S,2R)-3-[(2-acetamido-1,3-benzothiazol-6-yl)sulfonyl-isobutyl-amino]-1-benzyl-2-hydroxy-propyl]-2-methyl-benzamide
> <PUBCHEM_IUPAC_INCHI>
InChI=1S/C33H39N5O6S2/c1-20(2)18-38(46(43,44)26-13-14-28-31(17-26)45-33(37-28)35-23(5)40)19-30(41)29(15-24-9-7-6-8-10-24)36-32(42)27-16-25(34-22(4)39)12-11-21(27)3/h6-14,16-17,20,29-30,41H,15,18-19H2,1-5H3,(H,34,39)(H,36,42)(H,35,37,40)/t29-,30+/m0/s1
> <PUBCHEM_IUPAC_INCHIKEY>
BRPXDGIWRIGFOY-XZWHSSHBSA-N
> <PUBCHEM_XLOGP3_AA>
4.3
> <PUBCHEM_EXACT_MASS>
665.23417633
> <PUBCHEM_MOLECULAR_FORMULA>
C33H39N5O6S2
> <PUBCHEM_MOLECULAR_WEIGHT>
665.8
> <PUBCHEM_OPENEYE_CAN_SMILES>
CC1=C(C=C(C=C1)NC(=O)C)C(=O)NC(CC2=CC=CC=C2)C(CN(CC(C)C)S(=O)(=O)C3=CC4=C(C=C3)N=C(S4)NC(=O)C)O
> <PUBCHEM_OPENEYE_ISO_SMILES>
CC1=C(C=C(C=C1)NC(=O)C)C(=O)N[C@@H](CC2=CC=CC=C2)[C@@H](CN(CC(C)C)S(=O)(=O)C3=CC4=C(C=C3)N=C(S4)NC(=O)C)O
> <PUBCHEM_CACTVS_TPSA>
194
> <PUBCHEM_MONOISOTOPIC_WEIGHT>
665.23417633
> <PUBCHEM_TOTAL_CHARGE>
0
> <PUBCHEM_HEAVY_ATOM_COUNT>
46
> <PUBCHEM_ATOM_DEF_STEREO_COUNT>
2
> <PUBCHEM_ATOM_UDEF_STEREO_COUNT>
0
> <PUBCHEM_BOND_DEF_STEREO_COUNT>
0
> <PUBCHEM_BOND_UDEF_STEREO_COUNT>
0
> <PUBCHEM_ISOTOPIC_ATOM_COUNT>
0
> <PUBCHEM_COMPONENT_COUNT>
1
> <PUBCHEM_CACTVS_TAUTO_COUNT>
-1
> <PUBCHEM_COORDINATE_TYPE>
1
5
255
> <PUBCHEM_BONDANNOTATIONS>
15  10  6
11  32  8
11  40  8
2  30  8
2  40  8
20  25  8
20  26  8
21  27  8
21  28  8
25  30  8
26  31  8
27  33  8
28  34  8
29  35  8
29  36  8
14  3  6
30  32  8
31  32  8
33  37  8
34  37  8
35  39  8
36  38  8
38  42  8
39  42  8
$$$$
