509637
  -OEChem-10302200282D
 90 93  0     1  0  0  0  0  0999 V2000
    9.7942   -0.7010    0.0000 S   0  0  0  0  0  0  0  0  0  0  0  0
   13.3385   -0.8962    0.0000 S   0  0  0  0  0  0  0  0  0  0  0  0
    7.1962    0.7990    0.0000 O   0  0  0  0  0  0  0  0  0  0  0  0
    9.2942   -1.5670    0.0000 O   0  0  0  0  0  0  0  0  0  0  0  0
   10.2942    0.1651    0.0000 O   0  0  0  0  0  0  0  0  0  0  0  0
    4.5981    1.2990    0.0000 O   0  0  0  0  0  0  0  0  0  0  0  0
    6.3301    1.2990    0.0000 O   0  0  0  0  0  0  0  0  0  0  0  0
    8.9282   -0.2010    0.0000 N   0  0  3  0  0  0  0  0  0  0  0  0
    5.4641   -0.2010    0.0000 N   0  0  0  0  0  0  0  0  0  0  0  0
   13.3385   -2.5057    0.0000 N   0  0  0  0  0  0  0  0  0  0  0  0
   14.9221   -1.7010    0.0000 N   0  0  0  0  0  0  0  0  0  0  0  0
   17.9221   -3.4330    0.0000 N   0  0  0  0  0  0  0  0  0  0  0  0
    2.0000    2.7990    0.0000 N   0  0  0  0  0  0  0  0  0  0  0  0
    7.1962   -0.2010    0.0000 C   0  0  2  0  0  0  0  0  0  0  0  0
    8.0622   -0.7010    0.0000 C   0  0  0  0  0  0  0  0  0  0  0  0
    6.3301   -0.7010    0.0000 C   0  0  2  0  0  0  0  0  0  0  0  0
    8.9282    0.7990    0.0000 C   0  0  0  0  0  0  0  0  0  0  0  0
    9.7942    1.2990    0.0000 C   0  0  0  0  0  0  0  0  0  0  0  0
    6.3301   -1.7010    0.0000 C   0  0  0  0  0  0  0  0  0  0  0  0
   10.6603   -1.2010    0.0000 C   0  0  0  0  0  0  0  0  0  0  0  0
    9.7942    2.2990    0.0000 C   0  0  0  0  0  0  0  0  0  0  0  0
   10.6603    0.7990    0.0000 C   0  0  0  0  0  0  0  0  0  0  0  0
    5.4641   -2.2010    0.0000 C   0  0  0  0  0  0  0  0  0  0  0  0
   11.5263   -0.7010    0.0000 C   0  0  0  0  0  0  0  0  0  0  0  0
   10.6603   -2.2010    0.0000 C   0  0  0  0  0  0  0  0  0  0  0  0
    5.4641    0.7990    0.0000 C   0  0  0  0  0  0  0  0  0  0  0  0
    5.4641   -3.2010    0.0000 C   0  0  0  0  0  0  0  0  0  0  0  0
    4.5981   -1.7010    0.0000 C   0  0  0  0  0  0  0  0  0  0  0  0
   12.3923   -1.2010    0.0000 C   0  0  0  0  0  0  0  0  0  0  0  0
   12.3923   -2.2010    0.0000 C   0  0  0  0  0  0  0  0  0  0  0  0
   11.5263   -2.7010    0.0000 C   0  0  0  0  0  0  0  0  0  0  0  0
    4.5981   -3.7010    0.0000 C   0  0  0  0  0  0  0  0  0  0  0  0
    3.7320   -2.2010    0.0000 C   0  0  0  0  0  0  0  0  0  0  0  0
   13.9221   -1.7010    0.0000 C   0  0  0  0  0  0  0  0  0  0  0  0
    3.7320   -3.2010    0.0000 C   0  0  0  0  0  0  0  0  0  0  0  0
   15.4221   -2.5670    0.0000 C   0  0  0  0  0  0  0  0  0  0  0  0
   16.4221   -2.5670    0.0000 C   0  0  0  0  0  0  0  0  0  0  0  0
    4.5981    2.2990    0.0000 C   0  0  0  0  0  0  0  0  0  0  0  0
   16.9221   -3.4330    0.0000 C   0  0  0  0  0  0  0  0  0  0  0  0
    3.7320    2.7990    0.0000 C   0  0  0  0  0  0  0  0  0  0  0  0
   18.4221   -4.2990    0.0000 C   0  0  0  0  0  0  0  0  0  0  0  0
   18.4221   -2.5670    0.0000 C   0  0  0  0  0  0  0  0  0  0  0  0
    3.7320    3.7990    0.0000 C   0  0  0  0  0  0  0  0  0  0  0  0
    2.8660    2.2990    0.0000 C   0  0  0  0  0  0  0  0  0  0  0  0
    2.8660    4.2990    0.0000 C   0  0  0  0  0  0  0  0  0  0  0  0
    2.0000    3.7990    0.0000 C   0  0  0  0  0  0  0  0  0  0  0  0
    6.6592    0.1090    0.0000 H   0  0  0  0  0  0  0  0  0  0  0  0
    7.6636   -1.1759    0.0000 H   0  0  0  0  0  0  0  0  0  0  0  0
    8.4607   -1.1759    0.0000 H   0  0  0  0  0  0  0  0  0  0  0  0
    5.7932   -1.0110    0.0000 H   0  0  0  0  0  0  0  0  0  0  0  0
    8.7162    1.3816    0.0000 H   0  0  0  0  0  0  0  0  0  0  0  0
    8.3176    0.6914    0.0000 H   0  0  0  0  0  0  0  0  0  0  0  0
    9.2573    1.6090    0.0000 H   0  0  0  0  0  0  0  0  0  0  0  0
    6.5422   -2.2836    0.0000 H   0  0  0  0  0  0  0  0  0  0  0  0
    6.9407   -1.5933    0.0000 H   0  0  0  0  0  0  0  0  0  0  0  0
    4.9272   -0.5110    0.0000 H   0  0  0  0  0  0  0  0  0  0  0  0
   10.4142    2.2990    0.0000 H   0  0  0  0  0  0  0  0  0  0  0  0
    9.7942    2.9190    0.0000 H   0  0  0  0  0  0  0  0  0  0  0  0
    9.1742    2.2990    0.0000 H   0  0  0  0  0  0  0  0  0  0  0  0
   10.3503    0.2621    0.0000 H   0  0  0  0  0  0  0  0  0  0  0  0
   11.1972    0.4890    0.0000 H   0  0  0  0  0  0  0  0  0  0  0  0
   10.9703    1.3360    0.0000 H   0  0  0  0  0  0  0  0  0  0  0  0
    7.7331    1.1090    0.0000 H   0  0  0  0  0  0  0  0  0  0  0  0
   11.5263   -0.0810    0.0000 H   0  0  0  0  0  0  0  0  0  0  0  0
   10.1233   -2.5110    0.0000 H   0  0  0  0  0  0  0  0  0  0  0  0
    6.0010   -3.5110    0.0000 H   0  0  0  0  0  0  0  0  0  0  0  0
    4.5981   -1.0810    0.0000 H   0  0  0  0  0  0  0  0  0  0  0  0
   11.5263   -3.3210    0.0000 H   0  0  0  0  0  0  0  0  0  0  0  0
    4.5981   -4.3210    0.0000 H   0  0  0  0  0  0  0  0  0  0  0  0
    3.1951   -1.8910    0.0000 H   0  0  0  0  0  0  0  0  0  0  0  0
    3.1951   -3.5110    0.0000 H   0  0  0  0  0  0  0  0  0  0  0  0
   14.8395   -2.7790    0.0000 H   0  0  0  0  0  0  0  0  0  0  0  0
   15.5298   -3.1776    0.0000 H   0  0  0  0  0  0  0  0  0  0  0  0
   15.2321   -1.1640    0.0000 H   0  0  0  0  0  0  0  0  0  0  0  0
   17.0047   -2.3549    0.0000 H   0  0  0  0  0  0  0  0  0  0  0  0
   16.3145   -1.9564    0.0000 H   0  0  0  0  0  0  0  0  0  0  0  0
    5.2087    2.1914    0.0000 H   0  0  0  0  0  0  0  0  0  0  0  0
    4.8101    2.8816    0.0000 H   0  0  0  0  0  0  0  0  0  0  0  0
   16.3395   -3.6451    0.0000 H   0  0  0  0  0  0  0  0  0  0  0  0
   17.0298   -4.0436    0.0000 H   0  0  0  0  0  0  0  0  0  0  0  0
   17.8852   -4.6090    0.0000 H   0  0  0  0  0  0  0  0  0  0  0  0
   18.7321   -4.8360    0.0000 H   0  0  0  0  0  0  0  0  0  0  0  0
   18.9591   -3.9890    0.0000 H   0  0  0  0  0  0  0  0  0  0  0  0
   18.9591   -2.8770    0.0000 H   0  0  0  0  0  0  0  0  0  0  0  0
   18.7321   -2.0300    0.0000 H   0  0  0  0  0  0  0  0  0  0  0  0
   17.8852   -2.2570    0.0000 H   0  0  0  0  0  0  0  0  0  0  0  0
    4.2690    4.1090    0.0000 H   0  0  0  0  0  0  0  0  0  0  0  0
    2.8660    1.6790    0.0000 H   0  0  0  0  0  0  0  0  0  0  0  0
    2.8660    4.9190    0.0000 H   0  0  0  0  0  0  0  0  0  0  0  0
    1.4631    4.1090    0.0000 H   0  0  0  0  0  0  0  0  0  0  0  0
  1  4  2  0  0  0  0
  1  5  2  0  0  0  0
  1  8  1  0  0  0  0
  1 20  1  0  0  0  0
  2 29  1  0  0  0  0
  2 34  1  0  0  0  0
 14  3  1  6  0  0  0
  3 63  1  0  0  0  0
  6 26  1  0  0  0  0
  6 38  1  0  0  0  0
  7 26  2  0  0  0  0
  8 15  1  0  0  0  0
  8 17  1  0  0  0  0
 16  9  1  6  0  0  0
  9 26  1  0  0  0  0
  9 56  1  0  0  0  0
 10 30  1  0  0  0  0
 10 34  2  0  0  0  0
 11 34  1  0  0  0  0
 11 36  1  0  0  0  0
 11 74  1  0  0  0  0
 12 39  1  0  0  0  0
 12 41  1  0  0  0  0
 12 42  1  0  0  0  0
 13 44  1  0  0  0  0
 13 46  2  0  0  0  0
 14 15  1  0  0  0  0
 14 16  1  0  0  0  0
 14 47  1  0  0  0  0
 15 48  1  0  0  0  0
 15 49  1  0  0  0  0
 16 19  1  0  0  0  0
 16 50  1  0  0  0  0
 17 18  1  0  0  0  0
 17 51  1  0  0  0  0
 17 52  1  0  0  0  0
 18 21  1  0  0  0  0
 18 22  1  0  0  0  0
 18 53  1  0  0  0  0
 19 23  1  0  0  0  0
 19 54  1  0  0  0  0
 19 55  1  0  0  0  0
 20 24  2  0  0  0  0
 20 25  1  0  0  0  0
 21 57  1  0  0  0  0
 21 58  1  0  0  0  0
 21 59  1  0  0  0  0
 22 60  1  0  0  0  0
 22 61  1  0  0  0  0
 22 62  1  0  0  0  0
 23 27  2  0  0  0  0
 23 28  1  0  0  0  0
 24 29  1  0  0  0  0
 24 64  1  0  0  0  0
 25 31  2  0  0  0  0
 25 65  1  0  0  0  0
 27 32  1  0  0  0  0
 27 66  1  0  0  0  0
 28 33  2  0  0  0  0
 28 67  1  0  0  0  0
 29 30  2  0  0  0  0
 30 31  1  0  0  0  0
 31 68  1  0  0  0  0
 32 35  2  0  0  0  0
 32 69  1  0  0  0  0
 33 35  1  0  0  0  0
 33 70  1  0  0  0  0
 35 71  1  0  0  0  0
 36 37  1  0  0  0  0
 36 72  1  0  0  0  0
 36 73  1  0  0  0  0
 37 39  1  0  0  0  0
 37 75  1  0  0  0  0
 37 76  1  0  0  0  0
 38 40  1  0  0  0  0
 38 77  1  0  0  0  0
 38 78  1  0  0  0  0
 39 79  1  0  0  0  0
 39 80  1  0  0  0  0
 40 43  1  0  0  0  0
 40 44  2  0  0  0  0
 41 81  1  0  0  0  0
 41 82  1  0  0  0  0
 41 83  1  0  0  0  0
 42 84  1  0  0  0  0
 42 85  1  0  0  0  0
 42 86  1  0  0  0  0
 43 45  2  0  0  0  0
 43 87  1  0  0  0  0
 44 88  1  0  0  0  0
 45 46  1  0  0  0  0
 45 89  1  0  0  0  0
 46 90  1  0  0  0  0
M  END
> <PUBCHEM_COMPOUND_CID>
509637
> <PUBCHEM_COMPOUND_CANONICALIZED>
1
> <PUBCHEM_CACTVS_COMPLEXITY>
1010
> <PUBCHEM_CACTVS_HBOND_ACCEPTOR>
11
> <PUBCHEM_CACTVS_HBOND_DONOR>
3
> <PUBCHEM_CACTVS_ROTATABLE_BOND>
18
> <PUBCHEM_CACTVS_SUBSKEYS>
AAADcfB/uABgAAAAAAAAAAAAAAAAAWAAAAA8YIAAAAAAAFgB/AAAHgQQSAAADTzh3gY/2bPIFgqsAzRnfHDD8LlxCjlJ2Lw4bJmKNuLg+ZmMcAhu1gPY6CeQ0KIOAAQAAEAAAQAACAAAgAACAAAAAAAAAA==
> <PUBCHEM_IUPAC_OPENEYE_NAME>
3-pyridylmethyl N-[(1S,2R)-1-benzyl-3-[[2-[3-(dimethylamino)propylamino]-1,3-benzothiazol-6-yl]sulfonyl-isobutyl-amino]-2-hydroxy-propyl]carbamate
> <PUBCHEM_IUPAC_CAS_NAME>
N-[(2S,3R)-4-[[2-[3-(dimethylamino)propylamino]-1,3-benzothiazol-6-yl]sulfonyl-(2-methylpropyl)amino]-3-hydroxy-1-phenylbutan-2-yl]carbamic acid 3-pyridinylmethyl ester
> <PUBCHEM_IUPAC_NAME_MARKUP>
pyridin-3-ylmethyl <I>N</I>-[(2<I>S</I>,3<I>R</I>)-4-[[2-[3-(dimethylamino)propylamino]-1,3-benzothiazol-6-yl]sulfonyl-(2-methylpropyl)amino]-3-hydroxy-1-phenylbutan-2-yl]carbamate
> <PUBCHEM_IUPAC_NAME>
pyridin-3-ylmethyl N-[(2S,3R)-4-[[2-[3-(dimethylamino)propylamino]-1,3-benzothiazol-6-yl]sulfonyl-(2-methylpropyl)amino]-3-hydroxy-1-phenylbutan-2-yl]carbamate
> <PUBCHEM_IUPAC_SYSTEMATIC_NAME>
pyridin-3-ylmethyl N-[(2S,3R)-4-[[2-[3-(dimethylamino)propylamino]-1,3-benzothiazol-6-yl]sulfonyl-(2-methylpropyl)amino]-3-oxidanyl-1-phenyl-butan-2-yl]carbamate
> <PUBCHEM_IUPAC_TRADITIONAL_NAME>
N-[(1S,2R)-1-benzyl-3-[[2-[3-(dimethylamino)propylamino]-1,3-benzothiazol-6-yl]sulfonyl-isobutyl-amino]-2-hydroxy-propyl]carbamic acid 3-pyridylmethyl ester
> <PUBCHEM_IUPAC_INCHI>
InChI=1S/C33H44N6O5S2/c1-24(2)21-39(46(42,43)27-13-14-28-31(19-27)45-32(36-28)35-16-9-17-38(3)4)22-30(40)29(18-25-10-6-5-7-11-25)37-33(41)44-23-26-12-8-15-34-20-26/h5-8,10-15,19-20,24,29-30,40H,9,16-18,21-23H2,1-4H3,(H,35,36)(H,37,41)/t29-,30+/m0/s1
> <PUBCHEM_IUPAC_INCHIKEY>
XQRQKKPPOOENNE-XZWHSSHBSA-N
> <PUBCHEM_XLOGP3_AA>
5.1
> <PUBCHEM_EXACT_MASS>
668.28146087
> <PUBCHEM_MOLECULAR_FORMULA>
C33H44N6O5S2
> <PUBCHEM_MOLECULAR_WEIGHT>
668.9
> <PUBCHEM_OPENEYE_CAN_SMILES>
CC(C)CN(CC(C(CC1=CC=CC=C1)NC(=O)OCC2=CN=CC=C2)O)S(=O)(=O)C3=CC4=C(C=C3)N=C(S4)NCCCN(C)C
> <PUBCHEM_OPENEYE_ISO_SMILES>
CC(C)CN(C[C@H]([C@H](CC1=CC=CC=C1)NC(=O)OCC2=CN=CC=C2)O)S(=O)(=O)C3=CC4=C(C=C3)N=C(S4)NCCCN(C)C
> <PUBCHEM_CACTVS_TPSA>
174
> <PUBCHEM_MONOISOTOPIC_WEIGHT>
668.28146087
> <PUBCHEM_TOTAL_CHARGE>
0
> <PUBCHEM_HEAVY_ATOM_COUNT>
46
> <PUBCHEM_ATOM_DEF_STEREO_COUNT>
2
> <PUBCHEM_ATOM_UDEF_STEREO_COUNT>
0
> <PUBCHEM_BOND_DEF_STEREO_COUNT>
0
> <PUBCHEM_BOND_UDEF_STEREO_COUNT>
0
> <PUBCHEM_ISOTOPIC_ATOM_COUNT>
0
> <PUBCHEM_COMPONENT_COUNT>
1
> <PUBCHEM_CACTVS_TAUTO_COUNT>
-1
> <PUBCHEM_COORDINATE_TYPE>
1
5
255
> <PUBCHEM_BONDANNOTATIONS>
10  30  8
10  34  8
13  44  8
13  46  8
2  29  8
2  34  8
20  24  8
20  25  8
23  27  8
23  28  8
24  29  8
25  31  8
27  32  8
28  33  8
29  30  8
14  3  6
30  31  8
32  35  8
33  35  8
40  43  8
40  44  8
43  45  8
45  46  8
16  9  6
$$$$
