509607
  -OEChem-10302200282D
100105  0     1  0  0  0  0  0999 V2000
    9.3056   -1.0605    0.0000 S   0  0  0  0  0  0  0  0  0  0  0  0
   12.8499   -1.2558    0.0000 S   0  0  0  0  0  0  0  0  0  0  0  0
    4.6095    3.4783    0.0000 O   0  0  0  0  0  0  0  0  0  0  0  0
    2.8037    4.0605    0.0000 O   0  0  0  0  0  0  0  0  0  0  0  0
    4.1095    0.9395    0.0000 O   0  0  0  0  0  0  0  0  0  0  0  0
    6.7075    0.4395    0.0000 O   0  0  0  0  0  0  0  0  0  0  0  0
    5.8415    0.9395    0.0000 O   0  0  0  0  0  0  0  0  0  0  0  0
    8.8056   -1.9266    0.0000 O   0  0  0  0  0  0  0  0  0  0  0  0
    9.8056   -0.1945    0.0000 O   0  0  0  0  0  0  0  0  0  0  0  0
   14.4335   -3.7926    0.0000 O   0  0  0  0  0  0  0  0  0  0  0  0
    4.9755   -0.5605    0.0000 N   0  0  0  0  0  0  0  0  0  0  0  0
   16.4335   -0.3285    0.0000 N   0  0  0  0  0  0  0  0  0  0  0  0
    8.4396   -0.5605    0.0000 N   0  0  3  0  0  0  0  0  0  0  0  0
   14.4335   -2.0605    0.0000 N   0  0  0  0  0  0  0  0  0  0  0  0
   12.8499   -2.8653    0.0000 N   0  0  0  0  0  0  0  0  0  0  0  0
    3.3004    2.5273    0.0000 C   0  0  2  0  0  0  0  0  0  0  0  0
    3.6095    3.4783    0.0000 C   0  0  1  0  0  0  0  0  0  0  0  0
    4.1095    1.9395    0.0000 C   0  0  2  0  0  0  0  0  0  0  0  0
    2.3064    2.5298    0.0000 C   0  0  0  0  0  0  0  0  0  0  0  0
    4.9185    2.5273    0.0000 C   0  0  0  0  0  0  0  0  0  0  0  0
    2.0000    3.4755    0.0000 C   0  0  0  0  0  0  0  0  0  0  0  0
    4.9755    0.4395    0.0000 C   0  0  0  0  0  0  0  0  0  0  0  0
    5.8415   -1.0605    0.0000 C   0  0  2  0  0  0  0  0  0  0  0  0
    6.7075   -0.5605    0.0000 C   0  0  1  0  0  0  0  0  0  0  0  0
    7.5736   -1.0605    0.0000 C   0  0  0  0  0  0  0  0  0  0  0  0
    5.8415   -2.0605    0.0000 C   0  0  0  0  0  0  0  0  0  0  0  0
   17.4280   -0.2239    0.0000 C   0  0  0  0  0  0  0  0  0  0  0  0
   16.0268    0.5851    0.0000 C   0  0  0  0  0  0  0  0  0  0  0  0
   17.6360    0.7542    0.0000 C   0  0  0  0  0  0  0  0  0  0  0  0
   16.7699    1.2542    0.0000 C   0  0  0  0  0  0  0  0  0  0  0  0
    8.4396    0.4395    0.0000 C   0  0  0  0  0  0  0  0  0  0  0  0
   15.9335   -1.1945    0.0000 C   0  0  0  0  0  0  0  0  0  0  0  0
    9.3056    0.9395    0.0000 C   0  0  0  0  0  0  0  0  0  0  0  0
    4.9755   -2.5605    0.0000 C   0  0  0  0  0  0  0  0  0  0  0  0
   14.9335   -1.1945    0.0000 C   0  0  0  0  0  0  0  0  0  0  0  0
   10.1716   -1.5605    0.0000 C   0  0  0  0  0  0  0  0  0  0  0  0
    9.3056    1.9395    0.0000 C   0  0  0  0  0  0  0  0  0  0  0  0
   10.1716    0.4395    0.0000 C   0  0  0  0  0  0  0  0  0  0  0  0
    4.9755   -3.5605    0.0000 C   0  0  0  0  0  0  0  0  0  0  0  0
    4.1095   -2.0605    0.0000 C   0  0  0  0  0  0  0  0  0  0  0  0
   11.0377   -1.0605    0.0000 C   0  0  0  0  0  0  0  0  0  0  0  0
   10.1716   -2.5605    0.0000 C   0  0  0  0  0  0  0  0  0  0  0  0
   13.4335   -2.0605    0.0000 C   0  0  0  0  0  0  0  0  0  0  0  0
   11.9037   -1.5605    0.0000 C   0  0  0  0  0  0  0  0  0  0  0  0
   11.9037   -2.5605    0.0000 C   0  0  0  0  0  0  0  0  0  0  0  0
   11.0377   -3.0605    0.0000 C   0  0  0  0  0  0  0  0  0  0  0  0
   14.9335   -2.9266    0.0000 C   0  0  0  0  0  0  0  0  0  0  0  0
    4.1095   -4.0605    0.0000 C   0  0  0  0  0  0  0  0  0  0  0  0
    3.2434   -2.5605    0.0000 C   0  0  0  0  0  0  0  0  0  0  0  0
    3.2434   -3.5605    0.0000 C   0  0  0  0  0  0  0  0  0  0  0  0
   15.9335   -2.9266    0.0000 C   0  0  0  0  0  0  0  0  0  0  0  0
    3.0367    1.7192    0.0000 H   0  0  0  0  0  0  0  0  0  0  0  0
    3.8711    4.2870    0.0000 H   0  0  0  0  0  0  0  0  0  0  0  0
    3.5570    1.6580    0.0000 H   0  0  0  0  0  0  0  0  0  0  0  0
    1.6997    2.4018    0.0000 H   0  0  0  0  0  0  0  0  0  0  0  0
    2.3699    1.9131    0.0000 H   0  0  0  0  0  0  0  0  0  0  0  0
    5.2285    1.9903    0.0000 H   0  0  0  0  0  0  0  0  0  0  0  0
    5.4849    2.7794    0.0000 H   0  0  0  0  0  0  0  0  0  0  0  0
    1.6898    4.0124    0.0000 H   0  0  0  0  0  0  0  0  0  0  0  0
    1.4335    3.2235    0.0000 H   0  0  0  0  0  0  0  0  0  0  0  0
    5.3046   -1.3705    0.0000 H   0  0  0  0  0  0  0  0  0  0  0  0
    7.2445   -0.2505    0.0000 H   0  0  0  0  0  0  0  0  0  0  0  0
    4.4386   -0.8705    0.0000 H   0  0  0  0  0  0  0  0  0  0  0  0
    7.1750   -1.5355    0.0000 H   0  0  0  0  0  0  0  0  0  0  0  0
    7.9721   -1.5355    0.0000 H   0  0  0  0  0  0  0  0  0  0  0  0
    6.0536   -2.6431    0.0000 H   0  0  0  0  0  0  0  0  0  0  0  0
    6.4521   -1.9529    0.0000 H   0  0  0  0  0  0  0  0  0  0  0  0
   17.4280   -0.8439    0.0000 H   0  0  0  0  0  0  0  0  0  0  0  0
   18.0446   -0.2888    0.0000 H   0  0  0  0  0  0  0  0  0  0  0  0
   15.6624    1.0867    0.0000 H   0  0  0  0  0  0  0  0  0  0  0  0
   15.4898    0.2751    0.0000 H   0  0  0  0  0  0  0  0  0  0  0  0
   18.2256    0.5626    0.0000 H   0  0  0  0  0  0  0  0  0  0  0  0
   17.8881    1.3206    0.0000 H   0  0  0  0  0  0  0  0  0  0  0  0
   17.1344    1.7558    0.0000 H   0  0  0  0  0  0  0  0  0  0  0  0
   16.3092    1.6691    0.0000 H   0  0  0  0  0  0  0  0  0  0  0  0
    8.2275    1.0221    0.0000 H   0  0  0  0  0  0  0  0  0  0  0  0
    7.8290    0.3318    0.0000 H   0  0  0  0  0  0  0  0  0  0  0  0
   15.8259   -1.8051    0.0000 H   0  0  0  0  0  0  0  0  0  0  0  0
   16.5161   -1.4066    0.0000 H   0  0  0  0  0  0  0  0  0  0  0  0
    8.7687    1.2495    0.0000 H   0  0  0  0  0  0  0  0  0  0  0  0
   15.0412   -0.5839    0.0000 H   0  0  0  0  0  0  0  0  0  0  0  0
   14.3509   -0.9825    0.0000 H   0  0  0  0  0  0  0  0  0  0  0  0
    7.2445    0.7495    0.0000 H   0  0  0  0  0  0  0  0  0  0  0  0
    9.9256    1.9395    0.0000 H   0  0  0  0  0  0  0  0  0  0  0  0
    9.3056    2.5595    0.0000 H   0  0  0  0  0  0  0  0  0  0  0  0
    8.6856    1.9395    0.0000 H   0  0  0  0  0  0  0  0  0  0  0  0
    9.8616   -0.0975    0.0000 H   0  0  0  0  0  0  0  0  0  0  0  0
   10.7086    0.1295    0.0000 H   0  0  0  0  0  0  0  0  0  0  0  0
   10.4816    0.9764    0.0000 H   0  0  0  0  0  0  0  0  0  0  0  0
   11.0377   -0.4405    0.0000 H   0  0  0  0  0  0  0  0  0  0  0  0
    5.5124   -3.8705    0.0000 H   0  0  0  0  0  0  0  0  0  0  0  0
    4.1095   -1.4405    0.0000 H   0  0  0  0  0  0  0  0  0  0  0  0
    9.6347   -2.8705    0.0000 H   0  0  0  0  0  0  0  0  0  0  0  0
   11.0377   -3.6805    0.0000 H   0  0  0  0  0  0  0  0  0  0  0  0
    4.1095   -4.6805    0.0000 H   0  0  0  0  0  0  0  0  0  0  0  0
    2.7065   -2.2505    0.0000 H   0  0  0  0  0  0  0  0  0  0  0  0
    2.7065   -3.8705    0.0000 H   0  0  0  0  0  0  0  0  0  0  0  0
   15.9335   -3.5466    0.0000 H   0  0  0  0  0  0  0  0  0  0  0  0
   16.5535   -2.9266    0.0000 H   0  0  0  0  0  0  0  0  0  0  0  0
   15.9335   -2.3066    0.0000 H   0  0  0  0  0  0  0  0  0  0  0  0
  1  8  2  0  0  0  0
  1  9  2  0  0  0  0
  1 13  1  0  0  0  0
  1 36  1  0  0  0  0
  2 43  1  0  0  0  0
  2 44  1  0  0  0  0
  3 17  1  0  0  0  0
  3 20  1  0  0  0  0
  4 17  1  0  0  0  0
  4 21  1  0  0  0  0
 18  5  1  6  0  0  0
  5 22  1  0  0  0  0
 24  6  1  6  0  0  0
  6 83  1  0  0  0  0
  7 22  2  0  0  0  0
 10 47  2  0  0  0  0
 11 22  1  0  0  0  0
 23 11  1  6  0  0  0
 11 63  1  0  0  0  0
 12 27  1  0  0  0  0
 12 28  1  0  0  0  0
 12 32  1  0  0  0  0
 13 25  1  0  0  0  0
 13 31  1  0  0  0  0
 14 35  1  0  0  0  0
 14 43  1  0  0  0  0
 14 47  1  0  0  0  0
 15 43  2  0  0  0  0
 15 45  1  0  0  0  0
 16 17  1  0  0  0  0
 16 18  1  0  0  0  0
 16 19  1  0  0  0  0
 16 52  1  1  0  0  0
 17 53  1  1  0  0  0
 18 20  1  0  0  0  0
 18 54  1  0  0  0  0
 19 21  1  0  0  0  0
 19 55  1  0  0  0  0
 19 56  1  0  0  0  0
 20 57  1  0  0  0  0
 20 58  1  0  0  0  0
 21 59  1  0  0  0  0
 21 60  1  0  0  0  0
 23 24  1  0  0  0  0
 23 26  1  0  0  0  0
 23 61  1  0  0  0  0
 24 25  1  0  0  0  0
 24 62  1  0  0  0  0
 25 64  1  0  0  0  0
 25 65  1  0  0  0  0
 26 34  1  0  0  0  0
 26 66  1  0  0  0  0
 26 67  1  0  0  0  0
 27 29  1  0  0  0  0
 27 68  1  0  0  0  0
 27 69  1  0  0  0  0
 28 30  1  0  0  0  0
 28 70  1  0  0  0  0
 28 71  1  0  0  0  0
 29 30  1  0  0  0  0
 29 72  1  0  0  0  0
 29 73  1  0  0  0  0
 30 74  1  0  0  0  0
 30 75  1  0  0  0  0
 31 33  1  0  0  0  0
 31 76  1  0  0  0  0
 31 77  1  0  0  0  0
 32 35  1  0  0  0  0
 32 78  1  0  0  0  0
 32 79  1  0  0  0  0
 33 37  1  0  0  0  0
 33 38  1  0  0  0  0
 33 80  1  0  0  0  0
 34 39  2  0  0  0  0
 34 40  1  0  0  0  0
 35 81  1  0  0  0  0
 35 82  1  0  0  0  0
 36 41  2  0  0  0  0
 36 42  1  0  0  0  0
 37 84  1  0  0  0  0
 37 85  1  0  0  0  0
 37 86  1  0  0  0  0
 38 87  1  0  0  0  0
 38 88  1  0  0  0  0
 38 89  1  0  0  0  0
 39 48  1  0  0  0  0
 39 91  1  0  0  0  0
 40 49  2  0  0  0  0
 40 92  1  0  0  0  0
 41 44  1  0  0  0  0
 41 90  1  0  0  0  0
 42 46  2  0  0  0  0
 42 93  1  0  0  0  0
 44 45  2  0  0  0  0
 45 46  1  0  0  0  0
 46 94  1  0  0  0  0
 47 51  1  0  0  0  0
 48 50  2  0  0  0  0
 48 95  1  0  0  0  0
 49 50  1  0  0  0  0
 49 96  1  0  0  0  0
 50 97  1  0  0  0  0
 51 98  1  0  0  0  0
 51 99  1  0  0  0  0
 51100  1  0  0  0  0
M  END
> <PUBCHEM_COMPOUND_CID>
509607
> <PUBCHEM_COMPOUND_CANONICALIZED>
1
> <PUBCHEM_CACTVS_COMPLEXITY>
1260
> <PUBCHEM_CACTVS_HBOND_ACCEPTOR>
12
> <PUBCHEM_CACTVS_HBOND_DONOR>
2
> <PUBCHEM_CACTVS_ROTATABLE_BOND>
16
> <PUBCHEM_CACTVS_SUBSKEYS>
AAADcfB/vABgAAAAAAAAAAAAAAAAAWLEiQAwYAAAAAASAFgB9AAAHgQQSAAADTzx3gcz2bPIFgqsAyVyfHDD8LlhCjhJmLw4ZJmbcKLg2ZG+YAhtlwLeyCfQ4KgOAAQAAEAAAQAACAAAgAACAAAAAAAAAA==
> <PUBCHEM_IUPAC_OPENEYE_NAME>
[(3aS,4R,6aR)-2,3,3a,4,5,6a-hexahydrofuro[2,3-b]furan-4-yl] N-[(1S,2R)-3-[[2-[acetyl(2-pyrrolidin-1-ylethyl)amino]-1,3-benzothiazol-6-yl]sulfonyl-isobutyl-amino]-1-benzyl-2-hydroxy-propyl]carbamate
> <PUBCHEM_IUPAC_CAS_NAME>
N-[(2S,3R)-4-[[2-[acetyl-[2-(1-pyrrolidinyl)ethyl]amino]-1,3-benzothiazol-6-yl]sulfonyl-(2-methylpropyl)amino]-3-hydroxy-1-phenylbutan-2-yl]carbamic acid [(3aS,4R,6aR)-2,3,3a,4,5,6a-hexahydrofuro[2,3-b]furan-4-yl] ester
> <PUBCHEM_IUPAC_NAME_MARKUP>
[(3<I>a</I><I>S</I>,4<I>R</I>,6<I>a</I><I>R</I>)-2,3,3<I>a</I>,4,5,6<I>a</I>-hexahydrofuro[2,3-b]furan-4-yl] <I>N</I>-[(2<I>S</I>,3<I>R</I>)-4-[[2-[acetyl(2-pyrrolidin-1-ylethyl)amino]-1,3-benzothiazol-6-yl]sulfonyl-(2-methylpropyl)amino]-3-hydroxy-1-phenylbutan-2-yl]carbamate
> <PUBCHEM_IUPAC_NAME>
[(3aS,4R,6aR)-2,3,3a,4,5,6a-hexahydrofuro[2,3-b]furan-4-yl] N-[(2S,3R)-4-[[2-[acetyl(2-pyrrolidin-1-ylethyl)amino]-1,3-benzothiazol-6-yl]sulfonyl-(2-methylpropyl)amino]-3-hydroxy-1-phenylbutan-2-yl]carbamate
> <PUBCHEM_IUPAC_SYSTEMATIC_NAME>
[(3aS,4R,6aR)-2,3,3a,4,5,6a-hexahydrofuro[2,3-b]furan-4-yl] N-[(2S,3R)-4-[[2-[ethanoyl(2-pyrrolidin-1-ylethyl)amino]-1,3-benzothiazol-6-yl]sulfonyl-(2-methylpropyl)amino]-3-oxidanyl-1-phenyl-butan-2-yl]carbamate
> <PUBCHEM_IUPAC_TRADITIONAL_NAME>
N-[(1S,2R)-3-[[2-[acetyl(2-pyrrolidinoethyl)amino]-1,3-benzothiazol-6-yl]sulfonyl-isobutyl-amino]-1-benzyl-2-hydroxy-propyl]carbamic acid [(3aS,4R,6aR)-2,3,3a,4,5,6a-hexahydrofuro[2,3-b]furan-4-yl] ester
> <PUBCHEM_IUPAC_INCHI>
InChI=1S/C36H49N5O8S2/c1-24(2)21-40(22-31(43)30(19-26-9-5-4-6-10-26)38-36(44)49-32-23-48-34-28(32)13-18-47-34)51(45,46)27-11-12-29-33(20-27)50-35(37-29)41(25(3)42)17-16-39-14-7-8-15-39/h4-6,9-12,20,24,28,30-32,34,43H,7-8,13-19,21-23H2,1-3H3,(H,38,44)/t28-,30-,31+,32-,34+/m0/s1
> <PUBCHEM_IUPAC_INCHIKEY>
KVOHEVGLIVJMIR-RAJOBRQESA-N
> <PUBCHEM_XLOGP3_AA>
4.3
> <PUBCHEM_EXACT_MASS>
743.30225589
> <PUBCHEM_MOLECULAR_FORMULA>
C36H49N5O8S2
> <PUBCHEM_MOLECULAR_WEIGHT>
743.9
> <PUBCHEM_OPENEYE_CAN_SMILES>
CC(C)CN(CC(C(CC1=CC=CC=C1)NC(=O)OC2COC3C2CCO3)O)S(=O)(=O)C4=CC5=C(C=C4)N=C(S5)N(CCN6CCCC6)C(=O)C
> <PUBCHEM_OPENEYE_ISO_SMILES>
CC(C)CN(C[C@H]([C@H](CC1=CC=CC=C1)NC(=O)O[C@H]2CO[C@@H]3[C@H]2CCO3)O)S(=O)(=O)C4=CC5=C(C=C4)N=C(S5)N(CCN6CCCC6)C(=O)C
> <PUBCHEM_CACTVS_TPSA>
188
> <PUBCHEM_MONOISOTOPIC_WEIGHT>
743.30225589
> <PUBCHEM_TOTAL_CHARGE>
0
> <PUBCHEM_HEAVY_ATOM_COUNT>
51
> <PUBCHEM_ATOM_DEF_STEREO_COUNT>
5
> <PUBCHEM_ATOM_UDEF_STEREO_COUNT>
0
> <PUBCHEM_BOND_DEF_STEREO_COUNT>
0
> <PUBCHEM_BOND_UDEF_STEREO_COUNT>
0
> <PUBCHEM_ISOTOPIC_ATOM_COUNT>
0
> <PUBCHEM_COMPONENT_COUNT>
1
> <PUBCHEM_CACTVS_TAUTO_COUNT>
-1
> <PUBCHEM_COORDINATE_TYPE>
1
5
255
> <PUBCHEM_BONDANNOTATIONS>
23  11  6
15  43  8
15  45  8
16  52  5
17  53  5
2  43  8
2  44  8
34  39  8
34  40  8
36  41  8
36  42  8
39  48  8
40  49  8
41  44  8
42  46  8
44  45  8
45  46  8
48  50  8
49  50  8
18  5  6
24  6  6
$$$$
