509678
  -OEChem-10302200282D
101106  0     1  0  0  0  0  0999 V2000
    9.3056   -0.7900    0.0000 S   0  0  0  0  0  0  0  0  0  0  0  0
   12.8499   -0.9853    0.0000 S   0  0  0  0  0  0  0  0  0  0  0  0
    4.6095    3.7488    0.0000 O   0  0  0  0  0  0  0  0  0  0  0  0
    2.8037    4.3311    0.0000 O   0  0  0  0  0  0  0  0  0  0  0  0
    4.1095    1.2100    0.0000 O   0  0  0  0  0  0  0  0  0  0  0  0
    6.7075    0.7100    0.0000 O   0  0  0  0  0  0  0  0  0  0  0  0
    5.8415    1.2100    0.0000 O   0  0  0  0  0  0  0  0  0  0  0  0
    8.8056   -1.6560    0.0000 O   0  0  0  0  0  0  0  0  0  0  0  0
    9.8056    0.0760    0.0000 O   0  0  0  0  0  0  0  0  0  0  0  0
    4.9755   -0.2900    0.0000 N   0  0  0  0  0  0  0  0  0  0  0  0
   17.4335   -3.5220    0.0000 N   0  0  0  0  0  0  0  0  0  0  0  0
    8.4396   -0.2900    0.0000 N   0  0  3  0  0  0  0  0  0  0  0  0
   14.4335   -1.7900    0.0000 N   0  0  3  0  0  0  0  0  0  0  0  0
   12.8499   -2.5947    0.0000 N   0  0  0  0  0  0  0  0  0  0  0  0
    3.3004    2.7978    0.0000 C   0  0  2  0  0  0  0  0  0  0  0  0
    3.6095    3.7488    0.0000 C   0  0  1  0  0  0  0  0  0  0  0  0
    4.1095    2.2100    0.0000 C   0  0  2  0  0  0  0  0  0  0  0  0
    2.3064    2.8004    0.0000 C   0  0  0  0  0  0  0  0  0  0  0  0
    4.9185    2.7978    0.0000 C   0  0  0  0  0  0  0  0  0  0  0  0
    2.0000    3.7461    0.0000 C   0  0  0  0  0  0  0  0  0  0  0  0
    4.9755    0.7100    0.0000 C   0  0  0  0  0  0  0  0  0  0  0  0
    5.8415   -0.7900    0.0000 C   0  0  2  0  0  0  0  0  0  0  0  0
    6.7075   -0.2900    0.0000 C   0  0  1  0  0  0  0  0  0  0  0  0
    7.5736   -0.7900    0.0000 C   0  0  0  0  0  0  0  0  0  0  0  0
   18.0213   -4.3311    0.0000 C   0  0  0  0  0  0  0  0  0  0  0  0
   18.0213   -2.7130    0.0000 C   0  0  0  0  0  0  0  0  0  0  0  0
   18.9724   -4.0220    0.0000 C   0  0  0  0  0  0  0  0  0  0  0  0
   18.9724   -3.0220    0.0000 C   0  0  0  0  0  0  0  0  0  0  0  0
    5.8415   -1.7900    0.0000 C   0  0  0  0  0  0  0  0  0  0  0  0
   16.4335   -3.5220    0.0000 C   0  0  0  0  0  0  0  0  0  0  0  0
    8.4396    0.7100    0.0000 C   0  0  0  0  0  0  0  0  0  0  0  0
   15.9335   -2.6560    0.0000 C   0  0  0  0  0  0  0  0  0  0  0  0
    9.3056    1.2100    0.0000 C   0  0  0  0  0  0  0  0  0  0  0  0
    4.9755   -2.2900    0.0000 C   0  0  0  0  0  0  0  0  0  0  0  0
   14.9335   -2.6560    0.0000 C   0  0  0  0  0  0  0  0  0  0  0  0
   10.1716   -1.2900    0.0000 C   0  0  0  0  0  0  0  0  0  0  0  0
    9.3056    2.2100    0.0000 C   0  0  0  0  0  0  0  0  0  0  0  0
   10.1716    0.7100    0.0000 C   0  0  0  0  0  0  0  0  0  0  0  0
    4.9755   -3.2900    0.0000 C   0  0  0  0  0  0  0  0  0  0  0  0
    4.1095   -1.7900    0.0000 C   0  0  0  0  0  0  0  0  0  0  0  0
   11.0377   -0.7900    0.0000 C   0  0  0  0  0  0  0  0  0  0  0  0
   10.1716   -2.2900    0.0000 C   0  0  0  0  0  0  0  0  0  0  0  0
   11.9037   -1.2900    0.0000 C   0  0  0  0  0  0  0  0  0  0  0  0
   13.4335   -1.7900    0.0000 C   0  0  0  0  0  0  0  0  0  0  0  0
   11.9037   -2.2900    0.0000 C   0  0  0  0  0  0  0  0  0  0  0  0
   11.0377   -2.7900    0.0000 C   0  0  0  0  0  0  0  0  0  0  0  0
   14.9335   -0.9240    0.0000 C   0  0  0  0  0  0  0  0  0  0  0  0
    4.1095   -3.7900    0.0000 C   0  0  0  0  0  0  0  0  0  0  0  0
    3.2434   -2.2900    0.0000 C   0  0  0  0  0  0  0  0  0  0  0  0
    3.2434   -3.2900    0.0000 C   0  0  0  0  0  0  0  0  0  0  0  0
    3.0367    1.9897    0.0000 H   0  0  0  0  0  0  0  0  0  0  0  0
    3.8711    4.5576    0.0000 H   0  0  0  0  0  0  0  0  0  0  0  0
    3.5570    1.9285    0.0000 H   0  0  0  0  0  0  0  0  0  0  0  0
    1.6997    2.6723    0.0000 H   0  0  0  0  0  0  0  0  0  0  0  0
    2.3699    2.1836    0.0000 H   0  0  0  0  0  0  0  0  0  0  0  0
    5.2285    2.2608    0.0000 H   0  0  0  0  0  0  0  0  0  0  0  0
    5.4849    3.0500    0.0000 H   0  0  0  0  0  0  0  0  0  0  0  0
    1.6898    4.2829    0.0000 H   0  0  0  0  0  0  0  0  0  0  0  0
    1.4335    3.4940    0.0000 H   0  0  0  0  0  0  0  0  0  0  0  0
    5.8415   -0.1700    0.0000 H   0  0  0  0  0  0  0  0  0  0  0  0
    7.2445    0.0200    0.0000 H   0  0  0  0  0  0  0  0  0  0  0  0
    4.4386   -0.6000    0.0000 H   0  0  0  0  0  0  0  0  0  0  0  0
    7.1750   -1.2649    0.0000 H   0  0  0  0  0  0  0  0  0  0  0  0
    7.9721   -1.2649    0.0000 H   0  0  0  0  0  0  0  0  0  0  0  0
   17.4844   -4.6411    0.0000 H   0  0  0  0  0  0  0  0  0  0  0  0
   18.2735   -4.8975    0.0000 H   0  0  0  0  0  0  0  0  0  0  0  0
   18.2735   -2.1466    0.0000 H   0  0  0  0  0  0  0  0  0  0  0  0
   17.4844   -2.4030    0.0000 H   0  0  0  0  0  0  0  0  0  0  0  0
   19.1013   -4.6285    0.0000 H   0  0  0  0  0  0  0  0  0  0  0  0
   19.5890   -3.9572    0.0000 H   0  0  0  0  0  0  0  0  0  0  0  0
   19.5890   -3.0868    0.0000 H   0  0  0  0  0  0  0  0  0  0  0  0
   19.1013   -2.4156    0.0000 H   0  0  0  0  0  0  0  0  0  0  0  0
    6.0536   -2.3726    0.0000 H   0  0  0  0  0  0  0  0  0  0  0  0
    6.4521   -1.6823    0.0000 H   0  0  0  0  0  0  0  0  0  0  0  0
   15.8509   -3.7341    0.0000 H   0  0  0  0  0  0  0  0  0  0  0  0
   16.5412   -4.1326    0.0000 H   0  0  0  0  0  0  0  0  0  0  0  0
    8.2275    1.2926    0.0000 H   0  0  0  0  0  0  0  0  0  0  0  0
    7.8290    0.6023    0.0000 H   0  0  0  0  0  0  0  0  0  0  0  0
   16.5161   -2.4440    0.0000 H   0  0  0  0  0  0  0  0  0  0  0  0
   15.8259   -2.0454    0.0000 H   0  0  0  0  0  0  0  0  0  0  0  0
    8.7687    1.5200    0.0000 H   0  0  0  0  0  0  0  0  0  0  0  0
   14.3509   -2.8681    0.0000 H   0  0  0  0  0  0  0  0  0  0  0  0
   15.0412   -3.2666    0.0000 H   0  0  0  0  0  0  0  0  0  0  0  0
    7.2445    1.0200    0.0000 H   0  0  0  0  0  0  0  0  0  0  0  0
    9.9256    2.2100    0.0000 H   0  0  0  0  0  0  0  0  0  0  0  0
    9.3056    2.8300    0.0000 H   0  0  0  0  0  0  0  0  0  0  0  0
    8.6856    2.2100    0.0000 H   0  0  0  0  0  0  0  0  0  0  0  0
    9.8616    0.1731    0.0000 H   0  0  0  0  0  0  0  0  0  0  0  0
   10.7086    0.4000    0.0000 H   0  0  0  0  0  0  0  0  0  0  0  0
   10.4816    1.2469    0.0000 H   0  0  0  0  0  0  0  0  0  0  0  0
    5.5124   -3.6000    0.0000 H   0  0  0  0  0  0  0  0  0  0  0  0
    4.1095   -1.1700    0.0000 H   0  0  0  0  0  0  0  0  0  0  0  0
   11.0377   -0.1700    0.0000 H   0  0  0  0  0  0  0  0  0  0  0  0
    9.6347   -2.6000    0.0000 H   0  0  0  0  0  0  0  0  0  0  0  0
   11.0377   -3.4100    0.0000 H   0  0  0  0  0  0  0  0  0  0  0  0
   15.4705   -1.2340    0.0000 H   0  0  0  0  0  0  0  0  0  0  0  0
   15.2435   -0.3870    0.0000 H   0  0  0  0  0  0  0  0  0  0  0  0
   14.3966   -0.6140    0.0000 H   0  0  0  0  0  0  0  0  0  0  0  0
    4.1095   -4.4100    0.0000 H   0  0  0  0  0  0  0  0  0  0  0  0
    2.7065   -1.9800    0.0000 H   0  0  0  0  0  0  0  0  0  0  0  0
    2.7065   -3.6000    0.0000 H   0  0  0  0  0  0  0  0  0  0  0  0
  1  8  2  0  0  0  0
  1  9  2  0  0  0  0
  1 12  1  0  0  0  0
  1 36  1  0  0  0  0
  2 43  1  0  0  0  0
  2 44  1  0  0  0  0
  3 16  1  0  0  0  0
  3 19  1  0  0  0  0
  4 16  1  0  0  0  0
  4 20  1  0  0  0  0
 17  5  1  6  0  0  0
  5 21  1  0  0  0  0
 23  6  1  6  0  0  0
  6 84  1  0  0  0  0
  7 21  2  0  0  0  0
 10 21  1  0  0  0  0
 22 10  1  6  0  0  0
 10 62  1  0  0  0  0
 11 25  1  0  0  0  0
 11 26  1  0  0  0  0
 11 30  1  0  0  0  0
 12 24  1  0  0  0  0
 12 31  1  0  0  0  0
 13 35  1  0  0  0  0
 13 44  1  0  0  0  0
 13 47  1  0  0  0  0
 14 44  2  0  0  0  0
 14 45  1  0  0  0  0
 15 16  1  0  0  0  0
 15 17  1  0  0  0  0
 15 18  1  0  0  0  0
 15 51  1  1  0  0  0
 16 52  1  1  0  0  0
 17 19  1  0  0  0  0
 17 53  1  0  0  0  0
 18 20  1  0  0  0  0
 18 54  1  0  0  0  0
 18 55  1  0  0  0  0
 19 56  1  0  0  0  0
 19 57  1  0  0  0  0
 20 58  1  0  0  0  0
 20 59  1  0  0  0  0
 22 23  1  0  0  0  0
 22 29  1  0  0  0  0
 22 60  1  0  0  0  0
 23 24  1  0  0  0  0
 23 61  1  0  0  0  0
 24 63  1  0  0  0  0
 24 64  1  0  0  0  0
 25 27  1  0  0  0  0
 25 65  1  0  0  0  0
 25 66  1  0  0  0  0
 26 28  1  0  0  0  0
 26 67  1  0  0  0  0
 26 68  1  0  0  0  0
 27 28  1  0  0  0  0
 27 69  1  0  0  0  0
 27 70  1  0  0  0  0
 28 71  1  0  0  0  0
 28 72  1  0  0  0  0
 29 34  1  0  0  0  0
 29 73  1  0  0  0  0
 29 74  1  0  0  0  0
 30 32  1  0  0  0  0
 30 75  1  0  0  0  0
 30 76  1  0  0  0  0
 31 33  1  0  0  0  0
 31 77  1  0  0  0  0
 31 78  1  0  0  0  0
 32 35  1  0  0  0  0
 32 79  1  0  0  0  0
 32 80  1  0  0  0  0
 33 37  1  0  0  0  0
 33 38  1  0  0  0  0
 33 81  1  0  0  0  0
 34 39  2  0  0  0  0
 34 40  1  0  0  0  0
 35 82  1  0  0  0  0
 35 83  1  0  0  0  0
 36 41  2  0  0  0  0
 36 42  1  0  0  0  0
 37 85  1  0  0  0  0
 37 86  1  0  0  0  0
 37 87  1  0  0  0  0
 38 88  1  0  0  0  0
 38 89  1  0  0  0  0
 38 90  1  0  0  0  0
 39 48  1  0  0  0  0
 39 91  1  0  0  0  0
 40 49  2  0  0  0  0
 40 92  1  0  0  0  0
 41 43  1  0  0  0  0
 41 93  1  0  0  0  0
 42 46  2  0  0  0  0
 42 94  1  0  0  0  0
 43 45  2  0  0  0  0
 45 46  1  0  0  0  0
 46 95  1  0  0  0  0
 47 96  1  0  0  0  0
 47 97  1  0  0  0  0
 47 98  1  0  0  0  0
 48 50  2  0  0  0  0
 48 99  1  0  0  0  0
 49 50  1  0  0  0  0
 49100  1  0  0  0  0
 50101  1  0  0  0  0
M  END
> <PUBCHEM_COMPOUND_CID>
509678
> <PUBCHEM_COMPOUND_CANONICALIZED>
1
> <PUBCHEM_CACTVS_COMPLEXITY>
1180
> <PUBCHEM_CACTVS_HBOND_ACCEPTOR>
12
> <PUBCHEM_CACTVS_HBOND_DONOR>
2
> <PUBCHEM_CACTVS_ROTATABLE_BOND>
17
> <PUBCHEM_CACTVS_SUBSKEYS>
AAADcfB/uABgAAAAAAAAAAAAAAAAAWLEiQAwYAAAAAASAFgB9AAAHgQQSAAADTzx3gcz2bPIFgqsAyRifHDD8LlhCjhJmLw4ZJmbMKLg2ZGuYAhtlgLeyCfQ4KgOAAQAAEAAAQAACAAAgAACAAAAAAAAAA==
> <PUBCHEM_IUPAC_OPENEYE_NAME>
[(3aS,4R,6aR)-2,3,3a,4,5,6a-hexahydrofuro[2,3-b]furan-4-yl] N-[(1S,2R)-1-benzyl-2-hydroxy-3-[isobutyl-[[2-[methyl(3-pyrrolidin-1-ylpropyl)amino]-1,3-benzothiazol-6-yl]sulfonyl]amino]propyl]carbamate
> <PUBCHEM_IUPAC_CAS_NAME>
N-[(2S,3R)-3-hydroxy-4-[2-methylpropyl-[[2-[methyl-[3-(1-pyrrolidinyl)propyl]amino]-1,3-benzothiazol-6-yl]sulfonyl]amino]-1-phenylbutan-2-yl]carbamic acid [(3aS,4R,6aR)-2,3,3a,4,5,6a-hexahydrofuro[2,3-b]furan-4-yl] ester
> <PUBCHEM_IUPAC_NAME_MARKUP>
[(3<I>a</I><I>S</I>,4<I>R</I>,6<I>a</I><I>R</I>)-2,3,3<I>a</I>,4,5,6<I>a</I>-hexahydrofuro[2,3-b]furan-4-yl] <I>N</I>-[(2<I>S</I>,3<I>R</I>)-3-hydroxy-4-[2-methylpropyl-[[2-[methyl(3-pyrrolidin-1-ylpropyl)amino]-1,3-benzothiazol-6-yl]sulfonyl]amino]-1-phenylbutan-2-yl]carbamate
> <PUBCHEM_IUPAC_NAME>
[(3aS,4R,6aR)-2,3,3a,4,5,6a-hexahydrofuro[2,3-b]furan-4-yl] N-[(2S,3R)-3-hydroxy-4-[2-methylpropyl-[[2-[methyl(3-pyrrolidin-1-ylpropyl)amino]-1,3-benzothiazol-6-yl]sulfonyl]amino]-1-phenylbutan-2-yl]carbamate
> <PUBCHEM_IUPAC_SYSTEMATIC_NAME>
[(3aS,4R,6aR)-2,3,3a,4,5,6a-hexahydrofuro[2,3-b]furan-4-yl] N-[(2S,3R)-4-[2-methylpropyl-[[2-[methyl(3-pyrrolidin-1-ylpropyl)amino]-1,3-benzothiazol-6-yl]sulfonyl]amino]-3-oxidanyl-1-phenyl-butan-2-yl]carbamate
> <PUBCHEM_IUPAC_TRADITIONAL_NAME>
N-[(1S,2R)-1-benzyl-2-hydroxy-3-[isobutyl-[[2-[methyl(3-pyrrolidinopropyl)amino]-1,3-benzothiazol-6-yl]sulfonyl]amino]propyl]carbamic acid [(3aS,4R,6aR)-2,3,3a,4,5,6a-hexahydrofuro[2,3-b]furan-4-yl] ester
> <PUBCHEM_IUPAC_INCHI>
InChI=1S/C36H51N5O7S2/c1-25(2)22-41(50(44,45)27-12-13-29-33(21-27)49-35(37-29)39(3)15-9-18-40-16-7-8-17-40)23-31(42)30(20-26-10-5-4-6-11-26)38-36(43)48-32-24-47-34-28(32)14-19-46-34/h4-6,10-13,21,25,28,30-32,34,42H,7-9,14-20,22-24H2,1-3H3,(H,38,43)/t28-,30-,31+,32-,34+/m0/s1
> <PUBCHEM_IUPAC_INCHIKEY>
QOOZUVAZLBMAPP-RAJOBRQESA-N
> <PUBCHEM_XLOGP3_AA>
5.4
> <PUBCHEM_EXACT_MASS>
729.32299133
> <PUBCHEM_MOLECULAR_FORMULA>
C36H51N5O7S2
> <PUBCHEM_MOLECULAR_WEIGHT>
730.0
> <PUBCHEM_OPENEYE_CAN_SMILES>
CC(C)CN(CC(C(CC1=CC=CC=C1)NC(=O)OC2COC3C2CCO3)O)S(=O)(=O)C4=CC5=C(C=C4)N=C(S5)N(C)CCCN6CCCC6
> <PUBCHEM_OPENEYE_ISO_SMILES>
CC(C)CN(C[C@H]([C@H](CC1=CC=CC=C1)NC(=O)O[C@H]2CO[C@@H]3[C@H]2CCO3)O)S(=O)(=O)C4=CC5=C(C=C4)N=C(S5)N(C)CCCN6CCCC6
> <PUBCHEM_CACTVS_TPSA>
170
> <PUBCHEM_MONOISOTOPIC_WEIGHT>
729.32299133
> <PUBCHEM_TOTAL_CHARGE>
0
> <PUBCHEM_HEAVY_ATOM_COUNT>
50
> <PUBCHEM_ATOM_DEF_STEREO_COUNT>
5
> <PUBCHEM_ATOM_UDEF_STEREO_COUNT>
0
> <PUBCHEM_BOND_DEF_STEREO_COUNT>
0
> <PUBCHEM_BOND_UDEF_STEREO_COUNT>
0
> <PUBCHEM_ISOTOPIC_ATOM_COUNT>
0
> <PUBCHEM_COMPONENT_COUNT>
1
> <PUBCHEM_CACTVS_TAUTO_COUNT>
-1
> <PUBCHEM_COORDINATE_TYPE>
1
5
255
> <PUBCHEM_BONDANNOTATIONS>
22  10  6
14  44  8
14  45  8
15  51  5
16  52  5
2  43  8
2  44  8
34  39  8
34  40  8
36  41  8
36  42  8
39  48  8
40  49  8
41  43  8
42  46  8
43  45  8
45  46  8
48  50  8
49  50  8
17  5  6
23  6  6
$$$$
