509648
  -OEChem-10302200282D
 94 98  0     1  0  0  0  0  0999 V2000
    8.0622    0.3956    0.0000 S   0  0  0  0  0  0  0  0  0  0  0  0
   11.6065    0.2004    0.0000 S   0  0  0  0  0  0  0  0  0  0  0  0
    5.4641    1.8956    0.0000 O   0  0  0  0  0  0  0  0  0  0  0  0
    2.8660    2.3956    0.0000 O   0  0  0  0  0  0  0  0  0  0  0  0
    7.5622   -0.4704    0.0000 O   0  0  0  0  0  0  0  0  0  0  0  0
    8.5622    1.2617    0.0000 O   0  0  0  0  0  0  0  0  0  0  0  0
    2.3660    4.9345    0.0000 O   0  0  0  0  0  0  0  0  0  0  0  0
    4.5981    2.3956    0.0000 O   0  0  0  0  0  0  0  0  0  0  0  0
   13.1901   -2.3364    0.0000 O   0  0  0  0  0  0  0  0  0  0  0  0
    7.1962    0.8956    0.0000 N   0  0  3  0  0  0  0  0  0  0  0  0
   15.1901   -2.3364    0.0000 N   0  0  0  0  0  0  0  0  0  0  0  0
   16.1901   -4.0685    0.0000 N   0  0  0  0  0  0  0  0  0  0  0  0
    3.7320    0.8956    0.0000 N   0  0  0  0  0  0  0  0  0  0  0  0
   13.1901   -0.6044    0.0000 N   0  0  0  0  0  0  0  0  0  0  0  0
   11.6065   -1.4091    0.0000 N   0  0  0  0  0  0  0  0  0  0  0  0
    5.4641    0.8956    0.0000 C   0  0  1  0  0  0  0  0  0  0  0  0
    4.5981    0.3956    0.0000 C   0  0  2  0  0  0  0  0  0  0  0  0
    6.3301    0.3956    0.0000 C   0  0  0  0  0  0  0  0  0  0  0  0
    7.1962    1.8956    0.0000 C   0  0  0  0  0  0  0  0  0  0  0  0
    8.0622    2.3956    0.0000 C   0  0  0  0  0  0  0  0  0  0  0  0
    4.5981   -0.6044    0.0000 C   0  0  0  0  0  0  0  0  0  0  0  0
   14.6901   -3.2024    0.0000 C   0  0  0  0  0  0  0  0  0  0  0  0
   16.1901   -2.3364    0.0000 C   0  0  0  0  0  0  0  0  0  0  0  0
   15.1901   -4.0685    0.0000 C   0  0  0  0  0  0  0  0  0  0  0  0
   16.6901   -3.2024    0.0000 C   0  0  0  0  0  0  0  0  0  0  0  0
    8.9282   -0.1044    0.0000 C   0  0  0  0  0  0  0  0  0  0  0  0
    3.7320   -1.1044    0.0000 C   0  0  0  0  0  0  0  0  0  0  0  0
   14.6901   -1.4704    0.0000 C   0  0  0  0  0  0  0  0  0  0  0  0
    8.0622    3.3956    0.0000 C   0  0  0  0  0  0  0  0  0  0  0  0
    8.9282    1.8956    0.0000 C   0  0  0  0  0  0  0  0  0  0  0  0
    2.8660    3.3956    0.0000 C   0  0  1  0  0  0  0  0  0  0  0  0
    3.6750    3.9834    0.0000 C   0  0  0  0  0  0  0  0  0  0  0  0
    3.7320    1.8956    0.0000 C   0  0  0  0  0  0  0  0  0  0  0  0
   16.6901   -4.9345    0.0000 C   0  0  0  0  0  0  0  0  0  0  0  0
    2.0570    3.9834    0.0000 C   0  0  0  0  0  0  0  0  0  0  0  0
    9.7942    0.3956    0.0000 C   0  0  0  0  0  0  0  0  0  0  0  0
    3.3660    4.9345    0.0000 C   0  0  0  0  0  0  0  0  0  0  0  0
    8.9282   -1.1044    0.0000 C   0  0  0  0  0  0  0  0  0  0  0  0
   13.6901   -1.4704    0.0000 C   0  0  0  0  0  0  0  0  0  0  0  0
    3.7320   -2.1044    0.0000 C   0  0  0  0  0  0  0  0  0  0  0  0
    2.8660   -0.6044    0.0000 C   0  0  0  0  0  0  0  0  0  0  0  0
   10.6603   -0.1044    0.0000 C   0  0  0  0  0  0  0  0  0  0  0  0
   10.6603   -1.1044    0.0000 C   0  0  0  0  0  0  0  0  0  0  0  0
    9.7942   -1.6044    0.0000 C   0  0  0  0  0  0  0  0  0  0  0  0
   12.1901   -0.6044    0.0000 C   0  0  0  0  0  0  0  0  0  0  0  0
    2.8660   -2.6044    0.0000 C   0  0  0  0  0  0  0  0  0  0  0  0
    2.0000   -1.1044    0.0000 C   0  0  0  0  0  0  0  0  0  0  0  0
    2.0000   -2.1044    0.0000 C   0  0  0  0  0  0  0  0  0  0  0  0
    6.0010    1.2056    0.0000 H   0  0  0  0  0  0  0  0  0  0  0  0
    4.5981    1.0156    0.0000 H   0  0  0  0  0  0  0  0  0  0  0  0
    5.9316   -0.0793    0.0000 H   0  0  0  0  0  0  0  0  0  0  0  0
    6.7287   -0.0793    0.0000 H   0  0  0  0  0  0  0  0  0  0  0  0
    6.9841    2.4782    0.0000 H   0  0  0  0  0  0  0  0  0  0  0  0
    6.5856    1.7880    0.0000 H   0  0  0  0  0  0  0  0  0  0  0  0
    8.0622    1.7756    0.0000 H   0  0  0  0  0  0  0  0  0  0  0  0
    4.8101   -1.1870    0.0000 H   0  0  0  0  0  0  0  0  0  0  0  0
    5.2087   -0.4967    0.0000 H   0  0  0  0  0  0  0  0  0  0  0  0
   14.2151   -2.8039    0.0000 H   0  0  0  0  0  0  0  0  0  0  0  0
   14.2151   -3.6010    0.0000 H   0  0  0  0  0  0  0  0  0  0  0  0
   16.7727   -2.1244    0.0000 H   0  0  0  0  0  0  0  0  0  0  0  0
   16.0824   -1.7258    0.0000 H   0  0  0  0  0  0  0  0  0  0  0  0
   14.6075   -4.2805    0.0000 H   0  0  0  0  0  0  0  0  0  0  0  0
   15.2977   -4.6790    0.0000 H   0  0  0  0  0  0  0  0  0  0  0  0
   17.1650   -3.6010    0.0000 H   0  0  0  0  0  0  0  0  0  0  0  0
   17.1650   -2.8039    0.0000 H   0  0  0  0  0  0  0  0  0  0  0  0
    3.1951    0.5856    0.0000 H   0  0  0  0  0  0  0  0  0  0  0  0
   15.2727   -1.2583    0.0000 H   0  0  0  0  0  0  0  0  0  0  0  0
   14.5824   -0.8598    0.0000 H   0  0  0  0  0  0  0  0  0  0  0  0
    8.6822    3.3956    0.0000 H   0  0  0  0  0  0  0  0  0  0  0  0
    8.0622    4.0156    0.0000 H   0  0  0  0  0  0  0  0  0  0  0  0
    7.4422    3.3956    0.0000 H   0  0  0  0  0  0  0  0  0  0  0  0
    8.6182    1.3587    0.0000 H   0  0  0  0  0  0  0  0  0  0  0  0
    9.4651    1.5856    0.0000 H   0  0  0  0  0  0  0  0  0  0  0  0
    9.2382    2.4326    0.0000 H   0  0  0  0  0  0  0  0  0  0  0  0
    3.4184    3.1142    0.0000 H   0  0  0  0  0  0  0  0  0  0  0  0
    6.0010    2.2056    0.0000 H   0  0  0  0  0  0  0  0  0  0  0  0
    3.9850    3.4465    0.0000 H   0  0  0  0  0  0  0  0  0  0  0  0
    4.2414    4.2356    0.0000 H   0  0  0  0  0  0  0  0  0  0  0  0
   16.1531   -5.2445    0.0000 H   0  0  0  0  0  0  0  0  0  0  0  0
   17.0001   -5.4714    0.0000 H   0  0  0  0  0  0  0  0  0  0  0  0
   17.2270   -4.6245    0.0000 H   0  0  0  0  0  0  0  0  0  0  0  0
    1.4906    4.2356    0.0000 H   0  0  0  0  0  0  0  0  0  0  0  0
    1.7470    3.4465    0.0000 H   0  0  0  0  0  0  0  0  0  0  0  0
    9.7942    1.0156    0.0000 H   0  0  0  0  0  0  0  0  0  0  0  0
    3.9725    5.0634    0.0000 H   0  0  0  0  0  0  0  0  0  0  0  0
    3.3012    5.5511    0.0000 H   0  0  0  0  0  0  0  0  0  0  0  0
    8.3913   -1.4144    0.0000 H   0  0  0  0  0  0  0  0  0  0  0  0
    4.2690   -2.4144    0.0000 H   0  0  0  0  0  0  0  0  0  0  0  0
    2.8660    0.0156    0.0000 H   0  0  0  0  0  0  0  0  0  0  0  0
    9.7942   -2.2244    0.0000 H   0  0  0  0  0  0  0  0  0  0  0  0
   13.5001   -0.0674    0.0000 H   0  0  0  0  0  0  0  0  0  0  0  0
    2.8660   -3.2244    0.0000 H   0  0  0  0  0  0  0  0  0  0  0  0
    1.4631   -0.7944    0.0000 H   0  0  0  0  0  0  0  0  0  0  0  0
    1.4631   -2.4144    0.0000 H   0  0  0  0  0  0  0  0  0  0  0  0
  1  5  2  0  0  0  0
  1  6  2  0  0  0  0
  1 10  1  0  0  0  0
  1 26  1  0  0  0  0
  2 42  1  0  0  0  0
  2 45  1  0  0  0  0
 16  3  1  6  0  0  0
  3 76  1  0  0  0  0
 31  4  1  6  0  0  0
  4 33  1  0  0  0  0
  7 35  1  0  0  0  0
  7 37  1  0  0  0  0
  8 33  2  0  0  0  0
  9 39  2  0  0  0  0
 10 18  1  0  0  0  0
 10 19  1  0  0  0  0
 11 22  1  0  0  0  0
 11 23  1  0  0  0  0
 11 28  1  0  0  0  0
 12 24  1  0  0  0  0
 12 25  1  0  0  0  0
 12 34  1  0  0  0  0
 17 13  1  6  0  0  0
 13 33  1  0  0  0  0
 13 66  1  0  0  0  0
 14 39  1  0  0  0  0
 14 45  1  0  0  0  0
 14 91  1  0  0  0  0
 15 43  1  0  0  0  0
 15 45  2  0  0  0  0
 16 17  1  0  0  0  0
 16 18  1  0  0  0  0
 16 49  1  0  0  0  0
 17 21  1  0  0  0  0
 17 50  1  0  0  0  0
 18 51  1  0  0  0  0
 18 52  1  0  0  0  0
 19 20  1  0  0  0  0
 19 53  1  0  0  0  0
 19 54  1  0  0  0  0
 20 29  1  0  0  0  0
 20 30  1  0  0  0  0
 20 55  1  0  0  0  0
 21 27  1  0  0  0  0
 21 56  1  0  0  0  0
 21 57  1  0  0  0  0
 22 24  1  0  0  0  0
 22 58  1  0  0  0  0
 22 59  1  0  0  0  0
 23 25  1  0  0  0  0
 23 60  1  0  0  0  0
 23 61  1  0  0  0  0
 24 62  1  0  0  0  0
 24 63  1  0  0  0  0
 25 64  1  0  0  0  0
 25 65  1  0  0  0  0
 26 36  2  0  0  0  0
 26 38  1  0  0  0  0
 27 40  2  0  0  0  0
 27 41  1  0  0  0  0
 28 39  1  0  0  0  0
 28 67  1  0  0  0  0
 28 68  1  0  0  0  0
 29 69  1  0  0  0  0
 29 70  1  0  0  0  0
 29 71  1  0  0  0  0
 30 72  1  0  0  0  0
 30 73  1  0  0  0  0
 30 74  1  0  0  0  0
 31 32  1  0  0  0  0
 31 35  1  0  0  0  0
 31 75  1  0  0  0  0
 32 37  1  0  0  0  0
 32 77  1  0  0  0  0
 32 78  1  0  0  0  0
 34 79  1  0  0  0  0
 34 80  1  0  0  0  0
 34 81  1  0  0  0  0
 35 82  1  0  0  0  0
 35 83  1  0  0  0  0
 36 42  1  0  0  0  0
 36 84  1  0  0  0  0
 37 85  1  0  0  0  0
 37 86  1  0  0  0  0
 38 44  2  0  0  0  0
 38 87  1  0  0  0  0
 40 46  1  0  0  0  0
 40 88  1  0  0  0  0
 41 47  2  0  0  0  0
 41 89  1  0  0  0  0
 42 43  2  0  0  0  0
 43 44  1  0  0  0  0
 44 90  1  0  0  0  0
 46 48  2  0  0  0  0
 46 92  1  0  0  0  0
 47 48  1  0  0  0  0
 47 93  1  0  0  0  0
 48 94  1  0  0  0  0
M  END
> <PUBCHEM_COMPOUND_CID>
509648
> <PUBCHEM_COMPOUND_CANONICALIZED>
1
> <PUBCHEM_CACTVS_COMPLEXITY>
1150
> <PUBCHEM_CACTVS_HBOND_ACCEPTOR>
12
> <PUBCHEM_CACTVS_HBOND_DONOR>
3
> <PUBCHEM_CACTVS_ROTATABLE_BOND>
15
> <PUBCHEM_CACTVS_SUBSKEYS>
AAADcfB/uABgAAAAAAAAAAAAAAAAAWJAAAA8YIAAAAAAAFgB9AAAHgQQSAAADTzh3gYz2bPIFgqsAyVyfHDD8LlhCjlJmLy4ZJmLcKLg2bGeYAhtlwLayCeQwKAOAAQAAEAAAQAACAAAgAACAAAAAAAAAA==
> <PUBCHEM_IUPAC_OPENEYE_NAME>
[(3S)-tetrahydrofuran-3-yl] N-[(1S,2R)-1-benzyl-2-hydroxy-3-[isobutyl-[[2-[[2-(4-methylpiperazin-1-yl)acetyl]amino]-1,3-benzothiazol-6-yl]sulfonyl]amino]propyl]carbamate
> <PUBCHEM_IUPAC_CAS_NAME>
N-[(2S,3R)-3-hydroxy-4-[[2-[[2-(4-methyl-1-piperazinyl)-1-oxoethyl]amino]-1,3-benzothiazol-6-yl]sulfonyl-(2-methylpropyl)amino]-1-phenylbutan-2-yl]carbamic acid [(3S)-3-oxolanyl] ester
> <PUBCHEM_IUPAC_NAME_MARKUP>
[(3<I>S</I>)-oxolan-3-yl] <I>N</I>-[(2<I>S</I>,3<I>R</I>)-3-hydroxy-4-[[2-[[2-(4-methylpiperazin-1-yl)acetyl]amino]-1,3-benzothiazol-6-yl]sulfonyl-(2-methylpropyl)amino]-1-phenylbutan-2-yl]carbamate
> <PUBCHEM_IUPAC_NAME>
[(3S)-oxolan-3-yl] N-[(2S,3R)-3-hydroxy-4-[[2-[[2-(4-methylpiperazin-1-yl)acetyl]amino]-1,3-benzothiazol-6-yl]sulfonyl-(2-methylpropyl)amino]-1-phenylbutan-2-yl]carbamate
> <PUBCHEM_IUPAC_SYSTEMATIC_NAME>
[(3S)-oxolan-3-yl] N-[(2S,3R)-4-[[2-[2-(4-methylpiperazin-1-yl)ethanoylamino]-1,3-benzothiazol-6-yl]sulfonyl-(2-methylpropyl)amino]-3-oxidanyl-1-phenyl-butan-2-yl]carbamate
> <PUBCHEM_IUPAC_TRADITIONAL_NAME>
N-[(1S,2R)-1-benzyl-2-hydroxy-3-[isobutyl-[[2-[[2-(4-methylpiperazino)acetyl]amino]-1,3-benzothiazol-6-yl]sulfonyl]amino]propyl]carbamic acid [(3S)-tetrahydrofuran-3-yl] ester
> <PUBCHEM_IUPAC_INCHI>
InChI=1S/C33H46N6O7S2/c1-23(2)19-39(20-29(40)28(17-24-7-5-4-6-8-24)35-33(42)46-25-11-16-45-22-25)48(43,44)26-9-10-27-30(18-26)47-32(34-27)36-31(41)21-38-14-12-37(3)13-15-38/h4-10,18,23,25,28-29,40H,11-17,19-22H2,1-3H3,(H,35,42)(H,34,36,41)/t25-,28-,29+/m0/s1
> <PUBCHEM_IUPAC_INCHIKEY>
GLVHYPBDKOUFIH-OWPQXHQJSA-N
> <PUBCHEM_XLOGP3_AA>
3.4
> <PUBCHEM_EXACT_MASS>
702.28694017
> <PUBCHEM_MOLECULAR_FORMULA>
C33H46N6O7S2
> <PUBCHEM_MOLECULAR_WEIGHT>
702.9
> <PUBCHEM_OPENEYE_CAN_SMILES>
CC(C)CN(CC(C(CC1=CC=CC=C1)NC(=O)OC2CCOC2)O)S(=O)(=O)C3=CC4=C(C=C3)N=C(S4)NC(=O)CN5CCN(CC5)C
> <PUBCHEM_OPENEYE_ISO_SMILES>
CC(C)CN(C[C@H]([C@H](CC1=CC=CC=C1)NC(=O)O[C@H]2CCOC2)O)S(=O)(=O)C3=CC4=C(C=C3)N=C(S4)NC(=O)CN5CCN(CC5)C
> <PUBCHEM_CACTVS_TPSA>
190
> <PUBCHEM_MONOISOTOPIC_WEIGHT>
702.28694017
> <PUBCHEM_TOTAL_CHARGE>
0
> <PUBCHEM_HEAVY_ATOM_COUNT>
48
> <PUBCHEM_ATOM_DEF_STEREO_COUNT>
3
> <PUBCHEM_ATOM_UDEF_STEREO_COUNT>
0
> <PUBCHEM_BOND_DEF_STEREO_COUNT>
0
> <PUBCHEM_BOND_UDEF_STEREO_COUNT>
0
> <PUBCHEM_ISOTOPIC_ATOM_COUNT>
0
> <PUBCHEM_COMPONENT_COUNT>
1
> <PUBCHEM_CACTVS_TAUTO_COUNT>
-1
> <PUBCHEM_COORDINATE_TYPE>
1
5
255
> <PUBCHEM_BONDANNOTATIONS>
17  13  6
15  43  8
15  45  8
2  42  8
2  45  8
26  36  8
26  38  8
27  40  8
27  41  8
16  3  6
36  42  8
38  44  8
31  4  6
40  46  8
41  47  8
42  43  8
43  44  8
46  48  8
47  48  8
$$$$
