509649
  -OEChem-10302200282D
 97101  0     1  0  0  0  0  0999 V2000
    8.9282    0.2601    0.0000 S   0  0  0  0  0  0  0  0  0  0  0  0
   12.4725    0.0648    0.0000 S   0  0  0  0  0  0  0  0  0  0  0  0
    6.3301    1.7601    0.0000 O   0  0  0  0  0  0  0  0  0  0  0  0
    8.4282   -0.6060    0.0000 O   0  0  0  0  0  0  0  0  0  0  0  0
    9.4282    1.1261    0.0000 O   0  0  0  0  0  0  0  0  0  0  0  0
    5.4641    2.2601    0.0000 O   0  0  0  0  0  0  0  0  0  0  0  0
   14.0561   -2.4720    0.0000 O   0  0  0  0  0  0  0  0  0  0  0  0
    8.0622    0.7601    0.0000 N   0  0  3  0  0  0  0  0  0  0  0  0
   16.0561   -2.4720    0.0000 N   0  0  0  0  0  0  0  0  0  0  0  0
   17.0561   -4.2040    0.0000 N   0  0  0  0  0  0  0  0  0  0  0  0
    4.5981    0.7601    0.0000 N   0  0  0  0  0  0  0  0  0  0  0  0
   14.0561   -0.7399    0.0000 N   0  0  0  0  0  0  0  0  0  0  0  0
   12.4725   -1.5447    0.0000 N   0  0  0  0  0  0  0  0  0  0  0  0
    2.8660    4.7601    0.0000 N   0  0  0  0  0  0  0  0  0  0  0  0
    6.3301    0.7601    0.0000 C   0  0  2  0  0  0  0  0  0  0  0  0
    7.1962    0.2601    0.0000 C   0  0  0  0  0  0  0  0  0  0  0  0
    5.4641    0.2601    0.0000 C   0  0  2  0  0  0  0  0  0  0  0  0
    8.0622    1.7601    0.0000 C   0  0  0  0  0  0  0  0  0  0  0  0
    8.9282    2.2601    0.0000 C   0  0  0  0  0  0  0  0  0  0  0  0
    5.4641   -0.7399    0.0000 C   0  0  0  0  0  0  0  0  0  0  0  0
   15.5561   -3.3380    0.0000 C   0  0  0  0  0  0  0  0  0  0  0  0
   17.0561   -2.4720    0.0000 C   0  0  0  0  0  0  0  0  0  0  0  0
   16.0561   -4.2040    0.0000 C   0  0  0  0  0  0  0  0  0  0  0  0
   17.5561   -3.3380    0.0000 C   0  0  0  0  0  0  0  0  0  0  0  0
    9.7942   -0.2399    0.0000 C   0  0  0  0  0  0  0  0  0  0  0  0
   15.5561   -1.6060    0.0000 C   0  0  0  0  0  0  0  0  0  0  0  0
    4.5981   -1.2399    0.0000 C   0  0  0  0  0  0  0  0  0  0  0  0
    8.9282    3.2601    0.0000 C   0  0  0  0  0  0  0  0  0  0  0  0
    9.7942    1.7601    0.0000 C   0  0  0  0  0  0  0  0  0  0  0  0
   17.5561   -5.0701    0.0000 C   0  0  0  0  0  0  0  0  0  0  0  0
    4.5981    1.7601    0.0000 C   0  0  0  0  0  0  0  0  0  0  0  0
   10.6603    0.2601    0.0000 C   0  0  0  0  0  0  0  0  0  0  0  0
    9.7942   -1.2399    0.0000 C   0  0  0  0  0  0  0  0  0  0  0  0
   14.5561   -1.6060    0.0000 C   0  0  0  0  0  0  0  0  0  0  0  0
   11.5263   -0.2399    0.0000 C   0  0  0  0  0  0  0  0  0  0  0  0
    4.5981   -2.2399    0.0000 C   0  0  0  0  0  0  0  0  0  0  0  0
    3.7320   -0.7399    0.0000 C   0  0  0  0  0  0  0  0  0  0  0  0
   11.5263   -1.2399    0.0000 C   0  0  0  0  0  0  0  0  0  0  0  0
   10.6603   -1.7399    0.0000 C   0  0  0  0  0  0  0  0  0  0  0  0
    3.7320    2.2601    0.0000 C   0  0  0  0  0  0  0  0  0  0  0  0
   13.0561   -0.7399    0.0000 C   0  0  0  0  0  0  0  0  0  0  0  0
    3.7320   -2.7399    0.0000 C   0  0  0  0  0  0  0  0  0  0  0  0
    2.8660   -1.2399    0.0000 C   0  0  0  0  0  0  0  0  0  0  0  0
    3.7320    3.2601    0.0000 C   0  0  0  0  0  0  0  0  0  0  0  0
    2.8660   -2.2399    0.0000 C   0  0  0  0  0  0  0  0  0  0  0  0
    2.8660    1.7601    0.0000 C   0  0  0  0  0  0  0  0  0  0  0  0
    2.8660    3.7601    0.0000 C   0  0  0  0  0  0  0  0  0  0  0  0
    4.5981    3.7601    0.0000 C   0  0  0  0  0  0  0  0  0  0  0  0
    2.0000    2.2601    0.0000 C   0  0  0  0  0  0  0  0  0  0  0  0
    2.0000    3.2601    0.0000 C   0  0  0  0  0  0  0  0  0  0  0  0
    6.8671    1.0701    0.0000 H   0  0  0  0  0  0  0  0  0  0  0  0
    6.7976   -0.2149    0.0000 H   0  0  0  0  0  0  0  0  0  0  0  0
    7.5947   -0.2149    0.0000 H   0  0  0  0  0  0  0  0  0  0  0  0
    5.4641    0.8801    0.0000 H   0  0  0  0  0  0  0  0  0  0  0  0
    7.8501    2.3427    0.0000 H   0  0  0  0  0  0  0  0  0  0  0  0
    7.4516    1.6524    0.0000 H   0  0  0  0  0  0  0  0  0  0  0  0
    8.9282    1.6401    0.0000 H   0  0  0  0  0  0  0  0  0  0  0  0
    5.6762   -1.3225    0.0000 H   0  0  0  0  0  0  0  0  0  0  0  0
    6.0747   -0.6323    0.0000 H   0  0  0  0  0  0  0  0  0  0  0  0
   15.0812   -2.9395    0.0000 H   0  0  0  0  0  0  0  0  0  0  0  0
   15.0812   -3.7365    0.0000 H   0  0  0  0  0  0  0  0  0  0  0  0
   17.6387   -2.2599    0.0000 H   0  0  0  0  0  0  0  0  0  0  0  0
   16.9484   -1.8614    0.0000 H   0  0  0  0  0  0  0  0  0  0  0  0
   15.4735   -4.4161    0.0000 H   0  0  0  0  0  0  0  0  0  0  0  0
   16.1638   -4.8146    0.0000 H   0  0  0  0  0  0  0  0  0  0  0  0
   18.0311   -3.7365    0.0000 H   0  0  0  0  0  0  0  0  0  0  0  0
   18.0311   -2.9395    0.0000 H   0  0  0  0  0  0  0  0  0  0  0  0
    4.0611    0.4501    0.0000 H   0  0  0  0  0  0  0  0  0  0  0  0
   16.1387   -1.3939    0.0000 H   0  0  0  0  0  0  0  0  0  0  0  0
   15.4484   -0.9954    0.0000 H   0  0  0  0  0  0  0  0  0  0  0  0
    9.5482    3.2601    0.0000 H   0  0  0  0  0  0  0  0  0  0  0  0
    8.9282    3.8801    0.0000 H   0  0  0  0  0  0  0  0  0  0  0  0
    8.3082    3.2601    0.0000 H   0  0  0  0  0  0  0  0  0  0  0  0
    9.4842    1.2231    0.0000 H   0  0  0  0  0  0  0  0  0  0  0  0
   10.3312    1.4501    0.0000 H   0  0  0  0  0  0  0  0  0  0  0  0
   10.1042    2.2970    0.0000 H   0  0  0  0  0  0  0  0  0  0  0  0
    6.8671    2.0701    0.0000 H   0  0  0  0  0  0  0  0  0  0  0  0
   17.0192   -5.3801    0.0000 H   0  0  0  0  0  0  0  0  0  0  0  0
   17.8661   -5.6070    0.0000 H   0  0  0  0  0  0  0  0  0  0  0  0
   18.0930   -4.7601    0.0000 H   0  0  0  0  0  0  0  0  0  0  0  0
   10.6603    0.8801    0.0000 H   0  0  0  0  0  0  0  0  0  0  0  0
    9.2573   -1.5499    0.0000 H   0  0  0  0  0  0  0  0  0  0  0  0
    5.1350   -2.5499    0.0000 H   0  0  0  0  0  0  0  0  0  0  0  0
    3.7320   -0.1199    0.0000 H   0  0  0  0  0  0  0  0  0  0  0  0
   10.6603   -2.3599    0.0000 H   0  0  0  0  0  0  0  0  0  0  0  0
   14.3661   -0.2030    0.0000 H   0  0  0  0  0  0  0  0  0  0  0  0
    3.7320   -3.3599    0.0000 H   0  0  0  0  0  0  0  0  0  0  0  0
    2.3291   -0.9299    0.0000 H   0  0  0  0  0  0  0  0  0  0  0  0
    2.3291   -2.5499    0.0000 H   0  0  0  0  0  0  0  0  0  0  0  0
    2.8660    1.1401    0.0000 H   0  0  0  0  0  0  0  0  0  0  0  0
    4.9081    3.2231    0.0000 H   0  0  0  0  0  0  0  0  0  0  0  0
    5.1350    4.0701    0.0000 H   0  0  0  0  0  0  0  0  0  0  0  0
    4.2881    4.2970    0.0000 H   0  0  0  0  0  0  0  0  0  0  0  0
    1.4631    1.9501    0.0000 H   0  0  0  0  0  0  0  0  0  0  0  0
    1.4631    3.5701    0.0000 H   0  0  0  0  0  0  0  0  0  0  0  0
    2.3291    5.0701    0.0000 H   0  0  0  0  0  0  0  0  0  0  0  0
    3.4030    5.0701    0.0000 H   0  0  0  0  0  0  0  0  0  0  0  0
  1  4  2  0  0  0  0
  1  5  2  0  0  0  0
  1  8  1  0  0  0  0
  1 25  1  0  0  0  0
  2 35  1  0  0  0  0
  2 41  1  0  0  0  0
 15  3  1  6  0  0  0
  3 77  1  0  0  0  0
  6 31  2  0  0  0  0
  7 34  2  0  0  0  0
  8 16  1  0  0  0  0
  8 18  1  0  0  0  0
  9 21  1  0  0  0  0
  9 22  1  0  0  0  0
  9 26  1  0  0  0  0
 10 23  1  0  0  0  0
 10 24  1  0  0  0  0
 10 30  1  0  0  0  0
 17 11  1  6  0  0  0
 11 31  1  0  0  0  0
 11 68  1  0  0  0  0
 12 34  1  0  0  0  0
 12 41  1  0  0  0  0
 12 86  1  0  0  0  0
 13 38  1  0  0  0  0
 13 41  2  0  0  0  0
 14 47  1  0  0  0  0
 14 96  1  0  0  0  0
 14 97  1  0  0  0  0
 15 16  1  0  0  0  0
 15 17  1  0  0  0  0
 15 51  1  0  0  0  0
 16 52  1  0  0  0  0
 16 53  1  0  0  0  0
 17 20  1  0  0  0  0
 17 54  1  0  0  0  0
 18 19  1  0  0  0  0
 18 55  1  0  0  0  0
 18 56  1  0  0  0  0
 19 28  1  0  0  0  0
 19 29  1  0  0  0  0
 19 57  1  0  0  0  0
 20 27  1  0  0  0  0
 20 58  1  0  0  0  0
 20 59  1  0  0  0  0
 21 23  1  0  0  0  0
 21 60  1  0  0  0  0
 21 61  1  0  0  0  0
 22 24  1  0  0  0  0
 22 62  1  0  0  0  0
 22 63  1  0  0  0  0
 23 64  1  0  0  0  0
 23 65  1  0  0  0  0
 24 66  1  0  0  0  0
 24 67  1  0  0  0  0
 25 32  2  0  0  0  0
 25 33  1  0  0  0  0
 26 34  1  0  0  0  0
 26 69  1  0  0  0  0
 26 70  1  0  0  0  0
 27 36  2  0  0  0  0
 27 37  1  0  0  0  0
 28 71  1  0  0  0  0
 28 72  1  0  0  0  0
 28 73  1  0  0  0  0
 29 74  1  0  0  0  0
 29 75  1  0  0  0  0
 29 76  1  0  0  0  0
 30 78  1  0  0  0  0
 30 79  1  0  0  0  0
 30 80  1  0  0  0  0
 31 40  1  0  0  0  0
 32 35  1  0  0  0  0
 32 81  1  0  0  0  0
 33 39  2  0  0  0  0
 33 82  1  0  0  0  0
 35 38  2  0  0  0  0
 36 42  1  0  0  0  0
 36 83  1  0  0  0  0
 37 43  2  0  0  0  0
 37 84  1  0  0  0  0
 38 39  1  0  0  0  0
 39 85  1  0  0  0  0
 40 44  2  0  0  0  0
 40 46  1  0  0  0  0
 42 45  2  0  0  0  0
 42 87  1  0  0  0  0
 43 45  1  0  0  0  0
 43 88  1  0  0  0  0
 44 47  1  0  0  0  0
 44 48  1  0  0  0  0
 45 89  1  0  0  0  0
 46 49  2  0  0  0  0
 46 90  1  0  0  0  0
 47 50  2  0  0  0  0
 48 91  1  0  0  0  0
 48 92  1  0  0  0  0
 48 93  1  0  0  0  0
 49 50  1  0  0  0  0
 49 94  1  0  0  0  0
 50 95  1  0  0  0  0
M  END
> <PUBCHEM_COMPOUND_CID>
509649
> <PUBCHEM_COMPOUND_CANONICALIZED>
1
> <PUBCHEM_CACTVS_COMPLEXITY>
1210
> <PUBCHEM_CACTVS_HBOND_ACCEPTOR>
11
> <PUBCHEM_CACTVS_HBOND_DONOR>
4
> <PUBCHEM_CACTVS_ROTATABLE_BOND>
14
> <PUBCHEM_CACTVS_SUBSKEYS>
AAADcfB/uABgAAAAAAAAAAAAAAAAAWAAAAA8YMEAAAAAAFgB9AAAHgQQSAAADTzh3gYz0bPIEgqsAyVydHDD8LllCjlJmL24ZNiKcLLg3bGUYQhslwLYyaecyKCOgAQAQEASAQAACACAgCQCAAAAAAAAAA==
> <PUBCHEM_IUPAC_OPENEYE_NAME>
3-amino-N-[(1S,2R)-1-benzyl-2-hydroxy-3-[isobutyl-[[2-[[2-(4-methylpiperazin-1-yl)acetyl]amino]-1,3-benzothiazol-6-yl]sulfonyl]amino]propyl]-2-methyl-benzamide
> <PUBCHEM_IUPAC_CAS_NAME>
3-amino-N-[(2S,3R)-3-hydroxy-4-[[2-[[2-(4-methyl-1-piperazinyl)-1-oxoethyl]amino]-1,3-benzothiazol-6-yl]sulfonyl-(2-methylpropyl)amino]-1-phenylbutan-2-yl]-2-methylbenzamide
> <PUBCHEM_IUPAC_NAME_MARKUP>
3-amino-<I>N</I>-[(2<I>S</I>,3<I>R</I>)-3-hydroxy-4-[[2-[[2-(4-methylpiperazin-1-yl)acetyl]amino]-1,3-benzothiazol-6-yl]sulfonyl-(2-methylpropyl)amino]-1-phenylbutan-2-yl]-2-methylbenzamide
> <PUBCHEM_IUPAC_NAME>
3-amino-N-[(2S,3R)-3-hydroxy-4-[[2-[[2-(4-methylpiperazin-1-yl)acetyl]amino]-1,3-benzothiazol-6-yl]sulfonyl-(2-methylpropyl)amino]-1-phenylbutan-2-yl]-2-methylbenzamide
> <PUBCHEM_IUPAC_SYSTEMATIC_NAME>
3-azanyl-2-methyl-N-[(2S,3R)-4-[[2-[2-(4-methylpiperazin-1-yl)ethanoylamino]-1,3-benzothiazol-6-yl]sulfonyl-(2-methylpropyl)amino]-3-oxidanyl-1-phenyl-butan-2-yl]benzamide
> <PUBCHEM_IUPAC_TRADITIONAL_NAME>
3-amino-N-[(1S,2R)-1-benzyl-2-hydroxy-3-[isobutyl-[[2-[[2-(4-methylpiperazino)acetyl]amino]-1,3-benzothiazol-6-yl]sulfonyl]amino]propyl]-2-methyl-benzamide
> <PUBCHEM_IUPAC_INCHI>
InChI=1S/C36H47N7O5S2/c1-24(2)21-43(22-32(44)31(19-26-9-6-5-7-10-26)38-35(46)28-11-8-12-29(37)25(28)3)50(47,48)27-13-14-30-33(20-27)49-36(39-30)40-34(45)23-42-17-15-41(4)16-18-42/h5-14,20,24,31-32,44H,15-19,21-23,37H2,1-4H3,(H,38,46)(H,39,40,45)/t31-,32+/m0/s1
> <PUBCHEM_IUPAC_INCHIKEY>
JHJWCPJXNHTRBK-AJQTZOPKSA-N
> <PUBCHEM_XLOGP3_AA>
4.3
> <PUBCHEM_EXACT_MASS>
721.30800997
> <PUBCHEM_MOLECULAR_FORMULA>
C36H47N7O5S2
> <PUBCHEM_MOLECULAR_WEIGHT>
721.9
> <PUBCHEM_OPENEYE_CAN_SMILES>
CC1=C(C=CC=C1N)C(=O)NC(CC2=CC=CC=C2)C(CN(CC(C)C)S(=O)(=O)C3=CC4=C(C=C3)N=C(S4)NC(=O)CN5CCN(CC5)C)O
> <PUBCHEM_OPENEYE_ISO_SMILES>
CC1=C(C=CC=C1N)C(=O)N[C@@H](CC2=CC=CC=C2)[C@@H](CN(CC(C)C)S(=O)(=O)C3=CC4=C(C=C3)N=C(S4)NC(=O)CN5CCN(CC5)C)O
> <PUBCHEM_CACTVS_TPSA>
198
> <PUBCHEM_MONOISOTOPIC_WEIGHT>
721.30800997
> <PUBCHEM_TOTAL_CHARGE>
0
> <PUBCHEM_HEAVY_ATOM_COUNT>
50
> <PUBCHEM_ATOM_DEF_STEREO_COUNT>
2
> <PUBCHEM_ATOM_UDEF_STEREO_COUNT>
0
> <PUBCHEM_BOND_DEF_STEREO_COUNT>
0
> <PUBCHEM_BOND_UDEF_STEREO_COUNT>
0
> <PUBCHEM_ISOTOPIC_ATOM_COUNT>
0
> <PUBCHEM_COMPONENT_COUNT>
1
> <PUBCHEM_CACTVS_TAUTO_COUNT>
-1
> <PUBCHEM_COORDINATE_TYPE>
1
5
255
> <PUBCHEM_BONDANNOTATIONS>
17  11  6
13  38  8
13  41  8
2  35  8
2  41  8
25  32  8
25  33  8
27  36  8
27  37  8
15  3  6
32  35  8
33  39  8
35  38  8
36  42  8
37  43  8
38  39  8
40  44  8
40  46  8
42  45  8
43  45  8
44  47  8
46  49  8
47  50  8
49  50  8
$$$$
