509694
  -OEChem-10302200282D
 97100  0     1  0  0  0  0  0999 V2000
    8.1962   -0.2295    0.0000 S   0  0  0  0  0  0  0  0  0  0  0  0
   11.7404   -0.4247    0.0000 S   0  0  0  0  0  0  0  0  0  0  0  0
    5.5981    1.2705    0.0000 O   0  0  0  0  0  0  0  0  0  0  0  0
    7.6962   -1.0955    0.0000 O   0  0  0  0  0  0  0  0  0  0  0  0
    8.6962    0.6366    0.0000 O   0  0  0  0  0  0  0  0  0  0  0  0
    3.0000    1.7705    0.0000 O   0  0  0  0  0  0  0  0  0  0  0  0
    4.7320    1.7705    0.0000 O   0  0  0  0  0  0  0  0  0  0  0  0
   16.3241   -2.9615    0.0000 N   0  0  0  0  0  0  0  0  0  0  0  0
    7.3301    0.2705    0.0000 N   0  0  3  0  0  0  0  0  0  0  0  0
    3.8660    0.2705    0.0000 N   0  0  0  0  0  0  0  0  0  0  0  0
   13.3241   -1.2295    0.0000 N   0  0  3  0  0  0  0  0  0  0  0  0
   11.7404   -2.0342    0.0000 N   0  0  0  0  0  0  0  0  0  0  0  0
   16.9118   -3.7705    0.0000 C   0  0  0  0  0  0  0  0  0  0  0  0
   16.9118   -2.1525    0.0000 C   0  0  0  0  0  0  0  0  0  0  0  0
   17.8629   -3.4615    0.0000 C   0  0  0  0  0  0  0  0  0  0  0  0
   17.8629   -2.4615    0.0000 C   0  0  0  0  0  0  0  0  0  0  0  0
   15.3241   -2.9615    0.0000 C   0  0  0  0  0  0  0  0  0  0  0  0
    5.5981    0.2705    0.0000 C   0  0  2  0  0  0  0  0  0  0  0  0
    6.4641   -0.2295    0.0000 C   0  0  0  0  0  0  0  0  0  0  0  0
    4.7320   -0.2295    0.0000 C   0  0  2  0  0  0  0  0  0  0  0  0
   14.8241   -2.0955    0.0000 C   0  0  0  0  0  0  0  0  0  0  0  0
    7.3301    1.2705    0.0000 C   0  0  0  0  0  0  0  0  0  0  0  0
    8.1962    1.7705    0.0000 C   0  0  0  0  0  0  0  0  0  0  0  0
   13.8241   -2.0955    0.0000 C   0  0  0  0  0  0  0  0  0  0  0  0
    4.7320   -1.2295    0.0000 C   0  0  0  0  0  0  0  0  0  0  0  0
    9.0622   -0.7295    0.0000 C   0  0  0  0  0  0  0  0  0  0  0  0
    8.1962    2.7705    0.0000 C   0  0  0  0  0  0  0  0  0  0  0  0
    9.0622    1.2705    0.0000 C   0  0  0  0  0  0  0  0  0  0  0  0
    3.8660   -1.7295    0.0000 C   0  0  0  0  0  0  0  0  0  0  0  0
   12.3241   -1.2295    0.0000 C   0  0  0  0  0  0  0  0  0  0  0  0
    9.9282   -0.2295    0.0000 C   0  0  0  0  0  0  0  0  0  0  0  0
   10.7942   -0.7295    0.0000 C   0  0  0  0  0  0  0  0  0  0  0  0
    9.0622   -1.7295    0.0000 C   0  0  0  0  0  0  0  0  0  0  0  0
   10.7942   -1.7295    0.0000 C   0  0  0  0  0  0  0  0  0  0  0  0
   13.8241   -0.3634    0.0000 C   0  0  0  0  0  0  0  0  0  0  0  0
    3.8660    1.2705    0.0000 C   0  0  0  0  0  0  0  0  0  0  0  0
    9.9282   -2.2295    0.0000 C   0  0  0  0  0  0  0  0  0  0  0  0
    3.8660   -2.7295    0.0000 C   0  0  0  0  0  0  0  0  0  0  0  0
    3.0000   -1.2295    0.0000 C   0  0  0  0  0  0  0  0  0  0  0  0
    3.0000    2.7705    0.0000 C   0  0  0  0  0  0  0  0  0  0  0  0
    3.0000   -3.2295    0.0000 C   0  0  0  0  0  0  0  0  0  0  0  0
    2.1340   -1.7295    0.0000 C   0  0  0  0  0  0  0  0  0  0  0  0
    2.1340   -2.7295    0.0000 C   0  0  0  0  0  0  0  0  0  0  0  0
    3.0000    3.7705    0.0000 C   0  0  0  0  0  0  0  0  0  0  0  0
    2.0000    2.7705    0.0000 C   0  0  0  0  0  0  0  0  0  0  0  0
    4.0000    2.7705    0.0000 C   0  0  0  0  0  0  0  0  0  0  0  0
   16.3749   -4.0805    0.0000 H   0  0  0  0  0  0  0  0  0  0  0  0
   17.1640   -4.3369    0.0000 H   0  0  0  0  0  0  0  0  0  0  0  0
   17.1640   -1.5861    0.0000 H   0  0  0  0  0  0  0  0  0  0  0  0
   16.3749   -1.8425    0.0000 H   0  0  0  0  0  0  0  0  0  0  0  0
   17.9918   -4.0680    0.0000 H   0  0  0  0  0  0  0  0  0  0  0  0
   18.4795   -3.3967    0.0000 H   0  0  0  0  0  0  0  0  0  0  0  0
   18.4795   -2.5263    0.0000 H   0  0  0  0  0  0  0  0  0  0  0  0
   17.9918   -1.8551    0.0000 H   0  0  0  0  0  0  0  0  0  0  0  0
   14.7414   -3.1736    0.0000 H   0  0  0  0  0  0  0  0  0  0  0  0
   15.4317   -3.5721    0.0000 H   0  0  0  0  0  0  0  0  0  0  0  0
    6.1350    0.5805    0.0000 H   0  0  0  0  0  0  0  0  0  0  0  0
    6.0656   -0.7044    0.0000 H   0  0  0  0  0  0  0  0  0  0  0  0
    6.8626   -0.7044    0.0000 H   0  0  0  0  0  0  0  0  0  0  0  0
    4.7320    0.3905    0.0000 H   0  0  0  0  0  0  0  0  0  0  0  0
   15.4067   -1.8834    0.0000 H   0  0  0  0  0  0  0  0  0  0  0  0
   14.7164   -1.4849    0.0000 H   0  0  0  0  0  0  0  0  0  0  0  0
    7.1181    1.8531    0.0000 H   0  0  0  0  0  0  0  0  0  0  0  0
    6.7196    1.1629    0.0000 H   0  0  0  0  0  0  0  0  0  0  0  0
    8.7331    2.0805    0.0000 H   0  0  0  0  0  0  0  0  0  0  0  0
   13.2414   -2.3075    0.0000 H   0  0  0  0  0  0  0  0  0  0  0  0
   13.9317   -2.7061    0.0000 H   0  0  0  0  0  0  0  0  0  0  0  0
    4.9441   -1.8121    0.0000 H   0  0  0  0  0  0  0  0  0  0  0  0
    5.3426   -1.1218    0.0000 H   0  0  0  0  0  0  0  0  0  0  0  0
    3.3291   -0.0395    0.0000 H   0  0  0  0  0  0  0  0  0  0  0  0
    8.8162    2.7705    0.0000 H   0  0  0  0  0  0  0  0  0  0  0  0
    8.1962    3.3905    0.0000 H   0  0  0  0  0  0  0  0  0  0  0  0
    7.5762    2.7705    0.0000 H   0  0  0  0  0  0  0  0  0  0  0  0
    8.7522    0.7336    0.0000 H   0  0  0  0  0  0  0  0  0  0  0  0
    9.5991    0.9605    0.0000 H   0  0  0  0  0  0  0  0  0  0  0  0
    9.3722    1.8075    0.0000 H   0  0  0  0  0  0  0  0  0  0  0  0
    6.1350    1.5805    0.0000 H   0  0  0  0  0  0  0  0  0  0  0  0
    9.9282    0.3905    0.0000 H   0  0  0  0  0  0  0  0  0  0  0  0
    8.5252   -2.0395    0.0000 H   0  0  0  0  0  0  0  0  0  0  0  0
   14.3610   -0.6734    0.0000 H   0  0  0  0  0  0  0  0  0  0  0  0
   14.1341    0.1735    0.0000 H   0  0  0  0  0  0  0  0  0  0  0  0
   13.2871   -0.0534    0.0000 H   0  0  0  0  0  0  0  0  0  0  0  0
    9.9282   -2.8495    0.0000 H   0  0  0  0  0  0  0  0  0  0  0  0
    4.4030   -3.0395    0.0000 H   0  0  0  0  0  0  0  0  0  0  0  0
    3.0000   -0.6095    0.0000 H   0  0  0  0  0  0  0  0  0  0  0  0
    3.0000   -3.8495    0.0000 H   0  0  0  0  0  0  0  0  0  0  0  0
    1.5970   -1.4195    0.0000 H   0  0  0  0  0  0  0  0  0  0  0  0
    1.5970   -3.0395    0.0000 H   0  0  0  0  0  0  0  0  0  0  0  0
    3.6200    3.7705    0.0000 H   0  0  0  0  0  0  0  0  0  0  0  0
    3.0000    4.3905    0.0000 H   0  0  0  0  0  0  0  0  0  0  0  0
    2.3800    3.7705    0.0000 H   0  0  0  0  0  0  0  0  0  0  0  0
    2.0000    3.3905    0.0000 H   0  0  0  0  0  0  0  0  0  0  0  0
    1.3800    2.7705    0.0000 H   0  0  0  0  0  0  0  0  0  0  0  0
    2.0000    2.1505    0.0000 H   0  0  0  0  0  0  0  0  0  0  0  0
    4.0000    2.1505    0.0000 H   0  0  0  0  0  0  0  0  0  0  0  0
    4.6200    2.7705    0.0000 H   0  0  0  0  0  0  0  0  0  0  0  0
    4.0000    3.3905    0.0000 H   0  0  0  0  0  0  0  0  0  0  0  0
  1  4  2  0  0  0  0
  1  5  2  0  0  0  0
  1  9  1  0  0  0  0
  1 26  1  0  0  0  0
  2 30  1  0  0  0  0
  2 32  1  0  0  0  0
 18  3  1  6  0  0  0
  3 77  1  0  0  0  0
  6 36  1  0  0  0  0
  6 40  1  0  0  0  0
  7 36  2  0  0  0  0
  8 13  1  0  0  0  0
  8 14  1  0  0  0  0
  8 17  1  0  0  0  0
  9 19  1  0  0  0  0
  9 22  1  0  0  0  0
 20 10  1  6  0  0  0
 10 36  1  0  0  0  0
 10 70  1  0  0  0  0
 11 24  1  0  0  0  0
 11 30  1  0  0  0  0
 11 35  1  0  0  0  0
 12 30  2  0  0  0  0
 12 34  1  0  0  0  0
 13 15  1  0  0  0  0
 13 47  1  0  0  0  0
 13 48  1  0  0  0  0
 14 16  1  0  0  0  0
 14 49  1  0  0  0  0
 14 50  1  0  0  0  0
 15 16  1  0  0  0  0
 15 51  1  0  0  0  0
 15 52  1  0  0  0  0
 16 53  1  0  0  0  0
 16 54  1  0  0  0  0
 17 21  1  0  0  0  0
 17 55  1  0  0  0  0
 17 56  1  0  0  0  0
 18 19  1  0  0  0  0
 18 20  1  0  0  0  0
 18 57  1  0  0  0  0
 19 58  1  0  0  0  0
 19 59  1  0  0  0  0
 20 25  1  0  0  0  0
 20 60  1  0  0  0  0
 21 24  1  0  0  0  0
 21 61  1  0  0  0  0
 21 62  1  0  0  0  0
 22 23  1  0  0  0  0
 22 63  1  0  0  0  0
 22 64  1  0  0  0  0
 23 27  1  0  0  0  0
 23 28  1  0  0  0  0
 23 65  1  0  0  0  0
 24 66  1  0  0  0  0
 24 67  1  0  0  0  0
 25 29  1  0  0  0  0
 25 68  1  0  0  0  0
 25 69  1  0  0  0  0
 26 31  2  0  0  0  0
 26 33  1  0  0  0  0
 27 71  1  0  0  0  0
 27 72  1  0  0  0  0
 27 73  1  0  0  0  0
 28 74  1  0  0  0  0
 28 75  1  0  0  0  0
 28 76  1  0  0  0  0
 29 38  2  0  0  0  0
 29 39  1  0  0  0  0
 31 32  1  0  0  0  0
 31 78  1  0  0  0  0
 32 34  2  0  0  0  0
 33 37  2  0  0  0  0
 33 79  1  0  0  0  0
 34 37  1  0  0  0  0
 35 80  1  0  0  0  0
 35 81  1  0  0  0  0
 35 82  1  0  0  0  0
 37 83  1  0  0  0  0
 38 41  1  0  0  0  0
 38 84  1  0  0  0  0
 39 42  2  0  0  0  0
 39 85  1  0  0  0  0
 40 44  1  0  0  0  0
 40 45  1  0  0  0  0
 40 46  1  0  0  0  0
 41 43  2  0  0  0  0
 41 86  1  0  0  0  0
 42 43  1  0  0  0  0
 42 87  1  0  0  0  0
 43 88  1  0  0  0  0
 44 89  1  0  0  0  0
 44 90  1  0  0  0  0
 44 91  1  0  0  0  0
 45 92  1  0  0  0  0
 45 93  1  0  0  0  0
 45 94  1  0  0  0  0
 46 95  1  0  0  0  0
 46 96  1  0  0  0  0
 46 97  1  0  0  0  0
M  END
> <PUBCHEM_COMPOUND_CID>
509694
> <PUBCHEM_COMPOUND_CANONICALIZED>
1
> <PUBCHEM_CACTVS_COMPLEXITY>
1040
> <PUBCHEM_CACTVS_HBOND_ACCEPTOR>
10
> <PUBCHEM_CACTVS_HBOND_DONOR>
2
> <PUBCHEM_CACTVS_ROTATABLE_BOND>
17
> <PUBCHEM_CACTVS_SUBSKEYS>
AAADcfB/uABgAAAAAAAAAAAAAAAAAWLAAAAwYAAAAAAAAFgB9AAAHgQQSAAADXzh3gYz2bPIFgqsAyRifHDD8LlhCjhJmLw4ZJmKMKLg2ZGMYAhslgLYyCeQwKAOAAQAAEAAAQAACAAAgAACAAAAAAAAAA==
> <PUBCHEM_IUPAC_OPENEYE_NAME>
tert-butyl N-[(1S,2R)-1-benzyl-2-hydroxy-3-[isobutyl-[[2-[methyl(3-pyrrolidin-1-ylpropyl)amino]-1,3-benzothiazol-6-yl]sulfonyl]amino]propyl]carbamate
> <PUBCHEM_IUPAC_CAS_NAME>
N-[(2S,3R)-3-hydroxy-4-[2-methylpropyl-[[2-[methyl-[3-(1-pyrrolidinyl)propyl]amino]-1,3-benzothiazol-6-yl]sulfonyl]amino]-1-phenylbutan-2-yl]carbamic acid tert-butyl ester
> <PUBCHEM_IUPAC_NAME_MARKUP>
<I>tert</I>-butyl <I>N</I>-[(2<I>S</I>,3<I>R</I>)-3-hydroxy-4-[2-methylpropyl-[[2-[methyl(3-pyrrolidin-1-ylpropyl)amino]-1,3-benzothiazol-6-yl]sulfonyl]amino]-1-phenylbutan-2-yl]carbamate
> <PUBCHEM_IUPAC_NAME>
tert-butyl N-[(2S,3R)-3-hydroxy-4-[2-methylpropyl-[[2-[methyl(3-pyrrolidin-1-ylpropyl)amino]-1,3-benzothiazol-6-yl]sulfonyl]amino]-1-phenylbutan-2-yl]carbamate
> <PUBCHEM_IUPAC_SYSTEMATIC_NAME>
tert-butyl N-[(2S,3R)-4-[2-methylpropyl-[[2-[methyl(3-pyrrolidin-1-ylpropyl)amino]-1,3-benzothiazol-6-yl]sulfonyl]amino]-3-oxidanyl-1-phenyl-butan-2-yl]carbamate
> <PUBCHEM_IUPAC_TRADITIONAL_NAME>
N-[(1S,2R)-1-benzyl-2-hydroxy-3-[isobutyl-[[2-[methyl(3-pyrrolidinopropyl)amino]-1,3-benzothiazol-6-yl]sulfonyl]amino]propyl]carbamic acid tert-butyl ester
> <PUBCHEM_IUPAC_INCHI>
InChI=1S/C34H51N5O5S2/c1-25(2)23-39(24-30(40)29(21-26-13-8-7-9-14-26)36-33(41)44-34(3,4)5)46(42,43)27-15-16-28-31(22-27)45-32(35-28)37(6)17-12-20-38-18-10-11-19-38/h7-9,13-16,22,25,29-30,40H,10-12,17-21,23-24H2,1-6H3,(H,36,41)/t29-,30+/m0/s1
> <PUBCHEM_IUPAC_INCHIKEY>
LBNXVQTYFIJCPZ-XZWHSSHBSA-N
> <PUBCHEM_XLOGP3_AA>
6.3
> <PUBCHEM_EXACT_MASS>
673.33316209
> <PUBCHEM_MOLECULAR_FORMULA>
C34H51N5O5S2
> <PUBCHEM_MOLECULAR_WEIGHT>
673.9
> <PUBCHEM_OPENEYE_CAN_SMILES>
CC(C)CN(CC(C(CC1=CC=CC=C1)NC(=O)OC(C)(C)C)O)S(=O)(=O)C2=CC3=C(C=C2)N=C(S3)N(C)CCCN4CCCC4
> <PUBCHEM_OPENEYE_ISO_SMILES>
CC(C)CN(C[C@H]([C@H](CC1=CC=CC=C1)NC(=O)OC(C)(C)C)O)S(=O)(=O)C2=CC3=C(C=C2)N=C(S3)N(C)CCCN4CCCC4
> <PUBCHEM_CACTVS_TPSA>
152
> <PUBCHEM_MONOISOTOPIC_WEIGHT>
673.33316209
> <PUBCHEM_TOTAL_CHARGE>
0
> <PUBCHEM_HEAVY_ATOM_COUNT>
46
> <PUBCHEM_ATOM_DEF_STEREO_COUNT>
2
> <PUBCHEM_ATOM_UDEF_STEREO_COUNT>
0
> <PUBCHEM_BOND_DEF_STEREO_COUNT>
0
> <PUBCHEM_BOND_UDEF_STEREO_COUNT>
0
> <PUBCHEM_ISOTOPIC_ATOM_COUNT>
0
> <PUBCHEM_COMPONENT_COUNT>
1
> <PUBCHEM_CACTVS_TAUTO_COUNT>
-1
> <PUBCHEM_COORDINATE_TYPE>
1
5
255
> <PUBCHEM_BONDANNOTATIONS>
20  10  6
12  30  8
12  34  8
2  30  8
2  32  8
26  31  8
26  33  8
29  38  8
29  39  8
18  3  6
31  32  8
32  34  8
33  37  8
34  37  8
38  41  8
39  42  8
41  43  8
42  43  8
$$$$
