509601
  -OEChem-10302200282D
 95100  0     1  0  0  0  0  0999 V2000
    9.3056   -0.3285    0.0000 S   0  0  0  0  0  0  0  0  0  0  0  0
   12.8499   -0.5237    0.0000 S   0  0  0  0  0  0  0  0  0  0  0  0
    4.6095    4.2104    0.0000 O   0  0  0  0  0  0  0  0  0  0  0  0
    2.8037    4.7926    0.0000 O   0  0  0  0  0  0  0  0  0  0  0  0
    4.1095    1.6715    0.0000 O   0  0  0  0  0  0  0  0  0  0  0  0
    6.7075    1.1715    0.0000 O   0  0  0  0  0  0  0  0  0  0  0  0
    5.8415    1.6715    0.0000 O   0  0  0  0  0  0  0  0  0  0  0  0
    8.8056   -1.1945    0.0000 O   0  0  0  0  0  0  0  0  0  0  0  0
    9.8056    0.5375    0.0000 O   0  0  0  0  0  0  0  0  0  0  0  0
   17.4335   -4.7926    0.0000 O   0  0  0  0  0  0  0  0  0  0  0  0
   14.4335   -3.0605    0.0000 O   0  0  0  0  0  0  0  0  0  0  0  0
    4.9755    0.1715    0.0000 N   0  0  0  0  0  0  0  0  0  0  0  0
    8.4396    0.1715    0.0000 N   0  0  3  0  0  0  0  0  0  0  0  0
   16.4335   -3.0605    0.0000 N   0  0  0  0  0  0  0  0  0  0  0  0
   12.8499   -2.1332    0.0000 N   0  0  0  0  0  0  0  0  0  0  0  0
   14.4335   -1.3285    0.0000 N   0  0  0  0  0  0  0  0  0  0  0  0
    3.3004    3.2593    0.0000 C   0  0  2  0  0  0  0  0  0  0  0  0
    3.6095    4.2104    0.0000 C   0  0  1  0  0  0  0  0  0  0  0  0
    4.1095    2.6715    0.0000 C   0  0  2  0  0  0  0  0  0  0  0  0
    2.3064    3.2619    0.0000 C   0  0  0  0  0  0  0  0  0  0  0  0
    4.9185    3.2593    0.0000 C   0  0  0  0  0  0  0  0  0  0  0  0
    2.0000    4.2076    0.0000 C   0  0  0  0  0  0  0  0  0  0  0  0
    5.8415   -0.3285    0.0000 C   0  0  2  0  0  0  0  0  0  0  0  0
    4.9755    1.1715    0.0000 C   0  0  0  0  0  0  0  0  0  0  0  0
    6.7075    0.1715    0.0000 C   0  0  1  0  0  0  0  0  0  0  0  0
    7.5736   -0.3285    0.0000 C   0  0  0  0  0  0  0  0  0  0  0  0
    5.8415   -1.3285    0.0000 C   0  0  0  0  0  0  0  0  0  0  0  0
    8.4396    1.1715    0.0000 C   0  0  0  0  0  0  0  0  0  0  0  0
    9.3056    1.6715    0.0000 C   0  0  0  0  0  0  0  0  0  0  0  0
    4.9755   -1.8285    0.0000 C   0  0  0  0  0  0  0  0  0  0  0  0
   10.1716   -0.8285    0.0000 C   0  0  0  0  0  0  0  0  0  0  0  0
    9.3056    2.6715    0.0000 C   0  0  0  0  0  0  0  0  0  0  0  0
   10.1716    1.1715    0.0000 C   0  0  0  0  0  0  0  0  0  0  0  0
    4.9755   -2.8285    0.0000 C   0  0  0  0  0  0  0  0  0  0  0  0
    4.1095   -1.3285    0.0000 C   0  0  0  0  0  0  0  0  0  0  0  0
   11.0377   -0.3285    0.0000 C   0  0  0  0  0  0  0  0  0  0  0  0
   10.1716   -1.8285    0.0000 C   0  0  0  0  0  0  0  0  0  0  0  0
   11.9037   -0.8285    0.0000 C   0  0  0  0  0  0  0  0  0  0  0  0
    4.1095   -3.3285    0.0000 C   0  0  0  0  0  0  0  0  0  0  0  0
    3.2434   -1.8285    0.0000 C   0  0  0  0  0  0  0  0  0  0  0  0
   11.0377   -2.3285    0.0000 C   0  0  0  0  0  0  0  0  0  0  0  0
   11.9037   -1.8285    0.0000 C   0  0  0  0  0  0  0  0  0  0  0  0
    3.2434   -2.8285    0.0000 C   0  0  0  0  0  0  0  0  0  0  0  0
   15.9335   -3.9266    0.0000 C   0  0  0  0  0  0  0  0  0  0  0  0
   17.4335   -3.0605    0.0000 C   0  0  0  0  0  0  0  0  0  0  0  0
   15.9335   -2.1945    0.0000 C   0  0  0  0  0  0  0  0  0  0  0  0
   16.4335   -4.7926    0.0000 C   0  0  0  0  0  0  0  0  0  0  0  0
   17.9335   -3.9266    0.0000 C   0  0  0  0  0  0  0  0  0  0  0  0
   13.4335   -1.3285    0.0000 C   0  0  0  0  0  0  0  0  0  0  0  0
   14.9335   -2.1945    0.0000 C   0  0  0  0  0  0  0  0  0  0  0  0
    3.0367    2.4512    0.0000 H   0  0  0  0  0  0  0  0  0  0  0  0
    3.8711    5.0191    0.0000 H   0  0  0  0  0  0  0  0  0  0  0  0
    3.5570    2.3900    0.0000 H   0  0  0  0  0  0  0  0  0  0  0  0
    1.6997    3.1339    0.0000 H   0  0  0  0  0  0  0  0  0  0  0  0
    2.3699    2.6452    0.0000 H   0  0  0  0  0  0  0  0  0  0  0  0
    5.2285    2.7224    0.0000 H   0  0  0  0  0  0  0  0  0  0  0  0
    5.4849    3.5115    0.0000 H   0  0  0  0  0  0  0  0  0  0  0  0
    1.6898    4.7444    0.0000 H   0  0  0  0  0  0  0  0  0  0  0  0
    1.4335    3.9556    0.0000 H   0  0  0  0  0  0  0  0  0  0  0  0
    5.8415    0.2915    0.0000 H   0  0  0  0  0  0  0  0  0  0  0  0
    7.2445    0.4815    0.0000 H   0  0  0  0  0  0  0  0  0  0  0  0
    4.4386   -0.1385    0.0000 H   0  0  0  0  0  0  0  0  0  0  0  0
    7.1750   -0.8034    0.0000 H   0  0  0  0  0  0  0  0  0  0  0  0
    7.9721   -0.8034    0.0000 H   0  0  0  0  0  0  0  0  0  0  0  0
    6.0536   -1.9111    0.0000 H   0  0  0  0  0  0  0  0  0  0  0  0
    6.4521   -1.2208    0.0000 H   0  0  0  0  0  0  0  0  0  0  0  0
    8.2275    1.7541    0.0000 H   0  0  0  0  0  0  0  0  0  0  0  0
    7.8290    1.0639    0.0000 H   0  0  0  0  0  0  0  0  0  0  0  0
    8.7687    1.9815    0.0000 H   0  0  0  0  0  0  0  0  0  0  0  0
    7.2445    1.4815    0.0000 H   0  0  0  0  0  0  0  0  0  0  0  0
    9.9256    2.6715    0.0000 H   0  0  0  0  0  0  0  0  0  0  0  0
    9.3056    3.2915    0.0000 H   0  0  0  0  0  0  0  0  0  0  0  0
    8.6856    2.6715    0.0000 H   0  0  0  0  0  0  0  0  0  0  0  0
    9.8616    0.6346    0.0000 H   0  0  0  0  0  0  0  0  0  0  0  0
   10.7086    0.8615    0.0000 H   0  0  0  0  0  0  0  0  0  0  0  0
   10.4816    1.7085    0.0000 H   0  0  0  0  0  0  0  0  0  0  0  0
    5.5124   -3.1385    0.0000 H   0  0  0  0  0  0  0  0  0  0  0  0
    4.1095   -0.7085    0.0000 H   0  0  0  0  0  0  0  0  0  0  0  0
   11.0377    0.2915    0.0000 H   0  0  0  0  0  0  0  0  0  0  0  0
    9.6347   -2.1385    0.0000 H   0  0  0  0  0  0  0  0  0  0  0  0
    4.1095   -3.9485    0.0000 H   0  0  0  0  0  0  0  0  0  0  0  0
    2.7065   -1.5185    0.0000 H   0  0  0  0  0  0  0  0  0  0  0  0
   11.0377   -2.9485    0.0000 H   0  0  0  0  0  0  0  0  0  0  0  0
    2.7065   -3.1385    0.0000 H   0  0  0  0  0  0  0  0  0  0  0  0
   15.4586   -3.5280    0.0000 H   0  0  0  0  0  0  0  0  0  0  0  0
   15.4586   -4.3251    0.0000 H   0  0  0  0  0  0  0  0  0  0  0  0
   18.0161   -2.8485    0.0000 H   0  0  0  0  0  0  0  0  0  0  0  0
   17.3259   -2.4500    0.0000 H   0  0  0  0  0  0  0  0  0  0  0  0
   16.5161   -1.9824    0.0000 H   0  0  0  0  0  0  0  0  0  0  0  0
   15.8259   -1.5839    0.0000 H   0  0  0  0  0  0  0  0  0  0  0  0
   15.8509   -5.0046    0.0000 H   0  0  0  0  0  0  0  0  0  0  0  0
   16.5412   -5.4032    0.0000 H   0  0  0  0  0  0  0  0  0  0  0  0
   18.4085   -4.3251    0.0000 H   0  0  0  0  0  0  0  0  0  0  0  0
   18.4085   -3.5280    0.0000 H   0  0  0  0  0  0  0  0  0  0  0  0
   14.7435   -0.7915    0.0000 H   0  0  0  0  0  0  0  0  0  0  0  0
  1  8  2  0  0  0  0
  1  9  2  0  0  0  0
  1 13  1  0  0  0  0
  1 31  1  0  0  0  0
  2 38  1  0  0  0  0
  2 49  1  0  0  0  0
  3 18  1  0  0  0  0
  3 21  1  0  0  0  0
  4 18  1  0  0  0  0
  4 22  1  0  0  0  0
 19  5  1  6  0  0  0
  5 24  1  0  0  0  0
 25  6  1  6  0  0  0
  6 70  1  0  0  0  0
  7 24  2  0  0  0  0
 10 47  1  0  0  0  0
 10 48  1  0  0  0  0
 11 50  2  0  0  0  0
 23 12  1  6  0  0  0
 12 24  1  0  0  0  0
 12 62  1  0  0  0  0
 13 26  1  0  0  0  0
 13 28  1  0  0  0  0
 14 44  1  0  0  0  0
 14 45  1  0  0  0  0
 14 46  1  0  0  0  0
 15 42  1  0  0  0  0
 15 49  2  0  0  0  0
 16 49  1  0  0  0  0
 16 50  1  0  0  0  0
 16 95  1  0  0  0  0
 17 18  1  0  0  0  0
 17 19  1  0  0  0  0
 17 20  1  0  0  0  0
 17 51  1  1  0  0  0
 18 52  1  1  0  0  0
 19 21  1  0  0  0  0
 19 53  1  0  0  0  0
 20 22  1  0  0  0  0
 20 54  1  0  0  0  0
 20 55  1  0  0  0  0
 21 56  1  0  0  0  0
 21 57  1  0  0  0  0
 22 58  1  0  0  0  0
 22 59  1  0  0  0  0
 23 25  1  0  0  0  0
 23 27  1  0  0  0  0
 23 60  1  0  0  0  0
 25 26  1  0  0  0  0
 25 61  1  0  0  0  0
 26 63  1  0  0  0  0
 26 64  1  0  0  0  0
 27 30  1  0  0  0  0
 27 65  1  0  0  0  0
 27 66  1  0  0  0  0
 28 29  1  0  0  0  0
 28 67  1  0  0  0  0
 28 68  1  0  0  0  0
 29 32  1  0  0  0  0
 29 33  1  0  0  0  0
 29 69  1  0  0  0  0
 30 34  2  0  0  0  0
 30 35  1  0  0  0  0
 31 36  2  0  0  0  0
 31 37  1  0  0  0  0
 32 71  1  0  0  0  0
 32 72  1  0  0  0  0
 32 73  1  0  0  0  0
 33 74  1  0  0  0  0
 33 75  1  0  0  0  0
 33 76  1  0  0  0  0
 34 39  1  0  0  0  0
 34 77  1  0  0  0  0
 35 40  2  0  0  0  0
 35 78  1  0  0  0  0
 36 38  1  0  0  0  0
 36 79  1  0  0  0  0
 37 41  2  0  0  0  0
 37 80  1  0  0  0  0
 38 42  2  0  0  0  0
 39 43  2  0  0  0  0
 39 81  1  0  0  0  0
 40 43  1  0  0  0  0
 40 82  1  0  0  0  0
 41 42  1  0  0  0  0
 41 83  1  0  0  0  0
 43 84  1  0  0  0  0
 44 47  1  0  0  0  0
 44 85  1  0  0  0  0
 44 86  1  0  0  0  0
 45 48  1  0  0  0  0
 45 87  1  0  0  0  0
 45 88  1  0  0  0  0
 46 50  1  0  0  0  0
 46 89  1  0  0  0  0
 46 90  1  0  0  0  0
 47 91  1  0  0  0  0
 47 92  1  0  0  0  0
 48 93  1  0  0  0  0
 48 94  1  0  0  0  0
M  END
> <PUBCHEM_COMPOUND_CID>
509601
> <PUBCHEM_COMPOUND_CANONICALIZED>
1
> <PUBCHEM_CACTVS_COMPLEXITY>
1230
> <PUBCHEM_CACTVS_HBOND_ACCEPTOR>
13
> <PUBCHEM_CACTVS_HBOND_DONOR>
3
> <PUBCHEM_CACTVS_ROTATABLE_BOND>
15
> <PUBCHEM_CACTVS_SUBSKEYS>
AAADcfB/vABgAAAAAAAAAAAAAAAAAWJEgAA8YIAAAAASAFgB9AAAHgQQSAAADTzx3gcz2bPIFgqsAyVyfHDD8LlhCjlJmLy4ZJmbcKLg2bG/YAhtlwLeyCfQ4KgOAAQAAEAAAQAACAAAgAACAAAAAAAAAA==
> <PUBCHEM_IUPAC_OPENEYE_NAME>
[(3aS,4R,6aR)-2,3,3a,4,5,6a-hexahydrofuro[2,3-b]furan-4-yl] N-[(1S,2R)-1-benzyl-2-hydroxy-3-[isobutyl-[[2-[(2-morpholinoacetyl)amino]-1,3-benzothiazol-6-yl]sulfonyl]amino]propyl]carbamate
> <PUBCHEM_IUPAC_CAS_NAME>
N-[(2S,3R)-3-hydroxy-4-[2-methylpropyl-[[2-[[2-(4-morpholinyl)-1-oxoethyl]amino]-1,3-benzothiazol-6-yl]sulfonyl]amino]-1-phenylbutan-2-yl]carbamic acid [(3aS,4R,6aR)-2,3,3a,4,5,6a-hexahydrofuro[2,3-b]furan-4-yl] ester
> <PUBCHEM_IUPAC_NAME_MARKUP>
[(3<I>a</I><I>S</I>,4<I>R</I>,6<I>a</I><I>R</I>)-2,3,3<I>a</I>,4,5,6<I>a</I>-hexahydrofuro[2,3-b]furan-4-yl] <I>N</I>-[(2<I>S</I>,3<I>R</I>)-3-hydroxy-4-[2-methylpropyl-[[2-[(2-morpholin-4-ylacetyl)amino]-1,3-benzothiazol-6-yl]sulfonyl]amino]-1-phenylbutan-2-yl]carbamate
> <PUBCHEM_IUPAC_NAME>
[(3aS,4R,6aR)-2,3,3a,4,5,6a-hexahydrofuro[2,3-b]furan-4-yl] N-[(2S,3R)-3-hydroxy-4-[2-methylpropyl-[[2-[(2-morpholin-4-ylacetyl)amino]-1,3-benzothiazol-6-yl]sulfonyl]amino]-1-phenylbutan-2-yl]carbamate
> <PUBCHEM_IUPAC_SYSTEMATIC_NAME>
[(3aS,4R,6aR)-2,3,3a,4,5,6a-hexahydrofuro[2,3-b]furan-4-yl] N-[(2S,3R)-4-[2-methylpropyl-[[2-(2-morpholin-4-ylethanoylamino)-1,3-benzothiazol-6-yl]sulfonyl]amino]-3-oxidanyl-1-phenyl-butan-2-yl]carbamate
> <PUBCHEM_IUPAC_TRADITIONAL_NAME>
N-[(1S,2R)-1-benzyl-2-hydroxy-3-[isobutyl-[[2-[(2-morpholinoacetyl)amino]-1,3-benzothiazol-6-yl]sulfonyl]amino]propyl]carbamic acid [(3aS,4R,6aR)-2,3,3a,4,5,6a-hexahydrofuro[2,3-b]furan-4-yl] ester
> <PUBCHEM_IUPAC_INCHI>
InChI=1S/C34H45N5O9S2/c1-22(2)18-39(50(43,44)24-8-9-26-30(17-24)49-33(35-26)37-31(41)20-38-11-14-45-15-12-38)19-28(40)27(16-23-6-4-3-5-7-23)36-34(42)48-29-21-47-32-25(29)10-13-46-32/h3-9,17,22,25,27-29,32,40H,10-16,18-21H2,1-2H3,(H,36,42)(H,35,37,41)/t25-,27-,28+,29-,32+/m0/s1
> <PUBCHEM_IUPAC_INCHIKEY>
NGNZCFMVLCLPGK-XDYJQUSWSA-N
> <PUBCHEM_XLOGP3_AA>
3.3
> <PUBCHEM_EXACT_MASS>
731.26587038
> <PUBCHEM_MOLECULAR_FORMULA>
C34H45N5O9S2
> <PUBCHEM_MOLECULAR_WEIGHT>
731.9
> <PUBCHEM_OPENEYE_CAN_SMILES>
CC(C)CN(CC(C(CC1=CC=CC=C1)NC(=O)OC2COC3C2CCO3)O)S(=O)(=O)C4=CC5=C(C=C4)N=C(S5)NC(=O)CN6CCOCC6
> <PUBCHEM_OPENEYE_ISO_SMILES>
CC(C)CN(C[C@H]([C@H](CC1=CC=CC=C1)NC(=O)O[C@H]2CO[C@@H]3[C@H]2CCO3)O)S(=O)(=O)C4=CC5=C(C=C4)N=C(S5)NC(=O)CN6CCOCC6
> <PUBCHEM_CACTVS_TPSA>
206
> <PUBCHEM_MONOISOTOPIC_WEIGHT>
731.26587038
> <PUBCHEM_TOTAL_CHARGE>
0
> <PUBCHEM_HEAVY_ATOM_COUNT>
50
> <PUBCHEM_ATOM_DEF_STEREO_COUNT>
5
> <PUBCHEM_ATOM_UDEF_STEREO_COUNT>
0
> <PUBCHEM_BOND_DEF_STEREO_COUNT>
0
> <PUBCHEM_BOND_UDEF_STEREO_COUNT>
0
> <PUBCHEM_ISOTOPIC_ATOM_COUNT>
0
> <PUBCHEM_COMPONENT_COUNT>
1
> <PUBCHEM_CACTVS_TAUTO_COUNT>
-1
> <PUBCHEM_COORDINATE_TYPE>
1
5
255
> <PUBCHEM_BONDANNOTATIONS>
23  12  6
15  42  8
15  49  8
17  51  5
18  52  5
2  38  8
2  49  8
30  34  8
30  35  8
31  36  8
31  37  8
34  39  8
35  40  8
36  38  8
37  41  8
38  42  8
39  43  8
40  43  8
41  42  8
19  5  6
25  6  6
$$$$
