509631
  -OEChem-10302200282D
 94 97  0     1  0  0  0  0  0999 V2000
    9.6994   -0.4704    0.0000 S   0  0  0  0  0  0  0  0  0  0  0  0
   13.2437   -0.6656    0.0000 S   0  0  0  0  0  0  0  0  0  0  0  0
    5.0032    4.0685    0.0000 O   0  0  0  0  0  0  0  0  0  0  0  0
    4.5032    1.5296    0.0000 O   0  0  0  0  0  0  0  0  0  0  0  0
    7.1013    1.0296    0.0000 O   0  0  0  0  0  0  0  0  0  0  0  0
    9.1994   -1.3364    0.0000 O   0  0  0  0  0  0  0  0  0  0  0  0
   10.1994    0.3956    0.0000 O   0  0  0  0  0  0  0  0  0  0  0  0
    6.2353    1.5296    0.0000 O   0  0  0  0  0  0  0  0  0  0  0  0
    8.8334    0.0296    0.0000 N   0  0  3  0  0  0  0  0  0  0  0  0
    2.7431    2.8084    0.0000 N   0  0  0  0  0  0  0  0  0  0  0  0
    5.3692    0.0296    0.0000 N   0  0  0  0  0  0  0  0  0  0  0  0
   13.2437   -2.2751    0.0000 N   0  0  0  0  0  0  0  0  0  0  0  0
   14.8273   -1.4704    0.0000 N   0  0  0  0  0  0  0  0  0  0  0  0
   16.8273   -3.2024    0.0000 N   0  0  0  0  0  0  0  0  0  0  0  0
    3.6942    3.1174    0.0000 C   0  0  1  0  0  0  0  0  0  0  0  0
    4.5032    2.5296    0.0000 C   0  0  1  0  0  0  0  0  0  0  0  0
    6.2353   -0.4704    0.0000 C   0  0  2  0  0  0  0  0  0  0  0  0
    7.1013    0.0296    0.0000 C   0  0  1  0  0  0  0  0  0  0  0  0
    4.0032    4.0685    0.0000 C   0  0  0  0  0  0  0  0  0  0  0  0
    7.9673   -0.4704    0.0000 C   0  0  0  0  0  0  0  0  0  0  0  0
    5.3122    3.1174    0.0000 C   0  0  0  0  0  0  0  0  0  0  0  0
    8.8334    1.0296    0.0000 C   0  0  0  0  0  0  0  0  0  0  0  0
    6.2353   -1.4704    0.0000 C   0  0  0  0  0  0  0  0  0  0  0  0
    9.6994    1.5296    0.0000 C   0  0  0  0  0  0  0  0  0  0  0  0
    5.3692    1.0296    0.0000 C   0  0  0  0  0  0  0  0  0  0  0  0
    2.0000    3.4775    0.0000 C   0  0  0  0  0  0  0  0  0  0  0  0
    2.5352    1.8302    0.0000 C   0  0  0  0  0  0  0  0  0  0  0  0
    5.3692   -1.9704    0.0000 C   0  0  0  0  0  0  0  0  0  0  0  0
   10.5654   -0.9704    0.0000 C   0  0  0  0  0  0  0  0  0  0  0  0
    9.6994    2.5296    0.0000 C   0  0  0  0  0  0  0  0  0  0  0  0
   10.5654    1.0296    0.0000 C   0  0  0  0  0  0  0  0  0  0  0  0
   11.4314   -0.4704    0.0000 C   0  0  0  0  0  0  0  0  0  0  0  0
    5.3692   -2.9704    0.0000 C   0  0  0  0  0  0  0  0  0  0  0  0
    4.5032   -1.4704    0.0000 C   0  0  0  0  0  0  0  0  0  0  0  0
   10.5654   -1.9704    0.0000 C   0  0  0  0  0  0  0  0  0  0  0  0
   12.2974   -0.9704    0.0000 C   0  0  0  0  0  0  0  0  0  0  0  0
   11.4314   -2.4704    0.0000 C   0  0  0  0  0  0  0  0  0  0  0  0
   12.2974   -1.9704    0.0000 C   0  0  0  0  0  0  0  0  0  0  0  0
    4.5032   -3.4704    0.0000 C   0  0  0  0  0  0  0  0  0  0  0  0
    3.6372   -1.9704    0.0000 C   0  0  0  0  0  0  0  0  0  0  0  0
    3.6372   -2.9704    0.0000 C   0  0  0  0  0  0  0  0  0  0  0  0
   13.8273   -1.4704    0.0000 C   0  0  0  0  0  0  0  0  0  0  0  0
   15.3273   -2.3364    0.0000 C   0  0  0  0  0  0  0  0  0  0  0  0
   16.3273   -2.3364    0.0000 C   0  0  0  0  0  0  0  0  0  0  0  0
   17.8273   -3.2024    0.0000 C   0  0  0  0  0  0  0  0  0  0  0  0
   16.3273   -4.0685    0.0000 C   0  0  0  0  0  0  0  0  0  0  0  0
    3.2558    3.5558    0.0000 H   0  0  0  0  0  0  0  0  0  0  0  0
    3.9508    2.2481    0.0000 H   0  0  0  0  0  0  0  0  0  0  0  0
    6.2353    0.1496    0.0000 H   0  0  0  0  0  0  0  0  0  0  0  0
    7.6382    0.3396    0.0000 H   0  0  0  0  0  0  0  0  0  0  0  0
    4.0680    4.6851    0.0000 H   0  0  0  0  0  0  0  0  0  0  0  0
    3.3968    4.1974    0.0000 H   0  0  0  0  0  0  0  0  0  0  0  0
    7.5688   -0.9453    0.0000 H   0  0  0  0  0  0  0  0  0  0  0  0
    8.3658   -0.9453    0.0000 H   0  0  0  0  0  0  0  0  0  0  0  0
    5.6222    2.5805    0.0000 H   0  0  0  0  0  0  0  0  0  0  0  0
    5.8786    3.3696    0.0000 H   0  0  0  0  0  0  0  0  0  0  0  0
    8.6213    1.6122    0.0000 H   0  0  0  0  0  0  0  0  0  0  0  0
    8.2228    0.9220    0.0000 H   0  0  0  0  0  0  0  0  0  0  0  0
    6.4473   -2.0530    0.0000 H   0  0  0  0  0  0  0  0  0  0  0  0
    6.8458   -1.3627    0.0000 H   0  0  0  0  0  0  0  0  0  0  0  0
    9.1624    1.8396    0.0000 H   0  0  0  0  0  0  0  0  0  0  0  0
    4.8323   -0.2804    0.0000 H   0  0  0  0  0  0  0  0  0  0  0  0
    2.4149    3.9383    0.0000 H   0  0  0  0  0  0  0  0  0  0  0  0
    1.5392    3.8924    0.0000 H   0  0  0  0  0  0  0  0  0  0  0  0
    1.5851    3.0168    0.0000 H   0  0  0  0  0  0  0  0  0  0  0  0
    1.9288    1.9591    0.0000 H   0  0  0  0  0  0  0  0  0  0  0  0
    2.4063    1.2238    0.0000 H   0  0  0  0  0  0  0  0  0  0  0  0
    3.1417    1.7013    0.0000 H   0  0  0  0  0  0  0  0  0  0  0  0
    7.6382    1.3396    0.0000 H   0  0  0  0  0  0  0  0  0  0  0  0
   10.3194    2.5296    0.0000 H   0  0  0  0  0  0  0  0  0  0  0  0
    9.6994    3.1496    0.0000 H   0  0  0  0  0  0  0  0  0  0  0  0
    9.0794    2.5296    0.0000 H   0  0  0  0  0  0  0  0  0  0  0  0
   10.2554    0.4927    0.0000 H   0  0  0  0  0  0  0  0  0  0  0  0
   11.1023    0.7196    0.0000 H   0  0  0  0  0  0  0  0  0  0  0  0
   10.8754    1.5666    0.0000 H   0  0  0  0  0  0  0  0  0  0  0  0
   11.4314    0.1496    0.0000 H   0  0  0  0  0  0  0  0  0  0  0  0
    5.9062   -3.2804    0.0000 H   0  0  0  0  0  0  0  0  0  0  0  0
    4.5032   -0.8504    0.0000 H   0  0  0  0  0  0  0  0  0  0  0  0
   10.0285   -2.2804    0.0000 H   0  0  0  0  0  0  0  0  0  0  0  0
   11.4314   -3.0904    0.0000 H   0  0  0  0  0  0  0  0  0  0  0  0
    4.5032   -4.0904    0.0000 H   0  0  0  0  0  0  0  0  0  0  0  0
    3.1003   -1.6604    0.0000 H   0  0  0  0  0  0  0  0  0  0  0  0
    3.1003   -3.2804    0.0000 H   0  0  0  0  0  0  0  0  0  0  0  0
   15.1373   -0.9334    0.0000 H   0  0  0  0  0  0  0  0  0  0  0  0
   14.7447   -2.5485    0.0000 H   0  0  0  0  0  0  0  0  0  0  0  0
   15.4349   -2.9470    0.0000 H   0  0  0  0  0  0  0  0  0  0  0  0
   16.9099   -2.1244    0.0000 H   0  0  0  0  0  0  0  0  0  0  0  0
   16.2196   -1.7258    0.0000 H   0  0  0  0  0  0  0  0  0  0  0  0
   17.8273   -3.8224    0.0000 H   0  0  0  0  0  0  0  0  0  0  0  0
   18.4473   -3.2024    0.0000 H   0  0  0  0  0  0  0  0  0  0  0  0
   17.8273   -2.5824    0.0000 H   0  0  0  0  0  0  0  0  0  0  0  0
   15.7903   -3.7585    0.0000 H   0  0  0  0  0  0  0  0  0  0  0  0
   16.0173   -4.6054    0.0000 H   0  0  0  0  0  0  0  0  0  0  0  0
   16.8642   -4.3785    0.0000 H   0  0  0  0  0  0  0  0  0  0  0  0
  1  6  2  0  0  0  0
  1  7  2  0  0  0  0
  1  9  1  0  0  0  0
  1 29  1  0  0  0  0
  2 36  1  0  0  0  0
  2 42  1  0  0  0  0
  3 19  1  0  0  0  0
  3 21  1  0  0  0  0
 16  4  1  1  0  0  0
  4 25  1  0  0  0  0
 18  5  1  6  0  0  0
  5 69  1  0  0  0  0
  8 25  2  0  0  0  0
  9 20  1  0  0  0  0
  9 22  1  0  0  0  0
 15 10  1  6  0  0  0
 10 26  1  0  0  0  0
 10 27  1  0  0  0  0
 17 11  1  6  0  0  0
 11 25  1  0  0  0  0
 11 62  1  0  0  0  0
 12 38  1  0  0  0  0
 12 42  2  0  0  0  0
 13 42  1  0  0  0  0
 13 43  1  0  0  0  0
 13 84  1  0  0  0  0
 14 44  1  0  0  0  0
 14 45  1  0  0  0  0
 14 46  1  0  0  0  0
 15 16  1  0  0  0  0
 15 19  1  0  0  0  0
 15 47  1  0  0  0  0
 16 21  1  0  0  0  0
 16 48  1  0  0  0  0
 17 18  1  0  0  0  0
 17 23  1  0  0  0  0
 17 49  1  0  0  0  0
 18 20  1  0  0  0  0
 18 50  1  0  0  0  0
 19 51  1  0  0  0  0
 19 52  1  0  0  0  0
 20 53  1  0  0  0  0
 20 54  1  0  0  0  0
 21 55  1  0  0  0  0
 21 56  1  0  0  0  0
 22 24  1  0  0  0  0
 22 57  1  0  0  0  0
 22 58  1  0  0  0  0
 23 28  1  0  0  0  0
 23 59  1  0  0  0  0
 23 60  1  0  0  0  0
 24 30  1  0  0  0  0
 24 31  1  0  0  0  0
 24 61  1  0  0  0  0
 26 63  1  0  0  0  0
 26 64  1  0  0  0  0
 26 65  1  0  0  0  0
 27 66  1  0  0  0  0
 27 67  1  0  0  0  0
 27 68  1  0  0  0  0
 28 33  2  0  0  0  0
 28 34  1  0  0  0  0
 29 32  2  0  0  0  0
 29 35  1  0  0  0  0
 30 70  1  0  0  0  0
 30 71  1  0  0  0  0
 30 72  1  0  0  0  0
 31 73  1  0  0  0  0
 31 74  1  0  0  0  0
 31 75  1  0  0  0  0
 32 36  1  0  0  0  0
 32 76  1  0  0  0  0
 33 39  1  0  0  0  0
 33 77  1  0  0  0  0
 34 40  2  0  0  0  0
 34 78  1  0  0  0  0
 35 37  2  0  0  0  0
 35 79  1  0  0  0  0
 36 38  2  0  0  0  0
 37 38  1  0  0  0  0
 37 80  1  0  0  0  0
 39 41  2  0  0  0  0
 39 81  1  0  0  0  0
 40 41  1  0  0  0  0
 40 82  1  0  0  0  0
 41 83  1  0  0  0  0
 43 44  1  0  0  0  0
 43 85  1  0  0  0  0
 43 86  1  0  0  0  0
 44 87  1  0  0  0  0
 44 88  1  0  0  0  0
 45 89  1  0  0  0  0
 45 90  1  0  0  0  0
 45 91  1  0  0  0  0
 46 92  1  0  0  0  0
 46 93  1  0  0  0  0
 46 94  1  0  0  0  0
M  END
> <PUBCHEM_COMPOUND_CID>
509631
> <PUBCHEM_COMPOUND_CANONICALIZED>
1
> <PUBCHEM_CACTVS_COMPLEXITY>
1040
> <PUBCHEM_CACTVS_HBOND_ACCEPTOR>
12
> <PUBCHEM_CACTVS_HBOND_DONOR>
3
> <PUBCHEM_CACTVS_ROTATABLE_BOND>
17
> <PUBCHEM_CACTVS_SUBSKEYS>
AAADcfB/uABgAAAAAAAAAAAAAAAAAWJAAAAwYAAAAAAAAFgB9AAAHgQQSAAADTzh3gYz2bPIFgqsAyRifHDD8LlhCjlJmLw4ZJmLcKLg2ZGfYAhvlgLayCeQwKAOAAQAAEAAAQAACAAAgAACAAAAAAAAAA==
> <PUBCHEM_IUPAC_OPENEYE_NAME>
[(3S,4R)-4-(dimethylamino)tetrahydrofuran-3-yl] N-[(1S,2R)-1-benzyl-3-[[2-[2-(dimethylamino)ethylamino]-1,3-benzothiazol-6-yl]sulfonyl-isobutyl-amino]-2-hydroxy-propyl]carbamate
> <PUBCHEM_IUPAC_CAS_NAME>
N-[(2S,3R)-4-[[2-[2-(dimethylamino)ethylamino]-1,3-benzothiazol-6-yl]sulfonyl-(2-methylpropyl)amino]-3-hydroxy-1-phenylbutan-2-yl]carbamic acid [(3S,4R)-4-(dimethylamino)-3-oxolanyl] ester
> <PUBCHEM_IUPAC_NAME_MARKUP>
[(3<I>S</I>,4<I>R</I>)-4-(dimethylamino)oxolan-3-yl] <I>N</I>-[(2<I>S</I>,3<I>R</I>)-4-[[2-[2-(dimethylamino)ethylamino]-1,3-benzothiazol-6-yl]sulfonyl-(2-methylpropyl)amino]-3-hydroxy-1-phenylbutan-2-yl]carbamate
> <PUBCHEM_IUPAC_NAME>
[(3S,4R)-4-(dimethylamino)oxolan-3-yl] N-[(2S,3R)-4-[[2-[2-(dimethylamino)ethylamino]-1,3-benzothiazol-6-yl]sulfonyl-(2-methylpropyl)amino]-3-hydroxy-1-phenylbutan-2-yl]carbamate
> <PUBCHEM_IUPAC_SYSTEMATIC_NAME>
[(3S,4R)-4-(dimethylamino)oxolan-3-yl] N-[(2S,3R)-4-[[2-[2-(dimethylamino)ethylamino]-1,3-benzothiazol-6-yl]sulfonyl-(2-methylpropyl)amino]-3-oxidanyl-1-phenyl-butan-2-yl]carbamate
> <PUBCHEM_IUPAC_TRADITIONAL_NAME>
N-[(1S,2R)-1-benzyl-3-[[2-[2-(dimethylamino)ethylamino]-1,3-benzothiazol-6-yl]sulfonyl-isobutyl-amino]-2-hydroxy-propyl]carbamic acid [(3S,4R)-4-(dimethylamino)tetrahydrofuran-3-yl] ester
> <PUBCHEM_IUPAC_INCHI>
InChI=1S/C32H48N6O6S2/c1-22(2)18-38(46(41,42)24-12-13-25-30(17-24)45-31(34-25)33-14-15-36(3)4)19-28(39)26(16-23-10-8-7-9-11-23)35-32(40)44-29-21-43-20-27(29)37(5)6/h7-13,17,22,26-29,39H,14-16,18-21H2,1-6H3,(H,33,34)(H,35,40)/t26-,27+,28+,29+/m0/s1
> <PUBCHEM_IUPAC_INCHIKEY>
LNLXYKVCAMRDFH-AMSOURPBSA-N
> <PUBCHEM_XLOGP3_AA>
4.1
> <PUBCHEM_EXACT_MASS>
676.30767562
> <PUBCHEM_MOLECULAR_FORMULA>
C32H48N6O6S2
> <PUBCHEM_MOLECULAR_WEIGHT>
676.9
> <PUBCHEM_OPENEYE_CAN_SMILES>
CC(C)CN(CC(C(CC1=CC=CC=C1)NC(=O)OC2COCC2N(C)C)O)S(=O)(=O)C3=CC4=C(C=C3)N=C(S4)NCCN(C)C
> <PUBCHEM_OPENEYE_ISO_SMILES>
CC(C)CN(C[C@H]([C@H](CC1=CC=CC=C1)NC(=O)O[C@@H]2COC[C@H]2N(C)C)O)S(=O)(=O)C3=CC4=C(C=C3)N=C(S4)NCCN(C)C
> <PUBCHEM_CACTVS_TPSA>
173
> <PUBCHEM_MONOISOTOPIC_WEIGHT>
676.30767562
> <PUBCHEM_TOTAL_CHARGE>
0
> <PUBCHEM_HEAVY_ATOM_COUNT>
46
> <PUBCHEM_ATOM_DEF_STEREO_COUNT>
4
> <PUBCHEM_ATOM_UDEF_STEREO_COUNT>
0
> <PUBCHEM_BOND_DEF_STEREO_COUNT>
0
> <PUBCHEM_BOND_UDEF_STEREO_COUNT>
0
> <PUBCHEM_ISOTOPIC_ATOM_COUNT>
0
> <PUBCHEM_COMPONENT_COUNT>
1
> <PUBCHEM_CACTVS_TAUTO_COUNT>
-1
> <PUBCHEM_COORDINATE_TYPE>
1
5
255
> <PUBCHEM_BONDANNOTATIONS>
15  10  6
17  11  6
12  38  8
12  42  8
2  36  8
2  42  8
28  33  8
28  34  8
29  32  8
29  35  8
32  36  8
33  39  8
34  40  8
35  37  8
36  38  8
37  38  8
39  41  8
16  4  5
40  41  8
18  5  6
$$$$
