509635
  -OEChem-10302200282D
 88 92  0     1  0  0  0  0  0999 V2000
    9.6448   -0.1939    0.0000 S   0  0  0  0  0  0  0  0  0  0  0  0
   13.1891   -0.3891    0.0000 S   0  0  0  0  0  0  0  0  0  0  0  0
    3.4782    4.3007    0.0000 S   0  0  0  0  0  0  0  0  0  0  0  0
    7.0468    1.3062    0.0000 O   0  0  0  0  0  0  0  0  0  0  0  0
    9.1448   -1.0599    0.0000 O   0  0  0  0  0  0  0  0  0  0  0  0
   10.1449    0.6722    0.0000 O   0  0  0  0  0  0  0  0  0  0  0  0
    4.4487    1.8062    0.0000 O   0  0  0  0  0  0  0  0  0  0  0  0
    6.1808    1.8062    0.0000 O   0  0  0  0  0  0  0  0  0  0  0  0
   16.7728   -2.9259    0.0000 N   0  0  0  0  0  0  0  0  0  0  0  0
    8.7788    0.3061    0.0000 N   0  0  3  0  0  0  0  0  0  0  0  0
    5.3147    0.3061    0.0000 N   0  0  0  0  0  0  0  0  0  0  0  0
   14.7728   -1.1938    0.0000 N   0  0  0  0  0  0  0  0  0  0  0  0
   13.1891   -1.9986    0.0000 N   0  0  0  0  0  0  0  0  0  0  0  0
    2.0000    3.6426    0.0000 N   0  0  0  0  0  0  0  0  0  0  0  0
   16.3660   -3.8394    0.0000 C   0  0  0  0  0  0  0  0  0  0  0  0
   17.7673   -3.0304    0.0000 C   0  0  0  0  0  0  0  0  0  0  0  0
   17.1092   -4.5086    0.0000 C   0  0  0  0  0  0  0  0  0  0  0  0
   17.9752   -4.0086    0.0000 C   0  0  0  0  0  0  0  0  0  0  0  0
    7.0468    0.3061    0.0000 C   0  0  2  0  0  0  0  0  0  0  0  0
    7.9128   -0.1939    0.0000 C   0  0  0  0  0  0  0  0  0  0  0  0
    6.1808   -0.1939    0.0000 C   0  0  2  0  0  0  0  0  0  0  0  0
   16.2728   -2.0599    0.0000 C   0  0  0  0  0  0  0  0  0  0  0  0
    8.7788    1.3062    0.0000 C   0  0  0  0  0  0  0  0  0  0  0  0
    9.6448    1.8062    0.0000 C   0  0  0  0  0  0  0  0  0  0  0  0
    6.1808   -1.1938    0.0000 C   0  0  0  0  0  0  0  0  0  0  0  0
   15.2728   -2.0599    0.0000 C   0  0  0  0  0  0  0  0  0  0  0  0
   10.5109   -0.6939    0.0000 C   0  0  0  0  0  0  0  0  0  0  0  0
    9.6448    2.8062    0.0000 C   0  0  0  0  0  0  0  0  0  0  0  0
   10.5109    1.3062    0.0000 C   0  0  0  0  0  0  0  0  0  0  0  0
    5.3147   -1.6938    0.0000 C   0  0  0  0  0  0  0  0  0  0  0  0
   11.3769   -0.1939    0.0000 C   0  0  0  0  0  0  0  0  0  0  0  0
   10.5109   -1.6938    0.0000 C   0  0  0  0  0  0  0  0  0  0  0  0
   12.2429   -0.6939    0.0000 C   0  0  0  0  0  0  0  0  0  0  0  0
   13.7728   -1.1938    0.0000 C   0  0  0  0  0  0  0  0  0  0  0  0
   12.2429   -1.6938    0.0000 C   0  0  0  0  0  0  0  0  0  0  0  0
   11.3769   -2.1938    0.0000 C   0  0  0  0  0  0  0  0  0  0  0  0
    5.3147    1.3062    0.0000 C   0  0  0  0  0  0  0  0  0  0  0  0
    5.3147   -2.6938    0.0000 C   0  0  0  0  0  0  0  0  0  0  0  0
    4.4487   -1.1938    0.0000 C   0  0  0  0  0  0  0  0  0  0  0  0
    4.4487   -3.1938    0.0000 C   0  0  0  0  0  0  0  0  0  0  0  0
    3.5827   -1.6938    0.0000 C   0  0  0  0  0  0  0  0  0  0  0  0
    3.5827   -2.6938    0.0000 C   0  0  0  0  0  0  0  0  0  0  0  0
    4.4487    2.8062    0.0000 C   0  0  0  0  0  0  0  0  0  0  0  0
    3.5827    3.3062    0.0000 C   0  0  0  0  0  0  0  0  0  0  0  0
    2.6691    2.8994    0.0000 C   0  0  0  0  0  0  0  0  0  0  0  0
    2.5000    4.5086    0.0000 C   0  0  0  0  0  0  0  0  0  0  0  0
   15.8291   -3.5294    0.0000 H   0  0  0  0  0  0  0  0  0  0  0  0
   16.0016   -4.3410    0.0000 H   0  0  0  0  0  0  0  0  0  0  0  0
   18.3839   -2.9656    0.0000 H   0  0  0  0  0  0  0  0  0  0  0  0
   17.7673   -2.4104    0.0000 H   0  0  0  0  0  0  0  0  0  0  0  0
   16.6484   -4.9234    0.0000 H   0  0  0  0  0  0  0  0  0  0  0  0
   17.4736   -5.0102    0.0000 H   0  0  0  0  0  0  0  0  0  0  0  0
   18.2274   -4.5750    0.0000 H   0  0  0  0  0  0  0  0  0  0  0  0
   18.5648   -3.8170    0.0000 H   0  0  0  0  0  0  0  0  0  0  0  0
    7.5837    0.6161    0.0000 H   0  0  0  0  0  0  0  0  0  0  0  0
    7.5143   -0.6688    0.0000 H   0  0  0  0  0  0  0  0  0  0  0  0
    8.3113   -0.6688    0.0000 H   0  0  0  0  0  0  0  0  0  0  0  0
    6.1808    0.4261    0.0000 H   0  0  0  0  0  0  0  0  0  0  0  0
   16.8554   -1.8478    0.0000 H   0  0  0  0  0  0  0  0  0  0  0  0
   16.1651   -1.4493    0.0000 H   0  0  0  0  0  0  0  0  0  0  0  0
    8.5668    1.8888    0.0000 H   0  0  0  0  0  0  0  0  0  0  0  0
    8.1682    1.1985    0.0000 H   0  0  0  0  0  0  0  0  0  0  0  0
    9.1079    2.1162    0.0000 H   0  0  0  0  0  0  0  0  0  0  0  0
    6.3928   -1.7765    0.0000 H   0  0  0  0  0  0  0  0  0  0  0  0
    6.7913   -1.0862    0.0000 H   0  0  0  0  0  0  0  0  0  0  0  0
   14.6902   -2.2719    0.0000 H   0  0  0  0  0  0  0  0  0  0  0  0
   15.3804   -2.6705    0.0000 H   0  0  0  0  0  0  0  0  0  0  0  0
    4.7778   -0.0039    0.0000 H   0  0  0  0  0  0  0  0  0  0  0  0
   10.2649    2.8062    0.0000 H   0  0  0  0  0  0  0  0  0  0  0  0
    9.6448    3.4262    0.0000 H   0  0  0  0  0  0  0  0  0  0  0  0
    9.0248    2.8062    0.0000 H   0  0  0  0  0  0  0  0  0  0  0  0
   10.2009    0.7692    0.0000 H   0  0  0  0  0  0  0  0  0  0  0  0
   11.0478    0.9961    0.0000 H   0  0  0  0  0  0  0  0  0  0  0  0
   10.8209    1.8431    0.0000 H   0  0  0  0  0  0  0  0  0  0  0  0
    7.5837    1.6162    0.0000 H   0  0  0  0  0  0  0  0  0  0  0  0
   15.0828   -0.6569    0.0000 H   0  0  0  0  0  0  0  0  0  0  0  0
   11.3769    0.4261    0.0000 H   0  0  0  0  0  0  0  0  0  0  0  0
    9.9739   -2.0038    0.0000 H   0  0  0  0  0  0  0  0  0  0  0  0
   11.3769   -2.8138    0.0000 H   0  0  0  0  0  0  0  0  0  0  0  0
    5.8517   -3.0038    0.0000 H   0  0  0  0  0  0  0  0  0  0  0  0
    4.4487   -0.5739    0.0000 H   0  0  0  0  0  0  0  0  0  0  0  0
    4.4487   -3.8138    0.0000 H   0  0  0  0  0  0  0  0  0  0  0  0
    3.0457   -1.3838    0.0000 H   0  0  0  0  0  0  0  0  0  0  0  0
    3.0457   -3.0038    0.0000 H   0  0  0  0  0  0  0  0  0  0  0  0
    5.0593    2.6985    0.0000 H   0  0  0  0  0  0  0  0  0  0  0  0
    4.6608    3.3888    0.0000 H   0  0  0  0  0  0  0  0  0  0  0  0
    2.5402    2.2930    0.0000 H   0  0  0  0  0  0  0  0  0  0  0  0
    2.2478    5.0750    0.0000 H   0  0  0  0  0  0  0  0  0  0  0  0
  1  5  2  0  0  0  0
  1  6  2  0  0  0  0
  1 10  1  0  0  0  0
  1 27  1  0  0  0  0
  2 33  1  0  0  0  0
  2 34  1  0  0  0  0
  3 44  1  0  0  0  0
  3 46  1  0  0  0  0
 19  4  1  6  0  0  0
  4 75  1  0  0  0  0
  7 37  1  0  0  0  0
  7 43  1  0  0  0  0
  8 37  2  0  0  0  0
  9 15  1  0  0  0  0
  9 16  1  0  0  0  0
  9 22  1  0  0  0  0
 10 20  1  0  0  0  0
 10 23  1  0  0  0  0
 21 11  1  6  0  0  0
 11 37  1  0  0  0  0
 11 68  1  0  0  0  0
 12 26  1  0  0  0  0
 12 34  1  0  0  0  0
 12 76  1  0  0  0  0
 13 34  2  0  0  0  0
 13 35  1  0  0  0  0
 14 45  1  0  0  0  0
 14 46  2  0  0  0  0
 15 17  1  0  0  0  0
 15 47  1  0  0  0  0
 15 48  1  0  0  0  0
 16 18  1  0  0  0  0
 16 49  1  0  0  0  0
 16 50  1  0  0  0  0
 17 18  1  0  0  0  0
 17 51  1  0  0  0  0
 17 52  1  0  0  0  0
 18 53  1  0  0  0  0
 18 54  1  0  0  0  0
 19 20  1  0  0  0  0
 19 21  1  0  0  0  0
 19 55  1  0  0  0  0
 20 56  1  0  0  0  0
 20 57  1  0  0  0  0
 21 25  1  0  0  0  0
 21 58  1  0  0  0  0
 22 26  1  0  0  0  0
 22 59  1  0  0  0  0
 22 60  1  0  0  0  0
 23 24  1  0  0  0  0
 23 61  1  0  0  0  0
 23 62  1  0  0  0  0
 24 28  1  0  0  0  0
 24 29  1  0  0  0  0
 24 63  1  0  0  0  0
 25 30  1  0  0  0  0
 25 64  1  0  0  0  0
 25 65  1  0  0  0  0
 26 66  1  0  0  0  0
 26 67  1  0  0  0  0
 27 31  2  0  0  0  0
 27 32  1  0  0  0  0
 28 69  1  0  0  0  0
 28 70  1  0  0  0  0
 28 71  1  0  0  0  0
 29 72  1  0  0  0  0
 29 73  1  0  0  0  0
 29 74  1  0  0  0  0
 30 38  2  0  0  0  0
 30 39  1  0  0  0  0
 31 33  1  0  0  0  0
 31 77  1  0  0  0  0
 32 36  2  0  0  0  0
 32 78  1  0  0  0  0
 33 35  2  0  0  0  0
 35 36  1  0  0  0  0
 36 79  1  0  0  0  0
 38 40  1  0  0  0  0
 38 80  1  0  0  0  0
 39 41  2  0  0  0  0
 39 81  1  0  0  0  0
 40 42  2  0  0  0  0
 40 82  1  0  0  0  0
 41 42  1  0  0  0  0
 41 83  1  0  0  0  0
 42 84  1  0  0  0  0
 43 44  1  0  0  0  0
 43 85  1  0  0  0  0
 43 86  1  0  0  0  0
 44 45  2  0  0  0  0
 45 87  1  0  0  0  0
 46 88  1  0  0  0  0
M  END
> <PUBCHEM_COMPOUND_CID>
509635
> <PUBCHEM_COMPOUND_CANONICALIZED>
1
> <PUBCHEM_CACTVS_COMPLEXITY>
1040
> <PUBCHEM_CACTVS_HBOND_ACCEPTOR>
12
> <PUBCHEM_CACTVS_HBOND_DONOR>
3
> <PUBCHEM_CACTVS_ROTATABLE_BOND>
17
> <PUBCHEM_CACTVS_SUBSKEYS>
AAADcfB/uABgAAAAAAAAAAAAAAAAAWLFgAAwYAAAAAAAAFgB/AAAHgQQSAAADTzh3ga/2bPIFgqsAzRnfHDD8LlxCjlJ2Lw4bJmKdKLg+ZmcYAhulgLY6CeQwKAOAAQAAEAAAQAACAAAgAACAAAAAAAAAA==
> <PUBCHEM_IUPAC_OPENEYE_NAME>
thiazol-5-ylmethyl N-[(1S,2R)-1-benzyl-2-hydroxy-3-[isobutyl-[[2-(2-pyrrolidin-1-ylethylamino)-1,3-benzothiazol-6-yl]sulfonyl]amino]propyl]carbamate
> <PUBCHEM_IUPAC_CAS_NAME>
N-[(2S,3R)-3-hydroxy-4-[2-methylpropyl-[[2-[2-(1-pyrrolidinyl)ethylamino]-1,3-benzothiazol-6-yl]sulfonyl]amino]-1-phenylbutan-2-yl]carbamic acid 5-thiazolylmethyl ester
> <PUBCHEM_IUPAC_NAME_MARKUP>
1,3-thiazol-5-ylmethyl <I>N</I>-[(2<I>S</I>,3<I>R</I>)-3-hydroxy-4-[2-methylpropyl-[[2-(2-pyrrolidin-1-ylethylamino)-1,3-benzothiazol-6-yl]sulfonyl]amino]-1-phenylbutan-2-yl]carbamate
> <PUBCHEM_IUPAC_NAME>
1,3-thiazol-5-ylmethyl N-[(2S,3R)-3-hydroxy-4-[2-methylpropyl-[[2-(2-pyrrolidin-1-ylethylamino)-1,3-benzothiazol-6-yl]sulfonyl]amino]-1-phenylbutan-2-yl]carbamate
> <PUBCHEM_IUPAC_SYSTEMATIC_NAME>
1,3-thiazol-5-ylmethyl N-[(2S,3R)-4-[2-methylpropyl-[[2-(2-pyrrolidin-1-ylethylamino)-1,3-benzothiazol-6-yl]sulfonyl]amino]-3-oxidanyl-1-phenyl-butan-2-yl]carbamate
> <PUBCHEM_IUPAC_TRADITIONAL_NAME>
N-[(1S,2R)-1-benzyl-2-hydroxy-3-[isobutyl-[[2-(2-pyrrolidinoethylamino)-1,3-benzothiazol-6-yl]sulfonyl]amino]propyl]carbamic acid thiazol-5-ylmethyl ester
> <PUBCHEM_IUPAC_INCHI>
InChI=1S/C32H42N6O5S3/c1-23(2)19-38(20-29(39)28(16-24-8-4-3-5-9-24)36-32(40)43-21-25-18-33-22-44-25)46(41,42)26-10-11-27-30(17-26)45-31(35-27)34-12-15-37-13-6-7-14-37/h3-5,8-11,17-18,22-23,28-29,39H,6-7,12-16,19-21H2,1-2H3,(H,34,35)(H,36,40)/t28-,29+/m0/s1
> <PUBCHEM_IUPAC_INCHIKEY>
BZJGLXYIBZEANO-URLMMPGGSA-N
> <PUBCHEM_XLOGP3_AA>
5.4
> <PUBCHEM_EXACT_MASS>
686.23788198
> <PUBCHEM_MOLECULAR_FORMULA>
C32H42N6O5S3
> <PUBCHEM_MOLECULAR_WEIGHT>
686.9
> <PUBCHEM_OPENEYE_CAN_SMILES>
CC(C)CN(CC(C(CC1=CC=CC=C1)NC(=O)OCC2=CN=CS2)O)S(=O)(=O)C3=CC4=C(C=C3)N=C(S4)NCCN5CCCC5
> <PUBCHEM_OPENEYE_ISO_SMILES>
CC(C)CN(C[C@H]([C@H](CC1=CC=CC=C1)NC(=O)OCC2=CN=CS2)O)S(=O)(=O)C3=CC4=C(C=C3)N=C(S4)NCCN5CCCC5
> <PUBCHEM_CACTVS_TPSA>
202
> <PUBCHEM_MONOISOTOPIC_WEIGHT>
686.23788198
> <PUBCHEM_TOTAL_CHARGE>
0
> <PUBCHEM_HEAVY_ATOM_COUNT>
46
> <PUBCHEM_ATOM_DEF_STEREO_COUNT>
2
> <PUBCHEM_ATOM_UDEF_STEREO_COUNT>
0
> <PUBCHEM_BOND_DEF_STEREO_COUNT>
0
> <PUBCHEM_BOND_UDEF_STEREO_COUNT>
0
> <PUBCHEM_ISOTOPIC_ATOM_COUNT>
0
> <PUBCHEM_COMPONENT_COUNT>
1
> <PUBCHEM_CACTVS_TAUTO_COUNT>
-1
> <PUBCHEM_COORDINATE_TYPE>
1
5
255
> <PUBCHEM_BONDANNOTATIONS>
21  11  6
13  34  8
13  35  8
14  45  8
14  46  8
2  33  8
2  34  8
27  31  8
27  32  8
3  44  8
3  46  8
30  38  8
30  39  8
31  33  8
32  36  8
33  35  8
35  36  8
38  40  8
39  41  8
19  4  6
40  42  8
41  42  8
44  45  8
$$$$
