509679
  -OEChem-10302200282D
 97100  0     1  0  0  0  0  0999 V2000
    8.9282   -0.7010    0.0000 S   0  0  0  0  0  0  0  0  0  0  0  0
   12.4725   -0.8962    0.0000 S   0  0  0  0  0  0  0  0  0  0  0  0
    6.3301    0.7990    0.0000 O   0  0  0  0  0  0  0  0  0  0  0  0
    8.4282   -1.5670    0.0000 O   0  0  0  0  0  0  0  0  0  0  0  0
    9.4282    0.1651    0.0000 O   0  0  0  0  0  0  0  0  0  0  0  0
    3.7320    1.2990    0.0000 O   0  0  0  0  0  0  0  0  0  0  0  0
    5.4641    1.2990    0.0000 O   0  0  0  0  0  0  0  0  0  0  0  0
    8.0622   -0.2010    0.0000 N   0  0  3  0  0  0  0  0  0  0  0  0
    4.5981   -0.2010    0.0000 N   0  0  0  0  0  0  0  0  0  0  0  0
   14.0561   -1.7010    0.0000 N   0  0  3  0  0  0  0  0  0  0  0  0
   12.4725   -2.5057    0.0000 N   0  0  0  0  0  0  0  0  0  0  0  0
   17.0561   -3.4330    0.0000 N   0  0  0  0  0  0  0  0  0  0  0  0
    6.3301   -0.2010    0.0000 C   0  0  2  0  0  0  0  0  0  0  0  0
    7.1962   -0.7010    0.0000 C   0  0  0  0  0  0  0  0  0  0  0  0
    5.4641   -0.7010    0.0000 C   0  0  2  0  0  0  0  0  0  0  0  0
    8.0622    0.7990    0.0000 C   0  0  0  0  0  0  0  0  0  0  0  0
    8.9282    1.2990    0.0000 C   0  0  0  0  0  0  0  0  0  0  0  0
    5.4641   -1.7010    0.0000 C   0  0  0  0  0  0  0  0  0  0  0  0
    9.7942   -1.2010    0.0000 C   0  0  0  0  0  0  0  0  0  0  0  0
    8.9282    2.2990    0.0000 C   0  0  0  0  0  0  0  0  0  0  0  0
    9.7942    0.7990    0.0000 C   0  0  0  0  0  0  0  0  0  0  0  0
    4.5981   -2.2010    0.0000 C   0  0  0  0  0  0  0  0  0  0  0  0
   10.6603   -0.7010    0.0000 C   0  0  0  0  0  0  0  0  0  0  0  0
    9.7942   -2.2010    0.0000 C   0  0  0  0  0  0  0  0  0  0  0  0
   11.5263   -1.2010    0.0000 C   0  0  0  0  0  0  0  0  0  0  0  0
    4.5981    0.7990    0.0000 C   0  0  0  0  0  0  0  0  0  0  0  0
    4.5981   -3.2010    0.0000 C   0  0  0  0  0  0  0  0  0  0  0  0
    3.7320   -1.7010    0.0000 C   0  0  0  0  0  0  0  0  0  0  0  0
   11.5263   -2.2010    0.0000 C   0  0  0  0  0  0  0  0  0  0  0  0
   10.6603   -2.7010    0.0000 C   0  0  0  0  0  0  0  0  0  0  0  0
   13.0561   -1.7010    0.0000 C   0  0  0  0  0  0  0  0  0  0  0  0
    3.7320   -3.7010    0.0000 C   0  0  0  0  0  0  0  0  0  0  0  0
    2.8660   -2.2010    0.0000 C   0  0  0  0  0  0  0  0  0  0  0  0
   14.5561   -2.5670    0.0000 C   0  0  0  0  0  0  0  0  0  0  0  0
    2.8660   -3.2010    0.0000 C   0  0  0  0  0  0  0  0  0  0  0  0
   15.5561   -2.5670    0.0000 C   0  0  0  0  0  0  0  0  0  0  0  0
   16.0561   -3.4330    0.0000 C   0  0  0  0  0  0  0  0  0  0  0  0
    3.7320    2.2990    0.0000 C   0  0  0  0  0  0  0  0  0  0  0  0
   14.5561   -0.8349    0.0000 C   0  0  0  0  0  0  0  0  0  0  0  0
    2.8660    2.7990    0.0000 C   0  0  0  0  0  0  0  0  0  0  0  0
    4.5981    2.7990    0.0000 C   0  0  0  0  0  0  0  0  0  0  0  0
   17.5561   -4.2990    0.0000 C   0  0  0  0  0  0  0  0  0  0  0  0
   17.5561   -2.5670    0.0000 C   0  0  0  0  0  0  0  0  0  0  0  0
    2.8660    3.7990    0.0000 C   0  0  0  0  0  0  0  0  0  0  0  0
    4.5981    3.7990    0.0000 C   0  0  0  0  0  0  0  0  0  0  0  0
    2.0000    2.2990    0.0000 C   0  0  0  0  0  0  0  0  0  0  0  0
    5.4641    2.2990    0.0000 C   0  0  0  0  0  0  0  0  0  0  0  0
    3.7320    4.2990    0.0000 C   0  0  0  0  0  0  0  0  0  0  0  0
    6.8671    0.1090    0.0000 H   0  0  0  0  0  0  0  0  0  0  0  0
    6.7976   -1.1759    0.0000 H   0  0  0  0  0  0  0  0  0  0  0  0
    7.5947   -1.1759    0.0000 H   0  0  0  0  0  0  0  0  0  0  0  0
    5.4641   -0.0810    0.0000 H   0  0  0  0  0  0  0  0  0  0  0  0
    7.8501    1.3816    0.0000 H   0  0  0  0  0  0  0  0  0  0  0  0
    7.4516    0.6914    0.0000 H   0  0  0  0  0  0  0  0  0  0  0  0
    9.4651    1.6090    0.0000 H   0  0  0  0  0  0  0  0  0  0  0  0
    5.6762   -2.2836    0.0000 H   0  0  0  0  0  0  0  0  0  0  0  0
    6.0747   -1.5933    0.0000 H   0  0  0  0  0  0  0  0  0  0  0  0
    4.0611   -0.5110    0.0000 H   0  0  0  0  0  0  0  0  0  0  0  0
    9.5482    2.2990    0.0000 H   0  0  0  0  0  0  0  0  0  0  0  0
    8.9282    2.9190    0.0000 H   0  0  0  0  0  0  0  0  0  0  0  0
    8.3082    2.2990    0.0000 H   0  0  0  0  0  0  0  0  0  0  0  0
    9.4842    0.2621    0.0000 H   0  0  0  0  0  0  0  0  0  0  0  0
   10.3312    0.4890    0.0000 H   0  0  0  0  0  0  0  0  0  0  0  0
   10.1042    1.3360    0.0000 H   0  0  0  0  0  0  0  0  0  0  0  0
    6.8671    1.1090    0.0000 H   0  0  0  0  0  0  0  0  0  0  0  0
   10.6603   -0.0810    0.0000 H   0  0  0  0  0  0  0  0  0  0  0  0
    9.2573   -2.5110    0.0000 H   0  0  0  0  0  0  0  0  0  0  0  0
    5.1350   -3.5110    0.0000 H   0  0  0  0  0  0  0  0  0  0  0  0
    3.7320   -1.0810    0.0000 H   0  0  0  0  0  0  0  0  0  0  0  0
   10.6603   -3.3210    0.0000 H   0  0  0  0  0  0  0  0  0  0  0  0
    3.7320   -4.3210    0.0000 H   0  0  0  0  0  0  0  0  0  0  0  0
    2.3291   -1.8910    0.0000 H   0  0  0  0  0  0  0  0  0  0  0  0
   13.9735   -2.7790    0.0000 H   0  0  0  0  0  0  0  0  0  0  0  0
   14.6638   -3.1776    0.0000 H   0  0  0  0  0  0  0  0  0  0  0  0
    2.3291   -3.5110    0.0000 H   0  0  0  0  0  0  0  0  0  0  0  0
   16.1387   -2.3549    0.0000 H   0  0  0  0  0  0  0  0  0  0  0  0
   15.4484   -1.9564    0.0000 H   0  0  0  0  0  0  0  0  0  0  0  0
   15.4735   -3.6451    0.0000 H   0  0  0  0  0  0  0  0  0  0  0  0
   16.1638   -4.0436    0.0000 H   0  0  0  0  0  0  0  0  0  0  0  0
   15.0930   -1.1449    0.0000 H   0  0  0  0  0  0  0  0  0  0  0  0
   14.8661   -0.2980    0.0000 H   0  0  0  0  0  0  0  0  0  0  0  0
   14.0192   -0.5249    0.0000 H   0  0  0  0  0  0  0  0  0  0  0  0
   17.0192   -4.6090    0.0000 H   0  0  0  0  0  0  0  0  0  0  0  0
   17.8661   -4.8360    0.0000 H   0  0  0  0  0  0  0  0  0  0  0  0
   18.0930   -3.9890    0.0000 H   0  0  0  0  0  0  0  0  0  0  0  0
   18.0930   -2.8770    0.0000 H   0  0  0  0  0  0  0  0  0  0  0  0
   17.8661   -2.0300    0.0000 H   0  0  0  0  0  0  0  0  0  0  0  0
   17.0192   -2.2570    0.0000 H   0  0  0  0  0  0  0  0  0  0  0  0
    2.3291    4.1090    0.0000 H   0  0  0  0  0  0  0  0  0  0  0  0
    5.1350    4.1090    0.0000 H   0  0  0  0  0  0  0  0  0  0  0  0
    1.6900    2.8360    0.0000 H   0  0  0  0  0  0  0  0  0  0  0  0
    1.4631    1.9890    0.0000 H   0  0  0  0  0  0  0  0  0  0  0  0
    2.3100    1.7621    0.0000 H   0  0  0  0  0  0  0  0  0  0  0  0
    5.1541    1.7621    0.0000 H   0  0  0  0  0  0  0  0  0  0  0  0
    6.0010    1.9890    0.0000 H   0  0  0  0  0  0  0  0  0  0  0  0
    5.7741    2.8360    0.0000 H   0  0  0  0  0  0  0  0  0  0  0  0
    3.7320    4.9190    0.0000 H   0  0  0  0  0  0  0  0  0  0  0  0
  1  4  2  0  0  0  0
  1  5  2  0  0  0  0
  1  8  1  0  0  0  0
  1 19  1  0  0  0  0
  2 25  1  0  0  0  0
  2 31  1  0  0  0  0
 13  3  1  6  0  0  0
  3 65  1  0  0  0  0
  6 26  1  0  0  0  0
  6 38  1  0  0  0  0
  7 26  2  0  0  0  0
  8 14  1  0  0  0  0
  8 16  1  0  0  0  0
 15  9  1  6  0  0  0
  9 26  1  0  0  0  0
  9 58  1  0  0  0  0
 10 31  1  0  0  0  0
 10 34  1  0  0  0  0
 10 39  1  0  0  0  0
 11 29  1  0  0  0  0
 11 31  2  0  0  0  0
 12 37  1  0  0  0  0
 12 42  1  0  0  0  0
 12 43  1  0  0  0  0
 13 14  1  0  0  0  0
 13 15  1  0  0  0  0
 13 49  1  0  0  0  0
 14 50  1  0  0  0  0
 14 51  1  0  0  0  0
 15 18  1  0  0  0  0
 15 52  1  0  0  0  0
 16 17  1  0  0  0  0
 16 53  1  0  0  0  0
 16 54  1  0  0  0  0
 17 20  1  0  0  0  0
 17 21  1  0  0  0  0
 17 55  1  0  0  0  0
 18 22  1  0  0  0  0
 18 56  1  0  0  0  0
 18 57  1  0  0  0  0
 19 23  2  0  0  0  0
 19 24  1  0  0  0  0
 20 59  1  0  0  0  0
 20 60  1  0  0  0  0
 20 61  1  0  0  0  0
 21 62  1  0  0  0  0
 21 63  1  0  0  0  0
 21 64  1  0  0  0  0
 22 27  2  0  0  0  0
 22 28  1  0  0  0  0
 23 25  1  0  0  0  0
 23 66  1  0  0  0  0
 24 30  2  0  0  0  0
 24 67  1  0  0  0  0
 25 29  2  0  0  0  0
 27 32  1  0  0  0  0
 27 68  1  0  0  0  0
 28 33  2  0  0  0  0
 28 69  1  0  0  0  0
 29 30  1  0  0  0  0
 30 70  1  0  0  0  0
 32 35  2  0  0  0  0
 32 71  1  0  0  0  0
 33 35  1  0  0  0  0
 33 72  1  0  0  0  0
 34 36  1  0  0  0  0
 34 73  1  0  0  0  0
 34 74  1  0  0  0  0
 35 75  1  0  0  0  0
 36 37  1  0  0  0  0
 36 76  1  0  0  0  0
 36 77  1  0  0  0  0
 37 78  1  0  0  0  0
 37 79  1  0  0  0  0
 38 40  2  0  0  0  0
 38 41  1  0  0  0  0
 39 80  1  0  0  0  0
 39 81  1  0  0  0  0
 39 82  1  0  0  0  0
 40 44  1  0  0  0  0
 40 46  1  0  0  0  0
 41 45  2  0  0  0  0
 41 47  1  0  0  0  0
 42 83  1  0  0  0  0
 42 84  1  0  0  0  0
 42 85  1  0  0  0  0
 43 86  1  0  0  0  0
 43 87  1  0  0  0  0
 43 88  1  0  0  0  0
 44 48  2  0  0  0  0
 44 89  1  0  0  0  0
 45 48  1  0  0  0  0
 45 90  1  0  0  0  0
 46 91  1  0  0  0  0
 46 92  1  0  0  0  0
 46 93  1  0  0  0  0
 47 94  1  0  0  0  0
 47 95  1  0  0  0  0
 47 96  1  0  0  0  0
 48 97  1  0  0  0  0
M  END
> <PUBCHEM_COMPOUND_CID>
509679
> <PUBCHEM_COMPOUND_CANONICALIZED>
1
> <PUBCHEM_CACTVS_COMPLEXITY>
1080
> <PUBCHEM_CACTVS_HBOND_ACCEPTOR>
10
> <PUBCHEM_CACTVS_HBOND_DONOR>
2
> <PUBCHEM_CACTVS_ROTATABLE_BOND>
17
> <PUBCHEM_CACTVS_SUBSKEYS>
AAADcfB/uABgAAAAAAAAAAAAAAAAAWAAAAAwYMAAAAAAAFgB9AAAHgQQSAAADTzh3gYz37PIFgqsAyRifHDD+LlhKjhJmLw8bJmONqLk+ZuMcihs1hPY6CeQwOAOAAQCAEAIAQAACAQAgBACAAAAAAAAAA==
> <PUBCHEM_IUPAC_OPENEYE_NAME>
(2,6-dimethylphenyl) N-[(1S,2R)-1-benzyl-3-[[2-[3-(dimethylamino)propyl-methyl-amino]-1,3-benzothiazol-6-yl]sulfonyl-isobutyl-amino]-2-hydroxy-propyl]carbamate
> <PUBCHEM_IUPAC_CAS_NAME>
N-[(2S,3R)-4-[[2-[3-(dimethylamino)propyl-methylamino]-1,3-benzothiazol-6-yl]sulfonyl-(2-methylpropyl)amino]-3-hydroxy-1-phenylbutan-2-yl]carbamic acid (2,6-dimethylphenyl) ester
> <PUBCHEM_IUPAC_NAME_MARKUP>
(2,6-dimethylphenyl) <I>N</I>-[(2<I>S</I>,3<I>R</I>)-4-[[2-[3-(dimethylamino)propyl-methylamino]-1,3-benzothiazol-6-yl]sulfonyl-(2-methylpropyl)amino]-3-hydroxy-1-phenylbutan-2-yl]carbamate
> <PUBCHEM_IUPAC_NAME>
(2,6-dimethylphenyl) N-[(2S,3R)-4-[[2-[3-(dimethylamino)propyl-methylamino]-1,3-benzothiazol-6-yl]sulfonyl-(2-methylpropyl)amino]-3-hydroxy-1-phenylbutan-2-yl]carbamate
> <PUBCHEM_IUPAC_SYSTEMATIC_NAME>
(2,6-dimethylphenyl) N-[(2S,3R)-4-[[2-[3-(dimethylamino)propyl-methyl-amino]-1,3-benzothiazol-6-yl]sulfonyl-(2-methylpropyl)amino]-3-oxidanyl-1-phenyl-butan-2-yl]carbamate
> <PUBCHEM_IUPAC_TRADITIONAL_NAME>
N-[(1S,2R)-1-benzyl-3-[[2-[3-(dimethylamino)propyl-methyl-amino]-1,3-benzothiazol-6-yl]sulfonyl-isobutyl-amino]-2-hydroxy-propyl]carbamic acid (2,6-dimethylphenyl) ester
> <PUBCHEM_IUPAC_INCHI>
InChI=1S/C36H49N5O5S2/c1-25(2)23-41(48(44,45)29-17-18-30-33(22-29)47-35(37-30)40(7)20-12-19-39(5)6)24-32(42)31(21-28-15-9-8-10-16-28)38-36(43)46-34-26(3)13-11-14-27(34)4/h8-11,13-18,22,25,31-32,42H,12,19-21,23-24H2,1-7H3,(H,38,43)/t31-,32+/m0/s1
> <PUBCHEM_IUPAC_INCHIKEY>
COAWJYBQHZZZHY-AJQTZOPKSA-N
> <PUBCHEM_XLOGP3_AA>
7.1
> <PUBCHEM_EXACT_MASS>
695.31751203
> <PUBCHEM_MOLECULAR_FORMULA>
C36H49N5O5S2
> <PUBCHEM_MOLECULAR_WEIGHT>
695.9
> <PUBCHEM_OPENEYE_CAN_SMILES>
CC1=C(C(=CC=C1)C)OC(=O)NC(CC2=CC=CC=C2)C(CN(CC(C)C)S(=O)(=O)C3=CC4=C(C=C3)N=C(S4)N(C)CCCN(C)C)O
> <PUBCHEM_OPENEYE_ISO_SMILES>
CC1=C(C(=CC=C1)C)OC(=O)N[C@@H](CC2=CC=CC=C2)[C@@H](CN(CC(C)C)S(=O)(=O)C3=CC4=C(C=C3)N=C(S4)N(C)CCCN(C)C)O
> <PUBCHEM_CACTVS_TPSA>
152
> <PUBCHEM_MONOISOTOPIC_WEIGHT>
695.31751203
> <PUBCHEM_TOTAL_CHARGE>
0
> <PUBCHEM_HEAVY_ATOM_COUNT>
48
> <PUBCHEM_ATOM_DEF_STEREO_COUNT>
2
> <PUBCHEM_ATOM_UDEF_STEREO_COUNT>
0
> <PUBCHEM_BOND_DEF_STEREO_COUNT>
0
> <PUBCHEM_BOND_UDEF_STEREO_COUNT>
0
> <PUBCHEM_ISOTOPIC_ATOM_COUNT>
0
> <PUBCHEM_COMPONENT_COUNT>
1
> <PUBCHEM_CACTVS_TAUTO_COUNT>
-1
> <PUBCHEM_COORDINATE_TYPE>
1
5
255
> <PUBCHEM_BONDANNOTATIONS>
11  29  8
11  31  8
19  23  8
19  24  8
2  25  8
2  31  8
22  27  8
22  28  8
23  25  8
24  30  8
25  29  8
27  32  8
28  33  8
29  30  8
13  3  6
32  35  8
33  35  8
38  40  8
38  41  8
40  44  8
41  45  8
44  48  8
45  48  8
15  9  6
$$$$
