509630
  -OEChem-10302200282D
 88 91  0     1  0  0  0  0  0999 V2000
   10.3312   -0.2610    0.0000 S   0  0  0  0  0  0  0  0  0  0  0  0
   13.8755   -0.4562    0.0000 S   0  0  0  0  0  0  0  0  0  0  0  0
    7.7331    1.2390    0.0000 O   0  0  0  0  0  0  0  0  0  0  0  0
    9.8312   -1.1270    0.0000 O   0  0  0  0  0  0  0  0  0  0  0  0
   10.8312    0.6051    0.0000 O   0  0  0  0  0  0  0  0  0  0  0  0
    6.8671    1.7390    0.0000 O   0  0  0  0  0  0  0  0  0  0  0  0
   15.4591   -2.9930    0.0000 O   0  0  0  0  0  0  0  0  0  0  0  0
    9.4651    0.2390    0.0000 N   0  0  3  0  0  0  0  0  0  0  0  0
    6.0010    0.2390    0.0000 N   0  0  0  0  0  0  0  0  0  0  0  0
   13.8755   -2.0657    0.0000 N   0  0  0  0  0  0  0  0  0  0  0  0
   15.4591   -1.2610    0.0000 N   0  0  0  0  0  0  0  0  0  0  0  0
    2.5369    3.2390    0.0000 N   0  0  0  0  0  0  0  0  0  0  0  0
   17.4591   -2.9930    0.0000 N   0  0  0  0  0  0  0  0  0  0  0  0
    7.7331    0.2390    0.0000 C   0  0  2  0  0  0  0  0  0  0  0  0
    8.5991   -0.2610    0.0000 C   0  0  0  0  0  0  0  0  0  0  0  0
    6.8671   -0.2610    0.0000 C   0  0  2  0  0  0  0  0  0  0  0  0
    9.4651    1.2390    0.0000 C   0  0  0  0  0  0  0  0  0  0  0  0
   10.3312    1.7390    0.0000 C   0  0  0  0  0  0  0  0  0  0  0  0
    6.8671   -1.2610    0.0000 C   0  0  0  0  0  0  0  0  0  0  0  0
   11.1972   -0.7610    0.0000 C   0  0  0  0  0  0  0  0  0  0  0  0
    6.0010   -1.7610    0.0000 C   0  0  0  0  0  0  0  0  0  0  0  0
   10.3312    2.7390    0.0000 C   0  0  0  0  0  0  0  0  0  0  0  0
   11.1972    1.2390    0.0000 C   0  0  0  0  0  0  0  0  0  0  0  0
    6.0010    1.2390    0.0000 C   0  0  0  0  0  0  0  0  0  0  0  0
   12.0632   -0.2610    0.0000 C   0  0  0  0  0  0  0  0  0  0  0  0
   11.1972   -1.7610    0.0000 C   0  0  0  0  0  0  0  0  0  0  0  0
    6.0010   -2.7610    0.0000 C   0  0  0  0  0  0  0  0  0  0  0  0
    5.1350   -1.2610    0.0000 C   0  0  0  0  0  0  0  0  0  0  0  0
   12.9292   -0.7610    0.0000 C   0  0  0  0  0  0  0  0  0  0  0  0
    5.1350    1.7390    0.0000 C   0  0  0  0  0  0  0  0  0  0  0  0
   12.0632   -2.2610    0.0000 C   0  0  0  0  0  0  0  0  0  0  0  0
   12.9292   -1.7610    0.0000 C   0  0  0  0  0  0  0  0  0  0  0  0
    5.1350   -3.2610    0.0000 C   0  0  0  0  0  0  0  0  0  0  0  0
    4.2690   -1.7610    0.0000 C   0  0  0  0  0  0  0  0  0  0  0  0
    5.1350    2.7390    0.0000 C   0  0  0  0  0  0  0  0  0  0  0  0
    4.2690   -2.7610    0.0000 C   0  0  0  0  0  0  0  0  0  0  0  0
    4.2690    1.2390    0.0000 C   0  0  0  0  0  0  0  0  0  0  0  0
   14.4591   -1.2610    0.0000 C   0  0  0  0  0  0  0  0  0  0  0  0
    4.2690    3.2390    0.0000 C   0  0  0  0  0  0  0  0  0  0  0  0
    6.0010    3.2390    0.0000 C   0  0  0  0  0  0  0  0  0  0  0  0
    3.4030    1.7390    0.0000 C   0  0  0  0  0  0  0  0  0  0  0  0
    3.4030    2.7390    0.0000 C   0  0  0  0  0  0  0  0  0  0  0  0
   15.9591   -2.1270    0.0000 C   0  0  0  0  0  0  0  0  0  0  0  0
   16.9591   -2.1270    0.0000 C   0  0  0  0  0  0  0  0  0  0  0  0
   18.4591   -2.9930    0.0000 C   0  0  0  0  0  0  0  0  0  0  0  0
   16.9591   -3.8590    0.0000 C   0  0  0  0  0  0  0  0  0  0  0  0
    8.2700    0.5490    0.0000 H   0  0  0  0  0  0  0  0  0  0  0  0
    8.2006   -0.7359    0.0000 H   0  0  0  0  0  0  0  0  0  0  0  0
    8.9976   -0.7359    0.0000 H   0  0  0  0  0  0  0  0  0  0  0  0
    6.3301   -0.5710    0.0000 H   0  0  0  0  0  0  0  0  0  0  0  0
    9.2531    1.8216    0.0000 H   0  0  0  0  0  0  0  0  0  0  0  0
    8.8546    1.1314    0.0000 H   0  0  0  0  0  0  0  0  0  0  0  0
   10.8681    2.0490    0.0000 H   0  0  0  0  0  0  0  0  0  0  0  0
    7.0791   -1.8436    0.0000 H   0  0  0  0  0  0  0  0  0  0  0  0
    7.4776   -1.1533    0.0000 H   0  0  0  0  0  0  0  0  0  0  0  0
    5.4641   -0.0710    0.0000 H   0  0  0  0  0  0  0  0  0  0  0  0
   10.9512    2.7390    0.0000 H   0  0  0  0  0  0  0  0  0  0  0  0
   10.3312    3.3590    0.0000 H   0  0  0  0  0  0  0  0  0  0  0  0
    9.7112    2.7390    0.0000 H   0  0  0  0  0  0  0  0  0  0  0  0
   10.8872    0.7021    0.0000 H   0  0  0  0  0  0  0  0  0  0  0  0
   11.7341    0.9290    0.0000 H   0  0  0  0  0  0  0  0  0  0  0  0
   11.5072    1.7760    0.0000 H   0  0  0  0  0  0  0  0  0  0  0  0
    8.2700    1.5490    0.0000 H   0  0  0  0  0  0  0  0  0  0  0  0
   12.0632    0.3590    0.0000 H   0  0  0  0  0  0  0  0  0  0  0  0
   10.6603   -2.0710    0.0000 H   0  0  0  0  0  0  0  0  0  0  0  0
    6.5380   -3.0710    0.0000 H   0  0  0  0  0  0  0  0  0  0  0  0
    5.1350   -0.6410    0.0000 H   0  0  0  0  0  0  0  0  0  0  0  0
   12.0632   -2.8810    0.0000 H   0  0  0  0  0  0  0  0  0  0  0  0
    5.1350   -3.8810    0.0000 H   0  0  0  0  0  0  0  0  0  0  0  0
    3.7320   -1.4510    0.0000 H   0  0  0  0  0  0  0  0  0  0  0  0
    3.7320   -3.0710    0.0000 H   0  0  0  0  0  0  0  0  0  0  0  0
    4.2690    0.6190    0.0000 H   0  0  0  0  0  0  0  0  0  0  0  0
    4.2690    3.8590    0.0000 H   0  0  0  0  0  0  0  0  0  0  0  0
    6.3110    2.7021    0.0000 H   0  0  0  0  0  0  0  0  0  0  0  0
    6.5380    3.5490    0.0000 H   0  0  0  0  0  0  0  0  0  0  0  0
    5.6910    3.7760    0.0000 H   0  0  0  0  0  0  0  0  0  0  0  0
    2.8660    1.4290    0.0000 H   0  0  0  0  0  0  0  0  0  0  0  0
   15.7691   -0.7240    0.0000 H   0  0  0  0  0  0  0  0  0  0  0  0
    2.5369    3.8590    0.0000 H   0  0  0  0  0  0  0  0  0  0  0  0
    2.0000    2.9290    0.0000 H   0  0  0  0  0  0  0  0  0  0  0  0
   17.5417   -1.9149    0.0000 H   0  0  0  0  0  0  0  0  0  0  0  0
   16.8514   -1.5164    0.0000 H   0  0  0  0  0  0  0  0  0  0  0  0
   18.4591   -3.6130    0.0000 H   0  0  0  0  0  0  0  0  0  0  0  0
   19.0791   -2.9930    0.0000 H   0  0  0  0  0  0  0  0  0  0  0  0
   18.4591   -2.3730    0.0000 H   0  0  0  0  0  0  0  0  0  0  0  0
   16.4221   -3.5490    0.0000 H   0  0  0  0  0  0  0  0  0  0  0  0
   16.6491   -4.3960    0.0000 H   0  0  0  0  0  0  0  0  0  0  0  0
   17.4960   -4.1690    0.0000 H   0  0  0  0  0  0  0  0  0  0  0  0
  1  4  2  0  0  0  0
  1  5  2  0  0  0  0
  1  8  1  0  0  0  0
  1 20  1  0  0  0  0
  2 29  1  0  0  0  0
  2 38  1  0  0  0  0
 14  3  1  6  0  0  0
  3 63  1  0  0  0  0
  6 24  2  0  0  0  0
  7 43  2  0  0  0  0
  8 15  1  0  0  0  0
  8 17  1  0  0  0  0
 16  9  1  6  0  0  0
  9 24  1  0  0  0  0
  9 56  1  0  0  0  0
 10 32  1  0  0  0  0
 10 38  2  0  0  0  0
 11 38  1  0  0  0  0
 11 43  1  0  0  0  0
 11 78  1  0  0  0  0
 12 42  1  0  0  0  0
 12 79  1  0  0  0  0
 12 80  1  0  0  0  0
 13 44  1  0  0  0  0
 13 45  1  0  0  0  0
 13 46  1  0  0  0  0
 14 15  1  0  0  0  0
 14 16  1  0  0  0  0
 14 47  1  0  0  0  0
 15 48  1  0  0  0  0
 15 49  1  0  0  0  0
 16 19  1  0  0  0  0
 16 50  1  0  0  0  0
 17 18  1  0  0  0  0
 17 51  1  0  0  0  0
 17 52  1  0  0  0  0
 18 22  1  0  0  0  0
 18 23  1  0  0  0  0
 18 53  1  0  0  0  0
 19 21  1  0  0  0  0
 19 54  1  0  0  0  0
 19 55  1  0  0  0  0
 20 25  2  0  0  0  0
 20 26  1  0  0  0  0
 21 27  2  0  0  0  0
 21 28  1  0  0  0  0
 22 57  1  0  0  0  0
 22 58  1  0  0  0  0
 22 59  1  0  0  0  0
 23 60  1  0  0  0  0
 23 61  1  0  0  0  0
 23 62  1  0  0  0  0
 24 30  1  0  0  0  0
 25 29  1  0  0  0  0
 25 64  1  0  0  0  0
 26 31  2  0  0  0  0
 26 65  1  0  0  0  0
 27 33  1  0  0  0  0
 27 66  1  0  0  0  0
 28 34  2  0  0  0  0
 28 67  1  0  0  0  0
 29 32  2  0  0  0  0
 30 35  2  0  0  0  0
 30 37  1  0  0  0  0
 31 32  1  0  0  0  0
 31 68  1  0  0  0  0
 33 36  2  0  0  0  0
 33 69  1  0  0  0  0
 34 36  1  0  0  0  0
 34 70  1  0  0  0  0
 35 39  1  0  0  0  0
 35 40  1  0  0  0  0
 36 71  1  0  0  0  0
 37 41  2  0  0  0  0
 37 72  1  0  0  0  0
 39 42  2  0  0  0  0
 39 73  1  0  0  0  0
 40 74  1  0  0  0  0
 40 75  1  0  0  0  0
 40 76  1  0  0  0  0
 41 42  1  0  0  0  0
 41 77  1  0  0  0  0
 43 44  1  0  0  0  0
 44 81  1  0  0  0  0
 44 82  1  0  0  0  0
 45 83  1  0  0  0  0
 45 84  1  0  0  0  0
 45 85  1  0  0  0  0
 46 86  1  0  0  0  0
 46 87  1  0  0  0  0
 46 88  1  0  0  0  0
M  END
> <PUBCHEM_COMPOUND_CID>
509630
> <PUBCHEM_COMPOUND_CANONICALIZED>
1
> <PUBCHEM_CACTVS_COMPLEXITY>
1100
> <PUBCHEM_CACTVS_HBOND_ACCEPTOR>
10
> <PUBCHEM_CACTVS_HBOND_DONOR>
4
> <PUBCHEM_CACTVS_ROTATABLE_BOND>
14
> <PUBCHEM_CACTVS_SUBSKEYS>
AAADcfB/uABgAAAAAAAAAAAAAAAAAWAAAAAwYMAAAAAAAFgB9AAAHgQQSAAADTzh3gYz0bPIEgqsAyVydHDD8LllCjlJmL24ZNiKcLLg3bGUYQhslwLYyaeYyaCeiAQAQEAQAQAQCACAgCACAAAAAAAAAA==
> <PUBCHEM_IUPAC_OPENEYE_NAME>
4-amino-N-[(1S,2R)-1-benzyl-3-[[2-[[2-(dimethylamino)acetyl]amino]-1,3-benzothiazol-6-yl]sulfonyl-isobutyl-amino]-2-hydroxy-propyl]-2-methyl-benzamide
> <PUBCHEM_IUPAC_CAS_NAME>
4-amino-N-[(2S,3R)-4-[[2-[[2-(dimethylamino)-1-oxoethyl]amino]-1,3-benzothiazol-6-yl]sulfonyl-(2-methylpropyl)amino]-3-hydroxy-1-phenylbutan-2-yl]-2-methylbenzamide
> <PUBCHEM_IUPAC_NAME_MARKUP>
4-amino-<I>N</I>-[(2<I>S</I>,3<I>R</I>)-4-[[2-[[2-(dimethylamino)acetyl]amino]-1,3-benzothiazol-6-yl]sulfonyl-(2-methylpropyl)amino]-3-hydroxy-1-phenylbutan-2-yl]-2-methylbenzamide
> <PUBCHEM_IUPAC_NAME>
4-amino-N-[(2S,3R)-4-[[2-[[2-(dimethylamino)acetyl]amino]-1,3-benzothiazol-6-yl]sulfonyl-(2-methylpropyl)amino]-3-hydroxy-1-phenylbutan-2-yl]-2-methylbenzamide
> <PUBCHEM_IUPAC_SYSTEMATIC_NAME>
4-azanyl-N-[(2S,3R)-4-[[2-[2-(dimethylamino)ethanoylamino]-1,3-benzothiazol-6-yl]sulfonyl-(2-methylpropyl)amino]-3-oxidanyl-1-phenyl-butan-2-yl]-2-methyl-benzamide
> <PUBCHEM_IUPAC_TRADITIONAL_NAME>
4-amino-N-[(1S,2R)-1-benzyl-3-[[2-[[2-(dimethylamino)acetyl]amino]-1,3-benzothiazol-6-yl]sulfonyl-isobutyl-amino]-2-hydroxy-propyl]-2-methyl-benzamide
> <PUBCHEM_IUPAC_INCHI>
InChI=1S/C33H42N6O5S2/c1-21(2)18-39(46(43,44)25-12-14-27-30(17-25)45-33(36-27)37-31(41)20-38(4)5)19-29(40)28(16-23-9-7-6-8-10-23)35-32(42)26-13-11-24(34)15-22(26)3/h6-15,17,21,28-29,40H,16,18-20,34H2,1-5H3,(H,35,42)(H,36,37,41)/t28-,29+/m0/s1
> <PUBCHEM_IUPAC_INCHIKEY>
PTNZWSSCVLBSIL-URLMMPGGSA-N
> <PUBCHEM_XLOGP3_AA>
4.5
> <PUBCHEM_EXACT_MASS>
666.26581081
> <PUBCHEM_MOLECULAR_FORMULA>
C33H42N6O5S2
> <PUBCHEM_MOLECULAR_WEIGHT>
666.9
> <PUBCHEM_OPENEYE_CAN_SMILES>
CC1=C(C=CC(=C1)N)C(=O)NC(CC2=CC=CC=C2)C(CN(CC(C)C)S(=O)(=O)C3=CC4=C(C=C3)N=C(S4)NC(=O)CN(C)C)O
> <PUBCHEM_OPENEYE_ISO_SMILES>
CC1=C(C=CC(=C1)N)C(=O)N[C@@H](CC2=CC=CC=C2)[C@@H](CN(CC(C)C)S(=O)(=O)C3=CC4=C(C=C3)N=C(S4)NC(=O)CN(C)C)O
> <PUBCHEM_CACTVS_TPSA>
195
> <PUBCHEM_MONOISOTOPIC_WEIGHT>
666.26581081
> <PUBCHEM_TOTAL_CHARGE>
0
> <PUBCHEM_HEAVY_ATOM_COUNT>
46
> <PUBCHEM_ATOM_DEF_STEREO_COUNT>
2
> <PUBCHEM_ATOM_UDEF_STEREO_COUNT>
0
> <PUBCHEM_BOND_DEF_STEREO_COUNT>
0
> <PUBCHEM_BOND_UDEF_STEREO_COUNT>
0
> <PUBCHEM_ISOTOPIC_ATOM_COUNT>
0
> <PUBCHEM_COMPONENT_COUNT>
1
> <PUBCHEM_CACTVS_TAUTO_COUNT>
-1
> <PUBCHEM_COORDINATE_TYPE>
1
5
255
> <PUBCHEM_BONDANNOTATIONS>
10  32  8
10  38  8
2  29  8
2  38  8
20  25  8
20  26  8
21  27  8
21  28  8
25  29  8
26  31  8
27  33  8
28  34  8
29  32  8
14  3  6
30  35  8
30  37  8
31  32  8
33  36  8
34  36  8
35  39  8
37  41  8
39  42  8
41  42  8
16  9  6
$$$$
