509622
  -OEChem-10302200282D
 91 95  0     1  0  0  0  0  0999 V2000
    8.0622    0.2311    0.0000 S   0  0  0  0  0  0  0  0  0  0  0  0
   11.6065    0.0358    0.0000 S   0  0  0  0  0  0  0  0  0  0  0  0
    5.4641    1.7311    0.0000 O   0  0  0  0  0  0  0  0  0  0  0  0
    2.8660    2.2311    0.0000 O   0  0  0  0  0  0  0  0  0  0  0  0
    7.5622   -0.6349    0.0000 O   0  0  0  0  0  0  0  0  0  0  0  0
    8.5622    1.0971    0.0000 O   0  0  0  0  0  0  0  0  0  0  0  0
    2.3660    4.7699    0.0000 O   0  0  0  0  0  0  0  0  0  0  0  0
    4.5981    2.2311    0.0000 O   0  0  0  0  0  0  0  0  0  0  0  0
   13.1901   -2.5010    0.0000 O   0  0  0  0  0  0  0  0  0  0  0  0
    7.1962    0.7311    0.0000 N   0  0  3  0  0  0  0  0  0  0  0  0
    3.7320    0.7311    0.0000 N   0  0  0  0  0  0  0  0  0  0  0  0
   15.1901   -2.5010    0.0000 N   0  0  0  0  0  0  0  0  0  0  0  0
   16.1901   -4.2330    0.0000 N   0  0  0  0  0  0  0  0  0  0  0  0
   13.1901   -0.7689    0.0000 N   0  0  0  0  0  0  0  0  0  0  0  0
   11.6065   -1.5736    0.0000 N   0  0  0  0  0  0  0  0  0  0  0  0
    5.4641    0.7311    0.0000 C   0  0  1  0  0  0  0  0  0  0  0  0
    4.5981    0.2311    0.0000 C   0  0  2  0  0  0  0  0  0  0  0  0
    6.3301    0.2311    0.0000 C   0  0  0  0  0  0  0  0  0  0  0  0
    7.1962    1.7311    0.0000 C   0  0  0  0  0  0  0  0  0  0  0  0
    8.0622    2.2311    0.0000 C   0  0  0  0  0  0  0  0  0  0  0  0
    4.5981   -0.7689    0.0000 C   0  0  0  0  0  0  0  0  0  0  0  0
    8.9282   -0.2689    0.0000 C   0  0  0  0  0  0  0  0  0  0  0  0
    3.7320   -1.2689    0.0000 C   0  0  0  0  0  0  0  0  0  0  0  0
    8.0622    3.2311    0.0000 C   0  0  0  0  0  0  0  0  0  0  0  0
    8.9282    1.7311    0.0000 C   0  0  0  0  0  0  0  0  0  0  0  0
    2.8660    3.2311    0.0000 C   0  0  1  0  0  0  0  0  0  0  0  0
    3.6750    3.8189    0.0000 C   0  0  0  0  0  0  0  0  0  0  0  0
    3.7320    1.7311    0.0000 C   0  0  0  0  0  0  0  0  0  0  0  0
   14.6901   -3.3670    0.0000 C   0  0  0  0  0  0  0  0  0  0  0  0
   16.1901   -2.5010    0.0000 C   0  0  0  0  0  0  0  0  0  0  0  0
    2.0570    3.8189    0.0000 C   0  0  0  0  0  0  0  0  0  0  0  0
   15.1901   -4.2330    0.0000 C   0  0  0  0  0  0  0  0  0  0  0  0
   16.6901   -3.3670    0.0000 C   0  0  0  0  0  0  0  0  0  0  0  0
    3.3660    4.7699    0.0000 C   0  0  0  0  0  0  0  0  0  0  0  0
    9.7942    0.2311    0.0000 C   0  0  0  0  0  0  0  0  0  0  0  0
    8.9282   -1.2689    0.0000 C   0  0  0  0  0  0  0  0  0  0  0  0
   14.6901   -1.6349    0.0000 C   0  0  0  0  0  0  0  0  0  0  0  0
    3.7320   -2.2689    0.0000 C   0  0  0  0  0  0  0  0  0  0  0  0
    2.8660   -0.7689    0.0000 C   0  0  0  0  0  0  0  0  0  0  0  0
   10.6603   -0.2689    0.0000 C   0  0  0  0  0  0  0  0  0  0  0  0
   10.6603   -1.2689    0.0000 C   0  0  0  0  0  0  0  0  0  0  0  0
    9.7942   -1.7689    0.0000 C   0  0  0  0  0  0  0  0  0  0  0  0
   13.6901   -1.6349    0.0000 C   0  0  0  0  0  0  0  0  0  0  0  0
    2.8660   -2.7689    0.0000 C   0  0  0  0  0  0  0  0  0  0  0  0
    2.0000   -1.2689    0.0000 C   0  0  0  0  0  0  0  0  0  0  0  0
   12.1901   -0.7689    0.0000 C   0  0  0  0  0  0  0  0  0  0  0  0
    2.0000   -2.2689    0.0000 C   0  0  0  0  0  0  0  0  0  0  0  0
    6.0010    1.0411    0.0000 H   0  0  0  0  0  0  0  0  0  0  0  0
    4.5981    0.8511    0.0000 H   0  0  0  0  0  0  0  0  0  0  0  0
    5.9316   -0.2438    0.0000 H   0  0  0  0  0  0  0  0  0  0  0  0
    6.7287   -0.2438    0.0000 H   0  0  0  0  0  0  0  0  0  0  0  0
    6.9841    2.3137    0.0000 H   0  0  0  0  0  0  0  0  0  0  0  0
    6.5856    1.6234    0.0000 H   0  0  0  0  0  0  0  0  0  0  0  0
    8.0622    1.6111    0.0000 H   0  0  0  0  0  0  0  0  0  0  0  0
    4.8101   -1.3515    0.0000 H   0  0  0  0  0  0  0  0  0  0  0  0
    5.2087   -0.6612    0.0000 H   0  0  0  0  0  0  0  0  0  0  0  0
    3.1951    0.4211    0.0000 H   0  0  0  0  0  0  0  0  0  0  0  0
    8.6822    3.2311    0.0000 H   0  0  0  0  0  0  0  0  0  0  0  0
    8.0622    3.8511    0.0000 H   0  0  0  0  0  0  0  0  0  0  0  0
    7.4422    3.2311    0.0000 H   0  0  0  0  0  0  0  0  0  0  0  0
    8.6182    1.1942    0.0000 H   0  0  0  0  0  0  0  0  0  0  0  0
    9.4651    1.4211    0.0000 H   0  0  0  0  0  0  0  0  0  0  0  0
    9.2382    2.2680    0.0000 H   0  0  0  0  0  0  0  0  0  0  0  0
    3.4184    2.9496    0.0000 H   0  0  0  0  0  0  0  0  0  0  0  0
    6.0010    2.0411    0.0000 H   0  0  0  0  0  0  0  0  0  0  0  0
    3.9850    3.2820    0.0000 H   0  0  0  0  0  0  0  0  0  0  0  0
    4.2414    4.0711    0.0000 H   0  0  0  0  0  0  0  0  0  0  0  0
   14.2151   -2.9684    0.0000 H   0  0  0  0  0  0  0  0  0  0  0  0
   14.2151   -3.7655    0.0000 H   0  0  0  0  0  0  0  0  0  0  0  0
   16.7727   -2.2889    0.0000 H   0  0  0  0  0  0  0  0  0  0  0  0
   16.0824   -1.8904    0.0000 H   0  0  0  0  0  0  0  0  0  0  0  0
    1.4906    4.0711    0.0000 H   0  0  0  0  0  0  0  0  0  0  0  0
    1.7470    3.2820    0.0000 H   0  0  0  0  0  0  0  0  0  0  0  0
   14.6075   -4.4451    0.0000 H   0  0  0  0  0  0  0  0  0  0  0  0
   15.2977   -4.8436    0.0000 H   0  0  0  0  0  0  0  0  0  0  0  0
   17.1650   -3.7655    0.0000 H   0  0  0  0  0  0  0  0  0  0  0  0
   17.1650   -2.9684    0.0000 H   0  0  0  0  0  0  0  0  0  0  0  0
    3.9725    4.8988    0.0000 H   0  0  0  0  0  0  0  0  0  0  0  0
    3.3012    5.3865    0.0000 H   0  0  0  0  0  0  0  0  0  0  0  0
    9.7942    0.8511    0.0000 H   0  0  0  0  0  0  0  0  0  0  0  0
    8.3913   -1.5789    0.0000 H   0  0  0  0  0  0  0  0  0  0  0  0
   15.2727   -1.4229    0.0000 H   0  0  0  0  0  0  0  0  0  0  0  0
   14.5824   -1.0244    0.0000 H   0  0  0  0  0  0  0  0  0  0  0  0
   16.5001   -4.7699    0.0000 H   0  0  0  0  0  0  0  0  0  0  0  0
    4.2690   -2.5789    0.0000 H   0  0  0  0  0  0  0  0  0  0  0  0
    2.8660   -0.1489    0.0000 H   0  0  0  0  0  0  0  0  0  0  0  0
    9.7942   -2.3889    0.0000 H   0  0  0  0  0  0  0  0  0  0  0  0
    2.8660   -3.3889    0.0000 H   0  0  0  0  0  0  0  0  0  0  0  0
    1.4631   -0.9589    0.0000 H   0  0  0  0  0  0  0  0  0  0  0  0
   13.5001   -0.2320    0.0000 H   0  0  0  0  0  0  0  0  0  0  0  0
    1.4631   -2.5789    0.0000 H   0  0  0  0  0  0  0  0  0  0  0  0
  1  5  2  0  0  0  0
  1  6  2  0  0  0  0
  1 10  1  0  0  0  0
  1 22  1  0  0  0  0
  2 40  1  0  0  0  0
  2 46  1  0  0  0  0
 16  3  1  6  0  0  0
  3 65  1  0  0  0  0
 26  4  1  6  0  0  0
  4 28  1  0  0  0  0
  7 31  1  0  0  0  0
  7 34  1  0  0  0  0
  8 28  2  0  0  0  0
  9 43  2  0  0  0  0
 10 18  1  0  0  0  0
 10 19  1  0  0  0  0
 17 11  1  6  0  0  0
 11 28  1  0  0  0  0
 11 57  1  0  0  0  0
 12 29  1  0  0  0  0
 12 30  1  0  0  0  0
 12 37  1  0  0  0  0
 13 32  1  0  0  0  0
 13 33  1  0  0  0  0
 13 84  1  0  0  0  0
 14 43  1  0  0  0  0
 14 46  1  0  0  0  0
 14 90  1  0  0  0  0
 15 41  1  0  0  0  0
 15 46  2  0  0  0  0
 16 17  1  0  0  0  0
 16 18  1  0  0  0  0
 16 48  1  0  0  0  0
 17 21  1  0  0  0  0
 17 49  1  0  0  0  0
 18 50  1  0  0  0  0
 18 51  1  0  0  0  0
 19 20  1  0  0  0  0
 19 52  1  0  0  0  0
 19 53  1  0  0  0  0
 20 24  1  0  0  0  0
 20 25  1  0  0  0  0
 20 54  1  0  0  0  0
 21 23  1  0  0  0  0
 21 55  1  0  0  0  0
 21 56  1  0  0  0  0
 22 35  2  0  0  0  0
 22 36  1  0  0  0  0
 23 38  2  0  0  0  0
 23 39  1  0  0  0  0
 24 58  1  0  0  0  0
 24 59  1  0  0  0  0
 24 60  1  0  0  0  0
 25 61  1  0  0  0  0
 25 62  1  0  0  0  0
 25 63  1  0  0  0  0
 26 27  1  0  0  0  0
 26 31  1  0  0  0  0
 26 64  1  0  0  0  0
 27 34  1  0  0  0  0
 27 66  1  0  0  0  0
 27 67  1  0  0  0  0
 29 32  1  0  0  0  0
 29 68  1  0  0  0  0
 29 69  1  0  0  0  0
 30 33  1  0  0  0  0
 30 70  1  0  0  0  0
 30 71  1  0  0  0  0
 31 72  1  0  0  0  0
 31 73  1  0  0  0  0
 32 74  1  0  0  0  0
 32 75  1  0  0  0  0
 33 76  1  0  0  0  0
 33 77  1  0  0  0  0
 34 78  1  0  0  0  0
 34 79  1  0  0  0  0
 35 40  1  0  0  0  0
 35 80  1  0  0  0  0
 36 42  2  0  0  0  0
 36 81  1  0  0  0  0
 37 43  1  0  0  0  0
 37 82  1  0  0  0  0
 37 83  1  0  0  0  0
 38 44  1  0  0  0  0
 38 85  1  0  0  0  0
 39 45  2  0  0  0  0
 39 86  1  0  0  0  0
 40 41  2  0  0  0  0
 41 42  1  0  0  0  0
 42 87  1  0  0  0  0
 44 47  2  0  0  0  0
 44 88  1  0  0  0  0
 45 47  1  0  0  0  0
 45 89  1  0  0  0  0
 47 91  1  0  0  0  0
M  END
> <PUBCHEM_COMPOUND_CID>
509622
> <PUBCHEM_COMPOUND_CANONICALIZED>
1
> <PUBCHEM_CACTVS_COMPLEXITY>
1120
> <PUBCHEM_CACTVS_HBOND_ACCEPTOR>
12
> <PUBCHEM_CACTVS_HBOND_DONOR>
4
> <PUBCHEM_CACTVS_ROTATABLE_BOND>
15
> <PUBCHEM_CACTVS_SUBSKEYS>
AAADcfB/uABgAAAAAAAAAAAAAAAAAWJAAAA8YIAAAAAAAFgB9AAAHgQQSAAADTzh3gYz2bPIFgqsAyVyfHDD8LlhCjlJmLy4ZJmLcKLg2bGeYAhtlwLayCeQwKAOAAQAAEAAAQAACAAAgAACAAAAAAAAAA==
> <PUBCHEM_IUPAC_OPENEYE_NAME>
[(3S)-tetrahydrofuran-3-yl] N-[(1S,2R)-1-benzyl-2-hydroxy-3-[isobutyl-[[2-[(2-piperazin-1-ylacetyl)amino]-1,3-benzothiazol-6-yl]sulfonyl]amino]propyl]carbamate
> <PUBCHEM_IUPAC_CAS_NAME>
N-[(2S,3R)-3-hydroxy-4-[2-methylpropyl-[[2-[[1-oxo-2-(1-piperazinyl)ethyl]amino]-1,3-benzothiazol-6-yl]sulfonyl]amino]-1-phenylbutan-2-yl]carbamic acid [(3S)-3-oxolanyl] ester
> <PUBCHEM_IUPAC_NAME_MARKUP>
[(3<I>S</I>)-oxolan-3-yl] <I>N</I>-[(2<I>S</I>,3<I>R</I>)-3-hydroxy-4-[2-methylpropyl-[[2-[(2-piperazin-1-ylacetyl)amino]-1,3-benzothiazol-6-yl]sulfonyl]amino]-1-phenylbutan-2-yl]carbamate
> <PUBCHEM_IUPAC_NAME>
[(3S)-oxolan-3-yl] N-[(2S,3R)-3-hydroxy-4-[2-methylpropyl-[[2-[(2-piperazin-1-ylacetyl)amino]-1,3-benzothiazol-6-yl]sulfonyl]amino]-1-phenylbutan-2-yl]carbamate
> <PUBCHEM_IUPAC_SYSTEMATIC_NAME>
[(3S)-oxolan-3-yl] N-[(2S,3R)-4-[2-methylpropyl-[[2-(2-piperazin-1-ylethanoylamino)-1,3-benzothiazol-6-yl]sulfonyl]amino]-3-oxidanyl-1-phenyl-butan-2-yl]carbamate
> <PUBCHEM_IUPAC_TRADITIONAL_NAME>
N-[(1S,2R)-1-benzyl-2-hydroxy-3-[isobutyl-[[2-[(2-piperazinoacetyl)amino]-1,3-benzothiazol-6-yl]sulfonyl]amino]propyl]carbamic acid [(3S)-tetrahydrofuran-3-yl] ester
> <PUBCHEM_IUPAC_INCHI>
InChI=1S/C32H44N6O7S2/c1-22(2)18-38(19-28(39)27(16-23-6-4-3-5-7-23)35-32(41)45-24-10-15-44-21-24)47(42,43)25-8-9-26-29(17-25)46-31(34-26)36-30(40)20-37-13-11-33-12-14-37/h3-9,17,22,24,27-28,33,39H,10-16,18-21H2,1-2H3,(H,35,41)(H,34,36,40)/t24-,27-,28+/m0/s1
> <PUBCHEM_IUPAC_INCHIKEY>
DLYVAJYEWPPEQE-SAAIGDAKSA-N
> <PUBCHEM_XLOGP3_AA>
3
> <PUBCHEM_EXACT_MASS>
688.27129011
> <PUBCHEM_MOLECULAR_FORMULA>
C32H44N6O7S2
> <PUBCHEM_MOLECULAR_WEIGHT>
688.9
> <PUBCHEM_OPENEYE_CAN_SMILES>
CC(C)CN(CC(C(CC1=CC=CC=C1)NC(=O)OC2CCOC2)O)S(=O)(=O)C3=CC4=C(C=C3)N=C(S4)NC(=O)CN5CCNCC5
> <PUBCHEM_OPENEYE_ISO_SMILES>
CC(C)CN(C[C@H]([C@H](CC1=CC=CC=C1)NC(=O)O[C@H]2CCOC2)O)S(=O)(=O)C3=CC4=C(C=C3)N=C(S4)NC(=O)CN5CCNCC5
> <PUBCHEM_CACTVS_TPSA>
199
> <PUBCHEM_MONOISOTOPIC_WEIGHT>
688.27129011
> <PUBCHEM_TOTAL_CHARGE>
0
> <PUBCHEM_HEAVY_ATOM_COUNT>
47
> <PUBCHEM_ATOM_DEF_STEREO_COUNT>
3
> <PUBCHEM_ATOM_UDEF_STEREO_COUNT>
0
> <PUBCHEM_BOND_DEF_STEREO_COUNT>
0
> <PUBCHEM_BOND_UDEF_STEREO_COUNT>
0
> <PUBCHEM_ISOTOPIC_ATOM_COUNT>
0
> <PUBCHEM_COMPONENT_COUNT>
1
> <PUBCHEM_CACTVS_TAUTO_COUNT>
-1
> <PUBCHEM_COORDINATE_TYPE>
1
5
255
> <PUBCHEM_BONDANNOTATIONS>
17  11  6
15  41  8
15  46  8
2  40  8
2  46  8
22  35  8
22  36  8
23  38  8
23  39  8
16  3  6
35  40  8
36  42  8
38  44  8
39  45  8
26  4  6
40  41  8
41  42  8
44  47  8
45  47  8
$$$$
