509600
  -OEChem-10302200282D
 85 89  0     1  0  0  0  0  0999 V2000
    9.3056   -1.0605    0.0000 S   0  0  0  0  0  0  0  0  0  0  0  0
   12.8499   -1.2558    0.0000 S   0  0  0  0  0  0  0  0  0  0  0  0
    4.6095    3.4783    0.0000 O   0  0  0  0  0  0  0  0  0  0  0  0
    2.8037    4.0605    0.0000 O   0  0  0  0  0  0  0  0  0  0  0  0
    4.1095    0.9395    0.0000 O   0  0  0  0  0  0  0  0  0  0  0  0
    6.7075    0.4395    0.0000 O   0  0  0  0  0  0  0  0  0  0  0  0
    5.8415    0.9395    0.0000 O   0  0  0  0  0  0  0  0  0  0  0  0
    8.8056   -1.9266    0.0000 O   0  0  0  0  0  0  0  0  0  0  0  0
    9.8056   -0.1945    0.0000 O   0  0  0  0  0  0  0  0  0  0  0  0
   14.4335   -3.7926    0.0000 O   0  0  0  0  0  0  0  0  0  0  0  0
    4.9755   -0.5605    0.0000 N   0  0  0  0  0  0  0  0  0  0  0  0
    8.4396   -0.5605    0.0000 N   0  0  3  0  0  0  0  0  0  0  0  0
   12.8499   -2.8653    0.0000 N   0  0  0  0  0  0  0  0  0  0  0  0
   14.4335   -2.0605    0.0000 N   0  0  0  0  0  0  0  0  0  0  0  0
    3.3004    2.5273    0.0000 C   0  0  2  0  0  0  0  0  0  0  0  0
    3.6095    3.4783    0.0000 C   0  0  1  0  0  0  0  0  0  0  0  0
    4.1095    1.9395    0.0000 C   0  0  2  0  0  0  0  0  0  0  0  0
    2.3064    2.5298    0.0000 C   0  0  0  0  0  0  0  0  0  0  0  0
    4.9185    2.5273    0.0000 C   0  0  0  0  0  0  0  0  0  0  0  0
    2.0000    3.4755    0.0000 C   0  0  0  0  0  0  0  0  0  0  0  0
    5.8415   -1.0605    0.0000 C   0  0  2  0  0  0  0  0  0  0  0  0
    4.9755    0.4395    0.0000 C   0  0  0  0  0  0  0  0  0  0  0  0
    6.7075   -0.5605    0.0000 C   0  0  1  0  0  0  0  0  0  0  0  0
    7.5736   -1.0605    0.0000 C   0  0  0  0  0  0  0  0  0  0  0  0
    5.8415   -2.0605    0.0000 C   0  0  0  0  0  0  0  0  0  0  0  0
    8.4396    0.4395    0.0000 C   0  0  0  0  0  0  0  0  0  0  0  0
    9.3056    0.9395    0.0000 C   0  0  0  0  0  0  0  0  0  0  0  0
    4.9755   -2.5605    0.0000 C   0  0  0  0  0  0  0  0  0  0  0  0
   10.1716   -1.5605    0.0000 C   0  0  0  0  0  0  0  0  0  0  0  0
    9.3056    1.9395    0.0000 C   0  0  0  0  0  0  0  0  0  0  0  0
   10.1716    0.4395    0.0000 C   0  0  0  0  0  0  0  0  0  0  0  0
    4.9755   -3.5605    0.0000 C   0  0  0  0  0  0  0  0  0  0  0  0
    4.1095   -2.0605    0.0000 C   0  0  0  0  0  0  0  0  0  0  0  0
   11.0377   -1.0605    0.0000 C   0  0  0  0  0  0  0  0  0  0  0  0
   10.1716   -2.5605    0.0000 C   0  0  0  0  0  0  0  0  0  0  0  0
   11.9037   -1.5605    0.0000 C   0  0  0  0  0  0  0  0  0  0  0  0
    4.1095   -4.0605    0.0000 C   0  0  0  0  0  0  0  0  0  0  0  0
    3.2434   -2.5605    0.0000 C   0  0  0  0  0  0  0  0  0  0  0  0
   11.0377   -3.0605    0.0000 C   0  0  0  0  0  0  0  0  0  0  0  0
   11.9037   -2.5605    0.0000 C   0  0  0  0  0  0  0  0  0  0  0  0
    3.2434   -3.5605    0.0000 C   0  0  0  0  0  0  0  0  0  0  0  0
   13.4335   -2.0605    0.0000 C   0  0  0  0  0  0  0  0  0  0  0  0
   14.9335   -1.1945    0.0000 C   0  0  0  0  0  0  0  0  0  0  0  0
   14.9335   -2.9266    0.0000 C   0  0  0  0  0  0  0  0  0  0  0  0
   15.9335   -2.9266    0.0000 C   0  0  0  0  0  0  0  0  0  0  0  0
    3.0367    1.7192    0.0000 H   0  0  0  0  0  0  0  0  0  0  0  0
    3.8711    4.2870    0.0000 H   0  0  0  0  0  0  0  0  0  0  0  0
    3.5570    1.6580    0.0000 H   0  0  0  0  0  0  0  0  0  0  0  0
    1.6997    2.4018    0.0000 H   0  0  0  0  0  0  0  0  0  0  0  0
    2.3699    1.9131    0.0000 H   0  0  0  0  0  0  0  0  0  0  0  0
    5.2285    1.9903    0.0000 H   0  0  0  0  0  0  0  0  0  0  0  0
    5.4849    2.7794    0.0000 H   0  0  0  0  0  0  0  0  0  0  0  0
    1.6898    4.0124    0.0000 H   0  0  0  0  0  0  0  0  0  0  0  0
    1.4335    3.2235    0.0000 H   0  0  0  0  0  0  0  0  0  0  0  0
    5.3046   -1.3705    0.0000 H   0  0  0  0  0  0  0  0  0  0  0  0
    7.2445   -0.2505    0.0000 H   0  0  0  0  0  0  0  0  0  0  0  0
    7.1750   -1.5355    0.0000 H   0  0  0  0  0  0  0  0  0  0  0  0
    7.9721   -1.5355    0.0000 H   0  0  0  0  0  0  0  0  0  0  0  0
    4.4386   -0.8705    0.0000 H   0  0  0  0  0  0  0  0  0  0  0  0
    6.0536   -2.6431    0.0000 H   0  0  0  0  0  0  0  0  0  0  0  0
    6.4521   -1.9529    0.0000 H   0  0  0  0  0  0  0  0  0  0  0  0
    8.2275    1.0221    0.0000 H   0  0  0  0  0  0  0  0  0  0  0  0
    7.8290    0.3318    0.0000 H   0  0  0  0  0  0  0  0  0  0  0  0
    8.7687    1.2495    0.0000 H   0  0  0  0  0  0  0  0  0  0  0  0
    7.2445    0.7495    0.0000 H   0  0  0  0  0  0  0  0  0  0  0  0
    9.9256    1.9395    0.0000 H   0  0  0  0  0  0  0  0  0  0  0  0
    9.3056    2.5595    0.0000 H   0  0  0  0  0  0  0  0  0  0  0  0
    8.6856    1.9395    0.0000 H   0  0  0  0  0  0  0  0  0  0  0  0
    9.8616   -0.0975    0.0000 H   0  0  0  0  0  0  0  0  0  0  0  0
   10.7086    0.1295    0.0000 H   0  0  0  0  0  0  0  0  0  0  0  0
   10.4816    0.9764    0.0000 H   0  0  0  0  0  0  0  0  0  0  0  0
    5.5124   -3.8705    0.0000 H   0  0  0  0  0  0  0  0  0  0  0  0
    4.1095   -1.4405    0.0000 H   0  0  0  0  0  0  0  0  0  0  0  0
   11.0377   -0.4405    0.0000 H   0  0  0  0  0  0  0  0  0  0  0  0
    9.6347   -2.8705    0.0000 H   0  0  0  0  0  0  0  0  0  0  0  0
    4.1095   -4.6805    0.0000 H   0  0  0  0  0  0  0  0  0  0  0  0
    2.7065   -2.2505    0.0000 H   0  0  0  0  0  0  0  0  0  0  0  0
   11.0377   -3.6805    0.0000 H   0  0  0  0  0  0  0  0  0  0  0  0
    2.7065   -3.8705    0.0000 H   0  0  0  0  0  0  0  0  0  0  0  0
   15.4705   -1.5045    0.0000 H   0  0  0  0  0  0  0  0  0  0  0  0
   15.2435   -0.6576    0.0000 H   0  0  0  0  0  0  0  0  0  0  0  0
   14.3966   -0.8845    0.0000 H   0  0  0  0  0  0  0  0  0  0  0  0
   15.9335   -3.5466    0.0000 H   0  0  0  0  0  0  0  0  0  0  0  0
   16.5535   -2.9266    0.0000 H   0  0  0  0  0  0  0  0  0  0  0  0
   15.9335   -2.3066    0.0000 H   0  0  0  0  0  0  0  0  0  0  0  0
  1  8  2  0  0  0  0
  1  9  2  0  0  0  0
  1 12  1  0  0  0  0
  1 29  1  0  0  0  0
  2 36  1  0  0  0  0
  2 42  1  0  0  0  0
  3 16  1  0  0  0  0
  3 19  1  0  0  0  0
  4 16  1  0  0  0  0
  4 20  1  0  0  0  0
 17  5  1  6  0  0  0
  5 22  1  0  0  0  0
 23  6  1  6  0  0  0
  6 65  1  0  0  0  0
  7 22  2  0  0  0  0
 10 44  2  0  0  0  0
 21 11  1  6  0  0  0
 11 22  1  0  0  0  0
 11 59  1  0  0  0  0
 12 24  1  0  0  0  0
 12 26  1  0  0  0  0
 13 40  1  0  0  0  0
 13 42  2  0  0  0  0
 14 42  1  0  0  0  0
 14 43  1  0  0  0  0
 14 44  1  0  0  0  0
 15 16  1  0  0  0  0
 15 17  1  0  0  0  0
 15 18  1  0  0  0  0
 15 46  1  1  0  0  0
 16 47  1  1  0  0  0
 17 19  1  0  0  0  0
 17 48  1  0  0  0  0
 18 20  1  0  0  0  0
 18 49  1  0  0  0  0
 18 50  1  0  0  0  0
 19 51  1  0  0  0  0
 19 52  1  0  0  0  0
 20 53  1  0  0  0  0
 20 54  1  0  0  0  0
 21 23  1  0  0  0  0
 21 25  1  0  0  0  0
 21 55  1  0  0  0  0
 23 24  1  0  0  0  0
 23 56  1  0  0  0  0
 24 57  1  0  0  0  0
 24 58  1  0  0  0  0
 25 28  1  0  0  0  0
 25 60  1  0  0  0  0
 25 61  1  0  0  0  0
 26 27  1  0  0  0  0
 26 62  1  0  0  0  0
 26 63  1  0  0  0  0
 27 30  1  0  0  0  0
 27 31  1  0  0  0  0
 27 64  1  0  0  0  0
 28 32  2  0  0  0  0
 28 33  1  0  0  0  0
 29 34  2  0  0  0  0
 29 35  1  0  0  0  0
 30 66  1  0  0  0  0
 30 67  1  0  0  0  0
 30 68  1  0  0  0  0
 31 69  1  0  0  0  0
 31 70  1  0  0  0  0
 31 71  1  0  0  0  0
 32 37  1  0  0  0  0
 32 72  1  0  0  0  0
 33 38  2  0  0  0  0
 33 73  1  0  0  0  0
 34 36  1  0  0  0  0
 34 74  1  0  0  0  0
 35 39  2  0  0  0  0
 35 75  1  0  0  0  0
 36 40  2  0  0  0  0
 37 41  2  0  0  0  0
 37 76  1  0  0  0  0
 38 41  1  0  0  0  0
 38 77  1  0  0  0  0
 39 40  1  0  0  0  0
 39 78  1  0  0  0  0
 41 79  1  0  0  0  0
 43 80  1  0  0  0  0
 43 81  1  0  0  0  0
 43 82  1  0  0  0  0
 44 45  1  0  0  0  0
 45 83  1  0  0  0  0
 45 84  1  0  0  0  0
 45 85  1  0  0  0  0
M  END
> <PUBCHEM_COMPOUND_CID>
509600
> <PUBCHEM_COMPOUND_CANONICALIZED>
1
> <PUBCHEM_CACTVS_COMPLEXITY>
1120
> <PUBCHEM_CACTVS_HBOND_ACCEPTOR>
11
> <PUBCHEM_CACTVS_HBOND_DONOR>
2
> <PUBCHEM_CACTVS_ROTATABLE_BOND>
13
> <PUBCHEM_CACTVS_SUBSKEYS>
AAADcfB7vABgAAAAAAAAAAAAAAAAAWJEgAAwYAAAAAASAFgB9AAAHgQQSAAADTzx3gcz2bPIFgqsAyVyfHDD8LlhCjhJmLw4ZJmbMKLg2ZGuYAhtlwLeyCfQ4KgOAAQAAEAAAQAACAAAgAACAAAAAAAAAA==
> <PUBCHEM_IUPAC_OPENEYE_NAME>
[(3aS,4R,6aR)-2,3,3a,4,5,6a-hexahydrofuro[2,3-b]furan-4-yl] N-[(1S,2R)-3-[[2-[acetyl(methyl)amino]-1,3-benzothiazol-6-yl]sulfonyl-isobutyl-amino]-1-benzyl-2-hydroxy-propyl]carbamate
> <PUBCHEM_IUPAC_CAS_NAME>
N-[(2S,3R)-4-[[2-[acetyl(methyl)amino]-1,3-benzothiazol-6-yl]sulfonyl-(2-methylpropyl)amino]-3-hydroxy-1-phenylbutan-2-yl]carbamic acid [(3aS,4R,6aR)-2,3,3a,4,5,6a-hexahydrofuro[2,3-b]furan-4-yl] ester
> <PUBCHEM_IUPAC_NAME_MARKUP>
[(3<I>a</I><I>S</I>,4<I>R</I>,6<I>a</I><I>R</I>)-2,3,3<I>a</I>,4,5,6<I>a</I>-hexahydrofuro[2,3-b]furan-4-yl] <I>N</I>-[(2<I>S</I>,3<I>R</I>)-4-[[2-[acetyl(methyl)amino]-1,3-benzothiazol-6-yl]sulfonyl-(2-methylpropyl)amino]-3-hydroxy-1-phenylbutan-2-yl]carbamate
> <PUBCHEM_IUPAC_NAME>
[(3aS,4R,6aR)-2,3,3a,4,5,6a-hexahydrofuro[2,3-b]furan-4-yl] N-[(2S,3R)-4-[[2-[acetyl(methyl)amino]-1,3-benzothiazol-6-yl]sulfonyl-(2-methylpropyl)amino]-3-hydroxy-1-phenylbutan-2-yl]carbamate
> <PUBCHEM_IUPAC_SYSTEMATIC_NAME>
[(3aS,4R,6aR)-2,3,3a,4,5,6a-hexahydrofuro[2,3-b]furan-4-yl] N-[(2S,3R)-4-[[2-[ethanoyl(methyl)amino]-1,3-benzothiazol-6-yl]sulfonyl-(2-methylpropyl)amino]-3-oxidanyl-1-phenyl-butan-2-yl]carbamate
> <PUBCHEM_IUPAC_TRADITIONAL_NAME>
N-[(1S,2R)-3-[[2-[acetyl(methyl)amino]-1,3-benzothiazol-6-yl]sulfonyl-isobutyl-amino]-1-benzyl-2-hydroxy-propyl]carbamic acid [(3aS,4R,6aR)-2,3,3a,4,5,6a-hexahydrofuro[2,3-b]furan-4-yl] ester
> <PUBCHEM_IUPAC_INCHI>
InChI=1S/C31H40N4O8S2/c1-19(2)16-35(45(39,40)22-10-11-24-28(15-22)44-30(32-24)34(4)20(3)36)17-26(37)25(14-21-8-6-5-7-9-21)33-31(38)43-27-18-42-29-23(27)12-13-41-29/h5-11,15,19,23,25-27,29,37H,12-14,16-18H2,1-4H3,(H,33,38)/t23-,25-,26+,27-,29+/m0/s1
> <PUBCHEM_IUPAC_INCHIKEY>
FMNXAWFJFOYLBV-OPUPNEDUSA-N
> <PUBCHEM_XLOGP3_AA>
3.8
> <PUBCHEM_EXACT_MASS>
660.22875659
> <PUBCHEM_MOLECULAR_FORMULA>
C31H40N4O8S2
> <PUBCHEM_MOLECULAR_WEIGHT>
660.8
> <PUBCHEM_OPENEYE_CAN_SMILES>
CC(C)CN(CC(C(CC1=CC=CC=C1)NC(=O)OC2COC3C2CCO3)O)S(=O)(=O)C4=CC5=C(C=C4)N=C(S5)N(C)C(=O)C
> <PUBCHEM_OPENEYE_ISO_SMILES>
CC(C)CN(C[C@H]([C@H](CC1=CC=CC=C1)NC(=O)O[C@H]2CO[C@@H]3[C@H]2CCO3)O)S(=O)(=O)C4=CC5=C(C=C4)N=C(S5)N(C)C(=O)C
> <PUBCHEM_CACTVS_TPSA>
184
> <PUBCHEM_MONOISOTOPIC_WEIGHT>
660.22875659
> <PUBCHEM_TOTAL_CHARGE>
0
> <PUBCHEM_HEAVY_ATOM_COUNT>
45
> <PUBCHEM_ATOM_DEF_STEREO_COUNT>
5
> <PUBCHEM_ATOM_UDEF_STEREO_COUNT>
0
> <PUBCHEM_BOND_DEF_STEREO_COUNT>
0
> <PUBCHEM_BOND_UDEF_STEREO_COUNT>
0
> <PUBCHEM_ISOTOPIC_ATOM_COUNT>
0
> <PUBCHEM_COMPONENT_COUNT>
1
> <PUBCHEM_CACTVS_TAUTO_COUNT>
-1
> <PUBCHEM_COORDINATE_TYPE>
1
5
255
> <PUBCHEM_BONDANNOTATIONS>
21  11  6
13  40  8
13  42  8
15  46  5
16  47  5
2  36  8
2  42  8
28  32  8
28  33  8
29  34  8
29  35  8
32  37  8
33  38  8
34  36  8
35  39  8
36  40  8
37  41  8
38  41  8
39  40  8
17  5  6
23  6  6
$$$$
