509643
  -OEChem-10302200282D
 93 97  0     1  0  0  0  0  0999 V2000
    9.7942    0.0005    0.0000 S   0  0  0  0  0  0  0  0  0  0  0  0
   13.3385   -0.1947    0.0000 S   0  0  0  0  0  0  0  0  0  0  0  0
    7.1962    1.5005    0.0000 O   0  0  0  0  0  0  0  0  0  0  0  0
    9.2942   -0.8655    0.0000 O   0  0  0  0  0  0  0  0  0  0  0  0
   10.2942    0.8665    0.0000 O   0  0  0  0  0  0  0  0  0  0  0  0
    4.5981    2.0005    0.0000 O   0  0  0  0  0  0  0  0  0  0  0  0
    6.3301    2.0005    0.0000 O   0  0  0  0  0  0  0  0  0  0  0  0
    8.9282    0.5005    0.0000 N   0  0  3  0  0  0  0  0  0  0  0  0
   16.9221   -2.7315    0.0000 N   0  0  0  0  0  0  0  0  0  0  0  0
    5.4641    0.5005    0.0000 N   0  0  0  0  0  0  0  0  0  0  0  0
   17.9221   -4.4636    0.0000 N   0  0  0  0  0  0  0  0  0  0  0  0
   14.9221   -0.9995    0.0000 N   0  0  0  0  0  0  0  0  0  0  0  0
   13.3385   -1.8042    0.0000 N   0  0  0  0  0  0  0  0  0  0  0  0
    2.0000    3.5005    0.0000 N   0  0  0  0  0  0  0  0  0  0  0  0
    7.1962    0.5005    0.0000 C   0  0  2  0  0  0  0  0  0  0  0  0
    8.0622    0.0005    0.0000 C   0  0  0  0  0  0  0  0  0  0  0  0
    6.3301    0.0005    0.0000 C   0  0  2  0  0  0  0  0  0  0  0  0
    8.9282    1.5005    0.0000 C   0  0  0  0  0  0  0  0  0  0  0  0
    9.7942    2.0005    0.0000 C   0  0  0  0  0  0  0  0  0  0  0  0
    6.3301   -0.9995    0.0000 C   0  0  0  0  0  0  0  0  0  0  0  0
   16.4221   -3.5976    0.0000 C   0  0  0  0  0  0  0  0  0  0  0  0
   17.9221   -2.7315    0.0000 C   0  0  0  0  0  0  0  0  0  0  0  0
   10.6603   -0.4995    0.0000 C   0  0  0  0  0  0  0  0  0  0  0  0
   16.4221   -1.8655    0.0000 C   0  0  0  0  0  0  0  0  0  0  0  0
   16.9221   -4.4636    0.0000 C   0  0  0  0  0  0  0  0  0  0  0  0
   18.4221   -3.5976    0.0000 C   0  0  0  0  0  0  0  0  0  0  0  0
    9.7942    3.0005    0.0000 C   0  0  0  0  0  0  0  0  0  0  0  0
   10.6603    1.5005    0.0000 C   0  0  0  0  0  0  0  0  0  0  0  0
    5.4641   -1.4995    0.0000 C   0  0  0  0  0  0  0  0  0  0  0  0
   15.4221   -1.8655    0.0000 C   0  0  0  0  0  0  0  0  0  0  0  0
   11.5263    0.0005    0.0000 C   0  0  0  0  0  0  0  0  0  0  0  0
   10.6603   -1.4995    0.0000 C   0  0  0  0  0  0  0  0  0  0  0  0
   12.3923   -0.4995    0.0000 C   0  0  0  0  0  0  0  0  0  0  0  0
   12.3923   -1.4995    0.0000 C   0  0  0  0  0  0  0  0  0  0  0  0
    5.4641    1.5005    0.0000 C   0  0  0  0  0  0  0  0  0  0  0  0
    5.4641   -2.4995    0.0000 C   0  0  0  0  0  0  0  0  0  0  0  0
    4.5981   -0.9995    0.0000 C   0  0  0  0  0  0  0  0  0  0  0  0
   11.5263   -1.9995    0.0000 C   0  0  0  0  0  0  0  0  0  0  0  0
   13.9221   -0.9995    0.0000 C   0  0  0  0  0  0  0  0  0  0  0  0
    4.5981   -2.9995    0.0000 C   0  0  0  0  0  0  0  0  0  0  0  0
    3.7320   -1.4995    0.0000 C   0  0  0  0  0  0  0  0  0  0  0  0
    3.7320   -2.4995    0.0000 C   0  0  0  0  0  0  0  0  0  0  0  0
    4.5981    3.0005    0.0000 C   0  0  0  0  0  0  0  0  0  0  0  0
    3.7320    3.5005    0.0000 C   0  0  0  0  0  0  0  0  0  0  0  0
    3.7320    4.5005    0.0000 C   0  0  0  0  0  0  0  0  0  0  0  0
    2.8660    3.0005    0.0000 C   0  0  0  0  0  0  0  0  0  0  0  0
    2.8660    5.0005    0.0000 C   0  0  0  0  0  0  0  0  0  0  0  0
    2.0000    4.5005    0.0000 C   0  0  0  0  0  0  0  0  0  0  0  0
    6.6592    0.8105    0.0000 H   0  0  0  0  0  0  0  0  0  0  0  0
    7.6636   -0.4744    0.0000 H   0  0  0  0  0  0  0  0  0  0  0  0
    8.4607   -0.4744    0.0000 H   0  0  0  0  0  0  0  0  0  0  0  0
    5.7932   -0.3095    0.0000 H   0  0  0  0  0  0  0  0  0  0  0  0
    8.7162    2.0831    0.0000 H   0  0  0  0  0  0  0  0  0  0  0  0
    8.3176    1.3929    0.0000 H   0  0  0  0  0  0  0  0  0  0  0  0
    9.2573    2.3105    0.0000 H   0  0  0  0  0  0  0  0  0  0  0  0
    6.5422   -1.5821    0.0000 H   0  0  0  0  0  0  0  0  0  0  0  0
    6.9407   -0.8918    0.0000 H   0  0  0  0  0  0  0  0  0  0  0  0
   15.9472   -3.1990    0.0000 H   0  0  0  0  0  0  0  0  0  0  0  0
   15.9472   -3.9961    0.0000 H   0  0  0  0  0  0  0  0  0  0  0  0
   18.5047   -2.5195    0.0000 H   0  0  0  0  0  0  0  0  0  0  0  0
   17.8145   -2.1210    0.0000 H   0  0  0  0  0  0  0  0  0  0  0  0
    4.9272    0.1905    0.0000 H   0  0  0  0  0  0  0  0  0  0  0  0
   17.0047   -1.6534    0.0000 H   0  0  0  0  0  0  0  0  0  0  0  0
   16.3145   -1.2549    0.0000 H   0  0  0  0  0  0  0  0  0  0  0  0
   16.3395   -4.6756    0.0000 H   0  0  0  0  0  0  0  0  0  0  0  0
   17.0298   -5.0742    0.0000 H   0  0  0  0  0  0  0  0  0  0  0  0
   18.8971   -3.9961    0.0000 H   0  0  0  0  0  0  0  0  0  0  0  0
   18.8971   -3.1990    0.0000 H   0  0  0  0  0  0  0  0  0  0  0  0
   10.4142    3.0005    0.0000 H   0  0  0  0  0  0  0  0  0  0  0  0
    9.7942    3.6205    0.0000 H   0  0  0  0  0  0  0  0  0  0  0  0
    9.1742    3.0005    0.0000 H   0  0  0  0  0  0  0  0  0  0  0  0
   10.3503    0.9636    0.0000 H   0  0  0  0  0  0  0  0  0  0  0  0
   11.1972    1.1905    0.0000 H   0  0  0  0  0  0  0  0  0  0  0  0
   10.9703    2.0375    0.0000 H   0  0  0  0  0  0  0  0  0  0  0  0
    7.7331    1.8105    0.0000 H   0  0  0  0  0  0  0  0  0  0  0  0
   18.2321   -5.0005    0.0000 H   0  0  0  0  0  0  0  0  0  0  0  0
   14.8395   -2.0776    0.0000 H   0  0  0  0  0  0  0  0  0  0  0  0
   15.5298   -2.4761    0.0000 H   0  0  0  0  0  0  0  0  0  0  0  0
   11.5263    0.6205    0.0000 H   0  0  0  0  0  0  0  0  0  0  0  0
   10.1233   -1.8095    0.0000 H   0  0  0  0  0  0  0  0  0  0  0  0
    6.0010   -2.8095    0.0000 H   0  0  0  0  0  0  0  0  0  0  0  0
    4.5981   -0.3795    0.0000 H   0  0  0  0  0  0  0  0  0  0  0  0
   15.2321   -0.4625    0.0000 H   0  0  0  0  0  0  0  0  0  0  0  0
   11.5263   -2.6195    0.0000 H   0  0  0  0  0  0  0  0  0  0  0  0
    4.5981   -3.6195    0.0000 H   0  0  0  0  0  0  0  0  0  0  0  0
    3.1951   -1.1895    0.0000 H   0  0  0  0  0  0  0  0  0  0  0  0
    3.1951   -2.8095    0.0000 H   0  0  0  0  0  0  0  0  0  0  0  0
    5.2087    2.8929    0.0000 H   0  0  0  0  0  0  0  0  0  0  0  0
    4.8101    3.5831    0.0000 H   0  0  0  0  0  0  0  0  0  0  0  0
    4.2690    4.8105    0.0000 H   0  0  0  0  0  0  0  0  0  0  0  0
    2.8660    2.3805    0.0000 H   0  0  0  0  0  0  0  0  0  0  0  0
    2.8660    5.6205    0.0000 H   0  0  0  0  0  0  0  0  0  0  0  0
    1.4631    4.8105    0.0000 H   0  0  0  0  0  0  0  0  0  0  0  0
  1  4  2  0  0  0  0
  1  5  2  0  0  0  0
  1  8  1  0  0  0  0
  1 23  1  0  0  0  0
  2 33  1  0  0  0  0
  2 39  1  0  0  0  0
 15  3  1  6  0  0  0
  3 75  1  0  0  0  0
  6 35  1  0  0  0  0
  6 43  1  0  0  0  0
  7 35  2  0  0  0  0
  8 16  1  0  0  0  0
  8 18  1  0  0  0  0
  9 21  1  0  0  0  0
  9 22  1  0  0  0  0
  9 24  1  0  0  0  0
 17 10  1  6  0  0  0
 10 35  1  0  0  0  0
 10 62  1  0  0  0  0
 11 25  1  0  0  0  0
 11 26  1  0  0  0  0
 11 76  1  0  0  0  0
 12 30  1  0  0  0  0
 12 39  1  0  0  0  0
 12 83  1  0  0  0  0
 13 34  1  0  0  0  0
 13 39  2  0  0  0  0
 14 46  1  0  0  0  0
 14 48  2  0  0  0  0
 15 16  1  0  0  0  0
 15 17  1  0  0  0  0
 15 49  1  0  0  0  0
 16 50  1  0  0  0  0
 16 51  1  0  0  0  0
 17 20  1  0  0  0  0
 17 52  1  0  0  0  0
 18 19  1  0  0  0  0
 18 53  1  0  0  0  0
 18 54  1  0  0  0  0
 19 27  1  0  0  0  0
 19 28  1  0  0  0  0
 19 55  1  0  0  0  0
 20 29  1  0  0  0  0
 20 56  1  0  0  0  0
 20 57  1  0  0  0  0
 21 25  1  0  0  0  0
 21 58  1  0  0  0  0
 21 59  1  0  0  0  0
 22 26  1  0  0  0  0
 22 60  1  0  0  0  0
 22 61  1  0  0  0  0
 23 31  2  0  0  0  0
 23 32  1  0  0  0  0
 24 30  1  0  0  0  0
 24 63  1  0  0  0  0
 24 64  1  0  0  0  0
 25 65  1  0  0  0  0
 25 66  1  0  0  0  0
 26 67  1  0  0  0  0
 26 68  1  0  0  0  0
 27 69  1  0  0  0  0
 27 70  1  0  0  0  0
 27 71  1  0  0  0  0
 28 72  1  0  0  0  0
 28 73  1  0  0  0  0
 28 74  1  0  0  0  0
 29 36  2  0  0  0  0
 29 37  1  0  0  0  0
 30 77  1  0  0  0  0
 30 78  1  0  0  0  0
 31 33  1  0  0  0  0
 31 79  1  0  0  0  0
 32 38  2  0  0  0  0
 32 80  1  0  0  0  0
 33 34  2  0  0  0  0
 34 38  1  0  0  0  0
 36 40  1  0  0  0  0
 36 81  1  0  0  0  0
 37 41  2  0  0  0  0
 37 82  1  0  0  0  0
 38 84  1  0  0  0  0
 40 42  2  0  0  0  0
 40 85  1  0  0  0  0
 41 42  1  0  0  0  0
 41 86  1  0  0  0  0
 42 87  1  0  0  0  0
 43 44  1  0  0  0  0
 43 88  1  0  0  0  0
 43 89  1  0  0  0  0
 44 45  1  0  0  0  0
 44 46  2  0  0  0  0
 45 47  2  0  0  0  0
 45 90  1  0  0  0  0
 46 91  1  0  0  0  0
 47 48  1  0  0  0  0
 47 92  1  0  0  0  0
 48 93  1  0  0  0  0
M  END
> <PUBCHEM_COMPOUND_CID>
509643
> <PUBCHEM_COMPOUND_CANONICALIZED>
1
> <PUBCHEM_CACTVS_COMPLEXITY>
1070
> <PUBCHEM_CACTVS_HBOND_ACCEPTOR>
12
> <PUBCHEM_CACTVS_HBOND_DONOR>
4
> <PUBCHEM_CACTVS_ROTATABLE_BOND>
17
> <PUBCHEM_CACTVS_SUBSKEYS>
AAADcfB/uABgAAAAAAAAAAAAAAAAAWAAAAA8eIEAAAAAAFgB/AAAHgQQSAAADTzh3gY/2bPIFgqsAzRnfHDD8LlxCjlJ2Lw4bJmKduLg+ZmccAhu1gPY6CeQ0KIOAAQAAEAAAQAACAAAgAACAAAAAAAAAA==
> <PUBCHEM_IUPAC_OPENEYE_NAME>
3-pyridylmethyl N-[(1S,2R)-1-benzyl-2-hydroxy-3-[isobutyl-[[2-(2-piperazin-1-ylethylamino)-1,3-benzothiazol-6-yl]sulfonyl]amino]propyl]carbamate
> <PUBCHEM_IUPAC_CAS_NAME>
N-[(2S,3R)-3-hydroxy-4-[2-methylpropyl-[[2-[2-(1-piperazinyl)ethylamino]-1,3-benzothiazol-6-yl]sulfonyl]amino]-1-phenylbutan-2-yl]carbamic acid 3-pyridinylmethyl ester
> <PUBCHEM_IUPAC_NAME_MARKUP>
pyridin-3-ylmethyl <I>N</I>-[(2<I>S</I>,3<I>R</I>)-3-hydroxy-4-[2-methylpropyl-[[2-(2-piperazin-1-ylethylamino)-1,3-benzothiazol-6-yl]sulfonyl]amino]-1-phenylbutan-2-yl]carbamate
> <PUBCHEM_IUPAC_NAME>
pyridin-3-ylmethyl N-[(2S,3R)-3-hydroxy-4-[2-methylpropyl-[[2-(2-piperazin-1-ylethylamino)-1,3-benzothiazol-6-yl]sulfonyl]amino]-1-phenylbutan-2-yl]carbamate
> <PUBCHEM_IUPAC_SYSTEMATIC_NAME>
pyridin-3-ylmethyl N-[(2S,3R)-4-[2-methylpropyl-[[2-(2-piperazin-1-ylethylamino)-1,3-benzothiazol-6-yl]sulfonyl]amino]-3-oxidanyl-1-phenyl-butan-2-yl]carbamate
> <PUBCHEM_IUPAC_TRADITIONAL_NAME>
N-[(1S,2R)-1-benzyl-2-hydroxy-3-[isobutyl-[[2-(2-piperazinoethylamino)-1,3-benzothiazol-6-yl]sulfonyl]amino]propyl]carbamic acid 3-pyridylmethyl ester
> <PUBCHEM_IUPAC_INCHI>
InChI=1S/C34H45N7O5S2/c1-25(2)22-41(23-31(42)30(19-26-7-4-3-5-8-26)39-34(43)46-24-27-9-6-12-36-21-27)48(44,45)28-10-11-29-32(20-28)47-33(38-29)37-15-18-40-16-13-35-14-17-40/h3-12,20-21,25,30-31,35,42H,13-19,22-24H2,1-2H3,(H,37,38)(H,39,43)/t30-,31+/m0/s1
> <PUBCHEM_IUPAC_INCHIKEY>
WMNRQZMUWOXQIF-IOWSJCHKSA-N
> <PUBCHEM_XLOGP3_AA>
4.1
> <PUBCHEM_EXACT_MASS>
695.29235991
> <PUBCHEM_MOLECULAR_FORMULA>
C34H45N7O5S2
> <PUBCHEM_MOLECULAR_WEIGHT>
695.9
> <PUBCHEM_OPENEYE_CAN_SMILES>
CC(C)CN(CC(C(CC1=CC=CC=C1)NC(=O)OCC2=CN=CC=C2)O)S(=O)(=O)C3=CC4=C(C=C3)N=C(S4)NCCN5CCNCC5
> <PUBCHEM_OPENEYE_ISO_SMILES>
CC(C)CN(C[C@H]([C@H](CC1=CC=CC=C1)NC(=O)OCC2=CN=CC=C2)O)S(=O)(=O)C3=CC4=C(C=C3)N=C(S4)NCCN5CCNCC5
> <PUBCHEM_CACTVS_TPSA>
186
> <PUBCHEM_MONOISOTOPIC_WEIGHT>
695.29235991
> <PUBCHEM_TOTAL_CHARGE>
0
> <PUBCHEM_HEAVY_ATOM_COUNT>
48
> <PUBCHEM_ATOM_DEF_STEREO_COUNT>
2
> <PUBCHEM_ATOM_UDEF_STEREO_COUNT>
0
> <PUBCHEM_BOND_DEF_STEREO_COUNT>
0
> <PUBCHEM_BOND_UDEF_STEREO_COUNT>
0
> <PUBCHEM_ISOTOPIC_ATOM_COUNT>
0
> <PUBCHEM_COMPONENT_COUNT>
1
> <PUBCHEM_CACTVS_TAUTO_COUNT>
-1
> <PUBCHEM_COORDINATE_TYPE>
1
5
255
> <PUBCHEM_BONDANNOTATIONS>
17  10  6
13  34  8
13  39  8
14  46  8
14  48  8
2  33  8
2  39  8
23  31  8
23  32  8
29  36  8
29  37  8
15  3  6
31  33  8
32  38  8
33  34  8
34  38  8
36  40  8
37  41  8
40  42  8
41  42  8
44  45  8
44  46  8
45  47  8
47  48  8
$$$$
