509687
  -OEChem-10302200282D
 96100  0     1  0  0  0  0  0999 V2000
    9.7942   -0.7010    0.0000 S   0  0  0  0  0  0  0  0  0  0  0  0
   13.3385   -0.8962    0.0000 S   0  0  0  0  0  0  0  0  0  0  0  0
    7.1962    0.7990    0.0000 O   0  0  0  0  0  0  0  0  0  0  0  0
    9.2942   -1.5670    0.0000 O   0  0  0  0  0  0  0  0  0  0  0  0
   10.2942    0.1651    0.0000 O   0  0  0  0  0  0  0  0  0  0  0  0
    6.3301    1.2990    0.0000 O   0  0  0  0  0  0  0  0  0  0  0  0
    4.5981    2.2990    0.0000 O   0  0  0  0  0  0  0  0  0  0  0  0
   14.9221   -3.4330    0.0000 O   0  0  0  0  0  0  0  0  0  0  0  0
   18.4221   -4.2990    0.0000 O   0  0  0  0  0  0  0  0  0  0  0  0
    8.9282   -0.2010    0.0000 N   0  0  3  0  0  0  0  0  0  0  0  0
    5.4641   -0.2010    0.0000 N   0  0  0  0  0  0  0  0  0  0  0  0
   13.3385   -2.5057    0.0000 N   0  0  0  0  0  0  0  0  0  0  0  0
   14.9221   -1.7010    0.0000 N   0  0  0  0  0  0  0  0  0  0  0  0
    7.1962   -0.2010    0.0000 C   0  0  2  0  0  0  0  0  0  0  0  0
    8.0622   -0.7010    0.0000 C   0  0  0  0  0  0  0  0  0  0  0  0
    6.3301   -0.7010    0.0000 C   0  0  2  0  0  0  0  0  0  0  0  0
    8.9282    0.7990    0.0000 C   0  0  0  0  0  0  0  0  0  0  0  0
    9.7942    1.2990    0.0000 C   0  0  0  0  0  0  0  0  0  0  0  0
    6.3301   -1.7010    0.0000 C   0  0  0  0  0  0  0  0  0  0  0  0
   10.6603   -1.2010    0.0000 C   0  0  0  0  0  0  0  0  0  0  0  0
    5.4641   -2.2010    0.0000 C   0  0  0  0  0  0  0  0  0  0  0  0
    9.7942    2.2990    0.0000 C   0  0  0  0  0  0  0  0  0  0  0  0
   10.6603    0.7990    0.0000 C   0  0  0  0  0  0  0  0  0  0  0  0
    5.4641    0.7990    0.0000 C   0  0  0  0  0  0  0  0  0  0  0  0
   11.5263   -0.7010    0.0000 C   0  0  0  0  0  0  0  0  0  0  0  0
   10.6603   -2.2010    0.0000 C   0  0  0  0  0  0  0  0  0  0  0  0
    5.4641   -3.2010    0.0000 C   0  0  0  0  0  0  0  0  0  0  0  0
    4.5981   -1.7010    0.0000 C   0  0  0  0  0  0  0  0  0  0  0  0
   12.3923   -1.2010    0.0000 C   0  0  0  0  0  0  0  0  0  0  0  0
    4.5981    1.2990    0.0000 C   0  0  0  0  0  0  0  0  0  0  0  0
   11.5263   -2.7010    0.0000 C   0  0  0  0  0  0  0  0  0  0  0  0
   12.3923   -2.2010    0.0000 C   0  0  0  0  0  0  0  0  0  0  0  0
    4.5981   -3.7010    0.0000 C   0  0  0  0  0  0  0  0  0  0  0  0
    3.7320   -2.2010    0.0000 C   0  0  0  0  0  0  0  0  0  0  0  0
    3.7320   -3.2010    0.0000 C   0  0  0  0  0  0  0  0  0  0  0  0
   13.9221   -1.7010    0.0000 C   0  0  0  0  0  0  0  0  0  0  0  0
    3.7320    2.7990    0.0000 C   0  0  0  0  0  0  0  0  0  0  0  0
    3.7320    3.7990    0.0000 C   0  0  0  0  0  0  0  0  0  0  0  0
    2.8660    2.2990    0.0000 C   0  0  0  0  0  0  0  0  0  0  0  0
   15.4221   -2.5670    0.0000 C   0  0  0  0  0  0  0  0  0  0  0  0
    2.8660    4.2990    0.0000 C   0  0  0  0  0  0  0  0  0  0  0  0
    2.0000    2.7990    0.0000 C   0  0  0  0  0  0  0  0  0  0  0  0
    4.5981    4.2990    0.0000 C   0  0  0  0  0  0  0  0  0  0  0  0
    2.8660    1.2990    0.0000 C   0  0  0  0  0  0  0  0  0  0  0  0
    2.0000    3.7990    0.0000 C   0  0  0  0  0  0  0  0  0  0  0  0
   16.4221   -2.5670    0.0000 C   0  0  0  0  0  0  0  0  0  0  0  0
   16.9221   -3.4330    0.0000 C   0  0  0  0  0  0  0  0  0  0  0  0
   16.9221   -1.7010    0.0000 C   0  0  0  0  0  0  0  0  0  0  0  0
   17.9221   -3.4330    0.0000 C   0  0  0  0  0  0  0  0  0  0  0  0
   16.4221   -4.2990    0.0000 C   0  0  0  0  0  0  0  0  0  0  0  0
   17.9221   -1.7010    0.0000 C   0  0  0  0  0  0  0  0  0  0  0  0
   18.4221   -2.5670    0.0000 C   0  0  0  0  0  0  0  0  0  0  0  0
    6.6592    0.1090    0.0000 H   0  0  0  0  0  0  0  0  0  0  0  0
    7.6636   -1.1759    0.0000 H   0  0  0  0  0  0  0  0  0  0  0  0
    8.4607   -1.1759    0.0000 H   0  0  0  0  0  0  0  0  0  0  0  0
    5.7932   -1.0110    0.0000 H   0  0  0  0  0  0  0  0  0  0  0  0
    8.7162    1.3816    0.0000 H   0  0  0  0  0  0  0  0  0  0  0  0
    8.3176    0.6914    0.0000 H   0  0  0  0  0  0  0  0  0  0  0  0
    9.2573    1.6090    0.0000 H   0  0  0  0  0  0  0  0  0  0  0  0
    6.5422   -2.2836    0.0000 H   0  0  0  0  0  0  0  0  0  0  0  0
    6.9407   -1.5933    0.0000 H   0  0  0  0  0  0  0  0  0  0  0  0
    4.9272   -0.5110    0.0000 H   0  0  0  0  0  0  0  0  0  0  0  0
   10.4142    2.2990    0.0000 H   0  0  0  0  0  0  0  0  0  0  0  0
    9.7942    2.9190    0.0000 H   0  0  0  0  0  0  0  0  0  0  0  0
    9.1742    2.2990    0.0000 H   0  0  0  0  0  0  0  0  0  0  0  0
   10.3503    0.2621    0.0000 H   0  0  0  0  0  0  0  0  0  0  0  0
   11.1972    0.4890    0.0000 H   0  0  0  0  0  0  0  0  0  0  0  0
   10.9703    1.3360    0.0000 H   0  0  0  0  0  0  0  0  0  0  0  0
    7.7331    1.1090    0.0000 H   0  0  0  0  0  0  0  0  0  0  0  0
   11.5263   -0.0810    0.0000 H   0  0  0  0  0  0  0  0  0  0  0  0
   10.1233   -2.5110    0.0000 H   0  0  0  0  0  0  0  0  0  0  0  0
    6.0010   -3.5110    0.0000 H   0  0  0  0  0  0  0  0  0  0  0  0
    4.5981   -1.0810    0.0000 H   0  0  0  0  0  0  0  0  0  0  0  0
    3.9875    1.4067    0.0000 H   0  0  0  0  0  0  0  0  0  0  0  0
    4.3860    0.7164    0.0000 H   0  0  0  0  0  0  0  0  0  0  0  0
   11.5263   -3.3210    0.0000 H   0  0  0  0  0  0  0  0  0  0  0  0
    4.5981   -4.3210    0.0000 H   0  0  0  0  0  0  0  0  0  0  0  0
    3.1951   -1.8910    0.0000 H   0  0  0  0  0  0  0  0  0  0  0  0
    3.1951   -3.5110    0.0000 H   0  0  0  0  0  0  0  0  0  0  0  0
   15.2321   -1.1640    0.0000 H   0  0  0  0  0  0  0  0  0  0  0  0
    2.8660    4.9190    0.0000 H   0  0  0  0  0  0  0  0  0  0  0  0
    1.4631    2.4890    0.0000 H   0  0  0  0  0  0  0  0  0  0  0  0
    4.9081    3.7621    0.0000 H   0  0  0  0  0  0  0  0  0  0  0  0
    5.1350    4.6090    0.0000 H   0  0  0  0  0  0  0  0  0  0  0  0
    4.2881    4.8360    0.0000 H   0  0  0  0  0  0  0  0  0  0  0  0
    2.2460    1.2990    0.0000 H   0  0  0  0  0  0  0  0  0  0  0  0
    2.8660    0.6790    0.0000 H   0  0  0  0  0  0  0  0  0  0  0  0
    3.4860    1.2990    0.0000 H   0  0  0  0  0  0  0  0  0  0  0  0
    1.4631    4.1090    0.0000 H   0  0  0  0  0  0  0  0  0  0  0  0
   16.6121   -1.1640    0.0000 H   0  0  0  0  0  0  0  0  0  0  0  0
   15.8852   -3.9890    0.0000 H   0  0  0  0  0  0  0  0  0  0  0  0
   16.1121   -4.8360    0.0000 H   0  0  0  0  0  0  0  0  0  0  0  0
   16.9591   -4.6090    0.0000 H   0  0  0  0  0  0  0  0  0  0  0  0
   18.2321   -1.1640    0.0000 H   0  0  0  0  0  0  0  0  0  0  0  0
   19.0421   -2.5670    0.0000 H   0  0  0  0  0  0  0  0  0  0  0  0
   19.0421   -4.2990    0.0000 H   0  0  0  0  0  0  0  0  0  0  0  0
  1  4  2  0  0  0  0
  1  5  2  0  0  0  0
  1 10  1  0  0  0  0
  1 20  1  0  0  0  0
  2 29  1  0  0  0  0
  2 36  1  0  0  0  0
 14  3  1  6  0  0  0
  3 69  1  0  0  0  0
  6 24  2  0  0  0  0
  7 30  1  0  0  0  0
  7 37  1  0  0  0  0
  8 40  2  0  0  0  0
  9 49  1  0  0  0  0
  9 96  1  0  0  0  0
 10 15  1  0  0  0  0
 10 17  1  0  0  0  0
 16 11  1  6  0  0  0
 11 24  1  0  0  0  0
 11 62  1  0  0  0  0
 12 32  1  0  0  0  0
 12 36  2  0  0  0  0
 13 36  1  0  0  0  0
 13 40  1  0  0  0  0
 13 80  1  0  0  0  0
 14 15  1  0  0  0  0
 14 16  1  0  0  0  0
 14 53  1  0  0  0  0
 15 54  1  0  0  0  0
 15 55  1  0  0  0  0
 16 19  1  0  0  0  0
 16 56  1  0  0  0  0
 17 18  1  0  0  0  0
 17 57  1  0  0  0  0
 17 58  1  0  0  0  0
 18 22  1  0  0  0  0
 18 23  1  0  0  0  0
 18 59  1  0  0  0  0
 19 21  1  0  0  0  0
 19 60  1  0  0  0  0
 19 61  1  0  0  0  0
 20 25  2  0  0  0  0
 20 26  1  0  0  0  0
 21 27  2  0  0  0  0
 21 28  1  0  0  0  0
 22 63  1  0  0  0  0
 22 64  1  0  0  0  0
 22 65  1  0  0  0  0
 23 66  1  0  0  0  0
 23 67  1  0  0  0  0
 23 68  1  0  0  0  0
 24 30  1  0  0  0  0
 25 29  1  0  0  0  0
 25 70  1  0  0  0  0
 26 31  2  0  0  0  0
 26 71  1  0  0  0  0
 27 33  1  0  0  0  0
 27 72  1  0  0  0  0
 28 34  2  0  0  0  0
 28 73  1  0  0  0  0
 29 32  2  0  0  0  0
 30 74  1  0  0  0  0
 30 75  1  0  0  0  0
 31 32  1  0  0  0  0
 31 76  1  0  0  0  0
 33 35  2  0  0  0  0
 33 77  1  0  0  0  0
 34 35  1  0  0  0  0
 34 78  1  0  0  0  0
 35 79  1  0  0  0  0
 37 38  2  0  0  0  0
 37 39  1  0  0  0  0
 38 41  1  0  0  0  0
 38 43  1  0  0  0  0
 39 42  2  0  0  0  0
 39 44  1  0  0  0  0
 40 46  1  0  0  0  0
 41 45  2  0  0  0  0
 41 81  1  0  0  0  0
 42 45  1  0  0  0  0
 42 82  1  0  0  0  0
 43 83  1  0  0  0  0
 43 84  1  0  0  0  0
 43 85  1  0  0  0  0
 44 86  1  0  0  0  0
 44 87  1  0  0  0  0
 44 88  1  0  0  0  0
 45 89  1  0  0  0  0
 46 47  2  0  0  0  0
 46 48  1  0  0  0  0
 47 49  1  0  0  0  0
 47 50  1  0  0  0  0
 48 51  2  0  0  0  0
 48 90  1  0  0  0  0
 49 52  2  0  0  0  0
 50 91  1  0  0  0  0
 50 92  1  0  0  0  0
 50 93  1  0  0  0  0
 51 52  1  0  0  0  0
 51 94  1  0  0  0  0
 52 95  1  0  0  0  0
M  END
> <PUBCHEM_COMPOUND_CID>
509687
> <PUBCHEM_COMPOUND_CANONICALIZED>
1
> <PUBCHEM_CACTVS_COMPLEXITY>
1250
> <PUBCHEM_CACTVS_HBOND_ACCEPTOR>
10
> <PUBCHEM_CACTVS_HBOND_DONOR>
4
> <PUBCHEM_CACTVS_ROTATABLE_BOND>
15
> <PUBCHEM_CACTVS_SUBSKEYS>
AAADcfB/uABgAAAAAAAAAAAAAAAAAWAAAAAwYMGAAAAAAFgB9AAAHgQQSAAADTzh3gYz17LIFgqsAyVydHLD+LllKjlJmL1+bNiONrLm/Z+HeSjs1xPY+ae6yPCOgAQDAEAYAQAACAYAgDACAAAAAAAAAA==
> <PUBCHEM_IUPAC_OPENEYE_NAME>
N-[6-[[(2R,3S)-3-[[2-(2,6-dimethylphenoxy)acetyl]amino]-2-hydroxy-4-phenyl-butyl]-isobutyl-sulfamoyl]-1,3-benzothiazol-2-yl]-3-hydroxy-2-methyl-benzamide
> <PUBCHEM_IUPAC_CAS_NAME>
N-[6-[[(2R,3S)-3-[[2-(2,6-dimethylphenoxy)-1-oxoethyl]amino]-2-hydroxy-4-phenylbutyl]-(2-methylpropyl)sulfamoyl]-1,3-benzothiazol-2-yl]-3-hydroxy-2-methylbenzamide
> <PUBCHEM_IUPAC_NAME_MARKUP>
<I>N</I>-[6-[[(2<I>R</I>,3<I>S</I>)-3-[[2-(2,6-dimethylphenoxy)acetyl]amino]-2-hydroxy-4-phenylbutyl]-(2-methylpropyl)sulfamoyl]-1,3-benzothiazol-2-yl]-3-hydroxy-2-methylbenzamide
> <PUBCHEM_IUPAC_NAME>
N-[6-[[(2R,3S)-3-[[2-(2,6-dimethylphenoxy)acetyl]amino]-2-hydroxy-4-phenylbutyl]-(2-methylpropyl)sulfamoyl]-1,3-benzothiazol-2-yl]-3-hydroxy-2-methylbenzamide
> <PUBCHEM_IUPAC_SYSTEMATIC_NAME>
N-[6-[[(2R,3S)-3-[2-(2,6-dimethylphenoxy)ethanoylamino]-2-oxidanyl-4-phenyl-butyl]-(2-methylpropyl)sulfamoyl]-1,3-benzothiazol-2-yl]-2-methyl-3-oxidanyl-benzamide
> <PUBCHEM_IUPAC_TRADITIONAL_NAME>
N-[6-[[(2R,3S)-3-[[2-(2,6-dimethylphenoxy)acetyl]amino]-2-hydroxy-4-phenyl-butyl]-isobutyl-sulfamoyl]-1,3-benzothiazol-2-yl]-3-hydroxy-2-methyl-benzamide
> <PUBCHEM_IUPAC_INCHI>
InChI=1S/C39H44N4O7S2/c1-24(2)21-43(22-34(45)32(19-28-13-7-6-8-14-28)40-36(46)23-50-37-25(3)11-9-12-26(37)4)52(48,49)29-17-18-31-35(20-29)51-39(41-31)42-38(47)30-15-10-16-33(44)27(30)5/h6-18,20,24,32,34,44-45H,19,21-23H2,1-5H3,(H,40,46)(H,41,42,47)/t32-,34+/m0/s1
> <PUBCHEM_IUPAC_INCHIKEY>
YWPGILHNVOSEKI-UZNNEEJFSA-N
> <PUBCHEM_XLOGP3_AA>
7.2
> <PUBCHEM_EXACT_MASS>
744.26514210
> <PUBCHEM_MOLECULAR_FORMULA>
C39H44N4O7S2
> <PUBCHEM_MOLECULAR_WEIGHT>
744.9
> <PUBCHEM_OPENEYE_CAN_SMILES>
CC1=C(C(=CC=C1)C)OCC(=O)NC(CC2=CC=CC=C2)C(CN(CC(C)C)S(=O)(=O)C3=CC4=C(C=C3)N=C(S4)NC(=O)C5=C(C(=CC=C5)O)C)O
> <PUBCHEM_OPENEYE_ISO_SMILES>
CC1=C(C(=CC=C1)C)OCC(=O)N[C@@H](CC2=CC=CC=C2)[C@@H](CN(CC(C)C)S(=O)(=O)C3=CC4=C(C=C3)N=C(S4)NC(=O)C5=C(C(=CC=C5)O)C)O
> <PUBCHEM_CACTVS_TPSA>
195
> <PUBCHEM_MONOISOTOPIC_WEIGHT>
744.26514210
> <PUBCHEM_TOTAL_CHARGE>
0
> <PUBCHEM_HEAVY_ATOM_COUNT>
52
> <PUBCHEM_ATOM_DEF_STEREO_COUNT>
2
> <PUBCHEM_ATOM_UDEF_STEREO_COUNT>
0
> <PUBCHEM_BOND_DEF_STEREO_COUNT>
0
> <PUBCHEM_BOND_UDEF_STEREO_COUNT>
0
> <PUBCHEM_ISOTOPIC_ATOM_COUNT>
0
> <PUBCHEM_COMPONENT_COUNT>
1
> <PUBCHEM_CACTVS_TAUTO_COUNT>
-1
> <PUBCHEM_COORDINATE_TYPE>
1
5
255
> <PUBCHEM_BONDANNOTATIONS>
16  11  6
12  32  8
12  36  8
2  29  8
2  36  8
20  25  8
20  26  8
21  27  8
21  28  8
25  29  8
26  31  8
27  33  8
28  34  8
29  32  8
14  3  6
31  32  8
33  35  8
34  35  8
37  38  8
37  39  8
38  41  8
39  42  8
41  45  8
42  45  8
46  47  8
46  48  8
47  49  8
48  51  8
49  52  8
51  52  8
$$$$
