509640
  -OEChem-10302200282D
 77 80  0     1  0  0  0  0  0999 V2000
    8.0622    0.6574    0.0000 S   0  0  0  0  0  0  0  0  0  0  0  0
   11.6065    0.4621    0.0000 S   0  0  0  0  0  0  0  0  0  0  0  0
    5.4641    2.1574    0.0000 O   0  0  0  0  0  0  0  0  0  0  0  0
    7.5622   -0.2087    0.0000 O   0  0  0  0  0  0  0  0  0  0  0  0
    8.5622    1.5234    0.0000 O   0  0  0  0  0  0  0  0  0  0  0  0
   13.1901   -2.0747    0.0000 O   0  0  0  0  0  0  0  0  0  0  0  0
    2.8660    2.6574    0.0000 O   0  0  0  0  0  0  0  0  0  0  0  0
    7.1962    1.1574    0.0000 N   0  0  3  0  0  0  0  0  0  0  0  0
   15.1901   -2.0747    0.0000 N   0  0  0  0  0  0  0  0  0  0  0  0
    3.7320    1.1574    0.0000 N   0  0  0  0  0  0  0  0  0  0  0  0
   13.1901   -0.3426    0.0000 N   0  0  0  0  0  0  0  0  0  0  0  0
   11.6065   -1.1474    0.0000 N   0  0  0  0  0  0  0  0  0  0  0  0
    5.4641    1.1574    0.0000 C   0  0  2  0  0  0  0  0  0  0  0  0
    6.3301    0.6574    0.0000 C   0  0  0  0  0  0  0  0  0  0  0  0
    4.5981    0.6574    0.0000 C   0  0  2  0  0  0  0  0  0  0  0  0
   15.5265   -3.6574    0.0000 C   0  0  0  0  0  0  0  0  0  0  0  0
   16.3925   -3.1574    0.0000 C   0  0  0  0  0  0  0  0  0  0  0  0
   14.7833   -2.9882    0.0000 C   0  0  0  0  0  0  0  0  0  0  0  0
   16.1846   -2.1792    0.0000 C   0  0  0  0  0  0  0  0  0  0  0  0
    7.1962    2.1574    0.0000 C   0  0  0  0  0  0  0  0  0  0  0  0
    8.0622    2.6574    0.0000 C   0  0  0  0  0  0  0  0  0  0  0  0
    4.5981   -0.3426    0.0000 C   0  0  0  0  0  0  0  0  0  0  0  0
   14.6901   -1.2087    0.0000 C   0  0  0  0  0  0  0  0  0  0  0  0
    8.9282    0.1574    0.0000 C   0  0  0  0  0  0  0  0  0  0  0  0
    8.0622    3.6574    0.0000 C   0  0  0  0  0  0  0  0  0  0  0  0
    8.9282    2.1574    0.0000 C   0  0  0  0  0  0  0  0  0  0  0  0
    3.7320   -0.8426    0.0000 C   0  0  0  0  0  0  0  0  0  0  0  0
   13.6901   -1.2087    0.0000 C   0  0  0  0  0  0  0  0  0  0  0  0
    9.7942    0.6574    0.0000 C   0  0  0  0  0  0  0  0  0  0  0  0
    8.9282   -0.8426    0.0000 C   0  0  0  0  0  0  0  0  0  0  0  0
   10.6603    0.1574    0.0000 C   0  0  0  0  0  0  0  0  0  0  0  0
   10.6603   -0.8426    0.0000 C   0  0  0  0  0  0  0  0  0  0  0  0
    3.7320   -1.8426    0.0000 C   0  0  0  0  0  0  0  0  0  0  0  0
    2.8660   -0.3426    0.0000 C   0  0  0  0  0  0  0  0  0  0  0  0
    9.7942   -1.3426    0.0000 C   0  0  0  0  0  0  0  0  0  0  0  0
    3.7320    2.1574    0.0000 C   0  0  0  0  0  0  0  0  0  0  0  0
   12.1901   -0.3426    0.0000 C   0  0  0  0  0  0  0  0  0  0  0  0
    2.8660   -2.3426    0.0000 C   0  0  0  0  0  0  0  0  0  0  0  0
    2.0000   -0.8426    0.0000 C   0  0  0  0  0  0  0  0  0  0  0  0
    2.0000   -1.8426    0.0000 C   0  0  0  0  0  0  0  0  0  0  0  0
    6.0010    1.4674    0.0000 H   0  0  0  0  0  0  0  0  0  0  0  0
    5.9316    0.1824    0.0000 H   0  0  0  0  0  0  0  0  0  0  0  0
    6.7287    0.1824    0.0000 H   0  0  0  0  0  0  0  0  0  0  0  0
    4.5981    1.2774    0.0000 H   0  0  0  0  0  0  0  0  0  0  0  0
   15.0657   -4.0722    0.0000 H   0  0  0  0  0  0  0  0  0  0  0  0
   15.8909   -4.1590    0.0000 H   0  0  0  0  0  0  0  0  0  0  0  0
   16.6447   -3.7238    0.0000 H   0  0  0  0  0  0  0  0  0  0  0  0
   16.9822   -2.9658    0.0000 H   0  0  0  0  0  0  0  0  0  0  0  0
   14.2464   -2.6782    0.0000 H   0  0  0  0  0  0  0  0  0  0  0  0
   14.4189   -3.4898    0.0000 H   0  0  0  0  0  0  0  0  0  0  0  0
   16.8012   -2.1144    0.0000 H   0  0  0  0  0  0  0  0  0  0  0  0
   16.1846   -1.5592    0.0000 H   0  0  0  0  0  0  0  0  0  0  0  0
    6.9841    2.7400    0.0000 H   0  0  0  0  0  0  0  0  0  0  0  0
    6.5856    2.0497    0.0000 H   0  0  0  0  0  0  0  0  0  0  0  0
    8.0622    2.0374    0.0000 H   0  0  0  0  0  0  0  0  0  0  0  0
    4.8101   -0.9252    0.0000 H   0  0  0  0  0  0  0  0  0  0  0  0
    5.2087   -0.2350    0.0000 H   0  0  0  0  0  0  0  0  0  0  0  0
   15.2727   -0.9966    0.0000 H   0  0  0  0  0  0  0  0  0  0  0  0
   14.5824   -0.5981    0.0000 H   0  0  0  0  0  0  0  0  0  0  0  0
    3.1951    0.8474    0.0000 H   0  0  0  0  0  0  0  0  0  0  0  0
    8.6822    3.6574    0.0000 H   0  0  0  0  0  0  0  0  0  0  0  0
    8.0622    4.2774    0.0000 H   0  0  0  0  0  0  0  0  0  0  0  0
    7.4422    3.6574    0.0000 H   0  0  0  0  0  0  0  0  0  0  0  0
    8.6182    1.6204    0.0000 H   0  0  0  0  0  0  0  0  0  0  0  0
    9.4651    1.8474    0.0000 H   0  0  0  0  0  0  0  0  0  0  0  0
    9.2382    2.6943    0.0000 H   0  0  0  0  0  0  0  0  0  0  0  0
    4.9272    2.4674    0.0000 H   0  0  0  0  0  0  0  0  0  0  0  0
    9.7942    1.2774    0.0000 H   0  0  0  0  0  0  0  0  0  0  0  0
    8.3913   -1.1526    0.0000 H   0  0  0  0  0  0  0  0  0  0  0  0
    4.2690   -2.1526    0.0000 H   0  0  0  0  0  0  0  0  0  0  0  0
    2.8660    0.2774    0.0000 H   0  0  0  0  0  0  0  0  0  0  0  0
   13.5001    0.1943    0.0000 H   0  0  0  0  0  0  0  0  0  0  0  0
    9.7942   -1.9626    0.0000 H   0  0  0  0  0  0  0  0  0  0  0  0
    4.2690    2.4674    0.0000 H   0  0  0  0  0  0  0  0  0  0  0  0
    2.8660   -2.9626    0.0000 H   0  0  0  0  0  0  0  0  0  0  0  0
    1.4631   -0.5326    0.0000 H   0  0  0  0  0  0  0  0  0  0  0  0
    1.4631   -2.1526    0.0000 H   0  0  0  0  0  0  0  0  0  0  0  0
  1  4  2  0  0  0  0
  1  5  2  0  0  0  0
  1  8  1  0  0  0  0
  1 24  1  0  0  0  0
  2 31  1  0  0  0  0
  2 37  1  0  0  0  0
 13  3  1  6  0  0  0
  3 67  1  0  0  0  0
  6 28  2  0  0  0  0
  7 36  2  0  0  0  0
  8 14  1  0  0  0  0
  8 20  1  0  0  0  0
  9 18  1  0  0  0  0
  9 19  1  0  0  0  0
  9 23  1  0  0  0  0
 15 10  1  6  0  0  0
 10 36  1  0  0  0  0
 10 60  1  0  0  0  0
 11 28  1  0  0  0  0
 11 37  1  0  0  0  0
 11 72  1  0  0  0  0
 12 32  1  0  0  0  0
 12 37  2  0  0  0  0
 13 14  1  0  0  0  0
 13 15  1  0  0  0  0
 13 41  1  0  0  0  0
 14 42  1  0  0  0  0
 14 43  1  0  0  0  0
 15 22  1  0  0  0  0
 15 44  1  0  0  0  0
 16 17  1  0  0  0  0
 16 18  1  0  0  0  0
 16 45  1  0  0  0  0
 16 46  1  0  0  0  0
 17 19  1  0  0  0  0
 17 47  1  0  0  0  0
 17 48  1  0  0  0  0
 18 49  1  0  0  0  0
 18 50  1  0  0  0  0
 19 51  1  0  0  0  0
 19 52  1  0  0  0  0
 20 21  1  0  0  0  0
 20 53  1  0  0  0  0
 20 54  1  0  0  0  0
 21 25  1  0  0  0  0
 21 26  1  0  0  0  0
 21 55  1  0  0  0  0
 22 27  1  0  0  0  0
 22 56  1  0  0  0  0
 22 57  1  0  0  0  0
 23 28  1  0  0  0  0
 23 58  1  0  0  0  0
 23 59  1  0  0  0  0
 24 29  2  0  0  0  0
 24 30  1  0  0  0  0
 25 61  1  0  0  0  0
 25 62  1  0  0  0  0
 25 63  1  0  0  0  0
 26 64  1  0  0  0  0
 26 65  1  0  0  0  0
 26 66  1  0  0  0  0
 27 33  2  0  0  0  0
 27 34  1  0  0  0  0
 29 31  1  0  0  0  0
 29 68  1  0  0  0  0
 30 35  2  0  0  0  0
 30 69  1  0  0  0  0
 31 32  2  0  0  0  0
 32 35  1  0  0  0  0
 33 38  1  0  0  0  0
 33 70  1  0  0  0  0
 34 39  2  0  0  0  0
 34 71  1  0  0  0  0
 35 73  1  0  0  0  0
 36 74  1  0  0  0  0
 38 40  2  0  0  0  0
 38 75  1  0  0  0  0
 39 40  1  0  0  0  0
 39 76  1  0  0  0  0
 40 77  1  0  0  0  0
M  END
> <PUBCHEM_COMPOUND_CID>
509640
> <PUBCHEM_COMPOUND_CANONICALIZED>
1
> <PUBCHEM_CACTVS_COMPLEXITY>
921
> <PUBCHEM_CACTVS_HBOND_ACCEPTOR>
9
> <PUBCHEM_CACTVS_HBOND_DONOR>
3
> <PUBCHEM_CACTVS_ROTATABLE_BOND>
13
> <PUBCHEM_CACTVS_SUBSKEYS>
AAADcfB7uABgAAAAAAAAAAAAAAAAAWLAAAAwYAAAAAAAAFgB9AAAHgQQSAAADTzh3gYz0bPIEgqsAyVy9HDD8LlhCjlJmLy4ZJiKcKLg2bGUYAhslwLYyCeQwKAOAAQAAEAAAQAACAAAgAACAAAAAAAAAA==
> <PUBCHEM_IUPAC_OPENEYE_NAME>
N-[6-[[(2R,3S)-3-formamido-2-hydroxy-4-phenyl-butyl]-isobutyl-sulfamoyl]-1,3-benzothiazol-2-yl]-2-pyrrolidin-1-yl-acetamide
> <PUBCHEM_IUPAC_CAS_NAME>
N-[6-[[(2R,3S)-3-formamido-2-hydroxy-4-phenylbutyl]-(2-methylpropyl)sulfamoyl]-1,3-benzothiazol-2-yl]-2-(1-pyrrolidinyl)acetamide
> <PUBCHEM_IUPAC_NAME_MARKUP>
<I>N</I>-[6-[[(2<I>R</I>,3<I>S</I>)-3-formamido-2-hydroxy-4-phenylbutyl]-(2-methylpropyl)sulfamoyl]-1,3-benzothiazol-2-yl]-2-pyrrolidin-1-ylacetamide
> <PUBCHEM_IUPAC_NAME>
N-[6-[[(2R,3S)-3-formamido-2-hydroxy-4-phenylbutyl]-(2-methylpropyl)sulfamoyl]-1,3-benzothiazol-2-yl]-2-pyrrolidin-1-ylacetamide
> <PUBCHEM_IUPAC_SYSTEMATIC_NAME>
N-[6-[[(2R,3S)-3-formamido-2-oxidanyl-4-phenyl-butyl]-(2-methylpropyl)sulfamoyl]-1,3-benzothiazol-2-yl]-2-pyrrolidin-1-yl-ethanamide
> <PUBCHEM_IUPAC_TRADITIONAL_NAME>
N-[6-[[(2R,3S)-3-formamido-2-hydroxy-4-phenyl-butyl]-isobutyl-sulfamoyl]-1,3-benzothiazol-2-yl]-2-pyrrolidino-acetamide
> <PUBCHEM_IUPAC_INCHI>
InChI=1S/C28H37N5O5S2/c1-20(2)16-33(17-25(35)24(29-19-34)14-21-8-4-3-5-9-21)40(37,38)22-10-11-23-26(15-22)39-28(30-23)31-27(36)18-32-12-6-7-13-32/h3-5,8-11,15,19-20,24-25,35H,6-7,12-14,16-18H2,1-2H3,(H,29,34)(H,30,31,36)/t24-,25+/m0/s1
> <PUBCHEM_IUPAC_INCHIKEY>
JQJGJFYCZRSHES-LOSJGSFVSA-N
> <PUBCHEM_XLOGP3_AA>
3.7
> <PUBCHEM_EXACT_MASS>
587.22361164
> <PUBCHEM_MOLECULAR_FORMULA>
C28H37N5O5S2
> <PUBCHEM_MOLECULAR_WEIGHT>
587.8
> <PUBCHEM_OPENEYE_CAN_SMILES>
CC(C)CN(CC(C(CC1=CC=CC=C1)NC=O)O)S(=O)(=O)C2=CC3=C(C=C2)N=C(S3)NC(=O)CN4CCCC4
> <PUBCHEM_OPENEYE_ISO_SMILES>
CC(C)CN(C[C@H]([C@H](CC1=CC=CC=C1)NC=O)O)S(=O)(=O)C2=CC3=C(C=C2)N=C(S3)NC(=O)CN4CCCC4
> <PUBCHEM_CACTVS_TPSA>
169
> <PUBCHEM_MONOISOTOPIC_WEIGHT>
587.22361164
> <PUBCHEM_TOTAL_CHARGE>
0
> <PUBCHEM_HEAVY_ATOM_COUNT>
40
> <PUBCHEM_ATOM_DEF_STEREO_COUNT>
2
> <PUBCHEM_ATOM_UDEF_STEREO_COUNT>
0
> <PUBCHEM_BOND_DEF_STEREO_COUNT>
0
> <PUBCHEM_BOND_UDEF_STEREO_COUNT>
0
> <PUBCHEM_ISOTOPIC_ATOM_COUNT>
0
> <PUBCHEM_COMPONENT_COUNT>
1
> <PUBCHEM_CACTVS_TAUTO_COUNT>
-1
> <PUBCHEM_COORDINATE_TYPE>
1
5
255
> <PUBCHEM_BONDANNOTATIONS>
15  10  6
12  32  8
12  37  8
2  31  8
2  37  8
24  29  8
24  30  8
27  33  8
27  34  8
29  31  8
13  3  6
30  35  8
31  32  8
32  35  8
33  38  8
34  39  8
38  40  8
39  40  8
$$$$
