509638
  -OEChem-10302200282D
 97100  0     1  0  0  0  0  0999 V2000
    9.7942   -0.7010    0.0000 S   0  0  0  0  0  0  0  0  0  0  0  0
   13.3385   -0.8962    0.0000 S   0  0  0  0  0  0  0  0  0  0  0  0
    7.1962    0.7990    0.0000 O   0  0  0  0  0  0  0  0  0  0  0  0
    9.2942   -1.5670    0.0000 O   0  0  0  0  0  0  0  0  0  0  0  0
   10.2942    0.1651    0.0000 O   0  0  0  0  0  0  0  0  0  0  0  0
    6.3301    1.2990    0.0000 O   0  0  0  0  0  0  0  0  0  0  0  0
    4.5981    2.2990    0.0000 O   0  0  0  0  0  0  0  0  0  0  0  0
    8.9282   -0.2010    0.0000 N   0  0  3  0  0  0  0  0  0  0  0  0
    5.4641   -0.2010    0.0000 N   0  0  0  0  0  0  0  0  0  0  0  0
   13.3385   -2.5057    0.0000 N   0  0  0  0  0  0  0  0  0  0  0  0
   14.9221   -1.7010    0.0000 N   0  0  0  0  0  0  0  0  0  0  0  0
   17.9221   -3.4330    0.0000 N   0  0  0  0  0  0  0  0  0  0  0  0
    7.1962   -0.2010    0.0000 C   0  0  2  0  0  0  0  0  0  0  0  0
    8.0622   -0.7010    0.0000 C   0  0  0  0  0  0  0  0  0  0  0  0
    6.3301   -0.7010    0.0000 C   0  0  2  0  0  0  0  0  0  0  0  0
    8.9282    0.7990    0.0000 C   0  0  0  0  0  0  0  0  0  0  0  0
    9.7942    1.2990    0.0000 C   0  0  0  0  0  0  0  0  0  0  0  0
    6.3301   -1.7010    0.0000 C   0  0  0  0  0  0  0  0  0  0  0  0
   10.6603   -1.2010    0.0000 C   0  0  0  0  0  0  0  0  0  0  0  0
    5.4641   -2.2010    0.0000 C   0  0  0  0  0  0  0  0  0  0  0  0
    9.7942    2.2990    0.0000 C   0  0  0  0  0  0  0  0  0  0  0  0
   10.6603    0.7990    0.0000 C   0  0  0  0  0  0  0  0  0  0  0  0
    5.4641    0.7990    0.0000 C   0  0  0  0  0  0  0  0  0  0  0  0
   11.5263   -0.7010    0.0000 C   0  0  0  0  0  0  0  0  0  0  0  0
   10.6603   -2.2010    0.0000 C   0  0  0  0  0  0  0  0  0  0  0  0
    5.4641   -3.2010    0.0000 C   0  0  0  0  0  0  0  0  0  0  0  0
    4.5981   -1.7010    0.0000 C   0  0  0  0  0  0  0  0  0  0  0  0
   12.3923   -1.2010    0.0000 C   0  0  0  0  0  0  0  0  0  0  0  0
   12.3923   -2.2010    0.0000 C   0  0  0  0  0  0  0  0  0  0  0  0
   11.5263   -2.7010    0.0000 C   0  0  0  0  0  0  0  0  0  0  0  0
    4.5981    1.2990    0.0000 C   0  0  0  0  0  0  0  0  0  0  0  0
    4.5981   -3.7010    0.0000 C   0  0  0  0  0  0  0  0  0  0  0  0
    3.7320   -2.2010    0.0000 C   0  0  0  0  0  0  0  0  0  0  0  0
    3.7320   -3.2010    0.0000 C   0  0  0  0  0  0  0  0  0  0  0  0
   13.9221   -1.7010    0.0000 C   0  0  0  0  0  0  0  0  0  0  0  0
   15.4221   -2.5670    0.0000 C   0  0  0  0  0  0  0  0  0  0  0  0
   16.4221   -2.5670    0.0000 C   0  0  0  0  0  0  0  0  0  0  0  0
    3.7320    2.7990    0.0000 C   0  0  0  0  0  0  0  0  0  0  0  0
   16.9221   -3.4330    0.0000 C   0  0  0  0  0  0  0  0  0  0  0  0
    2.8660    2.2990    0.0000 C   0  0  0  0  0  0  0  0  0  0  0  0
    3.7320    3.7990    0.0000 C   0  0  0  0  0  0  0  0  0  0  0  0
    2.0000    2.7990    0.0000 C   0  0  0  0  0  0  0  0  0  0  0  0
    2.8660    4.2990    0.0000 C   0  0  0  0  0  0  0  0  0  0  0  0
    2.8660    1.2990    0.0000 C   0  0  0  0  0  0  0  0  0  0  0  0
    4.5981    4.2990    0.0000 C   0  0  0  0  0  0  0  0  0  0  0  0
   18.4221   -4.2990    0.0000 C   0  0  0  0  0  0  0  0  0  0  0  0
   18.4221   -2.5670    0.0000 C   0  0  0  0  0  0  0  0  0  0  0  0
    2.0000    3.7990    0.0000 C   0  0  0  0  0  0  0  0  0  0  0  0
    6.6592    0.1090    0.0000 H   0  0  0  0  0  0  0  0  0  0  0  0
    7.6636   -1.1759    0.0000 H   0  0  0  0  0  0  0  0  0  0  0  0
    8.4607   -1.1759    0.0000 H   0  0  0  0  0  0  0  0  0  0  0  0
    5.7932   -1.0110    0.0000 H   0  0  0  0  0  0  0  0  0  0  0  0
    8.7162    1.3816    0.0000 H   0  0  0  0  0  0  0  0  0  0  0  0
    8.3176    0.6914    0.0000 H   0  0  0  0  0  0  0  0  0  0  0  0
    9.2573    1.6090    0.0000 H   0  0  0  0  0  0  0  0  0  0  0  0
    6.5422   -2.2836    0.0000 H   0  0  0  0  0  0  0  0  0  0  0  0
    6.9407   -1.5933    0.0000 H   0  0  0  0  0  0  0  0  0  0  0  0
    4.9272   -0.5110    0.0000 H   0  0  0  0  0  0  0  0  0  0  0  0
   10.4142    2.2990    0.0000 H   0  0  0  0  0  0  0  0  0  0  0  0
    9.7942    2.9190    0.0000 H   0  0  0  0  0  0  0  0  0  0  0  0
    9.1742    2.2990    0.0000 H   0  0  0  0  0  0  0  0  0  0  0  0
   10.3503    0.2621    0.0000 H   0  0  0  0  0  0  0  0  0  0  0  0
   11.1972    0.4890    0.0000 H   0  0  0  0  0  0  0  0  0  0  0  0
   10.9703    1.3360    0.0000 H   0  0  0  0  0  0  0  0  0  0  0  0
    7.7331    1.1090    0.0000 H   0  0  0  0  0  0  0  0  0  0  0  0
   11.5263   -0.0810    0.0000 H   0  0  0  0  0  0  0  0  0  0  0  0
   10.1233   -2.5110    0.0000 H   0  0  0  0  0  0  0  0  0  0  0  0
    6.0010   -3.5110    0.0000 H   0  0  0  0  0  0  0  0  0  0  0  0
    4.5981   -1.0810    0.0000 H   0  0  0  0  0  0  0  0  0  0  0  0
   11.5263   -3.3210    0.0000 H   0  0  0  0  0  0  0  0  0  0  0  0
    3.9875    1.4067    0.0000 H   0  0  0  0  0  0  0  0  0  0  0  0
    4.3860    0.7164    0.0000 H   0  0  0  0  0  0  0  0  0  0  0  0
    4.5981   -4.3210    0.0000 H   0  0  0  0  0  0  0  0  0  0  0  0
    3.1951   -1.8910    0.0000 H   0  0  0  0  0  0  0  0  0  0  0  0
    3.1951   -3.5110    0.0000 H   0  0  0  0  0  0  0  0  0  0  0  0
   15.2321   -1.1640    0.0000 H   0  0  0  0  0  0  0  0  0  0  0  0
   14.8395   -2.7790    0.0000 H   0  0  0  0  0  0  0  0  0  0  0  0
   15.5298   -3.1776    0.0000 H   0  0  0  0  0  0  0  0  0  0  0  0
   17.0047   -2.3549    0.0000 H   0  0  0  0  0  0  0  0  0  0  0  0
   16.3145   -1.9564    0.0000 H   0  0  0  0  0  0  0  0  0  0  0  0
   16.3395   -3.6451    0.0000 H   0  0  0  0  0  0  0  0  0  0  0  0
   17.0298   -4.0436    0.0000 H   0  0  0  0  0  0  0  0  0  0  0  0
    1.4631    2.4890    0.0000 H   0  0  0  0  0  0  0  0  0  0  0  0
    2.8660    4.9190    0.0000 H   0  0  0  0  0  0  0  0  0  0  0  0
    2.2460    1.2990    0.0000 H   0  0  0  0  0  0  0  0  0  0  0  0
    2.8660    0.6790    0.0000 H   0  0  0  0  0  0  0  0  0  0  0  0
    3.4860    1.2990    0.0000 H   0  0  0  0  0  0  0  0  0  0  0  0
    4.9081    3.7621    0.0000 H   0  0  0  0  0  0  0  0  0  0  0  0
    5.1350    4.6090    0.0000 H   0  0  0  0  0  0  0  0  0  0  0  0
    4.2881    4.8360    0.0000 H   0  0  0  0  0  0  0  0  0  0  0  0
   17.8852   -4.6090    0.0000 H   0  0  0  0  0  0  0  0  0  0  0  0
   18.7321   -4.8360    0.0000 H   0  0  0  0  0  0  0  0  0  0  0  0
   18.9591   -3.9890    0.0000 H   0  0  0  0  0  0  0  0  0  0  0  0
   18.9591   -2.8770    0.0000 H   0  0  0  0  0  0  0  0  0  0  0  0
   18.7321   -2.0300    0.0000 H   0  0  0  0  0  0  0  0  0  0  0  0
   17.8852   -2.2570    0.0000 H   0  0  0  0  0  0  0  0  0  0  0  0
    1.4631    4.1090    0.0000 H   0  0  0  0  0  0  0  0  0  0  0  0
  1  4  2  0  0  0  0
  1  5  2  0  0  0  0
  1  8  1  0  0  0  0
  1 19  1  0  0  0  0
  2 28  1  0  0  0  0
  2 35  1  0  0  0  0
 13  3  1  6  0  0  0
  3 65  1  0  0  0  0
  6 23  2  0  0  0  0
  7 31  1  0  0  0  0
  7 38  1  0  0  0  0
  8 14  1  0  0  0  0
  8 16  1  0  0  0  0
 15  9  1  6  0  0  0
  9 23  1  0  0  0  0
  9 58  1  0  0  0  0
 10 29  1  0  0  0  0
 10 35  2  0  0  0  0
 11 35  1  0  0  0  0
 11 36  1  0  0  0  0
 11 76  1  0  0  0  0
 12 39  1  0  0  0  0
 12 46  1  0  0  0  0
 12 47  1  0  0  0  0
 13 14  1  0  0  0  0
 13 15  1  0  0  0  0
 13 49  1  0  0  0  0
 14 50  1  0  0  0  0
 14 51  1  0  0  0  0
 15 18  1  0  0  0  0
 15 52  1  0  0  0  0
 16 17  1  0  0  0  0
 16 53  1  0  0  0  0
 16 54  1  0  0  0  0
 17 21  1  0  0  0  0
 17 22  1  0  0  0  0
 17 55  1  0  0  0  0
 18 20  1  0  0  0  0
 18 56  1  0  0  0  0
 18 57  1  0  0  0  0
 19 24  2  0  0  0  0
 19 25  1  0  0  0  0
 20 26  2  0  0  0  0
 20 27  1  0  0  0  0
 21 59  1  0  0  0  0
 21 60  1  0  0  0  0
 21 61  1  0  0  0  0
 22 62  1  0  0  0  0
 22 63  1  0  0  0  0
 22 64  1  0  0  0  0
 23 31  1  0  0  0  0
 24 28  1  0  0  0  0
 24 66  1  0  0  0  0
 25 30  2  0  0  0  0
 25 67  1  0  0  0  0
 26 32  1  0  0  0  0
 26 68  1  0  0  0  0
 27 33  2  0  0  0  0
 27 69  1  0  0  0  0
 28 29  2  0  0  0  0
 29 30  1  0  0  0  0
 30 70  1  0  0  0  0
 31 71  1  0  0  0  0
 31 72  1  0  0  0  0
 32 34  2  0  0  0  0
 32 73  1  0  0  0  0
 33 34  1  0  0  0  0
 33 74  1  0  0  0  0
 34 75  1  0  0  0  0
 36 37  1  0  0  0  0
 36 77  1  0  0  0  0
 36 78  1  0  0  0  0
 37 39  1  0  0  0  0
 37 79  1  0  0  0  0
 37 80  1  0  0  0  0
 38 40  2  0  0  0  0
 38 41  1  0  0  0  0
 39 81  1  0  0  0  0
 39 82  1  0  0  0  0
 40 42  1  0  0  0  0
 40 44  1  0  0  0  0
 41 43  2  0  0  0  0
 41 45  1  0  0  0  0
 42 48  2  0  0  0  0
 42 83  1  0  0  0  0
 43 48  1  0  0  0  0
 43 84  1  0  0  0  0
 44 85  1  0  0  0  0
 44 86  1  0  0  0  0
 44 87  1  0  0  0  0
 45 88  1  0  0  0  0
 45 89  1  0  0  0  0
 45 90  1  0  0  0  0
 46 91  1  0  0  0  0
 46 92  1  0  0  0  0
 46 93  1  0  0  0  0
 47 94  1  0  0  0  0
 47 95  1  0  0  0  0
 47 96  1  0  0  0  0
 48 97  1  0  0  0  0
M  END
> <PUBCHEM_COMPOUND_CID>
509638
> <PUBCHEM_COMPOUND_CANONICALIZED>
1
> <PUBCHEM_CACTVS_COMPLEXITY>
1060
> <PUBCHEM_CACTVS_HBOND_ACCEPTOR>
10
> <PUBCHEM_CACTVS_HBOND_DONOR>
3
> <PUBCHEM_CACTVS_ROTATABLE_BOND>
18
> <PUBCHEM_CACTVS_SUBSKEYS>
AAADcfB/uABgAAAAAAAAAAAAAAAAAWAAAAAwYMAAAAAAAFgB9AAAHgQQSAAADTzh3gYz17PIFgqsAyVydHLD+LlhKjlJmLx8bJiONqLk+Z+HeCjs1hPY6CeQwOAOAAQCAEAIAQAACAQAgBACAAAAAAAAAA==
> <PUBCHEM_IUPAC_OPENEYE_NAME>
N-[(1S,2R)-1-benzyl-3-[[2-[3-(dimethylamino)propylamino]-1,3-benzothiazol-6-yl]sulfonyl-isobutyl-amino]-2-hydroxy-propyl]-2-(2,6-dimethylphenoxy)acetamide
> <PUBCHEM_IUPAC_CAS_NAME>
N-[(2S,3R)-4-[[2-[3-(dimethylamino)propylamino]-1,3-benzothiazol-6-yl]sulfonyl-(2-methylpropyl)amino]-3-hydroxy-1-phenylbutan-2-yl]-2-(2,6-dimethylphenoxy)acetamide
> <PUBCHEM_IUPAC_NAME_MARKUP>
<I>N</I>-[(2<I>S</I>,3<I>R</I>)-4-[[2-[3-(dimethylamino)propylamino]-1,3-benzothiazol-6-yl]sulfonyl-(2-methylpropyl)amino]-3-hydroxy-1-phenylbutan-2-yl]-2-(2,6-dimethylphenoxy)acetamide
> <PUBCHEM_IUPAC_NAME>
N-[(2S,3R)-4-[[2-[3-(dimethylamino)propylamino]-1,3-benzothiazol-6-yl]sulfonyl-(2-methylpropyl)amino]-3-hydroxy-1-phenylbutan-2-yl]-2-(2,6-dimethylphenoxy)acetamide
> <PUBCHEM_IUPAC_SYSTEMATIC_NAME>
N-[(2S,3R)-4-[[2-[3-(dimethylamino)propylamino]-1,3-benzothiazol-6-yl]sulfonyl-(2-methylpropyl)amino]-3-oxidanyl-1-phenyl-butan-2-yl]-2-(2,6-dimethylphenoxy)ethanamide
> <PUBCHEM_IUPAC_TRADITIONAL_NAME>
N-[(1S,2R)-1-benzyl-3-[[2-[3-(dimethylamino)propylamino]-1,3-benzothiazol-6-yl]sulfonyl-isobutyl-amino]-2-hydroxy-propyl]-2-(2,6-dimethylphenoxy)acetamide
> <PUBCHEM_IUPAC_INCHI>
InChI=1S/C36H49N5O5S2/c1-25(2)22-41(48(44,45)29-16-17-30-33(21-29)47-36(39-30)37-18-11-19-40(5)6)23-32(42)31(20-28-14-8-7-9-15-28)38-34(43)24-46-35-26(3)12-10-13-27(35)4/h7-10,12-17,21,25,31-32,42H,11,18-20,22-24H2,1-6H3,(H,37,39)(H,38,43)/t31-,32+/m0/s1
> <PUBCHEM_IUPAC_INCHIKEY>
JBIZSUDMBOHXMB-AJQTZOPKSA-N
> <PUBCHEM_XLOGP3_AA>
6.7
> <PUBCHEM_EXACT_MASS>
695.31751203
> <PUBCHEM_MOLECULAR_FORMULA>
C36H49N5O5S2
> <PUBCHEM_MOLECULAR_WEIGHT>
695.9
> <PUBCHEM_OPENEYE_CAN_SMILES>
CC1=C(C(=CC=C1)C)OCC(=O)NC(CC2=CC=CC=C2)C(CN(CC(C)C)S(=O)(=O)C3=CC4=C(C=C3)N=C(S4)NCCCN(C)C)O
> <PUBCHEM_OPENEYE_ISO_SMILES>
CC1=C(C(=CC=C1)C)OCC(=O)N[C@@H](CC2=CC=CC=C2)[C@@H](CN(CC(C)C)S(=O)(=O)C3=CC4=C(C=C3)N=C(S4)NCCCN(C)C)O
> <PUBCHEM_CACTVS_TPSA>
161
> <PUBCHEM_MONOISOTOPIC_WEIGHT>
695.31751203
> <PUBCHEM_TOTAL_CHARGE>
0
> <PUBCHEM_HEAVY_ATOM_COUNT>
48
> <PUBCHEM_ATOM_DEF_STEREO_COUNT>
2
> <PUBCHEM_ATOM_UDEF_STEREO_COUNT>
0
> <PUBCHEM_BOND_DEF_STEREO_COUNT>
0
> <PUBCHEM_BOND_UDEF_STEREO_COUNT>
0
> <PUBCHEM_ISOTOPIC_ATOM_COUNT>
0
> <PUBCHEM_COMPONENT_COUNT>
1
> <PUBCHEM_CACTVS_TAUTO_COUNT>
-1
> <PUBCHEM_COORDINATE_TYPE>
1
5
255
> <PUBCHEM_BONDANNOTATIONS>
10  29  8
10  35  8
19  24  8
19  25  8
2  28  8
2  35  8
20  26  8
20  27  8
24  28  8
25  30  8
26  32  8
27  33  8
28  29  8
29  30  8
13  3  6
32  34  8
33  34  8
38  40  8
38  41  8
40  42  8
41  43  8
42  48  8
43  48  8
15  9  6
$$$$
