509633
  -OEChem-10302200282D
 98102  0     1  0  0  0  0  0999 V2000
    9.7942   -0.3426    0.0000 S   0  0  0  0  0  0  0  0  0  0  0  0
   13.3385   -0.5379    0.0000 S   0  0  0  0  0  0  0  0  0  0  0  0
    7.1962    1.1574    0.0000 O   0  0  0  0  0  0  0  0  0  0  0  0
    9.2942   -1.2087    0.0000 O   0  0  0  0  0  0  0  0  0  0  0  0
   10.2942    0.5234    0.0000 O   0  0  0  0  0  0  0  0  0  0  0  0
    6.3301    1.6574    0.0000 O   0  0  0  0  0  0  0  0  0  0  0  0
    4.5981    2.6574    0.0000 O   0  0  0  0  0  0  0  0  0  0  0  0
   16.9221   -3.0747    0.0000 N   0  0  0  0  0  0  0  0  0  0  0  0
    8.9282    0.1574    0.0000 N   0  0  3  0  0  0  0  0  0  0  0  0
    5.4641    0.1574    0.0000 N   0  0  0  0  0  0  0  0  0  0  0  0
   14.9221   -1.3426    0.0000 N   0  0  0  0  0  0  0  0  0  0  0  0
   13.3385   -2.1474    0.0000 N   0  0  0  0  0  0  0  0  0  0  0  0
   16.5154   -3.9882    0.0000 C   0  0  0  0  0  0  0  0  0  0  0  0
   17.9167   -3.1792    0.0000 C   0  0  0  0  0  0  0  0  0  0  0  0
   17.2585   -4.6574    0.0000 C   0  0  0  0  0  0  0  0  0  0  0  0
   18.1246   -4.1574    0.0000 C   0  0  0  0  0  0  0  0  0  0  0  0
    7.1962    0.1574    0.0000 C   0  0  2  0  0  0  0  0  0  0  0  0
    8.0622   -0.3426    0.0000 C   0  0  0  0  0  0  0  0  0  0  0  0
    6.3301   -0.3426    0.0000 C   0  0  2  0  0  0  0  0  0  0  0  0
   16.4221   -2.2087    0.0000 C   0  0  0  0  0  0  0  0  0  0  0  0
    8.9282    1.1574    0.0000 C   0  0  0  0  0  0  0  0  0  0  0  0
    9.7942    1.6574    0.0000 C   0  0  0  0  0  0  0  0  0  0  0  0
    6.3301   -1.3426    0.0000 C   0  0  0  0  0  0  0  0  0  0  0  0
   15.4221   -2.2087    0.0000 C   0  0  0  0  0  0  0  0  0  0  0  0
   10.6603   -0.8426    0.0000 C   0  0  0  0  0  0  0  0  0  0  0  0
    9.7942    2.6574    0.0000 C   0  0  0  0  0  0  0  0  0  0  0  0
   10.6603    1.1574    0.0000 C   0  0  0  0  0  0  0  0  0  0  0  0
    5.4641   -1.8426    0.0000 C   0  0  0  0  0  0  0  0  0  0  0  0
   11.5263   -0.3426    0.0000 C   0  0  0  0  0  0  0  0  0  0  0  0
   10.6603   -1.8426    0.0000 C   0  0  0  0  0  0  0  0  0  0  0  0
   12.3923   -0.8426    0.0000 C   0  0  0  0  0  0  0  0  0  0  0  0
    5.4641    1.1574    0.0000 C   0  0  0  0  0  0  0  0  0  0  0  0
   13.9221   -1.3426    0.0000 C   0  0  0  0  0  0  0  0  0  0  0  0
   12.3923   -1.8426    0.0000 C   0  0  0  0  0  0  0  0  0  0  0  0
   11.5263   -2.3426    0.0000 C   0  0  0  0  0  0  0  0  0  0  0  0
    5.4641   -2.8426    0.0000 C   0  0  0  0  0  0  0  0  0  0  0  0
    4.5981   -1.3426    0.0000 C   0  0  0  0  0  0  0  0  0  0  0  0
    4.5981    1.6574    0.0000 C   0  0  0  0  0  0  0  0  0  0  0  0
    4.5981   -3.3426    0.0000 C   0  0  0  0  0  0  0  0  0  0  0  0
    3.7320   -1.8426    0.0000 C   0  0  0  0  0  0  0  0  0  0  0  0
    3.7320   -2.8426    0.0000 C   0  0  0  0  0  0  0  0  0  0  0  0
    3.7320    3.1574    0.0000 C   0  0  0  0  0  0  0  0  0  0  0  0
    2.8660    2.6574    0.0000 C   0  0  0  0  0  0  0  0  0  0  0  0
    3.7320    4.1574    0.0000 C   0  0  0  0  0  0  0  0  0  0  0  0
    2.0000    3.1574    0.0000 C   0  0  0  0  0  0  0  0  0  0  0  0
    2.8660    4.6574    0.0000 C   0  0  0  0  0  0  0  0  0  0  0  0
    2.8660    1.6574    0.0000 C   0  0  0  0  0  0  0  0  0  0  0  0
    4.5981    4.6574    0.0000 C   0  0  0  0  0  0  0  0  0  0  0  0
    2.0000    4.1574    0.0000 C   0  0  0  0  0  0  0  0  0  0  0  0
   15.9785   -3.6782    0.0000 H   0  0  0  0  0  0  0  0  0  0  0  0
   16.1510   -4.4898    0.0000 H   0  0  0  0  0  0  0  0  0  0  0  0
   18.5333   -3.1144    0.0000 H   0  0  0  0  0  0  0  0  0  0  0  0
   17.9167   -2.5592    0.0000 H   0  0  0  0  0  0  0  0  0  0  0  0
   16.7978   -5.0722    0.0000 H   0  0  0  0  0  0  0  0  0  0  0  0
   17.6230   -5.1590    0.0000 H   0  0  0  0  0  0  0  0  0  0  0  0
   18.3767   -4.7238    0.0000 H   0  0  0  0  0  0  0  0  0  0  0  0
   18.7142   -3.9658    0.0000 H   0  0  0  0  0  0  0  0  0  0  0  0
    6.6592    0.4674    0.0000 H   0  0  0  0  0  0  0  0  0  0  0  0
    7.6636   -0.8176    0.0000 H   0  0  0  0  0  0  0  0  0  0  0  0
    8.4607   -0.8176    0.0000 H   0  0  0  0  0  0  0  0  0  0  0  0
    5.7932   -0.6526    0.0000 H   0  0  0  0  0  0  0  0  0  0  0  0
   17.0047   -1.9966    0.0000 H   0  0  0  0  0  0  0  0  0  0  0  0
   16.3145   -1.5981    0.0000 H   0  0  0  0  0  0  0  0  0  0  0  0
    8.7162    1.7400    0.0000 H   0  0  0  0  0  0  0  0  0  0  0  0
    8.3176    1.0497    0.0000 H   0  0  0  0  0  0  0  0  0  0  0  0
    9.2573    1.9674    0.0000 H   0  0  0  0  0  0  0  0  0  0  0  0
    6.5422   -1.9252    0.0000 H   0  0  0  0  0  0  0  0  0  0  0  0
    6.9407   -1.2350    0.0000 H   0  0  0  0  0  0  0  0  0  0  0  0
   14.8395   -2.4207    0.0000 H   0  0  0  0  0  0  0  0  0  0  0  0
   15.5298   -2.8192    0.0000 H   0  0  0  0  0  0  0  0  0  0  0  0
    4.9272   -0.1526    0.0000 H   0  0  0  0  0  0  0  0  0  0  0  0
   10.4142    2.6574    0.0000 H   0  0  0  0  0  0  0  0  0  0  0  0
    9.7942    3.2774    0.0000 H   0  0  0  0  0  0  0  0  0  0  0  0
    9.1742    2.6574    0.0000 H   0  0  0  0  0  0  0  0  0  0  0  0
   10.3503    0.6204    0.0000 H   0  0  0  0  0  0  0  0  0  0  0  0
   11.1972    0.8474    0.0000 H   0  0  0  0  0  0  0  0  0  0  0  0
   10.9703    1.6943    0.0000 H   0  0  0  0  0  0  0  0  0  0  0  0
    7.7331    1.4674    0.0000 H   0  0  0  0  0  0  0  0  0  0  0  0
   15.2321   -0.8057    0.0000 H   0  0  0  0  0  0  0  0  0  0  0  0
   11.5263    0.2774    0.0000 H   0  0  0  0  0  0  0  0  0  0  0  0
   10.1233   -2.1526    0.0000 H   0  0  0  0  0  0  0  0  0  0  0  0
   11.5263   -2.9626    0.0000 H   0  0  0  0  0  0  0  0  0  0  0  0
    6.0010   -3.1526    0.0000 H   0  0  0  0  0  0  0  0  0  0  0  0
    4.5981   -0.7226    0.0000 H   0  0  0  0  0  0  0  0  0  0  0  0
    3.9875    1.7650    0.0000 H   0  0  0  0  0  0  0  0  0  0  0  0
    4.3860    1.0748    0.0000 H   0  0  0  0  0  0  0  0  0  0  0  0
    4.5981   -3.9626    0.0000 H   0  0  0  0  0  0  0  0  0  0  0  0
    3.1951   -1.5326    0.0000 H   0  0  0  0  0  0  0  0  0  0  0  0
    3.1951   -3.1526    0.0000 H   0  0  0  0  0  0  0  0  0  0  0  0
    1.4631    2.8474    0.0000 H   0  0  0  0  0  0  0  0  0  0  0  0
    2.8660    5.2774    0.0000 H   0  0  0  0  0  0  0  0  0  0  0  0
    2.2460    1.6574    0.0000 H   0  0  0  0  0  0  0  0  0  0  0  0
    2.8660    1.0374    0.0000 H   0  0  0  0  0  0  0  0  0  0  0  0
    3.4860    1.6574    0.0000 H   0  0  0  0  0  0  0  0  0  0  0  0
    4.9081    4.1204    0.0000 H   0  0  0  0  0  0  0  0  0  0  0  0
    5.1350    4.9674    0.0000 H   0  0  0  0  0  0  0  0  0  0  0  0
    4.2881    5.1943    0.0000 H   0  0  0  0  0  0  0  0  0  0  0  0
    1.4631    4.4674    0.0000 H   0  0  0  0  0  0  0  0  0  0  0  0
  1  4  2  0  0  0  0
  1  5  2  0  0  0  0
  1  9  1  0  0  0  0
  1 25  1  0  0  0  0
  2 31  1  0  0  0  0
  2 33  1  0  0  0  0
 17  3  1  6  0  0  0
  3 78  1  0  0  0  0
  6 32  2  0  0  0  0
  7 38  1  0  0  0  0
  7 42  1  0  0  0  0
  8 13  1  0  0  0  0
  8 14  1  0  0  0  0
  8 20  1  0  0  0  0
  9 18  1  0  0  0  0
  9 21  1  0  0  0  0
 19 10  1  6  0  0  0
 10 32  1  0  0  0  0
 10 71  1  0  0  0  0
 11 24  1  0  0  0  0
 11 33  1  0  0  0  0
 11 79  1  0  0  0  0
 12 33  2  0  0  0  0
 12 34  1  0  0  0  0
 13 15  1  0  0  0  0
 13 50  1  0  0  0  0
 13 51  1  0  0  0  0
 14 16  1  0  0  0  0
 14 52  1  0  0  0  0
 14 53  1  0  0  0  0
 15 16  1  0  0  0  0
 15 54  1  0  0  0  0
 15 55  1  0  0  0  0
 16 56  1  0  0  0  0
 16 57  1  0  0  0  0
 17 18  1  0  0  0  0
 17 19  1  0  0  0  0
 17 58  1  0  0  0  0
 18 59  1  0  0  0  0
 18 60  1  0  0  0  0
 19 23  1  0  0  0  0
 19 61  1  0  0  0  0
 20 24  1  0  0  0  0
 20 62  1  0  0  0  0
 20 63  1  0  0  0  0
 21 22  1  0  0  0  0
 21 64  1  0  0  0  0
 21 65  1  0  0  0  0
 22 26  1  0  0  0  0
 22 27  1  0  0  0  0
 22 66  1  0  0  0  0
 23 28  1  0  0  0  0
 23 67  1  0  0  0  0
 23 68  1  0  0  0  0
 24 69  1  0  0  0  0
 24 70  1  0  0  0  0
 25 29  2  0  0  0  0
 25 30  1  0  0  0  0
 26 72  1  0  0  0  0
 26 73  1  0  0  0  0
 26 74  1  0  0  0  0
 27 75  1  0  0  0  0
 27 76  1  0  0  0  0
 27 77  1  0  0  0  0
 28 36  2  0  0  0  0
 28 37  1  0  0  0  0
 29 31  1  0  0  0  0
 29 80  1  0  0  0  0
 30 35  2  0  0  0  0
 30 81  1  0  0  0  0
 31 34  2  0  0  0  0
 32 38  1  0  0  0  0
 34 35  1  0  0  0  0
 35 82  1  0  0  0  0
 36 39  1  0  0  0  0
 36 83  1  0  0  0  0
 37 40  2  0  0  0  0
 37 84  1  0  0  0  0
 38 85  1  0  0  0  0
 38 86  1  0  0  0  0
 39 41  2  0  0  0  0
 39 87  1  0  0  0  0
 40 41  1  0  0  0  0
 40 88  1  0  0  0  0
 41 89  1  0  0  0  0
 42 43  2  0  0  0  0
 42 44  1  0  0  0  0
 43 45  1  0  0  0  0
 43 47  1  0  0  0  0
 44 46  2  0  0  0  0
 44 48  1  0  0  0  0
 45 49  2  0  0  0  0
 45 90  1  0  0  0  0
 46 49  1  0  0  0  0
 46 91  1  0  0  0  0
 47 92  1  0  0  0  0
 47 93  1  0  0  0  0
 47 94  1  0  0  0  0
 48 95  1  0  0  0  0
 48 96  1  0  0  0  0
 48 97  1  0  0  0  0
 49 98  1  0  0  0  0
M  END
> <PUBCHEM_COMPOUND_CID>
509633
> <PUBCHEM_COMPOUND_CANONICALIZED>
1
> <PUBCHEM_CACTVS_COMPLEXITY>
1100
> <PUBCHEM_CACTVS_HBOND_ACCEPTOR>
10
> <PUBCHEM_CACTVS_HBOND_DONOR>
3
> <PUBCHEM_CACTVS_ROTATABLE_BOND>
17
> <PUBCHEM_CACTVS_SUBSKEYS>
AAADcfB/uABgAAAAAAAAAAAAAAAAAWLAAAAwYMAAAAAAAFgB9AAAHgQQSAAADTzh3gYz17PIFgqsAyVydHLD+LlhKjlJmLx8bJiOdqLk+Z+XeCjs1hPY6CeQwOAOAAQCAEAIAQAACAQAgBACAAAAAAAAAA==
> <PUBCHEM_IUPAC_OPENEYE_NAME>
N-[(1S,2R)-1-benzyl-2-hydroxy-3-[isobutyl-[[2-(2-pyrrolidin-1-ylethylamino)-1,3-benzothiazol-6-yl]sulfonyl]amino]propyl]-2-(2,6-dimethylphenoxy)acetamide
> <PUBCHEM_IUPAC_CAS_NAME>
2-(2,6-dimethylphenoxy)-N-[(2S,3R)-3-hydroxy-4-[2-methylpropyl-[[2-[2-(1-pyrrolidinyl)ethylamino]-1,3-benzothiazol-6-yl]sulfonyl]amino]-1-phenylbutan-2-yl]acetamide
> <PUBCHEM_IUPAC_NAME_MARKUP>
2-(2,6-dimethylphenoxy)-<I>N</I>-[(2<I>S</I>,3<I>R</I>)-3-hydroxy-4-[2-methylpropyl-[[2-(2-pyrrolidin-1-ylethylamino)-1,3-benzothiazol-6-yl]sulfonyl]amino]-1-phenylbutan-2-yl]acetamide
> <PUBCHEM_IUPAC_NAME>
2-(2,6-dimethylphenoxy)-N-[(2S,3R)-3-hydroxy-4-[2-methylpropyl-[[2-(2-pyrrolidin-1-ylethylamino)-1,3-benzothiazol-6-yl]sulfonyl]amino]-1-phenylbutan-2-yl]acetamide
> <PUBCHEM_IUPAC_SYSTEMATIC_NAME>
2-(2,6-dimethylphenoxy)-N-[(2S,3R)-4-[2-methylpropyl-[[2-(2-pyrrolidin-1-ylethylamino)-1,3-benzothiazol-6-yl]sulfonyl]amino]-3-oxidanyl-1-phenyl-butan-2-yl]ethanamide
> <PUBCHEM_IUPAC_TRADITIONAL_NAME>
N-[(1S,2R)-1-benzyl-2-hydroxy-3-[isobutyl-[[2-(2-pyrrolidinoethylamino)-1,3-benzothiazol-6-yl]sulfonyl]amino]propyl]-2-(2,6-dimethylphenoxy)acetamide
> <PUBCHEM_IUPAC_INCHI>
InChI=1S/C37H49N5O5S2/c1-26(2)23-42(49(45,46)30-15-16-31-34(22-30)48-37(40-31)38-17-20-41-18-8-9-19-41)24-33(43)32(21-29-13-6-5-7-14-29)39-35(44)25-47-36-27(3)11-10-12-28(36)4/h5-7,10-16,22,26,32-33,43H,8-9,17-21,23-25H2,1-4H3,(H,38,40)(H,39,44)/t32-,33+/m0/s1
> <PUBCHEM_IUPAC_INCHIKEY>
MLPADNLFAOWJPO-JHOUSYSJSA-N
> <PUBCHEM_XLOGP3_AA>
6.8
> <PUBCHEM_EXACT_MASS>
707.31751203
> <PUBCHEM_MOLECULAR_FORMULA>
C37H49N5O5S2
> <PUBCHEM_MOLECULAR_WEIGHT>
707.9
> <PUBCHEM_OPENEYE_CAN_SMILES>
CC1=C(C(=CC=C1)C)OCC(=O)NC(CC2=CC=CC=C2)C(CN(CC(C)C)S(=O)(=O)C3=CC4=C(C=C3)N=C(S4)NCCN5CCCC5)O
> <PUBCHEM_OPENEYE_ISO_SMILES>
CC1=C(C(=CC=C1)C)OCC(=O)N[C@@H](CC2=CC=CC=C2)[C@@H](CN(CC(C)C)S(=O)(=O)C3=CC4=C(C=C3)N=C(S4)NCCN5CCCC5)O
> <PUBCHEM_CACTVS_TPSA>
161
> <PUBCHEM_MONOISOTOPIC_WEIGHT>
707.31751203
> <PUBCHEM_TOTAL_CHARGE>
0
> <PUBCHEM_HEAVY_ATOM_COUNT>
49
> <PUBCHEM_ATOM_DEF_STEREO_COUNT>
2
> <PUBCHEM_ATOM_UDEF_STEREO_COUNT>
0
> <PUBCHEM_BOND_DEF_STEREO_COUNT>
0
> <PUBCHEM_BOND_UDEF_STEREO_COUNT>
0
> <PUBCHEM_ISOTOPIC_ATOM_COUNT>
0
> <PUBCHEM_COMPONENT_COUNT>
1
> <PUBCHEM_CACTVS_TAUTO_COUNT>
-1
> <PUBCHEM_COORDINATE_TYPE>
1
5
255
> <PUBCHEM_BONDANNOTATIONS>
19  10  6
12  33  8
12  34  8
2  31  8
2  33  8
25  29  8
25  30  8
28  36  8
28  37  8
29  31  8
17  3  6
30  35  8
31  34  8
34  35  8
36  39  8
37  40  8
39  41  8
40  41  8
42  43  8
42  44  8
43  45  8
44  46  8
45  49  8
46  49  8
$$$$
