509683
  -OEChem-10302200282D
 94 98  0     1  0  0  0  0  0999 V2000
    9.7942   -0.7010    0.0000 S   0  0  0  0  0  0  0  0  0  0  0  0
   13.3385   -0.8962    0.0000 S   0  0  0  0  0  0  0  0  0  0  0  0
    7.1962    0.7990    0.0000 O   0  0  0  0  0  0  0  0  0  0  0  0
    9.2942   -1.5670    0.0000 O   0  0  0  0  0  0  0  0  0  0  0  0
   10.2942    0.1651    0.0000 O   0  0  0  0  0  0  0  0  0  0  0  0
    6.3301    1.2990    0.0000 O   0  0  0  0  0  0  0  0  0  0  0  0
    4.5981    2.2990    0.0000 O   0  0  0  0  0  0  0  0  0  0  0  0
   14.9221   -3.4330    0.0000 O   0  0  0  0  0  0  0  0  0  0  0  0
   18.4221   -0.8349    0.0000 O   0  0  0  0  0  0  0  0  0  0  0  0
   18.4221   -4.2990    0.0000 O   0  0  0  0  0  0  0  0  0  0  0  0
    8.9282   -0.2010    0.0000 N   0  0  3  0  0  0  0  0  0  0  0  0
    5.4641   -0.2010    0.0000 N   0  0  0  0  0  0  0  0  0  0  0  0
   13.3385   -2.5057    0.0000 N   0  0  0  0  0  0  0  0  0  0  0  0
   14.9221   -1.7010    0.0000 N   0  0  0  0  0  0  0  0  0  0  0  0
    7.1962   -0.2010    0.0000 C   0  0  2  0  0  0  0  0  0  0  0  0
    8.0622   -0.7010    0.0000 C   0  0  0  0  0  0  0  0  0  0  0  0
    6.3301   -0.7010    0.0000 C   0  0  2  0  0  0  0  0  0  0  0  0
    8.9282    0.7990    0.0000 C   0  0  0  0  0  0  0  0  0  0  0  0
    9.7942    1.2990    0.0000 C   0  0  0  0  0  0  0  0  0  0  0  0
    6.3301   -1.7010    0.0000 C   0  0  0  0  0  0  0  0  0  0  0  0
   10.6603   -1.2010    0.0000 C   0  0  0  0  0  0  0  0  0  0  0  0
    5.4641   -2.2010    0.0000 C   0  0  0  0  0  0  0  0  0  0  0  0
    9.7942    2.2990    0.0000 C   0  0  0  0  0  0  0  0  0  0  0  0
   10.6603    0.7990    0.0000 C   0  0  0  0  0  0  0  0  0  0  0  0
    5.4641    0.7990    0.0000 C   0  0  0  0  0  0  0  0  0  0  0  0
   11.5263   -0.7010    0.0000 C   0  0  0  0  0  0  0  0  0  0  0  0
   10.6603   -2.2010    0.0000 C   0  0  0  0  0  0  0  0  0  0  0  0
    5.4641   -3.2010    0.0000 C   0  0  0  0  0  0  0  0  0  0  0  0
    4.5981   -1.7010    0.0000 C   0  0  0  0  0  0  0  0  0  0  0  0
   12.3923   -1.2010    0.0000 C   0  0  0  0  0  0  0  0  0  0  0  0
    4.5981    1.2990    0.0000 C   0  0  0  0  0  0  0  0  0  0  0  0
   11.5263   -2.7010    0.0000 C   0  0  0  0  0  0  0  0  0  0  0  0
   12.3923   -2.2010    0.0000 C   0  0  0  0  0  0  0  0  0  0  0  0
    4.5981   -3.7010    0.0000 C   0  0  0  0  0  0  0  0  0  0  0  0
    3.7320   -2.2010    0.0000 C   0  0  0  0  0  0  0  0  0  0  0  0
    3.7320   -3.2010    0.0000 C   0  0  0  0  0  0  0  0  0  0  0  0
   13.9221   -1.7010    0.0000 C   0  0  0  0  0  0  0  0  0  0  0  0
    3.7320    2.7990    0.0000 C   0  0  0  0  0  0  0  0  0  0  0  0
    2.8660    2.2990    0.0000 C   0  0  0  0  0  0  0  0  0  0  0  0
    3.7320    3.7990    0.0000 C   0  0  0  0  0  0  0  0  0  0  0  0
    2.0000    2.7990    0.0000 C   0  0  0  0  0  0  0  0  0  0  0  0
    2.8660    4.2990    0.0000 C   0  0  0  0  0  0  0  0  0  0  0  0
   15.4221   -2.5670    0.0000 C   0  0  0  0  0  0  0  0  0  0  0  0
    2.8660    1.2990    0.0000 C   0  0  0  0  0  0  0  0  0  0  0  0
    4.5981    4.2990    0.0000 C   0  0  0  0  0  0  0  0  0  0  0  0
    2.0000    3.7990    0.0000 C   0  0  0  0  0  0  0  0  0  0  0  0
   16.4221   -2.5670    0.0000 C   0  0  0  0  0  0  0  0  0  0  0  0
   16.9221   -3.4330    0.0000 C   0  0  0  0  0  0  0  0  0  0  0  0
   16.9221   -1.7010    0.0000 C   0  0  0  0  0  0  0  0  0  0  0  0
   17.9221   -1.7010    0.0000 C   0  0  0  0  0  0  0  0  0  0  0  0
   17.9221   -3.4330    0.0000 C   0  0  0  0  0  0  0  0  0  0  0  0
   18.4221   -2.5670    0.0000 C   0  0  0  0  0  0  0  0  0  0  0  0
    6.6592    0.1090    0.0000 H   0  0  0  0  0  0  0  0  0  0  0  0
    7.6636   -1.1759    0.0000 H   0  0  0  0  0  0  0  0  0  0  0  0
    8.4607   -1.1759    0.0000 H   0  0  0  0  0  0  0  0  0  0  0  0
    5.7932   -1.0110    0.0000 H   0  0  0  0  0  0  0  0  0  0  0  0
    8.7162    1.3816    0.0000 H   0  0  0  0  0  0  0  0  0  0  0  0
    8.3176    0.6914    0.0000 H   0  0  0  0  0  0  0  0  0  0  0  0
    9.2573    1.6090    0.0000 H   0  0  0  0  0  0  0  0  0  0  0  0
    6.5422   -2.2836    0.0000 H   0  0  0  0  0  0  0  0  0  0  0  0
    6.9407   -1.5933    0.0000 H   0  0  0  0  0  0  0  0  0  0  0  0
    4.9272   -0.5110    0.0000 H   0  0  0  0  0  0  0  0  0  0  0  0
   10.4142    2.2990    0.0000 H   0  0  0  0  0  0  0  0  0  0  0  0
    9.7942    2.9190    0.0000 H   0  0  0  0  0  0  0  0  0  0  0  0
    9.1742    2.2990    0.0000 H   0  0  0  0  0  0  0  0  0  0  0  0
   10.3503    0.2621    0.0000 H   0  0  0  0  0  0  0  0  0  0  0  0
   11.1972    0.4890    0.0000 H   0  0  0  0  0  0  0  0  0  0  0  0
   10.9703    1.3360    0.0000 H   0  0  0  0  0  0  0  0  0  0  0  0
    7.7331    1.1090    0.0000 H   0  0  0  0  0  0  0  0  0  0  0  0
   11.5263   -0.0810    0.0000 H   0  0  0  0  0  0  0  0  0  0  0  0
   10.1233   -2.5110    0.0000 H   0  0  0  0  0  0  0  0  0  0  0  0
    6.0010   -3.5110    0.0000 H   0  0  0  0  0  0  0  0  0  0  0  0
    4.5981   -1.0810    0.0000 H   0  0  0  0  0  0  0  0  0  0  0  0
    3.9875    1.4067    0.0000 H   0  0  0  0  0  0  0  0  0  0  0  0
    4.3860    0.7164    0.0000 H   0  0  0  0  0  0  0  0  0  0  0  0
   11.5263   -3.3210    0.0000 H   0  0  0  0  0  0  0  0  0  0  0  0
    4.5981   -4.3210    0.0000 H   0  0  0  0  0  0  0  0  0  0  0  0
    3.1951   -1.8910    0.0000 H   0  0  0  0  0  0  0  0  0  0  0  0
    3.1951   -3.5110    0.0000 H   0  0  0  0  0  0  0  0  0  0  0  0
   15.2321   -1.1640    0.0000 H   0  0  0  0  0  0  0  0  0  0  0  0
    1.4631    2.4890    0.0000 H   0  0  0  0  0  0  0  0  0  0  0  0
    2.8660    4.9190    0.0000 H   0  0  0  0  0  0  0  0  0  0  0  0
    2.2460    1.2990    0.0000 H   0  0  0  0  0  0  0  0  0  0  0  0
    2.8660    0.6790    0.0000 H   0  0  0  0  0  0  0  0  0  0  0  0
    3.4860    1.2990    0.0000 H   0  0  0  0  0  0  0  0  0  0  0  0
    4.9081    3.7621    0.0000 H   0  0  0  0  0  0  0  0  0  0  0  0
    5.1350    4.6090    0.0000 H   0  0  0  0  0  0  0  0  0  0  0  0
    4.2881    4.8360    0.0000 H   0  0  0  0  0  0  0  0  0  0  0  0
    1.4631    4.1090    0.0000 H   0  0  0  0  0  0  0  0  0  0  0  0
   16.6121   -3.9700    0.0000 H   0  0  0  0  0  0  0  0  0  0  0  0
   16.6121   -1.1640    0.0000 H   0  0  0  0  0  0  0  0  0  0  0  0
   19.0421   -2.5670    0.0000 H   0  0  0  0  0  0  0  0  0  0  0  0
   19.0421   -0.8349    0.0000 H   0  0  0  0  0  0  0  0  0  0  0  0
   19.0421   -4.2990    0.0000 H   0  0  0  0  0  0  0  0  0  0  0  0
  1  4  2  0  0  0  0
  1  5  2  0  0  0  0
  1 11  1  0  0  0  0
  1 21  1  0  0  0  0
  2 30  1  0  0  0  0
  2 37  1  0  0  0  0
 15  3  1  6  0  0  0
  3 69  1  0  0  0  0
  6 25  2  0  0  0  0
  7 31  1  0  0  0  0
  7 38  1  0  0  0  0
  8 43  2  0  0  0  0
  9 50  1  0  0  0  0
  9 93  1  0  0  0  0
 10 51  1  0  0  0  0
 10 94  1  0  0  0  0
 11 16  1  0  0  0  0
 11 18  1  0  0  0  0
 17 12  1  6  0  0  0
 12 25  1  0  0  0  0
 12 62  1  0  0  0  0
 13 33  1  0  0  0  0
 13 37  2  0  0  0  0
 14 37  1  0  0  0  0
 14 43  1  0  0  0  0
 14 80  1  0  0  0  0
 15 16  1  0  0  0  0
 15 17  1  0  0  0  0
 15 53  1  0  0  0  0
 16 54  1  0  0  0  0
 16 55  1  0  0  0  0
 17 20  1  0  0  0  0
 17 56  1  0  0  0  0
 18 19  1  0  0  0  0
 18 57  1  0  0  0  0
 18 58  1  0  0  0  0
 19 23  1  0  0  0  0
 19 24  1  0  0  0  0
 19 59  1  0  0  0  0
 20 22  1  0  0  0  0
 20 60  1  0  0  0  0
 20 61  1  0  0  0  0
 21 26  2  0  0  0  0
 21 27  1  0  0  0  0
 22 28  2  0  0  0  0
 22 29  1  0  0  0  0
 23 63  1  0  0  0  0
 23 64  1  0  0  0  0
 23 65  1  0  0  0  0
 24 66  1  0  0  0  0
 24 67  1  0  0  0  0
 24 68  1  0  0  0  0
 25 31  1  0  0  0  0
 26 30  1  0  0  0  0
 26 70  1  0  0  0  0
 27 32  2  0  0  0  0
 27 71  1  0  0  0  0
 28 34  1  0  0  0  0
 28 72  1  0  0  0  0
 29 35  2  0  0  0  0
 29 73  1  0  0  0  0
 30 33  2  0  0  0  0
 31 74  1  0  0  0  0
 31 75  1  0  0  0  0
 32 33  1  0  0  0  0
 32 76  1  0  0  0  0
 34 36  2  0  0  0  0
 34 77  1  0  0  0  0
 35 36  1  0  0  0  0
 35 78  1  0  0  0  0
 36 79  1  0  0  0  0
 38 39  2  0  0  0  0
 38 40  1  0  0  0  0
 39 41  1  0  0  0  0
 39 44  1  0  0  0  0
 40 42  2  0  0  0  0
 40 45  1  0  0  0  0
 41 46  2  0  0  0  0
 41 81  1  0  0  0  0
 42 46  1  0  0  0  0
 42 82  1  0  0  0  0
 43 47  1  0  0  0  0
 44 83  1  0  0  0  0
 44 84  1  0  0  0  0
 44 85  1  0  0  0  0
 45 86  1  0  0  0  0
 45 87  1  0  0  0  0
 45 88  1  0  0  0  0
 46 89  1  0  0  0  0
 47 48  2  0  0  0  0
 47 49  1  0  0  0  0
 48 51  1  0  0  0  0
 48 90  1  0  0  0  0
 49 50  2  0  0  0  0
 49 91  1  0  0  0  0
 50 52  1  0  0  0  0
 51 52  2  0  0  0  0
 52 92  1  0  0  0  0
M  END
> <PUBCHEM_COMPOUND_CID>
509683
> <PUBCHEM_COMPOUND_CANONICALIZED>
1
> <PUBCHEM_CACTVS_COMPLEXITY>
1240
> <PUBCHEM_CACTVS_HBOND_ACCEPTOR>
11
> <PUBCHEM_CACTVS_HBOND_DONOR>
5
> <PUBCHEM_CACTVS_ROTATABLE_BOND>
15
> <PUBCHEM_CACTVS_SUBSKEYS>
AAADcfB/vABgAAAAAAAAAAAAAAAAAWAAAAAwYMGAAAAAAFgB9AAAHgQQSAAADTzh3gYz17LIFgqsAyVydHLD+LllKjlJmL1+bNiON7Lm/Z+HeSjt1xfY+ae66PSOAAQDCEAIAQAACAYQgBACAAAAAAAAAA==
> <PUBCHEM_IUPAC_OPENEYE_NAME>
N-[6-[[(2R,3S)-3-[[2-(2,6-dimethylphenoxy)acetyl]amino]-2-hydroxy-4-phenyl-butyl]-isobutyl-sulfamoyl]-1,3-benzothiazol-2-yl]-3,5-dihydroxy-benzamide
> <PUBCHEM_IUPAC_CAS_NAME>
N-[6-[[(2R,3S)-3-[[2-(2,6-dimethylphenoxy)-1-oxoethyl]amino]-2-hydroxy-4-phenylbutyl]-(2-methylpropyl)sulfamoyl]-1,3-benzothiazol-2-yl]-3,5-dihydroxybenzamide
> <PUBCHEM_IUPAC_NAME_MARKUP>
<I>N</I>-[6-[[(2<I>R</I>,3<I>S</I>)-3-[[2-(2,6-dimethylphenoxy)acetyl]amino]-2-hydroxy-4-phenylbutyl]-(2-methylpropyl)sulfamoyl]-1,3-benzothiazol-2-yl]-3,5-dihydroxybenzamide
> <PUBCHEM_IUPAC_NAME>
N-[6-[[(2R,3S)-3-[[2-(2,6-dimethylphenoxy)acetyl]amino]-2-hydroxy-4-phenylbutyl]-(2-methylpropyl)sulfamoyl]-1,3-benzothiazol-2-yl]-3,5-dihydroxybenzamide
> <PUBCHEM_IUPAC_SYSTEMATIC_NAME>
N-[6-[[(2R,3S)-3-[2-(2,6-dimethylphenoxy)ethanoylamino]-2-oxidanyl-4-phenyl-butyl]-(2-methylpropyl)sulfamoyl]-1,3-benzothiazol-2-yl]-3,5-bis(oxidanyl)benzamide
> <PUBCHEM_IUPAC_TRADITIONAL_NAME>
N-[6-[[(2R,3S)-3-[[2-(2,6-dimethylphenoxy)acetyl]amino]-2-hydroxy-4-phenyl-butyl]-isobutyl-sulfamoyl]-1,3-benzothiazol-2-yl]-3,5-dihydroxy-benzamide
> <PUBCHEM_IUPAC_INCHI>
InChI=1S/C38H42N4O8S2/c1-23(2)20-42(21-33(45)32(15-26-11-6-5-7-12-26)39-35(46)22-50-36-24(3)9-8-10-25(36)4)52(48,49)30-13-14-31-34(19-30)51-38(40-31)41-37(47)27-16-28(43)18-29(44)17-27/h5-14,16-19,23,32-33,43-45H,15,20-22H2,1-4H3,(H,39,46)(H,40,41,47)/t32-,33+/m0/s1
> <PUBCHEM_IUPAC_INCHIKEY>
WKNSSJHRIAMISW-JHOUSYSJSA-N
> <PUBCHEM_XLOGP3_AA>
6.5
> <PUBCHEM_EXACT_MASS>
746.24440666
> <PUBCHEM_MOLECULAR_FORMULA>
C38H42N4O8S2
> <PUBCHEM_MOLECULAR_WEIGHT>
746.9
> <PUBCHEM_OPENEYE_CAN_SMILES>
CC1=C(C(=CC=C1)C)OCC(=O)NC(CC2=CC=CC=C2)C(CN(CC(C)C)S(=O)(=O)C3=CC4=C(C=C3)N=C(S4)NC(=O)C5=CC(=CC(=C5)O)O)O
> <PUBCHEM_OPENEYE_ISO_SMILES>
CC1=C(C(=CC=C1)C)OCC(=O)N[C@@H](CC2=CC=CC=C2)[C@@H](CN(CC(C)C)S(=O)(=O)C3=CC4=C(C=C3)N=C(S4)NC(=O)C5=CC(=CC(=C5)O)O)O
> <PUBCHEM_CACTVS_TPSA>
215
> <PUBCHEM_MONOISOTOPIC_WEIGHT>
746.24440666
> <PUBCHEM_TOTAL_CHARGE>
0
> <PUBCHEM_HEAVY_ATOM_COUNT>
52
> <PUBCHEM_ATOM_DEF_STEREO_COUNT>
2
> <PUBCHEM_ATOM_UDEF_STEREO_COUNT>
0
> <PUBCHEM_BOND_DEF_STEREO_COUNT>
0
> <PUBCHEM_BOND_UDEF_STEREO_COUNT>
0
> <PUBCHEM_ISOTOPIC_ATOM_COUNT>
0
> <PUBCHEM_COMPONENT_COUNT>
1
> <PUBCHEM_CACTVS_TAUTO_COUNT>
-1
> <PUBCHEM_COORDINATE_TYPE>
1
5
255
> <PUBCHEM_BONDANNOTATIONS>
17  12  6
13  33  8
13  37  8
2  30  8
2  37  8
21  26  8
21  27  8
22  28  8
22  29  8
26  30  8
27  32  8
28  34  8
29  35  8
15  3  6
30  33  8
32  33  8
34  36  8
35  36  8
38  39  8
38  40  8
39  41  8
40  42  8
41  46  8
42  46  8
47  48  8
47  49  8
48  51  8
49  50  8
50  52  8
51  52  8
$$$$
