509658
  -OEChem-10302200282D
 88 92  0     1  0  0  0  0  0999 V2000
    8.9282   -0.4510    0.0000 S   0  0  0  0  0  0  0  0  0  0  0  0
   12.4725   -0.6462    0.0000 S   0  0  0  0  0  0  0  0  0  0  0  0
    2.8660    4.0490    0.0000 F   0  0  0  0  0  0  0  0  0  0  0  0
   17.5561   -4.0490    0.0000 F   0  0  0  0  0  0  0  0  0  0  0  0
    6.3301    1.0490    0.0000 O   0  0  0  0  0  0  0  0  0  0  0  0
    8.4282   -1.3170    0.0000 O   0  0  0  0  0  0  0  0  0  0  0  0
    9.4282    0.4151    0.0000 O   0  0  0  0  0  0  0  0  0  0  0  0
    5.4641    1.5490    0.0000 O   0  0  0  0  0  0  0  0  0  0  0  0
   14.0561   -3.1830    0.0000 O   0  0  0  0  0  0  0  0  0  0  0  0
    8.0622    0.0490    0.0000 N   0  0  3  0  0  0  0  0  0  0  0  0
    4.5981    0.0490    0.0000 N   0  0  0  0  0  0  0  0  0  0  0  0
   12.4725   -2.2557    0.0000 N   0  0  0  0  0  0  0  0  0  0  0  0
   14.0561   -1.4510    0.0000 N   0  0  0  0  0  0  0  0  0  0  0  0
    6.3301    0.0490    0.0000 C   0  0  2  0  0  0  0  0  0  0  0  0
    7.1962   -0.4510    0.0000 C   0  0  0  0  0  0  0  0  0  0  0  0
    5.4641   -0.4510    0.0000 C   0  0  2  0  0  0  0  0  0  0  0  0
    8.0622    1.0490    0.0000 C   0  0  0  0  0  0  0  0  0  0  0  0
    8.9282    1.5490    0.0000 C   0  0  0  0  0  0  0  0  0  0  0  0
    5.4641   -1.4510    0.0000 C   0  0  0  0  0  0  0  0  0  0  0  0
    9.7942   -0.9510    0.0000 C   0  0  0  0  0  0  0  0  0  0  0  0
    4.5981   -1.9510    0.0000 C   0  0  0  0  0  0  0  0  0  0  0  0
    8.9282    2.5490    0.0000 C   0  0  0  0  0  0  0  0  0  0  0  0
    9.7942    1.0490    0.0000 C   0  0  0  0  0  0  0  0  0  0  0  0
    4.5981    1.0490    0.0000 C   0  0  0  0  0  0  0  0  0  0  0  0
   10.6603   -0.4510    0.0000 C   0  0  0  0  0  0  0  0  0  0  0  0
    9.7942   -1.9510    0.0000 C   0  0  0  0  0  0  0  0  0  0  0  0
    4.5981   -2.9510    0.0000 C   0  0  0  0  0  0  0  0  0  0  0  0
    3.7320   -1.4510    0.0000 C   0  0  0  0  0  0  0  0  0  0  0  0
   11.5263   -0.9510    0.0000 C   0  0  0  0  0  0  0  0  0  0  0  0
    3.7320    1.5490    0.0000 C   0  0  0  0  0  0  0  0  0  0  0  0
   10.6603   -2.4510    0.0000 C   0  0  0  0  0  0  0  0  0  0  0  0
   11.5263   -1.9510    0.0000 C   0  0  0  0  0  0  0  0  0  0  0  0
    3.7320   -3.4510    0.0000 C   0  0  0  0  0  0  0  0  0  0  0  0
    2.8660   -1.9510    0.0000 C   0  0  0  0  0  0  0  0  0  0  0  0
    3.7320    2.5490    0.0000 C   0  0  0  0  0  0  0  0  0  0  0  0
    2.8660   -2.9510    0.0000 C   0  0  0  0  0  0  0  0  0  0  0  0
    2.8660    1.0490    0.0000 C   0  0  0  0  0  0  0  0  0  0  0  0
   13.0561   -1.4510    0.0000 C   0  0  0  0  0  0  0  0  0  0  0  0
    2.8660    3.0490    0.0000 C   0  0  0  0  0  0  0  0  0  0  0  0
    4.5981    3.0490    0.0000 C   0  0  0  0  0  0  0  0  0  0  0  0
    2.0000    1.5490    0.0000 C   0  0  0  0  0  0  0  0  0  0  0  0
    2.0000    2.5490    0.0000 C   0  0  0  0  0  0  0  0  0  0  0  0
   14.5561   -2.3170    0.0000 C   0  0  0  0  0  0  0  0  0  0  0  0
   15.5561   -2.3170    0.0000 C   0  0  0  0  0  0  0  0  0  0  0  0
   16.0561   -3.1830    0.0000 C   0  0  0  0  0  0  0  0  0  0  0  0
   16.0561   -1.4510    0.0000 C   0  0  0  0  0  0  0  0  0  0  0  0
   17.0561   -3.1830    0.0000 C   0  0  0  0  0  0  0  0  0  0  0  0
   15.5561   -4.0490    0.0000 C   0  0  0  0  0  0  0  0  0  0  0  0
   17.0561   -1.4510    0.0000 C   0  0  0  0  0  0  0  0  0  0  0  0
   17.5561   -2.3170    0.0000 C   0  0  0  0  0  0  0  0  0  0  0  0
    6.8671    0.3590    0.0000 H   0  0  0  0  0  0  0  0  0  0  0  0
    6.7976   -0.9259    0.0000 H   0  0  0  0  0  0  0  0  0  0  0  0
    7.5947   -0.9259    0.0000 H   0  0  0  0  0  0  0  0  0  0  0  0
    5.4641    0.1690    0.0000 H   0  0  0  0  0  0  0  0  0  0  0  0
    7.8501    1.6316    0.0000 H   0  0  0  0  0  0  0  0  0  0  0  0
    7.4516    0.9414    0.0000 H   0  0  0  0  0  0  0  0  0  0  0  0
    9.4651    1.8590    0.0000 H   0  0  0  0  0  0  0  0  0  0  0  0
    5.6762   -2.0336    0.0000 H   0  0  0  0  0  0  0  0  0  0  0  0
    6.0747   -1.3433    0.0000 H   0  0  0  0  0  0  0  0  0  0  0  0
    4.0611   -0.2610    0.0000 H   0  0  0  0  0  0  0  0  0  0  0  0
    9.5482    2.5490    0.0000 H   0  0  0  0  0  0  0  0  0  0  0  0
    8.9282    3.1690    0.0000 H   0  0  0  0  0  0  0  0  0  0  0  0
    8.3082    2.5490    0.0000 H   0  0  0  0  0  0  0  0  0  0  0  0
    9.4842    0.5121    0.0000 H   0  0  0  0  0  0  0  0  0  0  0  0
   10.3312    0.7390    0.0000 H   0  0  0  0  0  0  0  0  0  0  0  0
   10.1042    1.5860    0.0000 H   0  0  0  0  0  0  0  0  0  0  0  0
    6.8671    1.3590    0.0000 H   0  0  0  0  0  0  0  0  0  0  0  0
   10.6603    0.1690    0.0000 H   0  0  0  0  0  0  0  0  0  0  0  0
    9.2573   -2.2610    0.0000 H   0  0  0  0  0  0  0  0  0  0  0  0
    5.1350   -3.2610    0.0000 H   0  0  0  0  0  0  0  0  0  0  0  0
    3.7320   -0.8310    0.0000 H   0  0  0  0  0  0  0  0  0  0  0  0
   10.6603   -3.0710    0.0000 H   0  0  0  0  0  0  0  0  0  0  0  0
    3.7320   -4.0710    0.0000 H   0  0  0  0  0  0  0  0  0  0  0  0
    2.3291   -1.6410    0.0000 H   0  0  0  0  0  0  0  0  0  0  0  0
    2.3291   -3.2610    0.0000 H   0  0  0  0  0  0  0  0  0  0  0  0
    2.8660    0.4290    0.0000 H   0  0  0  0  0  0  0  0  0  0  0  0
    4.9081    2.5121    0.0000 H   0  0  0  0  0  0  0  0  0  0  0  0
    5.1350    3.3590    0.0000 H   0  0  0  0  0  0  0  0  0  0  0  0
    4.2881    3.5860    0.0000 H   0  0  0  0  0  0  0  0  0  0  0  0
    1.4631    1.2390    0.0000 H   0  0  0  0  0  0  0  0  0  0  0  0
    1.4631    2.8590    0.0000 H   0  0  0  0  0  0  0  0  0  0  0  0
   14.3661   -0.9140    0.0000 H   0  0  0  0  0  0  0  0  0  0  0  0
   15.7461   -0.9140    0.0000 H   0  0  0  0  0  0  0  0  0  0  0  0
   15.0192   -3.7390    0.0000 H   0  0  0  0  0  0  0  0  0  0  0  0
   15.2461   -4.5860    0.0000 H   0  0  0  0  0  0  0  0  0  0  0  0
   16.0930   -4.3590    0.0000 H   0  0  0  0  0  0  0  0  0  0  0  0
   17.3661   -0.9140    0.0000 H   0  0  0  0  0  0  0  0  0  0  0  0
   18.1761   -2.3170    0.0000 H   0  0  0  0  0  0  0  0  0  0  0  0
  1  6  2  0  0  0  0
  1  7  2  0  0  0  0
  1 10  1  0  0  0  0
  1 20  1  0  0  0  0
  2 29  1  0  0  0  0
  2 38  1  0  0  0  0
  3 39  1  0  0  0  0
  4 47  1  0  0  0  0
 14  5  1  6  0  0  0
  5 67  1  0  0  0  0
  8 24  2  0  0  0  0
  9 43  2  0  0  0  0
 10 15  1  0  0  0  0
 10 17  1  0  0  0  0
 16 11  1  6  0  0  0
 11 24  1  0  0  0  0
 11 60  1  0  0  0  0
 12 32  1  0  0  0  0
 12 38  2  0  0  0  0
 13 38  1  0  0  0  0
 13 43  1  0  0  0  0
 13 82  1  0  0  0  0
 14 15  1  0  0  0  0
 14 16  1  0  0  0  0
 14 51  1  0  0  0  0
 15 52  1  0  0  0  0
 15 53  1  0  0  0  0
 16 19  1  0  0  0  0
 16 54  1  0  0  0  0
 17 18  1  0  0  0  0
 17 55  1  0  0  0  0
 17 56  1  0  0  0  0
 18 22  1  0  0  0  0
 18 23  1  0  0  0  0
 18 57  1  0  0  0  0
 19 21  1  0  0  0  0
 19 58  1  0  0  0  0
 19 59  1  0  0  0  0
 20 25  2  0  0  0  0
 20 26  1  0  0  0  0
 21 27  2  0  0  0  0
 21 28  1  0  0  0  0
 22 61  1  0  0  0  0
 22 62  1  0  0  0  0
 22 63  1  0  0  0  0
 23 64  1  0  0  0  0
 23 65  1  0  0  0  0
 23 66  1  0  0  0  0
 24 30  1  0  0  0  0
 25 29  1  0  0  0  0
 25 68  1  0  0  0  0
 26 31  2  0  0  0  0
 26 69  1  0  0  0  0
 27 33  1  0  0  0  0
 27 70  1  0  0  0  0
 28 34  2  0  0  0  0
 28 71  1  0  0  0  0
 29 32  2  0  0  0  0
 30 35  2  0  0  0  0
 30 37  1  0  0  0  0
 31 32  1  0  0  0  0
 31 72  1  0  0  0  0
 33 36  2  0  0  0  0
 33 73  1  0  0  0  0
 34 36  1  0  0  0  0
 34 74  1  0  0  0  0
 35 39  1  0  0  0  0
 35 40  1  0  0  0  0
 36 75  1  0  0  0  0
 37 41  2  0  0  0  0
 37 76  1  0  0  0  0
 39 42  2  0  0  0  0
 40 77  1  0  0  0  0
 40 78  1  0  0  0  0
 40 79  1  0  0  0  0
 41 42  1  0  0  0  0
 41 80  1  0  0  0  0
 42 81  1  0  0  0  0
 43 44  1  0  0  0  0
 44 45  2  0  0  0  0
 44 46  1  0  0  0  0
 45 47  1  0  0  0  0
 45 48  1  0  0  0  0
 46 49  2  0  0  0  0
 46 83  1  0  0  0  0
 47 50  2  0  0  0  0
 48 84  1  0  0  0  0
 48 85  1  0  0  0  0
 48 86  1  0  0  0  0
 49 50  1  0  0  0  0
 49 87  1  0  0  0  0
 50 88  1  0  0  0  0
M  END
> <PUBCHEM_COMPOUND_CID>
509658
> <PUBCHEM_COMPOUND_CANONICALIZED>
1
> <PUBCHEM_CACTVS_COMPLEXITY>
1230
> <PUBCHEM_CACTVS_HBOND_ACCEPTOR>
10
> <PUBCHEM_CACTVS_HBOND_DONOR>
3
> <PUBCHEM_CACTVS_ROTATABLE_BOND>
13
> <PUBCHEM_CACTVS_SUBSKEYS>
AAADcfB/uYBgAAAAAAAAAAAAAAAAAWAAAAAwYMGAAAAAAFgB9AAAHwQQSAAADTzh3g4z0bLIEgqsAyVydHDD8LllCjlJmL04ZNiKMLLg3ZGEYQhslwLYyaeYyKCOgAQAAEAQAQAACAAAgCACAAAAAAAAAA==
> <PUBCHEM_IUPAC_OPENEYE_NAME>
3-fluoro-N-[6-[[(2R,3S)-3-[(3-fluoro-2-methyl-benzoyl)amino]-2-hydroxy-4-phenyl-butyl]-isobutyl-sulfamoyl]-1,3-benzothiazol-2-yl]-2-methyl-benzamide
> <PUBCHEM_IUPAC_CAS_NAME>
3-fluoro-N-[6-[[(2R,3S)-3-[[(3-fluoro-2-methylphenyl)-oxomethyl]amino]-2-hydroxy-4-phenylbutyl]-(2-methylpropyl)sulfamoyl]-1,3-benzothiazol-2-yl]-2-methylbenzamide
> <PUBCHEM_IUPAC_NAME_MARKUP>
3-fluoro-<I>N</I>-[6-[[(2<I>R</I>,3<I>S</I>)-3-[(3-fluoro-2-methylbenzoyl)amino]-2-hydroxy-4-phenylbutyl]-(2-methylpropyl)sulfamoyl]-1,3-benzothiazol-2-yl]-2-methylbenzamide
> <PUBCHEM_IUPAC_NAME>
3-fluoro-N-[6-[[(2R,3S)-3-[(3-fluoro-2-methylbenzoyl)amino]-2-hydroxy-4-phenylbutyl]-(2-methylpropyl)sulfamoyl]-1,3-benzothiazol-2-yl]-2-methylbenzamide
> <PUBCHEM_IUPAC_SYSTEMATIC_NAME>
3-fluoranyl-N-[6-[[(2R,3S)-3-[(3-fluoranyl-2-methyl-phenyl)carbonylamino]-2-oxidanyl-4-phenyl-butyl]-(2-methylpropyl)sulfamoyl]-1,3-benzothiazol-2-yl]-2-methyl-benzamide
> <PUBCHEM_IUPAC_TRADITIONAL_NAME>
3-fluoro-N-[6-[[(2R,3S)-3-[(3-fluoro-2-methyl-benzoyl)amino]-2-hydroxy-4-phenyl-butyl]-isobutyl-sulfamoyl]-1,3-benzothiazol-2-yl]-2-methyl-benzamide
> <PUBCHEM_IUPAC_INCHI>
InChI=1S/C37H38F2N4O5S2/c1-22(2)20-43(21-33(44)32(18-25-10-6-5-7-11-25)40-35(45)27-12-8-14-29(38)23(27)3)50(47,48)26-16-17-31-34(19-26)49-37(41-31)42-36(46)28-13-9-15-30(39)24(28)4/h5-17,19,22,32-33,44H,18,20-21H2,1-4H3,(H,40,45)(H,41,42,46)/t32-,33+/m0/s1
> <PUBCHEM_IUPAC_INCHIKEY>
VILODJIZHOSVQH-JHOUSYSJSA-N
> <PUBCHEM_XLOGP3_AA>
7.3
> <PUBCHEM_EXACT_MASS>
720.22516900
> <PUBCHEM_MOLECULAR_FORMULA>
C37H38F2N4O5S2
> <PUBCHEM_MOLECULAR_WEIGHT>
720.9
> <PUBCHEM_OPENEYE_CAN_SMILES>
CC1=C(C=CC=C1F)C(=O)NC2=NC3=C(S2)C=C(C=C3)S(=O)(=O)N(CC(C)C)CC(C(CC4=CC=CC=C4)NC(=O)C5=C(C(=CC=C5)F)C)O
> <PUBCHEM_OPENEYE_ISO_SMILES>
CC1=C(C=CC=C1F)C(=O)NC2=NC3=C(S2)C=C(C=C3)S(=O)(=O)N(C[C@H]([C@H](CC4=CC=CC=C4)NC(=O)C5=C(C(=CC=C5)F)C)O)CC(C)C
> <PUBCHEM_CACTVS_TPSA>
165
> <PUBCHEM_MONOISOTOPIC_WEIGHT>
720.22516900
> <PUBCHEM_TOTAL_CHARGE>
0
> <PUBCHEM_HEAVY_ATOM_COUNT>
50
> <PUBCHEM_ATOM_DEF_STEREO_COUNT>
2
> <PUBCHEM_ATOM_UDEF_STEREO_COUNT>
0
> <PUBCHEM_BOND_DEF_STEREO_COUNT>
0
> <PUBCHEM_BOND_UDEF_STEREO_COUNT>
0
> <PUBCHEM_ISOTOPIC_ATOM_COUNT>
0
> <PUBCHEM_COMPONENT_COUNT>
1
> <PUBCHEM_CACTVS_TAUTO_COUNT>
-1
> <PUBCHEM_COORDINATE_TYPE>
1
5
255
> <PUBCHEM_BONDANNOTATIONS>
16  11  6
12  32  8
12  38  8
2  29  8
2  38  8
20  25  8
20  26  8
21  27  8
21  28  8
25  29  8
26  31  8
27  33  8
28  34  8
29  32  8
30  35  8
30  37  8
31  32  8
33  36  8
34  36  8
35  39  8
37  41  8
39  42  8
41  42  8
44  45  8
44  46  8
45  47  8
46  49  8
47  50  8
49  50  8
14  5  6
$$$$
