509661
  -OEChem-10302200282D
 80 83  0     1  0  0  0  0  0999 V2000
    8.0622   -0.7694    0.0000 S   0  0  0  0  0  0  0  0  0  0  0  0
   11.6065   -0.9647    0.0000 S   0  0  0  0  0  0  0  0  0  0  0  0
    5.4641    0.7306    0.0000 O   0  0  0  0  0  0  0  0  0  0  0  0
    2.8660    1.2306    0.0000 O   0  0  0  0  0  0  0  0  0  0  0  0
    2.3660    3.7694    0.0000 O   0  0  0  0  0  0  0  0  0  0  0  0
    7.5622   -1.6354    0.0000 O   0  0  0  0  0  0  0  0  0  0  0  0
    8.5622    0.0966    0.0000 O   0  0  0  0  0  0  0  0  0  0  0  0
    4.5981    1.2306    0.0000 O   0  0  0  0  0  0  0  0  0  0  0  0
   13.1901   -3.5015    0.0000 O   0  0  0  0  0  0  0  0  0  0  0  0
    7.1962   -0.2694    0.0000 N   0  0  3  0  0  0  0  0  0  0  0  0
    3.7320   -0.2694    0.0000 N   0  0  0  0  0  0  0  0  0  0  0  0
   11.6065   -2.5742    0.0000 N   0  0  0  0  0  0  0  0  0  0  0  0
   13.1901   -1.7694    0.0000 N   0  0  0  0  0  0  0  0  0  0  0  0
    5.4641   -0.2694    0.0000 C   0  0  1  0  0  0  0  0  0  0  0  0
    4.5981   -0.7694    0.0000 C   0  0  2  0  0  0  0  0  0  0  0  0
    6.3301   -0.7694    0.0000 C   0  0  0  0  0  0  0  0  0  0  0  0
    7.1962    0.7306    0.0000 C   0  0  0  0  0  0  0  0  0  0  0  0
    8.0622    1.2306    0.0000 C   0  0  0  0  0  0  0  0  0  0  0  0
    4.5981   -1.7694    0.0000 C   0  0  0  0  0  0  0  0  0  0  0  0
    8.9282   -1.2694    0.0000 C   0  0  0  0  0  0  0  0  0  0  0  0
    3.7320   -2.2694    0.0000 C   0  0  0  0  0  0  0  0  0  0  0  0
    2.8660    2.2306    0.0000 C   0  0  3  0  0  0  0  0  0  0  0  0
    8.0622    2.2306    0.0000 C   0  0  0  0  0  0  0  0  0  0  0  0
    8.9282    0.7306    0.0000 C   0  0  0  0  0  0  0  0  0  0  0  0
    3.6750    2.8184    0.0000 C   0  0  0  0  0  0  0  0  0  0  0  0
    3.7320    0.7306    0.0000 C   0  0  0  0  0  0  0  0  0  0  0  0
    2.0570    2.8184    0.0000 C   0  0  0  0  0  0  0  0  0  0  0  0
    3.3660    3.7694    0.0000 C   0  0  0  0  0  0  0  0  0  0  0  0
    9.7942   -0.7694    0.0000 C   0  0  0  0  0  0  0  0  0  0  0  0
    8.9282   -2.2694    0.0000 C   0  0  0  0  0  0  0  0  0  0  0  0
    3.7320   -3.2694    0.0000 C   0  0  0  0  0  0  0  0  0  0  0  0
    2.8660   -1.7694    0.0000 C   0  0  0  0  0  0  0  0  0  0  0  0
   10.6603   -1.2694    0.0000 C   0  0  0  0  0  0  0  0  0  0  0  0
    9.7942   -2.7694    0.0000 C   0  0  0  0  0  0  0  0  0  0  0  0
   10.6603   -2.2694    0.0000 C   0  0  0  0  0  0  0  0  0  0  0  0
    2.8660   -3.7694    0.0000 C   0  0  0  0  0  0  0  0  0  0  0  0
    2.0000   -2.2694    0.0000 C   0  0  0  0  0  0  0  0  0  0  0  0
    2.0000   -3.2694    0.0000 C   0  0  0  0  0  0  0  0  0  0  0  0
   12.1901   -1.7694    0.0000 C   0  0  0  0  0  0  0  0  0  0  0  0
   13.6901   -0.9034    0.0000 C   0  0  0  0  0  0  0  0  0  0  0  0
   13.6901   -2.6354    0.0000 C   0  0  0  0  0  0  0  0  0  0  0  0
   14.6901   -2.6354    0.0000 C   0  0  0  0  0  0  0  0  0  0  0  0
    6.0010    0.0406    0.0000 H   0  0  0  0  0  0  0  0  0  0  0  0
    4.5981   -0.1494    0.0000 H   0  0  0  0  0  0  0  0  0  0  0  0
    5.9316   -1.2444    0.0000 H   0  0  0  0  0  0  0  0  0  0  0  0
    6.7287   -1.2444    0.0000 H   0  0  0  0  0  0  0  0  0  0  0  0
    6.9841    1.3132    0.0000 H   0  0  0  0  0  0  0  0  0  0  0  0
    6.5856    0.6229    0.0000 H   0  0  0  0  0  0  0  0  0  0  0  0
    8.0622    0.6106    0.0000 H   0  0  0  0  0  0  0  0  0  0  0  0
    4.8101   -2.3520    0.0000 H   0  0  0  0  0  0  0  0  0  0  0  0
    5.2087   -1.6618    0.0000 H   0  0  0  0  0  0  0  0  0  0  0  0
    3.1951   -0.5794    0.0000 H   0  0  0  0  0  0  0  0  0  0  0  0
    3.4184    1.9491    0.0000 H   0  0  0  0  0  0  0  0  0  0  0  0
    8.6822    2.2306    0.0000 H   0  0  0  0  0  0  0  0  0  0  0  0
    8.0622    2.8506    0.0000 H   0  0  0  0  0  0  0  0  0  0  0  0
    7.4422    2.2306    0.0000 H   0  0  0  0  0  0  0  0  0  0  0  0
    8.6182    0.1936    0.0000 H   0  0  0  0  0  0  0  0  0  0  0  0
    9.4651    0.4206    0.0000 H   0  0  0  0  0  0  0  0  0  0  0  0
    9.2382    1.2675    0.0000 H   0  0  0  0  0  0  0  0  0  0  0  0
    6.0010    1.0406    0.0000 H   0  0  0  0  0  0  0  0  0  0  0  0
    3.9850    2.2814    0.0000 H   0  0  0  0  0  0  0  0  0  0  0  0
    4.2414    3.0705    0.0000 H   0  0  0  0  0  0  0  0  0  0  0  0
    1.4906    3.0705    0.0000 H   0  0  0  0  0  0  0  0  0  0  0  0
    1.7470    2.2814    0.0000 H   0  0  0  0  0  0  0  0  0  0  0  0
    3.9725    3.8983    0.0000 H   0  0  0  0  0  0  0  0  0  0  0  0
    3.3012    4.3860    0.0000 H   0  0  0  0  0  0  0  0  0  0  0  0
    9.7942   -0.1494    0.0000 H   0  0  0  0  0  0  0  0  0  0  0  0
    8.3913   -2.5794    0.0000 H   0  0  0  0  0  0  0  0  0  0  0  0
    4.2690   -3.5794    0.0000 H   0  0  0  0  0  0  0  0  0  0  0  0
    2.8660   -1.1494    0.0000 H   0  0  0  0  0  0  0  0  0  0  0  0
    9.7942   -3.3894    0.0000 H   0  0  0  0  0  0  0  0  0  0  0  0
    2.8660   -4.3894    0.0000 H   0  0  0  0  0  0  0  0  0  0  0  0
    1.4631   -1.9594    0.0000 H   0  0  0  0  0  0  0  0  0  0  0  0
    1.4631   -3.5794    0.0000 H   0  0  0  0  0  0  0  0  0  0  0  0
   14.2270   -1.2134    0.0000 H   0  0  0  0  0  0  0  0  0  0  0  0
   14.0001   -0.3665    0.0000 H   0  0  0  0  0  0  0  0  0  0  0  0
   13.1531   -0.5934    0.0000 H   0  0  0  0  0  0  0  0  0  0  0  0
   14.6901   -3.2554    0.0000 H   0  0  0  0  0  0  0  0  0  0  0  0
   15.3101   -2.6354    0.0000 H   0  0  0  0  0  0  0  0  0  0  0  0
   14.6901   -2.0154    0.0000 H   0  0  0  0  0  0  0  0  0  0  0  0
  1  6  2  0  0  0  0
  1  7  2  0  0  0  0
  1 10  1  0  0  0  0
  1 20  1  0  0  0  0
  2 33  1  0  0  0  0
  2 39  1  0  0  0  0
 14  3  1  6  0  0  0
  3 60  1  0  0  0  0
  4 22  1  0  0  0  0
  4 26  1  0  0  0  0
  5 27  1  0  0  0  0
  5 28  1  0  0  0  0
  8 26  2  0  0  0  0
  9 41  2  0  0  0  0
 10 16  1  0  0  0  0
 10 17  1  0  0  0  0
 15 11  1  6  0  0  0
 11 26  1  0  0  0  0
 11 52  1  0  0  0  0
 12 35  1  0  0  0  0
 12 39  2  0  0  0  0
 13 39  1  0  0  0  0
 13 40  1  0  0  0  0
 13 41  1  0  0  0  0
 14 15  1  0  0  0  0
 14 16  1  0  0  0  0
 14 43  1  0  0  0  0
 15 19  1  0  0  0  0
 15 44  1  0  0  0  0
 16 45  1  0  0  0  0
 16 46  1  0  0  0  0
 17 18  1  0  0  0  0
 17 47  1  0  0  0  0
 17 48  1  0  0  0  0
 18 23  1  0  0  0  0
 18 24  1  0  0  0  0
 18 49  1  0  0  0  0
 19 21  1  0  0  0  0
 19 50  1  0  0  0  0
 19 51  1  0  0  0  0
 20 29  2  0  0  0  0
 20 30  1  0  0  0  0
 21 31  2  0  0  0  0
 21 32  1  0  0  0  0
 22 25  1  0  0  0  0
 22 27  1  0  0  0  0
 22 53  1  0  0  0  0
 23 54  1  0  0  0  0
 23 55  1  0  0  0  0
 23 56  1  0  0  0  0
 24 57  1  0  0  0  0
 24 58  1  0  0  0  0
 24 59  1  0  0  0  0
 25 28  1  0  0  0  0
 25 61  1  0  0  0  0
 25 62  1  0  0  0  0
 27 63  1  0  0  0  0
 27 64  1  0  0  0  0
 28 65  1  0  0  0  0
 28 66  1  0  0  0  0
 29 33  1  0  0  0  0
 29 67  1  0  0  0  0
 30 34  2  0  0  0  0
 30 68  1  0  0  0  0
 31 36  1  0  0  0  0
 31 69  1  0  0  0  0
 32 37  2  0  0  0  0
 32 70  1  0  0  0  0
 33 35  2  0  0  0  0
 34 35  1  0  0  0  0
 34 71  1  0  0  0  0
 36 38  2  0  0  0  0
 36 72  1  0  0  0  0
 37 38  1  0  0  0  0
 37 73  1  0  0  0  0
 38 74  1  0  0  0  0
 40 75  1  0  0  0  0
 40 76  1  0  0  0  0
 40 77  1  0  0  0  0
 41 42  1  0  0  0  0
 42 78  1  0  0  0  0
 42 79  1  0  0  0  0
 42 80  1  0  0  0  0
M  END
> <PUBCHEM_COMPOUND_CID>
509661
> <PUBCHEM_COMPOUND_CANONICALIZED>
1
> <PUBCHEM_CACTVS_COMPLEXITY>
1000
> <PUBCHEM_CACTVS_HBOND_ACCEPTOR>
10
> <PUBCHEM_CACTVS_HBOND_DONOR>
2
> <PUBCHEM_CACTVS_ROTATABLE_BOND>
13
> <PUBCHEM_CACTVS_SUBSKEYS>
AAADcfB7uABgAAAAAAAAAAAAAAAAAWJAAAAwYAAAAAAAAFgB9AAAHgQQSAAADTzh3gYz2bPIFgqsAyVyfHDD8LlhCjhJmLw4ZJmLMKLg2ZGOYAhtlwLayCeQwKAOAAQAAEAAAQAACAAAgAACAAAAAAAAAA==
> <PUBCHEM_IUPAC_OPENEYE_NAME>
tetrahydrofuran-3-yl N-[(1S,2R)-3-[[2-[acetyl(methyl)amino]-1,3-benzothiazol-6-yl]sulfonyl-isobutyl-amino]-1-benzyl-2-hydroxy-propyl]carbamate
> <PUBCHEM_IUPAC_CAS_NAME>
N-[(2S,3R)-4-[[2-[acetyl(methyl)amino]-1,3-benzothiazol-6-yl]sulfonyl-(2-methylpropyl)amino]-3-hydroxy-1-phenylbutan-2-yl]carbamic acid 3-oxolanyl ester
> <PUBCHEM_IUPAC_NAME_MARKUP>
oxolan-3-yl <I>N</I>-[(2<I>S</I>,3<I>R</I>)-4-[[2-[acetyl(methyl)amino]-1,3-benzothiazol-6-yl]sulfonyl-(2-methylpropyl)amino]-3-hydroxy-1-phenylbutan-2-yl]carbamate
> <PUBCHEM_IUPAC_NAME>
oxolan-3-yl N-[(2S,3R)-4-[[2-[acetyl(methyl)amino]-1,3-benzothiazol-6-yl]sulfonyl-(2-methylpropyl)amino]-3-hydroxy-1-phenylbutan-2-yl]carbamate
> <PUBCHEM_IUPAC_SYSTEMATIC_NAME>
oxolan-3-yl N-[(2S,3R)-4-[[2-[ethanoyl(methyl)amino]-1,3-benzothiazol-6-yl]sulfonyl-(2-methylpropyl)amino]-3-oxidanyl-1-phenyl-butan-2-yl]carbamate
> <PUBCHEM_IUPAC_TRADITIONAL_NAME>
N-[(1S,2R)-3-[[2-[acetyl(methyl)amino]-1,3-benzothiazol-6-yl]sulfonyl-isobutyl-amino]-1-benzyl-2-hydroxy-propyl]carbamic acid tetrahydrofuran-3-yl ester
> <PUBCHEM_IUPAC_INCHI>
InChI=1S/C29H38N4O7S2/c1-19(2)16-33(42(37,38)23-10-11-24-27(15-23)41-28(30-24)32(4)20(3)34)17-26(35)25(14-21-8-6-5-7-9-21)31-29(36)40-22-12-13-39-18-22/h5-11,15,19,22,25-26,35H,12-14,16-18H2,1-4H3,(H,31,36)/t22?,25-,26+/m0/s1
> <PUBCHEM_IUPAC_INCHIKEY>
IFRBQZXTUXNHMG-QMXUZLBISA-N
> <PUBCHEM_XLOGP3_AA>
3.7
> <PUBCHEM_EXACT_MASS>
618.21819191
> <PUBCHEM_MOLECULAR_FORMULA>
C29H38N4O7S2
> <PUBCHEM_MOLECULAR_WEIGHT>
618.8
> <PUBCHEM_OPENEYE_CAN_SMILES>
CC(C)CN(CC(C(CC1=CC=CC=C1)NC(=O)OC2CCOC2)O)S(=O)(=O)C3=CC4=C(C=C3)N=C(S4)N(C)C(=O)C
> <PUBCHEM_OPENEYE_ISO_SMILES>
CC(C)CN(C[C@H]([C@H](CC1=CC=CC=C1)NC(=O)OC2CCOC2)O)S(=O)(=O)C3=CC4=C(C=C3)N=C(S4)N(C)C(=O)C
> <PUBCHEM_CACTVS_TPSA>
175
> <PUBCHEM_MONOISOTOPIC_WEIGHT>
618.21819191
> <PUBCHEM_TOTAL_CHARGE>
0
> <PUBCHEM_HEAVY_ATOM_COUNT>
42
> <PUBCHEM_ATOM_DEF_STEREO_COUNT>
2
> <PUBCHEM_ATOM_UDEF_STEREO_COUNT>
1
> <PUBCHEM_BOND_DEF_STEREO_COUNT>
0
> <PUBCHEM_BOND_UDEF_STEREO_COUNT>
0
> <PUBCHEM_ISOTOPIC_ATOM_COUNT>
0
> <PUBCHEM_COMPONENT_COUNT>
1
> <PUBCHEM_CACTVS_TAUTO_COUNT>
-1
> <PUBCHEM_COORDINATE_TYPE>
1
5
255
> <PUBCHEM_BONDANNOTATIONS>
15  11  6
12  35  8
12  39  8
2  33  8
2  39  8
20  29  8
20  30  8
21  31  8
21  32  8
29  33  8
14  3  6
30  34  8
31  36  8
32  37  8
33  35  8
34  35  8
36  38  8
37  38  8
22  4  3
$$$$
