509628
  -OEChem-10302200282D
 91 95  0     1  0  0  0  0  0999 V2000
    9.7942   -0.3426    0.0000 S   0  0  0  0  0  0  0  0  0  0  0  0
   13.3385   -0.5379    0.0000 S   0  0  0  0  0  0  0  0  0  0  0  0
    7.1962    1.1574    0.0000 O   0  0  0  0  0  0  0  0  0  0  0  0
    9.2942   -1.2087    0.0000 O   0  0  0  0  0  0  0  0  0  0  0  0
   10.2942    0.5234    0.0000 O   0  0  0  0  0  0  0  0  0  0  0  0
    4.5981    1.6574    0.0000 O   0  0  0  0  0  0  0  0  0  0  0  0
    6.3301    1.6574    0.0000 O   0  0  0  0  0  0  0  0  0  0  0  0
   16.9221   -3.0747    0.0000 N   0  0  0  0  0  0  0  0  0  0  0  0
    8.9282    0.1574    0.0000 N   0  0  3  0  0  0  0  0  0  0  0  0
    5.4641    0.1574    0.0000 N   0  0  0  0  0  0  0  0  0  0  0  0
   14.9221   -1.3426    0.0000 N   0  0  0  0  0  0  0  0  0  0  0  0
   13.3385   -2.1474    0.0000 N   0  0  0  0  0  0  0  0  0  0  0  0
    2.0000    3.1574    0.0000 N   0  0  0  0  0  0  0  0  0  0  0  0
   16.5154   -3.9882    0.0000 C   0  0  0  0  0  0  0  0  0  0  0  0
   17.9167   -3.1792    0.0000 C   0  0  0  0  0  0  0  0  0  0  0  0
   17.2585   -4.6574    0.0000 C   0  0  0  0  0  0  0  0  0  0  0  0
   18.1246   -4.1574    0.0000 C   0  0  0  0  0  0  0  0  0  0  0  0
    7.1962    0.1574    0.0000 C   0  0  2  0  0  0  0  0  0  0  0  0
    8.0622   -0.3426    0.0000 C   0  0  0  0  0  0  0  0  0  0  0  0
    6.3301   -0.3426    0.0000 C   0  0  2  0  0  0  0  0  0  0  0  0
   16.4221   -2.2087    0.0000 C   0  0  0  0  0  0  0  0  0  0  0  0
    8.9282    1.1574    0.0000 C   0  0  0  0  0  0  0  0  0  0  0  0
    9.7942    1.6574    0.0000 C   0  0  0  0  0  0  0  0  0  0  0  0
    6.3301   -1.3426    0.0000 C   0  0  0  0  0  0  0  0  0  0  0  0
   15.4221   -2.2087    0.0000 C   0  0  0  0  0  0  0  0  0  0  0  0
   10.6603   -0.8426    0.0000 C   0  0  0  0  0  0  0  0  0  0  0  0
    9.7942    2.6574    0.0000 C   0  0  0  0  0  0  0  0  0  0  0  0
   10.6603    1.1574    0.0000 C   0  0  0  0  0  0  0  0  0  0  0  0
    5.4641   -1.8426    0.0000 C   0  0  0  0  0  0  0  0  0  0  0  0
   11.5263   -0.3426    0.0000 C   0  0  0  0  0  0  0  0  0  0  0  0
   10.6603   -1.8426    0.0000 C   0  0  0  0  0  0  0  0  0  0  0  0
   12.3923   -0.8426    0.0000 C   0  0  0  0  0  0  0  0  0  0  0  0
   13.9221   -1.3426    0.0000 C   0  0  0  0  0  0  0  0  0  0  0  0
   12.3923   -1.8426    0.0000 C   0  0  0  0  0  0  0  0  0  0  0  0
   11.5263   -2.3426    0.0000 C   0  0  0  0  0  0  0  0  0  0  0  0
    5.4641    1.1574    0.0000 C   0  0  0  0  0  0  0  0  0  0  0  0
    5.4641   -2.8426    0.0000 C   0  0  0  0  0  0  0  0  0  0  0  0
    4.5981   -1.3426    0.0000 C   0  0  0  0  0  0  0  0  0  0  0  0
    4.5981   -3.3426    0.0000 C   0  0  0  0  0  0  0  0  0  0  0  0
    3.7320   -1.8426    0.0000 C   0  0  0  0  0  0  0  0  0  0  0  0
    3.7320   -2.8426    0.0000 C   0  0  0  0  0  0  0  0  0  0  0  0
    4.5981    2.6574    0.0000 C   0  0  0  0  0  0  0  0  0  0  0  0
    3.7320    3.1574    0.0000 C   0  0  0  0  0  0  0  0  0  0  0  0
    3.7320    4.1574    0.0000 C   0  0  0  0  0  0  0  0  0  0  0  0
    2.8660    2.6574    0.0000 C   0  0  0  0  0  0  0  0  0  0  0  0
    2.8660    4.6574    0.0000 C   0  0  0  0  0  0  0  0  0  0  0  0
    2.0000    4.1574    0.0000 C   0  0  0  0  0  0  0  0  0  0  0  0
   15.9785   -3.6782    0.0000 H   0  0  0  0  0  0  0  0  0  0  0  0
   16.1510   -4.4898    0.0000 H   0  0  0  0  0  0  0  0  0  0  0  0
   18.5333   -3.1144    0.0000 H   0  0  0  0  0  0  0  0  0  0  0  0
   17.9167   -2.5592    0.0000 H   0  0  0  0  0  0  0  0  0  0  0  0
   16.7978   -5.0722    0.0000 H   0  0  0  0  0  0  0  0  0  0  0  0
   17.6230   -5.1590    0.0000 H   0  0  0  0  0  0  0  0  0  0  0  0
   18.3767   -4.7238    0.0000 H   0  0  0  0  0  0  0  0  0  0  0  0
   18.7142   -3.9658    0.0000 H   0  0  0  0  0  0  0  0  0  0  0  0
    6.6592    0.4674    0.0000 H   0  0  0  0  0  0  0  0  0  0  0  0
    7.6636   -0.8176    0.0000 H   0  0  0  0  0  0  0  0  0  0  0  0
    8.4607   -0.8176    0.0000 H   0  0  0  0  0  0  0  0  0  0  0  0
    5.7932   -0.6526    0.0000 H   0  0  0  0  0  0  0  0  0  0  0  0
   17.0047   -1.9966    0.0000 H   0  0  0  0  0  0  0  0  0  0  0  0
   16.3145   -1.5981    0.0000 H   0  0  0  0  0  0  0  0  0  0  0  0
    8.7162    1.7400    0.0000 H   0  0  0  0  0  0  0  0  0  0  0  0
    8.3176    1.0497    0.0000 H   0  0  0  0  0  0  0  0  0  0  0  0
    9.2573    1.9674    0.0000 H   0  0  0  0  0  0  0  0  0  0  0  0
    6.5422   -1.9252    0.0000 H   0  0  0  0  0  0  0  0  0  0  0  0
    6.9407   -1.2350    0.0000 H   0  0  0  0  0  0  0  0  0  0  0  0
   14.8395   -2.4207    0.0000 H   0  0  0  0  0  0  0  0  0  0  0  0
   15.5298   -2.8192    0.0000 H   0  0  0  0  0  0  0  0  0  0  0  0
    4.9272   -0.1526    0.0000 H   0  0  0  0  0  0  0  0  0  0  0  0
   10.4142    2.6574    0.0000 H   0  0  0  0  0  0  0  0  0  0  0  0
    9.7942    3.2774    0.0000 H   0  0  0  0  0  0  0  0  0  0  0  0
    9.1742    2.6574    0.0000 H   0  0  0  0  0  0  0  0  0  0  0  0
   10.3503    0.6204    0.0000 H   0  0  0  0  0  0  0  0  0  0  0  0
   11.1972    0.8474    0.0000 H   0  0  0  0  0  0  0  0  0  0  0  0
   10.9703    1.6943    0.0000 H   0  0  0  0  0  0  0  0  0  0  0  0
    7.7331    1.4674    0.0000 H   0  0  0  0  0  0  0  0  0  0  0  0
   15.2321   -0.8057    0.0000 H   0  0  0  0  0  0  0  0  0  0  0  0
   11.5263    0.2774    0.0000 H   0  0  0  0  0  0  0  0  0  0  0  0
   10.1233   -2.1526    0.0000 H   0  0  0  0  0  0  0  0  0  0  0  0
   11.5263   -2.9626    0.0000 H   0  0  0  0  0  0  0  0  0  0  0  0
    6.0010   -3.1526    0.0000 H   0  0  0  0  0  0  0  0  0  0  0  0
    4.5981   -0.7226    0.0000 H   0  0  0  0  0  0  0  0  0  0  0  0
    4.5981   -3.9626    0.0000 H   0  0  0  0  0  0  0  0  0  0  0  0
    3.1951   -1.5326    0.0000 H   0  0  0  0  0  0  0  0  0  0  0  0
    3.1951   -3.1526    0.0000 H   0  0  0  0  0  0  0  0  0  0  0  0
    5.2087    2.5497    0.0000 H   0  0  0  0  0  0  0  0  0  0  0  0
    4.8101    3.2400    0.0000 H   0  0  0  0  0  0  0  0  0  0  0  0
    4.2690    4.4674    0.0000 H   0  0  0  0  0  0  0  0  0  0  0  0
    2.8660    2.0374    0.0000 H   0  0  0  0  0  0  0  0  0  0  0  0
    2.8660    5.2774    0.0000 H   0  0  0  0  0  0  0  0  0  0  0  0
    1.4631    4.4674    0.0000 H   0  0  0  0  0  0  0  0  0  0  0  0
  1  4  2  0  0  0  0
  1  5  2  0  0  0  0
  1  9  1  0  0  0  0
  1 26  1  0  0  0  0
  2 32  1  0  0  0  0
  2 33  1  0  0  0  0
 18  3  1  6  0  0  0
  3 76  1  0  0  0  0
  6 36  1  0  0  0  0
  6 42  1  0  0  0  0
  7 36  2  0  0  0  0
  8 14  1  0  0  0  0
  8 15  1  0  0  0  0
  8 21  1  0  0  0  0
  9 19  1  0  0  0  0
  9 22  1  0  0  0  0
 20 10  1  6  0  0  0
 10 36  1  0  0  0  0
 10 69  1  0  0  0  0
 11 25  1  0  0  0  0
 11 33  1  0  0  0  0
 11 77  1  0  0  0  0
 12 33  2  0  0  0  0
 12 34  1  0  0  0  0
 13 45  1  0  0  0  0
 13 47  2  0  0  0  0
 14 16  1  0  0  0  0
 14 48  1  0  0  0  0
 14 49  1  0  0  0  0
 15 17  1  0  0  0  0
 15 50  1  0  0  0  0
 15 51  1  0  0  0  0
 16 17  1  0  0  0  0
 16 52  1  0  0  0  0
 16 53  1  0  0  0  0
 17 54  1  0  0  0  0
 17 55  1  0  0  0  0
 18 19  1  0  0  0  0
 18 20  1  0  0  0  0
 18 56  1  0  0  0  0
 19 57  1  0  0  0  0
 19 58  1  0  0  0  0
 20 24  1  0  0  0  0
 20 59  1  0  0  0  0
 21 25  1  0  0  0  0
 21 60  1  0  0  0  0
 21 61  1  0  0  0  0
 22 23  1  0  0  0  0
 22 62  1  0  0  0  0
 22 63  1  0  0  0  0
 23 27  1  0  0  0  0
 23 28  1  0  0  0  0
 23 64  1  0  0  0  0
 24 29  1  0  0  0  0
 24 65  1  0  0  0  0
 24 66  1  0  0  0  0
 25 67  1  0  0  0  0
 25 68  1  0  0  0  0
 26 30  2  0  0  0  0
 26 31  1  0  0  0  0
 27 70  1  0  0  0  0
 27 71  1  0  0  0  0
 27 72  1  0  0  0  0
 28 73  1  0  0  0  0
 28 74  1  0  0  0  0
 28 75  1  0  0  0  0
 29 37  2  0  0  0  0
 29 38  1  0  0  0  0
 30 32  1  0  0  0  0
 30 78  1  0  0  0  0
 31 35  2  0  0  0  0
 31 79  1  0  0  0  0
 32 34  2  0  0  0  0
 34 35  1  0  0  0  0
 35 80  1  0  0  0  0
 37 39  1  0  0  0  0
 37 81  1  0  0  0  0
 38 40  2  0  0  0  0
 38 82  1  0  0  0  0
 39 41  2  0  0  0  0
 39 83  1  0  0  0  0
 40 41  1  0  0  0  0
 40 84  1  0  0  0  0
 41 85  1  0  0  0  0
 42 43  1  0  0  0  0
 42 86  1  0  0  0  0
 42 87  1  0  0  0  0
 43 44  1  0  0  0  0
 43 45  2  0  0  0  0
 44 46  2  0  0  0  0
 44 88  1  0  0  0  0
 45 89  1  0  0  0  0
 46 47  1  0  0  0  0
 46 90  1  0  0  0  0
 47 91  1  0  0  0  0
M  END
> <PUBCHEM_COMPOUND_CID>
509628
> <PUBCHEM_COMPOUND_CANONICALIZED>
1
> <PUBCHEM_CACTVS_COMPLEXITY>
1050
> <PUBCHEM_CACTVS_HBOND_ACCEPTOR>
11
> <PUBCHEM_CACTVS_HBOND_DONOR>
3
> <PUBCHEM_CACTVS_ROTATABLE_BOND>
17
> <PUBCHEM_CACTVS_SUBSKEYS>
AAADcfB/uABgAAAAAAAAAAAAAAAAAWLAAAA8YIAAAAAAAFgB/AAAHgQQSAAADTzh3gY/2bPIFgqsAzRnfHDD8LlxCjlJ2Lw4bJmKduLg+ZmccAhu1gPY6CeQ0KIOAAQAAEAAAQAACAAAgAACAAAAAAAAAA==
> <PUBCHEM_IUPAC_OPENEYE_NAME>
3-pyridylmethyl N-[(1S,2R)-1-benzyl-2-hydroxy-3-[isobutyl-[[2-(2-pyrrolidin-1-ylethylamino)-1,3-benzothiazol-6-yl]sulfonyl]amino]propyl]carbamate
> <PUBCHEM_IUPAC_CAS_NAME>
N-[(2S,3R)-3-hydroxy-4-[2-methylpropyl-[[2-[2-(1-pyrrolidinyl)ethylamino]-1,3-benzothiazol-6-yl]sulfonyl]amino]-1-phenylbutan-2-yl]carbamic acid 3-pyridinylmethyl ester
> <PUBCHEM_IUPAC_NAME_MARKUP>
pyridin-3-ylmethyl <I>N</I>-[(2<I>S</I>,3<I>R</I>)-3-hydroxy-4-[2-methylpropyl-[[2-(2-pyrrolidin-1-ylethylamino)-1,3-benzothiazol-6-yl]sulfonyl]amino]-1-phenylbutan-2-yl]carbamate
> <PUBCHEM_IUPAC_NAME>
pyridin-3-ylmethyl N-[(2S,3R)-3-hydroxy-4-[2-methylpropyl-[[2-(2-pyrrolidin-1-ylethylamino)-1,3-benzothiazol-6-yl]sulfonyl]amino]-1-phenylbutan-2-yl]carbamate
> <PUBCHEM_IUPAC_SYSTEMATIC_NAME>
pyridin-3-ylmethyl N-[(2S,3R)-4-[2-methylpropyl-[[2-(2-pyrrolidin-1-ylethylamino)-1,3-benzothiazol-6-yl]sulfonyl]amino]-3-oxidanyl-1-phenyl-butan-2-yl]carbamate
> <PUBCHEM_IUPAC_TRADITIONAL_NAME>
N-[(1S,2R)-1-benzyl-2-hydroxy-3-[isobutyl-[[2-(2-pyrrolidinoethylamino)-1,3-benzothiazol-6-yl]sulfonyl]amino]propyl]carbamic acid 3-pyridylmethyl ester
> <PUBCHEM_IUPAC_INCHI>
InChI=1S/C34H44N6O5S2/c1-25(2)22-40(47(43,44)28-12-13-29-32(20-28)46-33(37-29)36-15-18-39-16-6-7-17-39)23-31(41)30(19-26-9-4-3-5-10-26)38-34(42)45-24-27-11-8-14-35-21-27/h3-5,8-14,20-21,25,30-31,41H,6-7,15-19,22-24H2,1-2H3,(H,36,37)(H,38,42)/t30-,31+/m0/s1
> <PUBCHEM_IUPAC_INCHIKEY>
OUBNYEISOBQFGX-IOWSJCHKSA-N
> <PUBCHEM_XLOGP3_AA>
5.2
> <PUBCHEM_EXACT_MASS>
680.28146087
> <PUBCHEM_MOLECULAR_FORMULA>
C34H44N6O5S2
> <PUBCHEM_MOLECULAR_WEIGHT>
680.9
> <PUBCHEM_OPENEYE_CAN_SMILES>
CC(C)CN(CC(C(CC1=CC=CC=C1)NC(=O)OCC2=CN=CC=C2)O)S(=O)(=O)C3=CC4=C(C=C3)N=C(S4)NCCN5CCCC5
> <PUBCHEM_OPENEYE_ISO_SMILES>
CC(C)CN(C[C@H]([C@H](CC1=CC=CC=C1)NC(=O)OCC2=CN=CC=C2)O)S(=O)(=O)C3=CC4=C(C=C3)N=C(S4)NCCN5CCCC5
> <PUBCHEM_CACTVS_TPSA>
174
> <PUBCHEM_MONOISOTOPIC_WEIGHT>
680.28146087
> <PUBCHEM_TOTAL_CHARGE>
0
> <PUBCHEM_HEAVY_ATOM_COUNT>
47
> <PUBCHEM_ATOM_DEF_STEREO_COUNT>
2
> <PUBCHEM_ATOM_UDEF_STEREO_COUNT>
0
> <PUBCHEM_BOND_DEF_STEREO_COUNT>
0
> <PUBCHEM_BOND_UDEF_STEREO_COUNT>
0
> <PUBCHEM_ISOTOPIC_ATOM_COUNT>
0
> <PUBCHEM_COMPONENT_COUNT>
1
> <PUBCHEM_CACTVS_TAUTO_COUNT>
-1
> <PUBCHEM_COORDINATE_TYPE>
1
5
255
> <PUBCHEM_BONDANNOTATIONS>
20  10  6
12  33  8
12  34  8
13  45  8
13  47  8
2  32  8
2  33  8
26  30  8
26  31  8
29  37  8
29  38  8
18  3  6
30  32  8
31  35  8
32  34  8
34  35  8
37  39  8
38  40  8
39  41  8
40  41  8
43  44  8
43  45  8
44  46  8
46  47  8
$$$$
