509645
  -OEChem-10302200282D
 95 99  0     1  0  0  0  0  0999 V2000
    8.9282    0.0955    0.0000 S   0  0  0  0  0  0  0  0  0  0  0  0
   12.4725   -0.0997    0.0000 S   0  0  0  0  0  0  0  0  0  0  0  0
    6.3301    1.5955    0.0000 O   0  0  0  0  0  0  0  0  0  0  0  0
    8.4282   -0.7705    0.0000 O   0  0  0  0  0  0  0  0  0  0  0  0
    9.4282    0.9615    0.0000 O   0  0  0  0  0  0  0  0  0  0  0  0
    5.4641    2.0955    0.0000 O   0  0  0  0  0  0  0  0  0  0  0  0
    8.0622    0.5955    0.0000 N   0  0  3  0  0  0  0  0  0  0  0  0
    4.5981    0.5955    0.0000 N   0  0  0  0  0  0  0  0  0  0  0  0
   16.0561   -2.6365    0.0000 N   0  0  0  0  0  0  0  0  0  0  0  0
   17.0561   -4.3686    0.0000 N   0  0  0  0  0  0  0  0  0  0  0  0
   14.0561   -0.9045    0.0000 N   0  0  0  0  0  0  0  0  0  0  0  0
   12.4725   -1.7092    0.0000 N   0  0  0  0  0  0  0  0  0  0  0  0
    2.8660    4.5955    0.0000 N   0  0  0  0  0  0  0  0  0  0  0  0
    6.3301    0.5955    0.0000 C   0  0  2  0  0  0  0  0  0  0  0  0
    7.1962    0.0955    0.0000 C   0  0  0  0  0  0  0  0  0  0  0  0
    5.4641    0.0955    0.0000 C   0  0  2  0  0  0  0  0  0  0  0  0
    8.0622    1.5955    0.0000 C   0  0  0  0  0  0  0  0  0  0  0  0
    8.9282    2.0955    0.0000 C   0  0  0  0  0  0  0  0  0  0  0  0
    5.4641   -0.9045    0.0000 C   0  0  0  0  0  0  0  0  0  0  0  0
    9.7942   -0.4045    0.0000 C   0  0  0  0  0  0  0  0  0  0  0  0
   15.5561   -3.5026    0.0000 C   0  0  0  0  0  0  0  0  0  0  0  0
   17.0561   -2.6365    0.0000 C   0  0  0  0  0  0  0  0  0  0  0  0
    4.5981   -1.4045    0.0000 C   0  0  0  0  0  0  0  0  0  0  0  0
    8.9282    3.0955    0.0000 C   0  0  0  0  0  0  0  0  0  0  0  0
    9.7942    1.5955    0.0000 C   0  0  0  0  0  0  0  0  0  0  0  0
   15.5561   -1.7705    0.0000 C   0  0  0  0  0  0  0  0  0  0  0  0
   16.0561   -4.3686    0.0000 C   0  0  0  0  0  0  0  0  0  0  0  0
   17.5561   -3.5026    0.0000 C   0  0  0  0  0  0  0  0  0  0  0  0
   14.5561   -1.7705    0.0000 C   0  0  0  0  0  0  0  0  0  0  0  0
   10.6603    0.0955    0.0000 C   0  0  0  0  0  0  0  0  0  0  0  0
    4.5981    1.5955    0.0000 C   0  0  0  0  0  0  0  0  0  0  0  0
    9.7942   -1.4045    0.0000 C   0  0  0  0  0  0  0  0  0  0  0  0
   11.5263   -0.4045    0.0000 C   0  0  0  0  0  0  0  0  0  0  0  0
    4.5981   -2.4045    0.0000 C   0  0  0  0  0  0  0  0  0  0  0  0
    3.7320   -0.9045    0.0000 C   0  0  0  0  0  0  0  0  0  0  0  0
   11.5263   -1.4045    0.0000 C   0  0  0  0  0  0  0  0  0  0  0  0
   10.6603   -1.9045    0.0000 C   0  0  0  0  0  0  0  0  0  0  0  0
    3.7320    2.0955    0.0000 C   0  0  0  0  0  0  0  0  0  0  0  0
   13.0561   -0.9045    0.0000 C   0  0  0  0  0  0  0  0  0  0  0  0
    3.7320   -2.9045    0.0000 C   0  0  0  0  0  0  0  0  0  0  0  0
    2.8660   -1.4045    0.0000 C   0  0  0  0  0  0  0  0  0  0  0  0
    3.7320    3.0955    0.0000 C   0  0  0  0  0  0  0  0  0  0  0  0
    2.8660   -2.4045    0.0000 C   0  0  0  0  0  0  0  0  0  0  0  0
    2.8660    1.5955    0.0000 C   0  0  0  0  0  0  0  0  0  0  0  0
    2.8660    3.5955    0.0000 C   0  0  0  0  0  0  0  0  0  0  0  0
    4.5981    3.5955    0.0000 C   0  0  0  0  0  0  0  0  0  0  0  0
    2.0000    2.0955    0.0000 C   0  0  0  0  0  0  0  0  0  0  0  0
    2.0000    3.0955    0.0000 C   0  0  0  0  0  0  0  0  0  0  0  0
    6.8671    0.9055    0.0000 H   0  0  0  0  0  0  0  0  0  0  0  0
    6.7976   -0.3794    0.0000 H   0  0  0  0  0  0  0  0  0  0  0  0
    7.5947   -0.3794    0.0000 H   0  0  0  0  0  0  0  0  0  0  0  0
    5.4641    0.7155    0.0000 H   0  0  0  0  0  0  0  0  0  0  0  0
    7.8501    2.1781    0.0000 H   0  0  0  0  0  0  0  0  0  0  0  0
    7.4516    1.4879    0.0000 H   0  0  0  0  0  0  0  0  0  0  0  0
    8.9282    1.4755    0.0000 H   0  0  0  0  0  0  0  0  0  0  0  0
    5.6762   -1.4871    0.0000 H   0  0  0  0  0  0  0  0  0  0  0  0
    6.0747   -0.7968    0.0000 H   0  0  0  0  0  0  0  0  0  0  0  0
    4.0611    0.2855    0.0000 H   0  0  0  0  0  0  0  0  0  0  0  0
   15.0812   -3.1040    0.0000 H   0  0  0  0  0  0  0  0  0  0  0  0
   15.0812   -3.9011    0.0000 H   0  0  0  0  0  0  0  0  0  0  0  0
   17.6387   -2.4245    0.0000 H   0  0  0  0  0  0  0  0  0  0  0  0
   16.9484   -2.0260    0.0000 H   0  0  0  0  0  0  0  0  0  0  0  0
    9.5482    3.0955    0.0000 H   0  0  0  0  0  0  0  0  0  0  0  0
    8.9282    3.7155    0.0000 H   0  0  0  0  0  0  0  0  0  0  0  0
    8.3082    3.0955    0.0000 H   0  0  0  0  0  0  0  0  0  0  0  0
    9.4842    1.0586    0.0000 H   0  0  0  0  0  0  0  0  0  0  0  0
   10.3312    1.2855    0.0000 H   0  0  0  0  0  0  0  0  0  0  0  0
   10.1042    2.1324    0.0000 H   0  0  0  0  0  0  0  0  0  0  0  0
   16.1387   -1.5584    0.0000 H   0  0  0  0  0  0  0  0  0  0  0  0
   15.4484   -1.1599    0.0000 H   0  0  0  0  0  0  0  0  0  0  0  0
   15.4735   -4.5806    0.0000 H   0  0  0  0  0  0  0  0  0  0  0  0
   16.1638   -4.9792    0.0000 H   0  0  0  0  0  0  0  0  0  0  0  0
   18.0311   -3.9011    0.0000 H   0  0  0  0  0  0  0  0  0  0  0  0
   18.0311   -3.1040    0.0000 H   0  0  0  0  0  0  0  0  0  0  0  0
    6.8671    1.9055    0.0000 H   0  0  0  0  0  0  0  0  0  0  0  0
   17.3661   -4.9055    0.0000 H   0  0  0  0  0  0  0  0  0  0  0  0
   13.9735   -1.9826    0.0000 H   0  0  0  0  0  0  0  0  0  0  0  0
   14.6638   -2.3811    0.0000 H   0  0  0  0  0  0  0  0  0  0  0  0
   10.6603    0.7155    0.0000 H   0  0  0  0  0  0  0  0  0  0  0  0
    9.2573   -1.7145    0.0000 H   0  0  0  0  0  0  0  0  0  0  0  0
    5.1350   -2.7145    0.0000 H   0  0  0  0  0  0  0  0  0  0  0  0
    3.7320   -0.2845    0.0000 H   0  0  0  0  0  0  0  0  0  0  0  0
   10.6603   -2.5245    0.0000 H   0  0  0  0  0  0  0  0  0  0  0  0
   14.3661   -0.3675    0.0000 H   0  0  0  0  0  0  0  0  0  0  0  0
    3.7320   -3.5245    0.0000 H   0  0  0  0  0  0  0  0  0  0  0  0
    2.3291   -1.0945    0.0000 H   0  0  0  0  0  0  0  0  0  0  0  0
    2.3291   -2.7145    0.0000 H   0  0  0  0  0  0  0  0  0  0  0  0
    2.8660    0.9755    0.0000 H   0  0  0  0  0  0  0  0  0  0  0  0
    4.9081    3.0586    0.0000 H   0  0  0  0  0  0  0  0  0  0  0  0
    5.1350    3.9055    0.0000 H   0  0  0  0  0  0  0  0  0  0  0  0
    4.2881    4.1325    0.0000 H   0  0  0  0  0  0  0  0  0  0  0  0
    1.4631    1.7855    0.0000 H   0  0  0  0  0  0  0  0  0  0  0  0
    1.4631    3.4055    0.0000 H   0  0  0  0  0  0  0  0  0  0  0  0
    2.3291    4.9055    0.0000 H   0  0  0  0  0  0  0  0  0  0  0  0
    3.4030    4.9055    0.0000 H   0  0  0  0  0  0  0  0  0  0  0  0
  1  4  2  0  0  0  0
  1  5  2  0  0  0  0
  1  7  1  0  0  0  0
  1 20  1  0  0  0  0
  2 33  1  0  0  0  0
  2 39  1  0  0  0  0
 14  3  1  6  0  0  0
  3 75  1  0  0  0  0
  6 31  2  0  0  0  0
  7 15  1  0  0  0  0
  7 17  1  0  0  0  0
 16  8  1  6  0  0  0
  8 31  1  0  0  0  0
  8 58  1  0  0  0  0
  9 21  1  0  0  0  0
  9 22  1  0  0  0  0
  9 26  1  0  0  0  0
 10 27  1  0  0  0  0
 10 28  1  0  0  0  0
 10 76  1  0  0  0  0
 11 29  1  0  0  0  0
 11 39  1  0  0  0  0
 11 84  1  0  0  0  0
 12 36  1  0  0  0  0
 12 39  2  0  0  0  0
 13 45  1  0  0  0  0
 13 94  1  0  0  0  0
 13 95  1  0  0  0  0
 14 15  1  0  0  0  0
 14 16  1  0  0  0  0
 14 49  1  0  0  0  0
 15 50  1  0  0  0  0
 15 51  1  0  0  0  0
 16 19  1  0  0  0  0
 16 52  1  0  0  0  0
 17 18  1  0  0  0  0
 17 53  1  0  0  0  0
 17 54  1  0  0  0  0
 18 24  1  0  0  0  0
 18 25  1  0  0  0  0
 18 55  1  0  0  0  0
 19 23  1  0  0  0  0
 19 56  1  0  0  0  0
 19 57  1  0  0  0  0
 20 30  2  0  0  0  0
 20 32  1  0  0  0  0
 21 27  1  0  0  0  0
 21 59  1  0  0  0  0
 21 60  1  0  0  0  0
 22 28  1  0  0  0  0
 22 61  1  0  0  0  0
 22 62  1  0  0  0  0
 23 34  2  0  0  0  0
 23 35  1  0  0  0  0
 24 63  1  0  0  0  0
 24 64  1  0  0  0  0
 24 65  1  0  0  0  0
 25 66  1  0  0  0  0
 25 67  1  0  0  0  0
 25 68  1  0  0  0  0
 26 29  1  0  0  0  0
 26 69  1  0  0  0  0
 26 70  1  0  0  0  0
 27 71  1  0  0  0  0
 27 72  1  0  0  0  0
 28 73  1  0  0  0  0
 28 74  1  0  0  0  0
 29 77  1  0  0  0  0
 29 78  1  0  0  0  0
 30 33  1  0  0  0  0
 30 79  1  0  0  0  0
 31 38  1  0  0  0  0
 32 37  2  0  0  0  0
 32 80  1  0  0  0  0
 33 36  2  0  0  0  0
 34 40  1  0  0  0  0
 34 81  1  0  0  0  0
 35 41  2  0  0  0  0
 35 82  1  0  0  0  0
 36 37  1  0  0  0  0
 37 83  1  0  0  0  0
 38 42  2  0  0  0  0
 38 44  1  0  0  0  0
 40 43  2  0  0  0  0
 40 85  1  0  0  0  0
 41 43  1  0  0  0  0
 41 86  1  0  0  0  0
 42 45  1  0  0  0  0
 42 46  1  0  0  0  0
 43 87  1  0  0  0  0
 44 47  2  0  0  0  0
 44 88  1  0  0  0  0
 45 48  2  0  0  0  0
 46 89  1  0  0  0  0
 46 90  1  0  0  0  0
 46 91  1  0  0  0  0
 47 48  1  0  0  0  0
 47 92  1  0  0  0  0
 48 93  1  0  0  0  0
M  END
> <PUBCHEM_COMPOUND_CID>
509645
> <PUBCHEM_COMPOUND_CANONICALIZED>
1
> <PUBCHEM_CACTVS_COMPLEXITY>
1100
> <PUBCHEM_CACTVS_HBOND_ACCEPTOR>
11
> <PUBCHEM_CACTVS_HBOND_DONOR>
5
> <PUBCHEM_CACTVS_ROTATABLE_BOND>
15
> <PUBCHEM_CACTVS_SUBSKEYS>
AAADcfB/uABgAAAAAAAAAAAAAAAAAWAAAAA8YMEAAAAAAFgB9AAAHgQQSAAADTzh3gYz0bPIEgqsAyVydHDD8LllCjlJmL04ZNiKcLLg3ZGUYQhslgLYyaecyKCOgAQAQEASAQAACACAgCQCAAAAAAAAAA==
> <PUBCHEM_IUPAC_OPENEYE_NAME>
3-amino-N-[(1S,2R)-1-benzyl-2-hydroxy-3-[isobutyl-[[2-(2-piperazin-1-ylethylamino)-1,3-benzothiazol-6-yl]sulfonyl]amino]propyl]-2-methyl-benzamide
> <PUBCHEM_IUPAC_CAS_NAME>
3-amino-N-[(2S,3R)-3-hydroxy-4-[2-methylpropyl-[[2-[2-(1-piperazinyl)ethylamino]-1,3-benzothiazol-6-yl]sulfonyl]amino]-1-phenylbutan-2-yl]-2-methylbenzamide
> <PUBCHEM_IUPAC_NAME_MARKUP>
3-amino-<I>N</I>-[(2<I>S</I>,3<I>R</I>)-3-hydroxy-4-[2-methylpropyl-[[2-(2-piperazin-1-ylethylamino)-1,3-benzothiazol-6-yl]sulfonyl]amino]-1-phenylbutan-2-yl]-2-methylbenzamide
> <PUBCHEM_IUPAC_NAME>
3-amino-N-[(2S,3R)-3-hydroxy-4-[2-methylpropyl-[[2-(2-piperazin-1-ylethylamino)-1,3-benzothiazol-6-yl]sulfonyl]amino]-1-phenylbutan-2-yl]-2-methylbenzamide
> <PUBCHEM_IUPAC_SYSTEMATIC_NAME>
3-azanyl-2-methyl-N-[(2S,3R)-4-[2-methylpropyl-[[2-(2-piperazin-1-ylethylamino)-1,3-benzothiazol-6-yl]sulfonyl]amino]-3-oxidanyl-1-phenyl-butan-2-yl]benzamide
> <PUBCHEM_IUPAC_TRADITIONAL_NAME>
3-amino-N-[(1S,2R)-1-benzyl-2-hydroxy-3-[isobutyl-[[2-(2-piperazinoethylamino)-1,3-benzothiazol-6-yl]sulfonyl]amino]propyl]-2-methyl-benzamide
> <PUBCHEM_IUPAC_INCHI>
InChI=1S/C35H47N7O4S2/c1-24(2)22-42(23-32(43)31(20-26-8-5-4-6-9-26)39-34(44)28-10-7-11-29(36)25(28)3)48(45,46)27-12-13-30-33(21-27)47-35(40-30)38-16-19-41-17-14-37-15-18-41/h4-13,21,24,31-32,37,43H,14-20,22-23,36H2,1-3H3,(H,38,40)(H,39,44)/t31-,32+/m0/s1
> <PUBCHEM_IUPAC_INCHIKEY>
ZSMAJISEURQSMT-AJQTZOPKSA-N
> <PUBCHEM_XLOGP3_AA>
4.6
> <PUBCHEM_EXACT_MASS>
693.31309535
> <PUBCHEM_MOLECULAR_FORMULA>
C35H47N7O4S2
> <PUBCHEM_MOLECULAR_WEIGHT>
693.9
> <PUBCHEM_OPENEYE_CAN_SMILES>
CC1=C(C=CC=C1N)C(=O)NC(CC2=CC=CC=C2)C(CN(CC(C)C)S(=O)(=O)C3=CC4=C(C=C3)N=C(S4)NCCN5CCNCC5)O
> <PUBCHEM_OPENEYE_ISO_SMILES>
CC1=C(C=CC=C1N)C(=O)N[C@@H](CC2=CC=CC=C2)[C@@H](CN(CC(C)C)S(=O)(=O)C3=CC4=C(C=C3)N=C(S4)NCCN5CCNCC5)O
> <PUBCHEM_CACTVS_TPSA>
190
> <PUBCHEM_MONOISOTOPIC_WEIGHT>
693.31309535
> <PUBCHEM_TOTAL_CHARGE>
0
> <PUBCHEM_HEAVY_ATOM_COUNT>
48
> <PUBCHEM_ATOM_DEF_STEREO_COUNT>
2
> <PUBCHEM_ATOM_UDEF_STEREO_COUNT>
0
> <PUBCHEM_BOND_DEF_STEREO_COUNT>
0
> <PUBCHEM_BOND_UDEF_STEREO_COUNT>
0
> <PUBCHEM_ISOTOPIC_ATOM_COUNT>
0
> <PUBCHEM_COMPONENT_COUNT>
1
> <PUBCHEM_CACTVS_TAUTO_COUNT>
-1
> <PUBCHEM_COORDINATE_TYPE>
1
5
255
> <PUBCHEM_BONDANNOTATIONS>
12  36  8
12  39  8
2  33  8
2  39  8
20  30  8
20  32  8
23  34  8
23  35  8
14  3  6
30  33  8
32  37  8
33  36  8
34  40  8
35  41  8
36  37  8
38  42  8
38  44  8
40  43  8
41  43  8
42  45  8
44  47  8
45  48  8
47  48  8
16  8  6
$$$$
