509608
  -OEChem-10302200282D
 95100  0     1  0  0  0  0  0999 V2000
    9.3056   -0.4032    0.0000 S   0  0  0  0  0  0  0  0  0  0  0  0
   12.8499   -0.5984    0.0000 S   0  0  0  0  0  0  0  0  0  0  0  0
    4.6095    4.1357    0.0000 O   0  0  0  0  0  0  0  0  0  0  0  0
    2.8037    4.7179    0.0000 O   0  0  0  0  0  0  0  0  0  0  0  0
    4.1095    1.5968    0.0000 O   0  0  0  0  0  0  0  0  0  0  0  0
    6.7075    1.0968    0.0000 O   0  0  0  0  0  0  0  0  0  0  0  0
    5.8415    1.5968    0.0000 O   0  0  0  0  0  0  0  0  0  0  0  0
    8.8056   -1.2692    0.0000 O   0  0  0  0  0  0  0  0  0  0  0  0
    9.8056    0.4629    0.0000 O   0  0  0  0  0  0  0  0  0  0  0  0
    4.9755    0.0968    0.0000 N   0  0  0  0  0  0  0  0  0  0  0  0
    8.4396    0.0968    0.0000 N   0  0  3  0  0  0  0  0  0  0  0  0
   16.4335   -3.1352    0.0000 N   0  0  0  0  0  0  0  0  0  0  0  0
   14.4335   -1.4032    0.0000 N   0  0  0  0  0  0  0  0  0  0  0  0
   12.8499   -2.2079    0.0000 N   0  0  0  0  0  0  0  0  0  0  0  0
    3.3004    3.1846    0.0000 C   0  0  2  0  0  0  0  0  0  0  0  0
    3.6095    4.1357    0.0000 C   0  0  1  0  0  0  0  0  0  0  0  0
    4.1095    2.5968    0.0000 C   0  0  2  0  0  0  0  0  0  0  0  0
    2.3064    3.1872    0.0000 C   0  0  0  0  0  0  0  0  0  0  0  0
    4.9185    3.1846    0.0000 C   0  0  0  0  0  0  0  0  0  0  0  0
    2.0000    4.1329    0.0000 C   0  0  0  0  0  0  0  0  0  0  0  0
    5.8415   -0.4032    0.0000 C   0  0  2  0  0  0  0  0  0  0  0  0
    4.9755    1.0968    0.0000 C   0  0  0  0  0  0  0  0  0  0  0  0
    6.7075    0.0968    0.0000 C   0  0  1  0  0  0  0  0  0  0  0  0
    7.5736   -0.4032    0.0000 C   0  0  0  0  0  0  0  0  0  0  0  0
    5.8415   -1.4032    0.0000 C   0  0  0  0  0  0  0  0  0  0  0  0
   16.0268   -4.0488    0.0000 C   0  0  0  0  0  0  0  0  0  0  0  0
   17.4280   -3.2397    0.0000 C   0  0  0  0  0  0  0  0  0  0  0  0
   16.7699   -4.7179    0.0000 C   0  0  0  0  0  0  0  0  0  0  0  0
   17.6360   -4.2179    0.0000 C   0  0  0  0  0  0  0  0  0  0  0  0
    8.4396    1.0968    0.0000 C   0  0  0  0  0  0  0  0  0  0  0  0
    9.3056    1.5968    0.0000 C   0  0  0  0  0  0  0  0  0  0  0  0
   15.9335   -2.2692    0.0000 C   0  0  0  0  0  0  0  0  0  0  0  0
    4.9755   -1.9032    0.0000 C   0  0  0  0  0  0  0  0  0  0  0  0
   14.9335   -2.2692    0.0000 C   0  0  0  0  0  0  0  0  0  0  0  0
   10.1716   -0.9032    0.0000 C   0  0  0  0  0  0  0  0  0  0  0  0
    9.3056    2.5968    0.0000 C   0  0  0  0  0  0  0  0  0  0  0  0
   10.1716    1.0968    0.0000 C   0  0  0  0  0  0  0  0  0  0  0  0
    4.9755   -2.9032    0.0000 C   0  0  0  0  0  0  0  0  0  0  0  0
    4.1095   -1.4032    0.0000 C   0  0  0  0  0  0  0  0  0  0  0  0
   11.0377   -0.4032    0.0000 C   0  0  0  0  0  0  0  0  0  0  0  0
   10.1716   -1.9032    0.0000 C   0  0  0  0  0  0  0  0  0  0  0  0
   11.9037   -0.9032    0.0000 C   0  0  0  0  0  0  0  0  0  0  0  0
   11.9037   -1.9032    0.0000 C   0  0  0  0  0  0  0  0  0  0  0  0
   13.4335   -1.4032    0.0000 C   0  0  0  0  0  0  0  0  0  0  0  0
   11.0377   -2.4032    0.0000 C   0  0  0  0  0  0  0  0  0  0  0  0
    4.1095   -3.4032    0.0000 C   0  0  0  0  0  0  0  0  0  0  0  0
    3.2434   -1.9032    0.0000 C   0  0  0  0  0  0  0  0  0  0  0  0
    3.2434   -2.9032    0.0000 C   0  0  0  0  0  0  0  0  0  0  0  0
    3.0367    2.3766    0.0000 H   0  0  0  0  0  0  0  0  0  0  0  0
    3.8711    4.9444    0.0000 H   0  0  0  0  0  0  0  0  0  0  0  0
    3.5570    2.3154    0.0000 H   0  0  0  0  0  0  0  0  0  0  0  0
    1.6997    3.0592    0.0000 H   0  0  0  0  0  0  0  0  0  0  0  0
    2.3699    2.5705    0.0000 H   0  0  0  0  0  0  0  0  0  0  0  0
    5.2285    2.6477    0.0000 H   0  0  0  0  0  0  0  0  0  0  0  0
    5.4849    3.4368    0.0000 H   0  0  0  0  0  0  0  0  0  0  0  0
    1.6898    4.6697    0.0000 H   0  0  0  0  0  0  0  0  0  0  0  0
    1.4335    3.8809    0.0000 H   0  0  0  0  0  0  0  0  0  0  0  0
    5.8415    0.2168    0.0000 H   0  0  0  0  0  0  0  0  0  0  0  0
    7.2445    0.4068    0.0000 H   0  0  0  0  0  0  0  0  0  0  0  0
    4.4386   -0.2132    0.0000 H   0  0  0  0  0  0  0  0  0  0  0  0
    7.1750   -0.8781    0.0000 H   0  0  0  0  0  0  0  0  0  0  0  0
    7.9721   -0.8781    0.0000 H   0  0  0  0  0  0  0  0  0  0  0  0
    6.0536   -1.9858    0.0000 H   0  0  0  0  0  0  0  0  0  0  0  0
    6.4521   -1.2955    0.0000 H   0  0  0  0  0  0  0  0  0  0  0  0
   15.4898   -3.7388    0.0000 H   0  0  0  0  0  0  0  0  0  0  0  0
   15.6624   -4.5504    0.0000 H   0  0  0  0  0  0  0  0  0  0  0  0
   18.0446   -3.1749    0.0000 H   0  0  0  0  0  0  0  0  0  0  0  0
   17.4280   -2.6197    0.0000 H   0  0  0  0  0  0  0  0  0  0  0  0
   16.3092   -5.1328    0.0000 H   0  0  0  0  0  0  0  0  0  0  0  0
   17.1344   -5.2195    0.0000 H   0  0  0  0  0  0  0  0  0  0  0  0
   17.8881   -4.7843    0.0000 H   0  0  0  0  0  0  0  0  0  0  0  0
   18.2256   -4.0263    0.0000 H   0  0  0  0  0  0  0  0  0  0  0  0
    8.2275    1.6794    0.0000 H   0  0  0  0  0  0  0  0  0  0  0  0
    7.8290    0.9892    0.0000 H   0  0  0  0  0  0  0  0  0  0  0  0
    8.7687    1.9068    0.0000 H   0  0  0  0  0  0  0  0  0  0  0  0
   16.5161   -2.0571    0.0000 H   0  0  0  0  0  0  0  0  0  0  0  0
   15.8259   -1.6586    0.0000 H   0  0  0  0  0  0  0  0  0  0  0  0
    7.2445    1.4068    0.0000 H   0  0  0  0  0  0  0  0  0  0  0  0
   14.3509   -2.4812    0.0000 H   0  0  0  0  0  0  0  0  0  0  0  0
   15.0412   -2.8798    0.0000 H   0  0  0  0  0  0  0  0  0  0  0  0
    9.9256    2.5968    0.0000 H   0  0  0  0  0  0  0  0  0  0  0  0
    9.3056    3.2168    0.0000 H   0  0  0  0  0  0  0  0  0  0  0  0
    8.6856    2.5968    0.0000 H   0  0  0  0  0  0  0  0  0  0  0  0
    9.8616    0.5599    0.0000 H   0  0  0  0  0  0  0  0  0  0  0  0
   10.7086    0.7868    0.0000 H   0  0  0  0  0  0  0  0  0  0  0  0
   10.4816    1.6338    0.0000 H   0  0  0  0  0  0  0  0  0  0  0  0
    5.5124   -3.2132    0.0000 H   0  0  0  0  0  0  0  0  0  0  0  0
    4.1095   -0.7832    0.0000 H   0  0  0  0  0  0  0  0  0  0  0  0
   11.0377    0.2168    0.0000 H   0  0  0  0  0  0  0  0  0  0  0  0
   14.7435   -0.8662    0.0000 H   0  0  0  0  0  0  0  0  0  0  0  0
    9.6347   -2.2132    0.0000 H   0  0  0  0  0  0  0  0  0  0  0  0
   11.0377   -3.0232    0.0000 H   0  0  0  0  0  0  0  0  0  0  0  0
    4.1095   -4.0232    0.0000 H   0  0  0  0  0  0  0  0  0  0  0  0
    2.7065   -1.5932    0.0000 H   0  0  0  0  0  0  0  0  0  0  0  0
    2.7065   -3.2132    0.0000 H   0  0  0  0  0  0  0  0  0  0  0  0
  1  8  2  0  0  0  0
  1  9  2  0  0  0  0
  1 11  1  0  0  0  0
  1 35  1  0  0  0  0
  2 42  1  0  0  0  0
  2 44  1  0  0  0  0
  3 16  1  0  0  0  0
  3 19  1  0  0  0  0
  4 16  1  0  0  0  0
  4 20  1  0  0  0  0
 17  5  1  6  0  0  0
  5 22  1  0  0  0  0
 23  6  1  6  0  0  0
  6 78  1  0  0  0  0
  7 22  2  0  0  0  0
 21 10  1  6  0  0  0
 10 22  1  0  0  0  0
 10 60  1  0  0  0  0
 11 24  1  0  0  0  0
 11 30  1  0  0  0  0
 12 26  1  0  0  0  0
 12 27  1  0  0  0  0
 12 32  1  0  0  0  0
 13 34  1  0  0  0  0
 13 44  1  0  0  0  0
 13 90  1  0  0  0  0
 14 43  1  0  0  0  0
 14 44  2  0  0  0  0
 15 16  1  0  0  0  0
 15 17  1  0  0  0  0
 15 18  1  0  0  0  0
 15 49  1  1  0  0  0
 16 50  1  1  0  0  0
 17 19  1  0  0  0  0
 17 51  1  0  0  0  0
 18 20  1  0  0  0  0
 18 52  1  0  0  0  0
 18 53  1  0  0  0  0
 19 54  1  0  0  0  0
 19 55  1  0  0  0  0
 20 56  1  0  0  0  0
 20 57  1  0  0  0  0
 21 23  1  0  0  0  0
 21 25  1  0  0  0  0
 21 58  1  0  0  0  0
 23 24  1  0  0  0  0
 23 59  1  0  0  0  0
 24 61  1  0  0  0  0
 24 62  1  0  0  0  0
 25 33  1  0  0  0  0
 25 63  1  0  0  0  0
 25 64  1  0  0  0  0
 26 28  1  0  0  0  0
 26 65  1  0  0  0  0
 26 66  1  0  0  0  0
 27 29  1  0  0  0  0
 27 67  1  0  0  0  0
 27 68  1  0  0  0  0
 28 29  1  0  0  0  0
 28 69  1  0  0  0  0
 28 70  1  0  0  0  0
 29 71  1  0  0  0  0
 29 72  1  0  0  0  0
 30 31  1  0  0  0  0
 30 73  1  0  0  0  0
 30 74  1  0  0  0  0
 31 36  1  0  0  0  0
 31 37  1  0  0  0  0
 31 75  1  0  0  0  0
 32 34  1  0  0  0  0
 32 76  1  0  0  0  0
 32 77  1  0  0  0  0
 33 38  2  0  0  0  0
 33 39  1  0  0  0  0
 34 79  1  0  0  0  0
 34 80  1  0  0  0  0
 35 40  2  0  0  0  0
 35 41  1  0  0  0  0
 36 81  1  0  0  0  0
 36 82  1  0  0  0  0
 36 83  1  0  0  0  0
 37 84  1  0  0  0  0
 37 85  1  0  0  0  0
 37 86  1  0  0  0  0
 38 46  1  0  0  0  0
 38 87  1  0  0  0  0
 39 47  2  0  0  0  0
 39 88  1  0  0  0  0
 40 42  1  0  0  0  0
 40 89  1  0  0  0  0
 41 45  2  0  0  0  0
 41 91  1  0  0  0  0
 42 43  2  0  0  0  0
 43 45  1  0  0  0  0
 45 92  1  0  0  0  0
 46 48  2  0  0  0  0
 46 93  1  0  0  0  0
 47 48  1  0  0  0  0
 47 94  1  0  0  0  0
 48 95  1  0  0  0  0
M  END
> <PUBCHEM_COMPOUND_CID>
509608
> <PUBCHEM_COMPOUND_CANONICALIZED>
1
> <PUBCHEM_CACTVS_COMPLEXITY>
1130
> <PUBCHEM_CACTVS_HBOND_ACCEPTOR>
12
> <PUBCHEM_CACTVS_HBOND_DONOR>
3
> <PUBCHEM_CACTVS_ROTATABLE_BOND>
16
> <PUBCHEM_CACTVS_SUBSKEYS>
AAADcfB/uABgAAAAAAAAAAAAAAAAAWLEiQAwYAAAAAASAFgB9AAAHgQQSAAADTzx3gcz2bPIFgqsAyRifHDD8LlhCjlJmLw4ZJmbcKLg2ZG+YAhtlgLeyCfQ4KgOAAQAAEAAAQAACAAAgAACAAAAAAAAAA==
> <PUBCHEM_IUPAC_OPENEYE_NAME>
[(3aS,4R,6aR)-2,3,3a,4,5,6a-hexahydrofuro[2,3-b]furan-4-yl] N-[(1S,2R)-1-benzyl-2-hydroxy-3-[isobutyl-[[2-(2-pyrrolidin-1-ylethylamino)-1,3-benzothiazol-6-yl]sulfonyl]amino]propyl]carbamate
> <PUBCHEM_IUPAC_CAS_NAME>
N-[(2S,3R)-3-hydroxy-4-[2-methylpropyl-[[2-[2-(1-pyrrolidinyl)ethylamino]-1,3-benzothiazol-6-yl]sulfonyl]amino]-1-phenylbutan-2-yl]carbamic acid [(3aS,4R,6aR)-2,3,3a,4,5,6a-hexahydrofuro[2,3-b]furan-4-yl] ester
> <PUBCHEM_IUPAC_NAME_MARKUP>
[(3<I>a</I><I>S</I>,4<I>R</I>,6<I>a</I><I>R</I>)-2,3,3<I>a</I>,4,5,6<I>a</I>-hexahydrofuro[2,3-b]furan-4-yl] <I>N</I>-[(2<I>S</I>,3<I>R</I>)-3-hydroxy-4-[2-methylpropyl-[[2-(2-pyrrolidin-1-ylethylamino)-1,3-benzothiazol-6-yl]sulfonyl]amino]-1-phenylbutan-2-yl]carbamate
> <PUBCHEM_IUPAC_NAME>
[(3aS,4R,6aR)-2,3,3a,4,5,6a-hexahydrofuro[2,3-b]furan-4-yl] N-[(2S,3R)-3-hydroxy-4-[2-methylpropyl-[[2-(2-pyrrolidin-1-ylethylamino)-1,3-benzothiazol-6-yl]sulfonyl]amino]-1-phenylbutan-2-yl]carbamate
> <PUBCHEM_IUPAC_SYSTEMATIC_NAME>
[(3aS,4R,6aR)-2,3,3a,4,5,6a-hexahydrofuro[2,3-b]furan-4-yl] N-[(2S,3R)-4-[2-methylpropyl-[[2-(2-pyrrolidin-1-ylethylamino)-1,3-benzothiazol-6-yl]sulfonyl]amino]-3-oxidanyl-1-phenyl-butan-2-yl]carbamate
> <PUBCHEM_IUPAC_TRADITIONAL_NAME>
N-[(1S,2R)-1-benzyl-2-hydroxy-3-[isobutyl-[[2-(2-pyrrolidinoethylamino)-1,3-benzothiazol-6-yl]sulfonyl]amino]propyl]carbamic acid [(3aS,4R,6aR)-2,3,3a,4,5,6a-hexahydrofuro[2,3-b]furan-4-yl] ester
> <PUBCHEM_IUPAC_INCHI>
InChI=1S/C34H47N5O7S2/c1-23(2)20-39(48(42,43)25-10-11-27-31(19-25)47-33(36-27)35-13-16-38-14-6-7-15-38)21-29(40)28(18-24-8-4-3-5-9-24)37-34(41)46-30-22-45-32-26(30)12-17-44-32/h3-5,8-11,19,23,26,28-30,32,40H,6-7,12-18,20-22H2,1-2H3,(H,35,36)(H,37,41)/t26-,28-,29+,30-,32+/m0/s1
> <PUBCHEM_IUPAC_INCHIKEY>
ZCNACGKIKDEZFC-OFGMPYHFSA-N
> <PUBCHEM_XLOGP3_AA>
4.9
> <PUBCHEM_EXACT_MASS>
701.29169120
> <PUBCHEM_MOLECULAR_FORMULA>
C34H47N5O7S2
> <PUBCHEM_MOLECULAR_WEIGHT>
701.9
> <PUBCHEM_OPENEYE_CAN_SMILES>
CC(C)CN(CC(C(CC1=CC=CC=C1)NC(=O)OC2COC3C2CCO3)O)S(=O)(=O)C4=CC5=C(C=C4)N=C(S5)NCCN6CCCC6
> <PUBCHEM_OPENEYE_ISO_SMILES>
CC(C)CN(C[C@H]([C@H](CC1=CC=CC=C1)NC(=O)O[C@H]2CO[C@@H]3[C@H]2CCO3)O)S(=O)(=O)C4=CC5=C(C=C4)N=C(S5)NCCN6CCCC6
> <PUBCHEM_CACTVS_TPSA>
179
> <PUBCHEM_MONOISOTOPIC_WEIGHT>
701.29169120
> <PUBCHEM_TOTAL_CHARGE>
0
> <PUBCHEM_HEAVY_ATOM_COUNT>
48
> <PUBCHEM_ATOM_DEF_STEREO_COUNT>
5
> <PUBCHEM_ATOM_UDEF_STEREO_COUNT>
0
> <PUBCHEM_BOND_DEF_STEREO_COUNT>
0
> <PUBCHEM_BOND_UDEF_STEREO_COUNT>
0
> <PUBCHEM_ISOTOPIC_ATOM_COUNT>
0
> <PUBCHEM_COMPONENT_COUNT>
1
> <PUBCHEM_CACTVS_TAUTO_COUNT>
-1
> <PUBCHEM_COORDINATE_TYPE>
1
5
255
> <PUBCHEM_BONDANNOTATIONS>
21  10  6
14  43  8
14  44  8
15  49  5
16  50  5
2  42  8
2  44  8
33  38  8
33  39  8
35  40  8
35  41  8
38  46  8
39  47  8
40  42  8
41  45  8
42  43  8
43  45  8
46  48  8
47  48  8
17  5  6
23  6  6
$$$$
