509653
  -OEChem-10302200282D
 96100  0     1  0  0  0  0  0999 V2000
    9.7942   -1.0000    0.0000 S   0  0  0  0  0  0  0  0  0  0  0  0
   13.3385   -1.1953    0.0000 S   0  0  0  0  0  0  0  0  0  0  0  0
    7.1962    0.5000    0.0000 O   0  0  0  0  0  0  0  0  0  0  0  0
    9.2942   -1.8660    0.0000 O   0  0  0  0  0  0  0  0  0  0  0  0
   10.2942   -0.1340    0.0000 O   0  0  0  0  0  0  0  0  0  0  0  0
    4.5981    1.0000    0.0000 O   0  0  0  0  0  0  0  0  0  0  0  0
   14.9221   -3.7320    0.0000 O   0  0  0  0  0  0  0  0  0  0  0  0
    6.3301    1.0000    0.0000 O   0  0  0  0  0  0  0  0  0  0  0  0
   16.9221   -0.2679    0.0000 N   0  0  0  0  0  0  0  0  0  0  0  0
    8.9282   -0.5000    0.0000 N   0  0  3  0  0  0  0  0  0  0  0  0
   14.9221   -2.0000    0.0000 N   0  0  0  0  0  0  0  0  0  0  0  0
    5.4641   -0.5000    0.0000 N   0  0  0  0  0  0  0  0  0  0  0  0
   13.3385   -2.8047    0.0000 N   0  0  0  0  0  0  0  0  0  0  0  0
    2.0000    2.5000    0.0000 N   0  0  0  0  0  0  0  0  0  0  0  0
   17.9167   -0.1634    0.0000 C   0  0  0  0  0  0  0  0  0  0  0  0
   16.5154    0.6456    0.0000 C   0  0  0  0  0  0  0  0  0  0  0  0
   18.1246    0.8147    0.0000 C   0  0  0  0  0  0  0  0  0  0  0  0
   17.2585    1.3147    0.0000 C   0  0  0  0  0  0  0  0  0  0  0  0
   16.4221   -1.1340    0.0000 C   0  0  0  0  0  0  0  0  0  0  0  0
    7.1962   -0.5000    0.0000 C   0  0  2  0  0  0  0  0  0  0  0  0
    8.0622   -1.0000    0.0000 C   0  0  0  0  0  0  0  0  0  0  0  0
    6.3301   -1.0000    0.0000 C   0  0  2  0  0  0  0  0  0  0  0  0
    8.9282    0.5000    0.0000 C   0  0  0  0  0  0  0  0  0  0  0  0
   15.4221   -1.1340    0.0000 C   0  0  0  0  0  0  0  0  0  0  0  0
    9.7942    1.0000    0.0000 C   0  0  0  0  0  0  0  0  0  0  0  0
    6.3301   -2.0000    0.0000 C   0  0  0  0  0  0  0  0  0  0  0  0
   10.6603   -1.5000    0.0000 C   0  0  0  0  0  0  0  0  0  0  0  0
    9.7942    2.0000    0.0000 C   0  0  0  0  0  0  0  0  0  0  0  0
   10.6603    0.5000    0.0000 C   0  0  0  0  0  0  0  0  0  0  0  0
    5.4641   -2.5000    0.0000 C   0  0  0  0  0  0  0  0  0  0  0  0
   13.9221   -2.0000    0.0000 C   0  0  0  0  0  0  0  0  0  0  0  0
   11.5263   -1.0000    0.0000 C   0  0  0  0  0  0  0  0  0  0  0  0
   12.3923   -1.5000    0.0000 C   0  0  0  0  0  0  0  0  0  0  0  0
   10.6603   -2.5000    0.0000 C   0  0  0  0  0  0  0  0  0  0  0  0
   12.3923   -2.5000    0.0000 C   0  0  0  0  0  0  0  0  0  0  0  0
   15.4221   -2.8660    0.0000 C   0  0  0  0  0  0  0  0  0  0  0  0
   11.5263   -3.0000    0.0000 C   0  0  0  0  0  0  0  0  0  0  0  0
    5.4641    0.5000    0.0000 C   0  0  0  0  0  0  0  0  0  0  0  0
    5.4641   -3.5000    0.0000 C   0  0  0  0  0  0  0  0  0  0  0  0
    4.5981   -2.0000    0.0000 C   0  0  0  0  0  0  0  0  0  0  0  0
   16.4221   -2.8660    0.0000 C   0  0  0  0  0  0  0  0  0  0  0  0
    4.5981   -4.0000    0.0000 C   0  0  0  0  0  0  0  0  0  0  0  0
    3.7320   -2.5000    0.0000 C   0  0  0  0  0  0  0  0  0  0  0  0
    3.7320   -3.5000    0.0000 C   0  0  0  0  0  0  0  0  0  0  0  0
    4.5981    2.0000    0.0000 C   0  0  0  0  0  0  0  0  0  0  0  0
    3.7320    2.5000    0.0000 C   0  0  0  0  0  0  0  0  0  0  0  0
    3.7320    3.5000    0.0000 C   0  0  0  0  0  0  0  0  0  0  0  0
    2.8660    2.0000    0.0000 C   0  0  0  0  0  0  0  0  0  0  0  0
    2.8660    4.0000    0.0000 C   0  0  0  0  0  0  0  0  0  0  0  0
    2.0000    3.5000    0.0000 C   0  0  0  0  0  0  0  0  0  0  0  0
   17.9167   -0.7834    0.0000 H   0  0  0  0  0  0  0  0  0  0  0  0
   18.5333   -0.2282    0.0000 H   0  0  0  0  0  0  0  0  0  0  0  0
   16.1510    1.1472    0.0000 H   0  0  0  0  0  0  0  0  0  0  0  0
   15.9785    0.3356    0.0000 H   0  0  0  0  0  0  0  0  0  0  0  0
   18.7142    0.6231    0.0000 H   0  0  0  0  0  0  0  0  0  0  0  0
   18.3767    1.3811    0.0000 H   0  0  0  0  0  0  0  0  0  0  0  0
   17.6230    1.8163    0.0000 H   0  0  0  0  0  0  0  0  0  0  0  0
   16.7978    1.7296    0.0000 H   0  0  0  0  0  0  0  0  0  0  0  0
   16.3145   -1.7446    0.0000 H   0  0  0  0  0  0  0  0  0  0  0  0
   17.0047   -1.3460    0.0000 H   0  0  0  0  0  0  0  0  0  0  0  0
    6.6592   -0.1900    0.0000 H   0  0  0  0  0  0  0  0  0  0  0  0
    7.6636   -1.4750    0.0000 H   0  0  0  0  0  0  0  0  0  0  0  0
    8.4607   -1.4750    0.0000 H   0  0  0  0  0  0  0  0  0  0  0  0
    5.7932   -1.3100    0.0000 H   0  0  0  0  0  0  0  0  0  0  0  0
    8.7162    1.0826    0.0000 H   0  0  0  0  0  0  0  0  0  0  0  0
    8.3176    0.3923    0.0000 H   0  0  0  0  0  0  0  0  0  0  0  0
   15.5298   -0.5234    0.0000 H   0  0  0  0  0  0  0  0  0  0  0  0
   14.8395   -0.9219    0.0000 H   0  0  0  0  0  0  0  0  0  0  0  0
    9.2573    1.3100    0.0000 H   0  0  0  0  0  0  0  0  0  0  0  0
    6.5422   -2.5826    0.0000 H   0  0  0  0  0  0  0  0  0  0  0  0
    6.9407   -1.8923    0.0000 H   0  0  0  0  0  0  0  0  0  0  0  0
    4.9272   -0.8100    0.0000 H   0  0  0  0  0  0  0  0  0  0  0  0
   10.4142    2.0000    0.0000 H   0  0  0  0  0  0  0  0  0  0  0  0
    9.7942    2.6200    0.0000 H   0  0  0  0  0  0  0  0  0  0  0  0
    9.1742    2.0000    0.0000 H   0  0  0  0  0  0  0  0  0  0  0  0
   10.3503   -0.0369    0.0000 H   0  0  0  0  0  0  0  0  0  0  0  0
   11.1972    0.1900    0.0000 H   0  0  0  0  0  0  0  0  0  0  0  0
   10.9703    1.0369    0.0000 H   0  0  0  0  0  0  0  0  0  0  0  0
    7.7331    0.8100    0.0000 H   0  0  0  0  0  0  0  0  0  0  0  0
   11.5263   -0.3800    0.0000 H   0  0  0  0  0  0  0  0  0  0  0  0
   10.1233   -2.8100    0.0000 H   0  0  0  0  0  0  0  0  0  0  0  0
   11.5263   -3.6200    0.0000 H   0  0  0  0  0  0  0  0  0  0  0  0
    6.0010   -3.8100    0.0000 H   0  0  0  0  0  0  0  0  0  0  0  0
    4.5981   -1.3800    0.0000 H   0  0  0  0  0  0  0  0  0  0  0  0
   16.4221   -3.4860    0.0000 H   0  0  0  0  0  0  0  0  0  0  0  0
   17.0421   -2.8660    0.0000 H   0  0  0  0  0  0  0  0  0  0  0  0
   16.4221   -2.2460    0.0000 H   0  0  0  0  0  0  0  0  0  0  0  0
    4.5981   -4.6200    0.0000 H   0  0  0  0  0  0  0  0  0  0  0  0
    3.1951   -2.1900    0.0000 H   0  0  0  0  0  0  0  0  0  0  0  0
    3.1951   -3.8100    0.0000 H   0  0  0  0  0  0  0  0  0  0  0  0
    5.2087    1.8923    0.0000 H   0  0  0  0  0  0  0  0  0  0  0  0
    4.8101    2.5826    0.0000 H   0  0  0  0  0  0  0  0  0  0  0  0
    4.2690    3.8100    0.0000 H   0  0  0  0  0  0  0  0  0  0  0  0
    2.8660    1.3800    0.0000 H   0  0  0  0  0  0  0  0  0  0  0  0
    2.8660    4.6200    0.0000 H   0  0  0  0  0  0  0  0  0  0  0  0
    1.4631    3.8100    0.0000 H   0  0  0  0  0  0  0  0  0  0  0  0
  1  4  2  0  0  0  0
  1  5  2  0  0  0  0
  1 10  1  0  0  0  0
  1 27  1  0  0  0  0
  2 31  1  0  0  0  0
  2 33  1  0  0  0  0
 20  3  1  6  0  0  0
  3 79  1  0  0  0  0
  6 38  1  0  0  0  0
  6 45  1  0  0  0  0
  7 36  2  0  0  0  0
  8 38  2  0  0  0  0
  9 15  1  0  0  0  0
  9 16  1  0  0  0  0
  9 19  1  0  0  0  0
 10 21  1  0  0  0  0
 10 23  1  0  0  0  0
 11 24  1  0  0  0  0
 11 31  1  0  0  0  0
 11 36  1  0  0  0  0
 22 12  1  6  0  0  0
 12 38  1  0  0  0  0
 12 72  1  0  0  0  0
 13 31  2  0  0  0  0
 13 35  1  0  0  0  0
 14 48  1  0  0  0  0
 14 50  2  0  0  0  0
 15 17  1  0  0  0  0
 15 51  1  0  0  0  0
 15 52  1  0  0  0  0
 16 18  1  0  0  0  0
 16 53  1  0  0  0  0
 16 54  1  0  0  0  0
 17 18  1  0  0  0  0
 17 55  1  0  0  0  0
 17 56  1  0  0  0  0
 18 57  1  0  0  0  0
 18 58  1  0  0  0  0
 19 24  1  0  0  0  0
 19 59  1  0  0  0  0
 19 60  1  0  0  0  0
 20 21  1  0  0  0  0
 20 22  1  0  0  0  0
 20 61  1  0  0  0  0
 21 62  1  0  0  0  0
 21 63  1  0  0  0  0
 22 26  1  0  0  0  0
 22 64  1  0  0  0  0
 23 25  1  0  0  0  0
 23 65  1  0  0  0  0
 23 66  1  0  0  0  0
 24 67  1  0  0  0  0
 24 68  1  0  0  0  0
 25 28  1  0  0  0  0
 25 29  1  0  0  0  0
 25 69  1  0  0  0  0
 26 30  1  0  0  0  0
 26 70  1  0  0  0  0
 26 71  1  0  0  0  0
 27 32  2  0  0  0  0
 27 34  1  0  0  0  0
 28 73  1  0  0  0  0
 28 74  1  0  0  0  0
 28 75  1  0  0  0  0
 29 76  1  0  0  0  0
 29 77  1  0  0  0  0
 29 78  1  0  0  0  0
 30 39  2  0  0  0  0
 30 40  1  0  0  0  0
 32 33  1  0  0  0  0
 32 80  1  0  0  0  0
 33 35  2  0  0  0  0
 34 37  2  0  0  0  0
 34 81  1  0  0  0  0
 35 37  1  0  0  0  0
 36 41  1  0  0  0  0
 37 82  1  0  0  0  0
 39 42  1  0  0  0  0
 39 83  1  0  0  0  0
 40 43  2  0  0  0  0
 40 84  1  0  0  0  0
 41 85  1  0  0  0  0
 41 86  1  0  0  0  0
 41 87  1  0  0  0  0
 42 44  2  0  0  0  0
 42 88  1  0  0  0  0
 43 44  1  0  0  0  0
 43 89  1  0  0  0  0
 44 90  1  0  0  0  0
 45 46  1  0  0  0  0
 45 91  1  0  0  0  0
 45 92  1  0  0  0  0
 46 47  1  0  0  0  0
 46 48  2  0  0  0  0
 47 49  2  0  0  0  0
 47 93  1  0  0  0  0
 48 94  1  0  0  0  0
 49 50  1  0  0  0  0
 49 95  1  0  0  0  0
 50 96  1  0  0  0  0
M  END
> <PUBCHEM_COMPOUND_CID>
509653
> <PUBCHEM_COMPOUND_CANONICALIZED>
1
> <PUBCHEM_CACTVS_COMPLEXITY>
1180
> <PUBCHEM_CACTVS_HBOND_ACCEPTOR>
11
> <PUBCHEM_CACTVS_HBOND_DONOR>
2
> <PUBCHEM_CACTVS_ROTATABLE_BOND>
17
> <PUBCHEM_CACTVS_SUBSKEYS>
AAADcfB/uABgAAAAAAAAAAAAAAAAAWLAAAA8YIAAAAAAAFgB/AAAHgQQSAAADTzh3gY/2bPIFgqsAzV3fHDD8LlxCjhJ2Lw4bJmKduLg+ZmccAhu1wPY6CeQ0KIOAAQAAEAAAQAACAAAgAACAAAAAAAAAA==
> <PUBCHEM_IUPAC_OPENEYE_NAME>
3-pyridylmethyl N-[(1S,2R)-3-[[2-[acetyl(2-pyrrolidin-1-ylethyl)amino]-1,3-benzothiazol-6-yl]sulfonyl-isobutyl-amino]-1-benzyl-2-hydroxy-propyl]carbamate
> <PUBCHEM_IUPAC_CAS_NAME>
N-[(2S,3R)-4-[[2-[acetyl-[2-(1-pyrrolidinyl)ethyl]amino]-1,3-benzothiazol-6-yl]sulfonyl-(2-methylpropyl)amino]-3-hydroxy-1-phenylbutan-2-yl]carbamic acid 3-pyridinylmethyl ester
> <PUBCHEM_IUPAC_NAME_MARKUP>
pyridin-3-ylmethyl <I>N</I>-[(2<I>S</I>,3<I>R</I>)-4-[[2-[acetyl(2-pyrrolidin-1-ylethyl)amino]-1,3-benzothiazol-6-yl]sulfonyl-(2-methylpropyl)amino]-3-hydroxy-1-phenylbutan-2-yl]carbamate
> <PUBCHEM_IUPAC_NAME>
pyridin-3-ylmethyl N-[(2S,3R)-4-[[2-[acetyl(2-pyrrolidin-1-ylethyl)amino]-1,3-benzothiazol-6-yl]sulfonyl-(2-methylpropyl)amino]-3-hydroxy-1-phenylbutan-2-yl]carbamate
> <PUBCHEM_IUPAC_SYSTEMATIC_NAME>
pyridin-3-ylmethyl N-[(2S,3R)-4-[[2-[ethanoyl(2-pyrrolidin-1-ylethyl)amino]-1,3-benzothiazol-6-yl]sulfonyl-(2-methylpropyl)amino]-3-oxidanyl-1-phenyl-butan-2-yl]carbamate
> <PUBCHEM_IUPAC_TRADITIONAL_NAME>
N-[(1S,2R)-3-[[2-[acetyl(2-pyrrolidinoethyl)amino]-1,3-benzothiazol-6-yl]sulfonyl-isobutyl-amino]-1-benzyl-2-hydroxy-propyl]carbamic acid 3-pyridylmethyl ester
> <PUBCHEM_IUPAC_INCHI>
InChI=1S/C36H46N6O6S2/c1-26(2)23-41(24-33(44)32(20-28-10-5-4-6-11-28)39-36(45)48-25-29-12-9-15-37-22-29)50(46,47)30-13-14-31-34(21-30)49-35(38-31)42(27(3)43)19-18-40-16-7-8-17-40/h4-6,9-15,21-22,26,32-33,44H,7-8,16-20,23-25H2,1-3H3,(H,39,45)/t32-,33+/m0/s1
> <PUBCHEM_IUPAC_INCHIKEY>
DYVNBWNAUVRTSP-JHOUSYSJSA-N
> <PUBCHEM_XLOGP3_AA>
4.6
> <PUBCHEM_EXACT_MASS>
722.29202556
> <PUBCHEM_MOLECULAR_FORMULA>
C36H46N6O6S2
> <PUBCHEM_MOLECULAR_WEIGHT>
722.9
> <PUBCHEM_OPENEYE_CAN_SMILES>
CC(C)CN(CC(C(CC1=CC=CC=C1)NC(=O)OCC2=CN=CC=C2)O)S(=O)(=O)C3=CC4=C(C=C3)N=C(S4)N(CCN5CCCC5)C(=O)C
> <PUBCHEM_OPENEYE_ISO_SMILES>
CC(C)CN(C[C@H]([C@H](CC1=CC=CC=C1)NC(=O)OCC2=CN=CC=C2)O)S(=O)(=O)C3=CC4=C(C=C3)N=C(S4)N(CCN5CCCC5)C(=O)C
> <PUBCHEM_CACTVS_TPSA>
182
> <PUBCHEM_MONOISOTOPIC_WEIGHT>
722.29202556
> <PUBCHEM_TOTAL_CHARGE>
0
> <PUBCHEM_HEAVY_ATOM_COUNT>
50
> <PUBCHEM_ATOM_DEF_STEREO_COUNT>
2
> <PUBCHEM_ATOM_UDEF_STEREO_COUNT>
0
> <PUBCHEM_BOND_DEF_STEREO_COUNT>
0
> <PUBCHEM_BOND_UDEF_STEREO_COUNT>
0
> <PUBCHEM_ISOTOPIC_ATOM_COUNT>
0
> <PUBCHEM_COMPONENT_COUNT>
1
> <PUBCHEM_CACTVS_TAUTO_COUNT>
-1
> <PUBCHEM_COORDINATE_TYPE>
1
5
255
> <PUBCHEM_BONDANNOTATIONS>
22  12  6
13  31  8
13  35  8
14  48  8
14  50  8
2  31  8
2  33  8
27  32  8
27  34  8
20  3  6
30  39  8
30  40  8
32  33  8
33  35  8
34  37  8
35  37  8
39  42  8
40  43  8
42  44  8
43  44  8
46  47  8
46  48  8
47  49  8
49  50  8
$$$$
