509617
  -OEChem-10302200282D
 87 92  0     1  0  0  0  0  0999 V2000
    8.9282    0.2974    0.0000 S   0  0  0  0  0  0  0  0  0  0  0  0
   12.4725    0.1022    0.0000 S   0  0  0  0  0  0  0  0  0  0  0  0
    3.8814   -3.0390    0.0000 O   0  0  0  0  0  0  0  0  0  0  0  0
    4.2801   -4.8939    0.0000 O   0  0  0  0  0  0  0  0  0  0  0  0
    6.3301   -2.2026    0.0000 O   0  0  0  0  0  0  0  0  0  0  0  0
    6.3301    1.7974    0.0000 O   0  0  0  0  0  0  0  0  0  0  0  0
    7.1962   -0.7026    0.0000 O   0  0  0  0  0  0  0  0  0  0  0  0
    8.4282   -0.5686    0.0000 O   0  0  0  0  0  0  0  0  0  0  0  0
    9.4282    1.1635    0.0000 O   0  0  0  0  0  0  0  0  0  0  0  0
   14.0561   -2.4346    0.0000 O   0  0  0  0  0  0  0  0  0  0  0  0
    5.4641   -0.7026    0.0000 N   0  0  0  0  0  0  0  0  0  0  0  0
    8.0622    0.7974    0.0000 N   0  0  3  0  0  0  0  0  0  0  0  0
    7.1962    3.2974    0.0000 N   0  0  0  0  0  0  0  0  0  0  0  0
   12.4725   -1.5073    0.0000 N   0  0  0  0  0  0  0  0  0  0  0  0
    5.4641    3.2974    0.0000 N   0  0  0  0  0  0  0  0  0  0  0  0
   14.0561   -0.7026    0.0000 N   0  0  0  0  0  0  0  0  0  0  0  0
    5.3596   -3.6971    0.0000 C   0  0  2  0  0  0  0  0  0  0  0  0
    4.3814   -3.9050    0.0000 C   0  0  1  0  0  0  0  0  0  0  0  0
    5.4641   -2.7026    0.0000 C   0  0  2  0  0  0  0  0  0  0  0  0
    5.8544   -4.5593    0.0000 C   0  0  0  0  0  0  0  0  0  0  0  0
    4.5506   -2.2958    0.0000 C   0  0  0  0  0  0  0  0  0  0  0  0
    5.1886   -5.2974    0.0000 C   0  0  0  0  0  0  0  0  0  0  0  0
    5.4641    0.2974    0.0000 C   0  0  2  0  0  0  0  0  0  0  0  0
    6.3301   -1.2026    0.0000 C   0  0  0  0  0  0  0  0  0  0  0  0
    6.3301    0.7974    0.0000 C   0  0  1  0  0  0  0  0  0  0  0  0
    7.1962    0.2974    0.0000 C   0  0  0  0  0  0  0  0  0  0  0  0
    4.5981    0.7974    0.0000 C   0  0  0  0  0  0  0  0  0  0  0  0
    8.0622    1.7974    0.0000 C   0  0  0  0  0  0  0  0  0  0  0  0
    3.7320    0.2974    0.0000 C   0  0  0  0  0  0  0  0  0  0  0  0
    7.1962    2.2974    0.0000 C   0  0  0  0  0  0  0  0  0  0  0  0
    9.7942   -0.2026    0.0000 C   0  0  0  0  0  0  0  0  0  0  0  0
    3.7320   -0.7026    0.0000 C   0  0  0  0  0  0  0  0  0  0  0  0
    2.8660    0.7974    0.0000 C   0  0  0  0  0  0  0  0  0  0  0  0
   10.6603    0.2974    0.0000 C   0  0  0  0  0  0  0  0  0  0  0  0
    9.7942   -1.2026    0.0000 C   0  0  0  0  0  0  0  0  0  0  0  0
    2.8660   -1.2026    0.0000 C   0  0  0  0  0  0  0  0  0  0  0  0
    2.0000    0.2974    0.0000 C   0  0  0  0  0  0  0  0  0  0  0  0
   11.5263   -0.2026    0.0000 C   0  0  0  0  0  0  0  0  0  0  0  0
    2.0000   -0.7026    0.0000 C   0  0  0  0  0  0  0  0  0  0  0  0
   10.6603   -1.7026    0.0000 C   0  0  0  0  0  0  0  0  0  0  0  0
   11.5263   -1.2026    0.0000 C   0  0  0  0  0  0  0  0  0  0  0  0
    6.3301    3.7974    0.0000 C   0  0  0  0  0  0  0  0  0  0  0  0
   13.0561   -0.7026    0.0000 C   0  0  0  0  0  0  0  0  0  0  0  0
    6.3301    4.7974    0.0000 C   0  0  0  0  0  0  0  0  0  0  0  0
    5.4641    5.2974    0.0000 C   0  0  0  0  0  0  0  0  0  0  0  0
    4.5981    3.7974    0.0000 C   0  0  0  0  0  0  0  0  0  0  0  0
    4.5981    4.7974    0.0000 C   0  0  0  0  0  0  0  0  0  0  0  0
   14.5561   -1.5686    0.0000 C   0  0  0  0  0  0  0  0  0  0  0  0
   15.5561   -1.5686    0.0000 C   0  0  0  0  0  0  0  0  0  0  0  0
    6.1912   -3.5214    0.0000 H   0  0  0  0  0  0  0  0  0  0  0  0
    3.5502   -4.0828    0.0000 H   0  0  0  0  0  0  0  0  0  0  0  0
    5.4316   -2.0834    0.0000 H   0  0  0  0  0  0  0  0  0  0  0  0
    6.2686   -5.0206    0.0000 H   0  0  0  0  0  0  0  0  0  0  0  0
    6.3567   -4.1959    0.0000 H   0  0  0  0  0  0  0  0  0  0  0  0
    4.8606   -1.7589    0.0000 H   0  0  0  0  0  0  0  0  0  0  0  0
    4.0490   -1.9314    0.0000 H   0  0  0  0  0  0  0  0  0  0  0  0
    4.8787   -5.8345    0.0000 H   0  0  0  0  0  0  0  0  0  0  0  0
    5.6900   -5.6620    0.0000 H   0  0  0  0  0  0  0  0  0  0  0  0
    6.0010   -0.0126    0.0000 H   0  0  0  0  0  0  0  0  0  0  0  0
    6.8671    1.1074    0.0000 H   0  0  0  0  0  0  0  0  0  0  0  0
    4.9272   -1.0126    0.0000 H   0  0  0  0  0  0  0  0  0  0  0  0
    6.7976   -0.1775    0.0000 H   0  0  0  0  0  0  0  0  0  0  0  0
    7.5947   -0.1775    0.0000 H   0  0  0  0  0  0  0  0  0  0  0  0
    4.9966    1.2724    0.0000 H   0  0  0  0  0  0  0  0  0  0  0  0
    4.1996    1.2724    0.0000 H   0  0  0  0  0  0  0  0  0  0  0  0
    8.6728    1.6898    0.0000 H   0  0  0  0  0  0  0  0  0  0  0  0
    8.2742    2.3801    0.0000 H   0  0  0  0  0  0  0  0  0  0  0  0
    5.7932    2.1074    0.0000 H   0  0  0  0  0  0  0  0  0  0  0  0
    6.5856    2.4051    0.0000 H   0  0  0  0  0  0  0  0  0  0  0  0
    6.9841    1.7148    0.0000 H   0  0  0  0  0  0  0  0  0  0  0  0
    4.2690   -1.0126    0.0000 H   0  0  0  0  0  0  0  0  0  0  0  0
    2.8660    1.4174    0.0000 H   0  0  0  0  0  0  0  0  0  0  0  0
   10.6603    0.9174    0.0000 H   0  0  0  0  0  0  0  0  0  0  0  0
    9.2573   -1.5126    0.0000 H   0  0  0  0  0  0  0  0  0  0  0  0
    7.7331    3.6074    0.0000 H   0  0  0  0  0  0  0  0  0  0  0  0
    2.8660   -1.8226    0.0000 H   0  0  0  0  0  0  0  0  0  0  0  0
    1.4631    0.6074    0.0000 H   0  0  0  0  0  0  0  0  0  0  0  0
    1.4631   -1.0126    0.0000 H   0  0  0  0  0  0  0  0  0  0  0  0
   10.6603   -2.3226    0.0000 H   0  0  0  0  0  0  0  0  0  0  0  0
    6.8671    5.1074    0.0000 H   0  0  0  0  0  0  0  0  0  0  0  0
    5.4641    5.9174    0.0000 H   0  0  0  0  0  0  0  0  0  0  0  0
   14.3661   -0.1656    0.0000 H   0  0  0  0  0  0  0  0  0  0  0  0
    4.0611    3.4874    0.0000 H   0  0  0  0  0  0  0  0  0  0  0  0
    4.0611    5.1074    0.0000 H   0  0  0  0  0  0  0  0  0  0  0  0
   15.5561   -2.1886    0.0000 H   0  0  0  0  0  0  0  0  0  0  0  0
   16.1761   -1.5686    0.0000 H   0  0  0  0  0  0  0  0  0  0  0  0
   15.5561   -0.9486    0.0000 H   0  0  0  0  0  0  0  0  0  0  0  0
  1  8  2  0  0  0  0
  1  9  2  0  0  0  0
  1 12  1  0  0  0  0
  1 31  1  0  0  0  0
  2 38  1  0  0  0  0
  2 43  1  0  0  0  0
  3 18  1  0  0  0  0
  3 21  1  0  0  0  0
  4 18  1  0  0  0  0
  4 22  1  0  0  0  0
 19  5  1  6  0  0  0
  5 24  1  0  0  0  0
 25  6  1  6  0  0  0
  6 68  1  0  0  0  0
  7 24  2  0  0  0  0
 10 48  2  0  0  0  0
 23 11  1  1  0  0  0
 11 24  1  0  0  0  0
 11 61  1  0  0  0  0
 12 26  1  0  0  0  0
 12 28  1  0  0  0  0
 13 30  1  0  0  0  0
 13 42  1  0  0  0  0
 13 75  1  0  0  0  0
 14 41  1  0  0  0  0
 14 43  2  0  0  0  0
 15 42  1  0  0  0  0
 15 46  2  0  0  0  0
 16 43  1  0  0  0  0
 16 48  1  0  0  0  0
 16 82  1  0  0  0  0
 17 18  1  0  0  0  0
 17 19  1  0  0  0  0
 17 20  1  0  0  0  0
 17 50  1  1  0  0  0
 18 51  1  1  0  0  0
 19 21  1  0  0  0  0
 19 52  1  0  0  0  0
 20 22  1  0  0  0  0
 20 53  1  0  0  0  0
 20 54  1  0  0  0  0
 21 55  1  0  0  0  0
 21 56  1  0  0  0  0
 22 57  1  0  0  0  0
 22 58  1  0  0  0  0
 23 25  1  0  0  0  0
 23 27  1  0  0  0  0
 23 59  1  0  0  0  0
 25 26  1  0  0  0  0
 25 60  1  0  0  0  0
 26 62  1  0  0  0  0
 26 63  1  0  0  0  0
 27 29  1  0  0  0  0
 27 64  1  0  0  0  0
 27 65  1  0  0  0  0
 28 30  1  0  0  0  0
 28 66  1  0  0  0  0
 28 67  1  0  0  0  0
 29 32  2  0  0  0  0
 29 33  1  0  0  0  0
 30 69  1  0  0  0  0
 30 70  1  0  0  0  0
 31 34  2  0  0  0  0
 31 35  1  0  0  0  0
 32 36  1  0  0  0  0
 32 71  1  0  0  0  0
 33 37  2  0  0  0  0
 33 72  1  0  0  0  0
 34 38  1  0  0  0  0
 34 73  1  0  0  0  0
 35 40  2  0  0  0  0
 35 74  1  0  0  0  0
 36 39  2  0  0  0  0
 36 76  1  0  0  0  0
 37 39  1  0  0  0  0
 37 77  1  0  0  0  0
 38 41  2  0  0  0  0
 39 78  1  0  0  0  0
 40 41  1  0  0  0  0
 40 79  1  0  0  0  0
 42 44  2  0  0  0  0
 44 45  1  0  0  0  0
 44 80  1  0  0  0  0
 45 47  2  0  0  0  0
 45 81  1  0  0  0  0
 46 47  1  0  0  0  0
 46 83  1  0  0  0  0
 47 84  1  0  0  0  0
 48 49  1  0  0  0  0
 49 85  1  0  0  0  0
 49 86  1  0  0  0  0
 49 87  1  0  0  0  0
M  END
> <PUBCHEM_COMPOUND_CID>
509617
> <PUBCHEM_COMPOUND_CANONICALIZED>
1
> <PUBCHEM_CACTVS_COMPLEXITY>
1210
> <PUBCHEM_CACTVS_HBOND_ACCEPTOR>
13
> <PUBCHEM_CACTVS_HBOND_DONOR>
4
> <PUBCHEM_CACTVS_ROTATABLE_BOND>
15
> <PUBCHEM_CACTVS_SUBSKEYS>
AAADcfB/vABgAAAAAAAAAAAAAAAAAWJEgAA8YIAAAAASAFgB/AAAHgQQSAAADTzx3gc/+bLIFgqsAzd3fHDD8LlxCjlJ2Lw4ZJmbcOLg2ZG+YAhtlwLeyCfQ4KgOAAQAAEAAAQAACAAAgAACAAAAAAAAAA==
> <PUBCHEM_IUPAC_OPENEYE_NAME>
[(3aS,4R,6aR)-2,3,3a,4,5,6a-hexahydrofuro[2,3-b]furan-4-yl] N-[(1S,2R)-3-[(2-acetamido-1,3-benzothiazol-6-yl)sulfonyl-[2-(2-pyridylamino)ethyl]amino]-1-benzyl-2-hydroxy-propyl]carbamate
> <PUBCHEM_IUPAC_CAS_NAME>
N-[(2S,3R)-4-[(2-acetamido-1,3-benzothiazol-6-yl)sulfonyl-[2-(2-pyridinylamino)ethyl]amino]-3-hydroxy-1-phenylbutan-2-yl]carbamic acid [(3aS,4R,6aR)-2,3,3a,4,5,6a-hexahydrofuro[2,3-b]furan-4-yl] ester
> <PUBCHEM_IUPAC_NAME_MARKUP>
[(3<I>a</I><I>S</I>,4<I>R</I>,6<I>a</I><I>R</I>)-2,3,3<I>a</I>,4,5,6<I>a</I>-hexahydrofuro[2,3-b]furan-4-yl] <I>N</I>-[(2<I>S</I>,3<I>R</I>)-4-[(2-acetamido-1,3-benzothiazol-6-yl)sulfonyl-[2-(pyridin-2-ylamino)ethyl]amino]-3-hydroxy-1-phenylbutan-2-yl]carbamate
> <PUBCHEM_IUPAC_NAME>
[(3aS,4R,6aR)-2,3,3a,4,5,6a-hexahydrofuro[2,3-b]furan-4-yl] N-[(2S,3R)-4-[(2-acetamido-1,3-benzothiazol-6-yl)sulfonyl-[2-(pyridin-2-ylamino)ethyl]amino]-3-hydroxy-1-phenylbutan-2-yl]carbamate
> <PUBCHEM_IUPAC_SYSTEMATIC_NAME>
[(3aS,4R,6aR)-2,3,3a,4,5,6a-hexahydrofuro[2,3-b]furan-4-yl] N-[(2S,3R)-4-[(2-acetamido-1,3-benzothiazol-6-yl)sulfonyl-[2-(pyridin-2-ylamino)ethyl]amino]-3-oxidanyl-1-phenyl-butan-2-yl]carbamate
> <PUBCHEM_IUPAC_TRADITIONAL_NAME>
N-[(1S,2R)-3-[(2-acetamido-1,3-benzothiazol-6-yl)sulfonyl-[2-(2-pyridylamino)ethyl]amino]-1-benzyl-2-hydroxy-propyl]carbamic acid [(3aS,4R,6aR)-2,3,3a,4,5,6a-hexahydrofuro[2,3-b]furan-4-yl] ester
> <PUBCHEM_IUPAC_INCHI>
InChI=1S/C33H38N6O8S2/c1-21(40)36-32-37-25-11-10-23(18-29(25)48-32)49(43,44)39(15-14-35-30-9-5-6-13-34-30)19-27(41)26(17-22-7-3-2-4-8-22)38-33(42)47-28-20-46-31-24(28)12-16-45-31/h2-11,13,18,24,26-28,31,41H,12,14-17,19-20H2,1H3,(H,34,35)(H,38,42)(H,36,37,40)/t24-,26-,27+,28-,31+/m0/s1
> <PUBCHEM_IUPAC_INCHIKEY>
BKAMWMMZEJPVIZ-WUPSDHEXSA-N
> <PUBCHEM_XLOGP3_AA>
3.2
> <PUBCHEM_EXACT_MASS>
710.21925454
> <PUBCHEM_MOLECULAR_FORMULA>
C33H38N6O8S2
> <PUBCHEM_MOLECULAR_WEIGHT>
710.8
> <PUBCHEM_OPENEYE_CAN_SMILES>
CC(=O)NC1=NC2=C(S1)C=C(C=C2)S(=O)(=O)N(CCNC3=CC=CC=N3)CC(C(CC4=CC=CC=C4)NC(=O)OC5COC6C5CCO6)O
> <PUBCHEM_OPENEYE_ISO_SMILES>
CC(=O)NC1=NC2=C(S1)C=C(C=C2)S(=O)(=O)N(CCNC3=CC=CC=N3)C[C@H]([C@H](CC4=CC=CC=C4)NC(=O)O[C@H]5CO[C@@H]6[C@H]5CCO6)O
> <PUBCHEM_CACTVS_TPSA>
218
> <PUBCHEM_MONOISOTOPIC_WEIGHT>
710.21925454
> <PUBCHEM_TOTAL_CHARGE>
0
> <PUBCHEM_HEAVY_ATOM_COUNT>
49
> <PUBCHEM_ATOM_DEF_STEREO_COUNT>
5
> <PUBCHEM_ATOM_UDEF_STEREO_COUNT>
0
> <PUBCHEM_BOND_DEF_STEREO_COUNT>
0
> <PUBCHEM_BOND_UDEF_STEREO_COUNT>
0
> <PUBCHEM_ISOTOPIC_ATOM_COUNT>
0
> <PUBCHEM_COMPONENT_COUNT>
1
> <PUBCHEM_CACTVS_TAUTO_COUNT>
-1
> <PUBCHEM_COORDINATE_TYPE>
1
5
255
> <PUBCHEM_BONDANNOTATIONS>
23  11  5
14  41  8
14  43  8
15  42  8
15  46  8
17  50  5
18  51  5
2  38  8
2  43  8
29  32  8
29  33  8
31  34  8
31  35  8
32  36  8
33  37  8
34  38  8
35  40  8
36  39  8
37  39  8
38  41  8
40  41  8
42  44  8
44  45  8
45  47  8
46  47  8
19  5  6
25  6  6
$$$$
