509689
  -OEChem-10302200282D
 85 88  0     1  0  0  0  0  0999 V2000
    8.1962   -0.5000    0.0000 S   0  0  0  0  0  0  0  0  0  0  0  0
   11.7404   -0.6953    0.0000 S   0  0  0  0  0  0  0  0  0  0  0  0
    5.5981    1.0000    0.0000 O   0  0  0  0  0  0  0  0  0  0  0  0
    7.6962   -1.3660    0.0000 O   0  0  0  0  0  0  0  0  0  0  0  0
    8.6962    0.3660    0.0000 O   0  0  0  0  0  0  0  0  0  0  0  0
    3.0000    1.5000    0.0000 O   0  0  0  0  0  0  0  0  0  0  0  0
    4.7320    1.5000    0.0000 O   0  0  0  0  0  0  0  0  0  0  0  0
    7.3301    0.0000    0.0000 N   0  0  3  0  0  0  0  0  0  0  0  0
    3.8660    0.0000    0.0000 N   0  0  0  0  0  0  0  0  0  0  0  0
   11.7404   -2.3047    0.0000 N   0  0  0  0  0  0  0  0  0  0  0  0
   13.3241   -1.5000    0.0000 N   0  0  0  0  0  0  0  0  0  0  0  0
   16.8241   -2.3660    0.0000 N   0  0  0  0  0  0  0  0  0  0  0  0
    5.5981    0.0000    0.0000 C   0  0  2  0  0  0  0  0  0  0  0  0
    6.4641   -0.5000    0.0000 C   0  0  0  0  0  0  0  0  0  0  0  0
    4.7320   -0.5000    0.0000 C   0  0  2  0  0  0  0  0  0  0  0  0
    7.3301    1.0000    0.0000 C   0  0  0  0  0  0  0  0  0  0  0  0
    8.1962    1.5000    0.0000 C   0  0  0  0  0  0  0  0  0  0  0  0
    4.7320   -1.5000    0.0000 C   0  0  0  0  0  0  0  0  0  0  0  0
    9.0622   -1.0000    0.0000 C   0  0  0  0  0  0  0  0  0  0  0  0
    3.8660   -2.0000    0.0000 C   0  0  0  0  0  0  0  0  0  0  0  0
    8.1962    2.5000    0.0000 C   0  0  0  0  0  0  0  0  0  0  0  0
    9.0622    1.0000    0.0000 C   0  0  0  0  0  0  0  0  0  0  0  0
    3.8660    1.0000    0.0000 C   0  0  0  0  0  0  0  0  0  0  0  0
    9.9282   -0.5000    0.0000 C   0  0  0  0  0  0  0  0  0  0  0  0
    9.0622   -2.0000    0.0000 C   0  0  0  0  0  0  0  0  0  0  0  0
    3.8660   -3.0000    0.0000 C   0  0  0  0  0  0  0  0  0  0  0  0
    3.0000   -1.5000    0.0000 C   0  0  0  0  0  0  0  0  0  0  0  0
    3.0000    2.5000    0.0000 C   0  0  0  0  0  0  0  0  0  0  0  0
   10.7942   -1.0000    0.0000 C   0  0  0  0  0  0  0  0  0  0  0  0
    9.9282   -2.5000    0.0000 C   0  0  0  0  0  0  0  0  0  0  0  0
   10.7942   -2.0000    0.0000 C   0  0  0  0  0  0  0  0  0  0  0  0
    3.0000   -3.5000    0.0000 C   0  0  0  0  0  0  0  0  0  0  0  0
    2.1340   -2.0000    0.0000 C   0  0  0  0  0  0  0  0  0  0  0  0
    3.0000    3.5000    0.0000 C   0  0  0  0  0  0  0  0  0  0  0  0
    2.0000    2.5000    0.0000 C   0  0  0  0  0  0  0  0  0  0  0  0
    4.0000    2.5000    0.0000 C   0  0  0  0  0  0  0  0  0  0  0  0
    2.1340   -3.0000    0.0000 C   0  0  0  0  0  0  0  0  0  0  0  0
   12.3241   -1.5000    0.0000 C   0  0  0  0  0  0  0  0  0  0  0  0
   13.8241   -2.3660    0.0000 C   0  0  0  0  0  0  0  0  0  0  0  0
   14.8241   -2.3660    0.0000 C   0  0  0  0  0  0  0  0  0  0  0  0
   15.3241   -1.5000    0.0000 C   0  0  0  0  0  0  0  0  0  0  0  0
   15.3241   -3.2320    0.0000 C   0  0  0  0  0  0  0  0  0  0  0  0
   16.3241   -1.5000    0.0000 C   0  0  0  0  0  0  0  0  0  0  0  0
   16.3241   -3.2320    0.0000 C   0  0  0  0  0  0  0  0  0  0  0  0
    6.1350    0.3100    0.0000 H   0  0  0  0  0  0  0  0  0  0  0  0
    6.0656   -0.9749    0.0000 H   0  0  0  0  0  0  0  0  0  0  0  0
    6.8626   -0.9749    0.0000 H   0  0  0  0  0  0  0  0  0  0  0  0
    4.7320    0.1200    0.0000 H   0  0  0  0  0  0  0  0  0  0  0  0
    7.1181    1.5826    0.0000 H   0  0  0  0  0  0  0  0  0  0  0  0
    6.7196    0.8923    0.0000 H   0  0  0  0  0  0  0  0  0  0  0  0
    8.7331    1.8100    0.0000 H   0  0  0  0  0  0  0  0  0  0  0  0
    4.9441   -2.0826    0.0000 H   0  0  0  0  0  0  0  0  0  0  0  0
    5.3426   -1.3923    0.0000 H   0  0  0  0  0  0  0  0  0  0  0  0
    3.3291   -0.3100    0.0000 H   0  0  0  0  0  0  0  0  0  0  0  0
    8.8162    2.5000    0.0000 H   0  0  0  0  0  0  0  0  0  0  0  0
    8.1962    3.1200    0.0000 H   0  0  0  0  0  0  0  0  0  0  0  0
    7.5762    2.5000    0.0000 H   0  0  0  0  0  0  0  0  0  0  0  0
    8.7522    0.4631    0.0000 H   0  0  0  0  0  0  0  0  0  0  0  0
    9.5991    0.6900    0.0000 H   0  0  0  0  0  0  0  0  0  0  0  0
    9.3722    1.5369    0.0000 H   0  0  0  0  0  0  0  0  0  0  0  0
    6.1350    1.3100    0.0000 H   0  0  0  0  0  0  0  0  0  0  0  0
    9.9282    0.1200    0.0000 H   0  0  0  0  0  0  0  0  0  0  0  0
    8.5252   -2.3100    0.0000 H   0  0  0  0  0  0  0  0  0  0  0  0
    4.4030   -3.3100    0.0000 H   0  0  0  0  0  0  0  0  0  0  0  0
    3.0000   -0.8800    0.0000 H   0  0  0  0  0  0  0  0  0  0  0  0
    9.9282   -3.1200    0.0000 H   0  0  0  0  0  0  0  0  0  0  0  0
    3.0000   -4.1200    0.0000 H   0  0  0  0  0  0  0  0  0  0  0  0
    1.5970   -1.6900    0.0000 H   0  0  0  0  0  0  0  0  0  0  0  0
    3.6200    3.5000    0.0000 H   0  0  0  0  0  0  0  0  0  0  0  0
    3.0000    4.1200    0.0000 H   0  0  0  0  0  0  0  0  0  0  0  0
    2.3800    3.5000    0.0000 H   0  0  0  0  0  0  0  0  0  0  0  0
    2.0000    3.1200    0.0000 H   0  0  0  0  0  0  0  0  0  0  0  0
    1.3800    2.5000    0.0000 H   0  0  0  0  0  0  0  0  0  0  0  0
    2.0000    1.8800    0.0000 H   0  0  0  0  0  0  0  0  0  0  0  0
    4.0000    1.8800    0.0000 H   0  0  0  0  0  0  0  0  0  0  0  0
    4.6200    2.5000    0.0000 H   0  0  0  0  0  0  0  0  0  0  0  0
    4.0000    3.1200    0.0000 H   0  0  0  0  0  0  0  0  0  0  0  0
    1.5970   -3.3100    0.0000 H   0  0  0  0  0  0  0  0  0  0  0  0
   13.6341   -0.9631    0.0000 H   0  0  0  0  0  0  0  0  0  0  0  0
   13.2414   -2.5781    0.0000 H   0  0  0  0  0  0  0  0  0  0  0  0
   13.9317   -2.9766    0.0000 H   0  0  0  0  0  0  0  0  0  0  0  0
   15.0141   -0.9631    0.0000 H   0  0  0  0  0  0  0  0  0  0  0  0
   15.0141   -3.7690    0.0000 H   0  0  0  0  0  0  0  0  0  0  0  0
   16.6341   -0.9631    0.0000 H   0  0  0  0  0  0  0  0  0  0  0  0
   16.6341   -3.7690    0.0000 H   0  0  0  0  0  0  0  0  0  0  0  0
  1  4  2  0  0  0  0
  1  5  2  0  0  0  0
  1  8  1  0  0  0  0
  1 19  1  0  0  0  0
  2 29  1  0  0  0  0
  2 38  1  0  0  0  0
 13  3  1  6  0  0  0
  3 61  1  0  0  0  0
  6 23  1  0  0  0  0
  6 28  1  0  0  0  0
  7 23  2  0  0  0  0
  8 14  1  0  0  0  0
  8 16  1  0  0  0  0
 15  9  1  6  0  0  0
  9 23  1  0  0  0  0
  9 54  1  0  0  0  0
 10 31  1  0  0  0  0
 10 38  2  0  0  0  0
 11 38  1  0  0  0  0
 11 39  1  0  0  0  0
 11 79  1  0  0  0  0
 12 43  2  0  0  0  0
 12 44  1  0  0  0  0
 13 14  1  0  0  0  0
 13 15  1  0  0  0  0
 13 45  1  0  0  0  0
 14 46  1  0  0  0  0
 14 47  1  0  0  0  0
 15 18  1  0  0  0  0
 15 48  1  0  0  0  0
 16 17  1  0  0  0  0
 16 49  1  0  0  0  0
 16 50  1  0  0  0  0
 17 21  1  0  0  0  0
 17 22  1  0  0  0  0
 17 51  1  0  0  0  0
 18 20  1  0  0  0  0
 18 52  1  0  0  0  0
 18 53  1  0  0  0  0
 19 24  2  0  0  0  0
 19 25  1  0  0  0  0
 20 26  2  0  0  0  0
 20 27  1  0  0  0  0
 21 55  1  0  0  0  0
 21 56  1  0  0  0  0
 21 57  1  0  0  0  0
 22 58  1  0  0  0  0
 22 59  1  0  0  0  0
 22 60  1  0  0  0  0
 24 29  1  0  0  0  0
 24 62  1  0  0  0  0
 25 30  2  0  0  0  0
 25 63  1  0  0  0  0
 26 32  1  0  0  0  0
 26 64  1  0  0  0  0
 27 33  2  0  0  0  0
 27 65  1  0  0  0  0
 28 34  1  0  0  0  0
 28 35  1  0  0  0  0
 28 36  1  0  0  0  0
 29 31  2  0  0  0  0
 30 31  1  0  0  0  0
 30 66  1  0  0  0  0
 32 37  2  0  0  0  0
 32 67  1  0  0  0  0
 33 37  1  0  0  0  0
 33 68  1  0  0  0  0
 34 69  1  0  0  0  0
 34 70  1  0  0  0  0
 34 71  1  0  0  0  0
 35 72  1  0  0  0  0
 35 73  1  0  0  0  0
 35 74  1  0  0  0  0
 36 75  1  0  0  0  0
 36 76  1  0  0  0  0
 36 77  1  0  0  0  0
 37 78  1  0  0  0  0
 39 40  1  0  0  0  0
 39 80  1  0  0  0  0
 39 81  1  0  0  0  0
 40 41  2  0  0  0  0
 40 42  1  0  0  0  0
 41 43  1  0  0  0  0
 41 82  1  0  0  0  0
 42 44  2  0  0  0  0
 42 83  1  0  0  0  0
 43 84  1  0  0  0  0
 44 85  1  0  0  0  0
M  END
> <PUBCHEM_COMPOUND_CID>
509689
> <PUBCHEM_COMPOUND_CANONICALIZED>
1
> <PUBCHEM_CACTVS_COMPLEXITY>
992
> <PUBCHEM_CACTVS_HBOND_ACCEPTOR>
10
> <PUBCHEM_CACTVS_HBOND_DONOR>
3
> <PUBCHEM_CACTVS_ROTATABLE_BOND>
15
> <PUBCHEM_CACTVS_SUBSKEYS>
AAADcfB/uABgAAAAAAAAAAAAAAAAAWAAAAA8YIAAAAAAAFgB/AAAHgQQSAAADXzh3gY/2bLIFgqsAzRnfHDD8LlxCjlJ2Lw4ZJmKMOLg2ZGMYAhslgLYyCeQwKAOAAQAAEAAAQAACAAAgAACAAAAAAAAAA==
> <PUBCHEM_IUPAC_OPENEYE_NAME>
tert-butyl N-[(1S,2R)-1-benzyl-2-hydroxy-3-[isobutyl-[[2-(4-pyridylmethylamino)-1,3-benzothiazol-6-yl]sulfonyl]amino]propyl]carbamate
> <PUBCHEM_IUPAC_CAS_NAME>
N-[(2S,3R)-3-hydroxy-4-[2-methylpropyl-[[2-(pyridin-4-ylmethylamino)-1,3-benzothiazol-6-yl]sulfonyl]amino]-1-phenylbutan-2-yl]carbamic acid tert-butyl ester
> <PUBCHEM_IUPAC_NAME_MARKUP>
<I>tert</I>-butyl <I>N</I>-[(2<I>S</I>,3<I>R</I>)-3-hydroxy-4-[2-methylpropyl-[[2-(pyridin-4-ylmethylamino)-1,3-benzothiazol-6-yl]sulfonyl]amino]-1-phenylbutan-2-yl]carbamate
> <PUBCHEM_IUPAC_NAME>
tert-butyl N-[(2S,3R)-3-hydroxy-4-[2-methylpropyl-[[2-(pyridin-4-ylmethylamino)-1,3-benzothiazol-6-yl]sulfonyl]amino]-1-phenylbutan-2-yl]carbamate
> <PUBCHEM_IUPAC_SYSTEMATIC_NAME>
tert-butyl N-[(2S,3R)-4-[2-methylpropyl-[[2-(pyridin-4-ylmethylamino)-1,3-benzothiazol-6-yl]sulfonyl]amino]-3-oxidanyl-1-phenyl-butan-2-yl]carbamate
> <PUBCHEM_IUPAC_TRADITIONAL_NAME>
N-[(1S,2R)-1-benzyl-2-hydroxy-3-[isobutyl-[[2-(4-pyridylmethylamino)-1,3-benzothiazol-6-yl]sulfonyl]amino]propyl]carbamic acid tert-butyl ester
> <PUBCHEM_IUPAC_INCHI>
InChI=1S/C32H41N5O5S2/c1-22(2)20-37(21-28(38)27(17-23-9-7-6-8-10-23)36-31(39)42-32(3,4)5)44(40,41)25-11-12-26-29(18-25)43-30(35-26)34-19-24-13-15-33-16-14-24/h6-16,18,22,27-28,38H,17,19-21H2,1-5H3,(H,34,35)(H,36,39)/t27-,28+/m0/s1
> <PUBCHEM_IUPAC_INCHIKEY>
GOQNGWUQACKQBT-WUFINQPMSA-N
> <PUBCHEM_XLOGP3_AA>
5.7
> <PUBCHEM_EXACT_MASS>
639.25491177
> <PUBCHEM_MOLECULAR_FORMULA>
C32H41N5O5S2
> <PUBCHEM_MOLECULAR_WEIGHT>
639.8
> <PUBCHEM_OPENEYE_CAN_SMILES>
CC(C)CN(CC(C(CC1=CC=CC=C1)NC(=O)OC(C)(C)C)O)S(=O)(=O)C2=CC3=C(C=C2)N=C(S3)NCC4=CC=NC=C4
> <PUBCHEM_OPENEYE_ISO_SMILES>
CC(C)CN(C[C@H]([C@H](CC1=CC=CC=C1)NC(=O)OC(C)(C)C)O)S(=O)(=O)C2=CC3=C(C=C2)N=C(S3)NCC4=CC=NC=C4
> <PUBCHEM_CACTVS_TPSA>
170
> <PUBCHEM_MONOISOTOPIC_WEIGHT>
639.25491177
> <PUBCHEM_TOTAL_CHARGE>
0
> <PUBCHEM_HEAVY_ATOM_COUNT>
44
> <PUBCHEM_ATOM_DEF_STEREO_COUNT>
2
> <PUBCHEM_ATOM_UDEF_STEREO_COUNT>
0
> <PUBCHEM_BOND_DEF_STEREO_COUNT>
0
> <PUBCHEM_BOND_UDEF_STEREO_COUNT>
0
> <PUBCHEM_ISOTOPIC_ATOM_COUNT>
0
> <PUBCHEM_COMPONENT_COUNT>
1
> <PUBCHEM_CACTVS_TAUTO_COUNT>
-1
> <PUBCHEM_COORDINATE_TYPE>
1
5
255
> <PUBCHEM_BONDANNOTATIONS>
10  31  8
10  38  8
12  43  8
12  44  8
19  24  8
19  25  8
2  29  8
2  38  8
20  26  8
20  27  8
24  29  8
25  30  8
26  32  8
27  33  8
29  31  8
13  3  6
30  31  8
32  37  8
33  37  8
40  41  8
40  42  8
41  43  8
42  44  8
15  9  6
$$$$
