509647
  -OEChem-10302200282D
 92 96  0     1  0  0  0  0  0999 V2000
    8.9282   -0.2476    0.0000 S   0  0  0  0  0  0  0  0  0  0  0  0
   12.4725   -0.4429    0.0000 S   0  0  0  0  0  0  0  0  0  0  0  0
    6.3301    1.2524    0.0000 O   0  0  0  0  0  0  0  0  0  0  0  0
    8.4282   -1.1137    0.0000 O   0  0  0  0  0  0  0  0  0  0  0  0
    9.4282    0.6184    0.0000 O   0  0  0  0  0  0  0  0  0  0  0  0
   14.0561   -2.9797    0.0000 O   0  0  0  0  0  0  0  0  0  0  0  0
    5.4641    1.7524    0.0000 O   0  0  0  0  0  0  0  0  0  0  0  0
    8.0622    0.2524    0.0000 N   0  0  3  0  0  0  0  0  0  0  0  0
   16.0561   -2.9797    0.0000 N   0  0  0  0  0  0  0  0  0  0  0  0
    4.5981    0.2524    0.0000 N   0  0  0  0  0  0  0  0  0  0  0  0
   14.0561   -1.2476    0.0000 N   0  0  0  0  0  0  0  0  0  0  0  0
   12.4725   -2.0524    0.0000 N   0  0  0  0  0  0  0  0  0  0  0  0
    2.8660    4.2524    0.0000 N   0  0  0  0  0  0  0  0  0  0  0  0
    6.3301    0.2524    0.0000 C   0  0  2  0  0  0  0  0  0  0  0  0
    7.1962   -0.2476    0.0000 C   0  0  0  0  0  0  0  0  0  0  0  0
    5.4641   -0.2476    0.0000 C   0  0  2  0  0  0  0  0  0  0  0  0
    8.0622    1.2524    0.0000 C   0  0  0  0  0  0  0  0  0  0  0  0
   16.3925   -4.5624    0.0000 C   0  0  0  0  0  0  0  0  0  0  0  0
   17.2585   -4.0624    0.0000 C   0  0  0  0  0  0  0  0  0  0  0  0
   15.6494   -3.8932    0.0000 C   0  0  0  0  0  0  0  0  0  0  0  0
   17.0506   -3.0842    0.0000 C   0  0  0  0  0  0  0  0  0  0  0  0
    8.9282    1.7524    0.0000 C   0  0  0  0  0  0  0  0  0  0  0  0
    5.4641   -1.2476    0.0000 C   0  0  0  0  0  0  0  0  0  0  0  0
   15.5561   -2.1137    0.0000 C   0  0  0  0  0  0  0  0  0  0  0  0
    9.7942   -0.7476    0.0000 C   0  0  0  0  0  0  0  0  0  0  0  0
    4.5981   -1.7476    0.0000 C   0  0  0  0  0  0  0  0  0  0  0  0
    8.9282    2.7524    0.0000 C   0  0  0  0  0  0  0  0  0  0  0  0
    9.7942    1.2524    0.0000 C   0  0  0  0  0  0  0  0  0  0  0  0
   14.5561   -2.1137    0.0000 C   0  0  0  0  0  0  0  0  0  0  0  0
   10.6603   -0.2476    0.0000 C   0  0  0  0  0  0  0  0  0  0  0  0
    4.5981    1.2524    0.0000 C   0  0  0  0  0  0  0  0  0  0  0  0
    9.7942   -1.7476    0.0000 C   0  0  0  0  0  0  0  0  0  0  0  0
   11.5263   -0.7476    0.0000 C   0  0  0  0  0  0  0  0  0  0  0  0
    4.5981   -2.7476    0.0000 C   0  0  0  0  0  0  0  0  0  0  0  0
    3.7320   -1.2476    0.0000 C   0  0  0  0  0  0  0  0  0  0  0  0
   11.5263   -1.7476    0.0000 C   0  0  0  0  0  0  0  0  0  0  0  0
   10.6603   -2.2476    0.0000 C   0  0  0  0  0  0  0  0  0  0  0  0
    3.7320    1.7524    0.0000 C   0  0  0  0  0  0  0  0  0  0  0  0
   13.0561   -1.2476    0.0000 C   0  0  0  0  0  0  0  0  0  0  0  0
    3.7320   -3.2476    0.0000 C   0  0  0  0  0  0  0  0  0  0  0  0
    2.8660   -1.7476    0.0000 C   0  0  0  0  0  0  0  0  0  0  0  0
    3.7320    2.7524    0.0000 C   0  0  0  0  0  0  0  0  0  0  0  0
    2.8660   -2.7476    0.0000 C   0  0  0  0  0  0  0  0  0  0  0  0
    2.8660    1.2524    0.0000 C   0  0  0  0  0  0  0  0  0  0  0  0
    2.8660    3.2524    0.0000 C   0  0  0  0  0  0  0  0  0  0  0  0
    4.5981    3.2524    0.0000 C   0  0  0  0  0  0  0  0  0  0  0  0
    2.0000    1.7524    0.0000 C   0  0  0  0  0  0  0  0  0  0  0  0
    2.0000    2.7524    0.0000 C   0  0  0  0  0  0  0  0  0  0  0  0
    6.8671    0.5624    0.0000 H   0  0  0  0  0  0  0  0  0  0  0  0
    6.7976   -0.7226    0.0000 H   0  0  0  0  0  0  0  0  0  0  0  0
    7.5947   -0.7226    0.0000 H   0  0  0  0  0  0  0  0  0  0  0  0
    5.4641    0.3724    0.0000 H   0  0  0  0  0  0  0  0  0  0  0  0
    7.8501    1.8350    0.0000 H   0  0  0  0  0  0  0  0  0  0  0  0
    7.4516    1.1447    0.0000 H   0  0  0  0  0  0  0  0  0  0  0  0
   15.9318   -4.9772    0.0000 H   0  0  0  0  0  0  0  0  0  0  0  0
   16.7569   -5.0640    0.0000 H   0  0  0  0  0  0  0  0  0  0  0  0
   17.5107   -4.6288    0.0000 H   0  0  0  0  0  0  0  0  0  0  0  0
   17.8482   -3.8708    0.0000 H   0  0  0  0  0  0  0  0  0  0  0  0
   15.1124   -3.5832    0.0000 H   0  0  0  0  0  0  0  0  0  0  0  0
   15.2849   -4.3948    0.0000 H   0  0  0  0  0  0  0  0  0  0  0  0
   17.6672   -3.0194    0.0000 H   0  0  0  0  0  0  0  0  0  0  0  0
   17.0506   -2.4642    0.0000 H   0  0  0  0  0  0  0  0  0  0  0  0
    9.4651    2.0624    0.0000 H   0  0  0  0  0  0  0  0  0  0  0  0
    5.6762   -1.8302    0.0000 H   0  0  0  0  0  0  0  0  0  0  0  0
    6.0747   -1.1400    0.0000 H   0  0  0  0  0  0  0  0  0  0  0  0
   16.1387   -1.9016    0.0000 H   0  0  0  0  0  0  0  0  0  0  0  0
   15.4484   -1.5031    0.0000 H   0  0  0  0  0  0  0  0  0  0  0  0
    4.0611   -0.0576    0.0000 H   0  0  0  0  0  0  0  0  0  0  0  0
    9.5482    2.7524    0.0000 H   0  0  0  0  0  0  0  0  0  0  0  0
    8.9282    3.3724    0.0000 H   0  0  0  0  0  0  0  0  0  0  0  0
    8.3082    2.7524    0.0000 H   0  0  0  0  0  0  0  0  0  0  0  0
    9.4842    0.7154    0.0000 H   0  0  0  0  0  0  0  0  0  0  0  0
   10.3312    0.9424    0.0000 H   0  0  0  0  0  0  0  0  0  0  0  0
   10.1042    1.7893    0.0000 H   0  0  0  0  0  0  0  0  0  0  0  0
    6.8671    1.5624    0.0000 H   0  0  0  0  0  0  0  0  0  0  0  0
   10.6603    0.3724    0.0000 H   0  0  0  0  0  0  0  0  0  0  0  0
    9.2573   -2.0576    0.0000 H   0  0  0  0  0  0  0  0  0  0  0  0
    5.1350   -3.0576    0.0000 H   0  0  0  0  0  0  0  0  0  0  0  0
    3.7320   -0.6276    0.0000 H   0  0  0  0  0  0  0  0  0  0  0  0
   10.6603   -2.8676    0.0000 H   0  0  0  0  0  0  0  0  0  0  0  0
   14.3661   -0.7107    0.0000 H   0  0  0  0  0  0  0  0  0  0  0  0
    3.7320   -3.8676    0.0000 H   0  0  0  0  0  0  0  0  0  0  0  0
    2.3291   -1.4376    0.0000 H   0  0  0  0  0  0  0  0  0  0  0  0
    2.3291   -3.0576    0.0000 H   0  0  0  0  0  0  0  0  0  0  0  0
    2.8660    0.6324    0.0000 H   0  0  0  0  0  0  0  0  0  0  0  0
    4.9081    2.7154    0.0000 H   0  0  0  0  0  0  0  0  0  0  0  0
    5.1350    3.5624    0.0000 H   0  0  0  0  0  0  0  0  0  0  0  0
    4.2881    3.7893    0.0000 H   0  0  0  0  0  0  0  0  0  0  0  0
    1.4631    1.4424    0.0000 H   0  0  0  0  0  0  0  0  0  0  0  0
    1.4631    3.0624    0.0000 H   0  0  0  0  0  0  0  0  0  0  0  0
    2.3291    4.5624    0.0000 H   0  0  0  0  0  0  0  0  0  0  0  0
    3.4030    4.5624    0.0000 H   0  0  0  0  0  0  0  0  0  0  0  0
  1  4  2  0  0  0  0
  1  5  2  0  0  0  0
  1  8  1  0  0  0  0
  1 25  1  0  0  0  0
  2 33  1  0  0  0  0
  2 39  1  0  0  0  0
 14  3  1  6  0  0  0
  3 75  1  0  0  0  0
  6 29  2  0  0  0  0
  7 31  2  0  0  0  0
  8 15  1  0  0  0  0
  8 17  1  0  0  0  0
  9 20  1  0  0  0  0
  9 21  1  0  0  0  0
  9 24  1  0  0  0  0
 16 10  1  6  0  0  0
 10 31  1  0  0  0  0
 10 68  1  0  0  0  0
 11 29  1  0  0  0  0
 11 39  1  0  0  0  0
 11 81  1  0  0  0  0
 12 36  1  0  0  0  0
 12 39  2  0  0  0  0
 13 45  1  0  0  0  0
 13 91  1  0  0  0  0
 13 92  1  0  0  0  0
 14 15  1  0  0  0  0
 14 16  1  0  0  0  0
 14 49  1  0  0  0  0
 15 50  1  0  0  0  0
 15 51  1  0  0  0  0
 16 23  1  0  0  0  0
 16 52  1  0  0  0  0
 17 22  1  0  0  0  0
 17 53  1  0  0  0  0
 17 54  1  0  0  0  0
 18 19  1  0  0  0  0
 18 20  1  0  0  0  0
 18 55  1  0  0  0  0
 18 56  1  0  0  0  0
 19 21  1  0  0  0  0
 19 57  1  0  0  0  0
 19 58  1  0  0  0  0
 20 59  1  0  0  0  0
 20 60  1  0  0  0  0
 21 61  1  0  0  0  0
 21 62  1  0  0  0  0
 22 27  1  0  0  0  0
 22 28  1  0  0  0  0
 22 63  1  0  0  0  0
 23 26  1  0  0  0  0
 23 64  1  0  0  0  0
 23 65  1  0  0  0  0
 24 29  1  0  0  0  0
 24 66  1  0  0  0  0
 24 67  1  0  0  0  0
 25 30  2  0  0  0  0
 25 32  1  0  0  0  0
 26 34  2  0  0  0  0
 26 35  1  0  0  0  0
 27 69  1  0  0  0  0
 27 70  1  0  0  0  0
 27 71  1  0  0  0  0
 28 72  1  0  0  0  0
 28 73  1  0  0  0  0
 28 74  1  0  0  0  0
 30 33  1  0  0  0  0
 30 76  1  0  0  0  0
 31 38  1  0  0  0  0
 32 37  2  0  0  0  0
 32 77  1  0  0  0  0
 33 36  2  0  0  0  0
 34 40  1  0  0  0  0
 34 78  1  0  0  0  0
 35 41  2  0  0  0  0
 35 79  1  0  0  0  0
 36 37  1  0  0  0  0
 37 80  1  0  0  0  0
 38 42  2  0  0  0  0
 38 44  1  0  0  0  0
 40 43  2  0  0  0  0
 40 82  1  0  0  0  0
 41 43  1  0  0  0  0
 41 83  1  0  0  0  0
 42 45  1  0  0  0  0
 42 46  1  0  0  0  0
 43 84  1  0  0  0  0
 44 47  2  0  0  0  0
 44 85  1  0  0  0  0
 45 48  2  0  0  0  0
 46 86  1  0  0  0  0
 46 87  1  0  0  0  0
 46 88  1  0  0  0  0
 47 48  1  0  0  0  0
 47 89  1  0  0  0  0
 48 90  1  0  0  0  0
M  END
> <PUBCHEM_COMPOUND_CID>
509647
> <PUBCHEM_COMPOUND_CANONICALIZED>
1
> <PUBCHEM_CACTVS_COMPLEXITY>
1160
> <PUBCHEM_CACTVS_HBOND_ACCEPTOR>
10
> <PUBCHEM_CACTVS_HBOND_DONOR>
4
> <PUBCHEM_CACTVS_ROTATABLE_BOND>
14
> <PUBCHEM_CACTVS_SUBSKEYS>
AAADcfB/uABgAAAAAAAAAAAAAAAAAWLAAAAwYMAAAAAAAFgB9AAAHgQQSAAADTzh3gYz0bPIEgqsAyVydHDD8LllCjlJmL24ZNiKcLLg3bGUYQhslwLYyaecyKCOgAQAQEASAQAACACAgCQCAAAAAAAAAA==
> <PUBCHEM_IUPAC_OPENEYE_NAME>
3-amino-N-[(1S,2R)-1-benzyl-2-hydroxy-3-[isobutyl-[[2-[(2-pyrrolidin-1-ylacetyl)amino]-1,3-benzothiazol-6-yl]sulfonyl]amino]propyl]-2-methyl-benzamide
> <PUBCHEM_IUPAC_CAS_NAME>
3-amino-N-[(2S,3R)-3-hydroxy-4-[2-methylpropyl-[[2-[[1-oxo-2-(1-pyrrolidinyl)ethyl]amino]-1,3-benzothiazol-6-yl]sulfonyl]amino]-1-phenylbutan-2-yl]-2-methylbenzamide
> <PUBCHEM_IUPAC_NAME_MARKUP>
3-amino-<I>N</I>-[(2<I>S</I>,3<I>R</I>)-3-hydroxy-4-[2-methylpropyl-[[2-[(2-pyrrolidin-1-ylacetyl)amino]-1,3-benzothiazol-6-yl]sulfonyl]amino]-1-phenylbutan-2-yl]-2-methylbenzamide
> <PUBCHEM_IUPAC_NAME>
3-amino-N-[(2S,3R)-3-hydroxy-4-[2-methylpropyl-[[2-[(2-pyrrolidin-1-ylacetyl)amino]-1,3-benzothiazol-6-yl]sulfonyl]amino]-1-phenylbutan-2-yl]-2-methylbenzamide
> <PUBCHEM_IUPAC_SYSTEMATIC_NAME>
3-azanyl-2-methyl-N-[(2S,3R)-4-[2-methylpropyl-[[2-(2-pyrrolidin-1-ylethanoylamino)-1,3-benzothiazol-6-yl]sulfonyl]amino]-3-oxidanyl-1-phenyl-butan-2-yl]benzamide
> <PUBCHEM_IUPAC_TRADITIONAL_NAME>
3-amino-N-[(1S,2R)-1-benzyl-2-hydroxy-3-[isobutyl-[[2-[(2-pyrrolidinoacetyl)amino]-1,3-benzothiazol-6-yl]sulfonyl]amino]propyl]-2-methyl-benzamide
> <PUBCHEM_IUPAC_INCHI>
InChI=1S/C35H44N6O5S2/c1-23(2)20-41(21-31(42)30(18-25-10-5-4-6-11-25)37-34(44)27-12-9-13-28(36)24(27)3)48(45,46)26-14-15-29-32(19-26)47-35(38-29)39-33(43)22-40-16-7-8-17-40/h4-6,9-15,19,23,30-31,42H,7-8,16-18,20-22,36H2,1-3H3,(H,37,44)(H,38,39,43)/t30-,31+/m0/s1
> <PUBCHEM_IUPAC_INCHIKEY>
NKXQOPFRNIXLEL-IOWSJCHKSA-N
> <PUBCHEM_XLOGP3_AA>
5
> <PUBCHEM_EXACT_MASS>
692.28146087
> <PUBCHEM_MOLECULAR_FORMULA>
C35H44N6O5S2
> <PUBCHEM_MOLECULAR_WEIGHT>
692.9
> <PUBCHEM_OPENEYE_CAN_SMILES>
CC1=C(C=CC=C1N)C(=O)NC(CC2=CC=CC=C2)C(CN(CC(C)C)S(=O)(=O)C3=CC4=C(C=C3)N=C(S4)NC(=O)CN5CCCC5)O
> <PUBCHEM_OPENEYE_ISO_SMILES>
CC1=C(C=CC=C1N)C(=O)N[C@@H](CC2=CC=CC=C2)[C@@H](CN(CC(C)C)S(=O)(=O)C3=CC4=C(C=C3)N=C(S4)NC(=O)CN5CCCC5)O
> <PUBCHEM_CACTVS_TPSA>
195
> <PUBCHEM_MONOISOTOPIC_WEIGHT>
692.28146087
> <PUBCHEM_TOTAL_CHARGE>
0
> <PUBCHEM_HEAVY_ATOM_COUNT>
48
> <PUBCHEM_ATOM_DEF_STEREO_COUNT>
2
> <PUBCHEM_ATOM_UDEF_STEREO_COUNT>
0
> <PUBCHEM_BOND_DEF_STEREO_COUNT>
0
> <PUBCHEM_BOND_UDEF_STEREO_COUNT>
0
> <PUBCHEM_ISOTOPIC_ATOM_COUNT>
0
> <PUBCHEM_COMPONENT_COUNT>
1
> <PUBCHEM_CACTVS_TAUTO_COUNT>
-1
> <PUBCHEM_COORDINATE_TYPE>
1
5
255
> <PUBCHEM_BONDANNOTATIONS>
16  10  6
12  36  8
12  39  8
2  33  8
2  39  8
25  30  8
25  32  8
26  34  8
26  35  8
14  3  6
30  33  8
32  37  8
33  36  8
34  40  8
35  41  8
36  37  8
38  42  8
38  44  8
40  43  8
41  43  8
42  45  8
44  47  8
45  48  8
47  48  8
$$$$
