509671
  -OEChem-10302200282D
 89 93  0     1  0  0  0  0  0999 V2000
    8.0622   -0.1121    0.0000 S   0  0  0  0  0  0  0  0  0  0  0  0
   11.6065   -0.3073    0.0000 S   0  0  0  0  0  0  0  0  0  0  0  0
    5.4641    1.3879    0.0000 O   0  0  0  0  0  0  0  0  0  0  0  0
    2.8660    1.8879    0.0000 O   0  0  0  0  0  0  0  0  0  0  0  0
    7.5622   -0.9781    0.0000 O   0  0  0  0  0  0  0  0  0  0  0  0
    8.5622    0.7540    0.0000 O   0  0  0  0  0  0  0  0  0  0  0  0
    3.3660    4.4268    0.0000 O   0  0  0  0  0  0  0  0  0  0  0  0
    4.5981    1.8879    0.0000 O   0  0  0  0  0  0  0  0  0  0  0  0
   13.1901   -2.8441    0.0000 O   0  0  0  0  0  0  0  0  0  0  0  0
    7.1962    0.3879    0.0000 N   0  0  3  0  0  0  0  0  0  0  0  0
   15.1901   -2.8441    0.0000 N   0  0  0  0  0  0  0  0  0  0  0  0
    3.7320    0.3879    0.0000 N   0  0  0  0  0  0  0  0  0  0  0  0
   13.1901   -1.1121    0.0000 N   0  0  0  0  0  0  0  0  0  0  0  0
   11.6065   -1.9168    0.0000 N   0  0  0  0  0  0  0  0  0  0  0  0
    5.4641    0.3879    0.0000 C   0  0  1  0  0  0  0  0  0  0  0  0
    4.5981   -0.1121    0.0000 C   0  0  2  0  0  0  0  0  0  0  0  0
    6.3301   -0.1121    0.0000 C   0  0  0  0  0  0  0  0  0  0  0  0
    7.1962    1.3879    0.0000 C   0  0  0  0  0  0  0  0  0  0  0  0
   15.5265   -4.4268    0.0000 C   0  0  0  0  0  0  0  0  0  0  0  0
   16.3925   -3.9268    0.0000 C   0  0  0  0  0  0  0  0  0  0  0  0
   14.7833   -3.7576    0.0000 C   0  0  0  0  0  0  0  0  0  0  0  0
   16.1846   -2.9486    0.0000 C   0  0  0  0  0  0  0  0  0  0  0  0
    8.0622    1.8879    0.0000 C   0  0  0  0  0  0  0  0  0  0  0  0
    4.5981   -1.1121    0.0000 C   0  0  0  0  0  0  0  0  0  0  0  0
   14.6901   -1.9781    0.0000 C   0  0  0  0  0  0  0  0  0  0  0  0
    8.9282   -0.6121    0.0000 C   0  0  0  0  0  0  0  0  0  0  0  0
    3.7320   -1.6121    0.0000 C   0  0  0  0  0  0  0  0  0  0  0  0
    8.0622    2.8879    0.0000 C   0  0  0  0  0  0  0  0  0  0  0  0
    8.9282    1.3879    0.0000 C   0  0  0  0  0  0  0  0  0  0  0  0
    2.8660    2.8879    0.0000 C   0  0  1  0  0  0  0  0  0  0  0  0
    2.0570    3.4757    0.0000 C   0  0  0  0  0  0  0  0  0  0  0  0
    3.7320    1.3879    0.0000 C   0  0  0  0  0  0  0  0  0  0  0  0
    3.6750    3.4757    0.0000 C   0  0  0  0  0  0  0  0  0  0  0  0
   13.6901   -1.9781    0.0000 C   0  0  0  0  0  0  0  0  0  0  0  0
    9.7942   -0.1121    0.0000 C   0  0  0  0  0  0  0  0  0  0  0  0
    2.3660    4.4268    0.0000 C   0  0  0  0  0  0  0  0  0  0  0  0
    8.9282   -1.6121    0.0000 C   0  0  0  0  0  0  0  0  0  0  0  0
   10.6603   -0.6121    0.0000 C   0  0  0  0  0  0  0  0  0  0  0  0
    3.7320   -2.6121    0.0000 C   0  0  0  0  0  0  0  0  0  0  0  0
    2.8660   -1.1121    0.0000 C   0  0  0  0  0  0  0  0  0  0  0  0
   10.6603   -1.6121    0.0000 C   0  0  0  0  0  0  0  0  0  0  0  0
    9.7942   -2.1121    0.0000 C   0  0  0  0  0  0  0  0  0  0  0  0
   12.1901   -1.1121    0.0000 C   0  0  0  0  0  0  0  0  0  0  0  0
    2.8660   -3.1121    0.0000 C   0  0  0  0  0  0  0  0  0  0  0  0
    2.0000   -1.6121    0.0000 C   0  0  0  0  0  0  0  0  0  0  0  0
    2.0000   -2.6121    0.0000 C   0  0  0  0  0  0  0  0  0  0  0  0
    6.0010    0.6979    0.0000 H   0  0  0  0  0  0  0  0  0  0  0  0
    4.5981    0.5079    0.0000 H   0  0  0  0  0  0  0  0  0  0  0  0
    5.9316   -0.5870    0.0000 H   0  0  0  0  0  0  0  0  0  0  0  0
    6.7287   -0.5870    0.0000 H   0  0  0  0  0  0  0  0  0  0  0  0
    6.9841    1.9706    0.0000 H   0  0  0  0  0  0  0  0  0  0  0  0
    6.5856    1.2803    0.0000 H   0  0  0  0  0  0  0  0  0  0  0  0
   15.0657   -4.8416    0.0000 H   0  0  0  0  0  0  0  0  0  0  0  0
   15.8909   -4.9284    0.0000 H   0  0  0  0  0  0  0  0  0  0  0  0
   16.6447   -4.4932    0.0000 H   0  0  0  0  0  0  0  0  0  0  0  0
   16.9822   -3.7352    0.0000 H   0  0  0  0  0  0  0  0  0  0  0  0
   14.2464   -3.4476    0.0000 H   0  0  0  0  0  0  0  0  0  0  0  0
   14.4189   -4.2592    0.0000 H   0  0  0  0  0  0  0  0  0  0  0  0
   16.8012   -2.8838    0.0000 H   0  0  0  0  0  0  0  0  0  0  0  0
   16.1846   -2.3286    0.0000 H   0  0  0  0  0  0  0  0  0  0  0  0
    8.0622    1.2679    0.0000 H   0  0  0  0  0  0  0  0  0  0  0  0
    4.8101   -1.6947    0.0000 H   0  0  0  0  0  0  0  0  0  0  0  0
    5.2087   -1.0044    0.0000 H   0  0  0  0  0  0  0  0  0  0  0  0
    3.1951    0.0779    0.0000 H   0  0  0  0  0  0  0  0  0  0  0  0
   15.2727   -1.7660    0.0000 H   0  0  0  0  0  0  0  0  0  0  0  0
   14.5824   -1.3675    0.0000 H   0  0  0  0  0  0  0  0  0  0  0  0
    8.6822    2.8879    0.0000 H   0  0  0  0  0  0  0  0  0  0  0  0
    8.0622    3.5079    0.0000 H   0  0  0  0  0  0  0  0  0  0  0  0
    7.4422    2.8879    0.0000 H   0  0  0  0  0  0  0  0  0  0  0  0
    8.6182    0.8510    0.0000 H   0  0  0  0  0  0  0  0  0  0  0  0
    9.4651    1.0779    0.0000 H   0  0  0  0  0  0  0  0  0  0  0  0
    9.2382    1.9249    0.0000 H   0  0  0  0  0  0  0  0  0  0  0  0
    3.4184    2.6065    0.0000 H   0  0  0  0  0  0  0  0  0  0  0  0
    6.0010    1.6979    0.0000 H   0  0  0  0  0  0  0  0  0  0  0  0
    1.4906    3.7279    0.0000 H   0  0  0  0  0  0  0  0  0  0  0  0
    1.7470    2.9388    0.0000 H   0  0  0  0  0  0  0  0  0  0  0  0
    3.9850    2.9388    0.0000 H   0  0  0  0  0  0  0  0  0  0  0  0
    4.2414    3.7279    0.0000 H   0  0  0  0  0  0  0  0  0  0  0  0
    9.7942    0.5079    0.0000 H   0  0  0  0  0  0  0  0  0  0  0  0
    2.4308    5.0434    0.0000 H   0  0  0  0  0  0  0  0  0  0  0  0
    1.7596    4.5557    0.0000 H   0  0  0  0  0  0  0  0  0  0  0  0
    8.3913   -1.9221    0.0000 H   0  0  0  0  0  0  0  0  0  0  0  0
    4.2690   -2.9221    0.0000 H   0  0  0  0  0  0  0  0  0  0  0  0
    2.8660   -0.4921    0.0000 H   0  0  0  0  0  0  0  0  0  0  0  0
    9.7942   -2.7321    0.0000 H   0  0  0  0  0  0  0  0  0  0  0  0
   13.5001   -0.5751    0.0000 H   0  0  0  0  0  0  0  0  0  0  0  0
    2.8660   -3.7321    0.0000 H   0  0  0  0  0  0  0  0  0  0  0  0
    1.4631   -1.3021    0.0000 H   0  0  0  0  0  0  0  0  0  0  0  0
    1.4631   -2.9221    0.0000 H   0  0  0  0  0  0  0  0  0  0  0  0
  1  5  2  0  0  0  0
  1  6  2  0  0  0  0
  1 10  1  0  0  0  0
  1 26  1  0  0  0  0
  2 38  1  0  0  0  0
  2 43  1  0  0  0  0
 15  3  1  6  0  0  0
  3 74  1  0  0  0  0
 30  4  1  1  0  0  0
  4 32  1  0  0  0  0
  7 33  1  0  0  0  0
  7 36  1  0  0  0  0
  8 32  2  0  0  0  0
  9 34  2  0  0  0  0
 10 17  1  0  0  0  0
 10 18  1  0  0  0  0
 11 21  1  0  0  0  0
 11 22  1  0  0  0  0
 11 25  1  0  0  0  0
 16 12  1  6  0  0  0
 12 32  1  0  0  0  0
 12 64  1  0  0  0  0
 13 34  1  0  0  0  0
 13 43  1  0  0  0  0
 13 86  1  0  0  0  0
 14 41  1  0  0  0  0
 14 43  2  0  0  0  0
 15 16  1  0  0  0  0
 15 17  1  0  0  0  0
 15 47  1  0  0  0  0
 16 24  1  0  0  0  0
 16 48  1  0  0  0  0
 17 49  1  0  0  0  0
 17 50  1  0  0  0  0
 18 23  1  0  0  0  0
 18 51  1  0  0  0  0
 18 52  1  0  0  0  0
 19 20  1  0  0  0  0
 19 21  1  0  0  0  0
 19 53  1  0  0  0  0
 19 54  1  0  0  0  0
 20 22  1  0  0  0  0
 20 55  1  0  0  0  0
 20 56  1  0  0  0  0
 21 57  1  0  0  0  0
 21 58  1  0  0  0  0
 22 59  1  0  0  0  0
 22 60  1  0  0  0  0
 23 28  1  0  0  0  0
 23 29  1  0  0  0  0
 23 61  1  0  0  0  0
 24 27  1  0  0  0  0
 24 62  1  0  0  0  0
 24 63  1  0  0  0  0
 25 34  1  0  0  0  0
 25 65  1  0  0  0  0
 25 66  1  0  0  0  0
 26 35  2  0  0  0  0
 26 37  1  0  0  0  0
 27 39  2  0  0  0  0
 27 40  1  0  0  0  0
 28 67  1  0  0  0  0
 28 68  1  0  0  0  0
 28 69  1  0  0  0  0
 29 70  1  0  0  0  0
 29 71  1  0  0  0  0
 29 72  1  0  0  0  0
 30 31  1  0  0  0  0
 30 33  1  0  0  0  0
 30 73  1  0  0  0  0
 31 36  1  0  0  0  0
 31 75  1  0  0  0  0
 31 76  1  0  0  0  0
 33 77  1  0  0  0  0
 33 78  1  0  0  0  0
 35 38  1  0  0  0  0
 35 79  1  0  0  0  0
 36 80  1  0  0  0  0
 36 81  1  0  0  0  0
 37 42  2  0  0  0  0
 37 82  1  0  0  0  0
 38 41  2  0  0  0  0
 39 44  1  0  0  0  0
 39 83  1  0  0  0  0
 40 45  2  0  0  0  0
 40 84  1  0  0  0  0
 41 42  1  0  0  0  0
 42 85  1  0  0  0  0
 44 46  2  0  0  0  0
 44 87  1  0  0  0  0
 45 46  1  0  0  0  0
 45 88  1  0  0  0  0
 46 89  1  0  0  0  0
M  END
> <PUBCHEM_COMPOUND_CID>
509671
> <PUBCHEM_COMPOUND_CANONICALIZED>
1
> <PUBCHEM_CACTVS_COMPLEXITY>
1100
> <PUBCHEM_CACTVS_HBOND_ACCEPTOR>
11
> <PUBCHEM_CACTVS_HBOND_DONOR>
3
> <PUBCHEM_CACTVS_ROTATABLE_BOND>
15
> <PUBCHEM_CACTVS_SUBSKEYS>
AAADcfB/uABgAAAAAAAAAAAAAAAAAWLEgAAwYAAAAAAAAFgB9AAAHgQQSAAADTzh3gYz2bPIFgqsAyVyfHDD8LlhCjlJmLy4ZJmLcKLg2bGeYAhtlwLayCeQwKAOAAQAAEAAAQAACAAAgAACAAAAAAAAAA==
> <PUBCHEM_IUPAC_OPENEYE_NAME>
[(3S)-tetrahydrofuran-3-yl] N-[(1S,2R)-1-benzyl-2-hydroxy-3-[isobutyl-[[2-[(2-pyrrolidin-1-ylacetyl)amino]-1,3-benzothiazol-6-yl]sulfonyl]amino]propyl]carbamate
> <PUBCHEM_IUPAC_CAS_NAME>
N-[(2S,3R)-3-hydroxy-4-[2-methylpropyl-[[2-[[1-oxo-2-(1-pyrrolidinyl)ethyl]amino]-1,3-benzothiazol-6-yl]sulfonyl]amino]-1-phenylbutan-2-yl]carbamic acid [(3S)-3-oxolanyl] ester
> <PUBCHEM_IUPAC_NAME_MARKUP>
[(3<I>S</I>)-oxolan-3-yl] <I>N</I>-[(2<I>S</I>,3<I>R</I>)-3-hydroxy-4-[2-methylpropyl-[[2-[(2-pyrrolidin-1-ylacetyl)amino]-1,3-benzothiazol-6-yl]sulfonyl]amino]-1-phenylbutan-2-yl]carbamate
> <PUBCHEM_IUPAC_NAME>
[(3S)-oxolan-3-yl] N-[(2S,3R)-3-hydroxy-4-[2-methylpropyl-[[2-[(2-pyrrolidin-1-ylacetyl)amino]-1,3-benzothiazol-6-yl]sulfonyl]amino]-1-phenylbutan-2-yl]carbamate
> <PUBCHEM_IUPAC_SYSTEMATIC_NAME>
[(3S)-oxolan-3-yl] N-[(2S,3R)-4-[2-methylpropyl-[[2-(2-pyrrolidin-1-ylethanoylamino)-1,3-benzothiazol-6-yl]sulfonyl]amino]-3-oxidanyl-1-phenyl-butan-2-yl]carbamate
> <PUBCHEM_IUPAC_TRADITIONAL_NAME>
N-[(1S,2R)-1-benzyl-2-hydroxy-3-[isobutyl-[[2-[(2-pyrrolidinoacetyl)amino]-1,3-benzothiazol-6-yl]sulfonyl]amino]propyl]carbamic acid [(3S)-tetrahydrofuran-3-yl] ester
> <PUBCHEM_IUPAC_INCHI>
InChI=1S/C32H43N5O7S2/c1-22(2)18-37(19-28(38)27(16-23-8-4-3-5-9-23)34-32(40)44-24-12-15-43-21-24)46(41,42)25-10-11-26-29(17-25)45-31(33-26)35-30(39)20-36-13-6-7-14-36/h3-5,8-11,17,22,24,27-28,38H,6-7,12-16,18-21H2,1-2H3,(H,34,40)(H,33,35,39)/t24-,27-,28+/m0/s1
> <PUBCHEM_IUPAC_INCHIKEY>
FPQGKEUYJNXBGP-SAAIGDAKSA-N
> <PUBCHEM_XLOGP3_AA>
4.1
> <PUBCHEM_EXACT_MASS>
673.26039107
> <PUBCHEM_MOLECULAR_FORMULA>
C32H43N5O7S2
> <PUBCHEM_MOLECULAR_WEIGHT>
673.8
> <PUBCHEM_OPENEYE_CAN_SMILES>
CC(C)CN(CC(C(CC1=CC=CC=C1)NC(=O)OC2CCOC2)O)S(=O)(=O)C3=CC4=C(C=C3)N=C(S4)NC(=O)CN5CCCC5
> <PUBCHEM_OPENEYE_ISO_SMILES>
CC(C)CN(C[C@H]([C@H](CC1=CC=CC=C1)NC(=O)O[C@H]2CCOC2)O)S(=O)(=O)C3=CC4=C(C=C3)N=C(S4)NC(=O)CN5CCCC5
> <PUBCHEM_CACTVS_TPSA>
187
> <PUBCHEM_MONOISOTOPIC_WEIGHT>
673.26039107
> <PUBCHEM_TOTAL_CHARGE>
0
> <PUBCHEM_HEAVY_ATOM_COUNT>
46
> <PUBCHEM_ATOM_DEF_STEREO_COUNT>
3
> <PUBCHEM_ATOM_UDEF_STEREO_COUNT>
0
> <PUBCHEM_BOND_DEF_STEREO_COUNT>
0
> <PUBCHEM_BOND_UDEF_STEREO_COUNT>
0
> <PUBCHEM_ISOTOPIC_ATOM_COUNT>
0
> <PUBCHEM_COMPONENT_COUNT>
1
> <PUBCHEM_CACTVS_TAUTO_COUNT>
-1
> <PUBCHEM_COORDINATE_TYPE>
1
5
255
> <PUBCHEM_BONDANNOTATIONS>
16  12  6
14  41  8
14  43  8
2  38  8
2  43  8
26  35  8
26  37  8
27  39  8
27  40  8
15  3  6
35  38  8
37  42  8
38  41  8
39  44  8
30  4  5
40  45  8
41  42  8
44  46  8
45  46  8
$$$$
