509738
  -OEChem-10302200282D
 95 99  0     1  0  0  0  0  0999 V2000
    9.6448    0.3138    0.0000 S   0  0  0  0  0  0  0  0  0  0  0  0
   13.1891    0.1186    0.0000 S   0  0  0  0  0  0  0  0  0  0  0  0
    2.6691    3.4071    0.0000 S   0  0  0  0  0  0  0  0  0  0  0  0
    7.0468    1.8138    0.0000 O   0  0  0  0  0  0  0  0  0  0  0  0
    9.1448   -0.5522    0.0000 O   0  0  0  0  0  0  0  0  0  0  0  0
   10.1449    1.1799    0.0000 O   0  0  0  0  0  0  0  0  0  0  0  0
    4.4487    2.3138    0.0000 O   0  0  0  0  0  0  0  0  0  0  0  0
   14.7728   -2.4182    0.0000 O   0  0  0  0  0  0  0  0  0  0  0  0
    6.1808    2.3138    0.0000 O   0  0  0  0  0  0  0  0  0  0  0  0
    8.7788    0.8138    0.0000 N   0  0  3  0  0  0  0  0  0  0  0  0
   16.7728   -2.4182    0.0000 N   0  0  0  0  0  0  0  0  0  0  0  0
   17.7728   -4.1502    0.0000 N   0  0  0  0  0  0  0  0  0  0  0  0
    5.3147    0.8138    0.0000 N   0  0  0  0  0  0  0  0  0  0  0  0
   14.7728   -0.6862    0.0000 N   0  0  0  0  0  0  0  0  0  0  0  0
   13.1891   -1.4909    0.0000 N   0  0  0  0  0  0  0  0  0  0  0  0
    2.5000    5.0163    0.0000 N   0  0  0  0  0  0  0  0  0  0  0  0
    7.0468    0.8138    0.0000 C   0  0  2  0  0  0  0  0  0  0  0  0
    7.9128    0.3138    0.0000 C   0  0  0  0  0  0  0  0  0  0  0  0
    6.1808    0.3138    0.0000 C   0  0  2  0  0  0  0  0  0  0  0  0
    8.7788    1.8138    0.0000 C   0  0  0  0  0  0  0  0  0  0  0  0
    9.6448    2.3138    0.0000 C   0  0  0  0  0  0  0  0  0  0  0  0
   16.2728   -3.2842    0.0000 C   0  0  0  0  0  0  0  0  0  0  0  0
   17.7728   -2.4182    0.0000 C   0  0  0  0  0  0  0  0  0  0  0  0
   16.7728   -4.1502    0.0000 C   0  0  0  0  0  0  0  0  0  0  0  0
   18.2728   -3.2842    0.0000 C   0  0  0  0  0  0  0  0  0  0  0  0
    6.1808   -0.6862    0.0000 C   0  0  0  0  0  0  0  0  0  0  0  0
   16.2728   -1.5522    0.0000 C   0  0  0  0  0  0  0  0  0  0  0  0
   10.5109   -0.1862    0.0000 C   0  0  0  0  0  0  0  0  0  0  0  0
    9.6448    3.3138    0.0000 C   0  0  0  0  0  0  0  0  0  0  0  0
   10.5109    1.8138    0.0000 C   0  0  0  0  0  0  0  0  0  0  0  0
    5.3147   -1.1862    0.0000 C   0  0  0  0  0  0  0  0  0  0  0  0
   18.2728   -5.0163    0.0000 C   0  0  0  0  0  0  0  0  0  0  0  0
   15.2728   -1.5522    0.0000 C   0  0  0  0  0  0  0  0  0  0  0  0
   11.3769    0.3138    0.0000 C   0  0  0  0  0  0  0  0  0  0  0  0
   10.5109   -1.1862    0.0000 C   0  0  0  0  0  0  0  0  0  0  0  0
   12.2429   -0.1862    0.0000 C   0  0  0  0  0  0  0  0  0  0  0  0
   12.2429   -1.1862    0.0000 C   0  0  0  0  0  0  0  0  0  0  0  0
    5.3147    1.8138    0.0000 C   0  0  0  0  0  0  0  0  0  0  0  0
    5.3147   -2.1862    0.0000 C   0  0  0  0  0  0  0  0  0  0  0  0
    4.4487   -0.6862    0.0000 C   0  0  0  0  0  0  0  0  0  0  0  0
   11.3769   -1.6862    0.0000 C   0  0  0  0  0  0  0  0  0  0  0  0
   13.7728   -0.6862    0.0000 C   0  0  0  0  0  0  0  0  0  0  0  0
   15.2728    0.1799    0.0000 C   0  0  0  0  0  0  0  0  0  0  0  0
    4.4487   -2.6862    0.0000 C   0  0  0  0  0  0  0  0  0  0  0  0
    3.5827   -1.1862    0.0000 C   0  0  0  0  0  0  0  0  0  0  0  0
    3.5827   -2.1862    0.0000 C   0  0  0  0  0  0  0  0  0  0  0  0
    4.4487    3.3138    0.0000 C   0  0  0  0  0  0  0  0  0  0  0  0
    3.5827    3.8138    0.0000 C   0  0  0  0  0  0  0  0  0  0  0  0
    3.4782    4.8084    0.0000 C   0  0  0  0  0  0  0  0  0  0  0  0
    2.0000    4.1502    0.0000 C   0  0  0  0  0  0  0  0  0  0  0  0
    7.5837    1.1238    0.0000 H   0  0  0  0  0  0  0  0  0  0  0  0
    7.5143   -0.1611    0.0000 H   0  0  0  0  0  0  0  0  0  0  0  0
    8.3113   -0.1611    0.0000 H   0  0  0  0  0  0  0  0  0  0  0  0
    6.1808    0.9338    0.0000 H   0  0  0  0  0  0  0  0  0  0  0  0
    8.5668    2.3965    0.0000 H   0  0  0  0  0  0  0  0  0  0  0  0
    8.1682    1.7062    0.0000 H   0  0  0  0  0  0  0  0  0  0  0  0
    9.1079    2.6238    0.0000 H   0  0  0  0  0  0  0  0  0  0  0  0
   15.7978   -2.8857    0.0000 H   0  0  0  0  0  0  0  0  0  0  0  0
   15.7978   -3.6828    0.0000 H   0  0  0  0  0  0  0  0  0  0  0  0
   18.3554   -2.2062    0.0000 H   0  0  0  0  0  0  0  0  0  0  0  0
   17.6651   -1.8076    0.0000 H   0  0  0  0  0  0  0  0  0  0  0  0
   16.1901   -4.3623    0.0000 H   0  0  0  0  0  0  0  0  0  0  0  0
   16.8804   -4.7608    0.0000 H   0  0  0  0  0  0  0  0  0  0  0  0
   18.7477   -3.6828    0.0000 H   0  0  0  0  0  0  0  0  0  0  0  0
   18.7477   -2.8857    0.0000 H   0  0  0  0  0  0  0  0  0  0  0  0
    6.3928   -1.2688    0.0000 H   0  0  0  0  0  0  0  0  0  0  0  0
    6.7913   -0.5785    0.0000 H   0  0  0  0  0  0  0  0  0  0  0  0
   16.8554   -1.3401    0.0000 H   0  0  0  0  0  0  0  0  0  0  0  0
   16.1651   -0.9416    0.0000 H   0  0  0  0  0  0  0  0  0  0  0  0
    4.7778    0.5038    0.0000 H   0  0  0  0  0  0  0  0  0  0  0  0
   10.2649    3.3138    0.0000 H   0  0  0  0  0  0  0  0  0  0  0  0
    9.6448    3.9338    0.0000 H   0  0  0  0  0  0  0  0  0  0  0  0
    9.0248    3.3138    0.0000 H   0  0  0  0  0  0  0  0  0  0  0  0
   10.2009    1.2769    0.0000 H   0  0  0  0  0  0  0  0  0  0  0  0
   11.0478    1.5038    0.0000 H   0  0  0  0  0  0  0  0  0  0  0  0
   10.8209    2.3508    0.0000 H   0  0  0  0  0  0  0  0  0  0  0  0
   17.7358   -5.3263    0.0000 H   0  0  0  0  0  0  0  0  0  0  0  0
   18.5828   -5.5532    0.0000 H   0  0  0  0  0  0  0  0  0  0  0  0
   18.8097   -4.7063    0.0000 H   0  0  0  0  0  0  0  0  0  0  0  0
    7.5837    2.1238    0.0000 H   0  0  0  0  0  0  0  0  0  0  0  0
   11.3769    0.9338    0.0000 H   0  0  0  0  0  0  0  0  0  0  0  0
    9.9739   -1.4962    0.0000 H   0  0  0  0  0  0  0  0  0  0  0  0
    5.8517   -2.4962    0.0000 H   0  0  0  0  0  0  0  0  0  0  0  0
    4.4487   -0.0662    0.0000 H   0  0  0  0  0  0  0  0  0  0  0  0
   11.3769   -2.3062    0.0000 H   0  0  0  0  0  0  0  0  0  0  0  0
   15.8097   -0.1301    0.0000 H   0  0  0  0  0  0  0  0  0  0  0  0
   15.5828    0.7168    0.0000 H   0  0  0  0  0  0  0  0  0  0  0  0
   14.7358    0.4899    0.0000 H   0  0  0  0  0  0  0  0  0  0  0  0
    4.4487   -3.3062    0.0000 H   0  0  0  0  0  0  0  0  0  0  0  0
    3.0457   -0.8762    0.0000 H   0  0  0  0  0  0  0  0  0  0  0  0
    3.0457   -2.4962    0.0000 H   0  0  0  0  0  0  0  0  0  0  0  0
    5.0593    3.2062    0.0000 H   0  0  0  0  0  0  0  0  0  0  0  0
    4.6608    3.8965    0.0000 H   0  0  0  0  0  0  0  0  0  0  0  0
    3.9389    5.2232    0.0000 H   0  0  0  0  0  0  0  0  0  0  0  0
    1.3834    4.0854    0.0000 H   0  0  0  0  0  0  0  0  0  0  0  0
  1  5  2  0  0  0  0
  1  6  2  0  0  0  0
  1 10  1  0  0  0  0
  1 28  1  0  0  0  0
  2 36  1  0  0  0  0
  2 42  1  0  0  0  0
  3 48  1  0  0  0  0
  3 50  1  0  0  0  0
 17  4  1  6  0  0  0
  4 80  1  0  0  0  0
  7 38  1  0  0  0  0
  7 47  1  0  0  0  0
  8 33  2  0  0  0  0
  9 38  2  0  0  0  0
 10 18  1  0  0  0  0
 10 20  1  0  0  0  0
 11 22  1  0  0  0  0
 11 23  1  0  0  0  0
 11 27  1  0  0  0  0
 12 24  1  0  0  0  0
 12 25  1  0  0  0  0
 12 32  1  0  0  0  0
 19 13  1  6  0  0  0
 13 38  1  0  0  0  0
 13 70  1  0  0  0  0
 14 33  1  0  0  0  0
 14 42  1  0  0  0  0
 14 43  1  0  0  0  0
 15 37  1  0  0  0  0
 15 42  2  0  0  0  0
 16 49  1  0  0  0  0
 16 50  2  0  0  0  0
 17 18  1  0  0  0  0
 17 19  1  0  0  0  0
 17 51  1  0  0  0  0
 18 52  1  0  0  0  0
 18 53  1  0  0  0  0
 19 26  1  0  0  0  0
 19 54  1  0  0  0  0
 20 21  1  0  0  0  0
 20 55  1  0  0  0  0
 20 56  1  0  0  0  0
 21 29  1  0  0  0  0
 21 30  1  0  0  0  0
 21 57  1  0  0  0  0
 22 24  1  0  0  0  0
 22 58  1  0  0  0  0
 22 59  1  0  0  0  0
 23 25  1  0  0  0  0
 23 60  1  0  0  0  0
 23 61  1  0  0  0  0
 24 62  1  0  0  0  0
 24 63  1  0  0  0  0
 25 64  1  0  0  0  0
 25 65  1  0  0  0  0
 26 31  1  0  0  0  0
 26 66  1  0  0  0  0
 26 67  1  0  0  0  0
 27 33  1  0  0  0  0
 27 68  1  0  0  0  0
 27 69  1  0  0  0  0
 28 34  2  0  0  0  0
 28 35  1  0  0  0  0
 29 71  1  0  0  0  0
 29 72  1  0  0  0  0
 29 73  1  0  0  0  0
 30 74  1  0  0  0  0
 30 75  1  0  0  0  0
 30 76  1  0  0  0  0
 31 39  2  0  0  0  0
 31 40  1  0  0  0  0
 32 77  1  0  0  0  0
 32 78  1  0  0  0  0
 32 79  1  0  0  0  0
 34 36  1  0  0  0  0
 34 81  1  0  0  0  0
 35 41  2  0  0  0  0
 35 82  1  0  0  0  0
 36 37  2  0  0  0  0
 37 41  1  0  0  0  0
 39 44  1  0  0  0  0
 39 83  1  0  0  0  0
 40 45  2  0  0  0  0
 40 84  1  0  0  0  0
 41 85  1  0  0  0  0
 43 86  1  0  0  0  0
 43 87  1  0  0  0  0
 43 88  1  0  0  0  0
 44 46  2  0  0  0  0
 44 89  1  0  0  0  0
 45 46  1  0  0  0  0
 45 90  1  0  0  0  0
 46 91  1  0  0  0  0
 47 48  1  0  0  0  0
 47 92  1  0  0  0  0
 47 93  1  0  0  0  0
 48 49  2  0  0  0  0
 49 94  1  0  0  0  0
 50 95  1  0  0  0  0
M  END
> <PUBCHEM_COMPOUND_CID>
509738
> <PUBCHEM_COMPOUND_CANONICALIZED>
1
> <PUBCHEM_CACTVS_COMPLEXITY>
1200
> <PUBCHEM_CACTVS_HBOND_ACCEPTOR>
13
> <PUBCHEM_CACTVS_HBOND_DONOR>
2
> <PUBCHEM_CACTVS_ROTATABLE_BOND>
16
> <PUBCHEM_CACTVS_SUBSKEYS>
AAADcfB/uABgAAAAAAAAAAAAAAAAAWLAAAA8YIAAAAAAAFgB/AAAHgQQSAAADTzh3ga/2bPIFgqsAzV3fHDD8LlxCjhJ2Ly4bJmKdKLg+bmcYAhulwLY6CeQwKAOAAQAAEAAAQAACAAAgAACAAAAAAAAAA==
> <PUBCHEM_IUPAC_OPENEYE_NAME>
thiazol-5-ylmethyl N-[(1S,2R)-1-benzyl-2-hydroxy-3-[isobutyl-[[2-[methyl-[2-(4-methylpiperazin-1-yl)acetyl]amino]-1,3-benzothiazol-6-yl]sulfonyl]amino]propyl]carbamate
> <PUBCHEM_IUPAC_CAS_NAME>
N-[(2S,3R)-3-hydroxy-4-[[2-[methyl-[2-(4-methyl-1-piperazinyl)-1-oxoethyl]amino]-1,3-benzothiazol-6-yl]sulfonyl-(2-methylpropyl)amino]-1-phenylbutan-2-yl]carbamic acid 5-thiazolylmethyl ester
> <PUBCHEM_IUPAC_NAME_MARKUP>
1,3-thiazol-5-ylmethyl <I>N</I>-[(2<I>S</I>,3<I>R</I>)-3-hydroxy-4-[[2-[methyl-[2-(4-methylpiperazin-1-yl)acetyl]amino]-1,3-benzothiazol-6-yl]sulfonyl-(2-methylpropyl)amino]-1-phenylbutan-2-yl]carbamate
> <PUBCHEM_IUPAC_NAME>
1,3-thiazol-5-ylmethyl N-[(2S,3R)-3-hydroxy-4-[[2-[methyl-[2-(4-methylpiperazin-1-yl)acetyl]amino]-1,3-benzothiazol-6-yl]sulfonyl-(2-methylpropyl)amino]-1-phenylbutan-2-yl]carbamate
> <PUBCHEM_IUPAC_SYSTEMATIC_NAME>
1,3-thiazol-5-ylmethyl N-[(2S,3R)-4-[[2-[methyl-[2-(4-methylpiperazin-1-yl)ethanoyl]amino]-1,3-benzothiazol-6-yl]sulfonyl-(2-methylpropyl)amino]-3-oxidanyl-1-phenyl-butan-2-yl]carbamate
> <PUBCHEM_IUPAC_TRADITIONAL_NAME>
N-[(1S,2R)-1-benzyl-2-hydroxy-3-[isobutyl-[[2-[methyl-[2-(4-methylpiperazino)acetyl]amino]-1,3-benzothiazol-6-yl]sulfonyl]amino]propyl]carbamic acid thiazol-5-ylmethyl ester
> <PUBCHEM_IUPAC_INCHI>
InChI=1S/C34H45N7O6S3/c1-24(2)19-41(20-30(42)29(16-25-8-6-5-7-9-25)37-34(44)47-22-26-18-35-23-48-26)50(45,46)27-10-11-28-31(17-27)49-33(36-28)39(4)32(43)21-40-14-12-38(3)13-15-40/h5-11,17-18,23-24,29-30,42H,12-16,19-22H2,1-4H3,(H,37,44)/t29-,30+/m0/s1
> <PUBCHEM_IUPAC_INCHIKEY>
BMIKVBDAIXKJDQ-XZWHSSHBSA-N
> <PUBCHEM_XLOGP3_AA>
4.1
> <PUBCHEM_EXACT_MASS>
743.25934570
> <PUBCHEM_MOLECULAR_FORMULA>
C34H45N7O6S3
> <PUBCHEM_MOLECULAR_WEIGHT>
744.0
> <PUBCHEM_OPENEYE_CAN_SMILES>
CC(C)CN(CC(C(CC1=CC=CC=C1)NC(=O)OCC2=CN=CS2)O)S(=O)(=O)C3=CC4=C(C=C3)N=C(S4)N(C)C(=O)CN5CCN(CC5)C
> <PUBCHEM_OPENEYE_ISO_SMILES>
CC(C)CN(C[C@H]([C@H](CC1=CC=CC=C1)NC(=O)OCC2=CN=CS2)O)S(=O)(=O)C3=CC4=C(C=C3)N=C(S4)N(C)C(=O)CN5CCN(CC5)C
> <PUBCHEM_CACTVS_TPSA>
213
> <PUBCHEM_MONOISOTOPIC_WEIGHT>
743.25934570
> <PUBCHEM_TOTAL_CHARGE>
0
> <PUBCHEM_HEAVY_ATOM_COUNT>
50
> <PUBCHEM_ATOM_DEF_STEREO_COUNT>
2
> <PUBCHEM_ATOM_UDEF_STEREO_COUNT>
0
> <PUBCHEM_BOND_DEF_STEREO_COUNT>
0
> <PUBCHEM_BOND_UDEF_STEREO_COUNT>
0
> <PUBCHEM_ISOTOPIC_ATOM_COUNT>
0
> <PUBCHEM_COMPONENT_COUNT>
1
> <PUBCHEM_CACTVS_TAUTO_COUNT>
-1
> <PUBCHEM_COORDINATE_TYPE>
1
5
255
> <PUBCHEM_BONDANNOTATIONS>
19  13  6
15  37  8
15  42  8
16  49  8
16  50  8
2  36  8
2  42  8
28  34  8
28  35  8
3  48  8
3  50  8
31  39  8
31  40  8
34  36  8
35  41  8
36  37  8
37  41  8
39  44  8
17  4  6
40  45  8
44  46  8
45  46  8
48  49  8
$$$$
