509787
  -OEChem-10302200282D
 53 56  0     1  0  0  0  0  0999 V2000
    2.1208   -3.7590    0.0000 Cl  0  0  0  0  0  0  0  0  0  0  0  0
    4.0156    0.4968    0.0000 S   0  0  0  0  0  0  0  0  0  0  0  0
    5.2343   -2.2404    0.0000 O   0  0  0  0  0  0  0  0  0  0  0  0
    4.7687    2.1119    0.0000 N   0  0  0  0  0  0  0  0  0  0  0  0
    5.6326    0.5533    0.0000 N   0  0  0  0  0  0  0  0  0  0  0  0
    5.3570   -0.4080    0.0000 N   0  0  0  0  0  0  0  0  0  0  0  0
    3.7984   -1.2719    0.0000 N   0  0  0  0  0  0  0  0  0  0  0  0
    8.2018    4.5157    0.0000 C   0  0  0  0  0  0  0  0  0  0  0  0
    6.8029    4.5068    0.0000 C   0  0  3  0  0  0  0  0  0  0  0  0
    7.0617    5.4728    0.0000 C   0  0  3  0  0  0  0  0  0  0  0  0
    6.3251    6.4554    0.0000 C   0  0  0  0  0  0  0  0  0  0  0  0
    5.5818    3.6412    0.0000 C   0  0  1  0  0  0  0  0  0  0  0  0
    5.0284    5.1616    0.0000 C   0  0  0  0  0  0  0  0  0  0  0  0
    4.7528    4.2004    0.0000 C   0  0  0  0  0  0  0  0  0  0  0  0
    8.7018    3.6496    0.0000 C   0  0  0  0  0  0  0  0  0  0  0  0
    9.0678    5.0157    0.0000 C   0  0  0  0  0  0  0  0  0  0  0  0
    5.6167    2.6418    0.0000 C   0  0  0  0  0  0  0  0  0  0  0  0
    4.8036    1.1125    0.0000 C   0  0  0  0  0  0  0  0  0  0  0  0
    4.3576   -0.4429    0.0000 C   0  0  0  0  0  0  0  0  0  0  0  0
    4.2368   -2.1707    0.0000 C   0  0  0  0  0  0  0  0  0  0  0  0
    3.6776   -2.9997    0.0000 C   0  0  0  0  0  0  0  0  0  0  0  0
    4.1160   -3.8985    0.0000 C   0  0  0  0  0  0  0  0  0  0  0  0
    3.5568   -4.7276    0.0000 C   0  0  0  0  0  0  0  0  0  0  0  0
    2.5592   -4.6578    0.0000 C   0  0  0  0  0  0  0  0  0  0  0  0
    3.9951   -5.6264    0.0000 C   0  0  0  0  0  0  0  0  0  0  0  0
    2.0000   -5.4868    0.0000 C   0  0  0  0  0  0  0  0  0  0  0  0
    3.4359   -6.4554    0.0000 C   0  0  0  0  0  0  0  0  0  0  0  0
    2.4384   -6.3856    0.0000 C   0  0  0  0  0  0  0  0  0  0  0  0
    6.9929    3.9167    0.0000 H   0  0  0  0  0  0  0  0  0  0  0  0
    7.5120    5.8990    0.0000 H   0  0  0  0  0  0  0  0  0  0  0  0
    6.6429    6.9878    0.0000 H   0  0  0  0  0  0  0  0  0  0  0  0
    5.7119    6.5474    0.0000 H   0  0  0  0  0  0  0  0  0  0  0  0
    5.0396    3.3406    0.0000 H   0  0  0  0  0  0  0  0  0  0  0  0
    5.0234    5.7816    0.0000 H   0  0  0  0  0  0  0  0  0  0  0  0
    4.4141    5.2454    0.0000 H   0  0  0  0  0  0  0  0  0  0  0  0
    4.1779    4.4326    0.0000 H   0  0  0  0  0  0  0  0  0  0  0  0
    4.4617    3.6530    0.0000 H   0  0  0  0  0  0  0  0  0  0  0  0
    8.1649    3.3396    0.0000 H   0  0  0  0  0  0  0  0  0  0  0  0
    9.0118    3.1127    0.0000 H   0  0  0  0  0  0  0  0  0  0  0  0
    9.2387    3.9596    0.0000 H   0  0  0  0  0  0  0  0  0  0  0  0
    9.3778    4.4787    0.0000 H   0  0  0  0  0  0  0  0  0  0  0  0
    9.6048    5.3257    0.0000 H   0  0  0  0  0  0  0  0  0  0  0  0
    8.7578    5.5526    0.0000 H   0  0  0  0  0  0  0  0  0  0  0  0
    5.8490    2.0670    0.0000 H   0  0  0  0  0  0  0  0  0  0  0  0
    6.2232    2.7707    0.0000 H   0  0  0  0  0  0  0  0  0  0  0  0
    4.2213    2.4030    0.0000 H   0  0  0  0  0  0  0  0  0  0  0  0
    3.1799   -1.2286    0.0000 H   0  0  0  0  0  0  0  0  0  0  0  0
    3.0591   -2.9565    0.0000 H   0  0  0  0  0  0  0  0  0  0  0  0
    4.7344   -3.9418    0.0000 H   0  0  0  0  0  0  0  0  0  0  0  0
    4.6136   -5.6696    0.0000 H   0  0  0  0  0  0  0  0  0  0  0  0
    1.3815   -5.4436    0.0000 H   0  0  0  0  0  0  0  0  0  0  0  0
    3.7077   -7.0126    0.0000 H   0  0  0  0  0  0  0  0  0  0  0  0
    2.0917   -6.8996    0.0000 H   0  0  0  0  0  0  0  0  0  0  0  0
  1 24  1  0  0  0  0
  2 18  1  0  0  0  0
  2 19  1  0  0  0  0
  3 20  2  0  0  0  0
  4 17  1  0  0  0  0
  4 18  1  0  0  0  0
  4 46  1  0  0  0  0
  5  6  1  0  0  0  0
  5 18  2  0  0  0  0
  6 19  2  0  0  0  0
  7 19  1  0  0  0  0
  7 20  1  0  0  0  0
  7 47  1  0  0  0  0
  8  9  1  0  0  0  0
  8 10  1  0  0  0  0
  8 15  1  0  0  0  0
  8 16  1  0  0  0  0
  9 11  1  0  0  0  0
  9 12  1  0  0  0  0
  9 29  1  0  0  0  0
 10 11  1  0  0  0  0
 10 13  1  0  0  0  0
 10 30  1  0  0  0  0
 11 31  1  0  0  0  0
 11 32  1  0  0  0  0
 12 14  1  0  0  0  0
 12 17  1  6  0  0  0
 12 33  1  0  0  0  0
 13 14  1  0  0  0  0
 13 34  1  0  0  0  0
 13 35  1  0  0  0  0
 14 36  1  0  0  0  0
 14 37  1  0  0  0  0
 15 38  1  0  0  0  0
 15 39  1  0  0  0  0
 15 40  1  0  0  0  0
 16 41  1  0  0  0  0
 16 42  1  0  0  0  0
 16 43  1  0  0  0  0
 17 44  1  0  0  0  0
 17 45  1  0  0  0  0
 20 21  1  0  0  0  0
 21 22  2  3  0  0  0
 21 48  1  0  0  0  0
 22 23  1  0  0  0  0
 22 49  1  0  0  0  0
 23 24  1  0  0  0  0
 23 25  2  0  0  0  0
 24 26  2  0  0  0  0
 25 27  1  0  0  0  0
 25 50  1  0  0  0  0
 26 28  1  0  0  0  0
 26 51  1  0  0  0  0
 27 28  2  0  0  0  0
 27 52  1  0  0  0  0
 28 53  1  0  0  0  0
M  END
> <PUBCHEM_COMPOUND_CID>
509787
> <PUBCHEM_COMPOUND_CANONICALIZED>
1
> <PUBCHEM_CACTVS_COMPLEXITY>
601
> <PUBCHEM_CACTVS_HBOND_ACCEPTOR>
5
> <PUBCHEM_CACTVS_HBOND_DONOR>
2
> <PUBCHEM_CACTVS_ROTATABLE_BOND>
6
> <PUBCHEM_CACTVS_SUBSKEYS>
AAADceB7oABEAAAAAAAAAAAAAABgAWAAAAAwYMAAAAAAAAABwAAAHgYYAAAADwLBmCQzEILAAAiuAiFSMACSAAJgBQkNiIAIAsiIICKBmxCEIAAwkQIIiYcQgMAPgAAAAAABAACAAAQAACIAAAAAAAAAAA==
> <PUBCHEM_IUPAC_OPENEYE_NAME>
3-(2-chlorophenyl)-N-[5-[[(2R)-6,6-dimethylnorpinan-2-yl]methylamino]-1,3,4-thiadiazol-2-yl]prop-2-enamide
> <PUBCHEM_IUPAC_CAS_NAME>
3-(2-chlorophenyl)-N-[5-[[(2R)-6,6-dimethyl-2-bicyclo[3.1.1]heptanyl]methylamino]-1,3,4-thiadiazol-2-yl]-2-propenamide
> <PUBCHEM_IUPAC_NAME_MARKUP>
3-(2-chlorophenyl)-<I>N</I>-[5-[[(2<I>R</I>)-6,6-dimethyl-2-bicyclo[3.1.1]heptanyl]methylamino]-1,3,4-thiadiazol-2-yl]prop-2-enamide
> <PUBCHEM_IUPAC_NAME>
3-(2-chlorophenyl)-N-[5-[[(2R)-6,6-dimethyl-2-bicyclo[3.1.1]heptanyl]methylamino]-1,3,4-thiadiazol-2-yl]prop-2-enamide
> <PUBCHEM_IUPAC_SYSTEMATIC_NAME>
3-(2-chlorophenyl)-N-[5-[[(2R)-6,6-dimethyl-2-bicyclo[3.1.1]heptanyl]methylamino]-1,3,4-thiadiazol-2-yl]prop-2-enamide
> <PUBCHEM_IUPAC_TRADITIONAL_NAME>
3-(2-chlorophenyl)-N-[5-[[(2R)-6,6-dimethylnorpinan-2-yl]methylamino]-1,3,4-thiadiazol-2-yl]acrylamide
> <PUBCHEM_IUPAC_INCHI>
InChI=1S/C21H25ClN4OS/c1-21(2)15-9-7-14(16(21)11-15)12-23-19-25-26-20(28-19)24-18(27)10-8-13-5-3-4-6-17(13)22/h3-6,8,10,14-16H,7,9,11-12H2,1-2H3,(H,23,25)(H,24,26,27)/t14-,15?,16?/m0/s1
> <PUBCHEM_IUPAC_INCHIKEY>
BPVXWIBEXLMPRK-FHERZECASA-N
> <PUBCHEM_XLOGP3_AA>
5.9
> <PUBCHEM_EXACT_MASS>
416.1437603
> <PUBCHEM_MOLECULAR_FORMULA>
C21H25ClN4OS
> <PUBCHEM_MOLECULAR_WEIGHT>
417.0
> <PUBCHEM_OPENEYE_CAN_SMILES>
CC1(C2CCC(C1C2)CNC3=NN=C(S3)NC(=O)C=CC4=CC=CC=C4Cl)C
> <PUBCHEM_OPENEYE_ISO_SMILES>
CC1(C2CC[C@H](C1C2)CNC3=NN=C(S3)NC(=O)C=CC4=CC=CC=C4Cl)C
> <PUBCHEM_CACTVS_TPSA>
95.2
> <PUBCHEM_MONOISOTOPIC_WEIGHT>
416.1437603
> <PUBCHEM_TOTAL_CHARGE>
0
> <PUBCHEM_HEAVY_ATOM_COUNT>
28
> <PUBCHEM_ATOM_DEF_STEREO_COUNT>
1
> <PUBCHEM_ATOM_UDEF_STEREO_COUNT>
2
> <PUBCHEM_BOND_DEF_STEREO_COUNT>
0
> <PUBCHEM_BOND_UDEF_STEREO_COUNT>
1
> <PUBCHEM_ISOTOPIC_ATOM_COUNT>
0
> <PUBCHEM_COMPONENT_COUNT>
1
> <PUBCHEM_CACTVS_TAUTO_COUNT>
-1
> <PUBCHEM_COORDINATE_TYPE>
1
5
255
> <PUBCHEM_BONDANNOTATIONS>
10  13  3
12  17  6
2  18  8
2  19  8
21  22  1
23  24  8
23  25  8
24  26  8
25  27  8
26  28  8
27  28  8
5  18  8
5  6  8
6  19  8
9  11  3
$$$$
