509717
  -OEChem-10302200282D
 81 84  0     1  0  0  0  0  0999 V2000
    9.6448   -0.7167    0.0000 S   0  0  0  0  0  0  0  0  0  0  0  0
   13.1891   -0.9120    0.0000 S   0  0  0  0  0  0  0  0  0  0  0  0
    3.4782    3.7778    0.0000 S   0  0  0  0  0  0  0  0  0  0  0  0
    7.0468    0.7833    0.0000 O   0  0  0  0  0  0  0  0  0  0  0  0
    9.1448   -1.5828    0.0000 O   0  0  0  0  0  0  0  0  0  0  0  0
   10.1449    0.1493    0.0000 O   0  0  0  0  0  0  0  0  0  0  0  0
    4.4487    1.2833    0.0000 O   0  0  0  0  0  0  0  0  0  0  0  0
    6.1808    1.2833    0.0000 O   0  0  0  0  0  0  0  0  0  0  0  0
    8.7788   -0.2167    0.0000 N   0  0  3  0  0  0  0  0  0  0  0  0
    5.3147   -0.2167    0.0000 N   0  0  0  0  0  0  0  0  0  0  0  0
   13.1891   -2.5215    0.0000 N   0  0  0  0  0  0  0  0  0  0  0  0
   14.7728   -1.7167    0.0000 N   0  0  0  0  0  0  0  0  0  0  0  0
   16.7728   -3.4488    0.0000 N   0  0  0  0  0  0  0  0  0  0  0  0
    2.0000    3.1197    0.0000 N   0  0  0  0  0  0  0  0  0  0  0  0
    7.0468   -0.2167    0.0000 C   0  0  2  0  0  0  0  0  0  0  0  0
    7.9128   -0.7167    0.0000 C   0  0  0  0  0  0  0  0  0  0  0  0
    6.1808   -0.7167    0.0000 C   0  0  2  0  0  0  0  0  0  0  0  0
    8.7788    0.7833    0.0000 C   0  0  0  0  0  0  0  0  0  0  0  0
    9.6448    1.2833    0.0000 C   0  0  0  0  0  0  0  0  0  0  0  0
    6.1808   -1.7167    0.0000 C   0  0  0  0  0  0  0  0  0  0  0  0
   10.5109   -1.2167    0.0000 C   0  0  0  0  0  0  0  0  0  0  0  0
    9.6448    2.2833    0.0000 C   0  0  0  0  0  0  0  0  0  0  0  0
   10.5109    0.7833    0.0000 C   0  0  0  0  0  0  0  0  0  0  0  0
    5.3147   -2.2167    0.0000 C   0  0  0  0  0  0  0  0  0  0  0  0
   11.3769   -0.7167    0.0000 C   0  0  0  0  0  0  0  0  0  0  0  0
   10.5109   -2.2167    0.0000 C   0  0  0  0  0  0  0  0  0  0  0  0
    5.3147    0.7833    0.0000 C   0  0  0  0  0  0  0  0  0  0  0  0
    5.3147   -3.2167    0.0000 C   0  0  0  0  0  0  0  0  0  0  0  0
    4.4487   -1.7167    0.0000 C   0  0  0  0  0  0  0  0  0  0  0  0
   12.2429   -1.2167    0.0000 C   0  0  0  0  0  0  0  0  0  0  0  0
   11.3769   -2.7167    0.0000 C   0  0  0  0  0  0  0  0  0  0  0  0
   12.2429   -2.2167    0.0000 C   0  0  0  0  0  0  0  0  0  0  0  0
    4.4487   -3.7167    0.0000 C   0  0  0  0  0  0  0  0  0  0  0  0
    3.5827   -2.2167    0.0000 C   0  0  0  0  0  0  0  0  0  0  0  0
    3.5827   -3.2167    0.0000 C   0  0  0  0  0  0  0  0  0  0  0  0
   13.7728   -1.7167    0.0000 C   0  0  0  0  0  0  0  0  0  0  0  0
    4.4487    2.2833    0.0000 C   0  0  0  0  0  0  0  0  0  0  0  0
   15.2728   -2.5828    0.0000 C   0  0  0  0  0  0  0  0  0  0  0  0
    3.5827    2.7833    0.0000 C   0  0  0  0  0  0  0  0  0  0  0  0
   16.2728   -2.5828    0.0000 C   0  0  0  0  0  0  0  0  0  0  0  0
    2.6691    2.3765    0.0000 C   0  0  0  0  0  0  0  0  0  0  0  0
   17.7728   -3.4488    0.0000 C   0  0  0  0  0  0  0  0  0  0  0  0
    2.5000    3.9857    0.0000 C   0  0  0  0  0  0  0  0  0  0  0  0
    7.5837    0.0933    0.0000 H   0  0  0  0  0  0  0  0  0  0  0  0
    7.5143   -1.1917    0.0000 H   0  0  0  0  0  0  0  0  0  0  0  0
    8.3113   -1.1917    0.0000 H   0  0  0  0  0  0  0  0  0  0  0  0
    6.1808   -0.0967    0.0000 H   0  0  0  0  0  0  0  0  0  0  0  0
    8.5668    1.3659    0.0000 H   0  0  0  0  0  0  0  0  0  0  0  0
    8.1682    0.6756    0.0000 H   0  0  0  0  0  0  0  0  0  0  0  0
    9.1079    1.5933    0.0000 H   0  0  0  0  0  0  0  0  0  0  0  0
    6.3928   -2.2993    0.0000 H   0  0  0  0  0  0  0  0  0  0  0  0
    6.7913   -1.6091    0.0000 H   0  0  0  0  0  0  0  0  0  0  0  0
    4.7778   -0.5267    0.0000 H   0  0  0  0  0  0  0  0  0  0  0  0
   10.2649    2.2833    0.0000 H   0  0  0  0  0  0  0  0  0  0  0  0
    9.6448    2.9033    0.0000 H   0  0  0  0  0  0  0  0  0  0  0  0
    9.0248    2.2833    0.0000 H   0  0  0  0  0  0  0  0  0  0  0  0
   10.2009    0.2463    0.0000 H   0  0  0  0  0  0  0  0  0  0  0  0
   11.0478    0.4733    0.0000 H   0  0  0  0  0  0  0  0  0  0  0  0
   10.8209    1.3202    0.0000 H   0  0  0  0  0  0  0  0  0  0  0  0
    7.5837    1.0933    0.0000 H   0  0  0  0  0  0  0  0  0  0  0  0
   11.3769   -0.0967    0.0000 H   0  0  0  0  0  0  0  0  0  0  0  0
    9.9739   -2.5267    0.0000 H   0  0  0  0  0  0  0  0  0  0  0  0
    5.8517   -3.5267    0.0000 H   0  0  0  0  0  0  0  0  0  0  0  0
    4.4487   -1.0967    0.0000 H   0  0  0  0  0  0  0  0  0  0  0  0
   11.3769   -3.3367    0.0000 H   0  0  0  0  0  0  0  0  0  0  0  0
    4.4487   -4.3367    0.0000 H   0  0  0  0  0  0  0  0  0  0  0  0
    3.0457   -1.9067    0.0000 H   0  0  0  0  0  0  0  0  0  0  0  0
    3.0457   -3.5267    0.0000 H   0  0  0  0  0  0  0  0  0  0  0  0
    5.0593    2.1756    0.0000 H   0  0  0  0  0  0  0  0  0  0  0  0
    4.6608    2.8659    0.0000 H   0  0  0  0  0  0  0  0  0  0  0  0
   15.0828   -1.1798    0.0000 H   0  0  0  0  0  0  0  0  0  0  0  0
   14.6902   -2.7948    0.0000 H   0  0  0  0  0  0  0  0  0  0  0  0
   15.3804   -3.1933    0.0000 H   0  0  0  0  0  0  0  0  0  0  0  0
   16.8554   -2.3707    0.0000 H   0  0  0  0  0  0  0  0  0  0  0  0
   16.1651   -1.9722    0.0000 H   0  0  0  0  0  0  0  0  0  0  0  0
   16.4628   -3.9857    0.0000 H   0  0  0  0  0  0  0  0  0  0  0  0
    2.5402    1.7701    0.0000 H   0  0  0  0  0  0  0  0  0  0  0  0
   17.7728   -4.0688    0.0000 H   0  0  0  0  0  0  0  0  0  0  0  0
   18.3928   -3.4488    0.0000 H   0  0  0  0  0  0  0  0  0  0  0  0
   17.7728   -2.8288    0.0000 H   0  0  0  0  0  0  0  0  0  0  0  0
    2.2478    4.5521    0.0000 H   0  0  0  0  0  0  0  0  0  0  0  0
  1  5  2  0  0  0  0
  1  6  2  0  0  0  0
  1  9  1  0  0  0  0
  1 21  1  0  0  0  0
  2 30  1  0  0  0  0
  2 36  1  0  0  0  0
  3 39  1  0  0  0  0
  3 43  1  0  0  0  0
 15  4  1  6  0  0  0
  4 60  1  0  0  0  0
  7 27  1  0  0  0  0
  7 37  1  0  0  0  0
  8 27  2  0  0  0  0
  9 16  1  0  0  0  0
  9 18  1  0  0  0  0
 17 10  1  6  0  0  0
 10 27  1  0  0  0  0
 10 53  1  0  0  0  0
 11 32  1  0  0  0  0
 11 36  2  0  0  0  0
 12 36  1  0  0  0  0
 12 38  1  0  0  0  0
 12 71  1  0  0  0  0
 13 40  1  0  0  0  0
 13 42  1  0  0  0  0
 13 76  1  0  0  0  0
 14 41  1  0  0  0  0
 14 43  2  0  0  0  0
 15 16  1  0  0  0  0
 15 17  1  0  0  0  0
 15 44  1  0  0  0  0
 16 45  1  0  0  0  0
 16 46  1  0  0  0  0
 17 20  1  0  0  0  0
 17 47  1  0  0  0  0
 18 19  1  0  0  0  0
 18 48  1  0  0  0  0
 18 49  1  0  0  0  0
 19 22  1  0  0  0  0
 19 23  1  0  0  0  0
 19 50  1  0  0  0  0
 20 24  1  0  0  0  0
 20 51  1  0  0  0  0
 20 52  1  0  0  0  0
 21 25  2  0  0  0  0
 21 26  1  0  0  0  0
 22 54  1  0  0  0  0
 22 55  1  0  0  0  0
 22 56  1  0  0  0  0
 23 57  1  0  0  0  0
 23 58  1  0  0  0  0
 23 59  1  0  0  0  0
 24 28  2  0  0  0  0
 24 29  1  0  0  0  0
 25 30  1  0  0  0  0
 25 61  1  0  0  0  0
 26 31  2  0  0  0  0
 26 62  1  0  0  0  0
 28 33  1  0  0  0  0
 28 63  1  0  0  0  0
 29 34  2  0  0  0  0
 29 64  1  0  0  0  0
 30 32  2  0  0  0  0
 31 32  1  0  0  0  0
 31 65  1  0  0  0  0
 33 35  2  0  0  0  0
 33 66  1  0  0  0  0
 34 35  1  0  0  0  0
 34 67  1  0  0  0  0
 35 68  1  0  0  0  0
 37 39  1  0  0  0  0
 37 69  1  0  0  0  0
 37 70  1  0  0  0  0
 38 40  1  0  0  0  0
 38 72  1  0  0  0  0
 38 73  1  0  0  0  0
 39 41  2  0  0  0  0
 40 74  1  0  0  0  0
 40 75  1  0  0  0  0
 41 77  1  0  0  0  0
 42 78  1  0  0  0  0
 42 79  1  0  0  0  0
 42 80  1  0  0  0  0
 43 81  1  0  0  0  0
M  END
> <PUBCHEM_COMPOUND_CID>
509717
> <PUBCHEM_COMPOUND_CANONICALIZED>
1
> <PUBCHEM_CACTVS_COMPLEXITY>
951
> <PUBCHEM_CACTVS_HBOND_ACCEPTOR>
12
> <PUBCHEM_CACTVS_HBOND_DONOR>
4
> <PUBCHEM_CACTVS_ROTATABLE_BOND>
17
> <PUBCHEM_CACTVS_SUBSKEYS>
AAADcfB7uABgAAAAAAAAAAAAAAAAAWLAAAAwYAAAAAAAAFgB/AAAHgQQSAAADTzh3ga/2bLIFgqsAzRnfHDD8LlxCjlJ2Lw4bJmKdKLg+ZmcYAhulgLY6CeQwKAOAAQAAEAAAQAACAAAgAACAAAAAAAAAA==
> <PUBCHEM_IUPAC_OPENEYE_NAME>
thiazol-5-ylmethyl N-[(1S,2R)-1-benzyl-2-hydroxy-3-[isobutyl-[[2-[2-(methylamino)ethylamino]-1,3-benzothiazol-6-yl]sulfonyl]amino]propyl]carbamate
> <PUBCHEM_IUPAC_CAS_NAME>
N-[(2S,3R)-3-hydroxy-4-[[2-[2-(methylamino)ethylamino]-1,3-benzothiazol-6-yl]sulfonyl-(2-methylpropyl)amino]-1-phenylbutan-2-yl]carbamic acid 5-thiazolylmethyl ester
> <PUBCHEM_IUPAC_NAME_MARKUP>
1,3-thiazol-5-ylmethyl <I>N</I>-[(2<I>S</I>,3<I>R</I>)-3-hydroxy-4-[[2-[2-(methylamino)ethylamino]-1,3-benzothiazol-6-yl]sulfonyl-(2-methylpropyl)amino]-1-phenylbutan-2-yl]carbamate
> <PUBCHEM_IUPAC_NAME>
1,3-thiazol-5-ylmethyl N-[(2S,3R)-3-hydroxy-4-[[2-[2-(methylamino)ethylamino]-1,3-benzothiazol-6-yl]sulfonyl-(2-methylpropyl)amino]-1-phenylbutan-2-yl]carbamate
> <PUBCHEM_IUPAC_SYSTEMATIC_NAME>
1,3-thiazol-5-ylmethyl N-[(2S,3R)-4-[[2-[2-(methylamino)ethylamino]-1,3-benzothiazol-6-yl]sulfonyl-(2-methylpropyl)amino]-3-oxidanyl-1-phenyl-butan-2-yl]carbamate
> <PUBCHEM_IUPAC_TRADITIONAL_NAME>
N-[(1S,2R)-1-benzyl-2-hydroxy-3-[isobutyl-[[2-[2-(methylamino)ethylamino]-1,3-benzothiazol-6-yl]sulfonyl]amino]propyl]carbamic acid thiazol-5-ylmethyl ester
> <PUBCHEM_IUPAC_INCHI>
InChI=1S/C29H38N6O5S3/c1-20(2)16-35(43(38,39)23-9-10-24-27(14-23)42-28(33-24)32-12-11-30-3)17-26(36)25(13-21-7-5-4-6-8-21)34-29(37)40-18-22-15-31-19-41-22/h4-10,14-15,19-20,25-26,30,36H,11-13,16-18H2,1-3H3,(H,32,33)(H,34,37)/t25-,26+/m0/s1
> <PUBCHEM_IUPAC_INCHIKEY>
PBEYQYVYBOAEIM-IZZNHLLZSA-N
> <PUBCHEM_XLOGP3_AA>
4.4
> <PUBCHEM_EXACT_MASS>
646.20658185
> <PUBCHEM_MOLECULAR_FORMULA>
C29H38N6O5S3
> <PUBCHEM_MOLECULAR_WEIGHT>
646.9
> <PUBCHEM_OPENEYE_CAN_SMILES>
CC(C)CN(CC(C(CC1=CC=CC=C1)NC(=O)OCC2=CN=CS2)O)S(=O)(=O)C3=CC4=C(C=C3)N=C(S4)NCCNC
> <PUBCHEM_OPENEYE_ISO_SMILES>
CC(C)CN(C[C@H]([C@H](CC1=CC=CC=C1)NC(=O)OCC2=CN=CS2)O)S(=O)(=O)C3=CC4=C(C=C3)N=C(S4)NCCNC
> <PUBCHEM_CACTVS_TPSA>
211
> <PUBCHEM_MONOISOTOPIC_WEIGHT>
646.20658185
> <PUBCHEM_TOTAL_CHARGE>
0
> <PUBCHEM_HEAVY_ATOM_COUNT>
43
> <PUBCHEM_ATOM_DEF_STEREO_COUNT>
2
> <PUBCHEM_ATOM_UDEF_STEREO_COUNT>
0
> <PUBCHEM_BOND_DEF_STEREO_COUNT>
0
> <PUBCHEM_BOND_UDEF_STEREO_COUNT>
0
> <PUBCHEM_ISOTOPIC_ATOM_COUNT>
0
> <PUBCHEM_COMPONENT_COUNT>
1
> <PUBCHEM_CACTVS_TAUTO_COUNT>
-1
> <PUBCHEM_COORDINATE_TYPE>
1
5
255
> <PUBCHEM_BONDANNOTATIONS>
17  10  6
11  32  8
11  36  8
14  41  8
14  43  8
2  30  8
2  36  8
21  25  8
21  26  8
24  28  8
24  29  8
25  30  8
26  31  8
28  33  8
29  34  8
3  39  8
3  43  8
30  32  8
31  32  8
33  35  8
34  35  8
39  41  8
15  4  6
$$$$
