509750
  -OEChem-10302200282D
114117  0     1  0  0  0  0  0999 V2000
   14.1244   -0.4510    0.0000 S   0  0  0  0  0  0  0  0  0  0  0  0
   17.6687   -0.6462    0.0000 S   0  0  0  0  0  0  0  0  0  0  0  0
    2.8660    4.0490    0.0000 F   0  0  0  0  0  0  0  0  0  0  0  0
   11.5263    1.0490    0.0000 O   0  0  0  0  0  0  0  0  0  0  0  0
   10.6603    1.5490    0.0000 O   0  0  0  0  0  0  0  0  0  0  0  0
   13.6244   -1.3170    0.0000 O   0  0  0  0  0  0  0  0  0  0  0  0
   14.6244    0.4151    0.0000 O   0  0  0  0  0  0  0  0  0  0  0  0
    7.1962    2.5490    0.0000 O   0  0  0  0  0  0  0  0  0  0  0  0
   13.2583    0.0490    0.0000 N   0  0  3  0  0  0  0  0  0  0  0  0
    9.7942    0.0490    0.0000 N   0  0  0  0  0  0  0  0  0  0  0  0
    8.0622    1.0490    0.0000 N   0  0  0  0  0  0  0  0  0  0  0  0
    5.4641    1.5490    0.0000 N   0  0  0  0  0  0  0  0  0  0  0  0
   17.6687   -2.2557    0.0000 N   0  0  0  0  0  0  0  0  0  0  0  0
   19.2523   -1.4510    0.0000 N   0  0  0  0  0  0  0  0  0  0  0  0
   22.2523   -3.1830    0.0000 N   0  0  0  0  0  0  0  0  0  0  0  0
    8.9282    2.5490    0.0000 C   0  0  0  0  0  0  0  0  0  0  0  0
   10.6603   -0.4510    0.0000 C   0  0  2  0  0  0  0  0  0  0  0  0
    8.9282    1.5490    0.0000 C   0  0  1  0  0  0  0  0  0  0  0  0
   11.5263    0.0490    0.0000 C   0  0  1  0  0  0  0  0  0  0  0  0
   12.3923   -0.4510    0.0000 C   0  0  0  0  0  0  0  0  0  0  0  0
   10.6603   -1.4510    0.0000 C   0  0  0  0  0  0  0  0  0  0  0  0
    9.7942    1.0490    0.0000 C   0  0  0  0  0  0  0  0  0  0  0  0
   13.2583    1.0490    0.0000 C   0  0  0  0  0  0  0  0  0  0  0  0
    8.9282    3.5490    0.0000 C   0  0  0  0  0  0  0  0  0  0  0  0
    7.9282    2.5490    0.0000 C   0  0  0  0  0  0  0  0  0  0  0  0
    9.9282    2.5490    0.0000 C   0  0  0  0  0  0  0  0  0  0  0  0
   14.1244    1.5490    0.0000 C   0  0  0  0  0  0  0  0  0  0  0  0
    9.7942   -1.9510    0.0000 C   0  0  0  0  0  0  0  0  0  0  0  0
   14.9904   -0.9510    0.0000 C   0  0  0  0  0  0  0  0  0  0  0  0
   14.1244    2.5490    0.0000 C   0  0  0  0  0  0  0  0  0  0  0  0
   14.9904    1.0490    0.0000 C   0  0  0  0  0  0  0  0  0  0  0  0
    7.1962    1.5490    0.0000 C   0  0  0  0  0  0  0  0  0  0  0  0
    9.7942   -2.9510    0.0000 C   0  0  0  0  0  0  0  0  0  0  0  0
    8.9282   -1.4510    0.0000 C   0  0  0  0  0  0  0  0  0  0  0  0
   15.8564   -0.4510    0.0000 C   0  0  0  0  0  0  0  0  0  0  0  0
    6.3301    1.0490    0.0000 C   0  0  0  0  0  0  0  0  0  0  0  0
   14.9904   -1.9510    0.0000 C   0  0  0  0  0  0  0  0  0  0  0  0
   16.7224   -0.9510    0.0000 C   0  0  0  0  0  0  0  0  0  0  0  0
    8.9282   -3.4510    0.0000 C   0  0  0  0  0  0  0  0  0  0  0  0
    8.0622   -1.9510    0.0000 C   0  0  0  0  0  0  0  0  0  0  0  0
   15.8564   -2.4510    0.0000 C   0  0  0  0  0  0  0  0  0  0  0  0
   16.7224   -1.9510    0.0000 C   0  0  0  0  0  0  0  0  0  0  0  0
    8.0622   -2.9510    0.0000 C   0  0  0  0  0  0  0  0  0  0  0  0
    4.5981    1.0490    0.0000 C   0  0  0  0  0  0  0  0  0  0  0  0
   18.2523   -1.4510    0.0000 C   0  0  0  0  0  0  0  0  0  0  0  0
    3.7320    1.5490    0.0000 C   0  0  0  0  0  0  0  0  0  0  0  0
   19.7523   -2.3170    0.0000 C   0  0  0  0  0  0  0  0  0  0  0  0
   20.7523   -2.3170    0.0000 C   0  0  0  0  0  0  0  0  0  0  0  0
   21.2523   -3.1830    0.0000 C   0  0  0  0  0  0  0  0  0  0  0  0
    3.7320    2.5490    0.0000 C   0  0  0  0  0  0  0  0  0  0  0  0
    2.8660    1.0490    0.0000 C   0  0  0  0  0  0  0  0  0  0  0  0
    2.8660    3.0490    0.0000 C   0  0  0  0  0  0  0  0  0  0  0  0
    2.0000    1.5490    0.0000 C   0  0  0  0  0  0  0  0  0  0  0  0
    2.0000    2.5490    0.0000 C   0  0  0  0  0  0  0  0  0  0  0  0
   22.7523   -4.0490    0.0000 C   0  0  0  0  0  0  0  0  0  0  0  0
   22.7523   -2.3170    0.0000 C   0  0  0  0  0  0  0  0  0  0  0  0
   10.6603    0.1690    0.0000 H   0  0  0  0  0  0  0  0  0  0  0  0
    8.9282    0.9290    0.0000 H   0  0  0  0  0  0  0  0  0  0  0  0
   12.0632    0.3590    0.0000 H   0  0  0  0  0  0  0  0  0  0  0  0
   11.9938   -0.9259    0.0000 H   0  0  0  0  0  0  0  0  0  0  0  0
   12.7908   -0.9259    0.0000 H   0  0  0  0  0  0  0  0  0  0  0  0
   10.8723   -2.0336    0.0000 H   0  0  0  0  0  0  0  0  0  0  0  0
   11.2708   -1.3433    0.0000 H   0  0  0  0  0  0  0  0  0  0  0  0
    9.2573   -0.2610    0.0000 H   0  0  0  0  0  0  0  0  0  0  0  0
   13.0463    1.6316    0.0000 H   0  0  0  0  0  0  0  0  0  0  0  0
   12.6477    0.9414    0.0000 H   0  0  0  0  0  0  0  0  0  0  0  0
    9.5482    3.5490    0.0000 H   0  0  0  0  0  0  0  0  0  0  0  0
    8.9282    4.1690    0.0000 H   0  0  0  0  0  0  0  0  0  0  0  0
    8.3082    3.5490    0.0000 H   0  0  0  0  0  0  0  0  0  0  0  0
    7.9282    3.1690    0.0000 H   0  0  0  0  0  0  0  0  0  0  0  0
    7.3082    2.5490    0.0000 H   0  0  0  0  0  0  0  0  0  0  0  0
    7.9282    1.9290    0.0000 H   0  0  0  0  0  0  0  0  0  0  0  0
    9.9282    1.9290    0.0000 H   0  0  0  0  0  0  0  0  0  0  0  0
   10.5482    2.5490    0.0000 H   0  0  0  0  0  0  0  0  0  0  0  0
    9.9282    3.1690    0.0000 H   0  0  0  0  0  0  0  0  0  0  0  0
   13.5874    1.8590    0.0000 H   0  0  0  0  0  0  0  0  0  0  0  0
    8.0622    0.4290    0.0000 H   0  0  0  0  0  0  0  0  0  0  0  0
   12.0632    1.3590    0.0000 H   0  0  0  0  0  0  0  0  0  0  0  0
   14.7444    2.5490    0.0000 H   0  0  0  0  0  0  0  0  0  0  0  0
   14.1244    3.1690    0.0000 H   0  0  0  0  0  0  0  0  0  0  0  0
   13.5044    2.5490    0.0000 H   0  0  0  0  0  0  0  0  0  0  0  0
   14.6804    0.5121    0.0000 H   0  0  0  0  0  0  0  0  0  0  0  0
   15.5273    0.7390    0.0000 H   0  0  0  0  0  0  0  0  0  0  0  0
   15.3004    1.5860    0.0000 H   0  0  0  0  0  0  0  0  0  0  0  0
   10.3312   -3.2610    0.0000 H   0  0  0  0  0  0  0  0  0  0  0  0
    8.9282   -0.8310    0.0000 H   0  0  0  0  0  0  0  0  0  0  0  0
   15.8564    0.1690    0.0000 H   0  0  0  0  0  0  0  0  0  0  0  0
    5.9316    0.5741    0.0000 H   0  0  0  0  0  0  0  0  0  0  0  0
    6.7287    0.5741    0.0000 H   0  0  0  0  0  0  0  0  0  0  0  0
   14.4534   -2.2610    0.0000 H   0  0  0  0  0  0  0  0  0  0  0  0
    8.9282   -4.0710    0.0000 H   0  0  0  0  0  0  0  0  0  0  0  0
    7.5252   -1.6410    0.0000 H   0  0  0  0  0  0  0  0  0  0  0  0
   15.8564   -3.0710    0.0000 H   0  0  0  0  0  0  0  0  0  0  0  0
    7.5252   -3.2610    0.0000 H   0  0  0  0  0  0  0  0  0  0  0  0
    5.4641    2.1690    0.0000 H   0  0  0  0  0  0  0  0  0  0  0  0
    4.1996    0.5741    0.0000 H   0  0  0  0  0  0  0  0  0  0  0  0
    4.9966    0.5741    0.0000 H   0  0  0  0  0  0  0  0  0  0  0  0
   19.5623   -0.9140    0.0000 H   0  0  0  0  0  0  0  0  0  0  0  0
   19.1697   -2.5290    0.0000 H   0  0  0  0  0  0  0  0  0  0  0  0
   19.8599   -2.9276    0.0000 H   0  0  0  0  0  0  0  0  0  0  0  0
   21.3349   -2.1049    0.0000 H   0  0  0  0  0  0  0  0  0  0  0  0
   20.6446   -1.7064    0.0000 H   0  0  0  0  0  0  0  0  0  0  0  0
   20.6697   -3.3951    0.0000 H   0  0  0  0  0  0  0  0  0  0  0  0
   21.3599   -3.7936    0.0000 H   0  0  0  0  0  0  0  0  0  0  0  0
    4.2690    2.8590    0.0000 H   0  0  0  0  0  0  0  0  0  0  0  0
    2.8660    0.4290    0.0000 H   0  0  0  0  0  0  0  0  0  0  0  0
    1.4631    1.2390    0.0000 H   0  0  0  0  0  0  0  0  0  0  0  0
    1.4631    2.8590    0.0000 H   0  0  0  0  0  0  0  0  0  0  0  0
   22.2153   -4.3590    0.0000 H   0  0  0  0  0  0  0  0  0  0  0  0
   23.0623   -4.5860    0.0000 H   0  0  0  0  0  0  0  0  0  0  0  0
   23.2892   -3.7390    0.0000 H   0  0  0  0  0  0  0  0  0  0  0  0
   23.2892   -2.6270    0.0000 H   0  0  0  0  0  0  0  0  0  0  0  0
   23.0623   -1.7800    0.0000 H   0  0  0  0  0  0  0  0  0  0  0  0
   22.2153   -2.0070    0.0000 H   0  0  0  0  0  0  0  0  0  0  0  0
  1  6  2  0  0  0  0
  1  7  2  0  0  0  0
  1  9  1  0  0  0  0
  1 29  1  0  0  0  0
  2 38  1  0  0  0  0
  2 45  1  0  0  0  0
  3 52  1  0  0  0  0
 19  4  1  6  0  0  0
  4 78  1  0  0  0  0
  5 22  2  0  0  0  0
  8 32  2  0  0  0  0
  9 20  1  0  0  0  0
  9 23  1  0  0  0  0
 17 10  1  6  0  0  0
 10 22  1  0  0  0  0
 10 64  1  0  0  0  0
 18 11  1  1  0  0  0
 11 32  1  0  0  0  0
 11 77  1  0  0  0  0
 12 36  1  0  0  0  0
 12 44  1  0  0  0  0
 12 95  1  0  0  0  0
 13 42  1  0  0  0  0
 13 45  2  0  0  0  0
 14 45  1  0  0  0  0
 14 47  1  0  0  0  0
 14 98  1  0  0  0  0
 15 49  1  0  0  0  0
 15 55  1  0  0  0  0
 15 56  1  0  0  0  0
 16 18  1  0  0  0  0
 16 24  1  0  0  0  0
 16 25  1  0  0  0  0
 16 26  1  0  0  0  0
 17 19  1  0  0  0  0
 17 21  1  0  0  0  0
 17 57  1  0  0  0  0
 18 22  1  0  0  0  0
 18 58  1  0  0  0  0
 19 20  1  0  0  0  0
 19 59  1  0  0  0  0
 20 60  1  0  0  0  0
 20 61  1  0  0  0  0
 21 28  1  0  0  0  0
 21 62  1  0  0  0  0
 21 63  1  0  0  0  0
 23 27  1  0  0  0  0
 23 65  1  0  0  0  0
 23 66  1  0  0  0  0
 24 67  1  0  0  0  0
 24 68  1  0  0  0  0
 24 69  1  0  0  0  0
 25 70  1  0  0  0  0
 25 71  1  0  0  0  0
 25 72  1  0  0  0  0
 26 73  1  0  0  0  0
 26 74  1  0  0  0  0
 26 75  1  0  0  0  0
 27 30  1  0  0  0  0
 27 31  1  0  0  0  0
 27 76  1  0  0  0  0
 28 33  2  0  0  0  0
 28 34  1  0  0  0  0
 29 35  2  0  0  0  0
 29 37  1  0  0  0  0
 30 79  1  0  0  0  0
 30 80  1  0  0  0  0
 30 81  1  0  0  0  0
 31 82  1  0  0  0  0
 31 83  1  0  0  0  0
 31 84  1  0  0  0  0
 32 36  1  0  0  0  0
 33 39  1  0  0  0  0
 33 85  1  0  0  0  0
 34 40  2  0  0  0  0
 34 86  1  0  0  0  0
 35 38  1  0  0  0  0
 35 87  1  0  0  0  0
 36 88  1  0  0  0  0
 36 89  1  0  0  0  0
 37 41  2  0  0  0  0
 37 90  1  0  0  0  0
 38 42  2  0  0  0  0
 39 43  2  0  0  0  0
 39 91  1  0  0  0  0
 40 43  1  0  0  0  0
 40 92  1  0  0  0  0
 41 42  1  0  0  0  0
 41 93  1  0  0  0  0
 43 94  1  0  0  0  0
 44 46  1  0  0  0  0
 44 96  1  0  0  0  0
 44 97  1  0  0  0  0
 46 50  2  0  0  0  0
 46 51  1  0  0  0  0
 47 48  1  0  0  0  0
 47 99  1  0  0  0  0
 47100  1  0  0  0  0
 48 49  1  0  0  0  0
 48101  1  0  0  0  0
 48102  1  0  0  0  0
 49103  1  0  0  0  0
 49104  1  0  0  0  0
 50 52  1  0  0  0  0
 50105  1  0  0  0  0
 51 53  2  0  0  0  0
 51106  1  0  0  0  0
 52 54  2  0  0  0  0
 53 54  1  0  0  0  0
 53107  1  0  0  0  0
 54108  1  0  0  0  0
 55109  1  0  0  0  0
 55110  1  0  0  0  0
 55111  1  0  0  0  0
 56112  1  0  0  0  0
 56113  1  0  0  0  0
 56114  1  0  0  0  0
M  END
> <PUBCHEM_COMPOUND_CID>
509750
> <PUBCHEM_COMPOUND_CANONICALIZED>
1
> <PUBCHEM_CACTVS_COMPLEXITY>
1310
> <PUBCHEM_CACTVS_HBOND_ACCEPTOR>
12
> <PUBCHEM_CACTVS_HBOND_DONOR>
5
> <PUBCHEM_CACTVS_ROTATABLE_BOND>
22
> <PUBCHEM_CACTVS_SUBSKEYS>
AAADcfB/uQBgAAAAAAAAAAAAAAAAAWAAAAAwYMAAAAAAAFgB9AAAHwQQSAAADzzh3g4z0bPIEgqsAyVydHDD8LlhCjlJmL24ZJiKcLLg2bGUYAhslgLYyCeQwKAPAAQAAEAAAQAACAAAgAACAAAAAAAAAA==
> <PUBCHEM_IUPAC_OPENEYE_NAME>
(2S)-N-[(1S,2R)-1-benzyl-3-[[2-[3-(dimethylamino)propylamino]-1,3-benzothiazol-6-yl]sulfonyl-isobutyl-amino]-2-hydroxy-propyl]-2-[[2-[(3-fluorophenyl)methylamino]acetyl]amino]-3,3-dimethyl-butanamide
> <PUBCHEM_IUPAC_CAS_NAME>
(2S)-N-[(2S,3R)-4-[[2-[3-(dimethylamino)propylamino]-1,3-benzothiazol-6-yl]sulfonyl-(2-methylpropyl)amino]-3-hydroxy-1-phenylbutan-2-yl]-2-[[2-[(3-fluorophenyl)methylamino]-1-oxoethyl]amino]-3,3-dimethylbutanamide
> <PUBCHEM_IUPAC_NAME_MARKUP>
(2<I>S</I>)-<I>N</I>-[(2<I>S</I>,3<I>R</I>)-4-[[2-[3-(dimethylamino)propylamino]-1,3-benzothiazol-6-yl]sulfonyl-(2-methylpropyl)amino]-3-hydroxy-1-phenylbutan-2-yl]-2-[[2-[(3-fluorophenyl)methylamino]acetyl]amino]-3,3-dimethylbutanamide
> <PUBCHEM_IUPAC_NAME>
(2S)-N-[(2S,3R)-4-[[2-[3-(dimethylamino)propylamino]-1,3-benzothiazol-6-yl]sulfonyl-(2-methylpropyl)amino]-3-hydroxy-1-phenylbutan-2-yl]-2-[[2-[(3-fluorophenyl)methylamino]acetyl]amino]-3,3-dimethylbutanamide
> <PUBCHEM_IUPAC_SYSTEMATIC_NAME>
(2S)-N-[(2S,3R)-4-[[2-[3-(dimethylamino)propylamino]-1,3-benzothiazol-6-yl]sulfonyl-(2-methylpropyl)amino]-3-oxidanyl-1-phenyl-butan-2-yl]-2-[2-[(3-fluorophenyl)methylamino]ethanoylamino]-3,3-dimethyl-butanamide
> <PUBCHEM_IUPAC_TRADITIONAL_NAME>
(2S)-N-[(1S,2R)-1-benzyl-3-[[2-[3-(dimethylamino)propylamino]-1,3-benzothiazol-6-yl]sulfonyl-isobutyl-amino]-2-hydroxy-propyl]-2-[[2-[(3-fluorobenzyl)amino]acetyl]amino]-3,3-dimethyl-butyramide
> <PUBCHEM_IUPAC_INCHI>
InChI=1S/C41H58FN7O5S2/c1-28(2)26-49(56(53,54)32-17-18-33-36(23-32)55-40(46-33)44-19-12-20-48(6)7)27-35(50)34(22-29-13-9-8-10-14-29)45-39(52)38(41(3,4)5)47-37(51)25-43-24-30-15-11-16-31(42)21-30/h8-11,13-18,21,23,28,34-35,38,43,50H,12,19-20,22,24-27H2,1-7H3,(H,44,46)(H,45,52)(H,47,51)/t34-,35+,38+/m0/s1
> <PUBCHEM_IUPAC_INCHIKEY>
JHPUBVLUGDFGOR-FACBKIGESA-N
> <PUBCHEM_XLOGP3_AA>
6.6
> <PUBCHEM_EXACT_MASS>
811.39248849
> <PUBCHEM_MOLECULAR_FORMULA>
C41H58FN7O5S2
> <PUBCHEM_MOLECULAR_WEIGHT>
812.1
> <PUBCHEM_OPENEYE_CAN_SMILES>
CC(C)CN(CC(C(CC1=CC=CC=C1)NC(=O)C(C(C)(C)C)NC(=O)CNCC2=CC(=CC=C2)F)O)S(=O)(=O)C3=CC4=C(C=C3)N=C(S4)NCCCN(C)C
> <PUBCHEM_OPENEYE_ISO_SMILES>
CC(C)CN(C[C@H]([C@H](CC1=CC=CC=C1)NC(=O)[C@H](C(C)(C)C)NC(=O)CNCC2=CC(=CC=C2)F)O)S(=O)(=O)C3=CC4=C(C=C3)N=C(S4)NCCCN(C)C
> <PUBCHEM_CACTVS_TPSA>
193
> <PUBCHEM_MONOISOTOPIC_WEIGHT>
811.39248849
> <PUBCHEM_TOTAL_CHARGE>
0
> <PUBCHEM_HEAVY_ATOM_COUNT>
56
> <PUBCHEM_ATOM_DEF_STEREO_COUNT>
3
> <PUBCHEM_ATOM_UDEF_STEREO_COUNT>
0
> <PUBCHEM_BOND_DEF_STEREO_COUNT>
0
> <PUBCHEM_BOND_UDEF_STEREO_COUNT>
0
> <PUBCHEM_ISOTOPIC_ATOM_COUNT>
0
> <PUBCHEM_COMPONENT_COUNT>
1
> <PUBCHEM_CACTVS_TAUTO_COUNT>
-1
> <PUBCHEM_COORDINATE_TYPE>
1
5
255
> <PUBCHEM_BONDANNOTATIONS>
17  10  6
18  11  5
13  42  8
13  45  8
2  38  8
2  45  8
28  33  8
28  34  8
29  35  8
29  37  8
33  39  8
34  40  8
35  38  8
37  41  8
38  42  8
39  43  8
19  4  6
40  43  8
41  42  8
46  50  8
46  51  8
50  52  8
51  53  8
52  54  8
53  54  8
$$$$
