509724
  -OEChem-10302200282D
 88 92  0     1  0  0  0  0  0999 V2000
    9.6448   -0.1192    0.0000 S   0  0  0  0  0  0  0  0  0  0  0  0
   13.1891   -0.3144    0.0000 S   0  0  0  0  0  0  0  0  0  0  0  0
    3.4782    4.3754    0.0000 S   0  0  0  0  0  0  0  0  0  0  0  0
    7.0468    1.3808    0.0000 O   0  0  0  0  0  0  0  0  0  0  0  0
    9.1448   -0.9852    0.0000 O   0  0  0  0  0  0  0  0  0  0  0  0
   10.1449    0.7469    0.0000 O   0  0  0  0  0  0  0  0  0  0  0  0
   17.7728   -4.5833    0.0000 O   0  0  0  0  0  0  0  0  0  0  0  0
    4.4487    1.8808    0.0000 O   0  0  0  0  0  0  0  0  0  0  0  0
    6.1808    1.8808    0.0000 O   0  0  0  0  0  0  0  0  0  0  0  0
   14.7728   -2.8512    0.0000 O   0  0  0  0  0  0  0  0  0  0  0  0
    8.7788    0.3808    0.0000 N   0  0  3  0  0  0  0  0  0  0  0  0
    5.3147    0.3808    0.0000 N   0  0  0  0  0  0  0  0  0  0  0  0
   16.7728   -2.8512    0.0000 N   0  0  0  0  0  0  0  0  0  0  0  0
   13.1891   -1.9239    0.0000 N   0  0  0  0  0  0  0  0  0  0  0  0
   14.7728   -1.1192    0.0000 N   0  0  0  0  0  0  0  0  0  0  0  0
    2.0000    3.7172    0.0000 N   0  0  0  0  0  0  0  0  0  0  0  0
    7.0468    0.3808    0.0000 C   0  0  2  0  0  0  0  0  0  0  0  0
    7.9128   -0.1192    0.0000 C   0  0  0  0  0  0  0  0  0  0  0  0
    6.1808   -0.1192    0.0000 C   0  0  2  0  0  0  0  0  0  0  0  0
    8.7788    1.3808    0.0000 C   0  0  0  0  0  0  0  0  0  0  0  0
    9.6448    1.8808    0.0000 C   0  0  0  0  0  0  0  0  0  0  0  0
    6.1808   -1.1192    0.0000 C   0  0  0  0  0  0  0  0  0  0  0  0
   10.5109   -0.6192    0.0000 C   0  0  0  0  0  0  0  0  0  0  0  0
    9.6448    2.8808    0.0000 C   0  0  0  0  0  0  0  0  0  0  0  0
   10.5109    1.3808    0.0000 C   0  0  0  0  0  0  0  0  0  0  0  0
    5.3147   -1.6192    0.0000 C   0  0  0  0  0  0  0  0  0  0  0  0
   11.3769   -0.1192    0.0000 C   0  0  0  0  0  0  0  0  0  0  0  0
   10.5109   -1.6192    0.0000 C   0  0  0  0  0  0  0  0  0  0  0  0
    5.3147    1.3808    0.0000 C   0  0  0  0  0  0  0  0  0  0  0  0
    5.3147   -2.6192    0.0000 C   0  0  0  0  0  0  0  0  0  0  0  0
    4.4487   -1.1192    0.0000 C   0  0  0  0  0  0  0  0  0  0  0  0
   12.2429   -0.6192    0.0000 C   0  0  0  0  0  0  0  0  0  0  0  0
   12.2429   -1.6192    0.0000 C   0  0  0  0  0  0  0  0  0  0  0  0
   11.3769   -2.1192    0.0000 C   0  0  0  0  0  0  0  0  0  0  0  0
   17.7728   -2.8512    0.0000 C   0  0  0  0  0  0  0  0  0  0  0  0
   16.2728   -3.7172    0.0000 C   0  0  0  0  0  0  0  0  0  0  0  0
   16.2728   -1.9852    0.0000 C   0  0  0  0  0  0  0  0  0  0  0  0
   18.2728   -3.7172    0.0000 C   0  0  0  0  0  0  0  0  0  0  0  0
   16.7728   -4.5833    0.0000 C   0  0  0  0  0  0  0  0  0  0  0  0
    4.4487   -3.1192    0.0000 C   0  0  0  0  0  0  0  0  0  0  0  0
    3.5827   -1.6192    0.0000 C   0  0  0  0  0  0  0  0  0  0  0  0
   13.7728   -1.1192    0.0000 C   0  0  0  0  0  0  0  0  0  0  0  0
    3.5827   -2.6192    0.0000 C   0  0  0  0  0  0  0  0  0  0  0  0
   15.2728   -1.9852    0.0000 C   0  0  0  0  0  0  0  0  0  0  0  0
    4.4487    2.8808    0.0000 C   0  0  0  0  0  0  0  0  0  0  0  0
    3.5827    3.3808    0.0000 C   0  0  0  0  0  0  0  0  0  0  0  0
    2.6691    2.9741    0.0000 C   0  0  0  0  0  0  0  0  0  0  0  0
    2.5000    4.5833    0.0000 C   0  0  0  0  0  0  0  0  0  0  0  0
    7.5837    0.6908    0.0000 H   0  0  0  0  0  0  0  0  0  0  0  0
    7.5143   -0.5941    0.0000 H   0  0  0  0  0  0  0  0  0  0  0  0
    8.3113   -0.5941    0.0000 H   0  0  0  0  0  0  0  0  0  0  0  0
    6.1808    0.5008    0.0000 H   0  0  0  0  0  0  0  0  0  0  0  0
    8.5668    1.9634    0.0000 H   0  0  0  0  0  0  0  0  0  0  0  0
    8.1682    1.2732    0.0000 H   0  0  0  0  0  0  0  0  0  0  0  0
    9.1079    2.1908    0.0000 H   0  0  0  0  0  0  0  0  0  0  0  0
    6.3928   -1.7018    0.0000 H   0  0  0  0  0  0  0  0  0  0  0  0
    6.7913   -1.0115    0.0000 H   0  0  0  0  0  0  0  0  0  0  0  0
    4.7778    0.0708    0.0000 H   0  0  0  0  0  0  0  0  0  0  0  0
   10.2649    2.8808    0.0000 H   0  0  0  0  0  0  0  0  0  0  0  0
    9.6448    3.5008    0.0000 H   0  0  0  0  0  0  0  0  0  0  0  0
    9.0248    2.8808    0.0000 H   0  0  0  0  0  0  0  0  0  0  0  0
   10.2009    0.8439    0.0000 H   0  0  0  0  0  0  0  0  0  0  0  0
   11.0478    1.0708    0.0000 H   0  0  0  0  0  0  0  0  0  0  0  0
   10.8209    1.9178    0.0000 H   0  0  0  0  0  0  0  0  0  0  0  0
    7.5837    1.6908    0.0000 H   0  0  0  0  0  0  0  0  0  0  0  0
   11.3769    0.5008    0.0000 H   0  0  0  0  0  0  0  0  0  0  0  0
    9.9739   -1.9292    0.0000 H   0  0  0  0  0  0  0  0  0  0  0  0
    5.8517   -2.9292    0.0000 H   0  0  0  0  0  0  0  0  0  0  0  0
    4.4487   -0.4992    0.0000 H   0  0  0  0  0  0  0  0  0  0  0  0
   18.3554   -2.6392    0.0000 H   0  0  0  0  0  0  0  0  0  0  0  0
   17.6651   -2.2406    0.0000 H   0  0  0  0  0  0  0  0  0  0  0  0
   15.7978   -3.3187    0.0000 H   0  0  0  0  0  0  0  0  0  0  0  0
   15.7978   -4.1158    0.0000 H   0  0  0  0  0  0  0  0  0  0  0  0
   11.3769   -2.7392    0.0000 H   0  0  0  0  0  0  0  0  0  0  0  0
   16.8554   -1.7731    0.0000 H   0  0  0  0  0  0  0  0  0  0  0  0
   16.1651   -1.3746    0.0000 H   0  0  0  0  0  0  0  0  0  0  0  0
   18.7477   -4.1158    0.0000 H   0  0  0  0  0  0  0  0  0  0  0  0
   18.7477   -3.3187    0.0000 H   0  0  0  0  0  0  0  0  0  0  0  0
   16.1901   -4.7953    0.0000 H   0  0  0  0  0  0  0  0  0  0  0  0
   16.8804   -5.1938    0.0000 H   0  0  0  0  0  0  0  0  0  0  0  0
    4.4487   -3.7392    0.0000 H   0  0  0  0  0  0  0  0  0  0  0  0
    3.0457   -1.3092    0.0000 H   0  0  0  0  0  0  0  0  0  0  0  0
    3.0457   -2.9292    0.0000 H   0  0  0  0  0  0  0  0  0  0  0  0
   15.0828   -0.5822    0.0000 H   0  0  0  0  0  0  0  0  0  0  0  0
    5.0593    2.7732    0.0000 H   0  0  0  0  0  0  0  0  0  0  0  0
    4.6608    3.4634    0.0000 H   0  0  0  0  0  0  0  0  0  0  0  0
    2.5402    2.3676    0.0000 H   0  0  0  0  0  0  0  0  0  0  0  0
    2.2478    5.1497    0.0000 H   0  0  0  0  0  0  0  0  0  0  0  0
  1  5  2  0  0  0  0
  1  6  2  0  0  0  0
  1 11  1  0  0  0  0
  1 23  1  0  0  0  0
  2 32  1  0  0  0  0
  2 42  1  0  0  0  0
  3 46  1  0  0  0  0
  3 48  1  0  0  0  0
 17  4  1  6  0  0  0
  4 65  1  0  0  0  0
  7 38  1  0  0  0  0
  7 39  1  0  0  0  0
  8 29  1  0  0  0  0
  8 45  1  0  0  0  0
  9 29  2  0  0  0  0
 10 44  2  0  0  0  0
 11 18  1  0  0  0  0
 11 20  1  0  0  0  0
 19 12  1  6  0  0  0
 12 29  1  0  0  0  0
 12 58  1  0  0  0  0
 13 35  1  0  0  0  0
 13 36  1  0  0  0  0
 13 37  1  0  0  0  0
 14 33  1  0  0  0  0
 14 42  2  0  0  0  0
 15 42  1  0  0  0  0
 15 44  1  0  0  0  0
 15 84  1  0  0  0  0
 16 47  1  0  0  0  0
 16 48  2  0  0  0  0
 17 18  1  0  0  0  0
 17 19  1  0  0  0  0
 17 49  1  0  0  0  0
 18 50  1  0  0  0  0
 18 51  1  0  0  0  0
 19 22  1  0  0  0  0
 19 52  1  0  0  0  0
 20 21  1  0  0  0  0
 20 53  1  0  0  0  0
 20 54  1  0  0  0  0
 21 24  1  0  0  0  0
 21 25  1  0  0  0  0
 21 55  1  0  0  0  0
 22 26  1  0  0  0  0
 22 56  1  0  0  0  0
 22 57  1  0  0  0  0
 23 27  2  0  0  0  0
 23 28  1  0  0  0  0
 24 59  1  0  0  0  0
 24 60  1  0  0  0  0
 24 61  1  0  0  0  0
 25 62  1  0  0  0  0
 25 63  1  0  0  0  0
 25 64  1  0  0  0  0
 26 30  2  0  0  0  0
 26 31  1  0  0  0  0
 27 32  1  0  0  0  0
 27 66  1  0  0  0  0
 28 34  2  0  0  0  0
 28 67  1  0  0  0  0
 30 40  1  0  0  0  0
 30 68  1  0  0  0  0
 31 41  2  0  0  0  0
 31 69  1  0  0  0  0
 32 33  2  0  0  0  0
 33 34  1  0  0  0  0
 34 74  1  0  0  0  0
 35 38  1  0  0  0  0
 35 70  1  0  0  0  0
 35 71  1  0  0  0  0
 36 39  1  0  0  0  0
 36 72  1  0  0  0  0
 36 73  1  0  0  0  0
 37 44  1  0  0  0  0
 37 75  1  0  0  0  0
 37 76  1  0  0  0  0
 38 77  1  0  0  0  0
 38 78  1  0  0  0  0
 39 79  1  0  0  0  0
 39 80  1  0  0  0  0
 40 43  2  0  0  0  0
 40 81  1  0  0  0  0
 41 43  1  0  0  0  0
 41 82  1  0  0  0  0
 43 83  1  0  0  0  0
 45 46  1  0  0  0  0
 45 85  1  0  0  0  0
 45 86  1  0  0  0  0
 46 47  2  0  0  0  0
 47 87  1  0  0  0  0
 48 88  1  0  0  0  0
M  END
> <PUBCHEM_COMPOUND_CID>
509724
> <PUBCHEM_COMPOUND_CANONICALIZED>
1
> <PUBCHEM_CACTVS_COMPLEXITY>
1140
> <PUBCHEM_CACTVS_HBOND_ACCEPTOR>
13
> <PUBCHEM_CACTVS_HBOND_DONOR>
3
> <PUBCHEM_CACTVS_ROTATABLE_BOND>
16
> <PUBCHEM_CACTVS_SUBSKEYS>
AAADcfB/uABgAAAAAAAAAAAAAAAAAWLAAAA8YIAAAAAAAFgB/AAAHgQQSAAADTzh3ga/2bPIFgqsAzV3fHDD8LlxCjlJ2Ly4bJmKdKLg+bmfYAhulwLY6CeQwKAOAAQAAEAAAQAACAAAgAACAAAAAAAAAA==
> <PUBCHEM_IUPAC_OPENEYE_NAME>
thiazol-5-ylmethyl N-[(1S,2R)-1-benzyl-2-hydroxy-3-[isobutyl-[[2-[(2-morpholinoacetyl)amino]-1,3-benzothiazol-6-yl]sulfonyl]amino]propyl]carbamate
> <PUBCHEM_IUPAC_CAS_NAME>
N-[(2S,3R)-3-hydroxy-4-[2-methylpropyl-[[2-[[2-(4-morpholinyl)-1-oxoethyl]amino]-1,3-benzothiazol-6-yl]sulfonyl]amino]-1-phenylbutan-2-yl]carbamic acid 5-thiazolylmethyl ester
> <PUBCHEM_IUPAC_NAME_MARKUP>
1,3-thiazol-5-ylmethyl <I>N</I>-[(2<I>S</I>,3<I>R</I>)-3-hydroxy-4-[2-methylpropyl-[[2-[(2-morpholin-4-ylacetyl)amino]-1,3-benzothiazol-6-yl]sulfonyl]amino]-1-phenylbutan-2-yl]carbamate
> <PUBCHEM_IUPAC_NAME>
1,3-thiazol-5-ylmethyl N-[(2S,3R)-3-hydroxy-4-[2-methylpropyl-[[2-[(2-morpholin-4-ylacetyl)amino]-1,3-benzothiazol-6-yl]sulfonyl]amino]-1-phenylbutan-2-yl]carbamate
> <PUBCHEM_IUPAC_SYSTEMATIC_NAME>
1,3-thiazol-5-ylmethyl N-[(2S,3R)-4-[2-methylpropyl-[[2-(2-morpholin-4-ylethanoylamino)-1,3-benzothiazol-6-yl]sulfonyl]amino]-3-oxidanyl-1-phenyl-butan-2-yl]carbamate
> <PUBCHEM_IUPAC_TRADITIONAL_NAME>
N-[(1S,2R)-1-benzyl-2-hydroxy-3-[isobutyl-[[2-[(2-morpholinoacetyl)amino]-1,3-benzothiazol-6-yl]sulfonyl]amino]propyl]carbamic acid thiazol-5-ylmethyl ester
> <PUBCHEM_IUPAC_INCHI>
InChI=1S/C32H40N6O7S3/c1-22(2)17-38(18-28(39)27(14-23-6-4-3-5-7-23)35-32(41)45-20-24-16-33-21-46-24)48(42,43)25-8-9-26-29(15-25)47-31(34-26)36-30(40)19-37-10-12-44-13-11-37/h3-9,15-16,21-22,27-28,39H,10-14,17-20H2,1-2H3,(H,35,41)(H,34,36,40)/t27-,28+/m0/s1
> <PUBCHEM_IUPAC_INCHIKEY>
IKUNOXPDLUPZOY-WUFINQPMSA-N
> <PUBCHEM_XLOGP3_AA>
3.7
> <PUBCHEM_EXACT_MASS>
716.21206116
> <PUBCHEM_MOLECULAR_FORMULA>
C32H40N6O7S3
> <PUBCHEM_MOLECULAR_WEIGHT>
716.9
> <PUBCHEM_OPENEYE_CAN_SMILES>
CC(C)CN(CC(C(CC1=CC=CC=C1)NC(=O)OCC2=CN=CS2)O)S(=O)(=O)C3=CC4=C(C=C3)N=C(S4)NC(=O)CN5CCOCC5
> <PUBCHEM_OPENEYE_ISO_SMILES>
CC(C)CN(C[C@H]([C@H](CC1=CC=CC=C1)NC(=O)OCC2=CN=CS2)O)S(=O)(=O)C3=CC4=C(C=C3)N=C(S4)NC(=O)CN5CCOCC5
> <PUBCHEM_CACTVS_TPSA>
228
> <PUBCHEM_MONOISOTOPIC_WEIGHT>
716.21206116
> <PUBCHEM_TOTAL_CHARGE>
0
> <PUBCHEM_HEAVY_ATOM_COUNT>
48
> <PUBCHEM_ATOM_DEF_STEREO_COUNT>
2
> <PUBCHEM_ATOM_UDEF_STEREO_COUNT>
0
> <PUBCHEM_BOND_DEF_STEREO_COUNT>
0
> <PUBCHEM_BOND_UDEF_STEREO_COUNT>
0
> <PUBCHEM_ISOTOPIC_ATOM_COUNT>
0
> <PUBCHEM_COMPONENT_COUNT>
1
> <PUBCHEM_CACTVS_TAUTO_COUNT>
-1
> <PUBCHEM_COORDINATE_TYPE>
1
5
255
> <PUBCHEM_BONDANNOTATIONS>
19  12  6
14  33  8
14  42  8
16  47  8
16  48  8
2  32  8
2  42  8
23  27  8
23  28  8
26  30  8
26  31  8
27  32  8
28  34  8
3  46  8
3  48  8
30  40  8
31  41  8
32  33  8
33  34  8
17  4  6
40  43  8
41  43  8
46  47  8
$$$$
