509726
  -OEChem-10302200282D
 83 87  0     1  0  0  0  0  0999 V2000
    9.6448   -0.8512    0.0000 S   0  0  0  0  0  0  0  0  0  0  0  0
   13.1891   -1.0465    0.0000 S   0  0  0  0  0  0  0  0  0  0  0  0
    3.4782    3.6433    0.0000 S   0  0  0  0  0  0  0  0  0  0  0  0
    7.0468    0.6488    0.0000 O   0  0  0  0  0  0  0  0  0  0  0  0
    9.1448   -1.7172    0.0000 O   0  0  0  0  0  0  0  0  0  0  0  0
   10.1449    0.0148    0.0000 O   0  0  0  0  0  0  0  0  0  0  0  0
    4.4487    1.1488    0.0000 O   0  0  0  0  0  0  0  0  0  0  0  0
    6.1808    1.1488    0.0000 O   0  0  0  0  0  0  0  0  0  0  0  0
   18.6206   -1.6295    0.0000 O   0  0  0  0  0  0  0  0  0  0  0  0
   14.7728   -3.5833    0.0000 O   0  0  0  0  0  0  0  0  0  0  0  0
    8.7788   -0.3512    0.0000 N   0  0  3  0  0  0  0  0  0  0  0  0
    5.3147   -0.3512    0.0000 N   0  0  0  0  0  0  0  0  0  0  0  0
   16.8605   -1.9082    0.0000 N   0  0  0  0  0  0  0  0  0  0  0  0
   14.7728   -1.8512    0.0000 N   0  0  0  0  0  0  0  0  0  0  0  0
   13.1891   -2.6559    0.0000 N   0  0  0  0  0  0  0  0  0  0  0  0
    2.0000    2.9852    0.0000 N   0  0  0  0  0  0  0  0  0  0  0  0
    7.0468   -0.3512    0.0000 C   0  0  2  0  0  0  0  0  0  0  0  0
    7.9128   -0.8512    0.0000 C   0  0  0  0  0  0  0  0  0  0  0  0
    6.1808   -0.8512    0.0000 C   0  0  2  0  0  0  0  0  0  0  0  0
    8.7788    0.6488    0.0000 C   0  0  0  0  0  0  0  0  0  0  0  0
    9.6448    1.1488    0.0000 C   0  0  0  0  0  0  0  0  0  0  0  0
    6.1808   -1.8512    0.0000 C   0  0  0  0  0  0  0  0  0  0  0  0
   10.5109   -1.3512    0.0000 C   0  0  0  0  0  0  0  0  0  0  0  0
    9.6448    2.1488    0.0000 C   0  0  0  0  0  0  0  0  0  0  0  0
   10.5109    0.6488    0.0000 C   0  0  0  0  0  0  0  0  0  0  0  0
    5.3147   -2.3512    0.0000 C   0  0  0  0  0  0  0  0  0  0  0  0
   16.2728   -2.7172    0.0000 C   0  0  3  0  0  0  0  0  0  0  0  0
   11.3769   -0.8512    0.0000 C   0  0  0  0  0  0  0  0  0  0  0  0
   16.8605   -3.5263    0.0000 C   0  0  0  0  0  0  0  0  0  0  0  0
   10.5109   -2.3512    0.0000 C   0  0  0  0  0  0  0  0  0  0  0  0
   17.8116   -3.2172    0.0000 C   0  0  0  0  0  0  0  0  0  0  0  0
   12.2429   -1.3512    0.0000 C   0  0  0  0  0  0  0  0  0  0  0  0
    5.3147    0.6488    0.0000 C   0  0  0  0  0  0  0  0  0  0  0  0
    4.4487   -1.8512    0.0000 C   0  0  0  0  0  0  0  0  0  0  0  0
    5.3147   -3.3512    0.0000 C   0  0  0  0  0  0  0  0  0  0  0  0
   12.2429   -2.3512    0.0000 C   0  0  0  0  0  0  0  0  0  0  0  0
   11.3769   -2.8512    0.0000 C   0  0  0  0  0  0  0  0  0  0  0  0
   17.8116   -2.2172    0.0000 C   0  0  0  0  0  0  0  0  0  0  0  0
   15.2728   -2.7172    0.0000 C   0  0  0  0  0  0  0  0  0  0  0  0
   13.7728   -1.8512    0.0000 C   0  0  0  0  0  0  0  0  0  0  0  0
    3.5827   -2.3512    0.0000 C   0  0  0  0  0  0  0  0  0  0  0  0
    4.4487   -3.8512    0.0000 C   0  0  0  0  0  0  0  0  0  0  0  0
    3.5827   -3.3512    0.0000 C   0  0  0  0  0  0  0  0  0  0  0  0
    4.4487    2.1488    0.0000 C   0  0  0  0  0  0  0  0  0  0  0  0
    3.5827    2.6488    0.0000 C   0  0  0  0  0  0  0  0  0  0  0  0
    2.6691    2.2420    0.0000 C   0  0  0  0  0  0  0  0  0  0  0  0
    2.5000    3.8512    0.0000 C   0  0  0  0  0  0  0  0  0  0  0  0
    7.5837   -0.0412    0.0000 H   0  0  0  0  0  0  0  0  0  0  0  0
    7.5143   -1.3262    0.0000 H   0  0  0  0  0  0  0  0  0  0  0  0
    8.3113   -1.3262    0.0000 H   0  0  0  0  0  0  0  0  0  0  0  0
    6.1808   -0.2312    0.0000 H   0  0  0  0  0  0  0  0  0  0  0  0
    8.5668    1.2314    0.0000 H   0  0  0  0  0  0  0  0  0  0  0  0
    8.1682    0.5411    0.0000 H   0  0  0  0  0  0  0  0  0  0  0  0
    9.1079    1.4588    0.0000 H   0  0  0  0  0  0  0  0  0  0  0  0
    6.3928   -2.4338    0.0000 H   0  0  0  0  0  0  0  0  0  0  0  0
    6.7913   -1.7436    0.0000 H   0  0  0  0  0  0  0  0  0  0  0  0
    4.7778   -0.6612    0.0000 H   0  0  0  0  0  0  0  0  0  0  0  0
   10.2649    2.1488    0.0000 H   0  0  0  0  0  0  0  0  0  0  0  0
    9.6448    2.7688    0.0000 H   0  0  0  0  0  0  0  0  0  0  0  0
    9.0248    2.1488    0.0000 H   0  0  0  0  0  0  0  0  0  0  0  0
   10.2009    0.1118    0.0000 H   0  0  0  0  0  0  0  0  0  0  0  0
   11.0478    0.3388    0.0000 H   0  0  0  0  0  0  0  0  0  0  0  0
   10.8209    1.1857    0.0000 H   0  0  0  0  0  0  0  0  0  0  0  0
    7.5837    0.9588    0.0000 H   0  0  0  0  0  0  0  0  0  0  0  0
   15.9913   -2.1648    0.0000 H   0  0  0  0  0  0  0  0  0  0  0  0
   16.3236   -3.8363    0.0000 H   0  0  0  0  0  0  0  0  0  0  0  0
   17.1127   -4.0927    0.0000 H   0  0  0  0  0  0  0  0  0  0  0  0
   11.3769   -0.2312    0.0000 H   0  0  0  0  0  0  0  0  0  0  0  0
    9.9739   -2.6612    0.0000 H   0  0  0  0  0  0  0  0  0  0  0  0
   17.9405   -3.8237    0.0000 H   0  0  0  0  0  0  0  0  0  0  0  0
   18.4282   -3.1524    0.0000 H   0  0  0  0  0  0  0  0  0  0  0  0
    4.4487   -1.2312    0.0000 H   0  0  0  0  0  0  0  0  0  0  0  0
    5.8517   -3.6612    0.0000 H   0  0  0  0  0  0  0  0  0  0  0  0
   16.6690   -1.3186    0.0000 H   0  0  0  0  0  0  0  0  0  0  0  0
   11.3769   -3.4712    0.0000 H   0  0  0  0  0  0  0  0  0  0  0  0
   15.0828   -1.3143    0.0000 H   0  0  0  0  0  0  0  0  0  0  0  0
    3.0457   -2.0412    0.0000 H   0  0  0  0  0  0  0  0  0  0  0  0
    4.4487   -4.4712    0.0000 H   0  0  0  0  0  0  0  0  0  0  0  0
    3.0457   -3.6612    0.0000 H   0  0  0  0  0  0  0  0  0  0  0  0
    5.0593    2.0411    0.0000 H   0  0  0  0  0  0  0  0  0  0  0  0
    4.6608    2.7314    0.0000 H   0  0  0  0  0  0  0  0  0  0  0  0
    2.5402    1.6356    0.0000 H   0  0  0  0  0  0  0  0  0  0  0  0
    2.2478    4.4176    0.0000 H   0  0  0  0  0  0  0  0  0  0  0  0
  1  5  2  0  0  0  0
  1  6  2  0  0  0  0
  1 11  1  0  0  0  0
  1 23  1  0  0  0  0
  2 32  1  0  0  0  0
  2 40  1  0  0  0  0
  3 45  1  0  0  0  0
  3 47  1  0  0  0  0
 17  4  1  6  0  0  0
  4 64  1  0  0  0  0
  7 33  1  0  0  0  0
  7 44  1  0  0  0  0
  8 33  2  0  0  0  0
  9 38  2  0  0  0  0
 10 39  2  0  0  0  0
 11 18  1  0  0  0  0
 11 20  1  0  0  0  0
 19 12  1  6  0  0  0
 12 33  1  0  0  0  0
 12 57  1  0  0  0  0
 13 27  1  0  0  0  0
 13 38  1  0  0  0  0
 13 74  1  0  0  0  0
 14 39  1  0  0  0  0
 14 40  1  0  0  0  0
 14 76  1  0  0  0  0
 15 36  1  0  0  0  0
 15 40  2  0  0  0  0
 16 46  1  0  0  0  0
 16 47  2  0  0  0  0
 17 18  1  0  0  0  0
 17 19  1  0  0  0  0
 17 48  1  0  0  0  0
 18 49  1  0  0  0  0
 18 50  1  0  0  0  0
 19 22  1  0  0  0  0
 19 51  1  0  0  0  0
 20 21  1  0  0  0  0
 20 52  1  0  0  0  0
 20 53  1  0  0  0  0
 21 24  1  0  0  0  0
 21 25  1  0  0  0  0
 21 54  1  0  0  0  0
 22 26  1  0  0  0  0
 22 55  1  0  0  0  0
 22 56  1  0  0  0  0
 23 28  2  0  0  0  0
 23 30  1  0  0  0  0
 24 58  1  0  0  0  0
 24 59  1  0  0  0  0
 24 60  1  0  0  0  0
 25 61  1  0  0  0  0
 25 62  1  0  0  0  0
 25 63  1  0  0  0  0
 26 34  2  0  0  0  0
 26 35  1  0  0  0  0
 27 29  1  0  0  0  0
 27 39  1  0  0  0  0
 27 65  1  0  0  0  0
 28 32  1  0  0  0  0
 28 68  1  0  0  0  0
 29 31  1  0  0  0  0
 29 66  1  0  0  0  0
 29 67  1  0  0  0  0
 30 37  2  0  0  0  0
 30 69  1  0  0  0  0
 31 38  1  0  0  0  0
 31 70  1  0  0  0  0
 31 71  1  0  0  0  0
 32 36  2  0  0  0  0
 34 41  1  0  0  0  0
 34 72  1  0  0  0  0
 35 42  2  0  0  0  0
 35 73  1  0  0  0  0
 36 37  1  0  0  0  0
 37 75  1  0  0  0  0
 41 43  2  0  0  0  0
 41 77  1  0  0  0  0
 42 43  1  0  0  0  0
 42 78  1  0  0  0  0
 43 79  1  0  0  0  0
 44 45  1  0  0  0  0
 44 80  1  0  0  0  0
 44 81  1  0  0  0  0
 45 46  2  0  0  0  0
 46 82  1  0  0  0  0
 47 83  1  0  0  0  0
M  END
> <PUBCHEM_COMPOUND_CID>
509726
> <PUBCHEM_COMPOUND_CANONICALIZED>
1
> <PUBCHEM_CACTVS_COMPLEXITY>
1180
> <PUBCHEM_CACTVS_HBOND_ACCEPTOR>
12
> <PUBCHEM_CACTVS_HBOND_DONOR>
4
> <PUBCHEM_CACTVS_ROTATABLE_BOND>
15
> <PUBCHEM_CACTVS_SUBSKEYS>
AAADcfB7uABgAAAAAAAAAAAAAAAAAWLFgAAwYAAAAAAAAFgB/AAAHgQQSAAADTzh3ga/2bLIFgqsAzV3fHDD8LlxCjlJ2L24bJmKdLLg+bmcYAhulwLY6Cecw6AOAAQAAEAAAQAACAAAgAACAAAAAAAAAA==
> <PUBCHEM_IUPAC_OPENEYE_NAME>
thiazol-5-ylmethyl N-[(1S,2R)-1-benzyl-2-hydroxy-3-[isobutyl-[[2-[(5-oxopyrrolidine-2-carbonyl)amino]-1,3-benzothiazol-6-yl]sulfonyl]amino]propyl]carbamate
> <PUBCHEM_IUPAC_CAS_NAME>
N-[(2S,3R)-3-hydroxy-4-[2-methylpropyl-[[2-[[oxo-(5-oxo-2-pyrrolidinyl)methyl]amino]-1,3-benzothiazol-6-yl]sulfonyl]amino]-1-phenylbutan-2-yl]carbamic acid 5-thiazolylmethyl ester
> <PUBCHEM_IUPAC_NAME_MARKUP>
1,3-thiazol-5-ylmethyl <I>N</I>-[(2<I>S</I>,3<I>R</I>)-3-hydroxy-4-[2-methylpropyl-[[2-[(5-oxopyrrolidine-2-carbonyl)amino]-1,3-benzothiazol-6-yl]sulfonyl]amino]-1-phenylbutan-2-yl]carbamate
> <PUBCHEM_IUPAC_NAME>
1,3-thiazol-5-ylmethyl N-[(2S,3R)-3-hydroxy-4-[2-methylpropyl-[[2-[(5-oxopyrrolidine-2-carbonyl)amino]-1,3-benzothiazol-6-yl]sulfonyl]amino]-1-phenylbutan-2-yl]carbamate
> <PUBCHEM_IUPAC_SYSTEMATIC_NAME>
1,3-thiazol-5-ylmethyl N-[(2S,3R)-4-[2-methylpropyl-[[2-[(5-oxidanylidenepyrrolidin-2-yl)carbonylamino]-1,3-benzothiazol-6-yl]sulfonyl]amino]-3-oxidanyl-1-phenyl-butan-2-yl]carbamate
> <PUBCHEM_IUPAC_TRADITIONAL_NAME>
N-[(1S,2R)-1-benzyl-2-hydroxy-3-[isobutyl-[[2-(pyroglutamoylamino)-1,3-benzothiazol-6-yl]sulfonyl]amino]propyl]carbamic acid thiazol-5-ylmethyl ester
> <PUBCHEM_IUPAC_INCHI>
InChI=1S/C31H36N6O7S3/c1-19(2)15-37(16-26(38)25(12-20-6-4-3-5-7-20)35-31(41)44-17-21-14-32-18-45-21)47(42,43)22-8-9-23-27(13-22)46-30(34-23)36-29(40)24-10-11-28(39)33-24/h3-9,13-14,18-19,24-26,38H,10-12,15-17H2,1-2H3,(H,33,39)(H,35,41)(H,34,36,40)/t24?,25-,26+/m0/s1
> <PUBCHEM_IUPAC_INCHIKEY>
MCKQOYUYKPPOGC-XBCLTQTASA-N
> <PUBCHEM_XLOGP3_AA>
3.5
> <PUBCHEM_EXACT_MASS>
700.18076103
> <PUBCHEM_MOLECULAR_FORMULA>
C31H36N6O7S3
> <PUBCHEM_MOLECULAR_WEIGHT>
700.9
> <PUBCHEM_OPENEYE_CAN_SMILES>
CC(C)CN(CC(C(CC1=CC=CC=C1)NC(=O)OCC2=CN=CS2)O)S(=O)(=O)C3=CC4=C(C=C3)N=C(S4)NC(=O)C5CCC(=O)N5
> <PUBCHEM_OPENEYE_ISO_SMILES>
CC(C)CN(C[C@H]([C@H](CC1=CC=CC=C1)NC(=O)OCC2=CN=CS2)O)S(=O)(=O)C3=CC4=C(C=C3)N=C(S4)NC(=O)C5CCC(=O)N5
> <PUBCHEM_CACTVS_TPSA>
245
> <PUBCHEM_MONOISOTOPIC_WEIGHT>
700.18076103
> <PUBCHEM_TOTAL_CHARGE>
0
> <PUBCHEM_HEAVY_ATOM_COUNT>
47
> <PUBCHEM_ATOM_DEF_STEREO_COUNT>
2
> <PUBCHEM_ATOM_UDEF_STEREO_COUNT>
1
> <PUBCHEM_BOND_DEF_STEREO_COUNT>
0
> <PUBCHEM_BOND_UDEF_STEREO_COUNT>
0
> <PUBCHEM_ISOTOPIC_ATOM_COUNT>
0
> <PUBCHEM_COMPONENT_COUNT>
1
> <PUBCHEM_CACTVS_TAUTO_COUNT>
-1
> <PUBCHEM_COORDINATE_TYPE>
1
5
255
> <PUBCHEM_BONDANNOTATIONS>
19  12  6
15  36  8
15  40  8
16  46  8
16  47  8
2  32  8
2  40  8
23  28  8
23  30  8
26  34  8
26  35  8
27  39  3
28  32  8
3  45  8
3  47  8
30  37  8
32  36  8
34  41  8
35  42  8
36  37  8
17  4  6
41  43  8
42  43  8
45  46  8
$$$$
