509723
  -OEChem-10302200282D
 92 96  0     1  0  0  0  0  0999 V2000
    9.6448    0.3138    0.0000 S   0  0  0  0  0  0  0  0  0  0  0  0
   13.1891    0.1186    0.0000 S   0  0  0  0  0  0  0  0  0  0  0  0
    3.4782    4.8084    0.0000 S   0  0  0  0  0  0  0  0  0  0  0  0
    7.0468    1.8138    0.0000 O   0  0  0  0  0  0  0  0  0  0  0  0
    9.1448   -0.5522    0.0000 O   0  0  0  0  0  0  0  0  0  0  0  0
   10.1449    1.1799    0.0000 O   0  0  0  0  0  0  0  0  0  0  0  0
    4.4487    2.3138    0.0000 O   0  0  0  0  0  0  0  0  0  0  0  0
   14.7728   -2.4182    0.0000 O   0  0  0  0  0  0  0  0  0  0  0  0
    6.1808    2.3138    0.0000 O   0  0  0  0  0  0  0  0  0  0  0  0
    8.7788    0.8138    0.0000 N   0  0  3  0  0  0  0  0  0  0  0  0
   16.7728   -2.4182    0.0000 N   0  0  0  0  0  0  0  0  0  0  0  0
   17.7728   -4.1502    0.0000 N   0  0  0  0  0  0  0  0  0  0  0  0
    5.3147    0.8138    0.0000 N   0  0  0  0  0  0  0  0  0  0  0  0
   14.7728   -0.6862    0.0000 N   0  0  0  0  0  0  0  0  0  0  0  0
   13.1891   -1.4909    0.0000 N   0  0  0  0  0  0  0  0  0  0  0  0
    2.0000    4.1502    0.0000 N   0  0  0  0  0  0  0  0  0  0  0  0
    7.0468    0.8138    0.0000 C   0  0  2  0  0  0  0  0  0  0  0  0
    7.9128    0.3138    0.0000 C   0  0  0  0  0  0  0  0  0  0  0  0
    6.1808    0.3138    0.0000 C   0  0  2  0  0  0  0  0  0  0  0  0
    8.7788    1.8138    0.0000 C   0  0  0  0  0  0  0  0  0  0  0  0
    9.6448    2.3138    0.0000 C   0  0  0  0  0  0  0  0  0  0  0  0
    6.1808   -0.6862    0.0000 C   0  0  0  0  0  0  0  0  0  0  0  0
   16.2728   -3.2842    0.0000 C   0  0  0  0  0  0  0  0  0  0  0  0
   17.7728   -2.4182    0.0000 C   0  0  0  0  0  0  0  0  0  0  0  0
   16.7728   -4.1502    0.0000 C   0  0  0  0  0  0  0  0  0  0  0  0
   18.2728   -3.2842    0.0000 C   0  0  0  0  0  0  0  0  0  0  0  0
   10.5109   -0.1862    0.0000 C   0  0  0  0  0  0  0  0  0  0  0  0
   16.2728   -1.5522    0.0000 C   0  0  0  0  0  0  0  0  0  0  0  0
    9.6448    3.3138    0.0000 C   0  0  0  0  0  0  0  0  0  0  0  0
   10.5109    1.8138    0.0000 C   0  0  0  0  0  0  0  0  0  0  0  0
    5.3147   -1.1862    0.0000 C   0  0  0  0  0  0  0  0  0  0  0  0
   18.2728   -5.0163    0.0000 C   0  0  0  0  0  0  0  0  0  0  0  0
   11.3769    0.3138    0.0000 C   0  0  0  0  0  0  0  0  0  0  0  0
   10.5109   -1.1862    0.0000 C   0  0  0  0  0  0  0  0  0  0  0  0
   15.2728   -1.5522    0.0000 C   0  0  0  0  0  0  0  0  0  0  0  0
   12.2429   -0.1862    0.0000 C   0  0  0  0  0  0  0  0  0  0  0  0
    5.3147    1.8138    0.0000 C   0  0  0  0  0  0  0  0  0  0  0  0
    5.3147   -2.1862    0.0000 C   0  0  0  0  0  0  0  0  0  0  0  0
    4.4487   -0.6862    0.0000 C   0  0  0  0  0  0  0  0  0  0  0  0
   12.2429   -1.1862    0.0000 C   0  0  0  0  0  0  0  0  0  0  0  0
   11.3769   -1.6862    0.0000 C   0  0  0  0  0  0  0  0  0  0  0  0
   13.7728   -0.6862    0.0000 C   0  0  0  0  0  0  0  0  0  0  0  0
    4.4487   -2.6862    0.0000 C   0  0  0  0  0  0  0  0  0  0  0  0
    3.5827   -1.1862    0.0000 C   0  0  0  0  0  0  0  0  0  0  0  0
    3.5827   -2.1862    0.0000 C   0  0  0  0  0  0  0  0  0  0  0  0
    4.4487    3.3138    0.0000 C   0  0  0  0  0  0  0  0  0  0  0  0
    3.5827    3.8138    0.0000 C   0  0  0  0  0  0  0  0  0  0  0  0
    2.6691    3.4071    0.0000 C   0  0  0  0  0  0  0  0  0  0  0  0
    2.5000    5.0163    0.0000 C   0  0  0  0  0  0  0  0  0  0  0  0
    7.5837    1.1238    0.0000 H   0  0  0  0  0  0  0  0  0  0  0  0
    7.5143   -0.1611    0.0000 H   0  0  0  0  0  0  0  0  0  0  0  0
    8.3113   -0.1611    0.0000 H   0  0  0  0  0  0  0  0  0  0  0  0
    6.1808    0.9338    0.0000 H   0  0  0  0  0  0  0  0  0  0  0  0
    8.5668    2.3965    0.0000 H   0  0  0  0  0  0  0  0  0  0  0  0
    8.1682    1.7062    0.0000 H   0  0  0  0  0  0  0  0  0  0  0  0
    9.1079    2.6238    0.0000 H   0  0  0  0  0  0  0  0  0  0  0  0
    6.3928   -1.2688    0.0000 H   0  0  0  0  0  0  0  0  0  0  0  0
    6.7913   -0.5785    0.0000 H   0  0  0  0  0  0  0  0  0  0  0  0
   15.7978   -2.8857    0.0000 H   0  0  0  0  0  0  0  0  0  0  0  0
   15.7978   -3.6828    0.0000 H   0  0  0  0  0  0  0  0  0  0  0  0
   18.3554   -2.2062    0.0000 H   0  0  0  0  0  0  0  0  0  0  0  0
   17.6651   -1.8076    0.0000 H   0  0  0  0  0  0  0  0  0  0  0  0
   16.1901   -4.3623    0.0000 H   0  0  0  0  0  0  0  0  0  0  0  0
   16.8804   -4.7608    0.0000 H   0  0  0  0  0  0  0  0  0  0  0  0
   18.7477   -3.6828    0.0000 H   0  0  0  0  0  0  0  0  0  0  0  0
   18.7477   -2.8857    0.0000 H   0  0  0  0  0  0  0  0  0  0  0  0
    4.7778    0.5038    0.0000 H   0  0  0  0  0  0  0  0  0  0  0  0
   16.8554   -1.3401    0.0000 H   0  0  0  0  0  0  0  0  0  0  0  0
   16.1651   -0.9416    0.0000 H   0  0  0  0  0  0  0  0  0  0  0  0
   10.2649    3.3138    0.0000 H   0  0  0  0  0  0  0  0  0  0  0  0
    9.6448    3.9338    0.0000 H   0  0  0  0  0  0  0  0  0  0  0  0
    9.0248    3.3138    0.0000 H   0  0  0  0  0  0  0  0  0  0  0  0
   10.2009    1.2769    0.0000 H   0  0  0  0  0  0  0  0  0  0  0  0
   11.0478    1.5038    0.0000 H   0  0  0  0  0  0  0  0  0  0  0  0
   10.8209    2.3508    0.0000 H   0  0  0  0  0  0  0  0  0  0  0  0
    7.5837    2.1238    0.0000 H   0  0  0  0  0  0  0  0  0  0  0  0
   17.7358   -5.3263    0.0000 H   0  0  0  0  0  0  0  0  0  0  0  0
   18.5828   -5.5532    0.0000 H   0  0  0  0  0  0  0  0  0  0  0  0
   18.8097   -4.7063    0.0000 H   0  0  0  0  0  0  0  0  0  0  0  0
   11.3769    0.9338    0.0000 H   0  0  0  0  0  0  0  0  0  0  0  0
    9.9739   -1.4962    0.0000 H   0  0  0  0  0  0  0  0  0  0  0  0
    5.8517   -2.4962    0.0000 H   0  0  0  0  0  0  0  0  0  0  0  0
    4.4487   -0.0662    0.0000 H   0  0  0  0  0  0  0  0  0  0  0  0
   11.3769   -2.3062    0.0000 H   0  0  0  0  0  0  0  0  0  0  0  0
   15.0828   -0.1492    0.0000 H   0  0  0  0  0  0  0  0  0  0  0  0
    4.4487   -3.3062    0.0000 H   0  0  0  0  0  0  0  0  0  0  0  0
    3.0457   -0.8762    0.0000 H   0  0  0  0  0  0  0  0  0  0  0  0
    3.0457   -2.4962    0.0000 H   0  0  0  0  0  0  0  0  0  0  0  0
    5.0593    3.2062    0.0000 H   0  0  0  0  0  0  0  0  0  0  0  0
    4.6608    3.8965    0.0000 H   0  0  0  0  0  0  0  0  0  0  0  0
    2.5402    2.8007    0.0000 H   0  0  0  0  0  0  0  0  0  0  0  0
    2.2478    5.5827    0.0000 H   0  0  0  0  0  0  0  0  0  0  0  0
  1  5  2  0  0  0  0
  1  6  2  0  0  0  0
  1 10  1  0  0  0  0
  1 27  1  0  0  0  0
  2 36  1  0  0  0  0
  2 42  1  0  0  0  0
  3 47  1  0  0  0  0
  3 49  1  0  0  0  0
 17  4  1  6  0  0  0
  4 76  1  0  0  0  0
  7 37  1  0  0  0  0
  7 46  1  0  0  0  0
  8 35  2  0  0  0  0
  9 37  2  0  0  0  0
 10 18  1  0  0  0  0
 10 20  1  0  0  0  0
 11 23  1  0  0  0  0
 11 24  1  0  0  0  0
 11 28  1  0  0  0  0
 12 25  1  0  0  0  0
 12 26  1  0  0  0  0
 12 32  1  0  0  0  0
 19 13  1  6  0  0  0
 13 37  1  0  0  0  0
 13 67  1  0  0  0  0
 14 35  1  0  0  0  0
 14 42  1  0  0  0  0
 14 85  1  0  0  0  0
 15 40  1  0  0  0  0
 15 42  2  0  0  0  0
 16 48  1  0  0  0  0
 16 49  2  0  0  0  0
 17 18  1  0  0  0  0
 17 19  1  0  0  0  0
 17 50  1  0  0  0  0
 18 51  1  0  0  0  0
 18 52  1  0  0  0  0
 19 22  1  0  0  0  0
 19 53  1  0  0  0  0
 20 21  1  0  0  0  0
 20 54  1  0  0  0  0
 20 55  1  0  0  0  0
 21 29  1  0  0  0  0
 21 30  1  0  0  0  0
 21 56  1  0  0  0  0
 22 31  1  0  0  0  0
 22 57  1  0  0  0  0
 22 58  1  0  0  0  0
 23 25  1  0  0  0  0
 23 59  1  0  0  0  0
 23 60  1  0  0  0  0
 24 26  1  0  0  0  0
 24 61  1  0  0  0  0
 24 62  1  0  0  0  0
 25 63  1  0  0  0  0
 25 64  1  0  0  0  0
 26 65  1  0  0  0  0
 26 66  1  0  0  0  0
 27 33  2  0  0  0  0
 27 34  1  0  0  0  0
 28 35  1  0  0  0  0
 28 68  1  0  0  0  0
 28 69  1  0  0  0  0
 29 70  1  0  0  0  0
 29 71  1  0  0  0  0
 29 72  1  0  0  0  0
 30 73  1  0  0  0  0
 30 74  1  0  0  0  0
 30 75  1  0  0  0  0
 31 38  2  0  0  0  0
 31 39  1  0  0  0  0
 32 77  1  0  0  0  0
 32 78  1  0  0  0  0
 32 79  1  0  0  0  0
 33 36  1  0  0  0  0
 33 80  1  0  0  0  0
 34 41  2  0  0  0  0
 34 81  1  0  0  0  0
 36 40  2  0  0  0  0
 38 43  1  0  0  0  0
 38 82  1  0  0  0  0
 39 44  2  0  0  0  0
 39 83  1  0  0  0  0
 40 41  1  0  0  0  0
 41 84  1  0  0  0  0
 43 45  2  0  0  0  0
 43 86  1  0  0  0  0
 44 45  1  0  0  0  0
 44 87  1  0  0  0  0
 45 88  1  0  0  0  0
 46 47  1  0  0  0  0
 46 89  1  0  0  0  0
 46 90  1  0  0  0  0
 47 48  2  0  0  0  0
 48 91  1  0  0  0  0
 49 92  1  0  0  0  0
M  END
> <PUBCHEM_COMPOUND_CID>
509723
> <PUBCHEM_COMPOUND_CANONICALIZED>
1
> <PUBCHEM_CACTVS_COMPLEXITY>
1170
> <PUBCHEM_CACTVS_HBOND_ACCEPTOR>
13
> <PUBCHEM_CACTVS_HBOND_DONOR>
3
> <PUBCHEM_CACTVS_ROTATABLE_BOND>
16
> <PUBCHEM_CACTVS_SUBSKEYS>
AAADcfB/uABgAAAAAAAAAAAAAAAAAWLAAAA8YIAAAAAAAFgB/AAAHgQQSAAADTzh3ga/2bPIFgqsAzV3fHDD8LlxCjlJ2Ly4bJmKdKLg+bmcYAhulwLY6CeQwKAOAAQAAEAAAQAACAAAgAACAAAAAAAAAA==
> <PUBCHEM_IUPAC_OPENEYE_NAME>
thiazol-5-ylmethyl N-[(1S,2R)-1-benzyl-2-hydroxy-3-[isobutyl-[[2-[[2-(4-methylpiperazin-1-yl)acetyl]amino]-1,3-benzothiazol-6-yl]sulfonyl]amino]propyl]carbamate
> <PUBCHEM_IUPAC_CAS_NAME>
N-[(2S,3R)-3-hydroxy-4-[[2-[[2-(4-methyl-1-piperazinyl)-1-oxoethyl]amino]-1,3-benzothiazol-6-yl]sulfonyl-(2-methylpropyl)amino]-1-phenylbutan-2-yl]carbamic acid 5-thiazolylmethyl ester
> <PUBCHEM_IUPAC_NAME_MARKUP>
1,3-thiazol-5-ylmethyl <I>N</I>-[(2<I>S</I>,3<I>R</I>)-3-hydroxy-4-[[2-[[2-(4-methylpiperazin-1-yl)acetyl]amino]-1,3-benzothiazol-6-yl]sulfonyl-(2-methylpropyl)amino]-1-phenylbutan-2-yl]carbamate
> <PUBCHEM_IUPAC_NAME>
1,3-thiazol-5-ylmethyl N-[(2S,3R)-3-hydroxy-4-[[2-[[2-(4-methylpiperazin-1-yl)acetyl]amino]-1,3-benzothiazol-6-yl]sulfonyl-(2-methylpropyl)amino]-1-phenylbutan-2-yl]carbamate
> <PUBCHEM_IUPAC_SYSTEMATIC_NAME>
1,3-thiazol-5-ylmethyl N-[(2S,3R)-4-[[2-[2-(4-methylpiperazin-1-yl)ethanoylamino]-1,3-benzothiazol-6-yl]sulfonyl-(2-methylpropyl)amino]-3-oxidanyl-1-phenyl-butan-2-yl]carbamate
> <PUBCHEM_IUPAC_TRADITIONAL_NAME>
N-[(1S,2R)-1-benzyl-2-hydroxy-3-[isobutyl-[[2-[[2-(4-methylpiperazino)acetyl]amino]-1,3-benzothiazol-6-yl]sulfonyl]amino]propyl]carbamic acid thiazol-5-ylmethyl ester
> <PUBCHEM_IUPAC_INCHI>
InChI=1S/C33H43N7O6S3/c1-23(2)18-40(19-29(41)28(15-24-7-5-4-6-8-24)36-33(43)46-21-25-17-34-22-47-25)49(44,45)26-9-10-27-30(16-26)48-32(35-27)37-31(42)20-39-13-11-38(3)12-14-39/h4-10,16-17,22-23,28-29,41H,11-15,18-21H2,1-3H3,(H,36,43)(H,35,37,42)/t28-,29+/m0/s1
> <PUBCHEM_IUPAC_INCHIKEY>
IIIWJDZLFPTHDB-URLMMPGGSA-N
> <PUBCHEM_XLOGP3_AA>
3.9
> <PUBCHEM_EXACT_MASS>
729.24369564
> <PUBCHEM_MOLECULAR_FORMULA>
C33H43N7O6S3
> <PUBCHEM_MOLECULAR_WEIGHT>
729.9
> <PUBCHEM_OPENEYE_CAN_SMILES>
CC(C)CN(CC(C(CC1=CC=CC=C1)NC(=O)OCC2=CN=CS2)O)S(=O)(=O)C3=CC4=C(C=C3)N=C(S4)NC(=O)CN5CCN(CC5)C
> <PUBCHEM_OPENEYE_ISO_SMILES>
CC(C)CN(C[C@H]([C@H](CC1=CC=CC=C1)NC(=O)OCC2=CN=CS2)O)S(=O)(=O)C3=CC4=C(C=C3)N=C(S4)NC(=O)CN5CCN(CC5)C
> <PUBCHEM_CACTVS_TPSA>
222
> <PUBCHEM_MONOISOTOPIC_WEIGHT>
729.24369564
> <PUBCHEM_TOTAL_CHARGE>
0
> <PUBCHEM_HEAVY_ATOM_COUNT>
49
> <PUBCHEM_ATOM_DEF_STEREO_COUNT>
2
> <PUBCHEM_ATOM_UDEF_STEREO_COUNT>
0
> <PUBCHEM_BOND_DEF_STEREO_COUNT>
0
> <PUBCHEM_BOND_UDEF_STEREO_COUNT>
0
> <PUBCHEM_ISOTOPIC_ATOM_COUNT>
0
> <PUBCHEM_COMPONENT_COUNT>
1
> <PUBCHEM_CACTVS_TAUTO_COUNT>
-1
> <PUBCHEM_COORDINATE_TYPE>
1
5
255
> <PUBCHEM_BONDANNOTATIONS>
19  13  6
15  40  8
15  42  8
16  48  8
16  49  8
2  36  8
2  42  8
27  33  8
27  34  8
3  47  8
3  49  8
31  38  8
31  39  8
33  36  8
34  41  8
36  40  8
38  43  8
39  44  8
17  4  6
40  41  8
43  45  8
44  45  8
47  48  8
$$$$
