509740
  -OEChem-10302200282D
104108  0     1  0  0  0  0  0999 V2000
    9.6448    0.6722    0.0000 S   0  0  0  0  0  0  0  0  0  0  0  0
   13.1891    0.4769    0.0000 S   0  0  0  0  0  0  0  0  0  0  0  0
    2.6691    3.7654    0.0000 S   0  0  0  0  0  0  0  0  0  0  0  0
    7.0468    2.1722    0.0000 O   0  0  0  0  0  0  0  0  0  0  0  0
    9.1448   -0.1939    0.0000 O   0  0  0  0  0  0  0  0  0  0  0  0
   10.1449    1.5382    0.0000 O   0  0  0  0  0  0  0  0  0  0  0  0
    4.4487    2.6722    0.0000 O   0  0  0  0  0  0  0  0  0  0  0  0
   14.7728   -2.0599    0.0000 O   0  0  0  0  0  0  0  0  0  0  0  0
    6.1808    2.6722    0.0000 O   0  0  0  0  0  0  0  0  0  0  0  0
   19.7728   -3.7919    0.0000 N   0  0  0  0  0  0  0  0  0  0  0  0
    8.7788    1.1722    0.0000 N   0  0  3  0  0  0  0  0  0  0  0  0
   16.7728   -2.0599    0.0000 N   0  0  3  0  0  0  0  0  0  0  0  0
    5.3147    1.1722    0.0000 N   0  0  0  0  0  0  0  0  0  0  0  0
   14.7728   -0.3278    0.0000 N   0  0  0  0  0  0  0  0  0  0  0  0
   13.1891   -1.1326    0.0000 N   0  0  0  0  0  0  0  0  0  0  0  0
    2.5000    5.3746    0.0000 N   0  0  0  0  0  0  0  0  0  0  0  0
   19.3660   -4.7055    0.0000 C   0  0  0  0  0  0  0  0  0  0  0  0
   20.7673   -3.8965    0.0000 C   0  0  0  0  0  0  0  0  0  0  0  0
   20.1092   -5.3746    0.0000 C   0  0  0  0  0  0  0  0  0  0  0  0
   20.9752   -4.8746    0.0000 C   0  0  0  0  0  0  0  0  0  0  0  0
   19.2728   -2.9259    0.0000 C   0  0  0  0  0  0  0  0  0  0  0  0
   18.2728   -2.9259    0.0000 C   0  0  0  0  0  0  0  0  0  0  0  0
    7.0468    1.1722    0.0000 C   0  0  2  0  0  0  0  0  0  0  0  0
    7.9128    0.6722    0.0000 C   0  0  0  0  0  0  0  0  0  0  0  0
    6.1808    0.6722    0.0000 C   0  0  2  0  0  0  0  0  0  0  0  0
    8.7788    2.1722    0.0000 C   0  0  0  0  0  0  0  0  0  0  0  0
   17.7728   -2.0599    0.0000 C   0  0  0  0  0  0  0  0  0  0  0  0
    9.6448    2.6722    0.0000 C   0  0  0  0  0  0  0  0  0  0  0  0
    6.1808   -0.3278    0.0000 C   0  0  0  0  0  0  0  0  0  0  0  0
   10.5109    0.1722    0.0000 C   0  0  0  0  0  0  0  0  0  0  0  0
    9.6448    3.6722    0.0000 C   0  0  0  0  0  0  0  0  0  0  0  0
   10.5109    2.1722    0.0000 C   0  0  0  0  0  0  0  0  0  0  0  0
    5.3147   -0.8278    0.0000 C   0  0  0  0  0  0  0  0  0  0  0  0
   16.2728   -1.1938    0.0000 C   0  0  0  0  0  0  0  0  0  0  0  0
   16.2728   -2.9259    0.0000 C   0  0  0  0  0  0  0  0  0  0  0  0
   11.3769    0.6722    0.0000 C   0  0  0  0  0  0  0  0  0  0  0  0
   10.5109   -0.8278    0.0000 C   0  0  0  0  0  0  0  0  0  0  0  0
   12.2429    0.1722    0.0000 C   0  0  0  0  0  0  0  0  0  0  0  0
   15.2728   -1.1938    0.0000 C   0  0  0  0  0  0  0  0  0  0  0  0
    5.3147    2.1722    0.0000 C   0  0  0  0  0  0  0  0  0  0  0  0
    5.3147   -1.8278    0.0000 C   0  0  0  0  0  0  0  0  0  0  0  0
    4.4487   -0.3278    0.0000 C   0  0  0  0  0  0  0  0  0  0  0  0
   12.2429   -0.8278    0.0000 C   0  0  0  0  0  0  0  0  0  0  0  0
   11.3769   -1.3278    0.0000 C   0  0  0  0  0  0  0  0  0  0  0  0
   13.7728   -0.3278    0.0000 C   0  0  0  0  0  0  0  0  0  0  0  0
    4.4487   -2.3278    0.0000 C   0  0  0  0  0  0  0  0  0  0  0  0
    3.5827   -0.8278    0.0000 C   0  0  0  0  0  0  0  0  0  0  0  0
    3.5827   -1.8278    0.0000 C   0  0  0  0  0  0  0  0  0  0  0  0
   15.2728    0.5382    0.0000 C   0  0  0  0  0  0  0  0  0  0  0  0
    4.4487    3.6722    0.0000 C   0  0  0  0  0  0  0  0  0  0  0  0
    3.5827    4.1722    0.0000 C   0  0  0  0  0  0  0  0  0  0  0  0
    3.4782    5.1667    0.0000 C   0  0  0  0  0  0  0  0  0  0  0  0
    2.0000    4.5086    0.0000 C   0  0  0  0  0  0  0  0  0  0  0  0
   18.8291   -4.3955    0.0000 H   0  0  0  0  0  0  0  0  0  0  0  0
   19.0016   -5.2071    0.0000 H   0  0  0  0  0  0  0  0  0  0  0  0
   21.3839   -3.8316    0.0000 H   0  0  0  0  0  0  0  0  0  0  0  0
   20.7673   -3.2765    0.0000 H   0  0  0  0  0  0  0  0  0  0  0  0
   19.6484   -5.7895    0.0000 H   0  0  0  0  0  0  0  0  0  0  0  0
   20.4736   -5.8762    0.0000 H   0  0  0  0  0  0  0  0  0  0  0  0
   21.2274   -5.4410    0.0000 H   0  0  0  0  0  0  0  0  0  0  0  0
   21.5648   -4.6830    0.0000 H   0  0  0  0  0  0  0  0  0  0  0  0
   19.8554   -2.7138    0.0000 H   0  0  0  0  0  0  0  0  0  0  0  0
   19.1651   -2.3153    0.0000 H   0  0  0  0  0  0  0  0  0  0  0  0
   17.6901   -3.1380    0.0000 H   0  0  0  0  0  0  0  0  0  0  0  0
   18.3804   -3.5365    0.0000 H   0  0  0  0  0  0  0  0  0  0  0  0
    7.5837    1.4822    0.0000 H   0  0  0  0  0  0  0  0  0  0  0  0
    7.5143    0.1972    0.0000 H   0  0  0  0  0  0  0  0  0  0  0  0
    8.3113    0.1972    0.0000 H   0  0  0  0  0  0  0  0  0  0  0  0
    6.1808    1.2922    0.0000 H   0  0  0  0  0  0  0  0  0  0  0  0
    8.5668    2.7548    0.0000 H   0  0  0  0  0  0  0  0  0  0  0  0
    8.1682    2.0645    0.0000 H   0  0  0  0  0  0  0  0  0  0  0  0
   18.3554   -1.8478    0.0000 H   0  0  0  0  0  0  0  0  0  0  0  0
   17.6651   -1.4493    0.0000 H   0  0  0  0  0  0  0  0  0  0  0  0
    9.1079    2.9822    0.0000 H   0  0  0  0  0  0  0  0  0  0  0  0
    6.3928   -0.9104    0.0000 H   0  0  0  0  0  0  0  0  0  0  0  0
    6.7913   -0.2202    0.0000 H   0  0  0  0  0  0  0  0  0  0  0  0
    4.7778    0.8622    0.0000 H   0  0  0  0  0  0  0  0  0  0  0  0
   10.2649    3.6722    0.0000 H   0  0  0  0  0  0  0  0  0  0  0  0
    9.6448    4.2922    0.0000 H   0  0  0  0  0  0  0  0  0  0  0  0
    9.0248    3.6722    0.0000 H   0  0  0  0  0  0  0  0  0  0  0  0
   10.2009    1.6352    0.0000 H   0  0  0  0  0  0  0  0  0  0  0  0
   11.0478    1.8622    0.0000 H   0  0  0  0  0  0  0  0  0  0  0  0
   10.8209    2.7091    0.0000 H   0  0  0  0  0  0  0  0  0  0  0  0
   16.8554   -0.9818    0.0000 H   0  0  0  0  0  0  0  0  0  0  0  0
   16.1651   -0.5833    0.0000 H   0  0  0  0  0  0  0  0  0  0  0  0
    7.5837    2.4822    0.0000 H   0  0  0  0  0  0  0  0  0  0  0  0
   15.7358   -2.6159    0.0000 H   0  0  0  0  0  0  0  0  0  0  0  0
   15.9628   -3.4628    0.0000 H   0  0  0  0  0  0  0  0  0  0  0  0
   16.8097   -3.2359    0.0000 H   0  0  0  0  0  0  0  0  0  0  0  0
   11.3769    1.2922    0.0000 H   0  0  0  0  0  0  0  0  0  0  0  0
    9.9739   -1.1378    0.0000 H   0  0  0  0  0  0  0  0  0  0  0  0
    5.8517   -2.1378    0.0000 H   0  0  0  0  0  0  0  0  0  0  0  0
    4.4487    0.2922    0.0000 H   0  0  0  0  0  0  0  0  0  0  0  0
   11.3769   -1.9478    0.0000 H   0  0  0  0  0  0  0  0  0  0  0  0
    4.4487   -2.9478    0.0000 H   0  0  0  0  0  0  0  0  0  0  0  0
    3.0457   -0.5178    0.0000 H   0  0  0  0  0  0  0  0  0  0  0  0
    3.0457   -2.1378    0.0000 H   0  0  0  0  0  0  0  0  0  0  0  0
   15.8097    0.2282    0.0000 H   0  0  0  0  0  0  0  0  0  0  0  0
   15.5828    1.0751    0.0000 H   0  0  0  0  0  0  0  0  0  0  0  0
   14.7358    0.8482    0.0000 H   0  0  0  0  0  0  0  0  0  0  0  0
    5.0593    3.5645    0.0000 H   0  0  0  0  0  0  0  0  0  0  0  0
    4.6608    4.2548    0.0000 H   0  0  0  0  0  0  0  0  0  0  0  0
    3.9389    5.5816    0.0000 H   0  0  0  0  0  0  0  0  0  0  0  0
    1.3834    4.4438    0.0000 H   0  0  0  0  0  0  0  0  0  0  0  0
  1  5  2  0  0  0  0
  1  6  2  0  0  0  0
  1 11  1  0  0  0  0
  1 30  1  0  0  0  0
  2 38  1  0  0  0  0
  2 45  1  0  0  0  0
  3 51  1  0  0  0  0
  3 53  1  0  0  0  0
 23  4  1  6  0  0  0
  4 86  1  0  0  0  0
  7 40  1  0  0  0  0
  7 50  1  0  0  0  0
  8 39  2  0  0  0  0
  9 40  2  0  0  0  0
 10 17  1  0  0  0  0
 10 18  1  0  0  0  0
 10 21  1  0  0  0  0
 11 24  1  0  0  0  0
 11 26  1  0  0  0  0
 12 27  1  0  0  0  0
 12 34  1  0  0  0  0
 12 35  1  0  0  0  0
 25 13  1  6  0  0  0
 13 40  1  0  0  0  0
 13 77  1  0  0  0  0
 14 39  1  0  0  0  0
 14 45  1  0  0  0  0
 14 49  1  0  0  0  0
 15 43  1  0  0  0  0
 15 45  2  0  0  0  0
 16 52  1  0  0  0  0
 16 53  2  0  0  0  0
 17 19  1  0  0  0  0
 17 54  1  0  0  0  0
 17 55  1  0  0  0  0
 18 20  1  0  0  0  0
 18 56  1  0  0  0  0
 18 57  1  0  0  0  0
 19 20  1  0  0  0  0
 19 58  1  0  0  0  0
 19 59  1  0  0  0  0
 20 60  1  0  0  0  0
 20 61  1  0  0  0  0
 21 22  1  0  0  0  0
 21 62  1  0  0  0  0
 21 63  1  0  0  0  0
 22 27  1  0  0  0  0
 22 64  1  0  0  0  0
 22 65  1  0  0  0  0
 23 24  1  0  0  0  0
 23 25  1  0  0  0  0
 23 66  1  0  0  0  0
 24 67  1  0  0  0  0
 24 68  1  0  0  0  0
 25 29  1  0  0  0  0
 25 69  1  0  0  0  0
 26 28  1  0  0  0  0
 26 70  1  0  0  0  0
 26 71  1  0  0  0  0
 27 72  1  0  0  0  0
 27 73  1  0  0  0  0
 28 31  1  0  0  0  0
 28 32  1  0  0  0  0
 28 74  1  0  0  0  0
 29 33  1  0  0  0  0
 29 75  1  0  0  0  0
 29 76  1  0  0  0  0
 30 36  2  0  0  0  0
 30 37  1  0  0  0  0
 31 78  1  0  0  0  0
 31 79  1  0  0  0  0
 31 80  1  0  0  0  0
 32 81  1  0  0  0  0
 32 82  1  0  0  0  0
 32 83  1  0  0  0  0
 33 41  2  0  0  0  0
 33 42  1  0  0  0  0
 34 39  1  0  0  0  0
 34 84  1  0  0  0  0
 34 85  1  0  0  0  0
 35 87  1  0  0  0  0
 35 88  1  0  0  0  0
 35 89  1  0  0  0  0
 36 38  1  0  0  0  0
 36 90  1  0  0  0  0
 37 44  2  0  0  0  0
 37 91  1  0  0  0  0
 38 43  2  0  0  0  0
 41 46  1  0  0  0  0
 41 92  1  0  0  0  0
 42 47  2  0  0  0  0
 42 93  1  0  0  0  0
 43 44  1  0  0  0  0
 44 94  1  0  0  0  0
 46 48  2  0  0  0  0
 46 95  1  0  0  0  0
 47 48  1  0  0  0  0
 47 96  1  0  0  0  0
 48 97  1  0  0  0  0
 49 98  1  0  0  0  0
 49 99  1  0  0  0  0
 49100  1  0  0  0  0
 50 51  1  0  0  0  0
 50101  1  0  0  0  0
 50102  1  0  0  0  0
 51 52  2  0  0  0  0
 52103  1  0  0  0  0
 53104  1  0  0  0  0
M  END
> <PUBCHEM_COMPOUND_CID>
509740
> <PUBCHEM_COMPOUND_CANONICALIZED>
1
> <PUBCHEM_CACTVS_COMPLEXITY>
1250
> <PUBCHEM_CACTVS_HBOND_ACCEPTOR>
13
> <PUBCHEM_CACTVS_HBOND_DONOR>
2
> <PUBCHEM_CACTVS_ROTATABLE_BOND>
20
> <PUBCHEM_CACTVS_SUBSKEYS>
AAADcfB/uABgAAAAAAAAAAAAAAAAAWLFgAAwYAAAAAAAAFgB/AAAHgQQSAAADTzh3ga/2bPIFgqsAzV3fHDD8LlxCjhJ2Ly4bJmKdKLg+bmcYAhulwLY6CeQwKAOAAQAAEAAAQAACAAAgAACAAAAAAAAAA==
> <PUBCHEM_IUPAC_OPENEYE_NAME>
thiazol-5-ylmethyl N-[(1S,2R)-1-benzyl-2-hydroxy-3-[isobutyl-[[2-[methyl-[2-[methyl(3-pyrrolidin-1-ylpropyl)amino]acetyl]amino]-1,3-benzothiazol-6-yl]sulfonyl]amino]propyl]carbamate
> <PUBCHEM_IUPAC_CAS_NAME>
N-[(2S,3R)-3-hydroxy-4-[[2-[methyl-[2-[methyl-[3-(1-pyrrolidinyl)propyl]amino]-1-oxoethyl]amino]-1,3-benzothiazol-6-yl]sulfonyl-(2-methylpropyl)amino]-1-phenylbutan-2-yl]carbamic acid 5-thiazolylmethyl ester
> <PUBCHEM_IUPAC_NAME_MARKUP>
1,3-thiazol-5-ylmethyl <I>N</I>-[(2<I>S</I>,3<I>R</I>)-3-hydroxy-4-[[2-[methyl-[2-[methyl(3-pyrrolidin-1-ylpropyl)amino]acetyl]amino]-1,3-benzothiazol-6-yl]sulfonyl-(2-methylpropyl)amino]-1-phenylbutan-2-yl]carbamate
> <PUBCHEM_IUPAC_NAME>
1,3-thiazol-5-ylmethyl N-[(2S,3R)-3-hydroxy-4-[[2-[methyl-[2-[methyl(3-pyrrolidin-1-ylpropyl)amino]acetyl]amino]-1,3-benzothiazol-6-yl]sulfonyl-(2-methylpropyl)amino]-1-phenylbutan-2-yl]carbamate
> <PUBCHEM_IUPAC_SYSTEMATIC_NAME>
1,3-thiazol-5-ylmethyl N-[(2S,3R)-4-[[2-[methyl-[2-[methyl(3-pyrrolidin-1-ylpropyl)amino]ethanoyl]amino]-1,3-benzothiazol-6-yl]sulfonyl-(2-methylpropyl)amino]-3-oxidanyl-1-phenyl-butan-2-yl]carbamate
> <PUBCHEM_IUPAC_TRADITIONAL_NAME>
N-[(1S,2R)-1-benzyl-2-hydroxy-3-[isobutyl-[[2-[methyl-[2-[methyl(3-pyrrolidinopropyl)amino]acetyl]amino]-1,3-benzothiazol-6-yl]sulfonyl]amino]propyl]carbamic acid thiazol-5-ylmethyl ester
> <PUBCHEM_IUPAC_INCHI>
InChI=1S/C37H51N7O6S3/c1-27(2)22-44(23-33(45)32(19-28-11-6-5-7-12-28)40-37(47)50-25-29-21-38-26-51-29)53(48,49)30-13-14-31-34(20-30)52-36(39-31)42(4)35(46)24-41(3)15-10-18-43-16-8-9-17-43/h5-7,11-14,20-21,26-27,32-33,45H,8-10,15-19,22-25H2,1-4H3,(H,40,47)/t32-,33+/m0/s1
> <PUBCHEM_IUPAC_INCHIKEY>
ODWKYLBLNIWJFB-JHOUSYSJSA-N
> <PUBCHEM_XLOGP3_AA>
5.2
> <PUBCHEM_EXACT_MASS>
785.30629589
> <PUBCHEM_MOLECULAR_FORMULA>
C37H51N7O6S3
> <PUBCHEM_MOLECULAR_WEIGHT>
786.0
> <PUBCHEM_OPENEYE_CAN_SMILES>
CC(C)CN(CC(C(CC1=CC=CC=C1)NC(=O)OCC2=CN=CS2)O)S(=O)(=O)C3=CC4=C(C=C3)N=C(S4)N(C)C(=O)CN(C)CCCN5CCCC5
> <PUBCHEM_OPENEYE_ISO_SMILES>
CC(C)CN(C[C@H]([C@H](CC1=CC=CC=C1)NC(=O)OCC2=CN=CS2)O)S(=O)(=O)C3=CC4=C(C=C3)N=C(S4)N(C)C(=O)CN(C)CCCN5CCCC5
> <PUBCHEM_CACTVS_TPSA>
213
> <PUBCHEM_MONOISOTOPIC_WEIGHT>
785.30629589
> <PUBCHEM_TOTAL_CHARGE>
0
> <PUBCHEM_HEAVY_ATOM_COUNT>
53
> <PUBCHEM_ATOM_DEF_STEREO_COUNT>
2
> <PUBCHEM_ATOM_UDEF_STEREO_COUNT>
0
> <PUBCHEM_BOND_DEF_STEREO_COUNT>
0
> <PUBCHEM_BOND_UDEF_STEREO_COUNT>
0
> <PUBCHEM_ISOTOPIC_ATOM_COUNT>
0
> <PUBCHEM_COMPONENT_COUNT>
1
> <PUBCHEM_CACTVS_TAUTO_COUNT>
-1
> <PUBCHEM_COORDINATE_TYPE>
1
5
255
> <PUBCHEM_BONDANNOTATIONS>
25  13  6
15  43  8
15  45  8
16  52  8
16  53  8
2  38  8
2  45  8
3  51  8
3  53  8
30  36  8
30  37  8
33  41  8
33  42  8
36  38  8
37  44  8
38  43  8
23  4  6
41  46  8
42  47  8
43  44  8
46  48  8
47  48  8
51  52  8
$$$$
