509704
  -OEChem-10302200282D
 94 98  0     1  0  0  0  0  0999 V2000
    9.7942   -1.0000    0.0000 S   0  0  0  0  0  0  0  0  0  0  0  0
   13.3385   -1.1953    0.0000 S   0  0  0  0  0  0  0  0  0  0  0  0
   17.0099   -3.6750    0.0000 O   0  0  0  0  0  0  0  0  0  0  0  0
    7.1962    0.5000    0.0000 O   0  0  0  0  0  0  0  0  0  0  0  0
    9.2942   -1.8660    0.0000 O   0  0  0  0  0  0  0  0  0  0  0  0
   10.2942   -0.1340    0.0000 O   0  0  0  0  0  0  0  0  0  0  0  0
    6.3301    1.0000    0.0000 O   0  0  0  0  0  0  0  0  0  0  0  0
    4.5981    2.0000    0.0000 O   0  0  0  0  0  0  0  0  0  0  0  0
    8.9282   -0.5000    0.0000 N   0  0  3  0  0  0  0  0  0  0  0  0
    5.4641   -0.5000    0.0000 N   0  0  0  0  0  0  0  0  0  0  0  0
   14.9221   -2.0000    0.0000 N   0  0  0  0  0  0  0  0  0  0  0  0
   13.3385   -2.8047    0.0000 N   0  0  0  0  0  0  0  0  0  0  0  0
    7.1962   -0.5000    0.0000 C   0  0  2  0  0  0  0  0  0  0  0  0
    8.0622   -1.0000    0.0000 C   0  0  0  0  0  0  0  0  0  0  0  0
    6.3301   -1.0000    0.0000 C   0  0  2  0  0  0  0  0  0  0  0  0
    8.9282    0.5000    0.0000 C   0  0  0  0  0  0  0  0  0  0  0  0
    9.7942    1.0000    0.0000 C   0  0  0  0  0  0  0  0  0  0  0  0
    6.3301   -2.0000    0.0000 C   0  0  0  0  0  0  0  0  0  0  0  0
   16.4221   -2.8660    0.0000 C   0  0  3  0  0  0  0  0  0  0  0  0
   17.0099   -2.0570    0.0000 C   0  0  0  0  0  0  0  0  0  0  0  0
   17.9610   -2.3660    0.0000 C   0  0  0  0  0  0  0  0  0  0  0  0
   10.6603   -1.5000    0.0000 C   0  0  0  0  0  0  0  0  0  0  0  0
   17.9610   -3.3660    0.0000 C   0  0  0  0  0  0  0  0  0  0  0  0
   15.4221   -2.8660    0.0000 C   0  0  0  0  0  0  0  0  0  0  0  0
    9.7942    2.0000    0.0000 C   0  0  0  0  0  0  0  0  0  0  0  0
   10.6603    0.5000    0.0000 C   0  0  0  0  0  0  0  0  0  0  0  0
    5.4641   -2.5000    0.0000 C   0  0  0  0  0  0  0  0  0  0  0  0
   11.5263   -1.0000    0.0000 C   0  0  0  0  0  0  0  0  0  0  0  0
   10.6603   -2.5000    0.0000 C   0  0  0  0  0  0  0  0  0  0  0  0
   12.3923   -1.5000    0.0000 C   0  0  0  0  0  0  0  0  0  0  0  0
    5.4641    0.5000    0.0000 C   0  0  0  0  0  0  0  0  0  0  0  0
   12.3923   -2.5000    0.0000 C   0  0  0  0  0  0  0  0  0  0  0  0
   13.9221   -2.0000    0.0000 C   0  0  0  0  0  0  0  0  0  0  0  0
    5.4641   -3.5000    0.0000 C   0  0  0  0  0  0  0  0  0  0  0  0
    4.5981   -2.0000    0.0000 C   0  0  0  0  0  0  0  0  0  0  0  0
   11.5263   -3.0000    0.0000 C   0  0  0  0  0  0  0  0  0  0  0  0
    4.5981    1.0000    0.0000 C   0  0  0  0  0  0  0  0  0  0  0  0
    4.5981   -4.0000    0.0000 C   0  0  0  0  0  0  0  0  0  0  0  0
    3.7320   -2.5000    0.0000 C   0  0  0  0  0  0  0  0  0  0  0  0
    3.7320   -3.5000    0.0000 C   0  0  0  0  0  0  0  0  0  0  0  0
    3.7320    2.5000    0.0000 C   0  0  0  0  0  0  0  0  0  0  0  0
    2.8660    2.0000    0.0000 C   0  0  0  0  0  0  0  0  0  0  0  0
    3.7320    3.5000    0.0000 C   0  0  0  0  0  0  0  0  0  0  0  0
    2.0000    2.5000    0.0000 C   0  0  0  0  0  0  0  0  0  0  0  0
    2.8660    4.0000    0.0000 C   0  0  0  0  0  0  0  0  0  0  0  0
    2.8660    1.0000    0.0000 C   0  0  0  0  0  0  0  0  0  0  0  0
    4.5981    4.0000    0.0000 C   0  0  0  0  0  0  0  0  0  0  0  0
    2.0000    3.5000    0.0000 C   0  0  0  0  0  0  0  0  0  0  0  0
    6.6592   -0.1900    0.0000 H   0  0  0  0  0  0  0  0  0  0  0  0
    7.6636   -1.4750    0.0000 H   0  0  0  0  0  0  0  0  0  0  0  0
    8.4607   -1.4750    0.0000 H   0  0  0  0  0  0  0  0  0  0  0  0
    5.7932   -1.3100    0.0000 H   0  0  0  0  0  0  0  0  0  0  0  0
    8.7162    1.0826    0.0000 H   0  0  0  0  0  0  0  0  0  0  0  0
    8.3176    0.3923    0.0000 H   0  0  0  0  0  0  0  0  0  0  0  0
    9.2573    1.3100    0.0000 H   0  0  0  0  0  0  0  0  0  0  0  0
    6.5422   -2.5826    0.0000 H   0  0  0  0  0  0  0  0  0  0  0  0
    6.9407   -1.8923    0.0000 H   0  0  0  0  0  0  0  0  0  0  0  0
   16.1407   -3.4184    0.0000 H   0  0  0  0  0  0  0  0  0  0  0  0
   17.2621   -1.4906    0.0000 H   0  0  0  0  0  0  0  0  0  0  0  0
   16.4730   -1.7470    0.0000 H   0  0  0  0  0  0  0  0  0  0  0  0
   18.5776   -2.4308    0.0000 H   0  0  0  0  0  0  0  0  0  0  0  0
   18.0899   -1.7596    0.0000 H   0  0  0  0  0  0  0  0  0  0  0  0
    4.9272   -0.8100    0.0000 H   0  0  0  0  0  0  0  0  0  0  0  0
   18.0899   -3.9725    0.0000 H   0  0  0  0  0  0  0  0  0  0  0  0
   18.5776   -3.3012    0.0000 H   0  0  0  0  0  0  0  0  0  0  0  0
   14.8395   -3.0781    0.0000 H   0  0  0  0  0  0  0  0  0  0  0  0
   15.5298   -3.4766    0.0000 H   0  0  0  0  0  0  0  0  0  0  0  0
   10.4142    2.0000    0.0000 H   0  0  0  0  0  0  0  0  0  0  0  0
    9.7942    2.6200    0.0000 H   0  0  0  0  0  0  0  0  0  0  0  0
    9.1742    2.0000    0.0000 H   0  0  0  0  0  0  0  0  0  0  0  0
   10.3503   -0.0369    0.0000 H   0  0  0  0  0  0  0  0  0  0  0  0
   11.1972    0.1900    0.0000 H   0  0  0  0  0  0  0  0  0  0  0  0
   10.9703    1.0369    0.0000 H   0  0  0  0  0  0  0  0  0  0  0  0
    7.7331    0.8100    0.0000 H   0  0  0  0  0  0  0  0  0  0  0  0
   11.5263   -0.3800    0.0000 H   0  0  0  0  0  0  0  0  0  0  0  0
   10.1233   -2.8100    0.0000 H   0  0  0  0  0  0  0  0  0  0  0  0
   15.2321   -1.4631    0.0000 H   0  0  0  0  0  0  0  0  0  0  0  0
    6.0010   -3.8100    0.0000 H   0  0  0  0  0  0  0  0  0  0  0  0
    4.5981   -1.3800    0.0000 H   0  0  0  0  0  0  0  0  0  0  0  0
   11.5263   -3.6200    0.0000 H   0  0  0  0  0  0  0  0  0  0  0  0
    3.9875    1.1077    0.0000 H   0  0  0  0  0  0  0  0  0  0  0  0
    4.3860    0.4174    0.0000 H   0  0  0  0  0  0  0  0  0  0  0  0
    4.5981   -4.6200    0.0000 H   0  0  0  0  0  0  0  0  0  0  0  0
    3.1951   -2.1900    0.0000 H   0  0  0  0  0  0  0  0  0  0  0  0
    3.1951   -3.8100    0.0000 H   0  0  0  0  0  0  0  0  0  0  0  0
    1.4631    2.1900    0.0000 H   0  0  0  0  0  0  0  0  0  0  0  0
    2.8660    4.6200    0.0000 H   0  0  0  0  0  0  0  0  0  0  0  0
    2.2460    1.0000    0.0000 H   0  0  0  0  0  0  0  0  0  0  0  0
    2.8660    0.3800    0.0000 H   0  0  0  0  0  0  0  0  0  0  0  0
    3.4860    1.0000    0.0000 H   0  0  0  0  0  0  0  0  0  0  0  0
    4.9081    3.4631    0.0000 H   0  0  0  0  0  0  0  0  0  0  0  0
    5.1350    4.3100    0.0000 H   0  0  0  0  0  0  0  0  0  0  0  0
    4.2881    4.5369    0.0000 H   0  0  0  0  0  0  0  0  0  0  0  0
    1.4631    3.8100    0.0000 H   0  0  0  0  0  0  0  0  0  0  0  0
  1  5  2  0  0  0  0
  1  6  2  0  0  0  0
  1  9  1  0  0  0  0
  1 22  1  0  0  0  0
  2 30  1  0  0  0  0
  2 33  1  0  0  0  0
  3 19  1  0  0  0  0
  3 23  1  0  0  0  0
 13  4  1  6  0  0  0
  4 74  1  0  0  0  0
  7 31  2  0  0  0  0
  8 37  1  0  0  0  0
  8 41  1  0  0  0  0
  9 14  1  0  0  0  0
  9 16  1  0  0  0  0
 15 10  1  6  0  0  0
 10 31  1  0  0  0  0
 10 63  1  0  0  0  0
 11 24  1  0  0  0  0
 11 33  1  0  0  0  0
 11 77  1  0  0  0  0
 12 32  1  0  0  0  0
 12 33  2  0  0  0  0
 13 14  1  0  0  0  0
 13 15  1  0  0  0  0
 13 49  1  0  0  0  0
 14 50  1  0  0  0  0
 14 51  1  0  0  0  0
 15 18  1  0  0  0  0
 15 52  1  0  0  0  0
 16 17  1  0  0  0  0
 16 53  1  0  0  0  0
 16 54  1  0  0  0  0
 17 25  1  0  0  0  0
 17 26  1  0  0  0  0
 17 55  1  0  0  0  0
 18 27  1  0  0  0  0
 18 56  1  0  0  0  0
 18 57  1  0  0  0  0
 19 20  1  0  0  0  0
 19 24  1  0  0  0  0
 19 58  1  0  0  0  0
 20 21  1  0  0  0  0
 20 59  1  0  0  0  0
 20 60  1  0  0  0  0
 21 23  1  0  0  0  0
 21 61  1  0  0  0  0
 21 62  1  0  0  0  0
 22 28  2  0  0  0  0
 22 29  1  0  0  0  0
 23 64  1  0  0  0  0
 23 65  1  0  0  0  0
 24 66  1  0  0  0  0
 24 67  1  0  0  0  0
 25 68  1  0  0  0  0
 25 69  1  0  0  0  0
 25 70  1  0  0  0  0
 26 71  1  0  0  0  0
 26 72  1  0  0  0  0
 26 73  1  0  0  0  0
 27 34  2  0  0  0  0
 27 35  1  0  0  0  0
 28 30  1  0  0  0  0
 28 75  1  0  0  0  0
 29 36  2  0  0  0  0
 29 76  1  0  0  0  0
 30 32  2  0  0  0  0
 31 37  1  0  0  0  0
 32 36  1  0  0  0  0
 34 38  1  0  0  0  0
 34 78  1  0  0  0  0
 35 39  2  0  0  0  0
 35 79  1  0  0  0  0
 36 80  1  0  0  0  0
 37 81  1  0  0  0  0
 37 82  1  0  0  0  0
 38 40  2  0  0  0  0
 38 83  1  0  0  0  0
 39 40  1  0  0  0  0
 39 84  1  0  0  0  0
 40 85  1  0  0  0  0
 41 42  2  0  0  0  0
 41 43  1  0  0  0  0
 42 44  1  0  0  0  0
 42 46  1  0  0  0  0
 43 45  2  0  0  0  0
 43 47  1  0  0  0  0
 44 48  2  0  0  0  0
 44 86  1  0  0  0  0
 45 48  1  0  0  0  0
 45 87  1  0  0  0  0
 46 88  1  0  0  0  0
 46 89  1  0  0  0  0
 46 90  1  0  0  0  0
 47 91  1  0  0  0  0
 47 92  1  0  0  0  0
 47 93  1  0  0  0  0
 48 94  1  0  0  0  0
M  END
> <PUBCHEM_COMPOUND_CID>
509704
> <PUBCHEM_COMPOUND_CANONICALIZED>
1
> <PUBCHEM_CACTVS_COMPLEXITY>
1090
> <PUBCHEM_CACTVS_HBOND_ACCEPTOR>
10
> <PUBCHEM_CACTVS_HBOND_DONOR>
3
> <PUBCHEM_CACTVS_ROTATABLE_BOND>
16
> <PUBCHEM_CACTVS_SUBSKEYS>
AAADcfB/uABgAAAAAAAAAAAAAAAAAWJAAAAwYMAAAAAAAFgB9AAAHgQQSAAADTzh3gYz17LIFgqsAyVydHLD+LlhKjlJmLx8bJiONqLk+Z+HeCjs1hPY6CeQ0OIOAAQCAEAIAQAACAQAgBACAAAAAAAAAA==
> <PUBCHEM_IUPAC_OPENEYE_NAME>
N-[(1S,2R)-1-benzyl-2-hydroxy-3-[isobutyl-[[2-(tetrahydrofuran-2-ylmethylamino)-1,3-benzothiazol-6-yl]sulfonyl]amino]propyl]-2-(2,6-dimethylphenoxy)acetamide
> <PUBCHEM_IUPAC_CAS_NAME>
2-(2,6-dimethylphenoxy)-N-[(2S,3R)-3-hydroxy-4-[2-methylpropyl-[[2-(2-oxolanylmethylamino)-1,3-benzothiazol-6-yl]sulfonyl]amino]-1-phenylbutan-2-yl]acetamide
> <PUBCHEM_IUPAC_NAME_MARKUP>
2-(2,6-dimethylphenoxy)-<I>N</I>-[(2<I>S</I>,3<I>R</I>)-3-hydroxy-4-[2-methylpropyl-[[2-(oxolan-2-ylmethylamino)-1,3-benzothiazol-6-yl]sulfonyl]amino]-1-phenylbutan-2-yl]acetamide
> <PUBCHEM_IUPAC_NAME>
2-(2,6-dimethylphenoxy)-N-[(2S,3R)-3-hydroxy-4-[2-methylpropyl-[[2-(oxolan-2-ylmethylamino)-1,3-benzothiazol-6-yl]sulfonyl]amino]-1-phenylbutan-2-yl]acetamide
> <PUBCHEM_IUPAC_SYSTEMATIC_NAME>
2-(2,6-dimethylphenoxy)-N-[(2S,3R)-4-[2-methylpropyl-[[2-(oxolan-2-ylmethylamino)-1,3-benzothiazol-6-yl]sulfonyl]amino]-3-oxidanyl-1-phenyl-butan-2-yl]ethanamide
> <PUBCHEM_IUPAC_TRADITIONAL_NAME>
N-[(1S,2R)-1-benzyl-2-hydroxy-3-[isobutyl-[[2-(tetrahydrofurfurylamino)-1,3-benzothiazol-6-yl]sulfonyl]amino]propyl]-2-(2,6-dimethylphenoxy)acetamide
> <PUBCHEM_IUPAC_INCHI>
InChI=1S/C36H46N4O6S2/c1-24(2)21-40(48(43,44)29-15-16-30-33(19-29)47-36(39-30)37-20-28-14-9-17-45-28)22-32(41)31(18-27-12-6-5-7-13-27)38-34(42)23-46-35-25(3)10-8-11-26(35)4/h5-8,10-13,15-16,19,24,28,31-32,41H,9,14,17-18,20-23H2,1-4H3,(H,37,39)(H,38,42)/t28?,31-,32+/m0/s1
> <PUBCHEM_IUPAC_INCHIKEY>
PSYHXGJMGBDGOC-VICIGFPDSA-N
> <PUBCHEM_XLOGP3_AA>
6.7
> <PUBCHEM_EXACT_MASS>
694.28587755
> <PUBCHEM_MOLECULAR_FORMULA>
C36H46N4O6S2
> <PUBCHEM_MOLECULAR_WEIGHT>
694.9
> <PUBCHEM_OPENEYE_CAN_SMILES>
CC1=C(C(=CC=C1)C)OCC(=O)NC(CC2=CC=CC=C2)C(CN(CC(C)C)S(=O)(=O)C3=CC4=C(C=C3)N=C(S4)NCC5CCCO5)O
> <PUBCHEM_OPENEYE_ISO_SMILES>
CC1=C(C(=CC=C1)C)OCC(=O)N[C@@H](CC2=CC=CC=C2)[C@@H](CN(CC(C)C)S(=O)(=O)C3=CC4=C(C=C3)N=C(S4)NCC5CCCO5)O
> <PUBCHEM_CACTVS_TPSA>
167
> <PUBCHEM_MONOISOTOPIC_WEIGHT>
694.28587755
> <PUBCHEM_TOTAL_CHARGE>
0
> <PUBCHEM_HEAVY_ATOM_COUNT>
48
> <PUBCHEM_ATOM_DEF_STEREO_COUNT>
2
> <PUBCHEM_ATOM_UDEF_STEREO_COUNT>
1
> <PUBCHEM_BOND_DEF_STEREO_COUNT>
0
> <PUBCHEM_BOND_UDEF_STEREO_COUNT>
0
> <PUBCHEM_ISOTOPIC_ATOM_COUNT>
0
> <PUBCHEM_COMPONENT_COUNT>
1
> <PUBCHEM_CACTVS_TAUTO_COUNT>
-1
> <PUBCHEM_COORDINATE_TYPE>
1
5
255
> <PUBCHEM_BONDANNOTATIONS>
15  10  6
12  32  8
12  33  8
19  24  3
2  30  8
2  33  8
22  28  8
22  29  8
27  34  8
27  35  8
28  30  8
29  36  8
30  32  8
32  36  8
34  38  8
35  39  8
38  40  8
39  40  8
13  4  6
41  42  8
41  43  8
42  44  8
43  45  8
44  48  8
45  48  8
$$$$
