509743
  -OEChem-10302200282D
114121  0     1  0  0  0  0  0999 V2000
    9.3056   -0.4032    0.0000 S   0  0  0  0  0  0  0  0  0  0  0  0
   12.8499   -0.5984    0.0000 S   0  0  0  0  0  0  0  0  0  0  0  0
    4.6095    4.1357    0.0000 O   0  0  0  0  0  0  0  0  0  0  0  0
   16.7699   -4.7179    0.0000 O   0  0  0  0  0  0  0  0  0  0  0  0
    2.8037    4.7179    0.0000 O   0  0  0  0  0  0  0  0  0  0  0  0
   18.6249   -4.3192    0.0000 O   0  0  0  0  0  0  0  0  0  0  0  0
   15.9335   -2.2692    0.0000 O   0  0  0  0  0  0  0  0  0  0  0  0
    4.1095    1.5968    0.0000 O   0  0  0  0  0  0  0  0  0  0  0  0
   14.4335   -3.1352    0.0000 O   0  0  0  0  0  0  0  0  0  0  0  0
    5.8415    1.5968    0.0000 O   0  0  0  0  0  0  0  0  0  0  0  0
    6.7075    1.0968    0.0000 O   0  0  0  0  0  0  0  0  0  0  0  0
    8.8056   -1.2692    0.0000 O   0  0  0  0  0  0  0  0  0  0  0  0
    9.8056    0.4629    0.0000 O   0  0  0  0  0  0  0  0  0  0  0  0
   16.4335    0.3289    0.0000 N   0  0  0  0  0  0  0  0  0  0  0  0
   14.4335   -1.4032    0.0000 N   0  0  0  0  0  0  0  0  0  0  0  0
    4.9755    0.0968    0.0000 N   0  0  0  0  0  0  0  0  0  0  0  0
    8.4396    0.0968    0.0000 N   0  0  3  0  0  0  0  0  0  0  0  0
   12.8499   -2.2079    0.0000 N   0  0  0  0  0  0  0  0  0  0  0  0
    3.3004    3.1846    0.0000 C   0  0  2  0  0  0  0  0  0  0  0  0
   17.4280   -3.2397    0.0000 C   0  0  1  0  0  0  0  0  0  0  0  0
    3.6095    4.1357    0.0000 C   0  0  1  0  0  0  0  0  0  0  0  0
   17.6360   -4.2179    0.0000 C   0  0  2  0  0  0  0  0  0  0  0  0
    4.1095    2.5968    0.0000 C   0  0  2  0  0  0  0  0  0  0  0  0
   16.4335   -3.1352    0.0000 C   0  0  1  0  0  0  0  0  0  0  0  0
    2.3064    3.1872    0.0000 C   0  0  0  0  0  0  0  0  0  0  0  0
   18.2902   -2.7449    0.0000 C   0  0  0  0  0  0  0  0  0  0  0  0
    4.9185    3.1846    0.0000 C   0  0  0  0  0  0  0  0  0  0  0  0
   16.0268   -4.0488    0.0000 C   0  0  0  0  0  0  0  0  0  0  0  0
    2.0000    4.1329    0.0000 C   0  0  0  0  0  0  0  0  0  0  0  0
   19.0284   -3.4108    0.0000 C   0  0  0  0  0  0  0  0  0  0  0  0
   14.9335   -2.2692    0.0000 C   0  0  0  0  0  0  0  0  0  0  0  0
    4.9755    1.0968    0.0000 C   0  0  0  0  0  0  0  0  0  0  0  0
    5.8415   -0.4032    0.0000 C   0  0  2  0  0  0  0  0  0  0  0  0
    6.7075    0.0968    0.0000 C   0  0  1  0  0  0  0  0  0  0  0  0
   15.9335   -0.5371    0.0000 C   0  0  0  0  0  0  0  0  0  0  0  0
   14.9335   -0.5371    0.0000 C   0  0  0  0  0  0  0  0  0  0  0  0
   17.4280    0.4334    0.0000 C   0  0  0  0  0  0  0  0  0  0  0  0
   16.0268    1.2424    0.0000 C   0  0  0  0  0  0  0  0  0  0  0  0
   17.6360    1.4116    0.0000 C   0  0  0  0  0  0  0  0  0  0  0  0
   16.7699    1.9116    0.0000 C   0  0  0  0  0  0  0  0  0  0  0  0
    7.5736   -0.4032    0.0000 C   0  0  0  0  0  0  0  0  0  0  0  0
    5.8415   -1.4032    0.0000 C   0  0  0  0  0  0  0  0  0  0  0  0
    8.4396    1.0968    0.0000 C   0  0  0  0  0  0  0  0  0  0  0  0
   13.4335   -1.4032    0.0000 C   0  0  0  0  0  0  0  0  0  0  0  0
    9.3056    1.5968    0.0000 C   0  0  0  0  0  0  0  0  0  0  0  0
    4.9755   -1.9032    0.0000 C   0  0  0  0  0  0  0  0  0  0  0  0
   10.1716   -0.9032    0.0000 C   0  0  0  0  0  0  0  0  0  0  0  0
   11.9037   -0.9032    0.0000 C   0  0  0  0  0  0  0  0  0  0  0  0
   11.9037   -1.9032    0.0000 C   0  0  0  0  0  0  0  0  0  0  0  0
   11.0377   -0.4032    0.0000 C   0  0  0  0  0  0  0  0  0  0  0  0
    9.3056    2.5968    0.0000 C   0  0  0  0  0  0  0  0  0  0  0  0
   10.1716    1.0968    0.0000 C   0  0  0  0  0  0  0  0  0  0  0  0
   10.1716   -1.9032    0.0000 C   0  0  0  0  0  0  0  0  0  0  0  0
   11.0377   -2.4032    0.0000 C   0  0  0  0  0  0  0  0  0  0  0  0
    4.9755   -2.9032    0.0000 C   0  0  0  0  0  0  0  0  0  0  0  0
    4.1095   -1.4032    0.0000 C   0  0  0  0  0  0  0  0  0  0  0  0
    4.1095   -3.4032    0.0000 C   0  0  0  0  0  0  0  0  0  0  0  0
    3.2434   -1.9032    0.0000 C   0  0  0  0  0  0  0  0  0  0  0  0
    3.2434   -2.9032    0.0000 C   0  0  0  0  0  0  0  0  0  0  0  0
    3.0367    2.3766    0.0000 H   0  0  0  0  0  0  0  0  0  0  0  0
   17.2524   -2.4081    0.0000 H   0  0  0  0  0  0  0  0  0  0  0  0
    3.8711    4.9444    0.0000 H   0  0  0  0  0  0  0  0  0  0  0  0
   17.8138   -5.0491    0.0000 H   0  0  0  0  0  0  0  0  0  0  0  0
    3.5570    2.3154    0.0000 H   0  0  0  0  0  0  0  0  0  0  0  0
   15.8144   -3.1677    0.0000 H   0  0  0  0  0  0  0  0  0  0  0  0
    1.6997    3.0592    0.0000 H   0  0  0  0  0  0  0  0  0  0  0  0
    2.3699    2.5705    0.0000 H   0  0  0  0  0  0  0  0  0  0  0  0
   18.7516   -2.3307    0.0000 H   0  0  0  0  0  0  0  0  0  0  0  0
   17.9268   -2.2426    0.0000 H   0  0  0  0  0  0  0  0  0  0  0  0
    5.2285    2.6477    0.0000 H   0  0  0  0  0  0  0  0  0  0  0  0
    5.4849    3.4368    0.0000 H   0  0  0  0  0  0  0  0  0  0  0  0
   15.4898   -3.7388    0.0000 H   0  0  0  0  0  0  0  0  0  0  0  0
   15.6624   -4.5504    0.0000 H   0  0  0  0  0  0  0  0  0  0  0  0
    1.6898    4.6697    0.0000 H   0  0  0  0  0  0  0  0  0  0  0  0
    1.4335    3.8809    0.0000 H   0  0  0  0  0  0  0  0  0  0  0  0
   19.5654   -3.7206    0.0000 H   0  0  0  0  0  0  0  0  0  0  0  0
   19.3930   -2.9093    0.0000 H   0  0  0  0  0  0  0  0  0  0  0  0
    5.8415    0.2168    0.0000 H   0  0  0  0  0  0  0  0  0  0  0  0
    7.2445    0.4068    0.0000 H   0  0  0  0  0  0  0  0  0  0  0  0
   15.8259   -1.1477    0.0000 H   0  0  0  0  0  0  0  0  0  0  0  0
   16.5161   -0.7492    0.0000 H   0  0  0  0  0  0  0  0  0  0  0  0
    4.4386   -0.2132    0.0000 H   0  0  0  0  0  0  0  0  0  0  0  0
   15.0412    0.0734    0.0000 H   0  0  0  0  0  0  0  0  0  0  0  0
   14.3509   -0.3251    0.0000 H   0  0  0  0  0  0  0  0  0  0  0  0
   17.4280   -0.1866    0.0000 H   0  0  0  0  0  0  0  0  0  0  0  0
   18.0446    0.3686    0.0000 H   0  0  0  0  0  0  0  0  0  0  0  0
   15.6624    1.7440    0.0000 H   0  0  0  0  0  0  0  0  0  0  0  0
   15.4898    0.9324    0.0000 H   0  0  0  0  0  0  0  0  0  0  0  0
   18.2256    1.2200    0.0000 H   0  0  0  0  0  0  0  0  0  0  0  0
   17.8881    1.9780    0.0000 H   0  0  0  0  0  0  0  0  0  0  0  0
   17.1344    2.4132    0.0000 H   0  0  0  0  0  0  0  0  0  0  0  0
   16.3092    2.3264    0.0000 H   0  0  0  0  0  0  0  0  0  0  0  0
    7.1750   -0.8781    0.0000 H   0  0  0  0  0  0  0  0  0  0  0  0
    7.9721   -0.8781    0.0000 H   0  0  0  0  0  0  0  0  0  0  0  0
    6.0536   -1.9858    0.0000 H   0  0  0  0  0  0  0  0  0  0  0  0
    6.4521   -1.2955    0.0000 H   0  0  0  0  0  0  0  0  0  0  0  0
    8.2275    1.6794    0.0000 H   0  0  0  0  0  0  0  0  0  0  0  0
    7.8290    0.9892    0.0000 H   0  0  0  0  0  0  0  0  0  0  0  0
    8.7687    1.9068    0.0000 H   0  0  0  0  0  0  0  0  0  0  0  0
    7.2445    1.4068    0.0000 H   0  0  0  0  0  0  0  0  0  0  0  0
   11.0377    0.2168    0.0000 H   0  0  0  0  0  0  0  0  0  0  0  0
    9.9256    2.5968    0.0000 H   0  0  0  0  0  0  0  0  0  0  0  0
    9.3056    3.2168    0.0000 H   0  0  0  0  0  0  0  0  0  0  0  0
    8.6856    2.5968    0.0000 H   0  0  0  0  0  0  0  0  0  0  0  0
    9.8616    0.5599    0.0000 H   0  0  0  0  0  0  0  0  0  0  0  0
   10.7086    0.7868    0.0000 H   0  0  0  0  0  0  0  0  0  0  0  0
   10.4816    1.6338    0.0000 H   0  0  0  0  0  0  0  0  0  0  0  0
    9.6347   -2.2132    0.0000 H   0  0  0  0  0  0  0  0  0  0  0  0
   11.0377   -3.0232    0.0000 H   0  0  0  0  0  0  0  0  0  0  0  0
    5.5124   -3.2132    0.0000 H   0  0  0  0  0  0  0  0  0  0  0  0
    4.1095   -0.7832    0.0000 H   0  0  0  0  0  0  0  0  0  0  0  0
    4.1095   -4.0232    0.0000 H   0  0  0  0  0  0  0  0  0  0  0  0
    2.7065   -1.5932    0.0000 H   0  0  0  0  0  0  0  0  0  0  0  0
    2.7065   -3.2132    0.0000 H   0  0  0  0  0  0  0  0  0  0  0  0
  1 12  2  0  0  0  0
  1 13  2  0  0  0  0
  1 17  1  0  0  0  0
  1 47  1  0  0  0  0
  2 44  1  0  0  0  0
  2 48  1  0  0  0  0
  3 21  1  0  0  0  0
  3 27  1  0  0  0  0
  4 22  1  0  0  0  0
  4 28  1  0  0  0  0
  5 21  1  0  0  0  0
  5 29  1  0  0  0  0
  6 22  1  0  0  0  0
  6 30  1  0  0  0  0
 24  7  1  1  0  0  0
  7 31  1  0  0  0  0
 23  8  1  6  0  0  0
  8 32  1  0  0  0  0
  9 31  2  0  0  0  0
 10 32  2  0  0  0  0
 34 11  1  6  0  0  0
 11100  1  0  0  0  0
 14 35  1  0  0  0  0
 14 37  1  0  0  0  0
 14 38  1  0  0  0  0
 15 31  1  0  0  0  0
 15 36  1  0  0  0  0
 15 44  1  0  0  0  0
 16 32  1  0  0  0  0
 33 16  1  6  0  0  0
 16 82  1  0  0  0  0
 17 41  1  0  0  0  0
 17 43  1  0  0  0  0
 18 44  2  0  0  0  0
 18 49  1  0  0  0  0
 19 21  1  0  0  0  0
 19 23  1  0  0  0  0
 19 25  1  0  0  0  0
 19 60  1  1  0  0  0
 20 22  1  0  0  0  0
 20 24  1  0  0  0  0
 20 26  1  0  0  0  0
 20 61  1  6  0  0  0
 21 62  1  1  0  0  0
 22 63  1  6  0  0  0
 23 27  1  0  0  0  0
 23 64  1  0  0  0  0
 24 28  1  0  0  0  0
 24 65  1  0  0  0  0
 25 29  1  0  0  0  0
 25 66  1  0  0  0  0
 25 67  1  0  0  0  0
 26 30  1  0  0  0  0
 26 68  1  0  0  0  0
 26 69  1  0  0  0  0
 27 70  1  0  0  0  0
 27 71  1  0  0  0  0
 28 72  1  0  0  0  0
 28 73  1  0  0  0  0
 29 74  1  0  0  0  0
 29 75  1  0  0  0  0
 30 76  1  0  0  0  0
 30 77  1  0  0  0  0
 33 34  1  0  0  0  0
 33 42  1  0  0  0  0
 33 78  1  0  0  0  0
 34 41  1  0  0  0  0
 34 79  1  0  0  0  0
 35 36  1  0  0  0  0
 35 80  1  0  0  0  0
 35 81  1  0  0  0  0
 36 83  1  0  0  0  0
 36 84  1  0  0  0  0
 37 39  1  0  0  0  0
 37 85  1  0  0  0  0
 37 86  1  0  0  0  0
 38 40  1  0  0  0  0
 38 87  1  0  0  0  0
 38 88  1  0  0  0  0
 39 40  1  0  0  0  0
 39 89  1  0  0  0  0
 39 90  1  0  0  0  0
 40 91  1  0  0  0  0
 40 92  1  0  0  0  0
 41 93  1  0  0  0  0
 41 94  1  0  0  0  0
 42 46  1  0  0  0  0
 42 95  1  0  0  0  0
 42 96  1  0  0  0  0
 43 45  1  0  0  0  0
 43 97  1  0  0  0  0
 43 98  1  0  0  0  0
 45 51  1  0  0  0  0
 45 52  1  0  0  0  0
 45 99  1  0  0  0  0
 46 55  2  0  0  0  0
 46 56  1  0  0  0  0
 47 50  2  0  0  0  0
 47 53  1  0  0  0  0
 48 49  2  0  0  0  0
 48 50  1  0  0  0  0
 49 54  1  0  0  0  0
 50101  1  0  0  0  0
 51102  1  0  0  0  0
 51103  1  0  0  0  0
 51104  1  0  0  0  0
 52105  1  0  0  0  0
 52106  1  0  0  0  0
 52107  1  0  0  0  0
 53 54  2  0  0  0  0
 53108  1  0  0  0  0
 54109  1  0  0  0  0
 55 57  1  0  0  0  0
 55110  1  0  0  0  0
 56 58  2  0  0  0  0
 56111  1  0  0  0  0
 57 59  2  0  0  0  0
 57112  1  0  0  0  0
 58 59  1  0  0  0  0
 58113  1  0  0  0  0
 59114  1  0  0  0  0
M  END
> <PUBCHEM_COMPOUND_CID>
509743
> <PUBCHEM_COMPOUND_CANONICALIZED>
1
> <PUBCHEM_CACTVS_COMPLEXITY>
1510
> <PUBCHEM_CACTVS_HBOND_ACCEPTOR>
15
> <PUBCHEM_CACTVS_HBOND_DONOR>
2
> <PUBCHEM_CACTVS_ROTATABLE_BOND>
18
> <PUBCHEM_CACTVS_SUBSKEYS>
AAADcfB/vABgAAAAAAAAAAAAAAAAAWLEiRIwYAAAAAASJFgB9AAAHgQQSAAADTzx3gcz2bPIFgqsAyRifHDD8LlhCjhJmLw4ZJmbcKLg2ZG+YAhtlwLeyCfQ4KgOAAQAAEAAAQAACAAAgAACAAAAAAAAAA==
> <PUBCHEM_IUPAC_OPENEYE_NAME>
[(3aR,4S,6aS)-2,3,3a,4,5,6a-hexahydrofuro[2,3-b]furan-4-yl] N-[6-[[(2R,3S)-3-[[(3aS,4R,6aR)-2,3,3a,4,5,6a-hexahydrofuro[2,3-b]furan-4-yl]oxycarbonylamino]-2-hydroxy-4-phenyl-butyl]-isobutyl-sulfamoyl]-1,3-benzothiazol-2-yl]-N-(2-pyrrolidin-1-ylethyl)carbamate
> <PUBCHEM_IUPAC_CAS_NAME>
N-[6-[[(2R,3S)-3-[[[(3aS,4R,6aR)-2,3,3a,4,5,6a-hexahydrofuro[2,3-b]furan-4-yl]oxy-oxomethyl]amino]-2-hydroxy-4-phenylbutyl]-(2-methylpropyl)sulfamoyl]-1,3-benzothiazol-2-yl]-N-[2-(1-pyrrolidinyl)ethyl]carbamic acid [(3aR,4S,6aS)-2,3,3a,4,5,6a-hexahydrofuro[2,3-b]furan-4-yl] ester
> <PUBCHEM_IUPAC_NAME_MARKUP>
[(3<I>a</I><I>R</I>,4<I>S</I>,6<I>a</I><I>S</I>)-2,3,3<I>a</I>,4,5,6<I>a</I>-hexahydrofuro[2,3-b]furan-4-yl] <I>N</I>-[6-[[(2<I>R</I>,3<I>S</I>)-3-[[(3<I>a</I><I>S</I>,4<I>R</I>,6<I>a</I><I>R</I>)-2,3,3<I>a</I>,4,5,6<I>a</I>-hexahydrofuro[2,3-b]furan-4-yl]oxycarbonylamino]-2-hydroxy-4-phenylbutyl]-(2-methylpropyl)sulfamoyl]-1,3-benzothiazol-2-yl]-<I>N</I>-(2-pyrrolidin-1-ylethyl)carbamate
> <PUBCHEM_IUPAC_NAME>
[(3aR,4S,6aS)-2,3,3a,4,5,6a-hexahydrofuro[2,3-b]furan-4-yl] N-[6-[[(2R,3S)-3-[[(3aS,4R,6aR)-2,3,3a,4,5,6a-hexahydrofuro[2,3-b]furan-4-yl]oxycarbonylamino]-2-hydroxy-4-phenylbutyl]-(2-methylpropyl)sulfamoyl]-1,3-benzothiazol-2-yl]-N-(2-pyrrolidin-1-ylethyl)carbamate
> <PUBCHEM_IUPAC_SYSTEMATIC_NAME>
[(3aR,4S,6aS)-2,3,3a,4,5,6a-hexahydrofuro[2,3-b]furan-4-yl] N-[6-[[(2R,3S)-3-[[(3aS,4R,6aR)-2,3,3a,4,5,6a-hexahydrofuro[2,3-b]furan-4-yl]oxycarbonylamino]-2-oxidanyl-4-phenyl-butyl]-(2-methylpropyl)sulfamoyl]-1,3-benzothiazol-2-yl]-N-(2-pyrrolidin-1-ylethyl)carbamate
> <PUBCHEM_IUPAC_TRADITIONAL_NAME>
N-[6-[[(2R,3S)-3-[[(3aS,4R,6aR)-2,3,3a,4,5,6a-hexahydrofuro[2,3-b]furan-4-yl]oxycarbonylamino]-2-hydroxy-4-phenyl-butyl]-isobutyl-sulfamoyl]-1,3-benzothiazol-2-yl]-N-(2-pyrrolidinoethyl)carbamic acid [(3aR,4S,6aS)-2,3,3a,4,5,6a-hexahydrofuro[2,3-b]furan-4-yl] ester
> <PUBCHEM_IUPAC_INCHI>
InChI=1S/C41H55N5O11S2/c1-26(2)22-45(23-33(47)32(20-27-8-4-3-5-9-27)43-40(48)56-34-24-54-37-29(34)12-18-52-37)59(50,51)28-10-11-31-36(21-28)58-39(42-31)46(17-16-44-14-6-7-15-44)41(49)57-35-25-55-38-30(35)13-19-53-38/h3-5,8-11,21,26,29-30,32-35,37-38,47H,6-7,12-20,22-25H2,1-2H3,(H,43,48)/t29-,30+,32-,33+,34-,35+,37+,38-/m0/s1
> <PUBCHEM_IUPAC_INCHIKEY>
XWKCDTSHTINGDG-CIWXOXHXSA-N
> <PUBCHEM_XLOGP3_AA>
4.8
> <PUBCHEM_EXACT_MASS>
857.33394993
> <PUBCHEM_MOLECULAR_FORMULA>
C41H55N5O11S2
> <PUBCHEM_MOLECULAR_WEIGHT>
858.0
> <PUBCHEM_OPENEYE_CAN_SMILES>
CC(C)CN(CC(C(CC1=CC=CC=C1)NC(=O)OC2COC3C2CCO3)O)S(=O)(=O)C4=CC5=C(C=C4)N=C(S5)N(CCN6CCCC6)C(=O)OC7COC8C7CCO8
> <PUBCHEM_OPENEYE_ISO_SMILES>
CC(C)CN(C[C@H]([C@H](CC1=CC=CC=C1)NC(=O)O[C@H]2CO[C@@H]3[C@H]2CCO3)O)S(=O)(=O)C4=CC5=C(C=C4)N=C(S5)N(CCN6CCCC6)C(=O)O[C@@H]7CO[C@H]8[C@@H]7CCO8
> <PUBCHEM_CACTVS_TPSA>
215
> <PUBCHEM_MONOISOTOPIC_WEIGHT>
857.33394993
> <PUBCHEM_TOTAL_CHARGE>
0
> <PUBCHEM_HEAVY_ATOM_COUNT>
59
> <PUBCHEM_ATOM_DEF_STEREO_COUNT>
8
> <PUBCHEM_ATOM_UDEF_STEREO_COUNT>
0
> <PUBCHEM_BOND_DEF_STEREO_COUNT>
0
> <PUBCHEM_BOND_UDEF_STEREO_COUNT>
0
> <PUBCHEM_ISOTOPIC_ATOM_COUNT>
0
> <PUBCHEM_COMPONENT_COUNT>
1
> <PUBCHEM_CACTVS_TAUTO_COUNT>
-1
> <PUBCHEM_COORDINATE_TYPE>
1
5
255
> <PUBCHEM_BONDANNOTATIONS>
34  11  6
33  16  6
18  44  8
18  49  8
19  60  5
2  44  8
2  48  8
20  61  6
21  62  5
22  63  6
46  55  8
46  56  8
47  50  8
47  53  8
48  49  8
48  50  8
49  54  8
53  54  8
55  57  8
56  58  8
57  59  8
58  59  8
24  7  5
23  8  6
$$$$
