509709
  -OEChem-10302200282D
 93 97  0     1  0  0  0  0  0999 V2000
    9.7942   -1.0000    0.0000 S   0  0  0  0  0  0  0  0  0  0  0  0
   13.3385   -1.1953    0.0000 S   0  0  0  0  0  0  0  0  0  0  0  0
    7.1962    0.5000    0.0000 O   0  0  0  0  0  0  0  0  0  0  0  0
    9.2942   -1.8660    0.0000 O   0  0  0  0  0  0  0  0  0  0  0  0
   10.2942   -0.1340    0.0000 O   0  0  0  0  0  0  0  0  0  0  0  0
   15.8700    0.5032    0.0000 O   0  0  0  0  0  0  0  0  0  0  0  0
   14.2228   -0.0320    0.0000 O   0  0  0  0  0  0  0  0  0  0  0  0
    6.3301    1.0000    0.0000 O   0  0  0  0  0  0  0  0  0  0  0  0
    4.5981    2.0000    0.0000 O   0  0  0  0  0  0  0  0  0  0  0  0
   14.9221   -2.0000    0.0000 N   0  0  3  0  0  0  0  0  0  0  0  0
    8.9282   -0.5000    0.0000 N   0  0  3  0  0  0  0  0  0  0  0  0
    5.4641   -0.5000    0.0000 N   0  0  0  0  0  0  0  0  0  0  0  0
   13.3385   -2.8047    0.0000 N   0  0  0  0  0  0  0  0  0  0  0  0
   15.5099   -1.1910    0.0000 C   0  0  3  0  0  0  0  0  0  0  0  0
   16.4610   -1.5000    0.0000 C   0  0  0  0  0  0  0  0  0  0  0  0
   16.4610   -2.5000    0.0000 C   0  0  0  0  0  0  0  0  0  0  0  0
   15.5099   -2.8090    0.0000 C   0  0  0  0  0  0  0  0  0  0  0  0
    7.1962   -0.5000    0.0000 C   0  0  2  0  0  0  0  0  0  0  0  0
    8.0622   -1.0000    0.0000 C   0  0  0  0  0  0  0  0  0  0  0  0
    6.3301   -1.0000    0.0000 C   0  0  2  0  0  0  0  0  0  0  0  0
    8.9282    0.5000    0.0000 C   0  0  0  0  0  0  0  0  0  0  0  0
   13.9221   -2.0000    0.0000 C   0  0  0  0  0  0  0  0  0  0  0  0
    9.7942    1.0000    0.0000 C   0  0  0  0  0  0  0  0  0  0  0  0
    6.3301   -2.0000    0.0000 C   0  0  0  0  0  0  0  0  0  0  0  0
   15.2009   -0.2399    0.0000 C   0  0  0  0  0  0  0  0  0  0  0  0
   10.6603   -1.5000    0.0000 C   0  0  0  0  0  0  0  0  0  0  0  0
   12.3923   -1.5000    0.0000 C   0  0  0  0  0  0  0  0  0  0  0  0
   12.3923   -2.5000    0.0000 C   0  0  0  0  0  0  0  0  0  0  0  0
   11.5263   -1.0000    0.0000 C   0  0  0  0  0  0  0  0  0  0  0  0
    9.7942    2.0000    0.0000 C   0  0  0  0  0  0  0  0  0  0  0  0
   10.6603    0.5000    0.0000 C   0  0  0  0  0  0  0  0  0  0  0  0
    5.4641   -2.5000    0.0000 C   0  0  0  0  0  0  0  0  0  0  0  0
   10.6603   -2.5000    0.0000 C   0  0  0  0  0  0  0  0  0  0  0  0
   11.5263   -3.0000    0.0000 C   0  0  0  0  0  0  0  0  0  0  0  0
    5.4641    0.5000    0.0000 C   0  0  0  0  0  0  0  0  0  0  0  0
    5.4641   -3.5000    0.0000 C   0  0  0  0  0  0  0  0  0  0  0  0
    4.5981   -2.0000    0.0000 C   0  0  0  0  0  0  0  0  0  0  0  0
    4.5981    1.0000    0.0000 C   0  0  0  0  0  0  0  0  0  0  0  0
    4.5981   -4.0000    0.0000 C   0  0  0  0  0  0  0  0  0  0  0  0
    3.7320   -2.5000    0.0000 C   0  0  0  0  0  0  0  0  0  0  0  0
    3.7320   -3.5000    0.0000 C   0  0  0  0  0  0  0  0  0  0  0  0
    3.7320    2.5000    0.0000 C   0  0  0  0  0  0  0  0  0  0  0  0
    3.7320    3.5000    0.0000 C   0  0  0  0  0  0  0  0  0  0  0  0
    2.8660    2.0000    0.0000 C   0  0  0  0  0  0  0  0  0  0  0  0
    2.8660    4.0000    0.0000 C   0  0  0  0  0  0  0  0  0  0  0  0
    2.0000    2.5000    0.0000 C   0  0  0  0  0  0  0  0  0  0  0  0
    4.5981    4.0000    0.0000 C   0  0  0  0  0  0  0  0  0  0  0  0
    2.8660    1.0000    0.0000 C   0  0  0  0  0  0  0  0  0  0  0  0
    2.0000    3.5000    0.0000 C   0  0  0  0  0  0  0  0  0  0  0  0
   14.8976   -1.0940    0.0000 H   0  0  0  0  0  0  0  0  0  0  0  0
   17.0776   -1.5648    0.0000 H   0  0  0  0  0  0  0  0  0  0  0  0
   16.5899   -0.8935    0.0000 H   0  0  0  0  0  0  0  0  0  0  0  0
   16.5899   -3.1064    0.0000 H   0  0  0  0  0  0  0  0  0  0  0  0
   17.0776   -2.4352    0.0000 H   0  0  0  0  0  0  0  0  0  0  0  0
   14.9730   -3.1190    0.0000 H   0  0  0  0  0  0  0  0  0  0  0  0
   15.7621   -3.3754    0.0000 H   0  0  0  0  0  0  0  0  0  0  0  0
    6.6592   -0.1900    0.0000 H   0  0  0  0  0  0  0  0  0  0  0  0
    7.6636   -1.4750    0.0000 H   0  0  0  0  0  0  0  0  0  0  0  0
    8.4607   -1.4750    0.0000 H   0  0  0  0  0  0  0  0  0  0  0  0
    5.7932   -1.3100    0.0000 H   0  0  0  0  0  0  0  0  0  0  0  0
    8.7162    1.0826    0.0000 H   0  0  0  0  0  0  0  0  0  0  0  0
    8.3176    0.3923    0.0000 H   0  0  0  0  0  0  0  0  0  0  0  0
    9.2573    1.3100    0.0000 H   0  0  0  0  0  0  0  0  0  0  0  0
    6.5422   -2.5826    0.0000 H   0  0  0  0  0  0  0  0  0  0  0  0
    6.9407   -1.8923    0.0000 H   0  0  0  0  0  0  0  0  0  0  0  0
    4.9272   -0.8100    0.0000 H   0  0  0  0  0  0  0  0  0  0  0  0
   11.5263   -0.3800    0.0000 H   0  0  0  0  0  0  0  0  0  0  0  0
   10.4142    2.0000    0.0000 H   0  0  0  0  0  0  0  0  0  0  0  0
    9.7942    2.6200    0.0000 H   0  0  0  0  0  0  0  0  0  0  0  0
    9.1742    2.0000    0.0000 H   0  0  0  0  0  0  0  0  0  0  0  0
   10.3503   -0.0369    0.0000 H   0  0  0  0  0  0  0  0  0  0  0  0
   11.1972    0.1900    0.0000 H   0  0  0  0  0  0  0  0  0  0  0  0
   10.9703    1.0369    0.0000 H   0  0  0  0  0  0  0  0  0  0  0  0
   10.1233   -2.8100    0.0000 H   0  0  0  0  0  0  0  0  0  0  0  0
    7.7331    0.8100    0.0000 H   0  0  0  0  0  0  0  0  0  0  0  0
   11.5263   -3.6200    0.0000 H   0  0  0  0  0  0  0  0  0  0  0  0
   15.6784    1.0929    0.0000 H   0  0  0  0  0  0  0  0  0  0  0  0
    6.0010   -3.8100    0.0000 H   0  0  0  0  0  0  0  0  0  0  0  0
    4.5981   -1.3800    0.0000 H   0  0  0  0  0  0  0  0  0  0  0  0
    3.9875    1.1077    0.0000 H   0  0  0  0  0  0  0  0  0  0  0  0
    4.3860    0.4174    0.0000 H   0  0  0  0  0  0  0  0  0  0  0  0
    4.5981   -4.6200    0.0000 H   0  0  0  0  0  0  0  0  0  0  0  0
    3.1951   -2.1900    0.0000 H   0  0  0  0  0  0  0  0  0  0  0  0
    3.1951   -3.8100    0.0000 H   0  0  0  0  0  0  0  0  0  0  0  0
    2.8660    4.6200    0.0000 H   0  0  0  0  0  0  0  0  0  0  0  0
    1.4631    2.1900    0.0000 H   0  0  0  0  0  0  0  0  0  0  0  0
    4.9081    3.4631    0.0000 H   0  0  0  0  0  0  0  0  0  0  0  0
    5.1350    4.3100    0.0000 H   0  0  0  0  0  0  0  0  0  0  0  0
    4.2881    4.5369    0.0000 H   0  0  0  0  0  0  0  0  0  0  0  0
    2.2460    1.0000    0.0000 H   0  0  0  0  0  0  0  0  0  0  0  0
    2.8660    0.3800    0.0000 H   0  0  0  0  0  0  0  0  0  0  0  0
    3.4860    1.0000    0.0000 H   0  0  0  0  0  0  0  0  0  0  0  0
    1.4631    3.8100    0.0000 H   0  0  0  0  0  0  0  0  0  0  0  0
  1  4  2  0  0  0  0
  1  5  2  0  0  0  0
  1 11  1  0  0  0  0
  1 26  1  0  0  0  0
  2 22  1  0  0  0  0
  2 27  1  0  0  0  0
 18  3  1  6  0  0  0
  3 75  1  0  0  0  0
  6 25  1  0  0  0  0
  6 77  1  0  0  0  0
  7 25  2  0  0  0  0
  8 35  2  0  0  0  0
  9 38  1  0  0  0  0
  9 42  1  0  0  0  0
 10 14  1  0  0  0  0
 10 17  1  0  0  0  0
 10 22  1  0  0  0  0
 11 19  1  0  0  0  0
 11 21  1  0  0  0  0
 20 12  1  6  0  0  0
 12 35  1  0  0  0  0
 12 66  1  0  0  0  0
 13 22  2  0  0  0  0
 13 28  1  0  0  0  0
 14 15  1  0  0  0  0
 14 25  1  0  0  0  0
 14 50  1  0  0  0  0
 15 16  1  0  0  0  0
 15 51  1  0  0  0  0
 15 52  1  0  0  0  0
 16 17  1  0  0  0  0
 16 53  1  0  0  0  0
 16 54  1  0  0  0  0
 17 55  1  0  0  0  0
 17 56  1  0  0  0  0
 18 19  1  0  0  0  0
 18 20  1  0  0  0  0
 18 57  1  0  0  0  0
 19 58  1  0  0  0  0
 19 59  1  0  0  0  0
 20 24  1  0  0  0  0
 20 60  1  0  0  0  0
 21 23  1  0  0  0  0
 21 61  1  0  0  0  0
 21 62  1  0  0  0  0
 23 30  1  0  0  0  0
 23 31  1  0  0  0  0
 23 63  1  0  0  0  0
 24 32  1  0  0  0  0
 24 64  1  0  0  0  0
 24 65  1  0  0  0  0
 26 29  2  0  0  0  0
 26 33  1  0  0  0  0
 27 28  2  0  0  0  0
 27 29  1  0  0  0  0
 28 34  1  0  0  0  0
 29 67  1  0  0  0  0
 30 68  1  0  0  0  0
 30 69  1  0  0  0  0
 30 70  1  0  0  0  0
 31 71  1  0  0  0  0
 31 72  1  0  0  0  0
 31 73  1  0  0  0  0
 32 36  2  0  0  0  0
 32 37  1  0  0  0  0
 33 34  2  0  0  0  0
 33 74  1  0  0  0  0
 34 76  1  0  0  0  0
 35 38  1  0  0  0  0
 36 39  1  0  0  0  0
 36 78  1  0  0  0  0
 37 40  2  0  0  0  0
 37 79  1  0  0  0  0
 38 80  1  0  0  0  0
 38 81  1  0  0  0  0
 39 41  2  0  0  0  0
 39 82  1  0  0  0  0
 40 41  1  0  0  0  0
 40 83  1  0  0  0  0
 41 84  1  0  0  0  0
 42 43  2  0  0  0  0
 42 44  1  0  0  0  0
 43 45  1  0  0  0  0
 43 47  1  0  0  0  0
 44 46  2  0  0  0  0
 44 48  1  0  0  0  0
 45 49  2  0  0  0  0
 45 85  1  0  0  0  0
 46 49  1  0  0  0  0
 46 86  1  0  0  0  0
 47 87  1  0  0  0  0
 47 88  1  0  0  0  0
 47 89  1  0  0  0  0
 48 90  1  0  0  0  0
 48 91  1  0  0  0  0
 48 92  1  0  0  0  0
 49 93  1  0  0  0  0
M  END
> <PUBCHEM_COMPOUND_CID>
509709
> <PUBCHEM_COMPOUND_CANONICALIZED>
1
> <PUBCHEM_CACTVS_COMPLEXITY>
1190
> <PUBCHEM_CACTVS_HBOND_ACCEPTOR>
11
> <PUBCHEM_CACTVS_HBOND_DONOR>
3
> <PUBCHEM_CACTVS_ROTATABLE_BOND>
15
> <PUBCHEM_CACTVS_SUBSKEYS>
AAADcfB/uABgAAAAAAAAAAAAAAAAAWLAAAAwYMAAAAAAAFgB9AAAHgQQSAAADTzh3gYz37PIFgqsAyXyfHLD+LlhKjhJmL38bJiONrLk+b+HeCjs1hPY6CeY0eIOAAQCAEAIAQAACAQAgBACAAAAAAAAAA==
> <PUBCHEM_IUPAC_OPENEYE_NAME>
1-[6-[[(2R,3S)-3-[[2-(2,6-dimethylphenoxy)acetyl]amino]-2-hydroxy-4-phenyl-butyl]-isobutyl-sulfamoyl]-1,3-benzothiazol-2-yl]pyrrolidine-2-carboxylic acid
> <PUBCHEM_IUPAC_CAS_NAME>
1-[6-[[(2R,3S)-3-[[2-(2,6-dimethylphenoxy)-1-oxoethyl]amino]-2-hydroxy-4-phenylbutyl]-(2-methylpropyl)sulfamoyl]-1,3-benzothiazol-2-yl]-2-pyrrolidinecarboxylic acid
> <PUBCHEM_IUPAC_NAME_MARKUP>
1-[6-[[(2<I>R</I>,3<I>S</I>)-3-[[2-(2,6-dimethylphenoxy)acetyl]amino]-2-hydroxy-4-phenylbutyl]-(2-methylpropyl)sulfamoyl]-1,3-benzothiazol-2-yl]pyrrolidine-2-carboxylic acid
> <PUBCHEM_IUPAC_NAME>
1-[6-[[(2R,3S)-3-[[2-(2,6-dimethylphenoxy)acetyl]amino]-2-hydroxy-4-phenylbutyl]-(2-methylpropyl)sulfamoyl]-1,3-benzothiazol-2-yl]pyrrolidine-2-carboxylic acid
> <PUBCHEM_IUPAC_SYSTEMATIC_NAME>
1-[6-[[(2R,3S)-3-[2-(2,6-dimethylphenoxy)ethanoylamino]-2-oxidanyl-4-phenyl-butyl]-(2-methylpropyl)sulfamoyl]-1,3-benzothiazol-2-yl]pyrrolidine-2-carboxylic acid
> <PUBCHEM_IUPAC_TRADITIONAL_NAME>
1-[6-[[(2R,3S)-3-[[2-(2,6-dimethylphenoxy)acetyl]amino]-2-hydroxy-4-phenyl-butyl]-isobutyl-sulfamoyl]-1,3-benzothiazol-2-yl]proline
> <PUBCHEM_IUPAC_INCHI>
InChI=1S/C36H44N4O7S2/c1-23(2)20-39(49(45,46)27-15-16-28-32(19-27)48-36(38-28)40-17-9-14-30(40)35(43)44)21-31(41)29(18-26-12-6-5-7-13-26)37-33(42)22-47-34-24(3)10-8-11-25(34)4/h5-8,10-13,15-16,19,23,29-31,41H,9,14,17-18,20-22H2,1-4H3,(H,37,42)(H,43,44)/t29-,30?,31+/m0/s1
> <PUBCHEM_IUPAC_INCHIKEY>
MNYWQANUIUWEOF-GAGJGVLVSA-N
> <PUBCHEM_XLOGP3_AA>
6.6
> <PUBCHEM_EXACT_MASS>
708.26514210
> <PUBCHEM_MOLECULAR_FORMULA>
C36H44N4O7S2
> <PUBCHEM_MOLECULAR_WEIGHT>
708.9
> <PUBCHEM_OPENEYE_CAN_SMILES>
CC1=C(C(=CC=C1)C)OCC(=O)NC(CC2=CC=CC=C2)C(CN(CC(C)C)S(=O)(=O)C3=CC4=C(C=C3)N=C(S4)N5CCCC5C(=O)O)O
> <PUBCHEM_OPENEYE_ISO_SMILES>
CC1=C(C(=CC=C1)C)OCC(=O)N[C@@H](CC2=CC=CC=C2)[C@@H](CN(CC(C)C)S(=O)(=O)C3=CC4=C(C=C3)N=C(S4)N5CCCC5C(=O)O)O
> <PUBCHEM_CACTVS_TPSA>
186
> <PUBCHEM_MONOISOTOPIC_WEIGHT>
708.26514210
> <PUBCHEM_TOTAL_CHARGE>
0
> <PUBCHEM_HEAVY_ATOM_COUNT>
49
> <PUBCHEM_ATOM_DEF_STEREO_COUNT>
2
> <PUBCHEM_ATOM_UDEF_STEREO_COUNT>
1
> <PUBCHEM_BOND_DEF_STEREO_COUNT>
0
> <PUBCHEM_BOND_UDEF_STEREO_COUNT>
0
> <PUBCHEM_ISOTOPIC_ATOM_COUNT>
0
> <PUBCHEM_COMPONENT_COUNT>
1
> <PUBCHEM_CACTVS_TAUTO_COUNT>
-1
> <PUBCHEM_COORDINATE_TYPE>
1
5
255
> <PUBCHEM_BONDANNOTATIONS>
20  12  6
13  22  8
13  28  8
14  25  3
2  22  8
2  27  8
26  29  8
26  33  8
27  28  8
27  29  8
28  34  8
18  3  6
32  36  8
32  37  8
33  34  8
36  39  8
37  40  8
39  41  8
40  41  8
42  43  8
42  44  8
43  45  8
44  46  8
45  49  8
46  49  8
$$$$
