509711
  -OEChem-10302200282D
 86 89  0     1  0  0  0  0  0999 V2000
    8.1962   -0.5000    0.0000 S   0  0  0  0  0  0  0  0  0  0  0  0
   11.7404   -0.6953    0.0000 S   0  0  0  0  0  0  0  0  0  0  0  0
    5.5981    1.0000    0.0000 O   0  0  0  0  0  0  0  0  0  0  0  0
    7.6962   -1.3660    0.0000 O   0  0  0  0  0  0  0  0  0  0  0  0
    8.6962    0.3660    0.0000 O   0  0  0  0  0  0  0  0  0  0  0  0
   14.2720    1.0032    0.0000 O   0  0  0  0  0  0  0  0  0  0  0  0
   12.6247    0.4680    0.0000 O   0  0  0  0  0  0  0  0  0  0  0  0
    3.0000    1.5000    0.0000 O   0  0  0  0  0  0  0  0  0  0  0  0
    4.7320    1.5000    0.0000 O   0  0  0  0  0  0  0  0  0  0  0  0
   13.3241   -1.5000    0.0000 N   0  0  3  0  0  0  0  0  0  0  0  0
    7.3301    0.0000    0.0000 N   0  0  3  0  0  0  0  0  0  0  0  0
    3.8660    0.0000    0.0000 N   0  0  0  0  0  0  0  0  0  0  0  0
   11.7404   -2.3047    0.0000 N   0  0  0  0  0  0  0  0  0  0  0  0
   13.9118   -0.6910    0.0000 C   0  0  2  0  0  0  0  0  0  0  0  0
   14.8629   -1.0000    0.0000 C   0  0  0  0  0  0  0  0  0  0  0  0
   14.8629   -2.0000    0.0000 C   0  0  0  0  0  0  0  0  0  0  0  0
   13.9118   -2.3090    0.0000 C   0  0  0  0  0  0  0  0  0  0  0  0
    5.5981    0.0000    0.0000 C   0  0  2  0  0  0  0  0  0  0  0  0
    6.4641   -0.5000    0.0000 C   0  0  0  0  0  0  0  0  0  0  0  0
    4.7320   -0.5000    0.0000 C   0  0  2  0  0  0  0  0  0  0  0  0
    7.3301    1.0000    0.0000 C   0  0  0  0  0  0  0  0  0  0  0  0
   12.3241   -1.5000    0.0000 C   0  0  0  0  0  0  0  0  0  0  0  0
    8.1962    1.5000    0.0000 C   0  0  0  0  0  0  0  0  0  0  0  0
    4.7320   -1.5000    0.0000 C   0  0  0  0  0  0  0  0  0  0  0  0
   13.6028    0.2601    0.0000 C   0  0  0  0  0  0  0  0  0  0  0  0
    9.0622   -1.0000    0.0000 C   0  0  0  0  0  0  0  0  0  0  0  0
   10.7942   -1.0000    0.0000 C   0  0  0  0  0  0  0  0  0  0  0  0
   10.7942   -2.0000    0.0000 C   0  0  0  0  0  0  0  0  0  0  0  0
    9.9282   -0.5000    0.0000 C   0  0  0  0  0  0  0  0  0  0  0  0
    8.1962    2.5000    0.0000 C   0  0  0  0  0  0  0  0  0  0  0  0
    9.0622    1.0000    0.0000 C   0  0  0  0  0  0  0  0  0  0  0  0
    3.8660   -2.0000    0.0000 C   0  0  0  0  0  0  0  0  0  0  0  0
    9.0622   -2.0000    0.0000 C   0  0  0  0  0  0  0  0  0  0  0  0
    9.9282   -2.5000    0.0000 C   0  0  0  0  0  0  0  0  0  0  0  0
    3.8660    1.0000    0.0000 C   0  0  0  0  0  0  0  0  0  0  0  0
    3.8660   -3.0000    0.0000 C   0  0  0  0  0  0  0  0  0  0  0  0
    3.0000   -1.5000    0.0000 C   0  0  0  0  0  0  0  0  0  0  0  0
    3.0000    2.5000    0.0000 C   0  0  0  0  0  0  0  0  0  0  0  0
    3.0000   -3.5000    0.0000 C   0  0  0  0  0  0  0  0  0  0  0  0
    2.1340   -2.0000    0.0000 C   0  0  0  0  0  0  0  0  0  0  0  0
    3.0000    3.5000    0.0000 C   0  0  0  0  0  0  0  0  0  0  0  0
    2.0000    2.5000    0.0000 C   0  0  0  0  0  0  0  0  0  0  0  0
    4.0000    2.5000    0.0000 C   0  0  0  0  0  0  0  0  0  0  0  0
    2.1340   -3.0000    0.0000 C   0  0  0  0  0  0  0  0  0  0  0  0
   13.2995   -0.5940    0.0000 H   0  0  0  0  0  0  0  0  0  0  0  0
   15.4795   -1.0648    0.0000 H   0  0  0  0  0  0  0  0  0  0  0  0
   14.9918   -0.3935    0.0000 H   0  0  0  0  0  0  0  0  0  0  0  0
   14.9918   -2.6064    0.0000 H   0  0  0  0  0  0  0  0  0  0  0  0
   15.4795   -1.9352    0.0000 H   0  0  0  0  0  0  0  0  0  0  0  0
   13.3749   -2.6190    0.0000 H   0  0  0  0  0  0  0  0  0  0  0  0
   14.1640   -2.8754    0.0000 H   0  0  0  0  0  0  0  0  0  0  0  0
    6.1350    0.3100    0.0000 H   0  0  0  0  0  0  0  0  0  0  0  0
    6.0656   -0.9749    0.0000 H   0  0  0  0  0  0  0  0  0  0  0  0
    6.8626   -0.9749    0.0000 H   0  0  0  0  0  0  0  0  0  0  0  0
    4.7320    0.1200    0.0000 H   0  0  0  0  0  0  0  0  0  0  0  0
    7.1181    1.5826    0.0000 H   0  0  0  0  0  0  0  0  0  0  0  0
    6.7196    0.8923    0.0000 H   0  0  0  0  0  0  0  0  0  0  0  0
    8.7331    1.8100    0.0000 H   0  0  0  0  0  0  0  0  0  0  0  0
    4.9441   -2.0826    0.0000 H   0  0  0  0  0  0  0  0  0  0  0  0
    5.3426   -1.3923    0.0000 H   0  0  0  0  0  0  0  0  0  0  0  0
    3.3291   -0.3100    0.0000 H   0  0  0  0  0  0  0  0  0  0  0  0
    9.9282    0.1200    0.0000 H   0  0  0  0  0  0  0  0  0  0  0  0
    8.8162    2.5000    0.0000 H   0  0  0  0  0  0  0  0  0  0  0  0
    8.1962    3.1200    0.0000 H   0  0  0  0  0  0  0  0  0  0  0  0
    7.5762    2.5000    0.0000 H   0  0  0  0  0  0  0  0  0  0  0  0
    8.7522    0.4631    0.0000 H   0  0  0  0  0  0  0  0  0  0  0  0
    9.5991    0.6900    0.0000 H   0  0  0  0  0  0  0  0  0  0  0  0
    9.3722    1.5369    0.0000 H   0  0  0  0  0  0  0  0  0  0  0  0
    8.5252   -2.3100    0.0000 H   0  0  0  0  0  0  0  0  0  0  0  0
    6.1350    1.3100    0.0000 H   0  0  0  0  0  0  0  0  0  0  0  0
    9.9282   -3.1200    0.0000 H   0  0  0  0  0  0  0  0  0  0  0  0
   14.0804    1.5929    0.0000 H   0  0  0  0  0  0  0  0  0  0  0  0
    4.4030   -3.3100    0.0000 H   0  0  0  0  0  0  0  0  0  0  0  0
    3.0000   -0.8800    0.0000 H   0  0  0  0  0  0  0  0  0  0  0  0
    3.0000   -4.1200    0.0000 H   0  0  0  0  0  0  0  0  0  0  0  0
    1.5970   -1.6900    0.0000 H   0  0  0  0  0  0  0  0  0  0  0  0
    3.6200    3.5000    0.0000 H   0  0  0  0  0  0  0  0  0  0  0  0
    3.0000    4.1200    0.0000 H   0  0  0  0  0  0  0  0  0  0  0  0
    2.3800    3.5000    0.0000 H   0  0  0  0  0  0  0  0  0  0  0  0
    2.0000    3.1200    0.0000 H   0  0  0  0  0  0  0  0  0  0  0  0
    1.3800    2.5000    0.0000 H   0  0  0  0  0  0  0  0  0  0  0  0
    2.0000    1.8800    0.0000 H   0  0  0  0  0  0  0  0  0  0  0  0
    4.0000    1.8800    0.0000 H   0  0  0  0  0  0  0  0  0  0  0  0
    4.6200    2.5000    0.0000 H   0  0  0  0  0  0  0  0  0  0  0  0
    4.0000    3.1200    0.0000 H   0  0  0  0  0  0  0  0  0  0  0  0
    1.5970   -3.3100    0.0000 H   0  0  0  0  0  0  0  0  0  0  0  0
  1  4  2  0  0  0  0
  1  5  2  0  0  0  0
  1 11  1  0  0  0  0
  1 26  1  0  0  0  0
  2 22  1  0  0  0  0
  2 27  1  0  0  0  0
 18  3  1  6  0  0  0
  3 70  1  0  0  0  0
  6 25  1  0  0  0  0
  6 72  1  0  0  0  0
  7 25  2  0  0  0  0
  8 35  1  0  0  0  0
  8 38  1  0  0  0  0
  9 35  2  0  0  0  0
 10 14  1  0  0  0  0
 10 17  1  0  0  0  0
 10 22  1  0  0  0  0
 11 19  1  0  0  0  0
 11 21  1  0  0  0  0
 20 12  1  6  0  0  0
 12 35  1  0  0  0  0
 12 61  1  0  0  0  0
 13 22  2  0  0  0  0
 13 28  1  0  0  0  0
 14 15  1  0  0  0  0
 14 25  1  1  0  0  0
 14 45  1  0  0  0  0
 15 16  1  0  0  0  0
 15 46  1  0  0  0  0
 15 47  1  0  0  0  0
 16 17  1  0  0  0  0
 16 48  1  0  0  0  0
 16 49  1  0  0  0  0
 17 50  1  0  0  0  0
 17 51  1  0  0  0  0
 18 19  1  0  0  0  0
 18 20  1  0  0  0  0
 18 52  1  0  0  0  0
 19 53  1  0  0  0  0
 19 54  1  0  0  0  0
 20 24  1  0  0  0  0
 20 55  1  0  0  0  0
 21 23  1  0  0  0  0
 21 56  1  0  0  0  0
 21 57  1  0  0  0  0
 23 30  1  0  0  0  0
 23 31  1  0  0  0  0
 23 58  1  0  0  0  0
 24 32  1  0  0  0  0
 24 59  1  0  0  0  0
 24 60  1  0  0  0  0
 26 29  2  0  0  0  0
 26 33  1  0  0  0  0
 27 28  2  0  0  0  0
 27 29  1  0  0  0  0
 28 34  1  0  0  0  0
 29 62  1  0  0  0  0
 30 63  1  0  0  0  0
 30 64  1  0  0  0  0
 30 65  1  0  0  0  0
 31 66  1  0  0  0  0
 31 67  1  0  0  0  0
 31 68  1  0  0  0  0
 32 36  2  0  0  0  0
 32 37  1  0  0  0  0
 33 34  2  0  0  0  0
 33 69  1  0  0  0  0
 34 71  1  0  0  0  0
 36 39  1  0  0  0  0
 36 73  1  0  0  0  0
 37 40  2  0  0  0  0
 37 74  1  0  0  0  0
 38 41  1  0  0  0  0
 38 42  1  0  0  0  0
 38 43  1  0  0  0  0
 39 44  2  0  0  0  0
 39 75  1  0  0  0  0
 40 44  1  0  0  0  0
 40 76  1  0  0  0  0
 41 77  1  0  0  0  0
 41 78  1  0  0  0  0
 41 79  1  0  0  0  0
 42 80  1  0  0  0  0
 42 81  1  0  0  0  0
 42 82  1  0  0  0  0
 43 83  1  0  0  0  0
 43 84  1  0  0  0  0
 43 85  1  0  0  0  0
 44 86  1  0  0  0  0
M  END
> <PUBCHEM_COMPOUND_CID>
509711
> <PUBCHEM_COMPOUND_CANONICALIZED>
1
> <PUBCHEM_CACTVS_COMPLEXITY>
1070
> <PUBCHEM_CACTVS_HBOND_ACCEPTOR>
11
> <PUBCHEM_CACTVS_HBOND_DONOR>
3
> <PUBCHEM_CACTVS_ROTATABLE_BOND>
14
> <PUBCHEM_CACTVS_SUBSKEYS>
AAADcfB7uABgAAAAAAAAAAAAAAAAAWLAAAAwYAAAAAAAAFgB9AAAHgQQSAAADXzh3gYz2bPIFgqsAyTyfHDD8LlhCjhJmL24ZJmKMLLg2bGMYAhslgLYyCeY0aIOAAQAAEAAAQAACAAAgAACAAAAAAAAAA==
> <PUBCHEM_IUPAC_OPENEYE_NAME>
(2R)-1-[6-[[(2R,3S)-3-(tert-butoxycarbonylamino)-2-hydroxy-4-phenyl-butyl]-isobutyl-sulfamoyl]-1,3-benzothiazol-2-yl]pyrrolidine-2-carboxylic acid
> <PUBCHEM_IUPAC_CAS_NAME>
(2R)-1-[6-[[(2R,3S)-2-hydroxy-3-[[(2-methylpropan-2-yl)oxy-oxomethyl]amino]-4-phenylbutyl]-(2-methylpropyl)sulfamoyl]-1,3-benzothiazol-2-yl]-2-pyrrolidinecarboxylic acid
> <PUBCHEM_IUPAC_NAME_MARKUP>
(2<I>R</I>)-1-[6-[[(2<I>R</I>,3<I>S</I>)-2-hydroxy-3-[(2-methylpropan-2-yl)oxycarbonylamino]-4-phenylbutyl]-(2-methylpropyl)sulfamoyl]-1,3-benzothiazol-2-yl]pyrrolidine-2-carboxylic acid
> <PUBCHEM_IUPAC_NAME>
(2R)-1-[6-[[(2R,3S)-2-hydroxy-3-[(2-methylpropan-2-yl)oxycarbonylamino]-4-phenylbutyl]-(2-methylpropyl)sulfamoyl]-1,3-benzothiazol-2-yl]pyrrolidine-2-carboxylic acid
> <PUBCHEM_IUPAC_SYSTEMATIC_NAME>
(2R)-1-[6-[[(2R,3S)-3-[(2-methylpropan-2-yl)oxycarbonylamino]-2-oxidanyl-4-phenyl-butyl]-(2-methylpropyl)sulfamoyl]-1,3-benzothiazol-2-yl]pyrrolidine-2-carboxylic acid
> <PUBCHEM_IUPAC_TRADITIONAL_NAME>
(2R)-1-[6-[[(2R,3S)-3-(tert-butoxycarbonylamino)-2-hydroxy-4-phenyl-butyl]-isobutyl-sulfamoyl]-1,3-benzothiazol-2-yl]proline
> <PUBCHEM_IUPAC_INCHI>
InChI=1S/C31H42N4O7S2/c1-20(2)18-34(19-26(36)24(16-21-10-7-6-8-11-21)33-30(39)42-31(3,4)5)44(40,41)22-13-14-23-27(17-22)43-29(32-23)35-15-9-12-25(35)28(37)38/h6-8,10-11,13-14,17,20,24-26,36H,9,12,15-16,18-19H2,1-5H3,(H,33,39)(H,37,38)/t24-,25+,26+/m0/s1
> <PUBCHEM_IUPAC_INCHIKEY>
SFRJFDOXYKHOJM-JIMJEQGWSA-N
> <PUBCHEM_XLOGP3_AA>
5.5
> <PUBCHEM_EXACT_MASS>
646.24949204
> <PUBCHEM_MOLECULAR_FORMULA>
C31H42N4O7S2
> <PUBCHEM_MOLECULAR_WEIGHT>
646.8
> <PUBCHEM_OPENEYE_CAN_SMILES>
CC(C)CN(CC(C(CC1=CC=CC=C1)NC(=O)OC(C)(C)C)O)S(=O)(=O)C2=CC3=C(C=C2)N=C(S3)N4CCCC4C(=O)O
> <PUBCHEM_OPENEYE_ISO_SMILES>
CC(C)CN(C[C@H]([C@H](CC1=CC=CC=C1)NC(=O)OC(C)(C)C)O)S(=O)(=O)C2=CC3=C(C=C2)N=C(S3)N4CCC[C@@H]4C(=O)O
> <PUBCHEM_CACTVS_TPSA>
186
> <PUBCHEM_MONOISOTOPIC_WEIGHT>
646.24949204
> <PUBCHEM_TOTAL_CHARGE>
0
> <PUBCHEM_HEAVY_ATOM_COUNT>
44
> <PUBCHEM_ATOM_DEF_STEREO_COUNT>
3
> <PUBCHEM_ATOM_UDEF_STEREO_COUNT>
0
> <PUBCHEM_BOND_DEF_STEREO_COUNT>
0
> <PUBCHEM_BOND_UDEF_STEREO_COUNT>
0
> <PUBCHEM_ISOTOPIC_ATOM_COUNT>
0
> <PUBCHEM_COMPONENT_COUNT>
1
> <PUBCHEM_CACTVS_TAUTO_COUNT>
-1
> <PUBCHEM_COORDINATE_TYPE>
1
5
255
> <PUBCHEM_BONDANNOTATIONS>
20  12  6
13  22  8
13  28  8
14  25  5
2  22  8
2  27  8
26  29  8
26  33  8
27  28  8
27  29  8
28  34  8
18  3  6
32  36  8
32  37  8
33  34  8
36  39  8
37  40  8
39  44  8
40  44  8
$$$$
