509774
  -OEChem-10302200282D
 50 53  0     1  0  0  0  0  0999 V2000
    4.5748    0.4271    0.0000 S   0  0  0  0  0  0  0  0  0  0  0  0
    5.7935   -2.3102    0.0000 O   0  0  0  0  0  0  0  0  0  0  0  0
    5.3279    2.0421    0.0000 N   0  0  0  0  0  0  0  0  0  0  0  0
    6.1918    0.4835    0.0000 N   0  0  0  0  0  0  0  0  0  0  0  0
    5.9162   -0.4777    0.0000 N   0  0  0  0  0  0  0  0  0  0  0  0
    4.3576   -1.3417    0.0000 N   0  0  0  0  0  0  0  0  0  0  0  0
    2.0000   -6.3856    0.0000 N   0  0  0  0  0  0  0  0  0  0  0  0
    8.7610    4.4459    0.0000 C   0  0  0  0  0  0  0  0  0  0  0  0
    7.3620    4.4371    0.0000 C   0  0  3  0  0  0  0  0  0  0  0  0
    7.6209    5.4030    0.0000 C   0  0  3  0  0  0  0  0  0  0  0  0
    6.8842    6.3856    0.0000 C   0  0  0  0  0  0  0  0  0  0  0  0
    6.1410    3.5714    0.0000 C   0  0  1  0  0  0  0  0  0  0  0  0
    5.5876    5.0919    0.0000 C   0  0  0  0  0  0  0  0  0  0  0  0
    5.3120    4.1306    0.0000 C   0  0  0  0  0  0  0  0  0  0  0  0
    9.2610    3.5799    0.0000 C   0  0  0  0  0  0  0  0  0  0  0  0
    9.6270    4.9459    0.0000 C   0  0  0  0  0  0  0  0  0  0  0  0
    6.1759    2.5720    0.0000 C   0  0  0  0  0  0  0  0  0  0  0  0
    5.3628    1.0427    0.0000 C   0  0  0  0  0  0  0  0  0  0  0  0
    4.9168   -0.5126    0.0000 C   0  0  0  0  0  0  0  0  0  0  0  0
    4.7960   -2.2404    0.0000 C   0  0  0  0  0  0  0  0  0  0  0  0
    4.2368   -3.0695    0.0000 C   0  0  0  0  0  0  0  0  0  0  0  0
    4.6751   -3.9683    0.0000 C   0  0  0  0  0  0  0  0  0  0  0  0
    3.2392   -2.9997    0.0000 C   0  0  0  0  0  0  0  0  0  0  0  0
    4.1160   -4.7973    0.0000 C   0  0  0  0  0  0  0  0  0  0  0  0
    2.6800   -3.8288    0.0000 C   0  0  0  0  0  0  0  0  0  0  0  0
    3.1184   -4.7276    0.0000 C   0  0  0  0  0  0  0  0  0  0  0  0
    2.5592   -5.5566    0.0000 C   0  0  0  0  0  0  0  0  0  0  0  0
    7.5521    3.8469    0.0000 H   0  0  0  0  0  0  0  0  0  0  0  0
    8.0712    5.8292    0.0000 H   0  0  0  0  0  0  0  0  0  0  0  0
    7.2021    6.9180    0.0000 H   0  0  0  0  0  0  0  0  0  0  0  0
    6.2711    6.4776    0.0000 H   0  0  0  0  0  0  0  0  0  0  0  0
    5.5988    3.2708    0.0000 H   0  0  0  0  0  0  0  0  0  0  0  0
    5.5826    5.7119    0.0000 H   0  0  0  0  0  0  0  0  0  0  0  0
    4.9733    5.1757    0.0000 H   0  0  0  0  0  0  0  0  0  0  0  0
    4.7371    4.3629    0.0000 H   0  0  0  0  0  0  0  0  0  0  0  0
    5.0209    3.5832    0.0000 H   0  0  0  0  0  0  0  0  0  0  0  0
    8.7240    3.2699    0.0000 H   0  0  0  0  0  0  0  0  0  0  0  0
    9.5710    3.0430    0.0000 H   0  0  0  0  0  0  0  0  0  0  0  0
    9.7979    3.8899    0.0000 H   0  0  0  0  0  0  0  0  0  0  0  0
    9.9370    4.4090    0.0000 H   0  0  0  0  0  0  0  0  0  0  0  0
   10.1639    5.2559    0.0000 H   0  0  0  0  0  0  0  0  0  0  0  0
    9.3170    5.4828    0.0000 H   0  0  0  0  0  0  0  0  0  0  0  0
    6.4082    1.9972    0.0000 H   0  0  0  0  0  0  0  0  0  0  0  0
    6.7824    2.7010    0.0000 H   0  0  0  0  0  0  0  0  0  0  0  0
    4.7804    2.3332    0.0000 H   0  0  0  0  0  0  0  0  0  0  0  0
    3.7391   -1.2984    0.0000 H   0  0  0  0  0  0  0  0  0  0  0  0
    5.2936   -4.0115    0.0000 H   0  0  0  0  0  0  0  0  0  0  0  0
    2.9674   -2.4425    0.0000 H   0  0  0  0  0  0  0  0  0  0  0  0
    4.3877   -5.3546    0.0000 H   0  0  0  0  0  0  0  0  0  0  0  0
    2.0615   -3.7855    0.0000 H   0  0  0  0  0  0  0  0  0  0  0  0
  1 18  1  0  0  0  0
  1 19  1  0  0  0  0
  2 20  2  0  0  0  0
  3 17  1  0  0  0  0
  3 18  1  0  0  0  0
  3 45  1  0  0  0  0
  4  5  1  0  0  0  0
  4 18  2  0  0  0  0
  5 19  2  0  0  0  0
  6 19  1  0  0  0  0
  6 20  1  0  0  0  0
  6 46  1  0  0  0  0
  7 27  3  0  0  0  0
  8  9  1  0  0  0  0
  8 10  1  0  0  0  0
  8 15  1  0  0  0  0
  8 16  1  0  0  0  0
  9 11  1  0  0  0  0
  9 12  1  0  0  0  0
  9 28  1  0  0  0  0
 10 11  1  0  0  0  0
 10 13  1  0  0  0  0
 10 29  1  0  0  0  0
 11 30  1  0  0  0  0
 11 31  1  0  0  0  0
 12 14  1  0  0  0  0
 12 17  1  6  0  0  0
 12 32  1  0  0  0  0
 13 14  1  0  0  0  0
 13 33  1  0  0  0  0
 13 34  1  0  0  0  0
 14 35  1  0  0  0  0
 14 36  1  0  0  0  0
 15 37  1  0  0  0  0
 15 38  1  0  0  0  0
 15 39  1  0  0  0  0
 16 40  1  0  0  0  0
 16 41  1  0  0  0  0
 16 42  1  0  0  0  0
 17 43  1  0  0  0  0
 17 44  1  0  0  0  0
 20 21  1  0  0  0  0
 21 22  2  0  0  0  0
 21 23  1  0  0  0  0
 22 24  1  0  0  0  0
 22 47  1  0  0  0  0
 23 25  2  0  0  0  0
 23 48  1  0  0  0  0
 24 26  2  0  0  0  0
 24 49  1  0  0  0  0
 25 26  1  0  0  0  0
 25 50  1  0  0  0  0
 26 27  1  0  0  0  0
M  END
> <PUBCHEM_COMPOUND_CID>
509774
> <PUBCHEM_COMPOUND_CANONICALIZED>
1
> <PUBCHEM_CACTVS_COMPLEXITY>
609
> <PUBCHEM_CACTVS_HBOND_ACCEPTOR>
6
> <PUBCHEM_CACTVS_HBOND_DONOR>
2
> <PUBCHEM_CACTVS_ROTATABLE_BOND>
5
> <PUBCHEM_CACTVS_SUBSKEYS>
AAADceB7oABAAAAAAAAAAAAAAABgAWAAAAAwYMAAAAAAAAABwAAAHgQYAAAADwDBmAQzEILAAAi+BiFSMACyAAJkAAkNiIEIBMiIoDKAnRGEIQhwkQIIiY8YiMCPwAAAAAAAAACAAAQAACAAAAAAAAAAAA==
> <PUBCHEM_IUPAC_OPENEYE_NAME>
4-cyano-N-[5-[[(2R)-6,6-dimethylnorpinan-2-yl]methylamino]-1,3,4-thiadiazol-2-yl]benzamide
> <PUBCHEM_IUPAC_CAS_NAME>
4-cyano-N-[5-[[(2R)-6,6-dimethyl-2-bicyclo[3.1.1]heptanyl]methylamino]-1,3,4-thiadiazol-2-yl]benzamide
> <PUBCHEM_IUPAC_NAME_MARKUP>
4-cyano-<I>N</I>-[5-[[(2<I>R</I>)-6,6-dimethyl-2-bicyclo[3.1.1]heptanyl]methylamino]-1,3,4-thiadiazol-2-yl]benzamide
> <PUBCHEM_IUPAC_NAME>
4-cyano-N-[5-[[(2R)-6,6-dimethyl-2-bicyclo[3.1.1]heptanyl]methylamino]-1,3,4-thiadiazol-2-yl]benzamide
> <PUBCHEM_IUPAC_SYSTEMATIC_NAME>
4-cyano-N-[5-[[(2R)-6,6-dimethyl-2-bicyclo[3.1.1]heptanyl]methylamino]-1,3,4-thiadiazol-2-yl]benzamide
> <PUBCHEM_IUPAC_TRADITIONAL_NAME>
4-cyano-N-[5-[[(2R)-6,6-dimethylnorpinan-2-yl]methylamino]-1,3,4-thiadiazol-2-yl]benzamide
> <PUBCHEM_IUPAC_INCHI>
InChI=1S/C20H23N5OS/c1-20(2)15-8-7-14(16(20)9-15)11-22-18-24-25-19(27-18)23-17(26)13-5-3-12(10-21)4-6-13/h3-6,14-16H,7-9,11H2,1-2H3,(H,22,24)(H,23,25,26)/t14-,15?,16?/m0/s1
> <PUBCHEM_IUPAC_INCHIKEY>
GLZRTUIRBGNIAA-FHERZECASA-N
> <PUBCHEM_XLOGP3_AA>
4.5
> <PUBCHEM_EXACT_MASS>
381.16233155
> <PUBCHEM_MOLECULAR_FORMULA>
C20H23N5OS
> <PUBCHEM_MOLECULAR_WEIGHT>
381.5
> <PUBCHEM_OPENEYE_CAN_SMILES>
CC1(C2CCC(C1C2)CNC3=NN=C(S3)NC(=O)C4=CC=C(C=C4)C#N)C
> <PUBCHEM_OPENEYE_ISO_SMILES>
CC1(C2CC[C@H](C1C2)CNC3=NN=C(S3)NC(=O)C4=CC=C(C=C4)C#N)C
> <PUBCHEM_CACTVS_TPSA>
119
> <PUBCHEM_MONOISOTOPIC_WEIGHT>
381.16233155
> <PUBCHEM_TOTAL_CHARGE>
0
> <PUBCHEM_HEAVY_ATOM_COUNT>
27
> <PUBCHEM_ATOM_DEF_STEREO_COUNT>
1
> <PUBCHEM_ATOM_UDEF_STEREO_COUNT>
2
> <PUBCHEM_BOND_DEF_STEREO_COUNT>
0
> <PUBCHEM_BOND_UDEF_STEREO_COUNT>
0
> <PUBCHEM_ISOTOPIC_ATOM_COUNT>
0
> <PUBCHEM_COMPONENT_COUNT>
1
> <PUBCHEM_CACTVS_TAUTO_COUNT>
-1
> <PUBCHEM_COORDINATE_TYPE>
1
5
255
> <PUBCHEM_BONDANNOTATIONS>
1  18  8
1  19  8
10  13  3
12  17  6
21  22  8
21  23  8
22  24  8
23  25  8
24  26  8
25  26  8
4  18  8
4  5  8
5  19  8
9  11  3
$$$$
