509745
  -OEChem-10302200282D
 83 87  0     1  0  0  0  0  0999 V2000
    9.6448   -0.8512    0.0000 S   0  0  0  0  0  0  0  0  0  0  0  0
   13.1891   -1.0465    0.0000 S   0  0  0  0  0  0  0  0  0  0  0  0
    3.4782    3.6433    0.0000 S   0  0  0  0  0  0  0  0  0  0  0  0
    7.0468    0.6488    0.0000 O   0  0  0  0  0  0  0  0  0  0  0  0
    9.1448   -1.7172    0.0000 O   0  0  0  0  0  0  0  0  0  0  0  0
   10.1449    0.0148    0.0000 O   0  0  0  0  0  0  0  0  0  0  0  0
    4.4487    1.1488    0.0000 O   0  0  0  0  0  0  0  0  0  0  0  0
    6.1808    1.1488    0.0000 O   0  0  0  0  0  0  0  0  0  0  0  0
   14.7728   -3.5833    0.0000 O   0  0  0  0  0  0  0  0  0  0  0  0
    8.7788   -0.3512    0.0000 N   0  0  3  0  0  0  0  0  0  0  0  0
    5.3147   -0.3512    0.0000 N   0  0  0  0  0  0  0  0  0  0  0  0
   13.1891   -2.6559    0.0000 N   0  0  0  0  0  0  0  0  0  0  0  0
   14.7728   -1.8512    0.0000 N   0  0  0  0  0  0  0  0  0  0  0  0
   16.8605   -1.9082    0.0000 N   0  0  0  0  0  0  0  0  0  0  0  0
    2.0000    2.9852    0.0000 N   0  0  0  0  0  0  0  0  0  0  0  0
    7.0468   -0.3512    0.0000 C   0  0  2  0  0  0  0  0  0  0  0  0
    7.9128   -0.8512    0.0000 C   0  0  0  0  0  0  0  0  0  0  0  0
    6.1808   -0.8512    0.0000 C   0  0  2  0  0  0  0  0  0  0  0  0
    8.7788    0.6488    0.0000 C   0  0  0  0  0  0  0  0  0  0  0  0
    9.6448    1.1488    0.0000 C   0  0  0  0  0  0  0  0  0  0  0  0
    6.1808   -1.8512    0.0000 C   0  0  0  0  0  0  0  0  0  0  0  0
   10.5109   -1.3512    0.0000 C   0  0  0  0  0  0  0  0  0  0  0  0
    9.6448    2.1488    0.0000 C   0  0  0  0  0  0  0  0  0  0  0  0
   10.5109    0.6488    0.0000 C   0  0  0  0  0  0  0  0  0  0  0  0
    5.3147   -2.3512    0.0000 C   0  0  0  0  0  0  0  0  0  0  0  0
   11.3769   -0.8512    0.0000 C   0  0  0  0  0  0  0  0  0  0  0  0
   10.5109   -2.3512    0.0000 C   0  0  0  0  0  0  0  0  0  0  0  0
    5.3147    0.6488    0.0000 C   0  0  0  0  0  0  0  0  0  0  0  0
    5.3147   -3.3512    0.0000 C   0  0  0  0  0  0  0  0  0  0  0  0
    4.4487   -1.8512    0.0000 C   0  0  0  0  0  0  0  0  0  0  0  0
   12.2429   -1.3512    0.0000 C   0  0  0  0  0  0  0  0  0  0  0  0
   12.2429   -2.3512    0.0000 C   0  0  0  0  0  0  0  0  0  0  0  0
   11.3769   -2.8512    0.0000 C   0  0  0  0  0  0  0  0  0  0  0  0
    4.4487   -3.8512    0.0000 C   0  0  0  0  0  0  0  0  0  0  0  0
    3.5827   -2.3512    0.0000 C   0  0  0  0  0  0  0  0  0  0  0  0
    3.5827   -3.3512    0.0000 C   0  0  0  0  0  0  0  0  0  0  0  0
   13.7728   -1.8512    0.0000 C   0  0  0  0  0  0  0  0  0  0  0  0
    4.4487    2.1488    0.0000 C   0  0  0  0  0  0  0  0  0  0  0  0
   15.2728   -0.9852    0.0000 C   0  0  0  0  0  0  0  0  0  0  0  0
    3.5827    2.6488    0.0000 C   0  0  0  0  0  0  0  0  0  0  0  0
   15.2728   -2.7172    0.0000 C   0  0  0  0  0  0  0  0  0  0  0  0
   16.2728   -2.7172    0.0000 C   0  0  0  0  0  0  0  0  0  0  0  0
    2.6691    2.2420    0.0000 C   0  0  0  0  0  0  0  0  0  0  0  0
   16.8605   -3.5263    0.0000 C   0  0  0  0  0  0  0  0  0  0  0  0
   17.8116   -2.2172    0.0000 C   0  0  0  0  0  0  0  0  0  0  0  0
   17.8116   -3.2172    0.0000 C   0  0  0  0  0  0  0  0  0  0  0  0
    2.5000    3.8512    0.0000 C   0  0  0  0  0  0  0  0  0  0  0  0
    7.5837   -0.0412    0.0000 H   0  0  0  0  0  0  0  0  0  0  0  0
    7.5143   -1.3262    0.0000 H   0  0  0  0  0  0  0  0  0  0  0  0
    8.3113   -1.3262    0.0000 H   0  0  0  0  0  0  0  0  0  0  0  0
    6.1808   -0.2312    0.0000 H   0  0  0  0  0  0  0  0  0  0  0  0
    8.5668    1.2314    0.0000 H   0  0  0  0  0  0  0  0  0  0  0  0
    8.1682    0.5411    0.0000 H   0  0  0  0  0  0  0  0  0  0  0  0
    9.1079    1.4588    0.0000 H   0  0  0  0  0  0  0  0  0  0  0  0
    6.3928   -2.4338    0.0000 H   0  0  0  0  0  0  0  0  0  0  0  0
    6.7913   -1.7436    0.0000 H   0  0  0  0  0  0  0  0  0  0  0  0
    4.7778   -0.6612    0.0000 H   0  0  0  0  0  0  0  0  0  0  0  0
   10.2649    2.1488    0.0000 H   0  0  0  0  0  0  0  0  0  0  0  0
    9.6448    2.7688    0.0000 H   0  0  0  0  0  0  0  0  0  0  0  0
    9.0248    2.1488    0.0000 H   0  0  0  0  0  0  0  0  0  0  0  0
   10.2009    0.1118    0.0000 H   0  0  0  0  0  0  0  0  0  0  0  0
   11.0478    0.3388    0.0000 H   0  0  0  0  0  0  0  0  0  0  0  0
   10.8209    1.1857    0.0000 H   0  0  0  0  0  0  0  0  0  0  0  0
    7.5837    0.9588    0.0000 H   0  0  0  0  0  0  0  0  0  0  0  0
   11.3769   -0.2312    0.0000 H   0  0  0  0  0  0  0  0  0  0  0  0
    9.9739   -2.6612    0.0000 H   0  0  0  0  0  0  0  0  0  0  0  0
    5.8517   -3.6612    0.0000 H   0  0  0  0  0  0  0  0  0  0  0  0
    4.4487   -1.2312    0.0000 H   0  0  0  0  0  0  0  0  0  0  0  0
   11.3769   -3.4712    0.0000 H   0  0  0  0  0  0  0  0  0  0  0  0
    4.4487   -4.4712    0.0000 H   0  0  0  0  0  0  0  0  0  0  0  0
    3.0457   -2.0412    0.0000 H   0  0  0  0  0  0  0  0  0  0  0  0
    3.0457   -3.6612    0.0000 H   0  0  0  0  0  0  0  0  0  0  0  0
    5.0593    2.0411    0.0000 H   0  0  0  0  0  0  0  0  0  0  0  0
    4.6608    2.7314    0.0000 H   0  0  0  0  0  0  0  0  0  0  0  0
   15.8097   -1.2952    0.0000 H   0  0  0  0  0  0  0  0  0  0  0  0
   15.5828   -0.4483    0.0000 H   0  0  0  0  0  0  0  0  0  0  0  0
   14.7358   -0.6752    0.0000 H   0  0  0  0  0  0  0  0  0  0  0  0
    2.5402    1.6356    0.0000 H   0  0  0  0  0  0  0  0  0  0  0  0
   16.6690   -1.3186    0.0000 H   0  0  0  0  0  0  0  0  0  0  0  0
   16.6690   -4.1159    0.0000 H   0  0  0  0  0  0  0  0  0  0  0  0
   18.3132   -1.8528    0.0000 H   0  0  0  0  0  0  0  0  0  0  0  0
   18.3132   -3.5817    0.0000 H   0  0  0  0  0  0  0  0  0  0  0  0
    2.2478    4.4176    0.0000 H   0  0  0  0  0  0  0  0  0  0  0  0
  1  5  2  0  0  0  0
  1  6  2  0  0  0  0
  1 10  1  0  0  0  0
  1 22  1  0  0  0  0
  2 31  1  0  0  0  0
  2 37  1  0  0  0  0
  3 40  1  0  0  0  0
  3 47  1  0  0  0  0
 16  4  1  6  0  0  0
  4 64  1  0  0  0  0
  7 28  1  0  0  0  0
  7 38  1  0  0  0  0
  8 28  2  0  0  0  0
  9 41  2  0  0  0  0
 10 17  1  0  0  0  0
 10 19  1  0  0  0  0
 18 11  1  6  0  0  0
 11 28  1  0  0  0  0
 11 57  1  0  0  0  0
 12 32  1  0  0  0  0
 12 37  2  0  0  0  0
 13 37  1  0  0  0  0
 13 39  1  0  0  0  0
 13 41  1  0  0  0  0
 14 42  1  0  0  0  0
 14 45  1  0  0  0  0
 14 79  1  0  0  0  0
 15 43  1  0  0  0  0
 15 47  2  0  0  0  0
 16 17  1  0  0  0  0
 16 18  1  0  0  0  0
 16 48  1  0  0  0  0
 17 49  1  0  0  0  0
 17 50  1  0  0  0  0
 18 21  1  0  0  0  0
 18 51  1  0  0  0  0
 19 20  1  0  0  0  0
 19 52  1  0  0  0  0
 19 53  1  0  0  0  0
 20 23  1  0  0  0  0
 20 24  1  0  0  0  0
 20 54  1  0  0  0  0
 21 25  1  0  0  0  0
 21 55  1  0  0  0  0
 21 56  1  0  0  0  0
 22 26  2  0  0  0  0
 22 27  1  0  0  0  0
 23 58  1  0  0  0  0
 23 59  1  0  0  0  0
 23 60  1  0  0  0  0
 24 61  1  0  0  0  0
 24 62  1  0  0  0  0
 24 63  1  0  0  0  0
 25 29  2  0  0  0  0
 25 30  1  0  0  0  0
 26 31  1  0  0  0  0
 26 65  1  0  0  0  0
 27 33  2  0  0  0  0
 27 66  1  0  0  0  0
 29 34  1  0  0  0  0
 29 67  1  0  0  0  0
 30 35  2  0  0  0  0
 30 68  1  0  0  0  0
 31 32  2  0  0  0  0
 32 33  1  0  0  0  0
 33 69  1  0  0  0  0
 34 36  2  0  0  0  0
 34 70  1  0  0  0  0
 35 36  1  0  0  0  0
 35 71  1  0  0  0  0
 36 72  1  0  0  0  0
 38 40  1  0  0  0  0
 38 73  1  0  0  0  0
 38 74  1  0  0  0  0
 39 75  1  0  0  0  0
 39 76  1  0  0  0  0
 39 77  1  0  0  0  0
 40 43  2  0  0  0  0
 41 42  1  0  0  0  0
 42 44  2  0  0  0  0
 43 78  1  0  0  0  0
 44 46  1  0  0  0  0
 44 80  1  0  0  0  0
 45 46  2  0  0  0  0
 45 81  1  0  0  0  0
 46 82  1  0  0  0  0
 47 83  1  0  0  0  0
M  END
> <PUBCHEM_COMPOUND_CID>
509745
> <PUBCHEM_COMPOUND_CANONICALIZED>
1
> <PUBCHEM_CACTVS_COMPLEXITY>
1140
> <PUBCHEM_CACTVS_HBOND_ACCEPTOR>
11
> <PUBCHEM_CACTVS_HBOND_DONOR>
3
> <PUBCHEM_CACTVS_ROTATABLE_BOND>
15
> <PUBCHEM_CACTVS_SUBSKEYS>
AAADcfB/uABgAAAAAAAAAAAAAAAAAWLFgAAwYAAAAAAAAFgB/gAAHgQQSAAADTzh3ga/2bPJlgqsAzV3fHDD8Ll3CjhJ2b24bNmKdPLg/bmcYQhulwLY6aeYwaAOAAQAAEAAAQAACAAAgAACAAAAAAAAAA==
> <PUBCHEM_IUPAC_OPENEYE_NAME>
thiazol-5-ylmethyl N-[(1S,2R)-1-benzyl-2-hydroxy-3-[isobutyl-[[2-[methyl(1H-pyrrole-2-carbonyl)amino]-1,3-benzothiazol-6-yl]sulfonyl]amino]propyl]carbamate
> <PUBCHEM_IUPAC_CAS_NAME>
N-[(2S,3R)-3-hydroxy-4-[[2-[methyl-[oxo(1H-pyrrol-2-yl)methyl]amino]-1,3-benzothiazol-6-yl]sulfonyl-(2-methylpropyl)amino]-1-phenylbutan-2-yl]carbamic acid 5-thiazolylmethyl ester
> <PUBCHEM_IUPAC_NAME_MARKUP>
1,3-thiazol-5-ylmethyl <I>N</I>-[(2<I>S</I>,3<I>R</I>)-3-hydroxy-4-[2-methylpropyl-[[2-[methyl(1<I>H</I>-pyrrole-2-carbonyl)amino]-1,3-benzothiazol-6-yl]sulfonyl]amino]-1-phenylbutan-2-yl]carbamate
> <PUBCHEM_IUPAC_NAME>
1,3-thiazol-5-ylmethyl N-[(2S,3R)-3-hydroxy-4-[2-methylpropyl-[[2-[methyl(1H-pyrrole-2-carbonyl)amino]-1,3-benzothiazol-6-yl]sulfonyl]amino]-1-phenylbutan-2-yl]carbamate
> <PUBCHEM_IUPAC_SYSTEMATIC_NAME>
1,3-thiazol-5-ylmethyl N-[(2S,3R)-4-[2-methylpropyl-[[2-[methyl(1H-pyrrol-2-ylcarbonyl)amino]-1,3-benzothiazol-6-yl]sulfonyl]amino]-3-oxidanyl-1-phenyl-butan-2-yl]carbamate
> <PUBCHEM_IUPAC_TRADITIONAL_NAME>
N-[(1S,2R)-1-benzyl-2-hydroxy-3-[isobutyl-[[2-[methyl(1H-pyrrole-2-carbonyl)amino]-1,3-benzothiazol-6-yl]sulfonyl]amino]propyl]carbamic acid thiazol-5-ylmethyl ester
> <PUBCHEM_IUPAC_INCHI>
InChI=1S/C32H36N6O6S3/c1-21(2)17-38(18-28(39)27(14-22-8-5-4-6-9-22)36-32(41)44-19-23-16-33-20-45-23)47(42,43)24-11-12-25-29(15-24)46-31(35-25)37(3)30(40)26-10-7-13-34-26/h4-13,15-16,20-21,27-28,34,39H,14,17-19H2,1-3H3,(H,36,41)/t27-,28+/m0/s1
> <PUBCHEM_IUPAC_INCHIKEY>
DUXKMHYUIPPUKT-WUFINQPMSA-N
> <PUBCHEM_XLOGP3_AA>
5
> <PUBCHEM_EXACT_MASS>
696.18584641
> <PUBCHEM_MOLECULAR_FORMULA>
C32H36N6O6S3
> <PUBCHEM_MOLECULAR_WEIGHT>
696.9
> <PUBCHEM_OPENEYE_CAN_SMILES>
CC(C)CN(CC(C(CC1=CC=CC=C1)NC(=O)OCC2=CN=CS2)O)S(=O)(=O)C3=CC4=C(C=C3)N=C(S4)N(C)C(=O)C5=CC=CN5
> <PUBCHEM_OPENEYE_ISO_SMILES>
CC(C)CN(C[C@H]([C@H](CC1=CC=CC=C1)NC(=O)OCC2=CN=CS2)O)S(=O)(=O)C3=CC4=C(C=C3)N=C(S4)N(C)C(=O)C5=CC=CN5
> <PUBCHEM_CACTVS_TPSA>
223
> <PUBCHEM_MONOISOTOPIC_WEIGHT>
696.18584641
> <PUBCHEM_TOTAL_CHARGE>
0
> <PUBCHEM_HEAVY_ATOM_COUNT>
47
> <PUBCHEM_ATOM_DEF_STEREO_COUNT>
2
> <PUBCHEM_ATOM_UDEF_STEREO_COUNT>
0
> <PUBCHEM_BOND_DEF_STEREO_COUNT>
0
> <PUBCHEM_BOND_UDEF_STEREO_COUNT>
0
> <PUBCHEM_ISOTOPIC_ATOM_COUNT>
0
> <PUBCHEM_COMPONENT_COUNT>
1
> <PUBCHEM_CACTVS_TAUTO_COUNT>
-1
> <PUBCHEM_COORDINATE_TYPE>
1
5
255
> <PUBCHEM_BONDANNOTATIONS>
18  11  6
12  32  8
12  37  8
14  42  8
14  45  8
15  43  8
15  47  8
2  31  8
2  37  8
22  26  8
22  27  8
25  29  8
25  30  8
26  31  8
27  33  8
29  34  8
3  40  8
3  47  8
30  35  8
31  32  8
32  33  8
34  36  8
35  36  8
16  4  6
40  43  8
42  44  8
44  46  8
45  46  8
$$$$
