509749
  -OEChem-10302200282D
 85 89  0     1  0  0  0  0  0999 V2000
    9.3056   -0.9260    0.0000 S   0  0  0  0  0  0  0  0  0  0  0  0
   12.8499   -1.1213    0.0000 S   0  0  0  0  0  0  0  0  0  0  0  0
    4.6095    3.6128    0.0000 O   0  0  0  0  0  0  0  0  0  0  0  0
    2.8037    4.1950    0.0000 O   0  0  0  0  0  0  0  0  0  0  0  0
    4.1095    1.0740    0.0000 O   0  0  0  0  0  0  0  0  0  0  0  0
    6.7075    0.5740    0.0000 O   0  0  0  0  0  0  0  0  0  0  0  0
    5.8415    1.0740    0.0000 O   0  0  0  0  0  0  0  0  0  0  0  0
    8.8056   -1.7921    0.0000 O   0  0  0  0  0  0  0  0  0  0  0  0
    9.8056   -0.0600    0.0000 O   0  0  0  0  0  0  0  0  0  0  0  0
    4.9755   -0.4260    0.0000 N   0  0  0  0  0  0  0  0  0  0  0  0
    8.4396   -0.4260    0.0000 N   0  0  3  0  0  0  0  0  0  0  0  0
   12.8499   -2.7308    0.0000 N   0  0  0  0  0  0  0  0  0  0  0  0
   14.4335   -1.9260    0.0000 N   0  0  0  0  0  0  0  0  0  0  0  0
   16.4335   -3.6581    0.0000 N   0  0  0  0  0  0  0  0  0  0  0  0
    3.3004    2.6618    0.0000 C   0  0  2  0  0  0  0  0  0  0  0  0
    3.6095    3.6128    0.0000 C   0  0  1  0  0  0  0  0  0  0  0  0
    4.1095    2.0740    0.0000 C   0  0  2  0  0  0  0  0  0  0  0  0
    2.3064    2.6643    0.0000 C   0  0  0  0  0  0  0  0  0  0  0  0
    4.9185    2.6618    0.0000 C   0  0  0  0  0  0  0  0  0  0  0  0
    2.0000    3.6100    0.0000 C   0  0  0  0  0  0  0  0  0  0  0  0
    5.8415   -0.9260    0.0000 C   0  0  2  0  0  0  0  0  0  0  0  0
    4.9755    0.5740    0.0000 C   0  0  0  0  0  0  0  0  0  0  0  0
    6.7075   -0.4260    0.0000 C   0  0  1  0  0  0  0  0  0  0  0  0
    7.5736   -0.9260    0.0000 C   0  0  0  0  0  0  0  0  0  0  0  0
    5.8415   -1.9260    0.0000 C   0  0  0  0  0  0  0  0  0  0  0  0
    8.4396    0.5740    0.0000 C   0  0  0  0  0  0  0  0  0  0  0  0
    9.3056    1.0740    0.0000 C   0  0  0  0  0  0  0  0  0  0  0  0
    4.9755   -2.4260    0.0000 C   0  0  0  0  0  0  0  0  0  0  0  0
   10.1716   -1.4260    0.0000 C   0  0  0  0  0  0  0  0  0  0  0  0
    9.3056    2.0740    0.0000 C   0  0  0  0  0  0  0  0  0  0  0  0
   10.1716    0.5740    0.0000 C   0  0  0  0  0  0  0  0  0  0  0  0
    4.1095   -1.9260    0.0000 C   0  0  0  0  0  0  0  0  0  0  0  0
    4.9755   -3.4260    0.0000 C   0  0  0  0  0  0  0  0  0  0  0  0
   11.0377   -0.9260    0.0000 C   0  0  0  0  0  0  0  0  0  0  0  0
   10.1716   -2.4260    0.0000 C   0  0  0  0  0  0  0  0  0  0  0  0
   11.9037   -1.4260    0.0000 C   0  0  0  0  0  0  0  0  0  0  0  0
    3.2434   -2.4260    0.0000 C   0  0  0  0  0  0  0  0  0  0  0  0
    4.1095   -3.9260    0.0000 C   0  0  0  0  0  0  0  0  0  0  0  0
   11.0377   -2.9260    0.0000 C   0  0  0  0  0  0  0  0  0  0  0  0
   11.9037   -2.4260    0.0000 C   0  0  0  0  0  0  0  0  0  0  0  0
    3.2434   -3.4260    0.0000 C   0  0  0  0  0  0  0  0  0  0  0  0
   13.4335   -1.9260    0.0000 C   0  0  0  0  0  0  0  0  0  0  0  0
   14.9335   -2.7921    0.0000 C   0  0  0  0  0  0  0  0  0  0  0  0
   15.9335   -2.7921    0.0000 C   0  0  0  0  0  0  0  0  0  0  0  0
    3.0367    1.8537    0.0000 H   0  0  0  0  0  0  0  0  0  0  0  0
    3.8711    4.4216    0.0000 H   0  0  0  0  0  0  0  0  0  0  0  0
    3.5570    1.7925    0.0000 H   0  0  0  0  0  0  0  0  0  0  0  0
    1.6997    2.5363    0.0000 H   0  0  0  0  0  0  0  0  0  0  0  0
    2.3699    2.0476    0.0000 H   0  0  0  0  0  0  0  0  0  0  0  0
    5.2285    2.1248    0.0000 H   0  0  0  0  0  0  0  0  0  0  0  0
    5.4849    2.9139    0.0000 H   0  0  0  0  0  0  0  0  0  0  0  0
    1.6898    4.1469    0.0000 H   0  0  0  0  0  0  0  0  0  0  0  0
    1.4335    3.3580    0.0000 H   0  0  0  0  0  0  0  0  0  0  0  0
    5.8415   -0.3060    0.0000 H   0  0  0  0  0  0  0  0  0  0  0  0
    7.2445   -0.1160    0.0000 H   0  0  0  0  0  0  0  0  0  0  0  0
    7.1750   -1.4010    0.0000 H   0  0  0  0  0  0  0  0  0  0  0  0
    7.9721   -1.4010    0.0000 H   0  0  0  0  0  0  0  0  0  0  0  0
    4.4386   -0.7360    0.0000 H   0  0  0  0  0  0  0  0  0  0  0  0
    6.0536   -2.5086    0.0000 H   0  0  0  0  0  0  0  0  0  0  0  0
    6.4521   -1.8184    0.0000 H   0  0  0  0  0  0  0  0  0  0  0  0
    8.2275    1.1566    0.0000 H   0  0  0  0  0  0  0  0  0  0  0  0
    7.8290    0.4663    0.0000 H   0  0  0  0  0  0  0  0  0  0  0  0
    8.7687    1.3840    0.0000 H   0  0  0  0  0  0  0  0  0  0  0  0
    7.2445    0.8840    0.0000 H   0  0  0  0  0  0  0  0  0  0  0  0
    9.9256    2.0740    0.0000 H   0  0  0  0  0  0  0  0  0  0  0  0
    9.3056    2.6940    0.0000 H   0  0  0  0  0  0  0  0  0  0  0  0
    8.6856    2.0740    0.0000 H   0  0  0  0  0  0  0  0  0  0  0  0
    9.8616    0.0370    0.0000 H   0  0  0  0  0  0  0  0  0  0  0  0
   10.7086    0.2640    0.0000 H   0  0  0  0  0  0  0  0  0  0  0  0
   10.4816    1.1109    0.0000 H   0  0  0  0  0  0  0  0  0  0  0  0
    4.1095   -1.3060    0.0000 H   0  0  0  0  0  0  0  0  0  0  0  0
    5.5124   -3.7360    0.0000 H   0  0  0  0  0  0  0  0  0  0  0  0
   11.0377   -0.3060    0.0000 H   0  0  0  0  0  0  0  0  0  0  0  0
    9.6347   -2.7360    0.0000 H   0  0  0  0  0  0  0  0  0  0  0  0
    2.7065   -2.1160    0.0000 H   0  0  0  0  0  0  0  0  0  0  0  0
    4.1095   -4.5460    0.0000 H   0  0  0  0  0  0  0  0  0  0  0  0
   11.0377   -3.5460    0.0000 H   0  0  0  0  0  0  0  0  0  0  0  0
    2.7065   -3.7360    0.0000 H   0  0  0  0  0  0  0  0  0  0  0  0
   14.7435   -1.3891    0.0000 H   0  0  0  0  0  0  0  0  0  0  0  0
   14.3509   -3.0041    0.0000 H   0  0  0  0  0  0  0  0  0  0  0  0
   15.0412   -3.4026    0.0000 H   0  0  0  0  0  0  0  0  0  0  0  0
   16.5161   -2.5800    0.0000 H   0  0  0  0  0  0  0  0  0  0  0  0
   15.8259   -2.1815    0.0000 H   0  0  0  0  0  0  0  0  0  0  0  0
   17.0535   -3.6581    0.0000 H   0  0  0  0  0  0  0  0  0  0  0  0
   16.1235   -4.1950    0.0000 H   0  0  0  0  0  0  0  0  0  0  0  0
  1  8  2  0  0  0  0
  1  9  2  0  0  0  0
  1 11  1  0  0  0  0
  1 29  1  0  0  0  0
  2 36  1  0  0  0  0
  2 42  1  0  0  0  0
  3 16  1  0  0  0  0
  3 19  1  0  0  0  0
  4 16  1  0  0  0  0
  4 20  1  0  0  0  0
 17  5  1  6  0  0  0
  5 22  1  0  0  0  0
 23  6  1  6  0  0  0
  6 64  1  0  0  0  0
  7 22  2  0  0  0  0
 21 10  1  6  0  0  0
 10 22  1  0  0  0  0
 10 58  1  0  0  0  0
 11 24  1  0  0  0  0
 11 26  1  0  0  0  0
 12 40  1  0  0  0  0
 12 42  2  0  0  0  0
 13 42  1  0  0  0  0
 13 43  1  0  0  0  0
 13 79  1  0  0  0  0
 14 44  1  0  0  0  0
 14 84  1  0  0  0  0
 14 85  1  0  0  0  0
 15 16  1  0  0  0  0
 15 17  1  0  0  0  0
 15 18  1  0  0  0  0
 15 45  1  1  0  0  0
 16 46  1  1  0  0  0
 17 19  1  0  0  0  0
 17 47  1  0  0  0  0
 18 20  1  0  0  0  0
 18 48  1  0  0  0  0
 18 49  1  0  0  0  0
 19 50  1  0  0  0  0
 19 51  1  0  0  0  0
 20 52  1  0  0  0  0
 20 53  1  0  0  0  0
 21 23  1  0  0  0  0
 21 25  1  0  0  0  0
 21 54  1  0  0  0  0
 23 24  1  0  0  0  0
 23 55  1  0  0  0  0
 24 56  1  0  0  0  0
 24 57  1  0  0  0  0
 25 28  1  0  0  0  0
 25 59  1  0  0  0  0
 25 60  1  0  0  0  0
 26 27  1  0  0  0  0
 26 61  1  0  0  0  0
 26 62  1  0  0  0  0
 27 30  1  0  0  0  0
 27 31  1  0  0  0  0
 27 63  1  0  0  0  0
 28 32  2  0  0  0  0
 28 33  1  0  0  0  0
 29 34  2  0  0  0  0
 29 35  1  0  0  0  0
 30 65  1  0  0  0  0
 30 66  1  0  0  0  0
 30 67  1  0  0  0  0
 31 68  1  0  0  0  0
 31 69  1  0  0  0  0
 31 70  1  0  0  0  0
 32 37  1  0  0  0  0
 32 71  1  0  0  0  0
 33 38  2  0  0  0  0
 33 72  1  0  0  0  0
 34 36  1  0  0  0  0
 34 73  1  0  0  0  0
 35 39  2  0  0  0  0
 35 74  1  0  0  0  0
 36 40  2  0  0  0  0
 37 41  2  0  0  0  0
 37 75  1  0  0  0  0
 38 41  1  0  0  0  0
 38 76  1  0  0  0  0
 39 40  1  0  0  0  0
 39 77  1  0  0  0  0
 41 78  1  0  0  0  0
 43 44  1  0  0  0  0
 43 80  1  0  0  0  0
 43 81  1  0  0  0  0
 44 82  1  0  0  0  0
 44 83  1  0  0  0  0
M  END
> <PUBCHEM_COMPOUND_CID>
509749
> <PUBCHEM_COMPOUND_CANONICALIZED>
1
> <PUBCHEM_CACTVS_COMPLEXITY>
1030
> <PUBCHEM_CACTVS_HBOND_ACCEPTOR>
12
> <PUBCHEM_CACTVS_HBOND_DONOR>
4
> <PUBCHEM_CACTVS_ROTATABLE_BOND>
15
> <PUBCHEM_CACTVS_SUBSKEYS>
AAADcfB7uABgAAAAAAAAAAAAAAAAAWJEgAAwYAAAAAASAFgB9AAAHgQQSAAADTzx3gcz2bLIFgqsAyRifHDD8LlhCjlJmLw4ZJmbcKLg2ZG+YAhtlgLeyCfQ4KgOAAQAAEAAAQAACAAAgAACAAAAAAAAAA==
> <PUBCHEM_IUPAC_OPENEYE_NAME>
[(3aS,4R,6aR)-2,3,3a,4,5,6a-hexahydrofuro[2,3-b]furan-4-yl] N-[(1S,2R)-3-[[2-(2-aminoethylamino)-1,3-benzothiazol-6-yl]sulfonyl-isobutyl-amino]-1-benzyl-2-hydroxy-propyl]carbamate
> <PUBCHEM_IUPAC_CAS_NAME>
N-[(2S,3R)-4-[[2-(2-aminoethylamino)-1,3-benzothiazol-6-yl]sulfonyl-(2-methylpropyl)amino]-3-hydroxy-1-phenylbutan-2-yl]carbamic acid [(3aS,4R,6aR)-2,3,3a,4,5,6a-hexahydrofuro[2,3-b]furan-4-yl] ester
> <PUBCHEM_IUPAC_NAME_MARKUP>
[(3<I>a</I><I>S</I>,4<I>R</I>,6<I>a</I><I>R</I>)-2,3,3<I>a</I>,4,5,6<I>a</I>-hexahydrofuro[2,3-b]furan-4-yl] <I>N</I>-[(2<I>S</I>,3<I>R</I>)-4-[[2-(2-aminoethylamino)-1,3-benzothiazol-6-yl]sulfonyl-(2-methylpropyl)amino]-3-hydroxy-1-phenylbutan-2-yl]carbamate
> <PUBCHEM_IUPAC_NAME>
[(3aS,4R,6aR)-2,3,3a,4,5,6a-hexahydrofuro[2,3-b]furan-4-yl] N-[(2S,3R)-4-[[2-(2-aminoethylamino)-1,3-benzothiazol-6-yl]sulfonyl-(2-methylpropyl)amino]-3-hydroxy-1-phenylbutan-2-yl]carbamate
> <PUBCHEM_IUPAC_SYSTEMATIC_NAME>
[(3aS,4R,6aR)-2,3,3a,4,5,6a-hexahydrofuro[2,3-b]furan-4-yl] N-[(2S,3R)-4-[[2-(2-azanylethylamino)-1,3-benzothiazol-6-yl]sulfonyl-(2-methylpropyl)amino]-3-oxidanyl-1-phenyl-butan-2-yl]carbamate
> <PUBCHEM_IUPAC_TRADITIONAL_NAME>
N-[(1S,2R)-3-[[2-(2-aminoethylamino)-1,3-benzothiazol-6-yl]sulfonyl-isobutyl-amino]-1-benzyl-2-hydroxy-propyl]carbamic acid [(3aS,4R,6aR)-2,3,3a,4,5,6a-hexahydrofuro[2,3-b]furan-4-yl] ester
> <PUBCHEM_IUPAC_INCHI>
InChI=1S/C30H41N5O7S2/c1-19(2)16-35(44(38,39)21-8-9-23-27(15-21)43-29(33-23)32-12-11-31)17-25(36)24(14-20-6-4-3-5-7-20)34-30(37)42-26-18-41-28-22(26)10-13-40-28/h3-9,15,19,22,24-26,28,36H,10-14,16-18,31H2,1-2H3,(H,32,33)(H,34,37)/t22-,24-,25+,26-,28+/m0/s1
> <PUBCHEM_IUPAC_INCHIKEY>
PVNNQFPDKHSVJZ-FKAUUQQGSA-N
> <PUBCHEM_XLOGP3_AA>
3.5
> <PUBCHEM_EXACT_MASS>
647.24474101
> <PUBCHEM_MOLECULAR_FORMULA>
C30H41N5O7S2
> <PUBCHEM_MOLECULAR_WEIGHT>
647.8
> <PUBCHEM_OPENEYE_CAN_SMILES>
CC(C)CN(CC(C(CC1=CC=CC=C1)NC(=O)OC2COC3C2CCO3)O)S(=O)(=O)C4=CC5=C(C=C4)N=C(S5)NCCN
> <PUBCHEM_OPENEYE_ISO_SMILES>
CC(C)CN(C[C@H]([C@H](CC1=CC=CC=C1)NC(=O)O[C@H]2CO[C@@H]3[C@H]2CCO3)O)S(=O)(=O)C4=CC5=C(C=C4)N=C(S5)NCCN
> <PUBCHEM_CACTVS_TPSA>
202
> <PUBCHEM_MONOISOTOPIC_WEIGHT>
647.24474101
> <PUBCHEM_TOTAL_CHARGE>
0
> <PUBCHEM_HEAVY_ATOM_COUNT>
44
> <PUBCHEM_ATOM_DEF_STEREO_COUNT>
5
> <PUBCHEM_ATOM_UDEF_STEREO_COUNT>
0
> <PUBCHEM_BOND_DEF_STEREO_COUNT>
0
> <PUBCHEM_BOND_UDEF_STEREO_COUNT>
0
> <PUBCHEM_ISOTOPIC_ATOM_COUNT>
0
> <PUBCHEM_COMPONENT_COUNT>
1
> <PUBCHEM_CACTVS_TAUTO_COUNT>
-1
> <PUBCHEM_COORDINATE_TYPE>
1
5
255
> <PUBCHEM_BONDANNOTATIONS>
21  10  6
12  40  8
12  42  8
15  45  5
16  46  5
2  36  8
2  42  8
28  32  8
28  33  8
29  34  8
29  35  8
32  37  8
33  38  8
34  36  8
35  39  8
36  40  8
37  41  8
38  41  8
39  40  8
17  5  6
23  6  6
$$$$
