509731
  -OEChem-10302200282D
 87 91  0     1  0  0  0  0  0999 V2000
    9.6448   -0.8512    0.0000 S   0  0  0  0  0  0  0  0  0  0  0  0
   13.1891   -1.0465    0.0000 S   0  0  0  0  0  0  0  0  0  0  0  0
    3.4782    3.6433    0.0000 S   0  0  0  0  0  0  0  0  0  0  0  0
    7.0468    0.6488    0.0000 O   0  0  0  0  0  0  0  0  0  0  0  0
   14.7728   -3.5833    0.0000 O   0  0  0  0  0  0  0  0  0  0  0  0
    9.1448   -1.7172    0.0000 O   0  0  0  0  0  0  0  0  0  0  0  0
   10.1449    0.0148    0.0000 O   0  0  0  0  0  0  0  0  0  0  0  0
    4.4487    1.1488    0.0000 O   0  0  0  0  0  0  0  0  0  0  0  0
    6.1808    1.1488    0.0000 O   0  0  0  0  0  0  0  0  0  0  0  0
   16.8605   -1.9082    0.0000 N   0  0  3  0  0  0  0  0  0  0  0  0
    8.7788   -0.3512    0.0000 N   0  0  3  0  0  0  0  0  0  0  0  0
   14.7728   -1.8512    0.0000 N   0  0  0  0  0  0  0  0  0  0  0  0
    5.3147   -0.3512    0.0000 N   0  0  0  0  0  0  0  0  0  0  0  0
   13.1891   -2.6559    0.0000 N   0  0  0  0  0  0  0  0  0  0  0  0
    2.0000    2.9852    0.0000 N   0  0  0  0  0  0  0  0  0  0  0  0
   16.2728   -2.7172    0.0000 C   0  0  1  0  0  0  0  0  0  0  0  0
   16.8605   -3.5263    0.0000 C   0  0  0  0  0  0  0  0  0  0  0  0
   17.8116   -3.2172    0.0000 C   0  0  0  0  0  0  0  0  0  0  0  0
   17.8116   -2.2172    0.0000 C   0  0  0  0  0  0  0  0  0  0  0  0
    7.0468   -0.3512    0.0000 C   0  0  2  0  0  0  0  0  0  0  0  0
    7.9128   -0.8512    0.0000 C   0  0  0  0  0  0  0  0  0  0  0  0
    6.1808   -0.8512    0.0000 C   0  0  2  0  0  0  0  0  0  0  0  0
    8.7788    0.6488    0.0000 C   0  0  0  0  0  0  0  0  0  0  0  0
   15.2728   -2.7172    0.0000 C   0  0  0  0  0  0  0  0  0  0  0  0
   16.5515   -0.9572    0.0000 C   0  0  0  0  0  0  0  0  0  0  0  0
    9.6448    1.1488    0.0000 C   0  0  0  0  0  0  0  0  0  0  0  0
    6.1808   -1.8512    0.0000 C   0  0  0  0  0  0  0  0  0  0  0  0
   10.5109   -1.3512    0.0000 C   0  0  0  0  0  0  0  0  0  0  0  0
    9.6448    2.1488    0.0000 C   0  0  0  0  0  0  0  0  0  0  0  0
   10.5109    0.6488    0.0000 C   0  0  0  0  0  0  0  0  0  0  0  0
    5.3147   -2.3512    0.0000 C   0  0  0  0  0  0  0  0  0  0  0  0
   11.3769   -0.8512    0.0000 C   0  0  0  0  0  0  0  0  0  0  0  0
   13.7728   -1.8512    0.0000 C   0  0  0  0  0  0  0  0  0  0  0  0
   12.2429   -1.3512    0.0000 C   0  0  0  0  0  0  0  0  0  0  0  0
   10.5109   -2.3512    0.0000 C   0  0  0  0  0  0  0  0  0  0  0  0
   12.2429   -2.3512    0.0000 C   0  0  0  0  0  0  0  0  0  0  0  0
   11.3769   -2.8512    0.0000 C   0  0  0  0  0  0  0  0  0  0  0  0
    5.3147    0.6488    0.0000 C   0  0  0  0  0  0  0  0  0  0  0  0
    5.3147   -3.3512    0.0000 C   0  0  0  0  0  0  0  0  0  0  0  0
    4.4487   -1.8512    0.0000 C   0  0  0  0  0  0  0  0  0  0  0  0
    4.4487   -3.8512    0.0000 C   0  0  0  0  0  0  0  0  0  0  0  0
    3.5827   -2.3512    0.0000 C   0  0  0  0  0  0  0  0  0  0  0  0
    3.5827   -3.3512    0.0000 C   0  0  0  0  0  0  0  0  0  0  0  0
    4.4487    2.1488    0.0000 C   0  0  0  0  0  0  0  0  0  0  0  0
    3.5827    2.6488    0.0000 C   0  0  0  0  0  0  0  0  0  0  0  0
    2.6691    2.2420    0.0000 C   0  0  0  0  0  0  0  0  0  0  0  0
    2.5000    3.8512    0.0000 C   0  0  0  0  0  0  0  0  0  0  0  0
   15.9913   -2.1648    0.0000 H   0  0  0  0  0  0  0  0  0  0  0  0
   16.3236   -3.8363    0.0000 H   0  0  0  0  0  0  0  0  0  0  0  0
   17.1127   -4.0927    0.0000 H   0  0  0  0  0  0  0  0  0  0  0  0
   17.9405   -3.8237    0.0000 H   0  0  0  0  0  0  0  0  0  0  0  0
   18.4282   -3.1524    0.0000 H   0  0  0  0  0  0  0  0  0  0  0  0
   18.4282   -2.2820    0.0000 H   0  0  0  0  0  0  0  0  0  0  0  0
   17.9405   -1.6108    0.0000 H   0  0  0  0  0  0  0  0  0  0  0  0
    7.5837   -0.0412    0.0000 H   0  0  0  0  0  0  0  0  0  0  0  0
    7.5143   -1.3262    0.0000 H   0  0  0  0  0  0  0  0  0  0  0  0
    8.3113   -1.3262    0.0000 H   0  0  0  0  0  0  0  0  0  0  0  0
    6.1808   -0.2312    0.0000 H   0  0  0  0  0  0  0  0  0  0  0  0
    8.5668    1.2314    0.0000 H   0  0  0  0  0  0  0  0  0  0  0  0
    8.1682    0.5411    0.0000 H   0  0  0  0  0  0  0  0  0  0  0  0
   17.1412   -0.7656    0.0000 H   0  0  0  0  0  0  0  0  0  0  0  0
   16.3599   -0.3675    0.0000 H   0  0  0  0  0  0  0  0  0  0  0  0
   15.9619   -1.1488    0.0000 H   0  0  0  0  0  0  0  0  0  0  0  0
    9.1079    1.4588    0.0000 H   0  0  0  0  0  0  0  0  0  0  0  0
    6.3928   -2.4338    0.0000 H   0  0  0  0  0  0  0  0  0  0  0  0
    6.7913   -1.7436    0.0000 H   0  0  0  0  0  0  0  0  0  0  0  0
    4.7778   -0.6612    0.0000 H   0  0  0  0  0  0  0  0  0  0  0  0
   15.0828   -1.3143    0.0000 H   0  0  0  0  0  0  0  0  0  0  0  0
   10.2649    2.1488    0.0000 H   0  0  0  0  0  0  0  0  0  0  0  0
    9.6448    2.7688    0.0000 H   0  0  0  0  0  0  0  0  0  0  0  0
    9.0248    2.1488    0.0000 H   0  0  0  0  0  0  0  0  0  0  0  0
   10.2009    0.1118    0.0000 H   0  0  0  0  0  0  0  0  0  0  0  0
   11.0478    0.3388    0.0000 H   0  0  0  0  0  0  0  0  0  0  0  0
   10.8209    1.1857    0.0000 H   0  0  0  0  0  0  0  0  0  0  0  0
    7.5837    0.9588    0.0000 H   0  0  0  0  0  0  0  0  0  0  0  0
   11.3769   -0.2312    0.0000 H   0  0  0  0  0  0  0  0  0  0  0  0
    9.9739   -2.6612    0.0000 H   0  0  0  0  0  0  0  0  0  0  0  0
   11.3769   -3.4712    0.0000 H   0  0  0  0  0  0  0  0  0  0  0  0
    5.8517   -3.6612    0.0000 H   0  0  0  0  0  0  0  0  0  0  0  0
    4.4487   -1.2312    0.0000 H   0  0  0  0  0  0  0  0  0  0  0  0
    4.4487   -4.4712    0.0000 H   0  0  0  0  0  0  0  0  0  0  0  0
    3.0457   -2.0412    0.0000 H   0  0  0  0  0  0  0  0  0  0  0  0
    3.0457   -3.6612    0.0000 H   0  0  0  0  0  0  0  0  0  0  0  0
    5.0593    2.0411    0.0000 H   0  0  0  0  0  0  0  0  0  0  0  0
    4.6608    2.7314    0.0000 H   0  0  0  0  0  0  0  0  0  0  0  0
    2.5402    1.6356    0.0000 H   0  0  0  0  0  0  0  0  0  0  0  0
    2.2478    4.4176    0.0000 H   0  0  0  0  0  0  0  0  0  0  0  0
  1  6  2  0  0  0  0
  1  7  2  0  0  0  0
  1 11  1  0  0  0  0
  1 28  1  0  0  0  0
  2 33  1  0  0  0  0
  2 34  1  0  0  0  0
  3 45  1  0  0  0  0
  3 47  1  0  0  0  0
 20  4  1  6  0  0  0
  4 75  1  0  0  0  0
  5 24  2  0  0  0  0
  8 38  1  0  0  0  0
  8 44  1  0  0  0  0
  9 38  2  0  0  0  0
 10 16  1  0  0  0  0
 10 19  1  0  0  0  0
 10 25  1  0  0  0  0
 11 21  1  0  0  0  0
 11 23  1  0  0  0  0
 12 24  1  0  0  0  0
 12 33  1  0  0  0  0
 12 68  1  0  0  0  0
 22 13  1  6  0  0  0
 13 38  1  0  0  0  0
 13 67  1  0  0  0  0
 14 33  2  0  0  0  0
 14 36  1  0  0  0  0
 15 46  1  0  0  0  0
 15 47  2  0  0  0  0
 16 17  1  0  0  0  0
 16 24  1  1  0  0  0
 16 48  1  0  0  0  0
 17 18  1  0  0  0  0
 17 49  1  0  0  0  0
 17 50  1  0  0  0  0
 18 19  1  0  0  0  0
 18 51  1  0  0  0  0
 18 52  1  0  0  0  0
 19 53  1  0  0  0  0
 19 54  1  0  0  0  0
 20 21  1  0  0  0  0
 20 22  1  0  0  0  0
 20 55  1  0  0  0  0
 21 56  1  0  0  0  0
 21 57  1  0  0  0  0
 22 27  1  0  0  0  0
 22 58  1  0  0  0  0
 23 26  1  0  0  0  0
 23 59  1  0  0  0  0
 23 60  1  0  0  0  0
 25 61  1  0  0  0  0
 25 62  1  0  0  0  0
 25 63  1  0  0  0  0
 26 29  1  0  0  0  0
 26 30  1  0  0  0  0
 26 64  1  0  0  0  0
 27 31  1  0  0  0  0
 27 65  1  0  0  0  0
 27 66  1  0  0  0  0
 28 32  2  0  0  0  0
 28 35  1  0  0  0  0
 29 69  1  0  0  0  0
 29 70  1  0  0  0  0
 29 71  1  0  0  0  0
 30 72  1  0  0  0  0
 30 73  1  0  0  0  0
 30 74  1  0  0  0  0
 31 39  2  0  0  0  0
 31 40  1  0  0  0  0
 32 34  1  0  0  0  0
 32 76  1  0  0  0  0
 34 36  2  0  0  0  0
 35 37  2  0  0  0  0
 35 77  1  0  0  0  0
 36 37  1  0  0  0  0
 37 78  1  0  0  0  0
 39 41  1  0  0  0  0
 39 79  1  0  0  0  0
 40 42  2  0  0  0  0
 40 80  1  0  0  0  0
 41 43  2  0  0  0  0
 41 81  1  0  0  0  0
 42 43  1  0  0  0  0
 42 82  1  0  0  0  0
 43 83  1  0  0  0  0
 44 45  1  0  0  0  0
 44 84  1  0  0  0  0
 44 85  1  0  0  0  0
 45 46  2  0  0  0  0
 46 86  1  0  0  0  0
 47 87  1  0  0  0  0
M  END
> <PUBCHEM_COMPOUND_CID>
509731
> <PUBCHEM_COMPOUND_CANONICALIZED>
1
> <PUBCHEM_CACTVS_COMPLEXITY>
1140
> <PUBCHEM_CACTVS_HBOND_ACCEPTOR>
12
> <PUBCHEM_CACTVS_HBOND_DONOR>
3
> <PUBCHEM_CACTVS_ROTATABLE_BOND>
15
> <PUBCHEM_CACTVS_SUBSKEYS>
AAADcfB/uABgAAAAAAAAAAAAAAAAAWLFgAAwYAAAAAAAAFgB/AAAHgQQSAAADTzh3ga/2bPIFgqsAzV3fHDD8LlxCjlJ2L24bJmKdLLg+bmcYAhulwLY6CeYwaAOAAQAAEAAAQAACAAAgAACAAAAAAAAAA==
> <PUBCHEM_IUPAC_OPENEYE_NAME>
thiazol-5-ylmethyl N-[(1S,2R)-1-benzyl-2-hydroxy-3-[isobutyl-[[2-[[(2S)-1-methylpyrrolidine-2-carbonyl]amino]-1,3-benzothiazol-6-yl]sulfonyl]amino]propyl]carbamate
> <PUBCHEM_IUPAC_CAS_NAME>
N-[(2S,3R)-3-hydroxy-4-[2-methylpropyl-[[2-[[[(2S)-1-methyl-2-pyrrolidinyl]-oxomethyl]amino]-1,3-benzothiazol-6-yl]sulfonyl]amino]-1-phenylbutan-2-yl]carbamic acid 5-thiazolylmethyl ester
> <PUBCHEM_IUPAC_NAME_MARKUP>
1,3-thiazol-5-ylmethyl <I>N</I>-[(2<I>S</I>,3<I>R</I>)-3-hydroxy-4-[2-methylpropyl-[[2-[[(2<I>S</I>)-1-methylpyrrolidine-2-carbonyl]amino]-1,3-benzothiazol-6-yl]sulfonyl]amino]-1-phenylbutan-2-yl]carbamate
> <PUBCHEM_IUPAC_NAME>
1,3-thiazol-5-ylmethyl N-[(2S,3R)-3-hydroxy-4-[2-methylpropyl-[[2-[[(2S)-1-methylpyrrolidine-2-carbonyl]amino]-1,3-benzothiazol-6-yl]sulfonyl]amino]-1-phenylbutan-2-yl]carbamate
> <PUBCHEM_IUPAC_SYSTEMATIC_NAME>
1,3-thiazol-5-ylmethyl N-[(2S,3R)-4-[2-methylpropyl-[[2-[[(2S)-1-methylpyrrolidin-2-yl]carbonylamino]-1,3-benzothiazol-6-yl]sulfonyl]amino]-3-oxidanyl-1-phenyl-butan-2-yl]carbamate
> <PUBCHEM_IUPAC_TRADITIONAL_NAME>
N-[(1S,2R)-1-benzyl-2-hydroxy-3-[isobutyl-[[2-[[(2S)-1-methylprolyl]amino]-1,3-benzothiazol-6-yl]sulfonyl]amino]propyl]carbamic acid thiazol-5-ylmethyl ester
> <PUBCHEM_IUPAC_INCHI>
InChI=1S/C32H40N6O6S3/c1-21(2)17-38(18-28(39)26(14-22-8-5-4-6-9-22)35-32(41)44-19-23-16-33-20-45-23)47(42,43)24-11-12-25-29(15-24)46-31(34-25)36-30(40)27-10-7-13-37(27)3/h4-6,8-9,11-12,15-16,20-21,26-28,39H,7,10,13-14,17-19H2,1-3H3,(H,35,41)(H,34,36,40)/t26-,27-,28+/m0/s1
> <PUBCHEM_IUPAC_INCHIKEY>
PHUSWSHIBIBQRT-HZFUHODCSA-N
> <PUBCHEM_XLOGP3_AA>
4.6
> <PUBCHEM_EXACT_MASS>
700.21714654
> <PUBCHEM_MOLECULAR_FORMULA>
C32H40N6O6S3
> <PUBCHEM_MOLECULAR_WEIGHT>
700.9
> <PUBCHEM_OPENEYE_CAN_SMILES>
CC(C)CN(CC(C(CC1=CC=CC=C1)NC(=O)OCC2=CN=CS2)O)S(=O)(=O)C3=CC4=C(C=C3)N=C(S4)NC(=O)C5CCCN5C
> <PUBCHEM_OPENEYE_ISO_SMILES>
CC(C)CN(C[C@H]([C@H](CC1=CC=CC=C1)NC(=O)OCC2=CN=CS2)O)S(=O)(=O)C3=CC4=C(C=C3)N=C(S4)NC(=O)[C@@H]5CCCN5C
> <PUBCHEM_CACTVS_TPSA>
219
> <PUBCHEM_MONOISOTOPIC_WEIGHT>
700.21714654
> <PUBCHEM_TOTAL_CHARGE>
0
> <PUBCHEM_HEAVY_ATOM_COUNT>
47
> <PUBCHEM_ATOM_DEF_STEREO_COUNT>
3
> <PUBCHEM_ATOM_UDEF_STEREO_COUNT>
0
> <PUBCHEM_BOND_DEF_STEREO_COUNT>
0
> <PUBCHEM_BOND_UDEF_STEREO_COUNT>
0
> <PUBCHEM_ISOTOPIC_ATOM_COUNT>
0
> <PUBCHEM_COMPONENT_COUNT>
1
> <PUBCHEM_CACTVS_TAUTO_COUNT>
-1
> <PUBCHEM_COORDINATE_TYPE>
1
5
255
> <PUBCHEM_BONDANNOTATIONS>
22  13  6
14  33  8
14  36  8
15  46  8
15  47  8
16  24  5
2  33  8
2  34  8
28  32  8
28  35  8
3  45  8
3  47  8
31  39  8
31  40  8
32  34  8
34  36  8
35  37  8
36  37  8
39  41  8
20  4  6
40  42  8
41  43  8
42  43  8
45  46  8
$$$$
