509722
  -OEChem-10302200282D
 89 93  0     1  0  0  0  0  0999 V2000
    9.6448    0.1493    0.0000 S   0  0  0  0  0  0  0  0  0  0  0  0
   13.1891   -0.0460    0.0000 S   0  0  0  0  0  0  0  0  0  0  0  0
    3.4782    4.6438    0.0000 S   0  0  0  0  0  0  0  0  0  0  0  0
    7.0468    1.6493    0.0000 O   0  0  0  0  0  0  0  0  0  0  0  0
    9.1448   -0.7167    0.0000 O   0  0  0  0  0  0  0  0  0  0  0  0
   10.1449    1.0153    0.0000 O   0  0  0  0  0  0  0  0  0  0  0  0
    4.4487    2.1493    0.0000 O   0  0  0  0  0  0  0  0  0  0  0  0
    6.1808    2.1493    0.0000 O   0  0  0  0  0  0  0  0  0  0  0  0
   14.7728   -2.5828    0.0000 O   0  0  0  0  0  0  0  0  0  0  0  0
    8.7788    0.6493    0.0000 N   0  0  3  0  0  0  0  0  0  0  0  0
    5.3147    0.6493    0.0000 N   0  0  0  0  0  0  0  0  0  0  0  0
   16.7728   -2.5828    0.0000 N   0  0  0  0  0  0  0  0  0  0  0  0
   17.7728   -4.3148    0.0000 N   0  0  0  0  0  0  0  0  0  0  0  0
   14.7728   -0.8507    0.0000 N   0  0  0  0  0  0  0  0  0  0  0  0
   13.1891   -1.6554    0.0000 N   0  0  0  0  0  0  0  0  0  0  0  0
    2.0000    3.9857    0.0000 N   0  0  0  0  0  0  0  0  0  0  0  0
    7.0468    0.6493    0.0000 C   0  0  2  0  0  0  0  0  0  0  0  0
    7.9128    0.1493    0.0000 C   0  0  0  0  0  0  0  0  0  0  0  0
    6.1808    0.1493    0.0000 C   0  0  2  0  0  0  0  0  0  0  0  0
    8.7788    1.6493    0.0000 C   0  0  0  0  0  0  0  0  0  0  0  0
    9.6448    2.1493    0.0000 C   0  0  0  0  0  0  0  0  0  0  0  0
    6.1808   -0.8507    0.0000 C   0  0  0  0  0  0  0  0  0  0  0  0
   10.5109   -0.3507    0.0000 C   0  0  0  0  0  0  0  0  0  0  0  0
    9.6448    3.1493    0.0000 C   0  0  0  0  0  0  0  0  0  0  0  0
   10.5109    1.6493    0.0000 C   0  0  0  0  0  0  0  0  0  0  0  0
    5.3147   -1.3507    0.0000 C   0  0  0  0  0  0  0  0  0  0  0  0
   16.2728   -3.4488    0.0000 C   0  0  0  0  0  0  0  0  0  0  0  0
   17.7728   -2.5828    0.0000 C   0  0  0  0  0  0  0  0  0  0  0  0
   16.7728   -4.3148    0.0000 C   0  0  0  0  0  0  0  0  0  0  0  0
   18.2728   -3.4488    0.0000 C   0  0  0  0  0  0  0  0  0  0  0  0
   11.3769    0.1493    0.0000 C   0  0  0  0  0  0  0  0  0  0  0  0
   16.2728   -1.7167    0.0000 C   0  0  0  0  0  0  0  0  0  0  0  0
   10.5109   -1.3507    0.0000 C   0  0  0  0  0  0  0  0  0  0  0  0
    5.3147    1.6493    0.0000 C   0  0  0  0  0  0  0  0  0  0  0  0
   12.2429   -0.3507    0.0000 C   0  0  0  0  0  0  0  0  0  0  0  0
    5.3147   -2.3507    0.0000 C   0  0  0  0  0  0  0  0  0  0  0  0
    4.4487   -0.8507    0.0000 C   0  0  0  0  0  0  0  0  0  0  0  0
   12.2429   -1.3507    0.0000 C   0  0  0  0  0  0  0  0  0  0  0  0
   11.3769   -1.8507    0.0000 C   0  0  0  0  0  0  0  0  0  0  0  0
   15.2728   -1.7167    0.0000 C   0  0  0  0  0  0  0  0  0  0  0  0
   13.7728   -0.8507    0.0000 C   0  0  0  0  0  0  0  0  0  0  0  0
    4.4487   -2.8507    0.0000 C   0  0  0  0  0  0  0  0  0  0  0  0
    3.5827   -1.3507    0.0000 C   0  0  0  0  0  0  0  0  0  0  0  0
    3.5827   -2.3507    0.0000 C   0  0  0  0  0  0  0  0  0  0  0  0
    4.4487    3.1493    0.0000 C   0  0  0  0  0  0  0  0  0  0  0  0
    3.5827    3.6493    0.0000 C   0  0  0  0  0  0  0  0  0  0  0  0
    2.6691    3.2426    0.0000 C   0  0  0  0  0  0  0  0  0  0  0  0
    2.5000    4.8517    0.0000 C   0  0  0  0  0  0  0  0  0  0  0  0
    7.5837    0.9593    0.0000 H   0  0  0  0  0  0  0  0  0  0  0  0
    7.5143   -0.3256    0.0000 H   0  0  0  0  0  0  0  0  0  0  0  0
    8.3113   -0.3256    0.0000 H   0  0  0  0  0  0  0  0  0  0  0  0
    6.1808    0.7693    0.0000 H   0  0  0  0  0  0  0  0  0  0  0  0
    8.5668    2.2319    0.0000 H   0  0  0  0  0  0  0  0  0  0  0  0
    8.1682    1.5416    0.0000 H   0  0  0  0  0  0  0  0  0  0  0  0
    9.1079    2.4593    0.0000 H   0  0  0  0  0  0  0  0  0  0  0  0
    6.3928   -1.4333    0.0000 H   0  0  0  0  0  0  0  0  0  0  0  0
    6.7913   -0.7430    0.0000 H   0  0  0  0  0  0  0  0  0  0  0  0
    4.7778    0.3393    0.0000 H   0  0  0  0  0  0  0  0  0  0  0  0
   10.2649    3.1493    0.0000 H   0  0  0  0  0  0  0  0  0  0  0  0
    9.6448    3.7693    0.0000 H   0  0  0  0  0  0  0  0  0  0  0  0
    9.0248    3.1493    0.0000 H   0  0  0  0  0  0  0  0  0  0  0  0
   10.2009    1.1124    0.0000 H   0  0  0  0  0  0  0  0  0  0  0  0
   11.0478    1.3393    0.0000 H   0  0  0  0  0  0  0  0  0  0  0  0
   10.8209    2.1862    0.0000 H   0  0  0  0  0  0  0  0  0  0  0  0
    7.5837    1.9593    0.0000 H   0  0  0  0  0  0  0  0  0  0  0  0
   15.7978   -3.0502    0.0000 H   0  0  0  0  0  0  0  0  0  0  0  0
   15.7978   -3.8473    0.0000 H   0  0  0  0  0  0  0  0  0  0  0  0
   18.3554   -2.3707    0.0000 H   0  0  0  0  0  0  0  0  0  0  0  0
   17.6651   -1.9722    0.0000 H   0  0  0  0  0  0  0  0  0  0  0  0
   16.1901   -4.5268    0.0000 H   0  0  0  0  0  0  0  0  0  0  0  0
   16.8804   -4.9254    0.0000 H   0  0  0  0  0  0  0  0  0  0  0  0
   18.7477   -3.8473    0.0000 H   0  0  0  0  0  0  0  0  0  0  0  0
   18.7477   -3.0502    0.0000 H   0  0  0  0  0  0  0  0  0  0  0  0
   11.3769    0.7693    0.0000 H   0  0  0  0  0  0  0  0  0  0  0  0
   16.8554   -1.5047    0.0000 H   0  0  0  0  0  0  0  0  0  0  0  0
   16.1651   -1.1061    0.0000 H   0  0  0  0  0  0  0  0  0  0  0  0
    9.9739   -1.6607    0.0000 H   0  0  0  0  0  0  0  0  0  0  0  0
   18.0828   -4.8517    0.0000 H   0  0  0  0  0  0  0  0  0  0  0  0
    5.8517   -2.6607    0.0000 H   0  0  0  0  0  0  0  0  0  0  0  0
    4.4487   -0.2307    0.0000 H   0  0  0  0  0  0  0  0  0  0  0  0
   11.3769   -2.4707    0.0000 H   0  0  0  0  0  0  0  0  0  0  0  0
    4.4487   -3.4707    0.0000 H   0  0  0  0  0  0  0  0  0  0  0  0
    3.0457   -1.0407    0.0000 H   0  0  0  0  0  0  0  0  0  0  0  0
   15.0828   -0.3138    0.0000 H   0  0  0  0  0  0  0  0  0  0  0  0
    3.0457   -2.6607    0.0000 H   0  0  0  0  0  0  0  0  0  0  0  0
    5.0593    3.0416    0.0000 H   0  0  0  0  0  0  0  0  0  0  0  0
    4.6608    3.7319    0.0000 H   0  0  0  0  0  0  0  0  0  0  0  0
    2.5402    2.6361    0.0000 H   0  0  0  0  0  0  0  0  0  0  0  0
    2.2478    5.4181    0.0000 H   0  0  0  0  0  0  0  0  0  0  0  0
  1  5  2  0  0  0  0
  1  6  2  0  0  0  0
  1 10  1  0  0  0  0
  1 23  1  0  0  0  0
  2 35  1  0  0  0  0
  2 41  1  0  0  0  0
  3 46  1  0  0  0  0
  3 48  1  0  0  0  0
 17  4  1  6  0  0  0
  4 65  1  0  0  0  0
  7 34  1  0  0  0  0
  7 45  1  0  0  0  0
  8 34  2  0  0  0  0
  9 40  2  0  0  0  0
 10 18  1  0  0  0  0
 10 20  1  0  0  0  0
 19 11  1  6  0  0  0
 11 34  1  0  0  0  0
 11 58  1  0  0  0  0
 12 27  1  0  0  0  0
 12 28  1  0  0  0  0
 12 32  1  0  0  0  0
 13 29  1  0  0  0  0
 13 30  1  0  0  0  0
 13 78  1  0  0  0  0
 14 40  1  0  0  0  0
 14 41  1  0  0  0  0
 14 84  1  0  0  0  0
 15 38  1  0  0  0  0
 15 41  2  0  0  0  0
 16 47  1  0  0  0  0
 16 48  2  0  0  0  0
 17 18  1  0  0  0  0
 17 19  1  0  0  0  0
 17 49  1  0  0  0  0
 18 50  1  0  0  0  0
 18 51  1  0  0  0  0
 19 22  1  0  0  0  0
 19 52  1  0  0  0  0
 20 21  1  0  0  0  0
 20 53  1  0  0  0  0
 20 54  1  0  0  0  0
 21 24  1  0  0  0  0
 21 25  1  0  0  0  0
 21 55  1  0  0  0  0
 22 26  1  0  0  0  0
 22 56  1  0  0  0  0
 22 57  1  0  0  0  0
 23 31  2  0  0  0  0
 23 33  1  0  0  0  0
 24 59  1  0  0  0  0
 24 60  1  0  0  0  0
 24 61  1  0  0  0  0
 25 62  1  0  0  0  0
 25 63  1  0  0  0  0
 25 64  1  0  0  0  0
 26 36  2  0  0  0  0
 26 37  1  0  0  0  0
 27 29  1  0  0  0  0
 27 66  1  0  0  0  0
 27 67  1  0  0  0  0
 28 30  1  0  0  0  0
 28 68  1  0  0  0  0
 28 69  1  0  0  0  0
 29 70  1  0  0  0  0
 29 71  1  0  0  0  0
 30 72  1  0  0  0  0
 30 73  1  0  0  0  0
 31 35  1  0  0  0  0
 31 74  1  0  0  0  0
 32 40  1  0  0  0  0
 32 75  1  0  0  0  0
 32 76  1  0  0  0  0
 33 39  2  0  0  0  0
 33 77  1  0  0  0  0
 35 38  2  0  0  0  0
 36 42  1  0  0  0  0
 36 79  1  0  0  0  0
 37 43  2  0  0  0  0
 37 80  1  0  0  0  0
 38 39  1  0  0  0  0
 39 81  1  0  0  0  0
 42 44  2  0  0  0  0
 42 82  1  0  0  0  0
 43 44  1  0  0  0  0
 43 83  1  0  0  0  0
 44 85  1  0  0  0  0
 45 46  1  0  0  0  0
 45 86  1  0  0  0  0
 45 87  1  0  0  0  0
 46 47  2  0  0  0  0
 47 88  1  0  0  0  0
 48 89  1  0  0  0  0
M  END
> <PUBCHEM_COMPOUND_CID>
509722
> <PUBCHEM_COMPOUND_CANONICALIZED>
1
> <PUBCHEM_CACTVS_COMPLEXITY>
1140
> <PUBCHEM_CACTVS_HBOND_ACCEPTOR>
13
> <PUBCHEM_CACTVS_HBOND_DONOR>
4
> <PUBCHEM_CACTVS_ROTATABLE_BOND>
16
> <PUBCHEM_CACTVS_SUBSKEYS>
AAADcfB/uABgAAAAAAAAAAAAAAAAAWLAAAA8YIAAAAAAAFgB/AAAHgQQSAAADTzh3ga/2bPIFgqsAzV3fHDD8LlxCjlJ2Ly4bJmKdKLg+bmcYAhulwLY6CeQwKAOAAQAAEAAAQAACAAAgAACAAAAAAAAAA==
> <PUBCHEM_IUPAC_OPENEYE_NAME>
thiazol-5-ylmethyl N-[(1S,2R)-1-benzyl-2-hydroxy-3-[isobutyl-[[2-[(2-piperazin-1-ylacetyl)amino]-1,3-benzothiazol-6-yl]sulfonyl]amino]propyl]carbamate
> <PUBCHEM_IUPAC_CAS_NAME>
N-[(2S,3R)-3-hydroxy-4-[2-methylpropyl-[[2-[[1-oxo-2-(1-piperazinyl)ethyl]amino]-1,3-benzothiazol-6-yl]sulfonyl]amino]-1-phenylbutan-2-yl]carbamic acid 5-thiazolylmethyl ester
> <PUBCHEM_IUPAC_NAME_MARKUP>
1,3-thiazol-5-ylmethyl <I>N</I>-[(2<I>S</I>,3<I>R</I>)-3-hydroxy-4-[2-methylpropyl-[[2-[(2-piperazin-1-ylacetyl)amino]-1,3-benzothiazol-6-yl]sulfonyl]amino]-1-phenylbutan-2-yl]carbamate
> <PUBCHEM_IUPAC_NAME>
1,3-thiazol-5-ylmethyl N-[(2S,3R)-3-hydroxy-4-[2-methylpropyl-[[2-[(2-piperazin-1-ylacetyl)amino]-1,3-benzothiazol-6-yl]sulfonyl]amino]-1-phenylbutan-2-yl]carbamate
> <PUBCHEM_IUPAC_SYSTEMATIC_NAME>
1,3-thiazol-5-ylmethyl N-[(2S,3R)-4-[2-methylpropyl-[[2-(2-piperazin-1-ylethanoylamino)-1,3-benzothiazol-6-yl]sulfonyl]amino]-3-oxidanyl-1-phenyl-butan-2-yl]carbamate
> <PUBCHEM_IUPAC_TRADITIONAL_NAME>
N-[(1S,2R)-1-benzyl-2-hydroxy-3-[isobutyl-[[2-[(2-piperazinoacetyl)amino]-1,3-benzothiazol-6-yl]sulfonyl]amino]propyl]carbamic acid thiazol-5-ylmethyl ester
> <PUBCHEM_IUPAC_INCHI>
InChI=1S/C32H41N7O6S3/c1-22(2)17-39(18-28(40)27(14-23-6-4-3-5-7-23)36-32(42)45-20-24-16-34-21-46-24)48(43,44)25-8-9-26-29(15-25)47-31(35-26)37-30(41)19-38-12-10-33-11-13-38/h3-9,15-16,21-22,27-28,33,40H,10-14,17-20H2,1-2H3,(H,36,42)(H,35,37,41)/t27-,28+/m0/s1
> <PUBCHEM_IUPAC_INCHIKEY>
NRNMGIYNBMNGGD-WUFINQPMSA-N
> <PUBCHEM_XLOGP3_AA>
3.5
> <PUBCHEM_EXACT_MASS>
715.22804557
> <PUBCHEM_MOLECULAR_FORMULA>
C32H41N7O6S3
> <PUBCHEM_MOLECULAR_WEIGHT>
715.9
> <PUBCHEM_OPENEYE_CAN_SMILES>
CC(C)CN(CC(C(CC1=CC=CC=C1)NC(=O)OCC2=CN=CS2)O)S(=O)(=O)C3=CC4=C(C=C3)N=C(S4)NC(=O)CN5CCNCC5
> <PUBCHEM_OPENEYE_ISO_SMILES>
CC(C)CN(C[C@H]([C@H](CC1=CC=CC=C1)NC(=O)OCC2=CN=CS2)O)S(=O)(=O)C3=CC4=C(C=C3)N=C(S4)NC(=O)CN5CCNCC5
> <PUBCHEM_CACTVS_TPSA>
231
> <PUBCHEM_MONOISOTOPIC_WEIGHT>
715.22804557
> <PUBCHEM_TOTAL_CHARGE>
0
> <PUBCHEM_HEAVY_ATOM_COUNT>
48
> <PUBCHEM_ATOM_DEF_STEREO_COUNT>
2
> <PUBCHEM_ATOM_UDEF_STEREO_COUNT>
0
> <PUBCHEM_BOND_DEF_STEREO_COUNT>
0
> <PUBCHEM_BOND_UDEF_STEREO_COUNT>
0
> <PUBCHEM_ISOTOPIC_ATOM_COUNT>
0
> <PUBCHEM_COMPONENT_COUNT>
1
> <PUBCHEM_CACTVS_TAUTO_COUNT>
-1
> <PUBCHEM_COORDINATE_TYPE>
1
5
255
> <PUBCHEM_BONDANNOTATIONS>
19  11  6
15  38  8
15  41  8
16  47  8
16  48  8
2  35  8
2  41  8
23  31  8
23  33  8
26  36  8
26  37  8
3  46  8
3  48  8
31  35  8
33  39  8
35  38  8
36  42  8
37  43  8
38  39  8
17  4  6
42  44  8
43  44  8
46  47  8
$$$$
