509719
  -OEChem-10302200282D
 87 91  0     1  0  0  0  0  0999 V2000
    9.6448   -0.5522    0.0000 S   0  0  0  0  0  0  0  0  0  0  0  0
   13.1891   -0.7474    0.0000 S   0  0  0  0  0  0  0  0  0  0  0  0
    2.6691    2.5411    0.0000 S   0  0  0  0  0  0  0  0  0  0  0  0
    7.0468    0.9478    0.0000 O   0  0  0  0  0  0  0  0  0  0  0  0
    9.1448   -1.4182    0.0000 O   0  0  0  0  0  0  0  0  0  0  0  0
   10.1449    0.3138    0.0000 O   0  0  0  0  0  0  0  0  0  0  0  0
    4.4487    1.4478    0.0000 O   0  0  0  0  0  0  0  0  0  0  0  0
    6.1808    1.4478    0.0000 O   0  0  0  0  0  0  0  0  0  0  0  0
   14.7728   -3.2842    0.0000 O   0  0  0  0  0  0  0  0  0  0  0  0
   18.2728   -4.1502    0.0000 O   0  0  0  0  0  0  0  0  0  0  0  0
   18.2728   -0.6862    0.0000 O   0  0  0  0  0  0  0  0  0  0  0  0
    8.7788   -0.0522    0.0000 N   0  0  3  0  0  0  0  0  0  0  0  0
    5.3147   -0.0522    0.0000 N   0  0  0  0  0  0  0  0  0  0  0  0
   13.1891   -2.3569    0.0000 N   0  0  0  0  0  0  0  0  0  0  0  0
   14.7728   -1.5522    0.0000 N   0  0  0  0  0  0  0  0  0  0  0  0
    2.5000    4.1502    0.0000 N   0  0  0  0  0  0  0  0  0  0  0  0
    7.0468   -0.0522    0.0000 C   0  0  2  0  0  0  0  0  0  0  0  0
    7.9128   -0.5522    0.0000 C   0  0  0  0  0  0  0  0  0  0  0  0
    6.1808   -0.5522    0.0000 C   0  0  2  0  0  0  0  0  0  0  0  0
    8.7788    0.9478    0.0000 C   0  0  0  0  0  0  0  0  0  0  0  0
    9.6448    1.4478    0.0000 C   0  0  0  0  0  0  0  0  0  0  0  0
    6.1808   -1.5522    0.0000 C   0  0  0  0  0  0  0  0  0  0  0  0
   10.5109   -1.0522    0.0000 C   0  0  0  0  0  0  0  0  0  0  0  0
    9.6448    2.4478    0.0000 C   0  0  0  0  0  0  0  0  0  0  0  0
   10.5109    0.9478    0.0000 C   0  0  0  0  0  0  0  0  0  0  0  0
    5.3147   -2.0522    0.0000 C   0  0  0  0  0  0  0  0  0  0  0  0
   11.3769   -0.5522    0.0000 C   0  0  0  0  0  0  0  0  0  0  0  0
   10.5109   -2.0522    0.0000 C   0  0  0  0  0  0  0  0  0  0  0  0
    5.3147    0.9478    0.0000 C   0  0  0  0  0  0  0  0  0  0  0  0
    4.4487   -1.5522    0.0000 C   0  0  0  0  0  0  0  0  0  0  0  0
    5.3147   -3.0522    0.0000 C   0  0  0  0  0  0  0  0  0  0  0  0
   12.2429   -1.0522    0.0000 C   0  0  0  0  0  0  0  0  0  0  0  0
   11.3769   -2.5522    0.0000 C   0  0  0  0  0  0  0  0  0  0  0  0
   12.2429   -2.0522    0.0000 C   0  0  0  0  0  0  0  0  0  0  0  0
    3.5827   -2.0522    0.0000 C   0  0  0  0  0  0  0  0  0  0  0  0
    4.4487   -3.5522    0.0000 C   0  0  0  0  0  0  0  0  0  0  0  0
    3.5827   -3.0522    0.0000 C   0  0  0  0  0  0  0  0  0  0  0  0
   13.7728   -1.5522    0.0000 C   0  0  0  0  0  0  0  0  0  0  0  0
    4.4487    2.4478    0.0000 C   0  0  0  0  0  0  0  0  0  0  0  0
    3.5827    2.9478    0.0000 C   0  0  0  0  0  0  0  0  0  0  0  0
   15.2728   -0.6862    0.0000 C   0  0  0  0  0  0  0  0  0  0  0  0
   15.2728   -2.4182    0.0000 C   0  0  0  0  0  0  0  0  0  0  0  0
   16.2728   -2.4182    0.0000 C   0  0  0  0  0  0  0  0  0  0  0  0
    3.4782    3.9423    0.0000 C   0  0  0  0  0  0  0  0  0  0  0  0
   16.7728   -1.5522    0.0000 C   0  0  0  0  0  0  0  0  0  0  0  0
   16.7728   -3.2842    0.0000 C   0  0  0  0  0  0  0  0  0  0  0  0
    2.0000    3.2842    0.0000 C   0  0  0  0  0  0  0  0  0  0  0  0
   17.7728   -3.2842    0.0000 C   0  0  0  0  0  0  0  0  0  0  0  0
   17.7728   -1.5522    0.0000 C   0  0  0  0  0  0  0  0  0  0  0  0
   18.2728   -2.4182    0.0000 C   0  0  0  0  0  0  0  0  0  0  0  0
    7.5837    0.2578    0.0000 H   0  0  0  0  0  0  0  0  0  0  0  0
    7.5143   -1.0271    0.0000 H   0  0  0  0  0  0  0  0  0  0  0  0
    8.3113   -1.0271    0.0000 H   0  0  0  0  0  0  0  0  0  0  0  0
    6.1808    0.0678    0.0000 H   0  0  0  0  0  0  0  0  0  0  0  0
    8.5668    1.5304    0.0000 H   0  0  0  0  0  0  0  0  0  0  0  0
    8.1682    0.8402    0.0000 H   0  0  0  0  0  0  0  0  0  0  0  0
    9.1079    1.7578    0.0000 H   0  0  0  0  0  0  0  0  0  0  0  0
    6.3928   -2.1348    0.0000 H   0  0  0  0  0  0  0  0  0  0  0  0
    6.7913   -1.4445    0.0000 H   0  0  0  0  0  0  0  0  0  0  0  0
    4.7778   -0.3622    0.0000 H   0  0  0  0  0  0  0  0  0  0  0  0
   10.2649    2.4478    0.0000 H   0  0  0  0  0  0  0  0  0  0  0  0
    9.6448    3.0678    0.0000 H   0  0  0  0  0  0  0  0  0  0  0  0
    9.0248    2.4478    0.0000 H   0  0  0  0  0  0  0  0  0  0  0  0
   10.2009    0.4109    0.0000 H   0  0  0  0  0  0  0  0  0  0  0  0
   11.0478    0.6378    0.0000 H   0  0  0  0  0  0  0  0  0  0  0  0
   10.8209    1.4848    0.0000 H   0  0  0  0  0  0  0  0  0  0  0  0
    7.5837    1.2578    0.0000 H   0  0  0  0  0  0  0  0  0  0  0  0
   11.3769    0.0678    0.0000 H   0  0  0  0  0  0  0  0  0  0  0  0
    9.9739   -2.3622    0.0000 H   0  0  0  0  0  0  0  0  0  0  0  0
    4.4487   -0.9322    0.0000 H   0  0  0  0  0  0  0  0  0  0  0  0
    5.8517   -3.3622    0.0000 H   0  0  0  0  0  0  0  0  0  0  0  0
   11.3769   -3.1722    0.0000 H   0  0  0  0  0  0  0  0  0  0  0  0
    3.0457   -1.7422    0.0000 H   0  0  0  0  0  0  0  0  0  0  0  0
    4.4487   -4.1722    0.0000 H   0  0  0  0  0  0  0  0  0  0  0  0
    3.0457   -3.3622    0.0000 H   0  0  0  0  0  0  0  0  0  0  0  0
    5.0593    2.3402    0.0000 H   0  0  0  0  0  0  0  0  0  0  0  0
    4.6608    3.0304    0.0000 H   0  0  0  0  0  0  0  0  0  0  0  0
   15.8097   -0.9962    0.0000 H   0  0  0  0  0  0  0  0  0  0  0  0
   15.5828   -0.1492    0.0000 H   0  0  0  0  0  0  0  0  0  0  0  0
   14.7358   -0.3762    0.0000 H   0  0  0  0  0  0  0  0  0  0  0  0
    3.9389    4.3572    0.0000 H   0  0  0  0  0  0  0  0  0  0  0  0
   16.4628   -1.0152    0.0000 H   0  0  0  0  0  0  0  0  0  0  0  0
   16.4628   -3.8212    0.0000 H   0  0  0  0  0  0  0  0  0  0  0  0
    1.3834    3.2194    0.0000 H   0  0  0  0  0  0  0  0  0  0  0  0
   18.8928   -2.4182    0.0000 H   0  0  0  0  0  0  0  0  0  0  0  0
   18.8928   -4.1502    0.0000 H   0  0  0  0  0  0  0  0  0  0  0  0
   18.8928   -0.6862    0.0000 H   0  0  0  0  0  0  0  0  0  0  0  0
  1  5  2  0  0  0  0
  1  6  2  0  0  0  0
  1 12  1  0  0  0  0
  1 23  1  0  0  0  0
  2 32  1  0  0  0  0
  2 38  1  0  0  0  0
  3 40  1  0  0  0  0
  3 47  1  0  0  0  0
 17  4  1  6  0  0  0
  4 67  1  0  0  0  0
  7 29  1  0  0  0  0
  7 39  1  0  0  0  0
  8 29  2  0  0  0  0
  9 42  2  0  0  0  0
 10 48  1  0  0  0  0
 10 86  1  0  0  0  0
 11 49  1  0  0  0  0
 11 87  1  0  0  0  0
 12 18  1  0  0  0  0
 12 20  1  0  0  0  0
 19 13  1  6  0  0  0
 13 29  1  0  0  0  0
 13 60  1  0  0  0  0
 14 34  1  0  0  0  0
 14 38  2  0  0  0  0
 15 38  1  0  0  0  0
 15 41  1  0  0  0  0
 15 42  1  0  0  0  0
 16 44  1  0  0  0  0
 16 47  2  0  0  0  0
 17 18  1  0  0  0  0
 17 19  1  0  0  0  0
 17 51  1  0  0  0  0
 18 52  1  0  0  0  0
 18 53  1  0  0  0  0
 19 22  1  0  0  0  0
 19 54  1  0  0  0  0
 20 21  1  0  0  0  0
 20 55  1  0  0  0  0
 20 56  1  0  0  0  0
 21 24  1  0  0  0  0
 21 25  1  0  0  0  0
 21 57  1  0  0  0  0
 22 26  1  0  0  0  0
 22 58  1  0  0  0  0
 22 59  1  0  0  0  0
 23 27  2  0  0  0  0
 23 28  1  0  0  0  0
 24 61  1  0  0  0  0
 24 62  1  0  0  0  0
 24 63  1  0  0  0  0
 25 64  1  0  0  0  0
 25 65  1  0  0  0  0
 25 66  1  0  0  0  0
 26 30  2  0  0  0  0
 26 31  1  0  0  0  0
 27 32  1  0  0  0  0
 27 68  1  0  0  0  0
 28 33  2  0  0  0  0
 28 69  1  0  0  0  0
 30 35  1  0  0  0  0
 30 70  1  0  0  0  0
 31 36  2  0  0  0  0
 31 71  1  0  0  0  0
 32 34  2  0  0  0  0
 33 34  1  0  0  0  0
 33 72  1  0  0  0  0
 35 37  2  0  0  0  0
 35 73  1  0  0  0  0
 36 37  1  0  0  0  0
 36 74  1  0  0  0  0
 37 75  1  0  0  0  0
 39 40  1  0  0  0  0
 39 76  1  0  0  0  0
 39 77  1  0  0  0  0
 40 44  2  0  0  0  0
 41 78  1  0  0  0  0
 41 79  1  0  0  0  0
 41 80  1  0  0  0  0
 42 43  1  0  0  0  0
 43 45  2  0  0  0  0
 43 46  1  0  0  0  0
 44 81  1  0  0  0  0
 45 49  1  0  0  0  0
 45 82  1  0  0  0  0
 46 48  2  0  0  0  0
 46 83  1  0  0  0  0
 47 84  1  0  0  0  0
 48 50  1  0  0  0  0
 49 50  2  0  0  0  0
 50 85  1  0  0  0  0
M  END
> <PUBCHEM_COMPOUND_CID>
509719
> <PUBCHEM_COMPOUND_CANONICALIZED>
1
> <PUBCHEM_CACTVS_COMPLEXITY>
1210
> <PUBCHEM_CACTVS_HBOND_ACCEPTOR>
13
> <PUBCHEM_CACTVS_HBOND_DONOR>
4
> <PUBCHEM_CACTVS_ROTATABLE_BOND>
15
> <PUBCHEM_CACTVS_SUBSKEYS>
AAADcfB/vABgAAAAAAAAAAAAAAAAAWLAAAAwYMAAAAAAAFgB/AAAHgQQSAAADTzh3ga/37PIFgqsAzV3fHDD8Ll1KjhJ2L0+bNmKN7Li/ZuMcQhv1xfY+ae66LSOAAQBCEAAAQAACAIQgAACAAAAAAAAAA==
> <PUBCHEM_IUPAC_OPENEYE_NAME>
thiazol-5-ylmethyl N-[(1S,2R)-1-benzyl-3-[[2-[(3,5-dihydroxybenzoyl)-methyl-amino]-1,3-benzothiazol-6-yl]sulfonyl-isobutyl-amino]-2-hydroxy-propyl]carbamate
> <PUBCHEM_IUPAC_CAS_NAME>
N-[(2S,3R)-4-[[2-[[(3,5-dihydroxyphenyl)-oxomethyl]-methylamino]-1,3-benzothiazol-6-yl]sulfonyl-(2-methylpropyl)amino]-3-hydroxy-1-phenylbutan-2-yl]carbamic acid 5-thiazolylmethyl ester
> <PUBCHEM_IUPAC_NAME_MARKUP>
1,3-thiazol-5-ylmethyl <I>N</I>-[(2<I>S</I>,3<I>R</I>)-4-[[2-[(3,5-dihydroxybenzoyl)-methylamino]-1,3-benzothiazol-6-yl]sulfonyl-(2-methylpropyl)amino]-3-hydroxy-1-phenylbutan-2-yl]carbamate
> <PUBCHEM_IUPAC_NAME>
1,3-thiazol-5-ylmethyl N-[(2S,3R)-4-[[2-[(3,5-dihydroxybenzoyl)-methylamino]-1,3-benzothiazol-6-yl]sulfonyl-(2-methylpropyl)amino]-3-hydroxy-1-phenylbutan-2-yl]carbamate
> <PUBCHEM_IUPAC_SYSTEMATIC_NAME>
1,3-thiazol-5-ylmethyl N-[(2S,3R)-4-[[2-[[3,5-bis(oxidanyl)phenyl]carbonyl-methyl-amino]-1,3-benzothiazol-6-yl]sulfonyl-(2-methylpropyl)amino]-3-oxidanyl-1-phenyl-butan-2-yl]carbamate
> <PUBCHEM_IUPAC_TRADITIONAL_NAME>
N-[(1S,2R)-1-benzyl-3-[[2-[(3,5-dihydroxybenzoyl)-methyl-amino]-1,3-benzothiazol-6-yl]sulfonyl-isobutyl-amino]-2-hydroxy-propyl]carbamic acid thiazol-5-ylmethyl ester
> <PUBCHEM_IUPAC_INCHI>
InChI=1S/C34H37N5O8S3/c1-21(2)17-39(18-30(42)29(11-22-7-5-4-6-8-22)37-34(44)47-19-26-16-35-20-48-26)50(45,46)27-9-10-28-31(15-27)49-33(36-28)38(3)32(43)23-12-24(40)14-25(41)13-23/h4-10,12-16,20-21,29-30,40-42H,11,17-19H2,1-3H3,(H,37,44)/t29-,30+/m0/s1
> <PUBCHEM_IUPAC_INCHIKEY>
GQYWNDLNMNYFEU-XZWHSSHBSA-N
> <PUBCHEM_XLOGP3_AA>
5.2
> <PUBCHEM_EXACT_MASS>
739.18042668
> <PUBCHEM_MOLECULAR_FORMULA>
C34H37N5O8S3
> <PUBCHEM_MOLECULAR_WEIGHT>
739.9
> <PUBCHEM_OPENEYE_CAN_SMILES>
CC(C)CN(CC(C(CC1=CC=CC=C1)NC(=O)OCC2=CN=CS2)O)S(=O)(=O)C3=CC4=C(C=C3)N=C(S4)N(C)C(=O)C5=CC(=CC(=C5)O)O
> <PUBCHEM_OPENEYE_ISO_SMILES>
CC(C)CN(C[C@H]([C@H](CC1=CC=CC=C1)NC(=O)OCC2=CN=CS2)O)S(=O)(=O)C3=CC4=C(C=C3)N=C(S4)N(C)C(=O)C5=CC(=CC(=C5)O)O
> <PUBCHEM_CACTVS_TPSA>
247
> <PUBCHEM_MONOISOTOPIC_WEIGHT>
739.18042668
> <PUBCHEM_TOTAL_CHARGE>
0
> <PUBCHEM_HEAVY_ATOM_COUNT>
50
> <PUBCHEM_ATOM_DEF_STEREO_COUNT>
2
> <PUBCHEM_ATOM_UDEF_STEREO_COUNT>
0
> <PUBCHEM_BOND_DEF_STEREO_COUNT>
0
> <PUBCHEM_BOND_UDEF_STEREO_COUNT>
0
> <PUBCHEM_ISOTOPIC_ATOM_COUNT>
0
> <PUBCHEM_COMPONENT_COUNT>
1
> <PUBCHEM_CACTVS_TAUTO_COUNT>
-1
> <PUBCHEM_COORDINATE_TYPE>
1
5
255
> <PUBCHEM_BONDANNOTATIONS>
19  13  6
14  34  8
14  38  8
16  44  8
16  47  8
2  32  8
2  38  8
23  27  8
23  28  8
26  30  8
26  31  8
27  32  8
28  33  8
3  40  8
3  47  8
30  35  8
31  36  8
32  34  8
33  34  8
35  37  8
36  37  8
17  4  6
40  44  8
43  45  8
43  46  8
45  49  8
46  48  8
48  50  8
49  50  8
$$$$
