509702
  -OEChem-10302200282D
 95 99  0     1  0  0  0  0  0999 V2000
    9.7942   -0.2679    0.0000 S   0  0  0  0  0  0  0  0  0  0  0  0
   13.3385   -0.4632    0.0000 S   0  0  0  0  0  0  0  0  0  0  0  0
    7.1962    1.2320    0.0000 O   0  0  0  0  0  0  0  0  0  0  0  0
    9.2942   -1.1340    0.0000 O   0  0  0  0  0  0  0  0  0  0  0  0
   10.2942    0.5981    0.0000 O   0  0  0  0  0  0  0  0  0  0  0  0
    6.3301    1.7320    0.0000 O   0  0  0  0  0  0  0  0  0  0  0  0
    4.5981    2.7320    0.0000 O   0  0  0  0  0  0  0  0  0  0  0  0
    8.9282    0.2321    0.0000 N   0  0  3  0  0  0  0  0  0  0  0  0
    5.4641    0.2321    0.0000 N   0  0  0  0  0  0  0  0  0  0  0  0
   13.3385   -2.0727    0.0000 N   0  0  0  0  0  0  0  0  0  0  0  0
   14.9221   -1.2680    0.0000 N   0  0  0  0  0  0  0  0  0  0  0  0
   16.4221   -3.8660    0.0000 N   0  0  0  0  0  0  0  0  0  0  0  0
    7.1962    0.2321    0.0000 C   0  0  2  0  0  0  0  0  0  0  0  0
    8.0622   -0.2679    0.0000 C   0  0  0  0  0  0  0  0  0  0  0  0
    6.3301   -0.2679    0.0000 C   0  0  2  0  0  0  0  0  0  0  0  0
    8.9282    1.2320    0.0000 C   0  0  0  0  0  0  0  0  0  0  0  0
    9.7942    1.7320    0.0000 C   0  0  0  0  0  0  0  0  0  0  0  0
    6.3301   -1.2680    0.0000 C   0  0  0  0  0  0  0  0  0  0  0  0
   10.6603   -0.7679    0.0000 C   0  0  0  0  0  0  0  0  0  0  0  0
    5.4641   -1.7680    0.0000 C   0  0  0  0  0  0  0  0  0  0  0  0
    9.7942    2.7320    0.0000 C   0  0  0  0  0  0  0  0  0  0  0  0
   10.6603    1.2320    0.0000 C   0  0  0  0  0  0  0  0  0  0  0  0
    5.4641    1.2320    0.0000 C   0  0  0  0  0  0  0  0  0  0  0  0
   11.5263   -0.2679    0.0000 C   0  0  0  0  0  0  0  0  0  0  0  0
   10.6603   -1.7680    0.0000 C   0  0  0  0  0  0  0  0  0  0  0  0
    5.4641   -2.7680    0.0000 C   0  0  0  0  0  0  0  0  0  0  0  0
    4.5981   -1.2680    0.0000 C   0  0  0  0  0  0  0  0  0  0  0  0
   12.3923   -0.7679    0.0000 C   0  0  0  0  0  0  0  0  0  0  0  0
    4.5981    1.7320    0.0000 C   0  0  0  0  0  0  0  0  0  0  0  0
   11.5263   -2.2680    0.0000 C   0  0  0  0  0  0  0  0  0  0  0  0
   12.3923   -1.7680    0.0000 C   0  0  0  0  0  0  0  0  0  0  0  0
    4.5981   -3.2680    0.0000 C   0  0  0  0  0  0  0  0  0  0  0  0
    3.7320   -1.7680    0.0000 C   0  0  0  0  0  0  0  0  0  0  0  0
    3.7320   -2.7680    0.0000 C   0  0  0  0  0  0  0  0  0  0  0  0
   13.9221   -1.2680    0.0000 C   0  0  0  0  0  0  0  0  0  0  0  0
    3.7320    3.2320    0.0000 C   0  0  0  0  0  0  0  0  0  0  0  0
   15.4221   -2.1340    0.0000 C   0  0  0  0  0  0  0  0  0  0  0  0
    3.7320    4.2320    0.0000 C   0  0  0  0  0  0  0  0  0  0  0  0
    2.8660    2.7320    0.0000 C   0  0  0  0  0  0  0  0  0  0  0  0
   16.4221   -2.1340    0.0000 C   0  0  0  0  0  0  0  0  0  0  0  0
    2.8660    4.7320    0.0000 C   0  0  0  0  0  0  0  0  0  0  0  0
    2.0000    3.2320    0.0000 C   0  0  0  0  0  0  0  0  0  0  0  0
    4.5981    4.7320    0.0000 C   0  0  0  0  0  0  0  0  0  0  0  0
    2.8660    1.7320    0.0000 C   0  0  0  0  0  0  0  0  0  0  0  0
    2.0000    4.2320    0.0000 C   0  0  0  0  0  0  0  0  0  0  0  0
   16.9221   -3.0000    0.0000 C   0  0  0  0  0  0  0  0  0  0  0  0
   17.9221   -3.0000    0.0000 C   0  0  0  0  0  0  0  0  0  0  0  0
   18.4221   -3.8660    0.0000 C   0  0  0  0  0  0  0  0  0  0  0  0
   16.9221   -4.7320    0.0000 C   0  0  0  0  0  0  0  0  0  0  0  0
   17.9221   -4.7320    0.0000 C   0  0  0  0  0  0  0  0  0  0  0  0
    6.6592    0.5421    0.0000 H   0  0  0  0  0  0  0  0  0  0  0  0
    7.6636   -0.7429    0.0000 H   0  0  0  0  0  0  0  0  0  0  0  0
    8.4607   -0.7429    0.0000 H   0  0  0  0  0  0  0  0  0  0  0  0
    5.7932   -0.5779    0.0000 H   0  0  0  0  0  0  0  0  0  0  0  0
    8.7162    1.8147    0.0000 H   0  0  0  0  0  0  0  0  0  0  0  0
    8.3176    1.1244    0.0000 H   0  0  0  0  0  0  0  0  0  0  0  0
    9.2573    2.0420    0.0000 H   0  0  0  0  0  0  0  0  0  0  0  0
    6.5422   -1.8506    0.0000 H   0  0  0  0  0  0  0  0  0  0  0  0
    6.9407   -1.1603    0.0000 H   0  0  0  0  0  0  0  0  0  0  0  0
    4.9272   -0.0779    0.0000 H   0  0  0  0  0  0  0  0  0  0  0  0
   10.4142    2.7320    0.0000 H   0  0  0  0  0  0  0  0  0  0  0  0
    9.7942    3.3520    0.0000 H   0  0  0  0  0  0  0  0  0  0  0  0
    9.1742    2.7320    0.0000 H   0  0  0  0  0  0  0  0  0  0  0  0
   10.3503    0.6951    0.0000 H   0  0  0  0  0  0  0  0  0  0  0  0
   11.1972    0.9221    0.0000 H   0  0  0  0  0  0  0  0  0  0  0  0
   10.9703    1.7690    0.0000 H   0  0  0  0  0  0  0  0  0  0  0  0
    7.7331    1.5420    0.0000 H   0  0  0  0  0  0  0  0  0  0  0  0
   11.5263    0.3521    0.0000 H   0  0  0  0  0  0  0  0  0  0  0  0
   10.1233   -2.0780    0.0000 H   0  0  0  0  0  0  0  0  0  0  0  0
    6.0010   -3.0780    0.0000 H   0  0  0  0  0  0  0  0  0  0  0  0
    4.5981   -0.6479    0.0000 H   0  0  0  0  0  0  0  0  0  0  0  0
    3.9875    1.8397    0.0000 H   0  0  0  0  0  0  0  0  0  0  0  0
    4.3860    1.1494    0.0000 H   0  0  0  0  0  0  0  0  0  0  0  0
   11.5263   -2.8880    0.0000 H   0  0  0  0  0  0  0  0  0  0  0  0
    4.5981   -3.8880    0.0000 H   0  0  0  0  0  0  0  0  0  0  0  0
    3.1951   -1.4580    0.0000 H   0  0  0  0  0  0  0  0  0  0  0  0
    3.1951   -3.0780    0.0000 H   0  0  0  0  0  0  0  0  0  0  0  0
   15.2321   -0.7310    0.0000 H   0  0  0  0  0  0  0  0  0  0  0  0
   14.8395   -2.3460    0.0000 H   0  0  0  0  0  0  0  0  0  0  0  0
   15.5298   -2.7446    0.0000 H   0  0  0  0  0  0  0  0  0  0  0  0
   17.0047   -1.9219    0.0000 H   0  0  0  0  0  0  0  0  0  0  0  0
   16.3145   -1.5234    0.0000 H   0  0  0  0  0  0  0  0  0  0  0  0
    2.8660    5.3520    0.0000 H   0  0  0  0  0  0  0  0  0  0  0  0
    1.4631    2.9220    0.0000 H   0  0  0  0  0  0  0  0  0  0  0  0
    4.9081    4.1951    0.0000 H   0  0  0  0  0  0  0  0  0  0  0  0
    5.1350    5.0420    0.0000 H   0  0  0  0  0  0  0  0  0  0  0  0
    4.2881    5.2690    0.0000 H   0  0  0  0  0  0  0  0  0  0  0  0
    2.2460    1.7320    0.0000 H   0  0  0  0  0  0  0  0  0  0  0  0
    2.8660    1.1120    0.0000 H   0  0  0  0  0  0  0  0  0  0  0  0
    3.4860    1.7320    0.0000 H   0  0  0  0  0  0  0  0  0  0  0  0
    1.4631    4.5420    0.0000 H   0  0  0  0  0  0  0  0  0  0  0  0
   18.2321   -2.4631    0.0000 H   0  0  0  0  0  0  0  0  0  0  0  0
   19.0421   -3.8660    0.0000 H   0  0  0  0  0  0  0  0  0  0  0  0
   16.6121   -5.2690    0.0000 H   0  0  0  0  0  0  0  0  0  0  0  0
   18.2321   -5.2690    0.0000 H   0  0  0  0  0  0  0  0  0  0  0  0
  1  4  2  0  0  0  0
  1  5  2  0  0  0  0
  1  8  1  0  0  0  0
  1 19  1  0  0  0  0
  2 28  1  0  0  0  0
  2 35  1  0  0  0  0
 13  3  1  6  0  0  0
  3 67  1  0  0  0  0
  6 23  2  0  0  0  0
  7 29  1  0  0  0  0
  7 36  1  0  0  0  0
  8 14  1  0  0  0  0
  8 16  1  0  0  0  0
 15  9  1  6  0  0  0
  9 23  1  0  0  0  0
  9 60  1  0  0  0  0
 10 31  1  0  0  0  0
 10 35  2  0  0  0  0
 11 35  1  0  0  0  0
 11 37  1  0  0  0  0
 11 78  1  0  0  0  0
 12 46  1  0  0  0  0
 12 49  2  0  0  0  0
 13 14  1  0  0  0  0
 13 15  1  0  0  0  0
 13 51  1  0  0  0  0
 14 52  1  0  0  0  0
 14 53  1  0  0  0  0
 15 18  1  0  0  0  0
 15 54  1  0  0  0  0
 16 17  1  0  0  0  0
 16 55  1  0  0  0  0
 16 56  1  0  0  0  0
 17 21  1  0  0  0  0
 17 22  1  0  0  0  0
 17 57  1  0  0  0  0
 18 20  1  0  0  0  0
 18 58  1  0  0  0  0
 18 59  1  0  0  0  0
 19 24  2  0  0  0  0
 19 25  1  0  0  0  0
 20 26  2  0  0  0  0
 20 27  1  0  0  0  0
 21 61  1  0  0  0  0
 21 62  1  0  0  0  0
 21 63  1  0  0  0  0
 22 64  1  0  0  0  0
 22 65  1  0  0  0  0
 22 66  1  0  0  0  0
 23 29  1  0  0  0  0
 24 28  1  0  0  0  0
 24 68  1  0  0  0  0
 25 30  2  0  0  0  0
 25 69  1  0  0  0  0
 26 32  1  0  0  0  0
 26 70  1  0  0  0  0
 27 33  2  0  0  0  0
 27 71  1  0  0  0  0
 28 31  2  0  0  0  0
 29 72  1  0  0  0  0
 29 73  1  0  0  0  0
 30 31  1  0  0  0  0
 30 74  1  0  0  0  0
 32 34  2  0  0  0  0
 32 75  1  0  0  0  0
 33 34  1  0  0  0  0
 33 76  1  0  0  0  0
 34 77  1  0  0  0  0
 36 38  2  0  0  0  0
 36 39  1  0  0  0  0
 37 40  1  0  0  0  0
 37 79  1  0  0  0  0
 37 80  1  0  0  0  0
 38 41  1  0  0  0  0
 38 43  1  0  0  0  0
 39 42  2  0  0  0  0
 39 44  1  0  0  0  0
 40 46  1  0  0  0  0
 40 81  1  0  0  0  0
 40 82  1  0  0  0  0
 41 45  2  0  0  0  0
 41 83  1  0  0  0  0
 42 45  1  0  0  0  0
 42 84  1  0  0  0  0
 43 85  1  0  0  0  0
 43 86  1  0  0  0  0
 43 87  1  0  0  0  0
 44 88  1  0  0  0  0
 44 89  1  0  0  0  0
 44 90  1  0  0  0  0
 45 91  1  0  0  0  0
 46 47  2  0  0  0  0
 47 48  1  0  0  0  0
 47 92  1  0  0  0  0
 48 50  2  0  0  0  0
 48 93  1  0  0  0  0
 49 50  1  0  0  0  0
 49 94  1  0  0  0  0
 50 95  1  0  0  0  0
M  END
> <PUBCHEM_COMPOUND_CID>
509702
> <PUBCHEM_COMPOUND_CANONICALIZED>
1
> <PUBCHEM_CACTVS_COMPLEXITY>
1130
> <PUBCHEM_CACTVS_HBOND_ACCEPTOR>
10
> <PUBCHEM_CACTVS_HBOND_DONOR>
3
> <PUBCHEM_CACTVS_ROTATABLE_BOND>
17
> <PUBCHEM_CACTVS_SUBSKEYS>
AAADcfB/uABgAAAAAAAAAAAAAAAAAWAAAAA8YMEAAAAAAFgB/AAAHgQQSAAADTzh3gY/17LIFgqsAzV3dHLD+LlxKjlJ2Lx8bJiONuLk+Z+HeCjs1hPY6CeQwOAOAAQCAEAIAQAACAQAgBACAAAAAAAAAA==
> <PUBCHEM_IUPAC_OPENEYE_NAME>
N-[(1S,2R)-1-benzyl-2-hydroxy-3-[isobutyl-[[2-[2-(2-pyridyl)ethylamino]-1,3-benzothiazol-6-yl]sulfonyl]amino]propyl]-2-(2,6-dimethylphenoxy)acetamide
> <PUBCHEM_IUPAC_CAS_NAME>
2-(2,6-dimethylphenoxy)-N-[(2S,3R)-3-hydroxy-4-[2-methylpropyl-[[2-[2-(2-pyridinyl)ethylamino]-1,3-benzothiazol-6-yl]sulfonyl]amino]-1-phenylbutan-2-yl]acetamide
> <PUBCHEM_IUPAC_NAME_MARKUP>
2-(2,6-dimethylphenoxy)-<I>N</I>-[(2<I>S</I>,3<I>R</I>)-3-hydroxy-4-[2-methylpropyl-[[2-(2-pyridin-2-ylethylamino)-1,3-benzothiazol-6-yl]sulfonyl]amino]-1-phenylbutan-2-yl]acetamide
> <PUBCHEM_IUPAC_NAME>
2-(2,6-dimethylphenoxy)-N-[(2S,3R)-3-hydroxy-4-[2-methylpropyl-[[2-(2-pyridin-2-ylethylamino)-1,3-benzothiazol-6-yl]sulfonyl]amino]-1-phenylbutan-2-yl]acetamide
> <PUBCHEM_IUPAC_SYSTEMATIC_NAME>
2-(2,6-dimethylphenoxy)-N-[(2S,3R)-4-[2-methylpropyl-[[2-(2-pyridin-2-ylethylamino)-1,3-benzothiazol-6-yl]sulfonyl]amino]-3-oxidanyl-1-phenyl-butan-2-yl]ethanamide
> <PUBCHEM_IUPAC_TRADITIONAL_NAME>
N-[(1S,2R)-1-benzyl-2-hydroxy-3-[isobutyl-[[2-[2-(2-pyridyl)ethylamino]-1,3-benzothiazol-6-yl]sulfonyl]amino]propyl]-2-(2,6-dimethylphenoxy)acetamide
> <PUBCHEM_IUPAC_INCHI>
InChI=1S/C38H45N5O5S2/c1-26(2)23-43(50(46,47)31-16-17-32-35(22-31)49-38(42-32)40-20-18-30-15-8-9-19-39-30)24-34(44)33(21-29-13-6-5-7-14-29)41-36(45)25-48-37-27(3)11-10-12-28(37)4/h5-17,19,22,26,33-34,44H,18,20-21,23-25H2,1-4H3,(H,40,42)(H,41,45)/t33-,34+/m0/s1
> <PUBCHEM_IUPAC_INCHIKEY>
DHQHSCGFPPUPKB-SZAHLOSFSA-N
> <PUBCHEM_XLOGP3_AA>
7.2
> <PUBCHEM_EXACT_MASS>
715.28621190
> <PUBCHEM_MOLECULAR_FORMULA>
C38H45N5O5S2
> <PUBCHEM_MOLECULAR_WEIGHT>
715.9
> <PUBCHEM_OPENEYE_CAN_SMILES>
CC1=C(C(=CC=C1)C)OCC(=O)NC(CC2=CC=CC=C2)C(CN(CC(C)C)S(=O)(=O)C3=CC4=C(C=C3)N=C(S4)NCCC5=CC=CC=N5)O
> <PUBCHEM_OPENEYE_ISO_SMILES>
CC1=C(C(=CC=C1)C)OCC(=O)N[C@@H](CC2=CC=CC=C2)[C@@H](CN(CC(C)C)S(=O)(=O)C3=CC4=C(C=C3)N=C(S4)NCCC5=CC=CC=N5)O
> <PUBCHEM_CACTVS_TPSA>
170
> <PUBCHEM_MONOISOTOPIC_WEIGHT>
715.28621190
> <PUBCHEM_TOTAL_CHARGE>
0
> <PUBCHEM_HEAVY_ATOM_COUNT>
50
> <PUBCHEM_ATOM_DEF_STEREO_COUNT>
2
> <PUBCHEM_ATOM_UDEF_STEREO_COUNT>
0
> <PUBCHEM_BOND_DEF_STEREO_COUNT>
0
> <PUBCHEM_BOND_UDEF_STEREO_COUNT>
0
> <PUBCHEM_ISOTOPIC_ATOM_COUNT>
0
> <PUBCHEM_COMPONENT_COUNT>
1
> <PUBCHEM_CACTVS_TAUTO_COUNT>
-1
> <PUBCHEM_COORDINATE_TYPE>
1
5
255
> <PUBCHEM_BONDANNOTATIONS>
10  31  8
10  35  8
12  46  8
12  49  8
19  24  8
19  25  8
2  28  8
2  35  8
20  26  8
20  27  8
24  28  8
25  30  8
26  32  8
27  33  8
28  31  8
13  3  6
30  31  8
32  34  8
33  34  8
36  38  8
36  39  8
38  41  8
39  42  8
41  45  8
42  45  8
46  47  8
47  48  8
48  50  8
49  50  8
15  9  6
$$$$
