509712
  -OEChem-10302200282D
 85 87  0     1  0  0  0  0  0999 V2000
    8.1962   -0.2010    0.0000 S   0  0  0  0  0  0  0  0  0  0  0  0
   11.7404   -0.3962    0.0000 S   0  0  0  0  0  0  0  0  0  0  0  0
    5.5981    1.2990    0.0000 O   0  0  0  0  0  0  0  0  0  0  0  0
    7.6962   -1.0670    0.0000 O   0  0  0  0  0  0  0  0  0  0  0  0
    8.6962    0.6651    0.0000 O   0  0  0  0  0  0  0  0  0  0  0  0
    3.0000    1.7990    0.0000 O   0  0  0  0  0  0  0  0  0  0  0  0
    4.7320    1.7990    0.0000 O   0  0  0  0  0  0  0  0  0  0  0  0
   16.3241   -2.9330    0.0000 O   0  0  0  0  0  0  0  0  0  0  0  0
   14.8241   -3.7990    0.0000 O   0  0  0  0  0  0  0  0  0  0  0  0
    7.3301    0.2990    0.0000 N   0  0  3  0  0  0  0  0  0  0  0  0
    3.8660    0.2990    0.0000 N   0  0  0  0  0  0  0  0  0  0  0  0
   11.7404   -2.0057    0.0000 N   0  0  0  0  0  0  0  0  0  0  0  0
   13.3241   -1.2010    0.0000 N   0  0  0  0  0  0  0  0  0  0  0  0
    5.5981    0.2990    0.0000 C   0  0  2  0  0  0  0  0  0  0  0  0
    6.4641   -0.2010    0.0000 C   0  0  0  0  0  0  0  0  0  0  0  0
    4.7320   -0.2010    0.0000 C   0  0  2  0  0  0  0  0  0  0  0  0
    7.3301    1.2990    0.0000 C   0  0  0  0  0  0  0  0  0  0  0  0
    8.1962    1.7990    0.0000 C   0  0  0  0  0  0  0  0  0  0  0  0
    4.7320   -1.2010    0.0000 C   0  0  0  0  0  0  0  0  0  0  0  0
    9.0622   -0.7010    0.0000 C   0  0  0  0  0  0  0  0  0  0  0  0
    3.8660   -1.7010    0.0000 C   0  0  0  0  0  0  0  0  0  0  0  0
    8.1962    2.7990    0.0000 C   0  0  0  0  0  0  0  0  0  0  0  0
    9.0622    1.2990    0.0000 C   0  0  0  0  0  0  0  0  0  0  0  0
    3.8660    1.2990    0.0000 C   0  0  0  0  0  0  0  0  0  0  0  0
    9.9282   -0.2010    0.0000 C   0  0  0  0  0  0  0  0  0  0  0  0
    9.0622   -1.7010    0.0000 C   0  0  0  0  0  0  0  0  0  0  0  0
    3.8660   -2.7010    0.0000 C   0  0  0  0  0  0  0  0  0  0  0  0
    3.0000   -1.2010    0.0000 C   0  0  0  0  0  0  0  0  0  0  0  0
    3.0000    2.7990    0.0000 C   0  0  0  0  0  0  0  0  0  0  0  0
   10.7942   -0.7010    0.0000 C   0  0  0  0  0  0  0  0  0  0  0  0
    9.9282   -2.2010    0.0000 C   0  0  0  0  0  0  0  0  0  0  0  0
   10.7942   -1.7010    0.0000 C   0  0  0  0  0  0  0  0  0  0  0  0
    3.0000   -3.2010    0.0000 C   0  0  0  0  0  0  0  0  0  0  0  0
    2.1340   -1.7010    0.0000 C   0  0  0  0  0  0  0  0  0  0  0  0
    3.0000    3.7990    0.0000 C   0  0  0  0  0  0  0  0  0  0  0  0
    2.0000    2.7990    0.0000 C   0  0  0  0  0  0  0  0  0  0  0  0
    4.0000    2.7990    0.0000 C   0  0  0  0  0  0  0  0  0  0  0  0
    2.1340   -2.7010    0.0000 C   0  0  0  0  0  0  0  0  0  0  0  0
   12.3241   -1.2010    0.0000 C   0  0  0  0  0  0  0  0  0  0  0  0
   13.8241   -2.0670    0.0000 C   0  0  0  0  0  0  0  0  0  0  0  0
   14.8241   -2.0670    0.0000 C   0  0  0  0  0  0  0  0  0  0  0  0
   15.3241   -2.9330    0.0000 C   0  0  0  0  0  0  0  0  0  0  0  0
   16.8241   -3.7990    0.0000 C   0  0  0  0  0  0  0  0  0  0  0  0
    6.1350    0.6090    0.0000 H   0  0  0  0  0  0  0  0  0  0  0  0
    6.0656   -0.6759    0.0000 H   0  0  0  0  0  0  0  0  0  0  0  0
    6.8626   -0.6759    0.0000 H   0  0  0  0  0  0  0  0  0  0  0  0
    4.7320    0.4190    0.0000 H   0  0  0  0  0  0  0  0  0  0  0  0
    7.1181    1.8816    0.0000 H   0  0  0  0  0  0  0  0  0  0  0  0
    6.7196    1.1914    0.0000 H   0  0  0  0  0  0  0  0  0  0  0  0
    8.7331    2.1090    0.0000 H   0  0  0  0  0  0  0  0  0  0  0  0
    4.9441   -1.7836    0.0000 H   0  0  0  0  0  0  0  0  0  0  0  0
    5.3426   -1.0933    0.0000 H   0  0  0  0  0  0  0  0  0  0  0  0
    3.3291   -0.0110    0.0000 H   0  0  0  0  0  0  0  0  0  0  0  0
    8.8162    2.7990    0.0000 H   0  0  0  0  0  0  0  0  0  0  0  0
    8.1962    3.4190    0.0000 H   0  0  0  0  0  0  0  0  0  0  0  0
    7.5762    2.7990    0.0000 H   0  0  0  0  0  0  0  0  0  0  0  0
    8.7522    0.7621    0.0000 H   0  0  0  0  0  0  0  0  0  0  0  0
    9.5991    0.9890    0.0000 H   0  0  0  0  0  0  0  0  0  0  0  0
    9.3722    1.8360    0.0000 H   0  0  0  0  0  0  0  0  0  0  0  0
    6.1350    1.6090    0.0000 H   0  0  0  0  0  0  0  0  0  0  0  0
    9.9282    0.4190    0.0000 H   0  0  0  0  0  0  0  0  0  0  0  0
    8.5252   -2.0110    0.0000 H   0  0  0  0  0  0  0  0  0  0  0  0
    4.4030   -3.0110    0.0000 H   0  0  0  0  0  0  0  0  0  0  0  0
    3.0000   -0.5810    0.0000 H   0  0  0  0  0  0  0  0  0  0  0  0
    9.9282   -2.8210    0.0000 H   0  0  0  0  0  0  0  0  0  0  0  0
    3.0000   -3.8210    0.0000 H   0  0  0  0  0  0  0  0  0  0  0  0
    1.5970   -1.3910    0.0000 H   0  0  0  0  0  0  0  0  0  0  0  0
    3.6200    3.7990    0.0000 H   0  0  0  0  0  0  0  0  0  0  0  0
    3.0000    4.4190    0.0000 H   0  0  0  0  0  0  0  0  0  0  0  0
    2.3800    3.7990    0.0000 H   0  0  0  0  0  0  0  0  0  0  0  0
    2.0000    3.4190    0.0000 H   0  0  0  0  0  0  0  0  0  0  0  0
    1.3800    2.7990    0.0000 H   0  0  0  0  0  0  0  0  0  0  0  0
    2.0000    2.1790    0.0000 H   0  0  0  0  0  0  0  0  0  0  0  0
    4.0000    2.1790    0.0000 H   0  0  0  0  0  0  0  0  0  0  0  0
    4.6200    2.7990    0.0000 H   0  0  0  0  0  0  0  0  0  0  0  0
    4.0000    3.4190    0.0000 H   0  0  0  0  0  0  0  0  0  0  0  0
    1.5970   -3.0110    0.0000 H   0  0  0  0  0  0  0  0  0  0  0  0
   13.6341   -0.6640    0.0000 H   0  0  0  0  0  0  0  0  0  0  0  0
   13.2414   -2.2790    0.0000 H   0  0  0  0  0  0  0  0  0  0  0  0
   13.9317   -2.6776    0.0000 H   0  0  0  0  0  0  0  0  0  0  0  0
   15.4067   -1.8549    0.0000 H   0  0  0  0  0  0  0  0  0  0  0  0
   14.7164   -1.4564    0.0000 H   0  0  0  0  0  0  0  0  0  0  0  0
   16.2871   -4.1090    0.0000 H   0  0  0  0  0  0  0  0  0  0  0  0
   17.1341   -4.3360    0.0000 H   0  0  0  0  0  0  0  0  0  0  0  0
   17.3610   -3.4890    0.0000 H   0  0  0  0  0  0  0  0  0  0  0  0
  1  4  2  0  0  0  0
  1  5  2  0  0  0  0
  1 10  1  0  0  0  0
  1 20  1  0  0  0  0
  2 30  1  0  0  0  0
  2 39  1  0  0  0  0
 14  3  1  6  0  0  0
  3 60  1  0  0  0  0
  6 24  1  0  0  0  0
  6 29  1  0  0  0  0
  7 24  2  0  0  0  0
  8 42  1  0  0  0  0
  8 43  1  0  0  0  0
  9 42  2  0  0  0  0
 10 15  1  0  0  0  0
 10 17  1  0  0  0  0
 16 11  1  6  0  0  0
 11 24  1  0  0  0  0
 11 53  1  0  0  0  0
 12 32  1  0  0  0  0
 12 39  2  0  0  0  0
 13 39  1  0  0  0  0
 13 40  1  0  0  0  0
 13 78  1  0  0  0  0
 14 15  1  0  0  0  0
 14 16  1  0  0  0  0
 14 44  1  0  0  0  0
 15 45  1  0  0  0  0
 15 46  1  0  0  0  0
 16 19  1  0  0  0  0
 16 47  1  0  0  0  0
 17 18  1  0  0  0  0
 17 48  1  0  0  0  0
 17 49  1  0  0  0  0
 18 22  1  0  0  0  0
 18 23  1  0  0  0  0
 18 50  1  0  0  0  0
 19 21  1  0  0  0  0
 19 51  1  0  0  0  0
 19 52  1  0  0  0  0
 20 25  2  0  0  0  0
 20 26  1  0  0  0  0
 21 27  2  0  0  0  0
 21 28  1  0  0  0  0
 22 54  1  0  0  0  0
 22 55  1  0  0  0  0
 22 56  1  0  0  0  0
 23 57  1  0  0  0  0
 23 58  1  0  0  0  0
 23 59  1  0  0  0  0
 25 30  1  0  0  0  0
 25 61  1  0  0  0  0
 26 31  2  0  0  0  0
 26 62  1  0  0  0  0
 27 33  1  0  0  0  0
 27 63  1  0  0  0  0
 28 34  2  0  0  0  0
 28 64  1  0  0  0  0
 29 35  1  0  0  0  0
 29 36  1  0  0  0  0
 29 37  1  0  0  0  0
 30 32  2  0  0  0  0
 31 32  1  0  0  0  0
 31 65  1  0  0  0  0
 33 38  2  0  0  0  0
 33 66  1  0  0  0  0
 34 38  1  0  0  0  0
 34 67  1  0  0  0  0
 35 68  1  0  0  0  0
 35 69  1  0  0  0  0
 35 70  1  0  0  0  0
 36 71  1  0  0  0  0
 36 72  1  0  0  0  0
 36 73  1  0  0  0  0
 37 74  1  0  0  0  0
 37 75  1  0  0  0  0
 37 76  1  0  0  0  0
 38 77  1  0  0  0  0
 40 41  1  0  0  0  0
 40 79  1  0  0  0  0
 40 80  1  0  0  0  0
 41 42  1  0  0  0  0
 41 81  1  0  0  0  0
 41 82  1  0  0  0  0
 43 83  1  0  0  0  0
 43 84  1  0  0  0  0
 43 85  1  0  0  0  0
M  END
> <PUBCHEM_COMPOUND_CID>
509712
> <PUBCHEM_COMPOUND_CANONICALIZED>
1
> <PUBCHEM_CACTVS_COMPLEXITY>
995
> <PUBCHEM_CACTVS_HBOND_ACCEPTOR>
11
> <PUBCHEM_CACTVS_HBOND_DONOR>
3
> <PUBCHEM_CACTVS_ROTATABLE_BOND>
17
> <PUBCHEM_CACTVS_SUBSKEYS>
AAADcfB7uABgAAAAAAAAAAAAAAAAAWAAAAAwYAAAAAAAAFgB9AAAHgQQSAAADXzh3gYz2bLIFgqsAyTyfHDD8LlhCjlJmL04ZJmKMKrg2ZGMYAhulgLYyCeQwKAOAAQAAEAAAQAACAAAgAACAAAAAAAAAA==
> <PUBCHEM_IUPAC_OPENEYE_NAME>
methyl 3-[[6-[[(2R,3S)-3-(tert-butoxycarbonylamino)-2-hydroxy-4-phenyl-butyl]-isobutyl-sulfamoyl]-1,3-benzothiazol-2-yl]amino]propanoate
> <PUBCHEM_IUPAC_CAS_NAME>
3-[[6-[[(2R,3S)-2-hydroxy-3-[[(2-methylpropan-2-yl)oxy-oxomethyl]amino]-4-phenylbutyl]-(2-methylpropyl)sulfamoyl]-1,3-benzothiazol-2-yl]amino]propanoic acid methyl ester
> <PUBCHEM_IUPAC_NAME_MARKUP>
methyl 3-[[6-[[(2<I>R</I>,3<I>S</I>)-2-hydroxy-3-[(2-methylpropan-2-yl)oxycarbonylamino]-4-phenylbutyl]-(2-methylpropyl)sulfamoyl]-1,3-benzothiazol-2-yl]amino]propanoate
> <PUBCHEM_IUPAC_NAME>
methyl 3-[[6-[[(2R,3S)-2-hydroxy-3-[(2-methylpropan-2-yl)oxycarbonylamino]-4-phenylbutyl]-(2-methylpropyl)sulfamoyl]-1,3-benzothiazol-2-yl]amino]propanoate
> <PUBCHEM_IUPAC_SYSTEMATIC_NAME>
methyl 3-[[6-[[(2R,3S)-3-[(2-methylpropan-2-yl)oxycarbonylamino]-2-oxidanyl-4-phenyl-butyl]-(2-methylpropyl)sulfamoyl]-1,3-benzothiazol-2-yl]amino]propanoate
> <PUBCHEM_IUPAC_TRADITIONAL_NAME>
3-[[6-[[(2R,3S)-3-(tert-butoxycarbonylamino)-2-hydroxy-4-phenyl-butyl]-isobutyl-sulfamoyl]-1,3-benzothiazol-2-yl]amino]propionic acid methyl ester
> <PUBCHEM_IUPAC_INCHI>
InChI=1S/C30H42N4O7S2/c1-20(2)18-34(19-25(35)24(16-21-10-8-7-9-11-21)33-29(37)41-30(3,4)5)43(38,39)22-12-13-23-26(17-22)42-28(32-23)31-15-14-27(36)40-6/h7-13,17,20,24-25,35H,14-16,18-19H2,1-6H3,(H,31,32)(H,33,37)/t24-,25+/m0/s1
> <PUBCHEM_IUPAC_INCHIKEY>
GSHOXTLCJISFOH-LOSJGSFVSA-N
> <PUBCHEM_XLOGP3_AA>
5.7
> <PUBCHEM_EXACT_MASS>
634.24949204
> <PUBCHEM_MOLECULAR_FORMULA>
C30H42N4O7S2
> <PUBCHEM_MOLECULAR_WEIGHT>
634.8
> <PUBCHEM_OPENEYE_CAN_SMILES>
CC(C)CN(CC(C(CC1=CC=CC=C1)NC(=O)OC(C)(C)C)O)S(=O)(=O)C2=CC3=C(C=C2)N=C(S3)NCCC(=O)OC
> <PUBCHEM_OPENEYE_ISO_SMILES>
CC(C)CN(C[C@H]([C@H](CC1=CC=CC=C1)NC(=O)OC(C)(C)C)O)S(=O)(=O)C2=CC3=C(C=C2)N=C(S3)NCCC(=O)OC
> <PUBCHEM_CACTVS_TPSA>
184
> <PUBCHEM_MONOISOTOPIC_WEIGHT>
634.24949204
> <PUBCHEM_TOTAL_CHARGE>
0
> <PUBCHEM_HEAVY_ATOM_COUNT>
43
> <PUBCHEM_ATOM_DEF_STEREO_COUNT>
2
> <PUBCHEM_ATOM_UDEF_STEREO_COUNT>
0
> <PUBCHEM_BOND_DEF_STEREO_COUNT>
0
> <PUBCHEM_BOND_UDEF_STEREO_COUNT>
0
> <PUBCHEM_ISOTOPIC_ATOM_COUNT>
0
> <PUBCHEM_COMPONENT_COUNT>
1
> <PUBCHEM_CACTVS_TAUTO_COUNT>
-1
> <PUBCHEM_COORDINATE_TYPE>
1
5
255
> <PUBCHEM_BONDANNOTATIONS>
16  11  6
12  32  8
12  39  8
2  30  8
2  39  8
20  25  8
20  26  8
21  27  8
21  28  8
25  30  8
26  31  8
27  33  8
28  34  8
14  3  6
30  32  8
31  32  8
33  38  8
34  38  8
$$$$
