509714
  -OEChem-10302200282D
102106  0     1  0  0  0  0  0999 V2000
    9.7942   -0.2679    0.0000 S   0  0  0  0  0  0  0  0  0  0  0  0
   13.3385   -0.4632    0.0000 S   0  0  0  0  0  0  0  0  0  0  0  0
    7.1962    1.2320    0.0000 O   0  0  0  0  0  0  0  0  0  0  0  0
    9.2942   -1.1340    0.0000 O   0  0  0  0  0  0  0  0  0  0  0  0
   10.2942    0.5981    0.0000 O   0  0  0  0  0  0  0  0  0  0  0  0
    6.3301    1.7320    0.0000 O   0  0  0  0  0  0  0  0  0  0  0  0
    4.5981    2.7320    0.0000 O   0  0  0  0  0  0  0  0  0  0  0  0
   16.9221   -3.0000    0.0000 O   0  0  0  0  0  0  0  0  0  0  0  0
   14.9221   -3.0000    0.0000 O   0  0  0  0  0  0  0  0  0  0  0  0
    8.9282    0.2321    0.0000 N   0  0  3  0  0  0  0  0  0  0  0  0
    5.4641    0.2321    0.0000 N   0  0  0  0  0  0  0  0  0  0  0  0
   13.3385   -2.0727    0.0000 N   0  0  0  0  0  0  0  0  0  0  0  0
   14.9221   -1.2680    0.0000 N   0  0  0  0  0  0  0  0  0  0  0  0
    7.1962    0.2321    0.0000 C   0  0  2  0  0  0  0  0  0  0  0  0
    8.0622   -0.2679    0.0000 C   0  0  0  0  0  0  0  0  0  0  0  0
    6.3301   -0.2679    0.0000 C   0  0  2  0  0  0  0  0  0  0  0  0
    8.9282    1.2320    0.0000 C   0  0  0  0  0  0  0  0  0  0  0  0
    9.7942    1.7320    0.0000 C   0  0  0  0  0  0  0  0  0  0  0  0
    6.3301   -1.2680    0.0000 C   0  0  0  0  0  0  0  0  0  0  0  0
   10.6603   -0.7679    0.0000 C   0  0  0  0  0  0  0  0  0  0  0  0
    5.4641   -1.7680    0.0000 C   0  0  0  0  0  0  0  0  0  0  0  0
    9.7942    2.7320    0.0000 C   0  0  0  0  0  0  0  0  0  0  0  0
   10.6603    1.2320    0.0000 C   0  0  0  0  0  0  0  0  0  0  0  0
    5.4641    1.2320    0.0000 C   0  0  0  0  0  0  0  0  0  0  0  0
   11.5263   -0.2679    0.0000 C   0  0  0  0  0  0  0  0  0  0  0  0
   10.6603   -1.7680    0.0000 C   0  0  0  0  0  0  0  0  0  0  0  0
    5.4641   -2.7680    0.0000 C   0  0  0  0  0  0  0  0  0  0  0  0
    4.5981   -1.2680    0.0000 C   0  0  0  0  0  0  0  0  0  0  0  0
   12.3923   -0.7679    0.0000 C   0  0  0  0  0  0  0  0  0  0  0  0
    4.5981    1.7320    0.0000 C   0  0  0  0  0  0  0  0  0  0  0  0
   11.5263   -2.2680    0.0000 C   0  0  0  0  0  0  0  0  0  0  0  0
   12.3923   -1.7680    0.0000 C   0  0  0  0  0  0  0  0  0  0  0  0
    4.5981   -3.2680    0.0000 C   0  0  0  0  0  0  0  0  0  0  0  0
    3.7320   -1.7680    0.0000 C   0  0  0  0  0  0  0  0  0  0  0  0
    3.7320   -2.7680    0.0000 C   0  0  0  0  0  0  0  0  0  0  0  0
   13.9221   -1.2680    0.0000 C   0  0  0  0  0  0  0  0  0  0  0  0
    3.7320    3.2320    0.0000 C   0  0  0  0  0  0  0  0  0  0  0  0
    3.7320    4.2320    0.0000 C   0  0  0  0  0  0  0  0  0  0  0  0
    2.8660    2.7320    0.0000 C   0  0  0  0  0  0  0  0  0  0  0  0
   15.4221   -2.1340    0.0000 C   0  0  0  0  0  0  0  0  0  0  0  0
    2.8660    4.7320    0.0000 C   0  0  0  0  0  0  0  0  0  0  0  0
    2.0000    3.2320    0.0000 C   0  0  0  0  0  0  0  0  0  0  0  0
    4.5981    4.7320    0.0000 C   0  0  0  0  0  0  0  0  0  0  0  0
    2.8660    1.7320    0.0000 C   0  0  0  0  0  0  0  0  0  0  0  0
    2.0000    4.2320    0.0000 C   0  0  0  0  0  0  0  0  0  0  0  0
   16.4221   -2.1340    0.0000 C   0  0  0  0  0  0  0  0  0  0  0  0
   17.9221   -3.0000    0.0000 C   0  0  0  0  0  0  0  0  0  0  0  0
   18.4221   -3.8660    0.0000 C   0  0  0  0  0  0  0  0  0  0  0  0
   18.4221   -2.1340    0.0000 C   0  0  0  0  0  0  0  0  0  0  0  0
   19.4221   -3.8660    0.0000 C   0  0  0  0  0  0  0  0  0  0  0  0
   19.4221   -2.1340    0.0000 C   0  0  0  0  0  0  0  0  0  0  0  0
   17.9221   -4.7320    0.0000 C   0  0  0  0  0  0  0  0  0  0  0  0
   17.9221   -1.2680    0.0000 C   0  0  0  0  0  0  0  0  0  0  0  0
   19.9221   -3.0000    0.0000 C   0  0  0  0  0  0  0  0  0  0  0  0
    6.6592    0.5421    0.0000 H   0  0  0  0  0  0  0  0  0  0  0  0
    7.6636   -0.7429    0.0000 H   0  0  0  0  0  0  0  0  0  0  0  0
    8.4607   -0.7429    0.0000 H   0  0  0  0  0  0  0  0  0  0  0  0
    5.7932   -0.5779    0.0000 H   0  0  0  0  0  0  0  0  0  0  0  0
    8.7162    1.8147    0.0000 H   0  0  0  0  0  0  0  0  0  0  0  0
    8.3176    1.1244    0.0000 H   0  0  0  0  0  0  0  0  0  0  0  0
    9.2573    2.0420    0.0000 H   0  0  0  0  0  0  0  0  0  0  0  0
    6.5422   -1.8506    0.0000 H   0  0  0  0  0  0  0  0  0  0  0  0
    6.9407   -1.1603    0.0000 H   0  0  0  0  0  0  0  0  0  0  0  0
    4.9272   -0.0779    0.0000 H   0  0  0  0  0  0  0  0  0  0  0  0
   10.4142    2.7320    0.0000 H   0  0  0  0  0  0  0  0  0  0  0  0
    9.7942    3.3520    0.0000 H   0  0  0  0  0  0  0  0  0  0  0  0
    9.1742    2.7320    0.0000 H   0  0  0  0  0  0  0  0  0  0  0  0
   10.3503    0.6951    0.0000 H   0  0  0  0  0  0  0  0  0  0  0  0
   11.1972    0.9221    0.0000 H   0  0  0  0  0  0  0  0  0  0  0  0
   10.9703    1.7690    0.0000 H   0  0  0  0  0  0  0  0  0  0  0  0
    7.7331    1.5420    0.0000 H   0  0  0  0  0  0  0  0  0  0  0  0
   11.5263    0.3521    0.0000 H   0  0  0  0  0  0  0  0  0  0  0  0
   10.1233   -2.0780    0.0000 H   0  0  0  0  0  0  0  0  0  0  0  0
    6.0010   -3.0780    0.0000 H   0  0  0  0  0  0  0  0  0  0  0  0
    4.5981   -0.6479    0.0000 H   0  0  0  0  0  0  0  0  0  0  0  0
    3.9875    1.8397    0.0000 H   0  0  0  0  0  0  0  0  0  0  0  0
    4.3860    1.1494    0.0000 H   0  0  0  0  0  0  0  0  0  0  0  0
   11.5263   -2.8880    0.0000 H   0  0  0  0  0  0  0  0  0  0  0  0
    4.5981   -3.8880    0.0000 H   0  0  0  0  0  0  0  0  0  0  0  0
    3.1951   -1.4580    0.0000 H   0  0  0  0  0  0  0  0  0  0  0  0
    3.1951   -3.0780    0.0000 H   0  0  0  0  0  0  0  0  0  0  0  0
   15.2321   -0.7310    0.0000 H   0  0  0  0  0  0  0  0  0  0  0  0
    2.8660    5.3520    0.0000 H   0  0  0  0  0  0  0  0  0  0  0  0
    1.4631    2.9220    0.0000 H   0  0  0  0  0  0  0  0  0  0  0  0
    4.9081    4.1951    0.0000 H   0  0  0  0  0  0  0  0  0  0  0  0
    5.1350    5.0420    0.0000 H   0  0  0  0  0  0  0  0  0  0  0  0
    4.2881    5.2690    0.0000 H   0  0  0  0  0  0  0  0  0  0  0  0
    2.2460    1.7320    0.0000 H   0  0  0  0  0  0  0  0  0  0  0  0
    2.8660    1.1120    0.0000 H   0  0  0  0  0  0  0  0  0  0  0  0
    3.4860    1.7320    0.0000 H   0  0  0  0  0  0  0  0  0  0  0  0
    1.4631    4.5420    0.0000 H   0  0  0  0  0  0  0  0  0  0  0  0
   17.0047   -1.9219    0.0000 H   0  0  0  0  0  0  0  0  0  0  0  0
   16.3145   -1.5234    0.0000 H   0  0  0  0  0  0  0  0  0  0  0  0
   19.7321   -4.4030    0.0000 H   0  0  0  0  0  0  0  0  0  0  0  0
   19.7321   -1.5970    0.0000 H   0  0  0  0  0  0  0  0  0  0  0  0
   17.3852   -4.4220    0.0000 H   0  0  0  0  0  0  0  0  0  0  0  0
   17.6121   -5.2690    0.0000 H   0  0  0  0  0  0  0  0  0  0  0  0
   18.4591   -5.0420    0.0000 H   0  0  0  0  0  0  0  0  0  0  0  0
   18.4591   -0.9579    0.0000 H   0  0  0  0  0  0  0  0  0  0  0  0
   17.6121   -0.7310    0.0000 H   0  0  0  0  0  0  0  0  0  0  0  0
   17.3852   -1.5780    0.0000 H   0  0  0  0  0  0  0  0  0  0  0  0
   20.5421   -3.0000    0.0000 H   0  0  0  0  0  0  0  0  0  0  0  0
  1  4  2  0  0  0  0
  1  5  2  0  0  0  0
  1 10  1  0  0  0  0
  1 20  1  0  0  0  0
  2 29  1  0  0  0  0
  2 36  1  0  0  0  0
 14  3  1  6  0  0  0
  3 71  1  0  0  0  0
  6 24  2  0  0  0  0
  7 30  1  0  0  0  0
  7 37  1  0  0  0  0
  8 46  1  0  0  0  0
  8 47  1  0  0  0  0
  9 40  2  0  0  0  0
 10 15  1  0  0  0  0
 10 17  1  0  0  0  0
 16 11  1  6  0  0  0
 11 24  1  0  0  0  0
 11 64  1  0  0  0  0
 12 32  1  0  0  0  0
 12 36  2  0  0  0  0
 13 36  1  0  0  0  0
 13 40  1  0  0  0  0
 13 82  1  0  0  0  0
 14 15  1  0  0  0  0
 14 16  1  0  0  0  0
 14 55  1  0  0  0  0
 15 56  1  0  0  0  0
 15 57  1  0  0  0  0
 16 19  1  0  0  0  0
 16 58  1  0  0  0  0
 17 18  1  0  0  0  0
 17 59  1  0  0  0  0
 17 60  1  0  0  0  0
 18 22  1  0  0  0  0
 18 23  1  0  0  0  0
 18 61  1  0  0  0  0
 19 21  1  0  0  0  0
 19 62  1  0  0  0  0
 19 63  1  0  0  0  0
 20 25  2  0  0  0  0
 20 26  1  0  0  0  0
 21 27  2  0  0  0  0
 21 28  1  0  0  0  0
 22 65  1  0  0  0  0
 22 66  1  0  0  0  0
 22 67  1  0  0  0  0
 23 68  1  0  0  0  0
 23 69  1  0  0  0  0
 23 70  1  0  0  0  0
 24 30  1  0  0  0  0
 25 29  1  0  0  0  0
 25 72  1  0  0  0  0
 26 31  2  0  0  0  0
 26 73  1  0  0  0  0
 27 33  1  0  0  0  0
 27 74  1  0  0  0  0
 28 34  2  0  0  0  0
 28 75  1  0  0  0  0
 29 32  2  0  0  0  0
 30 76  1  0  0  0  0
 30 77  1  0  0  0  0
 31 32  1  0  0  0  0
 31 78  1  0  0  0  0
 33 35  2  0  0  0  0
 33 79  1  0  0  0  0
 34 35  1  0  0  0  0
 34 80  1  0  0  0  0
 35 81  1  0  0  0  0
 37 38  2  0  0  0  0
 37 39  1  0  0  0  0
 38 41  1  0  0  0  0
 38 43  1  0  0  0  0
 39 42  2  0  0  0  0
 39 44  1  0  0  0  0
 40 46  1  0  0  0  0
 41 45  2  0  0  0  0
 41 83  1  0  0  0  0
 42 45  1  0  0  0  0
 42 84  1  0  0  0  0
 43 85  1  0  0  0  0
 43 86  1  0  0  0  0
 43 87  1  0  0  0  0
 44 88  1  0  0  0  0
 44 89  1  0  0  0  0
 44 90  1  0  0  0  0
 45 91  1  0  0  0  0
 46 92  1  0  0  0  0
 46 93  1  0  0  0  0
 47 48  2  0  0  0  0
 47 49  1  0  0  0  0
 48 50  1  0  0  0  0
 48 52  1  0  0  0  0
 49 51  2  0  0  0  0
 49 53  1  0  0  0  0
 50 54  2  0  0  0  0
 50 94  1  0  0  0  0
 51 54  1  0  0  0  0
 51 95  1  0  0  0  0
 52 96  1  0  0  0  0
 52 97  1  0  0  0  0
 52 98  1  0  0  0  0
 53 99  1  0  0  0  0
 53100  1  0  0  0  0
 53101  1  0  0  0  0
 54102  1  0  0  0  0
M  END
> <PUBCHEM_COMPOUND_CID>
509714
> <PUBCHEM_COMPOUND_CANONICALIZED>
1
> <PUBCHEM_CACTVS_COMPLEXITY>
1270
> <PUBCHEM_CACTVS_HBOND_ACCEPTOR>
10
> <PUBCHEM_CACTVS_HBOND_DONOR>
3
> <PUBCHEM_CACTVS_ROTATABLE_BOND>
17
> <PUBCHEM_CACTVS_SUBSKEYS>
AAADcfB/uABgAAAAAAAAAAAAAAAAAWAAAAAwYMGAAAAAAFgB9AAAHgQQSAAADTzh3gYz17LIFgqsAyVydHLD+LlhKjlJmLx8bJiONqLk+Z+HeCjs1xPY6CeQwOAOAAQCAEAIAQAACAQAgBACAAAAAAAAAA==
> <PUBCHEM_IUPAC_OPENEYE_NAME>
2-(2,6-dimethylphenoxy)-N-[6-[[(2R,3S)-3-[[2-(2,6-dimethylphenoxy)acetyl]amino]-2-hydroxy-4-phenyl-butyl]-isobutyl-sulfamoyl]-1,3-benzothiazol-2-yl]acetamide
> <PUBCHEM_IUPAC_CAS_NAME>
2-(2,6-dimethylphenoxy)-N-[6-[[(2R,3S)-3-[[2-(2,6-dimethylphenoxy)-1-oxoethyl]amino]-2-hydroxy-4-phenylbutyl]-(2-methylpropyl)sulfamoyl]-1,3-benzothiazol-2-yl]acetamide
> <PUBCHEM_IUPAC_NAME_MARKUP>
2-(2,6-dimethylphenoxy)-<I>N</I>-[6-[[(2<I>R</I>,3<I>S</I>)-3-[[2-(2,6-dimethylphenoxy)acetyl]amino]-2-hydroxy-4-phenylbutyl]-(2-methylpropyl)sulfamoyl]-1,3-benzothiazol-2-yl]acetamide
> <PUBCHEM_IUPAC_NAME>
2-(2,6-dimethylphenoxy)-N-[6-[[(2R,3S)-3-[[2-(2,6-dimethylphenoxy)acetyl]amino]-2-hydroxy-4-phenylbutyl]-(2-methylpropyl)sulfamoyl]-1,3-benzothiazol-2-yl]acetamide
> <PUBCHEM_IUPAC_SYSTEMATIC_NAME>
2-(2,6-dimethylphenoxy)-N-[6-[[(2R,3S)-3-[2-(2,6-dimethylphenoxy)ethanoylamino]-2-oxidanyl-4-phenyl-butyl]-(2-methylpropyl)sulfamoyl]-1,3-benzothiazol-2-yl]ethanamide
> <PUBCHEM_IUPAC_TRADITIONAL_NAME>
2-(2,6-dimethylphenoxy)-N-[6-[[(2R,3S)-3-[[2-(2,6-dimethylphenoxy)acetyl]amino]-2-hydroxy-4-phenyl-butyl]-isobutyl-sulfamoyl]-1,3-benzothiazol-2-yl]acetamide
> <PUBCHEM_IUPAC_INCHI>
InChI=1S/C41H48N4O7S2/c1-26(2)22-45(23-35(46)34(20-31-16-8-7-9-17-31)42-37(47)24-51-39-27(3)12-10-13-28(39)4)54(49,50)32-18-19-33-36(21-32)53-41(43-33)44-38(48)25-52-40-29(5)14-11-15-30(40)6/h7-19,21,26,34-35,46H,20,22-25H2,1-6H3,(H,42,47)(H,43,44,48)/t34-,35+/m0/s1
> <PUBCHEM_IUPAC_INCHIKEY>
GTRMEVLUIZVUQH-OIDHKYIRSA-N
> <PUBCHEM_XLOGP3_AA>
7.9
> <PUBCHEM_EXACT_MASS>
772.29644223
> <PUBCHEM_MOLECULAR_FORMULA>
C41H48N4O7S2
> <PUBCHEM_MOLECULAR_WEIGHT>
773.0
> <PUBCHEM_OPENEYE_CAN_SMILES>
CC1=C(C(=CC=C1)C)OCC(=O)NC2=NC3=C(S2)C=C(C=C3)S(=O)(=O)N(CC(C)C)CC(C(CC4=CC=CC=C4)NC(=O)COC5=C(C=CC=C5C)C)O
> <PUBCHEM_OPENEYE_ISO_SMILES>
CC1=C(C(=CC=C1)C)OCC(=O)NC2=NC3=C(S2)C=C(C=C3)S(=O)(=O)N(C[C@H]([C@H](CC4=CC=CC=C4)NC(=O)COC5=C(C=CC=C5C)C)O)CC(C)C
> <PUBCHEM_CACTVS_TPSA>
184
> <PUBCHEM_MONOISOTOPIC_WEIGHT>
772.29644223
> <PUBCHEM_TOTAL_CHARGE>
0
> <PUBCHEM_HEAVY_ATOM_COUNT>
54
> <PUBCHEM_ATOM_DEF_STEREO_COUNT>
2
> <PUBCHEM_ATOM_UDEF_STEREO_COUNT>
0
> <PUBCHEM_BOND_DEF_STEREO_COUNT>
0
> <PUBCHEM_BOND_UDEF_STEREO_COUNT>
0
> <PUBCHEM_ISOTOPIC_ATOM_COUNT>
0
> <PUBCHEM_COMPONENT_COUNT>
1
> <PUBCHEM_CACTVS_TAUTO_COUNT>
-1
> <PUBCHEM_COORDINATE_TYPE>
1
5
255
> <PUBCHEM_BONDANNOTATIONS>
16  11  6
12  32  8
12  36  8
2  29  8
2  36  8
20  25  8
20  26  8
21  27  8
21  28  8
25  29  8
26  31  8
27  33  8
28  34  8
29  32  8
14  3  6
31  32  8
33  35  8
34  35  8
37  38  8
37  39  8
38  41  8
39  42  8
41  45  8
42  45  8
47  48  8
47  49  8
48  50  8
49  51  8
50  54  8
51  54  8
$$$$
