509809
  -OEChem-10302200282D
 46 50  0     1  0  0  0  0  0999 V2000
    8.5422   -0.3834    0.0000 S   0  0  0  0  0  0  0  0  0  0  0  0
    4.8000   -0.8652    0.0000 S   0  0  0  0  0  0  0  0  0  0  0  0
    6.6975   -2.7446    0.0000 O   0  0  0  0  0  0  0  0  0  0  0  0
   10.3218   -0.2901    0.0000 N   0  0  0  0  0  0  0  0  0  0  0  0
    9.3512   -1.7846    0.0000 N   0  0  0  0  0  0  0  0  0  0  0  0
    8.3731   -1.9925    0.0000 N   0  0  0  0  0  0  0  0  0  0  0  0
    6.8786   -1.0220    0.0000 N   0  0  0  0  0  0  0  0  0  0  0  0
   10.3218    0.7099    0.0000 C   0  0  3  0  0  0  0  0  0  0  0  0
    9.4558    1.2099    0.0000 C   0  0  0  0  0  0  0  0  0  0  0  0
    9.4558    2.2099    0.0000 C   0  0  0  0  0  0  0  0  0  0  0  0
   10.3218    2.7099    0.0000 C   0  0  0  0  0  0  0  0  0  0  0  0
   11.1878    1.2099    0.0000 C   0  0  0  0  0  0  0  0  0  0  0  0
   11.1878    2.2099    0.0000 C   0  0  0  0  0  0  0  0  0  0  0  0
   12.0818    0.6752    0.0000 C   0  0  0  0  0  0  0  0  0  0  0  0
   12.0818    2.7446    0.0000 C   0  0  0  0  0  0  0  0  0  0  0  0
   12.9878    1.1891    0.0000 C   0  0  0  0  0  0  0  0  0  0  0  0
   12.9878    2.2307    0.0000 C   0  0  0  0  0  0  0  0  0  0  0  0
    9.4558   -0.7901    0.0000 C   0  0  0  0  0  0  0  0  0  0  0  0
    7.8731   -1.1265    0.0000 C   0  0  0  0  0  0  0  0  0  0  0  0
    3.7226   -2.0638    0.0000 C   0  0  0  0  0  0  0  0  0  0  0  0
    5.2963   -1.7265    0.0000 C   0  0  0  0  0  0  0  0  0  0  0  0
    3.8271   -1.0693    0.0000 C   0  0  0  0  0  0  0  0  0  0  0  0
    4.6318   -2.4658    0.0000 C   0  0  0  0  0  0  0  0  0  0  0  0
    6.2908   -1.8310    0.0000 C   0  0  0  0  0  0  0  0  0  0  0  0
    2.8090   -2.4706    0.0000 C   0  0  0  0  0  0  0  0  0  0  0  0
    3.0181   -0.4815    0.0000 C   0  0  0  0  0  0  0  0  0  0  0  0
    2.0000   -1.8828    0.0000 C   0  0  0  0  0  0  0  0  0  0  0  0
    2.1045   -0.8883    0.0000 C   0  0  0  0  0  0  0  0  0  0  0  0
   10.8587    0.3999    0.0000 H   0  0  0  0  0  0  0  0  0  0  0  0
    8.8452    1.3176    0.0000 H   0  0  0  0  0  0  0  0  0  0  0  0
    9.2437    0.6273    0.0000 H   0  0  0  0  0  0  0  0  0  0  0  0
    9.2437    2.7925    0.0000 H   0  0  0  0  0  0  0  0  0  0  0  0
    8.8452    2.1022    0.0000 H   0  0  0  0  0  0  0  0  0  0  0  0
   10.7203    3.1848    0.0000 H   0  0  0  0  0  0  0  0  0  0  0  0
    9.9233    3.1848    0.0000 H   0  0  0  0  0  0  0  0  0  0  0  0
   10.8587   -0.6001    0.0000 H   0  0  0  0  0  0  0  0  0  0  0  0
   12.0746    0.0553    0.0000 H   0  0  0  0  0  0  0  0  0  0  0  0
   12.0746    3.3645    0.0000 H   0  0  0  0  0  0  0  0  0  0  0  0
   13.5236    0.8770    0.0000 H   0  0  0  0  0  0  0  0  0  0  0  0
   13.5236    2.5428    0.0000 H   0  0  0  0  0  0  0  0  0  0  0  0
    6.6264   -0.4556    0.0000 H   0  0  0  0  0  0  0  0  0  0  0  0
    4.7617   -3.0720    0.0000 H   0  0  0  0  0  0  0  0  0  0  0  0
    2.7442   -3.0872    0.0000 H   0  0  0  0  0  0  0  0  0  0  0  0
    3.0829    0.1351    0.0000 H   0  0  0  0  0  0  0  0  0  0  0  0
    1.4336   -2.1350    0.0000 H   0  0  0  0  0  0  0  0  0  0  0  0
    1.6029   -0.5238    0.0000 H   0  0  0  0  0  0  0  0  0  0  0  0
  1 18  1  0  0  0  0
  1 19  1  0  0  0  0
  2 21  1  0  0  0  0
  2 22  1  0  0  0  0
  3 24  2  0  0  0  0
  4  8  1  0  0  0  0
  4 18  1  0  0  0  0
  4 36  1  0  0  0  0
  5  6  1  0  0  0  0
  5 18  2  0  0  0  0
  6 19  2  0  0  0  0
  7 19  1  0  0  0  0
  7 24  1  0  0  0  0
  7 41  1  0  0  0  0
  8  9  1  0  0  0  0
  8 12  1  0  0  0  0
  8 29  1  0  0  0  0
  9 10  1  0  0  0  0
  9 30  1  0  0  0  0
  9 31  1  0  0  0  0
 10 11  1  0  0  0  0
 10 32  1  0  0  0  0
 10 33  1  0  0  0  0
 11 13  1  0  0  0  0
 11 34  1  0  0  0  0
 11 35  1  0  0  0  0
 12 13  1  0  0  0  0
 12 14  2  0  0  0  0
 13 15  2  0  0  0  0
 14 16  1  0  0  0  0
 14 37  1  0  0  0  0
 15 17  1  0  0  0  0
 15 38  1  0  0  0  0
 16 17  2  0  0  0  0
 16 39  1  0  0  0  0
 17 40  1  0  0  0  0
 20 22  1  0  0  0  0
 20 23  1  0  0  0  0
 20 25  2  0  0  0  0
 21 23  2  0  0  0  0
 21 24  1  0  0  0  0
 22 26  2  0  0  0  0
 23 42  1  0  0  0  0
 25 27  1  0  0  0  0
 25 43  1  0  0  0  0
 26 28  1  0  0  0  0
 26 44  1  0  0  0  0
 27 28  2  0  0  0  0
 27 45  1  0  0  0  0
 28 46  1  0  0  0  0
M  END
> <PUBCHEM_COMPOUND_CID>
509809
> <PUBCHEM_COMPOUND_CANONICALIZED>
1
> <PUBCHEM_CACTVS_COMPLEXITY>
565
> <PUBCHEM_CACTVS_HBOND_ACCEPTOR>
6
> <PUBCHEM_CACTVS_HBOND_DONOR>
2
> <PUBCHEM_CACTVS_ROTATABLE_BOND>
4
> <PUBCHEM_CACTVS_SUBSKEYS>
AAADceB7oABgAAAAAAAAAAAAAAAAAWJAAAAwYMAAAAAAAEjB/AAAHgQYAAAADCjB2AQxEcLAAAiuAiFSMACTAIJkCBlNiJkIBMiIIDKgnRGEIQhwkQIoiYcYiICOgAAAAAAUAAAAAACAACwAAAAAAAAAAA==
> <PUBCHEM_IUPAC_OPENEYE_NAME>
N-[5-(tetralin-1-ylamino)-1,3,4-thiadiazol-2-yl]benzothiophene-2-carboxamide
> <PUBCHEM_IUPAC_CAS_NAME>
N-[5-(1,2,3,4-tetrahydronaphthalen-1-ylamino)-1,3,4-thiadiazol-2-yl]-1-benzothiophene-2-carboxamide
> <PUBCHEM_IUPAC_NAME_MARKUP>
<I>N</I>-[5-(1,2,3,4-tetrahydronaphthalen-1-ylamino)-1,3,4-thiadiazol-2-yl]-1-benzothiophene-2-carboxamide
> <PUBCHEM_IUPAC_NAME>
N-[5-(1,2,3,4-tetrahydronaphthalen-1-ylamino)-1,3,4-thiadiazol-2-yl]-1-benzothiophene-2-carboxamide
> <PUBCHEM_IUPAC_SYSTEMATIC_NAME>
N-[5-(1,2,3,4-tetrahydronaphthalen-1-ylamino)-1,3,4-thiadiazol-2-yl]-1-benzothiophene-2-carboxamide
> <PUBCHEM_IUPAC_TRADITIONAL_NAME>
N-[5-(tetralin-1-ylamino)-1,3,4-thiadiazol-2-yl]benzothiophene-2-carboxamide
> <PUBCHEM_IUPAC_INCHI>
InChI=1S/C21H18N4OS2/c26-19(18-12-14-7-2-4-11-17(14)27-18)23-21-25-24-20(28-21)22-16-10-5-8-13-6-1-3-9-15(13)16/h1-4,6-7,9,11-12,16H,5,8,10H2,(H,22,24)(H,23,25,26)
> <PUBCHEM_IUPAC_INCHIKEY>
JWJQJOZFTCWCGG-UHFFFAOYSA-N
> <PUBCHEM_XLOGP3_AA>
5.5
> <PUBCHEM_EXACT_MASS>
406.09220356
> <PUBCHEM_MOLECULAR_FORMULA>
C21H18N4OS2
> <PUBCHEM_MOLECULAR_WEIGHT>
406.5
> <PUBCHEM_OPENEYE_CAN_SMILES>
C1CC(C2=CC=CC=C2C1)NC3=NN=C(S3)NC(=O)C4=CC5=CC=CC=C5S4
> <PUBCHEM_OPENEYE_ISO_SMILES>
C1CC(C2=CC=CC=C2C1)NC3=NN=C(S3)NC(=O)C4=CC5=CC=CC=C5S4
> <PUBCHEM_CACTVS_TPSA>
123
> <PUBCHEM_MONOISOTOPIC_WEIGHT>
406.09220356
> <PUBCHEM_TOTAL_CHARGE>
0
> <PUBCHEM_HEAVY_ATOM_COUNT>
28
> <PUBCHEM_ATOM_DEF_STEREO_COUNT>
0
> <PUBCHEM_ATOM_UDEF_STEREO_COUNT>
1
> <PUBCHEM_BOND_DEF_STEREO_COUNT>
0
> <PUBCHEM_BOND_UDEF_STEREO_COUNT>
0
> <PUBCHEM_ISOTOPIC_ATOM_COUNT>
0
> <PUBCHEM_COMPONENT_COUNT>
1
> <PUBCHEM_CACTVS_TAUTO_COUNT>
-1
> <PUBCHEM_COORDINATE_TYPE>
1
5
255
> <PUBCHEM_BONDANNOTATIONS>
1  18  8
1  19  8
12  13  8
12  14  8
13  15  8
14  16  8
15  17  8
16  17  8
2  21  8
2  22  8
20  22  8
20  23  8
20  25  8
21  23  8
22  26  8
25  27  8
26  28  8
27  28  8
8  4  3
5  18  8
5  6  8
6  19  8
$$$$
