509868
  -OEChem-10302200282D
 52 56  0     1  0  0  0  0  0999 V2000
    8.3497    0.1766    0.0000 S   0  0  0  0  0  0  0  0  0  0  0  0
    4.6783   -0.5711    0.0000 S   0  0  0  0  0  0  0  0  0  0  0  0
    6.7619    1.0996    0.0000 O   0  0  0  0  0  0  0  0  0  0  0  0
   10.1097    0.4554    0.0000 N   0  0  0  0  0  0  0  0  0  0  0  0
    9.3007   -1.1324    0.0000 N   0  0  0  0  0  0  0  0  0  0  0  0
    8.3497   -1.4414    0.0000 N   0  0  0  0  0  0  0  0  0  0  0  0
    6.7619   -0.6324    0.0000 N   0  0  0  0  0  0  0  0  0  0  0  0
   14.0223   -1.0466    0.0000 C   0  0  0  0  0  0  0  0  0  0  0  0
   13.2328    0.1082    0.0000 C   0  0  3  0  0  0  0  0  0  0  0  0
   14.1783    0.4338    0.0000 C   0  0  3  0  0  0  0  0  0  0  0  0
   14.5810    1.5939    0.0000 C   0  0  0  0  0  0  0  0  0  0  0  0
   11.8323    0.6364    0.0000 C   0  0  1  0  0  0  0  0  0  0  0  0
   12.7834    1.9454    0.0000 C   0  0  0  0  0  0  0  0  0  0  0  0
   11.8323    1.6364    0.0000 C   0  0  0  0  0  0  0  0  0  0  0  0
   14.9211   -1.4850    0.0000 C   0  0  0  0  0  0  0  0  0  0  0  0
   13.5840   -1.9454    0.0000 C   0  0  0  0  0  0  0  0  0  0  0  0
   11.0233    0.0486    0.0000 C   0  0  0  0  0  0  0  0  0  0  0  0
    9.3007   -0.1324    0.0000 C   0  0  0  0  0  0  0  0  0  0  0  0
    7.7619   -0.6324    0.0000 C   0  0  0  0  0  0  0  0  0  0  0  0
    6.2619    0.2336    0.0000 C   0  0  0  0  0  0  0  0  0  0  0  0
    5.2619    0.2336    0.0000 C   0  0  0  0  0  0  0  0  0  0  0  0
    4.6783    1.0383    0.0000 C   0  0  0  0  0  0  0  0  0  0  0  0
    3.7320    0.7336    0.0000 C   0  0  0  0  0  0  0  0  0  0  0  0
    3.7320   -0.2664    0.0000 C   0  0  0  0  0  0  0  0  0  0  0  0
    2.8660    1.2336    0.0000 C   0  0  0  0  0  0  0  0  0  0  0  0
    2.8660   -0.7664    0.0000 C   0  0  0  0  0  0  0  0  0  0  0  0
    2.0000    0.7336    0.0000 C   0  0  0  0  0  0  0  0  0  0  0  0
    2.0000   -0.2664    0.0000 C   0  0  0  0  0  0  0  0  0  0  0  0
   12.8498   -0.3793    0.0000 H   0  0  0  0  0  0  0  0  0  0  0  0
   14.7834    0.2988    0.0000 H   0  0  0  0  0  0  0  0  0  0  0  0
   15.2000    1.6282    0.0000 H   0  0  0  0  0  0  0  0  0  0  0  0
   14.3144    2.1537    0.0000 H   0  0  0  0  0  0  0  0  0  0  0  0
   11.2799    0.9179    0.0000 H   0  0  0  0  0  0  0  0  0  0  0  0
   13.2945    2.2963    0.0000 H   0  0  0  0  0  0  0  0  0  0  0  0
   12.5093    2.5016    0.0000 H   0  0  0  0  0  0  0  0  0  0  0  0
   11.7034    2.2429    0.0000 H   0  0  0  0  0  0  0  0  0  0  0  0
   11.2157    1.5716    0.0000 H   0  0  0  0  0  0  0  0  0  0  0  0
   14.6493   -2.0423    0.0000 H   0  0  0  0  0  0  0  0  0  0  0  0
   15.4784   -1.7568    0.0000 H   0  0  0  0  0  0  0  0  0  0  0  0
   15.1929   -0.9278    0.0000 H   0  0  0  0  0  0  0  0  0  0  0  0
   13.0267   -1.6736    0.0000 H   0  0  0  0  0  0  0  0  0  0  0  0
   13.3122   -2.5027    0.0000 H   0  0  0  0  0  0  0  0  0  0  0  0
   14.1412   -2.2172    0.0000 H   0  0  0  0  0  0  0  0  0  0  0  0
   10.6766   -0.4654    0.0000 H   0  0  0  0  0  0  0  0  0  0  0  0
   11.4693   -0.3821    0.0000 H   0  0  0  0  0  0  0  0  0  0  0  0
   10.0449    1.0720    0.0000 H   0  0  0  0  0  0  0  0  0  0  0  0
    6.4519   -1.1694    0.0000 H   0  0  0  0  0  0  0  0  0  0  0  0
    4.8709    1.6277    0.0000 H   0  0  0  0  0  0  0  0  0  0  0  0
    2.8660    1.8536    0.0000 H   0  0  0  0  0  0  0  0  0  0  0  0
    2.8660   -1.3864    0.0000 H   0  0  0  0  0  0  0  0  0  0  0  0
    1.4631    1.0436    0.0000 H   0  0  0  0  0  0  0  0  0  0  0  0
    1.4631   -0.5764    0.0000 H   0  0  0  0  0  0  0  0  0  0  0  0
  1 18  1  0  0  0  0
  1 19  1  0  0  0  0
  2 21  1  0  0  0  0
  2 24  1  0  0  0  0
  3 20  2  0  0  0  0
  4 17  1  0  0  0  0
  4 18  1  0  0  0  0
  4 46  1  0  0  0  0
  5  6  1  0  0  0  0
  5 18  2  0  0  0  0
  6 19  2  0  0  0  0
  7 19  1  0  0  0  0
  7 20  1  0  0  0  0
  7 47  1  0  0  0  0
  8  9  1  0  0  0  0
  8 10  1  0  0  0  0
  8 15  1  0  0  0  0
  8 16  1  0  0  0  0
  9 11  1  0  0  0  0
  9 12  1  0  0  0  0
  9 29  1  0  0  0  0
 10 11  1  0  0  0  0
 10 13  1  0  0  0  0
 10 30  1  0  0  0  0
 11 31  1  0  0  0  0
 11 32  1  0  0  0  0
 12 14  1  0  0  0  0
 12 17  1  6  0  0  0
 12 33  1  0  0  0  0
 13 14  1  0  0  0  0
 13 34  1  0  0  0  0
 13 35  1  0  0  0  0
 14 36  1  0  0  0  0
 14 37  1  0  0  0  0
 15 38  1  0  0  0  0
 15 39  1  0  0  0  0
 15 40  1  0  0  0  0
 16 41  1  0  0  0  0
 16 42  1  0  0  0  0
 16 43  1  0  0  0  0
 17 44  1  0  0  0  0
 17 45  1  0  0  0  0
 20 21  1  0  0  0  0
 21 22  2  0  0  0  0
 22 23  1  0  0  0  0
 22 48  1  0  0  0  0
 23 24  1  0  0  0  0
 23 25  2  0  0  0  0
 24 26  2  0  0  0  0
 25 27  1  0  0  0  0
 25 49  1  0  0  0  0
 26 28  1  0  0  0  0
 26 50  1  0  0  0  0
 27 28  2  0  0  0  0
 27 51  1  0  0  0  0
 28 52  1  0  0  0  0
M  END
> <PUBCHEM_COMPOUND_CID>
509868
> <PUBCHEM_COMPOUND_CANONICALIZED>
1
> <PUBCHEM_CACTVS_COMPLEXITY>
603
> <PUBCHEM_CACTVS_HBOND_ACCEPTOR>
6
> <PUBCHEM_CACTVS_HBOND_DONOR>
2
> <PUBCHEM_CACTVS_ROTATABLE_BOND>
5
> <PUBCHEM_CACTVS_SUBSKEYS>
AAADceB7oABgAAAAAAAAAAAAAABgAWJAAAAwYMAAAAAAAEgB/AAAHgQYAAAADwDB2AQzEcLAAAiuAiFSMACTAIJkCBlNiJkIBMiIIDKgnRGEIQhwkQIoiYcYiMCPgAAAAAAEAACAAAQAACgAAAAAAAAAAA==
> <PUBCHEM_IUPAC_OPENEYE_NAME>
N-[5-[[(2R)-6,6-dimethylnorpinan-2-yl]methylamino]-1,3,4-thiadiazol-2-yl]benzothiophene-2-carboxamide
> <PUBCHEM_IUPAC_CAS_NAME>
N-[5-[[(2R)-6,6-dimethyl-2-bicyclo[3.1.1]heptanyl]methylamino]-1,3,4-thiadiazol-2-yl]-1-benzothiophene-2-carboxamide
> <PUBCHEM_IUPAC_NAME_MARKUP>
<I>N</I>-[5-[[(2<I>R</I>)-6,6-dimethyl-2-bicyclo[3.1.1]heptanyl]methylamino]-1,3,4-thiadiazol-2-yl]-1-benzothiophene-2-carboxamide
> <PUBCHEM_IUPAC_NAME>
N-[5-[[(2R)-6,6-dimethyl-2-bicyclo[3.1.1]heptanyl]methylamino]-1,3,4-thiadiazol-2-yl]-1-benzothiophene-2-carboxamide
> <PUBCHEM_IUPAC_SYSTEMATIC_NAME>
N-[5-[[(2R)-6,6-dimethyl-2-bicyclo[3.1.1]heptanyl]methylamino]-1,3,4-thiadiazol-2-yl]-1-benzothiophene-2-carboxamide
> <PUBCHEM_IUPAC_TRADITIONAL_NAME>
N-[5-[[(2R)-6,6-dimethylnorpinan-2-yl]methylamino]-1,3,4-thiadiazol-2-yl]benzothiophene-2-carboxamide
> <PUBCHEM_IUPAC_INCHI>
InChI=1S/C21H24N4OS2/c1-21(2)14-8-7-13(15(21)10-14)11-22-19-24-25-20(28-19)23-18(26)17-9-12-5-3-4-6-16(12)27-17/h3-6,9,13-15H,7-8,10-11H2,1-2H3,(H,22,24)(H,23,25,26)/t13-,14?,15?/m0/s1
> <PUBCHEM_IUPAC_INCHIKEY>
ZXCPZUQJTUIQHM-NFOMZHRRSA-N
> <PUBCHEM_XLOGP3_AA>
6.2
> <PUBCHEM_EXACT_MASS>
412.13915375
> <PUBCHEM_MOLECULAR_FORMULA>
C21H24N4OS2
> <PUBCHEM_MOLECULAR_WEIGHT>
412.6
> <PUBCHEM_OPENEYE_CAN_SMILES>
CC1(C2CCC(C1C2)CNC3=NN=C(S3)NC(=O)C4=CC5=CC=CC=C5S4)C
> <PUBCHEM_OPENEYE_ISO_SMILES>
CC1(C2CC[C@H](C1C2)CNC3=NN=C(S3)NC(=O)C4=CC5=CC=CC=C5S4)C
> <PUBCHEM_CACTVS_TPSA>
123
> <PUBCHEM_MONOISOTOPIC_WEIGHT>
412.13915375
> <PUBCHEM_TOTAL_CHARGE>
0
> <PUBCHEM_HEAVY_ATOM_COUNT>
28
> <PUBCHEM_ATOM_DEF_STEREO_COUNT>
1
> <PUBCHEM_ATOM_UDEF_STEREO_COUNT>
2
> <PUBCHEM_BOND_DEF_STEREO_COUNT>
0
> <PUBCHEM_BOND_UDEF_STEREO_COUNT>
0
> <PUBCHEM_ISOTOPIC_ATOM_COUNT>
0
> <PUBCHEM_COMPONENT_COUNT>
1
> <PUBCHEM_CACTVS_TAUTO_COUNT>
-1
> <PUBCHEM_COORDINATE_TYPE>
1
5
255
> <PUBCHEM_BONDANNOTATIONS>
1  18  8
1  19  8
10  13  3
12  17  6
2  21  8
2  24  8
21  22  8
22  23  8
23  24  8
23  25  8
24  26  8
25  27  8
26  28  8
27  28  8
5  18  8
5  6  8
6  19  8
9  11  3
$$$$
