509839
  -OEChem-10302200282D
 47 50  0     1  0  0  0  0  0999 V2000
    4.1701   -0.4607    0.0000 Cl  0  0  0  0  0  0  0  0  0  0  0  0
    8.8173   -0.1357    0.0000 S   0  0  0  0  0  0  0  0  0  0  0  0
    6.9726   -2.4968    0.0000 O   0  0  0  0  0  0  0  0  0  0  0  0
   10.5969   -0.0424    0.0000 N   0  0  0  0  0  0  0  0  0  0  0  0
    9.6263   -1.5369    0.0000 N   0  0  0  0  0  0  0  0  0  0  0  0
    8.6482   -1.7448    0.0000 N   0  0  0  0  0  0  0  0  0  0  0  0
    7.1537   -0.7743    0.0000 N   0  0  0  0  0  0  0  0  0  0  0  0
   10.5969    0.9576    0.0000 C   0  0  3  0  0  0  0  0  0  0  0  0
    9.7309    1.4576    0.0000 C   0  0  0  0  0  0  0  0  0  0  0  0
    9.7309    2.4576    0.0000 C   0  0  0  0  0  0  0  0  0  0  0  0
   10.5969    2.9576    0.0000 C   0  0  0  0  0  0  0  0  0  0  0  0
   11.4629    1.4576    0.0000 C   0  0  0  0  0  0  0  0  0  0  0  0
   11.4629    2.4576    0.0000 C   0  0  0  0  0  0  0  0  0  0  0  0
   12.3568    0.9229    0.0000 C   0  0  0  0  0  0  0  0  0  0  0  0
   12.3568    2.9923    0.0000 C   0  0  0  0  0  0  0  0  0  0  0  0
   13.2629    1.4368    0.0000 C   0  0  0  0  0  0  0  0  0  0  0  0
   13.2629    2.4784    0.0000 C   0  0  0  0  0  0  0  0  0  0  0  0
    9.7309   -0.5424    0.0000 C   0  0  0  0  0  0  0  0  0  0  0  0
    8.1482   -0.8788    0.0000 C   0  0  0  0  0  0  0  0  0  0  0  0
    6.5659   -1.5833    0.0000 C   0  0  0  0  0  0  0  0  0  0  0  0
    5.5714   -1.4788    0.0000 C   0  0  0  0  0  0  0  0  0  0  0  0
    3.9890   -2.1832    0.0000 C   0  0  0  0  0  0  0  0  0  0  0  0
    4.9836   -2.2878    0.0000 C   0  0  0  0  0  0  0  0  0  0  0  0
    3.5823   -1.2697    0.0000 C   0  0  0  0  0  0  0  0  0  0  0  0
    3.4013   -2.9923    0.0000 C   0  0  0  0  0  0  0  0  0  0  0  0
    2.5878   -1.1652    0.0000 C   0  0  0  0  0  0  0  0  0  0  0  0
    2.4067   -2.8877    0.0000 C   0  0  0  0  0  0  0  0  0  0  0  0
    2.0000   -1.9742    0.0000 C   0  0  0  0  0  0  0  0  0  0  0  0
   11.1338    0.6476    0.0000 H   0  0  0  0  0  0  0  0  0  0  0  0
    9.1203    1.5653    0.0000 H   0  0  0  0  0  0  0  0  0  0  0  0
    9.5188    0.8750    0.0000 H   0  0  0  0  0  0  0  0  0  0  0  0
    9.5188    3.0402    0.0000 H   0  0  0  0  0  0  0  0  0  0  0  0
    9.1203    2.3499    0.0000 H   0  0  0  0  0  0  0  0  0  0  0  0
   10.9954    3.4326    0.0000 H   0  0  0  0  0  0  0  0  0  0  0  0
   10.1984    3.4326    0.0000 H   0  0  0  0  0  0  0  0  0  0  0  0
   11.1338   -0.3524    0.0000 H   0  0  0  0  0  0  0  0  0  0  0  0
   12.3497    0.3030    0.0000 H   0  0  0  0  0  0  0  0  0  0  0  0
   12.3497    3.6122    0.0000 H   0  0  0  0  0  0  0  0  0  0  0  0
   13.7987    1.1247    0.0000 H   0  0  0  0  0  0  0  0  0  0  0  0
   13.7987    2.7905    0.0000 H   0  0  0  0  0  0  0  0  0  0  0  0
    6.9015   -0.2079    0.0000 H   0  0  0  0  0  0  0  0  0  0  0  0
    5.3192   -0.9124    0.0000 H   0  0  0  0  0  0  0  0  0  0  0  0
    5.2357   -2.8542    0.0000 H   0  0  0  0  0  0  0  0  0  0  0  0
    3.6534   -3.5587    0.0000 H   0  0  0  0  0  0  0  0  0  0  0  0
    2.3356   -0.5988    0.0000 H   0  0  0  0  0  0  0  0  0  0  0  0
    2.0423   -3.3893    0.0000 H   0  0  0  0  0  0  0  0  0  0  0  0
    1.3834   -1.9094    0.0000 H   0  0  0  0  0  0  0  0  0  0  0  0
  1 24  1  0  0  0  0
  2 18  1  0  0  0  0
  2 19  1  0  0  0  0
  3 20  2  0  0  0  0
  4  8  1  0  0  0  0
  4 18  1  0  0  0  0
  4 36  1  0  0  0  0
  5  6  1  0  0  0  0
  5 18  2  0  0  0  0
  6 19  2  0  0  0  0
  7 19  1  0  0  0  0
  7 20  1  0  0  0  0
  7 41  1  0  0  0  0
  8  9  1  0  0  0  0
  8 12  1  0  0  0  0
  8 29  1  0  0  0  0
  9 10  1  0  0  0  0
  9 30  1  0  0  0  0
  9 31  1  0  0  0  0
 10 11  1  0  0  0  0
 10 32  1  0  0  0  0
 10 33  1  0  0  0  0
 11 13  1  0  0  0  0
 11 34  1  0  0  0  0
 11 35  1  0  0  0  0
 12 13  1  0  0  0  0
 12 14  2  0  0  0  0
 13 15  2  0  0  0  0
 14 16  1  0  0  0  0
 14 37  1  0  0  0  0
 15 17  1  0  0  0  0
 15 38  1  0  0  0  0
 16 17  2  0  0  0  0
 16 39  1  0  0  0  0
 17 40  1  0  0  0  0
 20 21  1  0  0  0  0
 21 23  2  3  0  0  0
 21 42  1  0  0  0  0
 22 23  1  0  0  0  0
 22 24  1  0  0  0  0
 22 25  2  0  0  0  0
 23 43  1  0  0  0  0
 24 26  2  0  0  0  0
 25 27  1  0  0  0  0
 25 44  1  0  0  0  0
 26 28  1  0  0  0  0
 26 45  1  0  0  0  0
 27 28  2  0  0  0  0
 27 46  1  0  0  0  0
 28 47  1  0  0  0  0
M  END
> <PUBCHEM_COMPOUND_CID>
509839
> <PUBCHEM_COMPOUND_CANONICALIZED>
1
> <PUBCHEM_CACTVS_COMPLEXITY>
563
> <PUBCHEM_CACTVS_HBOND_ACCEPTOR>
5
> <PUBCHEM_CACTVS_HBOND_DONOR>
2
> <PUBCHEM_CACTVS_ROTATABLE_BOND>
5
> <PUBCHEM_CACTVS_SUBSKEYS>
AAADceB7oABEAAAAAAAAAAAAAAAAAWAAAAAwYMAAAAAAAADB0AAAHgYYAAAADCrBmCQxEILAAAiuAiFSMACSAAJgBQkNiIAIBsiIICKBmxGEIAhwkQIIiYcQgIAOgAAAAAARAAAAAACAACYAAAAAAAAAAA==
> <PUBCHEM_IUPAC_OPENEYE_NAME>
3-(2-chlorophenyl)-N-[5-(tetralin-1-ylamino)-1,3,4-thiadiazol-2-yl]prop-2-enamide
> <PUBCHEM_IUPAC_CAS_NAME>
3-(2-chlorophenyl)-N-[5-(1,2,3,4-tetrahydronaphthalen-1-ylamino)-1,3,4-thiadiazol-2-yl]-2-propenamide
> <PUBCHEM_IUPAC_NAME_MARKUP>
3-(2-chlorophenyl)-<I>N</I>-[5-(1,2,3,4-tetrahydronaphthalen-1-ylamino)-1,3,4-thiadiazol-2-yl]prop-2-enamide
> <PUBCHEM_IUPAC_NAME>
3-(2-chlorophenyl)-N-[5-(1,2,3,4-tetrahydronaphthalen-1-ylamino)-1,3,4-thiadiazol-2-yl]prop-2-enamide
> <PUBCHEM_IUPAC_SYSTEMATIC_NAME>
3-(2-chlorophenyl)-N-[5-(1,2,3,4-tetrahydronaphthalen-1-ylamino)-1,3,4-thiadiazol-2-yl]prop-2-enamide
> <PUBCHEM_IUPAC_TRADITIONAL_NAME>
3-(2-chlorophenyl)-N-[5-(tetralin-1-ylamino)-1,3,4-thiadiazol-2-yl]acrylamide
> <PUBCHEM_IUPAC_INCHI>
InChI=1S/C21H19ClN4OS/c22-17-10-4-2-7-15(17)12-13-19(27)24-21-26-25-20(28-21)23-18-11-5-8-14-6-1-3-9-16(14)18/h1-4,6-7,9-10,12-13,18H,5,8,11H2,(H,23,25)(H,24,26,27)
> <PUBCHEM_IUPAC_INCHIKEY>
OAXPLTHSBZJZTN-UHFFFAOYSA-N
> <PUBCHEM_XLOGP3_AA>
5.2
> <PUBCHEM_EXACT_MASS>
410.0968101
> <PUBCHEM_MOLECULAR_FORMULA>
C21H19ClN4OS
> <PUBCHEM_MOLECULAR_WEIGHT>
410.9
> <PUBCHEM_OPENEYE_CAN_SMILES>
C1CC(C2=CC=CC=C2C1)NC3=NN=C(S3)NC(=O)C=CC4=CC=CC=C4Cl
> <PUBCHEM_OPENEYE_ISO_SMILES>
C1CC(C2=CC=CC=C2C1)NC3=NN=C(S3)NC(=O)C=CC4=CC=CC=C4Cl
> <PUBCHEM_CACTVS_TPSA>
95.2
> <PUBCHEM_MONOISOTOPIC_WEIGHT>
410.0968101
> <PUBCHEM_TOTAL_CHARGE>
0
> <PUBCHEM_HEAVY_ATOM_COUNT>
28
> <PUBCHEM_ATOM_DEF_STEREO_COUNT>
0
> <PUBCHEM_ATOM_UDEF_STEREO_COUNT>
1
> <PUBCHEM_BOND_DEF_STEREO_COUNT>
0
> <PUBCHEM_BOND_UDEF_STEREO_COUNT>
1
> <PUBCHEM_ISOTOPIC_ATOM_COUNT>
0
> <PUBCHEM_COMPONENT_COUNT>
1
> <PUBCHEM_CACTVS_TAUTO_COUNT>
-1
> <PUBCHEM_COORDINATE_TYPE>
1
5
255
> <PUBCHEM_BONDANNOTATIONS>
12  13  8
12  14  8
13  15  8
14  16  8
15  17  8
16  17  8
2  18  8
2  19  8
21  23  1
22  24  8
22  25  8
24  26  8
25  27  8
26  28  8
27  28  8
8  4  3
5  18  8
5  6  8
6  19  8
$$$$
