509993
  -OEChem-10302200282D
 52 53  0     1  0  0  0  0  0999 V2000
    7.7748    2.9763    0.0000 O   0  0  0  0  0  0  0  0  0  0  0  0
    3.4446    1.4763    0.0000 O   0  0  0  0  0  0  0  0  0  0  0  0
    5.1767    1.4763    0.0000 O   0  0  0  0  0  0  0  0  0  0  0  0
    2.5405   -0.0206    0.0000 O   0  0  0  0  0  0  0  0  0  0  0  0
    4.2986   -3.0930    0.0000 O   0  0  0  0  0  0  0  0  0  0  0  0
    6.9088    2.4763    0.0000 C   0  0  2  0  0  0  0  0  0  0  0  0
    6.9088    1.4763    0.0000 C   0  0  0  0  0  0  0  0  0  0  0  0
    6.0427    2.9763    0.0000 C   0  0  0  0  0  0  0  0  0  0  0  0
    7.7748    0.9763    0.0000 C   0  0  0  0  0  0  0  0  0  0  0  0
    5.1767    2.4763    0.0000 C   0  0  0  0  0  0  0  0  0  0  0  0
    7.7748   -0.0237    0.0000 C   0  0  0  0  0  0  0  0  0  0  0  0
    4.3107    2.9763    0.0000 C   0  0  0  0  0  0  0  0  0  0  0  0
    6.9088   -0.5237    0.0000 C   0  0  0  0  0  0  0  0  0  0  0  0
    3.4446    2.4763    0.0000 C   0  0  2  0  0  0  0  0  0  0  0  0
    6.0427   -0.0237    0.0000 C   0  0  0  0  0  0  0  0  0  0  0  0
    5.1767   -0.5237    0.0000 C   0  0  0  0  0  0  0  0  0  0  0  0
    4.3107   -0.0237    0.0000 C   0  0  0  0  0  0  0  0  0  0  0  0
    2.5786    2.9763    0.0000 C   0  0  0  0  0  0  0  0  0  0  0  0
    4.3107    0.9763    0.0000 C   0  0  0  0  0  0  0  0  0  0  0  0
    5.1928   -1.5652    0.0000 C   0  0  0  0  0  0  0  0  0  0  0  0
    3.4007   -0.5306    0.0000 C   0  0  0  0  0  0  0  0  0  0  0  0
    4.2947   -2.0930    0.0000 C   0  0  0  0  0  0  0  0  0  0  0  0
    3.3926   -1.5722    0.0000 C   0  0  0  0  0  0  0  0  0  0  0  0
    3.4345   -3.5963    0.0000 C   0  0  0  0  0  0  0  0  0  0  0  0
    6.9088    3.0963    0.0000 H   0  0  0  0  0  0  0  0  0  0  0  0
    6.2982    1.5840    0.0000 H   0  0  0  0  0  0  0  0  0  0  0  0
    6.6967    0.8937    0.0000 H   0  0  0  0  0  0  0  0  0  0  0  0
    6.4412    3.4512    0.0000 H   0  0  0  0  0  0  0  0  0  0  0  0
    5.6442    3.4512    0.0000 H   0  0  0  0  0  0  0  0  0  0  0  0
    8.3854    0.8686    0.0000 H   0  0  0  0  0  0  0  0  0  0  0  0
    7.9868    1.5589    0.0000 H   0  0  0  0  0  0  0  0  0  0  0  0
    4.7782    2.0014    0.0000 H   0  0  0  0  0  0  0  0  0  0  0  0
    5.5752    2.0014    0.0000 H   0  0  0  0  0  0  0  0  0  0  0  0
    7.9868   -0.6063    0.0000 H   0  0  0  0  0  0  0  0  0  0  0  0
    8.3854    0.0840    0.0000 H   0  0  0  0  0  0  0  0  0  0  0  0
    4.7092    3.4512    0.0000 H   0  0  0  0  0  0  0  0  0  0  0  0
    3.9121    3.4512    0.0000 H   0  0  0  0  0  0  0  0  0  0  0  0
    6.5102   -0.9987    0.0000 H   0  0  0  0  0  0  0  0  0  0  0  0
    7.3073   -0.9987    0.0000 H   0  0  0  0  0  0  0  0  0  0  0  0
    2.9077    2.1663    0.0000 H   0  0  0  0  0  0  0  0  0  0  0  0
    6.4412    0.4512    0.0000 H   0  0  0  0  0  0  0  0  0  0  0  0
    5.6442    0.4512    0.0000 H   0  0  0  0  0  0  0  0  0  0  0  0
    2.8886    3.5132    0.0000 H   0  0  0  0  0  0  0  0  0  0  0  0
    2.0417    3.2863    0.0000 H   0  0  0  0  0  0  0  0  0  0  0  0
    2.2686    2.4394    0.0000 H   0  0  0  0  0  0  0  0  0  0  0  0
    7.7748    3.5963    0.0000 H   0  0  0  0  0  0  0  0  0  0  0  0
    5.7332   -1.8690    0.0000 H   0  0  0  0  0  0  0  0  0  0  0  0
    2.8545   -1.8801    0.0000 H   0  0  0  0  0  0  0  0  0  0  0  0
    2.0000   -0.3243    0.0000 H   0  0  0  0  0  0  0  0  0  0  0  0
    3.1224   -3.0606    0.0000 H   0  0  0  0  0  0  0  0  0  0  0  0
    2.8988   -3.9084    0.0000 H   0  0  0  0  0  0  0  0  0  0  0  0
    3.7466   -4.1320    0.0000 H   0  0  0  0  0  0  0  0  0  0  0  0
  6  1  1  6  0  0  0
  1 46  1  0  0  0  0
  2 14  1  0  0  0  0
  2 19  1  0  0  0  0
  3 19  2  0  0  0  0
  4 21  1  0  0  0  0
  4 49  1  0  0  0  0
  5 22  1  0  0  0  0
  5 24  1  0  0  0  0
  6  7  1  0  0  0  0
  6  8  1  0  0  0  0
  6 25  1  0  0  0  0
  7  9  1  0  0  0  0
  7 26  1  0  0  0  0
  7 27  1  0  0  0  0
  8 10  1  0  0  0  0
  8 28  1  0  0  0  0
  8 29  1  0  0  0  0
  9 11  1  0  0  0  0
  9 30  1  0  0  0  0
  9 31  1  0  0  0  0
 10 12  1  0  0  0  0
 10 32  1  0  0  0  0
 10 33  1  0  0  0  0
 11 13  1  0  0  0  0
 11 34  1  0  0  0  0
 11 35  1  0  0  0  0
 12 14  1  0  0  0  0
 12 36  1  0  0  0  0
 12 37  1  0  0  0  0
 13 15  1  0  0  0  0
 13 38  1  0  0  0  0
 13 39  1  0  0  0  0
 14 18  1  1  0  0  0
 14 40  1  0  0  0  0
 15 16  1  0  0  0  0
 15 41  1  0  0  0  0
 15 42  1  0  0  0  0
 16 17  2  0  0  0  0
 16 20  1  0  0  0  0
 17 19  1  0  0  0  0
 17 21  1  0  0  0  0
 18 43  1  0  0  0  0
 18 44  1  0  0  0  0
 18 45  1  0  0  0  0
 20 22  2  0  0  0  0
 20 47  1  0  0  0  0
 21 23  2  0  0  0  0
 22 23  1  0  0  0  0
 23 48  1  0  0  0  0
 24 50  1  0  0  0  0
 24 51  1  0  0  0  0
 24 52  1  0  0  0  0
M  END
> <PUBCHEM_COMPOUND_CID>
509993
> <PUBCHEM_COMPOUND_CANONICALIZED>
1
> <PUBCHEM_CACTVS_COMPLEXITY>
386
> <PUBCHEM_CACTVS_HBOND_ACCEPTOR>
5
> <PUBCHEM_CACTVS_HBOND_DONOR>
2
> <PUBCHEM_CACTVS_ROTATABLE_BOND>
1
> <PUBCHEM_CACTVS_SUBSKEYS>
AAADceB4OAAAAAAAAAAAAAAAAAAAAAAAAAAwAAAAAAAAAAABAAAAGgAACAAADBSgmAIyDoAABgCIAiDSCAACCAAkIAAAiAEGCMgMNzaGNRqCcWAl4BUIuQeI7PzOoAABCAAYAABAAAIQADAAAAAAAAAAAA==
> <PUBCHEM_IUPAC_OPENEYE_NAME>
(4S,8R)-8,18-dihydroxy-16-methoxy-4-methyl-3-oxabicyclo[12.4.0]octadeca-1(14),15,17-trien-2-one
> <PUBCHEM_IUPAC_CAS_NAME>
(4S,8R)-8,18-dihydroxy-16-methoxy-4-methyl-3-oxabicyclo[12.4.0]octadeca-1(14),15,17-trien-2-one
> <PUBCHEM_IUPAC_NAME_MARKUP>
(4<I>S</I>,8<I>R</I>)-8,18-dihydroxy-16-methoxy-4-methyl-3-oxabicyclo[12.4.0]octadeca-1(14),15,17-trien-2-one
> <PUBCHEM_IUPAC_NAME>
(4S,8R)-8,18-dihydroxy-16-methoxy-4-methyl-3-oxabicyclo[12.4.0]octadeca-1(14),15,17-trien-2-one
> <PUBCHEM_IUPAC_SYSTEMATIC_NAME>
(4S,8R)-16-methoxy-4-methyl-8,18-bis(oxidanyl)-3-oxabicyclo[12.4.0]octadeca-1(14),15,17-trien-2-one
> <PUBCHEM_IUPAC_TRADITIONAL_NAME>
(4S,8R)-8,18-dihydroxy-16-methoxy-4-methyl-3-oxabicyclo[12.4.0]octadeca-1(14),15,17-trien-2-one
> <PUBCHEM_IUPAC_INCHI>
InChI=1S/C19H28O5/c1-13-7-6-10-15(20)9-5-3-4-8-14-11-16(23-2)12-17(21)18(14)19(22)24-13/h11-13,15,20-21H,3-10H2,1-2H3/t13-,15+/m0/s1
> <PUBCHEM_IUPAC_INCHIKEY>
ZOIYDULGILECSU-DZGCQCFKSA-N
> <PUBCHEM_XLOGP3_AA>
4.7
> <PUBCHEM_EXACT_MASS>
336.19367399
> <PUBCHEM_MOLECULAR_FORMULA>
C19H28O5
> <PUBCHEM_MOLECULAR_WEIGHT>
336.4
> <PUBCHEM_OPENEYE_CAN_SMILES>
CC1CCCC(CCCCCC2=C(C(=CC(=C2)OC)O)C(=O)O1)O
> <PUBCHEM_OPENEYE_ISO_SMILES>
C[C@H]1CCC[C@@H](CCCCCC2=C(C(=CC(=C2)OC)O)C(=O)O1)O
> <PUBCHEM_CACTVS_TPSA>
76
> <PUBCHEM_MONOISOTOPIC_WEIGHT>
336.19367399
> <PUBCHEM_TOTAL_CHARGE>
0
> <PUBCHEM_HEAVY_ATOM_COUNT>
24
> <PUBCHEM_ATOM_DEF_STEREO_COUNT>
2
> <PUBCHEM_ATOM_UDEF_STEREO_COUNT>
0
> <PUBCHEM_BOND_DEF_STEREO_COUNT>
0
> <PUBCHEM_BOND_UDEF_STEREO_COUNT>
0
> <PUBCHEM_ISOTOPIC_ATOM_COUNT>
0
> <PUBCHEM_COMPONENT_COUNT>
1
> <PUBCHEM_CACTVS_TAUTO_COUNT>
-1
> <PUBCHEM_COORDINATE_TYPE>
1
5
255
> <PUBCHEM_BONDANNOTATIONS>
6  1  6
14  18  5
16  17  8
16  20  8
17  21  8
20  22  8
21  23  8
22  23  8
$$$$
