509980
  -OEChem-10302200282D
 42 44  0     1  0  0  0  0  0999 V2000
    7.2128    2.7673    0.0000 Cl  0  0  0  0  0  0  0  0  0  0  0  0
    2.0000   -2.2677    0.0000 O   0  0  0  0  0  0  0  0  0  0  0  0
    5.4644   -1.2673    0.0000 O   0  0  0  0  0  0  0  0  0  0  0  0
    4.4796   -0.4409    0.0000 O   0  0  0  0  0  0  0  0  0  0  0  0
    7.2128   -1.3019    0.0000 O   0  0  0  0  0  0  0  0  0  0  0  0
    3.9556    0.4666    0.0000 O   0  0  0  0  0  0  0  0  0  0  0  0
    8.9945    1.7568    0.0000 O   0  0  0  0  0  0  0  0  0  0  0  0
    2.8663   -1.7673    0.0000 C   0  0  1  0  0  0  0  0  0  0  0  0
    2.0003   -1.2673    0.0000 C   0  0  1  0  0  0  0  0  0  0  0  0
    3.7323   -1.2673    0.0000 C   0  0  0  0  0  0  0  0  0  0  0  0
    4.5983   -1.7673    0.0000 C   0  0  2  0  0  0  0  0  0  0  0  0
    2.0003   -0.2673    0.0000 C   0  0  0  0  0  0  0  0  0  0  0  0
    4.5983   -2.7673    0.0000 C   0  0  0  0  0  0  0  0  0  0  0  0
    2.8663    0.2327    0.0000 C   0  0  0  0  0  0  0  0  0  0  0  0
    5.4644   -0.2673    0.0000 C   0  0  0  0  0  0  0  0  0  0  0  0
    6.3304    0.2327    0.0000 C   0  0  0  0  0  0  0  0  0  0  0  0
    6.3304    1.2327    0.0000 C   0  0  0  0  0  0  0  0  0  0  0  0
    2.8663    1.2327    0.0000 C   0  0  0  0  0  0  0  0  0  0  0  0
    5.4644    1.7327    0.0000 C   0  0  0  0  0  0  0  0  0  0  0  0
    7.2243   -0.3020    0.0000 C   0  0  0  0  0  0  0  0  0  0  0  0
    3.7323    1.7327    0.0000 C   0  0  0  0  0  0  0  0  0  0  0  0
    4.5983    1.2327    0.0000 C   0  0  0  0  0  0  0  0  0  0  0  0
    7.2243    1.7674    0.0000 C   0  0  0  0  0  0  0  0  0  0  0  0
    8.1304    0.2119    0.0000 C   0  0  0  0  0  0  0  0  0  0  0  0
    8.1304    1.2535    0.0000 C   0  0  0  0  0  0  0  0  0  0  0  0
    3.1763   -2.3042    0.0000 H   0  0  0  0  0  0  0  0  0  0  0  0
    1.3803   -1.2672    0.0000 H   0  0  0  0  0  0  0  0  0  0  0  0
    4.1308   -0.7924    0.0000 H   0  0  0  0  0  0  0  0  0  0  0  0
    3.3338   -0.7924    0.0000 H   0  0  0  0  0  0  0  0  0  0  0  0
    5.1353   -2.0773    0.0000 H   0  0  0  0  0  0  0  0  0  0  0  0
    1.4633    0.0427    0.0000 H   0  0  0  0  0  0  0  0  0  0  0  0
    3.9783   -2.7673    0.0000 H   0  0  0  0  0  0  0  0  0  0  0  0
    4.5983   -3.3873    0.0000 H   0  0  0  0  0  0  0  0  0  0  0  0
    5.2183   -2.7673    0.0000 H   0  0  0  0  0  0  0  0  0  0  0  0
    3.4032   -0.0773    0.0000 H   0  0  0  0  0  0  0  0  0  0  0  0
    2.3293    1.5427    0.0000 H   0  0  0  0  0  0  0  0  0  0  0  0
    5.8629    2.2076    0.0000 H   0  0  0  0  0  0  0  0  0  0  0  0
    5.0658    2.2076    0.0000 H   0  0  0  0  0  0  0  0  0  0  0  0
    3.7323    2.3527    0.0000 H   0  0  0  0  0  0  0  0  0  0  0  0
    8.6661   -0.1002    0.0000 H   0  0  0  0  0  0  0  0  0  0  0  0
    7.7461   -1.6181    0.0000 H   0  0  0  0  0  0  0  0  0  0  0  0
    9.5326    1.4489    0.0000 H   0  0  0  0  0  0  0  0  0  0  0  0
  1 23  1  0  0  0  0
  8  2  1  1  0  0  0
  9  2  1  6  0  0  0
  3 11  1  0  0  0  0
  3 15  1  0  0  0  0
  4 15  2  0  0  0  0
  5 20  1  0  0  0  0
  5 41  1  0  0  0  0
  6 22  2  0  0  0  0
  7 25  1  0  0  0  0
  7 42  1  0  0  0  0
  8  9  1  0  0  0  0
  8 10  1  0  0  0  0
  8 26  1  0  0  0  0
  9 12  1  0  0  0  0
  9 27  1  0  0  0  0
 10 11  1  0  0  0  0
 10 28  1  0  0  0  0
 10 29  1  0  0  0  0
 11 13  1  1  0  0  0
 11 30  1  0  0  0  0
 12 14  2  3  0  0  0
 12 31  1  0  0  0  0
 13 32  1  0  0  0  0
 13 33  1  0  0  0  0
 13 34  1  0  0  0  0
 14 18  1  0  0  0  0
 14 35  1  0  0  0  0
 15 16  1  0  0  0  0
 16 17  2  0  0  0  0
 16 20  1  0  0  0  0
 17 19  1  0  0  0  0
 17 23  1  0  0  0  0
 18 21  2  3  0  0  0
 18 36  1  0  0  0  0
 19 22  1  0  0  0  0
 19 37  1  0  0  0  0
 19 38  1  0  0  0  0
 20 24  2  0  0  0  0
 21 22  1  0  0  0  0
 21 39  1  0  0  0  0
 23 25  2  0  0  0  0
 24 25  1  0  0  0  0
 24 40  1  0  0  0  0
M  END
> <PUBCHEM_COMPOUND_CID>
509980
> <PUBCHEM_COMPOUND_CANONICALIZED>
1
> <PUBCHEM_CACTVS_COMPLEXITY>
588
> <PUBCHEM_CACTVS_HBOND_ACCEPTOR>
6
> <PUBCHEM_CACTVS_HBOND_DONOR>
2
> <PUBCHEM_CACTVS_ROTATABLE_BOND>
0
> <PUBCHEM_CACTVS_SUBSKEYS>
AAADceB4OAAEAAAAAAAAAAAAEgAAAAAAAAAwAAAAAAAAAAABAAAAGgIACAAADBagmCIyDoAABgCIAqDSCAACAAAkJEAIiAEGC8gIJzaDNxqCcUAl4BUIuYfI7rzuoCABKAAZCABAQAJQADIQAAAAAAAAAA==
> <PUBCHEM_IUPAC_OPENEYE_NAME>
(4S,6R,8R)-16-chloro-17,19-dihydroxy-4-methyl-3,7-dioxatricyclo[13.4.0.06,8]nonadeca-1(15),9,11,16,18-pentaene-2,13-dione
> <PUBCHEM_IUPAC_CAS_NAME>
(4S,6R,8R)-16-chloro-17,19-dihydroxy-4-methyl-3,7-dioxatricyclo[13.4.0.06,8]nonadeca-1(15),9,11,16,18-pentaene-2,13-dione
> <PUBCHEM_IUPAC_NAME_MARKUP>
(4<I>S</I>,6<I>R</I>,8<I>R</I>)-16-chloro-17,19-dihydroxy-4-methyl-3,7-dioxatricyclo[13.4.0.0<SUP>6,8</SUP>]nonadeca-1(15),9,11,16,18-pentaene-2,13-dione
> <PUBCHEM_IUPAC_NAME>
(4S,6R,8R)-16-chloro-17,19-dihydroxy-4-methyl-3,7-dioxatricyclo[13.4.0.06,8]nonadeca-1(15),9,11,16,18-pentaene-2,13-dione
> <PUBCHEM_IUPAC_SYSTEMATIC_NAME>
(4S,6R,8R)-16-chloranyl-4-methyl-17,19-bis(oxidanyl)-3,7-dioxatricyclo[13.4.0.06,8]nonadeca-1(15),9,11,16,18-pentaene-2,13-dione
> <PUBCHEM_IUPAC_TRADITIONAL_NAME>
(4S,6R,8R)-16-chloro-17,19-dihydroxy-4-methyl-3,7-dioxatricyclo[13.4.0.06,8]nonadeca-1(15),9,11,16,18-pentaene-2,13-quinone
> <PUBCHEM_IUPAC_INCHI>
InChI=1S/C18H17ClO6/c1-9-6-15-14(25-15)5-3-2-4-10(20)7-11-16(18(23)24-9)12(21)8-13(22)17(11)19/h2-5,8-9,14-15,21-22H,6-7H2,1H3/t9-,14+,15+/m0/s1
> <PUBCHEM_IUPAC_INCHIKEY>
WYZWZEOGROVVHK-TZTCFGBESA-N
> <PUBCHEM_XLOGP3_AA>
3.4
> <PUBCHEM_EXACT_MASS>
364.0713660
> <PUBCHEM_MOLECULAR_FORMULA>
C18H17ClO6
> <PUBCHEM_MOLECULAR_WEIGHT>
364.8
> <PUBCHEM_OPENEYE_CAN_SMILES>
CC1CC2C(O2)C=CC=CC(=O)CC3=C(C(=CC(=C3Cl)O)O)C(=O)O1
> <PUBCHEM_OPENEYE_ISO_SMILES>
C[C@H]1C[C@@H]2[C@H](O2)C=CC=CC(=O)CC3=C(C(=CC(=C3Cl)O)O)C(=O)O1
> <PUBCHEM_CACTVS_TPSA>
96.4
> <PUBCHEM_MONOISOTOPIC_WEIGHT>
364.0713660
> <PUBCHEM_TOTAL_CHARGE>
0
> <PUBCHEM_HEAVY_ATOM_COUNT>
25
> <PUBCHEM_ATOM_DEF_STEREO_COUNT>
3
> <PUBCHEM_ATOM_UDEF_STEREO_COUNT>
0
> <PUBCHEM_BOND_DEF_STEREO_COUNT>
0
> <PUBCHEM_BOND_UDEF_STEREO_COUNT>
2
> <PUBCHEM_ISOTOPIC_ATOM_COUNT>
0
> <PUBCHEM_COMPONENT_COUNT>
1
> <PUBCHEM_CACTVS_TAUTO_COUNT>
-1
> <PUBCHEM_COORDINATE_TYPE>
1
5
255
> <PUBCHEM_BONDANNOTATIONS>
11  13  5
12  14  1
16  17  8
16  20  8
17  23  8
18  21  1
8  2  5
9  2  6
20  24  8
23  25  8
24  25  8
$$$$
