509983
  -OEChem-10302200282D
 45 47  0     1  0  0  0  0  0999 V2000
    7.2128    2.7673    0.0000 Cl  0  0  0  0  0  0  0  0  0  0  0  0
    2.0000   -2.2677    0.0000 O   0  0  0  0  0  0  0  0  0  0  0  0
    5.4644   -1.2673    0.0000 O   0  0  0  0  0  0  0  0  0  0  0  0
    3.7323   -0.2673    0.0000 O   0  0  0  0  0  0  0  0  0  0  0  0
    4.5983    0.2327    0.0000 O   0  0  0  0  0  0  0  0  0  0  0  0
    3.7324    0.7326    0.0000 O   0  0  0  0  0  0  0  0  0  0  0  0
    7.2128   -1.3019    0.0000 O   0  0  0  0  0  0  0  0  0  0  0  0
    8.9945    1.7568    0.0000 O   0  0  0  0  0  0  0  0  0  0  0  0
    2.8663   -1.7673    0.0000 C   0  0  1  0  0  0  0  0  0  0  0  0
    2.0003   -1.2673    0.0000 C   0  0  1  0  0  0  0  0  0  0  0  0
    3.7323   -1.2673    0.0000 C   0  0  0  0  0  0  0  0  0  0  0  0
    2.0003   -0.2673    0.0000 C   0  0  0  0  0  0  0  0  0  0  0  0
    4.5983   -1.7673    0.0000 C   0  0  2  0  0  0  0  0  0  0  0  0
    2.8663    0.2327    0.0000 C   0  0  1  0  0  0  0  0  0  0  0  0
    4.5983   -2.7673    0.0000 C   0  0  0  0  0  0  0  0  0  0  0  0
    2.8663    1.2327    0.0000 C   0  0  0  0  0  0  0  0  0  0  0  0
    5.4644   -0.2673    0.0000 C   0  0  0  0  0  0  0  0  0  0  0  0
    3.7323    1.7327    0.0000 C   0  0  0  0  0  0  0  0  0  0  0  0
    6.3304    0.2327    0.0000 C   0  0  0  0  0  0  0  0  0  0  0  0
    6.3304    1.2327    0.0000 C   0  0  0  0  0  0  0  0  0  0  0  0
    5.4644    1.7327    0.0000 C   0  0  0  0  0  0  0  0  0  0  0  0
    4.5983    1.2327    0.0000 C   0  0  0  0  0  0  0  0  0  0  0  0
    7.2243   -0.3020    0.0000 C   0  0  0  0  0  0  0  0  0  0  0  0
    7.2243    1.7674    0.0000 C   0  0  0  0  0  0  0  0  0  0  0  0
    8.1304    0.2119    0.0000 C   0  0  0  0  0  0  0  0  0  0  0  0
    8.1304    1.2535    0.0000 C   0  0  0  0  0  0  0  0  0  0  0  0
    3.1763   -2.3042    0.0000 H   0  0  0  0  0  0  0  0  0  0  0  0
    1.3803   -1.2672    0.0000 H   0  0  0  0  0  0  0  0  0  0  0  0
    4.1308   -0.7924    0.0000 H   0  0  0  0  0  0  0  0  0  0  0  0
    3.3338   -0.7924    0.0000 H   0  0  0  0  0  0  0  0  0  0  0  0
    1.7882    0.3153    0.0000 H   0  0  0  0  0  0  0  0  0  0  0  0
    1.3897   -0.3750    0.0000 H   0  0  0  0  0  0  0  0  0  0  0  0
    5.1353   -2.0773    0.0000 H   0  0  0  0  0  0  0  0  0  0  0  0
    3.4032    0.5427    0.0000 H   0  0  0  0  0  0  0  0  0  0  0  0
    3.9783   -2.7673    0.0000 H   0  0  0  0  0  0  0  0  0  0  0  0
    4.5983   -3.3873    0.0000 H   0  0  0  0  0  0  0  0  0  0  0  0
    5.2183   -2.7673    0.0000 H   0  0  0  0  0  0  0  0  0  0  0  0
    2.3293    1.5427    0.0000 H   0  0  0  0  0  0  0  0  0  0  0  0
    3.1954   -0.5774    0.0000 H   0  0  0  0  0  0  0  0  0  0  0  0
    3.7323    2.3527    0.0000 H   0  0  0  0  0  0  0  0  0  0  0  0
    5.8629    2.2076    0.0000 H   0  0  0  0  0  0  0  0  0  0  0  0
    5.0658    2.2076    0.0000 H   0  0  0  0  0  0  0  0  0  0  0  0
    8.6661   -0.1002    0.0000 H   0  0  0  0  0  0  0  0  0  0  0  0
    7.7461   -1.6181    0.0000 H   0  0  0  0  0  0  0  0  0  0  0  0
    9.5326    1.4489    0.0000 H   0  0  0  0  0  0  0  0  0  0  0  0
  1 24  1  0  0  0  0
  9  2  1  1  0  0  0
 10  2  1  6  0  0  0
  3 13  1  0  0  0  0
  3 17  1  0  0  0  0
 14  4  1  1  0  0  0
  4 39  1  0  0  0  0
  5 17  2  0  0  0  0
  6 22  2  0  0  0  0
  7 23  1  0  0  0  0
  7 44  1  0  0  0  0
  8 26  1  0  0  0  0
  8 45  1  0  0  0  0
  9 10  1  0  0  0  0
  9 11  1  0  0  0  0
  9 27  1  0  0  0  0
 10 12  1  0  0  0  0
 10 28  1  0  0  0  0
 11 13  1  0  0  0  0
 11 29  1  0  0  0  0
 11 30  1  0  0  0  0
 12 14  1  0  0  0  0
 12 31  1  0  0  0  0
 12 32  1  0  0  0  0
 13 15  1  1  0  0  0
 13 33  1  0  0  0  0
 14 16  1  0  0  0  0
 14 34  1  0  0  0  0
 15 35  1  0  0  0  0
 15 36  1  0  0  0  0
 15 37  1  0  0  0  0
 16 18  2  3  0  0  0
 16 38  1  0  0  0  0
 17 19  1  0  0  0  0
 18 22  1  0  0  0  0
 18 40  1  0  0  0  0
 19 20  2  0  0  0  0
 19 23  1  0  0  0  0
 20 21  1  0  0  0  0
 20 24  1  0  0  0  0
 21 22  1  0  0  0  0
 21 41  1  0  0  0  0
 21 42  1  0  0  0  0
 23 25  2  0  0  0  0
 24 26  2  0  0  0  0
 25 26  1  0  0  0  0
 25 43  1  0  0  0  0
M  END
> <PUBCHEM_COMPOUND_CID>
509983
> <PUBCHEM_COMPOUND_CANONICALIZED>
1
> <PUBCHEM_CACTVS_COMPLEXITY>
580
> <PUBCHEM_CACTVS_HBOND_ACCEPTOR>
7
> <PUBCHEM_CACTVS_HBOND_DONOR>
3
> <PUBCHEM_CACTVS_ROTATABLE_BOND>
0
> <PUBCHEM_CACTVS_SUBSKEYS>
AAADceB4OAAEAAAAAAAAAAAAEgAAAAAAAAAwAAAAAAAAAAABAAAAGgIACAAADBagmCIyDoAABgCIAqDSCAACAAAkJEAIiAEGC8gINzaDNxqCcUAl4BUIuYfI7rzuoCABKAAZCABAQAJQADIQAAAAAAAAAA==
> <PUBCHEM_IUPAC_OPENEYE_NAME>
(4S,6R,8R,10S)-16-chloro-10,17,19-trihydroxy-4-methyl-3,7-dioxatricyclo[13.4.0.06,8]nonadeca-1(15),11,16,18-tetraene-2,13-dione
> <PUBCHEM_IUPAC_CAS_NAME>
(4S,6R,8R,10S)-16-chloro-10,17,19-trihydroxy-4-methyl-3,7-dioxatricyclo[13.4.0.06,8]nonadeca-1(15),11,16,18-tetraene-2,13-dione
> <PUBCHEM_IUPAC_NAME_MARKUP>
(4<I>S</I>,6<I>R</I>,8<I>R</I>,10<I>S</I>)-16-chloro-10,17,19-trihydroxy-4-methyl-3,7-dioxatricyclo[13.4.0.0<SUP>6,8</SUP>]nonadeca-1(15),11,16,18-tetraene-2,13-dione
> <PUBCHEM_IUPAC_NAME>
(4S,6R,8R,10S)-16-chloro-10,17,19-trihydroxy-4-methyl-3,7-dioxatricyclo[13.4.0.06,8]nonadeca-1(15),11,16,18-tetraene-2,13-dione
> <PUBCHEM_IUPAC_SYSTEMATIC_NAME>
(4S,6R,8R,10S)-16-chloranyl-4-methyl-10,17,19-tris(oxidanyl)-3,7-dioxatricyclo[13.4.0.06,8]nonadeca-1(15),11,16,18-tetraene-2,13-dione
> <PUBCHEM_IUPAC_TRADITIONAL_NAME>
(4S,6R,8R,10S)-16-chloro-10,17,19-trihydroxy-4-methyl-3,7-dioxatricyclo[13.4.0.06,8]nonadeca-1(15),11,16,18-tetraene-2,13-quinone
> <PUBCHEM_IUPAC_INCHI>
InChI=1S/C18H19ClO7/c1-8-4-14-15(26-14)6-10(21)3-2-9(20)5-11-16(18(24)25-8)12(22)7-13(23)17(11)19/h2-3,7-8,10,14-15,21-23H,4-6H2,1H3/t8-,10+,14+,15+/m0/s1
> <PUBCHEM_IUPAC_INCHIKEY>
BDHDUOMSMIFYEX-UYFLLQICSA-N
> <PUBCHEM_XLOGP3_AA>
2.3
> <PUBCHEM_EXACT_MASS>
382.0819306
> <PUBCHEM_MOLECULAR_FORMULA>
C18H19ClO7
> <PUBCHEM_MOLECULAR_WEIGHT>
382.8
> <PUBCHEM_OPENEYE_CAN_SMILES>
CC1CC2C(O2)CC(C=CC(=O)CC3=C(C(=CC(=C3Cl)O)O)C(=O)O1)O
> <PUBCHEM_OPENEYE_ISO_SMILES>
C[C@H]1C[C@@H]2[C@H](O2)C[C@@H](C=CC(=O)CC3=C(C(=CC(=C3Cl)O)O)C(=O)O1)O
> <PUBCHEM_CACTVS_TPSA>
117
> <PUBCHEM_MONOISOTOPIC_WEIGHT>
382.0819306
> <PUBCHEM_TOTAL_CHARGE>
0
> <PUBCHEM_HEAVY_ATOM_COUNT>
26
> <PUBCHEM_ATOM_DEF_STEREO_COUNT>
4
> <PUBCHEM_ATOM_UDEF_STEREO_COUNT>
0
> <PUBCHEM_BOND_DEF_STEREO_COUNT>
0
> <PUBCHEM_BOND_UDEF_STEREO_COUNT>
1
> <PUBCHEM_ISOTOPIC_ATOM_COUNT>
0
> <PUBCHEM_COMPONENT_COUNT>
1
> <PUBCHEM_CACTVS_TAUTO_COUNT>
-1
> <PUBCHEM_COORDINATE_TYPE>
1
5
255
> <PUBCHEM_BONDANNOTATIONS>
13  15  5
16  18  1
19  20  8
19  23  8
10  2  6
9  2  5
20  24  8
23  25  8
24  26  8
25  26  8
14  4  5
$$$$
