509985
  -OEChem-10302200282D
 44 45  0     1  0  0  0  0  0999 V2000
    6.0427    3.6907    0.0000 Cl  0  0  0  0  0  0  0  0  0  0  0  0
    6.0645   -2.3408    0.0000 Cl  0  0  0  0  0  0  0  0  0  0  0  0
    3.4446    1.1907    0.0000 O   0  0  0  0  0  0  0  0  0  0  0  0
    5.1767    1.1907    0.0000 O   0  0  0  0  0  0  0  0  0  0  0  0
    4.3107    1.6907    0.0000 O   0  0  0  0  0  0  0  0  0  0  0  0
    2.5405   -0.3062    0.0000 O   0  0  0  0  0  0  0  0  0  0  0  0
    4.2986   -3.3786    0.0000 O   0  0  0  0  0  0  0  0  0  0  0  0
    6.9088   -1.8093    0.0000 O   0  0  0  0  0  0  0  0  0  0  0  0
    4.3107    2.6907    0.0000 C   0  0  0  0  0  0  0  0  0  0  0  0
    5.1767    2.1907    0.0000 C   0  0  1  0  0  0  0  0  0  0  0  0
    3.4446    2.1907    0.0000 C   0  0  2  0  0  0  0  0  0  0  0  0
    6.0427    2.6907    0.0000 C   0  0  3  0  0  0  0  0  0  0  0  0
    2.5786    2.6907    0.0000 C   0  0  0  0  0  0  0  0  0  0  0  0
    4.3107   -0.3093    0.0000 C   0  0  0  0  0  0  0  0  0  0  0  0
    5.1767   -0.8093    0.0000 C   0  0  0  0  0  0  0  0  0  0  0  0
    6.9088    2.1907    0.0000 C   0  0  0  0  0  0  0  0  0  0  0  0
    4.3107    0.6907    0.0000 C   0  0  0  0  0  0  0  0  0  0  0  0
    6.0427   -0.3093    0.0000 C   0  0  0  0  0  0  0  0  0  0  0  0
    3.4007   -0.8162    0.0000 C   0  0  0  0  0  0  0  0  0  0  0  0
    5.1928   -1.8508    0.0000 C   0  0  0  0  0  0  0  0  0  0  0  0
    6.9088    1.1907    0.0000 C   0  0  0  0  0  0  0  0  0  0  0  0
    4.2947   -2.3786    0.0000 C   0  0  0  0  0  0  0  0  0  0  0  0
    3.3926   -1.8578    0.0000 C   0  0  0  0  0  0  0  0  0  0  0  0
    6.9088   -0.8093    0.0000 C   0  0  0  0  0  0  0  0  0  0  0  0
    7.7748    0.6907    0.0000 C   0  0  0  0  0  0  0  0  0  0  0  0
    7.7748   -0.3093    0.0000 C   0  0  0  0  0  0  0  0  0  0  0  0
    4.7092    3.1656    0.0000 H   0  0  0  0  0  0  0  0  0  0  0  0
    3.9121    3.1656    0.0000 H   0  0  0  0  0  0  0  0  0  0  0  0
    5.7136    1.8807    0.0000 H   0  0  0  0  0  0  0  0  0  0  0  0
    2.9077    1.8807    0.0000 H   0  0  0  0  0  0  0  0  0  0  0  0
    6.5797    3.0007    0.0000 H   0  0  0  0  0  0  0  0  0  0  0  0
    2.8886    3.2276    0.0000 H   0  0  0  0  0  0  0  0  0  0  0  0
    2.0417    3.0007    0.0000 H   0  0  0  0  0  0  0  0  0  0  0  0
    2.2686    2.1537    0.0000 H   0  0  0  0  0  0  0  0  0  0  0  0
    7.4457    2.5007    0.0000 H   0  0  0  0  0  0  0  0  0  0  0  0
    6.4412    0.1656    0.0000 H   0  0  0  0  0  0  0  0  0  0  0  0
    5.6442    0.1656    0.0000 H   0  0  0  0  0  0  0  0  0  0  0  0
    5.7136    0.8807    0.0000 H   0  0  0  0  0  0  0  0  0  0  0  0
    6.3718    0.8807    0.0000 H   0  0  0  0  0  0  0  0  0  0  0  0
    2.8545   -2.1657    0.0000 H   0  0  0  0  0  0  0  0  0  0  0  0
    8.3117    1.0007    0.0000 H   0  0  0  0  0  0  0  0  0  0  0  0
    8.3117   -0.6193    0.0000 H   0  0  0  0  0  0  0  0  0  0  0  0
    2.0000   -0.6100    0.0000 H   0  0  0  0  0  0  0  0  0  0  0  0
    3.7628   -3.6907    0.0000 H   0  0  0  0  0  0  0  0  0  0  0  0
  1 12  1  0  0  0  0
  2 20  1  0  0  0  0
  3 11  1  0  0  0  0
  3 17  1  0  0  0  0
 10  4  1  1  0  0  0
  4 38  1  0  0  0  0
  5 17  2  0  0  0  0
  6 19  1  0  0  0  0
  6 43  1  0  0  0  0
  7 22  1  0  0  0  0
  7 44  1  0  0  0  0
  8 24  2  0  0  0  0
  9 10  1  0  0  0  0
  9 11  1  0  0  0  0
  9 27  1  0  0  0  0
  9 28  1  0  0  0  0
 10 12  1  0  0  0  0
 10 29  1  0  0  0  0
 11 13  1  1  0  0  0
 11 30  1  0  0  0  0
 12 16  1  0  0  0  0
 12 31  1  0  0  0  0
 13 32  1  0  0  0  0
 13 33  1  0  0  0  0
 13 34  1  0  0  0  0
 14 15  2  0  0  0  0
 14 17  1  0  0  0  0
 14 19  1  0  0  0  0
 15 18  1  0  0  0  0
 15 20  1  0  0  0  0
 16 21  2  3  0  0  0
 16 35  1  0  0  0  0
 18 24  1  0  0  0  0
 18 36  1  0  0  0  0
 18 37  1  0  0  0  0
 19 23  2  0  0  0  0
 20 22  2  0  0  0  0
 21 25  1  0  0  0  0
 21 39  1  0  0  0  0
 22 23  1  0  0  0  0
 23 40  1  0  0  0  0
 24 26  1  0  0  0  0
 25 26  2  3  0  0  0
 25 41  1  0  0  0  0
 26 42  1  0  0  0  0
M  END
> <PUBCHEM_COMPOUND_CID>
509985
> <PUBCHEM_COMPOUND_CANONICALIZED>
1
> <PUBCHEM_CACTVS_COMPLEXITY>
578
> <PUBCHEM_CACTVS_HBOND_ACCEPTOR>
6
> <PUBCHEM_CACTVS_HBOND_DONOR>
3
> <PUBCHEM_CACTVS_ROTATABLE_BOND>
0
> <PUBCHEM_CACTVS_SUBSKEYS>
AAADceB4OAAGAAAAAAAAAAAAAAAAAAAAAAAwAAAAAAAAAAABAAAAGgIACAAADBegmGIyDoAABgCIAqDSCAACAAAkJEAIiAEGC8gINzaDNxqCcUAl4BUIuYeI7rzuoCABKAAZCABAQAJQADIQAAAAAAAAAA==
> <PUBCHEM_IUPAC_OPENEYE_NAME>
(4S,6S)-7,15-dichloro-6,16,18-trihydroxy-4-methyl-3-oxabicyclo[12.4.0]octadeca-1(14),8,10,15,17-pentaene-2,12-dione
> <PUBCHEM_IUPAC_CAS_NAME>
(4S,6S)-7,15-dichloro-6,16,18-trihydroxy-4-methyl-3-oxabicyclo[12.4.0]octadeca-1(14),8,10,15,17-pentaene-2,12-dione
> <PUBCHEM_IUPAC_NAME_MARKUP>
(4<I>S</I>,6<I>S</I>)-7,15-dichloro-6,16,18-trihydroxy-4-methyl-3-oxabicyclo[12.4.0]octadeca-1(14),8,10,15,17-pentaene-2,12-dione
> <PUBCHEM_IUPAC_NAME>
(4S,6S)-7,15-dichloro-6,16,18-trihydroxy-4-methyl-3-oxabicyclo[12.4.0]octadeca-1(14),8,10,15,17-pentaene-2,12-dione
> <PUBCHEM_IUPAC_SYSTEMATIC_NAME>
(4S,6S)-7,15-bis(chloranyl)-4-methyl-6,16,18-tris(oxidanyl)-3-oxabicyclo[12.4.0]octadeca-1(14),8,10,15,17-pentaene-2,12-dione
> <PUBCHEM_IUPAC_TRADITIONAL_NAME>
(4S,6S)-7,15-dichloro-6,16,18-trihydroxy-4-methyl-3-oxabicyclo[12.4.0]octadeca-1(14),8,10,15,17-pentaene-2,12-quinone
> <PUBCHEM_IUPAC_INCHI>
InChI=1S/C18H18Cl2O6/c1-9-6-13(22)12(19)5-3-2-4-10(21)7-11-16(18(25)26-9)14(23)8-15(24)17(11)20/h2-5,8-9,12-13,22-24H,6-7H2,1H3/t9-,12?,13-/m0/s1
> <PUBCHEM_IUPAC_INCHIKEY>
MQEXBOUTQRMRFJ-SKGBEAKQSA-N
> <PUBCHEM_XLOGP3_AA>
3.6
> <PUBCHEM_EXACT_MASS>
400.0480437
> <PUBCHEM_MOLECULAR_FORMULA>
C18H18Cl2O6
> <PUBCHEM_MOLECULAR_WEIGHT>
401.2
> <PUBCHEM_OPENEYE_CAN_SMILES>
CC1CC(C(C=CC=CC(=O)CC2=C(C(=CC(=C2Cl)O)O)C(=O)O1)Cl)O
> <PUBCHEM_OPENEYE_ISO_SMILES>
C[C@H]1C[C@@H](C(C=CC=CC(=O)CC2=C(C(=CC(=C2Cl)O)O)C(=O)O1)Cl)O
> <PUBCHEM_CACTVS_TPSA>
104
> <PUBCHEM_MONOISOTOPIC_WEIGHT>
400.0480437
> <PUBCHEM_TOTAL_CHARGE>
0
> <PUBCHEM_HEAVY_ATOM_COUNT>
26
> <PUBCHEM_ATOM_DEF_STEREO_COUNT>
2
> <PUBCHEM_ATOM_UDEF_STEREO_COUNT>
1
> <PUBCHEM_BOND_DEF_STEREO_COUNT>
0
> <PUBCHEM_BOND_UDEF_STEREO_COUNT>
2
> <PUBCHEM_ISOTOPIC_ATOM_COUNT>
0
> <PUBCHEM_COMPONENT_COUNT>
1
> <PUBCHEM_CACTVS_TAUTO_COUNT>
-1
> <PUBCHEM_COORDINATE_TYPE>
1
5
255
> <PUBCHEM_BONDANNOTATIONS>
12  1  3
11  13  5
14  15  8
14  19  8
15  20  8
16  21  1
19  23  8
20  22  8
22  23  8
25  26  1
10  4  5
$$$$
