509982
  -OEChem-10302200282D
 44 46  0     1  0  0  0  0  0999 V2000
    2.0000   -1.7678    0.0000 O   0  0  0  0  0  0  0  0  0  0  0  0
    5.4644   -0.7673    0.0000 O   0  0  0  0  0  0  0  0  0  0  0  0
    4.4796    0.0590    0.0000 O   0  0  0  0  0  0  0  0  0  0  0  0
    3.9556    0.9666    0.0000 O   0  0  0  0  0  0  0  0  0  0  0  0
    7.2128   -0.8019    0.0000 O   0  0  0  0  0  0  0  0  0  0  0  0
    8.9945    2.2568    0.0000 O   0  0  0  0  0  0  0  0  0  0  0  0
    2.8663   -1.2673    0.0000 C   0  0  1  0  0  0  0  0  0  0  0  0
    2.0003   -0.7673    0.0000 C   0  0  1  0  0  0  0  0  0  0  0  0
    3.7323   -0.7673    0.0000 C   0  0  0  0  0  0  0  0  0  0  0  0
    2.0003    0.2327    0.0000 C   0  0  0  0  0  0  0  0  0  0  0  0
    4.5983   -1.2673    0.0000 C   0  0  2  0  0  0  0  0  0  0  0  0
    2.8663    0.7327    0.0000 C   0  0  0  0  0  0  0  0  0  0  0  0
    4.5983   -2.2673    0.0000 C   0  0  0  0  0  0  0  0  0  0  0  0
    2.8663    1.7327    0.0000 C   0  0  0  0  0  0  0  0  0  0  0  0
    5.4644    0.2327    0.0000 C   0  0  0  0  0  0  0  0  0  0  0  0
    3.7323    2.2327    0.0000 C   0  0  0  0  0  0  0  0  0  0  0  0
    6.3304    0.7327    0.0000 C   0  0  0  0  0  0  0  0  0  0  0  0
    6.3304    1.7327    0.0000 C   0  0  0  0  0  0  0  0  0  0  0  0
    5.4644    2.2327    0.0000 C   0  0  0  0  0  0  0  0  0  0  0  0
    4.5983    1.7327    0.0000 C   0  0  0  0  0  0  0  0  0  0  0  0
    7.2243    0.1980    0.0000 C   0  0  0  0  0  0  0  0  0  0  0  0
    7.2243    2.2673    0.0000 C   0  0  0  0  0  0  0  0  0  0  0  0
    8.1304    0.7119    0.0000 C   0  0  0  0  0  0  0  0  0  0  0  0
    8.1304    1.7535    0.0000 C   0  0  0  0  0  0  0  0  0  0  0  0
    3.1763   -1.8042    0.0000 H   0  0  0  0  0  0  0  0  0  0  0  0
    1.3803   -0.7673    0.0000 H   0  0  0  0  0  0  0  0  0  0  0  0
    4.1308   -0.2924    0.0000 H   0  0  0  0  0  0  0  0  0  0  0  0
    3.3338   -0.2924    0.0000 H   0  0  0  0  0  0  0  0  0  0  0  0
    1.7882    0.8153    0.0000 H   0  0  0  0  0  0  0  0  0  0  0  0
    1.3897    0.1250    0.0000 H   0  0  0  0  0  0  0  0  0  0  0  0
    5.1353   -1.5773    0.0000 H   0  0  0  0  0  0  0  0  0  0  0  0
    3.0783    0.1501    0.0000 H   0  0  0  0  0  0  0  0  0  0  0  0
    3.4769    0.8403    0.0000 H   0  0  0  0  0  0  0  0  0  0  0  0
    3.9783   -2.2673    0.0000 H   0  0  0  0  0  0  0  0  0  0  0  0
    4.5983   -2.8873    0.0000 H   0  0  0  0  0  0  0  0  0  0  0  0
    5.2183   -2.2673    0.0000 H   0  0  0  0  0  0  0  0  0  0  0  0
    2.3293    2.0427    0.0000 H   0  0  0  0  0  0  0  0  0  0  0  0
    3.7323    2.8527    0.0000 H   0  0  0  0  0  0  0  0  0  0  0  0
    5.8629    2.7076    0.0000 H   0  0  0  0  0  0  0  0  0  0  0  0
    5.0658    2.7076    0.0000 H   0  0  0  0  0  0  0  0  0  0  0  0
    7.2172    2.8873    0.0000 H   0  0  0  0  0  0  0  0  0  0  0  0
    8.6661    0.3998    0.0000 H   0  0  0  0  0  0  0  0  0  0  0  0
    7.7461   -1.1181    0.0000 H   0  0  0  0  0  0  0  0  0  0  0  0
    9.5326    1.9489    0.0000 H   0  0  0  0  0  0  0  0  0  0  0  0
  7  1  1  1  0  0  0
  8  1  1  6  0  0  0
  2 11  1  0  0  0  0
  2 15  1  0  0  0  0
  3 15  2  0  0  0  0
  4 20  2  0  0  0  0
  5 21  1  0  0  0  0
  5 43  1  0  0  0  0
  6 24  1  0  0  0  0
  6 44  1  0  0  0  0
  7  8  1  0  0  0  0
  7  9  1  0  0  0  0
  7 25  1  0  0  0  0
  8 10  1  0  0  0  0
  8 26  1  0  0  0  0
  9 11  1  0  0  0  0
  9 27  1  0  0  0  0
  9 28  1  0  0  0  0
 10 12  1  0  0  0  0
 10 29  1  0  0  0  0
 10 30  1  0  0  0  0
 11 13  1  1  0  0  0
 11 31  1  0  0  0  0
 12 14  1  0  0  0  0
 12 32  1  0  0  0  0
 12 33  1  0  0  0  0
 13 34  1  0  0  0  0
 13 35  1  0  0  0  0
 13 36  1  0  0  0  0
 14 16  2  3  0  0  0
 14 37  1  0  0  0  0
 15 17  1  0  0  0  0
 16 20  1  0  0  0  0
 16 38  1  0  0  0  0
 17 18  2  0  0  0  0
 17 21  1  0  0  0  0
 18 19  1  0  0  0  0
 18 22  1  0  0  0  0
 19 20  1  0  0  0  0
 19 39  1  0  0  0  0
 19 40  1  0  0  0  0
 21 23  2  0  0  0  0
 22 24  2  0  0  0  0
 22 41  1  0  0  0  0
 23 24  1  0  0  0  0
 23 42  1  0  0  0  0
M  END
> <PUBCHEM_COMPOUND_CID>
509982
> <PUBCHEM_COMPOUND_CANONICALIZED>
1
> <PUBCHEM_CACTVS_COMPLEXITY>
516
> <PUBCHEM_CACTVS_HBOND_ACCEPTOR>
6
> <PUBCHEM_CACTVS_HBOND_DONOR>
2
> <PUBCHEM_CACTVS_ROTATABLE_BOND>
0
> <PUBCHEM_CACTVS_SUBSKEYS>
AAADceB4OAAAAAAAAAAAAAAAEgAAAAAAAAAwAAAAAAAAAAABAAAAGgAACAAADBSgmAIyDoAABgCIAqDSCAACAAAkIAAIiAEGCMgIJzaCNRqCcUAl4BUIuYfI7rzuoAABCAAYAABAAAIQADAAAAAAAAAAAA==
> <PUBCHEM_IUPAC_OPENEYE_NAME>
(4S,6R,8R)-17,19-dihydroxy-4-methyl-3,7-dioxatricyclo[13.4.0.06,8]nonadeca-1(15),11,16,18-tetraene-2,13-dione
> <PUBCHEM_IUPAC_CAS_NAME>
(4S,6R,8R)-17,19-dihydroxy-4-methyl-3,7-dioxatricyclo[13.4.0.06,8]nonadeca-1(15),11,16,18-tetraene-2,13-dione
> <PUBCHEM_IUPAC_NAME_MARKUP>
(4<I>S</I>,6<I>R</I>,8<I>R</I>)-17,19-dihydroxy-4-methyl-3,7-dioxatricyclo[13.4.0.0<SUP>6,8</SUP>]nonadeca-1(15),11,16,18-tetraene-2,13-dione
> <PUBCHEM_IUPAC_NAME>
(4S,6R,8R)-17,19-dihydroxy-4-methyl-3,7-dioxatricyclo[13.4.0.06,8]nonadeca-1(15),11,16,18-tetraene-2,13-dione
> <PUBCHEM_IUPAC_SYSTEMATIC_NAME>
(4S,6R,8R)-4-methyl-17,19-bis(oxidanyl)-3,7-dioxatricyclo[13.4.0.06,8]nonadeca-1(15),11,16,18-tetraene-2,13-dione
> <PUBCHEM_IUPAC_TRADITIONAL_NAME>
(4S,6R,8R)-17,19-dihydroxy-4-methyl-3,7-dioxatricyclo[13.4.0.06,8]nonadeca-1(15),11,16,18-tetraene-2,13-quinone
> <PUBCHEM_IUPAC_INCHI>
InChI=1S/C18H20O6/c1-10-6-16-15(24-16)5-3-2-4-12(19)7-11-8-13(20)9-14(21)17(11)18(22)23-10/h2,4,8-10,15-16,20-21H,3,5-7H2,1H3/t10-,15+,16+/m0/s1
> <PUBCHEM_IUPAC_INCHIKEY>
XFALPAMSDFFXGY-AMKSKSKJSA-N
> <PUBCHEM_XLOGP3_AA>
2.8
> <PUBCHEM_EXACT_MASS>
332.12598835
> <PUBCHEM_MOLECULAR_FORMULA>
C18H20O6
> <PUBCHEM_MOLECULAR_WEIGHT>
332.3
> <PUBCHEM_OPENEYE_CAN_SMILES>
CC1CC2C(O2)CCC=CC(=O)CC3=C(C(=CC(=C3)O)O)C(=O)O1
> <PUBCHEM_OPENEYE_ISO_SMILES>
C[C@H]1C[C@@H]2[C@H](O2)CCC=CC(=O)CC3=C(C(=CC(=C3)O)O)C(=O)O1
> <PUBCHEM_CACTVS_TPSA>
96.4
> <PUBCHEM_MONOISOTOPIC_WEIGHT>
332.12598835
> <PUBCHEM_TOTAL_CHARGE>
0
> <PUBCHEM_HEAVY_ATOM_COUNT>
24
> <PUBCHEM_ATOM_DEF_STEREO_COUNT>
3
> <PUBCHEM_ATOM_UDEF_STEREO_COUNT>
0
> <PUBCHEM_BOND_DEF_STEREO_COUNT>
0
> <PUBCHEM_BOND_UDEF_STEREO_COUNT>
1
> <PUBCHEM_ISOTOPIC_ATOM_COUNT>
0
> <PUBCHEM_COMPONENT_COUNT>
1
> <PUBCHEM_CACTVS_TAUTO_COUNT>
-1
> <PUBCHEM_COORDINATE_TYPE>
1
5
255
> <PUBCHEM_BONDANNOTATIONS>
7  1  5
8  1  6
11  13  5
14  16  1
17  18  8
17  21  8
18  22  8
21  23  8
22  24  8
23  24  8
$$$$
