509992
  -OEChem-10302200282D
 50 51  0     1  0  0  0  0  0999 V2000
    3.4446    1.7863    0.0000 O   0  0  0  0  0  0  0  0  0  0  0  0
    7.7748    3.2863    0.0000 O   0  0  0  0  0  0  0  0  0  0  0  0
    4.2986   -2.7830    0.0000 O   0  0  0  0  0  0  0  0  0  0  0  0
    2.5405    0.2894    0.0000 O   0  0  0  0  0  0  0  0  0  0  0  0
    5.1767    1.7863    0.0000 O   0  0  0  0  0  0  0  0  0  0  0  0
    7.7748    0.2863    0.0000 C   0  0  0  0  0  0  0  0  0  0  0  0
    6.9088   -0.2137    0.0000 C   0  0  0  0  0  0  0  0  0  0  0  0
    7.7748    1.2863    0.0000 C   0  0  0  0  0  0  0  0  0  0  0  0
    5.1767    2.7863    0.0000 C   0  0  0  0  0  0  0  0  0  0  0  0
    4.3107    3.2863    0.0000 C   0  0  0  0  0  0  0  0  0  0  0  0
    6.9088    1.7863    0.0000 C   0  0  0  0  0  0  0  0  0  0  0  0
    6.0427    0.2863    0.0000 C   0  0  0  0  0  0  0  0  0  0  0  0
    6.0427    3.2863    0.0000 C   0  0  0  0  0  0  0  0  0  0  0  0
    3.4446    2.7863    0.0000 C   0  0  2  0  0  0  0  0  0  0  0  0
    6.9088    2.7863    0.0000 C   0  0  0  0  0  0  0  0  0  0  0  0
    5.1767   -0.2137    0.0000 C   0  0  0  0  0  0  0  0  0  0  0  0
    4.3107    0.2863    0.0000 C   0  0  0  0  0  0  0  0  0  0  0  0
    2.5786    3.2863    0.0000 C   0  0  0  0  0  0  0  0  0  0  0  0
    5.1928   -1.2552    0.0000 C   0  0  0  0  0  0  0  0  0  0  0  0
    4.3107    1.2863    0.0000 C   0  0  0  0  0  0  0  0  0  0  0  0
    3.4007   -0.2206    0.0000 C   0  0  0  0  0  0  0  0  0  0  0  0
    4.2947   -1.7830    0.0000 C   0  0  0  0  0  0  0  0  0  0  0  0
    3.3926   -1.2622    0.0000 C   0  0  0  0  0  0  0  0  0  0  0  0
    3.4345   -3.2863    0.0000 C   0  0  0  0  0  0  0  0  0  0  0  0
    7.9868   -0.2963    0.0000 H   0  0  0  0  0  0  0  0  0  0  0  0
    8.3854    0.3940    0.0000 H   0  0  0  0  0  0  0  0  0  0  0  0
    6.5102   -0.6887    0.0000 H   0  0  0  0  0  0  0  0  0  0  0  0
    7.3073   -0.6887    0.0000 H   0  0  0  0  0  0  0  0  0  0  0  0
    8.3854    1.1786    0.0000 H   0  0  0  0  0  0  0  0  0  0  0  0
    7.9868    1.8689    0.0000 H   0  0  0  0  0  0  0  0  0  0  0  0
    4.7782    2.3114    0.0000 H   0  0  0  0  0  0  0  0  0  0  0  0
    5.5752    2.3114    0.0000 H   0  0  0  0  0  0  0  0  0  0  0  0
    4.7092    3.7612    0.0000 H   0  0  0  0  0  0  0  0  0  0  0  0
    3.9121    3.7612    0.0000 H   0  0  0  0  0  0  0  0  0  0  0  0
    6.4412    0.7612    0.0000 H   0  0  0  0  0  0  0  0  0  0  0  0
    5.6442    0.7612    0.0000 H   0  0  0  0  0  0  0  0  0  0  0  0
    6.2982    1.8940    0.0000 H   0  0  0  0  0  0  0  0  0  0  0  0
    6.6967    1.2037    0.0000 H   0  0  0  0  0  0  0  0  0  0  0  0
    6.4412    3.7612    0.0000 H   0  0  0  0  0  0  0  0  0  0  0  0
    5.6442    3.7612    0.0000 H   0  0  0  0  0  0  0  0  0  0  0  0
    2.9077    2.4763    0.0000 H   0  0  0  0  0  0  0  0  0  0  0  0
    2.8886    3.8232    0.0000 H   0  0  0  0  0  0  0  0  0  0  0  0
    2.0417    3.5963    0.0000 H   0  0  0  0  0  0  0  0  0  0  0  0
    2.2686    2.7494    0.0000 H   0  0  0  0  0  0  0  0  0  0  0  0
    5.7332   -1.5590    0.0000 H   0  0  0  0  0  0  0  0  0  0  0  0
    2.8545   -1.5701    0.0000 H   0  0  0  0  0  0  0  0  0  0  0  0
    2.0000   -0.0143    0.0000 H   0  0  0  0  0  0  0  0  0  0  0  0
    3.1224   -2.7506    0.0000 H   0  0  0  0  0  0  0  0  0  0  0  0
    2.8988   -3.5984    0.0000 H   0  0  0  0  0  0  0  0  0  0  0  0
    3.7466   -3.8220    0.0000 H   0  0  0  0  0  0  0  0  0  0  0  0
  1 14  1  0  0  0  0
  1 20  1  0  0  0  0
  2 15  2  0  0  0  0
  3 22  1  0  0  0  0
  3 24  1  0  0  0  0
  4 21  1  0  0  0  0
  4 47  1  0  0  0  0
  5 20  2  0  0  0  0
  6  7  1  0  0  0  0
  6  8  1  0  0  0  0
  6 25  1  0  0  0  0
  6 26  1  0  0  0  0
  7 12  1  0  0  0  0
  7 27  1  0  0  0  0
  7 28  1  0  0  0  0
  8 11  1  0  0  0  0
  8 29  1  0  0  0  0
  8 30  1  0  0  0  0
  9 10  1  0  0  0  0
  9 13  1  0  0  0  0
  9 31  1  0  0  0  0
  9 32  1  0  0  0  0
 10 14  1  0  0  0  0
 10 33  1  0  0  0  0
 10 34  1  0  0  0  0
 11 15  1  0  0  0  0
 11 37  1  0  0  0  0
 11 38  1  0  0  0  0
 12 16  1  0  0  0  0
 12 35  1  0  0  0  0
 12 36  1  0  0  0  0
 13 15  1  0  0  0  0
 13 39  1  0  0  0  0
 13 40  1  0  0  0  0
 14 18  1  1  0  0  0
 14 41  1  0  0  0  0
 16 17  2  0  0  0  0
 16 19  1  0  0  0  0
 17 20  1  0  0  0  0
 17 21  1  0  0  0  0
 18 42  1  0  0  0  0
 18 43  1  0  0  0  0
 18 44  1  0  0  0  0
 19 22  2  0  0  0  0
 19 45  1  0  0  0  0
 21 23  2  0  0  0  0
 22 23  1  0  0  0  0
 23 46  1  0  0  0  0
 24 48  1  0  0  0  0
 24 49  1  0  0  0  0
 24 50  1  0  0  0  0
M  END
> <PUBCHEM_COMPOUND_CID>
509992
> <PUBCHEM_COMPOUND_CANONICALIZED>
1
> <PUBCHEM_CACTVS_COMPLEXITY>
422
> <PUBCHEM_CACTVS_HBOND_ACCEPTOR>
5
> <PUBCHEM_CACTVS_HBOND_DONOR>
1
> <PUBCHEM_CACTVS_ROTATABLE_BOND>
1
> <PUBCHEM_CACTVS_SUBSKEYS>
AAADceB4OAAAAAAAAAAAAAAAAAAAAAAAAAAwAAAAAAAAAAABAAAAGgAACAAADBSgmAIyDoAABgCIAqDSCAACCAAkIAAAiAEGCMgMJzaGNRqCcWAl4BUIuQeI7PzOoAABCAAYAABAAAIQADAAAAAAAAAAAA==
> <PUBCHEM_IUPAC_OPENEYE_NAME>
(4S)-18-hydroxy-16-methoxy-4-methyl-3-oxabicyclo[12.4.0]octadeca-1(14),15,17-triene-2,8-dione
> <PUBCHEM_IUPAC_CAS_NAME>
(4S)-18-hydroxy-16-methoxy-4-methyl-3-oxabicyclo[12.4.0]octadeca-1(14),15,17-triene-2,8-dione
> <PUBCHEM_IUPAC_NAME_MARKUP>
(4<I>S</I>)-18-hydroxy-16-methoxy-4-methyl-3-oxabicyclo[12.4.0]octadeca-1(14),15,17-triene-2,8-dione
> <PUBCHEM_IUPAC_NAME>
(4S)-18-hydroxy-16-methoxy-4-methyl-3-oxabicyclo[12.4.0]octadeca-1(14),15,17-triene-2,8-dione
> <PUBCHEM_IUPAC_SYSTEMATIC_NAME>
(4S)-16-methoxy-4-methyl-18-oxidanyl-3-oxabicyclo[12.4.0]octadeca-1(14),15,17-triene-2,8-dione
> <PUBCHEM_IUPAC_TRADITIONAL_NAME>
(4S)-18-hydroxy-16-methoxy-4-methyl-3-oxabicyclo[12.4.0]octadeca-1(14),15,17-triene-2,8-quinone
> <PUBCHEM_IUPAC_INCHI>
InChI=1S/C19H26O5/c1-13-7-6-10-15(20)9-5-3-4-8-14-11-16(23-2)12-17(21)18(14)19(22)24-13/h11-13,21H,3-10H2,1-2H3/t13-/m0/s1
> <PUBCHEM_IUPAC_INCHIKEY>
BLBKPKVSVKHTRX-ZDUSSCGKSA-N
> <PUBCHEM_XLOGP3_AA>
4.2
> <PUBCHEM_EXACT_MASS>
334.17802393
> <PUBCHEM_MOLECULAR_FORMULA>
C19H26O5
> <PUBCHEM_MOLECULAR_WEIGHT>
334.4
> <PUBCHEM_OPENEYE_CAN_SMILES>
CC1CCCC(=O)CCCCCC2=C(C(=CC(=C2)OC)O)C(=O)O1
> <PUBCHEM_OPENEYE_ISO_SMILES>
C[C@H]1CCCC(=O)CCCCCC2=C(C(=CC(=C2)OC)O)C(=O)O1
> <PUBCHEM_CACTVS_TPSA>
72.8
> <PUBCHEM_MONOISOTOPIC_WEIGHT>
334.17802393
> <PUBCHEM_TOTAL_CHARGE>
0
> <PUBCHEM_HEAVY_ATOM_COUNT>
24
> <PUBCHEM_ATOM_DEF_STEREO_COUNT>
1
> <PUBCHEM_ATOM_UDEF_STEREO_COUNT>
0
> <PUBCHEM_BOND_DEF_STEREO_COUNT>
0
> <PUBCHEM_BOND_UDEF_STEREO_COUNT>
0
> <PUBCHEM_ISOTOPIC_ATOM_COUNT>
0
> <PUBCHEM_COMPONENT_COUNT>
1
> <PUBCHEM_CACTVS_TAUTO_COUNT>
-1
> <PUBCHEM_COORDINATE_TYPE>
1
5
255
> <PUBCHEM_BONDANNOTATIONS>
14  18  5
16  17  8
16  19  8
17  21  8
19  22  8
21  23  8
22  23  8
$$$$
