510093
  -OEChem-10302200282D
 53 55  0     1  0  0  0  0  0999 V2000
    2.3038   -2.5790    0.0000 O   0  0  0  0  0  0  0  0  0  0  0  0
    4.6876   -0.1610    0.0000 C   0  0  2  0  0  0  0  0  0  0  0  0
    4.6876   -1.1610    0.0000 C   0  0  3  0  0  0  0  0  0  0  0  0
    3.7937   -1.6957    0.0000 C   0  0  1  0  0  0  0  0  0  0  0  0
    5.5536    0.3390    0.0000 C   0  0  0  0  0  0  0  0  0  0  0  0
    6.4196   -0.1610    0.0000 C   0  0  3  0  0  0  0  0  0  0  0  0
    5.5536   -1.6610    0.0000 C   0  0  0  0  0  0  0  0  0  0  0  0
    3.7937    0.3736    0.0000 C   0  0  0  0  0  0  0  0  0  0  0  0
    6.4196   -1.1610    0.0000 C   0  0  0  0  0  0  0  0  0  0  0  0
    2.8876   -1.1818    0.0000 C   0  0  0  0  0  0  0  0  0  0  0  0
    2.8876   -0.1402    0.0000 C   0  0  0  0  0  0  0  0  0  0  0  0
    7.3296    0.3458    0.0000 C   0  0  0  0  0  0  0  0  0  0  0  0
    4.6876    0.8390    0.0000 C   0  0  0  0  0  0  0  0  0  0  0  0
    7.3377    1.3874    0.0000 C   0  0  2  0  0  0  0  0  0  0  0  0
    3.3037   -2.5674    0.0000 C   0  0  0  0  0  0  0  0  0  0  0  0
    4.3036   -2.5559    0.0000 C   0  0  0  0  0  0  0  0  0  0  0  0
    5.5376    1.3805    0.0000 C   0  0  0  0  0  0  0  0  0  0  0  0
    6.4356    1.9082    0.0000 C   0  0  0  0  0  0  0  0  0  0  0  0
    8.3377    1.3836    0.0000 C   0  0  0  0  0  0  0  0  0  0  0  0
    7.8410    2.2515    0.0000 C   0  0  0  0  0  0  0  0  0  0  0  0
    7.3444    3.1195    0.0000 C   0  0  0  0  0  0  0  0  0  0  0  0
    4.6924   -1.7810    0.0000 H   0  0  0  0  0  0  0  0  0  0  0  0
    6.9542   -0.4751    0.0000 H   0  0  0  0  0  0  0  0  0  0  0  0
    5.1551   -2.1360    0.0000 H   0  0  0  0  0  0  0  0  0  0  0  0
    5.9521   -2.1360    0.0000 H   0  0  0  0  0  0  0  0  0  0  0  0
    4.1982    0.8434    0.0000 H   0  0  0  0  0  0  0  0  0  0  0  0
    3.4000    0.8527    0.0000 H   0  0  0  0  0  0  0  0  0  0  0  0
    6.6317   -1.7436    0.0000 H   0  0  0  0  0  0  0  0  0  0  0  0
    7.0302   -1.0534    0.0000 H   0  0  0  0  0  0  0  0  0  0  0  0
    2.2767   -1.0757    0.0000 H   0  0  0  0  0  0  0  0  0  0  0  0
    2.6785   -1.7655    0.0000 H   0  0  0  0  0  0  0  0  0  0  0  0
    2.6785    0.4435    0.0000 H   0  0  0  0  0  0  0  0  0  0  0  0
    2.2767   -0.2463    0.0000 H   0  0  0  0  0  0  0  0  0  0  0  0
    7.5342   -0.2395    0.0000 H   0  0  0  0  0  0  0  0  0  0  0  0
    7.9413    0.4472    0.0000 H   0  0  0  0  0  0  0  0  0  0  0  0
    5.3076    0.8390    0.0000 H   0  0  0  0  0  0  0  0  0  0  0  0
    4.6876    1.4590    0.0000 H   0  0  0  0  0  0  0  0  0  0  0  0
    4.0676    0.8390    0.0000 H   0  0  0  0  0  0  0  0  0  0  0  0
    3.2031   -3.1792    0.0000 H   0  0  0  0  0  0  0  0  0  0  0  0
    3.8887   -2.7727    0.0000 H   0  0  0  0  0  0  0  0  0  0  0  0
    3.7703   -2.8721    0.0000 H   0  0  0  0  0  0  0  0  0  0  0  0
    4.6198   -3.0892    0.0000 H   0  0  0  0  0  0  0  0  0  0  0  0
    4.8370   -2.2397    0.0000 H   0  0  0  0  0  0  0  0  0  0  0  0
    4.9971    1.6843    0.0000 H   0  0  0  0  0  0  0  0  0  0  0  0
    6.8329    2.3842    0.0000 H   0  0  0  0  0  0  0  0  0  0  0  0
    6.0346    2.3811    0.0000 H   0  0  0  0  0  0  0  0  0  0  0  0
    8.3353    0.7636    0.0000 H   0  0  0  0  0  0  0  0  0  0  0  0
    8.9577    1.3812    0.0000 H   0  0  0  0  0  0  0  0  0  0  0  0
    8.3401    2.0036    0.0000 H   0  0  0  0  0  0  0  0  0  0  0  0
    8.4610    2.2491    0.0000 H   0  0  0  0  0  0  0  0  0  0  0  0
    2.0000   -3.1195    0.0000 H   0  0  0  0  0  0  0  0  0  0  0  0
    7.6564    3.6552    0.0000 H   0  0  0  0  0  0  0  0  0  0  0  0
    6.7244    3.1219    0.0000 H   0  0  0  0  0  0  0  0  0  0  0  0
  1 15  1  0  0  0  0
  1 51  1  0  0  0  0
  2  3  1  0  0  0  0
  2  5  1  0  0  0  0
  2  8  1  0  0  0  0
  2 13  1  6  0  0  0
  3  4  1  0  0  0  0
  3  7  1  0  0  0  0
  3 22  1  0  0  0  0
  4 10  1  0  0  0  0
  4 15  1  0  0  0  0
  4 16  1  1  0  0  0
  5  6  1  0  0  0  0
  5 17  2  0  0  0  0
  6  9  1  0  0  0  0
  6 12  1  0  0  0  0
  6 23  1  0  0  0  0
  7  9  1  0  0  0  0
  7 24  1  0  0  0  0
  7 25  1  0  0  0  0
  8 11  1  0  0  0  0
  8 26  1  0  0  0  0
  8 27  1  0  0  0  0
  9 28  1  0  0  0  0
  9 29  1  0  0  0  0
 10 11  1  0  0  0  0
 10 30  1  0  0  0  0
 10 31  1  0  0  0  0
 11 32  1  0  0  0  0
 11 33  1  0  0  0  0
 12 14  1  0  0  0  0
 12 34  1  0  0  0  0
 12 35  1  0  0  0  0
 13 36  1  0  0  0  0
 13 37  1  0  0  0  0
 13 38  1  0  0  0  0
 14 18  1  0  0  0  0
 14 19  1  6  0  0  0
 14 20  1  0  0  0  0
 15 39  1  0  0  0  0
 15 40  1  0  0  0  0
 16 41  1  0  0  0  0
 16 42  1  0  0  0  0
 16 43  1  0  0  0  0
 17 18  1  0  0  0  0
 17 44  1  0  0  0  0
 18 45  1  0  0  0  0
 18 46  1  0  0  0  0
 19 47  1  0  0  0  0
 19 48  1  0  0  0  0
 19 49  1  0  0  0  0
 20 21  2  0  0  0  0
 20 50  1  0  0  0  0
 21 52  1  0  0  0  0
 21 53  1  0  0  0  0
M  END
> <PUBCHEM_COMPOUND_CID>
510093
> <PUBCHEM_COMPOUND_CANONICALIZED>
1
> <PUBCHEM_CACTVS_COMPLEXITY>
465
> <PUBCHEM_CACTVS_HBOND_ACCEPTOR>
1
> <PUBCHEM_CACTVS_HBOND_DONOR>
1
> <PUBCHEM_CACTVS_ROTATABLE_BOND>
2
> <PUBCHEM_CACTVS_SUBSKEYS>
AAADcfB4IAAAAAAAAAAAAAAAAAAAAAAAAAAwYIAAAAAAAADAAAAAGgAACAAADwCggAICAAAAAgCAAiBCAAAAAAAgAAAICAAAAAgAEAIAAQAAQAAEgAAIAAOAwOAPgAAAAAAAAACAAAQAACAAAAAAAAAAAA==
> <PUBCHEM_IUPAC_OPENEYE_NAME>
[(1R,4aR,7R)-1,4a,7-trimethyl-7-vinyl-3,4,6,8,8a,9,10,10a-octahydro-2H-phenanthren-1-yl]methanol
> <PUBCHEM_IUPAC_CAS_NAME>
[(1R,4aR,7R)-7-ethenyl-1,4a,7-trimethyl-3,4,6,8,8a,9,10,10a-octahydro-2H-phenanthren-1-yl]methanol
> <PUBCHEM_IUPAC_NAME_MARKUP>
[(1<I>R</I>,4<I>a</I><I>R</I>,7<I>R</I>)-7-ethenyl-1,4<I>a</I>,7-trimethyl-3,4,6,8,8<I>a</I>,9,10,10<I>a</I>-octahydro-2<I>H</I>-phenanthren-1-yl]methanol
> <PUBCHEM_IUPAC_NAME>
[(1R,4aR,7R)-7-ethenyl-1,4a,7-trimethyl-3,4,6,8,8a,9,10,10a-octahydro-2H-phenanthren-1-yl]methanol
> <PUBCHEM_IUPAC_SYSTEMATIC_NAME>
[(1R,4aR,7R)-7-ethenyl-1,4a,7-trimethyl-3,4,6,8,8a,9,10,10a-octahydro-2H-phenanthren-1-yl]methanol
> <PUBCHEM_IUPAC_TRADITIONAL_NAME>
[(1R,4aR,7R)-1,4a,7-trimethyl-7-vinyl-3,4,6,8,8a,9,10,10a-octahydro-2H-phenanthren-1-yl]methanol
> <PUBCHEM_IUPAC_INCHI>
InChI=1S/C20H32O/c1-5-18(2)12-9-16-15(13-18)7-8-17-19(3,14-21)10-6-11-20(16,17)4/h5,9,15,17,21H,1,6-8,10-14H2,2-4H3/t15?,17?,18-,19+,20+/m1/s1
> <PUBCHEM_IUPAC_INCHIKEY>
YSFNIVKHYKBKHI-ABZWLXOVSA-N
> <PUBCHEM_XLOGP3_AA>
5.6
> <PUBCHEM_EXACT_MASS>
288.245315640
> <PUBCHEM_MOLECULAR_FORMULA>
C20H32O
> <PUBCHEM_MOLECULAR_WEIGHT>
288.5
> <PUBCHEM_OPENEYE_CAN_SMILES>
CC1(CCCC2(C1CCC3C2=CCC(C3)(C)C=C)C)CO
> <PUBCHEM_OPENEYE_ISO_SMILES>
C[C@]1(CCC[C@@]2(C1CCC3C2=CC[C@@](C3)(C)C=C)C)CO
> <PUBCHEM_CACTVS_TPSA>
20.2
> <PUBCHEM_MONOISOTOPIC_WEIGHT>
288.245315640
> <PUBCHEM_TOTAL_CHARGE>
0
> <PUBCHEM_HEAVY_ATOM_COUNT>
21
> <PUBCHEM_ATOM_DEF_STEREO_COUNT>
3
> <PUBCHEM_ATOM_UDEF_STEREO_COUNT>
2
> <PUBCHEM_BOND_DEF_STEREO_COUNT>
0
> <PUBCHEM_BOND_UDEF_STEREO_COUNT>
0
> <PUBCHEM_ISOTOPIC_ATOM_COUNT>
0
> <PUBCHEM_COMPONENT_COUNT>
1
> <PUBCHEM_CACTVS_TAUTO_COUNT>
-1
> <PUBCHEM_COORDINATE_TYPE>
1
5
255
> <PUBCHEM_BONDANNOTATIONS>
14  19  6
2  13  6
3  7  3
4  16  5
6  9  3
$$$$
