510078
  -OEChem-10302200282D
 54 58  0     1  0  0  0  0  0999 V2000
    6.1724    1.0828    0.0000 O   0  0  0  0  0  0  0  0  0  0  0  0
    4.8633    2.0339    0.0000 O   0  0  0  0  0  0  0  0  0  0  0  0
    7.6403    3.3210    0.0000 O   0  0  0  0  0  0  0  0  0  0  0  0
    8.1756    1.6737    0.0000 O   0  0  0  0  0  0  0  0  0  0  0  0
    3.4782    1.4429    0.0000 N   0  0  0  0  0  0  0  0  0  0  0  0
    2.6691    2.8442    0.0000 N   0  0  0  0  0  0  0  0  0  0  0  0
    5.1724    1.0828    0.0000 C   0  0  1  0  0  0  0  0  0  0  0  0
    4.2213    0.7738    0.0000 C   0  0  0  0  0  0  0  0  0  0  0  0
    6.4814    2.0339    0.0000 C   0  0  1  0  0  0  0  0  0  0  0  0
    5.6724    2.6216    0.0000 C   0  0  0  0  0  0  0  0  0  0  0  0
    5.1724    0.0828    0.0000 C   0  0  0  0  0  0  0  0  0  0  0  0
    6.0384   -0.4172    0.0000 C   0  0  0  0  0  0  0  0  0  0  0  0
    4.3063   -0.4172    0.0000 C   0  0  0  0  0  0  0  0  0  0  0  0
    7.4324    2.3429    0.0000 C   0  0  0  0  0  0  0  0  0  0  0  0
    6.0384   -1.4172    0.0000 C   0  0  0  0  0  0  0  0  0  0  0  0
    4.3063   -1.4172    0.0000 C   0  0  0  0  0  0  0  0  0  0  0  0
    5.1724   -1.9172    0.0000 C   0  0  0  0  0  0  0  0  0  0  0  0
    2.5000    1.2350    0.0000 C   0  0  0  0  0  0  0  0  0  0  0  0
    3.5827    2.4374    0.0000 C   0  0  0  0  0  0  0  0  0  0  0  0
    5.1724   -2.9172    0.0000 C   0  0  0  0  0  0  0  0  0  0  0  0
    2.0000    2.1010    0.0000 C   0  0  0  0  0  0  0  0  0  0  0  0
    8.5914    3.6300    0.0000 C   0  0  0  0  0  0  0  0  0  0  0  0
    6.0384   -3.4172    0.0000 C   0  0  0  0  0  0  0  0  0  0  0  0
    4.3063   -3.4172    0.0000 C   0  0  0  0  0  0  0  0  0  0  0  0
    6.0384   -4.4172    0.0000 C   0  0  0  0  0  0  0  0  0  0  0  0
    4.3063   -4.4172    0.0000 C   0  0  0  0  0  0  0  0  0  0  0  0
    8.7993    4.6082    0.0000 C   0  0  0  0  0  0  0  0  0  0  0  0
    9.3345    2.9609    0.0000 C   0  0  0  0  0  0  0  0  0  0  0  0
    5.1724   -4.9172    0.0000 C   0  0  0  0  0  0  0  0  0  0  0  0
    9.7504    4.9172    0.0000 C   0  0  0  0  0  0  0  0  0  0  0  0
   10.2856    3.2699    0.0000 C   0  0  0  0  0  0  0  0  0  0  0  0
   10.4935    4.2481    0.0000 C   0  0  0  0  0  0  0  0  0  0  0  0
    3.7327    0.3921    0.0000 H   0  0  0  0  0  0  0  0  0  0  0  0
    4.5124    0.2264    0.0000 H   0  0  0  0  0  0  0  0  0  0  0  0
    6.9198    1.5954    0.0000 H   0  0  0  0  0  0  0  0  0  0  0  0
    6.0872    3.0824    0.0000 H   0  0  0  0  0  0  0  0  0  0  0  0
    5.2575    3.0824    0.0000 H   0  0  0  0  0  0  0  0  0  0  0  0
    6.5753   -0.1072    0.0000 H   0  0  0  0  0  0  0  0  0  0  0  0
    3.7694   -0.1072    0.0000 H   0  0  0  0  0  0  0  0  0  0  0  0
    6.5753   -1.7272    0.0000 H   0  0  0  0  0  0  0  0  0  0  0  0
    3.7694   -1.7272    0.0000 H   0  0  0  0  0  0  0  0  0  0  0  0
    2.2478    0.6686    0.0000 H   0  0  0  0  0  0  0  0  0  0  0  0
    4.1196    2.7474    0.0000 H   0  0  0  0  0  0  0  0  0  0  0  0
    1.3834    2.1658    0.0000 H   0  0  0  0  0  0  0  0  0  0  0  0
    6.5753   -3.1072    0.0000 H   0  0  0  0  0  0  0  0  0  0  0  0
    3.7694   -3.1072    0.0000 H   0  0  0  0  0  0  0  0  0  0  0  0
    6.5753   -4.7272    0.0000 H   0  0  0  0  0  0  0  0  0  0  0  0
    3.7694   -4.7272    0.0000 H   0  0  0  0  0  0  0  0  0  0  0  0
    8.3386    5.0230    0.0000 H   0  0  0  0  0  0  0  0  0  0  0  0
    9.2056    2.3544    0.0000 H   0  0  0  0  0  0  0  0  0  0  0  0
    5.1724   -5.5372    0.0000 H   0  0  0  0  0  0  0  0  0  0  0  0
    9.8793    5.5236    0.0000 H   0  0  0  0  0  0  0  0  0  0  0  0
   10.7463    2.8551    0.0000 H   0  0  0  0  0  0  0  0  0  0  0  0
   11.0832    4.4397    0.0000 H   0  0  0  0  0  0  0  0  0  0  0  0
  1  7  1  0  0  0  0
  1  9  1  0  0  0  0
  2  7  1  0  0  0  0
  2 10  1  0  0  0  0
  3 14  1  0  0  0  0
  3 22  1  0  0  0  0
  4 14  2  0  0  0  0
  5  8  1  0  0  0  0
  5 18  1  0  0  0  0
  5 19  1  0  0  0  0
  6 19  2  0  0  0  0
  6 21  1  0  0  0  0
  7  8  1  6  0  0  0
  7 11  1  0  0  0  0
  8 33  1  0  0  0  0
  8 34  1  0  0  0  0
  9 10  1  0  0  0  0
  9 14  1  1  0  0  0
  9 35  1  0  0  0  0
 10 36  1  0  0  0  0
 10 37  1  0  0  0  0
 11 12  2  0  0  0  0
 11 13  1  0  0  0  0
 12 15  1  0  0  0  0
 12 38  1  0  0  0  0
 13 16  2  0  0  0  0
 13 39  1  0  0  0  0
 15 17  2  0  0  0  0
 15 40  1  0  0  0  0
 16 17  1  0  0  0  0
 16 41  1  0  0  0  0
 17 20  1  0  0  0  0
 18 21  2  0  0  0  0
 18 42  1  0  0  0  0
 19 43  1  0  0  0  0
 20 23  2  0  0  0  0
 20 24  1  0  0  0  0
 21 44  1  0  0  0  0
 22 27  2  0  0  0  0
 22 28  1  0  0  0  0
 23 25  1  0  0  0  0
 23 45  1  0  0  0  0
 24 26  2  0  0  0  0
 24 46  1  0  0  0  0
 25 29  2  0  0  0  0
 25 47  1  0  0  0  0
 26 29  1  0  0  0  0
 26 48  1  0  0  0  0
 27 30  1  0  0  0  0
 27 49  1  0  0  0  0
 28 31  2  0  0  0  0
 28 50  1  0  0  0  0
 29 51  1  0  0  0  0
 30 32  2  0  0  0  0
 30 52  1  0  0  0  0
 31 32  1  0  0  0  0
 31 53  1  0  0  0  0
 32 54  1  0  0  0  0
M  END
> <PUBCHEM_COMPOUND_CID>
510078
> <PUBCHEM_COMPOUND_CANONICALIZED>
1
> <PUBCHEM_CACTVS_COMPLEXITY>
611
> <PUBCHEM_CACTVS_HBOND_ACCEPTOR>
5
> <PUBCHEM_CACTVS_HBOND_DONOR>
0
> <PUBCHEM_CACTVS_ROTATABLE_BOND>
7
> <PUBCHEM_CACTVS_SUBSKEYS>
AAADceB7OAAAAAAAAAAAAAAAAAAAAWJAAAAwYMAAAAAAAAAB1AAAHgAAAAAADBThmgY9npcMFACoAjD3bAICiC0xMqAJyAFeOIifbiaEuR+3OiCt4BOeqCeQwPAOwAAAAAAAAACAAAAAAAAAAAAAAAAAAA==
> <PUBCHEM_IUPAC_OPENEYE_NAME>
phenyl (2R,4S)-2-(imidazol-1-ylmethyl)-2-(4-phenylphenyl)-1,3-dioxolane-4-carboxylate
> <PUBCHEM_IUPAC_CAS_NAME>
(2R,4S)-2-(1-imidazolylmethyl)-2-(4-phenylphenyl)-1,3-dioxolane-4-carboxylic acid phenyl ester
> <PUBCHEM_IUPAC_NAME_MARKUP>
phenyl (2<I>R</I>,4<I>S</I>)-2-(imidazol-1-ylmethyl)-2-(4-phenylphenyl)-1,3-dioxolane-4-carboxylate
> <PUBCHEM_IUPAC_NAME>
phenyl (2R,4S)-2-(imidazol-1-ylmethyl)-2-(4-phenylphenyl)-1,3-dioxolane-4-carboxylate
> <PUBCHEM_IUPAC_SYSTEMATIC_NAME>
phenyl (2R,4S)-2-(imidazol-1-ylmethyl)-2-(4-phenylphenyl)-1,3-dioxolane-4-carboxylate
> <PUBCHEM_IUPAC_TRADITIONAL_NAME>
(2R,4S)-2-(imidazol-1-ylmethyl)-2-(4-phenylphenyl)-1,3-dioxolane-4-carboxylic acid phenyl ester
> <PUBCHEM_IUPAC_INCHI>
InChI=1S/C26H22N2O4/c29-25(31-23-9-5-2-6-10-23)24-17-30-26(32-24,18-28-16-15-27-19-28)22-13-11-21(12-14-22)20-7-3-1-4-8-20/h1-16,19,24H,17-18H2/t24-,26-/m0/s1
> <PUBCHEM_IUPAC_INCHIKEY>
JPFWDFPNTINQET-AHWVRZQESA-N
> <PUBCHEM_XLOGP3_AA>
4
> <PUBCHEM_EXACT_MASS>
426.15795719
> <PUBCHEM_MOLECULAR_FORMULA>
C26H22N2O4
> <PUBCHEM_MOLECULAR_WEIGHT>
426.5
> <PUBCHEM_OPENEYE_CAN_SMILES>
C1C(OC(O1)(CN2C=CN=C2)C3=CC=C(C=C3)C4=CC=CC=C4)C(=O)OC5=CC=CC=C5
> <PUBCHEM_OPENEYE_ISO_SMILES>
C1[C@H](O[C@@](O1)(CN2C=CN=C2)C3=CC=C(C=C3)C4=CC=CC=C4)C(=O)OC5=CC=CC=C5
> <PUBCHEM_CACTVS_TPSA>
62.6
> <PUBCHEM_MONOISOTOPIC_WEIGHT>
426.15795719
> <PUBCHEM_TOTAL_CHARGE>
0
> <PUBCHEM_HEAVY_ATOM_COUNT>
32
> <PUBCHEM_ATOM_DEF_STEREO_COUNT>
2
> <PUBCHEM_ATOM_UDEF_STEREO_COUNT>
0
> <PUBCHEM_BOND_DEF_STEREO_COUNT>
0
> <PUBCHEM_BOND_UDEF_STEREO_COUNT>
0
> <PUBCHEM_ISOTOPIC_ATOM_COUNT>
0
> <PUBCHEM_COMPONENT_COUNT>
1
> <PUBCHEM_CACTVS_TAUTO_COUNT>
-1
> <PUBCHEM_COORDINATE_TYPE>
1
5
255
> <PUBCHEM_BONDANNOTATIONS>
11  12  8
11  13  8
12  15  8
13  16  8
15  17  8
16  17  8
18  21  8
20  23  8
20  24  8
22  27  8
22  28  8
23  25  8
24  26  8
25  29  8
26  29  8
27  30  8
28  31  8
30  32  8
31  32  8
5  18  8
5  19  8
6  19  8
6  21  8
7  8  6
9  14  5
$$$$
