510045
  -OEChem-10302200282D
 51 54  0     1  0  0  0  0  0999 V2000
    5.4641   -2.9806    0.0000 N   0  0  0  0  0  0  0  0  0  0  0  0
    5.9641   -4.5194    0.0000 N   0  0  0  0  0  0  0  0  0  0  0  0
    5.4641   -1.9806    0.0000 C   0  0  3  0  0  0  0  0  0  0  0  0
    4.5981   -1.4806    0.0000 C   0  0  0  0  0  0  0  0  0  0  0  0
    6.3301   -1.4806    0.0000 C   0  0  0  0  0  0  0  0  0  0  0  0
    3.7320   -1.9806    0.0000 C   0  0  0  0  0  0  0  0  0  0  0  0
    6.3301   -0.4806    0.0000 C   0  0  0  0  0  0  0  0  0  0  0  0
    2.8660   -1.4806    0.0000 C   0  0  0  0  0  0  0  0  0  0  0  0
    4.6551   -3.5684    0.0000 C   0  0  0  0  0  0  0  0  0  0  0  0
    6.2731   -3.5684    0.0000 C   0  0  0  0  0  0  0  0  0  0  0  0
    5.4641    0.0194    0.0000 C   0  0  0  0  0  0  0  0  0  0  0  0
    7.1962    0.0194    0.0000 C   0  0  0  0  0  0  0  0  0  0  0  0
    3.7320   -2.9806    0.0000 C   0  0  0  0  0  0  0  0  0  0  0  0
    6.3301    1.5194    0.0000 C   0  0  0  0  0  0  0  0  0  0  0  0
    5.4641    1.0194    0.0000 C   0  0  0  0  0  0  0  0  0  0  0  0
    7.1962    1.0194    0.0000 C   0  0  0  0  0  0  0  0  0  0  0  0
    2.0000   -1.9806    0.0000 C   0  0  0  0  0  0  0  0  0  0  0  0
    4.9641   -4.5194    0.0000 C   0  0  0  0  0  0  0  0  0  0  0  0
    2.8660   -0.4806    0.0000 C   0  0  0  0  0  0  0  0  0  0  0  0
    2.8660   -3.4806    0.0000 C   0  0  0  0  0  0  0  0  0  0  0  0
    2.0000   -2.9806    0.0000 C   0  0  0  0  0  0  0  0  0  0  0  0
    6.3301    2.5194    0.0000 C   0  0  0  0  0  0  0  0  0  0  0  0
    5.4641    3.0194    0.0000 C   0  0  0  0  0  0  0  0  0  0  0  0
    7.1962    3.0194    0.0000 C   0  0  0  0  0  0  0  0  0  0  0  0
    5.4641    4.0194    0.0000 C   0  0  0  0  0  0  0  0  0  0  0  0
    7.1962    4.0194    0.0000 C   0  0  0  0  0  0  0  0  0  0  0  0
    6.3301    4.5194    0.0000 C   0  0  0  0  0  0  0  0  0  0  0  0
    6.0010   -2.2906    0.0000 H   0  0  0  0  0  0  0  0  0  0  0  0
    4.9966   -1.0056    0.0000 H   0  0  0  0  0  0  0  0  0  0  0  0
    4.1996   -1.0056    0.0000 H   0  0  0  0  0  0  0  0  0  0  0  0
    6.5422   -2.0632    0.0000 H   0  0  0  0  0  0  0  0  0  0  0  0
    6.9407   -1.3729    0.0000 H   0  0  0  0  0  0  0  0  0  0  0  0
    4.0654   -3.3768    0.0000 H   0  0  0  0  0  0  0  0  0  0  0  0
    6.8628   -3.3768    0.0000 H   0  0  0  0  0  0  0  0  0  0  0  0
    4.9272   -0.2906    0.0000 H   0  0  0  0  0  0  0  0  0  0  0  0
    7.7331   -0.2906    0.0000 H   0  0  0  0  0  0  0  0  0  0  0  0
    4.2690   -3.2906    0.0000 H   0  0  0  0  0  0  0  0  0  0  0  0
    4.9272    1.3294    0.0000 H   0  0  0  0  0  0  0  0  0  0  0  0
    7.7331    1.3294    0.0000 H   0  0  0  0  0  0  0  0  0  0  0  0
    1.4631   -1.6706    0.0000 H   0  0  0  0  0  0  0  0  0  0  0  0
    4.5997   -5.0210    0.0000 H   0  0  0  0  0  0  0  0  0  0  0  0
    3.4860   -0.4806    0.0000 H   0  0  0  0  0  0  0  0  0  0  0  0
    2.8660    0.1394    0.0000 H   0  0  0  0  0  0  0  0  0  0  0  0
    2.2460   -0.4806    0.0000 H   0  0  0  0  0  0  0  0  0  0  0  0
    2.8660   -4.1006    0.0000 H   0  0  0  0  0  0  0  0  0  0  0  0
    1.4631   -3.2906    0.0000 H   0  0  0  0  0  0  0  0  0  0  0  0
    4.9272    2.7094    0.0000 H   0  0  0  0  0  0  0  0  0  0  0  0
    7.7331    2.7094    0.0000 H   0  0  0  0  0  0  0  0  0  0  0  0
    4.9272    4.3294    0.0000 H   0  0  0  0  0  0  0  0  0  0  0  0
    7.7331    4.3294    0.0000 H   0  0  0  0  0  0  0  0  0  0  0  0
    6.3301    5.1394    0.0000 H   0  0  0  0  0  0  0  0  0  0  0  0
  1  3  1  0  0  0  0
  1  9  1  0  0  0  0
  1 10  1  0  0  0  0
  2 10  2  0  0  0  0
  2 18  1  0  0  0  0
  3  4  1  0  0  0  0
  3  5  1  0  0  0  0
  3 28  1  0  0  0  0
  4  6  1  0  0  0  0
  4 29  1  0  0  0  0
  4 30  1  0  0  0  0
  5  7  1  0  0  0  0
  5 31  1  0  0  0  0
  5 32  1  0  0  0  0
  6  8  1  0  0  0  0
  6 13  2  0  0  0  0
  7 11  2  0  0  0  0
  7 12  1  0  0  0  0
  8 17  2  0  0  0  0
  8 19  1  0  0  0  0
  9 18  2  0  0  0  0
  9 33  1  0  0  0  0
 10 34  1  0  0  0  0
 11 15  1  0  0  0  0
 11 35  1  0  0  0  0
 12 16  2  0  0  0  0
 12 36  1  0  0  0  0
 13 20  1  0  0  0  0
 13 37  1  0  0  0  0
 14 15  2  0  0  0  0
 14 16  1  0  0  0  0
 14 22  1  0  0  0  0
 15 38  1  0  0  0  0
 16 39  1  0  0  0  0
 17 21  1  0  0  0  0
 17 40  1  0  0  0  0
 18 41  1  0  0  0  0
 19 42  1  0  0  0  0
 19 43  1  0  0  0  0
 19 44  1  0  0  0  0
 20 21  2  0  0  0  0
 20 45  1  0  0  0  0
 21 46  1  0  0  0  0
 22 23  2  0  0  0  0
 22 24  1  0  0  0  0
 23 25  1  0  0  0  0
 23 47  1  0  0  0  0
 24 26  2  0  0  0  0
 24 48  1  0  0  0  0
 25 27  2  0  0  0  0
 25 49  1  0  0  0  0
 26 27  1  0  0  0  0
 26 50  1  0  0  0  0
 27 51  1  0  0  0  0
M  END
> <PUBCHEM_COMPOUND_CID>
510045
> <PUBCHEM_COMPOUND_CANONICALIZED>
1
> <PUBCHEM_CACTVS_COMPLEXITY>
422
> <PUBCHEM_CACTVS_HBOND_ACCEPTOR>
1
> <PUBCHEM_CACTVS_HBOND_DONOR>
0
> <PUBCHEM_CACTVS_ROTATABLE_BOND>
6
> <PUBCHEM_CACTVS_SUBSKEYS>
AAADceB7AAAAAAAAAAAAAAAAAAAAAWAAAAAwYMAAAAAAAAAB1AAAHAAAAAAADCjBGgQ/kJcMEACgAjBnZAACgC0xEqAJyAAYMIiIaCKAmRGUIAAogAKIiCcQgMAOwAAAAAAQAACAAAAAACAAAAAAAAAAAA==
> <PUBCHEM_IUPAC_OPENEYE_NAME>
1-[1-(o-tolylmethyl)-2-(4-phenylphenyl)ethyl]imidazole
> <PUBCHEM_IUPAC_CAS_NAME>
1-[1-(2-methylphenyl)-3-(4-phenylphenyl)propan-2-yl]imidazole
> <PUBCHEM_IUPAC_NAME_MARKUP>
1-[1-(2-methylphenyl)-3-(4-phenylphenyl)propan-2-yl]imidazole
> <PUBCHEM_IUPAC_NAME>
1-[1-(2-methylphenyl)-3-(4-phenylphenyl)propan-2-yl]imidazole
> <PUBCHEM_IUPAC_SYSTEMATIC_NAME>
1-[1-(2-methylphenyl)-3-(4-phenylphenyl)propan-2-yl]imidazole
> <PUBCHEM_IUPAC_TRADITIONAL_NAME>
1-[1-(2-methylbenzyl)-2-(4-phenylphenyl)ethyl]imidazole
> <PUBCHEM_IUPAC_INCHI>
InChI=1S/C25H24N2/c1-20-7-5-6-10-24(20)18-25(27-16-15-26-19-27)17-21-11-13-23(14-12-21)22-8-3-2-4-9-22/h2-16,19,25H,17-18H2,1H3
> <PUBCHEM_IUPAC_INCHIKEY>
FLMGBBBLMSRRNE-UHFFFAOYSA-N
> <PUBCHEM_XLOGP3_AA>
5.9
> <PUBCHEM_EXACT_MASS>
352.193948774
> <PUBCHEM_MOLECULAR_FORMULA>
C25H24N2
> <PUBCHEM_MOLECULAR_WEIGHT>
352.5
> <PUBCHEM_OPENEYE_CAN_SMILES>
CC1=CC=CC=C1CC(CC2=CC=C(C=C2)C3=CC=CC=C3)N4C=CN=C4
> <PUBCHEM_OPENEYE_ISO_SMILES>
CC1=CC=CC=C1CC(CC2=CC=C(C=C2)C3=CC=CC=C3)N4C=CN=C4
> <PUBCHEM_CACTVS_TPSA>
17.8
> <PUBCHEM_MONOISOTOPIC_WEIGHT>
352.193948774
> <PUBCHEM_TOTAL_CHARGE>
0
> <PUBCHEM_HEAVY_ATOM_COUNT>
27
> <PUBCHEM_ATOM_DEF_STEREO_COUNT>
0
> <PUBCHEM_ATOM_UDEF_STEREO_COUNT>
1
> <PUBCHEM_BOND_DEF_STEREO_COUNT>
0
> <PUBCHEM_BOND_UDEF_STEREO_COUNT>
0
> <PUBCHEM_ISOTOPIC_ATOM_COUNT>
0
> <PUBCHEM_COMPONENT_COUNT>
1
> <PUBCHEM_CACTVS_TAUTO_COUNT>
-1
> <PUBCHEM_COORDINATE_TYPE>
1
5
255
> <PUBCHEM_BONDANNOTATIONS>
1  10  8
1  9  8
11  15  8
12  16  8
13  20  8
14  15  8
14  16  8
17  21  8
2  10  8
2  18  8
20  21  8
22  23  8
22  24  8
23  25  8
24  26  8
25  27  8
26  27  8
3  5  3
6  13  8
6  8  8
7  11  8
7  12  8
8  17  8
9  18  8
$$$$
