510036
  -OEChem-10302200282D
 68 73  0     1  0  0  0  0  0999 V2000
    7.0711   -2.4747    0.0000 O   0  0  0  0  0  0  0  0  0  0  0  0
    9.1402    0.3731    0.0000 O   0  0  0  0  0  0  0  0  0  0  0  0
    5.2087    0.0901    0.0000 N   0  0  3  0  0  0  0  0  0  0  0  0
    5.2087   -1.5194    0.0000 N   0  0  3  0  0  0  0  0  0  0  0  0
    7.3801    0.0944    0.0000 N   0  0  0  0  0  0  0  0  0  0  0  0
    8.3312   -1.2146    0.0000 N   0  0  0  0  0  0  0  0  0  0  0  0
    5.7923   -0.7146    0.0000 C   0  0  3  0  0  0  0  0  0  0  0  0
    6.7923   -0.7146    0.0000 C   0  0  3  0  0  0  0  0  0  0  0  0
    4.2625   -0.2146    0.0000 C   0  0  0  0  0  0  0  0  0  0  0  0
    4.2625   -1.2146    0.0000 C   0  0  0  0  0  0  0  0  0  0  0  0
    5.5194    1.0406    0.0000 C   0  0  0  0  0  0  0  0  0  0  0  0
    7.3801   -1.5237    0.0000 C   0  0  0  0  0  0  0  0  0  0  0  0
    5.5194   -2.4699    0.0000 C   0  0  0  0  0  0  0  0  0  0  0  0
    8.3312   -0.2146    0.0000 C   0  0  0  0  0  0  0  0  0  0  0  0
    4.8515    1.7849    0.0000 C   0  0  0  0  0  0  0  0  0  0  0  0
    3.3965    0.2854    0.0000 C   0  0  0  0  0  0  0  0  0  0  0  0
    3.3965   -1.7146    0.0000 C   0  0  0  0  0  0  0  0  0  0  0  0
    7.0711    1.0454    0.0000 C   0  0  0  0  0  0  0  0  0  0  0  0
    4.8515   -3.2142    0.0000 C   0  0  0  0  0  0  0  0  0  0  0  0
    9.1402   -1.8024    0.0000 C   0  0  0  0  0  0  0  0  0  0  0  0
    2.5304   -0.2146    0.0000 C   0  0  0  0  0  0  0  0  0  0  0  0
    2.5304   -1.2146    0.0000 C   0  0  0  0  0  0  0  0  0  0  0  0
    3.9010    2.0956    0.0000 C   0  0  0  0  0  0  0  0  0  0  0  0
    6.0930    1.2533    0.0000 C   0  0  0  0  0  0  0  0  0  0  0  0
    7.7402    1.7886    0.0000 C   0  0  0  0  0  0  0  0  0  0  0  0
    9.0357   -2.7970    0.0000 C   0  0  0  0  0  0  0  0  0  0  0  0
   10.0537   -1.3957    0.0000 C   0  0  0  0  0  0  0  0  0  0  0  0
    3.6948    3.0741    0.0000 C   0  0  0  0  0  0  0  0  0  0  0  0
    3.1567    1.4277    0.0000 C   0  0  0  0  0  0  0  0  0  0  0  0
    5.7839    2.2044    0.0000 C   0  0  0  0  0  0  0  0  0  0  0  0
    7.4312    2.7396    0.0000 C   0  0  0  0  0  0  0  0  0  0  0  0
    6.4531    2.9475    0.0000 C   0  0  0  0  0  0  0  0  0  0  0  0
    9.8447   -3.3847    0.0000 C   0  0  0  0  0  0  0  0  0  0  0  0
   10.8627   -1.9835    0.0000 C   0  0  0  0  0  0  0  0  0  0  0  0
    2.7443    3.3847    0.0000 C   0  0  0  0  0  0  0  0  0  0  0  0
    2.2062    1.7384    0.0000 C   0  0  0  0  0  0  0  0  0  0  0  0
   10.7582   -2.9780    0.0000 C   0  0  0  0  0  0  0  0  0  0  0  0
    2.0000    2.7170    0.0000 C   0  0  0  0  0  0  0  0  0  0  0  0
    6.0740   -1.2670    0.0000 H   0  0  0  0  0  0  0  0  0  0  0  0
    6.5108   -1.2671    0.0000 H   0  0  0  0  0  0  0  0  0  0  0  0
    6.0663    0.7486    0.0000 H   0  0  0  0  0  0  0  0  0  0  0  0
    5.9019    1.5285    0.0000 H   0  0  0  0  0  0  0  0  0  0  0  0
    5.9019   -2.9578    0.0000 H   0  0  0  0  0  0  0  0  0  0  0  0
    6.0663   -2.1779    0.0000 H   0  0  0  0  0  0  0  0  0  0  0  0
    5.4268    2.0162    0.0000 H   0  0  0  0  0  0  0  0  0  0  0  0
    4.5129    1.2655    0.0000 H   0  0  0  0  0  0  0  0  0  0  0  0
    3.3965    0.9054    0.0000 H   0  0  0  0  0  0  0  0  0  0  0  0
    3.3965   -2.3346    0.0000 H   0  0  0  0  0  0  0  0  0  0  0  0
    4.3901   -2.8001    0.0000 H   0  0  0  0  0  0  0  0  0  0  0  0
    4.4375   -3.6757    0.0000 H   0  0  0  0  0  0  0  0  0  0  0  0
    5.3130   -3.6283    0.0000 H   0  0  0  0  0  0  0  0  0  0  0  0
    1.9935    0.0954    0.0000 H   0  0  0  0  0  0  0  0  0  0  0  0
    1.9935   -1.5246    0.0000 H   0  0  0  0  0  0  0  0  0  0  0  0
    5.6781    0.7926    0.0000 H   0  0  0  0  0  0  0  0  0  0  0  0
    8.3467    1.6597    0.0000 H   0  0  0  0  0  0  0  0  0  0  0  0
    8.4693   -3.0491    0.0000 H   0  0  0  0  0  0  0  0  0  0  0  0
   10.1185   -0.7791    0.0000 H   0  0  0  0  0  0  0  0  0  0  0  0
    4.1563    3.4882    0.0000 H   0  0  0  0  0  0  0  0  0  0  0  0
    3.2846    0.8211    0.0000 H   0  0  0  0  0  0  0  0  0  0  0  0
    5.1775    2.3333    0.0000 H   0  0  0  0  0  0  0  0  0  0  0  0
    7.8461    3.2004    0.0000 H   0  0  0  0  0  0  0  0  0  0  0  0
    6.2615    3.5372    0.0000 H   0  0  0  0  0  0  0  0  0  0  0  0
    9.7799   -4.0013    0.0000 H   0  0  0  0  0  0  0  0  0  0  0  0
   11.4291   -1.7313    0.0000 H   0  0  0  0  0  0  0  0  0  0  0  0
    2.6164    3.9914    0.0000 H   0  0  0  0  0  0  0  0  0  0  0  0
    1.7447    1.3244    0.0000 H   0  0  0  0  0  0  0  0  0  0  0  0
   11.2598   -3.3424    0.0000 H   0  0  0  0  0  0  0  0  0  0  0  0
    1.4107    2.9096    0.0000 H   0  0  0  0  0  0  0  0  0  0  0  0
  1 12  2  0  0  0  0
  2 14  2  0  0  0  0
  3  7  1  0  0  0  0
  3  9  1  0  0  0  0
  3 11  1  0  0  0  0
  4  7  1  0  0  0  0
  4 10  1  0  0  0  0
  4 13  1  0  0  0  0
  5  8  1  0  0  0  0
  5 14  1  0  0  0  0
  5 18  1  0  0  0  0
  6 12  1  0  0  0  0
  6 14  1  0  0  0  0
  6 20  1  0  0  0  0
  7  8  1  0  0  0  0
  7 39  1  0  0  0  0
  8 12  1  0  0  0  0
  8 40  1  0  0  0  0
  9 10  1  0  0  0  0
  9 16  2  0  0  0  0
 10 17  2  0  0  0  0
 11 15  1  0  0  0  0
 11 41  1  0  0  0  0
 11 42  1  0  0  0  0
 13 19  1  0  0  0  0
 13 43  1  0  0  0  0
 13 44  1  0  0  0  0
 15 23  1  0  0  0  0
 15 45  1  0  0  0  0
 15 46  1  0  0  0  0
 16 21  1  0  0  0  0
 16 47  1  0  0  0  0
 17 22  1  0  0  0  0
 17 48  1  0  0  0  0
 18 24  2  0  0  0  0
 18 25  1  0  0  0  0
 19 49  1  0  0  0  0
 19 50  1  0  0  0  0
 19 51  1  0  0  0  0
 20 26  2  0  0  0  0
 20 27  1  0  0  0  0
 21 22  2  0  0  0  0
 21 52  1  0  0  0  0
 22 53  1  0  0  0  0
 23 28  2  0  0  0  0
 23 29  1  0  0  0  0
 24 30  1  0  0  0  0
 24 54  1  0  0  0  0
 25 31  2  0  0  0  0
 25 55  1  0  0  0  0
 26 33  1  0  0  0  0
 26 56  1  0  0  0  0
 27 34  2  0  0  0  0
 27 57  1  0  0  0  0
 28 35  1  0  0  0  0
 28 58  1  0  0  0  0
 29 36  2  0  0  0  0
 29 59  1  0  0  0  0
 30 32  2  0  0  0  0
 30 60  1  0  0  0  0
 31 32  1  0  0  0  0
 31 61  1  0  0  0  0
 32 62  1  0  0  0  0
 33 37  2  0  0  0  0
 33 63  1  0  0  0  0
 34 37  1  0  0  0  0
 34 64  1  0  0  0  0
 35 38  2  0  0  0  0
 35 65  1  0  0  0  0
 36 38  1  0  0  0  0
 36 66  1  0  0  0  0
 37 67  1  0  0  0  0
 38 68  1  0  0  0  0
M  END
> <PUBCHEM_COMPOUND_CID>
510036
> <PUBCHEM_COMPOUND_CANONICALIZED>
1
> <PUBCHEM_CACTVS_COMPLEXITY>
816
> <PUBCHEM_CACTVS_HBOND_ACCEPTOR>
4
> <PUBCHEM_CACTVS_HBOND_DONOR>
0
> <PUBCHEM_CACTVS_ROTATABLE_BOND>
7
> <PUBCHEM_CACTVS_SUBSKEYS>
AAADceB/sAAAAAAAAAAAAAAAAAAAAWLAAAAwYMGAAAAAAFgBVAAAHgAAAAAADCjBmAQzwIMAAACIAiVSUACCAAAhAgAIiAGIdIiIYCrA0bGUIAhohyLIyCcQgIAOAAAAAAAAACAAAAAAAAAAQAAAAAAAAA==
> <PUBCHEM_IUPAC_OPENEYE_NAME>
5-[1-ethyl-3-(2-phenylethyl)-2H-benzimidazol-2-yl]-1,3-diphenyl-imidazolidine-2,4-dione
> <PUBCHEM_IUPAC_CAS_NAME>
5-[1-ethyl-3-(2-phenylethyl)-2H-benzimidazol-2-yl]-1,3-diphenylimidazolidine-2,4-dione
> <PUBCHEM_IUPAC_NAME_MARKUP>
5-[1-ethyl-3-(2-phenylethyl)-2<I>H</I>-benzimidazol-2-yl]-1,3-diphenylimidazolidine-2,4-dione
> <PUBCHEM_IUPAC_NAME>
5-[1-ethyl-3-(2-phenylethyl)-2H-benzimidazol-2-yl]-1,3-diphenylimidazolidine-2,4-dione
> <PUBCHEM_IUPAC_SYSTEMATIC_NAME>
5-[1-ethyl-3-(2-phenylethyl)-2H-benzimidazol-2-yl]-1,3-diphenyl-imidazolidine-2,4-dione
> <PUBCHEM_IUPAC_TRADITIONAL_NAME>
5-(1-ethyl-3-phenethyl-2H-benzimidazol-2-yl)-1,3-diphenyl-hydantoin
> <PUBCHEM_IUPAC_INCHI>
InChI=1S/C32H30N4O2/c1-2-33-27-20-12-13-21-28(27)34(23-22-24-14-6-3-7-15-24)30(33)29-31(37)36(26-18-10-5-11-19-26)32(38)35(29)25-16-8-4-9-17-25/h3-21,29-30H,2,22-23H2,1H3
> <PUBCHEM_IUPAC_INCHIKEY>
TVUQHYXWLXKGPX-UHFFFAOYSA-N
> <PUBCHEM_XLOGP3_AA>
6.7
> <PUBCHEM_EXACT_MASS>
502.23687621
> <PUBCHEM_MOLECULAR_FORMULA>
C32H30N4O2
> <PUBCHEM_MOLECULAR_WEIGHT>
502.6
> <PUBCHEM_OPENEYE_CAN_SMILES>
CCN1C(N(C2=CC=CC=C21)CCC3=CC=CC=C3)C4C(=O)N(C(=O)N4C5=CC=CC=C5)C6=CC=CC=C6
> <PUBCHEM_OPENEYE_ISO_SMILES>
CCN1C(N(C2=CC=CC=C21)CCC3=CC=CC=C3)C4C(=O)N(C(=O)N4C5=CC=CC=C5)C6=CC=CC=C6
> <PUBCHEM_CACTVS_TPSA>
47.1
> <PUBCHEM_MONOISOTOPIC_WEIGHT>
502.23687621
> <PUBCHEM_TOTAL_CHARGE>
0
> <PUBCHEM_HEAVY_ATOM_COUNT>
38
> <PUBCHEM_ATOM_DEF_STEREO_COUNT>
0
> <PUBCHEM_ATOM_UDEF_STEREO_COUNT>
2
> <PUBCHEM_BOND_DEF_STEREO_COUNT>
0
> <PUBCHEM_BOND_UDEF_STEREO_COUNT>
0
> <PUBCHEM_ISOTOPIC_ATOM_COUNT>
0
> <PUBCHEM_COMPONENT_COUNT>
1
> <PUBCHEM_CACTVS_TAUTO_COUNT>
-1
> <PUBCHEM_COORDINATE_TYPE>
1
5
255
> <PUBCHEM_BONDANNOTATIONS>
10  17  8
16  21  8
17  22  8
18  24  8
18  25  8
20  26  8
20  27  8
21  22  8
23  28  8
23  29  8
24  30  8
25  31  8
26  33  8
27  34  8
28  35  8
29  36  8
30  32  8
31  32  8
33  37  8
34  37  8
35  38  8
36  38  8
7  4  3
8  12  3
9  10  8
9  16  8
$$$$
