510020
  -OEChem-10302200282D
 84 88  0     1  0  0  0  0  0999 V2000
    3.7320   -2.0000    0.0000 O   0  0  0  0  0  0  0  0  0  0  0  0
   15.0525   -0.5375    0.0000 O   0  0  0  0  0  0  0  0  0  0  0  0
    2.8660   -0.5000    0.0000 O   0  0  0  0  0  0  0  0  0  0  0  0
   14.1807   -2.0342    0.0000 O   0  0  0  0  0  0  0  0  0  0  0  0
    6.3301    0.5000    0.0000 N   0  0  0  0  0  0  0  0  0  0  0  0
   11.5923    0.4758    0.0000 N   0  0  0  0  0  0  0  0  0  0  0  0
    4.5981   -0.5000    0.0000 N   0  0  0  0  0  0  0  0  0  0  0  0
   13.3205   -0.5308    0.0000 N   0  0  0  0  0  0  0  0  0  0  0  0
    8.0622    0.5000    0.0000 N   0  0  0  0  0  0  0  0  0  0  0  0
    9.8222    0.4653    0.0000 N   0  0  0  0  0  0  0  0  0  0  0  0
    6.3301   -0.5000    0.0000 C   0  0  0  0  0  0  0  0  0  0  0  0
    5.4641    1.0000    0.0000 C   0  0  0  0  0  0  0  0  0  0  0  0
    5.4641   -1.0000    0.0000 C   0  0  0  0  0  0  0  0  0  0  0  0
    4.5981    0.5000    0.0000 C   0  0  0  0  0  0  0  0  0  0  0  0
   11.5884   -0.5241    0.0000 C   0  0  0  0  0  0  0  0  0  0  0  0
   12.4602    0.9725    0.0000 C   0  0  0  0  0  0  0  0  0  0  0  0
   12.4525   -1.0275    0.0000 C   0  0  0  0  0  0  0  0  0  0  0  0
   13.3243    0.4692    0.0000 C   0  0  0  0  0  0  0  0  0  0  0  0
    7.1962    1.0000    0.0000 C   0  0  0  0  0  0  0  0  0  0  0  0
   10.7282    0.9792    0.0000 C   0  0  0  0  0  0  0  0  0  0  0  0
    7.1962    2.0000    0.0000 C   0  0  0  0  0  0  0  0  0  0  0  0
    8.9282    1.0000    0.0000 C   0  0  0  0  0  0  0  0  0  0  0  0
    8.9282    2.0000    0.0000 C   0  0  0  0  0  0  0  0  0  0  0  0
    3.7320   -1.0000    0.0000 C   0  0  0  0  0  0  0  0  0  0  0  0
    8.0622    2.5000    0.0000 C   0  0  0  0  0  0  0  0  0  0  0  0
   10.7282    2.0208    0.0000 C   0  0  0  0  0  0  0  0  0  0  0  0
   14.1846   -1.0341    0.0000 C   0  0  0  0  0  0  0  0  0  0  0  0
    9.8222    2.5347    0.0000 C   0  0  0  0  0  0  0  0  0  0  0  0
    6.3301    2.5000    0.0000 C   0  0  0  0  0  0  0  0  0  0  0  0
    2.8660   -2.5000    0.0000 C   0  0  3  0  0  0  0  0  0  0  0  0
   15.9166   -1.0408    0.0000 C   0  0  3  0  0  0  0  0  0  0  0  0
    5.4641    2.0000    0.0000 C   0  0  0  0  0  0  0  0  0  0  0  0
    6.3301    3.5000    0.0000 C   0  0  0  0  0  0  0  0  0  0  0  0
    2.8660   -3.5000    0.0000 C   0  0  0  0  0  0  0  0  0  0  0  0
   16.7846   -0.5442    0.0000 C   0  0  0  0  0  0  0  0  0  0  0  0
    2.0000   -2.0000    0.0000 C   0  0  0  0  0  0  0  0  0  0  0  0
   15.9128   -2.0408    0.0000 C   0  0  0  0  0  0  0  0  0  0  0  0
    4.5981    2.5000    0.0000 C   0  0  0  0  0  0  0  0  0  0  0  0
    5.4641    4.0000    0.0000 C   0  0  0  0  0  0  0  0  0  0  0  0
    2.0000   -4.0000    0.0000 C   0  0  0  0  0  0  0  0  0  0  0  0
    4.5981    3.5000    0.0000 C   0  0  0  0  0  0  0  0  0  0  0  0
   17.6487   -1.0475    0.0000 C   0  0  0  0  0  0  0  0  0  0  0  0
    6.5422   -1.0826    0.0000 H   0  0  0  0  0  0  0  0  0  0  0  0
    6.9407   -0.3923    0.0000 H   0  0  0  0  0  0  0  0  0  0  0  0
    5.8626    1.4750    0.0000 H   0  0  0  0  0  0  0  0  0  0  0  0
    5.0656    1.4750    0.0000 H   0  0  0  0  0  0  0  0  0  0  0  0
    5.0656   -1.4750    0.0000 H   0  0  0  0  0  0  0  0  0  0  0  0
    5.8626   -1.4750    0.0000 H   0  0  0  0  0  0  0  0  0  0  0  0
    4.3860    1.0826    0.0000 H   0  0  0  0  0  0  0  0  0  0  0  0
    3.9875    0.3923    0.0000 H   0  0  0  0  0  0  0  0  0  0  0  0
   10.9783   -0.4141    0.0000 H   0  0  0  0  0  0  0  0  0  0  0  0
   11.3742   -1.1059    0.0000 H   0  0  0  0  0  0  0  0  0  0  0  0
   12.8606    1.4459    0.0000 H   0  0  0  0  0  0  0  0  0  0  0  0
   12.0636    1.4490    0.0000 H   0  0  0  0  0  0  0  0  0  0  0  0
   12.0522   -1.5009    0.0000 H   0  0  0  0  0  0  0  0  0  0  0  0
   12.8492   -1.5040    0.0000 H   0  0  0  0  0  0  0  0  0  0  0  0
   13.9345    0.3592    0.0000 H   0  0  0  0  0  0  0  0  0  0  0  0
   13.5386    1.0510    0.0000 H   0  0  0  0  0  0  0  0  0  0  0  0
    8.0622    3.1200    0.0000 H   0  0  0  0  0  0  0  0  0  0  0  0
   11.2639    2.3329    0.0000 H   0  0  0  0  0  0  0  0  0  0  0  0
    9.8150    3.1546    0.0000 H   0  0  0  0  0  0  0  0  0  0  0  0
    2.8660   -1.8800    0.0000 H   0  0  0  0  0  0  0  0  0  0  0  0
   15.3785   -1.3488    0.0000 H   0  0  0  0  0  0  0  0  0  0  0  0
    5.4641    1.3800    0.0000 H   0  0  0  0  0  0  0  0  0  0  0  0
    6.8671    3.8100    0.0000 H   0  0  0  0  0  0  0  0  0  0  0  0
    3.0781   -4.0826    0.0000 H   0  0  0  0  0  0  0  0  0  0  0  0
    3.4766   -3.3923    0.0000 H   0  0  0  0  0  0  0  0  0  0  0  0
   17.1849   -0.0708    0.0000 H   0  0  0  0  0  0  0  0  0  0  0  0
   16.3879   -0.0677    0.0000 H   0  0  0  0  0  0  0  0  0  0  0  0
    2.3100   -1.4631    0.0000 H   0  0  0  0  0  0  0  0  0  0  0  0
    1.4631   -1.6900    0.0000 H   0  0  0  0  0  0  0  0  0  0  0  0
    1.6900   -2.5369    0.0000 H   0  0  0  0  0  0  0  0  0  0  0  0
   15.2928   -2.0384    0.0000 H   0  0  0  0  0  0  0  0  0  0  0  0
   15.9104   -2.6608    0.0000 H   0  0  0  0  0  0  0  0  0  0  0  0
   16.5328   -2.0432    0.0000 H   0  0  0  0  0  0  0  0  0  0  0  0
    4.0611    2.1900    0.0000 H   0  0  0  0  0  0  0  0  0  0  0  0
    5.4641    4.6200    0.0000 H   0  0  0  0  0  0  0  0  0  0  0  0
    1.6900   -3.4631    0.0000 H   0  0  0  0  0  0  0  0  0  0  0  0
    1.4631   -4.3100    0.0000 H   0  0  0  0  0  0  0  0  0  0  0  0
    2.3100   -4.5369    0.0000 H   0  0  0  0  0  0  0  0  0  0  0  0
   17.3366   -1.5832    0.0000 H   0  0  0  0  0  0  0  0  0  0  0  0
   18.1844   -1.3596    0.0000 H   0  0  0  0  0  0  0  0  0  0  0  0
   17.9607   -0.5118    0.0000 H   0  0  0  0  0  0  0  0  0  0  0  0
    4.0611    3.8100    0.0000 H   0  0  0  0  0  0  0  0  0  0  0  0
  1 24  1  0  0  0  0
  1 30  1  0  0  0  0
  2 27  1  0  0  0  0
  2 31  1  0  0  0  0
  3 24  2  0  0  0  0
  4 27  2  0  0  0  0
  5 11  1  0  0  0  0
  5 12  1  0  0  0  0
  5 19  1  0  0  0  0
  6 15  1  0  0  0  0
  6 16  1  0  0  0  0
  6 20  1  0  0  0  0
  7 13  1  0  0  0  0
  7 14  1  0  0  0  0
  7 24  1  0  0  0  0
  8 17  1  0  0  0  0
  8 18  1  0  0  0  0
  8 27  1  0  0  0  0
  9 19  1  0  0  0  0
  9 22  2  0  0  0  0
 10 20  2  0  0  0  0
 10 22  1  0  0  0  0
 11 13  1  0  0  0  0
 11 43  1  0  0  0  0
 11 44  1  0  0  0  0
 12 14  1  0  0  0  0
 12 45  1  0  0  0  0
 12 46  1  0  0  0  0
 13 47  1  0  0  0  0
 13 48  1  0  0  0  0
 14 49  1  0  0  0  0
 14 50  1  0  0  0  0
 15 17  1  0  0  0  0
 15 51  1  0  0  0  0
 15 52  1  0  0  0  0
 16 18  1  0  0  0  0
 16 53  1  0  0  0  0
 16 54  1  0  0  0  0
 17 55  1  0  0  0  0
 17 56  1  0  0  0  0
 18 57  1  0  0  0  0
 18 58  1  0  0  0  0
 19 21  2  0  0  0  0
 20 26  1  0  0  0  0
 21 25  1  0  0  0  0
 21 29  1  0  0  0  0
 22 23  1  0  0  0  0
 23 25  2  0  0  0  0
 23 28  1  0  0  0  0
 25 59  1  0  0  0  0
 26 28  2  0  0  0  0
 26 60  1  0  0  0  0
 28 61  1  0  0  0  0
 29 32  2  0  0  0  0
 29 33  1  0  0  0  0
 30 34  1  0  0  0  0
 30 36  1  0  0  0  0
 30 62  1  0  0  0  0
 31 35  1  0  0  0  0
 31 37  1  0  0  0  0
 31 63  1  0  0  0  0
 32 38  1  0  0  0  0
 32 64  1  0  0  0  0
 33 39  2  0  0  0  0
 33 65  1  0  0  0  0
 34 40  1  0  0  0  0
 34 66  1  0  0  0  0
 34 67  1  0  0  0  0
 35 42  1  0  0  0  0
 35 68  1  0  0  0  0
 35 69  1  0  0  0  0
 36 70  1  0  0  0  0
 36 71  1  0  0  0  0
 36 72  1  0  0  0  0
 37 73  1  0  0  0  0
 37 74  1  0  0  0  0
 37 75  1  0  0  0  0
 38 41  2  0  0  0  0
 38 76  1  0  0  0  0
 39 41  1  0  0  0  0
 39 77  1  0  0  0  0
 40 78  1  0  0  0  0
 40 79  1  0  0  0  0
 40 80  1  0  0  0  0
 41 84  1  0  0  0  0
 42 81  1  0  0  0  0
 42 82  1  0  0  0  0
 42 83  1  0  0  0  0
M  END
> <PUBCHEM_COMPOUND_CID>
510020
> <PUBCHEM_COMPOUND_CANONICALIZED>
1
> <PUBCHEM_CACTVS_COMPLEXITY>
871
> <PUBCHEM_CACTVS_HBOND_ACCEPTOR>
8
> <PUBCHEM_CACTVS_HBOND_DONOR>
0
> <PUBCHEM_CACTVS_ROTATABLE_BOND>
9
> <PUBCHEM_CACTVS_SUBSKEYS>
AAADcfB/uAAAAAAAAAAAAAAAAAAAAAAAAAA8WLFiAAAAAACx/AAAHgAAAAAADBThmwYzuN8IFACoAiJifACCgCkhAqAJmCA4ZJiIaOLAmZGcIAhohgLIyCcQgMAOgAAAAAAAAAAAAAAAAAAAAAAAAAAAAA==
> <PUBCHEM_IUPAC_OPENEYE_NAME>
sec-butyl 4-[6-phenyl-7-(4-sec-butoxycarbonylpiperazin-1-yl)-1,8-naphthyridin-2-yl]piperazine-1-carboxylate
> <PUBCHEM_IUPAC_CAS_NAME>
4-[7-[4-[butan-2-yloxy(oxo)methyl]-1-piperazinyl]-6-phenyl-1,8-naphthyridin-2-yl]-1-piperazinecarboxylic acid butan-2-yl ester
> <PUBCHEM_IUPAC_NAME_MARKUP>
butan-2-yl 4-[7-(4-butan-2-yloxycarbonylpiperazin-1-yl)-6-phenyl-1,8-naphthyridin-2-yl]piperazine-1-carboxylate
> <PUBCHEM_IUPAC_NAME>
butan-2-yl 4-[7-(4-butan-2-yloxycarbonylpiperazin-1-yl)-6-phenyl-1,8-naphthyridin-2-yl]piperazine-1-carboxylate
> <PUBCHEM_IUPAC_SYSTEMATIC_NAME>
butan-2-yl 4-[7-(4-butan-2-yloxycarbonylpiperazin-1-yl)-6-phenyl-1,8-naphthyridin-2-yl]piperazine-1-carboxylate
> <PUBCHEM_IUPAC_TRADITIONAL_NAME>
4-[6-phenyl-7-(4-sec-butoxycarbonylpiperazino)-1,8-naphthyridin-2-yl]piperazine-1-carboxylic acid sec-butyl ester
> <PUBCHEM_IUPAC_INCHI>
InChI=1S/C32H42N6O4/c1-5-23(3)41-31(39)37-18-14-35(15-19-37)28-13-12-26-22-27(25-10-8-7-9-11-25)30(34-29(26)33-28)36-16-20-38(21-17-36)32(40)42-24(4)6-2/h7-13,22-24H,5-6,14-21H2,1-4H3
> <PUBCHEM_IUPAC_INCHIKEY>
RFHNEAOGJPRNPX-UHFFFAOYSA-N
> <PUBCHEM_XLOGP3_AA>
6
> <PUBCHEM_EXACT_MASS>
574.32675384
> <PUBCHEM_MOLECULAR_FORMULA>
C32H42N6O4
> <PUBCHEM_MOLECULAR_WEIGHT>
574.7
> <PUBCHEM_OPENEYE_CAN_SMILES>
CCC(C)OC(=O)N1CCN(CC1)C2=NC3=NC(=C(C=C3C=C2)C4=CC=CC=C4)N5CCN(CC5)C(=O)OC(C)CC
> <PUBCHEM_OPENEYE_ISO_SMILES>
CCC(C)OC(=O)N1CCN(CC1)C2=NC3=NC(=C(C=C3C=C2)C4=CC=CC=C4)N5CCN(CC5)C(=O)OC(C)CC
> <PUBCHEM_CACTVS_TPSA>
91.3
> <PUBCHEM_MONOISOTOPIC_WEIGHT>
574.32675384
> <PUBCHEM_TOTAL_CHARGE>
0
> <PUBCHEM_HEAVY_ATOM_COUNT>
42
> <PUBCHEM_ATOM_DEF_STEREO_COUNT>
0
> <PUBCHEM_ATOM_UDEF_STEREO_COUNT>
2
> <PUBCHEM_BOND_DEF_STEREO_COUNT>
0
> <PUBCHEM_BOND_UDEF_STEREO_COUNT>
0
> <PUBCHEM_ISOTOPIC_ATOM_COUNT>
0
> <PUBCHEM_COMPONENT_COUNT>
1
> <PUBCHEM_CACTVS_TAUTO_COUNT>
-1
> <PUBCHEM_COORDINATE_TYPE>
1
5
255
> <PUBCHEM_BONDANNOTATIONS>
10  20  8
10  22  8
19  21  8
20  26  8
21  25  8
22  23  8
23  25  8
23  28  8
26  28  8
29  32  8
29  33  8
30  36  3
31  37  3
32  38  8
33  39  8
38  41  8
39  41  8
9  19  8
9  22  8
$$$$
