510041
  -OEChem-10302200282D
 48 51  0     1  0  0  0  0  0999 V2000
    3.7320   -0.4806    0.0000 Cl  0  0  0  0  0  0  0  0  0  0  0  0
    2.0000   -3.4806    0.0000 Cl  0  0  0  0  0  0  0  0  0  0  0  0
    6.3301   -2.9806    0.0000 N   0  0  0  0  0  0  0  0  0  0  0  0
    6.8301   -4.5194    0.0000 N   0  0  0  0  0  0  0  0  0  0  0  0
    6.3301   -1.9806    0.0000 C   0  0  3  0  0  0  0  0  0  0  0  0
    7.1962   -1.4806    0.0000 C   0  0  0  0  0  0  0  0  0  0  0  0
    5.4641   -1.4806    0.0000 C   0  0  0  0  0  0  0  0  0  0  0  0
    7.1962   -0.4806    0.0000 C   0  0  0  0  0  0  0  0  0  0  0  0
    4.5981   -1.9806    0.0000 C   0  0  0  0  0  0  0  0  0  0  0  0
    5.5211   -3.5684    0.0000 C   0  0  0  0  0  0  0  0  0  0  0  0
    7.1391   -3.5684    0.0000 C   0  0  0  0  0  0  0  0  0  0  0  0
    8.0622    0.0194    0.0000 C   0  0  0  0  0  0  0  0  0  0  0  0
    6.3301    0.0194    0.0000 C   0  0  0  0  0  0  0  0  0  0  0  0
    3.7320   -1.4806    0.0000 C   0  0  0  0  0  0  0  0  0  0  0  0
    4.5981   -2.9806    0.0000 C   0  0  0  0  0  0  0  0  0  0  0  0
    7.1962    1.5194    0.0000 C   0  0  0  0  0  0  0  0  0  0  0  0
    8.0622    1.0194    0.0000 C   0  0  0  0  0  0  0  0  0  0  0  0
    6.3301    1.0194    0.0000 C   0  0  0  0  0  0  0  0  0  0  0  0
    5.8301   -4.5194    0.0000 C   0  0  0  0  0  0  0  0  0  0  0  0
    2.8660   -1.9806    0.0000 C   0  0  0  0  0  0  0  0  0  0  0  0
    3.7320   -3.4806    0.0000 C   0  0  0  0  0  0  0  0  0  0  0  0
    7.1962    2.5194    0.0000 C   0  0  0  0  0  0  0  0  0  0  0  0
    2.8660   -2.9806    0.0000 C   0  0  0  0  0  0  0  0  0  0  0  0
    8.0622    3.0194    0.0000 C   0  0  0  0  0  0  0  0  0  0  0  0
    6.3301    3.0194    0.0000 C   0  0  0  0  0  0  0  0  0  0  0  0
    8.0622    4.0194    0.0000 C   0  0  0  0  0  0  0  0  0  0  0  0
    6.3301    4.0194    0.0000 C   0  0  0  0  0  0  0  0  0  0  0  0
    7.1962    4.5194    0.0000 C   0  0  0  0  0  0  0  0  0  0  0  0
    6.8671   -2.2906    0.0000 H   0  0  0  0  0  0  0  0  0  0  0  0
    7.4082   -2.0632    0.0000 H   0  0  0  0  0  0  0  0  0  0  0  0
    7.8067   -1.3729    0.0000 H   0  0  0  0  0  0  0  0  0  0  0  0
    5.8626   -1.0056    0.0000 H   0  0  0  0  0  0  0  0  0  0  0  0
    5.0656   -1.0056    0.0000 H   0  0  0  0  0  0  0  0  0  0  0  0
    4.9315   -3.3768    0.0000 H   0  0  0  0  0  0  0  0  0  0  0  0
    7.7288   -3.3768    0.0000 H   0  0  0  0  0  0  0  0  0  0  0  0
    8.5991   -0.2906    0.0000 H   0  0  0  0  0  0  0  0  0  0  0  0
    5.7932   -0.2906    0.0000 H   0  0  0  0  0  0  0  0  0  0  0  0
    5.1350   -3.2906    0.0000 H   0  0  0  0  0  0  0  0  0  0  0  0
    8.5991    1.3294    0.0000 H   0  0  0  0  0  0  0  0  0  0  0  0
    5.7932    1.3294    0.0000 H   0  0  0  0  0  0  0  0  0  0  0  0
    5.4657   -5.0210    0.0000 H   0  0  0  0  0  0  0  0  0  0  0  0
    2.3291   -1.6706    0.0000 H   0  0  0  0  0  0  0  0  0  0  0  0
    3.7320   -4.1006    0.0000 H   0  0  0  0  0  0  0  0  0  0  0  0
    8.5991    2.7094    0.0000 H   0  0  0  0  0  0  0  0  0  0  0  0
    5.7932    2.7094    0.0000 H   0  0  0  0  0  0  0  0  0  0  0  0
    8.5991    4.3294    0.0000 H   0  0  0  0  0  0  0  0  0  0  0  0
    5.7932    4.3294    0.0000 H   0  0  0  0  0  0  0  0  0  0  0  0
    7.1962    5.1394    0.0000 H   0  0  0  0  0  0  0  0  0  0  0  0
  1 14  1  0  0  0  0
  2 23  1  0  0  0  0
  3  5  1  0  0  0  0
  3 10  1  0  0  0  0
  3 11  1  0  0  0  0
  4 11  2  0  0  0  0
  4 19  1  0  0  0  0
  5  6  1  0  0  0  0
  5  7  1  0  0  0  0
  5 29  1  0  0  0  0
  6  8  1  0  0  0  0
  6 30  1  0  0  0  0
  6 31  1  0  0  0  0
  7  9  1  0  0  0  0
  7 32  1  0  0  0  0
  7 33  1  0  0  0  0
  8 12  2  0  0  0  0
  8 13  1  0  0  0  0
  9 14  2  0  0  0  0
  9 15  1  0  0  0  0
 10 19  2  0  0  0  0
 10 34  1  0  0  0  0
 11 35  1  0  0  0  0
 12 17  1  0  0  0  0
 12 36  1  0  0  0  0
 13 18  2  0  0  0  0
 13 37  1  0  0  0  0
 14 20  1  0  0  0  0
 15 21  2  0  0  0  0
 15 38  1  0  0  0  0
 16 17  2  0  0  0  0
 16 18  1  0  0  0  0
 16 22  1  0  0  0  0
 17 39  1  0  0  0  0
 18 40  1  0  0  0  0
 19 41  1  0  0  0  0
 20 23  2  0  0  0  0
 20 42  1  0  0  0  0
 21 23  1  0  0  0  0
 21 43  1  0  0  0  0
 22 24  2  0  0  0  0
 22 25  1  0  0  0  0
 24 26  1  0  0  0  0
 24 44  1  0  0  0  0
 25 27  2  0  0  0  0
 25 45  1  0  0  0  0
 26 28  2  0  0  0  0
 26 46  1  0  0  0  0
 27 28  1  0  0  0  0
 27 47  1  0  0  0  0
 28 48  1  0  0  0  0
M  END
> <PUBCHEM_COMPOUND_CID>
510041
> <PUBCHEM_COMPOUND_CANONICALIZED>
1
> <PUBCHEM_CACTVS_COMPLEXITY>
460
> <PUBCHEM_CACTVS_HBOND_ACCEPTOR>
1
> <PUBCHEM_CACTVS_HBOND_DONOR>
0
> <PUBCHEM_CACTVS_ROTATABLE_BOND>
6
> <PUBCHEM_CACTVS_SUBSKEYS>
AAADceB7AAAGAAAAAAAAAAAAAAAAAWAAAAAwYMAAAAAAAAAB1AAAHAIAAAAADCrBGiQ9kJcMEACgAjBnZAACgC0xF6AJyAAYMoiIaCKBmxGUIAAogAKIiCcQgMAOxAAAAACBAACIAAAAAQIAAAAAAAAAAA==
> <PUBCHEM_IUPAC_OPENEYE_NAME>
1-[1-[(2,4-dichlorophenyl)methyl]-2-(4-phenylphenyl)ethyl]imidazole
> <PUBCHEM_IUPAC_CAS_NAME>
1-[1-(2,4-dichlorophenyl)-3-(4-phenylphenyl)propan-2-yl]imidazole
> <PUBCHEM_IUPAC_NAME_MARKUP>
1-[1-(2,4-dichlorophenyl)-3-(4-phenylphenyl)propan-2-yl]imidazole
> <PUBCHEM_IUPAC_NAME>
1-[1-(2,4-dichlorophenyl)-3-(4-phenylphenyl)propan-2-yl]imidazole
> <PUBCHEM_IUPAC_SYSTEMATIC_NAME>
1-[1-(2,4-dichlorophenyl)-3-(4-phenylphenyl)propan-2-yl]imidazole
> <PUBCHEM_IUPAC_TRADITIONAL_NAME>
1-[1-(2,4-dichlorobenzyl)-2-(4-phenylphenyl)ethyl]imidazole
> <PUBCHEM_IUPAC_INCHI>
InChI=1S/C24H20Cl2N2/c25-22-11-10-21(24(26)16-22)15-23(28-13-12-27-17-28)14-18-6-8-20(9-7-18)19-4-2-1-3-5-19/h1-13,16-17,23H,14-15H2
> <PUBCHEM_IUPAC_INCHIKEY>
NVQBYKHOPUTNFK-UHFFFAOYSA-N
> <PUBCHEM_XLOGP3_AA>
6.8
> <PUBCHEM_EXACT_MASS>
406.1003540
> <PUBCHEM_MOLECULAR_FORMULA>
C24H20Cl2N2
> <PUBCHEM_MOLECULAR_WEIGHT>
407.3
> <PUBCHEM_OPENEYE_CAN_SMILES>
C1=CC=C(C=C1)C2=CC=C(C=C2)CC(CC3=C(C=C(C=C3)Cl)Cl)N4C=CN=C4
> <PUBCHEM_OPENEYE_ISO_SMILES>
C1=CC=C(C=C1)C2=CC=C(C=C2)CC(CC3=C(C=C(C=C3)Cl)Cl)N4C=CN=C4
> <PUBCHEM_CACTVS_TPSA>
17.8
> <PUBCHEM_MONOISOTOPIC_WEIGHT>
406.1003540
> <PUBCHEM_TOTAL_CHARGE>
0
> <PUBCHEM_HEAVY_ATOM_COUNT>
28
> <PUBCHEM_ATOM_DEF_STEREO_COUNT>
0
> <PUBCHEM_ATOM_UDEF_STEREO_COUNT>
1
> <PUBCHEM_BOND_DEF_STEREO_COUNT>
0
> <PUBCHEM_BOND_UDEF_STEREO_COUNT>
0
> <PUBCHEM_ISOTOPIC_ATOM_COUNT>
0
> <PUBCHEM_COMPONENT_COUNT>
1
> <PUBCHEM_CACTVS_TAUTO_COUNT>
-1
> <PUBCHEM_COORDINATE_TYPE>
1
5
255
> <PUBCHEM_BONDANNOTATIONS>
10  19  8
12  17  8
13  18  8
14  20  8
15  21  8
16  17  8
16  18  8
20  23  8
21  23  8
22  24  8
22  25  8
24  26  8
25  27  8
26  28  8
27  28  8
3  10  8
3  11  8
4  11  8
4  19  8
5  6  3
8  12  8
8  13  8
9  14  8
9  15  8
$$$$
