510039
  -OEChem-10302200282D
 43 45  0     1  0  0  0  0  0999 V2000
    4.6783   -0.3520    0.0000 N   0  0  3  0  0  0  0  0  0  0  0  0
    4.6783   -1.9615    0.0000 N   0  0  3  0  0  0  0  0  0  0  0  0
    7.2619   -2.8888    0.0000 N   0  0  0  0  0  0  0  0  0  0  0  0
    5.2619   -1.1567    0.0000 C   0  0  3  0  0  0  0  0  0  0  0  0
    3.7320   -0.6567    0.0000 C   0  0  0  0  0  0  0  0  0  0  0  0
    3.7320   -1.6567    0.0000 C   0  0  0  0  0  0  0  0  0  0  0  0
    4.9889    0.5985    0.0000 C   0  0  0  0  0  0  0  0  0  0  0  0
    6.2619   -1.1567    0.0000 C   0  0  0  0  0  0  0  0  0  0  0  0
    4.9889   -2.9120    0.0000 C   0  0  0  0  0  0  0  0  0  0  0  0
    5.9674    0.8047    0.0000 C   0  0  0  0  0  0  0  0  0  0  0  0
    2.8660   -0.1567    0.0000 C   0  0  0  0  0  0  0  0  0  0  0  0
    2.8660   -2.1567    0.0000 C   0  0  0  0  0  0  0  0  0  0  0  0
    4.3211   -3.6563    0.0000 C   0  0  0  0  0  0  0  0  0  0  0  0
    2.0000   -0.6567    0.0000 C   0  0  0  0  0  0  0  0  0  0  0  0
    2.0000   -1.6567    0.0000 C   0  0  0  0  0  0  0  0  0  0  0  0
    6.2781    1.7552    0.0000 C   0  0  0  0  0  0  0  0  0  0  0  0
    6.7619   -2.0228    0.0000 C   0  0  0  0  0  0  0  0  0  0  0  0
    7.2566    1.9615    0.0000 C   0  0  0  0  0  0  0  0  0  0  0  0
    5.6103    2.4996    0.0000 C   0  0  0  0  0  0  0  0  0  0  0  0
    7.5673    2.9120    0.0000 C   0  0  0  0  0  0  0  0  0  0  0  0
    5.9209    3.4501    0.0000 C   0  0  0  0  0  0  0  0  0  0  0  0
    6.8994    3.6563    0.0000 C   0  0  0  0  0  0  0  0  0  0  0  0
    5.5436   -1.7090    0.0000 H   0  0  0  0  0  0  0  0  0  0  0  0
    4.9684    1.2182    0.0000 H   0  0  0  0  0  0  0  0  0  0  0  0
    4.3751    0.6859    0.0000 H   0  0  0  0  0  0  0  0  0  0  0  0
    6.8445   -0.9447    0.0000 H   0  0  0  0  0  0  0  0  0  0  0  0
    6.1542   -0.5462    0.0000 H   0  0  0  0  0  0  0  0  0  0  0  0
    5.3715   -3.3999    0.0000 H   0  0  0  0  0  0  0  0  0  0  0  0
    5.5359   -2.6200    0.0000 H   0  0  0  0  0  0  0  0  0  0  0  0
    5.9880    0.1851    0.0000 H   0  0  0  0  0  0  0  0  0  0  0  0
    6.5812    0.7174    0.0000 H   0  0  0  0  0  0  0  0  0  0  0  0
    2.8660    0.4633    0.0000 H   0  0  0  0  0  0  0  0  0  0  0  0
    2.8660   -2.7767    0.0000 H   0  0  0  0  0  0  0  0  0  0  0  0
    3.8596   -3.2422    0.0000 H   0  0  0  0  0  0  0  0  0  0  0  0
    3.9070   -4.1178    0.0000 H   0  0  0  0  0  0  0  0  0  0  0  0
    4.7826   -4.0704    0.0000 H   0  0  0  0  0  0  0  0  0  0  0  0
    1.4631   -0.3467    0.0000 H   0  0  0  0  0  0  0  0  0  0  0  0
    1.4631   -1.9667    0.0000 H   0  0  0  0  0  0  0  0  0  0  0  0
    7.6707    1.5000    0.0000 H   0  0  0  0  0  0  0  0  0  0  0  0
    5.0036    2.3717    0.0000 H   0  0  0  0  0  0  0  0  0  0  0  0
    8.1739    3.0398    0.0000 H   0  0  0  0  0  0  0  0  0  0  0  0
    5.5069    3.9115    0.0000 H   0  0  0  0  0  0  0  0  0  0  0  0
    7.0920    4.2456    0.0000 H   0  0  0  0  0  0  0  0  0  0  0  0
  1  4  1  0  0  0  0
  1  5  1  0  0  0  0
  1  7  1  0  0  0  0
  2  4  1  0  0  0  0
  2  6  1  0  0  0  0
  2  9  1  0  0  0  0
  3 17  3  0  0  0  0
  4  8  1  0  0  0  0
  4 23  1  0  0  0  0
  5  6  1  0  0  0  0
  5 11  2  0  0  0  0
  6 12  2  0  0  0  0
  7 10  1  0  0  0  0
  7 24  1  0  0  0  0
  7 25  1  0  0  0  0
  8 17  1  0  0  0  0
  8 26  1  0  0  0  0
  8 27  1  0  0  0  0
  9 13  1  0  0  0  0
  9 28  1  0  0  0  0
  9 29  1  0  0  0  0
 10 16  1  0  0  0  0
 10 30  1  0  0  0  0
 10 31  1  0  0  0  0
 11 14  1  0  0  0  0
 11 32  1  0  0  0  0
 12 15  1  0  0  0  0
 12 33  1  0  0  0  0
 13 34  1  0  0  0  0
 13 35  1  0  0  0  0
 13 36  1  0  0  0  0
 14 15  2  0  0  0  0
 14 37  1  0  0  0  0
 15 38  1  0  0  0  0
 16 18  2  0  0  0  0
 16 19  1  0  0  0  0
 18 20  1  0  0  0  0
 18 39  1  0  0  0  0
 19 21  2  0  0  0  0
 19 40  1  0  0  0  0
 20 22  2  0  0  0  0
 20 41  1  0  0  0  0
 21 22  1  0  0  0  0
 21 42  1  0  0  0  0
 22 43  1  0  0  0  0
M  END
> <PUBCHEM_COMPOUND_CID>
510039
> <PUBCHEM_COMPOUND_CANONICALIZED>
1
> <PUBCHEM_CACTVS_COMPLEXITY>
393
> <PUBCHEM_CACTVS_HBOND_ACCEPTOR>
3
> <PUBCHEM_CACTVS_HBOND_DONOR>
0
> <PUBCHEM_CACTVS_ROTATABLE_BOND>
5
> <PUBCHEM_CACTVS_SUBSKEYS>
AAADceB7AAAAAAAAAAAAAAAAAAAAAWAAAAAwYAAAAAAAAFgBQAAAHAAAAAAADAjBGAQzwIMAAACQBiRCQACCAAAhAgAIiAAIdIiI4CLAkZGUIAhogALIyCcQgIAOAAAAAAAAACAAAAAAAAAAQAAAAAAAAA==
> <PUBCHEM_IUPAC_OPENEYE_NAME>
2-[1-ethyl-3-(2-phenylethyl)-2H-benzimidazol-2-yl]acetonitrile
> <PUBCHEM_IUPAC_CAS_NAME>
2-[1-ethyl-3-(2-phenylethyl)-2H-benzimidazol-2-yl]acetonitrile
> <PUBCHEM_IUPAC_NAME_MARKUP>
2-[1-ethyl-3-(2-phenylethyl)-2<I>H</I>-benzimidazol-2-yl]acetonitrile
> <PUBCHEM_IUPAC_NAME>
2-[1-ethyl-3-(2-phenylethyl)-2H-benzimidazol-2-yl]acetonitrile
> <PUBCHEM_IUPAC_SYSTEMATIC_NAME>
2-[1-ethyl-3-(2-phenylethyl)-2H-benzimidazol-2-yl]ethanenitrile
> <PUBCHEM_IUPAC_TRADITIONAL_NAME>
2-(1-ethyl-3-phenethyl-2H-benzimidazol-2-yl)acetonitrile
> <PUBCHEM_IUPAC_INCHI>
InChI=1S/C19H21N3/c1-2-21-17-10-6-7-11-18(17)22(19(21)12-14-20)15-13-16-8-4-3-5-9-16/h3-11,19H,2,12-13,15H2,1H3
> <PUBCHEM_IUPAC_INCHIKEY>
MEDSBFZPUMCWHN-UHFFFAOYSA-N
> <PUBCHEM_XLOGP3_AA>
4.1
> <PUBCHEM_EXACT_MASS>
291.173547683
> <PUBCHEM_MOLECULAR_FORMULA>
C19H21N3
> <PUBCHEM_MOLECULAR_WEIGHT>
291.4
> <PUBCHEM_OPENEYE_CAN_SMILES>
CCN1C(N(C2=CC=CC=C21)CCC3=CC=CC=C3)CC#N
> <PUBCHEM_OPENEYE_ISO_SMILES>
CCN1C(N(C2=CC=CC=C21)CCC3=CC=CC=C3)CC#N
> <PUBCHEM_CACTVS_TPSA>
30.3
> <PUBCHEM_MONOISOTOPIC_WEIGHT>
291.173547683
> <PUBCHEM_TOTAL_CHARGE>
0
> <PUBCHEM_HEAVY_ATOM_COUNT>
22
> <PUBCHEM_ATOM_DEF_STEREO_COUNT>
0
> <PUBCHEM_ATOM_UDEF_STEREO_COUNT>
1
> <PUBCHEM_BOND_DEF_STEREO_COUNT>
0
> <PUBCHEM_BOND_UDEF_STEREO_COUNT>
0
> <PUBCHEM_ISOTOPIC_ATOM_COUNT>
0
> <PUBCHEM_COMPONENT_COUNT>
1
> <PUBCHEM_CACTVS_TAUTO_COUNT>
-1
> <PUBCHEM_COORDINATE_TYPE>
1
5
255
> <PUBCHEM_BONDANNOTATIONS>
11  14  8
12  15  8
14  15  8
16  18  8
16  19  8
18  20  8
19  21  8
20  22  8
21  22  8
4  8  3
5  11  8
5  6  8
6  12  8
$$$$
