510022
  -OEChem-10302200282D
 68 72  0     1  0  0  0  0  0999 V2000
    3.7320   -2.0000    0.0000 O   0  0  0  0  0  0  0  0  0  0  0  0
   13.3205   -0.5308    0.0000 O   0  0  0  0  0  0  0  0  0  0  0  0
    2.8660   -0.5000    0.0000 O   0  0  0  0  0  0  0  0  0  0  0  0
    6.3301    0.5000    0.0000 N   0  0  0  0  0  0  0  0  0  0  0  0
    4.5981   -0.5000    0.0000 N   0  0  0  0  0  0  0  0  0  0  0  0
   11.5923    0.4758    0.0000 N   0  0  0  0  0  0  0  0  0  0  0  0
    8.0622    0.5000    0.0000 N   0  0  0  0  0  0  0  0  0  0  0  0
    9.8222    0.4653    0.0000 N   0  0  0  0  0  0  0  0  0  0  0  0
    6.3301   -0.5000    0.0000 C   0  0  0  0  0  0  0  0  0  0  0  0
    5.4641    1.0000    0.0000 C   0  0  0  0  0  0  0  0  0  0  0  0
    5.4641   -1.0000    0.0000 C   0  0  0  0  0  0  0  0  0  0  0  0
    4.5981    0.5000    0.0000 C   0  0  0  0  0  0  0  0  0  0  0  0
    7.1962    1.0000    0.0000 C   0  0  0  0  0  0  0  0  0  0  0  0
    7.1962    2.0000    0.0000 C   0  0  0  0  0  0  0  0  0  0  0  0
    3.7320   -1.0000    0.0000 C   0  0  0  0  0  0  0  0  0  0  0  0
    8.9282    2.0000    0.0000 C   0  0  0  0  0  0  0  0  0  0  0  0
    8.9282    1.0000    0.0000 C   0  0  0  0  0  0  0  0  0  0  0  0
    8.0622    2.5000    0.0000 C   0  0  0  0  0  0  0  0  0  0  0  0
   11.5884   -0.5241    0.0000 C   0  0  0  0  0  0  0  0  0  0  0  0
   12.4602    0.9725    0.0000 C   0  0  0  0  0  0  0  0  0  0  0  0
   10.7282    0.9792    0.0000 C   0  0  0  0  0  0  0  0  0  0  0  0
    6.3301    2.5000    0.0000 C   0  0  0  0  0  0  0  0  0  0  0  0
   12.4525   -1.0275    0.0000 C   0  0  0  0  0  0  0  0  0  0  0  0
   13.3243    0.4692    0.0000 C   0  0  0  0  0  0  0  0  0  0  0  0
    2.8660   -2.5000    0.0000 C   0  0  3  0  0  0  0  0  0  0  0  0
    9.8222    2.5347    0.0000 C   0  0  0  0  0  0  0  0  0  0  0  0
   10.7282    2.0208    0.0000 C   0  0  0  0  0  0  0  0  0  0  0  0
    2.8660   -3.5000    0.0000 C   0  0  0  0  0  0  0  0  0  0  0  0
    5.4641    2.0000    0.0000 C   0  0  0  0  0  0  0  0  0  0  0  0
    6.3301    3.5000    0.0000 C   0  0  0  0  0  0  0  0  0  0  0  0
    2.0000   -2.0000    0.0000 C   0  0  0  0  0  0  0  0  0  0  0  0
    2.0000   -4.0000    0.0000 C   0  0  0  0  0  0  0  0  0  0  0  0
    4.5981    2.5000    0.0000 C   0  0  0  0  0  0  0  0  0  0  0  0
    5.4641    4.0000    0.0000 C   0  0  0  0  0  0  0  0  0  0  0  0
    4.5981    3.5000    0.0000 C   0  0  0  0  0  0  0  0  0  0  0  0
    6.5422   -1.0826    0.0000 H   0  0  0  0  0  0  0  0  0  0  0  0
    6.9407   -0.3923    0.0000 H   0  0  0  0  0  0  0  0  0  0  0  0
    5.8626    1.4750    0.0000 H   0  0  0  0  0  0  0  0  0  0  0  0
    5.0656    1.4750    0.0000 H   0  0  0  0  0  0  0  0  0  0  0  0
    5.0656   -1.4750    0.0000 H   0  0  0  0  0  0  0  0  0  0  0  0
    5.8626   -1.4750    0.0000 H   0  0  0  0  0  0  0  0  0  0  0  0
    4.3860    1.0826    0.0000 H   0  0  0  0  0  0  0  0  0  0  0  0
    3.9875    0.3923    0.0000 H   0  0  0  0  0  0  0  0  0  0  0  0
    8.0622    3.1200    0.0000 H   0  0  0  0  0  0  0  0  0  0  0  0
   10.9783   -0.4141    0.0000 H   0  0  0  0  0  0  0  0  0  0  0  0
   11.3742   -1.1059    0.0000 H   0  0  0  0  0  0  0  0  0  0  0  0
   12.8606    1.4459    0.0000 H   0  0  0  0  0  0  0  0  0  0  0  0
   12.0636    1.4490    0.0000 H   0  0  0  0  0  0  0  0  0  0  0  0
   12.0522   -1.5009    0.0000 H   0  0  0  0  0  0  0  0  0  0  0  0
   12.8492   -1.5040    0.0000 H   0  0  0  0  0  0  0  0  0  0  0  0
   13.9345    0.3592    0.0000 H   0  0  0  0  0  0  0  0  0  0  0  0
   13.5386    1.0510    0.0000 H   0  0  0  0  0  0  0  0  0  0  0  0
    2.8660   -1.8800    0.0000 H   0  0  0  0  0  0  0  0  0  0  0  0
    9.8150    3.1546    0.0000 H   0  0  0  0  0  0  0  0  0  0  0  0
   11.2639    2.3329    0.0000 H   0  0  0  0  0  0  0  0  0  0  0  0
    3.0781   -4.0826    0.0000 H   0  0  0  0  0  0  0  0  0  0  0  0
    3.4766   -3.3923    0.0000 H   0  0  0  0  0  0  0  0  0  0  0  0
    5.4641    1.3800    0.0000 H   0  0  0  0  0  0  0  0  0  0  0  0
    6.8671    3.8100    0.0000 H   0  0  0  0  0  0  0  0  0  0  0  0
    2.3100   -1.4631    0.0000 H   0  0  0  0  0  0  0  0  0  0  0  0
    1.4631   -1.6900    0.0000 H   0  0  0  0  0  0  0  0  0  0  0  0
    1.6900   -2.5369    0.0000 H   0  0  0  0  0  0  0  0  0  0  0  0
    1.6900   -3.4631    0.0000 H   0  0  0  0  0  0  0  0  0  0  0  0
    1.4631   -4.3100    0.0000 H   0  0  0  0  0  0  0  0  0  0  0  0
    2.3100   -4.5369    0.0000 H   0  0  0  0  0  0  0  0  0  0  0  0
    4.0611    2.1900    0.0000 H   0  0  0  0  0  0  0  0  0  0  0  0
    5.4641    4.6200    0.0000 H   0  0  0  0  0  0  0  0  0  0  0  0
    4.0611    3.8100    0.0000 H   0  0  0  0  0  0  0  0  0  0  0  0
  1 15  1  0  0  0  0
  1 25  1  0  0  0  0
  2 23  1  0  0  0  0
  2 24  1  0  0  0  0
  3 15  2  0  0  0  0
  4  9  1  0  0  0  0
  4 10  1  0  0  0  0
  4 13  1  0  0  0  0
  5 11  1  0  0  0  0
  5 12  1  0  0  0  0
  5 15  1  0  0  0  0
  6 19  1  0  0  0  0
  6 20  1  0  0  0  0
  6 21  1  0  0  0  0
  7 13  1  0  0  0  0
  7 17  2  0  0  0  0
  8 17  1  0  0  0  0
  8 21  2  0  0  0  0
  9 11  1  0  0  0  0
  9 36  1  0  0  0  0
  9 37  1  0  0  0  0
 10 12  1  0  0  0  0
 10 38  1  0  0  0  0
 10 39  1  0  0  0  0
 11 40  1  0  0  0  0
 11 41  1  0  0  0  0
 12 42  1  0  0  0  0
 12 43  1  0  0  0  0
 13 14  2  0  0  0  0
 14 18  1  0  0  0  0
 14 22  1  0  0  0  0
 16 17  1  0  0  0  0
 16 18  2  0  0  0  0
 16 26  1  0  0  0  0
 18 44  1  0  0  0  0
 19 23  1  0  0  0  0
 19 45  1  0  0  0  0
 19 46  1  0  0  0  0
 20 24  1  0  0  0  0
 20 47  1  0  0  0  0
 20 48  1  0  0  0  0
 21 27  1  0  0  0  0
 22 29  2  0  0  0  0
 22 30  1  0  0  0  0
 23 49  1  0  0  0  0
 23 50  1  0  0  0  0
 24 51  1  0  0  0  0
 24 52  1  0  0  0  0
 25 28  1  0  0  0  0
 25 31  1  0  0  0  0
 25 53  1  0  0  0  0
 26 27  2  0  0  0  0
 26 54  1  0  0  0  0
 27 55  1  0  0  0  0
 28 32  1  0  0  0  0
 28 56  1  0  0  0  0
 28 57  1  0  0  0  0
 29 33  1  0  0  0  0
 29 58  1  0  0  0  0
 30 34  2  0  0  0  0
 30 59  1  0  0  0  0
 31 60  1  0  0  0  0
 31 61  1  0  0  0  0
 31 62  1  0  0  0  0
 32 63  1  0  0  0  0
 32 64  1  0  0  0  0
 32 65  1  0  0  0  0
 33 35  2  0  0  0  0
 33 66  1  0  0  0  0
 34 35  1  0  0  0  0
 34 67  1  0  0  0  0
 35 68  1  0  0  0  0
M  END
> <PUBCHEM_COMPOUND_CID>
510022
> <PUBCHEM_COMPOUND_CANONICALIZED>
1
> <PUBCHEM_CACTVS_COMPLEXITY>
676
> <PUBCHEM_CACTVS_HBOND_ACCEPTOR>
7
> <PUBCHEM_CACTVS_HBOND_DONOR>
0
> <PUBCHEM_CACTVS_ROTATABLE_BOND>
6
> <PUBCHEM_CACTVS_SUBSKEYS>
AAADcfB7sAAAAAAAAAAAAAAAAAAAAAAAAAA8WLFiAAAAAACx/AAAHgAAAAAADBThmwYzuN8IFACoAiJifACCgCkhAqAJmCA4ZJiKaOLAmZGfIAhohgLYyCcQgMAOgAAAAAAAAAAAAAAAAAAAAAAAAAAAAA==
> <PUBCHEM_IUPAC_OPENEYE_NAME>
sec-butyl 4-(7-morpholino-3-phenyl-1,8-naphthyridin-2-yl)piperazine-1-carboxylate
> <PUBCHEM_IUPAC_CAS_NAME>
4-[7-(4-morpholinyl)-3-phenyl-1,8-naphthyridin-2-yl]-1-piperazinecarboxylic acid butan-2-yl ester
> <PUBCHEM_IUPAC_NAME_MARKUP>
butan-2-yl 4-(7-morpholin-4-yl-3-phenyl-1,8-naphthyridin-2-yl)piperazine-1-carboxylate
> <PUBCHEM_IUPAC_NAME>
butan-2-yl 4-(7-morpholin-4-yl-3-phenyl-1,8-naphthyridin-2-yl)piperazine-1-carboxylate
> <PUBCHEM_IUPAC_SYSTEMATIC_NAME>
butan-2-yl 4-(7-morpholin-4-yl-3-phenyl-1,8-naphthyridin-2-yl)piperazine-1-carboxylate
> <PUBCHEM_IUPAC_TRADITIONAL_NAME>
4-(7-morpholino-3-phenyl-1,8-naphthyridin-2-yl)piperazine-1-carboxylic acid sec-butyl ester
> <PUBCHEM_IUPAC_INCHI>
InChI=1S/C27H33N5O3/c1-3-20(2)35-27(33)32-13-11-31(12-14-32)26-23(21-7-5-4-6-8-21)19-22-9-10-24(28-25(22)29-26)30-15-17-34-18-16-30/h4-10,19-20H,3,11-18H2,1-2H3
> <PUBCHEM_IUPAC_INCHIKEY>
ZEEWTZDYUBBGHA-UHFFFAOYSA-N
> <PUBCHEM_XLOGP3_AA>
4.6
> <PUBCHEM_EXACT_MASS>
475.25833993
> <PUBCHEM_MOLECULAR_FORMULA>
C27H33N5O3
> <PUBCHEM_MOLECULAR_WEIGHT>
475.6
> <PUBCHEM_OPENEYE_CAN_SMILES>
CCC(C)OC(=O)N1CCN(CC1)C2=C(C=C3C=CC(=NC3=N2)N4CCOCC4)C5=CC=CC=C5
> <PUBCHEM_OPENEYE_ISO_SMILES>
CCC(C)OC(=O)N1CCN(CC1)C2=C(C=C3C=CC(=NC3=N2)N4CCOCC4)C5=CC=CC=C5
> <PUBCHEM_CACTVS_TPSA>
71
> <PUBCHEM_MONOISOTOPIC_WEIGHT>
475.25833993
> <PUBCHEM_TOTAL_CHARGE>
0
> <PUBCHEM_HEAVY_ATOM_COUNT>
35
> <PUBCHEM_ATOM_DEF_STEREO_COUNT>
0
> <PUBCHEM_ATOM_UDEF_STEREO_COUNT>
1
> <PUBCHEM_BOND_DEF_STEREO_COUNT>
0
> <PUBCHEM_BOND_UDEF_STEREO_COUNT>
0
> <PUBCHEM_ISOTOPIC_ATOM_COUNT>
0
> <PUBCHEM_COMPONENT_COUNT>
1
> <PUBCHEM_CACTVS_TAUTO_COUNT>
-1
> <PUBCHEM_COORDINATE_TYPE>
1
5
255
> <PUBCHEM_BONDANNOTATIONS>
13  14  8
14  18  8
16  17  8
16  18  8
16  26  8
21  27  8
22  29  8
22  30  8
25  31  3
26  27  8
29  33  8
30  34  8
33  35  8
34  35  8
7  13  8
7  17  8
8  17  8
8  21  8
$$$$
