510135
  -OEChem-10302200282D
 38 39  0     1  0  0  0  0  0999 V2000
    6.7524   -3.1217    0.0000 P   0  0  0  0  0  0  0  0  0  0  0  0
    2.0000   -2.3126    0.0000 F   0  0  0  0  0  0  0  0  0  0  0  0
    4.8913   -0.6571    0.0000 O   0  0  0  0  0  0  0  0  0  0  0  0
    6.1646   -2.3126    0.0000 O   0  0  0  0  0  0  0  0  0  0  0  0
    5.8144    0.9307    0.0000 O   0  0  0  0  0  0  0  0  0  0  0  0
    7.3402   -3.9307    0.0000 O   0  0  0  0  0  0  0  0  0  0  0  0
    7.5614   -2.5339    0.0000 O   0  0  0  0  0  0  0  0  0  0  0  0
    4.0823    3.9307    0.0000 O   0  0  0  0  0  0  0  0  0  0  0  0
    5.9434   -3.7094    0.0000 O   0  0  0  0  0  0  0  0  0  0  0  0
    4.0823    0.9307    0.0000 N   0  0  0  0  0  0  0  0  0  0  0  0
    4.9483    2.4307    0.0000 N   0  0  0  0  0  0  0  0  0  0  0  0
    3.5823   -1.6082    0.0000 C   0  0  2  0  0  0  0  0  0  0  0  0
    4.5823   -1.6082    0.0000 C   0  0  1  0  0  0  0  0  0  0  0  0
    3.2733   -0.6571    0.0000 C   0  0  0  0  0  0  0  0  0  0  0  0
    4.0823   -0.0693    0.0000 C   0  0  1  0  0  0  0  0  0  0  0  0
    2.9945   -2.4172    0.0000 C   0  0  0  0  0  0  0  0  0  0  0  0
    5.1701   -2.4172    0.0000 C   0  0  0  0  0  0  0  0  0  0  0  0
    3.2163    1.4307    0.0000 C   0  0  0  0  0  0  0  0  0  0  0  0
    4.9483    1.4307    0.0000 C   0  0  0  0  0  0  0  0  0  0  0  0
    3.2163    2.4307    0.0000 C   0  0  0  0  0  0  0  0  0  0  0  0
    4.0823    2.9307    0.0000 C   0  0  0  0  0  0  0  0  0  0  0  0
    2.3503    2.9307    0.0000 C   0  0  0  0  0  0  0  0  0  0  0  0
    2.9699   -1.5112    0.0000 H   0  0  0  0  0  0  0  0  0  0  0  0
    5.1947   -1.5112    0.0000 H   0  0  0  0  0  0  0  0  0  0  0  0
    2.9633   -0.1202    0.0000 H   0  0  0  0  0  0  0  0  0  0  0  0
    2.7069   -0.9093    0.0000 H   0  0  0  0  0  0  0  0  0  0  0  0
    4.6347    0.2122    0.0000 H   0  0  0  0  0  0  0  0  0  0  0  0
    2.8236   -3.0132    0.0000 H   0  0  0  0  0  0  0  0  0  0  0  0
    3.5518   -2.6890    0.0000 H   0  0  0  0  0  0  0  0  0  0  0  0
    4.6128   -2.6890    0.0000 H   0  0  0  0  0  0  0  0  0  0  0  0
    5.3410   -3.0132    0.0000 H   0  0  0  0  0  0  0  0  0  0  0  0
    2.6794    1.1207    0.0000 H   0  0  0  0  0  0  0  0  0  0  0  0
    5.4853    2.7407    0.0000 H   0  0  0  0  0  0  0  0  0  0  0  0
    2.6603    3.4676    0.0000 H   0  0  0  0  0  0  0  0  0  0  0  0
    1.8133    3.2407    0.0000 H   0  0  0  0  0  0  0  0  0  0  0  0
    2.0403    2.3938    0.0000 H   0  0  0  0  0  0  0  0  0  0  0  0
    7.9568   -3.8659    0.0000 H   0  0  0  0  0  0  0  0  0  0  0  0
    7.4966   -1.9173    0.0000 H   0  0  0  0  0  0  0  0  0  0  0  0
  1  4  1  0  0  0  0
  1  6  1  0  0  0  0
  1  7  1  0  0  0  0
  1  9  2  0  0  0  0
  2 16  1  0  0  0  0
  3 13  1  0  0  0  0
  3 15  1  0  0  0  0
  4 17  1  0  0  0  0
  5 19  2  0  0  0  0
  6 37  1  0  0  0  0
  7 38  1  0  0  0  0
  8 21  2  0  0  0  0
 15 10  1  6  0  0  0
 10 18  1  0  0  0  0
 10 19  1  0  0  0  0
 11 19  1  0  0  0  0
 11 21  1  0  0  0  0
 11 33  1  0  0  0  0
 12 13  1  0  0  0  0
 12 14  1  0  0  0  0
 12 16  1  1  0  0  0
 12 23  1  0  0  0  0
 13 17  1  6  0  0  0
 13 24  1  0  0  0  0
 14 15  1  0  0  0  0
 14 25  1  0  0  0  0
 14 26  1  0  0  0  0
 15 27  1  0  0  0  0
 16 28  1  0  0  0  0
 16 29  1  0  0  0  0
 17 30  1  0  0  0  0
 17 31  1  0  0  0  0
 18 20  2  0  0  0  0
 18 32  1  0  0  0  0
 20 21  1  0  0  0  0
 20 22  1  0  0  0  0
 22 34  1  0  0  0  0
 22 35  1  0  0  0  0
 22 36  1  0  0  0  0
M  END
> <PUBCHEM_COMPOUND_CID>
510135
> <PUBCHEM_COMPOUND_CANONICALIZED>
1
> <PUBCHEM_CACTVS_COMPLEXITY>
549
> <PUBCHEM_CACTVS_HBOND_ACCEPTOR>
8
> <PUBCHEM_CACTVS_HBOND_DONOR>
3
> <PUBCHEM_CACTVS_ROTATABLE_BOND>
5
> <PUBCHEM_CACTVS_SUBSKEYS>
AAADceBzOQIAAAAAAAAAAAAAAAAAASAAAAAgAAAAAAAAAAAAAAAAHwAQCCAADRThgAYDAAPABRCIQgFWUICAAAAAAAAAAAEIAECBAAIAgQAOAAAMByICAMCwMAIKAAAAAAAAAAAAAAAAAAAAAAAAAAAAAA==
> <PUBCHEM_IUPAC_OPENEYE_NAME>
[(2S,3S,5R)-3-(fluoromethyl)-5-(5-methyl-2,4-dioxo-pyrimidin-1-yl)tetrahydrofuran-2-yl]methyl dihydrogen phosphate
> <PUBCHEM_IUPAC_CAS_NAME>
[(2S,3S,5R)-3-(fluoromethyl)-5-(5-methyl-2,4-dioxo-1-pyrimidinyl)-2-oxolanyl]methyl dihydrogen phosphate
> <PUBCHEM_IUPAC_NAME_MARKUP>
[(2<I>S</I>,3<I>S</I>,5<I>R</I>)-3-(fluoromethyl)-5-(5-methyl-2,4-dioxopyrimidin-1-yl)oxolan-2-yl]methyl dihydrogen phosphate
> <PUBCHEM_IUPAC_NAME>
[(2S,3S,5R)-3-(fluoromethyl)-5-(5-methyl-2,4-dioxopyrimidin-1-yl)oxolan-2-yl]methyl dihydrogen phosphate
> <PUBCHEM_IUPAC_SYSTEMATIC_NAME>
[(2S,3S,5R)-3-(fluoranylmethyl)-5-[5-methyl-2,4-bis(oxidanylidene)pyrimidin-1-yl]oxolan-2-yl]methyl dihydrogen phosphate
> <PUBCHEM_IUPAC_TRADITIONAL_NAME>
[(2S,3S,5R)-5-(2,4-diketo-5-methyl-pyrimidin-1-yl)-3-(fluoromethyl)tetrahydrofuran-2-yl]methyl dihydrogen phosphate
> <PUBCHEM_IUPAC_INCHI>
InChI=1S/C11H16FN2O7P/c1-6-4-14(11(16)13-10(6)15)9-2-7(3-12)8(21-9)5-20-22(17,18)19/h4,7-9H,2-3,5H2,1H3,(H,13,15,16)(H2,17,18,19)/t7-,8-,9-/m1/s1
> <PUBCHEM_IUPAC_INCHIKEY>
FRCFVCUGTVLSMX-IWSPIJDZSA-N
> <PUBCHEM_XLOGP3>
-2.5
> <PUBCHEM_EXACT_MASS>
338.06791601
> <PUBCHEM_MOLECULAR_FORMULA>
C11H16FN2O7P
> <PUBCHEM_MOLECULAR_WEIGHT>
338.23
> <PUBCHEM_OPENEYE_CAN_SMILES>
CC1=CN(C(=O)NC1=O)C2CC(C(O2)COP(=O)(O)O)CF
> <PUBCHEM_OPENEYE_ISO_SMILES>
CC1=CN(C(=O)NC1=O)[C@H]2C[C@@H]([C@H](O2)COP(=O)(O)O)CF
> <PUBCHEM_CACTVS_TPSA>
125
> <PUBCHEM_MONOISOTOPIC_WEIGHT>
338.06791601
> <PUBCHEM_TOTAL_CHARGE>
0
> <PUBCHEM_HEAVY_ATOM_COUNT>
22
> <PUBCHEM_ATOM_DEF_STEREO_COUNT>
3
> <PUBCHEM_ATOM_UDEF_STEREO_COUNT>
0
> <PUBCHEM_BOND_DEF_STEREO_COUNT>
0
> <PUBCHEM_BOND_UDEF_STEREO_COUNT>
0
> <PUBCHEM_ISOTOPIC_ATOM_COUNT>
0
> <PUBCHEM_COMPONENT_COUNT>
1
> <PUBCHEM_CACTVS_TAUTO_COUNT>
-1
> <PUBCHEM_COORDINATE_TYPE>
1
5
255
> <PUBCHEM_BONDANNOTATIONS>
15  10  6
10  18  8
10  19  8
11  19  8
11  21  8
12  16  5
13  17  6
18  20  8
20  21  8
$$$$
