510195
  -OEChem-10302200282D
 72 76  0     1  0  0  0  0  0999 V2000
    7.5709   -4.1158    0.0000 O   0  0  0  0  0  0  0  0  0  0  0  0
    6.9369   -0.7498    0.0000 O   0  0  0  0  0  0  0  0  0  0  0  0
    8.6690   -0.7498    0.0000 O   0  0  0  0  0  0  0  0  0  0  0  0
    6.9369    1.2502    0.0000 O   0  0  0  0  0  0  0  0  0  0  0  0
   10.4010    2.2502    0.0000 O   0  0  0  0  0  0  0  0  0  0  0  0
    9.5350    0.7502    0.0000 N   0  0  0  0  0  0  0  0  0  0  0  0
    5.2049   -3.7498    0.0000 C   0  0  1  0  0  0  0  0  0  0  0  0
    6.0709   -3.2498    0.0000 C   0  0  2  0  0  0  0  0  0  0  0  0
    4.3388   -3.2498    0.0000 C   0  0  2  0  0  0  0  0  0  0  0  0
    6.0712   -4.2502    0.0000 C   0  0  0  0  0  0  0  0  0  0  0  0
    4.3388   -2.2498    0.0000 C   0  0  1  0  0  0  0  0  0  0  0  0
    3.3926   -3.5545    0.0000 C   0  0  0  0  0  0  0  0  0  0  0  0
    6.0709   -2.2498    0.0000 C   0  0  0  0  0  0  0  0  0  0  0  0
    2.8090   -2.7498    0.0000 C   0  0  0  0  0  0  0  0  0  0  0  0
    3.3926   -1.9450    0.0000 C   0  0  0  0  0  0  0  0  0  0  0  0
    4.3388   -4.2498    0.0000 C   0  0  0  0  0  0  0  0  0  0  0  0
    5.2049   -1.7498    0.0000 C   0  0  0  0  0  0  0  0  0  0  0  0
    7.0709   -3.2498    0.0000 C   0  0  0  0  0  0  0  0  0  0  0  0
    6.9369   -1.7498    0.0000 C   0  0  0  0  0  0  0  0  0  0  0  0
    2.0000   -2.1620    0.0000 C   0  0  0  0  0  0  0  0  0  0  0  0
    2.0000   -3.3376    0.0000 C   0  0  0  0  0  0  0  0  0  0  0  0
    7.8030   -0.2498    0.0000 C   0  0  0  0  0  0  0  0  0  0  0  0
    7.8030    0.7502    0.0000 C   0  0  1  0  0  0  0  0  0  0  0  0
    8.6690    1.2502    0.0000 C   0  0  2  0  0  0  0  0  0  0  0  0
    8.6690    2.2502    0.0000 C   0  0  0  0  0  0  0  0  0  0  0  0
    7.8030    2.7502    0.0000 C   0  0  0  0  0  0  0  0  0  0  0  0
    9.5350    2.7502    0.0000 C   0  0  0  0  0  0  0  0  0  0  0  0
   10.4010    1.2502    0.0000 C   0  0  0  0  0  0  0  0  0  0  0  0
    7.8030    3.7502    0.0000 C   0  0  0  0  0  0  0  0  0  0  0  0
    9.5350    3.7502    0.0000 C   0  0  0  0  0  0  0  0  0  0  0  0
   11.2670    0.7502    0.0000 C   0  0  0  0  0  0  0  0  0  0  0  0
    8.6690    4.2502    0.0000 C   0  0  0  0  0  0  0  0  0  0  0  0
   12.1331    1.2502    0.0000 C   0  0  0  0  0  0  0  0  0  0  0  0
   11.2670   -0.2498    0.0000 C   0  0  0  0  0  0  0  0  0  0  0  0
   12.9991    0.7502    0.0000 C   0  0  0  0  0  0  0  0  0  0  0  0
   12.1331   -0.7498    0.0000 C   0  0  0  0  0  0  0  0  0  0  0  0
   12.9991   -0.2498    0.0000 C   0  0  0  0  0  0  0  0  0  0  0  0
    5.0750   -2.8248    0.0000 H   0  0  0  0  0  0  0  0  0  0  0  0
    5.8590   -4.8328    0.0000 H   0  0  0  0  0  0  0  0  0  0  0  0
    6.6817   -4.3578    0.0000 H   0  0  0  0  0  0  0  0  0  0  0  0
    4.2489   -1.4046    0.0000 H   0  0  0  0  0  0  0  0  0  0  0  0
    2.8552   -3.8637    0.0000 H   0  0  0  0  0  0  0  0  0  0  0  0
    3.6437   -4.1214    0.0000 H   0  0  0  0  0  0  0  0  0  0  0  0
    3.6437   -1.3781    0.0000 H   0  0  0  0  0  0  0  0  0  0  0  0
    2.8552   -1.6358    0.0000 H   0  0  0  0  0  0  0  0  0  0  0  0
    4.0288   -3.7128    0.0000 H   0  0  0  0  0  0  0  0  0  0  0  0
    3.8019   -4.5598    0.0000 H   0  0  0  0  0  0  0  0  0  0  0  0
    4.6489   -4.7867    0.0000 H   0  0  0  0  0  0  0  0  0  0  0  0
    5.2049   -1.1298    0.0000 H   0  0  0  0  0  0  0  0  0  0  0  0
    7.3809   -2.7128    0.0000 H   0  0  0  0  0  0  0  0  0  0  0  0
    7.1490   -2.3324    0.0000 H   0  0  0  0  0  0  0  0  0  0  0  0
    7.5475   -1.6421    0.0000 H   0  0  0  0  0  0  0  0  0  0  0  0
    2.3644   -1.6604    0.0000 H   0  0  0  0  0  0  0  0  0  0  0  0
    1.4984   -1.7976    0.0000 H   0  0  0  0  0  0  0  0  0  0  0  0
    1.6356   -2.6636    0.0000 H   0  0  0  0  0  0  0  0  0  0  0  0
    1.6356   -2.8360    0.0000 H   0  0  0  0  0  0  0  0  0  0  0  0
    1.4984   -3.7020    0.0000 H   0  0  0  0  0  0  0  0  0  0  0  0
    2.3644   -3.8392    0.0000 H   0  0  0  0  0  0  0  0  0  0  0  0
    7.2660    0.4402    0.0000 H   0  0  0  0  0  0  0  0  0  0  0  0
    9.2059    1.5602    0.0000 H   0  0  0  0  0  0  0  0  0  0  0  0
    6.4000    0.9402    0.0000 H   0  0  0  0  0  0  0  0  0  0  0  0
    9.5350    0.1302    0.0000 H   0  0  0  0  0  0  0  0  0  0  0  0
    7.2660    2.4402    0.0000 H   0  0  0  0  0  0  0  0  0  0  0  0
   10.0719    2.4402    0.0000 H   0  0  0  0  0  0  0  0  0  0  0  0
    7.2660    4.0602    0.0000 H   0  0  0  0  0  0  0  0  0  0  0  0
   10.0719    4.0602    0.0000 H   0  0  0  0  0  0  0  0  0  0  0  0
    8.6690    4.8702    0.0000 H   0  0  0  0  0  0  0  0  0  0  0  0
   12.1331    1.8702    0.0000 H   0  0  0  0  0  0  0  0  0  0  0  0
   10.7301   -0.5598    0.0000 H   0  0  0  0  0  0  0  0  0  0  0  0
   13.5360    1.0602    0.0000 H   0  0  0  0  0  0  0  0  0  0  0  0
   12.1331   -1.3698    0.0000 H   0  0  0  0  0  0  0  0  0  0  0  0
   13.5360   -0.5598    0.0000 H   0  0  0  0  0  0  0  0  0  0  0  0
  1 18  2  0  0  0  0
  2 19  1  0  0  0  0
  2 22  1  0  0  0  0
  3 22  2  0  0  0  0
 23  4  1  6  0  0  0
  4 61  1  0  0  0  0
  5 28  2  0  0  0  0
 24  6  1  6  0  0  0
  6 28  1  0  0  0  0
  6 62  1  0  0  0  0
  7  8  1  0  0  0  0
  7  9  1  0  0  0  0
  7 10  1  0  0  0  0
  7 16  1  1  0  0  0
  8 10  1  0  0  0  0
  8 13  1  0  0  0  0
  8 18  1  6  0  0  0
  9 11  1  0  0  0  0
  9 12  1  0  0  0  0
  9 38  1  6  0  0  0
 10 39  1  0  0  0  0
 10 40  1  0  0  0  0
 11 15  1  0  0  0  0
 11 17  1  0  0  0  0
 11 41  1  6  0  0  0
 12 14  1  0  0  0  0
 12 42  1  0  0  0  0
 12 43  1  0  0  0  0
 13 17  2  0  0  0  0
 13 19  1  0  0  0  0
 14 15  1  0  0  0  0
 14 20  1  0  0  0  0
 14 21  1  0  0  0  0
 15 44  1  0  0  0  0
 15 45  1  0  0  0  0
 16 46  1  0  0  0  0
 16 47  1  0  0  0  0
 16 48  1  0  0  0  0
 17 49  1  0  0  0  0
 18 50  1  0  0  0  0
 19 51  1  0  0  0  0
 19 52  1  0  0  0  0
 20 53  1  0  0  0  0
 20 54  1  0  0  0  0
 20 55  1  0  0  0  0
 21 56  1  0  0  0  0
 21 57  1  0  0  0  0
 21 58  1  0  0  0  0
 22 23  1  0  0  0  0
 23 24  1  0  0  0  0
 23 59  1  0  0  0  0
 24 25  1  0  0  0  0
 24 60  1  0  0  0  0
 25 26  2  0  0  0  0
 25 27  1  0  0  0  0
 26 29  1  0  0  0  0
 26 63  1  0  0  0  0
 27 30  2  0  0  0  0
 27 64  1  0  0  0  0
 28 31  1  0  0  0  0
 29 32  2  0  0  0  0
 29 65  1  0  0  0  0
 30 32  1  0  0  0  0
 30 66  1  0  0  0  0
 31 33  2  0  0  0  0
 31 34  1  0  0  0  0
 32 67  1  0  0  0  0
 33 35  1  0  0  0  0
 33 68  1  0  0  0  0
 34 36  2  0  0  0  0
 34 69  1  0  0  0  0
 35 37  2  0  0  0  0
 35 70  1  0  0  0  0
 36 37  1  0  0  0  0
 36 71  1  0  0  0  0
 37 72  1  0  0  0  0
M  END
> <PUBCHEM_COMPOUND_CID>
510195
> <PUBCHEM_COMPOUND_CANONICALIZED>
1
> <PUBCHEM_CACTVS_COMPLEXITY>
930
> <PUBCHEM_CACTVS_HBOND_ACCEPTOR>
5
> <PUBCHEM_CACTVS_HBOND_DONOR>
2
> <PUBCHEM_CACTVS_ROTATABLE_BOND>
9
> <PUBCHEM_CACTVS_SUBSKEYS>
AAADcfB6OAAAAAAAAAAAAAAAGAAAAYAAAAAwYIAABAAAAEABQAAAHgAQCAAADzzhmAYyCILABgCIAinSmAKCAAAkAAAIiIFIBMgLNDqAtRGGcQhm1gGbqYeayPCPgAAAAAAAAAAAAAAAAAAAAQAACAAAAA==
> <PUBCHEM_IUPAC_OPENEYE_NAME>
[(1aR,3aS,6aS,6bR)-1a-formyl-5,5,6b-trimethyl-3a,4,6,6a-tetrahydro-1H-cyclopropa[e]inden-2-yl]methyl (2R,3S)-3-benzamido-2-hydroxy-3-phenyl-propanoate
> <PUBCHEM_IUPAC_CAS_NAME>
(2R,3S)-3-benzamido-2-hydroxy-3-phenylpropanoic acid [(1aR,3aS,6aS,6bR)-1a-formyl-5,5,6b-trimethyl-3a,4,6,6a-tetrahydro-1H-cyclopropa[e]inden-2-yl]methyl ester
> <PUBCHEM_IUPAC_NAME_MARKUP>
[(1<I>a</I><I>R</I>,3<I>a</I><I>S</I>,6<I>a</I><I>S</I>,6<I>b</I><I>R</I>)-1<I>a</I>-formyl-5,5,6<I>b</I>-trimethyl-3<I>a</I>,4,6,6<I>a</I>-tetrahydro-1<I>H</I>-cyclopropa[e]inden-2-yl]methyl (2<I>R</I>,3<I>S</I>)-3-benzamido-2-hydroxy-3-phenylpropanoate
> <PUBCHEM_IUPAC_NAME>
[(1aR,3aS,6aS,6bR)-1a-formyl-5,5,6b-trimethyl-3a,4,6,6a-tetrahydro-1H-cyclopropa[e]inden-2-yl]methyl (2R,3S)-3-benzamido-2-hydroxy-3-phenylpropanoate
> <PUBCHEM_IUPAC_SYSTEMATIC_NAME>
[(1aR,3aS,6aS,6bR)-1a-methanoyl-5,5,6b-trimethyl-3a,4,6,6a-tetrahydro-1H-cyclopropa[e]inden-2-yl]methyl (2R,3S)-3-benzamido-2-oxidanyl-3-phenyl-propanoate
> <PUBCHEM_IUPAC_TRADITIONAL_NAME>
(2R,3S)-3-benzamido-2-hydroxy-3-phenyl-propionic acid [(1aR,3aS,6aS,6bR)-1a-formyl-5,5,6b-trimethyl-3a,4,6,6a-tetrahydro-1H-cycloprop[e]inden-2-yl]methyl ester
> <PUBCHEM_IUPAC_INCHI>
InChI=1S/C31H35NO5/c1-29(2)15-22-14-23(31(19-33)18-30(31,3)24(22)16-29)17-37-28(36)26(34)25(20-10-6-4-7-11-20)32-27(35)21-12-8-5-9-13-21/h4-14,19,22,24-26,34H,15-18H2,1-3H3,(H,32,35)/t22-,24+,25+,26-,30-,31+/m1/s1
> <PUBCHEM_IUPAC_INCHIKEY>
DAJWGQKFYBVZCB-FSESHLKMSA-N
> <PUBCHEM_XLOGP3_AA>
4.4
> <PUBCHEM_EXACT_MASS>
501.25152322
> <PUBCHEM_MOLECULAR_FORMULA>
C31H35NO5
> <PUBCHEM_MOLECULAR_WEIGHT>
501.6
> <PUBCHEM_OPENEYE_CAN_SMILES>
CC1(CC2C=C(C3(CC3(C2C1)C)C=O)COC(=O)C(C(C4=CC=CC=C4)NC(=O)C5=CC=CC=C5)O)C
> <PUBCHEM_OPENEYE_ISO_SMILES>
C[C@]12C[C@@]1(C(=C[C@H]3[C@@H]2CC(C3)(C)C)COC(=O)[C@@H]([C@H](C4=CC=CC=C4)NC(=O)C5=CC=CC=C5)O)C=O
> <PUBCHEM_CACTVS_TPSA>
92.7
> <PUBCHEM_MONOISOTOPIC_WEIGHT>
501.25152322
> <PUBCHEM_TOTAL_CHARGE>
0
> <PUBCHEM_HEAVY_ATOM_COUNT>
37
> <PUBCHEM_ATOM_DEF_STEREO_COUNT>
6
> <PUBCHEM_ATOM_UDEF_STEREO_COUNT>
0
> <PUBCHEM_BOND_DEF_STEREO_COUNT>
0
> <PUBCHEM_BOND_UDEF_STEREO_COUNT>
0
> <PUBCHEM_ISOTOPIC_ATOM_COUNT>
0
> <PUBCHEM_COMPONENT_COUNT>
1
> <PUBCHEM_CACTVS_TAUTO_COUNT>
-1
> <PUBCHEM_COORDINATE_TYPE>
1
5
255
> <PUBCHEM_BONDANNOTATIONS>
11  41  6
25  26  8
25  27  8
26  29  8
27  30  8
29  32  8
30  32  8
31  33  8
31  34  8
33  35  8
34  36  8
35  37  8
36  37  8
23  4  6
24  6  6
7  16  5
8  18  6
9  38  6
$$$$
