510197
  -OEChem-10302200282D
 74 78  0     1  0  0  0  0  0999 V2000
    2.1931    3.4551    0.0000 O   0  0  0  0  0  0  0  0  0  0  0  0
    5.7812    1.2332    0.0000 O   0  0  0  0  0  0  0  0  0  0  0  0
    6.1062    4.1764    0.0000 O   0  0  0  0  0  0  0  0  0  0  0  0
    6.9872    2.6339    0.0000 O   0  0  0  0  0  0  0  0  0  0  0  0
    4.7013   -0.1210    0.0000 O   0  0  0  0  0  0  0  0  0  0  0  0
    7.3449   -0.0138    0.0000 O   0  0  0  0  0  0  0  0  0  0  0  0
    5.9669   -3.3456    0.0000 O   0  0  0  0  0  0  0  0  0  0  0  0
    5.3341   -1.7333    0.0000 N   0  0  0  0  0  0  0  0  0  0  0  0
    3.1974    1.8567    0.0000 C   0  0  2  0  0  0  0  0  0  0  0  0
    4.0984    1.4228    0.0000 C   0  0  1  0  0  0  0  0  0  0  0  0
    2.9842    0.2614    0.0000 C   0  0  0  0  0  0  0  0  0  0  0  0
    2.5124    1.1364    0.0000 C   0  0  0  0  0  0  0  0  0  0  0  0
    3.9624    0.4381    0.0000 C   0  0  0  0  0  0  0  0  0  0  0  0
    2.9749    2.8316    0.0000 C   0  0  2  0  0  0  0  0  0  0  0  0
    4.9994    1.8567    0.0000 C   0  0  1  0  0  0  0  0  0  0  0  0
    3.5984    3.6134    0.0000 C   0  0  0  0  0  0  0  0  0  0  0  0
    3.1627   -0.7225    0.0000 C   0  0  0  0  0  0  0  0  0  0  0  0
    2.1036   -0.2125    0.0000 C   0  0  0  0  0  0  0  0  0  0  0  0
    5.2219    2.8316    0.0000 C   0  0  0  0  0  0  0  0  0  0  0  0
    4.5984    3.6134    0.0000 C   0  0  0  0  0  0  0  0  0  0  0  0
    2.0000    2.6091    0.0000 C   0  0  0  0  0  0  0  0  0  0  0  0
    5.1482    4.4416    0.0000 C   0  0  0  0  0  0  0  0  0  0  0  0
    6.1517    3.1833    0.0000 C   0  0  0  0  0  0  0  0  0  0  0  0
    5.6322    0.2444    0.0000 C   0  0  0  0  0  0  0  0  0  0  0  0
    6.4140   -0.3791    0.0000 C   0  0  1  0  0  0  0  0  0  0  0  0
    6.2650   -1.3680    0.0000 C   0  0  2  0  0  0  0  0  0  0  0  0
    7.0468   -1.9914    0.0000 C   0  0  0  0  0  0  0  0  0  0  0  0
    7.9777   -1.6261    0.0000 C   0  0  0  0  0  0  0  0  0  0  0  0
    6.8978   -2.9803    0.0000 C   0  0  0  0  0  0  0  0  0  0  0  0
    5.1851   -2.7221    0.0000 C   0  0  0  0  0  0  0  0  0  0  0  0
    8.7595   -2.2496    0.0000 C   0  0  0  0  0  0  0  0  0  0  0  0
    7.6796   -3.6038    0.0000 C   0  0  0  0  0  0  0  0  0  0  0  0
    4.2542   -3.0875    0.0000 C   0  0  0  0  0  0  0  0  0  0  0  0
    8.6105   -3.2384    0.0000 C   0  0  0  0  0  0  0  0  0  0  0  0
    4.1051   -4.0763    0.0000 C   0  0  0  0  0  0  0  0  0  0  0  0
    3.4723   -2.4640    0.0000 C   0  0  0  0  0  0  0  0  0  0  0  0
    3.1743   -4.4416    0.0000 C   0  0  0  0  0  0  0  0  0  0  0  0
    2.5415   -2.8293    0.0000 C   0  0  0  0  0  0  0  0  0  0  0  0
    2.3924   -3.8182    0.0000 C   0  0  0  0  0  0  0  0  0  0  0  0
    2.3778    2.0818    0.0000 H   0  0  0  0  0  0  0  0  0  0  0  0
    4.7854    0.9223    0.0000 H   0  0  0  0  0  0  0  0  0  0  0  0
    2.1105    1.6085    0.0000 H   0  0  0  0  0  0  0  0  0  0  0  0
    2.0006    0.7864    0.0000 H   0  0  0  0  0  0  0  0  0  0  0  0
    4.0079   -0.1803    0.0000 H   0  0  0  0  0  0  0  0  0  0  0  0
    4.5821    0.4183    0.0000 H   0  0  0  0  0  0  0  0  0  0  0  0
    5.5846    2.0614    0.0000 H   0  0  0  0  0  0  0  0  0  0  0  0
    3.7364    4.2179    0.0000 H   0  0  0  0  0  0  0  0  0  0  0  0
    3.0398    3.8824    0.0000 H   0  0  0  0  0  0  0  0  0  0  0  0
    2.5527   -0.8332    0.0000 H   0  0  0  0  0  0  0  0  0  0  0  0
    3.2734   -1.3326    0.0000 H   0  0  0  0  0  0  0  0  0  0  0  0
    3.7728   -0.6118    0.0000 H   0  0  0  0  0  0  0  0  0  0  0  0
    1.8098    0.3335    0.0000 H   0  0  0  0  0  0  0  0  0  0  0  0
    1.5576   -0.5063    0.0000 H   0  0  0  0  0  0  0  0  0  0  0  0
    2.3974   -0.7584    0.0000 H   0  0  0  0  0  0  0  0  0  0  0  0
    1.8620    3.2135    0.0000 H   0  0  0  0  0  0  0  0  0  0  0  0
    1.3955    2.4711    0.0000 H   0  0  0  0  0  0  0  0  0  0  0  0
    2.1380    2.0046    0.0000 H   0  0  0  0  0  0  0  0  0  0  0  0
    2.2855    4.0682    0.0000 H   0  0  0  0  0  0  0  0  0  0  0  0
    5.3755    5.0185    0.0000 H   0  0  0  0  0  0  0  0  0  0  0  0
    4.5985    4.7284    0.0000 H   0  0  0  0  0  0  0  0  0  0  0  0
    6.5064    0.2339    0.0000 H   0  0  0  0  0  0  0  0  0  0  0  0
    5.7802   -0.9814    0.0000 H   0  0  0  0  0  0  0  0  0  0  0  0
    7.4373    0.5993    0.0000 H   0  0  0  0  0  0  0  0  0  0  0  0
    4.8494   -1.3467    0.0000 H   0  0  0  0  0  0  0  0  0  0  0  0
    8.0701   -1.0130    0.0000 H   0  0  0  0  0  0  0  0  0  0  0  0
    6.3206   -3.2068    0.0000 H   0  0  0  0  0  0  0  0  0  0  0  0
    9.3366   -2.0231    0.0000 H   0  0  0  0  0  0  0  0  0  0  0  0
    7.5872   -4.2168    0.0000 H   0  0  0  0  0  0  0  0  0  0  0  0
    9.0952   -3.6250    0.0000 H   0  0  0  0  0  0  0  0  0  0  0  0
    4.5899   -4.4629    0.0000 H   0  0  0  0  0  0  0  0  0  0  0  0
    3.5648   -1.8509    0.0000 H   0  0  0  0  0  0  0  0  0  0  0  0
    3.0819   -5.0547    0.0000 H   0  0  0  0  0  0  0  0  0  0  0  0
    2.0567   -2.4428    0.0000 H   0  0  0  0  0  0  0  0  0  0  0  0
    1.8153   -4.0447    0.0000 H   0  0  0  0  0  0  0  0  0  0  0  0
 14  1  1  1  0  0  0
  1 58  1  0  0  0  0
 15  2  1  1  0  0  0
  2 24  1  0  0  0  0
  3 22  1  0  0  0  0
  3 23  1  0  0  0  0
  4 23  2  0  0  0  0
  5 24  2  0  0  0  0
 25  6  1  6  0  0  0
  6 63  1  0  0  0  0
  7 30  2  0  0  0  0
 26  8  1  6  0  0  0
  8 30  1  0  0  0  0
  8 64  1  0  0  0  0
  9 10  1  0  0  0  0
  9 12  1  0  0  0  0
  9 14  1  0  0  0  0
  9 40  1  1  0  0  0
 10 13  1  0  0  0  0
 10 15  1  0  0  0  0
 10 41  1  1  0  0  0
 11 12  1  0  0  0  0
 11 13  1  0  0  0  0
 11 17  1  0  0  0  0
 11 18  1  0  0  0  0
 12 42  1  0  0  0  0
 12 43  1  0  0  0  0
 13 44  1  0  0  0  0
 13 45  1  0  0  0  0
 14 16  1  0  0  0  0
 14 21  1  0  0  0  0
 15 19  1  0  0  0  0
 15 46  1  0  0  0  0
 16 20  1  0  0  0  0
 16 47  1  0  0  0  0
 16 48  1  0  0  0  0
 17 49  1  0  0  0  0
 17 50  1  0  0  0  0
 17 51  1  0  0  0  0
 18 52  1  0  0  0  0
 18 53  1  0  0  0  0
 18 54  1  0  0  0  0
 19 20  2  0  0  0  0
 19 23  1  0  0  0  0
 20 22  1  0  0  0  0
 21 55  1  0  0  0  0
 21 56  1  0  0  0  0
 21 57  1  0  0  0  0
 22 59  1  0  0  0  0
 22 60  1  0  0  0  0
 24 25  1  0  0  0  0
 25 26  1  0  0  0  0
 25 61  1  0  0  0  0
 26 27  1  0  0  0  0
 26 62  1  0  0  0  0
 27 28  2  0  0  0  0
 27 29  1  0  0  0  0
 28 31  1  0  0  0  0
 28 65  1  0  0  0  0
 29 32  2  0  0  0  0
 29 66  1  0  0  0  0
 30 33  1  0  0  0  0
 31 34  2  0  0  0  0
 31 67  1  0  0  0  0
 32 34  1  0  0  0  0
 32 68  1  0  0  0  0
 33 35  2  0  0  0  0
 33 36  1  0  0  0  0
 34 69  1  0  0  0  0
 35 37  1  0  0  0  0
 35 70  1  0  0  0  0
 36 38  2  0  0  0  0
 36 71  1  0  0  0  0
 37 39  2  0  0  0  0
 37 72  1  0  0  0  0
 38 39  1  0  0  0  0
 38 73  1  0  0  0  0
 39 74  1  0  0  0  0
M  END
> <PUBCHEM_COMPOUND_CID>
510197
> <PUBCHEM_COMPOUND_CANONICALIZED>
1
> <PUBCHEM_CACTVS_COMPLEXITY>
993
> <PUBCHEM_CACTVS_HBOND_ACCEPTOR>
7
> <PUBCHEM_CACTVS_HBOND_DONOR>
3
> <PUBCHEM_CACTVS_ROTATABLE_BOND>
7
> <PUBCHEM_CACTVS_SUBSKEYS>
AAADcfB6OAAAAAAAAAAAAAAAAAAAAYIAAAAwYAAABAAAAACRQAAAHgAQCAAAD3zhmAYyCILABgCIAiHSGAKCAAAkAAAIiIFIBMgLND6AtRGGcQhn9gGbqYfYyPCPgAAAAAAAAAAAAAAAAAAAAQAACAAAAA==
> <PUBCHEM_IUPAC_OPENEYE_NAME>
[(5S,5aS,8aR,9S)-5-hydroxy-5,7,7-trimethyl-1-oxo-4,5a,6,8,8a,9-hexahydro-3H-azuleno[5,6-c]furan-9-yl] (2R,3S)-3-benzamido-2-hydroxy-3-phenyl-propanoate
> <PUBCHEM_IUPAC_CAS_NAME>
(2R,3S)-3-benzamido-2-hydroxy-3-phenylpropanoic acid [(5S,5aS,8aR,9S)-5-hydroxy-5,7,7-trimethyl-1-oxo-4,5a,6,8,8a,9-hexahydro-3H-azuleno[5,6-c]furan-9-yl] ester
> <PUBCHEM_IUPAC_NAME_MARKUP>
[(5<I>S</I>,5<I>a</I><I>S</I>,8<I>a</I><I>R</I>,9<I>S</I>)-5-hydroxy-5,7,7-trimethyl-1-oxo-4,5<I>a</I>,6,8,8<I>a</I>,9-hexahydro-3<I>H</I>-azuleno[5,6-c]furan-9-yl] (2<I>R</I>,3<I>S</I>)-3-benzamido-2-hydroxy-3-phenylpropanoate
> <PUBCHEM_IUPAC_NAME>
[(5S,5aS,8aR,9S)-5-hydroxy-5,7,7-trimethyl-1-oxo-4,5a,6,8,8a,9-hexahydro-3H-azuleno[5,6-c]furan-9-yl] (2R,3S)-3-benzamido-2-hydroxy-3-phenylpropanoate
> <PUBCHEM_IUPAC_SYSTEMATIC_NAME>
[(5S,5aS,8aR,9S)-5,7,7-trimethyl-5-oxidanyl-1-oxidanylidene-4,5a,6,8,8a,9-hexahydro-3H-azuleno[5,6-c]furan-9-yl] (2R,3S)-3-benzamido-2-oxidanyl-3-phenyl-propanoate
> <PUBCHEM_IUPAC_TRADITIONAL_NAME>
(2R,3S)-3-benzamido-2-hydroxy-3-phenyl-propionic acid [(5S,5aS,8aR,9S)-5-hydroxy-1-keto-5,7,7-trimethyl-4,5a,6,8,8a,9-hexahydro-3H-azuleno[5,6-c]furan-9-yl] ester
> <PUBCHEM_IUPAC_INCHI>
InChI=1S/C31H35NO7/c1-30(2)15-21-22(16-30)31(3,37)14-20-17-38-28(35)23(20)26(21)39-29(36)25(33)24(18-10-6-4-7-11-18)32-27(34)19-12-8-5-9-13-19/h4-13,21-22,24-26,33,37H,14-17H2,1-3H3,(H,32,34)/t21-,22+,24+,25-,26+,31+/m1/s1
> <PUBCHEM_IUPAC_INCHIKEY>
XAQRBIFIJVARJW-IOMSFJDBSA-N
> <PUBCHEM_XLOGP3_AA>
3.2
> <PUBCHEM_EXACT_MASS>
533.24135246
> <PUBCHEM_MOLECULAR_FORMULA>
C31H35NO7
> <PUBCHEM_MOLECULAR_WEIGHT>
533.6
> <PUBCHEM_OPENEYE_CAN_SMILES>
CC1(CC2C(C1)C(CC3=C(C2OC(=O)C(C(C4=CC=CC=C4)NC(=O)C5=CC=CC=C5)O)C(=O)OC3)(C)O)C
> <PUBCHEM_OPENEYE_ISO_SMILES>
C[C@@]1(CC2=C([C@H]([C@H]3[C@@H]1CC(C3)(C)C)OC(=O)[C@@H]([C@H](C4=CC=CC=C4)NC(=O)C5=CC=CC=C5)O)C(=O)OC2)O
> <PUBCHEM_CACTVS_TPSA>
122
> <PUBCHEM_MONOISOTOPIC_WEIGHT>
533.24135246
> <PUBCHEM_TOTAL_CHARGE>
0
> <PUBCHEM_HEAVY_ATOM_COUNT>
39
> <PUBCHEM_ATOM_DEF_STEREO_COUNT>
6
> <PUBCHEM_ATOM_UDEF_STEREO_COUNT>
0
> <PUBCHEM_BOND_DEF_STEREO_COUNT>
0
> <PUBCHEM_BOND_UDEF_STEREO_COUNT>
0
> <PUBCHEM_ISOTOPIC_ATOM_COUNT>
0
> <PUBCHEM_COMPONENT_COUNT>
1
> <PUBCHEM_CACTVS_TAUTO_COUNT>
-1
> <PUBCHEM_COORDINATE_TYPE>
1
5
255
> <PUBCHEM_BONDANNOTATIONS>
14  1  5
10  41  5
15  2  5
27  28  8
27  29  8
28  31  8
29  32  8
31  34  8
32  34  8
33  35  8
33  36  8
35  37  8
36  38  8
37  39  8
38  39  8
25  6  6
26  8  6
9  40  5
$$$$
