510191
  -OEChem-10302200282D
 77 82  0     1  0  0  0  0  0999 V2000
    3.4630   -2.1214    0.0000 O   0  0  0  0  0  0  0  0  0  0  0  0
    6.2600   -1.1496    0.0000 O   0  0  0  0  0  0  0  0  0  0  0  0
    3.2954    1.8541    0.0000 O   0  0  0  0  0  0  0  0  0  0  0  0
    2.0000   -1.1139    0.0000 O   0  0  0  0  0  0  0  0  0  0  0  0
    7.3400    0.2046    0.0000 O   0  0  0  0  0  0  0  0  0  0  0  0
    7.8237   -2.3966    0.0000 O   0  0  0  0  0  0  0  0  0  0  0  0
   10.7654   -0.3117    0.0000 O   0  0  0  0  0  0  0  0  0  0  0  0
    9.0527   -0.0536    0.0000 N   0  0  0  0  0  0  0  0  0  0  0  0
    4.5772   -0.9600    0.0000 C   0  0  3  0  0  0  0  0  0  0  0  0
    3.6763   -0.5261    0.0000 C   0  0  3  0  0  0  0  0  0  0  0  0
    3.7508   -1.5238    0.0000 C   0  0  0  0  0  0  0  0  0  0  0  0
    5.4782   -0.5261    0.0000 C   0  0  2  0  0  0  0  0  0  0  0  0
    5.7007    0.4488    0.0000 C   0  0  1  0  0  0  0  0  0  0  0  0
    3.4538    0.4488    0.0000 C   0  0  0  0  0  0  0  0  0  0  0  0
    5.0772    1.2306    0.0000 C   0  0  1  0  0  0  0  0  0  0  0  0
    4.0772    1.2306    0.0000 C   0  0  1  0  0  0  0  0  0  0  0  0
    4.4413   -1.9448    0.0000 C   0  0  0  0  0  0  0  0  0  0  0  0
    2.9912   -1.2464    0.0000 C   0  0  0  0  0  0  0  0  0  0  0  0
    6.6305    0.8005    0.0000 C   0  0  0  0  0  0  0  0  0  0  0  0
    5.6270    2.0588    0.0000 C   0  0  0  0  0  0  0  0  0  0  0  0
    6.5851    1.7936    0.0000 C   0  0  0  0  0  0  0  0  0  0  0  0
    4.0772    2.2306    0.0000 C   0  0  0  0  0  0  0  0  0  0  0  0
    7.5841    1.8384    0.0000 C   0  0  0  0  0  0  0  0  0  0  0  0
    6.8511    2.7575    0.0000 C   0  0  0  0  0  0  0  0  0  0  0  0
    7.1909   -0.7843    0.0000 C   0  0  0  0  0  0  0  0  0  0  0  0
    7.9728   -1.4078    0.0000 C   0  0  1  0  0  0  0  0  0  0  0  0
    8.9036   -1.0424    0.0000 C   0  0  2  0  0  0  0  0  0  0  0  0
    9.6855   -1.6659    0.0000 C   0  0  0  0  0  0  0  0  0  0  0  0
   10.6163   -1.3006    0.0000 C   0  0  0  0  0  0  0  0  0  0  0  0
    9.5364   -2.6548    0.0000 C   0  0  0  0  0  0  0  0  0  0  0  0
    9.9835    0.3117    0.0000 C   0  0  0  0  0  0  0  0  0  0  0  0
   11.3982   -1.9241    0.0000 C   0  0  0  0  0  0  0  0  0  0  0  0
   10.3183   -3.2782    0.0000 C   0  0  0  0  0  0  0  0  0  0  0  0
   10.1326    1.3006    0.0000 C   0  0  0  0  0  0  0  0  0  0  0  0
   11.2491   -2.9129    0.0000 C   0  0  0  0  0  0  0  0  0  0  0  0
   11.0635    1.6659    0.0000 C   0  0  0  0  0  0  0  0  0  0  0  0
    9.3508    1.9241    0.0000 C   0  0  0  0  0  0  0  0  0  0  0  0
   11.2125    2.6548    0.0000 C   0  0  0  0  0  0  0  0  0  0  0  0
    9.4998    2.9129    0.0000 C   0  0  0  0  0  0  0  0  0  0  0  0
   10.4307    3.2782    0.0000 C   0  0  0  0  0  0  0  0  0  0  0  0
    3.1500   -1.6767    0.0000 H   0  0  0  0  0  0  0  0  0  0  0  0
    4.0058   -2.0889    0.0000 H   0  0  0  0  0  0  0  0  0  0  0  0
    6.0634   -0.3214    0.0000 H   0  0  0  0  0  0  0  0  0  0  0  0
    6.3416   -0.1096    0.0000 H   0  0  0  0  0  0  0  0  0  0  0  0
    3.0672    0.9335    0.0000 H   0  0  0  0  0  0  0  0  0  0  0  0
    2.8952    0.1798    0.0000 H   0  0  0  0  0  0  0  0  0  0  0  0
    4.6754    1.9797    0.0000 H   0  0  0  0  0  0  0  0  0  0  0  0
    4.4867   -2.5631    0.0000 H   0  0  0  0  0  0  0  0  0  0  0  0
    5.0609   -1.9646    0.0000 H   0  0  0  0  0  0  0  0  0  0  0  0
    6.7877    0.2008    0.0000 H   0  0  0  0  0  0  0  0  0  0  0  0
    7.2435    0.8938    0.0000 H   0  0  0  0  0  0  0  0  0  0  0  0
    5.8544    2.6356    0.0000 H   0  0  0  0  0  0  0  0  0  0  0  0
    5.0773    2.3455    0.0000 H   0  0  0  0  0  0  0  0  0  0  0  0
    4.6973    2.2306    0.0000 H   0  0  0  0  0  0  0  0  0  0  0  0
    4.0772    2.8506    0.0000 H   0  0  0  0  0  0  0  0  0  0  0  0
    3.4572    2.2306    0.0000 H   0  0  0  0  0  0  0  0  0  0  0  0
    2.7183    1.6276    0.0000 H   0  0  0  0  0  0  0  0  0  0  0  0
    7.6119    1.2190    0.0000 H   0  0  0  0  0  0  0  0  0  0  0  0
    8.2034    1.8662    0.0000 H   0  0  0  0  0  0  0  0  0  0  0  0
    7.5562    2.4578    0.0000 H   0  0  0  0  0  0  0  0  0  0  0  0
    7.4488    2.5926    0.0000 H   0  0  0  0  0  0  0  0  0  0  0  0
    7.0160    3.3552    0.0000 H   0  0  0  0  0  0  0  0  0  0  0  0
    6.2534    2.9224    0.0000 H   0  0  0  0  0  0  0  0  0  0  0  0
    8.4575   -1.7943    0.0000 H   0  0  0  0  0  0  0  0  0  0  0  0
    8.4189   -0.6559    0.0000 H   0  0  0  0  0  0  0  0  0  0  0  0
    7.2466   -2.6231    0.0000 H   0  0  0  0  0  0  0  0  0  0  0  0
    8.5679    0.3330    0.0000 H   0  0  0  0  0  0  0  0  0  0  0  0
   10.7087   -0.6875    0.0000 H   0  0  0  0  0  0  0  0  0  0  0  0
    8.9593   -2.8813    0.0000 H   0  0  0  0  0  0  0  0  0  0  0  0
   11.9753   -1.6976    0.0000 H   0  0  0  0  0  0  0  0  0  0  0  0
   10.2258   -3.8913    0.0000 H   0  0  0  0  0  0  0  0  0  0  0  0
   11.7339   -3.2995    0.0000 H   0  0  0  0  0  0  0  0  0  0  0  0
   11.5482    1.2794    0.0000 H   0  0  0  0  0  0  0  0  0  0  0  0
    8.7736    1.6976    0.0000 H   0  0  0  0  0  0  0  0  0  0  0  0
   11.7896    2.8813    0.0000 H   0  0  0  0  0  0  0  0  0  0  0  0
    9.0151    3.2995    0.0000 H   0  0  0  0  0  0  0  0  0  0  0  0
   10.5231    3.8913    0.0000 H   0  0  0  0  0  0  0  0  0  0  0  0
  1 17  1  0  0  0  0
  1 18  1  0  0  0  0
 12  2  1  6  0  0  0
  2 25  1  0  0  0  0
 16  3  1  6  0  0  0
  3 57  1  0  0  0  0
  4 18  2  0  0  0  0
  5 25  2  0  0  0  0
 26  6  1  1  0  0  0
  6 66  1  0  0  0  0
  7 31  2  0  0  0  0
 27  8  1  1  0  0  0
  8 31  1  0  0  0  0
  8 67  1  0  0  0  0
  9 10  1  0  0  0  0
  9 11  1  0  0  0  0
  9 12  1  0  0  0  0
  9 17  1  0  0  0  0
 10 11  1  0  0  0  0
 10 14  1  0  0  0  0
 10 18  1  0  0  0  0
 11 41  1  0  0  0  0
 11 42  1  0  0  0  0
 12 13  1  0  0  0  0
 12 43  1  0  0  0  0
 13 15  1  0  0  0  0
 13 19  1  0  0  0  0
 13 44  1  6  0  0  0
 14 16  1  0  0  0  0
 14 45  1  0  0  0  0
 14 46  1  0  0  0  0
 15 16  1  0  0  0  0
 15 20  1  0  0  0  0
 15 47  1  6  0  0  0
 16 22  1  0  0  0  0
 17 48  1  0  0  0  0
 17 49  1  0  0  0  0
 19 21  1  0  0  0  0
 19 50  1  0  0  0  0
 19 51  1  0  0  0  0
 20 21  1  0  0  0  0
 20 52  1  0  0  0  0
 20 53  1  0  0  0  0
 21 23  1  0  0  0  0
 21 24  1  0  0  0  0
 22 54  1  0  0  0  0
 22 55  1  0  0  0  0
 22 56  1  0  0  0  0
 23 58  1  0  0  0  0
 23 59  1  0  0  0  0
 23 60  1  0  0  0  0
 24 61  1  0  0  0  0
 24 62  1  0  0  0  0
 24 63  1  0  0  0  0
 25 26  1  0  0  0  0
 26 27  1  0  0  0  0
 26 64  1  0  0  0  0
 27 28  1  0  0  0  0
 27 65  1  0  0  0  0
 28 29  2  0  0  0  0
 28 30  1  0  0  0  0
 29 32  1  0  0  0  0
 29 68  1  0  0  0  0
 30 33  2  0  0  0  0
 30 69  1  0  0  0  0
 31 34  1  0  0  0  0
 32 35  2  0  0  0  0
 32 70  1  0  0  0  0
 33 35  1  0  0  0  0
 33 71  1  0  0  0  0
 34 36  2  0  0  0  0
 34 37  1  0  0  0  0
 35 72  1  0  0  0  0
 36 38  1  0  0  0  0
 36 73  1  0  0  0  0
 37 39  2  0  0  0  0
 37 74  1  0  0  0  0
 38 40  2  0  0  0  0
 38 75  1  0  0  0  0
 39 40  1  0  0  0  0
 39 76  1  0  0  0  0
 40 77  1  0  0  0  0
M  END
> <PUBCHEM_COMPOUND_CID>
510191
> <PUBCHEM_COMPOUND_CANONICALIZED>
1
> <PUBCHEM_CACTVS_COMPLEXITY>
1030
> <PUBCHEM_CACTVS_HBOND_ACCEPTOR>
7
> <PUBCHEM_CACTVS_HBOND_DONOR>
3
> <PUBCHEM_CACTVS_ROTATABLE_BOND>
7
> <PUBCHEM_CACTVS_SUBSKEYS>
AAADcfB+OAAAAAAAAAAAAAAAGAAAAaIAAAA0YIAABgAYAADRQAAAHgAQCAAAD3zhmAYyCILABgCIAiHSGAKCAAAkAAAIiIFIBMgLMDqAlRGGYQhn1gGbiYfa7PzPgAAAAAAAAAAAAAAAAAAAAQAACAAAAA==
> <PUBCHEM_IUPAC_OPENEYE_NAME>
[(2S,3R,7S,8S)-8-hydroxy-5,5,8-trimethyl-11-oxo-12-oxatetracyclo[8.3.1.01,10.03,7]tetradecan-2-yl] (2R,3S)-3-benzamido-2-hydroxy-3-phenyl-propanoate
> <PUBCHEM_IUPAC_CAS_NAME>
(2R,3S)-3-benzamido-2-hydroxy-3-phenylpropanoic acid [(2S,3R,7S,8S)-8-hydroxy-5,5,8-trimethyl-11-oxo-12-oxatetracyclo[8.3.1.01,10.03,7]tetradecan-2-yl] ester
> <PUBCHEM_IUPAC_NAME_MARKUP>
[(2<I>S</I>,3<I>R</I>,7<I>S</I>,8<I>S</I>)-8-hydroxy-5,5,8-trimethyl-11-oxo-12-oxatetracyclo[8.3.1.0<SUP>1,10</SUP>.0<SUP>3,7</SUP>]tetradecan-2-yl] (2<I>R</I>,3<I>S</I>)-3-benzamido-2-hydroxy-3-phenylpropanoate
> <PUBCHEM_IUPAC_NAME>
[(2S,3R,7S,8S)-8-hydroxy-5,5,8-trimethyl-11-oxo-12-oxatetracyclo[8.3.1.01,10.03,7]tetradecan-2-yl] (2R,3S)-3-benzamido-2-hydroxy-3-phenylpropanoate
> <PUBCHEM_IUPAC_SYSTEMATIC_NAME>
[(2S,3R,7S,8S)-5,5,8-trimethyl-8-oxidanyl-11-oxidanylidene-12-oxatetracyclo[8.3.1.01,10.03,7]tetradecan-2-yl] (2R,3S)-3-benzamido-2-oxidanyl-3-phenyl-propanoate
> <PUBCHEM_IUPAC_TRADITIONAL_NAME>
(2R,3S)-3-benzamido-2-hydroxy-3-phenyl-propionic acid [(2S,3R,7S,8S)-8-hydroxy-11-keto-5,5,8-trimethyl-12-oxatetracyclo[8.3.1.01,10.03,7]tetradecan-2-yl] ester
> <PUBCHEM_IUPAC_INCHI>
InChI=1S/C32H37NO7/c1-29(2)14-21-22(15-29)30(3,38)16-31-17-32(31,18-39-28(31)37)25(21)40-27(36)24(34)23(19-10-6-4-7-11-19)33-26(35)20-12-8-5-9-13-20/h4-13,21-25,34,38H,14-18H2,1-3H3,(H,33,35)/t21-,22+,23+,24-,25+,30+,31?,32?/m1/s1
> <PUBCHEM_IUPAC_INCHIKEY>
QJBGUULOUJLDPF-IWYIYNFBSA-N
> <PUBCHEM_XLOGP3_AA>
3.7
> <PUBCHEM_EXACT_MASS>
547.25700252
> <PUBCHEM_MOLECULAR_FORMULA>
C32H37NO7
> <PUBCHEM_MOLECULAR_WEIGHT>
547.6
> <PUBCHEM_OPENEYE_CAN_SMILES>
CC1(CC2C(C1)C(CC34CC3(C2OC(=O)C(C(C5=CC=CC=C5)NC(=O)C6=CC=CC=C6)O)COC4=O)(C)O)C
> <PUBCHEM_OPENEYE_ISO_SMILES>
C[C@@]1(CC23CC2(COC3=O)[C@H]([C@H]4[C@@H]1CC(C4)(C)C)OC(=O)[C@@H]([C@H](C5=CC=CC=C5)NC(=O)C6=CC=CC=C6)O)O
> <PUBCHEM_CACTVS_TPSA>
122
> <PUBCHEM_MONOISOTOPIC_WEIGHT>
547.25700252
> <PUBCHEM_TOTAL_CHARGE>
0
> <PUBCHEM_HEAVY_ATOM_COUNT>
40
> <PUBCHEM_ATOM_DEF_STEREO_COUNT>
6
> <PUBCHEM_ATOM_UDEF_STEREO_COUNT>
2
> <PUBCHEM_BOND_DEF_STEREO_COUNT>
0
> <PUBCHEM_BOND_UDEF_STEREO_COUNT>
0
> <PUBCHEM_ISOTOPIC_ATOM_COUNT>
0
> <PUBCHEM_COMPONENT_COUNT>
1
> <PUBCHEM_CACTVS_TAUTO_COUNT>
-1
> <PUBCHEM_COORDINATE_TYPE>
1
5
255
> <PUBCHEM_BONDANNOTATIONS>
10  14  3
13  44  6
15  47  6
12  2  6
28  29  8
28  30  8
29  32  8
16  3  6
30  33  8
32  35  8
33  35  8
34  36  8
34  37  8
36  38  8
37  39  8
38  40  8
39  40  8
26  6  5
27  8  5
9  11  3
$$$$
