510130
  -OEChem-10302200282D
 38 39  0     1  0  0  0  0  0999 V2000
    7.9280   -3.1217    0.0000 P   0  0  0  0  0  0  0  0  0  0  0  0
    6.0669   -0.6571    0.0000 O   0  0  0  0  0  0  0  0  0  0  0  0
    7.3402   -2.3126    0.0000 O   0  0  0  0  0  0  0  0  0  0  0  0
    6.9899    0.9307    0.0000 O   0  0  0  0  0  0  0  0  0  0  0  0
    5.2579    3.9307    0.0000 O   0  0  0  0  0  0  0  0  0  0  0  0
    8.5158   -3.9307    0.0000 O   0  5  0  0  0  0  0  0  0  0  0  0
    8.7370   -2.5339    0.0000 O   0  5  0  0  0  0  0  0  0  0  0  0
    7.1190   -3.7094    0.0000 O   0  0  0  0  0  0  0  0  0  0  0  0
    5.2579    0.9307    0.0000 N   0  0  0  0  0  0  0  0  0  0  0  0
    3.1756   -2.3126    0.0000 N   0  0  0  0  0  0  0  0  0  0  0  0
    6.1239    2.4307    0.0000 N   0  0  0  0  0  0  0  0  0  0  0  0
    2.5878   -3.1217    0.0000 N   0  3  0  0  0  0  0  0  0  0  0  0
    2.0000   -3.9307    0.0000 N   0  5  0  0  0  0  0  0  0  0  0  0
    4.7579   -1.6082    0.0000 C   0  0  2  0  0  0  0  0  0  0  0  0
    5.7579   -1.6082    0.0000 C   0  0  1  0  0  0  0  0  0  0  0  0
    4.4489   -0.6571    0.0000 C   0  0  0  0  0  0  0  0  0  0  0  0
    5.2579   -0.0693    0.0000 C   0  0  1  0  0  0  0  0  0  0  0  0
    4.1701   -2.4172    0.0000 C   0  0  0  0  0  0  0  0  0  0  0  0
    6.3457   -2.4172    0.0000 C   0  0  0  0  0  0  0  0  0  0  0  0
    4.3918    1.4307    0.0000 C   0  0  0  0  0  0  0  0  0  0  0  0
    6.1239    1.4307    0.0000 C   0  0  0  0  0  0  0  0  0  0  0  0
    4.3918    2.4307    0.0000 C   0  0  0  0  0  0  0  0  0  0  0  0
    5.2579    2.9307    0.0000 C   0  0  0  0  0  0  0  0  0  0  0  0
    3.5258    2.9307    0.0000 C   0  0  0  0  0  0  0  0  0  0  0  0
    5.0394   -2.1606    0.0000 H   0  0  0  0  0  0  0  0  0  0  0  0
    6.3702   -1.5112    0.0000 H   0  0  0  0  0  0  0  0  0  0  0  0
    4.1389   -0.1202    0.0000 H   0  0  0  0  0  0  0  0  0  0  0  0
    3.8825   -0.9093    0.0000 H   0  0  0  0  0  0  0  0  0  0  0  0
    5.8103    0.2122    0.0000 H   0  0  0  0  0  0  0  0  0  0  0  0
    3.9992   -3.0132    0.0000 H   0  0  0  0  0  0  0  0  0  0  0  0
    4.7273   -2.6890    0.0000 H   0  0  0  0  0  0  0  0  0  0  0  0
    5.7884   -2.6890    0.0000 H   0  0  0  0  0  0  0  0  0  0  0  0
    6.5166   -3.0132    0.0000 H   0  0  0  0  0  0  0  0  0  0  0  0
    3.8549    1.1207    0.0000 H   0  0  0  0  0  0  0  0  0  0  0  0
    6.6608    2.7407    0.0000 H   0  0  0  0  0  0  0  0  0  0  0  0
    3.8358    3.4676    0.0000 H   0  0  0  0  0  0  0  0  0  0  0  0
    2.9889    3.2407    0.0000 H   0  0  0  0  0  0  0  0  0  0  0  0
    3.2158    2.3938    0.0000 H   0  0  0  0  0  0  0  0  0  0  0  0
  1  3  1  0  0  0  0
  1  6  1  0  0  0  0
  1  7  1  0  0  0  0
  1  8  2  0  0  0  0
  2 15  1  0  0  0  0
  2 17  1  0  0  0  0
  3 19  1  0  0  0  0
  4 21  2  0  0  0  0
  5 23  2  0  0  0  0
 17  9  1  6  0  0  0
  9 20  1  0  0  0  0
  9 21  1  0  0  0  0
 10 12  2  0  0  0  0
 10 18  1  0  0  0  0
 11 21  1  0  0  0  0
 11 23  1  0  0  0  0
 11 35  1  0  0  0  0
 12 13  2  0  0  0  0
 14 15  1  0  0  0  0
 14 16  1  0  0  0  0
 14 18  1  1  0  0  0
 14 25  1  0  0  0  0
 15 19  1  6  0  0  0
 15 26  1  0  0  0  0
 16 17  1  0  0  0  0
 16 27  1  0  0  0  0
 16 28  1  0  0  0  0
 17 29  1  0  0  0  0
 18 30  1  0  0  0  0
 18 31  1  0  0  0  0
 19 32  1  0  0  0  0
 19 33  1  0  0  0  0
 20 22  2  0  0  0  0
 20 34  1  0  0  0  0
 22 23  1  0  0  0  0
 22 24  1  0  0  0  0
 24 36  1  0  0  0  0
 24 37  1  0  0  0  0
 24 38  1  0  0  0  0
M  CHG  4   6  -1   7  -1  12   1  13  -1
M  END
> <PUBCHEM_COMPOUND_CID>
510130
> <PUBCHEM_COMPOUND_CANONICALIZED>
1
> <PUBCHEM_CACTVS_COMPLEXITY>
644
> <PUBCHEM_CACTVS_HBOND_ACCEPTOR>
9
> <PUBCHEM_CACTVS_HBOND_DONOR>
1
> <PUBCHEM_CACTVS_ROTATABLE_BOND>
5
> <PUBCHEM_CACTVS_SUBSKEYS>
AAADccBzuAIAAAAAAAAAAAAAAAAAASAAAAAgAAAAAAAAAAAAAAAAHgAYACAADRThgAYDAAPABRCKQgFWUICAAAAAAAAAAAEIAECBAAIAgQAOAAAOByICAMCwMAIKAAAAAAAAAAAAAAAAAAAAAAAAAAAAAA==
> <PUBCHEM_IUPAC_OPENEYE_NAME>
[(2S,3R,5R)-3-(azidomethyl)-5-(5-methyl-2,4-dioxo-pyrimidin-1-yl)tetrahydrofuran-2-yl]methyl phosphate
> <PUBCHEM_IUPAC_CAS_NAME>
[(2S,3R,5R)-3-(azidomethyl)-5-(5-methyl-2,4-dioxo-1-pyrimidinyl)-2-oxolanyl]methyl phosphate
> <PUBCHEM_IUPAC_NAME_MARKUP>
[(2<I>S</I>,3<I>R</I>,5<I>R</I>)-3-(azidomethyl)-5-(5-methyl-2,4-dioxopyrimidin-1-yl)oxolan-2-yl]methyl phosphate
> <PUBCHEM_IUPAC_NAME>
[(2S,3R,5R)-3-(azidomethyl)-5-(5-methyl-2,4-dioxopyrimidin-1-yl)oxolan-2-yl]methyl phosphate
> <PUBCHEM_IUPAC_SYSTEMATIC_NAME>
[(2S,3R,5R)-3-(azidomethyl)-5-[5-methyl-2,4-bis(oxidanylidene)pyrimidin-1-yl]oxolan-2-yl]methyl phosphate
> <PUBCHEM_IUPAC_TRADITIONAL_NAME>
[(2S,3R,5R)-3-(azidomethyl)-5-(2,4-diketo-5-methyl-pyrimidin-1-yl)tetrahydrofuran-2-yl]methyl phosphate
> <PUBCHEM_IUPAC_INCHI>
InChI=1S/C11H16N5O7P/c1-6-4-16(11(18)14-10(6)17)9-2-7(3-13-15-12)8(23-9)5-22-24(19,20)21/h4,7-9H,2-3,5H2,1H3,(H,14,17,18)(H2,19,20,21)/p-2/t7-,8-,9-/m1/s1
> <PUBCHEM_IUPAC_INCHIKEY>
RBJFKTLXEOJJBT-IWSPIJDZSA-L
> <PUBCHEM_XLOGP3_AA>
-1
> <PUBCHEM_EXACT_MASS>
359.06308480
> <PUBCHEM_MOLECULAR_FORMULA>
C11H14N5O7P-2
> <PUBCHEM_MOLECULAR_WEIGHT>
359.23
> <PUBCHEM_OPENEYE_CAN_SMILES>
CC1=CN(C(=O)NC1=O)C2CC(C(O2)COP(=O)([O-])[O-])CN=[N+]=[N-]
> <PUBCHEM_OPENEYE_ISO_SMILES>
CC1=CN(C(=O)NC1=O)[C@H]2C[C@@H]([C@H](O2)COP(=O)([O-])[O-])CN=[N+]=[N-]
> <PUBCHEM_CACTVS_TPSA>
145
> <PUBCHEM_MONOISOTOPIC_WEIGHT>
359.06308480
> <PUBCHEM_TOTAL_CHARGE>
-2
> <PUBCHEM_HEAVY_ATOM_COUNT>
24
> <PUBCHEM_ATOM_DEF_STEREO_COUNT>
3
> <PUBCHEM_ATOM_UDEF_STEREO_COUNT>
0
> <PUBCHEM_BOND_DEF_STEREO_COUNT>
0
> <PUBCHEM_BOND_UDEF_STEREO_COUNT>
0
> <PUBCHEM_ISOTOPIC_ATOM_COUNT>
0
> <PUBCHEM_COMPONENT_COUNT>
1
> <PUBCHEM_CACTVS_TAUTO_COUNT>
-1
> <PUBCHEM_COORDINATE_TYPE>
1
5
255
> <PUBCHEM_BONDANNOTATIONS>
11  21  8
11  23  8
14  18  5
15  19  6
20  22  8
22  23  8
17  9  6
9  20  8
9  21  8
$$$$
