510181
  -OEChem-10302200282D
 73 75  0     1  0  0  0  0  0999 V2000
    8.1667    5.6627    0.0000 S   0  0  0  0  0  0  0  0  0  0  0  0
    4.5981   -1.3318    0.0000 O   0  0  0  0  0  0  0  0  0  0  0  0
    8.0622   -0.3318    0.0000 O   0  0  0  0  0  0  0  0  0  0  0  0
    3.7320   -1.8318    0.0000 O   0  0  0  0  0  0  0  0  0  0  0  0
    2.0000   -2.8318    0.0000 O   0  0  0  0  0  0  0  0  0  0  0  0
    6.3301   -1.3318    0.0000 N   0  0  0  0  0  0  0  0  0  0  0  0
    7.1962    1.1682    0.0000 N   0  0  0  0  0  0  0  0  0  0  0  0
    7.1962    3.1682    0.0000 N   0  0  0  0  0  0  0  0  0  0  0  0
    3.7320   -2.8318    0.0000 N   0  0  0  0  0  0  0  0  0  0  0  0
    8.9757    4.2615    0.0000 N   0  0  0  0  0  0  0  0  0  0  0  0
    6.3301   -4.3318    0.0000 C   0  0  0  0  0  0  0  0  0  0  0  0
    5.5211   -4.9196    0.0000 C   0  0  0  0  0  0  0  0  0  0  0  0
    7.1391   -4.9196    0.0000 C   0  0  0  0  0  0  0  0  0  0  0  0
    6.3301   -3.3318    0.0000 C   0  0  0  0  0  0  0  0  0  0  0  0
    5.8301   -5.8706    0.0000 C   0  0  0  0  0  0  0  0  0  0  0  0
    6.8301   -5.8706    0.0000 C   0  0  0  0  0  0  0  0  0  0  0  0
    5.4641   -2.8318    0.0000 C   0  0  3  0  0  0  0  0  0  0  0  0
    6.3301   -0.3318    0.0000 C   0  0  1  0  0  0  0  0  0  0  0  0
    5.4641    0.1682    0.0000 C   0  0  0  0  0  0  0  0  0  0  0  0
    5.4641   -1.8318    0.0000 C   0  0  0  0  0  0  0  0  0  0  0  0
    4.5981   -3.3318    0.0000 C   0  0  0  0  0  0  0  0  0  0  0  0
    7.1962    0.1682    0.0000 C   0  0  0  0  0  0  0  0  0  0  0  0
    8.0622    1.6682    0.0000 C   0  0  0  0  0  0  0  0  0  0  0  0
    6.3301    1.6682    0.0000 C   0  0  0  0  0  0  0  0  0  0  0  0
    4.5981    0.6682    0.0000 C   0  0  0  0  0  0  0  0  0  0  0  0
    4.9641   -0.6978    0.0000 C   0  0  0  0  0  0  0  0  0  0  0  0
    5.9641    1.0342    0.0000 C   0  0  0  0  0  0  0  0  0  0  0  0
    8.0622    2.6682    0.0000 C   0  0  0  0  0  0  0  0  0  0  0  0
    6.3301    2.6682    0.0000 C   0  0  0  0  0  0  0  0  0  0  0  0
    7.1962    4.1682    0.0000 C   0  0  0  0  0  0  0  0  0  0  0  0
    2.8660   -3.3318    0.0000 C   0  0  0  0  0  0  0  0  0  0  0  0
    8.0622    4.6682    0.0000 C   0  0  0  0  0  0  0  0  0  0  0  0
    9.1448    5.8706    0.0000 C   0  0  0  0  0  0  0  0  0  0  0  0
    9.6448    5.0046    0.0000 C   0  0  0  0  0  0  0  0  0  0  0  0
    6.8826   -4.0503    0.0000 H   0  0  0  0  0  0  0  0  0  0  0  0
    5.2111   -4.3826    0.0000 H   0  0  0  0  0  0  0  0  0  0  0  0
    4.9547   -5.1718    0.0000 H   0  0  0  0  0  0  0  0  0  0  0  0
    7.7055   -5.1718    0.0000 H   0  0  0  0  0  0  0  0  0  0  0  0
    7.4491   -4.3826    0.0000 H   0  0  0  0  0  0  0  0  0  0  0  0
    6.9407   -3.4395    0.0000 H   0  0  0  0  0  0  0  0  0  0  0  0
    6.5422   -2.7492    0.0000 H   0  0  0  0  0  0  0  0  0  0  0  0
    5.2237   -5.9995    0.0000 H   0  0  0  0  0  0  0  0  0  0  0  0
    5.8949   -6.4872    0.0000 H   0  0  0  0  0  0  0  0  0  0  0  0
    6.7653   -6.4872    0.0000 H   0  0  0  0  0  0  0  0  0  0  0  0
    7.4366   -5.9995    0.0000 H   0  0  0  0  0  0  0  0  0  0  0  0
    5.4641   -3.4518    0.0000 H   0  0  0  0  0  0  0  0  0  0  0  0
    6.8671   -0.6418    0.0000 H   0  0  0  0  0  0  0  0  0  0  0  0
    4.1996   -3.8067    0.0000 H   0  0  0  0  0  0  0  0  0  0  0  0
    4.9966   -3.8067    0.0000 H   0  0  0  0  0  0  0  0  0  0  0  0
    6.8671   -1.6418    0.0000 H   0  0  0  0  0  0  0  0  0  0  0  0
    8.2742    1.0856    0.0000 H   0  0  0  0  0  0  0  0  0  0  0  0
    8.6728    1.7759    0.0000 H   0  0  0  0  0  0  0  0  0  0  0  0
    5.7196    1.7759    0.0000 H   0  0  0  0  0  0  0  0  0  0  0  0
    6.1181    1.0856    0.0000 H   0  0  0  0  0  0  0  0  0  0  0  0
    4.9081    1.2051    0.0000 H   0  0  0  0  0  0  0  0  0  0  0  0
    4.0611    0.9782    0.0000 H   0  0  0  0  0  0  0  0  0  0  0  0
    4.2881    0.1313    0.0000 H   0  0  0  0  0  0  0  0  0  0  0  0
    4.4272   -0.3878    0.0000 H   0  0  0  0  0  0  0  0  0  0  0  0
    4.6541   -1.2348    0.0000 H   0  0  0  0  0  0  0  0  0  0  0  0
    5.5010   -1.0078    0.0000 H   0  0  0  0  0  0  0  0  0  0  0  0
    6.5010    0.7242    0.0000 H   0  0  0  0  0  0  0  0  0  0  0  0
    6.2741    1.5712    0.0000 H   0  0  0  0  0  0  0  0  0  0  0  0
    5.4272    1.3442    0.0000 H   0  0  0  0  0  0  0  0  0  0  0  0
    8.6728    2.5605    0.0000 H   0  0  0  0  0  0  0  0  0  0  0  0
    8.2742    3.2508    0.0000 H   0  0  0  0  0  0  0  0  0  0  0  0
    6.1181    3.2508    0.0000 H   0  0  0  0  0  0  0  0  0  0  0  0
    5.7196    2.5605    0.0000 H   0  0  0  0  0  0  0  0  0  0  0  0
    6.9841    4.7508    0.0000 H   0  0  0  0  0  0  0  0  0  0  0  0
    6.5856    4.0605    0.0000 H   0  0  0  0  0  0  0  0  0  0  0  0
    2.8660   -3.9518    0.0000 H   0  0  0  0  0  0  0  0  0  0  0  0
    3.1951   -1.5218    0.0000 H   0  0  0  0  0  0  0  0  0  0  0  0
    9.3970    6.4370    0.0000 H   0  0  0  0  0  0  0  0  0  0  0  0
   10.2615    4.9398    0.0000 H   0  0  0  0  0  0  0  0  0  0  0  0
  1 32  1  0  0  0  0
  1 33  1  0  0  0  0
  2 20  2  0  0  0  0
  3 22  2  0  0  0  0
  4  9  1  0  0  0  0
  4 71  1  0  0  0  0
  5 31  2  0  0  0  0
 18  6  1  1  0  0  0
  6 20  1  0  0  0  0
  6 50  1  0  0  0  0
  7 22  1  0  0  0  0
  7 23  1  0  0  0  0
  7 24  1  0  0  0  0
  8 28  1  0  0  0  0
  8 29  1  0  0  0  0
  8 30  1  0  0  0  0
  9 21  1  0  0  0  0
  9 31  1  0  0  0  0
 10 32  2  0  0  0  0
 10 34  1  0  0  0  0
 11 12  1  0  0  0  0
 11 13  1  0  0  0  0
 11 14  1  0  0  0  0
 11 35  1  0  0  0  0
 12 15  1  0  0  0  0
 12 36  1  0  0  0  0
 12 37  1  0  0  0  0
 13 16  1  0  0  0  0
 13 38  1  0  0  0  0
 13 39  1  0  0  0  0
 14 17  1  0  0  0  0
 14 40  1  0  0  0  0
 14 41  1  0  0  0  0
 15 16  1  0  0  0  0
 15 42  1  0  0  0  0
 15 43  1  0  0  0  0
 16 44  1  0  0  0  0
 16 45  1  0  0  0  0
 17 20  1  0  0  0  0
 17 21  1  0  0  0  0
 17 46  1  0  0  0  0
 18 19  1  0  0  0  0
 18 22  1  0  0  0  0
 18 47  1  0  0  0  0
 19 25  1  0  0  0  0
 19 26  1  0  0  0  0
 19 27  1  0  0  0  0
 21 48  1  0  0  0  0
 21 49  1  0  0  0  0
 23 28  1  0  0  0  0
 23 51  1  0  0  0  0
 23 52  1  0  0  0  0
 24 29  1  0  0  0  0
 24 53  1  0  0  0  0
 24 54  1  0  0  0  0
 25 55  1  0  0  0  0
 25 56  1  0  0  0  0
 25 57  1  0  0  0  0
 26 58  1  0  0  0  0
 26 59  1  0  0  0  0
 26 60  1  0  0  0  0
 27 61  1  0  0  0  0
 27 62  1  0  0  0  0
 27 63  1  0  0  0  0
 28 64  1  0  0  0  0
 28 65  1  0  0  0  0
 29 66  1  0  0  0  0
 29 67  1  0  0  0  0
 30 32  1  0  0  0  0
 30 68  1  0  0  0  0
 30 69  1  0  0  0  0
 31 70  1  0  0  0  0
 33 34  2  0  0  0  0
 33 72  1  0  0  0  0
 34 73  1  0  0  0  0
M  END
> <PUBCHEM_COMPOUND_CID>
510181
> <PUBCHEM_COMPOUND_CANONICALIZED>
1
> <PUBCHEM_CACTVS_COMPLEXITY>
689
> <PUBCHEM_CACTVS_HBOND_ACCEPTOR>
7
> <PUBCHEM_CACTVS_HBOND_DONOR>
2
> <PUBCHEM_CACTVS_ROTATABLE_BOND>
10
> <PUBCHEM_CACTVS_SUBSKEYS>
AAADcfB7uABAAAAAAAAAAAAAAAAAAeIAAAAsAAAAAAAAAAABgAAAHgQUCAAADyjFwgaugRPYEAisABE31AAA8KBRCjhoQI2YIAAAQBoAwCAUAAAAFgCgAAEYiMCPAAAAAAAAAAAAAAAAAAAAAAAAAAAAAA==
> <PUBCHEM_IUPAC_OPENEYE_NAME>
2-(cyclopentylmethyl)-N-[(1S)-2,2-dimethyl-1-[4-(thiazol-2-ylmethyl)piperazine-1-carbonyl]propyl]-3-[formyl(hydroxy)amino]propanamide
> <PUBCHEM_IUPAC_CAS_NAME>
2-(cyclopentylmethyl)-N-[(2S)-3,3-dimethyl-1-oxo-1-[4-(2-thiazolylmethyl)-1-piperazinyl]butan-2-yl]-3-[formyl(hydroxy)amino]propanamide
> <PUBCHEM_IUPAC_NAME_MARKUP>
2-(cyclopentylmethyl)-<I>N</I>-[(2<I>S</I>)-3,3-dimethyl-1-oxo-1-[4-(1,3-thiazol-2-ylmethyl)piperazin-1-yl]butan-2-yl]-3-[formyl(hydroxy)amino]propanamide
> <PUBCHEM_IUPAC_NAME>
2-(cyclopentylmethyl)-N-[(2S)-3,3-dimethyl-1-oxo-1-[4-(1,3-thiazol-2-ylmethyl)piperazin-1-yl]butan-2-yl]-3-[formyl(hydroxy)amino]propanamide
> <PUBCHEM_IUPAC_SYSTEMATIC_NAME>
2-(cyclopentylmethyl)-N-[(2S)-3,3-dimethyl-1-oxidanylidene-1-[4-(1,3-thiazol-2-ylmethyl)piperazin-1-yl]butan-2-yl]-3-[methanoyl(oxidanyl)amino]propanamide
> <PUBCHEM_IUPAC_TRADITIONAL_NAME>
2-(cyclopentylmethyl)-N-[(1S)-2,2-dimethyl-1-[4-(thiazol-2-ylmethyl)piperazine-1-carbonyl]propyl]-3-[formyl(hydroxy)amino]propionamide
> <PUBCHEM_IUPAC_INCHI>
InChI=1S/C24H39N5O4S/c1-24(2,3)21(23(32)28-11-9-27(10-12-28)16-20-25-8-13-34-20)26-22(31)19(15-29(33)17-30)14-18-6-4-5-7-18/h8,13,17-19,21,33H,4-7,9-12,14-16H2,1-3H3,(H,26,31)/t19?,21-/m1/s1
> <PUBCHEM_IUPAC_INCHIKEY>
BHDLTTMCLJUXJB-VGAJERRHSA-N
> <PUBCHEM_XLOGP3_AA>
2.7
> <PUBCHEM_EXACT_MASS>
493.27227592
> <PUBCHEM_MOLECULAR_FORMULA>
C24H39N5O4S
> <PUBCHEM_MOLECULAR_WEIGHT>
493.7
> <PUBCHEM_OPENEYE_CAN_SMILES>
CC(C)(C)C(C(=O)N1CCN(CC1)CC2=NC=CS2)NC(=O)C(CC3CCCC3)CN(C=O)O
> <PUBCHEM_OPENEYE_ISO_SMILES>
CC(C)(C)[C@@H](C(=O)N1CCN(CC1)CC2=NC=CS2)NC(=O)C(CC3CCCC3)CN(C=O)O
> <PUBCHEM_CACTVS_TPSA>
134
> <PUBCHEM_MONOISOTOPIC_WEIGHT>
493.27227592
> <PUBCHEM_TOTAL_CHARGE>
0
> <PUBCHEM_HEAVY_ATOM_COUNT>
34
> <PUBCHEM_ATOM_DEF_STEREO_COUNT>
1
> <PUBCHEM_ATOM_UDEF_STEREO_COUNT>
1
> <PUBCHEM_BOND_DEF_STEREO_COUNT>
0
> <PUBCHEM_BOND_UDEF_STEREO_COUNT>
0
> <PUBCHEM_ISOTOPIC_ATOM_COUNT>
0
> <PUBCHEM_COMPONENT_COUNT>
1
> <PUBCHEM_CACTVS_TAUTO_COUNT>
-1
> <PUBCHEM_COORDINATE_TYPE>
1
5
255
> <PUBCHEM_BONDANNOTATIONS>
1  32  8
1  33  8
10  32  8
10  34  8
17  14  3
33  34  8
18  6  5
$$$$
