510116
  -OEChem-10302200282D
 34 35  0     1  0  0  0  0  0999 V2000
    4.7600    4.8224    0.0000 Cl  0  0  0  0  0  0  0  0  0  0  0  0
    4.2208   -5.1797    0.0000 Cl  0  0  0  0  0  0  0  0  0  0  0  0
    3.1330    1.1682    0.0000 S   0  0  0  0  0  0  0  0  0  0  0  0
    2.7709    4.6133    0.0000 O   0  0  0  0  0  0  0  0  0  0  0  0
    3.4118   -0.5919    0.0000 N   0  0  0  0  0  0  0  0  0  0  0  0
    4.7208    0.3592    0.0000 N   0  0  0  0  0  0  0  0  0  0  0  0
    5.0298   -0.5919    0.0000 N   0  0  0  0  0  0  0  0  0  0  0  0
    2.4608   -0.9009    0.0000 N   0  0  0  0  0  0  0  0  0  0  0  0
    2.9520    2.8907    0.0000 C   0  0  0  0  0  0  0  0  0  0  0  0
    3.3587    3.8043    0.0000 C   0  0  3  0  0  0  0  0  0  0  0  0
    3.5398    2.0817    0.0000 C   0  0  0  0  0  0  0  0  0  0  0  0
    4.3532    3.9088    0.0000 C   0  0  0  0  0  0  0  0  0  0  0  0
    3.7208    0.3592    0.0000 C   0  0  0  0  0  0  0  0  0  0  0  0
    4.2208   -1.1797    0.0000 C   0  0  0  0  0  0  0  0  0  0  0  0
    4.2208   -2.1797    0.0000 C   0  0  0  0  0  0  0  0  0  0  0  0
    5.0868   -2.6797    0.0000 C   0  0  0  0  0  0  0  0  0  0  0  0
    3.3548   -2.6797    0.0000 C   0  0  0  0  0  0  0  0  0  0  0  0
    5.0868   -3.6797    0.0000 C   0  0  0  0  0  0  0  0  0  0  0  0
    3.3548   -3.6797    0.0000 C   0  0  0  0  0  0  0  0  0  0  0  0
    4.2208   -4.1797    0.0000 C   0  0  0  0  0  0  0  0  0  0  0  0
    2.4380    3.2374    0.0000 H   0  0  0  0  0  0  0  0  0  0  0  0
    2.5213    2.4447    0.0000 H   0  0  0  0  0  0  0  0  0  0  0  0
    3.6109    4.3707    0.0000 H   0  0  0  0  0  0  0  0  0  0  0  0
    4.0538    1.7350    0.0000 H   0  0  0  0  0  0  0  0  0  0  0  0
    3.9705    2.5277    0.0000 H   0  0  0  0  0  0  0  0  0  0  0  0
    4.3100    3.2903    0.0000 H   0  0  0  0  0  0  0  0  0  0  0  0
    4.9548    3.7588    0.0000 H   0  0  0  0  0  0  0  0  0  0  0  0
    3.0231    5.1797    0.0000 H   0  0  0  0  0  0  0  0  0  0  0  0
    5.6238   -2.3697    0.0000 H   0  0  0  0  0  0  0  0  0  0  0  0
    2.8179   -2.3697    0.0000 H   0  0  0  0  0  0  0  0  0  0  0  0
    2.0000   -0.4861    0.0000 H   0  0  0  0  0  0  0  0  0  0  0  0
    2.3318   -1.5074    0.0000 H   0  0  0  0  0  0  0  0  0  0  0  0
    5.6238   -3.9897    0.0000 H   0  0  0  0  0  0  0  0  0  0  0  0
    2.8179   -3.9897    0.0000 H   0  0  0  0  0  0  0  0  0  0  0  0
  1 12  1  0  0  0  0
  2 20  1  0  0  0  0
  3 11  1  0  0  0  0
  3 13  1  0  0  0  0
  4 10  1  0  0  0  0
  4 28  1  0  0  0  0
  5  8  1  0  0  0  0
  5 13  1  0  0  0  0
  5 14  1  0  0  0  0
  6  7  1  0  0  0  0
  6 13  2  0  0  0  0
  7 14  2  0  0  0  0
  8 31  1  0  0  0  0
  8 32  1  0  0  0  0
  9 10  1  0  0  0  0
  9 11  1  0  0  0  0
  9 21  1  0  0  0  0
  9 22  1  0  0  0  0
 10 12  1  0  0  0  0
 10 23  1  0  0  0  0
 11 24  1  0  0  0  0
 11 25  1  0  0  0  0
 12 26  1  0  0  0  0
 12 27  1  0  0  0  0
 14 15  1  0  0  0  0
 15 16  2  0  0  0  0
 15 17  1  0  0  0  0
 16 18  1  0  0  0  0
 16 29  1  0  0  0  0
 17 19  2  0  0  0  0
 17 30  1  0  0  0  0
 18 20  2  0  0  0  0
 18 33  1  0  0  0  0
 19 20  1  0  0  0  0
 19 34  1  0  0  0  0
M  END
> <PUBCHEM_COMPOUND_CID>
510116
> <PUBCHEM_COMPOUND_CANONICALIZED>
1
> <PUBCHEM_CACTVS_COMPLEXITY>
295
> <PUBCHEM_CACTVS_HBOND_ACCEPTOR>
5
> <PUBCHEM_CACTVS_HBOND_DONOR>
2
> <PUBCHEM_CACTVS_ROTATABLE_BOND>
6
> <PUBCHEM_CACTVS_SUBSKEYS>
AAADccBzoABGAAAAAAAAAAAAAAAAAWAAAAAwAAAAAAAAAAABwAAAHgYYCAAADBel22KxEIYKEgiiAiJiJACS0AtgBbAdqCAgB5iIOKKhmxGEYAhgiAIIiAcQgAAOBAAAAAAAAAAIAAAAAAAAAAAAAAAAAA==
> <PUBCHEM_IUPAC_OPENEYE_NAME>
4-[[4-amino-5-(4-chlorophenyl)-1,2,4-triazol-3-yl]sulfanyl]-1-chloro-butan-2-ol
> <PUBCHEM_IUPAC_CAS_NAME>
4-[[4-amino-5-(4-chlorophenyl)-1,2,4-triazol-3-yl]thio]-1-chloro-2-butanol
> <PUBCHEM_IUPAC_NAME_MARKUP>
4-[[4-amino-5-(4-chlorophenyl)-1,2,4-triazol-3-yl]sulfanyl]-1-chlorobutan-2-ol
> <PUBCHEM_IUPAC_NAME>
4-[[4-amino-5-(4-chlorophenyl)-1,2,4-triazol-3-yl]sulfanyl]-1-chlorobutan-2-ol
> <PUBCHEM_IUPAC_SYSTEMATIC_NAME>
4-[[4-azanyl-5-(4-chlorophenyl)-1,2,4-triazol-3-yl]sulfanyl]-1-chloranyl-butan-2-ol
> <PUBCHEM_IUPAC_TRADITIONAL_NAME>
4-[[4-amino-5-(4-chlorophenyl)-1,2,4-triazol-3-yl]thio]-1-chloro-butan-2-ol
> <PUBCHEM_IUPAC_INCHI>
InChI=1S/C12H14Cl2N4OS/c13-7-10(19)5-6-20-12-17-16-11(18(12)15)8-1-3-9(14)4-2-8/h1-4,10,19H,5-7,15H2
> <PUBCHEM_IUPAC_INCHIKEY>
NSBHFDKMXVHLJU-UHFFFAOYSA-N
> <PUBCHEM_XLOGP3_AA>
2.6
> <PUBCHEM_EXACT_MASS>
332.0265376
> <PUBCHEM_MOLECULAR_FORMULA>
C12H14Cl2N4OS
> <PUBCHEM_MOLECULAR_WEIGHT>
333.2
> <PUBCHEM_OPENEYE_CAN_SMILES>
C1=CC(=CC=C1C2=NN=C(N2N)SCCC(CCl)O)Cl
> <PUBCHEM_OPENEYE_ISO_SMILES>
C1=CC(=CC=C1C2=NN=C(N2N)SCCC(CCl)O)Cl
> <PUBCHEM_CACTVS_TPSA>
102
> <PUBCHEM_MONOISOTOPIC_WEIGHT>
332.0265376
> <PUBCHEM_TOTAL_CHARGE>
0
> <PUBCHEM_HEAVY_ATOM_COUNT>
20
> <PUBCHEM_ATOM_DEF_STEREO_COUNT>
0
> <PUBCHEM_ATOM_UDEF_STEREO_COUNT>
1
> <PUBCHEM_BOND_DEF_STEREO_COUNT>
0
> <PUBCHEM_BOND_UDEF_STEREO_COUNT>
0
> <PUBCHEM_ISOTOPIC_ATOM_COUNT>
0
> <PUBCHEM_COMPONENT_COUNT>
1
> <PUBCHEM_CACTVS_TAUTO_COUNT>
-1
> <PUBCHEM_COORDINATE_TYPE>
1
5
255
> <PUBCHEM_BONDANNOTATIONS>
15  16  8
15  17  8
16  18  8
17  19  8
18  20  8
19  20  8
10  4  3
5  13  8
5  14  8
6  13  8
6  7  8
7  14  8
$$$$
