510164
  -OEChem-10302200282D
117119  0     1  0  0  0  0  0999 V2000
    6.4781    2.8773    0.0000 O   0  0  0  0  0  0  0  0  0  0  0  0
    7.9915    1.4379    0.0000 O   0  0  0  0  0  0  0  0  0  0  0  0
    6.2314    1.7167    0.0000 O   0  0  0  0  0  0  0  0  0  0  0  0
    8.2036    4.8458    0.0000 O   0  0  0  0  0  0  0  0  0  0  0  0
    6.4393    5.4646    0.0000 O   0  0  0  0  0  0  0  0  0  0  0  0
    7.3192   -0.6312    0.0000 O   0  0  0  0  0  0  0  0  0  0  0  0
    5.1436   -0.6312    0.0000 O   0  0  0  0  0  0  0  0  0  0  0  0
    9.2592    4.1122    0.0000 O   0  0  0  0  0  0  0  0  0  0  0  0
   10.6072   -0.2677    0.0000 O   0  0  0  0  0  0  0  0  0  0  0  0
    5.1646    5.5704    0.0000 O   0  0  0  0  0  0  0  0  0  0  0  0
    2.0000    4.1614    0.0000 O   0  0  0  0  0  0  0  0  0  0  0  0
   12.0760   -1.1855    0.0000 O   0  0  0  0  0  0  0  0  0  0  0  0
    9.6682    1.4982    0.0000 N   0  0  3  0  0  0  0  0  0  0  0  0
    4.9836    3.8478    0.0000 N   0  0  0  0  0  0  0  0  0  0  0  0
   10.7281    3.1943    0.0000 N   0  0  0  0  0  0  0  0  0  0  0  0
    3.5823    4.8659    0.0000 N   0  0  0  0  0  0  0  0  0  0  0  0
    3.7282    0.7688    0.0000 N   0  0  0  0  0  0  0  0  0  0  0  0
   12.6664    1.3935    0.0000 N   0  0  0  0  0  0  0  0  0  0  0  0
   13.6054   -0.3724    0.0000 N   0  0  0  0  0  0  0  0  0  0  0  0
    7.4562    3.0852    0.0000 C   0  0  3  0  0  0  0  0  0  0  0  0
    8.1994    2.4161    0.0000 C   0  0  1  0  0  0  0  0  0  0  0  0
    7.5608    4.0797    0.0000 C   0  0  2  0  0  0  0  0  0  0  0  0
    6.6472    4.4864    0.0000 C   0  0  2  0  0  0  0  0  0  0  0  0
    5.9781    3.7433    0.0000 C   0  0  3  0  0  0  0  0  0  0  0  0
    9.1988    2.3812    0.0000 C   0  0  1  0  0  0  0  0  0  0  0  0
    7.0404    1.1289    0.0000 C   0  0  3  0  0  0  0  0  0  0  0  0
    6.7314    0.1778    0.0000 C   0  0  1  0  0  0  0  0  0  0  0  0
    5.7314    0.1778    0.0000 C   0  0  1  0  0  0  0  0  0  0  0  0
    5.4224    1.1289    0.0000 C   0  0  1  0  0  0  0  0  0  0  0  0
    9.7287    3.2292    0.0000 C   0  0  0  0  0  0  0  0  0  0  0  0
   10.6676    1.4633    0.0000 C   0  0  0  0  0  0  0  0  0  0  0  0
    4.4713    1.4379    0.0000 C   0  0  0  0  0  0  0  0  0  0  0  0
   11.1371    0.5804    0.0000 C   0  0  1  0  0  0  0  0  0  0  0  0
    9.1383    0.6502    0.0000 C   0  0  0  0  0  0  0  0  0  0  0  0
    4.5768    4.7614    0.0000 C   0  0  0  0  0  0  0  0  0  0  0  0
    4.3958    3.0388    0.0000 C   0  0  0  0  0  0  0  0  0  0  0  0
   12.1365    0.5455    0.0000 C   0  0  3  0  0  0  0  0  0  0  0  0
    3.4013    3.1434    0.0000 C   0  0  0  0  0  0  0  0  0  0  0  0
    2.9945    4.0569    0.0000 C   0  0  0  0  0  0  0  0  0  0  0  0
   11.1976    2.3114    0.0000 C   0  0  0  0  0  0  0  0  0  0  0  0
   12.6060   -0.3375    0.0000 C   0  0  0  0  0  0  0  0  0  0  0  0
   13.6658    1.3586    0.0000 C   0  0  0  0  0  0  0  0  0  0  0  0
   14.0748   -1.2553    0.0000 C   0  0  0  0  0  0  0  0  0  0  0  0
   15.0742   -1.2902    0.0000 C   0  0  0  0  0  0  0  0  0  0  0  0
   15.5437   -2.1732    0.0000 C   0  0  0  0  0  0  0  0  0  0  0  0
   16.5431   -2.2081    0.0000 C   0  0  0  0  0  0  0  0  0  0  0  0
   17.0126   -3.0910    0.0000 C   0  0  0  0  0  0  0  0  0  0  0  0
   18.0119   -3.1259    0.0000 C   0  0  0  0  0  0  0  0  0  0  0  0
   18.4814   -4.0089    0.0000 C   0  0  0  0  0  0  0  0  0  0  0  0
   19.4808   -4.0438    0.0000 C   0  0  0  0  0  0  0  0  0  0  0  0
   19.9503   -4.9267    0.0000 C   0  0  0  0  0  0  0  0  0  0  0  0
   20.9497   -4.9616    0.0000 C   0  0  0  0  0  0  0  0  0  0  0  0
   21.4191   -5.8446    0.0000 C   0  0  0  0  0  0  0  0  0  0  0  0
   22.4185   -5.8795    0.0000 C   0  0  0  0  0  0  0  0  0  0  0  0
    8.0351    3.3074    0.0000 H   0  0  0  0  0  0  0  0  0  0  0  0
    7.6097    2.2245    0.0000 H   0  0  0  0  0  0  0  0  0  0  0  0
    8.1315    3.8375    0.0000 H   0  0  0  0  0  0  0  0  0  0  0  0
    7.1290    4.8766    0.0000 H   0  0  0  0  0  0  0  0  0  0  0  0
    5.7559    4.3221    0.0000 H   0  0  0  0  0  0  0  0  0  0  0  0
    8.8702    1.8554    0.0000 H   0  0  0  0  0  0  0  0  0  0  0  0
    7.1374    1.7413    0.0000 H   0  0  0  0  0  0  0  0  0  0  0  0
    6.4499   -0.3746    0.0000 H   0  0  0  0  0  0  0  0  0  0  0  0
    5.1190    0.2748    0.0000 H   0  0  0  0  0  0  0  0  0  0  0  0
    5.3254    1.7413    0.0000 H   0  0  0  0  0  0  0  0  0  0  0  0
   11.2573    1.6549    0.0000 H   0  0  0  0  0  0  0  0  0  0  0  0
   10.5813    2.0773    0.0000 H   0  0  0  0  0  0  0  0  0  0  0  0
    7.9915    5.4284    0.0000 H   0  0  0  0  0  0  0  0  0  0  0  0
    6.9001    5.8795    0.0000 H   0  0  0  0  0  0  0  0  0  0  0  0
    4.7624    1.9853    0.0000 H   0  0  0  0  0  0  0  0  0  0  0  0
    3.9828    1.8196    0.0000 H   0  0  0  0  0  0  0  0  0  0  0  0
   11.4282    0.0329    0.0000 H   0  0  0  0  0  0  0  0  0  0  0  0
    8.6125    0.9787    0.0000 H   0  0  0  0  0  0  0  0  0  0  0  0
    8.8098    0.1244    0.0000 H   0  0  0  0  0  0  0  0  0  0  0  0
    9.6641    0.3216    0.0000 H   0  0  0  0  0  0  0  0  0  0  0  0
    4.6480    2.4724    0.0000 H   0  0  0  0  0  0  0  0  0  0  0  0
    7.0670   -1.1976    0.0000 H   0  0  0  0  0  0  0  0  0  0  0  0
   11.8454    1.0929    0.0000 H   0  0  0  0  0  0  0  0  0  0  0  0
   11.0566    3.7201    0.0000 H   0  0  0  0  0  0  0  0  0  0  0  0
    4.5270   -0.5664    0.0000 H   0  0  0  0  0  0  0  0  0  0  0  0
    3.3301    5.4323    0.0000 H   0  0  0  0  0  0  0  0  0  0  0  0
    3.0368    2.6418    0.0000 H   0  0  0  0  0  0  0  0  0  0  0  0
    3.1385    0.9604    0.0000 H   0  0  0  0  0  0  0  0  0  0  0  0
    3.8571    0.1623    0.0000 H   0  0  0  0  0  0  0  0  0  0  0  0
   10.6501    2.0203    0.0000 H   0  0  0  0  0  0  0  0  0  0  0  0
   11.4886    1.7639    0.0000 H   0  0  0  0  0  0  0  0  0  0  0  0
   11.7450    2.6024    0.0000 H   0  0  0  0  0  0  0  0  0  0  0  0
   10.8983   -0.8151    0.0000 H   0  0  0  0  0  0  0  0  0  0  0  0
   12.3753    1.9409    0.0000 H   0  0  0  0  0  0  0  0  0  0  0  0
   13.9339    0.1534    0.0000 H   0  0  0  0  0  0  0  0  0  0  0  0
   13.6442    0.7390    0.0000 H   0  0  0  0  0  0  0  0  0  0  0  0
   14.2854    1.3370    0.0000 H   0  0  0  0  0  0  0  0  0  0  0  0
   13.6874    1.9782    0.0000 H   0  0  0  0  0  0  0  0  0  0  0  0
   13.4852   -1.4469    0.0000 H   0  0  0  0  0  0  0  0  0  0  0  0
   14.1611   -1.8693    0.0000 H   0  0  0  0  0  0  0  0  0  0  0  0
   15.6639   -1.0986    0.0000 H   0  0  0  0  0  0  0  0  0  0  0  0
   14.9879   -0.6763    0.0000 H   0  0  0  0  0  0  0  0  0  0  0  0
   14.9540   -2.3648    0.0000 H   0  0  0  0  0  0  0  0  0  0  0  0
   15.6300   -2.7871    0.0000 H   0  0  0  0  0  0  0  0  0  0  0  0
   17.1327   -2.0165    0.0000 H   0  0  0  0  0  0  0  0  0  0  0  0
   16.4568   -1.5941    0.0000 H   0  0  0  0  0  0  0  0  0  0  0  0
   16.4229   -3.2826    0.0000 H   0  0  0  0  0  0  0  0  0  0  0  0
   17.0988   -3.7050    0.0000 H   0  0  0  0  0  0  0  0  0  0  0  0
   18.6016   -2.9343    0.0000 H   0  0  0  0  0  0  0  0  0  0  0  0
   17.9257   -2.5120    0.0000 H   0  0  0  0  0  0  0  0  0  0  0  0
   17.8918   -4.2005    0.0000 H   0  0  0  0  0  0  0  0  0  0  0  0
   18.5677   -4.6228    0.0000 H   0  0  0  0  0  0  0  0  0  0  0  0
   20.0705   -3.8522    0.0000 H   0  0  0  0  0  0  0  0  0  0  0  0
   19.3945   -3.4298    0.0000 H   0  0  0  0  0  0  0  0  0  0  0  0
   19.3606   -5.1183    0.0000 H   0  0  0  0  0  0  0  0  0  0  0  0
   20.0366   -5.5407    0.0000 H   0  0  0  0  0  0  0  0  0  0  0  0
   21.5393   -4.7700    0.0000 H   0  0  0  0  0  0  0  0  0  0  0  0
   20.8634   -4.3476    0.0000 H   0  0  0  0  0  0  0  0  0  0  0  0
   20.8295   -6.0362    0.0000 H   0  0  0  0  0  0  0  0  0  0  0  0
   21.5054   -6.4585    0.0000 H   0  0  0  0  0  0  0  0  0  0  0  0
   22.3969   -6.4991    0.0000 H   0  0  0  0  0  0  0  0  0  0  0  0
   23.0382   -5.9011    0.0000 H   0  0  0  0  0  0  0  0  0  0  0  0
   22.4402   -5.2598    0.0000 H   0  0  0  0  0  0  0  0  0  0  0  0
  1 20  1  0  0  0  0
  1 24  1  0  0  0  0
 21  2  1  1  0  0  0
  2 26  1  0  0  0  0
  3 26  1  0  0  0  0
  3 29  1  0  0  0  0
 22  4  1  6  0  0  0
  4 67  1  0  0  0  0
 23  5  1  6  0  0  0
  5 68  1  0  0  0  0
 27  6  1  6  0  0  0
  6 76  1  0  0  0  0
 28  7  1  6  0  0  0
  7 79  1  0  0  0  0
  8 30  2  0  0  0  0
 33  9  1  1  0  0  0
  9 87  1  0  0  0  0
 10 35  2  0  0  0  0
 11 39  2  0  0  0  0
 12 41  2  0  0  0  0
 25 13  1  1  0  0  0
 13 31  1  0  0  0  0
 13 34  1  0  0  0  0
 14 24  1  0  0  0  0
 14 35  1  0  0  0  0
 14 36  1  0  0  0  0
 15 30  1  0  0  0  0
 15 40  1  0  0  0  0
 15 78  1  0  0  0  0
 16 35  1  0  0  0  0
 16 39  1  0  0  0  0
 16 80  1  0  0  0  0
 17 32  1  0  0  0  0
 17 82  1  0  0  0  0
 17 83  1  0  0  0  0
 18 37  1  0  0  0  0
 18 42  1  0  0  0  0
 18 88  1  0  0  0  0
 19 41  1  0  0  0  0
 19 43  1  0  0  0  0
 19 89  1  0  0  0  0
 20 21  1  0  0  0  0
 20 22  1  0  0  0  0
 20 55  1  0  0  0  0
 21 25  1  0  0  0  0
 21 56  1  0  0  0  0
 22 23  1  0  0  0  0
 22 57  1  0  0  0  0
 23 24  1  0  0  0  0
 23 58  1  0  0  0  0
 24 59  1  0  0  0  0
 25 30  1  0  0  0  0
 25 60  1  0  0  0  0
 26 27  1  0  0  0  0
 26 61  1  0  0  0  0
 27 28  1  0  0  0  0
 27 62  1  0  0  0  0
 28 29  1  0  0  0  0
 28 63  1  0  0  0  0
 29 32  1  1  0  0  0
 29 64  1  0  0  0  0
 31 33  1  0  0  0  0
 31 65  1  0  0  0  0
 31 66  1  0  0  0  0
 32 69  1  0  0  0  0
 32 70  1  0  0  0  0
 33 37  1  0  0  0  0
 33 71  1  0  0  0  0
 34 72  1  0  0  0  0
 34 73  1  0  0  0  0
 34 74  1  0  0  0  0
 36 38  2  0  0  0  0
 36 75  1  0  0  0  0
 37 41  1  0  0  0  0
 37 77  1  0  0  0  0
 38 39  1  0  0  0  0
 38 81  1  0  0  0  0
 40 84  1  0  0  0  0
 40 85  1  0  0  0  0
 40 86  1  0  0  0  0
 42 90  1  0  0  0  0
 42 91  1  0  0  0  0
 42 92  1  0  0  0  0
 43 44  1  0  0  0  0
 43 93  1  0  0  0  0
 43 94  1  0  0  0  0
 44 45  1  0  0  0  0
 44 95  1  0  0  0  0
 44 96  1  0  0  0  0
 45 46  1  0  0  0  0
 45 97  1  0  0  0  0
 45 98  1  0  0  0  0
 46 47  1  0  0  0  0
 46 99  1  0  0  0  0
 46100  1  0  0  0  0
 47 48  1  0  0  0  0
 47101  1  0  0  0  0
 47102  1  0  0  0  0
 48 49  1  0  0  0  0
 48103  1  0  0  0  0
 48104  1  0  0  0  0
 49 50  1  0  0  0  0
 49105  1  0  0  0  0
 49106  1  0  0  0  0
 50 51  1  0  0  0  0
 50107  1  0  0  0  0
 50108  1  0  0  0  0
 51 52  1  0  0  0  0
 51109  1  0  0  0  0
 51110  1  0  0  0  0
 52 53  1  0  0  0  0
 52111  1  0  0  0  0
 52112  1  0  0  0  0
 53 54  1  0  0  0  0
 53113  1  0  0  0  0
 53114  1  0  0  0  0
 54115  1  0  0  0  0
 54116  1  0  0  0  0
 54117  1  0  0  0  0
M  END
> <PUBCHEM_COMPOUND_CID>
510164
> <PUBCHEM_COMPOUND_CANONICALIZED>
1
> <PUBCHEM_CACTVS_COMPLEXITY>
1230
> <PUBCHEM_CACTVS_HBOND_ACCEPTOR>
15
> <PUBCHEM_CACTVS_HBOND_DONOR>
10
> <PUBCHEM_CACTVS_ROTATABLE_BOND>
24
> <PUBCHEM_CACTVS_SUBSKEYS>
AAADcfB/vAAAAAAAAAAAAAAAAAAAASJAAAAgAAAAAAAAAAAAAAAAHgAQCAAACDzxgAcDCAPABgCIACFWUACAAAAAAgAIAIGIAECTUBYAwCA/QAAPNyKXAMH+/K/AAAAAAAAAAAAAAAAAAAAAAAAAAAAAAA==
> <PUBCHEM_IUPAC_OPENEYE_NAME>
(3S)-4-[[(1S)-1-[(R)-[(3R,4S,5R)-5-(aminomethyl)-3,4-dihydroxy-tetrahydrofuran-2-yl]oxy-[(3S,4R)-5-(2,4-dioxopyrimidin-1-yl)-3,4-dihydroxy-tetrahydrofuran-2-yl]methyl]-2-(methylamino)-2-oxo-ethyl]-methyl-amino]-N-dodecyl-3-hydroxy-2-(methylamino)butanamide
> <PUBCHEM_IUPAC_CAS_NAME>
(3S)-4-[[(1R,2S)-1-[[(3R,4S,5R)-5-(aminomethyl)-3,4-dihydroxy-2-oxolanyl]oxy]-1-[(3S,4R)-5-(2,4-dioxo-1-pyrimidinyl)-3,4-dihydroxy-2-oxolanyl]-3-(methylamino)-3-oxopropan-2-yl]-methylamino]-N-dodecyl-3-hydroxy-2-(methylamino)butanamide
> <PUBCHEM_IUPAC_NAME_MARKUP>
(3<I>S</I>)-4-[[(1<I>R</I>,2<I>S</I>)-1-[(3<I>R</I>,4<I>S</I>,5<I>R</I>)-5-(aminomethyl)-3,4-dihydroxyoxolan-2-yl]oxy-1-[(3<I>S</I>,4<I>R</I>)-5-(2,4-dioxopyrimidin-1-yl)-3,4-dihydroxyoxolan-2-yl]-3-(methylamino)-3-oxopropan-2-yl]-methylamino]-<I>N</I>-dodecyl-3-hydroxy-2-(methylamino)butanamide
> <PUBCHEM_IUPAC_NAME>
(3S)-4-[[(1R,2S)-1-[(3R,4S,5R)-5-(aminomethyl)-3,4-dihydroxyoxolan-2-yl]oxy-1-[(3S,4R)-5-(2,4-dioxopyrimidin-1-yl)-3,4-dihydroxyoxolan-2-yl]-3-(methylamino)-3-oxopropan-2-yl]-methylamino]-N-dodecyl-3-hydroxy-2-(methylamino)butanamide
> <PUBCHEM_IUPAC_SYSTEMATIC_NAME>
(3S)-4-[[(1R,2S)-1-[(3R,4S,5R)-5-(aminomethyl)-3,4-bis(oxidanyl)oxolan-2-yl]oxy-1-[(3S,4R)-5-[2,4-bis(oxidanylidene)pyrimidin-1-yl]-3,4-bis(oxidanyl)oxolan-2-yl]-3-(methylamino)-3-oxidanylidene-propan-2-yl]-methyl-amino]-N-dodecyl-2-(methylamino)-3-oxidanyl-butanamide
> <PUBCHEM_IUPAC_TRADITIONAL_NAME>
(3S)-4-[[(1S)-1-[(R)-[(3R,4S,5R)-5-(aminomethyl)-3,4-dihydroxy-tetrahydrofuran-2-yl]oxy-[(3S,4R)-5-(2,4-diketopyrimidin-1-yl)-3,4-dihydroxy-tetrahydrofuran-2-yl]methyl]-2-keto-2-(methylamino)ethyl]-methyl-amino]-3-hydroxy-N-lauryl-2-(methylamino)butyramide
> <PUBCHEM_IUPAC_INCHI>
InChI=1S/C35H63N7O12/c1-5-6-7-8-9-10-11-12-13-14-16-39-31(49)23(37-2)20(43)19-41(4)24(32(50)38-3)29(54-34-28(48)25(45)21(18-36)52-34)30-26(46)27(47)33(53-30)42-17-15-22(44)40-35(42)51/h15,17,20-21,23-30,33-34,37,43,45-48H,5-14,16,18-19,36H2,1-4H3,(H,38,50)(H,39,49)(H,40,44,51)/t20-,21+,23?,24-,25+,26-,27+,28+,29+,30?,33?,34?/m0/s1
> <PUBCHEM_IUPAC_INCHIKEY>
LPHWLPULOZAZQI-GZZASCIQSA-N
> <PUBCHEM_XLOGP3_AA>
-0.7
> <PUBCHEM_EXACT_MASS>
773.45347047
> <PUBCHEM_MOLECULAR_FORMULA>
C35H63N7O12
> <PUBCHEM_MOLECULAR_WEIGHT>
773.9
> <PUBCHEM_OPENEYE_CAN_SMILES>
CCCCCCCCCCCCNC(=O)C(C(CN(C)C(C(C1C(C(C(O1)N2C=CC(=O)NC2=O)O)O)OC3C(C(C(O3)CN)O)O)C(=O)NC)O)NC
> <PUBCHEM_OPENEYE_ISO_SMILES>
CCCCCCCCCCCCNC(=O)C([C@H](CN(C)[C@@H]([C@H](C1[C@H]([C@H](C(O1)N2C=CC(=O)NC2=O)O)O)OC3[C@@H]([C@@H]([C@H](O3)CN)O)O)C(=O)NC)O)NC
> <PUBCHEM_CACTVS_TPSA>
278
> <PUBCHEM_MONOISOTOPIC_WEIGHT>
773.45347047
> <PUBCHEM_TOTAL_CHARGE>
0
> <PUBCHEM_HEAVY_ATOM_COUNT>
54
> <PUBCHEM_ATOM_DEF_STEREO_COUNT>
8
> <PUBCHEM_ATOM_UDEF_STEREO_COUNT>
4
> <PUBCHEM_BOND_DEF_STEREO_COUNT>
0
> <PUBCHEM_BOND_UDEF_STEREO_COUNT>
0
> <PUBCHEM_ISOTOPIC_ATOM_COUNT>
0
> <PUBCHEM_COMPONENT_COUNT>
1
> <PUBCHEM_CACTVS_TAUTO_COUNT>
-1
> <PUBCHEM_COORDINATE_TYPE>
1
5
255
> <PUBCHEM_BONDANNOTATIONS>
20  1  3
25  13  5
24  14  3
14  35  8
14  36  8
16  35  8
16  39  8
21  2  5
26  2  3
29  32  5
36  38  8
37  41  3
38  39  8
22  4  6
23  5  6
27  6  6
28  7  6
33  9  5
$$$$
