510144
  -OEChem-10302200282D
 29 30  0     1  0  0  0  0  0999 V2000
    4.5411   -1.0094    0.0000 O   0  0  0  0  0  0  0  0  0  0  0  0
    5.8144   -2.6649    0.0000 O   0  0  0  0  0  0  0  0  0  0  0  0
    5.4641    0.5784    0.0000 O   0  0  0  0  0  0  0  0  0  0  0  0
    3.7320    3.5784    0.0000 O   0  0  0  0  0  0  0  0  0  0  0  0
    3.7320    0.5784    0.0000 N   0  0  0  0  0  0  0  0  0  0  0  0
    4.5981    2.0784    0.0000 N   0  0  0  0  0  0  0  0  0  0  0  0
    2.0565   -3.5784    0.0000 N   0  0  0  0  0  0  0  0  0  0  0  0
    3.7320   -0.4216    0.0000 C   0  0  2  0  0  0  0  0  0  0  0  0
    4.2320   -1.9604    0.0000 C   0  0  2  0  0  0  0  0  0  0  0  0
    2.9230   -1.0094    0.0000 C   0  0  0  0  0  0  0  0  0  0  0  0
    3.2320   -1.9604    0.0000 C   0  0  0  0  0  0  0  0  0  0  0  0
    4.8198   -2.7694    0.0000 C   0  0  0  0  0  0  0  0  0  0  0  0
    2.8660    1.0784    0.0000 C   0  0  0  0  0  0  0  0  0  0  0  0
    4.5981    1.0784    0.0000 C   0  0  0  0  0  0  0  0  0  0  0  0
    2.8660    2.0784    0.0000 C   0  0  0  0  0  0  0  0  0  0  0  0
    3.7320    2.5784    0.0000 C   0  0  0  0  0  0  0  0  0  0  0  0
    2.6443   -2.7694    0.0000 C   0  0  0  0  0  0  0  0  0  0  0  0
    2.0000    2.5784    0.0000 C   0  0  0  0  0  0  0  0  0  0  0  0
    4.2845   -0.1401    0.0000 H   0  0  0  0  0  0  0  0  0  0  0  0
    4.8444   -1.8634    0.0000 H   0  0  0  0  0  0  0  0  0  0  0  0
    2.3334   -0.8178    0.0000 H   0  0  0  0  0  0  0  0  0  0  0  0
    4.2626   -3.0412    0.0000 H   0  0  0  0  0  0  0  0  0  0  0  0
    4.9907   -3.3654    0.0000 H   0  0  0  0  0  0  0  0  0  0  0  0
    2.3291    0.7684    0.0000 H   0  0  0  0  0  0  0  0  0  0  0  0
    5.1350    2.3884    0.0000 H   0  0  0  0  0  0  0  0  0  0  0  0
    2.3100    3.1154    0.0000 H   0  0  0  0  0  0  0  0  0  0  0  0
    1.4631    2.8884    0.0000 H   0  0  0  0  0  0  0  0  0  0  0  0
    1.6900    2.0415    0.0000 H   0  0  0  0  0  0  0  0  0  0  0  0
    6.1788   -3.1665    0.0000 H   0  0  0  0  0  0  0  0  0  0  0  0
  1  8  1  0  0  0  0
  1  9  1  0  0  0  0
  2 12  1  0  0  0  0
  2 29  1  0  0  0  0
  3 14  2  0  0  0  0
  4 16  2  0  0  0  0
  8  5  1  1  0  0  0
  5 13  1  0  0  0  0
  5 14  1  0  0  0  0
  6 14  1  0  0  0  0
  6 16  1  0  0  0  0
  6 25  1  0  0  0  0
  7 17  3  0  0  0  0
  8 10  1  0  0  0  0
  8 19  1  0  0  0  0
  9 11  1  0  0  0  0
  9 12  1  1  0  0  0
  9 20  1  0  0  0  0
 10 11  2  0  0  0  0
 10 21  1  0  0  0  0
 11 17  1  0  0  0  0
 12 22  1  0  0  0  0
 12 23  1  0  0  0  0
 13 15  2  0  0  0  0
 13 24  1  0  0  0  0
 15 16  1  0  0  0  0
 15 18  1  0  0  0  0
 18 26  1  0  0  0  0
 18 27  1  0  0  0  0
 18 28  1  0  0  0  0
M  END
> <PUBCHEM_COMPOUND_CID>
510144
> <PUBCHEM_COMPOUND_CANONICALIZED>
1
> <PUBCHEM_CACTVS_COMPLEXITY>
514
> <PUBCHEM_CACTVS_HBOND_ACCEPTOR>
5
> <PUBCHEM_CACTVS_HBOND_DONOR>
2
> <PUBCHEM_CACTVS_ROTATABLE_BOND>
2
> <PUBCHEM_CACTVS_SUBSKEYS>
AAADccBzOAAAAAAAAAAAAAAAAAAAAQAAAAAgAAAAAAAAAAAAAAAAHgAQCAAADBThgAYDAAPABgCYBiFWUACgAAAgAAAACAEIAEiBlAAAIQAOUAAMRyILIMoAAAAAAAAAAAAAAAAAAAAAAAAAAAAAAAAAAA==
> <PUBCHEM_IUPAC_OPENEYE_NAME>
(2R,5S)-2-(hydroxymethyl)-5-(5-methyl-2,4-dioxo-pyrimidin-1-yl)-2,5-dihydrofuran-3-carbonitrile
> <PUBCHEM_IUPAC_CAS_NAME>
(2R,5S)-2-(hydroxymethyl)-5-(5-methyl-2,4-dioxo-1-pyrimidinyl)-2,5-dihydrofuran-3-carbonitrile
> <PUBCHEM_IUPAC_NAME_MARKUP>
(2<I>R</I>,5<I>S</I>)-2-(hydroxymethyl)-5-(5-methyl-2,4-dioxopyrimidin-1-yl)-2,5-dihydrofuran-3-carbonitrile
> <PUBCHEM_IUPAC_NAME>
(2R,5S)-2-(hydroxymethyl)-5-(5-methyl-2,4-dioxopyrimidin-1-yl)-2,5-dihydrofuran-3-carbonitrile
> <PUBCHEM_IUPAC_SYSTEMATIC_NAME>
(2R,5S)-2-(hydroxymethyl)-5-[5-methyl-2,4-bis(oxidanylidene)pyrimidin-1-yl]-2,5-dihydrofuran-3-carbonitrile
> <PUBCHEM_IUPAC_TRADITIONAL_NAME>
(2R,5S)-5-(2,4-diketo-5-methyl-pyrimidin-1-yl)-2-methylol-2,5-dihydrofuran-3-carbonitrile
> <PUBCHEM_IUPAC_INCHI>
InChI=1S/C11H11N3O4/c1-6-4-14(11(17)13-10(6)16)9-2-7(3-12)8(5-15)18-9/h2,4,8-9,15H,5H2,1H3,(H,13,16,17)/t8-,9-/m0/s1
> <PUBCHEM_IUPAC_INCHIKEY>
CTKYKXZRHGLZHV-IUCAKERBSA-N
> <PUBCHEM_XLOGP3>
-1.4
> <PUBCHEM_EXACT_MASS>
249.07495584
> <PUBCHEM_MOLECULAR_FORMULA>
C11H11N3O4
> <PUBCHEM_MOLECULAR_WEIGHT>
249.22
> <PUBCHEM_OPENEYE_CAN_SMILES>
CC1=CN(C(=O)NC1=O)C2C=C(C(O2)CO)C#N
> <PUBCHEM_OPENEYE_ISO_SMILES>
CC1=CN(C(=O)NC1=O)[C@@H]2C=C([C@@H](O2)CO)C#N
> <PUBCHEM_CACTVS_TPSA>
103
> <PUBCHEM_MONOISOTOPIC_WEIGHT>
249.07495584
> <PUBCHEM_TOTAL_CHARGE>
0
> <PUBCHEM_HEAVY_ATOM_COUNT>
18
> <PUBCHEM_ATOM_DEF_STEREO_COUNT>
2
> <PUBCHEM_ATOM_UDEF_STEREO_COUNT>
0
> <PUBCHEM_BOND_DEF_STEREO_COUNT>
0
> <PUBCHEM_BOND_UDEF_STEREO_COUNT>
0
> <PUBCHEM_ISOTOPIC_ATOM_COUNT>
0
> <PUBCHEM_COMPONENT_COUNT>
1
> <PUBCHEM_CACTVS_TAUTO_COUNT>
-1
> <PUBCHEM_COORDINATE_TYPE>
1
5
255
> <PUBCHEM_BONDANNOTATIONS>
13  15  8
15  16  8
5  13  8
5  14  8
8  5  5
6  14  8
6  16  8
9  12  5
$$$$
