510149
  -OEChem-10302200282D
114117  0     1  0  0  0  0  0999 V2000
   14.6493    1.7244    0.0000 O   0  0  0  0  0  0  0  0  0  0  0  0
   12.2854    0.6719    0.0000 O   0  0  0  0  0  0  0  0  0  0  0  0
   12.3180    2.8472    0.0000 O   0  0  0  0  0  0  0  0  0  0  0  0
   14.9337   -1.9424    0.0000 O   0  0  0  0  0  0  0  0  0  0  0  0
   12.3037   -2.2304    0.0000 O   0  0  0  0  0  0  0  0  0  0  0  0
   15.6139   -1.2094    0.0000 O   0  0  0  0  0  0  0  0  0  0  0  0
   12.8932   -4.1416    0.0000 O   0  0  0  0  0  0  0  0  0  0  0  0
   11.2790    1.4613    0.0000 O   0  0  0  0  0  0  0  0  0  0  0  0
   16.0360    2.9286    0.0000 O   0  0  0  0  0  0  0  0  0  0  0  0
   16.8836   -2.3875    0.0000 O   0  0  0  0  0  0  0  0  0  0  0  0
   15.3665    6.3274    0.0000 O   0  0  0  0  0  0  0  0  0  0  0  0
   16.9138   -5.8970    0.0000 O   0  0  0  0  0  0  0  0  0  0  0  0
   14.3969    3.4885    0.0000 N   0  0  0  0  0  0  0  0  0  0  0  0
   15.9993    0.4792    0.0000 N   0  0  0  0  0  0  0  0  0  0  0  0
   15.7012    4.6280    0.0000 N   0  0  0  0  0  0  0  0  0  0  0  0
   16.4982   -4.0761    0.0000 N   0  0  0  0  0  0  0  0  0  0  0  0
   18.5966   -5.7074    0.0000 N   0  0  0  0  0  0  0  0  0  0  0  0
   14.0495    0.9243    0.0000 C   0  0  1  0  0  0  0  0  0  0  0  0
   13.1031    1.2475    0.0000 C   0  0  2  0  0  0  0  0  0  0  0  0
   13.1181    2.2474    0.0000 C   0  0  2  0  0  0  0  0  0  0  0  0
   14.3442   -0.0313    0.0000 C   0  0  1  0  0  0  0  0  0  0  0  0
   14.0737    2.5421    0.0000 C   0  0  1  0  0  0  0  0  0  0  0  0
   13.6641   -0.7643    0.0000 C   0  0  0  0  0  0  0  0  0  0  0  0
   13.9588   -1.7199    0.0000 C   0  0  2  0  0  0  0  0  0  0  0  0
   13.2786   -2.4530    0.0000 C   0  0  2  0  0  0  0  0  0  0  0  0
   15.3192   -0.2538    0.0000 C   0  0  0  0  0  0  0  0  0  0  0  0
   13.5734   -3.4085    0.0000 C   0  0  2  0  0  0  0  0  0  0  0  0
   11.3984    2.4542    0.0000 C   0  0  0  0  0  0  0  0  0  0  0  0
   15.3780    3.6817    0.0000 C   0  0  0  0  0  0  0  0  0  0  0  0
   13.7389    4.2415    0.0000 C   0  0  0  0  0  0  0  0  0  0  0  0
   12.3751   -0.3241    0.0000 C   0  0  0  0  0  0  0  0  0  0  0  0
   15.2285   -2.8980    0.0000 C   0  0  0  0  0  0  0  0  0  0  0  0
   14.5483   -3.6311    0.0000 C   0  0  0  0  0  0  0  0  0  0  0  0
   10.5983    3.0540    0.0000 C   0  0  3  0  0  0  0  0  0  0  0  0
    9.6788    2.6610    0.0000 C   0  0  0  0  0  0  0  0  0  0  0  0
   14.0622    5.1879    0.0000 C   0  0  0  0  0  0  0  0  0  0  0  0
   16.2034   -3.1205    0.0000 C   0  0  0  0  0  0  0  0  0  0  0  0
    8.8786    3.2608    0.0000 C   0  0  0  0  0  0  0  0  0  0  0  0
   10.7177    4.0468    0.0000 C   0  0  0  0  0  0  0  0  0  0  0  0
   15.0433    5.3811    0.0000 C   0  0  0  0  0  0  0  0  0  0  0  0
   17.4731   -4.2986    0.0000 C   0  0  1  0  0  0  0  0  0  0  0  0
    7.9591    2.8678    0.0000 C   0  0  0  0  0  0  0  0  0  0  0  0
   18.0966   -3.5168    0.0000 C   0  0  0  0  0  0  0  0  0  0  0  0
   19.0966   -3.5168    0.0000 C   0  0  0  0  0  0  0  0  0  0  0  0
   19.7201   -4.2986    0.0000 C   0  0  0  0  0  0  0  0  0  0  0  0
   19.4976   -5.2736    0.0000 C   0  0  1  0  0  0  0  0  0  0  0  0
    7.1590    3.4676    0.0000 C   0  0  0  0  0  0  0  0  0  0  0  0
   17.6956   -5.2736    0.0000 C   0  0  0  0  0  0  0  0  0  0  0  0
    6.2395    3.0746    0.0000 C   0  0  0  0  0  0  0  0  0  0  0  0
   20.2794   -5.8970    0.0000 C   0  0  0  0  0  0  0  0  0  0  0  0
    5.4393    3.6744    0.0000 C   0  0  0  0  0  0  0  0  0  0  0  0
    4.5198    3.2814    0.0000 C   0  0  0  0  0  0  0  0  0  0  0  0
    3.7197    3.8812    0.0000 C   0  0  0  0  0  0  0  0  0  0  0  0
    2.8001    3.4882    0.0000 C   0  0  0  0  0  0  0  0  0  0  0  0
    2.0000    4.0880    0.0000 C   0  0  0  0  0  0  0  0  0  0  0  0
   14.8869    0.7788    0.0000 H   0  0  0  0  0  0  0  0  0  0  0  0
   13.1910    0.6337    0.0000 H   0  0  0  0  0  0  0  0  0  0  0  0
   12.5615    1.9742    0.0000 H   0  0  0  0  0  0  0  0  0  0  0  0
   14.5270   -0.6238    0.0000 H   0  0  0  0  0  0  0  0  0  0  0  0
   14.6874    2.6300    0.0000 H   0  0  0  0  0  0  0  0  0  0  0  0
   13.2897   -0.2701    0.0000 H   0  0  0  0  0  0  0  0  0  0  0  0
   13.1123   -1.0472    0.0000 H   0  0  0  0  0  0  0  0  0  0  0  0
   14.3805   -1.2654    0.0000 H   0  0  0  0  0  0  0  0  0  0  0  0
   13.0959   -1.8605    0.0000 H   0  0  0  0  0  0  0  0  0  0  0  0
   12.9689   -3.2706    0.0000 H   0  0  0  0  0  0  0  0  0  0  0  0
   13.1306    4.1217    0.0000 H   0  0  0  0  0  0  0  0  0  0  0  0
   11.7576   -0.3797    0.0000 H   0  0  0  0  0  0  0  0  0  0  0  0
   12.4306   -0.9416    0.0000 H   0  0  0  0  0  0  0  0  0  0  0  0
   12.9926   -0.2685    0.0000 H   0  0  0  0  0  0  0  0  0  0  0  0
   14.7311   -4.2235    0.0000 H   0  0  0  0  0  0  0  0  0  0  0  0
   10.1022    3.4259    0.0000 H   0  0  0  0  0  0  0  0  0  0  0  0
   16.6038    0.3413    0.0000 H   0  0  0  0  0  0  0  0  0  0  0  0
   15.8166    1.0717    0.0000 H   0  0  0  0  0  0  0  0  0  0  0  0
   11.8820   -2.6849    0.0000 H   0  0  0  0  0  0  0  0  0  0  0  0
    9.2264    2.2370    0.0000 H   0  0  0  0  0  0  0  0  0  0  0  0
   10.0177    2.1418    0.0000 H   0  0  0  0  0  0  0  0  0  0  0  0
   16.3096    4.7479    0.0000 H   0  0  0  0  0  0  0  0  0  0  0  0
   13.6542    5.6548    0.0000 H   0  0  0  0  0  0  0  0  0  0  0  0
   13.0760   -4.7340    0.0000 H   0  0  0  0  0  0  0  0  0  0  0  0
    9.3310    3.6848    0.0000 H   0  0  0  0  0  0  0  0  0  0  0  0
    8.5397    3.7799    0.0000 H   0  0  0  0  0  0  0  0  0  0  0  0
   11.3333    3.9728    0.0000 H   0  0  0  0  0  0  0  0  0  0  0  0
   10.7917    4.6624    0.0000 H   0  0  0  0  0  0  0  0  0  0  0  0
   10.1021    4.1209    0.0000 H   0  0  0  0  0  0  0  0  0  0  0  0
   17.0347   -4.7370    0.0000 H   0  0  0  0  0  0  0  0  0  0  0  0
   16.0765   -4.5306    0.0000 H   0  0  0  0  0  0  0  0  0  0  0  0
    7.5067    2.4438    0.0000 H   0  0  0  0  0  0  0  0  0  0  0  0
    8.2981    2.3486    0.0000 H   0  0  0  0  0  0  0  0  0  0  0  0
   18.2346   -2.9123    0.0000 H   0  0  0  0  0  0  0  0  0  0  0  0
   17.5380   -3.2478    0.0000 H   0  0  0  0  0  0  0  0  0  0  0  0
   19.6552   -3.2478    0.0000 H   0  0  0  0  0  0  0  0  0  0  0  0
   18.9586   -2.9123    0.0000 H   0  0  0  0  0  0  0  0  0  0  0  0
   20.2787   -4.5676    0.0000 H   0  0  0  0  0  0  0  0  0  0  0  0
   20.1066   -3.8139    0.0000 H   0  0  0  0  0  0  0  0  0  0  0  0
   19.4281   -5.8897    0.0000 H   0  0  0  0  0  0  0  0  0  0  0  0
    7.6114    3.8916    0.0000 H   0  0  0  0  0  0  0  0  0  0  0  0
    6.8200    3.9867    0.0000 H   0  0  0  0  0  0  0  0  0  0  0  0
   18.5966   -6.3274    0.0000 H   0  0  0  0  0  0  0  0  0  0  0  0
    5.7871    2.6506    0.0000 H   0  0  0  0  0  0  0  0  0  0  0  0
    6.5784    2.5554    0.0000 H   0  0  0  0  0  0  0  0  0  0  0  0
   19.8928   -6.3818    0.0000 H   0  0  0  0  0  0  0  0  0  0  0  0
   20.7641   -6.2836    0.0000 H   0  0  0  0  0  0  0  0  0  0  0  0
   20.6660   -5.4123    0.0000 H   0  0  0  0  0  0  0  0  0  0  0  0
    5.8917    4.0984    0.0000 H   0  0  0  0  0  0  0  0  0  0  0  0
    5.1004    4.1935    0.0000 H   0  0  0  0  0  0  0  0  0  0  0  0
    4.0674    2.8574    0.0000 H   0  0  0  0  0  0  0  0  0  0  0  0
    4.8588    2.7622    0.0000 H   0  0  0  0  0  0  0  0  0  0  0  0
    4.1720    4.3052    0.0000 H   0  0  0  0  0  0  0  0  0  0  0  0
    3.3807    4.4003    0.0000 H   0  0  0  0  0  0  0  0  0  0  0  0
    2.3478    3.0642    0.0000 H   0  0  0  0  0  0  0  0  0  0  0  0
    3.1391    2.9690    0.0000 H   0  0  0  0  0  0  0  0  0  0  0  0
    2.3719    4.5841    0.0000 H   0  0  0  0  0  0  0  0  0  0  0  0
    1.5039    4.4599    0.0000 H   0  0  0  0  0  0  0  0  0  0  0  0
    1.6281    3.5919    0.0000 H   0  0  0  0  0  0  0  0  0  0  0  0
  1 18  1  0  0  0  0
  1 22  1  0  0  0  0
 19  2  1  1  0  0  0
  2 31  1  0  0  0  0
 20  3  1  1  0  0  0
  3 28  1  0  0  0  0
  4 24  1  0  0  0  0
  4 32  1  0  0  0  0
 25  5  1  6  0  0  0
  5 74  1  0  0  0  0
  6 26  2  0  0  0  0
 27  7  1  6  0  0  0
  7 79  1  0  0  0  0
  8 28  2  0  0  0  0
  9 29  2  0  0  0  0
 10 37  2  0  0  0  0
 11 40  2  0  0  0  0
 12 48  2  0  0  0  0
 22 13  1  6  0  0  0
 13 29  1  0  0  0  0
 13 30  1  0  0  0  0
 14 26  1  0  0  0  0
 14 72  1  0  0  0  0
 14 73  1  0  0  0  0
 15 29  1  0  0  0  0
 15 40  1  0  0  0  0
 15 77  1  0  0  0  0
 16 37  1  0  0  0  0
 41 16  1  1  0  0  0
 16 86  1  0  0  0  0
 17 46  1  0  0  0  0
 17 48  1  0  0  0  0
 17 98  1  0  0  0  0
 18 19  1  0  0  0  0
 18 21  1  0  0  0  0
 18 56  1  1  0  0  0
 19 20  1  0  0  0  0
 19 57  1  0  0  0  0
 20 22  1  0  0  0  0
 20 58  1  0  0  0  0
 21 23  1  6  0  0  0
 21 26  1  0  0  0  0
 21 59  1  0  0  0  0
 22 60  1  0  0  0  0
 24 23  1  1  0  0  0
 23 61  1  0  0  0  0
 23 62  1  0  0  0  0
 24 25  1  0  0  0  0
 24 63  1  0  0  0  0
 25 27  1  0  0  0  0
 25 64  1  0  0  0  0
 27 33  1  0  0  0  0
 27 65  1  0  0  0  0
 28 34  1  0  0  0  0
 30 36  2  0  0  0  0
 30 66  1  0  0  0  0
 31 67  1  0  0  0  0
 31 68  1  0  0  0  0
 31 69  1  0  0  0  0
 32 33  2  0  0  0  0
 32 37  1  0  0  0  0
 33 70  1  0  0  0  0
 34 35  1  0  0  0  0
 34 39  1  0  0  0  0
 34 71  1  0  0  0  0
 35 38  1  0  0  0  0
 35 75  1  0  0  0  0
 35 76  1  0  0  0  0
 36 40  1  0  0  0  0
 36 78  1  0  0  0  0
 38 42  1  0  0  0  0
 38 80  1  0  0  0  0
 38 81  1  0  0  0  0
 39 82  1  0  0  0  0
 39 83  1  0  0  0  0
 39 84  1  0  0  0  0
 41 43  1  0  0  0  0
 41 48  1  0  0  0  0
 41 85  1  0  0  0  0
 42 47  1  0  0  0  0
 42 87  1  0  0  0  0
 42 88  1  0  0  0  0
 43 44  1  0  0  0  0
 43 89  1  0  0  0  0
 43 90  1  0  0  0  0
 44 45  1  0  0  0  0
 44 91  1  0  0  0  0
 44 92  1  0  0  0  0
 45 46  1  0  0  0  0
 45 93  1  0  0  0  0
 45 94  1  0  0  0  0
 46 50  1  1  0  0  0
 46 95  1  0  0  0  0
 47 49  1  0  0  0  0
 47 96  1  0  0  0  0
 47 97  1  0  0  0  0
 49 51  1  0  0  0  0
 49 99  1  0  0  0  0
 49100  1  0  0  0  0
 50101  1  0  0  0  0
 50102  1  0  0  0  0
 50103  1  0  0  0  0
 51 52  1  0  0  0  0
 51104  1  0  0  0  0
 51105  1  0  0  0  0
 52 53  1  0  0  0  0
 52106  1  0  0  0  0
 52107  1  0  0  0  0
 53 54  1  0  0  0  0
 53108  1  0  0  0  0
 53109  1  0  0  0  0
 54 55  1  0  0  0  0
 54110  1  0  0  0  0
 54111  1  0  0  0  0
 55112  1  0  0  0  0
 55113  1  0  0  0  0
 55114  1  0  0  0  0
M  END
> <PUBCHEM_COMPOUND_CID>
510149
> <PUBCHEM_COMPOUND_CANONICALIZED>
1
> <PUBCHEM_CACTVS_COMPLEXITY>
1440
> <PUBCHEM_CACTVS_HBOND_ACCEPTOR>
12
> <PUBCHEM_CACTVS_HBOND_DONOR>
6
> <PUBCHEM_CACTVS_ROTATABLE_BOND>
20
> <PUBCHEM_CACTVS_SUBSKEYS>
AAADcfB/vAAAAAAAAAAAAAAAAAAAASAAAAAgQAAABYAAAAAAAAAAHgAQCAAADTzhgAYDCAPABgCIACHWWAKACAAgIgAICIHIAEiDVBYAgCQfUAAP9yKbEcP6/PzOAAAAAAAAAAAAAAAAAAAAAAAAAAAAAA==
> <PUBCHEM_IUPAC_OPENEYE_NAME>
[(2R,3R,4R,5R)-5-[(1R)-2-amino-1-[[(2R,3S,4S)-3,4-dihydroxy-6-[[(3S,7R)-7-methyl-2-oxo-azepan-3-yl]carbamoyl]-3,4-dihydro-2H-pyran-2-yl]methyl]-2-oxo-ethyl]-2-(2,4-dioxopyrimidin-1-yl)-4-methoxy-tetrahydrofuran-3-yl] 2-methyldodecanoate
> <PUBCHEM_IUPAC_CAS_NAME>
2-methyldodecanoic acid [(2R,3R,4R,5R)-5-[(2R)-1-amino-3-[(2R,3S,4S)-3,4-dihydroxy-6-[[[(3S,7R)-7-methyl-2-oxo-3-azepanyl]amino]-oxomethyl]-3,4-dihydro-2H-pyran-2-yl]-1-oxopropan-2-yl]-2-(2,4-dioxo-1-pyrimidinyl)-4-methoxy-3-oxolanyl] ester
> <PUBCHEM_IUPAC_NAME_MARKUP>
[(2<I>R</I>,3<I>R</I>,4<I>R</I>,5<I>R</I>)-5-[(2<I>R</I>)-1-amino-3-[(2<I>R</I>,3<I>S</I>,4<I>S</I>)-3,4-dihydroxy-6-[[(3<I>S</I>,7<I>R</I>)-7-methyl-2-oxoazepan-3-yl]carbamoyl]-3,4-dihydro-2<I>H</I>-pyran-2-yl]-1-oxopropan-2-yl]-2-(2,4-dioxopyrimidin-1-yl)-4-methoxyoxolan-3-yl] 2-methyldodecanoate
> <PUBCHEM_IUPAC_NAME>
[(2R,3R,4R,5R)-5-[(2R)-1-amino-3-[(2R,3S,4S)-3,4-dihydroxy-6-[[(3S,7R)-7-methyl-2-oxoazepan-3-yl]carbamoyl]-3,4-dihydro-2H-pyran-2-yl]-1-oxopropan-2-yl]-2-(2,4-dioxopyrimidin-1-yl)-4-methoxyoxolan-3-yl] 2-methyldodecanoate
> <PUBCHEM_IUPAC_SYSTEMATIC_NAME>
[(2R,3R,4R,5R)-5-[(2R)-1-azanyl-3-[(2R,3S,4S)-6-[[(3S,7R)-7-methyl-2-oxidanylidene-azepan-3-yl]carbamoyl]-3,4-bis(oxidanyl)-3,4-dihydro-2H-pyran-2-yl]-1-oxidanylidene-propan-2-yl]-2-[2,4-bis(oxidanylidene)pyrimidin-1-yl]-4-methoxy-oxolan-3-yl] 2-methyldodecanoate
> <PUBCHEM_IUPAC_TRADITIONAL_NAME>
2-methyllauric acid [(2R,3R,4R,5R)-5-[(1R)-2-amino-1-[[(2R,3S,4S)-3,4-dihydroxy-6-[[(3S,7R)-2-keto-7-methyl-azepan-3-yl]carbamoyl]-3,4-dihydro-2H-pyran-2-yl]methyl]-2-keto-ethyl]-2-(2,4-diketopyrimidin-1-yl)-4-methoxy-tetrahydrofuran-3-yl] ester
> <PUBCHEM_IUPAC_INCHI>
InChI=1S/C38H59N5O12/c1-5-6-7-8-9-10-11-12-14-21(2)37(50)55-32-31(52-4)30(54-36(32)43-18-17-28(45)42-38(43)51)23(33(39)47)19-26-29(46)25(44)20-27(53-26)35(49)41-24-16-13-15-22(3)40-34(24)48/h17-18,20-26,29-32,36,44,46H,5-16,19H2,1-4H3,(H2,39,47)(H,40,48)(H,41,49)(H,42,45,51)/t21?,22-,23-,24+,25+,26-,29+,30-,31-,32-,36-/m1/s1
> <PUBCHEM_IUPAC_INCHIKEY>
LXQNUABVTPWNNZ-KHRIAJPTSA-N
> <PUBCHEM_XLOGP3_AA>
3
> <PUBCHEM_EXACT_MASS>
777.41602233
> <PUBCHEM_MOLECULAR_FORMULA>
C38H59N5O12
> <PUBCHEM_MOLECULAR_WEIGHT>
777.9
> <PUBCHEM_OPENEYE_CAN_SMILES>
CCCCCCCCCCC(C)C(=O)OC1C(C(OC1N2C=CC(=O)NC2=O)C(CC3C(C(C=C(O3)C(=O)NC4CCCC(NC4=O)C)O)O)C(=O)N)OC
> <PUBCHEM_OPENEYE_ISO_SMILES>
CCCCCCCCCCC(C)C(=O)O[C@@H]1[C@@H]([C@H](O[C@H]1N2C=CC(=O)NC2=O)[C@@H](C[C@@H]3[C@H]([C@H](C=C(O3)C(=O)N[C@H]4CCC[C@H](NC4=O)C)O)O)C(=O)N)OC
> <PUBCHEM_CACTVS_TPSA>
245
> <PUBCHEM_MONOISOTOPIC_WEIGHT>
777.41602233
> <PUBCHEM_TOTAL_CHARGE>
0
> <PUBCHEM_HEAVY_ATOM_COUNT>
55
> <PUBCHEM_ATOM_DEF_STEREO_COUNT>
10
> <PUBCHEM_ATOM_UDEF_STEREO_COUNT>
1
> <PUBCHEM_BOND_DEF_STEREO_COUNT>
0
> <PUBCHEM_BOND_UDEF_STEREO_COUNT>
0
> <PUBCHEM_ISOTOPIC_ATOM_COUNT>
0
> <PUBCHEM_COMPONENT_COUNT>
1
> <PUBCHEM_CACTVS_TAUTO_COUNT>
-1
> <PUBCHEM_COORDINATE_TYPE>
1
5
255
> <PUBCHEM_BONDANNOTATIONS>
22  13  6
13  29  8
13  30  8
15  29  8
15  40  8
41  16  5
18  56  5
19  2  5
21  23  6
24  23  5
20  3  5
30  36  8
34  39  3
36  40  8
46  50  5
25  5  6
27  7  6
$$$$
