510179
  -OEChem-10302200282D
181183  0     1  0  0  0  0  0999 V2000
    6.4781    6.8862    0.0000 O   0  0  0  0  0  0  0  0  0  0  0  0
    7.9915    5.4468    0.0000 O   0  0  0  0  0  0  0  0  0  0  0  0
    6.2314    5.7256    0.0000 O   0  0  0  0  0  0  0  0  0  0  0  0
    8.2036    8.8546    0.0000 O   0  0  0  0  0  0  0  0  0  0  0  0
    6.4393    9.4735    0.0000 O   0  0  0  0  0  0  0  0  0  0  0  0
    7.3192    3.3777    0.0000 O   0  0  0  0  0  0  0  0  0  0  0  0
    5.1436    3.3777    0.0000 O   0  0  0  0  0  0  0  0  0  0  0  0
    9.2592    8.1210    0.0000 O   0  0  0  0  0  0  0  0  0  0  0  0
   10.6072    3.7412    0.0000 O   0  0  0  0  0  0  0  0  0  0  0  0
    5.1646    9.5793    0.0000 O   0  0  0  0  0  0  0  0  0  0  0  0
   12.1969    6.2853    0.0000 O   0  0  0  0  0  0  0  0  0  0  0  0
    2.0000    8.1703    0.0000 O   0  0  0  0  0  0  0  0  0  0  0  0
   11.0767    2.8582    0.0000 O   0  0  0  0  0  0  0  0  0  0  0  0
    9.6682    5.5071    0.0000 N   0  0  3  0  0  0  0  0  0  0  0  0
    4.9836    7.8567    0.0000 N   0  0  0  0  0  0  0  0  0  0  0  0
   10.7281    7.2032    0.0000 N   0  0  0  0  0  0  0  0  0  0  0  0
    3.5823    8.8748    0.0000 N   0  0  0  0  0  0  0  0  0  0  0  0
    3.7282    4.7777    0.0000 N   0  0  0  0  0  0  0  0  0  0  0  0
   12.6060    3.6714    0.0000 N   0  0  0  0  0  0  0  0  0  0  0  0
   13.6658    5.3675    0.0000 N   0  0  0  0  0  0  0  0  0  0  0  0
   12.5455    1.9404    0.0000 N   0  0  0  0  0  0  0  0  0  0  0  0
    7.4562    7.0941    0.0000 C   0  0  3  0  0  0  0  0  0  0  0  0
    8.1994    6.4249    0.0000 C   0  0  1  0  0  0  0  0  0  0  0  0
    7.5608    8.0886    0.0000 C   0  0  2  0  0  0  0  0  0  0  0  0
    6.6472    8.4953    0.0000 C   0  0  2  0  0  0  0  0  0  0  0  0
    5.9781    7.7522    0.0000 C   0  0  3  0  0  0  0  0  0  0  0  0
    9.1988    6.3900    0.0000 C   0  0  1  0  0  0  0  0  0  0  0  0
    7.0404    5.1378    0.0000 C   0  0  3  0  0  0  0  0  0  0  0  0
    6.7314    4.1867    0.0000 C   0  0  1  0  0  0  0  0  0  0  0  0
    5.7314    4.1867    0.0000 C   0  0  1  0  0  0  0  0  0  0  0  0
    5.4224    5.1378    0.0000 C   0  0  1  0  0  0  0  0  0  0  0  0
    9.7287    7.2381    0.0000 C   0  0  0  0  0  0  0  0  0  0  0  0
   10.6676    5.4722    0.0000 C   0  0  0  0  0  0  0  0  0  0  0  0
   11.1371    4.5892    0.0000 C   0  0  1  0  0  0  0  0  0  0  0  0
    4.4713    5.4468    0.0000 C   0  0  0  0  0  0  0  0  0  0  0  0
    9.1383    4.6590    0.0000 C   0  0  0  0  0  0  0  0  0  0  0  0
    4.5768    8.7703    0.0000 C   0  0  0  0  0  0  0  0  0  0  0  0
    4.3958    7.0477    0.0000 C   0  0  0  0  0  0  0  0  0  0  0  0
   12.1365    4.5543    0.0000 C   0  0  3  0  0  0  0  0  0  0  0  0
    3.4013    7.1522    0.0000 C   0  0  0  0  0  0  0  0  0  0  0  0
   12.6664    5.4024    0.0000 C   0  0  0  0  0  0  0  0  0  0  0  0
    2.9945    8.0658    0.0000 C   0  0  0  0  0  0  0  0  0  0  0  0
   11.1976    6.3202    0.0000 C   0  0  0  0  0  0  0  0  0  0  0  0
   13.6054    3.6365    0.0000 C   0  0  0  0  0  0  0  0  0  0  0  0
   12.0760    2.8233    0.0000 C   0  0  0  0  0  0  0  0  0  0  0  0
   14.1957    6.2155    0.0000 C   0  0  0  0  0  0  0  0  0  0  0  0
   15.1951    6.1806    0.0000 C   0  0  0  0  0  0  0  0  0  0  0  0
   12.0156    1.0923    0.0000 C   0  0  0  0  0  0  0  0  0  0  0  0
   15.7250    7.0287    0.0000 C   0  0  0  0  0  0  0  0  0  0  0  0
   12.4851    0.2094    0.0000 C   0  0  0  0  0  0  0  0  0  0  0  0
   16.7244    6.9938    0.0000 C   0  0  0  0  0  0  0  0  0  0  0  0
   17.2543    7.8418    0.0000 C   0  0  0  0  0  0  0  0  0  0  0  0
   11.9552   -0.6387    0.0000 C   0  0  0  0  0  0  0  0  0  0  0  0
   18.2537    7.8069    0.0000 C   0  0  0  0  0  0  0  0  0  0  0  0
   12.4246   -1.5216    0.0000 C   0  0  0  0  0  0  0  0  0  0  0  0
   11.8947   -2.3696    0.0000 C   0  0  0  0  0  0  0  0  0  0  0  0
   18.7837    8.6550    0.0000 C   0  0  0  0  0  0  0  0  0  0  0  0
   12.3642   -3.2526    0.0000 C   0  0  0  0  0  0  0  0  0  0  0  0
   19.7830    8.6201    0.0000 C   0  0  0  0  0  0  0  0  0  0  0  0
   11.8343   -4.1006    0.0000 C   0  0  0  0  0  0  0  0  0  0  0  0
   20.3130    9.4681    0.0000 C   0  0  0  0  0  0  0  0  0  0  0  0
   12.3037   -4.9836    0.0000 C   0  0  0  0  0  0  0  0  0  0  0  0
   21.3124    9.4332    0.0000 C   0  0  0  0  0  0  0  0  0  0  0  0
   11.7738   -5.8316    0.0000 C   0  0  0  0  0  0  0  0  0  0  0  0
   21.8423   10.2813    0.0000 C   0  0  0  0  0  0  0  0  0  0  0  0
   12.2433   -6.7146    0.0000 C   0  0  0  0  0  0  0  0  0  0  0  0
   11.7134   -7.5626    0.0000 C   0  0  0  0  0  0  0  0  0  0  0  0
   22.8417   10.2464    0.0000 C   0  0  0  0  0  0  0  0  0  0  0  0
   12.1828   -8.4456    0.0000 C   0  0  0  0  0  0  0  0  0  0  0  0
   23.3716   11.0944    0.0000 C   0  0  0  0  0  0  0  0  0  0  0  0
   11.6529   -9.2936    0.0000 C   0  0  0  0  0  0  0  0  0  0  0  0
   24.3710   11.0595    0.0000 C   0  0  0  0  0  0  0  0  0  0  0  0
   12.1224  -10.1766    0.0000 C   0  0  0  0  0  0  0  0  0  0  0  0
   24.9009   11.9076    0.0000 C   0  0  0  0  0  0  0  0  0  0  0  0
   11.5925  -11.0246    0.0000 C   0  0  0  0  0  0  0  0  0  0  0  0
   25.9003   11.8727    0.0000 C   0  0  0  0  0  0  0  0  0  0  0  0
   12.0619  -11.9076    0.0000 C   0  0  0  0  0  0  0  0  0  0  0  0
    8.0351    7.3162    0.0000 H   0  0  0  0  0  0  0  0  0  0  0  0
    7.6097    6.2333    0.0000 H   0  0  0  0  0  0  0  0  0  0  0  0
    8.1315    7.8463    0.0000 H   0  0  0  0  0  0  0  0  0  0  0  0
    7.1290    8.8855    0.0000 H   0  0  0  0  0  0  0  0  0  0  0  0
    5.7559    8.3310    0.0000 H   0  0  0  0  0  0  0  0  0  0  0  0
    8.8702    5.8642    0.0000 H   0  0  0  0  0  0  0  0  0  0  0  0
    7.4788    4.6994    0.0000 H   0  0  0  0  0  0  0  0  0  0  0  0
    6.4499    3.6343    0.0000 H   0  0  0  0  0  0  0  0  0  0  0  0
    5.1190    4.2837    0.0000 H   0  0  0  0  0  0  0  0  0  0  0  0
    5.3254    5.7501    0.0000 H   0  0  0  0  0  0  0  0  0  0  0  0
   11.2573    5.6638    0.0000 H   0  0  0  0  0  0  0  0  0  0  0  0
   10.5813    6.0862    0.0000 H   0  0  0  0  0  0  0  0  0  0  0  0
    7.9915    9.4372    0.0000 H   0  0  0  0  0  0  0  0  0  0  0  0
    6.9001    9.8883    0.0000 H   0  0  0  0  0  0  0  0  0  0  0  0
   11.4282    4.0418    0.0000 H   0  0  0  0  0  0  0  0  0  0  0  0
    4.7624    5.9942    0.0000 H   0  0  0  0  0  0  0  0  0  0  0  0
    3.9828    5.8285    0.0000 H   0  0  0  0  0  0  0  0  0  0  0  0
    8.6125    4.9876    0.0000 H   0  0  0  0  0  0  0  0  0  0  0  0
    8.8098    4.1332    0.0000 H   0  0  0  0  0  0  0  0  0  0  0  0
    9.6641    4.3305    0.0000 H   0  0  0  0  0  0  0  0  0  0  0  0
    4.6480    6.4813    0.0000 H   0  0  0  0  0  0  0  0  0  0  0  0
   12.7561    4.5327    0.0000 H   0  0  0  0  0  0  0  0  0  0  0  0
    7.0670    2.8113    0.0000 H   0  0  0  0  0  0  0  0  0  0  0  0
   11.0566    7.7290    0.0000 H   0  0  0  0  0  0  0  0  0  0  0  0
    4.5270    3.4425    0.0000 H   0  0  0  0  0  0  0  0  0  0  0  0
    3.3301    9.4412    0.0000 H   0  0  0  0  0  0  0  0  0  0  0  0
    3.0368    6.6506    0.0000 H   0  0  0  0  0  0  0  0  0  0  0  0
    3.1385    4.9692    0.0000 H   0  0  0  0  0  0  0  0  0  0  0  0
    3.8571    4.1712    0.0000 H   0  0  0  0  0  0  0  0  0  0  0  0
    9.9876    3.7628    0.0000 H   0  0  0  0  0  0  0  0  0  0  0  0
   10.6501    6.0292    0.0000 H   0  0  0  0  0  0  0  0  0  0  0  0
   11.4886    5.7728    0.0000 H   0  0  0  0  0  0  0  0  0  0  0  0
   11.7450    6.6113    0.0000 H   0  0  0  0  0  0  0  0  0  0  0  0
   13.5837    3.0169    0.0000 H   0  0  0  0  0  0  0  0  0  0  0  0
   14.2250    3.6148    0.0000 H   0  0  0  0  0  0  0  0  0  0  0  0
   13.6270    4.2561    0.0000 H   0  0  0  0  0  0  0  0  0  0  0  0
   13.9569    4.8201    0.0000 H   0  0  0  0  0  0  0  0  0  0  0  0
   14.3246    6.8220    0.0000 H   0  0  0  0  0  0  0  0  0  0  0  0
   13.6209    6.4478    0.0000 H   0  0  0  0  0  0  0  0  0  0  0  0
   13.1651    1.9188    0.0000 H   0  0  0  0  0  0  0  0  0  0  0  0
   15.0662    5.5742    0.0000 H   0  0  0  0  0  0  0  0  0  0  0  0
   15.7700    5.9484    0.0000 H   0  0  0  0  0  0  0  0  0  0  0  0
   11.5549    1.5072    0.0000 H   0  0  0  0  0  0  0  0  0  0  0  0
   11.5270    0.7106    0.0000 H   0  0  0  0  0  0  0  0  0  0  0  0
   15.8539    7.6351    0.0000 H   0  0  0  0  0  0  0  0  0  0  0  0
   15.1502    7.2609    0.0000 H   0  0  0  0  0  0  0  0  0  0  0  0
   12.9458   -0.2055    0.0000 H   0  0  0  0  0  0  0  0  0  0  0  0
   12.9736    0.5911    0.0000 H   0  0  0  0  0  0  0  0  0  0  0  0
   16.5955    6.3873    0.0000 H   0  0  0  0  0  0  0  0  0  0  0  0
   17.2993    6.7615    0.0000 H   0  0  0  0  0  0  0  0  0  0  0  0
   17.3832    8.4483    0.0000 H   0  0  0  0  0  0  0  0  0  0  0  0
   16.6795    8.0741    0.0000 H   0  0  0  0  0  0  0  0  0  0  0  0
   11.4944   -0.2238    0.0000 H   0  0  0  0  0  0  0  0  0  0  0  0
   11.4666   -1.0204    0.0000 H   0  0  0  0  0  0  0  0  0  0  0  0
   18.1248    7.2005    0.0000 H   0  0  0  0  0  0  0  0  0  0  0  0
   18.8286    7.5747    0.0000 H   0  0  0  0  0  0  0  0  0  0  0  0
   12.8854   -1.9365    0.0000 H   0  0  0  0  0  0  0  0  0  0  0  0
   12.9132   -1.1399    0.0000 H   0  0  0  0  0  0  0  0  0  0  0  0
   11.4340   -1.9548    0.0000 H   0  0  0  0  0  0  0  0  0  0  0  0
   11.4061   -2.7514    0.0000 H   0  0  0  0  0  0  0  0  0  0  0  0
   18.9126    9.2614    0.0000 H   0  0  0  0  0  0  0  0  0  0  0  0
   18.2088    8.8872    0.0000 H   0  0  0  0  0  0  0  0  0  0  0  0
   12.8249   -3.6675    0.0000 H   0  0  0  0  0  0  0  0  0  0  0  0
   12.8527   -2.8709    0.0000 H   0  0  0  0  0  0  0  0  0  0  0  0
   19.6541    8.0136    0.0000 H   0  0  0  0  0  0  0  0  0  0  0  0
   20.3579    8.3878    0.0000 H   0  0  0  0  0  0  0  0  0  0  0  0
   11.3735   -3.6858    0.0000 H   0  0  0  0  0  0  0  0  0  0  0  0
   11.3457   -4.4824    0.0000 H   0  0  0  0  0  0  0  0  0  0  0  0
   20.4419   10.0746    0.0000 H   0  0  0  0  0  0  0  0  0  0  0  0
   19.7381    9.7004    0.0000 H   0  0  0  0  0  0  0  0  0  0  0  0
   12.7645   -5.3985    0.0000 H   0  0  0  0  0  0  0  0  0  0  0  0
   12.7923   -4.6019    0.0000 H   0  0  0  0  0  0  0  0  0  0  0  0
   21.1835    8.8268    0.0000 H   0  0  0  0  0  0  0  0  0  0  0  0
   21.8872    9.2010    0.0000 H   0  0  0  0  0  0  0  0  0  0  0  0
   11.3131   -5.4168    0.0000 H   0  0  0  0  0  0  0  0  0  0  0  0
   11.2852   -6.2134    0.0000 H   0  0  0  0  0  0  0  0  0  0  0  0
   21.9712   10.8877    0.0000 H   0  0  0  0  0  0  0  0  0  0  0  0
   21.2674   10.5135    0.0000 H   0  0  0  0  0  0  0  0  0  0  0  0
   12.7040   -7.1294    0.0000 H   0  0  0  0  0  0  0  0  0  0  0  0
   12.7318   -6.3329    0.0000 H   0  0  0  0  0  0  0  0  0  0  0  0
   11.2526   -7.1478    0.0000 H   0  0  0  0  0  0  0  0  0  0  0  0
   11.2248   -7.9443    0.0000 H   0  0  0  0  0  0  0  0  0  0  0  0
   22.7128    9.6399    0.0000 H   0  0  0  0  0  0  0  0  0  0  0  0
   23.4165   10.0141    0.0000 H   0  0  0  0  0  0  0  0  0  0  0  0
   12.6436   -8.8604    0.0000 H   0  0  0  0  0  0  0  0  0  0  0  0
   12.6714   -8.0639    0.0000 H   0  0  0  0  0  0  0  0  0  0  0  0
   23.5005   11.7009    0.0000 H   0  0  0  0  0  0  0  0  0  0  0  0
   22.7967   11.3267    0.0000 H   0  0  0  0  0  0  0  0  0  0  0  0
   11.1922   -8.8788    0.0000 H   0  0  0  0  0  0  0  0  0  0  0  0
   11.1643   -9.6753    0.0000 H   0  0  0  0  0  0  0  0  0  0  0  0
   24.2421   10.4531    0.0000 H   0  0  0  0  0  0  0  0  0  0  0  0
   24.9458   10.8273    0.0000 H   0  0  0  0  0  0  0  0  0  0  0  0
   12.5831  -10.5914    0.0000 H   0  0  0  0  0  0  0  0  0  0  0  0
   12.6110   -9.7949    0.0000 H   0  0  0  0  0  0  0  0  0  0  0  0
   25.0298   12.5140    0.0000 H   0  0  0  0  0  0  0  0  0  0  0  0
   24.3260   12.1398    0.0000 H   0  0  0  0  0  0  0  0  0  0  0  0
   11.1317  -10.6098    0.0000 H   0  0  0  0  0  0  0  0  0  0  0  0
   11.1039  -11.4063    0.0000 H   0  0  0  0  0  0  0  0  0  0  0  0
   25.8786   11.2531    0.0000 H   0  0  0  0  0  0  0  0  0  0  0  0
   26.5199   11.8510    0.0000 H   0  0  0  0  0  0  0  0  0  0  0  0
   25.9219   12.4923    0.0000 H   0  0  0  0  0  0  0  0  0  0  0  0
   11.5145  -12.1986    0.0000 H   0  0  0  0  0  0  0  0  0  0  0  0
   12.3530  -12.4550    0.0000 H   0  0  0  0  0  0  0  0  0  0  0  0
   12.6094  -11.6165    0.0000 H   0  0  0  0  0  0  0  0  0  0  0  0
  1 22  1  0  0  0  0
  1 26  1  0  0  0  0
 23  2  1  1  0  0  0
  2 28  1  0  0  0  0
  3 28  1  0  0  0  0
  3 31  1  0  0  0  0
 24  4  1  6  0  0  0
  4 90  1  0  0  0  0
 25  5  1  6  0  0  0
  5 91  1  0  0  0  0
 29  6  1  6  0  0  0
  6100  1  0  0  0  0
 30  7  1  6  0  0  0
  7102  1  0  0  0  0
  8 32  2  0  0  0  0
 34  9  1  1  0  0  0
  9107  1  0  0  0  0
 10 37  2  0  0  0  0
 11 41  2  0  0  0  0
 12 42  2  0  0  0  0
 13 45  2  0  0  0  0
 27 14  1  1  0  0  0
 14 33  1  0  0  0  0
 14 36  1  0  0  0  0
 15 26  1  0  0  0  0
 15 37  1  0  0  0  0
 15 38  1  0  0  0  0
 16 32  1  0  0  0  0
 16 43  1  0  0  0  0
 16101  1  0  0  0  0
 17 37  1  0  0  0  0
 17 42  1  0  0  0  0
 17103  1  0  0  0  0
 18 35  1  0  0  0  0
 18105  1  0  0  0  0
 18106  1  0  0  0  0
 19 39  1  0  0  0  0
 19 44  1  0  0  0  0
 19 45  1  0  0  0  0
 20 41  1  0  0  0  0
 20 46  1  0  0  0  0
 20114  1  0  0  0  0
 21 45  1  0  0  0  0
 21 48  1  0  0  0  0
 21117  1  0  0  0  0
 22 23  1  0  0  0  0
 22 24  1  0  0  0  0
 22 78  1  0  0  0  0
 23 27  1  0  0  0  0
 23 79  1  0  0  0  0
 24 25  1  0  0  0  0
 24 80  1  0  0  0  0
 25 26  1  0  0  0  0
 25 81  1  0  0  0  0
 26 82  1  0  0  0  0
 27 32  1  0  0  0  0
 27 83  1  0  0  0  0
 28 29  1  0  0  0  0
 28 84  1  0  0  0  0
 29 30  1  0  0  0  0
 29 85  1  0  0  0  0
 30 31  1  0  0  0  0
 30 86  1  0  0  0  0
 31 35  1  1  0  0  0
 31 87  1  0  0  0  0
 33 34  1  0  0  0  0
 33 88  1  0  0  0  0
 33 89  1  0  0  0  0
 34 39  1  0  0  0  0
 34 92  1  0  0  0  0
 35 93  1  0  0  0  0
 35 94  1  0  0  0  0
 36 95  1  0  0  0  0
 36 96  1  0  0  0  0
 36 97  1  0  0  0  0
 38 40  2  0  0  0  0
 38 98  1  0  0  0  0
 39 41  1  0  0  0  0
 39 99  1  0  0  0  0
 40 42  1  0  0  0  0
 40104  1  0  0  0  0
 43108  1  0  0  0  0
 43109  1  0  0  0  0
 43110  1  0  0  0  0
 44111  1  0  0  0  0
 44112  1  0  0  0  0
 44113  1  0  0  0  0
 46 47  1  0  0  0  0
 46115  1  0  0  0  0
 46116  1  0  0  0  0
 47 49  1  0  0  0  0
 47118  1  0  0  0  0
 47119  1  0  0  0  0
 48 50  1  0  0  0  0
 48120  1  0  0  0  0
 48121  1  0  0  0  0
 49 51  1  0  0  0  0
 49122  1  0  0  0  0
 49123  1  0  0  0  0
 50 53  1  0  0  0  0
 50124  1  0  0  0  0
 50125  1  0  0  0  0
 51 52  1  0  0  0  0
 51126  1  0  0  0  0
 51127  1  0  0  0  0
 52 54  1  0  0  0  0
 52128  1  0  0  0  0
 52129  1  0  0  0  0
 53 55  1  0  0  0  0
 53130  1  0  0  0  0
 53131  1  0  0  0  0
 54 57  1  0  0  0  0
 54132  1  0  0  0  0
 54133  1  0  0  0  0
 55 56  1  0  0  0  0
 55134  1  0  0  0  0
 55135  1  0  0  0  0
 56 58  1  0  0  0  0
 56136  1  0  0  0  0
 56137  1  0  0  0  0
 57 59  1  0  0  0  0
 57138  1  0  0  0  0
 57139  1  0  0  0  0
 58 60  1  0  0  0  0
 58140  1  0  0  0  0
 58141  1  0  0  0  0
 59 61  1  0  0  0  0
 59142  1  0  0  0  0
 59143  1  0  0  0  0
 60 62  1  0  0  0  0
 60144  1  0  0  0  0
 60145  1  0  0  0  0
 61 63  1  0  0  0  0
 61146  1  0  0  0  0
 61147  1  0  0  0  0
 62 64  1  0  0  0  0
 62148  1  0  0  0  0
 62149  1  0  0  0  0
 63 65  1  0  0  0  0
 63150  1  0  0  0  0
 63151  1  0  0  0  0
 64 66  1  0  0  0  0
 64152  1  0  0  0  0
 64153  1  0  0  0  0
 65 68  1  0  0  0  0
 65154  1  0  0  0  0
 65155  1  0  0  0  0
 66 67  1  0  0  0  0
 66156  1  0  0  0  0
 66157  1  0  0  0  0
 67 69  1  0  0  0  0
 67158  1  0  0  0  0
 67159  1  0  0  0  0
 68 70  1  0  0  0  0
 68160  1  0  0  0  0
 68161  1  0  0  0  0
 69 71  1  0  0  0  0
 69162  1  0  0  0  0
 69163  1  0  0  0  0
 70 72  1  0  0  0  0
 70164  1  0  0  0  0
 70165  1  0  0  0  0
 71 73  1  0  0  0  0
 71166  1  0  0  0  0
 71167  1  0  0  0  0
 72 74  1  0  0  0  0
 72168  1  0  0  0  0
 72169  1  0  0  0  0
 73 75  1  0  0  0  0
 73170  1  0  0  0  0
 73171  1  0  0  0  0
 74 76  1  0  0  0  0
 74172  1  0  0  0  0
 74173  1  0  0  0  0
 75 77  1  0  0  0  0
 75174  1  0  0  0  0
 75175  1  0  0  0  0
 76176  1  0  0  0  0
 76177  1  0  0  0  0
 76178  1  0  0  0  0
 77179  1  0  0  0  0
 77180  1  0  0  0  0
 77181  1  0  0  0  0
M  END
> <PUBCHEM_COMPOUND_CID>
510179
> <PUBCHEM_COMPOUND_CANONICALIZED>
1
> <PUBCHEM_CACTVS_COMPLEXITY>
1700
> <PUBCHEM_CACTVS_HBOND_ACCEPTOR>
15
> <PUBCHEM_CACTVS_HBOND_DONOR>
10
> <PUBCHEM_CACTVS_ROTATABLE_BOND>
43
> <PUBCHEM_CACTVS_SUBSKEYS>
AAADcfB//AAAAAAAAAAAAAAAAAAAASJAAAAgAAAAAAAAAAAAAAAAHgAQCAAACDzxgAcDCAPABgCIACFWUACAAAAAAgAIAIGIAECTUBYAwCA/QAAPNyKXAMH+/K/AAAAAAAAAAAAAAAAAAAAAAAAAAAAAAA==
> <PUBCHEM_IUPAC_OPENEYE_NAME>
(3S)-4-[[(1S)-1-[(R)-[(3R,4S,5R)-5-(aminomethyl)-3,4-dihydroxy-tetrahydrofuran-2-yl]oxy-[(3S,4R)-5-(2,4-dioxopyrimidin-1-yl)-3,4-dihydroxy-tetrahydrofuran-2-yl]methyl]-2-(methylamino)-2-oxo-ethyl]-methyl-amino]-N-hexadecyl-2-[hexadecylcarbamoyl(methyl)amino]-3-hydroxy-butanamide
> <PUBCHEM_IUPAC_CAS_NAME>
(3S)-4-[[(1R,2S)-1-[[(3R,4S,5R)-5-(aminomethyl)-3,4-dihydroxy-2-oxolanyl]oxy]-1-[(3S,4R)-5-(2,4-dioxo-1-pyrimidinyl)-3,4-dihydroxy-2-oxolanyl]-3-(methylamino)-3-oxopropan-2-yl]-methylamino]-N-hexadecyl-2-[[(hexadecylamino)-oxomethyl]-methylamino]-3-hydroxybutanamide
> <PUBCHEM_IUPAC_NAME_MARKUP>
(3<I>S</I>)-4-[[(1<I>R</I>,2<I>S</I>)-1-[(3<I>R</I>,4<I>S</I>,5<I>R</I>)-5-(aminomethyl)-3,4-dihydroxyoxolan-2-yl]oxy-1-[(3<I>S</I>,4<I>R</I>)-5-(2,4-dioxopyrimidin-1-yl)-3,4-dihydroxyoxolan-2-yl]-3-(methylamino)-3-oxopropan-2-yl]-methylamino]-<I>N</I>-hexadecyl-2-[hexadecylcarbamoyl(methyl)amino]-3-hydroxybutanamide
> <PUBCHEM_IUPAC_NAME>
(3S)-4-[[(1R,2S)-1-[(3R,4S,5R)-5-(aminomethyl)-3,4-dihydroxyoxolan-2-yl]oxy-1-[(3S,4R)-5-(2,4-dioxopyrimidin-1-yl)-3,4-dihydroxyoxolan-2-yl]-3-(methylamino)-3-oxopropan-2-yl]-methylamino]-N-hexadecyl-2-[hexadecylcarbamoyl(methyl)amino]-3-hydroxybutanamide
> <PUBCHEM_IUPAC_SYSTEMATIC_NAME>
(3S)-4-[[(1R,2S)-1-[(3R,4S,5R)-5-(aminomethyl)-3,4-bis(oxidanyl)oxolan-2-yl]oxy-1-[(3S,4R)-5-[2,4-bis(oxidanylidene)pyrimidin-1-yl]-3,4-bis(oxidanyl)oxolan-2-yl]-3-(methylamino)-3-oxidanylidene-propan-2-yl]-methyl-amino]-N-hexadecyl-2-[hexadecylcarbamoyl(methyl)amino]-3-oxidanyl-butanamide
> <PUBCHEM_IUPAC_TRADITIONAL_NAME>
(3S)-4-[[(1S)-1-[(R)-[(3R,4S,5R)-5-(aminomethyl)-3,4-dihydroxy-tetrahydrofuran-2-yl]oxy-[(3S,4R)-5-(2,4-diketopyrimidin-1-yl)-3,4-dihydroxy-tetrahydrofuran-2-yl]methyl]-2-keto-2-(methylamino)ethyl]-methyl-amino]-N-cetyl-2-[cetylcarbamoyl(methyl)amino]-3-hydroxy-butyramide
> <PUBCHEM_IUPAC_INCHI>
InChI=1S/C56H104N8O13/c1-6-8-10-12-14-16-18-20-22-24-26-28-30-32-35-59-52(72)43(63(5)55(73)60-36-33-31-29-27-25-23-21-19-17-15-13-11-9-7-2)40(65)39-62(4)44(51(71)58-3)49(77-54-48(70)45(67)41(38-57)75-54)50-46(68)47(69)53(76-50)64-37-34-42(66)61-56(64)74/h34,37,40-41,43-50,53-54,65,67-70H,6-33,35-36,38-39,57H2,1-5H3,(H,58,71)(H,59,72)(H,60,73)(H,61,66,74)/t40-,41+,43?,44-,45+,46-,47+,48+,49+,50?,53?,54?/m0/s1
> <PUBCHEM_IUPAC_INCHIKEY>
VBWKBZGZZVIYRP-WITZLLLPSA-N
> <PUBCHEM_XLOGP3_AA>
9
> <PUBCHEM_EXACT_MASS>
1096.77228540
> <PUBCHEM_MOLECULAR_FORMULA>
C56H104N8O13
> <PUBCHEM_MOLECULAR_WEIGHT>
1097.5
> <PUBCHEM_OPENEYE_CAN_SMILES>
CCCCCCCCCCCCCCCCNC(=O)C(C(CN(C)C(C(C1C(C(C(O1)N2C=CC(=O)NC2=O)O)O)OC3C(C(C(O3)CN)O)O)C(=O)NC)O)N(C)C(=O)NCCCCCCCCCCCCCCCC
> <PUBCHEM_OPENEYE_ISO_SMILES>
CCCCCCCCCCCCCCCCNC(=O)C([C@H](CN(C)[C@@H]([C@H](C1[C@H]([C@H](C(O1)N2C=CC(=O)NC2=O)O)O)OC3[C@@H]([C@@H]([C@H](O3)CN)O)O)C(=O)NC)O)N(C)C(=O)NCCCCCCCCCCCCCCCC
> <PUBCHEM_CACTVS_TPSA>
298
> <PUBCHEM_MONOISOTOPIC_WEIGHT>
1096.77228540
> <PUBCHEM_TOTAL_CHARGE>
0
> <PUBCHEM_HEAVY_ATOM_COUNT>
77
> <PUBCHEM_ATOM_DEF_STEREO_COUNT>
8
> <PUBCHEM_ATOM_UDEF_STEREO_COUNT>
4
> <PUBCHEM_BOND_DEF_STEREO_COUNT>
0
> <PUBCHEM_BOND_UDEF_STEREO_COUNT>
0
> <PUBCHEM_ISOTOPIC_ATOM_COUNT>
0
> <PUBCHEM_COMPONENT_COUNT>
1
> <PUBCHEM_CACTVS_TAUTO_COUNT>
-1
> <PUBCHEM_COORDINATE_TYPE>
1
5
255
> <PUBCHEM_BONDANNOTATIONS>
22  1  3
27  14  5
26  15  3
15  37  8
15  38  8
17  37  8
17  42  8
23  2  5
28  2  3
31  35  5
38  40  8
39  41  3
24  4  6
40  42  8
25  5  6
29  6  6
30  7  6
34  9  5
$$$$
