510165
  -OEChem-10302200282D
129131  0     1  0  0  0  0  0999 V2000
    6.4781    3.7951    0.0000 O   0  0  0  0  0  0  0  0  0  0  0  0
    7.9915    2.3558    0.0000 O   0  0  0  0  0  0  0  0  0  0  0  0
    6.2314    2.6345    0.0000 O   0  0  0  0  0  0  0  0  0  0  0  0
    8.2036    5.7636    0.0000 O   0  0  0  0  0  0  0  0  0  0  0  0
    6.4393    6.3825    0.0000 O   0  0  0  0  0  0  0  0  0  0  0  0
    7.3192    0.2867    0.0000 O   0  0  0  0  0  0  0  0  0  0  0  0
    5.1436    0.2867    0.0000 O   0  0  0  0  0  0  0  0  0  0  0  0
    9.2592    5.0300    0.0000 O   0  0  0  0  0  0  0  0  0  0  0  0
   10.6072    0.6502    0.0000 O   0  0  0  0  0  0  0  0  0  0  0  0
    5.1646    6.4882    0.0000 O   0  0  0  0  0  0  0  0  0  0  0  0
    2.0000    5.0793    0.0000 O   0  0  0  0  0  0  0  0  0  0  0  0
   12.0760   -0.2677    0.0000 O   0  0  0  0  0  0  0  0  0  0  0  0
    9.6682    2.4161    0.0000 N   0  0  3  0  0  0  0  0  0  0  0  0
    4.9836    4.7657    0.0000 N   0  0  0  0  0  0  0  0  0  0  0  0
   10.7281    4.1122    0.0000 N   0  0  0  0  0  0  0  0  0  0  0  0
    3.5823    5.7838    0.0000 N   0  0  0  0  0  0  0  0  0  0  0  0
    3.7282    1.6866    0.0000 N   0  0  0  0  0  0  0  0  0  0  0  0
   12.6664    2.3114    0.0000 N   0  0  0  0  0  0  0  0  0  0  0  0
   13.6054    0.5455    0.0000 N   0  0  0  0  0  0  0  0  0  0  0  0
    7.4562    4.0030    0.0000 C   0  0  3  0  0  0  0  0  0  0  0  0
    8.1994    3.3339    0.0000 C   0  0  1  0  0  0  0  0  0  0  0  0
    7.5608    4.9976    0.0000 C   0  0  2  0  0  0  0  0  0  0  0  0
    6.6472    5.4043    0.0000 C   0  0  2  0  0  0  0  0  0  0  0  0
    5.9781    4.6612    0.0000 C   0  0  3  0  0  0  0  0  0  0  0  0
    9.1988    3.2990    0.0000 C   0  0  1  0  0  0  0  0  0  0  0  0
    7.0404    2.0468    0.0000 C   0  0  3  0  0  0  0  0  0  0  0  0
    6.7314    1.0957    0.0000 C   0  0  1  0  0  0  0  0  0  0  0  0
    5.7314    1.0957    0.0000 C   0  0  1  0  0  0  0  0  0  0  0  0
    5.4224    2.0468    0.0000 C   0  0  1  0  0  0  0  0  0  0  0  0
    9.7287    4.1471    0.0000 C   0  0  0  0  0  0  0  0  0  0  0  0
   10.6676    2.3812    0.0000 C   0  0  0  0  0  0  0  0  0  0  0  0
    4.4713    2.3558    0.0000 C   0  0  0  0  0  0  0  0  0  0  0  0
    9.1383    1.5680    0.0000 C   0  0  0  0  0  0  0  0  0  0  0  0
   11.1371    1.4982    0.0000 C   0  0  1  0  0  0  0  0  0  0  0  0
    4.5768    5.6792    0.0000 C   0  0  0  0  0  0  0  0  0  0  0  0
    4.3958    3.9567    0.0000 C   0  0  0  0  0  0  0  0  0  0  0  0
   12.1365    1.4633    0.0000 C   0  0  3  0  0  0  0  0  0  0  0  0
    3.4013    4.0612    0.0000 C   0  0  0  0  0  0  0  0  0  0  0  0
    2.9945    4.9747    0.0000 C   0  0  0  0  0  0  0  0  0  0  0  0
   11.1976    3.2292    0.0000 C   0  0  0  0  0  0  0  0  0  0  0  0
   12.6060    0.5804    0.0000 C   0  0  0  0  0  0  0  0  0  0  0  0
   13.6658    2.2765    0.0000 C   0  0  0  0  0  0  0  0  0  0  0  0
   14.0748   -0.3375    0.0000 C   0  0  0  0  0  0  0  0  0  0  0  0
   15.0742   -0.3724    0.0000 C   0  0  0  0  0  0  0  0  0  0  0  0
   15.5437   -1.2553    0.0000 C   0  0  0  0  0  0  0  0  0  0  0  0
   16.5431   -1.2902    0.0000 C   0  0  0  0  0  0  0  0  0  0  0  0
   17.0126   -2.1732    0.0000 C   0  0  0  0  0  0  0  0  0  0  0  0
   18.0119   -2.2081    0.0000 C   0  0  0  0  0  0  0  0  0  0  0  0
   18.4814   -3.0910    0.0000 C   0  0  0  0  0  0  0  0  0  0  0  0
   19.4808   -3.1259    0.0000 C   0  0  0  0  0  0  0  0  0  0  0  0
   19.9503   -4.0089    0.0000 C   0  0  0  0  0  0  0  0  0  0  0  0
   20.9497   -4.0438    0.0000 C   0  0  0  0  0  0  0  0  0  0  0  0
   21.4191   -4.9267    0.0000 C   0  0  0  0  0  0  0  0  0  0  0  0
   22.4185   -4.9616    0.0000 C   0  0  0  0  0  0  0  0  0  0  0  0
   22.8880   -5.8446    0.0000 C   0  0  0  0  0  0  0  0  0  0  0  0
   23.8874   -5.8795    0.0000 C   0  0  0  0  0  0  0  0  0  0  0  0
   24.3569   -6.7624    0.0000 C   0  0  0  0  0  0  0  0  0  0  0  0
   25.3563   -6.7973    0.0000 C   0  0  0  0  0  0  0  0  0  0  0  0
    8.0351    4.2252    0.0000 H   0  0  0  0  0  0  0  0  0  0  0  0
    7.6097    3.1423    0.0000 H   0  0  0  0  0  0  0  0  0  0  0  0
    8.1315    4.7553    0.0000 H   0  0  0  0  0  0  0  0  0  0  0  0
    7.1290    5.7945    0.0000 H   0  0  0  0  0  0  0  0  0  0  0  0
    5.6404    4.1412    0.0000 H   0  0  0  0  0  0  0  0  0  0  0  0
    8.8702    2.7732    0.0000 H   0  0  0  0  0  0  0  0  0  0  0  0
    7.1374    2.6591    0.0000 H   0  0  0  0  0  0  0  0  0  0  0  0
    6.4499    0.5433    0.0000 H   0  0  0  0  0  0  0  0  0  0  0  0
    5.1190    1.1927    0.0000 H   0  0  0  0  0  0  0  0  0  0  0  0
    5.3254    2.6591    0.0000 H   0  0  0  0  0  0  0  0  0  0  0  0
   11.2573    2.5728    0.0000 H   0  0  0  0  0  0  0  0  0  0  0  0
   10.5813    2.9951    0.0000 H   0  0  0  0  0  0  0  0  0  0  0  0
    7.9915    6.3462    0.0000 H   0  0  0  0  0  0  0  0  0  0  0  0
    6.9001    6.7973    0.0000 H   0  0  0  0  0  0  0  0  0  0  0  0
    4.7624    2.9032    0.0000 H   0  0  0  0  0  0  0  0  0  0  0  0
    3.9828    2.7375    0.0000 H   0  0  0  0  0  0  0  0  0  0  0  0
    8.6125    1.8966    0.0000 H   0  0  0  0  0  0  0  0  0  0  0  0
    8.8098    1.0422    0.0000 H   0  0  0  0  0  0  0  0  0  0  0  0
    9.6641    1.2395    0.0000 H   0  0  0  0  0  0  0  0  0  0  0  0
   11.4282    0.9508    0.0000 H   0  0  0  0  0  0  0  0  0  0  0  0
    4.6480    3.3903    0.0000 H   0  0  0  0  0  0  0  0  0  0  0  0
    7.0670   -0.2797    0.0000 H   0  0  0  0  0  0  0  0  0  0  0  0
   11.8454    2.0107    0.0000 H   0  0  0  0  0  0  0  0  0  0  0  0
   11.0566    4.6380    0.0000 H   0  0  0  0  0  0  0  0  0  0  0  0
    4.5270    0.3515    0.0000 H   0  0  0  0  0  0  0  0  0  0  0  0
    3.3301    6.3502    0.0000 H   0  0  0  0  0  0  0  0  0  0  0  0
    3.0368    3.5596    0.0000 H   0  0  0  0  0  0  0  0  0  0  0  0
    3.1385    1.8782    0.0000 H   0  0  0  0  0  0  0  0  0  0  0  0
    3.8571    1.0802    0.0000 H   0  0  0  0  0  0  0  0  0  0  0  0
   10.6501    2.9381    0.0000 H   0  0  0  0  0  0  0  0  0  0  0  0
   11.4886    2.6818    0.0000 H   0  0  0  0  0  0  0  0  0  0  0  0
   11.7450    3.5203    0.0000 H   0  0  0  0  0  0  0  0  0  0  0  0
   10.8983    0.1027    0.0000 H   0  0  0  0  0  0  0  0  0  0  0  0
   12.3753    2.8588    0.0000 H   0  0  0  0  0  0  0  0  0  0  0  0
   13.9339    1.0713    0.0000 H   0  0  0  0  0  0  0  0  0  0  0  0
   13.6442    1.6568    0.0000 H   0  0  0  0  0  0  0  0  0  0  0  0
   14.2854    2.2548    0.0000 H   0  0  0  0  0  0  0  0  0  0  0  0
   13.6874    2.8961    0.0000 H   0  0  0  0  0  0  0  0  0  0  0  0
   13.4852   -0.5291    0.0000 H   0  0  0  0  0  0  0  0  0  0  0  0
   14.1611   -0.9514    0.0000 H   0  0  0  0  0  0  0  0  0  0  0  0
   15.6639   -0.1808    0.0000 H   0  0  0  0  0  0  0  0  0  0  0  0
   14.9879    0.2416    0.0000 H   0  0  0  0  0  0  0  0  0  0  0  0
   14.9540   -1.4469    0.0000 H   0  0  0  0  0  0  0  0  0  0  0  0
   15.6300   -1.8693    0.0000 H   0  0  0  0  0  0  0  0  0  0  0  0
   17.1327   -1.0986    0.0000 H   0  0  0  0  0  0  0  0  0  0  0  0
   16.4568   -0.6763    0.0000 H   0  0  0  0  0  0  0  0  0  0  0  0
   16.4229   -2.3648    0.0000 H   0  0  0  0  0  0  0  0  0  0  0  0
   17.0988   -2.7871    0.0000 H   0  0  0  0  0  0  0  0  0  0  0  0
   18.6016   -2.0165    0.0000 H   0  0  0  0  0  0  0  0  0  0  0  0
   17.9257   -1.5941    0.0000 H   0  0  0  0  0  0  0  0  0  0  0  0
   17.8918   -3.2826    0.0000 H   0  0  0  0  0  0  0  0  0  0  0  0
   18.5677   -3.7050    0.0000 H   0  0  0  0  0  0  0  0  0  0  0  0
   20.0705   -2.9343    0.0000 H   0  0  0  0  0  0  0  0  0  0  0  0
   19.3945   -2.5120    0.0000 H   0  0  0  0  0  0  0  0  0  0  0  0
   19.3606   -4.2005    0.0000 H   0  0  0  0  0  0  0  0  0  0  0  0
   20.0366   -4.6228    0.0000 H   0  0  0  0  0  0  0  0  0  0  0  0
   21.5393   -3.8522    0.0000 H   0  0  0  0  0  0  0  0  0  0  0  0
   20.8634   -3.4298    0.0000 H   0  0  0  0  0  0  0  0  0  0  0  0
   20.8295   -5.1183    0.0000 H   0  0  0  0  0  0  0  0  0  0  0  0
   21.5054   -5.5407    0.0000 H   0  0  0  0  0  0  0  0  0  0  0  0
   23.0082   -4.7700    0.0000 H   0  0  0  0  0  0  0  0  0  0  0  0
   22.3322   -4.3476    0.0000 H   0  0  0  0  0  0  0  0  0  0  0  0
   22.2983   -6.0362    0.0000 H   0  0  0  0  0  0  0  0  0  0  0  0
   22.9743   -6.4585    0.0000 H   0  0  0  0  0  0  0  0  0  0  0  0
   24.4771   -5.6879    0.0000 H   0  0  0  0  0  0  0  0  0  0  0  0
   23.8011   -5.2655    0.0000 H   0  0  0  0  0  0  0  0  0  0  0  0
   23.7672   -6.9540    0.0000 H   0  0  0  0  0  0  0  0  0  0  0  0
   24.4432   -7.3764    0.0000 H   0  0  0  0  0  0  0  0  0  0  0  0
   25.3346   -7.4169    0.0000 H   0  0  0  0  0  0  0  0  0  0  0  0
   25.9759   -6.8190    0.0000 H   0  0  0  0  0  0  0  0  0  0  0  0
   25.3779   -6.1777    0.0000 H   0  0  0  0  0  0  0  0  0  0  0  0
  1 20  1  0  0  0  0
  1 24  1  0  0  0  0
 21  2  1  1  0  0  0
  2 26  1  0  0  0  0
  3 26  1  0  0  0  0
  3 29  1  0  0  0  0
 22  4  1  6  0  0  0
  4 71  1  0  0  0  0
 23  5  1  6  0  0  0
  5 72  1  0  0  0  0
 27  6  1  6  0  0  0
  6 80  1  0  0  0  0
 28  7  1  6  0  0  0
  7 83  1  0  0  0  0
  8 30  2  0  0  0  0
 34  9  1  1  0  0  0
  9 91  1  0  0  0  0
 10 35  2  0  0  0  0
 11 39  2  0  0  0  0
 12 41  2  0  0  0  0
 25 13  1  1  0  0  0
 13 31  1  0  0  0  0
 13 33  1  0  0  0  0
 14 24  1  0  0  0  0
 14 35  1  0  0  0  0
 14 36  1  0  0  0  0
 15 30  1  0  0  0  0
 15 40  1  0  0  0  0
 15 82  1  0  0  0  0
 16 35  1  0  0  0  0
 16 39  1  0  0  0  0
 16 84  1  0  0  0  0
 17 32  1  0  0  0  0
 17 86  1  0  0  0  0
 17 87  1  0  0  0  0
 18 37  1  0  0  0  0
 18 42  1  0  0  0  0
 18 92  1  0  0  0  0
 19 41  1  0  0  0  0
 19 43  1  0  0  0  0
 19 93  1  0  0  0  0
 20 21  1  0  0  0  0
 20 22  1  0  0  0  0
 20 59  1  0  0  0  0
 21 25  1  0  0  0  0
 21 60  1  0  0  0  0
 22 23  1  0  0  0  0
 22 61  1  0  0  0  0
 23 24  1  0  0  0  0
 23 62  1  0  0  0  0
 24 63  1  0  0  0  0
 25 30  1  0  0  0  0
 25 64  1  0  0  0  0
 26 27  1  0  0  0  0
 26 65  1  0  0  0  0
 27 28  1  0  0  0  0
 27 66  1  0  0  0  0
 28 29  1  0  0  0  0
 28 67  1  0  0  0  0
 29 32  1  1  0  0  0
 29 68  1  0  0  0  0
 31 34  1  0  0  0  0
 31 69  1  0  0  0  0
 31 70  1  0  0  0  0
 32 73  1  0  0  0  0
 32 74  1  0  0  0  0
 33 75  1  0  0  0  0
 33 76  1  0  0  0  0
 33 77  1  0  0  0  0
 34 37  1  0  0  0  0
 34 78  1  0  0  0  0
 36 38  2  0  0  0  0
 36 79  1  0  0  0  0
 37 41  1  0  0  0  0
 37 81  1  0  0  0  0
 38 39  1  0  0  0  0
 38 85  1  0  0  0  0
 40 88  1  0  0  0  0
 40 89  1  0  0  0  0
 40 90  1  0  0  0  0
 42 94  1  0  0  0  0
 42 95  1  0  0  0  0
 42 96  1  0  0  0  0
 43 44  1  0  0  0  0
 43 97  1  0  0  0  0
 43 98  1  0  0  0  0
 44 45  1  0  0  0  0
 44 99  1  0  0  0  0
 44100  1  0  0  0  0
 45 46  1  0  0  0  0
 45101  1  0  0  0  0
 45102  1  0  0  0  0
 46 47  1  0  0  0  0
 46103  1  0  0  0  0
 46104  1  0  0  0  0
 47 48  1  0  0  0  0
 47105  1  0  0  0  0
 47106  1  0  0  0  0
 48 49  1  0  0  0  0
 48107  1  0  0  0  0
 48108  1  0  0  0  0
 49 50  1  0  0  0  0
 49109  1  0  0  0  0
 49110  1  0  0  0  0
 50 51  1  0  0  0  0
 50111  1  0  0  0  0
 50112  1  0  0  0  0
 51 52  1  0  0  0  0
 51113  1  0  0  0  0
 51114  1  0  0  0  0
 52 53  1  0  0  0  0
 52115  1  0  0  0  0
 52116  1  0  0  0  0
 53 54  1  0  0  0  0
 53117  1  0  0  0  0
 53118  1  0  0  0  0
 54 55  1  0  0  0  0
 54119  1  0  0  0  0
 54120  1  0  0  0  0
 55 56  1  0  0  0  0
 55121  1  0  0  0  0
 55122  1  0  0  0  0
 56 57  1  0  0  0  0
 56123  1  0  0  0  0
 56124  1  0  0  0  0
 57 58  1  0  0  0  0
 57125  1  0  0  0  0
 57126  1  0  0  0  0
 58127  1  0  0  0  0
 58128  1  0  0  0  0
 58129  1  0  0  0  0
M  END
> <PUBCHEM_COMPOUND_CID>
510165
> <PUBCHEM_COMPOUND_CANONICALIZED>
1
> <PUBCHEM_CACTVS_COMPLEXITY>
1300
> <PUBCHEM_CACTVS_HBOND_ACCEPTOR>
15
> <PUBCHEM_CACTVS_HBOND_DONOR>
10
> <PUBCHEM_CACTVS_ROTATABLE_BOND>
28
> <PUBCHEM_CACTVS_SUBSKEYS>
AAADcfB/vAAAAAAAAAAAAAAAAAAAASJAAAAgAAAAAAAAAAAAAAAAHgAQCAAACDzxgAcDCAPABgCIACFWUACAAAAAAgAIAIGIAECTUBYAwCA/QAAPNyKXAMH+/K/AAAAAAAAAAAAAAAAAAAAAAAAAAAAAAA==
> <PUBCHEM_IUPAC_OPENEYE_NAME>
(3S)-4-[[(1S)-1-[(R)-[(3R,4S,5R)-5-(aminomethyl)-3,4-dihydroxy-tetrahydrofuran-2-yl]oxy-[(3S,4R)-5-(2,4-dioxopyrimidin-1-yl)-3,4-dihydroxy-tetrahydrofuran-2-yl]methyl]-2-(methylamino)-2-oxo-ethyl]-methyl-amino]-N-hexadecyl-3-hydroxy-2-(methylamino)butanamide
> <PUBCHEM_IUPAC_CAS_NAME>
(3S)-4-[[(1R,2S)-1-[[(3R,4S,5R)-5-(aminomethyl)-3,4-dihydroxy-2-oxolanyl]oxy]-1-[(3S,4R)-5-(2,4-dioxo-1-pyrimidinyl)-3,4-dihydroxy-2-oxolanyl]-3-(methylamino)-3-oxopropan-2-yl]-methylamino]-N-hexadecyl-3-hydroxy-2-(methylamino)butanamide
> <PUBCHEM_IUPAC_NAME_MARKUP>
(3<I>S</I>)-4-[[(1<I>R</I>,2<I>S</I>)-1-[(3<I>R</I>,4<I>S</I>,5<I>R</I>)-5-(aminomethyl)-3,4-dihydroxyoxolan-2-yl]oxy-1-[(3<I>S</I>,4<I>R</I>)-5-(2,4-dioxopyrimidin-1-yl)-3,4-dihydroxyoxolan-2-yl]-3-(methylamino)-3-oxopropan-2-yl]-methylamino]-<I>N</I>-hexadecyl-3-hydroxy-2-(methylamino)butanamide
> <PUBCHEM_IUPAC_NAME>
(3S)-4-[[(1R,2S)-1-[(3R,4S,5R)-5-(aminomethyl)-3,4-dihydroxyoxolan-2-yl]oxy-1-[(3S,4R)-5-(2,4-dioxopyrimidin-1-yl)-3,4-dihydroxyoxolan-2-yl]-3-(methylamino)-3-oxopropan-2-yl]-methylamino]-N-hexadecyl-3-hydroxy-2-(methylamino)butanamide
> <PUBCHEM_IUPAC_SYSTEMATIC_NAME>
(3S)-4-[[(1R,2S)-1-[(3R,4S,5R)-5-(aminomethyl)-3,4-bis(oxidanyl)oxolan-2-yl]oxy-1-[(3S,4R)-5-[2,4-bis(oxidanylidene)pyrimidin-1-yl]-3,4-bis(oxidanyl)oxolan-2-yl]-3-(methylamino)-3-oxidanylidene-propan-2-yl]-methyl-amino]-N-hexadecyl-2-(methylamino)-3-oxidanyl-butanamide
> <PUBCHEM_IUPAC_TRADITIONAL_NAME>
(3S)-4-[[(1S)-1-[(R)-[(3R,4S,5R)-5-(aminomethyl)-3,4-dihydroxy-tetrahydrofuran-2-yl]oxy-[(3S,4R)-5-(2,4-diketopyrimidin-1-yl)-3,4-dihydroxy-tetrahydrofuran-2-yl]methyl]-2-keto-2-(methylamino)ethyl]-methyl-amino]-N-cetyl-3-hydroxy-2-(methylamino)butyramide
> <PUBCHEM_IUPAC_INCHI>
InChI=1S/C39H71N7O12/c1-5-6-7-8-9-10-11-12-13-14-15-16-17-18-20-43-35(53)27(41-2)24(47)23-45(4)28(36(54)42-3)33(58-38-32(52)29(49)25(22-40)56-38)34-30(50)31(51)37(57-34)46-21-19-26(48)44-39(46)55/h19,21,24-25,27-34,37-38,41,47,49-52H,5-18,20,22-23,40H2,1-4H3,(H,42,54)(H,43,53)(H,44,48,55)/t24-,25+,27?,28-,29+,30-,31+,32+,33+,34?,37?,38?/m0/s1
> <PUBCHEM_IUPAC_INCHIKEY>
PVIGWBSBKGDLDL-DBYZHPLKSA-N
> <PUBCHEM_XLOGP3_AA>
1.5
> <PUBCHEM_EXACT_MASS>
829.51607073
> <PUBCHEM_MOLECULAR_FORMULA>
C39H71N7O12
> <PUBCHEM_MOLECULAR_WEIGHT>
830.0
> <PUBCHEM_OPENEYE_CAN_SMILES>
CCCCCCCCCCCCCCCCNC(=O)C(C(CN(C)C(C(C1C(C(C(O1)N2C=CC(=O)NC2=O)O)O)OC3C(C(C(O3)CN)O)O)C(=O)NC)O)NC
> <PUBCHEM_OPENEYE_ISO_SMILES>
CCCCCCCCCCCCCCCCNC(=O)C([C@H](CN(C)[C@@H]([C@H](C1[C@H]([C@H](C(O1)N2C=CC(=O)NC2=O)O)O)OC3[C@@H]([C@@H]([C@H](O3)CN)O)O)C(=O)NC)O)NC
> <PUBCHEM_CACTVS_TPSA>
278
> <PUBCHEM_MONOISOTOPIC_WEIGHT>
829.51607073
> <PUBCHEM_TOTAL_CHARGE>
0
> <PUBCHEM_HEAVY_ATOM_COUNT>
58
> <PUBCHEM_ATOM_DEF_STEREO_COUNT>
8
> <PUBCHEM_ATOM_UDEF_STEREO_COUNT>
4
> <PUBCHEM_BOND_DEF_STEREO_COUNT>
0
> <PUBCHEM_BOND_UDEF_STEREO_COUNT>
0
> <PUBCHEM_ISOTOPIC_ATOM_COUNT>
0
> <PUBCHEM_COMPONENT_COUNT>
1
> <PUBCHEM_CACTVS_TAUTO_COUNT>
-1
> <PUBCHEM_COORDINATE_TYPE>
1
5
255
> <PUBCHEM_BONDANNOTATIONS>
20  1  3
25  13  5
24  14  3
14  35  8
14  36  8
16  35  8
16  39  8
21  2  5
26  2  3
29  32  5
36  38  8
37  41  3
38  39  8
22  4  6
23  5  6
27  6  6
28  7  6
34  9  5
$$$$
