510146
  -OEChem-10302200282D
 29 31  0     1  0  0  0  0  0999 V2000
    5.9405    0.5794    0.0000 O   0  0  0  0  0  0  0  0  0  0  0  0
    7.6651    1.7575    0.0000 O   0  0  0  0  0  0  0  0  0  0  0  0
    4.6783   -0.6785    0.0000 N   0  0  0  0  0  0  0  0  0  0  0  0
    4.6783   -2.2880    0.0000 N   0  0  0  0  0  0  0  0  0  0  0  0
    2.8660   -0.4832    0.0000 N   0  0  0  0  0  0  0  0  0  0  0  0
    2.0000   -1.9832    0.0000 N   0  0  0  0  0  0  0  0  0  0  0  0
    2.8660   -3.4832    0.0000 N   0  0  0  0  0  0  0  0  0  0  0  0
    4.3770    3.7932    0.0000 N   0  0  0  0  0  0  0  0  0  0  0  0
    4.9889    0.2720    0.0000 C   0  0  2  0  0  0  0  0  0  0  0  0
    5.9422    1.5794    0.0000 C   0  0  2  0  0  0  0  0  0  0  0  0
    4.4026    1.0820    0.0000 C   0  0  0  0  0  0  0  0  0  0  0  0
    4.9917    1.8900    0.0000 C   0  0  0  0  0  0  0  0  0  0  0  0
    3.7320   -0.9832    0.0000 C   0  0  0  0  0  0  0  0  0  0  0  0
    6.7523    2.1658    0.0000 C   0  0  0  0  0  0  0  0  0  0  0  0
    5.2619   -1.4832    0.0000 C   0  0  0  0  0  0  0  0  0  0  0  0
    3.7320   -1.9832    0.0000 C   0  0  0  0  0  0  0  0  0  0  0  0
    2.8660   -2.4832    0.0000 C   0  0  0  0  0  0  0  0  0  0  0  0
    4.6844    2.8416    0.0000 C   0  0  0  0  0  0  0  0  0  0  0  0
    2.0000   -0.9832    0.0000 C   0  0  0  0  0  0  0  0  0  0  0  0
    5.4266   -0.1671    0.0000 H   0  0  0  0  0  0  0  0  0  0  0  0
    6.4942    1.2970    0.0000 H   0  0  0  0  0  0  0  0  0  0  0  0
    3.7826    1.0831    0.0000 H   0  0  0  0  0  0  0  0  0  0  0  0
    7.0999    2.6792    0.0000 H   0  0  0  0  0  0  0  0  0  0  0  0
    6.3070    2.5972    0.0000 H   0  0  0  0  0  0  0  0  0  0  0  0
    5.8819   -1.4832    0.0000 H   0  0  0  0  0  0  0  0  0  0  0  0
    1.4631   -0.6732    0.0000 H   0  0  0  0  0  0  0  0  0  0  0  0
    8.1674    2.1210    0.0000 H   0  0  0  0  0  0  0  0  0  0  0  0
    2.3291   -3.7932    0.0000 H   0  0  0  0  0  0  0  0  0  0  0  0
    3.4030   -3.7932    0.0000 H   0  0  0  0  0  0  0  0  0  0  0  0
  1  9  1  0  0  0  0
  1 10  1  0  0  0  0
  2 14  1  0  0  0  0
  2 27  1  0  0  0  0
  9  3  1  6  0  0  0
  3 13  1  0  0  0  0
  3 15  1  0  0  0  0
  4 15  2  0  0  0  0
  4 16  1  0  0  0  0
  5 13  2  0  0  0  0
  5 19  1  0  0  0  0
  6 17  1  0  0  0  0
  6 19  2  0  0  0  0
  7 17  1  0  0  0  0
  7 28  1  0  0  0  0
  7 29  1  0  0  0  0
  8 18  3  0  0  0  0
  9 11  1  0  0  0  0
  9 20  1  0  0  0  0
 10 12  1  0  0  0  0
 10 14  1  6  0  0  0
 10 21  1  0  0  0  0
 11 12  2  0  0  0  0
 11 22  1  0  0  0  0
 12 18  1  0  0  0  0
 13 16  1  0  0  0  0
 14 23  1  0  0  0  0
 14 24  1  0  0  0  0
 15 25  1  0  0  0  0
 16 17  2  0  0  0  0
 19 26  1  0  0  0  0
M  END
> <PUBCHEM_COMPOUND_CID>
510146
> <PUBCHEM_COMPOUND_CANONICALIZED>
1
> <PUBCHEM_CACTVS_COMPLEXITY>
432
> <PUBCHEM_CACTVS_HBOND_ACCEPTOR>
7
> <PUBCHEM_CACTVS_HBOND_DONOR>
2
> <PUBCHEM_CACTVS_ROTATABLE_BOND>
2
> <PUBCHEM_CACTVS_SUBSKEYS>
AAADccBzsAAAAAAAAAAAAAAAAAAAAWIAAAAsAAAAAAAAAFgB+AAAHgAQCAAADBzhlwYF8L9MFgCwByZjZACggC0xEKABWCAoVBiB3ABAaUAeVAgMQALLICoAAAAAAAAAAAAAAAAAAAAAAAAAAAAAAAAAAA==
> <PUBCHEM_IUPAC_OPENEYE_NAME>
(2R,5S)-5-(6-aminopurin-9-yl)-2-(hydroxymethyl)-2,5-dihydrofuran-3-carbonitrile
> <PUBCHEM_IUPAC_CAS_NAME>
(2R,5S)-5-(6-aminopurin-9-yl)-2-(hydroxymethyl)-2,5-dihydrofuran-3-carbonitrile
> <PUBCHEM_IUPAC_NAME_MARKUP>
(2<I>R</I>,5<I>S</I>)-5-(6-aminopurin-9-yl)-2-(hydroxymethyl)-2,5-dihydrofuran-3-carbonitrile
> <PUBCHEM_IUPAC_NAME>
(2R,5S)-5-(6-aminopurin-9-yl)-2-(hydroxymethyl)-2,5-dihydrofuran-3-carbonitrile
> <PUBCHEM_IUPAC_SYSTEMATIC_NAME>
(2R,5S)-5-(6-aminopurin-9-yl)-2-(hydroxymethyl)-2,5-dihydrofuran-3-carbonitrile
> <PUBCHEM_IUPAC_TRADITIONAL_NAME>
(2R,5S)-5-adenin-9-yl-2-methylol-2,5-dihydrofuran-3-carbonitrile
> <PUBCHEM_IUPAC_INCHI>
InChI=1S/C11H10N6O2/c12-2-6-1-8(19-7(6)3-18)17-5-16-9-10(13)14-4-15-11(9)17/h1,4-5,7-8,18H,3H2,(H2,13,14,15)/t7-,8-/m0/s1
> <PUBCHEM_IUPAC_INCHIKEY>
PWRVMFGDZRBFBV-YUMQZZPRSA-N
> <PUBCHEM_XLOGP3>
-0.9
> <PUBCHEM_EXACT_MASS>
258.08652358
> <PUBCHEM_MOLECULAR_FORMULA>
C11H10N6O2
> <PUBCHEM_MOLECULAR_WEIGHT>
258.24
> <PUBCHEM_OPENEYE_CAN_SMILES>
C1=C(C(OC1N2C=NC3=C(N=CN=C32)N)CO)C#N
> <PUBCHEM_OPENEYE_ISO_SMILES>
C1=C([C@@H](O[C@@H]1N2C=NC3=C(N=CN=C32)N)CO)C#N
> <PUBCHEM_CACTVS_TPSA>
123
> <PUBCHEM_MONOISOTOPIC_WEIGHT>
258.08652358
> <PUBCHEM_TOTAL_CHARGE>
0
> <PUBCHEM_HEAVY_ATOM_COUNT>
19
> <PUBCHEM_ATOM_DEF_STEREO_COUNT>
2
> <PUBCHEM_ATOM_UDEF_STEREO_COUNT>
0
> <PUBCHEM_BOND_DEF_STEREO_COUNT>
0
> <PUBCHEM_BOND_UDEF_STEREO_COUNT>
0
> <PUBCHEM_ISOTOPIC_ATOM_COUNT>
0
> <PUBCHEM_COMPONENT_COUNT>
1
> <PUBCHEM_CACTVS_TAUTO_COUNT>
-1
> <PUBCHEM_COORDINATE_TYPE>
1
5
255
> <PUBCHEM_BONDANNOTATIONS>
10  14  6
13  16  8
16  17  8
3  13  8
3  15  8
9  3  6
4  15  8
4  16  8
5  13  8
5  19  8
6  17  8
6  19  8
$$$$
