510192
  -OEChem-10302200282D
 71 75  0     1  0  0  0  0  0999 V2000
    5.7812   -1.1496    0.0000 O   0  0  0  0  0  0  0  0  0  0  0  0
    6.1062    1.7936    0.0000 O   0  0  0  0  0  0  0  0  0  0  0  0
    4.7984    2.9957    0.0000 O   0  0  0  0  0  0  0  0  0  0  0  0
    6.8611    0.2046    0.0000 O   0  0  0  0  0  0  0  0  0  0  0  0
    7.3449   -2.3966    0.0000 O   0  0  0  0  0  0  0  0  0  0  0  0
   10.2865   -0.3117    0.0000 O   0  0  0  0  0  0  0  0  0  0  0  0
    8.5738   -0.0536    0.0000 N   0  0  0  0  0  0  0  0  0  0  0  0
    2.9842   -2.1214    0.0000 C   0  0  0  0  0  0  0  0  0  0  0  0
    4.0984   -0.9600    0.0000 C   0  0  2  0  0  0  0  0  0  0  0  0
    3.9624   -1.9448    0.0000 C   0  0  0  0  0  0  0  0  0  0  0  0
    2.5124   -1.2464    0.0000 C   0  0  0  0  0  0  0  0  0  0  0  0
    3.1974   -0.5261    0.0000 C   0  0  0  0  0  0  0  0  0  0  0  0
    4.9994   -0.5261    0.0000 C   0  0  1  0  0  0  0  0  0  0  0  0
    2.9749    0.4488    0.0000 C   0  0  0  0  0  0  0  0  0  0  0  0
    2.1036   -2.5953    0.0000 C   0  0  0  0  0  0  0  0  0  0  0  0
    3.1627   -3.1053    0.0000 C   0  0  0  0  0  0  0  0  0  0  0  0
    5.2219    0.4488    0.0000 C   0  0  0  0  0  0  0  0  0  0  0  0
    3.5984    1.2306    0.0000 C   0  0  0  0  0  0  0  0  0  0  0  0
    4.5984    1.2306    0.0000 C   0  0  0  0  0  0  0  0  0  0  0  0
    6.1517    0.8005    0.0000 C   0  0  0  0  0  0  0  0  0  0  0  0
    2.0000    0.6713    0.0000 C   0  0  0  0  0  0  0  0  0  0  0  0
    5.1482    2.0588    0.0000 C   0  0  0  0  0  0  0  0  0  0  0  0
    6.7121   -0.7843    0.0000 C   0  0  0  0  0  0  0  0  0  0  0  0
    7.4939   -1.4078    0.0000 C   0  0  1  0  0  0  0  0  0  0  0  0
    8.4248   -1.0424    0.0000 C   0  0  2  0  0  0  0  0  0  0  0  0
    9.2066   -1.6659    0.0000 C   0  0  0  0  0  0  0  0  0  0  0  0
   10.1375   -1.3006    0.0000 C   0  0  0  0  0  0  0  0  0  0  0  0
    9.0576   -2.6548    0.0000 C   0  0  0  0  0  0  0  0  0  0  0  0
    9.5047    0.3117    0.0000 C   0  0  0  0  0  0  0  0  0  0  0  0
   10.9193   -1.9241    0.0000 C   0  0  0  0  0  0  0  0  0  0  0  0
    9.8394   -3.2782    0.0000 C   0  0  0  0  0  0  0  0  0  0  0  0
    9.6538    1.3006    0.0000 C   0  0  0  0  0  0  0  0  0  0  0  0
   10.7703   -2.9129    0.0000 C   0  0  0  0  0  0  0  0  0  0  0  0
   10.5846    1.6659    0.0000 C   0  0  0  0  0  0  0  0  0  0  0  0
    8.8719    1.9241    0.0000 C   0  0  0  0  0  0  0  0  0  0  0  0
   10.7337    2.6548    0.0000 C   0  0  0  0  0  0  0  0  0  0  0  0
    9.0210    2.9129    0.0000 C   0  0  0  0  0  0  0  0  0  0  0  0
    9.9518    3.2782    0.0000 C   0  0  0  0  0  0  0  0  0  0  0  0
    4.7854   -1.4605    0.0000 H   0  0  0  0  0  0  0  0  0  0  0  0
    4.0079   -2.5631    0.0000 H   0  0  0  0  0  0  0  0  0  0  0  0
    4.5821   -1.9645    0.0000 H   0  0  0  0  0  0  0  0  0  0  0  0
    2.1105   -0.7743    0.0000 H   0  0  0  0  0  0  0  0  0  0  0  0
    2.0006   -1.5964    0.0000 H   0  0  0  0  0  0  0  0  0  0  0  0
    5.5846   -0.3214    0.0000 H   0  0  0  0  0  0  0  0  0  0  0  0
    1.8098   -2.0493    0.0000 H   0  0  0  0  0  0  0  0  0  0  0  0
    1.5576   -2.8891    0.0000 H   0  0  0  0  0  0  0  0  0  0  0  0
    2.3974   -3.1412    0.0000 H   0  0  0  0  0  0  0  0  0  0  0  0
    2.5527   -3.2160    0.0000 H   0  0  0  0  0  0  0  0  0  0  0  0
    3.2734   -3.7154    0.0000 H   0  0  0  0  0  0  0  0  0  0  0  0
    3.7728   -2.9946    0.0000 H   0  0  0  0  0  0  0  0  0  0  0  0
    3.7364    1.8351    0.0000 H   0  0  0  0  0  0  0  0  0  0  0  0
    3.0398    1.4996    0.0000 H   0  0  0  0  0  0  0  0  0  0  0  0
    6.3089    0.2008    0.0000 H   0  0  0  0  0  0  0  0  0  0  0  0
    6.7646    0.8938    0.0000 H   0  0  0  0  0  0  0  0  0  0  0  0
    2.1380    1.2758    0.0000 H   0  0  0  0  0  0  0  0  0  0  0  0
    1.3955    0.8093    0.0000 H   0  0  0  0  0  0  0  0  0  0  0  0
    1.8620    0.0669    0.0000 H   0  0  0  0  0  0  0  0  0  0  0  0
    6.9168   -1.6343    0.0000 H   0  0  0  0  0  0  0  0  0  0  0  0
    9.0019   -0.8159    0.0000 H   0  0  0  0  0  0  0  0  0  0  0  0
    6.7677   -2.6231    0.0000 H   0  0  0  0  0  0  0  0  0  0  0  0
    8.0891    0.3330    0.0000 H   0  0  0  0  0  0  0  0  0  0  0  0
   10.2299   -0.6875    0.0000 H   0  0  0  0  0  0  0  0  0  0  0  0
    8.4804   -2.8813    0.0000 H   0  0  0  0  0  0  0  0  0  0  0  0
   11.4965   -1.6976    0.0000 H   0  0  0  0  0  0  0  0  0  0  0  0
    9.7470   -3.8913    0.0000 H   0  0  0  0  0  0  0  0  0  0  0  0
   11.2550   -3.2995    0.0000 H   0  0  0  0  0  0  0  0  0  0  0  0
   11.0694    1.2794    0.0000 H   0  0  0  0  0  0  0  0  0  0  0  0
    8.2948    1.6976    0.0000 H   0  0  0  0  0  0  0  0  0  0  0  0
   11.3108    2.8813    0.0000 H   0  0  0  0  0  0  0  0  0  0  0  0
    8.5362    3.2995    0.0000 H   0  0  0  0  0  0  0  0  0  0  0  0
   10.0442    3.8913    0.0000 H   0  0  0  0  0  0  0  0  0  0  0  0
 13  1  1  1  0  0  0
  1 23  1  0  0  0  0
  2 20  1  0  0  0  0
  2 22  1  0  0  0  0
  3 22  2  0  0  0  0
  4 23  2  0  0  0  0
 24  5  1  1  0  0  0
  5 60  1  0  0  0  0
  6 29  2  0  0  0  0
 25  7  1  1  0  0  0
  7 29  1  0  0  0  0
  7 61  1  0  0  0  0
  8 10  1  0  0  0  0
  8 11  1  0  0  0  0
  8 15  1  0  0  0  0
  8 16  1  0  0  0  0
  9 10  1  0  0  0  0
  9 12  1  0  0  0  0
  9 13  1  0  0  0  0
  9 39  1  1  0  0  0
 10 40  1  0  0  0  0
 10 41  1  0  0  0  0
 11 12  1  0  0  0  0
 11 42  1  0  0  0  0
 11 43  1  0  0  0  0
 12 14  2  0  0  0  0
 13 17  1  0  0  0  0
 13 44  1  0  0  0  0
 14 18  1  0  0  0  0
 14 21  1  0  0  0  0
 15 45  1  0  0  0  0
 15 46  1  0  0  0  0
 15 47  1  0  0  0  0
 16 48  1  0  0  0  0
 16 49  1  0  0  0  0
 16 50  1  0  0  0  0
 17 19  2  0  0  0  0
 17 20  1  0  0  0  0
 18 19  1  0  0  0  0
 18 51  1  0  0  0  0
 18 52  1  0  0  0  0
 19 22  1  0  0  0  0
 20 53  1  0  0  0  0
 20 54  1  0  0  0  0
 21 55  1  0  0  0  0
 21 56  1  0  0  0  0
 21 57  1  0  0  0  0
 23 24  1  0  0  0  0
 24 25  1  0  0  0  0
 24 58  1  0  0  0  0
 25 26  1  0  0  0  0
 25 59  1  0  0  0  0
 26 27  2  0  0  0  0
 26 28  1  0  0  0  0
 27 30  1  0  0  0  0
 27 62  1  0  0  0  0
 28 31  2  0  0  0  0
 28 63  1  0  0  0  0
 29 32  1  0  0  0  0
 30 33  2  0  0  0  0
 30 64  1  0  0  0  0
 31 33  1  0  0  0  0
 31 65  1  0  0  0  0
 32 34  2  0  0  0  0
 32 35  1  0  0  0  0
 33 66  1  0  0  0  0
 34 36  1  0  0  0  0
 34 67  1  0  0  0  0
 35 37  2  0  0  0  0
 35 68  1  0  0  0  0
 36 38  2  0  0  0  0
 36 69  1  0  0  0  0
 37 38  1  0  0  0  0
 37 70  1  0  0  0  0
 38 71  1  0  0  0  0
M  END
> <PUBCHEM_COMPOUND_CID>
510192
> <PUBCHEM_COMPOUND_CANONICALIZED>
1
> <PUBCHEM_CACTVS_COMPLEXITY>
1010
> <PUBCHEM_CACTVS_HBOND_ACCEPTOR>
6
> <PUBCHEM_CACTVS_HBOND_DONOR>
2
> <PUBCHEM_CACTVS_ROTATABLE_BOND>
7
> <PUBCHEM_CACTVS_SUBSKEYS>
AAADcfB6OAAAAAAAAAAAAAAAAAAAAYIAAAAwYAAABAAAAACBQAAAHgAQCAAADzzhmAYyCILABgCIAiHSGAKCAAAkAAAIiIFIBMgLNDqAtRGGcQhn1gGbqYeYyPCPAAAAAAAAAAAAAAAAAAAAAQAAAAAAAA==
> <PUBCHEM_IUPAC_OPENEYE_NAME>
[(8aR,9S)-5,7,7-trimethyl-3-oxo-1,4,6,8,8a,9-hexahydroazuleno[5,6-c]furan-9-yl] (2R,3S)-3-benzamido-2-hydroxy-3-phenyl-propanoate
> <PUBCHEM_IUPAC_CAS_NAME>
(2R,3S)-3-benzamido-2-hydroxy-3-phenylpropanoic acid [(8aR,9S)-5,7,7-trimethyl-3-oxo-1,4,6,8,8a,9-hexahydroazuleno[5,6-c]furan-9-yl] ester
> <PUBCHEM_IUPAC_NAME_MARKUP>
[(8<I>a</I><I>R</I>,9<I>S</I>)-5,7,7-trimethyl-3-oxo-1,4,6,8,8<I>a</I>,9-hexahydroazuleno[5,6-c]furan-9-yl] (2<I>R</I>,3<I>S</I>)-3-benzamido-2-hydroxy-3-phenylpropanoate
> <PUBCHEM_IUPAC_NAME>
[(8aR,9S)-5,7,7-trimethyl-3-oxo-1,4,6,8,8a,9-hexahydroazuleno[5,6-c]furan-9-yl] (2R,3S)-3-benzamido-2-hydroxy-3-phenylpropanoate
> <PUBCHEM_IUPAC_SYSTEMATIC_NAME>
[(8aR,9S)-5,7,7-trimethyl-3-oxidanylidene-1,4,6,8,8a,9-hexahydroazuleno[5,6-c]furan-9-yl] (2R,3S)-3-benzamido-2-oxidanyl-3-phenyl-propanoate
> <PUBCHEM_IUPAC_TRADITIONAL_NAME>
(2R,3S)-3-benzamido-2-hydroxy-3-phenyl-propionic acid [(8aR,9S)-3-keto-5,7,7-trimethyl-1,4,6,8,8a,9-hexahydroazuleno[5,6-c]furan-9-yl] ester
> <PUBCHEM_IUPAC_INCHI>
InChI=1S/C31H33NO6/c1-18-14-21-24(17-37-29(21)35)27(23-16-31(2,3)15-22(18)23)38-30(36)26(33)25(19-10-6-4-7-11-19)32-28(34)20-12-8-5-9-13-20/h4-13,23,25-27,33H,14-17H2,1-3H3,(H,32,34)/t23-,25+,26-,27+/m1/s1
> <PUBCHEM_IUPAC_INCHIKEY>
LQKSDYDZWPZXSP-ZJHRHMSFSA-N
> <PUBCHEM_XLOGP3_AA>
3.3
> <PUBCHEM_EXACT_MASS>
515.23078777
> <PUBCHEM_MOLECULAR_FORMULA>
C31H33NO6
> <PUBCHEM_MOLECULAR_WEIGHT>
515.6
> <PUBCHEM_OPENEYE_CAN_SMILES>
CC1=C2CC(CC2C(C3=C(C1)C(=O)OC3)OC(=O)C(C(C4=CC=CC=C4)NC(=O)C5=CC=CC=C5)O)(C)C
> <PUBCHEM_OPENEYE_ISO_SMILES>
CC1=C2CC(C[C@H]2[C@@H](C3=C(C1)C(=O)OC3)OC(=O)[C@@H]([C@H](C4=CC=CC=C4)NC(=O)C5=CC=CC=C5)O)(C)C
> <PUBCHEM_CACTVS_TPSA>
102
> <PUBCHEM_MONOISOTOPIC_WEIGHT>
515.23078777
> <PUBCHEM_TOTAL_CHARGE>
0
> <PUBCHEM_HEAVY_ATOM_COUNT>
38
> <PUBCHEM_ATOM_DEF_STEREO_COUNT>
4
> <PUBCHEM_ATOM_UDEF_STEREO_COUNT>
0
> <PUBCHEM_BOND_DEF_STEREO_COUNT>
0
> <PUBCHEM_BOND_UDEF_STEREO_COUNT>
0
> <PUBCHEM_ISOTOPIC_ATOM_COUNT>
0
> <PUBCHEM_COMPONENT_COUNT>
1
> <PUBCHEM_CACTVS_TAUTO_COUNT>
-1
> <PUBCHEM_COORDINATE_TYPE>
1
5
255
> <PUBCHEM_BONDANNOTATIONS>
13  1  5
26  27  8
26  28  8
27  30  8
28  31  8
30  33  8
31  33  8
32  34  8
32  35  8
34  36  8
35  37  8
36  38  8
37  38  8
24  5  5
25  7  5
9  39  5
$$$$
