510167
  -OEChem-10302200282D
119122  0     1  0  0  0  0  0999 V2000
    8.8810   -7.0795    0.0000 O   0  0  0  0  0  0  0  0  0  0  0  0
    6.3177   -7.8505    0.0000 O   0  0  0  0  0  0  0  0  0  0  0  0
    4.5576   -7.5717    0.0000 O   0  0  0  0  0  0  0  0  0  0  0  0
    7.6320   -9.3458    0.0000 O   0  0  0  0  0  0  0  0  0  0  0  0
    9.8023   -9.4976    0.0000 O   0  0  0  0  0  0  0  0  0  0  0  0
    5.6454   -9.9196    0.0000 O   0  0  0  0  0  0  0  0  0  0  0  0
    5.6115   -3.3130    0.0000 O   0  0  0  0  0  0  0  0  0  0  0  0
    8.6594   -6.1981    0.0000 O   0  0  0  0  0  0  0  0  0  0  0  0
    3.4698   -9.9196    0.0000 O   0  0  0  0  0  0  0  0  0  0  0  0
    8.4382   -2.8403    0.0000 O   0  0  0  0  0  0  0  0  0  0  0  0
   11.0363   -9.1610    0.0000 O   0  0  0  0  0  0  0  0  0  0  0  0
   13.5282   -6.7546    0.0000 O   0  0  0  0  0  0  0  0  0  0  0  0
    6.0140   -5.9403    0.0000 N   0  0  3  0  0  0  0  0  0  0  0  0
    7.8830   -4.6931    0.0000 N   0  0  0  0  0  0  0  0  0  0  0  0
   10.6173   -7.4804    0.0000 N   0  0  0  0  0  0  0  0  0  0  0  0
    6.7882   -2.3133    0.0000 N   0  0  0  0  0  0  0  0  0  0  0  0
   12.2823   -7.9578    0.0000 N   0  0  0  0  0  0  0  0  0  0  0  0
    2.5896   -6.8724    0.0000 N   0  0  0  0  0  0  0  0  0  0  0  0
    8.0329   -7.6094    0.0000 C   0  0  3  0  0  0  0  0  0  0  0  0
    7.1057   -7.2348    0.0000 C   0  0  1  0  0  0  0  0  0  0  0  0
    6.9666   -6.2446    0.0000 C   0  0  3  0  0  0  0  0  0  0  0  0
    8.2748   -8.5798    0.0000 C   0  0  2  0  0  0  0  0  0  0  0  0
    9.2724   -8.6495    0.0000 C   0  0  2  0  0  0  0  0  0  0  0  0
    9.6470   -7.7223    0.0000 C   0  0  3  0  0  0  0  0  0  0  0  0
    5.3667   -8.1595    0.0000 C   0  0  3  0  0  0  0  0  0  0  0  0
    7.7984   -5.6895    0.0000 C   0  0  0  0  0  0  0  0  0  0  0  0
    5.6579   -5.0058    0.0000 C   0  0  0  0  0  0  0  0  0  0  0  0
    5.0576   -9.1106    0.0000 C   0  0  1  0  0  0  0  0  0  0  0  0
    6.1665   -4.1448    0.0000 C   0  0  1  0  0  0  0  0  0  0  0  0
    7.1568   -4.0057    0.0000 C   0  0  3  0  0  0  0  0  0  0  0  0
    4.0576   -9.1106    0.0000 C   0  0  1  0  0  0  0  0  0  0  0  0
    3.7486   -8.1595    0.0000 C   0  0  1  0  0  0  0  0  0  0  0  0
    5.3265   -6.6665    0.0000 C   0  0  0  0  0  0  0  0  0  0  0  0
    2.7976   -7.8505    0.0000 C   0  0  0  0  0  0  0  0  0  0  0  0
    7.4611   -3.0531    0.0000 C   0  0  0  0  0  0  0  0  0  0  0  0
    8.8175   -4.3371    0.0000 C   0  0  0  0  0  0  0  0  0  0  0  0
   11.3120   -8.1997    0.0000 C   0  0  0  0  0  0  0  0  0  0  0  0
   10.8929   -6.5191    0.0000 C   0  0  0  0  0  0  0  0  0  0  0  0
   11.8632   -6.2772    0.0000 C   0  0  0  0  0  0  0  0  0  0  0  0
    7.0925   -1.3607    0.0000 C   0  0  0  0  0  0  0  0  0  0  0  0
   12.5579   -6.9966    0.0000 C   0  0  0  0  0  0  0  0  0  0  0  0
    6.4197   -0.6209    0.0000 C   0  0  0  0  0  0  0  0  0  0  0  0
    6.7240    0.3317    0.0000 C   0  0  0  0  0  0  0  0  0  0  0  0
    6.0511    1.0715    0.0000 C   0  0  0  0  0  0  0  0  0  0  0  0
    6.3554    2.0241    0.0000 C   0  0  0  0  0  0  0  0  0  0  0  0
    5.6826    2.7639    0.0000 C   0  0  0  0  0  0  0  0  0  0  0  0
    5.9868    3.7165    0.0000 C   0  0  0  0  0  0  0  0  0  0  0  0
    5.3140    4.4563    0.0000 C   0  0  0  0  0  0  0  0  0  0  0  0
    5.6183    5.4088    0.0000 C   0  0  0  0  0  0  0  0  0  0  0  0
    4.9455    6.1486    0.0000 C   0  0  0  0  0  0  0  0  0  0  0  0
    5.2497    7.1012    0.0000 C   0  0  0  0  0  0  0  0  0  0  0  0
    4.5769    7.8410    0.0000 C   0  0  0  0  0  0  0  0  0  0  0  0
    4.8812    8.7936    0.0000 C   0  0  0  0  0  0  0  0  0  0  0  0
    4.2084    9.5334    0.0000 C   0  0  0  0  0  0  0  0  0  0  0  0
    4.5126   10.4860    0.0000 C   0  0  0  0  0  0  0  0  0  0  0  0
    7.9789   -6.9918    0.0000 H   0  0  0  0  0  0  0  0  0  0  0  0
    6.5309   -7.0026    0.0000 H   0  0  0  0  0  0  0  0  0  0  0  0
    7.5323   -6.4982    0.0000 H   0  0  0  0  0  0  0  0  0  0  0  0
    7.6707   -8.4403    0.0000 H   0  0  0  0  0  0  0  0  0  0  0  0
    8.9531   -9.1810    0.0000 H   0  0  0  0  0  0  0  0  0  0  0  0
   10.0538   -8.1902    0.0000 H   0  0  0  0  0  0  0  0  0  0  0  0
    5.8051   -8.5979    0.0000 H   0  0  0  0  0  0  0  0  0  0  0  0
    5.2077   -4.5796    0.0000 H   0  0  0  0  0  0  0  0  0  0  0  0
    5.1422   -5.3500    0.0000 H   0  0  0  0  0  0  0  0  0  0  0  0
    4.7762   -9.6630    0.0000 H   0  0  0  0  0  0  0  0  0  0  0  0
    5.5468   -4.1618    0.0000 H   0  0  0  0  0  0  0  0  0  0  0  0
    7.7572   -3.8512    0.0000 H   0  0  0  0  0  0  0  0  0  0  0  0
    4.3391   -9.6630    0.0000 H   0  0  0  0  0  0  0  0  0  0  0  0
    3.6516   -7.5472    0.0000 H   0  0  0  0  0  0  0  0  0  0  0  0
    4.8762   -6.2403    0.0000 H   0  0  0  0  0  0  0  0  0  0  0  0
    4.9003   -7.1168    0.0000 H   0  0  0  0  0  0  0  0  0  0  0  0
    5.7768   -7.0928    0.0000 H   0  0  0  0  0  0  0  0  0  0  0  0
    7.8441   -9.9284    0.0000 H   0  0  0  0  0  0  0  0  0  0  0  0
    9.5112  -10.0450    0.0000 H   0  0  0  0  0  0  0  0  0  0  0  0
    2.1779   -7.8721    0.0000 H   0  0  0  0  0  0  0  0  0  0  0  0
    2.7113   -8.4645    0.0000 H   0  0  0  0  0  0  0  0  0  0  0  0
    9.0382   -4.9164    0.0000 H   0  0  0  0  0  0  0  0  0  0  0  0
    9.3969   -4.1163    0.0000 H   0  0  0  0  0  0  0  0  0  0  0  0
    8.5968   -3.7577    0.0000 H   0  0  0  0  0  0  0  0  0  0  0  0
   10.4622   -6.0732    0.0000 H   0  0  0  0  0  0  0  0  0  0  0  0
    5.3932  -10.4860    0.0000 H   0  0  0  0  0  0  0  0  0  0  0  0
    4.9928   -3.3532    0.0000 H   0  0  0  0  0  0  0  0  0  0  0  0
    2.8532   -9.8548    0.0000 H   0  0  0  0  0  0  0  0  0  0  0  0
    6.1824   -2.4452    0.0000 H   0  0  0  0  0  0  0  0  0  0  0  0
   12.7129   -8.4038    0.0000 H   0  0  0  0  0  0  0  0  0  0  0  0
   12.0341   -5.6812    0.0000 H   0  0  0  0  0  0  0  0  0  0  0  0
    2.0000   -6.6808    0.0000 H   0  0  0  0  0  0  0  0  0  0  0  0
    3.0504   -6.4575    0.0000 H   0  0  0  0  0  0  0  0  0  0  0  0
    7.6414   -1.6490    0.0000 H   0  0  0  0  0  0  0  0  0  0  0  0
    7.4718   -0.8702    0.0000 H   0  0  0  0  0  0  0  0  0  0  0  0
    5.8708   -0.3326    0.0000 H   0  0  0  0  0  0  0  0  0  0  0  0
    6.0404   -1.1114    0.0000 H   0  0  0  0  0  0  0  0  0  0  0  0
    7.2728    0.0433    0.0000 H   0  0  0  0  0  0  0  0  0  0  0  0
    7.1032    0.8222    0.0000 H   0  0  0  0  0  0  0  0  0  0  0  0
    5.5023    1.3598    0.0000 H   0  0  0  0  0  0  0  0  0  0  0  0
    5.6719    0.5810    0.0000 H   0  0  0  0  0  0  0  0  0  0  0  0
    6.9043    1.7357    0.0000 H   0  0  0  0  0  0  0  0  0  0  0  0
    6.7347    2.5145    0.0000 H   0  0  0  0  0  0  0  0  0  0  0  0
    5.1337    3.0522    0.0000 H   0  0  0  0  0  0  0  0  0  0  0  0
    5.3033    2.2734    0.0000 H   0  0  0  0  0  0  0  0  0  0  0  0
    6.5357    3.4281    0.0000 H   0  0  0  0  0  0  0  0  0  0  0  0
    6.3661    4.2069    0.0000 H   0  0  0  0  0  0  0  0  0  0  0  0
    4.7652    4.7446    0.0000 H   0  0  0  0  0  0  0  0  0  0  0  0
    4.9348    3.9658    0.0000 H   0  0  0  0  0  0  0  0  0  0  0  0
    6.1672    5.1205    0.0000 H   0  0  0  0  0  0  0  0  0  0  0  0
    5.9976    5.8993    0.0000 H   0  0  0  0  0  0  0  0  0  0  0  0
    4.3966    6.4370    0.0000 H   0  0  0  0  0  0  0  0  0  0  0  0
    4.5662    5.6582    0.0000 H   0  0  0  0  0  0  0  0  0  0  0  0
    5.7986    6.8129    0.0000 H   0  0  0  0  0  0  0  0  0  0  0  0
    5.6290    7.5917    0.0000 H   0  0  0  0  0  0  0  0  0  0  0  0
    4.0280    8.1294    0.0000 H   0  0  0  0  0  0  0  0  0  0  0  0
    4.1976    7.3506    0.0000 H   0  0  0  0  0  0  0  0  0  0  0  0
    5.4300    8.5053    0.0000 H   0  0  0  0  0  0  0  0  0  0  0  0
    5.2604    9.2841    0.0000 H   0  0  0  0  0  0  0  0  0  0  0  0
    3.6595    9.8218    0.0000 H   0  0  0  0  0  0  0  0  0  0  0  0
    3.8291    9.0429    0.0000 H   0  0  0  0  0  0  0  0  0  0  0  0
    5.1032   10.2973    0.0000 H   0  0  0  0  0  0  0  0  0  0  0  0
    4.7013   11.0766    0.0000 H   0  0  0  0  0  0  0  0  0  0  0  0
    3.9220   10.6746    0.0000 H   0  0  0  0  0  0  0  0  0  0  0  0
  1 19  1  0  0  0  0
  1 24  1  0  0  0  0
 20  2  1  6  0  0  0
  2 25  1  0  0  0  0
  3 25  1  0  0  0  0
  3 32  1  0  0  0  0
 22  4  1  6  0  0  0
  4 73  1  0  0  0  0
 23  5  1  6  0  0  0
  5 74  1  0  0  0  0
 28  6  1  6  0  0  0
  6 81  1  0  0  0  0
 29  7  1  6  0  0  0
  7 82  1  0  0  0  0
  8 26  2  0  0  0  0
 31  9  1  6  0  0  0
  9 83  1  0  0  0  0
 10 35  2  0  0  0  0
 11 37  2  0  0  0  0
 12 41  2  0  0  0  0
 13 21  1  0  0  0  0
 13 27  1  0  0  0  0
 13 33  1  0  0  0  0
 14 26  1  0  0  0  0
 14 30  1  0  0  0  0
 14 36  1  0  0  0  0
 15 24  1  0  0  0  0
 15 37  1  0  0  0  0
 15 38  1  0  0  0  0
 16 35  1  0  0  0  0
 16 40  1  0  0  0  0
 16 84  1  0  0  0  0
 17 37  1  0  0  0  0
 17 41  1  0  0  0  0
 17 85  1  0  0  0  0
 18 34  1  0  0  0  0
 18 87  1  0  0  0  0
 18 88  1  0  0  0  0
 19 20  1  0  0  0  0
 19 22  1  0  0  0  0
 19 56  1  0  0  0  0
 20 21  1  0  0  0  0
 20 57  1  0  0  0  0
 21 26  1  0  0  0  0
 21 58  1  0  0  0  0
 22 23  1  0  0  0  0
 22 59  1  0  0  0  0
 23 24  1  0  0  0  0
 23 60  1  0  0  0  0
 24 61  1  0  0  0  0
 25 28  1  0  0  0  0
 25 62  1  0  0  0  0
 27 29  1  0  0  0  0
 27 63  1  0  0  0  0
 27 64  1  0  0  0  0
 28 31  1  0  0  0  0
 28 65  1  0  0  0  0
 29 30  1  0  0  0  0
 29 66  1  0  0  0  0
 30 35  1  0  0  0  0
 30 67  1  0  0  0  0
 31 32  1  0  0  0  0
 31 68  1  0  0  0  0
 32 34  1  1  0  0  0
 32 69  1  0  0  0  0
 33 70  1  0  0  0  0
 33 71  1  0  0  0  0
 33 72  1  0  0  0  0
 34 75  1  0  0  0  0
 34 76  1  0  0  0  0
 36 77  1  0  0  0  0
 36 78  1  0  0  0  0
 36 79  1  0  0  0  0
 38 39  2  0  0  0  0
 38 80  1  0  0  0  0
 39 41  1  0  0  0  0
 39 86  1  0  0  0  0
 40 42  1  0  0  0  0
 40 89  1  0  0  0  0
 40 90  1  0  0  0  0
 42 43  1  0  0  0  0
 42 91  1  0  0  0  0
 42 92  1  0  0  0  0
 43 44  1  0  0  0  0
 43 93  1  0  0  0  0
 43 94  1  0  0  0  0
 44 45  1  0  0  0  0
 44 95  1  0  0  0  0
 44 96  1  0  0  0  0
 45 46  1  0  0  0  0
 45 97  1  0  0  0  0
 45 98  1  0  0  0  0
 46 47  1  0  0  0  0
 46 99  1  0  0  0  0
 46100  1  0  0  0  0
 47 48  1  0  0  0  0
 47101  1  0  0  0  0
 47102  1  0  0  0  0
 48 49  1  0  0  0  0
 48103  1  0  0  0  0
 48104  1  0  0  0  0
 49 50  1  0  0  0  0
 49105  1  0  0  0  0
 49106  1  0  0  0  0
 50 51  1  0  0  0  0
 50107  1  0  0  0  0
 50108  1  0  0  0  0
 51 52  1  0  0  0  0
 51109  1  0  0  0  0
 51110  1  0  0  0  0
 52 53  1  0  0  0  0
 52111  1  0  0  0  0
 52112  1  0  0  0  0
 53 54  1  0  0  0  0
 53113  1  0  0  0  0
 53114  1  0  0  0  0
 54 55  1  0  0  0  0
 54115  1  0  0  0  0
 54116  1  0  0  0  0
 55117  1  0  0  0  0
 55118  1  0  0  0  0
 55119  1  0  0  0  0
M  END
> <PUBCHEM_COMPOUND_CID>
510167
> <PUBCHEM_COMPOUND_CANONICALIZED>
1
> <PUBCHEM_CACTVS_COMPLEXITY>
1300
> <PUBCHEM_CACTVS_HBOND_ACCEPTOR>
14
> <PUBCHEM_CACTVS_HBOND_DONOR>
8
> <PUBCHEM_CACTVS_ROTATABLE_BOND>
21
> <PUBCHEM_CACTVS_SUBSKEYS>
AAADcfB/vAAAAAAAAAAAAAAAAAAAASJAAAAgAAAABYAAAAAAAAAAHgAQCAAACDzxgAcDCAPABgCIACFWUACAAAAAAgAIAIGIAECTUBYAwCA/QAAPNyKXAMH+/K/AAAAAAAAAAAAAAAAAAAAAAAAAAAAAAA==
> <PUBCHEM_IUPAC_OPENEYE_NAME>
(6S)-2-[(R)-[(3R,4S,5R)-5-(aminomethyl)-3,4-dihydroxy-tetrahydrofuran-2-yl]oxy-[(3S,4R)-5-(2,4-dioxopyrimidin-1-yl)-3,4-dihydroxy-tetrahydrofuran-2-yl]methyl]-6-hydroxy-1,4-dimethyl-3-oxo-N-pentadecyl-1,4-diazepane-5-carboxamide
> <PUBCHEM_IUPAC_CAS_NAME>
(6S)-2-[(R)-[(3R,4S,5R)-5-(aminomethyl)-3,4-dihydroxy-2-oxolanyl]oxy-[(3S,4R)-5-(2,4-dioxo-1-pyrimidinyl)-3,4-dihydroxy-2-oxolanyl]methyl]-6-hydroxy-1,4-dimethyl-3-oxo-N-pentadecyl-1,4-diazepane-5-carboxamide
> <PUBCHEM_IUPAC_NAME_MARKUP>
(6<I>S</I>)-2-[(<I>R</I>)-[(3<I>R</I>,4<I>S</I>,5<I>R</I>)-5-(aminomethyl)-3,4-dihydroxyoxolan-2-yl]oxy-[(3<I>S</I>,4<I>R</I>)-5-(2,4-dioxopyrimidin-1-yl)-3,4-dihydroxyoxolan-2-yl]methyl]-6-hydroxy-1,4-dimethyl-3-oxo-<I>N</I>-pentadecyl-1,4-diazepane-5-carboxamide
> <PUBCHEM_IUPAC_NAME>
(6S)-2-[(R)-[(3R,4S,5R)-5-(aminomethyl)-3,4-dihydroxyoxolan-2-yl]oxy-[(3S,4R)-5-(2,4-dioxopyrimidin-1-yl)-3,4-dihydroxyoxolan-2-yl]methyl]-6-hydroxy-1,4-dimethyl-3-oxo-N-pentadecyl-1,4-diazepane-5-carboxamide
> <PUBCHEM_IUPAC_SYSTEMATIC_NAME>
(6S)-2-[(R)-[(3R,4S,5R)-5-(aminomethyl)-3,4-bis(oxidanyl)oxolan-2-yl]oxy-[(3S,4R)-5-[2,4-bis(oxidanylidene)pyrimidin-1-yl]-3,4-bis(oxidanyl)oxolan-2-yl]methyl]-1,4-dimethyl-6-oxidanyl-3-oxidanylidene-N-pentadecyl-1,4-diazepane-5-carboxamide
> <PUBCHEM_IUPAC_TRADITIONAL_NAME>
(6S)-2-[(R)-[(3R,4S,5R)-5-(aminomethyl)-3,4-dihydroxy-tetrahydrofuran-2-yl]oxy-[(3S,4R)-5-(2,4-diketopyrimidin-1-yl)-3,4-dihydroxy-tetrahydrofuran-2-yl]methyl]-6-hydroxy-3-keto-1,4-dimethyl-N-pentadecyl-1,4-diazepane-5-carboxamide
> <PUBCHEM_IUPAC_INCHI>
InChI=1S/C37H64N6O12/c1-4-5-6-7-8-9-10-11-12-13-14-15-16-18-39-33(50)25-22(44)21-41(2)26(34(51)42(25)3)31(55-36-30(49)27(46)23(20-38)53-36)32-28(47)29(48)35(54-32)43-19-17-24(45)40-37(43)52/h17,19,22-23,25-32,35-36,44,46-49H,4-16,18,20-21,38H2,1-3H3,(H,39,50)(H,40,45,52)/t22-,23+,25?,26?,27+,28-,29+,30+,31+,32?,35?,36?/m0/s1
> <PUBCHEM_IUPAC_INCHIKEY>
WYJNNYALQZMAEX-QRLIMIAOSA-N
> <PUBCHEM_XLOGP3_AA>
1.9
> <PUBCHEM_EXACT_MASS>
784.45822150
> <PUBCHEM_MOLECULAR_FORMULA>
C37H64N6O12
> <PUBCHEM_MOLECULAR_WEIGHT>
784.9
> <PUBCHEM_OPENEYE_CAN_SMILES>
CCCCCCCCCCCCCCCNC(=O)C1C(CN(C(C(=O)N1C)C(C2C(C(C(O2)N3C=CC(=O)NC3=O)O)O)OC4C(C(C(O4)CN)O)O)C)O
> <PUBCHEM_OPENEYE_ISO_SMILES>
CCCCCCCCCCCCCCCNC(=O)C1[C@H](CN(C(C(=O)N1C)[C@H](C2[C@H]([C@H](C(O2)N3C=CC(=O)NC3=O)O)O)OC4[C@@H]([C@@H]([C@H](O4)CN)O)O)C)O
> <PUBCHEM_CACTVS_TPSA>
257
> <PUBCHEM_MONOISOTOPIC_WEIGHT>
784.45822150
> <PUBCHEM_TOTAL_CHARGE>
0
> <PUBCHEM_HEAVY_ATOM_COUNT>
55
> <PUBCHEM_ATOM_DEF_STEREO_COUNT>
7
> <PUBCHEM_ATOM_UDEF_STEREO_COUNT>
5
> <PUBCHEM_BOND_DEF_STEREO_COUNT>
0
> <PUBCHEM_BOND_UDEF_STEREO_COUNT>
0
> <PUBCHEM_ISOTOPIC_ATOM_COUNT>
0
> <PUBCHEM_COMPONENT_COUNT>
1
> <PUBCHEM_CACTVS_TAUTO_COUNT>
-1
> <PUBCHEM_COORDINATE_TYPE>
1
5
255
> <PUBCHEM_BONDANNOTATIONS>
19  1  3
24  15  3
15  37  8
15  38  8
17  37  8
17  41  8
20  2  6
25  2  3
21  26  3
30  35  3
32  34  5
38  39  8
39  41  8
22  4  6
23  5  6
28  6  6
29  7  6
31  9  6
$$$$
