510160
  -OEChem-10302200282D
 34 35  0     1  0  0  0  0  0999 V2000
    6.4347    3.3933    0.0000 O   0  0  0  0  0  0  0  0  0  0  0  0
    3.7320    0.8988    0.0000 O   0  0  0  0  0  0  0  0  0  0  0  0
    2.8660   -3.6012    0.0000 O   0  5  0  0  0  0  0  0  0  0  0  0
    6.3301   -3.6012    0.0000 O   0  5  0  0  0  0  0  0  0  0  0  0
    2.0000   -2.1012    0.0000 O   0  0  0  0  0  0  0  0  0  0  0  0
    7.1962   -2.1012    0.0000 O   0  0  0  0  0  0  0  0  0  0  0  0
    5.4641    0.8988    0.0000 N   0  0  0  0  0  0  0  0  0  0  0  0
    2.8660   -2.6012    0.0000 N   0  3  0  0  0  0  0  0  0  0  0  0
    6.3301   -2.6012    0.0000 N   0  3  0  0  0  0  0  0  0  0  0  0
    6.3301    2.3988    0.0000 C   0  0  3  0  0  0  0  0  0  0  0  0
    7.2437    1.9920    0.0000 C   0  0  0  0  0  0  0  0  0  0  0  0
    7.9128    2.7352    0.0000 C   0  0  0  0  0  0  0  0  0  0  0  0
    7.4128    3.6012    0.0000 C   0  0  0  0  0  0  0  0  0  0  0  0
    5.4641    1.8988    0.0000 C   0  0  0  0  0  0  0  0  0  0  0  0
    4.5981    0.3988    0.0000 C   0  0  0  0  0  0  0  0  0  0  0  0
    4.5981   -0.6012    0.0000 C   0  0  0  0  0  0  0  0  0  0  0  0
    5.4641   -1.1012    0.0000 C   0  0  0  0  0  0  0  0  0  0  0  0
    3.7320   -1.1012    0.0000 C   0  0  0  0  0  0  0  0  0  0  0  0
    3.7320   -2.1012    0.0000 C   0  0  0  0  0  0  0  0  0  0  0  0
    5.4641   -2.1012    0.0000 C   0  0  0  0  0  0  0  0  0  0  0  0
    4.5981   -2.6012    0.0000 C   0  0  0  0  0  0  0  0  0  0  0  0
    5.8102    2.7365    0.0000 H   0  0  0  0  0  0  0  0  0  0  0  0
    6.9337    1.4551    0.0000 H   0  0  0  0  0  0  0  0  0  0  0  0
    7.7453    1.6276    0.0000 H   0  0  0  0  0  0  0  0  0  0  0  0
    8.3277    2.2744    0.0000 H   0  0  0  0  0  0  0  0  0  0  0  0
    8.4144    3.0996    0.0000 H   0  0  0  0  0  0  0  0  0  0  0  0
    7.9792    3.8534    0.0000 H   0  0  0  0  0  0  0  0  0  0  0  0
    7.2212    4.1909    0.0000 H   0  0  0  0  0  0  0  0  0  0  0  0
    5.2520    2.4814    0.0000 H   0  0  0  0  0  0  0  0  0  0  0  0
    4.8535    1.7911    0.0000 H   0  0  0  0  0  0  0  0  0  0  0  0
    6.0010    0.5888    0.0000 H   0  0  0  0  0  0  0  0  0  0  0  0
    6.0010   -0.7912    0.0000 H   0  0  0  0  0  0  0  0  0  0  0  0
    3.1951   -0.7912    0.0000 H   0  0  0  0  0  0  0  0  0  0  0  0
    4.5981   -3.2212    0.0000 H   0  0  0  0  0  0  0  0  0  0  0  0
  1 10  1  0  0  0  0
  1 13  1  0  0  0  0
  2 15  2  0  0  0  0
  3  8  1  0  0  0  0
  4  9  1  0  0  0  0
  5  8  2  0  0  0  0
  6  9  2  0  0  0  0
  7 14  1  0  0  0  0
  7 15  1  0  0  0  0
  7 31  1  0  0  0  0
  8 19  1  0  0  0  0
  9 20  1  0  0  0  0
 10 11  1  0  0  0  0
 10 14  1  0  0  0  0
 10 22  1  0  0  0  0
 11 12  1  0  0  0  0
 11 23  1  0  0  0  0
 11 24  1  0  0  0  0
 12 13  1  0  0  0  0
 12 25  1  0  0  0  0
 12 26  1  0  0  0  0
 13 27  1  0  0  0  0
 13 28  1  0  0  0  0
 14 29  1  0  0  0  0
 14 30  1  0  0  0  0
 15 16  1  0  0  0  0
 16 17  2  0  0  0  0
 16 18  1  0  0  0  0
 17 20  1  0  0  0  0
 17 32  1  0  0  0  0
 18 19  2  0  0  0  0
 18 33  1  0  0  0  0
 19 21  1  0  0  0  0
 20 21  2  0  0  0  0
 21 34  1  0  0  0  0
M  CHG  4   3  -1   4  -1   8   1   9   1
M  END
> <PUBCHEM_COMPOUND_CID>
510160
> <PUBCHEM_COMPOUND_CANONICALIZED>
1
> <PUBCHEM_CACTVS_COMPLEXITY>
396
> <PUBCHEM_CACTVS_HBOND_ACCEPTOR>
6
> <PUBCHEM_CACTVS_HBOND_DONOR>
1
> <PUBCHEM_CACTVS_ROTATABLE_BOND>
3
> <PUBCHEM_CACTVS_SUBSKEYS>
AAADccBzOAAAAAAAAAAAAAAAAAAAASAAAAAwAAAAAAAAAAABAAAAHgAUAAAADBzhmAYwwILQRACJAiVSUwCCAAAkAgAgiIEIZMoKIDKA1dGHIQhklgCYyYecmAKOAAAAQAQAAAAAAACACAAAAAAAAAAAAA==
> <PUBCHEM_IUPAC_OPENEYE_NAME>
3,5-dinitro-N-(tetrahydrofuran-2-ylmethyl)benzamide
> <PUBCHEM_IUPAC_CAS_NAME>
3,5-dinitro-N-(2-oxolanylmethyl)benzamide
> <PUBCHEM_IUPAC_NAME_MARKUP>
3,5-dinitro-<I>N</I>-(oxolan-2-ylmethyl)benzamide
> <PUBCHEM_IUPAC_NAME>
3,5-dinitro-N-(oxolan-2-ylmethyl)benzamide
> <PUBCHEM_IUPAC_SYSTEMATIC_NAME>
3,5-dinitro-N-(oxolan-2-ylmethyl)benzamide
> <PUBCHEM_IUPAC_TRADITIONAL_NAME>
3,5-dinitro-N-(tetrahydrofurfuryl)benzamide
> <PUBCHEM_IUPAC_INCHI>
InChI=1S/C12H13N3O6/c16-12(13-7-11-2-1-3-21-11)8-4-9(14(17)18)6-10(5-8)15(19)20/h4-6,11H,1-3,7H2,(H,13,16)
> <PUBCHEM_IUPAC_INCHIKEY>
QAEHFUQRAUYYJY-UHFFFAOYSA-N
> <PUBCHEM_XLOGP3_AA>
1.3
> <PUBCHEM_EXACT_MASS>
295.08043514
> <PUBCHEM_MOLECULAR_FORMULA>
C12H13N3O6
> <PUBCHEM_MOLECULAR_WEIGHT>
295.25
> <PUBCHEM_OPENEYE_CAN_SMILES>
C1CC(OC1)CNC(=O)C2=CC(=CC(=C2)[N+](=O)[O-])[N+](=O)[O-]
> <PUBCHEM_OPENEYE_ISO_SMILES>
C1CC(OC1)CNC(=O)C2=CC(=CC(=C2)[N+](=O)[O-])[N+](=O)[O-]
> <PUBCHEM_CACTVS_TPSA>
130
> <PUBCHEM_MONOISOTOPIC_WEIGHT>
295.08043514
> <PUBCHEM_TOTAL_CHARGE>
0
> <PUBCHEM_HEAVY_ATOM_COUNT>
21
> <PUBCHEM_ATOM_DEF_STEREO_COUNT>
0
> <PUBCHEM_ATOM_UDEF_STEREO_COUNT>
1
> <PUBCHEM_BOND_DEF_STEREO_COUNT>
0
> <PUBCHEM_BOND_UDEF_STEREO_COUNT>
0
> <PUBCHEM_ISOTOPIC_ATOM_COUNT>
0
> <PUBCHEM_COMPONENT_COUNT>
1
> <PUBCHEM_CACTVS_TAUTO_COUNT>
2
> <PUBCHEM_COORDINATE_TYPE>
1
5
255
> <PUBCHEM_BONDANNOTATIONS>
10  14  3
16  17  8
16  18  8
17  20  8
18  19  8
19  21  8
20  21  8
$$$$
