510190
  -OEChem-10302200282D
 74 78  0     1  0  0  0  0  0999 V2000
    2.1931    1.0723    0.0000 O   0  0  0  0  0  0  0  0  0  0  0  0
    5.7812   -1.1496    0.0000 O   0  0  0  0  0  0  0  0  0  0  0  0
    6.1062    1.7936    0.0000 O   0  0  0  0  0  0  0  0  0  0  0  0
    4.7984    2.9957    0.0000 O   0  0  0  0  0  0  0  0  0  0  0  0
    6.8611    0.2046    0.0000 O   0  0  0  0  0  0  0  0  0  0  0  0
    7.3449   -2.3966    0.0000 O   0  0  0  0  0  0  0  0  0  0  0  0
   10.2865   -0.3117    0.0000 O   0  0  0  0  0  0  0  0  0  0  0  0
    8.5738   -0.0536    0.0000 N   0  0  0  0  0  0  0  0  0  0  0  0
    3.1974   -0.5261    0.0000 C   0  0  2  0  0  0  0  0  0  0  0  0
    4.0984   -0.9600    0.0000 C   0  0  1  0  0  0  0  0  0  0  0  0
    2.9842   -2.1214    0.0000 C   0  0  0  0  0  0  0  0  0  0  0  0
    2.5124   -1.2464    0.0000 C   0  0  0  0  0  0  0  0  0  0  0  0
    3.9624   -1.9448    0.0000 C   0  0  0  0  0  0  0  0  0  0  0  0
    2.9749    0.4488    0.0000 C   0  0  2  0  0  0  0  0  0  0  0  0
    4.9994   -0.5261    0.0000 C   0  0  1  0  0  0  0  0  0  0  0  0
    3.5984    1.2306    0.0000 C   0  0  0  0  0  0  0  0  0  0  0  0
    3.1627   -3.1053    0.0000 C   0  0  0  0  0  0  0  0  0  0  0  0
    2.1036   -2.5953    0.0000 C   0  0  0  0  0  0  0  0  0  0  0  0
    5.2219    0.4488    0.0000 C   0  0  0  0  0  0  0  0  0  0  0  0
    4.5984    1.2306    0.0000 C   0  0  0  0  0  0  0  0  0  0  0  0
    2.0000    0.2263    0.0000 C   0  0  0  0  0  0  0  0  0  0  0  0
    6.1517    0.8005    0.0000 C   0  0  0  0  0  0  0  0  0  0  0  0
    5.1482    2.0588    0.0000 C   0  0  0  0  0  0  0  0  0  0  0  0
    6.7121   -0.7843    0.0000 C   0  0  0  0  0  0  0  0  0  0  0  0
    7.4939   -1.4078    0.0000 C   0  0  1  0  0  0  0  0  0  0  0  0
    8.4248   -1.0424    0.0000 C   0  0  2  0  0  0  0  0  0  0  0  0
    9.2066   -1.6659    0.0000 C   0  0  0  0  0  0  0  0  0  0  0  0
   10.1375   -1.3006    0.0000 C   0  0  0  0  0  0  0  0  0  0  0  0
    9.0576   -2.6548    0.0000 C   0  0  0  0  0  0  0  0  0  0  0  0
    9.5047    0.3117    0.0000 C   0  0  0  0  0  0  0  0  0  0  0  0
   10.9193   -1.9241    0.0000 C   0  0  0  0  0  0  0  0  0  0  0  0
    9.8394   -3.2782    0.0000 C   0  0  0  0  0  0  0  0  0  0  0  0
    9.6538    1.3006    0.0000 C   0  0  0  0  0  0  0  0  0  0  0  0
   10.7703   -2.9129    0.0000 C   0  0  0  0  0  0  0  0  0  0  0  0
    8.8719    1.9241    0.0000 C   0  0  0  0  0  0  0  0  0  0  0  0
   10.5846    1.6659    0.0000 C   0  0  0  0  0  0  0  0  0  0  0  0
    9.0210    2.9129    0.0000 C   0  0  0  0  0  0  0  0  0  0  0  0
   10.7337    2.6548    0.0000 C   0  0  0  0  0  0  0  0  0  0  0  0
    9.9518    3.2782    0.0000 C   0  0  0  0  0  0  0  0  0  0  0  0
    2.3778   -0.3011    0.0000 H   0  0  0  0  0  0  0  0  0  0  0  0
    4.7854   -1.4605    0.0000 H   0  0  0  0  0  0  0  0  0  0  0  0
    2.1105   -0.7743    0.0000 H   0  0  0  0  0  0  0  0  0  0  0  0
    2.0006   -1.5964    0.0000 H   0  0  0  0  0  0  0  0  0  0  0  0
    4.0079   -2.5631    0.0000 H   0  0  0  0  0  0  0  0  0  0  0  0
    4.5821   -1.9645    0.0000 H   0  0  0  0  0  0  0  0  0  0  0  0
    5.5846   -0.3214    0.0000 H   0  0  0  0  0  0  0  0  0  0  0  0
    3.7364    1.8351    0.0000 H   0  0  0  0  0  0  0  0  0  0  0  0
    3.0398    1.4996    0.0000 H   0  0  0  0  0  0  0  0  0  0  0  0
    2.5527   -3.2160    0.0000 H   0  0  0  0  0  0  0  0  0  0  0  0
    3.2734   -3.7154    0.0000 H   0  0  0  0  0  0  0  0  0  0  0  0
    3.7728   -2.9946    0.0000 H   0  0  0  0  0  0  0  0  0  0  0  0
    1.8098   -2.0493    0.0000 H   0  0  0  0  0  0  0  0  0  0  0  0
    1.5576   -2.8891    0.0000 H   0  0  0  0  0  0  0  0  0  0  0  0
    2.3974   -3.1412    0.0000 H   0  0  0  0  0  0  0  0  0  0  0  0
    1.8620    0.8307    0.0000 H   0  0  0  0  0  0  0  0  0  0  0  0
    1.3955    0.0883    0.0000 H   0  0  0  0  0  0  0  0  0  0  0  0
    2.1380   -0.3782    0.0000 H   0  0  0  0  0  0  0  0  0  0  0  0
    2.2855    1.6854    0.0000 H   0  0  0  0  0  0  0  0  0  0  0  0
    6.3089    0.2008    0.0000 H   0  0  0  0  0  0  0  0  0  0  0  0
    6.7646    0.8938    0.0000 H   0  0  0  0  0  0  0  0  0  0  0  0
    6.9168   -1.6343    0.0000 H   0  0  0  0  0  0  0  0  0  0  0  0
    9.0019   -0.8159    0.0000 H   0  0  0  0  0  0  0  0  0  0  0  0
    6.7677   -2.6231    0.0000 H   0  0  0  0  0  0  0  0  0  0  0  0
    8.0891    0.3330    0.0000 H   0  0  0  0  0  0  0  0  0  0  0  0
   10.2299   -0.6875    0.0000 H   0  0  0  0  0  0  0  0  0  0  0  0
    8.4804   -2.8813    0.0000 H   0  0  0  0  0  0  0  0  0  0  0  0
   11.4965   -1.6976    0.0000 H   0  0  0  0  0  0  0  0  0  0  0  0
    9.7470   -3.8913    0.0000 H   0  0  0  0  0  0  0  0  0  0  0  0
   11.2550   -3.2995    0.0000 H   0  0  0  0  0  0  0  0  0  0  0  0
    8.2948    1.6976    0.0000 H   0  0  0  0  0  0  0  0  0  0  0  0
   11.0694    1.2794    0.0000 H   0  0  0  0  0  0  0  0  0  0  0  0
    8.5362    3.2995    0.0000 H   0  0  0  0  0  0  0  0  0  0  0  0
   11.3108    2.8813    0.0000 H   0  0  0  0  0  0  0  0  0  0  0  0
   10.0442    3.8913    0.0000 H   0  0  0  0  0  0  0  0  0  0  0  0
 14  1  1  1  0  0  0
  1 58  1  0  0  0  0
 15  2  1  1  0  0  0
  2 24  1  0  0  0  0
  3 22  1  0  0  0  0
  3 23  1  0  0  0  0
  4 23  2  0  0  0  0
  5 24  2  0  0  0  0
 25  6  1  1  0  0  0
  6 63  1  0  0  0  0
  7 30  2  0  0  0  0
 26  8  1  1  0  0  0
  8 30  1  0  0  0  0
  8 64  1  0  0  0  0
  9 10  1  0  0  0  0
  9 12  1  0  0  0  0
  9 14  1  0  0  0  0
  9 40  1  1  0  0  0
 10 13  1  0  0  0  0
 10 15  1  0  0  0  0
 10 41  1  1  0  0  0
 11 12  1  0  0  0  0
 11 13  1  0  0  0  0
 11 17  1  0  0  0  0
 11 18  1  0  0  0  0
 12 42  1  0  0  0  0
 12 43  1  0  0  0  0
 13 44  1  0  0  0  0
 13 45  1  0  0  0  0
 14 16  1  0  0  0  0
 14 21  1  0  0  0  0
 15 19  1  0  0  0  0
 15 46  1  0  0  0  0
 16 20  1  0  0  0  0
 16 47  1  0  0  0  0
 16 48  1  0  0  0  0
 17 49  1  0  0  0  0
 17 50  1  0  0  0  0
 17 51  1  0  0  0  0
 18 52  1  0  0  0  0
 18 53  1  0  0  0  0
 18 54  1  0  0  0  0
 19 20  2  0  0  0  0
 19 22  1  0  0  0  0
 20 23  1  0  0  0  0
 21 55  1  0  0  0  0
 21 56  1  0  0  0  0
 21 57  1  0  0  0  0
 22 59  1  0  0  0  0
 22 60  1  0  0  0  0
 24 25  1  0  0  0  0
 25 26  1  0  0  0  0
 25 61  1  0  0  0  0
 26 27  1  0  0  0  0
 26 62  1  0  0  0  0
 27 28  2  0  0  0  0
 27 29  1  0  0  0  0
 28 31  1  0  0  0  0
 28 65  1  0  0  0  0
 29 32  2  0  0  0  0
 29 66  1  0  0  0  0
 30 33  1  0  0  0  0
 31 34  2  0  0  0  0
 31 67  1  0  0  0  0
 32 34  1  0  0  0  0
 32 68  1  0  0  0  0
 33 35  2  0  0  0  0
 33 36  1  0  0  0  0
 34 69  1  0  0  0  0
 35 37  1  0  0  0  0
 35 70  1  0  0  0  0
 36 38  2  0  0  0  0
 36 71  1  0  0  0  0
 37 39  2  0  0  0  0
 37 72  1  0  0  0  0
 38 39  1  0  0  0  0
 38 73  1  0  0  0  0
 39 74  1  0  0  0  0
M  END
> <PUBCHEM_COMPOUND_CID>
510190
> <PUBCHEM_COMPOUND_CANONICALIZED>
1
> <PUBCHEM_CACTVS_COMPLEXITY>
993
> <PUBCHEM_CACTVS_HBOND_ACCEPTOR>
7
> <PUBCHEM_CACTVS_HBOND_DONOR>
3
> <PUBCHEM_CACTVS_ROTATABLE_BOND>
7
> <PUBCHEM_CACTVS_SUBSKEYS>
AAADcfB6OAAAAAAAAAAAAAAAAAAAAYIAAAAwYAAABAAAAACRQAAAHgAQCAAAD3zhmAYyCILABgCIAiHSGAKCAAAkAAAIiIFIBMgLNDqAtRGGcQhn1gGbqYfayPCPgAAAAAAAAAAAAAAAAAAAAQAACAAAAA==
> <PUBCHEM_IUPAC_OPENEYE_NAME>
[(5S,5aS,8aR,9S)-5-hydroxy-5,7,7-trimethyl-3-oxo-4,5a,6,8,8a,9-hexahydro-1H-azuleno[5,6-c]furan-9-yl] (2R,3S)-3-benzamido-2-hydroxy-3-phenyl-propanoate
> <PUBCHEM_IUPAC_CAS_NAME>
(2R,3S)-3-benzamido-2-hydroxy-3-phenylpropanoic acid [(5S,5aS,8aR,9S)-5-hydroxy-5,7,7-trimethyl-3-oxo-4,5a,6,8,8a,9-hexahydro-1H-azuleno[5,6-c]furan-9-yl] ester
> <PUBCHEM_IUPAC_NAME_MARKUP>
[(5<I>S</I>,5<I>a</I><I>S</I>,8<I>a</I><I>R</I>,9<I>S</I>)-5-hydroxy-5,7,7-trimethyl-3-oxo-4,5<I>a</I>,6,8,8<I>a</I>,9-hexahydro-1<I>H</I>-azuleno[5,6-c]furan-9-yl] (2<I>R</I>,3<I>S</I>)-3-benzamido-2-hydroxy-3-phenylpropanoate
> <PUBCHEM_IUPAC_NAME>
[(5S,5aS,8aR,9S)-5-hydroxy-5,7,7-trimethyl-3-oxo-4,5a,6,8,8a,9-hexahydro-1H-azuleno[5,6-c]furan-9-yl] (2R,3S)-3-benzamido-2-hydroxy-3-phenylpropanoate
> <PUBCHEM_IUPAC_SYSTEMATIC_NAME>
[(5S,5aS,8aR,9S)-5,7,7-trimethyl-5-oxidanyl-3-oxidanylidene-4,5a,6,8,8a,9-hexahydro-1H-azuleno[5,6-c]furan-9-yl] (2R,3S)-3-benzamido-2-oxidanyl-3-phenyl-propanoate
> <PUBCHEM_IUPAC_TRADITIONAL_NAME>
(2R,3S)-3-benzamido-2-hydroxy-3-phenyl-propionic acid [(5S,5aS,8aR,9S)-5-hydroxy-3-keto-5,7,7-trimethyl-4,5a,6,8,8a,9-hexahydro-1H-azuleno[5,6-c]furan-9-yl] ester
> <PUBCHEM_IUPAC_INCHI>
InChI=1S/C31H35NO7/c1-30(2)14-21-23(16-30)31(3,37)15-20-22(17-38-28(20)35)26(21)39-29(36)25(33)24(18-10-6-4-7-11-18)32-27(34)19-12-8-5-9-13-19/h4-13,21,23-26,33,37H,14-17H2,1-3H3,(H,32,34)/t21-,23+,24+,25-,26+,31+/m1/s1
> <PUBCHEM_IUPAC_INCHIKEY>
XGZJCRGPUNPQOX-GCPPWLOESA-N
> <PUBCHEM_XLOGP3_AA>
3.2
> <PUBCHEM_EXACT_MASS>
533.24135246
> <PUBCHEM_MOLECULAR_FORMULA>
C31H35NO7
> <PUBCHEM_MOLECULAR_WEIGHT>
533.6
> <PUBCHEM_OPENEYE_CAN_SMILES>
CC1(CC2C(C1)C(CC3=C(C2OC(=O)C(C(C4=CC=CC=C4)NC(=O)C5=CC=CC=C5)O)COC3=O)(C)O)C
> <PUBCHEM_OPENEYE_ISO_SMILES>
C[C@@]1(CC2=C(COC2=O)[C@H]([C@H]3[C@@H]1CC(C3)(C)C)OC(=O)[C@@H]([C@H](C4=CC=CC=C4)NC(=O)C5=CC=CC=C5)O)O
> <PUBCHEM_CACTVS_TPSA>
122
> <PUBCHEM_MONOISOTOPIC_WEIGHT>
533.24135246
> <PUBCHEM_TOTAL_CHARGE>
0
> <PUBCHEM_HEAVY_ATOM_COUNT>
39
> <PUBCHEM_ATOM_DEF_STEREO_COUNT>
6
> <PUBCHEM_ATOM_UDEF_STEREO_COUNT>
0
> <PUBCHEM_BOND_DEF_STEREO_COUNT>
0
> <PUBCHEM_BOND_UDEF_STEREO_COUNT>
0
> <PUBCHEM_ISOTOPIC_ATOM_COUNT>
0
> <PUBCHEM_COMPONENT_COUNT>
1
> <PUBCHEM_CACTVS_TAUTO_COUNT>
-1
> <PUBCHEM_COORDINATE_TYPE>
1
5
255
> <PUBCHEM_BONDANNOTATIONS>
14  1  5
10  41  5
15  2  5
27  28  8
27  29  8
28  31  8
29  32  8
31  34  8
32  34  8
33  35  8
33  36  8
35  37  8
36  38  8
37  39  8
38  39  8
25  6  5
26  8  5
9  40  5
$$$$
