510194
  -OEChem-10302200282D
 79 83  0     1  0  0  0  0  0999 V2000
    2.6328    1.0723    0.0000 O   0  0  0  0  0  0  0  0  0  0  0  0
    6.2209   -1.1496    0.0000 O   0  0  0  0  0  0  0  0  0  0  0  0
    6.5459    1.7936    0.0000 O   0  0  0  0  0  0  0  0  0  0  0  0
    7.3008    0.2046    0.0000 O   0  0  0  0  0  0  0  0  0  0  0  0
    7.7846   -2.3966    0.0000 O   0  0  0  0  0  0  0  0  0  0  0  0
   10.7262   -0.3117    0.0000 O   0  0  0  0  0  0  0  0  0  0  0  0
    9.0135   -0.0536    0.0000 N   0  0  0  0  0  0  0  0  0  0  0  0
    3.6371   -0.5261    0.0000 C   0  0  2  0  0  0  0  0  0  0  0  0
    4.5381   -0.9600    0.0000 C   0  0  1  0  0  0  0  0  0  0  0  0
    3.4239   -2.1214    0.0000 C   0  0  0  0  0  0  0  0  0  0  0  0
    2.9520   -1.2464    0.0000 C   0  0  0  0  0  0  0  0  0  0  0  0
    4.4021   -1.9448    0.0000 C   0  0  0  0  0  0  0  0  0  0  0  0
    3.4146    0.4488    0.0000 C   0  0  2  0  0  0  0  0  0  0  0  0
    5.4391   -0.5261    0.0000 C   0  0  1  0  0  0  0  0  0  0  0  0
    4.0381    1.2306    0.0000 C   0  0  0  0  0  0  0  0  0  0  0  0
    3.6024   -3.1053    0.0000 C   0  0  0  0  0  0  0  0  0  0  0  0
    2.5433   -2.5953    0.0000 C   0  0  0  0  0  0  0  0  0  0  0  0
    5.6616    0.4488    0.0000 C   0  0  0  0  0  0  0  0  0  0  0  0
    2.4397    0.2263    0.0000 C   0  0  0  0  0  0  0  0  0  0  0  0
    5.0381    1.2306    0.0000 C   0  0  0  0  0  0  0  0  0  0  0  0
    6.5914    0.8005    0.0000 C   0  0  0  0  0  0  0  0  0  0  0  0
    5.5879    2.0588    0.0000 C   0  0  0  0  0  0  0  0  0  0  0  0
    2.7818    2.0611    0.0000 C   0  0  0  0  0  0  0  0  0  0  0  0
    7.1518   -0.7843    0.0000 C   0  0  0  0  0  0  0  0  0  0  0  0
    2.0000    2.6846    0.0000 C   0  0  0  0  0  0  0  0  0  0  0  0
    7.9336   -1.4078    0.0000 C   0  0  1  0  0  0  0  0  0  0  0  0
    8.8645   -1.0424    0.0000 C   0  0  2  0  0  0  0  0  0  0  0  0
    9.6463   -1.6659    0.0000 C   0  0  0  0  0  0  0  0  0  0  0  0
    9.4973   -2.6548    0.0000 C   0  0  0  0  0  0  0  0  0  0  0  0
   10.5772   -1.3006    0.0000 C   0  0  0  0  0  0  0  0  0  0  0  0
    9.9444    0.3117    0.0000 C   0  0  0  0  0  0  0  0  0  0  0  0
   10.2791   -3.2782    0.0000 C   0  0  0  0  0  0  0  0  0  0  0  0
   11.3590   -1.9241    0.0000 C   0  0  0  0  0  0  0  0  0  0  0  0
   10.0934    1.3006    0.0000 C   0  0  0  0  0  0  0  0  0  0  0  0
   11.2100   -2.9129    0.0000 C   0  0  0  0  0  0  0  0  0  0  0  0
   11.0243    1.6659    0.0000 C   0  0  0  0  0  0  0  0  0  0  0  0
    9.3116    1.9241    0.0000 C   0  0  0  0  0  0  0  0  0  0  0  0
   11.1734    2.6548    0.0000 C   0  0  0  0  0  0  0  0  0  0  0  0
    9.4607    2.9129    0.0000 C   0  0  0  0  0  0  0  0  0  0  0  0
   10.3915    3.2782    0.0000 C   0  0  0  0  0  0  0  0  0  0  0  0
    2.8175   -0.3011    0.0000 H   0  0  0  0  0  0  0  0  0  0  0  0
    5.2251   -1.4605    0.0000 H   0  0  0  0  0  0  0  0  0  0  0  0
    2.5502   -0.7743    0.0000 H   0  0  0  0  0  0  0  0  0  0  0  0
    2.4403   -1.5964    0.0000 H   0  0  0  0  0  0  0  0  0  0  0  0
    4.4476   -2.5631    0.0000 H   0  0  0  0  0  0  0  0  0  0  0  0
    5.0218   -1.9646    0.0000 H   0  0  0  0  0  0  0  0  0  0  0  0
    6.0243   -0.3214    0.0000 H   0  0  0  0  0  0  0  0  0  0  0  0
    4.1761    1.8351    0.0000 H   0  0  0  0  0  0  0  0  0  0  0  0
    3.4795    1.4996    0.0000 H   0  0  0  0  0  0  0  0  0  0  0  0
    2.9924   -3.2160    0.0000 H   0  0  0  0  0  0  0  0  0  0  0  0
    3.7131   -3.7154    0.0000 H   0  0  0  0  0  0  0  0  0  0  0  0
    4.2124   -2.9946    0.0000 H   0  0  0  0  0  0  0  0  0  0  0  0
    2.2495   -2.0493    0.0000 H   0  0  0  0  0  0  0  0  0  0  0  0
    1.9973   -2.8891    0.0000 H   0  0  0  0  0  0  0  0  0  0  0  0
    2.8371   -3.1412    0.0000 H   0  0  0  0  0  0  0  0  0  0  0  0
    2.3017    0.8307    0.0000 H   0  0  0  0  0  0  0  0  0  0  0  0
    1.8352    0.0883    0.0000 H   0  0  0  0  0  0  0  0  0  0  0  0
    2.5777   -0.3782    0.0000 H   0  0  0  0  0  0  0  0  0  0  0  0
    7.1094    0.4598    0.0000 H   0  0  0  0  0  0  0  0  0  0  0  0
    5.3710    2.6397    0.0000 H   0  0  0  0  0  0  0  0  0  0  0  0
    3.3696    1.8637    0.0000 H   0  0  0  0  0  0  0  0  0  0  0  0
    3.0784    2.6056    0.0000 H   0  0  0  0  0  0  0  0  0  0  0  0
    2.3866    3.1693    0.0000 H   0  0  0  0  0  0  0  0  0  0  0  0
    1.5153    3.0712    0.0000 H   0  0  0  0  0  0  0  0  0  0  0  0
    1.6134    2.1999    0.0000 H   0  0  0  0  0  0  0  0  0  0  0  0
    8.4184   -1.7943    0.0000 H   0  0  0  0  0  0  0  0  0  0  0  0
    8.3798   -0.6559    0.0000 H   0  0  0  0  0  0  0  0  0  0  0  0
    7.2074   -2.6231    0.0000 H   0  0  0  0  0  0  0  0  0  0  0  0
    8.5288    0.3330    0.0000 H   0  0  0  0  0  0  0  0  0  0  0  0
    8.9201   -2.8813    0.0000 H   0  0  0  0  0  0  0  0  0  0  0  0
   10.6696   -0.6875    0.0000 H   0  0  0  0  0  0  0  0  0  0  0  0
   10.1867   -3.8913    0.0000 H   0  0  0  0  0  0  0  0  0  0  0  0
   11.9362   -1.6976    0.0000 H   0  0  0  0  0  0  0  0  0  0  0  0
   11.6947   -3.2995    0.0000 H   0  0  0  0  0  0  0  0  0  0  0  0
   11.5091    1.2794    0.0000 H   0  0  0  0  0  0  0  0  0  0  0  0
    8.7345    1.6976    0.0000 H   0  0  0  0  0  0  0  0  0  0  0  0
   11.7505    2.8813    0.0000 H   0  0  0  0  0  0  0  0  0  0  0  0
    8.9759    3.2995    0.0000 H   0  0  0  0  0  0  0  0  0  0  0  0
   10.4839    3.8913    0.0000 H   0  0  0  0  0  0  0  0  0  0  0  0
 13  1  1  1  0  0  0
  1 23  1  0  0  0  0
 14  2  1  1  0  0  0
  2 24  1  0  0  0  0
  3 21  1  0  0  0  0
  3 22  1  0  0  0  0
  4 24  2  0  0  0  0
 26  5  1  1  0  0  0
  5 68  1  0  0  0  0
  6 31  2  0  0  0  0
 27  7  1  1  0  0  0
  7 31  1  0  0  0  0
  7 69  1  0  0  0  0
  8  9  1  0  0  0  0
  8 11  1  0  0  0  0
  8 13  1  0  0  0  0
  8 41  1  1  0  0  0
  9 12  1  0  0  0  0
  9 14  1  0  0  0  0
  9 42  1  1  0  0  0
 10 11  1  0  0  0  0
 10 12  1  0  0  0  0
 10 16  1  0  0  0  0
 10 17  1  0  0  0  0
 11 43  1  0  0  0  0
 11 44  1  0  0  0  0
 12 45  1  0  0  0  0
 12 46  1  0  0  0  0
 13 15  1  0  0  0  0
 13 19  1  0  0  0  0
 14 18  1  0  0  0  0
 14 47  1  0  0  0  0
 15 20  1  0  0  0  0
 15 48  1  0  0  0  0
 15 49  1  0  0  0  0
 16 50  1  0  0  0  0
 16 51  1  0  0  0  0
 16 52  1  0  0  0  0
 17 53  1  0  0  0  0
 17 54  1  0  0  0  0
 17 55  1  0  0  0  0
 18 20  1  0  0  0  0
 18 21  2  0  0  0  0
 19 56  1  0  0  0  0
 19 57  1  0  0  0  0
 19 58  1  0  0  0  0
 20 22  2  0  0  0  0
 21 59  1  0  0  0  0
 22 60  1  0  0  0  0
 23 25  1  0  0  0  0
 23 61  1  0  0  0  0
 23 62  1  0  0  0  0
 24 26  1  0  0  0  0
 25 63  1  0  0  0  0
 25 64  1  0  0  0  0
 25 65  1  0  0  0  0
 26 27  1  0  0  0  0
 26 66  1  0  0  0  0
 27 28  1  0  0  0  0
 27 67  1  0  0  0  0
 28 29  2  0  0  0  0
 28 30  1  0  0  0  0
 29 32  1  0  0  0  0
 29 70  1  0  0  0  0
 30 33  2  0  0  0  0
 30 71  1  0  0  0  0
 31 34  1  0  0  0  0
 32 35  2  0  0  0  0
 32 72  1  0  0  0  0
 33 35  1  0  0  0  0
 33 73  1  0  0  0  0
 34 36  2  0  0  0  0
 34 37  1  0  0  0  0
 35 74  1  0  0  0  0
 36 38  1  0  0  0  0
 36 75  1  0  0  0  0
 37 39  2  0  0  0  0
 37 76  1  0  0  0  0
 38 40  2  0  0  0  0
 38 77  1  0  0  0  0
 39 40  1  0  0  0  0
 39 78  1  0  0  0  0
 40 79  1  0  0  0  0
M  END
> <PUBCHEM_COMPOUND_CID>
510194
> <PUBCHEM_COMPOUND_CANONICALIZED>
1
> <PUBCHEM_CACTVS_COMPLEXITY>
880
> <PUBCHEM_CACTVS_HBOND_ACCEPTOR>
6
> <PUBCHEM_CACTVS_HBOND_DONOR>
2
> <PUBCHEM_CACTVS_ROTATABLE_BOND>
9
> <PUBCHEM_CACTVS_SUBSKEYS>
AAADcfB+OAAAAAAAAAAAAAAAAAAAAaIAAAAwYAAABgAAAADR0AAAHgAQCAAAD3zhmAYyDILABkCIAinSmAKCCAAkIAAIiIFMDMgPNz6EtRuGeSjn9hGbqYfa7PzPgAAAAAAAAAAAAAAAAAAAAQAACAAAAA==
> <PUBCHEM_IUPAC_OPENEYE_NAME>
[(5S,5aS,8aR,9S)-5-ethoxy-5,7,7-trimethyl-4,5a,6,8,8a,9-hexahydroazuleno[5,6-c]furan-9-yl] (2R,3S)-3-benzamido-2-hydroxy-3-phenyl-propanoate
> <PUBCHEM_IUPAC_CAS_NAME>
(2R,3S)-3-benzamido-2-hydroxy-3-phenylpropanoic acid [(5S,5aS,8aR,9S)-5-ethoxy-5,7,7-trimethyl-4,5a,6,8,8a,9-hexahydroazuleno[5,6-c]furan-9-yl] ester
> <PUBCHEM_IUPAC_NAME_MARKUP>
[(5<I>S</I>,5<I>a</I><I>S</I>,8<I>a</I><I>R</I>,9<I>S</I>)-5-ethoxy-5,7,7-trimethyl-4,5<I>a</I>,6,8,8<I>a</I>,9-hexahydroazuleno[5,6-c]furan-9-yl] (2<I>R</I>,3<I>S</I>)-3-benzamido-2-hydroxy-3-phenylpropanoate
> <PUBCHEM_IUPAC_NAME>
[(5S,5aS,8aR,9S)-5-ethoxy-5,7,7-trimethyl-4,5a,6,8,8a,9-hexahydroazuleno[5,6-c]furan-9-yl] (2R,3S)-3-benzamido-2-hydroxy-3-phenylpropanoate
> <PUBCHEM_IUPAC_SYSTEMATIC_NAME>
[(5S,5aS,8aR,9S)-5-ethoxy-5,7,7-trimethyl-4,5a,6,8,8a,9-hexahydroazuleno[5,6-c]furan-9-yl] (2R,3S)-3-benzamido-2-oxidanyl-3-phenyl-propanoate
> <PUBCHEM_IUPAC_TRADITIONAL_NAME>
(2R,3S)-3-benzamido-2-hydroxy-3-phenyl-propionic acid [(5S,5aS,8aR,9S)-5-ethoxy-5,7,7-trimethyl-4,5a,6,8,8a,9-hexahydroazuleno[5,6-c]furan-9-yl] ester
> <PUBCHEM_IUPAC_INCHI>
InChI=1S/C33H39NO6/c1-5-39-33(4)16-23-19-38-20-25(23)29(24-17-32(2,3)18-26(24)33)40-31(37)28(35)27(21-12-8-6-9-13-21)34-30(36)22-14-10-7-11-15-22/h6-15,19-20,24,26-29,35H,5,16-18H2,1-4H3,(H,34,36)/t24-,26+,27+,28-,29+,33+/m1/s1
> <PUBCHEM_IUPAC_INCHIKEY>
ZGUMQEAVGLBEIU-HCZVRZFPSA-N
> <PUBCHEM_XLOGP3_AA>
5.3
> <PUBCHEM_EXACT_MASS>
545.27773796
> <PUBCHEM_MOLECULAR_FORMULA>
C33H39NO6
> <PUBCHEM_MOLECULAR_WEIGHT>
545.7
> <PUBCHEM_OPENEYE_CAN_SMILES>
CCOC1(CC2=COC=C2C(C3C1CC(C3)(C)C)OC(=O)C(C(C4=CC=CC=C4)NC(=O)C5=CC=CC=C5)O)C
> <PUBCHEM_OPENEYE_ISO_SMILES>
CCO[C@]1(CC2=COC=C2[C@H]([C@H]3[C@@H]1CC(C3)(C)C)OC(=O)[C@@H]([C@H](C4=CC=CC=C4)NC(=O)C5=CC=CC=C5)O)C
> <PUBCHEM_CACTVS_TPSA>
98
> <PUBCHEM_MONOISOTOPIC_WEIGHT>
545.27773796
> <PUBCHEM_TOTAL_CHARGE>
0
> <PUBCHEM_HEAVY_ATOM_COUNT>
40
> <PUBCHEM_ATOM_DEF_STEREO_COUNT>
6
> <PUBCHEM_ATOM_UDEF_STEREO_COUNT>
0
> <PUBCHEM_BOND_DEF_STEREO_COUNT>
0
> <PUBCHEM_BOND_UDEF_STEREO_COUNT>
0
> <PUBCHEM_ISOTOPIC_ATOM_COUNT>
0
> <PUBCHEM_COMPONENT_COUNT>
1
> <PUBCHEM_CACTVS_TAUTO_COUNT>
-1
> <PUBCHEM_COORDINATE_TYPE>
1
5
255
> <PUBCHEM_BONDANNOTATIONS>
13  1  5
18  20  8
18  21  8
14  2  5
20  22  8
28  29  8
28  30  8
29  32  8
3  21  8
3  22  8
30  33  8
32  35  8
33  35  8
34  36  8
34  37  8
36  38  8
37  39  8
38  40  8
39  40  8
26  5  5
27  7  5
8  41  5
9  42  5
$$$$
