510180
  -OEChem-10302200282D
170174  0     1  0  0  0  0  0999 V2000
   12.5504    6.1246    0.0000 O   0  0  0  0  0  0  0  0  0  0  0  0
   11.3272    4.4318    0.0000 O   0  0  0  0  0  0  0  0  0  0  0  0
   11.3672    6.2133    0.0000 O   0  0  0  0  0  0  0  0  0  0  0  0
   14.8644    5.0004    0.0000 O   0  0  0  0  0  0  0  0  0  0  0  0
   15.1091    6.5104    0.0000 O   0  0  0  0  0  0  0  0  0  0  0  0
   13.2583    0.2654    0.0000 O   0  0  0  0  0  0  0  0  0  0  0  0
    9.1866    4.8202    0.0000 O   0  0  0  0  0  0  0  0  0  0  0  0
   14.6698    3.8673    0.0000 O   0  0  0  0  0  0  0  0  0  0  0  0
    8.8946    6.9761    0.0000 O   0  0  0  0  0  0  0  0  0  0  0  0
   15.8720    1.4412    0.0000 O   0  0  0  0  0  0  0  0  0  0  0  0
   14.7921    0.0870    0.0000 O   0  0  0  0  0  0  0  0  0  0  0  0
   15.0429    7.7877    0.0000 O   0  0  0  0  0  0  0  0  0  0  0  0
   11.5263    0.2654    0.0000 O   0  0  0  0  0  0  0  0  0  0  0  0
   13.2218   10.7346    0.0000 O   0  0  0  0  0  0  0  0  0  0  0  0
   11.5263   -2.7346    0.0000 O   0  0  0  0  0  0  0  0  0  0  0  0
    7.1962   -7.2346    0.0000 O   0  0  0  0  0  0  0  0  0  0  0  0
    7.1962  -10.2346    0.0000 O   0  0  0  0  0  0  0  0  0  0  0  0
    5.4641   -9.2346    0.0000 O   0  0  0  0  0  0  0  0  0  0  0  0
    8.9282   -9.2346    0.0000 O   0  0  0  0  0  0  0  0  0  0  0  0
    8.9282   -7.2346    0.0000 O   0  0  0  0  0  0  0  0  0  0  0  0
    9.7942   -2.7346    0.0000 O   0  0  0  0  0  0  0  0  0  0  0  0
    8.0622   -5.7346    0.0000 O   0  0  0  0  0  0  0  0  0  0  0  0
   12.1348    2.6742    0.0000 N   0  0  3  0  0  0  0  0  0  0  0  0
   14.3818    2.6742    0.0000 N   0  0  0  0  0  0  0  0  0  0  0  0
   13.3116    7.7359    0.0000 N   0  0  0  0  0  0  0  0  0  0  0  0
   14.1324    9.2612    0.0000 N   0  0  0  0  0  0  0  0  0  0  0  0
   10.0919    8.5666    0.0000 N   0  0  0  0  0  0  0  0  0  0  0  0
   12.8878    5.1833    0.0000 C   0  0  3  0  0  0  0  0  0  0  0  0
   12.3244    4.3570    0.0000 C   0  0  1  0  0  0  0  0  0  0  0  0
   12.7583    3.4561    0.0000 C   0  0  3  0  0  0  0  0  0  0  0  0
   13.8873    5.2132    0.0000 C   0  0  2  0  0  0  0  0  0  0  0  0
   14.1677    6.1731    0.0000 C   0  0  2  0  0  0  0  0  0  0  0  0
   13.3415    6.7364    0.0000 C   0  0  3  0  0  0  0  0  0  0  0  0
   10.8934    5.3327    0.0000 C   0  0  3  0  0  0  0  0  0  0  0  0
   12.3574    1.6993    0.0000 C   0  0  0  0  0  0  0  0  0  0  0  0
   13.7583    3.4561    0.0000 C   0  0  0  0  0  0  0  0  0  0  0  0
   13.2583    1.2654    0.0000 C   0  0  1  0  0  0  0  0  0  0  0  0
    9.9094    5.5113    0.0000 C   0  0  1  0  0  0  0  0  0  0  0  0
   14.1593    1.6993    0.0000 C   0  0  3  0  0  0  0  0  0  0  0  0
    9.7752    6.5022    0.0000 C   0  0  1  0  0  0  0  0  0  0  0  0
   10.6762    6.9361    0.0000 C   0  0  1  0  0  0  0  0  0  0  0  0
   11.1599    2.8968    0.0000 C   0  0  0  0  0  0  0  0  0  0  0  0
   10.8547    7.9200    0.0000 C   0  0  0  0  0  0  0  0  0  0  0  0
   15.3567    2.8968    0.0000 C   0  0  0  0  0  0  0  0  0  0  0  0
   14.9411    1.0758    0.0000 C   0  0  0  0  0  0  0  0  0  0  0  0
   14.1623    8.2616    0.0000 C   0  0  0  0  0  0  0  0  0  0  0  0
   12.4310    8.2098    0.0000 C   0  0  0  0  0  0  0  0  0  0  0  0
   12.4011    9.2094    0.0000 C   0  0  0  0  0  0  0  0  0  0  0  0
   12.3923   -0.2346    0.0000 C   0  0  0  0  0  0  0  0  0  0  0  0
   13.2518    9.7350    0.0000 C   0  0  0  0  0  0  0  0  0  0  0  0
   12.3923   -1.2346    0.0000 C   0  0  0  0  0  0  0  0  0  0  0  0
   11.5263   -1.7346    0.0000 C   0  0  3  0  0  0  0  0  0  0  0  0
   16.0210    2.4300    0.0000 C   0  0  0  0  0  0  0  0  0  0  0  0
   10.6603   -1.2346    0.0000 C   0  0  0  0  0  0  0  0  0  0  0  0
    7.1962   -9.2346    0.0000 C   0  0  3  0  0  0  0  0  0  0  0  0
    6.3301   -8.7346    0.0000 C   0  0  3  0  0  0  0  0  0  0  0  0
    8.0622   -8.7346    0.0000 C   0  0  3  0  0  0  0  0  0  0  0  0
   10.6603   -0.2346    0.0000 C   0  0  0  0  0  0  0  0  0  0  0  0
    6.3301   -7.7346    0.0000 C   0  0  3  0  0  0  0  0  0  0  0  0
    8.0622   -7.7346    0.0000 C   0  0  3  0  0  0  0  0  0  0  0  0
    9.7942    0.2654    0.0000 C   0  0  0  0  0  0  0  0  0  0  0  0
    5.4641   -7.2346    0.0000 C   0  0  0  0  0  0  0  0  0  0  0  0
    8.9282   -0.2346    0.0000 C   0  0  0  0  0  0  0  0  0  0  0  0
   10.6603   -3.2346    0.0000 C   0  0  0  0  0  0  0  0  0  0  0  0
    9.7942   -4.7346    0.0000 C   0  0  3  0  0  0  0  0  0  0  0  0
   10.6603   -4.2346    0.0000 C   0  0  0  0  0  0  0  0  0  0  0  0
    8.0622    0.2654    0.0000 C   0  0  0  0  0  0  0  0  0  0  0  0
    9.7942   -5.7346    0.0000 C   0  0  0  0  0  0  0  0  0  0  0  0
    8.9282   -6.2346    0.0000 C   0  0  0  0  0  0  0  0  0  0  0  0
    7.1962   -0.2346    0.0000 C   0  0  0  0  0  0  0  0  0  0  0  0
    6.3301  -10.7346    0.0000 C   0  0  0  0  0  0  0  0  0  0  0  0
    4.5981   -8.7346    0.0000 C   0  0  0  0  0  0  0  0  0  0  0  0
    8.9282   -4.2346    0.0000 C   0  0  0  0  0  0  0  0  0  0  0  0
    6.3301    0.2654    0.0000 C   0  0  0  0  0  0  0  0  0  0  0  0
    9.7942   -8.7346    0.0000 C   0  0  0  0  0  0  0  0  0  0  0  0
    5.4641   -0.2346    0.0000 C   0  0  0  0  0  0  0  0  0  0  0  0
    4.5981    0.2654    0.0000 C   0  0  0  0  0  0  0  0  0  0  0  0
    3.7320   -0.2346    0.0000 C   0  0  0  0  0  0  0  0  0  0  0  0
    2.8660    0.2654    0.0000 C   0  0  0  0  0  0  0  0  0  0  0  0
    2.0000   -0.2346    0.0000 C   0  0  0  0  0  0  0  0  0  0  0  0
    2.8660    1.2654    0.0000 C   0  0  0  0  0  0  0  0  0  0  0  0
   13.1856    4.6395    0.0000 H   0  0  0  0  0  0  0  0  0  0  0  0
   12.0554    4.9156    0.0000 H   0  0  0  0  0  0  0  0  0  0  0  0
   12.1422    3.5255    0.0000 H   0  0  0  0  0  0  0  0  0  0  0  0
   13.8302    4.5958    0.0000 H   0  0  0  0  0  0  0  0  0  0  0  0
   14.6191    5.7480    0.0000 H   0  0  0  0  0  0  0  0  0  0  0  0
   13.8853    7.0342    0.0000 H   0  0  0  0  0  0  0  0  0  0  0  0
   10.5178    4.8394    0.0000 H   0  0  0  0  0  0  0  0  0  0  0  0
   11.7374    1.6993    0.0000 H   0  0  0  0  0  0  0  0  0  0  0  0
   12.2194    1.0948    0.0000 H   0  0  0  0  0  0  0  0  0  0  0  0
   13.7833    0.9356    0.0000 H   0  0  0  0  0  0  0  0  0  0  0  0
   10.0877    4.9175    0.0000 H   0  0  0  0  0  0  0  0  0  0  0  0
   14.7445    1.9041    0.0000 H   0  0  0  0  0  0  0  0  0  0  0  0
    9.2656    6.1492    0.0000 H   0  0  0  0  0  0  0  0  0  0  0  0
   11.2700    7.1144    0.0000 H   0  0  0  0  0  0  0  0  0  0  0  0
   11.2979    3.5012    0.0000 H   0  0  0  0  0  0  0  0  0  0  0  0
   10.5555    3.0347    0.0000 H   0  0  0  0  0  0  0  0  0  0  0  0
   11.0219    2.2923    0.0000 H   0  0  0  0  0  0  0  0  0  0  0  0
   15.2816    5.4591    0.0000 H   0  0  0  0  0  0  0  0  0  0  0  0
   15.5821    6.1095    0.0000 H   0  0  0  0  0  0  0  0  0  0  0  0
   11.4363    7.7051    0.0000 H   0  0  0  0  0  0  0  0  0  0  0  0
   11.1674    8.4554    0.0000 H   0  0  0  0  0  0  0  0  0  0  0  0
   15.4947    2.2923    0.0000 H   0  0  0  0  0  0  0  0  0  0  0  0
   15.9612    3.0347    0.0000 H   0  0  0  0  0  0  0  0  0  0  0  0
   15.2188    3.5012    0.0000 H   0  0  0  0  0  0  0  0  0  0  0  0
   11.9036    7.8839    0.0000 H   0  0  0  0  0  0  0  0  0  0  0  0
    8.5915    4.9941    0.0000 H   0  0  0  0  0  0  0  0  0  0  0  0
    8.8760    7.5958    0.0000 H   0  0  0  0  0  0  0  0  0  0  0  0
   14.6598    9.5871    0.0000 H   0  0  0  0  0  0  0  0  0  0  0  0
   11.8551    9.5032    0.0000 H   0  0  0  0  0  0  0  0  0  0  0  0
   10.2026    9.1767    0.0000 H   0  0  0  0  0  0  0  0  0  0  0  0
    9.5082    8.3575    0.0000 H   0  0  0  0  0  0  0  0  0  0  0  0
   12.6044   -1.8172    0.0000 H   0  0  0  0  0  0  0  0  0  0  0  0
   13.0029   -1.1269    0.0000 H   0  0  0  0  0  0  0  0  0  0  0  0
   12.0632   -2.0446    0.0000 H   0  0  0  0  0  0  0  0  0  0  0  0
   10.0497   -1.1269    0.0000 H   0  0  0  0  0  0  0  0  0  0  0  0
   10.4482   -1.8172    0.0000 H   0  0  0  0  0  0  0  0  0  0  0  0
   16.6341    2.3376    0.0000 H   0  0  0  0  0  0  0  0  0  0  0  0
   16.1135    3.0431    0.0000 H   0  0  0  0  0  0  0  0  0  0  0  0
   15.4080    2.5224    0.0000 H   0  0  0  0  0  0  0  0  0  0  0  0
    6.6592   -9.5446    0.0000 H   0  0  0  0  0  0  0  0  0  0  0  0
    6.3301   -9.3546    0.0000 H   0  0  0  0  0  0  0  0  0  0  0  0
    8.0622   -9.3546    0.0000 H   0  0  0  0  0  0  0  0  0  0  0  0
    6.3301   -7.1146    0.0000 H   0  0  0  0  0  0  0  0  0  0  0  0
   11.2708   -0.3422    0.0000 H   0  0  0  0  0  0  0  0  0  0  0  0
   10.8723    0.3480    0.0000 H   0  0  0  0  0  0  0  0  0  0  0  0
    8.0622   -7.1146    0.0000 H   0  0  0  0  0  0  0  0  0  0  0  0
   10.1928    0.7404    0.0000 H   0  0  0  0  0  0  0  0  0  0  0  0
    9.3957    0.7404    0.0000 H   0  0  0  0  0  0  0  0  0  0  0  0
    5.7741   -6.6976    0.0000 H   0  0  0  0  0  0  0  0  0  0  0  0
    4.9272   -6.9246    0.0000 H   0  0  0  0  0  0  0  0  0  0  0  0
    5.1541   -7.7715    0.0000 H   0  0  0  0  0  0  0  0  0  0  0  0
    8.5297   -0.7095    0.0000 H   0  0  0  0  0  0  0  0  0  0  0  0
    9.3267   -0.7095    0.0000 H   0  0  0  0  0  0  0  0  0  0  0  0
    9.2573   -5.0446    0.0000 H   0  0  0  0  0  0  0  0  0  0  0  0
   10.8723   -4.8172    0.0000 H   0  0  0  0  0  0  0  0  0  0  0  0
   11.2708   -4.1269    0.0000 H   0  0  0  0  0  0  0  0  0  0  0  0
    8.4607    0.7404    0.0000 H   0  0  0  0  0  0  0  0  0  0  0  0
    7.6636    0.7404    0.0000 H   0  0  0  0  0  0  0  0  0  0  0  0
   10.0063   -6.3172    0.0000 H   0  0  0  0  0  0  0  0  0  0  0  0
   10.4048   -5.6269    0.0000 H   0  0  0  0  0  0  0  0  0  0  0  0
    6.7976   -0.7095    0.0000 H   0  0  0  0  0  0  0  0  0  0  0  0
    7.5947   -0.7095    0.0000 H   0  0  0  0  0  0  0  0  0  0  0  0
    6.0201  -10.1976    0.0000 H   0  0  0  0  0  0  0  0  0  0  0  0
    5.7932  -11.0446    0.0000 H   0  0  0  0  0  0  0  0  0  0  0  0
    6.6401  -11.2715    0.0000 H   0  0  0  0  0  0  0  0  0  0  0  0
    4.9081   -8.1976    0.0000 H   0  0  0  0  0  0  0  0  0  0  0  0
    4.0611   -8.4246    0.0000 H   0  0  0  0  0  0  0  0  0  0  0  0
    4.2881   -9.2715    0.0000 H   0  0  0  0  0  0  0  0  0  0  0  0
    6.7287    0.7404    0.0000 H   0  0  0  0  0  0  0  0  0  0  0  0
    5.9316    0.7404    0.0000 H   0  0  0  0  0  0  0  0  0  0  0  0
    9.2382   -3.6976    0.0000 H   0  0  0  0  0  0  0  0  0  0  0  0
    8.3913   -3.9246    0.0000 H   0  0  0  0  0  0  0  0  0  0  0  0
    8.6182   -4.7715    0.0000 H   0  0  0  0  0  0  0  0  0  0  0  0
   10.1042   -9.2715    0.0000 H   0  0  0  0  0  0  0  0  0  0  0  0
   10.3312   -8.4246    0.0000 H   0  0  0  0  0  0  0  0  0  0  0  0
    9.4842   -8.1976    0.0000 H   0  0  0  0  0  0  0  0  0  0  0  0
    5.0656   -0.7095    0.0000 H   0  0  0  0  0  0  0  0  0  0  0  0
    5.8626   -0.7095    0.0000 H   0  0  0  0  0  0  0  0  0  0  0  0
    4.9966    0.7404    0.0000 H   0  0  0  0  0  0  0  0  0  0  0  0
    4.1996    0.7404    0.0000 H   0  0  0  0  0  0  0  0  0  0  0  0
    3.3335   -0.7095    0.0000 H   0  0  0  0  0  0  0  0  0  0  0  0
    4.1306   -0.7095    0.0000 H   0  0  0  0  0  0  0  0  0  0  0  0
    2.8660   -0.3546    0.0000 H   0  0  0  0  0  0  0  0  0  0  0  0
    1.6900    0.3024    0.0000 H   0  0  0  0  0  0  0  0  0  0  0  0
    1.4631   -0.5446    0.0000 H   0  0  0  0  0  0  0  0  0  0  0  0
    2.3100   -0.7715    0.0000 H   0  0  0  0  0  0  0  0  0  0  0  0
    3.4860    1.2654    0.0000 H   0  0  0  0  0  0  0  0  0  0  0  0
    2.8660    1.8854    0.0000 H   0  0  0  0  0  0  0  0  0  0  0  0
    2.2460    1.2654    0.0000 H   0  0  0  0  0  0  0  0  0  0  0  0
  1 28  1  0  0  0  0
  1 33  1  0  0  0  0
 29  2  1  1  0  0  0
  2 34  1  0  0  0  0
  3 34  1  0  0  0  0
  3 41  1  0  0  0  0
 31  4  1  6  0  0  0
  4 99  1  0  0  0  0
 32  5  1  6  0  0  0
  5100  1  0  0  0  0
 37  6  1  1  0  0  0
  6 49  1  0  0  0  0
 38  7  1  6  0  0  0
  7107  1  0  0  0  0
  8 36  2  0  0  0  0
 40  9  1  6  0  0  0
  9108  1  0  0  0  0
 10 45  1  0  0  0  0
 10 53  1  0  0  0  0
 11 45  2  0  0  0  0
 12 46  2  0  0  0  0
 13 49  2  0  0  0  0
 14 50  2  0  0  0  0
 15 52  1  0  0  0  0
 15 64  1  0  0  0  0
 16 59  1  0  0  0  0
 16 60  1  0  0  0  0
 17 55  1  0  0  0  0
 17 71  1  0  0  0  0
 18 56  1  0  0  0  0
 18 72  1  0  0  0  0
 19 57  1  0  0  0  0
 19 75  1  0  0  0  0
 20 60  1  0  0  0  0
 20 69  1  0  0  0  0
 21 64  2  0  0  0  0
 22 69  2  0  0  0  0
 23 30  1  0  0  0  0
 23 35  1  0  0  0  0
 23 42  1  0  0  0  0
 24 36  1  0  0  0  0
 24 39  1  0  0  0  0
 24 44  1  0  0  0  0
 25 33  1  0  0  0  0
 25 46  1  0  0  0  0
 25 47  1  0  0  0  0
 26 46  1  0  0  0  0
 26 50  1  0  0  0  0
 26109  1  0  0  0  0
 27 43  1  0  0  0  0
 27111  1  0  0  0  0
 27112  1  0  0  0  0
 28 29  1  0  0  0  0
 28 31  1  0  0  0  0
 28 82  1  0  0  0  0
 29 30  1  0  0  0  0
 29 83  1  0  0  0  0
 30 36  1  0  0  0  0
 30 84  1  0  0  0  0
 31 32  1  0  0  0  0
 31 85  1  0  0  0  0
 32 33  1  0  0  0  0
 32 86  1  0  0  0  0
 33 87  1  0  0  0  0
 34 38  1  0  0  0  0
 34 88  1  0  0  0  0
 35 37  1  0  0  0  0
 35 89  1  0  0  0  0
 35 90  1  0  0  0  0
 37 39  1  0  0  0  0
 37 91  1  0  0  0  0
 38 40  1  0  0  0  0
 38 92  1  0  0  0  0
 39 45  1  0  0  0  0
 39 93  1  0  0  0  0
 40 41  1  0  0  0  0
 40 94  1  0  0  0  0
 41 43  1  1  0  0  0
 41 95  1  0  0  0  0
 42 96  1  0  0  0  0
 42 97  1  0  0  0  0
 42 98  1  0  0  0  0
 43101  1  0  0  0  0
 43102  1  0  0  0  0
 44103  1  0  0  0  0
 44104  1  0  0  0  0
 44105  1  0  0  0  0
 47 48  2  0  0  0  0
 47106  1  0  0  0  0
 48 50  1  0  0  0  0
 48110  1  0  0  0  0
 49 51  1  0  0  0  0
 51 52  1  0  0  0  0
 51113  1  0  0  0  0
 51114  1  0  0  0  0
 52 54  1  0  0  0  0
 52115  1  0  0  0  0
 53118  1  0  0  0  0
 53119  1  0  0  0  0
 53120  1  0  0  0  0
 54 58  1  0  0  0  0
 54116  1  0  0  0  0
 54117  1  0  0  0  0
 55 56  1  0  0  0  0
 55 57  1  0  0  0  0
 55121  1  0  0  0  0
 56 59  1  0  0  0  0
 56122  1  0  0  0  0
 57 60  1  0  0  0  0
 57123  1  0  0  0  0
 58 61  1  0  0  0  0
 58125  1  0  0  0  0
 58126  1  0  0  0  0
 59 62  1  0  0  0  0
 59124  1  0  0  0  0
 60127  1  0  0  0  0
 61 63  1  0  0  0  0
 61128  1  0  0  0  0
 61129  1  0  0  0  0
 62130  1  0  0  0  0
 62131  1  0  0  0  0
 62132  1  0  0  0  0
 63 67  1  0  0  0  0
 63133  1  0  0  0  0
 63134  1  0  0  0  0
 64 66  1  0  0  0  0
 65 66  1  0  0  0  0
 65 68  1  0  0  0  0
 65 73  1  0  0  0  0
 65135  1  0  0  0  0
 66136  1  0  0  0  0
 66137  1  0  0  0  0
 67 70  1  0  0  0  0
 67138  1  0  0  0  0
 67139  1  0  0  0  0
 68 69  1  0  0  0  0
 68140  1  0  0  0  0
 68141  1  0  0  0  0
 70 74  1  0  0  0  0
 70142  1  0  0  0  0
 70143  1  0  0  0  0
 71144  1  0  0  0  0
 71145  1  0  0  0  0
 71146  1  0  0  0  0
 72147  1  0  0  0  0
 72148  1  0  0  0  0
 72149  1  0  0  0  0
 73152  1  0  0  0  0
 73153  1  0  0  0  0
 73154  1  0  0  0  0
 74 76  1  0  0  0  0
 74150  1  0  0  0  0
 74151  1  0  0  0  0
 75155  1  0  0  0  0
 75156  1  0  0  0  0
 75157  1  0  0  0  0
 76 77  1  0  0  0  0
 76158  1  0  0  0  0
 76159  1  0  0  0  0
 77 78  1  0  0  0  0
 77160  1  0  0  0  0
 77161  1  0  0  0  0
 78 79  1  0  0  0  0
 78162  1  0  0  0  0
 78163  1  0  0  0  0
 79 80  1  0  0  0  0
 79 81  1  0  0  0  0
 79164  1  0  0  0  0
 80165  1  0  0  0  0
 80166  1  0  0  0  0
 80167  1  0  0  0  0
 81168  1  0  0  0  0
 81169  1  0  0  0  0
 81170  1  0  0  0  0
M  END
> <PUBCHEM_COMPOUND_CID>
510180
> <PUBCHEM_COMPOUND_CANONICALIZED>
1
> <PUBCHEM_CACTVS_COMPLEXITY>
2110
> <PUBCHEM_CACTVS_HBOND_ACCEPTOR>
24
> <PUBCHEM_CACTVS_HBOND_DONOR>
6
> <PUBCHEM_CACTVS_ROTATABLE_BOND>
34
> <PUBCHEM_CACTVS_SUBSKEYS>
AAADcfB/vgAAAAAAAAAAAAAAAAAAASJAAAAkQAAABYAAAAAAAAAAHgAQCAAADTzxgAcDCAPABgCIACHWWACAAAAAAgAIAIGIAECTUBYAwCA/QAAPNyKXAMH+/u/OAAAAAAAAAAAAAAAAAAAAAAAAAAAAAA==
> <PUBCHEM_IUPAC_OPENEYE_NAME>
O1-[1-[2-[[(6S)-2-[(R)-[(3R,4S,5R)-5-(aminomethyl)-3,4-dihydroxy-tetrahydrofuran-2-yl]oxy-[(3S,4R)-5-(2,4-dioxopyrimidin-1-yl)-3,4-dihydroxy-tetrahydrofuran-2-yl]methyl]-5-methoxycarbonyl-1,4-dimethyl-3-oxo-1,4-diazepan-6-yl]oxy]-2-oxo-ethyl]-12-methyl-tridecyl] O5-(3,4,5-trimethoxy-6-methyl-tetrahydropyran-2-yl) 3-methylpentanedioate
> <PUBCHEM_IUPAC_CAS_NAME>
3-methylpentanedioic acid O1-[1-[[(6S)-2-[(R)-[(3R,4S,5R)-5-(aminomethyl)-3,4-dihydroxy-2-oxolanyl]oxy-[(3S,4R)-5-(2,4-dioxo-1-pyrimidinyl)-3,4-dihydroxy-2-oxolanyl]methyl]-5-methoxycarbonyl-1,4-dimethyl-3-oxo-1,4-diazepan-6-yl]oxy]-14-methyl-1-oxopentadecan-3-yl] ester O5-(3,4,5-trimethoxy-6-methyl-2-oxanyl) ester
> <PUBCHEM_IUPAC_NAME_MARKUP>
1-<I>O</I>-[1-[[(6<I>S</I>)-2-[(<I>R</I>)-[(3<I>R</I>,4<I>S</I>,5<I>R</I>)-5-(aminomethyl)-3,4-dihydroxyoxolan-2-yl]oxy-[(3<I>S</I>,4<I>R</I>)-5-(2,4-dioxopyrimidin-1-yl)-3,4-dihydroxyoxolan-2-yl]methyl]-5-methoxycarbonyl-1,4-dimethyl-3-oxo-1,4-diazepan-6-yl]oxy]-14-methyl-1-oxopentadecan-3-yl] 5-<I>O</I>-(3,4,5-trimethoxy-6-methyloxan-2-yl) 3-methylpentanedioate
> <PUBCHEM_IUPAC_NAME>
1-O-[1-[[(6S)-2-[(R)-[(3R,4S,5R)-5-(aminomethyl)-3,4-dihydroxyoxolan-2-yl]oxy-[(3S,4R)-5-(2,4-dioxopyrimidin-1-yl)-3,4-dihydroxyoxolan-2-yl]methyl]-5-methoxycarbonyl-1,4-dimethyl-3-oxo-1,4-diazepan-6-yl]oxy]-14-methyl-1-oxopentadecan-3-yl] 5-O-(3,4,5-trimethoxy-6-methyloxan-2-yl) 3-methylpentanedioate
> <PUBCHEM_IUPAC_SYSTEMATIC_NAME>
O1-[1-[[(6S)-2-[(R)-[(3R,4S,5R)-5-(aminomethyl)-3,4-bis(oxidanyl)oxolan-2-yl]oxy-[(3S,4R)-5-[2,4-bis(oxidanylidene)pyrimidin-1-yl]-3,4-bis(oxidanyl)oxolan-2-yl]methyl]-5-methoxycarbonyl-1,4-dimethyl-3-oxidanylidene-1,4-diazepan-6-yl]oxy]-14-methyl-1-oxidanylidene-pentadecan-3-yl] O5-(3,4,5-trimethoxy-6-methyl-oxan-2-yl) 3-methylpentanedioate
> <PUBCHEM_IUPAC_TRADITIONAL_NAME>
3-methylglutaric acid O1-[1-[2-[[(6S)-2-[(R)-[(3R,4S,5R)-5-(aminomethyl)-3,4-dihydroxy-tetrahydrofuran-2-yl]oxy-[(3S,4R)-5-(2,4-diketopyrimidin-1-yl)-3,4-dihydroxy-tetrahydrofuran-2-yl]methyl]-5-carbomethoxy-3-keto-1,4-dimethyl-1,4-diazepan-6-yl]oxy]-2-keto-ethyl]-12-methyl-tridecyl] ester O5-(3,4,5-trimethoxy-6-methyl-tetrahydropyran-2-yl) ester
> <PUBCHEM_IUPAC_INCHI>
InChI=1S/C54H89N5O22/c1-28(2)19-17-15-13-11-12-14-16-18-20-31(76-35(61)23-29(3)24-36(62)79-53-48(73-9)47(72-8)44(71-7)30(4)75-53)25-37(63)77-33-27-57(5)39(49(68)58(6)38(33)51(69)74-10)45(81-52-43(67)40(64)32(26-55)78-52)46-41(65)42(66)50(80-46)59-22-21-34(60)56-54(59)70/h21-22,28-33,38-48,50,52-53,64-67H,11-20,23-27,55H2,1-10H3,(H,56,60,70)/t29?,30?,31?,32-,33+,38?,39?,40-,41+,42-,43-,44?,45-,46?,47?,48?,50?,52?,53?/m1/s1
> <PUBCHEM_IUPAC_INCHIKEY>
MECMNHVGUVQLBZ-KTEXIAEJSA-N
> <PUBCHEM_XLOGP3_AA>
2.1
> <PUBCHEM_EXACT_MASS>
1159.59991948
> <PUBCHEM_MOLECULAR_FORMULA>
C54H89N5O22
> <PUBCHEM_MOLECULAR_WEIGHT>
1160.3
> <PUBCHEM_OPENEYE_CAN_SMILES>
CC1C(C(C(C(O1)OC(=O)CC(C)CC(=O)OC(CCCCCCCCCCC(C)C)CC(=O)OC2CN(C(C(=O)N(C2C(=O)OC)C)C(C3C(C(C(O3)N4C=CC(=O)NC4=O)O)O)OC5C(C(C(O5)CN)O)O)C)OC)OC)OC
> <PUBCHEM_OPENEYE_ISO_SMILES>
CC1C(C(C(C(O1)OC(=O)CC(C)CC(=O)OC(CCCCCCCCCCC(C)C)CC(=O)O[C@H]2CN(C(C(=O)N(C2C(=O)OC)C)[C@H](C3[C@H]([C@H](C(O3)N4C=CC(=O)NC4=O)O)O)OC5[C@@H]([C@@H]([C@H](O5)CN)O)O)C)OC)OC)OC
> <PUBCHEM_CACTVS_TPSA>
350
> <PUBCHEM_MONOISOTOPIC_WEIGHT>
1159.59991948
> <PUBCHEM_TOTAL_CHARGE>
0
> <PUBCHEM_HEAVY_ATOM_COUNT>
81
> <PUBCHEM_ATOM_DEF_STEREO_COUNT>
7
> <PUBCHEM_ATOM_UDEF_STEREO_COUNT>
12
> <PUBCHEM_BOND_DEF_STEREO_COUNT>
0
> <PUBCHEM_BOND_UDEF_STEREO_COUNT>
0
> <PUBCHEM_ISOTOPIC_ATOM_COUNT>
0
> <PUBCHEM_COMPONENT_COUNT>
1
> <PUBCHEM_CACTVS_TAUTO_COUNT>
-1
> <PUBCHEM_COORDINATE_TYPE>
1
5
255
> <PUBCHEM_BONDANNOTATIONS>
28  1  3
55  17  3
56  18  3
57  19  3
29  2  5
34  2  3
60  20  3
33  25  3
25  46  8
25  47  8
26  46  8
26  50  8
30  36  3
39  45  3
31  4  6
41  43  5
47  48  8
48  50  8
32  5  6
52  54  3
59  62  3
37  6  5
65  73  3
38  7  6
40  9  6
$$$$
