510161
  -OEChem-10302200282D
 80 82  0     1  0  0  0  0  0999 V2000
    6.4781    0.5363    0.0000 O   0  0  0  0  0  0  0  0  0  0  0  0
    7.9915   -0.9030    0.0000 O   0  0  0  0  0  0  0  0  0  0  0  0
    6.2314   -0.6243    0.0000 O   0  0  0  0  0  0  0  0  0  0  0  0
    8.2036    2.5048    0.0000 O   0  0  0  0  0  0  0  0  0  0  0  0
    6.4393    3.1237    0.0000 O   0  0  0  0  0  0  0  0  0  0  0  0
    7.3192   -2.9721    0.0000 O   0  0  0  0  0  0  0  0  0  0  0  0
    5.1436   -2.9721    0.0000 O   0  0  0  0  0  0  0  0  0  0  0  0
    9.2592    1.7712    0.0000 O   0  0  0  0  0  0  0  0  0  0  0  0
   10.6072   -2.6086    0.0000 O   0  0  0  0  0  0  0  0  0  0  0  0
    5.1646    3.2294    0.0000 O   0  0  0  0  0  0  0  0  0  0  0  0
    2.0000    1.8205    0.0000 O   0  0  0  0  0  0  0  0  0  0  0  0
   13.6054   -2.7133    0.0000 O   0  0  0  0  0  0  0  0  0  0  0  0
   12.0760   -3.5265    0.0000 O   0  0  0  0  0  0  0  0  0  0  0  0
    9.6682   -0.8427    0.0000 N   0  0  3  0  0  0  0  0  0  0  0  0
    4.9836    1.5069    0.0000 N   0  0  0  0  0  0  0  0  0  0  0  0
   10.7281    0.8534    0.0000 N   0  0  0  0  0  0  0  0  0  0  0  0
    3.7282   -1.5722    0.0000 N   0  0  0  0  0  0  0  0  0  0  0  0
    3.5823    2.5250    0.0000 N   0  0  0  0  0  0  0  0  0  0  0  0
   12.6664   -0.9474    0.0000 N   0  0  0  0  0  0  0  0  0  0  0  0
    7.4562    0.7442    0.0000 C   0  0  3  0  0  0  0  0  0  0  0  0
    8.1994    0.0751    0.0000 C   0  0  1  0  0  0  0  0  0  0  0  0
    7.5608    1.7388    0.0000 C   0  0  2  0  0  0  0  0  0  0  0  0
    6.6472    2.1455    0.0000 C   0  0  2  0  0  0  0  0  0  0  0  0
    5.9781    1.4024    0.0000 C   0  0  3  0  0  0  0  0  0  0  0  0
    9.1988    0.0402    0.0000 C   0  0  1  0  0  0  0  0  0  0  0  0
    7.0404   -1.2120    0.0000 C   0  0  3  0  0  0  0  0  0  0  0  0
    6.7314   -2.1631    0.0000 C   0  0  1  0  0  0  0  0  0  0  0  0
    5.7314   -2.1631    0.0000 C   0  0  1  0  0  0  0  0  0  0  0  0
    5.4224   -1.2120    0.0000 C   0  0  1  0  0  0  0  0  0  0  0  0
    9.7287    0.8883    0.0000 C   0  0  0  0  0  0  0  0  0  0  0  0
   10.6676   -0.8776    0.0000 C   0  0  0  0  0  0  0  0  0  0  0  0
    4.4713   -0.9030    0.0000 C   0  0  0  0  0  0  0  0  0  0  0  0
    9.1383   -1.6908    0.0000 C   0  0  0  0  0  0  0  0  0  0  0  0
   11.1371   -1.7606    0.0000 C   0  0  1  0  0  0  0  0  0  0  0  0
    4.5768    2.4204    0.0000 C   0  0  0  0  0  0  0  0  0  0  0  0
    4.3958    0.6979    0.0000 C   0  0  0  0  0  0  0  0  0  0  0  0
   12.1365   -1.7955    0.0000 C   0  0  3  0  0  0  0  0  0  0  0  0
    3.4013    0.8024    0.0000 C   0  0  0  0  0  0  0  0  0  0  0  0
   11.1976   -0.0296    0.0000 C   0  0  0  0  0  0  0  0  0  0  0  0
    2.9945    1.7160    0.0000 C   0  0  0  0  0  0  0  0  0  0  0  0
   12.6060   -2.6784    0.0000 C   0  0  0  0  0  0  0  0  0  0  0  0
   13.6658   -0.9823    0.0000 C   0  0  0  0  0  0  0  0  0  0  0  0
    8.0351    0.9664    0.0000 H   0  0  0  0  0  0  0  0  0  0  0  0
    7.6097   -0.1165    0.0000 H   0  0  0  0  0  0  0  0  0  0  0  0
    8.1315    1.4965    0.0000 H   0  0  0  0  0  0  0  0  0  0  0  0
    7.1290    2.5357    0.0000 H   0  0  0  0  0  0  0  0  0  0  0  0
    5.7559    1.9812    0.0000 H   0  0  0  0  0  0  0  0  0  0  0  0
    8.8702   -0.4856    0.0000 H   0  0  0  0  0  0  0  0  0  0  0  0
    7.4788   -1.6504    0.0000 H   0  0  0  0  0  0  0  0  0  0  0  0
    7.3438   -2.0661    0.0000 H   0  0  0  0  0  0  0  0  0  0  0  0
    5.1190   -2.0661    0.0000 H   0  0  0  0  0  0  0  0  0  0  0  0
    5.3254   -0.5997    0.0000 H   0  0  0  0  0  0  0  0  0  0  0  0
   11.2573   -0.6860    0.0000 H   0  0  0  0  0  0  0  0  0  0  0  0
   10.5813   -0.2637    0.0000 H   0  0  0  0  0  0  0  0  0  0  0  0
    7.9915    3.0874    0.0000 H   0  0  0  0  0  0  0  0  0  0  0  0
    6.9001    3.5385    0.0000 H   0  0  0  0  0  0  0  0  0  0  0  0
    4.7624   -0.3556    0.0000 H   0  0  0  0  0  0  0  0  0  0  0  0
    3.9828   -0.5213    0.0000 H   0  0  0  0  0  0  0  0  0  0  0  0
    8.6125   -1.3622    0.0000 H   0  0  0  0  0  0  0  0  0  0  0  0
    8.8098   -2.2166    0.0000 H   0  0  0  0  0  0  0  0  0  0  0  0
    9.6641   -2.0193    0.0000 H   0  0  0  0  0  0  0  0  0  0  0  0
   11.4282   -2.3080    0.0000 H   0  0  0  0  0  0  0  0  0  0  0  0
    4.6480    0.1315    0.0000 H   0  0  0  0  0  0  0  0  0  0  0  0
    7.0670   -3.5385    0.0000 H   0  0  0  0  0  0  0  0  0  0  0  0
    4.5270   -2.9073    0.0000 H   0  0  0  0  0  0  0  0  0  0  0  0
   11.0566    1.3792    0.0000 H   0  0  0  0  0  0  0  0  0  0  0  0
   11.8454   -1.2481    0.0000 H   0  0  0  0  0  0  0  0  0  0  0  0
    3.1385   -1.3806    0.0000 H   0  0  0  0  0  0  0  0  0  0  0  0
    3.8571   -2.1786    0.0000 H   0  0  0  0  0  0  0  0  0  0  0  0
    3.3301    3.0914    0.0000 H   0  0  0  0  0  0  0  0  0  0  0  0
    3.0368    0.3008    0.0000 H   0  0  0  0  0  0  0  0  0  0  0  0
   10.6501   -0.3207    0.0000 H   0  0  0  0  0  0  0  0  0  0  0  0
   11.4886   -0.5770    0.0000 H   0  0  0  0  0  0  0  0  0  0  0  0
   11.7450    0.2615    0.0000 H   0  0  0  0  0  0  0  0  0  0  0  0
   10.8983   -3.1560    0.0000 H   0  0  0  0  0  0  0  0  0  0  0  0
   12.3753   -0.4000    0.0000 H   0  0  0  0  0  0  0  0  0  0  0  0
   13.6442   -1.6020    0.0000 H   0  0  0  0  0  0  0  0  0  0  0  0
   14.2854   -1.0040    0.0000 H   0  0  0  0  0  0  0  0  0  0  0  0
   13.6874   -0.3627    0.0000 H   0  0  0  0  0  0  0  0  0  0  0  0
   13.8964   -3.2607    0.0000 H   0  0  0  0  0  0  0  0  0  0  0  0
  1 20  1  0  0  0  0
  1 24  1  0  0  0  0
 21  2  1  1  0  0  0
  2 26  1  0  0  0  0
  3 26  1  0  0  0  0
  3 29  1  0  0  0  0
 22  4  1  6  0  0  0
  4 55  1  0  0  0  0
 23  5  1  6  0  0  0
  5 56  1  0  0  0  0
 27  6  1  6  0  0  0
  6 64  1  0  0  0  0
 28  7  1  6  0  0  0
  7 65  1  0  0  0  0
  8 30  2  0  0  0  0
 34  9  1  1  0  0  0
  9 75  1  0  0  0  0
 10 35  2  0  0  0  0
 11 40  2  0  0  0  0
 12 41  1  0  0  0  0
 12 80  1  0  0  0  0
 13 41  2  0  0  0  0
 25 14  1  1  0  0  0
 14 31  1  0  0  0  0
 14 33  1  0  0  0  0
 15 24  1  0  0  0  0
 15 35  1  0  0  0  0
 15 36  1  0  0  0  0
 16 30  1  0  0  0  0
 16 39  1  0  0  0  0
 16 66  1  0  0  0  0
 17 32  1  0  0  0  0
 17 68  1  0  0  0  0
 17 69  1  0  0  0  0
 18 35  1  0  0  0  0
 18 40  1  0  0  0  0
 18 70  1  0  0  0  0
 19 37  1  0  0  0  0
 19 42  1  0  0  0  0
 19 76  1  0  0  0  0
 20 21  1  0  0  0  0
 20 22  1  0  0  0  0
 20 43  1  0  0  0  0
 21 25  1  0  0  0  0
 21 44  1  0  0  0  0
 22 23  1  0  0  0  0
 22 45  1  0  0  0  0
 23 24  1  0  0  0  0
 23 46  1  0  0  0  0
 24 47  1  0  0  0  0
 25 30  1  0  0  0  0
 25 48  1  0  0  0  0
 26 27  1  0  0  0  0
 26 49  1  0  0  0  0
 27 28  1  0  0  0  0
 27 50  1  0  0  0  0
 28 29  1  0  0  0  0
 28 51  1  0  0  0  0
 29 32  1  1  0  0  0
 29 52  1  0  0  0  0
 31 34  1  0  0  0  0
 31 53  1  0  0  0  0
 31 54  1  0  0  0  0
 32 57  1  0  0  0  0
 32 58  1  0  0  0  0
 33 59  1  0  0  0  0
 33 60  1  0  0  0  0
 33 61  1  0  0  0  0
 34 37  1  0  0  0  0
 34 62  1  0  0  0  0
 36 38  2  0  0  0  0
 36 63  1  0  0  0  0
 37 41  1  0  0  0  0
 37 67  1  0  0  0  0
 38 40  1  0  0  0  0
 38 71  1  0  0  0  0
 39 72  1  0  0  0  0
 39 73  1  0  0  0  0
 39 74  1  0  0  0  0
 42 77  1  0  0  0  0
 42 78  1  0  0  0  0
 42 79  1  0  0  0  0
M  END
> <PUBCHEM_COMPOUND_CID>
510161
> <PUBCHEM_COMPOUND_CANONICALIZED>
1
> <PUBCHEM_CACTVS_COMPLEXITY>
1030
> <PUBCHEM_CACTVS_HBOND_ACCEPTOR>
16
> <PUBCHEM_CACTVS_HBOND_DONOR>
10
> <PUBCHEM_CACTVS_ROTATABLE_BOND>
13
> <PUBCHEM_CACTVS_SUBSKEYS>
AAADcfB7vAAAAAAAAAAAAAAAAAAAASJAAAAgAAAAAAAAAAAAAAAAHgAQCAAACDzxgAcDCAPABgCIACHWWACAAAAAAgAIAIGIAECTUBYAwCA/QAAPNyKXAMH+/C/AAAAAAAAAAAAAAAAAAAAAAAAAAAAAAA==
> <PUBCHEM_IUPAC_OPENEYE_NAME>
(3S)-4-[[(1S)-1-[(R)-[(3R,4S,5R)-5-(aminomethyl)-3,4-dihydroxy-tetrahydrofuran-2-yl]oxy-[(3S,4R)-5-(2,4-dioxopyrimidin-1-yl)-3,4-dihydroxy-tetrahydrofuran-2-yl]methyl]-2-(methylamino)-2-oxo-ethyl]-methyl-amino]-3-hydroxy-2-(methylamino)butanoic acid
> <PUBCHEM_IUPAC_CAS_NAME>
(3S)-4-[[(1R,2S)-1-[[(3R,4S,5R)-5-(aminomethyl)-3,4-dihydroxy-2-oxolanyl]oxy]-1-[(3S,4R)-5-(2,4-dioxo-1-pyrimidinyl)-3,4-dihydroxy-2-oxolanyl]-3-(methylamino)-3-oxopropan-2-yl]-methylamino]-3-hydroxy-2-(methylamino)butanoic acid
> <PUBCHEM_IUPAC_NAME_MARKUP>
(3<I>S</I>)-4-[[(1<I>R</I>,2<I>S</I>)-1-[(3<I>R</I>,4<I>S</I>,5<I>R</I>)-5-(aminomethyl)-3,4-dihydroxyoxolan-2-yl]oxy-1-[(3<I>S</I>,4<I>R</I>)-5-(2,4-dioxopyrimidin-1-yl)-3,4-dihydroxyoxolan-2-yl]-3-(methylamino)-3-oxopropan-2-yl]-methylamino]-3-hydroxy-2-(methylamino)butanoic acid
> <PUBCHEM_IUPAC_NAME>
(3S)-4-[[(1R,2S)-1-[(3R,4S,5R)-5-(aminomethyl)-3,4-dihydroxyoxolan-2-yl]oxy-1-[(3S,4R)-5-(2,4-dioxopyrimidin-1-yl)-3,4-dihydroxyoxolan-2-yl]-3-(methylamino)-3-oxopropan-2-yl]-methylamino]-3-hydroxy-2-(methylamino)butanoic acid
> <PUBCHEM_IUPAC_SYSTEMATIC_NAME>
(3S)-4-[[(1R,2S)-1-[(3R,4S,5R)-5-(aminomethyl)-3,4-bis(oxidanyl)oxolan-2-yl]oxy-1-[(3S,4R)-5-[2,4-bis(oxidanylidene)pyrimidin-1-yl]-3,4-bis(oxidanyl)oxolan-2-yl]-3-(methylamino)-3-oxidanylidene-propan-2-yl]-methyl-amino]-2-(methylamino)-3-oxidanyl-butanoic acid
> <PUBCHEM_IUPAC_TRADITIONAL_NAME>
(3S)-4-[[(1S)-1-[(R)-[(3R,4S,5R)-5-(aminomethyl)-3,4-dihydroxy-tetrahydrofuran-2-yl]oxy-[(3S,4R)-5-(2,4-diketopyrimidin-1-yl)-3,4-dihydroxy-tetrahydrofuran-2-yl]methyl]-2-keto-2-(methylamino)ethyl]-methyl-amino]-3-hydroxy-2-(methylamino)butyric acid
> <PUBCHEM_IUPAC_INCHI>
InChI=1S/C23H38N6O13/c1-25-11(21(37)38)8(30)7-28(3)12(19(36)26-2)17(42-22-16(35)13(32)9(6-24)40-22)18-14(33)15(34)20(41-18)29-5-4-10(31)27-23(29)39/h4-5,8-9,11-18,20,22,25,30,32-35H,6-7,24H2,1-3H3,(H,26,36)(H,37,38)(H,27,31,39)/t8-,9+,11?,12-,13+,14-,15+,16+,17+,18?,20?,22?/m0/s1
> <PUBCHEM_IUPAC_INCHIKEY>
STGJFQUHERNECA-HBJJLVRASA-N
> <PUBCHEM_XLOGP3_AA>
-8.3
> <PUBCHEM_EXACT_MASS>
606.24968529
> <PUBCHEM_MOLECULAR_FORMULA>
C23H38N6O13
> <PUBCHEM_MOLECULAR_WEIGHT>
606.6
> <PUBCHEM_OPENEYE_CAN_SMILES>
CNC(C(CN(C)C(C(C1C(C(C(O1)N2C=CC(=O)NC2=O)O)O)OC3C(C(C(O3)CN)O)O)C(=O)NC)O)C(=O)O
> <PUBCHEM_OPENEYE_ISO_SMILES>
CNC([C@H](CN(C)[C@@H]([C@H](C1[C@H]([C@H](C(O1)N2C=CC(=O)NC2=O)O)O)OC3[C@@H]([C@@H]([C@H](O3)CN)O)O)C(=O)NC)O)C(=O)O
> <PUBCHEM_CACTVS_TPSA>
286
> <PUBCHEM_MONOISOTOPIC_WEIGHT>
606.24968529
> <PUBCHEM_TOTAL_CHARGE>
0
> <PUBCHEM_HEAVY_ATOM_COUNT>
42
> <PUBCHEM_ATOM_DEF_STEREO_COUNT>
8
> <PUBCHEM_ATOM_UDEF_STEREO_COUNT>
4
> <PUBCHEM_BOND_DEF_STEREO_COUNT>
0
> <PUBCHEM_BOND_UDEF_STEREO_COUNT>
0
> <PUBCHEM_ISOTOPIC_ATOM_COUNT>
0
> <PUBCHEM_COMPONENT_COUNT>
1
> <PUBCHEM_CACTVS_TAUTO_COUNT>
-1
> <PUBCHEM_COORDINATE_TYPE>
1
5
255
> <PUBCHEM_BONDANNOTATIONS>
20  1  3
25  14  5
24  15  3
15  35  8
15  36  8
18  35  8
18  40  8
21  2  5
26  2  3
29  32  5
36  38  8
37  41  3
38  40  8
22  4  6
23  5  6
27  6  6
28  7  6
34  9  5
$$$$
