510263
  -OEChem-10302200282D
 50 53  0     1  0  0  0  0  0999 V2000
    3.7891   -0.0505    0.0000 S   0  0  0  0  0  0  0  0  0  0  0  0
    3.6383   -4.4842    0.0000 O   0  0  0  0  0  0  0  0  0  0  0  0
    3.7320    3.0373    0.0000 O   0  0  0  0  0  0  0  0  0  0  0  0
    6.3301    1.5373    0.0000 O   0  0  0  0  0  0  0  0  0  0  0  0
    3.5103   -1.8106    0.0000 N   0  0  0  0  0  0  0  0  0  0  0  0
    5.0981   -1.0015    0.0000 N   0  0  0  0  0  0  0  0  0  0  0  0
    4.5981    1.5373    0.0000 N   0  0  0  0  0  0  0  0  0  0  0  0
    5.4071   -0.0505    0.0000 N   0  0  0  0  0  0  0  0  0  0  0  0
    3.3292   -3.5331    0.0000 C   0  0  3  0  0  0  0  0  0  0  0  0
    2.3292   -3.5331    0.0000 C   0  0  0  0  0  0  0  0  0  0  0  0
    2.0202   -4.4842    0.0000 C   0  0  0  0  0  0  0  0  0  0  0  0
    2.8292   -5.0720    0.0000 C   0  0  0  0  0  0  0  0  0  0  0  0
    3.9170   -2.7241    0.0000 C   0  0  0  0  0  0  0  0  0  0  0  0
    4.0981   -1.0015    0.0000 C   0  0  0  0  0  0  0  0  0  0  0  0
    6.3301    3.5373    0.0000 C   0  0  0  0  0  0  0  0  0  0  0  0
    5.4641    3.0373    0.0000 C   0  0  0  0  0  0  0  0  0  0  0  0
    6.3301    4.5373    0.0000 C   0  0  0  0  0  0  0  0  0  0  0  0
    4.5981    3.5373    0.0000 C   0  0  0  0  0  0  0  0  0  0  0  0
    4.5981    0.5373    0.0000 C   0  0  0  0  0  0  0  0  0  0  0  0
    5.4641    5.0373    0.0000 C   0  0  0  0  0  0  0  0  0  0  0  0
    5.4641    2.0373    0.0000 C   0  0  0  0  0  0  0  0  0  0  0  0
    4.5981    4.5373    0.0000 C   0  0  0  0  0  0  0  0  0  0  0  0
    7.2241    3.0026    0.0000 C   0  0  0  0  0  0  0  0  0  0  0  0
    7.2241    5.0720    0.0000 C   0  0  0  0  0  0  0  0  0  0  0  0
    8.1301    3.5165    0.0000 C   0  0  0  0  0  0  0  0  0  0  0  0
    8.1301    4.5581    0.0000 C   0  0  0  0  0  0  0  0  0  0  0  0
    2.8660    3.5373    0.0000 C   0  0  0  0  0  0  0  0  0  0  0  0
    2.0000    3.0373    0.0000 C   0  0  0  0  0  0  0  0  0  0  0  0
    3.9416   -3.6301    0.0000 H   0  0  0  0  0  0  0  0  0  0  0  0
    2.3940   -2.9165    0.0000 H   0  0  0  0  0  0  0  0  0  0  0  0
    1.7228   -3.4042    0.0000 H   0  0  0  0  0  0  0  0  0  0  0  0
    1.4538   -4.2320    0.0000 H   0  0  0  0  0  0  0  0  0  0  0  0
    1.7102   -5.0211    0.0000 H   0  0  0  0  0  0  0  0  0  0  0  0
    2.4144   -5.5327    0.0000 H   0  0  0  0  0  0  0  0  0  0  0  0
    3.2441   -5.5327    0.0000 H   0  0  0  0  0  0  0  0  0  0  0  0
    4.3477   -3.1701    0.0000 H   0  0  0  0  0  0  0  0  0  0  0  0
    4.4310   -2.3774    0.0000 H   0  0  0  0  0  0  0  0  0  0  0  0
    2.8937   -1.7458    0.0000 H   0  0  0  0  0  0  0  0  0  0  0  0
    5.4641    5.6573    0.0000 H   0  0  0  0  0  0  0  0  0  0  0  0
    4.0611    4.8473    0.0000 H   0  0  0  0  0  0  0  0  0  0  0  0
    7.2169    2.3827    0.0000 H   0  0  0  0  0  0  0  0  0  0  0  0
    7.2169    5.6919    0.0000 H   0  0  0  0  0  0  0  0  0  0  0  0
    4.0611    1.8473    0.0000 H   0  0  0  0  0  0  0  0  0  0  0  0
    8.6659    3.2044    0.0000 H   0  0  0  0  0  0  0  0  0  0  0  0
    8.6659    4.8702    0.0000 H   0  0  0  0  0  0  0  0  0  0  0  0
    3.2646    4.0122    0.0000 H   0  0  0  0  0  0  0  0  0  0  0  0
    2.4675    4.0122    0.0000 H   0  0  0  0  0  0  0  0  0  0  0  0
    1.6900    3.5742    0.0000 H   0  0  0  0  0  0  0  0  0  0  0  0
    1.4631    2.7273    0.0000 H   0  0  0  0  0  0  0  0  0  0  0  0
    2.3100    2.5004    0.0000 H   0  0  0  0  0  0  0  0  0  0  0  0
  1 14  1  0  0  0  0
  1 19  1  0  0  0  0
  2  9  1  0  0  0  0
  2 12  1  0  0  0  0
  3 18  1  0  0  0  0
  3 27  1  0  0  0  0
  4 21  2  0  0  0  0
  5 13  1  0  0  0  0
  5 14  1  0  0  0  0
  5 38  1  0  0  0  0
  6  8  1  0  0  0  0
  6 14  2  0  0  0  0
  7 19  1  0  0  0  0
  7 21  1  0  0  0  0
  7 43  1  0  0  0  0
  8 19  2  0  0  0  0
  9 10  1  0  0  0  0
  9 13  1  0  0  0  0
  9 29  1  0  0  0  0
 10 11  1  0  0  0  0
 10 30  1  0  0  0  0
 10 31  1  0  0  0  0
 11 12  1  0  0  0  0
 11 32  1  0  0  0  0
 11 33  1  0  0  0  0
 12 34  1  0  0  0  0
 12 35  1  0  0  0  0
 13 36  1  0  0  0  0
 13 37  1  0  0  0  0
 15 16  1  0  0  0  0
 15 17  1  0  0  0  0
 15 23  2  0  0  0  0
 16 18  2  0  0  0  0
 16 21  1  0  0  0  0
 17 20  1  0  0  0  0
 17 24  2  0  0  0  0
 18 22  1  0  0  0  0
 20 22  2  0  0  0  0
 20 39  1  0  0  0  0
 22 40  1  0  0  0  0
 23 25  1  0  0  0  0
 23 41  1  0  0  0  0
 24 26  1  0  0  0  0
 24 42  1  0  0  0  0
 25 26  2  0  0  0  0
 25 44  1  0  0  0  0
 26 45  1  0  0  0  0
 27 28  1  0  0  0  0
 27 46  1  0  0  0  0
 27 47  1  0  0  0  0
 28 48  1  0  0  0  0
 28 49  1  0  0  0  0
 28 50  1  0  0  0  0
M  END
> <PUBCHEM_COMPOUND_CID>
510263
> <PUBCHEM_COMPOUND_CANONICALIZED>
1
> <PUBCHEM_CACTVS_COMPLEXITY>
526
> <PUBCHEM_CACTVS_HBOND_ACCEPTOR>
7
> <PUBCHEM_CACTVS_HBOND_DONOR>
2
> <PUBCHEM_CACTVS_ROTATABLE_BOND>
7
> <PUBCHEM_CACTVS_SUBSKEYS>
AAADceB7sABAAAAAAAAAAAAAAAAAAWJAAAAwYAAAAAAAAADB1AAAHgQYAAAADBThmAYzFsLABAiuAiFSMACSCAJkIAkNiIEODMiOJjaEvRuHOWj28RMYqQeY2PKOoAADAAAYAABAAAYAADAAAAAAAAAAAA==
> <PUBCHEM_IUPAC_OPENEYE_NAME>
2-ethoxy-N-[5-(tetrahydrofuran-2-ylmethylamino)-1,3,4-thiadiazol-2-yl]naphthalene-1-carboxamide
> <PUBCHEM_IUPAC_CAS_NAME>
2-ethoxy-N-[5-(2-oxolanylmethylamino)-1,3,4-thiadiazol-2-yl]-1-naphthalenecarboxamide
> <PUBCHEM_IUPAC_NAME_MARKUP>
2-ethoxy-<I>N</I>-[5-(oxolan-2-ylmethylamino)-1,3,4-thiadiazol-2-yl]naphthalene-1-carboxamide
> <PUBCHEM_IUPAC_NAME>
2-ethoxy-N-[5-(oxolan-2-ylmethylamino)-1,3,4-thiadiazol-2-yl]naphthalene-1-carboxamide
> <PUBCHEM_IUPAC_SYSTEMATIC_NAME>
2-ethoxy-N-[5-(oxolan-2-ylmethylamino)-1,3,4-thiadiazol-2-yl]naphthalene-1-carboxamide
> <PUBCHEM_IUPAC_TRADITIONAL_NAME>
2-ethoxy-N-[5-(tetrahydrofurfurylamino)-1,3,4-thiadiazol-2-yl]-1-naphthamide
> <PUBCHEM_IUPAC_INCHI>
InChI=1S/C20H22N4O3S/c1-2-26-16-10-9-13-6-3-4-8-15(13)17(16)18(25)22-20-24-23-19(28-20)21-12-14-7-5-11-27-14/h3-4,6,8-10,14H,2,5,7,11-12H2,1H3,(H,21,23)(H,22,24,25)
> <PUBCHEM_IUPAC_INCHIKEY>
AFTCMYJSMQCBCQ-UHFFFAOYSA-N
> <PUBCHEM_XLOGP3_AA>
3.8
> <PUBCHEM_EXACT_MASS>
398.14126175
> <PUBCHEM_MOLECULAR_FORMULA>
C20H22N4O3S
> <PUBCHEM_MOLECULAR_WEIGHT>
398.5
> <PUBCHEM_OPENEYE_CAN_SMILES>
CCOC1=C(C2=CC=CC=C2C=C1)C(=O)NC3=NN=C(S3)NCC4CCCO4
> <PUBCHEM_OPENEYE_ISO_SMILES>
CCOC1=C(C2=CC=CC=C2C=C1)C(=O)NC3=NN=C(S3)NCC4CCCO4
> <PUBCHEM_CACTVS_TPSA>
114
> <PUBCHEM_MONOISOTOPIC_WEIGHT>
398.14126175
> <PUBCHEM_TOTAL_CHARGE>
0
> <PUBCHEM_HEAVY_ATOM_COUNT>
28
> <PUBCHEM_ATOM_DEF_STEREO_COUNT>
0
> <PUBCHEM_ATOM_UDEF_STEREO_COUNT>
1
> <PUBCHEM_BOND_DEF_STEREO_COUNT>
0
> <PUBCHEM_BOND_UDEF_STEREO_COUNT>
0
> <PUBCHEM_ISOTOPIC_ATOM_COUNT>
0
> <PUBCHEM_COMPONENT_COUNT>
1
> <PUBCHEM_CACTVS_TAUTO_COUNT>
-1
> <PUBCHEM_COORDINATE_TYPE>
1
5
255
> <PUBCHEM_BONDANNOTATIONS>
1  14  8
1  19  8
15  16  8
15  17  8
15  23  8
16  18  8
17  20  8
17  24  8
18  22  8
20  22  8
23  25  8
24  26  8
25  26  8
6  14  8
6  8  8
8  19  8
9  13  3
$$$$
