510247
  -OEChem-10302200282D
 47 50  0     1  0  0  0  0  0999 V2000
    7.2350    0.3734    0.0000 S   0  0  0  0  0  0  0  0  0  0  0  0
    3.8080   -2.6923    0.0000 O   0  0  0  0  0  0  0  0  0  0  0  0
    5.3903   -1.9878    0.0000 O   0  0  0  0  0  0  0  0  0  0  0  0
    9.0146    0.4666    0.0000 N   0  0  0  0  0  0  0  0  0  0  0  0
    8.0440   -1.0279    0.0000 N   0  0  0  0  0  0  0  0  0  0  0  0
    7.0659   -1.2358    0.0000 N   0  0  0  0  0  0  0  0  0  0  0  0
    5.5714   -0.2652    0.0000 N   0  0  0  0  0  0  0  0  0  0  0  0
    9.0146    1.4666    0.0000 C   0  0  3  0  0  0  0  0  0  0  0  0
    8.1486    1.9666    0.0000 C   0  0  0  0  0  0  0  0  0  0  0  0
    8.1486    2.9666    0.0000 C   0  0  0  0  0  0  0  0  0  0  0  0
    9.0146    3.4666    0.0000 C   0  0  0  0  0  0  0  0  0  0  0  0
    9.8806    1.9666    0.0000 C   0  0  0  0  0  0  0  0  0  0  0  0
    9.8806    2.9666    0.0000 C   0  0  0  0  0  0  0  0  0  0  0  0
   10.7745    1.4320    0.0000 C   0  0  0  0  0  0  0  0  0  0  0  0
   10.7745    3.5013    0.0000 C   0  0  0  0  0  0  0  0  0  0  0  0
   11.6806    1.9458    0.0000 C   0  0  0  0  0  0  0  0  0  0  0  0
   11.6806    2.9875    0.0000 C   0  0  0  0  0  0  0  0  0  0  0  0
    8.1486   -0.0334    0.0000 C   0  0  0  0  0  0  0  0  0  0  0  0
    6.5659   -0.3698    0.0000 C   0  0  0  0  0  0  0  0  0  0  0  0
    4.9836   -1.0742    0.0000 C   0  0  0  0  0  0  0  0  0  0  0  0
    3.9890   -0.9697    0.0000 C   0  0  0  0  0  0  0  0  0  0  0  0
    3.4013   -1.7787    0.0000 C   0  0  0  0  0  0  0  0  0  0  0  0
    3.5823   -0.0562    0.0000 C   0  0  0  0  0  0  0  0  0  0  0  0
    2.4067   -1.6742    0.0000 C   0  0  0  0  0  0  0  0  0  0  0  0
    2.5878    0.0483    0.0000 C   0  0  0  0  0  0  0  0  0  0  0  0
    2.0000   -0.7607    0.0000 C   0  0  0  0  0  0  0  0  0  0  0  0
    3.2202   -3.5013    0.0000 C   0  0  0  0  0  0  0  0  0  0  0  0
    8.4776    1.1566    0.0000 H   0  0  0  0  0  0  0  0  0  0  0  0
    7.5380    2.0743    0.0000 H   0  0  0  0  0  0  0  0  0  0  0  0
    7.9365    1.3840    0.0000 H   0  0  0  0  0  0  0  0  0  0  0  0
    7.9365    3.5492    0.0000 H   0  0  0  0  0  0  0  0  0  0  0  0
    7.5380    2.8590    0.0000 H   0  0  0  0  0  0  0  0  0  0  0  0
    9.4131    3.9416    0.0000 H   0  0  0  0  0  0  0  0  0  0  0  0
    8.6160    3.9416    0.0000 H   0  0  0  0  0  0  0  0  0  0  0  0
    9.5515    0.1566    0.0000 H   0  0  0  0  0  0  0  0  0  0  0  0
   10.7674    0.8120    0.0000 H   0  0  0  0  0  0  0  0  0  0  0  0
   10.7674    4.1213    0.0000 H   0  0  0  0  0  0  0  0  0  0  0  0
   12.2163    1.6338    0.0000 H   0  0  0  0  0  0  0  0  0  0  0  0
   12.2163    3.2995    0.0000 H   0  0  0  0  0  0  0  0  0  0  0  0
    5.3192    0.3012    0.0000 H   0  0  0  0  0  0  0  0  0  0  0  0
    3.9467    0.4454    0.0000 H   0  0  0  0  0  0  0  0  0  0  0  0
    2.0423   -2.1758    0.0000 H   0  0  0  0  0  0  0  0  0  0  0  0
    2.3356    0.6147    0.0000 H   0  0  0  0  0  0  0  0  0  0  0  0
    1.3834   -0.6959    0.0000 H   0  0  0  0  0  0  0  0  0  0  0  0
    2.7186   -3.1369    0.0000 H   0  0  0  0  0  0  0  0  0  0  0  0
    2.8558   -4.0029    0.0000 H   0  0  0  0  0  0  0  0  0  0  0  0
    3.7218   -3.8657    0.0000 H   0  0  0  0  0  0  0  0  0  0  0  0
  1 18  1  0  0  0  0
  1 19  1  0  0  0  0
  2 22  1  0  0  0  0
  2 27  1  0  0  0  0
  3 20  2  0  0  0  0
  4  8  1  0  0  0  0
  4 18  1  0  0  0  0
  4 35  1  0  0  0  0
  5  6  1  0  0  0  0
  5 18  2  0  0  0  0
  6 19  2  0  0  0  0
  7 19  1  0  0  0  0
  7 20  1  0  0  0  0
  7 40  1  0  0  0  0
  8  9  1  0  0  0  0
  8 12  1  0  0  0  0
  8 28  1  0  0  0  0
  9 10  1  0  0  0  0
  9 29  1  0  0  0  0
  9 30  1  0  0  0  0
 10 11  1  0  0  0  0
 10 31  1  0  0  0  0
 10 32  1  0  0  0  0
 11 13  1  0  0  0  0
 11 33  1  0  0  0  0
 11 34  1  0  0  0  0
 12 13  1  0  0  0  0
 12 14  2  0  0  0  0
 13 15  2  0  0  0  0
 14 16  1  0  0  0  0
 14 36  1  0  0  0  0
 15 17  1  0  0  0  0
 15 37  1  0  0  0  0
 16 17  2  0  0  0  0
 16 38  1  0  0  0  0
 17 39  1  0  0  0  0
 20 21  1  0  0  0  0
 21 22  1  0  0  0  0
 21 23  2  0  0  0  0
 22 24  2  0  0  0  0
 23 25  1  0  0  0  0
 23 41  1  0  0  0  0
 24 26  1  0  0  0  0
 24 42  1  0  0  0  0
 25 26  2  0  0  0  0
 25 43  1  0  0  0  0
 26 44  1  0  0  0  0
 27 45  1  0  0  0  0
 27 46  1  0  0  0  0
 27 47  1  0  0  0  0
M  END
> <PUBCHEM_COMPOUND_CID>
510247
> <PUBCHEM_COMPOUND_CANONICALIZED>
1
> <PUBCHEM_CACTVS_COMPLEXITY>
508
> <PUBCHEM_CACTVS_HBOND_ACCEPTOR>
6
> <PUBCHEM_CACTVS_HBOND_DONOR>
2
> <PUBCHEM_CACTVS_ROTATABLE_BOND>
5
> <PUBCHEM_CACTVS_SUBSKEYS>
AAADceB7sABAAAAAAAAAAAAAAAAAAWAAAAAwYMAAAAAAAADB0AAAHgQYAAAADCzBmAYzFoLABAiuAiFSMACSCAJkIAkNiIEODMiMJjaEvRuEMWh28RMIqYeYyKCOgAAAAAAYAAAAAACAADQAAAAAAAAAAA==
> <PUBCHEM_IUPAC_OPENEYE_NAME>
2-methoxy-N-[5-(tetralin-1-ylamino)-1,3,4-thiadiazol-2-yl]benzamide
> <PUBCHEM_IUPAC_CAS_NAME>
2-methoxy-N-[5-(1,2,3,4-tetrahydronaphthalen-1-ylamino)-1,3,4-thiadiazol-2-yl]benzamide
> <PUBCHEM_IUPAC_NAME_MARKUP>
2-methoxy-<I>N</I>-[5-(1,2,3,4-tetrahydronaphthalen-1-ylamino)-1,3,4-thiadiazol-2-yl]benzamide
> <PUBCHEM_IUPAC_NAME>
2-methoxy-N-[5-(1,2,3,4-tetrahydronaphthalen-1-ylamino)-1,3,4-thiadiazol-2-yl]benzamide
> <PUBCHEM_IUPAC_SYSTEMATIC_NAME>
2-methoxy-N-[5-(1,2,3,4-tetrahydronaphthalen-1-ylamino)-1,3,4-thiadiazol-2-yl]benzamide
> <PUBCHEM_IUPAC_TRADITIONAL_NAME>
2-methoxy-N-[5-(tetralin-1-ylamino)-1,3,4-thiadiazol-2-yl]benzamide
> <PUBCHEM_IUPAC_INCHI>
InChI=1S/C20H20N4O2S/c1-26-17-12-5-4-10-15(17)18(25)22-20-24-23-19(27-20)21-16-11-6-8-13-7-2-3-9-14(13)16/h2-5,7,9-10,12,16H,6,8,11H2,1H3,(H,21,23)(H,22,24,25)
> <PUBCHEM_IUPAC_INCHIKEY>
KIHJJDNTDHJNPY-UHFFFAOYSA-N
> <PUBCHEM_XLOGP3_AA>
4.1
> <PUBCHEM_EXACT_MASS>
380.13069707
> <PUBCHEM_MOLECULAR_FORMULA>
C20H20N4O2S
> <PUBCHEM_MOLECULAR_WEIGHT>
380.5
> <PUBCHEM_OPENEYE_CAN_SMILES>
COC1=CC=CC=C1C(=O)NC2=NN=C(S2)NC3CCCC4=CC=CC=C34
> <PUBCHEM_OPENEYE_ISO_SMILES>
COC1=CC=CC=C1C(=O)NC2=NN=C(S2)NC3CCCC4=CC=CC=C34
> <PUBCHEM_CACTVS_TPSA>
104
> <PUBCHEM_MONOISOTOPIC_WEIGHT>
380.13069707
> <PUBCHEM_TOTAL_CHARGE>
0
> <PUBCHEM_HEAVY_ATOM_COUNT>
27
> <PUBCHEM_ATOM_DEF_STEREO_COUNT>
0
> <PUBCHEM_ATOM_UDEF_STEREO_COUNT>
1
> <PUBCHEM_BOND_DEF_STEREO_COUNT>
0
> <PUBCHEM_BOND_UDEF_STEREO_COUNT>
0
> <PUBCHEM_ISOTOPIC_ATOM_COUNT>
0
> <PUBCHEM_COMPONENT_COUNT>
1
> <PUBCHEM_CACTVS_TAUTO_COUNT>
-1
> <PUBCHEM_COORDINATE_TYPE>
1
5
255
> <PUBCHEM_BONDANNOTATIONS>
1  18  8
1  19  8
12  13  8
12  14  8
13  15  8
14  16  8
15  17  8
16  17  8
21  22  8
21  23  8
22  24  8
23  25  8
24  26  8
25  26  8
8  4  3
5  18  8
5  6  8
6  19  8
$$$$
