510203
  -OEChem-10302200282D
 75 79  0     1  0  0  0  0  0999 V2000
    2.1931    1.6142    0.0000 O   0  0  0  0  0  0  0  0  0  0  0  0
    5.7812   -0.6078    0.0000 O   0  0  0  0  0  0  0  0  0  0  0  0
    2.3999   -3.2101    0.0000 O   0  0  0  0  0  0  0  0  0  0  0  0
    6.1062    2.3354    0.0000 O   0  0  0  0  0  0  0  0  0  0  0  0
    4.7984    3.5375    0.0000 O   0  0  0  0  0  0  0  0  0  0  0  0
    6.8611    0.7464    0.0000 O   0  0  0  0  0  0  0  0  0  0  0  0
    7.3449   -1.8547    0.0000 O   0  0  0  0  0  0  0  0  0  0  0  0
   10.2865    0.2301    0.0000 O   0  0  0  0  0  0  0  0  0  0  0  0
    8.5738    0.4883    0.0000 N   0  0  0  0  0  0  0  0  0  0  0  0
    3.1974    0.0157    0.0000 C   0  0  2  0  0  0  0  0  0  0  0  0
    4.0984   -0.4181    0.0000 C   0  0  1  0  0  0  0  0  0  0  0  0
    2.9842   -1.5795    0.0000 C   0  0  1  0  0  0  0  0  0  0  0  0
    2.5124   -0.7046    0.0000 C   0  0  0  0  0  0  0  0  0  0  0  0
    3.9624   -1.4029    0.0000 C   0  0  0  0  0  0  0  0  0  0  0  0
    2.9749    0.9907    0.0000 C   0  0  2  0  0  0  0  0  0  0  0  0
    4.9994    0.0157    0.0000 C   0  0  1  0  0  0  0  0  0  0  0  0
    3.5984    1.7725    0.0000 C   0  0  0  0  0  0  0  0  0  0  0  0
    3.1627   -2.5635    0.0000 C   0  0  0  0  0  0  0  0  0  0  0  0
    2.1036   -2.0534    0.0000 C   0  0  0  0  0  0  0  0  0  0  0  0
    5.2219    0.9907    0.0000 C   0  0  0  0  0  0  0  0  0  0  0  0
    4.5984    1.7725    0.0000 C   0  0  0  0  0  0  0  0  0  0  0  0
    2.0000    0.7681    0.0000 C   0  0  0  0  0  0  0  0  0  0  0  0
    6.1517    1.3424    0.0000 C   0  0  0  0  0  0  0  0  0  0  0  0
    5.1482    2.6007    0.0000 C   0  0  0  0  0  0  0  0  0  0  0  0
    6.7121   -0.2424    0.0000 C   0  0  0  0  0  0  0  0  0  0  0  0
    7.4939   -0.8659    0.0000 C   0  0  1  0  0  0  0  0  0  0  0  0
    8.4248   -0.5006    0.0000 C   0  0  2  0  0  0  0  0  0  0  0  0
    9.2066   -1.1240    0.0000 C   0  0  0  0  0  0  0  0  0  0  0  0
   10.1375   -0.7587    0.0000 C   0  0  0  0  0  0  0  0  0  0  0  0
    9.0576   -2.1129    0.0000 C   0  0  0  0  0  0  0  0  0  0  0  0
    9.5047    0.8536    0.0000 C   0  0  0  0  0  0  0  0  0  0  0  0
   10.9193   -1.3822    0.0000 C   0  0  0  0  0  0  0  0  0  0  0  0
    9.8394   -2.7364    0.0000 C   0  0  0  0  0  0  0  0  0  0  0  0
    9.6538    1.8424    0.0000 C   0  0  0  0  0  0  0  0  0  0  0  0
   10.7703   -2.3710    0.0000 C   0  0  0  0  0  0  0  0  0  0  0  0
   10.5846    2.2078    0.0000 C   0  0  0  0  0  0  0  0  0  0  0  0
    8.8719    2.4659    0.0000 C   0  0  0  0  0  0  0  0  0  0  0  0
   10.7337    3.1966    0.0000 C   0  0  0  0  0  0  0  0  0  0  0  0
    9.0210    3.4548    0.0000 C   0  0  0  0  0  0  0  0  0  0  0  0
    9.9518    3.8201    0.0000 C   0  0  0  0  0  0  0  0  0  0  0  0
    2.3778    0.2408    0.0000 H   0  0  0  0  0  0  0  0  0  0  0  0
    4.7854   -0.9187    0.0000 H   0  0  0  0  0  0  0  0  0  0  0  0
    2.1105   -0.2324    0.0000 H   0  0  0  0  0  0  0  0  0  0  0  0
    2.0006   -1.0546    0.0000 H   0  0  0  0  0  0  0  0  0  0  0  0
    4.0079   -2.0212    0.0000 H   0  0  0  0  0  0  0  0  0  0  0  0
    4.5821   -1.4227    0.0000 H   0  0  0  0  0  0  0  0  0  0  0  0
    5.5846    0.2205    0.0000 H   0  0  0  0  0  0  0  0  0  0  0  0
    3.7364    2.3770    0.0000 H   0  0  0  0  0  0  0  0  0  0  0  0
    3.0398    2.0415    0.0000 H   0  0  0  0  0  0  0  0  0  0  0  0
    3.4754   -3.0988    0.0000 H   0  0  0  0  0  0  0  0  0  0  0  0
    3.7443   -2.3485    0.0000 H   0  0  0  0  0  0  0  0  0  0  0  0
    1.8098   -1.5074    0.0000 H   0  0  0  0  0  0  0  0  0  0  0  0
    1.5576   -2.3472    0.0000 H   0  0  0  0  0  0  0  0  0  0  0  0
    2.3974   -2.5994    0.0000 H   0  0  0  0  0  0  0  0  0  0  0  0
    1.8620    1.3726    0.0000 H   0  0  0  0  0  0  0  0  0  0  0  0
    1.3955    0.6302    0.0000 H   0  0  0  0  0  0  0  0  0  0  0  0
    2.1380    0.1637    0.0000 H   0  0  0  0  0  0  0  0  0  0  0  0
    2.2855    2.2272    0.0000 H   0  0  0  0  0  0  0  0  0  0  0  0
    6.3089    0.7426    0.0000 H   0  0  0  0  0  0  0  0  0  0  0  0
    6.7646    1.4357    0.0000 H   0  0  0  0  0  0  0  0  0  0  0  0
    2.5106   -3.8201    0.0000 H   0  0  0  0  0  0  0  0  0  0  0  0
    6.9168   -1.0924    0.0000 H   0  0  0  0  0  0  0  0  0  0  0  0
    9.0019   -0.2741    0.0000 H   0  0  0  0  0  0  0  0  0  0  0  0
    6.7677   -2.0812    0.0000 H   0  0  0  0  0  0  0  0  0  0  0  0
    8.0891    0.8748    0.0000 H   0  0  0  0  0  0  0  0  0  0  0  0
   10.2299   -0.1456    0.0000 H   0  0  0  0  0  0  0  0  0  0  0  0
    8.4804   -2.3394    0.0000 H   0  0  0  0  0  0  0  0  0  0  0  0
   11.4965   -1.1557    0.0000 H   0  0  0  0  0  0  0  0  0  0  0  0
    9.7470   -3.3494    0.0000 H   0  0  0  0  0  0  0  0  0  0  0  0
   11.2550   -2.7576    0.0000 H   0  0  0  0  0  0  0  0  0  0  0  0
   11.0694    1.8212    0.0000 H   0  0  0  0  0  0  0  0  0  0  0  0
    8.2948    2.2394    0.0000 H   0  0  0  0  0  0  0  0  0  0  0  0
   11.3108    3.4231    0.0000 H   0  0  0  0  0  0  0  0  0  0  0  0
    8.5362    3.8413    0.0000 H   0  0  0  0  0  0  0  0  0  0  0  0
   10.0442    4.4332    0.0000 H   0  0  0  0  0  0  0  0  0  0  0  0
 15  1  1  1  0  0  0
  1 58  1  0  0  0  0
 16  2  1  1  0  0  0
  2 25  1  0  0  0  0
  3 18  1  0  0  0  0
  3 61  1  0  0  0  0
  4 23  1  0  0  0  0
  4 24  1  0  0  0  0
  5 24  2  0  0  0  0
  6 25  2  0  0  0  0
 26  7  1  1  0  0  0
  7 64  1  0  0  0  0
  8 31  2  0  0  0  0
 27  9  1  1  0  0  0
  9 31  1  0  0  0  0
  9 65  1  0  0  0  0
 10 11  1  0  0  0  0
 10 13  1  0  0  0  0
 10 15  1  0  0  0  0
 10 41  1  1  0  0  0
 11 14  1  0  0  0  0
 11 16  1  0  0  0  0
 11 42  1  1  0  0  0
 12 13  1  0  0  0  0
 12 14  1  0  0  0  0
 12 18  1  0  0  0  0
 12 19  1  6  0  0  0
 13 43  1  0  0  0  0
 13 44  1  0  0  0  0
 14 45  1  0  0  0  0
 14 46  1  0  0  0  0
 15 17  1  0  0  0  0
 15 22  1  0  0  0  0
 16 20  1  0  0  0  0
 16 47  1  0  0  0  0
 17 21  1  0  0  0  0
 17 48  1  0  0  0  0
 17 49  1  0  0  0  0
 18 50  1  0  0  0  0
 18 51  1  0  0  0  0
 19 52  1  0  0  0  0
 19 53  1  0  0  0  0
 19 54  1  0  0  0  0
 20 21  2  0  0  0  0
 20 23  1  0  0  0  0
 21 24  1  0  0  0  0
 22 55  1  0  0  0  0
 22 56  1  0  0  0  0
 22 57  1  0  0  0  0
 23 59  1  0  0  0  0
 23 60  1  0  0  0  0
 25 26  1  0  0  0  0
 26 27  1  0  0  0  0
 26 62  1  0  0  0  0
 27 28  1  0  0  0  0
 27 63  1  0  0  0  0
 28 29  2  0  0  0  0
 28 30  1  0  0  0  0
 29 32  1  0  0  0  0
 29 66  1  0  0  0  0
 30 33  2  0  0  0  0
 30 67  1  0  0  0  0
 31 34  1  0  0  0  0
 32 35  2  0  0  0  0
 32 68  1  0  0  0  0
 33 35  1  0  0  0  0
 33 69  1  0  0  0  0
 34 36  2  0  0  0  0
 34 37  1  0  0  0  0
 35 70  1  0  0  0  0
 36 38  1  0  0  0  0
 36 71  1  0  0  0  0
 37 39  2  0  0  0  0
 37 72  1  0  0  0  0
 38 40  2  0  0  0  0
 38 73  1  0  0  0  0
 39 40  1  0  0  0  0
 39 74  1  0  0  0  0
 40 75  1  0  0  0  0
M  END
> <PUBCHEM_COMPOUND_CID>
510203
> <PUBCHEM_COMPOUND_CANONICALIZED>
1
> <PUBCHEM_CACTVS_COMPLEXITY>
1010
> <PUBCHEM_CACTVS_HBOND_ACCEPTOR>
8
> <PUBCHEM_CACTVS_HBOND_DONOR>
4
> <PUBCHEM_CACTVS_ROTATABLE_BOND>
8
> <PUBCHEM_CACTVS_SUBSKEYS>
AAADcfB6PAAAAAAAAAAAAAAAAAAAAYIAAAAwYAAABAAAAACRQAAAHgAQCAAAD3zhmAYyCILABgCIAiHSGAKCAAAkAAAIiIFIBMgLNDqAtRGGcQhn1gGbqYfa6PyPgAAAAAAAAAAAAAAAAAAAAQAACAAAAA==
> <PUBCHEM_IUPAC_OPENEYE_NAME>
[(5S,5aS,7R,8aR,9S)-5-hydroxy-7-(hydroxymethyl)-5,7-dimethyl-3-oxo-4,5a,6,8,8a,9-hexahydro-1H-azuleno[5,6-c]furan-9-yl] (2R,3S)-3-benzamido-2-hydroxy-3-phenyl-propanoate
> <PUBCHEM_IUPAC_CAS_NAME>
(2R,3S)-3-benzamido-2-hydroxy-3-phenylpropanoic acid [(5S,5aS,7R,8aR,9S)-5-hydroxy-7-(hydroxymethyl)-5,7-dimethyl-3-oxo-4,5a,6,8,8a,9-hexahydro-1H-azuleno[5,6-c]furan-9-yl] ester
> <PUBCHEM_IUPAC_NAME_MARKUP>
[(5<I>S</I>,5<I>a</I><I>S</I>,7<I>R</I>,8<I>a</I><I>R</I>,9<I>S</I>)-5-hydroxy-7-(hydroxymethyl)-5,7-dimethyl-3-oxo-4,5<I>a</I>,6,8,8<I>a</I>,9-hexahydro-1<I>H</I>-azuleno[5,6-c]furan-9-yl] (2<I>R</I>,3<I>S</I>)-3-benzamido-2-hydroxy-3-phenylpropanoate
> <PUBCHEM_IUPAC_NAME>
[(5S,5aS,7R,8aR,9S)-5-hydroxy-7-(hydroxymethyl)-5,7-dimethyl-3-oxo-4,5a,6,8,8a,9-hexahydro-1H-azuleno[5,6-c]furan-9-yl] (2R,3S)-3-benzamido-2-hydroxy-3-phenylpropanoate
> <PUBCHEM_IUPAC_SYSTEMATIC_NAME>
[(5S,5aS,7R,8aR,9S)-7-(hydroxymethyl)-5,7-dimethyl-5-oxidanyl-3-oxidanylidene-4,5a,6,8,8a,9-hexahydro-1H-azuleno[5,6-c]furan-9-yl] (2R,3S)-3-benzamido-2-oxidanyl-3-phenyl-propanoate
> <PUBCHEM_IUPAC_TRADITIONAL_NAME>
(2R,3S)-3-benzamido-2-hydroxy-3-phenyl-propionic acid [(5S,5aS,7R,8aR,9S)-5-hydroxy-3-keto-5,7-dimethyl-7-methylol-4,5a,6,8,8a,9-hexahydro-1H-azuleno[5,6-c]furan-9-yl] ester
> <PUBCHEM_IUPAC_INCHI>
InChI=1S/C31H35NO8/c1-30(17-33)13-21-23(15-30)31(2,38)14-20-22(16-39-28(20)36)26(21)40-29(37)25(34)24(18-9-5-3-6-10-18)32-27(35)19-11-7-4-8-12-19/h3-12,21,23-26,33-34,38H,13-17H2,1-2H3,(H,32,35)/t21-,23+,24+,25-,26+,30-,31+/m1/s1
> <PUBCHEM_IUPAC_INCHIKEY>
CGXSHOCUOUQNBN-HJLUTZGMSA-N
> <PUBCHEM_XLOGP3_AA>
2
> <PUBCHEM_EXACT_MASS>
549.23626707
> <PUBCHEM_MOLECULAR_FORMULA>
C31H35NO8
> <PUBCHEM_MOLECULAR_WEIGHT>
549.6
> <PUBCHEM_OPENEYE_CAN_SMILES>
CC1(CC2C(C1)C(CC3=C(C2OC(=O)C(C(C4=CC=CC=C4)NC(=O)C5=CC=CC=C5)O)COC3=O)(C)O)CO
> <PUBCHEM_OPENEYE_ISO_SMILES>
C[C@]1(C[C@@H]2[C@H](C1)[C@@](CC3=C([C@H]2OC(=O)[C@@H]([C@H](C4=CC=CC=C4)NC(=O)C5=CC=CC=C5)O)COC3=O)(C)O)CO
> <PUBCHEM_CACTVS_TPSA>
142
> <PUBCHEM_MONOISOTOPIC_WEIGHT>
549.23626707
> <PUBCHEM_TOTAL_CHARGE>
0
> <PUBCHEM_HEAVY_ATOM_COUNT>
40
> <PUBCHEM_ATOM_DEF_STEREO_COUNT>
7
> <PUBCHEM_ATOM_UDEF_STEREO_COUNT>
0
> <PUBCHEM_BOND_DEF_STEREO_COUNT>
0
> <PUBCHEM_BOND_UDEF_STEREO_COUNT>
0
> <PUBCHEM_ISOTOPIC_ATOM_COUNT>
0
> <PUBCHEM_COMPONENT_COUNT>
1
> <PUBCHEM_CACTVS_TAUTO_COUNT>
-1
> <PUBCHEM_COORDINATE_TYPE>
1
5
255
> <PUBCHEM_BONDANNOTATIONS>
15  1  5
10  41  5
11  42  5
12  19  6
16  2  5
28  29  8
28  30  8
29  32  8
30  33  8
32  35  8
33  35  8
34  36  8
34  37  8
36  38  8
37  39  8
38  40  8
39  40  8
26  7  5
27  9  5
$$$$
