510229
  -OEChem-10302200282D
 52 55  0     1  0  0  0  0  0999 V2000
    9.9840    1.9837    0.0000 F   0  0  0  0  0  0  0  0  0  0  0  0
    9.9840   -1.4804    0.0000 F   0  0  0  0  0  0  0  0  0  0  0  0
   14.3893   -1.4804    0.0000 O   0  0  0  0  0  0  0  0  0  0  0  0
   16.3893   -1.4804    0.0000 O   0  0  0  0  0  0  0  0  0  0  0  0
    5.4451    0.7516    0.0000 O   0  0  0  0  0  0  0  0  0  0  0  0
    6.7052    2.0117    0.0000 O   0  0  0  0  0  0  0  0  0  0  0  0
    3.0181   -2.0117    0.0000 O   0  0  0  0  0  0  0  0  0  0  0  0
   10.9840    0.2516    0.0000 N   0  0  0  0  0  0  0  0  0  0  0  0
   14.3893    0.2516    0.0000 N   0  0  0  0  0  0  0  0  0  0  0  0
    6.9840    0.2516    0.0000 N   0  0  0  0  0  0  0  0  0  0  0  0
    3.7226   -0.4294    0.0000 N   0  0  0  0  0  0  0  0  0  0  0  0
   12.5228    0.7516    0.0000 C   0  0  2  0  0  0  0  0  0  0  0  0
   12.5228   -0.2484    0.0000 C   0  0  1  0  0  0  0  0  0  0  0  0
   13.3893    0.2516    0.0000 C   0  0  0  0  0  0  0  0  0  0  0  0
   11.5718    1.0607    0.0000 C   0  0  0  0  0  0  0  0  0  0  0  0
   11.5718   -0.5574    0.0000 C   0  0  0  0  0  0  0  0  0  0  0  0
    9.9840    0.2516    0.0000 C   0  0  0  0  0  0  0  0  0  0  0  0
   14.8893   -0.6144    0.0000 C   0  0  0  0  0  0  0  0  0  0  0  0
    9.4840    1.1177    0.0000 C   0  0  0  0  0  0  0  0  0  0  0  0
    9.4840   -0.6144    0.0000 C   0  0  0  0  0  0  0  0  0  0  0  0
   15.8893   -0.6144    0.0000 C   0  0  0  0  0  0  0  0  0  0  0  0
    8.4840    1.1177    0.0000 C   0  0  0  0  0  0  0  0  0  0  0  0
    8.4840   -0.6144    0.0000 C   0  0  0  0  0  0  0  0  0  0  0  0
    7.9840    0.2516    0.0000 C   0  0  0  0  0  0  0  0  0  0  0  0
    6.3962   -0.5574    0.0000 C   0  0  0  0  0  0  0  0  0  0  0  0
    5.4451   -0.2484    0.0000 C   0  0  2  0  0  0  0  0  0  0  0  0
    6.3962    1.0607    0.0000 C   0  0  0  0  0  0  0  0  0  0  0  0
    4.6361   -0.8361    0.0000 C   0  0  0  0  0  0  0  0  0  0  0  0
    2.9136   -1.0172    0.0000 C   0  0  0  0  0  0  0  0  0  0  0  0
    2.0000   -0.6105    0.0000 C   0  0  0  0  0  0  0  0  0  0  0  0
   12.8684    1.5282    0.0000 H   0  0  0  0  0  0  0  0  0  0  0  0
   12.8684   -1.0249    0.0000 H   0  0  0  0  0  0  0  0  0  0  0  0
   13.5497    0.8505    0.0000 H   0  0  0  0  0  0  0  0  0  0  0  0
   11.8239    1.6271    0.0000 H   0  0  0  0  0  0  0  0  0  0  0  0
   11.0348    1.3707    0.0000 H   0  0  0  0  0  0  0  0  0  0  0  0
   11.0348   -0.8674    0.0000 H   0  0  0  0  0  0  0  0  0  0  0  0
   11.8239   -1.1238    0.0000 H   0  0  0  0  0  0  0  0  0  0  0  0
   14.6993    0.7886    0.0000 H   0  0  0  0  0  0  0  0  0  0  0  0
   16.4720   -0.4023    0.0000 H   0  0  0  0  0  0  0  0  0  0  0  0
   15.7817   -0.0038    0.0000 H   0  0  0  0  0  0  0  0  0  0  0  0
    8.1740    1.6546    0.0000 H   0  0  0  0  0  0  0  0  0  0  0  0
    8.1740   -1.1513    0.0000 H   0  0  0  0  0  0  0  0  0  0  0  0
    6.1440   -1.1238    0.0000 H   0  0  0  0  0  0  0  0  0  0  0  0
    6.9331   -0.8674    0.0000 H   0  0  0  0  0  0  0  0  0  0  0  0
   17.0093   -1.4804    0.0000 H   0  0  0  0  0  0  0  0  0  0  0  0
    4.8927    0.0331    0.0000 H   0  0  0  0  0  0  0  0  0  0  0  0
    4.2894   -1.3502    0.0000 H   0  0  0  0  0  0  0  0  0  0  0  0
    5.0821   -1.2668    0.0000 H   0  0  0  0  0  0  0  0  0  0  0  0
    3.6578    0.1872    0.0000 H   0  0  0  0  0  0  0  0  0  0  0  0
    2.2522   -0.0441    0.0000 H   0  0  0  0  0  0  0  0  0  0  0  0
    1.4336   -0.3583    0.0000 H   0  0  0  0  0  0  0  0  0  0  0  0
    1.7478   -1.1768    0.0000 H   0  0  0  0  0  0  0  0  0  0  0  0
  1 19  1  0  0  0  0
  2 20  1  0  0  0  0
  3 18  2  0  0  0  0
  4 21  1  0  0  0  0
  4 45  1  0  0  0  0
  5 26  1  0  0  0  0
  5 27  1  0  0  0  0
  6 27  2  0  0  0  0
  7 29  2  0  0  0  0
  8 15  1  0  0  0  0
  8 16  1  0  0  0  0
  8 17  1  0  0  0  0
  9 14  1  0  0  0  0
  9 18  1  0  0  0  0
  9 38  1  0  0  0  0
 10 24  1  0  0  0  0
 10 25  1  0  0  0  0
 10 27  1  0  0  0  0
 11 28  1  0  0  0  0
 11 29  1  0  0  0  0
 11 49  1  0  0  0  0
 12 13  1  0  0  0  0
 12 14  1  0  0  0  0
 12 15  1  0  0  0  0
 12 31  1  6  0  0  0
 13 14  1  0  0  0  0
 13 16  1  0  0  0  0
 13 32  1  6  0  0  0
 14 33  1  0  0  0  0
 15 34  1  0  0  0  0
 15 35  1  0  0  0  0
 16 36  1  0  0  0  0
 16 37  1  0  0  0  0
 17 19  2  0  0  0  0
 17 20  1  0  0  0  0
 18 21  1  0  0  0  0
 19 22  1  0  0  0  0
 20 23  2  0  0  0  0
 21 39  1  0  0  0  0
 21 40  1  0  0  0  0
 22 24  2  0  0  0  0
 22 41  1  0  0  0  0
 23 24  1  0  0  0  0
 23 42  1  0  0  0  0
 25 26  1  0  0  0  0
 25 43  1  0  0  0  0
 25 44  1  0  0  0  0
 26 28  1  6  0  0  0
 26 46  1  0  0  0  0
 28 47  1  0  0  0  0
 28 48  1  0  0  0  0
 29 30  1  0  0  0  0
 30 50  1  0  0  0  0
 30 51  1  0  0  0  0
 30 52  1  0  0  0  0
M  END
> <PUBCHEM_COMPOUND_CID>
510229
> <PUBCHEM_COMPOUND_CANONICALIZED>
1
> <PUBCHEM_CACTVS_COMPLEXITY>
688
> <PUBCHEM_CACTVS_HBOND_ACCEPTOR>
8
> <PUBCHEM_CACTVS_HBOND_DONOR>
3
> <PUBCHEM_CACTVS_ROTATABLE_BOND>
6
> <PUBCHEM_CACTVS_SUBSKEYS>
AAADceB7uYAAAAAAAAAAAAAAGAAAAWLAAAA8QAAAAAAAAAABAAAAHwAQCAAADTzhkA4yyIPABgCIACVSWAKCAAAhAgAAiIBIZIgKMCLA0ZGNIAhglgDYyAcQAAAIAACAAAAAAAAAAQAAAAAAAAAAAAAAAA==
> <PUBCHEM_IUPAC_OPENEYE_NAME>
N-[(1S,5R)-3-[4-[(5S)-5-(acetamidomethyl)-2-oxo-oxazolidin-3-yl]-2,6-difluoro-phenyl]-3-azabicyclo[3.1.0]hexan-6-yl]-2-hydroxy-acetamide
> <PUBCHEM_IUPAC_CAS_NAME>
N-[(1S,5R)-3-[4-[(5S)-5-(acetamidomethyl)-2-oxo-3-oxazolidinyl]-2,6-difluorophenyl]-3-azabicyclo[3.1.0]hexan-6-yl]-2-hydroxyacetamide
> <PUBCHEM_IUPAC_NAME_MARKUP>
<I>N</I>-[(1<I>S</I>,5<I>R</I>)-3-[4-[(5<I>S</I>)-5-(acetamidomethyl)-2-oxo-1,3-oxazolidin-3-yl]-2,6-difluorophenyl]-3-azabicyclo[3.1.0]hexan-6-yl]-2-hydroxyacetamide
> <PUBCHEM_IUPAC_NAME>
N-[(1S,5R)-3-[4-[(5S)-5-(acetamidomethyl)-2-oxo-1,3-oxazolidin-3-yl]-2,6-difluorophenyl]-3-azabicyclo[3.1.0]hexan-6-yl]-2-hydroxyacetamide
> <PUBCHEM_IUPAC_SYSTEMATIC_NAME>
N-[(1S,5R)-3-[4-[(5S)-5-(acetamidomethyl)-2-oxidanylidene-1,3-oxazolidin-3-yl]-2,6-bis(fluoranyl)phenyl]-3-azabicyclo[3.1.0]hexan-6-yl]-2-oxidanyl-ethanamide
> <PUBCHEM_IUPAC_TRADITIONAL_NAME>
N-[(1S,5R)-3-[4-[(5S)-5-(acetamidomethyl)-2-keto-oxazolidin-3-yl]-2,6-difluoro-phenyl]-3-azabicyclo[3.1.0]hexan-6-yl]-2-hydroxy-acetamide
> <PUBCHEM_IUPAC_INCHI>
InChI=1S/C19H22F2N4O5/c1-9(27)22-4-11-5-25(19(29)30-11)10-2-14(20)18(15(21)3-10)24-6-12-13(7-24)17(12)23-16(28)8-26/h2-3,11-13,17,26H,4-8H2,1H3,(H,22,27)(H,23,28)/t11-,12-,13+,17?/m0/s1
> <PUBCHEM_IUPAC_INCHIKEY>
JRESRMYRDCOEOI-PRCBLGNRSA-N
> <PUBCHEM_XLOGP3_AA>
0
> <PUBCHEM_EXACT_MASS>
424.15582614
> <PUBCHEM_MOLECULAR_FORMULA>
C19H22F2N4O5
> <PUBCHEM_MOLECULAR_WEIGHT>
424.4
> <PUBCHEM_OPENEYE_CAN_SMILES>
CC(=O)NCC1CN(C(=O)O1)C2=CC(=C(C(=C2)F)N3CC4C(C3)C4NC(=O)CO)F
> <PUBCHEM_OPENEYE_ISO_SMILES>
CC(=O)NC[C@H]1CN(C(=O)O1)C2=CC(=C(C(=C2)F)N3C[C@@H]4[C@H](C3)C4NC(=O)CO)F
> <PUBCHEM_CACTVS_TPSA>
111
> <PUBCHEM_MONOISOTOPIC_WEIGHT>
424.15582614
> <PUBCHEM_TOTAL_CHARGE>
0
> <PUBCHEM_HEAVY_ATOM_COUNT>
30
> <PUBCHEM_ATOM_DEF_STEREO_COUNT>
3
> <PUBCHEM_ATOM_UDEF_STEREO_COUNT>
0
> <PUBCHEM_BOND_DEF_STEREO_COUNT>
0
> <PUBCHEM_BOND_UDEF_STEREO_COUNT>
0
> <PUBCHEM_ISOTOPIC_ATOM_COUNT>
0
> <PUBCHEM_COMPONENT_COUNT>
1
> <PUBCHEM_CACTVS_TAUTO_COUNT>
-1
> <PUBCHEM_COORDINATE_TYPE>
1
5
255
> <PUBCHEM_BONDANNOTATIONS>
12  31  6
13  32  6
17  19  8
17  20  8
19  22  8
20  23  8
22  24  8
23  24  8
26  28  6
$$$$
