510293
  -OEChem-10302200282D
 47 48  0     1  0  0  0  0  0999 V2000
    2.2531   -5.5078    0.0000 Cl  0  0  0  0  0  0  0  0  0  0  0  0
    3.9851   -6.5078    0.0000 Cl  0  0  0  0  0  0  0  0  0  0  0  0
    4.0421   -0.4200    0.0000 S   0  0  0  0  0  0  0  0  0  0  0  0
    3.1191   -2.0078    0.0000 O   0  0  0  0  0  0  0  0  0  0  0  0
    3.7634    1.3401    0.0000 N   0  0  0  0  0  0  0  0  0  0  0  0
    5.3511    0.5311    0.0000 N   0  0  0  0  0  0  0  0  0  0  0  0
    5.6602   -0.4200    0.0000 N   0  0  0  0  0  0  0  0  0  0  0  0
    4.8511   -2.0078    0.0000 N   0  0  0  0  0  0  0  0  0  0  0  0
    3.5823    3.0626    0.0000 C   0  0  3  0  0  0  0  0  0  0  0  0
    3.9890    3.9762    0.0000 C   0  0  0  0  0  0  0  0  0  0  0  0
    2.5878    2.9581    0.0000 C   0  0  0  0  0  0  0  0  0  0  0  0
    4.1701    2.2536    0.0000 C   0  0  0  0  0  0  0  0  0  0  0  0
    3.4013    4.7852    0.0000 C   0  0  0  0  0  0  0  0  0  0  0  0
    3.8080    5.6988    0.0000 C   0  0  0  0  0  0  0  0  0  0  0  0
    2.0000    3.7671    0.0000 C   0  0  0  0  0  0  0  0  0  0  0  0
    3.2202    6.5078    0.0000 C   0  0  0  0  0  0  0  0  0  0  0  0
    4.3511    0.5311    0.0000 C   0  0  0  0  0  0  0  0  0  0  0  0
    4.8511   -1.0078    0.0000 C   0  0  0  0  0  0  0  0  0  0  0  0
    3.9851   -2.5078    0.0000 C   0  0  0  0  0  0  0  0  0  0  0  0
    3.9851   -3.5078    0.0000 C   0  0  0  0  0  0  0  0  0  0  0  0
    3.1191   -4.0078    0.0000 C   0  0  0  0  0  0  0  0  0  0  0  0
    4.8511   -4.0078    0.0000 C   0  0  0  0  0  0  0  0  0  0  0  0
    3.1191   -5.0078    0.0000 C   0  0  0  0  0  0  0  0  0  0  0  0
    4.8511   -5.0078    0.0000 C   0  0  0  0  0  0  0  0  0  0  0  0
    3.9851   -5.5078    0.0000 C   0  0  0  0  0  0  0  0  0  0  0  0
    3.3301    2.4962    0.0000 H   0  0  0  0  0  0  0  0  0  0  0  0
    4.5030    3.6295    0.0000 H   0  0  0  0  0  0  0  0  0  0  0  0
    4.4197    4.4222    0.0000 H   0  0  0  0  0  0  0  0  0  0  0  0
    2.0305    2.6863    0.0000 H   0  0  0  0  0  0  0  0  0  0  0  0
    2.7587    2.3621    0.0000 H   0  0  0  0  0  0  0  0  0  0  0  0
    4.6841    1.9069    0.0000 H   0  0  0  0  0  0  0  0  0  0  0  0
    4.6008    2.6996    0.0000 H   0  0  0  0  0  0  0  0  0  0  0  0
    2.8873    5.1319    0.0000 H   0  0  0  0  0  0  0  0  0  0  0  0
    2.9706    4.3392    0.0000 H   0  0  0  0  0  0  0  0  0  0  0  0
    4.3220    5.3521    0.0000 H   0  0  0  0  0  0  0  0  0  0  0  0
    4.2387    6.1448    0.0000 H   0  0  0  0  0  0  0  0  0  0  0  0
    2.5016    4.1316    0.0000 H   0  0  0  0  0  0  0  0  0  0  0  0
    1.6356    4.2687    0.0000 H   0  0  0  0  0  0  0  0  0  0  0  0
    1.4984    3.4027    0.0000 H   0  0  0  0  0  0  0  0  0  0  0  0
    3.1468    1.2753    0.0000 H   0  0  0  0  0  0  0  0  0  0  0  0
    3.7218    6.8722    0.0000 H   0  0  0  0  0  0  0  0  0  0  0  0
    2.8558    7.0094    0.0000 H   0  0  0  0  0  0  0  0  0  0  0  0
    2.7186    6.1434    0.0000 H   0  0  0  0  0  0  0  0  0  0  0  0
    5.3881   -2.3178    0.0000 H   0  0  0  0  0  0  0  0  0  0  0  0
    2.5822   -3.6978    0.0000 H   0  0  0  0  0  0  0  0  0  0  0  0
    5.3881   -3.6978    0.0000 H   0  0  0  0  0  0  0  0  0  0  0  0
    5.3881   -5.3178    0.0000 H   0  0  0  0  0  0  0  0  0  0  0  0
  1 23  1  0  0  0  0
  2 25  1  0  0  0  0
  3 17  1  0  0  0  0
  3 18  1  0  0  0  0
  4 19  2  0  0  0  0
  5 12  1  0  0  0  0
  5 17  1  0  0  0  0
  5 40  1  0  0  0  0
  6  7  1  0  0  0  0
  6 17  2  0  0  0  0
  7 18  2  0  0  0  0
  8 18  1  0  0  0  0
  8 19  1  0  0  0  0
  8 44  1  0  0  0  0
  9 10  1  0  0  0  0
  9 11  1  0  0  0  0
  9 12  1  0  0  0  0
  9 26  1  0  0  0  0
 10 13  1  0  0  0  0
 10 27  1  0  0  0  0
 10 28  1  0  0  0  0
 11 15  1  0  0  0  0
 11 29  1  0  0  0  0
 11 30  1  0  0  0  0
 12 31  1  0  0  0  0
 12 32  1  0  0  0  0
 13 14  1  0  0  0  0
 13 33  1  0  0  0  0
 13 34  1  0  0  0  0
 14 16  1  0  0  0  0
 14 35  1  0  0  0  0
 14 36  1  0  0  0  0
 15 37  1  0  0  0  0
 15 38  1  0  0  0  0
 15 39  1  0  0  0  0
 16 41  1  0  0  0  0
 16 42  1  0  0  0  0
 16 43  1  0  0  0  0
 19 20  1  0  0  0  0
 20 21  2  0  0  0  0
 20 22  1  0  0  0  0
 21 23  1  0  0  0  0
 21 45  1  0  0  0  0
 22 24  2  0  0  0  0
 22 46  1  0  0  0  0
 23 25  2  0  0  0  0
 24 25  1  0  0  0  0
 24 47  1  0  0  0  0
M  END
> <PUBCHEM_COMPOUND_CID>
510293
> <PUBCHEM_COMPOUND_CANONICALIZED>
1
> <PUBCHEM_CACTVS_COMPLEXITY>
418
> <PUBCHEM_CACTVS_HBOND_ACCEPTOR>
5
> <PUBCHEM_CACTVS_HBOND_DONOR>
2
> <PUBCHEM_CACTVS_ROTATABLE_BOND>
9
> <PUBCHEM_CACTVS_SUBSKEYS>
AAADceB7oABGAAAAAAAAAAAAAAAAAWAAAAAwAAAAAAAAAAABwAAAHgYYAAAADQLBmCQzEILAAAiuAiFSMACSAAJkBQkNisEIBsiIIDKBnxGEIQhwkQIIiYcYiACOBAAAIAAAAAQIAABAAAAACAAAAAAAAA==
> <PUBCHEM_IUPAC_OPENEYE_NAME>
3,4-dichloro-N-[5-(2-ethylhexylamino)-1,3,4-thiadiazol-2-yl]benzamide
> <PUBCHEM_IUPAC_CAS_NAME>
3,4-dichloro-N-[5-(2-ethylhexylamino)-1,3,4-thiadiazol-2-yl]benzamide
> <PUBCHEM_IUPAC_NAME_MARKUP>
3,4-dichloro-<I>N</I>-[5-(2-ethylhexylamino)-1,3,4-thiadiazol-2-yl]benzamide
> <PUBCHEM_IUPAC_NAME>
3,4-dichloro-N-[5-(2-ethylhexylamino)-1,3,4-thiadiazol-2-yl]benzamide
> <PUBCHEM_IUPAC_SYSTEMATIC_NAME>
3,4-bis(chloranyl)-N-[5-(2-ethylhexylamino)-1,3,4-thiadiazol-2-yl]benzamide
> <PUBCHEM_IUPAC_TRADITIONAL_NAME>
3,4-dichloro-N-[5-(2-ethylhexylamino)-1,3,4-thiadiazol-2-yl]benzamide
> <PUBCHEM_IUPAC_INCHI>
InChI=1S/C17H22Cl2N4OS/c1-3-5-6-11(4-2)10-20-16-22-23-17(25-16)21-15(24)12-7-8-13(18)14(19)9-12/h7-9,11H,3-6,10H2,1-2H3,(H,20,22)(H,21,23,24)
> <PUBCHEM_IUPAC_INCHIKEY>
OWKQTJFRXWTSGC-UHFFFAOYSA-N
> <PUBCHEM_XLOGP3_AA>
6.2
> <PUBCHEM_EXACT_MASS>
400.0891379
> <PUBCHEM_MOLECULAR_FORMULA>
C17H22Cl2N4OS
> <PUBCHEM_MOLECULAR_WEIGHT>
401.4
> <PUBCHEM_OPENEYE_CAN_SMILES>
CCCCC(CC)CNC1=NN=C(S1)NC(=O)C2=CC(=C(C=C2)Cl)Cl
> <PUBCHEM_OPENEYE_ISO_SMILES>
CCCCC(CC)CNC1=NN=C(S1)NC(=O)C2=CC(=C(C=C2)Cl)Cl
> <PUBCHEM_CACTVS_TPSA>
95.2
> <PUBCHEM_MONOISOTOPIC_WEIGHT>
400.0891379
> <PUBCHEM_TOTAL_CHARGE>
0
> <PUBCHEM_HEAVY_ATOM_COUNT>
25
> <PUBCHEM_ATOM_DEF_STEREO_COUNT>
0
> <PUBCHEM_ATOM_UDEF_STEREO_COUNT>
1
> <PUBCHEM_BOND_DEF_STEREO_COUNT>
0
> <PUBCHEM_BOND_UDEF_STEREO_COUNT>
0
> <PUBCHEM_ISOTOPIC_ATOM_COUNT>
0
> <PUBCHEM_COMPONENT_COUNT>
1
> <PUBCHEM_CACTVS_TAUTO_COUNT>
-1
> <PUBCHEM_COORDINATE_TYPE>
1
5
255
> <PUBCHEM_BONDANNOTATIONS>
20  21  8
20  22  8
21  23  8
22  24  8
23  25  8
24  25  8
3  17  8
3  18  8
6  17  8
6  7  8
7  18  8
9  11  3
$$$$
