510222
  -OEChem-10302200282D
 46 49  0     1  0  0  0  0  0999 V2000
    9.9840   -1.4804    0.0000 F   0  0  0  0  0  0  0  0  0  0  0  0
    5.4451    0.7516    0.0000 O   0  0  0  0  0  0  0  0  0  0  0  0
    6.7052    2.0117    0.0000 O   0  0  0  0  0  0  0  0  0  0  0  0
    3.0181   -2.0117    0.0000 O   0  0  0  0  0  0  0  0  0  0  0  0
   10.9840    0.2516    0.0000 N   0  0  0  0  0  0  0  0  0  0  0  0
   14.3893    0.2516    0.0000 N   0  0  0  0  0  0  0  0  0  0  0  0
    6.9840    0.2516    0.0000 N   0  0  0  0  0  0  0  0  0  0  0  0
    3.7226   -0.4294    0.0000 N   0  0  0  0  0  0  0  0  0  0  0  0
   12.5228    0.7516    0.0000 C   0  0  2  0  0  0  0  0  0  0  0  0
   12.5228   -0.2484    0.0000 C   0  0  1  0  0  0  0  0  0  0  0  0
   13.3893    0.2516    0.0000 C   0  0  0  0  0  0  0  0  0  0  0  0
   11.5718    1.0607    0.0000 C   0  0  0  0  0  0  0  0  0  0  0  0
   11.5718   -0.5574    0.0000 C   0  0  0  0  0  0  0  0  0  0  0  0
    9.9840    0.2516    0.0000 C   0  0  0  0  0  0  0  0  0  0  0  0
    9.4840   -0.6144    0.0000 C   0  0  0  0  0  0  0  0  0  0  0  0
    9.4840    1.1177    0.0000 C   0  0  0  0  0  0  0  0  0  0  0  0
    8.4840   -0.6144    0.0000 C   0  0  0  0  0  0  0  0  0  0  0  0
    8.4840    1.1177    0.0000 C   0  0  0  0  0  0  0  0  0  0  0  0
    7.9840    0.2516    0.0000 C   0  0  0  0  0  0  0  0  0  0  0  0
    6.3962   -0.5574    0.0000 C   0  0  0  0  0  0  0  0  0  0  0  0
    5.4451   -0.2484    0.0000 C   0  0  2  0  0  0  0  0  0  0  0  0
    6.3962    1.0607    0.0000 C   0  0  0  0  0  0  0  0  0  0  0  0
    4.6361   -0.8361    0.0000 C   0  0  0  0  0  0  0  0  0  0  0  0
    2.9136   -1.0172    0.0000 C   0  0  0  0  0  0  0  0  0  0  0  0
    2.0000   -0.6105    0.0000 C   0  0  0  0  0  0  0  0  0  0  0  0
   12.8684    1.5282    0.0000 H   0  0  0  0  0  0  0  0  0  0  0  0
   12.8684   -1.0249    0.0000 H   0  0  0  0  0  0  0  0  0  0  0  0
   13.5497    0.8505    0.0000 H   0  0  0  0  0  0  0  0  0  0  0  0
   11.8239    1.6271    0.0000 H   0  0  0  0  0  0  0  0  0  0  0  0
   11.0348    1.3707    0.0000 H   0  0  0  0  0  0  0  0  0  0  0  0
   11.0348   -0.8674    0.0000 H   0  0  0  0  0  0  0  0  0  0  0  0
   11.8239   -1.1238    0.0000 H   0  0  0  0  0  0  0  0  0  0  0  0
   14.6993    0.7886    0.0000 H   0  0  0  0  0  0  0  0  0  0  0  0
   14.6993   -0.2853    0.0000 H   0  0  0  0  0  0  0  0  0  0  0  0
    9.7940    1.6546    0.0000 H   0  0  0  0  0  0  0  0  0  0  0  0
    8.1740   -1.1513    0.0000 H   0  0  0  0  0  0  0  0  0  0  0  0
    8.1740    1.6546    0.0000 H   0  0  0  0  0  0  0  0  0  0  0  0
    6.1440   -1.1238    0.0000 H   0  0  0  0  0  0  0  0  0  0  0  0
    6.9331   -0.8674    0.0000 H   0  0  0  0  0  0  0  0  0  0  0  0
    4.8927    0.0331    0.0000 H   0  0  0  0  0  0  0  0  0  0  0  0
    4.2894   -1.3502    0.0000 H   0  0  0  0  0  0  0  0  0  0  0  0
    5.0821   -1.2668    0.0000 H   0  0  0  0  0  0  0  0  0  0  0  0
    3.6578    0.1872    0.0000 H   0  0  0  0  0  0  0  0  0  0  0  0
    2.2522   -0.0441    0.0000 H   0  0  0  0  0  0  0  0  0  0  0  0
    1.4336   -0.3583    0.0000 H   0  0  0  0  0  0  0  0  0  0  0  0
    1.7478   -1.1768    0.0000 H   0  0  0  0  0  0  0  0  0  0  0  0
  1 15  1  0  0  0  0
  2 21  1  0  0  0  0
  2 22  1  0  0  0  0
  3 22  2  0  0  0  0
  4 24  2  0  0  0  0
  5 12  1  0  0  0  0
  5 13  1  0  0  0  0
  5 14  1  0  0  0  0
  6 11  1  0  0  0  0
  6 33  1  0  0  0  0
  6 34  1  0  0  0  0
  7 19  1  0  0  0  0
  7 20  1  0  0  0  0
  7 22  1  0  0  0  0
  8 23  1  0  0  0  0
  8 24  1  0  0  0  0
  8 43  1  0  0  0  0
  9 10  1  0  0  0  0
  9 11  1  0  0  0  0
  9 12  1  0  0  0  0
  9 26  1  6  0  0  0
 10 11  1  0  0  0  0
 10 13  1  0  0  0  0
 10 27  1  6  0  0  0
 11 28  1  0  0  0  0
 12 29  1  0  0  0  0
 12 30  1  0  0  0  0
 13 31  1  0  0  0  0
 13 32  1  0  0  0  0
 14 15  2  0  0  0  0
 14 16  1  0  0  0  0
 15 17  1  0  0  0  0
 16 18  2  0  0  0  0
 16 35  1  0  0  0  0
 17 19  2  0  0  0  0
 17 36  1  0  0  0  0
 18 19  1  0  0  0  0
 18 37  1  0  0  0  0
 20 21  1  0  0  0  0
 20 38  1  0  0  0  0
 20 39  1  0  0  0  0
 21 23  1  6  0  0  0
 21 40  1  0  0  0  0
 23 41  1  0  0  0  0
 23 42  1  0  0  0  0
 24 25  1  0  0  0  0
 25 44  1  0  0  0  0
 25 45  1  0  0  0  0
 25 46  1  0  0  0  0
M  END
> <PUBCHEM_COMPOUND_CID>
510222
> <PUBCHEM_COMPOUND_CANONICALIZED>
1
> <PUBCHEM_CACTVS_COMPLEXITY>
550
> <PUBCHEM_CACTVS_HBOND_ACCEPTOR>
6
> <PUBCHEM_CACTVS_HBOND_DONOR>
2
> <PUBCHEM_CACTVS_ROTATABLE_BOND>
4
> <PUBCHEM_CACTVS_SUBSKEYS>
AAADceB7sQAAAAAAAAAAAAAAGAAAAWLAAAA8QAAAAAAAAAABAAAAHwAQAAAADTzhkA4yyIPABACIACVSWACCAAAhAgAIiIAIZIgKICLA0ZGNIAhglgDYyAcQAAAIAACAAAAAAAAAAQAAAAAAAAAAAAAAAA==
> <PUBCHEM_IUPAC_OPENEYE_NAME>
N-[[(5S)-3-[4-[(1S,5R)-6-amino-3-azabicyclo[3.1.0]hexan-3-yl]-3-fluoro-phenyl]-2-oxo-oxazolidin-5-yl]methyl]acetamide
> <PUBCHEM_IUPAC_CAS_NAME>
N-[[(5S)-3-[4-[(1S,5R)-6-amino-3-azabicyclo[3.1.0]hexan-3-yl]-3-fluorophenyl]-2-oxo-5-oxazolidinyl]methyl]acetamide
> <PUBCHEM_IUPAC_NAME_MARKUP>
<I>N</I>-[[(5<I>S</I>)-3-[4-[(1<I>S</I>,5<I>R</I>)-6-amino-3-azabicyclo[3.1.0]hexan-3-yl]-3-fluorophenyl]-2-oxo-1,3-oxazolidin-5-yl]methyl]acetamide
> <PUBCHEM_IUPAC_NAME>
N-[[(5S)-3-[4-[(1S,5R)-6-amino-3-azabicyclo[3.1.0]hexan-3-yl]-3-fluorophenyl]-2-oxo-1,3-oxazolidin-5-yl]methyl]acetamide
> <PUBCHEM_IUPAC_SYSTEMATIC_NAME>
N-[[(5S)-3-[4-[(1S,5R)-6-azanyl-3-azabicyclo[3.1.0]hexan-3-yl]-3-fluoranyl-phenyl]-2-oxidanylidene-1,3-oxazolidin-5-yl]methyl]ethanamide
> <PUBCHEM_IUPAC_TRADITIONAL_NAME>
N-[[(5S)-3-[4-[(1S,5R)-6-amino-3-azabicyclo[3.1.0]hexan-3-yl]-3-fluoro-phenyl]-2-keto-oxazolidin-5-yl]methyl]acetamide
> <PUBCHEM_IUPAC_INCHI>
InChI=1S/C17H21FN4O3/c1-9(23)20-5-11-6-22(17(24)25-11)10-2-3-15(14(18)4-10)21-7-12-13(8-21)16(12)19/h2-4,11-13,16H,5-8,19H2,1H3,(H,20,23)/t11-,12-,13+,16?/m0/s1
> <PUBCHEM_IUPAC_INCHIKEY>
PXLOZRJYERMRLK-RAGMHUQYSA-N
> <PUBCHEM_XLOGP3_AA>
0.3
> <PUBCHEM_EXACT_MASS>
348.15976871
> <PUBCHEM_MOLECULAR_FORMULA>
C17H21FN4O3
> <PUBCHEM_MOLECULAR_WEIGHT>
348.4
> <PUBCHEM_OPENEYE_CAN_SMILES>
CC(=O)NCC1CN(C(=O)O1)C2=CC(=C(C=C2)N3CC4C(C3)C4N)F
> <PUBCHEM_OPENEYE_ISO_SMILES>
CC(=O)NC[C@H]1CN(C(=O)O1)C2=CC(=C(C=C2)N3C[C@@H]4[C@H](C3)C4N)F
> <PUBCHEM_CACTVS_TPSA>
87.9
> <PUBCHEM_MONOISOTOPIC_WEIGHT>
348.15976871
> <PUBCHEM_TOTAL_CHARGE>
0
> <PUBCHEM_HEAVY_ATOM_COUNT>
25
> <PUBCHEM_ATOM_DEF_STEREO_COUNT>
3
> <PUBCHEM_ATOM_UDEF_STEREO_COUNT>
0
> <PUBCHEM_BOND_DEF_STEREO_COUNT>
0
> <PUBCHEM_BOND_UDEF_STEREO_COUNT>
0
> <PUBCHEM_ISOTOPIC_ATOM_COUNT>
0
> <PUBCHEM_COMPONENT_COUNT>
1
> <PUBCHEM_CACTVS_TAUTO_COUNT>
-1
> <PUBCHEM_COORDINATE_TYPE>
1
5
255
> <PUBCHEM_BONDANNOTATIONS>
10  27  6
14  15  8
14  16  8
15  17  8
16  18  8
17  19  8
18  19  8
21  23  6
9  26  6
$$$$
