510278
  -OEChem-10302200282D
 40 41  0     1  0  0  0  0  0999 V2000
    4.6261    4.1820    0.0000 S   0  0  0  0  0  0  0  0  0  0  0  0
    2.0280    2.6820    0.0000 F   0  0  0  0  0  0  0  0  0  0  0  0
    3.2601   -1.8569    0.0000 O   0  0  0  0  0  0  0  0  0  0  0  0
    2.0000   -0.5968    0.0000 O   0  0  0  0  0  0  0  0  0  0  0  0
    5.4921    4.6820    0.0000 O   0  0  0  0  0  0  0  0  0  0  0  0
    6.0234   -4.2839    0.0000 O   0  0  0  0  0  0  0  0  0  0  0  0
    4.1261    5.0480    0.0000 O   0  0  0  0  0  0  0  0  0  0  0  0
    5.1261    3.3160    0.0000 O   0  0  0  0  0  0  0  0  0  0  0  0
    3.7601   -0.3180    0.0000 N   0  0  0  0  0  0  0  0  0  0  0  0
    4.4411   -3.5794    0.0000 N   0  0  0  0  0  0  0  0  0  0  0  0
    3.7601    3.6820    0.0000 N   0  0  3  0  0  0  0  0  0  0  0  0
    4.2601   -1.8569    0.0000 C   0  0  2  0  0  0  0  0  0  0  0  0
    4.5691   -0.9058    0.0000 C   0  0  0  0  0  0  0  0  0  0  0  0
    4.8479   -2.6659    0.0000 C   0  0  0  0  0  0  0  0  0  0  0  0
    3.7601    0.6820    0.0000 C   0  0  0  0  0  0  0  0  0  0  0  0
    2.9511   -0.9058    0.0000 C   0  0  0  0  0  0  0  0  0  0  0  0
    2.8940    1.1820    0.0000 C   0  0  0  0  0  0  0  0  0  0  0  0
    4.6261    1.1820    0.0000 C   0  0  0  0  0  0  0  0  0  0  0  0
    3.7601    2.6820    0.0000 C   0  0  0  0  0  0  0  0  0  0  0  0
    2.8940    2.1820    0.0000 C   0  0  0  0  0  0  0  0  0  0  0  0
    4.6261    2.1820    0.0000 C   0  0  0  0  0  0  0  0  0  0  0  0
    5.0289   -4.3884    0.0000 C   0  0  0  0  0  0  0  0  0  0  0  0
    2.8940    4.1820    0.0000 C   0  0  0  0  0  0  0  0  0  0  0  0
    4.6222   -5.3020    0.0000 C   0  0  0  0  0  0  0  0  0  0  0  0
    3.9786   -2.4093    0.0000 H   0  0  0  0  0  0  0  0  0  0  0  0
    5.1355   -1.1580    0.0000 H   0  0  0  0  0  0  0  0  0  0  0  0
    4.8791   -0.3689    0.0000 H   0  0  0  0  0  0  0  0  0  0  0  0
    5.3619   -3.0126    0.0000 H   0  0  0  0  0  0  0  0  0  0  0  0
    5.2786   -2.2199    0.0000 H   0  0  0  0  0  0  0  0  0  0  0  0
    2.3571    0.8720    0.0000 H   0  0  0  0  0  0  0  0  0  0  0  0
    5.1630    0.8720    0.0000 H   0  0  0  0  0  0  0  0  0  0  0  0
    3.8245   -3.6442    0.0000 H   0  0  0  0  0  0  0  0  0  0  0  0
    5.1630    2.4920    0.0000 H   0  0  0  0  0  0  0  0  0  0  0  0
    3.2040    4.7189    0.0000 H   0  0  0  0  0  0  0  0  0  0  0  0
    2.3571    4.4920    0.0000 H   0  0  0  0  0  0  0  0  0  0  0  0
    2.5840    3.6450    0.0000 H   0  0  0  0  0  0  0  0  0  0  0  0
    4.0558   -5.0498    0.0000 H   0  0  0  0  0  0  0  0  0  0  0  0
    4.3700   -5.8684    0.0000 H   0  0  0  0  0  0  0  0  0  0  0  0
    5.1886   -5.5542    0.0000 H   0  0  0  0  0  0  0  0  0  0  0  0
    5.4921    5.3020    0.0000 H   0  0  0  0  0  0  0  0  0  0  0  0
  1  5  1  0  0  0  0
  1  7  2  0  0  0  0
  1  8  2  0  0  0  0
  1 11  1  0  0  0  0
  2 20  1  0  0  0  0
  3 12  1  0  0  0  0
  3 16  1  0  0  0  0
  4 16  2  0  0  0  0
  5 40  1  0  0  0  0
  6 22  2  0  0  0  0
  9 13  1  0  0  0  0
  9 15  1  0  0  0  0
  9 16  1  0  0  0  0
 10 14  1  0  0  0  0
 10 22  1  0  0  0  0
 10 32  1  0  0  0  0
 11 19  1  0  0  0  0
 11 23  1  0  0  0  0
 12 13  1  0  0  0  0
 12 14  1  6  0  0  0
 12 25  1  0  0  0  0
 13 26  1  0  0  0  0
 13 27  1  0  0  0  0
 14 28  1  0  0  0  0
 14 29  1  0  0  0  0
 15 17  2  0  0  0  0
 15 18  1  0  0  0  0
 17 20  1  0  0  0  0
 17 30  1  0  0  0  0
 18 21  2  0  0  0  0
 18 31  1  0  0  0  0
 19 20  2  0  0  0  0
 19 21  1  0  0  0  0
 21 33  1  0  0  0  0
 22 24  1  0  0  0  0
 23 34  1  0  0  0  0
 23 35  1  0  0  0  0
 23 36  1  0  0  0  0
 24 37  1  0  0  0  0
 24 38  1  0  0  0  0
 24 39  1  0  0  0  0
M  END
> <PUBCHEM_COMPOUND_CID>
510278
> <PUBCHEM_COMPOUND_CANONICALIZED>
1
> <PUBCHEM_CACTVS_COMPLEXITY>
595
> <PUBCHEM_CACTVS_HBOND_ACCEPTOR>
8
> <PUBCHEM_CACTVS_HBOND_DONOR>
2
> <PUBCHEM_CACTVS_ROTATABLE_BOND>
5
> <PUBCHEM_CACTVS_SUBSKEYS>
AAADceBzOQBAAAAAAAAAAAAAAAAAAWAAAAAwAAAAAAAAAAABAAAAHwAQSAAACBzhkA4yyIPABICIACVSWDCCAAAhAgAIiIAIZIgKICLA0ZGNIAhglgDYyAcQAAAAAACAAAAAAAAAAQAAAAAAAAAAAAAAAA==
> <PUBCHEM_IUPAC_OPENEYE_NAME>
[4-[(5S)-5-(acetamidomethyl)-2-oxo-oxazolidin-3-yl]-2-fluoro-phenyl]-methyl-sulfamic acid
> <PUBCHEM_IUPAC_CAS_NAME>
[4-[(5S)-5-(acetamidomethyl)-2-oxo-3-oxazolidinyl]-2-fluorophenyl]-methylsulfamic acid
> <PUBCHEM_IUPAC_NAME_MARKUP>
[4-[(5<I>S</I>)-5-(acetamidomethyl)-2-oxo-1,3-oxazolidin-3-yl]-2-fluorophenyl]-methylsulfamic acid
> <PUBCHEM_IUPAC_NAME>
[4-[(5S)-5-(acetamidomethyl)-2-oxo-1,3-oxazolidin-3-yl]-2-fluorophenyl]-methylsulfamic acid
> <PUBCHEM_IUPAC_SYSTEMATIC_NAME>
[4-[(5S)-5-(acetamidomethyl)-2-oxidanylidene-1,3-oxazolidin-3-yl]-2-fluoranyl-phenyl]-methyl-sulfamic acid
> <PUBCHEM_IUPAC_TRADITIONAL_NAME>
[4-[(5S)-5-(acetamidomethyl)-2-keto-oxazolidin-3-yl]-2-fluoro-phenyl]-methyl-sulfamic acid
> <PUBCHEM_IUPAC_INCHI>
InChI=1S/C13H16FN3O6S/c1-8(18)15-6-10-7-17(13(19)23-10)9-3-4-12(11(14)5-9)16(2)24(20,21)22/h3-5,10H,6-7H2,1-2H3,(H,15,18)(H,20,21,22)/t10-/m0/s1
> <PUBCHEM_IUPAC_INCHIKEY>
BFRUKAXBRGCGRB-JTQLQIEISA-N
> <PUBCHEM_XLOGP3_AA>
-0.4
> <PUBCHEM_EXACT_MASS>
361.07438457
> <PUBCHEM_MOLECULAR_FORMULA>
C13H16FN3O6S
> <PUBCHEM_MOLECULAR_WEIGHT>
361.35
> <PUBCHEM_OPENEYE_CAN_SMILES>
CC(=O)NCC1CN(C(=O)O1)C2=CC(=C(C=C2)N(C)S(=O)(=O)O)F
> <PUBCHEM_OPENEYE_ISO_SMILES>
CC(=O)NC[C@H]1CN(C(=O)O1)C2=CC(=C(C=C2)N(C)S(=O)(=O)O)F
> <PUBCHEM_CACTVS_TPSA>
125
> <PUBCHEM_MONOISOTOPIC_WEIGHT>
361.07438457
> <PUBCHEM_TOTAL_CHARGE>
0
> <PUBCHEM_HEAVY_ATOM_COUNT>
24
> <PUBCHEM_ATOM_DEF_STEREO_COUNT>
1
> <PUBCHEM_ATOM_UDEF_STEREO_COUNT>
0
> <PUBCHEM_BOND_DEF_STEREO_COUNT>
0
> <PUBCHEM_BOND_UDEF_STEREO_COUNT>
0
> <PUBCHEM_ISOTOPIC_ATOM_COUNT>
0
> <PUBCHEM_COMPONENT_COUNT>
1
> <PUBCHEM_CACTVS_TAUTO_COUNT>
-1
> <PUBCHEM_COORDINATE_TYPE>
1
5
255
> <PUBCHEM_BONDANNOTATIONS>
12  14  6
15  17  8
15  18  8
17  20  8
18  21  8
19  20  8
19  21  8
$$$$
