510204
  -OEChem-10302200282D
 80 84  0     1  0  0  0  0  0999 V2000
    4.6660    4.2476    0.0000 O   0  0  0  0  0  0  0  0  0  0  0  0
    8.2541    2.0257    0.0000 O   0  0  0  0  0  0  0  0  0  0  0  0
    4.8728   -0.5766    0.0000 O   0  0  0  0  0  0  0  0  0  0  0  0
    8.5791    4.9688    0.0000 O   0  0  0  0  0  0  0  0  0  0  0  0
    7.2713    6.1710    0.0000 O   0  0  0  0  0  0  0  0  0  0  0  0
    9.3340    3.3798    0.0000 O   0  0  0  0  0  0  0  0  0  0  0  0
    5.9927   -1.8979    0.0000 O   0  0  0  0  0  0  0  0  0  0  0  0
    3.3471   -1.8698    0.0000 O   0  0  0  0  0  0  0  0  0  0  0  0
    4.8242   -5.1590    0.0000 O   0  0  0  0  0  0  0  0  0  0  0  0
    5.4084   -3.5284    0.0000 N   0  0  0  0  0  0  0  0  0  0  0  0
    5.6703    2.6492    0.0000 C   0  0  2  0  0  0  0  0  0  0  0  0
    6.5713    2.2153    0.0000 C   0  0  1  0  0  0  0  0  0  0  0  0
    5.4570    1.0539    0.0000 C   0  0  1  0  0  0  0  0  0  0  0  0
    4.9852    1.9288    0.0000 C   0  0  0  0  0  0  0  0  0  0  0  0
    6.4353    1.2305    0.0000 C   0  0  0  0  0  0  0  0  0  0  0  0
    5.4478    3.6241    0.0000 C   0  0  2  0  0  0  0  0  0  0  0  0
    7.4723    2.6492    0.0000 C   0  0  2  0  0  0  0  0  0  0  0  0
    6.0713    4.4059    0.0000 C   0  0  0  0  0  0  0  0  0  0  0  0
    5.6356    0.0699    0.0000 C   0  0  0  0  0  0  0  0  0  0  0  0
    4.5764    0.5800    0.0000 C   0  0  0  0  0  0  0  0  0  0  0  0
    7.6948    3.6241    0.0000 C   0  0  0  0  0  0  0  0  0  0  0  0
    7.0713    4.4059    0.0000 C   0  0  0  0  0  0  0  0  0  0  0  0
    4.4729    3.4016    0.0000 C   0  0  0  0  0  0  0  0  0  0  0  0
    8.6246    3.9758    0.0000 C   0  0  0  0  0  0  0  0  0  0  0  0
    7.6211    5.2341    0.0000 C   0  0  0  0  0  0  0  0  0  0  0  0
    9.1850    2.3910    0.0000 C   0  0  0  0  0  0  0  0  0  0  0  0
    5.0513   -1.5606    0.0000 C   0  0  0  0  0  0  0  0  0  0  0  0
    4.2885   -2.2072    0.0000 C   0  0  1  0  0  0  0  0  0  0  0  0
    9.9668    1.7675    0.0000 C   0  0  0  0  0  0  0  0  0  0  0  0
    4.4671   -3.1911    0.0000 C   0  0  2  0  0  0  0  0  0  0  0  0
    3.7042   -3.8377    0.0000 C   0  0  0  0  0  0  0  0  0  0  0  0
    3.8828   -4.8216    0.0000 C   0  0  0  0  0  0  0  0  0  0  0  0
    2.7628   -3.5004    0.0000 C   0  0  0  0  0  0  0  0  0  0  0  0
    5.5870   -4.5124    0.0000 C   0  0  0  0  0  0  0  0  0  0  0  0
    3.1199   -5.4682    0.0000 C   0  0  0  0  0  0  0  0  0  0  0  0
    2.0000   -4.1470    0.0000 C   0  0  0  0  0  0  0  0  0  0  0  0
    6.5284   -4.8497    0.0000 C   0  0  0  0  0  0  0  0  0  0  0  0
    2.1786   -5.1309    0.0000 C   0  0  0  0  0  0  0  0  0  0  0  0
    7.2912   -4.2031    0.0000 C   0  0  0  0  0  0  0  0  0  0  0  0
    6.7069   -5.8336    0.0000 C   0  0  0  0  0  0  0  0  0  0  0  0
    8.2326   -4.5404    0.0000 C   0  0  0  0  0  0  0  0  0  0  0  0
    7.6483   -6.1710    0.0000 C   0  0  0  0  0  0  0  0  0  0  0  0
    8.4111   -5.5244    0.0000 C   0  0  0  0  0  0  0  0  0  0  0  0
    4.8507    2.8742    0.0000 H   0  0  0  0  0  0  0  0  0  0  0  0
    7.2583    1.7148    0.0000 H   0  0  0  0  0  0  0  0  0  0  0  0
    4.5834    2.4010    0.0000 H   0  0  0  0  0  0  0  0  0  0  0  0
    4.4734    1.5789    0.0000 H   0  0  0  0  0  0  0  0  0  0  0  0
    6.4807    0.6122    0.0000 H   0  0  0  0  0  0  0  0  0  0  0  0
    7.0550    1.2107    0.0000 H   0  0  0  0  0  0  0  0  0  0  0  0
    8.0575    2.8539    0.0000 H   0  0  0  0  0  0  0  0  0  0  0  0
    6.2092    5.0104    0.0000 H   0  0  0  0  0  0  0  0  0  0  0  0
    5.5127    4.6749    0.0000 H   0  0  0  0  0  0  0  0  0  0  0  0
    5.9483   -0.4654    0.0000 H   0  0  0  0  0  0  0  0  0  0  0  0
    6.2171    0.2849    0.0000 H   0  0  0  0  0  0  0  0  0  0  0  0
    4.2826    1.1260    0.0000 H   0  0  0  0  0  0  0  0  0  0  0  0
    4.0305    0.2862    0.0000 H   0  0  0  0  0  0  0  0  0  0  0  0
    4.8702    0.0340    0.0000 H   0  0  0  0  0  0  0  0  0  0  0  0
    4.3349    4.0060    0.0000 H   0  0  0  0  0  0  0  0  0  0  0  0
    3.8684    3.2636    0.0000 H   0  0  0  0  0  0  0  0  0  0  0  0
    4.6108    2.7971    0.0000 H   0  0  0  0  0  0  0  0  0  0  0  0
    4.7584    4.8606    0.0000 H   0  0  0  0  0  0  0  0  0  0  0  0
    8.7818    3.3760    0.0000 H   0  0  0  0  0  0  0  0  0  0  0  0
    9.2375    4.0691    0.0000 H   0  0  0  0  0  0  0  0  0  0  0  0
    4.1778   -1.5971    0.0000 H   0  0  0  0  0  0  0  0  0  0  0  0
    9.5802    1.2828    0.0000 H   0  0  0  0  0  0  0  0  0  0  0  0
   10.4515    1.3809    0.0000 H   0  0  0  0  0  0  0  0  0  0  0  0
   10.3534    2.2522    0.0000 H   0  0  0  0  0  0  0  0  0  0  0  0
    4.9400   -2.7902    0.0000 H   0  0  0  0  0  0  0  0  0  0  0  0
    3.2364   -1.2598    0.0000 H   0  0  0  0  0  0  0  0  0  0  0  0
    5.8814   -3.1276    0.0000 H   0  0  0  0  0  0  0  0  0  0  0  0
    4.4664   -5.0308    0.0000 H   0  0  0  0  0  0  0  0  0  0  0  0
    2.6521   -2.8903    0.0000 H   0  0  0  0  0  0  0  0  0  0  0  0
    3.2306   -6.0783    0.0000 H   0  0  0  0  0  0  0  0  0  0  0  0
    1.4163   -3.9378    0.0000 H   0  0  0  0  0  0  0  0  0  0  0  0
    1.7056   -5.5318    0.0000 H   0  0  0  0  0  0  0  0  0  0  0  0
    7.1805   -3.5931    0.0000 H   0  0  0  0  0  0  0  0  0  0  0  0
    6.2340   -6.2345    0.0000 H   0  0  0  0  0  0  0  0  0  0  0  0
    8.7056   -4.1395    0.0000 H   0  0  0  0  0  0  0  0  0  0  0  0
    7.7590   -6.7810    0.0000 H   0  0  0  0  0  0  0  0  0  0  0  0
    8.9948   -5.7335    0.0000 H   0  0  0  0  0  0  0  0  0  0  0  0
 16  1  1  1  0  0  0
  1 61  1  0  0  0  0
 17  2  1  6  0  0  0
  2 26  1  0  0  0  0
  3 19  1  0  0  0  0
  3 27  1  0  0  0  0
  4 24  1  0  0  0  0
  4 25  1  0  0  0  0
  5 25  2  0  0  0  0
  6 26  2  0  0  0  0
  7 27  2  0  0  0  0
 28  8  1  1  0  0  0
  8 69  1  0  0  0  0
  9 34  2  0  0  0  0
 30 10  1  1  0  0  0
 10 34  1  0  0  0  0
 10 70  1  0  0  0  0
 11 12  1  0  0  0  0
 11 14  1  0  0  0  0
 11 16  1  0  0  0  0
 11 44  1  1  0  0  0
 12 15  1  0  0  0  0
 12 17  1  0  0  0  0
 12 45  1  1  0  0  0
 13 14  1  0  0  0  0
 13 15  1  0  0  0  0
 13 19  1  0  0  0  0
 13 20  1  6  0  0  0
 14 46  1  0  0  0  0
 14 47  1  0  0  0  0
 15 48  1  0  0  0  0
 15 49  1  0  0  0  0
 16 18  1  0  0  0  0
 16 23  1  0  0  0  0
 17 21  1  0  0  0  0
 17 50  1  0  0  0  0
 18 22  1  0  0  0  0
 18 51  1  0  0  0  0
 18 52  1  0  0  0  0
 19 53  1  0  0  0  0
 19 54  1  0  0  0  0
 20 55  1  0  0  0  0
 20 56  1  0  0  0  0
 20 57  1  0  0  0  0
 21 22  2  0  0  0  0
 21 24  1  0  0  0  0
 22 25  1  0  0  0  0
 23 58  1  0  0  0  0
 23 59  1  0  0  0  0
 23 60  1  0  0  0  0
 24 62  1  0  0  0  0
 24 63  1  0  0  0  0
 26 29  1  0  0  0  0
 27 28  1  0  0  0  0
 28 30  1  0  0  0  0
 28 64  1  0  0  0  0
 29 65  1  0  0  0  0
 29 66  1  0  0  0  0
 29 67  1  0  0  0  0
 30 31  1  0  0  0  0
 30 68  1  0  0  0  0
 31 32  2  0  0  0  0
 31 33  1  0  0  0  0
 32 35  1  0  0  0  0
 32 71  1  0  0  0  0
 33 36  2  0  0  0  0
 33 72  1  0  0  0  0
 34 37  1  0  0  0  0
 35 38  2  0  0  0  0
 35 73  1  0  0  0  0
 36 38  1  0  0  0  0
 36 74  1  0  0  0  0
 37 39  2  0  0  0  0
 37 40  1  0  0  0  0
 38 75  1  0  0  0  0
 39 41  1  0  0  0  0
 39 76  1  0  0  0  0
 40 42  2  0  0  0  0
 40 77  1  0  0  0  0
 41 43  2  0  0  0  0
 41 78  1  0  0  0  0
 42 43  1  0  0  0  0
 42 79  1  0  0  0  0
 43 80  1  0  0  0  0
M  END
> <PUBCHEM_COMPOUND_CID>
510204
> <PUBCHEM_COMPOUND_CANONICALIZED>
1
> <PUBCHEM_CACTVS_COMPLEXITY>
1120
> <PUBCHEM_CACTVS_HBOND_ACCEPTOR>
9
> <PUBCHEM_CACTVS_HBOND_DONOR>
3
> <PUBCHEM_CACTVS_ROTATABLE_BOND>
10
> <PUBCHEM_CACTVS_SUBSKEYS>
AAADcfB+PAAAAAAAAAAAAAAAAAAAAYIAAAAwYAAABAAAAACRQAAAHgAQCAAAD3zhmAYyCILABgCIAiHSGAKCAAAkAAAIiIFIBMgLNDqAtRGGcQhn1gGbqYfa6PyPgAAAAAAAAAAAAAAAAAAAAQAACAAAAA==
> <PUBCHEM_IUPAC_OPENEYE_NAME>
[(5S,5aS,7R,8aR,9R)-9-acetoxy-5-hydroxy-5,7-dimethyl-3-oxo-4,5a,6,8,8a,9-hexahydro-1H-azuleno[5,6-c]furan-7-yl]methyl (2R,3S)-3-benzamido-2-hydroxy-3-phenyl-propanoate
> <PUBCHEM_IUPAC_CAS_NAME>
(2R,3S)-3-benzamido-2-hydroxy-3-phenylpropanoic acid [(5S,5aS,7R,8aR,9R)-9-acetyloxy-5-hydroxy-5,7-dimethyl-3-oxo-4,5a,6,8,8a,9-hexahydro-1H-azuleno[5,6-c]furan-7-yl]methyl ester
> <PUBCHEM_IUPAC_NAME_MARKUP>
[(5<I>S</I>,5<I>a</I><I>S</I>,7<I>R</I>,8<I>a</I><I>R</I>,9<I>R</I>)-9-acetyloxy-5-hydroxy-5,7-dimethyl-3-oxo-4,5<I>a</I>,6,8,8<I>a</I>,9-hexahydro-1<I>H</I>-azuleno[5,6-c]furan-7-yl]methyl (2<I>R</I>,3<I>S</I>)-3-benzamido-2-hydroxy-3-phenylpropanoate
> <PUBCHEM_IUPAC_NAME>
[(5S,5aS,7R,8aR,9R)-9-acetyloxy-5-hydroxy-5,7-dimethyl-3-oxo-4,5a,6,8,8a,9-hexahydro-1H-azuleno[5,6-c]furan-7-yl]methyl (2R,3S)-3-benzamido-2-hydroxy-3-phenylpropanoate
> <PUBCHEM_IUPAC_SYSTEMATIC_NAME>
[(5S,5aS,7R,8aR,9R)-9-acetyloxy-5,7-dimethyl-5-oxidanyl-3-oxidanylidene-4,5a,6,8,8a,9-hexahydro-1H-azuleno[5,6-c]furan-7-yl]methyl (2R,3S)-3-benzamido-2-oxidanyl-3-phenyl-propanoate
> <PUBCHEM_IUPAC_TRADITIONAL_NAME>
(2R,3S)-3-benzamido-2-hydroxy-3-phenyl-propionic acid [(5S,5aS,7R,8aR,9R)-9-acetoxy-5-hydroxy-3-keto-5,7-dimethyl-4,5a,6,8,8a,9-hexahydro-1H-azuleno[5,6-c]furan-7-yl]methyl ester
> <PUBCHEM_IUPAC_INCHI>
InChI=1S/C33H37NO9/c1-19(35)43-28-23-14-32(2,16-25(23)33(3,40)15-22-24(28)17-41-30(22)38)18-42-31(39)27(36)26(20-10-6-4-7-11-20)34-29(37)21-12-8-5-9-13-21/h4-13,23,25-28,36,40H,14-18H2,1-3H3,(H,34,37)/t23-,25+,26+,27-,28-,32-,33+/m1/s1
> <PUBCHEM_IUPAC_INCHIKEY>
IPBCJTQAYUJQIW-HHTQXAMESA-N
> <PUBCHEM_XLOGP3_AA>
2.5
> <PUBCHEM_EXACT_MASS>
591.24683176
> <PUBCHEM_MOLECULAR_FORMULA>
C33H37NO9
> <PUBCHEM_MOLECULAR_WEIGHT>
591.6
> <PUBCHEM_OPENEYE_CAN_SMILES>
CC(=O)OC1C2CC(CC2C(CC3=C1COC3=O)(C)O)(C)COC(=O)C(C(C4=CC=CC=C4)NC(=O)C5=CC=CC=C5)O
> <PUBCHEM_OPENEYE_ISO_SMILES>
CC(=O)O[C@@H]1[C@@H]2C[C@@](C[C@@H]2[C@@](CC3=C1COC3=O)(C)O)(C)COC(=O)[C@@H]([C@H](C4=CC=CC=C4)NC(=O)C5=CC=CC=C5)O
> <PUBCHEM_CACTVS_TPSA>
149
> <PUBCHEM_MONOISOTOPIC_WEIGHT>
591.24683176
> <PUBCHEM_TOTAL_CHARGE>
0
> <PUBCHEM_HEAVY_ATOM_COUNT>
43
> <PUBCHEM_ATOM_DEF_STEREO_COUNT>
7
> <PUBCHEM_ATOM_UDEF_STEREO_COUNT>
0
> <PUBCHEM_BOND_DEF_STEREO_COUNT>
0
> <PUBCHEM_BOND_UDEF_STEREO_COUNT>
0
> <PUBCHEM_ISOTOPIC_ATOM_COUNT>
0
> <PUBCHEM_COMPONENT_COUNT>
1
> <PUBCHEM_CACTVS_TAUTO_COUNT>
-1
> <PUBCHEM_COORDINATE_TYPE>
1
5
255
> <PUBCHEM_BONDANNOTATIONS>
16  1  5
30  10  5
11  44  5
12  45  5
13  20  6
17  2  6
31  32  8
31  33  8
32  35  8
33  36  8
35  38  8
36  38  8
37  39  8
37  40  8
39  41  8
40  42  8
41  43  8
42  43  8
28  8  5
$$$$
