510270
  -OEChem-10302200282D
 43 46  0     1  0  0  0  0  0999 V2000
    7.4160   -0.1357    0.0000 S   0  0  0  0  0  0  0  0  0  0  0  0
    2.0000   -2.9923    0.0000 F   0  0  0  0  0  0  0  0  0  0  0  0
    2.3621    0.4529    0.0000 F   0  0  0  0  0  0  0  0  0  0  0  0
    5.5714   -2.4968    0.0000 O   0  0  0  0  0  0  0  0  0  0  0  0
    9.1956   -0.0424    0.0000 N   0  0  0  0  0  0  0  0  0  0  0  0
    8.2251   -1.5369    0.0000 N   0  0  0  0  0  0  0  0  0  0  0  0
    7.2469   -1.7448    0.0000 N   0  0  0  0  0  0  0  0  0  0  0  0
    5.7524   -0.7743    0.0000 N   0  0  0  0  0  0  0  0  0  0  0  0
    9.1956    0.9576    0.0000 C   0  0  3  0  0  0  0  0  0  0  0  0
    8.3296    1.4576    0.0000 C   0  0  0  0  0  0  0  0  0  0  0  0
    8.3296    2.4576    0.0000 C   0  0  0  0  0  0  0  0  0  0  0  0
    9.1956    2.9576    0.0000 C   0  0  0  0  0  0  0  0  0  0  0  0
   10.0616    1.4576    0.0000 C   0  0  0  0  0  0  0  0  0  0  0  0
   10.0616    2.4576    0.0000 C   0  0  0  0  0  0  0  0  0  0  0  0
   10.9556    0.9229    0.0000 C   0  0  0  0  0  0  0  0  0  0  0  0
   10.9556    2.9923    0.0000 C   0  0  0  0  0  0  0  0  0  0  0  0
   11.8617    1.4368    0.0000 C   0  0  0  0  0  0  0  0  0  0  0  0
   11.8617    2.4784    0.0000 C   0  0  0  0  0  0  0  0  0  0  0  0
    8.3296   -0.5424    0.0000 C   0  0  0  0  0  0  0  0  0  0  0  0
    6.7469   -0.8788    0.0000 C   0  0  0  0  0  0  0  0  0  0  0  0
    5.1646   -1.5833    0.0000 C   0  0  0  0  0  0  0  0  0  0  0  0
    4.1701   -1.4788    0.0000 C   0  0  0  0  0  0  0  0  0  0  0  0
    3.7634   -0.5652    0.0000 C   0  0  0  0  0  0  0  0  0  0  0  0
    3.5823   -2.2878    0.0000 C   0  0  0  0  0  0  0  0  0  0  0  0
    2.5878   -2.1832    0.0000 C   0  0  0  0  0  0  0  0  0  0  0  0
    2.7688   -0.4607    0.0000 C   0  0  0  0  0  0  0  0  0  0  0  0
    2.1810   -1.2697    0.0000 C   0  0  0  0  0  0  0  0  0  0  0  0
    8.6587    0.6476    0.0000 H   0  0  0  0  0  0  0  0  0  0  0  0
    7.7190    1.5653    0.0000 H   0  0  0  0  0  0  0  0  0  0  0  0
    8.1176    0.8750    0.0000 H   0  0  0  0  0  0  0  0  0  0  0  0
    8.1176    3.0402    0.0000 H   0  0  0  0  0  0  0  0  0  0  0  0
    7.7190    2.3499    0.0000 H   0  0  0  0  0  0  0  0  0  0  0  0
    9.5942    3.4326    0.0000 H   0  0  0  0  0  0  0  0  0  0  0  0
    8.7971    3.4326    0.0000 H   0  0  0  0  0  0  0  0  0  0  0  0
    9.7326   -0.3524    0.0000 H   0  0  0  0  0  0  0  0  0  0  0  0
   10.9484    0.3030    0.0000 H   0  0  0  0  0  0  0  0  0  0  0  0
   10.9484    3.6122    0.0000 H   0  0  0  0  0  0  0  0  0  0  0  0
   12.3974    1.1247    0.0000 H   0  0  0  0  0  0  0  0  0  0  0  0
   12.3974    2.7905    0.0000 H   0  0  0  0  0  0  0  0  0  0  0  0
    5.5002   -0.2079    0.0000 H   0  0  0  0  0  0  0  0  0  0  0  0
    4.1278   -0.0636    0.0000 H   0  0  0  0  0  0  0  0  0  0  0  0
    3.8345   -2.8542    0.0000 H   0  0  0  0  0  0  0  0  0  0  0  0
    1.5644   -1.2049    0.0000 H   0  0  0  0  0  0  0  0  0  0  0  0
  1 19  1  0  0  0  0
  1 20  1  0  0  0  0
  2 25  1  0  0  0  0
  3 26  1  0  0  0  0
  4 21  2  0  0  0  0
  5  9  1  0  0  0  0
  5 19  1  0  0  0  0
  5 35  1  0  0  0  0
  6  7  1  0  0  0  0
  6 19  2  0  0  0  0
  7 20  2  0  0  0  0
  8 20  1  0  0  0  0
  8 21  1  0  0  0  0
  8 40  1  0  0  0  0
  9 10  1  0  0  0  0
  9 13  1  0  0  0  0
  9 28  1  0  0  0  0
 10 11  1  0  0  0  0
 10 29  1  0  0  0  0
 10 30  1  0  0  0  0
 11 12  1  0  0  0  0
 11 31  1  0  0  0  0
 11 32  1  0  0  0  0
 12 14  1  0  0  0  0
 12 33  1  0  0  0  0
 12 34  1  0  0  0  0
 13 14  1  0  0  0  0
 13 15  2  0  0  0  0
 14 16  2  0  0  0  0
 15 17  1  0  0  0  0
 15 36  1  0  0  0  0
 16 18  1  0  0  0  0
 16 37  1  0  0  0  0
 17 18  2  0  0  0  0
 17 38  1  0  0  0  0
 18 39  1  0  0  0  0
 21 22  1  0  0  0  0
 22 23  2  0  0  0  0
 22 24  1  0  0  0  0
 23 26  1  0  0  0  0
 23 41  1  0  0  0  0
 24 25  2  0  0  0  0
 24 42  1  0  0  0  0
 25 27  1  0  0  0  0
 26 27  2  0  0  0  0
 27 43  1  0  0  0  0
M  END
> <PUBCHEM_COMPOUND_CID>
510270
> <PUBCHEM_COMPOUND_CANONICALIZED>
1
> <PUBCHEM_CACTVS_COMPLEXITY>
518
> <PUBCHEM_CACTVS_HBOND_ACCEPTOR>
7
> <PUBCHEM_CACTVS_HBOND_DONOR>
2
> <PUBCHEM_CACTVS_ROTATABLE_BOND>
4
> <PUBCHEM_CACTVS_SUBSKEYS>
AAADceB7oYBAAAAAAAAAAAAAAAAAAWAAAAAwYMAAAAAAAADB0AAAHwQYAAAADCjBmAwxEILAAAiuAiFSMACSAAJkAAkNiIEIBMiIIDKAnRGEIQhwkQIIiYcYiICOgAAAAAAQAAAAAACAACQAAAAAAAAAAA==
> <PUBCHEM_IUPAC_OPENEYE_NAME>
3,5-difluoro-N-[5-(tetralin-1-ylamino)-1,3,4-thiadiazol-2-yl]benzamide
> <PUBCHEM_IUPAC_CAS_NAME>
3,5-difluoro-N-[5-(1,2,3,4-tetrahydronaphthalen-1-ylamino)-1,3,4-thiadiazol-2-yl]benzamide
> <PUBCHEM_IUPAC_NAME_MARKUP>
3,5-difluoro-<I>N</I>-[5-(1,2,3,4-tetrahydronaphthalen-1-ylamino)-1,3,4-thiadiazol-2-yl]benzamide
> <PUBCHEM_IUPAC_NAME>
3,5-difluoro-N-[5-(1,2,3,4-tetrahydronaphthalen-1-ylamino)-1,3,4-thiadiazol-2-yl]benzamide
> <PUBCHEM_IUPAC_SYSTEMATIC_NAME>
3,5-bis(fluoranyl)-N-[5-(1,2,3,4-tetrahydronaphthalen-1-ylamino)-1,3,4-thiadiazol-2-yl]benzamide
> <PUBCHEM_IUPAC_TRADITIONAL_NAME>
3,5-difluoro-N-[5-(tetralin-1-ylamino)-1,3,4-thiadiazol-2-yl]benzamide
> <PUBCHEM_IUPAC_INCHI>
InChI=1S/C19H16F2N4OS/c20-13-8-12(9-14(21)10-13)17(26)23-19-25-24-18(27-19)22-16-7-3-5-11-4-1-2-6-15(11)16/h1-2,4,6,8-10,16H,3,5,7H2,(H,22,24)(H,23,25,26)
> <PUBCHEM_IUPAC_INCHIKEY>
IHMFOZBYGOJKNH-UHFFFAOYSA-N
> <PUBCHEM_XLOGP3_AA>
4.3
> <PUBCHEM_EXACT_MASS>
386.10128864
> <PUBCHEM_MOLECULAR_FORMULA>
C19H16F2N4OS
> <PUBCHEM_MOLECULAR_WEIGHT>
386.4
> <PUBCHEM_OPENEYE_CAN_SMILES>
C1CC(C2=CC=CC=C2C1)NC3=NN=C(S3)NC(=O)C4=CC(=CC(=C4)F)F
> <PUBCHEM_OPENEYE_ISO_SMILES>
C1CC(C2=CC=CC=C2C1)NC3=NN=C(S3)NC(=O)C4=CC(=CC(=C4)F)F
> <PUBCHEM_CACTVS_TPSA>
95.2
> <PUBCHEM_MONOISOTOPIC_WEIGHT>
386.10128864
> <PUBCHEM_TOTAL_CHARGE>
0
> <PUBCHEM_HEAVY_ATOM_COUNT>
27
> <PUBCHEM_ATOM_DEF_STEREO_COUNT>
0
> <PUBCHEM_ATOM_UDEF_STEREO_COUNT>
1
> <PUBCHEM_BOND_DEF_STEREO_COUNT>
0
> <PUBCHEM_BOND_UDEF_STEREO_COUNT>
0
> <PUBCHEM_ISOTOPIC_ATOM_COUNT>
0
> <PUBCHEM_COMPONENT_COUNT>
1
> <PUBCHEM_CACTVS_TAUTO_COUNT>
-1
> <PUBCHEM_COORDINATE_TYPE>
1
5
255
> <PUBCHEM_BONDANNOTATIONS>
1  19  8
1  20  8
13  14  8
13  15  8
14  16  8
15  17  8
16  18  8
17  18  8
22  23  8
22  24  8
23  26  8
24  25  8
25  27  8
26  27  8
9  5  3
6  19  8
6  7  8
7  20  8
$$$$
