510392
  -OEChem-10302200282D
 30 30  0     1  0  0  0  0  0999 V2000
    2.8660    2.6550    0.0000 F   0  0  0  0  0  0  0  0  0  0  0  0
    5.4641   -1.8450    0.0000 O   0  0  0  0  0  0  0  0  0  0  0  0
    4.5981   -2.3450    0.0000 O   0  0  0  0  0  0  0  0  0  0  0  0
    6.3301    0.6550    0.0000 O   0  0  0  0  0  0  0  0  0  0  0  0
    6.3301   -0.3450    0.0000 O   0  0  0  0  0  0  0  0  0  0  0  0
    4.5981    3.6550    0.0000 O   0  0  0  0  0  0  0  0  0  0  0  0
    4.5981    0.6550    0.0000 N   0  0  0  0  0  0  0  0  0  0  0  0
    3.7320   -0.8450    0.0000 N   0  0  0  0  0  0  0  0  0  0  0  0
    5.4641    2.1550    0.0000 N   0  0  0  0  0  0  0  0  0  0  0  0
    2.8660   -3.3450    0.0000 N   0  0  0  0  0  0  0  0  0  0  0  0
    4.5981   -0.3450    0.0000 C   0  0  1  0  0  0  0  0  0  0  0  0
    2.8660   -2.3450    0.0000 C   0  0  2  0  0  0  0  0  0  0  0  0
    3.7320   -1.8450    0.0000 C   0  0  0  0  0  0  0  0  0  0  0  0
    5.4641    1.1550    0.0000 C   0  0  0  0  0  0  0  0  0  0  0  0
    3.7320    1.1550    0.0000 C   0  0  0  0  0  0  0  0  0  0  0  0
    5.4641   -0.8450    0.0000 C   0  0  0  0  0  0  0  0  0  0  0  0
    2.0000   -1.8450    0.0000 C   0  0  0  0  0  0  0  0  0  0  0  0
    3.7320    2.1550    0.0000 C   0  0  0  0  0  0  0  0  0  0  0  0
    4.5981    2.6550    0.0000 C   0  0  0  0  0  0  0  0  0  0  0  0
    4.5981   -0.9650    0.0000 H   0  0  0  0  0  0  0  0  0  0  0  0
    3.1951   -0.5350    0.0000 H   0  0  0  0  0  0  0  0  0  0  0  0
    3.4030   -2.6550    0.0000 H   0  0  0  0  0  0  0  0  0  0  0  0
    3.1951    0.8450    0.0000 H   0  0  0  0  0  0  0  0  0  0  0  0
    2.3100   -1.3081    0.0000 H   0  0  0  0  0  0  0  0  0  0  0  0
    1.4631   -1.5350    0.0000 H   0  0  0  0  0  0  0  0  0  0  0  0
    1.6900   -2.3819    0.0000 H   0  0  0  0  0  0  0  0  0  0  0  0
    6.0010    2.4650    0.0000 H   0  0  0  0  0  0  0  0  0  0  0  0
    2.3291   -3.6550    0.0000 H   0  0  0  0  0  0  0  0  0  0  0  0
    3.4030   -3.6550    0.0000 H   0  0  0  0  0  0  0  0  0  0  0  0
    6.0010   -2.1550    0.0000 H   0  0  0  0  0  0  0  0  0  0  0  0
  1 18  1  0  0  0  0
  2 16  1  0  0  0  0
  2 30  1  0  0  0  0
  3 13  2  0  0  0  0
  4 14  2  0  0  0  0
  5 16  2  0  0  0  0
  6 19  2  0  0  0  0
  7 11  1  0  0  0  0
  7 14  1  0  0  0  0
  7 15  1  0  0  0  0
 11  8  1  6  0  0  0
  8 13  1  0  0  0  0
  8 21  1  0  0  0  0
  9 14  1  0  0  0  0
  9 19  1  0  0  0  0
  9 27  1  0  0  0  0
 12 10  1  1  0  0  0
 10 28  1  0  0  0  0
 10 29  1  0  0  0  0
 11 16  1  0  0  0  0
 11 20  1  0  0  0  0
 12 13  1  0  0  0  0
 12 17  1  0  0  0  0
 12 22  1  0  0  0  0
 15 18  2  0  0  0  0
 15 23  1  0  0  0  0
 17 24  1  0  0  0  0
 17 25  1  0  0  0  0
 17 26  1  0  0  0  0
 18 19  1  0  0  0  0
M  END
> <PUBCHEM_COMPOUND_CID>
510392
> <PUBCHEM_COMPOUND_CANONICALIZED>
1
> <PUBCHEM_CACTVS_COMPLEXITY>
477
> <PUBCHEM_CACTVS_HBOND_ACCEPTOR>
7
> <PUBCHEM_CACTVS_HBOND_DONOR>
4
> <PUBCHEM_CACTVS_ROTATABLE_BOND>
4
> <PUBCHEM_CACTVS_SUBSKEYS>
AAADccBzuQAAAAAAAAAAAAAAAAAAAAAAAAAgAAAAAAAAAAAAAAAAHwAQCAAACCjBgAQDCAPAAgCIAAHWWACAAAAAAAAAAIGIAECCQAAAACAUAAAIFyKQAMAAAAAAAAAAAAAAAAAAAAAAAAAAAAAAAAAAAA==
> <PUBCHEM_IUPAC_OPENEYE_NAME>
(2R)-2-[[(2S)-2-aminopropanoyl]amino]-2-(5-fluoro-2,4-dioxo-pyrimidin-1-yl)acetic acid
> <PUBCHEM_IUPAC_CAS_NAME>
(2R)-2-[[(2S)-2-amino-1-oxopropyl]amino]-2-(5-fluoro-2,4-dioxo-1-pyrimidinyl)acetic acid
> <PUBCHEM_IUPAC_NAME_MARKUP>
(2<I>R</I>)-2-[[(2<I>S</I>)-2-aminopropanoyl]amino]-2-(5-fluoro-2,4-dioxopyrimidin-1-yl)acetic acid
> <PUBCHEM_IUPAC_NAME>
(2R)-2-[[(2S)-2-aminopropanoyl]amino]-2-(5-fluoro-2,4-dioxopyrimidin-1-yl)acetic acid
> <PUBCHEM_IUPAC_SYSTEMATIC_NAME>
(2R)-2-[[(2S)-2-azanylpropanoyl]amino]-2-[5-fluoranyl-2,4-bis(oxidanylidene)pyrimidin-1-yl]ethanoic acid
> <PUBCHEM_IUPAC_TRADITIONAL_NAME>
(2R)-2-[[(2S)-2-aminopropanoyl]amino]-2-(5-fluoro-2,4-diketo-pyrimidin-1-yl)acetic acid
> <PUBCHEM_IUPAC_INCHI>
InChI=1S/C9H11FN4O5/c1-3(11)6(15)12-5(8(17)18)14-2-4(10)7(16)13-9(14)19/h2-3,5H,11H2,1H3,(H,12,15)(H,17,18)(H,13,16,19)/t3-,5+/m0/s1
> <PUBCHEM_IUPAC_INCHIKEY>
KIKHXLDDKLVSNQ-WVZVXSGGSA-N
> <PUBCHEM_XLOGP3_AA>
-3.7
> <PUBCHEM_EXACT_MASS>
274.07134763
> <PUBCHEM_MOLECULAR_FORMULA>
C9H11FN4O5
> <PUBCHEM_MOLECULAR_WEIGHT>
274.21
> <PUBCHEM_OPENEYE_CAN_SMILES>
CC(C(=O)NC(C(=O)O)N1C=C(C(=O)NC1=O)F)N
> <PUBCHEM_OPENEYE_ISO_SMILES>
C[C@@H](C(=O)N[C@@H](C(=O)O)N1C=C(C(=O)NC1=O)F)N
> <PUBCHEM_CACTVS_TPSA>
142
> <PUBCHEM_MONOISOTOPIC_WEIGHT>
274.07134763
> <PUBCHEM_TOTAL_CHARGE>
0
> <PUBCHEM_HEAVY_ATOM_COUNT>
19
> <PUBCHEM_ATOM_DEF_STEREO_COUNT>
2
> <PUBCHEM_ATOM_UDEF_STEREO_COUNT>
0
> <PUBCHEM_BOND_DEF_STEREO_COUNT>
0
> <PUBCHEM_BOND_UDEF_STEREO_COUNT>
0
> <PUBCHEM_ISOTOPIC_ATOM_COUNT>
0
> <PUBCHEM_COMPONENT_COUNT>
1
> <PUBCHEM_CACTVS_TAUTO_COUNT>
-1
> <PUBCHEM_COORDINATE_TYPE>
1
5
255
> <PUBCHEM_BONDANNOTATIONS>
12  10  5
15  18  8
18  19  8
7  14  8
7  15  8
11  8  6
9  14  8
9  19  8
$$$$
