510372
  -OEChem-10302200282D
185191  0     1  0  0  0  0  0999 V2000
    7.8331    4.0267    0.0000 S   0  0  0  0  0  0  0  0  0  0  0  0
   11.4663    5.4176    0.0000 S   0  0  0  0  0  0  0  0  0  0  0  0
    6.8671   16.0500    0.0000 O   0  0  0  0  0  0  0  0  0  0  0  0
    4.8671   16.0500    0.0000 O   0  0  0  0  0  0  0  0  0  0  0  0
    8.4548   16.8590    0.0000 O   0  0  0  0  0  0  0  0  0  0  0  0
    7.8671   17.7821    0.0000 O   0  0  0  0  0  0  0  0  0  0  0  0
   10.2149   14.9622    0.0000 O   0  0  0  0  0  0  0  0  0  0  0  0
    3.1350   16.0500    0.0000 O   0  0  0  0  0  0  0  0  0  0  0  0
    8.1458   14.2899    0.0000 O   0  0  0  0  0  0  0  0  0  0  0  0
   11.2330   16.3635    0.0000 O   0  0  0  0  0  0  0  0  0  0  0  0
    3.1350   13.0500    0.0000 O   0  0  0  0  0  0  0  0  0  0  0  0
    1.4030   14.0500    0.0000 O   0  0  0  0  0  0  0  0  0  0  0  0
   10.1104   18.1323    0.0000 O   0  0  0  0  0  0  0  0  0  0  0  0
   13.6600   14.6001    0.0000 O   0  0  0  0  0  0  0  0  0  0  0  0
   13.8691   16.5892    0.0000 O   0  0  0  0  0  0  0  0  0  0  0  0
    0.5369   15.5500    0.0000 O   0  0  0  0  0  0  0  0  0  0  0  0
    1.7234    5.6200    0.0000 O   0  0  0  0  0  0  0  0  0  0  0  0
    5.1875    5.6200    0.0000 O   0  0  0  0  0  0  0  0  0  0  0  0
    5.1875    3.6200    0.0000 O   0  0  0  0  0  0  0  0  0  0  0  0
    4.3215    5.1200    0.0000 O   0  0  0  0  0  0  0  0  0  0  0  0
    7.7856    8.1200    0.0000 O   0  0  0  0  0  0  0  0  0  0  0  0
    3.8671   17.7821    0.0000 N   0  0  0  0  0  0  0  0  0  0  0  0
    6.8671   19.5141    0.0000 N   0  0  0  0  0  0  0  0  0  0  0  0
    4.8671   14.0500    0.0000 N   0  0  0  0  0  0  0  0  0  0  0  0
   11.8330   13.7866    0.0000 N   0  0  0  0  0  0  0  0  0  0  0  0
   13.1646   18.1715    0.0000 N   0  0  0  0  0  0  0  0  0  0  0  0
    4.3215    7.1200    0.0000 N   0  0  0  0  0  0  0  0  0  0  0  0
    3.4555    3.6200    0.0000 N   0  0  0  0  0  0  0  0  0  0  0  0
    6.9196    6.6200    0.0000 N   0  0  0  0  0  0  0  0  0  0  0  0
    8.6516    6.6200    0.0000 N   0  0  0  0  0  0  0  0  0  0  0  0
   11.2972    7.0267    0.0000 N   0  0  0  0  0  0  0  0  0  0  0  0
    8.0022    2.4176    0.0000 N   0  0  0  0  0  0  0  0  0  0  0  0
    6.3671   16.9160    0.0000 C   0  0  1  0  0  0  0  0  0  0  0  0
    5.3671   16.9160    0.0000 C   0  0  1  0  0  0  0  0  0  0  0  0
    4.8671   17.7821    0.0000 C   0  0  2  0  0  0  0  0  0  0  0  0
    6.8671   17.7821    0.0000 C   0  0  2  0  0  0  0  0  0  0  0  0
    6.3671   18.6481    0.0000 C   0  0  1  0  0  0  0  0  0  0  0  0
    5.3671   18.6481    0.0000 C   0  0  0  0  0  0  0  0  0  0  0  0
    7.8671   16.0500    0.0000 C   0  0  2  0  0  0  0  0  0  0  0  0
    8.4548   15.2410    0.0000 C   0  0  1  0  0  0  0  0  0  0  0  0
    9.4059   15.5500    0.0000 C   0  0  1  0  0  0  0  0  0  0  0  0
    4.0010   15.5500    0.0000 C   0  0  1  0  0  0  0  0  0  0  0  0
    9.4059   16.5500    0.0000 C   0  0  1  0  0  0  0  0  0  0  0  0
    4.0010   14.5500    0.0000 C   0  0  1  0  0  0  0  0  0  0  0  0
    3.1350   14.0500    0.0000 C   0  0  2  0  0  0  0  0  0  0  0  0
    2.2690   14.5500    0.0000 C   0  0  1  0  0  0  0  0  0  0  0  0
    2.2690   15.5500    0.0000 C   0  0  1  0  0  0  0  0  0  0  0  0
   11.1285   15.3690    0.0000 C   0  0  1  0  0  0  0  0  0  0  0  0
   10.2149   17.1378    0.0000 C   0  0  0  0  0  0  0  0  0  0  0  0
   11.9375   14.7812    0.0000 C   0  0  1  0  0  0  0  0  0  0  0  0
   12.8510   15.1879    0.0000 C   0  0  2  0  0  0  0  0  0  0  0  0
   12.9556   16.1824    0.0000 C   0  0  1  0  0  0  0  0  0  0  0  0
   12.1465   16.7702    0.0000 C   0  0  2  0  0  0  0  0  0  0  0  0
    1.4030   16.0500    0.0000 C   0  0  0  0  0  0  0  0  0  0  0  0
   12.2511   17.7647    0.0000 C   0  0  0  0  0  0  0  0  0  0  0  0
    3.4555    6.6200    0.0000 C   0  0  2  0  0  0  0  0  0  0  0  0
    3.4555    5.6200    0.0000 C   0  0  0  0  0  0  0  0  0  0  0  0
    2.5894    5.1200    0.0000 C   0  0  1  0  0  0  0  0  0  0  0  0
    2.5894    4.1200    0.0000 C   0  0  2  0  0  0  0  0  0  0  0  0
    2.5894    7.1200    0.0000 C   0  0  0  0  0  0  0  0  0  0  0  0
    1.7234    3.6200    0.0000 C   0  0  0  0  0  0  0  0  0  0  0  0
    6.0535    7.1200    0.0000 C   0  0  2  0  0  0  0  0  0  0  0  0
    5.1875    6.6200    0.0000 C   0  0  0  0  0  0  0  0  0  0  0  0
    6.0535    8.1200    0.0000 C   0  0  0  0  0  0  0  0  0  0  0  0
    2.5894    8.1200    0.0000 C   0  0  0  0  0  0  0  0  0  0  0  0
    1.7234    2.6200    0.0000 C   0  0  0  0  0  0  0  0  0  0  0  0
    6.9196    8.6200    0.0000 C   0  0  0  0  0  0  0  0  0  0  0  0
    5.1875    8.6200    0.0000 C   0  0  0  0  0  0  0  0  0  0  0  0
    1.7234    8.6200    0.0000 C   0  0  0  0  0  0  0  0  0  0  0  0
    3.4555    8.6200    0.0000 C   0  0  0  0  0  0  0  0  0  0  0  0
    4.3215    4.1200    0.0000 C   0  0  0  0  0  0  0  0  0  0  0  0
    2.5894    2.1200    0.0000 C   0  0  0  0  0  0  0  0  0  0  0  0
    0.8574    2.1200    0.0000 C   0  0  0  0  0  0  0  0  0  0  0  0
    7.7856    7.1200    0.0000 C   0  0  0  0  0  0  0  0  0  0  0  0
    1.7234    9.6200    0.0000 C   0  0  0  0  0  0  0  0  0  0  0  0
    3.4555    9.6200    0.0000 C   0  0  0  0  0  0  0  0  0  0  0  0
    2.5894    1.1200    0.0000 C   0  0  0  0  0  0  0  0  0  0  0  0
    0.8574    1.1200    0.0000 C   0  0  0  0  0  0  0  0  0  0  0  0
    2.5894   10.1200    0.0000 C   0  0  0  0  0  0  0  0  0  0  0  0
    1.7234    0.6200    0.0000 C   0  0  0  0  0  0  0  0  0  0  0  0
    9.5176    7.1200    0.0000 C   0  0  0  0  0  0  0  0  0  0  0  0
    6.0535    4.1200    0.0000 C   0  0  0  0  0  0  0  0  0  0  0  0
    8.6516    5.6200    0.0000 C   0  0  0  0  0  0  0  0  0  0  0  0
   10.3837    6.6200    0.0000 C   0  0  0  0  0  0  0  0  0  0  0  0
    6.9196    3.6200    0.0000 C   0  0  0  0  0  0  0  0  0  0  0  0
   10.4882    5.6255    0.0000 C   0  0  0  0  0  0  0  0  0  0  0  0
   11.9663    6.2836    0.0000 C   0  0  0  0  0  0  0  0  0  0  0  0
    7.0241    2.6255    0.0000 C   0  0  0  0  0  0  0  0  0  0  0  0
   12.9609    6.3881    0.0000 C   0  0  0  0  0  0  0  0  0  0  0  0
    8.5022    3.2836    0.0000 C   0  0  0  0  0  0  0  0  0  0  0  0
   13.5487    5.5791    0.0000 C   0  0  0  0  0  0  0  0  0  0  0  0
   13.3676    7.3017    0.0000 C   0  0  0  0  0  0  0  0  0  0  0  0
    6.9871   16.9160    0.0000 H   0  0  0  0  0  0  0  0  0  0  0  0
    4.7471   16.9160    0.0000 H   0  0  0  0  0  0  0  0  0  0  0  0
    4.5571   18.3190    0.0000 H   0  0  0  0  0  0  0  0  0  0  0  0
    7.1771   18.3190    0.0000 H   0  0  0  0  0  0  0  0  0  0  0  0
    6.0571   19.1850    0.0000 H   0  0  0  0  0  0  0  0  0  0  0  0
    5.4747   19.2587    0.0000 H   0  0  0  0  0  0  0  0  0  0  0  0
    4.7844   18.8601    0.0000 H   0  0  0  0  0  0  0  0  0  0  0  0
    7.5856   15.4976    0.0000 H   0  0  0  0  0  0  0  0  0  0  0  0
    8.8932   14.8026    0.0000 H   0  0  0  0  0  0  0  0  0  0  0  0
    9.3089   14.9376    0.0000 H   0  0  0  0  0  0  0  0  0  0  0  0
    4.5380   15.2400    0.0000 H   0  0  0  0  0  0  0  0  0  0  0  0
    9.3089   17.1624    0.0000 H   0  0  0  0  0  0  0  0  0  0  0  0
    4.0010   13.9300    0.0000 H   0  0  0  0  0  0  0  0  0  0  0  0
    3.5571   18.3190    0.0000 H   0  0  0  0  0  0  0  0  0  0  0  0
    3.5571   17.2451    0.0000 H   0  0  0  0  0  0  0  0  0  0  0  0
    6.5571   20.0510    0.0000 H   0  0  0  0  0  0  0  0  0  0  0  0
    7.4871   19.5141    0.0000 H   0  0  0  0  0  0  0  0  0  0  0  0
    3.6720   13.7400    0.0000 H   0  0  0  0  0  0  0  0  0  0  0  0
    2.2690   13.9300    0.0000 H   0  0  0  0  0  0  0  0  0  0  0  0
    2.2690   16.1700    0.0000 H   0  0  0  0  0  0  0  0  0  0  0  0
    8.1771   18.3190    0.0000 H   0  0  0  0  0  0  0  0  0  0  0  0
   10.6269   15.7334    0.0000 H   0  0  0  0  0  0  0  0  0  0  0  0
   10.4867   16.5805    0.0000 H   0  0  0  0  0  0  0  0  0  0  0  0
   10.8109   17.3087    0.0000 H   0  0  0  0  0  0  0  0  0  0  0  0
   11.3711   14.5290    0.0000 H   0  0  0  0  0  0  0  0  0  0  0  0
   12.7862   14.5713    0.0000 H   0  0  0  0  0  0  0  0  0  0  0  0
   13.0204   16.7990    0.0000 H   0  0  0  0  0  0  0  0  0  0  0  0
   11.6449   17.1346    0.0000 H   0  0  0  0  0  0  0  0  0  0  0  0
    8.5607   13.8292    0.0000 H   0  0  0  0  0  0  0  0  0  0  0  0
    4.8671   13.4300    0.0000 H   0  0  0  0  0  0  0  0  0  0  0  0
    5.4040   14.3600    0.0000 H   0  0  0  0  0  0  0  0  0  0  0  0
    1.8015   16.5249    0.0000 H   0  0  0  0  0  0  0  0  0  0  0  0
    1.0044   16.5249    0.0000 H   0  0  0  0  0  0  0  0  0  0  0  0
    2.5981   12.7400    0.0000 H   0  0  0  0  0  0  0  0  0  0  0  0
    1.4030   13.4300    0.0000 H   0  0  0  0  0  0  0  0  0  0  0  0
   12.1011   18.3663    0.0000 H   0  0  0  0  0  0  0  0  0  0  0  0
   11.6326   17.7215    0.0000 H   0  0  0  0  0  0  0  0  0  0  0  0
   12.3345   13.4222    0.0000 H   0  0  0  0  0  0  0  0  0  0  0  0
   11.2666   13.5345    0.0000 H   0  0  0  0  0  0  0  0  0  0  0  0
   10.6120   18.4967    0.0000 H   0  0  0  0  0  0  0  0  0  0  0  0
   14.2264   14.8523    0.0000 H   0  0  0  0  0  0  0  0  0  0  0  0
   14.3707   16.2247    0.0000 H   0  0  0  0  0  0  0  0  0  0  0  0
    0.0000   15.8600    0.0000 H   0  0  0  0  0  0  0  0  0  0  0  0
   13.2294   18.7881    0.0000 H   0  0  0  0  0  0  0  0  0  0  0  0
   13.6662   17.8070    0.0000 H   0  0  0  0  0  0  0  0  0  0  0  0
    3.4555    7.2400    0.0000 H   0  0  0  0  0  0  0  0  0  0  0  0
    3.6675    5.0374    0.0000 H   0  0  0  0  0  0  0  0  0  0  0  0
    4.0660    5.7277    0.0000 H   0  0  0  0  0  0  0  0  0  0  0  0
    2.5894    5.7400    0.0000 H   0  0  0  0  0  0  0  0  0  0  0  0
    2.5894    3.5000    0.0000 H   0  0  0  0  0  0  0  0  0  0  0  0
    1.9789    7.2277    0.0000 H   0  0  0  0  0  0  0  0  0  0  0  0
    2.3774    6.5374    0.0000 H   0  0  0  0  0  0  0  0  0  0  0  0
    1.5114    4.2026    0.0000 H   0  0  0  0  0  0  0  0  0  0  0  0
    1.1128    3.5123    0.0000 H   0  0  0  0  0  0  0  0  0  0  0  0
    4.3215    7.7400    0.0000 H   0  0  0  0  0  0  0  0  0  0  0  0
    6.5905    7.4300    0.0000 H   0  0  0  0  0  0  0  0  0  0  0  0
    3.4555    3.0000    0.0000 H   0  0  0  0  0  0  0  0  0  0  0  0
    5.5166    7.8100    0.0000 H   0  0  0  0  0  0  0  0  0  0  0  0
    1.7234    6.2400    0.0000 H   0  0  0  0  0  0  0  0  0  0  0  0
    6.9196    6.0000    0.0000 H   0  0  0  0  0  0  0  0  0  0  0  0
    7.2296    8.0831    0.0000 H   0  0  0  0  0  0  0  0  0  0  0  0
    7.4565    8.9300    0.0000 H   0  0  0  0  0  0  0  0  0  0  0  0
    6.6096    9.1569    0.0000 H   0  0  0  0  0  0  0  0  0  0  0  0
    5.4975    9.1569    0.0000 H   0  0  0  0  0  0  0  0  0  0  0  0
    4.6506    8.9300    0.0000 H   0  0  0  0  0  0  0  0  0  0  0  0
    4.8775    8.0831    0.0000 H   0  0  0  0  0  0  0  0  0  0  0  0
    1.1865    8.3100    0.0000 H   0  0  0  0  0  0  0  0  0  0  0  0
    3.9924    8.3100    0.0000 H   0  0  0  0  0  0  0  0  0  0  0  0
    3.1264    2.4300    0.0000 H   0  0  0  0  0  0  0  0  0  0  0  0
    0.3205    2.4300    0.0000 H   0  0  0  0  0  0  0  0  0  0  0  0
    1.1865    9.9300    0.0000 H   0  0  0  0  0  0  0  0  0  0  0  0
    3.9924    9.9300    0.0000 H   0  0  0  0  0  0  0  0  0  0  0  0
    3.1264    0.8100    0.0000 H   0  0  0  0  0  0  0  0  0  0  0  0
    0.3205    0.8100    0.0000 H   0  0  0  0  0  0  0  0  0  0  0  0
    2.5894   10.7400    0.0000 H   0  0  0  0  0  0  0  0  0  0  0  0
    1.7234    0.0000    0.0000 H   0  0  0  0  0  0  0  0  0  0  0  0
    9.9162    7.5950    0.0000 H   0  0  0  0  0  0  0  0  0  0  0  0
    9.1191    7.5950    0.0000 H   0  0  0  0  0  0  0  0  0  0  0  0
    6.4521    4.5950    0.0000 H   0  0  0  0  0  0  0  0  0  0  0  0
    5.6550    4.5950    0.0000 H   0  0  0  0  0  0  0  0  0  0  0  0
    8.0316    5.6200    0.0000 H   0  0  0  0  0  0  0  0  0  0  0  0
    8.6516    5.0000    0.0000 H   0  0  0  0  0  0  0  0  0  0  0  0
    9.2716    5.6200    0.0000 H   0  0  0  0  0  0  0  0  0  0  0  0
   10.0274    5.2106    0.0000 H   0  0  0  0  0  0  0  0  0  0  0  0
    6.5633    2.2106    0.0000 H   0  0  0  0  0  0  0  0  0  0  0  0
   13.5775    6.4529    0.0000 H   0  0  0  0  0  0  0  0  0  0  0  0
    9.1188    3.3484    0.0000 H   0  0  0  0  0  0  0  0  0  0  0  0
   13.0471    5.2147    0.0000 H   0  0  0  0  0  0  0  0  0  0  0  0
   13.9131    5.0775    0.0000 H   0  0  0  0  0  0  0  0  0  0  0  0
   14.0502    5.9435    0.0000 H   0  0  0  0  0  0  0  0  0  0  0  0
   13.9340    7.0495    0.0000 H   0  0  0  0  0  0  0  0  0  0  0  0
   13.6198    7.8681    0.0000 H   0  0  0  0  0  0  0  0  0  0  0  0
   12.8012    7.5538    0.0000 H   0  0  0  0  0  0  0  0  0  0  0  0
  1 85  1  0  0  0  0
  1 90  1  0  0  0  0
  2 86  1  0  0  0  0
  2 87  1  0  0  0  0
 33  3  1  1  0  0  0
 39  3  1  6  0  0  0
 34  4  1  6  0  0  0
 42  4  1  6  0  0  0
  5 39  1  0  0  0  0
  5 43  1  0  0  0  0
 36  6  1  6  0  0  0
  6113  1  0  0  0  0
 41  7  1  1  0  0  0
 48  7  1  1  0  0  0
  8 42  1  0  0  0  0
  8 47  1  0  0  0  0
 40  9  1  1  0  0  0
  9121  1  0  0  0  0
 10 48  1  0  0  0  0
 10 53  1  0  0  0  0
 45 11  1  1  0  0  0
 11126  1  0  0  0  0
 46 12  1  6  0  0  0
 12127  1  0  0  0  0
 13 49  1  0  0  0  0
 13132  1  0  0  0  0
 51 14  1  6  0  0  0
 14133  1  0  0  0  0
 52 15  1  1  0  0  0
 15134  1  0  0  0  0
 16 54  1  0  0  0  0
 16135  1  0  0  0  0
 58 17  1  1  0  0  0
 17151  1  0  0  0  0
 18 63  2  0  0  0  0
 19 71  1  0  0  0  0
 19 82  1  0  0  0  0
 20 71  2  0  0  0  0
 21 74  2  0  0  0  0
 35 22  1  1  0  0  0
 22106  1  0  0  0  0
 22107  1  0  0  0  0
 37 23  1  1  0  0  0
 23108  1  0  0  0  0
 23109  1  0  0  0  0
 44 24  1  6  0  0  0
 24122  1  0  0  0  0
 24123  1  0  0  0  0
 50 25  1  1  0  0  0
 25130  1  0  0  0  0
 25131  1  0  0  0  0
 26 55  1  0  0  0  0
 26136  1  0  0  0  0
 26137  1  0  0  0  0
 56 27  1  6  0  0  0
 27 63  1  0  0  0  0
 27147  1  0  0  0  0
 59 28  1  1  0  0  0
 28 71  1  0  0  0  0
 28149  1  0  0  0  0
 62 29  1  6  0  0  0
 29 74  1  0  0  0  0
 29152  1  0  0  0  0
 30 74  1  0  0  0  0
 30 81  1  0  0  0  0
 30 83  1  0  0  0  0
 31 84  1  0  0  0  0
 31 87  2  0  0  0  0
 32 88  1  0  0  0  0
 32 90  2  0  0  0  0
 33 34  1  0  0  0  0
 33 36  1  0  0  0  0
 33 93  1  0  0  0  0
 34 35  1  0  0  0  0
 34 94  1  0  0  0  0
 35 38  1  0  0  0  0
 35 95  1  0  0  0  0
 36 37  1  0  0  0  0
 36 96  1  0  0  0  0
 37 38  1  0  0  0  0
 37 97  1  0  0  0  0
 38 98  1  0  0  0  0
 38 99  1  0  0  0  0
 39 40  1  0  0  0  0
 39100  1  0  0  0  0
 40 41  1  0  0  0  0
 40101  1  0  0  0  0
 41 43  1  0  0  0  0
 41102  1  0  0  0  0
 42 44  1  0  0  0  0
 42103  1  0  0  0  0
 43 49  1  6  0  0  0
 43104  1  0  0  0  0
 44 45  1  0  0  0  0
 44105  1  0  0  0  0
 45 46  1  0  0  0  0
 45110  1  0  0  0  0
 46 47  1  0  0  0  0
 46111  1  0  0  0  0
 47 54  1  1  0  0  0
 47112  1  0  0  0  0
 48 50  1  0  0  0  0
 48114  1  0  0  0  0
 49115  1  0  0  0  0
 49116  1  0  0  0  0
 50 51  1  0  0  0  0
 50117  1  0  0  0  0
 51 52  1  0  0  0  0
 51118  1  0  0  0  0
 52 53  1  0  0  0  0
 52119  1  0  0  0  0
 53 55  1  1  0  0  0
 53120  1  0  0  0  0
 54124  1  0  0  0  0
 54125  1  0  0  0  0
 55128  1  0  0  0  0
 55129  1  0  0  0  0
 56 57  1  0  0  0  0
 56 60  1  0  0  0  0
 56138  1  0  0  0  0
 57 58  1  0  0  0  0
 57139  1  0  0  0  0
 57140  1  0  0  0  0
 58 59  1  0  0  0  0
 58141  1  0  0  0  0
 59 61  1  0  0  0  0
 59142  1  0  0  0  0
 60 65  1  0  0  0  0
 60143  1  0  0  0  0
 60144  1  0  0  0  0
 61 66  1  0  0  0  0
 61145  1  0  0  0  0
 61146  1  0  0  0  0
 62 63  1  0  0  0  0
 62 64  1  0  0  0  0
 62148  1  0  0  0  0
 64 67  1  0  0  0  0
 64 68  1  0  0  0  0
 64150  1  0  0  0  0
 65 69  2  0  0  0  0
 65 70  1  0  0  0  0
 66 72  2  0  0  0  0
 66 73  1  0  0  0  0
 67153  1  0  0  0  0
 67154  1  0  0  0  0
 67155  1  0  0  0  0
 68156  1  0  0  0  0
 68157  1  0  0  0  0
 68158  1  0  0  0  0
 69 75  1  0  0  0  0
 69159  1  0  0  0  0
 70 76  2  0  0  0  0
 70160  1  0  0  0  0
 72 77  1  0  0  0  0
 72161  1  0  0  0  0
 73 78  2  0  0  0  0
 73162  1  0  0  0  0
 75 79  2  0  0  0  0
 75163  1  0  0  0  0
 76 79  1  0  0  0  0
 76164  1  0  0  0  0
 77 80  2  0  0  0  0
 77165  1  0  0  0  0
 78 80  1  0  0  0  0
 78166  1  0  0  0  0
 79167  1  0  0  0  0
 80168  1  0  0  0  0
 81 84  1  0  0  0  0
 81169  1  0  0  0  0
 81170  1  0  0  0  0
 82 85  1  0  0  0  0
 82171  1  0  0  0  0
 82172  1  0  0  0  0
 83173  1  0  0  0  0
 83174  1  0  0  0  0
 83175  1  0  0  0  0
 84 86  2  0  0  0  0
 85 88  2  0  0  0  0
 86176  1  0  0  0  0
 87 89  1  0  0  0  0
 88177  1  0  0  0  0
 89 91  1  0  0  0  0
 89 92  1  0  0  0  0
 89178  1  0  0  0  0
 90179  1  0  0  0  0
 91180  1  0  0  0  0
 91181  1  0  0  0  0
 91182  1  0  0  0  0
 92183  1  0  0  0  0
 92184  1  0  0  0  0
 92185  1  0  0  0  0
M  END
> <PUBCHEM_COMPOUND_CID>
510372
> <PUBCHEM_COMPOUND_CANONICALIZED>
1
> <PUBCHEM_CACTVS_COMPLEXITY>
1910
> <PUBCHEM_CACTVS_HBOND_ACCEPTOR>
28
> <PUBCHEM_CACTVS_HBOND_DONOR>
17
> <PUBCHEM_CACTVS_ROTATABLE_BOND>
27
> <PUBCHEM_CACTVS_SUBSKEYS>
AAADcfB//gBgAAAAAAAAAAAAAAAAAWLEgAA0aMECAAAAAAAB9AAAHgQQCAAADTz13ge/iZPIFgisAzV3XACC8KBxCjhI2J24bImbdDLg8Tm/YAgvlgL/qAfw8P0OAAAAAAAAAAAAgAAUCACgAAAAAAAAAA==
> <PUBCHEM_IUPAC_OPENEYE_NAME>
(2S,3S,4R,5R,6R)-5-amino-2-(aminomethyl)-6-[(2R,3S,4R,5S)-5-[(1R,2R,3S,5R,6S)-3,5-diamino-2-[(2S,3R,4R,5S,6R)-3-amino-4,5-dihydroxy-6-(hydroxymethyl)tetrahydropyran-2-yl]oxy-6-hydroxy-cyclohexoxy]-4-hydroxy-2-(hydroxymethyl)tetrahydrofuran-3-yl]oxy-tetrahydropyran-3,4-diol;thiazol-5-ylmethyl N-[(1S,2S,4S)-1-benzyl-2-hydroxy-4-[[(2S)-2-[[(2-isopropylthiazol-4-yl)methyl-methyl-carbamoyl]amino]-3-methyl-butanoyl]amino]-5-phenyl-pentyl]carbamate
> <PUBCHEM_IUPAC_CAS_NAME>
(2S,3S,4R,5R,6R)-5-amino-2-(aminomethyl)-6-[[(2R,3S,4R,5S)-5-[(1R,2R,3S,5R,6S)-3,5-diamino-2-[[(2S,3R,4R,5S,6R)-3-amino-4,5-dihydroxy-6-(hydroxymethyl)-2-oxanyl]oxy]-6-hydroxycyclohexyl]oxy-4-hydroxy-2-(hydroxymethyl)-3-oxolanyl]oxy]oxane-3,4-diol;N-[(2S,3S,5S)-3-hydroxy-5-[[(2S)-3-methyl-2-[[[methyl-[(2-propan-2-yl-4-thiazolyl)methyl]amino]-oxomethyl]amino]-1-oxobutyl]amino]-1,6-diphenylhexan-2-yl]carbamic acid 5-thiazolylmethyl ester
> <PUBCHEM_IUPAC_NAME_MARKUP>
(2<I>S</I>,3<I>S</I>,4<I>R</I>,5<I>R</I>,6<I>R</I>)-5-amino-2-(aminomethyl)-6-[(2<I>R</I>,3<I>S</I>,4<I>R</I>,5<I>S</I>)-5-[(1<I>R</I>,2<I>R</I>,3<I>S</I>,5<I>R</I>,6<I>S</I>)-3,5-diamino-2-[(2<I>S</I>,3<I>R</I>,4<I>R</I>,5<I>S</I>,6<I>R</I>)-3-amino-4,5-dihydroxy-6-(hydroxymethyl)oxan-2-yl]oxy-6-hydroxycyclohexyl]oxy-4-hydroxy-2-(hydroxymethyl)oxolan-3-yl]oxyoxane-3,4-diol;1,3-thiazol-5-ylmethyl <I>N</I>-[(2<I>S</I>,3<I>S</I>,5<I>S</I>)-3-hydroxy-5-[[(2<I>S</I>)-3-methyl-2-[[methyl-[(2-propan-2-yl-1,3-thiazol-4-yl)methyl]carbamoyl]amino]butanoyl]amino]-1,6-diphenylhexan-2-yl]carbamate
> <PUBCHEM_IUPAC_NAME>
(2S,3S,4R,5R,6R)-5-amino-2-(aminomethyl)-6-[(2R,3S,4R,5S)-5-[(1R,2R,3S,5R,6S)-3,5-diamino-2-[(2S,3R,4R,5S,6R)-3-amino-4,5-dihydroxy-6-(hydroxymethyl)oxan-2-yl]oxy-6-hydroxycyclohexyl]oxy-4-hydroxy-2-(hydroxymethyl)oxolan-3-yl]oxyoxane-3,4-diol;1,3-thiazol-5-ylmethyl N-[(2S,3S,5S)-3-hydroxy-5-[[(2S)-3-methyl-2-[[methyl-[(2-propan-2-yl-1,3-thiazol-4-yl)methyl]carbamoyl]amino]butanoyl]amino]-1,6-diphenylhexan-2-yl]carbamate
> <PUBCHEM_IUPAC_SYSTEMATIC_NAME>
(2S,3S,4R,5R,6R)-2-(aminomethyl)-5-azanyl-6-[(2R,3S,4R,5S)-5-[(1R,2R,3S,5R,6S)-3,5-bis(azanyl)-2-[(2S,3R,4R,5S,6R)-3-azanyl-6-(hydroxymethyl)-4,5-bis(oxidanyl)oxan-2-yl]oxy-6-oxidanyl-cyclohexyl]oxy-2-(hydroxymethyl)-4-oxidanyl-oxolan-3-yl]oxy-oxane-3,4-diol;1,3-thiazol-5-ylmethyl N-[(2S,3S,5S)-5-[[(2S)-3-methyl-2-[[methyl-[(2-propan-2-yl-1,3-thiazol-4-yl)methyl]carbamoyl]amino]butanoyl]amino]-3-oxidanyl-1,6-diphenyl-hexan-2-yl]carbamate
> <PUBCHEM_IUPAC_TRADITIONAL_NAME>
(2S,3S,4R,5R,6R)-5-amino-2-(aminomethyl)-6-[(2R,3S,4R,5S)-5-[(1R,2R,3S,5R,6S)-3,5-diamino-2-[(2S,3R,4R,5S,6R)-3-amino-4,5-dihydroxy-6-methylol-tetrahydropyran-2-yl]oxy-6-hydroxy-cyclohexoxy]-4-hydroxy-2-methylol-tetrahydrofuran-3-yl]oxy-tetrahydropyran-3,4-diol;N-[(1S,2S,4S)-1-benzyl-2-hydroxy-4-[[(2S)-2-[[(2-isopropylthiazol-4-yl)methyl-methyl-carbamoyl]amino]-3-methyl-butanoyl]amino]-5-phenyl-pentyl]carbamic acid thiazol-5-ylmethyl ester
> <PUBCHEM_IUPAC_INCHI>
InChI=1S/C37H48N6O5S2.C23H45N5O14/c1-24(2)33(42-36(46)43(5)20-29-22-49-35(40-29)25(3)4)34(45)39-28(16-26-12-8-6-9-13-26)18-32(44)31(17-27-14-10-7-11-15-27)41-37(47)48-21-30-19-38-23-50-30;24-2-7-13(32)15(34)10(27)21(37-7)41-19-9(4-30)39-23(17(19)36)42-20-12(31)5(25)1-6(26)18(20)40-22-11(28)16(35)14(33)8(3-29)38-22/h6-15,19,22-25,28,31-33,44H,16-18,20-21H2,1-5H3,(H,39,45)(H,41,47)(H,42,46);5-23,29-36H,1-4,24-28H2/t28-,31-,32-,33-;5-,6+,7+,8-,9-,10-,11-,12+,13-,14-,15-,16-,17-,18-,19-,20-,21-,22-,23+/m01/s1
> <PUBCHEM_IUPAC_INCHIKEY>
OQOPRIOOXMMXRD-UOAZVSEKSA-N
> <PUBCHEM_EXACT_MASS>
1335.60906213
> <PUBCHEM_MOLECULAR_FORMULA>
C60H93N11O19S2
> <PUBCHEM_MOLECULAR_WEIGHT>
1336.6
> <PUBCHEM_OPENEYE_CAN_SMILES>
CC(C)C1=NC(=CS1)CN(C)C(=O)NC(C(C)C)C(=O)NC(CC2=CC=CC=C2)CC(C(CC3=CC=CC=C3)NC(=O)OCC4=CN=CS4)O.C1C(C(C(C(C1N)OC2C(C(C(C(O2)CO)O)O)N)OC3C(C(C(O3)CO)OC4C(C(C(C(O4)CN)O)O)N)O)O)N
> <PUBCHEM_OPENEYE_ISO_SMILES>
CC(C)C1=NC(=CS1)CN(C)C(=O)N[C@@H](C(C)C)C(=O)N[C@@H](CC2=CC=CC=C2)C[C@@H]([C@H](CC3=CC=CC=C3)NC(=O)OCC4=CN=CS4)O.C1[C@H]([C@@H]([C@H]([C@@H]([C@H]1N)O[C@@H]2[C@@H]([C@H]([C@@H]([C@H](O2)CO)O)O)N)O[C@H]3[C@@H]([C@@H]([C@H](O3)CO)O[C@@H]4[C@@H]([C@H]([C@@H]([C@@H](O4)CN)O)O)N)O)O)N
> <PUBCHEM_CACTVS_TPSA>
550
> <PUBCHEM_MONOISOTOPIC_WEIGHT>
1335.60906213
> <PUBCHEM_TOTAL_CHARGE>
0
> <PUBCHEM_HEAVY_ATOM_COUNT>
92
> <PUBCHEM_ATOM_DEF_STEREO_COUNT>
23
> <PUBCHEM_ATOM_UDEF_STEREO_COUNT>
0
> <PUBCHEM_BOND_DEF_STEREO_COUNT>
0
> <PUBCHEM_BOND_UDEF_STEREO_COUNT>
0
> <PUBCHEM_ISOTOPIC_ATOM_COUNT>
0
> <PUBCHEM_COMPONENT_COUNT>
2
> <PUBCHEM_CACTVS_TAUTO_COUNT>
-1
> <PUBCHEM_COORDINATE_TYPE>
1
5
255
> <PUBCHEM_BONDANNOTATIONS>
1  85  8
1  90  8
45  11  5
46  12  6
51  14  6
52  15  5
58  17  5
2  86  8
2  87  8
35  22  5
37  23  5
44  24  6
50  25  5
56  27  6
59  28  5
62  29  6
33  3  5
39  3  6
31  84  8
31  87  8
32  88  8
32  90  8
34  4  6
42  4  6
43  49  6
47  54  5
53  55  5
36  6  6
65  69  8
65  70  8
66  72  8
66  73  8
69  75  8
41  7  5
48  7  5
70  76  8
72  77  8
73  78  8
75  79  8
76  79  8
77  80  8
78  80  8
84  86  8
85  88  8
40  9  5
$$$$
