510366
  -OEChem-10302200282D
 99101  0     1  0  0  0  0  0999 V2000
    6.1268   -1.4460    0.0000 O   0  0  0  0  0  0  0  0  0  0  0  0
    4.1763   -0.1643    0.0000 O   0  0  0  0  0  0  0  0  0  0  0  0
    4.3947   -1.4460    0.0000 O   0  0  0  0  0  0  0  0  0  0  0  0
    3.8817    3.0510    0.0000 O   0  0  0  0  0  0  0  0  0  0  0  0
    7.5715    3.1342    0.0000 O   0  0  0  0  0  0  0  0  0  0  0  0
    5.8274    4.6794    0.0000 O   0  0  0  0  0  0  0  0  0  0  0  0
    6.1268   -3.4460    0.0000 O   0  0  0  0  0  0  0  0  0  0  0  0
    7.3430    2.5320    0.0000 O   0  0  0  0  0  0  0  0  0  0  0  0
    8.6331   -0.1574    0.0000 O   0  0  0  0  0  0  0  0  0  0  0  0
    9.0433    2.6307    0.0000 O   0  0  0  0  0  0  0  0  0  0  0  0
    4.3947   -4.4460    0.0000 N   0  0  0  0  0  0  0  0  0  0  0  0
    5.1750   -0.2157    0.0000 C   0  0  1  0  0  0  0  0  0  0  0  0
    6.1268   -0.4460    0.0000 C   0  0  1  0  0  0  0  0  0  0  0  0
    6.0429    0.2810    0.0000 C   0  0  0  0  0  0  0  0  0  0  0  0
    6.5045    1.1681    0.0000 C   0  0  2  0  0  0  0  0  0  0  0  0
    7.0786   -0.2157    0.0000 C   0  0  2  0  0  0  0  0  0  0  0  0
    4.8544    3.2830    0.0000 C   0  0  3  0  0  0  0  0  0  0  0  0
    5.7981    2.9523    0.0000 C   0  0  2  0  0  0  0  0  0  0  0  0
    5.7485    3.6825    0.0000 C   0  0  1  0  0  0  0  0  0  0  0  0
    5.2608   -1.9460    0.0000 C   0  0  2  0  0  0  0  0  0  0  0  0
    4.3947   -3.4460    0.0000 C   0  0  2  0  0  0  0  0  0  0  0  0
    5.2608   -2.9460    0.0000 C   0  0  1  0  0  0  0  0  0  0  0  0
    5.4070   -1.1884    0.0000 C   0  0  0  0  0  0  0  0  0  0  0  0
    6.4133    2.1639    0.0000 C   0  0  0  0  0  0  0  0  0  0  0  0
    3.5287   -2.9460    0.0000 C   0  0  0  0  0  0  0  0  0  0  0  0
    6.7263    3.6290    0.0000 C   0  0  1  0  0  0  0  0  0  0  0  0
    3.5287   -1.9460    0.0000 C   0  0  1  0  0  0  0  0  0  0  0  0
    7.8198    0.4244    0.0000 C   0  0  0  0  0  0  0  0  0  0  0  0
    7.4857    0.9751    0.0000 C   0  0  0  0  0  0  0  0  0  0  0  0
    7.5359   -1.1050    0.0000 C   0  0  0  0  0  0  0  0  0  0  0  0
    8.1862    1.3326    0.0000 C   0  0  2  0  0  0  0  0  0  0  0  0
    6.2964    3.9888    0.0000 C   0  0  0  0  0  0  0  0  0  0  0  0
    4.9246    4.2493    0.0000 C   0  0  0  0  0  0  0  0  0  0  0  0
    3.3639    0.4189    0.0000 C   0  0  0  0  0  0  0  0  0  0  0  0
    7.0143    4.5866    0.0000 C   0  0  0  0  0  0  0  0  0  0  0  0
    3.1888    2.3299    0.0000 C   0  0  0  0  0  0  0  0  0  0  0  0
    2.9958    1.3487    0.0000 C   0  0  0  0  0  0  0  0  0  0  0  0
    2.6627   -1.4460    0.0000 C   0  0  0  0  0  0  0  0  0  0  0  0
    8.0969    2.3078    0.0000 C   0  0  0  0  0  0  0  0  0  0  0  0
    9.1756    1.1870    0.0000 C   0  0  0  0  0  0  0  0  0  0  0  0
    3.5287   -4.9460    0.0000 C   0  0  0  0  0  0  0  0  0  0  0  0
    5.2608   -4.9460    0.0000 C   0  0  0  0  0  0  0  0  0  0  0  0
    7.9877    4.8160    0.0000 C   0  0  0  0  0  0  0  0  0  0  0  0
    2.0000    1.2574    0.0000 C   0  0  0  0  0  0  0  0  0  0  0  0
    5.6396   -0.8294    0.0000 H   0  0  0  0  0  0  0  0  0  0  0  0
    6.1579   -0.3282    0.0000 H   0  0  0  0  0  0  0  0  0  0  0  0
    5.5958    0.7106    0.0000 H   0  0  0  0  0  0  0  0  0  0  0  0
    6.7733    0.6094    0.0000 H   0  0  0  0  0  0  0  0  0  0  0  0
    7.6872   -0.3338    0.0000 H   0  0  0  0  0  0  0  0  0  0  0  0
    4.6551    3.8701    0.0000 H   0  0  0  0  0  0  0  0  0  0  0  0
    6.4146    3.0187    0.0000 H   0  0  0  0  0  0  0  0  0  0  0  0
    5.2608   -1.3260    0.0000 H   0  0  0  0  0  0  0  0  0  0  0  0
    3.8578   -3.7560    0.0000 H   0  0  0  0  0  0  0  0  0  0  0  0
    5.7977   -2.6360    0.0000 H   0  0  0  0  0  0  0  0  0  0  0  0
    4.8039   -1.3322    0.0000 H   0  0  0  0  0  0  0  0  0  0  0  0
    5.5509   -1.7914    0.0000 H   0  0  0  0  0  0  0  0  0  0  0  0
    6.0101   -1.0445    0.0000 H   0  0  0  0  0  0  0  0  0  0  0  0
    2.9181   -2.8384    0.0000 H   0  0  0  0  0  0  0  0  0  0  0  0
    3.3167   -3.5286    0.0000 H   0  0  0  0  0  0  0  0  0  0  0  0
    7.3034    3.8558    0.0000 H   0  0  0  0  0  0  0  0  0  0  0  0
    3.5287   -1.3260    0.0000 H   0  0  0  0  0  0  0  0  0  0  0  0
    7.3661    0.3667    0.0000 H   0  0  0  0  0  0  0  0  0  0  0  0
    8.0941    0.8554    0.0000 H   0  0  0  0  0  0  0  0  0  0  0  0
    7.6054    1.5834    0.0000 H   0  0  0  0  0  0  0  0  0  0  0  0
    6.9845   -1.3885    0.0000 H   0  0  0  0  0  0  0  0  0  0  0  0
    7.8194   -1.6564    0.0000 H   0  0  0  0  0  0  0  0  0  0  0  0
    8.0873   -0.8215    0.0000 H   0  0  0  0  0  0  0  0  0  0  0  0
    8.6365    1.7588    0.0000 H   0  0  0  0  0  0  0  0  0  0  0  0
    6.8551    3.7202    0.0000 H   0  0  0  0  0  0  0  0  0  0  0  0
    6.5650    4.5476    0.0000 H   0  0  0  0  0  0  0  0  0  0  0  0
    5.7376    4.2574    0.0000 H   0  0  0  0  0  0  0  0  0  0  0  0
    5.2761    4.7601    0.0000 H   0  0  0  0  0  0  0  0  0  0  0  0
    4.4139    4.6008    0.0000 H   0  0  0  0  0  0  0  0  0  0  0  0
    4.5732    3.7386    0.0000 H   0  0  0  0  0  0  0  0  0  0  0  0
    2.7445    0.3918    0.0000 H   0  0  0  0  0  0  0  0  0  0  0  0
    3.8528    0.8003    0.0000 H   0  0  0  0  0  0  0  0  0  0  0  0
    6.9791    5.2056    0.0000 H   0  0  0  0  0  0  0  0  0  0  0  0
    6.3986    4.6594    0.0000 H   0  0  0  0  0  0  0  0  0  0  0  0
    2.9068    2.8820    0.0000 H   0  0  0  0  0  0  0  0  0  0  0  0
    3.7388    2.0437    0.0000 H   0  0  0  0  0  0  0  0  0  0  0  0
    2.9727   -0.9091    0.0000 H   0  0  0  0  0  0  0  0  0  0  0  0
    2.1258   -1.1360    0.0000 H   0  0  0  0  0  0  0  0  0  0  0  0
    2.3527   -1.9830    0.0000 H   0  0  0  0  0  0  0  0  0  0  0  0
    6.3872    4.9460    0.0000 H   0  0  0  0  0  0  0  0  0  0  0  0
    6.6637   -3.1360    0.0000 H   0  0  0  0  0  0  0  0  0  0  0  0
    9.0853    0.5736    0.0000 H   0  0  0  0  0  0  0  0  0  0  0  0
    9.7890    1.0968    0.0000 H   0  0  0  0  0  0  0  0  0  0  0  0
    9.2658    1.8004    0.0000 H   0  0  0  0  0  0  0  0  0  0  0  0
    3.2187   -4.4091    0.0000 H   0  0  0  0  0  0  0  0  0  0  0  0
    2.9918   -5.2560    0.0000 H   0  0  0  0  0  0  0  0  0  0  0  0
    3.8387   -5.4830    0.0000 H   0  0  0  0  0  0  0  0  0  0  0  0
    4.9508   -5.4830    0.0000 H   0  0  0  0  0  0  0  0  0  0  0  0
    5.7977   -5.2560    0.0000 H   0  0  0  0  0  0  0  0  0  0  0  0
    5.5708   -4.4091    0.0000 H   0  0  0  0  0  0  0  0  0  0  0  0
    8.1299    4.2125    0.0000 H   0  0  0  0  0  0  0  0  0  0  0  0
    8.5912    4.9582    0.0000 H   0  0  0  0  0  0  0  0  0  0  0  0
    7.8455    5.4195    0.0000 H   0  0  0  0  0  0  0  0  0  0  0  0
    1.6423    1.7638    0.0000 H   0  0  0  0  0  0  0  0  0  0  0  0
    1.7403    0.6944    0.0000 H   0  0  0  0  0  0  0  0  0  0  0  0
 13  1  1  1  0  0  0
 20  1  1  1  0  0  0
  2 12  1  0  0  0  0
  2 34  1  0  0  0  0
  3 20  1  0  0  0  0
  3 27  1  0  0  0  0
  4 17  1  0  0  0  0
  4 36  1  0  0  0  0
  5 26  1  0  0  0  0
  5 39  1  0  0  0  0
 19  6  1  6  0  0  0
  6 84  1  0  0  0  0
 22  7  1  6  0  0  0
  7 85  1  0  0  0  0
  8 24  2  0  0  0  0
  9 28  2  0  0  0  0
 10 39  2  0  0  0  0
 21 11  1  1  0  0  0
 11 41  1  0  0  0  0
 11 42  1  0  0  0  0
 12 13  1  0  0  0  0
 12 14  1  0  0  0  0
 12 23  1  1  0  0  0
 13 16  1  0  0  0  0
 13 45  1  0  0  0  0
 14 15  1  0  0  0  0
 14 46  1  0  0  0  0
 14 47  1  0  0  0  0
 15 24  1  0  0  0  0
 15 29  1  6  0  0  0
 15 48  1  0  0  0  0
 16 28  1  0  0  0  0
 16 30  1  6  0  0  0
 16 49  1  0  0  0  0
 17 18  1  0  0  0  0
 17 19  1  0  0  0  0
 17 50  1  0  0  0  0
 18 24  1  0  0  0  0
 18 32  1  1  0  0  0
 18 51  1  0  0  0  0
 19 26  1  0  0  0  0
 19 33  1  0  0  0  0
 20 22  1  0  0  0  0
 20 52  1  0  0  0  0
 21 22  1  0  0  0  0
 21 25  1  0  0  0  0
 21 53  1  0  0  0  0
 22 54  1  0  0  0  0
 23 55  1  0  0  0  0
 23 56  1  0  0  0  0
 23 57  1  0  0  0  0
 25 27  1  0  0  0  0
 25 58  1  0  0  0  0
 25 59  1  0  0  0  0
 26 35  1  1  0  0  0
 26 60  1  0  0  0  0
 27 38  1  1  0  0  0
 27 61  1  0  0  0  0
 28 31  1  0  0  0  0
 29 62  1  0  0  0  0
 29 63  1  0  0  0  0
 29 64  1  0  0  0  0
 30 65  1  0  0  0  0
 30 66  1  0  0  0  0
 30 67  1  0  0  0  0
 31 39  1  0  0  0  0
 31 40  1  6  0  0  0
 31 68  1  0  0  0  0
 32 69  1  0  0  0  0
 32 70  1  0  0  0  0
 32 71  1  0  0  0  0
 33 72  1  0  0  0  0
 33 73  1  0  0  0  0
 33 74  1  0  0  0  0
 34 37  1  0  0  0  0
 34 75  1  0  0  0  0
 34 76  1  0  0  0  0
 35 43  1  0  0  0  0
 35 77  1  0  0  0  0
 35 78  1  0  0  0  0
 36 37  1  0  0  0  0
 36 79  1  0  0  0  0
 36 80  1  0  0  0  0
 37 44  2  0  0  0  0
 38 81  1  0  0  0  0
 38 82  1  0  0  0  0
 38 83  1  0  0  0  0
 40 86  1  0  0  0  0
 40 87  1  0  0  0  0
 40 88  1  0  0  0  0
 41 89  1  0  0  0  0
 41 90  1  0  0  0  0
 41 91  1  0  0  0  0
 42 92  1  0  0  0  0
 42 93  1  0  0  0  0
 42 94  1  0  0  0  0
 43 95  1  0  0  0  0
 43 96  1  0  0  0  0
 43 97  1  0  0  0  0
 44 98  1  0  0  0  0
 44 99  1  0  0  0  0
M  END
> <PUBCHEM_COMPOUND_CID>
510366
> <PUBCHEM_COMPOUND_CANONICALIZED>
1
> <PUBCHEM_CACTVS_COMPLEXITY>
1070
> <PUBCHEM_CACTVS_HBOND_ACCEPTOR>
11
> <PUBCHEM_CACTVS_HBOND_DONOR>
2
> <PUBCHEM_CACTVS_ROTATABLE_BOND>
4
> <PUBCHEM_CACTVS_SUBSKEYS>
AAADcfB+PAAAAAAAAAAAAAAAAAAAAAAAAAAkAAAAAAAAAAAAAAAAHgAACAAADXzxgAcCCAMABgCIAoDSCAAAAAAAAAAAAAEIAAATFBYIoQAmQAAHIAAXIAHK7PzOAAAAAAAAAAAAAAAAAAAAAAAAAAAAAA==
> <PUBCHEM_IUPAC_OPENEYE_NAME>
(2R,3R,6R,8R,9R,10R,16R,18R)-9-[(2S,3R,4S,6R)-4-(dimethylamino)-3-hydroxy-6-methyl-tetrahydropyran-2-yl]oxy-3-ethyl-2-hydroxy-2,6,8,10,16,18-hexamethyl-13-methylene-4,11,15-trioxabicyclo[8.5.4]nonadecane-5,7,17-trione
> <PUBCHEM_IUPAC_CAS_NAME>
(2R,3R,6R,8R,9R,10R,16R,18R)-9-[[(2S,3R,4S,6R)-4-(dimethylamino)-3-hydroxy-6-methyl-2-oxanyl]oxy]-3-ethyl-2-hydroxy-2,6,8,10,16,18-hexamethyl-13-methylene-4,11,15-trioxabicyclo[8.5.4]nonadecane-5,7,17-trione
> <PUBCHEM_IUPAC_NAME_MARKUP>
(2<I>R</I>,3<I>R</I>,6<I>R</I>,8<I>R</I>,9<I>R</I>,10<I>R</I>,16<I>R</I>,18<I>R</I>)-9-[(2<I>S</I>,3<I>R</I>,4<I>S</I>,6<I>R</I>)-4-(dimethylamino)-3-hydroxy-6-methyloxan-2-yl]oxy-3-ethyl-2-hydroxy-2,6,8,10,16,18-hexamethyl-13-methylidene-4,11,15-trioxabicyclo[8.5.4]nonadecane-5,7,17-trione
> <PUBCHEM_IUPAC_NAME>
(2R,3R,6R,8R,9R,10R,16R,18R)-9-[(2S,3R,4S,6R)-4-(dimethylamino)-3-hydroxy-6-methyloxan-2-yl]oxy-3-ethyl-2-hydroxy-2,6,8,10,16,18-hexamethyl-13-methylidene-4,11,15-trioxabicyclo[8.5.4]nonadecane-5,7,17-trione
> <PUBCHEM_IUPAC_SYSTEMATIC_NAME>
(2R,3R,6R,8R,9R,10R,16R,18R)-9-[(2S,3R,4S,6R)-4-(dimethylamino)-6-methyl-3-oxidanyl-oxan-2-yl]oxy-3-ethyl-2,6,8,10,16,18-hexamethyl-13-methylidene-2-oxidanyl-4,11,15-trioxabicyclo[8.5.4]nonadecane-5,7,17-trione
> <PUBCHEM_IUPAC_TRADITIONAL_NAME>
(2R,3R,6R,8R,9R,10R,16R,18R)-9-[(2S,3R,4S,6R)-4-(dimethylamino)-3-hydroxy-6-methyl-tetrahydropyran-2-yl]oxy-3-ethyl-2-hydroxy-2,6,8,10,16,18-hexamethyl-13-methylene-4,11,15-trioxabicyclo[8.5.4]nonadecane-5,7,17-trione
> <PUBCHEM_IUPAC_INCHI>
InChI=1S/C33H55NO10/c1-12-24-33(9,39)29-20(5)25(35)18(3)14-32(8,41-16-17(2)15-40-29)28(21(6)26(36)22(7)30(38)43-24)44-31-27(37)23(34(10)11)13-19(4)42-31/h18-24,27-29,31,37,39H,2,12-16H2,1,3-11H3/t18-,19-,20+,21+,22-,23+,24-,27-,28-,29?,31+,32-,33-/m1/s1
> <PUBCHEM_IUPAC_INCHIKEY>
JPIMQQSZNYYTQT-NQGFMPBTSA-N
> <PUBCHEM_XLOGP3_AA>
2.5
> <PUBCHEM_EXACT_MASS>
625.38259695
> <PUBCHEM_MOLECULAR_FORMULA>
C33H55NO10
> <PUBCHEM_MOLECULAR_WEIGHT>
625.8
> <PUBCHEM_OPENEYE_CAN_SMILES>
CCC1C(C2C(C(=O)C(CC(C(C(C(=O)C(C(=O)O1)C)C)OC3C(C(CC(O3)C)N(C)C)O)(OCC(=C)CO2)C)C)C)(C)O
> <PUBCHEM_OPENEYE_ISO_SMILES>
CC[C@@H]1[C@@](C2[C@H](C(=O)[C@@H](C[C@]([C@@H]([C@H](C(=O)[C@H](C(=O)O1)C)C)O[C@H]3[C@@H]([C@H](C[C@H](O3)C)N(C)C)O)(OCC(=C)CO2)C)C)C)(C)O
> <PUBCHEM_CACTVS_TPSA>
141
> <PUBCHEM_MONOISOTOPIC_WEIGHT>
625.38259695
> <PUBCHEM_TOTAL_CHARGE>
0
> <PUBCHEM_HEAVY_ATOM_COUNT>
44
> <PUBCHEM_ATOM_DEF_STEREO_COUNT>
12
> <PUBCHEM_ATOM_UDEF_STEREO_COUNT>
1
> <PUBCHEM_BOND_DEF_STEREO_COUNT>
0
> <PUBCHEM_BOND_UDEF_STEREO_COUNT>
0
> <PUBCHEM_ISOTOPIC_ATOM_COUNT>
0
> <PUBCHEM_COMPONENT_COUNT>
1
> <PUBCHEM_CACTVS_TAUTO_COUNT>
-1
> <PUBCHEM_COORDINATE_TYPE>
1
5
255
> <PUBCHEM_BONDANNOTATIONS>
13  1  5
20  1  5
21  11  5
12  23  5
15  29  6
16  30  6
18  32  5
26  35  5
27  38  5
31  40  6
17  4  3
19  6  6
22  7  6
$$$$
