510397
  -OEChem-10302200282D
 89 93  0     1  0  0  0  0  0999 V2000
    6.3301    1.4569    0.0000 O   0  0  0  0  0  0  0  0  0  0  0  0
    9.4282    4.8229    0.0000 O   0  0  0  0  0  0  0  0  0  0  0  0
    9.9282    3.9569    0.0000 O   0  0  0  0  0  0  0  0  0  0  0  0
    7.2108    6.0431    0.0000 O   0  0  0  0  0  0  0  0  0  0  0  0
    4.5981    1.4569    0.0000 O   0  0  0  0  0  0  0  0  0  0  0  0
    6.3301   -0.5431    0.0000 O   0  0  0  0  0  0  0  0  0  0  0  0
    4.5981   -1.5431    0.0000 O   0  0  0  0  0  0  0  0  0  0  0  0
    2.8660   -0.5431    0.0000 O   0  0  0  0  0  0  0  0  0  0  0  0
    2.8660   -1.5431    0.0000 O   0  0  0  0  0  0  0  0  0  0  0  0
    7.1962    2.9569    0.0000 C   0  0  3  0  0  0  0  0  0  0  0  0
    8.0622    3.4569    0.0000 C   0  0  3  0  0  0  0  0  0  0  0  0
    7.8543    4.4350    0.0000 C   0  0  3  0  0  0  0  0  0  0  0  0
    6.4530    3.6260    0.0000 C   0  0  1  0  0  0  0  0  0  0  0  0
    6.8597    4.5396    0.0000 C   0  0  1  0  0  0  0  0  0  0  0  0
    7.4054    1.9851    0.0000 C   0  0  3  0  0  0  0  0  0  0  0  0
    8.3371    3.0805    0.0000 C   0  0  0  0  0  0  0  0  0  0  0  0
    5.4646    3.7325    0.0000 C   0  0  1  0  0  0  0  0  0  0  0  0
    8.7992    2.7898    0.0000 C   0  0  0  0  0  0  0  0  0  0  0  0
    6.1193    5.2028    0.0000 C   0  0  0  0  0  0  0  0  0  0  0  0
    6.3301    2.4569    0.0000 C   0  0  0  0  0  0  0  0  0  0  0  0
    8.3941    1.8820    0.0000 C   0  0  0  0  0  0  0  0  0  0  0  0
    5.2588    4.7050    0.0000 C   0  0  0  0  0  0  0  0  0  0  0  0
    8.9282    3.9569    0.0000 C   0  0  0  0  0  0  0  0  0  0  0  0
    7.9968    5.4248    0.0000 C   0  0  0  0  0  0  0  0  0  0  0  0
    9.7497    2.4791    0.0000 C   0  0  0  0  0  0  0  0  0  0  0  0
    4.7942    2.9905    0.0000 C   0  0  0  0  0  0  0  0  0  0  0  0
    9.9559    1.5006    0.0000 C   0  0  0  0  0  0  0  0  0  0  0  0
   10.4940    3.1470    0.0000 C   0  0  0  0  0  0  0  0  0  0  0  0
    5.4641    0.9569    0.0000 C   0  0  2  0  0  0  0  0  0  0  0  0
    5.4641   -0.0431    0.0000 C   0  0  2  0  0  0  0  0  0  0  0  0
    4.5981   -0.5431    0.0000 C   0  0  1  0  0  0  0  0  0  0  0  0
    3.7320    0.9569    0.0000 C   0  0  1  0  0  0  0  0  0  0  0  0
    3.7320   -0.0431    0.0000 C   0  0  1  0  0  0  0  0  0  0  0  0
    2.8660    1.4569    0.0000 C   0  0  0  0  0  0  0  0  0  0  0  0
    3.7320   -2.0431    0.0000 C   0  0  0  0  0  0  0  0  0  0  0  0
    2.0000   -0.0431    0.0000 C   0  0  0  0  0  0  0  0  0  0  0  0
    3.7320   -3.0431    0.0000 C   0  0  0  0  0  0  0  0  0  0  0  0
    2.8660   -3.5431    0.0000 C   0  0  0  0  0  0  0  0  0  0  0  0
    2.8660   -4.5431    0.0000 C   0  0  0  0  0  0  0  0  0  0  0  0
    2.0000   -5.0431    0.0000 C   0  0  0  0  0  0  0  0  0  0  0  0
    2.0000   -6.0431    0.0000 C   0  0  0  0  0  0  0  0  0  0  0  0
    6.1073    2.8495    0.0000 H   0  0  0  0  0  0  0  0  0  0  0  0
    7.2055    5.3161    0.0000 H   0  0  0  0  0  0  0  0  0  0  0  0
    6.9913    1.5236    0.0000 H   0  0  0  0  0  0  0  0  0  0  0  0
    8.7324    2.6029    0.0000 H   0  0  0  0  0  0  0  0  0  0  0  0
    8.8760    3.3869    0.0000 H   0  0  0  0  0  0  0  0  0  0  0  0
    5.6856    3.1532    0.0000 H   0  0  0  0  0  0  0  0  0  0  0  0
    6.5792    5.6186    0.0000 H   0  0  0  0  0  0  0  0  0  0  0  0
    5.7541    5.7039    0.0000 H   0  0  0  0  0  0  0  0  0  0  0  0
    6.1181    3.0395    0.0000 H   0  0  0  0  0  0  0  0  0  0  0  0
    5.7196    2.3492    0.0000 H   0  0  0  0  0  0  0  0  0  0  0  0
    8.7041    1.3451    0.0000 H   0  0  0  0  0  0  0  0  0  0  0  0
    5.0065    5.2714    0.0000 H   0  0  0  0  0  0  0  0  0  0  0  0
    4.6691    4.5136    0.0000 H   0  0  0  0  0  0  0  0  0  0  0  0
    8.5724    5.6552    0.0000 H   0  0  0  0  0  0  0  0  0  0  0  0
    9.6219    3.0858    0.0000 H   0  0  0  0  0  0  0  0  0  0  0  0
    4.3342    3.4062    0.0000 H   0  0  0  0  0  0  0  0  0  0  0  0
    4.3786    2.5305    0.0000 H   0  0  0  0  0  0  0  0  0  0  0  0
    5.2543    2.5748    0.0000 H   0  0  0  0  0  0  0  0  0  0  0  0
    9.3493    1.3728    0.0000 H   0  0  0  0  0  0  0  0  0  0  0  0
   10.0838    0.8940    0.0000 H   0  0  0  0  0  0  0  0  0  0  0  0
   10.5626    1.6285    0.0000 H   0  0  0  0  0  0  0  0  0  0  0  0
   10.9081    2.6855    0.0000 H   0  0  0  0  0  0  0  0  0  0  0  0
   10.9555    3.5610    0.0000 H   0  0  0  0  0  0  0  0  0  0  0  0
   10.0800    3.6084    0.0000 H   0  0  0  0  0  0  0  0  0  0  0  0
   10.0482    4.8229    0.0000 H   0  0  0  0  0  0  0  0  0  0  0  0
    5.4641    1.5769    0.0000 H   0  0  0  0  0  0  0  0  0  0  0  0
    5.4641   -0.6631    0.0000 H   0  0  0  0  0  0  0  0  0  0  0  0
    4.0611   -0.8531    0.0000 H   0  0  0  0  0  0  0  0  0  0  0  0
    3.7320    1.5769    0.0000 H   0  0  0  0  0  0  0  0  0  0  0  0
    3.7320   -0.6631    0.0000 H   0  0  0  0  0  0  0  0  0  0  0  0
    6.8671   -0.2331    0.0000 H   0  0  0  0  0  0  0  0  0  0  0  0
    3.1760    1.9938    0.0000 H   0  0  0  0  0  0  0  0  0  0  0  0
    2.3291    1.7669    0.0000 H   0  0  0  0  0  0  0  0  0  0  0  0
    2.5560    0.9199    0.0000 H   0  0  0  0  0  0  0  0  0  0  0  0
    2.3100    0.4938    0.0000 H   0  0  0  0  0  0  0  0  0  0  0  0
    1.4631    0.2669    0.0000 H   0  0  0  0  0  0  0  0  0  0  0  0
    1.6900   -0.5801    0.0000 H   0  0  0  0  0  0  0  0  0  0  0  0
    3.9441   -3.6257    0.0000 H   0  0  0  0  0  0  0  0  0  0  0  0
    4.3426   -2.9355    0.0000 H   0  0  0  0  0  0  0  0  0  0  0  0
    2.6540   -2.9605    0.0000 H   0  0  0  0  0  0  0  0  0  0  0  0
    2.2554   -3.6508    0.0000 H   0  0  0  0  0  0  0  0  0  0  0  0
    3.0781   -5.1257    0.0000 H   0  0  0  0  0  0  0  0  0  0  0  0
    3.4766   -4.4355    0.0000 H   0  0  0  0  0  0  0  0  0  0  0  0
    1.7880   -4.4605    0.0000 H   0  0  0  0  0  0  0  0  0  0  0  0
    1.3894   -5.1508    0.0000 H   0  0  0  0  0  0  0  0  0  0  0  0
    1.3800   -6.0431    0.0000 H   0  0  0  0  0  0  0  0  0  0  0  0
    2.0000   -6.6631    0.0000 H   0  0  0  0  0  0  0  0  0  0  0  0
    2.6200   -6.0431    0.0000 H   0  0  0  0  0  0  0  0  0  0  0  0
  1 20  1  0  0  0  0
 29  1  1  1  0  0  0
  2 23  1  0  0  0  0
  2 66  1  0  0  0  0
  3 23  2  0  0  0  0
  4 24  2  0  0  0  0
  5 29  1  0  0  0  0
  5 32  1  0  0  0  0
 30  6  1  1  0  0  0
  6 72  1  0  0  0  0
 31  7  1  6  0  0  0
  7 35  1  0  0  0  0
 33  8  1  6  0  0  0
  8 36  1  0  0  0  0
  9 35  2  0  0  0  0
 10 11  1  0  0  0  0
 10 13  1  0  0  0  0
 10 15  1  0  0  0  0
 10 20  1  0  0  0  0
 11 12  1  0  0  0  0
 11 18  1  0  0  0  0
 11 23  1  0  0  0  0
 12 14  1  0  0  0  0
 12 16  1  0  0  0  0
 12 24  1  0  0  0  0
 13 14  1  0  0  0  0
 13 17  1  0  0  0  0
 13 42  1  1  0  0  0
 14 19  1  0  0  0  0
 14 43  1  6  0  0  0
 15 16  1  0  0  0  0
 15 21  1  0  0  0  0
 15 44  1  0  0  0  0
 16 45  1  0  0  0  0
 16 46  1  0  0  0  0
 17 22  1  0  0  0  0
 17 26  1  6  0  0  0
 17 47  1  0  0  0  0
 18 21  2  0  0  0  0
 18 25  1  0  0  0  0
 19 22  1  0  0  0  0
 19 48  1  0  0  0  0
 19 49  1  0  0  0  0
 20 50  1  0  0  0  0
 20 51  1  0  0  0  0
 21 52  1  0  0  0  0
 22 53  1  0  0  0  0
 22 54  1  0  0  0  0
 24 55  1  0  0  0  0
 25 27  1  0  0  0  0
 25 28  1  0  0  0  0
 25 56  1  0  0  0  0
 26 57  1  0  0  0  0
 26 58  1  0  0  0  0
 26 59  1  0  0  0  0
 27 60  1  0  0  0  0
 27 61  1  0  0  0  0
 27 62  1  0  0  0  0
 28 63  1  0  0  0  0
 28 64  1  0  0  0  0
 28 65  1  0  0  0  0
 29 30  1  0  0  0  0
 29 67  1  0  0  0  0
 30 31  1  0  0  0  0
 30 68  1  0  0  0  0
 31 33  1  0  0  0  0
 31 69  1  0  0  0  0
 32 33  1  0  0  0  0
 32 34  1  1  0  0  0
 32 70  1  0  0  0  0
 33 71  1  0  0  0  0
 34 73  1  0  0  0  0
 34 74  1  0  0  0  0
 34 75  1  0  0  0  0
 35 37  1  0  0  0  0
 36 76  1  0  0  0  0
 36 77  1  0  0  0  0
 36 78  1  0  0  0  0
 37 38  1  0  0  0  0
 37 79  1  0  0  0  0
 37 80  1  0  0  0  0
 38 39  1  0  0  0  0
 38 81  1  0  0  0  0
 38 82  1  0  0  0  0
 39 40  1  0  0  0  0
 39 83  1  0  0  0  0
 39 84  1  0  0  0  0
 40 41  1  0  0  0  0
 40 85  1  0  0  0  0
 40 86  1  0  0  0  0
 41 87  1  0  0  0  0
 41 88  1  0  0  0  0
 41 89  1  0  0  0  0
M  END
> <PUBCHEM_COMPOUND_CID>
510397
> <PUBCHEM_COMPOUND_CANONICALIZED>
1
> <PUBCHEM_CACTVS_COMPLEXITY>
1070
> <PUBCHEM_CACTVS_HBOND_ACCEPTOR>
9
> <PUBCHEM_CACTVS_HBOND_DONOR>
2
> <PUBCHEM_CACTVS_ROTATABLE_BOND>
13
> <PUBCHEM_CACTVS_SUBSKEYS>
AAADcfB8PAAAAAAAAAAAAAAAAAAAAYMGCAA0QIAAAAAYAAAAAAAAGgAACAAADxSwgAMCCAAABgCIAijSiAAAAAAgAAAACAEAAAgREBIAAQAiQAAFwAAPAAPL7PyPgAAAAAAAAACAAAQAACAAAQAACAAAAA==
> <PUBCHEM_IUPAC_OPENEYE_NAME>
(3R,4R,7R)-8-formyl-2-[[(2R,3S,4S,5R,6R)-4-hexanoyloxy-3-hydroxy-5-methoxy-6-methyl-tetrahydropyran-2-yl]oxymethyl]-12-isopropyl-4-methyl-tetracyclo[6.4.0.02,10.03,7]dodec-11-ene-1-carboxylic acid
> <PUBCHEM_IUPAC_CAS_NAME>
(3R,4R,7R)-8-formyl-2-[[(2R,3S,4S,5R,6R)-3-hydroxy-5-methoxy-6-methyl-4-(1-oxohexoxy)-2-oxanyl]oxymethyl]-4-methyl-12-propan-2-yl-1-tetracyclo[6.4.0.02,10.03,7]dodec-11-enecarboxylic acid
> <PUBCHEM_IUPAC_NAME_MARKUP>
(3<I>R</I>,4<I>R</I>,7<I>R</I>)-8-formyl-2-[[(2<I>R</I>,3<I>S</I>,4<I>S</I>,5<I>R</I>,6<I>R</I>)-4-hexanoyloxy-3-hydroxy-5-methoxy-6-methyloxan-2-yl]oxymethyl]-4-methyl-12-propan-2-yltetracyclo[6.4.0.0<SUP>2,10</SUP>.0<SUP>3,7</SUP>]dodec-11-ene-1-carboxylic acid
> <PUBCHEM_IUPAC_NAME>
(3R,4R,7R)-8-formyl-2-[[(2R,3S,4S,5R,6R)-4-hexanoyloxy-3-hydroxy-5-methoxy-6-methyloxan-2-yl]oxymethyl]-4-methyl-12-propan-2-yltetracyclo[6.4.0.02,10.03,7]dodec-11-ene-1-carboxylic acid
> <PUBCHEM_IUPAC_SYSTEMATIC_NAME>
(3R,4R,7R)-2-[[(2R,3S,4S,5R,6R)-4-hexanoyloxy-5-methoxy-6-methyl-3-oxidanyl-oxan-2-yl]oxymethyl]-8-methanoyl-4-methyl-12-propan-2-yl-tetracyclo[6.4.0.02,10.03,7]dodec-11-ene-1-carboxylic acid
> <PUBCHEM_IUPAC_TRADITIONAL_NAME>
(3R,4R,7R)-2-[[(2R,3S,4S,5R,6R)-4-caproyloxy-3-hydroxy-5-methoxy-6-methyl-tetrahydropyran-2-yl]oxymethyl]-8-formyl-12-isopropyl-4-methyl-tetracyclo[6.4.0.02,10.03,7]dodec-11-ene-1-carboxylic acid
> <PUBCHEM_IUPAC_INCHI>
InChI=1S/C32H48O9/c1-7-8-9-10-23(34)41-27-25(35)28(40-19(5)26(27)38-6)39-16-31-20-13-22(17(2)3)32(31,29(36)37)30(14-20,15-33)21-12-11-18(4)24(21)31/h13,15,17-21,24-28,35H,7-12,14,16H2,1-6H3,(H,36,37)/t18-,19-,20?,21-,24-,25+,26-,27+,28-,30?,31?,32?/m1/s1
> <PUBCHEM_IUPAC_INCHIKEY>
KZWKTQRZNUUPLX-LYHVYZDJSA-N
> <PUBCHEM_XLOGP3_AA>
3.6
> <PUBCHEM_EXACT_MASS>
576.32983310
> <PUBCHEM_MOLECULAR_FORMULA>
C32H48O9
> <PUBCHEM_MOLECULAR_WEIGHT>
576.7
> <PUBCHEM_OPENEYE_CAN_SMILES>
CCCCCC(=O)OC1C(C(OC(C1OC)C)OCC23C4CC(C2(C(=C4)C(C)C)C(=O)O)(C5C3C(CC5)C)C=O)O
> <PUBCHEM_OPENEYE_ISO_SMILES>
CCCCCC(=O)O[C@H]1[C@@H]([C@@H](O[C@@H]([C@H]1OC)C)OCC23[C@@H]4[C@@H](CC[C@H]4C5(C2(C(=CC3C5)C(C)C)C(=O)O)C=O)C)O
> <PUBCHEM_CACTVS_TPSA>
129
> <PUBCHEM_MONOISOTOPIC_WEIGHT>
576.32983310
> <PUBCHEM_TOTAL_CHARGE>
0
> <PUBCHEM_HEAVY_ATOM_COUNT>
41
> <PUBCHEM_ATOM_DEF_STEREO_COUNT>
8
> <PUBCHEM_ATOM_UDEF_STEREO_COUNT>
4
> <PUBCHEM_BOND_DEF_STEREO_COUNT>
0
> <PUBCHEM_BOND_UDEF_STEREO_COUNT>
0
> <PUBCHEM_ISOTOPIC_ATOM_COUNT>
0
> <PUBCHEM_COMPONENT_COUNT>
1
> <PUBCHEM_CACTVS_TAUTO_COUNT>
-1
> <PUBCHEM_COORDINATE_TYPE>
1
5
255
> <PUBCHEM_BONDANNOTATIONS>
29  1  5
10  20  3
11  23  3
12  24  3
13  42  5
14  43  6
15  16  3
17  26  6
32  34  5
30  6  5
31  7  6
33  8  6
$$$$
