510398
  -OEChem-10302200282D
 95 99  0     1  0  0  0  0  0999 V2000
    7.1962    2.2069    0.0000 O   0  0  0  0  0  0  0  0  0  0  0  0
   10.2942    5.5729    0.0000 O   0  0  0  0  0  0  0  0  0  0  0  0
   10.7942    4.7069    0.0000 O   0  0  0  0  0  0  0  0  0  0  0  0
    8.0768    6.7931    0.0000 O   0  0  0  0  0  0  0  0  0  0  0  0
    5.4641    2.2069    0.0000 O   0  0  0  0  0  0  0  0  0  0  0  0
    7.1962    0.2069    0.0000 O   0  0  0  0  0  0  0  0  0  0  0  0
    5.4641   -0.7931    0.0000 O   0  0  0  0  0  0  0  0  0  0  0  0
    3.7320    0.2069    0.0000 O   0  0  0  0  0  0  0  0  0  0  0  0
    3.7320   -0.7931    0.0000 O   0  0  0  0  0  0  0  0  0  0  0  0
    8.0622    3.7069    0.0000 C   0  0  3  0  0  0  0  0  0  0  0  0
    8.9282    4.2069    0.0000 C   0  0  3  0  0  0  0  0  0  0  0  0
    8.7203    5.1850    0.0000 C   0  0  3  0  0  0  0  0  0  0  0  0
    7.3190    4.3760    0.0000 C   0  0  1  0  0  0  0  0  0  0  0  0
    7.7258    5.2896    0.0000 C   0  0  1  0  0  0  0  0  0  0  0  0
    8.2714    2.7351    0.0000 C   0  0  3  0  0  0  0  0  0  0  0  0
    9.2031    3.8305    0.0000 C   0  0  0  0  0  0  0  0  0  0  0  0
    6.3307    4.4825    0.0000 C   0  0  1  0  0  0  0  0  0  0  0  0
    9.6652    3.5398    0.0000 C   0  0  0  0  0  0  0  0  0  0  0  0
    6.9853    5.9528    0.0000 C   0  0  0  0  0  0  0  0  0  0  0  0
    7.1962    3.2069    0.0000 C   0  0  0  0  0  0  0  0  0  0  0  0
    9.2601    2.6320    0.0000 C   0  0  0  0  0  0  0  0  0  0  0  0
    6.1248    5.4550    0.0000 C   0  0  0  0  0  0  0  0  0  0  0  0
    9.7942    4.7069    0.0000 C   0  0  0  0  0  0  0  0  0  0  0  0
    8.8628    6.1748    0.0000 C   0  0  0  0  0  0  0  0  0  0  0  0
   10.6157    3.2291    0.0000 C   0  0  0  0  0  0  0  0  0  0  0  0
    5.6603    3.7405    0.0000 C   0  0  0  0  0  0  0  0  0  0  0  0
   10.8220    2.2506    0.0000 C   0  0  0  0  0  0  0  0  0  0  0  0
   11.3600    3.8970    0.0000 C   0  0  0  0  0  0  0  0  0  0  0  0
    6.3301    1.7069    0.0000 C   0  0  2  0  0  0  0  0  0  0  0  0
    6.3301    0.7069    0.0000 C   0  0  2  0  0  0  0  0  0  0  0  0
    5.4641    0.2069    0.0000 C   0  0  1  0  0  0  0  0  0  0  0  0
    4.5981    1.7069    0.0000 C   0  0  1  0  0  0  0  0  0  0  0  0
    4.5981    0.7069    0.0000 C   0  0  1  0  0  0  0  0  0  0  0  0
    3.7320    2.2069    0.0000 C   0  0  0  0  0  0  0  0  0  0  0  0
    4.5981   -1.2931    0.0000 C   0  0  0  0  0  0  0  0  0  0  0  0
    2.8660    0.7069    0.0000 C   0  0  0  0  0  0  0  0  0  0  0  0
    4.5981   -2.2931    0.0000 C   0  0  0  0  0  0  0  0  0  0  0  0
    3.7320   -2.7931    0.0000 C   0  0  0  0  0  0  0  0  0  0  0  0
    3.7320   -3.7931    0.0000 C   0  0  0  0  0  0  0  0  0  0  0  0
    2.8660   -4.2931    0.0000 C   0  0  0  0  0  0  0  0  0  0  0  0
    2.8660   -5.2931    0.0000 C   0  0  0  0  0  0  0  0  0  0  0  0
    2.0000   -5.7931    0.0000 C   0  0  0  0  0  0  0  0  0  0  0  0
    2.0000   -6.7931    0.0000 C   0  0  0  0  0  0  0  0  0  0  0  0
    6.9733    3.5995    0.0000 H   0  0  0  0  0  0  0  0  0  0  0  0
    8.0715    6.0661    0.0000 H   0  0  0  0  0  0  0  0  0  0  0  0
    7.8573    2.2736    0.0000 H   0  0  0  0  0  0  0  0  0  0  0  0
    9.5984    3.3529    0.0000 H   0  0  0  0  0  0  0  0  0  0  0  0
    9.7421    4.1369    0.0000 H   0  0  0  0  0  0  0  0  0  0  0  0
    5.7320    4.6437    0.0000 H   0  0  0  0  0  0  0  0  0  0  0  0
    7.4452    6.3686    0.0000 H   0  0  0  0  0  0  0  0  0  0  0  0
    6.6202    6.4539    0.0000 H   0  0  0  0  0  0  0  0  0  0  0  0
    6.9841    3.7895    0.0000 H   0  0  0  0  0  0  0  0  0  0  0  0
    6.5856    3.0992    0.0000 H   0  0  0  0  0  0  0  0  0  0  0  0
    9.5701    2.0951    0.0000 H   0  0  0  0  0  0  0  0  0  0  0  0
    5.8725    6.0214    0.0000 H   0  0  0  0  0  0  0  0  0  0  0  0
    5.5351    5.2636    0.0000 H   0  0  0  0  0  0  0  0  0  0  0  0
    9.4384    6.4052    0.0000 H   0  0  0  0  0  0  0  0  0  0  0  0
   11.2051    3.0365    0.0000 H   0  0  0  0  0  0  0  0  0  0  0  0
    5.2002    4.1562    0.0000 H   0  0  0  0  0  0  0  0  0  0  0  0
    5.2446    3.2805    0.0000 H   0  0  0  0  0  0  0  0  0  0  0  0
    6.1203    3.3248    0.0000 H   0  0  0  0  0  0  0  0  0  0  0  0
   10.2153    2.1228    0.0000 H   0  0  0  0  0  0  0  0  0  0  0  0
   10.9498    1.6440    0.0000 H   0  0  0  0  0  0  0  0  0  0  0  0
   11.4286    2.3785    0.0000 H   0  0  0  0  0  0  0  0  0  0  0  0
   11.7741    3.4355    0.0000 H   0  0  0  0  0  0  0  0  0  0  0  0
   11.8215    4.3110    0.0000 H   0  0  0  0  0  0  0  0  0  0  0  0
   10.9460    4.3585    0.0000 H   0  0  0  0  0  0  0  0  0  0  0  0
   10.9142    5.5729    0.0000 H   0  0  0  0  0  0  0  0  0  0  0  0
    6.3301    2.3269    0.0000 H   0  0  0  0  0  0  0  0  0  0  0  0
    6.3301    0.0869    0.0000 H   0  0  0  0  0  0  0  0  0  0  0  0
    4.9272   -0.1031    0.0000 H   0  0  0  0  0  0  0  0  0  0  0  0
    4.5981    2.3269    0.0000 H   0  0  0  0  0  0  0  0  0  0  0  0
    4.5981    0.0869    0.0000 H   0  0  0  0  0  0  0  0  0  0  0  0
    7.7331    0.5169    0.0000 H   0  0  0  0  0  0  0  0  0  0  0  0
    4.0420    2.7438    0.0000 H   0  0  0  0  0  0  0  0  0  0  0  0
    3.1951    2.5169    0.0000 H   0  0  0  0  0  0  0  0  0  0  0  0
    3.4220    1.6700    0.0000 H   0  0  0  0  0  0  0  0  0  0  0  0
    3.1760    1.2438    0.0000 H   0  0  0  0  0  0  0  0  0  0  0  0
    2.3291    1.0169    0.0000 H   0  0  0  0  0  0  0  0  0  0  0  0
    2.5560    0.1699    0.0000 H   0  0  0  0  0  0  0  0  0  0  0  0
    4.8101   -2.8757    0.0000 H   0  0  0  0  0  0  0  0  0  0  0  0
    5.2087   -2.1855    0.0000 H   0  0  0  0  0  0  0  0  0  0  0  0
    3.5200   -2.2105    0.0000 H   0  0  0  0  0  0  0  0  0  0  0  0
    3.1215   -2.9008    0.0000 H   0  0  0  0  0  0  0  0  0  0  0  0
    3.9441   -4.3757    0.0000 H   0  0  0  0  0  0  0  0  0  0  0  0
    4.3426   -3.6855    0.0000 H   0  0  0  0  0  0  0  0  0  0  0  0
    2.6540   -3.7105    0.0000 H   0  0  0  0  0  0  0  0  0  0  0  0
    2.2554   -4.4008    0.0000 H   0  0  0  0  0  0  0  0  0  0  0  0
    3.0781   -5.8757    0.0000 H   0  0  0  0  0  0  0  0  0  0  0  0
    3.4766   -5.1855    0.0000 H   0  0  0  0  0  0  0  0  0  0  0  0
    1.7880   -5.2105    0.0000 H   0  0  0  0  0  0  0  0  0  0  0  0
    1.3894   -5.9008    0.0000 H   0  0  0  0  0  0  0  0  0  0  0  0
    1.3800   -6.7931    0.0000 H   0  0  0  0  0  0  0  0  0  0  0  0
    2.0000   -7.4131    0.0000 H   0  0  0  0  0  0  0  0  0  0  0  0
    2.6200   -6.7931    0.0000 H   0  0  0  0  0  0  0  0  0  0  0  0
  1 20  1  0  0  0  0
 29  1  1  1  0  0  0
  2 23  1  0  0  0  0
  2 68  1  0  0  0  0
  3 23  2  0  0  0  0
  4 24  2  0  0  0  0
  5 29  1  0  0  0  0
  5 32  1  0  0  0  0
 30  6  1  1  0  0  0
  6 74  1  0  0  0  0
 31  7  1  6  0  0  0
  7 35  1  0  0  0  0
 33  8  1  6  0  0  0
  8 36  1  0  0  0  0
  9 35  2  0  0  0  0
 10 11  1  0  0  0  0
 10 13  1  0  0  0  0
 10 15  1  0  0  0  0
 10 20  1  0  0  0  0
 11 12  1  0  0  0  0
 11 18  1  0  0  0  0
 11 23  1  0  0  0  0
 12 14  1  0  0  0  0
 12 16  1  0  0  0  0
 12 24  1  0  0  0  0
 13 14  1  0  0  0  0
 13 17  1  0  0  0  0
 13 44  1  1  0  0  0
 14 19  1  0  0  0  0
 14 45  1  6  0  0  0
 15 16  1  0  0  0  0
 15 21  1  0  0  0  0
 15 46  1  0  0  0  0
 16 47  1  0  0  0  0
 16 48  1  0  0  0  0
 17 22  1  0  0  0  0
 17 26  1  6  0  0  0
 17 49  1  0  0  0  0
 18 21  2  0  0  0  0
 18 25  1  0  0  0  0
 19 22  1  0  0  0  0
 19 50  1  0  0  0  0
 19 51  1  0  0  0  0
 20 52  1  0  0  0  0
 20 53  1  0  0  0  0
 21 54  1  0  0  0  0
 22 55  1  0  0  0  0
 22 56  1  0  0  0  0
 24 57  1  0  0  0  0
 25 27  1  0  0  0  0
 25 28  1  0  0  0  0
 25 58  1  0  0  0  0
 26 59  1  0  0  0  0
 26 60  1  0  0  0  0
 26 61  1  0  0  0  0
 27 62  1  0  0  0  0
 27 63  1  0  0  0  0
 27 64  1  0  0  0  0
 28 65  1  0  0  0  0
 28 66  1  0  0  0  0
 28 67  1  0  0  0  0
 29 30  1  0  0  0  0
 29 69  1  0  0  0  0
 30 31  1  0  0  0  0
 30 70  1  0  0  0  0
 31 33  1  0  0  0  0
 31 71  1  0  0  0  0
 32 33  1  0  0  0  0
 32 34  1  1  0  0  0
 32 72  1  0  0  0  0
 33 73  1  0  0  0  0
 34 75  1  0  0  0  0
 34 76  1  0  0  0  0
 34 77  1  0  0  0  0
 35 37  1  0  0  0  0
 36 78  1  0  0  0  0
 36 79  1  0  0  0  0
 36 80  1  0  0  0  0
 37 38  1  0  0  0  0
 37 81  1  0  0  0  0
 37 82  1  0  0  0  0
 38 39  1  0  0  0  0
 38 83  1  0  0  0  0
 38 84  1  0  0  0  0
 39 40  1  0  0  0  0
 39 85  1  0  0  0  0
 39 86  1  0  0  0  0
 40 41  1  0  0  0  0
 40 87  1  0  0  0  0
 40 88  1  0  0  0  0
 41 42  1  0  0  0  0
 41 89  1  0  0  0  0
 41 90  1  0  0  0  0
 42 43  1  0  0  0  0
 42 91  1  0  0  0  0
 42 92  1  0  0  0  0
 43 93  1  0  0  0  0
 43 94  1  0  0  0  0
 43 95  1  0  0  0  0
M  END
> <PUBCHEM_COMPOUND_CID>
510398
> <PUBCHEM_COMPOUND_CANONICALIZED>
1
> <PUBCHEM_CACTVS_COMPLEXITY>
1100
> <PUBCHEM_CACTVS_HBOND_ACCEPTOR>
9
> <PUBCHEM_CACTVS_HBOND_DONOR>
2
> <PUBCHEM_CACTVS_ROTATABLE_BOND>
15
> <PUBCHEM_CACTVS_SUBSKEYS>
AAADcfB8PAAAAAAAAAAAAAAAAAAAAYMGCAA0QIAAAAAYAAAAAAAAGgAACAAADxSwgAMCCAAABgCIAijSiAAAAAAgAAAACAEAAAgREBIAAQAiQAAFwAAPAAPL7PyPgAAAAAAAAACAAAQAACAAAQAACAAAAA==
> <PUBCHEM_IUPAC_OPENEYE_NAME>
(3R,4R,7R)-8-formyl-2-[[(2R,3S,4S,5R,6R)-3-hydroxy-5-methoxy-6-methyl-4-octanoyloxy-tetrahydropyran-2-yl]oxymethyl]-12-isopropyl-4-methyl-tetracyclo[6.4.0.02,10.03,7]dodec-11-ene-1-carboxylic acid
> <PUBCHEM_IUPAC_CAS_NAME>
(3R,4R,7R)-8-formyl-2-[[(2R,3S,4S,5R,6R)-3-hydroxy-5-methoxy-6-methyl-4-(1-oxooctoxy)-2-oxanyl]oxymethyl]-4-methyl-12-propan-2-yl-1-tetracyclo[6.4.0.02,10.03,7]dodec-11-enecarboxylic acid
> <PUBCHEM_IUPAC_NAME_MARKUP>
(3<I>R</I>,4<I>R</I>,7<I>R</I>)-8-formyl-2-[[(2<I>R</I>,3<I>S</I>,4<I>S</I>,5<I>R</I>,6<I>R</I>)-3-hydroxy-5-methoxy-6-methyl-4-octanoyloxyoxan-2-yl]oxymethyl]-4-methyl-12-propan-2-yltetracyclo[6.4.0.0<SUP>2,10</SUP>.0<SUP>3,7</SUP>]dodec-11-ene-1-carboxylic acid
> <PUBCHEM_IUPAC_NAME>
(3R,4R,7R)-8-formyl-2-[[(2R,3S,4S,5R,6R)-3-hydroxy-5-methoxy-6-methyl-4-octanoyloxyoxan-2-yl]oxymethyl]-4-methyl-12-propan-2-yltetracyclo[6.4.0.02,10.03,7]dodec-11-ene-1-carboxylic acid
> <PUBCHEM_IUPAC_SYSTEMATIC_NAME>
(3R,4R,7R)-8-methanoyl-2-[[(2R,3S,4S,5R,6R)-5-methoxy-6-methyl-4-octanoyloxy-3-oxidanyl-oxan-2-yl]oxymethyl]-4-methyl-12-propan-2-yl-tetracyclo[6.4.0.02,10.03,7]dodec-11-ene-1-carboxylic acid
> <PUBCHEM_IUPAC_TRADITIONAL_NAME>
(3R,4R,7R)-2-[[(2R,3S,4S,5R,6R)-4-caprylyloxy-3-hydroxy-5-methoxy-6-methyl-tetrahydropyran-2-yl]oxymethyl]-8-formyl-12-isopropyl-4-methyl-tetracyclo[6.4.0.02,10.03,7]dodec-11-ene-1-carboxylic acid
> <PUBCHEM_IUPAC_INCHI>
InChI=1S/C34H52O9/c1-7-8-9-10-11-12-25(36)43-29-27(37)30(42-21(5)28(29)40-6)41-18-33-22-15-24(19(2)3)34(33,31(38)39)32(16-22,17-35)23-14-13-20(4)26(23)33/h15,17,19-23,26-30,37H,7-14,16,18H2,1-6H3,(H,38,39)/t20-,21-,22?,23-,26-,27+,28-,29+,30-,32?,33?,34?/m1/s1
> <PUBCHEM_IUPAC_INCHIKEY>
PROUQWPWZMINMN-YCBMHMTASA-N
> <PUBCHEM_XLOGP3_AA>
4.7
> <PUBCHEM_EXACT_MASS>
604.36113323
> <PUBCHEM_MOLECULAR_FORMULA>
C34H52O9
> <PUBCHEM_MOLECULAR_WEIGHT>
604.8
> <PUBCHEM_OPENEYE_CAN_SMILES>
CCCCCCCC(=O)OC1C(C(OC(C1OC)C)OCC23C4CC(C2(C(=C4)C(C)C)C(=O)O)(C5C3C(CC5)C)C=O)O
> <PUBCHEM_OPENEYE_ISO_SMILES>
CCCCCCCC(=O)O[C@H]1[C@@H]([C@@H](O[C@@H]([C@H]1OC)C)OCC23[C@@H]4[C@@H](CC[C@H]4C5(C2(C(=CC3C5)C(C)C)C(=O)O)C=O)C)O
> <PUBCHEM_CACTVS_TPSA>
129
> <PUBCHEM_MONOISOTOPIC_WEIGHT>
604.36113323
> <PUBCHEM_TOTAL_CHARGE>
0
> <PUBCHEM_HEAVY_ATOM_COUNT>
43
> <PUBCHEM_ATOM_DEF_STEREO_COUNT>
8
> <PUBCHEM_ATOM_UDEF_STEREO_COUNT>
4
> <PUBCHEM_BOND_DEF_STEREO_COUNT>
0
> <PUBCHEM_BOND_UDEF_STEREO_COUNT>
0
> <PUBCHEM_ISOTOPIC_ATOM_COUNT>
0
> <PUBCHEM_COMPONENT_COUNT>
1
> <PUBCHEM_CACTVS_TAUTO_COUNT>
-1
> <PUBCHEM_COORDINATE_TYPE>
1
5
255
> <PUBCHEM_BONDANNOTATIONS>
29  1  5
10  20  3
11  23  3
12  24  3
13  44  5
14  45  6
15  16  3
17  26  6
32  34  5
30  6  5
31  7  6
33  8  6
$$$$
