510373
  -OEChem-10302200282D
157162  0     1  0  0  0  0  0999 V2000
    5.8863    4.3100    0.0000 S   0  0  0  0  0  0  0  0  0  0  0  0
    6.8671   17.4121    0.0000 O   0  0  0  0  0  0  0  0  0  0  0  0
    4.8671   17.4121    0.0000 O   0  0  0  0  0  0  0  0  0  0  0  0
    8.4548   18.2211    0.0000 O   0  0  0  0  0  0  0  0  0  0  0  0
    7.8671   19.1441    0.0000 O   0  0  0  0  0  0  0  0  0  0  0  0
   10.2149   16.3243    0.0000 O   0  0  0  0  0  0  0  0  0  0  0  0
    3.1350   17.4121    0.0000 O   0  0  0  0  0  0  0  0  0  0  0  0
    8.1458   15.6520    0.0000 O   0  0  0  0  0  0  0  0  0  0  0  0
   11.2330   17.7256    0.0000 O   0  0  0  0  0  0  0  0  0  0  0  0
    3.1350   14.4121    0.0000 O   0  0  0  0  0  0  0  0  0  0  0  0
    1.4030   15.4121    0.0000 O   0  0  0  0  0  0  0  0  0  0  0  0
   10.1104   19.4944    0.0000 O   0  0  0  0  0  0  0  0  0  0  0  0
   13.6600   15.9622    0.0000 O   0  0  0  0  0  0  0  0  0  0  0  0
   13.8691   17.9513    0.0000 O   0  0  0  0  0  0  0  0  0  0  0  0
    0.5369   16.9121    0.0000 O   0  0  0  0  0  0  0  0  0  0  0  0
    5.8863    7.3100    0.0000 O   0  0  0  0  0  0  0  0  0  0  0  0
    6.7523    9.8100    0.0000 O   0  0  0  0  0  0  0  0  0  0  0  0
    6.8863    4.3100    0.0000 O   0  0  0  0  0  0  0  0  0  0  0  0
    4.8863    4.3100    0.0000 O   0  0  0  0  0  0  0  0  0  0  0  0
    4.3036   10.6464    0.0000 O   0  0  0  0  0  0  0  0  0  0  0  0
    5.8863    8.3100    0.0000 O   0  0  0  0  0  0  0  0  0  0  0  0
    3.8671   19.1441    0.0000 N   0  0  0  0  0  0  0  0  0  0  0  0
    6.8671   20.8762    0.0000 N   0  0  0  0  0  0  0  0  0  0  0  0
    4.8671   15.4121    0.0000 N   0  0  0  0  0  0  0  0  0  0  0  0
   11.8330   15.1487    0.0000 N   0  0  0  0  0  0  0  0  0  0  0  0
   13.1646   19.5336    0.0000 N   0  0  0  0  0  0  0  0  0  0  0  0
    5.8863    5.3100    0.0000 N   0  0  3  0  0  0  0  0  0  0  0  0
    7.6184    8.3100    0.0000 N   0  0  0  0  0  0  0  0  0  0  0  0
    5.8863    0.3100    0.0000 N   0  0  0  0  0  0  0  0  0  0  0  0
    6.3671   18.2781    0.0000 C   0  0  1  0  0  0  0  0  0  0  0  0
    5.3671   18.2781    0.0000 C   0  0  1  0  0  0  0  0  0  0  0  0
    4.8671   19.1441    0.0000 C   0  0  2  0  0  0  0  0  0  0  0  0
    6.8671   19.1441    0.0000 C   0  0  2  0  0  0  0  0  0  0  0  0
    6.3671   20.0102    0.0000 C   0  0  1  0  0  0  0  0  0  0  0  0
    5.3671   20.0102    0.0000 C   0  0  0  0  0  0  0  0  0  0  0  0
    7.8671   17.4121    0.0000 C   0  0  2  0  0  0  0  0  0  0  0  0
    8.4548   16.6031    0.0000 C   0  0  1  0  0  0  0  0  0  0  0  0
    9.4059   16.9121    0.0000 C   0  0  1  0  0  0  0  0  0  0  0  0
    9.4059   17.9121    0.0000 C   0  0  1  0  0  0  0  0  0  0  0  0
    4.0010   16.9121    0.0000 C   0  0  1  0  0  0  0  0  0  0  0  0
    4.0010   15.9121    0.0000 C   0  0  1  0  0  0  0  0  0  0  0  0
    3.1350   15.4121    0.0000 C   0  0  2  0  0  0  0  0  0  0  0  0
    2.2690   15.9121    0.0000 C   0  0  1  0  0  0  0  0  0  0  0  0
    2.2690   16.9121    0.0000 C   0  0  1  0  0  0  0  0  0  0  0  0
   11.1285   16.7310    0.0000 C   0  0  1  0  0  0  0  0  0  0  0  0
   11.9375   16.1433    0.0000 C   0  0  1  0  0  0  0  0  0  0  0  0
   10.2149   18.4999    0.0000 C   0  0  0  0  0  0  0  0  0  0  0  0
   12.8510   16.5500    0.0000 C   0  0  2  0  0  0  0  0  0  0  0  0
   12.9556   17.5445    0.0000 C   0  0  1  0  0  0  0  0  0  0  0  0
   12.1465   18.1323    0.0000 C   0  0  2  0  0  0  0  0  0  0  0  0
    1.4030   17.4121    0.0000 C   0  0  0  0  0  0  0  0  0  0  0  0
   12.2511   19.1268    0.0000 C   0  0  0  0  0  0  0  0  0  0  0  0
    6.7523    6.8100    0.0000 C   0  0  1  0  0  0  0  0  0  0  0  0
    7.6184    7.3100    0.0000 C   0  0  2  0  0  0  0  0  0  0  0  0
    6.7523    5.8100    0.0000 C   0  0  0  0  0  0  0  0  0  0  0  0
    5.0203    5.8100    0.0000 C   0  0  0  0  0  0  0  0  0  0  0  0
    4.1543    5.3100    0.0000 C   0  0  0  0  0  0  0  0  0  0  0  0
    8.4844    6.8100    0.0000 C   0  0  0  0  0  0  0  0  0  0  0  0
    9.3504    7.3100    0.0000 C   0  0  0  0  0  0  0  0  0  0  0  0
    3.2882    5.8100    0.0000 C   0  0  0  0  0  0  0  0  0  0  0  0
    4.1543    4.3100    0.0000 C   0  0  0  0  0  0  0  0  0  0  0  0
    5.8863    3.3100    0.0000 C   0  0  0  0  0  0  0  0  0  0  0  0
    5.8863   10.3100    0.0000 C   0  0  1  0  0  0  0  0  0  0  0  0
    6.7523    8.8100    0.0000 C   0  0  0  0  0  0  0  0  0  0  0  0
    5.7818   11.3045    0.0000 C   0  0  0  0  0  0  0  0  0  0  0  0
    4.9728    9.9033    0.0000 C   0  0  0  0  0  0  0  0  0  0  0  0
    4.8036   11.5124    0.0000 C   0  0  0  0  0  0  0  0  0  0  0  0
    9.3504    8.3100    0.0000 C   0  0  0  0  0  0  0  0  0  0  0  0
   10.2164    6.8100    0.0000 C   0  0  0  0  0  0  0  0  0  0  0  0
    6.7523    2.8100    0.0000 C   0  0  0  0  0  0  0  0  0  0  0  0
    5.0203    2.8100    0.0000 C   0  0  0  0  0  0  0  0  0  0  0  0
   10.2164    8.8100    0.0000 C   0  0  0  0  0  0  0  0  0  0  0  0
   11.0825    7.3100    0.0000 C   0  0  0  0  0  0  0  0  0  0  0  0
    6.7523    1.8100    0.0000 C   0  0  0  0  0  0  0  0  0  0  0  0
    5.0203    1.8100    0.0000 C   0  0  0  0  0  0  0  0  0  0  0  0
    5.8863    1.3100    0.0000 C   0  0  0  0  0  0  0  0  0  0  0  0
   11.0825    8.3100    0.0000 C   0  0  0  0  0  0  0  0  0  0  0  0
    6.9871   18.2781    0.0000 H   0  0  0  0  0  0  0  0  0  0  0  0
    4.7471   18.2781    0.0000 H   0  0  0  0  0  0  0  0  0  0  0  0
    4.5571   19.6811    0.0000 H   0  0  0  0  0  0  0  0  0  0  0  0
    7.1771   19.6811    0.0000 H   0  0  0  0  0  0  0  0  0  0  0  0
    6.0571   20.5471    0.0000 H   0  0  0  0  0  0  0  0  0  0  0  0
    5.4747   20.6207    0.0000 H   0  0  0  0  0  0  0  0  0  0  0  0
    4.7844   20.2222    0.0000 H   0  0  0  0  0  0  0  0  0  0  0  0
    7.5856   16.8597    0.0000 H   0  0  0  0  0  0  0  0  0  0  0  0
    8.8932   16.1647    0.0000 H   0  0  0  0  0  0  0  0  0  0  0  0
    9.3089   16.2997    0.0000 H   0  0  0  0  0  0  0  0  0  0  0  0
    9.3089   18.5245    0.0000 H   0  0  0  0  0  0  0  0  0  0  0  0
    4.5380   16.6021    0.0000 H   0  0  0  0  0  0  0  0  0  0  0  0
    4.0010   15.2921    0.0000 H   0  0  0  0  0  0  0  0  0  0  0  0
    3.5571   19.6811    0.0000 H   0  0  0  0  0  0  0  0  0  0  0  0
    3.5571   18.6072    0.0000 H   0  0  0  0  0  0  0  0  0  0  0  0
    3.6720   15.1021    0.0000 H   0  0  0  0  0  0  0  0  0  0  0  0
    6.5571   21.4131    0.0000 H   0  0  0  0  0  0  0  0  0  0  0  0
    7.4871   20.8762    0.0000 H   0  0  0  0  0  0  0  0  0  0  0  0
    2.2690   15.2921    0.0000 H   0  0  0  0  0  0  0  0  0  0  0  0
    2.2690   17.5321    0.0000 H   0  0  0  0  0  0  0  0  0  0  0  0
    8.1771   19.6811    0.0000 H   0  0  0  0  0  0  0  0  0  0  0  0
   11.0637   16.1144    0.0000 H   0  0  0  0  0  0  0  0  0  0  0  0
   12.4391   15.7788    0.0000 H   0  0  0  0  0  0  0  0  0  0  0  0
   10.4867   17.9426    0.0000 H   0  0  0  0  0  0  0  0  0  0  0  0
   10.8109   18.6708    0.0000 H   0  0  0  0  0  0  0  0  0  0  0  0
   12.7862   15.9334    0.0000 H   0  0  0  0  0  0  0  0  0  0  0  0
   13.0204   18.1611    0.0000 H   0  0  0  0  0  0  0  0  0  0  0  0
   11.6449   18.4967    0.0000 H   0  0  0  0  0  0  0  0  0  0  0  0
    8.5607   15.1913    0.0000 H   0  0  0  0  0  0  0  0  0  0  0  0
    4.8671   14.7921    0.0000 H   0  0  0  0  0  0  0  0  0  0  0  0
    5.4040   15.7221    0.0000 H   0  0  0  0  0  0  0  0  0  0  0  0
    1.8015   17.8870    0.0000 H   0  0  0  0  0  0  0  0  0  0  0  0
    1.0044   17.8870    0.0000 H   0  0  0  0  0  0  0  0  0  0  0  0
    2.5981   14.1021    0.0000 H   0  0  0  0  0  0  0  0  0  0  0  0
   12.1011   19.7284    0.0000 H   0  0  0  0  0  0  0  0  0  0  0  0
   11.6326   19.0836    0.0000 H   0  0  0  0  0  0  0  0  0  0  0  0
    1.4030   14.7921    0.0000 H   0  0  0  0  0  0  0  0  0  0  0  0
   12.3345   14.7843    0.0000 H   0  0  0  0  0  0  0  0  0  0  0  0
   11.2666   14.8966    0.0000 H   0  0  0  0  0  0  0  0  0  0  0  0
   10.6120   19.8588    0.0000 H   0  0  0  0  0  0  0  0  0  0  0  0
   14.2264   16.2144    0.0000 H   0  0  0  0  0  0  0  0  0  0  0  0
   14.3707   17.5868    0.0000 H   0  0  0  0  0  0  0  0  0  0  0  0
    0.0000   17.2221    0.0000 H   0  0  0  0  0  0  0  0  0  0  0  0
   13.2294   20.1502    0.0000 H   0  0  0  0  0  0  0  0  0  0  0  0
   13.6662   19.1691    0.0000 H   0  0  0  0  0  0  0  0  0  0  0  0
    6.7523    7.4300    0.0000 H   0  0  0  0  0  0  0  0  0  0  0  0
    8.1553    7.6200    0.0000 H   0  0  0  0  0  0  0  0  0  0  0  0
    6.9644    5.2274    0.0000 H   0  0  0  0  0  0  0  0  0  0  0  0
    7.3629    5.9177    0.0000 H   0  0  0  0  0  0  0  0  0  0  0  0
    5.4188    6.2850    0.0000 H   0  0  0  0  0  0  0  0  0  0  0  0
    4.6218    6.2850    0.0000 H   0  0  0  0  0  0  0  0  0  0  0  0
    4.1543    5.9300    0.0000 H   0  0  0  0  0  0  0  0  0  0  0  0
    8.0859    6.3350    0.0000 H   0  0  0  0  0  0  0  0  0  0  0  0
    8.8829    6.3350    0.0000 H   0  0  0  0  0  0  0  0  0  0  0  0
    8.1553    8.6200    0.0000 H   0  0  0  0  0  0  0  0  0  0  0  0
    3.5982    6.3469    0.0000 H   0  0  0  0  0  0  0  0  0  0  0  0
    2.7513    6.1200    0.0000 H   0  0  0  0  0  0  0  0  0  0  0  0
    2.9782    5.2731    0.0000 H   0  0  0  0  0  0  0  0  0  0  0  0
    3.5343    4.3100    0.0000 H   0  0  0  0  0  0  0  0  0  0  0  0
    4.1543    3.6900    0.0000 H   0  0  0  0  0  0  0  0  0  0  0  0
    4.7743    4.3100    0.0000 H   0  0  0  0  0  0  0  0  0  0  0  0
    5.3494    7.0000    0.0000 H   0  0  0  0  0  0  0  0  0  0  0  0
    6.4063   10.6477    0.0000 H   0  0  0  0  0  0  0  0  0  0  0  0
    6.4018   11.3045    0.0000 H   0  0  0  0  0  0  0  0  0  0  0  0
    5.8466   11.9211    0.0000 H   0  0  0  0  0  0  0  0  0  0  0  0
    4.4712    9.5388    0.0000 H   0  0  0  0  0  0  0  0  0  0  0  0
    5.2828    9.3663    0.0000 H   0  0  0  0  0  0  0  0  0  0  0  0
    4.9952   12.1021    0.0000 H   0  0  0  0  0  0  0  0  0  0  0  0
    4.2372   11.7646    0.0000 H   0  0  0  0  0  0  0  0  0  0  0  0
    8.8135    8.6200    0.0000 H   0  0  0  0  0  0  0  0  0  0  0  0
   10.2164    6.1900    0.0000 H   0  0  0  0  0  0  0  0  0  0  0  0
    7.2893    3.1200    0.0000 H   0  0  0  0  0  0  0  0  0  0  0  0
    4.4834    3.1200    0.0000 H   0  0  0  0  0  0  0  0  0  0  0  0
   10.2164    9.4300    0.0000 H   0  0  0  0  0  0  0  0  0  0  0  0
   11.6194    7.0000    0.0000 H   0  0  0  0  0  0  0  0  0  0  0  0
    7.2893    1.5000    0.0000 H   0  0  0  0  0  0  0  0  0  0  0  0
    4.4834    1.5000    0.0000 H   0  0  0  0  0  0  0  0  0  0  0  0
   11.6194    8.6200    0.0000 H   0  0  0  0  0  0  0  0  0  0  0  0
    5.3494    0.0000    0.0000 H   0  0  0  0  0  0  0  0  0  0  0  0
    6.4232    0.0000    0.0000 H   0  0  0  0  0  0  0  0  0  0  0  0
  1 18  2  0  0  0  0
  1 19  2  0  0  0  0
  1 27  1  0  0  0  0
  1 62  1  0  0  0  0
 30  2  1  1  0  0  0
 36  2  1  6  0  0  0
 31  3  1  6  0  0  0
 40  3  1  6  0  0  0
  4 36  1  0  0  0  0
  4 39  1  0  0  0  0
 33  5  1  6  0  0  0
  5 98  1  0  0  0  0
 38  6  1  1  0  0  0
 45  6  1  1  0  0  0
  7 40  1  0  0  0  0
  7 44  1  0  0  0  0
 37  8  1  1  0  0  0
  8106  1  0  0  0  0
  9 45  1  0  0  0  0
  9 50  1  0  0  0  0
 42 10  1  1  0  0  0
 10111  1  0  0  0  0
 43 11  1  6  0  0  0
 11114  1  0  0  0  0
 12 47  1  0  0  0  0
 12117  1  0  0  0  0
 48 13  1  6  0  0  0
 13118  1  0  0  0  0
 49 14  1  1  0  0  0
 14119  1  0  0  0  0
 15 51  1  0  0  0  0
 15120  1  0  0  0  0
 53 16  1  1  0  0  0
 16139  1  0  0  0  0
 63 17  1  6  0  0  0
 17 64  1  0  0  0  0
 20 66  1  0  0  0  0
 20 67  1  0  0  0  0
 21 64  2  0  0  0  0
 32 22  1  1  0  0  0
 22 91  1  0  0  0  0
 22 92  1  0  0  0  0
 34 23  1  1  0  0  0
 23 94  1  0  0  0  0
 23 95  1  0  0  0  0
 41 24  1  6  0  0  0
 24107  1  0  0  0  0
 24108  1  0  0  0  0
 46 25  1  1  0  0  0
 25115  1  0  0  0  0
 25116  1  0  0  0  0
 26 52  1  0  0  0  0
 26121  1  0  0  0  0
 26122  1  0  0  0  0
 27 55  1  0  0  0  0
 27 56  1  0  0  0  0
 54 28  1  1  0  0  0
 28 64  1  0  0  0  0
 28132  1  0  0  0  0
 29 76  1  0  0  0  0
 29156  1  0  0  0  0
 29157  1  0  0  0  0
 30 31  1  0  0  0  0
 30 33  1  0  0  0  0
 30 78  1  0  0  0  0
 31 32  1  0  0  0  0
 31 79  1  0  0  0  0
 32 35  1  0  0  0  0
 32 80  1  0  0  0  0
 33 34  1  0  0  0  0
 33 81  1  0  0  0  0
 34 35  1  0  0  0  0
 34 82  1  0  0  0  0
 35 83  1  0  0  0  0
 35 84  1  0  0  0  0
 36 37  1  0  0  0  0
 36 85  1  0  0  0  0
 37 38  1  0  0  0  0
 37 86  1  0  0  0  0
 38 39  1  0  0  0  0
 38 87  1  0  0  0  0
 39 47  1  6  0  0  0
 39 88  1  0  0  0  0
 40 41  1  0  0  0  0
 40 89  1  0  0  0  0
 41 42  1  0  0  0  0
 41 90  1  0  0  0  0
 42 43  1  0  0  0  0
 42 93  1  0  0  0  0
 43 44  1  0  0  0  0
 43 96  1  0  0  0  0
 44 51  1  1  0  0  0
 44 97  1  0  0  0  0
 45 46  1  0  0  0  0
 45 99  1  0  0  0  0
 46 48  1  0  0  0  0
 46100  1  0  0  0  0
 47101  1  0  0  0  0
 47102  1  0  0  0  0
 48 49  1  0  0  0  0
 48103  1  0  0  0  0
 49 50  1  0  0  0  0
 49104  1  0  0  0  0
 50 52  1  1  0  0  0
 50105  1  0  0  0  0
 51109  1  0  0  0  0
 51110  1  0  0  0  0
 52112  1  0  0  0  0
 52113  1  0  0  0  0
 53 54  1  0  0  0  0
 53 55  1  0  0  0  0
 53123  1  0  0  0  0
 54 58  1  0  0  0  0
 54124  1  0  0  0  0
 55125  1  0  0  0  0
 55126  1  0  0  0  0
 56 57  1  0  0  0  0
 56127  1  0  0  0  0
 56128  1  0  0  0  0
 57 60  1  0  0  0  0
 57 61  1  0  0  0  0
 57129  1  0  0  0  0
 58 59  1  0  0  0  0
 58130  1  0  0  0  0
 58131  1  0  0  0  0
 59 68  2  0  0  0  0
 59 69  1  0  0  0  0
 60133  1  0  0  0  0
 60134  1  0  0  0  0
 60135  1  0  0  0  0
 61136  1  0  0  0  0
 61137  1  0  0  0  0
 61138  1  0  0  0  0
 62 70  2  0  0  0  0
 62 71  1  0  0  0  0
 63 65  1  0  0  0  0
 63 66  1  0  0  0  0
 63140  1  0  0  0  0
 65 67  1  0  0  0  0
 65141  1  0  0  0  0
 65142  1  0  0  0  0
 66143  1  0  0  0  0
 66144  1  0  0  0  0
 67145  1  0  0  0  0
 67146  1  0  0  0  0
 68 72  1  0  0  0  0
 68147  1  0  0  0  0
 69 73  2  0  0  0  0
 69148  1  0  0  0  0
 70 74  1  0  0  0  0
 70149  1  0  0  0  0
 71 75  2  0  0  0  0
 71150  1  0  0  0  0
 72 77  2  0  0  0  0
 72151  1  0  0  0  0
 73 77  1  0  0  0  0
 73152  1  0  0  0  0
 74 76  2  0  0  0  0
 74153  1  0  0  0  0
 75 76  1  0  0  0  0
 75154  1  0  0  0  0
 77155  1  0  0  0  0
M  END
> <PUBCHEM_COMPOUND_CID>
510373
> <PUBCHEM_COMPOUND_CANONICALIZED>
1
> <PUBCHEM_CACTVS_COMPLEXITY>
1620
> <PUBCHEM_CACTVS_HBOND_ACCEPTOR>
27
> <PUBCHEM_CACTVS_HBOND_DONOR>
16
> <PUBCHEM_CACTVS_ROTATABLE_BOND>
21
> <PUBCHEM_CACTVS_SUBSKEYS>
AAADcfB//gBAAAAAAAAAAAAAAAAAASJAAAA0aMECAAAAAAABQAAAHgQQSAAADTzx2AcyyYLABgKIAiRCWHDCABAgAgAIiJgIZIkbMCKA0ZGvYABnlgCfyAfw8K0OAAQAAAAAAAAAiAAUCACgAAAAAAAAAA==
> <PUBCHEM_IUPAC_OPENEYE_NAME>
(2S,3S,4R,5R,6R)-5-amino-2-(aminomethyl)-6-[(2R,3S,4R,5S)-5-[(1R,2R,3S,5R,6S)-3,5-diamino-2-[(2S,3R,4R,5S,6R)-3-amino-4,5-dihydroxy-6-(hydroxymethyl)tetrahydropyran-2-yl]oxy-6-hydroxy-cyclohexoxy]-4-hydroxy-2-(hydroxymethyl)tetrahydrofuran-3-yl]oxy-tetrahydropyran-3,4-diol;[(3S)-tetrahydrofuran-3-yl] N-[(1S,2R)-3-[(4-aminophenyl)sulfonyl-isobutyl-amino]-1-benzyl-2-hydroxy-propyl]carbamate
> <PUBCHEM_IUPAC_CAS_NAME>
(2S,3S,4R,5R,6R)-5-amino-2-(aminomethyl)-6-[[(2R,3S,4R,5S)-5-[(1R,2R,3S,5R,6S)-3,5-diamino-2-[[(2S,3R,4R,5S,6R)-3-amino-4,5-dihydroxy-6-(hydroxymethyl)-2-oxanyl]oxy]-6-hydroxycyclohexyl]oxy-4-hydroxy-2-(hydroxymethyl)-3-oxolanyl]oxy]oxane-3,4-diol;N-[(2S,3R)-4-[(4-aminophenyl)sulfonyl-(2-methylpropyl)amino]-3-hydroxy-1-phenylbutan-2-yl]carbamic acid [(3S)-3-oxolanyl] ester
> <PUBCHEM_IUPAC_NAME_MARKUP>
(2<I>S</I>,3<I>S</I>,4<I>R</I>,5<I>R</I>,6<I>R</I>)-5-amino-2-(aminomethyl)-6-[(2<I>R</I>,3<I>S</I>,4<I>R</I>,5<I>S</I>)-5-[(1<I>R</I>,2<I>R</I>,3<I>S</I>,5<I>R</I>,6<I>S</I>)-3,5-diamino-2-[(2<I>S</I>,3<I>R</I>,4<I>R</I>,5<I>S</I>,6<I>R</I>)-3-amino-4,5-dihydroxy-6-(hydroxymethyl)oxan-2-yl]oxy-6-hydroxycyclohexyl]oxy-4-hydroxy-2-(hydroxymethyl)oxolan-3-yl]oxyoxane-3,4-diol;[(3<I>S</I>)-oxolan-3-yl] <I>N</I>-[(2<I>S</I>,3<I>R</I>)-4-[(4-aminophenyl)sulfonyl-(2-methylpropyl)amino]-3-hydroxy-1-phenylbutan-2-yl]carbamate
> <PUBCHEM_IUPAC_NAME>
(2S,3S,4R,5R,6R)-5-amino-2-(aminomethyl)-6-[(2R,3S,4R,5S)-5-[(1R,2R,3S,5R,6S)-3,5-diamino-2-[(2S,3R,4R,5S,6R)-3-amino-4,5-dihydroxy-6-(hydroxymethyl)oxan-2-yl]oxy-6-hydroxycyclohexyl]oxy-4-hydroxy-2-(hydroxymethyl)oxolan-3-yl]oxyoxane-3,4-diol;[(3S)-oxolan-3-yl] N-[(2S,3R)-4-[(4-aminophenyl)sulfonyl-(2-methylpropyl)amino]-3-hydroxy-1-phenylbutan-2-yl]carbamate
> <PUBCHEM_IUPAC_SYSTEMATIC_NAME>
(2S,3S,4R,5R,6R)-2-(aminomethyl)-5-azanyl-6-[(2R,3S,4R,5S)-5-[(1R,2R,3S,5R,6S)-3,5-bis(azanyl)-2-[(2S,3R,4R,5S,6R)-3-azanyl-6-(hydroxymethyl)-4,5-bis(oxidanyl)oxan-2-yl]oxy-6-oxidanyl-cyclohexyl]oxy-2-(hydroxymethyl)-4-oxidanyl-oxolan-3-yl]oxy-oxane-3,4-diol;[(3S)-oxolan-3-yl] N-[(2S,3R)-4-[(4-aminophenyl)sulfonyl-(2-methylpropyl)amino]-3-oxidanyl-1-phenyl-butan-2-yl]carbamate
> <PUBCHEM_IUPAC_TRADITIONAL_NAME>
(2S,3S,4R,5R,6R)-5-amino-2-(aminomethyl)-6-[(2R,3S,4R,5S)-5-[(1R,2R,3S,5R,6S)-3,5-diamino-2-[(2S,3R,4R,5S,6R)-3-amino-4,5-dihydroxy-6-methylol-tetrahydropyran-2-yl]oxy-6-hydroxy-cyclohexoxy]-4-hydroxy-2-methylol-tetrahydrofuran-3-yl]oxy-tetrahydropyran-3,4-diol;N-[(1S,2R)-1-benzyl-2-hydroxy-3-[isobutyl(sulfanilyl)amino]propyl]carbamic acid [(3S)-tetrahydrofuran-3-yl] ester
> <PUBCHEM_IUPAC_INCHI>
InChI=1S/C25H35N3O6S.C23H45N5O14/c1-18(2)15-28(35(31,32)22-10-8-20(26)9-11-22)16-24(29)23(14-19-6-4-3-5-7-19)27-25(30)34-21-12-13-33-17-21;24-2-7-13(32)15(34)10(27)21(37-7)41-19-9(4-30)39-23(17(19)36)42-20-12(31)5(25)1-6(26)18(20)40-22-11(28)16(35)14(33)8(3-29)38-22/h3-11,18,21,23-24,29H,12-17,26H2,1-2H3,(H,27,30);5-23,29-36H,1-4,24-28H2/t21-,23-,24+;5-,6+,7+,8-,9-,10-,11-,12+,13-,14-,15-,16-,17-,18-,19-,20-,21-,22-,23+/m01/s1
> <PUBCHEM_IUPAC_INCHIKEY>
WSHDOIBYLRBJOY-DYGDBKCASA-N
> <PUBCHEM_EXACT_MASS>
1120.52095814
> <PUBCHEM_MOLECULAR_FORMULA>
C48H80N8O20S
> <PUBCHEM_MOLECULAR_WEIGHT>
1121.3
> <PUBCHEM_OPENEYE_CAN_SMILES>
CC(C)CN(CC(C(CC1=CC=CC=C1)NC(=O)OC2CCOC2)O)S(=O)(=O)C3=CC=C(C=C3)N.C1C(C(C(C(C1N)OC2C(C(C(C(O2)CO)O)O)N)OC3C(C(C(O3)CO)OC4C(C(C(C(O4)CN)O)O)N)O)O)N
> <PUBCHEM_OPENEYE_ISO_SMILES>
CC(C)CN(C[C@H]([C@H](CC1=CC=CC=C1)NC(=O)O[C@H]2CCOC2)O)S(=O)(=O)C3=CC=C(C=C3)N.C1[C@H]([C@@H]([C@H]([C@@H]([C@H]1N)O[C@@H]2[C@@H]([C@H]([C@@H]([C@H](O2)CO)O)O)N)O[C@H]3[C@@H]([C@@H]([C@H](O3)CO)O[C@@H]4[C@@H]([C@H]([C@@H]([C@@H](O4)CN)O)O)N)O)O)N
> <PUBCHEM_CACTVS_TPSA>
487
> <PUBCHEM_MONOISOTOPIC_WEIGHT>
1120.52095814
> <PUBCHEM_TOTAL_CHARGE>
0
> <PUBCHEM_HEAVY_ATOM_COUNT>
77
> <PUBCHEM_ATOM_DEF_STEREO_COUNT>
22
> <PUBCHEM_ATOM_UDEF_STEREO_COUNT>
0
> <PUBCHEM_BOND_DEF_STEREO_COUNT>
0
> <PUBCHEM_BOND_UDEF_STEREO_COUNT>
0
> <PUBCHEM_ISOTOPIC_ATOM_COUNT>
0
> <PUBCHEM_COMPONENT_COUNT>
2
> <PUBCHEM_CACTVS_TAUTO_COUNT>
-1
> <PUBCHEM_COORDINATE_TYPE>
1
5
255
> <PUBCHEM_BONDANNOTATIONS>
42  10  5
43  11  6
48  13  6
49  14  5
53  16  5
63  17  6
30  2  5
36  2  6
32  22  5
34  23  5
41  24  6
46  25  5
54  28  5
31  3  6
40  3  6
39  47  6
44  51  5
33  5  6
50  52  5
59  68  8
59  69  8
38  6  5
45  6  5
62  70  8
62  71  8
68  72  8
69  73  8
70  74  8
71  75  8
72  77  8
73  77  8
74  76  8
75  76  8
37  8  5
$$$$
