510382
  -OEChem-10302200282D
 51 55  0     1  0  0  0  0  0999 V2000
    5.8819    1.8356    0.0000 F   0  0  0  0  0  0  0  0  0  0  0  0
    7.3132   -2.8702    0.0000 F   0  0  0  0  0  0  0  0  0  0  0  0
    8.9408   -2.2778    0.0000 F   0  0  0  0  0  0  0  0  0  0  0  0
    7.6139   -1.1644    0.0000 O   0  0  0  0  0  0  0  0  0  0  0  0
    9.3623    2.8702    0.0000 O   0  0  0  0  0  0  0  0  0  0  0  0
   12.0120    1.3631    0.0000 O   0  0  0  0  0  0  0  0  0  0  0  0
   11.1402    2.8597    0.0000 O   0  0  0  0  0  0  0  0  0  0  0  0
    9.3739   -0.1991    0.0000 N   0  0  0  0  0  0  0  0  0  0  0  0
    2.6200   -0.6644    0.0000 N   0  0  0  0  0  0  0  0  0  0  0  0
   10.0079   -0.9725    0.0000 C   0  0  0  0  0  0  0  0  0  0  0  0
   10.1701   -1.9592    0.0000 C   0  0  0  0  0  0  0  0  0  0  0  0
   10.9435   -1.3254    0.0000 C   0  0  0  0  0  0  0  0  0  0  0  0
    8.4800    0.3356    0.0000 C   0  0  0  0  0  0  0  0  0  0  0  0
   10.2800    0.3148    0.0000 C   0  0  0  0  0  0  0  0  0  0  0  0
    8.4800    1.3356    0.0000 C   0  0  0  0  0  0  0  0  0  0  0  0
    7.6139   -0.1644    0.0000 C   0  0  0  0  0  0  0  0  0  0  0  0
   10.2800    1.3564    0.0000 C   0  0  0  0  0  0  0  0  0  0  0  0
    6.7479    0.3356    0.0000 C   0  0  0  0  0  0  0  0  0  0  0  0
    9.3739    1.8702    0.0000 C   0  0  0  0  0  0  0  0  0  0  0  0
    3.2036   -1.4692    0.0000 C   0  0  1  0  0  0  0  0  0  0  0  0
    4.1498   -1.1644    0.0000 C   0  0  0  0  0  0  0  0  0  0  0  0
    4.1498   -0.1644    0.0000 C   0  0  0  0  0  0  0  0  0  0  0  0
    5.8819   -0.1644    0.0000 C   0  0  0  0  0  0  0  0  0  0  0  0
    7.6139    1.8356    0.0000 C   0  0  0  0  0  0  0  0  0  0  0  0
    3.2036    0.1403    0.0000 C   0  0  0  0  0  0  0  0  0  0  0  0
    6.7479    1.3356    0.0000 C   0  0  0  0  0  0  0  0  0  0  0  0
    5.0158    0.3356    0.0000 C   0  0  0  0  0  0  0  0  0  0  0  0
    5.0158   -1.6644    0.0000 C   0  0  0  0  0  0  0  0  0  0  0  0
    5.8819   -1.1644    0.0000 C   0  0  0  0  0  0  0  0  0  0  0  0
    2.8930   -2.4197    0.0000 C   0  0  0  0  0  0  0  0  0  0  0  0
   11.1441    1.8597    0.0000 C   0  0  0  0  0  0  0  0  0  0  0  0
    7.9560   -2.1041    0.0000 C   0  0  0  0  0  0  0  0  0  0  0  0
   10.3693   -0.4687    0.0000 H   0  0  0  0  0  0  0  0  0  0  0  0
    9.5851   -2.1645    0.0000 H   0  0  0  0  0  0  0  0  0  0  0  0
   10.4739   -2.4997    0.0000 H   0  0  0  0  0  0  0  0  0  0  0  0
   11.4138   -1.7294    0.0000 H   0  0  0  0  0  0  0  0  0  0  0  0
   11.2597   -0.7921    0.0000 H   0  0  0  0  0  0  0  0  0  0  0  0
   10.8157    0.0027    0.0000 H   0  0  0  0  0  0  0  0  0  0  0  0
    2.5911   -1.5654    0.0000 H   0  0  0  0  0  0  0  0  0  0  0  0
    7.6139    2.4556    0.0000 H   0  0  0  0  0  0  0  0  0  0  0  0
    3.4546    0.7072    0.0000 H   0  0  0  0  0  0  0  0  0  0  0  0
    2.6662    0.4495    0.0000 H   0  0  0  0  0  0  0  0  0  0  0  0
    5.0158    0.9556    0.0000 H   0  0  0  0  0  0  0  0  0  0  0  0
    2.0000   -0.6644    0.0000 H   0  0  0  0  0  0  0  0  0  0  0  0
    5.0158   -2.2844    0.0000 H   0  0  0  0  0  0  0  0  0  0  0  0
    6.4188   -1.4744    0.0000 H   0  0  0  0  0  0  0  0  0  0  0  0
    2.3036   -2.2271    0.0000 H   0  0  0  0  0  0  0  0  0  0  0  0
    2.7003   -3.0090    0.0000 H   0  0  0  0  0  0  0  0  0  0  0  0
    3.4823   -2.6123    0.0000 H   0  0  0  0  0  0  0  0  0  0  0  0
    8.3545   -1.6292    0.0000 H   0  0  0  0  0  0  0  0  0  0  0  0
   12.5477    1.6751    0.0000 H   0  0  0  0  0  0  0  0  0  0  0  0
  1 26  1  0  0  0  0
  2 32  1  0  0  0  0
  3 32  1  0  0  0  0
  4 16  1  0  0  0  0
  4 32  1  0  0  0  0
  5 19  2  0  0  0  0
  6 31  1  0  0  0  0
  6 51  1  0  0  0  0
  7 31  2  0  0  0  0
  8 10  1  0  0  0  0
  8 13  1  0  0  0  0
  8 14  1  0  0  0  0
  9 20  1  0  0  0  0
  9 25  1  0  0  0  0
  9 44  1  0  0  0  0
 10 11  1  0  0  0  0
 10 12  1  0  0  0  0
 10 33  1  0  0  0  0
 11 12  1  0  0  0  0
 11 34  1  0  0  0  0
 11 35  1  0  0  0  0
 12 36  1  0  0  0  0
 12 37  1  0  0  0  0
 13 15  1  0  0  0  0
 13 16  2  0  0  0  0
 14 17  2  0  0  0  0
 14 38  1  0  0  0  0
 15 19  1  0  0  0  0
 15 24  2  0  0  0  0
 16 18  1  0  0  0  0
 17 19  1  0  0  0  0
 17 31  1  0  0  0  0
 18 23  1  0  0  0  0
 18 26  2  0  0  0  0
 20 21  1  0  0  0  0
 20 30  1  1  0  0  0
 20 39  1  0  0  0  0
 21 22  2  0  0  0  0
 21 28  1  0  0  0  0
 22 25  1  0  0  0  0
 22 27  1  0  0  0  0
 23 27  2  0  0  0  0
 23 29  1  0  0  0  0
 24 26  1  0  0  0  0
 24 40  1  0  0  0  0
 25 41  1  0  0  0  0
 25 42  1  0  0  0  0
 27 43  1  0  0  0  0
 28 29  2  0  0  0  0
 28 45  1  0  0  0  0
 29 46  1  0  0  0  0
 30 47  1  0  0  0  0
 30 48  1  0  0  0  0
 30 49  1  0  0  0  0
 32 50  1  0  0  0  0
M  END
> <PUBCHEM_COMPOUND_CID>
510382
> <PUBCHEM_COMPOUND_CANONICALIZED>
1
> <PUBCHEM_CACTVS_COMPLEXITY>
804
> <PUBCHEM_CACTVS_HBOND_ACCEPTOR>
9
> <PUBCHEM_CACTVS_HBOND_DONOR>
2
> <PUBCHEM_CACTVS_ROTATABLE_BOND>
5
> <PUBCHEM_CACTVS_SUBSKEYS>
AAADceB7OYAAAAAAAAAAAAAAGAAAAWAAAAAwYIAAAAAAAFiBQAAAHwAQCAAADCzBmB4yzoPABgCIAqTWSACCCAAlIAAIiIENTMgOJj7MtZuFcahk8BHY+cea2fOewAADQAAaEACAAAaAADQgAAAAAAAAAA==
> <PUBCHEM_IUPAC_OPENEYE_NAME>
1-cyclopropyl-8-(difluoromethoxy)-6-fluoro-7-[(1R)-1-methylisoindolin-5-yl]-4-oxo-quinoline-3-carboxylic acid
> <PUBCHEM_IUPAC_CAS_NAME>
1-cyclopropyl-8-(difluoromethoxy)-6-fluoro-7-[(1R)-1-methyl-2,3-dihydro-1H-isoindol-5-yl]-4-oxo-3-quinolinecarboxylic acid
> <PUBCHEM_IUPAC_NAME_MARKUP>
1-cyclopropyl-8-(difluoromethoxy)-6-fluoro-7-[(1<I>R</I>)-1-methyl-2,3-dihydro-1<I>H</I>-isoindol-5-yl]-4-oxoquinoline-3-carboxylic acid
> <PUBCHEM_IUPAC_NAME>
1-cyclopropyl-8-(difluoromethoxy)-6-fluoro-7-[(1R)-1-methyl-2,3-dihydro-1H-isoindol-5-yl]-4-oxoquinoline-3-carboxylic acid
> <PUBCHEM_IUPAC_SYSTEMATIC_NAME>
8-[bis(fluoranyl)methoxy]-1-cyclopropyl-6-fluoranyl-7-[(1R)-1-methyl-2,3-dihydro-1H-isoindol-5-yl]-4-oxidanylidene-quinoline-3-carboxylic acid
> <PUBCHEM_IUPAC_TRADITIONAL_NAME>
1-cyclopropyl-8-(difluoromethoxy)-6-fluoro-4-keto-7-[(1R)-1-methylisoindolin-5-yl]quinoline-3-carboxylic acid
> <PUBCHEM_IUPAC_INCHI>
InChI=1S/C23H19F3N2O4/c1-10-14-5-2-11(6-12(14)8-27-10)18-17(24)7-15-19(21(18)32-23(25)26)28(13-3-4-13)9-16(20(15)29)22(30)31/h2,5-7,9-10,13,23,27H,3-4,8H2,1H3,(H,30,31)/t10-/m1/s1
> <PUBCHEM_IUPAC_INCHIKEY>
HYMRFSGNCLVLDW-SNVBAGLBSA-N
> <PUBCHEM_XLOGP3_AA>
2.2
> <PUBCHEM_EXACT_MASS>
444.12969158
> <PUBCHEM_MOLECULAR_FORMULA>
C23H19F3N2O4
> <PUBCHEM_MOLECULAR_WEIGHT>
444.4
> <PUBCHEM_OPENEYE_CAN_SMILES>
CC1C2=C(CN1)C=C(C=C2)C3=C(C=C4C(=C3OC(F)F)N(C=C(C4=O)C(=O)O)C5CC5)F
> <PUBCHEM_OPENEYE_ISO_SMILES>
C[C@@H]1C2=C(CN1)C=C(C=C2)C3=C(C=C4C(=C3OC(F)F)N(C=C(C4=O)C(=O)O)C5CC5)F
> <PUBCHEM_CACTVS_TPSA>
78.9
> <PUBCHEM_MONOISOTOPIC_WEIGHT>
444.12969158
> <PUBCHEM_TOTAL_CHARGE>
0
> <PUBCHEM_HEAVY_ATOM_COUNT>
32
> <PUBCHEM_ATOM_DEF_STEREO_COUNT>
1
> <PUBCHEM_ATOM_UDEF_STEREO_COUNT>
0
> <PUBCHEM_BOND_DEF_STEREO_COUNT>
0
> <PUBCHEM_BOND_UDEF_STEREO_COUNT>
0
> <PUBCHEM_ISOTOPIC_ATOM_COUNT>
0
> <PUBCHEM_COMPONENT_COUNT>
1
> <PUBCHEM_CACTVS_TAUTO_COUNT>
-1
> <PUBCHEM_COORDINATE_TYPE>
1
5
255
> <PUBCHEM_BONDANNOTATIONS>
13  15  8
13  16  8
14  17  8
15  19  8
15  24  8
16  18  8
17  19  8
18  26  8
20  30  5
21  22  8
21  28  8
22  27  8
23  27  8
23  29  8
24  26  8
28  29  8
8  13  8
8  14  8
$$$$
