510380
  -OEChem-10302200282D
 46 49  0     1  0  0  0  0  0999 V2000
    6.7205   -0.5346    0.0000 F   0  0  0  0  0  0  0  0  0  0  0  0
    4.9388    2.5242    0.0000 F   0  0  0  0  0  0  0  0  0  0  0  0
   10.2010   -0.5000    0.0000 F   0  0  0  0  0  0  0  0  0  0  0  0
    8.4689   -3.5000    0.0000 F   0  0  0  0  0  0  0  0  0  0  0  0
    8.4689    3.5000    0.0000 O   0  0  0  0  0  0  0  0  0  0  0  0
   11.0670    2.0000    0.0000 O   0  0  0  0  0  0  0  0  0  0  0  0
   10.2010    3.5000    0.0000 O   0  0  0  0  0  0  0  0  0  0  0  0
    4.9388    0.4758    0.0000 N   0  0  3  0  0  0  0  0  0  0  0  0
    2.3625    0.2340    0.0000 N   0  0  0  0  0  0  0  0  0  0  0  0
    8.4689    0.5000    0.0000 N   0  0  0  0  0  0  0  0  0  0  0  0
    7.6029   -1.0000    0.0000 N   0  0  0  0  0  0  0  0  0  0  0  0
    6.7368   -2.5000    0.0000 N   0  0  0  0  0  0  0  0  0  0  0  0
    3.3574    0.1333    0.0000 C   0  0  1  0  0  0  0  0  0  0  0  0
    3.8607   -0.7307    0.0000 C   0  0  0  0  0  0  0  0  0  0  0  0
    4.0237    0.8791    0.0000 C   0  0  0  0  0  0  0  0  0  0  0  0
    4.8381   -0.5191    0.0000 C   0  0  0  0  0  0  0  0  0  0  0  0
    5.8029    0.9792    0.0000 C   0  0  0  0  0  0  0  0  0  0  0  0
    6.7089    0.4653    0.0000 C   0  0  0  0  0  0  0  0  0  0  0  0
    7.6029    1.0000    0.0000 C   0  0  0  0  0  0  0  0  0  0  0  0
    5.8029    2.0208    0.0000 C   0  0  0  0  0  0  0  0  0  0  0  0
    7.6029    2.0000    0.0000 C   0  0  0  0  0  0  0  0  0  0  0  0
    6.7089    2.5347    0.0000 C   0  0  0  0  0  0  0  0  0  0  0  0
    8.4689    2.5000    0.0000 C   0  0  0  0  0  0  0  0  0  0  0  0
    9.3349    1.0000    0.0000 C   0  0  0  0  0  0  0  0  0  0  0  0
    9.3349    2.0000    0.0000 C   0  0  0  0  0  0  0  0  0  0  0  0
    8.4689   -0.5000    0.0000 C   0  0  0  0  0  0  0  0  0  0  0  0
    9.3349   -1.0000    0.0000 C   0  0  0  0  0  0  0  0  0  0  0  0
   10.2010    2.5000    0.0000 C   0  0  0  0  0  0  0  0  0  0  0  0
    9.3349   -2.0000    0.0000 C   0  0  0  0  0  0  0  0  0  0  0  0
    7.6029   -2.0000    0.0000 C   0  0  0  0  0  0  0  0  0  0  0  0
    8.4689   -2.5000    0.0000 C   0  0  0  0  0  0  0  0  0  0  0  0
    3.0217   -0.3879    0.0000 H   0  0  0  0  0  0  0  0  0  0  0  0
    3.2953   -0.9851    0.0000 H   0  0  0  0  0  0  0  0  0  0  0  0
    4.0546   -1.3197    0.0000 H   0  0  0  0  0  0  0  0  0  0  0  0
    4.3316    1.4172    0.0000 H   0  0  0  0  0  0  0  0  0  0  0  0
    3.5207    1.2416    0.0000 H   0  0  0  0  0  0  0  0  0  0  0  0
    4.9053   -1.1354    0.0000 H   0  0  0  0  0  0  0  0  0  0  0  0
    5.4581   -0.5167    0.0000 H   0  0  0  0  0  0  0  0  0  0  0  0
    2.0000   -0.2690    0.0000 H   0  0  0  0  0  0  0  0  0  0  0  0
    2.1081    0.7995    0.0000 H   0  0  0  0  0  0  0  0  0  0  0  0
    6.7161    3.1546    0.0000 H   0  0  0  0  0  0  0  0  0  0  0  0
    9.8719    0.6900    0.0000 H   0  0  0  0  0  0  0  0  0  0  0  0
    9.8719   -2.3100    0.0000 H   0  0  0  0  0  0  0  0  0  0  0  0
   11.6039    2.3100    0.0000 H   0  0  0  0  0  0  0  0  0  0  0  0
    6.1999   -2.1900    0.0000 H   0  0  0  0  0  0  0  0  0  0  0  0
    6.7368   -3.1200    0.0000 H   0  0  0  0  0  0  0  0  0  0  0  0
  1 18  1  0  0  0  0
  2 20  1  0  0  0  0
  3 27  1  0  0  0  0
  4 31  1  0  0  0  0
  5 23  2  0  0  0  0
  6 28  1  0  0  0  0
  6 44  1  0  0  0  0
  7 28  2  0  0  0  0
  8 15  1  0  0  0  0
  8 16  1  0  0  0  0
  8 17  1  0  0  0  0
 13  9  1  6  0  0  0
  9 39  1  0  0  0  0
  9 40  1  0  0  0  0
 10 19  1  0  0  0  0
 10 24  1  0  0  0  0
 10 26  1  0  0  0  0
 11 26  1  0  0  0  0
 11 30  2  0  0  0  0
 12 30  1  0  0  0  0
 12 45  1  0  0  0  0
 12 46  1  0  0  0  0
 13 14  1  0  0  0  0
 13 15  1  0  0  0  0
 13 32  1  0  0  0  0
 14 16  1  0  0  0  0
 14 33  1  0  0  0  0
 14 34  1  0  0  0  0
 15 35  1  0  0  0  0
 15 36  1  0  0  0  0
 16 37  1  0  0  0  0
 16 38  1  0  0  0  0
 17 18  1  0  0  0  0
 17 20  2  0  0  0  0
 18 19  2  0  0  0  0
 19 21  1  0  0  0  0
 20 22  1  0  0  0  0
 21 22  2  0  0  0  0
 21 23  1  0  0  0  0
 22 41  1  0  0  0  0
 23 25  1  0  0  0  0
 24 25  2  0  0  0  0
 24 42  1  0  0  0  0
 25 28  1  0  0  0  0
 26 27  2  0  0  0  0
 27 29  1  0  0  0  0
 29 31  2  0  0  0  0
 29 43  1  0  0  0  0
 30 31  1  0  0  0  0
M  END
> <PUBCHEM_COMPOUND_CID>
510380
> <PUBCHEM_COMPOUND_CANONICALIZED>
1
> <PUBCHEM_CACTVS_COMPLEXITY>
773
> <PUBCHEM_CACTVS_HBOND_ACCEPTOR>
12
> <PUBCHEM_CACTVS_HBOND_DONOR>
3
> <PUBCHEM_CACTVS_ROTATABLE_BOND>
3
> <PUBCHEM_CACTVS_SUBSKEYS>
AAADccB7scAAAAAAAAAAAAAAAAAAAWAAAAA8QIAAAAAAAACBwAAAHwAQCAAADCzBmgwx+JNIEgCoAqb2bACCgCklACABmKEoRNiIZP7I3NGUYYhssALI2eeY2aOeCAAAAAQCAAAQAAAACAQAAAAAAAAAAA==
> <PUBCHEM_IUPAC_OPENEYE_NAME>
1-(6-amino-3,5-difluoro-2-pyridyl)-7-[(3S)-3-aminopyrrolidin-1-yl]-6,8-difluoro-4-oxo-quinoline-3-carboxylic acid
> <PUBCHEM_IUPAC_CAS_NAME>
1-(6-amino-3,5-difluoro-2-pyridinyl)-7-[(3S)-3-amino-1-pyrrolidinyl]-6,8-difluoro-4-oxo-3-quinolinecarboxylic acid
> <PUBCHEM_IUPAC_NAME_MARKUP>
1-(6-amino-3,5-difluoropyridin-2-yl)-7-[(3<I>S</I>)-3-aminopyrrolidin-1-yl]-6,8-difluoro-4-oxoquinoline-3-carboxylic acid
> <PUBCHEM_IUPAC_NAME>
1-(6-amino-3,5-difluoropyridin-2-yl)-7-[(3S)-3-aminopyrrolidin-1-yl]-6,8-difluoro-4-oxoquinoline-3-carboxylic acid
> <PUBCHEM_IUPAC_SYSTEMATIC_NAME>
1-[6-azanyl-3,5-bis(fluoranyl)pyridin-2-yl]-7-[(3S)-3-azanylpyrrolidin-1-yl]-6,8-bis(fluoranyl)-4-oxidanylidene-quinoline-3-carboxylic acid
> <PUBCHEM_IUPAC_TRADITIONAL_NAME>
1-(6-amino-3,5-difluoro-2-pyridyl)-7-[(3S)-3-aminopyrrolidino]-6,8-difluoro-4-keto-quinoline-3-carboxylic acid
> <PUBCHEM_IUPAC_INCHI>
InChI=1S/C19H15F4N5O3/c20-10-3-8-14(13(23)15(10)27-2-1-7(24)5-27)28(6-9(16(8)29)19(30)31)18-12(22)4-11(21)17(25)26-18/h3-4,6-7H,1-2,5,24H2,(H2,25,26)(H,30,31)/t7-/m0/s1
> <PUBCHEM_IUPAC_INCHIKEY>
KBUAGQGYVDMCFK-ZETCQYMHSA-N
> <PUBCHEM_XLOGP3_AA>
0
> <PUBCHEM_EXACT_MASS>
437.11110201
> <PUBCHEM_MOLECULAR_FORMULA>
C19H15F4N5O3
> <PUBCHEM_MOLECULAR_WEIGHT>
437.3
> <PUBCHEM_OPENEYE_CAN_SMILES>
C1CN(CC1N)C2=C(C=C3C(=C2F)N(C=C(C3=O)C(=O)O)C4=C(C=C(C(=N4)N)F)F)F
> <PUBCHEM_OPENEYE_ISO_SMILES>
C1CN(C[C@H]1N)C2=C(C=C3C(=C2F)N(C=C(C3=O)C(=O)O)C4=C(C=C(C(=N4)N)F)F)F
> <PUBCHEM_CACTVS_TPSA>
126
> <PUBCHEM_MONOISOTOPIC_WEIGHT>
437.11110201
> <PUBCHEM_TOTAL_CHARGE>
0
> <PUBCHEM_HEAVY_ATOM_COUNT>
31
> <PUBCHEM_ATOM_DEF_STEREO_COUNT>
1
> <PUBCHEM_ATOM_UDEF_STEREO_COUNT>
0
> <PUBCHEM_BOND_DEF_STEREO_COUNT>
0
> <PUBCHEM_BOND_UDEF_STEREO_COUNT>
0
> <PUBCHEM_ISOTOPIC_ATOM_COUNT>
0
> <PUBCHEM_COMPONENT_COUNT>
1
> <PUBCHEM_CACTVS_TAUTO_COUNT>
-1
> <PUBCHEM_COORDINATE_TYPE>
1
5
255
> <PUBCHEM_BONDANNOTATIONS>
10  19  8
10  24  8
11  26  8
11  30  8
17  18  8
17  20  8
18  19  8
19  21  8
20  22  8
21  22  8
21  23  8
23  25  8
24  25  8
26  27  8
27  29  8
29  31  8
30  31  8
13  9  6
$$$$
