510383
  -OEChem-10302200282D
 53 57  0     1  0  0  0  0  0999 V2000
    6.8520   -1.2196    0.0000 O   0  0  0  0  0  0  0  0  0  0  0  0
    8.6004    2.8150    0.0000 O   0  0  0  0  0  0  0  0  0  0  0  0
   11.1984    1.3150    0.0000 O   0  0  0  0  0  0  0  0  0  0  0  0
   10.3324    2.8150    0.0000 O   0  0  0  0  0  0  0  0  0  0  0  0
    5.0702   -0.2092    0.0000 N   0  0  3  0  0  0  0  0  0  0  0  0
    3.5033   -2.2792    0.0000 N   0  0  0  0  0  0  0  0  0  0  0  0
    8.6004   -0.1851    0.0000 N   0  0  0  0  0  0  0  0  0  0  0  0
    3.4966   -0.5472    0.0000 C   0  0  2  0  0  0  0  0  0  0  0  0
    4.0000   -1.4113    0.0000 C   0  0  1  0  0  0  0  0  0  0  0  0
    4.1609    0.1924    0.0000 C   0  0  0  0  0  0  0  0  0  0  0  0
    4.9710   -1.1983    0.0000 C   0  0  0  0  0  0  0  0  0  0  0  0
    2.4967   -0.5510    0.0000 C   0  0  0  0  0  0  0  0  0  0  0  0
    8.6004   -1.1850    0.0000 C   0  0  0  0  0  0  0  0  0  0  0  0
    2.0000   -1.4190    0.0000 C   0  0  0  0  0  0  0  0  0  0  0  0
    8.1004   -2.0511    0.0000 C   0  0  0  0  0  0  0  0  0  0  0  0
    9.1004   -2.0511    0.0000 C   0  0  0  0  0  0  0  0  0  0  0  0
    2.5033   -2.2831    0.0000 C   0  0  0  0  0  0  0  0  0  0  0  0
    5.9343    0.2941    0.0000 C   0  0  0  0  0  0  0  0  0  0  0  0
    7.7343    0.3149    0.0000 C   0  0  0  0  0  0  0  0  0  0  0  0
    6.8404   -0.2197    0.0000 C   0  0  0  0  0  0  0  0  0  0  0  0
    7.7343    1.3150    0.0000 C   0  0  0  0  0  0  0  0  0  0  0  0
    5.9343    1.3358    0.0000 C   0  0  0  0  0  0  0  0  0  0  0  0
    9.4664    0.3149    0.0000 C   0  0  0  0  0  0  0  0  0  0  0  0
    6.8404    1.8496    0.0000 C   0  0  0  0  0  0  0  0  0  0  0  0
    9.4664    1.3150    0.0000 C   0  0  0  0  0  0  0  0  0  0  0  0
    8.6004    1.8150    0.0000 C   0  0  0  0  0  0  0  0  0  0  0  0
   10.3324    1.8150    0.0000 C   0  0  0  0  0  0  0  0  0  0  0  0
    5.9918   -1.7296    0.0000 C   0  0  0  0  0  0  0  0  0  0  0  0
    3.1489    0.2285    0.0000 H   0  0  0  0  0  0  0  0  0  0  0  0
    4.5031   -2.0964    0.0000 H   0  0  0  0  0  0  0  0  0  0  0  0
    4.4696    0.7301    0.0000 H   0  0  0  0  0  0  0  0  0  0  0  0
    3.6586    0.5559    0.0000 H   0  0  0  0  0  0  0  0  0  0  0  0
    5.0394   -1.8145    0.0000 H   0  0  0  0  0  0  0  0  0  0  0  0
    5.5910   -1.1950    0.0000 H   0  0  0  0  0  0  0  0  0  0  0  0
    2.6020    0.0600    0.0000 H   0  0  0  0  0  0  0  0  0  0  0  0
    1.9132   -0.3412    0.0000 H   0  0  0  0  0  0  0  0  0  0  0  0
    9.1992   -1.0246    0.0000 H   0  0  0  0  0  0  0  0  0  0  0  0
    1.5235   -1.0223    0.0000 H   0  0  0  0  0  0  0  0  0  0  0  0
    1.5266   -1.8193    0.0000 H   0  0  0  0  0  0  0  0  0  0  0  0
    3.8154   -2.8150    0.0000 H   0  0  0  0  0  0  0  0  0  0  0  0
    7.5178   -1.8390    0.0000 H   0  0  0  0  0  0  0  0  0  0  0  0
    7.9927   -2.6617    0.0000 H   0  0  0  0  0  0  0  0  0  0  0  0
    9.2080   -2.6617    0.0000 H   0  0  0  0  0  0  0  0  0  0  0  0
    9.6830   -1.8390    0.0000 H   0  0  0  0  0  0  0  0  0  0  0  0
    1.9216   -2.4974    0.0000 H   0  0  0  0  0  0  0  0  0  0  0  0
    2.6134   -2.8932    0.0000 H   0  0  0  0  0  0  0  0  0  0  0  0
    5.3986    1.6478    0.0000 H   0  0  0  0  0  0  0  0  0  0  0  0
   10.0033    0.0049    0.0000 H   0  0  0  0  0  0  0  0  0  0  0  0
    6.8476    2.4696    0.0000 H   0  0  0  0  0  0  0  0  0  0  0  0
    5.6756   -1.1963    0.0000 H   0  0  0  0  0  0  0  0  0  0  0  0
    5.4584   -2.0458    0.0000 H   0  0  0  0  0  0  0  0  0  0  0  0
    6.3080   -2.2629    0.0000 H   0  0  0  0  0  0  0  0  0  0  0  0
   11.7354    1.6249    0.0000 H   0  0  0  0  0  0  0  0  0  0  0  0
  1 20  1  0  0  0  0
  1 28  1  0  0  0  0
  2 26  2  0  0  0  0
  3 27  1  0  0  0  0
  3 53  1  0  0  0  0
  4 27  2  0  0  0  0
  5 10  1  0  0  0  0
  5 11  1  0  0  0  0
  5 18  1  0  0  0  0
  6  9  1  0  0  0  0
  6 17  1  0  0  0  0
  6 40  1  0  0  0  0
  7 13  1  0  0  0  0
  7 19  1  0  0  0  0
  7 23  1  0  0  0  0
  8  9  1  0  0  0  0
  8 10  1  0  0  0  0
  8 12  1  0  0  0  0
  8 29  1  6  0  0  0
  9 11  1  0  0  0  0
  9 30  1  6  0  0  0
 10 31  1  0  0  0  0
 10 32  1  0  0  0  0
 11 33  1  0  0  0  0
 11 34  1  0  0  0  0
 12 14  1  0  0  0  0
 12 35  1  0  0  0  0
 12 36  1  0  0  0  0
 13 15  1  0  0  0  0
 13 16  1  0  0  0  0
 13 37  1  0  0  0  0
 14 17  1  0  0  0  0
 14 38  1  0  0  0  0
 14 39  1  0  0  0  0
 15 16  1  0  0  0  0
 15 41  1  0  0  0  0
 15 42  1  0  0  0  0
 16 43  1  0  0  0  0
 16 44  1  0  0  0  0
 17 45  1  0  0  0  0
 17 46  1  0  0  0  0
 18 20  2  0  0  0  0
 18 22  1  0  0  0  0
 19 20  1  0  0  0  0
 19 21  2  0  0  0  0
 21 24  1  0  0  0  0
 21 26  1  0  0  0  0
 22 24  2  0  0  0  0
 22 47  1  0  0  0  0
 23 25  2  0  0  0  0
 23 48  1  0  0  0  0
 24 49  1  0  0  0  0
 25 26  1  0  0  0  0
 25 27  1  0  0  0  0
 28 50  1  0  0  0  0
 28 51  1  0  0  0  0
 28 52  1  0  0  0  0
M  END
> <PUBCHEM_COMPOUND_CID>
510383
> <PUBCHEM_COMPOUND_CANONICALIZED>
1
> <PUBCHEM_CACTVS_COMPLEXITY>
691
> <PUBCHEM_CACTVS_HBOND_ACCEPTOR>
7
> <PUBCHEM_CACTVS_HBOND_DONOR>
2
> <PUBCHEM_CACTVS_ROTATABLE_BOND>
4
> <PUBCHEM_CACTVS_SUBSKEYS>
AAADceB7OAAAAAAAAAAAAAAAGAAAAWAAAAA8QIAAAAAAAFiBAAAAHgAQCAAADSzBmAYyzoPABgCIAqTWSACCCAAlIgAIiIENbMgOZj7M9NuVcahk8BHY+cea2bOeCAABAAQCEAAQAAIACAQgAAAAAAAAAA==
> <PUBCHEM_IUPAC_OPENEYE_NAME>
7-[(4aS,7aS)-1,2,3,4,4a,5,7,7a-octahydropyrrolo[3,4-b]pyridin-6-yl]-1-cyclopropyl-8-methoxy-4-oxo-quinoline-3-carboxylic acid
> <PUBCHEM_IUPAC_CAS_NAME>
7-[(4aS,7aS)-1,2,3,4,4a,5,7,7a-octahydropyrrolo[3,4-b]pyridin-6-yl]-1-cyclopropyl-8-methoxy-4-oxo-3-quinolinecarboxylic acid
> <PUBCHEM_IUPAC_NAME_MARKUP>
7-[(4<I>a</I><I>S</I>,7<I>a</I><I>S</I>)-1,2,3,4,4<I>a</I>,5,7,7<I>a</I>-octahydropyrrolo[3,4-b]pyridin-6-yl]-1-cyclopropyl-8-methoxy-4-oxoquinoline-3-carboxylic acid
> <PUBCHEM_IUPAC_NAME>
7-[(4aS,7aS)-1,2,3,4,4a,5,7,7a-octahydropyrrolo[3,4-b]pyridin-6-yl]-1-cyclopropyl-8-methoxy-4-oxoquinoline-3-carboxylic acid
> <PUBCHEM_IUPAC_SYSTEMATIC_NAME>
7-[(4aS,7aS)-1,2,3,4,4a,5,7,7a-octahydropyrrolo[3,4-b]pyridin-6-yl]-1-cyclopropyl-8-methoxy-4-oxidanylidene-quinoline-3-carboxylic acid
> <PUBCHEM_IUPAC_TRADITIONAL_NAME>
7-[(4aS,7aS)-1,2,3,4,4a,5,7,7a-octahydropyrrolo[3,4-b]pyridin-6-yl]-1-cyclopropyl-4-keto-8-methoxy-quinoline-3-carboxylic acid
> <PUBCHEM_IUPAC_INCHI>
InChI=1S/C21H25N3O4/c1-28-20-17(23-9-12-3-2-8-22-16(12)11-23)7-6-14-18(20)24(13-4-5-13)10-15(19(14)25)21(26)27/h6-7,10,12-13,16,22H,2-5,8-9,11H2,1H3,(H,26,27)/t12-,16+/m0/s1
> <PUBCHEM_IUPAC_INCHIKEY>
BHEIRUWTKHGJOV-BLLLJJGKSA-N
> <PUBCHEM_XLOGP3_AA>
0.5
> <PUBCHEM_EXACT_MASS>
383.18450629
> <PUBCHEM_MOLECULAR_FORMULA>
C21H25N3O4
> <PUBCHEM_MOLECULAR_WEIGHT>
383.4
> <PUBCHEM_OPENEYE_CAN_SMILES>
COC1=C(C=CC2=C1N(C=C(C2=O)C(=O)O)C3CC3)N4CC5CCCNC5C4
> <PUBCHEM_OPENEYE_ISO_SMILES>
COC1=C(C=CC2=C1N(C=C(C2=O)C(=O)O)C3CC3)N4C[C@@H]5CCCN[C@@H]5C4
> <PUBCHEM_CACTVS_TPSA>
82.1
> <PUBCHEM_MONOISOTOPIC_WEIGHT>
383.18450629
> <PUBCHEM_TOTAL_CHARGE>
0
> <PUBCHEM_HEAVY_ATOM_COUNT>
28
> <PUBCHEM_ATOM_DEF_STEREO_COUNT>
2
> <PUBCHEM_ATOM_UDEF_STEREO_COUNT>
0
> <PUBCHEM_BOND_DEF_STEREO_COUNT>
0
> <PUBCHEM_BOND_UDEF_STEREO_COUNT>
0
> <PUBCHEM_ISOTOPIC_ATOM_COUNT>
0
> <PUBCHEM_COMPONENT_COUNT>
1
> <PUBCHEM_CACTVS_TAUTO_COUNT>
-1
> <PUBCHEM_COORDINATE_TYPE>
1
5
255
> <PUBCHEM_BONDANNOTATIONS>
18  20  8
18  22  8
19  20  8
19  21  8
21  24  8
21  26  8
22  24  8
23  25  8
25  26  8
7  19  8
7  23  8
8  29  6
9  30  6
$$$$
