510455
  -OEChem-10302200282D
 47 49  0     1  0  0  0  0  0999 V2000
    7.2641   -4.2500    0.0000 S   0  0  0  0  0  0  0  0  0  0  0  0
    6.3981    0.2500    0.0000 O   0  0  0  0  0  0  0  0  0  0  0  0
    4.6660   -2.7500    0.0000 O   0  0  0  0  0  0  0  0  0  0  0  0
    6.3981    1.2500    0.0000 O   0  0  0  0  0  0  0  0  0  0  0  0
    5.5321   -1.2500    0.0000 N   0  0  0  0  0  0  0  0  0  0  0  0
    4.6660    0.2500    0.0000 C   0  0  3  0  0  0  0  0  0  0  0  0
    3.8000   -0.2500    0.0000 C   0  0  0  0  0  0  0  0  0  0  0  0
    5.5321   -0.2500    0.0000 C   0  0  0  0  0  0  0  0  0  0  0  0
    4.6660    1.2500    0.0000 C   0  0  0  0  0  0  0  0  0  0  0  0
    3.8000   -1.2500    0.0000 C   0  0  0  0  0  0  0  0  0  0  0  0
    6.3981   -1.7500    0.0000 C   0  0  0  0  0  0  0  0  0  0  0  0
    4.6660   -1.7500    0.0000 C   0  0  0  0  0  0  0  0  0  0  0  0
    6.3981   -2.7500    0.0000 C   0  0  0  0  0  0  0  0  0  0  0  0
    2.9061    0.2847    0.0000 C   0  0  0  0  0  0  0  0  0  0  0  0
    2.9061   -1.7847    0.0000 C   0  0  0  0  0  0  0  0  0  0  0  0
    5.5321    1.7500    0.0000 C   0  0  0  0  0  0  0  0  0  0  0  0
    2.0000   -0.2292    0.0000 C   0  0  0  0  0  0  0  0  0  0  0  0
    7.2641   -3.2500    0.0000 C   0  0  0  0  0  0  0  0  0  0  0  0
    2.0000   -1.2708    0.0000 C   0  0  0  0  0  0  0  0  0  0  0  0
    5.5321    2.7500    0.0000 C   0  0  0  0  0  0  0  0  0  0  0  0
    4.6660    3.2500    0.0000 C   0  0  0  0  0  0  0  0  0  0  0  0
    6.3981    3.2500    0.0000 C   0  0  0  0  0  0  0  0  0  0  0  0
    4.6660    4.2500    0.0000 C   0  0  0  0  0  0  0  0  0  0  0  0
    6.3981    4.2500    0.0000 C   0  0  0  0  0  0  0  0  0  0  0  0
    5.5321    4.7500    0.0000 C   0  0  0  0  0  0  0  0  0  0  0  0
    8.1301   -4.7500    0.0000 C   0  0  0  0  0  0  0  0  0  0  0  0
    5.2030    0.5600    0.0000 H   0  0  0  0  0  0  0  0  0  0  0  0
    4.4540    1.8326    0.0000 H   0  0  0  0  0  0  0  0  0  0  0  0
    4.0555    1.1423    0.0000 H   0  0  0  0  0  0  0  0  0  0  0  0
    7.0087   -1.8577    0.0000 H   0  0  0  0  0  0  0  0  0  0  0  0
    6.6101   -1.1674    0.0000 H   0  0  0  0  0  0  0  0  0  0  0  0
    5.7875   -2.6423    0.0000 H   0  0  0  0  0  0  0  0  0  0  0  0
    6.1860   -3.3326    0.0000 H   0  0  0  0  0  0  0  0  0  0  0  0
    2.9132    0.9046    0.0000 H   0  0  0  0  0  0  0  0  0  0  0  0
    2.9132   -2.4046    0.0000 H   0  0  0  0  0  0  0  0  0  0  0  0
    1.4643    0.0829    0.0000 H   0  0  0  0  0  0  0  0  0  0  0  0
    7.8747   -3.3577    0.0000 H   0  0  0  0  0  0  0  0  0  0  0  0
    7.4762   -2.6674    0.0000 H   0  0  0  0  0  0  0  0  0  0  0  0
    1.4643   -1.5829    0.0000 H   0  0  0  0  0  0  0  0  0  0  0  0
    4.1291    2.9400    0.0000 H   0  0  0  0  0  0  0  0  0  0  0  0
    6.9350    2.9400    0.0000 H   0  0  0  0  0  0  0  0  0  0  0  0
    4.1291    4.5600    0.0000 H   0  0  0  0  0  0  0  0  0  0  0  0
    6.9350    4.5600    0.0000 H   0  0  0  0  0  0  0  0  0  0  0  0
    5.5321    5.3700    0.0000 H   0  0  0  0  0  0  0  0  0  0  0  0
    7.8201   -5.2869    0.0000 H   0  0  0  0  0  0  0  0  0  0  0  0
    8.6671   -5.0600    0.0000 H   0  0  0  0  0  0  0  0  0  0  0  0
    8.4401   -4.2131    0.0000 H   0  0  0  0  0  0  0  0  0  0  0  0
  1 18  1  0  0  0  0
  1 26  1  0  0  0  0
  2  8  2  0  0  0  0
  3 12  2  0  0  0  0
  4 16  2  0  0  0  0
  5  8  1  0  0  0  0
  5 11  1  0  0  0  0
  5 12  1  0  0  0  0
  6  7  1  0  0  0  0
  6  8  1  0  0  0  0
  6  9  1  0  0  0  0
  6 27  1  0  0  0  0
  7 10  1  0  0  0  0
  7 14  2  0  0  0  0
  9 16  1  0  0  0  0
  9 28  1  0  0  0  0
  9 29  1  0  0  0  0
 10 12  1  0  0  0  0
 10 15  2  0  0  0  0
 11 13  1  0  0  0  0
 11 30  1  0  0  0  0
 11 31  1  0  0  0  0
 13 18  1  0  0  0  0
 13 32  1  0  0  0  0
 13 33  1  0  0  0  0
 14 17  1  0  0  0  0
 14 34  1  0  0  0  0
 15 19  1  0  0  0  0
 15 35  1  0  0  0  0
 16 20  1  0  0  0  0
 17 19  2  0  0  0  0
 17 36  1  0  0  0  0
 18 37  1  0  0  0  0
 18 38  1  0  0  0  0
 19 39  1  0  0  0  0
 20 21  2  0  0  0  0
 20 22  1  0  0  0  0
 21 23  1  0  0  0  0
 21 40  1  0  0  0  0
 22 24  2  0  0  0  0
 22 41  1  0  0  0  0
 23 25  2  0  0  0  0
 23 42  1  0  0  0  0
 24 25  1  0  0  0  0
 24 43  1  0  0  0  0
 25 44  1  0  0  0  0
 26 45  1  0  0  0  0
 26 46  1  0  0  0  0
 26 47  1  0  0  0  0
M  END
> <PUBCHEM_COMPOUND_CID>
510455
> <PUBCHEM_COMPOUND_CANONICALIZED>
1
> <PUBCHEM_CACTVS_COMPLEXITY>
529
> <PUBCHEM_CACTVS_HBOND_ACCEPTOR>
4
> <PUBCHEM_CACTVS_HBOND_DONOR>
0
> <PUBCHEM_CACTVS_ROTATABLE_BOND>
7
> <PUBCHEM_CACTVS_SUBSKEYS>
AAADceB6MABAAAAAAAAAAAAAAAAAAAAAAAA8YIAAAAAAAACxQAAAHgQAAAAADQTF2ASyAIMAAAiIAqFSEACCAAAkABAIiAEIBMgIIDKglRGEIQhghiCIiYcdi8COgAAAAAAQAAAAAAAAACAAAAAAAAAAAA==
> <PUBCHEM_IUPAC_OPENEYE_NAME>
2-(3-methylsulfanylpropyl)-4-phenacyl-4H-isoquinoline-1,3-dione
> <PUBCHEM_IUPAC_CAS_NAME>
2-[3-(methylthio)propyl]-4-phenacyl-4H-isoquinoline-1,3-dione
> <PUBCHEM_IUPAC_NAME_MARKUP>
2-(3-methylsulfanylpropyl)-4-phenacyl-4<I>H</I>-isoquinoline-1,3-dione
> <PUBCHEM_IUPAC_NAME>
2-(3-methylsulfanylpropyl)-4-phenacyl-4H-isoquinoline-1,3-dione
> <PUBCHEM_IUPAC_SYSTEMATIC_NAME>
2-(3-methylsulfanylpropyl)-4-phenacyl-4H-isoquinoline-1,3-dione
> <PUBCHEM_IUPAC_TRADITIONAL_NAME>
2-[3-(methylthio)propyl]-4-phenacyl-4H-isoquinoline-1,3-quinone
> <PUBCHEM_IUPAC_INCHI>
InChI=1S/C21H21NO3S/c1-26-13-7-12-22-20(24)17-11-6-5-10-16(17)18(21(22)25)14-19(23)15-8-3-2-4-9-15/h2-6,8-11,18H,7,12-14H2,1H3
> <PUBCHEM_IUPAC_INCHIKEY>
IUOREPYUPVFRTJ-UHFFFAOYSA-N
> <PUBCHEM_XLOGP3_AA>
3.2
> <PUBCHEM_EXACT_MASS>
367.12421471
> <PUBCHEM_MOLECULAR_FORMULA>
C21H21NO3S
> <PUBCHEM_MOLECULAR_WEIGHT>
367.5
> <PUBCHEM_OPENEYE_CAN_SMILES>
CSCCCN1C(=O)C(C2=CC=CC=C2C1=O)CC(=O)C3=CC=CC=C3
> <PUBCHEM_OPENEYE_ISO_SMILES>
CSCCCN1C(=O)C(C2=CC=CC=C2C1=O)CC(=O)C3=CC=CC=C3
> <PUBCHEM_CACTVS_TPSA>
79.8
> <PUBCHEM_MONOISOTOPIC_WEIGHT>
367.12421471
> <PUBCHEM_TOTAL_CHARGE>
0
> <PUBCHEM_HEAVY_ATOM_COUNT>
26
> <PUBCHEM_ATOM_DEF_STEREO_COUNT>
0
> <PUBCHEM_ATOM_UDEF_STEREO_COUNT>
1
> <PUBCHEM_BOND_DEF_STEREO_COUNT>
0
> <PUBCHEM_BOND_UDEF_STEREO_COUNT>
0
> <PUBCHEM_ISOTOPIC_ATOM_COUNT>
0
> <PUBCHEM_COMPONENT_COUNT>
1
> <PUBCHEM_CACTVS_TAUTO_COUNT>
-1
> <PUBCHEM_COORDINATE_TYPE>
1
5
255
> <PUBCHEM_BONDANNOTATIONS>
10  15  8
14  17  8
15  19  8
17  19  8
20  21  8
20  22  8
21  23  8
22  24  8
23  25  8
24  25  8
6  9  3
7  10  8
7  14  8
$$$$
