510489
  -OEChem-10302200282D
 53 56  0     1  0  0  0  0  0999 V2000
    9.3191   -0.0482    0.0000 S   0  0  0  0  0  0  0  0  0  0  0  0
    2.0000   -0.8034    0.0000 F   0  0  0  0  0  0  0  0  0  0  0  0
   10.2510    2.8034    0.0000 O   0  0  0  0  0  0  0  0  0  0  0  0
   10.2696   -0.3588    0.0000 O   0  0  0  0  0  0  0  0  0  0  0  0
    8.3685    0.2625    0.0000 O   0  0  0  0  0  0  0  0  0  0  0  0
    6.3301    0.6966    0.0000 O   0  0  0  0  0  0  0  0  0  0  0  0
    9.6297    0.9024    0.0000 N   0  0  0  0  0  0  0  0  0  0  0  0
    9.0084   -0.9987    0.0000 N   0  0  0  0  0  0  0  0  0  0  0  0
    9.0084   -2.6081    0.0000 N   0  0  0  0  0  0  0  0  0  0  0  0
   10.5920   -1.8034    0.0000 N   0  0  0  0  0  0  0  0  0  0  0  0
    4.5981    0.6966    0.0000 N   0  0  0  0  0  0  0  0  0  0  0  0
    8.9619    1.6467    0.0000 C   0  0  0  0  0  0  0  0  0  0  0  0
   10.6082    1.1086    0.0000 C   0  0  0  0  0  0  0  0  0  0  0  0
    8.0622   -1.3034    0.0000 C   0  0  0  0  0  0  0  0  0  0  0  0
    9.2725    2.5972    0.0000 C   0  0  0  0  0  0  0  0  0  0  0  0
   10.9189    2.0591    0.0000 C   0  0  0  0  0  0  0  0  0  0  0  0
    8.0622   -2.3034    0.0000 C   0  0  0  0  0  0  0  0  0  0  0  0
    6.3301   -1.3034    0.0000 C   0  0  0  0  0  0  0  0  0  0  0  0
    7.1962   -0.8034    0.0000 C   0  0  0  0  0  0  0  0  0  0  0  0
    5.4641   -0.8034    0.0000 C   0  0  3  0  0  0  0  0  0  0  0  0
    9.5920   -1.8034    0.0000 C   0  0  0  0  0  0  0  0  0  0  0  0
    7.1962   -2.8034    0.0000 C   0  0  0  0  0  0  0  0  0  0  0  0
    6.3301   -2.3034    0.0000 C   0  0  0  0  0  0  0  0  0  0  0  0
    4.5981   -1.3034    0.0000 C   0  0  0  0  0  0  0  0  0  0  0  0
    5.4641    0.1966    0.0000 C   0  0  0  0  0  0  0  0  0  0  0  0
    3.7320   -0.8034    0.0000 C   0  0  0  0  0  0  0  0  0  0  0  0
    4.5981   -2.3034    0.0000 C   0  0  0  0  0  0  0  0  0  0  0  0
    2.8660   -1.3034    0.0000 C   0  0  0  0  0  0  0  0  0  0  0  0
    3.7320   -2.8034    0.0000 C   0  0  0  0  0  0  0  0  0  0  0  0
    2.8660   -2.3034    0.0000 C   0  0  0  0  0  0  0  0  0  0  0  0
    4.5981    1.6966    0.0000 C   0  0  0  0  0  0  0  0  0  0  0  0
    8.4150    1.9387    0.0000 H   0  0  0  0  0  0  0  0  0  0  0  0
    8.5793    1.1588    0.0000 H   0  0  0  0  0  0  0  0  0  0  0  0
   10.6288    0.4889    0.0000 H   0  0  0  0  0  0  0  0  0  0  0  0
   11.2220    1.0212    0.0000 H   0  0  0  0  0  0  0  0  0  0  0  0
    9.2520    3.2168    0.0000 H   0  0  0  0  0  0  0  0  0  0  0  0
    8.6587    2.6845    0.0000 H   0  0  0  0  0  0  0  0  0  0  0  0
   11.4658    1.7671    0.0000 H   0  0  0  0  0  0  0  0  0  0  0  0
   11.3014    2.5470    0.0000 H   0  0  0  0  0  0  0  0  0  0  0  0
    6.0010   -0.4934    0.0000 H   0  0  0  0  0  0  0  0  0  0  0  0
    7.1962   -0.1834    0.0000 H   0  0  0  0  0  0  0  0  0  0  0  0
    7.1962   -3.4234    0.0000 H   0  0  0  0  0  0  0  0  0  0  0  0
    5.7932   -2.6134    0.0000 H   0  0  0  0  0  0  0  0  0  0  0  0
   10.9020   -2.3403    0.0000 H   0  0  0  0  0  0  0  0  0  0  0  0
   10.9020   -1.2665    0.0000 H   0  0  0  0  0  0  0  0  0  0  0  0
    3.7320   -0.1834    0.0000 H   0  0  0  0  0  0  0  0  0  0  0  0
    5.1350   -2.6134    0.0000 H   0  0  0  0  0  0  0  0  0  0  0  0
    4.0611    0.3866    0.0000 H   0  0  0  0  0  0  0  0  0  0  0  0
    3.7320   -3.4234    0.0000 H   0  0  0  0  0  0  0  0  0  0  0  0
    2.3291   -2.6134    0.0000 H   0  0  0  0  0  0  0  0  0  0  0  0
    5.2181    1.6966    0.0000 H   0  0  0  0  0  0  0  0  0  0  0  0
    4.5981    2.3166    0.0000 H   0  0  0  0  0  0  0  0  0  0  0  0
    3.9781    1.6966    0.0000 H   0  0  0  0  0  0  0  0  0  0  0  0
  1  4  2  0  0  0  0
  1  5  2  0  0  0  0
  1  7  1  0  0  0  0
  1  8  1  0  0  0  0
  2 28  1  0  0  0  0
  3 15  1  0  0  0  0
  3 16  1  0  0  0  0
  6 25  2  0  0  0  0
  7 12  1  0  0  0  0
  7 13  1  0  0  0  0
  8 14  1  0  0  0  0
  8 21  1  0  0  0  0
  9 17  1  0  0  0  0
  9 21  2  0  0  0  0
 10 21  1  0  0  0  0
 10 44  1  0  0  0  0
 10 45  1  0  0  0  0
 11 25  1  0  0  0  0
 11 31  1  0  0  0  0
 11 48  1  0  0  0  0
 12 15  1  0  0  0  0
 12 32  1  0  0  0  0
 12 33  1  0  0  0  0
 13 16  1  0  0  0  0
 13 34  1  0  0  0  0
 13 35  1  0  0  0  0
 14 17  2  0  0  0  0
 14 19  1  0  0  0  0
 15 36  1  0  0  0  0
 15 37  1  0  0  0  0
 16 38  1  0  0  0  0
 16 39  1  0  0  0  0
 17 22  1  0  0  0  0
 18 19  2  0  0  0  0
 18 20  1  0  0  0  0
 18 23  1  0  0  0  0
 19 41  1  0  0  0  0
 20 24  1  0  0  0  0
 20 25  1  0  0  0  0
 20 40  1  0  0  0  0
 22 23  2  0  0  0  0
 22 42  1  0  0  0  0
 23 43  1  0  0  0  0
 24 26  2  0  0  0  0
 24 27  1  0  0  0  0
 26 28  1  0  0  0  0
 26 46  1  0  0  0  0
 27 29  2  0  0  0  0
 27 47  1  0  0  0  0
 28 30  2  0  0  0  0
 29 30  1  0  0  0  0
 29 49  1  0  0  0  0
 30 50  1  0  0  0  0
 31 51  1  0  0  0  0
 31 52  1  0  0  0  0
 31 53  1  0  0  0  0
M  END
> <PUBCHEM_COMPOUND_CID>
510489
> <PUBCHEM_COMPOUND_CANONICALIZED>
1
> <PUBCHEM_CACTVS_COMPLEXITY>
744
> <PUBCHEM_CACTVS_HBOND_ACCEPTOR>
8
> <PUBCHEM_CACTVS_HBOND_DONOR>
2
> <PUBCHEM_CACTVS_ROTATABLE_BOND>
5
> <PUBCHEM_CACTVS_SUBSKEYS>
AAADceB7uQBAAAAAAAAAAAAAAAAAAWAAAAA8YIAAAAAAAFgB9AAAHwAQQAAADQjhng4z0LbIFACoAyVydDCCgC0hEqAJmKE4dJiKaLLAnZGXIAhokgLYyCcYicCeiAAAQAAAACAQAACAAAAAQAAAAAAAAA==
> <PUBCHEM_IUPAC_OPENEYE_NAME>
2-(2-amino-3-morpholinosulfonyl-benzimidazol-5-yl)-2-(3-fluorophenyl)-N-methyl-acetamide
> <PUBCHEM_IUPAC_CAS_NAME>
2-[2-amino-3-(4-morpholinylsulfonyl)-5-benzimidazolyl]-2-(3-fluorophenyl)-N-methylacetamide
> <PUBCHEM_IUPAC_NAME_MARKUP>
2-(2-amino-3-morpholin-4-ylsulfonylbenzimidazol-5-yl)-2-(3-fluorophenyl)-<I>N</I>-methylacetamide
> <PUBCHEM_IUPAC_NAME>
2-(2-amino-3-morpholin-4-ylsulfonylbenzimidazol-5-yl)-2-(3-fluorophenyl)-N-methylacetamide
> <PUBCHEM_IUPAC_SYSTEMATIC_NAME>
2-(2-azanyl-3-morpholin-4-ylsulfonyl-benzimidazol-5-yl)-2-(3-fluorophenyl)-N-methyl-ethanamide
> <PUBCHEM_IUPAC_TRADITIONAL_NAME>
2-(2-amino-3-morpholinosulfonyl-benzimidazol-5-yl)-2-(3-fluorophenyl)-N-methyl-acetamide
> <PUBCHEM_IUPAC_INCHI>
InChI=1S/C20H22FN5O4S/c1-23-19(27)18(13-3-2-4-15(21)11-13)14-5-6-16-17(12-14)26(20(22)24-16)31(28,29)25-7-9-30-10-8-25/h2-6,11-12,18H,7-10H2,1H3,(H2,22,24)(H,23,27)
> <PUBCHEM_IUPAC_INCHIKEY>
YHZGAPQQLHZXOF-UHFFFAOYSA-N
> <PUBCHEM_XLOGP3_AA>
1.9
> <PUBCHEM_EXACT_MASS>
447.13765354
> <PUBCHEM_MOLECULAR_FORMULA>
C20H22FN5O4S
> <PUBCHEM_MOLECULAR_WEIGHT>
447.5
> <PUBCHEM_OPENEYE_CAN_SMILES>
CNC(=O)C(C1=CC(=CC=C1)F)C2=CC3=C(C=C2)N=C(N3S(=O)(=O)N4CCOCC4)N
> <PUBCHEM_OPENEYE_ISO_SMILES>
CNC(=O)C(C1=CC(=CC=C1)F)C2=CC3=C(C=C2)N=C(N3S(=O)(=O)N4CCOCC4)N
> <PUBCHEM_CACTVS_TPSA>
128
> <PUBCHEM_MONOISOTOPIC_WEIGHT>
447.13765354
> <PUBCHEM_TOTAL_CHARGE>
0
> <PUBCHEM_HEAVY_ATOM_COUNT>
31
> <PUBCHEM_ATOM_DEF_STEREO_COUNT>
0
> <PUBCHEM_ATOM_UDEF_STEREO_COUNT>
1
> <PUBCHEM_BOND_DEF_STEREO_COUNT>
0
> <PUBCHEM_BOND_UDEF_STEREO_COUNT>
0
> <PUBCHEM_ISOTOPIC_ATOM_COUNT>
0
> <PUBCHEM_COMPONENT_COUNT>
1
> <PUBCHEM_CACTVS_TAUTO_COUNT>
-1
> <PUBCHEM_COORDINATE_TYPE>
1
5
255
> <PUBCHEM_BONDANNOTATIONS>
14  17  8
14  19  8
17  22  8
18  19  8
18  23  8
20  25  3
22  23  8
24  26  8
24  27  8
26  28  8
27  29  8
28  30  8
29  30  8
8  14  8
8  21  8
9  17  8
9  21  8
$$$$
