510453
  -OEChem-10302200282D
 36 37  0     1  0  0  0  0  0999 V2000
    6.3981    1.5000    0.0000 O   0  0  0  0  0  0  0  0  0  0  0  0
    4.6660   -1.5000    0.0000 O   0  0  0  0  0  0  0  0  0  0  0  0
    3.8000    3.0000    0.0000 O   0  0  0  0  0  0  0  0  0  0  0  0
    5.5321   -0.0000    0.0000 N   0  0  0  0  0  0  0  0  0  0  0  0
    4.6660    1.5000    0.0000 C   0  0  3  0  0  0  0  0  0  0  0  0
    3.8000    1.0000    0.0000 C   0  0  0  0  0  0  0  0  0  0  0  0
    6.3981   -0.5000    0.0000 C   0  0  0  0  0  0  0  0  0  0  0  0
    5.5321    1.0000    0.0000 C   0  0  0  0  0  0  0  0  0  0  0  0
    3.8000    0.0000    0.0000 C   0  0  0  0  0  0  0  0  0  0  0  0
    6.3981   -1.5000    0.0000 C   0  0  0  0  0  0  0  0  0  0  0  0
    4.6660   -0.5000    0.0000 C   0  0  0  0  0  0  0  0  0  0  0  0
    7.2641   -2.0000    0.0000 C   0  0  0  0  0  0  0  0  0  0  0  0
    4.6660    2.5000    0.0000 C   0  0  0  0  0  0  0  0  0  0  0  0
    2.9061    1.5347    0.0000 C   0  0  0  0  0  0  0  0  0  0  0  0
    2.9061   -0.5347    0.0000 C   0  0  0  0  0  0  0  0  0  0  0  0
    2.0000    1.0208    0.0000 C   0  0  0  0  0  0  0  0  0  0  0  0
    2.0000   -0.0208    0.0000 C   0  0  0  0  0  0  0  0  0  0  0  0
    7.2641   -3.0000    0.0000 C   0  0  0  0  0  0  0  0  0  0  0  0
    5.5321    3.0000    0.0000 C   0  0  0  0  0  0  0  0  0  0  0  0
    5.2030    1.8100    0.0000 H   0  0  0  0  0  0  0  0  0  0  0  0
    7.0087   -0.6077    0.0000 H   0  0  0  0  0  0  0  0  0  0  0  0
    6.6101    0.0826    0.0000 H   0  0  0  0  0  0  0  0  0  0  0  0
    5.7875   -1.3923    0.0000 H   0  0  0  0  0  0  0  0  0  0  0  0
    6.1860   -2.0826    0.0000 H   0  0  0  0  0  0  0  0  0  0  0  0
    7.8747   -2.1077    0.0000 H   0  0  0  0  0  0  0  0  0  0  0  0
    7.4762   -1.4174    0.0000 H   0  0  0  0  0  0  0  0  0  0  0  0
    2.9132    2.1546    0.0000 H   0  0  0  0  0  0  0  0  0  0  0  0
    2.9132   -1.1546    0.0000 H   0  0  0  0  0  0  0  0  0  0  0  0
    1.4643    1.3329    0.0000 H   0  0  0  0  0  0  0  0  0  0  0  0
    1.4643   -0.3329    0.0000 H   0  0  0  0  0  0  0  0  0  0  0  0
    6.6441   -3.0000    0.0000 H   0  0  0  0  0  0  0  0  0  0  0  0
    7.2641   -3.6200    0.0000 H   0  0  0  0  0  0  0  0  0  0  0  0
    7.8841   -3.0000    0.0000 H   0  0  0  0  0  0  0  0  0  0  0  0
    5.8421    2.4631    0.0000 H   0  0  0  0  0  0  0  0  0  0  0  0
    6.0690    3.3100    0.0000 H   0  0  0  0  0  0  0  0  0  0  0  0
    5.2221    3.5369    0.0000 H   0  0  0  0  0  0  0  0  0  0  0  0
  1  8  2  0  0  0  0
  2 11  2  0  0  0  0
  3 13  2  0  0  0  0
  4  7  1  0  0  0  0
  4  8  1  0  0  0  0
  4 11  1  0  0  0  0
  5  6  1  0  0  0  0
  5  8  1  0  0  0  0
  5 13  1  0  0  0  0
  5 20  1  0  0  0  0
  6  9  1  0  0  0  0
  6 14  2  0  0  0  0
  7 10  1  0  0  0  0
  7 21  1  0  0  0  0
  7 22  1  0  0  0  0
  9 11  1  0  0  0  0
  9 15  2  0  0  0  0
 10 12  1  0  0  0  0
 10 23  1  0  0  0  0
 10 24  1  0  0  0  0
 12 18  1  0  0  0  0
 12 25  1  0  0  0  0
 12 26  1  0  0  0  0
 13 19  1  0  0  0  0
 14 16  1  0  0  0  0
 14 27  1  0  0  0  0
 15 17  1  0  0  0  0
 15 28  1  0  0  0  0
 16 17  2  0  0  0  0
 16 29  1  0  0  0  0
 17 30  1  0  0  0  0
 18 31  1  0  0  0  0
 18 32  1  0  0  0  0
 18 33  1  0  0  0  0
 19 34  1  0  0  0  0
 19 35  1  0  0  0  0
 19 36  1  0  0  0  0
M  END
> <PUBCHEM_COMPOUND_CID>
510453
> <PUBCHEM_COMPOUND_CANONICALIZED>
1
> <PUBCHEM_CACTVS_COMPLEXITY>
391
> <PUBCHEM_CACTVS_HBOND_ACCEPTOR>
3
> <PUBCHEM_CACTVS_HBOND_DONOR>
0
> <PUBCHEM_CACTVS_ROTATABLE_BOND>
4
> <PUBCHEM_CACTVS_SUBSKEYS>
AAADceByMAAAAAAAAAAAAAAAAAAAAAAAAAA8QAAAAAAAAACxAAAAHgAAAAAADQTBmAQyAIMAAACIAqFSEACCAAAkAAAIiAEIBMgIIDqIlRGEIQhghiCIiYcYi8CugAAAAAAQAAAAAAAAACAAAAAAAAAAAA==
> <PUBCHEM_IUPAC_OPENEYE_NAME>
4-acetyl-2-butyl-4H-isoquinoline-1,3-dione
> <PUBCHEM_IUPAC_CAS_NAME>
4-acetyl-2-butyl-4H-isoquinoline-1,3-dione
> <PUBCHEM_IUPAC_NAME_MARKUP>
4-acetyl-2-butyl-4<I>H</I>-isoquinoline-1,3-dione
> <PUBCHEM_IUPAC_NAME>
4-acetyl-2-butyl-4H-isoquinoline-1,3-dione
> <PUBCHEM_IUPAC_SYSTEMATIC_NAME>
2-butyl-4-ethanoyl-4H-isoquinoline-1,3-dione
> <PUBCHEM_IUPAC_TRADITIONAL_NAME>
4-acetyl-2-butyl-4H-isoquinoline-1,3-quinone
> <PUBCHEM_IUPAC_INCHI>
InChI=1S/C15H17NO3/c1-3-4-9-16-14(18)12-8-6-5-7-11(12)13(10(2)17)15(16)19/h5-8,13H,3-4,9H2,1-2H3
> <PUBCHEM_IUPAC_INCHIKEY>
VMOMNJBNGBRCCU-UHFFFAOYSA-N
> <PUBCHEM_XLOGP3_AA>
2
> <PUBCHEM_EXACT_MASS>
259.12084340
> <PUBCHEM_MOLECULAR_FORMULA>
C15H17NO3
> <PUBCHEM_MOLECULAR_WEIGHT>
259.30
> <PUBCHEM_OPENEYE_CAN_SMILES>
CCCCN1C(=O)C(C2=CC=CC=C2C1=O)C(=O)C
> <PUBCHEM_OPENEYE_ISO_SMILES>
CCCCN1C(=O)C(C2=CC=CC=C2C1=O)C(=O)C
> <PUBCHEM_CACTVS_TPSA>
54.4
> <PUBCHEM_MONOISOTOPIC_WEIGHT>
259.12084340
> <PUBCHEM_TOTAL_CHARGE>
0
> <PUBCHEM_HEAVY_ATOM_COUNT>
19
> <PUBCHEM_ATOM_DEF_STEREO_COUNT>
0
> <PUBCHEM_ATOM_UDEF_STEREO_COUNT>
1
> <PUBCHEM_BOND_DEF_STEREO_COUNT>
0
> <PUBCHEM_BOND_UDEF_STEREO_COUNT>
0
> <PUBCHEM_ISOTOPIC_ATOM_COUNT>
0
> <PUBCHEM_COMPONENT_COUNT>
1
> <PUBCHEM_CACTVS_TAUTO_COUNT>
-1
> <PUBCHEM_COORDINATE_TYPE>
1
5
255
> <PUBCHEM_BONDANNOTATIONS>
14  16  8
15  17  8
16  17  8
5  13  3
6  14  8
6  9  8
9  15  8
$$$$
