510482
  -OEChem-10302200282D
 46 48  0     1  0  0  0  0  0999 V2000
    9.3191    1.0302    0.0000 S   0  0  0  0  0  0  0  0  0  0  0  0
    5.4641   -1.7250    0.0000 F   0  0  0  0  0  0  0  0  0  0  0  0
    3.7320    1.2750    0.0000 F   0  0  0  0  0  0  0  0  0  0  0  0
    2.0000    0.2750    0.0000 F   0  0  0  0  0  0  0  0  0  0  0  0
    3.7320   -2.7250    0.0000 F   0  0  0  0  0  0  0  0  0  0  0  0
   10.2696    0.7196    0.0000 O   0  0  0  0  0  0  0  0  0  0  0  0
    8.3685    1.3409    0.0000 O   0  0  0  0  0  0  0  0  0  0  0  0
    4.5981    1.7750    0.0000 O   0  0  0  0  0  0  0  0  0  0  0  0
    9.0084    0.0797    0.0000 N   0  0  0  0  0  0  0  0  0  0  0  0
    9.0084   -1.5298    0.0000 N   0  0  0  0  0  0  0  0  0  0  0  0
   10.5920   -0.7250    0.0000 N   0  0  0  0  0  0  0  0  0  0  0  0
    6.3301    1.7750    0.0000 N   0  0  0  0  0  0  0  0  0  0  0  0
    9.6297    1.9807    0.0000 C   0  0  0  0  0  0  0  0  0  0  0  0
    8.0622   -0.2250    0.0000 C   0  0  0  0  0  0  0  0  0  0  0  0
    6.3301   -0.2250    0.0000 C   0  0  0  0  0  0  0  0  0  0  0  0
    8.0622   -1.2250    0.0000 C   0  0  0  0  0  0  0  0  0  0  0  0
    5.4641    0.2750    0.0000 C   0  0  3  0  0  0  0  0  0  0  0  0
    7.1962    0.2750    0.0000 C   0  0  0  0  0  0  0  0  0  0  0  0
    9.5920   -0.7250    0.0000 C   0  0  0  0  0  0  0  0  0  0  0  0
   10.6082    2.1870    0.0000 C   0  0  0  0  0  0  0  0  0  0  0  0
    8.9619    2.7250    0.0000 C   0  0  0  0  0  0  0  0  0  0  0  0
    6.3301   -1.2250    0.0000 C   0  0  0  0  0  0  0  0  0  0  0  0
    7.1962   -1.7250    0.0000 C   0  0  0  0  0  0  0  0  0  0  0  0
    4.5981   -0.2250    0.0000 C   0  0  0  0  0  0  0  0  0  0  0  0
    5.4641    1.2750    0.0000 C   0  0  0  0  0  0  0  0  0  0  0  0
    4.5981   -1.2250    0.0000 C   0  0  0  0  0  0  0  0  0  0  0  0
    3.7320    0.2750    0.0000 C   0  0  0  0  0  0  0  0  0  0  0  0
    2.8660   -0.2250    0.0000 C   0  0  0  0  0  0  0  0  0  0  0  0
    3.7320   -1.7250    0.0000 C   0  0  0  0  0  0  0  0  0  0  0  0
    2.8660   -1.2250    0.0000 C   0  0  0  0  0  0  0  0  0  0  0  0
   10.0438    1.5193    0.0000 H   0  0  0  0  0  0  0  0  0  0  0  0
    6.0010    0.5850    0.0000 H   0  0  0  0  0  0  0  0  0  0  0  0
    7.1962    0.8950    0.0000 H   0  0  0  0  0  0  0  0  0  0  0  0
   10.7361    1.5803    0.0000 H   0  0  0  0  0  0  0  0  0  0  0  0
   11.2149    2.3148    0.0000 H   0  0  0  0  0  0  0  0  0  0  0  0
   10.4804    2.7936    0.0000 H   0  0  0  0  0  0  0  0  0  0  0  0
    9.4233    3.1391    0.0000 H   0  0  0  0  0  0  0  0  0  0  0  0
    8.5478    3.1865    0.0000 H   0  0  0  0  0  0  0  0  0  0  0  0
    8.5004    2.3110    0.0000 H   0  0  0  0  0  0  0  0  0  0  0  0
    5.7932   -1.5350    0.0000 H   0  0  0  0  0  0  0  0  0  0  0  0
    7.1962   -2.3450    0.0000 H   0  0  0  0  0  0  0  0  0  0  0  0
   10.9020   -1.2620    0.0000 H   0  0  0  0  0  0  0  0  0  0  0  0
   10.9020   -0.1881    0.0000 H   0  0  0  0  0  0  0  0  0  0  0  0
    6.3301    2.3950    0.0000 H   0  0  0  0  0  0  0  0  0  0  0  0
    6.8671    1.4650    0.0000 H   0  0  0  0  0  0  0  0  0  0  0  0
    2.3291   -1.5350    0.0000 H   0  0  0  0  0  0  0  0  0  0  0  0
  1  6  2  0  0  0  0
  1  7  2  0  0  0  0
  1  9  1  0  0  0  0
  1 13  1  0  0  0  0
  2 26  1  0  0  0  0
  3 27  1  0  0  0  0
  4 28  1  0  0  0  0
  5 29  1  0  0  0  0
  8 25  2  0  0  0  0
  9 14  1  0  0  0  0
  9 19  1  0  0  0  0
 10 16  1  0  0  0  0
 10 19  2  0  0  0  0
 11 19  1  0  0  0  0
 11 42  1  0  0  0  0
 11 43  1  0  0  0  0
 12 25  1  0  0  0  0
 12 44  1  0  0  0  0
 12 45  1  0  0  0  0
 13 20  1  0  0  0  0
 13 21  1  0  0  0  0
 13 31  1  0  0  0  0
 14 16  2  0  0  0  0
 14 18  1  0  0  0  0
 15 17  1  0  0  0  0
 15 18  2  0  0  0  0
 15 22  1  0  0  0  0
 16 23  1  0  0  0  0
 17 24  1  0  0  0  0
 17 25  1  0  0  0  0
 17 32  1  0  0  0  0
 18 33  1  0  0  0  0
 20 34  1  0  0  0  0
 20 35  1  0  0  0  0
 20 36  1  0  0  0  0
 21 37  1  0  0  0  0
 21 38  1  0  0  0  0
 21 39  1  0  0  0  0
 22 23  2  0  0  0  0
 22 40  1  0  0  0  0
 23 41  1  0  0  0  0
 24 26  2  0  0  0  0
 24 27  1  0  0  0  0
 26 29  1  0  0  0  0
 27 28  2  0  0  0  0
 28 30  1  0  0  0  0
 29 30  2  0  0  0  0
 30 46  1  0  0  0  0
M  END
> <PUBCHEM_COMPOUND_CID>
510482
> <PUBCHEM_COMPOUND_CANONICALIZED>
1
> <PUBCHEM_CACTVS_COMPLEXITY>
738
> <PUBCHEM_CACTVS_HBOND_ACCEPTOR>
9
> <PUBCHEM_CACTVS_HBOND_DONOR>
2
> <PUBCHEM_CACTVS_ROTATABLE_BOND>
5
> <PUBCHEM_CACTVS_SUBSKEYS>
AAADceB7scBAAAAAAAAAAAAAAAAAAWAAAAAwYAAAAAAAAFgB9AAAHwQQQAAADQiF3giz0LZIEAKoAyVydHDCgC0hEqAJmCEwdJiIaLLAnZGUIAhokAJIyCcYicCeiAAAQAAAACAQAACAAAAAQAAAAAAAAA==
> <PUBCHEM_IUPAC_OPENEYE_NAME>
2-(2-amino-3-isopropylsulfonyl-benzimidazol-5-yl)-2-(2,3,5,6-tetrafluorophenyl)acetamide
> <PUBCHEM_IUPAC_CAS_NAME>
2-(2-amino-3-propan-2-ylsulfonyl-5-benzimidazolyl)-2-(2,3,5,6-tetrafluorophenyl)acetamide
> <PUBCHEM_IUPAC_NAME_MARKUP>
2-(2-amino-3-propan-2-ylsulfonylbenzimidazol-5-yl)-2-(2,3,5,6-tetrafluorophenyl)acetamide
> <PUBCHEM_IUPAC_NAME>
2-(2-amino-3-propan-2-ylsulfonylbenzimidazol-5-yl)-2-(2,3,5,6-tetrafluorophenyl)acetamide
> <PUBCHEM_IUPAC_SYSTEMATIC_NAME>
2-(2-azanyl-3-propan-2-ylsulfonyl-benzimidazol-5-yl)-2-[2,3,5,6-tetrakis(fluoranyl)phenyl]ethanamide
> <PUBCHEM_IUPAC_TRADITIONAL_NAME>
2-(2-amino-3-isopropylsulfonyl-benzimidazol-5-yl)-2-(2,3,5,6-tetrafluorophenyl)acetamide
> <PUBCHEM_IUPAC_INCHI>
InChI=1S/C18H16F4N4O3S/c1-7(2)30(28,29)26-12-5-8(3-4-11(12)25-18(26)24)13(17(23)27)14-15(21)9(19)6-10(20)16(14)22/h3-7,13H,1-2H3,(H2,23,27)(H2,24,25)
> <PUBCHEM_IUPAC_INCHIKEY>
JZFIIYARDGMPKL-UHFFFAOYSA-N
> <PUBCHEM_XLOGP3_AA>
3
> <PUBCHEM_EXACT_MASS>
444.08792421
> <PUBCHEM_MOLECULAR_FORMULA>
C18H16F4N4O3S
> <PUBCHEM_MOLECULAR_WEIGHT>
444.4
> <PUBCHEM_OPENEYE_CAN_SMILES>
CC(C)S(=O)(=O)N1C2=C(C=CC(=C2)C(C3=C(C(=CC(=C3F)F)F)F)C(=O)N)N=C1N
> <PUBCHEM_OPENEYE_ISO_SMILES>
CC(C)S(=O)(=O)N1C2=C(C=CC(=C2)C(C3=C(C(=CC(=C3F)F)F)F)C(=O)N)N=C1N
> <PUBCHEM_CACTVS_TPSA>
129
> <PUBCHEM_MONOISOTOPIC_WEIGHT>
444.08792421
> <PUBCHEM_TOTAL_CHARGE>
0
> <PUBCHEM_HEAVY_ATOM_COUNT>
30
> <PUBCHEM_ATOM_DEF_STEREO_COUNT>
0
> <PUBCHEM_ATOM_UDEF_STEREO_COUNT>
1
> <PUBCHEM_BOND_DEF_STEREO_COUNT>
0
> <PUBCHEM_BOND_UDEF_STEREO_COUNT>
0
> <PUBCHEM_ISOTOPIC_ATOM_COUNT>
0
> <PUBCHEM_COMPONENT_COUNT>
1
> <PUBCHEM_CACTVS_TAUTO_COUNT>
-1
> <PUBCHEM_COORDINATE_TYPE>
1
5
255
> <PUBCHEM_BONDANNOTATIONS>
10  16  8
10  19  8
14  16  8
14  18  8
15  18  8
15  22  8
16  23  8
17  25  3
22  23  8
24  26  8
24  27  8
26  29  8
27  28  8
28  30  8
29  30  8
9  14  8
9  19  8
$$$$
