510405
  -OEChem-10302200282D
 85 90  0     1  0  0  0  0  0999 V2000
    6.3301    0.7263    0.0000 O   0  0  0  0  0  0  0  0  0  0  0  0
    9.4282    4.0923    0.0000 O   0  0  0  0  0  0  0  0  0  0  0  0
    9.9282    3.2263    0.0000 O   0  0  0  0  0  0  0  0  0  0  0  0
    7.2108    5.3125    0.0000 O   0  0  0  0  0  0  0  0  0  0  0  0
    4.5981    0.7263    0.0000 O   0  0  0  0  0  0  0  0  0  0  0  0
    6.3301   -1.2737    0.0000 O   0  0  0  0  0  0  0  0  0  0  0  0
    4.5981   -2.2737    0.0000 O   0  0  0  0  0  0  0  0  0  0  0  0
    2.8660   -1.2737    0.0000 O   0  0  0  0  0  0  0  0  0  0  0  0
    2.8660   -2.2737    0.0000 O   0  0  0  0  0  0  0  0  0  0  0  0
    2.9230   -4.3615    0.0000 O   0  0  0  0  0  0  0  0  0  0  0  0
    7.1962    2.2263    0.0000 C   0  0  3  0  0  0  0  0  0  0  0  0
    8.0622    2.7263    0.0000 C   0  0  3  0  0  0  0  0  0  0  0  0
    7.8543    3.7044    0.0000 C   0  0  3  0  0  0  0  0  0  0  0  0
    6.4530    2.8954    0.0000 C   0  0  1  0  0  0  0  0  0  0  0  0
    6.8597    3.8090    0.0000 C   0  0  1  0  0  0  0  0  0  0  0  0
    7.4054    1.2545    0.0000 C   0  0  3  0  0  0  0  0  0  0  0  0
    8.3371    2.3499    0.0000 C   0  0  0  0  0  0  0  0  0  0  0  0
    5.4646    3.0019    0.0000 C   0  0  1  0  0  0  0  0  0  0  0  0
    8.7992    2.0592    0.0000 C   0  0  0  0  0  0  0  0  0  0  0  0
    6.1193    4.4722    0.0000 C   0  0  0  0  0  0  0  0  0  0  0  0
    6.3301    1.7263    0.0000 C   0  0  0  0  0  0  0  0  0  0  0  0
    8.3941    1.1514    0.0000 C   0  0  0  0  0  0  0  0  0  0  0  0
    5.2588    3.9744    0.0000 C   0  0  0  0  0  0  0  0  0  0  0  0
    8.9282    3.2263    0.0000 C   0  0  0  0  0  0  0  0  0  0  0  0
    7.9968    4.6942    0.0000 C   0  0  0  0  0  0  0  0  0  0  0  0
    9.7497    1.7486    0.0000 C   0  0  0  0  0  0  0  0  0  0  0  0
    4.7942    2.2599    0.0000 C   0  0  0  0  0  0  0  0  0  0  0  0
    9.9559    0.7700    0.0000 C   0  0  0  0  0  0  0  0  0  0  0  0
   10.4940    2.4164    0.0000 C   0  0  0  0  0  0  0  0  0  0  0  0
    5.4641    0.2263    0.0000 C   0  0  2  0  0  0  0  0  0  0  0  0
    5.4641   -0.7737    0.0000 C   0  0  2  0  0  0  0  0  0  0  0  0
    4.5981   -1.2737    0.0000 C   0  0  1  0  0  0  0  0  0  0  0  0
    3.7320    0.2263    0.0000 C   0  0  1  0  0  0  0  0  0  0  0  0
    3.7320   -0.7737    0.0000 C   0  0  1  0  0  0  0  0  0  0  0  0
    2.8660    0.7263    0.0000 C   0  0  0  0  0  0  0  0  0  0  0  0
    3.7320   -2.7737    0.0000 C   0  0  0  0  0  0  0  0  0  0  0  0
    2.0000   -0.7737    0.0000 C   0  0  0  0  0  0  0  0  0  0  0  0
    3.7320   -3.7737    0.0000 C   0  0  3  0  0  0  0  0  0  0  0  0
    4.5411   -4.3615    0.0000 C   0  0  0  0  0  0  0  0  0  0  0  0
    4.2320   -5.3125    0.0000 C   0  0  0  0  0  0  0  0  0  0  0  0
    3.2320   -5.3125    0.0000 C   0  0  0  0  0  0  0  0  0  0  0  0
    6.1073    2.1189    0.0000 H   0  0  0  0  0  0  0  0  0  0  0  0
    7.2055    4.5855    0.0000 H   0  0  0  0  0  0  0  0  0  0  0  0
    6.9913    0.7930    0.0000 H   0  0  0  0  0  0  0  0  0  0  0  0
    8.7324    1.8723    0.0000 H   0  0  0  0  0  0  0  0  0  0  0  0
    8.8760    2.6563    0.0000 H   0  0  0  0  0  0  0  0  0  0  0  0
    5.6856    2.4226    0.0000 H   0  0  0  0  0  0  0  0  0  0  0  0
    6.5792    4.8880    0.0000 H   0  0  0  0  0  0  0  0  0  0  0  0
    5.7541    4.9733    0.0000 H   0  0  0  0  0  0  0  0  0  0  0  0
    6.1181    2.3089    0.0000 H   0  0  0  0  0  0  0  0  0  0  0  0
    5.7196    1.6186    0.0000 H   0  0  0  0  0  0  0  0  0  0  0  0
    8.7041    0.6145    0.0000 H   0  0  0  0  0  0  0  0  0  0  0  0
    5.0065    4.5408    0.0000 H   0  0  0  0  0  0  0  0  0  0  0  0
    4.6691    3.7830    0.0000 H   0  0  0  0  0  0  0  0  0  0  0  0
    8.5724    4.9246    0.0000 H   0  0  0  0  0  0  0  0  0  0  0  0
    9.6219    2.3552    0.0000 H   0  0  0  0  0  0  0  0  0  0  0  0
    4.3342    2.6756    0.0000 H   0  0  0  0  0  0  0  0  0  0  0  0
    4.3786    1.7999    0.0000 H   0  0  0  0  0  0  0  0  0  0  0  0
    5.2543    1.8443    0.0000 H   0  0  0  0  0  0  0  0  0  0  0  0
    9.3493    0.6422    0.0000 H   0  0  0  0  0  0  0  0  0  0  0  0
   10.0838    0.1634    0.0000 H   0  0  0  0  0  0  0  0  0  0  0  0
   10.5626    0.8979    0.0000 H   0  0  0  0  0  0  0  0  0  0  0  0
   10.9081    1.9549    0.0000 H   0  0  0  0  0  0  0  0  0  0  0  0
   10.9555    2.8305    0.0000 H   0  0  0  0  0  0  0  0  0  0  0  0
   10.0800    2.8779    0.0000 H   0  0  0  0  0  0  0  0  0  0  0  0
   10.0482    4.0923    0.0000 H   0  0  0  0  0  0  0  0  0  0  0  0
    5.4641    0.8463    0.0000 H   0  0  0  0  0  0  0  0  0  0  0  0
    5.4641   -1.3937    0.0000 H   0  0  0  0  0  0  0  0  0  0  0  0
    4.0611   -1.5837    0.0000 H   0  0  0  0  0  0  0  0  0  0  0  0
    3.7320    0.8463    0.0000 H   0  0  0  0  0  0  0  0  0  0  0  0
    3.7320   -1.3937    0.0000 H   0  0  0  0  0  0  0  0  0  0  0  0
    6.8671   -0.9637    0.0000 H   0  0  0  0  0  0  0  0  0  0  0  0
    3.1760    1.2632    0.0000 H   0  0  0  0  0  0  0  0  0  0  0  0
    2.3291    1.0363    0.0000 H   0  0  0  0  0  0  0  0  0  0  0  0
    2.5560    0.1894    0.0000 H   0  0  0  0  0  0  0  0  0  0  0  0
    2.3100   -0.2368    0.0000 H   0  0  0  0  0  0  0  0  0  0  0  0
    1.4631   -0.4637    0.0000 H   0  0  0  0  0  0  0  0  0  0  0  0
    1.6900   -1.3106    0.0000 H   0  0  0  0  0  0  0  0  0  0  0  0
    3.1796   -3.4922    0.0000 H   0  0  0  0  0  0  0  0  0  0  0  0
    5.1075   -4.6137    0.0000 H   0  0  0  0  0  0  0  0  0  0  0  0
    4.8511   -3.8246    0.0000 H   0  0  0  0  0  0  0  0  0  0  0  0
    4.1672   -5.9291    0.0000 H   0  0  0  0  0  0  0  0  0  0  0  0
    4.8385   -5.4414    0.0000 H   0  0  0  0  0  0  0  0  0  0  0  0
    2.6256   -5.4414    0.0000 H   0  0  0  0  0  0  0  0  0  0  0  0
    3.2969   -5.9291    0.0000 H   0  0  0  0  0  0  0  0  0  0  0  0
  1 21  1  0  0  0  0
 30  1  1  1  0  0  0
  2 24  1  0  0  0  0
  2 66  1  0  0  0  0
  3 24  2  0  0  0  0
  4 25  2  0  0  0  0
  5 30  1  0  0  0  0
  5 33  1  0  0  0  0
 31  6  1  1  0  0  0
  6 72  1  0  0  0  0
 32  7  1  6  0  0  0
  7 36  1  0  0  0  0
 34  8  1  6  0  0  0
  8 37  1  0  0  0  0
  9 36  2  0  0  0  0
 10 38  1  0  0  0  0
 10 41  1  0  0  0  0
 11 12  1  0  0  0  0
 11 14  1  0  0  0  0
 11 16  1  0  0  0  0
 11 21  1  0  0  0  0
 12 13  1  0  0  0  0
 12 19  1  0  0  0  0
 12 24  1  0  0  0  0
 13 15  1  0  0  0  0
 13 17  1  0  0  0  0
 13 25  1  0  0  0  0
 14 15  1  0  0  0  0
 14 18  1  0  0  0  0
 14 42  1  1  0  0  0
 15 20  1  0  0  0  0
 15 43  1  6  0  0  0
 16 17  1  0  0  0  0
 16 22  1  0  0  0  0
 16 44  1  0  0  0  0
 17 45  1  0  0  0  0
 17 46  1  0  0  0  0
 18 23  1  0  0  0  0
 18 27  1  6  0  0  0
 18 47  1  0  0  0  0
 19 22  2  0  0  0  0
 19 26  1  0  0  0  0
 20 23  1  0  0  0  0
 20 48  1  0  0  0  0
 20 49  1  0  0  0  0
 21 50  1  0  0  0  0
 21 51  1  0  0  0  0
 22 52  1  0  0  0  0
 23 53  1  0  0  0  0
 23 54  1  0  0  0  0
 25 55  1  0  0  0  0
 26 28  1  0  0  0  0
 26 29  1  0  0  0  0
 26 56  1  0  0  0  0
 27 57  1  0  0  0  0
 27 58  1  0  0  0  0
 27 59  1  0  0  0  0
 28 60  1  0  0  0  0
 28 61  1  0  0  0  0
 28 62  1  0  0  0  0
 29 63  1  0  0  0  0
 29 64  1  0  0  0  0
 29 65  1  0  0  0  0
 30 31  1  0  0  0  0
 30 67  1  0  0  0  0
 31 32  1  0  0  0  0
 31 68  1  0  0  0  0
 32 34  1  0  0  0  0
 32 69  1  0  0  0  0
 33 34  1  0  0  0  0
 33 35  1  1  0  0  0
 33 70  1  0  0  0  0
 34 71  1  0  0  0  0
 35 73  1  0  0  0  0
 35 74  1  0  0  0  0
 35 75  1  0  0  0  0
 36 38  1  0  0  0  0
 37 76  1  0  0  0  0
 37 77  1  0  0  0  0
 37 78  1  0  0  0  0
 38 39  1  0  0  0  0
 38 79  1  0  0  0  0
 39 40  1  0  0  0  0
 39 80  1  0  0  0  0
 39 81  1  0  0  0  0
 40 41  1  0  0  0  0
 40 82  1  0  0  0  0
 40 83  1  0  0  0  0
 41 84  1  0  0  0  0
 41 85  1  0  0  0  0
M  END
> <PUBCHEM_COMPOUND_CID>
510405
> <PUBCHEM_COMPOUND_CANONICALIZED>
1
> <PUBCHEM_CACTVS_COMPLEXITY>
1120
> <PUBCHEM_CACTVS_HBOND_ACCEPTOR>
10
> <PUBCHEM_CACTVS_HBOND_DONOR>
2
> <PUBCHEM_CACTVS_ROTATABLE_BOND>
10
> <PUBCHEM_CACTVS_SUBSKEYS>
AAADcfB4PAAAAAAAAAAAAAAAAAAAAaMGCBA0QIAAAAAYAAAAAAAAGgAACAAADxSwgAMCCAAABgCIAijSiAIAAAAgAAAACAFAAAgREBIAAQQiQAAFwAAPAAPL7PyPgAAAAAAAAACAAAQAACAAAQAACAAAAA==
> <PUBCHEM_IUPAC_OPENEYE_NAME>
(3R,4R,7R)-8-formyl-2-[[(2R,3S,4S,5R,6R)-3-hydroxy-5-methoxy-6-methyl-4-(tetrahydrofuran-2-carbonyloxy)tetrahydropyran-2-yl]oxymethyl]-12-isopropyl-4-methyl-tetracyclo[6.4.0.02,10.03,7]dodec-11-ene-1-carboxylic acid
> <PUBCHEM_IUPAC_CAS_NAME>
(3R,4R,7R)-8-formyl-2-[[(2R,3S,4S,5R,6R)-3-hydroxy-5-methoxy-6-methyl-4-[oxo(2-oxolanyl)methoxy]-2-oxanyl]oxymethyl]-4-methyl-12-propan-2-yl-1-tetracyclo[6.4.0.02,10.03,7]dodec-11-enecarboxylic acid
> <PUBCHEM_IUPAC_NAME_MARKUP>
(3<I>R</I>,4<I>R</I>,7<I>R</I>)-8-formyl-2-[[(2<I>R</I>,3<I>S</I>,4<I>S</I>,5<I>R</I>,6<I>R</I>)-3-hydroxy-5-methoxy-6-methyl-4-(oxolane-2-carbonyloxy)oxan-2-yl]oxymethyl]-4-methyl-12-propan-2-yltetracyclo[6.4.0.0<SUP>2,10</SUP>.0<SUP>3,7</SUP>]dodec-11-ene-1-carboxylic acid
> <PUBCHEM_IUPAC_NAME>
(3R,4R,7R)-8-formyl-2-[[(2R,3S,4S,5R,6R)-3-hydroxy-5-methoxy-6-methyl-4-(oxolane-2-carbonyloxy)oxan-2-yl]oxymethyl]-4-methyl-12-propan-2-yltetracyclo[6.4.0.02,10.03,7]dodec-11-ene-1-carboxylic acid
> <PUBCHEM_IUPAC_SYSTEMATIC_NAME>
(3R,4R,7R)-8-methanoyl-2-[[(2R,3S,4S,5R,6R)-5-methoxy-6-methyl-3-oxidanyl-4-(oxolan-2-ylcarbonyloxy)oxan-2-yl]oxymethyl]-4-methyl-12-propan-2-yl-tetracyclo[6.4.0.02,10.03,7]dodec-11-ene-1-carboxylic acid
> <PUBCHEM_IUPAC_TRADITIONAL_NAME>
(3R,4R,7R)-8-formyl-2-[[(2R,3S,4S,5R,6R)-3-hydroxy-5-methoxy-6-methyl-4-(tetrahydrofuran-2-carbonyloxy)tetrahydropyran-2-yl]oxymethyl]-12-isopropyl-4-methyl-tetracyclo[6.4.0.02,10.03,7]dodec-11-ene-1-carboxylic acid
> <PUBCHEM_IUPAC_INCHI>
InChI=1S/C31H44O10/c1-15(2)20-11-18-12-29(13-32)19-9-8-16(3)22(19)30(18,31(20,29)28(35)36)14-39-27-23(33)25(24(37-5)17(4)40-27)41-26(34)21-7-6-10-38-21/h11,13,15-19,21-25,27,33H,6-10,12,14H2,1-5H3,(H,35,36)/t16-,17-,18?,19-,21?,22-,23+,24-,25+,27-,29?,30?,31?/m1/s1
> <PUBCHEM_IUPAC_INCHIKEY>
UXHNFEXXYJSFPZ-IANMWWMUSA-N
> <PUBCHEM_XLOGP3_AA>
2.1
> <PUBCHEM_EXACT_MASS>
576.29344760
> <PUBCHEM_MOLECULAR_FORMULA>
C31H44O10
> <PUBCHEM_MOLECULAR_WEIGHT>
576.7
> <PUBCHEM_OPENEYE_CAN_SMILES>
CC1CCC2C1C3(C4CC2(C3(C(=C4)C(C)C)C(=O)O)C=O)COC5C(C(C(C(O5)C)OC)OC(=O)C6CCCO6)O
> <PUBCHEM_OPENEYE_ISO_SMILES>
C[C@@H]1CC[C@@H]2[C@@H]1C3(C4CC2(C3(C(=C4)C(C)C)C(=O)O)C=O)CO[C@H]5[C@H]([C@@H]([C@@H]([C@H](O5)C)OC)OC(=O)C6CCCO6)O
> <PUBCHEM_CACTVS_TPSA>
138
> <PUBCHEM_MONOISOTOPIC_WEIGHT>
576.29344760
> <PUBCHEM_TOTAL_CHARGE>
0
> <PUBCHEM_HEAVY_ATOM_COUNT>
41
> <PUBCHEM_ATOM_DEF_STEREO_COUNT>
8
> <PUBCHEM_ATOM_UDEF_STEREO_COUNT>
5
> <PUBCHEM_BOND_DEF_STEREO_COUNT>
0
> <PUBCHEM_BOND_UDEF_STEREO_COUNT>
0
> <PUBCHEM_ISOTOPIC_ATOM_COUNT>
0
> <PUBCHEM_COMPONENT_COUNT>
1
> <PUBCHEM_CACTVS_TAUTO_COUNT>
-1
> <PUBCHEM_COORDINATE_TYPE>
1
5
255
> <PUBCHEM_BONDANNOTATIONS>
30  1  5
11  21  3
12  24  3
13  25  3
14  42  5
15  43  6
16  17  3
18  27  6
33  35  5
38  36  3
31  6  5
32  7  6
34  8  6
$$$$
