510400
  -OEChem-10302200282D
 86 90  0     1  0  0  0  0  0999 V2000
    2.0000   -6.0431    0.0000 Cl  0  0  0  0  0  0  0  0  0  0  0  0
    6.3301    1.4569    0.0000 O   0  0  0  0  0  0  0  0  0  0  0  0
    9.4282    4.8229    0.0000 O   0  0  0  0  0  0  0  0  0  0  0  0
    9.9282    3.9569    0.0000 O   0  0  0  0  0  0  0  0  0  0  0  0
    7.2108    6.0431    0.0000 O   0  0  0  0  0  0  0  0  0  0  0  0
    4.5981    1.4569    0.0000 O   0  0  0  0  0  0  0  0  0  0  0  0
    6.3301   -0.5431    0.0000 O   0  0  0  0  0  0  0  0  0  0  0  0
    4.5981   -1.5431    0.0000 O   0  0  0  0  0  0  0  0  0  0  0  0
    2.8660   -0.5431    0.0000 O   0  0  0  0  0  0  0  0  0  0  0  0
    2.8660   -1.5431    0.0000 O   0  0  0  0  0  0  0  0  0  0  0  0
    7.1962    2.9569    0.0000 C   0  0  3  0  0  0  0  0  0  0  0  0
    8.0622    3.4569    0.0000 C   0  0  3  0  0  0  0  0  0  0  0  0
    7.8543    4.4350    0.0000 C   0  0  3  0  0  0  0  0  0  0  0  0
    6.4530    3.6260    0.0000 C   0  0  1  0  0  0  0  0  0  0  0  0
    6.8597    4.5396    0.0000 C   0  0  1  0  0  0  0  0  0  0  0  0
    7.4054    1.9851    0.0000 C   0  0  3  0  0  0  0  0  0  0  0  0
    8.3371    3.0805    0.0000 C   0  0  0  0  0  0  0  0  0  0  0  0
    5.4646    3.7325    0.0000 C   0  0  1  0  0  0  0  0  0  0  0  0
    8.7992    2.7898    0.0000 C   0  0  0  0  0  0  0  0  0  0  0  0
    6.1193    5.2028    0.0000 C   0  0  0  0  0  0  0  0  0  0  0  0
    6.3301    2.4569    0.0000 C   0  0  0  0  0  0  0  0  0  0  0  0
    8.3941    1.8820    0.0000 C   0  0  0  0  0  0  0  0  0  0  0  0
    5.2588    4.7050    0.0000 C   0  0  0  0  0  0  0  0  0  0  0  0
    8.9282    3.9569    0.0000 C   0  0  0  0  0  0  0  0  0  0  0  0
    7.9968    5.4248    0.0000 C   0  0  0  0  0  0  0  0  0  0  0  0
    9.7497    2.4791    0.0000 C   0  0  0  0  0  0  0  0  0  0  0  0
    4.7942    2.9905    0.0000 C   0  0  0  0  0  0  0  0  0  0  0  0
    9.9559    1.5006    0.0000 C   0  0  0  0  0  0  0  0  0  0  0  0
   10.4940    3.1470    0.0000 C   0  0  0  0  0  0  0  0  0  0  0  0
    5.4641    0.9569    0.0000 C   0  0  2  0  0  0  0  0  0  0  0  0
    5.4641   -0.0431    0.0000 C   0  0  2  0  0  0  0  0  0  0  0  0
    4.5981   -0.5431    0.0000 C   0  0  1  0  0  0  0  0  0  0  0  0
    3.7320    0.9569    0.0000 C   0  0  1  0  0  0  0  0  0  0  0  0
    3.7320   -0.0431    0.0000 C   0  0  1  0  0  0  0  0  0  0  0  0
    2.8660    1.4569    0.0000 C   0  0  0  0  0  0  0  0  0  0  0  0
    3.7320   -2.0431    0.0000 C   0  0  0  0  0  0  0  0  0  0  0  0
    2.0000   -0.0431    0.0000 C   0  0  0  0  0  0  0  0  0  0  0  0
    3.7320   -3.0431    0.0000 C   0  0  0  0  0  0  0  0  0  0  0  0
    2.8660   -3.5431    0.0000 C   0  0  0  0  0  0  0  0  0  0  0  0
    2.8660   -4.5431    0.0000 C   0  0  0  0  0  0  0  0  0  0  0  0
    2.0000   -5.0431    0.0000 C   0  0  0  0  0  0  0  0  0  0  0  0
    6.1073    2.8495    0.0000 H   0  0  0  0  0  0  0  0  0  0  0  0
    7.2055    5.3161    0.0000 H   0  0  0  0  0  0  0  0  0  0  0  0
    6.9913    1.5236    0.0000 H   0  0  0  0  0  0  0  0  0  0  0  0
    8.7324    2.6029    0.0000 H   0  0  0  0  0  0  0  0  0  0  0  0
    8.8760    3.3869    0.0000 H   0  0  0  0  0  0  0  0  0  0  0  0
    5.6856    3.1532    0.0000 H   0  0  0  0  0  0  0  0  0  0  0  0
    6.5792    5.6186    0.0000 H   0  0  0  0  0  0  0  0  0  0  0  0
    5.7541    5.7039    0.0000 H   0  0  0  0  0  0  0  0  0  0  0  0
    6.1181    3.0395    0.0000 H   0  0  0  0  0  0  0  0  0  0  0  0
    5.7196    2.3492    0.0000 H   0  0  0  0  0  0  0  0  0  0  0  0
    8.7041    1.3451    0.0000 H   0  0  0  0  0  0  0  0  0  0  0  0
    5.0065    5.2714    0.0000 H   0  0  0  0  0  0  0  0  0  0  0  0
    4.6691    4.5136    0.0000 H   0  0  0  0  0  0  0  0  0  0  0  0
    8.5724    5.6552    0.0000 H   0  0  0  0  0  0  0  0  0  0  0  0
    9.6219    3.0858    0.0000 H   0  0  0  0  0  0  0  0  0  0  0  0
    4.3342    3.4062    0.0000 H   0  0  0  0  0  0  0  0  0  0  0  0
    4.3786    2.5305    0.0000 H   0  0  0  0  0  0  0  0  0  0  0  0
    5.2543    2.5748    0.0000 H   0  0  0  0  0  0  0  0  0  0  0  0
    9.3493    1.3728    0.0000 H   0  0  0  0  0  0  0  0  0  0  0  0
   10.0838    0.8940    0.0000 H   0  0  0  0  0  0  0  0  0  0  0  0
   10.5626    1.6285    0.0000 H   0  0  0  0  0  0  0  0  0  0  0  0
   10.9081    2.6855    0.0000 H   0  0  0  0  0  0  0  0  0  0  0  0
   10.9555    3.5610    0.0000 H   0  0  0  0  0  0  0  0  0  0  0  0
   10.0800    3.6084    0.0000 H   0  0  0  0  0  0  0  0  0  0  0  0
   10.0482    4.8229    0.0000 H   0  0  0  0  0  0  0  0  0  0  0  0
    5.4641    1.5769    0.0000 H   0  0  0  0  0  0  0  0  0  0  0  0
    5.4641   -0.6631    0.0000 H   0  0  0  0  0  0  0  0  0  0  0  0
    4.0611   -0.8531    0.0000 H   0  0  0  0  0  0  0  0  0  0  0  0
    3.7320    1.5769    0.0000 H   0  0  0  0  0  0  0  0  0  0  0  0
    3.7320   -0.6631    0.0000 H   0  0  0  0  0  0  0  0  0  0  0  0
    6.8671   -0.2331    0.0000 H   0  0  0  0  0  0  0  0  0  0  0  0
    3.1760    1.9938    0.0000 H   0  0  0  0  0  0  0  0  0  0  0  0
    2.3291    1.7669    0.0000 H   0  0  0  0  0  0  0  0  0  0  0  0
    2.5560    0.9199    0.0000 H   0  0  0  0  0  0  0  0  0  0  0  0
    2.3100    0.4938    0.0000 H   0  0  0  0  0  0  0  0  0  0  0  0
    1.4631    0.2669    0.0000 H   0  0  0  0  0  0  0  0  0  0  0  0
    1.6900   -0.5801    0.0000 H   0  0  0  0  0  0  0  0  0  0  0  0
    3.9441   -3.6257    0.0000 H   0  0  0  0  0  0  0  0  0  0  0  0
    4.3426   -2.9355    0.0000 H   0  0  0  0  0  0  0  0  0  0  0  0
    2.6540   -2.9605    0.0000 H   0  0  0  0  0  0  0  0  0  0  0  0
    2.2554   -3.6508    0.0000 H   0  0  0  0  0  0  0  0  0  0  0  0
    3.0781   -5.1257    0.0000 H   0  0  0  0  0  0  0  0  0  0  0  0
    3.4766   -4.4355    0.0000 H   0  0  0  0  0  0  0  0  0  0  0  0
    1.7880   -4.4605    0.0000 H   0  0  0  0  0  0  0  0  0  0  0  0
    1.3894   -5.1508    0.0000 H   0  0  0  0  0  0  0  0  0  0  0  0
  1 41  1  0  0  0  0
  2 21  1  0  0  0  0
 30  2  1  1  0  0  0
  3 24  1  0  0  0  0
  3 66  1  0  0  0  0
  4 24  2  0  0  0  0
  5 25  2  0  0  0  0
  6 30  1  0  0  0  0
  6 33  1  0  0  0  0
 31  7  1  1  0  0  0
  7 72  1  0  0  0  0
 32  8  1  6  0  0  0
  8 36  1  0  0  0  0
 34  9  1  6  0  0  0
  9 37  1  0  0  0  0
 10 36  2  0  0  0  0
 11 12  1  0  0  0  0
 11 14  1  0  0  0  0
 11 16  1  0  0  0  0
 11 21  1  0  0  0  0
 12 13  1  0  0  0  0
 12 19  1  0  0  0  0
 12 24  1  0  0  0  0
 13 15  1  0  0  0  0
 13 17  1  0  0  0  0
 13 25  1  0  0  0  0
 14 15  1  0  0  0  0
 14 18  1  0  0  0  0
 14 42  1  1  0  0  0
 15 20  1  0  0  0  0
 15 43  1  6  0  0  0
 16 17  1  0  0  0  0
 16 22  1  0  0  0  0
 16 44  1  0  0  0  0
 17 45  1  0  0  0  0
 17 46  1  0  0  0  0
 18 23  1  0  0  0  0
 18 27  1  6  0  0  0
 18 47  1  0  0  0  0
 19 22  2  0  0  0  0
 19 26  1  0  0  0  0
 20 23  1  0  0  0  0
 20 48  1  0  0  0  0
 20 49  1  0  0  0  0
 21 50  1  0  0  0  0
 21 51  1  0  0  0  0
 22 52  1  0  0  0  0
 23 53  1  0  0  0  0
 23 54  1  0  0  0  0
 25 55  1  0  0  0  0
 26 28  1  0  0  0  0
 26 29  1  0  0  0  0
 26 56  1  0  0  0  0
 27 57  1  0  0  0  0
 27 58  1  0  0  0  0
 27 59  1  0  0  0  0
 28 60  1  0  0  0  0
 28 61  1  0  0  0  0
 28 62  1  0  0  0  0
 29 63  1  0  0  0  0
 29 64  1  0  0  0  0
 29 65  1  0  0  0  0
 30 31  1  0  0  0  0
 30 67  1  0  0  0  0
 31 32  1  0  0  0  0
 31 68  1  0  0  0  0
 32 34  1  0  0  0  0
 32 69  1  0  0  0  0
 33 34  1  0  0  0  0
 33 35  1  1  0  0  0
 33 70  1  0  0  0  0
 34 71  1  0  0  0  0
 35 73  1  0  0  0  0
 35 74  1  0  0  0  0
 35 75  1  0  0  0  0
 36 38  1  0  0  0  0
 37 76  1  0  0  0  0
 37 77  1  0  0  0  0
 37 78  1  0  0  0  0
 38 39  1  0  0  0  0
 38 79  1  0  0  0  0
 38 80  1  0  0  0  0
 39 40  1  0  0  0  0
 39 81  1  0  0  0  0
 39 82  1  0  0  0  0
 40 41  1  0  0  0  0
 40 83  1  0  0  0  0
 40 84  1  0  0  0  0
 41 85  1  0  0  0  0
 41 86  1  0  0  0  0
M  END
> <PUBCHEM_COMPOUND_CID>
510400
> <PUBCHEM_COMPOUND_CANONICALIZED>
1
> <PUBCHEM_CACTVS_COMPLEXITY>
1080
> <PUBCHEM_CACTVS_HBOND_ACCEPTOR>
9
> <PUBCHEM_CACTVS_HBOND_DONOR>
2
> <PUBCHEM_CACTVS_ROTATABLE_BOND>
13
> <PUBCHEM_CACTVS_SUBSKEYS>
AAADcfB4PAAEAAAAAAAAAAAAAAAAAYMGCAA0QIAAAAAYAAAAAAAAGgIACAAADxewgEMCCAAABgCIAijSiAAAAAAgAAAACAEAAggREBIBAQAiQAAFwAAPAAPL7PyPgAAAAAAAAACAAAQAACAAAQAACAAAAA==
> <PUBCHEM_IUPAC_OPENEYE_NAME>
(3R,4R,7R)-2-[[(2R,3S,4S,5R,6R)-4-(5-chloropentanoyloxy)-3-hydroxy-5-methoxy-6-methyl-tetrahydropyran-2-yl]oxymethyl]-8-formyl-12-isopropyl-4-methyl-tetracyclo[6.4.0.02,10.03,7]dodec-11-ene-1-carboxylic acid
> <PUBCHEM_IUPAC_CAS_NAME>
(3R,4R,7R)-2-[[(2R,3S,4S,5R,6R)-4-(5-chloro-1-oxopentoxy)-3-hydroxy-5-methoxy-6-methyl-2-oxanyl]oxymethyl]-8-formyl-4-methyl-12-propan-2-yl-1-tetracyclo[6.4.0.02,10.03,7]dodec-11-enecarboxylic acid
> <PUBCHEM_IUPAC_NAME_MARKUP>
(3<I>R</I>,4<I>R</I>,7<I>R</I>)-2-[[(2<I>R</I>,3<I>S</I>,4<I>S</I>,5<I>R</I>,6<I>R</I>)-4-(5-chloropentanoyloxy)-3-hydroxy-5-methoxy-6-methyloxan-2-yl]oxymethyl]-8-formyl-4-methyl-12-propan-2-yltetracyclo[6.4.0.0<SUP>2,10</SUP>.0<SUP>3,7</SUP>]dodec-11-ene-1-carboxylic acid
> <PUBCHEM_IUPAC_NAME>
(3R,4R,7R)-2-[[(2R,3S,4S,5R,6R)-4-(5-chloropentanoyloxy)-3-hydroxy-5-methoxy-6-methyloxan-2-yl]oxymethyl]-8-formyl-4-methyl-12-propan-2-yltetracyclo[6.4.0.02,10.03,7]dodec-11-ene-1-carboxylic acid
> <PUBCHEM_IUPAC_SYSTEMATIC_NAME>
(3R,4R,7R)-2-[[(2R,3S,4S,5R,6R)-4-(5-chloranylpentanoyloxy)-5-methoxy-6-methyl-3-oxidanyl-oxan-2-yl]oxymethyl]-8-methanoyl-4-methyl-12-propan-2-yl-tetracyclo[6.4.0.02,10.03,7]dodec-11-ene-1-carboxylic acid
> <PUBCHEM_IUPAC_TRADITIONAL_NAME>
(3R,4R,7R)-2-[[(2R,3S,4S,5R,6R)-4-(5-chloropentanoyloxy)-3-hydroxy-5-methoxy-6-methyl-tetrahydropyran-2-yl]oxymethyl]-8-formyl-12-isopropyl-4-methyl-tetracyclo[6.4.0.02,10.03,7]dodec-11-ene-1-carboxylic acid
> <PUBCHEM_IUPAC_INCHI>
InChI=1S/C31H45ClO9/c1-16(2)21-12-19-13-29(14-33)20-10-9-17(3)23(20)30(19,31(21,29)28(36)37)15-39-27-24(35)26(25(38-5)18(4)40-27)41-22(34)8-6-7-11-32/h12,14,16-20,23-27,35H,6-11,13,15H2,1-5H3,(H,36,37)/t17-,18-,19?,20-,23-,24+,25-,26+,27-,29?,30?,31?/m1/s1
> <PUBCHEM_IUPAC_INCHIKEY>
CUFUJPHXPCWAKC-FGZGUPMWSA-N
> <PUBCHEM_XLOGP3_AA>
3
> <PUBCHEM_EXACT_MASS>
596.2752107
> <PUBCHEM_MOLECULAR_FORMULA>
C31H45ClO9
> <PUBCHEM_MOLECULAR_WEIGHT>
597.1
> <PUBCHEM_OPENEYE_CAN_SMILES>
CC1CCC2C1C3(C4CC2(C3(C(=C4)C(C)C)C(=O)O)C=O)COC5C(C(C(C(O5)C)OC)OC(=O)CCCCCl)O
> <PUBCHEM_OPENEYE_ISO_SMILES>
C[C@@H]1CC[C@@H]2[C@@H]1C3(C4CC2(C3(C(=C4)C(C)C)C(=O)O)C=O)CO[C@H]5[C@H]([C@@H]([C@@H]([C@H](O5)C)OC)OC(=O)CCCCCl)O
> <PUBCHEM_CACTVS_TPSA>
129
> <PUBCHEM_MONOISOTOPIC_WEIGHT>
596.2752107
> <PUBCHEM_TOTAL_CHARGE>
0
> <PUBCHEM_HEAVY_ATOM_COUNT>
41
> <PUBCHEM_ATOM_DEF_STEREO_COUNT>
8
> <PUBCHEM_ATOM_UDEF_STEREO_COUNT>
4
> <PUBCHEM_BOND_DEF_STEREO_COUNT>
0
> <PUBCHEM_BOND_UDEF_STEREO_COUNT>
0
> <PUBCHEM_ISOTOPIC_ATOM_COUNT>
0
> <PUBCHEM_COMPONENT_COUNT>
1
> <PUBCHEM_CACTVS_TAUTO_COUNT>
-1
> <PUBCHEM_COORDINATE_TYPE>
1
5
255
> <PUBCHEM_BONDANNOTATIONS>
11  21  3
12  24  3
13  25  3
14  42  5
15  43  6
16  17  3
18  27  6
30  2  5
33  35  5
31  7  5
32  8  6
34  9  6
$$$$
