510412
  -OEChem-10302200282D
106110  0     1  0  0  0  0  0999 V2000
    6.3301    1.4569    0.0000 O   0  0  0  0  0  0  0  0  0  0  0  0
    9.4282    4.8229    0.0000 O   0  0  0  0  0  0  0  0  0  0  0  0
    9.9282    3.9569    0.0000 O   0  0  0  0  0  0  0  0  0  0  0  0
    7.2108    6.0431    0.0000 O   0  0  0  0  0  0  0  0  0  0  0  0
    4.5981    1.4569    0.0000 O   0  0  0  0  0  0  0  0  0  0  0  0
    6.3301   -0.5431    0.0000 O   0  0  0  0  0  0  0  0  0  0  0  0
    4.5981   -1.5431    0.0000 O   0  0  0  0  0  0  0  0  0  0  0  0
    2.8660   -0.5431    0.0000 O   0  0  0  0  0  0  0  0  0  0  0  0
    7.1962    0.9569    0.0000 O   0  0  0  0  0  0  0  0  0  0  0  0
    2.8660   -1.5431    0.0000 O   0  0  0  0  0  0  0  0  0  0  0  0
    7.1962    2.9569    0.0000 C   0  0  3  0  0  0  0  0  0  0  0  0
    8.0622    3.4569    0.0000 C   0  0  3  0  0  0  0  0  0  0  0  0
    7.8543    4.4350    0.0000 C   0  0  3  0  0  0  0  0  0  0  0  0
    6.4530    3.6260    0.0000 C   0  0  1  0  0  0  0  0  0  0  0  0
    6.8597    4.5396    0.0000 C   0  0  1  0  0  0  0  0  0  0  0  0
    7.4054    1.9851    0.0000 C   0  0  3  0  0  0  0  0  0  0  0  0
    8.3371    3.0805    0.0000 C   0  0  0  0  0  0  0  0  0  0  0  0
    5.4646    3.7325    0.0000 C   0  0  1  0  0  0  0  0  0  0  0  0
    8.7992    2.7898    0.0000 C   0  0  0  0  0  0  0  0  0  0  0  0
    6.1193    5.2028    0.0000 C   0  0  0  0  0  0  0  0  0  0  0  0
    6.3301    2.4569    0.0000 C   0  0  0  0  0  0  0  0  0  0  0  0
    8.3941    1.8820    0.0000 C   0  0  0  0  0  0  0  0  0  0  0  0
    5.2588    4.7050    0.0000 C   0  0  0  0  0  0  0  0  0  0  0  0
    8.9282    3.9569    0.0000 C   0  0  0  0  0  0  0  0  0  0  0  0
    7.9968    5.4248    0.0000 C   0  0  0  0  0  0  0  0  0  0  0  0
    9.7497    2.4791    0.0000 C   0  0  0  0  0  0  0  0  0  0  0  0
    4.7942    2.9905    0.0000 C   0  0  0  0  0  0  0  0  0  0  0  0
    9.9559    1.5006    0.0000 C   0  0  0  0  0  0  0  0  0  0  0  0
   10.4940    3.1470    0.0000 C   0  0  0  0  0  0  0  0  0  0  0  0
    5.4641    0.9569    0.0000 C   0  0  2  0  0  0  0  0  0  0  0  0
    5.4641   -0.0431    0.0000 C   0  0  2  0  0  0  0  0  0  0  0  0
    4.5981   -0.5431    0.0000 C   0  0  1  0  0  0  0  0  0  0  0  0
    3.7320    0.9569    0.0000 C   0  0  1  0  0  0  0  0  0  0  0  0
    3.7320   -0.0431    0.0000 C   0  0  1  0  0  0  0  0  0  0  0  0
    2.8660    1.4569    0.0000 C   0  0  0  0  0  0  0  0  0  0  0  0
    7.1962   -0.0431    0.0000 C   0  0  0  0  0  0  0  0  0  0  0  0
    3.7320   -2.0431    0.0000 C   0  0  0  0  0  0  0  0  0  0  0  0
    2.0000   -0.0431    0.0000 C   0  0  0  0  0  0  0  0  0  0  0  0
    8.0622   -0.5431    0.0000 C   0  0  0  0  0  0  0  0  0  0  0  0
    3.7320   -3.0431    0.0000 C   0  0  0  0  0  0  0  0  0  0  0  0
    8.0622   -1.5431    0.0000 C   0  0  0  0  0  0  0  0  0  0  0  0
    2.8660   -3.5431    0.0000 C   0  0  0  0  0  0  0  0  0  0  0  0
    8.9282   -2.0431    0.0000 C   0  0  0  0  0  0  0  0  0  0  0  0
    2.8660   -4.5431    0.0000 C   0  0  0  0  0  0  0  0  0  0  0  0
    8.9282   -3.0431    0.0000 C   0  0  0  0  0  0  0  0  0  0  0  0
    2.0000   -5.0431    0.0000 C   0  0  0  0  0  0  0  0  0  0  0  0
    9.7942   -3.5431    0.0000 C   0  0  0  0  0  0  0  0  0  0  0  0
    2.0000   -6.0431    0.0000 C   0  0  0  0  0  0  0  0  0  0  0  0
    6.1073    2.8495    0.0000 H   0  0  0  0  0  0  0  0  0  0  0  0
    7.2055    5.3161    0.0000 H   0  0  0  0  0  0  0  0  0  0  0  0
    6.9913    1.5236    0.0000 H   0  0  0  0  0  0  0  0  0  0  0  0
    8.7324    2.6029    0.0000 H   0  0  0  0  0  0  0  0  0  0  0  0
    8.8760    3.3869    0.0000 H   0  0  0  0  0  0  0  0  0  0  0  0
    5.6856    3.1532    0.0000 H   0  0  0  0  0  0  0  0  0  0  0  0
    6.5792    5.6186    0.0000 H   0  0  0  0  0  0  0  0  0  0  0  0
    5.7541    5.7039    0.0000 H   0  0  0  0  0  0  0  0  0  0  0  0
    6.1181    3.0395    0.0000 H   0  0  0  0  0  0  0  0  0  0  0  0
    5.7196    2.3492    0.0000 H   0  0  0  0  0  0  0  0  0  0  0  0
    8.7041    1.3451    0.0000 H   0  0  0  0  0  0  0  0  0  0  0  0
    5.0065    5.2714    0.0000 H   0  0  0  0  0  0  0  0  0  0  0  0
    4.6691    4.5136    0.0000 H   0  0  0  0  0  0  0  0  0  0  0  0
    8.5724    5.6552    0.0000 H   0  0  0  0  0  0  0  0  0  0  0  0
    9.6219    3.0858    0.0000 H   0  0  0  0  0  0  0  0  0  0  0  0
    4.3342    3.4062    0.0000 H   0  0  0  0  0  0  0  0  0  0  0  0
    4.3786    2.5305    0.0000 H   0  0  0  0  0  0  0  0  0  0  0  0
    5.2543    2.5748    0.0000 H   0  0  0  0  0  0  0  0  0  0  0  0
    9.3493    1.3728    0.0000 H   0  0  0  0  0  0  0  0  0  0  0  0
   10.0838    0.8940    0.0000 H   0  0  0  0  0  0  0  0  0  0  0  0
   10.5626    1.6285    0.0000 H   0  0  0  0  0  0  0  0  0  0  0  0
   10.9081    2.6855    0.0000 H   0  0  0  0  0  0  0  0  0  0  0  0
   10.9555    3.5610    0.0000 H   0  0  0  0  0  0  0  0  0  0  0  0
   10.0800    3.6084    0.0000 H   0  0  0  0  0  0  0  0  0  0  0  0
   10.0482    4.8229    0.0000 H   0  0  0  0  0  0  0  0  0  0  0  0
    5.4641    1.5769    0.0000 H   0  0  0  0  0  0  0  0  0  0  0  0
    5.4641   -0.6631    0.0000 H   0  0  0  0  0  0  0  0  0  0  0  0
    4.0611   -0.8531    0.0000 H   0  0  0  0  0  0  0  0  0  0  0  0
    3.7320    1.5769    0.0000 H   0  0  0  0  0  0  0  0  0  0  0  0
    3.7320   -0.6631    0.0000 H   0  0  0  0  0  0  0  0  0  0  0  0
    3.1760    1.9938    0.0000 H   0  0  0  0  0  0  0  0  0  0  0  0
    2.3291    1.7669    0.0000 H   0  0  0  0  0  0  0  0  0  0  0  0
    2.5560    0.9199    0.0000 H   0  0  0  0  0  0  0  0  0  0  0  0
    2.3100    0.4938    0.0000 H   0  0  0  0  0  0  0  0  0  0  0  0
    1.4631    0.2669    0.0000 H   0  0  0  0  0  0  0  0  0  0  0  0
    1.6900   -0.5801    0.0000 H   0  0  0  0  0  0  0  0  0  0  0  0
    8.6728   -0.6508    0.0000 H   0  0  0  0  0  0  0  0  0  0  0  0
    8.2742    0.0395    0.0000 H   0  0  0  0  0  0  0  0  0  0  0  0
    3.9441   -3.6257    0.0000 H   0  0  0  0  0  0  0  0  0  0  0  0
    4.3426   -2.9355    0.0000 H   0  0  0  0  0  0  0  0  0  0  0  0
    7.4516   -1.4355    0.0000 H   0  0  0  0  0  0  0  0  0  0  0  0
    7.8501   -2.1257    0.0000 H   0  0  0  0  0  0  0  0  0  0  0  0
    2.6540   -2.9605    0.0000 H   0  0  0  0  0  0  0  0  0  0  0  0
    2.2554   -3.6508    0.0000 H   0  0  0  0  0  0  0  0  0  0  0  0
    9.5388   -2.1508    0.0000 H   0  0  0  0  0  0  0  0  0  0  0  0
    9.1403   -1.4605    0.0000 H   0  0  0  0  0  0  0  0  0  0  0  0
    3.0781   -5.1257    0.0000 H   0  0  0  0  0  0  0  0  0  0  0  0
    3.4766   -4.4355    0.0000 H   0  0  0  0  0  0  0  0  0  0  0  0
    8.3176   -2.9355    0.0000 H   0  0  0  0  0  0  0  0  0  0  0  0
    8.7162   -3.6257    0.0000 H   0  0  0  0  0  0  0  0  0  0  0  0
    1.7880   -4.4605    0.0000 H   0  0  0  0  0  0  0  0  0  0  0  0
    1.3894   -5.1508    0.0000 H   0  0  0  0  0  0  0  0  0  0  0  0
    9.4842   -4.0800    0.0000 H   0  0  0  0  0  0  0  0  0  0  0  0
   10.3312   -3.8531    0.0000 H   0  0  0  0  0  0  0  0  0  0  0  0
   10.1042   -3.0062    0.0000 H   0  0  0  0  0  0  0  0  0  0  0  0
    1.3800   -6.0431    0.0000 H   0  0  0  0  0  0  0  0  0  0  0  0
    2.0000   -6.6631    0.0000 H   0  0  0  0  0  0  0  0  0  0  0  0
    2.6200   -6.0431    0.0000 H   0  0  0  0  0  0  0  0  0  0  0  0
  1 21  1  0  0  0  0
 30  1  1  1  0  0  0
  2 24  1  0  0  0  0
  2 73  1  0  0  0  0
  3 24  2  0  0  0  0
  4 25  2  0  0  0  0
  5 30  1  0  0  0  0
  5 33  1  0  0  0  0
 31  6  1  1  0  0  0
  6 36  1  0  0  0  0
 32  7  1  6  0  0  0
  7 37  1  0  0  0  0
 34  8  1  6  0  0  0
  8 38  1  0  0  0  0
  9 36  2  0  0  0  0
 10 37  2  0  0  0  0
 11 12  1  0  0  0  0
 11 14  1  0  0  0  0
 11 16  1  0  0  0  0
 11 21  1  0  0  0  0
 12 13  1  0  0  0  0
 12 19  1  0  0  0  0
 12 24  1  0  0  0  0
 13 15  1  0  0  0  0
 13 17  1  0  0  0  0
 13 25  1  0  0  0  0
 14 15  1  0  0  0  0
 14 18  1  0  0  0  0
 14 49  1  1  0  0  0
 15 20  1  0  0  0  0
 15 50  1  6  0  0  0
 16 17  1  0  0  0  0
 16 22  1  0  0  0  0
 16 51  1  0  0  0  0
 17 52  1  0  0  0  0
 17 53  1  0  0  0  0
 18 23  1  0  0  0  0
 18 27  1  6  0  0  0
 18 54  1  0  0  0  0
 19 22  2  0  0  0  0
 19 26  1  0  0  0  0
 20 23  1  0  0  0  0
 20 55  1  0  0  0  0
 20 56  1  0  0  0  0
 21 57  1  0  0  0  0
 21 58  1  0  0  0  0
 22 59  1  0  0  0  0
 23 60  1  0  0  0  0
 23 61  1  0  0  0  0
 25 62  1  0  0  0  0
 26 28  1  0  0  0  0
 26 29  1  0  0  0  0
 26 63  1  0  0  0  0
 27 64  1  0  0  0  0
 27 65  1  0  0  0  0
 27 66  1  0  0  0  0
 28 67  1  0  0  0  0
 28 68  1  0  0  0  0
 28 69  1  0  0  0  0
 29 70  1  0  0  0  0
 29 71  1  0  0  0  0
 29 72  1  0  0  0  0
 30 31  1  0  0  0  0
 30 74  1  0  0  0  0
 31 32  1  0  0  0  0
 31 75  1  0  0  0  0
 32 34  1  0  0  0  0
 32 76  1  0  0  0  0
 33 34  1  0  0  0  0
 33 35  1  1  0  0  0
 33 77  1  0  0  0  0
 34 78  1  0  0  0  0
 35 79  1  0  0  0  0
 35 80  1  0  0  0  0
 35 81  1  0  0  0  0
 36 39  1  0  0  0  0
 37 40  1  0  0  0  0
 38 82  1  0  0  0  0
 38 83  1  0  0  0  0
 38 84  1  0  0  0  0
 39 41  1  0  0  0  0
 39 85  1  0  0  0  0
 39 86  1  0  0  0  0
 40 42  1  0  0  0  0
 40 87  1  0  0  0  0
 40 88  1  0  0  0  0
 41 43  1  0  0  0  0
 41 89  1  0  0  0  0
 41 90  1  0  0  0  0
 42 44  1  0  0  0  0
 42 91  1  0  0  0  0
 42 92  1  0  0  0  0
 43 45  1  0  0  0  0
 43 93  1  0  0  0  0
 43 94  1  0  0  0  0
 44 46  1  0  0  0  0
 44 95  1  0  0  0  0
 44 96  1  0  0  0  0
 45 47  1  0  0  0  0
 45 97  1  0  0  0  0
 45 98  1  0  0  0  0
 46 48  1  0  0  0  0
 46 99  1  0  0  0  0
 46100  1  0  0  0  0
 47101  1  0  0  0  0
 47102  1  0  0  0  0
 47103  1  0  0  0  0
 48104  1  0  0  0  0
 48105  1  0  0  0  0
 48106  1  0  0  0  0
M  END
> <PUBCHEM_COMPOUND_CID>
510412
> <PUBCHEM_COMPOUND_CANONICALIZED>
1
> <PUBCHEM_CACTVS_COMPLEXITY>
1250
> <PUBCHEM_CACTVS_HBOND_ACCEPTOR>
10
> <PUBCHEM_CACTVS_HBOND_DONOR>
1
> <PUBCHEM_CACTVS_ROTATABLE_BOND>
19
> <PUBCHEM_CACTVS_SUBSKEYS>
AAADcfB8PAAAAAAAAAAAAAAAAAAAAYMGCAA0QIAAAAAYAAAAAAAAGgAACAAADxSwgAMCCAAABgCIAijSiAAAAAAgAAAACAEAAAgRABIAAQAiQAAFwAAOAAPL7PyPgAAAAAAAAACAAAQAACAAAQAACAAAAA==
> <PUBCHEM_IUPAC_OPENEYE_NAME>
(3R,4R,7R)-2-[[(2R,3S,4R,5R,6R)-3,4-di(hexanoyloxy)-5-methoxy-6-methyl-tetrahydropyran-2-yl]oxymethyl]-8-formyl-12-isopropyl-4-methyl-tetracyclo[6.4.0.02,10.03,7]dodec-11-ene-1-carboxylic acid
> <PUBCHEM_IUPAC_CAS_NAME>
(3R,4R,7R)-8-formyl-2-[[(2R,3S,4R,5R,6R)-5-methoxy-6-methyl-3,4-bis(1-oxohexoxy)-2-oxanyl]oxymethyl]-4-methyl-12-propan-2-yl-1-tetracyclo[6.4.0.02,10.03,7]dodec-11-enecarboxylic acid
> <PUBCHEM_IUPAC_NAME_MARKUP>
(3<I>R</I>,4<I>R</I>,7<I>R</I>)-2-[[(2<I>R</I>,3<I>S</I>,4<I>R</I>,5<I>R</I>,6<I>R</I>)-3,4-di(hexanoyloxy)-5-methoxy-6-methyloxan-2-yl]oxymethyl]-8-formyl-4-methyl-12-propan-2-yltetracyclo[6.4.0.0<SUP>2,10</SUP>.0<SUP>3,7</SUP>]dodec-11-ene-1-carboxylic acid
> <PUBCHEM_IUPAC_NAME>
(3R,4R,7R)-2-[[(2R,3S,4R,5R,6R)-3,4-di(hexanoyloxy)-5-methoxy-6-methyloxan-2-yl]oxymethyl]-8-formyl-4-methyl-12-propan-2-yltetracyclo[6.4.0.02,10.03,7]dodec-11-ene-1-carboxylic acid
> <PUBCHEM_IUPAC_SYSTEMATIC_NAME>
(3R,4R,7R)-2-[[(2R,3S,4R,5R,6R)-3,4-di(hexanoyloxy)-5-methoxy-6-methyl-oxan-2-yl]oxymethyl]-8-methanoyl-4-methyl-12-propan-2-yl-tetracyclo[6.4.0.02,10.03,7]dodec-11-ene-1-carboxylic acid
> <PUBCHEM_IUPAC_TRADITIONAL_NAME>
(3R,4R,7R)-2-[[(2R,3S,4R,5R,6R)-3,4-dicaproyloxy-5-methoxy-6-methyl-tetrahydropyran-2-yl]oxymethyl]-8-formyl-12-isopropyl-4-methyl-tetracyclo[6.4.0.02,10.03,7]dodec-11-ene-1-carboxylic acid
> <PUBCHEM_IUPAC_INCHI>
InChI=1S/C38H58O10/c1-8-10-12-14-28(40)47-32-31(44-7)24(6)46-34(33(32)48-29(41)15-13-11-9-2)45-21-37-25-18-27(22(3)4)38(37,35(42)43)36(19-25,20-39)26-17-16-23(5)30(26)37/h18,20,22-26,30-34H,8-17,19,21H2,1-7H3,(H,42,43)/t23-,24-,25?,26-,30-,31-,32-,33+,34-,36?,37?,38?/m1/s1
> <PUBCHEM_IUPAC_INCHIKEY>
QQDVJKCXLKALIC-ARYSYCJDSA-N
> <PUBCHEM_XLOGP3_AA>
6.1
> <PUBCHEM_EXACT_MASS>
674.40299804
> <PUBCHEM_MOLECULAR_FORMULA>
C38H58O10
> <PUBCHEM_MOLECULAR_WEIGHT>
674.9
> <PUBCHEM_OPENEYE_CAN_SMILES>
CCCCCC(=O)OC1C(C(OC(C1OC(=O)CCCCC)OCC23C4CC(C2(C(=C4)C(C)C)C(=O)O)(C5C3C(CC5)C)C=O)C)OC
> <PUBCHEM_OPENEYE_ISO_SMILES>
CCCCCC(=O)O[C@@H]1[C@@H]([C@H](O[C@H]([C@H]1OC(=O)CCCCC)OCC23[C@@H]4[C@@H](CC[C@H]4C5(C2(C(=CC3C5)C(C)C)C(=O)O)C=O)C)C)OC
> <PUBCHEM_CACTVS_TPSA>
135
> <PUBCHEM_MONOISOTOPIC_WEIGHT>
674.40299804
> <PUBCHEM_TOTAL_CHARGE>
0
> <PUBCHEM_HEAVY_ATOM_COUNT>
48
> <PUBCHEM_ATOM_DEF_STEREO_COUNT>
8
> <PUBCHEM_ATOM_UDEF_STEREO_COUNT>
4
> <PUBCHEM_BOND_DEF_STEREO_COUNT>
0
> <PUBCHEM_BOND_UDEF_STEREO_COUNT>
0
> <PUBCHEM_ISOTOPIC_ATOM_COUNT>
0
> <PUBCHEM_COMPONENT_COUNT>
1
> <PUBCHEM_CACTVS_TAUTO_COUNT>
-1
> <PUBCHEM_COORDINATE_TYPE>
1
5
255
> <PUBCHEM_BONDANNOTATIONS>
30  1  5
11  21  3
12  24  3
13  25  3
14  49  5
15  50  6
16  17  3
18  27  6
33  35  5
31  6  5
32  7  6
34  8  6
$$$$
