510457
  -OEChem-10302200282D
 42 43  0     1  0  0  0  0  0999 V2000
    6.3981    2.5000    0.0000 O   0  0  0  0  0  0  0  0  0  0  0  0
    4.6660   -0.5000    0.0000 O   0  0  0  0  0  0  0  0  0  0  0  0
    3.8000    4.0000    0.0000 O   0  0  0  0  0  0  0  0  0  0  0  0
    8.1301   -2.5000    0.0000 O   0  0  0  0  0  0  0  0  0  0  0  0
    6.3981   -2.5000    0.0000 O   0  0  0  0  0  0  0  0  0  0  0  0
    5.5321    1.0000    0.0000 N   0  0  0  0  0  0  0  0  0  0  0  0
    4.6660    2.5000    0.0000 C   0  0  3  0  0  0  0  0  0  0  0  0
    3.8000    2.0000    0.0000 C   0  0  0  0  0  0  0  0  0  0  0  0
    6.3981    0.5000    0.0000 C   0  0  0  0  0  0  0  0  0  0  0  0
    5.5321    2.0000    0.0000 C   0  0  0  0  0  0  0  0  0  0  0  0
    3.8000    1.0000    0.0000 C   0  0  0  0  0  0  0  0  0  0  0  0
    4.6660    0.5000    0.0000 C   0  0  0  0  0  0  0  0  0  0  0  0
    6.3981   -0.5000    0.0000 C   0  0  0  0  0  0  0  0  0  0  0  0
    4.6660    3.5000    0.0000 C   0  0  0  0  0  0  0  0  0  0  0  0
    2.9061    2.5347    0.0000 C   0  0  0  0  0  0  0  0  0  0  0  0
    7.2641   -1.0000    0.0000 C   0  0  0  0  0  0  0  0  0  0  0  0
    2.9061    0.4653    0.0000 C   0  0  0  0  0  0  0  0  0  0  0  0
    2.0000    2.0208    0.0000 C   0  0  0  0  0  0  0  0  0  0  0  0
    2.0000    0.9792    0.0000 C   0  0  0  0  0  0  0  0  0  0  0  0
    5.5321    4.0000    0.0000 C   0  0  0  0  0  0  0  0  0  0  0  0
    7.2641   -2.0000    0.0000 C   0  0  0  0  0  0  0  0  0  0  0  0
    8.1301   -3.5000    0.0000 C   0  0  0  0  0  0  0  0  0  0  0  0
    8.9962   -4.0000    0.0000 C   0  0  0  0  0  0  0  0  0  0  0  0
    5.2030    2.8100    0.0000 H   0  0  0  0  0  0  0  0  0  0  0  0
    7.0087    0.3923    0.0000 H   0  0  0  0  0  0  0  0  0  0  0  0
    6.6101    1.0826    0.0000 H   0  0  0  0  0  0  0  0  0  0  0  0
    5.7875   -0.3923    0.0000 H   0  0  0  0  0  0  0  0  0  0  0  0
    6.1860   -1.0826    0.0000 H   0  0  0  0  0  0  0  0  0  0  0  0
    2.9132    3.1546    0.0000 H   0  0  0  0  0  0  0  0  0  0  0  0
    7.8747   -1.1077    0.0000 H   0  0  0  0  0  0  0  0  0  0  0  0
    7.4762   -0.4174    0.0000 H   0  0  0  0  0  0  0  0  0  0  0  0
    2.9132   -0.1546    0.0000 H   0  0  0  0  0  0  0  0  0  0  0  0
    1.4643    2.3329    0.0000 H   0  0  0  0  0  0  0  0  0  0  0  0
    1.4643    0.6671    0.0000 H   0  0  0  0  0  0  0  0  0  0  0  0
    5.8421    3.4631    0.0000 H   0  0  0  0  0  0  0  0  0  0  0  0
    6.0690    4.3100    0.0000 H   0  0  0  0  0  0  0  0  0  0  0  0
    5.2221    4.5369    0.0000 H   0  0  0  0  0  0  0  0  0  0  0  0
    7.5196   -3.3923    0.0000 H   0  0  0  0  0  0  0  0  0  0  0  0
    7.9181   -4.0826    0.0000 H   0  0  0  0  0  0  0  0  0  0  0  0
    8.6862   -4.5369    0.0000 H   0  0  0  0  0  0  0  0  0  0  0  0
    9.5331   -4.3100    0.0000 H   0  0  0  0  0  0  0  0  0  0  0  0
    9.3062   -3.4631    0.0000 H   0  0  0  0  0  0  0  0  0  0  0  0
  1 10  2  0  0  0  0
  2 12  2  0  0  0  0
  3 14  2  0  0  0  0
  4 21  1  0  0  0  0
  4 22  1  0  0  0  0
  5 21  2  0  0  0  0
  6  9  1  0  0  0  0
  6 10  1  0  0  0  0
  6 12  1  0  0  0  0
  7  8  1  0  0  0  0
  7 10  1  0  0  0  0
  7 14  1  0  0  0  0
  7 24  1  0  0  0  0
  8 11  1  0  0  0  0
  8 15  2  0  0  0  0
  9 13  1  0  0  0  0
  9 25  1  0  0  0  0
  9 26  1  0  0  0  0
 11 12  1  0  0  0  0
 11 17  2  0  0  0  0
 13 16  1  0  0  0  0
 13 27  1  0  0  0  0
 13 28  1  0  0  0  0
 14 20  1  0  0  0  0
 15 18  1  0  0  0  0
 15 29  1  0  0  0  0
 16 21  1  0  0  0  0
 16 30  1  0  0  0  0
 16 31  1  0  0  0  0
 17 19  1  0  0  0  0
 17 32  1  0  0  0  0
 18 19  2  0  0  0  0
 18 33  1  0  0  0  0
 19 34  1  0  0  0  0
 20 35  1  0  0  0  0
 20 36  1  0  0  0  0
 20 37  1  0  0  0  0
 22 23  1  0  0  0  0
 22 38  1  0  0  0  0
 22 39  1  0  0  0  0
 23 40  1  0  0  0  0
 23 41  1  0  0  0  0
 23 42  1  0  0  0  0
M  END
> <PUBCHEM_COMPOUND_CID>
510457
> <PUBCHEM_COMPOUND_CANONICALIZED>
1
> <PUBCHEM_CACTVS_COMPLEXITY>
501
> <PUBCHEM_CACTVS_HBOND_ACCEPTOR>
5
> <PUBCHEM_CACTVS_HBOND_DONOR>
0
> <PUBCHEM_CACTVS_ROTATABLE_BOND>
7
> <PUBCHEM_CACTVS_SUBSKEYS>
AAADceB6OAAAAAAAAAAAAAAAAAAAAAAAAAA8QAAAAAAAAACxAAAAHgAAAAAADQThmAYyCIMABACIAqHSGACCAAAkAAAIiAEIBMgIIDqIlRGGIQhkhiCIiYc8i8CugAAAAAAQAAAAAAAAACAAAAAAAAAAAA==
> <PUBCHEM_IUPAC_OPENEYE_NAME>
ethyl 4-(4-acetyl-1,3-dioxo-4H-isoquinolin-2-yl)butanoate
> <PUBCHEM_IUPAC_CAS_NAME>
4-(4-acetyl-1,3-dioxo-4H-isoquinolin-2-yl)butanoic acid ethyl ester
> <PUBCHEM_IUPAC_NAME_MARKUP>
ethyl 4-(4-acetyl-1,3-dioxo-4<I>H</I>-isoquinolin-2-yl)butanoate
> <PUBCHEM_IUPAC_NAME>
ethyl 4-(4-acetyl-1,3-dioxo-4H-isoquinolin-2-yl)butanoate
> <PUBCHEM_IUPAC_SYSTEMATIC_NAME>
ethyl 4-[4-ethanoyl-1,3-bis(oxidanylidene)-4H-isoquinolin-2-yl]butanoate
> <PUBCHEM_IUPAC_TRADITIONAL_NAME>
4-(4-acetyl-1,3-diketo-4H-isoquinolin-2-yl)butyric acid ethyl ester
> <PUBCHEM_IUPAC_INCHI>
InChI=1S/C17H19NO5/c1-3-23-14(20)9-6-10-18-16(21)13-8-5-4-7-12(13)15(11(2)19)17(18)22/h4-5,7-8,15H,3,6,9-10H2,1-2H3
> <PUBCHEM_IUPAC_INCHIKEY>
JZGMMVDFDDVZTN-UHFFFAOYSA-N
> <PUBCHEM_XLOGP3_AA>
1.3
> <PUBCHEM_EXACT_MASS>
317.12632271
> <PUBCHEM_MOLECULAR_FORMULA>
C17H19NO5
> <PUBCHEM_MOLECULAR_WEIGHT>
317.34
> <PUBCHEM_OPENEYE_CAN_SMILES>
CCOC(=O)CCCN1C(=O)C(C2=CC=CC=C2C1=O)C(=O)C
> <PUBCHEM_OPENEYE_ISO_SMILES>
CCOC(=O)CCCN1C(=O)C(C2=CC=CC=C2C1=O)C(=O)C
> <PUBCHEM_CACTVS_TPSA>
80.8
> <PUBCHEM_MONOISOTOPIC_WEIGHT>
317.12632271
> <PUBCHEM_TOTAL_CHARGE>
0
> <PUBCHEM_HEAVY_ATOM_COUNT>
23
> <PUBCHEM_ATOM_DEF_STEREO_COUNT>
0
> <PUBCHEM_ATOM_UDEF_STEREO_COUNT>
1
> <PUBCHEM_BOND_DEF_STEREO_COUNT>
0
> <PUBCHEM_BOND_UDEF_STEREO_COUNT>
0
> <PUBCHEM_ISOTOPIC_ATOM_COUNT>
0
> <PUBCHEM_COMPONENT_COUNT>
1
> <PUBCHEM_CACTVS_TAUTO_COUNT>
-1
> <PUBCHEM_COORDINATE_TYPE>
1
5
255
> <PUBCHEM_BONDANNOTATIONS>
11  17  8
15  18  8
17  19  8
18  19  8
7  14  3
8  11  8
8  15  8
$$$$
