510484
  -OEChem-10302200282D
 46 48  0     1  0  0  0  0  0999 V2000
    9.3191    0.5302    0.0000 S   0  0  0  0  0  0  0  0  0  0  0  0
    3.7320    0.7750    0.0000 F   0  0  0  0  0  0  0  0  0  0  0  0
    2.0000   -0.2250    0.0000 F   0  0  0  0  0  0  0  0  0  0  0  0
    2.0000   -2.2250    0.0000 F   0  0  0  0  0  0  0  0  0  0  0  0
   10.2696    0.2196    0.0000 O   0  0  0  0  0  0  0  0  0  0  0  0
    8.3685    0.8409    0.0000 O   0  0  0  0  0  0  0  0  0  0  0  0
    4.5981    1.2750    0.0000 O   0  0  0  0  0  0  0  0  0  0  0  0
    9.0084   -0.4203    0.0000 N   0  0  0  0  0  0  0  0  0  0  0  0
    9.0084   -2.0298    0.0000 N   0  0  0  0  0  0  0  0  0  0  0  0
   10.5920   -1.2250    0.0000 N   0  0  0  0  0  0  0  0  0  0  0  0
    6.3301    1.2750    0.0000 N   0  0  0  0  0  0  0  0  0  0  0  0
    9.6297    1.4807    0.0000 C   0  0  0  0  0  0  0  0  0  0  0  0
    8.0622   -0.7250    0.0000 C   0  0  0  0  0  0  0  0  0  0  0  0
    6.3301   -0.7250    0.0000 C   0  0  0  0  0  0  0  0  0  0  0  0
    8.0622   -1.7250    0.0000 C   0  0  0  0  0  0  0  0  0  0  0  0
    5.4641   -0.2250    0.0000 C   0  0  3  0  0  0  0  0  0  0  0  0
    7.1962   -0.2250    0.0000 C   0  0  0  0  0  0  0  0  0  0  0  0
    9.5920   -1.2250    0.0000 C   0  0  0  0  0  0  0  0  0  0  0  0
   10.6082    1.6870    0.0000 C   0  0  0  0  0  0  0  0  0  0  0  0
    8.9619    2.2250    0.0000 C   0  0  0  0  0  0  0  0  0  0  0  0
    6.3301   -1.7250    0.0000 C   0  0  0  0  0  0  0  0  0  0  0  0
    7.1962   -2.2250    0.0000 C   0  0  0  0  0  0  0  0  0  0  0  0
    4.5981   -0.7250    0.0000 C   0  0  0  0  0  0  0  0  0  0  0  0
    5.4641    0.7750    0.0000 C   0  0  0  0  0  0  0  0  0  0  0  0
    3.7320   -0.2250    0.0000 C   0  0  0  0  0  0  0  0  0  0  0  0
    4.5981   -1.7250    0.0000 C   0  0  0  0  0  0  0  0  0  0  0  0
    2.8660   -0.7250    0.0000 C   0  0  0  0  0  0  0  0  0  0  0  0
    3.7320   -2.2250    0.0000 C   0  0  0  0  0  0  0  0  0  0  0  0
    2.8660   -1.7250    0.0000 C   0  0  0  0  0  0  0  0  0  0  0  0
   10.0438    1.0193    0.0000 H   0  0  0  0  0  0  0  0  0  0  0  0
    6.0010    0.0850    0.0000 H   0  0  0  0  0  0  0  0  0  0  0  0
    7.1962    0.3950    0.0000 H   0  0  0  0  0  0  0  0  0  0  0  0
   10.7361    1.0803    0.0000 H   0  0  0  0  0  0  0  0  0  0  0  0
   11.2149    1.8148    0.0000 H   0  0  0  0  0  0  0  0  0  0  0  0
   10.4804    2.2936    0.0000 H   0  0  0  0  0  0  0  0  0  0  0  0
    9.4233    2.6391    0.0000 H   0  0  0  0  0  0  0  0  0  0  0  0
    8.5478    2.6865    0.0000 H   0  0  0  0  0  0  0  0  0  0  0  0
    8.5004    1.8110    0.0000 H   0  0  0  0  0  0  0  0  0  0  0  0
    5.7932   -2.0350    0.0000 H   0  0  0  0  0  0  0  0  0  0  0  0
    7.1962   -2.8450    0.0000 H   0  0  0  0  0  0  0  0  0  0  0  0
   10.9020   -1.7620    0.0000 H   0  0  0  0  0  0  0  0  0  0  0  0
   10.9020   -0.6881    0.0000 H   0  0  0  0  0  0  0  0  0  0  0  0
    5.1350   -2.0350    0.0000 H   0  0  0  0  0  0  0  0  0  0  0  0
    3.7320   -2.8450    0.0000 H   0  0  0  0  0  0  0  0  0  0  0  0
    6.3301    1.8950    0.0000 H   0  0  0  0  0  0  0  0  0  0  0  0
    6.8671    0.9650    0.0000 H   0  0  0  0  0  0  0  0  0  0  0  0
  1  5  2  0  0  0  0
  1  6  2  0  0  0  0
  1  8  1  0  0  0  0
  1 12  1  0  0  0  0
  2 25  1  0  0  0  0
  3 27  1  0  0  0  0
  4 29  1  0  0  0  0
  7 24  2  0  0  0  0
  8 13  1  0  0  0  0
  8 18  1  0  0  0  0
  9 15  1  0  0  0  0
  9 18  2  0  0  0  0
 10 18  1  0  0  0  0
 10 41  1  0  0  0  0
 10 42  1  0  0  0  0
 11 24  1  0  0  0  0
 11 45  1  0  0  0  0
 11 46  1  0  0  0  0
 12 19  1  0  0  0  0
 12 20  1  0  0  0  0
 12 30  1  0  0  0  0
 13 15  2  0  0  0  0
 13 17  1  0  0  0  0
 14 16  1  0  0  0  0
 14 17  2  0  0  0  0
 14 21  1  0  0  0  0
 15 22  1  0  0  0  0
 16 23  1  0  0  0  0
 16 24  1  0  0  0  0
 16 31  1  0  0  0  0
 17 32  1  0  0  0  0
 19 33  1  0  0  0  0
 19 34  1  0  0  0  0
 19 35  1  0  0  0  0
 20 36  1  0  0  0  0
 20 37  1  0  0  0  0
 20 38  1  0  0  0  0
 21 22  2  0  0  0  0
 21 39  1  0  0  0  0
 22 40  1  0  0  0  0
 23 25  2  0  0  0  0
 23 26  1  0  0  0  0
 25 27  1  0  0  0  0
 26 28  2  0  0  0  0
 26 43  1  0  0  0  0
 27 29  2  0  0  0  0
 28 29  1  0  0  0  0
 28 44  1  0  0  0  0
M  END
> <PUBCHEM_COMPOUND_CID>
510484
> <PUBCHEM_COMPOUND_CANONICALIZED>
1
> <PUBCHEM_CACTVS_COMPLEXITY>
720
> <PUBCHEM_CACTVS_HBOND_ACCEPTOR>
8
> <PUBCHEM_CACTVS_HBOND_DONOR>
2
> <PUBCHEM_CACTVS_ROTATABLE_BOND>
5
> <PUBCHEM_CACTVS_SUBSKEYS>
AAADceB7sYBAAAAAAAAAAAAAAAAAAWAAAAAwYAAAAAAAAFgB9AAAHwQQQAAADQiF3giz0LZIEAKoAyVydHDCgC0hEqAJmCEwdJiIaLLAnZGUIAhokAJIyCcYicCeiAAAQAAAACAQAACAAAAAQAAAAAAAAA==
> <PUBCHEM_IUPAC_OPENEYE_NAME>
2-(2-amino-3-isopropylsulfonyl-benzimidazol-5-yl)-2-(2,3,4-trifluorophenyl)acetamide
> <PUBCHEM_IUPAC_CAS_NAME>
2-(2-amino-3-propan-2-ylsulfonyl-5-benzimidazolyl)-2-(2,3,4-trifluorophenyl)acetamide
> <PUBCHEM_IUPAC_NAME_MARKUP>
2-(2-amino-3-propan-2-ylsulfonylbenzimidazol-5-yl)-2-(2,3,4-trifluorophenyl)acetamide
> <PUBCHEM_IUPAC_NAME>
2-(2-amino-3-propan-2-ylsulfonylbenzimidazol-5-yl)-2-(2,3,4-trifluorophenyl)acetamide
> <PUBCHEM_IUPAC_SYSTEMATIC_NAME>
2-(2-azanyl-3-propan-2-ylsulfonyl-benzimidazol-5-yl)-2-[2,3,4-tris(fluoranyl)phenyl]ethanamide
> <PUBCHEM_IUPAC_TRADITIONAL_NAME>
2-(2-amino-3-isopropylsulfonyl-benzimidazol-5-yl)-2-(2,3,4-trifluorophenyl)acetamide
> <PUBCHEM_IUPAC_INCHI>
InChI=1S/C18H17F3N4O3S/c1-8(2)29(27,28)25-13-7-9(3-6-12(13)24-18(25)23)14(17(22)26)10-4-5-11(19)16(21)15(10)20/h3-8,14H,1-2H3,(H2,22,26)(H2,23,24)
> <PUBCHEM_IUPAC_INCHIKEY>
UVNNIIYPBGHWTB-UHFFFAOYSA-N
> <PUBCHEM_XLOGP3_AA>
2.9
> <PUBCHEM_EXACT_MASS>
426.09734608
> <PUBCHEM_MOLECULAR_FORMULA>
C18H17F3N4O3S
> <PUBCHEM_MOLECULAR_WEIGHT>
426.4
> <PUBCHEM_OPENEYE_CAN_SMILES>
CC(C)S(=O)(=O)N1C2=C(C=CC(=C2)C(C3=C(C(=C(C=C3)F)F)F)C(=O)N)N=C1N
> <PUBCHEM_OPENEYE_ISO_SMILES>
CC(C)S(=O)(=O)N1C2=C(C=CC(=C2)C(C3=C(C(=C(C=C3)F)F)F)C(=O)N)N=C1N
> <PUBCHEM_CACTVS_TPSA>
129
> <PUBCHEM_MONOISOTOPIC_WEIGHT>
426.09734608
> <PUBCHEM_TOTAL_CHARGE>
0
> <PUBCHEM_HEAVY_ATOM_COUNT>
29
> <PUBCHEM_ATOM_DEF_STEREO_COUNT>
0
> <PUBCHEM_ATOM_UDEF_STEREO_COUNT>
1
> <PUBCHEM_BOND_DEF_STEREO_COUNT>
0
> <PUBCHEM_BOND_UDEF_STEREO_COUNT>
0
> <PUBCHEM_ISOTOPIC_ATOM_COUNT>
0
> <PUBCHEM_COMPONENT_COUNT>
1
> <PUBCHEM_CACTVS_TAUTO_COUNT>
-1
> <PUBCHEM_COORDINATE_TYPE>
1
5
255
> <PUBCHEM_BONDANNOTATIONS>
13  15  8
13  17  8
14  17  8
14  21  8
15  22  8
16  24  3
21  22  8
23  25  8
23  26  8
25  27  8
26  28  8
27  29  8
28  29  8
8  13  8
8  18  8
9  15  8
9  18  8
$$$$
