510478
  -OEChem-10302200282D
 55 58  0     1  0  0  0  0  0999 V2000
    4.7766   -2.5280    0.0000 S   0  0  0  0  0  0  0  0  0  0  0  0
    4.0323   -3.1958    0.0000 O   0  0  0  0  0  0  0  0  0  0  0  0
    5.5209   -1.8601    0.0000 O   0  0  0  0  0  0  0  0  0  0  0  0
    7.7820    1.1881    0.0000 O   0  0  0  0  0  0  0  0  0  0  0  0
    4.1087   -1.7837    0.0000 N   0  0  0  0  0  0  0  0  0  0  0  0
    2.7149   -0.9789    0.0000 N   0  0  0  0  0  0  0  0  0  0  0  0
    2.6200   -2.7528    0.0000 N   0  0  0  0  0  0  0  0  0  0  0  0
    6.9160   -0.3119    0.0000 N   0  0  0  0  0  0  0  0  0  0  0  0
    4.3179   -0.8119    0.0000 C   0  0  0  0  0  0  0  0  0  0  0  0
    6.0500    1.1881    0.0000 C   0  0  3  0  0  0  0  0  0  0  0  0
    5.4444   -3.2723    0.0000 C   0  0  0  0  0  0  0  0  0  0  0  0
    5.1840    0.6881    0.0000 C   0  0  0  0  0  0  0  0  0  0  0  0
    5.1840   -0.3119    0.0000 C   0  0  0  0  0  0  0  0  0  0  0  0
    3.4519   -0.3119    0.0000 C   0  0  0  0  0  0  0  0  0  0  0  0
    6.0500    2.1881    0.0000 C   0  0  0  0  0  0  0  0  0  0  0  0
    3.1200   -1.8867    0.0000 C   0  0  0  0  0  0  0  0  0  0  0  0
    4.3179    1.1881    0.0000 C   0  0  0  0  0  0  0  0  0  0  0  0
    3.4519    0.6881    0.0000 C   0  0  0  0  0  0  0  0  0  0  0  0
    6.9160    2.6881    0.0000 C   0  0  0  0  0  0  0  0  0  0  0  0
    5.1338   -4.2228    0.0000 C   0  0  0  0  0  0  0  0  0  0  0  0
    6.4229   -3.0661    0.0000 C   0  0  0  0  0  0  0  0  0  0  0  0
    6.9160    0.6881    0.0000 C   0  0  0  0  0  0  0  0  0  0  0  0
    5.1840    2.6881    0.0000 C   0  0  0  0  0  0  0  0  0  0  0  0
    6.9160    3.6881    0.0000 C   0  0  0  0  0  0  0  0  0  0  0  0
    7.8100    2.1535    0.0000 C   0  0  0  0  0  0  0  0  0  0  0  0
    5.1840    3.6881    0.0000 C   0  0  0  0  0  0  0  0  0  0  0  0
    6.0500    4.1881    0.0000 C   0  0  0  0  0  0  0  0  0  0  0  0
    7.8100    4.2228    0.0000 C   0  0  0  0  0  0  0  0  0  0  0  0
    8.7160    2.6673    0.0000 C   0  0  0  0  0  0  0  0  0  0  0  0
    8.7160    3.7090    0.0000 C   0  0  0  0  0  0  0  0  0  0  0  0
    7.7820   -0.8119    0.0000 C   0  0  0  0  0  0  0  0  0  0  0  0
    6.0500    0.5681    0.0000 H   0  0  0  0  0  0  0  0  0  0  0  0
    4.8377   -3.4001    0.0000 H   0  0  0  0  0  0  0  0  0  0  0  0
    5.7209   -0.6219    0.0000 H   0  0  0  0  0  0  0  0  0  0  0  0
    4.3179    1.8081    0.0000 H   0  0  0  0  0  0  0  0  0  0  0  0
    2.9150    0.9981    0.0000 H   0  0  0  0  0  0  0  0  0  0  0  0
    4.5444   -4.0302    0.0000 H   0  0  0  0  0  0  0  0  0  0  0  0
    4.9411   -4.8121    0.0000 H   0  0  0  0  0  0  0  0  0  0  0  0
    5.7231   -4.4154    0.0000 H   0  0  0  0  0  0  0  0  0  0  0  0
    6.5508   -3.6727    0.0000 H   0  0  0  0  0  0  0  0  0  0  0  0
    7.0296   -2.9382    0.0000 H   0  0  0  0  0  0  0  0  0  0  0  0
    6.2951   -2.4594    0.0000 H   0  0  0  0  0  0  0  0  0  0  0  0
    4.6470    2.3781    0.0000 H   0  0  0  0  0  0  0  0  0  0  0  0
    7.8028    1.5335    0.0000 H   0  0  0  0  0  0  0  0  0  0  0  0
    4.6470    3.9981    0.0000 H   0  0  0  0  0  0  0  0  0  0  0  0
    6.0500    4.8081    0.0000 H   0  0  0  0  0  0  0  0  0  0  0  0
    2.0000   -2.7528    0.0000 H   0  0  0  0  0  0  0  0  0  0  0  0
    2.9300   -3.2897    0.0000 H   0  0  0  0  0  0  0  0  0  0  0  0
    6.3791   -0.6219    0.0000 H   0  0  0  0  0  0  0  0  0  0  0  0
    7.8028    4.8428    0.0000 H   0  0  0  0  0  0  0  0  0  0  0  0
    9.2518    2.3553    0.0000 H   0  0  0  0  0  0  0  0  0  0  0  0
    9.2518    4.0210    0.0000 H   0  0  0  0  0  0  0  0  0  0  0  0
    7.4720   -1.3488    0.0000 H   0  0  0  0  0  0  0  0  0  0  0  0
    8.3190   -1.1219    0.0000 H   0  0  0  0  0  0  0  0  0  0  0  0
    8.0920   -0.2749    0.0000 H   0  0  0  0  0  0  0  0  0  0  0  0
  1  2  2  0  0  0  0
  1  3  2  0  0  0  0
  1  5  1  0  0  0  0
  1 11  1  0  0  0  0
  4 22  2  0  0  0  0
  5  9  1  0  0  0  0
  5 16  1  0  0  0  0
  6 14  1  0  0  0  0
  6 16  2  0  0  0  0
  7 16  1  0  0  0  0
  7 47  1  0  0  0  0
  7 48  1  0  0  0  0
  8 22  1  0  0  0  0
  8 31  1  0  0  0  0
  8 49  1  0  0  0  0
  9 13  1  0  0  0  0
  9 14  2  0  0  0  0
 10 12  1  0  0  0  0
 10 15  1  0  0  0  0
 10 22  1  0  0  0  0
 10 32  1  0  0  0  0
 11 20  1  0  0  0  0
 11 21  1  0  0  0  0
 11 33  1  0  0  0  0
 12 13  2  0  0  0  0
 12 17  1  0  0  0  0
 13 34  1  0  0  0  0
 14 18  1  0  0  0  0
 15 19  1  0  0  0  0
 15 23  2  0  0  0  0
 17 18  2  0  0  0  0
 17 35  1  0  0  0  0
 18 36  1  0  0  0  0
 19 24  1  0  0  0  0
 19 25  2  0  0  0  0
 20 37  1  0  0  0  0
 20 38  1  0  0  0  0
 20 39  1  0  0  0  0
 21 40  1  0  0  0  0
 21 41  1  0  0  0  0
 21 42  1  0  0  0  0
 23 26  1  0  0  0  0
 23 43  1  0  0  0  0
 24 27  1  0  0  0  0
 24 28  2  0  0  0  0
 25 29  1  0  0  0  0
 25 44  1  0  0  0  0
 26 27  2  0  0  0  0
 26 45  1  0  0  0  0
 27 46  1  0  0  0  0
 28 30  1  0  0  0  0
 28 50  1  0  0  0  0
 29 30  2  0  0  0  0
 29 51  1  0  0  0  0
 30 52  1  0  0  0  0
 31 53  1  0  0  0  0
 31 54  1  0  0  0  0
 31 55  1  0  0  0  0
M  END
> <PUBCHEM_COMPOUND_CID>
510478
> <PUBCHEM_COMPOUND_CANONICALIZED>
1
> <PUBCHEM_CACTVS_COMPLEXITY>
752
> <PUBCHEM_CACTVS_HBOND_ACCEPTOR>
5
> <PUBCHEM_CACTVS_HBOND_DONOR>
2
> <PUBCHEM_CACTVS_ROTATABLE_BOND>
5
> <PUBCHEM_CACTVS_SUBSKEYS>
AAADceB7sABAAAAAAAAAAAAAAAAAAWAAAAAwYMAAAAAAAFjB9AAAHgQQQAAADQiF3gSz0PbIEAKoAyVydHDCgC0hEqAJmKE4dJiIaLLAnZGUIAhokgJIyCcYicCeiAACQAAQACAQAASAACAAQAAAAAAAAA==
> <PUBCHEM_IUPAC_OPENEYE_NAME>
2-(2-amino-3-isopropylsulfonyl-benzimidazol-5-yl)-N-methyl-2-(1-naphthyl)acetamide
> <PUBCHEM_IUPAC_CAS_NAME>
2-(2-amino-3-propan-2-ylsulfonyl-5-benzimidazolyl)-N-methyl-2-(1-naphthalenyl)acetamide
> <PUBCHEM_IUPAC_NAME_MARKUP>
2-(2-amino-3-propan-2-ylsulfonylbenzimidazol-5-yl)-<I>N</I>-methyl-2-naphthalen-1-ylacetamide
> <PUBCHEM_IUPAC_NAME>
2-(2-amino-3-propan-2-ylsulfonylbenzimidazol-5-yl)-N-methyl-2-naphthalen-1-ylacetamide
> <PUBCHEM_IUPAC_SYSTEMATIC_NAME>
2-(2-azanyl-3-propan-2-ylsulfonyl-benzimidazol-5-yl)-N-methyl-2-naphthalen-1-yl-ethanamide
> <PUBCHEM_IUPAC_TRADITIONAL_NAME>
2-(2-amino-3-isopropylsulfonyl-benzimidazol-5-yl)-N-methyl-2-(1-naphthyl)acetamide
> <PUBCHEM_IUPAC_INCHI>
InChI=1S/C23H24N4O3S/c1-14(2)31(29,30)27-20-13-16(11-12-19(20)26-23(27)24)21(22(28)25-3)18-10-6-8-15-7-4-5-9-17(15)18/h4-14,21H,1-3H3,(H2,24,26)(H,25,28)
> <PUBCHEM_IUPAC_INCHIKEY>
ILWHYBIQUZLPGO-UHFFFAOYSA-N
> <PUBCHEM_XLOGP3_AA>
4.3
> <PUBCHEM_EXACT_MASS>
436.15691181
> <PUBCHEM_MOLECULAR_FORMULA>
C23H24N4O3S
> <PUBCHEM_MOLECULAR_WEIGHT>
436.5
> <PUBCHEM_OPENEYE_CAN_SMILES>
CC(C)S(=O)(=O)N1C2=C(C=CC(=C2)C(C3=CC=CC4=CC=CC=C43)C(=O)NC)N=C1N
> <PUBCHEM_OPENEYE_ISO_SMILES>
CC(C)S(=O)(=O)N1C2=C(C=CC(=C2)C(C3=CC=CC4=CC=CC=C43)C(=O)NC)N=C1N
> <PUBCHEM_CACTVS_TPSA>
116
> <PUBCHEM_MONOISOTOPIC_WEIGHT>
436.15691181
> <PUBCHEM_TOTAL_CHARGE>
0
> <PUBCHEM_HEAVY_ATOM_COUNT>
31
> <PUBCHEM_ATOM_DEF_STEREO_COUNT>
0
> <PUBCHEM_ATOM_UDEF_STEREO_COUNT>
1
> <PUBCHEM_BOND_DEF_STEREO_COUNT>
0
> <PUBCHEM_BOND_UDEF_STEREO_COUNT>
0
> <PUBCHEM_ISOTOPIC_ATOM_COUNT>
0
> <PUBCHEM_COMPONENT_COUNT>
1
> <PUBCHEM_CACTVS_TAUTO_COUNT>
-1
> <PUBCHEM_COORDINATE_TYPE>
1
5
255
> <PUBCHEM_BONDANNOTATIONS>
10  22  3
12  13  8
12  17  8
14  18  8
15  19  8
15  23  8
17  18  8
19  24  8
19  25  8
23  26  8
24  27  8
24  28  8
25  29  8
26  27  8
28  30  8
29  30  8
5  16  8
5  9  8
6  14  8
6  16  8
9  13  8
9  14  8
$$$$
