510499
  -OEChem-10302200282D
 48 50  0     1  0  0  0  0  0999 V2000
    2.8070    0.4301    0.0000 O   0  0  0  0  0  0  0  0  0  0  0  0
    5.4050    2.9301    0.0000 O   0  0  0  0  0  0  0  0  0  0  0  0
    6.2711    1.4301    0.0000 O   0  0  0  0  0  0  0  0  0  0  0  0
    4.5390    0.4301    0.0000 N   0  0  0  0  0  0  0  0  0  0  0  0
    3.6730   -1.0699    0.0000 C   0  0  0  0  0  0  0  0  0  0  0  0
    4.5092   -2.5182    0.0000 C   0  0  0  0  0  0  0  0  0  0  0  0
    2.8368   -2.5182    0.0000 C   0  0  0  0  0  0  0  0  0  0  0  0
    2.9819   -2.9533    0.0000 C   0  0  0  0  0  0  0  0  0  0  0  0
    4.5092   -1.5527    0.0000 C   0  0  0  0  0  0  0  0  0  0  0  0
    2.8368   -1.5527    0.0000 C   0  0  0  0  0  0  0  0  0  0  0  0
    2.9819   -1.9080    0.0000 C   0  0  0  0  0  0  0  0  0  0  0  0
    3.6730   -2.8210    0.0000 C   0  0  0  0  0  0  0  0  0  0  0  0
    3.8876   -3.4301    0.0000 C   0  0  0  0  0  0  0  0  0  0  0  0
    2.0000   -3.0010    0.0000 C   0  0  0  0  0  0  0  0  0  0  0  0
    3.6730   -0.0699    0.0000 C   0  0  0  0  0  0  0  0  0  0  0  0
    4.5390    1.4301    0.0000 C   0  0  1  0  0  0  0  0  0  0  0  0
    3.6730    1.9301    0.0000 C   0  0  0  0  0  0  0  0  0  0  0  0
    5.4050    1.9301    0.0000 C   0  0  0  0  0  0  0  0  0  0  0  0
    3.6730    2.9301    0.0000 C   0  0  0  0  0  0  0  0  0  0  0  0
    2.8070    3.4301    0.0000 C   0  0  0  0  0  0  0  0  0  0  0  0
    4.5390    3.4301    0.0000 C   0  0  0  0  0  0  0  0  0  0  0  0
    5.1016   -2.7009    0.0000 H   0  0  0  0  0  0  0  0  0  0  0  0
    3.3444   -2.1622    0.0000 H   0  0  0  0  0  0  0  0  0  0  0  0
    2.8478   -3.5586    0.0000 H   0  0  0  0  0  0  0  0  0  0  0  0
    5.1198   -1.6603    0.0000 H   0  0  0  0  0  0  0  0  0  0  0  0
    4.7212   -0.9701    0.0000 H   0  0  0  0  0  0  0  0  0  0  0  0
    2.6247   -0.9701    0.0000 H   0  0  0  0  0  0  0  0  0  0  0  0
    2.2262   -1.6603    0.0000 H   0  0  0  0  0  0  0  0  0  0  0  0
    2.6383   -1.3920    0.0000 H   0  0  0  0  0  0  0  0  0  0  0  0
    2.3885   -2.0875    0.0000 H   0  0  0  0  0  0  0  0  0  0  0  0
    3.3030   -3.3185    0.0000 H   0  0  0  0  0  0  0  0  0  0  0  0
    4.0430   -3.3185    0.0000 H   0  0  0  0  0  0  0  0  0  0  0  0
    3.5782   -3.9674    0.0000 H   0  0  0  0  0  0  0  0  0  0  0  0
    4.4127   -3.7597    0.0000 H   0  0  0  0  0  0  0  0  0  0  0  0
    1.5188   -2.6101    0.0000 H   0  0  0  0  0  0  0  0  0  0  0  0
    1.8068   -3.5901    0.0000 H   0  0  0  0  0  0  0  0  0  0  0  0
    5.0760    0.1201    0.0000 H   0  0  0  0  0  0  0  0  0  0  0  0
    4.0021    1.1201    0.0000 H   0  0  0  0  0  0  0  0  0  0  0  0
    3.0624    2.0378    0.0000 H   0  0  0  0  0  0  0  0  0  0  0  0
    3.4609    1.3475    0.0000 H   0  0  0  0  0  0  0  0  0  0  0  0
    4.2099    2.6201    0.0000 H   0  0  0  0  0  0  0  0  0  0  0  0
    3.1170    3.9670    0.0000 H   0  0  0  0  0  0  0  0  0  0  0  0
    2.2700    3.7401    0.0000 H   0  0  0  0  0  0  0  0  0  0  0  0
    2.4970    2.8932    0.0000 H   0  0  0  0  0  0  0  0  0  0  0  0
    4.8490    2.8932    0.0000 H   0  0  0  0  0  0  0  0  0  0  0  0
    5.0759    3.7401    0.0000 H   0  0  0  0  0  0  0  0  0  0  0  0
    4.2290    3.9670    0.0000 H   0  0  0  0  0  0  0  0  0  0  0  0
    5.9420    3.2401    0.0000 H   0  0  0  0  0  0  0  0  0  0  0  0
  1 15  2  0  0  0  0
  2 18  1  0  0  0  0
  2 48  1  0  0  0  0
  3 18  2  0  0  0  0
  4 15  1  0  0  0  0
 16  4  1  1  0  0  0
  4 37  1  0  0  0  0
  5  9  1  0  0  0  0
  5 10  1  0  0  0  0
  5 11  1  0  0  0  0
  5 15  1  0  0  0  0
  6  9  1  0  0  0  0
  6 12  1  0  0  0  0
  6 13  1  0  0  0  0
  6 22  1  0  0  0  0
  7 10  1  0  0  0  0
  7 12  1  0  0  0  0
  7 14  1  0  0  0  0
  7 23  1  0  0  0  0
  8 11  1  0  0  0  0
  8 13  1  0  0  0  0
  8 14  1  0  0  0  0
  8 24  1  0  0  0  0
  9 25  1  0  0  0  0
  9 26  1  0  0  0  0
 10 27  1  0  0  0  0
 10 28  1  0  0  0  0
 11 29  1  0  0  0  0
 11 30  1  0  0  0  0
 12 31  1  0  0  0  0
 12 32  1  0  0  0  0
 13 33  1  0  0  0  0
 13 34  1  0  0  0  0
 14 35  1  0  0  0  0
 14 36  1  0  0  0  0
 16 17  1  0  0  0  0
 16 18  1  0  0  0  0
 16 38  1  0  0  0  0
 17 19  1  0  0  0  0
 17 39  1  0  0  0  0
 17 40  1  0  0  0  0
 19 20  1  0  0  0  0
 19 21  1  0  0  0  0
 19 41  1  0  0  0  0
 20 42  1  0  0  0  0
 20 43  1  0  0  0  0
 20 44  1  0  0  0  0
 21 45  1  0  0  0  0
 21 46  1  0  0  0  0
 21 47  1  0  0  0  0
M  END
> <PUBCHEM_COMPOUND_CID>
510499
> <PUBCHEM_COMPOUND_CANONICALIZED>
1
> <PUBCHEM_CACTVS_COMPLEXITY>
402
> <PUBCHEM_CACTVS_HBOND_ACCEPTOR>
3
> <PUBCHEM_CACTVS_HBOND_DONOR>
2
> <PUBCHEM_CACTVS_ROTATABLE_BOND>
5
> <PUBCHEM_CACTVS_SUBSKEYS>
AAADceB6MAAAAAAAAAAAAAAAAAAAAAAAAAAwYMGAAAAAAAAAAAAAHgAQCAAADyjBgAQCCALAAgAIAAGQGAAAAAAAAAAAAIGIAAACABIAgCAEQAAEFgCQAAGYiMCPAAAAAAAAAAAAAAQAAAAAAAAAAAAAAA==
> <PUBCHEM_IUPAC_OPENEYE_NAME>
(2S)-2-(adamantane-1-carbonylamino)-4-methyl-pentanoic acid
> <PUBCHEM_IUPAC_CAS_NAME>
(2S)-2-[[1-adamantyl(oxo)methyl]amino]-4-methylpentanoic acid
> <PUBCHEM_IUPAC_NAME_MARKUP>
(2<I>S</I>)-2-(adamantane-1-carbonylamino)-4-methylpentanoic acid
> <PUBCHEM_IUPAC_NAME>
(2S)-2-(adamantane-1-carbonylamino)-4-methylpentanoic acid
> <PUBCHEM_IUPAC_SYSTEMATIC_NAME>
(2S)-2-(1-adamantylcarbonylamino)-4-methyl-pentanoic acid
> <PUBCHEM_IUPAC_TRADITIONAL_NAME>
(2S)-2-(adamantane-1-carbonylamino)-4-methyl-valeric acid
> <PUBCHEM_IUPAC_INCHI>
InChI=1S/C17H27NO3/c1-10(2)3-14(15(19)20)18-16(21)17-7-11-4-12(8-17)6-13(5-11)9-17/h10-14H,3-9H2,1-2H3,(H,18,21)(H,19,20)/t11?,12?,13?,14-,17?/m0/s1
> <PUBCHEM_IUPAC_INCHIKEY>
JOUXQDDDDNUCGU-ZZTKBFGJSA-N
> <PUBCHEM_XLOGP3_AA>
3.4
> <PUBCHEM_EXACT_MASS>
293.19909372
> <PUBCHEM_MOLECULAR_FORMULA>
C17H27NO3
> <PUBCHEM_MOLECULAR_WEIGHT>
293.4
> <PUBCHEM_OPENEYE_CAN_SMILES>
CC(C)CC(C(=O)O)NC(=O)C12CC3CC(C1)CC(C3)C2
> <PUBCHEM_OPENEYE_ISO_SMILES>
CC(C)C[C@@H](C(=O)O)NC(=O)C12CC3CC(C1)CC(C3)C2
> <PUBCHEM_CACTVS_TPSA>
66.4
> <PUBCHEM_MONOISOTOPIC_WEIGHT>
293.19909372
> <PUBCHEM_TOTAL_CHARGE>
0
> <PUBCHEM_HEAVY_ATOM_COUNT>
21
> <PUBCHEM_ATOM_DEF_STEREO_COUNT>
1
> <PUBCHEM_ATOM_UDEF_STEREO_COUNT>
0
> <PUBCHEM_BOND_DEF_STEREO_COUNT>
0
> <PUBCHEM_BOND_UDEF_STEREO_COUNT>
0
> <PUBCHEM_ISOTOPIC_ATOM_COUNT>
0
> <PUBCHEM_COMPONENT_COUNT>
1
> <PUBCHEM_CACTVS_TAUTO_COUNT>
-1
> <PUBCHEM_COORDINATE_TYPE>
1
5
255
> <PUBCHEM_BONDANNOTATIONS>
16  4  5
$$$$
