510480
  -OEChem-10302200282D
 50 52  0     1  0  0  0  0  0999 V2000
    9.3191    1.0302    0.0000 S   0  0  0  0  0  0  0  0  0  0  0  0
    2.0000    0.2750    0.0000 F   0  0  0  0  0  0  0  0  0  0  0  0
   10.2696    0.7196    0.0000 O   0  0  0  0  0  0  0  0  0  0  0  0
    8.3685    1.3409    0.0000 O   0  0  0  0  0  0  0  0  0  0  0  0
    6.3301    1.7750    0.0000 O   0  0  0  0  0  0  0  0  0  0  0  0
    2.0000   -1.7250    0.0000 O   0  0  0  0  0  0  0  0  0  0  0  0
    9.0084    0.0797    0.0000 N   0  0  0  0  0  0  0  0  0  0  0  0
    9.0084   -1.5298    0.0000 N   0  0  0  0  0  0  0  0  0  0  0  0
   10.5920   -0.7250    0.0000 N   0  0  0  0  0  0  0  0  0  0  0  0
    4.5981    1.7750    0.0000 N   0  0  0  0  0  0  0  0  0  0  0  0
    9.6297    1.9807    0.0000 C   0  0  0  0  0  0  0  0  0  0  0  0
    8.0622   -0.2250    0.0000 C   0  0  0  0  0  0  0  0  0  0  0  0
    6.3301   -0.2250    0.0000 C   0  0  0  0  0  0  0  0  0  0  0  0
    8.0622   -1.2250    0.0000 C   0  0  0  0  0  0  0  0  0  0  0  0
    5.4641    0.2750    0.0000 C   0  0  3  0  0  0  0  0  0  0  0  0
    7.1962    0.2750    0.0000 C   0  0  0  0  0  0  0  0  0  0  0  0
    9.5920   -0.7250    0.0000 C   0  0  0  0  0  0  0  0  0  0  0  0
   10.6082    2.1870    0.0000 C   0  0  0  0  0  0  0  0  0  0  0  0
    8.9619    2.7250    0.0000 C   0  0  0  0  0  0  0  0  0  0  0  0
    6.3301   -1.2250    0.0000 C   0  0  0  0  0  0  0  0  0  0  0  0
    7.1962   -1.7250    0.0000 C   0  0  0  0  0  0  0  0  0  0  0  0
    4.5981   -0.2250    0.0000 C   0  0  0  0  0  0  0  0  0  0  0  0
    5.4641    1.2750    0.0000 C   0  0  0  0  0  0  0  0  0  0  0  0
    3.7320    0.2750    0.0000 C   0  0  0  0  0  0  0  0  0  0  0  0
    4.5981   -1.2250    0.0000 C   0  0  0  0  0  0  0  0  0  0  0  0
    2.8660   -0.2250    0.0000 C   0  0  0  0  0  0  0  0  0  0  0  0
    3.7320   -1.7250    0.0000 C   0  0  0  0  0  0  0  0  0  0  0  0
    2.8660   -1.2250    0.0000 C   0  0  0  0  0  0  0  0  0  0  0  0
    2.0000   -2.7250    0.0000 C   0  0  0  0  0  0  0  0  0  0  0  0
   10.0438    1.5193    0.0000 H   0  0  0  0  0  0  0  0  0  0  0  0
    6.0010    0.5850    0.0000 H   0  0  0  0  0  0  0  0  0  0  0  0
    7.1962    0.8950    0.0000 H   0  0  0  0  0  0  0  0  0  0  0  0
   10.7361    1.5803    0.0000 H   0  0  0  0  0  0  0  0  0  0  0  0
   11.2149    2.3148    0.0000 H   0  0  0  0  0  0  0  0  0  0  0  0
   10.4804    2.7936    0.0000 H   0  0  0  0  0  0  0  0  0  0  0  0
    9.4233    3.1391    0.0000 H   0  0  0  0  0  0  0  0  0  0  0  0
    8.5478    3.1865    0.0000 H   0  0  0  0  0  0  0  0  0  0  0  0
    8.5004    2.3110    0.0000 H   0  0  0  0  0  0  0  0  0  0  0  0
    5.7932   -1.5350    0.0000 H   0  0  0  0  0  0  0  0  0  0  0  0
    7.1962   -2.3450    0.0000 H   0  0  0  0  0  0  0  0  0  0  0  0
   10.9020   -1.2620    0.0000 H   0  0  0  0  0  0  0  0  0  0  0  0
   10.9020   -0.1881    0.0000 H   0  0  0  0  0  0  0  0  0  0  0  0
    3.7320    0.8950    0.0000 H   0  0  0  0  0  0  0  0  0  0  0  0
    5.1350   -1.5350    0.0000 H   0  0  0  0  0  0  0  0  0  0  0  0
    3.7320   -2.3450    0.0000 H   0  0  0  0  0  0  0  0  0  0  0  0
    4.5981    2.3950    0.0000 H   0  0  0  0  0  0  0  0  0  0  0  0
    4.0611    1.4650    0.0000 H   0  0  0  0  0  0  0  0  0  0  0  0
    1.3800   -2.7250    0.0000 H   0  0  0  0  0  0  0  0  0  0  0  0
    2.0000   -3.3450    0.0000 H   0  0  0  0  0  0  0  0  0  0  0  0
    2.6200   -2.7250    0.0000 H   0  0  0  0  0  0  0  0  0  0  0  0
  1  3  2  0  0  0  0
  1  4  2  0  0  0  0
  1  7  1  0  0  0  0
  1 11  1  0  0  0  0
  2 26  1  0  0  0  0
  5 23  2  0  0  0  0
  6 28  1  0  0  0  0
  6 29  1  0  0  0  0
  7 12  1  0  0  0  0
  7 17  1  0  0  0  0
  8 14  1  0  0  0  0
  8 17  2  0  0  0  0
  9 17  1  0  0  0  0
  9 41  1  0  0  0  0
  9 42  1  0  0  0  0
 10 23  1  0  0  0  0
 10 46  1  0  0  0  0
 10 47  1  0  0  0  0
 11 18  1  0  0  0  0
 11 19  1  0  0  0  0
 11 30  1  0  0  0  0
 12 14  2  0  0  0  0
 12 16  1  0  0  0  0
 13 15  1  0  0  0  0
 13 16  2  0  0  0  0
 13 20  1  0  0  0  0
 14 21  1  0  0  0  0
 15 22  1  0  0  0  0
 15 23  1  0  0  0  0
 15 31  1  0  0  0  0
 16 32  1  0  0  0  0
 18 33  1  0  0  0  0
 18 34  1  0  0  0  0
 18 35  1  0  0  0  0
 19 36  1  0  0  0  0
 19 37  1  0  0  0  0
 19 38  1  0  0  0  0
 20 21  2  0  0  0  0
 20 39  1  0  0  0  0
 21 40  1  0  0  0  0
 22 24  2  0  0  0  0
 22 25  1  0  0  0  0
 24 26  1  0  0  0  0
 24 43  1  0  0  0  0
 25 27  2  0  0  0  0
 25 44  1  0  0  0  0
 26 28  2  0  0  0  0
 27 28  1  0  0  0  0
 27 45  1  0  0  0  0
 29 48  1  0  0  0  0
 29 49  1  0  0  0  0
 29 50  1  0  0  0  0
M  END
> <PUBCHEM_COMPOUND_CID>
510480
> <PUBCHEM_COMPOUND_CANONICALIZED>
1
> <PUBCHEM_CACTVS_COMPLEXITY>
701
> <PUBCHEM_CACTVS_HBOND_ACCEPTOR>
7
> <PUBCHEM_CACTVS_HBOND_DONOR>
2
> <PUBCHEM_CACTVS_ROTATABLE_BOND>
6
> <PUBCHEM_CACTVS_SUBSKEYS>
AAADceB7uQBAAAAAAAAAAAAAAAAAAWAAAAAwYAAAAAAAAFgB9AAAHwQQQAAADQyF3gqz1rZIFAKoAyVydHDCiC0hMqAJmCE2fJiMbrLEvZuUMChs0BNI6CeYyfCeqAAAQAAAACBQAACAAAAAQAAAAAAAAA==
> <PUBCHEM_IUPAC_OPENEYE_NAME>
2-(2-amino-3-isopropylsulfonyl-benzimidazol-5-yl)-2-(3-fluoro-4-methoxy-phenyl)acetamide
> <PUBCHEM_IUPAC_CAS_NAME>
2-(2-amino-3-propan-2-ylsulfonyl-5-benzimidazolyl)-2-(3-fluoro-4-methoxyphenyl)acetamide
> <PUBCHEM_IUPAC_NAME_MARKUP>
2-(2-amino-3-propan-2-ylsulfonylbenzimidazol-5-yl)-2-(3-fluoro-4-methoxyphenyl)acetamide
> <PUBCHEM_IUPAC_NAME>
2-(2-amino-3-propan-2-ylsulfonylbenzimidazol-5-yl)-2-(3-fluoro-4-methoxyphenyl)acetamide
> <PUBCHEM_IUPAC_SYSTEMATIC_NAME>
2-(2-azanyl-3-propan-2-ylsulfonyl-benzimidazol-5-yl)-2-(3-fluoranyl-4-methoxy-phenyl)ethanamide
> <PUBCHEM_IUPAC_TRADITIONAL_NAME>
2-(2-amino-3-isopropylsulfonyl-benzimidazol-5-yl)-2-(3-fluoro-4-methoxy-phenyl)acetamide
> <PUBCHEM_IUPAC_INCHI>
InChI=1S/C19H21FN4O4S/c1-10(2)29(26,27)24-15-9-12(4-6-14(15)23-19(24)22)17(18(21)25)11-5-7-16(28-3)13(20)8-11/h4-10,17H,1-3H3,(H2,21,25)(H2,22,23)
> <PUBCHEM_IUPAC_INCHIKEY>
JAZOLGFEOCHSBX-UHFFFAOYSA-N
> <PUBCHEM_XLOGP3_AA>
2.7
> <PUBCHEM_EXACT_MASS>
420.12675450
> <PUBCHEM_MOLECULAR_FORMULA>
C19H21FN4O4S
> <PUBCHEM_MOLECULAR_WEIGHT>
420.5
> <PUBCHEM_OPENEYE_CAN_SMILES>
CC(C)S(=O)(=O)N1C2=C(C=CC(=C2)C(C3=CC(=C(C=C3)OC)F)C(=O)N)N=C1N
> <PUBCHEM_OPENEYE_ISO_SMILES>
CC(C)S(=O)(=O)N1C2=C(C=CC(=C2)C(C3=CC(=C(C=C3)OC)F)C(=O)N)N=C1N
> <PUBCHEM_CACTVS_TPSA>
139
> <PUBCHEM_MONOISOTOPIC_WEIGHT>
420.12675450
> <PUBCHEM_TOTAL_CHARGE>
0
> <PUBCHEM_HEAVY_ATOM_COUNT>
29
> <PUBCHEM_ATOM_DEF_STEREO_COUNT>
0
> <PUBCHEM_ATOM_UDEF_STEREO_COUNT>
1
> <PUBCHEM_BOND_DEF_STEREO_COUNT>
0
> <PUBCHEM_BOND_UDEF_STEREO_COUNT>
0
> <PUBCHEM_ISOTOPIC_ATOM_COUNT>
0
> <PUBCHEM_COMPONENT_COUNT>
1
> <PUBCHEM_CACTVS_TAUTO_COUNT>
-1
> <PUBCHEM_COORDINATE_TYPE>
1
5
255
> <PUBCHEM_BONDANNOTATIONS>
12  14  8
12  16  8
13  16  8
13  20  8
14  21  8
15  23  3
20  21  8
22  24  8
22  25  8
24  26  8
25  27  8
26  28  8
27  28  8
7  12  8
7  17  8
8  14  8
8  17  8
$$$$
