510458
  -OEChem-10302200282D
 49 51  0     1  0  0  0  0  0999 V2000
    6.3981    1.7500    0.0000 O   0  0  0  0  0  0  0  0  0  0  0  0
    4.6660   -1.2500    0.0000 O   0  0  0  0  0  0  0  0  0  0  0  0
    3.8000    3.2500    0.0000 O   0  0  0  0  0  0  0  0  0  0  0  0
    8.1301   -3.2500    0.0000 O   0  0  0  0  0  0  0  0  0  0  0  0
    6.3981   -3.2500    0.0000 O   0  0  0  0  0  0  0  0  0  0  0  0
    5.5321    0.2500    0.0000 N   0  0  0  0  0  0  0  0  0  0  0  0
    4.6660    1.7500    0.0000 C   0  0  3  0  0  0  0  0  0  0  0  0
    3.8000    1.2500    0.0000 C   0  0  0  0  0  0  0  0  0  0  0  0
    5.5321    1.2500    0.0000 C   0  0  0  0  0  0  0  0  0  0  0  0
    6.3981   -0.2500    0.0000 C   0  0  0  0  0  0  0  0  0  0  0  0
    3.8000    0.2500    0.0000 C   0  0  0  0  0  0  0  0  0  0  0  0
    4.6660   -0.2500    0.0000 C   0  0  0  0  0  0  0  0  0  0  0  0
    6.3981   -1.2500    0.0000 C   0  0  0  0  0  0  0  0  0  0  0  0
    4.6660    2.7500    0.0000 C   0  0  0  0  0  0  0  0  0  0  0  0
    2.9061    1.7847    0.0000 C   0  0  0  0  0  0  0  0  0  0  0  0
    2.9061   -0.2847    0.0000 C   0  0  0  0  0  0  0  0  0  0  0  0
    7.2641   -1.7500    0.0000 C   0  0  0  0  0  0  0  0  0  0  0  0
    5.5321    3.2500    0.0000 C   0  0  0  0  0  0  0  0  0  0  0  0
    2.0000    1.2708    0.0000 C   0  0  0  0  0  0  0  0  0  0  0  0
    2.0000    0.2292    0.0000 C   0  0  0  0  0  0  0  0  0  0  0  0
    7.2641   -2.7500    0.0000 C   0  0  0  0  0  0  0  0  0  0  0  0
    5.5321    4.2500    0.0000 C   0  0  0  0  0  0  0  0  0  0  0  0
    6.3981    2.7500    0.0000 C   0  0  0  0  0  0  0  0  0  0  0  0
    6.3981    4.7500    0.0000 C   0  0  0  0  0  0  0  0  0  0  0  0
    7.2641    3.2500    0.0000 C   0  0  0  0  0  0  0  0  0  0  0  0
    7.2641    4.2500    0.0000 C   0  0  0  0  0  0  0  0  0  0  0  0
    8.1301   -4.2500    0.0000 C   0  0  0  0  0  0  0  0  0  0  0  0
    8.9962   -4.7500    0.0000 C   0  0  0  0  0  0  0  0  0  0  0  0
    5.2030    2.0600    0.0000 H   0  0  0  0  0  0  0  0  0  0  0  0
    7.0087   -0.3577    0.0000 H   0  0  0  0  0  0  0  0  0  0  0  0
    6.6101    0.3326    0.0000 H   0  0  0  0  0  0  0  0  0  0  0  0
    5.7875   -1.1423    0.0000 H   0  0  0  0  0  0  0  0  0  0  0  0
    6.1860   -1.8326    0.0000 H   0  0  0  0  0  0  0  0  0  0  0  0
    2.9132    2.4046    0.0000 H   0  0  0  0  0  0  0  0  0  0  0  0
    2.9132   -0.9046    0.0000 H   0  0  0  0  0  0  0  0  0  0  0  0
    7.8747   -1.8577    0.0000 H   0  0  0  0  0  0  0  0  0  0  0  0
    7.4762   -1.1674    0.0000 H   0  0  0  0  0  0  0  0  0  0  0  0
    1.4643    1.5829    0.0000 H   0  0  0  0  0  0  0  0  0  0  0  0
    1.4643   -0.0829    0.0000 H   0  0  0  0  0  0  0  0  0  0  0  0
    4.9951    4.5600    0.0000 H   0  0  0  0  0  0  0  0  0  0  0  0
    6.3981    2.1300    0.0000 H   0  0  0  0  0  0  0  0  0  0  0  0
    6.3981    5.3700    0.0000 H   0  0  0  0  0  0  0  0  0  0  0  0
    7.8010    2.9400    0.0000 H   0  0  0  0  0  0  0  0  0  0  0  0
    7.8010    4.5600    0.0000 H   0  0  0  0  0  0  0  0  0  0  0  0
    7.5196   -4.1423    0.0000 H   0  0  0  0  0  0  0  0  0  0  0  0
    7.9181   -4.8326    0.0000 H   0  0  0  0  0  0  0  0  0  0  0  0
    8.6862   -5.2869    0.0000 H   0  0  0  0  0  0  0  0  0  0  0  0
    9.5331   -5.0600    0.0000 H   0  0  0  0  0  0  0  0  0  0  0  0
    9.3062   -4.2131    0.0000 H   0  0  0  0  0  0  0  0  0  0  0  0
  1  9  2  0  0  0  0
  2 12  2  0  0  0  0
  3 14  2  0  0  0  0
  4 21  1  0  0  0  0
  4 27  1  0  0  0  0
  5 21  2  0  0  0  0
  6  9  1  0  0  0  0
  6 10  1  0  0  0  0
  6 12  1  0  0  0  0
  7  8  1  0  0  0  0
  7  9  1  0  0  0  0
  7 14  1  0  0  0  0
  7 29  1  0  0  0  0
  8 11  1  0  0  0  0
  8 15  2  0  0  0  0
 10 13  1  0  0  0  0
 10 30  1  0  0  0  0
 10 31  1  0  0  0  0
 11 12  1  0  0  0  0
 11 16  2  0  0  0  0
 13 17  1  0  0  0  0
 13 32  1  0  0  0  0
 13 33  1  0  0  0  0
 14 18  1  0  0  0  0
 15 19  1  0  0  0  0
 15 34  1  0  0  0  0
 16 20  1  0  0  0  0
 16 35  1  0  0  0  0
 17 21  1  0  0  0  0
 17 36  1  0  0  0  0
 17 37  1  0  0  0  0
 18 22  2  0  0  0  0
 18 23  1  0  0  0  0
 19 20  2  0  0  0  0
 19 38  1  0  0  0  0
 20 39  1  0  0  0  0
 22 24  1  0  0  0  0
 22 40  1  0  0  0  0
 23 25  2  0  0  0  0
 23 41  1  0  0  0  0
 24 26  2  0  0  0  0
 24 42  1  0  0  0  0
 25 26  1  0  0  0  0
 25 43  1  0  0  0  0
 26 44  1  0  0  0  0
 27 28  1  0  0  0  0
 27 45  1  0  0  0  0
 27 46  1  0  0  0  0
 28 47  1  0  0  0  0
 28 48  1  0  0  0  0
 28 49  1  0  0  0  0
M  END
> <PUBCHEM_COMPOUND_CID>
510458
> <PUBCHEM_COMPOUND_CANONICALIZED>
1
> <PUBCHEM_CACTVS_COMPLEXITY>
610
> <PUBCHEM_CACTVS_HBOND_ACCEPTOR>
5
> <PUBCHEM_CACTVS_HBOND_DONOR>
0
> <PUBCHEM_CACTVS_ROTATABLE_BOND>
8
> <PUBCHEM_CACTVS_SUBSKEYS>
AAADceB6OAAAAAAAAAAAAAAAAAAAAAAAAAA8YIAAAAAAAACxQAAAHgAAAAAADQThmAYyCIMABACIAqHSGACCAAAkAAAIiAEIBMgIIDqIlRGGIQhkhiCIiYc8i8CugAAAAAAQAAAAAAAAACAAAAAAAAAAAA==
> <PUBCHEM_IUPAC_OPENEYE_NAME>
ethyl 4-(4-benzoyl-1,3-dioxo-4H-isoquinolin-2-yl)butanoate
> <PUBCHEM_IUPAC_CAS_NAME>
4-(4-benzoyl-1,3-dioxo-4H-isoquinolin-2-yl)butanoic acid ethyl ester
> <PUBCHEM_IUPAC_NAME_MARKUP>
ethyl 4-(4-benzoyl-1,3-dioxo-4<I>H</I>-isoquinolin-2-yl)butanoate
> <PUBCHEM_IUPAC_NAME>
ethyl 4-(4-benzoyl-1,3-dioxo-4H-isoquinolin-2-yl)butanoate
> <PUBCHEM_IUPAC_SYSTEMATIC_NAME>
ethyl 4-[1,3-bis(oxidanylidene)-4-(phenylcarbonyl)-4H-isoquinolin-2-yl]butanoate
> <PUBCHEM_IUPAC_TRADITIONAL_NAME>
4-(4-benzoyl-1,3-diketo-4H-isoquinolin-2-yl)butyric acid ethyl ester
> <PUBCHEM_IUPAC_INCHI>
InChI=1S/C22H21NO5/c1-2-28-18(24)13-8-14-23-21(26)17-12-7-6-11-16(17)19(22(23)27)20(25)15-9-4-3-5-10-15/h3-7,9-12,19H,2,8,13-14H2,1H3
> <PUBCHEM_IUPAC_INCHIKEY>
PEQALBWXNZMLPX-UHFFFAOYSA-N
> <PUBCHEM_XLOGP3_AA>
3
> <PUBCHEM_EXACT_MASS>
379.14197277
> <PUBCHEM_MOLECULAR_FORMULA>
C22H21NO5
> <PUBCHEM_MOLECULAR_WEIGHT>
379.4
> <PUBCHEM_OPENEYE_CAN_SMILES>
CCOC(=O)CCCN1C(=O)C(C2=CC=CC=C2C1=O)C(=O)C3=CC=CC=C3
> <PUBCHEM_OPENEYE_ISO_SMILES>
CCOC(=O)CCCN1C(=O)C(C2=CC=CC=C2C1=O)C(=O)C3=CC=CC=C3
> <PUBCHEM_CACTVS_TPSA>
80.8
> <PUBCHEM_MONOISOTOPIC_WEIGHT>
379.14197277
> <PUBCHEM_TOTAL_CHARGE>
0
> <PUBCHEM_HEAVY_ATOM_COUNT>
28
> <PUBCHEM_ATOM_DEF_STEREO_COUNT>
0
> <PUBCHEM_ATOM_UDEF_STEREO_COUNT>
1
> <PUBCHEM_BOND_DEF_STEREO_COUNT>
0
> <PUBCHEM_BOND_UDEF_STEREO_COUNT>
0
> <PUBCHEM_ISOTOPIC_ATOM_COUNT>
0
> <PUBCHEM_COMPONENT_COUNT>
1
> <PUBCHEM_CACTVS_TAUTO_COUNT>
-1
> <PUBCHEM_COORDINATE_TYPE>
1
5
255
> <PUBCHEM_BONDANNOTATIONS>
11  16  8
15  19  8
16  20  8
18  22  8
18  23  8
19  20  8
22  24  8
23  25  8
24  26  8
25  26  8
7  14  3
8  11  8
8  15  8
$$$$
