510477
  -OEChem-10302200282D
 46 48  0     1  0  0  0  0  0999 V2000
    9.3191    0.5302    0.0000 S   0  0  0  0  0  0  0  0  0  0  0  0
    3.7320    0.7750    0.0000 F   0  0  0  0  0  0  0  0  0  0  0  0
    2.0000   -0.2250    0.0000 F   0  0  0  0  0  0  0  0  0  0  0  0
   10.2696    0.2196    0.0000 O   0  0  0  0  0  0  0  0  0  0  0  0
    8.3685    0.8409    0.0000 O   0  0  0  0  0  0  0  0  0  0  0  0
    4.5981    1.2750    0.0000 O   0  0  0  0  0  0  0  0  0  0  0  0
    9.0084   -0.4203    0.0000 N   0  0  0  0  0  0  0  0  0  0  0  0
    9.0084   -2.0298    0.0000 N   0  0  0  0  0  0  0  0  0  0  0  0
   10.5920   -1.2250    0.0000 N   0  0  0  0  0  0  0  0  0  0  0  0
    6.3301    1.2750    0.0000 N   0  0  0  0  0  0  0  0  0  0  0  0
    9.6297    1.4807    0.0000 C   0  0  0  0  0  0  0  0  0  0  0  0
    8.0622   -0.7250    0.0000 C   0  0  0  0  0  0  0  0  0  0  0  0
    6.3301   -0.7250    0.0000 C   0  0  0  0  0  0  0  0  0  0  0  0
    8.0622   -1.7250    0.0000 C   0  0  0  0  0  0  0  0  0  0  0  0
    5.4641   -0.2250    0.0000 C   0  0  3  0  0  0  0  0  0  0  0  0
    7.1962   -0.2250    0.0000 C   0  0  0  0  0  0  0  0  0  0  0  0
    9.5920   -1.2250    0.0000 C   0  0  0  0  0  0  0  0  0  0  0  0
   10.6082    1.6870    0.0000 C   0  0  0  0  0  0  0  0  0  0  0  0
    8.9619    2.2250    0.0000 C   0  0  0  0  0  0  0  0  0  0  0  0
    6.3301   -1.7250    0.0000 C   0  0  0  0  0  0  0  0  0  0  0  0
    7.1962   -2.2250    0.0000 C   0  0  0  0  0  0  0  0  0  0  0  0
    4.5981   -0.7250    0.0000 C   0  0  0  0  0  0  0  0  0  0  0  0
    5.4641    0.7750    0.0000 C   0  0  0  0  0  0  0  0  0  0  0  0
    3.7320   -0.2250    0.0000 C   0  0  0  0  0  0  0  0  0  0  0  0
    4.5981   -1.7250    0.0000 C   0  0  0  0  0  0  0  0  0  0  0  0
    2.8660   -0.7250    0.0000 C   0  0  0  0  0  0  0  0  0  0  0  0
    3.7320   -2.2250    0.0000 C   0  0  0  0  0  0  0  0  0  0  0  0
    2.8660   -1.7250    0.0000 C   0  0  0  0  0  0  0  0  0  0  0  0
   10.0438    1.0193    0.0000 H   0  0  0  0  0  0  0  0  0  0  0  0
    6.0010    0.0850    0.0000 H   0  0  0  0  0  0  0  0  0  0  0  0
    7.1962    0.3950    0.0000 H   0  0  0  0  0  0  0  0  0  0  0  0
   10.7361    1.0803    0.0000 H   0  0  0  0  0  0  0  0  0  0  0  0
   11.2149    1.8148    0.0000 H   0  0  0  0  0  0  0  0  0  0  0  0
   10.4804    2.2936    0.0000 H   0  0  0  0  0  0  0  0  0  0  0  0
    9.4233    2.6391    0.0000 H   0  0  0  0  0  0  0  0  0  0  0  0
    8.5478    2.6865    0.0000 H   0  0  0  0  0  0  0  0  0  0  0  0
    8.5004    1.8110    0.0000 H   0  0  0  0  0  0  0  0  0  0  0  0
    5.7932   -2.0350    0.0000 H   0  0  0  0  0  0  0  0  0  0  0  0
    7.1962   -2.8450    0.0000 H   0  0  0  0  0  0  0  0  0  0  0  0
   10.9020   -1.7620    0.0000 H   0  0  0  0  0  0  0  0  0  0  0  0
   10.9020   -0.6881    0.0000 H   0  0  0  0  0  0  0  0  0  0  0  0
    5.1350   -2.0350    0.0000 H   0  0  0  0  0  0  0  0  0  0  0  0
    3.7320   -2.8450    0.0000 H   0  0  0  0  0  0  0  0  0  0  0  0
    6.3301    1.8950    0.0000 H   0  0  0  0  0  0  0  0  0  0  0  0
    6.8671    0.9650    0.0000 H   0  0  0  0  0  0  0  0  0  0  0  0
    2.3291   -2.0350    0.0000 H   0  0  0  0  0  0  0  0  0  0  0  0
  1  4  2  0  0  0  0
  1  5  2  0  0  0  0
  1  7  1  0  0  0  0
  1 11  1  0  0  0  0
  2 24  1  0  0  0  0
  3 26  1  0  0  0  0
  6 23  2  0  0  0  0
  7 12  1  0  0  0  0
  7 17  1  0  0  0  0
  8 14  1  0  0  0  0
  8 17  2  0  0  0  0
  9 17  1  0  0  0  0
  9 40  1  0  0  0  0
  9 41  1  0  0  0  0
 10 23  1  0  0  0  0
 10 44  1  0  0  0  0
 10 45  1  0  0  0  0
 11 18  1  0  0  0  0
 11 19  1  0  0  0  0
 11 29  1  0  0  0  0
 12 14  2  0  0  0  0
 12 16  1  0  0  0  0
 13 15  1  0  0  0  0
 13 16  2  0  0  0  0
 13 20  1  0  0  0  0
 14 21  1  0  0  0  0
 15 22  1  0  0  0  0
 15 23  1  0  0  0  0
 15 30  1  0  0  0  0
 16 31  1  0  0  0  0
 18 32  1  0  0  0  0
 18 33  1  0  0  0  0
 18 34  1  0  0  0  0
 19 35  1  0  0  0  0
 19 36  1  0  0  0  0
 19 37  1  0  0  0  0
 20 21  2  0  0  0  0
 20 38  1  0  0  0  0
 21 39  1  0  0  0  0
 22 24  2  0  0  0  0
 22 25  1  0  0  0  0
 24 26  1  0  0  0  0
 25 27  2  0  0  0  0
 25 42  1  0  0  0  0
 26 28  2  0  0  0  0
 27 28  1  0  0  0  0
 27 43  1  0  0  0  0
 28 46  1  0  0  0  0
M  END
> <PUBCHEM_COMPOUND_CID>
510477
> <PUBCHEM_COMPOUND_CANONICALIZED>
1
> <PUBCHEM_CACTVS_COMPLEXITY>
687
> <PUBCHEM_CACTVS_HBOND_ACCEPTOR>
7
> <PUBCHEM_CACTVS_HBOND_DONOR>
2
> <PUBCHEM_CACTVS_ROTATABLE_BOND>
5
> <PUBCHEM_CACTVS_SUBSKEYS>
AAADceB7sYBAAAAAAAAAAAAAAAAAAWAAAAAwYAAAAAAAAFgB9AAAHwQQQAAADQiF3giz0LZIEAKoAyVydHDCgC0hEqAJmCEwdJiIaLLAnZGUIAhokAJIyCcYicCeiAAAQAAAACAQAACAAAAAQAAAAAAAAA==
> <PUBCHEM_IUPAC_OPENEYE_NAME>
2-(2-amino-3-isopropylsulfonyl-benzimidazol-5-yl)-2-(2,3-difluorophenyl)acetamide
> <PUBCHEM_IUPAC_CAS_NAME>
2-(2-amino-3-propan-2-ylsulfonyl-5-benzimidazolyl)-2-(2,3-difluorophenyl)acetamide
> <PUBCHEM_IUPAC_NAME_MARKUP>
2-(2-amino-3-propan-2-ylsulfonylbenzimidazol-5-yl)-2-(2,3-difluorophenyl)acetamide
> <PUBCHEM_IUPAC_NAME>
2-(2-amino-3-propan-2-ylsulfonylbenzimidazol-5-yl)-2-(2,3-difluorophenyl)acetamide
> <PUBCHEM_IUPAC_SYSTEMATIC_NAME>
2-(2-azanyl-3-propan-2-ylsulfonyl-benzimidazol-5-yl)-2-[2,3-bis(fluoranyl)phenyl]ethanamide
> <PUBCHEM_IUPAC_TRADITIONAL_NAME>
2-(2-amino-3-isopropylsulfonyl-benzimidazol-5-yl)-2-(2,3-difluorophenyl)acetamide
> <PUBCHEM_IUPAC_INCHI>
InChI=1S/C18H18F2N4O3S/c1-9(2)28(26,27)24-14-8-10(6-7-13(14)23-18(24)22)15(17(21)25)11-4-3-5-12(19)16(11)20/h3-9,15H,1-2H3,(H2,21,25)(H2,22,23)
> <PUBCHEM_IUPAC_INCHIKEY>
ZELZCYAPZKJILB-UHFFFAOYSA-N
> <PUBCHEM_XLOGP3_AA>
2.8
> <PUBCHEM_EXACT_MASS>
408.10676795
> <PUBCHEM_MOLECULAR_FORMULA>
C18H18F2N4O3S
> <PUBCHEM_MOLECULAR_WEIGHT>
408.4
> <PUBCHEM_OPENEYE_CAN_SMILES>
CC(C)S(=O)(=O)N1C2=C(C=CC(=C2)C(C3=C(C(=CC=C3)F)F)C(=O)N)N=C1N
> <PUBCHEM_OPENEYE_ISO_SMILES>
CC(C)S(=O)(=O)N1C2=C(C=CC(=C2)C(C3=C(C(=CC=C3)F)F)C(=O)N)N=C1N
> <PUBCHEM_CACTVS_TPSA>
129
> <PUBCHEM_MONOISOTOPIC_WEIGHT>
408.10676795
> <PUBCHEM_TOTAL_CHARGE>
0
> <PUBCHEM_HEAVY_ATOM_COUNT>
28
> <PUBCHEM_ATOM_DEF_STEREO_COUNT>
0
> <PUBCHEM_ATOM_UDEF_STEREO_COUNT>
1
> <PUBCHEM_BOND_DEF_STEREO_COUNT>
0
> <PUBCHEM_BOND_UDEF_STEREO_COUNT>
0
> <PUBCHEM_ISOTOPIC_ATOM_COUNT>
0
> <PUBCHEM_COMPONENT_COUNT>
1
> <PUBCHEM_CACTVS_TAUTO_COUNT>
-1
> <PUBCHEM_COORDINATE_TYPE>
1
5
255
> <PUBCHEM_BONDANNOTATIONS>
12  14  8
12  16  8
13  16  8
13  20  8
14  21  8
15  23  3
20  21  8
22  24  8
22  25  8
24  26  8
25  27  8
26  28  8
27  28  8
7  12  8
7  17  8
8  14  8
8  17  8
$$$$
