510498
  -OEChem-10302200282D
 49 52  0     1  0  0  0  0  0999 V2000
    2.8070   -0.3199    0.0000 O   0  0  0  0  0  0  0  0  0  0  0  0
    3.6730    2.1801    0.0000 O   0  0  0  0  0  0  0  0  0  0  0  0
    2.8070    0.6801    0.0000 O   0  0  0  0  0  0  0  0  0  0  0  0
    4.5390   -0.3199    0.0000 N   0  0  0  0  0  0  0  0  0  0  0  0
    3.6730   -1.8199    0.0000 C   0  0  0  0  0  0  0  0  0  0  0  0
    4.5092   -3.2682    0.0000 C   0  0  0  0  0  0  0  0  0  0  0  0
    2.9819   -3.7033    0.0000 C   0  0  0  0  0  0  0  0  0  0  0  0
    2.8368   -3.2682    0.0000 C   0  0  0  0  0  0  0  0  0  0  0  0
    4.5092   -2.3027    0.0000 C   0  0  0  0  0  0  0  0  0  0  0  0
    2.9819   -2.6580    0.0000 C   0  0  0  0  0  0  0  0  0  0  0  0
    2.8368   -2.3027    0.0000 C   0  0  0  0  0  0  0  0  0  0  0  0
    3.8876   -4.1801    0.0000 C   0  0  0  0  0  0  0  0  0  0  0  0
    3.6730   -3.5710    0.0000 C   0  0  0  0  0  0  0  0  0  0  0  0
    2.0000   -3.7510    0.0000 C   0  0  0  0  0  0  0  0  0  0  0  0
    3.6730   -0.8199    0.0000 C   0  0  0  0  0  0  0  0  0  0  0  0
    4.5390    0.6801    0.0000 C   0  0  1  0  0  0  0  0  0  0  0  0
    5.4050    1.1801    0.0000 C   0  0  0  0  0  0  0  0  0  0  0  0
    3.6730    1.1801    0.0000 C   0  0  0  0  0  0  0  0  0  0  0  0
    5.4050    2.1801    0.0000 C   0  0  0  0  0  0  0  0  0  0  0  0
    4.5390    2.6801    0.0000 C   0  0  0  0  0  0  0  0  0  0  0  0
    6.2711    2.6801    0.0000 C   0  0  0  0  0  0  0  0  0  0  0  0
    4.5390    3.6801    0.0000 C   0  0  0  0  0  0  0  0  0  0  0  0
    6.2711    3.6801    0.0000 C   0  0  0  0  0  0  0  0  0  0  0  0
    5.4050    4.1801    0.0000 C   0  0  0  0  0  0  0  0  0  0  0  0
    5.1016   -3.4509    0.0000 H   0  0  0  0  0  0  0  0  0  0  0  0
    2.8478   -4.3086    0.0000 H   0  0  0  0  0  0  0  0  0  0  0  0
    3.3444   -2.9122    0.0000 H   0  0  0  0  0  0  0  0  0  0  0  0
    5.1198   -2.4103    0.0000 H   0  0  0  0  0  0  0  0  0  0  0  0
    4.7212   -1.7201    0.0000 H   0  0  0  0  0  0  0  0  0  0  0  0
    2.6383   -2.1420    0.0000 H   0  0  0  0  0  0  0  0  0  0  0  0
    2.3885   -2.8375    0.0000 H   0  0  0  0  0  0  0  0  0  0  0  0
    2.6247   -1.7201    0.0000 H   0  0  0  0  0  0  0  0  0  0  0  0
    2.2262   -2.4103    0.0000 H   0  0  0  0  0  0  0  0  0  0  0  0
    3.5782   -4.7174    0.0000 H   0  0  0  0  0  0  0  0  0  0  0  0
    4.4127   -4.5097    0.0000 H   0  0  0  0  0  0  0  0  0  0  0  0
    3.3030   -4.0685    0.0000 H   0  0  0  0  0  0  0  0  0  0  0  0
    4.0430   -4.0685    0.0000 H   0  0  0  0  0  0  0  0  0  0  0  0
    1.5188   -3.3601    0.0000 H   0  0  0  0  0  0  0  0  0  0  0  0
    1.8068   -4.3401    0.0000 H   0  0  0  0  0  0  0  0  0  0  0  0
    5.0760   -0.6299    0.0000 H   0  0  0  0  0  0  0  0  0  0  0  0
    4.0021    0.3701    0.0000 H   0  0  0  0  0  0  0  0  0  0  0  0
    5.6171    0.5975    0.0000 H   0  0  0  0  0  0  0  0  0  0  0  0
    6.0156    1.2878    0.0000 H   0  0  0  0  0  0  0  0  0  0  0  0
    3.1360    2.4901    0.0000 H   0  0  0  0  0  0  0  0  0  0  0  0
    4.0021    2.3701    0.0000 H   0  0  0  0  0  0  0  0  0  0  0  0
    6.8080    2.3701    0.0000 H   0  0  0  0  0  0  0  0  0  0  0  0
    4.0021    3.9901    0.0000 H   0  0  0  0  0  0  0  0  0  0  0  0
    6.8080    3.9901    0.0000 H   0  0  0  0  0  0  0  0  0  0  0  0
    5.4050    4.8001    0.0000 H   0  0  0  0  0  0  0  0  0  0  0  0
  1 15  2  0  0  0  0
  2 18  1  0  0  0  0
  2 44  1  0  0  0  0
  3 18  2  0  0  0  0
  4 15  1  0  0  0  0
 16  4  1  6  0  0  0
  4 40  1  0  0  0  0
  5  9  1  0  0  0  0
  5 10  1  0  0  0  0
  5 11  1  0  0  0  0
  5 15  1  0  0  0  0
  6  9  1  0  0  0  0
  6 12  1  0  0  0  0
  6 13  1  0  0  0  0
  6 25  1  0  0  0  0
  7 10  1  0  0  0  0
  7 12  1  0  0  0  0
  7 14  1  0  0  0  0
  7 26  1  0  0  0  0
  8 11  1  0  0  0  0
  8 13  1  0  0  0  0
  8 14  1  0  0  0  0
  8 27  1  0  0  0  0
  9 28  1  0  0  0  0
  9 29  1  0  0  0  0
 10 30  1  0  0  0  0
 10 31  1  0  0  0  0
 11 32  1  0  0  0  0
 11 33  1  0  0  0  0
 12 34  1  0  0  0  0
 12 35  1  0  0  0  0
 13 36  1  0  0  0  0
 13 37  1  0  0  0  0
 14 38  1  0  0  0  0
 14 39  1  0  0  0  0
 16 17  1  0  0  0  0
 16 18  1  0  0  0  0
 16 41  1  0  0  0  0
 17 19  1  0  0  0  0
 17 42  1  0  0  0  0
 17 43  1  0  0  0  0
 19 20  2  0  0  0  0
 19 21  1  0  0  0  0
 20 22  1  0  0  0  0
 20 45  1  0  0  0  0
 21 23  2  0  0  0  0
 21 46  1  0  0  0  0
 22 24  2  0  0  0  0
 22 47  1  0  0  0  0
 23 24  1  0  0  0  0
 23 48  1  0  0  0  0
 24 49  1  0  0  0  0
M  END
> <PUBCHEM_COMPOUND_CID>
510498
> <PUBCHEM_COMPOUND_CANONICALIZED>
1
> <PUBCHEM_CACTVS_COMPLEXITY>
468
> <PUBCHEM_CACTVS_HBOND_ACCEPTOR>
3
> <PUBCHEM_CACTVS_HBOND_DONOR>
2
> <PUBCHEM_CACTVS_ROTATABLE_BOND>
5
> <PUBCHEM_CACTVS_SUBSKEYS>
AAADceB6MAAAAAAAAAAAAAAAAAAAAAAAAAAwYMGDAAAAAAABAAAAHgAQCAAADyjBmAQwCILAAgCIAiHSGAACAAAgAAAIiIGIAIgKIDKAkTGEYAAklgCYiAeYyOCPAAAAAAAAAAAAAAQAAAAAAAAAAAAAAA==
> <PUBCHEM_IUPAC_OPENEYE_NAME>
(2S)-2-(adamantane-1-carbonylamino)-3-phenyl-propanoic acid
> <PUBCHEM_IUPAC_CAS_NAME>
(2S)-2-[[1-adamantyl(oxo)methyl]amino]-3-phenylpropanoic acid
> <PUBCHEM_IUPAC_NAME_MARKUP>
(2<I>S</I>)-2-(adamantane-1-carbonylamino)-3-phenylpropanoic acid
> <PUBCHEM_IUPAC_NAME>
(2S)-2-(adamantane-1-carbonylamino)-3-phenylpropanoic acid
> <PUBCHEM_IUPAC_SYSTEMATIC_NAME>
(2S)-2-(1-adamantylcarbonylamino)-3-phenyl-propanoic acid
> <PUBCHEM_IUPAC_TRADITIONAL_NAME>
(2S)-2-(adamantane-1-carbonylamino)-3-phenyl-propionic acid
> <PUBCHEM_IUPAC_INCHI>
InChI=1S/C20H25NO3/c22-18(23)17(9-13-4-2-1-3-5-13)21-19(24)20-10-14-6-15(11-20)8-16(7-14)12-20/h1-5,14-17H,6-12H2,(H,21,24)(H,22,23)/t14?,15?,16?,17-,20?/m0/s1
> <PUBCHEM_IUPAC_INCHIKEY>
CPOZZGCEUIQCFV-FAKMSMKASA-N
> <PUBCHEM_XLOGP3_AA>
3.7
> <PUBCHEM_EXACT_MASS>
327.18344366
> <PUBCHEM_MOLECULAR_FORMULA>
C20H25NO3
> <PUBCHEM_MOLECULAR_WEIGHT>
327.4
> <PUBCHEM_OPENEYE_CAN_SMILES>
C1C2CC3CC1CC(C2)(C3)C(=O)NC(CC4=CC=CC=C4)C(=O)O
> <PUBCHEM_OPENEYE_ISO_SMILES>
C1C2CC3CC1CC(C2)(C3)C(=O)N[C@@H](CC4=CC=CC=C4)C(=O)O
> <PUBCHEM_CACTVS_TPSA>
66.4
> <PUBCHEM_MONOISOTOPIC_WEIGHT>
327.18344366
> <PUBCHEM_TOTAL_CHARGE>
0
> <PUBCHEM_HEAVY_ATOM_COUNT>
24
> <PUBCHEM_ATOM_DEF_STEREO_COUNT>
1
> <PUBCHEM_ATOM_UDEF_STEREO_COUNT>
0
> <PUBCHEM_BOND_DEF_STEREO_COUNT>
0
> <PUBCHEM_BOND_UDEF_STEREO_COUNT>
0
> <PUBCHEM_ISOTOPIC_ATOM_COUNT>
0
> <PUBCHEM_COMPONENT_COUNT>
1
> <PUBCHEM_CACTVS_TAUTO_COUNT>
-1
> <PUBCHEM_COORDINATE_TYPE>
1
5
255
> <PUBCHEM_BONDANNOTATIONS>
19  20  8
19  21  8
20  22  8
21  23  8
22  24  8
23  24  8
16  4  6
$$$$
