510492
  -OEChem-10302200282D
 46 48  0     1  0  0  0  0  0999 V2000
    3.7320    0.7500    0.0000 F   0  0  0  0  0  0  0  0  0  0  0  0
    2.0000   -0.2500    0.0000 F   0  0  0  0  0  0  0  0  0  0  0  0
    4.5981    1.2500    0.0000 O   0  0  0  0  0  0  0  0  0  0  0  0
    9.0084   -0.4453    0.0000 N   0  0  0  0  0  0  0  0  0  0  0  0
    9.0084   -2.0547    0.0000 N   0  0  0  0  0  0  0  0  0  0  0  0
   10.5920   -1.2500    0.0000 N   0  0  0  0  0  0  0  0  0  0  0  0
    6.3301    1.2500    0.0000 N   0  0  0  0  0  0  0  0  0  0  0  0
    8.0622   -0.7500    0.0000 C   0  0  0  0  0  0  0  0  0  0  0  0
    9.3191    0.5053    0.0000 C   0  0  0  0  0  0  0  0  0  0  0  0
    5.4641   -0.2500    0.0000 C   0  0  3  0  0  0  0  0  0  0  0  0
    6.3301   -0.7500    0.0000 C   0  0  0  0  0  0  0  0  0  0  0  0
    8.0622   -1.7500    0.0000 C   0  0  0  0  0  0  0  0  0  0  0  0
    7.1962   -0.2500    0.0000 C   0  0  0  0  0  0  0  0  0  0  0  0
    9.5920   -1.2500    0.0000 C   0  0  0  0  0  0  0  0  0  0  0  0
    6.3301   -1.7500    0.0000 C   0  0  0  0  0  0  0  0  0  0  0  0
    7.1962   -2.2500    0.0000 C   0  0  0  0  0  0  0  0  0  0  0  0
    4.5981   -0.7500    0.0000 C   0  0  0  0  0  0  0  0  0  0  0  0
   10.2976    0.7115    0.0000 C   0  0  0  0  0  0  0  0  0  0  0  0
    8.6512    1.2496    0.0000 C   0  0  0  0  0  0  0  0  0  0  0  0
    5.4641    0.7500    0.0000 C   0  0  0  0  0  0  0  0  0  0  0  0
    3.7320   -0.2500    0.0000 C   0  0  0  0  0  0  0  0  0  0  0  0
    4.5981   -1.7500    0.0000 C   0  0  0  0  0  0  0  0  0  0  0  0
    2.8660   -0.7500    0.0000 C   0  0  0  0  0  0  0  0  0  0  0  0
    3.7320   -2.2500    0.0000 C   0  0  0  0  0  0  0  0  0  0  0  0
    2.8660   -1.7500    0.0000 C   0  0  0  0  0  0  0  0  0  0  0  0
    6.3301    2.2500    0.0000 C   0  0  0  0  0  0  0  0  0  0  0  0
    9.7331    0.0438    0.0000 H   0  0  0  0  0  0  0  0  0  0  0  0
    6.0010    0.0600    0.0000 H   0  0  0  0  0  0  0  0  0  0  0  0
    7.1962    0.3700    0.0000 H   0  0  0  0  0  0  0  0  0  0  0  0
    5.7932   -2.0600    0.0000 H   0  0  0  0  0  0  0  0  0  0  0  0
    7.1962   -2.8700    0.0000 H   0  0  0  0  0  0  0  0  0  0  0  0
   10.4254    0.1048    0.0000 H   0  0  0  0  0  0  0  0  0  0  0  0
   10.9042    0.8393    0.0000 H   0  0  0  0  0  0  0  0  0  0  0  0
   10.1697    1.3182    0.0000 H   0  0  0  0  0  0  0  0  0  0  0  0
    9.1127    1.6636    0.0000 H   0  0  0  0  0  0  0  0  0  0  0  0
    8.2372    1.7110    0.0000 H   0  0  0  0  0  0  0  0  0  0  0  0
    8.1898    0.8355    0.0000 H   0  0  0  0  0  0  0  0  0  0  0  0
    5.1350   -2.0600    0.0000 H   0  0  0  0  0  0  0  0  0  0  0  0
   10.9020   -1.7869    0.0000 H   0  0  0  0  0  0  0  0  0  0  0  0
   10.9020   -0.7131    0.0000 H   0  0  0  0  0  0  0  0  0  0  0  0
    6.8671    0.9400    0.0000 H   0  0  0  0  0  0  0  0  0  0  0  0
    3.7320   -2.8700    0.0000 H   0  0  0  0  0  0  0  0  0  0  0  0
    2.3291   -2.0600    0.0000 H   0  0  0  0  0  0  0  0  0  0  0  0
    6.9501    2.2500    0.0000 H   0  0  0  0  0  0  0  0  0  0  0  0
    6.3301    2.8700    0.0000 H   0  0  0  0  0  0  0  0  0  0  0  0
    5.7101    2.2500    0.0000 H   0  0  0  0  0  0  0  0  0  0  0  0
  1 21  1  0  0  0  0
  2 23  1  0  0  0  0
  3 20  2  0  0  0  0
  4  8  1  0  0  0  0
  4  9  1  0  0  0  0
  4 14  1  0  0  0  0
  5 12  1  0  0  0  0
  5 14  2  0  0  0  0
  6 14  1  0  0  0  0
  6 39  1  0  0  0  0
  6 40  1  0  0  0  0
  7 20  1  0  0  0  0
  7 26  1  0  0  0  0
  7 41  1  0  0  0  0
  8 12  2  0  0  0  0
  8 13  1  0  0  0  0
  9 18  1  0  0  0  0
  9 19  1  0  0  0  0
  9 27  1  0  0  0  0
 10 11  1  0  0  0  0
 10 17  1  0  0  0  0
 10 20  1  0  0  0  0
 10 28  1  0  0  0  0
 11 13  2  0  0  0  0
 11 15  1  0  0  0  0
 12 16  1  0  0  0  0
 13 29  1  0  0  0  0
 15 16  2  0  0  0  0
 15 30  1  0  0  0  0
 16 31  1  0  0  0  0
 17 21  2  0  0  0  0
 17 22  1  0  0  0  0
 18 32  1  0  0  0  0
 18 33  1  0  0  0  0
 18 34  1  0  0  0  0
 19 35  1  0  0  0  0
 19 36  1  0  0  0  0
 19 37  1  0  0  0  0
 21 23  1  0  0  0  0
 22 24  2  0  0  0  0
 22 38  1  0  0  0  0
 23 25  2  0  0  0  0
 24 25  1  0  0  0  0
 24 42  1  0  0  0  0
 25 43  1  0  0  0  0
 26 44  1  0  0  0  0
 26 45  1  0  0  0  0
 26 46  1  0  0  0  0
M  END
> <PUBCHEM_COMPOUND_CID>
510492
> <PUBCHEM_COMPOUND_CANONICALIZED>
1
> <PUBCHEM_CACTVS_COMPLEXITY>
506
> <PUBCHEM_CACTVS_HBOND_ACCEPTOR>
5
> <PUBCHEM_CACTVS_HBOND_DONOR>
2
> <PUBCHEM_CACTVS_ROTATABLE_BOND>
4
> <PUBCHEM_CACTVS_SUBSKEYS>
AAADceB7oYAAAAAAAAAAAAAAAAAAAWAAAAAwYAAAAAAAAFgB9AAAHwAQAAAADSjBngwz0LfMEACoAyVydACCgC0hEqAJ2KE4dJiIaLLAnZGUIAhokgLIyCcYicCeiAAAQAAAACAQAACAAAAAQAAAAAAAAA==
> <PUBCHEM_IUPAC_OPENEYE_NAME>
2-(2-amino-3-isopropyl-benzimidazol-5-yl)-2-(2,3-difluorophenyl)-N-methyl-acetamide
> <PUBCHEM_IUPAC_CAS_NAME>
2-(2-amino-3-propan-2-yl-5-benzimidazolyl)-2-(2,3-difluorophenyl)-N-methylacetamide
> <PUBCHEM_IUPAC_NAME_MARKUP>
2-(2-amino-3-propan-2-ylbenzimidazol-5-yl)-2-(2,3-difluorophenyl)-<I>N</I>-methylacetamide
> <PUBCHEM_IUPAC_NAME>
2-(2-amino-3-propan-2-ylbenzimidazol-5-yl)-2-(2,3-difluorophenyl)-N-methylacetamide
> <PUBCHEM_IUPAC_SYSTEMATIC_NAME>
2-(2-azanyl-3-propan-2-yl-benzimidazol-5-yl)-2-[2,3-bis(fluoranyl)phenyl]-N-methyl-ethanamide
> <PUBCHEM_IUPAC_TRADITIONAL_NAME>
2-(2-amino-3-isopropyl-benzimidazol-5-yl)-2-(2,3-difluorophenyl)-N-methyl-acetamide
> <PUBCHEM_IUPAC_INCHI>
InChI=1S/C19H20F2N4O/c1-10(2)25-15-9-11(7-8-14(15)24-19(25)22)16(18(26)23-3)12-5-4-6-13(20)17(12)21/h4-10,16H,1-3H3,(H2,22,24)(H,23,26)
> <PUBCHEM_IUPAC_INCHIKEY>
UPUWLYNAMURBNX-UHFFFAOYSA-N
> <PUBCHEM_XLOGP3_AA>
2.9
> <PUBCHEM_EXACT_MASS>
358.16051760
> <PUBCHEM_MOLECULAR_FORMULA>
C19H20F2N4O
> <PUBCHEM_MOLECULAR_WEIGHT>
358.4
> <PUBCHEM_OPENEYE_CAN_SMILES>
CC(C)N1C2=C(C=CC(=C2)C(C3=C(C(=CC=C3)F)F)C(=O)NC)N=C1N
> <PUBCHEM_OPENEYE_ISO_SMILES>
CC(C)N1C2=C(C=CC(=C2)C(C3=C(C(=CC=C3)F)F)C(=O)NC)N=C1N
> <PUBCHEM_CACTVS_TPSA>
72.9
> <PUBCHEM_MONOISOTOPIC_WEIGHT>
358.16051760
> <PUBCHEM_TOTAL_CHARGE>
0
> <PUBCHEM_HEAVY_ATOM_COUNT>
26
> <PUBCHEM_ATOM_DEF_STEREO_COUNT>
0
> <PUBCHEM_ATOM_UDEF_STEREO_COUNT>
1
> <PUBCHEM_BOND_DEF_STEREO_COUNT>
0
> <PUBCHEM_BOND_UDEF_STEREO_COUNT>
0
> <PUBCHEM_ISOTOPIC_ATOM_COUNT>
0
> <PUBCHEM_COMPONENT_COUNT>
1
> <PUBCHEM_CACTVS_TAUTO_COUNT>
-1
> <PUBCHEM_COORDINATE_TYPE>
1
5
255
> <PUBCHEM_BONDANNOTATIONS>
10  20  3
11  13  8
11  15  8
12  16  8
15  16  8
17  21  8
17  22  8
21  23  8
22  24  8
23  25  8
24  25  8
4  14  8
4  8  8
5  12  8
5  14  8
8  12  8
8  13  8
$$$$
