510451
  -OEChem-10302200282D
 37 39  0     1  0  0  0  0  0999 V2000
    5.5321    4.2500    0.0000 F   0  0  0  0  0  0  0  0  0  0  0  0
    6.3981   -1.2500    0.0000 O   0  0  0  0  0  0  0  0  0  0  0  0
    4.6660   -4.2500    0.0000 O   0  0  0  0  0  0  0  0  0  0  0  0
    6.3981   -0.2500    0.0000 O   0  0  0  0  0  0  0  0  0  0  0  0
    5.5321   -2.7500    0.0000 N   0  0  0  0  0  0  0  0  0  0  0  0
    4.6660   -1.2500    0.0000 C   0  0  3  0  0  0  0  0  0  0  0  0
    3.8000   -1.7500    0.0000 C   0  0  0  0  0  0  0  0  0  0  0  0
    4.6660   -0.2500    0.0000 C   0  0  0  0  0  0  0  0  0  0  0  0
    5.5321   -1.7500    0.0000 C   0  0  0  0  0  0  0  0  0  0  0  0
    3.8000   -2.7500    0.0000 C   0  0  0  0  0  0  0  0  0  0  0  0
    4.6660   -3.2500    0.0000 C   0  0  0  0  0  0  0  0  0  0  0  0
    2.9061   -1.2153    0.0000 C   0  0  0  0  0  0  0  0  0  0  0  0
    5.5321    0.2500    0.0000 C   0  0  0  0  0  0  0  0  0  0  0  0
    2.9061   -3.2847    0.0000 C   0  0  0  0  0  0  0  0  0  0  0  0
    6.3981   -3.2500    0.0000 C   0  0  0  0  0  0  0  0  0  0  0  0
    2.0000   -1.7292    0.0000 C   0  0  0  0  0  0  0  0  0  0  0  0
    2.0000   -2.7708    0.0000 C   0  0  0  0  0  0  0  0  0  0  0  0
    5.5321    1.2500    0.0000 C   0  0  0  0  0  0  0  0  0  0  0  0
    6.3981    1.7500    0.0000 C   0  0  0  0  0  0  0  0  0  0  0  0
    4.6660    1.7500    0.0000 C   0  0  0  0  0  0  0  0  0  0  0  0
    6.3981    2.7500    0.0000 C   0  0  0  0  0  0  0  0  0  0  0  0
    4.6660    2.7500    0.0000 C   0  0  0  0  0  0  0  0  0  0  0  0
    5.5321    3.2500    0.0000 C   0  0  0  0  0  0  0  0  0  0  0  0
    5.2030   -0.9400    0.0000 H   0  0  0  0  0  0  0  0  0  0  0  0
    4.4540    0.3326    0.0000 H   0  0  0  0  0  0  0  0  0  0  0  0
    4.0555   -0.3577    0.0000 H   0  0  0  0  0  0  0  0  0  0  0  0
    2.9132   -0.5954    0.0000 H   0  0  0  0  0  0  0  0  0  0  0  0
    2.9132   -3.9046    0.0000 H   0  0  0  0  0  0  0  0  0  0  0  0
    6.0881   -3.7869    0.0000 H   0  0  0  0  0  0  0  0  0  0  0  0
    6.9350   -3.5600    0.0000 H   0  0  0  0  0  0  0  0  0  0  0  0
    6.7081   -2.7131    0.0000 H   0  0  0  0  0  0  0  0  0  0  0  0
    1.4643   -1.4171    0.0000 H   0  0  0  0  0  0  0  0  0  0  0  0
    1.4643   -3.0829    0.0000 H   0  0  0  0  0  0  0  0  0  0  0  0
    6.9350    1.4400    0.0000 H   0  0  0  0  0  0  0  0  0  0  0  0
    4.1291    1.4400    0.0000 H   0  0  0  0  0  0  0  0  0  0  0  0
    6.9350    3.0600    0.0000 H   0  0  0  0  0  0  0  0  0  0  0  0
    4.1291    3.0600    0.0000 H   0  0  0  0  0  0  0  0  0  0  0  0
  1 23  1  0  0  0  0
  2  9  2  0  0  0  0
  3 11  2  0  0  0  0
  4 13  2  0  0  0  0
  5  9  1  0  0  0  0
  5 11  1  0  0  0  0
  5 15  1  0  0  0  0
  6  7  1  0  0  0  0
  6  8  1  0  0  0  0
  6  9  1  0  0  0  0
  6 24  1  0  0  0  0
  7 10  1  0  0  0  0
  7 12  2  0  0  0  0
  8 13  1  0  0  0  0
  8 25  1  0  0  0  0
  8 26  1  0  0  0  0
 10 11  1  0  0  0  0
 10 14  2  0  0  0  0
 12 16  1  0  0  0  0
 12 27  1  0  0  0  0
 13 18  1  0  0  0  0
 14 17  1  0  0  0  0
 14 28  1  0  0  0  0
 15 29  1  0  0  0  0
 15 30  1  0  0  0  0
 15 31  1  0  0  0  0
 16 17  2  0  0  0  0
 16 32  1  0  0  0  0
 17 33  1  0  0  0  0
 18 19  2  0  0  0  0
 18 20  1  0  0  0  0
 19 21  1  0  0  0  0
 19 34  1  0  0  0  0
 20 22  2  0  0  0  0
 20 35  1  0  0  0  0
 21 23  2  0  0  0  0
 21 36  1  0  0  0  0
 22 23  1  0  0  0  0
 22 37  1  0  0  0  0
M  END
> <PUBCHEM_COMPOUND_CID>
510451
> <PUBCHEM_COMPOUND_CANONICALIZED>
1
> <PUBCHEM_CACTVS_COMPLEXITY>
499
> <PUBCHEM_CACTVS_HBOND_ACCEPTOR>
4
> <PUBCHEM_CACTVS_HBOND_DONOR>
0
> <PUBCHEM_CACTVS_ROTATABLE_BOND>
3
> <PUBCHEM_CACTVS_SUBSKEYS>
AAADccB6MQAAAAAAAAAAAAAAAAAAAAAAAAA8YIAAAAAAAACxQAAAHwAAAAAADQSBmAwyAIMAAACIAqFSEACCAAAkAAAIiAEIBMgIIDKAlRGEIQhghiCIiYcdi8COgAAAAAAQAAAAAAAAACAAAAAAAAAAAA==
> <PUBCHEM_IUPAC_OPENEYE_NAME>
4-[2-(4-fluorophenyl)-2-oxo-ethyl]-2-methyl-4H-isoquinoline-1,3-dione
> <PUBCHEM_IUPAC_CAS_NAME>
4-[2-(4-fluorophenyl)-2-oxoethyl]-2-methyl-4H-isoquinoline-1,3-dione
> <PUBCHEM_IUPAC_NAME_MARKUP>
4-[2-(4-fluorophenyl)-2-oxoethyl]-2-methyl-4<I>H</I>-isoquinoline-1,3-dione
> <PUBCHEM_IUPAC_NAME>
4-[2-(4-fluorophenyl)-2-oxoethyl]-2-methyl-4H-isoquinoline-1,3-dione
> <PUBCHEM_IUPAC_SYSTEMATIC_NAME>
4-[2-(4-fluorophenyl)-2-oxidanylidene-ethyl]-2-methyl-4H-isoquinoline-1,3-dione
> <PUBCHEM_IUPAC_TRADITIONAL_NAME>
4-[2-(4-fluorophenyl)-2-keto-ethyl]-2-methyl-4H-isoquinoline-1,3-quinone
> <PUBCHEM_IUPAC_INCHI>
InChI=1S/C18H14FNO3/c1-20-17(22)14-5-3-2-4-13(14)15(18(20)23)10-16(21)11-6-8-12(19)9-7-11/h2-9,15H,10H2,1H3
> <PUBCHEM_IUPAC_INCHIKEY>
CMTZKBGGUDQUGR-UHFFFAOYSA-N
> <PUBCHEM_XLOGP3_AA>
2.3
> <PUBCHEM_EXACT_MASS>
311.09577147
> <PUBCHEM_MOLECULAR_FORMULA>
C18H14FNO3
> <PUBCHEM_MOLECULAR_WEIGHT>
311.3
> <PUBCHEM_OPENEYE_CAN_SMILES>
CN1C(=O)C(C2=CC=CC=C2C1=O)CC(=O)C3=CC=C(C=C3)F
> <PUBCHEM_OPENEYE_ISO_SMILES>
CN1C(=O)C(C2=CC=CC=C2C1=O)CC(=O)C3=CC=C(C=C3)F
> <PUBCHEM_CACTVS_TPSA>
54.4
> <PUBCHEM_MONOISOTOPIC_WEIGHT>
311.09577147
> <PUBCHEM_TOTAL_CHARGE>
0
> <PUBCHEM_HEAVY_ATOM_COUNT>
23
> <PUBCHEM_ATOM_DEF_STEREO_COUNT>
0
> <PUBCHEM_ATOM_UDEF_STEREO_COUNT>
1
> <PUBCHEM_BOND_DEF_STEREO_COUNT>
0
> <PUBCHEM_BOND_UDEF_STEREO_COUNT>
0
> <PUBCHEM_ISOTOPIC_ATOM_COUNT>
0
> <PUBCHEM_COMPONENT_COUNT>
1
> <PUBCHEM_CACTVS_TAUTO_COUNT>
-1
> <PUBCHEM_COORDINATE_TYPE>
1
5
255
> <PUBCHEM_BONDANNOTATIONS>
10  14  8
12  16  8
14  17  8
16  17  8
18  19  8
18  20  8
19  21  8
20  22  8
21  23  8
22  23  8
6  8  3
7  10  8
7  12  8
$$$$
