510404
  -OEChem-10302200282D
 84 89  0     1  0  0  0  0  0999 V2000
    6.3301    0.9569    0.0000 O   0  0  0  0  0  0  0  0  0  0  0  0
    9.4282    4.3229    0.0000 O   0  0  0  0  0  0  0  0  0  0  0  0
    9.9282    3.4569    0.0000 O   0  0  0  0  0  0  0  0  0  0  0  0
    7.2108    5.5431    0.0000 O   0  0  0  0  0  0  0  0  0  0  0  0
    4.5981    0.9569    0.0000 O   0  0  0  0  0  0  0  0  0  0  0  0
    6.3301   -1.0431    0.0000 O   0  0  0  0  0  0  0  0  0  0  0  0
    4.5981   -2.0431    0.0000 O   0  0  0  0  0  0  0  0  0  0  0  0
    2.8660   -1.0431    0.0000 O   0  0  0  0  0  0  0  0  0  0  0  0
    2.8660   -2.0431    0.0000 O   0  0  0  0  0  0  0  0  0  0  0  0
    7.1962    2.4569    0.0000 C   0  0  3  0  0  0  0  0  0  0  0  0
    8.0622    2.9569    0.0000 C   0  0  3  0  0  0  0  0  0  0  0  0
    7.8543    3.9350    0.0000 C   0  0  3  0  0  0  0  0  0  0  0  0
    6.4530    3.1260    0.0000 C   0  0  1  0  0  0  0  0  0  0  0  0
    6.8597    4.0396    0.0000 C   0  0  1  0  0  0  0  0  0  0  0  0
    7.4054    1.4851    0.0000 C   0  0  3  0  0  0  0  0  0  0  0  0
    8.3371    2.5805    0.0000 C   0  0  0  0  0  0  0  0  0  0  0  0
    5.4646    3.2325    0.0000 C   0  0  1  0  0  0  0  0  0  0  0  0
    8.7992    2.2898    0.0000 C   0  0  0  0  0  0  0  0  0  0  0  0
    6.1193    4.7028    0.0000 C   0  0  0  0  0  0  0  0  0  0  0  0
    6.3301    1.9569    0.0000 C   0  0  0  0  0  0  0  0  0  0  0  0
    8.3941    1.3820    0.0000 C   0  0  0  0  0  0  0  0  0  0  0  0
    5.2588    4.2050    0.0000 C   0  0  0  0  0  0  0  0  0  0  0  0
    8.9282    3.4569    0.0000 C   0  0  0  0  0  0  0  0  0  0  0  0
    7.9968    4.9248    0.0000 C   0  0  0  0  0  0  0  0  0  0  0  0
    9.7497    1.9791    0.0000 C   0  0  0  0  0  0  0  0  0  0  0  0
    4.7942    2.4905    0.0000 C   0  0  0  0  0  0  0  0  0  0  0  0
    9.9559    1.0006    0.0000 C   0  0  0  0  0  0  0  0  0  0  0  0
   10.4940    2.6470    0.0000 C   0  0  0  0  0  0  0  0  0  0  0  0
    5.4641    0.4569    0.0000 C   0  0  2  0  0  0  0  0  0  0  0  0
    5.4641   -0.5431    0.0000 C   0  0  2  0  0  0  0  0  0  0  0  0
    4.5981   -1.0431    0.0000 C   0  0  1  0  0  0  0  0  0  0  0  0
    3.7320    0.4569    0.0000 C   0  0  1  0  0  0  0  0  0  0  0  0
    3.7320   -0.5431    0.0000 C   0  0  1  0  0  0  0  0  0  0  0  0
    2.8660    0.9569    0.0000 C   0  0  0  0  0  0  0  0  0  0  0  0
    3.7320   -2.5431    0.0000 C   0  0  0  0  0  0  0  0  0  0  0  0
    2.0000   -0.5431    0.0000 C   0  0  0  0  0  0  0  0  0  0  0  0
    3.7320   -3.5431    0.0000 C   0  0  0  0  0  0  0  0  0  0  0  0
    4.5981   -4.0431    0.0000 C   0  0  0  0  0  0  0  0  0  0  0  0
    2.8660   -4.0431    0.0000 C   0  0  0  0  0  0  0  0  0  0  0  0
    4.5981   -5.0431    0.0000 C   0  0  0  0  0  0  0  0  0  0  0  0
    2.8660   -5.0431    0.0000 C   0  0  0  0  0  0  0  0  0  0  0  0
    3.7320   -5.5431    0.0000 C   0  0  0  0  0  0  0  0  0  0  0  0
    6.1073    2.3495    0.0000 H   0  0  0  0  0  0  0  0  0  0  0  0
    7.2055    4.8161    0.0000 H   0  0  0  0  0  0  0  0  0  0  0  0
    6.9913    1.0236    0.0000 H   0  0  0  0  0  0  0  0  0  0  0  0
    8.7324    2.1029    0.0000 H   0  0  0  0  0  0  0  0  0  0  0  0
    8.8760    2.8869    0.0000 H   0  0  0  0  0  0  0  0  0  0  0  0
    5.6856    2.6532    0.0000 H   0  0  0  0  0  0  0  0  0  0  0  0
    6.5792    5.1186    0.0000 H   0  0  0  0  0  0  0  0  0  0  0  0
    5.7541    5.2039    0.0000 H   0  0  0  0  0  0  0  0  0  0  0  0
    6.1181    2.5395    0.0000 H   0  0  0  0  0  0  0  0  0  0  0  0
    5.7196    1.8492    0.0000 H   0  0  0  0  0  0  0  0  0  0  0  0
    8.7041    0.8451    0.0000 H   0  0  0  0  0  0  0  0  0  0  0  0
    5.0065    4.7714    0.0000 H   0  0  0  0  0  0  0  0  0  0  0  0
    4.6691    4.0136    0.0000 H   0  0  0  0  0  0  0  0  0  0  0  0
    8.5724    5.1552    0.0000 H   0  0  0  0  0  0  0  0  0  0  0  0
    9.6219    2.5858    0.0000 H   0  0  0  0  0  0  0  0  0  0  0  0
    4.3342    2.9062    0.0000 H   0  0  0  0  0  0  0  0  0  0  0  0
    4.3786    2.0305    0.0000 H   0  0  0  0  0  0  0  0  0  0  0  0
    5.2543    2.0748    0.0000 H   0  0  0  0  0  0  0  0  0  0  0  0
    9.3493    0.8728    0.0000 H   0  0  0  0  0  0  0  0  0  0  0  0
   10.0838    0.3940    0.0000 H   0  0  0  0  0  0  0  0  0  0  0  0
   10.5626    1.1285    0.0000 H   0  0  0  0  0  0  0  0  0  0  0  0
   10.9081    2.1855    0.0000 H   0  0  0  0  0  0  0  0  0  0  0  0
   10.9555    3.0610    0.0000 H   0  0  0  0  0  0  0  0  0  0  0  0
   10.0800    3.1084    0.0000 H   0  0  0  0  0  0  0  0  0  0  0  0
   10.0482    4.3229    0.0000 H   0  0  0  0  0  0  0  0  0  0  0  0
    5.4641    1.0769    0.0000 H   0  0  0  0  0  0  0  0  0  0  0  0
    5.4641   -1.1631    0.0000 H   0  0  0  0  0  0  0  0  0  0  0  0
    4.0611   -1.3531    0.0000 H   0  0  0  0  0  0  0  0  0  0  0  0
    3.7320    1.0769    0.0000 H   0  0  0  0  0  0  0  0  0  0  0  0
    3.7320   -1.1631    0.0000 H   0  0  0  0  0  0  0  0  0  0  0  0
    6.8671   -0.7331    0.0000 H   0  0  0  0  0  0  0  0  0  0  0  0
    3.1760    1.4938    0.0000 H   0  0  0  0  0  0  0  0  0  0  0  0
    2.3291    1.2669    0.0000 H   0  0  0  0  0  0  0  0  0  0  0  0
    2.5560    0.4199    0.0000 H   0  0  0  0  0  0  0  0  0  0  0  0
    2.3100   -0.0062    0.0000 H   0  0  0  0  0  0  0  0  0  0  0  0
    1.4631   -0.2331    0.0000 H   0  0  0  0  0  0  0  0  0  0  0  0
    1.6900   -1.0800    0.0000 H   0  0  0  0  0  0  0  0  0  0  0  0
    5.1350   -3.7331    0.0000 H   0  0  0  0  0  0  0  0  0  0  0  0
    2.3291   -3.7331    0.0000 H   0  0  0  0  0  0  0  0  0  0  0  0
    5.1350   -5.3531    0.0000 H   0  0  0  0  0  0  0  0  0  0  0  0
    2.3291   -5.3531    0.0000 H   0  0  0  0  0  0  0  0  0  0  0  0
    3.7320   -6.1631    0.0000 H   0  0  0  0  0  0  0  0  0  0  0  0
  1 20  1  0  0  0  0
 29  1  1  1  0  0  0
  2 23  1  0  0  0  0
  2 67  1  0  0  0  0
  3 23  2  0  0  0  0
  4 24  2  0  0  0  0
  5 29  1  0  0  0  0
  5 32  1  0  0  0  0
 30  6  1  1  0  0  0
  6 73  1  0  0  0  0
 31  7  1  6  0  0  0
  7 35  1  0  0  0  0
 33  8  1  6  0  0  0
  8 36  1  0  0  0  0
  9 35  2  0  0  0  0
 10 11  1  0  0  0  0
 10 13  1  0  0  0  0
 10 15  1  0  0  0  0
 10 20  1  0  0  0  0
 11 12  1  0  0  0  0
 11 18  1  0  0  0  0
 11 23  1  0  0  0  0
 12 14  1  0  0  0  0
 12 16  1  0  0  0  0
 12 24  1  0  0  0  0
 13 14  1  0  0  0  0
 13 17  1  0  0  0  0
 13 43  1  1  0  0  0
 14 19  1  0  0  0  0
 14 44  1  6  0  0  0
 15 16  1  0  0  0  0
 15 21  1  0  0  0  0
 15 45  1  0  0  0  0
 16 46  1  0  0  0  0
 16 47  1  0  0  0  0
 17 22  1  0  0  0  0
 17 26  1  6  0  0  0
 17 48  1  0  0  0  0
 18 21  2  0  0  0  0
 18 25  1  0  0  0  0
 19 22  1  0  0  0  0
 19 49  1  0  0  0  0
 19 50  1  0  0  0  0
 20 51  1  0  0  0  0
 20 52  1  0  0  0  0
 21 53  1  0  0  0  0
 22 54  1  0  0  0  0
 22 55  1  0  0  0  0
 24 56  1  0  0  0  0
 25 27  1  0  0  0  0
 25 28  1  0  0  0  0
 25 57  1  0  0  0  0
 26 58  1  0  0  0  0
 26 59  1  0  0  0  0
 26 60  1  0  0  0  0
 27 61  1  0  0  0  0
 27 62  1  0  0  0  0
 27 63  1  0  0  0  0
 28 64  1  0  0  0  0
 28 65  1  0  0  0  0
 28 66  1  0  0  0  0
 29 30  1  0  0  0  0
 29 68  1  0  0  0  0
 30 31  1  0  0  0  0
 30 69  1  0  0  0  0
 31 33  1  0  0  0  0
 31 70  1  0  0  0  0
 32 33  1  0  0  0  0
 32 34  1  1  0  0  0
 32 71  1  0  0  0  0
 33 72  1  0  0  0  0
 34 74  1  0  0  0  0
 34 75  1  0  0  0  0
 34 76  1  0  0  0  0
 35 37  1  0  0  0  0
 36 77  1  0  0  0  0
 36 78  1  0  0  0  0
 36 79  1  0  0  0  0
 37 38  2  0  0  0  0
 37 39  1  0  0  0  0
 38 40  1  0  0  0  0
 38 80  1  0  0  0  0
 39 41  2  0  0  0  0
 39 81  1  0  0  0  0
 40 42  2  0  0  0  0
 40 82  1  0  0  0  0
 41 42  1  0  0  0  0
 41 83  1  0  0  0  0
 42 84  1  0  0  0  0
M  END
> <PUBCHEM_COMPOUND_CID>
510404
> <PUBCHEM_COMPOUND_CANONICALIZED>
1
> <PUBCHEM_CACTVS_COMPLEXITY>
1130
> <PUBCHEM_CACTVS_HBOND_ACCEPTOR>
9
> <PUBCHEM_CACTVS_HBOND_DONOR>
2
> <PUBCHEM_CACTVS_ROTATABLE_BOND>
10
> <PUBCHEM_CACTVS_SUBSKEYS>
AAADcfB8PAAAAAAAAAAAAAAAAAAAAYMGCAA0YIEAAAAYAAABAAAAGgAACAAADxSwmAMyCIAABgCIAijSiAACAAAkAAAIiAEACMgZNjKANRiicQAlwAEPqYfL7PyPgAAAAAAAAACAAAQAACAAAQAACAAAAA==
> <PUBCHEM_IUPAC_OPENEYE_NAME>
(3R,4R,7R)-2-[[(2R,3S,4S,5R,6R)-4-benzoyloxy-3-hydroxy-5-methoxy-6-methyl-tetrahydropyran-2-yl]oxymethyl]-8-formyl-12-isopropyl-4-methyl-tetracyclo[6.4.0.02,10.03,7]dodec-11-ene-1-carboxylic acid
> <PUBCHEM_IUPAC_CAS_NAME>
(3R,4R,7R)-2-[[(2R,3S,4S,5R,6R)-4-benzoyloxy-3-hydroxy-5-methoxy-6-methyl-2-oxanyl]oxymethyl]-8-formyl-4-methyl-12-propan-2-yl-1-tetracyclo[6.4.0.02,10.03,7]dodec-11-enecarboxylic acid
> <PUBCHEM_IUPAC_NAME_MARKUP>
(3<I>R</I>,4<I>R</I>,7<I>R</I>)-2-[[(2<I>R</I>,3<I>S</I>,4<I>S</I>,5<I>R</I>,6<I>R</I>)-4-benzoyloxy-3-hydroxy-5-methoxy-6-methyloxan-2-yl]oxymethyl]-8-formyl-4-methyl-12-propan-2-yltetracyclo[6.4.0.0<SUP>2,10</SUP>.0<SUP>3,7</SUP>]dodec-11-ene-1-carboxylic acid
> <PUBCHEM_IUPAC_NAME>
(3R,4R,7R)-2-[[(2R,3S,4S,5R,6R)-4-benzoyloxy-3-hydroxy-5-methoxy-6-methyloxan-2-yl]oxymethyl]-8-formyl-4-methyl-12-propan-2-yltetracyclo[6.4.0.02,10.03,7]dodec-11-ene-1-carboxylic acid
> <PUBCHEM_IUPAC_SYSTEMATIC_NAME>
(3R,4R,7R)-8-methanoyl-2-[[(2R,3S,4S,5R,6R)-5-methoxy-6-methyl-3-oxidanyl-4-(phenylcarbonyloxy)oxan-2-yl]oxymethyl]-4-methyl-12-propan-2-yl-tetracyclo[6.4.0.02,10.03,7]dodec-11-ene-1-carboxylic acid
> <PUBCHEM_IUPAC_TRADITIONAL_NAME>
(3R,4R,7R)-2-[[(2R,3S,4S,5R,6R)-4-benzoyloxy-3-hydroxy-5-methoxy-6-methyl-tetrahydropyran-2-yl]oxymethyl]-8-formyl-12-isopropyl-4-methyl-tetracyclo[6.4.0.02,10.03,7]dodec-11-ene-1-carboxylic acid
> <PUBCHEM_IUPAC_INCHI>
InChI=1S/C33H42O9/c1-17(2)23-13-21-14-31(15-34)22-12-11-18(3)24(22)32(21,33(23,31)30(37)38)16-40-29-25(35)27(26(39-5)19(4)41-29)42-28(36)20-9-7-6-8-10-20/h6-10,13,15,17-19,21-22,24-27,29,35H,11-12,14,16H2,1-5H3,(H,37,38)/t18-,19-,21?,22-,24-,25+,26-,27+,29-,31?,32?,33?/m1/s1
> <PUBCHEM_IUPAC_INCHIKEY>
DTZKZIQGAAFUFG-NYMWMVKRSA-N
> <PUBCHEM_XLOGP3_AA>
3.4
> <PUBCHEM_EXACT_MASS>
582.28288291
> <PUBCHEM_MOLECULAR_FORMULA>
C33H42O9
> <PUBCHEM_MOLECULAR_WEIGHT>
582.7
> <PUBCHEM_OPENEYE_CAN_SMILES>
CC1CCC2C1C3(C4CC2(C3(C(=C4)C(C)C)C(=O)O)C=O)COC5C(C(C(C(O5)C)OC)OC(=O)C6=CC=CC=C6)O
> <PUBCHEM_OPENEYE_ISO_SMILES>
C[C@@H]1CC[C@@H]2[C@@H]1C3(C4CC2(C3(C(=C4)C(C)C)C(=O)O)C=O)CO[C@H]5[C@H]([C@@H]([C@@H]([C@H](O5)C)OC)OC(=O)C6=CC=CC=C6)O
> <PUBCHEM_CACTVS_TPSA>
129
> <PUBCHEM_MONOISOTOPIC_WEIGHT>
582.28288291
> <PUBCHEM_TOTAL_CHARGE>
0
> <PUBCHEM_HEAVY_ATOM_COUNT>
42
> <PUBCHEM_ATOM_DEF_STEREO_COUNT>
8
> <PUBCHEM_ATOM_UDEF_STEREO_COUNT>
4
> <PUBCHEM_BOND_DEF_STEREO_COUNT>
0
> <PUBCHEM_BOND_UDEF_STEREO_COUNT>
0
> <PUBCHEM_ISOTOPIC_ATOM_COUNT>
0
> <PUBCHEM_COMPONENT_COUNT>
1
> <PUBCHEM_CACTVS_TAUTO_COUNT>
-1
> <PUBCHEM_COORDINATE_TYPE>
1
5
255
> <PUBCHEM_BONDANNOTATIONS>
29  1  5
10  20  3
11  23  3
12  24  3
13  43  5
14  44  6
15  16  3
17  26  6
32  34  5
37  38  8
37  39  8
38  40  8
39  41  8
40  42  8
41  42  8
30  6  5
31  7  6
33  8  6
$$$$
