510576
  -OEChem-10302200282D
 38 39  0     1  0  0  0  0  0999 V2000
    5.0298   -0.2694    0.0000 O   0  0  0  0  0  0  0  0  0  0  0  0
    2.4608    0.0396    0.0000 O   0  0  0  0  0  0  0  0  0  0  0  0
    6.3031   -1.9249    0.0000 O   0  0  0  0  0  0  0  0  0  0  0  0
    5.9529    1.3184    0.0000 O   0  0  0  0  0  0  0  0  0  0  0  0
    4.2208    4.3184    0.0000 O   0  0  0  0  0  0  0  0  0  0  0  0
    4.2208    1.3184    0.0000 N   0  0  0  0  0  0  0  0  0  0  0  0
    3.1330   -2.0295    0.0000 N   0  0  0  0  0  0  0  0  0  0  0  0
    5.0868    2.8184    0.0000 N   0  0  0  0  0  0  0  0  0  0  0  0
    2.9520   -3.7520    0.0000 N   0  0  0  0  0  0  0  0  0  0  0  0
    4.5343   -3.0475    0.0000 N   0  0  0  0  0  0  0  0  0  0  0  0
    3.7208   -1.2204    0.0000 C   0  0  1  0  0  0  0  0  0  0  0  0
    3.4118   -0.2694    0.0000 C   0  0  2  0  0  0  0  0  0  0  0  0
    4.2208    0.3184    0.0000 C   0  0  1  0  0  0  0  0  0  0  0  0
    4.7208   -1.2204    0.0000 C   0  0  1  0  0  0  0  0  0  0  0  0
    5.3086   -2.0295    0.0000 C   0  0  0  0  0  0  0  0  0  0  0  0
    3.3548    1.8184    0.0000 C   0  0  0  0  0  0  0  0  0  0  0  0
    5.0868    1.8184    0.0000 C   0  0  0  0  0  0  0  0  0  0  0  0
    3.3548    2.8184    0.0000 C   0  0  0  0  0  0  0  0  0  0  0  0
    3.5398   -2.9430    0.0000 C   0  0  0  0  0  0  0  0  0  0  0  0
    4.2208    3.3184    0.0000 C   0  0  0  0  0  0  0  0  0  0  0  0
    2.4888    3.3184    0.0000 C   0  0  0  0  0  0  0  0  0  0  0  0
    4.0023   -1.7729    0.0000 H   0  0  0  0  0  0  0  0  0  0  0  0
    2.9734   -0.7078    0.0000 H   0  0  0  0  0  0  0  0  0  0  0  0
    3.6684    0.5999    0.0000 H   0  0  0  0  0  0  0  0  0  0  0  0
    5.3332   -1.1234    0.0000 H   0  0  0  0  0  0  0  0  0  0  0  0
    4.7514   -2.3012    0.0000 H   0  0  0  0  0  0  0  0  0  0  0  0
    5.4795   -2.6254    0.0000 H   0  0  0  0  0  0  0  0  0  0  0  0
    2.0000   -0.3752    0.0000 H   0  0  0  0  0  0  0  0  0  0  0  0
    2.8179    1.5084    0.0000 H   0  0  0  0  0  0  0  0  0  0  0  0
    5.6238    3.1284    0.0000 H   0  0  0  0  0  0  0  0  0  0  0  0
    6.6676   -2.4265    0.0000 H   0  0  0  0  0  0  0  0  0  0  0  0
    2.7988    3.8554    0.0000 H   0  0  0  0  0  0  0  0  0  0  0  0
    1.9518    3.6284    0.0000 H   0  0  0  0  0  0  0  0  0  0  0  0
    2.1788    2.7815    0.0000 H   0  0  0  0  0  0  0  0  0  0  0  0
    3.2042   -4.3184    0.0000 H   0  0  0  0  0  0  0  0  0  0  0  0
    2.3354   -3.6872    0.0000 H   0  0  0  0  0  0  0  0  0  0  0  0
    4.7865   -3.6139    0.0000 H   0  0  0  0  0  0  0  0  0  0  0  0
    4.8987   -2.5459    0.0000 H   0  0  0  0  0  0  0  0  0  0  0  0
  1 13  1  0  0  0  0
  1 14  1  0  0  0  0
 12  2  1  1  0  0  0
  2 28  1  0  0  0  0
  3 15  1  0  0  0  0
  3 31  1  0  0  0  0
  4 17  2  0  0  0  0
  5 20  2  0  0  0  0
 13  6  1  6  0  0  0
  6 16  1  0  0  0  0
  6 17  1  0  0  0  0
 11  7  1  1  0  0  0
  7 19  2  0  0  0  0
  8 17  1  0  0  0  0
  8 20  1  0  0  0  0
  8 30  1  0  0  0  0
  9 19  1  0  0  0  0
  9 35  1  0  0  0  0
  9 36  1  0  0  0  0
 10 19  1  0  0  0  0
 10 37  1  0  0  0  0
 10 38  1  0  0  0  0
 11 12  1  0  0  0  0
 11 14  1  0  0  0  0
 11 22  1  0  0  0  0
 12 13  1  0  0  0  0
 12 23  1  0  0  0  0
 13 24  1  0  0  0  0
 14 15  1  6  0  0  0
 14 25  1  0  0  0  0
 15 26  1  0  0  0  0
 15 27  1  0  0  0  0
 16 18  2  0  0  0  0
 16 29  1  0  0  0  0
 18 20  1  0  0  0  0
 18 21  1  0  0  0  0
 21 32  1  0  0  0  0
 21 33  1  0  0  0  0
 21 34  1  0  0  0  0
M  END
> <PUBCHEM_COMPOUND_CID>
510576
> <PUBCHEM_COMPOUND_CANONICALIZED>
1
> <PUBCHEM_CACTVS_COMPLEXITY>
515
> <PUBCHEM_CACTVS_HBOND_ACCEPTOR>
6
> <PUBCHEM_CACTVS_HBOND_DONOR>
5
> <PUBCHEM_CACTVS_ROTATABLE_BOND>
3
> <PUBCHEM_CACTVS_SUBSKEYS>
AAADceBzuAAAAAAAAAAAAAAAAAAAASAAAAAgAAAAAAAAAAAAAAAAHgAQCAAADDzhgAYDAAPABgCoAgFWdACAAAEAAAAAAAEIAECDEAIAwQAPQAAPByITAMDwMAIAAAAAAAAAAAAAAAAAAAAAAAAAAAAAAA==
> <PUBCHEM_IUPAC_OPENEYE_NAME>
2-[(2S,3S,4R,5R)-4-hydroxy-2-(hydroxymethyl)-5-(5-methyl-2,4-dioxo-pyrimidin-1-yl)tetrahydrofuran-3-yl]guanidine
> <PUBCHEM_IUPAC_CAS_NAME>
2-[(2S,3S,4R,5R)-4-hydroxy-2-(hydroxymethyl)-5-(5-methyl-2,4-dioxo-1-pyrimidinyl)-3-oxolanyl]guanidine
> <PUBCHEM_IUPAC_NAME_MARKUP>
2-[(2<I>S</I>,3<I>S</I>,4<I>R</I>,5<I>R</I>)-4-hydroxy-2-(hydroxymethyl)-5-(5-methyl-2,4-dioxopyrimidin-1-yl)oxolan-3-yl]guanidine
> <PUBCHEM_IUPAC_NAME>
2-[(2S,3S,4R,5R)-4-hydroxy-2-(hydroxymethyl)-5-(5-methyl-2,4-dioxopyrimidin-1-yl)oxolan-3-yl]guanidine
> <PUBCHEM_IUPAC_SYSTEMATIC_NAME>
2-[(2S,3S,4R,5R)-2-(hydroxymethyl)-5-[5-methyl-2,4-bis(oxidanylidene)pyrimidin-1-yl]-4-oxidanyl-oxolan-3-yl]guanidine
> <PUBCHEM_IUPAC_TRADITIONAL_NAME>
2-[(2S,3S,4R,5R)-5-(2,4-diketo-5-methyl-pyrimidin-1-yl)-4-hydroxy-2-methylol-tetrahydrofuran-3-yl]guanidine
> <PUBCHEM_IUPAC_INCHI>
InChI=1S/C11H17N5O5/c1-4-2-16(11(20)15-8(4)19)9-7(18)6(14-10(12)13)5(3-17)21-9/h2,5-7,9,17-18H,3H2,1H3,(H4,12,13,14)(H,15,19,20)/t5-,6-,7-,9-/m1/s1
> <PUBCHEM_IUPAC_INCHIKEY>
WBXVUUMZCKIHOU-JXOAFFINSA-N
> <PUBCHEM_XLOGP3_AA>
-3.4
> <PUBCHEM_EXACT_MASS>
299.12296866
> <PUBCHEM_MOLECULAR_FORMULA>
C11H17N5O5
> <PUBCHEM_MOLECULAR_WEIGHT>
299.28
> <PUBCHEM_OPENEYE_CAN_SMILES>
CC1=CN(C(=O)NC1=O)C2C(C(C(O2)CO)N=C(N)N)O
> <PUBCHEM_OPENEYE_ISO_SMILES>
CC1=CN(C(=O)NC1=O)[C@H]2[C@@H]([C@@H]([C@H](O2)CO)N=C(N)N)O
> <PUBCHEM_CACTVS_TPSA>
164
> <PUBCHEM_MONOISOTOPIC_WEIGHT>
299.12296866
> <PUBCHEM_TOTAL_CHARGE>
0
> <PUBCHEM_HEAVY_ATOM_COUNT>
21
> <PUBCHEM_ATOM_DEF_STEREO_COUNT>
4
> <PUBCHEM_ATOM_UDEF_STEREO_COUNT>
0
> <PUBCHEM_BOND_DEF_STEREO_COUNT>
0
> <PUBCHEM_BOND_UDEF_STEREO_COUNT>
0
> <PUBCHEM_ISOTOPIC_ATOM_COUNT>
0
> <PUBCHEM_COMPONENT_COUNT>
1
> <PUBCHEM_CACTVS_TAUTO_COUNT>
-1
> <PUBCHEM_COORDINATE_TYPE>
1
5
255
> <PUBCHEM_BONDANNOTATIONS>
14  15  6
16  18  8
18  20  8
12  2  5
13  6  6
6  16  8
6  17  8
11  7  5
8  17  8
8  20  8
$$$$
