510582
  -OEChem-10302200282D
 34 36  0     1  0  0  0  0  0999 V2000
    4.6783   -1.9749    0.0000 S   0  0  0  0  0  0  0  0  0  0  0  0
    8.2351    2.1542    0.0000 F   0  0  0  0  0  0  0  0  0  0  0  0
    7.0504    2.9265    0.0000 F   0  0  0  0  0  0  0  0  0  0  0  0
    7.4628    0.9695    0.0000 F   0  0  0  0  0  0  0  0  0  0  0  0
    5.4883   -2.5613    0.0000 O   0  0  0  0  0  0  0  0  0  0  0  0
    4.3709   -2.9265    0.0000 O   0  0  0  0  0  0  0  0  0  0  0  0
    5.2619   -1.1702    0.0000 N   0  0  3  0  0  0  0  0  0  0  0  0
    4.6783   -0.3655    0.0000 C   0  0  3  0  0  0  0  0  0  0  0  0
    3.7320   -0.6702    0.0000 C   0  0  0  0  0  0  0  0  0  0  0  0
    3.7320   -1.6702    0.0000 C   0  0  0  0  0  0  0  0  0  0  0  0
    4.9889    0.5851    0.0000 C   0  0  0  0  0  0  0  0  0  0  0  0
    6.2619   -1.1702    0.0000 C   0  0  0  0  0  0  0  0  0  0  0  0
    2.8660   -0.1702    0.0000 C   0  0  0  0  0  0  0  0  0  0  0  0
    2.8660   -2.1702    0.0000 C   0  0  0  0  0  0  0  0  0  0  0  0
    5.9674    0.7913    0.0000 C   0  0  0  0  0  0  0  0  0  0  0  0
    4.3211    1.3294    0.0000 C   0  0  0  0  0  0  0  0  0  0  0  0
    2.0000   -0.6702    0.0000 C   0  0  0  0  0  0  0  0  0  0  0  0
    2.0000   -1.6702    0.0000 C   0  0  0  0  0  0  0  0  0  0  0  0
    6.2781    1.7418    0.0000 C   0  0  0  0  0  0  0  0  0  0  0  0
    4.6318    2.2799    0.0000 C   0  0  0  0  0  0  0  0  0  0  0  0
    5.6103    2.4861    0.0000 C   0  0  0  0  0  0  0  0  0  0  0  0
    7.2566    1.9480    0.0000 C   0  0  0  0  0  0  0  0  0  0  0  0
    5.2908   -0.2693    0.0000 H   0  0  0  0  0  0  0  0  0  0  0  0
    6.2619   -1.7902    0.0000 H   0  0  0  0  0  0  0  0  0  0  0  0
    6.8819   -1.1702    0.0000 H   0  0  0  0  0  0  0  0  0  0  0  0
    6.2619   -0.5502    0.0000 H   0  0  0  0  0  0  0  0  0  0  0  0
    2.8660    0.4498    0.0000 H   0  0  0  0  0  0  0  0  0  0  0  0
    2.8660   -2.7902    0.0000 H   0  0  0  0  0  0  0  0  0  0  0  0
    6.3815    0.3298    0.0000 H   0  0  0  0  0  0  0  0  0  0  0  0
    3.7144    1.2015    0.0000 H   0  0  0  0  0  0  0  0  0  0  0  0
    1.4631   -0.3602    0.0000 H   0  0  0  0  0  0  0  0  0  0  0  0
    1.4631   -1.9802    0.0000 H   0  0  0  0  0  0  0  0  0  0  0  0
    4.2177    2.7413    0.0000 H   0  0  0  0  0  0  0  0  0  0  0  0
    5.8029    3.0754    0.0000 H   0  0  0  0  0  0  0  0  0  0  0  0
  1  5  2  0  0  0  0
  1  6  2  0  0  0  0
  1  7  1  0  0  0  0
  1 10  1  0  0  0  0
  2 22  1  0  0  0  0
  3 22  1  0  0  0  0
  4 22  1  0  0  0  0
  7  8  1  0  0  0  0
  7 12  1  0  0  0  0
  8  9  1  0  0  0  0
  8 11  1  0  0  0  0
  8 23  1  0  0  0  0
  9 10  1  0  0  0  0
  9 13  2  0  0  0  0
 10 14  2  0  0  0  0
 11 15  2  0  0  0  0
 11 16  1  0  0  0  0
 12 24  1  0  0  0  0
 12 25  1  0  0  0  0
 12 26  1  0  0  0  0
 13 17  1  0  0  0  0
 13 27  1  0  0  0  0
 14 18  1  0  0  0  0
 14 28  1  0  0  0  0
 15 19  1  0  0  0  0
 15 29  1  0  0  0  0
 16 20  2  0  0  0  0
 16 30  1  0  0  0  0
 17 18  2  0  0  0  0
 17 31  1  0  0  0  0
 18 32  1  0  0  0  0
 19 21  2  0  0  0  0
 19 22  1  0  0  0  0
 20 21  1  0  0  0  0
 20 33  1  0  0  0  0
 21 34  1  0  0  0  0
M  END
> <PUBCHEM_COMPOUND_CID>
510582
> <PUBCHEM_COMPOUND_CANONICALIZED>
1
> <PUBCHEM_CACTVS_COMPLEXITY>
514
> <PUBCHEM_CACTVS_HBOND_ACCEPTOR>
6
> <PUBCHEM_CACTVS_HBOND_DONOR>
0
> <PUBCHEM_CACTVS_ROTATABLE_BOND>
1
> <PUBCHEM_CACTVS_SUBSKEYS>
AAADccByMYBAAAAAAAAAAAAAAAAAAWAAAAAwYAAAAAAAAFgBQAAAHQQAQAAADCjBWBQyAYIAAAKAAiBCAHDCABAgAAAIiBgIBIgIICKAkRGEIAhggAAIiAcQgMAOAAACAAAEAAAAAAQAAAgAAAAAAAAAAA==
> <PUBCHEM_IUPAC_OPENEYE_NAME>
2-methyl-3-[3-(trifluoromethyl)phenyl]-3H-1,2-benzothiazole 1,1-dioxide
> <PUBCHEM_IUPAC_CAS_NAME>
2-methyl-3-[3-(trifluoromethyl)phenyl]-3H-1,2-benzothiazole 1,1-dioxide
> <PUBCHEM_IUPAC_NAME_MARKUP>
2-methyl-3-[3-(trifluoromethyl)phenyl]-3<I>H</I>-1,2-benzothiazole 1,1-dioxide
> <PUBCHEM_IUPAC_NAME>
2-methyl-3-[3-(trifluoromethyl)phenyl]-3H-1,2-benzothiazole 1,1-dioxide
> <PUBCHEM_IUPAC_SYSTEMATIC_NAME>
2-methyl-3-[3-(trifluoromethyl)phenyl]-3H-1,2-benzothiazole 1,1-dioxide
> <PUBCHEM_IUPAC_TRADITIONAL_NAME>
2-methyl-3-[3-(trifluoromethyl)phenyl]-3H-1,2-benzothiazole 1,1-dioxide
> <PUBCHEM_IUPAC_INCHI>
InChI=1S/C15H12F3NO2S/c1-19-14(10-5-4-6-11(9-10)15(16,17)18)12-7-2-3-8-13(12)22(19,20)21/h2-9,14H,1H3
> <PUBCHEM_IUPAC_INCHIKEY>
FFSRDZGAWXOUOU-UHFFFAOYSA-N
> <PUBCHEM_XLOGP3_AA>
3.2
> <PUBCHEM_EXACT_MASS>
327.05408429
> <PUBCHEM_MOLECULAR_FORMULA>
C15H12F3NO2S
> <PUBCHEM_MOLECULAR_WEIGHT>
327.3
> <PUBCHEM_OPENEYE_CAN_SMILES>
CN1C(C2=CC=CC=C2S1(=O)=O)C3=CC(=CC=C3)C(F)(F)F
> <PUBCHEM_OPENEYE_ISO_SMILES>
CN1C(C2=CC=CC=C2S1(=O)=O)C3=CC(=CC=C3)C(F)(F)F
> <PUBCHEM_CACTVS_TPSA>
45.8
> <PUBCHEM_MONOISOTOPIC_WEIGHT>
327.05408429
> <PUBCHEM_TOTAL_CHARGE>
0
> <PUBCHEM_HEAVY_ATOM_COUNT>
22
> <PUBCHEM_ATOM_DEF_STEREO_COUNT>
0
> <PUBCHEM_ATOM_UDEF_STEREO_COUNT>
1
> <PUBCHEM_BOND_DEF_STEREO_COUNT>
0
> <PUBCHEM_BOND_UDEF_STEREO_COUNT>
0
> <PUBCHEM_ISOTOPIC_ATOM_COUNT>
0
> <PUBCHEM_COMPONENT_COUNT>
1
> <PUBCHEM_CACTVS_TAUTO_COUNT>
-1
> <PUBCHEM_COORDINATE_TYPE>
1
5
255
> <PUBCHEM_BONDANNOTATIONS>
10  14  8
11  15  8
11  16  8
13  17  8
14  18  8
15  19  8
16  20  8
17  18  8
19  21  8
20  21  8
8  11  3
9  10  8
9  13  8
$$$$
