510598
  -OEChem-10302200282D
 28 30  0     1  0  0  0  0  0999 V2000
    7.2566    2.1682    0.0000 Cl  0  0  0  0  0  0  0  0  0  0  0  0
    4.6783   -1.7547    0.0000 S   0  0  0  0  0  0  0  0  0  0  0  0
    5.4883   -2.3411    0.0000 O   0  0  0  0  0  0  0  0  0  0  0  0
    4.3709   -2.7063    0.0000 O   0  0  0  0  0  0  0  0  0  0  0  0
    5.2619   -0.9500    0.0000 N   0  0  0  0  0  0  0  0  0  0  0  0
    4.6783   -0.1453    0.0000 C   0  0  3  0  0  0  0  0  0  0  0  0
    3.7320   -0.4500    0.0000 C   0  0  0  0  0  0  0  0  0  0  0  0
    3.7320   -1.4500    0.0000 C   0  0  0  0  0  0  0  0  0  0  0  0
    4.9889    0.8053    0.0000 C   0  0  0  0  0  0  0  0  0  0  0  0
    2.8660    0.0500    0.0000 C   0  0  0  0  0  0  0  0  0  0  0  0
    2.8660   -1.9500    0.0000 C   0  0  0  0  0  0  0  0  0  0  0  0
    5.9674    1.0115    0.0000 C   0  0  0  0  0  0  0  0  0  0  0  0
    4.3211    1.5496    0.0000 C   0  0  0  0  0  0  0  0  0  0  0  0
    2.0000   -0.4500    0.0000 C   0  0  0  0  0  0  0  0  0  0  0  0
    2.0000   -1.4500    0.0000 C   0  0  0  0  0  0  0  0  0  0  0  0
    6.2781    1.9620    0.0000 C   0  0  0  0  0  0  0  0  0  0  0  0
    4.6318    2.5001    0.0000 C   0  0  0  0  0  0  0  0  0  0  0  0
    5.6103    2.7063    0.0000 C   0  0  0  0  0  0  0  0  0  0  0  0
    5.2908   -0.0491    0.0000 H   0  0  0  0  0  0  0  0  0  0  0  0
    5.8819   -0.9500    0.0000 H   0  0  0  0  0  0  0  0  0  0  0  0
    2.8660    0.6700    0.0000 H   0  0  0  0  0  0  0  0  0  0  0  0
    2.8660   -2.5700    0.0000 H   0  0  0  0  0  0  0  0  0  0  0  0
    6.3815    0.5500    0.0000 H   0  0  0  0  0  0  0  0  0  0  0  0
    3.7144    1.4217    0.0000 H   0  0  0  0  0  0  0  0  0  0  0  0
    1.4631   -0.1400    0.0000 H   0  0  0  0  0  0  0  0  0  0  0  0
    1.4631   -1.7600    0.0000 H   0  0  0  0  0  0  0  0  0  0  0  0
    4.2177    2.9616    0.0000 H   0  0  0  0  0  0  0  0  0  0  0  0
    5.8029    3.2956    0.0000 H   0  0  0  0  0  0  0  0  0  0  0  0
  1 16  1  0  0  0  0
  2  3  2  0  0  0  0
  2  4  2  0  0  0  0
  2  5  1  0  0  0  0
  2  8  1  0  0  0  0
  5  6  1  0  0  0  0
  5 20  1  0  0  0  0
  6  7  1  0  0  0  0
  6  9  1  0  0  0  0
  6 19  1  0  0  0  0
  7  8  1  0  0  0  0
  7 10  2  0  0  0  0
  8 11  2  0  0  0  0
  9 12  2  0  0  0  0
  9 13  1  0  0  0  0
 10 14  1  0  0  0  0
 10 21  1  0  0  0  0
 11 15  1  0  0  0  0
 11 22  1  0  0  0  0
 12 16  1  0  0  0  0
 12 23  1  0  0  0  0
 13 17  2  0  0  0  0
 13 24  1  0  0  0  0
 14 15  2  0  0  0  0
 14 25  1  0  0  0  0
 15 26  1  0  0  0  0
 16 18  2  0  0  0  0
 17 18  1  0  0  0  0
 17 27  1  0  0  0  0
 18 28  1  0  0  0  0
M  END
> <PUBCHEM_COMPOUND_CID>
510598
> <PUBCHEM_COMPOUND_CANONICALIZED>
1
> <PUBCHEM_CACTVS_COMPLEXITY>
406
> <PUBCHEM_CACTVS_HBOND_ACCEPTOR>
3
> <PUBCHEM_CACTVS_HBOND_DONOR>
1
> <PUBCHEM_CACTVS_ROTATABLE_BOND>
1
> <PUBCHEM_CACTVS_SUBSKEYS>
AAADccByMABEAAAAAAAAAAAAAAAAAWAAAAAwYAAAAAAAAFgBQAAAHAYQQAAADCrBWCQwAYBAAAKAAiBCAHDCABAgBQAIiJgABogIICKBkxGAIABggAAIiAcQgMAOAAAAIAAEAAAAAABAAAgAAAAAAAAAAA==
> <PUBCHEM_IUPAC_OPENEYE_NAME>
3-(3-chlorophenyl)-2,3-dihydro-1,2-benzothiazole 1,1-dioxide
> <PUBCHEM_IUPAC_CAS_NAME>
3-(3-chlorophenyl)-2,3-dihydro-1,2-benzothiazole 1,1-dioxide
> <PUBCHEM_IUPAC_NAME_MARKUP>
3-(3-chlorophenyl)-2,3-dihydro-1,2-benzothiazole 1,1-dioxide
> <PUBCHEM_IUPAC_NAME>
3-(3-chlorophenyl)-2,3-dihydro-1,2-benzothiazole 1,1-dioxide
> <PUBCHEM_IUPAC_SYSTEMATIC_NAME>
3-(3-chlorophenyl)-2,3-dihydro-1,2-benzothiazole 1,1-dioxide
> <PUBCHEM_IUPAC_TRADITIONAL_NAME>
3-(3-chlorophenyl)-2,3-dihydro-1,2-benzothiazole 1,1-dioxide
> <PUBCHEM_IUPAC_INCHI>
InChI=1S/C13H10ClNO2S/c14-10-5-3-4-9(8-10)13-11-6-1-2-7-12(11)18(16,17)15-13/h1-8,13,15H
> <PUBCHEM_IUPAC_INCHIKEY>
QMAGHQNHLWPMSP-UHFFFAOYSA-N
> <PUBCHEM_XLOGP3_AA>
2.8
> <PUBCHEM_EXACT_MASS>
279.0120774
> <PUBCHEM_MOLECULAR_FORMULA>
C13H10ClNO2S
> <PUBCHEM_MOLECULAR_WEIGHT>
279.74
> <PUBCHEM_OPENEYE_CAN_SMILES>
C1=CC=C2C(=C1)C(NS2(=O)=O)C3=CC(=CC=C3)Cl
> <PUBCHEM_OPENEYE_ISO_SMILES>
C1=CC=C2C(=C1)C(NS2(=O)=O)C3=CC(=CC=C3)Cl
> <PUBCHEM_CACTVS_TPSA>
54.6
> <PUBCHEM_MONOISOTOPIC_WEIGHT>
279.0120774
> <PUBCHEM_TOTAL_CHARGE>
0
> <PUBCHEM_HEAVY_ATOM_COUNT>
18
> <PUBCHEM_ATOM_DEF_STEREO_COUNT>
0
> <PUBCHEM_ATOM_UDEF_STEREO_COUNT>
1
> <PUBCHEM_BOND_DEF_STEREO_COUNT>
0
> <PUBCHEM_BOND_UDEF_STEREO_COUNT>
0
> <PUBCHEM_ISOTOPIC_ATOM_COUNT>
0
> <PUBCHEM_COMPONENT_COUNT>
1
> <PUBCHEM_CACTVS_TAUTO_COUNT>
-1
> <PUBCHEM_COORDINATE_TYPE>
1
5
255
> <PUBCHEM_BONDANNOTATIONS>
10  14  8
11  15  8
12  16  8
13  17  8
14  15  8
16  18  8
17  18  8
6  9  3
7  10  8
7  8  8
8  11  8
9  12  8
9  13  8
$$$$
