510547
  -OEChem-10302200282D
112115  0     1  0  0  0  0  0999 V2000
    5.4641   -1.1832    0.0000 O   0  0  0  0  0  0  0  0  0  0  0  0
   15.7706   -1.1046    0.0000 O   0  0  0  0  0  0  0  0  0  0  0  0
    6.5661    0.6174    0.0000 O   0  0  0  0  0  0  0  0  0  0  0  0
   13.6702    4.6832    0.0000 O   0  0  0  0  0  0  0  0  0  0  0  0
    4.5981   -2.6832    0.0000 O   0  0  0  0  0  0  0  0  0  0  0  0
   14.1883   -1.8091    0.0000 O   0  0  0  0  0  0  0  0  0  0  0  0
    5.4641   -0.1832    0.0000 O   0  0  0  0  0  0  0  0  0  0  0  0
   13.5559    1.7405    0.0000 O   0  0  0  0  0  0  0  0  0  0  0  0
    7.1013    2.2646    0.0000 N   0  0  0  0  0  0  0  0  0  0  0  0
   13.1350    3.0360    0.0000 N   0  0  0  0  0  0  0  0  0  0  0  0
    3.7320   -0.1832    0.0000 N   0  0  0  0  0  0  0  0  0  0  0  0
   14.9571    0.7225    0.0000 N   0  0  0  0  0  0  0  0  0  0  0  0
    5.0981    2.8556    0.0000 N   0  0  0  0  0  0  0  0  0  0  0  0
   15.6382    3.9839    0.0000 N   0  0  0  0  0  0  0  0  0  0  0  0
    3.7891    1.9045    0.0000 N   0  0  0  0  0  0  0  0  0  0  0  0
   16.1382    2.4450    0.0000 N   0  0  0  0  0  0  0  0  0  0  0  0
    9.7465    2.3158    0.0000 C   0  0  0  0  0  0  0  0  0  0  0  0
   10.4897    2.9849    0.0000 C   0  0  0  0  0  0  0  0  0  0  0  0
    8.7955    2.6248    0.0000 C   0  0  0  0  0  0  0  0  0  0  0  0
   11.4408    2.6759    0.0000 C   0  0  0  0  0  0  0  0  0  0  0  0
    8.0524    1.9556    0.0000 C   0  0  0  0  0  0  0  0  0  0  0  0
   12.1839    3.3450    0.0000 C   0  0  0  0  0  0  0  0  0  0  0  0
    3.7320   -1.1832    0.0000 C   0  0  1  0  0  0  0  0  0  0  0  0
   14.3693   -0.0866    0.0000 C   0  0  1  0  0  0  0  0  0  0  0  0
    2.8660   -1.6832    0.0000 C   0  0  0  0  0  0  0  0  0  0  0  0
   13.3748    0.0180    0.0000 C   0  0  0  0  0  0  0  0  0  0  0  0
    6.3582    1.5955    0.0000 C   0  0  0  0  0  0  0  0  0  0  0  0
   13.8781    3.7051    0.0000 C   0  0  0  0  0  0  0  0  0  0  0  0
    5.4071    1.9045    0.0000 C   0  0  0  0  0  0  0  0  0  0  0  0
   14.8292    3.3961    0.0000 C   0  0  0  0  0  0  0  0  0  0  0  0
    2.8660   -2.6832    0.0000 C   0  0  0  0  0  0  0  0  0  0  0  0
   12.7870   -0.7910    0.0000 C   0  0  0  0  0  0  0  0  0  0  0  0
    4.5981    1.3168    0.0000 C   0  0  0  0  0  0  0  0  0  0  0  0
   15.1382    2.4450    0.0000 C   0  0  0  0  0  0  0  0  0  0  0  0
    4.5981   -1.6832    0.0000 C   0  0  0  0  0  0  0  0  0  0  0  0
   14.7761   -1.0001    0.0000 C   0  0  0  0  0  0  0  0  0  0  0  0
    4.5981    0.3167    0.0000 C   0  0  0  0  0  0  0  0  0  0  0  0
   14.5504    1.6360    0.0000 C   0  0  0  0  0  0  0  0  0  0  0  0
    6.3301   -1.6832    0.0000 C   0  0  0  0  0  0  0  0  0  0  0  0
   16.1773   -2.0182    0.0000 C   0  0  0  0  0  0  0  0  0  0  0  0
    7.1962   -1.1832    0.0000 C   0  0  0  0  0  0  0  0  0  0  0  0
   17.1719   -2.1227    0.0000 C   0  0  0  0  0  0  0  0  0  0  0  0
    2.0000   -3.1832    0.0000 C   0  0  0  0  0  0  0  0  0  0  0  0
   13.1938   -1.7046    0.0000 C   0  0  0  0  0  0  0  0  0  0  0  0
    3.7320   -3.1832    0.0000 C   0  0  0  0  0  0  0  0  0  0  0  0
   11.7925   -0.6865    0.0000 C   0  0  0  0  0  0  0  0  0  0  0  0
    4.0981    2.8556    0.0000 C   0  0  0  0  0  0  0  0  0  0  0  0
   16.4472    3.3961    0.0000 C   0  0  0  0  0  0  0  0  0  0  0  0
    8.0622   -1.6832    0.0000 C   0  0  0  0  0  0  0  0  0  0  0  0
   17.5786   -3.0362    0.0000 C   0  0  0  0  0  0  0  0  0  0  0  0
    2.0000   -4.1832    0.0000 C   0  0  0  0  0  0  0  0  0  0  0  0
   12.6060   -2.5136    0.0000 C   0  0  0  0  0  0  0  0  0  0  0  0
    3.7320   -4.1832    0.0000 C   0  0  0  0  0  0  0  0  0  0  0  0
   11.2047   -1.4955    0.0000 C   0  0  0  0  0  0  0  0  0  0  0  0
    2.8660   -4.6832    0.0000 C   0  0  0  0  0  0  0  0  0  0  0  0
   11.6115   -2.4091    0.0000 C   0  0  0  0  0  0  0  0  0  0  0  0
    8.9282   -1.1832    0.0000 C   0  0  0  0  0  0  0  0  0  0  0  0
   18.5731   -3.1408    0.0000 C   0  0  0  0  0  0  0  0  0  0  0  0
    9.4555    1.7683    0.0000 H   0  0  0  0  0  0  0  0  0  0  0  0
   10.2351    1.9340    0.0000 H   0  0  0  0  0  0  0  0  0  0  0  0
   10.7808    3.5323    0.0000 H   0  0  0  0  0  0  0  0  0  0  0  0
   10.0011    3.3666    0.0000 H   0  0  0  0  0  0  0  0  0  0  0  0
    9.0866    3.1722    0.0000 H   0  0  0  0  0  0  0  0  0  0  0  0
    8.3069    3.0065    0.0000 H   0  0  0  0  0  0  0  0  0  0  0  0
   11.1497    2.1284    0.0000 H   0  0  0  0  0  0  0  0  0  0  0  0
   11.9293    2.2942    0.0000 H   0  0  0  0  0  0  0  0  0  0  0  0
    7.7613    1.4082    0.0000 H   0  0  0  0  0  0  0  0  0  0  0  0
    8.5409    1.5739    0.0000 H   0  0  0  0  0  0  0  0  0  0  0  0
   12.4750    3.8924    0.0000 H   0  0  0  0  0  0  0  0  0  0  0  0
   11.6953    3.7267    0.0000 H   0  0  0  0  0  0  0  0  0  0  0  0
    6.9724    2.8711    0.0000 H   0  0  0  0  0  0  0  0  0  0  0  0
   13.2639    2.4295    0.0000 H   0  0  0  0  0  0  0  0  0  0  0  0
    4.2690   -0.8732    0.0000 H   0  0  0  0  0  0  0  0  0  0  0  0
   14.9859   -0.1514    0.0000 H   0  0  0  0  0  0  0  0  0  0  0  0
    2.6540   -1.1006    0.0000 H   0  0  0  0  0  0  0  0  0  0  0  0
    2.2554   -1.7909    0.0000 H   0  0  0  0  0  0  0  0  0  0  0  0
   13.5457    0.6140    0.0000 H   0  0  0  0  0  0  0  0  0  0  0  0
   12.8176    0.2898    0.0000 H   0  0  0  0  0  0  0  0  0  0  0  0
    3.1951    0.1268    0.0000 H   0  0  0  0  0  0  0  0  0  0  0  0
   15.5737    0.6577    0.0000 H   0  0  0  0  0  0  0  0  0  0  0  0
    5.4625    3.3572    0.0000 H   0  0  0  0  0  0  0  0  0  0  0  0
   15.6382    4.6039    0.0000 H   0  0  0  0  0  0  0  0  0  0  0  0
    5.9316   -2.1582    0.0000 H   0  0  0  0  0  0  0  0  0  0  0  0
    6.7287   -2.1582    0.0000 H   0  0  0  0  0  0  0  0  0  0  0  0
   15.5758   -2.1682    0.0000 H   0  0  0  0  0  0  0  0  0  0  0  0
   16.2206   -2.6367    0.0000 H   0  0  0  0  0  0  0  0  0  0  0  0
    7.5947   -0.7083    0.0000 H   0  0  0  0  0  0  0  0  0  0  0  0
    6.7976   -0.7083    0.0000 H   0  0  0  0  0  0  0  0  0  0  0  0
   17.7734   -1.9727    0.0000 H   0  0  0  0  0  0  0  0  0  0  0  0
   17.1286   -1.5042    0.0000 H   0  0  0  0  0  0  0  0  0  0  0  0
    1.4631   -2.8732    0.0000 H   0  0  0  0  0  0  0  0  0  0  0  0
   13.8104   -1.7694    0.0000 H   0  0  0  0  0  0  0  0  0  0  0  0
    4.2690   -2.8732    0.0000 H   0  0  0  0  0  0  0  0  0  0  0  0
   11.5403   -0.1201    0.0000 H   0  0  0  0  0  0  0  0  0  0  0  0
    3.7336    3.3572    0.0000 H   0  0  0  0  0  0  0  0  0  0  0  0
   17.0368    3.5877    0.0000 H   0  0  0  0  0  0  0  0  0  0  0  0
    7.6636   -2.1582    0.0000 H   0  0  0  0  0  0  0  0  0  0  0  0
    8.4607   -2.1582    0.0000 H   0  0  0  0  0  0  0  0  0  0  0  0
   16.9770   -3.1862    0.0000 H   0  0  0  0  0  0  0  0  0  0  0  0
   17.6218   -3.6547    0.0000 H   0  0  0  0  0  0  0  0  0  0  0  0
    1.4631   -4.4932    0.0000 H   0  0  0  0  0  0  0  0  0  0  0  0
   12.8582   -3.0800    0.0000 H   0  0  0  0  0  0  0  0  0  0  0  0
    4.2690   -4.4932    0.0000 H   0  0  0  0  0  0  0  0  0  0  0  0
   10.5881   -1.4307    0.0000 H   0  0  0  0  0  0  0  0  0  0  0  0
    2.8660   -5.3032    0.0000 H   0  0  0  0  0  0  0  0  0  0  0  0
   11.2470   -2.9107    0.0000 H   0  0  0  0  0  0  0  0  0  0  0  0
    9.2382   -1.7202    0.0000 H   0  0  0  0  0  0  0  0  0  0  0  0
    9.4651   -0.8733    0.0000 H   0  0  0  0  0  0  0  0  0  0  0  0
    8.6182   -0.6463    0.0000 H   0  0  0  0  0  0  0  0  0  0  0  0
   18.5083   -3.7574    0.0000 H   0  0  0  0  0  0  0  0  0  0  0  0
   19.1897   -3.2056    0.0000 H   0  0  0  0  0  0  0  0  0  0  0  0
   18.6379   -2.5242    0.0000 H   0  0  0  0  0  0  0  0  0  0  0  0
  1 35  1  0  0  0  0
  1 39  1  0  0  0  0
  2 36  1  0  0  0  0
  2 40  1  0  0  0  0
  3 27  2  0  0  0  0
  4 28  2  0  0  0  0
  5 35  2  0  0  0  0
  6 36  2  0  0  0  0
  7 37  2  0  0  0  0
  8 38  2  0  0  0  0
  9 21  1  0  0  0  0
  9 27  1  0  0  0  0
  9 71  1  0  0  0  0
 10 22  1  0  0  0  0
 10 28  1  0  0  0  0
 10 72  1  0  0  0  0
 23 11  1  6  0  0  0
 11 37  1  0  0  0  0
 11 79  1  0  0  0  0
 24 12  1  6  0  0  0
 12 38  1  0  0  0  0
 12 80  1  0  0  0  0
 13 29  1  0  0  0  0
 13 47  1  0  0  0  0
 13 81  1  0  0  0  0
 14 30  1  0  0  0  0
 14 48  1  0  0  0  0
 14 82  1  0  0  0  0
 15 33  1  0  0  0  0
 15 47  2  0  0  0  0
 16 34  1  0  0  0  0
 16 48  2  0  0  0  0
 17 18  1  0  0  0  0
 17 19  1  0  0  0  0
 17 59  1  0  0  0  0
 17 60  1  0  0  0  0
 18 20  1  0  0  0  0
 18 61  1  0  0  0  0
 18 62  1  0  0  0  0
 19 21  1  0  0  0  0
 19 63  1  0  0  0  0
 19 64  1  0  0  0  0
 20 22  1  0  0  0  0
 20 65  1  0  0  0  0
 20 66  1  0  0  0  0
 21 67  1  0  0  0  0
 21 68  1  0  0  0  0
 22 69  1  0  0  0  0
 22 70  1  0  0  0  0
 23 25  1  0  0  0  0
 23 35  1  0  0  0  0
 23 73  1  0  0  0  0
 24 26  1  0  0  0  0
 24 36  1  0  0  0  0
 24 74  1  0  0  0  0
 25 31  1  0  0  0  0
 25 75  1  0  0  0  0
 25 76  1  0  0  0  0
 26 32  1  0  0  0  0
 26 77  1  0  0  0  0
 26 78  1  0  0  0  0
 27 29  1  0  0  0  0
 28 30  1  0  0  0  0
 29 33  2  0  0  0  0
 30 34  2  0  0  0  0
 31 43  2  0  0  0  0
 31 45  1  0  0  0  0
 32 44  2  0  0  0  0
 32 46  1  0  0  0  0
 33 37  1  0  0  0  0
 34 38  1  0  0  0  0
 39 41  1  0  0  0  0
 39 83  1  0  0  0  0
 39 84  1  0  0  0  0
 40 42  1  0  0  0  0
 40 85  1  0  0  0  0
 40 86  1  0  0  0  0
 41 49  1  0  0  0  0
 41 87  1  0  0  0  0
 41 88  1  0  0  0  0
 42 50  1  0  0  0  0
 42 89  1  0  0  0  0
 42 90  1  0  0  0  0
 43 51  1  0  0  0  0
 43 91  1  0  0  0  0
 44 52  1  0  0  0  0
 44 92  1  0  0  0  0
 45 53  2  0  0  0  0
 45 93  1  0  0  0  0
 46 54  2  0  0  0  0
 46 94  1  0  0  0  0
 47 95  1  0  0  0  0
 48 96  1  0  0  0  0
 49 57  1  0  0  0  0
 49 97  1  0  0  0  0
 49 98  1  0  0  0  0
 50 58  1  0  0  0  0
 50 99  1  0  0  0  0
 50100  1  0  0  0  0
 51 55  2  0  0  0  0
 51101  1  0  0  0  0
 52 56  2  0  0  0  0
 52102  1  0  0  0  0
 53 55  1  0  0  0  0
 53103  1  0  0  0  0
 54 56  1  0  0  0  0
 54104  1  0  0  0  0
 55105  1  0  0  0  0
 56106  1  0  0  0  0
 57107  1  0  0  0  0
 57108  1  0  0  0  0
 57109  1  0  0  0  0
 58110  1  0  0  0  0
 58111  1  0  0  0  0
 58112  1  0  0  0  0
M  END
> <PUBCHEM_COMPOUND_CID>
510547
> <PUBCHEM_COMPOUND_CANONICALIZED>
1
> <PUBCHEM_CACTVS_COMPLEXITY>
1200
> <PUBCHEM_CACTVS_HBOND_ACCEPTOR>
10
> <PUBCHEM_CACTVS_HBOND_DONOR>
6
> <PUBCHEM_CACTVS_ROTATABLE_BOND>
27
> <PUBCHEM_CACTVS_SUBSKEYS>
AAADcfB//AAAAAAAAAAAAAAAAAAAAWLAAAAwYAAAAAAAAAAB9AAAHgAQAAAADCjhngY3mJbJlACoAyXzfACCgC23EKAJ2YGoVMiKaDrA2TGXIYhslgLYiWedyKCOAAAAAAAAAAAAAAAAAAAAAAAAAAAAAA==
> <PUBCHEM_IUPAC_OPENEYE_NAME>
butyl (2S)-2-[[5-[6-[[4-[[(1S)-1-benzyl-2-butoxy-2-oxo-ethyl]carbamoyl]-1H-imidazole-5-carbonyl]amino]hexylcarbamoyl]-1H-imidazole-4-carbonyl]amino]-3-phenyl-propanoate
> <PUBCHEM_IUPAC_CAS_NAME>
(2S)-2-[[[5-[[6-[[[4-[[[(2S)-1-butoxy-1-oxo-3-phenylpropan-2-yl]amino]-oxomethyl]-1H-imidazol-5-yl]-oxomethyl]amino]hexylamino]-oxomethyl]-1H-imidazol-4-yl]-oxomethyl]amino]-3-phenylpropanoic acid butyl ester
> <PUBCHEM_IUPAC_NAME_MARKUP>
butyl (2<I>S</I>)-2-[[5-[6-[[4-[[(2<I>S</I>)-1-butoxy-1-oxo-3-phenylpropan-2-yl]carbamoyl]-1<I>H</I>-imidazole-5-carbonyl]amino]hexylcarbamoyl]-1<I>H</I>-imidazole-4-carbonyl]amino]-3-phenylpropanoate
> <PUBCHEM_IUPAC_NAME>
butyl (2S)-2-[[5-[6-[[4-[[(2S)-1-butoxy-1-oxo-3-phenylpropan-2-yl]carbamoyl]-1H-imidazole-5-carbonyl]amino]hexylcarbamoyl]-1H-imidazole-4-carbonyl]amino]-3-phenylpropanoate
> <PUBCHEM_IUPAC_SYSTEMATIC_NAME>
butyl (2S)-2-[[5-[6-[[4-[[(2S)-1-butoxy-1-oxidanylidene-3-phenyl-propan-2-yl]carbamoyl]-1H-imidazol-5-yl]carbonylamino]hexylcarbamoyl]-1H-imidazol-4-yl]carbonylamino]-3-phenyl-propanoate
> <PUBCHEM_IUPAC_TRADITIONAL_NAME>
(2S)-2-[[5-[6-[[4-[[(1S)-1-benzyl-2-butoxy-2-keto-ethyl]carbamoyl]-1H-imidazole-5-carbonyl]amino]hexylcarbamoyl]-1H-imidazole-4-carbonyl]amino]-3-phenyl-propionic acid butyl ester
> <PUBCHEM_IUPAC_INCHI>
InChI=1S/C42H54N8O8/c1-3-5-23-57-41(55)31(25-29-17-11-9-12-18-29)49-39(53)35-33(45-27-47-35)37(51)43-21-15-7-8-16-22-44-38(52)34-36(48-28-46-34)40(54)50-32(42(56)58-24-6-4-2)26-30-19-13-10-14-20-30/h9-14,17-20,27-28,31-32H,3-8,15-16,21-26H2,1-2H3,(H,43,51)(H,44,52)(H,45,47)(H,46,48)(H,49,53)(H,50,54)/t31-,32-/m0/s1
> <PUBCHEM_IUPAC_INCHIKEY>
LWWGWPLLLIEILW-ACHIHNKUSA-N
> <PUBCHEM_XLOGP3_AA>
6.1
> <PUBCHEM_EXACT_MASS>
798.40646071
> <PUBCHEM_MOLECULAR_FORMULA>
C42H54N8O8
> <PUBCHEM_MOLECULAR_WEIGHT>
798.9
> <PUBCHEM_OPENEYE_CAN_SMILES>
CCCCOC(=O)C(CC1=CC=CC=C1)NC(=O)C2=C(NC=N2)C(=O)NCCCCCCNC(=O)C3=C(N=CN3)C(=O)NC(CC4=CC=CC=C4)C(=O)OCCCC
> <PUBCHEM_OPENEYE_ISO_SMILES>
CCCCOC(=O)[C@H](CC1=CC=CC=C1)NC(=O)C2=C(NC=N2)C(=O)NCCCCCCNC(=O)C3=C(N=CN3)C(=O)N[C@@H](CC4=CC=CC=C4)C(=O)OCCCC
> <PUBCHEM_CACTVS_TPSA>
226
> <PUBCHEM_MONOISOTOPIC_WEIGHT>
798.40646071
> <PUBCHEM_TOTAL_CHARGE>
0
> <PUBCHEM_HEAVY_ATOM_COUNT>
58
> <PUBCHEM_ATOM_DEF_STEREO_COUNT>
2
> <PUBCHEM_ATOM_UDEF_STEREO_COUNT>
0
> <PUBCHEM_BOND_DEF_STEREO_COUNT>
0
> <PUBCHEM_BOND_UDEF_STEREO_COUNT>
0
> <PUBCHEM_ISOTOPIC_ATOM_COUNT>
0
> <PUBCHEM_COMPONENT_COUNT>
1
> <PUBCHEM_CACTVS_TAUTO_COUNT>
-1
> <PUBCHEM_COORDINATE_TYPE>
1
5
255
> <PUBCHEM_BONDANNOTATIONS>
23  11  6
24  12  6
13  29  8
13  47  8
14  30  8
14  48  8
15  33  8
15  47  8
16  34  8
16  48  8
29  33  8
30  34  8
31  43  8
31  45  8
32  44  8
32  46  8
43  51  8
44  52  8
45  53  8
46  54  8
51  55  8
52  56  8
53  55  8
54  56  8
$$$$
