510589
  -OEChem-10302200282D
 36 38  0     1  0  0  0  0  0999 V2000
    4.6783   -2.8723    0.0000 S   0  0  0  0  0  0  0  0  0  0  0  0
    5.4883   -3.4587    0.0000 O   0  0  0  0  0  0  0  0  0  0  0  0
    4.3709   -3.8239    0.0000 O   0  0  0  0  0  0  0  0  0  0  0  0
    7.2101    3.6960    0.0000 O   0  0  0  0  0  0  0  0  0  0  0  0
    7.5673    2.0012    0.0000 O   0  0  0  0  0  0  0  0  0  0  0  0
    5.2619   -2.0675    0.0000 N   0  0  3  0  0  0  0  0  0  0  0  0
    5.9209    2.5393    0.0000 N   0  0  0  0  0  0  0  0  0  0  0  0
    4.6783   -1.2628    0.0000 C   0  0  3  0  0  0  0  0  0  0  0  0
    3.7320   -1.5675    0.0000 C   0  0  0  0  0  0  0  0  0  0  0  0
    3.7320   -2.5675    0.0000 C   0  0  0  0  0  0  0  0  0  0  0  0
    4.9889   -0.3123    0.0000 C   0  0  0  0  0  0  0  0  0  0  0  0
    6.2619   -2.0675    0.0000 C   0  0  0  0  0  0  0  0  0  0  0  0
    2.8660   -1.0675    0.0000 C   0  0  0  0  0  0  0  0  0  0  0  0
    2.8660   -3.0675    0.0000 C   0  0  0  0  0  0  0  0  0  0  0  0
    4.3211    0.4320    0.0000 C   0  0  0  0  0  0  0  0  0  0  0  0
    5.9674   -0.1061    0.0000 C   0  0  0  0  0  0  0  0  0  0  0  0
    2.0000   -1.5675    0.0000 C   0  0  0  0  0  0  0  0  0  0  0  0
    2.0000   -2.5675    0.0000 C   0  0  0  0  0  0  0  0  0  0  0  0
    4.6318    1.3825    0.0000 C   0  0  0  0  0  0  0  0  0  0  0  0
    6.2781    0.8444    0.0000 C   0  0  0  0  0  0  0  0  0  0  0  0
    5.6103    1.5888    0.0000 C   0  0  0  0  0  0  0  0  0  0  0  0
    6.8994    2.7455    0.0000 C   0  0  0  0  0  0  0  0  0  0  0  0
    5.2908   -1.1666    0.0000 H   0  0  0  0  0  0  0  0  0  0  0  0
    6.2619   -2.6875    0.0000 H   0  0  0  0  0  0  0  0  0  0  0  0
    6.8819   -2.0675    0.0000 H   0  0  0  0  0  0  0  0  0  0  0  0
    6.2619   -1.4475    0.0000 H   0  0  0  0  0  0  0  0  0  0  0  0
    2.8660   -0.4475    0.0000 H   0  0  0  0  0  0  0  0  0  0  0  0
    2.8660   -3.6875    0.0000 H   0  0  0  0  0  0  0  0  0  0  0  0
    3.7144    0.3042    0.0000 H   0  0  0  0  0  0  0  0  0  0  0  0
    6.3815   -0.5675    0.0000 H   0  0  0  0  0  0  0  0  0  0  0  0
    1.4631   -1.2575    0.0000 H   0  0  0  0  0  0  0  0  0  0  0  0
    1.4631   -2.8775    0.0000 H   0  0  0  0  0  0  0  0  0  0  0  0
    4.2177    1.8440    0.0000 H   0  0  0  0  0  0  0  0  0  0  0  0
    6.8848    0.9723    0.0000 H   0  0  0  0  0  0  0  0  0  0  0  0
    5.5069    3.0007    0.0000 H   0  0  0  0  0  0  0  0  0  0  0  0
    7.8168    3.8239    0.0000 H   0  0  0  0  0  0  0  0  0  0  0  0
  1  2  2  0  0  0  0
  1  3  2  0  0  0  0
  1  6  1  0  0  0  0
  1 10  1  0  0  0  0
  4 22  1  0  0  0  0
  4 36  1  0  0  0  0
  5 22  2  0  0  0  0
  6  8  1  0  0  0  0
  6 12  1  0  0  0  0
  7 21  1  0  0  0  0
  7 22  1  0  0  0  0
  7 35  1  0  0  0  0
  8  9  1  0  0  0  0
  8 11  1  0  0  0  0
  8 23  1  0  0  0  0
  9 10  1  0  0  0  0
  9 13  2  0  0  0  0
 10 14  2  0  0  0  0
 11 15  2  0  0  0  0
 11 16  1  0  0  0  0
 12 24  1  0  0  0  0
 12 25  1  0  0  0  0
 12 26  1  0  0  0  0
 13 17  1  0  0  0  0
 13 27  1  0  0  0  0
 14 18  1  0  0  0  0
 14 28  1  0  0  0  0
 15 19  1  0  0  0  0
 15 29  1  0  0  0  0
 16 20  2  0  0  0  0
 16 30  1  0  0  0  0
 17 18  2  0  0  0  0
 17 31  1  0  0  0  0
 18 32  1  0  0  0  0
 19 21  2  0  0  0  0
 19 33  1  0  0  0  0
 20 21  1  0  0  0  0
 20 34  1  0  0  0  0
M  END
> <PUBCHEM_COMPOUND_CID>
510589
> <PUBCHEM_COMPOUND_CANONICALIZED>
1
> <PUBCHEM_CACTVS_COMPLEXITY>
522
> <PUBCHEM_CACTVS_HBOND_ACCEPTOR>
5
> <PUBCHEM_CACTVS_HBOND_DONOR>
2
> <PUBCHEM_CACTVS_ROTATABLE_BOND>
2
> <PUBCHEM_CACTVS_SUBSKEYS>
AAADccBzOABAAAAAAAAAAAAAAAAAAWAAAAAwYAAAAAAAAFgBQAAAHgQQSAAADCjBWAQyyYLAAgKIAiRCWHDCABAhAgAIiBgIZIkIICLAkZGEIAhglABIyAcQgMAOCAAAAAAEAAAQAAAAAAgAAAAAAAAAAA==
> <PUBCHEM_IUPAC_OPENEYE_NAME>
[4-(2-methyl-1,1-dioxo-3H-1,2-benzothiazol-3-yl)phenyl]carbamic acid
> <PUBCHEM_IUPAC_CAS_NAME>
[4-(2-methyl-1,1-dioxo-3H-1,2-benzothiazol-3-yl)phenyl]carbamic acid
> <PUBCHEM_IUPAC_NAME_MARKUP>
[4-(2-methyl-1,1-dioxo-3<I>H</I>-1,2-benzothiazol-3-yl)phenyl]carbamic acid
> <PUBCHEM_IUPAC_NAME>
[4-(2-methyl-1,1-dioxo-3H-1,2-benzothiazol-3-yl)phenyl]carbamic acid
> <PUBCHEM_IUPAC_SYSTEMATIC_NAME>
[4-[2-methyl-1,1-bis(oxidanylidene)-3H-1,2-benzothiazol-3-yl]phenyl]carbamic acid
> <PUBCHEM_IUPAC_TRADITIONAL_NAME>
[4-(1,1-diketo-2-methyl-3H-1,2-benzothiazol-3-yl)phenyl]carbamic acid
> <PUBCHEM_IUPAC_INCHI>
InChI=1S/C15H14N2O4S/c1-17-14(10-6-8-11(9-7-10)16-15(18)19)12-4-2-3-5-13(12)22(17,20)21/h2-9,14,16H,1H3,(H,18,19)
> <PUBCHEM_IUPAC_INCHIKEY>
PLIFNYYYEFPZHW-UHFFFAOYSA-N
> <PUBCHEM_XLOGP3_AA>
1.6
> <PUBCHEM_EXACT_MASS>
318.06742811
> <PUBCHEM_MOLECULAR_FORMULA>
C15H14N2O4S
> <PUBCHEM_MOLECULAR_WEIGHT>
318.3
> <PUBCHEM_OPENEYE_CAN_SMILES>
CN1C(C2=CC=CC=C2S1(=O)=O)C3=CC=C(C=C3)NC(=O)O
> <PUBCHEM_OPENEYE_ISO_SMILES>
CN1C(C2=CC=CC=C2S1(=O)=O)C3=CC=C(C=C3)NC(=O)O
> <PUBCHEM_CACTVS_TPSA>
95.1
> <PUBCHEM_MONOISOTOPIC_WEIGHT>
318.06742811
> <PUBCHEM_TOTAL_CHARGE>
0
> <PUBCHEM_HEAVY_ATOM_COUNT>
22
> <PUBCHEM_ATOM_DEF_STEREO_COUNT>
0
> <PUBCHEM_ATOM_UDEF_STEREO_COUNT>
1
> <PUBCHEM_BOND_DEF_STEREO_COUNT>
0
> <PUBCHEM_BOND_UDEF_STEREO_COUNT>
0
> <PUBCHEM_ISOTOPIC_ATOM_COUNT>
0
> <PUBCHEM_COMPONENT_COUNT>
1
> <PUBCHEM_CACTVS_TAUTO_COUNT>
-1
> <PUBCHEM_COORDINATE_TYPE>
1
5
255
> <PUBCHEM_BONDANNOTATIONS>
10  14  8
11  15  8
11  16  8
13  17  8
14  18  8
15  19  8
16  20  8
17  18  8
19  21  8
20  21  8
8  11  3
9  10  8
9  13  8
$$$$
