510596
  -OEChem-10302200282D
 31 33  0     1  0  0  0  0  0999 V2000
    3.3426    1.3434    0.0000 Cl  0  0  0  0  0  0  0  0  0  0  0  0
    6.6353    0.2672    0.0000 Cl  0  0  0  0  0  0  0  0  0  0  0  0
    4.6783   -1.7547    0.0000 S   0  0  0  0  0  0  0  0  0  0  0  0
    5.4883   -2.3411    0.0000 O   0  0  0  0  0  0  0  0  0  0  0  0
    4.3709   -2.7063    0.0000 O   0  0  0  0  0  0  0  0  0  0  0  0
    5.2619   -0.9500    0.0000 N   0  0  3  0  0  0  0  0  0  0  0  0
    4.6783   -0.1453    0.0000 C   0  0  3  0  0  0  0  0  0  0  0  0
    3.7320   -0.4500    0.0000 C   0  0  0  0  0  0  0  0  0  0  0  0
    3.7320   -1.4500    0.0000 C   0  0  0  0  0  0  0  0  0  0  0  0
    4.9889    0.8053    0.0000 C   0  0  0  0  0  0  0  0  0  0  0  0
    6.2619   -0.9500    0.0000 C   0  0  0  0  0  0  0  0  0  0  0  0
    2.8660    0.0500    0.0000 C   0  0  0  0  0  0  0  0  0  0  0  0
    2.8660   -1.9500    0.0000 C   0  0  0  0  0  0  0  0  0  0  0  0
    4.3211    1.5496    0.0000 C   0  0  0  0  0  0  0  0  0  0  0  0
    5.9674    1.0115    0.0000 C   0  0  0  0  0  0  0  0  0  0  0  0
    2.0000   -0.4500    0.0000 C   0  0  0  0  0  0  0  0  0  0  0  0
    2.0000   -1.4500    0.0000 C   0  0  0  0  0  0  0  0  0  0  0  0
    4.6318    2.5001    0.0000 C   0  0  0  0  0  0  0  0  0  0  0  0
    6.2781    1.9620    0.0000 C   0  0  0  0  0  0  0  0  0  0  0  0
    5.6103    2.7063    0.0000 C   0  0  0  0  0  0  0  0  0  0  0  0
    5.2908   -0.0491    0.0000 H   0  0  0  0  0  0  0  0  0  0  0  0
    6.2619   -1.5700    0.0000 H   0  0  0  0  0  0  0  0  0  0  0  0
    6.8819   -0.9500    0.0000 H   0  0  0  0  0  0  0  0  0  0  0  0
    6.2619   -0.3300    0.0000 H   0  0  0  0  0  0  0  0  0  0  0  0
    2.8660    0.6700    0.0000 H   0  0  0  0  0  0  0  0  0  0  0  0
    2.8660   -2.5700    0.0000 H   0  0  0  0  0  0  0  0  0  0  0  0
    1.4631   -0.1400    0.0000 H   0  0  0  0  0  0  0  0  0  0  0  0
    1.4631   -1.7600    0.0000 H   0  0  0  0  0  0  0  0  0  0  0  0
    4.2177    2.9616    0.0000 H   0  0  0  0  0  0  0  0  0  0  0  0
    6.8848    2.0899    0.0000 H   0  0  0  0  0  0  0  0  0  0  0  0
    5.8029    3.2956    0.0000 H   0  0  0  0  0  0  0  0  0  0  0  0
  1 14  1  0  0  0  0
  2 15  1  0  0  0  0
  3  4  2  0  0  0  0
  3  5  2  0  0  0  0
  3  6  1  0  0  0  0
  3  9  1  0  0  0  0
  6  7  1  0  0  0  0
  6 11  1  0  0  0  0
  7  8  1  0  0  0  0
  7 10  1  0  0  0  0
  7 21  1  0  0  0  0
  8  9  1  0  0  0  0
  8 12  2  0  0  0  0
  9 13  2  0  0  0  0
 10 14  2  0  0  0  0
 10 15  1  0  0  0  0
 11 22  1  0  0  0  0
 11 23  1  0  0  0  0
 11 24  1  0  0  0  0
 12 16  1  0  0  0  0
 12 25  1  0  0  0  0
 13 17  1  0  0  0  0
 13 26  1  0  0  0  0
 14 18  1  0  0  0  0
 15 19  2  0  0  0  0
 16 17  2  0  0  0  0
 16 27  1  0  0  0  0
 17 28  1  0  0  0  0
 18 20  2  0  0  0  0
 18 29  1  0  0  0  0
 19 20  1  0  0  0  0
 19 30  1  0  0  0  0
 20 31  1  0  0  0  0
M  END
> <PUBCHEM_COMPOUND_CID>
510596
> <PUBCHEM_COMPOUND_CANONICALIZED>
1
> <PUBCHEM_CACTVS_COMPLEXITY>
454
> <PUBCHEM_CACTVS_HBOND_ACCEPTOR>
3
> <PUBCHEM_CACTVS_HBOND_DONOR>
0
> <PUBCHEM_CACTVS_ROTATABLE_BOND>
1
> <PUBCHEM_CACTVS_SUBSKEYS>
AAADccByMABGAAAAAAAAAAAAAAAAAWAAAAAwYAAAAAAAAFgBQAAAHAYAQAAADCrBWCQyAYIAAAKAAiBCAHDCABAgBQAIiBgIBogIICKBkxGEIAhggAAIiAcQgMAOAAAAAACFAAAAAAAAAQoAAAAAAAAAAA==
> <PUBCHEM_IUPAC_OPENEYE_NAME>
3-(2,6-dichlorophenyl)-2-methyl-3H-1,2-benzothiazole 1,1-dioxide
> <PUBCHEM_IUPAC_CAS_NAME>
3-(2,6-dichlorophenyl)-2-methyl-3H-1,2-benzothiazole 1,1-dioxide
> <PUBCHEM_IUPAC_NAME_MARKUP>
3-(2,6-dichlorophenyl)-2-methyl-3<I>H</I>-1,2-benzothiazole 1,1-dioxide
> <PUBCHEM_IUPAC_NAME>
3-(2,6-dichlorophenyl)-2-methyl-3H-1,2-benzothiazole 1,1-dioxide
> <PUBCHEM_IUPAC_SYSTEMATIC_NAME>
3-[2,6-bis(chloranyl)phenyl]-2-methyl-3H-1,2-benzothiazole 1,1-dioxide
> <PUBCHEM_IUPAC_TRADITIONAL_NAME>
3-(2,6-dichlorophenyl)-2-methyl-3H-1,2-benzothiazole 1,1-dioxide
> <PUBCHEM_IUPAC_INCHI>
InChI=1S/C14H11Cl2NO2S/c1-17-14(13-10(15)6-4-7-11(13)16)9-5-2-3-8-12(9)20(17,18)19/h2-8,14H,1H3
> <PUBCHEM_IUPAC_INCHIKEY>
GAEOGWQACKNMRY-UHFFFAOYSA-N
> <PUBCHEM_XLOGP3_AA>
3.6
> <PUBCHEM_EXACT_MASS>
326.9887552
> <PUBCHEM_MOLECULAR_FORMULA>
C14H11Cl2NO2S
> <PUBCHEM_MOLECULAR_WEIGHT>
328.2
> <PUBCHEM_OPENEYE_CAN_SMILES>
CN1C(C2=CC=CC=C2S1(=O)=O)C3=C(C=CC=C3Cl)Cl
> <PUBCHEM_OPENEYE_ISO_SMILES>
CN1C(C2=CC=CC=C2S1(=O)=O)C3=C(C=CC=C3Cl)Cl
> <PUBCHEM_CACTVS_TPSA>
45.8
> <PUBCHEM_MONOISOTOPIC_WEIGHT>
326.9887552
> <PUBCHEM_TOTAL_CHARGE>
0
> <PUBCHEM_HEAVY_ATOM_COUNT>
20
> <PUBCHEM_ATOM_DEF_STEREO_COUNT>
0
> <PUBCHEM_ATOM_UDEF_STEREO_COUNT>
1
> <PUBCHEM_BOND_DEF_STEREO_COUNT>
0
> <PUBCHEM_BOND_UDEF_STEREO_COUNT>
0
> <PUBCHEM_ISOTOPIC_ATOM_COUNT>
0
> <PUBCHEM_COMPONENT_COUNT>
1
> <PUBCHEM_CACTVS_TAUTO_COUNT>
-1
> <PUBCHEM_COORDINATE_TYPE>
1
5
255
> <PUBCHEM_BONDANNOTATIONS>
10  14  8
10  15  8
12  16  8
13  17  8
14  18  8
15  19  8
16  17  8
18  20  8
19  20  8
7  10  3
8  12  8
8  9  8
9  13  8
$$$$
