510555
  -OEChem-10302200282D
 90 92  0     1  0  0  0  0  0999 V2000
   16.6122    0.2292    0.0000 O   0  0  0  0  0  0  0  0  0  0  0  0
    3.6942   -4.3106    0.0000 O   0  0  0  0  0  0  0  0  0  0  0  0
   17.1474    1.8764    0.0000 O   0  0  0  0  0  0  0  0  0  0  0  0
    4.8532   -5.5978    0.0000 O   0  0  0  0  0  0  0  0  0  0  0  0
   13.5511    2.1344    0.0000 O   0  0  0  0  0  0  0  0  0  0  0  0
    6.8747   -2.6122    0.0000 O   0  0  0  0  0  0  0  0  0  0  0  0
   11.4408    4.1884    0.0000 O   0  0  0  0  0  0  0  0  0  0  0  0
    7.9766   -1.8116    0.0000 O   0  0  0  0  0  0  0  0  0  0  0  0
   15.2453    2.4945    0.0000 N   0  0  0  0  0  0  0  0  0  0  0  0
    6.3395   -4.2595    0.0000 N   0  0  0  0  0  0  0  0  0  0  0  0
   13.2773    5.1829    0.0000 N   0  0  0  0  0  0  0  0  0  0  0  0
    9.6517   -3.8994    0.0000 N   0  0  0  0  0  0  0  0  0  0  0  0
   12.3068    2.6884    0.0000 N   0  0  0  0  0  0  0  0  0  0  0  0
    9.7087   -1.8116    0.0000 N   0  0  0  0  0  0  0  0  0  0  0  0
   14.7555    4.5248    0.0000 N   0  0  0  0  0  0  0  0  0  0  0  0
    8.3427   -4.8505    0.0000 N   0  0  0  0  0  0  0  0  0  0  0  0
   14.7101    0.8472    0.0000 C   0  0  0  0  0  0  0  0  0  0  0  0
    5.1805   -2.9724    0.0000 C   0  0  0  0  0  0  0  0  0  0  0  0
   15.4532    1.5163    0.0000 C   0  0  1  0  0  0  0  0  0  0  0  0
    5.3884   -3.9505    0.0000 C   0  0  1  0  0  0  0  0  0  0  0  0
   14.9180   -0.1309    0.0000 C   0  0  0  0  0  0  0  0  0  0  0  0
   13.7590    1.1562    0.0000 C   0  0  0  0  0  0  0  0  0  0  0  0
    4.2294   -2.6633    0.0000 C   0  0  0  0  0  0  0  0  0  0  0  0
    5.9236   -2.3032    0.0000 C   0  0  0  0  0  0  0  0  0  0  0  0
   16.4043    1.2073    0.0000 C   0  0  0  0  0  0  0  0  0  0  0  0
    4.6453   -4.6196    0.0000 C   0  0  0  0  0  0  0  0  0  0  0  0
   14.2943    2.8035    0.0000 C   0  0  0  0  0  0  0  0  0  0  0  0
    7.0826   -3.5904    0.0000 C   0  0  0  0  0  0  0  0  0  0  0  0
   14.0864    3.7816    0.0000 C   0  0  0  0  0  0  0  0  0  0  0  0
    8.0337   -3.8994    0.0000 C   0  0  0  0  0  0  0  0  0  0  0  0
   13.1728    4.1884    0.0000 C   0  0  0  0  0  0  0  0  0  0  0  0
    8.8427   -3.3116    0.0000 C   0  0  0  0  0  0  0  0  0  0  0  0
   11.4408    1.1884    0.0000 C   0  0  0  0  0  0  0  0  0  0  0  0
   10.5747   -0.3116    0.0000 C   0  0  0  0  0  0  0  0  0  0  0  0
   11.4408    2.1884    0.0000 C   0  0  0  0  0  0  0  0  0  0  0  0
    9.7087   -0.8116    0.0000 C   0  0  0  0  0  0  0  0  0  0  0  0
   17.5633   -0.0798    0.0000 C   0  0  0  0  0  0  0  0  0  0  0  0
    2.9511   -4.9797    0.0000 C   0  0  0  0  0  0  0  0  0  0  0  0
   12.3068    3.6884    0.0000 C   0  0  0  0  0  0  0  0  0  0  0  0
    8.8427   -2.3116    0.0000 C   0  0  0  0  0  0  0  0  0  0  0  0
   10.5747    0.6884    0.0000 C   0  0  0  0  0  0  0  0  0  0  0  0
   12.3068    0.6884    0.0000 C   0  0  0  0  0  0  0  0  0  0  0  0
   11.4408   -0.8116    0.0000 C   0  0  0  0  0  0  0  0  0  0  0  0
   14.2555    5.3908    0.0000 C   0  0  0  0  0  0  0  0  0  0  0  0
    9.3427   -4.8505    0.0000 C   0  0  0  0  0  0  0  0  0  0  0  0
   12.3068   -0.3116    0.0000 C   0  0  0  0  0  0  0  0  0  0  0  0
   17.7712   -1.0580    0.0000 C   0  0  0  0  0  0  0  0  0  0  0  0
    2.0000   -4.6707    0.0000 C   0  0  0  0  0  0  0  0  0  0  0  0
   15.2997    0.6556    0.0000 H   0  0  0  0  0  0  0  0  0  0  0  0
    5.0516   -2.3659    0.0000 H   0  0  0  0  0  0  0  0  0  0  0  0
   14.8636    1.7079    0.0000 H   0  0  0  0  0  0  0  0  0  0  0  0
    5.5173   -4.5569    0.0000 H   0  0  0  0  0  0  0  0  0  0  0  0
   14.3115   -0.2598    0.0000 H   0  0  0  0  0  0  0  0  0  0  0  0
   15.0469   -0.7374    0.0000 H   0  0  0  0  0  0  0  0  0  0  0  0
   15.5244   -0.0020    0.0000 H   0  0  0  0  0  0  0  0  0  0  0  0
   13.9506    1.7459    0.0000 H   0  0  0  0  0  0  0  0  0  0  0  0
   13.1694    1.3478    0.0000 H   0  0  0  0  0  0  0  0  0  0  0  0
   13.5674    0.5666    0.0000 H   0  0  0  0  0  0  0  0  0  0  0  0
    4.4210   -2.0737    0.0000 H   0  0  0  0  0  0  0  0  0  0  0  0
    3.6398   -2.4717    0.0000 H   0  0  0  0  0  0  0  0  0  0  0  0
    4.0378   -3.2530    0.0000 H   0  0  0  0  0  0  0  0  0  0  0  0
    6.3385   -2.7640    0.0000 H   0  0  0  0  0  0  0  0  0  0  0  0
    6.3844   -1.8884    0.0000 H   0  0  0  0  0  0  0  0  0  0  0  0
    5.5088   -1.8425    0.0000 H   0  0  0  0  0  0  0  0  0  0  0  0
   15.7061    2.9094    0.0000 H   0  0  0  0  0  0  0  0  0  0  0  0
    6.4684   -4.8660    0.0000 H   0  0  0  0  0  0  0  0  0  0  0  0
   11.2287    2.7710    0.0000 H   0  0  0  0  0  0  0  0  0  0  0  0
   10.8302    2.0807    0.0000 H   0  0  0  0  0  0  0  0  0  0  0  0
    9.4966   -0.2290    0.0000 H   0  0  0  0  0  0  0  0  0  0  0  0
    9.0981   -0.9193    0.0000 H   0  0  0  0  0  0  0  0  0  0  0  0
   18.1829   -0.0582    0.0000 H   0  0  0  0  0  0  0  0  0  0  0  0
   17.6495    0.5341    0.0000 H   0  0  0  0  0  0  0  0  0  0  0  0
    2.6600   -5.5272    0.0000 H   0  0  0  0  0  0  0  0  0  0  0  0
    3.4396   -5.3614    0.0000 H   0  0  0  0  0  0  0  0  0  0  0  0
   10.0378    0.9984    0.0000 H   0  0  0  0  0  0  0  0  0  0  0  0
   12.8166    5.5978    0.0000 H   0  0  0  0  0  0  0  0  0  0  0  0
   10.2413   -3.7078    0.0000 H   0  0  0  0  0  0  0  0  0  0  0  0
   12.8437    2.3784    0.0000 H   0  0  0  0  0  0  0  0  0  0  0  0
   10.2456   -2.1216    0.0000 H   0  0  0  0  0  0  0  0  0  0  0  0
   12.8437    0.9984    0.0000 H   0  0  0  0  0  0  0  0  0  0  0  0
   11.4408   -1.4316    0.0000 H   0  0  0  0  0  0  0  0  0  0  0  0
   14.5077    5.9572    0.0000 H   0  0  0  0  0  0  0  0  0  0  0  0
    9.7071   -5.3520    0.0000 H   0  0  0  0  0  0  0  0  0  0  0  0
   12.8437   -0.6216    0.0000 H   0  0  0  0  0  0  0  0  0  0  0  0
   17.1647   -1.1869    0.0000 H   0  0  0  0  0  0  0  0  0  0  0  0
   17.9001   -1.6644    0.0000 H   0  0  0  0  0  0  0  0  0  0  0  0
   18.3776   -0.9291    0.0000 H   0  0  0  0  0  0  0  0  0  0  0  0
    2.1916   -4.0811    0.0000 H   0  0  0  0  0  0  0  0  0  0  0  0
    1.4103   -4.4791    0.0000 H   0  0  0  0  0  0  0  0  0  0  0  0
    1.8084   -5.2604    0.0000 H   0  0  0  0  0  0  0  0  0  0  0  0
  1 25  1  0  0  0  0
  1 37  1  0  0  0  0
  2 26  1  0  0  0  0
  2 38  1  0  0  0  0
  3 25  2  0  0  0  0
  4 26  2  0  0  0  0
  5 27  2  0  0  0  0
  6 28  2  0  0  0  0
  7 39  2  0  0  0  0
  8 40  2  0  0  0  0
 19  9  1  6  0  0  0
  9 27  1  0  0  0  0
  9 65  1  0  0  0  0
 20 10  1  6  0  0  0
 10 28  1  0  0  0  0
 10 66  1  0  0  0  0
 11 31  1  0  0  0  0
 11 44  1  0  0  0  0
 11 76  1  0  0  0  0
 12 32  1  0  0  0  0
 12 45  1  0  0  0  0
 12 77  1  0  0  0  0
 13 35  1  0  0  0  0
 13 39  1  0  0  0  0
 13 78  1  0  0  0  0
 14 36  1  0  0  0  0
 14 40  1  0  0  0  0
 14 79  1  0  0  0  0
 15 29  1  0  0  0  0
 15 44  2  0  0  0  0
 16 30  1  0  0  0  0
 16 45  2  0  0  0  0
 17 19  1  0  0  0  0
 17 21  1  0  0  0  0
 17 22  1  0  0  0  0
 17 49  1  0  0  0  0
 18 20  1  0  0  0  0
 18 23  1  0  0  0  0
 18 24  1  0  0  0  0
 18 50  1  0  0  0  0
 19 25  1  0  0  0  0
 19 51  1  0  0  0  0
 20 26  1  0  0  0  0
 20 52  1  0  0  0  0
 21 53  1  0  0  0  0
 21 54  1  0  0  0  0
 21 55  1  0  0  0  0
 22 56  1  0  0  0  0
 22 57  1  0  0  0  0
 22 58  1  0  0  0  0
 23 59  1  0  0  0  0
 23 60  1  0  0  0  0
 23 61  1  0  0  0  0
 24 62  1  0  0  0  0
 24 63  1  0  0  0  0
 24 64  1  0  0  0  0
 27 29  1  0  0  0  0
 28 30  1  0  0  0  0
 29 31  2  0  0  0  0
 30 32  2  0  0  0  0
 31 39  1  0  0  0  0
 32 40  1  0  0  0  0
 33 35  1  0  0  0  0
 33 41  2  0  0  0  0
 33 42  1  0  0  0  0
 34 36  1  0  0  0  0
 34 41  1  0  0  0  0
 34 43  2  0  0  0  0
 35 67  1  0  0  0  0
 35 68  1  0  0  0  0
 36 69  1  0  0  0  0
 36 70  1  0  0  0  0
 37 47  1  0  0  0  0
 37 71  1  0  0  0  0
 37 72  1  0  0  0  0
 38 48  1  0  0  0  0
 38 73  1  0  0  0  0
 38 74  1  0  0  0  0
 41 75  1  0  0  0  0
 42 46  2  0  0  0  0
 42 80  1  0  0  0  0
 43 46  1  0  0  0  0
 43 81  1  0  0  0  0
 44 82  1  0  0  0  0
 45 83  1  0  0  0  0
 46 84  1  0  0  0  0
 47 85  1  0  0  0  0
 47 86  1  0  0  0  0
 47 87  1  0  0  0  0
 48 88  1  0  0  0  0
 48 89  1  0  0  0  0
 48 90  1  0  0  0  0
M  END
> <PUBCHEM_COMPOUND_CID>
510555
> <PUBCHEM_COMPOUND_CANONICALIZED>
1
> <PUBCHEM_CACTVS_COMPLEXITY>
1050
> <PUBCHEM_CACTVS_HBOND_ACCEPTOR>
10
> <PUBCHEM_CACTVS_HBOND_DONOR>
6
> <PUBCHEM_CACTVS_ROTATABLE_BOND>
18
> <PUBCHEM_CACTVS_SUBSKEYS>
AAADcfB//AAAAAAAAAAAAAAAAAAAAWLAAAAwAAAAAAAAAAAB8AAAHgAQAAAADSjhngY3mJbJlACoAyXzfACCgC23EKAJ2YGoVMiKaDrA2TGXIYhslgLYiWcVgEAOAAACAAAAAAAAAAQAAAAAAAAAAAAAAA==
> <PUBCHEM_IUPAC_OPENEYE_NAME>
ethyl (2S)-2-[[5-[[3-[[[4-[[(1S)-1-ethoxycarbonyl-2-methyl-propyl]carbamoyl]-1H-imidazole-5-carbonyl]amino]methyl]phenyl]methylcarbamoyl]-1H-imidazole-4-carbonyl]amino]-3-methyl-butanoate
> <PUBCHEM_IUPAC_CAS_NAME>
(2S)-2-[[[5-[[[3-[[[[4-[[[(2S)-1-ethoxy-3-methyl-1-oxobutan-2-yl]amino]-oxomethyl]-1H-imidazol-5-yl]-oxomethyl]amino]methyl]phenyl]methylamino]-oxomethyl]-1H-imidazol-4-yl]-oxomethyl]amino]-3-methylbutanoic acid ethyl ester
> <PUBCHEM_IUPAC_NAME_MARKUP>
ethyl (2<I>S</I>)-2-[[5-[[3-[[[4-[[(2<I>S</I>)-1-ethoxy-3-methyl-1-oxobutan-2-yl]carbamoyl]-1<I>H</I>-imidazole-5-carbonyl]amino]methyl]phenyl]methylcarbamoyl]-1<I>H</I>-imidazole-4-carbonyl]amino]-3-methylbutanoate
> <PUBCHEM_IUPAC_NAME>
ethyl (2S)-2-[[5-[[3-[[[4-[[(2S)-1-ethoxy-3-methyl-1-oxobutan-2-yl]carbamoyl]-1H-imidazole-5-carbonyl]amino]methyl]phenyl]methylcarbamoyl]-1H-imidazole-4-carbonyl]amino]-3-methylbutanoate
> <PUBCHEM_IUPAC_SYSTEMATIC_NAME>
ethyl (2S)-2-[[5-[[3-[[[4-[[(2S)-1-ethoxy-3-methyl-1-oxidanylidene-butan-2-yl]carbamoyl]-1H-imidazol-5-yl]carbonylamino]methyl]phenyl]methylcarbamoyl]-1H-imidazol-4-yl]carbonylamino]-3-methyl-butanoate
> <PUBCHEM_IUPAC_TRADITIONAL_NAME>
(2S)-2-[[5-[[3-[[[4-[[(1S)-1-carbethoxy-2-methyl-propyl]carbamoyl]-1H-imidazole-5-carbonyl]amino]methyl]benzyl]carbamoyl]-1H-imidazole-4-carbonyl]amino]-3-methyl-butyric acid ethyl ester
> <PUBCHEM_IUPAC_INCHI>
InChI=1S/C32H42N8O8/c1-7-47-31(45)21(17(3)4)39-29(43)25-23(35-15-37-25)27(41)33-13-19-10-9-11-20(12-19)14-34-28(42)24-26(38-16-36-24)30(44)40-22(18(5)6)32(46)48-8-2/h9-12,15-18,21-22H,7-8,13-14H2,1-6H3,(H,33,41)(H,34,42)(H,35,37)(H,36,38)(H,39,43)(H,40,44)/t21-,22-/m0/s1
> <PUBCHEM_IUPAC_INCHIKEY>
AVOYSIYUIHYMJP-VXKWHMMOSA-N
> <PUBCHEM_XLOGP3_AA>
2.9
> <PUBCHEM_EXACT_MASS>
666.31256033
> <PUBCHEM_MOLECULAR_FORMULA>
C32H42N8O8
> <PUBCHEM_MOLECULAR_WEIGHT>
666.7
> <PUBCHEM_OPENEYE_CAN_SMILES>
CCOC(=O)C(C(C)C)NC(=O)C1=C(NC=N1)C(=O)NCC2=CC(=CC=C2)CNC(=O)C3=C(N=CN3)C(=O)NC(C(C)C)C(=O)OCC
> <PUBCHEM_OPENEYE_ISO_SMILES>
CCOC(=O)[C@H](C(C)C)NC(=O)C1=C(NC=N1)C(=O)NCC2=CC(=CC=C2)CNC(=O)C3=C(N=CN3)C(=O)N[C@@H](C(C)C)C(=O)OCC
> <PUBCHEM_CACTVS_TPSA>
226
> <PUBCHEM_MONOISOTOPIC_WEIGHT>
666.31256033
> <PUBCHEM_TOTAL_CHARGE>
0
> <PUBCHEM_HEAVY_ATOM_COUNT>
48
> <PUBCHEM_ATOM_DEF_STEREO_COUNT>
2
> <PUBCHEM_ATOM_UDEF_STEREO_COUNT>
0
> <PUBCHEM_BOND_DEF_STEREO_COUNT>
0
> <PUBCHEM_BOND_UDEF_STEREO_COUNT>
0
> <PUBCHEM_ISOTOPIC_ATOM_COUNT>
0
> <PUBCHEM_COMPONENT_COUNT>
1
> <PUBCHEM_CACTVS_TAUTO_COUNT>
-1
> <PUBCHEM_COORDINATE_TYPE>
1
5
255
> <PUBCHEM_BONDANNOTATIONS>
20  10  6
11  31  8
11  44  8
12  32  8
12  45  8
15  29  8
15  44  8
16  30  8
16  45  8
29  31  8
30  32  8
33  41  8
33  42  8
34  41  8
34  43  8
42  46  8
43  46  8
19  9  6
$$$$
