510594
  -OEChem-10302200282D
 37 39  0     1  0  0  0  0  0999 V2000
    4.6783   -2.0238    0.0000 S   0  0  0  0  0  0  0  0  0  0  0  0
    5.4883   -2.6101    0.0000 O   0  0  0  0  0  0  0  0  0  0  0  0
    4.3709   -2.9754    0.0000 O   0  0  0  0  0  0  0  0  0  0  0  0
    5.2619   -1.2190    0.0000 N   0  0  3  0  0  0  0  0  0  0  0  0
    4.6783   -0.4143    0.0000 C   0  0  3  0  0  0  0  0  0  0  0  0
    3.7320   -0.7190    0.0000 C   0  0  0  0  0  0  0  0  0  0  0  0
    3.7320   -1.7190    0.0000 C   0  0  0  0  0  0  0  0  0  0  0  0
    4.9889    0.5362    0.0000 C   0  0  0  0  0  0  0  0  0  0  0  0
    6.2619   -1.2190    0.0000 C   0  0  0  0  0  0  0  0  0  0  0  0
    2.8660   -0.2190    0.0000 C   0  0  0  0  0  0  0  0  0  0  0  0
    5.9674    0.7424    0.0000 C   0  0  0  0  0  0  0  0  0  0  0  0
    2.8660   -2.2190    0.0000 C   0  0  0  0  0  0  0  0  0  0  0  0
    4.3211    1.2805    0.0000 C   0  0  0  0  0  0  0  0  0  0  0  0
    2.0000   -0.7190    0.0000 C   0  0  0  0  0  0  0  0  0  0  0  0
    4.6318    2.2311    0.0000 C   0  0  0  0  0  0  0  0  0  0  0  0
    2.0000   -1.7190    0.0000 C   0  0  0  0  0  0  0  0  0  0  0  0
    6.2781    1.6930    0.0000 C   0  0  0  0  0  0  0  0  0  0  0  0
    6.6353   -0.0019    0.0000 C   0  0  0  0  0  0  0  0  0  0  0  0
    5.6103    2.4373    0.0000 C   0  0  0  0  0  0  0  0  0  0  0  0
    3.9639    2.9754    0.0000 C   0  0  0  0  0  0  0  0  0  0  0  0
    5.2908   -0.3181    0.0000 H   0  0  0  0  0  0  0  0  0  0  0  0
    6.2619   -1.8390    0.0000 H   0  0  0  0  0  0  0  0  0  0  0  0
    6.8819   -1.2190    0.0000 H   0  0  0  0  0  0  0  0  0  0  0  0
    6.2619   -0.5990    0.0000 H   0  0  0  0  0  0  0  0  0  0  0  0
    2.8660    0.4010    0.0000 H   0  0  0  0  0  0  0  0  0  0  0  0
    2.8660   -2.8390    0.0000 H   0  0  0  0  0  0  0  0  0  0  0  0
    3.7144    1.1527    0.0000 H   0  0  0  0  0  0  0  0  0  0  0  0
    1.4631   -0.4090    0.0000 H   0  0  0  0  0  0  0  0  0  0  0  0
    1.4631   -2.0290    0.0000 H   0  0  0  0  0  0  0  0  0  0  0  0
    6.8848    1.8208    0.0000 H   0  0  0  0  0  0  0  0  0  0  0  0
    6.1738   -0.4159    0.0000 H   0  0  0  0  0  0  0  0  0  0  0  0
    7.0494   -0.4633    0.0000 H   0  0  0  0  0  0  0  0  0  0  0  0
    7.0968    0.4122    0.0000 H   0  0  0  0  0  0  0  0  0  0  0  0
    5.8029    3.0266    0.0000 H   0  0  0  0  0  0  0  0  0  0  0  0
    4.4254    3.3894    0.0000 H   0  0  0  0  0  0  0  0  0  0  0  0
    3.5498    3.4368    0.0000 H   0  0  0  0  0  0  0  0  0  0  0  0
    3.5024    2.5613    0.0000 H   0  0  0  0  0  0  0  0  0  0  0  0
  1  2  2  0  0  0  0
  1  3  2  0  0  0  0
  1  4  1  0  0  0  0
  1  7  1  0  0  0  0
  4  5  1  0  0  0  0
  4  9  1  0  0  0  0
  5  6  1  0  0  0  0
  5  8  1  0  0  0  0
  5 21  1  0  0  0  0
  6  7  1  0  0  0  0
  6 10  2  0  0  0  0
  7 12  2  0  0  0  0
  8 11  2  0  0  0  0
  8 13  1  0  0  0  0
  9 22  1  0  0  0  0
  9 23  1  0  0  0  0
  9 24  1  0  0  0  0
 10 14  1  0  0  0  0
 10 25  1  0  0  0  0
 11 17  1  0  0  0  0
 11 18  1  0  0  0  0
 12 16  1  0  0  0  0
 12 26  1  0  0  0  0
 13 15  2  0  0  0  0
 13 27  1  0  0  0  0
 14 16  2  0  0  0  0
 14 28  1  0  0  0  0
 15 19  1  0  0  0  0
 15 20  1  0  0  0  0
 16 29  1  0  0  0  0
 17 19  2  0  0  0  0
 17 30  1  0  0  0  0
 18 31  1  0  0  0  0
 18 32  1  0  0  0  0
 18 33  1  0  0  0  0
 19 34  1  0  0  0  0
 20 35  1  0  0  0  0
 20 36  1  0  0  0  0
 20 37  1  0  0  0  0
M  END
> <PUBCHEM_COMPOUND_CID>
510594
> <PUBCHEM_COMPOUND_CANONICALIZED>
1
> <PUBCHEM_CACTVS_COMPLEXITY>
456
> <PUBCHEM_CACTVS_HBOND_ACCEPTOR>
3
> <PUBCHEM_CACTVS_HBOND_DONOR>
0
> <PUBCHEM_CACTVS_ROTATABLE_BOND>
1
> <PUBCHEM_CACTVS_SUBSKEYS>
AAADceB6MABAAAAAAAAAAAAAAAAAAWAAAAAwYAAAAAAAAFgBQAAAHAQAQAAADCjBWAQyAYIAAAKAAiBCAHDCABAgAAAIiBgIBIgIICKAkRGEIAhggAAIiAcQgMAOwAACAAAUAACAAAQAACgAAAAAAAAAAA==
> <PUBCHEM_IUPAC_OPENEYE_NAME>
3-(2,5-dimethylphenyl)-2-methyl-3H-1,2-benzothiazole 1,1-dioxide
> <PUBCHEM_IUPAC_CAS_NAME>
3-(2,5-dimethylphenyl)-2-methyl-3H-1,2-benzothiazole 1,1-dioxide
> <PUBCHEM_IUPAC_NAME_MARKUP>
3-(2,5-dimethylphenyl)-2-methyl-3<I>H</I>-1,2-benzothiazole 1,1-dioxide
> <PUBCHEM_IUPAC_NAME>
3-(2,5-dimethylphenyl)-2-methyl-3H-1,2-benzothiazole 1,1-dioxide
> <PUBCHEM_IUPAC_SYSTEMATIC_NAME>
3-(2,5-dimethylphenyl)-2-methyl-3H-1,2-benzothiazole 1,1-dioxide
> <PUBCHEM_IUPAC_TRADITIONAL_NAME>
3-(2,5-dimethylphenyl)-2-methyl-3H-1,2-benzothiazole 1,1-dioxide
> <PUBCHEM_IUPAC_INCHI>
InChI=1S/C16H17NO2S/c1-11-8-9-12(2)14(10-11)16-13-6-4-5-7-15(13)20(18,19)17(16)3/h4-10,16H,1-3H3
> <PUBCHEM_IUPAC_INCHIKEY>
SFDQQJWHBWYUDY-UHFFFAOYSA-N
> <PUBCHEM_XLOGP3_AA>
3.1
> <PUBCHEM_EXACT_MASS>
287.09799996
> <PUBCHEM_MOLECULAR_FORMULA>
C16H17NO2S
> <PUBCHEM_MOLECULAR_WEIGHT>
287.4
> <PUBCHEM_OPENEYE_CAN_SMILES>
CC1=CC(=C(C=C1)C)C2C3=CC=CC=C3S(=O)(=O)N2C
> <PUBCHEM_OPENEYE_ISO_SMILES>
CC1=CC(=C(C=C1)C)C2C3=CC=CC=C3S(=O)(=O)N2C
> <PUBCHEM_CACTVS_TPSA>
45.8
> <PUBCHEM_MONOISOTOPIC_WEIGHT>
287.09799996
> <PUBCHEM_TOTAL_CHARGE>
0
> <PUBCHEM_HEAVY_ATOM_COUNT>
20
> <PUBCHEM_ATOM_DEF_STEREO_COUNT>
0
> <PUBCHEM_ATOM_UDEF_STEREO_COUNT>
1
> <PUBCHEM_BOND_DEF_STEREO_COUNT>
0
> <PUBCHEM_BOND_UDEF_STEREO_COUNT>
0
> <PUBCHEM_ISOTOPIC_ATOM_COUNT>
0
> <PUBCHEM_COMPONENT_COUNT>
1
> <PUBCHEM_CACTVS_TAUTO_COUNT>
-1
> <PUBCHEM_COORDINATE_TYPE>
1
5
255
> <PUBCHEM_BONDANNOTATIONS>
10  14  8
11  17  8
12  16  8
13  15  8
14  16  8
15  19  8
17  19  8
5  8  3
6  10  8
6  7  8
7  12  8
8  11  8
8  13  8
$$$$
