510573
  -OEChem-10302200282D
 37 38  0     1  0  0  0  0  0999 V2000
    4.5411   -0.6048    0.0000 O   0  0  0  0  0  0  0  0  0  0  0  0
    2.6443   -2.3649    0.0000 O   0  0  0  0  0  0  0  0  0  0  0  0
    5.4641    0.9829    0.0000 O   0  0  0  0  0  0  0  0  0  0  0  0
    3.7320    3.9830    0.0000 O   0  0  0  0  0  0  0  0  0  0  0  0
    5.9954   -3.9830    0.0000 O   0  0  0  0  0  0  0  0  0  0  0  0
    3.7320    0.9829    0.0000 N   0  0  0  0  0  0  0  0  0  0  0  0
    5.8144   -2.2604    0.0000 N   0  0  0  0  0  0  0  0  0  0  0  0
    4.5981    2.4830    0.0000 N   0  0  0  0  0  0  0  0  0  0  0  0
    4.2320   -1.5559    0.0000 C   0  0  1  0  0  0  0  0  0  0  0  0
    3.2320   -1.5559    0.0000 C   0  0  2  0  0  0  0  0  0  0  0  0
    2.9230   -0.6048    0.0000 C   0  0  0  0  0  0  0  0  0  0  0  0
    3.7320   -0.0171    0.0000 C   0  0  1  0  0  0  0  0  0  0  0  0
    4.8198   -2.3649    0.0000 C   0  0  0  0  0  0  0  0  0  0  0  0
    2.8660    1.4830    0.0000 C   0  0  0  0  0  0  0  0  0  0  0  0
    4.5981    1.4830    0.0000 C   0  0  0  0  0  0  0  0  0  0  0  0
    2.8660    2.4830    0.0000 C   0  0  0  0  0  0  0  0  0  0  0  0
    3.7320    2.9830    0.0000 C   0  0  0  0  0  0  0  0  0  0  0  0
    6.4021   -3.0694    0.0000 C   0  0  0  0  0  0  0  0  0  0  0  0
    2.0000    2.9830    0.0000 C   0  0  0  0  0  0  0  0  0  0  0  0
    7.3967   -2.9649    0.0000 C   0  0  0  0  0  0  0  0  0  0  0  0
    4.8444   -1.4589    0.0000 H   0  0  0  0  0  0  0  0  0  0  0  0
    3.5135   -2.1083    0.0000 H   0  0  0  0  0  0  0  0  0  0  0  0
    2.6130   -0.0679    0.0000 H   0  0  0  0  0  0  0  0  0  0  0  0
    2.3566   -0.8570    0.0000 H   0  0  0  0  0  0  0  0  0  0  0  0
    4.2845    0.2644    0.0000 H   0  0  0  0  0  0  0  0  0  0  0  0
    4.2626   -2.6367    0.0000 H   0  0  0  0  0  0  0  0  0  0  0  0
    4.9907   -2.9609    0.0000 H   0  0  0  0  0  0  0  0  0  0  0  0
    2.0277   -2.3001    0.0000 H   0  0  0  0  0  0  0  0  0  0  0  0
    2.3291    1.1730    0.0000 H   0  0  0  0  0  0  0  0  0  0  0  0
    6.0665   -1.6940    0.0000 H   0  0  0  0  0  0  0  0  0  0  0  0
    5.1350    2.7930    0.0000 H   0  0  0  0  0  0  0  0  0  0  0  0
    2.3100    3.5199    0.0000 H   0  0  0  0  0  0  0  0  0  0  0  0
    1.4631    3.2930    0.0000 H   0  0  0  0  0  0  0  0  0  0  0  0
    1.6900    2.4460    0.0000 H   0  0  0  0  0  0  0  0  0  0  0  0
    7.4615   -3.5815    0.0000 H   0  0  0  0  0  0  0  0  0  0  0  0
    8.0133   -2.9001    0.0000 H   0  0  0  0  0  0  0  0  0  0  0  0
    7.3319   -2.3483    0.0000 H   0  0  0  0  0  0  0  0  0  0  0  0
  1  9  1  0  0  0  0
  1 12  1  0  0  0  0
 10  2  1  1  0  0  0
  2 28  1  0  0  0  0
  3 15  2  0  0  0  0
  4 17  2  0  0  0  0
  5 18  2  0  0  0  0
 12  6  1  6  0  0  0
  6 14  1  0  0  0  0
  6 15  1  0  0  0  0
  7 13  1  0  0  0  0
  7 18  1  0  0  0  0
  7 30  1  0  0  0  0
  8 15  1  0  0  0  0
  8 17  1  0  0  0  0
  8 31  1  0  0  0  0
  9 10  1  0  0  0  0
  9 13  1  6  0  0  0
  9 21  1  0  0  0  0
 10 11  1  0  0  0  0
 10 22  1  0  0  0  0
 11 12  1  0  0  0  0
 11 23  1  0  0  0  0
 11 24  1  0  0  0  0
 12 25  1  0  0  0  0
 13 26  1  0  0  0  0
 13 27  1  0  0  0  0
 14 16  2  0  0  0  0
 14 29  1  0  0  0  0
 16 17  1  0  0  0  0
 16 19  1  0  0  0  0
 18 20  1  0  0  0  0
 19 32  1  0  0  0  0
 19 33  1  0  0  0  0
 19 34  1  0  0  0  0
 20 35  1  0  0  0  0
 20 36  1  0  0  0  0
 20 37  1  0  0  0  0
M  END
> <PUBCHEM_COMPOUND_CID>
510573
> <PUBCHEM_COMPOUND_CANONICALIZED>
1
> <PUBCHEM_CACTVS_COMPLEXITY>
476
> <PUBCHEM_CACTVS_HBOND_ACCEPTOR>
5
> <PUBCHEM_CACTVS_HBOND_DONOR>
3
> <PUBCHEM_CACTVS_ROTATABLE_BOND>
3
> <PUBCHEM_CACTVS_SUBSKEYS>
AAADceBzOAAAAAAAAAAAAAAAAAAAASAAAAAgAAAAAAAAAAAAAAAAHgAQCAAADBThgAYDAAPABgCIAgFWUACAAAAAAAAAAIEIAECDEAIAgQAPQAAPFyKTAMCwEAIAAAAAAAAAAAAAAAAAAAAAAAAAAAAAAA==
> <PUBCHEM_IUPAC_OPENEYE_NAME>
N-[[(2R,3S,5R)-3-hydroxy-5-(5-methyl-2,4-dioxo-pyrimidin-1-yl)tetrahydrofuran-2-yl]methyl]acetamide
> <PUBCHEM_IUPAC_CAS_NAME>
N-[[(2R,3S,5R)-3-hydroxy-5-(5-methyl-2,4-dioxo-1-pyrimidinyl)-2-oxolanyl]methyl]acetamide
> <PUBCHEM_IUPAC_NAME_MARKUP>
<I>N</I>-[[(2<I>R</I>,3<I>S</I>,5<I>R</I>)-3-hydroxy-5-(5-methyl-2,4-dioxopyrimidin-1-yl)oxolan-2-yl]methyl]acetamide
> <PUBCHEM_IUPAC_NAME>
N-[[(2R,3S,5R)-3-hydroxy-5-(5-methyl-2,4-dioxopyrimidin-1-yl)oxolan-2-yl]methyl]acetamide
> <PUBCHEM_IUPAC_SYSTEMATIC_NAME>
N-[[(2R,3S,5R)-5-[5-methyl-2,4-bis(oxidanylidene)pyrimidin-1-yl]-3-oxidanyl-oxolan-2-yl]methyl]ethanamide
> <PUBCHEM_IUPAC_TRADITIONAL_NAME>
N-[[(2R,3S,5R)-5-(2,4-diketo-5-methyl-pyrimidin-1-yl)-3-hydroxy-tetrahydrofuran-2-yl]methyl]acetamide
> <PUBCHEM_IUPAC_INCHI>
InChI=1S/C12H17N3O5/c1-6-5-15(12(19)14-11(6)18)10-3-8(17)9(20-10)4-13-7(2)16/h5,8-10,17H,3-4H2,1-2H3,(H,13,16)(H,14,18,19)/t8-,9+,10+/m0/s1
> <PUBCHEM_IUPAC_INCHIKEY>
LZNCDIRWZZLADL-IVZWLZJFSA-N
> <PUBCHEM_XLOGP3>
-1.2
> <PUBCHEM_EXACT_MASS>
283.11682065
> <PUBCHEM_MOLECULAR_FORMULA>
C12H17N3O5
> <PUBCHEM_MOLECULAR_WEIGHT>
283.28
> <PUBCHEM_OPENEYE_CAN_SMILES>
CC1=CN(C(=O)NC1=O)C2CC(C(O2)CNC(=O)C)O
> <PUBCHEM_OPENEYE_ISO_SMILES>
CC1=CN(C(=O)NC1=O)[C@H]2C[C@@H]([C@H](O2)CNC(=O)C)O
> <PUBCHEM_CACTVS_TPSA>
108
> <PUBCHEM_MONOISOTOPIC_WEIGHT>
283.11682065
> <PUBCHEM_TOTAL_CHARGE>
0
> <PUBCHEM_HEAVY_ATOM_COUNT>
20
> <PUBCHEM_ATOM_DEF_STEREO_COUNT>
3
> <PUBCHEM_ATOM_UDEF_STEREO_COUNT>
0
> <PUBCHEM_BOND_DEF_STEREO_COUNT>
0
> <PUBCHEM_BOND_UDEF_STEREO_COUNT>
0
> <PUBCHEM_ISOTOPIC_ATOM_COUNT>
0
> <PUBCHEM_COMPONENT_COUNT>
1
> <PUBCHEM_CACTVS_TAUTO_COUNT>
-1
> <PUBCHEM_COORDINATE_TYPE>
1
5
255
> <PUBCHEM_BONDANNOTATIONS>
14  16  8
16  17  8
10  2  5
12  6  6
6  14  8
6  15  8
8  15  8
8  17  8
9  13  6
$$$$
