510578
  -OEChem-10302200282D
 34 36  0     1  0  0  0  0  0999 V2000
    4.6783   -1.7547    0.0000 S   0  0  0  0  0  0  0  0  0  0  0  0
    5.4883   -2.3411    0.0000 O   0  0  0  0  0  0  0  0  0  0  0  0
    4.3709   -2.7063    0.0000 O   0  0  0  0  0  0  0  0  0  0  0  0
    5.2619   -0.9500    0.0000 N   0  0  3  0  0  0  0  0  0  0  0  0
    4.6783   -0.1453    0.0000 C   0  0  3  0  0  0  0  0  0  0  0  0
    3.7320   -0.4500    0.0000 C   0  0  0  0  0  0  0  0  0  0  0  0
    3.7320   -1.4500    0.0000 C   0  0  0  0  0  0  0  0  0  0  0  0
    4.9889    0.8053    0.0000 C   0  0  0  0  0  0  0  0  0  0  0  0
    6.2619   -0.9500    0.0000 C   0  0  0  0  0  0  0  0  0  0  0  0
    2.8660    0.0500    0.0000 C   0  0  0  0  0  0  0  0  0  0  0  0
    2.8660   -1.9500    0.0000 C   0  0  0  0  0  0  0  0  0  0  0  0
    5.9674    1.0115    0.0000 C   0  0  0  0  0  0  0  0  0  0  0  0
    4.3211    1.5496    0.0000 C   0  0  0  0  0  0  0  0  0  0  0  0
    2.0000   -0.4500    0.0000 C   0  0  0  0  0  0  0  0  0  0  0  0
    2.0000   -1.4500    0.0000 C   0  0  0  0  0  0  0  0  0  0  0  0
    6.2781    1.9620    0.0000 C   0  0  0  0  0  0  0  0  0  0  0  0
    4.6318    2.5001    0.0000 C   0  0  0  0  0  0  0  0  0  0  0  0
    5.6103    2.7063    0.0000 C   0  0  0  0  0  0  0  0  0  0  0  0
    7.2566    2.1682    0.0000 C   0  0  0  0  0  0  0  0  0  0  0  0
    5.2908   -0.0491    0.0000 H   0  0  0  0  0  0  0  0  0  0  0  0
    6.2619   -1.5700    0.0000 H   0  0  0  0  0  0  0  0  0  0  0  0
    6.8819   -0.9500    0.0000 H   0  0  0  0  0  0  0  0  0  0  0  0
    6.2619   -0.3300    0.0000 H   0  0  0  0  0  0  0  0  0  0  0  0
    2.8660    0.6700    0.0000 H   0  0  0  0  0  0  0  0  0  0  0  0
    2.8660   -2.5700    0.0000 H   0  0  0  0  0  0  0  0  0  0  0  0
    6.3815    0.5500    0.0000 H   0  0  0  0  0  0  0  0  0  0  0  0
    3.7144    1.4217    0.0000 H   0  0  0  0  0  0  0  0  0  0  0  0
    1.4631   -0.1400    0.0000 H   0  0  0  0  0  0  0  0  0  0  0  0
    1.4631   -1.7600    0.0000 H   0  0  0  0  0  0  0  0  0  0  0  0
    4.2177    2.9616    0.0000 H   0  0  0  0  0  0  0  0  0  0  0  0
    5.8029    3.2956    0.0000 H   0  0  0  0  0  0  0  0  0  0  0  0
    7.3845    1.5616    0.0000 H   0  0  0  0  0  0  0  0  0  0  0  0
    7.8633    2.2961    0.0000 H   0  0  0  0  0  0  0  0  0  0  0  0
    7.1288    2.7749    0.0000 H   0  0  0  0  0  0  0  0  0  0  0  0
  1  2  2  0  0  0  0
  1  3  2  0  0  0  0
  1  4  1  0  0  0  0
  1  7  1  0  0  0  0
  4  5  1  0  0  0  0
  4  9  1  0  0  0  0
  5  6  1  0  0  0  0
  5  8  1  0  0  0  0
  5 20  1  0  0  0  0
  6  7  1  0  0  0  0
  6 10  2  0  0  0  0
  7 11  2  0  0  0  0
  8 12  1  0  0  0  0
  8 13  2  0  0  0  0
  9 21  1  0  0  0  0
  9 22  1  0  0  0  0
  9 23  1  0  0  0  0
 10 14  1  0  0  0  0
 10 24  1  0  0  0  0
 11 15  1  0  0  0  0
 11 25  1  0  0  0  0
 12 16  2  0  0  0  0
 12 26  1  0  0  0  0
 13 17  1  0  0  0  0
 13 27  1  0  0  0  0
 14 15  2  0  0  0  0
 14 28  1  0  0  0  0
 15 29  1  0  0  0  0
 16 18  1  0  0  0  0
 16 19  1  0  0  0  0
 17 18  2  0  0  0  0
 17 30  1  0  0  0  0
 18 31  1  0  0  0  0
 19 32  1  0  0  0  0
 19 33  1  0  0  0  0
 19 34  1  0  0  0  0
M  END
> <PUBCHEM_COMPOUND_CID>
510578
> <PUBCHEM_COMPOUND_CANONICALIZED>
1
> <PUBCHEM_CACTVS_COMPLEXITY>
428
> <PUBCHEM_CACTVS_HBOND_ACCEPTOR>
3
> <PUBCHEM_CACTVS_HBOND_DONOR>
0
> <PUBCHEM_CACTVS_ROTATABLE_BOND>
1
> <PUBCHEM_CACTVS_SUBSKEYS>
AAADccByMABAAAAAAAAAAAAAAAAAAWAAAAAwYAAAAAAAAFgBQAAAHAQAQAAADCjBWAQyAYIAAAKAAiBCAHDCABAgAAAIiBgIBIgIICKAkRGEIAhggAAIiAcQgMAOAAACAAAEAAAAAAQAAAgAAAAAAAAAAA==
> <PUBCHEM_IUPAC_OPENEYE_NAME>
2-methyl-3-(m-tolyl)-3H-1,2-benzothiazole 1,1-dioxide
> <PUBCHEM_IUPAC_CAS_NAME>
2-methyl-3-(3-methylphenyl)-3H-1,2-benzothiazole 1,1-dioxide
> <PUBCHEM_IUPAC_NAME_MARKUP>
2-methyl-3-(3-methylphenyl)-3<I>H</I>-1,2-benzothiazole 1,1-dioxide
> <PUBCHEM_IUPAC_NAME>
2-methyl-3-(3-methylphenyl)-3H-1,2-benzothiazole 1,1-dioxide
> <PUBCHEM_IUPAC_SYSTEMATIC_NAME>
2-methyl-3-(3-methylphenyl)-3H-1,2-benzothiazole 1,1-dioxide
> <PUBCHEM_IUPAC_TRADITIONAL_NAME>
2-methyl-3-(m-tolyl)-3H-1,2-benzothiazole 1,1-dioxide
> <PUBCHEM_IUPAC_INCHI>
InChI=1S/C15H15NO2S/c1-11-6-5-7-12(10-11)15-13-8-3-4-9-14(13)19(17,18)16(15)2/h3-10,15H,1-2H3
> <PUBCHEM_IUPAC_INCHIKEY>
LSHSVNWLNQMKLF-UHFFFAOYSA-N
> <PUBCHEM_XLOGP3_AA>
2.7
> <PUBCHEM_EXACT_MASS>
273.08234989
> <PUBCHEM_MOLECULAR_FORMULA>
C15H15NO2S
> <PUBCHEM_MOLECULAR_WEIGHT>
273.4
> <PUBCHEM_OPENEYE_CAN_SMILES>
CC1=CC(=CC=C1)C2C3=CC=CC=C3S(=O)(=O)N2C
> <PUBCHEM_OPENEYE_ISO_SMILES>
CC1=CC(=CC=C1)C2C3=CC=CC=C3S(=O)(=O)N2C
> <PUBCHEM_CACTVS_TPSA>
45.8
> <PUBCHEM_MONOISOTOPIC_WEIGHT>
273.08234989
> <PUBCHEM_TOTAL_CHARGE>
0
> <PUBCHEM_HEAVY_ATOM_COUNT>
19
> <PUBCHEM_ATOM_DEF_STEREO_COUNT>
0
> <PUBCHEM_ATOM_UDEF_STEREO_COUNT>
1
> <PUBCHEM_BOND_DEF_STEREO_COUNT>
0
> <PUBCHEM_BOND_UDEF_STEREO_COUNT>
0
> <PUBCHEM_ISOTOPIC_ATOM_COUNT>
0
> <PUBCHEM_COMPONENT_COUNT>
1
> <PUBCHEM_CACTVS_TAUTO_COUNT>
-1
> <PUBCHEM_COORDINATE_TYPE>
1
5
255
> <PUBCHEM_BONDANNOTATIONS>
10  14  8
11  15  8
12  16  8
13  17  8
14  15  8
16  18  8
17  18  8
5  8  3
6  10  8
6  7  8
7  11  8
8  12  8
8  13  8
$$$$
