510548
  -OEChem-10302200282D
106109  0     1  0  0  0  0  0999 V2000
    3.7320   -1.9332    0.0000 O   0  0  0  0  0  0  0  0  0  0  0  0
   15.0543   -1.0591    0.0000 O   0  0  0  0  0  0  0  0  0  0  0  0
    2.8660   -0.4332    0.0000 O   0  0  0  0  0  0  0  0  0  0  0  0
   16.6366   -0.3546    0.0000 O   0  0  0  0  0  0  0  0  0  0  0  0
    6.3301    0.5668    0.0000 O   0  0  0  0  0  0  0  0  0  0  0  0
   14.4219    2.4905    0.0000 O   0  0  0  0  0  0  0  0  0  0  0  0
    7.4321    1.3674    0.0000 O   0  0  0  0  0  0  0  0  0  0  0  0
   14.5362    5.4332    0.0000 O   0  0  0  0  0  0  0  0  0  0  0  0
    4.5981    0.5668    0.0000 N   0  0  0  0  0  0  0  0  0  0  0  0
   15.8232    1.4725    0.0000 N   0  0  0  0  0  0  0  0  0  0  0  0
    7.9673    3.0146    0.0000 N   0  0  0  0  0  0  0  0  0  0  0  0
   14.0010    3.7860    0.0000 N   0  0  0  0  0  0  0  0  0  0  0  0
    5.9641    3.6056    0.0000 N   0  0  0  0  0  0  0  0  0  0  0  0
   16.5042    4.7339    0.0000 N   0  0  0  0  0  0  0  0  0  0  0  0
    4.6551    2.6545    0.0000 N   0  0  0  0  0  0  0  0  0  0  0  0
   17.0042    3.1950    0.0000 N   0  0  0  0  0  0  0  0  0  0  0  0
   10.6126    3.0658    0.0000 C   0  0  0  0  0  0  0  0  0  0  0  0
   11.3557    3.7349    0.0000 C   0  0  0  0  0  0  0  0  0  0  0  0
    5.4641   -0.9332    0.0000 C   0  0  0  0  0  0  0  0  0  0  0  0
   14.2408    0.7680    0.0000 C   0  0  0  0  0  0  0  0  0  0  0  0
    9.6615    3.3748    0.0000 C   0  0  0  0  0  0  0  0  0  0  0  0
   12.3068    3.4259    0.0000 C   0  0  0  0  0  0  0  0  0  0  0  0
    4.5981   -0.4332    0.0000 C   0  0  1  0  0  0  0  0  0  0  0  0
   15.2354    0.6634    0.0000 C   0  0  1  0  0  0  0  0  0  0  0  0
    8.9184    2.7056    0.0000 C   0  0  0  0  0  0  0  0  0  0  0  0
   13.0499    4.0950    0.0000 C   0  0  0  0  0  0  0  0  0  0  0  0
    6.3301   -0.4332    0.0000 C   0  0  0  0  0  0  0  0  0  0  0  0
    5.4641   -1.9332    0.0000 C   0  0  0  0  0  0  0  0  0  0  0  0
   13.6531   -0.0410    0.0000 C   0  0  0  0  0  0  0  0  0  0  0  0
   13.8341    1.6815    0.0000 C   0  0  0  0  0  0  0  0  0  0  0  0
    3.7320   -0.9332    0.0000 C   0  0  0  0  0  0  0  0  0  0  0  0
   15.6421   -0.2501    0.0000 C   0  0  0  0  0  0  0  0  0  0  0  0
    5.4641    1.0668    0.0000 C   0  0  0  0  0  0  0  0  0  0  0  0
   15.4164    2.3860    0.0000 C   0  0  0  0  0  0  0  0  0  0  0  0
    6.2731    2.6545    0.0000 C   0  0  0  0  0  0  0  0  0  0  0  0
    5.4641    2.0668    0.0000 C   0  0  0  0  0  0  0  0  0  0  0  0
   15.6952    4.1461    0.0000 C   0  0  0  0  0  0  0  0  0  0  0  0
   16.0042    3.1950    0.0000 C   0  0  0  0  0  0  0  0  0  0  0  0
    7.2242    2.3455    0.0000 C   0  0  0  0  0  0  0  0  0  0  0  0
   14.7441    4.4551    0.0000 C   0  0  0  0  0  0  0  0  0  0  0  0
    2.8660   -2.4332    0.0000 C   0  0  0  0  0  0  0  0  0  0  0  0
   15.4611   -1.9727    0.0000 C   0  0  0  0  0  0  0  0  0  0  0  0
    4.9641    3.6056    0.0000 C   0  0  0  0  0  0  0  0  0  0  0  0
   17.3132    4.1461    0.0000 C   0  0  0  0  0  0  0  0  0  0  0  0
    2.8660   -3.4332    0.0000 C   0  0  0  0  0  0  0  0  0  0  0  0
   14.8733   -2.7817    0.0000 C   0  0  0  0  0  0  0  0  0  0  0  0
    2.0000   -3.9332    0.0000 C   0  0  0  0  0  0  0  0  0  0  0  0
    3.7320   -3.9332    0.0000 C   0  0  0  0  0  0  0  0  0  0  0  0
   13.8787   -2.6772    0.0000 C   0  0  0  0  0  0  0  0  0  0  0  0
   15.2800   -3.6952    0.0000 C   0  0  0  0  0  0  0  0  0  0  0  0
    2.0000   -4.9332    0.0000 C   0  0  0  0  0  0  0  0  0  0  0  0
    3.7320   -4.9332    0.0000 C   0  0  0  0  0  0  0  0  0  0  0  0
   13.2910   -3.4862    0.0000 C   0  0  0  0  0  0  0  0  0  0  0  0
   14.6922   -4.5042    0.0000 C   0  0  0  0  0  0  0  0  0  0  0  0
    2.8660   -5.4332    0.0000 C   0  0  0  0  0  0  0  0  0  0  0  0
   13.6977   -4.3997    0.0000 C   0  0  0  0  0  0  0  0  0  0  0  0
   10.3215    2.5183    0.0000 H   0  0  0  0  0  0  0  0  0  0  0  0
   11.1011    2.6840    0.0000 H   0  0  0  0  0  0  0  0  0  0  0  0
   11.6468    4.2823    0.0000 H   0  0  0  0  0  0  0  0  0  0  0  0
   10.8672    4.1166    0.0000 H   0  0  0  0  0  0  0  0  0  0  0  0
    5.4641   -0.3132    0.0000 H   0  0  0  0  0  0  0  0  0  0  0  0
   13.6242    0.8328    0.0000 H   0  0  0  0  0  0  0  0  0  0  0  0
    9.9526    3.9222    0.0000 H   0  0  0  0  0  0  0  0  0  0  0  0
    9.1730    3.7565    0.0000 H   0  0  0  0  0  0  0  0  0  0  0  0
   12.0157    2.8784    0.0000 H   0  0  0  0  0  0  0  0  0  0  0  0
   12.7953    3.0442    0.0000 H   0  0  0  0  0  0  0  0  0  0  0  0
    4.0611   -0.1232    0.0000 H   0  0  0  0  0  0  0  0  0  0  0  0
   14.9832    1.2299    0.0000 H   0  0  0  0  0  0  0  0  0  0  0  0
    8.6273    2.1582    0.0000 H   0  0  0  0  0  0  0  0  0  0  0  0
    9.4069    2.3239    0.0000 H   0  0  0  0  0  0  0  0  0  0  0  0
   13.3410    4.6424    0.0000 H   0  0  0  0  0  0  0  0  0  0  0  0
   12.5614    4.4767    0.0000 H   0  0  0  0  0  0  0  0  0  0  0  0
    6.6401   -0.9702    0.0000 H   0  0  0  0  0  0  0  0  0  0  0  0
    6.8671   -0.1232    0.0000 H   0  0  0  0  0  0  0  0  0  0  0  0
    6.0201    0.1037    0.0000 H   0  0  0  0  0  0  0  0  0  0  0  0
    4.8441   -1.9332    0.0000 H   0  0  0  0  0  0  0  0  0  0  0  0
    5.4641   -2.5532    0.0000 H   0  0  0  0  0  0  0  0  0  0  0  0
    6.0841   -1.9332    0.0000 H   0  0  0  0  0  0  0  0  0  0  0  0
   13.1515    0.3234    0.0000 H   0  0  0  0  0  0  0  0  0  0  0  0
   13.2886   -0.5426    0.0000 H   0  0  0  0  0  0  0  0  0  0  0  0
   14.1546   -0.4055    0.0000 H   0  0  0  0  0  0  0  0  0  0  0  0
   14.4005    1.9337    0.0000 H   0  0  0  0  0  0  0  0  0  0  0  0
   13.5819    2.2479    0.0000 H   0  0  0  0  0  0  0  0  0  0  0  0
   13.2677    1.4293    0.0000 H   0  0  0  0  0  0  0  0  0  0  0  0
    4.0611    0.8768    0.0000 H   0  0  0  0  0  0  0  0  0  0  0  0
   16.4398    1.4077    0.0000 H   0  0  0  0  0  0  0  0  0  0  0  0
    7.8384    3.6211    0.0000 H   0  0  0  0  0  0  0  0  0  0  0  0
   14.1299    3.1795    0.0000 H   0  0  0  0  0  0  0  0  0  0  0  0
    6.3285    4.1072    0.0000 H   0  0  0  0  0  0  0  0  0  0  0  0
   16.5042    5.3539    0.0000 H   0  0  0  0  0  0  0  0  0  0  0  0
    2.6540   -1.8506    0.0000 H   0  0  0  0  0  0  0  0  0  0  0  0
    2.2554   -2.5409    0.0000 H   0  0  0  0  0  0  0  0  0  0  0  0
   15.8917   -2.4186    0.0000 H   0  0  0  0  0  0  0  0  0  0  0  0
   15.9751   -1.6260    0.0000 H   0  0  0  0  0  0  0  0  0  0  0  0
    4.5997    4.1072    0.0000 H   0  0  0  0  0  0  0  0  0  0  0  0
   17.9029    4.3377    0.0000 H   0  0  0  0  0  0  0  0  0  0  0  0
    1.4631   -3.6232    0.0000 H   0  0  0  0  0  0  0  0  0  0  0  0
    4.2690   -3.6232    0.0000 H   0  0  0  0  0  0  0  0  0  0  0  0
   13.6266   -2.1108    0.0000 H   0  0  0  0  0  0  0  0  0  0  0  0
   15.8966   -3.7600    0.0000 H   0  0  0  0  0  0  0  0  0  0  0  0
    1.4631   -5.2432    0.0000 H   0  0  0  0  0  0  0  0  0  0  0  0
    4.2690   -5.2432    0.0000 H   0  0  0  0  0  0  0  0  0  0  0  0
   12.6744   -3.4214    0.0000 H   0  0  0  0  0  0  0  0  0  0  0  0
   14.9444   -5.0706    0.0000 H   0  0  0  0  0  0  0  0  0  0  0  0
    2.8660   -6.0532    0.0000 H   0  0  0  0  0  0  0  0  0  0  0  0
   13.3333   -4.9013    0.0000 H   0  0  0  0  0  0  0  0  0  0  0  0
  1 31  1  0  0  0  0
  1 41  1  0  0  0  0
  2 32  1  0  0  0  0
  2 42  1  0  0  0  0
  3 31  2  0  0  0  0
  4 32  2  0  0  0  0
  5 33  2  0  0  0  0
  6 34  2  0  0  0  0
  7 39  2  0  0  0  0
  8 40  2  0  0  0  0
 23  9  1  1  0  0  0
  9 33  1  0  0  0  0
  9 85  1  0  0  0  0
 24 10  1  6  0  0  0
 10 34  1  0  0  0  0
 10 86  1  0  0  0  0
 11 25  1  0  0  0  0
 11 39  1  0  0  0  0
 11 87  1  0  0  0  0
 12 26  1  0  0  0  0
 12 40  1  0  0  0  0
 12 88  1  0  0  0  0
 13 35  1  0  0  0  0
 13 43  1  0  0  0  0
 13 89  1  0  0  0  0
 14 37  1  0  0  0  0
 14 44  1  0  0  0  0
 14 90  1  0  0  0  0
 15 36  1  0  0  0  0
 15 43  2  0  0  0  0
 16 38  1  0  0  0  0
 16 44  2  0  0  0  0
 17 18  1  0  0  0  0
 17 21  1  0  0  0  0
 17 57  1  0  0  0  0
 17 58  1  0  0  0  0
 18 22  1  0  0  0  0
 18 59  1  0  0  0  0
 18 60  1  0  0  0  0
 19 23  1  0  0  0  0
 19 27  1  0  0  0  0
 19 28  1  0  0  0  0
 19 61  1  0  0  0  0
 20 24  1  0  0  0  0
 20 29  1  0  0  0  0
 20 30  1  0  0  0  0
 20 62  1  0  0  0  0
 21 25  1  0  0  0  0
 21 63  1  0  0  0  0
 21 64  1  0  0  0  0
 22 26  1  0  0  0  0
 22 65  1  0  0  0  0
 22 66  1  0  0  0  0
 23 31  1  0  0  0  0
 23 67  1  0  0  0  0
 24 32  1  0  0  0  0
 24 68  1  0  0  0  0
 25 69  1  0  0  0  0
 25 70  1  0  0  0  0
 26 71  1  0  0  0  0
 26 72  1  0  0  0  0
 27 73  1  0  0  0  0
 27 74  1  0  0  0  0
 27 75  1  0  0  0  0
 28 76  1  0  0  0  0
 28 77  1  0  0  0  0
 28 78  1  0  0  0  0
 29 79  1  0  0  0  0
 29 80  1  0  0  0  0
 29 81  1  0  0  0  0
 30 82  1  0  0  0  0
 30 83  1  0  0  0  0
 30 84  1  0  0  0  0
 33 36  1  0  0  0  0
 34 38  1  0  0  0  0
 35 36  2  0  0  0  0
 35 39  1  0  0  0  0
 37 38  2  0  0  0  0
 37 40  1  0  0  0  0
 41 45  1  0  0  0  0
 41 91  1  0  0  0  0
 41 92  1  0  0  0  0
 42 46  1  0  0  0  0
 42 93  1  0  0  0  0
 42 94  1  0  0  0  0
 43 95  1  0  0  0  0
 44 96  1  0  0  0  0
 45 47  2  0  0  0  0
 45 48  1  0  0  0  0
 46 49  2  0  0  0  0
 46 50  1  0  0  0  0
 47 51  1  0  0  0  0
 47 97  1  0  0  0  0
 48 52  2  0  0  0  0
 48 98  1  0  0  0  0
 49 53  1  0  0  0  0
 49 99  1  0  0  0  0
 50 54  2  0  0  0  0
 50100  1  0  0  0  0
 51 55  2  0  0  0  0
 51101  1  0  0  0  0
 52 55  1  0  0  0  0
 52102  1  0  0  0  0
 53 56  2  0  0  0  0
 53103  1  0  0  0  0
 54 56  1  0  0  0  0
 54104  1  0  0  0  0
 55105  1  0  0  0  0
 56106  1  0  0  0  0
M  END
> <PUBCHEM_COMPOUND_CID>
510548
> <PUBCHEM_COMPOUND_CANONICALIZED>
1
> <PUBCHEM_CACTVS_COMPLEXITY>
1190
> <PUBCHEM_CACTVS_HBOND_ACCEPTOR>
10
> <PUBCHEM_CACTVS_HBOND_DONOR>
6
> <PUBCHEM_CACTVS_ROTATABLE_BOND>
23
> <PUBCHEM_CACTVS_SUBSKEYS>
AAADcfB//AAAAAAAAAAAAAAAAAAAAWLAAAAwYAAAAAAAAAAB9AAAHgAQAAAADSjhngY3mJbJlACoAyXzfACCgC23EKAJ2YGoXMiKbjrA+TiXMYhs1gPYqWeVwCAOAAAAAAAAAAAAAAAAAAAAAAAAAAAAAA==
> <PUBCHEM_IUPAC_OPENEYE_NAME>
benzyl (2S)-2-[[5-[6-[[4-[[(1S)-1-benzyloxycarbonyl-2-methyl-propyl]carbamoyl]-1H-imidazole-5-carbonyl]amino]hexylcarbamoyl]-1H-imidazole-4-carbonyl]amino]-3-methyl-butanoate
> <PUBCHEM_IUPAC_CAS_NAME>
(2S)-3-methyl-2-[[[5-[[6-[[[4-[[[(2S)-3-methyl-1-oxo-1-phenylmethoxybutan-2-yl]amino]-oxomethyl]-1H-imidazol-5-yl]-oxomethyl]amino]hexylamino]-oxomethyl]-1H-imidazol-4-yl]-oxomethyl]amino]butanoic acid (phenylmethyl) ester
> <PUBCHEM_IUPAC_NAME_MARKUP>
benzyl (2<I>S</I>)-3-methyl-2-[[5-[6-[[4-[[(2<I>S</I>)-3-methyl-1-oxo-1-phenylmethoxybutan-2-yl]carbamoyl]-1<I>H</I>-imidazole-5-carbonyl]amino]hexylcarbamoyl]-1<I>H</I>-imidazole-4-carbonyl]amino]butanoate
> <PUBCHEM_IUPAC_NAME>
benzyl (2S)-3-methyl-2-[[5-[6-[[4-[[(2S)-3-methyl-1-oxo-1-phenylmethoxybutan-2-yl]carbamoyl]-1H-imidazole-5-carbonyl]amino]hexylcarbamoyl]-1H-imidazole-4-carbonyl]amino]butanoate
> <PUBCHEM_IUPAC_SYSTEMATIC_NAME>
(phenylmethyl) (2S)-3-methyl-2-[[5-[6-[[4-[[(2S)-3-methyl-1-oxidanylidene-1-phenylmethoxy-butan-2-yl]carbamoyl]-1H-imidazol-5-yl]carbonylamino]hexylcarbamoyl]-1H-imidazol-4-yl]carbonylamino]butanoate
> <PUBCHEM_IUPAC_TRADITIONAL_NAME>
(2S)-2-[[5-[6-[[4-[[(1S)-1-carbobenzoxy-2-methyl-propyl]carbamoyl]-1H-imidazole-5-carbonyl]amino]hexylcarbamoyl]-1H-imidazole-4-carbonyl]amino]-3-methyl-butyric acid benzyl ester
> <PUBCHEM_IUPAC_INCHI>
InChI=1S/C40H50N8O8/c1-25(2)29(39(53)55-21-27-15-9-7-10-16-27)47-37(51)33-31(43-23-45-33)35(49)41-19-13-5-6-14-20-42-36(50)32-34(46-24-44-32)38(52)48-30(26(3)4)40(54)56-22-28-17-11-8-12-18-28/h7-12,15-18,23-26,29-30H,5-6,13-14,19-22H2,1-4H3,(H,41,49)(H,42,50)(H,43,45)(H,44,46)(H,47,51)(H,48,52)/t29-,30-/m0/s1
> <PUBCHEM_IUPAC_INCHIKEY>
NZICDSHQVQTQNF-KYJUHHDHSA-N
> <PUBCHEM_XLOGP3_AA>
5.3
> <PUBCHEM_EXACT_MASS>
770.37516058
> <PUBCHEM_MOLECULAR_FORMULA>
C40H50N8O8
> <PUBCHEM_MOLECULAR_WEIGHT>
770.9
> <PUBCHEM_OPENEYE_CAN_SMILES>
CC(C)C(C(=O)OCC1=CC=CC=C1)NC(=O)C2=C(NC=N2)C(=O)NCCCCCCNC(=O)C3=C(N=CN3)C(=O)NC(C(C)C)C(=O)OCC4=CC=CC=C4
> <PUBCHEM_OPENEYE_ISO_SMILES>
CC(C)[C@@H](C(=O)OCC1=CC=CC=C1)NC(=O)C2=C(NC=N2)C(=O)NCCCCCCNC(=O)C3=C(N=CN3)C(=O)N[C@@H](C(C)C)C(=O)OCC4=CC=CC=C4
> <PUBCHEM_CACTVS_TPSA>
226
> <PUBCHEM_MONOISOTOPIC_WEIGHT>
770.37516058
> <PUBCHEM_TOTAL_CHARGE>
0
> <PUBCHEM_HEAVY_ATOM_COUNT>
56
> <PUBCHEM_ATOM_DEF_STEREO_COUNT>
2
> <PUBCHEM_ATOM_UDEF_STEREO_COUNT>
0
> <PUBCHEM_BOND_DEF_STEREO_COUNT>
0
> <PUBCHEM_BOND_UDEF_STEREO_COUNT>
0
> <PUBCHEM_ISOTOPIC_ATOM_COUNT>
0
> <PUBCHEM_COMPONENT_COUNT>
1
> <PUBCHEM_CACTVS_TAUTO_COUNT>
-1
> <PUBCHEM_COORDINATE_TYPE>
1
5
255
> <PUBCHEM_BONDANNOTATIONS>
24  10  6
13  35  8
13  43  8
14  37  8
14  44  8
15  36  8
15  43  8
16  38  8
16  44  8
35  36  8
37  38  8
45  47  8
45  48  8
46  49  8
46  50  8
47  51  8
48  52  8
49  53  8
50  54  8
51  55  8
52  55  8
53  56  8
54  56  8
23  9  5
$$$$
