510538
  -OEChem-10302200282D
 86 87  0     1  0  0  0  0  0999 V2000
   15.6382    3.7490    0.0000 O   0  0  0  0  0  0  0  0  0  0  0  0
    2.7431   -3.7490    0.0000 O   0  0  0  0  0  0  0  0  0  0  0  0
   14.4792    5.0362    0.0000 O   0  0  0  0  0  0  0  0  0  0  0  0
    3.9021   -5.0362    0.0000 O   0  0  0  0  0  0  0  0  0  0  0  0
   12.4577    2.0506    0.0000 O   0  0  0  0  0  0  0  0  0  0  0  0
    5.9236   -2.0506    0.0000 O   0  0  0  0  0  0  0  0  0  0  0  0
   11.3557    1.2500    0.0000 O   0  0  0  0  0  0  0  0  0  0  0  0
    7.0256   -1.2500    0.0000 O   0  0  0  0  0  0  0  0  0  0  0  0
   12.9929    3.6979    0.0000 N   0  0  0  0  0  0  0  0  0  0  0  0
    5.3884   -3.6979    0.0000 N   0  0  0  0  0  0  0  0  0  0  0  0
    9.6237    1.2500    0.0000 N   0  0  0  0  0  0  0  0  0  0  0  0
    8.7576   -1.2500    0.0000 N   0  0  0  0  0  0  0  0  0  0  0  0
    9.6807    3.3378    0.0000 N   0  0  0  0  0  0  0  0  0  0  0  0
    8.7006   -3.3378    0.0000 N   0  0  0  0  0  0  0  0  0  0  0  0
   10.9897    4.2888    0.0000 N   0  0  0  0  0  0  0  0  0  0  0  0
    7.3916   -4.2888    0.0000 N   0  0  0  0  0  0  0  0  0  0  0  0
   15.1029    2.1017    0.0000 C   0  0  0  0  0  0  0  0  0  0  0  0
    3.2784   -2.1017    0.0000 C   0  0  0  0  0  0  0  0  0  0  0  0
   14.1519    2.4107    0.0000 C   0  0  0  0  0  0  0  0  0  0  0  0
    4.2294   -2.4107    0.0000 C   0  0  0  0  0  0  0  0  0  0  0  0
   13.9440    3.3889    0.0000 C   0  0  1  0  0  0  0  0  0  0  0  0
    4.4374   -3.3889    0.0000 C   0  0  1  0  0  0  0  0  0  0  0  0
   15.3109    1.1236    0.0000 C   0  0  0  0  0  0  0  0  0  0  0  0
   15.8461    2.7708    0.0000 C   0  0  0  0  0  0  0  0  0  0  0  0
    3.0705   -1.1236    0.0000 C   0  0  0  0  0  0  0  0  0  0  0  0
    2.5352   -2.7708    0.0000 C   0  0  0  0  0  0  0  0  0  0  0  0
   14.6871    4.0580    0.0000 C   0  0  0  0  0  0  0  0  0  0  0  0
    3.6942   -4.0580    0.0000 C   0  0  0  0  0  0  0  0  0  0  0  0
    9.6237    0.2500    0.0000 C   0  0  0  0  0  0  0  0  0  0  0  0
    8.7576   -0.2500    0.0000 C   0  0  0  0  0  0  0  0  0  0  0  0
   12.2498    3.0288    0.0000 C   0  0  0  0  0  0  0  0  0  0  0  0
    6.1316   -3.0288    0.0000 C   0  0  0  0  0  0  0  0  0  0  0  0
   11.2987    3.3378    0.0000 C   0  0  0  0  0  0  0  0  0  0  0  0
    7.0826   -3.3378    0.0000 C   0  0  0  0  0  0  0  0  0  0  0  0
   10.4897    2.7500    0.0000 C   0  0  0  0  0  0  0  0  0  0  0  0
    7.8916   -2.7500    0.0000 C   0  0  0  0  0  0  0  0  0  0  0  0
   10.4897    1.7500    0.0000 C   0  0  0  0  0  0  0  0  0  0  0  0
    7.8916   -1.7500    0.0000 C   0  0  0  0  0  0  0  0  0  0  0  0
    8.7576    1.7500    0.0000 C   0  0  0  0  0  0  0  0  0  0  0  0
    9.6237   -1.7500    0.0000 C   0  0  0  0  0  0  0  0  0  0  0  0
    9.9897    4.2888    0.0000 C   0  0  0  0  0  0  0  0  0  0  0  0
    8.3916   -4.2888    0.0000 C   0  0  0  0  0  0  0  0  0  0  0  0
   16.3813    4.4181    0.0000 C   0  0  0  0  0  0  0  0  0  0  0  0
    2.0000   -4.4181    0.0000 C   0  0  0  0  0  0  0  0  0  0  0  0
   14.9740    2.7082    0.0000 H   0  0  0  0  0  0  0  0  0  0  0  0
    3.4073   -2.7082    0.0000 H   0  0  0  0  0  0  0  0  0  0  0  0
   13.5323    2.3891    0.0000 H   0  0  0  0  0  0  0  0  0  0  0  0
   14.0656    1.7968    0.0000 H   0  0  0  0  0  0  0  0  0  0  0  0
    4.8491   -2.3891    0.0000 H   0  0  0  0  0  0  0  0  0  0  0  0
    4.3157   -1.7968    0.0000 H   0  0  0  0  0  0  0  0  0  0  0  0
   13.4832    2.9740    0.0000 H   0  0  0  0  0  0  0  0  0  0  0  0
    4.5662   -3.9953    0.0000 H   0  0  0  0  0  0  0  0  0  0  0  0
   14.7044    0.9947    0.0000 H   0  0  0  0  0  0  0  0  0  0  0  0
   15.4398    0.5171    0.0000 H   0  0  0  0  0  0  0  0  0  0  0  0
   15.9173    1.2525    0.0000 H   0  0  0  0  0  0  0  0  0  0  0  0
   16.2609    2.3101    0.0000 H   0  0  0  0  0  0  0  0  0  0  0  0
   16.3068    3.1857    0.0000 H   0  0  0  0  0  0  0  0  0  0  0  0
   15.4312    3.2316    0.0000 H   0  0  0  0  0  0  0  0  0  0  0  0
    3.6769   -0.9947    0.0000 H   0  0  0  0  0  0  0  0  0  0  0  0
    2.9416   -0.5171    0.0000 H   0  0  0  0  0  0  0  0  0  0  0  0
    2.4640   -1.2525    0.0000 H   0  0  0  0  0  0  0  0  0  0  0  0
    2.1204   -2.3101    0.0000 H   0  0  0  0  0  0  0  0  0  0  0  0
    2.0745   -3.1857    0.0000 H   0  0  0  0  0  0  0  0  0  0  0  0
    2.9501   -3.2316    0.0000 H   0  0  0  0  0  0  0  0  0  0  0  0
   12.8640    4.3044    0.0000 H   0  0  0  0  0  0  0  0  0  0  0  0
    5.5173   -4.3044    0.0000 H   0  0  0  0  0  0  0  0  0  0  0  0
    9.8357   -0.3326    0.0000 H   0  0  0  0  0  0  0  0  0  0  0  0
   10.2343    0.3577    0.0000 H   0  0  0  0  0  0  0  0  0  0  0  0
    8.5456    0.3326    0.0000 H   0  0  0  0  0  0  0  0  0  0  0  0
    8.1471   -0.3577    0.0000 H   0  0  0  0  0  0  0  0  0  0  0  0
    9.0676    2.2869    0.0000 H   0  0  0  0  0  0  0  0  0  0  0  0
    8.2207    2.0600    0.0000 H   0  0  0  0  0  0  0  0  0  0  0  0
    8.4476    1.2131    0.0000 H   0  0  0  0  0  0  0  0  0  0  0  0
    9.3137   -2.2869    0.0000 H   0  0  0  0  0  0  0  0  0  0  0  0
   10.1606   -2.0600    0.0000 H   0  0  0  0  0  0  0  0  0  0  0  0
    9.9337   -1.2131    0.0000 H   0  0  0  0  0  0  0  0  0  0  0  0
    9.0910    3.1462    0.0000 H   0  0  0  0  0  0  0  0  0  0  0  0
    9.2903   -3.1462    0.0000 H   0  0  0  0  0  0  0  0  0  0  0  0
    9.6253    4.7904    0.0000 H   0  0  0  0  0  0  0  0  0  0  0  0
    8.7560   -4.7904    0.0000 H   0  0  0  0  0  0  0  0  0  0  0  0
   16.7962    3.9574    0.0000 H   0  0  0  0  0  0  0  0  0  0  0  0
   16.8421    4.8330    0.0000 H   0  0  0  0  0  0  0  0  0  0  0  0
   15.9665    4.8789    0.0000 H   0  0  0  0  0  0  0  0  0  0  0  0
    1.5851   -3.9574    0.0000 H   0  0  0  0  0  0  0  0  0  0  0  0
    1.5392   -4.8330    0.0000 H   0  0  0  0  0  0  0  0  0  0  0  0
    2.4149   -4.8789    0.0000 H   0  0  0  0  0  0  0  0  0  0  0  0
  1 27  1  0  0  0  0
  1 43  1  0  0  0  0
  2 28  1  0  0  0  0
  2 44  1  0  0  0  0
  3 27  2  0  0  0  0
  4 28  2  0  0  0  0
  5 31  2  0  0  0  0
  6 32  2  0  0  0  0
  7 37  2  0  0  0  0
  8 38  2  0  0  0  0
 21  9  1  6  0  0  0
  9 31  1  0  0  0  0
  9 65  1  0  0  0  0
 22 10  1  6  0  0  0
 10 32  1  0  0  0  0
 10 66  1  0  0  0  0
 11 29  1  0  0  0  0
 11 37  1  0  0  0  0
 11 39  1  0  0  0  0
 12 30  1  0  0  0  0
 12 38  1  0  0  0  0
 12 40  1  0  0  0  0
 13 35  1  0  0  0  0
 13 41  1  0  0  0  0
 13 77  1  0  0  0  0
 14 36  1  0  0  0  0
 14 42  1  0  0  0  0
 14 78  1  0  0  0  0
 15 33  1  0  0  0  0
 15 41  2  0  0  0  0
 16 34  1  0  0  0  0
 16 42  2  0  0  0  0
 17 19  1  0  0  0  0
 17 23  1  0  0  0  0
 17 24  1  0  0  0  0
 17 45  1  0  0  0  0
 18 20  1  0  0  0  0
 18 25  1  0  0  0  0
 18 26  1  0  0  0  0
 18 46  1  0  0  0  0
 19 21  1  0  0  0  0
 19 47  1  0  0  0  0
 19 48  1  0  0  0  0
 20 22  1  0  0  0  0
 20 49  1  0  0  0  0
 20 50  1  0  0  0  0
 21 27  1  0  0  0  0
 21 51  1  0  0  0  0
 22 28  1  0  0  0  0
 22 52  1  0  0  0  0
 23 53  1  0  0  0  0
 23 54  1  0  0  0  0
 23 55  1  0  0  0  0
 24 56  1  0  0  0  0
 24 57  1  0  0  0  0
 24 58  1  0  0  0  0
 25 59  1  0  0  0  0
 25 60  1  0  0  0  0
 25 61  1  0  0  0  0
 26 62  1  0  0  0  0
 26 63  1  0  0  0  0
 26 64  1  0  0  0  0
 29 30  1  0  0  0  0
 29 67  1  0  0  0  0
 29 68  1  0  0  0  0
 30 69  1  0  0  0  0
 30 70  1  0  0  0  0
 31 33  1  0  0  0  0
 32 34  1  0  0  0  0
 33 35  2  0  0  0  0
 34 36  2  0  0  0  0
 35 37  1  0  0  0  0
 36 38  1  0  0  0  0
 39 71  1  0  0  0  0
 39 72  1  0  0  0  0
 39 73  1  0  0  0  0
 40 74  1  0  0  0  0
 40 75  1  0  0  0  0
 40 76  1  0  0  0  0
 41 79  1  0  0  0  0
 42 80  1  0  0  0  0
 43 81  1  0  0  0  0
 43 82  1  0  0  0  0
 43 83  1  0  0  0  0
 44 84  1  0  0  0  0
 44 85  1  0  0  0  0
 44 86  1  0  0  0  0
M  END
> <PUBCHEM_COMPOUND_CID>
510538
> <PUBCHEM_COMPOUND_CANONICALIZED>
1
> <PUBCHEM_CACTVS_COMPLEXITY>
961
> <PUBCHEM_CACTVS_HBOND_ACCEPTOR>
10
> <PUBCHEM_CACTVS_HBOND_DONOR>
4
> <PUBCHEM_CACTVS_ROTATABLE_BOND>
17
> <PUBCHEM_CACTVS_SUBSKEYS>
AAADcfB7/AAAAAAAAAAAAAAAAAAAAWLAAAAAAAAAAAAAAAAB4AAAHgAQAAAADSjBlgYHmBfJlACoAQXxfACAgC2XEKABWYGoVECCSBpAyCAVAYhMFgLQAWCNAAAMAAAAAAAAAAAAAAAAAAAAAAAAAAAAAA==
> <PUBCHEM_IUPAC_OPENEYE_NAME>
methyl (2S)-2-[[5-[2-[[4-[[(1S)-1-methoxycarbonyl-3-methyl-butyl]carbamoyl]-1H-imidazole-5-carbonyl]-methyl-amino]ethyl-methyl-carbamoyl]-1H-imidazole-4-carbonyl]amino]-4-methyl-pentanoate
> <PUBCHEM_IUPAC_CAS_NAME>
(2S)-2-[[[5-[[2-[[[4-[[[(2S)-1-methoxy-4-methyl-1-oxopentan-2-yl]amino]-oxomethyl]-1H-imidazol-5-yl]-oxomethyl]-methylamino]ethyl-methylamino]-oxomethyl]-1H-imidazol-4-yl]-oxomethyl]amino]-4-methylpentanoic acid methyl ester
> <PUBCHEM_IUPAC_NAME_MARKUP>
methyl (2<I>S</I>)-2-[[5-[2-[[4-[[(2<I>S</I>)-1-methoxy-4-methyl-1-oxopentan-2-yl]carbamoyl]-1<I>H</I>-imidazole-5-carbonyl]-methylamino]ethyl-methylcarbamoyl]-1<I>H</I>-imidazole-4-carbonyl]amino]-4-methylpentanoate
> <PUBCHEM_IUPAC_NAME>
methyl (2S)-2-[[5-[2-[[4-[[(2S)-1-methoxy-4-methyl-1-oxopentan-2-yl]carbamoyl]-1H-imidazole-5-carbonyl]-methylamino]ethyl-methylcarbamoyl]-1H-imidazole-4-carbonyl]amino]-4-methylpentanoate
> <PUBCHEM_IUPAC_SYSTEMATIC_NAME>
methyl (2S)-2-[[5-[2-[[4-[[(2S)-1-methoxy-4-methyl-1-oxidanylidene-pentan-2-yl]carbamoyl]-1H-imidazol-5-yl]carbonyl-methyl-amino]ethyl-methyl-carbamoyl]-1H-imidazol-4-yl]carbonylamino]-4-methyl-pentanoate
> <PUBCHEM_IUPAC_TRADITIONAL_NAME>
(2S)-2-[[5-[2-[[4-[[(1S)-1-carbomethoxy-3-methyl-butyl]carbamoyl]-1H-imidazole-5-carbonyl]-methyl-amino]ethyl-methyl-carbamoyl]-1H-imidazole-4-carbonyl]amino]-4-methyl-valeric acid methyl ester
> <PUBCHEM_IUPAC_INCHI>
InChI=1S/C28H42N8O8/c1-15(2)11-17(27(41)43-7)33-23(37)19-21(31-13-29-19)25(39)35(5)9-10-36(6)26(40)22-20(30-14-32-22)24(38)34-18(12-16(3)4)28(42)44-8/h13-18H,9-12H2,1-8H3,(H,29,31)(H,30,32)(H,33,37)(H,34,38)/t17-,18-/m0/s1
> <PUBCHEM_IUPAC_INCHIKEY>
HBQRDUUIUHZSFF-ROUUACIJSA-N
> <PUBCHEM_XLOGP3_AA>
2
> <PUBCHEM_EXACT_MASS>
618.31256033
> <PUBCHEM_MOLECULAR_FORMULA>
C28H42N8O8
> <PUBCHEM_MOLECULAR_WEIGHT>
618.7
> <PUBCHEM_OPENEYE_CAN_SMILES>
CC(C)CC(C(=O)OC)NC(=O)C1=C(NC=N1)C(=O)N(C)CCN(C)C(=O)C2=C(N=CN2)C(=O)NC(CC(C)C)C(=O)OC
> <PUBCHEM_OPENEYE_ISO_SMILES>
CC(C)C[C@@H](C(=O)OC)NC(=O)C1=C(NC=N1)C(=O)N(C)CCN(C)C(=O)C2=C(N=CN2)C(=O)N[C@@H](CC(C)C)C(=O)OC
> <PUBCHEM_CACTVS_TPSA>
209
> <PUBCHEM_MONOISOTOPIC_WEIGHT>
618.31256033
> <PUBCHEM_TOTAL_CHARGE>
0
> <PUBCHEM_HEAVY_ATOM_COUNT>
44
> <PUBCHEM_ATOM_DEF_STEREO_COUNT>
2
> <PUBCHEM_ATOM_UDEF_STEREO_COUNT>
0
> <PUBCHEM_BOND_DEF_STEREO_COUNT>
0
> <PUBCHEM_BOND_UDEF_STEREO_COUNT>
0
> <PUBCHEM_ISOTOPIC_ATOM_COUNT>
0
> <PUBCHEM_COMPONENT_COUNT>
1
> <PUBCHEM_CACTVS_TAUTO_COUNT>
-1
> <PUBCHEM_COORDINATE_TYPE>
1
5
255
> <PUBCHEM_BONDANNOTATIONS>
22  10  6
13  35  8
13  41  8
14  36  8
14  42  8
15  33  8
15  41  8
16  34  8
16  42  8
33  35  8
34  36  8
21  9  6
$$$$
