510544
  -OEChem-10302200282D
 83 84  0     1  0  0  0  0  0999 V2000
   10.5977    5.7986    0.0000 O   0  0  0  0  0  0  0  0  0  0  0  0
    3.6942   -6.1587    0.0000 O   0  0  0  0  0  0  0  0  0  0  0  0
   12.2919    5.4384    0.0000 O   0  0  0  0  0  0  0  0  0  0  0  0
    4.8532   -7.4458    0.0000 O   0  0  0  0  0  0  0  0  0  0  0  0
   10.7171    2.1950    0.0000 O   0  0  0  0  0  0  0  0  0  0  0  0
    6.8747   -4.4603    0.0000 O   0  0  0  0  0  0  0  0  0  0  0  0
   10.5747    0.8403    0.0000 O   0  0  0  0  0  0  0  0  0  0  0  0
    7.9766   -3.6597    0.0000 O   0  0  0  0  0  0  0  0  0  0  0  0
   11.8761    3.4821    0.0000 N   0  0  0  0  0  0  0  0  0  0  0  0
    6.3395   -6.1076    0.0000 N   0  0  0  0  0  0  0  0  0  0  0  0
   11.4408   -0.6597    0.0000 N   0  0  0  0  0  0  0  0  0  0  0  0
    9.7087   -3.6597    0.0000 N   0  0  0  0  0  0  0  0  0  0  0  0
   13.2203    0.4336    0.0000 N   0  0  0  0  0  0  0  0  0  0  0  0
    9.6517   -5.7474    0.0000 N   0  0  0  0  0  0  0  0  0  0  0  0
   13.3895    2.0428    0.0000 N   0  0  0  0  0  0  0  0  0  0  0  0
    8.3427   -6.6985    0.0000 N   0  0  0  0  0  0  0  0  0  0  0  0
   10.1819    3.8422    0.0000 C   0  0  0  0  0  0  0  0  0  0  0  0
    5.1805   -4.8204    0.0000 C   0  0  0  0  0  0  0  0  0  0  0  0
   11.1329    4.1513    0.0000 C   0  0  1  0  0  0  0  0  0  0  0  0
    5.3884   -5.7986    0.0000 C   0  0  1  0  0  0  0  0  0  0  0  0
    9.4387    4.5114    0.0000 C   0  0  0  0  0  0  0  0  0  0  0  0
    9.9740    2.8641    0.0000 C   0  0  0  0  0  0  0  0  0  0  0  0
    4.2294   -4.5114    0.0000 C   0  0  0  0  0  0  0  0  0  0  0  0
    5.9236   -4.1513    0.0000 C   0  0  0  0  0  0  0  0  0  0  0  0
   11.3408    5.1294    0.0000 C   0  0  0  0  0  0  0  0  0  0  0  0
    4.6453   -6.4677    0.0000 C   0  0  0  0  0  0  0  0  0  0  0  0
   11.6682    2.5040    0.0000 C   0  0  0  0  0  0  0  0  0  0  0  0
    7.0826   -5.4384    0.0000 C   0  0  0  0  0  0  0  0  0  0  0  0
   12.4113    1.8349    0.0000 C   0  0  0  0  0  0  0  0  0  0  0  0
    8.0337   -5.7474    0.0000 C   0  0  0  0  0  0  0  0  0  0  0  0
   10.5747   -2.1597    0.0000 C   0  0  0  0  0  0  0  0  0  0  0  0
   10.5747   -1.1597    0.0000 C   0  0  0  0  0  0  0  0  0  0  0  0
    9.7087   -2.6597    0.0000 C   0  0  0  0  0  0  0  0  0  0  0  0
   12.3068    0.8403    0.0000 C   0  0  0  0  0  0  0  0  0  0  0  0
    8.8427   -5.1597    0.0000 C   0  0  0  0  0  0  0  0  0  0  0  0
   11.4408    0.3403    0.0000 C   0  0  0  0  0  0  0  0  0  0  0  0
    8.8427   -4.1597    0.0000 C   0  0  0  0  0  0  0  0  0  0  0  0
   10.8056    6.7767    0.0000 C   0  0  0  0  0  0  0  0  0  0  0  0
    2.9511   -6.8278    0.0000 C   0  0  0  0  0  0  0  0  0  0  0  0
   13.8895    1.1767    0.0000 C   0  0  0  0  0  0  0  0  0  0  0  0
    9.3427   -6.6985    0.0000 C   0  0  0  0  0  0  0  0  0  0  0  0
   10.0625    7.4458    0.0000 C   0  0  0  0  0  0  0  0  0  0  0  0
    2.0000   -6.5188    0.0000 C   0  0  0  0  0  0  0  0  0  0  0  0
   10.3108    4.4487    0.0000 H   0  0  0  0  0  0  0  0  0  0  0  0
    5.7702   -5.0120    0.0000 H   0  0  0  0  0  0  0  0  0  0  0  0
   11.0040    3.5448    0.0000 H   0  0  0  0  0  0  0  0  0  0  0  0
    5.5173   -6.4050    0.0000 H   0  0  0  0  0  0  0  0  0  0  0  0
    9.8536    4.9721    0.0000 H   0  0  0  0  0  0  0  0  0  0  0  0
    8.9780    4.9262    0.0000 H   0  0  0  0  0  0  0  0  0  0  0  0
    9.0239    4.0506    0.0000 H   0  0  0  0  0  0  0  0  0  0  0  0
    9.3675    2.9930    0.0000 H   0  0  0  0  0  0  0  0  0  0  0  0
    9.8451    2.2576    0.0000 H   0  0  0  0  0  0  0  0  0  0  0  0
   10.5804    2.7352    0.0000 H   0  0  0  0  0  0  0  0  0  0  0  0
    4.4210   -3.9217    0.0000 H   0  0  0  0  0  0  0  0  0  0  0  0
    3.6398   -4.3198    0.0000 H   0  0  0  0  0  0  0  0  0  0  0  0
    4.0378   -5.1010    0.0000 H   0  0  0  0  0  0  0  0  0  0  0  0
    6.3385   -4.6120    0.0000 H   0  0  0  0  0  0  0  0  0  0  0  0
    6.3844   -3.7364    0.0000 H   0  0  0  0  0  0  0  0  0  0  0  0
    5.5088   -3.6905    0.0000 H   0  0  0  0  0  0  0  0  0  0  0  0
   12.4657    3.6737    0.0000 H   0  0  0  0  0  0  0  0  0  0  0  0
    6.4684   -6.7140    0.0000 H   0  0  0  0  0  0  0  0  0  0  0  0
   10.7868   -2.7423    0.0000 H   0  0  0  0  0  0  0  0  0  0  0  0
   11.1853   -2.0520    0.0000 H   0  0  0  0  0  0  0  0  0  0  0  0
   10.3627   -0.5771    0.0000 H   0  0  0  0  0  0  0  0  0  0  0  0
    9.9642   -1.2673    0.0000 H   0  0  0  0  0  0  0  0  0  0  0  0
    9.4966   -2.0770    0.0000 H   0  0  0  0  0  0  0  0  0  0  0  0
    9.0981   -2.7673    0.0000 H   0  0  0  0  0  0  0  0  0  0  0  0
   11.9777   -0.9697    0.0000 H   0  0  0  0  0  0  0  0  0  0  0  0
   10.2456   -3.9697    0.0000 H   0  0  0  0  0  0  0  0  0  0  0  0
   11.3805    6.5444    0.0000 H   0  0  0  0  0  0  0  0  0  0  0  0
   11.1342    7.3025    0.0000 H   0  0  0  0  0  0  0  0  0  0  0  0
    2.6600   -7.3752    0.0000 H   0  0  0  0  0  0  0  0  0  0  0  0
    3.4396   -7.2095    0.0000 H   0  0  0  0  0  0  0  0  0  0  0  0
   13.3492   -0.1729    0.0000 H   0  0  0  0  0  0  0  0  0  0  0  0
   10.2413   -5.5559    0.0000 H   0  0  0  0  0  0  0  0  0  0  0  0
   14.5061    1.1119    0.0000 H   0  0  0  0  0  0  0  0  0  0  0  0
    9.7071   -7.2001    0.0000 H   0  0  0  0  0  0  0  0  0  0  0  0
   10.4773    7.9066    0.0000 H   0  0  0  0  0  0  0  0  0  0  0  0
    9.6017    7.8607    0.0000 H   0  0  0  0  0  0  0  0  0  0  0  0
    9.6476    6.9851    0.0000 H   0  0  0  0  0  0  0  0  0  0  0  0
    2.1916   -5.9291    0.0000 H   0  0  0  0  0  0  0  0  0  0  0  0
    1.4103   -6.3272    0.0000 H   0  0  0  0  0  0  0  0  0  0  0  0
    1.8084   -7.1084    0.0000 H   0  0  0  0  0  0  0  0  0  0  0  0
  1 25  1  0  0  0  0
  1 38  1  0  0  0  0
  2 26  1  0  0  0  0
  2 39  1  0  0  0  0
  3 25  2  0  0  0  0
  4 26  2  0  0  0  0
  5 27  2  0  0  0  0
  6 28  2  0  0  0  0
  7 36  2  0  0  0  0
  8 37  2  0  0  0  0
 19  9  1  1  0  0  0
  9 27  1  0  0  0  0
  9 60  1  0  0  0  0
 20 10  1  6  0  0  0
 10 28  1  0  0  0  0
 10 61  1  0  0  0  0
 11 32  1  0  0  0  0
 11 36  1  0  0  0  0
 11 68  1  0  0  0  0
 12 33  1  0  0  0  0
 12 37  1  0  0  0  0
 12 69  1  0  0  0  0
 13 34  1  0  0  0  0
 13 40  1  0  0  0  0
 13 74  1  0  0  0  0
 14 35  1  0  0  0  0
 14 41  1  0  0  0  0
 14 75  1  0  0  0  0
 15 29  1  0  0  0  0
 15 40  2  0  0  0  0
 16 30  1  0  0  0  0
 16 41  2  0  0  0  0
 17 19  1  0  0  0  0
 17 21  1  0  0  0  0
 17 22  1  0  0  0  0
 17 44  1  0  0  0  0
 18 20  1  0  0  0  0
 18 23  1  0  0  0  0
 18 24  1  0  0  0  0
 18 45  1  0  0  0  0
 19 25  1  0  0  0  0
 19 46  1  0  0  0  0
 20 26  1  0  0  0  0
 20 47  1  0  0  0  0
 21 48  1  0  0  0  0
 21 49  1  0  0  0  0
 21 50  1  0  0  0  0
 22 51  1  0  0  0  0
 22 52  1  0  0  0  0
 22 53  1  0  0  0  0
 23 54  1  0  0  0  0
 23 55  1  0  0  0  0
 23 56  1  0  0  0  0
 24 57  1  0  0  0  0
 24 58  1  0  0  0  0
 24 59  1  0  0  0  0
 27 29  1  0  0  0  0
 28 30  1  0  0  0  0
 29 34  2  0  0  0  0
 30 35  2  0  0  0  0
 31 32  1  0  0  0  0
 31 33  1  0  0  0  0
 31 62  1  0  0  0  0
 31 63  1  0  0  0  0
 32 64  1  0  0  0  0
 32 65  1  0  0  0  0
 33 66  1  0  0  0  0
 33 67  1  0  0  0  0
 34 36  1  0  0  0  0
 35 37  1  0  0  0  0
 38 42  1  0  0  0  0
 38 70  1  0  0  0  0
 38 71  1  0  0  0  0
 39 43  1  0  0  0  0
 39 72  1  0  0  0  0
 39 73  1  0  0  0  0
 40 76  1  0  0  0  0
 41 77  1  0  0  0  0
 42 78  1  0  0  0  0
 42 79  1  0  0  0  0
 42 80  1  0  0  0  0
 43 81  1  0  0  0  0
 43 82  1  0  0  0  0
 43 83  1  0  0  0  0
M  END
> <PUBCHEM_COMPOUND_CID>
510544
> <PUBCHEM_COMPOUND_CANONICALIZED>
1
> <PUBCHEM_CACTVS_COMPLEXITY>
918
> <PUBCHEM_CACTVS_HBOND_ACCEPTOR>
10
> <PUBCHEM_CACTVS_HBOND_DONOR>
6
> <PUBCHEM_CACTVS_ROTATABLE_BOND>
18
> <PUBCHEM_CACTVS_SUBSKEYS>
AAADcfB7/AAAAAAAAAAAAAAAAAAAAWLAAAAAAAAAAAAAAAAB4AAAHgAQAAAADSjhlgYHmBbJlACoAQXxfACAgC2XEKABWYGoVECCSBhAyCAXAYhMFgLQAWAFAAAIAAAAAAAAAAAAAAAAAAAAAAAAAAAAAA==
> <PUBCHEM_IUPAC_OPENEYE_NAME>
ethyl (2S)-2-[[5-[3-[[4-[[(1S)-1-ethoxycarbonyl-2-methyl-propyl]carbamoyl]-1H-imidazole-5-carbonyl]amino]propylcarbamoyl]-1H-imidazole-4-carbonyl]amino]-3-methyl-butanoate
> <PUBCHEM_IUPAC_CAS_NAME>
(2S)-2-[[[5-[[3-[[[4-[[[(2S)-1-ethoxy-3-methyl-1-oxobutan-2-yl]amino]-oxomethyl]-1H-imidazol-5-yl]-oxomethyl]amino]propylamino]-oxomethyl]-1H-imidazol-4-yl]-oxomethyl]amino]-3-methylbutanoic acid ethyl ester
> <PUBCHEM_IUPAC_NAME_MARKUP>
ethyl (2<I>S</I>)-2-[[5-[3-[[4-[[(2<I>S</I>)-1-ethoxy-3-methyl-1-oxobutan-2-yl]carbamoyl]-1<I>H</I>-imidazole-5-carbonyl]amino]propylcarbamoyl]-1<I>H</I>-imidazole-4-carbonyl]amino]-3-methylbutanoate
> <PUBCHEM_IUPAC_NAME>
ethyl (2S)-2-[[5-[3-[[4-[[(2S)-1-ethoxy-3-methyl-1-oxobutan-2-yl]carbamoyl]-1H-imidazole-5-carbonyl]amino]propylcarbamoyl]-1H-imidazole-4-carbonyl]amino]-3-methylbutanoate
> <PUBCHEM_IUPAC_SYSTEMATIC_NAME>
ethyl (2S)-2-[[5-[3-[[4-[[(2S)-1-ethoxy-3-methyl-1-oxidanylidene-butan-2-yl]carbamoyl]-1H-imidazol-5-yl]carbonylamino]propylcarbamoyl]-1H-imidazol-4-yl]carbonylamino]-3-methyl-butanoate
> <PUBCHEM_IUPAC_TRADITIONAL_NAME>
(2S)-2-[[5-[3-[[4-[[(1S)-1-carbethoxy-2-methyl-propyl]carbamoyl]-1H-imidazole-5-carbonyl]amino]propylcarbamoyl]-1H-imidazole-4-carbonyl]amino]-3-methyl-butyric acid ethyl ester
> <PUBCHEM_IUPAC_INCHI>
InChI=1S/C27H40N8O8/c1-7-42-26(40)16(14(3)4)34-24(38)20-18(30-12-32-20)22(36)28-10-9-11-29-23(37)19-21(33-13-31-19)25(39)35-17(15(5)6)27(41)43-8-2/h12-17H,7-11H2,1-6H3,(H,28,36)(H,29,37)(H,30,32)(H,31,33)(H,34,38)(H,35,39)/t16-,17-/m0/s1
> <PUBCHEM_IUPAC_INCHIKEY>
SHKUFRPKULGHDF-IRXDYDNUSA-N
> <PUBCHEM_XLOGP3_AA>
2
> <PUBCHEM_EXACT_MASS>
604.29691026
> <PUBCHEM_MOLECULAR_FORMULA>
C27H40N8O8
> <PUBCHEM_MOLECULAR_WEIGHT>
604.7
> <PUBCHEM_OPENEYE_CAN_SMILES>
CCOC(=O)C(C(C)C)NC(=O)C1=C(NC=N1)C(=O)NCCCNC(=O)C2=C(N=CN2)C(=O)NC(C(C)C)C(=O)OCC
> <PUBCHEM_OPENEYE_ISO_SMILES>
CCOC(=O)[C@H](C(C)C)NC(=O)C1=C(NC=N1)C(=O)NCCCNC(=O)C2=C(N=CN2)C(=O)N[C@@H](C(C)C)C(=O)OCC
> <PUBCHEM_CACTVS_TPSA>
226
> <PUBCHEM_MONOISOTOPIC_WEIGHT>
604.29691026
> <PUBCHEM_TOTAL_CHARGE>
0
> <PUBCHEM_HEAVY_ATOM_COUNT>
43
> <PUBCHEM_ATOM_DEF_STEREO_COUNT>
2
> <PUBCHEM_ATOM_UDEF_STEREO_COUNT>
0
> <PUBCHEM_BOND_DEF_STEREO_COUNT>
0
> <PUBCHEM_BOND_UDEF_STEREO_COUNT>
0
> <PUBCHEM_ISOTOPIC_ATOM_COUNT>
0
> <PUBCHEM_COMPONENT_COUNT>
1
> <PUBCHEM_CACTVS_TAUTO_COUNT>
-1
> <PUBCHEM_COORDINATE_TYPE>
1
5
255
> <PUBCHEM_BONDANNOTATIONS>
20  10  6
13  34  8
13  40  8
14  35  8
14  41  8
15  29  8
15  40  8
16  30  8
16  41  8
29  34  8
30  35  8
19  9  5
$$$$
