510572
  -OEChem-10302200282D
 37 38  0     1  0  0  0  0  0999 V2000
    5.4897   -3.3475    0.0000 P   0  0  0  0  0  0  0  0  0  0  0  0
    5.0298    0.1351    0.0000 O   0  0  0  0  0  0  0  0  0  0  0  0
    4.9019   -2.5385    0.0000 O   0  0  0  0  0  0  0  0  0  0  0  0
    5.9529    1.7229    0.0000 O   0  0  0  0  0  0  0  0  0  0  0  0
    4.2208    4.7229    0.0000 O   0  0  0  0  0  0  0  0  0  0  0  0
    6.0774   -4.1565    0.0000 O   0  0  0  0  0  0  0  0  0  0  0  0
    4.6806   -3.9353    0.0000 O   0  0  0  0  0  0  0  0  0  0  0  0
    6.2987   -2.7597    0.0000 O   0  0  0  0  0  0  0  0  0  0  0  0
    4.2208    1.7229    0.0000 N   0  0  0  0  0  0  0  0  0  0  0  0
    2.4608    0.4442    0.0000 N   0  0  0  0  0  0  0  0  0  0  0  0
    5.0868    3.2229    0.0000 N   0  0  0  0  0  0  0  0  0  0  0  0
    3.4118    0.1351    0.0000 C   0  0  1  0  0  0  0  0  0  0  0  0
    4.2208    0.7229    0.0000 C   0  0  1  0  0  0  0  0  0  0  0  0
    3.7208   -0.8159    0.0000 C   0  0  0  0  0  0  0  0  0  0  0  0
    4.7208   -0.8159    0.0000 C   0  0  1  0  0  0  0  0  0  0  0  0
    5.3086   -1.6249    0.0000 C   0  0  0  0  0  0  0  0  0  0  0  0
    3.3548    2.2229    0.0000 C   0  0  0  0  0  0  0  0  0  0  0  0
    5.0868    2.2229    0.0000 C   0  0  0  0  0  0  0  0  0  0  0  0
    3.3548    3.2229    0.0000 C   0  0  0  0  0  0  0  0  0  0  0  0
    4.2208    3.7229    0.0000 C   0  0  0  0  0  0  0  0  0  0  0  0
    2.4888    3.7229    0.0000 C   0  0  0  0  0  0  0  0  0  0  0  0
    2.9734   -0.3033    0.0000 H   0  0  0  0  0  0  0  0  0  0  0  0
    3.6684    1.0044    0.0000 H   0  0  0  0  0  0  0  0  0  0  0  0
    3.1144   -0.9448    0.0000 H   0  0  0  0  0  0  0  0  0  0  0  0
    3.7856   -1.4325    0.0000 H   0  0  0  0  0  0  0  0  0  0  0  0
    5.3332   -0.7189    0.0000 H   0  0  0  0  0  0  0  0  0  0  0  0
    5.8226   -1.9716    0.0000 H   0  0  0  0  0  0  0  0  0  0  0  0
    5.7393   -1.1790    0.0000 H   0  0  0  0  0  0  0  0  0  0  0  0
    2.0000    0.0293    0.0000 H   0  0  0  0  0  0  0  0  0  0  0  0
    2.3318    1.0506    0.0000 H   0  0  0  0  0  0  0  0  0  0  0  0
    2.8179    1.9129    0.0000 H   0  0  0  0  0  0  0  0  0  0  0  0
    5.6238    3.5329    0.0000 H   0  0  0  0  0  0  0  0  0  0  0  0
    2.7988    4.2598    0.0000 H   0  0  0  0  0  0  0  0  0  0  0  0
    1.9518    4.0329    0.0000 H   0  0  0  0  0  0  0  0  0  0  0  0
    2.1788    3.1860    0.0000 H   0  0  0  0  0  0  0  0  0  0  0  0
    5.8253   -4.7229    0.0000 H   0  0  0  0  0  0  0  0  0  0  0  0
    4.1142   -3.6831    0.0000 H   0  0  0  0  0  0  0  0  0  0  0  0
  1  3  1  0  0  0  0
  1  6  1  0  0  0  0
  1  7  1  0  0  0  0
  1  8  2  0  0  0  0
  2 13  1  0  0  0  0
  2 15  1  0  0  0  0
  3 16  1  0  0  0  0
  4 18  2  0  0  0  0
  5 20  2  0  0  0  0
  6 36  1  0  0  0  0
  7 37  1  0  0  0  0
 13  9  1  6  0  0  0
  9 17  1  0  0  0  0
  9 18  1  0  0  0  0
 12 10  1  1  0  0  0
 10 29  1  0  0  0  0
 10 30  1  0  0  0  0
 11 18  1  0  0  0  0
 11 20  1  0  0  0  0
 11 32  1  0  0  0  0
 12 13  1  0  0  0  0
 12 14  1  0  0  0  0
 12 22  1  0  0  0  0
 13 23  1  0  0  0  0
 14 15  1  0  0  0  0
 14 24  1  0  0  0  0
 14 25  1  0  0  0  0
 15 16  1  6  0  0  0
 15 26  1  0  0  0  0
 16 27  1  0  0  0  0
 16 28  1  0  0  0  0
 17 19  2  0  0  0  0
 17 31  1  0  0  0  0
 19 20  1  0  0  0  0
 19 21  1  0  0  0  0
 21 33  1  0  0  0  0
 21 34  1  0  0  0  0
 21 35  1  0  0  0  0
M  END
> <PUBCHEM_COMPOUND_CID>
510572
> <PUBCHEM_COMPOUND_CANONICALIZED>
1
> <PUBCHEM_CACTVS_COMPLEXITY>
531
> <PUBCHEM_CACTVS_HBOND_ACCEPTOR>
8
> <PUBCHEM_CACTVS_HBOND_DONOR>
4
> <PUBCHEM_CACTVS_ROTATABLE_BOND>
4
> <PUBCHEM_CACTVS_SUBSKEYS>
AAADceBzOAIAAAAAAAAAAAAAAAAAASAAAAAgAAAAAAAAAAAAAAAAHgAQCCAADDzhgAYDAAPABRCIQgFWUICAAAAAAAAAAIEIAECDQAIAgQAfAAAOFyICAMCwMAIAAAAAAAAAAAAAAAAAAAAAAAAAAAAAAA==
> <PUBCHEM_IUPAC_OPENEYE_NAME>
[(2S,4R,5R)-4-amino-5-(5-methyl-2,4-dioxo-pyrimidin-1-yl)tetrahydrofuran-2-yl]methyl dihydrogen phosphate
> <PUBCHEM_IUPAC_CAS_NAME>
[(2S,4R,5R)-4-amino-5-(5-methyl-2,4-dioxo-1-pyrimidinyl)-2-oxolanyl]methyl dihydrogen phosphate
> <PUBCHEM_IUPAC_NAME_MARKUP>
[(2<I>S</I>,4<I>R</I>,5<I>R</I>)-4-amino-5-(5-methyl-2,4-dioxopyrimidin-1-yl)oxolan-2-yl]methyl dihydrogen phosphate
> <PUBCHEM_IUPAC_NAME>
[(2S,4R,5R)-4-amino-5-(5-methyl-2,4-dioxopyrimidin-1-yl)oxolan-2-yl]methyl dihydrogen phosphate
> <PUBCHEM_IUPAC_SYSTEMATIC_NAME>
[(2S,4R,5R)-4-azanyl-5-[5-methyl-2,4-bis(oxidanylidene)pyrimidin-1-yl]oxolan-2-yl]methyl dihydrogen phosphate
> <PUBCHEM_IUPAC_TRADITIONAL_NAME>
[(2S,4R,5R)-4-amino-5-(2,4-diketo-5-methyl-pyrimidin-1-yl)tetrahydrofuran-2-yl]methyl dihydrogen phosphate
> <PUBCHEM_IUPAC_INCHI>
InChI=1S/C10H16N3O7P/c1-5-3-13(10(15)12-8(5)14)9-7(11)2-6(20-9)4-19-21(16,17)18/h3,6-7,9H,2,4,11H2,1H3,(H,12,14,15)(H2,16,17,18)/t6-,7+,9+/m0/s1
> <PUBCHEM_IUPAC_INCHIKEY>
USQPPWYAAQNJJO-LKEWCRSYSA-N
> <PUBCHEM_XLOGP3>
-5.1
> <PUBCHEM_EXACT_MASS>
321.07258686
> <PUBCHEM_MOLECULAR_FORMULA>
C10H16N3O7P
> <PUBCHEM_MOLECULAR_WEIGHT>
321.22
> <PUBCHEM_OPENEYE_CAN_SMILES>
CC1=CN(C(=O)NC1=O)C2C(CC(O2)COP(=O)(O)O)N
> <PUBCHEM_OPENEYE_ISO_SMILES>
CC1=CN(C(=O)NC1=O)[C@H]2[C@@H](C[C@H](O2)COP(=O)(O)O)N
> <PUBCHEM_CACTVS_TPSA>
151
> <PUBCHEM_MONOISOTOPIC_WEIGHT>
321.07258686
> <PUBCHEM_TOTAL_CHARGE>
0
> <PUBCHEM_HEAVY_ATOM_COUNT>
21
> <PUBCHEM_ATOM_DEF_STEREO_COUNT>
3
> <PUBCHEM_ATOM_UDEF_STEREO_COUNT>
0
> <PUBCHEM_BOND_DEF_STEREO_COUNT>
0
> <PUBCHEM_BOND_UDEF_STEREO_COUNT>
0
> <PUBCHEM_ISOTOPIC_ATOM_COUNT>
0
> <PUBCHEM_COMPONENT_COUNT>
1
> <PUBCHEM_CACTVS_TAUTO_COUNT>
-1
> <PUBCHEM_COORDINATE_TYPE>
1
5
255
> <PUBCHEM_BONDANNOTATIONS>
12  10  5
11  18  8
11  20  8
15  16  6
17  19  8
19  20  8
13  9  6
9  17  8
9  18  8
$$$$
