510554
  -OEChem-10302200282D
104108  0     1  0  0  0  0  0999 V2000
    6.0197    5.7249    0.0000 O   0  0  0  0  0  0  0  0  0  0  0  0
    8.5472   -7.7323    0.0000 O   0  0  0  0  0  0  0  0  0  0  0  0
    7.7139    5.3648    0.0000 O   0  0  0  0  0  0  0  0  0  0  0  0
    7.3882   -9.0195    0.0000 O   0  0  0  0  0  0  0  0  0  0  0  0
    6.1391    2.1213    0.0000 O   0  0  0  0  0  0  0  0  0  0  0  0
    5.3667   -6.0339    0.0000 O   0  0  0  0  0  0  0  0  0  0  0  0
    5.9967    0.7667    0.0000 O   0  0  0  0  0  0  0  0  0  0  0  0
    2.5326   -5.2333    0.0000 O   0  0  0  0  0  0  0  0  0  0  0  0
    7.2981    3.4085    0.0000 N   0  0  0  0  0  0  0  0  0  0  0  0
    5.9019   -7.6812    0.0000 N   0  0  0  0  0  0  0  0  0  0  0  0
    8.6423    0.3600    0.0000 N   0  0  0  0  0  0  0  0  0  0  0  0
    2.5896   -7.3211    0.0000 N   0  0  0  0  0  0  0  0  0  0  0  0
    8.8115    1.9691    0.0000 N   0  0  0  0  0  0  0  0  0  0  0  0
    3.8987   -8.2721    0.0000 N   0  0  0  0  0  0  0  0  0  0  0  0
    6.8628   -0.7333    0.0000 N   0  0  0  0  0  0  0  0  0  0  0  0
    4.2647   -5.2333    0.0000 N   0  0  0  0  0  0  0  0  0  0  0  0
    5.6039    3.7686    0.0000 C   0  0  0  0  0  0  0  0  0  0  0  0
    7.0609   -6.3940    0.0000 C   0  0  0  0  0  0  0  0  0  0  0  0
    6.5550    4.0776    0.0000 C   0  0  1  0  0  0  0  0  0  0  0  0
    6.8530   -7.3722    0.0000 C   0  0  1  0  0  0  0  0  0  0  0  0
    4.8608    4.4377    0.0000 C   0  0  0  0  0  0  0  0  0  0  0  0
    5.3960    2.7905    0.0000 C   0  0  0  0  0  0  0  0  0  0  0  0
    8.0119   -6.0850    0.0000 C   0  0  0  0  0  0  0  0  0  0  0  0
    6.3177   -5.7249    0.0000 C   0  0  0  0  0  0  0  0  0  0  0  0
    6.7629    5.0558    0.0000 C   0  0  0  0  0  0  0  0  0  0  0  0
    7.5961   -8.0413    0.0000 C   0  0  0  0  0  0  0  0  0  0  0  0
    7.0902    2.4303    0.0000 C   0  0  0  0  0  0  0  0  0  0  0  0
    5.1588   -7.0121    0.0000 C   0  0  0  0  0  0  0  0  0  0  0  0
    7.8333    1.7612    0.0000 C   0  0  0  0  0  0  0  0  0  0  0  0
    4.2077   -7.3211    0.0000 C   0  0  0  0  0  0  0  0  0  0  0  0
    7.7288    0.7667    0.0000 C   0  0  0  0  0  0  0  0  0  0  0  0
    3.3987   -6.7333    0.0000 C   0  0  0  0  0  0  0  0  0  0  0  0
    6.2276    6.7030    0.0000 C   0  0  0  0  0  0  0  0  0  0  0  0
    9.2903   -8.4014    0.0000 C   0  0  0  0  0  0  0  0  0  0  0  0
    5.9967   -2.2333    0.0000 C   0  0  0  0  0  0  0  0  0  0  0  0
    5.1307   -3.7333    0.0000 C   0  0  0  0  0  0  0  0  0  0  0  0
    5.9967   -1.2333    0.0000 C   0  0  0  0  0  0  0  0  0  0  0  0
    4.2647   -4.2333    0.0000 C   0  0  0  0  0  0  0  0  0  0  0  0
    6.8628    0.2667    0.0000 C   0  0  0  0  0  0  0  0  0  0  0  0
    3.3987   -5.7333    0.0000 C   0  0  0  0  0  0  0  0  0  0  0  0
    5.1307   -2.7333    0.0000 C   0  0  0  0  0  0  0  0  0  0  0  0
    5.4845    7.3722    0.0000 C   0  0  0  0  0  0  0  0  0  0  0  0
   10.2413   -8.0924    0.0000 C   0  0  0  0  0  0  0  0  0  0  0  0
    9.3115    1.1031    0.0000 C   0  0  0  0  0  0  0  0  0  0  0  0
    2.8987   -8.2721    0.0000 C   0  0  0  0  0  0  0  0  0  0  0  0
    6.8628   -2.7333    0.0000 C   0  0  0  0  0  0  0  0  0  0  0  0
    5.9967   -4.2333    0.0000 C   0  0  0  0  0  0  0  0  0  0  0  0
    6.8628   -3.7333    0.0000 C   0  0  0  0  0  0  0  0  0  0  0  0
    4.5334    7.0632    0.0000 C   0  0  0  0  0  0  0  0  0  0  0  0
   10.9845   -8.7615    0.0000 C   0  0  0  0  0  0  0  0  0  0  0  0
    5.6924    8.3503    0.0000 C   0  0  0  0  0  0  0  0  0  0  0  0
   10.4493   -7.1143    0.0000 C   0  0  0  0  0  0  0  0  0  0  0  0
    3.7903    7.7323    0.0000 C   0  0  0  0  0  0  0  0  0  0  0  0
   11.9356   -8.4525    0.0000 C   0  0  0  0  0  0  0  0  0  0  0  0
    4.9492    9.0195    0.0000 C   0  0  0  0  0  0  0  0  0  0  0  0
   11.4003   -6.8052    0.0000 C   0  0  0  0  0  0  0  0  0  0  0  0
    3.9982    8.7104    0.0000 C   0  0  0  0  0  0  0  0  0  0  0  0
   12.1435   -7.4744    0.0000 C   0  0  0  0  0  0  0  0  0  0  0  0
    5.0142    3.5770    0.0000 H   0  0  0  0  0  0  0  0  0  0  0  0
    7.1898   -5.7876    0.0000 H   0  0  0  0  0  0  0  0  0  0  0  0
    7.1446    4.2692    0.0000 H   0  0  0  0  0  0  0  0  0  0  0  0
    6.3922   -6.9573    0.0000 H   0  0  0  0  0  0  0  0  0  0  0  0
    5.2756    4.8985    0.0000 H   0  0  0  0  0  0  0  0  0  0  0  0
    4.4000    4.8526    0.0000 H   0  0  0  0  0  0  0  0  0  0  0  0
    4.4459    3.9770    0.0000 H   0  0  0  0  0  0  0  0  0  0  0  0
    4.7895    2.9194    0.0000 H   0  0  0  0  0  0  0  0  0  0  0  0
    5.2671    2.1840    0.0000 H   0  0  0  0  0  0  0  0  0  0  0  0
    6.0024    2.6616    0.0000 H   0  0  0  0  0  0  0  0  0  0  0  0
    8.2035   -6.6747    0.0000 H   0  0  0  0  0  0  0  0  0  0  0  0
    8.6016   -5.8934    0.0000 H   0  0  0  0  0  0  0  0  0  0  0  0
    7.8203   -5.4954    0.0000 H   0  0  0  0  0  0  0  0  0  0  0  0
    6.7326   -5.2642    0.0000 H   0  0  0  0  0  0  0  0  0  0  0  0
    5.8570   -5.3101    0.0000 H   0  0  0  0  0  0  0  0  0  0  0  0
    5.9028   -6.1857    0.0000 H   0  0  0  0  0  0  0  0  0  0  0  0
    7.8878    3.6001    0.0000 H   0  0  0  0  0  0  0  0  0  0  0  0
    5.7730   -8.2876    0.0000 H   0  0  0  0  0  0  0  0  0  0  0  0
    6.8025    6.4708    0.0000 H   0  0  0  0  0  0  0  0  0  0  0  0
    6.5562    7.2288    0.0000 H   0  0  0  0  0  0  0  0  0  0  0  0
    8.8017   -8.7831    0.0000 H   0  0  0  0  0  0  0  0  0  0  0  0
    9.5814   -8.9489    0.0000 H   0  0  0  0  0  0  0  0  0  0  0  0
    5.7847   -0.6507    0.0000 H   0  0  0  0  0  0  0  0  0  0  0  0
    5.3862   -1.3410    0.0000 H   0  0  0  0  0  0  0  0  0  0  0  0
    4.0526   -3.6507    0.0000 H   0  0  0  0  0  0  0  0  0  0  0  0
    3.6541   -4.3410    0.0000 H   0  0  0  0  0  0  0  0  0  0  0  0
    8.7712   -0.2465    0.0000 H   0  0  0  0  0  0  0  0  0  0  0  0
    2.0000   -7.1295    0.0000 H   0  0  0  0  0  0  0  0  0  0  0  0
    4.5938   -2.4233    0.0000 H   0  0  0  0  0  0  0  0  0  0  0  0
    7.3997   -1.0433    0.0000 H   0  0  0  0  0  0  0  0  0  0  0  0
    4.8016   -5.5433    0.0000 H   0  0  0  0  0  0  0  0  0  0  0  0
    9.9281    1.0383    0.0000 H   0  0  0  0  0  0  0  0  0  0  0  0
    2.5342   -8.7737    0.0000 H   0  0  0  0  0  0  0  0  0  0  0  0
    7.3997   -2.4233    0.0000 H   0  0  0  0  0  0  0  0  0  0  0  0
    5.9967   -4.8533    0.0000 H   0  0  0  0  0  0  0  0  0  0  0  0
    7.3997   -4.0433    0.0000 H   0  0  0  0  0  0  0  0  0  0  0  0
    4.4045    6.4567    0.0000 H   0  0  0  0  0  0  0  0  0  0  0  0
   10.8556   -9.3680    0.0000 H   0  0  0  0  0  0  0  0  0  0  0  0
    6.2820    8.5419    0.0000 H   0  0  0  0  0  0  0  0  0  0  0  0
    9.9885   -6.6994    0.0000 H   0  0  0  0  0  0  0  0  0  0  0  0
    3.2006    7.5407    0.0000 H   0  0  0  0  0  0  0  0  0  0  0  0
   12.3963   -8.8674    0.0000 H   0  0  0  0  0  0  0  0  0  0  0  0
    5.0782    9.6259    0.0000 H   0  0  0  0  0  0  0  0  0  0  0  0
   11.5292   -6.1988    0.0000 H   0  0  0  0  0  0  0  0  0  0  0  0
    3.5374    9.1253    0.0000 H   0  0  0  0  0  0  0  0  0  0  0  0
   12.7331   -7.2828    0.0000 H   0  0  0  0  0  0  0  0  0  0  0  0
  1 25  1  0  0  0  0
  1 33  1  0  0  0  0
  2 26  1  0  0  0  0
  2 34  1  0  0  0  0
  3 25  2  0  0  0  0
  4 26  2  0  0  0  0
  5 27  2  0  0  0  0
  6 28  2  0  0  0  0
  7 39  2  0  0  0  0
  8 40  2  0  0  0  0
 19  9  1  1  0  0  0
  9 27  1  0  0  0  0
  9 75  1  0  0  0  0
 20 10  1  1  0  0  0
 10 28  1  0  0  0  0
 10 76  1  0  0  0  0
 11 31  1  0  0  0  0
 11 44  1  0  0  0  0
 11 85  1  0  0  0  0
 12 32  1  0  0  0  0
 12 45  1  0  0  0  0
 12 86  1  0  0  0  0
 13 29  1  0  0  0  0
 13 44  2  0  0  0  0
 14 30  1  0  0  0  0
 14 45  2  0  0  0  0
 15 37  1  0  0  0  0
 15 39  1  0  0  0  0
 15 88  1  0  0  0  0
 16 38  1  0  0  0  0
 16 40  1  0  0  0  0
 16 89  1  0  0  0  0
 17 19  1  0  0  0  0
 17 21  1  0  0  0  0
 17 22  1  0  0  0  0
 17 59  1  0  0  0  0
 18 20  1  0  0  0  0
 18 23  1  0  0  0  0
 18 24  1  0  0  0  0
 18 60  1  0  0  0  0
 19 25  1  0  0  0  0
 19 61  1  0  0  0  0
 20 26  1  0  0  0  0
 20 62  1  0  0  0  0
 21 63  1  0  0  0  0
 21 64  1  0  0  0  0
 21 65  1  0  0  0  0
 22 66  1  0  0  0  0
 22 67  1  0  0  0  0
 22 68  1  0  0  0  0
 23 69  1  0  0  0  0
 23 70  1  0  0  0  0
 23 71  1  0  0  0  0
 24 72  1  0  0  0  0
 24 73  1  0  0  0  0
 24 74  1  0  0  0  0
 27 29  1  0  0  0  0
 28 30  1  0  0  0  0
 29 31  2  0  0  0  0
 30 32  2  0  0  0  0
 31 39  1  0  0  0  0
 32 40  1  0  0  0  0
 33 42  1  0  0  0  0
 33 77  1  0  0  0  0
 33 78  1  0  0  0  0
 34 43  1  0  0  0  0
 34 79  1  0  0  0  0
 34 80  1  0  0  0  0
 35 37  1  0  0  0  0
 35 41  2  0  0  0  0
 35 46  1  0  0  0  0
 36 38  1  0  0  0  0
 36 41  1  0  0  0  0
 36 47  2  0  0  0  0
 37 81  1  0  0  0  0
 37 82  1  0  0  0  0
 38 83  1  0  0  0  0
 38 84  1  0  0  0  0
 41 87  1  0  0  0  0
 42 49  2  0  0  0  0
 42 51  1  0  0  0  0
 43 50  2  0  0  0  0
 43 52  1  0  0  0  0
 44 90  1  0  0  0  0
 45 91  1  0  0  0  0
 46 48  2  0  0  0  0
 46 92  1  0  0  0  0
 47 48  1  0  0  0  0
 47 93  1  0  0  0  0
 48 94  1  0  0  0  0
 49 53  1  0  0  0  0
 49 95  1  0  0  0  0
 50 54  1  0  0  0  0
 50 96  1  0  0  0  0
 51 55  2  0  0  0  0
 51 97  1  0  0  0  0
 52 56  2  0  0  0  0
 52 98  1  0  0  0  0
 53 57  2  0  0  0  0
 53 99  1  0  0  0  0
 54 58  2  0  0  0  0
 54100  1  0  0  0  0
 55 57  1  0  0  0  0
 55101  1  0  0  0  0
 56 58  1  0  0  0  0
 56102  1  0  0  0  0
 57103  1  0  0  0  0
 58104  1  0  0  0  0
M  END
> <PUBCHEM_COMPOUND_CID>
510554
> <PUBCHEM_COMPOUND_CANONICALIZED>
1
> <PUBCHEM_CACTVS_COMPLEXITY>
1290
> <PUBCHEM_CACTVS_HBOND_ACCEPTOR>
10
> <PUBCHEM_CACTVS_HBOND_DONOR>
6
> <PUBCHEM_CACTVS_ROTATABLE_BOND>
20
> <PUBCHEM_CACTVS_SUBSKEYS>
AAADcfB//AAAAAAAAAAAAAAAAAAAAWLAAAAwYMAAAAAAAAAB9AAAHgAQAAAADSjhngY3mJbJlACoAyXzfACCgC23EKAJ2YGoXMiKbjrA+TmXMYhs1gPYqWeVwGAOAAACAAAAAAAAAAQAAAAAAAAAAAAAAA==
> <PUBCHEM_IUPAC_OPENEYE_NAME>
benzyl (2S)-2-[[5-[[3-[[[4-[[(1S)-1-benzyloxycarbonyl-2-methyl-propyl]carbamoyl]-1H-imidazole-5-carbonyl]amino]methyl]phenyl]methylcarbamoyl]-1H-imidazole-4-carbonyl]amino]-3-methyl-butanoate
> <PUBCHEM_IUPAC_CAS_NAME>
(2S)-3-methyl-2-[[[5-[[[3-[[[[4-[[[(2S)-3-methyl-1-oxo-1-phenylmethoxybutan-2-yl]amino]-oxomethyl]-1H-imidazol-5-yl]-oxomethyl]amino]methyl]phenyl]methylamino]-oxomethyl]-1H-imidazol-4-yl]-oxomethyl]amino]butanoic acid (phenylmethyl) ester
> <PUBCHEM_IUPAC_NAME_MARKUP>
benzyl (2<I>S</I>)-3-methyl-2-[[5-[[3-[[[4-[[(2<I>S</I>)-3-methyl-1-oxo-1-phenylmethoxybutan-2-yl]carbamoyl]-1<I>H</I>-imidazole-5-carbonyl]amino]methyl]phenyl]methylcarbamoyl]-1<I>H</I>-imidazole-4-carbonyl]amino]butanoate
> <PUBCHEM_IUPAC_NAME>
benzyl (2S)-3-methyl-2-[[5-[[3-[[[4-[[(2S)-3-methyl-1-oxo-1-phenylmethoxybutan-2-yl]carbamoyl]-1H-imidazole-5-carbonyl]amino]methyl]phenyl]methylcarbamoyl]-1H-imidazole-4-carbonyl]amino]butanoate
> <PUBCHEM_IUPAC_SYSTEMATIC_NAME>
(phenylmethyl) (2S)-3-methyl-2-[[5-[[3-[[[4-[[(2S)-3-methyl-1-oxidanylidene-1-phenylmethoxy-butan-2-yl]carbamoyl]-1H-imidazol-5-yl]carbonylamino]methyl]phenyl]methylcarbamoyl]-1H-imidazol-4-yl]carbonylamino]butanoate
> <PUBCHEM_IUPAC_TRADITIONAL_NAME>
(2S)-2-[[5-[[3-[[[4-[[(1S)-1-carbobenzoxy-2-methyl-propyl]carbamoyl]-1H-imidazole-5-carbonyl]amino]methyl]benzyl]carbamoyl]-1H-imidazole-4-carbonyl]amino]-3-methyl-butyric acid benzyl ester
> <PUBCHEM_IUPAC_INCHI>
InChI=1S/C42H46N8O8/c1-25(2)31(41(55)57-21-27-12-7-5-8-13-27)49-39(53)35-33(45-23-47-35)37(51)43-19-29-16-11-17-30(18-29)20-44-38(52)34-36(48-24-46-34)40(54)50-32(26(3)4)42(56)58-22-28-14-9-6-10-15-28/h5-18,23-26,31-32H,19-22H2,1-4H3,(H,43,51)(H,44,52)(H,45,47)(H,46,48)(H,49,53)(H,50,54)/t31-,32-/m0/s1
> <PUBCHEM_IUPAC_INCHIKEY>
LKXUNOGKMSIDON-ACHIHNKUSA-N
> <PUBCHEM_XLOGP3_AA>
5.2
> <PUBCHEM_EXACT_MASS>
790.34386046
> <PUBCHEM_MOLECULAR_FORMULA>
C42H46N8O8
> <PUBCHEM_MOLECULAR_WEIGHT>
790.9
> <PUBCHEM_OPENEYE_CAN_SMILES>
CC(C)C(C(=O)OCC1=CC=CC=C1)NC(=O)C2=C(NC=N2)C(=O)NCC3=CC(=CC=C3)CNC(=O)C4=C(N=CN4)C(=O)NC(C(C)C)C(=O)OCC5=CC=CC=C5
> <PUBCHEM_OPENEYE_ISO_SMILES>
CC(C)[C@@H](C(=O)OCC1=CC=CC=C1)NC(=O)C2=C(NC=N2)C(=O)NCC3=CC(=CC=C3)CNC(=O)C4=C(N=CN4)C(=O)N[C@@H](C(C)C)C(=O)OCC5=CC=CC=C5
> <PUBCHEM_CACTVS_TPSA>
226
> <PUBCHEM_MONOISOTOPIC_WEIGHT>
790.34386046
> <PUBCHEM_TOTAL_CHARGE>
0
> <PUBCHEM_HEAVY_ATOM_COUNT>
58
> <PUBCHEM_ATOM_DEF_STEREO_COUNT>
2
> <PUBCHEM_ATOM_UDEF_STEREO_COUNT>
0
> <PUBCHEM_BOND_DEF_STEREO_COUNT>
0
> <PUBCHEM_BOND_UDEF_STEREO_COUNT>
0
> <PUBCHEM_ISOTOPIC_ATOM_COUNT>
0
> <PUBCHEM_COMPONENT_COUNT>
1
> <PUBCHEM_CACTVS_TAUTO_COUNT>
-1
> <PUBCHEM_COORDINATE_TYPE>
1
5
255
> <PUBCHEM_BONDANNOTATIONS>
20  10  5
11  31  8
11  44  8
12  32  8
12  45  8
13  29  8
13  44  8
14  30  8
14  45  8
29  31  8
30  32  8
35  41  8
35  46  8
36  41  8
36  47  8
42  49  8
42  51  8
43  50  8
43  52  8
46  48  8
47  48  8
49  53  8
50  54  8
51  55  8
52  56  8
53  57  8
54  58  8
55  57  8
56  58  8
19  9  5
$$$$
