510535
  -OEChem-10302200282D
 94 97  0     1  0  0  0  0  0999 V2000
    3.7320   -1.5731    0.0000 O   0  0  0  0  0  0  0  0  0  0  0  0
   11.6659   -1.4192    0.0000 O   0  0  0  0  0  0  0  0  0  0  0  0
    2.8660   -0.0731    0.0000 O   0  0  0  0  0  0  0  0  0  0  0  0
   13.2482   -0.7147    0.0000 O   0  0  0  0  0  0  0  0  0  0  0  0
    6.3301    0.9269    0.0000 O   0  0  0  0  0  0  0  0  0  0  0  0
   11.0335    2.1304    0.0000 O   0  0  0  0  0  0  0  0  0  0  0  0
    7.4321    1.7275    0.0000 O   0  0  0  0  0  0  0  0  0  0  0  0
   11.1478    5.0731    0.0000 O   0  0  0  0  0  0  0  0  0  0  0  0
    4.5981    0.9269    0.0000 N   0  0  0  0  0  0  0  0  0  0  0  0
   12.4347    1.1124    0.0000 N   0  0  0  0  0  0  0  0  0  0  0  0
    5.9641    3.9657    0.0000 N   0  0  0  0  0  0  0  0  0  0  0  0
   13.1158    4.3738    0.0000 N   0  0  0  0  0  0  0  0  0  0  0  0
    4.6551    3.0146    0.0000 N   0  0  0  0  0  0  0  0  0  0  0  0
   13.6158    2.8349    0.0000 N   0  0  0  0  0  0  0  0  0  0  0  0
    7.9673    3.3748    0.0000 N   0  0  0  0  0  0  0  0  0  0  0  0
   10.6126    3.4259    0.0000 N   0  0  0  0  0  0  0  0  0  0  0  0
    5.4641   -0.5731    0.0000 C   0  0  0  0  0  0  0  0  0  0  0  0
   10.8524    0.4079    0.0000 C   0  0  0  0  0  0  0  0  0  0  0  0
    4.5981   -0.0731    0.0000 C   0  0  1  0  0  0  0  0  0  0  0  0
   11.8470    0.3033    0.0000 C   0  0  1  0  0  0  0  0  0  0  0  0
    6.3301   -0.0731    0.0000 C   0  0  0  0  0  0  0  0  0  0  0  0
    5.4641   -1.5731    0.0000 C   0  0  0  0  0  0  0  0  0  0  0  0
   10.2647   -0.4012    0.0000 C   0  0  0  0  0  0  0  0  0  0  0  0
   10.4457    1.3214    0.0000 C   0  0  0  0  0  0  0  0  0  0  0  0
    3.7320   -0.5731    0.0000 C   0  0  0  0  0  0  0  0  0  0  0  0
   12.2537   -0.6102    0.0000 C   0  0  0  0  0  0  0  0  0  0  0  0
    5.4641    1.4269    0.0000 C   0  0  0  0  0  0  0  0  0  0  0  0
   12.0280    2.0259    0.0000 C   0  0  0  0  0  0  0  0  0  0  0  0
    5.4641    2.4269    0.0000 C   0  0  0  0  0  0  0  0  0  0  0  0
   12.6158    2.8349    0.0000 C   0  0  0  0  0  0  0  0  0  0  0  0
    6.2731    3.0146    0.0000 C   0  0  0  0  0  0  0  0  0  0  0  0
   12.3068    3.7860    0.0000 C   0  0  0  0  0  0  0  0  0  0  0  0
    2.8660   -2.0731    0.0000 C   0  0  0  0  0  0  0  0  0  0  0  0
   12.0726   -2.3328    0.0000 C   0  0  0  0  0  0  0  0  0  0  0  0
    8.9184    3.0658    0.0000 C   0  0  0  0  0  0  0  0  0  0  0  0
    9.6615    3.7349    0.0000 C   0  0  0  0  0  0  0  0  0  0  0  0
    7.2242    2.7056    0.0000 C   0  0  0  0  0  0  0  0  0  0  0  0
   11.3557    4.0950    0.0000 C   0  0  0  0  0  0  0  0  0  0  0  0
    2.8660   -3.0731    0.0000 C   0  0  0  0  0  0  0  0  0  0  0  0
   11.4849   -3.1418    0.0000 C   0  0  0  0  0  0  0  0  0  0  0  0
    4.9641    3.9657    0.0000 C   0  0  0  0  0  0  0  0  0  0  0  0
   13.9248    3.7860    0.0000 C   0  0  0  0  0  0  0  0  0  0  0  0
    2.0000   -3.5731    0.0000 C   0  0  0  0  0  0  0  0  0  0  0  0
    3.7320   -3.5731    0.0000 C   0  0  0  0  0  0  0  0  0  0  0  0
   11.8916   -4.0553    0.0000 C   0  0  0  0  0  0  0  0  0  0  0  0
   10.4903   -3.0373    0.0000 C   0  0  0  0  0  0  0  0  0  0  0  0
    2.0000   -4.5731    0.0000 C   0  0  0  0  0  0  0  0  0  0  0  0
    3.7320   -4.5731    0.0000 C   0  0  0  0  0  0  0  0  0  0  0  0
   11.3038   -4.8644    0.0000 C   0  0  0  0  0  0  0  0  0  0  0  0
    9.9026   -3.8463    0.0000 C   0  0  0  0  0  0  0  0  0  0  0  0
    2.8660   -5.0731    0.0000 C   0  0  0  0  0  0  0  0  0  0  0  0
   10.3093   -4.7598    0.0000 C   0  0  0  0  0  0  0  0  0  0  0  0
    5.4641    0.0469    0.0000 H   0  0  0  0  0  0  0  0  0  0  0  0
   11.2169    0.9095    0.0000 H   0  0  0  0  0  0  0  0  0  0  0  0
    4.0611    0.2369    0.0000 H   0  0  0  0  0  0  0  0  0  0  0  0
   12.4636    0.2385    0.0000 H   0  0  0  0  0  0  0  0  0  0  0  0
    6.6401   -0.6101    0.0000 H   0  0  0  0  0  0  0  0  0  0  0  0
    6.8671    0.2369    0.0000 H   0  0  0  0  0  0  0  0  0  0  0  0
    6.0201    0.4638    0.0000 H   0  0  0  0  0  0  0  0  0  0  0  0
    4.8441   -1.5731    0.0000 H   0  0  0  0  0  0  0  0  0  0  0  0
    5.4641   -2.1931    0.0000 H   0  0  0  0  0  0  0  0  0  0  0  0
    6.0841   -1.5731    0.0000 H   0  0  0  0  0  0  0  0  0  0  0  0
    9.7631   -0.0367    0.0000 H   0  0  0  0  0  0  0  0  0  0  0  0
    9.9002   -0.9027    0.0000 H   0  0  0  0  0  0  0  0  0  0  0  0
   10.7662   -0.7656    0.0000 H   0  0  0  0  0  0  0  0  0  0  0  0
   11.0121    1.5736    0.0000 H   0  0  0  0  0  0  0  0  0  0  0  0
   10.1935    1.8878    0.0000 H   0  0  0  0  0  0  0  0  0  0  0  0
    9.8793    1.0692    0.0000 H   0  0  0  0  0  0  0  0  0  0  0  0
    4.0611    1.2369    0.0000 H   0  0  0  0  0  0  0  0  0  0  0  0
   13.0514    1.0476    0.0000 H   0  0  0  0  0  0  0  0  0  0  0  0
    2.6540   -1.4905    0.0000 H   0  0  0  0  0  0  0  0  0  0  0  0
    2.2554   -2.1808    0.0000 H   0  0  0  0  0  0  0  0  0  0  0  0
   12.5033   -2.7788    0.0000 H   0  0  0  0  0  0  0  0  0  0  0  0
   12.5867   -1.9861    0.0000 H   0  0  0  0  0  0  0  0  0  0  0  0
    8.6273    2.5183    0.0000 H   0  0  0  0  0  0  0  0  0  0  0  0
    9.4069    2.6840    0.0000 H   0  0  0  0  0  0  0  0  0  0  0  0
    9.9526    4.2823    0.0000 H   0  0  0  0  0  0  0  0  0  0  0  0
    9.1730    4.1166    0.0000 H   0  0  0  0  0  0  0  0  0  0  0  0
    6.3285    4.4673    0.0000 H   0  0  0  0  0  0  0  0  0  0  0  0
   13.1158    4.9938    0.0000 H   0  0  0  0  0  0  0  0  0  0  0  0
    7.8384    3.9812    0.0000 H   0  0  0  0  0  0  0  0  0  0  0  0
   10.7415    2.8194    0.0000 H   0  0  0  0  0  0  0  0  0  0  0  0
    4.5997    4.4673    0.0000 H   0  0  0  0  0  0  0  0  0  0  0  0
   14.5145    3.9776    0.0000 H   0  0  0  0  0  0  0  0  0  0  0  0
    1.4631   -3.2631    0.0000 H   0  0  0  0  0  0  0  0  0  0  0  0
    4.2690   -3.2631    0.0000 H   0  0  0  0  0  0  0  0  0  0  0  0
   12.5082   -4.1201    0.0000 H   0  0  0  0  0  0  0  0  0  0  0  0
   10.2382   -2.4709    0.0000 H   0  0  0  0  0  0  0  0  0  0  0  0
    1.4631   -4.8831    0.0000 H   0  0  0  0  0  0  0  0  0  0  0  0
    4.2690   -4.8831    0.0000 H   0  0  0  0  0  0  0  0  0  0  0  0
   11.5560   -5.4308    0.0000 H   0  0  0  0  0  0  0  0  0  0  0  0
    9.2860   -3.7815    0.0000 H   0  0  0  0  0  0  0  0  0  0  0  0
    2.8660   -5.6931    0.0000 H   0  0  0  0  0  0  0  0  0  0  0  0
    9.9449   -5.2614    0.0000 H   0  0  0  0  0  0  0  0  0  0  0  0
  1 25  1  0  0  0  0
  1 33  1  0  0  0  0
  2 26  1  0  0  0  0
  2 34  1  0  0  0  0
  3 25  2  0  0  0  0
  4 26  2  0  0  0  0
  5 27  2  0  0  0  0
  6 28  2  0  0  0  0
  7 37  2  0  0  0  0
  8 38  2  0  0  0  0
 19  9  1  1  0  0  0
  9 27  1  0  0  0  0
  9 69  1  0  0  0  0
 20 10  1  6  0  0  0
 10 28  1  0  0  0  0
 10 70  1  0  0  0  0
 11 31  1  0  0  0  0
 11 41  1  0  0  0  0
 11 79  1  0  0  0  0
 12 32  1  0  0  0  0
 12 42  1  0  0  0  0
 12 80  1  0  0  0  0
 13 29  1  0  0  0  0
 13 41  2  0  0  0  0
 14 30  1  0  0  0  0
 14 42  2  0  0  0  0
 15 35  1  0  0  0  0
 15 37  1  0  0  0  0
 15 81  1  0  0  0  0
 16 36  1  0  0  0  0
 16 38  1  0  0  0  0
 16 82  1  0  0  0  0
 17 19  1  0  0  0  0
 17 21  1  0  0  0  0
 17 22  1  0  0  0  0
 17 53  1  0  0  0  0
 18 20  1  0  0  0  0
 18 23  1  0  0  0  0
 18 24  1  0  0  0  0
 18 54  1  0  0  0  0
 19 25  1  0  0  0  0
 19 55  1  0  0  0  0
 20 26  1  0  0  0  0
 20 56  1  0  0  0  0
 21 57  1  0  0  0  0
 21 58  1  0  0  0  0
 21 59  1  0  0  0  0
 22 60  1  0  0  0  0
 22 61  1  0  0  0  0
 22 62  1  0  0  0  0
 23 63  1  0  0  0  0
 23 64  1  0  0  0  0
 23 65  1  0  0  0  0
 24 66  1  0  0  0  0
 24 67  1  0  0  0  0
 24 68  1  0  0  0  0
 27 29  1  0  0  0  0
 28 30  1  0  0  0  0
 29 31  2  0  0  0  0
 30 32  2  0  0  0  0
 31 37  1  0  0  0  0
 32 38  1  0  0  0  0
 33 39  1  0  0  0  0
 33 71  1  0  0  0  0
 33 72  1  0  0  0  0
 34 40  1  0  0  0  0
 34 73  1  0  0  0  0
 34 74  1  0  0  0  0
 35 36  1  0  0  0  0
 35 75  1  0  0  0  0
 35 76  1  0  0  0  0
 36 77  1  0  0  0  0
 36 78  1  0  0  0  0
 39 43  2  0  0  0  0
 39 44  1  0  0  0  0
 40 45  2  0  0  0  0
 40 46  1  0  0  0  0
 41 83  1  0  0  0  0
 42 84  1  0  0  0  0
 43 47  1  0  0  0  0
 43 85  1  0  0  0  0
 44 48  2  0  0  0  0
 44 86  1  0  0  0  0
 45 49  1  0  0  0  0
 45 87  1  0  0  0  0
 46 50  2  0  0  0  0
 46 88  1  0  0  0  0
 47 51  2  0  0  0  0
 47 89  1  0  0  0  0
 48 51  1  0  0  0  0
 48 90  1  0  0  0  0
 49 52  2  0  0  0  0
 49 91  1  0  0  0  0
 50 52  1  0  0  0  0
 50 92  1  0  0  0  0
 51 93  1  0  0  0  0
 52 94  1  0  0  0  0
M  END
> <PUBCHEM_COMPOUND_CID>
510535
> <PUBCHEM_COMPOUND_CANONICALIZED>
1
> <PUBCHEM_CACTVS_COMPLEXITY>
1130
> <PUBCHEM_CACTVS_HBOND_ACCEPTOR>
10
> <PUBCHEM_CACTVS_HBOND_DONOR>
6
> <PUBCHEM_CACTVS_ROTATABLE_BOND>
19
> <PUBCHEM_CACTVS_SUBSKEYS>
AAADcfB//AAAAAAAAAAAAAAAAAAAAWLAAAAwYAAAAAAAAAAB9AAAHgAQAAAADSjhngY3mJbJlACoAyXzfACCgC23EKAJ2YGoXMiKbjrA+TiXMYhs1gPYqWeFwCAOAAAAAAAAAAAAAAAAAAAAAAAAAAAAAA==
> <PUBCHEM_IUPAC_OPENEYE_NAME>
benzyl (2S)-2-[[5-[2-[[4-[[(1S)-1-benzyloxycarbonyl-2-methyl-propyl]carbamoyl]-1H-imidazole-5-carbonyl]amino]ethylcarbamoyl]-1H-imidazole-4-carbonyl]amino]-3-methyl-butanoate
> <PUBCHEM_IUPAC_CAS_NAME>
(2S)-3-methyl-2-[[[5-[[2-[[[4-[[[(2S)-3-methyl-1-oxo-1-phenylmethoxybutan-2-yl]amino]-oxomethyl]-1H-imidazol-5-yl]-oxomethyl]amino]ethylamino]-oxomethyl]-1H-imidazol-4-yl]-oxomethyl]amino]butanoic acid (phenylmethyl) ester
> <PUBCHEM_IUPAC_NAME_MARKUP>
benzyl (2<I>S</I>)-3-methyl-2-[[5-[2-[[4-[[(2<I>S</I>)-3-methyl-1-oxo-1-phenylmethoxybutan-2-yl]carbamoyl]-1<I>H</I>-imidazole-5-carbonyl]amino]ethylcarbamoyl]-1<I>H</I>-imidazole-4-carbonyl]amino]butanoate
> <PUBCHEM_IUPAC_NAME>
benzyl (2S)-3-methyl-2-[[5-[2-[[4-[[(2S)-3-methyl-1-oxo-1-phenylmethoxybutan-2-yl]carbamoyl]-1H-imidazole-5-carbonyl]amino]ethylcarbamoyl]-1H-imidazole-4-carbonyl]amino]butanoate
> <PUBCHEM_IUPAC_SYSTEMATIC_NAME>
(phenylmethyl) (2S)-3-methyl-2-[[5-[2-[[4-[[(2S)-3-methyl-1-oxidanylidene-1-phenylmethoxy-butan-2-yl]carbamoyl]-1H-imidazol-5-yl]carbonylamino]ethylcarbamoyl]-1H-imidazol-4-yl]carbonylamino]butanoate
> <PUBCHEM_IUPAC_TRADITIONAL_NAME>
(2S)-2-[[5-[2-[[4-[[(1S)-1-carbobenzoxy-2-methyl-propyl]carbamoyl]-1H-imidazole-5-carbonyl]amino]ethylcarbamoyl]-1H-imidazole-4-carbonyl]amino]-3-methyl-butyric acid benzyl ester
> <PUBCHEM_IUPAC_INCHI>
InChI=1S/C36H42N8O8/c1-21(2)25(35(49)51-17-23-11-7-5-8-12-23)43-33(47)29-27(39-19-41-29)31(45)37-15-16-38-32(46)28-30(42-20-40-28)34(48)44-26(22(3)4)36(50)52-18-24-13-9-6-10-14-24/h5-14,19-22,25-26H,15-18H2,1-4H3,(H,37,45)(H,38,46)(H,39,41)(H,40,42)(H,43,47)(H,44,48)/t25-,26-/m0/s1
> <PUBCHEM_IUPAC_INCHIKEY>
CSNSOXAMHBCDPX-UIOOFZCWSA-N
> <PUBCHEM_XLOGP3_AA>
3.9
> <PUBCHEM_EXACT_MASS>
714.31256033
> <PUBCHEM_MOLECULAR_FORMULA>
C36H42N8O8
> <PUBCHEM_MOLECULAR_WEIGHT>
714.8
> <PUBCHEM_OPENEYE_CAN_SMILES>
CC(C)C(C(=O)OCC1=CC=CC=C1)NC(=O)C2=C(NC=N2)C(=O)NCCNC(=O)C3=C(N=CN3)C(=O)NC(C(C)C)C(=O)OCC4=CC=CC=C4
> <PUBCHEM_OPENEYE_ISO_SMILES>
CC(C)[C@@H](C(=O)OCC1=CC=CC=C1)NC(=O)C2=C(NC=N2)C(=O)NCCNC(=O)C3=C(N=CN3)C(=O)N[C@@H](C(C)C)C(=O)OCC4=CC=CC=C4
> <PUBCHEM_CACTVS_TPSA>
226
> <PUBCHEM_MONOISOTOPIC_WEIGHT>
714.31256033
> <PUBCHEM_TOTAL_CHARGE>
0
> <PUBCHEM_HEAVY_ATOM_COUNT>
52
> <PUBCHEM_ATOM_DEF_STEREO_COUNT>
2
> <PUBCHEM_ATOM_UDEF_STEREO_COUNT>
0
> <PUBCHEM_BOND_DEF_STEREO_COUNT>
0
> <PUBCHEM_BOND_UDEF_STEREO_COUNT>
0
> <PUBCHEM_ISOTOPIC_ATOM_COUNT>
0
> <PUBCHEM_COMPONENT_COUNT>
1
> <PUBCHEM_CACTVS_TAUTO_COUNT>
-1
> <PUBCHEM_COORDINATE_TYPE>
1
5
255
> <PUBCHEM_BONDANNOTATIONS>
20  10  6
11  31  8
11  41  8
12  32  8
12  42  8
13  29  8
13  41  8
14  30  8
14  42  8
29  31  8
30  32  8
39  43  8
39  44  8
40  45  8
40  46  8
43  47  8
44  48  8
45  49  8
46  50  8
47  51  8
48  51  8
49  52  8
50  52  8
19  9  5
$$$$
