510545
  -OEChem-10302200282D
100103  0     1  0  0  0  0  0999 V2000
   16.5420    5.1535    0.0000 O   0  0  0  0  0  0  0  0  0  0  0  0
    3.7320   -5.1535    0.0000 O   0  0  0  0  0  0  0  0  0  0  0  0
   17.4081    3.6535    0.0000 O   0  0  0  0  0  0  0  0  0  0  0  0
    2.8660   -3.6535    0.0000 O   0  0  0  0  0  0  0  0  0  0  0  0
   13.9440    2.6535    0.0000 O   0  0  0  0  0  0  0  0  0  0  0  0
    6.3301   -2.6535    0.0000 O   0  0  0  0  0  0  0  0  0  0  0  0
   12.8420    1.8529    0.0000 O   0  0  0  0  0  0  0  0  0  0  0  0
    7.4321   -1.8529    0.0000 O   0  0  0  0  0  0  0  0  0  0  0  0
   15.6760    2.6535    0.0000 N   0  0  0  0  0  0  0  0  0  0  0  0
    4.5981   -2.6535    0.0000 N   0  0  0  0  0  0  0  0  0  0  0  0
   12.3068    0.2056    0.0000 N   0  0  0  0  0  0  0  0  0  0  0  0
    7.9673   -0.2056    0.0000 N   0  0  0  0  0  0  0  0  0  0  0  0
   14.3100   -0.3853    0.0000 N   0  0  0  0  0  0  0  0  0  0  0  0
    5.9641    0.3853    0.0000 N   0  0  0  0  0  0  0  0  0  0  0  0
   15.6190    0.5657    0.0000 N   0  0  0  0  0  0  0  0  0  0  0  0
    4.6551   -0.5657    0.0000 N   0  0  0  0  0  0  0  0  0  0  0  0
   14.8100    4.1535    0.0000 C   0  0  0  0  0  0  0  0  0  0  0  0
    5.4641   -4.1535    0.0000 C   0  0  0  0  0  0  0  0  0  0  0  0
   15.6760    3.6535    0.0000 C   0  0  1  0  0  0  0  0  0  0  0  0
    4.5981   -3.6535    0.0000 C   0  0  1  0  0  0  0  0  0  0  0  0
   14.8100    5.1535    0.0000 C   0  0  0  0  0  0  0  0  0  0  0  0
   13.9440    3.6535    0.0000 C   0  0  0  0  0  0  0  0  0  0  0  0
    6.3301   -3.6535    0.0000 C   0  0  0  0  0  0  0  0  0  0  0  0
    5.4641   -5.1535    0.0000 C   0  0  0  0  0  0  0  0  0  0  0  0
   16.5420    4.1535    0.0000 C   0  0  0  0  0  0  0  0  0  0  0  0
    3.7320   -4.1535    0.0000 C   0  0  0  0  0  0  0  0  0  0  0  0
   10.6126   -0.1545    0.0000 C   0  0  0  0  0  0  0  0  0  0  0  0
    9.6615    0.1545    0.0000 C   0  0  0  0  0  0  0  0  0  0  0  0
   11.3557    0.5146    0.0000 C   0  0  0  0  0  0  0  0  0  0  0  0
    8.9184   -0.5146    0.0000 C   0  0  0  0  0  0  0  0  0  0  0  0
   14.8100    2.1535    0.0000 C   0  0  0  0  0  0  0  0  0  0  0  0
    5.4641   -2.1535    0.0000 C   0  0  0  0  0  0  0  0  0  0  0  0
   14.8100    1.1535    0.0000 C   0  0  0  0  0  0  0  0  0  0  0  0
    5.4641   -1.1535    0.0000 C   0  0  0  0  0  0  0  0  0  0  0  0
   14.0010    0.5657    0.0000 C   0  0  0  0  0  0  0  0  0  0  0  0
    6.2731   -0.5657    0.0000 C   0  0  0  0  0  0  0  0  0  0  0  0
   13.0499    0.8747    0.0000 C   0  0  0  0  0  0  0  0  0  0  0  0
    7.2242   -0.8747    0.0000 C   0  0  0  0  0  0  0  0  0  0  0  0
   17.4081    5.6535    0.0000 C   0  0  0  0  0  0  0  0  0  0  0  0
    2.8660   -5.6535    0.0000 C   0  0  0  0  0  0  0  0  0  0  0  0
   15.3100   -0.3853    0.0000 C   0  0  0  0  0  0  0  0  0  0  0  0
    4.9641    0.3853    0.0000 C   0  0  0  0  0  0  0  0  0  0  0  0
   17.4081    6.6535    0.0000 C   0  0  0  0  0  0  0  0  0  0  0  0
    2.8660   -6.6535    0.0000 C   0  0  0  0  0  0  0  0  0  0  0  0
   18.2741    7.1535    0.0000 C   0  0  0  0  0  0  0  0  0  0  0  0
    2.0000   -7.1535    0.0000 C   0  0  0  0  0  0  0  0  0  0  0  0
   16.5420    7.1535    0.0000 C   0  0  0  0  0  0  0  0  0  0  0  0
    3.7320   -7.1535    0.0000 C   0  0  0  0  0  0  0  0  0  0  0  0
   18.2741    8.1535    0.0000 C   0  0  0  0  0  0  0  0  0  0  0  0
    2.0000   -8.1535    0.0000 C   0  0  0  0  0  0  0  0  0  0  0  0
   16.5420    8.1535    0.0000 C   0  0  0  0  0  0  0  0  0  0  0  0
    3.7320   -8.1535    0.0000 C   0  0  0  0  0  0  0  0  0  0  0  0
   17.4081    8.6535    0.0000 C   0  0  0  0  0  0  0  0  0  0  0  0
    2.8660   -8.6535    0.0000 C   0  0  0  0  0  0  0  0  0  0  0  0
   15.3469    4.4635    0.0000 H   0  0  0  0  0  0  0  0  0  0  0  0
    5.4641   -3.5335    0.0000 H   0  0  0  0  0  0  0  0  0  0  0  0
   16.2130    3.3435    0.0000 H   0  0  0  0  0  0  0  0  0  0  0  0
    4.0611   -3.3435    0.0000 H   0  0  0  0  0  0  0  0  0  0  0  0
   15.4300    5.1535    0.0000 H   0  0  0  0  0  0  0  0  0  0  0  0
   14.8100    5.7735    0.0000 H   0  0  0  0  0  0  0  0  0  0  0  0
   14.1900    5.1535    0.0000 H   0  0  0  0  0  0  0  0  0  0  0  0
   13.6340    4.1904    0.0000 H   0  0  0  0  0  0  0  0  0  0  0  0
   13.4070    3.3435    0.0000 H   0  0  0  0  0  0  0  0  0  0  0  0
   14.2540    3.1166    0.0000 H   0  0  0  0  0  0  0  0  0  0  0  0
    6.6401   -4.1904    0.0000 H   0  0  0  0  0  0  0  0  0  0  0  0
    6.8671   -3.3435    0.0000 H   0  0  0  0  0  0  0  0  0  0  0  0
    6.0201   -3.1166    0.0000 H   0  0  0  0  0  0  0  0  0  0  0  0
    4.8441   -5.1535    0.0000 H   0  0  0  0  0  0  0  0  0  0  0  0
    5.4641   -5.7735    0.0000 H   0  0  0  0  0  0  0  0  0  0  0  0
    6.0841   -5.1535    0.0000 H   0  0  0  0  0  0  0  0  0  0  0  0
   16.2130    2.3435    0.0000 H   0  0  0  0  0  0  0  0  0  0  0  0
    4.0611   -2.3435    0.0000 H   0  0  0  0  0  0  0  0  0  0  0  0
   10.3215   -0.7019    0.0000 H   0  0  0  0  0  0  0  0  0  0  0  0
   11.1011   -0.5362    0.0000 H   0  0  0  0  0  0  0  0  0  0  0  0
    9.9526    0.7019    0.0000 H   0  0  0  0  0  0  0  0  0  0  0  0
    9.1730    0.5362    0.0000 H   0  0  0  0  0  0  0  0  0  0  0  0
   11.6468    1.0620    0.0000 H   0  0  0  0  0  0  0  0  0  0  0  0
   10.8672    0.8963    0.0000 H   0  0  0  0  0  0  0  0  0  0  0  0
    8.6273   -1.0620    0.0000 H   0  0  0  0  0  0  0  0  0  0  0  0
    9.4069   -0.8963    0.0000 H   0  0  0  0  0  0  0  0  0  0  0  0
   12.4357   -0.4008    0.0000 H   0  0  0  0  0  0  0  0  0  0  0  0
    7.8384    0.4008    0.0000 H   0  0  0  0  0  0  0  0  0  0  0  0
   17.6201    5.0709    0.0000 H   0  0  0  0  0  0  0  0  0  0  0  0
   18.0187    5.7612    0.0000 H   0  0  0  0  0  0  0  0  0  0  0  0
    2.6540   -5.0709    0.0000 H   0  0  0  0  0  0  0  0  0  0  0  0
    2.2554   -5.7612    0.0000 H   0  0  0  0  0  0  0  0  0  0  0  0
   13.9456   -0.8869    0.0000 H   0  0  0  0  0  0  0  0  0  0  0  0
    6.3285    0.8869    0.0000 H   0  0  0  0  0  0  0  0  0  0  0  0
   15.6744   -0.8869    0.0000 H   0  0  0  0  0  0  0  0  0  0  0  0
    4.5997    0.8869    0.0000 H   0  0  0  0  0  0  0  0  0  0  0  0
   18.8110    6.8435    0.0000 H   0  0  0  0  0  0  0  0  0  0  0  0
    1.4631   -6.8435    0.0000 H   0  0  0  0  0  0  0  0  0  0  0  0
   16.0051    6.8435    0.0000 H   0  0  0  0  0  0  0  0  0  0  0  0
    4.2690   -6.8435    0.0000 H   0  0  0  0  0  0  0  0  0  0  0  0
   18.8110    8.4635    0.0000 H   0  0  0  0  0  0  0  0  0  0  0  0
    1.4631   -8.4635    0.0000 H   0  0  0  0  0  0  0  0  0  0  0  0
   16.0051    8.4635    0.0000 H   0  0  0  0  0  0  0  0  0  0  0  0
    4.2690   -8.4635    0.0000 H   0  0  0  0  0  0  0  0  0  0  0  0
   17.4081    9.2735    0.0000 H   0  0  0  0  0  0  0  0  0  0  0  0
    2.8660   -9.2735    0.0000 H   0  0  0  0  0  0  0  0  0  0  0  0
  1 25  1  0  0  0  0
  1 39  1  0  0  0  0
  2 26  1  0  0  0  0
  2 40  1  0  0  0  0
  3 25  2  0  0  0  0
  4 26  2  0  0  0  0
  5 31  2  0  0  0  0
  6 32  2  0  0  0  0
  7 37  2  0  0  0  0
  8 38  2  0  0  0  0
 19  9  1  1  0  0  0
  9 31  1  0  0  0  0
  9 71  1  0  0  0  0
 20 10  1  1  0  0  0
 10 32  1  0  0  0  0
 10 72  1  0  0  0  0
 11 29  1  0  0  0  0
 11 37  1  0  0  0  0
 11 81  1  0  0  0  0
 12 30  1  0  0  0  0
 12 38  1  0  0  0  0
 12 82  1  0  0  0  0
 13 35  1  0  0  0  0
 13 41  1  0  0  0  0
 13 87  1  0  0  0  0
 14 36  1  0  0  0  0
 14 42  1  0  0  0  0
 14 88  1  0  0  0  0
 15 33  1  0  0  0  0
 15 41  2  0  0  0  0
 16 34  1  0  0  0  0
 16 42  2  0  0  0  0
 17 19  1  0  0  0  0
 17 21  1  0  0  0  0
 17 22  1  0  0  0  0
 17 55  1  0  0  0  0
 18 20  1  0  0  0  0
 18 23  1  0  0  0  0
 18 24  1  0  0  0  0
 18 56  1  0  0  0  0
 19 25  1  0  0  0  0
 19 57  1  0  0  0  0
 20 26  1  0  0  0  0
 20 58  1  0  0  0  0
 21 59  1  0  0  0  0
 21 60  1  0  0  0  0
 21 61  1  0  0  0  0
 22 62  1  0  0  0  0
 22 63  1  0  0  0  0
 22 64  1  0  0  0  0
 23 65  1  0  0  0  0
 23 66  1  0  0  0  0
 23 67  1  0  0  0  0
 24 68  1  0  0  0  0
 24 69  1  0  0  0  0
 24 70  1  0  0  0  0
 27 28  1  0  0  0  0
 27 29  1  0  0  0  0
 27 73  1  0  0  0  0
 27 74  1  0  0  0  0
 28 30  1  0  0  0  0
 28 75  1  0  0  0  0
 28 76  1  0  0  0  0
 29 77  1  0  0  0  0
 29 78  1  0  0  0  0
 30 79  1  0  0  0  0
 30 80  1  0  0  0  0
 31 33  1  0  0  0  0
 32 34  1  0  0  0  0
 33 35  2  0  0  0  0
 34 36  2  0  0  0  0
 35 37  1  0  0  0  0
 36 38  1  0  0  0  0
 39 43  1  0  0  0  0
 39 83  1  0  0  0  0
 39 84  1  0  0  0  0
 40 44  1  0  0  0  0
 40 85  1  0  0  0  0
 40 86  1  0  0  0  0
 41 89  1  0  0  0  0
 42 90  1  0  0  0  0
 43 45  2  0  0  0  0
 43 47  1  0  0  0  0
 44 46  2  0  0  0  0
 44 48  1  0  0  0  0
 45 49  1  0  0  0  0
 45 91  1  0  0  0  0
 46 50  1  0  0  0  0
 46 92  1  0  0  0  0
 47 51  2  0  0  0  0
 47 93  1  0  0  0  0
 48 52  2  0  0  0  0
 48 94  1  0  0  0  0
 49 53  2  0  0  0  0
 49 95  1  0  0  0  0
 50 54  2  0  0  0  0
 50 96  1  0  0  0  0
 51 53  1  0  0  0  0
 51 97  1  0  0  0  0
 52 54  1  0  0  0  0
 52 98  1  0  0  0  0
 53 99  1  0  0  0  0
 54100  1  0  0  0  0
M  END
> <PUBCHEM_COMPOUND_CID>
510545
> <PUBCHEM_COMPOUND_CANONICALIZED>
1
> <PUBCHEM_CACTVS_COMPLEXITY>
1160
> <PUBCHEM_CACTVS_HBOND_ACCEPTOR>
10
> <PUBCHEM_CACTVS_HBOND_DONOR>
6
> <PUBCHEM_CACTVS_ROTATABLE_BOND>
21
> <PUBCHEM_CACTVS_SUBSKEYS>
AAADcfB//AAAAAAAAAAAAAAAAAAAAWLAAAAwYAAAAAAAAAAB9AAAHgAQAAAADSjhngY3mJbJlACoAyXzfACCgC23EKAJ2YGoXMiKbjrA+TiXMYhs1gPYqWeFwCAOAAAAAAAAAAAAAAAAAAAAAAAAAAAAAA==
> <PUBCHEM_IUPAC_OPENEYE_NAME>
benzyl (2S)-2-[[5-[4-[[4-[[(1S)-1-benzyloxycarbonyl-2-methyl-propyl]carbamoyl]-1H-imidazole-5-carbonyl]amino]butylcarbamoyl]-1H-imidazole-4-carbonyl]amino]-3-methyl-butanoate
> <PUBCHEM_IUPAC_CAS_NAME>
(2S)-3-methyl-2-[[[5-[[4-[[[4-[[[(2S)-3-methyl-1-oxo-1-phenylmethoxybutan-2-yl]amino]-oxomethyl]-1H-imidazol-5-yl]-oxomethyl]amino]butylamino]-oxomethyl]-1H-imidazol-4-yl]-oxomethyl]amino]butanoic acid (phenylmethyl) ester
> <PUBCHEM_IUPAC_NAME_MARKUP>
benzyl (2<I>S</I>)-3-methyl-2-[[5-[4-[[4-[[(2<I>S</I>)-3-methyl-1-oxo-1-phenylmethoxybutan-2-yl]carbamoyl]-1<I>H</I>-imidazole-5-carbonyl]amino]butylcarbamoyl]-1<I>H</I>-imidazole-4-carbonyl]amino]butanoate
> <PUBCHEM_IUPAC_NAME>
benzyl (2S)-3-methyl-2-[[5-[4-[[4-[[(2S)-3-methyl-1-oxo-1-phenylmethoxybutan-2-yl]carbamoyl]-1H-imidazole-5-carbonyl]amino]butylcarbamoyl]-1H-imidazole-4-carbonyl]amino]butanoate
> <PUBCHEM_IUPAC_SYSTEMATIC_NAME>
(phenylmethyl) (2S)-3-methyl-2-[[5-[4-[[4-[[(2S)-3-methyl-1-oxidanylidene-1-phenylmethoxy-butan-2-yl]carbamoyl]-1H-imidazol-5-yl]carbonylamino]butylcarbamoyl]-1H-imidazol-4-yl]carbonylamino]butanoate
> <PUBCHEM_IUPAC_TRADITIONAL_NAME>
(2S)-2-[[5-[4-[[4-[[(1S)-1-carbobenzoxy-2-methyl-propyl]carbamoyl]-1H-imidazole-5-carbonyl]amino]butylcarbamoyl]-1H-imidazole-4-carbonyl]amino]-3-methyl-butyric acid benzyl ester
> <PUBCHEM_IUPAC_INCHI>
InChI=1S/C38H46N8O8/c1-23(2)27(37(51)53-19-25-13-7-5-8-14-25)45-35(49)31-29(41-21-43-31)33(47)39-17-11-12-18-40-34(48)30-32(44-22-42-30)36(50)46-28(24(3)4)38(52)54-20-26-15-9-6-10-16-26/h5-10,13-16,21-24,27-28H,11-12,17-20H2,1-4H3,(H,39,47)(H,40,48)(H,41,43)(H,42,44)(H,45,49)(H,46,50)/t27-,28-/m0/s1
> <PUBCHEM_IUPAC_INCHIKEY>
QMNUPOBIXKWNQN-NSOVKSMOSA-N
> <PUBCHEM_XLOGP3_AA>
4.6
> <PUBCHEM_EXACT_MASS>
742.34386046
> <PUBCHEM_MOLECULAR_FORMULA>
C38H46N8O8
> <PUBCHEM_MOLECULAR_WEIGHT>
742.8
> <PUBCHEM_OPENEYE_CAN_SMILES>
CC(C)C(C(=O)OCC1=CC=CC=C1)NC(=O)C2=C(NC=N2)C(=O)NCCCCNC(=O)C3=C(N=CN3)C(=O)NC(C(C)C)C(=O)OCC4=CC=CC=C4
> <PUBCHEM_OPENEYE_ISO_SMILES>
CC(C)[C@@H](C(=O)OCC1=CC=CC=C1)NC(=O)C2=C(NC=N2)C(=O)NCCCCNC(=O)C3=C(N=CN3)C(=O)N[C@@H](C(C)C)C(=O)OCC4=CC=CC=C4
> <PUBCHEM_CACTVS_TPSA>
226
> <PUBCHEM_MONOISOTOPIC_WEIGHT>
742.34386046
> <PUBCHEM_TOTAL_CHARGE>
0
> <PUBCHEM_HEAVY_ATOM_COUNT>
54
> <PUBCHEM_ATOM_DEF_STEREO_COUNT>
2
> <PUBCHEM_ATOM_UDEF_STEREO_COUNT>
0
> <PUBCHEM_BOND_DEF_STEREO_COUNT>
0
> <PUBCHEM_BOND_UDEF_STEREO_COUNT>
0
> <PUBCHEM_ISOTOPIC_ATOM_COUNT>
0
> <PUBCHEM_COMPONENT_COUNT>
1
> <PUBCHEM_CACTVS_TAUTO_COUNT>
-1
> <PUBCHEM_COORDINATE_TYPE>
1
5
255
> <PUBCHEM_BONDANNOTATIONS>
20  10  5
13  35  8
13  41  8
14  36  8
14  42  8
15  33  8
15  41  8
16  34  8
16  42  8
33  35  8
34  36  8
43  45  8
43  47  8
44  46  8
44  48  8
45  49  8
46  50  8
47  51  8
48  52  8
49  53  8
50  54  8
51  53  8
52  54  8
19  9  5
$$$$
