510536
  -OEChem-10302200282D
 92 95  0     1  0  0  0  0  0999 V2000
   14.8478    4.9734    0.0000 O   0  0  0  0  0  0  0  0  0  0  0  0
    3.7320   -4.9734    0.0000 O   0  0  0  0  0  0  0  0  0  0  0  0
   15.7139    3.4734    0.0000 O   0  0  0  0  0  0  0  0  0  0  0  0
    2.8660   -3.4734    0.0000 O   0  0  0  0  0  0  0  0  0  0  0  0
   12.2498    2.4734    0.0000 O   0  0  0  0  0  0  0  0  0  0  0  0
    6.3301   -2.4734    0.0000 O   0  0  0  0  0  0  0  0  0  0  0  0
   10.6126    0.0255    0.0000 O   0  0  0  0  0  0  0  0  0  0  0  0
    7.9673   -0.0255    0.0000 O   0  0  0  0  0  0  0  0  0  0  0  0
   11.1478    1.6728    0.0000 O   0  0  0  0  0  0  0  0  0  0  0  0
    7.4321   -1.6728    0.0000 O   0  0  0  0  0  0  0  0  0  0  0  0
   13.9818    2.4734    0.0000 N   0  0  0  0  0  0  0  0  0  0  0  0
    4.5981   -2.4734    0.0000 N   0  0  0  0  0  0  0  0  0  0  0  0
   13.9248    0.3857    0.0000 N   0  0  0  0  0  0  0  0  0  0  0  0
    4.6551   -0.3857    0.0000 N   0  0  0  0  0  0  0  0  0  0  0  0
   12.6158   -0.5654    0.0000 N   0  0  0  0  0  0  0  0  0  0  0  0
    5.9641    0.5654    0.0000 N   0  0  0  0  0  0  0  0  0  0  0  0
   13.1158    3.9734    0.0000 C   0  0  0  0  0  0  0  0  0  0  0  0
    5.4641   -3.9734    0.0000 C   0  0  0  0  0  0  0  0  0  0  0  0
   13.9818    3.4734    0.0000 C   0  0  1  0  0  0  0  0  0  0  0  0
    4.5981   -3.4734    0.0000 C   0  0  1  0  0  0  0  0  0  0  0  0
   13.1158    4.9734    0.0000 C   0  0  0  0  0  0  0  0  0  0  0  0
   12.2498    3.4734    0.0000 C   0  0  0  0  0  0  0  0  0  0  0  0
    6.3301   -3.4734    0.0000 C   0  0  0  0  0  0  0  0  0  0  0  0
    5.4641   -4.9734    0.0000 C   0  0  0  0  0  0  0  0  0  0  0  0
   14.8478    3.9734    0.0000 C   0  0  0  0  0  0  0  0  0  0  0  0
    3.7320   -3.9734    0.0000 C   0  0  0  0  0  0  0  0  0  0  0  0
   13.1158    1.9734    0.0000 C   0  0  0  0  0  0  0  0  0  0  0  0
    5.4641   -1.9734    0.0000 C   0  0  0  0  0  0  0  0  0  0  0  0
   13.1158    0.9734    0.0000 C   0  0  0  0  0  0  0  0  0  0  0  0
    5.4641   -0.9734    0.0000 C   0  0  0  0  0  0  0  0  0  0  0  0
   15.7139    5.4734    0.0000 C   0  0  0  0  0  0  0  0  0  0  0  0
    2.8660   -5.4734    0.0000 C   0  0  0  0  0  0  0  0  0  0  0  0
   12.3068    0.3857    0.0000 C   0  0  0  0  0  0  0  0  0  0  0  0
    6.2731   -0.3857    0.0000 C   0  0  0  0  0  0  0  0  0  0  0  0
   15.7139    6.4734    0.0000 C   0  0  0  0  0  0  0  0  0  0  0  0
    2.8660   -6.4734    0.0000 C   0  0  0  0  0  0  0  0  0  0  0  0
   13.6158   -0.5654    0.0000 C   0  0  0  0  0  0  0  0  0  0  0  0
    4.9641    0.5654    0.0000 C   0  0  0  0  0  0  0  0  0  0  0  0
   11.3557    0.6947    0.0000 C   0  0  0  0  0  0  0  0  0  0  0  0
    7.2242   -0.6947    0.0000 C   0  0  0  0  0  0  0  0  0  0  0  0
   16.5799    6.9734    0.0000 C   0  0  0  0  0  0  0  0  0  0  0  0
    3.7320   -6.9734    0.0000 C   0  0  0  0  0  0  0  0  0  0  0  0
   14.8478    6.9734    0.0000 C   0  0  0  0  0  0  0  0  0  0  0  0
    2.0000   -6.9734    0.0000 C   0  0  0  0  0  0  0  0  0  0  0  0
    9.6615    0.3346    0.0000 C   0  0  0  0  0  0  0  0  0  0  0  0
    8.9184   -0.3346    0.0000 C   0  0  0  0  0  0  0  0  0  0  0  0
   16.5799    7.9734    0.0000 C   0  0  0  0  0  0  0  0  0  0  0  0
    3.7320   -7.9734    0.0000 C   0  0  0  0  0  0  0  0  0  0  0  0
   14.8478    7.9734    0.0000 C   0  0  0  0  0  0  0  0  0  0  0  0
    2.0000   -7.9734    0.0000 C   0  0  0  0  0  0  0  0  0  0  0  0
   15.7139    8.4734    0.0000 C   0  0  0  0  0  0  0  0  0  0  0  0
    2.8660   -8.4734    0.0000 C   0  0  0  0  0  0  0  0  0  0  0  0
   12.5789    4.2834    0.0000 H   0  0  0  0  0  0  0  0  0  0  0  0
    5.4641   -3.3534    0.0000 H   0  0  0  0  0  0  0  0  0  0  0  0
   14.5188    3.1634    0.0000 H   0  0  0  0  0  0  0  0  0  0  0  0
    4.0611   -3.1634    0.0000 H   0  0  0  0  0  0  0  0  0  0  0  0
   13.7358    4.9734    0.0000 H   0  0  0  0  0  0  0  0  0  0  0  0
   13.1158    5.5934    0.0000 H   0  0  0  0  0  0  0  0  0  0  0  0
   12.4958    4.9734    0.0000 H   0  0  0  0  0  0  0  0  0  0  0  0
   11.9398    4.0104    0.0000 H   0  0  0  0  0  0  0  0  0  0  0  0
   11.7128    3.1634    0.0000 H   0  0  0  0  0  0  0  0  0  0  0  0
   12.5598    2.9365    0.0000 H   0  0  0  0  0  0  0  0  0  0  0  0
    6.6401   -4.0104    0.0000 H   0  0  0  0  0  0  0  0  0  0  0  0
    6.8671   -3.1634    0.0000 H   0  0  0  0  0  0  0  0  0  0  0  0
    6.0201   -2.9365    0.0000 H   0  0  0  0  0  0  0  0  0  0  0  0
    4.8441   -4.9734    0.0000 H   0  0  0  0  0  0  0  0  0  0  0  0
    5.4641   -5.5934    0.0000 H   0  0  0  0  0  0  0  0  0  0  0  0
    6.0841   -4.9734    0.0000 H   0  0  0  0  0  0  0  0  0  0  0  0
   14.5188    2.1634    0.0000 H   0  0  0  0  0  0  0  0  0  0  0  0
    4.0611   -2.1634    0.0000 H   0  0  0  0  0  0  0  0  0  0  0  0
   15.9259    4.8908    0.0000 H   0  0  0  0  0  0  0  0  0  0  0  0
   16.3245    5.5811    0.0000 H   0  0  0  0  0  0  0  0  0  0  0  0
    2.6540   -4.8908    0.0000 H   0  0  0  0  0  0  0  0  0  0  0  0
    2.2554   -5.5811    0.0000 H   0  0  0  0  0  0  0  0  0  0  0  0
   12.2514   -1.0670    0.0000 H   0  0  0  0  0  0  0  0  0  0  0  0
    6.3285    1.0670    0.0000 H   0  0  0  0  0  0  0  0  0  0  0  0
   13.9802   -1.0670    0.0000 H   0  0  0  0  0  0  0  0  0  0  0  0
    4.5997    1.0670    0.0000 H   0  0  0  0  0  0  0  0  0  0  0  0
   17.1168    6.6634    0.0000 H   0  0  0  0  0  0  0  0  0  0  0  0
    4.2690   -6.6634    0.0000 H   0  0  0  0  0  0  0  0  0  0  0  0
   14.3109    6.6634    0.0000 H   0  0  0  0  0  0  0  0  0  0  0  0
    1.4631   -6.6634    0.0000 H   0  0  0  0  0  0  0  0  0  0  0  0
    9.9526    0.8820    0.0000 H   0  0  0  0  0  0  0  0  0  0  0  0
    9.1730    0.7163    0.0000 H   0  0  0  0  0  0  0  0  0  0  0  0
    8.6273   -0.8820    0.0000 H   0  0  0  0  0  0  0  0  0  0  0  0
    9.4069   -0.7163    0.0000 H   0  0  0  0  0  0  0  0  0  0  0  0
   17.1168    8.2834    0.0000 H   0  0  0  0  0  0  0  0  0  0  0  0
    4.2690   -8.2834    0.0000 H   0  0  0  0  0  0  0  0  0  0  0  0
   14.3109    8.2834    0.0000 H   0  0  0  0  0  0  0  0  0  0  0  0
    1.4631   -8.2834    0.0000 H   0  0  0  0  0  0  0  0  0  0  0  0
   15.7139    9.0934    0.0000 H   0  0  0  0  0  0  0  0  0  0  0  0
    2.8660   -9.0934    0.0000 H   0  0  0  0  0  0  0  0  0  0  0  0
  1 25  1  0  0  0  0
  1 31  1  0  0  0  0
  2 26  1  0  0  0  0
  2 32  1  0  0  0  0
  3 25  2  0  0  0  0
  4 26  2  0  0  0  0
  5 27  2  0  0  0  0
  6 28  2  0  0  0  0
  7 39  1  0  0  0  0
  7 45  1  0  0  0  0
  8 40  1  0  0  0  0
  8 46  1  0  0  0  0
  9 39  2  0  0  0  0
 10 40  2  0  0  0  0
 19 11  1  1  0  0  0
 11 27  1  0  0  0  0
 11 69  1  0  0  0  0
 20 12  1  1  0  0  0
 12 28  1  0  0  0  0
 12 70  1  0  0  0  0
 13 29  1  0  0  0  0
 13 37  2  0  0  0  0
 14 30  1  0  0  0  0
 14 38  2  0  0  0  0
 15 33  1  0  0  0  0
 15 37  1  0  0  0  0
 15 75  1  0  0  0  0
 16 34  1  0  0  0  0
 16 38  1  0  0  0  0
 16 76  1  0  0  0  0
 17 19  1  0  0  0  0
 17 21  1  0  0  0  0
 17 22  1  0  0  0  0
 17 53  1  0  0  0  0
 18 20  1  0  0  0  0
 18 23  1  0  0  0  0
 18 24  1  0  0  0  0
 18 54  1  0  0  0  0
 19 25  1  0  0  0  0
 19 55  1  0  0  0  0
 20 26  1  0  0  0  0
 20 56  1  0  0  0  0
 21 57  1  0  0  0  0
 21 58  1  0  0  0  0
 21 59  1  0  0  0  0
 22 60  1  0  0  0  0
 22 61  1  0  0  0  0
 22 62  1  0  0  0  0
 23 63  1  0  0  0  0
 23 64  1  0  0  0  0
 23 65  1  0  0  0  0
 24 66  1  0  0  0  0
 24 67  1  0  0  0  0
 24 68  1  0  0  0  0
 27 29  1  0  0  0  0
 28 30  1  0  0  0  0
 29 33  2  0  0  0  0
 30 34  2  0  0  0  0
 31 35  1  0  0  0  0
 31 71  1  0  0  0  0
 31 72  1  0  0  0  0
 32 36  1  0  0  0  0
 32 73  1  0  0  0  0
 32 74  1  0  0  0  0
 33 39  1  0  0  0  0
 34 40  1  0  0  0  0
 35 41  2  0  0  0  0
 35 43  1  0  0  0  0
 36 42  2  0  0  0  0
 36 44  1  0  0  0  0
 37 77  1  0  0  0  0
 38 78  1  0  0  0  0
 41 47  1  0  0  0  0
 41 79  1  0  0  0  0
 42 48  1  0  0  0  0
 42 80  1  0  0  0  0
 43 49  2  0  0  0  0
 43 81  1  0  0  0  0
 44 50  2  0  0  0  0
 44 82  1  0  0  0  0
 45 46  1  0  0  0  0
 45 83  1  0  0  0  0
 45 84  1  0  0  0  0
 46 85  1  0  0  0  0
 46 86  1  0  0  0  0
 47 51  2  0  0  0  0
 47 87  1  0  0  0  0
 48 52  2  0  0  0  0
 48 88  1  0  0  0  0
 49 51  1  0  0  0  0
 49 89  1  0  0  0  0
 50 52  1  0  0  0  0
 50 90  1  0  0  0  0
 51 91  1  0  0  0  0
 52 92  1  0  0  0  0
M  END
> <PUBCHEM_COMPOUND_CID>
510536
> <PUBCHEM_COMPOUND_CANONICALIZED>
1
> <PUBCHEM_CACTVS_COMPLEXITY>
1130
> <PUBCHEM_CACTVS_HBOND_ACCEPTOR>
12
> <PUBCHEM_CACTVS_HBOND_DONOR>
4
> <PUBCHEM_CACTVS_ROTATABLE_BOND>
21
> <PUBCHEM_CACTVS_SUBSKEYS>
AAADcfB/vAAAAAAAAAAAAAAAAAAAAWLAAAAwYAAAAAAAAAAB9AAAHgAQAAAADSjhngY3mJbJlACoAyXzfASCgC23EKAJ2YGoXMiLbjrA+TiXMYhu1gPaqWenwCAOAAAAAAAAAAAAAAAAAAAAAAAAAAAAAA==
> <PUBCHEM_IUPAC_OPENEYE_NAME>
2-[4-[[(1S)-1-benzyloxycarbonyl-2-methyl-propyl]carbamoyl]-1H-imidazole-5-carbonyl]oxyethyl 4-[[(1S)-1-benzyloxycarbonyl-2-methyl-propyl]carbamoyl]-1H-imidazole-5-carboxylate
> <PUBCHEM_IUPAC_CAS_NAME>
4-[[[(2S)-3-methyl-1-oxo-1-phenylmethoxybutan-2-yl]amino]-oxomethyl]-1H-imidazole-5-carboxylic acid 2-[[4-[[[(2S)-3-methyl-1-oxo-1-phenylmethoxybutan-2-yl]amino]-oxomethyl]-1H-imidazol-5-yl]-oxomethoxy]ethyl ester
> <PUBCHEM_IUPAC_NAME_MARKUP>
2-[4-[[(2<I>S</I>)-3-methyl-1-oxo-1-phenylmethoxybutan-2-yl]carbamoyl]-1<I>H</I>-imidazole-5-carbonyl]oxyethyl 4-[[(2<I>S</I>)-3-methyl-1-oxo-1-phenylmethoxybutan-2-yl]carbamoyl]-1<I>H</I>-imidazole-5-carboxylate
> <PUBCHEM_IUPAC_NAME>
2-[4-[[(2S)-3-methyl-1-oxo-1-phenylmethoxybutan-2-yl]carbamoyl]-1H-imidazole-5-carbonyl]oxyethyl 4-[[(2S)-3-methyl-1-oxo-1-phenylmethoxybutan-2-yl]carbamoyl]-1H-imidazole-5-carboxylate
> <PUBCHEM_IUPAC_SYSTEMATIC_NAME>
2-[[4-[[(2S)-3-methyl-1-oxidanylidene-1-phenylmethoxy-butan-2-yl]carbamoyl]-1H-imidazol-5-yl]carbonyloxy]ethyl 4-[[(2S)-3-methyl-1-oxidanylidene-1-phenylmethoxy-butan-2-yl]carbamoyl]-1H-imidazole-5-carboxylate
> <PUBCHEM_IUPAC_TRADITIONAL_NAME>
4-[[(1S)-1-carbobenzoxy-2-methyl-propyl]carbamoyl]-1H-imidazole-5-carboxylic acid 2-[4-[[(1S)-1-carbobenzoxy-2-methyl-propyl]carbamoyl]-1H-imidazole-5-carbonyl]oxyethyl ester
> <PUBCHEM_IUPAC_INCHI>
InChI=1S/C36H40N6O10/c1-21(2)25(33(45)51-17-23-11-7-5-8-12-23)41-31(43)27-29(39-19-37-27)35(47)49-15-16-50-36(48)30-28(38-20-40-30)32(44)42-26(22(3)4)34(46)52-18-24-13-9-6-10-14-24/h5-14,19-22,25-26H,15-18H2,1-4H3,(H,37,39)(H,38,40)(H,41,43)(H,42,44)/t25-,26-/m0/s1
> <PUBCHEM_IUPAC_INCHIKEY>
SVNSZDRYNRZIQO-UIOOFZCWSA-N
> <PUBCHEM_XLOGP3_AA>
5.1
> <PUBCHEM_EXACT_MASS>
716.28059149
> <PUBCHEM_MOLECULAR_FORMULA>
C36H40N6O10
> <PUBCHEM_MOLECULAR_WEIGHT>
716.7
> <PUBCHEM_OPENEYE_CAN_SMILES>
CC(C)C(C(=O)OCC1=CC=CC=C1)NC(=O)C2=C(NC=N2)C(=O)OCCOC(=O)C3=C(N=CN3)C(=O)NC(C(C)C)C(=O)OCC4=CC=CC=C4
> <PUBCHEM_OPENEYE_ISO_SMILES>
CC(C)[C@@H](C(=O)OCC1=CC=CC=C1)NC(=O)C2=C(NC=N2)C(=O)OCCOC(=O)C3=C(N=CN3)C(=O)N[C@@H](C(C)C)C(=O)OCC4=CC=CC=C4
> <PUBCHEM_CACTVS_TPSA>
221
> <PUBCHEM_MONOISOTOPIC_WEIGHT>
716.28059149
> <PUBCHEM_TOTAL_CHARGE>
0
> <PUBCHEM_HEAVY_ATOM_COUNT>
52
> <PUBCHEM_ATOM_DEF_STEREO_COUNT>
2
> <PUBCHEM_ATOM_UDEF_STEREO_COUNT>
0
> <PUBCHEM_BOND_DEF_STEREO_COUNT>
0
> <PUBCHEM_BOND_UDEF_STEREO_COUNT>
0
> <PUBCHEM_ISOTOPIC_ATOM_COUNT>
0
> <PUBCHEM_COMPONENT_COUNT>
1
> <PUBCHEM_CACTVS_TAUTO_COUNT>
-1
> <PUBCHEM_COORDINATE_TYPE>
1
5
255
> <PUBCHEM_BONDANNOTATIONS>
19  11  5
20  12  5
13  29  8
13  37  8
14  30  8
14  38  8
15  33  8
15  37  8
16  34  8
16  38  8
29  33  8
30  34  8
35  41  8
35  43  8
36  42  8
36  44  8
41  47  8
42  48  8
43  49  8
44  50  8
47  51  8
48  52  8
49  51  8
50  52  8
$$$$
