510537
  -OEChem-10302200282D
 80 81  0     1  0  0  0  0  0999 V2000
    3.6942   -3.7490    0.0000 O   0  0  0  0  0  0  0  0  0  0  0  0
   16.5892    3.7490    0.0000 O   0  0  0  0  0  0  0  0  0  0  0  0
    4.8532   -5.0362    0.0000 O   0  0  0  0  0  0  0  0  0  0  0  0
   15.4303    5.0362    0.0000 O   0  0  0  0  0  0  0  0  0  0  0  0
    6.8747   -2.0506    0.0000 O   0  0  0  0  0  0  0  0  0  0  0  0
   13.4087    2.0506    0.0000 O   0  0  0  0  0  0  0  0  0  0  0  0
    7.9766   -1.2500    0.0000 O   0  0  0  0  0  0  0  0  0  0  0  0
   12.3068    1.2500    0.0000 O   0  0  0  0  0  0  0  0  0  0  0  0
    6.3395   -3.6979    0.0000 N   0  0  0  0  0  0  0  0  0  0  0  0
   13.9440    3.6979    0.0000 N   0  0  0  0  0  0  0  0  0  0  0  0
    9.6517   -3.3378    0.0000 N   0  0  0  0  0  0  0  0  0  0  0  0
   10.6317    3.3378    0.0000 N   0  0  0  0  0  0  0  0  0  0  0  0
    9.7087   -1.2500    0.0000 N   0  0  0  0  0  0  0  0  0  0  0  0
   10.5747    1.2500    0.0000 N   0  0  0  0  0  0  0  0  0  0  0  0
    8.3427   -4.2888    0.0000 N   0  0  0  0  0  0  0  0  0  0  0  0
   11.9408    4.2888    0.0000 N   0  0  0  0  0  0  0  0  0  0  0  0
    5.1805   -2.4107    0.0000 C   0  0  0  0  0  0  0  0  0  0  0  0
   15.1029    2.4107    0.0000 C   0  0  0  0  0  0  0  0  0  0  0  0
    5.3884   -3.3889    0.0000 C   0  0  1  0  0  0  0  0  0  0  0  0
   14.8950    3.3889    0.0000 C   0  0  1  0  0  0  0  0  0  0  0  0
    4.2294   -2.1017    0.0000 C   0  0  0  0  0  0  0  0  0  0  0  0
    5.9236   -1.7416    0.0000 C   0  0  0  0  0  0  0  0  0  0  0  0
   16.0540    2.1017    0.0000 C   0  0  0  0  0  0  0  0  0  0  0  0
   14.3598    1.7416    0.0000 C   0  0  0  0  0  0  0  0  0  0  0  0
    4.6453   -4.0580    0.0000 C   0  0  0  0  0  0  0  0  0  0  0  0
   15.6382    4.0580    0.0000 C   0  0  0  0  0  0  0  0  0  0  0  0
    7.0826   -3.0288    0.0000 C   0  0  0  0  0  0  0  0  0  0  0  0
   13.2008    3.0288    0.0000 C   0  0  0  0  0  0  0  0  0  0  0  0
    8.0337   -3.3378    0.0000 C   0  0  0  0  0  0  0  0  0  0  0  0
   12.2498    3.3378    0.0000 C   0  0  0  0  0  0  0  0  0  0  0  0
    8.8427   -2.7500    0.0000 C   0  0  0  0  0  0  0  0  0  0  0  0
   11.4408    2.7500    0.0000 C   0  0  0  0  0  0  0  0  0  0  0  0
    9.7087   -0.2500    0.0000 C   0  0  0  0  0  0  0  0  0  0  0  0
   10.5747    0.2500    0.0000 C   0  0  0  0  0  0  0  0  0  0  0  0
    2.9511   -4.4181    0.0000 C   0  0  0  0  0  0  0  0  0  0  0  0
   17.3324    4.4181    0.0000 C   0  0  0  0  0  0  0  0  0  0  0  0
    8.8427   -1.7500    0.0000 C   0  0  0  0  0  0  0  0  0  0  0  0
   11.4408    1.7500    0.0000 C   0  0  0  0  0  0  0  0  0  0  0  0
    9.3427   -4.2888    0.0000 C   0  0  0  0  0  0  0  0  0  0  0  0
   10.9408    4.2888    0.0000 C   0  0  0  0  0  0  0  0  0  0  0  0
    2.0000   -4.1091    0.0000 C   0  0  0  0  0  0  0  0  0  0  0  0
   18.2834    4.1091    0.0000 C   0  0  0  0  0  0  0  0  0  0  0  0
    5.0516   -1.8043    0.0000 H   0  0  0  0  0  0  0  0  0  0  0  0
   15.2318    1.8043    0.0000 H   0  0  0  0  0  0  0  0  0  0  0  0
    5.5173   -3.9953    0.0000 H   0  0  0  0  0  0  0  0  0  0  0  0
   14.7661    3.9953    0.0000 H   0  0  0  0  0  0  0  0  0  0  0  0
    4.4210   -1.5121    0.0000 H   0  0  0  0  0  0  0  0  0  0  0  0
    3.6398   -1.9101    0.0000 H   0  0  0  0  0  0  0  0  0  0  0  0
    4.0378   -2.6914    0.0000 H   0  0  0  0  0  0  0  0  0  0  0  0
    6.3385   -2.2024    0.0000 H   0  0  0  0  0  0  0  0  0  0  0  0
    6.3844   -1.3267    0.0000 H   0  0  0  0  0  0  0  0  0  0  0  0
    5.5088   -1.2808    0.0000 H   0  0  0  0  0  0  0  0  0  0  0  0
   15.8624    1.5121    0.0000 H   0  0  0  0  0  0  0  0  0  0  0  0
   16.6437    1.9101    0.0000 H   0  0  0  0  0  0  0  0  0  0  0  0
   16.2456    2.6914    0.0000 H   0  0  0  0  0  0  0  0  0  0  0  0
   13.9449    2.2024    0.0000 H   0  0  0  0  0  0  0  0  0  0  0  0
   13.8990    1.3267    0.0000 H   0  0  0  0  0  0  0  0  0  0  0  0
   14.7747    1.2808    0.0000 H   0  0  0  0  0  0  0  0  0  0  0  0
    6.4684   -4.3044    0.0000 H   0  0  0  0  0  0  0  0  0  0  0  0
   13.8151    4.3044    0.0000 H   0  0  0  0  0  0  0  0  0  0  0  0
    9.4966    0.3326    0.0000 H   0  0  0  0  0  0  0  0  0  0  0  0
    9.0981   -0.3577    0.0000 H   0  0  0  0  0  0  0  0  0  0  0  0
   10.7868   -0.3326    0.0000 H   0  0  0  0  0  0  0  0  0  0  0  0
   11.1853    0.3577    0.0000 H   0  0  0  0  0  0  0  0  0  0  0  0
    2.6600   -4.9656    0.0000 H   0  0  0  0  0  0  0  0  0  0  0  0
    3.4396   -4.7998    0.0000 H   0  0  0  0  0  0  0  0  0  0  0  0
   17.6234    4.9656    0.0000 H   0  0  0  0  0  0  0  0  0  0  0  0
   16.8438    4.7998    0.0000 H   0  0  0  0  0  0  0  0  0  0  0  0
   10.2413   -3.1462    0.0000 H   0  0  0  0  0  0  0  0  0  0  0  0
   10.0421    3.1462    0.0000 H   0  0  0  0  0  0  0  0  0  0  0  0
   10.2456   -1.5600    0.0000 H   0  0  0  0  0  0  0  0  0  0  0  0
   10.0378    1.5600    0.0000 H   0  0  0  0  0  0  0  0  0  0  0  0
    9.7071   -4.7904    0.0000 H   0  0  0  0  0  0  0  0  0  0  0  0
   10.5763    4.7904    0.0000 H   0  0  0  0  0  0  0  0  0  0  0  0
    2.1916   -3.5194    0.0000 H   0  0  0  0  0  0  0  0  0  0  0  0
    1.4103   -3.9175    0.0000 H   0  0  0  0  0  0  0  0  0  0  0  0
    1.8084   -4.6988    0.0000 H   0  0  0  0  0  0  0  0  0  0  0  0
   18.0918    3.5194    0.0000 H   0  0  0  0  0  0  0  0  0  0  0  0
   18.8731    3.9175    0.0000 H   0  0  0  0  0  0  0  0  0  0  0  0
   18.4750    4.6988    0.0000 H   0  0  0  0  0  0  0  0  0  0  0  0
  1 25  1  0  0  0  0
  1 35  1  0  0  0  0
  2 26  1  0  0  0  0
  2 36  1  0  0  0  0
  3 25  2  0  0  0  0
  4 26  2  0  0  0  0
  5 27  2  0  0  0  0
  6 28  2  0  0  0  0
  7 37  2  0  0  0  0
  8 38  2  0  0  0  0
 19  9  1  6  0  0  0
  9 27  1  0  0  0  0
  9 59  1  0  0  0  0
 20 10  1  6  0  0  0
 10 28  1  0  0  0  0
 10 60  1  0  0  0  0
 11 31  1  0  0  0  0
 11 39  1  0  0  0  0
 11 69  1  0  0  0  0
 12 32  1  0  0  0  0
 12 40  1  0  0  0  0
 12 70  1  0  0  0  0
 13 33  1  0  0  0  0
 13 37  1  0  0  0  0
 13 71  1  0  0  0  0
 14 34  1  0  0  0  0
 14 38  1  0  0  0  0
 14 72  1  0  0  0  0
 15 29  1  0  0  0  0
 15 39  2  0  0  0  0
 16 30  1  0  0  0  0
 16 40  2  0  0  0  0
 17 19  1  0  0  0  0
 17 21  1  0  0  0  0
 17 22  1  0  0  0  0
 17 43  1  0  0  0  0
 18 20  1  0  0  0  0
 18 23  1  0  0  0  0
 18 24  1  0  0  0  0
 18 44  1  0  0  0  0
 19 25  1  0  0  0  0
 19 45  1  0  0  0  0
 20 26  1  0  0  0  0
 20 46  1  0  0  0  0
 21 47  1  0  0  0  0
 21 48  1  0  0  0  0
 21 49  1  0  0  0  0
 22 50  1  0  0  0  0
 22 51  1  0  0  0  0
 22 52  1  0  0  0  0
 23 53  1  0  0  0  0
 23 54  1  0  0  0  0
 23 55  1  0  0  0  0
 24 56  1  0  0  0  0
 24 57  1  0  0  0  0
 24 58  1  0  0  0  0
 27 29  1  0  0  0  0
 28 30  1  0  0  0  0
 29 31  2  0  0  0  0
 30 32  2  0  0  0  0
 31 37  1  0  0  0  0
 32 38  1  0  0  0  0
 33 34  1  0  0  0  0
 33 61  1  0  0  0  0
 33 62  1  0  0  0  0
 34 63  1  0  0  0  0
 34 64  1  0  0  0  0
 35 41  1  0  0  0  0
 35 65  1  0  0  0  0
 35 66  1  0  0  0  0
 36 42  1  0  0  0  0
 36 67  1  0  0  0  0
 36 68  1  0  0  0  0
 39 73  1  0  0  0  0
 40 74  1  0  0  0  0
 41 75  1  0  0  0  0
 41 76  1  0  0  0  0
 41 77  1  0  0  0  0
 42 78  1  0  0  0  0
 42 79  1  0  0  0  0
 42 80  1  0  0  0  0
M  END
> <PUBCHEM_COMPOUND_CID>
510537
> <PUBCHEM_COMPOUND_CANONICALIZED>
1
> <PUBCHEM_CACTVS_COMPLEXITY>
902
> <PUBCHEM_CACTVS_HBOND_ACCEPTOR>
10
> <PUBCHEM_CACTVS_HBOND_DONOR>
6
> <PUBCHEM_CACTVS_ROTATABLE_BOND>
17
> <PUBCHEM_CACTVS_SUBSKEYS>
AAADcfB7/AAAAAAAAAAAAAAAAAAAAWLAAAAAAAAAAAAAAAAB4AAAHgAQAAAADSjhlgYHmBbJlACoAQXxfACAgC2XEKABWYGoVECCSBhAyCAXAYhMFgLQAWAFAAAIAAAAAAAAAAAAAAAAAAAAAAAAAAAAAA==
> <PUBCHEM_IUPAC_OPENEYE_NAME>
ethyl (2S)-2-[[5-[2-[[4-[[(1S)-1-ethoxycarbonyl-2-methyl-propyl]carbamoyl]-1H-imidazole-5-carbonyl]amino]ethylcarbamoyl]-1H-imidazole-4-carbonyl]amino]-3-methyl-butanoate
> <PUBCHEM_IUPAC_CAS_NAME>
(2S)-2-[[[5-[[2-[[[4-[[[(2S)-1-ethoxy-3-methyl-1-oxobutan-2-yl]amino]-oxomethyl]-1H-imidazol-5-yl]-oxomethyl]amino]ethylamino]-oxomethyl]-1H-imidazol-4-yl]-oxomethyl]amino]-3-methylbutanoic acid ethyl ester
> <PUBCHEM_IUPAC_NAME_MARKUP>
ethyl (2<I>S</I>)-2-[[5-[2-[[4-[[(2<I>S</I>)-1-ethoxy-3-methyl-1-oxobutan-2-yl]carbamoyl]-1<I>H</I>-imidazole-5-carbonyl]amino]ethylcarbamoyl]-1<I>H</I>-imidazole-4-carbonyl]amino]-3-methylbutanoate
> <PUBCHEM_IUPAC_NAME>
ethyl (2S)-2-[[5-[2-[[4-[[(2S)-1-ethoxy-3-methyl-1-oxobutan-2-yl]carbamoyl]-1H-imidazole-5-carbonyl]amino]ethylcarbamoyl]-1H-imidazole-4-carbonyl]amino]-3-methylbutanoate
> <PUBCHEM_IUPAC_SYSTEMATIC_NAME>
ethyl (2S)-2-[[5-[2-[[4-[[(2S)-1-ethoxy-3-methyl-1-oxidanylidene-butan-2-yl]carbamoyl]-1H-imidazol-5-yl]carbonylamino]ethylcarbamoyl]-1H-imidazol-4-yl]carbonylamino]-3-methyl-butanoate
> <PUBCHEM_IUPAC_TRADITIONAL_NAME>
(2S)-2-[[5-[2-[[4-[[(1S)-1-carbethoxy-2-methyl-propyl]carbamoyl]-1H-imidazole-5-carbonyl]amino]ethylcarbamoyl]-1H-imidazole-4-carbonyl]amino]-3-methyl-butyric acid ethyl ester
> <PUBCHEM_IUPAC_INCHI>
InChI=1S/C26H38N8O8/c1-7-41-25(39)15(13(3)4)33-23(37)19-17(29-11-31-19)21(35)27-9-10-28-22(36)18-20(32-12-30-18)24(38)34-16(14(5)6)26(40)42-8-2/h11-16H,7-10H2,1-6H3,(H,27,35)(H,28,36)(H,29,31)(H,30,32)(H,33,37)(H,34,38)/t15-,16-/m0/s1
> <PUBCHEM_IUPAC_INCHIKEY>
CRDKXRJFZLWRAE-HOTGVXAUSA-N
> <PUBCHEM_XLOGP3_AA>
1.6
> <PUBCHEM_EXACT_MASS>
590.28126020
> <PUBCHEM_MOLECULAR_FORMULA>
C26H38N8O8
> <PUBCHEM_MOLECULAR_WEIGHT>
590.6
> <PUBCHEM_OPENEYE_CAN_SMILES>
CCOC(=O)C(C(C)C)NC(=O)C1=C(NC=N1)C(=O)NCCNC(=O)C2=C(N=CN2)C(=O)NC(C(C)C)C(=O)OCC
> <PUBCHEM_OPENEYE_ISO_SMILES>
CCOC(=O)[C@H](C(C)C)NC(=O)C1=C(NC=N1)C(=O)NCCNC(=O)C2=C(N=CN2)C(=O)N[C@@H](C(C)C)C(=O)OCC
> <PUBCHEM_CACTVS_TPSA>
226
> <PUBCHEM_MONOISOTOPIC_WEIGHT>
590.28126020
> <PUBCHEM_TOTAL_CHARGE>
0
> <PUBCHEM_HEAVY_ATOM_COUNT>
42
> <PUBCHEM_ATOM_DEF_STEREO_COUNT>
2
> <PUBCHEM_ATOM_UDEF_STEREO_COUNT>
0
> <PUBCHEM_BOND_DEF_STEREO_COUNT>
0
> <PUBCHEM_BOND_UDEF_STEREO_COUNT>
0
> <PUBCHEM_ISOTOPIC_ATOM_COUNT>
0
> <PUBCHEM_COMPONENT_COUNT>
1
> <PUBCHEM_CACTVS_TAUTO_COUNT>
-1
> <PUBCHEM_COORDINATE_TYPE>
1
5
255
> <PUBCHEM_BONDANNOTATIONS>
20  10  6
11  31  8
11  39  8
12  32  8
12  40  8
15  29  8
15  39  8
16  30  8
16  40  8
29  31  8
30  32  8
19  9  6
$$$$
