510546
  -OEChem-10302200282D
130133  0     1  0  0  0  0  0999 V2000
    7.4321   -2.0329    0.0000 O   0  0  0  0  0  0  0  0  0  0  0  0
   14.5362    2.0329    0.0000 O   0  0  0  0  0  0  0  0  0  0  0  0
    3.7320   -5.3336    0.0000 O   0  0  0  0  0  0  0  0  0  0  0  0
   18.2362    5.3336    0.0000 O   0  0  0  0  0  0  0  0  0  0  0  0
    6.3301   -2.8336    0.0000 O   0  0  0  0  0  0  0  0  0  0  0  0
   15.6382    2.8336    0.0000 O   0  0  0  0  0  0  0  0  0  0  0  0
    2.8660   -3.8336    0.0000 O   0  0  0  0  0  0  0  0  0  0  0  0
   19.1023    3.8336    0.0000 O   0  0  0  0  0  0  0  0  0  0  0  0
    7.9673   -0.3857    0.0000 N   0  0  0  0  0  0  0  0  0  0  0  0
   14.0010    0.3857    0.0000 N   0  0  0  0  0  0  0  0  0  0  0  0
    5.9641    0.2053    0.0000 N   0  0  0  0  0  0  0  0  0  0  0  0
   16.0042   -0.2053    0.0000 N   0  0  0  0  0  0  0  0  0  0  0  0
    4.5981   -2.8336    0.0000 N   0  0  0  0  0  0  0  0  0  0  0  0
   17.3702    2.8336    0.0000 N   0  0  0  0  0  0  0  0  0  0  0  0
    4.6551   -0.7458    0.0000 N   0  0  0  0  0  0  0  0  0  0  0  0
   17.3132    0.7458    0.0000 N   0  0  0  0  0  0  0  0  0  0  0  0
   10.6126   -0.3346    0.0000 C   0  0  0  0  0  0  0  0  0  0  0  0
   11.3557    0.3346    0.0000 C   0  0  0  0  0  0  0  0  0  0  0  0
    9.6615   -0.0255    0.0000 C   0  0  0  0  0  0  0  0  0  0  0  0
   12.3068    0.0255    0.0000 C   0  0  0  0  0  0  0  0  0  0  0  0
    8.9184   -0.6947    0.0000 C   0  0  0  0  0  0  0  0  0  0  0  0
   13.0499    0.6947    0.0000 C   0  0  0  0  0  0  0  0  0  0  0  0
    7.7594    0.5925    0.0000 C   0  0  0  0  0  0  0  0  0  0  0  0
   14.2089   -0.5925    0.0000 C   0  0  0  0  0  0  0  0  0  0  0  0
    8.5026    1.2616    0.0000 C   0  0  0  0  0  0  0  0  0  0  0  0
   13.4657   -1.2616    0.0000 C   0  0  0  0  0  0  0  0  0  0  0  0
    7.2242   -1.0548    0.0000 C   0  0  0  0  0  0  0  0  0  0  0  0
   14.7441    1.0548    0.0000 C   0  0  0  0  0  0  0  0  0  0  0  0
    8.2946    2.2398    0.0000 C   0  0  0  0  0  0  0  0  0  0  0  0
   13.6737   -2.2398    0.0000 C   0  0  0  0  0  0  0  0  0  0  0  0
    6.2731   -0.7458    0.0000 C   0  0  0  0  0  0  0  0  0  0  0  0
   15.6952    0.7458    0.0000 C   0  0  0  0  0  0  0  0  0  0  0  0
    4.5981   -3.8336    0.0000 C   0  0  1  0  0  0  0  0  0  0  0  0
   17.3702    3.8336    0.0000 C   0  0  1  0  0  0  0  0  0  0  0  0
    5.4641   -4.3336    0.0000 C   0  0  0  0  0  0  0  0  0  0  0  0
   16.5042    4.3336    0.0000 C   0  0  0  0  0  0  0  0  0  0  0  0
    5.4641   -1.3336    0.0000 C   0  0  0  0  0  0  0  0  0  0  0  0
   16.5042    1.3336    0.0000 C   0  0  0  0  0  0  0  0  0  0  0  0
    9.0378    2.9089    0.0000 C   0  0  0  0  0  0  0  0  0  0  0  0
   12.9305   -2.9089    0.0000 C   0  0  0  0  0  0  0  0  0  0  0  0
    5.4641   -2.3336    0.0000 C   0  0  0  0  0  0  0  0  0  0  0  0
   16.5042    2.3336    0.0000 C   0  0  0  0  0  0  0  0  0  0  0  0
    6.3301   -3.8336    0.0000 C   0  0  0  0  0  0  0  0  0  0  0  0
    5.4641   -5.3336    0.0000 C   0  0  0  0  0  0  0  0  0  0  0  0
   16.5042    5.3336    0.0000 C   0  0  0  0  0  0  0  0  0  0  0  0
   15.6382    3.8336    0.0000 C   0  0  0  0  0  0  0  0  0  0  0  0
    4.9641    0.2053    0.0000 C   0  0  0  0  0  0  0  0  0  0  0  0
   17.0042   -0.2053    0.0000 C   0  0  0  0  0  0  0  0  0  0  0  0
    3.7320   -4.3336    0.0000 C   0  0  0  0  0  0  0  0  0  0  0  0
   18.2362    4.3336    0.0000 C   0  0  0  0  0  0  0  0  0  0  0  0
    2.8660   -5.8336    0.0000 C   0  0  0  0  0  0  0  0  0  0  0  0
   19.1023    5.8336    0.0000 C   0  0  0  0  0  0  0  0  0  0  0  0
    2.8660   -6.8336    0.0000 C   0  0  0  0  0  0  0  0  0  0  0  0
   19.1023    6.8336    0.0000 C   0  0  0  0  0  0  0  0  0  0  0  0
    3.7320   -7.3336    0.0000 C   0  0  0  0  0  0  0  0  0  0  0  0
   18.2362    7.3336    0.0000 C   0  0  0  0  0  0  0  0  0  0  0  0
    2.0000   -7.3336    0.0000 C   0  0  0  0  0  0  0  0  0  0  0  0
   19.9683    7.3336    0.0000 C   0  0  0  0  0  0  0  0  0  0  0  0
    3.7320   -8.3336    0.0000 C   0  0  0  0  0  0  0  0  0  0  0  0
   18.2362    8.3336    0.0000 C   0  0  0  0  0  0  0  0  0  0  0  0
    2.0000   -8.3336    0.0000 C   0  0  0  0  0  0  0  0  0  0  0  0
   19.9683    8.3336    0.0000 C   0  0  0  0  0  0  0  0  0  0  0  0
    2.8660   -8.8336    0.0000 C   0  0  0  0  0  0  0  0  0  0  0  0
   19.1023    8.8336    0.0000 C   0  0  0  0  0  0  0  0  0  0  0  0
   10.3215   -0.8820    0.0000 H   0  0  0  0  0  0  0  0  0  0  0  0
   11.1011   -0.7163    0.0000 H   0  0  0  0  0  0  0  0  0  0  0  0
   11.6468    0.8820    0.0000 H   0  0  0  0  0  0  0  0  0  0  0  0
   10.8672    0.7163    0.0000 H   0  0  0  0  0  0  0  0  0  0  0  0
    9.9526    0.5219    0.0000 H   0  0  0  0  0  0  0  0  0  0  0  0
    9.1730    0.3562    0.0000 H   0  0  0  0  0  0  0  0  0  0  0  0
   12.0157   -0.5219    0.0000 H   0  0  0  0  0  0  0  0  0  0  0  0
   12.7953   -0.3562    0.0000 H   0  0  0  0  0  0  0  0  0  0  0  0
    8.6273   -1.2421    0.0000 H   0  0  0  0  0  0  0  0  0  0  0  0
    9.4069   -1.0764    0.0000 H   0  0  0  0  0  0  0  0  0  0  0  0
   13.3410    1.2421    0.0000 H   0  0  0  0  0  0  0  0  0  0  0  0
   12.5614    1.0764    0.0000 H   0  0  0  0  0  0  0  0  0  0  0  0
    7.4309    1.1183    0.0000 H   0  0  0  0  0  0  0  0  0  0  0  0
    7.1846    0.3602    0.0000 H   0  0  0  0  0  0  0  0  0  0  0  0
   14.5374   -1.1183    0.0000 H   0  0  0  0  0  0  0  0  0  0  0  0
   14.7837   -0.3602    0.0000 H   0  0  0  0  0  0  0  0  0  0  0  0
    8.8311    0.7358    0.0000 H   0  0  0  0  0  0  0  0  0  0  0  0
    9.0774    1.4939    0.0000 H   0  0  0  0  0  0  0  0  0  0  0  0
   13.1372   -0.7358    0.0000 H   0  0  0  0  0  0  0  0  0  0  0  0
   12.8909   -1.4939    0.0000 H   0  0  0  0  0  0  0  0  0  0  0  0
    7.9661    2.7656    0.0000 H   0  0  0  0  0  0  0  0  0  0  0  0
    7.7198    2.0075    0.0000 H   0  0  0  0  0  0  0  0  0  0  0  0
   14.0022   -2.7656    0.0000 H   0  0  0  0  0  0  0  0  0  0  0  0
   14.2485   -2.0075    0.0000 H   0  0  0  0  0  0  0  0  0  0  0  0
    5.1350   -3.5236    0.0000 H   0  0  0  0  0  0  0  0  0  0  0  0
   17.9072    3.5236    0.0000 H   0  0  0  0  0  0  0  0  0  0  0  0
    6.0010   -4.6436    0.0000 H   0  0  0  0  0  0  0  0  0  0  0  0
   15.9673    4.6436    0.0000 H   0  0  0  0  0  0  0  0  0  0  0  0
    9.4526    2.4481    0.0000 H   0  0  0  0  0  0  0  0  0  0  0  0
    9.4985    3.3238    0.0000 H   0  0  0  0  0  0  0  0  0  0  0  0
    8.6229    3.3696    0.0000 H   0  0  0  0  0  0  0  0  0  0  0  0
   12.5157   -2.4481    0.0000 H   0  0  0  0  0  0  0  0  0  0  0  0
   12.4698   -3.3238    0.0000 H   0  0  0  0  0  0  0  0  0  0  0  0
   13.3454   -3.3696    0.0000 H   0  0  0  0  0  0  0  0  0  0  0  0
    6.3285    0.7069    0.0000 H   0  0  0  0  0  0  0  0  0  0  0  0
   15.6398   -0.7069    0.0000 H   0  0  0  0  0  0  0  0  0  0  0  0
    4.0611   -2.5236    0.0000 H   0  0  0  0  0  0  0  0  0  0  0  0
   17.9072    2.5236    0.0000 H   0  0  0  0  0  0  0  0  0  0  0  0
    6.6401   -4.3705    0.0000 H   0  0  0  0  0  0  0  0  0  0  0  0
    6.8671   -3.5236    0.0000 H   0  0  0  0  0  0  0  0  0  0  0  0
    6.0201   -3.2966    0.0000 H   0  0  0  0  0  0  0  0  0  0  0  0
    4.8441   -5.3336    0.0000 H   0  0  0  0  0  0  0  0  0  0  0  0
    5.4641   -5.9536    0.0000 H   0  0  0  0  0  0  0  0  0  0  0  0
    6.0841   -5.3336    0.0000 H   0  0  0  0  0  0  0  0  0  0  0  0
   17.1242    5.3336    0.0000 H   0  0  0  0  0  0  0  0  0  0  0  0
   16.5042    5.9536    0.0000 H   0  0  0  0  0  0  0  0  0  0  0  0
   15.8842    5.3336    0.0000 H   0  0  0  0  0  0  0  0  0  0  0  0
   15.3282    4.3705    0.0000 H   0  0  0  0  0  0  0  0  0  0  0  0
   15.1012    3.5236    0.0000 H   0  0  0  0  0  0  0  0  0  0  0  0
   15.9482    3.2966    0.0000 H   0  0  0  0  0  0  0  0  0  0  0  0
    4.5997    0.7069    0.0000 H   0  0  0  0  0  0  0  0  0  0  0  0
   17.3686   -0.7069    0.0000 H   0  0  0  0  0  0  0  0  0  0  0  0
    2.6540   -5.2509    0.0000 H   0  0  0  0  0  0  0  0  0  0  0  0
    2.2554   -5.9412    0.0000 H   0  0  0  0  0  0  0  0  0  0  0  0
   19.3143    5.2509    0.0000 H   0  0  0  0  0  0  0  0  0  0  0  0
   19.7129    5.9412    0.0000 H   0  0  0  0  0  0  0  0  0  0  0  0
    4.2690   -7.0236    0.0000 H   0  0  0  0  0  0  0  0  0  0  0  0
   17.6993    7.0236    0.0000 H   0  0  0  0  0  0  0  0  0  0  0  0
    1.4631   -7.0236    0.0000 H   0  0  0  0  0  0  0  0  0  0  0  0
   20.5052    7.0236    0.0000 H   0  0  0  0  0  0  0  0  0  0  0  0
    4.2690   -8.6436    0.0000 H   0  0  0  0  0  0  0  0  0  0  0  0
   17.6993    8.6436    0.0000 H   0  0  0  0  0  0  0  0  0  0  0  0
    1.4631   -8.6436    0.0000 H   0  0  0  0  0  0  0  0  0  0  0  0
   20.5052    8.6436    0.0000 H   0  0  0  0  0  0  0  0  0  0  0  0
    2.8660   -9.4536    0.0000 H   0  0  0  0  0  0  0  0  0  0  0  0
   19.1023    9.4536    0.0000 H   0  0  0  0  0  0  0  0  0  0  0  0
  1 27  2  0  0  0  0
  2 28  2  0  0  0  0
  3 49  1  0  0  0  0
  3 51  1  0  0  0  0
  4 50  1  0  0  0  0
  4 52  1  0  0  0  0
  5 41  2  0  0  0  0
  6 42  2  0  0  0  0
  7 49  2  0  0  0  0
  8 50  2  0  0  0  0
  9 21  1  0  0  0  0
  9 23  1  0  0  0  0
  9 27  1  0  0  0  0
 10 22  1  0  0  0  0
 10 24  1  0  0  0  0
 10 28  1  0  0  0  0
 11 31  1  0  0  0  0
 11 47  1  0  0  0  0
 11 99  1  0  0  0  0
 12 32  1  0  0  0  0
 12 48  1  0  0  0  0
 12100  1  0  0  0  0
 33 13  1  1  0  0  0
 13 41  1  0  0  0  0
 13101  1  0  0  0  0
 34 14  1  1  0  0  0
 14 42  1  0  0  0  0
 14102  1  0  0  0  0
 15 37  1  0  0  0  0
 15 47  2  0  0  0  0
 16 38  1  0  0  0  0
 16 48  2  0  0  0  0
 17 18  1  0  0  0  0
 17 19  1  0  0  0  0
 17 65  1  0  0  0  0
 17 66  1  0  0  0  0
 18 20  1  0  0  0  0
 18 67  1  0  0  0  0
 18 68  1  0  0  0  0
 19 21  1  0  0  0  0
 19 69  1  0  0  0  0
 19 70  1  0  0  0  0
 20 22  1  0  0  0  0
 20 71  1  0  0  0  0
 20 72  1  0  0  0  0
 21 73  1  0  0  0  0
 21 74  1  0  0  0  0
 22 75  1  0  0  0  0
 22 76  1  0  0  0  0
 23 25  1  0  0  0  0
 23 77  1  0  0  0  0
 23 78  1  0  0  0  0
 24 26  1  0  0  0  0
 24 79  1  0  0  0  0
 24 80  1  0  0  0  0
 25 29  1  0  0  0  0
 25 81  1  0  0  0  0
 25 82  1  0  0  0  0
 26 30  1  0  0  0  0
 26 83  1  0  0  0  0
 26 84  1  0  0  0  0
 27 31  1  0  0  0  0
 28 32  1  0  0  0  0
 29 39  1  0  0  0  0
 29 85  1  0  0  0  0
 29 86  1  0  0  0  0
 30 40  1  0  0  0  0
 30 87  1  0  0  0  0
 30 88  1  0  0  0  0
 31 37  2  0  0  0  0
 32 38  2  0  0  0  0
 33 35  1  0  0  0  0
 33 49  1  0  0  0  0
 33 89  1  0  0  0  0
 34 36  1  0  0  0  0
 34 50  1  0  0  0  0
 34 90  1  0  0  0  0
 35 43  1  0  0  0  0
 35 44  1  0  0  0  0
 35 91  1  0  0  0  0
 36 45  1  0  0  0  0
 36 46  1  0  0  0  0
 36 92  1  0  0  0  0
 37 41  1  0  0  0  0
 38 42  1  0  0  0  0
 39 93  1  0  0  0  0
 39 94  1  0  0  0  0
 39 95  1  0  0  0  0
 40 96  1  0  0  0  0
 40 97  1  0  0  0  0
 40 98  1  0  0  0  0
 43103  1  0  0  0  0
 43104  1  0  0  0  0
 43105  1  0  0  0  0
 44106  1  0  0  0  0
 44107  1  0  0  0  0
 44108  1  0  0  0  0
 45109  1  0  0  0  0
 45110  1  0  0  0  0
 45111  1  0  0  0  0
 46112  1  0  0  0  0
 46113  1  0  0  0  0
 46114  1  0  0  0  0
 47115  1  0  0  0  0
 48116  1  0  0  0  0
 51 53  1  0  0  0  0
 51117  1  0  0  0  0
 51118  1  0  0  0  0
 52 54  1  0  0  0  0
 52119  1  0  0  0  0
 52120  1  0  0  0  0
 53 55  2  0  0  0  0
 53 57  1  0  0  0  0
 54 56  2  0  0  0  0
 54 58  1  0  0  0  0
 55 59  1  0  0  0  0
 55121  1  0  0  0  0
 56 60  1  0  0  0  0
 56122  1  0  0  0  0
 57 61  2  0  0  0  0
 57123  1  0  0  0  0
 58 62  2  0  0  0  0
 58124  1  0  0  0  0
 59 63  2  0  0  0  0
 59125  1  0  0  0  0
 60 64  2  0  0  0  0
 60126  1  0  0  0  0
 61 63  1  0  0  0  0
 61127  1  0  0  0  0
 62 64  1  0  0  0  0
 62128  1  0  0  0  0
 63129  1  0  0  0  0
 64130  1  0  0  0  0
M  END
> <PUBCHEM_COMPOUND_CID>
510546
> <PUBCHEM_COMPOUND_CANONICALIZED>
1
> <PUBCHEM_CACTVS_COMPLEXITY>
1350
> <PUBCHEM_CACTVS_HBOND_ACCEPTOR>
10
> <PUBCHEM_CACTVS_HBOND_DONOR>
4
> <PUBCHEM_CACTVS_ROTATABLE_BOND>
29
> <PUBCHEM_CACTVS_SUBSKEYS>
AAADcfB//AAAAAAAAAAAAAAAAAAAAWLAAAAwYAAAAAAAAAAB9AAAHgAQAAAADSjhngY3mJfJlACoAyXzfACCgC23EKAJ2YGoXMiKbjrA+TiXMYhs1gPYqWeVwCAOAAAAAAAAAAAAAAAAAAAAAAAAAAAAAA==
> <PUBCHEM_IUPAC_OPENEYE_NAME>
benzyl (2S)-2-[[5-[6-[[4-[[(1S)-1-benzyloxycarbonyl-2-methyl-propyl]carbamoyl]-1H-imidazole-5-carbonyl]-butyl-amino]hexyl-butyl-carbamoyl]-1H-imidazole-4-carbonyl]amino]-3-methyl-butanoate
> <PUBCHEM_IUPAC_CAS_NAME>
(2S)-2-[[[5-[[butyl-[6-[butyl-[[4-[[[(2S)-3-methyl-1-oxo-1-phenylmethoxybutan-2-yl]amino]-oxomethyl]-1H-imidazol-5-yl]-oxomethyl]amino]hexyl]amino]-oxomethyl]-1H-imidazol-4-yl]-oxomethyl]amino]-3-methylbutanoic acid (phenylmethyl) ester
> <PUBCHEM_IUPAC_NAME_MARKUP>
benzyl (2<I>S</I>)-2-[[5-[butyl-[6-[butyl-[4-[[(2<I>S</I>)-3-methyl-1-oxo-1-phenylmethoxybutan-2-yl]carbamoyl]-1<I>H</I>-imidazole-5-carbonyl]amino]hexyl]carbamoyl]-1<I>H</I>-imidazole-4-carbonyl]amino]-3-methylbutanoate
> <PUBCHEM_IUPAC_NAME>
benzyl (2S)-2-[[5-[butyl-[6-[butyl-[4-[[(2S)-3-methyl-1-oxo-1-phenylmethoxybutan-2-yl]carbamoyl]-1H-imidazole-5-carbonyl]amino]hexyl]carbamoyl]-1H-imidazole-4-carbonyl]amino]-3-methylbutanoate
> <PUBCHEM_IUPAC_SYSTEMATIC_NAME>
(phenylmethyl) (2S)-2-[[5-[butyl-[6-[butyl-[[4-[[(2S)-3-methyl-1-oxidanylidene-1-phenylmethoxy-butan-2-yl]carbamoyl]-1H-imidazol-5-yl]carbonyl]amino]hexyl]carbamoyl]-1H-imidazol-4-yl]carbonylamino]-3-methyl-butanoate
> <PUBCHEM_IUPAC_TRADITIONAL_NAME>
(2S)-2-[[5-[butyl-[6-[butyl-[4-[[(1S)-1-carbobenzoxy-2-methyl-propyl]carbamoyl]-1H-imidazole-5-carbonyl]amino]hexyl]carbamoyl]-1H-imidazole-4-carbonyl]amino]-3-methyl-butyric acid benzyl ester
> <PUBCHEM_IUPAC_INCHI>
InChI=1S/C48H66N8O8/c1-7-9-25-55(45(59)41-39(49-31-51-41)43(57)53-37(33(3)4)47(61)63-29-35-21-15-13-16-22-35)27-19-11-12-20-28-56(26-10-8-2)46(60)42-40(50-32-52-42)44(58)54-38(34(5)6)48(62)64-30-36-23-17-14-18-24-36/h13-18,21-24,31-34,37-38H,7-12,19-20,25-30H2,1-6H3,(H,49,51)(H,50,52)(H,53,57)(H,54,58)/t37-,38-/m0/s1
> <PUBCHEM_IUPAC_INCHIKEY>
FWWIJEOIFTVEQJ-UWXQCODUSA-N
> <PUBCHEM_XLOGP3_AA>
8.2
> <PUBCHEM_EXACT_MASS>
882.50036109
> <PUBCHEM_MOLECULAR_FORMULA>
C48H66N8O8
> <PUBCHEM_MOLECULAR_WEIGHT>
883.1
> <PUBCHEM_OPENEYE_CAN_SMILES>
CCCCN(CCCCCCN(CCCC)C(=O)C1=C(N=CN1)C(=O)NC(C(C)C)C(=O)OCC2=CC=CC=C2)C(=O)C3=C(N=CN3)C(=O)NC(C(C)C)C(=O)OCC4=CC=CC=C4
> <PUBCHEM_OPENEYE_ISO_SMILES>
CCCCN(CCCCCCN(CCCC)C(=O)C1=C(N=CN1)C(=O)N[C@@H](C(C)C)C(=O)OCC2=CC=CC=C2)C(=O)C3=C(N=CN3)C(=O)N[C@@H](C(C)C)C(=O)OCC4=CC=CC=C4
> <PUBCHEM_CACTVS_TPSA>
209
> <PUBCHEM_MONOISOTOPIC_WEIGHT>
882.50036109
> <PUBCHEM_TOTAL_CHARGE>
0
> <PUBCHEM_HEAVY_ATOM_COUNT>
64
> <PUBCHEM_ATOM_DEF_STEREO_COUNT>
2
> <PUBCHEM_ATOM_UDEF_STEREO_COUNT>
0
> <PUBCHEM_BOND_DEF_STEREO_COUNT>
0
> <PUBCHEM_BOND_UDEF_STEREO_COUNT>
0
> <PUBCHEM_ISOTOPIC_ATOM_COUNT>
0
> <PUBCHEM_COMPONENT_COUNT>
1
> <PUBCHEM_CACTVS_TAUTO_COUNT>
-1
> <PUBCHEM_COORDINATE_TYPE>
1
5
255
> <PUBCHEM_BONDANNOTATIONS>
11  31  8
11  47  8
12  32  8
12  48  8
33  13  5
34  14  5
15  37  8
15  47  8
16  38  8
16  48  8
31  37  8
32  38  8
53  55  8
53  57  8
54  56  8
54  58  8
55  59  8
56  60  8
57  61  8
58  62  8
59  63  8
60  64  8
61  63  8
62  64  8
$$$$
