510585
  -OEChem-10302200282D
 32 34  0     1  0  0  0  0  0999 V2000
    4.6783   -2.2939    0.0000 S   0  0  0  0  0  0  0  0  0  0  0  0
    5.4883   -2.8803    0.0000 O   0  0  0  0  0  0  0  0  0  0  0  0
    4.3709   -3.2455    0.0000 O   0  0  0  0  0  0  0  0  0  0  0  0
    5.9209    3.1176    0.0000 O   0  0  0  0  0  0  0  0  0  0  0  0
    5.2619   -1.4892    0.0000 N   0  0  3  0  0  0  0  0  0  0  0  0
    4.6783   -0.6844    0.0000 C   0  0  3  0  0  0  0  0  0  0  0  0
    3.7320   -0.9892    0.0000 C   0  0  0  0  0  0  0  0  0  0  0  0
    3.7320   -1.9892    0.0000 C   0  0  0  0  0  0  0  0  0  0  0  0
    4.9889    0.2661    0.0000 C   0  0  0  0  0  0  0  0  0  0  0  0
    6.2619   -1.4892    0.0000 C   0  0  0  0  0  0  0  0  0  0  0  0
    2.8660   -0.4892    0.0000 C   0  0  0  0  0  0  0  0  0  0  0  0
    2.8660   -2.4892    0.0000 C   0  0  0  0  0  0  0  0  0  0  0  0
    5.9674    0.4723    0.0000 C   0  0  0  0  0  0  0  0  0  0  0  0
    4.3211    1.0104    0.0000 C   0  0  0  0  0  0  0  0  0  0  0  0
    2.0000   -0.9892    0.0000 C   0  0  0  0  0  0  0  0  0  0  0  0
    2.0000   -1.9892    0.0000 C   0  0  0  0  0  0  0  0  0  0  0  0
    6.2781    1.4228    0.0000 C   0  0  0  0  0  0  0  0  0  0  0  0
    4.6318    1.9609    0.0000 C   0  0  0  0  0  0  0  0  0  0  0  0
    5.6103    2.1671    0.0000 C   0  0  0  0  0  0  0  0  0  0  0  0
    5.2908   -0.5882    0.0000 H   0  0  0  0  0  0  0  0  0  0  0  0
    6.2619   -2.1092    0.0000 H   0  0  0  0  0  0  0  0  0  0  0  0
    6.8819   -1.4892    0.0000 H   0  0  0  0  0  0  0  0  0  0  0  0
    6.2619   -0.8692    0.0000 H   0  0  0  0  0  0  0  0  0  0  0  0
    2.8660    0.1308    0.0000 H   0  0  0  0  0  0  0  0  0  0  0  0
    2.8660   -3.1092    0.0000 H   0  0  0  0  0  0  0  0  0  0  0  0
    6.3815    0.0108    0.0000 H   0  0  0  0  0  0  0  0  0  0  0  0
    3.7144    0.8825    0.0000 H   0  0  0  0  0  0  0  0  0  0  0  0
    1.4631   -0.6792    0.0000 H   0  0  0  0  0  0  0  0  0  0  0  0
    1.4631   -2.2992    0.0000 H   0  0  0  0  0  0  0  0  0  0  0  0
    6.8848    1.5507    0.0000 H   0  0  0  0  0  0  0  0  0  0  0  0
    4.2177    2.4224    0.0000 H   0  0  0  0  0  0  0  0  0  0  0  0
    6.5276    3.2455    0.0000 H   0  0  0  0  0  0  0  0  0  0  0  0
  1  2  2  0  0  0  0
  1  3  2  0  0  0  0
  1  5  1  0  0  0  0
  1  8  1  0  0  0  0
  4 19  1  0  0  0  0
  4 32  1  0  0  0  0
  5  6  1  0  0  0  0
  5 10  1  0  0  0  0
  6  7  1  0  0  0  0
  6  9  1  0  0  0  0
  6 20  1  0  0  0  0
  7  8  1  0  0  0  0
  7 11  2  0  0  0  0
  8 12  2  0  0  0  0
  9 13  2  0  0  0  0
  9 14  1  0  0  0  0
 10 21  1  0  0  0  0
 10 22  1  0  0  0  0
 10 23  1  0  0  0  0
 11 15  1  0  0  0  0
 11 24  1  0  0  0  0
 12 16  1  0  0  0  0
 12 25  1  0  0  0  0
 13 17  1  0  0  0  0
 13 26  1  0  0  0  0
 14 18  2  0  0  0  0
 14 27  1  0  0  0  0
 15 16  2  0  0  0  0
 15 28  1  0  0  0  0
 16 29  1  0  0  0  0
 17 19  2  0  0  0  0
 17 30  1  0  0  0  0
 18 19  1  0  0  0  0
 18 31  1  0  0  0  0
M  END
> <PUBCHEM_COMPOUND_CID>
510585
> <PUBCHEM_COMPOUND_CANONICALIZED>
1
> <PUBCHEM_CACTVS_COMPLEXITY>
423
> <PUBCHEM_CACTVS_HBOND_ACCEPTOR>
4
> <PUBCHEM_CACTVS_HBOND_DONOR>
1
> <PUBCHEM_CACTVS_ROTATABLE_BOND>
1
> <PUBCHEM_CACTVS_SUBSKEYS>
AAADccByMABAAAAAAAAAAAAAAAAAAWAAAAAwYAAAAAAAAFgBQAAAHgQASAAADCzB2AQyB4IAAgKAAiBCAHDCABAgIAAIiBgODIgIJiKCkROEcAhkwBEImAeQ0OMOIAAAAAAEAABAAAAAAAgAAAAAAAAAAA==
> <PUBCHEM_IUPAC_OPENEYE_NAME>
4-(2-methyl-1,1-dioxo-3H-1,2-benzothiazol-3-yl)phenol
> <PUBCHEM_IUPAC_CAS_NAME>
4-(2-methyl-1,1-dioxo-3H-1,2-benzothiazol-3-yl)phenol
> <PUBCHEM_IUPAC_NAME_MARKUP>
4-(2-methyl-1,1-dioxo-3<I>H</I>-1,2-benzothiazol-3-yl)phenol
> <PUBCHEM_IUPAC_NAME>
4-(2-methyl-1,1-dioxo-3H-1,2-benzothiazol-3-yl)phenol
> <PUBCHEM_IUPAC_SYSTEMATIC_NAME>
4-[2-methyl-1,1-bis(oxidanylidene)-3H-1,2-benzothiazol-3-yl]phenol
> <PUBCHEM_IUPAC_TRADITIONAL_NAME>
4-(1,1-diketo-2-methyl-3H-1,2-benzothiazol-3-yl)phenol
> <PUBCHEM_IUPAC_INCHI>
InChI=1S/C14H13NO3S/c1-15-14(10-6-8-11(16)9-7-10)12-4-2-3-5-13(12)19(15,17)18/h2-9,14,16H,1H3
> <PUBCHEM_IUPAC_INCHIKEY>
RVUSNJHQKZUJCT-UHFFFAOYSA-N
> <PUBCHEM_XLOGP3_AA>
2
> <PUBCHEM_EXACT_MASS>
275.06161445
> <PUBCHEM_MOLECULAR_FORMULA>
C14H13NO3S
> <PUBCHEM_MOLECULAR_WEIGHT>
275.32
> <PUBCHEM_OPENEYE_CAN_SMILES>
CN1C(C2=CC=CC=C2S1(=O)=O)C3=CC=C(C=C3)O
> <PUBCHEM_OPENEYE_ISO_SMILES>
CN1C(C2=CC=CC=C2S1(=O)=O)C3=CC=C(C=C3)O
> <PUBCHEM_CACTVS_TPSA>
66
> <PUBCHEM_MONOISOTOPIC_WEIGHT>
275.06161445
> <PUBCHEM_TOTAL_CHARGE>
0
> <PUBCHEM_HEAVY_ATOM_COUNT>
19
> <PUBCHEM_ATOM_DEF_STEREO_COUNT>
0
> <PUBCHEM_ATOM_UDEF_STEREO_COUNT>
1
> <PUBCHEM_BOND_DEF_STEREO_COUNT>
0
> <PUBCHEM_BOND_UDEF_STEREO_COUNT>
0
> <PUBCHEM_ISOTOPIC_ATOM_COUNT>
0
> <PUBCHEM_COMPONENT_COUNT>
1
> <PUBCHEM_CACTVS_TAUTO_COUNT>
-1
> <PUBCHEM_COORDINATE_TYPE>
1
5
255
> <PUBCHEM_BONDANNOTATIONS>
11  15  8
12  16  8
13  17  8
14  18  8
15  16  8
17  19  8
18  19  8
6  9  3
7  11  8
7  8  8
8  12  8
9  13  8
9  14  8
$$$$
