510617
  -OEChem-10302200282D
164166  0     1  0  0  0  0  0999 V2000
   10.6972    4.3838    0.0000 O   0  0  0  0  0  0  0  0  0  0  0  0
   12.0632    0.3450    0.0000 O   0  0  0  0  0  0  0  0  0  0  0  0
    9.4651    2.8450    0.0000 O   0  0  0  0  0  0  0  0  0  0  0  0
   12.9292   -0.1550    0.0000 O   0  0  0  0  0  0  0  0  0  0  0  0
    8.5991    3.3450    0.0000 O   0  0  0  0  0  0  0  0  0  0  0  0
   15.5273   -2.6550    0.0000 O   0  0  0  0  0  0  0  0  0  0  0  0
   14.6613    5.8450    0.0000 O   0  0  0  0  0  0  0  0  0  0  0  0
    5.1350    4.3450    0.0000 O   0  0  0  0  0  0  0  0  0  0  0  0
   18.1254   -0.1550    0.0000 O   0  0  0  0  0  0  0  0  0  0  0  0
   18.9914   -4.6550    0.0000 O   0  0  0  0  0  0  0  0  0  0  0  0
   20.7235   -2.6550    0.0000 O   0  0  0  0  0  0  0  0  0  0  0  0
   17.2594   -4.6550    0.0000 O   0  0  0  0  0  0  0  0  0  0  0  0
   23.3215   -0.1550    0.0000 O   0  0  0  0  0  0  0  0  0  0  0  0
   12.9292   -6.1550    0.0000 O   0  5  0  0  0  0  0  0  0  0  0  0
   14.6613   -6.1550    0.0000 O   0  0  0  0  0  0  0  0  0  0  0  0
   10.3312    1.3450    0.0000 N   0  0  0  0  0  0  0  0  0  0  0  0
   12.9292    1.8450    0.0000 N   0  0  0  0  0  0  0  0  0  0  0  0
    7.7331    1.8450    0.0000 N   0  0  0  0  0  0  0  0  0  0  0  0
   14.6613   -0.1550    0.0000 N   0  0  0  0  0  0  0  0  0  0  0  0
    6.0010    2.8450    0.0000 N   0  0  0  0  0  0  0  0  0  0  0  0
   16.3933   -1.1550    0.0000 N   0  0  0  0  0  0  0  0  0  0  0  0
    6.8671   -1.6550    0.0000 N   0  0  0  0  0  0  0  0  0  0  0  0
   18.9914   -1.6550    0.0000 N   0  0  0  0  0  0  0  0  0  0  0  0
    3.4030    3.3450    0.0000 N   0  0  0  0  0  0  0  0  0  0  0  0
   21.5895   -1.1550    0.0000 N   0  0  0  0  0  0  0  0  0  0  0  0
    6.0010   -3.1550    0.0000 N   0  0  0  0  0  0  0  0  0  0  0  0
    7.7331   -3.1550    0.0000 N   0  0  0  0  0  0  0  0  0  0  0  0
   13.7953   -5.6550    0.0000 N   0  3  0  0  0  0  0  0  0  0  0  0
    2.5369   -1.1550    0.0000 N   0  0  0  0  0  0  0  0  0  0  0  0
   24.1876   -1.6550    0.0000 N   0  0  0  0  0  0  0  0  0  0  0  0
   11.1972    2.8450    0.0000 C   0  0  3  0  0  0  0  0  0  0  0  0
   11.1972    1.8450    0.0000 C   0  0  1  0  0  0  0  0  0  0  0  0
   12.0062    3.4328    0.0000 C   0  0  0  0  0  0  0  0  0  0  0  0
   10.3882    3.4328    0.0000 C   0  0  0  0  0  0  0  0  0  0  0  0
   11.6972    4.3838    0.0000 C   0  0  0  0  0  0  0  0  0  0  0  0
   12.0632    1.3450    0.0000 C   0  0  0  0  0  0  0  0  0  0  0  0
    9.4651    1.8450    0.0000 C   0  0  0  0  0  0  0  0  0  0  0  0
    8.5991    1.3450    0.0000 C   0  0  2  0  0  0  0  0  0  0  0  0
   13.7953    1.3450    0.0000 C   0  0  1  0  0  0  0  0  0  0  0  0
    8.5991    0.3450    0.0000 C   0  0  0  0  0  0  0  0  0  0  0  0
   14.6613    1.8450    0.0000 C   0  0  0  0  0  0  0  0  0  0  0  0
   13.7953    0.3450    0.0000 C   0  0  0  0  0  0  0  0  0  0  0  0
    7.7331   -0.1550    0.0000 C   0  0  0  0  0  0  0  0  0  0  0  0
   14.6613    2.8450    0.0000 C   0  0  0  0  0  0  0  0  0  0  0  0
   14.6613   -1.1550    0.0000 C   0  0  1  0  0  0  0  0  0  0  0  0
    7.7331    2.8450    0.0000 C   0  0  0  0  0  0  0  0  0  0  0  0
    7.7331   -1.1550    0.0000 C   0  0  0  0  0  0  0  0  0  0  0  0
    6.8671    3.3450    0.0000 C   0  0  2  0  0  0  0  0  0  0  0  0
   13.7953   -1.6550    0.0000 C   0  0  0  0  0  0  0  0  0  0  0  0
   15.5273    3.3450    0.0000 C   0  0  0  0  0  0  0  0  0  0  0  0
   13.7953    3.3450    0.0000 C   0  0  0  0  0  0  0  0  0  0  0  0
   15.5273   -1.6550    0.0000 C   0  0  0  0  0  0  0  0  0  0  0  0
    6.8671    4.3450    0.0000 C   0  0  0  0  0  0  0  0  0  0  0  0
   13.7953   -2.6550    0.0000 C   0  0  0  0  0  0  0  0  0  0  0  0
   17.2594   -1.6550    0.0000 C   0  0  1  0  0  0  0  0  0  0  0  0
   15.5273    4.3450    0.0000 C   0  0  0  0  0  0  0  0  0  0  0  0
   13.7953    4.3450    0.0000 C   0  0  0  0  0  0  0  0  0  0  0  0
   14.6613    4.8450    0.0000 C   0  0  0  0  0  0  0  0  0  0  0  0
   17.2594   -2.6550    0.0000 C   0  0  0  0  0  0  0  0  0  0  0  0
    5.1350    3.3450    0.0000 C   0  0  0  0  0  0  0  0  0  0  0  0
    4.2690    2.8450    0.0000 C   0  0  2  0  0  0  0  0  0  0  0  0
    4.2690    1.8450    0.0000 C   0  0  0  0  0  0  0  0  0  0  0  0
   18.1254   -1.1550    0.0000 C   0  0  0  0  0  0  0  0  0  0  0  0
   14.6613   -3.1550    0.0000 C   0  0  0  0  0  0  0  0  0  0  0  0
   12.9292   -3.1550    0.0000 C   0  0  0  0  0  0  0  0  0  0  0  0
   18.1254   -3.1550    0.0000 C   0  0  0  0  0  0  0  0  0  0  0  0
    3.4030    1.3450    0.0000 C   0  0  0  0  0  0  0  0  0  0  0  0
    6.8671   -2.6550    0.0000 C   0  0  0  0  0  0  0  0  0  0  0  0
   19.8574   -1.1550    0.0000 C   0  0  2  0  0  0  0  0  0  0  0  0
   14.6613   -4.1550    0.0000 C   0  0  0  0  0  0  0  0  0  0  0  0
   12.9292   -4.1550    0.0000 C   0  0  0  0  0  0  0  0  0  0  0  0
    3.4030    0.3450    0.0000 C   0  0  0  0  0  0  0  0  0  0  0  0
   13.7953   -4.6550    0.0000 C   0  0  0  0  0  0  0  0  0  0  0  0
   22.4555   -1.6550    0.0000 C   0  0  1  0  0  0  0  0  0  0  0  0
   20.7235   -1.6550    0.0000 C   0  0  0  0  0  0  0  0  0  0  0  0
   22.4555   -2.6550    0.0000 C   0  0  0  0  0  0  0  0  0  0  0  0
   19.8574   -0.1550    0.0000 C   0  0  0  0  0  0  0  0  0  0  0  0
   18.1254   -4.1550    0.0000 C   0  0  0  0  0  0  0  0  0  0  0  0
    2.5369   -0.1550    0.0000 C   0  0  0  0  0  0  0  0  0  0  0  0
   23.3215   -3.1550    0.0000 C   0  0  0  0  0  0  0  0  0  0  0  0
   23.3215   -4.1550    0.0000 C   0  0  0  0  0  0  0  0  0  0  0  0
   23.3215   -1.1550    0.0000 C   0  0  0  0  0  0  0  0  0  0  0  0
   24.1876   -4.6550    0.0000 C   0  0  0  0  0  0  0  0  0  0  0  0
   11.7496    2.5635    0.0000 H   0  0  0  0  0  0  0  0  0  0  0  0
   10.6603    2.1550    0.0000 H   0  0  0  0  0  0  0  0  0  0  0  0
   12.3162    2.8958    0.0000 H   0  0  0  0  0  0  0  0  0  0  0  0
   12.5726    3.6850    0.0000 H   0  0  0  0  0  0  0  0  0  0  0  0
    9.8218    3.6850    0.0000 H   0  0  0  0  0  0  0  0  0  0  0  0
   10.0782    2.8958    0.0000 H   0  0  0  0  0  0  0  0  0  0  0  0
   12.3036    4.5127    0.0000 H   0  0  0  0  0  0  0  0  0  0  0  0
   11.6324    5.0004    0.0000 H   0  0  0  0  0  0  0  0  0  0  0  0
   10.3312    0.7250    0.0000 H   0  0  0  0  0  0  0  0  0  0  0  0
   12.9292    2.4650    0.0000 H   0  0  0  0  0  0  0  0  0  0  0  0
    8.5991    1.9650    0.0000 H   0  0  0  0  0  0  0  0  0  0  0  0
   13.7953    1.9650    0.0000 H   0  0  0  0  0  0  0  0  0  0  0  0
    8.8112   -0.2376    0.0000 H   0  0  0  0  0  0  0  0  0  0  0  0
    9.2097    0.4527    0.0000 H   0  0  0  0  0  0  0  0  0  0  0  0
   14.8733    1.2624    0.0000 H   0  0  0  0  0  0  0  0  0  0  0  0
   15.2719    1.9527    0.0000 H   0  0  0  0  0  0  0  0  0  0  0  0
    7.1962    1.5350    0.0000 H   0  0  0  0  0  0  0  0  0  0  0  0
    7.5210    0.4276    0.0000 H   0  0  0  0  0  0  0  0  0  0  0  0
    7.1225   -0.2627    0.0000 H   0  0  0  0  0  0  0  0  0  0  0  0
   15.1982    0.1550    0.0000 H   0  0  0  0  0  0  0  0  0  0  0  0
   14.1244   -0.8450    0.0000 H   0  0  0  0  0  0  0  0  0  0  0  0
    7.9451   -1.7376    0.0000 H   0  0  0  0  0  0  0  0  0  0  0  0
    8.3437   -1.0473    0.0000 H   0  0  0  0  0  0  0  0  0  0  0  0
    6.3301    3.6550    0.0000 H   0  0  0  0  0  0  0  0  0  0  0  0
   13.5832   -1.0724    0.0000 H   0  0  0  0  0  0  0  0  0  0  0  0
   13.1847   -1.7627    0.0000 H   0  0  0  0  0  0  0  0  0  0  0  0
   16.0643    3.0350    0.0000 H   0  0  0  0  0  0  0  0  0  0  0  0
   13.2583    3.0350    0.0000 H   0  0  0  0  0  0  0  0  0  0  0  0
    7.4871    4.3450    0.0000 H   0  0  0  0  0  0  0  0  0  0  0  0
    6.8671    4.9650    0.0000 H   0  0  0  0  0  0  0  0  0  0  0  0
    6.2471    4.3450    0.0000 H   0  0  0  0  0  0  0  0  0  0  0  0
    6.0010    2.2250    0.0000 H   0  0  0  0  0  0  0  0  0  0  0  0
   16.7224   -1.9650    0.0000 H   0  0  0  0  0  0  0  0  0  0  0  0
   16.3933   -0.5350    0.0000 H   0  0  0  0  0  0  0  0  0  0  0  0
   16.0643    4.6550    0.0000 H   0  0  0  0  0  0  0  0  0  0  0  0
   13.2583    4.6550    0.0000 H   0  0  0  0  0  0  0  0  0  0  0  0
   16.6488   -2.5473    0.0000 H   0  0  0  0  0  0  0  0  0  0  0  0
   17.0473   -3.2376    0.0000 H   0  0  0  0  0  0  0  0  0  0  0  0
    4.2690    3.4650    0.0000 H   0  0  0  0  0  0  0  0  0  0  0  0
    4.4810    1.2624    0.0000 H   0  0  0  0  0  0  0  0  0  0  0  0
    4.8796    1.9527    0.0000 H   0  0  0  0  0  0  0  0  0  0  0  0
   15.1982   -2.8450    0.0000 H   0  0  0  0  0  0  0  0  0  0  0  0
   12.3923   -2.8450    0.0000 H   0  0  0  0  0  0  0  0  0  0  0  0
   18.7360   -3.2627    0.0000 H   0  0  0  0  0  0  0  0  0  0  0  0
   18.3374   -2.5724    0.0000 H   0  0  0  0  0  0  0  0  0  0  0  0
    3.1909    1.9276    0.0000 H   0  0  0  0  0  0  0  0  0  0  0  0
    2.7924    1.2373    0.0000 H   0  0  0  0  0  0  0  0  0  0  0  0
   18.9914   -2.2750    0.0000 H   0  0  0  0  0  0  0  0  0  0  0  0
   19.3205   -0.8450    0.0000 H   0  0  0  0  0  0  0  0  0  0  0  0
   15.1982   -4.4650    0.0000 H   0  0  0  0  0  0  0  0  0  0  0  0
   12.3923   -4.4650    0.0000 H   0  0  0  0  0  0  0  0  0  0  0  0
    3.6150   -0.2376    0.0000 H   0  0  0  0  0  0  0  0  0  0  0  0
    4.0135    0.4527    0.0000 H   0  0  0  0  0  0  0  0  0  0  0  0
    2.8660    3.0350    0.0000 H   0  0  0  0  0  0  0  0  0  0  0  0
    3.4030    3.9650    0.0000 H   0  0  0  0  0  0  0  0  0  0  0  0
   21.9186   -1.9650    0.0000 H   0  0  0  0  0  0  0  0  0  0  0  0
   15.1982    6.1550    0.0000 H   0  0  0  0  0  0  0  0  0  0  0  0
   21.8449   -2.5473    0.0000 H   0  0  0  0  0  0  0  0  0  0  0  0
   22.2435   -3.2376    0.0000 H   0  0  0  0  0  0  0  0  0  0  0  0
   20.4774   -0.1550    0.0000 H   0  0  0  0  0  0  0  0  0  0  0  0
   19.8574    0.4650    0.0000 H   0  0  0  0  0  0  0  0  0  0  0  0
   19.2374   -0.1550    0.0000 H   0  0  0  0  0  0  0  0  0  0  0  0
   21.5895   -0.5350    0.0000 H   0  0  0  0  0  0  0  0  0  0  0  0
    2.3249    0.4276    0.0000 H   0  0  0  0  0  0  0  0  0  0  0  0
    1.9264   -0.2627    0.0000 H   0  0  0  0  0  0  0  0  0  0  0  0
   23.9321   -3.2627    0.0000 H   0  0  0  0  0  0  0  0  0  0  0  0
   23.5336   -2.5724    0.0000 H   0  0  0  0  0  0  0  0  0  0  0  0
    6.0010   -3.7750    0.0000 H   0  0  0  0  0  0  0  0  0  0  0  0
    5.4641   -2.8450    0.0000 H   0  0  0  0  0  0  0  0  0  0  0  0
    7.7331   -3.7750    0.0000 H   0  0  0  0  0  0  0  0  0  0  0  0
    8.2700   -2.8450    0.0000 H   0  0  0  0  0  0  0  0  0  0  0  0
   22.7110   -4.0473    0.0000 H   0  0  0  0  0  0  0  0  0  0  0  0
   23.1095   -4.7376    0.0000 H   0  0  0  0  0  0  0  0  0  0  0  0
    2.0000   -1.4650    0.0000 H   0  0  0  0  0  0  0  0  0  0  0  0
    3.0739   -1.4650    0.0000 H   0  0  0  0  0  0  0  0  0  0  0  0
   23.8776   -5.1919    0.0000 H   0  0  0  0  0  0  0  0  0  0  0  0
   24.7245   -4.9650    0.0000 H   0  0  0  0  0  0  0  0  0  0  0  0
   24.4976   -4.1181    0.0000 H   0  0  0  0  0  0  0  0  0  0  0  0
   18.9914   -5.2750    0.0000 H   0  0  0  0  0  0  0  0  0  0  0  0
   24.7245   -1.3450    0.0000 H   0  0  0  0  0  0  0  0  0  0  0  0
   24.1876   -2.2750    0.0000 H   0  0  0  0  0  0  0  0  0  0  0  0
  1 34  1  0  0  0  0
  1 35  1  0  0  0  0
  2 36  2  0  0  0  0
  3 37  2  0  0  0  0
  4 42  2  0  0  0  0
  5 46  2  0  0  0  0
  6 52  2  0  0  0  0
  7 58  1  0  0  0  0
  7140  1  0  0  0  0
  8 60  2  0  0  0  0
  9 63  2  0  0  0  0
 10 78  1  0  0  0  0
 10162  1  0  0  0  0
 11 75  2  0  0  0  0
 12 78  2  0  0  0  0
 13 82  2  0  0  0  0
 14 28  1  0  0  0  0
 15 28  2  0  0  0  0
 32 16  1  1  0  0  0
 16 37  1  0  0  0  0
 16 92  1  0  0  0  0
 17 36  1  0  0  0  0
 39 17  1  1  0  0  0
 17 93  1  0  0  0  0
 38 18  1  6  0  0  0
 18 46  1  0  0  0  0
 18100  1  0  0  0  0
 19 42  1  0  0  0  0
 45 19  1  6  0  0  0
 19103  1  0  0  0  0
 48 20  1  1  0  0  0
 20 60  1  0  0  0  0
 20115  1  0  0  0  0
 21 52  1  0  0  0  0
 55 21  1  6  0  0  0
 21117  1  0  0  0  0
 22 47  1  0  0  0  0
 22 68  2  0  0  0  0
 23 63  1  0  0  0  0
 69 23  1  1  0  0  0
 23131  1  0  0  0  0
 61 24  1  6  0  0  0
 24137  1  0  0  0  0
 24138  1  0  0  0  0
 74 25  1  6  0  0  0
 25 75  1  0  0  0  0
 25146  1  0  0  0  0
 26 68  1  0  0  0  0
 26151  1  0  0  0  0
 26152  1  0  0  0  0
 27 68  1  0  0  0  0
 27153  1  0  0  0  0
 27154  1  0  0  0  0
 28 73  1  0  0  0  0
 29 79  1  0  0  0  0
 29157  1  0  0  0  0
 29158  1  0  0  0  0
 30 82  1  0  0  0  0
 30163  1  0  0  0  0
 30164  1  0  0  0  0
 31 32  1  0  0  0  0
 31 33  1  0  0  0  0
 31 34  1  0  0  0  0
 31 84  1  0  0  0  0
 32 36  1  0  0  0  0
 32 85  1  0  0  0  0
 33 35  1  0  0  0  0
 33 86  1  0  0  0  0
 33 87  1  0  0  0  0
 34 88  1  0  0  0  0
 34 89  1  0  0  0  0
 35 90  1  0  0  0  0
 35 91  1  0  0  0  0
 37 38  1  0  0  0  0
 38 40  1  0  0  0  0
 38 94  1  0  0  0  0
 39 41  1  0  0  0  0
 39 42  1  0  0  0  0
 39 95  1  0  0  0  0
 40 43  1  0  0  0  0
 40 96  1  0  0  0  0
 40 97  1  0  0  0  0
 41 44  1  0  0  0  0
 41 98  1  0  0  0  0
 41 99  1  0  0  0  0
 43 47  1  0  0  0  0
 43101  1  0  0  0  0
 43102  1  0  0  0  0
 44 50  2  0  0  0  0
 44 51  1  0  0  0  0
 45 49  1  0  0  0  0
 45 52  1  0  0  0  0
 45104  1  0  0  0  0
 46 48  1  0  0  0  0
 47105  1  0  0  0  0
 47106  1  0  0  0  0
 48 53  1  0  0  0  0
 48107  1  0  0  0  0
 49 54  1  0  0  0  0
 49108  1  0  0  0  0
 49109  1  0  0  0  0
 50 56  1  0  0  0  0
 50110  1  0  0  0  0
 51 57  2  0  0  0  0
 51111  1  0  0  0  0
 53112  1  0  0  0  0
 53113  1  0  0  0  0
 53114  1  0  0  0  0
 54 64  2  0  0  0  0
 54 65  1  0  0  0  0
 55 59  1  0  0  0  0
 55 63  1  0  0  0  0
 55116  1  0  0  0  0
 56 58  2  0  0  0  0
 56118  1  0  0  0  0
 57 58  1  0  0  0  0
 57119  1  0  0  0  0
 59 66  1  0  0  0  0
 59120  1  0  0  0  0
 59121  1  0  0  0  0
 60 61  1  0  0  0  0
 61 62  1  0  0  0  0
 61122  1  0  0  0  0
 62 67  1  0  0  0  0
 62123  1  0  0  0  0
 62124  1  0  0  0  0
 64 70  1  0  0  0  0
 64125  1  0  0  0  0
 65 71  2  0  0  0  0
 65126  1  0  0  0  0
 66 78  1  0  0  0  0
 66127  1  0  0  0  0
 66128  1  0  0  0  0
 67 72  1  0  0  0  0
 67129  1  0  0  0  0
 67130  1  0  0  0  0
 69 75  1  0  0  0  0
 69 77  1  0  0  0  0
 69132  1  0  0  0  0
 70 73  2  0  0  0  0
 70133  1  0  0  0  0
 71 73  1  0  0  0  0
 71134  1  0  0  0  0
 72 79  1  0  0  0  0
 72135  1  0  0  0  0
 72136  1  0  0  0  0
 74 76  1  0  0  0  0
 74 82  1  0  0  0  0
 74139  1  0  0  0  0
 76 80  1  0  0  0  0
 76141  1  0  0  0  0
 76142  1  0  0  0  0
 77143  1  0  0  0  0
 77144  1  0  0  0  0
 77145  1  0  0  0  0
 79147  1  0  0  0  0
 79148  1  0  0  0  0
 80 81  1  0  0  0  0
 80149  1  0  0  0  0
 80150  1  0  0  0  0
 81 83  1  0  0  0  0
 81155  1  0  0  0  0
 81156  1  0  0  0  0
 83159  1  0  0  0  0
 83160  1  0  0  0  0
 83161  1  0  0  0  0
M  CHG  2  14  -1  28   1
M  END
> <PUBCHEM_COMPOUND_CID>
510617
> <PUBCHEM_COMPOUND_CANONICALIZED>
1
> <PUBCHEM_CACTVS_COMPLEXITY>
2200
> <PUBCHEM_CACTVS_HBOND_ACCEPTOR>
18
> <PUBCHEM_CACTVS_HBOND_DONOR>
15
> <PUBCHEM_CACTVS_ROTATABLE_BOND>
36
> <PUBCHEM_CACTVS_SUBSKEYS>
AAADcfB//AAAAAAAAAAAAAAAAAAAASAAAAAwYAAAAAAAAAABQAAAHgAUCAAADSzhmAYzzoLQRgCpAiXSfwCCAAEgIgAoiIGObIoIZjKCkbOWcABm1hGI2Ae+36KOKAAAAAAAAABQAAAAAAAAAAAAAAAAAA==
> <PUBCHEM_IUPAC_OPENEYE_NAME>
(4S)-5-[[(1S)-2-[[(1S)-1-carbamoylpentyl]amino]-1-methyl-2-oxo-ethyl]amino]-4-[[(2S)-2-[[(2S)-2-[[(2S)-2-[[(2S)-2-[[(2S)-2-[[(2S)-2,6-diaminohexanoyl]amino]propanoyl]amino]-5-guanidino-pentanoyl]amino]-2-tetrahydrofuran-3-yl-acetyl]amino]-3-(4-hydroxyphenyl)propanoyl]amino]-3-(4-nitrophenyl)propanoyl]amino]-5-oxo-pentanoic acid
> <PUBCHEM_IUPAC_CAS_NAME>
(4S)-5-[[(2S)-1-[[(2S)-1-amino-1-oxohexan-2-yl]amino]-1-oxopropan-2-yl]amino]-4-[[(2S)-2-[[(2S)-2-[[(2S)-2-[[(2S)-5-(diaminomethylideneamino)-2-[[(2S)-2-[[(2S)-2,6-diamino-1-oxohexyl]amino]-1-oxopropyl]amino]-1-oxopentyl]amino]-1-oxo-2-(3-oxolanyl)ethyl]amino]-3-(4-hydroxyphenyl)-1-oxopropyl]amino]-3-(4-nitrophenyl)-1-oxopropyl]amino]-5-oxopentanoic acid
> <PUBCHEM_IUPAC_NAME_MARKUP>
(4<I>S</I>)-5-[[(2<I>S</I>)-1-[[(2<I>S</I>)-1-amino-1-oxohexan-2-yl]amino]-1-oxopropan-2-yl]amino]-4-[[(2<I>S</I>)-2-[[(2<I>S</I>)-2-[[(2<I>S</I>)-2-[[(2<I>S</I>)-2-[[(2<I>S</I>)-2-[[(2<I>S</I>)-2,6-diaminohexanoyl]amino]propanoyl]amino]-5-(diaminomethylideneamino)pentanoyl]amino]-2-(oxolan-3-yl)acetyl]amino]-3-(4-hydroxyphenyl)propanoyl]amino]-3-(4-nitrophenyl)propanoyl]amino]-5-oxopentanoic acid
> <PUBCHEM_IUPAC_NAME>
(4S)-5-[[(2S)-1-[[(2S)-1-amino-1-oxohexan-2-yl]amino]-1-oxopropan-2-yl]amino]-4-[[(2S)-2-[[(2S)-2-[[(2S)-2-[[(2S)-2-[[(2S)-2-[[(2S)-2,6-diaminohexanoyl]amino]propanoyl]amino]-5-(diaminomethylideneamino)pentanoyl]amino]-2-(oxolan-3-yl)acetyl]amino]-3-(4-hydroxyphenyl)propanoyl]amino]-3-(4-nitrophenyl)propanoyl]amino]-5-oxopentanoic acid
> <PUBCHEM_IUPAC_SYSTEMATIC_NAME>
(4S)-5-[[(2S)-1-[[(2S)-1-azanyl-1-oxidanylidene-hexan-2-yl]amino]-1-oxidanylidene-propan-2-yl]amino]-4-[[(2S)-2-[[(2S)-2-[[(2S)-2-[[(2S)-2-[[(2S)-2-[[(2S)-2,6-bis(azanyl)hexanoyl]amino]propanoyl]amino]-5-[bis(azanyl)methylideneamino]pentanoyl]amino]-2-(oxolan-3-yl)ethanoyl]amino]-3-(4-hydroxyphenyl)propanoyl]amino]-3-(4-nitrophenyl)propanoyl]amino]-5-oxidanylidene-pentanoic acid
> <PUBCHEM_IUPAC_TRADITIONAL_NAME>
(4S)-5-[[(1S)-2-[[(1S)-1-carbamoylpentyl]amino]-2-keto-1-methyl-ethyl]amino]-4-[[(2S)-2-[[(2S)-2-[[(2S)-2-[[(2S)-2-[[(2S)-2-[[(2S)-2,6-diaminohexanoyl]amino]propanoyl]amino]-5-guanidino-pentanoyl]amino]-2-tetrahydrofuran-3-yl-acetyl]amino]-3-(4-hydroxyphenyl)propanoyl]amino]-3-(4-nitrophenyl)propanoyl]amino]-5-keto-valeric acid
> <PUBCHEM_IUPAC_INCHI>
InChI=1S/C53H81N15O15/c1-4-5-10-37(44(56)72)62-45(73)30(3)61-48(76)39(20-21-42(70)71)64-50(78)40(26-31-12-16-34(17-13-31)68(81)82)65-51(79)41(27-32-14-18-35(69)19-15-32)66-52(80)43(33-22-25-83-28-33)67-49(77)38(11-8-24-59-53(57)58)63-46(74)29(2)60-47(75)36(55)9-6-7-23-54/h12-19,29-30,33,36-41,43,69H,4-11,20-28,54-55H2,1-3H3,(H2,56,72)(H,60,75)(H,61,76)(H,62,73)(H,63,74)(H,64,78)(H,65,79)(H,66,80)(H,67,77)(H,70,71)(H4,57,58,59)/t29-,30-,33?,36-,37-,38-,39-,40-,41-,43-/m0/s1
> <PUBCHEM_IUPAC_INCHIKEY>
QCZSPOSCMQETDJ-BIPUTSDUSA-N
> <PUBCHEM_XLOGP3_AA>
-3.7
> <PUBCHEM_EXACT_MASS>
1167.60365694
> <PUBCHEM_MOLECULAR_FORMULA>
C53H81N15O15
> <PUBCHEM_MOLECULAR_WEIGHT>
1168.3
> <PUBCHEM_OPENEYE_CAN_SMILES>
CCCCC(C(=O)N)NC(=O)C(C)NC(=O)C(CCC(=O)O)NC(=O)C(CC1=CC=C(C=C1)[N+](=O)[O-])NC(=O)C(CC2=CC=C(C=C2)O)NC(=O)C(C3CCOC3)NC(=O)C(CCCN=C(N)N)NC(=O)C(C)NC(=O)C(CCCCN)N
> <PUBCHEM_OPENEYE_ISO_SMILES>
CCCC[C@@H](C(=O)N)NC(=O)[C@H](C)NC(=O)[C@H](CCC(=O)O)NC(=O)[C@H](CC1=CC=C(C=C1)[N+](=O)[O-])NC(=O)[C@H](CC2=CC=C(C=C2)O)NC(=O)[C@H](C3CCOC3)NC(=O)[C@H](CCCN=C(N)N)NC(=O)[C@H](C)NC(=O)[C@H](CCCCN)N
> <PUBCHEM_CACTVS_TPSA>
505
> <PUBCHEM_MONOISOTOPIC_WEIGHT>
1167.60365694
> <PUBCHEM_TOTAL_CHARGE>
0
> <PUBCHEM_HEAVY_ATOM_COUNT>
83
> <PUBCHEM_ATOM_DEF_STEREO_COUNT>
9
> <PUBCHEM_ATOM_UDEF_STEREO_COUNT>
1
> <PUBCHEM_BOND_DEF_STEREO_COUNT>
0
> <PUBCHEM_BOND_UDEF_STEREO_COUNT>
0
> <PUBCHEM_ISOTOPIC_ATOM_COUNT>
0
> <PUBCHEM_COMPONENT_COUNT>
1
> <PUBCHEM_CACTVS_TAUTO_COUNT>
-1
> <PUBCHEM_COORDINATE_TYPE>
1
5
255
> <PUBCHEM_BONDANNOTATIONS>
32  16  5
39  17  5
38  18  6
45  19  6
48  20  5
55  21  6
69  23  5
61  24  6
74  25  6
31  33  3
44  50  8
44  51  8
50  56  8
51  57  8
54  64  8
54  65  8
56  58  8
57  58  8
64  70  8
65  71  8
70  73  8
71  73  8
$$$$
