510610
  -OEChem-10302200282D
 35 37  0     1  0  0  0  0  0999 V2000
    5.5443   -2.2939    0.0000 S   0  0  0  0  0  0  0  0  0  0  0  0
    6.3543   -2.8803    0.0000 O   0  0  0  0  0  0  0  0  0  0  0  0
    5.2369   -3.2455    0.0000 O   0  0  0  0  0  0  0  0  0  0  0  0
    6.7870    3.1176    0.0000 O   0  0  0  0  0  0  0  0  0  0  0  0
    6.1279   -1.4892    0.0000 N   0  0  3  0  0  0  0  0  0  0  0  0
    5.5443   -0.6844    0.0000 C   0  0  3  0  0  0  0  0  0  0  0  0
    4.5981   -0.9892    0.0000 C   0  0  0  0  0  0  0  0  0  0  0  0
    4.5981   -1.9892    0.0000 C   0  0  0  0  0  0  0  0  0  0  0  0
    5.8550    0.2661    0.0000 C   0  0  0  0  0  0  0  0  0  0  0  0
    3.7320   -0.4892    0.0000 C   0  0  0  0  0  0  0  0  0  0  0  0
    7.1279   -1.4892    0.0000 C   0  0  0  0  0  0  0  0  0  0  0  0
    3.7320   -2.4892    0.0000 C   0  0  0  0  0  0  0  0  0  0  0  0
    2.8660   -0.9892    0.0000 C   0  0  0  0  0  0  0  0  0  0  0  0
    2.8660   -1.9892    0.0000 C   0  0  0  0  0  0  0  0  0  0  0  0
    6.8335    0.4723    0.0000 C   0  0  0  0  0  0  0  0  0  0  0  0
    5.1871    1.0104    0.0000 C   0  0  0  0  0  0  0  0  0  0  0  0
    2.0000   -0.4892    0.0000 C   0  0  0  0  0  0  0  0  0  0  0  0
    7.1441    1.4228    0.0000 C   0  0  0  0  0  0  0  0  0  0  0  0
    5.4978    1.9609    0.0000 C   0  0  0  0  0  0  0  0  0  0  0  0
    6.4763    2.1671    0.0000 C   0  0  0  0  0  0  0  0  0  0  0  0
    6.1568   -0.5882    0.0000 H   0  0  0  0  0  0  0  0  0  0  0  0
    3.7320    0.1308    0.0000 H   0  0  0  0  0  0  0  0  0  0  0  0
    7.1279   -2.1092    0.0000 H   0  0  0  0  0  0  0  0  0  0  0  0
    7.7479   -1.4892    0.0000 H   0  0  0  0  0  0  0  0  0  0  0  0
    7.1279   -0.8692    0.0000 H   0  0  0  0  0  0  0  0  0  0  0  0
    3.7320   -3.1092    0.0000 H   0  0  0  0  0  0  0  0  0  0  0  0
    2.3291   -2.2992    0.0000 H   0  0  0  0  0  0  0  0  0  0  0  0
    7.2475    0.0108    0.0000 H   0  0  0  0  0  0  0  0  0  0  0  0
    4.5804    0.8825    0.0000 H   0  0  0  0  0  0  0  0  0  0  0  0
    2.3100    0.0478    0.0000 H   0  0  0  0  0  0  0  0  0  0  0  0
    1.4631   -0.1792    0.0000 H   0  0  0  0  0  0  0  0  0  0  0  0
    1.6900   -1.0261    0.0000 H   0  0  0  0  0  0  0  0  0  0  0  0
    7.7508    1.5507    0.0000 H   0  0  0  0  0  0  0  0  0  0  0  0
    5.0837    2.4224    0.0000 H   0  0  0  0  0  0  0  0  0  0  0  0
    7.3936    3.2455    0.0000 H   0  0  0  0  0  0  0  0  0  0  0  0
  1  2  2  0  0  0  0
  1  3  2  0  0  0  0
  1  5  1  0  0  0  0
  1  8  1  0  0  0  0
  4 20  1  0  0  0  0
  4 35  1  0  0  0  0
  5  6  1  0  0  0  0
  5 11  1  0  0  0  0
  6  7  1  0  0  0  0
  6  9  1  0  0  0  0
  6 21  1  0  0  0  0
  7  8  2  0  0  0  0
  7 10  1  0  0  0  0
  8 12  1  0  0  0  0
  9 15  2  0  0  0  0
  9 16  1  0  0  0  0
 10 13  2  0  0  0  0
 10 22  1  0  0  0  0
 11 23  1  0  0  0  0
 11 24  1  0  0  0  0
 11 25  1  0  0  0  0
 12 14  2  0  0  0  0
 12 26  1  0  0  0  0
 13 14  1  0  0  0  0
 13 17  1  0  0  0  0
 14 27  1  0  0  0  0
 15 18  1  0  0  0  0
 15 28  1  0  0  0  0
 16 19  2  0  0  0  0
 16 29  1  0  0  0  0
 17 30  1  0  0  0  0
 17 31  1  0  0  0  0
 17 32  1  0  0  0  0
 18 20  2  0  0  0  0
 18 33  1  0  0  0  0
 19 20  1  0  0  0  0
 19 34  1  0  0  0  0
M  END
> <PUBCHEM_COMPOUND_CID>
510610
> <PUBCHEM_COMPOUND_CANONICALIZED>
1
> <PUBCHEM_CACTVS_COMPLEXITY>
450
> <PUBCHEM_CACTVS_HBOND_ACCEPTOR>
4
> <PUBCHEM_CACTVS_HBOND_DONOR>
1
> <PUBCHEM_CACTVS_ROTATABLE_BOND>
1
> <PUBCHEM_CACTVS_SUBSKEYS>
AAADccByMABAAAAAAAAAAAAAAAAAAWAAAAAwYAAAAAAAAFgBQAAAHgQASAAADCzB2AQyB4IAAgKAAiBCAHDCABAgIAAIiBgODIgIJiKCkROEcAhkwBEImAeQ0OMOMAACAAAEAABgAAQAAAgAAAAAAAAAAA==
> <PUBCHEM_IUPAC_OPENEYE_NAME>
4-(2,5-dimethyl-1,1-dioxo-3H-1,2-benzothiazol-3-yl)phenol
> <PUBCHEM_IUPAC_CAS_NAME>
4-(2,5-dimethyl-1,1-dioxo-3H-1,2-benzothiazol-3-yl)phenol
> <PUBCHEM_IUPAC_NAME_MARKUP>
4-(2,5-dimethyl-1,1-dioxo-3<I>H</I>-1,2-benzothiazol-3-yl)phenol
> <PUBCHEM_IUPAC_NAME>
4-(2,5-dimethyl-1,1-dioxo-3H-1,2-benzothiazol-3-yl)phenol
> <PUBCHEM_IUPAC_SYSTEMATIC_NAME>
4-[2,5-dimethyl-1,1-bis(oxidanylidene)-3H-1,2-benzothiazol-3-yl]phenol
> <PUBCHEM_IUPAC_TRADITIONAL_NAME>
4-(1,1-diketo-2,5-dimethyl-3H-1,2-benzothiazol-3-yl)phenol
> <PUBCHEM_IUPAC_INCHI>
InChI=1S/C15H15NO3S/c1-10-3-8-14-13(9-10)15(16(2)20(14,18)19)11-4-6-12(17)7-5-11/h3-9,15,17H,1-2H3
> <PUBCHEM_IUPAC_INCHIKEY>
WCPLICQYEIYOTG-UHFFFAOYSA-N
> <PUBCHEM_XLOGP3_AA>
2.3
> <PUBCHEM_EXACT_MASS>
289.07726451
> <PUBCHEM_MOLECULAR_FORMULA>
C15H15NO3S
> <PUBCHEM_MOLECULAR_WEIGHT>
289.4
> <PUBCHEM_OPENEYE_CAN_SMILES>
CC1=CC2=C(C=C1)S(=O)(=O)N(C2C3=CC=C(C=C3)O)C
> <PUBCHEM_OPENEYE_ISO_SMILES>
CC1=CC2=C(C=C1)S(=O)(=O)N(C2C3=CC=C(C=C3)O)C
> <PUBCHEM_CACTVS_TPSA>
66
> <PUBCHEM_MONOISOTOPIC_WEIGHT>
289.07726451
> <PUBCHEM_TOTAL_CHARGE>
0
> <PUBCHEM_HEAVY_ATOM_COUNT>
20
> <PUBCHEM_ATOM_DEF_STEREO_COUNT>
0
> <PUBCHEM_ATOM_UDEF_STEREO_COUNT>
1
> <PUBCHEM_BOND_DEF_STEREO_COUNT>
0
> <PUBCHEM_BOND_UDEF_STEREO_COUNT>
0
> <PUBCHEM_ISOTOPIC_ATOM_COUNT>
0
> <PUBCHEM_COMPONENT_COUNT>
1
> <PUBCHEM_CACTVS_TAUTO_COUNT>
-1
> <PUBCHEM_COORDINATE_TYPE>
1
5
255
> <PUBCHEM_BONDANNOTATIONS>
10  13  8
12  14  8
13  14  8
15  18  8
16  19  8
18  20  8
19  20  8
6  9  3
7  10  8
7  8  8
8  12  8
9  15  8
9  16  8
$$$$
