510609
  -OEChem-10302200282D
 31 33  0     1  0  0  0  0  0999 V2000
    5.5443   -1.6132    0.0000 S   0  0  0  0  0  0  0  0  0  0  0  0
    6.8066    1.2541    0.0000 O   0  0  0  0  0  0  0  0  0  0  0  0
    6.3543   -2.1996    0.0000 O   0  0  0  0  0  0  0  0  0  0  0  0
    5.2369   -2.5648    0.0000 O   0  0  0  0  0  0  0  0  0  0  0  0
    6.1279   -0.8085    0.0000 N   0  0  3  0  0  0  0  0  0  0  0  0
    5.5443   -0.0037    0.0000 C   0  0  3  0  0  0  0  0  0  0  0  0
    4.5981   -0.3085    0.0000 C   0  0  0  0  0  0  0  0  0  0  0  0
    4.5981   -1.3085    0.0000 C   0  0  0  0  0  0  0  0  0  0  0  0
    5.8550    0.9468    0.0000 C   0  0  0  0  0  0  0  0  0  0  0  0
    3.7320    0.1915    0.0000 C   0  0  0  0  0  0  0  0  0  0  0  0
    7.1279   -0.8085    0.0000 C   0  0  0  0  0  0  0  0  0  0  0  0
    3.7320   -1.8085    0.0000 C   0  0  0  0  0  0  0  0  0  0  0  0
    2.8660   -0.3085    0.0000 C   0  0  0  0  0  0  0  0  0  0  0  0
    2.8660   -1.3085    0.0000 C   0  0  0  0  0  0  0  0  0  0  0  0
    5.2686    1.7568    0.0000 C   0  0  0  0  0  0  0  0  0  0  0  0
    2.0000    0.1915    0.0000 C   0  0  0  0  0  0  0  0  0  0  0  0
    5.8578    2.5648    0.0000 C   0  0  0  0  0  0  0  0  0  0  0  0
    6.8083    2.2541    0.0000 C   0  0  0  0  0  0  0  0  0  0  0  0
    6.1568    0.0924    0.0000 H   0  0  0  0  0  0  0  0  0  0  0  0
    3.7320    0.8115    0.0000 H   0  0  0  0  0  0  0  0  0  0  0  0
    7.1279   -1.4285    0.0000 H   0  0  0  0  0  0  0  0  0  0  0  0
    7.7479   -0.8085    0.0000 H   0  0  0  0  0  0  0  0  0  0  0  0
    7.1279   -0.1885    0.0000 H   0  0  0  0  0  0  0  0  0  0  0  0
    3.7320   -2.4285    0.0000 H   0  0  0  0  0  0  0  0  0  0  0  0
    2.3291   -1.6185    0.0000 H   0  0  0  0  0  0  0  0  0  0  0  0
    4.6486    1.7579    0.0000 H   0  0  0  0  0  0  0  0  0  0  0  0
    2.3100    0.7285    0.0000 H   0  0  0  0  0  0  0  0  0  0  0  0
    1.4631    0.5015    0.0000 H   0  0  0  0  0  0  0  0  0  0  0  0
    1.6900   -0.3454    0.0000 H   0  0  0  0  0  0  0  0  0  0  0  0
    5.6672    3.1548    0.0000 H   0  0  0  0  0  0  0  0  0  0  0  0
    7.3105    2.6177    0.0000 H   0  0  0  0  0  0  0  0  0  0  0  0
  1  3  2  0  0  0  0
  1  4  2  0  0  0  0
  1  5  1  0  0  0  0
  1  8  1  0  0  0  0
  2  9  1  0  0  0  0
  2 18  1  0  0  0  0
  5  6  1  0  0  0  0
  5 11  1  0  0  0  0
  6  7  1  0  0  0  0
  6  9  1  0  0  0  0
  6 19  1  0  0  0  0
  7  8  2  0  0  0  0
  7 10  1  0  0  0  0
  8 12  1  0  0  0  0
  9 15  2  0  0  0  0
 10 13  2  0  0  0  0
 10 20  1  0  0  0  0
 11 21  1  0  0  0  0
 11 22  1  0  0  0  0
 11 23  1  0  0  0  0
 12 14  2  0  0  0  0
 12 24  1  0  0  0  0
 13 14  1  0  0  0  0
 13 16  1  0  0  0  0
 14 25  1  0  0  0  0
 15 17  1  0  0  0  0
 15 26  1  0  0  0  0
 16 27  1  0  0  0  0
 16 28  1  0  0  0  0
 16 29  1  0  0  0  0
 17 18  2  0  0  0  0
 17 30  1  0  0  0  0
 18 31  1  0  0  0  0
M  END
> <PUBCHEM_COMPOUND_CID>
510609
> <PUBCHEM_COMPOUND_CANONICALIZED>
1
> <PUBCHEM_CACTVS_COMPLEXITY>
416
> <PUBCHEM_CACTVS_HBOND_ACCEPTOR>
4
> <PUBCHEM_CACTVS_HBOND_DONOR>
0
> <PUBCHEM_CACTVS_ROTATABLE_BOND>
1
> <PUBCHEM_CACTVS_SUBSKEYS>
AAADccByMABAAAAAAAAAAAAAAAAAAWJAAAAwAAAAAAAAAFgBwAAAHgQAQAAADCzh2AYyBYIABEKIAqhSgHDCCBAkIAAIiBmODMgOJjKEtTuHOSjkwBEYqYeY2fOeEAACAAAEAAAgAAQAAAgAAAAAAAAAAA==
> <PUBCHEM_IUPAC_OPENEYE_NAME>
3-(2-furyl)-2,5-dimethyl-3H-1,2-benzothiazole 1,1-dioxide
> <PUBCHEM_IUPAC_CAS_NAME>
3-(2-furanyl)-2,5-dimethyl-3H-1,2-benzothiazole 1,1-dioxide
> <PUBCHEM_IUPAC_NAME_MARKUP>
3-(furan-2-yl)-2,5-dimethyl-3<I>H</I>-1,2-benzothiazole 1,1-dioxide
> <PUBCHEM_IUPAC_NAME>
3-(furan-2-yl)-2,5-dimethyl-3H-1,2-benzothiazole 1,1-dioxide
> <PUBCHEM_IUPAC_SYSTEMATIC_NAME>
3-(furan-2-yl)-2,5-dimethyl-3H-1,2-benzothiazole 1,1-dioxide
> <PUBCHEM_IUPAC_TRADITIONAL_NAME>
3-(2-furyl)-2,5-dimethyl-3H-1,2-benzothiazole 1,1-dioxide
> <PUBCHEM_IUPAC_INCHI>
InChI=1S/C13H13NO3S/c1-9-5-6-12-10(8-9)13(11-4-3-7-17-11)14(2)18(12,15)16/h3-8,13H,1-2H3
> <PUBCHEM_IUPAC_INCHIKEY>
VFQOKOOHFGJGRV-UHFFFAOYSA-N
> <PUBCHEM_XLOGP3_AA>
1.8
> <PUBCHEM_EXACT_MASS>
263.06161445
> <PUBCHEM_MOLECULAR_FORMULA>
C13H13NO3S
> <PUBCHEM_MOLECULAR_WEIGHT>
263.31
> <PUBCHEM_OPENEYE_CAN_SMILES>
CC1=CC2=C(C=C1)S(=O)(=O)N(C2C3=CC=CO3)C
> <PUBCHEM_OPENEYE_ISO_SMILES>
CC1=CC2=C(C=C1)S(=O)(=O)N(C2C3=CC=CO3)C
> <PUBCHEM_CACTVS_TPSA>
58.9
> <PUBCHEM_MONOISOTOPIC_WEIGHT>
263.06161445
> <PUBCHEM_TOTAL_CHARGE>
0
> <PUBCHEM_HEAVY_ATOM_COUNT>
18
> <PUBCHEM_ATOM_DEF_STEREO_COUNT>
0
> <PUBCHEM_ATOM_UDEF_STEREO_COUNT>
1
> <PUBCHEM_BOND_DEF_STEREO_COUNT>
0
> <PUBCHEM_BOND_UDEF_STEREO_COUNT>
0
> <PUBCHEM_ISOTOPIC_ATOM_COUNT>
0
> <PUBCHEM_COMPONENT_COUNT>
1
> <PUBCHEM_CACTVS_TAUTO_COUNT>
-1
> <PUBCHEM_COORDINATE_TYPE>
1
5
255
> <PUBCHEM_BONDANNOTATIONS>
10  13  8
12  14  8
13  14  8
15  17  8
17  18  8
2  18  8
2  9  8
6  9  3
7  10  8
7  8  8
8  12  8
9  15  8
$$$$
