510616
  -OEChem-10302200282D
119121  0     1  0  0  0  0  0999 V2000
    8.8264   -0.3263    0.0000 O   0  0  0  0  0  0  0  0  0  0  0  0
    5.3147    1.5804    0.0000 O   0  0  0  0  0  0  0  0  0  0  0  0
    4.0134    4.2222    0.0000 O   0  0  0  0  0  0  0  0  0  0  0  0
    6.1808    1.0804    0.0000 O   0  0  0  0  0  0  0  0  0  0  0  0
    7.0745    2.3170    0.0000 O   0  0  0  0  0  0  0  0  0  0  0  0
    8.7788   -1.4196    0.0000 O   0  0  0  0  0  0  0  0  0  0  0  0
   10.2550    4.0154    0.0000 O   0  0  0  0  0  0  0  0  0  0  0  0
    9.0960    5.3026    0.0000 O   0  0  0  0  0  0  0  0  0  0  0  0
    3.5827   -4.4196    0.0000 O   0  0  0  0  0  0  0  0  0  0  0  0
    7.9128   -4.9196    0.0000 O   0  0  0  0  0  0  0  0  0  0  0  0
    5.3147   -4.4196    0.0000 O   0  0  0  0  0  0  0  0  0  0  0  0
   11.3769   -4.9196    0.0000 O   0  0  0  0  0  0  0  0  0  0  0  0
    3.5827    1.5804    0.0000 N   0  0  0  0  0  0  0  0  0  0  0  0
    5.1724    2.9350    0.0000 N   0  0  0  0  0  0  0  0  0  0  0  0
    5.3147   -0.4196    0.0000 N   0  0  0  0  0  0  0  0  0  0  0  0
    7.0468   -1.4196    0.0000 N   0  0  0  0  0  0  0  0  0  0  0  0
    7.6097    3.9643    0.0000 N   0  0  0  0  0  0  0  0  0  0  0  0
    8.7788   -3.4196    0.0000 N   0  0  0  0  0  0  0  0  0  0  0  0
    9.6448   -5.9196    0.0000 N   0  0  0  0  0  0  0  0  0  0  0  0
    6.1808   -5.9196    0.0000 N   0  0  0  0  0  0  0  0  0  0  0  0
    3.4782    2.5749    0.0000 C   0  0  1  0  0  0  0  0  0  0  0  0
    2.5000    2.7828    0.0000 C   0  0  0  0  0  0  0  0  0  0  0  0
    2.0000    1.9168    0.0000 C   0  0  0  0  0  0  0  0  0  0  0  0
    2.6691    1.1737    0.0000 C   0  0  0  0  0  0  0  0  0  0  0  0
    4.4487    1.0804    0.0000 C   0  0  0  0  0  0  0  0  0  0  0  0
    4.4487    0.0804    0.0000 C   0  0  2  0  0  0  0  0  0  0  0  0
    4.2213    3.2441    0.0000 C   0  0  0  0  0  0  0  0  0  0  0  0
    7.9128    0.0804    0.0000 C   0  0  3  0  0  0  0  0  0  0  0  0
    7.0468   -0.4196    0.0000 C   0  0  1  0  0  0  0  0  0  0  0  0
    5.9155    3.6042    0.0000 C   0  0  1  0  0  0  0  0  0  0  0  0
    8.0173    1.0749    0.0000 C   0  0  0  0  0  0  0  0  0  0  0  0
    5.7076    4.5823    0.0000 C   0  0  2  0  0  0  0  0  0  0  0  0
    8.9955    1.2828    0.0000 C   0  0  0  0  0  0  0  0  0  0  0  0
    3.5827   -0.4196    0.0000 C   0  0  0  0  0  0  0  0  0  0  0  0
    6.1808    0.0804    0.0000 C   0  0  0  0  0  0  0  0  0  0  0  0
    9.4955    0.4168    0.0000 C   0  0  0  0  0  0  0  0  0  0  0  0
    6.4507    5.2514    0.0000 C   0  0  0  0  0  0  0  0  0  0  0  0
    6.8666    3.2952    0.0000 C   0  0  0  0  0  0  0  0  0  0  0  0
    4.7565    4.8913    0.0000 C   0  0  0  0  0  0  0  0  0  0  0  0
    3.5827   -1.4196    0.0000 C   0  0  0  0  0  0  0  0  0  0  0  0
    7.9128   -1.9196    0.0000 C   0  0  0  0  0  0  0  0  0  0  0  0
    7.9128   -2.9196    0.0000 C   0  0  2  0  0  0  0  0  0  0  0  0
    8.5608    3.6553    0.0000 C   0  0  1  0  0  0  0  0  0  0  0  0
    6.2428    6.2296    0.0000 C   0  0  0  0  0  0  0  0  0  0  0  0
    8.7687    2.6771    0.0000 C   0  0  0  0  0  0  0  0  0  0  0  0
    4.4487   -1.9196    0.0000 C   0  0  0  0  0  0  0  0  0  0  0  0
    2.7166   -1.9196    0.0000 C   0  0  0  0  0  0  0  0  0  0  0  0
    7.0468   -3.4196    0.0000 C   0  0  0  0  0  0  0  0  0  0  0  0
    9.3039    4.3244    0.0000 C   0  0  0  0  0  0  0  0  0  0  0  0
    4.4487   -2.9196    0.0000 C   0  0  0  0  0  0  0  0  0  0  0  0
    2.7166   -2.9196    0.0000 C   0  0  0  0  0  0  0  0  0  0  0  0
    9.7197    2.3681    0.0000 C   0  0  0  0  0  0  0  0  0  0  0  0
    8.0255    2.0080    0.0000 C   0  0  0  0  0  0  0  0  0  0  0  0
    7.0468   -4.4196    0.0000 C   0  0  0  0  0  0  0  0  0  0  0  0
    3.5827   -3.4196    0.0000 C   0  0  0  0  0  0  0  0  0  0  0  0
    8.7788   -4.4196    0.0000 C   0  0  0  0  0  0  0  0  0  0  0  0
    9.6448   -4.9196    0.0000 C   0  0  2  0  0  0  0  0  0  0  0  0
    6.1808   -4.9196    0.0000 C   0  0  0  0  0  0  0  0  0  0  0  0
   10.5109   -4.4196    0.0000 C   0  0  0  0  0  0  0  0  0  0  0  0
    4.0570    2.3527    0.0000 H   0  0  0  0  0  0  0  0  0  0  0  0
    2.6916    3.3725    0.0000 H   0  0  0  0  0  0  0  0  0  0  0  0
    1.9336    3.0350    0.0000 H   0  0  0  0  0  0  0  0  0  0  0  0
    1.4984    2.2812    0.0000 H   0  0  0  0  0  0  0  0  0  0  0  0
    1.5851    1.4561    0.0000 H   0  0  0  0  0  0  0  0  0  0  0  0
    2.1675    0.8092    0.0000 H   0  0  0  0  0  0  0  0  0  0  0  0
    2.9791    0.6367    0.0000 H   0  0  0  0  0  0  0  0  0  0  0  0
    4.9856    0.3904    0.0000 H   0  0  0  0  0  0  0  0  0  0  0  0
    8.4497    0.3904    0.0000 H   0  0  0  0  0  0  0  0  0  0  0  0
    7.5837   -0.7296    0.0000 H   0  0  0  0  0  0  0  0  0  0  0  0
    6.0444    2.9977    0.0000 H   0  0  0  0  0  0  0  0  0  0  0  0
    7.9525    1.6915    0.0000 H   0  0  0  0  0  0  0  0  0  0  0  0
    7.3973    1.0749    0.0000 H   0  0  0  0  0  0  0  0  0  0  0  0
    5.3012    2.3286    0.0000 H   0  0  0  0  0  0  0  0  0  0  0  0
    5.5787    5.1888    0.0000 H   0  0  0  0  0  0  0  0  0  0  0  0
    9.5619    1.5350    0.0000 H   0  0  0  0  0  0  0  0  0  0  0  0
    8.8039    1.8725    0.0000 H   0  0  0  0  0  0  0  0  0  0  0  0
    3.3706    0.1630    0.0000 H   0  0  0  0  0  0  0  0  0  0  0  0
    2.9721   -0.5273    0.0000 H   0  0  0  0  0  0  0  0  0  0  0  0
    5.3147   -1.0396    0.0000 H   0  0  0  0  0  0  0  0  0  0  0  0
    9.9103   -0.0439    0.0000 H   0  0  0  0  0  0  0  0  0  0  0  0
    9.9971    0.7812    0.0000 H   0  0  0  0  0  0  0  0  0  0  0  0
    6.5098   -1.7296    0.0000 H   0  0  0  0  0  0  0  0  0  0  0  0
    6.7793    4.7257    0.0000 H   0  0  0  0  0  0  0  0  0  0  0  0
    7.0256    5.4837    0.0000 H   0  0  0  0  0  0  0  0  0  0  0  0
    4.9481    5.4810    0.0000 H   0  0  0  0  0  0  0  0  0  0  0  0
    4.1669    5.0829    0.0000 H   0  0  0  0  0  0  0  0  0  0  0  0
    4.5649    4.3017    0.0000 H   0  0  0  0  0  0  0  0  0  0  0  0
    7.4808    4.5707    0.0000 H   0  0  0  0  0  0  0  0  0  0  0  0
    7.9128   -3.5396    0.0000 H   0  0  0  0  0  0  0  0  0  0  0  0
    8.4319    4.2617    0.0000 H   0  0  0  0  0  0  0  0  0  0  0  0
    6.8493    6.3585    0.0000 H   0  0  0  0  0  0  0  0  0  0  0  0
    6.1139    6.8360    0.0000 H   0  0  0  0  0  0  0  0  0  0  0  0
    5.6364    6.1007    0.0000 H   0  0  0  0  0  0  0  0  0  0  0  0
    8.1790    2.8687    0.0000 H   0  0  0  0  0  0  0  0  0  0  0  0
    4.9856   -1.6096    0.0000 H   0  0  0  0  0  0  0  0  0  0  0  0
    2.1797   -1.6096    0.0000 H   0  0  0  0  0  0  0  0  0  0  0  0
    6.8347   -2.8370    0.0000 H   0  0  0  0  0  0  0  0  0  0  0  0
    6.4362   -3.5273    0.0000 H   0  0  0  0  0  0  0  0  0  0  0  0
    9.3158   -3.1096    0.0000 H   0  0  0  0  0  0  0  0  0  0  0  0
    4.9856   -3.2296    0.0000 H   0  0  0  0  0  0  0  0  0  0  0  0
    2.1797   -3.2296    0.0000 H   0  0  0  0  0  0  0  0  0  0  0  0
    9.5281    1.7784    0.0000 H   0  0  0  0  0  0  0  0  0  0  0  0
   10.3094    2.1765    0.0000 H   0  0  0  0  0  0  0  0  0  0  0  0
    9.9113    2.9578    0.0000 H   0  0  0  0  0  0  0  0  0  0  0  0
    7.6107    2.4687    0.0000 H   0  0  0  0  0  0  0  0  0  0  0  0
    7.5648    1.5931    0.0000 H   0  0  0  0  0  0  0  0  0  0  0  0
    8.4404    1.5472    0.0000 H   0  0  0  0  0  0  0  0  0  0  0  0
    7.2588   -5.0022    0.0000 H   0  0  0  0  0  0  0  0  0  0  0  0
    7.6574   -4.3119    0.0000 H   0  0  0  0  0  0  0  0  0  0  0  0
    9.1079   -5.2296    0.0000 H   0  0  0  0  0  0  0  0  0  0  0  0
   10.7157    4.4302    0.0000 H   0  0  0  0  0  0  0  0  0  0  0  0
   10.9094   -3.9446    0.0000 H   0  0  0  0  0  0  0  0  0  0  0  0
   10.1124   -3.9446    0.0000 H   0  0  0  0  0  0  0  0  0  0  0  0
    3.0457   -4.7296    0.0000 H   0  0  0  0  0  0  0  0  0  0  0  0
   10.1818   -6.2296    0.0000 H   0  0  0  0  0  0  0  0  0  0  0  0
    9.1079   -6.2296    0.0000 H   0  0  0  0  0  0  0  0  0  0  0  0
    6.7177   -6.2296    0.0000 H   0  0  0  0  0  0  0  0  0  0  0  0
    5.6438   -6.2296    0.0000 H   0  0  0  0  0  0  0  0  0  0  0  0
   11.9138   -4.6096    0.0000 H   0  0  0  0  0  0  0  0  0  0  0  0
  1 28  1  0  0  0  0
  1 36  1  0  0  0  0
  2 25  2  0  0  0  0
  3 27  2  0  0  0  0
  4 35  2  0  0  0  0
  5 38  2  0  0  0  0
  6 41  2  0  0  0  0
  7 49  1  0  0  0  0
  7111  1  0  0  0  0
  8 49  2  0  0  0  0
  9 55  1  0  0  0  0
  9114  1  0  0  0  0
 10 56  2  0  0  0  0
 11 58  2  0  0  0  0
 12 59  1  0  0  0  0
 12119  1  0  0  0  0
 13 21  1  0  0  0  0
 13 24  1  0  0  0  0
 13 25  1  0  0  0  0
 14 27  1  0  0  0  0
 30 14  1  1  0  0  0
 14 73  1  0  0  0  0
 26 15  1  1  0  0  0
 15 35  1  0  0  0  0
 15 79  1  0  0  0  0
 29 16  1  6  0  0  0
 16 41  1  0  0  0  0
 16 82  1  0  0  0  0
 17 38  1  0  0  0  0
 43 17  1  6  0  0  0
 17 88  1  0  0  0  0
 42 18  1  1  0  0  0
 18 56  1  0  0  0  0
 18 99  1  0  0  0  0
 57 19  1  6  0  0  0
 19115  1  0  0  0  0
 19116  1  0  0  0  0
 20 58  1  0  0  0  0
 20117  1  0  0  0  0
 20118  1  0  0  0  0
 21 22  1  0  0  0  0
 21 27  1  1  0  0  0
 21 60  1  0  0  0  0
 22 23  1  0  0  0  0
 22 61  1  0  0  0  0
 22 62  1  0  0  0  0
 23 24  1  0  0  0  0
 23 63  1  0  0  0  0
 23 64  1  0  0  0  0
 24 65  1  0  0  0  0
 24 66  1  0  0  0  0
 25 26  1  0  0  0  0
 26 34  1  0  0  0  0
 26 67  1  0  0  0  0
 28 29  1  0  0  0  0
 28 31  1  0  0  0  0
 28 68  1  0  0  0  0
 29 35  1  0  0  0  0
 29 69  1  0  0  0  0
 30 32  1  0  0  0  0
 30 38  1  0  0  0  0
 30 70  1  0  0  0  0
 31 33  1  0  0  0  0
 31 71  1  0  0  0  0
 31 72  1  0  0  0  0
 32 37  1  0  0  0  0
 32 39  1  1  0  0  0
 32 74  1  0  0  0  0
 33 36  1  0  0  0  0
 33 75  1  0  0  0  0
 33 76  1  0  0  0  0
 34 40  1  0  0  0  0
 34 77  1  0  0  0  0
 34 78  1  0  0  0  0
 36 80  1  0  0  0  0
 36 81  1  0  0  0  0
 37 44  1  0  0  0  0
 37 83  1  0  0  0  0
 37 84  1  0  0  0  0
 39 85  1  0  0  0  0
 39 86  1  0  0  0  0
 39 87  1  0  0  0  0
 40 46  2  0  0  0  0
 40 47  1  0  0  0  0
 41 42  1  0  0  0  0
 42 48  1  0  0  0  0
 42 89  1  0  0  0  0
 43 45  1  0  0  0  0
 43 49  1  0  0  0  0
 43 90  1  0  0  0  0
 44 91  1  0  0  0  0
 44 92  1  0  0  0  0
 44 93  1  0  0  0  0
 45 52  1  0  0  0  0
 45 53  1  0  0  0  0
 45 94  1  0  0  0  0
 46 50  1  0  0  0  0
 46 95  1  0  0  0  0
 47 51  2  0  0  0  0
 47 96  1  0  0  0  0
 48 54  1  0  0  0  0
 48 97  1  0  0  0  0
 48 98  1  0  0  0  0
 50 55  2  0  0  0  0
 50100  1  0  0  0  0
 51 55  1  0  0  0  0
 51101  1  0  0  0  0
 52102  1  0  0  0  0
 52103  1  0  0  0  0
 52104  1  0  0  0  0
 53105  1  0  0  0  0
 53106  1  0  0  0  0
 53107  1  0  0  0  0
 54 58  1  0  0  0  0
 54108  1  0  0  0  0
 54109  1  0  0  0  0
 56 57  1  0  0  0  0
 57 59  1  0  0  0  0
 57110  1  0  0  0  0
 59112  1  0  0  0  0
 59113  1  0  0  0  0
M  END
> <PUBCHEM_COMPOUND_CID>
510616
> <PUBCHEM_COMPOUND_CANONICALIZED>
1
> <PUBCHEM_CACTVS_COMPLEXITY>
1490
> <PUBCHEM_CACTVS_HBOND_ACCEPTOR>
13
> <PUBCHEM_CACTVS_HBOND_DONOR>
10
> <PUBCHEM_CACTVS_ROTATABLE_BOND>
22
> <PUBCHEM_CACTVS_SUBSKEYS>
AAADcfB//AAAAAAAAAAAAAAAAAAAAWJAAAAwAAAAAAAAAAABAAAAHgAQCAAADTzhmAYyDoPABgCIAiHSGAACAAAgIAAIiIGOCIgKdjaCkTOXcAAm9hGYmAec26OOIAAAAAAAAABAAAAAAAAAAAAAAAAAAA==
> <PUBCHEM_IUPAC_OPENEYE_NAME>
(2S)-2-[[(2S,3S)-2-[[(2S)-1-[(2S)-2-[[(2S)-2-[[(2S)-5-amino-2-[[(2S)-2-amino-3-hydroxy-propanoyl]amino]-5-oxo-pentanoyl]amino]-2-tetrahydrofuran-2-yl-acetyl]amino]-3-(4-hydroxyphenyl)propanoyl]pyrrolidine-2-carbonyl]amino]-3-methyl-pentanoyl]amino]-3-methyl-butanoic acid
> <PUBCHEM_IUPAC_CAS_NAME>
(2S)-2-[[(2S,3S)-2-[[[(2S)-1-[(2S)-2-[[(2S)-2-[[(2S)-5-amino-2-[[(2S)-2-amino-3-hydroxy-1-oxopropyl]amino]-1,5-dioxopentyl]amino]-1-oxo-2-(2-oxolanyl)ethyl]amino]-3-(4-hydroxyphenyl)-1-oxopropyl]-2-pyrrolidinyl]-oxomethyl]amino]-3-methyl-1-oxopentyl]amino]-3-methylbutanoic acid
> <PUBCHEM_IUPAC_NAME_MARKUP>
(2<I>S</I>)-2-[[(2<I>S</I>,3<I>S</I>)-2-[[(2<I>S</I>)-1-[(2<I>S</I>)-2-[[(2<I>S</I>)-2-[[(2<I>S</I>)-5-amino-2-[[(2<I>S</I>)-2-amino-3-hydroxypropanoyl]amino]-5-oxopentanoyl]amino]-2-(oxolan-2-yl)acetyl]amino]-3-(4-hydroxyphenyl)propanoyl]pyrrolidine-2-carbonyl]amino]-3-methylpentanoyl]amino]-3-methylbutanoic acid
> <PUBCHEM_IUPAC_NAME>
(2S)-2-[[(2S,3S)-2-[[(2S)-1-[(2S)-2-[[(2S)-2-[[(2S)-5-amino-2-[[(2S)-2-amino-3-hydroxypropanoyl]amino]-5-oxopentanoyl]amino]-2-(oxolan-2-yl)acetyl]amino]-3-(4-hydroxyphenyl)propanoyl]pyrrolidine-2-carbonyl]amino]-3-methylpentanoyl]amino]-3-methylbutanoic acid
> <PUBCHEM_IUPAC_SYSTEMATIC_NAME>
(2S)-2-[[(2S,3S)-2-[[(2S)-1-[(2S)-2-[[(2S)-2-[[(2S)-5-azanyl-2-[[(2S)-2-azanyl-3-oxidanyl-propanoyl]amino]-5-oxidanylidene-pentanoyl]amino]-2-(oxolan-2-yl)ethanoyl]amino]-3-(4-hydroxyphenyl)propanoyl]pyrrolidin-2-yl]carbonylamino]-3-methyl-pentanoyl]amino]-3-methyl-butanoic acid
> <PUBCHEM_IUPAC_TRADITIONAL_NAME>
(2S)-2-[[(2S,3S)-2-[[(2S)-1-[(2S)-2-[[(2S)-2-[[(2S)-5-amino-2-[[(2S)-2-amino-3-hydroxy-propanoyl]amino]-5-keto-pentanoyl]amino]-2-(tetrahydrofuryl)acetyl]amino]-3-(4-hydroxyphenyl)propanoyl]prolyl]amino]-3-methyl-pentanoyl]amino]-3-methyl-butyric acid
> <PUBCHEM_IUPAC_INCHI>
InChI=1S/C39H60N8O12/c1-5-21(4)31(36(54)44-30(20(2)3)39(57)58)45-35(53)27-8-6-16-47(27)38(56)26(18-22-10-12-23(49)13-11-22)43-37(55)32(28-9-7-17-59-28)46-34(52)25(14-15-29(41)50)42-33(51)24(40)19-48/h10-13,20-21,24-28,30-32,48-49H,5-9,14-19,40H2,1-4H3,(H2,41,50)(H,42,51)(H,43,55)(H,44,54)(H,45,53)(H,46,52)(H,57,58)/t21-,24-,25-,26-,27-,28?,30-,31-,32-/m0/s1
> <PUBCHEM_IUPAC_INCHIKEY>
HNXUQBZCIDPOHU-HQORNTSSSA-N
> <PUBCHEM_XLOGP3_AA>
-2.9
> <PUBCHEM_EXACT_MASS>
832.43306938
> <PUBCHEM_MOLECULAR_FORMULA>
C39H60N8O12
> <PUBCHEM_MOLECULAR_WEIGHT>
832.9
> <PUBCHEM_OPENEYE_CAN_SMILES>
CCC(C)C(C(=O)NC(C(C)C)C(=O)O)NC(=O)C1CCCN1C(=O)C(CC2=CC=C(C=C2)O)NC(=O)C(C3CCCO3)NC(=O)C(CCC(=O)N)NC(=O)C(CO)N
> <PUBCHEM_OPENEYE_ISO_SMILES>
CC[C@H](C)[C@@H](C(=O)N[C@@H](C(C)C)C(=O)O)NC(=O)[C@@H]1CCCN1C(=O)[C@H](CC2=CC=C(C=C2)O)NC(=O)[C@H](C3CCCO3)NC(=O)[C@H](CCC(=O)N)NC(=O)[C@H](CO)N
> <PUBCHEM_CACTVS_TPSA>
322
> <PUBCHEM_MONOISOTOPIC_WEIGHT>
832.43306938
> <PUBCHEM_TOTAL_CHARGE>
0
> <PUBCHEM_HEAVY_ATOM_COUNT>
59
> <PUBCHEM_ATOM_DEF_STEREO_COUNT>
8
> <PUBCHEM_ATOM_UDEF_STEREO_COUNT>
1
> <PUBCHEM_BOND_DEF_STEREO_COUNT>
0
> <PUBCHEM_BOND_UDEF_STEREO_COUNT>
0
> <PUBCHEM_ISOTOPIC_ATOM_COUNT>
0
> <PUBCHEM_COMPONENT_COUNT>
1
> <PUBCHEM_CACTVS_TAUTO_COUNT>
-1
> <PUBCHEM_COORDINATE_TYPE>
1
5
255
> <PUBCHEM_BONDANNOTATIONS>
30  14  5
26  15  5
29  16  6
43  17  6
42  18  5
57  19  6
21  27  5
28  31  3
32  39  5
40  46  8
40  47  8
46  50  8
47  51  8
50  55  8
51  55  8
$$$$
