510763
  -OEChem-10302200282D
 38 39  0     1  0  0  0  0  0999 V2000
    3.7320   -5.1550    0.0000 Cl  0  0  0  0  0  0  0  0  0  0  0  0
    2.0000   -4.1550    0.0000 Cl  0  0  0  0  0  0  0  0  0  0  0  0
    5.4641   -1.1550    0.0000 O   0  0  0  0  0  0  0  0  0  0  0  0
    6.3301    2.3450    0.0000 O   0  0  0  0  0  0  0  0  0  0  0  0
    7.1962    3.8450    0.0000 O   0  0  0  0  0  0  0  0  0  0  0  0
    8.9282    4.8450    0.0000 O   0  0  0  0  0  0  0  0  0  0  0  0
    9.7942    3.3450    0.0000 O   0  0  0  0  0  0  0  0  0  0  0  0
    4.5981   -3.6550    0.0000 C   0  0  0  0  0  0  0  0  0  0  0  0
    4.5981   -2.6550    0.0000 C   0  0  0  0  0  0  0  0  0  0  0  0
    3.7320   -4.1550    0.0000 C   0  0  3  0  0  0  0  0  0  0  0  0
    5.4641   -2.1550    0.0000 C   0  0  0  0  0  0  0  0  0  0  0  0
    3.7320   -2.1550    0.0000 C   0  0  0  0  0  0  0  0  0  0  0  0
    2.8660   -3.6550    0.0000 C   0  0  0  0  0  0  0  0  0  0  0  0
    2.8660   -2.6550    0.0000 C   0  0  0  0  0  0  0  0  0  0  0  0
    6.3301   -0.6550    0.0000 C   0  0  0  0  0  0  0  0  0  0  0  0
    7.1962    0.8450    0.0000 C   0  0  0  0  0  0  0  0  0  0  0  0
    6.3301    0.3450    0.0000 C   0  0  0  0  0  0  0  0  0  0  0  0
    7.1962   -1.1550    0.0000 C   0  0  0  0  0  0  0  0  0  0  0  0
    8.0622    0.3450    0.0000 C   0  0  0  0  0  0  0  0  0  0  0  0
    7.1962    1.8450    0.0000 C   0  0  0  0  0  0  0  0  0  0  0  0
    8.0622   -0.6550    0.0000 C   0  0  0  0  0  0  0  0  0  0  0  0
    8.0622    2.3450    0.0000 C   0  0  0  0  0  0  0  0  0  0  0  0
    8.0622    3.3450    0.0000 C   0  0  0  0  0  0  0  0  0  0  0  0
    8.9282    3.8450    0.0000 C   0  0  0  0  0  0  0  0  0  0  0  0
    4.8101   -4.2376    0.0000 H   0  0  0  0  0  0  0  0  0  0  0  0
    5.2087   -3.5473    0.0000 H   0  0  0  0  0  0  0  0  0  0  0  0
    4.2690   -4.4650    0.0000 H   0  0  0  0  0  0  0  0  0  0  0  0
    5.6762   -2.7376    0.0000 H   0  0  0  0  0  0  0  0  0  0  0  0
    6.0747   -2.0473    0.0000 H   0  0  0  0  0  0  0  0  0  0  0  0
    3.7320   -1.5350    0.0000 H   0  0  0  0  0  0  0  0  0  0  0  0
    2.3291   -2.3450    0.0000 H   0  0  0  0  0  0  0  0  0  0  0  0
    5.7932    0.6550    0.0000 H   0  0  0  0  0  0  0  0  0  0  0  0
    7.1962   -1.7750    0.0000 H   0  0  0  0  0  0  0  0  0  0  0  0
    8.5991    0.6550    0.0000 H   0  0  0  0  0  0  0  0  0  0  0  0
    8.5991   -0.9650    0.0000 H   0  0  0  0  0  0  0  0  0  0  0  0
    8.2742    1.7624    0.0000 H   0  0  0  0  0  0  0  0  0  0  0  0
    8.6728    2.4527    0.0000 H   0  0  0  0  0  0  0  0  0  0  0  0
    9.4651    5.1550    0.0000 H   0  0  0  0  0  0  0  0  0  0  0  0
  1 10  1  0  0  0  0
  2 13  1  0  0  0  0
  3 11  1  0  0  0  0
  3 15  1  0  0  0  0
  4 20  2  0  0  0  0
  5 23  2  0  0  0  0
  6 24  1  0  0  0  0
  6 38  1  0  0  0  0
  7 24  2  0  0  0  0
  8  9  1  0  0  0  0
  8 10  1  0  0  0  0
  8 25  1  0  0  0  0
  8 26  1  0  0  0  0
  9 11  1  0  0  0  0
  9 12  2  0  0  0  0
 10 13  1  0  0  0  0
 10 27  1  0  0  0  0
 11 28  1  0  0  0  0
 11 29  1  0  0  0  0
 12 14  1  0  0  0  0
 12 30  1  0  0  0  0
 13 14  2  0  0  0  0
 14 31  1  0  0  0  0
 15 17  1  0  0  0  0
 15 18  2  0  0  0  0
 16 17  2  0  0  0  0
 16 19  1  0  0  0  0
 16 20  1  0  0  0  0
 17 32  1  0  0  0  0
 18 21  1  0  0  0  0
 18 33  1  0  0  0  0
 19 21  2  0  0  0  0
 19 34  1  0  0  0  0
 20 22  1  0  0  0  0
 21 35  1  0  0  0  0
 22 23  1  0  0  0  0
 22 36  1  0  0  0  0
 22 37  1  0  0  0  0
 23 24  1  0  0  0  0
M  END
> <PUBCHEM_COMPOUND_CID>
510763
> <PUBCHEM_COMPOUND_CANONICALIZED>
1
> <PUBCHEM_CACTVS_COMPLEXITY>
582
> <PUBCHEM_CACTVS_HBOND_ACCEPTOR>
5
> <PUBCHEM_CACTVS_HBOND_DONOR>
1
> <PUBCHEM_CACTVS_ROTATABLE_BOND>
7
> <PUBCHEM_CACTVS_SUBSKEYS>
AAADccB4OAAGAAAAAAAAAAAAAAAAAAAAAAAwQAAAAAAAAAABAAAAGgIACAAADAegmEIwDoAABgCIAqDSCAICCAAkIAAIiEFGCsgMJjKNNRqCeSCkwBEIqYeLyLCOAAABAAAAAAAAAAIAAAAAAAAAAAAAAA==
> <PUBCHEM_IUPAC_OPENEYE_NAME>
4-[3-[(4,5-dichlorocyclohexa-1,3-dien-1-yl)methoxy]phenyl]-2,4-dioxo-butanoic acid
> <PUBCHEM_IUPAC_CAS_NAME>
4-[3-[(4,5-dichloro-1-cyclohexa-1,3-dienyl)methoxy]phenyl]-2,4-dioxobutanoic acid
> <PUBCHEM_IUPAC_NAME_MARKUP>
4-[3-[(4,5-dichlorocyclohexa-1,3-dien-1-yl)methoxy]phenyl]-2,4-dioxobutanoic acid
> <PUBCHEM_IUPAC_NAME>
4-[3-[(4,5-dichlorocyclohexa-1,3-dien-1-yl)methoxy]phenyl]-2,4-dioxobutanoic acid
> <PUBCHEM_IUPAC_SYSTEMATIC_NAME>
4-[3-[[4,5-bis(chloranyl)cyclohexa-1,3-dien-1-yl]methoxy]phenyl]-2,4-bis(oxidanylidene)butanoic acid
> <PUBCHEM_IUPAC_TRADITIONAL_NAME>
4-[3-[(4,5-dichlorocyclohexa-1,3-dien-1-yl)methoxy]phenyl]-2,4-diketo-butyric acid
> <PUBCHEM_IUPAC_INCHI>
InChI=1S/C17H14Cl2O5/c18-13-5-4-10(6-14(13)19)9-24-12-3-1-2-11(7-12)15(20)8-16(21)17(22)23/h1-5,7,14H,6,8-9H2,(H,22,23)
> <PUBCHEM_IUPAC_INCHIKEY>
KTHOGFNWGRRCFX-UHFFFAOYSA-N
> <PUBCHEM_XLOGP3_AA>
3
> <PUBCHEM_EXACT_MASS>
368.0218289
> <PUBCHEM_MOLECULAR_FORMULA>
C17H14Cl2O5
> <PUBCHEM_MOLECULAR_WEIGHT>
369.2
> <PUBCHEM_OPENEYE_CAN_SMILES>
C1C(C(=CC=C1COC2=CC=CC(=C2)C(=O)CC(=O)C(=O)O)Cl)Cl
> <PUBCHEM_OPENEYE_ISO_SMILES>
C1C(C(=CC=C1COC2=CC=CC(=C2)C(=O)CC(=O)C(=O)O)Cl)Cl
> <PUBCHEM_CACTVS_TPSA>
80.7
> <PUBCHEM_MONOISOTOPIC_WEIGHT>
368.0218289
> <PUBCHEM_TOTAL_CHARGE>
0
> <PUBCHEM_HEAVY_ATOM_COUNT>
24
> <PUBCHEM_ATOM_DEF_STEREO_COUNT>
0
> <PUBCHEM_ATOM_UDEF_STEREO_COUNT>
1
> <PUBCHEM_BOND_DEF_STEREO_COUNT>
0
> <PUBCHEM_BOND_UDEF_STEREO_COUNT>
0
> <PUBCHEM_ISOTOPIC_ATOM_COUNT>
0
> <PUBCHEM_COMPONENT_COUNT>
1
> <PUBCHEM_CACTVS_TAUTO_COUNT>
-1
> <PUBCHEM_COORDINATE_TYPE>
1
5
255
> <PUBCHEM_BONDANNOTATIONS>
10  1  3
15  17  8
15  18  8
16  17  8
16  19  8
18  21  8
19  21  8
$$$$
