510797
  -OEChem-10302200282D
 42 44  0     1  0  0  0  0  0999 V2000
    3.7427    1.8392    0.0000 O   0  0  0  0  0  0  0  0  0  0  0  0
    4.5913    3.3492    0.0000 O   0  0  0  0  0  0  0  0  0  0  0  0
    6.3117    4.3691    0.0000 O   0  0  0  0  0  0  0  0  0  0  0  0
    7.1950    2.8792    0.0000 O   0  0  0  0  0  0  0  0  0  0  0  0
    2.8660   -1.6853    0.0000 C   0  0  3  0  0  0  0  0  0  0  0  0
    2.0000   -1.1853    0.0000 C   0  0  0  0  0  0  0  0  0  0  0  0
    2.0000   -0.1853    0.0000 C   0  0  0  0  0  0  0  0  0  0  0  0
    3.7320   -1.1853    0.0000 C   0  0  0  0  0  0  0  0  0  0  0  0
    2.8660    0.3147    0.0000 C   0  0  0  0  0  0  0  0  0  0  0  0
    3.7320   -0.1853    0.0000 C   0  0  0  0  0  0  0  0  0  0  0  0
    2.8660   -2.6853    0.0000 C   0  0  0  0  0  0  0  0  0  0  0  0
    4.6260    0.3494    0.0000 C   0  0  0  0  0  0  0  0  0  0  0  0
    4.6260   -1.7200    0.0000 C   0  0  0  0  0  0  0  0  0  0  0  0
    5.5321   -0.1645    0.0000 C   0  0  0  0  0  0  0  0  0  0  0  0
    5.5321   -1.2061    0.0000 C   0  0  0  0  0  0  0  0  0  0  0  0
    3.7320   -3.1853    0.0000 C   0  0  0  0  0  0  0  0  0  0  0  0
    2.0000   -3.1853    0.0000 C   0  0  0  0  0  0  0  0  0  0  0  0
    4.6144    1.3493    0.0000 C   0  0  0  0  0  0  0  0  0  0  0  0
    3.7320   -4.1853    0.0000 C   0  0  0  0  0  0  0  0  0  0  0  0
    2.0000   -4.1853    0.0000 C   0  0  0  0  0  0  0  0  0  0  0  0
    5.4746    1.8593    0.0000 C   0  0  0  0  0  0  0  0  0  0  0  0
    2.8660   -4.6853    0.0000 C   0  0  0  0  0  0  0  0  0  0  0  0
    5.4630    2.8592    0.0000 C   0  0  0  0  0  0  0  0  0  0  0  0
    6.3232    3.3692    0.0000 C   0  0  0  0  0  0  0  0  0  0  0  0
    2.3291   -1.9953    0.0000 H   0  0  0  0  0  0  0  0  0  0  0  0
    1.3894   -1.0776    0.0000 H   0  0  0  0  0  0  0  0  0  0  0  0
    1.7880   -1.7679    0.0000 H   0  0  0  0  0  0  0  0  0  0  0  0
    1.7880    0.3973    0.0000 H   0  0  0  0  0  0  0  0  0  0  0  0
    1.3894   -0.2930    0.0000 H   0  0  0  0  0  0  0  0  0  0  0  0
    3.2646    0.7896    0.0000 H   0  0  0  0  0  0  0  0  0  0  0  0
    2.4675    0.7896    0.0000 H   0  0  0  0  0  0  0  0  0  0  0  0
    4.6188   -2.3399    0.0000 H   0  0  0  0  0  0  0  0  0  0  0  0
    6.0678    0.1476    0.0000 H   0  0  0  0  0  0  0  0  0  0  0  0
    6.0678   -1.5182    0.0000 H   0  0  0  0  0  0  0  0  0  0  0  0
    4.2690   -2.8753    0.0000 H   0  0  0  0  0  0  0  0  0  0  0  0
    1.4631   -2.8753    0.0000 H   0  0  0  0  0  0  0  0  0  0  0  0
    4.2690   -4.4953    0.0000 H   0  0  0  0  0  0  0  0  0  0  0  0
    1.4631   -4.4953    0.0000 H   0  0  0  0  0  0  0  0  0  0  0  0
    5.6934    1.2792    0.0000 H   0  0  0  0  0  0  0  0  0  0  0  0
    6.0839    1.9740    0.0000 H   0  0  0  0  0  0  0  0  0  0  0  0
    2.8660   -5.3053    0.0000 H   0  0  0  0  0  0  0  0  0  0  0  0
    6.8450    4.6853    0.0000 H   0  0  0  0  0  0  0  0  0  0  0  0
  1 18  2  0  0  0  0
  2 23  2  0  0  0  0
  3 24  1  0  0  0  0
  3 42  1  0  0  0  0
  4 24  2  0  0  0  0
  5  6  1  0  0  0  0
  5  8  1  0  0  0  0
  5 11  1  0  0  0  0
  5 25  1  0  0  0  0
  6  7  1  0  0  0  0
  6 26  1  0  0  0  0
  6 27  1  0  0  0  0
  7  9  1  0  0  0  0
  7 28  1  0  0  0  0
  7 29  1  0  0  0  0
  8 10  2  0  0  0  0
  8 13  1  0  0  0  0
  9 10  1  0  0  0  0
  9 30  1  0  0  0  0
  9 31  1  0  0  0  0
 10 12  1  0  0  0  0
 11 16  2  0  0  0  0
 11 17  1  0  0  0  0
 12 14  2  0  0  0  0
 12 18  1  0  0  0  0
 13 15  2  0  0  0  0
 13 32  1  0  0  0  0
 14 15  1  0  0  0  0
 14 33  1  0  0  0  0
 15 34  1  0  0  0  0
 16 19  1  0  0  0  0
 16 35  1  0  0  0  0
 17 20  2  0  0  0  0
 17 36  1  0  0  0  0
 18 21  1  0  0  0  0
 19 22  2  0  0  0  0
 19 37  1  0  0  0  0
 20 22  1  0  0  0  0
 20 38  1  0  0  0  0
 21 23  1  0  0  0  0
 21 39  1  0  0  0  0
 21 40  1  0  0  0  0
 22 41  1  0  0  0  0
 23 24  1  0  0  0  0
M  END
> <PUBCHEM_COMPOUND_CID>
510797
> <PUBCHEM_COMPOUND_CANONICALIZED>
1
> <PUBCHEM_CACTVS_COMPLEXITY>
492
> <PUBCHEM_CACTVS_HBOND_ACCEPTOR>
4
> <PUBCHEM_CACTVS_HBOND_DONOR>
1
> <PUBCHEM_CACTVS_ROTATABLE_BOND>
5
> <PUBCHEM_CACTVS_SUBSKEYS>
AAADceB4OAAAAAAAAAAAAAAAAAAAAAAAAAAwYMAAAAAAAADBQAAAGgAACAAADQSAmAAwCIAAAgCIAqDSCAICAAAkAAAIiAFAAMgIIDKIFRCAYQAkgAAIiYeLyPCOgAACAAAQAAAAAAQAACAAAAAAAAAAAA==
> <PUBCHEM_IUPAC_OPENEYE_NAME>
2,4-dioxo-4-(1-phenyltetralin-5-yl)butanoic acid
> <PUBCHEM_IUPAC_CAS_NAME>
2,4-dioxo-4-(5-phenyl-5,6,7,8-tetrahydronaphthalen-1-yl)butanoic acid
> <PUBCHEM_IUPAC_NAME_MARKUP>
2,4-dioxo-4-(5-phenyl-5,6,7,8-tetrahydronaphthalen-1-yl)butanoic acid
> <PUBCHEM_IUPAC_NAME>
2,4-dioxo-4-(5-phenyl-5,6,7,8-tetrahydronaphthalen-1-yl)butanoic acid
> <PUBCHEM_IUPAC_SYSTEMATIC_NAME>
2,4-bis(oxidanylidene)-4-(5-phenyl-5,6,7,8-tetrahydronaphthalen-1-yl)butanoic acid
> <PUBCHEM_IUPAC_TRADITIONAL_NAME>
2,4-diketo-4-(1-phenyltetralin-5-yl)butyric acid
> <PUBCHEM_IUPAC_INCHI>
InChI=1S/C20H18O4/c21-18(12-19(22)20(23)24)17-11-5-9-15-14(8-4-10-16(15)17)13-6-2-1-3-7-13/h1-3,5-7,9,11,14H,4,8,10,12H2,(H,23,24)
> <PUBCHEM_IUPAC_INCHIKEY>
BHHGHEQJSRFIRS-UHFFFAOYSA-N
> <PUBCHEM_XLOGP3_AA>
4
> <PUBCHEM_EXACT_MASS>
322.12050905
> <PUBCHEM_MOLECULAR_FORMULA>
C20H18O4
> <PUBCHEM_MOLECULAR_WEIGHT>
322.4
> <PUBCHEM_OPENEYE_CAN_SMILES>
C1CC(C2=C(C1)C(=CC=C2)C(=O)CC(=O)C(=O)O)C3=CC=CC=C3
> <PUBCHEM_OPENEYE_ISO_SMILES>
C1CC(C2=C(C1)C(=CC=C2)C(=O)CC(=O)C(=O)O)C3=CC=CC=C3
> <PUBCHEM_CACTVS_TPSA>
71.4
> <PUBCHEM_MONOISOTOPIC_WEIGHT>
322.12050905
> <PUBCHEM_TOTAL_CHARGE>
0
> <PUBCHEM_HEAVY_ATOM_COUNT>
24
> <PUBCHEM_ATOM_DEF_STEREO_COUNT>
0
> <PUBCHEM_ATOM_UDEF_STEREO_COUNT>
1
> <PUBCHEM_BOND_DEF_STEREO_COUNT>
0
> <PUBCHEM_BOND_UDEF_STEREO_COUNT>
0
> <PUBCHEM_ISOTOPIC_ATOM_COUNT>
0
> <PUBCHEM_COMPONENT_COUNT>
1
> <PUBCHEM_CACTVS_TAUTO_COUNT>
-1
> <PUBCHEM_COORDINATE_TYPE>
1
5
255
> <PUBCHEM_BONDANNOTATIONS>
10  12  8
11  16  8
11  17  8
12  14  8
13  15  8
14  15  8
16  19  8
17  20  8
19  22  8
20  22  8
5  11  3
8  10  8
8  13  8
$$$$
