510863
  -OEChem-10302200282D
 29 29  0     1  0  0  0  0  0999 V2000
    2.0000    0.8450    0.0000 O   0  0  0  0  0  0  0  0  0  0  0  0
    2.8660    2.3450    0.0000 O   0  0  0  0  0  0  0  0  0  0  0  0
    4.5981    3.3450    0.0000 O   0  0  0  0  0  0  0  0  0  0  0  0
    5.4641    1.8450    0.0000 O   0  0  0  0  0  0  0  0  0  0  0  0
    2.8660   -0.6550    0.0000 C   0  0  3  0  0  0  0  0  0  0  0  0
    2.0000   -1.1550    0.0000 C   0  0  0  0  0  0  0  0  0  0  0  0
    3.7320   -1.1550    0.0000 C   0  0  0  0  0  0  0  0  0  0  0  0
    2.0000   -2.1550    0.0000 C   0  0  0  0  0  0  0  0  0  0  0  0
    2.8660   -2.6550    0.0000 C   0  0  0  0  0  0  0  0  0  0  0  0
    3.7320   -2.1550    0.0000 C   0  0  0  0  0  0  0  0  0  0  0  0
    2.8660    0.3450    0.0000 C   0  0  0  0  0  0  0  0  0  0  0  0
    3.7320    0.8450    0.0000 C   0  0  0  0  0  0  0  0  0  0  0  0
    2.8660   -3.6550    0.0000 C   0  0  0  0  0  0  0  0  0  0  0  0
    3.7320    1.8450    0.0000 C   0  0  0  0  0  0  0  0  0  0  0  0
    4.5981    2.3450    0.0000 C   0  0  0  0  0  0  0  0  0  0  0  0
    3.4030   -0.3450    0.0000 H   0  0  0  0  0  0  0  0  0  0  0  0
    1.7880   -0.5724    0.0000 H   0  0  0  0  0  0  0  0  0  0  0  0
    1.3894   -1.2627    0.0000 H   0  0  0  0  0  0  0  0  0  0  0  0
    4.3426   -1.2627    0.0000 H   0  0  0  0  0  0  0  0  0  0  0  0
    3.9441   -0.5724    0.0000 H   0  0  0  0  0  0  0  0  0  0  0  0
    1.3894   -2.0473    0.0000 H   0  0  0  0  0  0  0  0  0  0  0  0
    1.7880   -2.7376    0.0000 H   0  0  0  0  0  0  0  0  0  0  0  0
    4.2690   -2.4650    0.0000 H   0  0  0  0  0  0  0  0  0  0  0  0
    3.9441    0.2624    0.0000 H   0  0  0  0  0  0  0  0  0  0  0  0
    4.3426    0.9527    0.0000 H   0  0  0  0  0  0  0  0  0  0  0  0
    2.2460   -3.6550    0.0000 H   0  0  0  0  0  0  0  0  0  0  0  0
    2.8660   -4.2750    0.0000 H   0  0  0  0  0  0  0  0  0  0  0  0
    3.4860   -3.6550    0.0000 H   0  0  0  0  0  0  0  0  0  0  0  0
    5.1350    3.6550    0.0000 H   0  0  0  0  0  0  0  0  0  0  0  0
  1 11  2  0  0  0  0
  2 14  2  0  0  0  0
  3 15  1  0  0  0  0
  3 29  1  0  0  0  0
  4 15  2  0  0  0  0
  5  6  1  0  0  0  0
  5  7  1  0  0  0  0
  5 11  1  0  0  0  0
  5 16  1  0  0  0  0
  6  8  1  0  0  0  0
  6 17  1  0  0  0  0
  6 18  1  0  0  0  0
  7 10  1  0  0  0  0
  7 19  1  0  0  0  0
  7 20  1  0  0  0  0
  8  9  1  0  0  0  0
  8 21  1  0  0  0  0
  8 22  1  0  0  0  0
  9 10  2  0  0  0  0
  9 13  1  0  0  0  0
 10 23  1  0  0  0  0
 11 12  1  0  0  0  0
 12 14  1  0  0  0  0
 12 24  1  0  0  0  0
 12 25  1  0  0  0  0
 13 26  1  0  0  0  0
 13 27  1  0  0  0  0
 13 28  1  0  0  0  0
 14 15  1  0  0  0  0
M  END
> <PUBCHEM_COMPOUND_CID>
510863
> <PUBCHEM_COMPOUND_CANONICALIZED>
1
> <PUBCHEM_CACTVS_COMPLEXITY>
328
> <PUBCHEM_CACTVS_HBOND_ACCEPTOR>
4
> <PUBCHEM_CACTVS_HBOND_DONOR>
1
> <PUBCHEM_CACTVS_ROTATABLE_BOND>
4
> <PUBCHEM_CACTVS_SUBSKEYS>
AAADccBwOAAAAAAAAAAAAAAAAAAAAAAAAAAgAAAAAAAAAAAAAAAAGgAACAAADQSAgAACCAAAAgCIAqDSCAIAAAAgAAAACAFAAAgAABIIAQAAQAAEgAAIAAOLyLCOAAAAAAAAAAAAAAAAAAAAAAAAAAAAAA==
> <PUBCHEM_IUPAC_OPENEYE_NAME>
4-(4-methylcyclohex-3-en-1-yl)-2,4-dioxo-butanoic acid
> <PUBCHEM_IUPAC_CAS_NAME>
4-(4-methyl-1-cyclohex-3-enyl)-2,4-dioxobutanoic acid
> <PUBCHEM_IUPAC_NAME_MARKUP>
4-(4-methylcyclohex-3-en-1-yl)-2,4-dioxobutanoic acid
> <PUBCHEM_IUPAC_NAME>
4-(4-methylcyclohex-3-en-1-yl)-2,4-dioxobutanoic acid
> <PUBCHEM_IUPAC_SYSTEMATIC_NAME>
4-(4-methylcyclohex-3-en-1-yl)-2,4-bis(oxidanylidene)butanoic acid
> <PUBCHEM_IUPAC_TRADITIONAL_NAME>
2,4-diketo-4-(4-methylcyclohex-3-en-1-yl)butyric acid
> <PUBCHEM_IUPAC_INCHI>
InChI=1S/C11H14O4/c1-7-2-4-8(5-3-7)9(12)6-10(13)11(14)15/h2,8H,3-6H2,1H3,(H,14,15)
> <PUBCHEM_IUPAC_INCHIKEY>
VHUKLJZUKCDVKQ-UHFFFAOYSA-N
> <PUBCHEM_XLOGP3_AA>
0.9
> <PUBCHEM_EXACT_MASS>
210.08920892
> <PUBCHEM_MOLECULAR_FORMULA>
C11H14O4
> <PUBCHEM_MOLECULAR_WEIGHT>
210.23
> <PUBCHEM_OPENEYE_CAN_SMILES>
CC1=CCC(CC1)C(=O)CC(=O)C(=O)O
> <PUBCHEM_OPENEYE_ISO_SMILES>
CC1=CCC(CC1)C(=O)CC(=O)C(=O)O
> <PUBCHEM_CACTVS_TPSA>
71.4
> <PUBCHEM_MONOISOTOPIC_WEIGHT>
210.08920892
> <PUBCHEM_TOTAL_CHARGE>
0
> <PUBCHEM_HEAVY_ATOM_COUNT>
15
> <PUBCHEM_ATOM_DEF_STEREO_COUNT>
0
> <PUBCHEM_ATOM_UDEF_STEREO_COUNT>
1
> <PUBCHEM_BOND_DEF_STEREO_COUNT>
0
> <PUBCHEM_BOND_UDEF_STEREO_COUNT>
0
> <PUBCHEM_ISOTOPIC_ATOM_COUNT>
0
> <PUBCHEM_COMPONENT_COUNT>
1
> <PUBCHEM_CACTVS_TAUTO_COUNT>
-1
> <PUBCHEM_COORDINATE_TYPE>
1
5
255
> <PUBCHEM_BONDANNOTATIONS>
5  11  3
$$$$
