510888
  -OEChem-10302200282D
 78 85  0     1  0  0  0  0  0999 V2000
    9.0020   -1.2569    0.0000 O   0  0  0  0  0  0  0  0  0  0  0  0
    8.9943    0.7430    0.0000 O   0  0  0  0  0  0  0  0  0  0  0  0
    5.7960    3.3285    0.0000 O   0  0  0  0  0  0  0  0  0  0  0  0
    2.8660    2.2536    0.0000 O   0  0  0  0  0  0  0  0  0  0  0  0
    9.8777   -3.7536    0.0000 O   0  0  0  0  0  0  0  0  0  0  0  0
    7.1796    2.2144    0.0000 O   0  0  0  0  0  0  0  0  0  0  0  0
    7.2576   -2.2983    0.0000 O   0  0  0  0  0  0  0  0  0  0  0  0
    3.4982   -2.3280    0.0000 O   0  0  0  0  0  0  0  0  0  0  0  0
    2.0463   -1.4897    0.0000 O   0  0  0  0  0  0  0  0  0  0  0  0
    3.7320    3.7536    0.0000 O   0  0  0  0  0  0  0  0  0  0  0  0
    9.8700   -1.7536    0.0000 N   0  0  0  0  0  0  0  0  0  0  0  0
    9.8661   -0.7536    0.0000 C   0  0  3  0  0  0  0  0  0  0  0  0
    5.4641    1.7536    0.0000 C   0  0  2  0  0  0  0  0  0  0  0  0
    4.5981    2.2536    0.0000 C   0  0  2  0  0  0  0  0  0  0  0  0
    9.8622    0.2464    0.0000 C   0  0  3  0  0  0  0  0  0  0  0  0
    5.4641    0.7536    0.0000 C   0  0  1  0  0  0  0  0  0  0  0  0
   10.7621   -1.2848    0.0000 C   0  0  0  0  0  0  0  0  0  0  0  0
    3.7320    1.7536    0.0000 C   0  0  2  0  0  0  0  0  0  0  0  0
   10.7541    0.7845    0.0000 C   0  0  0  0  0  0  0  0  0  0  0  0
   11.6662   -0.7675    0.0000 C   0  0  0  0  0  0  0  0  0  0  0  0
    4.5981    0.2536    0.0000 C   0  0  0  0  0  0  0  0  0  0  0  0
   11.6622    0.2741    0.0000 C   0  0  0  0  0  0  0  0  0  0  0  0
    4.8073    3.2254    0.0000 C   0  0  0  0  0  0  0  0  0  0  0  0
    3.7320    0.7536    0.0000 C   0  0  0  0  0  0  0  0  0  0  0  0
    6.3301    0.2536    0.0000 C   0  0  0  0  0  0  0  0  0  0  0  0
    6.2011    2.4207    0.0000 C   0  0  0  0  0  0  0  0  0  0  0  0
    8.1302    0.2397    0.0000 C   0  0  0  0  0  0  0  0  0  0  0  0
    8.1341   -0.7603    0.0000 C   0  0  0  0  0  0  0  0  0  0  0  0
   10.7379   -2.2503    0.0000 C   0  0  0  0  0  0  0  0  0  0  0  0
    9.0059   -2.2569    0.0000 C   0  0  0  0  0  0  0  0  0  0  0  0
    7.2342    0.7709    0.0000 C   0  0  0  0  0  0  0  0  0  0  0  0
    6.3341   -0.7880    0.0000 C   0  0  0  0  0  0  0  0  0  0  0  0
    4.6141   -0.7879    0.0000 C   0  0  0  0  0  0  0  0  0  0  0  0
    7.2422   -1.2984    0.0000 C   0  0  0  0  0  0  0  0  0  0  0  0
    2.8220    0.2467    0.0000 C   0  0  0  0  0  0  0  0  0  0  0  0
   10.7418   -3.2502    0.0000 C   0  0  0  0  0  0  0  0  0  0  0  0
    9.0097   -3.2569    0.0000 C   0  0  0  0  0  0  0  0  0  0  0  0
    3.7161   -1.3157    0.0000 C   0  0  0  0  0  0  0  0  0  0  0  0
    2.8140   -0.7949    0.0000 C   0  0  0  0  0  0  0  0  0  0  0  0
    2.8660    3.2536    0.0000 C   0  0  0  0  0  0  0  0  0  0  0  0
    2.4683   -2.4353    0.0000 C   0  0  0  0  0  0  0  0  0  0  0  0
    2.0000    3.7536    0.0000 C   0  0  0  0  0  0  0  0  0  0  0  0
    6.3994   -2.8116    0.0000 C   0  0  0  0  0  0  0  0  0  0  0  0
    6.2411    1.4089    0.0000 H   0  0  0  0  0  0  0  0  0  0  0  0
    3.9111    2.7541    0.0000 H   0  0  0  0  0  0  0  0  0  0  0  0
    9.8551    0.8663    0.0000 H   0  0  0  0  0  0  0  0  0  0  0  0
    5.4641    0.1336    0.0000 H   0  0  0  0  0  0  0  0  0  0  0  0
   10.3593   -1.7562    0.0000 H   0  0  0  0  0  0  0  0  0  0  0  0
   11.1576   -1.7623    0.0000 H   0  0  0  0  0  0  0  0  0  0  0  0
    3.7320    2.3736    0.0000 H   0  0  0  0  0  0  0  0  0  0  0  0
   11.1459    1.2650    0.0000 H   0  0  0  0  0  0  0  0  0  0  0  0
   10.3477    1.2527    0.0000 H   0  0  0  0  0  0  0  0  0  0  0  0
   11.8775   -1.3504    0.0000 H   0  0  0  0  0  0  0  0  0  0  0  0
   12.2766   -0.6590    0.0000 H   0  0  0  0  0  0  0  0  0  0  0  0
   12.2734    0.1704    0.0000 H   0  0  0  0  0  0  0  0  0  0  0  0
   11.8690    0.8586    0.0000 H   0  0  0  0  0  0  0  0  0  0  0  0
    4.8082    3.8454    0.0000 H   0  0  0  0  0  0  0  0  0  0  0  0
    4.1908    3.2914    0.0000 H   0  0  0  0  0  0  0  0  0  0  0  0
   11.3489   -2.3556    0.0000 H   0  0  0  0  0  0  0  0  0  0  0  0
   10.9477   -1.6668    0.0000 H   0  0  0  0  0  0  0  0  0  0  0  0
    8.7916   -1.6752    0.0000 H   0  0  0  0  0  0  0  0  0  0  0  0
    8.3957   -2.3670    0.0000 H   0  0  0  0  0  0  0  0  0  0  0  0
    7.2390    1.3909    0.0000 H   0  0  0  0  0  0  0  0  0  0  0  0
    5.7996   -1.1022    0.0000 H   0  0  0  0  0  0  0  0  0  0  0  0
    5.1546   -1.0917    0.0000 H   0  0  0  0  0  0  0  0  0  0  0  0
    2.2887    0.5629    0.0000 H   0  0  0  0  0  0  0  0  0  0  0  0
   10.9560   -3.8320    0.0000 H   0  0  0  0  0  0  0  0  0  0  0  0
   11.3519   -3.1402    0.0000 H   0  0  0  0  0  0  0  0  0  0  0  0
    8.3987   -3.1516    0.0000 H   0  0  0  0  0  0  0  0  0  0  0  0
    8.7999   -3.8404    0.0000 H   0  0  0  0  0  0  0  0  0  0  0  0
    1.8787   -2.6270    0.0000 H   0  0  0  0  0  0  0  0  0  0  0  0
    2.5970   -3.0418    0.0000 H   0  0  0  0  0  0  0  0  0  0  0  0
    2.3100    4.2905    0.0000 H   0  0  0  0  0  0  0  0  0  0  0  0
    1.4631    4.0636    0.0000 H   0  0  0  0  0  0  0  0  0  0  0  0
    1.6900    3.2166    0.0000 H   0  0  0  0  0  0  0  0  0  0  0  0
    6.0812   -2.2795    0.0000 H   0  0  0  0  0  0  0  0  0  0  0  0
    5.8673   -3.1298    0.0000 H   0  0  0  0  0  0  0  0  0  0  0  0
    6.7176   -3.3436    0.0000 H   0  0  0  0  0  0  0  0  0  0  0  0
  1 12  1  0  0  0  0
  1 28  1  0  0  0  0
  2 15  1  0  0  0  0
  2 27  1  0  0  0  0
  3 23  1  0  0  0  0
  3 26  1  0  0  0  0
 18  4  1  6  0  0  0
  4 40  1  0  0  0  0
  5 36  1  0  0  0  0
  5 37  1  0  0  0  0
  6 26  2  0  0  0  0
  7 34  1  0  0  0  0
  7 43  1  0  0  0  0
  8 38  1  0  0  0  0
  8 41  1  0  0  0  0
  9 39  1  0  0  0  0
  9 41  1  0  0  0  0
 10 40  2  0  0  0  0
 11 12  1  0  0  0  0
 11 29  1  0  0  0  0
 11 30  1  0  0  0  0
 12 15  1  0  0  0  0
 12 17  1  0  0  0  0
 13 14  1  0  0  0  0
 13 16  1  0  0  0  0
 13 26  1  0  0  0  0
 13 44  1  6  0  0  0
 14 18  1  0  0  0  0
 14 23  1  0  0  0  0
 14 45  1  1  0  0  0
 15 19  1  0  0  0  0
 15 46  1  0  0  0  0
 16 21  1  0  0  0  0
 16 25  1  6  0  0  0
 16 47  1  0  0  0  0
 17 20  1  0  0  0  0
 17 48  1  0  0  0  0
 17 49  1  0  0  0  0
 18 24  1  0  0  0  0
 18 50  1  0  0  0  0
 19 22  1  0  0  0  0
 19 51  1  0  0  0  0
 19 52  1  0  0  0  0
 20 22  1  0  0  0  0
 20 53  1  0  0  0  0
 20 54  1  0  0  0  0
 21 24  1  0  0  0  0
 21 33  2  0  0  0  0
 22 55  1  0  0  0  0
 22 56  1  0  0  0  0
 23 57  1  0  0  0  0
 23 58  1  0  0  0  0
 24 35  2  0  0  0  0
 25 31  2  0  0  0  0
 25 32  1  0  0  0  0
 27 28  2  0  0  0  0
 27 31  1  0  0  0  0
 28 34  1  0  0  0  0
 29 36  1  0  0  0  0
 29 59  1  0  0  0  0
 29 60  1  0  0  0  0
 30 37  1  0  0  0  0
 30 61  1  0  0  0  0
 30 62  1  0  0  0  0
 31 63  1  0  0  0  0
 32 34  2  0  0  0  0
 32 64  1  0  0  0  0
 33 38  1  0  0  0  0
 33 65  1  0  0  0  0
 35 39  1  0  0  0  0
 35 66  1  0  0  0  0
 36 67  1  0  0  0  0
 36 68  1  0  0  0  0
 37 69  1  0  0  0  0
 37 70  1  0  0  0  0
 38 39  2  0  0  0  0
 40 42  1  0  0  0  0
 41 71  1  0  0  0  0
 41 72  1  0  0  0  0
 42 73  1  0  0  0  0
 42 74  1  0  0  0  0
 42 75  1  0  0  0  0
 43 76  1  0  0  0  0
 43 77  1  0  0  0  0
 43 78  1  0  0  0  0
M  END
> <PUBCHEM_COMPOUND_CID>
510888
> <PUBCHEM_COMPOUND_CANONICALIZED>
1
> <PUBCHEM_CACTVS_COMPLEXITY>
1070
> <PUBCHEM_CACTVS_HBOND_ACCEPTOR>
11
> <PUBCHEM_CACTVS_HBOND_DONOR>
0
> <PUBCHEM_CACTVS_ROTATABLE_BOND>
5
> <PUBCHEM_CACTVS_SUBSKEYS>
AAADcfB+PAAAAAAAAAAAAAAAAAAAASJAAAA8aMGCAAAAAEjRQAAAHgAAAAAADRzhmAcyDoMABACIAiDSCAACCAAgIAAAiAEOiIgfJzKEsRqvOCKlwBWeqAfa6PyOoAABCAAQQADAAAYQADCgAAAAAAAAAA==
> <PUBCHEM_IUPAC_OPENEYE_NAME>
[(5R,5aS,8aS,9R)-9-(4-methoxy-5a-morpholino-7,8,9,9a-tetrahydro-6H-dibenzo-p-dioxin-2-yl)-8-oxo-5a,6,8a,9-tetrahydro-5H-isobenzofuro[5,6-f][1,3]benzodioxol-5-yl] acetate
> <PUBCHEM_IUPAC_CAS_NAME>
acetic acid [(5R,5aS,8aS,9R)-9-[4-methoxy-5a-(4-morpholinyl)-7,8,9,9a-tetrahydro-6H-dibenzo-p-dioxin-2-yl]-8-oxo-5a,6,8a,9-tetrahydro-5H-isobenzofuro[5,6-f][1,3]benzodioxol-5-yl] ester
> <PUBCHEM_IUPAC_NAME_MARKUP>
[(5<I>R</I>,5<I>a</I><I>S</I>,8<I>a</I><I>S</I>,9<I>R</I>)-9-(4-methoxy-5<I>a</I>-morpholin-4-yl-7,8,9,9<I>a</I>-tetrahydro-6<I>H</I>-dibenzo-p-dioxin-2-yl)-8-oxo-5<I>a</I>,6,8<I>a</I>,9-tetrahydro-5<I>H</I>-[2]benzofuro[5,6-f][1,3]benzodioxol-5-yl] acetate
> <PUBCHEM_IUPAC_NAME>
[(5R,5aS,8aS,9R)-9-(4-methoxy-5a-morpholin-4-yl-7,8,9,9a-tetrahydro-6H-dibenzo-p-dioxin-2-yl)-8-oxo-5a,6,8a,9-tetrahydro-5H-[2]benzofuro[5,6-f][1,3]benzodioxol-5-yl] acetate
> <PUBCHEM_IUPAC_SYSTEMATIC_NAME>
[(5R,5aS,8aS,9R)-9-(4-methoxy-5a-morpholin-4-yl-7,8,9,9a-tetrahydro-6H-dibenzo-p-dioxin-2-yl)-8-oxidanylidene-5a,6,8a,9-tetrahydro-5H-[2]benzofuro[5,6-f][1,3]benzodioxol-5-yl] ethanoate
> <PUBCHEM_IUPAC_TRADITIONAL_NAME>
acetic acid [(5R,5aS,8aS,9R)-8-keto-9-(4-methoxy-5a-morpholino-7,8,9,9a-tetrahydro-6H-dibenzo-p-dioxin-2-yl)-5a,6,8a,9-tetrahydro-5H-isobenzofuro[5,6-f][1,3]benzodioxol-5-yl] ester
> <PUBCHEM_IUPAC_INCHI>
InChI=1S/C32H35NO10/c1-17(34)41-29-20-14-23-22(39-16-40-23)13-19(20)27(28-21(29)15-38-31(28)35)18-11-24(36-2)30-25(12-18)42-26-5-3-4-6-32(26,43-30)33-7-9-37-10-8-33/h11-14,21,26-29H,3-10,15-16H2,1-2H3/t21-,26?,27-,28-,29+,32?/m1/s1
> <PUBCHEM_IUPAC_INCHIKEY>
VXRWUNUROBQYEO-BYQCITGZSA-N
> <PUBCHEM_XLOGP3_AA>
3.4
> <PUBCHEM_EXACT_MASS>
593.22609631
> <PUBCHEM_MOLECULAR_FORMULA>
C32H35NO10
> <PUBCHEM_MOLECULAR_WEIGHT>
593.6
> <PUBCHEM_OPENEYE_CAN_SMILES>
CC(=O)OC1C2COC(=O)C2C(C3=CC4=C(C=C13)OCO4)C5=CC6=C(C(=C5)OC)OC7(CCCCC7O6)N8CCOCC8
> <PUBCHEM_OPENEYE_ISO_SMILES>
CC(=O)O[C@@H]1[C@@H]2COC(=O)[C@H]2[C@@H](C3=CC4=C(C=C13)OCO4)C5=CC6=C(C(=C5)OC)OC7(CCCCC7O6)N8CCOCC8
> <PUBCHEM_CACTVS_TPSA>
111
> <PUBCHEM_MONOISOTOPIC_WEIGHT>
593.22609631
> <PUBCHEM_TOTAL_CHARGE>
0
> <PUBCHEM_HEAVY_ATOM_COUNT>
43
> <PUBCHEM_ATOM_DEF_STEREO_COUNT>
4
> <PUBCHEM_ATOM_UDEF_STEREO_COUNT>
2
> <PUBCHEM_BOND_DEF_STEREO_COUNT>
0
> <PUBCHEM_BOND_UDEF_STEREO_COUNT>
0
> <PUBCHEM_ISOTOPIC_ATOM_COUNT>
0
> <PUBCHEM_COMPONENT_COUNT>
1
> <PUBCHEM_CACTVS_TAUTO_COUNT>
-1
> <PUBCHEM_COORDINATE_TYPE>
1
5
255
> <PUBCHEM_BONDANNOTATIONS>
12  11  3
13  44  6
14  45  5
15  19  3
16  25  6
21  24  8
21  33  8
24  35  8
25  31  8
25  32  8
27  28  8
27  31  8
28  34  8
32  34  8
33  38  8
35  39  8
38  39  8
18  4  6
$$$$
