510886
  -OEChem-10302200282D
 57 63  0     1  0  0  0  0  0999 V2000
    2.0000   -0.2160    0.0000 Cl  0  0  0  0  0  0  0  0  0  0  0  0
    2.0158    1.8323    0.0000 Cl  0  0  0  0  0  0  0  0  0  0  0  0
   11.2105   -2.9428    0.0000 O   0  0  0  0  0  0  0  0  0  0  0  0
    8.1802   -2.8087    0.0000 O   0  0  0  0  0  0  0  0  0  0  0  0
   11.0453    2.7083    0.0000 O   0  0  0  0  0  0  0  0  0  0  0  0
   12.4391    1.9035    0.0000 O   0  0  0  0  0  0  0  0  0  0  0  0
    7.3200   -1.3053    0.0000 O   0  0  0  0  0  0  0  0  0  0  0  0
    7.3020    2.8020    0.0000 O   0  0  0  0  0  0  0  0  0  0  0  0
   11.6252   -1.9940    0.0000 N   0  0  0  0  0  0  0  0  0  0  0  0
    5.5302   -0.2190    0.0000 N   0  0  0  0  0  0  0  0  0  0  0  0
    5.5456    1.7809    0.0000 N   0  0  0  0  0  0  0  0  0  0  0  0
    9.0520   -1.3120    0.0000 C   0  0  1  0  0  0  0  0  0  0  0  0
    9.9541   -1.8328    0.0000 C   0  0  2  0  0  0  0  0  0  0  0  0
    9.0600   -0.2704    0.0000 C   0  0  1  0  0  0  0  0  0  0  0  0
    9.9700    0.2364    0.0000 C   0  0  0  0  0  0  0  0  0  0  0  0
   10.8521   -1.3051    0.0000 C   0  0  0  0  0  0  0  0  0  0  0  0
   10.8361   -0.2636    0.0000 C   0  0  0  0  0  0  0  0  0  0  0  0
   10.1798   -2.8434    0.0000 C   0  0  0  0  0  0  0  0  0  0  0  0
    8.1999    0.2396    0.0000 C   0  0  0  0  0  0  0  0  0  0  0  0
    8.1841   -1.8087    0.0000 C   0  0  0  0  0  0  0  0  0  0  0  0
    9.9700    1.2364    0.0000 C   0  0  0  0  0  0  0  0  0  0  0  0
   11.7021    0.2364    0.0000 C   0  0  0  0  0  0  0  0  0  0  0  0
   10.8361    1.7364    0.0000 C   0  0  0  0  0  0  0  0  0  0  0  0
   11.7021    1.2364    0.0000 C   0  0  0  0  0  0  0  0  0  0  0  0
    7.2899   -0.2673    0.0000 C   0  0  0  0  0  0  0  0  0  0  0  0
    8.2079    1.2812    0.0000 C   0  0  0  0  0  0  0  0  0  0  0  0
    6.4001    0.2743    0.0000 C   0  0  0  0  0  0  0  0  0  0  0  0
    7.3058    1.8020    0.0000 C   0  0  0  0  0  0  0  0  0  0  0  0
    6.4078    1.2742    0.0000 C   0  0  0  0  0  0  0  0  0  0  0  0
   12.0340    2.8113    0.0000 C   0  0  0  0  0  0  0  0  0  0  0  0
    7.3123   -3.3053    0.0000 C   0  0  0  0  0  0  0  0  0  0  0  0
    4.6681    0.2876    0.0000 C   0  0  0  0  0  0  0  0  0  0  0  0
    4.6758    1.2876    0.0000 C   0  0  0  0  0  0  0  0  0  0  0  0
    8.1660    3.3053    0.0000 C   0  0  0  0  0  0  0  0  0  0  0  0
    3.7700   -0.2401    0.0000 C   0  0  0  0  0  0  0  0  0  0  0  0
    3.7860    1.8291    0.0000 C   0  0  0  0  0  0  0  0  0  0  0  0
    2.8680    0.2807    0.0000 C   0  0  0  0  0  0  0  0  0  0  0  0
    2.8760    1.3223    0.0000 C   0  0  0  0  0  0  0  0  0  0  0  0
    9.0508   -1.9320    0.0000 H   0  0  0  0  0  0  0  0  0  0  0  0
    9.2690   -2.3360    0.0000 H   0  0  0  0  0  0  0  0  0  0  0  0
    8.5201   -0.5752    0.0000 H   0  0  0  0  0  0  0  0  0  0  0  0
    9.5639   -2.9142    0.0000 H   0  0  0  0  0  0  0  0  0  0  0  0
   10.1855   -3.4634    0.0000 H   0  0  0  0  0  0  0  0  0  0  0  0
    9.4331    1.5464    0.0000 H   0  0  0  0  0  0  0  0  0  0  0  0
   12.2390   -0.0736    0.0000 H   0  0  0  0  0  0  0  0  0  0  0  0
    7.2779   -0.8872    0.0000 H   0  0  0  0  0  0  0  0  0  0  0  0
    8.7460    1.5891    0.0000 H   0  0  0  0  0  0  0  0  0  0  0  0
   12.6236    3.0031    0.0000 H   0  0  0  0  0  0  0  0  0  0  0  0
   11.9053    3.4178    0.0000 H   0  0  0  0  0  0  0  0  0  0  0  0
    7.0043   -2.7672    0.0000 H   0  0  0  0  0  0  0  0  0  0  0  0
    6.7741   -3.6132    0.0000 H   0  0  0  0  0  0  0  0  0  0  0  0
    7.6202   -3.8434    0.0000 H   0  0  0  0  0  0  0  0  0  0  0  0
    8.4781    2.7696    0.0000 H   0  0  0  0  0  0  0  0  0  0  0  0
    8.7018    3.6174    0.0000 H   0  0  0  0  0  0  0  0  0  0  0  0
    7.8540    3.8410    0.0000 H   0  0  0  0  0  0  0  0  0  0  0  0
    3.7724   -0.8601    0.0000 H   0  0  0  0  0  0  0  0  0  0  0  0
    3.7979    2.4490    0.0000 H   0  0  0  0  0  0  0  0  0  0  0  0
  1 37  1  0  0  0  0
  2 38  1  0  0  0  0
  3  9  1  0  0  0  0
  3 18  1  0  0  0  0
  4 20  1  0  0  0  0
  4 31  1  0  0  0  0
  5 23  1  0  0  0  0
  5 30  1  0  0  0  0
  6 24  1  0  0  0  0
  6 30  1  0  0  0  0
  7 20  2  0  0  0  0
  8 28  1  0  0  0  0
  8 34  1  0  0  0  0
  9 16  2  0  0  0  0
 10 27  2  0  0  0  0
 10 32  1  0  0  0  0
 11 29  2  0  0  0  0
 11 33  1  0  0  0  0
 12 13  1  0  0  0  0
 12 14  1  0  0  0  0
 12 20  1  6  0  0  0
 12 39  1  0  0  0  0
 13 16  1  0  0  0  0
 13 18  1  0  0  0  0
 13 40  1  1  0  0  0
 14 15  1  0  0  0  0
 14 19  1  6  0  0  0
 14 41  1  0  0  0  0
 15 17  1  0  0  0  0
 15 21  2  0  0  0  0
 16 17  1  0  0  0  0
 17 22  2  0  0  0  0
 18 42  1  0  0  0  0
 18 43  1  0  0  0  0
 19 25  2  0  0  0  0
 19 26  1  0  0  0  0
 21 23  1  0  0  0  0
 21 44  1  0  0  0  0
 22 24  1  0  0  0  0
 22 45  1  0  0  0  0
 23 24  2  0  0  0  0
 25 27  1  0  0  0  0
 25 46  1  0  0  0  0
 26 28  2  0  0  0  0
 26 47  1  0  0  0  0
 27 29  1  0  0  0  0
 28 29  1  0  0  0  0
 30 48  1  0  0  0  0
 30 49  1  0  0  0  0
 31 50  1  0  0  0  0
 31 51  1  0  0  0  0
 31 52  1  0  0  0  0
 32 33  1  0  0  0  0
 32 35  2  0  0  0  0
 33 36  2  0  0  0  0
 34 53  1  0  0  0  0
 34 54  1  0  0  0  0
 34 55  1  0  0  0  0
 35 37  1  0  0  0  0
 35 56  1  0  0  0  0
 36 38  1  0  0  0  0
 36 57  1  0  0  0  0
 37 38  2  0  0  0  0
M  END
> <PUBCHEM_COMPOUND_CID>
510886
> <PUBCHEM_COMPOUND_CANONICALIZED>
1
> <PUBCHEM_CACTVS_COMPLEXITY>
958
> <PUBCHEM_CACTVS_HBOND_ACCEPTOR>
9
> <PUBCHEM_CACTVS_HBOND_DONOR>
0
> <PUBCHEM_CACTVS_ROTATABLE_BOND>
4
> <PUBCHEM_CACTVS_SUBSKEYS>
AAADceB7OAAGAAAAAAAAAAAAAAAAASIAAAA8YMGCAAAAAEjx/AAAHgIEAAAADQ6hniMyzrIYFACoAyTyTASCiCQhdyAAmmE3/pgfZvLFs5u1MCpmwBne6Afa2POOqABBQgIQUCTQAIaEBCCgSAAAAAAAAA==
> <PUBCHEM_IUPAC_OPENEYE_NAME>
methyl (3aR,4R,5R)-5-(7,8-dichloro-4-methoxy-phenazin-2-yl)-3,3a,4,5-tetrahydro-[1,3]benzodioxolo[6,5-g][2,1]benzoxazole-4-carboxylate
> <PUBCHEM_IUPAC_CAS_NAME>
(3aR,4R,5R)-5-(7,8-dichloro-4-methoxy-2-phenazinyl)-3,3a,4,5-tetrahydro-[1,3]benzodioxolo[6,5-g][2,1]benzoxazole-4-carboxylic acid methyl ester
> <PUBCHEM_IUPAC_NAME_MARKUP>
methyl (3<I>a</I><I>R</I>,4<I>R</I>,5<I>R</I>)-5-(7,8-dichloro-4-methoxyphenazin-2-yl)-3,3<I>a</I>,4,5-tetrahydro-[1,3]benzodioxolo[6,5-g][2,1]benzoxazole-4-carboxylate
> <PUBCHEM_IUPAC_NAME>
methyl (3aR,4R,5R)-5-(7,8-dichloro-4-methoxyphenazin-2-yl)-3,3a,4,5-tetrahydro-[1,3]benzodioxolo[6,5-g][2,1]benzoxazole-4-carboxylate
> <PUBCHEM_IUPAC_SYSTEMATIC_NAME>
methyl (3aR,4R,5R)-5-[7,8-bis(chloranyl)-4-methoxy-phenazin-2-yl]-3,3a,4,5-tetrahydro-[1,3]benzodioxolo[6,5-g][2,1]benzoxazole-4-carboxylate
> <PUBCHEM_IUPAC_TRADITIONAL_NAME>
(3aR,4R,5R)-5-(7,8-dichloro-4-methoxy-phenazin-2-yl)-3,3a,4,5-tetrahydro-[1,3]benzodioxolo[6,5-g][2,1]benzoxazole-4-carboxylic acid methyl ester
> <PUBCHEM_IUPAC_INCHI>
InChI=1S/C27H19Cl2N3O6/c1-34-22-4-11(3-19-26(22)31-18-8-16(29)15(28)7-17(18)30-19)23-12-5-20-21(37-10-36-20)6-13(12)25-14(9-38-32-25)24(23)27(33)35-2/h3-8,14,23-24H,9-10H2,1-2H3/t14-,23-,24+/m1/s1
> <PUBCHEM_IUPAC_INCHIKEY>
UHKXGFRTTZDAFQ-OGUJYRPASA-N
> <PUBCHEM_XLOGP3_AA>
4.9
> <PUBCHEM_EXACT_MASS>
551.0650907
> <PUBCHEM_MOLECULAR_FORMULA>
C27H19Cl2N3O6
> <PUBCHEM_MOLECULAR_WEIGHT>
552.4
> <PUBCHEM_OPENEYE_CAN_SMILES>
COC1=CC(=CC2=NC3=CC(=C(C=C3N=C12)Cl)Cl)C4C(C5CON=C5C6=CC7=C(C=C46)OCO7)C(=O)OC
> <PUBCHEM_OPENEYE_ISO_SMILES>
COC1=CC(=CC2=NC3=CC(=C(C=C3N=C12)Cl)Cl)[C@H]4[C@H]([C@H]5CON=C5C6=CC7=C(C=C46)OCO7)C(=O)OC
> <PUBCHEM_CACTVS_TPSA>
101
> <PUBCHEM_MONOISOTOPIC_WEIGHT>
551.0650907
> <PUBCHEM_TOTAL_CHARGE>
0
> <PUBCHEM_HEAVY_ATOM_COUNT>
38
> <PUBCHEM_ATOM_DEF_STEREO_COUNT>
3
> <PUBCHEM_ATOM_UDEF_STEREO_COUNT>
0
> <PUBCHEM_BOND_DEF_STEREO_COUNT>
0
> <PUBCHEM_BOND_UDEF_STEREO_COUNT>
0
> <PUBCHEM_ISOTOPIC_ATOM_COUNT>
0
> <PUBCHEM_COMPONENT_COUNT>
1
> <PUBCHEM_CACTVS_TAUTO_COUNT>
-1
> <PUBCHEM_COORDINATE_TYPE>
1
5
255
> <PUBCHEM_BONDANNOTATIONS>
10  27  8
10  32  8
11  29  8
11  33  8
12  20  6
13  40  5
14  19  6
15  17  8
15  21  8
17  22  8
19  25  8
19  26  8
21  23  8
22  24  8
23  24  8
25  27  8
26  28  8
27  29  8
28  29  8
32  33  8
32  35  8
33  36  8
35  37  8
36  38  8
37  38  8
$$$$
