510892
  -OEChem-10302200282D
 44 48  0     1  0  0  0  0  0999 V2000
    5.7497    3.0374    0.0000 O   0  0  0  0  0  0  0  0  0  0  0  0
    2.8197    1.9626    0.0000 O   0  0  0  0  0  0  0  0  0  0  0  0
    7.1333    1.9234    0.0000 O   0  0  0  0  0  0  0  0  0  0  0  0
    3.4519   -2.6190    0.0000 O   0  0  0  0  0  0  0  0  0  0  0  0
    2.0000   -1.7807    0.0000 O   0  0  0  0  0  0  0  0  0  0  0  0
    7.1498   -2.5374    0.0000 O   0  0  0  0  0  0  0  0  0  0  0  0
    8.8819    0.4626    0.0000 O   0  0  0  0  0  0  0  0  0  0  0  0
    8.8819   -1.5374    0.0000 O   0  0  0  0  0  0  0  0  0  0  0  0
    4.5518    1.9626    0.0000 C   0  0  2  0  0  0  0  0  0  0  0  0
    5.4178    1.4626    0.0000 C   0  0  2  0  0  0  0  0  0  0  0  0
    5.4178    0.4626    0.0000 C   0  0  1  0  0  0  0  0  0  0  0  0
    3.6857    1.4626    0.0000 C   0  0  2  0  0  0  0  0  0  0  0  0
    4.5518   -0.0374    0.0000 C   0  0  0  0  0  0  0  0  0  0  0  0
    4.7610    2.9344    0.0000 C   0  0  0  0  0  0  0  0  0  0  0  0
    3.6857    0.4626    0.0000 C   0  0  0  0  0  0  0  0  0  0  0  0
    6.1548    2.1296    0.0000 C   0  0  0  0  0  0  0  0  0  0  0  0
    6.2838   -0.0374    0.0000 C   0  0  0  0  0  0  0  0  0  0  0  0
    4.5678   -1.0789    0.0000 C   0  0  0  0  0  0  0  0  0  0  0  0
    2.7757   -0.0443    0.0000 C   0  0  0  0  0  0  0  0  0  0  0  0
    3.6698   -1.6067    0.0000 C   0  0  0  0  0  0  0  0  0  0  0  0
    2.7677   -1.0859    0.0000 C   0  0  0  0  0  0  0  0  0  0  0  0
    6.2838   -1.0374    0.0000 C   0  0  0  0  0  0  0  0  0  0  0  0
    7.1498    0.4626    0.0000 C   0  0  0  0  0  0  0  0  0  0  0  0
    7.1498   -1.5374    0.0000 C   0  0  0  0  0  0  0  0  0  0  0  0
    8.0159   -0.0374    0.0000 C   0  0  0  0  0  0  0  0  0  0  0  0
    2.4220   -2.7263    0.0000 C   0  0  0  0  0  0  0  0  0  0  0  0
    8.0159   -1.0374    0.0000 C   0  0  0  0  0  0  0  0  0  0  0  0
    8.0159   -3.0374    0.0000 C   0  0  0  0  0  0  0  0  0  0  0  0
    3.8647    2.4631    0.0000 H   0  0  0  0  0  0  0  0  0  0  0  0
    6.1947    1.1178    0.0000 H   0  0  0  0  0  0  0  0  0  0  0  0
    5.4178   -0.1574    0.0000 H   0  0  0  0  0  0  0  0  0  0  0  0
    3.6857    2.0826    0.0000 H   0  0  0  0  0  0  0  0  0  0  0  0
    4.7618    3.5544    0.0000 H   0  0  0  0  0  0  0  0  0  0  0  0
    4.1445    3.0004    0.0000 H   0  0  0  0  0  0  0  0  0  0  0  0
    5.1083   -1.3827    0.0000 H   0  0  0  0  0  0  0  0  0  0  0  0
    2.2424    0.2719    0.0000 H   0  0  0  0  0  0  0  0  0  0  0  0
    2.8197    2.5826    0.0000 H   0  0  0  0  0  0  0  0  0  0  0  0
    5.7469   -1.3474    0.0000 H   0  0  0  0  0  0  0  0  0  0  0  0
    7.1498    1.0826    0.0000 H   0  0  0  0  0  0  0  0  0  0  0  0
    1.8324   -2.9181    0.0000 H   0  0  0  0  0  0  0  0  0  0  0  0
    2.5507   -3.3328    0.0000 H   0  0  0  0  0  0  0  0  0  0  0  0
    7.7059   -3.5744    0.0000 H   0  0  0  0  0  0  0  0  0  0  0  0
    8.5528   -3.3474    0.0000 H   0  0  0  0  0  0  0  0  0  0  0  0
    8.3259   -2.5005    0.0000 H   0  0  0  0  0  0  0  0  0  0  0  0
  1 14  1  0  0  0  0
  1 16  1  0  0  0  0
 12  2  1  6  0  0  0
  2 37  1  0  0  0  0
  3 16  2  0  0  0  0
  4 20  1  0  0  0  0
  4 26  1  0  0  0  0
  5 21  1  0  0  0  0
  5 26  1  0  0  0  0
  6 24  1  0  0  0  0
  6 28  1  0  0  0  0
  7 25  2  0  0  0  0
  8 27  2  0  0  0  0
  9 10  1  0  0  0  0
  9 12  1  0  0  0  0
  9 14  1  0  0  0  0
  9 29  1  1  0  0  0
 10 11  1  0  0  0  0
 10 16  1  0  0  0  0
 10 30  1  6  0  0  0
 11 13  1  0  0  0  0
 11 17  1  6  0  0  0
 11 31  1  0  0  0  0
 12 15  1  0  0  0  0
 12 32  1  0  0  0  0
 13 15  1  0  0  0  0
 13 18  2  0  0  0  0
 14 33  1  0  0  0  0
 14 34  1  0  0  0  0
 15 19  2  0  0  0  0
 17 22  1  0  0  0  0
 17 23  2  0  0  0  0
 18 20  1  0  0  0  0
 18 35  1  0  0  0  0
 19 21  1  0  0  0  0
 19 36  1  0  0  0  0
 20 21  2  0  0  0  0
 22 24  2  0  0  0  0
 22 38  1  0  0  0  0
 23 25  1  0  0  0  0
 23 39  1  0  0  0  0
 24 27  1  0  0  0  0
 25 27  1  0  0  0  0
 26 40  1  0  0  0  0
 26 41  1  0  0  0  0
 28 42  1  0  0  0  0
 28 43  1  0  0  0  0
 28 44  1  0  0  0  0
M  END
> <PUBCHEM_COMPOUND_CID>
510892
> <PUBCHEM_COMPOUND_CANONICALIZED>
1
> <PUBCHEM_CACTVS_COMPLEXITY>
798
> <PUBCHEM_CACTVS_HBOND_ACCEPTOR>
8
> <PUBCHEM_CACTVS_HBOND_DONOR>
1
> <PUBCHEM_CACTVS_ROTATABLE_BOND>
2
> <PUBCHEM_CACTVS_SUBSKEYS>
AAADceB4PAAAAAAAAAAAAAAAAAAAASJAAAAwYIAAAAAAAEjBAAAAGgAACAAADRSgmAMyDoAABgCIAqDSCAICCAAgIAAAiAFGiMgdNjaEMR6icCIl4BEOuYfK6PyOoAABAAAQQADAAAYAADCAAAAAAAAAAA==
> <PUBCHEM_IUPAC_OPENEYE_NAME>
5-[(5R,5aS,8aS,9R)-5-hydroxy-8-oxo-5a,6,8a,9-tetrahydro-5H-isobenzofuro[6,5-f][1,3]benzodioxol-9-yl]-3-methoxy-1,2-benzoquinone
> <PUBCHEM_IUPAC_CAS_NAME>
5-[(5R,5aS,8aS,9R)-5-hydroxy-8-oxo-5a,6,8a,9-tetrahydro-5H-isobenzofuro[6,5-f][1,3]benzodioxol-9-yl]-3-methoxycyclohexa-3,5-diene-1,2-dione
> <PUBCHEM_IUPAC_NAME_MARKUP>
5-[(5<I>R</I>,5<I>a</I><I>S</I>,8<I>a</I><I>S</I>,9<I>R</I>)-5-hydroxy-8-oxo-5<I>a</I>,6,8<I>a</I>,9-tetrahydro-5<I>H</I>-[2]benzofuro[6,5-f][1,3]benzodioxol-9-yl]-3-methoxycyclohexa-3,5-diene-1,2-dione
> <PUBCHEM_IUPAC_NAME>
5-[(5R,5aS,8aS,9R)-5-hydroxy-8-oxo-5a,6,8a,9-tetrahydro-5H-[2]benzofuro[6,5-f][1,3]benzodioxol-9-yl]-3-methoxycyclohexa-3,5-diene-1,2-dione
> <PUBCHEM_IUPAC_SYSTEMATIC_NAME>
5-[(5R,5aS,8aS,9R)-5-oxidanyl-8-oxidanylidene-5a,6,8a,9-tetrahydro-5H-[2]benzofuro[6,5-f][1,3]benzodioxol-9-yl]-3-methoxy-cyclohexa-3,5-diene-1,2-dione
> <PUBCHEM_IUPAC_TRADITIONAL_NAME>
5-[(5R,5aS,8aS,9R)-5-hydroxy-8-keto-5a,6,8a,9-tetrahydro-5H-isobenzofuro[6,5-f][1,3]benzodioxol-9-yl]-3-methoxy-o-benzoquinone
> <PUBCHEM_IUPAC_INCHI>
InChI=1S/C20H16O8/c1-25-15-3-8(2-12(21)19(15)23)16-9-4-13-14(28-7-27-13)5-10(9)18(22)11-6-26-20(24)17(11)16/h2-5,11,16-18,22H,6-7H2,1H3/t11-,16-,17-,18+/m1/s1
> <PUBCHEM_IUPAC_INCHIKEY>
XCOKRODRXOWJQI-WAFHWIMBSA-N
> <PUBCHEM_XLOGP3_AA>
0.4
> <PUBCHEM_EXACT_MASS>
384.08451746
> <PUBCHEM_MOLECULAR_FORMULA>
C20H16O8
> <PUBCHEM_MOLECULAR_WEIGHT>
384.3
> <PUBCHEM_OPENEYE_CAN_SMILES>
COC1=CC(=CC(=O)C1=O)C2C3C(COC3=O)C(C4=CC5=C(C=C24)OCO5)O
> <PUBCHEM_OPENEYE_ISO_SMILES>
COC1=CC(=CC(=O)C1=O)[C@H]2[C@H]3[C@@H](COC3=O)[C@H](C4=CC5=C(C=C24)OCO5)O
> <PUBCHEM_CACTVS_TPSA>
108
> <PUBCHEM_MONOISOTOPIC_WEIGHT>
384.08451746
> <PUBCHEM_TOTAL_CHARGE>
0
> <PUBCHEM_HEAVY_ATOM_COUNT>
28
> <PUBCHEM_ATOM_DEF_STEREO_COUNT>
4
> <PUBCHEM_ATOM_UDEF_STEREO_COUNT>
0
> <PUBCHEM_BOND_DEF_STEREO_COUNT>
0
> <PUBCHEM_BOND_UDEF_STEREO_COUNT>
0
> <PUBCHEM_ISOTOPIC_ATOM_COUNT>
0
> <PUBCHEM_COMPONENT_COUNT>
1
> <PUBCHEM_CACTVS_TAUTO_COUNT>
-1
> <PUBCHEM_COORDINATE_TYPE>
1
5
255
> <PUBCHEM_BONDANNOTATIONS>
10  30  6
11  17  6
13  15  8
13  18  8
15  19  8
18  20  8
19  21  8
12  2  6
20  21  8
9  29  5
$$$$
