510885
  -OEChem-10302200282D
 63 69  0     1  0  0  0  0  0999 V2000
   11.2105   -2.9428    0.0000 O   0  0  0  0  0  0  0  0  0  0  0  0
    8.1802   -2.8087    0.0000 O   0  0  0  0  0  0  0  0  0  0  0  0
   11.0453    2.7083    0.0000 O   0  0  0  0  0  0  0  0  0  0  0  0
   12.4391    1.9035    0.0000 O   0  0  0  0  0  0  0  0  0  0  0  0
    7.3200   -1.3053    0.0000 O   0  0  0  0  0  0  0  0  0  0  0  0
    7.3020    2.8020    0.0000 O   0  0  0  0  0  0  0  0  0  0  0  0
   11.6252   -1.9940    0.0000 N   0  0  0  0  0  0  0  0  0  0  0  0
    5.5302   -0.2190    0.0000 N   0  0  0  0  0  0  0  0  0  0  0  0
    5.5456    1.7809    0.0000 N   0  0  0  0  0  0  0  0  0  0  0  0
    9.0520   -1.3120    0.0000 C   0  0  1  0  0  0  0  0  0  0  0  0
    9.9541   -1.8328    0.0000 C   0  0  2  0  0  0  0  0  0  0  0  0
    9.0600   -0.2704    0.0000 C   0  0  1  0  0  0  0  0  0  0  0  0
    9.9700    0.2364    0.0000 C   0  0  0  0  0  0  0  0  0  0  0  0
   10.8521   -1.3051    0.0000 C   0  0  0  0  0  0  0  0  0  0  0  0
   10.8361   -0.2636    0.0000 C   0  0  0  0  0  0  0  0  0  0  0  0
   10.1798   -2.8434    0.0000 C   0  0  0  0  0  0  0  0  0  0  0  0
    8.1999    0.2396    0.0000 C   0  0  0  0  0  0  0  0  0  0  0  0
    8.1841   -1.8087    0.0000 C   0  0  0  0  0  0  0  0  0  0  0  0
    9.9700    1.2364    0.0000 C   0  0  0  0  0  0  0  0  0  0  0  0
   11.7021    0.2364    0.0000 C   0  0  0  0  0  0  0  0  0  0  0  0
   10.8361    1.7364    0.0000 C   0  0  0  0  0  0  0  0  0  0  0  0
   11.7021    1.2364    0.0000 C   0  0  0  0  0  0  0  0  0  0  0  0
    7.2899   -0.2673    0.0000 C   0  0  0  0  0  0  0  0  0  0  0  0
    8.2079    1.2812    0.0000 C   0  0  0  0  0  0  0  0  0  0  0  0
    6.4001    0.2743    0.0000 C   0  0  0  0  0  0  0  0  0  0  0  0
    7.3058    1.8020    0.0000 C   0  0  0  0  0  0  0  0  0  0  0  0
    6.4078    1.2742    0.0000 C   0  0  0  0  0  0  0  0  0  0  0  0
   12.0340    2.8113    0.0000 C   0  0  0  0  0  0  0  0  0  0  0  0
    7.3123   -3.3053    0.0000 C   0  0  0  0  0  0  0  0  0  0  0  0
    4.6681    0.2876    0.0000 C   0  0  0  0  0  0  0  0  0  0  0  0
    4.6758    1.2876    0.0000 C   0  0  0  0  0  0  0  0  0  0  0  0
    3.7700   -0.2401    0.0000 C   0  0  0  0  0  0  0  0  0  0  0  0
    3.7860    1.8291    0.0000 C   0  0  0  0  0  0  0  0  0  0  0  0
    2.8680    0.2807    0.0000 C   0  0  0  0  0  0  0  0  0  0  0  0
    2.8760    1.3223    0.0000 C   0  0  0  0  0  0  0  0  0  0  0  0
    8.1660    3.3053    0.0000 C   0  0  0  0  0  0  0  0  0  0  0  0
    2.0000   -0.2160    0.0000 C   0  0  0  0  0  0  0  0  0  0  0  0
    2.0158    1.8323    0.0000 C   0  0  0  0  0  0  0  0  0  0  0  0
    9.0508   -1.9320    0.0000 H   0  0  0  0  0  0  0  0  0  0  0  0
    9.2690   -2.3360    0.0000 H   0  0  0  0  0  0  0  0  0  0  0  0
    8.5201   -0.5752    0.0000 H   0  0  0  0  0  0  0  0  0  0  0  0
    9.5639   -2.9142    0.0000 H   0  0  0  0  0  0  0  0  0  0  0  0
   10.1855   -3.4634    0.0000 H   0  0  0  0  0  0  0  0  0  0  0  0
    9.4331    1.5464    0.0000 H   0  0  0  0  0  0  0  0  0  0  0  0
   12.2390   -0.0736    0.0000 H   0  0  0  0  0  0  0  0  0  0  0  0
    7.2779   -0.8872    0.0000 H   0  0  0  0  0  0  0  0  0  0  0  0
    8.7460    1.5891    0.0000 H   0  0  0  0  0  0  0  0  0  0  0  0
   12.6236    3.0031    0.0000 H   0  0  0  0  0  0  0  0  0  0  0  0
   11.9053    3.4178    0.0000 H   0  0  0  0  0  0  0  0  0  0  0  0
    7.0043   -2.7672    0.0000 H   0  0  0  0  0  0  0  0  0  0  0  0
    6.7741   -3.6132    0.0000 H   0  0  0  0  0  0  0  0  0  0  0  0
    7.6202   -3.8434    0.0000 H   0  0  0  0  0  0  0  0  0  0  0  0
    3.7724   -0.8601    0.0000 H   0  0  0  0  0  0  0  0  0  0  0  0
    3.7979    2.4490    0.0000 H   0  0  0  0  0  0  0  0  0  0  0  0
    8.4781    2.7696    0.0000 H   0  0  0  0  0  0  0  0  0  0  0  0
    8.7018    3.6174    0.0000 H   0  0  0  0  0  0  0  0  0  0  0  0
    7.8540    3.8410    0.0000 H   0  0  0  0  0  0  0  0  0  0  0  0
    1.6921    0.3221    0.0000 H   0  0  0  0  0  0  0  0  0  0  0  0
    1.4619   -0.5239    0.0000 H   0  0  0  0  0  0  0  0  0  0  0  0
    2.3079   -0.7541    0.0000 H   0  0  0  0  0  0  0  0  0  0  0  0
    2.3320    2.3656    0.0000 H   0  0  0  0  0  0  0  0  0  0  0  0
    1.4825    2.1484    0.0000 H   0  0  0  0  0  0  0  0  0  0  0  0
    1.6996    1.2989    0.0000 H   0  0  0  0  0  0  0  0  0  0  0  0
  1  7  1  0  0  0  0
  1 16  1  0  0  0  0
  2 18  1  0  0  0  0
  2 29  1  0  0  0  0
  3 21  1  0  0  0  0
  3 28  1  0  0  0  0
  4 22  1  0  0  0  0
  4 28  1  0  0  0  0
  5 18  2  0  0  0  0
  6 26  1  0  0  0  0
  6 36  1  0  0  0  0
  7 14  2  0  0  0  0
  8 25  2  0  0  0  0
  8 30  1  0  0  0  0
  9 27  2  0  0  0  0
  9 31  1  0  0  0  0
 10 11  1  0  0  0  0
 10 12  1  0  0  0  0
 10 18  1  6  0  0  0
 10 39  1  0  0  0  0
 11 14  1  0  0  0  0
 11 16  1  0  0  0  0
 11 40  1  1  0  0  0
 12 13  1  0  0  0  0
 12 17  1  6  0  0  0
 12 41  1  0  0  0  0
 13 15  1  0  0  0  0
 13 19  2  0  0  0  0
 14 15  1  0  0  0  0
 15 20  2  0  0  0  0
 16 42  1  0  0  0  0
 16 43  1  0  0  0  0
 17 23  2  0  0  0  0
 17 24  1  0  0  0  0
 19 21  1  0  0  0  0
 19 44  1  0  0  0  0
 20 22  1  0  0  0  0
 20 45  1  0  0  0  0
 21 22  2  0  0  0  0
 23 25  1  0  0  0  0
 23 46  1  0  0  0  0
 24 26  2  0  0  0  0
 24 47  1  0  0  0  0
 25 27  1  0  0  0  0
 26 27  1  0  0  0  0
 28 48  1  0  0  0  0
 28 49  1  0  0  0  0
 29 50  1  0  0  0  0
 29 51  1  0  0  0  0
 29 52  1  0  0  0  0
 30 31  2  0  0  0  0
 30 32  1  0  0  0  0
 31 33  1  0  0  0  0
 32 34  2  0  0  0  0
 32 53  1  0  0  0  0
 33 35  2  0  0  0  0
 33 54  1  0  0  0  0
 34 35  1  0  0  0  0
 34 37  1  0  0  0  0
 35 38  1  0  0  0  0
 36 55  1  0  0  0  0
 36 56  1  0  0  0  0
 36 57  1  0  0  0  0
 37 58  1  0  0  0  0
 37 59  1  0  0  0  0
 37 60  1  0  0  0  0
 38 61  1  0  0  0  0
 38 62  1  0  0  0  0
 38 63  1  0  0  0  0
M  END
> <PUBCHEM_COMPOUND_CID>
510885
> <PUBCHEM_COMPOUND_CANONICALIZED>
1
> <PUBCHEM_CACTVS_COMPLEXITY>
947
> <PUBCHEM_CACTVS_HBOND_ACCEPTOR>
9
> <PUBCHEM_CACTVS_HBOND_DONOR>
0
> <PUBCHEM_CACTVS_ROTATABLE_BOND>
4
> <PUBCHEM_CACTVS_SUBSKEYS>
AAADceB7OAAAAAAAAAAAAAAAAAAAASIAAAA8YMGCAAAAAEjx/AAAHgAEAAAADQyhngMyzrIYFACoAyTyTASCiCQhciAAmCE3/JgfZvLEsZu1MCpmwBne6Afa2POOqAABQgAQUCDQAAaEACCgQAAAAAAAAA==
> <PUBCHEM_IUPAC_OPENEYE_NAME>
methyl (3aR,4R,5R)-5-(4-methoxy-7,8-dimethyl-phenazin-2-yl)-3,3a,4,5-tetrahydro-[1,3]benzodioxolo[6,5-g][2,1]benzoxazole-4-carboxylate
> <PUBCHEM_IUPAC_CAS_NAME>
(3aR,4R,5R)-5-(4-methoxy-7,8-dimethyl-2-phenazinyl)-3,3a,4,5-tetrahydro-[1,3]benzodioxolo[6,5-g][2,1]benzoxazole-4-carboxylic acid methyl ester
> <PUBCHEM_IUPAC_NAME_MARKUP>
methyl (3<I>a</I><I>R</I>,4<I>R</I>,5<I>R</I>)-5-(4-methoxy-7,8-dimethylphenazin-2-yl)-3,3<I>a</I>,4,5-tetrahydro-[1,3]benzodioxolo[6,5-g][2,1]benzoxazole-4-carboxylate
> <PUBCHEM_IUPAC_NAME>
methyl (3aR,4R,5R)-5-(4-methoxy-7,8-dimethylphenazin-2-yl)-3,3a,4,5-tetrahydro-[1,3]benzodioxolo[6,5-g][2,1]benzoxazole-4-carboxylate
> <PUBCHEM_IUPAC_SYSTEMATIC_NAME>
methyl (3aR,4R,5R)-5-(4-methoxy-7,8-dimethyl-phenazin-2-yl)-3,3a,4,5-tetrahydro-[1,3]benzodioxolo[6,5-g][2,1]benzoxazole-4-carboxylate
> <PUBCHEM_IUPAC_TRADITIONAL_NAME>
(3aR,4R,5R)-5-(4-methoxy-7,8-dimethyl-phenazin-2-yl)-3,3a,4,5-tetrahydro-[1,3]benzodioxolo[6,5-g][2,1]benzoxazole-4-carboxylic acid methyl ester
> <PUBCHEM_IUPAC_INCHI>
InChI=1S/C29H25N3O6/c1-13-5-19-20(6-14(13)2)31-28-21(30-19)7-15(8-24(28)34-3)25-16-9-22-23(37-12-36-22)10-17(16)27-18(11-38-32-27)26(25)29(33)35-4/h5-10,18,25-26H,11-12H2,1-4H3/t18-,25-,26+/m1/s1
> <PUBCHEM_IUPAC_INCHIKEY>
OEKHNVWTSXLHPY-IHMJZKOGSA-N
> <PUBCHEM_XLOGP3_AA>
4.4
> <PUBCHEM_EXACT_MASS>
511.17433553
> <PUBCHEM_MOLECULAR_FORMULA>
C29H25N3O6
> <PUBCHEM_MOLECULAR_WEIGHT>
511.5
> <PUBCHEM_OPENEYE_CAN_SMILES>
CC1=CC2=C(C=C1C)N=C3C(=CC(=CC3=N2)C4C(C5CON=C5C6=CC7=C(C=C46)OCO7)C(=O)OC)OC
> <PUBCHEM_OPENEYE_ISO_SMILES>
CC1=CC2=C(C=C1C)N=C3C(=CC(=CC3=N2)[C@H]4[C@H]([C@H]5CON=C5C6=CC7=C(C=C46)OCO7)C(=O)OC)OC
> <PUBCHEM_CACTVS_TPSA>
101
> <PUBCHEM_MONOISOTOPIC_WEIGHT>
511.17433553
> <PUBCHEM_TOTAL_CHARGE>
0
> <PUBCHEM_HEAVY_ATOM_COUNT>
38
> <PUBCHEM_ATOM_DEF_STEREO_COUNT>
3
> <PUBCHEM_ATOM_UDEF_STEREO_COUNT>
0
> <PUBCHEM_BOND_DEF_STEREO_COUNT>
0
> <PUBCHEM_BOND_UDEF_STEREO_COUNT>
0
> <PUBCHEM_ISOTOPIC_ATOM_COUNT>
0
> <PUBCHEM_COMPONENT_COUNT>
1
> <PUBCHEM_CACTVS_TAUTO_COUNT>
-1
> <PUBCHEM_COORDINATE_TYPE>
1
5
255
> <PUBCHEM_BONDANNOTATIONS>
10  18  6
11  40  5
12  17  6
13  15  8
13  19  8
15  20  8
17  23  8
17  24  8
19  21  8
20  22  8
21  22  8
23  25  8
24  26  8
25  27  8
26  27  8
30  31  8
30  32  8
31  33  8
32  34  8
33  35  8
34  35  8
8  25  8
8  30  8
9  27  8
9  31  8
$$$$
