510883
  -OEChem-10302200282D
 65 71  0     1  0  0  0  0  0999 V2000
    5.7960    2.8574    0.0000 O   0  0  0  0  0  0  0  0  0  0  0  0
    2.8660    1.7826    0.0000 O   0  0  0  0  0  0  0  0  0  0  0  0
    7.1796    1.7434    0.0000 O   0  0  0  0  0  0  0  0  0  0  0  0
    3.4982   -2.7990    0.0000 O   0  0  0  0  0  0  0  0  0  0  0  0
    2.0463   -1.9607    0.0000 O   0  0  0  0  0  0  0  0  0  0  0  0
    7.2576   -2.7693    0.0000 O   0  0  0  0  0  0  0  0  0  0  0  0
    3.7320    3.2826    0.0000 O   0  0  0  0  0  0  0  0  0  0  0  0
    8.9943    0.2720    0.0000 N   0  0  0  0  0  0  0  0  0  0  0  0
    9.0020   -1.7280    0.0000 N   0  0  0  0  0  0  0  0  0  0  0  0
    4.5981    1.7826    0.0000 C   0  0  2  0  0  0  0  0  0  0  0  0
    5.4641    1.2826    0.0000 C   0  0  2  0  0  0  0  0  0  0  0  0
    5.4641    0.2826    0.0000 C   0  0  1  0  0  0  0  0  0  0  0  0
    3.7320    1.2826    0.0000 C   0  0  2  0  0  0  0  0  0  0  0  0
    4.5981   -0.2174    0.0000 C   0  0  0  0  0  0  0  0  0  0  0  0
    4.8073    2.7544    0.0000 C   0  0  0  0  0  0  0  0  0  0  0  0
    3.7320    0.2826    0.0000 C   0  0  0  0  0  0  0  0  0  0  0  0
    6.2011    1.9497    0.0000 C   0  0  0  0  0  0  0  0  0  0  0  0
    6.3301   -0.2174    0.0000 C   0  0  0  0  0  0  0  0  0  0  0  0
    4.6141   -1.2589    0.0000 C   0  0  0  0  0  0  0  0  0  0  0  0
    2.8220   -0.2243    0.0000 C   0  0  0  0  0  0  0  0  0  0  0  0
    3.7161   -1.7867    0.0000 C   0  0  0  0  0  0  0  0  0  0  0  0
    2.8140   -1.2659    0.0000 C   0  0  0  0  0  0  0  0  0  0  0  0
    7.2342    0.2999    0.0000 C   0  0  0  0  0  0  0  0  0  0  0  0
    6.3341   -1.2590    0.0000 C   0  0  0  0  0  0  0  0  0  0  0  0
    8.1302   -0.2313    0.0000 C   0  0  0  0  0  0  0  0  0  0  0  0
    7.2422   -1.7694    0.0000 C   0  0  0  0  0  0  0  0  0  0  0  0
    2.8660    2.7826    0.0000 C   0  0  0  0  0  0  0  0  0  0  0  0
    8.1341   -1.2313    0.0000 C   0  0  0  0  0  0  0  0  0  0  0  0
    2.4683   -2.9063    0.0000 C   0  0  0  0  0  0  0  0  0  0  0  0
    2.0000    3.2826    0.0000 C   0  0  0  0  0  0  0  0  0  0  0  0
    9.8622   -0.2246    0.0000 C   0  0  0  0  0  0  0  0  0  0  0  0
    9.8661   -1.2246    0.0000 C   0  0  0  0  0  0  0  0  0  0  0  0
   10.7541    0.3135    0.0000 C   0  0  0  0  0  0  0  0  0  0  0  0
    6.3994   -3.2826    0.0000 C   0  0  0  0  0  0  0  0  0  0  0  0
   10.7621   -1.7558    0.0000 C   0  0  0  0  0  0  0  0  0  0  0  0
   11.6622   -0.1969    0.0000 C   0  0  0  0  0  0  0  0  0  0  0  0
   11.6662   -1.2385    0.0000 C   0  0  0  0  0  0  0  0  0  0  0  0
   12.5243    0.3098    0.0000 C   0  0  0  0  0  0  0  0  0  0  0  0
   12.5322   -1.7385    0.0000 C   0  0  0  0  0  0  0  0  0  0  0  0
    3.9111    2.2831    0.0000 H   0  0  0  0  0  0  0  0  0  0  0  0
    6.2411    0.9379    0.0000 H   0  0  0  0  0  0  0  0  0  0  0  0
    5.4641   -0.3374    0.0000 H   0  0  0  0  0  0  0  0  0  0  0  0
    3.7320    1.9026    0.0000 H   0  0  0  0  0  0  0  0  0  0  0  0
    4.8082    3.3744    0.0000 H   0  0  0  0  0  0  0  0  0  0  0  0
    4.1908    2.8204    0.0000 H   0  0  0  0  0  0  0  0  0  0  0  0
    5.1546   -1.5627    0.0000 H   0  0  0  0  0  0  0  0  0  0  0  0
    2.2887    0.0919    0.0000 H   0  0  0  0  0  0  0  0  0  0  0  0
    7.2390    0.9199    0.0000 H   0  0  0  0  0  0  0  0  0  0  0  0
    5.7996   -1.5732    0.0000 H   0  0  0  0  0  0  0  0  0  0  0  0
    1.8787   -3.0981    0.0000 H   0  0  0  0  0  0  0  0  0  0  0  0
    2.5970   -3.5128    0.0000 H   0  0  0  0  0  0  0  0  0  0  0  0
    2.3100    3.8195    0.0000 H   0  0  0  0  0  0  0  0  0  0  0  0
    1.4631    3.5926    0.0000 H   0  0  0  0  0  0  0  0  0  0  0  0
    1.6900    2.7456    0.0000 H   0  0  0  0  0  0  0  0  0  0  0  0
   10.7446    0.9334    0.0000 H   0  0  0  0  0  0  0  0  0  0  0  0
   10.7573   -2.3758    0.0000 H   0  0  0  0  0  0  0  0  0  0  0  0
    6.0812   -2.7505    0.0000 H   0  0  0  0  0  0  0  0  0  0  0  0
    5.8673   -3.6008    0.0000 H   0  0  0  0  0  0  0  0  0  0  0  0
    6.7176   -3.8147    0.0000 H   0  0  0  0  0  0  0  0  0  0  0  0
   12.8384   -0.2247    0.0000 H   0  0  0  0  0  0  0  0  0  0  0  0
   13.0588    0.6239    0.0000 H   0  0  0  0  0  0  0  0  0  0  0  0
   12.2102    0.8443    0.0000 H   0  0  0  0  0  0  0  0  0  0  0  0
   12.2222   -2.2754    0.0000 H   0  0  0  0  0  0  0  0  0  0  0  0
   13.0691   -2.0485    0.0000 H   0  0  0  0  0  0  0  0  0  0  0  0
   12.8422   -1.2016    0.0000 H   0  0  0  0  0  0  0  0  0  0  0  0
  1 15  1  0  0  0  0
  1 17  1  0  0  0  0
 13  2  1  6  0  0  0
  2 27  1  0  0  0  0
  3 17  2  0  0  0  0
  4 21  1  0  0  0  0
  4 29  1  0  0  0  0
  5 22  1  0  0  0  0
  5 29  1  0  0  0  0
  6 26  1  0  0  0  0
  6 34  1  0  0  0  0
  7 27  2  0  0  0  0
  8 25  2  0  0  0  0
  8 31  1  0  0  0  0
  9 28  2  0  0  0  0
  9 32  1  0  0  0  0
 10 11  1  0  0  0  0
 10 13  1  0  0  0  0
 10 15  1  0  0  0  0
 10 40  1  1  0  0  0
 11 12  1  0  0  0  0
 11 17  1  0  0  0  0
 11 41  1  6  0  0  0
 12 14  1  0  0  0  0
 12 18  1  6  0  0  0
 12 42  1  0  0  0  0
 13 16  1  0  0  0  0
 13 43  1  0  0  0  0
 14 16  1  0  0  0  0
 14 19  2  0  0  0  0
 15 44  1  0  0  0  0
 15 45  1  0  0  0  0
 16 20  2  0  0  0  0
 18 23  2  0  0  0  0
 18 24  1  0  0  0  0
 19 21  1  0  0  0  0
 19 46  1  0  0  0  0
 20 22  1  0  0  0  0
 20 47  1  0  0  0  0
 21 22  2  0  0  0  0
 23 25  1  0  0  0  0
 23 48  1  0  0  0  0
 24 26  2  0  0  0  0
 24 49  1  0  0  0  0
 25 28  1  0  0  0  0
 26 28  1  0  0  0  0
 27 30  1  0  0  0  0
 29 50  1  0  0  0  0
 29 51  1  0  0  0  0
 30 52  1  0  0  0  0
 30 53  1  0  0  0  0
 30 54  1  0  0  0  0
 31 32  2  0  0  0  0
 31 33  1  0  0  0  0
 32 35  1  0  0  0  0
 33 36  2  0  0  0  0
 33 55  1  0  0  0  0
 34 57  1  0  0  0  0
 34 58  1  0  0  0  0
 34 59  1  0  0  0  0
 35 37  2  0  0  0  0
 35 56  1  0  0  0  0
 36 37  1  0  0  0  0
 36 38  1  0  0  0  0
 37 39  1  0  0  0  0
 38 60  1  0  0  0  0
 38 61  1  0  0  0  0
 38 62  1  0  0  0  0
 39 63  1  0  0  0  0
 39 64  1  0  0  0  0
 39 65  1  0  0  0  0
M  END
> <PUBCHEM_COMPOUND_CID>
510883
> <PUBCHEM_COMPOUND_CANONICALIZED>
1
> <PUBCHEM_CACTVS_COMPLEXITY>
964
> <PUBCHEM_CACTVS_HBOND_ACCEPTOR>
9
> <PUBCHEM_CACTVS_HBOND_DONOR>
0
> <PUBCHEM_CACTVS_ROTATABLE_BOND>
4
> <PUBCHEM_CACTVS_SUBSKEYS>
AAADceB7OAAAAAAAAAAAAAAAAAAAASJAAAA8YMGCAAAAAEjx/AAAHgAAAAAADRyhngMyzrIIFACoAyTyTASCiCQhciAAmCE3/JgfZvLEsZu3MCpnwBne6Afa+P+OqAABQgAQUCDQAAaEADCgQAAAAAAAAA==
> <PUBCHEM_IUPAC_OPENEYE_NAME>
[(5R,5aS,8aS,9R)-9-(4-methoxy-7,8-dimethyl-phenazin-2-yl)-8-oxo-5a,6,8a,9-tetrahydro-5H-isobenzofuro[5,6-f][1,3]benzodioxol-5-yl] acetate
> <PUBCHEM_IUPAC_CAS_NAME>
acetic acid [(5R,5aS,8aS,9R)-9-(4-methoxy-7,8-dimethyl-2-phenazinyl)-8-oxo-5a,6,8a,9-tetrahydro-5H-isobenzofuro[5,6-f][1,3]benzodioxol-5-yl] ester
> <PUBCHEM_IUPAC_NAME_MARKUP>
[(5<I>R</I>,5<I>a</I><I>S</I>,8<I>a</I><I>S</I>,9<I>R</I>)-9-(4-methoxy-7,8-dimethylphenazin-2-yl)-8-oxo-5<I>a</I>,6,8<I>a</I>,9-tetrahydro-5<I>H</I>-[2]benzofuro[5,6-f][1,3]benzodioxol-5-yl] acetate
> <PUBCHEM_IUPAC_NAME>
[(5R,5aS,8aS,9R)-9-(4-methoxy-7,8-dimethylphenazin-2-yl)-8-oxo-5a,6,8a,9-tetrahydro-5H-[2]benzofuro[5,6-f][1,3]benzodioxol-5-yl] acetate
> <PUBCHEM_IUPAC_SYSTEMATIC_NAME>
[(5R,5aS,8aS,9R)-9-(4-methoxy-7,8-dimethyl-phenazin-2-yl)-8-oxidanylidene-5a,6,8a,9-tetrahydro-5H-[2]benzofuro[5,6-f][1,3]benzodioxol-5-yl] ethanoate
> <PUBCHEM_IUPAC_TRADITIONAL_NAME>
acetic acid [(5R,5aS,8aS,9R)-8-keto-9-(4-methoxy-7,8-dimethyl-phenazin-2-yl)-5a,6,8a,9-tetrahydro-5H-isobenzofuro[5,6-f][1,3]benzodioxol-5-yl] ester
> <PUBCHEM_IUPAC_INCHI>
InChI=1S/C30H26N2O7/c1-13-5-20-21(6-14(13)2)32-28-22(31-20)7-16(8-25(28)35-4)26-17-9-23-24(38-12-37-23)10-18(17)29(39-15(3)33)19-11-36-30(34)27(19)26/h5-10,19,26-27,29H,11-12H2,1-4H3/t19-,26-,27-,29+/m1/s1
> <PUBCHEM_IUPAC_INCHIKEY>
KWYYISMVAIHELQ-VSIBQKGVSA-N
> <PUBCHEM_XLOGP3_AA>
4.2
> <PUBCHEM_EXACT_MASS>
526.17400117
> <PUBCHEM_MOLECULAR_FORMULA>
C30H26N2O7
> <PUBCHEM_MOLECULAR_WEIGHT>
526.5
> <PUBCHEM_OPENEYE_CAN_SMILES>
CC1=CC2=C(C=C1C)N=C3C(=CC(=CC3=N2)C4C5C(COC5=O)C(C6=CC7=C(C=C46)OCO7)OC(=O)C)OC
> <PUBCHEM_OPENEYE_ISO_SMILES>
CC1=CC2=C(C=C1C)N=C3C(=CC(=CC3=N2)[C@H]4[C@H]5[C@@H](COC5=O)[C@H](C6=CC7=C(C=C46)OCO7)OC(=O)C)OC
> <PUBCHEM_CACTVS_TPSA>
106
> <PUBCHEM_MONOISOTOPIC_WEIGHT>
526.17400117
> <PUBCHEM_TOTAL_CHARGE>
0
> <PUBCHEM_HEAVY_ATOM_COUNT>
39
> <PUBCHEM_ATOM_DEF_STEREO_COUNT>
4
> <PUBCHEM_ATOM_UDEF_STEREO_COUNT>
0
> <PUBCHEM_BOND_DEF_STEREO_COUNT>
0
> <PUBCHEM_BOND_UDEF_STEREO_COUNT>
0
> <PUBCHEM_ISOTOPIC_ATOM_COUNT>
0
> <PUBCHEM_COMPONENT_COUNT>
1
> <PUBCHEM_CACTVS_TAUTO_COUNT>
-1
> <PUBCHEM_COORDINATE_TYPE>
1
5
255
> <PUBCHEM_BONDANNOTATIONS>
10  40  5
11  41  6
12  18  6
14  16  8
14  19  8
16  20  8
18  23  8
18  24  8
19  21  8
13  2  6
20  22  8
21  22  8
23  25  8
24  26  8
25  28  8
26  28  8
31  32  8
31  33  8
32  35  8
33  36  8
35  37  8
36  37  8
8  25  8
8  31  8
9  28  8
9  32  8
$$$$
