510889
  -OEChem-10302200282D
 51 55  0     1  0  0  0  0  0999 V2000
    5.7960    2.7299    0.0000 O   0  0  0  0  0  0  0  0  0  0  0  0
    2.8660    1.6550    0.0000 O   0  0  0  0  0  0  0  0  0  0  0  0
    7.1796    1.6159    0.0000 O   0  0  0  0  0  0  0  0  0  0  0  0
    3.4982   -2.9265    0.0000 O   0  0  0  0  0  0  0  0  0  0  0  0
    2.0463   -2.0883    0.0000 O   0  0  0  0  0  0  0  0  0  0  0  0
    8.9282    0.1550    0.0000 O   0  0  0  0  0  0  0  0  0  0  0  0
    7.1962   -2.8450    0.0000 O   0  0  0  0  0  0  0  0  0  0  0  0
    3.7320    3.1550    0.0000 O   0  0  0  0  0  0  0  0  0  0  0  0
    8.9282   -1.8450    0.0000 O   0  0  0  0  0  0  0  0  0  0  0  0
    4.5981    1.6550    0.0000 C   0  0  2  0  0  0  0  0  0  0  0  0
    5.4641    1.1550    0.0000 C   0  0  2  0  0  0  0  0  0  0  0  0
    5.4641    0.1550    0.0000 C   0  0  1  0  0  0  0  0  0  0  0  0
    3.7320    1.1550    0.0000 C   0  0  2  0  0  0  0  0  0  0  0  0
    4.5981   -0.3450    0.0000 C   0  0  0  0  0  0  0  0  0  0  0  0
    4.8073    2.6268    0.0000 C   0  0  0  0  0  0  0  0  0  0  0  0
    3.7320    0.1550    0.0000 C   0  0  0  0  0  0  0  0  0  0  0  0
    6.2011    1.8221    0.0000 C   0  0  0  0  0  0  0  0  0  0  0  0
    6.3301   -0.3450    0.0000 C   0  0  0  0  0  0  0  0  0  0  0  0
    4.6141   -1.3865    0.0000 C   0  0  0  0  0  0  0  0  0  0  0  0
    2.8220   -0.3518    0.0000 C   0  0  0  0  0  0  0  0  0  0  0  0
    3.7161   -1.9143    0.0000 C   0  0  0  0  0  0  0  0  0  0  0  0
    2.8140   -1.3934    0.0000 C   0  0  0  0  0  0  0  0  0  0  0  0
    7.1962    0.1550    0.0000 C   0  0  0  0  0  0  0  0  0  0  0  0
    6.3301   -1.3450    0.0000 C   0  0  0  0  0  0  0  0  0  0  0  0
    2.8660    2.6550    0.0000 C   0  0  0  0  0  0  0  0  0  0  0  0
    8.0622   -0.3450    0.0000 C   0  0  0  0  0  0  0  0  0  0  0  0
    7.1962   -1.8450    0.0000 C   0  0  0  0  0  0  0  0  0  0  0  0
    2.4683   -3.0339    0.0000 C   0  0  0  0  0  0  0  0  0  0  0  0
    8.0622   -1.3450    0.0000 C   0  0  0  0  0  0  0  0  0  0  0  0
    2.0000    3.1550    0.0000 C   0  0  0  0  0  0  0  0  0  0  0  0
    8.9282    1.1550    0.0000 C   0  0  0  0  0  0  0  0  0  0  0  0
    3.9111    2.1555    0.0000 H   0  0  0  0  0  0  0  0  0  0  0  0
    6.2411    0.8103    0.0000 H   0  0  0  0  0  0  0  0  0  0  0  0
    5.4641   -0.4650    0.0000 H   0  0  0  0  0  0  0  0  0  0  0  0
    3.7320    1.7750    0.0000 H   0  0  0  0  0  0  0  0  0  0  0  0
    4.8082    3.2468    0.0000 H   0  0  0  0  0  0  0  0  0  0  0  0
    4.1908    2.6929    0.0000 H   0  0  0  0  0  0  0  0  0  0  0  0
    5.1546   -1.6903    0.0000 H   0  0  0  0  0  0  0  0  0  0  0  0
    2.2887   -0.0357    0.0000 H   0  0  0  0  0  0  0  0  0  0  0  0
    7.1962    0.7750    0.0000 H   0  0  0  0  0  0  0  0  0  0  0  0
    5.7932   -1.6550    0.0000 H   0  0  0  0  0  0  0  0  0  0  0  0
    1.8787   -3.2256    0.0000 H   0  0  0  0  0  0  0  0  0  0  0  0
    2.5970   -3.6404    0.0000 H   0  0  0  0  0  0  0  0  0  0  0  0
    2.3100    3.6919    0.0000 H   0  0  0  0  0  0  0  0  0  0  0  0
    1.4631    3.4650    0.0000 H   0  0  0  0  0  0  0  0  0  0  0  0
    1.6900    2.6181    0.0000 H   0  0  0  0  0  0  0  0  0  0  0  0
    7.7331   -3.1550    0.0000 H   0  0  0  0  0  0  0  0  0  0  0  0
    9.4651   -1.5350    0.0000 H   0  0  0  0  0  0  0  0  0  0  0  0
    9.5482    1.1550    0.0000 H   0  0  0  0  0  0  0  0  0  0  0  0
    8.9282    1.7750    0.0000 H   0  0  0  0  0  0  0  0  0  0  0  0
    8.3082    1.1550    0.0000 H   0  0  0  0  0  0  0  0  0  0  0  0
  1 15  1  0  0  0  0
  1 17  1  0  0  0  0
 13  2  1  6  0  0  0
  2 25  1  0  0  0  0
  3 17  2  0  0  0  0
  4 21  1  0  0  0  0
  4 28  1  0  0  0  0
  5 22  1  0  0  0  0
  5 28  1  0  0  0  0
  6 26  1  0  0  0  0
  6 31  1  0  0  0  0
  7 27  1  0  0  0  0
  7 47  1  0  0  0  0
  8 25  2  0  0  0  0
  9 29  1  0  0  0  0
  9 48  1  0  0  0  0
 10 11  1  0  0  0  0
 10 13  1  0  0  0  0
 10 15  1  0  0  0  0
 10 32  1  1  0  0  0
 11 12  1  0  0  0  0
 11 17  1  0  0  0  0
 11 33  1  6  0  0  0
 12 14  1  0  0  0  0
 12 18  1  6  0  0  0
 12 34  1  0  0  0  0
 13 16  1  0  0  0  0
 13 35  1  0  0  0  0
 14 16  1  0  0  0  0
 14 19  2  0  0  0  0
 15 36  1  0  0  0  0
 15 37  1  0  0  0  0
 16 20  2  0  0  0  0
 18 23  1  0  0  0  0
 18 24  2  0  0  0  0
 19 21  1  0  0  0  0
 19 38  1  0  0  0  0
 20 22  1  0  0  0  0
 20 39  1  0  0  0  0
 21 22  2  0  0  0  0
 23 26  2  0  0  0  0
 23 40  1  0  0  0  0
 24 27  1  0  0  0  0
 24 41  1  0  0  0  0
 25 30  1  0  0  0  0
 26 29  1  0  0  0  0
 27 29  2  0  0  0  0
 28 42  1  0  0  0  0
 28 43  1  0  0  0  0
 30 44  1  0  0  0  0
 30 45  1  0  0  0  0
 30 46  1  0  0  0  0
 31 49  1  0  0  0  0
 31 50  1  0  0  0  0
 31 51  1  0  0  0  0
M  END
> <PUBCHEM_COMPOUND_CID>
510889
> <PUBCHEM_COMPOUND_CANONICALIZED>
1
> <PUBCHEM_CACTVS_COMPLEXITY>
713
> <PUBCHEM_CACTVS_HBOND_ACCEPTOR>
9
> <PUBCHEM_CACTVS_HBOND_DONOR>
2
> <PUBCHEM_CACTVS_ROTATABLE_BOND>
4
> <PUBCHEM_CACTVS_SUBSKEYS>
AAADceB4PAAAAAAAAAAAAAAAAAAAASJAAAAwYMAAAAAAAEjBQAAAGgAACAAADRSgmAMyDoAABgCIAiDSCAACCAAgIAAAiAEGiIgdJzKGMRqicCMlwBUPuAfK6PyOoAABCAAQQADAAAYQADCAAAAAAAAAAA==
> <PUBCHEM_IUPAC_OPENEYE_NAME>
[(5R,5aS,8aS,9R)-9-(3,4-dihydroxy-5-methoxy-phenyl)-8-oxo-5a,6,8a,9-tetrahydro-5H-isobenzofuro[5,6-f][1,3]benzodioxol-5-yl] acetate
> <PUBCHEM_IUPAC_CAS_NAME>
acetic acid [(5R,5aS,8aS,9R)-9-(3,4-dihydroxy-5-methoxyphenyl)-8-oxo-5a,6,8a,9-tetrahydro-5H-isobenzofuro[5,6-f][1,3]benzodioxol-5-yl] ester
> <PUBCHEM_IUPAC_NAME_MARKUP>
[(5<I>R</I>,5<I>a</I><I>S</I>,8<I>a</I><I>S</I>,9<I>R</I>)-9-(3,4-dihydroxy-5-methoxyphenyl)-8-oxo-5<I>a</I>,6,8<I>a</I>,9-tetrahydro-5<I>H</I>-[2]benzofuro[5,6-f][1,3]benzodioxol-5-yl] acetate
> <PUBCHEM_IUPAC_NAME>
[(5R,5aS,8aS,9R)-9-(3,4-dihydroxy-5-methoxyphenyl)-8-oxo-5a,6,8a,9-tetrahydro-5H-[2]benzofuro[5,6-f][1,3]benzodioxol-5-yl] acetate
> <PUBCHEM_IUPAC_SYSTEMATIC_NAME>
[(5R,5aS,8aS,9R)-9-[3-methoxy-4,5-bis(oxidanyl)phenyl]-8-oxidanylidene-5a,6,8a,9-tetrahydro-5H-[2]benzofuro[5,6-f][1,3]benzodioxol-5-yl] ethanoate
> <PUBCHEM_IUPAC_TRADITIONAL_NAME>
acetic acid [(5R,5aS,8aS,9R)-9-(3,4-dihydroxy-5-methoxy-phenyl)-8-keto-5a,6,8a,9-tetrahydro-5H-isobenzofuro[5,6-f][1,3]benzodioxol-5-yl] ester
> <PUBCHEM_IUPAC_INCHI>
InChI=1S/C22H20O9/c1-9(23)31-21-12-6-16-15(29-8-30-16)5-11(12)18(19-13(21)7-28-22(19)26)10-3-14(24)20(25)17(4-10)27-2/h3-6,13,18-19,21,24-25H,7-8H2,1-2H3/t13-,18-,19-,21+/m1/s1
> <PUBCHEM_IUPAC_INCHIKEY>
MPZRADIPKZSRGD-UKUXTQECSA-N
> <PUBCHEM_XLOGP3>
1.9
> <PUBCHEM_EXACT_MASS>
428.11073221
> <PUBCHEM_MOLECULAR_FORMULA>
C22H20O9
> <PUBCHEM_MOLECULAR_WEIGHT>
428.4
> <PUBCHEM_OPENEYE_CAN_SMILES>
CC(=O)OC1C2COC(=O)C2C(C3=CC4=C(C=C13)OCO4)C5=CC(=C(C(=C5)OC)O)O
> <PUBCHEM_OPENEYE_ISO_SMILES>
CC(=O)O[C@@H]1[C@@H]2COC(=O)[C@H]2[C@@H](C3=CC4=C(C=C13)OCO4)C5=CC(=C(C(=C5)OC)O)O
> <PUBCHEM_CACTVS_TPSA>
121
> <PUBCHEM_MONOISOTOPIC_WEIGHT>
428.11073221
> <PUBCHEM_TOTAL_CHARGE>
0
> <PUBCHEM_HEAVY_ATOM_COUNT>
31
> <PUBCHEM_ATOM_DEF_STEREO_COUNT>
4
> <PUBCHEM_ATOM_UDEF_STEREO_COUNT>
0
> <PUBCHEM_BOND_DEF_STEREO_COUNT>
0
> <PUBCHEM_BOND_UDEF_STEREO_COUNT>
0
> <PUBCHEM_ISOTOPIC_ATOM_COUNT>
0
> <PUBCHEM_COMPONENT_COUNT>
1
> <PUBCHEM_CACTVS_TAUTO_COUNT>
-1
> <PUBCHEM_COORDINATE_TYPE>
1
5
255
> <PUBCHEM_BONDANNOTATIONS>
10  32  5
11  33  6
12  18  6
14  16  8
14  19  8
16  20  8
18  23  8
18  24  8
19  21  8
13  2  6
20  22  8
21  22  8
23  26  8
24  27  8
26  29  8
27  29  8
$$$$
