510890
  -OEChem-10302200282D
 77 84  0     1  0  0  0  0  0999 V2000
    9.0020   -1.4866    0.0000 O   0  0  0  0  0  0  0  0  0  0  0  0
    8.9943    0.5134    0.0000 O   0  0  0  0  0  0  0  0  0  0  0  0
    5.7960    3.0988    0.0000 O   0  0  0  0  0  0  0  0  0  0  0  0
    2.8660    2.0240    0.0000 O   0  0  0  0  0  0  0  0  0  0  0  0
    7.1796    1.9848    0.0000 O   0  0  0  0  0  0  0  0  0  0  0  0
    7.2576   -2.5279    0.0000 O   0  0  0  0  0  0  0  0  0  0  0  0
    3.4982   -2.5576    0.0000 O   0  0  0  0  0  0  0  0  0  0  0  0
    2.0463   -1.7193    0.0000 O   0  0  0  0  0  0  0  0  0  0  0  0
    3.7320    3.5240    0.0000 O   0  0  0  0  0  0  0  0  0  0  0  0
    9.8700   -1.9832    0.0000 N   0  0  0  0  0  0  0  0  0  0  0  0
    9.8661   -0.9832    0.0000 C   0  0  3  0  0  0  0  0  0  0  0  0
    9.8622    0.0168    0.0000 C   0  0  3  0  0  0  0  0  0  0  0  0
   10.7621   -1.5144    0.0000 C   0  0  0  0  0  0  0  0  0  0  0  0
    5.4641    1.5240    0.0000 C   0  0  2  0  0  0  0  0  0  0  0  0
    4.5981    2.0240    0.0000 C   0  0  2  0  0  0  0  0  0  0  0  0
    5.4641    0.5240    0.0000 C   0  0  1  0  0  0  0  0  0  0  0  0
   10.7541    0.5549    0.0000 C   0  0  0  0  0  0  0  0  0  0  0  0
   11.6662   -0.9971    0.0000 C   0  0  0  0  0  0  0  0  0  0  0  0
   11.6622    0.0445    0.0000 C   0  0  0  0  0  0  0  0  0  0  0  0
    9.0632   -2.5741    0.0000 C   0  0  0  0  0  0  0  0  0  0  0  0
   10.6812   -2.5679    0.0000 C   0  0  0  0  0  0  0  0  0  0  0  0
    3.7320    1.5240    0.0000 C   0  0  2  0  0  0  0  0  0  0  0  0
    4.5981    0.0240    0.0000 C   0  0  0  0  0  0  0  0  0  0  0  0
    9.3759   -3.5240    0.0000 C   0  0  0  0  0  0  0  0  0  0  0  0
   10.3759   -3.5201    0.0000 C   0  0  0  0  0  0  0  0  0  0  0  0
    6.3301    0.0240    0.0000 C   0  0  0  0  0  0  0  0  0  0  0  0
    4.8073    2.9958    0.0000 C   0  0  0  0  0  0  0  0  0  0  0  0
    3.7320    0.5240    0.0000 C   0  0  0  0  0  0  0  0  0  0  0  0
    8.1302    0.0101    0.0000 C   0  0  0  0  0  0  0  0  0  0  0  0
    8.1341   -0.9899    0.0000 C   0  0  0  0  0  0  0  0  0  0  0  0
    6.2011    2.1911    0.0000 C   0  0  0  0  0  0  0  0  0  0  0  0
    7.2342    0.5413    0.0000 C   0  0  0  0  0  0  0  0  0  0  0  0
    6.3341   -1.0176    0.0000 C   0  0  0  0  0  0  0  0  0  0  0  0
    7.2422   -1.5280    0.0000 C   0  0  0  0  0  0  0  0  0  0  0  0
    4.6141   -1.0175    0.0000 C   0  0  0  0  0  0  0  0  0  0  0  0
    2.8220    0.0171    0.0000 C   0  0  0  0  0  0  0  0  0  0  0  0
    3.7161   -1.5453    0.0000 C   0  0  0  0  0  0  0  0  0  0  0  0
    2.8140   -1.0245    0.0000 C   0  0  0  0  0  0  0  0  0  0  0  0
    2.8660    3.0240    0.0000 C   0  0  0  0  0  0  0  0  0  0  0  0
    2.4683   -2.6649    0.0000 C   0  0  0  0  0  0  0  0  0  0  0  0
    6.3994   -3.0412    0.0000 C   0  0  0  0  0  0  0  0  0  0  0  0
    2.0000    3.5240    0.0000 C   0  0  0  0  0  0  0  0  0  0  0  0
    9.8551    0.6367    0.0000 H   0  0  0  0  0  0  0  0  0  0  0  0
   10.3593   -1.9858    0.0000 H   0  0  0  0  0  0  0  0  0  0  0  0
   11.1576   -1.9919    0.0000 H   0  0  0  0  0  0  0  0  0  0  0  0
    6.2411    1.1792    0.0000 H   0  0  0  0  0  0  0  0  0  0  0  0
    3.9111    2.5245    0.0000 H   0  0  0  0  0  0  0  0  0  0  0  0
    5.4641   -0.0960    0.0000 H   0  0  0  0  0  0  0  0  0  0  0  0
   11.1459    1.0354    0.0000 H   0  0  0  0  0  0  0  0  0  0  0  0
   10.3477    1.0231    0.0000 H   0  0  0  0  0  0  0  0  0  0  0  0
   11.8775   -1.5800    0.0000 H   0  0  0  0  0  0  0  0  0  0  0  0
   12.2766   -0.8887    0.0000 H   0  0  0  0  0  0  0  0  0  0  0  0
   12.2734   -0.0592    0.0000 H   0  0  0  0  0  0  0  0  0  0  0  0
   11.8690    0.6290    0.0000 H   0  0  0  0  0  0  0  0  0  0  0  0
    3.7320    2.1440    0.0000 H   0  0  0  0  0  0  0  0  0  0  0  0
    8.7511   -2.0384    0.0000 H   0  0  0  0  0  0  0  0  0  0  0  0
    8.4978   -2.8285    0.0000 H   0  0  0  0  0  0  0  0  0  0  0  0
   11.2486   -2.8179    0.0000 H   0  0  0  0  0  0  0  0  0  0  0  0
   10.9892   -2.0298    0.0000 H   0  0  0  0  0  0  0  0  0  0  0  0
    8.7699   -3.6552    0.0000 H   0  0  0  0  0  0  0  0  0  0  0  0
    9.4431   -4.1403    0.0000 H   0  0  0  0  0  0  0  0  0  0  0  0
   10.3134   -4.1370    0.0000 H   0  0  0  0  0  0  0  0  0  0  0  0
   10.9828   -3.6467    0.0000 H   0  0  0  0  0  0  0  0  0  0  0  0
    4.8082    3.6158    0.0000 H   0  0  0  0  0  0  0  0  0  0  0  0
    4.1908    3.0618    0.0000 H   0  0  0  0  0  0  0  0  0  0  0  0
    7.2390    1.1613    0.0000 H   0  0  0  0  0  0  0  0  0  0  0  0
    5.7996   -1.3318    0.0000 H   0  0  0  0  0  0  0  0  0  0  0  0
    5.1546   -1.3213    0.0000 H   0  0  0  0  0  0  0  0  0  0  0  0
    2.2887    0.3333    0.0000 H   0  0  0  0  0  0  0  0  0  0  0  0
    1.8787   -2.8567    0.0000 H   0  0  0  0  0  0  0  0  0  0  0  0
    2.5970   -3.2714    0.0000 H   0  0  0  0  0  0  0  0  0  0  0  0
    6.0812   -2.5091    0.0000 H   0  0  0  0  0  0  0  0  0  0  0  0
    5.8673   -3.3594    0.0000 H   0  0  0  0  0  0  0  0  0  0  0  0
    6.7176   -3.5733    0.0000 H   0  0  0  0  0  0  0  0  0  0  0  0
    2.3100    4.0609    0.0000 H   0  0  0  0  0  0  0  0  0  0  0  0
    1.4631    3.8340    0.0000 H   0  0  0  0  0  0  0  0  0  0  0  0
    1.6900    2.9870    0.0000 H   0  0  0  0  0  0  0  0  0  0  0  0
  1 11  1  0  0  0  0
  1 30  1  0  0  0  0
  2 12  1  0  0  0  0
  2 29  1  0  0  0  0
  3 27  1  0  0  0  0
  3 31  1  0  0  0  0
 22  4  1  6  0  0  0
  4 39  1  0  0  0  0
  5 31  2  0  0  0  0
  6 34  1  0  0  0  0
  6 41  1  0  0  0  0
  7 37  1  0  0  0  0
  7 40  1  0  0  0  0
  8 38  1  0  0  0  0
  8 40  1  0  0  0  0
  9 39  2  0  0  0  0
 10 11  1  0  0  0  0
 10 20  1  0  0  0  0
 10 21  1  0  0  0  0
 11 12  1  0  0  0  0
 11 13  1  0  0  0  0
 12 17  1  0  0  0  0
 12 43  1  0  0  0  0
 13 18  1  0  0  0  0
 13 44  1  0  0  0  0
 13 45  1  0  0  0  0
 14 15  1  0  0  0  0
 14 16  1  0  0  0  0
 14 31  1  0  0  0  0
 14 46  1  6  0  0  0
 15 22  1  0  0  0  0
 15 27  1  0  0  0  0
 15 47  1  1  0  0  0
 16 23  1  0  0  0  0
 16 26  1  6  0  0  0
 16 48  1  0  0  0  0
 17 19  1  0  0  0  0
 17 49  1  0  0  0  0
 17 50  1  0  0  0  0
 18 19  1  0  0  0  0
 18 51  1  0  0  0  0
 18 52  1  0  0  0  0
 19 53  1  0  0  0  0
 19 54  1  0  0  0  0
 20 24  1  0  0  0  0
 20 56  1  0  0  0  0
 20 57  1  0  0  0  0
 21 25  1  0  0  0  0
 21 58  1  0  0  0  0
 21 59  1  0  0  0  0
 22 28  1  0  0  0  0
 22 55  1  0  0  0  0
 23 28  1  0  0  0  0
 23 35  2  0  0  0  0
 24 25  1  0  0  0  0
 24 60  1  0  0  0  0
 24 61  1  0  0  0  0
 25 62  1  0  0  0  0
 25 63  1  0  0  0  0
 26 32  2  0  0  0  0
 26 33  1  0  0  0  0
 27 64  1  0  0  0  0
 27 65  1  0  0  0  0
 28 36  2  0  0  0  0
 29 30  2  0  0  0  0
 29 32  1  0  0  0  0
 30 34  1  0  0  0  0
 32 66  1  0  0  0  0
 33 34  2  0  0  0  0
 33 67  1  0  0  0  0
 35 37  1  0  0  0  0
 35 68  1  0  0  0  0
 36 38  1  0  0  0  0
 36 69  1  0  0  0  0
 37 38  2  0  0  0  0
 39 42  1  0  0  0  0
 40 70  1  0  0  0  0
 40 71  1  0  0  0  0
 41 72  1  0  0  0  0
 41 73  1  0  0  0  0
 41 74  1  0  0  0  0
 42 75  1  0  0  0  0
 42 76  1  0  0  0  0
 42 77  1  0  0  0  0
M  END
> <PUBCHEM_COMPOUND_CID>
510890
> <PUBCHEM_COMPOUND_CANONICALIZED>
1
> <PUBCHEM_CACTVS_COMPLEXITY>
1050
> <PUBCHEM_CACTVS_HBOND_ACCEPTOR>
10
> <PUBCHEM_CACTVS_HBOND_DONOR>
0
> <PUBCHEM_CACTVS_ROTATABLE_BOND>
5
> <PUBCHEM_CACTVS_SUBSKEYS>
AAADcfB+PAAAAAAAAAAAAAAAAAAAAWJEgAA0YMGCAAAAAEjRQAAAHgAAAAAADRzhmAcyDoMABACIAiDSCAACCAAgIAAAiAEOiIgfJzKEsRqvOCKlwBWeqAfa6PyOoAABCAAQQADAAAYQADCgAAAAAAAAAA==
> <PUBCHEM_IUPAC_OPENEYE_NAME>
[(5R,5aS,8aS,9R)-9-(4-methoxy-5a-pyrrolidin-1-yl-7,8,9,9a-tetrahydro-6H-dibenzo-p-dioxin-2-yl)-8-oxo-5a,6,8a,9-tetrahydro-5H-isobenzofuro[5,6-f][1,3]benzodioxol-5-yl] acetate
> <PUBCHEM_IUPAC_CAS_NAME>
acetic acid [(5R,5aS,8aS,9R)-9-[4-methoxy-5a-(1-pyrrolidinyl)-7,8,9,9a-tetrahydro-6H-dibenzo-p-dioxin-2-yl]-8-oxo-5a,6,8a,9-tetrahydro-5H-isobenzofuro[5,6-f][1,3]benzodioxol-5-yl] ester
> <PUBCHEM_IUPAC_NAME_MARKUP>
[(5<I>R</I>,5<I>a</I><I>S</I>,8<I>a</I><I>S</I>,9<I>R</I>)-9-(4-methoxy-5<I>a</I>-pyrrolidin-1-yl-7,8,9,9<I>a</I>-tetrahydro-6<I>H</I>-dibenzo-p-dioxin-2-yl)-8-oxo-5<I>a</I>,6,8<I>a</I>,9-tetrahydro-5<I>H</I>-[2]benzofuro[5,6-f][1,3]benzodioxol-5-yl] acetate
> <PUBCHEM_IUPAC_NAME>
[(5R,5aS,8aS,9R)-9-(4-methoxy-5a-pyrrolidin-1-yl-7,8,9,9a-tetrahydro-6H-dibenzo-p-dioxin-2-yl)-8-oxo-5a,6,8a,9-tetrahydro-5H-[2]benzofuro[5,6-f][1,3]benzodioxol-5-yl] acetate
> <PUBCHEM_IUPAC_SYSTEMATIC_NAME>
[(5R,5aS,8aS,9R)-9-(4-methoxy-5a-pyrrolidin-1-yl-7,8,9,9a-tetrahydro-6H-dibenzo-p-dioxin-2-yl)-8-oxidanylidene-5a,6,8a,9-tetrahydro-5H-[2]benzofuro[5,6-f][1,3]benzodioxol-5-yl] ethanoate
> <PUBCHEM_IUPAC_TRADITIONAL_NAME>
acetic acid [(5R,5aS,8aS,9R)-8-keto-9-(4-methoxy-5a-pyrrolidino-7,8,9,9a-tetrahydro-6H-dibenzo-p-dioxin-2-yl)-5a,6,8a,9-tetrahydro-5H-isobenzofuro[5,6-f][1,3]benzodioxol-5-yl] ester
> <PUBCHEM_IUPAC_INCHI>
InChI=1S/C32H35NO9/c1-17(34)40-29-20-14-23-22(38-16-39-23)13-19(20)27(28-21(29)15-37-31(28)35)18-11-24(36-2)30-25(12-18)41-26-7-3-4-8-32(26,42-30)33-9-5-6-10-33/h11-14,21,26-29H,3-10,15-16H2,1-2H3/t21-,26?,27-,28-,29+,32?/m1/s1
> <PUBCHEM_IUPAC_INCHIKEY>
ALCDKYXWPSYMAW-BYQCITGZSA-N
> <PUBCHEM_XLOGP3_AA>
4.3
> <PUBCHEM_EXACT_MASS>
577.23118169
> <PUBCHEM_MOLECULAR_FORMULA>
C32H35NO9
> <PUBCHEM_MOLECULAR_WEIGHT>
577.6
> <PUBCHEM_OPENEYE_CAN_SMILES>
CC(=O)OC1C2COC(=O)C2C(C3=CC4=C(C=C13)OCO4)C5=CC6=C(C(=C5)OC)OC7(CCCCC7O6)N8CCCC8
> <PUBCHEM_OPENEYE_ISO_SMILES>
CC(=O)O[C@@H]1[C@@H]2COC(=O)[C@H]2[C@@H](C3=CC4=C(C=C13)OCO4)C5=CC6=C(C(=C5)OC)OC7(CCCCC7O6)N8CCCC8
> <PUBCHEM_CACTVS_TPSA>
102
> <PUBCHEM_MONOISOTOPIC_WEIGHT>
577.23118169
> <PUBCHEM_TOTAL_CHARGE>
0
> <PUBCHEM_HEAVY_ATOM_COUNT>
42
> <PUBCHEM_ATOM_DEF_STEREO_COUNT>
4
> <PUBCHEM_ATOM_UDEF_STEREO_COUNT>
2
> <PUBCHEM_BOND_DEF_STEREO_COUNT>
0
> <PUBCHEM_BOND_UDEF_STEREO_COUNT>
0
> <PUBCHEM_ISOTOPIC_ATOM_COUNT>
0
> <PUBCHEM_COMPONENT_COUNT>
1
> <PUBCHEM_CACTVS_TAUTO_COUNT>
-1
> <PUBCHEM_COORDINATE_TYPE>
1
5
255
> <PUBCHEM_BONDANNOTATIONS>
11  10  3
12  17  3
14  46  6
15  47  5
16  26  6
23  28  8
23  35  8
26  32  8
26  33  8
28  36  8
29  30  8
29  32  8
30  34  8
33  34  8
35  37  8
36  38  8
37  38  8
22  4  6
$$$$
