510899
  -OEChem-10302200282D
 54 58  0     1  0  0  0  0  0999 V2000
    5.7960    2.8249    0.0000 O   0  0  0  0  0  0  0  0  0  0  0  0
    2.8660    1.7500    0.0000 O   0  0  0  0  0  0  0  0  0  0  0  0
    7.1796    1.7109    0.0000 O   0  0  0  0  0  0  0  0  0  0  0  0
    3.4982   -2.8315    0.0000 O   0  0  0  0  0  0  0  0  0  0  0  0
    2.0463   -1.9933    0.0000 O   0  0  0  0  0  0  0  0  0  0  0  0
    8.9282    0.2500    0.0000 O   0  0  0  0  0  0  0  0  0  0  0  0
    7.1962   -2.7500    0.0000 O   0  0  0  0  0  0  0  0  0  0  0  0
    3.7320    3.2500    0.0000 O   0  0  0  0  0  0  0  0  0  0  0  0
    8.9282   -1.7500    0.0000 O   0  0  0  0  0  0  0  0  0  0  0  0
    4.5981    1.7500    0.0000 C   0  0  2  0  0  0  0  0  0  0  0  0
    5.4641    1.2500    0.0000 C   0  0  1  0  0  0  0  0  0  0  0  0
    5.4641    0.2500    0.0000 C   0  0  1  0  0  0  0  0  0  0  0  0
    3.7320    1.2500    0.0000 C   0  0  2  0  0  0  0  0  0  0  0  0
    4.5981   -0.2500    0.0000 C   0  0  0  0  0  0  0  0  0  0  0  0
    4.8073    2.7218    0.0000 C   0  0  0  0  0  0  0  0  0  0  0  0
    3.7320    0.2500    0.0000 C   0  0  0  0  0  0  0  0  0  0  0  0
    6.2011    1.9171    0.0000 C   0  0  0  0  0  0  0  0  0  0  0  0
    6.3301   -0.2500    0.0000 C   0  0  0  0  0  0  0  0  0  0  0  0
    4.6141   -1.2915    0.0000 C   0  0  0  0  0  0  0  0  0  0  0  0
    2.8220   -0.2568    0.0000 C   0  0  0  0  0  0  0  0  0  0  0  0
    3.7161   -1.8193    0.0000 C   0  0  0  0  0  0  0  0  0  0  0  0
    2.8140   -1.2985    0.0000 C   0  0  0  0  0  0  0  0  0  0  0  0
    6.3301   -1.2500    0.0000 C   0  0  0  0  0  0  0  0  0  0  0  0
    7.1962    0.2500    0.0000 C   0  0  0  0  0  0  0  0  0  0  0  0
    2.8660    2.7500    0.0000 C   0  0  0  0  0  0  0  0  0  0  0  0
    8.0622   -0.2500    0.0000 C   0  0  0  0  0  0  0  0  0  0  0  0
    7.1962   -1.7500    0.0000 C   0  0  0  0  0  0  0  0  0  0  0  0
    2.4683   -2.9389    0.0000 C   0  0  0  0  0  0  0  0  0  0  0  0
    8.0622   -1.2500    0.0000 C   0  0  0  0  0  0  0  0  0  0  0  0
    2.0000    3.2500    0.0000 C   0  0  0  0  0  0  0  0  0  0  0  0
    8.9282    1.2500    0.0000 C   0  0  0  0  0  0  0  0  0  0  0  0
    8.0622   -3.2500    0.0000 C   0  0  0  0  0  0  0  0  0  0  0  0
    3.9111    2.2505    0.0000 H   0  0  0  0  0  0  0  0  0  0  0  0
    6.2411    0.9053    0.0000 H   0  0  0  0  0  0  0  0  0  0  0  0
    5.4641   -0.3700    0.0000 H   0  0  0  0  0  0  0  0  0  0  0  0
    3.7320    1.8700    0.0000 H   0  0  0  0  0  0  0  0  0  0  0  0
    4.8082    3.3418    0.0000 H   0  0  0  0  0  0  0  0  0  0  0  0
    4.1908    2.7879    0.0000 H   0  0  0  0  0  0  0  0  0  0  0  0
    5.1546   -1.5953    0.0000 H   0  0  0  0  0  0  0  0  0  0  0  0
    2.2887    0.0593    0.0000 H   0  0  0  0  0  0  0  0  0  0  0  0
    5.7932   -1.5600    0.0000 H   0  0  0  0  0  0  0  0  0  0  0  0
    7.1962    0.8700    0.0000 H   0  0  0  0  0  0  0  0  0  0  0  0
    1.8787   -3.1306    0.0000 H   0  0  0  0  0  0  0  0  0  0  0  0
    2.5970   -3.5454    0.0000 H   0  0  0  0  0  0  0  0  0  0  0  0
    2.3100    3.7869    0.0000 H   0  0  0  0  0  0  0  0  0  0  0  0
    1.4631    3.5600    0.0000 H   0  0  0  0  0  0  0  0  0  0  0  0
    1.6900    2.7131    0.0000 H   0  0  0  0  0  0  0  0  0  0  0  0
    9.4651   -1.4400    0.0000 H   0  0  0  0  0  0  0  0  0  0  0  0
    9.5482    1.2500    0.0000 H   0  0  0  0  0  0  0  0  0  0  0  0
    8.9282    1.8700    0.0000 H   0  0  0  0  0  0  0  0  0  0  0  0
    8.3082    1.2500    0.0000 H   0  0  0  0  0  0  0  0  0  0  0  0
    7.7522   -3.7869    0.0000 H   0  0  0  0  0  0  0  0  0  0  0  0
    8.5991   -3.5600    0.0000 H   0  0  0  0  0  0  0  0  0  0  0  0
    8.3722   -2.7131    0.0000 H   0  0  0  0  0  0  0  0  0  0  0  0
  1 15  1  0  0  0  0
  1 17  1  0  0  0  0
 13  2  1  6  0  0  0
  2 25  1  0  0  0  0
  3 17  2  0  0  0  0
  4 21  1  0  0  0  0
  4 28  1  0  0  0  0
  5 22  1  0  0  0  0
  5 28  1  0  0  0  0
  6 26  1  0  0  0  0
  6 31  1  0  0  0  0
  7 27  1  0  0  0  0
  7 32  1  0  0  0  0
  8 25  2  0  0  0  0
  9 29  1  0  0  0  0
  9 48  1  0  0  0  0
 10 11  1  0  0  0  0
 10 13  1  0  0  0  0
 10 15  1  0  0  0  0
 10 33  1  1  0  0  0
 11 12  1  0  0  0  0
 11 17  1  0  0  0  0
 11 34  1  1  0  0  0
 12 14  1  0  0  0  0
 12 18  1  6  0  0  0
 12 35  1  0  0  0  0
 13 16  1  0  0  0  0
 13 36  1  0  0  0  0
 14 16  1  0  0  0  0
 14 19  2  0  0  0  0
 15 37  1  0  0  0  0
 15 38  1  0  0  0  0
 16 20  2  0  0  0  0
 18 23  2  0  0  0  0
 18 24  1  0  0  0  0
 19 21  1  0  0  0  0
 19 39  1  0  0  0  0
 20 22  1  0  0  0  0
 20 40  1  0  0  0  0
 21 22  2  0  0  0  0
 23 27  1  0  0  0  0
 23 41  1  0  0  0  0
 24 26  2  0  0  0  0
 24 42  1  0  0  0  0
 25 30  1  0  0  0  0
 26 29  1  0  0  0  0
 27 29  2  0  0  0  0
 28 43  1  0  0  0  0
 28 44  1  0  0  0  0
 30 45  1  0  0  0  0
 30 46  1  0  0  0  0
 30 47  1  0  0  0  0
 31 49  1  0  0  0  0
 31 50  1  0  0  0  0
 31 51  1  0  0  0  0
 32 52  1  0  0  0  0
 32 53  1  0  0  0  0
 32 54  1  0  0  0  0
M  END
> <PUBCHEM_COMPOUND_CID>
510899
> <PUBCHEM_COMPOUND_CANONICALIZED>
1
> <PUBCHEM_CACTVS_COMPLEXITY>
714
> <PUBCHEM_CACTVS_HBOND_ACCEPTOR>
9
> <PUBCHEM_CACTVS_HBOND_DONOR>
1
> <PUBCHEM_CACTVS_ROTATABLE_BOND>
5
> <PUBCHEM_CACTVS_SUBSKEYS>
AAADceB4PAAAAAAAAAAAAAAAAAAAASJAAAAwYMAAAAAAAEjBQAAAGgAACAAADRSgmAMyDoAABgCIAiDSCAACCAAgIAAAiAEGiIgdJzKGMRqicCMlwBUPuAfK6PyOoAABCAAQQADAAAYQADCAAAAAAAAAAA==
> <PUBCHEM_IUPAC_OPENEYE_NAME>
[(5R,5aS,8aR,9R)-9-(4-hydroxy-3,5-dimethoxy-phenyl)-8-oxo-5a,6,8a,9-tetrahydro-5H-isobenzofuro[5,6-f][1,3]benzodioxol-5-yl] acetate
> <PUBCHEM_IUPAC_CAS_NAME>
acetic acid [(5R,5aS,8aR,9R)-9-(4-hydroxy-3,5-dimethoxyphenyl)-8-oxo-5a,6,8a,9-tetrahydro-5H-isobenzofuro[5,6-f][1,3]benzodioxol-5-yl] ester
> <PUBCHEM_IUPAC_NAME_MARKUP>
[(5<I>R</I>,5<I>a</I><I>S</I>,8<I>a</I><I>R</I>,9<I>R</I>)-9-(4-hydroxy-3,5-dimethoxyphenyl)-8-oxo-5<I>a</I>,6,8<I>a</I>,9-tetrahydro-5<I>H</I>-[2]benzofuro[5,6-f][1,3]benzodioxol-5-yl] acetate
> <PUBCHEM_IUPAC_NAME>
[(5R,5aS,8aR,9R)-9-(4-hydroxy-3,5-dimethoxyphenyl)-8-oxo-5a,6,8a,9-tetrahydro-5H-[2]benzofuro[5,6-f][1,3]benzodioxol-5-yl] acetate
> <PUBCHEM_IUPAC_SYSTEMATIC_NAME>
[(5R,5aS,8aR,9R)-9-(3,5-dimethoxy-4-oxidanyl-phenyl)-8-oxidanylidene-5a,6,8a,9-tetrahydro-5H-[2]benzofuro[5,6-f][1,3]benzodioxol-5-yl] ethanoate
> <PUBCHEM_IUPAC_TRADITIONAL_NAME>
acetic acid [(5R,5aS,8aR,9R)-9-(4-hydroxy-3,5-dimethoxy-phenyl)-8-keto-5a,6,8a,9-tetrahydro-5H-isobenzofuro[5,6-f][1,3]benzodioxol-5-yl] ester
> <PUBCHEM_IUPAC_INCHI>
InChI=1S/C23H22O9/c1-10(24)32-22-13-7-16-15(30-9-31-16)6-12(13)19(20-14(22)8-29-23(20)26)11-4-17(27-2)21(25)18(5-11)28-3/h4-7,14,19-20,22,25H,8-9H2,1-3H3/t14-,19-,20+,22+/m1/s1
> <PUBCHEM_IUPAC_INCHIKEY>
PWIGCQZTBQTLAT-QXHRYPSCSA-N
> <PUBCHEM_XLOGP3>
2.3
> <PUBCHEM_EXACT_MASS>
442.12638228
> <PUBCHEM_MOLECULAR_FORMULA>
C23H22O9
> <PUBCHEM_MOLECULAR_WEIGHT>
442.4
> <PUBCHEM_OPENEYE_CAN_SMILES>
CC(=O)OC1C2COC(=O)C2C(C3=CC4=C(C=C13)OCO4)C5=CC(=C(C(=C5)OC)O)OC
> <PUBCHEM_OPENEYE_ISO_SMILES>
CC(=O)O[C@@H]1[C@@H]2COC(=O)[C@@H]2[C@@H](C3=CC4=C(C=C13)OCO4)C5=CC(=C(C(=C5)OC)O)OC
> <PUBCHEM_CACTVS_TPSA>
110
> <PUBCHEM_MONOISOTOPIC_WEIGHT>
442.12638228
> <PUBCHEM_TOTAL_CHARGE>
0
> <PUBCHEM_HEAVY_ATOM_COUNT>
32
> <PUBCHEM_ATOM_DEF_STEREO_COUNT>
4
> <PUBCHEM_ATOM_UDEF_STEREO_COUNT>
0
> <PUBCHEM_BOND_DEF_STEREO_COUNT>
0
> <PUBCHEM_BOND_UDEF_STEREO_COUNT>
0
> <PUBCHEM_ISOTOPIC_ATOM_COUNT>
0
> <PUBCHEM_COMPONENT_COUNT>
1
> <PUBCHEM_CACTVS_TAUTO_COUNT>
-1
> <PUBCHEM_COORDINATE_TYPE>
1
5
255
> <PUBCHEM_BONDANNOTATIONS>
10  33  5
11  34  5
12  18  6
14  16  8
14  19  8
16  20  8
18  23  8
18  24  8
19  21  8
13  2  6
20  22  8
21  22  8
23  27  8
24  26  8
26  29  8
27  29  8
$$$$
