510895
  -OEChem-10302200282D
124136  0     1  0  0  0  0  0999 V2000
    4.3381    6.6721    0.0000 O   0  0  0  0  0  0  0  0  0  0  0  0
    4.3329   16.3400    0.0000 O   0  0  0  0  0  0  0  0  0  0  0  0
    1.4081    5.5972    0.0000 O   0  0  0  0  0  0  0  0  0  0  0  0
    1.4030   15.2652    0.0000 O   0  0  0  0  0  0  0  0  0  0  0  0
    5.7217    5.5581    0.0000 O   0  0  0  0  0  0  0  0  0  0  0  0
    5.7166   15.2260    0.0000 O   0  0  0  0  0  0  0  0  0  0  0  0
    2.0403    1.0157    0.0000 O   0  0  0  0  0  0  0  0  0  0  0  0
    2.0351   10.6836    0.0000 O   0  0  0  0  0  0  0  0  0  0  0  0
    0.5884    1.8539    0.0000 O   0  0  0  0  0  0  0  0  0  0  0  0
    0.5833   11.5219    0.0000 O   0  0  0  0  0  0  0  0  0  0  0  0
    5.7997    1.0454    0.0000 O   0  0  0  0  0  0  0  0  0  0  0  0
    5.7945   10.7133    0.0000 O   0  0  0  0  0  0  0  0  0  0  0  0
    2.2741    7.0972    0.0000 O   0  0  0  0  0  0  0  0  0  0  0  0
    2.2690   16.7652    0.0000 O   0  0  0  0  0  0  0  0  0  0  0  0
    7.5364    4.0867    0.0000 N   0  0  0  0  0  0  0  0  0  0  0  0
    7.5312   13.7546    0.0000 N   0  0  0  0  0  0  0  0  0  0  0  0
    7.5389   11.7546    0.0000 N   0  0  0  0  0  0  0  0  0  0  0  0
    7.5441    2.0867    0.0000 N   0  0  0  0  0  0  0  0  0  0  0  0
    3.1402    5.5972    0.0000 C   0  0  2  0  0  0  0  0  0  0  0  0
    3.1350   15.2652    0.0000 C   0  0  2  0  0  0  0  0  0  0  0  0
    4.0062    5.0972    0.0000 C   0  0  2  0  0  0  0  0  0  0  0  0
    4.0010   14.7652    0.0000 C   0  0  2  0  0  0  0  0  0  0  0  0
    4.0062    4.0972    0.0000 C   0  0  1  0  0  0  0  0  0  0  0  0
    4.0010   13.7652    0.0000 C   0  0  1  0  0  0  0  0  0  0  0  0
    2.2741    5.0972    0.0000 C   0  0  2  0  0  0  0  0  0  0  0  0
    2.2690   14.7652    0.0000 C   0  0  2  0  0  0  0  0  0  0  0  0
    3.1402    3.5972    0.0000 C   0  0  0  0  0  0  0  0  0  0  0  0
    3.1350   13.2652    0.0000 C   0  0  0  0  0  0  0  0  0  0  0  0
    3.3494    6.5691    0.0000 C   0  0  0  0  0  0  0  0  0  0  0  0
    3.3442   16.2370    0.0000 C   0  0  0  0  0  0  0  0  0  0  0  0
    2.2741    4.0972    0.0000 C   0  0  0  0  0  0  0  0  0  0  0  0
    2.2690   13.7652    0.0000 C   0  0  0  0  0  0  0  0  0  0  0  0
    4.7432    5.7643    0.0000 C   0  0  0  0  0  0  0  0  0  0  0  0
    4.7380   15.4323    0.0000 C   0  0  0  0  0  0  0  0  0  0  0  0
    4.8722    3.5972    0.0000 C   0  0  0  0  0  0  0  0  0  0  0  0
    4.8671   13.2652    0.0000 C   0  0  0  0  0  0  0  0  0  0  0  0
    3.1562    2.5557    0.0000 C   0  0  0  0  0  0  0  0  0  0  0  0
    3.1511   12.2237    0.0000 C   0  0  0  0  0  0  0  0  0  0  0  0
    1.3641    3.5904    0.0000 C   0  0  0  0  0  0  0  0  0  0  0  0
    1.3590   13.2583    0.0000 C   0  0  0  0  0  0  0  0  0  0  0  0
    2.2582    2.0280    0.0000 C   0  0  0  0  0  0  0  0  0  0  0  0
    2.2530   11.6959    0.0000 C   0  0  0  0  0  0  0  0  0  0  0  0
    1.3561    2.5488    0.0000 C   0  0  0  0  0  0  0  0  0  0  0  0
    1.3510   12.2167    0.0000 C   0  0  0  0  0  0  0  0  0  0  0  0
    5.7763    4.1146    0.0000 C   0  0  0  0  0  0  0  0  0  0  0  0
    5.7711   13.7825    0.0000 C   0  0  0  0  0  0  0  0  0  0  0  0
    4.8762    2.5556    0.0000 C   0  0  0  0  0  0  0  0  0  0  0  0
    4.8711   12.2235    0.0000 C   0  0  0  0  0  0  0  0  0  0  0  0
    6.6723    3.5834    0.0000 C   0  0  0  0  0  0  0  0  0  0  0  0
    6.6671   13.2513    0.0000 C   0  0  0  0  0  0  0  0  0  0  0  0
    1.4081    6.5972    0.0000 C   0  0  0  0  0  0  0  0  0  0  0  0
    1.4030   16.2652    0.0000 C   0  0  0  0  0  0  0  0  0  0  0  0
    5.7843    2.0453    0.0000 C   0  0  0  0  0  0  0  0  0  0  0  0
    5.7791   11.7132    0.0000 C   0  0  0  0  0  0  0  0  0  0  0  0
    6.6710   12.2513    0.0000 C   0  0  0  0  0  0  0  0  0  0  0  0
    6.6761    2.5834    0.0000 C   0  0  0  0  0  0  0  0  0  0  0  0
    1.0104    0.9084    0.0000 C   0  0  0  0  0  0  0  0  0  0  0  0
    1.0052   10.5763    0.0000 C   0  0  0  0  0  0  0  0  0  0  0  0
    0.5421    7.0972    0.0000 C   0  0  0  0  0  0  0  0  0  0  0  0
    0.5369   16.7652    0.0000 C   0  0  0  0  0  0  0  0  0  0  0  0
    8.4043    3.5900    0.0000 C   0  0  0  0  0  0  0  0  0  0  0  0
    8.3992   13.2580    0.0000 C   0  0  0  0  0  0  0  0  0  0  0  0
    8.4030   12.2580    0.0000 C   0  0  0  0  0  0  0  0  0  0  0  0
    8.4082    2.5901    0.0000 C   0  0  0  0  0  0  0  0  0  0  0  0
    4.9415    0.5321    0.0000 C   0  0  0  0  0  0  0  0  0  0  0  0
    4.9363   10.2000    0.0000 C   0  0  0  0  0  0  0  0  0  0  0  0
    9.2962    4.1281    0.0000 C   0  0  0  0  0  0  0  0  0  0  0  0
    9.2910   13.7961    0.0000 C   0  0  0  0  0  0  0  0  0  0  0  0
    9.2990   11.7268    0.0000 C   0  0  0  0  0  0  0  0  0  0  0  0
    9.3042    2.0588    0.0000 C   0  0  0  0  0  0  0  0  0  0  0  0
   10.2042    3.6178    0.0000 C   0  0  0  0  0  0  0  0  0  0  0  0
   10.2031   12.2441    0.0000 C   0  0  0  0  0  0  0  0  0  0  0  0
   10.1991   13.2857    0.0000 C   0  0  0  0  0  0  0  0  0  0  0  0
   10.2083    2.5762    0.0000 C   0  0  0  0  0  0  0  0  0  0  0  0
   11.0664    4.1245    0.0000 C   0  0  0  0  0  0  0  0  0  0  0  0
   11.0691   11.7441    0.0000 C   0  0  0  0  0  0  0  0  0  0  0  0
    2.4532    6.0977    0.0000 H   0  0  0  0  0  0  0  0  0  0  0  0
    2.4480   15.7657    0.0000 H   0  0  0  0  0  0  0  0  0  0  0  0
    4.7832    4.7525    0.0000 H   0  0  0  0  0  0  0  0  0  0  0  0
    4.7780   14.4205    0.0000 H   0  0  0  0  0  0  0  0  0  0  0  0
    4.0062    3.4772    0.0000 H   0  0  0  0  0  0  0  0  0  0  0  0
    4.5380   14.0752    0.0000 H   0  0  0  0  0  0  0  0  0  0  0  0
    2.2741    5.7172    0.0000 H   0  0  0  0  0  0  0  0  0  0  0  0
    1.7320   14.4552    0.0000 H   0  0  0  0  0  0  0  0  0  0  0  0
    3.3503    7.1890    0.0000 H   0  0  0  0  0  0  0  0  0  0  0  0
    2.7329    6.6351    0.0000 H   0  0  0  0  0  0  0  0  0  0  0  0
    3.3451   16.8570    0.0000 H   0  0  0  0  0  0  0  0  0  0  0  0
    2.7277   16.3030    0.0000 H   0  0  0  0  0  0  0  0  0  0  0  0
    3.6967    2.2520    0.0000 H   0  0  0  0  0  0  0  0  0  0  0  0
    3.6916   11.9199    0.0000 H   0  0  0  0  0  0  0  0  0  0  0  0
    0.8308    3.9066    0.0000 H   0  0  0  0  0  0  0  0  0  0  0  0
    0.8257   13.5745    0.0000 H   0  0  0  0  0  0  0  0  0  0  0  0
    5.7811    4.7346    0.0000 H   0  0  0  0  0  0  0  0  0  0  0  0
    5.7759   14.4025    0.0000 H   0  0  0  0  0  0  0  0  0  0  0  0
    4.3417    2.2415    0.0000 H   0  0  0  0  0  0  0  0  0  0  0  0
    4.3366   11.9094    0.0000 H   0  0  0  0  0  0  0  0  0  0  0  0
    0.4208    0.7166    0.0000 H   0  0  0  0  0  0  0  0  0  0  0  0
    1.1391    0.3019    0.0000 H   0  0  0  0  0  0  0  0  0  0  0  0
    0.4156   10.3845    0.0000 H   0  0  0  0  0  0  0  0  0  0  0  0
    1.1340    9.9698    0.0000 H   0  0  0  0  0  0  0  0  0  0  0  0
    0.8521    7.6342    0.0000 H   0  0  0  0  0  0  0  0  0  0  0  0
    0.0052    7.4072    0.0000 H   0  0  0  0  0  0  0  0  0  0  0  0
    0.2321    6.5603    0.0000 H   0  0  0  0  0  0  0  0  0  0  0  0
    0.8469   17.3021    0.0000 H   0  0  0  0  0  0  0  0  0  0  0  0
    0.0000   17.0752    0.0000 H   0  0  0  0  0  0  0  0  0  0  0  0
    0.2269   16.2282    0.0000 H   0  0  0  0  0  0  0  0  0  0  0  0
    4.6232    1.0642    0.0000 H   0  0  0  0  0  0  0  0  0  0  0  0
    4.4094    0.2139    0.0000 H   0  0  0  0  0  0  0  0  0  0  0  0
    5.2597    0.0000    0.0000 H   0  0  0  0  0  0  0  0  0  0  0  0
    4.6181   10.7321    0.0000 H   0  0  0  0  0  0  0  0  0  0  0  0
    4.4042    9.8818    0.0000 H   0  0  0  0  0  0  0  0  0  0  0  0
    5.2546    9.6679    0.0000 H   0  0  0  0  0  0  0  0  0  0  0  0
    9.2866    4.7481    0.0000 H   0  0  0  0  0  0  0  0  0  0  0  0
    9.2815   14.4160    0.0000 H   0  0  0  0  0  0  0  0  0  0  0  0
    9.2942   11.1068    0.0000 H   0  0  0  0  0  0  0  0  0  0  0  0
    9.2994    1.4388    0.0000 H   0  0  0  0  0  0  0  0  0  0  0  0
   10.7336   13.5999    0.0000 H   0  0  0  0  0  0  0  0  0  0  0  0
   10.7452    2.2662    0.0000 H   0  0  0  0  0  0  0  0  0  0  0  0
   11.3805    3.5899    0.0000 H   0  0  0  0  0  0  0  0  0  0  0  0
   11.6009    4.4386    0.0000 H   0  0  0  0  0  0  0  0  0  0  0  0
   10.7523    4.6590    0.0000 H   0  0  0  0  0  0  0  0  0  0  0  0
   10.7591   11.2072    0.0000 H   0  0  0  0  0  0  0  0  0  0  0  0
   11.6061   11.4341    0.0000 H   0  0  0  0  0  0  0  0  0  0  0  0
   11.3791   12.2810    0.0000 H   0  0  0  0  0  0  0  0  0  0  0  0
  1 29  1  0  0  0  0
  1 33  1  0  0  0  0
  2 30  1  0  0  0  0
  2 34  1  0  0  0  0
 25  3  1  6  0  0  0
  3 51  1  0  0  0  0
 26  4  1  6  0  0  0
  4 52  1  0  0  0  0
  5 33  2  0  0  0  0
  6 34  2  0  0  0  0
  7 41  1  0  0  0  0
  7 57  1  0  0  0  0
  8 42  1  0  0  0  0
  8 58  1  0  0  0  0
  9 43  1  0  0  0  0
  9 57  1  0  0  0  0
 10 44  1  0  0  0  0
 10 58  1  0  0  0  0
 11 53  1  0  0  0  0
 11 65  1  0  0  0  0
 12 54  1  0  0  0  0
 12 66  1  0  0  0  0
 13 51  2  0  0  0  0
 14 52  2  0  0  0  0
 15 49  2  0  0  0  0
 15 61  1  0  0  0  0
 16 50  2  0  0  0  0
 16 62  1  0  0  0  0
 17 55  2  0  0  0  0
 17 63  1  0  0  0  0
 18 56  2  0  0  0  0
 18 64  1  0  0  0  0
 19 21  1  0  0  0  0
 19 25  1  0  0  0  0
 19 29  1  0  0  0  0
 19 77  1  1  0  0  0
 20 22  1  0  0  0  0
 20 26  1  0  0  0  0
 20 30  1  0  0  0  0
 20 78  1  1  0  0  0
 21 23  1  0  0  0  0
 21 33  1  0  0  0  0
 21 79  1  6  0  0  0
 22 24  1  0  0  0  0
 22 34  1  0  0  0  0
 22 80  1  6  0  0  0
 23 27  1  0  0  0  0
 23 35  1  6  0  0  0
 23 81  1  0  0  0  0
 24 28  1  0  0  0  0
 24 36  1  6  0  0  0
 24 82  1  0  0  0  0
 25 31  1  0  0  0  0
 25 83  1  0  0  0  0
 26 32  1  0  0  0  0
 26 84  1  0  0  0  0
 27 31  1  0  0  0  0
 27 37  2  0  0  0  0
 28 32  1  0  0  0  0
 28 38  2  0  0  0  0
 29 85  1  0  0  0  0
 29 86  1  0  0  0  0
 30 87  1  0  0  0  0
 30 88  1  0  0  0  0
 31 39  2  0  0  0  0
 32 40  2  0  0  0  0
 35 45  2  0  0  0  0
 35 47  1  0  0  0  0
 36 46  2  0  0  0  0
 36 48  1  0  0  0  0
 37 41  1  0  0  0  0
 37 89  1  0  0  0  0
 38 42  1  0  0  0  0
 38 90  1  0  0  0  0
 39 43  1  0  0  0  0
 39 91  1  0  0  0  0
 40 44  1  0  0  0  0
 40 92  1  0  0  0  0
 41 43  2  0  0  0  0
 42 44  2  0  0  0  0
 45 49  1  0  0  0  0
 45 93  1  0  0  0  0
 46 50  1  0  0  0  0
 46 94  1  0  0  0  0
 47 53  2  0  0  0  0
 47 95  1  0  0  0  0
 48 54  2  0  0  0  0
 48 96  1  0  0  0  0
 49 56  1  0  0  0  0
 50 55  1  0  0  0  0
 51 59  1  0  0  0  0
 52 60  1  0  0  0  0
 53 56  1  0  0  0  0
 54 55  1  0  0  0  0
 57 97  1  0  0  0  0
 57 98  1  0  0  0  0
 58 99  1  0  0  0  0
 58100  1  0  0  0  0
 59101  1  0  0  0  0
 59102  1  0  0  0  0
 59103  1  0  0  0  0
 60104  1  0  0  0  0
 60105  1  0  0  0  0
 60106  1  0  0  0  0
 61 64  2  0  0  0  0
 61 67  1  0  0  0  0
 62 63  2  0  0  0  0
 62 68  1  0  0  0  0
 63 69  1  0  0  0  0
 64 70  1  0  0  0  0
 65107  1  0  0  0  0
 65108  1  0  0  0  0
 65109  1  0  0  0  0
 66110  1  0  0  0  0
 66111  1  0  0  0  0
 66112  1  0  0  0  0
 67 71  2  0  0  0  0
 67113  1  0  0  0  0
 68 73  2  0  0  0  0
 68114  1  0  0  0  0
 69 72  2  0  0  0  0
 69115  1  0  0  0  0
 70 74  2  0  0  0  0
 70116  1  0  0  0  0
 71 74  1  0  0  0  0
 71 75  1  0  0  0  0
 72 73  1  0  0  0  0
 72 76  1  0  0  0  0
 73117  1  0  0  0  0
 74118  1  0  0  0  0
 75119  1  0  0  0  0
 75120  1  0  0  0  0
 75121  1  0  0  0  0
 76122  1  0  0  0  0
 76123  1  0  0  0  0
 76124  1  0  0  0  0
M  END
> <PUBCHEM_COMPOUND_CID>
510895
> <PUBCHEM_COMPOUND_CANONICALIZED>
1
> <PUBCHEM_CACTVS_COMPLEXITY>
1870
> <PUBCHEM_CACTVS_HBOND_ACCEPTOR>
18
> <PUBCHEM_CACTVS_HBOND_DONOR>
0
> <PUBCHEM_CACTVS_ROTATABLE_BOND>
8
> <PUBCHEM_CACTVS_SUBSKEYS>
AAADcfB/vAAAAAAAAAAAAAAAAAAAASJEiQA8eMGDAAAAAEjx/gAAHgAAAAAADRyhngMyzrIIFACoAyTyTASCiCQhciAImCE3/JgfZvLEsZu3MCpnwBne6Afa+P+OqAABQgAQUCDQAAaEADCgQAAAAAAAAA==
> <PUBCHEM_IUPAC_OPENEYE_NAME>
[(5R,5aS,8aS,9R)-9-(4-methoxy-7-methyl-phenazin-2-yl)-8-oxo-5a,6,8a,9-tetrahydro-5H-isobenzofuro[5,6-f][1,3]benzodioxol-5-yl] acetate;[(5R,5aS,8aS,9R)-9-(4-methoxy-8-methyl-phenazin-2-yl)-8-oxo-5a,6,8a,9-tetrahydro-5H-isobenzofuro[5,6-f][1,3]benzodioxol-5-yl] acetate
> <PUBCHEM_IUPAC_CAS_NAME>
acetic acid [(5R,5aS,8aS,9R)-9-(4-methoxy-7-methyl-2-phenazinyl)-8-oxo-5a,6,8a,9-tetrahydro-5H-isobenzofuro[5,6-f][1,3]benzodioxol-5-yl] ester;acetic acid [(5R,5aS,8aS,9R)-9-(4-methoxy-8-methyl-2-phenazinyl)-8-oxo-5a,6,8a,9-tetrahydro-5H-isobenzofuro[5,6-f][1,3]benzodioxol-5-yl] ester
> <PUBCHEM_IUPAC_NAME_MARKUP>
[(5<I>R</I>,5<I>a</I><I>S</I>,8<I>a</I><I>S</I>,9<I>R</I>)-9-(4-methoxy-7-methylphenazin-2-yl)-8-oxo-5<I>a</I>,6,8<I>a</I>,9-tetrahydro-5<I>H</I>-[2]benzofuro[5,6-f][1,3]benzodioxol-5-yl] acetate;[(5<I>R</I>,5<I>a</I><I>S</I>,8<I>a</I><I>S</I>,9<I>R</I>)-9-(4-methoxy-8-methylphenazin-2-yl)-8-oxo-5<I>a</I>,6,8<I>a</I>,9-tetrahydro-5<I>H</I>-[2]benzofuro[5,6-f][1,3]benzodioxol-5-yl] acetate
> <PUBCHEM_IUPAC_NAME>
[(5R,5aS,8aS,9R)-9-(4-methoxy-7-methylphenazin-2-yl)-8-oxo-5a,6,8a,9-tetrahydro-5H-[2]benzofuro[5,6-f][1,3]benzodioxol-5-yl] acetate;[(5R,5aS,8aS,9R)-9-(4-methoxy-8-methylphenazin-2-yl)-8-oxo-5a,6,8a,9-tetrahydro-5H-[2]benzofuro[5,6-f][1,3]benzodioxol-5-yl] acetate
> <PUBCHEM_IUPAC_SYSTEMATIC_NAME>
[(5R,5aS,8aS,9R)-9-(4-methoxy-7-methyl-phenazin-2-yl)-8-oxidanylidene-5a,6,8a,9-tetrahydro-5H-[2]benzofuro[5,6-f][1,3]benzodioxol-5-yl] ethanoate;[(5R,5aS,8aS,9R)-9-(4-methoxy-8-methyl-phenazin-2-yl)-8-oxidanylidene-5a,6,8a,9-tetrahydro-5H-[2]benzofuro[5,6-f][1,3]benzodioxol-5-yl] ethanoate
> <PUBCHEM_IUPAC_TRADITIONAL_NAME>
acetic acid [(5R,5aS,8aS,9R)-8-keto-9-(4-methoxy-7-methyl-phenazin-2-yl)-5a,6,8a,9-tetrahydro-5H-isobenzofuro[5,6-f][1,3]benzodioxol-5-yl] ester;acetic acid [(5R,5aS,8aS,9R)-8-keto-9-(4-methoxy-8-methyl-phenazin-2-yl)-5a,6,8a,9-tetrahydro-5H-isobenzofuro[5,6-f][1,3]benzodioxol-5-yl] ester
> <PUBCHEM_IUPAC_INCHI>
InChI=1S/2C29H24N2O7/c1-13-4-5-19-20(6-13)30-21-7-15(8-24(34-3)27(21)31-19)25-16-9-22-23(37-12-36-22)10-17(16)28(38-14(2)32)18-11-35-29(33)26(18)25;1-13-4-5-19-20(6-13)31-27-21(30-19)7-15(8-24(27)34-3)25-16-9-22-23(37-12-36-22)10-17(16)28(38-14(2)32)18-11-35-29(33)26(18)25/h2*4-10,18,25-26,28H,11-12H2,1-3H3/t2*18-,25-,26-,28+/m11/s1
> <PUBCHEM_IUPAC_INCHIKEY>
NRXRZEFAWYZCSK-VTPHGHPXSA-N
> <PUBCHEM_EXACT_MASS>
1024.31670222
> <PUBCHEM_MOLECULAR_FORMULA>
C58H48N4O14
> <PUBCHEM_MOLECULAR_WEIGHT>
1025.0
> <PUBCHEM_OPENEYE_CAN_SMILES>
CC1=CC2=C(C=C1)N=C3C=C(C=C(C3=N2)OC)C4C5C(COC5=O)C(C6=CC7=C(C=C46)OCO7)OC(=O)C.CC1=CC2=C(C=C1)N=C3C(=CC(=CC3=N2)C4C5C(COC5=O)C(C6=CC7=C(C=C46)OCO7)OC(=O)C)OC
> <PUBCHEM_OPENEYE_ISO_SMILES>
CC1=CC2=C(C=C1)N=C3C=C(C=C(C3=N2)OC)[C@H]4[C@H]5[C@@H](COC5=O)[C@H](C6=CC7=C(C=C46)OCO7)OC(=O)C.CC1=CC2=C(C=C1)N=C3C(=CC(=CC3=N2)[C@H]4[C@H]5[C@@H](COC5=O)[C@H](C6=CC7=C(C=C46)OCO7)OC(=O)C)OC
> <PUBCHEM_CACTVS_TPSA>
212
> <PUBCHEM_MONOISOTOPIC_WEIGHT>
1024.31670222
> <PUBCHEM_TOTAL_CHARGE>
0
> <PUBCHEM_HEAVY_ATOM_COUNT>
76
> <PUBCHEM_ATOM_DEF_STEREO_COUNT>
8
> <PUBCHEM_ATOM_UDEF_STEREO_COUNT>
0
> <PUBCHEM_BOND_DEF_STEREO_COUNT>
0
> <PUBCHEM_BOND_UDEF_STEREO_COUNT>
0
> <PUBCHEM_ISOTOPIC_ATOM_COUNT>
0
> <PUBCHEM_COMPONENT_COUNT>
2
> <PUBCHEM_CACTVS_TAUTO_COUNT>
-1
> <PUBCHEM_COORDINATE_TYPE>
1
5
255
> <PUBCHEM_BONDANNOTATIONS>
15  49  8
15  61  8
16  50  8
16  62  8
17  55  8
17  63  8
18  56  8
18  64  8
19  77  5
20  78  5
21  79  6
22  80  6
23  35  6
24  36  6
27  31  8
27  37  8
28  32  8
28  38  8
25  3  6
31  39  8
32  40  8
35  45  8
35  47  8
36  46  8
36  48  8
37  41  8
38  42  8
39  43  8
26  4  6
40  44  8
41  43  8
42  44  8
45  49  8
46  50  8
47  53  8
48  54  8
49  56  8
50  55  8
53  56  8
54  55  8
61  64  8
61  67  8
62  63  8
62  68  8
63  69  8
64  70  8
67  71  8
68  73  8
69  72  8
70  74  8
71  74  8
72  73  8
$$$$
