510884
  -OEChem-10302200282D
 57 63  0     1  0  0  0  0  0999 V2000
   10.3425   -2.9428    0.0000 O   0  0  0  0  0  0  0  0  0  0  0  0
    7.3123   -2.8087    0.0000 O   0  0  0  0  0  0  0  0  0  0  0  0
   10.1773    2.7083    0.0000 O   0  0  0  0  0  0  0  0  0  0  0  0
   11.5712    1.9035    0.0000 O   0  0  0  0  0  0  0  0  0  0  0  0
    6.4520   -1.3053    0.0000 O   0  0  0  0  0  0  0  0  0  0  0  0
    6.4340    2.8020    0.0000 O   0  0  0  0  0  0  0  0  0  0  0  0
   10.7572   -1.9940    0.0000 N   0  0  0  0  0  0  0  0  0  0  0  0
    4.6623   -0.2190    0.0000 N   0  0  0  0  0  0  0  0  0  0  0  0
    4.6777    1.7809    0.0000 N   0  0  0  0  0  0  0  0  0  0  0  0
    8.1841   -1.3120    0.0000 C   0  0  1  0  0  0  0  0  0  0  0  0
    9.0861   -1.8328    0.0000 C   0  0  2  0  0  0  0  0  0  0  0  0
    8.1921   -0.2704    0.0000 C   0  0  1  0  0  0  0  0  0  0  0  0
    9.1021    0.2364    0.0000 C   0  0  0  0  0  0  0  0  0  0  0  0
    9.9842   -1.3051    0.0000 C   0  0  0  0  0  0  0  0  0  0  0  0
    9.9681   -0.2636    0.0000 C   0  0  0  0  0  0  0  0  0  0  0  0
    9.3119   -2.8434    0.0000 C   0  0  0  0  0  0  0  0  0  0  0  0
    7.3319    0.2396    0.0000 C   0  0  0  0  0  0  0  0  0  0  0  0
    7.3161   -1.8087    0.0000 C   0  0  0  0  0  0  0  0  0  0  0  0
    9.1021    1.2364    0.0000 C   0  0  0  0  0  0  0  0  0  0  0  0
   10.8341    0.2364    0.0000 C   0  0  0  0  0  0  0  0  0  0  0  0
    9.9681    1.7364    0.0000 C   0  0  0  0  0  0  0  0  0  0  0  0
   10.8341    1.2364    0.0000 C   0  0  0  0  0  0  0  0  0  0  0  0
    6.4219   -0.2673    0.0000 C   0  0  0  0  0  0  0  0  0  0  0  0
    7.3399    1.2812    0.0000 C   0  0  0  0  0  0  0  0  0  0  0  0
    5.5321    0.2743    0.0000 C   0  0  0  0  0  0  0  0  0  0  0  0
    6.4379    1.8020    0.0000 C   0  0  0  0  0  0  0  0  0  0  0  0
    5.5398    1.2742    0.0000 C   0  0  0  0  0  0  0  0  0  0  0  0
   11.1660    2.8113    0.0000 C   0  0  0  0  0  0  0  0  0  0  0  0
    6.4443   -3.3053    0.0000 C   0  0  0  0  0  0  0  0  0  0  0  0
    3.8001    0.2876    0.0000 C   0  0  0  0  0  0  0  0  0  0  0  0
    3.8078    1.2876    0.0000 C   0  0  0  0  0  0  0  0  0  0  0  0
    7.2981    3.3053    0.0000 C   0  0  0  0  0  0  0  0  0  0  0  0
    2.9021   -0.2401    0.0000 C   0  0  0  0  0  0  0  0  0  0  0  0
    2.9180    1.8291    0.0000 C   0  0  0  0  0  0  0  0  0  0  0  0
    2.0000    0.2807    0.0000 C   0  0  0  0  0  0  0  0  0  0  0  0
    2.0080    1.3223    0.0000 C   0  0  0  0  0  0  0  0  0  0  0  0
    7.6489   -0.9989    0.0000 H   0  0  0  0  0  0  0  0  0  0  0  0
    8.4011   -2.3360    0.0000 H   0  0  0  0  0  0  0  0  0  0  0  0
    7.6522   -0.5752    0.0000 H   0  0  0  0  0  0  0  0  0  0  0  0
    8.6959   -2.9142    0.0000 H   0  0  0  0  0  0  0  0  0  0  0  0
    9.3175   -3.4634    0.0000 H   0  0  0  0  0  0  0  0  0  0  0  0
    8.5652    1.5464    0.0000 H   0  0  0  0  0  0  0  0  0  0  0  0
   11.3711   -0.0736    0.0000 H   0  0  0  0  0  0  0  0  0  0  0  0
    6.4100   -0.8872    0.0000 H   0  0  0  0  0  0  0  0  0  0  0  0
    7.8781    1.5891    0.0000 H   0  0  0  0  0  0  0  0  0  0  0  0
   11.7556    3.0031    0.0000 H   0  0  0  0  0  0  0  0  0  0  0  0
   11.0373    3.4178    0.0000 H   0  0  0  0  0  0  0  0  0  0  0  0
    6.1364   -2.7672    0.0000 H   0  0  0  0  0  0  0  0  0  0  0  0
    5.9062   -3.6132    0.0000 H   0  0  0  0  0  0  0  0  0  0  0  0
    6.7522   -3.8434    0.0000 H   0  0  0  0  0  0  0  0  0  0  0  0
    7.6102    2.7696    0.0000 H   0  0  0  0  0  0  0  0  0  0  0  0
    7.8338    3.6174    0.0000 H   0  0  0  0  0  0  0  0  0  0  0  0
    6.9860    3.8410    0.0000 H   0  0  0  0  0  0  0  0  0  0  0  0
    2.9045   -0.8601    0.0000 H   0  0  0  0  0  0  0  0  0  0  0  0
    2.9300    2.4490    0.0000 H   0  0  0  0  0  0  0  0  0  0  0  0
    1.4619   -0.0272    0.0000 H   0  0  0  0  0  0  0  0  0  0  0  0
    1.4747    1.6385    0.0000 H   0  0  0  0  0  0  0  0  0  0  0  0
  1  7  1  0  0  0  0
  1 16  1  0  0  0  0
  2 18  1  0  0  0  0
  2 29  1  0  0  0  0
  3 21  1  0  0  0  0
  3 28  1  0  0  0  0
  4 22  1  0  0  0  0
  4 28  1  0  0  0  0
  5 18  2  0  0  0  0
  6 26  1  0  0  0  0
  6 32  1  0  0  0  0
  7 14  2  0  0  0  0
  8 25  2  0  0  0  0
  8 30  1  0  0  0  0
  9 27  2  0  0  0  0
  9 31  1  0  0  0  0
 10 11  1  0  0  0  0
 10 12  1  0  0  0  0
 10 18  1  6  0  0  0
 10 37  1  0  0  0  0
 11 14  1  0  0  0  0
 11 16  1  0  0  0  0
 11 38  1  1  0  0  0
 12 13  1  0  0  0  0
 12 17  1  6  0  0  0
 12 39  1  0  0  0  0
 13 15  1  0  0  0  0
 13 19  2  0  0  0  0
 14 15  1  0  0  0  0
 15 20  2  0  0  0  0
 16 40  1  0  0  0  0
 16 41  1  0  0  0  0
 17 23  2  0  0  0  0
 17 24  1  0  0  0  0
 19 21  1  0  0  0  0
 19 42  1  0  0  0  0
 20 22  1  0  0  0  0
 20 43  1  0  0  0  0
 21 22  2  0  0  0  0
 23 25  1  0  0  0  0
 23 44  1  0  0  0  0
 24 26  2  0  0  0  0
 24 45  1  0  0  0  0
 25 27  1  0  0  0  0
 26 27  1  0  0  0  0
 28 46  1  0  0  0  0
 28 47  1  0  0  0  0
 29 48  1  0  0  0  0
 29 49  1  0  0  0  0
 29 50  1  0  0  0  0
 30 31  1  0  0  0  0
 30 33  2  0  0  0  0
 31 34  2  0  0  0  0
 32 51  1  0  0  0  0
 32 52  1  0  0  0  0
 32 53  1  0  0  0  0
 33 35  1  0  0  0  0
 33 54  1  0  0  0  0
 34 36  1  0  0  0  0
 34 55  1  0  0  0  0
 35 36  2  0  0  0  0
 35 56  1  0  0  0  0
 36 57  1  0  0  0  0
M  END
> <PUBCHEM_COMPOUND_CID>
510884
> <PUBCHEM_COMPOUND_CANONICALIZED>
1
> <PUBCHEM_CACTVS_COMPLEXITY>
886
> <PUBCHEM_CACTVS_HBOND_ACCEPTOR>
9
> <PUBCHEM_CACTVS_HBOND_DONOR>
0
> <PUBCHEM_CACTVS_ROTATABLE_BOND>
4
> <PUBCHEM_CACTVS_SUBSKEYS>
AAADceB7OAAAAAAAAAAAAAAAAAAAASIAAAA8YMGCAAAAAEjx/AAAHgAEAAAADQyhngMyzrIYFACoAyTyTASCiCQhciAImCE3/JgfZvLEsZu1MCpmwBne6Afa2POOqAABQgAQUCDQAAaEACCgQAAAAAAAAA==
> <PUBCHEM_IUPAC_OPENEYE_NAME>
methyl (3aR,4R,5R)-5-(4-methoxyphenazin-2-yl)-3,3a,4,5-tetrahydro-[1,3]benzodioxolo[6,5-g][2,1]benzoxazole-4-carboxylate
> <PUBCHEM_IUPAC_CAS_NAME>
(3aR,4R,5R)-5-(4-methoxy-2-phenazinyl)-3,3a,4,5-tetrahydro-[1,3]benzodioxolo[6,5-g][2,1]benzoxazole-4-carboxylic acid methyl ester
> <PUBCHEM_IUPAC_NAME_MARKUP>
methyl (3<I>a</I><I>R</I>,4<I>R</I>,5<I>R</I>)-5-(4-methoxyphenazin-2-yl)-3,3<I>a</I>,4,5-tetrahydro-[1,3]benzodioxolo[6,5-g][2,1]benzoxazole-4-carboxylate
> <PUBCHEM_IUPAC_NAME>
methyl (3aR,4R,5R)-5-(4-methoxyphenazin-2-yl)-3,3a,4,5-tetrahydro-[1,3]benzodioxolo[6,5-g][2,1]benzoxazole-4-carboxylate
> <PUBCHEM_IUPAC_SYSTEMATIC_NAME>
methyl (3aR,4R,5R)-5-(4-methoxyphenazin-2-yl)-3,3a,4,5-tetrahydro-[1,3]benzodioxolo[6,5-g][2,1]benzoxazole-4-carboxylate
> <PUBCHEM_IUPAC_TRADITIONAL_NAME>
(3aR,4R,5R)-5-(4-methoxyphenazin-2-yl)-3,3a,4,5-tetrahydro-[1,3]benzodioxolo[6,5-g][2,1]benzoxazole-4-carboxylic acid methyl ester
> <PUBCHEM_IUPAC_INCHI>
InChI=1S/C27H21N3O6/c1-32-22-8-13(7-19-26(22)29-18-6-4-3-5-17(18)28-19)23-14-9-20-21(35-12-34-20)10-15(14)25-16(11-36-30-25)24(23)27(31)33-2/h3-10,16,23-24H,11-12H2,1-2H3/t16-,23-,24+/m1/s1
> <PUBCHEM_IUPAC_INCHIKEY>
HBBGXJQUCXGWAP-VILGCMSXSA-N
> <PUBCHEM_XLOGP3_AA>
3.7
> <PUBCHEM_EXACT_MASS>
483.14303540
> <PUBCHEM_MOLECULAR_FORMULA>
C27H21N3O6
> <PUBCHEM_MOLECULAR_WEIGHT>
483.5
> <PUBCHEM_OPENEYE_CAN_SMILES>
COC1=CC(=CC2=NC3=CC=CC=C3N=C12)C4C(C5CON=C5C6=CC7=C(C=C46)OCO7)C(=O)OC
> <PUBCHEM_OPENEYE_ISO_SMILES>
COC1=CC(=CC2=NC3=CC=CC=C3N=C12)[C@H]4[C@H]([C@H]5CON=C5C6=CC7=C(C=C46)OCO7)C(=O)OC
> <PUBCHEM_CACTVS_TPSA>
101
> <PUBCHEM_MONOISOTOPIC_WEIGHT>
483.14303540
> <PUBCHEM_TOTAL_CHARGE>
0
> <PUBCHEM_HEAVY_ATOM_COUNT>
36
> <PUBCHEM_ATOM_DEF_STEREO_COUNT>
3
> <PUBCHEM_ATOM_UDEF_STEREO_COUNT>
0
> <PUBCHEM_BOND_DEF_STEREO_COUNT>
0
> <PUBCHEM_BOND_UDEF_STEREO_COUNT>
0
> <PUBCHEM_ISOTOPIC_ATOM_COUNT>
0
> <PUBCHEM_COMPONENT_COUNT>
1
> <PUBCHEM_CACTVS_TAUTO_COUNT>
-1
> <PUBCHEM_COORDINATE_TYPE>
1
5
255
> <PUBCHEM_BONDANNOTATIONS>
10  18  6
11  38  5
12  17  6
13  15  8
13  19  8
15  20  8
17  23  8
17  24  8
19  21  8
20  22  8
21  22  8
23  25  8
24  26  8
25  27  8
26  27  8
30  31  8
30  33  8
31  34  8
33  35  8
34  36  8
35  36  8
8  25  8
8  30  8
9  27  8
9  31  8
$$$$
