510881
  -OEChem-10302200282D
 59 65  0     1  0  0  0  0  0999 V2000
    5.7960    2.8441    0.0000 O   0  0  0  0  0  0  0  0  0  0  0  0
    2.8660    1.7692    0.0000 O   0  0  0  0  0  0  0  0  0  0  0  0
    7.1796    1.7301    0.0000 O   0  0  0  0  0  0  0  0  0  0  0  0
    3.4982   -2.8123    0.0000 O   0  0  0  0  0  0  0  0  0  0  0  0
    2.0463   -1.9741    0.0000 O   0  0  0  0  0  0  0  0  0  0  0  0
    7.2576   -2.7826    0.0000 O   0  0  0  0  0  0  0  0  0  0  0  0
    3.7320    3.2692    0.0000 O   0  0  0  0  0  0  0  0  0  0  0  0
    8.9943    0.2587    0.0000 N   0  0  0  0  0  0  0  0  0  0  0  0
    9.0020   -1.7413    0.0000 N   0  0  0  0  0  0  0  0  0  0  0  0
    4.5981    1.7692    0.0000 C   0  0  2  0  0  0  0  0  0  0  0  0
    5.4641    1.2692    0.0000 C   0  0  2  0  0  0  0  0  0  0  0  0
    5.4641    0.2692    0.0000 C   0  0  1  0  0  0  0  0  0  0  0  0
    3.7320    1.2692    0.0000 C   0  0  2  0  0  0  0  0  0  0  0  0
    4.5981   -0.2308    0.0000 C   0  0  0  0  0  0  0  0  0  0  0  0
    4.8073    2.7410    0.0000 C   0  0  0  0  0  0  0  0  0  0  0  0
    3.7320    0.2692    0.0000 C   0  0  0  0  0  0  0  0  0  0  0  0
    6.2011    1.9363    0.0000 C   0  0  0  0  0  0  0  0  0  0  0  0
    6.3301   -0.2308    0.0000 C   0  0  0  0  0  0  0  0  0  0  0  0
    4.6141   -1.2723    0.0000 C   0  0  0  0  0  0  0  0  0  0  0  0
    2.8220   -0.2376    0.0000 C   0  0  0  0  0  0  0  0  0  0  0  0
    3.7161   -1.8000    0.0000 C   0  0  0  0  0  0  0  0  0  0  0  0
    2.8140   -1.2792    0.0000 C   0  0  0  0  0  0  0  0  0  0  0  0
    7.2342    0.2866    0.0000 C   0  0  0  0  0  0  0  0  0  0  0  0
    6.3341   -1.2724    0.0000 C   0  0  0  0  0  0  0  0  0  0  0  0
    8.1302   -0.2447    0.0000 C   0  0  0  0  0  0  0  0  0  0  0  0
    7.2422   -1.7828    0.0000 C   0  0  0  0  0  0  0  0  0  0  0  0
    2.8660    2.7692    0.0000 C   0  0  0  0  0  0  0  0  0  0  0  0
    8.1341   -1.2446    0.0000 C   0  0  0  0  0  0  0  0  0  0  0  0
    2.4683   -2.9197    0.0000 C   0  0  0  0  0  0  0  0  0  0  0  0
    2.0000    3.2692    0.0000 C   0  0  0  0  0  0  0  0  0  0  0  0
    9.8622   -0.2380    0.0000 C   0  0  0  0  0  0  0  0  0  0  0  0
    9.8661   -1.2380    0.0000 C   0  0  0  0  0  0  0  0  0  0  0  0
    8.1312   -3.2692    0.0000 C   0  0  0  0  0  0  0  0  0  0  0  0
   10.7541    0.3001    0.0000 C   0  0  0  0  0  0  0  0  0  0  0  0
   10.7621   -1.7692    0.0000 C   0  0  0  0  0  0  0  0  0  0  0  0
   11.6622   -0.2102    0.0000 C   0  0  0  0  0  0  0  0  0  0  0  0
   11.6662   -1.2518    0.0000 C   0  0  0  0  0  0  0  0  0  0  0  0
    3.9111    2.2697    0.0000 H   0  0  0  0  0  0  0  0  0  0  0  0
    6.2411    0.9245    0.0000 H   0  0  0  0  0  0  0  0  0  0  0  0
    5.4641   -0.3508    0.0000 H   0  0  0  0  0  0  0  0  0  0  0  0
    3.7320    1.8892    0.0000 H   0  0  0  0  0  0  0  0  0  0  0  0
    4.8082    3.3610    0.0000 H   0  0  0  0  0  0  0  0  0  0  0  0
    4.1908    2.8071    0.0000 H   0  0  0  0  0  0  0  0  0  0  0  0
    5.1546   -1.5761    0.0000 H   0  0  0  0  0  0  0  0  0  0  0  0
    2.2887    0.0786    0.0000 H   0  0  0  0  0  0  0  0  0  0  0  0
    7.2390    0.9065    0.0000 H   0  0  0  0  0  0  0  0  0  0  0  0
    5.7996   -1.5865    0.0000 H   0  0  0  0  0  0  0  0  0  0  0  0
    1.8787   -3.1114    0.0000 H   0  0  0  0  0  0  0  0  0  0  0  0
    2.5970   -3.5262    0.0000 H   0  0  0  0  0  0  0  0  0  0  0  0
    2.3100    3.8062    0.0000 H   0  0  0  0  0  0  0  0  0  0  0  0
    1.4631    3.5792    0.0000 H   0  0  0  0  0  0  0  0  0  0  0  0
    1.6900    2.7323    0.0000 H   0  0  0  0  0  0  0  0  0  0  0  0
    7.8296   -3.8109    0.0000 H   0  0  0  0  0  0  0  0  0  0  0  0
    8.6729   -3.5709    0.0000 H   0  0  0  0  0  0  0  0  0  0  0  0
    8.4329   -2.7276    0.0000 H   0  0  0  0  0  0  0  0  0  0  0  0
   10.7446    0.9200    0.0000 H   0  0  0  0  0  0  0  0  0  0  0  0
   10.7573   -2.3892    0.0000 H   0  0  0  0  0  0  0  0  0  0  0  0
   12.1967    0.1039    0.0000 H   0  0  0  0  0  0  0  0  0  0  0  0
   12.2031   -1.5618    0.0000 H   0  0  0  0  0  0  0  0  0  0  0  0
  1 15  1  0  0  0  0
  1 17  1  0  0  0  0
 13  2  1  6  0  0  0
  2 27  1  0  0  0  0
  3 17  2  0  0  0  0
  4 21  1  0  0  0  0
  4 29  1  0  0  0  0
  5 22  1  0  0  0  0
  5 29  1  0  0  0  0
  6 26  1  0  0  0  0
  6 33  1  0  0  0  0
  7 27  2  0  0  0  0
  8 25  2  0  0  0  0
  8 31  1  0  0  0  0
  9 28  2  0  0  0  0
  9 32  1  0  0  0  0
 10 11  1  0  0  0  0
 10 13  1  0  0  0  0
 10 15  1  0  0  0  0
 10 38  1  1  0  0  0
 11 12  1  0  0  0  0
 11 17  1  0  0  0  0
 11 39  1  6  0  0  0
 12 14  1  0  0  0  0
 12 18  1  6  0  0  0
 12 40  1  0  0  0  0
 13 16  1  0  0  0  0
 13 41  1  0  0  0  0
 14 16  1  0  0  0  0
 14 19  2  0  0  0  0
 15 42  1  0  0  0  0
 15 43  1  0  0  0  0
 16 20  2  0  0  0  0
 18 23  2  0  0  0  0
 18 24  1  0  0  0  0
 19 21  1  0  0  0  0
 19 44  1  0  0  0  0
 20 22  1  0  0  0  0
 20 45  1  0  0  0  0
 21 22  2  0  0  0  0
 23 25  1  0  0  0  0
 23 46  1  0  0  0  0
 24 26  2  0  0  0  0
 24 47  1  0  0  0  0
 25 28  1  0  0  0  0
 26 28  1  0  0  0  0
 27 30  1  0  0  0  0
 29 48  1  0  0  0  0
 29 49  1  0  0  0  0
 30 50  1  0  0  0  0
 30 51  1  0  0  0  0
 30 52  1  0  0  0  0
 31 32  1  0  0  0  0
 31 34  2  0  0  0  0
 32 35  2  0  0  0  0
 33 53  1  0  0  0  0
 33 54  1  0  0  0  0
 33 55  1  0  0  0  0
 34 36  1  0  0  0  0
 34 56  1  0  0  0  0
 35 37  1  0  0  0  0
 35 57  1  0  0  0  0
 36 37  2  0  0  0  0
 36 58  1  0  0  0  0
 37 59  1  0  0  0  0
M  END
> <PUBCHEM_COMPOUND_CID>
510881
> <PUBCHEM_COMPOUND_CANONICALIZED>
1
> <PUBCHEM_CACTVS_COMPLEXITY>
902
> <PUBCHEM_CACTVS_HBOND_ACCEPTOR>
9
> <PUBCHEM_CACTVS_HBOND_DONOR>
0
> <PUBCHEM_CACTVS_ROTATABLE_BOND>
4
> <PUBCHEM_CACTVS_SUBSKEYS>
AAADceB7OAAAAAAAAAAAAAAAAAAAASJAAAA8YMGCAAAAAEjx/AAAHgAAAAAADRyhngMyzrIIFACoAyTyTASCiCQhciAImCE3/JgfZvLEsZu3MCpnwBne6Afa+P+OqAABQgAQUCDQAAaEADCgQAAAAAAAAA==
> <PUBCHEM_IUPAC_OPENEYE_NAME>
[(5R,5aS,8aS,9R)-9-(4-methoxyphenazin-2-yl)-8-oxo-5a,6,8a,9-tetrahydro-5H-isobenzofuro[5,6-f][1,3]benzodioxol-5-yl] acetate
> <PUBCHEM_IUPAC_CAS_NAME>
acetic acid [(5R,5aS,8aS,9R)-9-(4-methoxy-2-phenazinyl)-8-oxo-5a,6,8a,9-tetrahydro-5H-isobenzofuro[5,6-f][1,3]benzodioxol-5-yl] ester
> <PUBCHEM_IUPAC_NAME_MARKUP>
[(5<I>R</I>,5<I>a</I><I>S</I>,8<I>a</I><I>S</I>,9<I>R</I>)-9-(4-methoxyphenazin-2-yl)-8-oxo-5<I>a</I>,6,8<I>a</I>,9-tetrahydro-5<I>H</I>-[2]benzofuro[5,6-f][1,3]benzodioxol-5-yl] acetate
> <PUBCHEM_IUPAC_NAME>
[(5R,5aS,8aS,9R)-9-(4-methoxyphenazin-2-yl)-8-oxo-5a,6,8a,9-tetrahydro-5H-[2]benzofuro[5,6-f][1,3]benzodioxol-5-yl] acetate
> <PUBCHEM_IUPAC_SYSTEMATIC_NAME>
[(5R,5aS,8aS,9R)-9-(4-methoxyphenazin-2-yl)-8-oxidanylidene-5a,6,8a,9-tetrahydro-5H-[2]benzofuro[5,6-f][1,3]benzodioxol-5-yl] ethanoate
> <PUBCHEM_IUPAC_TRADITIONAL_NAME>
acetic acid [(5R,5aS,8aS,9R)-8-keto-9-(4-methoxyphenazin-2-yl)-5a,6,8a,9-tetrahydro-5H-isobenzofuro[5,6-f][1,3]benzodioxol-5-yl] ester
> <PUBCHEM_IUPAC_INCHI>
InChI=1S/C28H22N2O7/c1-13(31)37-27-16-10-22-21(35-12-36-22)9-15(16)24(25-17(27)11-34-28(25)32)14-7-20-26(23(8-14)33-2)30-19-6-4-3-5-18(19)29-20/h3-10,17,24-25,27H,11-12H2,1-2H3/t17-,24-,25-,27+/m1/s1
> <PUBCHEM_IUPAC_INCHIKEY>
QDUYIMZOFQBASJ-XZEYYANHSA-N
> <PUBCHEM_XLOGP3_AA>
3.5
> <PUBCHEM_EXACT_MASS>
498.14270105
> <PUBCHEM_MOLECULAR_FORMULA>
C28H22N2O7
> <PUBCHEM_MOLECULAR_WEIGHT>
498.5
> <PUBCHEM_OPENEYE_CAN_SMILES>
CC(=O)OC1C2COC(=O)C2C(C3=CC4=C(C=C13)OCO4)C5=CC6=NC7=CC=CC=C7N=C6C(=C5)OC
> <PUBCHEM_OPENEYE_ISO_SMILES>
CC(=O)O[C@@H]1[C@@H]2COC(=O)[C@H]2[C@@H](C3=CC4=C(C=C13)OCO4)C5=CC6=NC7=CC=CC=C7N=C6C(=C5)OC
> <PUBCHEM_CACTVS_TPSA>
106
> <PUBCHEM_MONOISOTOPIC_WEIGHT>
498.14270105
> <PUBCHEM_TOTAL_CHARGE>
0
> <PUBCHEM_HEAVY_ATOM_COUNT>
37
> <PUBCHEM_ATOM_DEF_STEREO_COUNT>
4
> <PUBCHEM_ATOM_UDEF_STEREO_COUNT>
0
> <PUBCHEM_BOND_DEF_STEREO_COUNT>
0
> <PUBCHEM_BOND_UDEF_STEREO_COUNT>
0
> <PUBCHEM_ISOTOPIC_ATOM_COUNT>
0
> <PUBCHEM_COMPONENT_COUNT>
1
> <PUBCHEM_CACTVS_TAUTO_COUNT>
-1
> <PUBCHEM_COORDINATE_TYPE>
1
5
255
> <PUBCHEM_BONDANNOTATIONS>
10  38  5
11  39  6
12  18  6
14  16  8
14  19  8
16  20  8
18  23  8
18  24  8
19  21  8
13  2  6
20  22  8
21  22  8
23  25  8
24  26  8
25  28  8
26  28  8
31  32  8
31  34  8
32  35  8
34  36  8
35  37  8
36  37  8
8  25  8
8  31  8
9  28  8
9  32  8
$$$$
