510837
  -OEChem-10302200282D
 39 41  0     1  0  0  0  0  0999 V2000
    4.6783   -1.5057    0.0000 S   0  0  0  0  0  0  0  0  0  0  0  0
    6.7619    0.1651    0.0000 O   0  0  0  0  0  0  0  0  0  0  0  0
    8.2619   -0.7010    0.0000 O   0  0  0  0  0  0  0  0  0  0  0  0
    9.2619   -2.4330    0.0000 O   0  0  0  0  0  0  0  0  0  0  0  0
    7.7619   -3.2990    0.0000 O   0  0  0  0  0  0  0  0  0  0  0  0
    2.8660    0.2990    0.0000 C   0  0  3  0  0  0  0  0  0  0  0  0
    2.0000   -0.2010    0.0000 C   0  0  0  0  0  0  0  0  0  0  0  0
    2.0000   -1.2010    0.0000 C   0  0  0  0  0  0  0  0  0  0  0  0
    3.7320   -0.2010    0.0000 C   0  0  0  0  0  0  0  0  0  0  0  0
    2.8660   -1.7010    0.0000 C   0  0  0  0  0  0  0  0  0  0  0  0
    3.7320   -1.2010    0.0000 C   0  0  0  0  0  0  0  0  0  0  0  0
    2.8660    1.2990    0.0000 C   0  0  0  0  0  0  0  0  0  0  0  0
    4.6783    0.1038    0.0000 C   0  0  0  0  0  0  0  0  0  0  0  0
    5.2619   -0.7010    0.0000 C   0  0  0  0  0  0  0  0  0  0  0  0
    3.7320    1.7990    0.0000 C   0  0  0  0  0  0  0  0  0  0  0  0
    2.0000    1.7990    0.0000 C   0  0  0  0  0  0  0  0  0  0  0  0
    6.2619   -0.7010    0.0000 C   0  0  0  0  0  0  0  0  0  0  0  0
    3.7320    2.7990    0.0000 C   0  0  0  0  0  0  0  0  0  0  0  0
    2.0000    2.7990    0.0000 C   0  0  0  0  0  0  0  0  0  0  0  0
    2.8660    3.2990    0.0000 C   0  0  0  0  0  0  0  0  0  0  0  0
    6.7619   -1.5670    0.0000 C   0  0  0  0  0  0  0  0  0  0  0  0
    7.7619   -1.5670    0.0000 C   0  0  0  0  0  0  0  0  0  0  0  0
    8.2619   -2.4330    0.0000 C   0  0  0  0  0  0  0  0  0  0  0  0
    2.3291    0.6090    0.0000 H   0  0  0  0  0  0  0  0  0  0  0  0
    1.7880    0.3816    0.0000 H   0  0  0  0  0  0  0  0  0  0  0  0
    1.3894   -0.3086    0.0000 H   0  0  0  0  0  0  0  0  0  0  0  0
    1.3894   -1.0933    0.0000 H   0  0  0  0  0  0  0  0  0  0  0  0
    1.7880   -1.7836    0.0000 H   0  0  0  0  0  0  0  0  0  0  0  0
    2.4675   -2.1759    0.0000 H   0  0  0  0  0  0  0  0  0  0  0  0
    3.2646   -2.1759    0.0000 H   0  0  0  0  0  0  0  0  0  0  0  0
    4.8709    0.6931    0.0000 H   0  0  0  0  0  0  0  0  0  0  0  0
    4.2690    1.4890    0.0000 H   0  0  0  0  0  0  0  0  0  0  0  0
    1.4631    1.4890    0.0000 H   0  0  0  0  0  0  0  0  0  0  0  0
    4.2690    3.1090    0.0000 H   0  0  0  0  0  0  0  0  0  0  0  0
    1.4631    3.1090    0.0000 H   0  0  0  0  0  0  0  0  0  0  0  0
    6.1793   -1.7790    0.0000 H   0  0  0  0  0  0  0  0  0  0  0  0
    6.8695   -2.1776    0.0000 H   0  0  0  0  0  0  0  0  0  0  0  0
    2.8660    3.9190    0.0000 H   0  0  0  0  0  0  0  0  0  0  0  0
    9.5719   -2.9700    0.0000 H   0  0  0  0  0  0  0  0  0  0  0  0
  1 11  1  0  0  0  0
  1 14  1  0  0  0  0
  2 17  2  0  0  0  0
  3 22  2  0  0  0  0
  4 23  1  0  0  0  0
  4 39  1  0  0  0  0
  5 23  2  0  0  0  0
  6  7  1  0  0  0  0
  6  9  1  0  0  0  0
  6 12  1  0  0  0  0
  6 24  1  0  0  0  0
  7  8  1  0  0  0  0
  7 25  1  0  0  0  0
  7 26  1  0  0  0  0
  8 10  1  0  0  0  0
  8 27  1  0  0  0  0
  8 28  1  0  0  0  0
  9 11  2  0  0  0  0
  9 13  1  0  0  0  0
 10 11  1  0  0  0  0
 10 29  1  0  0  0  0
 10 30  1  0  0  0  0
 12 15  2  0  0  0  0
 12 16  1  0  0  0  0
 13 14  2  0  0  0  0
 13 31  1  0  0  0  0
 14 17  1  0  0  0  0
 15 18  1  0  0  0  0
 15 32  1  0  0  0  0
 16 19  2  0  0  0  0
 16 33  1  0  0  0  0
 17 21  1  0  0  0  0
 18 20  2  0  0  0  0
 18 34  1  0  0  0  0
 19 20  1  0  0  0  0
 19 35  1  0  0  0  0
 20 38  1  0  0  0  0
 21 22  1  0  0  0  0
 21 36  1  0  0  0  0
 21 37  1  0  0  0  0
 22 23  1  0  0  0  0
M  END
> <PUBCHEM_COMPOUND_CID>
510837
> <PUBCHEM_COMPOUND_CANONICALIZED>
1
> <PUBCHEM_CACTVS_COMPLEXITY>
483
> <PUBCHEM_CACTVS_HBOND_ACCEPTOR>
5
> <PUBCHEM_CACTVS_HBOND_DONOR>
1
> <PUBCHEM_CACTVS_ROTATABLE_BOND>
5
> <PUBCHEM_CACTVS_SUBSKEYS>
AAADceB4OABAAAAAAAAAAAAAAAAAASAAAAAwYAAAAAAAAEgBwAAAGgQACAAADQSA2AAwCYAAAgiMAqDSCAIDAIAkCBBIiBlAAMgIIDKoFRCAYQAkgAAoiYeLyOCOgAAAAAAAAAAAAAEAACgAAAAAAAAAAA==
> <PUBCHEM_IUPAC_OPENEYE_NAME>
2,4-dioxo-4-(4-phenyl-4,5,6,7-tetrahydrobenzothiophen-2-yl)butanoic acid
> <PUBCHEM_IUPAC_CAS_NAME>
2,4-dioxo-4-(4-phenyl-4,5,6,7-tetrahydro-1-benzothiophen-2-yl)butanoic acid
> <PUBCHEM_IUPAC_NAME_MARKUP>
2,4-dioxo-4-(4-phenyl-4,5,6,7-tetrahydro-1-benzothiophen-2-yl)butanoic acid
> <PUBCHEM_IUPAC_NAME>
2,4-dioxo-4-(4-phenyl-4,5,6,7-tetrahydro-1-benzothiophen-2-yl)butanoic acid
> <PUBCHEM_IUPAC_SYSTEMATIC_NAME>
2,4-bis(oxidanylidene)-4-(4-phenyl-4,5,6,7-tetrahydro-1-benzothiophen-2-yl)butanoic acid
> <PUBCHEM_IUPAC_TRADITIONAL_NAME>
2,4-diketo-4-(4-phenyl-4,5,6,7-tetrahydrobenzothiophen-2-yl)butyric acid
> <PUBCHEM_IUPAC_INCHI>
InChI=1S/C18H16O4S/c19-14(10-15(20)18(21)22)17-9-13-12(7-4-8-16(13)23-17)11-5-2-1-3-6-11/h1-3,5-6,9,12H,4,7-8,10H2,(H,21,22)
> <PUBCHEM_IUPAC_INCHIKEY>
RZUNECKUOOPOLF-UHFFFAOYSA-N
> <PUBCHEM_XLOGP3_AA>
3.9
> <PUBCHEM_EXACT_MASS>
328.07693016
> <PUBCHEM_MOLECULAR_FORMULA>
C18H16O4S
> <PUBCHEM_MOLECULAR_WEIGHT>
328.4
> <PUBCHEM_OPENEYE_CAN_SMILES>
C1CC(C2=C(C1)SC(=C2)C(=O)CC(=O)C(=O)O)C3=CC=CC=C3
> <PUBCHEM_OPENEYE_ISO_SMILES>
C1CC(C2=C(C1)SC(=C2)C(=O)CC(=O)C(=O)O)C3=CC=CC=C3
> <PUBCHEM_CACTVS_TPSA>
99.7
> <PUBCHEM_MONOISOTOPIC_WEIGHT>
328.07693016
> <PUBCHEM_TOTAL_CHARGE>
0
> <PUBCHEM_HEAVY_ATOM_COUNT>
23
> <PUBCHEM_ATOM_DEF_STEREO_COUNT>
0
> <PUBCHEM_ATOM_UDEF_STEREO_COUNT>
1
> <PUBCHEM_BOND_DEF_STEREO_COUNT>
0
> <PUBCHEM_BOND_UDEF_STEREO_COUNT>
0
> <PUBCHEM_ISOTOPIC_ATOM_COUNT>
0
> <PUBCHEM_COMPONENT_COUNT>
1
> <PUBCHEM_CACTVS_TAUTO_COUNT>
-1
> <PUBCHEM_COORDINATE_TYPE>
1
5
255
> <PUBCHEM_BONDANNOTATIONS>
1  11  8
1  14  8
12  15  8
12  16  8
13  14  8
15  18  8
16  19  8
18  20  8
19  20  8
6  12  3
9  11  8
9  13  8
$$$$
