510958
  -OEChem-10302200282D
 87 91  0     1  0  0  0  0  0999 V2000
   10.0707   -1.1097    0.0000 O   0  0  0  0  0  0  0  0  0  0  0  0
    2.0000   -2.6896    0.0000 O   0  0  0  0  0  0  0  0  0  0  0  0
   13.5269   -0.0830    0.0000 O   0  0  0  0  0  0  0  0  0  0  0  0
   10.9251    0.3969    0.0000 N   0  0  0  0  0  0  0  0  0  0  0  0
    7.3931   -0.6372    0.0000 C   0  0  2  0  0  0  0  0  0  0  0  0
    6.5271   -1.1372    0.0000 C   0  0  1  0  0  0  0  0  0  0  0  0
    7.3931    0.3628    0.0000 C   0  0  3  0  0  0  0  0  0  0  0  0
    5.6610   -0.6372    0.0000 C   0  0  3  0  0  0  0  0  0  0  0  0
    8.2870    0.8974    0.0000 C   0  0  3  0  0  0  0  0  0  0  0  0
    4.7510   -1.1441    0.0000 C   0  0  2  0  0  0  0  0  0  0  0  0
    9.1931    0.3836    0.0000 C   0  0  1  0  0  0  0  0  0  0  0  0
    4.7430   -2.1857    0.0000 C   0  0  3  0  0  0  0  0  0  0  0  0
    8.2870   -1.1719    0.0000 C   0  0  0  0  0  0  0  0  0  0  0  0
    6.5271    0.8628    0.0000 C   0  0  0  0  0  0  0  0  0  0  0  0
    5.6610    0.3628    0.0000 C   0  0  0  0  0  0  0  0  0  0  0  0
    6.5431   -2.1788    0.0000 C   0  0  0  0  0  0  0  0  0  0  0  0
    9.1931   -0.6581    0.0000 C   0  0  0  0  0  0  0  0  0  0  0  0
    5.6451   -2.7065    0.0000 C   0  0  0  0  0  0  0  0  0  0  0  0
    8.4971    1.9113    0.0000 C   0  0  1  0  0  0  0  0  0  0  0  0
    7.7352   -1.5769    0.0000 C   0  0  0  0  0  0  0  0  0  0  0  0
    7.1698   -1.9033    0.0000 C   0  0  0  0  0  0  0  0  0  0  0  0
    9.9554    1.0843    0.0000 C   0  0  0  0  0  0  0  0  0  0  0  0
    3.8242   -0.5800    0.0000 C   0  0  0  0  0  0  0  0  0  0  0  0
    3.8076   -2.7354    0.0000 C   0  0  0  0  0  0  0  0  0  0  0  0
    9.5262    2.0266    0.0000 C   0  0  0  0  0  0  0  0  0  0  0  0
    4.7587   -0.1441    0.0000 C   0  0  0  0  0  0  0  0  0  0  0  0
   10.0629   -0.1097    0.0000 C   0  0  0  0  0  0  0  0  0  0  0  0
    2.8763   -1.1080    0.0000 C   0  0  0  0  0  0  0  0  0  0  0  0
    2.8680   -2.1929    0.0000 C   0  0  0  0  0  0  0  0  0  0  0  0
    7.8236    2.6505    0.0000 C   0  0  0  0  0  0  0  0  0  0  0  0
    3.3109   -3.6034    0.0000 C   0  0  0  0  0  0  0  0  0  0  0  0
    4.3109   -3.5995    0.0000 C   0  0  0  0  0  0  0  0  0  0  0  0
    8.1269    3.6034    0.0000 C   0  0  0  0  0  0  0  0  0  0  0  0
    6.8467    2.4367    0.0000 C   0  0  0  0  0  0  0  0  0  0  0  0
   11.7949   -0.0964    0.0000 C   0  0  0  0  0  0  0  0  0  0  0  0
   12.6571    0.4103    0.0000 C   0  0  0  0  0  0  0  0  0  0  0  0
    7.3883    0.9827    0.0000 H   0  0  0  0  0  0  0  0  0  0  0  0
    6.1980   -0.3272    0.0000 H   0  0  0  0  0  0  0  0  0  0  0  0
    7.7817    1.2567    0.0000 H   0  0  0  0  0  0  0  0  0  0  0  0
    4.7454   -2.8057    0.0000 H   0  0  0  0  0  0  0  0  0  0  0  0
    7.8824   -1.6417    0.0000 H   0  0  0  0  0  0  0  0  0  0  0  0
    8.6806   -1.6509    0.0000 H   0  0  0  0  0  0  0  0  0  0  0  0
    6.9256    1.3377    0.0000 H   0  0  0  0  0  0  0  0  0  0  0  0
    6.1285    1.3377    0.0000 H   0  0  0  0  0  0  0  0  0  0  0  0
    5.4490    0.9454    0.0000 H   0  0  0  0  0  0  0  0  0  0  0  0
    5.0504    0.2551    0.0000 H   0  0  0  0  0  0  0  0  0  0  0  0
    6.7612   -2.7592    0.0000 H   0  0  0  0  0  0  0  0  0  0  0  0
    7.1523   -2.0632    0.0000 H   0  0  0  0  0  0  0  0  0  0  0  0
    9.4022   -1.2418    0.0000 H   0  0  0  0  0  0  0  0  0  0  0  0
    9.8040   -0.5520    0.0000 H   0  0  0  0  0  0  0  0  0  0  0  0
    5.2478   -3.1825    0.0000 H   0  0  0  0  0  0  0  0  0  0  0  0
    6.0460   -3.1794    0.0000 H   0  0  0  0  0  0  0  0  0  0  0  0
    7.8992    1.7476    0.0000 H   0  0  0  0  0  0  0  0  0  0  0  0
    7.1526   -1.7890    0.0000 H   0  0  0  0  0  0  0  0  0  0  0  0
    7.9473   -2.1595    0.0000 H   0  0  0  0  0  0  0  0  0  0  0  0
    8.3178   -1.3648    0.0000 H   0  0  0  0  0  0  0  0  0  0  0  0
    6.6949   -2.3018    0.0000 H   0  0  0  0  0  0  0  0  0  0  0  0
    7.5684   -2.3782    0.0000 H   0  0  0  0  0  0  0  0  0  0  0  0
    7.6448   -1.5048    0.0000 H   0  0  0  0  0  0  0  0  0  0  0  0
   10.3247    0.5863    0.0000 H   0  0  0  0  0  0  0  0  0  0  0  0
   10.4895    1.3992    0.0000 H   0  0  0  0  0  0  0  0  0  0  0  0
    4.2324   -0.1134    0.0000 H   0  0  0  0  0  0  0  0  0  0  0  0
    3.4343   -0.0980    0.0000 H   0  0  0  0  0  0  0  0  0  0  0  0
   10.1143    2.2229    0.0000 H   0  0  0  0  0  0  0  0  0  0  0  0
    9.3928    2.6321    0.0000 H   0  0  0  0  0  0  0  0  0  0  0  0
    5.3787   -0.1489    0.0000 H   0  0  0  0  0  0  0  0  0  0  0  0
    4.7635    0.4759    0.0000 H   0  0  0  0  0  0  0  0  0  0  0  0
    4.1388   -0.1393    0.0000 H   0  0  0  0  0  0  0  0  0  0  0  0
    2.6718   -0.5227    0.0000 H   0  0  0  0  0  0  0  0  0  0  0  0
    2.2647   -1.2093    0.0000 H   0  0  0  0  0  0  0  0  0  0  0  0
    2.7728   -3.2954    0.0000 H   0  0  0  0  0  0  0  0  0  0  0  0
    3.0030   -4.1415    0.0000 H   0  0  0  0  0  0  0  0  0  0  0  0
    3.8490   -3.9113    0.0000 H   0  0  0  0  0  0  0  0  0  0  0  0
    3.7752   -3.9116    0.0000 H   0  0  0  0  0  0  0  0  0  0  0  0
    4.6230   -4.1352    0.0000 H   0  0  0  0  0  0  0  0  0  0  0  0
    4.8466   -3.2874    0.0000 H   0  0  0  0  0  0  0  0  0  0  0  0
   10.9203    1.0169    0.0000 H   0  0  0  0  0  0  0  0  0  0  0  0
    8.7177    3.4153    0.0000 H   0  0  0  0  0  0  0  0  0  0  0  0
    8.3150    4.1941    0.0000 H   0  0  0  0  0  0  0  0  0  0  0  0
    7.5361    3.7914    0.0000 H   0  0  0  0  0  0  0  0  0  0  0  0
    6.4291    2.8950    0.0000 H   0  0  0  0  0  0  0  0  0  0  0  0
    6.6586    1.8459    0.0000 H   0  0  0  0  0  0  0  0  0  0  0  0
   11.4001   -0.5744    0.0000 H   0  0  0  0  0  0  0  0  0  0  0  0
   12.1971   -0.5682    0.0000 H   0  0  0  0  0  0  0  0  0  0  0  0
   13.0519    0.8883    0.0000 H   0  0  0  0  0  0  0  0  0  0  0  0
   12.2549    0.8821    0.0000 H   0  0  0  0  0  0  0  0  0  0  0  0
   14.0615    0.2311    0.0000 H   0  0  0  0  0  0  0  0  0  0  0  0
  1 27  2  0  0  0  0
  2 29  2  0  0  0  0
  3 36  1  0  0  0  0
  3 87  1  0  0  0  0
  4 27  1  0  0  0  0
  4 35  1  0  0  0  0
  4 77  1  0  0  0  0
  5  6  1  0  0  0  0
  5  7  1  0  0  0  0
  5 13  1  0  0  0  0
  5 20  1  1  0  0  0
  6  8  1  0  0  0  0
  6 16  1  0  0  0  0
  6 21  1  1  0  0  0
  7  9  1  0  0  0  0
  7 14  1  0  0  0  0
  7 37  1  0  0  0  0
  8 10  1  0  0  0  0
  8 15  1  0  0  0  0
  8 38  1  0  0  0  0
  9 11  1  0  0  0  0
  9 19  1  0  0  0  0
  9 39  1  0  0  0  0
 10 12  1  0  0  0  0
 10 23  1  0  0  0  0
 10 26  1  1  0  0  0
 11 17  1  0  0  0  0
 11 22  1  0  0  0  0
 11 27  1  1  0  0  0
 12 18  1  0  0  0  0
 12 24  1  0  0  0  0
 12 40  1  0  0  0  0
 13 17  1  0  0  0  0
 13 41  1  0  0  0  0
 13 42  1  0  0  0  0
 14 15  1  0  0  0  0
 14 43  1  0  0  0  0
 14 44  1  0  0  0  0
 15 45  1  0  0  0  0
 15 46  1  0  0  0  0
 16 18  1  0  0  0  0
 16 47  1  0  0  0  0
 16 48  1  0  0  0  0
 17 49  1  0  0  0  0
 17 50  1  0  0  0  0
 18 51  1  0  0  0  0
 18 52  1  0  0  0  0
 19 25  1  0  0  0  0
 19 30  1  0  0  0  0
 19 53  1  0  0  0  0
 20 54  1  0  0  0  0
 20 55  1  0  0  0  0
 20 56  1  0  0  0  0
 21 57  1  0  0  0  0
 21 58  1  0  0  0  0
 21 59  1  0  0  0  0
 22 25  1  0  0  0  0
 22 60  1  0  0  0  0
 22 61  1  0  0  0  0
 23 28  1  0  0  0  0
 23 62  1  0  0  0  0
 23 63  1  0  0  0  0
 24 29  1  0  0  0  0
 24 31  1  0  0  0  0
 24 32  1  0  0  0  0
 25 64  1  0  0  0  0
 25 65  1  0  0  0  0
 26 66  1  0  0  0  0
 26 67  1  0  0  0  0
 26 68  1  0  0  0  0
 28 29  1  0  0  0  0
 28 69  1  0  0  0  0
 28 70  1  0  0  0  0
 30 33  1  0  0  0  0
 30 34  2  0  0  0  0
 31 71  1  0  0  0  0
 31 72  1  0  0  0  0
 31 73  1  0  0  0  0
 32 74  1  0  0  0  0
 32 75  1  0  0  0  0
 32 76  1  0  0  0  0
 33 78  1  0  0  0  0
 33 79  1  0  0  0  0
 33 80  1  0  0  0  0
 34 81  1  0  0  0  0
 34 82  1  0  0  0  0
 35 36  1  0  0  0  0
 35 83  1  0  0  0  0
 35 84  1  0  0  0  0
 36 85  1  0  0  0  0
 36 86  1  0  0  0  0
M  END
> <PUBCHEM_COMPOUND_CID>
510958
> <PUBCHEM_COMPOUND_CANONICALIZED>
1
> <PUBCHEM_CACTVS_COMPLEXITY>
955
> <PUBCHEM_CACTVS_HBOND_ACCEPTOR>
3
> <PUBCHEM_CACTVS_HBOND_DONOR>
2
> <PUBCHEM_CACTVS_ROTATABLE_BOND>
4
> <PUBCHEM_CACTVS_SUBSKEYS>
AAADcfB+MAAAAAAAAAAAAAAAAAAAAYAAAAAwYMGAAAAAAGDAAAAAHgAQCAAADwThgAYCAALAAgCIAoFSEAAAAAAgAAAAAIEIAAgCEBIAgQAEAAAAlgCQAAEYiMCPgAAAAAAAAACAAAQAACAAAQAACAAAAA==
> <PUBCHEM_IUPAC_OPENEYE_NAME>
(1R,3aS,5aS,5bR,11aR)-N-(2-hydroxyethyl)-1-isopropenyl-5a,5b,8,8,11a-pentamethyl-9-oxo-2,3,4,5,6,7,7a,10,11,11b,12,13,13a,13b-tetradecahydro-1H-cyclopenta[a]chrysene-3a-carboxamide
> <PUBCHEM_IUPAC_CAS_NAME>
(1R,3aS,5aS,5bR,11aR)-N-(2-hydroxyethyl)-5a,5b,8,8,11a-pentamethyl-1-(1-methylethenyl)-9-oxo-2,3,4,5,6,7,7a,10,11,11b,12,13,13a,13b-tetradecahydro-1H-cyclopenta[a]chrysene-3a-carboxamide
> <PUBCHEM_IUPAC_NAME_MARKUP>
(1<I>R</I>,3<I>a</I><I>S</I>,5<I>a</I><I>S</I>,5<I>b</I><I>R</I>,11<I>a</I><I>R</I>)-<I>N</I>-(2-hydroxyethyl)-5<I>a</I>,5<I>b</I>,8,8,11<I>a</I>-pentamethyl-9-oxo-1-prop-1-en-2-yl-2,3,4,5,6,7,7<I>a</I>,10,11,11<I>b</I>,12,13,13<I>a</I>,13<I>b</I>-tetradecahydro-1<I>H</I>-cyclopenta[a]chrysene-3<I>a</I>-carboxamide
> <PUBCHEM_IUPAC_NAME>
(1R,3aS,5aS,5bR,11aR)-N-(2-hydroxyethyl)-5a,5b,8,8,11a-pentamethyl-9-oxo-1-prop-1-en-2-yl-2,3,4,5,6,7,7a,10,11,11b,12,13,13a,13b-tetradecahydro-1H-cyclopenta[a]chrysene-3a-carboxamide
> <PUBCHEM_IUPAC_SYSTEMATIC_NAME>
(1R,3aS,5aS,5bR,11aR)-N-(2-hydroxyethyl)-5a,5b,8,8,11a-pentamethyl-9-oxidanylidene-1-prop-1-en-2-yl-2,3,4,5,6,7,7a,10,11,11b,12,13,13a,13b-tetradecahydro-1H-cyclopenta[a]chrysene-3a-carboxamide
> <PUBCHEM_IUPAC_TRADITIONAL_NAME>
(1R,3aS,5aS,5bR,11aR)-N-(2-hydroxyethyl)-1-isopropenyl-9-keto-5a,5b,8,8,11a-pentamethyl-2,3,4,5,6,7,7a,10,11,11b,12,13,13a,13b-tetradecahydro-1H-cyclopenta[a]chrysene-3a-carboxamide
> <PUBCHEM_IUPAC_INCHI>
InChI=1S/C32H51NO3/c1-20(2)21-10-15-32(27(36)33-18-19-34)17-16-30(6)22(26(21)32)8-9-24-29(5)13-12-25(35)28(3,4)23(29)11-14-31(24,30)7/h21-24,26,34H,1,8-19H2,2-7H3,(H,33,36)/t21-,22?,23?,24?,26?,29-,30-,31+,32-/m0/s1
> <PUBCHEM_IUPAC_INCHIKEY>
GNDJHQSITGZIHC-QFPGZCFKSA-N
> <PUBCHEM_XLOGP3_AA>
7
> <PUBCHEM_EXACT_MASS>
497.38689449
> <PUBCHEM_MOLECULAR_FORMULA>
C32H51NO3
> <PUBCHEM_MOLECULAR_WEIGHT>
497.8
> <PUBCHEM_OPENEYE_CAN_SMILES>
CC(=C)C1CCC2(C1C3CCC4C5(CCC(=O)C(C5CCC4(C3(CC2)C)C)(C)C)C)C(=O)NCCO
> <PUBCHEM_OPENEYE_ISO_SMILES>
CC(=C)[C@@H]1CC[C@]2(C1C3CCC4[C@]5(CCC(=O)C(C5CC[C@]4([C@]3(CC2)C)C)(C)C)C)C(=O)NCCO
> <PUBCHEM_CACTVS_TPSA>
66.4
> <PUBCHEM_MONOISOTOPIC_WEIGHT>
497.38689449
> <PUBCHEM_TOTAL_CHARGE>
0
> <PUBCHEM_HEAVY_ATOM_COUNT>
36
> <PUBCHEM_ATOM_DEF_STEREO_COUNT>
5
> <PUBCHEM_ATOM_UDEF_STEREO_COUNT>
4
> <PUBCHEM_BOND_DEF_STEREO_COUNT>
0
> <PUBCHEM_BOND_UDEF_STEREO_COUNT>
0
> <PUBCHEM_ISOTOPIC_ATOM_COUNT>
0
> <PUBCHEM_COMPONENT_COUNT>
1
> <PUBCHEM_CACTVS_TAUTO_COUNT>
-1
> <PUBCHEM_COORDINATE_TYPE>
1
5
255
> <PUBCHEM_BONDANNOTATIONS>
10  26  5
11  27  5
12  18  3
5  20  5
6  21  5
7  14  3
8  15  3
9  19  3
$$$$
