510952
  -OEChem-10302200282D
 78 82  0     1  0  0  0  0  0999 V2000
    2.0000   -2.6896    0.0000 O   0  0  0  0  0  0  0  0  0  0  0  0
   11.7872    0.9036    0.0000 O   0  0  0  0  0  0  0  0  0  0  0  0
   10.0629   -0.1097    0.0000 N   0  0  0  0  0  0  0  0  0  0  0  0
    6.5271   -1.1372    0.0000 C   0  0  1  0  0  0  0  0  0  0  0  0
    7.3931   -0.6372    0.0000 C   0  0  2  0  0  0  0  0  0  0  0  0
    5.6610   -0.6372    0.0000 C   0  0  3  0  0  0  0  0  0  0  0  0
    7.3931    0.3628    0.0000 C   0  0  3  0  0  0  0  0  0  0  0  0
    4.7510   -1.1441    0.0000 C   0  0  2  0  0  0  0  0  0  0  0  0
    8.2870    0.8974    0.0000 C   0  0  3  0  0  0  0  0  0  0  0  0
    4.7430   -2.1857    0.0000 C   0  0  3  0  0  0  0  0  0  0  0  0
    9.1931    0.3836    0.0000 C   0  0  2  0  0  0  0  0  0  0  0  0
    6.5431   -2.1788    0.0000 C   0  0  0  0  0  0  0  0  0  0  0  0
    5.6610    0.3628    0.0000 C   0  0  0  0  0  0  0  0  0  0  0  0
    8.2870   -1.1719    0.0000 C   0  0  0  0  0  0  0  0  0  0  0  0
    6.5271    0.8628    0.0000 C   0  0  0  0  0  0  0  0  0  0  0  0
    5.6451   -2.7065    0.0000 C   0  0  0  0  0  0  0  0  0  0  0  0
    9.1931   -0.6581    0.0000 C   0  0  0  0  0  0  0  0  0  0  0  0
    8.4971    1.9113    0.0000 C   0  0  1  0  0  0  0  0  0  0  0  0
    7.1698   -1.9033    0.0000 C   0  0  0  0  0  0  0  0  0  0  0  0
    7.7352   -1.5769    0.0000 C   0  0  0  0  0  0  0  0  0  0  0  0
    3.8242   -0.5800    0.0000 C   0  0  0  0  0  0  0  0  0  0  0  0
    3.8076   -2.7354    0.0000 C   0  0  0  0  0  0  0  0  0  0  0  0
    9.9554    1.0843    0.0000 C   0  0  0  0  0  0  0  0  0  0  0  0
    9.5262    2.0266    0.0000 C   0  0  0  0  0  0  0  0  0  0  0  0
    4.7587   -0.1441    0.0000 C   0  0  0  0  0  0  0  0  0  0  0  0
    2.8763   -1.1080    0.0000 C   0  0  0  0  0  0  0  0  0  0  0  0
    2.8680   -2.1929    0.0000 C   0  0  0  0  0  0  0  0  0  0  0  0
    7.8236    2.6505    0.0000 C   0  0  0  0  0  0  0  0  0  0  0  0
    3.3109   -3.6034    0.0000 C   0  0  0  0  0  0  0  0  0  0  0  0
    4.3109   -3.5995    0.0000 C   0  0  0  0  0  0  0  0  0  0  0  0
    8.1269    3.6034    0.0000 C   0  0  0  0  0  0  0  0  0  0  0  0
    6.8467    2.4367    0.0000 C   0  0  0  0  0  0  0  0  0  0  0  0
   10.9251    0.3969    0.0000 C   0  0  0  0  0  0  0  0  0  0  0  0
    6.1980   -0.3272    0.0000 H   0  0  0  0  0  0  0  0  0  0  0  0
    7.3883    0.9827    0.0000 H   0  0  0  0  0  0  0  0  0  0  0  0
    7.7817    1.2567    0.0000 H   0  0  0  0  0  0  0  0  0  0  0  0
    4.7454   -2.8057    0.0000 H   0  0  0  0  0  0  0  0  0  0  0  0
    6.7612   -2.7592    0.0000 H   0  0  0  0  0  0  0  0  0  0  0  0
    7.1523   -2.0632    0.0000 H   0  0  0  0  0  0  0  0  0  0  0  0
    5.4490    0.9454    0.0000 H   0  0  0  0  0  0  0  0  0  0  0  0
    5.0504    0.2551    0.0000 H   0  0  0  0  0  0  0  0  0  0  0  0
    7.8824   -1.6417    0.0000 H   0  0  0  0  0  0  0  0  0  0  0  0
    8.6806   -1.6509    0.0000 H   0  0  0  0  0  0  0  0  0  0  0  0
    6.9256    1.3377    0.0000 H   0  0  0  0  0  0  0  0  0  0  0  0
    6.1285    1.3377    0.0000 H   0  0  0  0  0  0  0  0  0  0  0  0
    5.2478   -3.1825    0.0000 H   0  0  0  0  0  0  0  0  0  0  0  0
    6.0460   -3.1794    0.0000 H   0  0  0  0  0  0  0  0  0  0  0  0
    9.4022   -1.2418    0.0000 H   0  0  0  0  0  0  0  0  0  0  0  0
    9.8040   -0.5520    0.0000 H   0  0  0  0  0  0  0  0  0  0  0  0
    7.8992    1.7476    0.0000 H   0  0  0  0  0  0  0  0  0  0  0  0
    6.6949   -2.3018    0.0000 H   0  0  0  0  0  0  0  0  0  0  0  0
    7.5684   -2.3782    0.0000 H   0  0  0  0  0  0  0  0  0  0  0  0
    7.6448   -1.5048    0.0000 H   0  0  0  0  0  0  0  0  0  0  0  0
    7.1526   -1.7890    0.0000 H   0  0  0  0  0  0  0  0  0  0  0  0
    7.9473   -2.1595    0.0000 H   0  0  0  0  0  0  0  0  0  0  0  0
    8.3178   -1.3648    0.0000 H   0  0  0  0  0  0  0  0  0  0  0  0
    4.2324   -0.1134    0.0000 H   0  0  0  0  0  0  0  0  0  0  0  0
    3.4343   -0.0980    0.0000 H   0  0  0  0  0  0  0  0  0  0  0  0
   10.3247    0.5863    0.0000 H   0  0  0  0  0  0  0  0  0  0  0  0
   10.4895    1.3992    0.0000 H   0  0  0  0  0  0  0  0  0  0  0  0
   10.1143    2.2229    0.0000 H   0  0  0  0  0  0  0  0  0  0  0  0
    9.3928    2.6321    0.0000 H   0  0  0  0  0  0  0  0  0  0  0  0
    5.3787   -0.1489    0.0000 H   0  0  0  0  0  0  0  0  0  0  0  0
    4.7635    0.4759    0.0000 H   0  0  0  0  0  0  0  0  0  0  0  0
    4.1388   -0.1393    0.0000 H   0  0  0  0  0  0  0  0  0  0  0  0
    2.6718   -0.5227    0.0000 H   0  0  0  0  0  0  0  0  0  0  0  0
    2.2647   -1.2093    0.0000 H   0  0  0  0  0  0  0  0  0  0  0  0
    2.7728   -3.2954    0.0000 H   0  0  0  0  0  0  0  0  0  0  0  0
    3.0030   -4.1415    0.0000 H   0  0  0  0  0  0  0  0  0  0  0  0
    3.8490   -3.9113    0.0000 H   0  0  0  0  0  0  0  0  0  0  0  0
    3.7752   -3.9116    0.0000 H   0  0  0  0  0  0  0  0  0  0  0  0
    4.6230   -4.1352    0.0000 H   0  0  0  0  0  0  0  0  0  0  0  0
    4.8466   -3.2874    0.0000 H   0  0  0  0  0  0  0  0  0  0  0  0
    8.7177    3.4153    0.0000 H   0  0  0  0  0  0  0  0  0  0  0  0
    8.3150    4.1941    0.0000 H   0  0  0  0  0  0  0  0  0  0  0  0
    7.5361    3.7914    0.0000 H   0  0  0  0  0  0  0  0  0  0  0  0
    6.4291    2.8950    0.0000 H   0  0  0  0  0  0  0  0  0  0  0  0
    6.6586    1.8459    0.0000 H   0  0  0  0  0  0  0  0  0  0  0  0
  1 27  2  0  0  0  0
  2 33  2  0  0  0  0
 11  3  1  1  0  0  0
  3 33  2  0  0  0  0
  4  5  1  0  0  0  0
  4  6  1  0  0  0  0
  4 12  1  0  0  0  0
  4 19  1  1  0  0  0
  5  7  1  0  0  0  0
  5 14  1  0  0  0  0
  5 20  1  1  0  0  0
  6  8  1  0  0  0  0
  6 13  1  0  0  0  0
  6 34  1  0  0  0  0
  7  9  1  0  0  0  0
  7 15  1  0  0  0  0
  7 35  1  0  0  0  0
  8 10  1  0  0  0  0
  8 21  1  0  0  0  0
  8 25  1  1  0  0  0
  9 11  1  0  0  0  0
  9 18  1  0  0  0  0
  9 36  1  0  0  0  0
 10 16  1  0  0  0  0
 10 22  1  0  0  0  0
 10 37  1  0  0  0  0
 11 17  1  0  0  0  0
 11 23  1  0  0  0  0
 12 16  1  0  0  0  0
 12 38  1  0  0  0  0
 12 39  1  0  0  0  0
 13 15  1  0  0  0  0
 13 40  1  0  0  0  0
 13 41  1  0  0  0  0
 14 17  1  0  0  0  0
 14 42  1  0  0  0  0
 14 43  1  0  0  0  0
 15 44  1  0  0  0  0
 15 45  1  0  0  0  0
 16 46  1  0  0  0  0
 16 47  1  0  0  0  0
 17 48  1  0  0  0  0
 17 49  1  0  0  0  0
 18 24  1  0  0  0  0
 18 28  1  0  0  0  0
 18 50  1  0  0  0  0
 19 51  1  0  0  0  0
 19 52  1  0  0  0  0
 19 53  1  0  0  0  0
 20 54  1  0  0  0  0
 20 55  1  0  0  0  0
 20 56  1  0  0  0  0
 21 26  1  0  0  0  0
 21 57  1  0  0  0  0
 21 58  1  0  0  0  0
 22 27  1  0  0  0  0
 22 29  1  0  0  0  0
 22 30  1  0  0  0  0
 23 24  1  0  0  0  0
 23 59  1  0  0  0  0
 23 60  1  0  0  0  0
 24 61  1  0  0  0  0
 24 62  1  0  0  0  0
 25 63  1  0  0  0  0
 25 64  1  0  0  0  0
 25 65  1  0  0  0  0
 26 27  1  0  0  0  0
 26 66  1  0  0  0  0
 26 67  1  0  0  0  0
 28 31  1  0  0  0  0
 28 32  2  0  0  0  0
 29 68  1  0  0  0  0
 29 69  1  0  0  0  0
 29 70  1  0  0  0  0
 30 71  1  0  0  0  0
 30 72  1  0  0  0  0
 30 73  1  0  0  0  0
 31 74  1  0  0  0  0
 31 75  1  0  0  0  0
 31 76  1  0  0  0  0
 32 77  1  0  0  0  0
 32 78  1  0  0  0  0
M  END
> <PUBCHEM_COMPOUND_CID>
510952
> <PUBCHEM_COMPOUND_CANONICALIZED>
1
> <PUBCHEM_CACTVS_COMPLEXITY>
930
> <PUBCHEM_CACTVS_HBOND_ACCEPTOR>
3
> <PUBCHEM_CACTVS_HBOND_DONOR>
0
> <PUBCHEM_CACTVS_ROTATABLE_BOND>
2
> <PUBCHEM_CACTVS_SUBSKEYS>
AAADcfB6MAAAAAAAAAAAAAAAAAAAAYAAAAAwYMGAAAAAAGDAAAAAHgAAAAAAD4yBgAACAAIAAACoAoBSFAAAAAAgAAAAAAEAAAgAABIAgQAAAAAAgAAAAAEYiMCPgAAAAAAAAACQAASAACQAASAACQAAAA==
> <PUBCHEM_IUPAC_OPENEYE_NAME>
(1R,3aS,5aS,5bR,11aR)-3a-isocyanato-1-isopropenyl-5a,5b,8,8,11a-pentamethyl-2,3,4,5,6,7,7a,10,11,11b,12,13,13a,13b-tetradecahydro-1H-cyclopenta[a]chrysen-9-one
> <PUBCHEM_IUPAC_CAS_NAME>
(1R,3aS,5aS,5bR,11aR)-3a-isocyanato-5a,5b,8,8,11a-pentamethyl-1-(1-methylethenyl)-2,3,4,5,6,7,7a,10,11,11b,12,13,13a,13b-tetradecahydro-1H-cyclopenta[a]chrysen-9-one
> <PUBCHEM_IUPAC_NAME_MARKUP>
(1<I>R</I>,3<I>a</I><I>S</I>,5<I>a</I><I>S</I>,5<I>b</I><I>R</I>,11<I>a</I><I>R</I>)-3<I>a</I>-isocyanato-5<I>a</I>,5<I>b</I>,8,8,11<I>a</I>-pentamethyl-1-prop-1-en-2-yl-2,3,4,5,6,7,7<I>a</I>,10,11,11<I>b</I>,12,13,13<I>a</I>,13<I>b</I>-tetradecahydro-1<I>H</I>-cyclopenta[a]chrysen-9-one
> <PUBCHEM_IUPAC_NAME>
(1R,3aS,5aS,5bR,11aR)-3a-isocyanato-5a,5b,8,8,11a-pentamethyl-1-prop-1-en-2-yl-2,3,4,5,6,7,7a,10,11,11b,12,13,13a,13b-tetradecahydro-1H-cyclopenta[a]chrysen-9-one
> <PUBCHEM_IUPAC_SYSTEMATIC_NAME>
(1R,3aS,5aS,5bR,11aR)-3a-isocyanato-5a,5b,8,8,11a-pentamethyl-1-prop-1-en-2-yl-2,3,4,5,6,7,7a,10,11,11b,12,13,13a,13b-tetradecahydro-1H-cyclopenta[a]chrysen-9-one
> <PUBCHEM_IUPAC_TRADITIONAL_NAME>
(1R,3aS,5aS,5bR,11aR)-3a-isocyanato-1-isopropenyl-5a,5b,8,8,11a-pentamethyl-2,3,4,5,6,7,7a,10,11,11b,12,13,13a,13b-tetradecahydro-1H-cyclopenta[a]chrysen-9-one
> <PUBCHEM_IUPAC_INCHI>
InChI=1S/C30H45NO2/c1-19(2)20-10-15-30(31-18-32)17-16-28(6)21(25(20)30)8-9-23-27(5)13-12-24(33)26(3,4)22(27)11-14-29(23,28)7/h20-23,25H,1,8-17H2,2-7H3/t20-,21?,22?,23?,25?,27-,28-,29+,30-/m0/s1
> <PUBCHEM_IUPAC_INCHIKEY>
VQWHXXYGQNAQAN-FASSHOGASA-N
> <PUBCHEM_XLOGP3_AA>
8.8
> <PUBCHEM_EXACT_MASS>
451.345029678
> <PUBCHEM_MOLECULAR_FORMULA>
C30H45NO2
> <PUBCHEM_MOLECULAR_WEIGHT>
451.7
> <PUBCHEM_OPENEYE_CAN_SMILES>
CC(=C)C1CCC2(C1C3CCC4C5(CCC(=O)C(C5CCC4(C3(CC2)C)C)(C)C)C)N=C=O
> <PUBCHEM_OPENEYE_ISO_SMILES>
CC(=C)[C@@H]1CC[C@]2(C1C3CCC4[C@]5(CCC(=O)C(C5CC[C@]4([C@]3(CC2)C)C)(C)C)C)N=C=O
> <PUBCHEM_CACTVS_TPSA>
46.5
> <PUBCHEM_MONOISOTOPIC_WEIGHT>
451.345029678
> <PUBCHEM_TOTAL_CHARGE>
0
> <PUBCHEM_HEAVY_ATOM_COUNT>
33
> <PUBCHEM_ATOM_DEF_STEREO_COUNT>
5
> <PUBCHEM_ATOM_UDEF_STEREO_COUNT>
4
> <PUBCHEM_BOND_DEF_STEREO_COUNT>
0
> <PUBCHEM_BOND_UDEF_STEREO_COUNT>
0
> <PUBCHEM_ISOTOPIC_ATOM_COUNT>
0
> <PUBCHEM_COMPONENT_COUNT>
1
> <PUBCHEM_CACTVS_TAUTO_COUNT>
-1
> <PUBCHEM_COORDINATE_TYPE>
1
5
255
> <PUBCHEM_BONDANNOTATIONS>
10  16  3
11  3  5
4  19  5
5  20  5
6  13  3
7  15  3
8  25  5
9  18  3
$$$$
