510994
  -OEChem-10302200282D
 32 33  0     1  0  0  0  0  0999 V2000
    2.0000    2.7175    0.0000 F   0  0  0  0  0  0  0  0  0  0  0  0
    2.3660    1.3514    0.0000 F   0  0  0  0  0  0  0  0  0  0  0  0
    3.3660    3.0835    0.0000 F   0  0  0  0  0  0  0  0  0  0  0  0
    5.4071   -1.3703    0.0000 O   0  0  0  0  0  0  0  0  0  0  0  0
    3.5103   -3.1304    0.0000 O   0  0  0  0  0  0  0  0  0  0  0  0
    6.6804   -3.0259    0.0000 O   0  0  0  0  0  0  0  0  0  0  0  0
    6.3301    0.2175    0.0000 O   0  0  0  0  0  0  0  0  0  0  0  0
    4.5981    0.2175    0.0000 N   0  0  0  0  0  0  0  0  0  0  0  0
    5.4641    1.7175    0.0000 N   0  0  0  0  0  0  0  0  0  0  0  0
    4.5981    3.2175    0.0000 N   0  0  0  0  0  0  0  0  0  0  0  0
    4.0981   -2.3214    0.0000 C   0  0  2  0  0  0  0  0  0  0  0  0
    4.5981   -0.7825    0.0000 C   0  0  2  0  0  0  0  0  0  0  0  0
    3.7891   -1.3703    0.0000 C   0  0  0  0  0  0  0  0  0  0  0  0
    5.0981   -2.3214    0.0000 C   0  0  2  0  0  0  0  0  0  0  0  0
    5.6859   -3.1304    0.0000 C   0  0  0  0  0  0  0  0  0  0  0  0
    3.7320    0.7175    0.0000 C   0  0  0  0  0  0  0  0  0  0  0  0
    5.4641    0.7175    0.0000 C   0  0  0  0  0  0  0  0  0  0  0  0
    3.7320    1.7175    0.0000 C   0  0  0  0  0  0  0  0  0  0  0  0
    4.5981    2.2175    0.0000 C   0  0  0  0  0  0  0  0  0  0  0  0
    2.8660    2.2175    0.0000 C   0  0  0  0  0  0  0  0  0  0  0  0
    4.3796   -2.8738    0.0000 H   0  0  0  0  0  0  0  0  0  0  0  0
    5.1505   -0.5011    0.0000 H   0  0  0  0  0  0  0  0  0  0  0  0
    3.4791   -0.8334    0.0000 H   0  0  0  0  0  0  0  0  0  0  0  0
    3.2227   -1.6225    0.0000 H   0  0  0  0  0  0  0  0  0  0  0  0
    5.7104   -2.2244    0.0000 H   0  0  0  0  0  0  0  0  0  0  0  0
    5.1286   -3.4022    0.0000 H   0  0  0  0  0  0  0  0  0  0  0  0
    5.8568   -3.7264    0.0000 H   0  0  0  0  0  0  0  0  0  0  0  0
    3.1951    0.4075    0.0000 H   0  0  0  0  0  0  0  0  0  0  0  0
    2.8937   -3.0656    0.0000 H   0  0  0  0  0  0  0  0  0  0  0  0
    7.0448   -3.5275    0.0000 H   0  0  0  0  0  0  0  0  0  0  0  0
    5.1350    3.5275    0.0000 H   0  0  0  0  0  0  0  0  0  0  0  0
    4.0611    3.5275    0.0000 H   0  0  0  0  0  0  0  0  0  0  0  0
  1 20  1  0  0  0  0
  2 20  1  0  0  0  0
  3 20  1  0  0  0  0
  4 12  1  0  0  0  0
  4 14  1  0  0  0  0
 11  5  1  6  0  0  0
  5 29  1  0  0  0  0
  6 15  1  0  0  0  0
  6 30  1  0  0  0  0
  7 17  2  0  0  0  0
 12  8  1  1  0  0  0
  8 16  1  0  0  0  0
  8 17  1  0  0  0  0
  9 17  1  0  0  0  0
  9 19  2  0  0  0  0
 10 19  1  0  0  0  0
 10 31  1  0  0  0  0
 10 32  1  0  0  0  0
 11 13  1  0  0  0  0
 11 14  1  0  0  0  0
 11 21  1  0  0  0  0
 12 13  1  0  0  0  0
 12 22  1  0  0  0  0
 13 23  1  0  0  0  0
 13 24  1  0  0  0  0
 14 15  1  1  0  0  0
 14 25  1  0  0  0  0
 15 26  1  0  0  0  0
 15 27  1  0  0  0  0
 16 18  2  0  0  0  0
 16 28  1  0  0  0  0
 18 19  1  0  0  0  0
 18 20  1  0  0  0  0
M  END
> <PUBCHEM_COMPOUND_CID>
510994
> <PUBCHEM_COMPOUND_CANONICALIZED>
1
> <PUBCHEM_CACTVS_COMPLEXITY>
477
> <PUBCHEM_CACTVS_HBOND_ACCEPTOR>
7
> <PUBCHEM_CACTVS_HBOND_DONOR>
3
> <PUBCHEM_CACTVS_ROTATABLE_BOND>
2
> <PUBCHEM_CACTVS_SUBSKEYS>
AAADccBzOYAAAAAAAAAAAAAAAAAAASAAAAAgAAAAAAAAAAAAAAAAHwAQCAAADBThgBYBAANABgCoAgJmdACAAAEAAAAAAAAoABCBEAIAgAAOQAAHBgIDAACwMAIAAAAAAAAAAAAAAAAAAAAAAAAAAAAAAA==
> <PUBCHEM_IUPAC_OPENEYE_NAME>
4-amino-1-[(2S,4R,5S)-4-hydroxy-5-(hydroxymethyl)tetrahydrofuran-2-yl]-5-(trifluoromethyl)pyrimidin-2-one
> <PUBCHEM_IUPAC_CAS_NAME>
4-amino-1-[(2S,4R,5S)-4-hydroxy-5-(hydroxymethyl)-2-oxolanyl]-5-(trifluoromethyl)-2-pyrimidinone
> <PUBCHEM_IUPAC_NAME_MARKUP>
4-amino-1-[(2<I>S</I>,4<I>R</I>,5<I>S</I>)-4-hydroxy-5-(hydroxymethyl)oxolan-2-yl]-5-(trifluoromethyl)pyrimidin-2-one
> <PUBCHEM_IUPAC_NAME>
4-amino-1-[(2S,4R,5S)-4-hydroxy-5-(hydroxymethyl)oxolan-2-yl]-5-(trifluoromethyl)pyrimidin-2-one
> <PUBCHEM_IUPAC_SYSTEMATIC_NAME>
4-azanyl-1-[(2S,4R,5S)-5-(hydroxymethyl)-4-oxidanyl-oxolan-2-yl]-5-(trifluoromethyl)pyrimidin-2-one
> <PUBCHEM_IUPAC_TRADITIONAL_NAME>
4-amino-1-[(2S,4R,5S)-4-hydroxy-5-methylol-tetrahydrofuran-2-yl]-5-(trifluoromethyl)pyrimidin-2-one
> <PUBCHEM_IUPAC_INCHI>
InChI=1S/C10H12F3N3O4/c11-10(12,13)4-2-16(9(19)15-8(4)14)7-1-5(18)6(3-17)20-7/h2,5-7,17-18H,1,3H2,(H2,14,15,19)/t5-,6+,7+/m1/s1
> <PUBCHEM_IUPAC_INCHIKEY>
XNSPCSMIPDACTB-VQVTYTSYSA-N
> <PUBCHEM_XLOGP3>
-0.9
> <PUBCHEM_EXACT_MASS>
295.07799036
> <PUBCHEM_MOLECULAR_FORMULA>
C10H12F3N3O4
> <PUBCHEM_MOLECULAR_WEIGHT>
295.22
> <PUBCHEM_OPENEYE_CAN_SMILES>
C1C(C(OC1N2C=C(C(=NC2=O)N)C(F)(F)F)CO)O
> <PUBCHEM_OPENEYE_ISO_SMILES>
C1[C@H]([C@@H](O[C@@H]1N2C=C(C(=NC2=O)N)C(F)(F)F)CO)O
> <PUBCHEM_CACTVS_TPSA>
108
> <PUBCHEM_MONOISOTOPIC_WEIGHT>
295.07799036
> <PUBCHEM_TOTAL_CHARGE>
0
> <PUBCHEM_HEAVY_ATOM_COUNT>
20
> <PUBCHEM_ATOM_DEF_STEREO_COUNT>
3
> <PUBCHEM_ATOM_UDEF_STEREO_COUNT>
0
> <PUBCHEM_BOND_DEF_STEREO_COUNT>
0
> <PUBCHEM_BOND_UDEF_STEREO_COUNT>
0
> <PUBCHEM_ISOTOPIC_ATOM_COUNT>
0
> <PUBCHEM_COMPONENT_COUNT>
1
> <PUBCHEM_CACTVS_TAUTO_COUNT>
-1
> <PUBCHEM_COORDINATE_TYPE>
1
5
255
> <PUBCHEM_BONDANNOTATIONS>
14  15  5
16  18  8
18  19  8
11  5  6
12  8  5
8  16  8
8  17  8
9  17  8
9  19  8
$$$$
