510970
  -OEChem-10302200282D
 32 33  0     1  0  0  0  0  0999 V2000
    2.6420   -0.7584    0.0000 O   0  0  0  0  0  0  0  0  0  0  0  0
    4.5388   -2.5184    0.0000 O   0  0  0  0  0  0  0  0  0  0  0  0
    5.2111   -0.4493    0.0000 O   0  0  0  0  0  0  0  0  0  0  0  0
    2.0850   -3.2094    0.0000 O   0  0  0  0  0  0  0  0  0  0  0  0
    5.1831    0.8294    0.0000 O   0  0  0  0  0  0  0  0  0  0  0  0
    3.4511    3.8294    0.0000 O   0  0  0  0  0  0  0  0  0  0  0  0
    3.4511    0.8294    0.0000 N   0  0  0  0  0  0  0  0  0  0  0  0
    4.3171    2.3294    0.0000 N   0  0  0  0  0  0  0  0  0  0  0  0
    2.9511   -1.7094    0.0000 C   0  0  1  0  0  0  0  0  0  0  0  0
    3.9511   -1.7094    0.0000 C   0  0  2  0  0  0  0  0  0  0  0  0
    4.2601   -0.7584    0.0000 C   0  0  2  0  0  0  0  0  0  0  0  0
    3.4511   -0.1706    0.0000 C   0  0  1  0  0  0  0  0  0  0  0  0
    2.9511   -2.7094    0.0000 C   0  0  0  0  0  0  0  0  0  0  0  0
    2.0000   -2.0184    0.0000 C   0  0  0  0  0  0  0  0  0  0  0  0
    4.3171    1.3294    0.0000 C   0  0  0  0  0  0  0  0  0  0  0  0
    2.5850    1.3294    0.0000 C   0  0  0  0  0  0  0  0  0  0  0  0
    2.5850    2.3294    0.0000 C   0  0  0  0  0  0  0  0  0  0  0  0
    3.4511    2.8294    0.0000 C   0  0  0  0  0  0  0  0  0  0  0  0
    3.6696   -2.2618    0.0000 H   0  0  0  0  0  0  0  0  0  0  0  0
    4.6985   -1.1968    0.0000 H   0  0  0  0  0  0  0  0  0  0  0  0
    2.8986    0.1109    0.0000 H   0  0  0  0  0  0  0  0  0  0  0  0
    3.1631   -3.2920    0.0000 H   0  0  0  0  0  0  0  0  0  0  0  0
    3.5616   -2.6018    0.0000 H   0  0  0  0  0  0  0  0  0  0  0  0
    1.8084   -1.4288    0.0000 H   0  0  0  0  0  0  0  0  0  0  0  0
    1.4103   -2.2100    0.0000 H   0  0  0  0  0  0  0  0  0  0  0  0
    2.1916   -2.6081    0.0000 H   0  0  0  0  0  0  0  0  0  0  0  0
    5.1554   -2.4536    0.0000 H   0  0  0  0  0  0  0  0  0  0  0  0
    5.6719   -0.8642    0.0000 H   0  0  0  0  0  0  0  0  0  0  0  0
    2.0481    1.0194    0.0000 H   0  0  0  0  0  0  0  0  0  0  0  0
    2.0850   -3.8294    0.0000 H   0  0  0  0  0  0  0  0  0  0  0  0
    4.8540    2.6394    0.0000 H   0  0  0  0  0  0  0  0  0  0  0  0
    2.0481    2.6394    0.0000 H   0  0  0  0  0  0  0  0  0  0  0  0
  1  9  1  0  0  0  0
  1 12  1  0  0  0  0
 10  2  1  6  0  0  0
  2 27  1  0  0  0  0
 11  3  1  6  0  0  0
  3 28  1  0  0  0  0
  4 13  1  0  0  0  0
  4 30  1  0  0  0  0
  5 15  2  0  0  0  0
  6 18  2  0  0  0  0
 12  7  1  1  0  0  0
  7 15  1  0  0  0  0
  7 16  1  0  0  0  0
  8 15  1  0  0  0  0
  8 18  1  0  0  0  0
  8 31  1  0  0  0  0
  9 10  1  0  0  0  0
  9 13  1  0  0  0  0
  9 14  1  6  0  0  0
 10 11  1  0  0  0  0
 10 19  1  0  0  0  0
 11 12  1  0  0  0  0
 11 20  1  0  0  0  0
 12 21  1  0  0  0  0
 13 22  1  0  0  0  0
 13 23  1  0  0  0  0
 14 24  1  0  0  0  0
 14 25  1  0  0  0  0
 14 26  1  0  0  0  0
 16 17  2  0  0  0  0
 16 29  1  0  0  0  0
 17 18  1  0  0  0  0
 17 32  1  0  0  0  0
M  END
> <PUBCHEM_COMPOUND_CID>
510970
> <PUBCHEM_COMPOUND_CANONICALIZED>
1
> <PUBCHEM_CACTVS_COMPLEXITY>
411
> <PUBCHEM_CACTVS_HBOND_ACCEPTOR>
6
> <PUBCHEM_CACTVS_HBOND_DONOR>
4
> <PUBCHEM_CACTVS_ROTATABLE_BOND>
2
> <PUBCHEM_CACTVS_SUBSKEYS>
AAADccBzOAAAAAAAAAAAAAAAAAAAASAAAAAgAAAAAAAAAAAAAAAAHgAQCAAADFThgAYDAAPABgCIACFWUACAAAAAAgAIAAAIAECDEAIAgAAOQAAPFyITAMDwMAIMAAAAAAAAAAAAAAAAAAAAAAAAAAAAAA==
> <PUBCHEM_IUPAC_OPENEYE_NAME>
1-[(2R,3R,4S,5R)-3,4-dihydroxy-5-(hydroxymethyl)-5-methyl-tetrahydrofuran-2-yl]pyrimidine-2,4-dione
> <PUBCHEM_IUPAC_CAS_NAME>
1-[(2R,3R,4S,5R)-3,4-dihydroxy-5-(hydroxymethyl)-5-methyl-2-oxolanyl]pyrimidine-2,4-dione
> <PUBCHEM_IUPAC_NAME_MARKUP>
1-[(2<I>R</I>,3<I>R</I>,4<I>S</I>,5<I>R</I>)-3,4-dihydroxy-5-(hydroxymethyl)-5-methyloxolan-2-yl]pyrimidine-2,4-dione
> <PUBCHEM_IUPAC_NAME>
1-[(2R,3R,4S,5R)-3,4-dihydroxy-5-(hydroxymethyl)-5-methyloxolan-2-yl]pyrimidine-2,4-dione
> <PUBCHEM_IUPAC_SYSTEMATIC_NAME>
1-[(2R,3R,4S,5R)-5-(hydroxymethyl)-5-methyl-3,4-bis(oxidanyl)oxolan-2-yl]pyrimidine-2,4-dione
> <PUBCHEM_IUPAC_TRADITIONAL_NAME>
1-[(2R,3R,4S,5R)-3,4-dihydroxy-5-methyl-5-methylol-tetrahydrofuran-2-yl]pyrimidine-2,4-quinone
> <PUBCHEM_IUPAC_INCHI>
InChI=1S/C10H14N2O6/c1-10(4-13)7(16)6(15)8(18-10)12-3-2-5(14)11-9(12)17/h2-3,6-8,13,15-16H,4H2,1H3,(H,11,14,17)/t6-,7+,8-,10-/m1/s1
> <PUBCHEM_IUPAC_INCHIKEY>
ALQJCWREHBFHHQ-IBCQBUCCSA-N
> <PUBCHEM_XLOGP3_AA>
-2.1
> <PUBCHEM_EXACT_MASS>
258.08518617
> <PUBCHEM_MOLECULAR_FORMULA>
C10H14N2O6
> <PUBCHEM_MOLECULAR_WEIGHT>
258.23
> <PUBCHEM_OPENEYE_CAN_SMILES>
CC1(C(C(C(O1)N2C=CC(=O)NC2=O)O)O)CO
> <PUBCHEM_OPENEYE_ISO_SMILES>
C[C@]1([C@H]([C@H]([C@@H](O1)N2C=CC(=O)NC2=O)O)O)CO
> <PUBCHEM_CACTVS_TPSA>
119
> <PUBCHEM_MONOISOTOPIC_WEIGHT>
258.08518617
> <PUBCHEM_TOTAL_CHARGE>
0
> <PUBCHEM_HEAVY_ATOM_COUNT>
18
> <PUBCHEM_ATOM_DEF_STEREO_COUNT>
4
> <PUBCHEM_ATOM_UDEF_STEREO_COUNT>
0
> <PUBCHEM_BOND_DEF_STEREO_COUNT>
0
> <PUBCHEM_BOND_UDEF_STEREO_COUNT>
0
> <PUBCHEM_ISOTOPIC_ATOM_COUNT>
0
> <PUBCHEM_COMPONENT_COUNT>
1
> <PUBCHEM_CACTVS_TAUTO_COUNT>
-1
> <PUBCHEM_COORDINATE_TYPE>
1
5
255
> <PUBCHEM_BONDANNOTATIONS>
16  17  8
17  18  8
10  2  6
11  3  6
12  7  5
7  15  8
7  16  8
8  15  8
8  18  8
9  14  6
$$$$
