510981
  -OEChem-10302200282D
 30 32  0     1  0  0  0  0  0999 V2000
    7.0006    0.8919    0.0000 O   0  0  0  0  0  0  0  0  0  0  0  0
    7.9528    3.3934    0.0000 O   0  0  0  0  0  0  0  0  0  0  0  0
    7.2764   -0.8687    0.0000 N   0  0  0  0  0  0  0  0  0  0  0  0
    7.2764   -2.4782    0.0000 N   0  0  0  0  0  0  0  0  0  0  0  0
    5.4641   -0.6734    0.0000 N   0  0  0  0  0  0  0  0  0  0  0  0
    4.5981   -2.1734    0.0000 N   0  0  0  0  0  0  0  0  0  0  0  0
    5.4641   -3.6734    0.0000 N   0  0  0  0  0  0  0  0  0  0  0  0
    3.7320   -0.6734    0.0000 N   0  0  0  0  0  0  0  0  0  0  0  0
    2.8660   -1.1734    0.0000 N   0  3  0  0  0  0  0  0  0  0  0  0
    2.0000   -1.6734    0.0000 N   0  5  0  0  0  0  0  0  0  0  0  0
    7.5870    0.0818    0.0000 C   0  0  1  0  0  0  0  0  0  0  0  0
    7.5898    1.6999    0.0000 C   0  0  1  0  0  0  0  0  0  0  0  0
    8.5386    0.3892    0.0000 C   0  0  0  0  0  0  0  0  0  0  0  0
    8.5403    1.3892    0.0000 C   0  0  0  0  0  0  0  0  0  0  0  0
    6.3301   -1.1734    0.0000 C   0  0  0  0  0  0  0  0  0  0  0  0
    7.2824    2.6514    0.0000 C   0  0  0  0  0  0  0  0  0  0  0  0
    6.3301   -2.1734    0.0000 C   0  0  0  0  0  0  0  0  0  0  0  0
    7.8600   -1.6734    0.0000 C   0  0  0  0  0  0  0  0  0  0  0  0
    5.4641   -2.6734    0.0000 C   0  0  0  0  0  0  0  0  0  0  0  0
    4.5981   -1.1734    0.0000 C   0  0  0  0  0  0  0  0  0  0  0  0
    6.9745   -0.0141    0.0000 H   0  0  0  0  0  0  0  0  0  0  0  0
    6.9776    1.7979    0.0000 H   0  0  0  0  0  0  0  0  0  0  0  0
    9.0396    0.0239    0.0000 H   0  0  0  0  0  0  0  0  0  0  0  0
    9.0426    1.7528    0.0000 H   0  0  0  0  0  0  0  0  0  0  0  0
    6.9016    3.1407    0.0000 H   0  0  0  0  0  0  0  0  0  0  0  0
    6.7345    2.3613    0.0000 H   0  0  0  0  0  0  0  0  0  0  0  0
    8.4800   -1.6734    0.0000 H   0  0  0  0  0  0  0  0  0  0  0  0
    7.7623    3.9834    0.0000 H   0  0  0  0  0  0  0  0  0  0  0  0
    4.9272   -3.9834    0.0000 H   0  0  0  0  0  0  0  0  0  0  0  0
    6.0010   -3.9834    0.0000 H   0  0  0  0  0  0  0  0  0  0  0  0
  1 11  1  0  0  0  0
  1 12  1  0  0  0  0
  2 16  1  0  0  0  0
  2 28  1  0  0  0  0
 11  3  1  6  0  0  0
  3 15  1  0  0  0  0
  3 18  1  0  0  0  0
  4 17  1  0  0  0  0
  4 18  2  0  0  0  0
  5 15  2  0  0  0  0
  5 20  1  0  0  0  0
  6 19  1  0  0  0  0
  6 20  2  0  0  0  0
  7 19  1  0  0  0  0
  7 29  1  0  0  0  0
  7 30  1  0  0  0  0
  8  9  2  0  0  0  0
  8 20  1  0  0  0  0
  9 10  2  0  0  0  0
 11 13  1  0  0  0  0
 11 21  1  0  0  0  0
 12 14  1  0  0  0  0
 12 16  1  6  0  0  0
 12 22  1  0  0  0  0
 13 14  2  0  0  0  0
 13 23  1  0  0  0  0
 14 24  1  0  0  0  0
 15 17  1  0  0  0  0
 16 25  1  0  0  0  0
 16 26  1  0  0  0  0
 17 19  2  0  0  0  0
 18 27  1  0  0  0  0
M  CHG  2   9   1  10  -1
M  END
> <PUBCHEM_COMPOUND_CID>
510981
> <PUBCHEM_COMPOUND_CANONICALIZED>
1
> <PUBCHEM_CACTVS_COMPLEXITY>
439
> <PUBCHEM_CACTVS_HBOND_ACCEPTOR>
8
> <PUBCHEM_CACTVS_HBOND_DONOR>
2
> <PUBCHEM_CACTVS_ROTATABLE_BOND>
3
> <PUBCHEM_CACTVS_SUBSKEYS>
AAADccBz8AAAAAAAAAAAAAAAAAAAAWIAAAAsAAAAAAAAAFgB+AAAHgAYCAAACBzhlwYF8L9MFgCiASZjZACAgC0xEKAJWCAoVBiBXABAaUAeVAgIQALLICIAAAAAAAAAAAAAAAAAAAAAAAAAAAAAAAAAAA==
> <PUBCHEM_IUPAC_OPENEYE_NAME>
[(2S,5R)-5-(6-amino-2-azido-purin-9-yl)-2,5-dihydrofuran-2-yl]methanol
> <PUBCHEM_IUPAC_CAS_NAME>
[(2S,5R)-5-(6-amino-2-azido-9-purinyl)-2,5-dihydrofuran-2-yl]methanol
> <PUBCHEM_IUPAC_NAME_MARKUP>
[(2<I>S</I>,5<I>R</I>)-5-(6-amino-2-azidopurin-9-yl)-2,5-dihydrofuran-2-yl]methanol
> <PUBCHEM_IUPAC_NAME>
[(2S,5R)-5-(6-amino-2-azidopurin-9-yl)-2,5-dihydrofuran-2-yl]methanol
> <PUBCHEM_IUPAC_SYSTEMATIC_NAME>
[(2S,5R)-5-(6-azanyl-2-azido-purin-9-yl)-2,5-dihydrofuran-2-yl]methanol
> <PUBCHEM_IUPAC_TRADITIONAL_NAME>
[(2S,5R)-5-(6-amino-2-azido-purin-9-yl)-2,5-dihydrofuran-2-yl]methanol
> <PUBCHEM_IUPAC_INCHI>
InChI=1S/C10H10N8O2/c11-8-7-9(15-10(14-8)16-17-12)18(4-13-7)6-2-1-5(3-19)20-6/h1-2,4-6,19H,3H2,(H2,11,14,15)/t5-,6+/m0/s1
> <PUBCHEM_IUPAC_INCHIKEY>
KMJYXVBHRATEQW-NTSWFWBYSA-N
> <PUBCHEM_XLOGP3>
0.9
> <PUBCHEM_EXACT_MASS>
274.09267159
> <PUBCHEM_MOLECULAR_FORMULA>
C10H10N8O2
> <PUBCHEM_MOLECULAR_WEIGHT>
274.24
> <PUBCHEM_OPENEYE_CAN_SMILES>
C1=CC(OC1CO)N2C=NC3=C(N=C(N=C32)N=[N+]=[N-])N
> <PUBCHEM_OPENEYE_ISO_SMILES>
C1=C[C@@H](O[C@@H]1CO)N2C=NC3=C(N=C(N=C32)N=[N+]=[N-])N
> <PUBCHEM_CACTVS_TPSA>
113
> <PUBCHEM_MONOISOTOPIC_WEIGHT>
274.09267159
> <PUBCHEM_TOTAL_CHARGE>
0
> <PUBCHEM_HEAVY_ATOM_COUNT>
20
> <PUBCHEM_ATOM_DEF_STEREO_COUNT>
2
> <PUBCHEM_ATOM_UDEF_STEREO_COUNT>
0
> <PUBCHEM_BOND_DEF_STEREO_COUNT>
0
> <PUBCHEM_BOND_UDEF_STEREO_COUNT>
1
> <PUBCHEM_ISOTOPIC_ATOM_COUNT>
0
> <PUBCHEM_COMPONENT_COUNT>
1
> <PUBCHEM_CACTVS_TAUTO_COUNT>
-1
> <PUBCHEM_COORDINATE_TYPE>
1
5
255
> <PUBCHEM_BONDANNOTATIONS>
12  16  6
15  17  8
17  19  8
11  3  6
3  15  8
3  18  8
4  17  8
4  18  8
5  15  8
5  20  8
6  19  8
6  20  8
8  9  1
$$$$
