510966
  -OEChem-10302200282D
 54 57  0     1  0  0  0  0  0999 V2000
    2.0000   -0.6244    0.0000 Cl  0  0  0  0  0  0  0  0  0  0  0  0
    4.0704   -0.3495    0.0000 O   0  0  0  0  0  0  0  0  0  0  0  0
    3.4945    2.1732    0.0000 O   0  0  0  0  0  0  0  0  0  0  0  0
    8.5282   -1.7475    0.0000 O   0  0  0  0  0  0  0  0  0  0  0  0
    4.9839   -1.9428    0.0000 O   0  0  0  0  0  0  0  0  0  0  0  0
    5.8500   -0.4428    0.0000 N   0  0  0  0  0  0  0  0  0  0  0  0
    6.7160   -1.9428    0.0000 N   0  0  0  0  0  0  0  0  0  0  0  0
    3.9013    1.2597    0.0000 C   0  0  1  0  0  0  0  0  0  0  0  0
    4.9839    0.0572    0.0000 C   0  0  1  0  0  0  0  0  0  0  0  0
    4.8794    1.0518    0.0000 C   0  0  0  0  0  0  0  0  0  0  0  0
    3.4013    0.3936    0.0000 C   0  0  1  0  0  0  0  0  0  0  0  0
    2.4067    0.2891    0.0000 C   0  0  0  0  0  0  0  0  0  0  0  0
    6.7160    0.0572    0.0000 C   0  0  0  0  0  0  0  0  0  0  0  0
    5.8500   -1.4428    0.0000 C   0  0  0  0  0  0  0  0  0  0  0  0
    7.5820   -0.4428    0.0000 C   0  0  0  0  0  0  0  0  0  0  0  0
    7.5820   -1.4428    0.0000 C   0  0  0  0  0  0  0  0  0  0  0  0
    8.5282   -0.1380    0.0000 C   0  0  0  0  0  0  0  0  0  0  0  0
    9.1118   -0.9428    0.0000 C   0  0  0  0  0  0  0  0  0  0  0  0
   13.6118   -1.8088    0.0000 C   0  0  0  0  0  0  0  0  0  0  0  0
   13.1118   -0.9428    0.0000 C   0  0  0  0  0  0  0  0  0  0  0  0
   10.1118   -0.9428    0.0000 C   0  0  0  0  0  0  0  0  0  0  0  0
   14.6118   -1.8088    0.0000 C   0  0  0  0  0  0  0  0  0  0  0  0
   12.1118   -0.9428    0.0000 C   0  0  0  0  0  0  0  0  0  0  0  0
   15.1118   -2.6748    0.0000 C   0  0  0  0  0  0  0  0  0  0  0  0
   10.6118   -0.0767    0.0000 C   0  0  0  0  0  0  0  0  0  0  0  0
   10.6118   -1.8088    0.0000 C   0  0  0  0  0  0  0  0  0  0  0  0
   11.6118   -0.0767    0.0000 C   0  0  0  0  0  0  0  0  0  0  0  0
   11.6118   -1.8088    0.0000 C   0  0  0  0  0  0  0  0  0  0  0  0
   16.1118   -2.6748    0.0000 C   0  0  0  0  0  0  0  0  0  0  0  0
    3.2821    1.2921    0.0000 H   0  0  0  0  0  0  0  0  0  0  0  0
    5.5039    0.3949    0.0000 H   0  0  0  0  0  0  0  0  0  0  0  0
    5.4994    1.0518    0.0000 H   0  0  0  0  0  0  0  0  0  0  0  0
    4.9442    1.6684    0.0000 H   0  0  0  0  0  0  0  0  0  0  0  0
    3.1791   -0.1852    0.0000 H   0  0  0  0  0  0  0  0  0  0  0  0
    2.4500    0.9076    0.0000 H   0  0  0  0  0  0  0  0  0  0  0  0
    1.8052    0.4391    0.0000 H   0  0  0  0  0  0  0  0  0  0  0  0
    6.7160    0.6772    0.0000 H   0  0  0  0  0  0  0  0  0  0  0  0
    3.8590    2.6748    0.0000 H   0  0  0  0  0  0  0  0  0  0  0  0
    8.7208    0.4513    0.0000 H   0  0  0  0  0  0  0  0  0  0  0  0
   13.0292   -2.0208    0.0000 H   0  0  0  0  0  0  0  0  0  0  0  0
   13.7195   -2.4194    0.0000 H   0  0  0  0  0  0  0  0  0  0  0  0
   13.6944   -0.7307    0.0000 H   0  0  0  0  0  0  0  0  0  0  0  0
   13.0042   -0.3322    0.0000 H   0  0  0  0  0  0  0  0  0  0  0  0
   15.1944   -1.5967    0.0000 H   0  0  0  0  0  0  0  0  0  0  0  0
   14.5042   -1.1982    0.0000 H   0  0  0  0  0  0  0  0  0  0  0  0
   14.5292   -2.8869    0.0000 H   0  0  0  0  0  0  0  0  0  0  0  0
   15.2195   -3.2854    0.0000 H   0  0  0  0  0  0  0  0  0  0  0  0
   10.3018    0.4602    0.0000 H   0  0  0  0  0  0  0  0  0  0  0  0
   10.3018   -2.3457    0.0000 H   0  0  0  0  0  0  0  0  0  0  0  0
   11.9218    0.4602    0.0000 H   0  0  0  0  0  0  0  0  0  0  0  0
   11.9218   -2.3457    0.0000 H   0  0  0  0  0  0  0  0  0  0  0  0
   16.1118   -3.2948    0.0000 H   0  0  0  0  0  0  0  0  0  0  0  0
   16.7318   -2.6748    0.0000 H   0  0  0  0  0  0  0  0  0  0  0  0
   16.1118   -2.0548    0.0000 H   0  0  0  0  0  0  0  0  0  0  0  0
  1 12  1  0  0  0  0
  2  9  1  0  0  0  0
  2 11  1  0  0  0  0
  8  3  1  1  0  0  0
  3 38  1  0  0  0  0
  4 16  1  0  0  0  0
  4 18  1  0  0  0  0
  5 14  2  0  0  0  0
  9  6  1  6  0  0  0
  6 13  1  0  0  0  0
  6 14  1  0  0  0  0
  7 14  1  0  0  0  0
  7 16  2  0  0  0  0
  8 10  1  0  0  0  0
  8 11  1  0  0  0  0
  8 30  1  0  0  0  0
  9 10  1  0  0  0  0
  9 31  1  0  0  0  0
 10 32  1  0  0  0  0
 10 33  1  0  0  0  0
 11 12  1  6  0  0  0
 11 34  1  0  0  0  0
 12 35  1  0  0  0  0
 12 36  1  0  0  0  0
 13 15  2  0  0  0  0
 13 37  1  0  0  0  0
 15 16  1  0  0  0  0
 15 17  1  0  0  0  0
 17 18  2  0  0  0  0
 17 39  1  0  0  0  0
 18 21  1  0  0  0  0
 19 20  1  0  0  0  0
 19 22  1  0  0  0  0
 19 40  1  0  0  0  0
 19 41  1  0  0  0  0
 20 23  1  0  0  0  0
 20 42  1  0  0  0  0
 20 43  1  0  0  0  0
 21 25  2  0  0  0  0
 21 26  1  0  0  0  0
 22 24  1  0  0  0  0
 22 44  1  0  0  0  0
 22 45  1  0  0  0  0
 23 27  2  0  0  0  0
 23 28  1  0  0  0  0
 24 29  1  0  0  0  0
 24 46  1  0  0  0  0
 24 47  1  0  0  0  0
 25 27  1  0  0  0  0
 25 48  1  0  0  0  0
 26 28  2  0  0  0  0
 26 49  1  0  0  0  0
 27 50  1  0  0  0  0
 28 51  1  0  0  0  0
 29 52  1  0  0  0  0
 29 53  1  0  0  0  0
 29 54  1  0  0  0  0
M  END
> <PUBCHEM_COMPOUND_CID>
510966
> <PUBCHEM_COMPOUND_CANONICALIZED>
1
> <PUBCHEM_CACTVS_COMPLEXITY>
712
> <PUBCHEM_CACTVS_HBOND_ACCEPTOR>
4
> <PUBCHEM_CACTVS_HBOND_DONOR>
1
> <PUBCHEM_CACTVS_ROTATABLE_BOND>
7
> <PUBCHEM_CACTVS_SUBSKEYS>
AAADceB7OAAEAAAAAAAAAAAAAAAAASIAAAAwQAAAAAAAAEABAAAAHgIACAAADBfhmEYzAIMABgCoAiBmVAACCAAgIAAIiAAoC5iJNiKBsRiOcAAnxgMLqAewwPAOQAAAAAAAAACAAAAAAAAAAAAAAAAAAA==
> <PUBCHEM_IUPAC_OPENEYE_NAME>
3-[(2R,4S,5S)-5-(chloromethyl)-4-hydroxy-tetrahydrofuran-2-yl]-6-(4-pentylphenyl)furo[2,3-d]pyrimidin-2-one
> <PUBCHEM_IUPAC_CAS_NAME>
3-[(2R,4S,5S)-5-(chloromethyl)-4-hydroxy-2-oxolanyl]-6-(4-pentylphenyl)-2-furo[2,3-d]pyrimidinone
> <PUBCHEM_IUPAC_NAME_MARKUP>
3-[(2<I>R</I>,4<I>S</I>,5<I>S</I>)-5-(chloromethyl)-4-hydroxyoxolan-2-yl]-6-(4-pentylphenyl)furo[2,3-d]pyrimidin-2-one
> <PUBCHEM_IUPAC_NAME>
3-[(2R,4S,5S)-5-(chloromethyl)-4-hydroxyoxolan-2-yl]-6-(4-pentylphenyl)furo[2,3-d]pyrimidin-2-one
> <PUBCHEM_IUPAC_SYSTEMATIC_NAME>
3-[(2R,4S,5S)-5-(chloromethyl)-4-oxidanyl-oxolan-2-yl]-6-(4-pentylphenyl)furo[2,3-d]pyrimidin-2-one
> <PUBCHEM_IUPAC_TRADITIONAL_NAME>
6-(4-amylphenyl)-3-[(2R,4S,5S)-5-(chloromethyl)-4-hydroxy-tetrahydrofuran-2-yl]furo[2,3-d]pyrimidin-2-one
> <PUBCHEM_IUPAC_INCHI>
InChI=1S/C22H25ClN2O4/c1-2-3-4-5-14-6-8-15(9-7-14)18-10-16-13-25(22(27)24-21(16)29-18)20-11-17(26)19(12-23)28-20/h6-10,13,17,19-20,26H,2-5,11-12H2,1H3/t17-,19+,20+/m0/s1
> <PUBCHEM_IUPAC_INCHIKEY>
PNHHNPPSUBJIAG-DFQSSKMNSA-N
> <PUBCHEM_XLOGP3_AA>
4.2
> <PUBCHEM_EXACT_MASS>
416.1502850
> <PUBCHEM_MOLECULAR_FORMULA>
C22H25ClN2O4
> <PUBCHEM_MOLECULAR_WEIGHT>
416.9
> <PUBCHEM_OPENEYE_CAN_SMILES>
CCCCCC1=CC=C(C=C1)C2=CC3=CN(C(=O)N=C3O2)C4CC(C(O4)CCl)O
> <PUBCHEM_OPENEYE_ISO_SMILES>
CCCCCC1=CC=C(C=C1)C2=CC3=CN(C(=O)N=C3O2)[C@H]4C[C@@H]([C@H](O4)CCl)O
> <PUBCHEM_CACTVS_TPSA>
71.4
> <PUBCHEM_MONOISOTOPIC_WEIGHT>
416.1502850
> <PUBCHEM_TOTAL_CHARGE>
0
> <PUBCHEM_HEAVY_ATOM_COUNT>
29
> <PUBCHEM_ATOM_DEF_STEREO_COUNT>
3
> <PUBCHEM_ATOM_UDEF_STEREO_COUNT>
0
> <PUBCHEM_BOND_DEF_STEREO_COUNT>
0
> <PUBCHEM_BOND_UDEF_STEREO_COUNT>
0
> <PUBCHEM_ISOTOPIC_ATOM_COUNT>
0
> <PUBCHEM_COMPONENT_COUNT>
1
> <PUBCHEM_CACTVS_TAUTO_COUNT>
-1
> <PUBCHEM_COORDINATE_TYPE>
1
5
255
> <PUBCHEM_BONDANNOTATIONS>
11  12  6
13  15  8
15  16  8
15  17  8
17  18  8
21  25  8
21  26  8
23  27  8
23  28  8
25  27  8
26  28  8
8  3  5
4  16  8
4  18  8
6  13  8
6  14  8
9  6  6
7  14  8
7  16  8
$$$$
