510977
  -OEChem-10302200282D
 44 46  0     1  0  0  0  0  0999 V2000
    8.0362    5.0642    0.0000 S   0  0  0  0  0  0  0  0  0  0  0  0
    8.0362    6.0642    0.0000 F   0  0  0  0  0  0  0  0  0  0  0  0
    6.1996   -1.9303    0.0000 O   0  0  0  0  0  0  0  0  0  0  0  0
    5.1827    0.4491    0.0000 O   0  0  0  0  0  0  0  0  0  0  0  0
    3.7269   -1.1677    0.0000 O   0  0  0  0  0  0  0  0  0  0  0  0
    7.1702    0.5642    0.0000 O   0  0  0  0  0  0  0  0  0  0  0  0
    8.9022    0.5642    0.0000 O   0  0  0  0  0  0  0  0  0  0  0  0
    2.0000   -4.2542    0.0000 O   0  0  0  0  0  0  0  0  0  0  0  0
    9.0362    5.0642    0.0000 O   0  0  0  0  0  0  0  0  0  0  0  0
    7.0362    5.0642    0.0000 O   0  0  0  0  0  0  0  0  0  0  0  0
    4.8147   -3.0518    0.0000 N   0  0  0  0  0  0  0  0  0  0  0  0
    3.8366   -3.2597    0.0000 N   0  0  0  0  0  0  0  0  0  0  0  0
    4.6456   -4.6609    0.0000 N   0  0  0  0  0  0  0  0  0  0  0  0
    2.8660   -5.7542    0.0000 N   0  0  0  0  0  0  0  0  0  0  0  0
    5.3906   -0.5291    0.0000 C   0  0  1  0  0  0  0  0  0  0  0  0
    4.7215   -1.2722    0.0000 C   0  0  2  0  0  0  0  0  0  0  0  0
    6.3041   -0.9358    0.0000 C   0  0  1  0  0  0  0  0  0  0  0  0
    5.2215   -2.1382    0.0000 C   0  0  1  0  0  0  0  0  0  0  0  0
    7.1702   -0.4358    0.0000 C   0  0  0  0  0  0  0  0  0  0  0  0
    5.3147   -3.9178    0.0000 C   0  0  0  0  0  0  0  0  0  0  0  0
    3.7320   -4.2542    0.0000 C   0  0  0  0  0  0  0  0  0  0  0  0
    8.0362    1.0642    0.0000 C   0  0  0  0  0  0  0  0  0  0  0  0
    8.0362    2.0642    0.0000 C   0  0  0  0  0  0  0  0  0  0  0  0
    2.8660   -4.7542    0.0000 C   0  0  0  0  0  0  0  0  0  0  0  0
    7.1702    2.5642    0.0000 C   0  0  0  0  0  0  0  0  0  0  0  0
    8.9022    2.5642    0.0000 C   0  0  0  0  0  0  0  0  0  0  0  0
    8.0362    4.0642    0.0000 C   0  0  0  0  0  0  0  0  0  0  0  0
    7.1702    3.5642    0.0000 C   0  0  0  0  0  0  0  0  0  0  0  0
    8.9022    3.5642    0.0000 C   0  0  0  0  0  0  0  0  0  0  0  0
    4.7917   -0.3686    0.0000 H   0  0  0  0  0  0  0  0  0  0  0  0
    4.3838   -1.7922    0.0000 H   0  0  0  0  0  0  0  0  0  0  0  0
    6.8241   -1.2735    0.0000 H   0  0  0  0  0  0  0  0  0  0  0  0
    5.6116   -2.6201    0.0000 H   0  0  0  0  0  0  0  0  0  0  0  0
    7.3822   -1.0184    0.0000 H   0  0  0  0  0  0  0  0  0  0  0  0
    7.7808   -0.3281    0.0000 H   0  0  0  0  0  0  0  0  0  0  0  0
    4.5930    0.6407    0.0000 H   0  0  0  0  0  0  0  0  0  0  0  0
    3.4748   -0.6013    0.0000 H   0  0  0  0  0  0  0  0  0  0  0  0
    5.9313   -3.9826    0.0000 H   0  0  0  0  0  0  0  0  0  0  0  0
    6.6332    2.2542    0.0000 H   0  0  0  0  0  0  0  0  0  0  0  0
    9.4392    2.2542    0.0000 H   0  0  0  0  0  0  0  0  0  0  0  0
    6.6332    3.8742    0.0000 H   0  0  0  0  0  0  0  0  0  0  0  0
    9.4392    3.8742    0.0000 H   0  0  0  0  0  0  0  0  0  0  0  0
    2.3291   -6.0642    0.0000 H   0  0  0  0  0  0  0  0  0  0  0  0
    3.4030   -6.0642    0.0000 H   0  0  0  0  0  0  0  0  0  0  0  0
  1  2  1  0  0  0  0
  1  9  2  0  0  0  0
  1 10  2  0  0  0  0
  1 27  1  0  0  0  0
  3 17  1  0  0  0  0
  3 18  1  0  0  0  0
 15  4  1  6  0  0  0
  4 36  1  0  0  0  0
 16  5  1  6  0  0  0
  5 37  1  0  0  0  0
  6 19  1  0  0  0  0
  6 22  1  0  0  0  0
  7 22  2  0  0  0  0
  8 24  2  0  0  0  0
 11 12  1  0  0  0  0
 18 11  1  1  0  0  0
 11 20  1  0  0  0  0
 12 21  2  0  0  0  0
 13 20  2  0  0  0  0
 13 21  1  0  0  0  0
 14 24  1  0  0  0  0
 14 43  1  0  0  0  0
 14 44  1  0  0  0  0
 15 16  1  0  0  0  0
 15 17  1  0  0  0  0
 15 30  1  0  0  0  0
 16 18  1  0  0  0  0
 16 31  1  0  0  0  0
 17 19  1  1  0  0  0
 17 32  1  0  0  0  0
 18 33  1  0  0  0  0
 19 34  1  0  0  0  0
 19 35  1  0  0  0  0
 20 38  1  0  0  0  0
 21 24  1  0  0  0  0
 22 23  1  0  0  0  0
 23 25  2  0  0  0  0
 23 26  1  0  0  0  0
 25 28  1  0  0  0  0
 25 39  1  0  0  0  0
 26 29  2  0  0  0  0
 26 40  1  0  0  0  0
 27 28  2  0  0  0  0
 27 29  1  0  0  0  0
 28 41  1  0  0  0  0
 29 42  1  0  0  0  0
M  END
> <PUBCHEM_COMPOUND_CID>
510977
> <PUBCHEM_COMPOUND_CANONICALIZED>
1
> <PUBCHEM_CACTVS_COMPLEXITY>
726
> <PUBCHEM_CACTVS_HBOND_ACCEPTOR>
11
> <PUBCHEM_CACTVS_HBOND_DONOR>
3
> <PUBCHEM_CACTVS_ROTATABLE_BOND>
7
> <PUBCHEM_CACTVS_SUBSKEYS>
AAADccBzvQBAAAAAAAAAAAAAAAAAAWJAAAAwAAAAAAAAAAABwAAAHgQYCAQADBTh2wY1GYZIFgKqAiPzPHBSgAs2gKAdyBmICMiLfjKAvTiecQAvyAMbqYf4+CqOEAAAAAAAAAAgAAAAAAAAAAAAAAAAAA==
> <PUBCHEM_IUPAC_OPENEYE_NAME>
[(2R,3S,4R,5R)-5-(3-carbamoyl-1,2,4-triazol-1-yl)-3,4-dihydroxy-tetrahydrofuran-2-yl]methyl 4-fluorosulfonylbenzoate
> <PUBCHEM_IUPAC_CAS_NAME>
4-fluorosulfonylbenzoic acid [(2R,3S,4R,5R)-5-(3-carbamoyl-1,2,4-triazol-1-yl)-3,4-dihydroxy-2-oxolanyl]methyl ester
> <PUBCHEM_IUPAC_NAME_MARKUP>
[(2<I>R</I>,3<I>S</I>,4<I>R</I>,5<I>R</I>)-5-(3-carbamoyl-1,2,4-triazol-1-yl)-3,4-dihydroxyoxolan-2-yl]methyl 4-fluorosulfonylbenzoate
> <PUBCHEM_IUPAC_NAME>
[(2R,3S,4R,5R)-5-(3-carbamoyl-1,2,4-triazol-1-yl)-3,4-dihydroxyoxolan-2-yl]methyl 4-fluorosulfonylbenzoate
> <PUBCHEM_IUPAC_SYSTEMATIC_NAME>
[(2R,3S,4R,5R)-5-(3-aminocarbonyl-1,2,4-triazol-1-yl)-3,4-bis(oxidanyl)oxolan-2-yl]methyl 4-fluorosulfonylbenzoate
> <PUBCHEM_IUPAC_TRADITIONAL_NAME>
4-fluorosulfonylbenzoic acid [(2R,3S,4R,5R)-5-(3-carbamoyl-1,2,4-triazol-1-yl)-3,4-dihydroxy-tetrahydrofuran-2-yl]methyl ester
> <PUBCHEM_IUPAC_INCHI>
InChI=1S/C15H15FN4O8S/c16-29(25,26)8-3-1-7(2-4-8)15(24)27-5-9-10(21)11(22)14(28-9)20-6-18-13(19-20)12(17)23/h1-4,6,9-11,14,21-22H,5H2,(H2,17,23)/t9-,10-,11-,14-/m1/s1
> <PUBCHEM_IUPAC_INCHIKEY>
XTWNUHOTYCQGQG-ZHSDAYTOSA-N
> <PUBCHEM_XLOGP3>
-0.4
> <PUBCHEM_EXACT_MASS>
430.05946279
> <PUBCHEM_MOLECULAR_FORMULA>
C15H15FN4O8S
> <PUBCHEM_MOLECULAR_WEIGHT>
430.4
> <PUBCHEM_OPENEYE_CAN_SMILES>
C1=CC(=CC=C1C(=O)OCC2C(C(C(O2)N3C=NC(=N3)C(=O)N)O)O)S(=O)(=O)F
> <PUBCHEM_OPENEYE_ISO_SMILES>
C1=CC(=CC=C1C(=O)OC[C@@H]2[C@H]([C@H]([C@@H](O2)N3C=NC(=N3)C(=O)N)O)O)S(=O)(=O)F
> <PUBCHEM_CACTVS_TPSA>
192
> <PUBCHEM_MONOISOTOPIC_WEIGHT>
430.05946279
> <PUBCHEM_TOTAL_CHARGE>
0
> <PUBCHEM_HEAVY_ATOM_COUNT>
29
> <PUBCHEM_ATOM_DEF_STEREO_COUNT>
4
> <PUBCHEM_ATOM_UDEF_STEREO_COUNT>
0
> <PUBCHEM_BOND_DEF_STEREO_COUNT>
0
> <PUBCHEM_BOND_UDEF_STEREO_COUNT>
0
> <PUBCHEM_ISOTOPIC_ATOM_COUNT>
0
> <PUBCHEM_COMPONENT_COUNT>
1
> <PUBCHEM_CACTVS_TAUTO_COUNT>
-1
> <PUBCHEM_COORDINATE_TYPE>
1
5
255
> <PUBCHEM_BONDANNOTATIONS>
11  12  8
18  11  5
11  20  8
12  21  8
13  20  8
13  21  8
17  19  5
23  25  8
23  26  8
25  28  8
26  29  8
27  28  8
27  29  8
15  4  6
16  5  6
$$$$
