510987
  -OEChem-10302200282D
 32 33  0     1  0  0  0  0  0999 V2000
    2.5369    2.9050    0.0000 F   0  0  0  0  0  0  0  0  0  0  0  0
    2.5369   -2.0950    0.0000 O   0  0  0  0  0  0  0  0  0  0  0  0
    5.1350   -3.5950    0.0000 O   0  0  0  0  0  0  0  0  0  0  0  0
    6.0010    0.9050    0.0000 O   0  0  0  0  0  0  0  0  0  0  0  0
    4.2690    0.9050    0.0000 N   0  0  0  0  0  0  0  0  0  0  0  0
    5.1350    2.4050    0.0000 N   0  0  0  0  0  0  0  0  0  0  0  0
    4.2690    3.9050    0.0000 N   0  0  0  0  0  0  0  0  0  0  0  0
    3.4030   -1.5950    0.0000 C   0  0  1  0  0  0  0  0  0  0  0  0
    3.4030   -0.5950    0.0000 C   0  0  0  0  0  0  0  0  0  0  0  0
    4.2690   -0.0950    0.0000 C   0  0  1  0  0  0  0  0  0  0  0  0
    4.2690   -2.0950    0.0000 C   0  0  2  0  0  0  0  0  0  0  0  0
    5.1350   -0.5950    0.0000 C   0  0  0  0  0  0  0  0  0  0  0  0
    5.1350   -1.5950    0.0000 C   0  0  0  0  0  0  0  0  0  0  0  0
    4.2690   -3.0950    0.0000 C   0  0  0  0  0  0  0  0  0  0  0  0
    3.4030    1.4050    0.0000 C   0  0  0  0  0  0  0  0  0  0  0  0
    5.1350    1.4050    0.0000 C   0  0  0  0  0  0  0  0  0  0  0  0
    3.4030    2.4050    0.0000 C   0  0  0  0  0  0  0  0  0  0  0  0
    4.2690    2.9050    0.0000 C   0  0  0  0  0  0  0  0  0  0  0  0
    3.4030   -2.2150    0.0000 H   0  0  0  0  0  0  0  0  0  0  0  0
    3.1909   -0.0124    0.0000 H   0  0  0  0  0  0  0  0  0  0  0  0
    2.7924   -0.7027    0.0000 H   0  0  0  0  0  0  0  0  0  0  0  0
    4.8059    0.2150    0.0000 H   0  0  0  0  0  0  0  0  0  0  0  0
    4.8059   -2.4050    0.0000 H   0  0  0  0  0  0  0  0  0  0  0  0
    5.6720   -0.2850    0.0000 H   0  0  0  0  0  0  0  0  0  0  0  0
    5.6720   -1.9050    0.0000 H   0  0  0  0  0  0  0  0  0  0  0  0
    3.6584   -2.9873    0.0000 H   0  0  0  0  0  0  0  0  0  0  0  0
    4.0569   -3.6776    0.0000 H   0  0  0  0  0  0  0  0  0  0  0  0
    2.0000   -1.7850    0.0000 H   0  0  0  0  0  0  0  0  0  0  0  0
    2.8660    1.0950    0.0000 H   0  0  0  0  0  0  0  0  0  0  0  0
    5.1350   -4.2150    0.0000 H   0  0  0  0  0  0  0  0  0  0  0  0
    4.8059    4.2150    0.0000 H   0  0  0  0  0  0  0  0  0  0  0  0
    3.7320    4.2150    0.0000 H   0  0  0  0  0  0  0  0  0  0  0  0
  1 17  1  0  0  0  0
  8  2  1  1  0  0  0
  2 28  1  0  0  0  0
  3 14  1  0  0  0  0
  3 30  1  0  0  0  0
  4 16  2  0  0  0  0
 10  5  1  6  0  0  0
  5 15  1  0  0  0  0
  5 16  1  0  0  0  0
  6 16  1  0  0  0  0
  6 18  2  0  0  0  0
  7 18  1  0  0  0  0
  7 31  1  0  0  0  0
  7 32  1  0  0  0  0
  8  9  1  0  0  0  0
  8 11  1  0  0  0  0
  8 19  1  0  0  0  0
  9 10  1  0  0  0  0
  9 20  1  0  0  0  0
  9 21  1  0  0  0  0
 10 12  1  0  0  0  0
 10 22  1  0  0  0  0
 11 13  1  0  0  0  0
 11 14  1  6  0  0  0
 11 23  1  0  0  0  0
 12 13  2  0  0  0  0
 12 24  1  0  0  0  0
 13 25  1  0  0  0  0
 14 26  1  0  0  0  0
 14 27  1  0  0  0  0
 15 17  2  0  0  0  0
 15 29  1  0  0  0  0
 17 18  1  0  0  0  0
M  END
> <PUBCHEM_COMPOUND_CID>
510987
> <PUBCHEM_COMPOUND_CANONICALIZED>
1
> <PUBCHEM_CACTVS_COMPLEXITY>
447
> <PUBCHEM_CACTVS_HBOND_ACCEPTOR>
4
> <PUBCHEM_CACTVS_HBOND_DONOR>
3
> <PUBCHEM_CACTVS_ROTATABLE_BOND>
2
> <PUBCHEM_CACTVS_SUBSKEYS>
AAADccBzMQAAAAAAAAAAAAAAAAAAAAAAAAAgQAAAAAAAAAAAAAAAHwAQCAAADTzhgAYBAANAAgCoACJmdACAAAEgAAAICAAIABiAEAIAgQAEQAAHxgIIAAOQUAMMAAAAAAAAAAAAAAAAAAAAAAAAAAAAAA==
> <PUBCHEM_IUPAC_OPENEYE_NAME>
4-amino-5-fluoro-1-[(1S,4R,5S)-5-hydroxy-4-(hydroxymethyl)cyclohex-2-en-1-yl]pyrimidin-2-one
> <PUBCHEM_IUPAC_CAS_NAME>
4-amino-5-fluoro-1-[(1S,4R,5S)-5-hydroxy-4-(hydroxymethyl)-1-cyclohex-2-enyl]-2-pyrimidinone
> <PUBCHEM_IUPAC_NAME_MARKUP>
4-amino-5-fluoro-1-[(1<I>S</I>,4<I>R</I>,5<I>S</I>)-5-hydroxy-4-(hydroxymethyl)cyclohex-2-en-1-yl]pyrimidin-2-one
> <PUBCHEM_IUPAC_NAME>
4-amino-5-fluoro-1-[(1S,4R,5S)-5-hydroxy-4-(hydroxymethyl)cyclohex-2-en-1-yl]pyrimidin-2-one
> <PUBCHEM_IUPAC_SYSTEMATIC_NAME>
4-azanyl-5-fluoranyl-1-[(1S,4R,5S)-4-(hydroxymethyl)-5-oxidanyl-cyclohex-2-en-1-yl]pyrimidin-2-one
> <PUBCHEM_IUPAC_TRADITIONAL_NAME>
4-amino-5-fluoro-1-[(1S,4R,5S)-5-hydroxy-4-methylol-cyclohex-2-en-1-yl]pyrimidin-2-one
> <PUBCHEM_IUPAC_INCHI>
InChI=1S/C11H14FN3O3/c12-8-4-15(11(18)14-10(8)13)7-2-1-6(5-16)9(17)3-7/h1-2,4,6-7,9,16-17H,3,5H2,(H2,13,14,18)/t6-,7-,9+/m1/s1
> <PUBCHEM_IUPAC_INCHIKEY>
YQLFUIHQINSNTK-BHNWBGBOSA-N
> <PUBCHEM_XLOGP3_AA>
-0.7
> <PUBCHEM_EXACT_MASS>
255.10191948
> <PUBCHEM_MOLECULAR_FORMULA>
C11H14FN3O3
> <PUBCHEM_MOLECULAR_WEIGHT>
255.25
> <PUBCHEM_OPENEYE_CAN_SMILES>
C1C(C=CC(C1O)CO)N2C=C(C(=NC2=O)N)F
> <PUBCHEM_OPENEYE_ISO_SMILES>
C1[C@@H](C=C[C@@H]([C@H]1O)CO)N2C=C(C(=NC2=O)N)F
> <PUBCHEM_CACTVS_TPSA>
99.2
> <PUBCHEM_MONOISOTOPIC_WEIGHT>
255.10191948
> <PUBCHEM_TOTAL_CHARGE>
0
> <PUBCHEM_HEAVY_ATOM_COUNT>
18
> <PUBCHEM_ATOM_DEF_STEREO_COUNT>
3
> <PUBCHEM_ATOM_UDEF_STEREO_COUNT>
0
> <PUBCHEM_BOND_DEF_STEREO_COUNT>
0
> <PUBCHEM_BOND_UDEF_STEREO_COUNT>
0
> <PUBCHEM_ISOTOPIC_ATOM_COUNT>
0
> <PUBCHEM_COMPONENT_COUNT>
1
> <PUBCHEM_CACTVS_TAUTO_COUNT>
-1
> <PUBCHEM_COORDINATE_TYPE>
1
5
255
> <PUBCHEM_BONDANNOTATIONS>
11  14  6
15  17  8
17  18  8
8  2  5
10  5  6
5  15  8
5  16  8
6  16  8
6  18  8
$$$$
