510988
  -OEChem-10302200282D
 35 36  0     1  0  0  0  0  0999 V2000
    2.5369   -2.0950    0.0000 O   0  0  0  0  0  0  0  0  0  0  0  0
    5.1350   -3.5950    0.0000 O   0  0  0  0  0  0  0  0  0  0  0  0
    6.0010    0.9050    0.0000 O   0  0  0  0  0  0  0  0  0  0  0  0
    4.2690    0.9050    0.0000 N   0  0  0  0  0  0  0  0  0  0  0  0
    5.1350    2.4050    0.0000 N   0  0  0  0  0  0  0  0  0  0  0  0
    4.2690    3.9050    0.0000 N   0  0  0  0  0  0  0  0  0  0  0  0
    3.4030   -1.5950    0.0000 C   0  0  1  0  0  0  0  0  0  0  0  0
    4.2690   -0.0950    0.0000 C   0  0  1  0  0  0  0  0  0  0  0  0
    3.4030   -0.5950    0.0000 C   0  0  0  0  0  0  0  0  0  0  0  0
    4.2690   -2.0950    0.0000 C   0  0  2  0  0  0  0  0  0  0  0  0
    5.1350   -0.5950    0.0000 C   0  0  0  0  0  0  0  0  0  0  0  0
    5.1350   -1.5950    0.0000 C   0  0  0  0  0  0  0  0  0  0  0  0
    4.2690   -3.0950    0.0000 C   0  0  0  0  0  0  0  0  0  0  0  0
    3.4030    1.4050    0.0000 C   0  0  0  0  0  0  0  0  0  0  0  0
    5.1350    1.4050    0.0000 C   0  0  0  0  0  0  0  0  0  0  0  0
    3.4030    2.4050    0.0000 C   0  0  0  0  0  0  0  0  0  0  0  0
    4.2690    2.9050    0.0000 C   0  0  0  0  0  0  0  0  0  0  0  0
    2.5369    2.9050    0.0000 C   0  0  0  0  0  0  0  0  0  0  0  0
    3.4030   -2.2150    0.0000 H   0  0  0  0  0  0  0  0  0  0  0  0
    4.8059    0.2150    0.0000 H   0  0  0  0  0  0  0  0  0  0  0  0
    3.1909   -0.0124    0.0000 H   0  0  0  0  0  0  0  0  0  0  0  0
    2.7924   -0.7027    0.0000 H   0  0  0  0  0  0  0  0  0  0  0  0
    4.8059   -2.4050    0.0000 H   0  0  0  0  0  0  0  0  0  0  0  0
    5.6720   -0.2850    0.0000 H   0  0  0  0  0  0  0  0  0  0  0  0
    5.6720   -1.9050    0.0000 H   0  0  0  0  0  0  0  0  0  0  0  0
    3.6584   -2.9873    0.0000 H   0  0  0  0  0  0  0  0  0  0  0  0
    4.0569   -3.6776    0.0000 H   0  0  0  0  0  0  0  0  0  0  0  0
    2.0000   -1.7850    0.0000 H   0  0  0  0  0  0  0  0  0  0  0  0
    2.8660    1.0950    0.0000 H   0  0  0  0  0  0  0  0  0  0  0  0
    5.1350   -4.2150    0.0000 H   0  0  0  0  0  0  0  0  0  0  0  0
    2.8469    3.4419    0.0000 H   0  0  0  0  0  0  0  0  0  0  0  0
    2.0000    3.2150    0.0000 H   0  0  0  0  0  0  0  0  0  0  0  0
    2.2269    2.3681    0.0000 H   0  0  0  0  0  0  0  0  0  0  0  0
    4.8059    4.2150    0.0000 H   0  0  0  0  0  0  0  0  0  0  0  0
    3.7320    4.2150    0.0000 H   0  0  0  0  0  0  0  0  0  0  0  0
  7  1  1  1  0  0  0
  1 28  1  0  0  0  0
  2 13  1  0  0  0  0
  2 30  1  0  0  0  0
  3 15  2  0  0  0  0
  8  4  1  6  0  0  0
  4 14  1  0  0  0  0
  4 15  1  0  0  0  0
  5 15  1  0  0  0  0
  5 17  2  0  0  0  0
  6 17  1  0  0  0  0
  6 34  1  0  0  0  0
  6 35  1  0  0  0  0
  7  9  1  0  0  0  0
  7 10  1  0  0  0  0
  7 19  1  0  0  0  0
  8  9  1  0  0  0  0
  8 11  1  0  0  0  0
  8 20  1  0  0  0  0
  9 21  1  0  0  0  0
  9 22  1  0  0  0  0
 10 12  1  0  0  0  0
 10 13  1  6  0  0  0
 10 23  1  0  0  0  0
 11 12  2  0  0  0  0
 11 24  1  0  0  0  0
 12 25  1  0  0  0  0
 13 26  1  0  0  0  0
 13 27  1  0  0  0  0
 14 16  2  0  0  0  0
 14 29  1  0  0  0  0
 16 17  1  0  0  0  0
 16 18  1  0  0  0  0
 18 31  1  0  0  0  0
 18 32  1  0  0  0  0
 18 33  1  0  0  0  0
M  END
> <PUBCHEM_COMPOUND_CID>
510988
> <PUBCHEM_COMPOUND_CANONICALIZED>
1
> <PUBCHEM_CACTVS_COMPLEXITY>
442
> <PUBCHEM_CACTVS_HBOND_ACCEPTOR>
3
> <PUBCHEM_CACTVS_HBOND_DONOR>
3
> <PUBCHEM_CACTVS_ROTATABLE_BOND>
2
> <PUBCHEM_CACTVS_SUBSKEYS>
AAADceBzMAAAAAAAAAAAAAAAAAAAAAAAAAAgQAAAAAAAAAAAAAAAHgAQCAAADTzhgAYDAANAAgCoAiJmdACAAAEgAAAICAAoABiAEAIAgQAEQAAHxgIIAAOQUAMMAAAAAAAAAAAAAAAAAAAAAAAAAAAAAA==
> <PUBCHEM_IUPAC_OPENEYE_NAME>
4-amino-1-[(1S,4R,5S)-5-hydroxy-4-(hydroxymethyl)cyclohex-2-en-1-yl]-5-methyl-pyrimidin-2-one
> <PUBCHEM_IUPAC_CAS_NAME>
4-amino-1-[(1S,4R,5S)-5-hydroxy-4-(hydroxymethyl)-1-cyclohex-2-enyl]-5-methyl-2-pyrimidinone
> <PUBCHEM_IUPAC_NAME_MARKUP>
4-amino-1-[(1<I>S</I>,4<I>R</I>,5<I>S</I>)-5-hydroxy-4-(hydroxymethyl)cyclohex-2-en-1-yl]-5-methylpyrimidin-2-one
> <PUBCHEM_IUPAC_NAME>
4-amino-1-[(1S,4R,5S)-5-hydroxy-4-(hydroxymethyl)cyclohex-2-en-1-yl]-5-methylpyrimidin-2-one
> <PUBCHEM_IUPAC_SYSTEMATIC_NAME>
4-azanyl-1-[(1S,4R,5S)-4-(hydroxymethyl)-5-oxidanyl-cyclohex-2-en-1-yl]-5-methyl-pyrimidin-2-one
> <PUBCHEM_IUPAC_TRADITIONAL_NAME>
4-amino-1-[(1S,4R,5S)-5-hydroxy-4-methylol-cyclohex-2-en-1-yl]-5-methyl-pyrimidin-2-one
> <PUBCHEM_IUPAC_INCHI>
InChI=1S/C12H17N3O3/c1-7-5-15(12(18)14-11(7)13)9-3-2-8(6-16)10(17)4-9/h2-3,5,8-10,16-17H,4,6H2,1H3,(H2,13,14,18)/t8-,9-,10+/m1/s1
> <PUBCHEM_IUPAC_INCHIKEY>
JGDZXCWLOPITSE-BBBLOLIVSA-N
> <PUBCHEM_XLOGP3_AA>
-0.6
> <PUBCHEM_EXACT_MASS>
251.12699141
> <PUBCHEM_MOLECULAR_FORMULA>
C12H17N3O3
> <PUBCHEM_MOLECULAR_WEIGHT>
251.28
> <PUBCHEM_OPENEYE_CAN_SMILES>
CC1=CN(C(=O)N=C1N)C2CC(C(C=C2)CO)O
> <PUBCHEM_OPENEYE_ISO_SMILES>
CC1=CN(C(=O)N=C1N)[C@H]2C[C@@H]([C@H](C=C2)CO)O
> <PUBCHEM_CACTVS_TPSA>
99.2
> <PUBCHEM_MONOISOTOPIC_WEIGHT>
251.12699141
> <PUBCHEM_TOTAL_CHARGE>
0
> <PUBCHEM_HEAVY_ATOM_COUNT>
18
> <PUBCHEM_ATOM_DEF_STEREO_COUNT>
3
> <PUBCHEM_ATOM_UDEF_STEREO_COUNT>
0
> <PUBCHEM_BOND_DEF_STEREO_COUNT>
0
> <PUBCHEM_BOND_UDEF_STEREO_COUNT>
0
> <PUBCHEM_ISOTOPIC_ATOM_COUNT>
0
> <PUBCHEM_COMPONENT_COUNT>
1
> <PUBCHEM_CACTVS_TAUTO_COUNT>
-1
> <PUBCHEM_COORDINATE_TYPE>
1
5
255
> <PUBCHEM_BONDANNOTATIONS>
7  1  5
10  13  6
14  16  8
16  17  8
4  14  8
4  15  8
8  4  6
5  15  8
5  17  8
$$$$
