510982
  -OEChem-10302200282D
 34 36  0     1  0  0  0  0  0999 V2000
    5.8055    1.2369    0.0000 O   0  0  0  0  0  0  0  0  0  0  0  0
    8.1515    0.1450    0.0000 O   0  0  0  0  0  0  0  0  0  0  0  0
    8.1552    2.3206    0.0000 O   0  0  0  0  0  0  0  0  0  0  0  0
    6.7577    3.7384    0.0000 O   0  0  0  0  0  0  0  0  0  0  0  0
    6.0812   -0.5237    0.0000 N   0  0  0  0  0  0  0  0  0  0  0  0
    6.0812   -2.1332    0.0000 N   0  0  0  0  0  0  0  0  0  0  0  0
    4.2690   -0.3284    0.0000 N   0  0  0  0  0  0  0  0  0  0  0  0
    3.4030   -1.8284    0.0000 N   0  0  0  0  0  0  0  0  0  0  0  0
    4.2690   -3.3284    0.0000 N   0  0  0  0  0  0  0  0  0  0  0  0
    2.5369   -0.3284    0.0000 N   0  0  0  0  0  0  0  0  0  0  0  0
    3.4030   -3.8284    0.0000 N   0  3  0  0  0  0  0  0  0  0  0  0
    2.5369   -4.3284    0.0000 N   0  5  0  0  0  0  0  0  0  0  0  0
    7.3435    0.7342    0.0000 C   0  0  1  0  0  0  0  0  0  0  0  0
    6.3919    0.4268    0.0000 C   0  0  1  0  0  0  0  0  0  0  0  0
    7.3452    1.7342    0.0000 C   0  0  1  0  0  0  0  0  0  0  0  0
    6.3947    2.0449    0.0000 C   0  0  1  0  0  0  0  0  0  0  0  0
    6.0873    2.9964    0.0000 C   0  0  0  0  0  0  0  0  0  0  0  0
    5.1350   -0.8284    0.0000 C   0  0  0  0  0  0  0  0  0  0  0  0
    6.6648   -1.3284    0.0000 C   0  0  0  0  0  0  0  0  0  0  0  0
    5.1350   -1.8284    0.0000 C   0  0  0  0  0  0  0  0  0  0  0  0
    4.2690   -2.3284    0.0000 C   0  0  0  0  0  0  0  0  0  0  0  0
    3.4030   -0.8284    0.0000 C   0  0  0  0  0  0  0  0  0  0  0  0
    7.8964    1.0147    0.0000 H   0  0  0  0  0  0  0  0  0  0  0  0
    5.7794    0.3309    0.0000 H   0  0  0  0  0  0  0  0  0  0  0  0
    7.2493    2.3467    0.0000 H   0  0  0  0  0  0  0  0  0  0  0  0
    5.7825    2.1429    0.0000 H   0  0  0  0  0  0  0  0  0  0  0  0
    5.7065    3.4857    0.0000 H   0  0  0  0  0  0  0  0  0  0  0  0
    5.5394    2.7063    0.0000 H   0  0  0  0  0  0  0  0  0  0  0  0
    8.7183    0.3962    0.0000 H   0  0  0  0  0  0  0  0  0  0  0  0
    8.7212    2.0674    0.0000 H   0  0  0  0  0  0  0  0  0  0  0  0
    7.2848   -1.3284    0.0000 H   0  0  0  0  0  0  0  0  0  0  0  0
    6.5672    4.3284    0.0000 H   0  0  0  0  0  0  0  0  0  0  0  0
    2.0000   -0.6384    0.0000 H   0  0  0  0  0  0  0  0  0  0  0  0
    2.5369    0.2916    0.0000 H   0  0  0  0  0  0  0  0  0  0  0  0
  1 14  1  0  0  0  0
  1 16  1  0  0  0  0
 13  2  1  1  0  0  0
  2 29  1  0  0  0  0
 15  3  1  1  0  0  0
  3 30  1  0  0  0  0
  4 17  1  0  0  0  0
  4 32  1  0  0  0  0
 14  5  1  6  0  0  0
  5 18  1  0  0  0  0
  5 19  1  0  0  0  0
  6 19  2  0  0  0  0
  6 20  1  0  0  0  0
  7 18  2  0  0  0  0
  7 22  1  0  0  0  0
  8 21  1  0  0  0  0
  8 22  2  0  0  0  0
  9 11  2  0  0  0  0
  9 21  1  0  0  0  0
 10 22  1  0  0  0  0
 10 33  1  0  0  0  0
 10 34  1  0  0  0  0
 11 12  2  0  0  0  0
 13 14  1  0  0  0  0
 13 15  1  0  0  0  0
 13 23  1  0  0  0  0
 14 24  1  0  0  0  0
 15 16  1  0  0  0  0
 15 25  1  0  0  0  0
 16 17  1  6  0  0  0
 16 26  1  0  0  0  0
 17 27  1  0  0  0  0
 17 28  1  0  0  0  0
 18 20  1  0  0  0  0
 19 31  1  0  0  0  0
 20 21  2  0  0  0  0
M  CHG  2  11   1  12  -1
M  END
> <PUBCHEM_COMPOUND_CID>
510982
> <PUBCHEM_COMPOUND_CANONICALIZED>
1
> <PUBCHEM_CACTVS_COMPLEXITY>
462
> <PUBCHEM_CACTVS_HBOND_ACCEPTOR>
10
> <PUBCHEM_CACTVS_HBOND_DONOR>
4
> <PUBCHEM_CACTVS_ROTATABLE_BOND>
3
> <PUBCHEM_CACTVS_SUBSKEYS>
AAADccBz+AAAAAAAAAAAAAAAAAAAAWJAAAAsAAAAAAAAAFgB+AAAHgAYCAAACBzhlwYF8L9MFgCiAQZhZACAgC0REKABUCAoVBCDWAJAyEAeRAgPAALTACDwMAIAAAAAAAAAAAAAAAAAAAAAAAAAAAAAAA==
> <PUBCHEM_IUPAC_OPENEYE_NAME>
(2R,3R,4S,5R)-2-(2-amino-6-azido-purin-9-yl)-5-(hydroxymethyl)tetrahydrofuran-3,4-diol
> <PUBCHEM_IUPAC_CAS_NAME>
(2R,3R,4S,5R)-2-(2-amino-6-azido-9-purinyl)-5-(hydroxymethyl)oxolane-3,4-diol
> <PUBCHEM_IUPAC_NAME_MARKUP>
(2<I>R</I>,3<I>R</I>,4<I>S</I>,5<I>R</I>)-2-(2-amino-6-azidopurin-9-yl)-5-(hydroxymethyl)oxolane-3,4-diol
> <PUBCHEM_IUPAC_NAME>
(2R,3R,4S,5R)-2-(2-amino-6-azidopurin-9-yl)-5-(hydroxymethyl)oxolane-3,4-diol
> <PUBCHEM_IUPAC_SYSTEMATIC_NAME>
(2R,3R,4S,5R)-2-(2-azanyl-6-azido-purin-9-yl)-5-(hydroxymethyl)oxolane-3,4-diol
> <PUBCHEM_IUPAC_TRADITIONAL_NAME>
(2R,3R,4S,5R)-2-(2-amino-6-azido-purin-9-yl)-5-methylol-tetrahydrofuran-3,4-diol
> <PUBCHEM_IUPAC_INCHI>
InChI=1S/C10H12N8O4/c11-10-14-7(16-17-12)4-8(15-10)18(2-13-4)9-6(21)5(20)3(1-19)22-9/h2-3,5-6,9,19-21H,1H2,(H2,11,14,15)/t3-,5-,6-,9-/m1/s1
> <PUBCHEM_IUPAC_INCHIKEY>
HFOPKVYFMPFGKF-UUOKFMHZSA-N
> <PUBCHEM_XLOGP3>
0.2
> <PUBCHEM_EXACT_MASS>
308.09815089
> <PUBCHEM_MOLECULAR_FORMULA>
C10H12N8O4
> <PUBCHEM_MOLECULAR_WEIGHT>
308.25
> <PUBCHEM_OPENEYE_CAN_SMILES>
C1=NC2=C(N=C(N=C2N1C3C(C(C(O3)CO)O)O)N)N=[N+]=[N-]
> <PUBCHEM_OPENEYE_ISO_SMILES>
C1=NC2=C(N=C(N=C2N1[C@H]3[C@@H]([C@@H]([C@H](O3)CO)O)O)N)N=[N+]=[N-]
> <PUBCHEM_CACTVS_TPSA>
154
> <PUBCHEM_MONOISOTOPIC_WEIGHT>
308.09815089
> <PUBCHEM_TOTAL_CHARGE>
0
> <PUBCHEM_HEAVY_ATOM_COUNT>
22
> <PUBCHEM_ATOM_DEF_STEREO_COUNT>
4
> <PUBCHEM_ATOM_UDEF_STEREO_COUNT>
0
> <PUBCHEM_BOND_DEF_STEREO_COUNT>
0
> <PUBCHEM_BOND_UDEF_STEREO_COUNT>
1
> <PUBCHEM_ISOTOPIC_ATOM_COUNT>
0
> <PUBCHEM_COMPONENT_COUNT>
1
> <PUBCHEM_CACTVS_TAUTO_COUNT>
-1
> <PUBCHEM_COORDINATE_TYPE>
1
5
255
> <PUBCHEM_BONDANNOTATIONS>
16  17  6
18  20  8
13  2  5
20  21  8
15  3  5
14  5  6
5  18  8
5  19  8
6  19  8
6  20  8
7  18  8
7  22  8
8  21  8
8  22  8
9  11  1
$$$$
