510963
  -OEChem-10302200282D
 80 84  0     1  0  0  0  0  0999 V2000
   10.0707   -1.1097    0.0000 O   0  0  0  0  0  0  0  0  0  0  0  0
    2.0000   -2.6896    0.0000 O   0  0  0  0  0  0  0  0  0  0  0  0
   10.9251    0.3969    0.0000 N   0  0  0  0  0  0  0  0  0  0  0  0
    7.3931   -0.6372    0.0000 C   0  0  2  0  0  0  0  0  0  0  0  0
    6.5271   -1.1372    0.0000 C   0  0  1  0  0  0  0  0  0  0  0  0
    5.6610   -0.6372    0.0000 C   0  0  3  0  0  0  0  0  0  0  0  0
    7.3931    0.3628    0.0000 C   0  0  3  0  0  0  0  0  0  0  0  0
    4.7510   -1.1441    0.0000 C   0  0  2  0  0  0  0  0  0  0  0  0
    8.2870    0.8974    0.0000 C   0  0  3  0  0  0  0  0  0  0  0  0
    9.1931    0.3836    0.0000 C   0  0  1  0  0  0  0  0  0  0  0  0
    4.7430   -2.1857    0.0000 C   0  0  3  0  0  0  0  0  0  0  0  0
    8.2870   -1.1719    0.0000 C   0  0  0  0  0  0  0  0  0  0  0  0
    5.6610    0.3628    0.0000 C   0  0  0  0  0  0  0  0  0  0  0  0
    6.5431   -2.1788    0.0000 C   0  0  0  0  0  0  0  0  0  0  0  0
    6.5271    0.8628    0.0000 C   0  0  0  0  0  0  0  0  0  0  0  0
    9.1931   -0.6581    0.0000 C   0  0  0  0  0  0  0  0  0  0  0  0
    5.6451   -2.7065    0.0000 C   0  0  0  0  0  0  0  0  0  0  0  0
    8.4971    1.9113    0.0000 C   0  0  1  0  0  0  0  0  0  0  0  0
    7.7352   -1.5769    0.0000 C   0  0  0  0  0  0  0  0  0  0  0  0
    7.1698   -1.9033    0.0000 C   0  0  0  0  0  0  0  0  0  0  0  0
    9.9554    1.0843    0.0000 C   0  0  0  0  0  0  0  0  0  0  0  0
    3.8242   -0.5800    0.0000 C   0  0  0  0  0  0  0  0  0  0  0  0
    3.8076   -2.7354    0.0000 C   0  0  0  0  0  0  0  0  0  0  0  0
    9.5262    2.0266    0.0000 C   0  0  0  0  0  0  0  0  0  0  0  0
    4.7587   -0.1441    0.0000 C   0  0  0  0  0  0  0  0  0  0  0  0
    2.8763   -1.1080    0.0000 C   0  0  0  0  0  0  0  0  0  0  0  0
   10.0629   -0.1097    0.0000 C   0  0  0  0  0  0  0  0  0  0  0  0
    2.8680   -2.1929    0.0000 C   0  0  0  0  0  0  0  0  0  0  0  0
    7.8236    2.6505    0.0000 C   0  0  0  0  0  0  0  0  0  0  0  0
    3.3109   -3.6034    0.0000 C   0  0  0  0  0  0  0  0  0  0  0  0
    4.3109   -3.5995    0.0000 C   0  0  0  0  0  0  0  0  0  0  0  0
    8.1269    3.6034    0.0000 C   0  0  0  0  0  0  0  0  0  0  0  0
    6.8467    2.4367    0.0000 C   0  0  0  0  0  0  0  0  0  0  0  0
    6.1980   -0.3272    0.0000 H   0  0  0  0  0  0  0  0  0  0  0  0
    7.3883    0.9827    0.0000 H   0  0  0  0  0  0  0  0  0  0  0  0
    7.7817    1.2567    0.0000 H   0  0  0  0  0  0  0  0  0  0  0  0
    4.7454   -2.8057    0.0000 H   0  0  0  0  0  0  0  0  0  0  0  0
    7.8824   -1.6417    0.0000 H   0  0  0  0  0  0  0  0  0  0  0  0
    8.6806   -1.6509    0.0000 H   0  0  0  0  0  0  0  0  0  0  0  0
    5.4490    0.9454    0.0000 H   0  0  0  0  0  0  0  0  0  0  0  0
    5.0504    0.2551    0.0000 H   0  0  0  0  0  0  0  0  0  0  0  0
    6.7612   -2.7592    0.0000 H   0  0  0  0  0  0  0  0  0  0  0  0
    7.1523   -2.0632    0.0000 H   0  0  0  0  0  0  0  0  0  0  0  0
    6.9256    1.3377    0.0000 H   0  0  0  0  0  0  0  0  0  0  0  0
    6.1285    1.3377    0.0000 H   0  0  0  0  0  0  0  0  0  0  0  0
    9.4022   -1.2418    0.0000 H   0  0  0  0  0  0  0  0  0  0  0  0
    9.8040   -0.5520    0.0000 H   0  0  0  0  0  0  0  0  0  0  0  0
    5.2478   -3.1825    0.0000 H   0  0  0  0  0  0  0  0  0  0  0  0
    6.0460   -3.1794    0.0000 H   0  0  0  0  0  0  0  0  0  0  0  0
    7.8992    1.7476    0.0000 H   0  0  0  0  0  0  0  0  0  0  0  0
    7.1526   -1.7890    0.0000 H   0  0  0  0  0  0  0  0  0  0  0  0
    7.9473   -2.1595    0.0000 H   0  0  0  0  0  0  0  0  0  0  0  0
    8.3178   -1.3648    0.0000 H   0  0  0  0  0  0  0  0  0  0  0  0
    6.6949   -2.3018    0.0000 H   0  0  0  0  0  0  0  0  0  0  0  0
    7.5684   -2.3782    0.0000 H   0  0  0  0  0  0  0  0  0  0  0  0
    7.6448   -1.5048    0.0000 H   0  0  0  0  0  0  0  0  0  0  0  0
   10.3247    0.5863    0.0000 H   0  0  0  0  0  0  0  0  0  0  0  0
   10.4895    1.3992    0.0000 H   0  0  0  0  0  0  0  0  0  0  0  0
    4.2324   -0.1134    0.0000 H   0  0  0  0  0  0  0  0  0  0  0  0
    3.4343   -0.0980    0.0000 H   0  0  0  0  0  0  0  0  0  0  0  0
   10.1143    2.2229    0.0000 H   0  0  0  0  0  0  0  0  0  0  0  0
    9.3928    2.6321    0.0000 H   0  0  0  0  0  0  0  0  0  0  0  0
    5.3787   -0.1489    0.0000 H   0  0  0  0  0  0  0  0  0  0  0  0
    4.7635    0.4759    0.0000 H   0  0  0  0  0  0  0  0  0  0  0  0
    4.1388   -0.1393    0.0000 H   0  0  0  0  0  0  0  0  0  0  0  0
    2.6718   -0.5227    0.0000 H   0  0  0  0  0  0  0  0  0  0  0  0
    2.2647   -1.2093    0.0000 H   0  0  0  0  0  0  0  0  0  0  0  0
    2.7728   -3.2954    0.0000 H   0  0  0  0  0  0  0  0  0  0  0  0
    3.0030   -4.1415    0.0000 H   0  0  0  0  0  0  0  0  0  0  0  0
    3.8490   -3.9113    0.0000 H   0  0  0  0  0  0  0  0  0  0  0  0
    3.7752   -3.9116    0.0000 H   0  0  0  0  0  0  0  0  0  0  0  0
    4.6230   -4.1352    0.0000 H   0  0  0  0  0  0  0  0  0  0  0  0
    4.8466   -3.2874    0.0000 H   0  0  0  0  0  0  0  0  0  0  0  0
   11.4644    0.0911    0.0000 H   0  0  0  0  0  0  0  0  0  0  0  0
   10.9203    1.0169    0.0000 H   0  0  0  0  0  0  0  0  0  0  0  0
    8.7177    3.4153    0.0000 H   0  0  0  0  0  0  0  0  0  0  0  0
    8.3150    4.1941    0.0000 H   0  0  0  0  0  0  0  0  0  0  0  0
    7.5361    3.7914    0.0000 H   0  0  0  0  0  0  0  0  0  0  0  0
    6.4291    2.8950    0.0000 H   0  0  0  0  0  0  0  0  0  0  0  0
    6.6586    1.8459    0.0000 H   0  0  0  0  0  0  0  0  0  0  0  0
  1 27  2  0  0  0  0
  2 28  2  0  0  0  0
  3 27  1  0  0  0  0
  3 74  1  0  0  0  0
  3 75  1  0  0  0  0
  4  5  1  0  0  0  0
  4  7  1  0  0  0  0
  4 12  1  0  0  0  0
  4 19  1  1  0  0  0
  5  6  1  0  0  0  0
  5 14  1  0  0  0  0
  5 20  1  1  0  0  0
  6  8  1  0  0  0  0
  6 13  1  0  0  0  0
  6 34  1  0  0  0  0
  7  9  1  0  0  0  0
  7 15  1  0  0  0  0
  7 35  1  0  0  0  0
  8 11  1  0  0  0  0
  8 22  1  0  0  0  0
  8 25  1  1  0  0  0
  9 10  1  0  0  0  0
  9 18  1  0  0  0  0
  9 36  1  0  0  0  0
 10 16  1  0  0  0  0
 10 21  1  0  0  0  0
 10 27  1  1  0  0  0
 11 17  1  0  0  0  0
 11 23  1  0  0  0  0
 11 37  1  0  0  0  0
 12 16  1  0  0  0  0
 12 38  1  0  0  0  0
 12 39  1  0  0  0  0
 13 15  1  0  0  0  0
 13 40  1  0  0  0  0
 13 41  1  0  0  0  0
 14 17  1  0  0  0  0
 14 42  1  0  0  0  0
 14 43  1  0  0  0  0
 15 44  1  0  0  0  0
 15 45  1  0  0  0  0
 16 46  1  0  0  0  0
 16 47  1  0  0  0  0
 17 48  1  0  0  0  0
 17 49  1  0  0  0  0
 18 24  1  0  0  0  0
 18 29  1  0  0  0  0
 18 50  1  0  0  0  0
 19 51  1  0  0  0  0
 19 52  1  0  0  0  0
 19 53  1  0  0  0  0
 20 54  1  0  0  0  0
 20 55  1  0  0  0  0
 20 56  1  0  0  0  0
 21 24  1  0  0  0  0
 21 57  1  0  0  0  0
 21 58  1  0  0  0  0
 22 26  1  0  0  0  0
 22 59  1  0  0  0  0
 22 60  1  0  0  0  0
 23 28  1  0  0  0  0
 23 30  1  0  0  0  0
 23 31  1  0  0  0  0
 24 61  1  0  0  0  0
 24 62  1  0  0  0  0
 25 63  1  0  0  0  0
 25 64  1  0  0  0  0
 25 65  1  0  0  0  0
 26 28  1  0  0  0  0
 26 66  1  0  0  0  0
 26 67  1  0  0  0  0
 29 32  1  0  0  0  0
 29 33  2  0  0  0  0
 30 68  1  0  0  0  0
 30 69  1  0  0  0  0
 30 70  1  0  0  0  0
 31 71  1  0  0  0  0
 31 72  1  0  0  0  0
 31 73  1  0  0  0  0
 32 76  1  0  0  0  0
 32 77  1  0  0  0  0
 32 78  1  0  0  0  0
 33 79  1  0  0  0  0
 33 80  1  0  0  0  0
M  END
> <PUBCHEM_COMPOUND_CID>
510963
> <PUBCHEM_COMPOUND_CANONICALIZED>
1
> <PUBCHEM_CACTVS_COMPLEXITY>
905
> <PUBCHEM_CACTVS_HBOND_ACCEPTOR>
2
> <PUBCHEM_CACTVS_HBOND_DONOR>
1
> <PUBCHEM_CACTVS_ROTATABLE_BOND>
2
> <PUBCHEM_CACTVS_SUBSKEYS>
AAADcfB6MAAAAAAAAAAAAAAAAAAAAYAAAAAwYMGAAAAAAGDAAAAAHgAQAAAADwSBgAACAABAAACIAoFSEAAAAAAgAAAAAAEAAAgAABIAgQAAAAAAgAAAAAEYiMCPgAAAAAAAAACAAAQAACAAAQAACAAAAA==
> <PUBCHEM_IUPAC_OPENEYE_NAME>
(1R,3aS,5aS,5bR,11aR)-1-isopropenyl-5a,5b,8,8,11a-pentamethyl-9-oxo-2,3,4,5,6,7,7a,10,11,11b,12,13,13a,13b-tetradecahydro-1H-cyclopenta[a]chrysene-3a-carboxamide
> <PUBCHEM_IUPAC_CAS_NAME>
(1R,3aS,5aS,5bR,11aR)-5a,5b,8,8,11a-pentamethyl-1-(1-methylethenyl)-9-oxo-2,3,4,5,6,7,7a,10,11,11b,12,13,13a,13b-tetradecahydro-1H-cyclopenta[a]chrysene-3a-carboxamide
> <PUBCHEM_IUPAC_NAME_MARKUP>
(1<I>R</I>,3<I>a</I><I>S</I>,5<I>a</I><I>S</I>,5<I>b</I><I>R</I>,11<I>a</I><I>R</I>)-5<I>a</I>,5<I>b</I>,8,8,11<I>a</I>-pentamethyl-9-oxo-1-prop-1-en-2-yl-2,3,4,5,6,7,7<I>a</I>,10,11,11<I>b</I>,12,13,13<I>a</I>,13<I>b</I>-tetradecahydro-1<I>H</I>-cyclopenta[a]chrysene-3<I>a</I>-carboxamide
> <PUBCHEM_IUPAC_NAME>
(1R,3aS,5aS,5bR,11aR)-5a,5b,8,8,11a-pentamethyl-9-oxo-1-prop-1-en-2-yl-2,3,4,5,6,7,7a,10,11,11b,12,13,13a,13b-tetradecahydro-1H-cyclopenta[a]chrysene-3a-carboxamide
> <PUBCHEM_IUPAC_SYSTEMATIC_NAME>
(1R,3aS,5aS,5bR,11aR)-5a,5b,8,8,11a-pentamethyl-9-oxidanylidene-1-prop-1-en-2-yl-2,3,4,5,6,7,7a,10,11,11b,12,13,13a,13b-tetradecahydro-1H-cyclopenta[a]chrysene-3a-carboxamide
> <PUBCHEM_IUPAC_TRADITIONAL_NAME>
(1R,3aS,5aS,5bR,11aR)-1-isopropenyl-9-keto-5a,5b,8,8,11a-pentamethyl-2,3,4,5,6,7,7a,10,11,11b,12,13,13a,13b-tetradecahydro-1H-cyclopenta[a]chrysene-3a-carboxamide
> <PUBCHEM_IUPAC_INCHI>
InChI=1S/C30H47NO2/c1-18(2)19-10-15-30(25(31)33)17-16-28(6)20(24(19)30)8-9-22-27(5)13-12-23(32)26(3,4)21(27)11-14-29(22,28)7/h19-22,24H,1,8-17H2,2-7H3,(H2,31,33)/t19-,20?,21?,22?,24?,27-,28-,29+,30-/m0/s1
> <PUBCHEM_IUPAC_INCHIKEY>
YUVRHNHDLXYOHO-MMGSQHNKSA-N
> <PUBCHEM_XLOGP3_AA>
7.2
> <PUBCHEM_EXACT_MASS>
453.360679742
> <PUBCHEM_MOLECULAR_FORMULA>
C30H47NO2
> <PUBCHEM_MOLECULAR_WEIGHT>
453.7
> <PUBCHEM_OPENEYE_CAN_SMILES>
CC(=C)C1CCC2(C1C3CCC4C5(CCC(=O)C(C5CCC4(C3(CC2)C)C)(C)C)C)C(=O)N
> <PUBCHEM_OPENEYE_ISO_SMILES>
CC(=C)[C@@H]1CC[C@]2(C1C3CCC4[C@]5(CCC(=O)C(C5CC[C@]4([C@]3(CC2)C)C)(C)C)C)C(=O)N
> <PUBCHEM_CACTVS_TPSA>
60.2
> <PUBCHEM_MONOISOTOPIC_WEIGHT>
453.360679742
> <PUBCHEM_TOTAL_CHARGE>
0
> <PUBCHEM_HEAVY_ATOM_COUNT>
33
> <PUBCHEM_ATOM_DEF_STEREO_COUNT>
5
> <PUBCHEM_ATOM_UDEF_STEREO_COUNT>
4
> <PUBCHEM_BOND_DEF_STEREO_COUNT>
0
> <PUBCHEM_BOND_UDEF_STEREO_COUNT>
0
> <PUBCHEM_ISOTOPIC_ATOM_COUNT>
0
> <PUBCHEM_COMPONENT_COUNT>
1
> <PUBCHEM_CACTVS_TAUTO_COUNT>
-1
> <PUBCHEM_COORDINATE_TYPE>
1
5
255
> <PUBCHEM_BONDANNOTATIONS>
10  27  5
11  17  3
4  19  5
5  20  5
6  13  3
7  15  3
8  25  5
9  18  3
$$$$
