511063
  -OEChem-10302200282D
 80 81  0     1  0  0  0  0  0999 V2000
    4.7404    2.0519    0.0000 O   0  0  0  0  0  0  0  0  0  0  0  0
    4.5981    0.6973    0.0000 O   0  0  0  0  0  0  0  0  0  0  0  0
    4.6210    5.6555    0.0000 O   0  0  0  0  0  0  0  0  0  0  0  0
    5.4641   -2.8027    0.0000 O   0  0  0  0  0  0  0  0  0  0  0  0
    6.3152    5.2954    0.0000 O   0  0  0  0  0  0  0  0  0  0  0  0
    2.8660   -2.3027    0.0000 O   0  0  0  0  0  0  0  0  0  0  0  0
    6.4347    1.6918    0.0000 N   0  0  0  0  0  0  0  0  0  0  0  0
    5.4641   -0.8027    0.0000 N   0  0  0  0  0  0  0  0  0  0  0  0
    5.1563    4.0082    0.0000 N   0  0  0  0  0  0  0  0  0  0  0  0
    3.7320   -3.8027    0.0000 N   0  0  0  0  0  0  0  0  0  0  0  0
    6.3301    0.6973    0.0000 C   0  0  1  0  0  0  0  0  0  0  0  0
    7.2437    0.2905    0.0000 C   0  0  0  0  0  0  0  0  0  0  0  0
    7.9128    1.0337    0.0000 C   0  0  0  0  0  0  0  0  0  0  0  0
    7.4128    1.8997    0.0000 C   0  0  0  0  0  0  0  0  0  0  0  0
    5.6915    2.3609    0.0000 C   0  0  0  0  0  0  0  0  0  0  0  0
    5.8994    3.3391    0.0000 C   0  0  2  0  0  0  0  0  0  0  0  0
    5.4641    0.1973    0.0000 C   0  0  0  0  0  0  0  0  0  0  0  0
    6.8505    3.6481    0.0000 C   0  0  0  0  0  0  0  0  0  0  0  0
    4.5981   -1.3027    0.0000 C   0  0  3  0  0  0  0  0  0  0  0  0
    7.0584    4.6262    0.0000 C   0  0  0  0  0  0  0  0  0  0  0  0
    7.5936    2.9789    0.0000 C   0  0  0  0  0  0  0  0  0  0  0  0
    3.7320   -0.8027    0.0000 C   0  0  0  0  0  0  0  0  0  0  0  0
    4.5981   -2.3027    0.0000 C   0  0  0  0  0  0  0  0  0  0  0  0
    3.7320    0.1973    0.0000 C   0  0  0  0  0  0  0  0  0  0  0  0
    5.3642    4.9863    0.0000 C   0  0  0  0  0  0  0  0  0  0  0  0
    3.7320   -2.8027    0.0000 C   0  0  0  0  0  0  0  0  0  0  0  0
    2.8660    0.6973    0.0000 C   0  0  0  0  0  0  0  0  0  0  0  0
    2.8660   -4.3027    0.0000 C   0  0  2  0  0  0  0  0  0  0  0  0
    4.8290    6.6336    0.0000 C   0  0  0  0  0  0  0  0  0  0  0  0
    2.8660   -5.3027    0.0000 C   0  0  0  0  0  0  0  0  0  0  0  0
    2.0000   -3.8027    0.0000 C   0  0  0  0  0  0  0  0  0  0  0  0
    4.0858    7.3027    0.0000 C   0  0  0  0  0  0  0  0  0  0  0  0
    5.7800    6.9426    0.0000 C   0  0  0  0  0  0  0  0  0  0  0  0
    3.7320   -5.8027    0.0000 C   0  0  0  0  0  0  0  0  0  0  0  0
    2.0000   -5.8027    0.0000 C   0  0  0  0  0  0  0  0  0  0  0  0
    3.7320   -6.8027    0.0000 C   0  0  0  0  0  0  0  0  0  0  0  0
    2.0000   -6.8027    0.0000 C   0  0  0  0  0  0  0  0  0  0  0  0
    2.8660   -7.3027    0.0000 C   0  0  0  0  0  0  0  0  0  0  0  0
    5.8102    1.0349    0.0000 H   0  0  0  0  0  0  0  0  0  0  0  0
    6.9337   -0.2464    0.0000 H   0  0  0  0  0  0  0  0  0  0  0  0
    7.7453   -0.0739    0.0000 H   0  0  0  0  0  0  0  0  0  0  0  0
    8.3277    0.5729    0.0000 H   0  0  0  0  0  0  0  0  0  0  0  0
    8.4144    1.3981    0.0000 H   0  0  0  0  0  0  0  0  0  0  0  0
    7.9792    2.1519    0.0000 H   0  0  0  0  0  0  0  0  0  0  0  0
    7.2212    2.4894    0.0000 H   0  0  0  0  0  0  0  0  0  0  0  0
    5.3098    3.1475    0.0000 H   0  0  0  0  0  0  0  0  0  0  0  0
    6.3897    4.0629    0.0000 H   0  0  0  0  0  0  0  0  0  0  0  0
    6.0010   -1.1127    0.0000 H   0  0  0  0  0  0  0  0  0  0  0  0
    4.5981   -0.6827    0.0000 H   0  0  0  0  0  0  0  0  0  0  0  0
    4.5666    3.8166    0.0000 H   0  0  0  0  0  0  0  0  0  0  0  0
    7.6648    4.4973    0.0000 H   0  0  0  0  0  0  0  0  0  0  0  0
    7.1873    5.2327    0.0000 H   0  0  0  0  0  0  0  0  0  0  0  0
    6.4519    4.7551    0.0000 H   0  0  0  0  0  0  0  0  0  0  0  0
    7.1788    2.5182    0.0000 H   0  0  0  0  0  0  0  0  0  0  0  0
    8.0544    2.5641    0.0000 H   0  0  0  0  0  0  0  0  0  0  0  0
    8.0085    3.4397    0.0000 H   0  0  0  0  0  0  0  0  0  0  0  0
    3.1215   -0.6951    0.0000 H   0  0  0  0  0  0  0  0  0  0  0  0
    3.5200   -1.3854    0.0000 H   0  0  0  0  0  0  0  0  0  0  0  0
    4.3426    0.0896    0.0000 H   0  0  0  0  0  0  0  0  0  0  0  0
    3.9441    0.7799    0.0000 H   0  0  0  0  0  0  0  0  0  0  0  0
    3.1760    1.2342    0.0000 H   0  0  0  0  0  0  0  0  0  0  0  0
    2.3291    1.0073    0.0000 H   0  0  0  0  0  0  0  0  0  0  0  0
    2.5560    0.1603    0.0000 H   0  0  0  0  0  0  0  0  0  0  0  0
    4.2690   -4.1127    0.0000 H   0  0  0  0  0  0  0  0  0  0  0  0
    2.8660   -3.6827    0.0000 H   0  0  0  0  0  0  0  0  0  0  0  0
    5.2897    6.2188    0.0000 H   0  0  0  0  0  0  0  0  0  0  0  0
    2.3100   -3.2658    0.0000 H   0  0  0  0  0  0  0  0  0  0  0  0
    1.4631   -3.4927    0.0000 H   0  0  0  0  0  0  0  0  0  0  0  0
    1.6900   -4.3397    0.0000 H   0  0  0  0  0  0  0  0  0  0  0  0
    4.5007    7.7635    0.0000 H   0  0  0  0  0  0  0  0  0  0  0  0
    3.6251    7.7176    0.0000 H   0  0  0  0  0  0  0  0  0  0  0  0
    3.6710    6.8420    0.0000 H   0  0  0  0  0  0  0  0  0  0  0  0
    5.9716    6.3530    0.0000 H   0  0  0  0  0  0  0  0  0  0  0  0
    6.3697    7.1342    0.0000 H   0  0  0  0  0  0  0  0  0  0  0  0
    5.5884    7.5323    0.0000 H   0  0  0  0  0  0  0  0  0  0  0  0
    4.2690   -5.4927    0.0000 H   0  0  0  0  0  0  0  0  0  0  0  0
    1.4631   -5.4927    0.0000 H   0  0  0  0  0  0  0  0  0  0  0  0
    4.2690   -7.1127    0.0000 H   0  0  0  0  0  0  0  0  0  0  0  0
    1.4631   -7.1127    0.0000 H   0  0  0  0  0  0  0  0  0  0  0  0
    2.8660   -7.9227    0.0000 H   0  0  0  0  0  0  0  0  0  0  0  0
  1 15  2  0  0  0  0
  2 17  2  0  0  0  0
  3 25  1  0  0  0  0
  3 29  1  0  0  0  0
  4 23  2  0  0  0  0
  5 25  2  0  0  0  0
  6 26  2  0  0  0  0
  7 11  1  0  0  0  0
  7 14  1  0  0  0  0
  7 15  1  0  0  0  0
  8 17  1  0  0  0  0
  8 19  1  0  0  0  0
  8 48  1  0  0  0  0
 16  9  1  1  0  0  0
  9 25  1  0  0  0  0
  9 50  1  0  0  0  0
 10 26  1  0  0  0  0
 28 10  1  6  0  0  0
 10 64  1  0  0  0  0
 11 12  1  0  0  0  0
 11 17  1  1  0  0  0
 11 39  1  0  0  0  0
 12 13  1  0  0  0  0
 12 40  1  0  0  0  0
 12 41  1  0  0  0  0
 13 14  1  0  0  0  0
 13 42  1  0  0  0  0
 13 43  1  0  0  0  0
 14 44  1  0  0  0  0
 14 45  1  0  0  0  0
 15 16  1  0  0  0  0
 16 18  1  0  0  0  0
 16 46  1  0  0  0  0
 18 20  1  0  0  0  0
 18 21  1  0  0  0  0
 18 47  1  0  0  0  0
 19 22  1  0  0  0  0
 19 23  1  0  0  0  0
 19 49  1  0  0  0  0
 20 51  1  0  0  0  0
 20 52  1  0  0  0  0
 20 53  1  0  0  0  0
 21 54  1  0  0  0  0
 21 55  1  0  0  0  0
 21 56  1  0  0  0  0
 22 24  1  0  0  0  0
 22 57  1  0  0  0  0
 22 58  1  0  0  0  0
 23 26  1  0  0  0  0
 24 27  1  0  0  0  0
 24 59  1  0  0  0  0
 24 60  1  0  0  0  0
 27 61  1  0  0  0  0
 27 62  1  0  0  0  0
 27 63  1  0  0  0  0
 28 30  1  0  0  0  0
 28 31  1  0  0  0  0
 28 65  1  0  0  0  0
 29 32  1  0  0  0  0
 29 33  1  0  0  0  0
 29 66  1  0  0  0  0
 30 34  2  0  0  0  0
 30 35  1  0  0  0  0
 31 67  1  0  0  0  0
 31 68  1  0  0  0  0
 31 69  1  0  0  0  0
 32 70  1  0  0  0  0
 32 71  1  0  0  0  0
 32 72  1  0  0  0  0
 33 73  1  0  0  0  0
 33 74  1  0  0  0  0
 33 75  1  0  0  0  0
 34 36  1  0  0  0  0
 34 76  1  0  0  0  0
 35 37  2  0  0  0  0
 35 77  1  0  0  0  0
 36 38  2  0  0  0  0
 36 78  1  0  0  0  0
 37 38  1  0  0  0  0
 37 79  1  0  0  0  0
 38 80  1  0  0  0  0
M  END
> <PUBCHEM_COMPOUND_CID>
511063
> <PUBCHEM_COMPOUND_CANONICALIZED>
1
> <PUBCHEM_CACTVS_COMPLEXITY>
839
> <PUBCHEM_CACTVS_HBOND_ACCEPTOR>
6
> <PUBCHEM_CACTVS_HBOND_DONOR>
3
> <PUBCHEM_CACTVS_ROTATABLE_BOND>
13
> <PUBCHEM_CACTVS_SUBSKEYS>
AAADcfB7uAAAAAAAAAAAAAAAAAAAAWAAAAAwAAAAAAAAAAABAAAAHgAQAAAADTzhmAYyCIPABACIAqFSGACCAAAgAAAIiIGIBIkIYDqA0TGcIAhglgCIiAcYiYAOAAAAAAAAAAAAAAAAAAAAAAAAAAAAAA==
> <PUBCHEM_IUPAC_OPENEYE_NAME>
isopropyl N-[(1S)-2-methyl-1-[(2S)-2-[1-[2-oxo-2-[[(1S)-1-phenylethyl]amino]acetyl]butylcarbamoyl]pyrrolidine-1-carbonyl]propyl]carbamate
> <PUBCHEM_IUPAC_CAS_NAME>
N-[(2S)-1-[(2S)-2-[[[1,2-dioxo-1-[[(1S)-1-phenylethyl]amino]hexan-3-yl]amino]-oxomethyl]-1-pyrrolidinyl]-3-methyl-1-oxobutan-2-yl]carbamic acid propan-2-yl ester
> <PUBCHEM_IUPAC_NAME_MARKUP>
propan-2-yl <I>N</I>-[(2<I>S</I>)-1-[(2<I>S</I>)-2-[[1,2-dioxo-1-[[(1<I>S</I>)-1-phenylethyl]amino]hexan-3-yl]carbamoyl]pyrrolidin-1-yl]-3-methyl-1-oxobutan-2-yl]carbamate
> <PUBCHEM_IUPAC_NAME>
propan-2-yl N-[(2S)-1-[(2S)-2-[[1,2-dioxo-1-[[(1S)-1-phenylethyl]amino]hexan-3-yl]carbamoyl]pyrrolidin-1-yl]-3-methyl-1-oxobutan-2-yl]carbamate
> <PUBCHEM_IUPAC_SYSTEMATIC_NAME>
propan-2-yl N-[(2S)-1-[(2S)-2-[[1,2-bis(oxidanylidene)-1-[[(1S)-1-phenylethyl]amino]hexan-3-yl]carbamoyl]pyrrolidin-1-yl]-3-methyl-1-oxidanylidene-butan-2-yl]carbamate
> <PUBCHEM_IUPAC_TRADITIONAL_NAME>
N-[(1S)-1-[(2S)-2-[1-[2-keto-2-[[(1S)-1-phenylethyl]amino]acetyl]butylcarbamoyl]pyrrolidine-1-carbonyl]-2-methyl-propyl]carbamic acid isopropyl ester
> <PUBCHEM_IUPAC_INCHI>
InChI=1S/C28H42N4O6/c1-7-12-21(24(33)26(35)29-19(6)20-13-9-8-10-14-20)30-25(34)22-15-11-16-32(22)27(36)23(17(2)3)31-28(37)38-18(4)5/h8-10,13-14,17-19,21-23H,7,11-12,15-16H2,1-6H3,(H,29,35)(H,30,34)(H,31,37)/t19-,21?,22-,23-/m0/s1
> <PUBCHEM_IUPAC_INCHIKEY>
LYIIDLVZEINSJV-UCEFQSHXSA-N
> <PUBCHEM_XLOGP3_AA>
3.9
> <PUBCHEM_EXACT_MASS>
530.31043507
> <PUBCHEM_MOLECULAR_FORMULA>
C28H42N4O6
> <PUBCHEM_MOLECULAR_WEIGHT>
530.7
> <PUBCHEM_OPENEYE_CAN_SMILES>
CCCC(C(=O)C(=O)NC(C)C1=CC=CC=C1)NC(=O)C2CCCN2C(=O)C(C(C)C)NC(=O)OC(C)C
> <PUBCHEM_OPENEYE_ISO_SMILES>
CCCC(C(=O)C(=O)N[C@@H](C)C1=CC=CC=C1)NC(=O)[C@@H]2CCCN2C(=O)[C@H](C(C)C)NC(=O)OC(C)C
> <PUBCHEM_CACTVS_TPSA>
134
> <PUBCHEM_MONOISOTOPIC_WEIGHT>
530.31043507
> <PUBCHEM_TOTAL_CHARGE>
0
> <PUBCHEM_HEAVY_ATOM_COUNT>
38
> <PUBCHEM_ATOM_DEF_STEREO_COUNT>
3
> <PUBCHEM_ATOM_UDEF_STEREO_COUNT>
1
> <PUBCHEM_BOND_DEF_STEREO_COUNT>
0
> <PUBCHEM_BOND_UDEF_STEREO_COUNT>
0
> <PUBCHEM_ISOTOPIC_ATOM_COUNT>
0
> <PUBCHEM_COMPONENT_COUNT>
1
> <PUBCHEM_CACTVS_TAUTO_COUNT>
-1
> <PUBCHEM_COORDINATE_TYPE>
1
5
255
> <PUBCHEM_BONDANNOTATIONS>
28  10  6
11  17  5
19  22  3
30  34  8
30  35  8
34  36  8
35  37  8
36  38  8
37  38  8
16  9  5
$$$$
