511098
  -OEChem-10302200282D
 62 66  0     1  0  0  0  0  0999 V2000
    8.7071    4.4197    0.0000 F   0  0  0  0  0  0  0  0  0  0  0  0
    8.3435    5.7864    0.0000 F   0  0  0  0  0  0  0  0  0  0  0  0
    6.9768    5.4227    0.0000 F   0  0  0  0  0  0  0  0  0  0  0  0
    2.6504   -3.1492    0.0000 O   0  0  0  0  0  0  0  0  0  0  0  0
    4.5983   -5.6525    0.0000 O   0  0  0  0  0  0  0  0  0  0  0  0
    5.7783   -0.6497    0.0000 O   0  0  0  0  0  0  0  0  0  0  0  0
    6.3345    0.5937    0.0000 O   0  0  0  0  0  0  0  0  0  0  0  0
    6.1355   -2.3445    0.0000 N   0  0  0  0  0  0  0  0  0  0  0  0
    4.2382   -3.9583    0.0000 N   0  0  0  0  0  0  0  0  0  0  0  0
    7.8330   -0.2749    0.0000 N   0  0  0  0  0  0  0  0  0  0  0  0
    7.8360    1.4571    0.0000 N   0  0  0  0  0  0  0  0  0  0  0  0
    5.1893   -2.6492    0.0000 C   0  0  1  0  0  0  0  0  0  0  0  0
    5.1893   -3.6492    0.0000 C   0  0  2  0  0  0  0  0  0  0  0  0
    4.2382   -2.3402    0.0000 C   0  0  1  0  0  0  0  0  0  0  0  0
    6.1355   -3.9540    0.0000 C   0  0  0  0  0  0  0  0  0  0  0  0
    6.7191   -3.1492    0.0000 C   0  0  0  0  0  0  0  0  0  0  0  0
    2.9511   -5.1172    0.0000 C   0  0  0  0  0  0  0  0  0  0  0  0
    3.6504   -3.1492    0.0000 C   0  0  0  0  0  0  0  0  0  0  0  0
    3.9292   -4.9093    0.0000 C   0  0  0  0  0  0  0  0  0  0  0  0
    2.0000   -4.8082    0.0000 C   0  0  0  0  0  0  0  0  0  0  0  0
    2.2079   -5.7864    0.0000 C   0  0  0  0  0  0  0  0  0  0  0  0
    6.4462   -1.3940    0.0000 C   0  0  0  0  0  0  0  0  0  0  0  0
    3.9292   -1.3892    0.0000 C   0  0  0  0  0  0  0  0  0  0  0  0
    7.4247   -1.1878    0.0000 C   0  0  2  0  0  0  0  0  0  0  0  0
    8.1666   -1.8582    0.0000 C   0  0  0  0  0  0  0  0  0  0  0  0
    9.0335   -1.3597    0.0000 C   0  0  0  0  0  0  0  0  0  0  0  0
    8.8273   -0.3812    0.0000 C   0  0  0  0  0  0  0  0  0  0  0  0
    7.3345    0.5920    0.0000 C   0  0  0  0  0  0  0  0  0  0  0  0
    7.3375    2.3240    0.0000 C   0  0  0  0  0  0  0  0  0  0  0  0
    7.8390    3.1892    0.0000 C   0  0  0  0  0  0  0  0  0  0  0  0
    6.3375    2.3257    0.0000 C   0  0  0  0  0  0  0  0  0  0  0  0
    7.3405    4.0560    0.0000 C   0  0  0  0  0  0  0  0  0  0  0  0
    5.8390    3.1926    0.0000 C   0  0  0  0  0  0  0  0  0  0  0  0
    6.3405    4.0578    0.0000 C   0  0  0  0  0  0  0  0  0  0  0  0
    7.8420    4.9212    0.0000 C   0  0  0  0  0  0  0  0  0  0  0  0
    5.1904   -1.7992    0.0000 H   0  0  0  0  0  0  0  0  0  0  0  0
    5.1904   -4.4992    0.0000 H   0  0  0  0  0  0  0  0  0  0  0  0
    3.6258   -2.2432    0.0000 H   0  0  0  0  0  0  0  0  0  0  0  0
    5.8845   -4.5209    0.0000 H   0  0  0  0  0  0  0  0  0  0  0  0
    6.6729   -4.2632    0.0000 H   0  0  0  0  0  0  0  0  0  0  0  0
    7.1800   -3.5640    0.0000 H   0  0  0  0  0  0  0  0  0  0  0  0
    7.1800   -2.7345    0.0000 H   0  0  0  0  0  0  0  0  0  0  0  0
    2.9835   -4.4981    0.0000 H   0  0  0  0  0  0  0  0  0  0  0  0
    2.0863   -4.1942    0.0000 H   0  0  0  0  0  0  0  0  0  0  0  0
    1.3804   -4.8299    0.0000 H   0  0  0  0  0  0  0  0  0  0  0  0
    1.6331   -6.0186    0.0000 H   0  0  0  0  0  0  0  0  0  0  0  0
    2.5365   -6.3122    0.0000 H   0  0  0  0  0  0  0  0  0  0  0  0
    4.5189   -1.1976    0.0000 H   0  0  0  0  0  0  0  0  0  0  0  0
    3.7376   -0.7995    0.0000 H   0  0  0  0  0  0  0  0  0  0  0  0
    3.3396   -1.5808    0.0000 H   0  0  0  0  0  0  0  0  0  0  0  0
    7.0353   -0.7053    0.0000 H   0  0  0  0  0  0  0  0  0  0  0  0
    7.7052   -2.2723    0.0000 H   0  0  0  0  0  0  0  0  0  0  0  0
    8.5302   -2.3604    0.0000 H   0  0  0  0  0  0  0  0  0  0  0  0
    9.2847   -1.9265    0.0000 H   0  0  0  0  0  0  0  0  0  0  0  0
    9.6235   -1.1691    0.0000 H   0  0  0  0  0  0  0  0  0  0  0  0
    9.4440   -0.3174    0.0000 H   0  0  0  0  0  0  0  0  0  0  0  0
    8.8284    0.2388    0.0000 H   0  0  0  0  0  0  0  0  0  0  0  0
    8.4560    1.4560    0.0000 H   0  0  0  0  0  0  0  0  0  0  0  0
    8.4590    3.1881    0.0000 H   0  0  0  0  0  0  0  0  0  0  0  0
    6.0266    1.7893    0.0000 H   0  0  0  0  0  0  0  0  0  0  0  0
    5.2190    3.1937    0.0000 H   0  0  0  0  0  0  0  0  0  0  0  0
    6.0314    4.5952    0.0000 H   0  0  0  0  0  0  0  0  0  0  0  0
  1 35  1  0  0  0  0
  2 35  1  0  0  0  0
  3 35  1  0  0  0  0
  4 18  2  0  0  0  0
  5 19  2  0  0  0  0
  6 22  2  0  0  0  0
  7 28  2  0  0  0  0
  8 12  1  0  0  0  0
  8 16  1  0  0  0  0
  8 22  1  0  0  0  0
  9 13  1  0  0  0  0
  9 18  1  0  0  0  0
  9 19  1  0  0  0  0
 10 24  1  0  0  0  0
 10 27  1  0  0  0  0
 10 28  1  0  0  0  0
 11 28  1  0  0  0  0
 11 29  1  0  0  0  0
 11 58  1  0  0  0  0
 12 13  1  0  0  0  0
 12 14  1  0  0  0  0
 12 36  1  6  0  0  0
 13 15  1  0  0  0  0
 13 37  1  1  0  0  0
 14 18  1  0  0  0  0
 14 23  1  1  0  0  0
 14 38  1  0  0  0  0
 15 16  1  0  0  0  0
 15 39  1  0  0  0  0
 15 40  1  0  0  0  0
 16 41  1  0  0  0  0
 16 42  1  0  0  0  0
 17 19  1  0  0  0  0
 17 20  1  0  0  0  0
 17 21  1  0  0  0  0
 17 43  1  0  0  0  0
 20 21  1  0  0  0  0
 20 44  1  0  0  0  0
 20 45  1  0  0  0  0
 21 46  1  0  0  0  0
 21 47  1  0  0  0  0
 24 22  1  1  0  0  0
 23 48  1  0  0  0  0
 23 49  1  0  0  0  0
 23 50  1  0  0  0  0
 24 25  1  0  0  0  0
 24 51  1  0  0  0  0
 25 26  1  0  0  0  0
 25 52  1  0  0  0  0
 25 53  1  0  0  0  0
 26 27  1  0  0  0  0
 26 54  1  0  0  0  0
 26 55  1  0  0  0  0
 27 56  1  0  0  0  0
 27 57  1  0  0  0  0
 29 30  1  0  0  0  0
 29 31  2  0  0  0  0
 30 32  2  0  0  0  0
 30 59  1  0  0  0  0
 31 33  1  0  0  0  0
 31 60  1  0  0  0  0
 32 34  1  0  0  0  0
 32 35  1  0  0  0  0
 33 34  2  0  0  0  0
 33 61  1  0  0  0  0
 34 62  1  0  0  0  0
M  END
> <PUBCHEM_COMPOUND_CID>
511098
> <PUBCHEM_COMPOUND_CANONICALIZED>
1
> <PUBCHEM_CACTVS_COMPLEXITY>
908
> <PUBCHEM_CACTVS_HBOND_ACCEPTOR>
7
> <PUBCHEM_CACTVS_HBOND_DONOR>
1
> <PUBCHEM_CACTVS_ROTATABLE_BOND>
3
> <PUBCHEM_CACTVS_SUBSKEYS>
AAADceB7uYAAAAAAAAAAAAAAGAAAAWLFgAAwAAAAAAAWAAABAAAAHwAQAAAADSjBmBQzwIPAAACIAiVSUACCAAAhAgAIiAGIZIiIYDrA0bGUIAholiLIyCcciQAOAAAAQAAAAAAAAACAAAAAAAAAAAAAAA==
> <PUBCHEM_IUPAC_OPENEYE_NAME>
(2S)-2-[(3aS,6S,6aR)-4-(cyclopropanecarbonyl)-6-methyl-5-oxo-3,3a,6,6a-tetrahydro-2H-pyrrolo[3,2-b]pyrrole-1-carbonyl]-N-[3-(trifluoromethyl)phenyl]pyrrolidine-1-carboxamide
> <PUBCHEM_IUPAC_CAS_NAME>
(2S)-2-[[(3aS,6S,6aR)-4-[cyclopropyl(oxo)methyl]-6-methyl-5-oxo-3,3a,6,6a-tetrahydro-2H-pyrrolo[3,2-b]pyrrol-1-yl]-oxomethyl]-N-[3-(trifluoromethyl)phenyl]-1-pyrrolidinecarboxamide
> <PUBCHEM_IUPAC_NAME_MARKUP>
(2<I>S</I>)-2-[(3<I>a</I><I>S</I>,6<I>S</I>,6<I>a</I><I>R</I>)-4-(cyclopropanecarbonyl)-6-methyl-5-oxo-3,3<I>a</I>,6,6<I>a</I>-tetrahydro-2<I>H</I>-pyrrolo[3,2-b]pyrrole-1-carbonyl]-<I>N</I>-[3-(trifluoromethyl)phenyl]pyrrolidine-1-carboxamide
> <PUBCHEM_IUPAC_NAME>
(2S)-2-[(3aS,6S,6aR)-4-(cyclopropanecarbonyl)-6-methyl-5-oxo-3,3a,6,6a-tetrahydro-2H-pyrrolo[3,2-b]pyrrole-1-carbonyl]-N-[3-(trifluoromethyl)phenyl]pyrrolidine-1-carboxamide
> <PUBCHEM_IUPAC_SYSTEMATIC_NAME>
(2S)-2-[[(3aS,6S,6aR)-4-cyclopropylcarbonyl-6-methyl-5-oxidanylidene-3,3a,6,6a-tetrahydro-2H-pyrrolo[3,2-b]pyrrol-1-yl]carbonyl]-N-[3-(trifluoromethyl)phenyl]pyrrolidine-1-carboxamide
> <PUBCHEM_IUPAC_TRADITIONAL_NAME>
(2S)-2-[(3aS,6S,6aR)-4-(cyclopropanecarbonyl)-5-keto-6-methyl-3,3a,6,6a-tetrahydro-2H-pyrrolo[3,2-b]pyrrole-1-carbonyl]-N-[3-(trifluoromethyl)phenyl]pyrrolidine-1-carboxamide
> <PUBCHEM_IUPAC_INCHI>
InChI=1S/C24H27F3N4O4/c1-13-19-17(31(20(13)32)21(33)14-7-8-14)9-11-30(19)22(34)18-6-3-10-29(18)23(35)28-16-5-2-4-15(12-16)24(25,26)27/h2,4-5,12-14,17-19H,3,6-11H2,1H3,(H,28,35)/t13-,17-,18-,19+/m0/s1
> <PUBCHEM_IUPAC_INCHIKEY>
JHPRBMGWYJEVRK-ZQEOTTOMSA-N
> <PUBCHEM_XLOGP3_AA>
2.3
> <PUBCHEM_EXACT_MASS>
492.19843984
> <PUBCHEM_MOLECULAR_FORMULA>
C24H27F3N4O4
> <PUBCHEM_MOLECULAR_WEIGHT>
492.5
> <PUBCHEM_OPENEYE_CAN_SMILES>
CC1C2C(CCN2C(=O)C3CCCN3C(=O)NC4=CC=CC(=C4)C(F)(F)F)N(C1=O)C(=O)C5CC5
> <PUBCHEM_OPENEYE_ISO_SMILES>
C[C@H]1[C@@H]2[C@H](CCN2C(=O)[C@@H]3CCCN3C(=O)NC4=CC=CC(=C4)C(F)(F)F)N(C1=O)C(=O)C5CC5
> <PUBCHEM_CACTVS_TPSA>
90
> <PUBCHEM_MONOISOTOPIC_WEIGHT>
492.19843984
> <PUBCHEM_TOTAL_CHARGE>
0
> <PUBCHEM_HEAVY_ATOM_COUNT>
35
> <PUBCHEM_ATOM_DEF_STEREO_COUNT>
4
> <PUBCHEM_ATOM_UDEF_STEREO_COUNT>
0
> <PUBCHEM_BOND_DEF_STEREO_COUNT>
0
> <PUBCHEM_BOND_UDEF_STEREO_COUNT>
0
> <PUBCHEM_ISOTOPIC_ATOM_COUNT>
0
> <PUBCHEM_COMPONENT_COUNT>
1
> <PUBCHEM_CACTVS_TAUTO_COUNT>
-1
> <PUBCHEM_COORDINATE_TYPE>
1
5
255
> <PUBCHEM_BONDANNOTATIONS>
12  36  6
13  37  5
14  23  5
24  22  5
29  30  8
29  31  8
30  32  8
31  33  8
32  34  8
33  34  8
$$$$
