511075
  -OEChem-10302200282D
 72 77  0     1  0  0  0  0  0999 V2000
    9.6238    0.0126    0.0000 S   0  0  0  0  0  0  0  0  0  0  0  0
    3.6982   -0.8957    0.0000 O   0  0  0  0  0  0  0  0  0  0  0  0
    4.1390   -4.0367    0.0000 O   0  0  0  0  0  0  0  0  0  0  0  0
    7.6558   -0.2881    0.0000 O   0  0  0  0  0  0  0  0  0  0  0  0
    8.6238    0.0126    0.0000 O   0  0  0  0  0  0  0  0  0  0  0  0
   10.6238    0.0126    0.0000 O   0  0  0  0  0  0  0  0  0  0  0  0
    7.1206   -1.9354    0.0000 N   0  0  0  0  0  0  0  0  0  0  0  0
    4.6714   -2.3885    0.0000 N   0  0  0  0  0  0  0  0  0  0  0  0
    9.6238   -0.9874    0.0000 N   0  0  3  0  0  0  0  0  0  0  0  0
   13.1539    3.0367    0.0000 N   0  0  0  0  0  0  0  0  0  0  0  0
    6.1484   -1.7278    0.0000 C   0  0  1  0  0  0  0  0  0  0  0  0
    5.6499   -2.5947    0.0000 C   0  0  2  0  0  0  0  0  0  0  0  0
    5.4780   -0.9858    0.0000 C   0  0  1  0  0  0  0  0  0  0  0  0
    6.3182   -3.3306    0.0000 C   0  0  0  0  0  0  0  0  0  0  0  0
    7.2253   -2.9239    0.0000 C   0  0  0  0  0  0  0  0  0  0  0  0
    2.9778   -2.7515    0.0000 C   0  0  0  0  0  0  0  0  0  0  0  0
    4.5651   -1.3942    0.0000 C   0  0  0  0  0  0  0  0  0  0  0  0
    3.9294   -3.0589    0.0000 C   0  0  0  0  0  0  0  0  0  0  0  0
    2.3074   -2.0096    0.0000 C   0  0  0  0  0  0  0  0  0  0  0  0
    2.0000   -2.9611    0.0000 C   0  0  0  0  0  0  0  0  0  0  0  0
    7.8637   -1.2662    0.0000 C   0  0  0  0  0  0  0  0  0  0  0  0
    8.8148   -1.5752    0.0000 C   0  0  2  0  0  0  0  0  0  0  0  0
    5.6842   -0.0073    0.0000 C   0  0  0  0  0  0  0  0  0  0  0  0
    9.1238   -2.5263    0.0000 C   0  0  0  0  0  0  0  0  0  0  0  0
   10.1238   -2.5263    0.0000 C   0  0  0  0  0  0  0  0  0  0  0  0
   10.4328   -1.5752    0.0000 C   0  0  0  0  0  0  0  0  0  0  0  0
    9.6238    1.0126    0.0000 C   0  0  0  0  0  0  0  0  0  0  0  0
   10.4898    1.5126    0.0000 C   0  0  0  0  0  0  0  0  0  0  0  0
    8.7577    1.5126    0.0000 C   0  0  0  0  0  0  0  0  0  0  0  0
   10.4898    2.5126    0.0000 C   0  0  0  0  0  0  0  0  0  0  0  0
   11.3837    0.9779    0.0000 C   0  0  0  0  0  0  0  0  0  0  0  0
    8.7577    2.5126    0.0000 C   0  0  0  0  0  0  0  0  0  0  0  0
    9.6238    3.0126    0.0000 C   0  0  0  0  0  0  0  0  0  0  0  0
   11.3837    3.0472    0.0000 C   0  0  0  0  0  0  0  0  0  0  0  0
   12.2898    1.4917    0.0000 C   0  0  0  0  0  0  0  0  0  0  0  0
   12.2898    2.5334    0.0000 C   0  0  0  0  0  0  0  0  0  0  0  0
   13.1500    4.0367    0.0000 C   0  0  0  0  0  0  0  0  0  0  0  0
   14.0218    2.5400    0.0000 C   0  0  0  0  0  0  0  0  0  0  0  0
    6.5730   -0.9915    0.0000 H   0  0  0  0  0  0  0  0  0  0  0  0
    5.2271   -3.3321    0.0000 H   0  0  0  0  0  0  0  0  0  0  0  0
    6.0766   -0.8243    0.0000 H   0  0  0  0  0  0  0  0  0  0  0  0
    5.8180   -3.6969    0.0000 H   0  0  0  0  0  0  0  0  0  0  0  0
    6.6299   -3.8665    0.0000 H   0  0  0  0  0  0  0  0  0  0  0  0
    7.4181   -3.5132    0.0000 H   0  0  0  0  0  0  0  0  0  0  0  0
    7.8316   -2.7941    0.0000 H   0  0  0  0  0  0  0  0  0  0  0  0
    3.3146   -2.2310    0.0000 H   0  0  0  0  0  0  0  0  0  0  0  0
    2.6882   -1.5203    0.0000 H   0  0  0  0  0  0  0  0  0  0  0  0
    1.7594   -1.7194    0.0000 H   0  0  0  0  0  0  0  0  0  0  0  0
    1.3859   -2.8759    0.0000 H   0  0  0  0  0  0  0  0  0  0  0  0
    2.0227   -3.5807    0.0000 H   0  0  0  0  0  0  0  0  0  0  0  0
    8.7178   -0.9629    0.0000 H   0  0  0  0  0  0  0  0  0  0  0  0
    6.2908   -0.1352    0.0000 H   0  0  0  0  0  0  0  0  0  0  0  0
    5.8120    0.5993    0.0000 H   0  0  0  0  0  0  0  0  0  0  0  0
    5.0775    0.1205    0.0000 H   0  0  0  0  0  0  0  0  0  0  0  0
    8.5173   -2.6552    0.0000 H   0  0  0  0  0  0  0  0  0  0  0  0
    9.1886   -3.1429    0.0000 H   0  0  0  0  0  0  0  0  0  0  0  0
   10.0590   -3.1429    0.0000 H   0  0  0  0  0  0  0  0  0  0  0  0
   10.7302   -2.6552    0.0000 H   0  0  0  0  0  0  0  0  0  0  0  0
   10.9992   -1.8274    0.0000 H   0  0  0  0  0  0  0  0  0  0  0  0
   10.7428   -1.0383    0.0000 H   0  0  0  0  0  0  0  0  0  0  0  0
    8.2208    1.2026    0.0000 H   0  0  0  0  0  0  0  0  0  0  0  0
   11.3766    0.3579    0.0000 H   0  0  0  0  0  0  0  0  0  0  0  0
    8.2208    2.8226    0.0000 H   0  0  0  0  0  0  0  0  0  0  0  0
    9.6238    3.6326    0.0000 H   0  0  0  0  0  0  0  0  0  0  0  0
   11.3766    3.6672    0.0000 H   0  0  0  0  0  0  0  0  0  0  0  0
   12.8255    1.1797    0.0000 H   0  0  0  0  0  0  0  0  0  0  0  0
   13.7700    4.0391    0.0000 H   0  0  0  0  0  0  0  0  0  0  0  0
   13.1476    4.6567    0.0000 H   0  0  0  0  0  0  0  0  0  0  0  0
   12.5300    4.0343    0.0000 H   0  0  0  0  0  0  0  0  0  0  0  0
   13.7139    2.0019    0.0000 H   0  0  0  0  0  0  0  0  0  0  0  0
   14.5600    2.2321    0.0000 H   0  0  0  0  0  0  0  0  0  0  0  0
   14.3298    3.0782    0.0000 H   0  0  0  0  0  0  0  0  0  0  0  0
  1  5  2  0  0  0  0
  1  6  2  0  0  0  0
  1  9  1  0  0  0  0
  1 27  1  0  0  0  0
  2 17  2  0  0  0  0
  3 18  2  0  0  0  0
  4 21  2  0  0  0  0
  7 11  1  0  0  0  0
  7 15  1  0  0  0  0
  7 21  1  0  0  0  0
  8 12  1  0  0  0  0
  8 17  1  0  0  0  0
  8 18  1  0  0  0  0
  9 22  1  0  0  0  0
  9 26  1  0  0  0  0
 10 36  1  0  0  0  0
 10 37  1  0  0  0  0
 10 38  1  0  0  0  0
 11 12  1  0  0  0  0
 11 13  1  0  0  0  0
 11 39  1  6  0  0  0
 12 14  1  0  0  0  0
 12 40  1  1  0  0  0
 13 17  1  0  0  0  0
 13 23  1  1  0  0  0
 13 41  1  0  0  0  0
 14 15  1  0  0  0  0
 14 42  1  0  0  0  0
 14 43  1  0  0  0  0
 15 44  1  0  0  0  0
 15 45  1  0  0  0  0
 16 18  1  0  0  0  0
 16 19  1  0  0  0  0
 16 20  1  0  0  0  0
 16 46  1  0  0  0  0
 19 20  1  0  0  0  0
 19 47  1  0  0  0  0
 19 48  1  0  0  0  0
 20 49  1  0  0  0  0
 20 50  1  0  0  0  0
 22 21  1  1  0  0  0
 22 24  1  0  0  0  0
 22 51  1  0  0  0  0
 23 52  1  0  0  0  0
 23 53  1  0  0  0  0
 23 54  1  0  0  0  0
 24 25  1  0  0  0  0
 24 55  1  0  0  0  0
 24 56  1  0  0  0  0
 25 26  1  0  0  0  0
 25 57  1  0  0  0  0
 25 58  1  0  0  0  0
 26 59  1  0  0  0  0
 26 60  1  0  0  0  0
 27 28  1  0  0  0  0
 27 29  2  0  0  0  0
 28 30  2  0  0  0  0
 28 31  1  0  0  0  0
 29 32  1  0  0  0  0
 29 61  1  0  0  0  0
 30 33  1  0  0  0  0
 30 34  1  0  0  0  0
 31 35  2  0  0  0  0
 31 62  1  0  0  0  0
 32 33  2  0  0  0  0
 32 63  1  0  0  0  0
 33 64  1  0  0  0  0
 34 36  2  0  0  0  0
 34 65  1  0  0  0  0
 35 36  1  0  0  0  0
 35 66  1  0  0  0  0
 37 67  1  0  0  0  0
 37 68  1  0  0  0  0
 37 69  1  0  0  0  0
 38 70  1  0  0  0  0
 38 71  1  0  0  0  0
 38 72  1  0  0  0  0
M  END
> <PUBCHEM_COMPOUND_CID>
511075
> <PUBCHEM_COMPOUND_CANONICALIZED>
1
> <PUBCHEM_CACTVS_COMPLEXITY>
1090
> <PUBCHEM_CACTVS_HBOND_ACCEPTOR>
7
> <PUBCHEM_CACTVS_HBOND_DONOR>
0
> <PUBCHEM_CACTVS_ROTATABLE_BOND>
5
> <PUBCHEM_CACTVS_SUBSKEYS>
AAADcfB7uABAAAAAAAAAAAAAGAAAAWLFgAAwYAAAAAAWAADBUAAAHgQAQAAADSjB2AQywcMAAAKIAiVSUHDCABAhAgAIiBmIZIgIYDrA0bGUIAhghiDIyAcciYAOiAAAwAAUAAAQAAGAACgAAAAAAAAAAA==
> <PUBCHEM_IUPAC_OPENEYE_NAME>
(3aS,6S,6aR)-4-(cyclopropanecarbonyl)-1-[(2S)-1-[[6-(dimethylamino)-1-naphthyl]sulfonyl]pyrrolidine-2-carbonyl]-6-methyl-3,3a,6,6a-tetrahydro-2H-pyrrolo[3,2-b]pyrrol-5-one
> <PUBCHEM_IUPAC_CAS_NAME>
(3aS,6S,6aR)-4-[cyclopropyl(oxo)methyl]-1-[[(2S)-1-[[6-(dimethylamino)-1-naphthalenyl]sulfonyl]-2-pyrrolidinyl]-oxomethyl]-6-methyl-3,3a,6,6a-tetrahydro-2H-pyrrolo[3,2-b]pyrrol-5-one
> <PUBCHEM_IUPAC_NAME_MARKUP>
(3<I>a</I><I>S</I>,6<I>S</I>,6<I>a</I><I>R</I>)-4-(cyclopropanecarbonyl)-1-[(2<I>S</I>)-1-[6-(dimethylamino)naphthalen-1-yl]sulfonylpyrrolidine-2-carbonyl]-6-methyl-3,3<I>a</I>,6,6<I>a</I>-tetrahydro-2<I>H</I>-pyrrolo[3,2-b]pyrrol-5-one
> <PUBCHEM_IUPAC_NAME>
(3aS,6S,6aR)-4-(cyclopropanecarbonyl)-1-[(2S)-1-[6-(dimethylamino)naphthalen-1-yl]sulfonylpyrrolidine-2-carbonyl]-6-methyl-3,3a,6,6a-tetrahydro-2H-pyrrolo[3,2-b]pyrrol-5-one
> <PUBCHEM_IUPAC_SYSTEMATIC_NAME>
(3aS,6S,6aR)-4-cyclopropylcarbonyl-1-[(2S)-1-[6-(dimethylamino)naphthalen-1-yl]sulfonylpyrrolidin-2-yl]carbonyl-6-methyl-3,3a,6,6a-tetrahydro-2H-pyrrolo[3,2-b]pyrrol-5-one
> <PUBCHEM_IUPAC_TRADITIONAL_NAME>
(3aS,6S,6aR)-4-(cyclopropanecarbonyl)-1-[(2S)-1-[[6-(dimethylamino)-1-naphthyl]sulfonyl]prolyl]-6-methyl-3,3a,6,6a-tetrahydro-2H-pyrrolo[3,2-b]pyrrol-5-one
> <PUBCHEM_IUPAC_INCHI>
InChI=1S/C28H34N4O5S/c1-17-25-22(32(26(17)33)27(34)18-9-10-18)13-15-30(25)28(35)23-7-5-14-31(23)38(36,37)24-8-4-6-19-16-20(29(2)3)11-12-21(19)24/h4,6,8,11-12,16-18,22-23,25H,5,7,9-10,13-15H2,1-3H3/t17-,22-,23-,25+/m0/s1
> <PUBCHEM_IUPAC_INCHIKEY>
AOHAETRTLLGXKQ-XVYJZYCRSA-N
> <PUBCHEM_XLOGP3_AA>
2.8
> <PUBCHEM_EXACT_MASS>
538.22499137
> <PUBCHEM_MOLECULAR_FORMULA>
C28H34N4O5S
> <PUBCHEM_MOLECULAR_WEIGHT>
538.7
> <PUBCHEM_OPENEYE_CAN_SMILES>
CC1C2C(CCN2C(=O)C3CCCN3S(=O)(=O)C4=CC=CC5=C4C=CC(=C5)N(C)C)N(C1=O)C(=O)C6CC6
> <PUBCHEM_OPENEYE_ISO_SMILES>
C[C@H]1[C@@H]2[C@H](CCN2C(=O)[C@@H]3CCCN3S(=O)(=O)C4=CC=CC5=C4C=CC(=C5)N(C)C)N(C1=O)C(=O)C6CC6
> <PUBCHEM_CACTVS_TPSA>
107
> <PUBCHEM_MONOISOTOPIC_WEIGHT>
538.22499137
> <PUBCHEM_TOTAL_CHARGE>
0
> <PUBCHEM_HEAVY_ATOM_COUNT>
38
> <PUBCHEM_ATOM_DEF_STEREO_COUNT>
4
> <PUBCHEM_ATOM_UDEF_STEREO_COUNT>
0
> <PUBCHEM_BOND_DEF_STEREO_COUNT>
0
> <PUBCHEM_BOND_UDEF_STEREO_COUNT>
0
> <PUBCHEM_ISOTOPIC_ATOM_COUNT>
0
> <PUBCHEM_COMPONENT_COUNT>
1
> <PUBCHEM_CACTVS_TAUTO_COUNT>
-1
> <PUBCHEM_COORDINATE_TYPE>
1
5
255
> <PUBCHEM_BONDANNOTATIONS>
11  39  6
12  40  5
13  23  5
22  21  5
27  28  8
27  29  8
28  30  8
28  31  8
29  32  8
30  33  8
30  34  8
31  35  8
32  33  8
34  36  8
35  36  8
$$$$
