511068
  -OEChem-10302200282D
 87 88  0     1  0  0  0  0  0999 V2000
    3.7320    0.2500    0.0000 O   0  0  0  0  0  0  0  0  0  0  0  0
    6.3301   -2.2500    0.0000 O   0  0  0  0  0  0  0  0  0  0  0  0
    8.9282    0.2500    0.0000 O   0  0  0  0  0  0  0  0  0  0  0  0
    2.8660    3.7500    0.0000 O   0  0  0  0  0  0  0  0  0  0  0  0
    9.7942   -2.2500    0.0000 O   0  0  0  0  0  0  0  0  0  0  0  0
    4.5981    3.7500    0.0000 O   0  0  0  0  0  0  0  0  0  0  0  0
    8.0622   -5.2500    0.0000 O   0  0  0  0  0  0  0  0  0  0  0  0
    5.4641    0.2500    0.0000 N   0  0  0  0  0  0  0  0  0  0  0  0
    7.1962   -0.7500    0.0000 N   0  0  0  0  0  0  0  0  0  0  0  0
    3.7320    2.2500    0.0000 N   0  0  0  0  0  0  0  0  0  0  0  0
    9.7942   -4.2500    0.0000 N   0  0  0  0  0  0  0  0  0  0  0  0
   10.6603   -0.7500    0.0000 N   0  0  0  0  0  0  0  0  0  0  0  0
    5.4641   -0.7500    0.0000 C   0  0  1  0  0  0  0  0  0  0  0  0
    4.5981    1.7500    0.0000 C   0  0  1  0  0  0  0  0  0  0  0  0
    5.4641    2.2500    0.0000 C   0  0  0  0  0  0  0  0  0  0  0  0
    8.0622   -1.2500    0.0000 C   0  0  1  0  0  0  0  0  0  0  0  0
    8.0622   -2.2500    0.0000 C   0  0  0  0  0  0  0  0  0  0  0  0
    4.5981   -1.2500    0.0000 C   0  0  0  0  0  0  0  0  0  0  0  0
    8.9282   -2.7500    0.0000 C   0  0  0  0  0  0  0  0  0  0  0  0
    4.5981    0.7500    0.0000 C   0  0  0  0  0  0  0  0  0  0  0  0
    6.3301   -1.2500    0.0000 C   0  0  0  0  0  0  0  0  0  0  0  0
    5.4641    3.2500    0.0000 C   0  0  0  0  0  0  0  0  0  0  0  0
    6.3301    1.7500    0.0000 C   0  0  0  0  0  0  0  0  0  0  0  0
    8.9282   -3.7500    0.0000 C   0  0  3  0  0  0  0  0  0  0  0  0
    4.5981   -2.2500    0.0000 C   0  0  0  0  0  0  0  0  0  0  0  0
    8.9282   -0.7500    0.0000 C   0  0  0  0  0  0  0  0  0  0  0  0
    5.4641   -2.7500    0.0000 C   0  0  0  0  0  0  0  0  0  0  0  0
    3.7320   -2.7500    0.0000 C   0  0  0  0  0  0  0  0  0  0  0  0
    9.7942   -1.2500    0.0000 C   0  0  0  0  0  0  0  0  0  0  0  0
    3.7320    3.2500    0.0000 C   0  0  0  0  0  0  0  0  0  0  0  0
    8.0622   -4.2500    0.0000 C   0  0  0  0  0  0  0  0  0  0  0  0
    5.4641   -3.7500    0.0000 C   0  0  0  0  0  0  0  0  0  0  0  0
    3.7320   -3.7500    0.0000 C   0  0  0  0  0  0  0  0  0  0  0  0
    4.5981   -4.2500    0.0000 C   0  0  0  0  0  0  0  0  0  0  0  0
    2.8660    4.7500    0.0000 C   0  0  0  0  0  0  0  0  0  0  0  0
   11.5263   -1.2500    0.0000 C   0  0  0  0  0  0  0  0  0  0  0  0
   12.3923   -0.7500    0.0000 C   0  0  0  0  0  0  0  0  0  0  0  0
    2.0000    5.2500    0.0000 C   0  0  0  0  0  0  0  0  0  0  0  0
    3.7320    5.2500    0.0000 C   0  0  0  0  0  0  0  0  0  0  0  0
   13.2583   -1.2500    0.0000 C   0  0  0  0  0  0  0  0  0  0  0  0
   12.3923    0.2500    0.0000 C   0  0  0  0  0  0  0  0  0  0  0  0
   14.1244   -0.7500    0.0000 C   0  0  0  0  0  0  0  0  0  0  0  0
   13.2583    0.7500    0.0000 C   0  0  0  0  0  0  0  0  0  0  0  0
   14.1244    0.2500    0.0000 C   0  0  0  0  0  0  0  0  0  0  0  0
    6.0010   -0.4400    0.0000 H   0  0  0  0  0  0  0  0  0  0  0  0
    4.5981    2.3700    0.0000 H   0  0  0  0  0  0  0  0  0  0  0  0
    5.4641    1.6300    0.0000 H   0  0  0  0  0  0  0  0  0  0  0  0
    8.0622   -0.6300    0.0000 H   0  0  0  0  0  0  0  0  0  0  0  0
    7.4516   -2.1423    0.0000 H   0  0  0  0  0  0  0  0  0  0  0  0
    7.8501   -2.8326    0.0000 H   0  0  0  0  0  0  0  0  0  0  0  0
    4.3860   -0.6674    0.0000 H   0  0  0  0  0  0  0  0  0  0  0  0
    3.9875   -1.3577    0.0000 H   0  0  0  0  0  0  0  0  0  0  0  0
    9.5388   -2.8577    0.0000 H   0  0  0  0  0  0  0  0  0  0  0  0
    9.1403   -2.1674    0.0000 H   0  0  0  0  0  0  0  0  0  0  0  0
    6.0010    0.5600    0.0000 H   0  0  0  0  0  0  0  0  0  0  0  0
    7.1962   -0.1300    0.0000 H   0  0  0  0  0  0  0  0  0  0  0  0
    6.0841    3.2500    0.0000 H   0  0  0  0  0  0  0  0  0  0  0  0
    5.4641    3.8700    0.0000 H   0  0  0  0  0  0  0  0  0  0  0  0
    4.8441    3.2500    0.0000 H   0  0  0  0  0  0  0  0  0  0  0  0
    6.0201    1.2131    0.0000 H   0  0  0  0  0  0  0  0  0  0  0  0
    6.8671    1.4400    0.0000 H   0  0  0  0  0  0  0  0  0  0  0  0
    6.6401    2.2869    0.0000 H   0  0  0  0  0  0  0  0  0  0  0  0
    9.4651   -3.4400    0.0000 H   0  0  0  0  0  0  0  0  0  0  0  0
    3.1951    1.9400    0.0000 H   0  0  0  0  0  0  0  0  0  0  0  0
    6.0010   -2.4400    0.0000 H   0  0  0  0  0  0  0  0  0  0  0  0
    3.1951   -2.4400    0.0000 H   0  0  0  0  0  0  0  0  0  0  0  0
    9.7942   -4.8700    0.0000 H   0  0  0  0  0  0  0  0  0  0  0  0
   10.3312   -3.9400    0.0000 H   0  0  0  0  0  0  0  0  0  0  0  0
    7.5252   -3.9400    0.0000 H   0  0  0  0  0  0  0  0  0  0  0  0
    6.0010   -4.0600    0.0000 H   0  0  0  0  0  0  0  0  0  0  0  0
    3.1951   -4.0600    0.0000 H   0  0  0  0  0  0  0  0  0  0  0  0
   10.6603   -0.1300    0.0000 H   0  0  0  0  0  0  0  0  0  0  0  0
    4.5981   -4.8700    0.0000 H   0  0  0  0  0  0  0  0  0  0  0  0
    3.4030    4.4400    0.0000 H   0  0  0  0  0  0  0  0  0  0  0  0
   11.1278   -1.7250    0.0000 H   0  0  0  0  0  0  0  0  0  0  0  0
   11.9248   -1.7250    0.0000 H   0  0  0  0  0  0  0  0  0  0  0  0
    2.3100    5.7869    0.0000 H   0  0  0  0  0  0  0  0  0  0  0  0
    1.4631    5.5600    0.0000 H   0  0  0  0  0  0  0  0  0  0  0  0
    1.6900    4.7131    0.0000 H   0  0  0  0  0  0  0  0  0  0  0  0
    4.0420    4.7131    0.0000 H   0  0  0  0  0  0  0  0  0  0  0  0
    4.2690    5.5600    0.0000 H   0  0  0  0  0  0  0  0  0  0  0  0
    3.4220    5.7869    0.0000 H   0  0  0  0  0  0  0  0  0  0  0  0
   13.2583   -1.8700    0.0000 H   0  0  0  0  0  0  0  0  0  0  0  0
   11.8554    0.5600    0.0000 H   0  0  0  0  0  0  0  0  0  0  0  0
   14.6613   -1.0600    0.0000 H   0  0  0  0  0  0  0  0  0  0  0  0
   13.2583    1.3700    0.0000 H   0  0  0  0  0  0  0  0  0  0  0  0
   14.6613    0.5600    0.0000 H   0  0  0  0  0  0  0  0  0  0  0  0
  1 20  2  0  0  0  0
  2 21  2  0  0  0  0
  3 26  2  0  0  0  0
  4 30  1  0  0  0  0
  4 35  1  0  0  0  0
  5 29  2  0  0  0  0
  6 30  2  0  0  0  0
  7 31  2  0  0  0  0
 13  8  1  6  0  0  0
  8 20  1  0  0  0  0
  8 55  1  0  0  0  0
 16  9  1  6  0  0  0
  9 21  1  0  0  0  0
  9 56  1  0  0  0  0
 14 10  1  1  0  0  0
 10 30  1  0  0  0  0
 10 64  1  0  0  0  0
 11 24  1  0  0  0  0
 11 67  1  0  0  0  0
 11 68  1  0  0  0  0
 12 29  1  0  0  0  0
 12 36  1  0  0  0  0
 12 72  1  0  0  0  0
 13 18  1  0  0  0  0
 13 21  1  0  0  0  0
 13 45  1  0  0  0  0
 14 15  1  0  0  0  0
 14 20  1  0  0  0  0
 14 46  1  0  0  0  0
 15 22  1  0  0  0  0
 15 23  1  0  0  0  0
 15 47  1  0  0  0  0
 16 17  1  0  0  0  0
 16 26  1  0  0  0  0
 16 48  1  0  0  0  0
 17 19  1  0  0  0  0
 17 49  1  0  0  0  0
 17 50  1  0  0  0  0
 18 25  1  0  0  0  0
 18 51  1  0  0  0  0
 18 52  1  0  0  0  0
 19 24  1  0  0  0  0
 19 53  1  0  0  0  0
 19 54  1  0  0  0  0
 22 57  1  0  0  0  0
 22 58  1  0  0  0  0
 22 59  1  0  0  0  0
 23 60  1  0  0  0  0
 23 61  1  0  0  0  0
 23 62  1  0  0  0  0
 24 31  1  0  0  0  0
 24 63  1  0  0  0  0
 25 27  2  0  0  0  0
 25 28  1  0  0  0  0
 26 29  1  0  0  0  0
 27 32  1  0  0  0  0
 27 65  1  0  0  0  0
 28 33  2  0  0  0  0
 28 66  1  0  0  0  0
 31 69  1  0  0  0  0
 32 34  2  0  0  0  0
 32 70  1  0  0  0  0
 33 34  1  0  0  0  0
 33 71  1  0  0  0  0
 34 73  1  0  0  0  0
 35 38  1  0  0  0  0
 35 39  1  0  0  0  0
 35 74  1  0  0  0  0
 36 37  1  0  0  0  0
 36 75  1  0  0  0  0
 36 76  1  0  0  0  0
 37 40  2  0  0  0  0
 37 41  1  0  0  0  0
 38 77  1  0  0  0  0
 38 78  1  0  0  0  0
 38 79  1  0  0  0  0
 39 80  1  0  0  0  0
 39 81  1  0  0  0  0
 39 82  1  0  0  0  0
 40 42  1  0  0  0  0
 40 83  1  0  0  0  0
 41 43  2  0  0  0  0
 41 84  1  0  0  0  0
 42 44  2  0  0  0  0
 42 85  1  0  0  0  0
 43 44  1  0  0  0  0
 43 86  1  0  0  0  0
 44 87  1  0  0  0  0
M  END
> <PUBCHEM_COMPOUND_CID>
511068
> <PUBCHEM_COMPOUND_CANONICALIZED>
1
> <PUBCHEM_CACTVS_COMPLEXITY>
961
> <PUBCHEM_CACTVS_HBOND_ACCEPTOR>
8
> <PUBCHEM_CACTVS_HBOND_DONOR>
5
> <PUBCHEM_CACTVS_ROTATABLE_BOND>
18
> <PUBCHEM_CACTVS_SUBSKEYS>
AAADcfB/uAAAAAAAAAAAAAAAAAAAAAAAAAAwYAAAAAAAAAABQAAAHgAQAAAADTzhmAYyCILABACIAqlSmACCAAAgAAAIiIGIBIkIYDqA0TGcIAhglgCIiAcYiYCeAAAAAAAAAAAAAAAAAAAAAAAAAAAAAA==
> <PUBCHEM_IUPAC_OPENEYE_NAME>
isopropyl N-[(1S)-1-[[(1S)-2-[[(1S)-4-amino-1-[2-(benzylamino)-2-oxo-acetyl]-5-oxo-pentyl]amino]-1-benzyl-2-oxo-ethyl]carbamoyl]-2-methyl-propyl]carbamate
> <PUBCHEM_IUPAC_CAS_NAME>
N-[(2S)-1-[[(2S)-1-[[(3S)-6-amino-1,2,7-trioxo-1-[(phenylmethyl)amino]heptan-3-yl]amino]-1-oxo-3-phenylpropan-2-yl]amino]-3-methyl-1-oxobutan-2-yl]carbamic acid propan-2-yl ester
> <PUBCHEM_IUPAC_NAME_MARKUP>
propan-2-yl <I>N</I>-[(2<I>S</I>)-1-[[(2<I>S</I>)-1-[[(3<I>S</I>)-6-amino-1-(benzylamino)-1,2,7-trioxoheptan-3-yl]amino]-1-oxo-3-phenylpropan-2-yl]amino]-3-methyl-1-oxobutan-2-yl]carbamate
> <PUBCHEM_IUPAC_NAME>
propan-2-yl N-[(2S)-1-[[(2S)-1-[[(3S)-6-amino-1-(benzylamino)-1,2,7-trioxoheptan-3-yl]amino]-1-oxo-3-phenylpropan-2-yl]amino]-3-methyl-1-oxobutan-2-yl]carbamate
> <PUBCHEM_IUPAC_SYSTEMATIC_NAME>
propan-2-yl N-[(2S)-1-[[(2S)-1-[[(3S)-6-azanyl-1,2,7-tris(oxidanylidene)-1-[(phenylmethyl)amino]heptan-3-yl]amino]-1-oxidanylidene-3-phenyl-propan-2-yl]amino]-3-methyl-1-oxidanylidene-butan-2-yl]carbamate
> <PUBCHEM_IUPAC_TRADITIONAL_NAME>
N-[(1S)-1-[[(1S)-2-[[(1S)-4-amino-1-[2-(benzylamino)-2-keto-acetyl]-5-keto-pentyl]amino]-1-benzyl-2-keto-ethyl]carbamoyl]-2-methyl-propyl]carbamic acid isopropyl ester
> <PUBCHEM_IUPAC_INCHI>
InChI=1S/C32H43N5O7/c1-20(2)27(37-32(43)44-21(3)4)30(41)36-26(17-22-11-7-5-8-12-22)29(40)35-25(16-15-24(33)19-38)28(39)31(42)34-18-23-13-9-6-10-14-23/h5-14,19-21,24-27H,15-18,33H2,1-4H3,(H,34,42)(H,35,40)(H,36,41)(H,37,43)/t24?,25-,26-,27-/m0/s1
> <PUBCHEM_IUPAC_INCHIKEY>
PFJAVESWJWMMFQ-CZEMMQRTSA-N
> <PUBCHEM_XLOGP3_AA>
2.9
> <PUBCHEM_EXACT_MASS>
609.31624873
> <PUBCHEM_MOLECULAR_FORMULA>
C32H43N5O7
> <PUBCHEM_MOLECULAR_WEIGHT>
609.7
> <PUBCHEM_OPENEYE_CAN_SMILES>
CC(C)C(C(=O)NC(CC1=CC=CC=C1)C(=O)NC(CCC(C=O)N)C(=O)C(=O)NCC2=CC=CC=C2)NC(=O)OC(C)C
> <PUBCHEM_OPENEYE_ISO_SMILES>
CC(C)[C@@H](C(=O)N[C@@H](CC1=CC=CC=C1)C(=O)N[C@@H](CCC(C=O)N)C(=O)C(=O)NCC2=CC=CC=C2)NC(=O)OC(C)C
> <PUBCHEM_CACTVS_TPSA>
186
> <PUBCHEM_MONOISOTOPIC_WEIGHT>
609.31624873
> <PUBCHEM_TOTAL_CHARGE>
0
> <PUBCHEM_HEAVY_ATOM_COUNT>
44
> <PUBCHEM_ATOM_DEF_STEREO_COUNT>
3
> <PUBCHEM_ATOM_UDEF_STEREO_COUNT>
1
> <PUBCHEM_BOND_DEF_STEREO_COUNT>
0
> <PUBCHEM_BOND_UDEF_STEREO_COUNT>
0
> <PUBCHEM_ISOTOPIC_ATOM_COUNT>
0
> <PUBCHEM_COMPONENT_COUNT>
1
> <PUBCHEM_CACTVS_TAUTO_COUNT>
-1
> <PUBCHEM_COORDINATE_TYPE>
1
5
255
> <PUBCHEM_BONDANNOTATIONS>
14  10  5
24  11  3
25  27  8
25  28  8
27  32  8
28  33  8
32  34  8
33  34  8
37  40  8
37  41  8
40  42  8
41  43  8
42  44  8
43  44  8
13  8  6
16  9  6
$$$$
