511080
  -OEChem-10302200282D
 58 62  0     1  0  0  0  0  0999 V2000
    5.3405    4.9229    0.0000 Cl  0  0  0  0  0  0  0  0  0  0  0  0
    7.3345    1.4554    0.0000 S   0  0  0  0  0  0  0  0  0  0  0  0
    2.6504   -2.2858    0.0000 O   0  0  0  0  0  0  0  0  0  0  0  0
    4.5983   -4.7890    0.0000 O   0  0  0  0  0  0  0  0  0  0  0  0
    5.7783    0.2137    0.0000 O   0  0  0  0  0  0  0  0  0  0  0  0
    8.2014    1.9539    0.0000 O   0  0  0  0  0  0  0  0  0  0  0  0
    6.4676    0.9569    0.0000 O   0  0  0  0  0  0  0  0  0  0  0  0
    6.1355   -1.4811    0.0000 N   0  0  0  0  0  0  0  0  0  0  0  0
    4.2382   -3.0948    0.0000 N   0  0  0  0  0  0  0  0  0  0  0  0
    7.8330    0.5885    0.0000 N   0  0  3  0  0  0  0  0  0  0  0  0
    5.1893   -1.7858    0.0000 C   0  0  1  0  0  0  0  0  0  0  0  0
    5.1893   -2.7858    0.0000 C   0  0  2  0  0  0  0  0  0  0  0  0
    4.2382   -1.4768    0.0000 C   0  0  1  0  0  0  0  0  0  0  0  0
    6.1355   -3.0906    0.0000 C   0  0  0  0  0  0  0  0  0  0  0  0
    6.7191   -2.2858    0.0000 C   0  0  0  0  0  0  0  0  0  0  0  0
    2.9511   -4.2538    0.0000 C   0  0  0  0  0  0  0  0  0  0  0  0
    3.6504   -2.2858    0.0000 C   0  0  0  0  0  0  0  0  0  0  0  0
    3.9292   -4.0459    0.0000 C   0  0  0  0  0  0  0  0  0  0  0  0
    2.0000   -3.9448    0.0000 C   0  0  0  0  0  0  0  0  0  0  0  0
    2.2079   -4.9229    0.0000 C   0  0  0  0  0  0  0  0  0  0  0  0
    6.4462   -0.5306    0.0000 C   0  0  0  0  0  0  0  0  0  0  0  0
    7.4247   -0.3244    0.0000 C   0  0  2  0  0  0  0  0  0  0  0  0
    3.9292   -0.5257    0.0000 C   0  0  0  0  0  0  0  0  0  0  0  0
    8.1666   -0.9948    0.0000 C   0  0  0  0  0  0  0  0  0  0  0  0
    9.0335   -0.4963    0.0000 C   0  0  0  0  0  0  0  0  0  0  0  0
    8.8273    0.4822    0.0000 C   0  0  0  0  0  0  0  0  0  0  0  0
    6.8360    2.3223    0.0000 C   0  0  0  0  0  0  0  0  0  0  0  0
    5.8360    2.3240    0.0000 C   0  0  0  0  0  0  0  0  0  0  0  0
    7.3375    3.1874    0.0000 C   0  0  0  0  0  0  0  0  0  0  0  0
    5.3375    3.1909    0.0000 C   0  0  0  0  0  0  0  0  0  0  0  0
    6.8390    4.0543    0.0000 C   0  0  0  0  0  0  0  0  0  0  0  0
    5.8390    4.0560    0.0000 C   0  0  0  0  0  0  0  0  0  0  0  0
    5.1904   -0.9358    0.0000 H   0  0  0  0  0  0  0  0  0  0  0  0
    5.1904   -3.6358    0.0000 H   0  0  0  0  0  0  0  0  0  0  0  0
    4.6766   -1.0384    0.0000 H   0  0  0  0  0  0  0  0  0  0  0  0
    5.8845   -3.6575    0.0000 H   0  0  0  0  0  0  0  0  0  0  0  0
    6.6729   -3.3998    0.0000 H   0  0  0  0  0  0  0  0  0  0  0  0
    7.1800   -2.7005    0.0000 H   0  0  0  0  0  0  0  0  0  0  0  0
    7.1800   -1.8711    0.0000 H   0  0  0  0  0  0  0  0  0  0  0  0
    3.2325   -4.8062    0.0000 H   0  0  0  0  0  0  0  0  0  0  0  0
    2.0863   -3.3308    0.0000 H   0  0  0  0  0  0  0  0  0  0  0  0
    1.3804   -3.9664    0.0000 H   0  0  0  0  0  0  0  0  0  0  0  0
    1.6331   -5.1552    0.0000 H   0  0  0  0  0  0  0  0  0  0  0  0
    2.5365   -5.4487    0.0000 H   0  0  0  0  0  0  0  0  0  0  0  0
    7.0353    0.1582    0.0000 H   0  0  0  0  0  0  0  0  0  0  0  0
    4.5189   -0.3342    0.0000 H   0  0  0  0  0  0  0  0  0  0  0  0
    3.7376    0.0639    0.0000 H   0  0  0  0  0  0  0  0  0  0  0  0
    3.3396   -0.7173    0.0000 H   0  0  0  0  0  0  0  0  0  0  0  0
    7.7052   -1.4088    0.0000 H   0  0  0  0  0  0  0  0  0  0  0  0
    8.5302   -1.4970    0.0000 H   0  0  0  0  0  0  0  0  0  0  0  0
    9.2847   -1.0631    0.0000 H   0  0  0  0  0  0  0  0  0  0  0  0
    9.6235   -0.3057    0.0000 H   0  0  0  0  0  0  0  0  0  0  0  0
    9.4440    0.5460    0.0000 H   0  0  0  0  0  0  0  0  0  0  0  0
    8.8284    1.1022    0.0000 H   0  0  0  0  0  0  0  0  0  0  0  0
    5.5250    1.7876    0.0000 H   0  0  0  0  0  0  0  0  0  0  0  0
    7.9575    3.1864    0.0000 H   0  0  0  0  0  0  0  0  0  0  0  0
    4.7175    3.1920    0.0000 H   0  0  0  0  0  0  0  0  0  0  0  0
    7.1499    4.5907    0.0000 H   0  0  0  0  0  0  0  0  0  0  0  0
  1 32  1  0  0  0  0
  2  6  2  0  0  0  0
  2  7  2  0  0  0  0
  2 10  1  0  0  0  0
  2 27  1  0  0  0  0
  3 17  2  0  0  0  0
  4 18  2  0  0  0  0
  5 21  2  0  0  0  0
  8 11  1  0  0  0  0
  8 15  1  0  0  0  0
  8 21  1  0  0  0  0
  9 12  1  0  0  0  0
  9 17  1  0  0  0  0
  9 18  1  0  0  0  0
 10 22  1  0  0  0  0
 10 26  1  0  0  0  0
 11 12  1  0  0  0  0
 11 13  1  0  0  0  0
 11 33  1  6  0  0  0
 12 14  1  0  0  0  0
 12 34  1  1  0  0  0
 13 17  1  0  0  0  0
 13 23  1  1  0  0  0
 13 35  1  0  0  0  0
 14 15  1  0  0  0  0
 14 36  1  0  0  0  0
 14 37  1  0  0  0  0
 15 38  1  0  0  0  0
 15 39  1  0  0  0  0
 16 18  1  0  0  0  0
 16 19  1  0  0  0  0
 16 20  1  0  0  0  0
 16 40  1  0  0  0  0
 19 20  1  0  0  0  0
 19 41  1  0  0  0  0
 19 42  1  0  0  0  0
 20 43  1  0  0  0  0
 20 44  1  0  0  0  0
 22 21  1  1  0  0  0
 22 24  1  0  0  0  0
 22 45  1  0  0  0  0
 23 46  1  0  0  0  0
 23 47  1  0  0  0  0
 23 48  1  0  0  0  0
 24 25  1  0  0  0  0
 24 49  1  0  0  0  0
 24 50  1  0  0  0  0
 25 26  1  0  0  0  0
 25 51  1  0  0  0  0
 25 52  1  0  0  0  0
 26 53  1  0  0  0  0
 26 54  1  0  0  0  0
 27 28  2  0  0  0  0
 27 29  1  0  0  0  0
 28 30  1  0  0  0  0
 28 55  1  0  0  0  0
 29 31  2  0  0  0  0
 29 56  1  0  0  0  0
 30 32  2  0  0  0  0
 30 57  1  0  0  0  0
 31 32  1  0  0  0  0
 31 58  1  0  0  0  0
M  END
> <PUBCHEM_COMPOUND_CID>
511080
> <PUBCHEM_COMPOUND_CANONICALIZED>
1
> <PUBCHEM_CACTVS_COMPLEXITY>
909
> <PUBCHEM_CACTVS_HBOND_ACCEPTOR>
6
> <PUBCHEM_CACTVS_HBOND_DONOR>
0
> <PUBCHEM_CACTVS_ROTATABLE_BOND>
4
> <PUBCHEM_CACTVS_SUBSKEYS>
AAADceB7OABEAAAAAAAAAAAAGAAAAWLFgAAwAAAAAAAWAAABAAAAHgYAQAAADSrB0CQyAYMAAAKIACFSEHBCABAgBQAIiBmIAogIYDqB0zCUIAAghiCIiAccCQAMAAIAAAAAAAAABAAAAAAAAAAAAAAAAA==
> <PUBCHEM_IUPAC_OPENEYE_NAME>
(3aS,6S,6aR)-1-[(2S)-1-(4-chlorophenyl)sulfonylpyrrolidine-2-carbonyl]-4-(cyclopropanecarbonyl)-6-methyl-3,3a,6,6a-tetrahydro-2H-pyrrolo[3,2-b]pyrrol-5-one
> <PUBCHEM_IUPAC_CAS_NAME>
(3aS,6S,6aR)-1-[[(2S)-1-(4-chlorophenyl)sulfonyl-2-pyrrolidinyl]-oxomethyl]-4-[cyclopropyl(oxo)methyl]-6-methyl-3,3a,6,6a-tetrahydro-2H-pyrrolo[3,2-b]pyrrol-5-one
> <PUBCHEM_IUPAC_NAME_MARKUP>
(3<I>a</I><I>S</I>,6<I>S</I>,6<I>a</I><I>R</I>)-1-[(2<I>S</I>)-1-(4-chlorophenyl)sulfonylpyrrolidine-2-carbonyl]-4-(cyclopropanecarbonyl)-6-methyl-3,3<I>a</I>,6,6<I>a</I>-tetrahydro-2<I>H</I>-pyrrolo[3,2-b]pyrrol-5-one
> <PUBCHEM_IUPAC_NAME>
(3aS,6S,6aR)-1-[(2S)-1-(4-chlorophenyl)sulfonylpyrrolidine-2-carbonyl]-4-(cyclopropanecarbonyl)-6-methyl-3,3a,6,6a-tetrahydro-2H-pyrrolo[3,2-b]pyrrol-5-one
> <PUBCHEM_IUPAC_SYSTEMATIC_NAME>
(3aS,6S,6aR)-1-[(2S)-1-(4-chlorophenyl)sulfonylpyrrolidin-2-yl]carbonyl-4-cyclopropylcarbonyl-6-methyl-3,3a,6,6a-tetrahydro-2H-pyrrolo[3,2-b]pyrrol-5-one
> <PUBCHEM_IUPAC_TRADITIONAL_NAME>
(3aS,6S,6aR)-1-[(2S)-1-(4-chlorophenyl)sulfonylprolyl]-4-(cyclopropanecarbonyl)-6-methyl-3,3a,6,6a-tetrahydro-2H-pyrrolo[3,2-b]pyrrol-5-one
> <PUBCHEM_IUPAC_INCHI>
InChI=1S/C22H26ClN3O5S/c1-13-19-17(26(20(13)27)21(28)14-4-5-14)10-12-24(19)22(29)18-3-2-11-25(18)32(30,31)16-8-6-15(23)7-9-16/h6-9,13-14,17-19H,2-5,10-12H2,1H3/t13-,17-,18-,19+/m0/s1
> <PUBCHEM_IUPAC_INCHIKEY>
PQHKAXDDVJIWJW-ZQEOTTOMSA-N
> <PUBCHEM_XLOGP3_AA>
2
> <PUBCHEM_EXACT_MASS>
479.1281698
> <PUBCHEM_MOLECULAR_FORMULA>
C22H26ClN3O5S
> <PUBCHEM_MOLECULAR_WEIGHT>
480.0
> <PUBCHEM_OPENEYE_CAN_SMILES>
CC1C2C(CCN2C(=O)C3CCCN3S(=O)(=O)C4=CC=C(C=C4)Cl)N(C1=O)C(=O)C5CC5
> <PUBCHEM_OPENEYE_ISO_SMILES>
C[C@H]1[C@@H]2[C@H](CCN2C(=O)[C@@H]3CCCN3S(=O)(=O)C4=CC=C(C=C4)Cl)N(C1=O)C(=O)C5CC5
> <PUBCHEM_CACTVS_TPSA>
103
> <PUBCHEM_MONOISOTOPIC_WEIGHT>
479.1281698
> <PUBCHEM_TOTAL_CHARGE>
0
> <PUBCHEM_HEAVY_ATOM_COUNT>
32
> <PUBCHEM_ATOM_DEF_STEREO_COUNT>
4
> <PUBCHEM_ATOM_UDEF_STEREO_COUNT>
0
> <PUBCHEM_BOND_DEF_STEREO_COUNT>
0
> <PUBCHEM_BOND_UDEF_STEREO_COUNT>
0
> <PUBCHEM_ISOTOPIC_ATOM_COUNT>
0
> <PUBCHEM_COMPONENT_COUNT>
1
> <PUBCHEM_CACTVS_TAUTO_COUNT>
-1
> <PUBCHEM_COORDINATE_TYPE>
1
5
255
> <PUBCHEM_BONDANNOTATIONS>
11  33  6
12  34  5
13  23  5
22  21  5
27  28  8
27  29  8
28  30  8
29  31  8
30  32  8
31  32  8
$$$$
