511027
  -OEChem-10302200282D
 89 91  0     1  0  0  0  0  0999 V2000
   19.3093    3.9456    0.0000 O   0  0  0  0  0  0  0  0  0  0  0  0
   21.6607    2.8655    0.0000 O   0  0  0  0  0  0  0  0  0  0  0  0
   21.6536    5.0410    0.0000 O   0  0  0  0  0  0  0  0  0  0  0  0
   18.6035    5.9113    0.0000 O   0  0  0  0  0  0  0  0  0  0  0  0
   18.0818    3.4726    0.0000 O   0  0  0  0  0  0  0  0  0  0  0  0
   18.1027   -0.7242    0.0000 O   0  0  0  0  0  0  0  0  0  0  0  0
   19.5938    2.1865    0.0000 N   0  0  0  0  0  0  0  0  0  0  0  0
   19.6018    0.5770    0.0000 N   0  0  0  0  0  0  0  0  0  0  0  0
   16.8903    2.2692    0.0000 N   0  0  0  0  0  0  0  0  0  0  0  0
   15.4610    1.3611    0.0000 N   0  0  0  0  0  0  0  0  0  0  0  0
   16.8993    0.4673    0.0000 N   0  0  0  0  0  0  0  0  0  0  0  0
   20.8497    3.4506    0.0000 C   0  0  1  0  0  0  0  0  0  0  0  0
   19.8997    3.1385    0.0000 C   0  0  1  0  0  0  0  0  0  0  0  0
   20.8465    4.4506    0.0000 C   0  0  1  0  0  0  0  0  0  0  0  0
   19.8944    4.7565    0.0000 C   0  0  1  0  0  0  0  0  0  0  0  0
   19.5823    5.7066    0.0000 C   0  0  0  0  0  0  0  0  0  0  0  0
   18.6491    1.8770    0.0000 C   0  0  0  0  0  0  0  0  0  0  0  0
   20.1814    1.3846    0.0000 C   0  0  0  0  0  0  0  0  0  0  0  0
   18.6541    0.8770    0.0000 C   0  0  0  0  0  0  0  0  0  0  0  0
    8.9826   -3.0014    0.0000 C   0  0  0  0  0  0  0  0  0  0  0  0
    9.4783   -2.1329    0.0000 C   0  0  0  0  0  0  0  0  0  0  0  0
    7.9826   -3.0064    0.0000 C   0  0  0  0  0  0  0  0  0  0  0  0
   10.4783   -2.1279    0.0000 C   0  0  0  0  0  0  0  0  0  0  0  0
    7.4870   -3.8749    0.0000 C   0  0  0  0  0  0  0  0  0  0  0  0
   10.9740   -1.2594    0.0000 C   0  0  0  0  0  0  0  0  0  0  0  0
    6.4870   -3.8799    0.0000 C   0  0  0  0  0  0  0  0  0  0  0  0
   11.9740   -1.2544    0.0000 C   0  0  0  0  0  0  0  0  0  0  0  0
   17.8641    2.4966    0.0000 C   0  0  0  0  0  0  0  0  0  0  0  0
   12.4696   -0.3859    0.0000 C   0  0  0  0  0  0  0  0  0  0  0  0
    5.9913   -4.7484    0.0000 C   0  0  0  0  0  0  0  0  0  0  0  0
   13.4696   -0.3809    0.0000 C   0  0  0  0  0  0  0  0  0  0  0  0
    4.9913   -4.7534    0.0000 C   0  0  0  0  0  0  0  0  0  0  0  0
   13.9653    0.4876    0.0000 C   0  0  0  0  0  0  0  0  0  0  0  0
    4.4957   -5.6219    0.0000 C   0  0  0  0  0  0  0  0  0  0  0  0
   17.8753    0.2496    0.0000 C   0  0  0  0  0  0  0  0  0  0  0  0
   14.9653    0.4926    0.0000 C   0  0  0  0  0  0  0  0  0  0  0  0
   16.4610    1.3661    0.0000 C   0  0  0  0  0  0  0  0  0  0  0  0
    3.4957   -5.6268    0.0000 C   0  0  0  0  0  0  0  0  0  0  0  0
    3.0000   -6.4954    0.0000 C   0  0  0  0  0  0  0  0  0  0  0  0
    2.0000   -6.5003    0.0000 C   0  0  0  0  0  0  0  0  0  0  0  0
   21.4012    3.7339    0.0000 H   0  0  0  0  0  0  0  0  0  0  0  0
   20.3395    2.7015    0.0000 H   0  0  0  0  0  0  0  0  0  0  0  0
   21.3998    4.1710    0.0000 H   0  0  0  0  0  0  0  0  0  0  0  0
   19.2817    4.8515    0.0000 H   0  0  0  0  0  0  0  0  0  0  0  0
   20.1960    5.7949    0.0000 H   0  0  0  0  0  0  0  0  0  0  0  0
   19.6019    6.3263    0.0000 H   0  0  0  0  0  0  0  0  0  0  0  0
   22.2262    3.1195    0.0000 H   0  0  0  0  0  0  0  0  0  0  0  0
   21.5868    5.6574    0.0000 H   0  0  0  0  0  0  0  0  0  0  0  0
   20.8014    1.3877    0.0000 H   0  0  0  0  0  0  0  0  0  0  0  0
    8.8780   -3.6125    0.0000 H   0  0  0  0  0  0  0  0  0  0  0  0
    9.5663   -3.2105    0.0000 H   0  0  0  0  0  0  0  0  0  0  0  0
    9.5829   -1.5218    0.0000 H   0  0  0  0  0  0  0  0  0  0  0  0
    8.8947   -1.9237    0.0000 H   0  0  0  0  0  0  0  0  0  0  0  0
    8.0873   -2.3952    0.0000 H   0  0  0  0  0  0  0  0  0  0  0  0
    7.3990   -2.7972    0.0000 H   0  0  0  0  0  0  0  0  0  0  0  0
   10.3737   -2.7390    0.0000 H   0  0  0  0  0  0  0  0  0  0  0  0
   11.0620   -2.3370    0.0000 H   0  0  0  0  0  0  0  0  0  0  0  0
    7.3824   -4.4860    0.0000 H   0  0  0  0  0  0  0  0  0  0  0  0
    8.0706   -4.0840    0.0000 H   0  0  0  0  0  0  0  0  0  0  0  0
   11.0786   -0.6483    0.0000 H   0  0  0  0  0  0  0  0  0  0  0  0
   10.3903   -1.0502    0.0000 H   0  0  0  0  0  0  0  0  0  0  0  0
    6.5916   -3.2688    0.0000 H   0  0  0  0  0  0  0  0  0  0  0  0
    5.9033   -3.6707    0.0000 H   0  0  0  0  0  0  0  0  0  0  0  0
   11.8693   -1.8655    0.0000 H   0  0  0  0  0  0  0  0  0  0  0  0
   12.5576   -1.4635    0.0000 H   0  0  0  0  0  0  0  0  0  0  0  0
    5.8867   -5.3595    0.0000 H   0  0  0  0  0  0  0  0  0  0  0  0
    6.5750   -4.9575    0.0000 H   0  0  0  0  0  0  0  0  0  0  0  0
   12.5743    0.2252    0.0000 H   0  0  0  0  0  0  0  0  0  0  0  0
   11.8860   -0.1767    0.0000 H   0  0  0  0  0  0  0  0  0  0  0  0
   18.4100    6.5003    0.0000 H   0  0  0  0  0  0  0  0  0  0  0  0
   13.3650   -0.9920    0.0000 H   0  0  0  0  0  0  0  0  0  0  0  0
   14.0533   -0.5900    0.0000 H   0  0  0  0  0  0  0  0  0  0  0  0
    5.0959   -4.1422    0.0000 H   0  0  0  0  0  0  0  0  0  0  0  0
    4.4077   -4.5442    0.0000 H   0  0  0  0  0  0  0  0  0  0  0  0
   14.0699    1.0987    0.0000 H   0  0  0  0  0  0  0  0  0  0  0  0
   13.3816    0.6968    0.0000 H   0  0  0  0  0  0  0  0  0  0  0  0
    4.3910   -6.2330    0.0000 H   0  0  0  0  0  0  0  0  0  0  0  0
    5.0793   -5.8310    0.0000 H   0  0  0  0  0  0  0  0  0  0  0  0
   16.5014    2.7520    0.0000 H   0  0  0  0  0  0  0  0  0  0  0  0
   14.8607   -0.1185    0.0000 H   0  0  0  0  0  0  0  0  0  0  0  0
   15.5489    0.2835    0.0000 H   0  0  0  0  0  0  0  0  0  0  0  0
    3.6003   -5.0157    0.0000 H   0  0  0  0  0  0  0  0  0  0  0  0
    2.9120   -5.4177    0.0000 H   0  0  0  0  0  0  0  0  0  0  0  0
   15.1483    1.8965    0.0000 H   0  0  0  0  0  0  0  0  0  0  0  0
    2.8954   -7.1065    0.0000 H   0  0  0  0  0  0  0  0  0  0  0  0
    3.5836   -6.7045    0.0000 H   0  0  0  0  0  0  0  0  0  0  0  0
    1.9969   -5.8804    0.0000 H   0  0  0  0  0  0  0  0  0  0  0  0
    1.3800   -6.5034    0.0000 H   0  0  0  0  0  0  0  0  0  0  0  0
    2.0031   -7.1203    0.0000 H   0  0  0  0  0  0  0  0  0  0  0  0
  1 13  1  0  0  0  0
  1 15  1  0  0  0  0
 12  2  1  1  0  0  0
  2 47  1  0  0  0  0
 14  3  1  1  0  0  0
  3 48  1  0  0  0  0
  4 16  1  0  0  0  0
  4 70  1  0  0  0  0
  5 28  2  0  0  0  0
  6 35  2  0  0  0  0
 13  7  1  6  0  0  0
  7 17  1  0  0  0  0
  7 18  1  0  0  0  0
  8 18  2  0  0  0  0
  8 19  1  0  0  0  0
  9 28  1  0  0  0  0
  9 37  1  0  0  0  0
  9 79  1  0  0  0  0
 10 36  1  0  0  0  0
 10 37  1  0  0  0  0
 10 84  1  0  0  0  0
 11 35  1  0  0  0  0
 11 37  2  0  0  0  0
 12 13  1  0  0  0  0
 12 14  1  0  0  0  0
 12 41  1  0  0  0  0
 13 42  1  0  0  0  0
 14 15  1  0  0  0  0
 14 43  1  0  0  0  0
 15 16  1  6  0  0  0
 15 44  1  0  0  0  0
 16 45  1  0  0  0  0
 16 46  1  0  0  0  0
 17 19  2  0  0  0  0
 17 28  1  0  0  0  0
 18 49  1  0  0  0  0
 19 35  1  0  0  0  0
 20 21  1  0  0  0  0
 20 22  1  0  0  0  0
 20 50  1  0  0  0  0
 20 51  1  0  0  0  0
 21 23  1  0  0  0  0
 21 52  1  0  0  0  0
 21 53  1  0  0  0  0
 22 24  1  0  0  0  0
 22 54  1  0  0  0  0
 22 55  1  0  0  0  0
 23 25  1  0  0  0  0
 23 56  1  0  0  0  0
 23 57  1  0  0  0  0
 24 26  1  0  0  0  0
 24 58  1  0  0  0  0
 24 59  1  0  0  0  0
 25 27  1  0  0  0  0
 25 60  1  0  0  0  0
 25 61  1  0  0  0  0
 26 30  1  0  0  0  0
 26 62  1  0  0  0  0
 26 63  1  0  0  0  0
 27 29  1  0  0  0  0
 27 64  1  0  0  0  0
 27 65  1  0  0  0  0
 29 31  1  0  0  0  0
 29 68  1  0  0  0  0
 29 69  1  0  0  0  0
 30 32  1  0  0  0  0
 30 66  1  0  0  0  0
 30 67  1  0  0  0  0
 31 33  1  0  0  0  0
 31 71  1  0  0  0  0
 31 72  1  0  0  0  0
 32 34  1  0  0  0  0
 32 73  1  0  0  0  0
 32 74  1  0  0  0  0
 33 36  1  0  0  0  0
 33 75  1  0  0  0  0
 33 76  1  0  0  0  0
 34 38  1  0  0  0  0
 34 77  1  0  0  0  0
 34 78  1  0  0  0  0
 36 80  1  0  0  0  0
 36 81  1  0  0  0  0
 38 39  1  0  0  0  0
 38 82  1  0  0  0  0
 38 83  1  0  0  0  0
 39 40  1  0  0  0  0
 39 85  1  0  0  0  0
 39 86  1  0  0  0  0
 40 87  1  0  0  0  0
 40 88  1  0  0  0  0
 40 89  1  0  0  0  0
M  END
> <PUBCHEM_COMPOUND_CID>
511027
> <PUBCHEM_COMPOUND_CANONICALIZED>
1
> <PUBCHEM_CACTVS_COMPLEXITY>
799
> <PUBCHEM_CACTVS_HBOND_ACCEPTOR>
7
> <PUBCHEM_CACTVS_HBOND_DONOR>
5
> <PUBCHEM_CACTVS_ROTATABLE_BOND>
20
> <PUBCHEM_CACTVS_SUBSKEYS>
AAADcfB7uAAAAAAAAAAAAAAAAAAAAWJAAAAAAAAABAAAAACBgAAAHgAQCAAACBzhlgYHkBfMFgCoAQVxdACAgC0XEKABWIGoVECDWBpAyCAeQYhPEQLTAWH1sIIAAAAAAAAAAAAAAAAAAAAAAAAAAAAAAA==
> <PUBCHEM_IUPAC_OPENEYE_NAME>
1-[(2R,3R,4S,5R)-3,4-dihydroxy-5-(hydroxymethyl)tetrahydrofuran-2-yl]-6-(octadecylamino)-7H-imidazo[4,5-e][1,3]diazepine-4,8-dione
> <PUBCHEM_IUPAC_CAS_NAME>
1-[(2R,3R,4S,5R)-3,4-dihydroxy-5-(hydroxymethyl)-2-oxolanyl]-6-(octadecylamino)-7H-imidazo[4,5-e][1,3]diazepine-4,8-dione
> <PUBCHEM_IUPAC_NAME_MARKUP>
1-[(2<I>R</I>,3<I>R</I>,4<I>S</I>,5<I>R</I>)-3,4-dihydroxy-5-(hydroxymethyl)oxolan-2-yl]-6-(octadecylamino)-7<I>H</I>-imidazo[4,5-e][1,3]diazepine-4,8-dione
> <PUBCHEM_IUPAC_NAME>
1-[(2R,3R,4S,5R)-3,4-dihydroxy-5-(hydroxymethyl)oxolan-2-yl]-6-(octadecylamino)-7H-imidazo[4,5-e][1,3]diazepine-4,8-dione
> <PUBCHEM_IUPAC_SYSTEMATIC_NAME>
1-[(2R,3R,4S,5R)-5-(hydroxymethyl)-3,4-bis(oxidanyl)oxolan-2-yl]-6-(octadecylamino)-7H-imidazo[4,5-e][1,3]diazepine-4,8-dione
> <PUBCHEM_IUPAC_TRADITIONAL_NAME>
1-[(2R,3R,4S,5R)-3,4-dihydroxy-5-methylol-tetrahydrofuran-2-yl]-6-(stearylamino)-7H-imidazo[4,5-e][1,3]diazepine-4,8-quinone
> <PUBCHEM_IUPAC_INCHI>
InChI=1S/C29H49N5O6/c1-2-3-4-5-6-7-8-9-10-11-12-13-14-15-16-17-18-30-29-32-26(38)22-23(27(39)33-29)34(20-31-22)28-25(37)24(36)21(19-35)40-28/h20-21,24-25,28,35-37H,2-19H2,1H3,(H2,30,32,33,38,39)/t21-,24-,25-,28-/m1/s1
> <PUBCHEM_IUPAC_INCHIKEY>
UAVIGKIVXAAMQZ-VGSCBBJJSA-N
> <PUBCHEM_XLOGP3>
7.2
> <PUBCHEM_EXACT_MASS>
563.36828430
> <PUBCHEM_MOLECULAR_FORMULA>
C29H49N5O6
> <PUBCHEM_MOLECULAR_WEIGHT>
563.7
> <PUBCHEM_OPENEYE_CAN_SMILES>
CCCCCCCCCCCCCCCCCCNC1=NC(=O)C2=C(C(=O)N1)N(C=N2)C3C(C(C(O3)CO)O)O
> <PUBCHEM_OPENEYE_ISO_SMILES>
CCCCCCCCCCCCCCCCCCNC1=NC(=O)C2=C(C(=O)N1)N(C=N2)[C@H]3[C@@H]([C@@H]([C@H](O3)CO)O)O
> <PUBCHEM_CACTVS_TPSA>
158
> <PUBCHEM_MONOISOTOPIC_WEIGHT>
563.36828430
> <PUBCHEM_TOTAL_CHARGE>
0
> <PUBCHEM_HEAVY_ATOM_COUNT>
40
> <PUBCHEM_ATOM_DEF_STEREO_COUNT>
4
> <PUBCHEM_ATOM_UDEF_STEREO_COUNT>
0
> <PUBCHEM_BOND_DEF_STEREO_COUNT>
0
> <PUBCHEM_BOND_UDEF_STEREO_COUNT>
0
> <PUBCHEM_ISOTOPIC_ATOM_COUNT>
0
> <PUBCHEM_COMPONENT_COUNT>
1
> <PUBCHEM_CACTVS_TAUTO_COUNT>
-1
> <PUBCHEM_COORDINATE_TYPE>
1
5
255
> <PUBCHEM_BONDANNOTATIONS>
11  35  8
11  37  8
15  16  6
17  19  8
17  28  8
19  35  8
12  2  5
14  3  5
13  7  6
7  17  8
7  18  8
8  18  8
8  19  8
9  28  8
9  37  8
$$$$
