511086
  -OEChem-10302200282D
 67 72  0     1  0  0  0  0  0999 V2000
    2.6504   -3.1484    0.0000 O   0  0  0  0  0  0  0  0  0  0  0  0
    4.5983   -5.6516    0.0000 O   0  0  0  0  0  0  0  0  0  0  0  0
    5.7783   -0.6488    0.0000 O   0  0  0  0  0  0  0  0  0  0  0  0
    6.3345    0.5945    0.0000 O   0  0  0  0  0  0  0  0  0  0  0  0
    6.1355   -2.3436    0.0000 N   0  0  0  0  0  0  0  0  0  0  0  0
    4.2382   -3.9574    0.0000 N   0  0  0  0  0  0  0  0  0  0  0  0
    7.8330   -0.2741    0.0000 N   0  0  0  0  0  0  0  0  0  0  0  0
    5.1893   -2.6484    0.0000 C   0  0  1  0  0  0  0  0  0  0  0  0
    5.1893   -3.6484    0.0000 C   0  0  2  0  0  0  0  0  0  0  0  0
    4.2382   -2.3394    0.0000 C   0  0  1  0  0  0  0  0  0  0  0  0
    6.1355   -3.9531    0.0000 C   0  0  0  0  0  0  0  0  0  0  0  0
    6.7191   -3.1484    0.0000 C   0  0  0  0  0  0  0  0  0  0  0  0
    2.9511   -5.1164    0.0000 C   0  0  0  0  0  0  0  0  0  0  0  0
    3.6504   -3.1484    0.0000 C   0  0  0  0  0  0  0  0  0  0  0  0
    3.9292   -4.9085    0.0000 C   0  0  0  0  0  0  0  0  0  0  0  0
    2.0000   -4.8073    0.0000 C   0  0  0  0  0  0  0  0  0  0  0  0
    2.2079   -5.7855    0.0000 C   0  0  0  0  0  0  0  0  0  0  0  0
    6.4462   -1.3931    0.0000 C   0  0  0  0  0  0  0  0  0  0  0  0
    3.9292   -1.3883    0.0000 C   0  0  0  0  0  0  0  0  0  0  0  0
    7.4247   -1.1869    0.0000 C   0  0  2  0  0  0  0  0  0  0  0  0
    8.1666   -1.8573    0.0000 C   0  0  0  0  0  0  0  0  0  0  0  0
    9.0335   -1.3588    0.0000 C   0  0  0  0  0  0  0  0  0  0  0  0
    8.8273   -0.3803    0.0000 C   0  0  0  0  0  0  0  0  0  0  0  0
    7.3345    0.5928    0.0000 C   0  0  0  0  0  0  0  0  0  0  0  0
    7.8360    1.4580    0.0000 C   0  0  0  0  0  0  0  0  0  0  0  0
    8.8360    1.4562    0.0000 C   0  0  0  0  0  0  0  0  0  0  0  0
    7.3375    2.3249    0.0000 C   0  0  0  0  0  0  0  0  0  0  0  0
    9.3375    2.3214    0.0000 C   0  0  0  0  0  0  0  0  0  0  0  0
    7.8390    3.1900    0.0000 C   0  0  0  0  0  0  0  0  0  0  0  0
    8.8390    3.1883    0.0000 C   0  0  0  0  0  0  0  0  0  0  0  0
    9.3405    4.0534    0.0000 C   0  0  0  0  0  0  0  0  0  0  0  0
    8.8420    4.9203    0.0000 C   0  0  0  0  0  0  0  0  0  0  0  0
   10.3405    4.0517    0.0000 C   0  0  0  0  0  0  0  0  0  0  0  0
    9.3435    5.7855    0.0000 C   0  0  0  0  0  0  0  0  0  0  0  0
   10.8420    4.9169    0.0000 C   0  0  0  0  0  0  0  0  0  0  0  0
   10.3435    5.7838    0.0000 C   0  0  0  0  0  0  0  0  0  0  0  0
    5.1904   -1.7984    0.0000 H   0  0  0  0  0  0  0  0  0  0  0  0
    5.1904   -4.4984    0.0000 H   0  0  0  0  0  0  0  0  0  0  0  0
    3.6258   -2.2424    0.0000 H   0  0  0  0  0  0  0  0  0  0  0  0
    5.8845   -4.5200    0.0000 H   0  0  0  0  0  0  0  0  0  0  0  0
    6.6729   -4.2623    0.0000 H   0  0  0  0  0  0  0  0  0  0  0  0
    7.1800   -3.5631    0.0000 H   0  0  0  0  0  0  0  0  0  0  0  0
    7.1800   -2.7337    0.0000 H   0  0  0  0  0  0  0  0  0  0  0  0
    3.2325   -5.6688    0.0000 H   0  0  0  0  0  0  0  0  0  0  0  0
    2.0863   -4.1934    0.0000 H   0  0  0  0  0  0  0  0  0  0  0  0
    1.3804   -4.8290    0.0000 H   0  0  0  0  0  0  0  0  0  0  0  0
    1.6331   -6.0178    0.0000 H   0  0  0  0  0  0  0  0  0  0  0  0
    2.5365   -6.3113    0.0000 H   0  0  0  0  0  0  0  0  0  0  0  0
    4.5189   -1.1967    0.0000 H   0  0  0  0  0  0  0  0  0  0  0  0
    3.7376   -0.7987    0.0000 H   0  0  0  0  0  0  0  0  0  0  0  0
    3.3396   -1.5799    0.0000 H   0  0  0  0  0  0  0  0  0  0  0  0
    7.0353   -0.7044    0.0000 H   0  0  0  0  0  0  0  0  0  0  0  0
    7.7052   -2.2714    0.0000 H   0  0  0  0  0  0  0  0  0  0  0  0
    8.5302   -2.3596    0.0000 H   0  0  0  0  0  0  0  0  0  0  0  0
    9.2847   -1.9257    0.0000 H   0  0  0  0  0  0  0  0  0  0  0  0
    9.6235   -1.1683    0.0000 H   0  0  0  0  0  0  0  0  0  0  0  0
    9.4440   -0.3166    0.0000 H   0  0  0  0  0  0  0  0  0  0  0  0
    8.8284    0.2397    0.0000 H   0  0  0  0  0  0  0  0  0  0  0  0
    9.1450    0.9188    0.0000 H   0  0  0  0  0  0  0  0  0  0  0  0
    6.7175    2.3259    0.0000 H   0  0  0  0  0  0  0  0  0  0  0  0
    9.9575    2.3203    0.0000 H   0  0  0  0  0  0  0  0  0  0  0  0
    7.5299    3.7275    0.0000 H   0  0  0  0  0  0  0  0  0  0  0  0
    8.2220    4.9214    0.0000 H   0  0  0  0  0  0  0  0  0  0  0  0
   10.6495    3.5142    0.0000 H   0  0  0  0  0  0  0  0  0  0  0  0
    9.0344    6.3230    0.0000 H   0  0  0  0  0  0  0  0  0  0  0  0
   11.4620    4.9158    0.0000 H   0  0  0  0  0  0  0  0  0  0  0  0
   10.6544    6.3202    0.0000 H   0  0  0  0  0  0  0  0  0  0  0  0
  1 14  2  0  0  0  0
  2 15  2  0  0  0  0
  3 18  2  0  0  0  0
  4 24  2  0  0  0  0
  5  8  1  0  0  0  0
  5 12  1  0  0  0  0
  5 18  1  0  0  0  0
  6  9  1  0  0  0  0
  6 14  1  0  0  0  0
  6 15  1  0  0  0  0
  7 20  1  0  0  0  0
  7 23  1  0  0  0  0
  7 24  1  0  0  0  0
  8  9  1  0  0  0  0
  8 10  1  0  0  0  0
  8 37  1  6  0  0  0
  9 11  1  0  0  0  0
  9 38  1  1  0  0  0
 10 14  1  0  0  0  0
 10 19  1  1  0  0  0
 10 39  1  0  0  0  0
 11 12  1  0  0  0  0
 11 40  1  0  0  0  0
 11 41  1  0  0  0  0
 12 42  1  0  0  0  0
 12 43  1  0  0  0  0
 13 15  1  0  0  0  0
 13 16  1  0  0  0  0
 13 17  1  0  0  0  0
 13 44  1  0  0  0  0
 16 17  1  0  0  0  0
 16 45  1  0  0  0  0
 16 46  1  0  0  0  0
 17 47  1  0  0  0  0
 17 48  1  0  0  0  0
 20 18  1  1  0  0  0
 19 49  1  0  0  0  0
 19 50  1  0  0  0  0
 19 51  1  0  0  0  0
 20 21  1  0  0  0  0
 20 52  1  0  0  0  0
 21 22  1  0  0  0  0
 21 53  1  0  0  0  0
 21 54  1  0  0  0  0
 22 23  1  0  0  0  0
 22 55  1  0  0  0  0
 22 56  1  0  0  0  0
 23 57  1  0  0  0  0
 23 58  1  0  0  0  0
 24 25  1  0  0  0  0
 25 26  2  0  0  0  0
 25 27  1  0  0  0  0
 26 28  1  0  0  0  0
 26 59  1  0  0  0  0
 27 29  2  0  0  0  0
 27 60  1  0  0  0  0
 28 30  2  0  0  0  0
 28 61  1  0  0  0  0
 29 30  1  0  0  0  0
 29 62  1  0  0  0  0
 30 31  1  0  0  0  0
 31 32  2  0  0  0  0
 31 33  1  0  0  0  0
 32 34  1  0  0  0  0
 32 63  1  0  0  0  0
 33 35  2  0  0  0  0
 33 64  1  0  0  0  0
 34 36  2  0  0  0  0
 34 65  1  0  0  0  0
 35 36  1  0  0  0  0
 35 66  1  0  0  0  0
 36 67  1  0  0  0  0
M  END
> <PUBCHEM_COMPOUND_CID>
511086
> <PUBCHEM_COMPOUND_CANONICALIZED>
1
> <PUBCHEM_CACTVS_COMPLEXITY>
902
> <PUBCHEM_CACTVS_HBOND_ACCEPTOR>
4
> <PUBCHEM_CACTVS_HBOND_DONOR>
0
> <PUBCHEM_CACTVS_ROTATABLE_BOND>
4
> <PUBCHEM_CACTVS_SUBSKEYS>
AAADceB7OAAAAAAAAAAAAAAAGAAAAWLFgAAwYAAAAAAWAAABQAAAHgAAAAAADSjBmAQyAIMAAACIAiFSEACCAAAkAAAIiAGIBMgIYDqA1TGUIQhghiCIiYccicCOwAAAAAAAAACAAAAAAAAAAAAAAAAAAA==
> <PUBCHEM_IUPAC_OPENEYE_NAME>
(3aS,6S,6aR)-4-(cyclopropanecarbonyl)-6-methyl-1-[(2S)-1-(4-phenylbenzoyl)pyrrolidine-2-carbonyl]-3,3a,6,6a-tetrahydro-2H-pyrrolo[3,2-b]pyrrol-5-one
> <PUBCHEM_IUPAC_CAS_NAME>
(3aS,6S,6aR)-4-[cyclopropyl(oxo)methyl]-6-methyl-1-[oxo-[(2S)-1-[oxo-(4-phenylphenyl)methyl]-2-pyrrolidinyl]methyl]-3,3a,6,6a-tetrahydro-2H-pyrrolo[3,2-b]pyrrol-5-one
> <PUBCHEM_IUPAC_NAME_MARKUP>
(3<I>a</I><I>S</I>,6<I>S</I>,6<I>a</I><I>R</I>)-4-(cyclopropanecarbonyl)-6-methyl-1-[(2<I>S</I>)-1-(4-phenylbenzoyl)pyrrolidine-2-carbonyl]-3,3<I>a</I>,6,6<I>a</I>-tetrahydro-2<I>H</I>-pyrrolo[3,2-b]pyrrol-5-one
> <PUBCHEM_IUPAC_NAME>
(3aS,6S,6aR)-4-(cyclopropanecarbonyl)-6-methyl-1-[(2S)-1-(4-phenylbenzoyl)pyrrolidine-2-carbonyl]-3,3a,6,6a-tetrahydro-2H-pyrrolo[3,2-b]pyrrol-5-one
> <PUBCHEM_IUPAC_SYSTEMATIC_NAME>
(3aS,6S,6aR)-4-cyclopropylcarbonyl-6-methyl-1-[(2S)-1-(4-phenylphenyl)carbonylpyrrolidin-2-yl]carbonyl-3,3a,6,6a-tetrahydro-2H-pyrrolo[3,2-b]pyrrol-5-one
> <PUBCHEM_IUPAC_TRADITIONAL_NAME>
(3aS,6S,6aR)-4-(cyclopropanecarbonyl)-6-methyl-1-[(2S)-1-(4-phenylbenzoyl)prolyl]-3,3a,6,6a-tetrahydro-2H-pyrrolo[3,2-b]pyrrol-5-one
> <PUBCHEM_IUPAC_INCHI>
InChI=1S/C29H31N3O4/c1-18-25-23(32(26(18)33)28(35)22-13-14-22)15-17-31(25)29(36)24-8-5-16-30(24)27(34)21-11-9-20(10-12-21)19-6-3-2-4-7-19/h2-4,6-7,9-12,18,22-25H,5,8,13-17H2,1H3/t18-,23-,24-,25+/m0/s1
> <PUBCHEM_IUPAC_INCHIKEY>
BLMRFTBYNMKUCA-PAWHMVCQSA-N
> <PUBCHEM_XLOGP3_AA>
3.3
> <PUBCHEM_EXACT_MASS>
485.23145648
> <PUBCHEM_MOLECULAR_FORMULA>
C29H31N3O4
> <PUBCHEM_MOLECULAR_WEIGHT>
485.6
> <PUBCHEM_OPENEYE_CAN_SMILES>
CC1C2C(CCN2C(=O)C3CCCN3C(=O)C4=CC=C(C=C4)C5=CC=CC=C5)N(C1=O)C(=O)C6CC6
> <PUBCHEM_OPENEYE_ISO_SMILES>
C[C@H]1[C@@H]2[C@H](CCN2C(=O)[C@@H]3CCCN3C(=O)C4=CC=C(C=C4)C5=CC=CC=C5)N(C1=O)C(=O)C6CC6
> <PUBCHEM_CACTVS_TPSA>
78
> <PUBCHEM_MONOISOTOPIC_WEIGHT>
485.23145648
> <PUBCHEM_TOTAL_CHARGE>
0
> <PUBCHEM_HEAVY_ATOM_COUNT>
36
> <PUBCHEM_ATOM_DEF_STEREO_COUNT>
4
> <PUBCHEM_ATOM_UDEF_STEREO_COUNT>
0
> <PUBCHEM_BOND_DEF_STEREO_COUNT>
0
> <PUBCHEM_BOND_UDEF_STEREO_COUNT>
0
> <PUBCHEM_ISOTOPIC_ATOM_COUNT>
0
> <PUBCHEM_COMPONENT_COUNT>
1
> <PUBCHEM_CACTVS_TAUTO_COUNT>
-1
> <PUBCHEM_COORDINATE_TYPE>
1
5
255
> <PUBCHEM_BONDANNOTATIONS>
10  19  5
20  18  5
25  26  8
25  27  8
26  28  8
27  29  8
28  30  8
29  30  8
31  32  8
31  33  8
32  34  8
33  35  8
34  36  8
35  36  8
8  37  6
9  38  5
$$$$
