511092
  -OEChem-10302200282D
 69 73  0     1  0  0  0  0  0999 V2000
    2.6504   -4.0170    0.0000 O   0  0  0  0  0  0  0  0  0  0  0  0
    4.5983   -6.5202    0.0000 O   0  0  0  0  0  0  0  0  0  0  0  0
    5.7783   -1.5174    0.0000 O   0  0  0  0  0  0  0  0  0  0  0  0
    6.3345   -0.2741    0.0000 O   0  0  0  0  0  0  0  0  0  0  0  0
    5.8420    4.0569    0.0000 O   0  0  0  0  0  0  0  0  0  0  0  0
    6.1355   -3.2123    0.0000 N   0  0  0  0  0  0  0  0  0  0  0  0
    4.2382   -4.8260    0.0000 N   0  0  0  0  0  0  0  0  0  0  0  0
    7.8330   -1.1427    0.0000 N   0  0  0  0  0  0  0  0  0  0  0  0
    7.8360    0.5894    0.0000 N   0  0  0  0  0  0  0  0  0  0  0  0
    5.1893   -3.5170    0.0000 C   0  0  1  0  0  0  0  0  0  0  0  0
    5.1893   -4.5170    0.0000 C   0  0  2  0  0  0  0  0  0  0  0  0
    4.2382   -3.2080    0.0000 C   0  0  1  0  0  0  0  0  0  0  0  0
    6.1355   -4.8217    0.0000 C   0  0  0  0  0  0  0  0  0  0  0  0
    6.7191   -4.0170    0.0000 C   0  0  0  0  0  0  0  0  0  0  0  0
    2.9511   -5.9850    0.0000 C   0  0  0  0  0  0  0  0  0  0  0  0
    3.6504   -4.0170    0.0000 C   0  0  0  0  0  0  0  0  0  0  0  0
    3.9292   -5.7771    0.0000 C   0  0  0  0  0  0  0  0  0  0  0  0
    2.0000   -5.6760    0.0000 C   0  0  0  0  0  0  0  0  0  0  0  0
    2.2079   -6.6541    0.0000 C   0  0  0  0  0  0  0  0  0  0  0  0
    6.4462   -2.2618    0.0000 C   0  0  0  0  0  0  0  0  0  0  0  0
    3.9292   -2.2569    0.0000 C   0  0  0  0  0  0  0  0  0  0  0  0
    7.4247   -2.0555    0.0000 C   0  0  2  0  0  0  0  0  0  0  0  0
    8.1666   -2.7260    0.0000 C   0  0  0  0  0  0  0  0  0  0  0  0
    9.0335   -2.2274    0.0000 C   0  0  0  0  0  0  0  0  0  0  0  0
    8.8273   -1.2489    0.0000 C   0  0  0  0  0  0  0  0  0  0  0  0
    7.3345   -0.2758    0.0000 C   0  0  0  0  0  0  0  0  0  0  0  0
    7.3375    1.4562    0.0000 C   0  0  0  0  0  0  0  0  0  0  0  0
    6.3375    1.4580    0.0000 C   0  0  0  0  0  0  0  0  0  0  0  0
    7.8390    2.3214    0.0000 C   0  0  0  0  0  0  0  0  0  0  0  0
    5.8390    2.3249    0.0000 C   0  0  0  0  0  0  0  0  0  0  0  0
    7.3405    3.1883    0.0000 C   0  0  0  0  0  0  0  0  0  0  0  0
    6.3405    3.1900    0.0000 C   0  0  0  0  0  0  0  0  0  0  0  0
    6.3435    4.9221    0.0000 C   0  0  0  0  0  0  0  0  0  0  0  0
    5.8450    5.7890    0.0000 C   0  0  0  0  0  0  0  0  0  0  0  0
    6.3465    6.6541    0.0000 C   0  0  0  0  0  0  0  0  0  0  0  0
    5.1904   -2.6670    0.0000 H   0  0  0  0  0  0  0  0  0  0  0  0
    5.1904   -5.3670    0.0000 H   0  0  0  0  0  0  0  0  0  0  0  0
    4.6766   -2.7696    0.0000 H   0  0  0  0  0  0  0  0  0  0  0  0
    5.8845   -5.3886    0.0000 H   0  0  0  0  0  0  0  0  0  0  0  0
    6.6729   -5.1310    0.0000 H   0  0  0  0  0  0  0  0  0  0  0  0
    7.1800   -4.4317    0.0000 H   0  0  0  0  0  0  0  0  0  0  0  0
    7.1800   -3.6023    0.0000 H   0  0  0  0  0  0  0  0  0  0  0  0
    3.2325   -6.5374    0.0000 H   0  0  0  0  0  0  0  0  0  0  0  0
    2.0863   -5.0620    0.0000 H   0  0  0  0  0  0  0  0  0  0  0  0
    1.3804   -5.6976    0.0000 H   0  0  0  0  0  0  0  0  0  0  0  0
    1.6331   -6.8864    0.0000 H   0  0  0  0  0  0  0  0  0  0  0  0
    2.5365   -7.1799    0.0000 H   0  0  0  0  0  0  0  0  0  0  0  0
    4.5189   -2.0653    0.0000 H   0  0  0  0  0  0  0  0  0  0  0  0
    3.7376   -1.6673    0.0000 H   0  0  0  0  0  0  0  0  0  0  0  0
    3.3396   -2.4485    0.0000 H   0  0  0  0  0  0  0  0  0  0  0  0
    7.0353   -1.5730    0.0000 H   0  0  0  0  0  0  0  0  0  0  0  0
    7.7052   -3.1400    0.0000 H   0  0  0  0  0  0  0  0  0  0  0  0
    8.5302   -3.2282    0.0000 H   0  0  0  0  0  0  0  0  0  0  0  0
    9.2847   -2.7943    0.0000 H   0  0  0  0  0  0  0  0  0  0  0  0
    9.6235   -2.0369    0.0000 H   0  0  0  0  0  0  0  0  0  0  0  0
    9.4440   -1.1852    0.0000 H   0  0  0  0  0  0  0  0  0  0  0  0
    8.8284   -0.6289    0.0000 H   0  0  0  0  0  0  0  0  0  0  0  0
    8.4560    0.5883    0.0000 H   0  0  0  0  0  0  0  0  0  0  0  0
    6.0266    0.9216    0.0000 H   0  0  0  0  0  0  0  0  0  0  0  0
    8.4590    2.3203    0.0000 H   0  0  0  0  0  0  0  0  0  0  0  0
    5.2190    2.3259    0.0000 H   0  0  0  0  0  0  0  0  0  0  0  0
    7.6514    3.7247    0.0000 H   0  0  0  0  0  0  0  0  0  0  0  0
    6.8177    4.5227    0.0000 H   0  0  0  0  0  0  0  0  0  0  0  0
    6.8191    5.3198    0.0000 H   0  0  0  0  0  0  0  0  0  0  0  0
    5.3707    6.1883    0.0000 H   0  0  0  0  0  0  0  0  0  0  0  0
    5.3693    5.3913    0.0000 H   0  0  0  0  0  0  0  0  0  0  0  0
    6.8829    6.3432    0.0000 H   0  0  0  0  0  0  0  0  0  0  0  0
    6.6574    7.1905    0.0000 H   0  0  0  0  0  0  0  0  0  0  0  0
    5.8101    6.9650    0.0000 H   0  0  0  0  0  0  0  0  0  0  0  0
  1 16  2  0  0  0  0
  2 17  2  0  0  0  0
  3 20  2  0  0  0  0
  4 26  2  0  0  0  0
  5 32  1  0  0  0  0
  5 33  1  0  0  0  0
  6 10  1  0  0  0  0
  6 14  1  0  0  0  0
  6 20  1  0  0  0  0
  7 11  1  0  0  0  0
  7 16  1  0  0  0  0
  7 17  1  0  0  0  0
  8 22  1  0  0  0  0
  8 25  1  0  0  0  0
  8 26  1  0  0  0  0
  9 26  1  0  0  0  0
  9 27  1  0  0  0  0
  9 58  1  0  0  0  0
 10 11  1  0  0  0  0
 10 12  1  0  0  0  0
 10 36  1  6  0  0  0
 11 13  1  0  0  0  0
 11 37  1  1  0  0  0
 12 16  1  0  0  0  0
 12 21  1  1  0  0  0
 12 38  1  0  0  0  0
 13 14  1  0  0  0  0
 13 39  1  0  0  0  0
 13 40  1  0  0  0  0
 14 41  1  0  0  0  0
 14 42  1  0  0  0  0
 15 17  1  0  0  0  0
 15 18  1  0  0  0  0
 15 19  1  0  0  0  0
 15 43  1  0  0  0  0
 18 19  1  0  0  0  0
 18 44  1  0  0  0  0
 18 45  1  0  0  0  0
 19 46  1  0  0  0  0
 19 47  1  0  0  0  0
 22 20  1  1  0  0  0
 21 48  1  0  0  0  0
 21 49  1  0  0  0  0
 21 50  1  0  0  0  0
 22 23  1  0  0  0  0
 22 51  1  0  0  0  0
 23 24  1  0  0  0  0
 23 52  1  0  0  0  0
 23 53  1  0  0  0  0
 24 25  1  0  0  0  0
 24 54  1  0  0  0  0
 24 55  1  0  0  0  0
 25 56  1  0  0  0  0
 25 57  1  0  0  0  0
 27 28  2  0  0  0  0
 27 29  1  0  0  0  0
 28 30  1  0  0  0  0
 28 59  1  0  0  0  0
 29 31  2  0  0  0  0
 29 60  1  0  0  0  0
 30 32  2  0  0  0  0
 30 61  1  0  0  0  0
 31 32  1  0  0  0  0
 31 62  1  0  0  0  0
 33 34  1  0  0  0  0
 33 63  1  0  0  0  0
 33 64  1  0  0  0  0
 34 35  1  0  0  0  0
 34 65  1  0  0  0  0
 34 66  1  0  0  0  0
 35 67  1  0  0  0  0
 35 68  1  0  0  0  0
 35 69  1  0  0  0  0
M  END
> <PUBCHEM_COMPOUND_CID>
511092
> <PUBCHEM_COMPOUND_CANONICALIZED>
1
> <PUBCHEM_CACTVS_COMPLEXITY>
853
> <PUBCHEM_CACTVS_HBOND_ACCEPTOR>
5
> <PUBCHEM_CACTVS_HBOND_DONOR>
1
> <PUBCHEM_CACTVS_ROTATABLE_BOND>
6
> <PUBCHEM_CACTVS_SUBSKEYS>
AAADcfB7uAAAAAAAAAAAAAAAGAAAAWLFgAAwAAAAAAAWAAABAAAAHgAQAAAADSzhkAYzxoPABACIACVSUACCCAAhIgAIiAGObIiMZjrE8buWOCjs1jPI6Ce8SQAMAEAAAAAAAAAAgAAAAAAAAAAAAAAAAA==
> <PUBCHEM_IUPAC_OPENEYE_NAME>
(2S)-2-[(3aS,6S,6aR)-4-(cyclopropanecarbonyl)-6-methyl-5-oxo-3,3a,6,6a-tetrahydro-2H-pyrrolo[3,2-b]pyrrole-1-carbonyl]-N-(4-propoxyphenyl)pyrrolidine-1-carboxamide
> <PUBCHEM_IUPAC_CAS_NAME>
(2S)-2-[[(3aS,6S,6aR)-4-[cyclopropyl(oxo)methyl]-6-methyl-5-oxo-3,3a,6,6a-tetrahydro-2H-pyrrolo[3,2-b]pyrrol-1-yl]-oxomethyl]-N-(4-propoxyphenyl)-1-pyrrolidinecarboxamide
> <PUBCHEM_IUPAC_NAME_MARKUP>
(2<I>S</I>)-2-[(3<I>a</I><I>S</I>,6<I>S</I>,6<I>a</I><I>R</I>)-4-(cyclopropanecarbonyl)-6-methyl-5-oxo-3,3<I>a</I>,6,6<I>a</I>-tetrahydro-2<I>H</I>-pyrrolo[3,2-b]pyrrole-1-carbonyl]-<I>N</I>-(4-propoxyphenyl)pyrrolidine-1-carboxamide
> <PUBCHEM_IUPAC_NAME>
(2S)-2-[(3aS,6S,6aR)-4-(cyclopropanecarbonyl)-6-methyl-5-oxo-3,3a,6,6a-tetrahydro-2H-pyrrolo[3,2-b]pyrrole-1-carbonyl]-N-(4-propoxyphenyl)pyrrolidine-1-carboxamide
> <PUBCHEM_IUPAC_SYSTEMATIC_NAME>
(2S)-2-[[(3aS,6S,6aR)-4-cyclopropylcarbonyl-6-methyl-5-oxidanylidene-3,3a,6,6a-tetrahydro-2H-pyrrolo[3,2-b]pyrrol-1-yl]carbonyl]-N-(4-propoxyphenyl)pyrrolidine-1-carboxamide
> <PUBCHEM_IUPAC_TRADITIONAL_NAME>
(2S)-2-[(3aS,6S,6aR)-4-(cyclopropanecarbonyl)-5-keto-6-methyl-3,3a,6,6a-tetrahydro-2H-pyrrolo[3,2-b]pyrrole-1-carbonyl]-N-(4-propoxyphenyl)pyrrolidine-1-carboxamide
> <PUBCHEM_IUPAC_INCHI>
InChI=1S/C26H34N4O5/c1-3-15-35-19-10-8-18(9-11-19)27-26(34)28-13-4-5-21(28)25(33)29-14-12-20-22(29)16(2)23(31)30(20)24(32)17-6-7-17/h8-11,16-17,20-22H,3-7,12-15H2,1-2H3,(H,27,34)/t16-,20-,21-,22+/m0/s1
> <PUBCHEM_IUPAC_INCHIKEY>
KGQCGAWCFMTRJG-IRNNPGBSSA-N
> <PUBCHEM_XLOGP3_AA>
2.3
> <PUBCHEM_EXACT_MASS>
482.25292020
> <PUBCHEM_MOLECULAR_FORMULA>
C26H34N4O5
> <PUBCHEM_MOLECULAR_WEIGHT>
482.6
> <PUBCHEM_OPENEYE_CAN_SMILES>
CCCOC1=CC=C(C=C1)NC(=O)N2CCCC2C(=O)N3CCC4C3C(C(=O)N4C(=O)C5CC5)C
> <PUBCHEM_OPENEYE_ISO_SMILES>
CCCOC1=CC=C(C=C1)NC(=O)N2CCC[C@H]2C(=O)N3CC[C@H]4[C@H]3[C@@H](C(=O)N4C(=O)C5CC5)C
> <PUBCHEM_CACTVS_TPSA>
99.3
> <PUBCHEM_MONOISOTOPIC_WEIGHT>
482.25292020
> <PUBCHEM_TOTAL_CHARGE>
0
> <PUBCHEM_HEAVY_ATOM_COUNT>
35
> <PUBCHEM_ATOM_DEF_STEREO_COUNT>
4
> <PUBCHEM_ATOM_UDEF_STEREO_COUNT>
0
> <PUBCHEM_BOND_DEF_STEREO_COUNT>
0
> <PUBCHEM_BOND_UDEF_STEREO_COUNT>
0
> <PUBCHEM_ISOTOPIC_ATOM_COUNT>
0
> <PUBCHEM_COMPONENT_COUNT>
1
> <PUBCHEM_CACTVS_TAUTO_COUNT>
-1
> <PUBCHEM_COORDINATE_TYPE>
1
5
255
> <PUBCHEM_BONDANNOTATIONS>
10  36  6
11  37  5
12  21  5
22  20  5
27  28  8
27  29  8
28  30  8
29  31  8
30  32  8
31  32  8
$$$$
