511081
  -OEChem-10302200282D
 67 71  0     1  0  0  0  0  0999 V2000
    7.3345    1.0228    0.0000 S   0  0  0  0  0  0  0  0  0  0  0  0
    2.6504   -2.7184    0.0000 O   0  0  0  0  0  0  0  0  0  0  0  0
    4.5983   -5.2216    0.0000 O   0  0  0  0  0  0  0  0  0  0  0  0
    5.7783   -0.2188    0.0000 O   0  0  0  0  0  0  0  0  0  0  0  0
    8.2014    1.5213    0.0000 O   0  0  0  0  0  0  0  0  0  0  0  0
    6.4676    0.5243    0.0000 O   0  0  0  0  0  0  0  0  0  0  0  0
    6.1355   -1.9137    0.0000 N   0  0  0  0  0  0  0  0  0  0  0  0
    4.2382   -3.5274    0.0000 N   0  0  0  0  0  0  0  0  0  0  0  0
    7.8330    0.1559    0.0000 N   0  0  3  0  0  0  0  0  0  0  0  0
    5.1893   -2.2184    0.0000 C   0  0  1  0  0  0  0  0  0  0  0  0
    5.1893   -3.2184    0.0000 C   0  0  2  0  0  0  0  0  0  0  0  0
    4.2382   -1.9094    0.0000 C   0  0  1  0  0  0  0  0  0  0  0  0
    6.1355   -3.5231    0.0000 C   0  0  0  0  0  0  0  0  0  0  0  0
    6.7191   -2.7184    0.0000 C   0  0  0  0  0  0  0  0  0  0  0  0
    2.9511   -4.6864    0.0000 C   0  0  0  0  0  0  0  0  0  0  0  0
    3.6504   -2.7184    0.0000 C   0  0  0  0  0  0  0  0  0  0  0  0
    3.9292   -4.4785    0.0000 C   0  0  0  0  0  0  0  0  0  0  0  0
    2.0000   -4.3774    0.0000 C   0  0  0  0  0  0  0  0  0  0  0  0
    2.2079   -5.3555    0.0000 C   0  0  0  0  0  0  0  0  0  0  0  0
    6.4462   -0.9631    0.0000 C   0  0  0  0  0  0  0  0  0  0  0  0
    7.4247   -0.7569    0.0000 C   0  0  2  0  0  0  0  0  0  0  0  0
    3.9292   -0.9583    0.0000 C   0  0  0  0  0  0  0  0  0  0  0  0
    8.1666   -1.4273    0.0000 C   0  0  0  0  0  0  0  0  0  0  0  0
    9.0335   -0.9288    0.0000 C   0  0  0  0  0  0  0  0  0  0  0  0
    8.8273    0.0497    0.0000 C   0  0  0  0  0  0  0  0  0  0  0  0
    6.8360    1.8897    0.0000 C   0  0  0  0  0  0  0  0  0  0  0  0
    7.3375    2.7548    0.0000 C   0  0  0  0  0  0  0  0  0  0  0  0
    5.8360    1.8914    0.0000 C   0  0  0  0  0  0  0  0  0  0  0  0
    6.8390    3.6217    0.0000 C   0  0  0  0  0  0  0  0  0  0  0  0
    5.3375    2.7583    0.0000 C   0  0  0  0  0  0  0  0  0  0  0  0
    5.8390    3.6235    0.0000 C   0  0  0  0  0  0  0  0  0  0  0  0
    5.3405    4.4904    0.0000 C   0  0  0  0  0  0  0  0  0  0  0  0
    5.8420    5.3555    0.0000 C   0  0  0  0  0  0  0  0  0  0  0  0
    4.3405    4.4921    0.0000 C   0  0  0  0  0  0  0  0  0  0  0  0
    5.1904   -1.3684    0.0000 H   0  0  0  0  0  0  0  0  0  0  0  0
    5.1904   -4.0684    0.0000 H   0  0  0  0  0  0  0  0  0  0  0  0
    3.6258   -1.8124    0.0000 H   0  0  0  0  0  0  0  0  0  0  0  0
    5.8845   -4.0900    0.0000 H   0  0  0  0  0  0  0  0  0  0  0  0
    6.6729   -3.8324    0.0000 H   0  0  0  0  0  0  0  0  0  0  0  0
    7.1800   -3.1331    0.0000 H   0  0  0  0  0  0  0  0  0  0  0  0
    7.1800   -2.3037    0.0000 H   0  0  0  0  0  0  0  0  0  0  0  0
    3.2325   -5.2388    0.0000 H   0  0  0  0  0  0  0  0  0  0  0  0
    2.0863   -3.7634    0.0000 H   0  0  0  0  0  0  0  0  0  0  0  0
    1.3804   -4.3990    0.0000 H   0  0  0  0  0  0  0  0  0  0  0  0
    1.6331   -5.5878    0.0000 H   0  0  0  0  0  0  0  0  0  0  0  0
    2.5365   -5.8813    0.0000 H   0  0  0  0  0  0  0  0  0  0  0  0
    7.0353   -0.2744    0.0000 H   0  0  0  0  0  0  0  0  0  0  0  0
    4.5189   -0.7667    0.0000 H   0  0  0  0  0  0  0  0  0  0  0  0
    3.7376   -0.3687    0.0000 H   0  0  0  0  0  0  0  0  0  0  0  0
    3.3396   -1.1499    0.0000 H   0  0  0  0  0  0  0  0  0  0  0  0
    7.7052   -1.8414    0.0000 H   0  0  0  0  0  0  0  0  0  0  0  0
    8.5302   -1.9296    0.0000 H   0  0  0  0  0  0  0  0  0  0  0  0
    9.2847   -1.4957    0.0000 H   0  0  0  0  0  0  0  0  0  0  0  0
    9.6235   -0.7383    0.0000 H   0  0  0  0  0  0  0  0  0  0  0  0
    9.4440    0.1134    0.0000 H   0  0  0  0  0  0  0  0  0  0  0  0
    8.8284    0.6697    0.0000 H   0  0  0  0  0  0  0  0  0  0  0  0
    7.9575    2.7538    0.0000 H   0  0  0  0  0  0  0  0  0  0  0  0
    5.5250    1.3550    0.0000 H   0  0  0  0  0  0  0  0  0  0  0  0
    7.1499    4.1581    0.0000 H   0  0  0  0  0  0  0  0  0  0  0  0
    4.7175    2.7594    0.0000 H   0  0  0  0  0  0  0  0  0  0  0  0
    5.0296    3.9540    0.0000 H   0  0  0  0  0  0  0  0  0  0  0  0
    6.3784    5.0446    0.0000 H   0  0  0  0  0  0  0  0  0  0  0  0
    6.1529    5.8919    0.0000 H   0  0  0  0  0  0  0  0  0  0  0  0
    5.3056    5.6664    0.0000 H   0  0  0  0  0  0  0  0  0  0  0  0
    4.3416    5.1121    0.0000 H   0  0  0  0  0  0  0  0  0  0  0  0
    3.7205    4.4932    0.0000 H   0  0  0  0  0  0  0  0  0  0  0  0
    4.3394    3.8721    0.0000 H   0  0  0  0  0  0  0  0  0  0  0  0
  1  5  2  0  0  0  0
  1  6  2  0  0  0  0
  1  9  1  0  0  0  0
  1 26  1  0  0  0  0
  2 16  2  0  0  0  0
  3 17  2  0  0  0  0
  4 20  2  0  0  0  0
  7 10  1  0  0  0  0
  7 14  1  0  0  0  0
  7 20  1  0  0  0  0
  8 11  1  0  0  0  0
  8 16  1  0  0  0  0
  8 17  1  0  0  0  0
  9 21  1  0  0  0  0
  9 25  1  0  0  0  0
 10 11  1  0  0  0  0
 10 12  1  0  0  0  0
 10 35  1  6  0  0  0
 11 13  1  0  0  0  0
 11 36  1  1  0  0  0
 12 16  1  0  0  0  0
 12 22  1  1  0  0  0
 12 37  1  0  0  0  0
 13 14  1  0  0  0  0
 13 38  1  0  0  0  0
 13 39  1  0  0  0  0
 14 40  1  0  0  0  0
 14 41  1  0  0  0  0
 15 17  1  0  0  0  0
 15 18  1  0  0  0  0
 15 19  1  0  0  0  0
 15 42  1  0  0  0  0
 18 19  1  0  0  0  0
 18 43  1  0  0  0  0
 18 44  1  0  0  0  0
 19 45  1  0  0  0  0
 19 46  1  0  0  0  0
 21 20  1  1  0  0  0
 21 23  1  0  0  0  0
 21 47  1  0  0  0  0
 22 48  1  0  0  0  0
 22 49  1  0  0  0  0
 22 50  1  0  0  0  0
 23 24  1  0  0  0  0
 23 51  1  0  0  0  0
 23 52  1  0  0  0  0
 24 25  1  0  0  0  0
 24 53  1  0  0  0  0
 24 54  1  0  0  0  0
 25 55  1  0  0  0  0
 25 56  1  0  0  0  0
 26 27  2  0  0  0  0
 26 28  1  0  0  0  0
 27 29  1  0  0  0  0
 27 57  1  0  0  0  0
 28 30  2  0  0  0  0
 28 58  1  0  0  0  0
 29 31  2  0  0  0  0
 29 59  1  0  0  0  0
 30 31  1  0  0  0  0
 30 60  1  0  0  0  0
 31 32  1  0  0  0  0
 32 33  1  0  0  0  0
 32 34  1  0  0  0  0
 32 61  1  0  0  0  0
 33 62  1  0  0  0  0
 33 63  1  0  0  0  0
 33 64  1  0  0  0  0
 34 65  1  0  0  0  0
 34 66  1  0  0  0  0
 34 67  1  0  0  0  0
M  END
> <PUBCHEM_COMPOUND_CID>
511081
> <PUBCHEM_COMPOUND_CANONICALIZED>
1
> <PUBCHEM_CACTVS_COMPLEXITY>
948
> <PUBCHEM_CACTVS_HBOND_ACCEPTOR>
6
> <PUBCHEM_CACTVS_HBOND_DONOR>
0
> <PUBCHEM_CACTVS_ROTATABLE_BOND>
5
> <PUBCHEM_CACTVS_SUBSKEYS>
AAADcfB7OABAAAAAAAAAAAAAGAAAAWLFgAAwAAAAAAAWAAABAAAAHgQAQAAADSjB2AQyAYMAAAKIAiFSEHBCABAgAAAIiBmIAIgIYDqA0TCUIAAghiCIiAccicAOkAAAAAAAAAAgAAAAAAAAAAAAAAAAAA==
> <PUBCHEM_IUPAC_OPENEYE_NAME>
(3aS,6S,6aR)-4-(cyclopropanecarbonyl)-1-[(2S)-1-(4-isopropylphenyl)sulfonylpyrrolidine-2-carbonyl]-6-methyl-3,3a,6,6a-tetrahydro-2H-pyrrolo[3,2-b]pyrrol-5-one
> <PUBCHEM_IUPAC_CAS_NAME>
(3aS,6S,6aR)-4-[cyclopropyl(oxo)methyl]-6-methyl-1-[oxo-[(2S)-1-(4-propan-2-ylphenyl)sulfonyl-2-pyrrolidinyl]methyl]-3,3a,6,6a-tetrahydro-2H-pyrrolo[3,2-b]pyrrol-5-one
> <PUBCHEM_IUPAC_NAME_MARKUP>
(3<I>a</I><I>S</I>,6<I>S</I>,6<I>a</I><I>R</I>)-4-(cyclopropanecarbonyl)-6-methyl-1-[(2<I>S</I>)-1-(4-propan-2-ylphenyl)sulfonylpyrrolidine-2-carbonyl]-3,3<I>a</I>,6,6<I>a</I>-tetrahydro-2<I>H</I>-pyrrolo[3,2-b]pyrrol-5-one
> <PUBCHEM_IUPAC_NAME>
(3aS,6S,6aR)-4-(cyclopropanecarbonyl)-6-methyl-1-[(2S)-1-(4-propan-2-ylphenyl)sulfonylpyrrolidine-2-carbonyl]-3,3a,6,6a-tetrahydro-2H-pyrrolo[3,2-b]pyrrol-5-one
> <PUBCHEM_IUPAC_SYSTEMATIC_NAME>
(3aS,6S,6aR)-4-cyclopropylcarbonyl-6-methyl-1-[(2S)-1-(4-propan-2-ylphenyl)sulfonylpyrrolidin-2-yl]carbonyl-3,3a,6,6a-tetrahydro-2H-pyrrolo[3,2-b]pyrrol-5-one
> <PUBCHEM_IUPAC_TRADITIONAL_NAME>
(3aS,6S,6aR)-4-(cyclopropanecarbonyl)-6-methyl-1-[(2S)-1-p-cumenylsulfonylprolyl]-3,3a,6,6a-tetrahydro-2H-pyrrolo[3,2-b]pyrrol-5-one
> <PUBCHEM_IUPAC_INCHI>
InChI=1S/C25H33N3O5S/c1-15(2)17-8-10-19(11-9-17)34(32,33)27-13-4-5-21(27)25(31)26-14-12-20-22(26)16(3)23(29)28(20)24(30)18-6-7-18/h8-11,15-16,18,20-22H,4-7,12-14H2,1-3H3/t16-,20-,21-,22+/m0/s1
> <PUBCHEM_IUPAC_INCHIKEY>
GXMSRBAIJDKESQ-IRNNPGBSSA-N
> <PUBCHEM_XLOGP3_AA>
2.5
> <PUBCHEM_EXACT_MASS>
487.21409234
> <PUBCHEM_MOLECULAR_FORMULA>
C25H33N3O5S
> <PUBCHEM_MOLECULAR_WEIGHT>
487.6
> <PUBCHEM_OPENEYE_CAN_SMILES>
CC1C2C(CCN2C(=O)C3CCCN3S(=O)(=O)C4=CC=C(C=C4)C(C)C)N(C1=O)C(=O)C5CC5
> <PUBCHEM_OPENEYE_ISO_SMILES>
C[C@H]1[C@@H]2[C@H](CCN2C(=O)[C@@H]3CCCN3S(=O)(=O)C4=CC=C(C=C4)C(C)C)N(C1=O)C(=O)C5CC5
> <PUBCHEM_CACTVS_TPSA>
103
> <PUBCHEM_MONOISOTOPIC_WEIGHT>
487.21409234
> <PUBCHEM_TOTAL_CHARGE>
0
> <PUBCHEM_HEAVY_ATOM_COUNT>
34
> <PUBCHEM_ATOM_DEF_STEREO_COUNT>
4
> <PUBCHEM_ATOM_UDEF_STEREO_COUNT>
0
> <PUBCHEM_BOND_DEF_STEREO_COUNT>
0
> <PUBCHEM_BOND_UDEF_STEREO_COUNT>
0
> <PUBCHEM_ISOTOPIC_ATOM_COUNT>
0
> <PUBCHEM_COMPONENT_COUNT>
1
> <PUBCHEM_CACTVS_TAUTO_COUNT>
-1
> <PUBCHEM_COORDINATE_TYPE>
1
5
255
> <PUBCHEM_BONDANNOTATIONS>
10  35  6
11  36  5
12  22  5
21  20  5
26  27  8
26  28  8
27  29  8
28  30  8
29  31  8
30  31  8
$$$$
