511089
  -OEChem-10302200282D
 63 68  0     1  0  0  0  0  0999 V2000
    6.6249   -3.0585    0.0000 O   0  0  0  0  0  0  0  0  0  0  0  0
    3.6843   -4.2473    0.0000 O   0  0  0  0  0  0  0  0  0  0  0  0
    5.1724    0.6726    0.0000 O   0  0  0  0  0  0  0  0  0  0  0  0
    5.3147    2.0273    0.0000 O   0  0  0  0  0  0  0  0  0  0  0  0
    4.0134   -0.6145    0.0000 N   0  0  0  0  0  0  0  0  0  0  0  0
    4.8455   -2.9622    0.0000 N   0  0  0  0  0  0  0  0  0  0  0  0
    3.5827    2.0273    0.0000 N   0  0  0  0  0  0  0  0  0  0  0  0
    4.6792   -1.3527    0.0000 C   0  0  1  0  0  0  0  0  0  0  0  0
    4.1777   -2.2178    0.0000 C   0  0  2  0  0  0  0  0  0  0  0  0
    5.6570   -1.5623    0.0000 C   0  0  1  0  0  0  0  0  0  0  0  0
    3.2062   -2.0070    0.0000 C   0  0  0  0  0  0  0  0  0  0  0  0
    3.1049   -1.0181    0.0000 C   0  0  0  0  0  0  0  0  0  0  0  0
    5.3779   -4.6104    0.0000 C   0  0  0  0  0  0  0  0  0  0  0  0
    5.7598   -2.5570    0.0000 C   0  0  0  0  0  0  0  0  0  0  0  0
    4.6359   -3.9399    0.0000 C   0  0  0  0  0  0  0  0  0  0  0  0
    5.6853   -5.5619    0.0000 C   0  0  0  0  0  0  0  0  0  0  0  0
    6.3557   -4.8200    0.0000 C   0  0  0  0  0  0  0  0  0  0  0  0
    4.2213    0.3636    0.0000 C   0  0  0  0  0  0  0  0  0  0  0  0
    6.4013   -0.8944    0.0000 C   0  0  0  0  0  0  0  0  0  0  0  0
    3.4782    1.0328    0.0000 C   0  0  2  0  0  0  0  0  0  0  0  0
    2.5000    0.8248    0.0000 C   0  0  0  0  0  0  0  0  0  0  0  0
    2.0000    1.6909    0.0000 C   0  0  0  0  0  0  0  0  0  0  0  0
    2.6691    2.4340    0.0000 C   0  0  0  0  0  0  0  0  0  0  0  0
    4.4487    2.5273    0.0000 C   0  0  0  0  0  0  0  0  0  0  0  0
    4.4487    3.5273    0.0000 C   0  0  0  0  0  0  0  0  0  0  0  0
    5.3147    4.0273    0.0000 C   0  0  0  0  0  0  0  0  0  0  0  0
    3.5827    4.0273    0.0000 C   0  0  0  0  0  0  0  0  0  0  0  0
    5.3147    5.0273    0.0000 C   0  0  0  0  0  0  0  0  0  0  0  0
    3.5827    5.0273    0.0000 C   0  0  0  0  0  0  0  0  0  0  0  0
    6.2087    3.4926    0.0000 C   0  0  0  0  0  0  0  0  0  0  0  0
    4.4487    5.5273    0.0000 C   0  0  0  0  0  0  0  0  0  0  0  0
    6.2087    5.5619    0.0000 C   0  0  0  0  0  0  0  0  0  0  0  0
    7.1147    4.0065    0.0000 C   0  0  0  0  0  0  0  0  0  0  0  0
    7.1147    5.0481    0.0000 C   0  0  0  0  0  0  0  0  0  0  0  0
    5.1045   -0.6168    0.0000 H   0  0  0  0  0  0  0  0  0  0  0  0
    3.7505   -2.9527    0.0000 H   0  0  0  0  0  0  0  0  0  0  0  0
    5.4975   -0.9631    0.0000 H   0  0  0  0  0  0  0  0  0  0  0  0
    2.5862   -2.0050    0.0000 H   0  0  0  0  0  0  0  0  0  0  0  0
    3.1391   -2.6233    0.0000 H   0  0  0  0  0  0  0  0  0  0  0  0
    2.9141   -0.4281    0.0000 H   0  0  0  0  0  0  0  0  0  0  0  0
    2.4982   -1.1457    0.0000 H   0  0  0  0  0  0  0  0  0  0  0  0
    4.8574   -4.9471    0.0000 H   0  0  0  0  0  0  0  0  0  0  0  0
    5.1374   -5.8521    0.0000 H   0  0  0  0  0  0  0  0  0  0  0  0
    6.0662   -6.0512    0.0000 H   0  0  0  0  0  0  0  0  0  0  0  0
    6.8809   -5.1494    0.0000 H   0  0  0  0  0  0  0  0  0  0  0  0
    6.5890   -4.2455    0.0000 H   0  0  0  0  0  0  0  0  0  0  0  0
    6.8153   -1.3559    0.0000 H   0  0  0  0  0  0  0  0  0  0  0  0
    6.8627   -0.4804    0.0000 H   0  0  0  0  0  0  0  0  0  0  0  0
    5.9872   -0.4330    0.0000 H   0  0  0  0  0  0  0  0  0  0  0  0
    4.0570    1.2550    0.0000 H   0  0  0  0  0  0  0  0  0  0  0  0
    1.9336    0.5727    0.0000 H   0  0  0  0  0  0  0  0  0  0  0  0
    2.6916    0.2352    0.0000 H   0  0  0  0  0  0  0  0  0  0  0  0
    1.5851    2.1516    0.0000 H   0  0  0  0  0  0  0  0  0  0  0  0
    1.4984    1.3264    0.0000 H   0  0  0  0  0  0  0  0  0  0  0  0
    2.9791    2.9710    0.0000 H   0  0  0  0  0  0  0  0  0  0  0  0
    2.1675    2.7984    0.0000 H   0  0  0  0  0  0  0  0  0  0  0  0
    3.0457    3.7173    0.0000 H   0  0  0  0  0  0  0  0  0  0  0  0
    3.0457    5.3373    0.0000 H   0  0  0  0  0  0  0  0  0  0  0  0
    6.2015    2.8727    0.0000 H   0  0  0  0  0  0  0  0  0  0  0  0
    4.4487    6.1473    0.0000 H   0  0  0  0  0  0  0  0  0  0  0  0
    6.2015    6.1819    0.0000 H   0  0  0  0  0  0  0  0  0  0  0  0
    7.6505    3.6944    0.0000 H   0  0  0  0  0  0  0  0  0  0  0  0
    7.6505    5.3602    0.0000 H   0  0  0  0  0  0  0  0  0  0  0  0
  1 14  2  0  0  0  0
  2 15  2  0  0  0  0
  3 18  2  0  0  0  0
  4 24  2  0  0  0  0
  5  8  1  0  0  0  0
  5 12  1  0  0  0  0
  5 18  1  0  0  0  0
  6  9  1  0  0  0  0
  6 14  1  0  0  0  0
  6 15  1  0  0  0  0
  7 20  1  0  0  0  0
  7 23  1  0  0  0  0
  7 24  1  0  0  0  0
  8  9  1  0  0  0  0
  8 10  1  0  0  0  0
  8 35  1  1  0  0  0
  9 11  1  0  0  0  0
  9 36  1  6  0  0  0
 10 14  1  0  0  0  0
 10 19  1  6  0  0  0
 10 37  1  0  0  0  0
 11 12  1  0  0  0  0
 11 38  1  0  0  0  0
 11 39  1  0  0  0  0
 12 40  1  0  0  0  0
 12 41  1  0  0  0  0
 13 15  1  0  0  0  0
 13 16  1  0  0  0  0
 13 17  1  0  0  0  0
 13 42  1  0  0  0  0
 16 17  1  0  0  0  0
 16 43  1  0  0  0  0
 16 44  1  0  0  0  0
 17 45  1  0  0  0  0
 17 46  1  0  0  0  0
 20 18  1  6  0  0  0
 19 47  1  0  0  0  0
 19 48  1  0  0  0  0
 19 49  1  0  0  0  0
 20 21  1  0  0  0  0
 20 50  1  0  0  0  0
 21 22  1  0  0  0  0
 21 51  1  0  0  0  0
 21 52  1  0  0  0  0
 22 23  1  0  0  0  0
 22 53  1  0  0  0  0
 22 54  1  0  0  0  0
 23 55  1  0  0  0  0
 23 56  1  0  0  0  0
 24 25  1  0  0  0  0
 25 26  1  0  0  0  0
 25 27  2  0  0  0  0
 26 28  1  0  0  0  0
 26 30  2  0  0  0  0
 27 29  1  0  0  0  0
 27 57  1  0  0  0  0
 28 31  1  0  0  0  0
 28 32  2  0  0  0  0
 29 31  2  0  0  0  0
 29 58  1  0  0  0  0
 30 33  1  0  0  0  0
 30 59  1  0  0  0  0
 31 60  1  0  0  0  0
 32 34  1  0  0  0  0
 32 61  1  0  0  0  0
 33 34  2  0  0  0  0
 33 62  1  0  0  0  0
 34 63  1  0  0  0  0
M  END
> <PUBCHEM_COMPOUND_CID>
511089
> <PUBCHEM_COMPOUND_CANONICALIZED>
1
> <PUBCHEM_CACTVS_COMPLEXITY>
885
> <PUBCHEM_CACTVS_HBOND_ACCEPTOR>
4
> <PUBCHEM_CACTVS_HBOND_DONOR>
0
> <PUBCHEM_CACTVS_ROTATABLE_BOND>
3
> <PUBCHEM_CACTVS_SUBSKEYS>
AAADceB7OAAAAAAAAAAAAAAAGAAAAWLFgAAwYAAAAAAWAADBUAAAHgAAAAAADSjBmAQyAMMAAACIAiFSEACCAAAkAAAIiAGIBMgIYDqA1TGUIQhghiCIiYccicCOgAACAAAQAAAAAAQAACAAAAAAAAAAAA==
> <PUBCHEM_IUPAC_OPENEYE_NAME>
(3aS,6S,6aR)-4-(cyclopropanecarbonyl)-6-methyl-1-[(2S)-1-(naphthalene-1-carbonyl)pyrrolidine-2-carbonyl]-3,3a,6,6a-tetrahydro-2H-pyrrolo[3,2-b]pyrrol-5-one
> <PUBCHEM_IUPAC_CAS_NAME>
(3aS,6S,6aR)-4-[cyclopropyl(oxo)methyl]-6-methyl-1-[[(2S)-1-[1-naphthalenyl(oxo)methyl]-2-pyrrolidinyl]-oxomethyl]-3,3a,6,6a-tetrahydro-2H-pyrrolo[3,2-b]pyrrol-5-one
> <PUBCHEM_IUPAC_NAME_MARKUP>
(3<I>a</I><I>S</I>,6<I>S</I>,6<I>a</I><I>R</I>)-4-(cyclopropanecarbonyl)-6-methyl-1-[(2<I>S</I>)-1-(naphthalene-1-carbonyl)pyrrolidine-2-carbonyl]-3,3<I>a</I>,6,6<I>a</I>-tetrahydro-2<I>H</I>-pyrrolo[3,2-b]pyrrol-5-one
> <PUBCHEM_IUPAC_NAME>
(3aS,6S,6aR)-4-(cyclopropanecarbonyl)-6-methyl-1-[(2S)-1-(naphthalene-1-carbonyl)pyrrolidine-2-carbonyl]-3,3a,6,6a-tetrahydro-2H-pyrrolo[3,2-b]pyrrol-5-one
> <PUBCHEM_IUPAC_SYSTEMATIC_NAME>
(3aS,6S,6aR)-4-cyclopropylcarbonyl-6-methyl-1-[(2S)-1-naphthalen-1-ylcarbonylpyrrolidin-2-yl]carbonyl-3,3a,6,6a-tetrahydro-2H-pyrrolo[3,2-b]pyrrol-5-one
> <PUBCHEM_IUPAC_TRADITIONAL_NAME>
(3aS,6S,6aR)-4-(cyclopropanecarbonyl)-6-methyl-1-[(2S)-1-(1-naphthoyl)prolyl]-3,3a,6,6a-tetrahydro-2H-pyrrolo[3,2-b]pyrrol-5-one
> <PUBCHEM_IUPAC_INCHI>
InChI=1S/C27H29N3O4/c1-16-23-21(30(24(16)31)25(32)18-11-12-18)13-15-29(23)27(34)22-10-5-14-28(22)26(33)20-9-4-7-17-6-2-3-8-19(17)20/h2-4,6-9,16,18,21-23H,5,10-15H2,1H3/t16-,21-,22-,23+/m0/s1
> <PUBCHEM_IUPAC_INCHIKEY>
KDXGRHMVARRQKE-YMPRXVIZSA-N
> <PUBCHEM_XLOGP3_AA>
3
> <PUBCHEM_EXACT_MASS>
459.21580641
> <PUBCHEM_MOLECULAR_FORMULA>
C27H29N3O4
> <PUBCHEM_MOLECULAR_WEIGHT>
459.5
> <PUBCHEM_OPENEYE_CAN_SMILES>
CC1C2C(CCN2C(=O)C3CCCN3C(=O)C4=CC=CC5=CC=CC=C54)N(C1=O)C(=O)C6CC6
> <PUBCHEM_OPENEYE_ISO_SMILES>
C[C@H]1[C@@H]2[C@H](CCN2C(=O)[C@@H]3CCCN3C(=O)C4=CC=CC5=CC=CC=C54)N(C1=O)C(=O)C6CC6
> <PUBCHEM_CACTVS_TPSA>
78
> <PUBCHEM_MONOISOTOPIC_WEIGHT>
459.21580641
> <PUBCHEM_TOTAL_CHARGE>
0
> <PUBCHEM_HEAVY_ATOM_COUNT>
34
> <PUBCHEM_ATOM_DEF_STEREO_COUNT>
4
> <PUBCHEM_ATOM_UDEF_STEREO_COUNT>
0
> <PUBCHEM_BOND_DEF_STEREO_COUNT>
0
> <PUBCHEM_BOND_UDEF_STEREO_COUNT>
0
> <PUBCHEM_ISOTOPIC_ATOM_COUNT>
0
> <PUBCHEM_COMPONENT_COUNT>
1
> <PUBCHEM_CACTVS_TAUTO_COUNT>
-1
> <PUBCHEM_COORDINATE_TYPE>
1
5
255
> <PUBCHEM_BONDANNOTATIONS>
10  19  6
20  18  6
25  26  8
25  27  8
26  28  8
26  30  8
27  29  8
28  31  8
28  32  8
29  31  8
30  33  8
32  34  8
33  34  8
8  35  5
9  36  6
$$$$
