511094
  -OEChem-10302200282D
 69 73  0     1  0  0  0  0  0999 V2000
    2.6504   -3.5844    0.0000 O   0  0  0  0  0  0  0  0  0  0  0  0
    4.5983   -6.0876    0.0000 O   0  0  0  0  0  0  0  0  0  0  0  0
    5.7783   -1.0849    0.0000 O   0  0  0  0  0  0  0  0  0  0  0  0
    6.3345    0.1585    0.0000 O   0  0  0  0  0  0  0  0  0  0  0  0
    5.8420    4.4895    0.0000 O   0  0  0  0  0  0  0  0  0  0  0  0
    6.1355   -2.7797    0.0000 N   0  0  0  0  0  0  0  0  0  0  0  0
    4.2382   -4.3934    0.0000 N   0  0  0  0  0  0  0  0  0  0  0  0
    7.8330   -0.7101    0.0000 N   0  0  0  0  0  0  0  0  0  0  0  0
    7.8360    1.0219    0.0000 N   0  0  0  0  0  0  0  0  0  0  0  0
    5.1893   -3.0844    0.0000 C   0  0  1  0  0  0  0  0  0  0  0  0
    5.1893   -4.0844    0.0000 C   0  0  2  0  0  0  0  0  0  0  0  0
    4.2382   -2.7754    0.0000 C   0  0  1  0  0  0  0  0  0  0  0  0
    6.1355   -4.3892    0.0000 C   0  0  0  0  0  0  0  0  0  0  0  0
    6.7191   -3.5844    0.0000 C   0  0  0  0  0  0  0  0  0  0  0  0
    2.9511   -5.5524    0.0000 C   0  0  0  0  0  0  0  0  0  0  0  0
    3.6504   -3.5844    0.0000 C   0  0  0  0  0  0  0  0  0  0  0  0
    3.9292   -5.3445    0.0000 C   0  0  0  0  0  0  0  0  0  0  0  0
    2.0000   -5.2434    0.0000 C   0  0  0  0  0  0  0  0  0  0  0  0
    2.2079   -6.2215    0.0000 C   0  0  0  0  0  0  0  0  0  0  0  0
    6.4462   -1.8292    0.0000 C   0  0  0  0  0  0  0  0  0  0  0  0
    3.9292   -1.8244    0.0000 C   0  0  0  0  0  0  0  0  0  0  0  0
    7.4247   -1.6229    0.0000 C   0  0  2  0  0  0  0  0  0  0  0  0
    8.1666   -2.2934    0.0000 C   0  0  0  0  0  0  0  0  0  0  0  0
    9.0335   -1.7949    0.0000 C   0  0  0  0  0  0  0  0  0  0  0  0
    8.8273   -0.8164    0.0000 C   0  0  0  0  0  0  0  0  0  0  0  0
    7.3345    0.1568    0.0000 C   0  0  0  0  0  0  0  0  0  0  0  0
    7.3375    1.8888    0.0000 C   0  0  0  0  0  0  0  0  0  0  0  0
    6.3375    1.8906    0.0000 C   0  0  0  0  0  0  0  0  0  0  0  0
    7.8390    2.7540    0.0000 C   0  0  0  0  0  0  0  0  0  0  0  0
    5.8390    2.7574    0.0000 C   0  0  0  0  0  0  0  0  0  0  0  0
    7.3405    3.6209    0.0000 C   0  0  0  0  0  0  0  0  0  0  0  0
    6.3405    3.6226    0.0000 C   0  0  0  0  0  0  0  0  0  0  0  0
    6.3435    5.3546    0.0000 C   0  0  0  0  0  0  0  0  0  0  0  0
    5.8450    6.2215    0.0000 C   0  0  0  0  0  0  0  0  0  0  0  0
    7.3435    5.3529    0.0000 C   0  0  0  0  0  0  0  0  0  0  0  0
    5.1904   -2.2344    0.0000 H   0  0  0  0  0  0  0  0  0  0  0  0
    5.1904   -4.9344    0.0000 H   0  0  0  0  0  0  0  0  0  0  0  0
    3.6258   -2.6784    0.0000 H   0  0  0  0  0  0  0  0  0  0  0  0
    5.8845   -4.9561    0.0000 H   0  0  0  0  0  0  0  0  0  0  0  0
    6.6729   -4.6984    0.0000 H   0  0  0  0  0  0  0  0  0  0  0  0
    7.1800   -3.9992    0.0000 H   0  0  0  0  0  0  0  0  0  0  0  0
    7.1800   -3.1697    0.0000 H   0  0  0  0  0  0  0  0  0  0  0  0
    3.2325   -6.1048    0.0000 H   0  0  0  0  0  0  0  0  0  0  0  0
    2.0863   -4.6294    0.0000 H   0  0  0  0  0  0  0  0  0  0  0  0
    1.3804   -5.2650    0.0000 H   0  0  0  0  0  0  0  0  0  0  0  0
    1.6331   -6.4538    0.0000 H   0  0  0  0  0  0  0  0  0  0  0  0
    2.5365   -6.7473    0.0000 H   0  0  0  0  0  0  0  0  0  0  0  0
    4.5189   -1.6328    0.0000 H   0  0  0  0  0  0  0  0  0  0  0  0
    3.7376   -1.2347    0.0000 H   0  0  0  0  0  0  0  0  0  0  0  0
    3.3396   -2.0159    0.0000 H   0  0  0  0  0  0  0  0  0  0  0  0
    7.0353   -1.1404    0.0000 H   0  0  0  0  0  0  0  0  0  0  0  0
    7.7052   -2.7074    0.0000 H   0  0  0  0  0  0  0  0  0  0  0  0
    8.5302   -2.7956    0.0000 H   0  0  0  0  0  0  0  0  0  0  0  0
    9.2847   -2.3617    0.0000 H   0  0  0  0  0  0  0  0  0  0  0  0
    9.6235   -1.6043    0.0000 H   0  0  0  0  0  0  0  0  0  0  0  0
    9.4440   -0.7526    0.0000 H   0  0  0  0  0  0  0  0  0  0  0  0
    8.8284   -0.1964    0.0000 H   0  0  0  0  0  0  0  0  0  0  0  0
    8.4560    1.0209    0.0000 H   0  0  0  0  0  0  0  0  0  0  0  0
    6.0266    1.3542    0.0000 H   0  0  0  0  0  0  0  0  0  0  0  0
    8.4590    2.7529    0.0000 H   0  0  0  0  0  0  0  0  0  0  0  0
    5.2190    2.7585    0.0000 H   0  0  0  0  0  0  0  0  0  0  0  0
    7.6514    4.1573    0.0000 H   0  0  0  0  0  0  0  0  0  0  0  0
    6.6526    4.8172    0.0000 H   0  0  0  0  0  0  0  0  0  0  0  0
    6.3825    6.5306    0.0000 H   0  0  0  0  0  0  0  0  0  0  0  0
    5.5359    6.7590    0.0000 H   0  0  0  0  0  0  0  0  0  0  0  0
    5.3075    5.9125    0.0000 H   0  0  0  0  0  0  0  0  0  0  0  0
    7.3424    4.7329    0.0000 H   0  0  0  0  0  0  0  0  0  0  0  0
    7.9635    5.3518    0.0000 H   0  0  0  0  0  0  0  0  0  0  0  0
    7.3446    5.9729    0.0000 H   0  0  0  0  0  0  0  0  0  0  0  0
  1 16  2  0  0  0  0
  2 17  2  0  0  0  0
  3 20  2  0  0  0  0
  4 26  2  0  0  0  0
  5 32  1  0  0  0  0
  5 33  1  0  0  0  0
  6 10  1  0  0  0  0
  6 14  1  0  0  0  0
  6 20  1  0  0  0  0
  7 11  1  0  0  0  0
  7 16  1  0  0  0  0
  7 17  1  0  0  0  0
  8 22  1  0  0  0  0
  8 25  1  0  0  0  0
  8 26  1  0  0  0  0
  9 26  1  0  0  0  0
  9 27  1  0  0  0  0
  9 58  1  0  0  0  0
 10 11  1  0  0  0  0
 10 12  1  0  0  0  0
 10 36  1  6  0  0  0
 11 13  1  0  0  0  0
 11 37  1  1  0  0  0
 12 16  1  0  0  0  0
 12 21  1  1  0  0  0
 12 38  1  0  0  0  0
 13 14  1  0  0  0  0
 13 39  1  0  0  0  0
 13 40  1  0  0  0  0
 14 41  1  0  0  0  0
 14 42  1  0  0  0  0
 15 17  1  0  0  0  0
 15 18  1  0  0  0  0
 15 19  1  0  0  0  0
 15 43  1  0  0  0  0
 18 19  1  0  0  0  0
 18 44  1  0  0  0  0
 18 45  1  0  0  0  0
 19 46  1  0  0  0  0
 19 47  1  0  0  0  0
 22 20  1  1  0  0  0
 21 48  1  0  0  0  0
 21 49  1  0  0  0  0
 21 50  1  0  0  0  0
 22 23  1  0  0  0  0
 22 51  1  0  0  0  0
 23 24  1  0  0  0  0
 23 52  1  0  0  0  0
 23 53  1  0  0  0  0
 24 25  1  0  0  0  0
 24 54  1  0  0  0  0
 24 55  1  0  0  0  0
 25 56  1  0  0  0  0
 25 57  1  0  0  0  0
 27 28  2  0  0  0  0
 27 29  1  0  0  0  0
 28 30  1  0  0  0  0
 28 59  1  0  0  0  0
 29 31  2  0  0  0  0
 29 60  1  0  0  0  0
 30 32  2  0  0  0  0
 30 61  1  0  0  0  0
 31 32  1  0  0  0  0
 31 62  1  0  0  0  0
 33 34  1  0  0  0  0
 33 35  1  0  0  0  0
 33 63  1  0  0  0  0
 34 64  1  0  0  0  0
 34 65  1  0  0  0  0
 34 66  1  0  0  0  0
 35 67  1  0  0  0  0
 35 68  1  0  0  0  0
 35 69  1  0  0  0  0
M  END
> <PUBCHEM_COMPOUND_CID>
511094
> <PUBCHEM_COMPOUND_CANONICALIZED>
1
> <PUBCHEM_CACTVS_COMPLEXITY>
866
> <PUBCHEM_CACTVS_HBOND_ACCEPTOR>
5
> <PUBCHEM_CACTVS_HBOND_DONOR>
1
> <PUBCHEM_CACTVS_ROTATABLE_BOND>
5
> <PUBCHEM_CACTVS_SUBSKEYS>
AAADcfB7uAAAAAAAAAAAAAAAGAAAAWLFgAAwAAAAAAAWAAABAAAAHgAQAAAADTzhkAYzxoPABACIACVSUACCCAAhIgAIiAGObIiMZjrE8buWOCjs1jPI6Ce8SQAMAEAAAAAAAAAAgAAAAAAAAAAAAAAAAA==
> <PUBCHEM_IUPAC_OPENEYE_NAME>
(2S)-2-[(3aS,6S,6aR)-4-(cyclopropanecarbonyl)-6-methyl-5-oxo-3,3a,6,6a-tetrahydro-2H-pyrrolo[3,2-b]pyrrole-1-carbonyl]-N-(4-isopropoxyphenyl)pyrrolidine-1-carboxamide
> <PUBCHEM_IUPAC_CAS_NAME>
(2S)-2-[[(3aS,6S,6aR)-4-[cyclopropyl(oxo)methyl]-6-methyl-5-oxo-3,3a,6,6a-tetrahydro-2H-pyrrolo[3,2-b]pyrrol-1-yl]-oxomethyl]-N-(4-propan-2-yloxyphenyl)-1-pyrrolidinecarboxamide
> <PUBCHEM_IUPAC_NAME_MARKUP>
(2<I>S</I>)-2-[(3<I>a</I><I>S</I>,6<I>S</I>,6<I>a</I><I>R</I>)-4-(cyclopropanecarbonyl)-6-methyl-5-oxo-3,3<I>a</I>,6,6<I>a</I>-tetrahydro-2<I>H</I>-pyrrolo[3,2-b]pyrrole-1-carbonyl]-<I>N</I>-(4-propan-2-yloxyphenyl)pyrrolidine-1-carboxamide
> <PUBCHEM_IUPAC_NAME>
(2S)-2-[(3aS,6S,6aR)-4-(cyclopropanecarbonyl)-6-methyl-5-oxo-3,3a,6,6a-tetrahydro-2H-pyrrolo[3,2-b]pyrrole-1-carbonyl]-N-(4-propan-2-yloxyphenyl)pyrrolidine-1-carboxamide
> <PUBCHEM_IUPAC_SYSTEMATIC_NAME>
(2S)-2-[[(3aS,6S,6aR)-4-cyclopropylcarbonyl-6-methyl-5-oxidanylidene-3,3a,6,6a-tetrahydro-2H-pyrrolo[3,2-b]pyrrol-1-yl]carbonyl]-N-(4-propan-2-yloxyphenyl)pyrrolidine-1-carboxamide
> <PUBCHEM_IUPAC_TRADITIONAL_NAME>
(2S)-2-[(3aS,6S,6aR)-4-(cyclopropanecarbonyl)-5-keto-6-methyl-3,3a,6,6a-tetrahydro-2H-pyrrolo[3,2-b]pyrrole-1-carbonyl]-N-(4-isopropoxyphenyl)pyrrolidine-1-carboxamide
> <PUBCHEM_IUPAC_INCHI>
InChI=1S/C26H34N4O5/c1-15(2)35-19-10-8-18(9-11-19)27-26(34)28-13-4-5-21(28)25(33)29-14-12-20-22(29)16(3)23(31)30(20)24(32)17-6-7-17/h8-11,15-17,20-22H,4-7,12-14H2,1-3H3,(H,27,34)/t16-,20-,21-,22+/m0/s1
> <PUBCHEM_IUPAC_INCHIKEY>
GBHJBOUYQXDQJT-IRNNPGBSSA-N
> <PUBCHEM_XLOGP3_AA>
2.2
> <PUBCHEM_EXACT_MASS>
482.25292020
> <PUBCHEM_MOLECULAR_FORMULA>
C26H34N4O5
> <PUBCHEM_MOLECULAR_WEIGHT>
482.6
> <PUBCHEM_OPENEYE_CAN_SMILES>
CC1C2C(CCN2C(=O)C3CCCN3C(=O)NC4=CC=C(C=C4)OC(C)C)N(C1=O)C(=O)C5CC5
> <PUBCHEM_OPENEYE_ISO_SMILES>
C[C@H]1[C@@H]2[C@H](CCN2C(=O)[C@@H]3CCCN3C(=O)NC4=CC=C(C=C4)OC(C)C)N(C1=O)C(=O)C5CC5
> <PUBCHEM_CACTVS_TPSA>
99.3
> <PUBCHEM_MONOISOTOPIC_WEIGHT>
482.25292020
> <PUBCHEM_TOTAL_CHARGE>
0
> <PUBCHEM_HEAVY_ATOM_COUNT>
35
> <PUBCHEM_ATOM_DEF_STEREO_COUNT>
4
> <PUBCHEM_ATOM_UDEF_STEREO_COUNT>
0
> <PUBCHEM_BOND_DEF_STEREO_COUNT>
0
> <PUBCHEM_BOND_UDEF_STEREO_COUNT>
0
> <PUBCHEM_ISOTOPIC_ATOM_COUNT>
0
> <PUBCHEM_COMPONENT_COUNT>
1
> <PUBCHEM_CACTVS_TAUTO_COUNT>
-1
> <PUBCHEM_COORDINATE_TYPE>
1
5
255
> <PUBCHEM_BONDANNOTATIONS>
10  36  6
11  37  5
12  21  5
22  20  5
27  28  8
27  29  8
28  30  8
29  31  8
30  32  8
31  32  8
$$$$
