511021
  -OEChem-10302200282D
 56 58  0     1  0  0  0  0  0999 V2000
   10.8310    1.7594    0.0000 O   0  0  0  0  0  0  0  0  0  0  0  0
   13.1824    0.6793    0.0000 O   0  0  0  0  0  0  0  0  0  0  0  0
   13.1753    2.8548    0.0000 O   0  0  0  0  0  0  0  0  0  0  0  0
   10.1252    3.7251    0.0000 O   0  0  0  0  0  0  0  0  0  0  0  0
    9.6035    1.2864    0.0000 O   0  0  0  0  0  0  0  0  0  0  0  0
    9.6244   -2.9104    0.0000 O   0  0  0  0  0  0  0  0  0  0  0  0
   11.1155    0.0002    0.0000 N   0  0  0  0  0  0  0  0  0  0  0  0
   11.1235   -1.6092    0.0000 N   0  0  0  0  0  0  0  0  0  0  0  0
    8.4120    0.0830    0.0000 N   0  0  0  0  0  0  0  0  0  0  0  0
    6.9827   -0.8251    0.0000 N   0  0  0  0  0  0  0  0  0  0  0  0
    8.4210   -1.7189    0.0000 N   0  0  0  0  0  0  0  0  0  0  0  0
   12.3714    1.2644    0.0000 C   0  0  1  0  0  0  0  0  0  0  0  0
   11.4214    0.9523    0.0000 C   0  0  1  0  0  0  0  0  0  0  0  0
   12.3682    2.2644    0.0000 C   0  0  1  0  0  0  0  0  0  0  0  0
   11.4161    2.5703    0.0000 C   0  0  1  0  0  0  0  0  0  0  0  0
   11.1040    3.5204    0.0000 C   0  0  0  0  0  0  0  0  0  0  0  0
   10.1708   -0.3092    0.0000 C   0  0  0  0  0  0  0  0  0  0  0  0
   11.7031   -0.8016    0.0000 C   0  0  0  0  0  0  0  0  0  0  0  0
   10.1758   -1.3092    0.0000 C   0  0  0  0  0  0  0  0  0  0  0  0
    9.3858    0.3104    0.0000 C   0  0  0  0  0  0  0  0  0  0  0  0
    4.9913   -2.5671    0.0000 C   0  0  0  0  0  0  0  0  0  0  0  0
    9.3970   -1.9366    0.0000 C   0  0  0  0  0  0  0  0  0  0  0  0
    5.4870   -1.6986    0.0000 C   0  0  0  0  0  0  0  0  0  0  0  0
    3.9913   -2.5721    0.0000 C   0  0  0  0  0  0  0  0  0  0  0  0
    6.4870   -1.6936    0.0000 C   0  0  0  0  0  0  0  0  0  0  0  0
    7.9826   -0.8201    0.0000 C   0  0  0  0  0  0  0  0  0  0  0  0
    3.4957   -3.4406    0.0000 C   0  0  0  0  0  0  0  0  0  0  0  0
    2.4957   -3.4456    0.0000 C   0  0  0  0  0  0  0  0  0  0  0  0
    2.0000   -4.3141    0.0000 C   0  0  0  0  0  0  0  0  0  0  0  0
   12.2764    0.6517    0.0000 H   0  0  0  0  0  0  0  0  0  0  0  0
   11.8612    0.5153    0.0000 H   0  0  0  0  0  0  0  0  0  0  0  0
   12.9215    1.9847    0.0000 H   0  0  0  0  0  0  0  0  0  0  0  0
   10.8034    2.6653    0.0000 H   0  0  0  0  0  0  0  0  0  0  0  0
   11.7177    3.6086    0.0000 H   0  0  0  0  0  0  0  0  0  0  0  0
   11.1236    4.1400    0.0000 H   0  0  0  0  0  0  0  0  0  0  0  0
   13.7479    0.9333    0.0000 H   0  0  0  0  0  0  0  0  0  0  0  0
   13.1085    3.4712    0.0000 H   0  0  0  0  0  0  0  0  0  0  0  0
   12.3231   -0.7985    0.0000 H   0  0  0  0  0  0  0  0  0  0  0  0
    9.9317    4.3141    0.0000 H   0  0  0  0  0  0  0  0  0  0  0  0
    4.8867   -3.1782    0.0000 H   0  0  0  0  0  0  0  0  0  0  0  0
    5.5750   -2.7763    0.0000 H   0  0  0  0  0  0  0  0  0  0  0  0
    5.5916   -1.0875    0.0000 H   0  0  0  0  0  0  0  0  0  0  0  0
    4.9033   -1.4895    0.0000 H   0  0  0  0  0  0  0  0  0  0  0  0
    4.0960   -1.9610    0.0000 H   0  0  0  0  0  0  0  0  0  0  0  0
    3.4077   -2.3630    0.0000 H   0  0  0  0  0  0  0  0  0  0  0  0
    8.0231    0.5658    0.0000 H   0  0  0  0  0  0  0  0  0  0  0  0
    6.3824   -2.3047    0.0000 H   0  0  0  0  0  0  0  0  0  0  0  0
    7.0706   -1.9028    0.0000 H   0  0  0  0  0  0  0  0  0  0  0  0
    3.3910   -4.0517    0.0000 H   0  0  0  0  0  0  0  0  0  0  0  0
    4.0793   -3.6498    0.0000 H   0  0  0  0  0  0  0  0  0  0  0  0
    6.6700   -0.2897    0.0000 H   0  0  0  0  0  0  0  0  0  0  0  0
    2.6003   -2.8345    0.0000 H   0  0  0  0  0  0  0  0  0  0  0  0
    1.9120   -3.2365    0.0000 H   0  0  0  0  0  0  0  0  0  0  0  0
    1.4615   -4.0068    0.0000 H   0  0  0  0  0  0  0  0  0  0  0  0
    1.6927   -4.8526    0.0000 H   0  0  0  0  0  0  0  0  0  0  0  0
    2.5385   -4.6214    0.0000 H   0  0  0  0  0  0  0  0  0  0  0  0
  1 13  1  0  0  0  0
  1 15  1  0  0  0  0
 12  2  1  1  0  0  0
  2 36  1  0  0  0  0
 14  3  1  1  0  0  0
  3 37  1  0  0  0  0
  4 16  1  0  0  0  0
  4 39  1  0  0  0  0
  5 20  2  0  0  0  0
  6 22  2  0  0  0  0
 13  7  1  6  0  0  0
  7 17  1  0  0  0  0
  7 18  1  0  0  0  0
  8 18  2  0  0  0  0
  8 19  1  0  0  0  0
  9 20  1  0  0  0  0
  9 26  1  0  0  0  0
  9 46  1  0  0  0  0
 10 25  1  0  0  0  0
 10 26  1  0  0  0  0
 10 51  1  0  0  0  0
 11 22  1  0  0  0  0
 11 26  2  0  0  0  0
 12 13  1  0  0  0  0
 12 14  1  0  0  0  0
 12 30  1  0  0  0  0
 13 31  1  0  0  0  0
 14 15  1  0  0  0  0
 14 32  1  0  0  0  0
 15 16  1  6  0  0  0
 15 33  1  0  0  0  0
 16 34  1  0  0  0  0
 16 35  1  0  0  0  0
 17 19  2  0  0  0  0
 17 20  1  0  0  0  0
 18 38  1  0  0  0  0
 19 22  1  0  0  0  0
 21 23  1  0  0  0  0
 21 24  1  0  0  0  0
 21 40  1  0  0  0  0
 21 41  1  0  0  0  0
 23 25  1  0  0  0  0
 23 42  1  0  0  0  0
 23 43  1  0  0  0  0
 24 27  1  0  0  0  0
 24 44  1  0  0  0  0
 24 45  1  0  0  0  0
 25 47  1  0  0  0  0
 25 48  1  0  0  0  0
 27 28  1  0  0  0  0
 27 49  1  0  0  0  0
 27 50  1  0  0  0  0
 28 29  1  0  0  0  0
 28 52  1  0  0  0  0
 28 53  1  0  0  0  0
 29 54  1  0  0  0  0
 29 55  1  0  0  0  0
 29 56  1  0  0  0  0
M  END
> <PUBCHEM_COMPOUND_CID>
511021
> <PUBCHEM_COMPOUND_CANONICALIZED>
1
> <PUBCHEM_CACTVS_COMPLEXITY>
632
> <PUBCHEM_CACTVS_HBOND_ACCEPTOR>
7
> <PUBCHEM_CACTVS_HBOND_DONOR>
5
> <PUBCHEM_CACTVS_ROTATABLE_BOND>
9
> <PUBCHEM_CACTVS_SUBSKEYS>
AAADceB7uAAAAAAAAAAAAAAAAAAAAWJAAAAAAAAABAAAAACBgAAAHgAQCAAACBzhlgYHkBfMFgCoAQVxdACAgC0XEKABWIGoVECDWBpAyCAeQYhPEQLTAWH1sAIAAAAAAAAAAAAAAAAAAAAAAAAAAAAAAA==
> <PUBCHEM_IUPAC_OPENEYE_NAME>
1-[(2R,3R,4S,5R)-3,4-dihydroxy-5-(hydroxymethyl)tetrahydrofuran-2-yl]-6-(heptylamino)-7H-imidazo[4,5-e][1,3]diazepine-4,8-dione
> <PUBCHEM_IUPAC_CAS_NAME>
1-[(2R,3R,4S,5R)-3,4-dihydroxy-5-(hydroxymethyl)-2-oxolanyl]-6-(heptylamino)-7H-imidazo[4,5-e][1,3]diazepine-4,8-dione
> <PUBCHEM_IUPAC_NAME_MARKUP>
1-[(2<I>R</I>,3<I>R</I>,4<I>S</I>,5<I>R</I>)-3,4-dihydroxy-5-(hydroxymethyl)oxolan-2-yl]-6-(heptylamino)-7<I>H</I>-imidazo[4,5-e][1,3]diazepine-4,8-dione
> <PUBCHEM_IUPAC_NAME>
1-[(2R,3R,4S,5R)-3,4-dihydroxy-5-(hydroxymethyl)oxolan-2-yl]-6-(heptylamino)-7H-imidazo[4,5-e][1,3]diazepine-4,8-dione
> <PUBCHEM_IUPAC_SYSTEMATIC_NAME>
6-(heptylamino)-1-[(2R,3R,4S,5R)-5-(hydroxymethyl)-3,4-bis(oxidanyl)oxolan-2-yl]-7H-imidazo[4,5-e][1,3]diazepine-4,8-dione
> <PUBCHEM_IUPAC_TRADITIONAL_NAME>
1-[(2R,3R,4S,5R)-3,4-dihydroxy-5-methylol-tetrahydrofuran-2-yl]-6-(heptylamino)-7H-imidazo[4,5-e][1,3]diazepine-4,8-quinone
> <PUBCHEM_IUPAC_INCHI>
InChI=1S/C18H27N5O6/c1-2-3-4-5-6-7-19-18-21-15(27)11-12(16(28)22-18)23(9-20-11)17-14(26)13(25)10(8-24)29-17/h9-10,13-14,17,24-26H,2-8H2,1H3,(H2,19,21,22,27,28)/t10-,13-,14-,17-/m1/s1
> <PUBCHEM_IUPAC_INCHIKEY>
RHDKNMHVCUTZCM-IWCJZZDYSA-N
> <PUBCHEM_XLOGP3>
1.3
> <PUBCHEM_EXACT_MASS>
409.19613360
> <PUBCHEM_MOLECULAR_FORMULA>
C18H27N5O6
> <PUBCHEM_MOLECULAR_WEIGHT>
409.4
> <PUBCHEM_OPENEYE_CAN_SMILES>
CCCCCCCNC1=NC(=O)C2=C(C(=O)N1)N(C=N2)C3C(C(C(O3)CO)O)O
> <PUBCHEM_OPENEYE_ISO_SMILES>
CCCCCCCNC1=NC(=O)C2=C(C(=O)N1)N(C=N2)[C@H]3[C@@H]([C@@H]([C@H](O3)CO)O)O
> <PUBCHEM_CACTVS_TPSA>
158
> <PUBCHEM_MONOISOTOPIC_WEIGHT>
409.19613360
> <PUBCHEM_TOTAL_CHARGE>
0
> <PUBCHEM_HEAVY_ATOM_COUNT>
29
> <PUBCHEM_ATOM_DEF_STEREO_COUNT>
4
> <PUBCHEM_ATOM_UDEF_STEREO_COUNT>
0
> <PUBCHEM_BOND_DEF_STEREO_COUNT>
0
> <PUBCHEM_BOND_UDEF_STEREO_COUNT>
0
> <PUBCHEM_ISOTOPIC_ATOM_COUNT>
0
> <PUBCHEM_COMPONENT_COUNT>
1
> <PUBCHEM_CACTVS_TAUTO_COUNT>
-1
> <PUBCHEM_COORDINATE_TYPE>
1
5
255
> <PUBCHEM_BONDANNOTATIONS>
11  22  8
11  26  8
15  16  6
17  19  8
17  20  8
19  22  8
12  2  5
14  3  5
13  7  6
7  17  8
7  18  8
8  18  8
8  19  8
9  20  8
9  26  8
$$$$
