511058
  -OEChem-10302200282D
 82 86  0     1  0  0  0  0  0999 V2000
    4.6783   -0.9916    0.0000 S   0  0  0  0  0  0  0  0  0  0  0  0
   13.7619   -2.6623    0.0000 F   0  0  0  0  0  0  0  0  0  0  0  0
    8.4255   -3.7558    0.0000 O   0  0  0  0  0  0  0  0  0  0  0  0
    6.7619   -0.9303    0.0000 O   0  0  0  0  0  0  0  0  0  0  0  0
    7.7619   -0.9303    0.0000 O   0  0  0  0  0  0  0  0  0  0  0  0
    8.2619   -0.0642    0.0000 O   0  0  0  0  0  0  0  0  0  0  0  0
   10.7619    2.5338    0.0000 O   0  0  0  0  0  0  0  0  0  0  0  0
    8.0594    4.4825    0.0000 O   0  0  0  0  0  0  0  0  0  0  0  0
    7.9643   -5.4770    0.0000 N   0  0  0  0  0  0  0  0  0  0  0  0
    7.7619   -2.6623    0.0000 N   0  0  0  0  0  0  0  0  0  0  0  0
    9.7619   -0.9303    0.0000 N   0  0  0  0  0  0  0  0  0  0  0  0
    9.2619    1.6678    0.0000 N   0  0  0  0  0  0  0  0  0  0  0  0
    4.6783   -2.6010    0.0000 N   0  0  0  0  0  0  0  0  0  0  0  0
    8.2674    3.5044    0.0000 N   0  0  0  0  0  0  0  0  0  0  0  0
    6.7619   -4.3944    0.0000 C   0  0  1  0  0  0  0  0  0  0  0  0
    6.2619   -3.5284    0.0000 C   0  0  0  0  0  0  0  0  0  0  0  0
    6.3551   -5.3079    0.0000 C   0  0  0  0  0  0  0  0  0  0  0  0
    6.7619   -2.6623    0.0000 C   0  0  1  0  0  0  0  0  0  0  0  0
    7.0983   -5.9770    0.0000 C   0  0  0  0  0  0  0  0  0  0  0  0
    7.7564   -4.4989    0.0000 C   0  0  0  0  0  0  0  0  0  0  0  0
    6.2619   -1.7963    0.0000 C   0  0  0  0  0  0  0  0  0  0  0  0
    9.2619   -1.7963    0.0000 C   0  0  2  0  0  0  0  0  0  0  0  0
    8.2619   -1.7963    0.0000 C   0  0  0  0  0  0  0  0  0  0  0  0
    9.7619   -2.6623    0.0000 C   0  0  0  0  0  0  0  0  0  0  0  0
    9.7619    0.8018    0.0000 C   0  0  1  0  0  0  0  0  0  0  0  0
   10.7619    0.8018    0.0000 C   0  0  0  0  0  0  0  0  0  0  0  0
    5.2619   -1.7963    0.0000 C   0  0  0  0  0  0  0  0  0  0  0  0
    9.2619   -0.0642    0.0000 C   0  0  0  0  0  0  0  0  0  0  0  0
   10.7619   -2.6623    0.0000 C   0  0  0  0  0  0  0  0  0  0  0  0
   11.2619    1.6678    0.0000 C   0  0  0  0  0  0  0  0  0  0  0  0
   11.2619   -0.0642    0.0000 C   0  0  0  0  0  0  0  0  0  0  0  0
    3.7320   -1.2963    0.0000 C   0  0  0  0  0  0  0  0  0  0  0  0
    3.7320   -2.2963    0.0000 C   0  0  0  0  0  0  0  0  0  0  0  0
   11.2619   -3.5284    0.0000 C   0  0  0  0  0  0  0  0  0  0  0  0
   11.2619   -1.7963    0.0000 C   0  0  0  0  0  0  0  0  0  0  0  0
    9.7619    2.5338    0.0000 C   0  0  0  0  0  0  0  0  0  0  0  0
   12.2619   -3.5284    0.0000 C   0  0  0  0  0  0  0  0  0  0  0  0
   12.2619   -1.7963    0.0000 C   0  0  0  0  0  0  0  0  0  0  0  0
    2.8660   -0.7963    0.0000 C   0  0  0  0  0  0  0  0  0  0  0  0
    2.8660   -2.7963    0.0000 C   0  0  0  0  0  0  0  0  0  0  0  0
   12.7619   -2.6623    0.0000 C   0  0  0  0  0  0  0  0  0  0  0  0
    9.2619    3.3998    0.0000 C   0  0  0  0  0  0  0  0  0  0  0  0
    2.0000   -1.2963    0.0000 C   0  0  0  0  0  0  0  0  0  0  0  0
    2.0000   -2.2963    0.0000 C   0  0  0  0  0  0  0  0  0  0  0  0
    9.6686    4.3134    0.0000 C   0  0  0  0  0  0  0  0  0  0  0  0
    8.9255    4.9825    0.0000 C   0  0  0  0  0  0  0  0  0  0  0  0
    9.0300    5.9770    0.0000 C   0  0  0  0  0  0  0  0  0  0  0  0
    6.1427   -4.4268    0.0000 H   0  0  0  0  0  0  0  0  0  0  0  0
    5.7869   -3.1298    0.0000 H   0  0  0  0  0  0  0  0  0  0  0  0
    5.7869   -3.9269    0.0000 H   0  0  0  0  0  0  0  0  0  0  0  0
    5.8182   -4.9979    0.0000 H   0  0  0  0  0  0  0  0  0  0  0  0
    5.9907   -5.8095    0.0000 H   0  0  0  0  0  0  0  0  0  0  0  0
    7.0719   -2.1254    0.0000 H   0  0  0  0  0  0  0  0  0  0  0  0
    6.6375   -6.3919    0.0000 H   0  0  0  0  0  0  0  0  0  0  0  0
    7.4627   -6.4786    0.0000 H   0  0  0  0  0  0  0  0  0  0  0  0
    8.5307   -5.7292    0.0000 H   0  0  0  0  0  0  0  0  0  0  0  0
    8.0719   -3.1993    0.0000 H   0  0  0  0  0  0  0  0  0  0  0  0
    9.8819   -1.7963    0.0000 H   0  0  0  0  0  0  0  0  0  0  0  0
    9.1793   -2.8744    0.0000 H   0  0  0  0  0  0  0  0  0  0  0  0
    9.8695   -3.2729    0.0000 H   0  0  0  0  0  0  0  0  0  0  0  0
    9.1419    0.8018    0.0000 H   0  0  0  0  0  0  0  0  0  0  0  0
   11.3819    0.8018    0.0000 H   0  0  0  0  0  0  0  0  0  0  0  0
   10.3819   -0.9303    0.0000 H   0  0  0  0  0  0  0  0  0  0  0  0
   11.7988    1.3578    0.0000 H   0  0  0  0  0  0  0  0  0  0  0  0
   11.5719    2.2047    0.0000 H   0  0  0  0  0  0  0  0  0  0  0  0
   10.7249    1.9778    0.0000 H   0  0  0  0  0  0  0  0  0  0  0  0
   10.7249   -0.3742    0.0000 H   0  0  0  0  0  0  0  0  0  0  0  0
   11.5719   -0.6012    0.0000 H   0  0  0  0  0  0  0  0  0  0  0  0
   11.7988    0.2458    0.0000 H   0  0  0  0  0  0  0  0  0  0  0  0
    8.6419    1.6678    0.0000 H   0  0  0  0  0  0  0  0  0  0  0  0
   10.9519   -4.0653    0.0000 H   0  0  0  0  0  0  0  0  0  0  0  0
   10.9519   -1.2594    0.0000 H   0  0  0  0  0  0  0  0  0  0  0  0
   12.5719   -4.0653    0.0000 H   0  0  0  0  0  0  0  0  0  0  0  0
   12.5719   -1.2594    0.0000 H   0  0  0  0  0  0  0  0  0  0  0  0
    2.8660   -0.1763    0.0000 H   0  0  0  0  0  0  0  0  0  0  0  0
    2.8660   -3.4163    0.0000 H   0  0  0  0  0  0  0  0  0  0  0  0
    1.4631   -0.9863    0.0000 H   0  0  0  0  0  0  0  0  0  0  0  0
    1.4631   -2.6063    0.0000 H   0  0  0  0  0  0  0  0  0  0  0  0
   10.2751    4.4423    0.0000 H   0  0  0  0  0  0  0  0  0  0  0  0
    9.6466    5.9122    0.0000 H   0  0  0  0  0  0  0  0  0  0  0  0
    9.0948    6.5936    0.0000 H   0  0  0  0  0  0  0  0  0  0  0  0
    8.4134    6.0419    0.0000 H   0  0  0  0  0  0  0  0  0  0  0  0
  1 27  1  0  0  0  0
  1 32  1  0  0  0  0
  2 41  1  0  0  0  0
  3 20  2  0  0  0  0
  4 21  2  0  0  0  0
  5 23  2  0  0  0  0
  6 28  2  0  0  0  0
  7 36  2  0  0  0  0
  8 14  1  0  0  0  0
  8 46  1  0  0  0  0
  9 19  1  0  0  0  0
  9 20  1  0  0  0  0
  9 56  1  0  0  0  0
 18 10  1  1  0  0  0
 10 23  1  0  0  0  0
 10 57  1  0  0  0  0
 22 11  1  1  0  0  0
 11 28  1  0  0  0  0
 11 63  1  0  0  0  0
 25 12  1  1  0  0  0
 12 36  1  0  0  0  0
 12 70  1  0  0  0  0
 13 27  2  0  0  0  0
 13 33  1  0  0  0  0
 14 42  2  0  0  0  0
 15 16  1  6  0  0  0
 15 17  1  0  0  0  0
 15 20  1  0  0  0  0
 15 48  1  0  0  0  0
 16 18  1  0  0  0  0
 16 49  1  0  0  0  0
 16 50  1  0  0  0  0
 17 19  1  0  0  0  0
 17 51  1  0  0  0  0
 17 52  1  0  0  0  0
 18 21  1  0  0  0  0
 18 53  1  0  0  0  0
 19 54  1  0  0  0  0
 19 55  1  0  0  0  0
 21 27  1  0  0  0  0
 22 23  1  0  0  0  0
 22 24  1  0  0  0  0
 22 58  1  0  0  0  0
 24 29  1  0  0  0  0
 24 59  1  0  0  0  0
 24 60  1  0  0  0  0
 25 26  1  0  0  0  0
 25 28  1  0  0  0  0
 25 61  1  0  0  0  0
 26 30  1  0  0  0  0
 26 31  1  0  0  0  0
 26 62  1  0  0  0  0
 29 34  2  0  0  0  0
 29 35  1  0  0  0  0
 30 64  1  0  0  0  0
 30 65  1  0  0  0  0
 30 66  1  0  0  0  0
 31 67  1  0  0  0  0
 31 68  1  0  0  0  0
 31 69  1  0  0  0  0
 32 33  1  0  0  0  0
 32 39  2  0  0  0  0
 33 40  2  0  0  0  0
 34 37  1  0  0  0  0
 34 71  1  0  0  0  0
 35 38  2  0  0  0  0
 35 72  1  0  0  0  0
 36 42  1  0  0  0  0
 37 41  2  0  0  0  0
 37 73  1  0  0  0  0
 38 41  1  0  0  0  0
 38 74  1  0  0  0  0
 39 43  1  0  0  0  0
 39 75  1  0  0  0  0
 40 44  1  0  0  0  0
 40 76  1  0  0  0  0
 42 45  1  0  0  0  0
 43 44  2  0  0  0  0
 43 77  1  0  0  0  0
 44 78  1  0  0  0  0
 45 46  2  0  0  0  0
 45 79  1  0  0  0  0
 46 47  1  0  0  0  0
 47 80  1  0  0  0  0
 47 81  1  0  0  0  0
 47 82  1  0  0  0  0
M  END
> <PUBCHEM_COMPOUND_CID>
511058
> <PUBCHEM_COMPOUND_CANONICALIZED>
1
> <PUBCHEM_CACTVS_COMPLEXITY>
1150
> <PUBCHEM_CACTVS_HBOND_ACCEPTOR>
10
> <PUBCHEM_CACTVS_HBOND_DONOR>
4
> <PUBCHEM_CACTVS_ROTATABLE_BOND>
13
> <PUBCHEM_CACTVS_SUBSKEYS>
AAADcfB/uQBAAAAAAAAAAAAAAAAAAWLFgAAwYAAAAAAAAFgB/AAAHwQUAAAADSzB3gwyxbLYEAitA6VyVgCD8KBnKjhomL2+bNoIZrrg1bOUMYhmlhjoycc/i4CuAAAAAAAAAQAAAAAAAAACAAAAAAAAAA==
> <PUBCHEM_IUPAC_OPENEYE_NAME>
N-[(1S)-1-[[(1S)-2-[[(1S)-2-(1,3-benzothiazol-2-yl)-2-oxo-1-[[(3R)-2-oxopyrrolidin-3-yl]methyl]ethyl]amino]-1-[(4-fluorophenyl)methyl]-2-oxo-ethyl]carbamoyl]-2-methyl-propyl]-5-methyl-isoxazole-3-carboxamide
> <PUBCHEM_IUPAC_CAS_NAME>
N-[(2S)-1-[[(2S)-1-[[(2S)-1-(1,3-benzothiazol-2-yl)-1-oxo-3-[(3R)-2-oxo-3-pyrrolidinyl]propan-2-yl]amino]-3-(4-fluorophenyl)-1-oxopropan-2-yl]amino]-3-methyl-1-oxobutan-2-yl]-5-methyl-3-isoxazolecarboxamide
> <PUBCHEM_IUPAC_NAME_MARKUP>
<I>N</I>-[(2<I>S</I>)-1-[[(2<I>S</I>)-1-[[(2<I>S</I>)-1-(1,3-benzothiazol-2-yl)-1-oxo-3-[(3<I>R</I>)-2-oxopyrrolidin-3-yl]propan-2-yl]amino]-3-(4-fluorophenyl)-1-oxopropan-2-yl]amino]-3-methyl-1-oxobutan-2-yl]-5-methyl-1,2-oxazole-3-carboxamide
> <PUBCHEM_IUPAC_NAME>
N-[(2S)-1-[[(2S)-1-[[(2S)-1-(1,3-benzothiazol-2-yl)-1-oxo-3-[(3R)-2-oxopyrrolidin-3-yl]propan-2-yl]amino]-3-(4-fluorophenyl)-1-oxopropan-2-yl]amino]-3-methyl-1-oxobutan-2-yl]-5-methyl-1,2-oxazole-3-carboxamide
> <PUBCHEM_IUPAC_SYSTEMATIC_NAME>
N-[(2S)-1-[[(2S)-1-[[(2S)-1-(1,3-benzothiazol-2-yl)-1-oxidanylidene-3-[(3R)-2-oxidanylidenepyrrolidin-3-yl]propan-2-yl]amino]-3-(4-fluorophenyl)-1-oxidanylidene-propan-2-yl]amino]-3-methyl-1-oxidanylidene-butan-2-yl]-5-methyl-1,2-oxazole-3-carboxamide
> <PUBCHEM_IUPAC_TRADITIONAL_NAME>
N-[(1S)-1-[[(1S)-2-[[(1S)-2-(1,3-benzothiazol-2-yl)-2-keto-1-[[(3R)-2-ketopyrrolidin-3-yl]methyl]ethyl]amino]-1-(4-fluorobenzyl)-2-keto-ethyl]carbamoyl]-2-methyl-propyl]-5-methyl-isoxazole-3-carboxamide
> <PUBCHEM_IUPAC_INCHI>
InChI=1S/C33H35FN6O6S/c1-17(2)27(39-31(44)25-14-18(3)46-40-25)32(45)37-24(15-19-8-10-21(34)11-9-19)30(43)36-23(16-20-12-13-35-29(20)42)28(41)33-38-22-6-4-5-7-26(22)47-33/h4-11,14,17,20,23-24,27H,12-13,15-16H2,1-3H3,(H,35,42)(H,36,43)(H,37,45)(H,39,44)/t20-,23+,24+,27+/m1/s1
> <PUBCHEM_IUPAC_INCHIKEY>
JSRGYHSFBFMYLG-PHYRLJMMSA-N
> <PUBCHEM_XLOGP3_AA>
4.5
> <PUBCHEM_EXACT_MASS>
662.23228219
> <PUBCHEM_MOLECULAR_FORMULA>
C33H35FN6O6S
> <PUBCHEM_MOLECULAR_WEIGHT>
662.7
> <PUBCHEM_OPENEYE_CAN_SMILES>
CC1=CC(=NO1)C(=O)NC(C(C)C)C(=O)NC(CC2=CC=C(C=C2)F)C(=O)NC(CC3CCNC3=O)C(=O)C4=NC5=CC=CC=C5S4
> <PUBCHEM_OPENEYE_ISO_SMILES>
CC1=CC(=NO1)C(=O)N[C@@H](C(C)C)C(=O)N[C@@H](CC2=CC=C(C=C2)F)C(=O)N[C@@H](C[C@H]3CCNC3=O)C(=O)C4=NC5=CC=CC=C5S4
> <PUBCHEM_CACTVS_TPSA>
201
> <PUBCHEM_MONOISOTOPIC_WEIGHT>
662.23228219
> <PUBCHEM_TOTAL_CHARGE>
0
> <PUBCHEM_HEAVY_ATOM_COUNT>
47
> <PUBCHEM_ATOM_DEF_STEREO_COUNT>
4
> <PUBCHEM_ATOM_UDEF_STEREO_COUNT>
0
> <PUBCHEM_BOND_DEF_STEREO_COUNT>
0
> <PUBCHEM_BOND_UDEF_STEREO_COUNT>
0
> <PUBCHEM_ISOTOPIC_ATOM_COUNT>
0
> <PUBCHEM_COMPONENT_COUNT>
1
> <PUBCHEM_CACTVS_TAUTO_COUNT>
-1
> <PUBCHEM_COORDINATE_TYPE>
1
5
255
> <PUBCHEM_BONDANNOTATIONS>
1  27  8
1  32  8
18  10  5
22  11  5
25  12  5
13  27  8
13  33  8
14  42  8
15  16  6
29  34  8
29  35  8
32  33  8
32  39  8
33  40  8
34  37  8
35  38  8
37  41  8
38  41  8
39  43  8
40  44  8
42  45  8
43  44  8
45  46  8
8  14  8
8  46  8
$$$$
