511023
  -OEChem-10302200282D
 65 67  0     1  0  0  0  0  0999 V2000
   13.3266    2.1986    0.0000 O   0  0  0  0  0  0  0  0  0  0  0  0
   15.6780    1.1185    0.0000 O   0  0  0  0  0  0  0  0  0  0  0  0
   15.6709    3.2940    0.0000 O   0  0  0  0  0  0  0  0  0  0  0  0
   12.6208    4.1643    0.0000 O   0  0  0  0  0  0  0  0  0  0  0  0
   12.0991    1.7256    0.0000 O   0  0  0  0  0  0  0  0  0  0  0  0
   12.1201   -2.4712    0.0000 O   0  0  0  0  0  0  0  0  0  0  0  0
   13.6111    0.4395    0.0000 N   0  0  0  0  0  0  0  0  0  0  0  0
   13.6191   -1.1700    0.0000 N   0  0  0  0  0  0  0  0  0  0  0  0
   10.9077    0.5222    0.0000 N   0  0  0  0  0  0  0  0  0  0  0  0
    9.4783   -0.3859    0.0000 N   0  0  0  0  0  0  0  0  0  0  0  0
   10.9167   -1.2797    0.0000 N   0  0  0  0  0  0  0  0  0  0  0  0
   14.8671    1.7036    0.0000 C   0  0  1  0  0  0  0  0  0  0  0  0
   13.9170    1.3915    0.0000 C   0  0  1  0  0  0  0  0  0  0  0  0
   14.8638    2.7036    0.0000 C   0  0  1  0  0  0  0  0  0  0  0  0
   13.9118    3.0096    0.0000 C   0  0  1  0  0  0  0  0  0  0  0  0
   13.5997    3.9596    0.0000 C   0  0  0  0  0  0  0  0  0  0  0  0
   12.6664    0.1300    0.0000 C   0  0  0  0  0  0  0  0  0  0  0  0
   14.1987   -0.3623    0.0000 C   0  0  0  0  0  0  0  0  0  0  0  0
   12.6714   -0.8700    0.0000 C   0  0  0  0  0  0  0  0  0  0  0  0
   11.8815    0.7496    0.0000 C   0  0  0  0  0  0  0  0  0  0  0  0
    6.4870   -2.1329    0.0000 C   0  0  0  0  0  0  0  0  0  0  0  0
    5.9913   -3.0014    0.0000 C   0  0  0  0  0  0  0  0  0  0  0  0
    7.4870   -2.1279    0.0000 C   0  0  0  0  0  0  0  0  0  0  0  0
    4.9913   -3.0064    0.0000 C   0  0  0  0  0  0  0  0  0  0  0  0
    7.9826   -1.2594    0.0000 C   0  0  0  0  0  0  0  0  0  0  0  0
    4.4957   -3.8749    0.0000 C   0  0  0  0  0  0  0  0  0  0  0  0
   11.8927   -1.4973    0.0000 C   0  0  0  0  0  0  0  0  0  0  0  0
    8.9826   -1.2544    0.0000 C   0  0  0  0  0  0  0  0  0  0  0  0
    3.4957   -3.8799    0.0000 C   0  0  0  0  0  0  0  0  0  0  0  0
   10.4783   -0.3809    0.0000 C   0  0  0  0  0  0  0  0  0  0  0  0
    3.0000   -4.7484    0.0000 C   0  0  0  0  0  0  0  0  0  0  0  0
    2.0000   -4.7534    0.0000 C   0  0  0  0  0  0  0  0  0  0  0  0
   14.7721    1.0910    0.0000 H   0  0  0  0  0  0  0  0  0  0  0  0
   14.3569    0.9546    0.0000 H   0  0  0  0  0  0  0  0  0  0  0  0
   14.7648    3.3157    0.0000 H   0  0  0  0  0  0  0  0  0  0  0  0
   13.2991    3.1046    0.0000 H   0  0  0  0  0  0  0  0  0  0  0  0
   14.2133    4.0479    0.0000 H   0  0  0  0  0  0  0  0  0  0  0  0
   13.6193    4.5793    0.0000 H   0  0  0  0  0  0  0  0  0  0  0  0
   16.2436    1.3725    0.0000 H   0  0  0  0  0  0  0  0  0  0  0  0
   15.6041    3.9104    0.0000 H   0  0  0  0  0  0  0  0  0  0  0  0
   14.8187   -0.3592    0.0000 H   0  0  0  0  0  0  0  0  0  0  0  0
    5.8867   -3.6125    0.0000 H   0  0  0  0  0  0  0  0  0  0  0  0
    6.5750   -3.2105    0.0000 H   0  0  0  0  0  0  0  0  0  0  0  0
    6.5916   -1.5218    0.0000 H   0  0  0  0  0  0  0  0  0  0  0  0
    5.9033   -1.9237    0.0000 H   0  0  0  0  0  0  0  0  0  0  0  0
    7.3824   -2.7390    0.0000 H   0  0  0  0  0  0  0  0  0  0  0  0
    8.0706   -2.3370    0.0000 H   0  0  0  0  0  0  0  0  0  0  0  0
    5.0959   -2.3952    0.0000 H   0  0  0  0  0  0  0  0  0  0  0  0
    4.4077   -2.7972    0.0000 H   0  0  0  0  0  0  0  0  0  0  0  0
   12.4273    4.7534    0.0000 H   0  0  0  0  0  0  0  0  0  0  0  0
    8.0873   -0.6483    0.0000 H   0  0  0  0  0  0  0  0  0  0  0  0
    7.3990   -1.0502    0.0000 H   0  0  0  0  0  0  0  0  0  0  0  0
    4.3910   -4.4860    0.0000 H   0  0  0  0  0  0  0  0  0  0  0  0
    5.0793   -4.0840    0.0000 H   0  0  0  0  0  0  0  0  0  0  0  0
    8.8780   -1.8655    0.0000 H   0  0  0  0  0  0  0  0  0  0  0  0
    9.5663   -1.4635    0.0000 H   0  0  0  0  0  0  0  0  0  0  0  0
   10.5187    1.0050    0.0000 H   0  0  0  0  0  0  0  0  0  0  0  0
    3.6003   -3.2688    0.0000 H   0  0  0  0  0  0  0  0  0  0  0  0
    2.9120   -3.6707    0.0000 H   0  0  0  0  0  0  0  0  0  0  0  0
    9.1656    0.1495    0.0000 H   0  0  0  0  0  0  0  0  0  0  0  0
    2.8954   -5.3595    0.0000 H   0  0  0  0  0  0  0  0  0  0  0  0
    3.5836   -4.9575    0.0000 H   0  0  0  0  0  0  0  0  0  0  0  0
    1.9969   -4.1334    0.0000 H   0  0  0  0  0  0  0  0  0  0  0  0
    1.3800   -4.7564    0.0000 H   0  0  0  0  0  0  0  0  0  0  0  0
    2.0031   -5.3734    0.0000 H   0  0  0  0  0  0  0  0  0  0  0  0
  1 13  1  0  0  0  0
  1 15  1  0  0  0  0
 12  2  1  1  0  0  0
  2 39  1  0  0  0  0
 14  3  1  1  0  0  0
  3 40  1  0  0  0  0
  4 16  1  0  0  0  0
  4 50  1  0  0  0  0
  5 20  2  0  0  0  0
  6 27  2  0  0  0  0
 13  7  1  6  0  0  0
  7 17  1  0  0  0  0
  7 18  1  0  0  0  0
  8 18  2  0  0  0  0
  8 19  1  0  0  0  0
  9 20  1  0  0  0  0
  9 30  1  0  0  0  0
  9 57  1  0  0  0  0
 10 28  1  0  0  0  0
 10 30  1  0  0  0  0
 10 60  1  0  0  0  0
 11 27  1  0  0  0  0
 11 30  2  0  0  0  0
 12 13  1  0  0  0  0
 12 14  1  0  0  0  0
 12 33  1  0  0  0  0
 13 34  1  0  0  0  0
 14 15  1  0  0  0  0
 14 35  1  0  0  0  0
 15 16  1  6  0  0  0
 15 36  1  0  0  0  0
 16 37  1  0  0  0  0
 16 38  1  0  0  0  0
 17 19  2  0  0  0  0
 17 20  1  0  0  0  0
 18 41  1  0  0  0  0
 19 27  1  0  0  0  0
 21 22  1  0  0  0  0
 21 23  1  0  0  0  0
 21 44  1  0  0  0  0
 21 45  1  0  0  0  0
 22 24  1  0  0  0  0
 22 42  1  0  0  0  0
 22 43  1  0  0  0  0
 23 25  1  0  0  0  0
 23 46  1  0  0  0  0
 23 47  1  0  0  0  0
 24 26  1  0  0  0  0
 24 48  1  0  0  0  0
 24 49  1  0  0  0  0
 25 28  1  0  0  0  0
 25 51  1  0  0  0  0
 25 52  1  0  0  0  0
 26 29  1  0  0  0  0
 26 53  1  0  0  0  0
 26 54  1  0  0  0  0
 28 55  1  0  0  0  0
 28 56  1  0  0  0  0
 29 31  1  0  0  0  0
 29 58  1  0  0  0  0
 29 59  1  0  0  0  0
 31 32  1  0  0  0  0
 31 61  1  0  0  0  0
 31 62  1  0  0  0  0
 32 63  1  0  0  0  0
 32 64  1  0  0  0  0
 32 65  1  0  0  0  0
M  END
> <PUBCHEM_COMPOUND_CID>
511023
> <PUBCHEM_COMPOUND_CANONICALIZED>
1
> <PUBCHEM_CACTVS_COMPLEXITY>
677
> <PUBCHEM_CACTVS_HBOND_ACCEPTOR>
7
> <PUBCHEM_CACTVS_HBOND_DONOR>
5
> <PUBCHEM_CACTVS_ROTATABLE_BOND>
12
> <PUBCHEM_CACTVS_SUBSKEYS>
AAADcfB7uAAAAAAAAAAAAAAAAAAAAWJAAAAAAAAABAAAAACBgAAAHgAQCAAACBzhlgYHkBfMFgCoAQVxdACAgC0XEKABWIGoVECDWBpAyCAeQYhPEQLTAWH1sIIAAAAAAAAAAAAAAAAAAAAAAAAAAAAAAA==
> <PUBCHEM_IUPAC_OPENEYE_NAME>
6-(decylamino)-1-[(2R,3R,4S,5R)-3,4-dihydroxy-5-(hydroxymethyl)tetrahydrofuran-2-yl]-7H-imidazo[4,5-e][1,3]diazepine-4,8-dione
> <PUBCHEM_IUPAC_CAS_NAME>
6-(decylamino)-1-[(2R,3R,4S,5R)-3,4-dihydroxy-5-(hydroxymethyl)-2-oxolanyl]-7H-imidazo[4,5-e][1,3]diazepine-4,8-dione
> <PUBCHEM_IUPAC_NAME_MARKUP>
6-(decylamino)-1-[(2<I>R</I>,3<I>R</I>,4<I>S</I>,5<I>R</I>)-3,4-dihydroxy-5-(hydroxymethyl)oxolan-2-yl]-7<I>H</I>-imidazo[4,5-e][1,3]diazepine-4,8-dione
> <PUBCHEM_IUPAC_NAME>
6-(decylamino)-1-[(2R,3R,4S,5R)-3,4-dihydroxy-5-(hydroxymethyl)oxolan-2-yl]-7H-imidazo[4,5-e][1,3]diazepine-4,8-dione
> <PUBCHEM_IUPAC_SYSTEMATIC_NAME>
6-(decylamino)-1-[(2R,3R,4S,5R)-5-(hydroxymethyl)-3,4-bis(oxidanyl)oxolan-2-yl]-7H-imidazo[4,5-e][1,3]diazepine-4,8-dione
> <PUBCHEM_IUPAC_TRADITIONAL_NAME>
6-(decylamino)-1-[(2R,3R,4S,5R)-3,4-dihydroxy-5-methylol-tetrahydrofuran-2-yl]-7H-imidazo[4,5-e][1,3]diazepine-4,8-quinone
> <PUBCHEM_IUPAC_INCHI>
InChI=1S/C21H33N5O6/c1-2-3-4-5-6-7-8-9-10-22-21-24-18(30)14-15(19(31)25-21)26(12-23-14)20-17(29)16(28)13(11-27)32-20/h12-13,16-17,20,27-29H,2-11H2,1H3,(H2,22,24,25,30,31)/t13-,16-,17-,20-/m1/s1
> <PUBCHEM_IUPAC_INCHIKEY>
HFCVEERZBULTMS-AEVYOOLXSA-N
> <PUBCHEM_XLOGP3>
2.9
> <PUBCHEM_EXACT_MASS>
451.24308379
> <PUBCHEM_MOLECULAR_FORMULA>
C21H33N5O6
> <PUBCHEM_MOLECULAR_WEIGHT>
451.5
> <PUBCHEM_OPENEYE_CAN_SMILES>
CCCCCCCCCCNC1=NC(=O)C2=C(C(=O)N1)N(C=N2)C3C(C(C(O3)CO)O)O
> <PUBCHEM_OPENEYE_ISO_SMILES>
CCCCCCCCCCNC1=NC(=O)C2=C(C(=O)N1)N(C=N2)[C@H]3[C@@H]([C@@H]([C@H](O3)CO)O)O
> <PUBCHEM_CACTVS_TPSA>
158
> <PUBCHEM_MONOISOTOPIC_WEIGHT>
451.24308379
> <PUBCHEM_TOTAL_CHARGE>
0
> <PUBCHEM_HEAVY_ATOM_COUNT>
32
> <PUBCHEM_ATOM_DEF_STEREO_COUNT>
4
> <PUBCHEM_ATOM_UDEF_STEREO_COUNT>
0
> <PUBCHEM_BOND_DEF_STEREO_COUNT>
0
> <PUBCHEM_BOND_UDEF_STEREO_COUNT>
0
> <PUBCHEM_ISOTOPIC_ATOM_COUNT>
0
> <PUBCHEM_COMPONENT_COUNT>
1
> <PUBCHEM_CACTVS_TAUTO_COUNT>
-1
> <PUBCHEM_COORDINATE_TYPE>
1
5
255
> <PUBCHEM_BONDANNOTATIONS>
11  27  8
11  30  8
15  16  6
17  19  8
17  20  8
19  27  8
12  2  5
14  3  5
13  7  6
7  17  8
7  18  8
8  18  8
8  19  8
9  20  8
9  30  8
$$$$
