511009
  -OEChem-10302200282D
 59 62  0     1  0  0  0  0  0999 V2000
    4.3211    2.8359    0.0000 O   0  0  0  0  0  0  0  0  0  0  0  0
    7.7619   -2.2617    0.0000 N   0  0  0  0  0  0  0  0  0  0  0  0
    6.2619    0.3363    0.0000 N   0  0  0  0  0  0  0  0  0  0  0  0
    4.6783    1.1411    0.0000 N   0  0  0  0  0  0  0  0  0  0  0  0
    4.6783   -0.4684    0.0000 N   0  0  0  0  0  0  0  0  0  0  0  0
    9.7619   -3.9938    0.0000 N   0  0  0  0  0  0  0  0  0  0  0  0
    6.2781    3.2483    0.0000 N   0  0  0  0  0  0  0  0  0  0  0  0
    6.7619   -0.5297    0.0000 C   0  0  0  0  0  0  0  0  0  0  0  0
    6.2619   -1.3957    0.0000 C   0  0  0  0  0  0  0  0  0  0  0  0
    7.7619   -0.5297    0.0000 C   0  0  0  0  0  0  0  0  0  0  0  0
    6.7619   -2.2617    0.0000 C   0  0  0  0  0  0  0  0  0  0  0  0
    8.2619   -1.3957    0.0000 C   0  0  0  0  0  0  0  0  0  0  0  0
    8.2619   -3.1278    0.0000 C   0  0  0  0  0  0  0  0  0  0  0  0
    5.2619    0.3363    0.0000 C   0  0  0  0  0  0  0  0  0  0  0  0
    9.2619   -3.1278    0.0000 C   0  0  0  0  0  0  0  0  0  0  0  0
    3.7320    0.8363    0.0000 C   0  0  0  0  0  0  0  0  0  0  0  0
    4.9889    2.0916    0.0000 C   0  0  3  0  0  0  0  0  0  0  0  0
    3.7320   -0.1637    0.0000 C   0  0  0  0  0  0  0  0  0  0  0  0
    5.9674    2.2978    0.0000 C   0  0  0  0  0  0  0  0  0  0  0  0
    2.8660    1.3363    0.0000 C   0  0  0  0  0  0  0  0  0  0  0  0
    2.8660   -0.6637    0.0000 C   0  0  0  0  0  0  0  0  0  0  0  0
    2.0000    0.8363    0.0000 C   0  0  0  0  0  0  0  0  0  0  0  0
    2.0000   -0.1637    0.0000 C   0  0  0  0  0  0  0  0  0  0  0  0
    4.6318    3.7864    0.0000 C   0  0  0  0  0  0  0  0  0  0  0  0
    6.6353    1.5535    0.0000 C   0  0  0  0  0  0  0  0  0  0  0  0
    7.6138    1.7597    0.0000 C   0  0  0  0  0  0  0  0  0  0  0  0
    3.9639    4.5307    0.0000 C   0  0  0  0  0  0  0  0  0  0  0  0
    7.2566    3.4546    0.0000 C   0  0  0  0  0  0  0  0  0  0  0  0
    7.9244    2.7102    0.0000 C   0  0  0  0  0  0  0  0  0  0  0  0
    6.1419   -0.5297    0.0000 H   0  0  0  0  0  0  0  0  0  0  0  0
    5.7869   -0.9972    0.0000 H   0  0  0  0  0  0  0  0  0  0  0  0
    5.7869   -1.7942    0.0000 H   0  0  0  0  0  0  0  0  0  0  0  0
    8.3445   -0.3176    0.0000 H   0  0  0  0  0  0  0  0  0  0  0  0
    7.6542    0.0809    0.0000 H   0  0  0  0  0  0  0  0  0  0  0  0
    6.1793   -2.4738    0.0000 H   0  0  0  0  0  0  0  0  0  0  0  0
    6.8695   -2.8723    0.0000 H   0  0  0  0  0  0  0  0  0  0  0  0
    8.7368   -1.7942    0.0000 H   0  0  0  0  0  0  0  0  0  0  0  0
    8.7368   -0.9972    0.0000 H   0  0  0  0  0  0  0  0  0  0  0  0
    6.5719    0.8733    0.0000 H   0  0  0  0  0  0  0  0  0  0  0  0
    7.6793   -3.3398    0.0000 H   0  0  0  0  0  0  0  0  0  0  0  0
    8.3695   -3.7383    0.0000 H   0  0  0  0  0  0  0  0  0  0  0  0
    9.8445   -2.9157    0.0000 H   0  0  0  0  0  0  0  0  0  0  0  0
    9.1542   -2.5172    0.0000 H   0  0  0  0  0  0  0  0  0  0  0  0
    5.1815    2.6809    0.0000 H   0  0  0  0  0  0  0  0  0  0  0  0
    2.8660    1.9563    0.0000 H   0  0  0  0  0  0  0  0  0  0  0  0
   10.3819   -3.9938    0.0000 H   0  0  0  0  0  0  0  0  0  0  0  0
    9.4519   -4.5307    0.0000 H   0  0  0  0  0  0  0  0  0  0  0  0
    2.8660   -1.2837    0.0000 H   0  0  0  0  0  0  0  0  0  0  0  0
    1.4631    1.1463    0.0000 H   0  0  0  0  0  0  0  0  0  0  0  0
    1.4631   -0.4737    0.0000 H   0  0  0  0  0  0  0  0  0  0  0  0
    5.1787    3.4944    0.0000 H   0  0  0  0  0  0  0  0  0  0  0  0
    5.0143    4.2743    0.0000 H   0  0  0  0  0  0  0  0  0  0  0  0
    6.4427    0.9642    0.0000 H   0  0  0  0  0  0  0  0  0  0  0  0
    8.0279    1.2983    0.0000 H   0  0  0  0  0  0  0  0  0  0  0  0
    4.4254    4.9448    0.0000 H   0  0  0  0  0  0  0  0  0  0  0  0
    3.5498    4.9922    0.0000 H   0  0  0  0  0  0  0  0  0  0  0  0
    3.5024    4.1167    0.0000 H   0  0  0  0  0  0  0  0  0  0  0  0
    7.4492    4.0439    0.0000 H   0  0  0  0  0  0  0  0  0  0  0  0
    8.5311    2.8381    0.0000 H   0  0  0  0  0  0  0  0  0  0  0  0
  1 17  1  0  0  0  0
  1 24  1  0  0  0  0
  2 11  1  0  0  0  0
  2 12  1  0  0  0  0
  2 13  1  0  0  0  0
  3  8  1  0  0  0  0
  3 14  1  0  0  0  0
  3 39  1  0  0  0  0
  4 14  1  0  0  0  0
  4 16  1  0  0  0  0
  4 17  1  0  0  0  0
  5 14  2  0  0  0  0
  5 18  1  0  0  0  0
  6 15  1  0  0  0  0
  6 46  1  0  0  0  0
  6 47  1  0  0  0  0
  7 19  1  0  0  0  0
  7 28  2  0  0  0  0
  8  9  1  0  0  0  0
  8 10  1  0  0  0  0
  8 30  1  0  0  0  0
  9 11  1  0  0  0  0
  9 31  1  0  0  0  0
  9 32  1  0  0  0  0
 10 12  1  0  0  0  0
 10 33  1  0  0  0  0
 10 34  1  0  0  0  0
 11 35  1  0  0  0  0
 11 36  1  0  0  0  0
 12 37  1  0  0  0  0
 12 38  1  0  0  0  0
 13 15  1  0  0  0  0
 13 40  1  0  0  0  0
 13 41  1  0  0  0  0
 15 42  1  0  0  0  0
 15 43  1  0  0  0  0
 16 18  1  0  0  0  0
 16 20  2  0  0  0  0
 17 19  1  0  0  0  0
 17 44  1  0  0  0  0
 18 21  2  0  0  0  0
 19 25  2  0  0  0  0
 20 22  1  0  0  0  0
 20 45  1  0  0  0  0
 21 23  1  0  0  0  0
 21 48  1  0  0  0  0
 22 23  2  0  0  0  0
 22 49  1  0  0  0  0
 23 50  1  0  0  0  0
 24 27  1  0  0  0  0
 24 51  1  0  0  0  0
 24 52  1  0  0  0  0
 25 26  1  0  0  0  0
 25 53  1  0  0  0  0
 26 29  2  0  0  0  0
 26 54  1  0  0  0  0
 27 55  1  0  0  0  0
 27 56  1  0  0  0  0
 27 57  1  0  0  0  0
 28 29  1  0  0  0  0
 28 58  1  0  0  0  0
 29 59  1  0  0  0  0
M  END
> <PUBCHEM_COMPOUND_CID>
511009
> <PUBCHEM_COMPOUND_CANONICALIZED>
1
> <PUBCHEM_CACTVS_COMPLEXITY>
486
> <PUBCHEM_CACTVS_HBOND_ACCEPTOR>
6
> <PUBCHEM_CACTVS_HBOND_DONOR>
2
> <PUBCHEM_CACTVS_ROTATABLE_BOND>
8
> <PUBCHEM_CACTVS_SUBSKEYS>
AAADceB7oAAAAAAAAAAAAAAAAAAAAWAAAAA8WIAAAAAAAFgB/AAAHgAQAAAACCjhlgY/0LfMFACgATRnZASCgC0xEqAJ2KA4fJiKbuLA+ZmfMAhs0APY6CeQQAAAAAAAAAAAACAAAAAAAAAAQAAAAAAAAA==
> <PUBCHEM_IUPAC_OPENEYE_NAME>
N-[1-(2-aminoethyl)-4-piperidyl]-1-[ethoxy(2-pyridyl)methyl]benzimidazol-2-amine
> <PUBCHEM_IUPAC_CAS_NAME>
N-[1-(2-aminoethyl)-4-piperidinyl]-1-[ethoxy(2-pyridinyl)methyl]-2-benzimidazolamine
> <PUBCHEM_IUPAC_NAME_MARKUP>
<I>N</I>-[1-(2-aminoethyl)piperidin-4-yl]-1-[ethoxy(pyridin-2-yl)methyl]benzimidazol-2-amine
> <PUBCHEM_IUPAC_NAME>
N-[1-(2-aminoethyl)piperidin-4-yl]-1-[ethoxy(pyridin-2-yl)methyl]benzimidazol-2-amine
> <PUBCHEM_IUPAC_SYSTEMATIC_NAME>
N-[1-(2-azanylethyl)piperidin-4-yl]-1-[ethoxy(pyridin-2-yl)methyl]benzimidazol-2-amine
> <PUBCHEM_IUPAC_TRADITIONAL_NAME>
[1-(2-aminoethyl)-4-piperidyl]-[1-[ethoxy(2-pyridyl)methyl]benzimidazol-2-yl]amine
> <PUBCHEM_IUPAC_INCHI>
InChI=1S/C22H30N6O/c1-2-29-21(19-8-5-6-13-24-19)28-20-9-4-3-7-18(20)26-22(28)25-17-10-14-27(15-11-17)16-12-23/h3-9,13,17,21H,2,10-12,14-16,23H2,1H3,(H,25,26)
> <PUBCHEM_IUPAC_INCHIKEY>
HFDTVCOJXKQSCQ-UHFFFAOYSA-N
> <PUBCHEM_XLOGP3_AA>
2.3
> <PUBCHEM_EXACT_MASS>
394.24810960
> <PUBCHEM_MOLECULAR_FORMULA>
C22H30N6O
> <PUBCHEM_MOLECULAR_WEIGHT>
394.5
> <PUBCHEM_OPENEYE_CAN_SMILES>
CCOC(C1=CC=CC=N1)N2C3=CC=CC=C3N=C2NC4CCN(CC4)CCN
> <PUBCHEM_OPENEYE_ISO_SMILES>
CCOC(C1=CC=CC=N1)N2C3=CC=CC=C3N=C2NC4CCN(CC4)CCN
> <PUBCHEM_CACTVS_TPSA>
81.2
> <PUBCHEM_MONOISOTOPIC_WEIGHT>
394.24810960
> <PUBCHEM_TOTAL_CHARGE>
0
> <PUBCHEM_HEAVY_ATOM_COUNT>
29
> <PUBCHEM_ATOM_DEF_STEREO_COUNT>
0
> <PUBCHEM_ATOM_UDEF_STEREO_COUNT>
1
> <PUBCHEM_BOND_DEF_STEREO_COUNT>
0
> <PUBCHEM_BOND_UDEF_STEREO_COUNT>
0
> <PUBCHEM_ISOTOPIC_ATOM_COUNT>
0
> <PUBCHEM_COMPONENT_COUNT>
1
> <PUBCHEM_CACTVS_TAUTO_COUNT>
-1
> <PUBCHEM_COORDINATE_TYPE>
1
5
255
> <PUBCHEM_BONDANNOTATIONS>
17  1  3
16  18  8
16  20  8
18  21  8
19  25  8
20  22  8
21  23  8
22  23  8
25  26  8
26  29  8
28  29  8
4  14  8
4  16  8
5  14  8
5  18  8
7  19  8
7  28  8
$$$$
