511090
  -OEChem-10302200282D
 57 61  0     1  0  0  0  0  0999 V2000
    9.3405    4.9195    0.0000 Cl  0  0  0  0  0  0  0  0  0  0  0  0
    2.6504   -2.2824    0.0000 O   0  0  0  0  0  0  0  0  0  0  0  0
    4.5983   -4.7856    0.0000 O   0  0  0  0  0  0  0  0  0  0  0  0
    5.7783    0.2172    0.0000 O   0  0  0  0  0  0  0  0  0  0  0  0
    6.3345    1.4606    0.0000 O   0  0  0  0  0  0  0  0  0  0  0  0
    6.1355   -1.4776    0.0000 N   0  0  0  0  0  0  0  0  0  0  0  0
    4.2382   -3.0914    0.0000 N   0  0  0  0  0  0  0  0  0  0  0  0
    7.8330    0.5920    0.0000 N   0  0  0  0  0  0  0  0  0  0  0  0
    5.1893   -1.7824    0.0000 C   0  0  1  0  0  0  0  0  0  0  0  0
    5.1893   -2.7824    0.0000 C   0  0  2  0  0  0  0  0  0  0  0  0
    4.2382   -1.4733    0.0000 C   0  0  1  0  0  0  0  0  0  0  0  0
    6.1355   -3.0871    0.0000 C   0  0  0  0  0  0  0  0  0  0  0  0
    6.7191   -2.2824    0.0000 C   0  0  0  0  0  0  0  0  0  0  0  0
    2.9511   -4.2504    0.0000 C   0  0  0  0  0  0  0  0  0  0  0  0
    3.6504   -2.2824    0.0000 C   0  0  0  0  0  0  0  0  0  0  0  0
    3.9292   -4.0424    0.0000 C   0  0  0  0  0  0  0  0  0  0  0  0
    2.0000   -3.9413    0.0000 C   0  0  0  0  0  0  0  0  0  0  0  0
    2.2079   -4.9195    0.0000 C   0  0  0  0  0  0  0  0  0  0  0  0
    6.4462   -0.5271    0.0000 C   0  0  0  0  0  0  0  0  0  0  0  0
    3.9292   -0.5223    0.0000 C   0  0  0  0  0  0  0  0  0  0  0  0
    7.4247   -0.3209    0.0000 C   0  0  2  0  0  0  0  0  0  0  0  0
    8.1666   -0.9913    0.0000 C   0  0  0  0  0  0  0  0  0  0  0  0
    9.0335   -0.4928    0.0000 C   0  0  0  0  0  0  0  0  0  0  0  0
    8.8273    0.4857    0.0000 C   0  0  0  0  0  0  0  0  0  0  0  0
    7.3345    1.4588    0.0000 C   0  0  0  0  0  0  0  0  0  0  0  0
    7.8360    2.3240    0.0000 C   0  0  0  0  0  0  0  0  0  0  0  0
    7.3375    3.1909    0.0000 C   0  0  0  0  0  0  0  0  0  0  0  0
    8.8360    2.3223    0.0000 C   0  0  0  0  0  0  0  0  0  0  0  0
    7.8390    4.0560    0.0000 C   0  0  0  0  0  0  0  0  0  0  0  0
    9.3375    3.1874    0.0000 C   0  0  0  0  0  0  0  0  0  0  0  0
    8.8390    4.0543    0.0000 C   0  0  0  0  0  0  0  0  0  0  0  0
    5.1904   -0.9324    0.0000 H   0  0  0  0  0  0  0  0  0  0  0  0
    5.1904   -3.6324    0.0000 H   0  0  0  0  0  0  0  0  0  0  0  0
    3.6258   -1.3764    0.0000 H   0  0  0  0  0  0  0  0  0  0  0  0
    5.8845   -3.6540    0.0000 H   0  0  0  0  0  0  0  0  0  0  0  0
    6.6729   -3.3963    0.0000 H   0  0  0  0  0  0  0  0  0  0  0  0
    7.1800   -2.6971    0.0000 H   0  0  0  0  0  0  0  0  0  0  0  0
    7.1800   -1.8676    0.0000 H   0  0  0  0  0  0  0  0  0  0  0  0
    3.2325   -4.8028    0.0000 H   0  0  0  0  0  0  0  0  0  0  0  0
    2.0863   -3.3274    0.0000 H   0  0  0  0  0  0  0  0  0  0  0  0
    1.3804   -3.9630    0.0000 H   0  0  0  0  0  0  0  0  0  0  0  0
    1.6331   -5.1517    0.0000 H   0  0  0  0  0  0  0  0  0  0  0  0
    2.5365   -5.4453    0.0000 H   0  0  0  0  0  0  0  0  0  0  0  0
    4.5189   -0.3307    0.0000 H   0  0  0  0  0  0  0  0  0  0  0  0
    3.7376    0.0674    0.0000 H   0  0  0  0  0  0  0  0  0  0  0  0
    3.3396   -0.7139    0.0000 H   0  0  0  0  0  0  0  0  0  0  0  0
    7.0353    0.1616    0.0000 H   0  0  0  0  0  0  0  0  0  0  0  0
    7.7052   -1.4054    0.0000 H   0  0  0  0  0  0  0  0  0  0  0  0
    8.5302   -1.4935    0.0000 H   0  0  0  0  0  0  0  0  0  0  0  0
    9.2847   -1.0596    0.0000 H   0  0  0  0  0  0  0  0  0  0  0  0
    9.6235   -0.3022    0.0000 H   0  0  0  0  0  0  0  0  0  0  0  0
    9.4440    0.5494    0.0000 H   0  0  0  0  0  0  0  0  0  0  0  0
    8.8284    1.1057    0.0000 H   0  0  0  0  0  0  0  0  0  0  0  0
    6.7175    3.1920    0.0000 H   0  0  0  0  0  0  0  0  0  0  0  0
    9.1450    1.7848    0.0000 H   0  0  0  0  0  0  0  0  0  0  0  0
    7.5299    4.5935    0.0000 H   0  0  0  0  0  0  0  0  0  0  0  0
    9.9575    3.1864    0.0000 H   0  0  0  0  0  0  0  0  0  0  0  0
  1 31  1  0  0  0  0
  2 15  2  0  0  0  0
  3 16  2  0  0  0  0
  4 19  2  0  0  0  0
  5 25  2  0  0  0  0
  6  9  1  0  0  0  0
  6 13  1  0  0  0  0
  6 19  1  0  0  0  0
  7 10  1  0  0  0  0
  7 15  1  0  0  0  0
  7 16  1  0  0  0  0
  8 21  1  0  0  0  0
  8 24  1  0  0  0  0
  8 25  1  0  0  0  0
  9 10  1  0  0  0  0
  9 11  1  0  0  0  0
  9 32  1  6  0  0  0
 10 12  1  0  0  0  0
 10 33  1  1  0  0  0
 11 15  1  0  0  0  0
 11 20  1  1  0  0  0
 11 34  1  0  0  0  0
 12 13  1  0  0  0  0
 12 35  1  0  0  0  0
 12 36  1  0  0  0  0
 13 37  1  0  0  0  0
 13 38  1  0  0  0  0
 14 16  1  0  0  0  0
 14 17  1  0  0  0  0
 14 18  1  0  0  0  0
 14 39  1  0  0  0  0
 17 18  1  0  0  0  0
 17 40  1  0  0  0  0
 17 41  1  0  0  0  0
 18 42  1  0  0  0  0
 18 43  1  0  0  0  0
 21 19  1  1  0  0  0
 20 44  1  0  0  0  0
 20 45  1  0  0  0  0
 20 46  1  0  0  0  0
 21 22  1  0  0  0  0
 21 47  1  0  0  0  0
 22 23  1  0  0  0  0
 22 48  1  0  0  0  0
 22 49  1  0  0  0  0
 23 24  1  0  0  0  0
 23 50  1  0  0  0  0
 23 51  1  0  0  0  0
 24 52  1  0  0  0  0
 24 53  1  0  0  0  0
 25 26  1  0  0  0  0
 26 27  2  0  0  0  0
 26 28  1  0  0  0  0
 27 29  1  0  0  0  0
 27 54  1  0  0  0  0
 28 30  2  0  0  0  0
 28 55  1  0  0  0  0
 29 31  2  0  0  0  0
 29 56  1  0  0  0  0
 30 31  1  0  0  0  0
 30 57  1  0  0  0  0
M  END
> <PUBCHEM_COMPOUND_CID>
511090
> <PUBCHEM_COMPOUND_CANONICALIZED>
1
> <PUBCHEM_CACTVS_COMPLEXITY>
792
> <PUBCHEM_CACTVS_HBOND_ACCEPTOR>
4
> <PUBCHEM_CACTVS_HBOND_DONOR>
0
> <PUBCHEM_CACTVS_ROTATABLE_BOND>
3
> <PUBCHEM_CACTVS_SUBSKEYS>
AAADceB7OAAEAAAAAAAAAAAAGAAAAWLFgAAwAAAAAAAWAAABAAAAHgIAAAAADSrBmCQyAIMAAACIAiFSEACCAAAkBQAIiAGIBsgIYDqB1zGUIQhghiCIiYcciQCOBAAAAAAAAAAIAAAAAAAAAAAAAAAAAA==
> <PUBCHEM_IUPAC_OPENEYE_NAME>
(3aS,6S,6aR)-1-[(2S)-1-(4-chlorobenzoyl)pyrrolidine-2-carbonyl]-4-(cyclopropanecarbonyl)-6-methyl-3,3a,6,6a-tetrahydro-2H-pyrrolo[3,2-b]pyrrol-5-one
> <PUBCHEM_IUPAC_CAS_NAME>
(3aS,6S,6aR)-1-[[(2S)-1-[(4-chlorophenyl)-oxomethyl]-2-pyrrolidinyl]-oxomethyl]-4-[cyclopropyl(oxo)methyl]-6-methyl-3,3a,6,6a-tetrahydro-2H-pyrrolo[3,2-b]pyrrol-5-one
> <PUBCHEM_IUPAC_NAME_MARKUP>
(3<I>a</I><I>S</I>,6<I>S</I>,6<I>a</I><I>R</I>)-1-[(2<I>S</I>)-1-(4-chlorobenzoyl)pyrrolidine-2-carbonyl]-4-(cyclopropanecarbonyl)-6-methyl-3,3<I>a</I>,6,6<I>a</I>-tetrahydro-2<I>H</I>-pyrrolo[3,2-b]pyrrol-5-one
> <PUBCHEM_IUPAC_NAME>
(3aS,6S,6aR)-1-[(2S)-1-(4-chlorobenzoyl)pyrrolidine-2-carbonyl]-4-(cyclopropanecarbonyl)-6-methyl-3,3a,6,6a-tetrahydro-2H-pyrrolo[3,2-b]pyrrol-5-one
> <PUBCHEM_IUPAC_SYSTEMATIC_NAME>
(3aS,6S,6aR)-1-[(2S)-1-(4-chlorophenyl)carbonylpyrrolidin-2-yl]carbonyl-4-cyclopropylcarbonyl-6-methyl-3,3a,6,6a-tetrahydro-2H-pyrrolo[3,2-b]pyrrol-5-one
> <PUBCHEM_IUPAC_TRADITIONAL_NAME>
(3aS,6S,6aR)-1-[(2S)-1-(4-chlorobenzoyl)prolyl]-4-(cyclopropanecarbonyl)-6-methyl-3,3a,6,6a-tetrahydro-2H-pyrrolo[3,2-b]pyrrol-5-one
> <PUBCHEM_IUPAC_INCHI>
InChI=1S/C23H26ClN3O4/c1-13-19-17(27(20(13)28)22(30)15-4-5-15)10-12-26(19)23(31)18-3-2-11-25(18)21(29)14-6-8-16(24)9-7-14/h6-9,13,15,17-19H,2-5,10-12H2,1H3/t13-,17-,18-,19+/m0/s1
> <PUBCHEM_IUPAC_INCHIKEY>
QEQKMVGFWFXPJN-ZQEOTTOMSA-N
> <PUBCHEM_XLOGP3_AA>
2.3
> <PUBCHEM_EXACT_MASS>
443.1611840
> <PUBCHEM_MOLECULAR_FORMULA>
C23H26ClN3O4
> <PUBCHEM_MOLECULAR_WEIGHT>
443.9
> <PUBCHEM_OPENEYE_CAN_SMILES>
CC1C2C(CCN2C(=O)C3CCCN3C(=O)C4=CC=C(C=C4)Cl)N(C1=O)C(=O)C5CC5
> <PUBCHEM_OPENEYE_ISO_SMILES>
C[C@H]1[C@@H]2[C@H](CCN2C(=O)[C@@H]3CCCN3C(=O)C4=CC=C(C=C4)Cl)N(C1=O)C(=O)C5CC5
> <PUBCHEM_CACTVS_TPSA>
78
> <PUBCHEM_MONOISOTOPIC_WEIGHT>
443.1611840
> <PUBCHEM_TOTAL_CHARGE>
0
> <PUBCHEM_HEAVY_ATOM_COUNT>
31
> <PUBCHEM_ATOM_DEF_STEREO_COUNT>
4
> <PUBCHEM_ATOM_UDEF_STEREO_COUNT>
0
> <PUBCHEM_BOND_DEF_STEREO_COUNT>
0
> <PUBCHEM_BOND_UDEF_STEREO_COUNT>
0
> <PUBCHEM_ISOTOPIC_ATOM_COUNT>
0
> <PUBCHEM_COMPONENT_COUNT>
1
> <PUBCHEM_CACTVS_TAUTO_COUNT>
-1
> <PUBCHEM_COORDINATE_TYPE>
1
5
255
> <PUBCHEM_BONDANNOTATIONS>
10  33  5
11  20  5
21  19  5
26  27  8
26  28  8
27  29  8
28  30  8
29  31  8
30  31  8
9  32  6
$$$$
