511025
  -OEChem-10302200282D
 77 79  0     1  0  0  0  0  0999 V2000
   16.3179    3.0721    0.0000 O   0  0  0  0  0  0  0  0  0  0  0  0
   18.6693    1.9920    0.0000 O   0  0  0  0  0  0  0  0  0  0  0  0
   18.6622    4.1676    0.0000 O   0  0  0  0  0  0  0  0  0  0  0  0
   15.6122    5.0378    0.0000 O   0  0  0  0  0  0  0  0  0  0  0  0
   15.0905    2.5991    0.0000 O   0  0  0  0  0  0  0  0  0  0  0  0
   15.1114   -1.5977    0.0000 O   0  0  0  0  0  0  0  0  0  0  0  0
   16.6024    1.3130    0.0000 N   0  0  0  0  0  0  0  0  0  0  0  0
   16.6105   -0.2965    0.0000 N   0  0  0  0  0  0  0  0  0  0  0  0
   13.8990    1.3957    0.0000 N   0  0  0  0  0  0  0  0  0  0  0  0
   12.4696    0.4876    0.0000 N   0  0  0  0  0  0  0  0  0  0  0  0
   13.9080   -0.4062    0.0000 N   0  0  0  0  0  0  0  0  0  0  0  0
   17.8584    2.5771    0.0000 C   0  0  1  0  0  0  0  0  0  0  0  0
   16.9084    2.2650    0.0000 C   0  0  1  0  0  0  0  0  0  0  0  0
   17.8551    3.5771    0.0000 C   0  0  1  0  0  0  0  0  0  0  0  0
   16.9031    3.8830    0.0000 C   0  0  1  0  0  0  0  0  0  0  0  0
   16.5910    4.8331    0.0000 C   0  0  0  0  0  0  0  0  0  0  0  0
   15.6578    1.0035    0.0000 C   0  0  0  0  0  0  0  0  0  0  0  0
   17.1901    0.5112    0.0000 C   0  0  0  0  0  0  0  0  0  0  0  0
   15.6627    0.0035    0.0000 C   0  0  0  0  0  0  0  0  0  0  0  0
    7.4870   -3.0014    0.0000 C   0  0  0  0  0  0  0  0  0  0  0  0
    7.9826   -2.1329    0.0000 C   0  0  0  0  0  0  0  0  0  0  0  0
    6.4870   -3.0064    0.0000 C   0  0  0  0  0  0  0  0  0  0  0  0
    8.9826   -2.1279    0.0000 C   0  0  0  0  0  0  0  0  0  0  0  0
    5.9913   -3.8749    0.0000 C   0  0  0  0  0  0  0  0  0  0  0  0
    9.4783   -1.2594    0.0000 C   0  0  0  0  0  0  0  0  0  0  0  0
   14.8728    1.6231    0.0000 C   0  0  0  0  0  0  0  0  0  0  0  0
   10.4783   -1.2544    0.0000 C   0  0  0  0  0  0  0  0  0  0  0  0
    4.9913   -3.8799    0.0000 C   0  0  0  0  0  0  0  0  0  0  0  0
   10.9740   -0.3859    0.0000 C   0  0  0  0  0  0  0  0  0  0  0  0
    4.4957   -4.7484    0.0000 C   0  0  0  0  0  0  0  0  0  0  0  0
   14.8840   -0.6238    0.0000 C   0  0  0  0  0  0  0  0  0  0  0  0
   11.9740   -0.3809    0.0000 C   0  0  0  0  0  0  0  0  0  0  0  0
    3.4957   -4.7534    0.0000 C   0  0  0  0  0  0  0  0  0  0  0  0
   13.4696    0.4926    0.0000 C   0  0  0  0  0  0  0  0  0  0  0  0
    3.0000   -5.6219    0.0000 C   0  0  0  0  0  0  0  0  0  0  0  0
    2.0000   -5.6268    0.0000 C   0  0  0  0  0  0  0  0  0  0  0  0
   18.4099    2.8604    0.0000 H   0  0  0  0  0  0  0  0  0  0  0  0
   17.3482    1.8280    0.0000 H   0  0  0  0  0  0  0  0  0  0  0  0
   18.4085    3.2975    0.0000 H   0  0  0  0  0  0  0  0  0  0  0  0
   16.2904    3.9780    0.0000 H   0  0  0  0  0  0  0  0  0  0  0  0
   17.2047    4.9214    0.0000 H   0  0  0  0  0  0  0  0  0  0  0  0
   16.6106    5.4528    0.0000 H   0  0  0  0  0  0  0  0  0  0  0  0
   19.2349    2.2460    0.0000 H   0  0  0  0  0  0  0  0  0  0  0  0
   18.5954    4.7839    0.0000 H   0  0  0  0  0  0  0  0  0  0  0  0
   17.8100    0.5142    0.0000 H   0  0  0  0  0  0  0  0  0  0  0  0
    7.3824   -3.6125    0.0000 H   0  0  0  0  0  0  0  0  0  0  0  0
    8.0706   -3.2105    0.0000 H   0  0  0  0  0  0  0  0  0  0  0  0
    8.0873   -1.5218    0.0000 H   0  0  0  0  0  0  0  0  0  0  0  0
    7.3990   -1.9237    0.0000 H   0  0  0  0  0  0  0  0  0  0  0  0
    6.5916   -2.3952    0.0000 H   0  0  0  0  0  0  0  0  0  0  0  0
    5.9033   -2.7972    0.0000 H   0  0  0  0  0  0  0  0  0  0  0  0
    8.8780   -2.7390    0.0000 H   0  0  0  0  0  0  0  0  0  0  0  0
    9.5663   -2.3370    0.0000 H   0  0  0  0  0  0  0  0  0  0  0  0
    5.8867   -4.4860    0.0000 H   0  0  0  0  0  0  0  0  0  0  0  0
    6.5750   -4.0840    0.0000 H   0  0  0  0  0  0  0  0  0  0  0  0
    9.5829   -0.6483    0.0000 H   0  0  0  0  0  0  0  0  0  0  0  0
    8.8947   -1.0502    0.0000 H   0  0  0  0  0  0  0  0  0  0  0  0
   10.3737   -1.8655    0.0000 H   0  0  0  0  0  0  0  0  0  0  0  0
   11.0620   -1.4635    0.0000 H   0  0  0  0  0  0  0  0  0  0  0  0
    5.0959   -3.2688    0.0000 H   0  0  0  0  0  0  0  0  0  0  0  0
    4.4077   -3.6707    0.0000 H   0  0  0  0  0  0  0  0  0  0  0  0
   15.4186    5.6268    0.0000 H   0  0  0  0  0  0  0  0  0  0  0  0
   11.0786    0.2252    0.0000 H   0  0  0  0  0  0  0  0  0  0  0  0
   10.3903   -0.1767    0.0000 H   0  0  0  0  0  0  0  0  0  0  0  0
    4.3910   -5.3595    0.0000 H   0  0  0  0  0  0  0  0  0  0  0  0
    5.0793   -4.9575    0.0000 H   0  0  0  0  0  0  0  0  0  0  0  0
   11.8693   -0.9920    0.0000 H   0  0  0  0  0  0  0  0  0  0  0  0
   12.5576   -0.5900    0.0000 H   0  0  0  0  0  0  0  0  0  0  0  0
   13.5100    1.8785    0.0000 H   0  0  0  0  0  0  0  0  0  0  0  0
    3.6003   -4.1422    0.0000 H   0  0  0  0  0  0  0  0  0  0  0  0
    2.9120   -4.5442    0.0000 H   0  0  0  0  0  0  0  0  0  0  0  0
   12.1570    1.0230    0.0000 H   0  0  0  0  0  0  0  0  0  0  0  0
    2.8954   -6.2330    0.0000 H   0  0  0  0  0  0  0  0  0  0  0  0
    3.5836   -5.8310    0.0000 H   0  0  0  0  0  0  0  0  0  0  0  0
    1.9969   -5.0069    0.0000 H   0  0  0  0  0  0  0  0  0  0  0  0
    1.3800   -5.6299    0.0000 H   0  0  0  0  0  0  0  0  0  0  0  0
    2.0031   -6.2468    0.0000 H   0  0  0  0  0  0  0  0  0  0  0  0
  1 13  1  0  0  0  0
  1 15  1  0  0  0  0
 12  2  1  1  0  0  0
  2 43  1  0  0  0  0
 14  3  1  1  0  0  0
  3 44  1  0  0  0  0
  4 16  1  0  0  0  0
  4 62  1  0  0  0  0
  5 26  2  0  0  0  0
  6 31  2  0  0  0  0
 13  7  1  6  0  0  0
  7 17  1  0  0  0  0
  7 18  1  0  0  0  0
  8 18  2  0  0  0  0
  8 19  1  0  0  0  0
  9 26  1  0  0  0  0
  9 34  1  0  0  0  0
  9 69  1  0  0  0  0
 10 32  1  0  0  0  0
 10 34  1  0  0  0  0
 10 72  1  0  0  0  0
 11 31  1  0  0  0  0
 11 34  2  0  0  0  0
 12 13  1  0  0  0  0
 12 14  1  0  0  0  0
 12 37  1  0  0  0  0
 13 38  1  0  0  0  0
 14 15  1  0  0  0  0
 14 39  1  0  0  0  0
 15 16  1  6  0  0  0
 15 40  1  0  0  0  0
 16 41  1  0  0  0  0
 16 42  1  0  0  0  0
 17 19  2  0  0  0  0
 17 26  1  0  0  0  0
 18 45  1  0  0  0  0
 19 31  1  0  0  0  0
 20 21  1  0  0  0  0
 20 22  1  0  0  0  0
 20 46  1  0  0  0  0
 20 47  1  0  0  0  0
 21 23  1  0  0  0  0
 21 48  1  0  0  0  0
 21 49  1  0  0  0  0
 22 24  1  0  0  0  0
 22 50  1  0  0  0  0
 22 51  1  0  0  0  0
 23 25  1  0  0  0  0
 23 52  1  0  0  0  0
 23 53  1  0  0  0  0
 24 28  1  0  0  0  0
 24 54  1  0  0  0  0
 24 55  1  0  0  0  0
 25 27  1  0  0  0  0
 25 56  1  0  0  0  0
 25 57  1  0  0  0  0
 27 29  1  0  0  0  0
 27 58  1  0  0  0  0
 27 59  1  0  0  0  0
 28 30  1  0  0  0  0
 28 60  1  0  0  0  0
 28 61  1  0  0  0  0
 29 32  1  0  0  0  0
 29 63  1  0  0  0  0
 29 64  1  0  0  0  0
 30 33  1  0  0  0  0
 30 65  1  0  0  0  0
 30 66  1  0  0  0  0
 32 67  1  0  0  0  0
 32 68  1  0  0  0  0
 33 35  1  0  0  0  0
 33 70  1  0  0  0  0
 33 71  1  0  0  0  0
 35 36  1  0  0  0  0
 35 73  1  0  0  0  0
 35 74  1  0  0  0  0
 36 75  1  0  0  0  0
 36 76  1  0  0  0  0
 36 77  1  0  0  0  0
M  END
> <PUBCHEM_COMPOUND_CID>
511025
> <PUBCHEM_COMPOUND_CANONICALIZED>
1
> <PUBCHEM_CACTVS_COMPLEXITY>
738
> <PUBCHEM_CACTVS_HBOND_ACCEPTOR>
7
> <PUBCHEM_CACTVS_HBOND_DONOR>
5
> <PUBCHEM_CACTVS_ROTATABLE_BOND>
16
> <PUBCHEM_CACTVS_SUBSKEYS>
AAADcfB7uAAAAAAAAAAAAAAAAAAAAWJAAAAAAAAABAAAAACBgAAAHgAQCAAACBzhlgYHkBfMFgCoAQVxdACAgC0XEKABWIGoVECDWBpAyCAeQYhPEQLTAWH1sIIAAAAAAAAAAAAAAAAAAAAAAAAAAAAAAA==
> <PUBCHEM_IUPAC_OPENEYE_NAME>
1-[(2R,3R,4S,5R)-3,4-dihydroxy-5-(hydroxymethyl)tetrahydrofuran-2-yl]-6-(tetradecylamino)-7H-imidazo[4,5-e][1,3]diazepine-4,8-dione
> <PUBCHEM_IUPAC_CAS_NAME>
1-[(2R,3R,4S,5R)-3,4-dihydroxy-5-(hydroxymethyl)-2-oxolanyl]-6-(tetradecylamino)-7H-imidazo[4,5-e][1,3]diazepine-4,8-dione
> <PUBCHEM_IUPAC_NAME_MARKUP>
1-[(2<I>R</I>,3<I>R</I>,4<I>S</I>,5<I>R</I>)-3,4-dihydroxy-5-(hydroxymethyl)oxolan-2-yl]-6-(tetradecylamino)-7<I>H</I>-imidazo[4,5-e][1,3]diazepine-4,8-dione
> <PUBCHEM_IUPAC_NAME>
1-[(2R,3R,4S,5R)-3,4-dihydroxy-5-(hydroxymethyl)oxolan-2-yl]-6-(tetradecylamino)-7H-imidazo[4,5-e][1,3]diazepine-4,8-dione
> <PUBCHEM_IUPAC_SYSTEMATIC_NAME>
1-[(2R,3R,4S,5R)-5-(hydroxymethyl)-3,4-bis(oxidanyl)oxolan-2-yl]-6-(tetradecylamino)-7H-imidazo[4,5-e][1,3]diazepine-4,8-dione
> <PUBCHEM_IUPAC_TRADITIONAL_NAME>
1-[(2R,3R,4S,5R)-3,4-dihydroxy-5-methylol-tetrahydrofuran-2-yl]-6-(myristylamino)-7H-imidazo[4,5-e][1,3]diazepine-4,8-quinone
> <PUBCHEM_IUPAC_INCHI>
InChI=1S/C25H41N5O6/c1-2-3-4-5-6-7-8-9-10-11-12-13-14-26-25-28-22(34)18-19(23(35)29-25)30(16-27-18)24-21(33)20(32)17(15-31)36-24/h16-17,20-21,24,31-33H,2-15H2,1H3,(H2,26,28,29,34,35)/t17-,20-,21-,24-/m1/s1
> <PUBCHEM_IUPAC_INCHIKEY>
SCMWIUGMIDFQBR-FGSUIDRYSA-N
> <PUBCHEM_XLOGP3>
5.1
> <PUBCHEM_EXACT_MASS>
507.30568404
> <PUBCHEM_MOLECULAR_FORMULA>
C25H41N5O6
> <PUBCHEM_MOLECULAR_WEIGHT>
507.6
> <PUBCHEM_OPENEYE_CAN_SMILES>
CCCCCCCCCCCCCCNC1=NC(=O)C2=C(C(=O)N1)N(C=N2)C3C(C(C(O3)CO)O)O
> <PUBCHEM_OPENEYE_ISO_SMILES>
CCCCCCCCCCCCCCNC1=NC(=O)C2=C(C(=O)N1)N(C=N2)[C@H]3[C@@H]([C@@H]([C@H](O3)CO)O)O
> <PUBCHEM_CACTVS_TPSA>
158
> <PUBCHEM_MONOISOTOPIC_WEIGHT>
507.30568404
> <PUBCHEM_TOTAL_CHARGE>
0
> <PUBCHEM_HEAVY_ATOM_COUNT>
36
> <PUBCHEM_ATOM_DEF_STEREO_COUNT>
4
> <PUBCHEM_ATOM_UDEF_STEREO_COUNT>
0
> <PUBCHEM_BOND_DEF_STEREO_COUNT>
0
> <PUBCHEM_BOND_UDEF_STEREO_COUNT>
0
> <PUBCHEM_ISOTOPIC_ATOM_COUNT>
0
> <PUBCHEM_COMPONENT_COUNT>
1
> <PUBCHEM_CACTVS_TAUTO_COUNT>
-1
> <PUBCHEM_COORDINATE_TYPE>
1
5
255
> <PUBCHEM_BONDANNOTATIONS>
11  31  8
11  34  8
15  16  6
17  19  8
17  26  8
19  31  8
12  2  5
14  3  5
13  7  6
7  17  8
7  18  8
8  18  8
8  19  8
9  26  8
9  34  8
$$$$
