511030
  -OEChem-10302200282D
 51 54  0     1  0  0  0  0  0999 V2000
    9.3353    1.7544    0.0000 O   0  0  0  0  0  0  0  0  0  0  0  0
   11.6867    0.6743    0.0000 O   0  0  0  0  0  0  0  0  0  0  0  0
   11.6796    2.8498    0.0000 O   0  0  0  0  0  0  0  0  0  0  0  0
    8.6295    3.7201    0.0000 O   0  0  0  0  0  0  0  0  0  0  0  0
    8.1078    1.2814    0.0000 O   0  0  0  0  0  0  0  0  0  0  0  0
    8.1288   -2.9154    0.0000 O   0  0  0  0  0  0  0  0  0  0  0  0
    9.6198   -0.0048    0.0000 N   0  0  0  0  0  0  0  0  0  0  0  0
    9.6278   -1.6142    0.0000 N   0  0  0  0  0  0  0  0  0  0  0  0
    6.9164    0.0780    0.0000 N   0  0  0  0  0  0  0  0  0  0  0  0
    6.9254   -1.7239    0.0000 N   0  0  0  0  0  0  0  0  0  0  0  0
    5.4870   -0.8301    0.0000 N   0  0  0  0  0  0  0  0  0  0  0  0
   10.8758    1.2594    0.0000 C   0  0  1  0  0  0  0  0  0  0  0  0
    9.9257    0.9473    0.0000 C   0  0  1  0  0  0  0  0  0  0  0  0
   10.8725    2.2594    0.0000 C   0  0  1  0  0  0  0  0  0  0  0  0
    9.9204    2.5653    0.0000 C   0  0  1  0  0  0  0  0  0  0  0  0
    9.6083    3.5154    0.0000 C   0  0  0  0  0  0  0  0  0  0  0  0
    8.6751   -0.3142    0.0000 C   0  0  0  0  0  0  0  0  0  0  0  0
   10.2074   -0.8066    0.0000 C   0  0  0  0  0  0  0  0  0  0  0  0
    8.6801   -1.3142    0.0000 C   0  0  0  0  0  0  0  0  0  0  0  0
    7.8902    0.3054    0.0000 C   0  0  0  0  0  0  0  0  0  0  0  0
    7.9014   -1.9416    0.0000 C   0  0  0  0  0  0  0  0  0  0  0  0
    6.4870   -0.8251    0.0000 C   0  0  0  0  0  0  0  0  0  0  0  0
    4.9913   -1.6986    0.0000 C   0  0  0  0  0  0  0  0  0  0  0  0
    3.9913   -1.7036    0.0000 C   0  0  0  0  0  0  0  0  0  0  0  0
    3.4957   -2.5721    0.0000 C   0  0  0  0  0  0  0  0  0  0  0  0
    4.0000   -3.4356    0.0000 C   0  0  0  0  0  0  0  0  0  0  0  0
    2.4957   -2.5771    0.0000 C   0  0  0  0  0  0  0  0  0  0  0  0
    3.5043   -4.3041    0.0000 C   0  0  0  0  0  0  0  0  0  0  0  0
    2.0000   -3.4456    0.0000 C   0  0  0  0  0  0  0  0  0  0  0  0
    2.5043   -4.3091    0.0000 C   0  0  0  0  0  0  0  0  0  0  0  0
   11.4273    1.5427    0.0000 H   0  0  0  0  0  0  0  0  0  0  0  0
   10.3656    0.5103    0.0000 H   0  0  0  0  0  0  0  0  0  0  0  0
   11.4258    1.9797    0.0000 H   0  0  0  0  0  0  0  0  0  0  0  0
    9.3078    2.6603    0.0000 H   0  0  0  0  0  0  0  0  0  0  0  0
   10.2220    3.6037    0.0000 H   0  0  0  0  0  0  0  0  0  0  0  0
    9.6280    4.1351    0.0000 H   0  0  0  0  0  0  0  0  0  0  0  0
   12.2523    0.9283    0.0000 H   0  0  0  0  0  0  0  0  0  0  0  0
   11.6128    3.4662    0.0000 H   0  0  0  0  0  0  0  0  0  0  0  0
   10.8274   -0.8035    0.0000 H   0  0  0  0  0  0  0  0  0  0  0  0
    8.4360    4.3091    0.0000 H   0  0  0  0  0  0  0  0  0  0  0  0
    6.5274    0.5608    0.0000 H   0  0  0  0  0  0  0  0  0  0  0  0
    5.1743   -0.2947    0.0000 H   0  0  0  0  0  0  0  0  0  0  0  0
    4.8867   -2.3097    0.0000 H   0  0  0  0  0  0  0  0  0  0  0  0
    5.5750   -1.9078    0.0000 H   0  0  0  0  0  0  0  0  0  0  0  0
    4.0960   -1.0925    0.0000 H   0  0  0  0  0  0  0  0  0  0  0  0
    3.4077   -1.4945    0.0000 H   0  0  0  0  0  0  0  0  0  0  0  0
    4.6200   -3.4325    0.0000 H   0  0  0  0  0  0  0  0  0  0  0  0
    2.1830   -2.0417    0.0000 H   0  0  0  0  0  0  0  0  0  0  0  0
    3.8170   -4.8395    0.0000 H   0  0  0  0  0  0  0  0  0  0  0  0
    1.3800   -3.4487    0.0000 H   0  0  0  0  0  0  0  0  0  0  0  0
    2.1970   -4.8476    0.0000 H   0  0  0  0  0  0  0  0  0  0  0  0
  1 13  1  0  0  0  0
  1 15  1  0  0  0  0
 12  2  1  1  0  0  0
  2 37  1  0  0  0  0
 14  3  1  1  0  0  0
  3 38  1  0  0  0  0
  4 16  1  0  0  0  0
  4 40  1  0  0  0  0
  5 20  2  0  0  0  0
  6 21  2  0  0  0  0
 13  7  1  6  0  0  0
  7 17  1  0  0  0  0
  7 18  1  0  0  0  0
  8 18  2  0  0  0  0
  8 19  1  0  0  0  0
  9 20  1  0  0  0  0
  9 22  1  0  0  0  0
  9 41  1  0  0  0  0
 10 21  1  0  0  0  0
 10 22  2  0  0  0  0
 11 22  1  0  0  0  0
 11 23  1  0  0  0  0
 11 42  1  0  0  0  0
 12 13  1  0  0  0  0
 12 14  1  0  0  0  0
 12 31  1  0  0  0  0
 13 32  1  0  0  0  0
 14 15  1  0  0  0  0
 14 33  1  0  0  0  0
 15 16  1  6  0  0  0
 15 34  1  0  0  0  0
 16 35  1  0  0  0  0
 16 36  1  0  0  0  0
 17 19  2  0  0  0  0
 17 20  1  0  0  0  0
 18 39  1  0  0  0  0
 19 21  1  0  0  0  0
 23 24  1  0  0  0  0
 23 43  1  0  0  0  0
 23 44  1  0  0  0  0
 24 25  1  0  0  0  0
 24 45  1  0  0  0  0
 24 46  1  0  0  0  0
 25 26  2  0  0  0  0
 25 27  1  0  0  0  0
 26 28  1  0  0  0  0
 26 47  1  0  0  0  0
 27 29  2  0  0  0  0
 27 48  1  0  0  0  0
 28 30  2  0  0  0  0
 28 49  1  0  0  0  0
 29 30  1  0  0  0  0
 29 50  1  0  0  0  0
 30 51  1  0  0  0  0
M  END
> <PUBCHEM_COMPOUND_CID>
511030
> <PUBCHEM_COMPOUND_CANONICALIZED>
1
> <PUBCHEM_CACTVS_COMPLEXITY>
684
> <PUBCHEM_CACTVS_HBOND_ACCEPTOR>
7
> <PUBCHEM_CACTVS_HBOND_DONOR>
5
> <PUBCHEM_CACTVS_ROTATABLE_BOND>
6
> <PUBCHEM_CACTVS_SUBSKEYS>
AAADceB7uAAAAAAAAAAAAAAAAAAAAWJAAAAwAAAABAAAAACBwAAAHgAQCAAADBzhngY1kJfMFgCoAyVzdACCgC03EKAJ2IGoVMiLeDrA2TGeYYhvkQLbiWf1sIIOAAAAAAAAAAAAAAAAAAAAAAAAAAAAAA==
> <PUBCHEM_IUPAC_OPENEYE_NAME>
1-[(2R,3R,4S,5R)-3,4-dihydroxy-5-(hydroxymethyl)tetrahydrofuran-2-yl]-6-(2-phenylethylamino)-7H-imidazo[4,5-e][1,3]diazepine-4,8-dione
> <PUBCHEM_IUPAC_CAS_NAME>
1-[(2R,3R,4S,5R)-3,4-dihydroxy-5-(hydroxymethyl)-2-oxolanyl]-6-(2-phenylethylamino)-7H-imidazo[4,5-e][1,3]diazepine-4,8-dione
> <PUBCHEM_IUPAC_NAME_MARKUP>
1-[(2<I>R</I>,3<I>R</I>,4<I>S</I>,5<I>R</I>)-3,4-dihydroxy-5-(hydroxymethyl)oxolan-2-yl]-6-(2-phenylethylamino)-7<I>H</I>-imidazo[4,5-e][1,3]diazepine-4,8-dione
> <PUBCHEM_IUPAC_NAME>
1-[(2R,3R,4S,5R)-3,4-dihydroxy-5-(hydroxymethyl)oxolan-2-yl]-6-(2-phenylethylamino)-7H-imidazo[4,5-e][1,3]diazepine-4,8-dione
> <PUBCHEM_IUPAC_SYSTEMATIC_NAME>
1-[(2R,3R,4S,5R)-5-(hydroxymethyl)-3,4-bis(oxidanyl)oxolan-2-yl]-6-(2-phenylethylamino)-7H-imidazo[4,5-e][1,3]diazepine-4,8-dione
> <PUBCHEM_IUPAC_TRADITIONAL_NAME>
1-[(2R,3R,4S,5R)-3,4-dihydroxy-5-methylol-tetrahydrofuran-2-yl]-6-(phenethylamino)-7H-imidazo[4,5-e][1,3]diazepine-4,8-quinone
> <PUBCHEM_IUPAC_INCHI>
InChI=1S/C19H21N5O6/c25-8-11-14(26)15(27)18(30-11)24-9-21-12-13(24)17(29)23-19(22-16(12)28)20-7-6-10-4-2-1-3-5-10/h1-5,9,11,14-15,18,25-27H,6-8H2,(H2,20,22,23,28,29)/t11-,14-,15-,18-/m1/s1
> <PUBCHEM_IUPAC_INCHIKEY>
HFCQNAODXVYNRS-XKLVTHTNSA-N
> <PUBCHEM_XLOGP3>
0.3
> <PUBCHEM_EXACT_MASS>
415.14918341
> <PUBCHEM_MOLECULAR_FORMULA>
C19H21N5O6
> <PUBCHEM_MOLECULAR_WEIGHT>
415.4
> <PUBCHEM_OPENEYE_CAN_SMILES>
C1=CC=C(C=C1)CCNC2=NC(=O)C3=C(C(=O)N2)N(C=N3)C4C(C(C(O4)CO)O)O
> <PUBCHEM_OPENEYE_ISO_SMILES>
C1=CC=C(C=C1)CCNC2=NC(=O)C3=C(C(=O)N2)N(C=N3)[C@H]4[C@@H]([C@@H]([C@H](O4)CO)O)O
> <PUBCHEM_CACTVS_TPSA>
158
> <PUBCHEM_MONOISOTOPIC_WEIGHT>
415.14918341
> <PUBCHEM_TOTAL_CHARGE>
0
> <PUBCHEM_HEAVY_ATOM_COUNT>
30
> <PUBCHEM_ATOM_DEF_STEREO_COUNT>
4
> <PUBCHEM_ATOM_UDEF_STEREO_COUNT>
0
> <PUBCHEM_BOND_DEF_STEREO_COUNT>
0
> <PUBCHEM_BOND_UDEF_STEREO_COUNT>
0
> <PUBCHEM_ISOTOPIC_ATOM_COUNT>
0
> <PUBCHEM_COMPONENT_COUNT>
1
> <PUBCHEM_CACTVS_TAUTO_COUNT>
-1
> <PUBCHEM_COORDINATE_TYPE>
1
5
255
> <PUBCHEM_BONDANNOTATIONS>
10  21  8
10  22  8
15  16  6
17  19  8
17  20  8
19  21  8
12  2  5
25  26  8
25  27  8
26  28  8
27  29  8
28  30  8
29  30  8
14  3  5
13  7  6
7  17  8
7  18  8
8  18  8
8  19  8
9  20  8
9  22  8
$$$$
