511015
  -OEChem-10302200282D
 41 43  0     1  0  0  0  0  0999 V2000
    6.3526    1.0575    0.0000 O   0  0  0  0  0  0  0  0  0  0  0  0
    8.7040   -0.0226    0.0000 O   0  0  0  0  0  0  0  0  0  0  0  0
    8.6969    2.1530    0.0000 O   0  0  0  0  0  0  0  0  0  0  0  0
    5.6468    3.0232    0.0000 O   0  0  0  0  0  0  0  0  0  0  0  0
    5.1252    0.5845    0.0000 O   0  0  0  0  0  0  0  0  0  0  0  0
    5.1461   -3.6122    0.0000 O   0  0  0  0  0  0  0  0  0  0  0  0
    6.6371   -0.7016    0.0000 N   0  0  0  0  0  0  0  0  0  0  0  0
    6.6451   -2.3111    0.0000 N   0  0  0  0  0  0  0  0  0  0  0  0
    3.9337   -0.6189    0.0000 N   0  0  0  0  0  0  0  0  0  0  0  0
    3.9427   -2.4208    0.0000 N   0  0  0  0  0  0  0  0  0  0  0  0
    2.5043   -1.5270    0.0000 N   0  0  0  0  0  0  0  0  0  0  0  0
    7.8931    0.5625    0.0000 C   0  0  1  0  0  0  0  0  0  0  0  0
    6.9430    0.2504    0.0000 C   0  0  1  0  0  0  0  0  0  0  0  0
    7.8898    1.5625    0.0000 C   0  0  1  0  0  0  0  0  0  0  0  0
    6.9378    1.8684    0.0000 C   0  0  1  0  0  0  0  0  0  0  0  0
    6.6256    2.8185    0.0000 C   0  0  0  0  0  0  0  0  0  0  0  0
    5.6924   -1.0111    0.0000 C   0  0  0  0  0  0  0  0  0  0  0  0
    7.2247   -1.5034    0.0000 C   0  0  0  0  0  0  0  0  0  0  0  0
    5.6974   -2.0111    0.0000 C   0  0  0  0  0  0  0  0  0  0  0  0
    4.9075   -0.3915    0.0000 C   0  0  0  0  0  0  0  0  0  0  0  0
    4.9187   -2.6385    0.0000 C   0  0  0  0  0  0  0  0  0  0  0  0
    3.5043   -1.5220    0.0000 C   0  0  0  0  0  0  0  0  0  0  0  0
    2.0086   -2.3955    0.0000 C   0  0  0  0  0  0  0  0  0  0  0  0
    2.0000   -0.6635    0.0000 C   0  0  0  0  0  0  0  0  0  0  0  0
    7.7981   -0.0501    0.0000 H   0  0  0  0  0  0  0  0  0  0  0  0
    7.3829   -0.1865    0.0000 H   0  0  0  0  0  0  0  0  0  0  0  0
    8.4432    1.2829    0.0000 H   0  0  0  0  0  0  0  0  0  0  0  0
    6.3251    1.9634    0.0000 H   0  0  0  0  0  0  0  0  0  0  0  0
    7.2393    2.9068    0.0000 H   0  0  0  0  0  0  0  0  0  0  0  0
    6.6453    3.4382    0.0000 H   0  0  0  0  0  0  0  0  0  0  0  0
    9.2696    0.2314    0.0000 H   0  0  0  0  0  0  0  0  0  0  0  0
    8.6301    2.7693    0.0000 H   0  0  0  0  0  0  0  0  0  0  0  0
    7.8447   -1.5004    0.0000 H   0  0  0  0  0  0  0  0  0  0  0  0
    5.4533    3.6122    0.0000 H   0  0  0  0  0  0  0  0  0  0  0  0
    3.5447   -0.1361    0.0000 H   0  0  0  0  0  0  0  0  0  0  0  0
    1.4702   -2.0882    0.0000 H   0  0  0  0  0  0  0  0  0  0  0  0
    1.7013   -2.9340    0.0000 H   0  0  0  0  0  0  0  0  0  0  0  0
    2.5471   -2.7028    0.0000 H   0  0  0  0  0  0  0  0  0  0  0  0
    2.5354   -0.3508    0.0000 H   0  0  0  0  0  0  0  0  0  0  0  0
    1.6873   -0.1281    0.0000 H   0  0  0  0  0  0  0  0  0  0  0  0
    1.4646   -0.9761    0.0000 H   0  0  0  0  0  0  0  0  0  0  0  0
  1 13  1  0  0  0  0
  1 15  1  0  0  0  0
 12  2  1  1  0  0  0
  2 31  1  0  0  0  0
 14  3  1  1  0  0  0
  3 32  1  0  0  0  0
  4 16  1  0  0  0  0
  4 34  1  0  0  0  0
  5 20  2  0  0  0  0
  6 21  2  0  0  0  0
 13  7  1  6  0  0  0
  7 17  1  0  0  0  0
  7 18  1  0  0  0  0
  8 18  2  0  0  0  0
  8 19  1  0  0  0  0
  9 20  1  0  0  0  0
  9 22  1  0  0  0  0
  9 35  1  0  0  0  0
 10 21  1  0  0  0  0
 10 22  2  0  0  0  0
 11 22  1  0  0  0  0
 11 23  1  0  0  0  0
 11 24  1  0  0  0  0
 12 13  1  0  0  0  0
 12 14  1  0  0  0  0
 12 25  1  0  0  0  0
 13 26  1  0  0  0  0
 14 15  1  0  0  0  0
 14 27  1  0  0  0  0
 15 16  1  6  0  0  0
 15 28  1  0  0  0  0
 16 29  1  0  0  0  0
 16 30  1  0  0  0  0
 17 19  2  0  0  0  0
 17 20  1  0  0  0  0
 18 33  1  0  0  0  0
 19 21  1  0  0  0  0
 23 36  1  0  0  0  0
 23 37  1  0  0  0  0
 23 38  1  0  0  0  0
 24 39  1  0  0  0  0
 24 40  1  0  0  0  0
 24 41  1  0  0  0  0
M  END
> <PUBCHEM_COMPOUND_CID>
511015
> <PUBCHEM_COMPOUND_CANONICALIZED>
1
> <PUBCHEM_CACTVS_COMPLEXITY>
569
> <PUBCHEM_CACTVS_HBOND_ACCEPTOR>
7
> <PUBCHEM_CACTVS_HBOND_DONOR>
4
> <PUBCHEM_CACTVS_ROTATABLE_BOND>
3
> <PUBCHEM_CACTVS_SUBSKEYS>
AAADceBzuAAAAAAAAAAAAAAAAAAAAWJAAAAAAAAABAAAAACBgAAAHgAQCAAACBzhlgYHkBfMFgCoAQVxdACAgC0XEKABWAGoVECDWBpAyCAeQYhPAQLTAWD1MAIAAAAAAAAAAAAAAAAAAAAAAAAAAAAAAA==
> <PUBCHEM_IUPAC_OPENEYE_NAME>
1-[(2R,3R,4S,5R)-3,4-dihydroxy-5-(hydroxymethyl)tetrahydrofuran-2-yl]-6-(dimethylamino)-7H-imidazo[4,5-e][1,3]diazepine-4,8-dione
> <PUBCHEM_IUPAC_CAS_NAME>
1-[(2R,3R,4S,5R)-3,4-dihydroxy-5-(hydroxymethyl)-2-oxolanyl]-6-(dimethylamino)-7H-imidazo[4,5-e][1,3]diazepine-4,8-dione
> <PUBCHEM_IUPAC_NAME_MARKUP>
1-[(2<I>R</I>,3<I>R</I>,4<I>S</I>,5<I>R</I>)-3,4-dihydroxy-5-(hydroxymethyl)oxolan-2-yl]-6-(dimethylamino)-7<I>H</I>-imidazo[4,5-e][1,3]diazepine-4,8-dione
> <PUBCHEM_IUPAC_NAME>
1-[(2R,3R,4S,5R)-3,4-dihydroxy-5-(hydroxymethyl)oxolan-2-yl]-6-(dimethylamino)-7H-imidazo[4,5-e][1,3]diazepine-4,8-dione
> <PUBCHEM_IUPAC_SYSTEMATIC_NAME>
6-(dimethylamino)-1-[(2R,3R,4S,5R)-5-(hydroxymethyl)-3,4-bis(oxidanyl)oxolan-2-yl]-7H-imidazo[4,5-e][1,3]diazepine-4,8-dione
> <PUBCHEM_IUPAC_TRADITIONAL_NAME>
1-[(2R,3R,4S,5R)-3,4-dihydroxy-5-methylol-tetrahydrofuran-2-yl]-6-(dimethylamino)-7H-imidazo[4,5-e][1,3]diazepine-4,8-quinone
> <PUBCHEM_IUPAC_INCHI>
InChI=1S/C13H17N5O6/c1-17(2)13-15-10(22)6-7(11(23)16-13)18(4-14-6)12-9(21)8(20)5(3-19)24-12/h4-5,8-9,12,19-21H,3H2,1-2H3,(H,15,16,22,23)/t5-,8-,9-,12-/m1/s1
> <PUBCHEM_IUPAC_INCHIKEY>
ARDBHHLYICFOJJ-JJNLEZRASA-N
> <PUBCHEM_XLOGP3>
-1.4
> <PUBCHEM_EXACT_MASS>
339.11788328
> <PUBCHEM_MOLECULAR_FORMULA>
C13H17N5O6
> <PUBCHEM_MOLECULAR_WEIGHT>
339.30
> <PUBCHEM_OPENEYE_CAN_SMILES>
CN(C)C1=NC(=O)C2=C(C(=O)N1)N(C=N2)C3C(C(C(O3)CO)O)O
> <PUBCHEM_OPENEYE_ISO_SMILES>
CN(C)C1=NC(=O)C2=C(C(=O)N1)N(C=N2)[C@H]3[C@@H]([C@@H]([C@H](O3)CO)O)O
> <PUBCHEM_CACTVS_TPSA>
150
> <PUBCHEM_MONOISOTOPIC_WEIGHT>
339.11788328
> <PUBCHEM_TOTAL_CHARGE>
0
> <PUBCHEM_HEAVY_ATOM_COUNT>
24
> <PUBCHEM_ATOM_DEF_STEREO_COUNT>
4
> <PUBCHEM_ATOM_UDEF_STEREO_COUNT>
0
> <PUBCHEM_BOND_DEF_STEREO_COUNT>
0
> <PUBCHEM_BOND_UDEF_STEREO_COUNT>
0
> <PUBCHEM_ISOTOPIC_ATOM_COUNT>
0
> <PUBCHEM_COMPONENT_COUNT>
1
> <PUBCHEM_CACTVS_TAUTO_COUNT>
-1
> <PUBCHEM_COORDINATE_TYPE>
1
5
255
> <PUBCHEM_BONDANNOTATIONS>
10  21  8
10  22  8
15  16  6
17  19  8
17  20  8
19  21  8
12  2  5
14  3  5
13  7  6
7  17  8
7  18  8
8  18  8
8  19  8
9  20  8
9  22  8
$$$$
