511034
  -OEChem-10302200282D
 85 88  0     1  0  0  0  0  0999 V2000
    5.4641    0.5000    0.0000 O   0  0  0  0  0  0  0  0  0  0  0  0
    5.4641    3.5000    0.0000 O   0  0  0  0  0  0  0  0  0  0  0  0
    3.7320    0.5000    0.0000 O   0  0  0  0  0  0  0  0  0  0  0  0
    3.7320    1.5000    0.0000 O   0  0  0  0  0  0  0  0  0  0  0  0
    5.4641   -1.5000    0.0000 O   0  0  0  0  0  0  0  0  0  0  0  0
    3.7320   -2.5000    0.0000 O   0  0  0  0  0  0  0  0  0  0  0  0
    7.1962    3.5000    0.0000 O   0  0  0  0  0  0  0  0  0  0  0  0
    3.7320    4.5000    0.0000 O   0  0  0  0  0  0  0  0  0  0  0  0
    8.0622    3.0000    0.0000 O   0  0  0  0  0  0  0  0  0  0  0  0
    2.8660    3.0000    0.0000 O   0  0  0  0  0  0  0  0  0  0  0  0
    2.0000    4.5000    0.0000 O   0  0  0  0  0  0  0  0  0  0  0  0
    7.1962    1.5000    0.0000 N   0  0  0  0  0  0  0  0  0  0  0  0
    5.4641    1.5000    0.0000 C   0  0  2  0  0  0  0  0  0  0  0  0
    4.5981    2.0000    0.0000 C   0  0  1  0  0  0  0  0  0  0  0  0
    6.3301    2.0000    0.0000 C   0  0  2  0  0  0  0  0  0  0  0  0
    4.5981    0.0000    0.0000 C   0  0  2  0  0  0  0  0  0  0  0  0
    4.5981   -1.0000    0.0000 C   0  0  1  0  0  0  0  0  0  0  0  0
    4.5981    3.0000    0.0000 C   0  0  1  0  0  0  0  0  0  0  0  0
    3.7320   -1.5000    0.0000 C   0  0  1  0  0  0  0  0  0  0  0  0
    6.3301    3.0000    0.0000 C   0  0  3  0  0  0  0  0  0  0  0  0
    2.8660   -1.0000    0.0000 C   0  0  0  0  0  0  0  0  0  0  0  0
    2.8660    0.0000    0.0000 C   0  0  2  0  0  0  0  0  0  0  0  0
    3.7320    3.5000    0.0000 C   0  0  0  0  0  0  0  0  0  0  0  0
    2.0000    0.5000    0.0000 C   0  0  0  0  0  0  0  0  0  0  0  0
    8.0622    2.0000    0.0000 C   0  0  0  0  0  0  0  0  0  0  0  0
    5.4641   -2.5000    0.0000 C   0  0  0  0  0  0  0  0  0  0  0  0
    2.8660   -3.0000    0.0000 C   0  0  0  0  0  0  0  0  0  0  0  0
    2.8660    2.0000    0.0000 C   0  0  0  0  0  0  0  0  0  0  0  0
    6.3301   -3.0000    0.0000 C   0  0  0  0  0  0  0  0  0  0  0  0
    8.9282    1.5000    0.0000 C   0  0  0  0  0  0  0  0  0  0  0  0
    2.8660   -4.0000    0.0000 C   0  0  0  0  0  0  0  0  0  0  0  0
    2.0000    1.5000    0.0000 C   0  0  0  0  0  0  0  0  0  0  0  0
    2.8660    5.0000    0.0000 C   0  0  0  0  0  0  0  0  0  0  0  0
    7.1962   -2.5000    0.0000 C   0  0  0  0  0  0  0  0  0  0  0  0
    6.3301   -4.0000    0.0000 C   0  0  0  0  0  0  0  0  0  0  0  0
    3.7320   -4.5000    0.0000 C   0  0  0  0  0  0  0  0  0  0  0  0
    2.0000   -4.5000    0.0000 C   0  0  0  0  0  0  0  0  0  0  0  0
    2.8660    6.0000    0.0000 C   0  0  0  0  0  0  0  0  0  0  0  0
    8.0622   -3.0000    0.0000 C   0  0  0  0  0  0  0  0  0  0  0  0
    7.1962   -4.5000    0.0000 C   0  0  0  0  0  0  0  0  0  0  0  0
    3.7320   -5.5000    0.0000 C   0  0  0  0  0  0  0  0  0  0  0  0
    2.0000   -5.5000    0.0000 C   0  0  0  0  0  0  0  0  0  0  0  0
    8.0622   -4.0000    0.0000 C   0  0  0  0  0  0  0  0  0  0  0  0
    2.8660   -6.0000    0.0000 C   0  0  0  0  0  0  0  0  0  0  0  0
    6.0010    1.1900    0.0000 H   0  0  0  0  0  0  0  0  0  0  0  0
    4.5981    1.3800    0.0000 H   0  0  0  0  0  0  0  0  0  0  0  0
    6.8671    2.3100    0.0000 H   0  0  0  0  0  0  0  0  0  0  0  0
    4.5981    0.6200    0.0000 H   0  0  0  0  0  0  0  0  0  0  0  0
    4.5981   -1.6200    0.0000 H   0  0  0  0  0  0  0  0  0  0  0  0
    4.5981    3.6200    0.0000 H   0  0  0  0  0  0  0  0  0  0  0  0
    3.1951   -1.8100    0.0000 H   0  0  0  0  0  0  0  0  0  0  0  0
    6.3301    3.6200    0.0000 H   0  0  0  0  0  0  0  0  0  0  0  0
    2.2554   -0.8923    0.0000 H   0  0  0  0  0  0  0  0  0  0  0  0
    2.6540   -1.5826    0.0000 H   0  0  0  0  0  0  0  0  0  0  0  0
    2.8660    0.6200    0.0000 H   0  0  0  0  0  0  0  0  0  0  0  0
    3.1215    3.6077    0.0000 H   0  0  0  0  0  0  0  0  0  0  0  0
    3.5200    2.9174    0.0000 H   0  0  0  0  0  0  0  0  0  0  0  0
    7.1962    0.8800    0.0000 H   0  0  0  0  0  0  0  0  0  0  0  0
    2.3100    1.0369    0.0000 H   0  0  0  0  0  0  0  0  0  0  0  0
    1.4631    0.8100    0.0000 H   0  0  0  0  0  0  0  0  0  0  0  0
    1.6900   -0.0369    0.0000 H   0  0  0  0  0  0  0  0  0  0  0  0
    7.1962    4.1200    0.0000 H   0  0  0  0  0  0  0  0  0  0  0  0
    4.8535   -2.3923    0.0000 H   0  0  0  0  0  0  0  0  0  0  0  0
    5.2520   -3.0826    0.0000 H   0  0  0  0  0  0  0  0  0  0  0  0
    2.6540   -2.4174    0.0000 H   0  0  0  0  0  0  0  0  0  0  0  0
    2.2554   -3.1077    0.0000 H   0  0  0  0  0  0  0  0  0  0  0  0
    8.6182    0.9631    0.0000 H   0  0  0  0  0  0  0  0  0  0  0  0
    9.4651    1.1900    0.0000 H   0  0  0  0  0  0  0  0  0  0  0  0
    9.2382    2.0369    0.0000 H   0  0  0  0  0  0  0  0  0  0  0  0
    1.6900    2.0369    0.0000 H   0  0  0  0  0  0  0  0  0  0  0  0
    1.4631    1.1900    0.0000 H   0  0  0  0  0  0  0  0  0  0  0  0
    2.3100    0.9631    0.0000 H   0  0  0  0  0  0  0  0  0  0  0  0
    7.1962   -1.8800    0.0000 H   0  0  0  0  0  0  0  0  0  0  0  0
    5.7932   -4.3100    0.0000 H   0  0  0  0  0  0  0  0  0  0  0  0
    4.2690   -4.1900    0.0000 H   0  0  0  0  0  0  0  0  0  0  0  0
    1.4631   -4.1900    0.0000 H   0  0  0  0  0  0  0  0  0  0  0  0
    3.4860    6.0000    0.0000 H   0  0  0  0  0  0  0  0  0  0  0  0
    2.8660    6.6200    0.0000 H   0  0  0  0  0  0  0  0  0  0  0  0
    2.2460    6.0000    0.0000 H   0  0  0  0  0  0  0  0  0  0  0  0
    8.5991   -2.6900    0.0000 H   0  0  0  0  0  0  0  0  0  0  0  0
    7.1962   -5.1200    0.0000 H   0  0  0  0  0  0  0  0  0  0  0  0
    4.2690   -5.8100    0.0000 H   0  0  0  0  0  0  0  0  0  0  0  0
    1.4631   -5.8100    0.0000 H   0  0  0  0  0  0  0  0  0  0  0  0
    8.5991   -4.3100    0.0000 H   0  0  0  0  0  0  0  0  0  0  0  0
    2.8660   -6.6200    0.0000 H   0  0  0  0  0  0  0  0  0  0  0  0
 13  1  1  6  0  0  0
 16  1  1  1  0  0  0
  2 18  1  0  0  0  0
  2 20  1  0  0  0  0
  3 16  1  0  0  0  0
  3 22  1  0  0  0  0
 14  4  1  6  0  0  0
  4 28  1  0  0  0  0
 17  5  1  6  0  0  0
  5 26  1  0  0  0  0
 19  6  1  6  0  0  0
  6 27  1  0  0  0  0
  7 20  1  0  0  0  0
  7 62  1  0  0  0  0
  8 23  1  0  0  0  0
  8 33  1  0  0  0  0
  9 25  2  0  0  0  0
 10 28  2  0  0  0  0
 11 33  2  0  0  0  0
 15 12  1  6  0  0  0
 12 25  1  0  0  0  0
 12 58  1  0  0  0  0
 13 14  1  0  0  0  0
 13 15  1  0  0  0  0
 13 45  1  0  0  0  0
 14 18  1  0  0  0  0
 14 46  1  0  0  0  0
 15 20  1  0  0  0  0
 15 47  1  0  0  0  0
 16 17  1  0  0  0  0
 16 48  1  0  0  0  0
 17 19  1  0  0  0  0
 17 49  1  0  0  0  0
 18 23  1  1  0  0  0
 18 50  1  0  0  0  0
 19 21  1  0  0  0  0
 19 51  1  0  0  0  0
 20 52  1  0  0  0  0
 21 22  1  0  0  0  0
 21 53  1  0  0  0  0
 21 54  1  0  0  0  0
 22 24  1  6  0  0  0
 22 55  1  0  0  0  0
 23 56  1  0  0  0  0
 23 57  1  0  0  0  0
 24 59  1  0  0  0  0
 24 60  1  0  0  0  0
 24 61  1  0  0  0  0
 25 30  1  0  0  0  0
 26 29  1  0  0  0  0
 26 63  1  0  0  0  0
 26 64  1  0  0  0  0
 27 31  1  0  0  0  0
 27 65  1  0  0  0  0
 27 66  1  0  0  0  0
 28 32  1  0  0  0  0
 29 34  2  0  0  0  0
 29 35  1  0  0  0  0
 30 67  1  0  0  0  0
 30 68  1  0  0  0  0
 30 69  1  0  0  0  0
 31 36  2  0  0  0  0
 31 37  1  0  0  0  0
 32 70  1  0  0  0  0
 32 71  1  0  0  0  0
 32 72  1  0  0  0  0
 33 38  1  0  0  0  0
 34 39  1  0  0  0  0
 34 73  1  0  0  0  0
 35 40  2  0  0  0  0
 35 74  1  0  0  0  0
 36 41  1  0  0  0  0
 36 75  1  0  0  0  0
 37 42  2  0  0  0  0
 37 76  1  0  0  0  0
 38 77  1  0  0  0  0
 38 78  1  0  0  0  0
 38 79  1  0  0  0  0
 39 43  2  0  0  0  0
 39 80  1  0  0  0  0
 40 43  1  0  0  0  0
 40 81  1  0  0  0  0
 41 44  2  0  0  0  0
 41 82  1  0  0  0  0
 42 44  1  0  0  0  0
 42 83  1  0  0  0  0
 43 84  1  0  0  0  0
 44 85  1  0  0  0  0
M  END
> <PUBCHEM_COMPOUND_CID>
511034
> <PUBCHEM_COMPOUND_CANONICALIZED>
1
> <PUBCHEM_CACTVS_COMPLEXITY>
922
> <PUBCHEM_CACTVS_HBOND_ACCEPTOR>
11
> <PUBCHEM_CACTVS_HBOND_DONOR>
2
> <PUBCHEM_CACTVS_ROTATABLE_BOND>
14
> <PUBCHEM_CACTVS_SUBSKEYS>
AAADcfB+PAAAAAAAAAAAAAAAAAAAAAAAAAA0aIEAAAAAAAABQAAAHgAQCAAADDzxmAcyCILABgCIAiHSGAACAAAgAAAIiIAICIgbNiKAsRincAAn1gGeqAfw8C8OAAAAAAAAAAAAAAAAAAAAAAAAAAAAAA==
> <PUBCHEM_IUPAC_OPENEYE_NAME>
[(2R,3S,4S,5R)-5-acetamido-3-acetoxy-4-[(2S,3R,4R,6S)-3,4-dibenzyloxy-6-methyl-tetrahydropyran-2-yl]oxy-6-hydroxy-tetrahydropyran-2-yl]methyl acetate
> <PUBCHEM_IUPAC_CAS_NAME>
acetic acid [(2R,3S,4S,5R)-5-acetamido-3-acetyloxy-6-hydroxy-4-[[(2S,3R,4R,6S)-6-methyl-3,4-bis(phenylmethoxy)-2-oxanyl]oxy]-2-oxanyl]methyl ester
> <PUBCHEM_IUPAC_NAME_MARKUP>
[(2<I>R</I>,3<I>S</I>,4<I>S</I>,5<I>R</I>)-5-acetamido-3-acetyloxy-6-hydroxy-4-[(2<I>S</I>,3<I>R</I>,4<I>R</I>,6<I>S</I>)-6-methyl-3,4-bis(phenylmethoxy)oxan-2-yl]oxyoxan-2-yl]methyl acetate
> <PUBCHEM_IUPAC_NAME>
[(2R,3S,4S,5R)-5-acetamido-3-acetyloxy-6-hydroxy-4-[(2S,3R,4R,6S)-6-methyl-3,4-bis(phenylmethoxy)oxan-2-yl]oxyoxan-2-yl]methyl acetate
> <PUBCHEM_IUPAC_SYSTEMATIC_NAME>
[(2R,3S,4S,5R)-5-acetamido-3-acetyloxy-4-[(2S,3R,4R,6S)-6-methyl-3,4-bis(phenylmethoxy)oxan-2-yl]oxy-6-oxidanyl-oxan-2-yl]methyl ethanoate
> <PUBCHEM_IUPAC_TRADITIONAL_NAME>
acetic acid [(2R,3S,4S,5R)-5-acetamido-3-acetoxy-4-[(2S,3R,4R,6S)-3,4-dibenzoxy-6-methyl-tetrahydropyran-2-yl]oxy-6-hydroxy-tetrahydropyran-2-yl]methyl ester
> <PUBCHEM_IUPAC_INCHI>
InChI=1S/C32H41NO11/c1-19-15-25(39-16-23-11-7-5-8-12-23)29(40-17-24-13-9-6-10-14-24)32(41-19)44-30-27(33-20(2)34)31(37)43-26(18-38-21(3)35)28(30)42-22(4)36/h5-14,19,25-32,37H,15-18H2,1-4H3,(H,33,34)/t19-,25+,26+,27+,28+,29+,30-,31?,32-/m0/s1
> <PUBCHEM_IUPAC_INCHIKEY>
XSQQICVHPZOUIP-ZEQPTOHJSA-N
> <PUBCHEM_XLOGP3_AA>
1.9
> <PUBCHEM_EXACT_MASS>
615.26796112
> <PUBCHEM_MOLECULAR_FORMULA>
C32H41NO11
> <PUBCHEM_MOLECULAR_WEIGHT>
615.7
> <PUBCHEM_OPENEYE_CAN_SMILES>
CC1CC(C(C(O1)OC2C(C(OC(C2OC(=O)C)COC(=O)C)O)NC(=O)C)OCC3=CC=CC=C3)OCC4=CC=CC=C4
> <PUBCHEM_OPENEYE_ISO_SMILES>
C[C@H]1C[C@H]([C@H]([C@@H](O1)O[C@@H]2[C@@H]([C@H](OC([C@@H]2NC(=O)C)O)COC(=O)C)OC(=O)C)OCC3=CC=CC=C3)OCC4=CC=CC=C4
> <PUBCHEM_CACTVS_TPSA>
148
> <PUBCHEM_MONOISOTOPIC_WEIGHT>
615.26796112
> <PUBCHEM_TOTAL_CHARGE>
0
> <PUBCHEM_HEAVY_ATOM_COUNT>
44
> <PUBCHEM_ATOM_DEF_STEREO_COUNT>
8
> <PUBCHEM_ATOM_UDEF_STEREO_COUNT>
1
> <PUBCHEM_BOND_DEF_STEREO_COUNT>
0
> <PUBCHEM_BOND_UDEF_STEREO_COUNT>
0
> <PUBCHEM_ISOTOPIC_ATOM_COUNT>
0
> <PUBCHEM_COMPONENT_COUNT>
1
> <PUBCHEM_CACTVS_TAUTO_COUNT>
-1
> <PUBCHEM_COORDINATE_TYPE>
1
5
255
> <PUBCHEM_BONDANNOTATIONS>
13  1  6
16  1  5
15  12  6
18  23  5
22  24  6
29  34  8
29  35  8
31  36  8
31  37  8
34  39  8
35  40  8
36  41  8
37  42  8
39  43  8
14  4  6
40  43  8
41  44  8
42  44  8
17  5  6
19  6  6
20  7  3
$$$$
