511076
  -OEChem-10302200282D
 64 69  0     1  0  0  0  0  0999 V2000
    9.6238    0.5073    0.0000 S   0  0  0  0  0  0  0  0  0  0  0  0
    3.6982   -0.4009    0.0000 O   0  0  0  0  0  0  0  0  0  0  0  0
    4.1390   -3.5420    0.0000 O   0  0  0  0  0  0  0  0  0  0  0  0
    7.6558    0.2067    0.0000 O   0  0  0  0  0  0  0  0  0  0  0  0
    8.6238    0.5073    0.0000 O   0  0  0  0  0  0  0  0  0  0  0  0
   10.6238    0.5073    0.0000 O   0  0  0  0  0  0  0  0  0  0  0  0
    7.1206   -1.4406    0.0000 N   0  0  0  0  0  0  0  0  0  0  0  0
    4.6714   -1.8938    0.0000 N   0  0  0  0  0  0  0  0  0  0  0  0
    9.6238   -0.4927    0.0000 N   0  0  3  0  0  0  0  0  0  0  0  0
    6.1484   -1.2331    0.0000 C   0  0  1  0  0  0  0  0  0  0  0  0
    5.6499   -2.1000    0.0000 C   0  0  2  0  0  0  0  0  0  0  0  0
    5.4780   -0.4911    0.0000 C   0  0  1  0  0  0  0  0  0  0  0  0
    6.3182   -2.8358    0.0000 C   0  0  0  0  0  0  0  0  0  0  0  0
    7.2253   -2.4292    0.0000 C   0  0  0  0  0  0  0  0  0  0  0  0
    2.9778   -2.2568    0.0000 C   0  0  0  0  0  0  0  0  0  0  0  0
    4.5651   -0.8994    0.0000 C   0  0  0  0  0  0  0  0  0  0  0  0
    3.9294   -2.5642    0.0000 C   0  0  0  0  0  0  0  0  0  0  0  0
    2.3074   -1.5148    0.0000 C   0  0  0  0  0  0  0  0  0  0  0  0
    2.0000   -2.4664    0.0000 C   0  0  0  0  0  0  0  0  0  0  0  0
    7.8637   -0.7715    0.0000 C   0  0  0  0  0  0  0  0  0  0  0  0
    8.8148   -1.0805    0.0000 C   0  0  2  0  0  0  0  0  0  0  0  0
    5.6842    0.4874    0.0000 C   0  0  0  0  0  0  0  0  0  0  0  0
    9.1238   -2.0316    0.0000 C   0  0  0  0  0  0  0  0  0  0  0  0
   10.1238   -2.0316    0.0000 C   0  0  0  0  0  0  0  0  0  0  0  0
   10.4328   -1.0805    0.0000 C   0  0  0  0  0  0  0  0  0  0  0  0
    9.6238    1.5073    0.0000 C   0  0  0  0  0  0  0  0  0  0  0  0
   10.4898    2.0073    0.0000 C   0  0  0  0  0  0  0  0  0  0  0  0
    8.7577    2.0073    0.0000 C   0  0  0  0  0  0  0  0  0  0  0  0
   10.4898    3.0073    0.0000 C   0  0  0  0  0  0  0  0  0  0  0  0
    8.7577    3.0073    0.0000 C   0  0  0  0  0  0  0  0  0  0  0  0
   11.3837    1.4726    0.0000 C   0  0  0  0  0  0  0  0  0  0  0  0
    9.6238    3.5073    0.0000 C   0  0  0  0  0  0  0  0  0  0  0  0
   11.3837    3.5420    0.0000 C   0  0  0  0  0  0  0  0  0  0  0  0
   12.2898    1.9865    0.0000 C   0  0  0  0  0  0  0  0  0  0  0  0
   12.2898    3.0281    0.0000 C   0  0  0  0  0  0  0  0  0  0  0  0
    6.5730   -0.4968    0.0000 H   0  0  0  0  0  0  0  0  0  0  0  0
    5.2271   -2.8374    0.0000 H   0  0  0  0  0  0  0  0  0  0  0  0
    6.0766   -0.3296    0.0000 H   0  0  0  0  0  0  0  0  0  0  0  0
    5.8180   -3.2021    0.0000 H   0  0  0  0  0  0  0  0  0  0  0  0
    6.6299   -3.3718    0.0000 H   0  0  0  0  0  0  0  0  0  0  0  0
    7.4181   -3.0184    0.0000 H   0  0  0  0  0  0  0  0  0  0  0  0
    7.8316   -2.2994    0.0000 H   0  0  0  0  0  0  0  0  0  0  0  0
    2.9464   -2.8760    0.0000 H   0  0  0  0  0  0  0  0  0  0  0  0
    2.6882   -1.0256    0.0000 H   0  0  0  0  0  0  0  0  0  0  0  0
    1.7594   -1.2247    0.0000 H   0  0  0  0  0  0  0  0  0  0  0  0
    1.3859   -2.3812    0.0000 H   0  0  0  0  0  0  0  0  0  0  0  0
    2.0227   -3.0860    0.0000 H   0  0  0  0  0  0  0  0  0  0  0  0
    8.7178   -0.4681    0.0000 H   0  0  0  0  0  0  0  0  0  0  0  0
    6.2908    0.3596    0.0000 H   0  0  0  0  0  0  0  0  0  0  0  0
    5.8120    1.0941    0.0000 H   0  0  0  0  0  0  0  0  0  0  0  0
    5.0775    0.6153    0.0000 H   0  0  0  0  0  0  0  0  0  0  0  0
    8.5173   -2.1604    0.0000 H   0  0  0  0  0  0  0  0  0  0  0  0
    9.1886   -2.6481    0.0000 H   0  0  0  0  0  0  0  0  0  0  0  0
   10.0590   -2.6481    0.0000 H   0  0  0  0  0  0  0  0  0  0  0  0
   10.7302   -2.1604    0.0000 H   0  0  0  0  0  0  0  0  0  0  0  0
   10.9992   -1.3327    0.0000 H   0  0  0  0  0  0  0  0  0  0  0  0
   10.7428   -0.5436    0.0000 H   0  0  0  0  0  0  0  0  0  0  0  0
    8.2208    1.6973    0.0000 H   0  0  0  0  0  0  0  0  0  0  0  0
    8.2208    3.3173    0.0000 H   0  0  0  0  0  0  0  0  0  0  0  0
   11.3766    0.8527    0.0000 H   0  0  0  0  0  0  0  0  0  0  0  0
    9.6238    4.1273    0.0000 H   0  0  0  0  0  0  0  0  0  0  0  0
   11.3766    4.1619    0.0000 H   0  0  0  0  0  0  0  0  0  0  0  0
   12.8255    1.6744    0.0000 H   0  0  0  0  0  0  0  0  0  0  0  0
   12.8255    3.3402    0.0000 H   0  0  0  0  0  0  0  0  0  0  0  0
  1  5  2  0  0  0  0
  1  6  2  0  0  0  0
  1  9  1  0  0  0  0
  1 26  1  0  0  0  0
  2 16  2  0  0  0  0
  3 17  2  0  0  0  0
  4 20  2  0  0  0  0
  7 10  1  0  0  0  0
  7 14  1  0  0  0  0
  7 20  1  0  0  0  0
  8 11  1  0  0  0  0
  8 16  1  0  0  0  0
  8 17  1  0  0  0  0
  9 21  1  0  0  0  0
  9 25  1  0  0  0  0
 10 11  1  0  0  0  0
 10 12  1  0  0  0  0
 10 36  1  6  0  0  0
 11 13  1  0  0  0  0
 11 37  1  1  0  0  0
 12 16  1  0  0  0  0
 12 22  1  1  0  0  0
 12 38  1  0  0  0  0
 13 14  1  0  0  0  0
 13 39  1  0  0  0  0
 13 40  1  0  0  0  0
 14 41  1  0  0  0  0
 14 42  1  0  0  0  0
 15 17  1  0  0  0  0
 15 18  1  0  0  0  0
 15 19  1  0  0  0  0
 15 43  1  0  0  0  0
 18 19  1  0  0  0  0
 18 44  1  0  0  0  0
 18 45  1  0  0  0  0
 19 46  1  0  0  0  0
 19 47  1  0  0  0  0
 21 20  1  1  0  0  0
 21 23  1  0  0  0  0
 21 48  1  0  0  0  0
 22 49  1  0  0  0  0
 22 50  1  0  0  0  0
 22 51  1  0  0  0  0
 23 24  1  0  0  0  0
 23 52  1  0  0  0  0
 23 53  1  0  0  0  0
 24 25  1  0  0  0  0
 24 54  1  0  0  0  0
 24 55  1  0  0  0  0
 25 56  1  0  0  0  0
 25 57  1  0  0  0  0
 26 27  1  0  0  0  0
 26 28  2  0  0  0  0
 27 29  1  0  0  0  0
 27 31  2  0  0  0  0
 28 30  1  0  0  0  0
 28 58  1  0  0  0  0
 29 32  1  0  0  0  0
 29 33  2  0  0  0  0
 30 32  2  0  0  0  0
 30 59  1  0  0  0  0
 31 34  1  0  0  0  0
 31 60  1  0  0  0  0
 32 61  1  0  0  0  0
 33 35  1  0  0  0  0
 33 62  1  0  0  0  0
 34 35  2  0  0  0  0
 34 63  1  0  0  0  0
 35 64  1  0  0  0  0
M  END
> <PUBCHEM_COMPOUND_CID>
511076
> <PUBCHEM_COMPOUND_CANONICALIZED>
1
> <PUBCHEM_CACTVS_COMPLEXITY>
1000
> <PUBCHEM_CACTVS_HBOND_ACCEPTOR>
6
> <PUBCHEM_CACTVS_HBOND_DONOR>
0
> <PUBCHEM_CACTVS_ROTATABLE_BOND>
4
> <PUBCHEM_CACTVS_SUBSKEYS>
AAADceB7OABAAAAAAAAAAAAAGAAAAWLFgAAwYAAAAAAWAADBUAAAHgQAQAAADSjB2AQyAcMAAAKIAiFSEHBCABAgAAAIiBmIAIgIYDqA0TCUIAAghiCIiAcciYAOgAAAgAAUAAAAAAEAACgAAAAAAAAAAA==
> <PUBCHEM_IUPAC_OPENEYE_NAME>
(3aS,6S,6aR)-4-(cyclopropanecarbonyl)-6-methyl-1-[(2S)-1-(1-naphthylsulfonyl)pyrrolidine-2-carbonyl]-3,3a,6,6a-tetrahydro-2H-pyrrolo[3,2-b]pyrrol-5-one
> <PUBCHEM_IUPAC_CAS_NAME>
(3aS,6S,6aR)-4-[cyclopropyl(oxo)methyl]-6-methyl-1-[[(2S)-1-(1-naphthalenylsulfonyl)-2-pyrrolidinyl]-oxomethyl]-3,3a,6,6a-tetrahydro-2H-pyrrolo[3,2-b]pyrrol-5-one
> <PUBCHEM_IUPAC_NAME_MARKUP>
(3<I>a</I><I>S</I>,6<I>S</I>,6<I>a</I><I>R</I>)-4-(cyclopropanecarbonyl)-6-methyl-1-[(2<I>S</I>)-1-naphthalen-1-ylsulfonylpyrrolidine-2-carbonyl]-3,3<I>a</I>,6,6<I>a</I>-tetrahydro-2<I>H</I>-pyrrolo[3,2-b]pyrrol-5-one
> <PUBCHEM_IUPAC_NAME>
(3aS,6S,6aR)-4-(cyclopropanecarbonyl)-6-methyl-1-[(2S)-1-naphthalen-1-ylsulfonylpyrrolidine-2-carbonyl]-3,3a,6,6a-tetrahydro-2H-pyrrolo[3,2-b]pyrrol-5-one
> <PUBCHEM_IUPAC_SYSTEMATIC_NAME>
(3aS,6S,6aR)-4-cyclopropylcarbonyl-6-methyl-1-[(2S)-1-naphthalen-1-ylsulfonylpyrrolidin-2-yl]carbonyl-3,3a,6,6a-tetrahydro-2H-pyrrolo[3,2-b]pyrrol-5-one
> <PUBCHEM_IUPAC_TRADITIONAL_NAME>
(3aS,6S,6aR)-4-(cyclopropanecarbonyl)-6-methyl-1-[(2S)-1-(1-naphthylsulfonyl)prolyl]-3,3a,6,6a-tetrahydro-2H-pyrrolo[3,2-b]pyrrol-5-one
> <PUBCHEM_IUPAC_INCHI>
InChI=1S/C26H29N3O5S/c1-16-23-20(29(24(16)30)25(31)18-11-12-18)13-15-27(23)26(32)21-9-5-14-28(21)35(33,34)22-10-4-7-17-6-2-3-8-19(17)22/h2-4,6-8,10,16,18,20-21,23H,5,9,11-15H2,1H3/t16-,20-,21-,23+/m0/s1
> <PUBCHEM_IUPAC_INCHIKEY>
SMTKKAQLSUXDPL-NGXQKHRBSA-N
> <PUBCHEM_XLOGP3_AA>
2.6
> <PUBCHEM_EXACT_MASS>
495.18279221
> <PUBCHEM_MOLECULAR_FORMULA>
C26H29N3O5S
> <PUBCHEM_MOLECULAR_WEIGHT>
495.6
> <PUBCHEM_OPENEYE_CAN_SMILES>
CC1C2C(CCN2C(=O)C3CCCN3S(=O)(=O)C4=CC=CC5=CC=CC=C54)N(C1=O)C(=O)C6CC6
> <PUBCHEM_OPENEYE_ISO_SMILES>
C[C@H]1[C@@H]2[C@H](CCN2C(=O)[C@@H]3CCCN3S(=O)(=O)C4=CC=CC5=CC=CC=C54)N(C1=O)C(=O)C6CC6
> <PUBCHEM_CACTVS_TPSA>
103
> <PUBCHEM_MONOISOTOPIC_WEIGHT>
495.18279221
> <PUBCHEM_TOTAL_CHARGE>
0
> <PUBCHEM_HEAVY_ATOM_COUNT>
35
> <PUBCHEM_ATOM_DEF_STEREO_COUNT>
4
> <PUBCHEM_ATOM_UDEF_STEREO_COUNT>
0
> <PUBCHEM_BOND_DEF_STEREO_COUNT>
0
> <PUBCHEM_BOND_UDEF_STEREO_COUNT>
0
> <PUBCHEM_ISOTOPIC_ATOM_COUNT>
0
> <PUBCHEM_COMPONENT_COUNT>
1
> <PUBCHEM_CACTVS_TAUTO_COUNT>
-1
> <PUBCHEM_COORDINATE_TYPE>
1
5
255
> <PUBCHEM_BONDANNOTATIONS>
10  36  6
11  37  5
12  22  5
21  20  5
26  27  8
26  28  8
27  29  8
27  31  8
28  30  8
29  32  8
29  33  8
30  32  8
31  34  8
33  35  8
34  35  8
$$$$
