511000
  -OEChem-10302200282D
 34 35  0     1  0  0  0  0  0999 V2000
    2.0000   -0.3973    0.0000 F   0  0  0  0  0  0  0  0  0  0  0  0
    4.5691   -0.7063    0.0000 O   0  0  0  0  0  0  0  0  0  0  0  0
    3.0790   -3.3799    0.0000 O   0  0  0  0  0  0  0  0  0  0  0  0
    5.8424   -2.3618    0.0000 O   0  0  0  0  0  0  0  0  0  0  0  0
    5.4921    0.8815    0.0000 O   0  0  0  0  0  0  0  0  0  0  0  0
    3.7601    3.8815    0.0000 O   0  0  0  0  0  0  0  0  0  0  0  0
    3.7601    0.8815    0.0000 N   0  0  0  0  0  0  0  0  0  0  0  0
    4.6261    2.3815    0.0000 N   0  0  0  0  0  0  0  0  0  0  0  0
    3.2601   -1.6573    0.0000 C   0  0  1  0  0  0  0  0  0  0  0  0
    2.9511   -0.7063    0.0000 C   0  0  1  0  0  0  0  0  0  0  0  0
    4.2601   -1.6573    0.0000 C   0  0  1  0  0  0  0  0  0  0  0  0
    3.7601   -0.1185    0.0000 C   0  0  1  0  0  0  0  0  0  0  0  0
    2.6723   -2.4664    0.0000 C   0  0  0  0  0  0  0  0  0  0  0  0
    4.8479   -2.4664    0.0000 C   0  0  0  0  0  0  0  0  0  0  0  0
    2.8940    1.3815    0.0000 C   0  0  0  0  0  0  0  0  0  0  0  0
    4.6261    1.3815    0.0000 C   0  0  0  0  0  0  0  0  0  0  0  0
    2.8940    2.3815    0.0000 C   0  0  0  0  0  0  0  0  0  0  0  0
    3.7601    2.8815    0.0000 C   0  0  0  0  0  0  0  0  0  0  0  0
    2.0280    2.8815    0.0000 C   0  0  0  0  0  0  0  0  0  0  0  0
    3.5416   -2.2098    0.0000 H   0  0  0  0  0  0  0  0  0  0  0  0
    2.8541   -0.0939    0.0000 H   0  0  0  0  0  0  0  0  0  0  0  0
    4.8724   -1.5603    0.0000 H   0  0  0  0  0  0  0  0  0  0  0  0
    4.3125    0.1630    0.0000 H   0  0  0  0  0  0  0  0  0  0  0  0
    2.2416   -2.0204    0.0000 H   0  0  0  0  0  0  0  0  0  0  0  0
    2.1583   -2.8131    0.0000 H   0  0  0  0  0  0  0  0  0  0  0  0
    4.2906   -2.7382    0.0000 H   0  0  0  0  0  0  0  0  0  0  0  0
    5.0188   -3.0623    0.0000 H   0  0  0  0  0  0  0  0  0  0  0  0
    2.3571    1.0715    0.0000 H   0  0  0  0  0  0  0  0  0  0  0  0
    2.7146   -3.8815    0.0000 H   0  0  0  0  0  0  0  0  0  0  0  0
    6.2068   -2.8634    0.0000 H   0  0  0  0  0  0  0  0  0  0  0  0
    5.1630    2.6915    0.0000 H   0  0  0  0  0  0  0  0  0  0  0  0
    2.3380    3.4184    0.0000 H   0  0  0  0  0  0  0  0  0  0  0  0
    1.4911    3.1915    0.0000 H   0  0  0  0  0  0  0  0  0  0  0  0
    1.7180    2.3446    0.0000 H   0  0  0  0  0  0  0  0  0  0  0  0
 10  1  1  6  0  0  0
  2 11  1  0  0  0  0
  2 12  1  0  0  0  0
  3 13  1  0  0  0  0
  3 29  1  0  0  0  0
  4 14  1  0  0  0  0
  4 30  1  0  0  0  0
  5 16  2  0  0  0  0
  6 18  2  0  0  0  0
 12  7  1  6  0  0  0
  7 15  1  0  0  0  0
  7 16  1  0  0  0  0
  8 16  1  0  0  0  0
  8 18  1  0  0  0  0
  8 31  1  0  0  0  0
  9 10  1  0  0  0  0
  9 11  1  0  0  0  0
  9 13  1  1  0  0  0
  9 20  1  0  0  0  0
 10 12  1  0  0  0  0
 10 21  1  0  0  0  0
 11 14  1  6  0  0  0
 11 22  1  0  0  0  0
 12 23  1  0  0  0  0
 13 24  1  0  0  0  0
 13 25  1  0  0  0  0
 14 26  1  0  0  0  0
 14 27  1  0  0  0  0
 15 17  2  0  0  0  0
 15 28  1  0  0  0  0
 17 18  1  0  0  0  0
 17 19  1  0  0  0  0
 19 32  1  0  0  0  0
 19 33  1  0  0  0  0
 19 34  1  0  0  0  0
M  END
> <PUBCHEM_COMPOUND_CID>
511000
> <PUBCHEM_COMPOUND_CANONICALIZED>
1
> <PUBCHEM_CACTVS_COMPLEXITY>
427
> <PUBCHEM_CACTVS_HBOND_ACCEPTOR>
6
> <PUBCHEM_CACTVS_HBOND_DONOR>
3
> <PUBCHEM_CACTVS_ROTATABLE_BOND>
3
> <PUBCHEM_CACTVS_SUBSKEYS>
AAADccBzOQAAAAAAAAAAAAAAAAAAASAAAAAgAAAAAAAAAAAAAAAAHwAQCAAADRThgAYDAAPABgCIAgFWUACAAAAAAAAAAAEIAECBEAIAgQAOQAANByIDAMDwMAIKAAAAAAAAAAAAAAAAAAAAAAAAAAAAAA==
> <PUBCHEM_IUPAC_OPENEYE_NAME>
1-[(2R,3S,4R,5S)-3-fluoro-4,5-bis(hydroxymethyl)tetrahydrofuran-2-yl]-5-methyl-pyrimidine-2,4-dione
> <PUBCHEM_IUPAC_CAS_NAME>
1-[(2R,3S,4R,5S)-3-fluoro-4,5-bis(hydroxymethyl)-2-oxolanyl]-5-methylpyrimidine-2,4-dione
> <PUBCHEM_IUPAC_NAME_MARKUP>
1-[(2<I>R</I>,3<I>S</I>,4<I>R</I>,5<I>S</I>)-3-fluoro-4,5-bis(hydroxymethyl)oxolan-2-yl]-5-methylpyrimidine-2,4-dione
> <PUBCHEM_IUPAC_NAME>
1-[(2R,3S,4R,5S)-3-fluoro-4,5-bis(hydroxymethyl)oxolan-2-yl]-5-methylpyrimidine-2,4-dione
> <PUBCHEM_IUPAC_SYSTEMATIC_NAME>
1-[(2R,3S,4R,5S)-3-fluoranyl-4,5-bis(hydroxymethyl)oxolan-2-yl]-5-methyl-pyrimidine-2,4-dione
> <PUBCHEM_IUPAC_TRADITIONAL_NAME>
1-[(2R,3S,4R,5S)-3-fluoro-4,5-dimethylol-tetrahydrofuran-2-yl]-5-methyl-pyrimidine-2,4-quinone
> <PUBCHEM_IUPAC_INCHI>
InChI=1S/C11H15FN2O5/c1-5-2-14(11(18)13-9(5)17)10-8(12)6(3-15)7(4-16)19-10/h2,6-8,10,15-16H,3-4H2,1H3,(H,13,17,18)/t6-,7-,8+,10-/m1/s1
> <PUBCHEM_IUPAC_INCHIKEY>
WBGNEDPODOEKIT-BDNRQGISSA-N
> <PUBCHEM_XLOGP3>
-1.2
> <PUBCHEM_EXACT_MASS>
274.09649975
> <PUBCHEM_MOLECULAR_FORMULA>
C11H15FN2O5
> <PUBCHEM_MOLECULAR_WEIGHT>
274.25
> <PUBCHEM_OPENEYE_CAN_SMILES>
CC1=CN(C(=O)NC1=O)C2C(C(C(O2)CO)CO)F
> <PUBCHEM_OPENEYE_ISO_SMILES>
CC1=CN(C(=O)NC1=O)[C@H]2[C@H]([C@@H]([C@H](O2)CO)CO)F
> <PUBCHEM_CACTVS_TPSA>
99.1
> <PUBCHEM_MONOISOTOPIC_WEIGHT>
274.09649975
> <PUBCHEM_TOTAL_CHARGE>
0
> <PUBCHEM_HEAVY_ATOM_COUNT>
19
> <PUBCHEM_ATOM_DEF_STEREO_COUNT>
4
> <PUBCHEM_ATOM_UDEF_STEREO_COUNT>
0
> <PUBCHEM_BOND_DEF_STEREO_COUNT>
0
> <PUBCHEM_BOND_UDEF_STEREO_COUNT>
0
> <PUBCHEM_ISOTOPIC_ATOM_COUNT>
0
> <PUBCHEM_COMPONENT_COUNT>
1
> <PUBCHEM_CACTVS_TAUTO_COUNT>
-1
> <PUBCHEM_COORDINATE_TYPE>
1
5
255
> <PUBCHEM_BONDANNOTATIONS>
10  1  6
11  14  6
15  17  8
17  18  8
12  7  6
7  15  8
7  16  8
8  16  8
8  18  8
9  13  5
$$$$
