511033
  -OEChem-10302200282D
 70 72  0     1  0  0  0  0  0999 V2000
   16.3627    2.3062    0.0000 O   0  0  0  0  0  0  0  0  0  0  0  0
   15.0953    4.5622    0.0000 O   0  0  0  0  0  0  0  0  0  0  0  0
   18.0814    3.4929    0.0000 O   0  0  0  0  0  0  0  0  0  0  0  0
   13.5948    2.3282    0.0000 O   0  0  0  0  0  0  0  0  0  0  0  0
   13.6157   -1.8686    0.0000 O   0  0  0  0  0  0  0  0  0  0  0  0
   15.1068    1.0420    0.0000 N   0  0  0  0  0  0  0  0  0  0  0  0
   15.1148   -0.5674    0.0000 N   0  0  0  0  0  0  0  0  0  0  0  0
   12.4033    1.1248    0.0000 N   0  0  0  0  0  0  0  0  0  0  0  0
   10.9740    0.2167    0.0000 N   0  0  0  0  0  0  0  0  0  0  0  0
   12.4123   -0.6771    0.0000 N   0  0  0  0  0  0  0  0  0  0  0  0
   15.4127    1.9941    0.0000 C   0  0  1  0  0  0  0  0  0  0  0  0
   15.4074    3.6121    0.0000 C   0  0  1  0  0  0  0  0  0  0  0  0
   14.8223    2.8012    0.0000 C   0  0  0  0  0  0  0  0  0  0  0  0
   16.3595    3.3062    0.0000 C   0  0  1  0  0  0  0  0  0  0  0  0
   17.1666    3.8966    0.0000 C   0  0  0  0  0  0  0  0  0  0  0  0
   14.1621    0.7326    0.0000 C   0  0  0  0  0  0  0  0  0  0  0  0
   15.6944    0.2402    0.0000 C   0  0  0  0  0  0  0  0  0  0  0  0
   14.1671   -0.2674    0.0000 C   0  0  0  0  0  0  0  0  0  0  0  0
    6.4870   -2.4038    0.0000 C   0  0  0  0  0  0  0  0  0  0  0  0
    7.4870   -2.3988    0.0000 C   0  0  0  0  0  0  0  0  0  0  0  0
    5.9913   -3.2723    0.0000 C   0  0  0  0  0  0  0  0  0  0  0  0
    7.9826   -1.5303    0.0000 C   0  0  0  0  0  0  0  0  0  0  0  0
    4.9913   -3.2773    0.0000 C   0  0  0  0  0  0  0  0  0  0  0  0
    8.9826   -1.5253    0.0000 C   0  0  0  0  0  0  0  0  0  0  0  0
   13.3772    1.3522    0.0000 C   0  0  0  0  0  0  0  0  0  0  0  0
    4.4957   -4.1458    0.0000 C   0  0  0  0  0  0  0  0  0  0  0  0
    9.4783   -0.6568    0.0000 C   0  0  0  0  0  0  0  0  0  0  0  0
   10.4783   -0.6518    0.0000 C   0  0  0  0  0  0  0  0  0  0  0  0
    3.4957   -4.1508    0.0000 C   0  0  0  0  0  0  0  0  0  0  0  0
   13.3884   -0.8948    0.0000 C   0  0  0  0  0  0  0  0  0  0  0  0
   11.9740    0.2217    0.0000 C   0  0  0  0  0  0  0  0  0  0  0  0
    3.0000   -5.0193    0.0000 C   0  0  0  0  0  0  0  0  0  0  0  0
    2.0000   -5.0243    0.0000 C   0  0  0  0  0  0  0  0  0  0  0  0
   15.8525    1.5571    0.0000 H   0  0  0  0  0  0  0  0  0  0  0  0
   14.7947    3.7071    0.0000 H   0  0  0  0  0  0  0  0  0  0  0  0
   14.3602    3.2146    0.0000 H   0  0  0  0  0  0  0  0  0  0  0  0
   14.3629    2.3848    0.0000 H   0  0  0  0  0  0  0  0  0  0  0  0
   16.9128    3.0265    0.0000 H   0  0  0  0  0  0  0  0  0  0  0  0
   17.5116    4.4118    0.0000 H   0  0  0  0  0  0  0  0  0  0  0  0
   16.7192    4.3259    0.0000 H   0  0  0  0  0  0  0  0  0  0  0  0
   15.5087    5.0243    0.0000 H   0  0  0  0  0  0  0  0  0  0  0  0
   16.3144    0.2433    0.0000 H   0  0  0  0  0  0  0  0  0  0  0  0
    6.5916   -1.7927    0.0000 H   0  0  0  0  0  0  0  0  0  0  0  0
    5.9033   -2.1946    0.0000 H   0  0  0  0  0  0  0  0  0  0  0  0
    7.3824   -3.0099    0.0000 H   0  0  0  0  0  0  0  0  0  0  0  0
    8.0706   -2.6080    0.0000 H   0  0  0  0  0  0  0  0  0  0  0  0
    5.8867   -3.8834    0.0000 H   0  0  0  0  0  0  0  0  0  0  0  0
    6.5750   -3.4814    0.0000 H   0  0  0  0  0  0  0  0  0  0  0  0
    8.0873   -0.9192    0.0000 H   0  0  0  0  0  0  0  0  0  0  0  0
    7.3990   -1.3212    0.0000 H   0  0  0  0  0  0  0  0  0  0  0  0
    5.0959   -2.6662    0.0000 H   0  0  0  0  0  0  0  0  0  0  0  0
    4.4077   -3.0681    0.0000 H   0  0  0  0  0  0  0  0  0  0  0  0
    8.8780   -2.1364    0.0000 H   0  0  0  0  0  0  0  0  0  0  0  0
    9.5663   -1.7344    0.0000 H   0  0  0  0  0  0  0  0  0  0  0  0
    4.3910   -4.7569    0.0000 H   0  0  0  0  0  0  0  0  0  0  0  0
    5.0793   -4.3549    0.0000 H   0  0  0  0  0  0  0  0  0  0  0  0
    9.5829   -0.0457    0.0000 H   0  0  0  0  0  0  0  0  0  0  0  0
    8.8947   -0.4477    0.0000 H   0  0  0  0  0  0  0  0  0  0  0  0
   18.5818    3.8589    0.0000 H   0  0  0  0  0  0  0  0  0  0  0  0
   10.3737   -1.2629    0.0000 H   0  0  0  0  0  0  0  0  0  0  0  0
   11.0620   -0.8610    0.0000 H   0  0  0  0  0  0  0  0  0  0  0  0
    3.6003   -3.5397    0.0000 H   0  0  0  0  0  0  0  0  0  0  0  0
    2.9120   -3.9416    0.0000 H   0  0  0  0  0  0  0  0  0  0  0  0
   12.0144    1.6076    0.0000 H   0  0  0  0  0  0  0  0  0  0  0  0
   10.6613    0.7521    0.0000 H   0  0  0  0  0  0  0  0  0  0  0  0
    2.8954   -5.6304    0.0000 H   0  0  0  0  0  0  0  0  0  0  0  0
    3.5836   -5.2284    0.0000 H   0  0  0  0  0  0  0  0  0  0  0  0
    1.9969   -4.4043    0.0000 H   0  0  0  0  0  0  0  0  0  0  0  0
    1.3800   -5.0274    0.0000 H   0  0  0  0  0  0  0  0  0  0  0  0
    2.0031   -5.6443    0.0000 H   0  0  0  0  0  0  0  0  0  0  0  0
  1 11  1  0  0  0  0
  1 14  1  0  0  0  0
 12  2  1  6  0  0  0
  2 41  1  0  0  0  0
  3 15  1  0  0  0  0
  3 59  1  0  0  0  0
  4 25  2  0  0  0  0
  5 30  2  0  0  0  0
 11  6  1  1  0  0  0
  6 16  1  0  0  0  0
  6 17  1  0  0  0  0
  7 17  2  0  0  0  0
  7 18  1  0  0  0  0
  8 25  1  0  0  0  0
  8 31  1  0  0  0  0
  8 64  1  0  0  0  0
  9 28  1  0  0  0  0
  9 31  1  0  0  0  0
  9 65  1  0  0  0  0
 10 30  1  0  0  0  0
 10 31  2  0  0  0  0
 11 13  1  0  0  0  0
 11 34  1  0  0  0  0
 12 13  1  0  0  0  0
 12 14  1  0  0  0  0
 12 35  1  0  0  0  0
 13 36  1  0  0  0  0
 13 37  1  0  0  0  0
 14 15  1  1  0  0  0
 14 38  1  0  0  0  0
 15 39  1  0  0  0  0
 15 40  1  0  0  0  0
 16 18  2  0  0  0  0
 16 25  1  0  0  0  0
 17 42  1  0  0  0  0
 18 30  1  0  0  0  0
 19 20  1  0  0  0  0
 19 21  1  0  0  0  0
 19 43  1  0  0  0  0
 19 44  1  0  0  0  0
 20 22  1  0  0  0  0
 20 45  1  0  0  0  0
 20 46  1  0  0  0  0
 21 23  1  0  0  0  0
 21 47  1  0  0  0  0
 21 48  1  0  0  0  0
 22 24  1  0  0  0  0
 22 49  1  0  0  0  0
 22 50  1  0  0  0  0
 23 26  1  0  0  0  0
 23 51  1  0  0  0  0
 23 52  1  0  0  0  0
 24 27  1  0  0  0  0
 24 53  1  0  0  0  0
 24 54  1  0  0  0  0
 26 29  1  0  0  0  0
 26 55  1  0  0  0  0
 26 56  1  0  0  0  0
 27 28  1  0  0  0  0
 27 57  1  0  0  0  0
 27 58  1  0  0  0  0
 28 60  1  0  0  0  0
 28 61  1  0  0  0  0
 29 32  1  0  0  0  0
 29 62  1  0  0  0  0
 29 63  1  0  0  0  0
 32 33  1  0  0  0  0
 32 66  1  0  0  0  0
 32 67  1  0  0  0  0
 33 68  1  0  0  0  0
 33 69  1  0  0  0  0
 33 70  1  0  0  0  0
M  END
> <PUBCHEM_COMPOUND_CID>
511033
> <PUBCHEM_COMPOUND_CANONICALIZED>
1
> <PUBCHEM_CACTVS_COMPLEXITY>
676
> <PUBCHEM_CACTVS_HBOND_ACCEPTOR>
6
> <PUBCHEM_CACTVS_HBOND_DONOR>
4
> <PUBCHEM_CACTVS_ROTATABLE_BOND>
14
> <PUBCHEM_CACTVS_SUBSKEYS>
AAADcfB7uAAAAAAAAAAAAAAAAAAAAWJAAAAAAAAABAAAAACBgAAAHgAQCAAACBzhlgYHkBfMFgCoAQVxdACAgC0XEKABWIGoVECBWBpAyCAeQYhPEQLDAWG1sIIAAAAAAAAAAAAAAAAAAAAAAAAAAAAAAA==
> <PUBCHEM_IUPAC_OPENEYE_NAME>
6-(dodecylamino)-1-[(2R,4S,5R)-4-hydroxy-5-(hydroxymethyl)tetrahydrofuran-2-yl]-7H-imidazo[4,5-e][1,3]diazepine-4,8-dione
> <PUBCHEM_IUPAC_CAS_NAME>
6-(dodecylamino)-1-[(2R,4S,5R)-4-hydroxy-5-(hydroxymethyl)-2-oxolanyl]-7H-imidazo[4,5-e][1,3]diazepine-4,8-dione
> <PUBCHEM_IUPAC_NAME_MARKUP>
6-(dodecylamino)-1-[(2<I>R</I>,4<I>S</I>,5<I>R</I>)-4-hydroxy-5-(hydroxymethyl)oxolan-2-yl]-7<I>H</I>-imidazo[4,5-e][1,3]diazepine-4,8-dione
> <PUBCHEM_IUPAC_NAME>
6-(dodecylamino)-1-[(2R,4S,5R)-4-hydroxy-5-(hydroxymethyl)oxolan-2-yl]-7H-imidazo[4,5-e][1,3]diazepine-4,8-dione
> <PUBCHEM_IUPAC_SYSTEMATIC_NAME>
6-(dodecylamino)-1-[(2R,4S,5R)-5-(hydroxymethyl)-4-oxidanyl-oxolan-2-yl]-7H-imidazo[4,5-e][1,3]diazepine-4,8-dione
> <PUBCHEM_IUPAC_TRADITIONAL_NAME>
1-[(2R,4S,5R)-4-hydroxy-5-methylol-tetrahydrofuran-2-yl]-6-(laurylamino)-7H-imidazo[4,5-e][1,3]diazepine-4,8-quinone
> <PUBCHEM_IUPAC_INCHI>
InChI=1S/C23H37N5O5/c1-2-3-4-5-6-7-8-9-10-11-12-24-23-26-21(31)19-20(22(32)27-23)28(15-25-19)18-13-16(30)17(14-29)33-18/h15-18,29-30H,2-14H2,1H3,(H2,24,26,27,31,32)/t16-,17+,18+/m0/s1
> <PUBCHEM_IUPAC_INCHIKEY>
VTARHZUIIBJJIL-RCCFBDPRSA-N
> <PUBCHEM_XLOGP3>
4.6
> <PUBCHEM_EXACT_MASS>
463.27946930
> <PUBCHEM_MOLECULAR_FORMULA>
C23H37N5O5
> <PUBCHEM_MOLECULAR_WEIGHT>
463.6
> <PUBCHEM_OPENEYE_CAN_SMILES>
CCCCCCCCCCCCNC1=NC(=O)C2=C(C(=O)N1)N(C=N2)C3CC(C(O3)CO)O
> <PUBCHEM_OPENEYE_ISO_SMILES>
CCCCCCCCCCCCNC1=NC(=O)C2=C(C(=O)N1)N(C=N2)[C@H]3C[C@@H]([C@H](O3)CO)O
> <PUBCHEM_CACTVS_TPSA>
138
> <PUBCHEM_MONOISOTOPIC_WEIGHT>
463.27946930
> <PUBCHEM_TOTAL_CHARGE>
0
> <PUBCHEM_HEAVY_ATOM_COUNT>
33
> <PUBCHEM_ATOM_DEF_STEREO_COUNT>
3
> <PUBCHEM_ATOM_UDEF_STEREO_COUNT>
0
> <PUBCHEM_BOND_DEF_STEREO_COUNT>
0
> <PUBCHEM_BOND_UDEF_STEREO_COUNT>
0
> <PUBCHEM_ISOTOPIC_ATOM_COUNT>
0
> <PUBCHEM_COMPONENT_COUNT>
1
> <PUBCHEM_CACTVS_TAUTO_COUNT>
-1
> <PUBCHEM_COORDINATE_TYPE>
1
5
255
> <PUBCHEM_BONDANNOTATIONS>
10  30  8
10  31  8
14  15  5
16  18  8
16  25  8
18  30  8
12  2  6
11  6  5
6  16  8
6  17  8
7  17  8
7  18  8
8  25  8
8  31  8
$$$$
