511035
  -OEChem-10302200282D
 89 92  0     1  0  0  0  0  0999 V2000
    6.3301    0.5000    0.0000 O   0  0  0  0  0  0  0  0  0  0  0  0
    4.5981    0.5000    0.0000 O   0  0  0  0  0  0  0  0  0  0  0  0
    6.3301    3.5000    0.0000 O   0  0  0  0  0  0  0  0  0  0  0  0
    6.3301   -1.5000    0.0000 O   0  0  0  0  0  0  0  0  0  0  0  0
    4.5981   -2.5000    0.0000 O   0  0  0  0  0  0  0  0  0  0  0  0
    4.5981    1.5000    0.0000 O   0  0  0  0  0  0  0  0  0  0  0  0
    2.8660   -1.5000    0.0000 O   0  0  0  0  0  0  0  0  0  0  0  0
    8.0622    3.5000    0.0000 O   0  0  0  0  0  0  0  0  0  0  0  0
    4.5981    4.5000    0.0000 O   0  0  0  0  0  0  0  0  0  0  0  0
    8.9282    3.0000    0.0000 O   0  0  0  0  0  0  0  0  0  0  0  0
    3.7320    3.0000    0.0000 O   0  0  0  0  0  0  0  0  0  0  0  0
    2.8660    4.5000    0.0000 O   0  0  0  0  0  0  0  0  0  0  0  0
    8.0622    1.5000    0.0000 N   0  0  0  0  0  0  0  0  0  0  0  0
    6.3301    1.5000    0.0000 C   0  0  2  0  0  0  0  0  0  0  0  0
    5.4641    2.0000    0.0000 C   0  0  1  0  0  0  0  0  0  0  0  0
    7.1962    2.0000    0.0000 C   0  0  2  0  0  0  0  0  0  0  0  0
    5.4641   -1.0000    0.0000 C   0  0  1  0  0  0  0  0  0  0  0  0
    5.4641    0.0000    0.0000 C   0  0  2  0  0  0  0  0  0  0  0  0
    4.5981   -1.5000    0.0000 C   0  0  1  0  0  0  0  0  0  0  0  0
    3.7320   -1.0000    0.0000 C   0  0  2  0  0  0  0  0  0  0  0  0
    5.4641    3.0000    0.0000 C   0  0  1  0  0  0  0  0  0  0  0  0
    3.7320    0.0000    0.0000 C   0  0  2  0  0  0  0  0  0  0  0  0
    7.1962    3.0000    0.0000 C   0  0  3  0  0  0  0  0  0  0  0  0
    4.5981    3.5000    0.0000 C   0  0  0  0  0  0  0  0  0  0  0  0
    2.8660    0.5000    0.0000 C   0  0  0  0  0  0  0  0  0  0  0  0
    6.3301   -2.5000    0.0000 C   0  0  0  0  0  0  0  0  0  0  0  0
    3.7320   -3.0000    0.0000 C   0  0  0  0  0  0  0  0  0  0  0  0
    8.9282    2.0000    0.0000 C   0  0  0  0  0  0  0  0  0  0  0  0
    3.7320    2.0000    0.0000 C   0  0  0  0  0  0  0  0  0  0  0  0
    2.0000   -1.0000    0.0000 C   0  0  0  0  0  0  0  0  0  0  0  0
    7.1962   -3.0000    0.0000 C   0  0  0  0  0  0  0  0  0  0  0  0
    3.7320   -4.0000    0.0000 C   0  0  0  0  0  0  0  0  0  0  0  0
    9.7942    1.5000    0.0000 C   0  0  0  0  0  0  0  0  0  0  0  0
    2.8660    1.5000    0.0000 C   0  0  0  0  0  0  0  0  0  0  0  0
    3.7320    5.0000    0.0000 C   0  0  0  0  0  0  0  0  0  0  0  0
    8.0622   -2.5000    0.0000 C   0  0  0  0  0  0  0  0  0  0  0  0
    7.1962   -4.0000    0.0000 C   0  0  0  0  0  0  0  0  0  0  0  0
    4.5981   -4.5000    0.0000 C   0  0  0  0  0  0  0  0  0  0  0  0
    2.8660   -4.5000    0.0000 C   0  0  0  0  0  0  0  0  0  0  0  0
    3.7320    6.0000    0.0000 C   0  0  0  0  0  0  0  0  0  0  0  0
    8.9282   -3.0000    0.0000 C   0  0  0  0  0  0  0  0  0  0  0  0
    8.0622   -4.5000    0.0000 C   0  0  0  0  0  0  0  0  0  0  0  0
    4.5981   -5.5000    0.0000 C   0  0  0  0  0  0  0  0  0  0  0  0
    2.8660   -5.5000    0.0000 C   0  0  0  0  0  0  0  0  0  0  0  0
    8.9282   -4.0000    0.0000 C   0  0  0  0  0  0  0  0  0  0  0  0
    3.7320   -6.0000    0.0000 C   0  0  0  0  0  0  0  0  0  0  0  0
    6.8671    1.1900    0.0000 H   0  0  0  0  0  0  0  0  0  0  0  0
    5.4641    1.3800    0.0000 H   0  0  0  0  0  0  0  0  0  0  0  0
    7.1962    1.3800    0.0000 H   0  0  0  0  0  0  0  0  0  0  0  0
    5.4641   -1.6200    0.0000 H   0  0  0  0  0  0  0  0  0  0  0  0
    5.4641    0.6200    0.0000 H   0  0  0  0  0  0  0  0  0  0  0  0
    4.0611   -1.8100    0.0000 H   0  0  0  0  0  0  0  0  0  0  0  0
    3.7320   -1.6200    0.0000 H   0  0  0  0  0  0  0  0  0  0  0  0
    5.4641    3.6200    0.0000 H   0  0  0  0  0  0  0  0  0  0  0  0
    3.7320    0.6200    0.0000 H   0  0  0  0  0  0  0  0  0  0  0  0
    7.7331    2.6900    0.0000 H   0  0  0  0  0  0  0  0  0  0  0  0
    3.9875    3.6077    0.0000 H   0  0  0  0  0  0  0  0  0  0  0  0
    4.3860    2.9174    0.0000 H   0  0  0  0  0  0  0  0  0  0  0  0
    8.0622    0.8800    0.0000 H   0  0  0  0  0  0  0  0  0  0  0  0
    3.1760    1.0369    0.0000 H   0  0  0  0  0  0  0  0  0  0  0  0
    2.3291    0.8100    0.0000 H   0  0  0  0  0  0  0  0  0  0  0  0
    2.5560   -0.0369    0.0000 H   0  0  0  0  0  0  0  0  0  0  0  0
    8.0622    4.1200    0.0000 H   0  0  0  0  0  0  0  0  0  0  0  0
    5.7196   -2.3923    0.0000 H   0  0  0  0  0  0  0  0  0  0  0  0
    6.1181   -3.0826    0.0000 H   0  0  0  0  0  0  0  0  0  0  0  0
    3.5200   -2.4174    0.0000 H   0  0  0  0  0  0  0  0  0  0  0  0
    3.1215   -3.1077    0.0000 H   0  0  0  0  0  0  0  0  0  0  0  0
    2.3100   -0.4631    0.0000 H   0  0  0  0  0  0  0  0  0  0  0  0
    1.4631   -0.6900    0.0000 H   0  0  0  0  0  0  0  0  0  0  0  0
    1.6900   -1.5369    0.0000 H   0  0  0  0  0  0  0  0  0  0  0  0
    9.4842    0.9631    0.0000 H   0  0  0  0  0  0  0  0  0  0  0  0
   10.3312    1.1900    0.0000 H   0  0  0  0  0  0  0  0  0  0  0  0
   10.1042    2.0369    0.0000 H   0  0  0  0  0  0  0  0  0  0  0  0
    2.5560    2.0369    0.0000 H   0  0  0  0  0  0  0  0  0  0  0  0
    2.3291    1.1900    0.0000 H   0  0  0  0  0  0  0  0  0  0  0  0
    3.1760    0.9631    0.0000 H   0  0  0  0  0  0  0  0  0  0  0  0
    8.0622   -1.8800    0.0000 H   0  0  0  0  0  0  0  0  0  0  0  0
    6.6592   -4.3100    0.0000 H   0  0  0  0  0  0  0  0  0  0  0  0
    5.1350   -4.1900    0.0000 H   0  0  0  0  0  0  0  0  0  0  0  0
    2.3291   -4.1900    0.0000 H   0  0  0  0  0  0  0  0  0  0  0  0
    4.3520    6.0000    0.0000 H   0  0  0  0  0  0  0  0  0  0  0  0
    3.7320    6.6200    0.0000 H   0  0  0  0  0  0  0  0  0  0  0  0
    3.1120    6.0000    0.0000 H   0  0  0  0  0  0  0  0  0  0  0  0
    9.4651   -2.6900    0.0000 H   0  0  0  0  0  0  0  0  0  0  0  0
    8.0622   -5.1200    0.0000 H   0  0  0  0  0  0  0  0  0  0  0  0
    5.1350   -5.8100    0.0000 H   0  0  0  0  0  0  0  0  0  0  0  0
    2.3291   -5.8100    0.0000 H   0  0  0  0  0  0  0  0  0  0  0  0
    9.4651   -4.3100    0.0000 H   0  0  0  0  0  0  0  0  0  0  0  0
    3.7320   -6.6200    0.0000 H   0  0  0  0  0  0  0  0  0  0  0  0
 14  1  1  6  0  0  0
 18  1  1  1  0  0  0
  2 18  1  0  0  0  0
  2 22  1  0  0  0  0
  3 21  1  0  0  0  0
  3 23  1  0  0  0  0
 17  4  1  6  0  0  0
  4 26  1  0  0  0  0
 19  5  1  6  0  0  0
  5 27  1  0  0  0  0
 15  6  1  6  0  0  0
  6 29  1  0  0  0  0
 20  7  1  1  0  0  0
  7 30  1  0  0  0  0
  8 23  1  0  0  0  0
  8 63  1  0  0  0  0
  9 24  1  0  0  0  0
  9 35  1  0  0  0  0
 10 28  2  0  0  0  0
 11 29  2  0  0  0  0
 12 35  2  0  0  0  0
 16 13  1  6  0  0  0
 13 28  1  0  0  0  0
 13 59  1  0  0  0  0
 14 15  1  0  0  0  0
 14 16  1  0  0  0  0
 14 47  1  0  0  0  0
 15 21  1  0  0  0  0
 15 48  1  0  0  0  0
 16 23  1  0  0  0  0
 16 49  1  0  0  0  0
 17 18  1  0  0  0  0
 17 19  1  0  0  0  0
 17 50  1  0  0  0  0
 18 51  1  0  0  0  0
 19 20  1  0  0  0  0
 19 52  1  0  0  0  0
 20 22  1  0  0  0  0
 20 53  1  0  0  0  0
 21 24  1  1  0  0  0
 21 54  1  0  0  0  0
 22 25  1  6  0  0  0
 22 55  1  0  0  0  0
 23 56  1  0  0  0  0
 24 57  1  0  0  0  0
 24 58  1  0  0  0  0
 25 60  1  0  0  0  0
 25 61  1  0  0  0  0
 25 62  1  0  0  0  0
 26 31  1  0  0  0  0
 26 64  1  0  0  0  0
 26 65  1  0  0  0  0
 27 32  1  0  0  0  0
 27 66  1  0  0  0  0
 27 67  1  0  0  0  0
 28 33  1  0  0  0  0
 29 34  1  0  0  0  0
 30 68  1  0  0  0  0
 30 69  1  0  0  0  0
 30 70  1  0  0  0  0
 31 36  2  0  0  0  0
 31 37  1  0  0  0  0
 32 38  2  0  0  0  0
 32 39  1  0  0  0  0
 33 71  1  0  0  0  0
 33 72  1  0  0  0  0
 33 73  1  0  0  0  0
 34 74  1  0  0  0  0
 34 75  1  0  0  0  0
 34 76  1  0  0  0  0
 35 40  1  0  0  0  0
 36 41  1  0  0  0  0
 36 77  1  0  0  0  0
 37 42  2  0  0  0  0
 37 78  1  0  0  0  0
 38 43  1  0  0  0  0
 38 79  1  0  0  0  0
 39 44  2  0  0  0  0
 39 80  1  0  0  0  0
 40 81  1  0  0  0  0
 40 82  1  0  0  0  0
 40 83  1  0  0  0  0
 41 45  2  0  0  0  0
 41 84  1  0  0  0  0
 42 45  1  0  0  0  0
 42 85  1  0  0  0  0
 43 46  2  0  0  0  0
 43 86  1  0  0  0  0
 44 46  1  0  0  0  0
 44 87  1  0  0  0  0
 45 88  1  0  0  0  0
 46 89  1  0  0  0  0
M  END
> <PUBCHEM_COMPOUND_CID>
511035
> <PUBCHEM_COMPOUND_CANONICALIZED>
1
> <PUBCHEM_CACTVS_COMPLEXITY>
970
> <PUBCHEM_CACTVS_HBOND_ACCEPTOR>
12
> <PUBCHEM_CACTVS_HBOND_DONOR>
2
> <PUBCHEM_CACTVS_ROTATABLE_BOND>
15
> <PUBCHEM_CACTVS_SUBSKEYS>
AAADcfB+PAAAAAAAAAAAAAAAAAAAAAAAAAA0aIEAAAAAAAABQAAAHgAQCAAADDzxmAcyCILABgCIAiHSGAACAAAgAAAIiIAICIgbNiKAsRincAAn1gGeqAfw8C8OAAAAAAAAAAAAAAAAAAAAAAAAAAAAAA==
> <PUBCHEM_IUPAC_OPENEYE_NAME>
[(2R,3S,4S,5R)-5-acetamido-3-acetoxy-4-[(2S,3R,4R,5S,6S)-3,4-dibenzyloxy-5-methoxy-6-methyl-tetrahydropyran-2-yl]oxy-6-hydroxy-tetrahydropyran-2-yl]methyl acetate
> <PUBCHEM_IUPAC_CAS_NAME>
acetic acid [(2R,3S,4S,5R)-5-acetamido-3-acetyloxy-6-hydroxy-4-[[(2S,3R,4R,5S,6S)-5-methoxy-6-methyl-3,4-bis(phenylmethoxy)-2-oxanyl]oxy]-2-oxanyl]methyl ester
> <PUBCHEM_IUPAC_NAME_MARKUP>
[(2<I>R</I>,3<I>S</I>,4<I>S</I>,5<I>R</I>)-5-acetamido-3-acetyloxy-6-hydroxy-4-[(2<I>S</I>,3<I>R</I>,4<I>R</I>,5<I>S</I>,6<I>S</I>)-5-methoxy-6-methyl-3,4-bis(phenylmethoxy)oxan-2-yl]oxyoxan-2-yl]methyl acetate
> <PUBCHEM_IUPAC_NAME>
[(2R,3S,4S,5R)-5-acetamido-3-acetyloxy-6-hydroxy-4-[(2S,3R,4R,5S,6S)-5-methoxy-6-methyl-3,4-bis(phenylmethoxy)oxan-2-yl]oxyoxan-2-yl]methyl acetate
> <PUBCHEM_IUPAC_SYSTEMATIC_NAME>
[(2R,3S,4S,5R)-5-acetamido-3-acetyloxy-4-[(2S,3R,4R,5S,6S)-5-methoxy-6-methyl-3,4-bis(phenylmethoxy)oxan-2-yl]oxy-6-oxidanyl-oxan-2-yl]methyl ethanoate
> <PUBCHEM_IUPAC_TRADITIONAL_NAME>
acetic acid [(2R,3S,4S,5R)-5-acetamido-3-acetoxy-4-[(2S,3R,4R,5S,6S)-3,4-dibenzoxy-5-methoxy-6-methyl-tetrahydropyran-2-yl]oxy-6-hydroxy-tetrahydropyran-2-yl]methyl ester
> <PUBCHEM_IUPAC_INCHI>
InChI=1S/C33H43NO12/c1-19-27(39-5)30(41-16-23-12-8-6-9-13-23)31(42-17-24-14-10-7-11-15-24)33(43-19)46-29-26(34-20(2)35)32(38)45-25(18-40-21(3)36)28(29)44-22(4)37/h6-15,19,25-33,38H,16-18H2,1-5H3,(H,34,35)/t19-,25+,26+,27-,28+,29-,30+,31+,32?,33-/m0/s1
> <PUBCHEM_IUPAC_INCHIKEY>
FSNFGAWGHURCRS-QJHDIMOESA-N
> <PUBCHEM_XLOGP3_AA>
1.5
> <PUBCHEM_EXACT_MASS>
645.27852581
> <PUBCHEM_MOLECULAR_FORMULA>
C33H43NO12
> <PUBCHEM_MOLECULAR_WEIGHT>
645.7
> <PUBCHEM_OPENEYE_CAN_SMILES>
CC1C(C(C(C(O1)OC2C(C(OC(C2OC(=O)C)COC(=O)C)O)NC(=O)C)OCC3=CC=CC=C3)OCC4=CC=CC=C4)OC
> <PUBCHEM_OPENEYE_ISO_SMILES>
C[C@H]1[C@@H]([C@H]([C@H]([C@@H](O1)O[C@@H]2[C@@H]([C@H](OC([C@@H]2NC(=O)C)O)COC(=O)C)OC(=O)C)OCC3=CC=CC=C3)OCC4=CC=CC=C4)OC
> <PUBCHEM_CACTVS_TPSA>
157
> <PUBCHEM_MONOISOTOPIC_WEIGHT>
645.27852581
> <PUBCHEM_TOTAL_CHARGE>
0
> <PUBCHEM_HEAVY_ATOM_COUNT>
46
> <PUBCHEM_ATOM_DEF_STEREO_COUNT>
9
> <PUBCHEM_ATOM_UDEF_STEREO_COUNT>
1
> <PUBCHEM_BOND_DEF_STEREO_COUNT>
0
> <PUBCHEM_BOND_UDEF_STEREO_COUNT>
0
> <PUBCHEM_ISOTOPIC_ATOM_COUNT>
0
> <PUBCHEM_COMPONENT_COUNT>
1
> <PUBCHEM_CACTVS_TAUTO_COUNT>
-1
> <PUBCHEM_COORDINATE_TYPE>
1
5
255
> <PUBCHEM_BONDANNOTATIONS>
14  1  6
18  1  5
16  13  6
21  24  5
22  25  6
31  36  8
31  37  8
32  38  8
32  39  8
36  41  8
37  42  8
38  43  8
39  44  8
17  4  6
41  45  8
42  45  8
43  46  8
44  46  8
19  5  6
15  6  6
20  7  5
23  8  3
$$$$
