511078
  -OEChem-10302200282D
 61 65  0     1  0  0  0  0  0999 V2000
    7.3345    1.4571    0.0000 S   0  0  0  0  0  0  0  0  0  0  0  0
    2.6504   -2.2841    0.0000 O   0  0  0  0  0  0  0  0  0  0  0  0
    4.5983   -4.7873    0.0000 O   0  0  0  0  0  0  0  0  0  0  0  0
    5.7783    0.2155    0.0000 O   0  0  0  0  0  0  0  0  0  0  0  0
    8.2014    1.9556    0.0000 O   0  0  0  0  0  0  0  0  0  0  0  0
    6.4676    0.9586    0.0000 O   0  0  0  0  0  0  0  0  0  0  0  0
    6.1355   -1.4794    0.0000 N   0  0  0  0  0  0  0  0  0  0  0  0
    4.2382   -3.0931    0.0000 N   0  0  0  0  0  0  0  0  0  0  0  0
    7.8330    0.5902    0.0000 N   0  0  3  0  0  0  0  0  0  0  0  0
    5.1893   -1.7841    0.0000 C   0  0  1  0  0  0  0  0  0  0  0  0
    5.1893   -2.7841    0.0000 C   0  0  2  0  0  0  0  0  0  0  0  0
    4.2382   -1.4751    0.0000 C   0  0  1  0  0  0  0  0  0  0  0  0
    6.1355   -3.0888    0.0000 C   0  0  0  0  0  0  0  0  0  0  0  0
    6.7191   -2.2841    0.0000 C   0  0  0  0  0  0  0  0  0  0  0  0
    2.9511   -4.2521    0.0000 C   0  0  0  0  0  0  0  0  0  0  0  0
    3.6504   -2.2841    0.0000 C   0  0  0  0  0  0  0  0  0  0  0  0
    3.9292   -4.0442    0.0000 C   0  0  0  0  0  0  0  0  0  0  0  0
    2.0000   -3.9431    0.0000 C   0  0  0  0  0  0  0  0  0  0  0  0
    2.2079   -4.9212    0.0000 C   0  0  0  0  0  0  0  0  0  0  0  0
    6.4462   -0.5288    0.0000 C   0  0  0  0  0  0  0  0  0  0  0  0
    7.4247   -0.3226    0.0000 C   0  0  2  0  0  0  0  0  0  0  0  0
    3.9292   -0.5240    0.0000 C   0  0  0  0  0  0  0  0  0  0  0  0
    8.1666   -0.9930    0.0000 C   0  0  0  0  0  0  0  0  0  0  0  0
    9.0335   -0.4945    0.0000 C   0  0  0  0  0  0  0  0  0  0  0  0
    8.8273    0.4840    0.0000 C   0  0  0  0  0  0  0  0  0  0  0  0
    6.8360    2.3240    0.0000 C   0  0  0  0  0  0  0  0  0  0  0  0
    7.3375    3.1892    0.0000 C   0  0  0  0  0  0  0  0  0  0  0  0
    6.8390    4.0560    0.0000 C   0  0  0  0  0  0  0  0  0  0  0  0
    8.3375    3.1874    0.0000 C   0  0  0  0  0  0  0  0  0  0  0  0
    7.3405    4.9212    0.0000 C   0  0  0  0  0  0  0  0  0  0  0  0
    8.8390    4.0526    0.0000 C   0  0  0  0  0  0  0  0  0  0  0  0
    8.3405    4.9195    0.0000 C   0  0  0  0  0  0  0  0  0  0  0  0
    5.1904   -0.9341    0.0000 H   0  0  0  0  0  0  0  0  0  0  0  0
    5.1904   -3.6341    0.0000 H   0  0  0  0  0  0  0  0  0  0  0  0
    3.6258   -1.3781    0.0000 H   0  0  0  0  0  0  0  0  0  0  0  0
    5.8845   -3.6557    0.0000 H   0  0  0  0  0  0  0  0  0  0  0  0
    6.6729   -3.3980    0.0000 H   0  0  0  0  0  0  0  0  0  0  0  0
    7.1800   -2.6988    0.0000 H   0  0  0  0  0  0  0  0  0  0  0  0
    7.1800   -1.8694    0.0000 H   0  0  0  0  0  0  0  0  0  0  0  0
    3.2325   -4.8045    0.0000 H   0  0  0  0  0  0  0  0  0  0  0  0
    2.0863   -3.3291    0.0000 H   0  0  0  0  0  0  0  0  0  0  0  0
    1.3804   -3.9647    0.0000 H   0  0  0  0  0  0  0  0  0  0  0  0
    1.6331   -5.1535    0.0000 H   0  0  0  0  0  0  0  0  0  0  0  0
    2.5365   -5.4470    0.0000 H   0  0  0  0  0  0  0  0  0  0  0  0
    7.0353    0.1599    0.0000 H   0  0  0  0  0  0  0  0  0  0  0  0
    4.5189   -0.3324    0.0000 H   0  0  0  0  0  0  0  0  0  0  0  0
    3.7376    0.0656    0.0000 H   0  0  0  0  0  0  0  0  0  0  0  0
    3.3396   -0.7156    0.0000 H   0  0  0  0  0  0  0  0  0  0  0  0
    7.7052   -1.4071    0.0000 H   0  0  0  0  0  0  0  0  0  0  0  0
    8.5302   -1.4953    0.0000 H   0  0  0  0  0  0  0  0  0  0  0  0
    9.2847   -1.0614    0.0000 H   0  0  0  0  0  0  0  0  0  0  0  0
    9.6235   -0.3040    0.0000 H   0  0  0  0  0  0  0  0  0  0  0  0
    9.4440    0.5477    0.0000 H   0  0  0  0  0  0  0  0  0  0  0  0
    8.8284    1.1040    0.0000 H   0  0  0  0  0  0  0  0  0  0  0  0
    6.3617    2.7234    0.0000 H   0  0  0  0  0  0  0  0  0  0  0  0
    6.3603    1.9263    0.0000 H   0  0  0  0  0  0  0  0  0  0  0  0
    6.2190    4.0571    0.0000 H   0  0  0  0  0  0  0  0  0  0  0  0
    8.6466    2.6500    0.0000 H   0  0  0  0  0  0  0  0  0  0  0  0
    7.0314    5.4587    0.0000 H   0  0  0  0  0  0  0  0  0  0  0  0
    9.4590    4.0515    0.0000 H   0  0  0  0  0  0  0  0  0  0  0  0
    8.6514    5.4559    0.0000 H   0  0  0  0  0  0  0  0  0  0  0  0
  1  5  2  0  0  0  0
  1  6  2  0  0  0  0
  1  9  1  0  0  0  0
  1 26  1  0  0  0  0
  2 16  2  0  0  0  0
  3 17  2  0  0  0  0
  4 20  2  0  0  0  0
  7 10  1  0  0  0  0
  7 14  1  0  0  0  0
  7 20  1  0  0  0  0
  8 11  1  0  0  0  0
  8 16  1  0  0  0  0
  8 17  1  0  0  0  0
  9 21  1  0  0  0  0
  9 25  1  0  0  0  0
 10 11  1  0  0  0  0
 10 12  1  0  0  0  0
 10 33  1  6  0  0  0
 11 13  1  0  0  0  0
 11 34  1  1  0  0  0
 12 16  1  0  0  0  0
 12 22  1  1  0  0  0
 12 35  1  0  0  0  0
 13 14  1  0  0  0  0
 13 36  1  0  0  0  0
 13 37  1  0  0  0  0
 14 38  1  0  0  0  0
 14 39  1  0  0  0  0
 15 17  1  0  0  0  0
 15 18  1  0  0  0  0
 15 19  1  0  0  0  0
 15 40  1  0  0  0  0
 18 19  1  0  0  0  0
 18 41  1  0  0  0  0
 18 42  1  0  0  0  0
 19 43  1  0  0  0  0
 19 44  1  0  0  0  0
 21 20  1  1  0  0  0
 21 23  1  0  0  0  0
 21 45  1  0  0  0  0
 22 46  1  0  0  0  0
 22 47  1  0  0  0  0
 22 48  1  0  0  0  0
 23 24  1  0  0  0  0
 23 49  1  0  0  0  0
 23 50  1  0  0  0  0
 24 25  1  0  0  0  0
 24 51  1  0  0  0  0
 24 52  1  0  0  0  0
 25 53  1  0  0  0  0
 25 54  1  0  0  0  0
 26 27  1  0  0  0  0
 26 55  1  0  0  0  0
 26 56  1  0  0  0  0
 27 28  2  0  0  0  0
 27 29  1  0  0  0  0
 28 30  1  0  0  0  0
 28 57  1  0  0  0  0
 29 31  2  0  0  0  0
 29 58  1  0  0  0  0
 30 32  2  0  0  0  0
 30 59  1  0  0  0  0
 31 32  1  0  0  0  0
 31 60  1  0  0  0  0
 32 61  1  0  0  0  0
M  END
> <PUBCHEM_COMPOUND_CID>
511078
> <PUBCHEM_COMPOUND_CANONICALIZED>
1
> <PUBCHEM_CACTVS_COMPLEXITY>
890
> <PUBCHEM_CACTVS_HBOND_ACCEPTOR>
6
> <PUBCHEM_CACTVS_HBOND_DONOR>
0
> <PUBCHEM_CACTVS_ROTATABLE_BOND>
5
> <PUBCHEM_CACTVS_SUBSKEYS>
AAADceB7OABAAAAAAAAAAAAAGAAAAWLFgAAwAAAAAAAWAAABAAAAHgQAQAAADSjF2ASyAIMAAAKIAiFSEHBCAAAgAAAIiAGIAIgIYDqA0TCUIAAghiCIiAcciQAOAAAAAAAAAAAAAAAAAAAAAAAAAAAAAA==
> <PUBCHEM_IUPAC_OPENEYE_NAME>
(3aS,6S,6aR)-1-[(2S)-1-benzylsulfonylpyrrolidine-2-carbonyl]-4-(cyclopropanecarbonyl)-6-methyl-3,3a,6,6a-tetrahydro-2H-pyrrolo[3,2-b]pyrrol-5-one
> <PUBCHEM_IUPAC_CAS_NAME>
(3aS,6S,6aR)-4-[cyclopropyl(oxo)methyl]-6-methyl-1-[oxo-[(2S)-1-(phenylmethyl)sulfonyl-2-pyrrolidinyl]methyl]-3,3a,6,6a-tetrahydro-2H-pyrrolo[3,2-b]pyrrol-5-one
> <PUBCHEM_IUPAC_NAME_MARKUP>
(3<I>a</I><I>S</I>,6<I>S</I>,6<I>a</I><I>R</I>)-1-[(2<I>S</I>)-1-benzylsulfonylpyrrolidine-2-carbonyl]-4-(cyclopropanecarbonyl)-6-methyl-3,3<I>a</I>,6,6<I>a</I>-tetrahydro-2<I>H</I>-pyrrolo[3,2-b]pyrrol-5-one
> <PUBCHEM_IUPAC_NAME>
(3aS,6S,6aR)-1-[(2S)-1-benzylsulfonylpyrrolidine-2-carbonyl]-4-(cyclopropanecarbonyl)-6-methyl-3,3a,6,6a-tetrahydro-2H-pyrrolo[3,2-b]pyrrol-5-one
> <PUBCHEM_IUPAC_SYSTEMATIC_NAME>
(3aS,6S,6aR)-4-cyclopropylcarbonyl-6-methyl-1-[(2S)-1-(phenylmethyl)sulfonylpyrrolidin-2-yl]carbonyl-3,3a,6,6a-tetrahydro-2H-pyrrolo[3,2-b]pyrrol-5-one
> <PUBCHEM_IUPAC_TRADITIONAL_NAME>
(3aS,6S,6aR)-1-[(2S)-1-benzylsulfonylprolyl]-4-(cyclopropanecarbonyl)-6-methyl-3,3a,6,6a-tetrahydro-2H-pyrrolo[3,2-b]pyrrol-5-one
> <PUBCHEM_IUPAC_INCHI>
InChI=1S/C23H29N3O5S/c1-15-20-18(26(21(15)27)22(28)17-9-10-17)11-13-24(20)23(29)19-8-5-12-25(19)32(30,31)14-16-6-3-2-4-7-16/h2-4,6-7,15,17-20H,5,8-14H2,1H3/t15-,18-,19-,20+/m0/s1
> <PUBCHEM_IUPAC_INCHIKEY>
VTPNOCAYGQBYMT-MVJPYGJCSA-N
> <PUBCHEM_XLOGP3_AA>
1.3
> <PUBCHEM_EXACT_MASS>
459.18279221
> <PUBCHEM_MOLECULAR_FORMULA>
C23H29N3O5S
> <PUBCHEM_MOLECULAR_WEIGHT>
459.6
> <PUBCHEM_OPENEYE_CAN_SMILES>
CC1C2C(CCN2C(=O)C3CCCN3S(=O)(=O)CC4=CC=CC=C4)N(C1=O)C(=O)C5CC5
> <PUBCHEM_OPENEYE_ISO_SMILES>
C[C@H]1[C@@H]2[C@H](CCN2C(=O)[C@@H]3CCCN3S(=O)(=O)CC4=CC=CC=C4)N(C1=O)C(=O)C5CC5
> <PUBCHEM_CACTVS_TPSA>
103
> <PUBCHEM_MONOISOTOPIC_WEIGHT>
459.18279221
> <PUBCHEM_TOTAL_CHARGE>
0
> <PUBCHEM_HEAVY_ATOM_COUNT>
32
> <PUBCHEM_ATOM_DEF_STEREO_COUNT>
4
> <PUBCHEM_ATOM_UDEF_STEREO_COUNT>
0
> <PUBCHEM_BOND_DEF_STEREO_COUNT>
0
> <PUBCHEM_BOND_UDEF_STEREO_COUNT>
0
> <PUBCHEM_ISOTOPIC_ATOM_COUNT>
0
> <PUBCHEM_COMPONENT_COUNT>
1
> <PUBCHEM_CACTVS_TAUTO_COUNT>
-1
> <PUBCHEM_COORDINATE_TYPE>
1
5
255
> <PUBCHEM_BONDANNOTATIONS>
10  33  6
11  34  5
12  22  5
21  20  5
27  28  8
27  29  8
28  30  8
29  31  8
30  32  8
31  32  8
$$$$
