511071
  -OEChem-10302200282D
 92 93  0     1  0  0  0  0  0999 V2000
    2.8660   -2.0000    0.0000 O   0  0  0  0  0  0  0  0  0  0  0  0
    5.4641   -2.5000    0.0000 O   0  0  0  0  0  0  0  0  0  0  0  0
    4.5981    1.0000    0.0000 O   0  0  0  0  0  0  0  0  0  0  0  0
    4.5981    2.0000    0.0000 O   0  0  0  0  0  0  0  0  0  0  0  0
    3.7320    5.5000    0.0000 O   0  0  0  0  0  0  0  0  0  0  0  0
    5.4641    5.5000    0.0000 O   0  0  0  0  0  0  0  0  0  0  0  0
    3.7320   -3.5000    0.0000 N   0  0  0  0  0  0  0  0  0  0  0  0
    5.4641   -0.5000    0.0000 N   0  0  0  0  0  0  0  0  0  0  0  0
    6.3301    2.0000    0.0000 N   0  0  0  0  0  0  0  0  0  0  0  0
    4.5981    4.0000    0.0000 N   0  0  0  0  0  0  0  0  0  0  0  0
    2.8660   -5.0000    0.0000 C   0  0  0  0  0  0  0  0  0  0  0  0
    2.0000   -5.5000    0.0000 C   0  0  0  0  0  0  0  0  0  0  0  0
    3.7320   -5.5000    0.0000 C   0  0  0  0  0  0  0  0  0  0  0  0
    2.8660   -4.0000    0.0000 C   0  0  2  0  0  0  0  0  0  0  0  0
    2.0000   -6.5000    0.0000 C   0  0  0  0  0  0  0  0  0  0  0  0
    3.7320   -6.5000    0.0000 C   0  0  0  0  0  0  0  0  0  0  0  0
    2.8660   -7.0000    0.0000 C   0  0  0  0  0  0  0  0  0  0  0  0
    2.0000   -3.5000    0.0000 C   0  0  0  0  0  0  0  0  0  0  0  0
    3.7320   -2.5000    0.0000 C   0  0  0  0  0  0  0  0  0  0  0  0
    4.5981   -2.0000    0.0000 C   0  0  0  0  0  0  0  0  0  0  0  0
    4.5981   -1.0000    0.0000 C   0  0  2  0  0  0  0  0  0  0  0  0
    3.7320   -0.5000    0.0000 C   0  0  0  0  0  0  0  0  0  0  0  0
    6.3301    1.0000    0.0000 C   0  0  2  0  0  0  0  0  0  0  0  0
    3.7320    0.5000    0.0000 C   0  0  0  0  0  0  0  0  0  0  0  0
    5.4641    0.5000    0.0000 C   0  0  0  0  0  0  0  0  0  0  0  0
    5.4641    3.5000    0.0000 C   0  0  1  0  0  0  0  0  0  0  0  0
    6.3301    4.0000    0.0000 C   0  0  0  0  0  0  0  0  0  0  0  0
    7.1962    0.5000    0.0000 C   0  0  0  0  0  0  0  0  0  0  0  0
    5.4641    2.5000    0.0000 C   0  0  0  0  0  0  0  0  0  0  0  0
    2.8660    1.0000    0.0000 C   0  0  0  0  0  0  0  0  0  0  0  0
    8.0622    1.0000    0.0000 C   0  0  0  0  0  0  0  0  0  0  0  0
    6.3301    5.0000    0.0000 C   0  0  0  0  0  0  0  0  0  0  0  0
    7.1962    3.5000    0.0000 C   0  0  0  0  0  0  0  0  0  0  0  0
    8.0622    2.0000    0.0000 C   0  0  0  0  0  0  0  0  0  0  0  0
    8.9282    0.5000    0.0000 C   0  0  0  0  0  0  0  0  0  0  0  0
    4.5981    5.0000    0.0000 C   0  0  0  0  0  0  0  0  0  0  0  0
    8.9282    2.5000    0.0000 C   0  0  0  0  0  0  0  0  0  0  0  0
    9.7942    1.0000    0.0000 C   0  0  0  0  0  0  0  0  0  0  0  0
    9.7942    2.0000    0.0000 C   0  0  0  0  0  0  0  0  0  0  0  0
    3.7320    6.5000    0.0000 C   0  0  0  0  0  0  0  0  0  0  0  0
    2.8660    7.0000    0.0000 C   0  0  0  0  0  0  0  0  0  0  0  0
    4.5981    7.0000    0.0000 C   0  0  0  0  0  0  0  0  0  0  0  0
    3.4030   -4.6900    0.0000 H   0  0  0  0  0  0  0  0  0  0  0  0
    1.7880   -4.9174    0.0000 H   0  0  0  0  0  0  0  0  0  0  0  0
    1.3894   -5.6077    0.0000 H   0  0  0  0  0  0  0  0  0  0  0  0
    4.3426   -5.6077    0.0000 H   0  0  0  0  0  0  0  0  0  0  0  0
    3.9441   -4.9174    0.0000 H   0  0  0  0  0  0  0  0  0  0  0  0
    2.8660   -3.3800    0.0000 H   0  0  0  0  0  0  0  0  0  0  0  0
    1.3894   -6.3923    0.0000 H   0  0  0  0  0  0  0  0  0  0  0  0
    1.7880   -7.0826    0.0000 H   0  0  0  0  0  0  0  0  0  0  0  0
    3.9441   -7.0826    0.0000 H   0  0  0  0  0  0  0  0  0  0  0  0
    4.3426   -6.3923    0.0000 H   0  0  0  0  0  0  0  0  0  0  0  0
    2.4675   -7.4750    0.0000 H   0  0  0  0  0  0  0  0  0  0  0  0
    3.2646   -7.4750    0.0000 H   0  0  0  0  0  0  0  0  0  0  0  0
    2.3100   -2.9631    0.0000 H   0  0  0  0  0  0  0  0  0  0  0  0
    1.4631   -3.1900    0.0000 H   0  0  0  0  0  0  0  0  0  0  0  0
    1.6900   -4.0369    0.0000 H   0  0  0  0  0  0  0  0  0  0  0  0
    4.2690   -3.8100    0.0000 H   0  0  0  0  0  0  0  0  0  0  0  0
    4.5981   -0.3800    0.0000 H   0  0  0  0  0  0  0  0  0  0  0  0
    3.1215   -0.3923    0.0000 H   0  0  0  0  0  0  0  0  0  0  0  0
    3.5200   -1.0826    0.0000 H   0  0  0  0  0  0  0  0  0  0  0  0
    6.0010   -0.8100    0.0000 H   0  0  0  0  0  0  0  0  0  0  0  0
    6.8671    1.3100    0.0000 H   0  0  0  0  0  0  0  0  0  0  0  0
    4.3426    0.3923    0.0000 H   0  0  0  0  0  0  0  0  0  0  0  0
    3.9441    1.0826    0.0000 H   0  0  0  0  0  0  0  0  0  0  0  0
    5.4641    4.1200    0.0000 H   0  0  0  0  0  0  0  0  0  0  0  0
    6.8671    4.3100    0.0000 H   0  0  0  0  0  0  0  0  0  0  0  0
    6.7976    0.0251    0.0000 H   0  0  0  0  0  0  0  0  0  0  0  0
    7.5947    0.0251    0.0000 H   0  0  0  0  0  0  0  0  0  0  0  0
    6.8671    2.3100    0.0000 H   0  0  0  0  0  0  0  0  0  0  0  0
    3.1760    1.5369    0.0000 H   0  0  0  0  0  0  0  0  0  0  0  0
    2.3291    1.3100    0.0000 H   0  0  0  0  0  0  0  0  0  0  0  0
    2.5560    0.4631    0.0000 H   0  0  0  0  0  0  0  0  0  0  0  0
    6.9501    5.0000    0.0000 H   0  0  0  0  0  0  0  0  0  0  0  0
    6.3301    5.6200    0.0000 H   0  0  0  0  0  0  0  0  0  0  0  0
    5.7101    5.0000    0.0000 H   0  0  0  0  0  0  0  0  0  0  0  0
    6.8862    2.9631    0.0000 H   0  0  0  0  0  0  0  0  0  0  0  0
    7.7331    3.1900    0.0000 H   0  0  0  0  0  0  0  0  0  0  0  0
    7.5062    4.0369    0.0000 H   0  0  0  0  0  0  0  0  0  0  0  0
    4.0611    3.6900    0.0000 H   0  0  0  0  0  0  0  0  0  0  0  0
    7.5252    2.3100    0.0000 H   0  0  0  0  0  0  0  0  0  0  0  0
    8.9282   -0.1200    0.0000 H   0  0  0  0  0  0  0  0  0  0  0  0
    8.9282    3.1200    0.0000 H   0  0  0  0  0  0  0  0  0  0  0  0
   10.3312    0.6900    0.0000 H   0  0  0  0  0  0  0  0  0  0  0  0
   10.3312    2.3100    0.0000 H   0  0  0  0  0  0  0  0  0  0  0  0
    4.2690    6.1900    0.0000 H   0  0  0  0  0  0  0  0  0  0  0  0
    3.1760    7.5369    0.0000 H   0  0  0  0  0  0  0  0  0  0  0  0
    2.3291    7.3100    0.0000 H   0  0  0  0  0  0  0  0  0  0  0  0
    2.5560    6.4631    0.0000 H   0  0  0  0  0  0  0  0  0  0  0  0
    4.9081    6.4631    0.0000 H   0  0  0  0  0  0  0  0  0  0  0  0
    5.1350    7.3100    0.0000 H   0  0  0  0  0  0  0  0  0  0  0  0
    4.2881    7.5369    0.0000 H   0  0  0  0  0  0  0  0  0  0  0  0
  1 19  2  0  0  0  0
  2 20  2  0  0  0  0
  3 25  2  0  0  0  0
  4 29  2  0  0  0  0
  5 36  1  0  0  0  0
  5 40  1  0  0  0  0
  6 36  2  0  0  0  0
 14  7  1  6  0  0  0
  7 19  1  0  0  0  0
  7 58  1  0  0  0  0
 21  8  1  6  0  0  0
  8 25  1  0  0  0  0
  8 62  1  0  0  0  0
 23  9  1  1  0  0  0
  9 29  1  0  0  0  0
  9 70  1  0  0  0  0
 26 10  1  1  0  0  0
 10 36  1  0  0  0  0
 10 80  1  0  0  0  0
 11 12  1  0  0  0  0
 11 13  1  0  0  0  0
 11 14  1  0  0  0  0
 11 43  1  0  0  0  0
 12 15  1  0  0  0  0
 12 44  1  0  0  0  0
 12 45  1  0  0  0  0
 13 16  1  0  0  0  0
 13 46  1  0  0  0  0
 13 47  1  0  0  0  0
 14 18  1  0  0  0  0
 14 48  1  0  0  0  0
 15 17  1  0  0  0  0
 15 49  1  0  0  0  0
 15 50  1  0  0  0  0
 16 17  1  0  0  0  0
 16 51  1  0  0  0  0
 16 52  1  0  0  0  0
 17 53  1  0  0  0  0
 17 54  1  0  0  0  0
 18 55  1  0  0  0  0
 18 56  1  0  0  0  0
 18 57  1  0  0  0  0
 19 20  1  0  0  0  0
 20 21  1  0  0  0  0
 21 22  1  0  0  0  0
 21 59  1  0  0  0  0
 22 24  1  0  0  0  0
 22 60  1  0  0  0  0
 22 61  1  0  0  0  0
 23 25  1  0  0  0  0
 23 28  1  0  0  0  0
 23 63  1  0  0  0  0
 24 30  1  0  0  0  0
 24 64  1  0  0  0  0
 24 65  1  0  0  0  0
 26 27  1  0  0  0  0
 26 29  1  0  0  0  0
 26 66  1  0  0  0  0
 27 32  1  0  0  0  0
 27 33  1  0  0  0  0
 27 67  1  0  0  0  0
 28 31  1  0  0  0  0
 28 68  1  0  0  0  0
 28 69  1  0  0  0  0
 30 71  1  0  0  0  0
 30 72  1  0  0  0  0
 30 73  1  0  0  0  0
 31 34  2  0  0  0  0
 31 35  1  0  0  0  0
 32 74  1  0  0  0  0
 32 75  1  0  0  0  0
 32 76  1  0  0  0  0
 33 77  1  0  0  0  0
 33 78  1  0  0  0  0
 33 79  1  0  0  0  0
 34 37  1  0  0  0  0
 34 81  1  0  0  0  0
 35 38  2  0  0  0  0
 35 82  1  0  0  0  0
 37 39  2  0  0  0  0
 37 83  1  0  0  0  0
 38 39  1  0  0  0  0
 38 84  1  0  0  0  0
 39 85  1  0  0  0  0
 40 41  1  0  0  0  0
 40 42  1  0  0  0  0
 40 86  1  0  0  0  0
 41 87  1  0  0  0  0
 41 88  1  0  0  0  0
 41 89  1  0  0  0  0
 42 90  1  0  0  0  0
 42 91  1  0  0  0  0
 42 92  1  0  0  0  0
M  END
> <PUBCHEM_COMPOUND_CID>
511071
> <PUBCHEM_COMPOUND_CANONICALIZED>
1
> <PUBCHEM_CACTVS_COMPLEXITY>
895
> <PUBCHEM_CACTVS_HBOND_ACCEPTOR>
6
> <PUBCHEM_CACTVS_HBOND_DONOR>
4
> <PUBCHEM_CACTVS_ROTATABLE_BOND>
16
> <PUBCHEM_CACTVS_SUBSKEYS>
AAADcfB/uAAAAAAAAAAAAAAAAAAAAAAAAAAwYAAAAAAAAAABAAAAHgAQAAAADTzhmAYyCILABACIAqFSGAACAAAgAAAIiIGIAIkIYDqA0TGcIAAglgCIiAcYiICOAAAAAAAAAAAAAAAAAAAAAAAAAAAAAA==
> <PUBCHEM_IUPAC_OPENEYE_NAME>
isopropyl N-[(1S)-1-[[(1S)-1-benzyl-2-[[(1S)-1-[2-[[(1S)-1-cyclohexylethyl]amino]-2-oxo-acetyl]butyl]amino]-2-oxo-ethyl]carbamoyl]-2-methyl-propyl]carbamate
> <PUBCHEM_IUPAC_CAS_NAME>
N-[(2S)-1-[[(2S)-1-[[(3S)-1-[[(1S)-1-cyclohexylethyl]amino]-1,2-dioxohexan-3-yl]amino]-1-oxo-3-phenylpropan-2-yl]amino]-3-methyl-1-oxobutan-2-yl]carbamic acid propan-2-yl ester
> <PUBCHEM_IUPAC_NAME_MARKUP>
propan-2-yl <I>N</I>-[(2<I>S</I>)-1-[[(2<I>S</I>)-1-[[(3<I>S</I>)-1-[[(1<I>S</I>)-1-cyclohexylethyl]amino]-1,2-dioxohexan-3-yl]amino]-1-oxo-3-phenylpropan-2-yl]amino]-3-methyl-1-oxobutan-2-yl]carbamate
> <PUBCHEM_IUPAC_NAME>
propan-2-yl N-[(2S)-1-[[(2S)-1-[[(3S)-1-[[(1S)-1-cyclohexylethyl]amino]-1,2-dioxohexan-3-yl]amino]-1-oxo-3-phenylpropan-2-yl]amino]-3-methyl-1-oxobutan-2-yl]carbamate
> <PUBCHEM_IUPAC_SYSTEMATIC_NAME>
propan-2-yl N-[(2S)-1-[[(2S)-1-[[(3S)-1-[[(1S)-1-cyclohexylethyl]amino]-1,2-bis(oxidanylidene)hexan-3-yl]amino]-1-oxidanylidene-3-phenyl-propan-2-yl]amino]-3-methyl-1-oxidanylidene-butan-2-yl]carbamate
> <PUBCHEM_IUPAC_TRADITIONAL_NAME>
N-[(1S)-1-[[(1S)-1-benzyl-2-[[(1S)-1-[2-[[(1S)-1-cyclohexylethyl]amino]-2-keto-acetyl]butyl]amino]-2-keto-ethyl]carbamoyl]-2-methyl-propyl]carbamic acid isopropyl ester
> <PUBCHEM_IUPAC_INCHI>
InChI=1S/C32H50N4O6/c1-7-14-25(28(37)31(40)33-22(6)24-17-12-9-13-18-24)34-29(38)26(19-23-15-10-8-11-16-23)35-30(39)27(20(2)3)36-32(41)42-21(4)5/h8,10-11,15-16,20-22,24-27H,7,9,12-14,17-19H2,1-6H3,(H,33,40)(H,34,38)(H,35,39)(H,36,41)/t22-,25-,26-,27-/m0/s1
> <PUBCHEM_IUPAC_INCHIKEY>
YSWAFGYIEKRDNC-OXCFDMGDSA-N
> <PUBCHEM_XLOGP3_AA>
6.1
> <PUBCHEM_EXACT_MASS>
586.37303533
> <PUBCHEM_MOLECULAR_FORMULA>
C32H50N4O6
> <PUBCHEM_MOLECULAR_WEIGHT>
586.8
> <PUBCHEM_OPENEYE_CAN_SMILES>
CCCC(C(=O)C(=O)NC(C)C1CCCCC1)NC(=O)C(CC2=CC=CC=C2)NC(=O)C(C(C)C)NC(=O)OC(C)C
> <PUBCHEM_OPENEYE_ISO_SMILES>
CCC[C@@H](C(=O)C(=O)N[C@@H](C)C1CCCCC1)NC(=O)[C@H](CC2=CC=CC=C2)NC(=O)[C@H](C(C)C)NC(=O)OC(C)C
> <PUBCHEM_CACTVS_TPSA>
143
> <PUBCHEM_MONOISOTOPIC_WEIGHT>
586.37303533
> <PUBCHEM_TOTAL_CHARGE>
0
> <PUBCHEM_HEAVY_ATOM_COUNT>
42
> <PUBCHEM_ATOM_DEF_STEREO_COUNT>
4
> <PUBCHEM_ATOM_UDEF_STEREO_COUNT>
0
> <PUBCHEM_BOND_DEF_STEREO_COUNT>
0
> <PUBCHEM_BOND_UDEF_STEREO_COUNT>
0
> <PUBCHEM_ISOTOPIC_ATOM_COUNT>
0
> <PUBCHEM_COMPONENT_COUNT>
1
> <PUBCHEM_CACTVS_TAUTO_COUNT>
-1
> <PUBCHEM_COORDINATE_TYPE>
1
5
255
> <PUBCHEM_BONDANNOTATIONS>
26  10  5
31  34  8
31  35  8
34  37  8
35  38  8
37  39  8
38  39  8
14  7  6
21  8  6
23  9  5
$$$$
