511085
  -OEChem-10302200282D
 63 68  0     1  0  0  0  0  0999 V2000
    2.0000    2.2652    0.0000 Cl  0  0  0  0  0  0  0  0  0  0  0  0
    5.5443    0.4605    0.0000 S   0  0  0  0  0  0  0  0  0  0  0  0
   11.4402   -2.5500    0.0000 O   0  0  0  0  0  0  0  0  0  0  0  0
   13.7223   -0.3471    0.0000 O   0  0  0  0  0  0  0  0  0  0  0  0
    8.9825    1.9888    0.0000 O   0  0  0  0  0  0  0  0  0  0  0  0
    7.6279    2.1312    0.0000 O   0  0  0  0  0  0  0  0  0  0  0  0
   10.2697    0.8299    0.0000 N   0  0  0  0  0  0  0  0  0  0  0  0
   12.0759   -0.8852    0.0000 N   0  0  0  0  0  0  0  0  0  0  0  0
    7.6279    0.3992    0.0000 N   0  0  0  0  0  0  0  0  0  0  0  0
   10.6732   -0.0786    0.0000 C   0  0  1  0  0  0  0  0  0  0  0  0
   11.6676    0.0276    0.0000 C   0  0  2  0  0  0  0  0  0  0  0  0
   10.4670   -1.0571    0.0000 C   0  0  1  0  0  0  0  0  0  0  0  0
   11.8701    1.0009    0.0000 C   0  0  0  0  0  0  0  0  0  0  0  0
   11.0079    1.4957    0.0000 C   0  0  0  0  0  0  0  0  0  0  0  0
   13.3651   -2.0419    0.0000 C   0  0  0  0  0  0  0  0  0  0  0  0
   11.3339   -1.5556    0.0000 C   0  0  0  0  0  0  0  0  0  0  0  0
   13.0544   -1.0914    0.0000 C   0  0  0  0  0  0  0  0  0  0  0  0
   14.1094   -2.7098    0.0000 C   0  0  0  0  0  0  0  0  0  0  0  0
   13.1589   -3.0204    0.0000 C   0  0  0  0  0  0  0  0  0  0  0  0
    9.2916    1.0378    0.0000 C   0  0  0  0  0  0  0  0  0  0  0  0
    9.5542   -1.4654    0.0000 C   0  0  0  0  0  0  0  0  0  0  0  0
    8.6224    0.2946    0.0000 C   0  0  2  0  0  0  0  0  0  0  0  0
    8.8303   -0.6835    0.0000 C   0  0  0  0  0  0  0  0  0  0  0  0
    7.9643   -1.1835    0.0000 C   0  0  0  0  0  0  0  0  0  0  0  0
    7.2212   -0.5144    0.0000 C   0  0  0  0  0  0  0  0  0  0  0  0
    7.1279    1.2652    0.0000 C   0  0  0  0  0  0  0  0  0  0  0  0
    6.1279    1.2652    0.0000 C   0  0  0  0  0  0  0  0  0  0  0  0
    5.5443    2.0699    0.0000 C   0  0  0  0  0  0  0  0  0  0  0  0
    4.5981    1.7652    0.0000 C   0  0  0  0  0  0  0  0  0  0  0  0
    4.5981    0.7652    0.0000 C   0  0  0  0  0  0  0  0  0  0  0  0
    5.8550    3.0204    0.0000 C   0  0  0  0  0  0  0  0  0  0  0  0
    3.7320    2.2652    0.0000 C   0  0  0  0  0  0  0  0  0  0  0  0
    3.7320    0.2652    0.0000 C   0  0  0  0  0  0  0  0  0  0  0  0
    2.8660    1.7652    0.0000 C   0  0  0  0  0  0  0  0  0  0  0  0
    2.8660    0.7652    0.0000 C   0  0  0  0  0  0  0  0  0  0  0  0
    9.8279   -0.1678    0.0000 H   0  0  0  0  0  0  0  0  0  0  0  0
   12.5127    0.1190    0.0000 H   0  0  0  0  0  0  0  0  0  0  0  0
    9.9845   -0.6678    0.0000 H   0  0  0  0  0  0  0  0  0  0  0  0
   12.4604    0.8115    0.0000 H   0  0  0  0  0  0  0  0  0  0  0  0
   12.1204    1.5681    0.0000 H   0  0  0  0  0  0  0  0  0  0  0  0
   11.3713    1.9980    0.0000 H   0  0  0  0  0  0  0  0  0  0  0  0
   10.5465    1.9099    0.0000 H   0  0  0  0  0  0  0  0  0  0  0  0
   12.7460   -2.0755    0.0000 H   0  0  0  0  0  0  0  0  0  0  0  0
   14.4014   -3.2567    0.0000 H   0  0  0  0  0  0  0  0  0  0  0  0
   14.5973   -2.3272    0.0000 H   0  0  0  0  0  0  0  0  0  0  0  0
   12.5392   -2.9999    0.0000 H   0  0  0  0  0  0  0  0  0  0  0  0
   13.2462   -3.6343    0.0000 H   0  0  0  0  0  0  0  0  0  0  0  0
    9.3010   -0.8995    0.0000 H   0  0  0  0  0  0  0  0  0  0  0  0
    8.9882   -1.7186    0.0000 H   0  0  0  0  0  0  0  0  0  0  0  0
    9.8074   -2.0314    0.0000 H   0  0  0  0  0  0  0  0  0  0  0  0
    8.4002    0.8735    0.0000 H   0  0  0  0  0  0  0  0  0  0  0  0
    9.0825   -1.2499    0.0000 H   0  0  0  0  0  0  0  0  0  0  0  0
    9.4200   -0.4919    0.0000 H   0  0  0  0  0  0  0  0  0  0  0  0
    7.5036   -1.5984    0.0000 H   0  0  0  0  0  0  0  0  0  0  0  0
    8.3287   -1.6851    0.0000 H   0  0  0  0  0  0  0  0  0  0  0  0
    6.6842   -0.2044    0.0000 H   0  0  0  0  0  0  0  0  0  0  0  0
    6.8567   -1.0160    0.0000 H   0  0  0  0  0  0  0  0  0  0  0  0
    6.4443    2.8278    0.0000 H   0  0  0  0  0  0  0  0  0  0  0  0
    6.0476    3.6098    0.0000 H   0  0  0  0  0  0  0  0  0  0  0  0
    5.2656    3.2131    0.0000 H   0  0  0  0  0  0  0  0  0  0  0  0
    3.7320    2.8852    0.0000 H   0  0  0  0  0  0  0  0  0  0  0  0
    3.7320   -0.3548    0.0000 H   0  0  0  0  0  0  0  0  0  0  0  0
    2.3291    0.4552    0.0000 H   0  0  0  0  0  0  0  0  0  0  0  0
  1 34  1  0  0  0  0
  2 27  1  0  0  0  0
  2 30  1  0  0  0  0
  3 16  2  0  0  0  0
  4 17  2  0  0  0  0
  5 20  2  0  0  0  0
  6 26  2  0  0  0  0
  7 10  1  0  0  0  0
  7 14  1  0  0  0  0
  7 20  1  0  0  0  0
  8 11  1  0  0  0  0
  8 16  1  0  0  0  0
  8 17  1  0  0  0  0
  9 22  1  0  0  0  0
  9 25  1  0  0  0  0
  9 26  1  0  0  0  0
 10 11  1  0  0  0  0
 10 12  1  0  0  0  0
 10 36  1  6  0  0  0
 11 13  1  0  0  0  0
 11 37  1  1  0  0  0
 12 16  1  0  0  0  0
 12 21  1  1  0  0  0
 12 38  1  0  0  0  0
 13 14  1  0  0  0  0
 13 39  1  0  0  0  0
 13 40  1  0  0  0  0
 14 41  1  0  0  0  0
 14 42  1  0  0  0  0
 15 17  1  0  0  0  0
 15 18  1  0  0  0  0
 15 19  1  0  0  0  0
 15 43  1  0  0  0  0
 18 19  1  0  0  0  0
 18 44  1  0  0  0  0
 18 45  1  0  0  0  0
 19 46  1  0  0  0  0
 19 47  1  0  0  0  0
 22 20  1  6  0  0  0
 21 48  1  0  0  0  0
 21 49  1  0  0  0  0
 21 50  1  0  0  0  0
 22 23  1  0  0  0  0
 22 51  1  0  0  0  0
 23 24  1  0  0  0  0
 23 52  1  0  0  0  0
 23 53  1  0  0  0  0
 24 25  1  0  0  0  0
 24 54  1  0  0  0  0
 24 55  1  0  0  0  0
 25 56  1  0  0  0  0
 25 57  1  0  0  0  0
 26 27  1  0  0  0  0
 27 28  2  0  0  0  0
 28 29  1  0  0  0  0
 28 31  1  0  0  0  0
 29 30  2  0  0  0  0
 29 32  1  0  0  0  0
 30 33  1  0  0  0  0
 31 58  1  0  0  0  0
 31 59  1  0  0  0  0
 31 60  1  0  0  0  0
 32 34  2  0  0  0  0
 32 61  1  0  0  0  0
 33 35  2  0  0  0  0
 33 62  1  0  0  0  0
 34 35  1  0  0  0  0
 35 63  1  0  0  0  0
M  END
> <PUBCHEM_COMPOUND_CID>
511085
> <PUBCHEM_COMPOUND_CANONICALIZED>
1
> <PUBCHEM_CACTVS_COMPLEXITY>
944
> <PUBCHEM_CACTVS_HBOND_ACCEPTOR>
5
> <PUBCHEM_CACTVS_HBOND_DONOR>
0
> <PUBCHEM_CACTVS_ROTATABLE_BOND>
3
> <PUBCHEM_CACTVS_SUBSKEYS>
AAADceB7OABEAAAAAAAAAAAAGAAAAWLFiQAwAAAAAAAWAEgB8AAAHgYAAAAADSrB2CQyAcMAAAiMAiFSEACDAIAkDRBIiBmIBsgIYDqh1zGUIQhghiCoiQccicCOgAIAIAAEAAAABABAAAgAAAAAAAAAAA==
> <PUBCHEM_IUPAC_OPENEYE_NAME>
(3aS,6S,6aR)-1-[(2S)-1-(5-chloro-3-methyl-benzothiophene-2-carbonyl)pyrrolidine-2-carbonyl]-4-(cyclopropanecarbonyl)-6-methyl-3,3a,6,6a-tetrahydro-2H-pyrrolo[3,2-b]pyrrol-5-one
> <PUBCHEM_IUPAC_CAS_NAME>
(3aS,6S,6aR)-1-[[(2S)-1-[(5-chloro-3-methyl-1-benzothiophen-2-yl)-oxomethyl]-2-pyrrolidinyl]-oxomethyl]-4-[cyclopropyl(oxo)methyl]-6-methyl-3,3a,6,6a-tetrahydro-2H-pyrrolo[3,2-b]pyrrol-5-one
> <PUBCHEM_IUPAC_NAME_MARKUP>
(3<I>a</I><I>S</I>,6<I>S</I>,6<I>a</I><I>R</I>)-1-[(2<I>S</I>)-1-(5-chloro-3-methyl-1-benzothiophene-2-carbonyl)pyrrolidine-2-carbonyl]-4-(cyclopropanecarbonyl)-6-methyl-3,3<I>a</I>,6,6<I>a</I>-tetrahydro-2<I>H</I>-pyrrolo[3,2-b]pyrrol-5-one
> <PUBCHEM_IUPAC_NAME>
(3aS,6S,6aR)-1-[(2S)-1-(5-chloro-3-methyl-1-benzothiophene-2-carbonyl)pyrrolidine-2-carbonyl]-4-(cyclopropanecarbonyl)-6-methyl-3,3a,6,6a-tetrahydro-2H-pyrrolo[3,2-b]pyrrol-5-one
> <PUBCHEM_IUPAC_SYSTEMATIC_NAME>
(3aS,6S,6aR)-1-[(2S)-1-[(5-chloranyl-3-methyl-1-benzothiophen-2-yl)carbonyl]pyrrolidin-2-yl]carbonyl-4-cyclopropylcarbonyl-6-methyl-3,3a,6,6a-tetrahydro-2H-pyrrolo[3,2-b]pyrrol-5-one
> <PUBCHEM_IUPAC_TRADITIONAL_NAME>
(3aS,6S,6aR)-1-[(2S)-1-(5-chloro-3-methyl-benzothiophene-2-carbonyl)prolyl]-4-(cyclopropanecarbonyl)-6-methyl-3,3a,6,6a-tetrahydro-2H-pyrrolo[3,2-b]pyrrol-5-one
> <PUBCHEM_IUPAC_INCHI>
InChI=1S/C26H28ClN3O4S/c1-13-17-12-16(27)7-8-20(17)35-22(13)26(34)28-10-3-4-19(28)25(33)29-11-9-18-21(29)14(2)23(31)30(18)24(32)15-5-6-15/h7-8,12,14-15,18-19,21H,3-6,9-11H2,1-2H3/t14-,18-,19-,21+/m0/s1
> <PUBCHEM_IUPAC_INCHIKEY>
JRQWCOUDMNNTQH-CMBBURJTSA-N
> <PUBCHEM_XLOGP3_AA>
4.1
> <PUBCHEM_EXACT_MASS>
513.1489053
> <PUBCHEM_MOLECULAR_FORMULA>
C26H28ClN3O4S
> <PUBCHEM_MOLECULAR_WEIGHT>
514.0
> <PUBCHEM_OPENEYE_CAN_SMILES>
CC1C2C(CCN2C(=O)C3CCCN3C(=O)C4=C(C5=C(S4)C=CC(=C5)Cl)C)N(C1=O)C(=O)C6CC6
> <PUBCHEM_OPENEYE_ISO_SMILES>
C[C@H]1[C@@H]2[C@H](CCN2C(=O)[C@@H]3CCCN3C(=O)C4=C(C5=C(S4)C=CC(=C5)Cl)C)N(C1=O)C(=O)C6CC6
> <PUBCHEM_CACTVS_TPSA>
106
> <PUBCHEM_MONOISOTOPIC_WEIGHT>
513.1489053
> <PUBCHEM_TOTAL_CHARGE>
0
> <PUBCHEM_HEAVY_ATOM_COUNT>
35
> <PUBCHEM_ATOM_DEF_STEREO_COUNT>
4
> <PUBCHEM_ATOM_UDEF_STEREO_COUNT>
0
> <PUBCHEM_BOND_DEF_STEREO_COUNT>
0
> <PUBCHEM_BOND_UDEF_STEREO_COUNT>
0
> <PUBCHEM_ISOTOPIC_ATOM_COUNT>
0
> <PUBCHEM_COMPONENT_COUNT>
1
> <PUBCHEM_CACTVS_TAUTO_COUNT>
-1
> <PUBCHEM_COORDINATE_TYPE>
1
5
255
> <PUBCHEM_BONDANNOTATIONS>
10  36  6
11  37  5
12  21  5
2  27  8
2  30  8
22  20  6
27  28  8
28  29  8
29  30  8
29  32  8
30  33  8
32  34  8
33  35  8
34  35  8
$$$$
