511073
  -OEChem-10302200282D
 87 88  0     1  0  0  0  0  0999 V2000
   10.6603    2.0000    0.0000 O   0  0  0  0  0  0  0  0  0  0  0  0
    7.1962    1.0000    0.0000 O   0  0  0  0  0  0  0  0  0  0  0  0
    6.3301    0.5000    0.0000 O   0  0  0  0  0  0  0  0  0  0  0  0
    2.8660   -0.5000    0.0000 O   0  0  0  0  0  0  0  0  0  0  0  0
    9.7942    3.5000    0.0000 O   0  0  0  0  0  0  0  0  0  0  0  0
    6.3301    2.5000    0.0000 N   0  0  0  0  0  0  0  0  0  0  0  0
    4.5981    0.5000    0.0000 N   0  0  0  0  0  0  0  0  0  0  0  0
    8.9282    2.0000    0.0000 N   0  0  0  0  0  0  0  0  0  0  0  0
    3.7320   -2.0000    0.0000 N   0  0  0  0  0  0  0  0  0  0  0  0
    8.0622    2.5000    0.0000 C   0  0  1  0  0  0  0  0  0  0  0  0
    8.0622    3.5000    0.0000 C   0  0  0  0  0  0  0  0  0  0  0  0
    5.4641    2.0000    0.0000 C   0  0  1  0  0  0  0  0  0  0  0  0
    4.5981   -0.5000    0.0000 C   0  0  1  0  0  0  0  0  0  0  0  0
    4.5981    2.5000    0.0000 C   0  0  0  0  0  0  0  0  0  0  0  0
    7.1962    2.0000    0.0000 C   0  0  0  0  0  0  0  0  0  0  0  0
    5.4641   -1.0000    0.0000 C   0  0  0  0  0  0  0  0  0  0  0  0
    5.4641    1.0000    0.0000 C   0  0  0  0  0  0  0  0  0  0  0  0
    8.9282    4.0000    0.0000 C   0  0  0  0  0  0  0  0  0  0  0  0
    7.1962    4.0000    0.0000 C   0  0  0  0  0  0  0  0  0  0  0  0
    6.3301   -0.5000    0.0000 C   0  0  0  0  0  0  0  0  0  0  0  0
    3.7320   -1.0000    0.0000 C   0  0  0  0  0  0  0  0  0  0  0  0
    4.5981    3.5000    0.0000 C   0  0  0  0  0  0  0  0  0  0  0  0
    2.8660   -2.5000    0.0000 C   0  0  2  0  0  0  0  0  0  0  0  0
   11.5263    2.5000    0.0000 C   0  0  0  0  0  0  0  0  0  0  0  0
    9.7942    2.5000    0.0000 C   0  0  0  0  0  0  0  0  0  0  0  0
    7.1962   -1.0000    0.0000 C   0  0  0  0  0  0  0  0  0  0  0  0
    2.8660   -3.5000    0.0000 C   0  0  0  0  0  0  0  0  0  0  0  0
    3.7320    4.0000    0.0000 C   0  0  0  0  0  0  0  0  0  0  0  0
    5.4641    4.0000    0.0000 C   0  0  0  0  0  0  0  0  0  0  0  0
    2.0000   -2.0000    0.0000 C   0  0  0  0  0  0  0  0  0  0  0  0
   12.3923    3.0000    0.0000 C   0  0  0  0  0  0  0  0  0  0  0  0
   12.0263    1.6340    0.0000 C   0  0  0  0  0  0  0  0  0  0  0  0
   11.0263    3.3660    0.0000 C   0  0  0  0  0  0  0  0  0  0  0  0
    3.7320    5.0000    0.0000 C   0  0  0  0  0  0  0  0  0  0  0  0
    5.4641    5.0000    0.0000 C   0  0  0  0  0  0  0  0  0  0  0  0
    3.7320   -4.0000    0.0000 C   0  0  0  0  0  0  0  0  0  0  0  0
    2.0000   -4.0000    0.0000 C   0  0  0  0  0  0  0  0  0  0  0  0
    4.5981    5.5000    0.0000 C   0  0  0  0  0  0  0  0  0  0  0  0
    3.7320   -5.0000    0.0000 C   0  0  0  0  0  0  0  0  0  0  0  0
    2.0000   -5.0000    0.0000 C   0  0  0  0  0  0  0  0  0  0  0  0
    2.8660   -5.5000    0.0000 C   0  0  0  0  0  0  0  0  0  0  0  0
    8.0622    1.8800    0.0000 H   0  0  0  0  0  0  0  0  0  0  0  0
    8.0622    4.1200    0.0000 H   0  0  0  0  0  0  0  0  0  0  0  0
    5.4641    2.6200    0.0000 H   0  0  0  0  0  0  0  0  0  0  0  0
    5.1350   -0.1900    0.0000 H   0  0  0  0  0  0  0  0  0  0  0  0
    3.9875    2.6077    0.0000 H   0  0  0  0  0  0  0  0  0  0  0  0
    4.3860    1.9174    0.0000 H   0  0  0  0  0  0  0  0  0  0  0  0
    5.0656   -1.4750    0.0000 H   0  0  0  0  0  0  0  0  0  0  0  0
    5.8626   -1.4750    0.0000 H   0  0  0  0  0  0  0  0  0  0  0  0
    6.3301    3.1200    0.0000 H   0  0  0  0  0  0  0  0  0  0  0  0
    4.0611    0.8100    0.0000 H   0  0  0  0  0  0  0  0  0  0  0  0
    9.2382    3.4631    0.0000 H   0  0  0  0  0  0  0  0  0  0  0  0
    9.4651    4.3100    0.0000 H   0  0  0  0  0  0  0  0  0  0  0  0
    8.6182    4.5369    0.0000 H   0  0  0  0  0  0  0  0  0  0  0  0
    7.5062    4.5369    0.0000 H   0  0  0  0  0  0  0  0  0  0  0  0
    6.6592    4.3100    0.0000 H   0  0  0  0  0  0  0  0  0  0  0  0
    6.8862    3.4631    0.0000 H   0  0  0  0  0  0  0  0  0  0  0  0
    8.9282    1.3800    0.0000 H   0  0  0  0  0  0  0  0  0  0  0  0
    6.7287   -0.0251    0.0000 H   0  0  0  0  0  0  0  0  0  0  0  0
    5.9316   -0.0251    0.0000 H   0  0  0  0  0  0  0  0  0  0  0  0
    2.8660   -1.8800    0.0000 H   0  0  0  0  0  0  0  0  0  0  0  0
    4.2690   -2.3100    0.0000 H   0  0  0  0  0  0  0  0  0  0  0  0
    6.8862   -1.5369    0.0000 H   0  0  0  0  0  0  0  0  0  0  0  0
    7.7331   -1.3100    0.0000 H   0  0  0  0  0  0  0  0  0  0  0  0
    7.5062   -0.4631    0.0000 H   0  0  0  0  0  0  0  0  0  0  0  0
    3.1951    3.6900    0.0000 H   0  0  0  0  0  0  0  0  0  0  0  0
    6.0010    3.6900    0.0000 H   0  0  0  0  0  0  0  0  0  0  0  0
    2.3100   -1.4631    0.0000 H   0  0  0  0  0  0  0  0  0  0  0  0
    1.4631   -1.6900    0.0000 H   0  0  0  0  0  0  0  0  0  0  0  0
    1.6900   -2.5369    0.0000 H   0  0  0  0  0  0  0  0  0  0  0  0
   12.7023    2.4631    0.0000 H   0  0  0  0  0  0  0  0  0  0  0  0
   12.9292    3.3100    0.0000 H   0  0  0  0  0  0  0  0  0  0  0  0
   12.0823    3.5369    0.0000 H   0  0  0  0  0  0  0  0  0  0  0  0
   11.4893    1.3240    0.0000 H   0  0  0  0  0  0  0  0  0  0  0  0
   12.3363    1.0970    0.0000 H   0  0  0  0  0  0  0  0  0  0  0  0
   12.5632    1.9440    0.0000 H   0  0  0  0  0  0  0  0  0  0  0  0
   11.5632    3.6760    0.0000 H   0  0  0  0  0  0  0  0  0  0  0  0
   10.7163    3.9030    0.0000 H   0  0  0  0  0  0  0  0  0  0  0  0
   10.4893    3.0560    0.0000 H   0  0  0  0  0  0  0  0  0  0  0  0
    3.1951    5.3100    0.0000 H   0  0  0  0  0  0  0  0  0  0  0  0
    6.0010    5.3100    0.0000 H   0  0  0  0  0  0  0  0  0  0  0  0
    4.2690   -3.6900    0.0000 H   0  0  0  0  0  0  0  0  0  0  0  0
    1.4631   -3.6900    0.0000 H   0  0  0  0  0  0  0  0  0  0  0  0
    4.5981    6.1200    0.0000 H   0  0  0  0  0  0  0  0  0  0  0  0
    4.2690   -5.3100    0.0000 H   0  0  0  0  0  0  0  0  0  0  0  0
    1.4631   -5.3100    0.0000 H   0  0  0  0  0  0  0  0  0  0  0  0
    2.8660   -6.1200    0.0000 H   0  0  0  0  0  0  0  0  0  0  0  0
  1 24  1  0  0  0  0
  1 25  1  0  0  0  0
  2 15  2  0  0  0  0
  3 17  2  0  0  0  0
  4 21  2  0  0  0  0
  5 25  2  0  0  0  0
 12  6  1  6  0  0  0
  6 15  1  0  0  0  0
  6 50  1  0  0  0  0
 13  7  1  1  0  0  0
  7 17  1  0  0  0  0
  7 51  1  0  0  0  0
 10  8  1  6  0  0  0
  8 25  1  0  0  0  0
  8 58  1  0  0  0  0
  9 21  1  0  0  0  0
 23  9  1  6  0  0  0
  9 62  1  0  0  0  0
 10 11  1  0  0  0  0
 10 15  1  0  0  0  0
 10 42  1  0  0  0  0
 11 18  1  0  0  0  0
 11 19  1  0  0  0  0
 11 43  1  0  0  0  0
 12 14  1  0  0  0  0
 12 17  1  0  0  0  0
 12 44  1  0  0  0  0
 13 16  1  0  0  0  0
 13 21  1  0  0  0  0
 13 45  1  0  0  0  0
 14 22  1  0  0  0  0
 14 46  1  0  0  0  0
 14 47  1  0  0  0  0
 16 20  1  0  0  0  0
 16 48  1  0  0  0  0
 16 49  1  0  0  0  0
 18 52  1  0  0  0  0
 18 53  1  0  0  0  0
 18 54  1  0  0  0  0
 19 55  1  0  0  0  0
 19 56  1  0  0  0  0
 19 57  1  0  0  0  0
 20 26  1  0  0  0  0
 20 59  1  0  0  0  0
 20 60  1  0  0  0  0
 22 28  2  0  0  0  0
 22 29  1  0  0  0  0
 23 27  1  0  0  0  0
 23 30  1  0  0  0  0
 23 61  1  0  0  0  0
 24 31  1  0  0  0  0
 24 32  1  0  0  0  0
 24 33  1  0  0  0  0
 26 63  1  0  0  0  0
 26 64  1  0  0  0  0
 26 65  1  0  0  0  0
 27 36  2  0  0  0  0
 27 37  1  0  0  0  0
 28 34  1  0  0  0  0
 28 66  1  0  0  0  0
 29 35  2  0  0  0  0
 29 67  1  0  0  0  0
 30 68  1  0  0  0  0
 30 69  1  0  0  0  0
 30 70  1  0  0  0  0
 31 71  1  0  0  0  0
 31 72  1  0  0  0  0
 31 73  1  0  0  0  0
 32 74  1  0  0  0  0
 32 75  1  0  0  0  0
 32 76  1  0  0  0  0
 33 77  1  0  0  0  0
 33 78  1  0  0  0  0
 33 79  1  0  0  0  0
 34 38  2  0  0  0  0
 34 80  1  0  0  0  0
 35 38  1  0  0  0  0
 35 81  1  0  0  0  0
 36 39  1  0  0  0  0
 36 82  1  0  0  0  0
 37 40  2  0  0  0  0
 37 83  1  0  0  0  0
 38 84  1  0  0  0  0
 39 41  2  0  0  0  0
 39 85  1  0  0  0  0
 40 41  1  0  0  0  0
 40 86  1  0  0  0  0
 41 87  1  0  0  0  0
M  END
> <PUBCHEM_COMPOUND_CID>
511073
> <PUBCHEM_COMPOUND_CANONICALIZED>
1
> <PUBCHEM_CACTVS_COMPLEXITY>
844
> <PUBCHEM_CACTVS_HBOND_ACCEPTOR>
5
> <PUBCHEM_CACTVS_HBOND_DONOR>
4
> <PUBCHEM_CACTVS_ROTATABLE_BOND>
15
> <PUBCHEM_CACTVS_SUBSKEYS>
AAADcfB/uAAAAAAAAAAAAAAAAAAAAAAAAAAwYAAAAAAAAAABQAAAHgAQAAAADWzBmAQyCILABACIAiFSGACCAAAgAAAIiIGIBIkIYDKAkTGcIAhglgCIiAcYiICOAAAAAAAAAAAAAAAAAAAAAAAAAAAAAA==
> <PUBCHEM_IUPAC_OPENEYE_NAME>
tert-butyl N-[(1S)-1-[[(1S)-1-benzyl-2-oxo-2-[[(1S)-1-[[(1S)-1-phenylethyl]carbamoyl]butyl]amino]ethyl]carbamoyl]-2-methyl-propyl]carbamate
> <PUBCHEM_IUPAC_CAS_NAME>
N-[(2S)-3-methyl-1-oxo-1-[[(2S)-1-oxo-1-[[(2S)-1-oxo-1-[[(1S)-1-phenylethyl]amino]pentan-2-yl]amino]-3-phenylpropan-2-yl]amino]butan-2-yl]carbamic acid tert-butyl ester
> <PUBCHEM_IUPAC_NAME_MARKUP>
<I>tert</I>-butyl <I>N</I>-[(2<I>S</I>)-3-methyl-1-oxo-1-[[(2<I>S</I>)-1-oxo-1-[[(2<I>S</I>)-1-oxo-1-[[(1<I>S</I>)-1-phenylethyl]amino]pentan-2-yl]amino]-3-phenylpropan-2-yl]amino]butan-2-yl]carbamate
> <PUBCHEM_IUPAC_NAME>
tert-butyl N-[(2S)-3-methyl-1-oxo-1-[[(2S)-1-oxo-1-[[(2S)-1-oxo-1-[[(1S)-1-phenylethyl]amino]pentan-2-yl]amino]-3-phenylpropan-2-yl]amino]butan-2-yl]carbamate
> <PUBCHEM_IUPAC_SYSTEMATIC_NAME>
tert-butyl N-[(2S)-3-methyl-1-oxidanylidene-1-[[(2S)-1-oxidanylidene-1-[[(2S)-1-oxidanylidene-1-[[(1S)-1-phenylethyl]amino]pentan-2-yl]amino]-3-phenyl-propan-2-yl]amino]butan-2-yl]carbamate
> <PUBCHEM_IUPAC_TRADITIONAL_NAME>
N-[(1S)-1-[[(1S)-1-benzyl-2-keto-2-[[(1S)-1-[[(1S)-1-phenylethyl]carbamoyl]butyl]amino]ethyl]carbamoyl]-2-methyl-propyl]carbamic acid tert-butyl ester
> <PUBCHEM_IUPAC_INCHI>
InChI=1S/C32H46N4O5/c1-8-15-25(28(37)33-22(4)24-18-13-10-14-19-24)34-29(38)26(20-23-16-11-9-12-17-23)35-30(39)27(21(2)3)36-31(40)41-32(5,6)7/h9-14,16-19,21-22,25-27H,8,15,20H2,1-7H3,(H,33,37)(H,34,38)(H,35,39)(H,36,40)/t22-,25-,26-,27-/m0/s1
> <PUBCHEM_IUPAC_INCHIKEY>
YKCJYHXFJOLBPR-OXCFDMGDSA-N
> <PUBCHEM_XLOGP3>
5.2
> <PUBCHEM_EXACT_MASS>
566.34682058
> <PUBCHEM_MOLECULAR_FORMULA>
C32H46N4O5
> <PUBCHEM_MOLECULAR_WEIGHT>
566.7
> <PUBCHEM_OPENEYE_CAN_SMILES>
CCCC(C(=O)NC(C)C1=CC=CC=C1)NC(=O)C(CC2=CC=CC=C2)NC(=O)C(C(C)C)NC(=O)OC(C)(C)C
> <PUBCHEM_OPENEYE_ISO_SMILES>
CCC[C@@H](C(=O)N[C@@H](C)C1=CC=CC=C1)NC(=O)[C@H](CC2=CC=CC=C2)NC(=O)[C@H](C(C)C)NC(=O)OC(C)(C)C
> <PUBCHEM_CACTVS_TPSA>
126
> <PUBCHEM_MONOISOTOPIC_WEIGHT>
566.34682058
> <PUBCHEM_TOTAL_CHARGE>
0
> <PUBCHEM_HEAVY_ATOM_COUNT>
41
> <PUBCHEM_ATOM_DEF_STEREO_COUNT>
4
> <PUBCHEM_ATOM_UDEF_STEREO_COUNT>
0
> <PUBCHEM_BOND_DEF_STEREO_COUNT>
0
> <PUBCHEM_BOND_UDEF_STEREO_COUNT>
0
> <PUBCHEM_ISOTOPIC_ATOM_COUNT>
0
> <PUBCHEM_COMPONENT_COUNT>
1
> <PUBCHEM_CACTVS_TAUTO_COUNT>
-1
> <PUBCHEM_COORDINATE_TYPE>
1
5
255
> <PUBCHEM_BONDANNOTATIONS>
22  28  8
22  29  8
27  36  8
27  37  8
28  34  8
29  35  8
34  38  8
35  38  8
36  39  8
37  40  8
39  41  8
40  41  8
12  6  6
13  7  5
10  8  6
23  9  6
$$$$
