511144
  -OEChem-10302200282D
 90 93  0     1  0  0  0  0  0999 V2000
   11.4550    0.4991    0.0000 O   0  0  0  0  0  0  0  0  0  0  0  0
    7.4240   -1.0418    0.0000 O   0  0  0  0  0  0  0  0  0  0  0  0
    8.1050   -2.2214    0.0000 O   0  0  0  0  0  0  0  0  0  0  0  0
    6.7916    2.5078    0.0000 O   0  0  0  0  0  0  0  0  0  0  0  0
   12.3210   -1.0009    0.0000 O   0  0  0  0  0  0  0  0  0  0  0  0
    9.4616   -5.5620    0.0000 O   0  0  0  0  0  0  0  0  0  0  0  0
    3.2202    2.0124    0.0000 O   0  0  0  0  0  0  0  0  0  0  0  0
    9.0063   -0.3373    0.0000 N   0  0  0  0  0  0  0  0  0  0  0  0
    6.6105    0.7853    0.0000 N   0  0  0  0  0  0  0  0  0  0  0  0
    9.6873   -2.9259    0.0000 N   0  0  0  0  0  0  0  0  0  0  0  0
    4.8025    2.7169    0.0000 N   0  0  0  0  0  0  0  0  0  0  0  0
    3.9890    4.5440    0.0000 N   0  0  0  0  0  0  0  0  0  0  0  0
    2.0000    4.7530    0.0000 N   0  0  0  0  0  0  0  0  0  0  0  0
    9.5063   -1.2034    0.0000 C   0  0  1  0  0  0  0  0  0  0  0  0
   10.4844   -0.9955    0.0000 C   0  0  0  0  0  0  0  0  0  0  0  0
   10.5890   -0.0009    0.0000 C   0  0  2  0  0  0  0  0  0  0  0  0
    9.6754    0.4058    0.0000 C   0  0  0  0  0  0  0  0  0  0  0  0
    8.0118   -0.2328    0.0000 C   0  0  0  0  0  0  0  0  0  0  0  0
    7.6050    0.6807    0.0000 C   0  0  1  0  0  0  0  0  0  0  0  0
    9.0996   -2.1169    0.0000 C   0  0  0  0  0  0  0  0  0  0  0  0
    8.1928    1.4897    0.0000 C   0  0  0  0  0  0  0  0  0  0  0  0
    7.7861    2.4033    0.0000 C   0  0  0  0  0  0  0  0  0  0  0  0
    9.1873    1.3852    0.0000 C   0  0  0  0  0  0  0  0  0  0  0  0
    9.2806   -3.8395    0.0000 C   0  0  3  0  0  0  0  0  0  0  0  0
    6.2038    1.6988    0.0000 C   0  0  0  0  0  0  0  0  0  0  0  0
    5.2092    1.8033    0.0000 C   0  0  1  0  0  0  0  0  0  0  0  0
   12.3210   -0.0009    0.0000 C   0  0  0  0  0  0  0  0  0  0  0  0
    4.6215    0.9943    0.0000 C   0  0  0  0  0  0  0  0  0  0  0  0
    8.2861   -3.9440    0.0000 C   0  0  0  0  0  0  0  0  0  0  0  0
   13.1870    0.4991    0.0000 C   0  0  0  0  0  0  0  0  0  0  0  0
    9.8684   -4.6485    0.0000 C   0  0  0  0  0  0  0  0  0  0  0  0
    3.6270    1.0988    0.0000 C   0  0  0  0  0  0  0  0  0  0  0  0
    5.0282    0.0808    0.0000 C   0  0  0  0  0  0  0  0  0  0  0  0
    7.8794   -4.8576    0.0000 C   0  0  0  0  0  0  0  0  0  0  0  0
   14.0531   -0.0009    0.0000 C   0  0  0  0  0  0  0  0  0  0  0  0
   13.1870    1.4991    0.0000 C   0  0  0  0  0  0  0  0  0  0  0  0
    3.8080    2.8214    0.0000 C   0  0  0  0  0  0  0  0  0  0  0  0
   14.9191    0.4991    0.0000 C   0  0  0  0  0  0  0  0  0  0  0  0
   14.0531    1.9991    0.0000 C   0  0  0  0  0  0  0  0  0  0  0  0
   14.9191    1.4991    0.0000 C   0  0  0  0  0  0  0  0  0  0  0  0
    3.4013    3.7350    0.0000 C   0  0  0  0  0  0  0  0  0  0  0  0
   15.8130   -0.0356    0.0000 C   0  0  0  0  0  0  0  0  0  0  0  0
   15.8130    2.0337    0.0000 C   0  0  0  0  0  0  0  0  0  0  0  0
   16.7191    0.4782    0.0000 C   0  0  0  0  0  0  0  0  0  0  0  0
   16.7191    1.5199    0.0000 C   0  0  0  0  0  0  0  0  0  0  0  0
    2.4067    3.8395    0.0000 C   0  0  0  0  0  0  0  0  0  0  0  0
    3.5823    5.4575    0.0000 C   0  0  0  0  0  0  0  0  0  0  0  0
    2.5878    5.5620    0.0000 C   0  0  0  0  0  0  0  0  0  0  0  0
    8.8871   -1.2358    0.0000 H   0  0  0  0  0  0  0  0  0  0  0  0
   10.5492   -1.6121    0.0000 H   0  0  0  0  0  0  0  0  0  0  0  0
   11.1044   -0.9955    0.0000 H   0  0  0  0  0  0  0  0  0  0  0  0
   11.1089   -0.3386    0.0000 H   0  0  0  0  0  0  0  0  0  0  0  0
    9.9854    0.9427    0.0000 H   0  0  0  0  0  0  0  0  0  0  0  0
    9.1738    0.7702    0.0000 H   0  0  0  0  0  0  0  0  0  0  0  0
    7.2406    0.1791    0.0000 H   0  0  0  0  0  0  0  0  0  0  0  0
    8.5572    1.9913    0.0000 H   0  0  0  0  0  0  0  0  0  0  0  0
    6.2461    0.2837    0.0000 H   0  0  0  0  0  0  0  0  0  0  0  0
   10.3039   -2.8611    0.0000 H   0  0  0  0  0  0  0  0  0  0  0  0
    8.3525    2.6555    0.0000 H   0  0  0  0  0  0  0  0  0  0  0  0
    7.5339    2.9697    0.0000 H   0  0  0  0  0  0  0  0  0  0  0  0
    7.2197    2.1511    0.0000 H   0  0  0  0  0  0  0  0  0  0  0  0
    9.1225    0.7686    0.0000 H   0  0  0  0  0  0  0  0  0  0  0  0
    9.8040    1.3204    0.0000 H   0  0  0  0  0  0  0  0  0  0  0  0
    9.2522    2.0018    0.0000 H   0  0  0  0  0  0  0  0  0  0  0  0
    8.9162   -3.3379    0.0000 H   0  0  0  0  0  0  0  0  0  0  0  0
    5.5737    2.3049    0.0000 H   0  0  0  0  0  0  0  0  0  0  0  0
    5.2381    0.9295    0.0000 H   0  0  0  0  0  0  0  0  0  0  0  0
    8.3293   -3.3255    0.0000 H   0  0  0  0  0  0  0  0  0  0  0  0
    7.6845   -3.7940    0.0000 H   0  0  0  0  0  0  0  0  0  0  0  0
    5.1669    3.2185    0.0000 H   0  0  0  0  0  0  0  0  0  0  0  0
   10.4850   -4.5837    0.0000 H   0  0  0  0  0  0  0  0  0  0  0  0
    3.6918    1.7154    0.0000 H   0  0  0  0  0  0  0  0  0  0  0  0
    3.0103    1.1636    0.0000 H   0  0  0  0  0  0  0  0  0  0  0  0
    3.5621    0.4822    0.0000 H   0  0  0  0  0  0  0  0  0  0  0  0
    4.4618   -0.1714    0.0000 H   0  0  0  0  0  0  0  0  0  0  0  0
    5.2804   -0.4856    0.0000 H   0  0  0  0  0  0  0  0  0  0  0  0
    5.5946    0.3329    0.0000 H   0  0  0  0  0  0  0  0  0  0  0  0
    7.3130   -4.6054    0.0000 H   0  0  0  0  0  0  0  0  0  0  0  0
    7.6272   -5.4239    0.0000 H   0  0  0  0  0  0  0  0  0  0  0  0
    8.4457   -5.1097    0.0000 H   0  0  0  0  0  0  0  0  0  0  0  0
   14.0531   -0.6209    0.0000 H   0  0  0  0  0  0  0  0  0  0  0  0
   12.6501    1.8091    0.0000 H   0  0  0  0  0  0  0  0  0  0  0  0
   14.0531    2.6191    0.0000 H   0  0  0  0  0  0  0  0  0  0  0  0
   15.8059   -0.6556    0.0000 H   0  0  0  0  0  0  0  0  0  0  0  0
   15.8059    2.6537    0.0000 H   0  0  0  0  0  0  0  0  0  0  0  0
   17.2548    0.1662    0.0000 H   0  0  0  0  0  0  0  0  0  0  0  0
   17.2548    1.8320    0.0000 H   0  0  0  0  0  0  0  0  0  0  0  0
    2.0423    3.3379    0.0000 H   0  0  0  0  0  0  0  0  0  0  0  0
    3.9467    5.9591    0.0000 H   0  0  0  0  0  0  0  0  0  0  0  0
    2.3356    6.1284    0.0000 H   0  0  0  0  0  0  0  0  0  0  0  0
 16  1  1  6  0  0  0
  1 27  1  0  0  0  0
  2 18  2  0  0  0  0
  3 20  2  0  0  0  0
  4 25  2  0  0  0  0
  5 27  2  0  0  0  0
  6 31  2  0  0  0  0
  7 37  2  0  0  0  0
  8 14  1  0  0  0  0
  8 17  1  0  0  0  0
  8 18  1  0  0  0  0
 19  9  1  6  0  0  0
  9 25  1  0  0  0  0
  9 57  1  0  0  0  0
 10 20  1  0  0  0  0
 10 24  1  0  0  0  0
 10 58  1  0  0  0  0
 26 11  1  1  0  0  0
 11 37  1  0  0  0  0
 11 70  1  0  0  0  0
 12 41  2  0  0  0  0
 12 47  1  0  0  0  0
 13 46  2  0  0  0  0
 13 48  1  0  0  0  0
 14 15  1  0  0  0  0
 14 20  1  1  0  0  0
 14 49  1  0  0  0  0
 15 16  1  0  0  0  0
 15 50  1  0  0  0  0
 15 51  1  0  0  0  0
 16 17  1  0  0  0  0
 16 52  1  0  0  0  0
 17 53  1  0  0  0  0
 17 54  1  0  0  0  0
 18 19  1  0  0  0  0
 19 21  1  0  0  0  0
 19 55  1  0  0  0  0
 21 22  1  0  0  0  0
 21 23  1  0  0  0  0
 21 56  1  0  0  0  0
 22 59  1  0  0  0  0
 22 60  1  0  0  0  0
 22 61  1  0  0  0  0
 23 62  1  0  0  0  0
 23 63  1  0  0  0  0
 23 64  1  0  0  0  0
 24 29  1  0  0  0  0
 24 31  1  0  0  0  0
 24 65  1  0  0  0  0
 25 26  1  0  0  0  0
 26 28  1  0  0  0  0
 26 66  1  0  0  0  0
 27 30  1  0  0  0  0
 28 32  1  0  0  0  0
 28 33  1  0  0  0  0
 28 67  1  0  0  0  0
 29 34  1  0  0  0  0
 29 68  1  0  0  0  0
 29 69  1  0  0  0  0
 30 35  2  0  0  0  0
 30 36  1  0  0  0  0
 31 71  1  0  0  0  0
 32 72  1  0  0  0  0
 32 73  1  0  0  0  0
 32 74  1  0  0  0  0
 33 75  1  0  0  0  0
 33 76  1  0  0  0  0
 33 77  1  0  0  0  0
 34 78  1  0  0  0  0
 34 79  1  0  0  0  0
 34 80  1  0  0  0  0
 35 38  1  0  0  0  0
 35 81  1  0  0  0  0
 36 39  2  0  0  0  0
 36 82  1  0  0  0  0
 37 41  1  0  0  0  0
 38 40  1  0  0  0  0
 38 42  2  0  0  0  0
 39 40  1  0  0  0  0
 39 83  1  0  0  0  0
 40 43  2  0  0  0  0
 41 46  1  0  0  0  0
 42 44  1  0  0  0  0
 42 84  1  0  0  0  0
 43 45  1  0  0  0  0
 43 85  1  0  0  0  0
 44 45  2  0  0  0  0
 44 86  1  0  0  0  0
 45 87  1  0  0  0  0
 46 88  1  0  0  0  0
 47 48  2  0  0  0  0
 47 89  1  0  0  0  0
 48 90  1  0  0  0  0
M  END
> <PUBCHEM_COMPOUND_CID>
511144
> <PUBCHEM_COMPOUND_CANONICALIZED>
1
> <PUBCHEM_CACTVS_COMPLEXITY>
1160
> <PUBCHEM_CACTVS_HBOND_ACCEPTOR>
9
> <PUBCHEM_CACTVS_HBOND_DONOR>
3
> <PUBCHEM_CACTVS_ROTATABLE_BOND>
14
> <PUBCHEM_CACTVS_SUBSKEYS>
AAADcfB/uAAAAAAAAAAAAAAAAAAAAWAAAAA8YIAAAAAAAADB1AAAHgAQAAAADTzhngY+iNPIFACoAz333ACCgCQ3EiAI2IG4fMgKZnrA9TiXMYgm1gHYqce6yfCOwAACAAAQAACAAAQAACAAAAAAAAAAAA==
> <PUBCHEM_IUPAC_OPENEYE_NAME>
[(3R,5S)-5-(1-formylpropylcarbamoyl)-1-[(2R)-3-methyl-2-[[(2R)-3-methyl-2-(pyrazine-2-carbonylamino)butanoyl]amino]butanoyl]pyrrolidin-3-yl] naphthalene-2-carboxylate
> <PUBCHEM_IUPAC_CAS_NAME>
2-naphthalenecarboxylic acid [(3R,5S)-1-[(2R)-3-methyl-2-[[(2R)-3-methyl-1-oxo-2-[[oxo(2-pyrazinyl)methyl]amino]butyl]amino]-1-oxobutyl]-5-[oxo-(1-oxobutan-2-ylamino)methyl]-3-pyrrolidinyl] ester
> <PUBCHEM_IUPAC_NAME_MARKUP>
[(3<I>R</I>,5<I>S</I>)-1-[(2<I>R</I>)-3-methyl-2-[[(2<I>R</I>)-3-methyl-2-(pyrazine-2-carbonylamino)butanoyl]amino]butanoyl]-5-(1-oxobutan-2-ylcarbamoyl)pyrrolidin-3-yl] naphthalene-2-carboxylate
> <PUBCHEM_IUPAC_NAME>
[(3R,5S)-1-[(2R)-3-methyl-2-[[(2R)-3-methyl-2-(pyrazine-2-carbonylamino)butanoyl]amino]butanoyl]-5-(1-oxobutan-2-ylcarbamoyl)pyrrolidin-3-yl] naphthalene-2-carboxylate
> <PUBCHEM_IUPAC_SYSTEMATIC_NAME>
[(3R,5S)-1-[(2R)-3-methyl-2-[[(2R)-3-methyl-2-(pyrazin-2-ylcarbonylamino)butanoyl]amino]butanoyl]-5-(1-oxidanylidenebutan-2-ylcarbamoyl)pyrrolidin-3-yl] naphthalene-2-carboxylate
> <PUBCHEM_IUPAC_TRADITIONAL_NAME>
naphthalene-2-carboxylic acid [(3R,5S)-5-(1-formylpropylcarbamoyl)-1-[(2R)-3-methyl-2-[[(2R)-3-methyl-2-(pyrazinoylamino)butanoyl]amino]butanoyl]pyrrolidin-3-yl] ester
> <PUBCHEM_IUPAC_INCHI>
InChI=1S/C35H42N6O7/c1-6-25(19-42)38-32(44)28-16-26(48-35(47)24-12-11-22-9-7-8-10-23(22)15-24)18-41(28)34(46)30(21(4)5)40-33(45)29(20(2)3)39-31(43)27-17-36-13-14-37-27/h7-15,17,19-21,25-26,28-30H,6,16,18H2,1-5H3,(H,38,44)(H,39,43)(H,40,45)/t25?,26-,28+,29-,30-/m1/s1
> <PUBCHEM_IUPAC_INCHIKEY>
DCVKURQOVGDNBK-IJLPRKQGSA-N
> <PUBCHEM_XLOGP3_AA>
3.8
> <PUBCHEM_EXACT_MASS>
658.31149770
> <PUBCHEM_MOLECULAR_FORMULA>
C35H42N6O7
> <PUBCHEM_MOLECULAR_WEIGHT>
658.7
> <PUBCHEM_OPENEYE_CAN_SMILES>
CCC(C=O)NC(=O)C1CC(CN1C(=O)C(C(C)C)NC(=O)C(C(C)C)NC(=O)C2=NC=CN=C2)OC(=O)C3=CC4=CC=CC=C4C=C3
> <PUBCHEM_OPENEYE_ISO_SMILES>
CCC(C=O)NC(=O)[C@@H]1C[C@H](CN1C(=O)[C@@H](C(C)C)NC(=O)[C@@H](C(C)C)NC(=O)C2=NC=CN=C2)OC(=O)C3=CC4=CC=CC=C4C=C3
> <PUBCHEM_CACTVS_TPSA>
177
> <PUBCHEM_MONOISOTOPIC_WEIGHT>
658.31149770
> <PUBCHEM_TOTAL_CHARGE>
0
> <PUBCHEM_HEAVY_ATOM_COUNT>
48
> <PUBCHEM_ATOM_DEF_STEREO_COUNT>
4
> <PUBCHEM_ATOM_UDEF_STEREO_COUNT>
1
> <PUBCHEM_BOND_DEF_STEREO_COUNT>
0
> <PUBCHEM_BOND_UDEF_STEREO_COUNT>
0
> <PUBCHEM_ISOTOPIC_ATOM_COUNT>
0
> <PUBCHEM_COMPONENT_COUNT>
1
> <PUBCHEM_CACTVS_TAUTO_COUNT>
-1
> <PUBCHEM_COORDINATE_TYPE>
1
5
255
> <PUBCHEM_BONDANNOTATIONS>
16  1  6
26  11  5
12  41  8
12  47  8
13  46  8
13  48  8
14  20  5
24  29  3
30  35  8
30  36  8
35  38  8
36  39  8
38  40  8
38  42  8
39  40  8
40  43  8
41  46  8
42  44  8
43  45  8
44  45  8
47  48  8
19  9  6
$$$$
