511105
  -OEChem-10302200282D
 78 83  0     1  0  0  0  0  0999 V2000
    7.3345   -1.1436    0.0000 S   0  0  0  0  0  0  0  0  0  0  0  0
    2.6504   -4.8848    0.0000 O   0  0  0  0  0  0  0  0  0  0  0  0
    4.5983   -7.3880    0.0000 O   0  0  0  0  0  0  0  0  0  0  0  0
    5.7783   -2.3852    0.0000 O   0  0  0  0  0  0  0  0  0  0  0  0
    8.2014   -0.6451    0.0000 O   0  0  0  0  0  0  0  0  0  0  0  0
    6.4676   -1.6421    0.0000 O   0  0  0  0  0  0  0  0  0  0  0  0
    3.8450    4.9247    0.0000 O   0  0  0  0  0  0  0  0  0  0  0  0
    6.1355   -4.0800    0.0000 N   0  0  0  0  0  0  0  0  0  0  0  0
    4.2382   -5.6938    0.0000 N   0  0  0  0  0  0  0  0  0  0  0  0
    7.8330   -2.0104    0.0000 N   0  0  3  0  0  0  0  0  0  0  0  0
    5.1893   -4.3848    0.0000 C   0  0  1  0  0  0  0  0  0  0  0  0
    5.1893   -5.3848    0.0000 C   0  0  2  0  0  0  0  0  0  0  0  0
    4.2382   -4.0757    0.0000 C   0  0  1  0  0  0  0  0  0  0  0  0
    6.1355   -5.6895    0.0000 C   0  0  0  0  0  0  0  0  0  0  0  0
    6.7191   -4.8848    0.0000 C   0  0  0  0  0  0  0  0  0  0  0  0
    2.9511   -6.8527    0.0000 C   0  0  0  0  0  0  0  0  0  0  0  0
    3.6504   -4.8848    0.0000 C   0  0  0  0  0  0  0  0  0  0  0  0
    3.9292   -6.6448    0.0000 C   0  0  0  0  0  0  0  0  0  0  0  0
    2.0000   -6.5437    0.0000 C   0  0  0  0  0  0  0  0  0  0  0  0
    2.2079   -7.5219    0.0000 C   0  0  0  0  0  0  0  0  0  0  0  0
    6.4462   -3.1295    0.0000 C   0  0  0  0  0  0  0  0  0  0  0  0
    7.4247   -2.9233    0.0000 C   0  0  2  0  0  0  0  0  0  0  0  0
    3.9292   -3.1247    0.0000 C   0  0  0  0  0  0  0  0  0  0  0  0
    8.1666   -3.5937    0.0000 C   0  0  0  0  0  0  0  0  0  0  0  0
    9.0335   -3.0952    0.0000 C   0  0  0  0  0  0  0  0  0  0  0  0
    8.8273   -2.1167    0.0000 C   0  0  0  0  0  0  0  0  0  0  0  0
    6.8360   -0.2767    0.0000 C   0  0  0  0  0  0  0  0  0  0  0  0
    7.3375    0.5885    0.0000 C   0  0  0  0  0  0  0  0  0  0  0  0
    5.8360   -0.2749    0.0000 C   0  0  0  0  0  0  0  0  0  0  0  0
    6.8390    1.4554    0.0000 C   0  0  0  0  0  0  0  0  0  0  0  0
    5.3375    0.5920    0.0000 C   0  0  0  0  0  0  0  0  0  0  0  0
    5.8390    1.4571    0.0000 C   0  0  0  0  0  0  0  0  0  0  0  0
    5.3405    2.3240    0.0000 C   0  0  0  0  0  0  0  0  0  0  0  0
    5.8420    3.1892    0.0000 C   0  0  0  0  0  0  0  0  0  0  0  0
    4.3405    2.3257    0.0000 C   0  0  0  0  0  0  0  0  0  0  0  0
    5.3435    4.0560    0.0000 C   0  0  0  0  0  0  0  0  0  0  0  0
    3.8420    3.1926    0.0000 C   0  0  0  0  0  0  0  0  0  0  0  0
    4.3435    4.0578    0.0000 C   0  0  0  0  0  0  0  0  0  0  0  0
    4.3465    5.7898    0.0000 C   0  0  0  0  0  0  0  0  0  0  0  0
    3.8480    6.6567    0.0000 C   0  0  0  0  0  0  0  0  0  0  0  0
    4.3495    7.5219    0.0000 C   0  0  0  0  0  0  0  0  0  0  0  0
    5.1904   -3.5348    0.0000 H   0  0  0  0  0  0  0  0  0  0  0  0
    5.1904   -6.2348    0.0000 H   0  0  0  0  0  0  0  0  0  0  0  0
    3.6258   -3.9788    0.0000 H   0  0  0  0  0  0  0  0  0  0  0  0
    5.8845   -6.2564    0.0000 H   0  0  0  0  0  0  0  0  0  0  0  0
    6.6729   -5.9987    0.0000 H   0  0  0  0  0  0  0  0  0  0  0  0
    7.1800   -5.2995    0.0000 H   0  0  0  0  0  0  0  0  0  0  0  0
    7.1800   -4.4700    0.0000 H   0  0  0  0  0  0  0  0  0  0  0  0
    3.2325   -7.4052    0.0000 H   0  0  0  0  0  0  0  0  0  0  0  0
    2.0863   -5.9298    0.0000 H   0  0  0  0  0  0  0  0  0  0  0  0
    1.3804   -6.5654    0.0000 H   0  0  0  0  0  0  0  0  0  0  0  0
    1.6331   -7.7541    0.0000 H   0  0  0  0  0  0  0  0  0  0  0  0
    2.5365   -8.0477    0.0000 H   0  0  0  0  0  0  0  0  0  0  0  0
    7.0353   -2.4408    0.0000 H   0  0  0  0  0  0  0  0  0  0  0  0
    4.5189   -2.9331    0.0000 H   0  0  0  0  0  0  0  0  0  0  0  0
    3.7376   -2.5350    0.0000 H   0  0  0  0  0  0  0  0  0  0  0  0
    3.3396   -3.3163    0.0000 H   0  0  0  0  0  0  0  0  0  0  0  0
    7.7052   -4.0078    0.0000 H   0  0  0  0  0  0  0  0  0  0  0  0
    8.5302   -4.0959    0.0000 H   0  0  0  0  0  0  0  0  0  0  0  0
    9.2847   -3.6620    0.0000 H   0  0  0  0  0  0  0  0  0  0  0  0
    9.6235   -2.9046    0.0000 H   0  0  0  0  0  0  0  0  0  0  0  0
    9.4440   -2.0530    0.0000 H   0  0  0  0  0  0  0  0  0  0  0  0
    8.8284   -1.4967    0.0000 H   0  0  0  0  0  0  0  0  0  0  0  0
    7.9575    0.5874    0.0000 H   0  0  0  0  0  0  0  0  0  0  0  0
    5.5250   -0.8113    0.0000 H   0  0  0  0  0  0  0  0  0  0  0  0
    7.1499    1.9918    0.0000 H   0  0  0  0  0  0  0  0  0  0  0  0
    4.7175    0.5930    0.0000 H   0  0  0  0  0  0  0  0  0  0  0  0
    6.4620    3.1881    0.0000 H   0  0  0  0  0  0  0  0  0  0  0  0
    4.0296    1.7893    0.0000 H   0  0  0  0  0  0  0  0  0  0  0  0
    5.6544    4.5925    0.0000 H   0  0  0  0  0  0  0  0  0  0  0  0
    3.2220    3.1937    0.0000 H   0  0  0  0  0  0  0  0  0  0  0  0
    4.8207    5.3905    0.0000 H   0  0  0  0  0  0  0  0  0  0  0  0
    4.8221    6.1875    0.0000 H   0  0  0  0  0  0  0  0  0  0  0  0
    3.3737    7.0561    0.0000 H   0  0  0  0  0  0  0  0  0  0  0  0
    3.3723    6.2590    0.0000 H   0  0  0  0  0  0  0  0  0  0  0  0
    4.8859    7.2110    0.0000 H   0  0  0  0  0  0  0  0  0  0  0  0
    4.6604    8.0583    0.0000 H   0  0  0  0  0  0  0  0  0  0  0  0
    3.8131    7.8328    0.0000 H   0  0  0  0  0  0  0  0  0  0  0  0
  1  5  2  0  0  0  0
  1  6  2  0  0  0  0
  1 10  1  0  0  0  0
  1 27  1  0  0  0  0
  2 17  2  0  0  0  0
  3 18  2  0  0  0  0
  4 21  2  0  0  0  0
  7 38  1  0  0  0  0
  7 39  1  0  0  0  0
  8 11  1  0  0  0  0
  8 15  1  0  0  0  0
  8 21  1  0  0  0  0
  9 12  1  0  0  0  0
  9 17  1  0  0  0  0
  9 18  1  0  0  0  0
 10 22  1  0  0  0  0
 10 26  1  0  0  0  0
 11 12  1  0  0  0  0
 11 13  1  0  0  0  0
 11 42  1  6  0  0  0
 12 14  1  0  0  0  0
 12 43  1  1  0  0  0
 13 17  1  0  0  0  0
 13 23  1  1  0  0  0
 13 44  1  0  0  0  0
 14 15  1  0  0  0  0
 14 45  1  0  0  0  0
 14 46  1  0  0  0  0
 15 47  1  0  0  0  0
 15 48  1  0  0  0  0
 16 18  1  0  0  0  0
 16 19  1  0  0  0  0
 16 20  1  0  0  0  0
 16 49  1  0  0  0  0
 19 20  1  0  0  0  0
 19 50  1  0  0  0  0
 19 51  1  0  0  0  0
 20 52  1  0  0  0  0
 20 53  1  0  0  0  0
 22 21  1  1  0  0  0
 22 24  1  0  0  0  0
 22 54  1  0  0  0  0
 23 55  1  0  0  0  0
 23 56  1  0  0  0  0
 23 57  1  0  0  0  0
 24 25  1  0  0  0  0
 24 58  1  0  0  0  0
 24 59  1  0  0  0  0
 25 26  1  0  0  0  0
 25 60  1  0  0  0  0
 25 61  1  0  0  0  0
 26 62  1  0  0  0  0
 26 63  1  0  0  0  0
 27 28  2  0  0  0  0
 27 29  1  0  0  0  0
 28 30  1  0  0  0  0
 28 64  1  0  0  0  0
 29 31  2  0  0  0  0
 29 65  1  0  0  0  0
 30 32  2  0  0  0  0
 30 66  1  0  0  0  0
 31 32  1  0  0  0  0
 31 67  1  0  0  0  0
 32 33  1  0  0  0  0
 33 34  2  0  0  0  0
 33 35  1  0  0  0  0
 34 36  1  0  0  0  0
 34 68  1  0  0  0  0
 35 37  2  0  0  0  0
 35 69  1  0  0  0  0
 36 38  2  0  0  0  0
 36 70  1  0  0  0  0
 37 38  1  0  0  0  0
 37 71  1  0  0  0  0
 39 40  1  0  0  0  0
 39 72  1  0  0  0  0
 39 73  1  0  0  0  0
 40 41  1  0  0  0  0
 40 74  1  0  0  0  0
 40 75  1  0  0  0  0
 41 76  1  0  0  0  0
 41 77  1  0  0  0  0
 41 78  1  0  0  0  0
M  END
> <PUBCHEM_COMPOUND_CID>
511105
> <PUBCHEM_COMPOUND_CANONICALIZED>
1
> <PUBCHEM_CACTVS_COMPLEXITY>
1100
> <PUBCHEM_CACTVS_HBOND_ACCEPTOR>
7
> <PUBCHEM_CACTVS_HBOND_DONOR>
0
> <PUBCHEM_CACTVS_ROTATABLE_BOND>
8
> <PUBCHEM_CACTVS_SUBSKEYS>
AAADcfB7OABAAAAAAAAAAAAAGAAAAWLFgAAwYAAAAAAWAAABQAAAHgQAQAAADSzh2AYyB4MABAKIAiFSEHBCCBAgIAAIiBmOCIgMZjqE8TqWOCCkxjGIqAecyfAOsAAAAAAAAABgAAAAAAAAAAAAAAAAAA==
> <PUBCHEM_IUPAC_OPENEYE_NAME>
(3aS,6S,6aR)-4-(cyclopropanecarbonyl)-6-methyl-1-[(2S)-1-[4-(4-propoxyphenyl)phenyl]sulfonylpyrrolidine-2-carbonyl]-3,3a,6,6a-tetrahydro-2H-pyrrolo[3,2-b]pyrrol-5-one
> <PUBCHEM_IUPAC_CAS_NAME>
(3aS,6S,6aR)-4-[cyclopropyl(oxo)methyl]-6-methyl-1-[oxo-[(2S)-1-[4-(4-propoxyphenyl)phenyl]sulfonyl-2-pyrrolidinyl]methyl]-3,3a,6,6a-tetrahydro-2H-pyrrolo[3,2-b]pyrrol-5-one
> <PUBCHEM_IUPAC_NAME_MARKUP>
(3<I>a</I><I>S</I>,6<I>S</I>,6<I>a</I><I>R</I>)-4-(cyclopropanecarbonyl)-6-methyl-1-[(2<I>S</I>)-1-[4-(4-propoxyphenyl)phenyl]sulfonylpyrrolidine-2-carbonyl]-3,3<I>a</I>,6,6<I>a</I>-tetrahydro-2<I>H</I>-pyrrolo[3,2-b]pyrrol-5-one
> <PUBCHEM_IUPAC_NAME>
(3aS,6S,6aR)-4-(cyclopropanecarbonyl)-6-methyl-1-[(2S)-1-[4-(4-propoxyphenyl)phenyl]sulfonylpyrrolidine-2-carbonyl]-3,3a,6,6a-tetrahydro-2H-pyrrolo[3,2-b]pyrrol-5-one
> <PUBCHEM_IUPAC_SYSTEMATIC_NAME>
(3aS,6S,6aR)-4-cyclopropylcarbonyl-6-methyl-1-[(2S)-1-[4-(4-propoxyphenyl)phenyl]sulfonylpyrrolidin-2-yl]carbonyl-3,3a,6,6a-tetrahydro-2H-pyrrolo[3,2-b]pyrrol-5-one
> <PUBCHEM_IUPAC_TRADITIONAL_NAME>
(3aS,6S,6aR)-4-(cyclopropanecarbonyl)-6-methyl-1-[(2S)-1-[4-(4-propoxyphenyl)phenyl]sulfonylprolyl]-3,3a,6,6a-tetrahydro-2H-pyrrolo[3,2-b]pyrrol-5-one
> <PUBCHEM_IUPAC_INCHI>
InChI=1S/C31H37N3O6S/c1-3-19-40-24-12-8-21(9-13-24)22-10-14-25(15-11-22)41(38,39)33-17-4-5-27(33)31(37)32-18-16-26-28(32)20(2)29(35)34(26)30(36)23-6-7-23/h8-15,20,23,26-28H,3-7,16-19H2,1-2H3/t20-,26-,27-,28+/m0/s1
> <PUBCHEM_IUPAC_INCHIKEY>
QLJQMSRXDYZKHQ-QGQKXLEHSA-N
> <PUBCHEM_XLOGP3_AA>
3.9
> <PUBCHEM_EXACT_MASS>
579.24030708
> <PUBCHEM_MOLECULAR_FORMULA>
C31H37N3O6S
> <PUBCHEM_MOLECULAR_WEIGHT>
579.7
> <PUBCHEM_OPENEYE_CAN_SMILES>
CCCOC1=CC=C(C=C1)C2=CC=C(C=C2)S(=O)(=O)N3CCCC3C(=O)N4CCC5C4C(C(=O)N5C(=O)C6CC6)C
> <PUBCHEM_OPENEYE_ISO_SMILES>
CCCOC1=CC=C(C=C1)C2=CC=C(C=C2)S(=O)(=O)N3CCC[C@H]3C(=O)N4CC[C@H]5[C@H]4[C@@H](C(=O)N5C(=O)C6CC6)C
> <PUBCHEM_CACTVS_TPSA>
113
> <PUBCHEM_MONOISOTOPIC_WEIGHT>
579.24030708
> <PUBCHEM_TOTAL_CHARGE>
0
> <PUBCHEM_HEAVY_ATOM_COUNT>
41
> <PUBCHEM_ATOM_DEF_STEREO_COUNT>
4
> <PUBCHEM_ATOM_UDEF_STEREO_COUNT>
0
> <PUBCHEM_BOND_DEF_STEREO_COUNT>
0
> <PUBCHEM_BOND_UDEF_STEREO_COUNT>
0
> <PUBCHEM_ISOTOPIC_ATOM_COUNT>
0
> <PUBCHEM_COMPONENT_COUNT>
1
> <PUBCHEM_CACTVS_TAUTO_COUNT>
-1
> <PUBCHEM_COORDINATE_TYPE>
1
5
255
> <PUBCHEM_BONDANNOTATIONS>
11  42  6
12  43  5
13  23  5
22  21  5
27  28  8
27  29  8
28  30  8
29  31  8
30  32  8
31  32  8
33  34  8
33  35  8
34  36  8
35  37  8
36  38  8
37  38  8
$$$$
