511113
  -OEChem-10302200282D
 75 80  0     1  0  0  0  0  0999 V2000
    6.9473    1.5979    0.0000 S   0  0  0  0  0  0  0  0  0  0  0  0
    8.8096    2.5532    0.0000 O   0  0  0  0  0  0  0  0  0  0  0  0
   12.1534    0.3508    0.0000 O   0  0  0  0  0  0  0  0  0  0  0  0
   13.5078    0.2061    0.0000 O   0  0  0  0  0  0  0  0  0  0  0  0
    2.5369    1.2932    0.0000 O   0  0  0  0  0  0  0  0  0  0  0  0
   10.6519   -0.5126    0.0000 N   0  0  0  0  0  0  0  0  0  0  0  0
    8.5309    0.7932    0.0000 N   0  0  0  0  0  0  0  0  0  0  0  0
   13.1448   -1.4874    0.0000 N   0  0  0  0  0  0  0  0  0  0  0  0
    6.9473   -0.0116    0.0000 N   0  0  0  0  0  0  0  0  0  0  0  0
   14.7930   -0.9551    0.0000 N   0  0  0  0  0  0  0  0  0  0  0  0
   10.0697    0.2932    0.0000 C   0  0  1  0  0  0  0  0  0  0  0  0
    9.1186   -0.0159    0.0000 C   0  0  2  0  0  0  0  0  0  0  0  0
   10.0697    1.2932    0.0000 C   0  0  1  0  0  0  0  0  0  0  0  0
    9.1212   -1.0099    0.0000 C   0  0  0  0  0  0  0  0  0  0  0  0
   10.0669   -1.3163    0.0000 C   0  0  0  0  0  0  0  0  0  0  0  0
    9.1186    1.6022    0.0000 C   0  0  0  0  0  0  0  0  0  0  0  0
   11.6519   -0.5143    0.0000 C   0  0  0  0  0  0  0  0  0  0  0  0
   12.1504   -1.3812    0.0000 C   0  0  2  0  0  0  0  0  0  0  0  0
   10.8787    1.8809    0.0000 C   0  0  0  0  0  0  0  0  0  0  0  0
    7.5309    0.7932    0.0000 C   0  0  0  0  0  0  0  0  0  0  0  0
   11.7421   -2.2940    0.0000 C   0  0  0  0  0  0  0  0  0  0  0  0
   12.4841   -2.9645    0.0000 C   0  0  0  0  0  0  0  0  0  0  0  0
   13.3510   -2.4660    0.0000 C   0  0  0  0  0  0  0  0  0  0  0  0
   13.8152   -0.7455    0.0000 C   0  0  0  0  0  0  0  0  0  0  0  0
    6.0010    1.2932    0.0000 C   0  0  0  0  0  0  0  0  0  0  0  0
    6.0010    0.2932    0.0000 C   0  0  0  0  0  0  0  0  0  0  0  0
    5.1350    1.7932    0.0000 C   0  0  0  0  0  0  0  0  0  0  0  0
    5.1350   -0.2068    0.0000 C   0  0  0  0  0  0  0  0  0  0  0  0
    4.2690    1.2932    0.0000 C   0  0  0  0  0  0  0  0  0  0  0  0
    4.2690    0.2932    0.0000 C   0  0  0  0  0  0  0  0  0  0  0  0
   15.4634   -0.2131    0.0000 C   0  0  0  0  0  0  0  0  0  0  0  0
    3.4030    1.7932    0.0000 C   0  0  0  0  0  0  0  0  0  0  0  0
   16.4412   -0.4227    0.0000 C   0  0  0  0  0  0  0  0  0  0  0  0
   15.1560    0.7385    0.0000 C   0  0  0  0  0  0  0  0  0  0  0  0
   16.8042    1.2709    0.0000 C   0  0  0  0  0  0  0  0  0  0  0  0
   17.1116    0.3193    0.0000 C   0  0  0  0  0  0  0  0  0  0  0  0
   15.8264    1.4805    0.0000 C   0  0  0  0  0  0  0  0  0  0  0  0
   17.4746    2.0129    0.0000 C   0  0  0  0  0  0  0  0  0  0  0  0
   18.4524    1.8033    0.0000 C   0  0  0  0  0  0  0  0  0  0  0  0
   17.1673    2.9645    0.0000 C   0  0  0  0  0  0  0  0  0  0  0  0
   10.8784    0.5548    0.0000 H   0  0  0  0  0  0  0  0  0  0  0  0
    8.3106   -0.2796    0.0000 H   0  0  0  0  0  0  0  0  0  0  0  0
    9.9727    1.9055    0.0000 H   0  0  0  0  0  0  0  0  0  0  0  0
    8.5045   -0.9464    0.0000 H   0  0  0  0  0  0  0  0  0  0  0  0
    8.9932   -1.6166    0.0000 H   0  0  0  0  0  0  0  0  0  0  0  0
    9.8149   -1.8828    0.0000 H   0  0  0  0  0  0  0  0  0  0  0  0
   10.6038   -1.6265    0.0000 H   0  0  0  0  0  0  0  0  0  0  0  0
   12.4890   -0.8618    0.0000 H   0  0  0  0  0  0  0  0  0  0  0  0
   11.2432    1.3794    0.0000 H   0  0  0  0  0  0  0  0  0  0  0  0
   11.3803    2.2454    0.0000 H   0  0  0  0  0  0  0  0  0  0  0  0
   10.5143    2.3825    0.0000 H   0  0  0  0  0  0  0  0  0  0  0  0
   11.2057   -1.9831    0.0000 H   0  0  0  0  0  0  0  0  0  0  0  0
   11.3768   -2.7950    0.0000 H   0  0  0  0  0  0  0  0  0  0  0  0
   12.0226   -3.3785    0.0000 H   0  0  0  0  0  0  0  0  0  0  0  0
   12.8477   -3.4667    0.0000 H   0  0  0  0  0  0  0  0  0  0  0  0
   13.6022   -3.0328    0.0000 H   0  0  0  0  0  0  0  0  0  0  0  0
   13.9410   -2.2754    0.0000 H   0  0  0  0  0  0  0  0  0  0  0  0
   14.9835   -1.5451    0.0000 H   0  0  0  0  0  0  0  0  0  0  0  0
    5.1350    2.4132    0.0000 H   0  0  0  0  0  0  0  0  0  0  0  0
    5.1350   -0.8268    0.0000 H   0  0  0  0  0  0  0  0  0  0  0  0
    3.7320   -0.0168    0.0000 H   0  0  0  0  0  0  0  0  0  0  0  0
    3.8015    2.2681    0.0000 H   0  0  0  0  0  0  0  0  0  0  0  0
    3.0044    2.2681    0.0000 H   0  0  0  0  0  0  0  0  0  0  0  0
   16.6317   -1.0127    0.0000 H   0  0  0  0  0  0  0  0  0  0  0  0
   14.5498    0.8685    0.0000 H   0  0  0  0  0  0  0  0  0  0  0  0
   17.7178    0.1893    0.0000 H   0  0  0  0  0  0  0  0  0  0  0  0
   15.6359    2.0705    0.0000 H   0  0  0  0  0  0  0  0  0  0  0  0
   17.6652    1.4229    0.0000 H   0  0  0  0  0  0  0  0  0  0  0  0
    2.0000    1.6032    0.0000 H   0  0  0  0  0  0  0  0  0  0  0  0
   18.3225    1.1970    0.0000 H   0  0  0  0  0  0  0  0  0  0  0  0
   19.0586    1.6733    0.0000 H   0  0  0  0  0  0  0  0  0  0  0  0
   18.5824    2.4095    0.0000 H   0  0  0  0  0  0  0  0  0  0  0  0
   17.7572    3.1550    0.0000 H   0  0  0  0  0  0  0  0  0  0  0  0
   16.9767    3.5544    0.0000 H   0  0  0  0  0  0  0  0  0  0  0  0
   16.5773    2.7739    0.0000 H   0  0  0  0  0  0  0  0  0  0  0  0
  1 20  1  0  0  0  0
  1 25  1  0  0  0  0
  2 16  2  0  0  0  0
  3 17  2  0  0  0  0
  4 24  2  0  0  0  0
  5 32  1  0  0  0  0
  5 69  1  0  0  0  0
  6 11  1  0  0  0  0
  6 15  1  0  0  0  0
  6 17  1  0  0  0  0
  7 12  1  0  0  0  0
  7 16  1  0  0  0  0
  7 20  1  0  0  0  0
  8 18  1  0  0  0  0
  8 23  1  0  0  0  0
  8 24  1  0  0  0  0
  9 20  2  0  0  0  0
  9 26  1  0  0  0  0
 10 24  1  0  0  0  0
 10 31  1  0  0  0  0
 10 58  1  0  0  0  0
 11 12  1  0  0  0  0
 11 13  1  0  0  0  0
 11 41  1  6  0  0  0
 12 14  1  0  0  0  0
 12 42  1  1  0  0  0
 13 16  1  0  0  0  0
 13 19  1  1  0  0  0
 13 43  1  0  0  0  0
 14 15  1  0  0  0  0
 14 44  1  0  0  0  0
 14 45  1  0  0  0  0
 15 46  1  0  0  0  0
 15 47  1  0  0  0  0
 18 17  1  1  0  0  0
 18 21  1  0  0  0  0
 18 48  1  0  0  0  0
 19 49  1  0  0  0  0
 19 50  1  0  0  0  0
 19 51  1  0  0  0  0
 21 22  1  0  0  0  0
 21 52  1  0  0  0  0
 21 53  1  0  0  0  0
 22 23  1  0  0  0  0
 22 54  1  0  0  0  0
 22 55  1  0  0  0  0
 23 56  1  0  0  0  0
 23 57  1  0  0  0  0
 25 26  2  0  0  0  0
 25 27  1  0  0  0  0
 26 28  1  0  0  0  0
 27 29  2  0  0  0  0
 27 59  1  0  0  0  0
 28 30  2  0  0  0  0
 28 60  1  0  0  0  0
 29 30  1  0  0  0  0
 29 32  1  0  0  0  0
 30 61  1  0  0  0  0
 31 33  2  0  0  0  0
 31 34  1  0  0  0  0
 32 62  1  0  0  0  0
 32 63  1  0  0  0  0
 33 36  1  0  0  0  0
 33 64  1  0  0  0  0
 34 37  2  0  0  0  0
 34 65  1  0  0  0  0
 35 36  2  0  0  0  0
 35 37  1  0  0  0  0
 35 38  1  0  0  0  0
 36 66  1  0  0  0  0
 37 67  1  0  0  0  0
 38 39  1  0  0  0  0
 38 40  1  0  0  0  0
 38 68  1  0  0  0  0
 39 70  1  0  0  0  0
 39 71  1  0  0  0  0
 39 72  1  0  0  0  0
 40 73  1  0  0  0  0
 40 74  1  0  0  0  0
 40 75  1  0  0  0  0
M  END
> <PUBCHEM_COMPOUND_CID>
511113
> <PUBCHEM_COMPOUND_CANONICALIZED>
1
> <PUBCHEM_CACTVS_COMPLEXITY>
974
> <PUBCHEM_CACTVS_HBOND_ACCEPTOR>
6
> <PUBCHEM_CACTVS_HBOND_DONOR>
2
> <PUBCHEM_CACTVS_ROTATABLE_BOND>
5
> <PUBCHEM_CACTVS_SUBSKEYS>
AAADcfB7uABAAAAAAAAAAAAAAAAAAWLFiwAwYAAAAAAWAFgB9AAAHgQQCAAADSjh3gYz0bPIEgisAyVydACD8KlhCjhJmD24bJiIdrrg2bGUcAhs1wPI2Cec2eMOiAAAgAAAAQAQAAEAAAACAAAAAAAAAA==
> <PUBCHEM_IUPAC_OPENEYE_NAME>
(2S)-2-[(3aS,6S,6aR)-4-[6-(hydroxymethyl)-1,3-benzothiazol-2-yl]-6-methyl-5-oxo-3,3a,6,6a-tetrahydro-2H-pyrrolo[3,2-b]pyrrole-1-carbonyl]-N-(4-isopropylphenyl)pyrrolidine-1-carboxamide
> <PUBCHEM_IUPAC_CAS_NAME>
(2S)-2-[[(3aS,6S,6aR)-4-[6-(hydroxymethyl)-1,3-benzothiazol-2-yl]-6-methyl-5-oxo-3,3a,6,6a-tetrahydro-2H-pyrrolo[3,2-b]pyrrol-1-yl]-oxomethyl]-N-(4-propan-2-ylphenyl)-1-pyrrolidinecarboxamide
> <PUBCHEM_IUPAC_NAME_MARKUP>
(2<I>S</I>)-2-[(3<I>a</I><I>S</I>,6<I>S</I>,6<I>a</I><I>R</I>)-4-[6-(hydroxymethyl)-1,3-benzothiazol-2-yl]-6-methyl-5-oxo-3,3<I>a</I>,6,6<I>a</I>-tetrahydro-2<I>H</I>-pyrrolo[3,2-b]pyrrole-1-carbonyl]-<I>N</I>-(4-propan-2-ylphenyl)pyrrolidine-1-carboxamide
> <PUBCHEM_IUPAC_NAME>
(2S)-2-[(3aS,6S,6aR)-4-[6-(hydroxymethyl)-1,3-benzothiazol-2-yl]-6-methyl-5-oxo-3,3a,6,6a-tetrahydro-2H-pyrrolo[3,2-b]pyrrole-1-carbonyl]-N-(4-propan-2-ylphenyl)pyrrolidine-1-carboxamide
> <PUBCHEM_IUPAC_SYSTEMATIC_NAME>
(2S)-2-[[(3aS,6S,6aR)-4-[6-(hydroxymethyl)-1,3-benzothiazol-2-yl]-6-methyl-5-oxidanylidene-3,3a,6,6a-tetrahydro-2H-pyrrolo[3,2-b]pyrrol-1-yl]carbonyl]-N-(4-propan-2-ylphenyl)pyrrolidine-1-carboxamide
> <PUBCHEM_IUPAC_TRADITIONAL_NAME>
(2S)-2-[(3aS,6S,6aR)-5-keto-6-methyl-4-(6-methylol-1,3-benzothiazol-2-yl)-3,3a,6,6a-tetrahydro-2H-pyrrolo[3,2-b]pyrrole-1-carbonyl]-N-p-cumenyl-pyrrolidine-1-carboxamide
> <PUBCHEM_IUPAC_INCHI>
InChI=1S/C30H35N5O4S/c1-17(2)20-7-9-21(10-8-20)31-29(39)33-13-4-5-24(33)28(38)34-14-12-23-26(34)18(3)27(37)35(23)30-32-22-11-6-19(16-36)15-25(22)40-30/h6-11,15,17-18,23-24,26,36H,4-5,12-14,16H2,1-3H3,(H,31,39)/t18-,23-,24-,26+/m0/s1
> <PUBCHEM_IUPAC_INCHIKEY>
GNRQHNOSFCMCFD-ZMSGJQCASA-N
> <PUBCHEM_XLOGP3_AA>
3.8
> <PUBCHEM_EXACT_MASS>
561.24097579
> <PUBCHEM_MOLECULAR_FORMULA>
C30H35N5O4S
> <PUBCHEM_MOLECULAR_WEIGHT>
561.7
> <PUBCHEM_OPENEYE_CAN_SMILES>
CC1C2C(CCN2C(=O)C3CCCN3C(=O)NC4=CC=C(C=C4)C(C)C)N(C1=O)C5=NC6=C(S5)C=C(C=C6)CO
> <PUBCHEM_OPENEYE_ISO_SMILES>
C[C@H]1[C@@H]2[C@H](CCN2C(=O)[C@@H]3CCCN3C(=O)NC4=CC=C(C=C4)C(C)C)N(C1=O)C5=NC6=C(S5)C=C(C=C6)CO
> <PUBCHEM_CACTVS_TPSA>
134
> <PUBCHEM_MONOISOTOPIC_WEIGHT>
561.24097579
> <PUBCHEM_TOTAL_CHARGE>
0
> <PUBCHEM_HEAVY_ATOM_COUNT>
40
> <PUBCHEM_ATOM_DEF_STEREO_COUNT>
4
> <PUBCHEM_ATOM_UDEF_STEREO_COUNT>
0
> <PUBCHEM_BOND_DEF_STEREO_COUNT>
0
> <PUBCHEM_BOND_UDEF_STEREO_COUNT>
0
> <PUBCHEM_ISOTOPIC_ATOM_COUNT>
0
> <PUBCHEM_COMPONENT_COUNT>
1
> <PUBCHEM_CACTVS_TAUTO_COUNT>
-1
> <PUBCHEM_COORDINATE_TYPE>
1
5
255
> <PUBCHEM_BONDANNOTATIONS>
1  20  8
1  25  8
11  41  6
12  42  5
13  19  5
18  17  5
25  26  8
25  27  8
26  28  8
27  29  8
28  30  8
29  30  8
31  33  8
31  34  8
33  36  8
34  37  8
35  36  8
35  37  8
9  20  8
9  26  8
$$$$
