511199
  -OEChem-10302200282D
 38 39  0     1  0  0  0  0  0999 V2000
    5.0009   -2.7172    0.0000 P   0  0  3  0  0  0  0  0  0  0  0  0
    4.5411    0.7655    0.0000 O   0  0  0  0  0  0  0  0  0  0  0  0
    4.4131   -1.9081    0.0000 O   0  0  0  0  0  0  0  0  0  0  0  0
    5.4641    2.3533    0.0000 O   0  0  0  0  0  0  0  0  0  0  0  0
    4.5942   -3.6307    0.0000 O   0  0  0  0  0  0  0  0  0  0  0  0
    3.7320    5.3533    0.0000 O   0  0  0  0  0  0  0  0  0  0  0  0
    5.9954   -2.6126    0.0000 O   0  0  0  0  0  0  0  0  0  0  0  0
    3.7320    2.3533    0.0000 N   0  0  0  0  0  0  0  0  0  0  0  0
    4.5981    3.8533    0.0000 N   0  0  0  0  0  0  0  0  0  0  0  0
    3.7320    1.3533    0.0000 C   0  0  1  0  0  0  0  0  0  0  0  0
    4.2320   -0.1856    0.0000 C   0  0  1  0  0  0  0  0  0  0  0  0
    2.9230    0.7655    0.0000 C   0  0  0  0  0  0  0  0  0  0  0  0
    3.2320   -0.1856    0.0000 C   0  0  0  0  0  0  0  0  0  0  0  0
    4.8198   -0.9946    0.0000 C   0  0  0  0  0  0  0  0  0  0  0  0
    2.8660    2.8533    0.0000 C   0  0  0  0  0  0  0  0  0  0  0  0
    4.5981    2.8533    0.0000 C   0  0  0  0  0  0  0  0  0  0  0  0
    2.8660    3.8533    0.0000 C   0  0  0  0  0  0  0  0  0  0  0  0
    3.7320    4.3533    0.0000 C   0  0  0  0  0  0  0  0  0  0  0  0
    2.0000    4.3533    0.0000 C   0  0  0  0  0  0  0  0  0  0  0  0
    5.1819   -4.4397    0.0000 C   0  0  0  0  0  0  0  0  0  0  0  0
    4.7752   -5.3533    0.0000 C   0  0  0  0  0  0  0  0  0  0  0  0
    4.2845    1.6347    0.0000 H   0  0  0  0  0  0  0  0  0  0  0  0
    4.8444   -0.0886    0.0000 H   0  0  0  0  0  0  0  0  0  0  0  0
    2.3334    0.9571    0.0000 H   0  0  0  0  0  0  0  0  0  0  0  0
    2.8676   -0.6872    0.0000 H   0  0  0  0  0  0  0  0  0  0  0  0
    5.3338   -1.3413    0.0000 H   0  0  0  0  0  0  0  0  0  0  0  0
    5.2505   -0.5486    0.0000 H   0  0  0  0  0  0  0  0  0  0  0  0
    2.3291    2.5433    0.0000 H   0  0  0  0  0  0  0  0  0  0  0  0
    5.1350    4.1633    0.0000 H   0  0  0  0  0  0  0  0  0  0  0  0
    4.1555   -2.8060    0.0000 H   0  0  0  0  0  0  0  0  0  0  0  0
    2.3100    4.8902    0.0000 H   0  0  0  0  0  0  0  0  0  0  0  0
    1.4631    4.6633    0.0000 H   0  0  0  0  0  0  0  0  0  0  0  0
    1.6900    3.8163    0.0000 H   0  0  0  0  0  0  0  0  0  0  0  0
    5.6959   -4.7864    0.0000 H   0  0  0  0  0  0  0  0  0  0  0  0
    5.6126   -3.9937    0.0000 H   0  0  0  0  0  0  0  0  0  0  0  0
    4.2088   -5.1011    0.0000 H   0  0  0  0  0  0  0  0  0  0  0  0
    4.5230   -5.9197    0.0000 H   0  0  0  0  0  0  0  0  0  0  0  0
    5.3416   -5.6054    0.0000 H   0  0  0  0  0  0  0  0  0  0  0  0
  1  3  1  0  0  0  0
  1  5  1  0  0  0  0
  1  7  2  0  0  0  0
  1 30  1  0  0  0  0
  2 10  1  0  0  0  0
  2 11  1  0  0  0  0
  3 14  1  0  0  0  0
  4 16  2  0  0  0  0
  5 20  1  0  0  0  0
  6 18  2  0  0  0  0
 10  8  1  6  0  0  0
  8 15  1  0  0  0  0
  8 16  1  0  0  0  0
  9 16  1  0  0  0  0
  9 18  1  0  0  0  0
  9 29  1  0  0  0  0
 10 12  1  0  0  0  0
 10 22  1  0  0  0  0
 11 13  1  0  0  0  0
 11 14  1  6  0  0  0
 11 23  1  0  0  0  0
 12 13  2  0  0  0  0
 12 24  1  0  0  0  0
 13 25  1  0  0  0  0
 14 26  1  0  0  0  0
 14 27  1  0  0  0  0
 15 17  2  0  0  0  0
 15 28  1  0  0  0  0
 17 18  1  0  0  0  0
 17 19  1  0  0  0  0
 19 31  1  0  0  0  0
 19 32  1  0  0  0  0
 19 33  1  0  0  0  0
 20 21  1  0  0  0  0
 20 34  1  0  0  0  0
 20 35  1  0  0  0  0
 21 36  1  0  0  0  0
 21 37  1  0  0  0  0
 21 38  1  0  0  0  0
M  END
> <PUBCHEM_COMPOUND_CID>
511199
> <PUBCHEM_COMPOUND_CANONICALIZED>
1
> <PUBCHEM_CACTVS_COMPLEXITY>
518
> <PUBCHEM_CACTVS_HBOND_ACCEPTOR>
6
> <PUBCHEM_CACTVS_HBOND_DONOR>
1
> <PUBCHEM_CACTVS_ROTATABLE_BOND>
6
> <PUBCHEM_CACTVS_SUBSKEYS>
AAADceBzOAIAAAAAAAAAAAAAAAAAAQAAAAAgAAAAAAAAAAAAAAAAHgAQACAQDBThgAYDAAPABRCIQiFWUICAAAAgAAAICAEIAEiBBAAAIQAOEAAIRyIKIMIAAAAAAAAAAAAAAAAAAAAAAAAAAAAAAAAAAA==
> <PUBCHEM_IUPAC_OPENEYE_NAME>
1-[(2R,5S)-5-(ethoxyphosphonoyloxymethyl)-2,5-dihydrofuran-2-yl]-5-methyl-pyrimidine-2,4-dione
> <PUBCHEM_IUPAC_CAS_NAME>
1-[(2R,5S)-5-(ethoxyphosphonoyloxymethyl)-2,5-dihydrofuran-2-yl]-5-methylpyrimidine-2,4-dione
> <PUBCHEM_IUPAC_NAME_MARKUP>
1-[(2<I>R</I>,5<I>S</I>)-5-(ethoxyphosphonoyloxymethyl)-2,5-dihydrofuran-2-yl]-5-methylpyrimidine-2,4-dione
> <PUBCHEM_IUPAC_NAME>
1-[(2R,5S)-5-(ethoxyphosphonoyloxymethyl)-2,5-dihydrofuran-2-yl]-5-methylpyrimidine-2,4-dione
> <PUBCHEM_IUPAC_SYSTEMATIC_NAME>
1-[(2R,5S)-5-(ethoxyphosphonoyloxymethyl)-2,5-dihydrofuran-2-yl]-5-methyl-pyrimidine-2,4-dione
> <PUBCHEM_IUPAC_TRADITIONAL_NAME>
1-[(2R,5S)-5-(ethoxyphosphonoyloxymethyl)-2,5-dihydrofuran-2-yl]-5-methyl-pyrimidine-2,4-quinone
> <PUBCHEM_IUPAC_INCHI>
InChI=1S/C12H17N2O6P/c1-3-18-21(17)19-7-9-4-5-10(20-9)14-6-8(2)11(15)13-12(14)16/h4-6,9-10,21H,3,7H2,1-2H3,(H,13,15,16)/t9-,10+/m0/s1
> <PUBCHEM_IUPAC_INCHIKEY>
QWMSZTZUKDJEHT-VHSXEESVSA-N
> <PUBCHEM_XLOGP3>
-0.5
> <PUBCHEM_EXACT_MASS>
316.08242326
> <PUBCHEM_MOLECULAR_FORMULA>
C12H17N2O6P
> <PUBCHEM_MOLECULAR_WEIGHT>
316.25
> <PUBCHEM_OPENEYE_CAN_SMILES>
CCOP(=O)OCC1C=CC(O1)N2C=C(C(=O)NC2=O)C
> <PUBCHEM_OPENEYE_ISO_SMILES>
CCOP(=O)OC[C@@H]1C=C[C@@H](O1)N2C=C(C(=O)NC2=O)C
> <PUBCHEM_CACTVS_TPSA>
94.2
> <PUBCHEM_MONOISOTOPIC_WEIGHT>
316.08242326
> <PUBCHEM_TOTAL_CHARGE>
0
> <PUBCHEM_HEAVY_ATOM_COUNT>
21
> <PUBCHEM_ATOM_DEF_STEREO_COUNT>
2
> <PUBCHEM_ATOM_UDEF_STEREO_COUNT>
1
> <PUBCHEM_BOND_DEF_STEREO_COUNT>
0
> <PUBCHEM_BOND_UDEF_STEREO_COUNT>
0
> <PUBCHEM_ISOTOPIC_ATOM_COUNT>
0
> <PUBCHEM_COMPONENT_COUNT>
1
> <PUBCHEM_CACTVS_TAUTO_COUNT>
-1
> <PUBCHEM_COORDINATE_TYPE>
1
5
255
> <PUBCHEM_BONDANNOTATIONS>
1  30  3
11  14  6
15  17  8
17  18  8
10  8  6
8  15  8
8  16  8
9  16  8
9  18  8
$$$$
