511122
  -OEChem-10302200282D
 80 85  0     1  0  0  0  0  0999 V2000
    8.1424    1.5979    0.0000 S   0  0  0  0  0  0  0  0  0  0  0  0
   10.0047    2.5532    0.0000 O   0  0  0  0  0  0  0  0  0  0  0  0
   13.3485    0.3508    0.0000 O   0  0  0  0  0  0  0  0  0  0  0  0
   14.7029    0.2061    0.0000 O   0  0  0  0  0  0  0  0  0  0  0  0
    3.7320    1.2932    0.0000 O   0  0  0  0  0  0  0  0  0  0  0  0
    4.5981    2.7932    0.0000 O   0  0  0  0  0  0  0  0  0  0  0  0
   11.8470   -0.5126    0.0000 N   0  0  0  0  0  0  0  0  0  0  0  0
    9.7260    0.7932    0.0000 N   0  0  0  0  0  0  0  0  0  0  0  0
   14.3399   -1.4874    0.0000 N   0  0  0  0  0  0  0  0  0  0  0  0
    8.1424   -0.0116    0.0000 N   0  0  0  0  0  0  0  0  0  0  0  0
   15.9881   -0.9551    0.0000 N   0  0  0  0  0  0  0  0  0  0  0  0
   11.2648    0.2932    0.0000 C   0  0  1  0  0  0  0  0  0  0  0  0
   10.3138   -0.0159    0.0000 C   0  0  2  0  0  0  0  0  0  0  0  0
   11.2648    1.2932    0.0000 C   0  0  1  0  0  0  0  0  0  0  0  0
   10.3163   -1.0099    0.0000 C   0  0  0  0  0  0  0  0  0  0  0  0
   11.2620   -1.3163    0.0000 C   0  0  0  0  0  0  0  0  0  0  0  0
   10.3138    1.6022    0.0000 C   0  0  0  0  0  0  0  0  0  0  0  0
   12.8470   -0.5143    0.0000 C   0  0  0  0  0  0  0  0  0  0  0  0
   13.3455   -1.3812    0.0000 C   0  0  2  0  0  0  0  0  0  0  0  0
   12.0738    1.8809    0.0000 C   0  0  0  0  0  0  0  0  0  0  0  0
    8.7260    0.7932    0.0000 C   0  0  0  0  0  0  0  0  0  0  0  0
   12.9372   -2.2940    0.0000 C   0  0  0  0  0  0  0  0  0  0  0  0
   13.6792   -2.9645    0.0000 C   0  0  0  0  0  0  0  0  0  0  0  0
   14.5461   -2.4660    0.0000 C   0  0  0  0  0  0  0  0  0  0  0  0
   15.0103   -0.7455    0.0000 C   0  0  0  0  0  0  0  0  0  0  0  0
    7.1962    1.2932    0.0000 C   0  0  0  0  0  0  0  0  0  0  0  0
    7.1962    0.2932    0.0000 C   0  0  0  0  0  0  0  0  0  0  0  0
    6.3301    1.7932    0.0000 C   0  0  0  0  0  0  0  0  0  0  0  0
    6.3301   -0.2068    0.0000 C   0  0  0  0  0  0  0  0  0  0  0  0
    5.4641    1.2932    0.0000 C   0  0  0  0  0  0  0  0  0  0  0  0
   16.6585   -0.2131    0.0000 C   0  0  0  0  0  0  0  0  0  0  0  0
    5.4641    0.2932    0.0000 C   0  0  0  0  0  0  0  0  0  0  0  0
   17.6363   -0.4227    0.0000 C   0  0  0  0  0  0  0  0  0  0  0  0
   16.3511    0.7385    0.0000 C   0  0  0  0  0  0  0  0  0  0  0  0
    4.5981    1.7932    0.0000 C   0  0  0  0  0  0  0  0  0  0  0  0
   18.3067    0.3193    0.0000 C   0  0  0  0  0  0  0  0  0  0  0  0
   17.0215    1.4805    0.0000 C   0  0  0  0  0  0  0  0  0  0  0  0
   17.9993    1.2709    0.0000 C   0  0  0  0  0  0  0  0  0  0  0  0
   18.6697    2.0129    0.0000 C   0  0  0  0  0  0  0  0  0  0  0  0
   19.6475    1.8033    0.0000 C   0  0  0  0  0  0  0  0  0  0  0  0
   18.3624    2.9645    0.0000 C   0  0  0  0  0  0  0  0  0  0  0  0
    2.8660    1.7932    0.0000 C   0  0  0  0  0  0  0  0  0  0  0  0
    2.0000    1.2932    0.0000 C   0  0  0  0  0  0  0  0  0  0  0  0
   12.0736    0.5548    0.0000 H   0  0  0  0  0  0  0  0  0  0  0  0
    9.5057   -0.2796    0.0000 H   0  0  0  0  0  0  0  0  0  0  0  0
   11.1678    1.9055    0.0000 H   0  0  0  0  0  0  0  0  0  0  0  0
    9.6996   -0.9464    0.0000 H   0  0  0  0  0  0  0  0  0  0  0  0
   10.1883   -1.6166    0.0000 H   0  0  0  0  0  0  0  0  0  0  0  0
   11.0100   -1.8828    0.0000 H   0  0  0  0  0  0  0  0  0  0  0  0
   11.7989   -1.6265    0.0000 H   0  0  0  0  0  0  0  0  0  0  0  0
   13.6841   -0.8618    0.0000 H   0  0  0  0  0  0  0  0  0  0  0  0
   12.4383    1.3794    0.0000 H   0  0  0  0  0  0  0  0  0  0  0  0
   12.5754    2.2454    0.0000 H   0  0  0  0  0  0  0  0  0  0  0  0
   11.7094    2.3825    0.0000 H   0  0  0  0  0  0  0  0  0  0  0  0
   12.4008   -1.9831    0.0000 H   0  0  0  0  0  0  0  0  0  0  0  0
   12.5719   -2.7950    0.0000 H   0  0  0  0  0  0  0  0  0  0  0  0
   13.2177   -3.3785    0.0000 H   0  0  0  0  0  0  0  0  0  0  0  0
   14.0428   -3.4667    0.0000 H   0  0  0  0  0  0  0  0  0  0  0  0
   14.7973   -3.0328    0.0000 H   0  0  0  0  0  0  0  0  0  0  0  0
   15.1361   -2.2754    0.0000 H   0  0  0  0  0  0  0  0  0  0  0  0
   16.1786   -1.5451    0.0000 H   0  0  0  0  0  0  0  0  0  0  0  0
    6.3301    2.4132    0.0000 H   0  0  0  0  0  0  0  0  0  0  0  0
    6.3301   -0.8268    0.0000 H   0  0  0  0  0  0  0  0  0  0  0  0
    4.9272   -0.0168    0.0000 H   0  0  0  0  0  0  0  0  0  0  0  0
   17.8269   -1.0127    0.0000 H   0  0  0  0  0  0  0  0  0  0  0  0
   15.7449    0.8685    0.0000 H   0  0  0  0  0  0  0  0  0  0  0  0
   18.9129    0.1893    0.0000 H   0  0  0  0  0  0  0  0  0  0  0  0
   16.8310    2.0705    0.0000 H   0  0  0  0  0  0  0  0  0  0  0  0
   19.0854    2.4729    0.0000 H   0  0  0  0  0  0  0  0  0  0  0  0
   19.5176    1.1970    0.0000 H   0  0  0  0  0  0  0  0  0  0  0  0
   20.2538    1.6733    0.0000 H   0  0  0  0  0  0  0  0  0  0  0  0
   19.7775    2.4095    0.0000 H   0  0  0  0  0  0  0  0  0  0  0  0
   18.9524    3.1550    0.0000 H   0  0  0  0  0  0  0  0  0  0  0  0
   18.1718    3.5544    0.0000 H   0  0  0  0  0  0  0  0  0  0  0  0
   17.7724    2.7739    0.0000 H   0  0  0  0  0  0  0  0  0  0  0  0
    3.2646    2.2681    0.0000 H   0  0  0  0  0  0  0  0  0  0  0  0
    2.4675    2.2681    0.0000 H   0  0  0  0  0  0  0  0  0  0  0  0
    1.6900    1.8301    0.0000 H   0  0  0  0  0  0  0  0  0  0  0  0
    1.4631    0.9832    0.0000 H   0  0  0  0  0  0  0  0  0  0  0  0
    2.3100    0.7562    0.0000 H   0  0  0  0  0  0  0  0  0  0  0  0
  1 21  1  0  0  0  0
  1 26  1  0  0  0  0
  2 17  2  0  0  0  0
  3 18  2  0  0  0  0
  4 25  2  0  0  0  0
  5 35  1  0  0  0  0
  5 42  1  0  0  0  0
  6 35  2  0  0  0  0
  7 12  1  0  0  0  0
  7 16  1  0  0  0  0
  7 18  1  0  0  0  0
  8 13  1  0  0  0  0
  8 17  1  0  0  0  0
  8 21  1  0  0  0  0
  9 19  1  0  0  0  0
  9 24  1  0  0  0  0
  9 25  1  0  0  0  0
 10 21  2  0  0  0  0
 10 27  1  0  0  0  0
 11 25  1  0  0  0  0
 11 31  1  0  0  0  0
 11 61  1  0  0  0  0
 12 13  1  0  0  0  0
 12 14  1  0  0  0  0
 12 44  1  6  0  0  0
 13 15  1  0  0  0  0
 13 45  1  1  0  0  0
 14 17  1  0  0  0  0
 14 20  1  1  0  0  0
 14 46  1  0  0  0  0
 15 16  1  0  0  0  0
 15 47  1  0  0  0  0
 15 48  1  0  0  0  0
 16 49  1  0  0  0  0
 16 50  1  0  0  0  0
 19 18  1  1  0  0  0
 19 22  1  0  0  0  0
 19 51  1  0  0  0  0
 20 52  1  0  0  0  0
 20 53  1  0  0  0  0
 20 54  1  0  0  0  0
 22 23  1  0  0  0  0
 22 55  1  0  0  0  0
 22 56  1  0  0  0  0
 23 24  1  0  0  0  0
 23 57  1  0  0  0  0
 23 58  1  0  0  0  0
 24 59  1  0  0  0  0
 24 60  1  0  0  0  0
 26 27  2  0  0  0  0
 26 28  1  0  0  0  0
 27 29  1  0  0  0  0
 28 30  2  0  0  0  0
 28 62  1  0  0  0  0
 29 32  2  0  0  0  0
 29 63  1  0  0  0  0
 30 32  1  0  0  0  0
 30 35  1  0  0  0  0
 31 33  2  0  0  0  0
 31 34  1  0  0  0  0
 32 64  1  0  0  0  0
 33 36  1  0  0  0  0
 33 65  1  0  0  0  0
 34 37  2  0  0  0  0
 34 66  1  0  0  0  0
 36 38  2  0  0  0  0
 36 67  1  0  0  0  0
 37 38  1  0  0  0  0
 37 68  1  0  0  0  0
 38 39  1  0  0  0  0
 39 40  1  0  0  0  0
 39 41  1  0  0  0  0
 39 69  1  0  0  0  0
 40 70  1  0  0  0  0
 40 71  1  0  0  0  0
 40 72  1  0  0  0  0
 41 73  1  0  0  0  0
 41 74  1  0  0  0  0
 41 75  1  0  0  0  0
 42 43  1  0  0  0  0
 42 76  1  0  0  0  0
 42 77  1  0  0  0  0
 43 78  1  0  0  0  0
 43 79  1  0  0  0  0
 43 80  1  0  0  0  0
M  END
> <PUBCHEM_COMPOUND_CID>
511122
> <PUBCHEM_COMPOUND_CANONICALIZED>
1
> <PUBCHEM_CACTVS_COMPLEXITY>
1080
> <PUBCHEM_CACTVS_HBOND_ACCEPTOR>
7
> <PUBCHEM_CACTVS_HBOND_DONOR>
1
> <PUBCHEM_CACTVS_ROTATABLE_BOND>
7
> <PUBCHEM_CACTVS_SUBSKEYS>
AAADcfB/uABAAAAAAAAAAAAAAAAAAWLFiwAwYAAAAAAWAFgB9AAAHgQQAAAADSjh3gYz2bPIFAisAyXyfACD8KllCjhJmD24bNiIZrrg/bmWMQhs1wPI6aec2eOeiAAAgAAAAQAQAAEAAAACAAAAAAAAAA==
> <PUBCHEM_IUPAC_OPENEYE_NAME>
ethyl 2-[(3aS,6S,6aR)-1-[(2S)-1-[(4-isopropylphenyl)carbamoyl]pyrrolidine-2-carbonyl]-6-methyl-5-oxo-3,3a,6,6a-tetrahydro-2H-pyrrolo[3,2-b]pyrrol-4-yl]-1,3-benzothiazole-6-carboxylate
> <PUBCHEM_IUPAC_CAS_NAME>
2-[(3aS,6S,6aR)-6-methyl-5-oxo-1-[oxo-[(2S)-1-[oxo-(4-propan-2-ylanilino)methyl]-2-pyrrolidinyl]methyl]-3,3a,6,6a-tetrahydro-2H-pyrrolo[3,2-b]pyrrol-4-yl]-1,3-benzothiazole-6-carboxylic acid ethyl ester
> <PUBCHEM_IUPAC_NAME_MARKUP>
ethyl 2-[(3<I>a</I><I>S</I>,6<I>S</I>,6<I>a</I><I>R</I>)-6-methyl-5-oxo-1-[(2<I>S</I>)-1-[(4-propan-2-ylphenyl)carbamoyl]pyrrolidine-2-carbonyl]-3,3<I>a</I>,6,6<I>a</I>-tetrahydro-2<I>H</I>-pyrrolo[3,2-b]pyrrol-4-yl]-1,3-benzothiazole-6-carboxylate
> <PUBCHEM_IUPAC_NAME>
ethyl 2-[(3aS,6S,6aR)-6-methyl-5-oxo-1-[(2S)-1-[(4-propan-2-ylphenyl)carbamoyl]pyrrolidine-2-carbonyl]-3,3a,6,6a-tetrahydro-2H-pyrrolo[3,2-b]pyrrol-4-yl]-1,3-benzothiazole-6-carboxylate
> <PUBCHEM_IUPAC_SYSTEMATIC_NAME>
ethyl 2-[(3aS,6S,6aR)-6-methyl-5-oxidanylidene-1-[(2S)-1-[(4-propan-2-ylphenyl)carbamoyl]pyrrolidin-2-yl]carbonyl-3,3a,6,6a-tetrahydro-2H-pyrrolo[3,2-b]pyrrol-4-yl]-1,3-benzothiazole-6-carboxylate
> <PUBCHEM_IUPAC_TRADITIONAL_NAME>
2-[(3aS,6S,6aR)-5-keto-6-methyl-1-[(2S)-1-(p-cumenylcarbamoyl)prolyl]-3,3a,6,6a-tetrahydro-2H-pyrrolo[3,2-b]pyrrol-4-yl]-1,3-benzothiazole-6-carboxylic acid ethyl ester
> <PUBCHEM_IUPAC_INCHI>
InChI=1S/C32H37N5O5S/c1-5-42-30(40)21-10-13-23-26(17-21)43-32(34-23)37-24-14-16-36(27(24)19(4)28(37)38)29(39)25-7-6-15-35(25)31(41)33-22-11-8-20(9-12-22)18(2)3/h8-13,17-19,24-25,27H,5-7,14-16H2,1-4H3,(H,33,41)/t19-,24-,25-,27+/m0/s1
> <PUBCHEM_IUPAC_INCHIKEY>
JJABEABTDZJVIG-DKGXBISFSA-N
> <PUBCHEM_XLOGP3_AA>
4.9
> <PUBCHEM_EXACT_MASS>
603.25154047
> <PUBCHEM_MOLECULAR_FORMULA>
C32H37N5O5S
> <PUBCHEM_MOLECULAR_WEIGHT>
603.7
> <PUBCHEM_OPENEYE_CAN_SMILES>
CCOC(=O)C1=CC2=C(C=C1)N=C(S2)N3C4CCN(C4C(C3=O)C)C(=O)C5CCCN5C(=O)NC6=CC=C(C=C6)C(C)C
> <PUBCHEM_OPENEYE_ISO_SMILES>
CCOC(=O)C1=CC2=C(C=C1)N=C(S2)N3[C@H]4CCN([C@@H]4[C@@H](C3=O)C)C(=O)[C@@H]5CCCN5C(=O)NC6=CC=C(C=C6)C(C)C
> <PUBCHEM_CACTVS_TPSA>
140
> <PUBCHEM_MONOISOTOPIC_WEIGHT>
603.25154047
> <PUBCHEM_TOTAL_CHARGE>
0
> <PUBCHEM_HEAVY_ATOM_COUNT>
43
> <PUBCHEM_ATOM_DEF_STEREO_COUNT>
4
> <PUBCHEM_ATOM_UDEF_STEREO_COUNT>
0
> <PUBCHEM_BOND_DEF_STEREO_COUNT>
0
> <PUBCHEM_BOND_UDEF_STEREO_COUNT>
0
> <PUBCHEM_ISOTOPIC_ATOM_COUNT>
0
> <PUBCHEM_COMPONENT_COUNT>
1
> <PUBCHEM_CACTVS_TAUTO_COUNT>
-1
> <PUBCHEM_COORDINATE_TYPE>
1
5
255
> <PUBCHEM_BONDANNOTATIONS>
1  21  8
1  26  8
10  21  8
10  27  8
12  44  6
13  45  5
14  20  5
19  18  5
26  27  8
26  28  8
27  29  8
28  30  8
29  32  8
30  32  8
31  33  8
31  34  8
33  36  8
34  37  8
36  38  8
37  38  8
$$$$
