511125
  -OEChem-10302200282D
 70 75  0     1  0  0  0  0  0999 V2000
    4.6783    1.4635    0.0000 S   0  0  0  0  0  0  0  0  0  0  0  0
    6.5406    4.0283    0.0000 O   0  0  0  0  0  0  0  0  0  0  0  0
    9.8844    1.8259    0.0000 O   0  0  0  0  0  0  0  0  0  0  0  0
   11.2388    1.6812    0.0000 O   0  0  0  0  0  0  0  0  0  0  0  0
    8.3829    0.9625    0.0000 N   0  0  0  0  0  0  0  0  0  0  0  0
    6.2619    2.2682    0.0000 N   0  0  0  0  0  0  0  0  0  0  0  0
   10.8758   -0.0124    0.0000 N   0  0  0  0  0  0  0  0  0  0  0  0
    4.6783    3.0730    0.0000 N   0  0  0  0  0  0  0  0  0  0  0  0
   12.5240    0.5200    0.0000 N   0  0  0  0  0  0  0  0  0  0  0  0
    2.8660    1.2683    0.0000 N   0  0  0  0  0  0  0  0  0  0  0  0
    7.8007    1.7682    0.0000 C   0  0  1  0  0  0  0  0  0  0  0  0
    6.8497    1.4592    0.0000 C   0  0  2  0  0  0  0  0  0  0  0  0
    7.8007    2.7682    0.0000 C   0  0  1  0  0  0  0  0  0  0  0  0
    6.8522    0.4652    0.0000 C   0  0  0  0  0  0  0  0  0  0  0  0
    7.7979    0.1588    0.0000 C   0  0  0  0  0  0  0  0  0  0  0  0
    6.8497    3.0773    0.0000 C   0  0  0  0  0  0  0  0  0  0  0  0
    9.3829    0.9608    0.0000 C   0  0  0  0  0  0  0  0  0  0  0  0
    9.8814    0.0939    0.0000 C   0  0  2  0  0  0  0  0  0  0  0  0
    8.6097    3.3560    0.0000 C   0  0  0  0  0  0  0  0  0  0  0  0
    9.4731   -0.8190    0.0000 C   0  0  0  0  0  0  0  0  0  0  0  0
    5.2619    2.2682    0.0000 C   0  0  0  0  0  0  0  0  0  0  0  0
   10.2151   -1.4894    0.0000 C   0  0  0  0  0  0  0  0  0  0  0  0
   11.0820   -0.9909    0.0000 C   0  0  0  0  0  0  0  0  0  0  0  0
   11.5462    0.7296    0.0000 C   0  0  0  0  0  0  0  0  0  0  0  0
    3.7320    2.7682    0.0000 C   0  0  0  0  0  0  0  0  0  0  0  0
    3.7320    1.7682    0.0000 C   0  0  0  0  0  0  0  0  0  0  0  0
    2.8660    3.2682    0.0000 C   0  0  0  0  0  0  0  0  0  0  0  0
   12.8313   -0.4316    0.0000 C   0  0  0  0  0  0  0  0  0  0  0  0
    2.0000    2.7682    0.0000 C   0  0  0  0  0  0  0  0  0  0  0  0
    2.0000    1.7682    0.0000 C   0  0  0  0  0  0  0  0  0  0  0  0
   13.8091   -0.6412    0.0000 C   0  0  0  0  0  0  0  0  0  0  0  0
   12.1609   -1.1736    0.0000 C   0  0  0  0  0  0  0  0  0  0  0  0
   13.4461   -2.3348    0.0000 C   0  0  0  0  0  0  0  0  0  0  0  0
   14.1165   -1.5928    0.0000 C   0  0  0  0  0  0  0  0  0  0  0  0
   12.4683   -2.1251    0.0000 C   0  0  0  0  0  0  0  0  0  0  0  0
   13.7535   -3.2863    0.0000 C   0  0  0  0  0  0  0  0  0  0  0  0
   14.7312   -3.4959    0.0000 C   0  0  0  0  0  0  0  0  0  0  0  0
   13.0830   -4.0283    0.0000 C   0  0  0  0  0  0  0  0  0  0  0  0
    8.6095    2.0299    0.0000 H   0  0  0  0  0  0  0  0  0  0  0  0
    6.0416    1.1955    0.0000 H   0  0  0  0  0  0  0  0  0  0  0  0
    8.3532    2.4868    0.0000 H   0  0  0  0  0  0  0  0  0  0  0  0
    6.2355    0.5287    0.0000 H   0  0  0  0  0  0  0  0  0  0  0  0
    6.7242   -0.1415    0.0000 H   0  0  0  0  0  0  0  0  0  0  0  0
    7.5459   -0.4077    0.0000 H   0  0  0  0  0  0  0  0  0  0  0  0
    8.3348   -0.1514    0.0000 H   0  0  0  0  0  0  0  0  0  0  0  0
   10.2200    0.6133    0.0000 H   0  0  0  0  0  0  0  0  0  0  0  0
    8.9742    2.8544    0.0000 H   0  0  0  0  0  0  0  0  0  0  0  0
    9.1113    3.7205    0.0000 H   0  0  0  0  0  0  0  0  0  0  0  0
    8.2453    3.8576    0.0000 H   0  0  0  0  0  0  0  0  0  0  0  0
    8.9367   -0.5080    0.0000 H   0  0  0  0  0  0  0  0  0  0  0  0
    9.1078   -1.3199    0.0000 H   0  0  0  0  0  0  0  0  0  0  0  0
    9.7536   -1.9034    0.0000 H   0  0  0  0  0  0  0  0  0  0  0  0
   10.5787   -1.9916    0.0000 H   0  0  0  0  0  0  0  0  0  0  0  0
   11.3332   -1.5577    0.0000 H   0  0  0  0  0  0  0  0  0  0  0  0
   11.6720   -0.8003    0.0000 H   0  0  0  0  0  0  0  0  0  0  0  0
   12.9396    0.9801    0.0000 H   0  0  0  0  0  0  0  0  0  0  0  0
    2.8660    3.8882    0.0000 H   0  0  0  0  0  0  0  0  0  0  0  0
    1.4631    3.0782    0.0000 H   0  0  0  0  0  0  0  0  0  0  0  0
    1.4631    1.4582    0.0000 H   0  0  0  0  0  0  0  0  0  0  0  0
   14.2248   -0.1811    0.0000 H   0  0  0  0  0  0  0  0  0  0  0  0
   11.5547   -1.0436    0.0000 H   0  0  0  0  0  0  0  0  0  0  0  0
   14.7227   -1.7227    0.0000 H   0  0  0  0  0  0  0  0  0  0  0  0
   12.0526   -2.5852    0.0000 H   0  0  0  0  0  0  0  0  0  0  0  0
   14.1691   -2.8263    0.0000 H   0  0  0  0  0  0  0  0  0  0  0  0
   14.6013   -4.1022    0.0000 H   0  0  0  0  0  0  0  0  0  0  0  0
   15.3375   -3.6259    0.0000 H   0  0  0  0  0  0  0  0  0  0  0  0
   14.8612   -2.8897    0.0000 H   0  0  0  0  0  0  0  0  0  0  0  0
   12.6230   -3.6127    0.0000 H   0  0  0  0  0  0  0  0  0  0  0  0
   12.6674   -4.4883    0.0000 H   0  0  0  0  0  0  0  0  0  0  0  0
   13.5431   -4.4440    0.0000 H   0  0  0  0  0  0  0  0  0  0  0  0
  1 21  1  0  0  0  0
  1 26  1  0  0  0  0
  2 16  2  0  0  0  0
  3 17  2  0  0  0  0
  4 24  2  0  0  0  0
  5 11  1  0  0  0  0
  5 15  1  0  0  0  0
  5 17  1  0  0  0  0
  6 12  1  0  0  0  0
  6 16  1  0  0  0  0
  6 21  1  0  0  0  0
  7 18  1  0  0  0  0
  7 23  1  0  0  0  0
  7 24  1  0  0  0  0
  8 21  2  0  0  0  0
  8 25  1  0  0  0  0
  9 24  1  0  0  0  0
  9 28  1  0  0  0  0
  9 56  1  0  0  0  0
 10 26  1  0  0  0  0
 10 30  2  0  0  0  0
 11 12  1  0  0  0  0
 11 13  1  0  0  0  0
 11 39  1  6  0  0  0
 12 14  1  0  0  0  0
 12 40  1  1  0  0  0
 13 16  1  0  0  0  0
 13 19  1  1  0  0  0
 13 41  1  0  0  0  0
 14 15  1  0  0  0  0
 14 42  1  0  0  0  0
 14 43  1  0  0  0  0
 15 44  1  0  0  0  0
 15 45  1  0  0  0  0
 18 17  1  1  0  0  0
 18 20  1  0  0  0  0
 18 46  1  0  0  0  0
 19 47  1  0  0  0  0
 19 48  1  0  0  0  0
 19 49  1  0  0  0  0
 20 22  1  0  0  0  0
 20 50  1  0  0  0  0
 20 51  1  0  0  0  0
 22 23  1  0  0  0  0
 22 52  1  0  0  0  0
 22 53  1  0  0  0  0
 23 54  1  0  0  0  0
 23 55  1  0  0  0  0
 25 26  2  0  0  0  0
 25 27  1  0  0  0  0
 27 29  2  0  0  0  0
 27 57  1  0  0  0  0
 28 31  2  0  0  0  0
 28 32  1  0  0  0  0
 29 30  1  0  0  0  0
 29 58  1  0  0  0  0
 30 59  1  0  0  0  0
 31 34  1  0  0  0  0
 31 60  1  0  0  0  0
 32 35  2  0  0  0  0
 32 61  1  0  0  0  0
 33 34  2  0  0  0  0
 33 35  1  0  0  0  0
 33 36  1  0  0  0  0
 34 62  1  0  0  0  0
 35 63  1  0  0  0  0
 36 37  1  0  0  0  0
 36 38  1  0  0  0  0
 36 64  1  0  0  0  0
 37 65  1  0  0  0  0
 37 66  1  0  0  0  0
 37 67  1  0  0  0  0
 38 68  1  0  0  0  0
 38 69  1  0  0  0  0
 38 70  1  0  0  0  0
M  END
> <PUBCHEM_COMPOUND_CID>
511125
> <PUBCHEM_COMPOUND_CANONICALIZED>
1
> <PUBCHEM_CACTVS_COMPLEXITY>
926
> <PUBCHEM_CACTVS_HBOND_ACCEPTOR>
6
> <PUBCHEM_CACTVS_HBOND_DONOR>
1
> <PUBCHEM_CACTVS_ROTATABLE_BOND>
4
> <PUBCHEM_CACTVS_SUBSKEYS>
AAADcfB7sABAAAAAAAAAAAAAAAAAAWLFiwA8QAAAAAAWAFgB/AAAHgQQAAAADSjB3gQ/0bPIEAisAzV3dACD8K1xGjgJ2DW4dJiIYPrg2bGUIAholwLIyCccicAOiAAAAAAAAAAQAAAAAAAAAAAAAAAAAA==
> <PUBCHEM_IUPAC_OPENEYE_NAME>
(2S)-2-[(3aS,6S,6aR)-6-methyl-5-oxo-4-thiazolo[5,4-b]pyridin-2-yl-3,3a,6,6a-tetrahydro-2H-pyrrolo[3,2-b]pyrrole-1-carbonyl]-N-(4-isopropylphenyl)pyrrolidine-1-carboxamide
> <PUBCHEM_IUPAC_CAS_NAME>
(2S)-2-[[(3aS,6S,6aR)-6-methyl-5-oxo-4-(2-thiazolo[5,4-b]pyridinyl)-3,3a,6,6a-tetrahydro-2H-pyrrolo[3,2-b]pyrrol-1-yl]-oxomethyl]-N-(4-propan-2-ylphenyl)-1-pyrrolidinecarboxamide
> <PUBCHEM_IUPAC_NAME_MARKUP>
(2<I>S</I>)-2-[(3<I>a</I><I>S</I>,6<I>S</I>,6<I>a</I><I>R</I>)-6-methyl-5-oxo-4-([1,3]thiazolo[5,4-b]pyridin-2-yl)-3,3<I>a</I>,6,6<I>a</I>-tetrahydro-2<I>H</I>-pyrrolo[3,2-b]pyrrole-1-carbonyl]-<I>N</I>-(4-propan-2-ylphenyl)pyrrolidine-1-carboxamide
> <PUBCHEM_IUPAC_NAME>
(2S)-2-[(3aS,6S,6aR)-6-methyl-5-oxo-4-([1,3]thiazolo[5,4-b]pyridin-2-yl)-3,3a,6,6a-tetrahydro-2H-pyrrolo[3,2-b]pyrrole-1-carbonyl]-N-(4-propan-2-ylphenyl)pyrrolidine-1-carboxamide
> <PUBCHEM_IUPAC_SYSTEMATIC_NAME>
(2S)-2-[[(3aS,6S,6aR)-6-methyl-5-oxidanylidene-4-([1,3]thiazolo[5,4-b]pyridin-2-yl)-3,3a,6,6a-tetrahydro-2H-pyrrolo[3,2-b]pyrrol-1-yl]carbonyl]-N-(4-propan-2-ylphenyl)pyrrolidine-1-carboxamide
> <PUBCHEM_IUPAC_TRADITIONAL_NAME>
(2S)-2-[(3aS,6S,6aR)-5-keto-6-methyl-4-thiazolo[5,4-b]pyridin-2-yl-3,3a,6,6a-tetrahydro-2H-pyrrolo[3,2-b]pyrrole-1-carbonyl]-N-p-cumenyl-pyrrolidine-1-carboxamide
> <PUBCHEM_IUPAC_INCHI>
InChI=1S/C28H32N6O3S/c1-16(2)18-8-10-19(11-9-18)30-27(37)32-14-5-7-22(32)26(36)33-15-12-21-23(33)17(3)25(35)34(21)28-31-20-6-4-13-29-24(20)38-28/h4,6,8-11,13,16-17,21-23H,5,7,12,14-15H2,1-3H3,(H,30,37)/t17-,21-,22-,23+/m0/s1
> <PUBCHEM_IUPAC_INCHIKEY>
HAASVDOAMZVHJP-KEIZBESESA-N
> <PUBCHEM_XLOGP3_AA>
3.9
> <PUBCHEM_EXACT_MASS>
532.22566008
> <PUBCHEM_MOLECULAR_FORMULA>
C28H32N6O3S
> <PUBCHEM_MOLECULAR_WEIGHT>
532.7
> <PUBCHEM_OPENEYE_CAN_SMILES>
CC1C2C(CCN2C(=O)C3CCCN3C(=O)NC4=CC=C(C=C4)C(C)C)N(C1=O)C5=NC6=C(S5)N=CC=C6
> <PUBCHEM_OPENEYE_ISO_SMILES>
C[C@H]1[C@@H]2[C@H](CCN2C(=O)[C@@H]3CCCN3C(=O)NC4=CC=C(C=C4)C(C)C)N(C1=O)C5=NC6=C(S5)N=CC=C6
> <PUBCHEM_CACTVS_TPSA>
127
> <PUBCHEM_MONOISOTOPIC_WEIGHT>
532.22566008
> <PUBCHEM_TOTAL_CHARGE>
0
> <PUBCHEM_HEAVY_ATOM_COUNT>
38
> <PUBCHEM_ATOM_DEF_STEREO_COUNT>
4
> <PUBCHEM_ATOM_UDEF_STEREO_COUNT>
0
> <PUBCHEM_BOND_DEF_STEREO_COUNT>
0
> <PUBCHEM_BOND_UDEF_STEREO_COUNT>
0
> <PUBCHEM_ISOTOPIC_ATOM_COUNT>
0
> <PUBCHEM_COMPONENT_COUNT>
1
> <PUBCHEM_CACTVS_TAUTO_COUNT>
-1
> <PUBCHEM_COORDINATE_TYPE>
1
5
255
> <PUBCHEM_BONDANNOTATIONS>
1  21  8
1  26  8
10  26  8
10  30  8
11  39  6
12  40  5
13  19  5
18  17  5
25  26  8
25  27  8
27  29  8
28  31  8
28  32  8
29  30  8
31  34  8
32  35  8
33  34  8
33  35  8
8  21  8
8  25  8
$$$$
