511103
  -OEChem-10302200282D
 67 72  0     1  0  0  0  0  0999 V2000
   10.8450    6.2172    0.0000 Cl  0  0  0  0  0  0  0  0  0  0  0  0
    2.6504   -3.5801    0.0000 O   0  0  0  0  0  0  0  0  0  0  0  0
    4.5983   -6.0833    0.0000 O   0  0  0  0  0  0  0  0  0  0  0  0
    5.7783   -1.0805    0.0000 O   0  0  0  0  0  0  0  0  0  0  0  0
    6.3345    0.1628    0.0000 O   0  0  0  0  0  0  0  0  0  0  0  0
    6.1355   -2.7754    0.0000 N   0  0  0  0  0  0  0  0  0  0  0  0
    4.2382   -4.3891    0.0000 N   0  0  0  0  0  0  0  0  0  0  0  0
    7.8330   -0.7058    0.0000 N   0  0  0  0  0  0  0  0  0  0  0  0
    5.1893   -3.0801    0.0000 C   0  0  1  0  0  0  0  0  0  0  0  0
    5.1893   -4.0801    0.0000 C   0  0  2  0  0  0  0  0  0  0  0  0
    4.2382   -2.7711    0.0000 C   0  0  1  0  0  0  0  0  0  0  0  0
    6.1355   -4.3848    0.0000 C   0  0  0  0  0  0  0  0  0  0  0  0
    6.7191   -3.5801    0.0000 C   0  0  0  0  0  0  0  0  0  0  0  0
    2.9511   -5.5481    0.0000 C   0  0  0  0  0  0  0  0  0  0  0  0
    3.6504   -3.5801    0.0000 C   0  0  0  0  0  0  0  0  0  0  0  0
    3.9292   -5.3402    0.0000 C   0  0  0  0  0  0  0  0  0  0  0  0
    2.0000   -5.2391    0.0000 C   0  0  0  0  0  0  0  0  0  0  0  0
    2.2079   -6.2172    0.0000 C   0  0  0  0  0  0  0  0  0  0  0  0
    6.4462   -1.8248    0.0000 C   0  0  0  0  0  0  0  0  0  0  0  0
    3.9292   -1.8200    0.0000 C   0  0  0  0  0  0  0  0  0  0  0  0
    7.4247   -1.6186    0.0000 C   0  0  2  0  0  0  0  0  0  0  0  0
    8.1666   -2.2890    0.0000 C   0  0  0  0  0  0  0  0  0  0  0  0
    9.0335   -1.7905    0.0000 C   0  0  0  0  0  0  0  0  0  0  0  0
    8.8273   -0.8120    0.0000 C   0  0  0  0  0  0  0  0  0  0  0  0
    7.3345    0.1611    0.0000 C   0  0  0  0  0  0  0  0  0  0  0  0
    7.8360    1.0263    0.0000 C   0  0  0  0  0  0  0  0  0  0  0  0
    8.8360    1.0245    0.0000 C   0  0  0  0  0  0  0  0  0  0  0  0
    7.3375    1.8932    0.0000 C   0  0  0  0  0  0  0  0  0  0  0  0
    9.3375    1.8897    0.0000 C   0  0  0  0  0  0  0  0  0  0  0  0
    7.8390    2.7583    0.0000 C   0  0  0  0  0  0  0  0  0  0  0  0
    8.8390    2.7566    0.0000 C   0  0  0  0  0  0  0  0  0  0  0  0
    9.3405    3.6217    0.0000 C   0  0  0  0  0  0  0  0  0  0  0  0
    8.8420    4.4886    0.0000 C   0  0  0  0  0  0  0  0  0  0  0  0
   10.3405    3.6200    0.0000 C   0  0  0  0  0  0  0  0  0  0  0  0
    9.3435    5.3538    0.0000 C   0  0  0  0  0  0  0  0  0  0  0  0
   10.8420    4.4852    0.0000 C   0  0  0  0  0  0  0  0  0  0  0  0
   10.3435    5.3521    0.0000 C   0  0  0  0  0  0  0  0  0  0  0  0
    5.1904   -2.2301    0.0000 H   0  0  0  0  0  0  0  0  0  0  0  0
    5.1904   -4.9301    0.0000 H   0  0  0  0  0  0  0  0  0  0  0  0
    3.6258   -2.6741    0.0000 H   0  0  0  0  0  0  0  0  0  0  0  0
    5.8845   -4.9517    0.0000 H   0  0  0  0  0  0  0  0  0  0  0  0
    6.6729   -4.6941    0.0000 H   0  0  0  0  0  0  0  0  0  0  0  0
    7.1800   -3.9948    0.0000 H   0  0  0  0  0  0  0  0  0  0  0  0
    7.1800   -3.1654    0.0000 H   0  0  0  0  0  0  0  0  0  0  0  0
    2.9835   -4.9289    0.0000 H   0  0  0  0  0  0  0  0  0  0  0  0
    2.0863   -4.6251    0.0000 H   0  0  0  0  0  0  0  0  0  0  0  0
    1.3804   -5.2607    0.0000 H   0  0  0  0  0  0  0  0  0  0  0  0
    1.6331   -6.4495    0.0000 H   0  0  0  0  0  0  0  0  0  0  0  0
    2.5365   -6.7430    0.0000 H   0  0  0  0  0  0  0  0  0  0  0  0
    4.5189   -1.6284    0.0000 H   0  0  0  0  0  0  0  0  0  0  0  0
    3.7376   -1.2304    0.0000 H   0  0  0  0  0  0  0  0  0  0  0  0
    3.3396   -2.0116    0.0000 H   0  0  0  0  0  0  0  0  0  0  0  0
    7.0353   -1.1361    0.0000 H   0  0  0  0  0  0  0  0  0  0  0  0
    7.7052   -2.7031    0.0000 H   0  0  0  0  0  0  0  0  0  0  0  0
    8.5302   -2.7913    0.0000 H   0  0  0  0  0  0  0  0  0  0  0  0
    9.2847   -2.3574    0.0000 H   0  0  0  0  0  0  0  0  0  0  0  0
    9.6235   -1.6000    0.0000 H   0  0  0  0  0  0  0  0  0  0  0  0
    9.4440   -0.7483    0.0000 H   0  0  0  0  0  0  0  0  0  0  0  0
    8.8284   -0.1920    0.0000 H   0  0  0  0  0  0  0  0  0  0  0  0
    9.1450    0.4871    0.0000 H   0  0  0  0  0  0  0  0  0  0  0  0
    6.7175    1.8942    0.0000 H   0  0  0  0  0  0  0  0  0  0  0  0
    9.9575    1.8886    0.0000 H   0  0  0  0  0  0  0  0  0  0  0  0
    7.5299    3.2958    0.0000 H   0  0  0  0  0  0  0  0  0  0  0  0
    8.2220    4.4897    0.0000 H   0  0  0  0  0  0  0  0  0  0  0  0
   10.6495    3.0825    0.0000 H   0  0  0  0  0  0  0  0  0  0  0  0
    9.0344    5.8913    0.0000 H   0  0  0  0  0  0  0  0  0  0  0  0
   11.4620    4.4841    0.0000 H   0  0  0  0  0  0  0  0  0  0  0  0
  1 37  1  0  0  0  0
  2 15  2  0  0  0  0
  3 16  2  0  0  0  0
  4 19  2  0  0  0  0
  5 25  2  0  0  0  0
  6  9  1  0  0  0  0
  6 13  1  0  0  0  0
  6 19  1  0  0  0  0
  7 10  1  0  0  0  0
  7 15  1  0  0  0  0
  7 16  1  0  0  0  0
  8 21  1  0  0  0  0
  8 24  1  0  0  0  0
  8 25  1  0  0  0  0
  9 10  1  0  0  0  0
  9 11  1  0  0  0  0
  9 38  1  6  0  0  0
 10 12  1  0  0  0  0
 10 39  1  1  0  0  0
 11 15  1  0  0  0  0
 11 20  1  1  0  0  0
 11 40  1  0  0  0  0
 12 13  1  0  0  0  0
 12 41  1  0  0  0  0
 12 42  1  0  0  0  0
 13 43  1  0  0  0  0
 13 44  1  0  0  0  0
 14 16  1  0  0  0  0
 14 17  1  0  0  0  0
 14 18  1  0  0  0  0
 14 45  1  0  0  0  0
 17 18  1  0  0  0  0
 17 46  1  0  0  0  0
 17 47  1  0  0  0  0
 18 48  1  0  0  0  0
 18 49  1  0  0  0  0
 21 19  1  1  0  0  0
 20 50  1  0  0  0  0
 20 51  1  0  0  0  0
 20 52  1  0  0  0  0
 21 22  1  0  0  0  0
 21 53  1  0  0  0  0
 22 23  1  0  0  0  0
 22 54  1  0  0  0  0
 22 55  1  0  0  0  0
 23 24  1  0  0  0  0
 23 56  1  0  0  0  0
 23 57  1  0  0  0  0
 24 58  1  0  0  0  0
 24 59  1  0  0  0  0
 25 26  1  0  0  0  0
 26 27  2  0  0  0  0
 26 28  1  0  0  0  0
 27 29  1  0  0  0  0
 27 60  1  0  0  0  0
 28 30  2  0  0  0  0
 28 61  1  0  0  0  0
 29 31  2  0  0  0  0
 29 62  1  0  0  0  0
 30 31  1  0  0  0  0
 30 63  1  0  0  0  0
 31 32  1  0  0  0  0
 32 33  2  0  0  0  0
 32 34  1  0  0  0  0
 33 35  1  0  0  0  0
 33 64  1  0  0  0  0
 34 36  2  0  0  0  0
 34 65  1  0  0  0  0
 35 37  2  0  0  0  0
 35 66  1  0  0  0  0
 36 37  1  0  0  0  0
 36 67  1  0  0  0  0
M  END
> <PUBCHEM_COMPOUND_CID>
511103
> <PUBCHEM_COMPOUND_CANONICALIZED>
1
> <PUBCHEM_CACTVS_COMPLEXITY>
937
> <PUBCHEM_CACTVS_HBOND_ACCEPTOR>
4
> <PUBCHEM_CACTVS_HBOND_DONOR>
0
> <PUBCHEM_CACTVS_ROTATABLE_BOND>
4
> <PUBCHEM_CACTVS_SUBSKEYS>
AAADceB7OAAEAAAAAAAAAAAAGAAAAWLFgAAwYAAAAAAWAAABQAAAHgIAAAAADSrBmCQyAIMAAACIAiFSEACCAAAkBQAIiAGIBsgIYDqB1zGUIQhghiCIiYccicCOxAAAAAAAAACIAAAAAAAAAAAAAAAAAA==
> <PUBCHEM_IUPAC_OPENEYE_NAME>
(3aS,6S,6aR)-1-[(2S)-1-[4-(4-chlorophenyl)benzoyl]pyrrolidine-2-carbonyl]-4-(cyclopropanecarbonyl)-6-methyl-3,3a,6,6a-tetrahydro-2H-pyrrolo[3,2-b]pyrrol-5-one
> <PUBCHEM_IUPAC_CAS_NAME>
(3aS,6S,6aR)-1-[[(2S)-1-[[4-(4-chlorophenyl)phenyl]-oxomethyl]-2-pyrrolidinyl]-oxomethyl]-4-[cyclopropyl(oxo)methyl]-6-methyl-3,3a,6,6a-tetrahydro-2H-pyrrolo[3,2-b]pyrrol-5-one
> <PUBCHEM_IUPAC_NAME_MARKUP>
(3<I>a</I><I>S</I>,6<I>S</I>,6<I>a</I><I>R</I>)-1-[(2<I>S</I>)-1-[4-(4-chlorophenyl)benzoyl]pyrrolidine-2-carbonyl]-4-(cyclopropanecarbonyl)-6-methyl-3,3<I>a</I>,6,6<I>a</I>-tetrahydro-2<I>H</I>-pyrrolo[3,2-b]pyrrol-5-one
> <PUBCHEM_IUPAC_NAME>
(3aS,6S,6aR)-1-[(2S)-1-[4-(4-chlorophenyl)benzoyl]pyrrolidine-2-carbonyl]-4-(cyclopropanecarbonyl)-6-methyl-3,3a,6,6a-tetrahydro-2H-pyrrolo[3,2-b]pyrrol-5-one
> <PUBCHEM_IUPAC_SYSTEMATIC_NAME>
(3aS,6S,6aR)-1-[(2S)-1-[4-(4-chlorophenyl)phenyl]carbonylpyrrolidin-2-yl]carbonyl-4-cyclopropylcarbonyl-6-methyl-3,3a,6,6a-tetrahydro-2H-pyrrolo[3,2-b]pyrrol-5-one
> <PUBCHEM_IUPAC_TRADITIONAL_NAME>
(3aS,6S,6aR)-1-[(2S)-1-[4-(4-chlorophenyl)benzoyl]prolyl]-4-(cyclopropanecarbonyl)-6-methyl-3,3a,6,6a-tetrahydro-2H-pyrrolo[3,2-b]pyrrol-5-one
> <PUBCHEM_IUPAC_INCHI>
InChI=1S/C29H30ClN3O4/c1-17-25-23(33(26(17)34)28(36)21-8-9-21)14-16-32(25)29(37)24-3-2-15-31(24)27(35)20-6-4-18(5-7-20)19-10-12-22(30)13-11-19/h4-7,10-13,17,21,23-25H,2-3,8-9,14-16H2,1H3/t17-,23-,24-,25+/m0/s1
> <PUBCHEM_IUPAC_INCHIKEY>
NDXXZYRRPKDQCK-YZEFDVQJSA-N
> <PUBCHEM_XLOGP3_AA>
4
> <PUBCHEM_EXACT_MASS>
519.1924841
> <PUBCHEM_MOLECULAR_FORMULA>
C29H30ClN3O4
> <PUBCHEM_MOLECULAR_WEIGHT>
520.0
> <PUBCHEM_OPENEYE_CAN_SMILES>
CC1C2C(CCN2C(=O)C3CCCN3C(=O)C4=CC=C(C=C4)C5=CC=C(C=C5)Cl)N(C1=O)C(=O)C6CC6
> <PUBCHEM_OPENEYE_ISO_SMILES>
C[C@H]1[C@@H]2[C@H](CCN2C(=O)[C@@H]3CCCN3C(=O)C4=CC=C(C=C4)C5=CC=C(C=C5)Cl)N(C1=O)C(=O)C6CC6
> <PUBCHEM_CACTVS_TPSA>
78
> <PUBCHEM_MONOISOTOPIC_WEIGHT>
519.1924841
> <PUBCHEM_TOTAL_CHARGE>
0
> <PUBCHEM_HEAVY_ATOM_COUNT>
37
> <PUBCHEM_ATOM_DEF_STEREO_COUNT>
4
> <PUBCHEM_ATOM_UDEF_STEREO_COUNT>
0
> <PUBCHEM_BOND_DEF_STEREO_COUNT>
0
> <PUBCHEM_BOND_UDEF_STEREO_COUNT>
0
> <PUBCHEM_ISOTOPIC_ATOM_COUNT>
0
> <PUBCHEM_COMPONENT_COUNT>
1
> <PUBCHEM_CACTVS_TAUTO_COUNT>
-1
> <PUBCHEM_COORDINATE_TYPE>
1
5
255
> <PUBCHEM_BONDANNOTATIONS>
10  39  5
11  20  5
21  19  5
26  27  8
26  28  8
27  29  8
28  30  8
29  31  8
30  31  8
32  33  8
32  34  8
33  35  8
34  36  8
35  37  8
36  37  8
9  38  6
$$$$
