511104
  -OEChem-10302200282D
 77 82  0     1  0  0  0  0  0999 V2000
    2.6504   -4.8796    0.0000 O   0  0  0  0  0  0  0  0  0  0  0  0
    4.5983   -7.3828    0.0000 O   0  0  0  0  0  0  0  0  0  0  0  0
    5.7783   -2.3800    0.0000 O   0  0  0  0  0  0  0  0  0  0  0  0
    6.3345   -1.1366    0.0000 O   0  0  0  0  0  0  0  0  0  0  0  0
   10.8450    4.9178    0.0000 O   0  0  0  0  0  0  0  0  0  0  0  0
    6.1355   -4.0748    0.0000 N   0  0  0  0  0  0  0  0  0  0  0  0
    4.2382   -5.6886    0.0000 N   0  0  0  0  0  0  0  0  0  0  0  0
    7.8330   -2.0053    0.0000 N   0  0  0  0  0  0  0  0  0  0  0  0
    5.1893   -4.3796    0.0000 C   0  0  1  0  0  0  0  0  0  0  0  0
    5.1893   -5.3796    0.0000 C   0  0  2  0  0  0  0  0  0  0  0  0
    4.2382   -4.0706    0.0000 C   0  0  1  0  0  0  0  0  0  0  0  0
    6.1355   -5.6843    0.0000 C   0  0  0  0  0  0  0  0  0  0  0  0
    6.7191   -4.8796    0.0000 C   0  0  0  0  0  0  0  0  0  0  0  0
    2.9511   -6.8476    0.0000 C   0  0  0  0  0  0  0  0  0  0  0  0
    3.6504   -4.8796    0.0000 C   0  0  0  0  0  0  0  0  0  0  0  0
    3.9292   -6.6396    0.0000 C   0  0  0  0  0  0  0  0  0  0  0  0
    2.0000   -6.5385    0.0000 C   0  0  0  0  0  0  0  0  0  0  0  0
    2.2079   -7.5167    0.0000 C   0  0  0  0  0  0  0  0  0  0  0  0
    6.4462   -3.1243    0.0000 C   0  0  0  0  0  0  0  0  0  0  0  0
    3.9292   -3.1195    0.0000 C   0  0  0  0  0  0  0  0  0  0  0  0
    7.4247   -2.9181    0.0000 C   0  0  2  0  0  0  0  0  0  0  0  0
    8.1666   -3.5885    0.0000 C   0  0  0  0  0  0  0  0  0  0  0  0
    9.0335   -3.0900    0.0000 C   0  0  0  0  0  0  0  0  0  0  0  0
    8.8273   -2.1115    0.0000 C   0  0  0  0  0  0  0  0  0  0  0  0
    7.3345   -1.1384    0.0000 C   0  0  0  0  0  0  0  0  0  0  0  0
    7.8360   -0.2732    0.0000 C   0  0  0  0  0  0  0  0  0  0  0  0
    8.8360   -0.2749    0.0000 C   0  0  0  0  0  0  0  0  0  0  0  0
    7.3375    0.5937    0.0000 C   0  0  0  0  0  0  0  0  0  0  0  0
    9.3375    0.5902    0.0000 C   0  0  0  0  0  0  0  0  0  0  0  0
    7.8390    1.4588    0.0000 C   0  0  0  0  0  0  0  0  0  0  0  0
    8.8390    1.4571    0.0000 C   0  0  0  0  0  0  0  0  0  0  0  0
    9.3405    2.3223    0.0000 C   0  0  0  0  0  0  0  0  0  0  0  0
    8.8420    3.1892    0.0000 C   0  0  0  0  0  0  0  0  0  0  0  0
   10.3405    2.3205    0.0000 C   0  0  0  0  0  0  0  0  0  0  0  0
    9.3435    4.0543    0.0000 C   0  0  0  0  0  0  0  0  0  0  0  0
   10.8420    3.1857    0.0000 C   0  0  0  0  0  0  0  0  0  0  0  0
   10.3435    4.0526    0.0000 C   0  0  0  0  0  0  0  0  0  0  0  0
   10.3465    5.7846    0.0000 C   0  0  0  0  0  0  0  0  0  0  0  0
   10.8480    6.6498    0.0000 C   0  0  0  0  0  0  0  0  0  0  0  0
   10.3495    7.5167    0.0000 C   0  0  0  0  0  0  0  0  0  0  0  0
    5.1904   -3.5296    0.0000 H   0  0  0  0  0  0  0  0  0  0  0  0
    5.1904   -6.2296    0.0000 H   0  0  0  0  0  0  0  0  0  0  0  0
    3.6258   -3.9736    0.0000 H   0  0  0  0  0  0  0  0  0  0  0  0
    5.8845   -6.2512    0.0000 H   0  0  0  0  0  0  0  0  0  0  0  0
    6.6729   -5.9935    0.0000 H   0  0  0  0  0  0  0  0  0  0  0  0
    7.1800   -5.2943    0.0000 H   0  0  0  0  0  0  0  0  0  0  0  0
    7.1800   -4.4648    0.0000 H   0  0  0  0  0  0  0  0  0  0  0  0
    3.2325   -7.4000    0.0000 H   0  0  0  0  0  0  0  0  0  0  0  0
    2.0863   -5.9246    0.0000 H   0  0  0  0  0  0  0  0  0  0  0  0
    1.3804   -6.5602    0.0000 H   0  0  0  0  0  0  0  0  0  0  0  0
    1.6331   -7.7489    0.0000 H   0  0  0  0  0  0  0  0  0  0  0  0
    2.5365   -8.0425    0.0000 H   0  0  0  0  0  0  0  0  0  0  0  0
    4.5189   -2.9279    0.0000 H   0  0  0  0  0  0  0  0  0  0  0  0
    3.7376   -2.5298    0.0000 H   0  0  0  0  0  0  0  0  0  0  0  0
    3.3396   -3.3111    0.0000 H   0  0  0  0  0  0  0  0  0  0  0  0
    7.0353   -2.4356    0.0000 H   0  0  0  0  0  0  0  0  0  0  0  0
    7.7052   -4.0026    0.0000 H   0  0  0  0  0  0  0  0  0  0  0  0
    8.5302   -4.0907    0.0000 H   0  0  0  0  0  0  0  0  0  0  0  0
    9.2847   -3.6568    0.0000 H   0  0  0  0  0  0  0  0  0  0  0  0
    9.6235   -2.8994    0.0000 H   0  0  0  0  0  0  0  0  0  0  0  0
    9.4440   -2.0478    0.0000 H   0  0  0  0  0  0  0  0  0  0  0  0
    8.8284   -1.4915    0.0000 H   0  0  0  0  0  0  0  0  0  0  0  0
    9.1450   -0.8124    0.0000 H   0  0  0  0  0  0  0  0  0  0  0  0
    6.7175    0.5948    0.0000 H   0  0  0  0  0  0  0  0  0  0  0  0
    9.9575    0.5891    0.0000 H   0  0  0  0  0  0  0  0  0  0  0  0
    7.5299    1.9963    0.0000 H   0  0  0  0  0  0  0  0  0  0  0  0
    8.2220    3.1902    0.0000 H   0  0  0  0  0  0  0  0  0  0  0  0
   10.6495    1.7831    0.0000 H   0  0  0  0  0  0  0  0  0  0  0  0
    9.0344    4.5918    0.0000 H   0  0  0  0  0  0  0  0  0  0  0  0
   11.4620    3.1846    0.0000 H   0  0  0  0  0  0  0  0  0  0  0  0
    9.8722    6.1840    0.0000 H   0  0  0  0  0  0  0  0  0  0  0  0
    9.8708    5.3869    0.0000 H   0  0  0  0  0  0  0  0  0  0  0  0
   11.3222    6.2504    0.0000 H   0  0  0  0  0  0  0  0  0  0  0  0
   11.3236    7.0475    0.0000 H   0  0  0  0  0  0  0  0  0  0  0  0
   10.8869    7.8258    0.0000 H   0  0  0  0  0  0  0  0  0  0  0  0
   10.0404    8.0542    0.0000 H   0  0  0  0  0  0  0  0  0  0  0  0
    9.8120    7.2076    0.0000 H   0  0  0  0  0  0  0  0  0  0  0  0
  1 15  2  0  0  0  0
  2 16  2  0  0  0  0
  3 19  2  0  0  0  0
  4 25  2  0  0  0  0
  5 37  1  0  0  0  0
  5 38  1  0  0  0  0
  6  9  1  0  0  0  0
  6 13  1  0  0  0  0
  6 19  1  0  0  0  0
  7 10  1  0  0  0  0
  7 15  1  0  0  0  0
  7 16  1  0  0  0  0
  8 21  1  0  0  0  0
  8 24  1  0  0  0  0
  8 25  1  0  0  0  0
  9 10  1  0  0  0  0
  9 11  1  0  0  0  0
  9 41  1  6  0  0  0
 10 12  1  0  0  0  0
 10 42  1  1  0  0  0
 11 15  1  0  0  0  0
 11 20  1  1  0  0  0
 11 43  1  0  0  0  0
 12 13  1  0  0  0  0
 12 44  1  0  0  0  0
 12 45  1  0  0  0  0
 13 46  1  0  0  0  0
 13 47  1  0  0  0  0
 14 16  1  0  0  0  0
 14 17  1  0  0  0  0
 14 18  1  0  0  0  0
 14 48  1  0  0  0  0
 17 18  1  0  0  0  0
 17 49  1  0  0  0  0
 17 50  1  0  0  0  0
 18 51  1  0  0  0  0
 18 52  1  0  0  0  0
 21 19  1  1  0  0  0
 20 53  1  0  0  0  0
 20 54  1  0  0  0  0
 20 55  1  0  0  0  0
 21 22  1  0  0  0  0
 21 56  1  0  0  0  0
 22 23  1  0  0  0  0
 22 57  1  0  0  0  0
 22 58  1  0  0  0  0
 23 24  1  0  0  0  0
 23 59  1  0  0  0  0
 23 60  1  0  0  0  0
 24 61  1  0  0  0  0
 24 62  1  0  0  0  0
 25 26  1  0  0  0  0
 26 27  2  0  0  0  0
 26 28  1  0  0  0  0
 27 29  1  0  0  0  0
 27 63  1  0  0  0  0
 28 30  2  0  0  0  0
 28 64  1  0  0  0  0
 29 31  2  0  0  0  0
 29 65  1  0  0  0  0
 30 31  1  0  0  0  0
 30 66  1  0  0  0  0
 31 32  1  0  0  0  0
 32 33  2  0  0  0  0
 32 34  1  0  0  0  0
 33 35  1  0  0  0  0
 33 67  1  0  0  0  0
 34 36  2  0  0  0  0
 34 68  1  0  0  0  0
 35 37  2  0  0  0  0
 35 69  1  0  0  0  0
 36 37  1  0  0  0  0
 36 70  1  0  0  0  0
 38 39  1  0  0  0  0
 38 71  1  0  0  0  0
 38 72  1  0  0  0  0
 39 40  1  0  0  0  0
 39 73  1  0  0  0  0
 39 74  1  0  0  0  0
 40 75  1  0  0  0  0
 40 76  1  0  0  0  0
 40 77  1  0  0  0  0
M  END
> <PUBCHEM_COMPOUND_CID>
511104
> <PUBCHEM_COMPOUND_CANONICALIZED>
1
> <PUBCHEM_CACTVS_COMPLEXITY>
981
> <PUBCHEM_CACTVS_HBOND_ACCEPTOR>
5
> <PUBCHEM_CACTVS_HBOND_DONOR>
0
> <PUBCHEM_CACTVS_ROTATABLE_BOND>
7
> <PUBCHEM_CACTVS_SUBSKEYS>
AAADcfB/OAAAAAAAAAAAAAAAGAAAAWLFgAAwYAAAAAAWAAABQAAAHgAAAAAADSzhmAYyBoMABACIAiFSEACCCAAkIAAIiAGODMgMZjqE9TuWOSjkxjGIqYecyfCO4AAAAAAAAADAAAAAAAAAAAAAAAAAAA==
> <PUBCHEM_IUPAC_OPENEYE_NAME>
(3aS,6S,6aR)-4-(cyclopropanecarbonyl)-6-methyl-1-[(2S)-1-[4-(4-propoxyphenyl)benzoyl]pyrrolidine-2-carbonyl]-3,3a,6,6a-tetrahydro-2H-pyrrolo[3,2-b]pyrrol-5-one
> <PUBCHEM_IUPAC_CAS_NAME>
(3aS,6S,6aR)-4-[cyclopropyl(oxo)methyl]-6-methyl-1-[oxo-[(2S)-1-[oxo-[4-(4-propoxyphenyl)phenyl]methyl]-2-pyrrolidinyl]methyl]-3,3a,6,6a-tetrahydro-2H-pyrrolo[3,2-b]pyrrol-5-one
> <PUBCHEM_IUPAC_NAME_MARKUP>
(3<I>a</I><I>S</I>,6<I>S</I>,6<I>a</I><I>R</I>)-4-(cyclopropanecarbonyl)-6-methyl-1-[(2<I>S</I>)-1-[4-(4-propoxyphenyl)benzoyl]pyrrolidine-2-carbonyl]-3,3<I>a</I>,6,6<I>a</I>-tetrahydro-2<I>H</I>-pyrrolo[3,2-b]pyrrol-5-one
> <PUBCHEM_IUPAC_NAME>
(3aS,6S,6aR)-4-(cyclopropanecarbonyl)-6-methyl-1-[(2S)-1-[4-(4-propoxyphenyl)benzoyl]pyrrolidine-2-carbonyl]-3,3a,6,6a-tetrahydro-2H-pyrrolo[3,2-b]pyrrol-5-one
> <PUBCHEM_IUPAC_SYSTEMATIC_NAME>
(3aS,6S,6aR)-4-cyclopropylcarbonyl-6-methyl-1-[(2S)-1-[4-(4-propoxyphenyl)phenyl]carbonylpyrrolidin-2-yl]carbonyl-3,3a,6,6a-tetrahydro-2H-pyrrolo[3,2-b]pyrrol-5-one
> <PUBCHEM_IUPAC_TRADITIONAL_NAME>
(3aS,6S,6aR)-4-(cyclopropanecarbonyl)-6-methyl-1-[(2S)-1-[4-(4-propoxyphenyl)benzoyl]prolyl]-3,3a,6,6a-tetrahydro-2H-pyrrolo[3,2-b]pyrrol-5-one
> <PUBCHEM_IUPAC_INCHI>
InChI=1S/C32H37N3O5/c1-3-19-40-25-14-12-22(13-15-25)21-6-8-23(9-7-21)30(37)33-17-4-5-27(33)32(39)34-18-16-26-28(34)20(2)29(36)35(26)31(38)24-10-11-24/h6-9,12-15,20,24,26-28H,3-5,10-11,16-19H2,1-2H3/t20-,26-,27-,28+/m0/s1
> <PUBCHEM_IUPAC_INCHIKEY>
UAUWCZVUUQCUBV-QGQKXLEHSA-N
> <PUBCHEM_XLOGP3_AA>
4.2
> <PUBCHEM_EXACT_MASS>
543.27332129
> <PUBCHEM_MOLECULAR_FORMULA>
C32H37N3O5
> <PUBCHEM_MOLECULAR_WEIGHT>
543.7
> <PUBCHEM_OPENEYE_CAN_SMILES>
CCCOC1=CC=C(C=C1)C2=CC=C(C=C2)C(=O)N3CCCC3C(=O)N4CCC5C4C(C(=O)N5C(=O)C6CC6)C
> <PUBCHEM_OPENEYE_ISO_SMILES>
CCCOC1=CC=C(C=C1)C2=CC=C(C=C2)C(=O)N3CCC[C@H]3C(=O)N4CC[C@H]5[C@H]4[C@@H](C(=O)N5C(=O)C6CC6)C
> <PUBCHEM_CACTVS_TPSA>
87.2
> <PUBCHEM_MONOISOTOPIC_WEIGHT>
543.27332129
> <PUBCHEM_TOTAL_CHARGE>
0
> <PUBCHEM_HEAVY_ATOM_COUNT>
40
> <PUBCHEM_ATOM_DEF_STEREO_COUNT>
4
> <PUBCHEM_ATOM_UDEF_STEREO_COUNT>
0
> <PUBCHEM_BOND_DEF_STEREO_COUNT>
0
> <PUBCHEM_BOND_UDEF_STEREO_COUNT>
0
> <PUBCHEM_ISOTOPIC_ATOM_COUNT>
0
> <PUBCHEM_COMPONENT_COUNT>
1
> <PUBCHEM_CACTVS_TAUTO_COUNT>
-1
> <PUBCHEM_COORDINATE_TYPE>
1
5
255
> <PUBCHEM_BONDANNOTATIONS>
10  42  5
11  20  5
21  19  5
26  27  8
26  28  8
27  29  8
28  30  8
29  31  8
30  31  8
32  33  8
32  34  8
33  35  8
34  36  8
35  37  8
36  37  8
9  41  6
$$$$
