511185
  -OEChem-10302200282D
 49 50  0     1  0  0  0  0  0999 V2000
    3.3968   -3.8905    0.0000 Cl  0  0  0  0  0  0  0  0  0  0  0  0
    2.0000   -3.6693    0.0000 Cl  0  0  0  0  0  0  0  0  0  0  0  0
    2.2212   -2.2725    0.0000 Cl  0  0  0  0  0  0  0  0  0  0  0  0
    5.3406   -2.3126    0.0000 P   0  0  3  0  0  0  0  0  0  0  0  0
    4.8808    1.1700    0.0000 O   0  0  0  0  0  0  0  0  0  0  0  0
    4.7528   -1.5036    0.0000 O   0  0  0  0  0  0  0  0  0  0  0  0
    4.5316   -2.9004    0.0000 O   0  0  0  0  0  0  0  0  0  0  0  0
    6.1496   -1.7249    0.0000 O   0  0  0  0  0  0  0  0  0  0  0  0
    5.8038    2.7578    0.0000 O   0  0  0  0  0  0  0  0  0  0  0  0
    4.0718    5.7578    0.0000 O   0  0  0  0  0  0  0  0  0  0  0  0
    4.0718    2.7578    0.0000 N   0  0  0  0  0  0  0  0  0  0  0  0
    5.9284   -3.1217    0.0000 N   0  0  0  0  0  0  0  0  0  0  0  0
    4.9378    4.2578    0.0000 N   0  0  0  0  0  0  0  0  0  0  0  0
    4.5718    0.2189    0.0000 C   0  0  2  0  0  0  0  0  0  0  0  0
    4.0718    1.7578    0.0000 C   0  0  1  0  0  0  0  0  0  0  0  0
    5.1596   -0.5901    0.0000 C   0  0  0  0  0  0  0  0  0  0  0  0
    3.5718    0.2189    0.0000 C   0  0  0  0  0  0  0  0  0  0  0  0
    3.2628    1.1700    0.0000 C   0  0  0  0  0  0  0  0  0  0  0  0
    3.2057    3.2578    0.0000 C   0  0  0  0  0  0  0  0  0  0  0  0
    4.9378    3.2578    0.0000 C   0  0  0  0  0  0  0  0  0  0  0  0
    5.5216   -4.0352    0.0000 C   0  0  0  0  0  0  0  0  0  0  0  0
    3.2057    4.2578    0.0000 C   0  0  0  0  0  0  0  0  0  0  0  0
    6.1094   -4.8442    0.0000 C   0  0  0  0  0  0  0  0  0  0  0  0
    4.0718    4.7578    0.0000 C   0  0  0  0  0  0  0  0  0  0  0  0
    2.3397    4.7578    0.0000 C   0  0  0  0  0  0  0  0  0  0  0  0
    3.6180   -2.4937    0.0000 C   0  0  0  0  0  0  0  0  0  0  0  0
    5.7027   -5.7578    0.0000 C   0  0  0  0  0  0  0  0  0  0  0  0
    2.8090   -3.0815    0.0000 C   0  0  0  0  0  0  0  0  0  0  0  0
    5.1841    0.3159    0.0000 H   0  0  0  0  0  0  0  0  0  0  0  0
    3.5193    2.0392    0.0000 H   0  0  0  0  0  0  0  0  0  0  0  0
    5.6736   -0.9368    0.0000 H   0  0  0  0  0  0  0  0  0  0  0  0
    5.5902   -0.1441    0.0000 H   0  0  0  0  0  0  0  0  0  0  0  0
    3.2073   -0.2827    0.0000 H   0  0  0  0  0  0  0  0  0  0  0  0
    2.6731    1.3616    0.0000 H   0  0  0  0  0  0  0  0  0  0  0  0
    2.6688    2.9478    0.0000 H   0  0  0  0  0  0  0  0  0  0  0  0
    6.5450   -3.0569    0.0000 H   0  0  0  0  0  0  0  0  0  0  0  0
    5.0076   -3.6885    0.0000 H   0  0  0  0  0  0  0  0  0  0  0  0
    5.0910   -4.4812    0.0000 H   0  0  0  0  0  0  0  0  0  0  0  0
    6.6234   -5.1909    0.0000 H   0  0  0  0  0  0  0  0  0  0  0  0
    6.5401   -4.3982    0.0000 H   0  0  0  0  0  0  0  0  0  0  0  0
    5.4747    4.5678    0.0000 H   0  0  0  0  0  0  0  0  0  0  0  0
    2.6497    5.2947    0.0000 H   0  0  0  0  0  0  0  0  0  0  0  0
    1.8028    5.0678    0.0000 H   0  0  0  0  0  0  0  0  0  0  0  0
    2.0297    4.2208    0.0000 H   0  0  0  0  0  0  0  0  0  0  0  0
    3.9647   -1.9797    0.0000 H   0  0  0  0  0  0  0  0  0  0  0  0
    3.1720   -2.0630    0.0000 H   0  0  0  0  0  0  0  0  0  0  0  0
    5.1363   -5.5056    0.0000 H   0  0  0  0  0  0  0  0  0  0  0  0
    5.4505   -6.3242    0.0000 H   0  0  0  0  0  0  0  0  0  0  0  0
    6.2691   -6.0100    0.0000 H   0  0  0  0  0  0  0  0  0  0  0  0
  1 28  1  0  0  0  0
  2 28  1  0  0  0  0
  3 28  1  0  0  0  0
  4  6  1  0  0  0  0
  4  7  1  0  0  0  0
  4  8  2  0  0  0  0
  4 12  1  0  0  0  0
  5 14  1  0  0  0  0
  5 15  1  0  0  0  0
  6 16  1  0  0  0  0
  7 26  1  0  0  0  0
  9 20  2  0  0  0  0
 10 24  2  0  0  0  0
 15 11  1  6  0  0  0
 11 19  1  0  0  0  0
 11 20  1  0  0  0  0
 12 21  1  0  0  0  0
 12 36  1  0  0  0  0
 13 20  1  0  0  0  0
 13 24  1  0  0  0  0
 13 41  1  0  0  0  0
 14 16  1  6  0  0  0
 14 17  1  0  0  0  0
 14 29  1  0  0  0  0
 15 18  1  0  0  0  0
 15 30  1  0  0  0  0
 16 31  1  0  0  0  0
 16 32  1  0  0  0  0
 17 18  2  0  0  0  0
 17 33  1  0  0  0  0
 18 34  1  0  0  0  0
 19 22  2  0  0  0  0
 19 35  1  0  0  0  0
 21 23  1  0  0  0  0
 21 37  1  0  0  0  0
 21 38  1  0  0  0  0
 22 24  1  0  0  0  0
 22 25  1  0  0  0  0
 23 27  1  0  0  0  0
 23 39  1  0  0  0  0
 23 40  1  0  0  0  0
 25 42  1  0  0  0  0
 25 43  1  0  0  0  0
 25 44  1  0  0  0  0
 26 28  1  0  0  0  0
 26 45  1  0  0  0  0
 26 46  1  0  0  0  0
 27 47  1  0  0  0  0
 27 48  1  0  0  0  0
 27 49  1  0  0  0  0
M  END
> <PUBCHEM_COMPOUND_CID>
511185
> <PUBCHEM_COMPOUND_CANONICALIZED>
1
> <PUBCHEM_CACTVS_COMPLEXITY>
712
> <PUBCHEM_CACTVS_HBOND_ACCEPTOR>
7
> <PUBCHEM_CACTVS_HBOND_DONOR>
2
> <PUBCHEM_CACTVS_ROTATABLE_BOND>
9
> <PUBCHEM_CACTVS_SUBSKEYS>
AAADceBzOAIGAAAAAAAAAAAAAAAAAQAAAAAgAAAAAAAAAAAAAAAAHgIQgCAADBbhgIYDAAPABRCIQiFWUICAAAAgAAAICIEIAUiBBAAAIQAOEAAIVyIKIMIAAAAAAAAAAAAAAAAAAAAAAAAAAAAAAAAAAA==
> <PUBCHEM_IUPAC_OPENEYE_NAME>
5-methyl-1-[(2R,5S)-5-[[propylamino(2,2,2-trichloroethoxy)phosphoryl]oxymethyl]-2,5-dihydrofuran-2-yl]pyrimidine-2,4-dione
> <PUBCHEM_IUPAC_CAS_NAME>
5-methyl-1-[(2R,5S)-5-[[propylamino(2,2,2-trichloroethoxy)phosphoryl]oxymethyl]-2,5-dihydrofuran-2-yl]pyrimidine-2,4-dione
> <PUBCHEM_IUPAC_NAME_MARKUP>
5-methyl-1-[(2<I>R</I>,5<I>S</I>)-5-[[propylamino(2,2,2-trichloroethoxy)phosphoryl]oxymethyl]-2,5-dihydrofuran-2-yl]pyrimidine-2,4-dione
> <PUBCHEM_IUPAC_NAME>
5-methyl-1-[(2R,5S)-5-[[propylamino(2,2,2-trichloroethoxy)phosphoryl]oxymethyl]-2,5-dihydrofuran-2-yl]pyrimidine-2,4-dione
> <PUBCHEM_IUPAC_SYSTEMATIC_NAME>
5-methyl-1-[(2R,5S)-5-[[propylamino-[2,2,2-tris(chloranyl)ethoxy]phosphoryl]oxymethyl]-2,5-dihydrofuran-2-yl]pyrimidine-2,4-dione
> <PUBCHEM_IUPAC_TRADITIONAL_NAME>
5-methyl-1-[(2R,5S)-5-[[propylamino(2,2,2-trichloroethoxy)phosphoryl]oxymethyl]-2,5-dihydrofuran-2-yl]pyrimidine-2,4-quinone
> <PUBCHEM_IUPAC_INCHI>
InChI=1S/C15H21Cl3N3O6P/c1-3-6-19-28(24,26-9-15(16,17)18)25-8-11-4-5-12(27-11)21-7-10(2)13(22)20-14(21)23/h4-5,7,11-12H,3,6,8-9H2,1-2H3,(H,19,24)(H,20,22,23)/t11-,12+,28?/m0/s1
> <PUBCHEM_IUPAC_INCHIKEY>
FYCQIPVULRUNPL-YMEPOAJBSA-N
> <PUBCHEM_XLOGP3>
1.6
> <PUBCHEM_EXACT_MASS>
475.023355
> <PUBCHEM_MOLECULAR_FORMULA>
C15H21Cl3N3O6P
> <PUBCHEM_MOLECULAR_WEIGHT>
476.7
> <PUBCHEM_OPENEYE_CAN_SMILES>
CCCNP(=O)(OCC1C=CC(O1)N2C=C(C(=O)NC2=O)C)OCC(Cl)(Cl)Cl
> <PUBCHEM_OPENEYE_ISO_SMILES>
CCCNP(=O)(OC[C@@H]1C=C[C@@H](O1)N2C=C(C(=O)NC2=O)C)OCC(Cl)(Cl)Cl
> <PUBCHEM_CACTVS_TPSA>
106
> <PUBCHEM_MONOISOTOPIC_WEIGHT>
475.023355
> <PUBCHEM_TOTAL_CHARGE>
0
> <PUBCHEM_HEAVY_ATOM_COUNT>
28
> <PUBCHEM_ATOM_DEF_STEREO_COUNT>
2
> <PUBCHEM_ATOM_UDEF_STEREO_COUNT>
1
> <PUBCHEM_BOND_DEF_STEREO_COUNT>
0
> <PUBCHEM_BOND_UDEF_STEREO_COUNT>
0
> <PUBCHEM_ISOTOPIC_ATOM_COUNT>
0
> <PUBCHEM_COMPONENT_COUNT>
1
> <PUBCHEM_CACTVS_TAUTO_COUNT>
-1
> <PUBCHEM_COORDINATE_TYPE>
1
5
255
> <PUBCHEM_BONDANNOTATIONS>
15  11  6
11  19  8
11  20  8
13  20  8
13  24  8
14  16  6
19  22  8
22  24  8
4  12  3
$$$$
