511118
  -OEChem-10302200282D
 77 82  0     1  0  0  0  0  0999 V2000
    7.2764   -3.0730    0.0000 S   0  0  0  0  0  0  0  0  0  0  0  0
    3.7320   -1.2683    0.0000 S   0  0  0  0  0  0  0  0  0  0  0  0
    2.0000   -1.2683    0.0000 F   0  0  0  0  0  0  0  0  0  0  0  0
    2.8660    0.2318    0.0000 F   0  0  0  0  0  0  0  0  0  0  0  0
    9.1387   -4.0283    0.0000 O   0  0  0  0  0  0  0  0  0  0  0  0
   12.4825   -1.8259    0.0000 O   0  0  0  0  0  0  0  0  0  0  0  0
   13.8369   -1.6812    0.0000 O   0  0  0  0  0  0  0  0  0  0  0  0
    3.2320   -2.1343    0.0000 O   0  0  0  0  0  0  0  0  0  0  0  0
    4.2320   -0.4022    0.0000 O   0  0  0  0  0  0  0  0  0  0  0  0
   10.9810   -0.9625    0.0000 N   0  0  0  0  0  0  0  0  0  0  0  0
    8.8600   -2.2682    0.0000 N   0  0  0  0  0  0  0  0  0  0  0  0
   13.4739    0.0124    0.0000 N   0  0  0  0  0  0  0  0  0  0  0  0
    7.2764   -1.4635    0.0000 N   0  0  0  0  0  0  0  0  0  0  0  0
   15.1221   -0.5200    0.0000 N   0  0  0  0  0  0  0  0  0  0  0  0
   10.3988   -1.7682    0.0000 C   0  0  1  0  0  0  0  0  0  0  0  0
    9.4477   -1.4592    0.0000 C   0  0  2  0  0  0  0  0  0  0  0  0
   10.3988   -2.7682    0.0000 C   0  0  1  0  0  0  0  0  0  0  0  0
    9.4503   -0.4652    0.0000 C   0  0  0  0  0  0  0  0  0  0  0  0
   10.3960   -0.1588    0.0000 C   0  0  0  0  0  0  0  0  0  0  0  0
    9.4477   -3.0773    0.0000 C   0  0  0  0  0  0  0  0  0  0  0  0
   11.9810   -0.9608    0.0000 C   0  0  0  0  0  0  0  0  0  0  0  0
   12.4795   -0.0939    0.0000 C   0  0  2  0  0  0  0  0  0  0  0  0
   11.2078   -3.3560    0.0000 C   0  0  0  0  0  0  0  0  0  0  0  0
    7.8600   -2.2682    0.0000 C   0  0  0  0  0  0  0  0  0  0  0  0
   12.0712    0.8190    0.0000 C   0  0  0  0  0  0  0  0  0  0  0  0
   12.8132    1.4894    0.0000 C   0  0  0  0  0  0  0  0  0  0  0  0
   13.6801    0.9909    0.0000 C   0  0  0  0  0  0  0  0  0  0  0  0
   14.1443   -0.7296    0.0000 C   0  0  0  0  0  0  0  0  0  0  0  0
    6.3301   -1.7682    0.0000 C   0  0  0  0  0  0  0  0  0  0  0  0
    6.3301   -2.7682    0.0000 C   0  0  0  0  0  0  0  0  0  0  0  0
    5.4641   -1.2683    0.0000 C   0  0  0  0  0  0  0  0  0  0  0  0
    5.4641   -3.2682    0.0000 C   0  0  0  0  0  0  0  0  0  0  0  0
    4.5981   -1.7682    0.0000 C   0  0  0  0  0  0  0  0  0  0  0  0
    4.5981   -2.7682    0.0000 C   0  0  0  0  0  0  0  0  0  0  0  0
   15.4294    0.4316    0.0000 C   0  0  0  0  0  0  0  0  0  0  0  0
   14.7590    1.1736    0.0000 C   0  0  0  0  0  0  0  0  0  0  0  0
   16.4072    0.6412    0.0000 C   0  0  0  0  0  0  0  0  0  0  0  0
    2.8660   -0.7682    0.0000 C   0  0  0  0  0  0  0  0  0  0  0  0
   15.0664    2.1251    0.0000 C   0  0  0  0  0  0  0  0  0  0  0  0
   16.7146    1.5928    0.0000 C   0  0  0  0  0  0  0  0  0  0  0  0
   16.0442    2.3348    0.0000 C   0  0  0  0  0  0  0  0  0  0  0  0
   16.3515    3.2863    0.0000 C   0  0  0  0  0  0  0  0  0  0  0  0
   17.3293    3.4959    0.0000 C   0  0  0  0  0  0  0  0  0  0  0  0
   15.6811    4.0283    0.0000 C   0  0  0  0  0  0  0  0  0  0  0  0
   11.2075   -2.0299    0.0000 H   0  0  0  0  0  0  0  0  0  0  0  0
    8.6397   -1.1955    0.0000 H   0  0  0  0  0  0  0  0  0  0  0  0
   10.9512   -2.4868    0.0000 H   0  0  0  0  0  0  0  0  0  0  0  0
    9.3223    0.1415    0.0000 H   0  0  0  0  0  0  0  0  0  0  0  0
    8.8336   -0.5287    0.0000 H   0  0  0  0  0  0  0  0  0  0  0  0
   10.9329    0.1514    0.0000 H   0  0  0  0  0  0  0  0  0  0  0  0
   10.1440    0.4077    0.0000 H   0  0  0  0  0  0  0  0  0  0  0  0
   12.8181   -0.6133    0.0000 H   0  0  0  0  0  0  0  0  0  0  0  0
   10.8434   -3.8576    0.0000 H   0  0  0  0  0  0  0  0  0  0  0  0
   11.7094   -3.7205    0.0000 H   0  0  0  0  0  0  0  0  0  0  0  0
   11.5722   -2.8544    0.0000 H   0  0  0  0  0  0  0  0  0  0  0  0
   11.7059    1.3199    0.0000 H   0  0  0  0  0  0  0  0  0  0  0  0
   11.5348    0.5080    0.0000 H   0  0  0  0  0  0  0  0  0  0  0  0
   13.1767    1.9916    0.0000 H   0  0  0  0  0  0  0  0  0  0  0  0
   12.3517    1.9034    0.0000 H   0  0  0  0  0  0  0  0  0  0  0  0
   14.2701    0.8003    0.0000 H   0  0  0  0  0  0  0  0  0  0  0  0
   13.9313    1.5577    0.0000 H   0  0  0  0  0  0  0  0  0  0  0  0
   15.5377   -0.9801    0.0000 H   0  0  0  0  0  0  0  0  0  0  0  0
    5.4641   -0.6482    0.0000 H   0  0  0  0  0  0  0  0  0  0  0  0
    5.4641   -3.8882    0.0000 H   0  0  0  0  0  0  0  0  0  0  0  0
    4.0611   -3.0782    0.0000 H   0  0  0  0  0  0  0  0  0  0  0  0
   14.1528    1.0436    0.0000 H   0  0  0  0  0  0  0  0  0  0  0  0
   16.8229    0.1811    0.0000 H   0  0  0  0  0  0  0  0  0  0  0  0
    2.8660   -1.3882    0.0000 H   0  0  0  0  0  0  0  0  0  0  0  0
   14.6507    2.5852    0.0000 H   0  0  0  0  0  0  0  0  0  0  0  0
   17.3208    1.7227    0.0000 H   0  0  0  0  0  0  0  0  0  0  0  0
   16.7672    2.8263    0.0000 H   0  0  0  0  0  0  0  0  0  0  0  0
   17.4593    2.8897    0.0000 H   0  0  0  0  0  0  0  0  0  0  0  0
   17.9356    3.6259    0.0000 H   0  0  0  0  0  0  0  0  0  0  0  0
   17.1994    4.1022    0.0000 H   0  0  0  0  0  0  0  0  0  0  0  0
   16.1412    4.4440    0.0000 H   0  0  0  0  0  0  0  0  0  0  0  0
   15.2655    4.4883    0.0000 H   0  0  0  0  0  0  0  0  0  0  0  0
   15.2211    3.6127    0.0000 H   0  0  0  0  0  0  0  0  0  0  0  0
  1 24  1  0  0  0  0
  1 30  1  0  0  0  0
  2  8  2  0  0  0  0
  2  9  2  0  0  0  0
  2 33  1  0  0  0  0
  2 38  1  0  0  0  0
  3 38  1  0  0  0  0
  4 38  1  0  0  0  0
  5 20  2  0  0  0  0
  6 21  2  0  0  0  0
  7 28  2  0  0  0  0
 10 15  1  0  0  0  0
 10 19  1  0  0  0  0
 10 21  1  0  0  0  0
 11 16  1  0  0  0  0
 11 20  1  0  0  0  0
 11 24  1  0  0  0  0
 12 22  1  0  0  0  0
 12 27  1  0  0  0  0
 12 28  1  0  0  0  0
 13 24  2  0  0  0  0
 13 29  1  0  0  0  0
 14 28  1  0  0  0  0
 14 35  1  0  0  0  0
 14 62  1  0  0  0  0
 15 16  1  0  0  0  0
 15 17  1  0  0  0  0
 15 45  1  1  0  0  0
 16 18  1  0  0  0  0
 16 46  1  6  0  0  0
 17 20  1  0  0  0  0
 17 23  1  6  0  0  0
 17 47  1  0  0  0  0
 18 19  1  0  0  0  0
 18 48  1  0  0  0  0
 18 49  1  0  0  0  0
 19 50  1  0  0  0  0
 19 51  1  0  0  0  0
 22 21  1  6  0  0  0
 22 25  1  0  0  0  0
 22 52  1  0  0  0  0
 23 53  1  0  0  0  0
 23 54  1  0  0  0  0
 23 55  1  0  0  0  0
 25 26  1  0  0  0  0
 25 56  1  0  0  0  0
 25 57  1  0  0  0  0
 26 27  1  0  0  0  0
 26 58  1  0  0  0  0
 26 59  1  0  0  0  0
 27 60  1  0  0  0  0
 27 61  1  0  0  0  0
 29 30  2  0  0  0  0
 29 31  1  0  0  0  0
 30 32  1  0  0  0  0
 31 33  2  0  0  0  0
 31 63  1  0  0  0  0
 32 34  2  0  0  0  0
 32 64  1  0  0  0  0
 33 34  1  0  0  0  0
 34 65  1  0  0  0  0
 35 36  2  0  0  0  0
 35 37  1  0  0  0  0
 36 39  1  0  0  0  0
 36 66  1  0  0  0  0
 37 40  2  0  0  0  0
 37 67  1  0  0  0  0
 38 68  1  0  0  0  0
 39 41  2  0  0  0  0
 39 69  1  0  0  0  0
 40 41  1  0  0  0  0
 40 70  1  0  0  0  0
 41 42  1  0  0  0  0
 42 43  1  0  0  0  0
 42 44  1  0  0  0  0
 42 71  1  0  0  0  0
 43 72  1  0  0  0  0
 43 73  1  0  0  0  0
 43 74  1  0  0  0  0
 44 75  1  0  0  0  0
 44 76  1  0  0  0  0
 44 77  1  0  0  0  0
M  END
> <PUBCHEM_COMPOUND_CID>
511118
> <PUBCHEM_COMPOUND_CANONICALIZED>
1
> <PUBCHEM_CACTVS_COMPLEXITY>
1230
> <PUBCHEM_CACTVS_HBOND_ACCEPTOR>
9
> <PUBCHEM_CACTVS_HBOND_DONOR>
1
> <PUBCHEM_CACTVS_ROTATABLE_BOND>
6
> <PUBCHEM_CACTVS_SUBSKEYS>
AAADcfB7uYBgAAAAAAAAAAAAAAAAAWLFiwAwYAAAAAAWAFgB9AAAHwQQAAAADSjB3hSz0bPIEAqsAyVydHDD8KlhCjhJmD24ZJiIYLrg2bGUIAxolwLIyCccicAOiAgAACAAAQAQEAAAQAACAAAAAAAAAA==
> <PUBCHEM_IUPAC_OPENEYE_NAME>
(2S)-2-[(3aS,6S,6aR)-4-[5-(difluoromethylsulfonyl)-1,3-benzothiazol-2-yl]-6-methyl-5-oxo-3,3a,6,6a-tetrahydro-2H-pyrrolo[3,2-b]pyrrole-1-carbonyl]-N-(4-isopropylphenyl)pyrrolidine-1-carboxamide
> <PUBCHEM_IUPAC_CAS_NAME>
(2S)-2-[[(3aS,6S,6aR)-4-[5-(difluoromethylsulfonyl)-1,3-benzothiazol-2-yl]-6-methyl-5-oxo-3,3a,6,6a-tetrahydro-2H-pyrrolo[3,2-b]pyrrol-1-yl]-oxomethyl]-N-(4-propan-2-ylphenyl)-1-pyrrolidinecarboxamide
> <PUBCHEM_IUPAC_NAME_MARKUP>
(2<I>S</I>)-2-[(3<I>a</I><I>S</I>,6<I>S</I>,6<I>a</I><I>R</I>)-4-[5-(difluoromethylsulfonyl)-1,3-benzothiazol-2-yl]-6-methyl-5-oxo-3,3<I>a</I>,6,6<I>a</I>-tetrahydro-2<I>H</I>-pyrrolo[3,2-b]pyrrole-1-carbonyl]-<I>N</I>-(4-propan-2-ylphenyl)pyrrolidine-1-carboxamide
> <PUBCHEM_IUPAC_NAME>
(2S)-2-[(3aS,6S,6aR)-4-[5-(difluoromethylsulfonyl)-1,3-benzothiazol-2-yl]-6-methyl-5-oxo-3,3a,6,6a-tetrahydro-2H-pyrrolo[3,2-b]pyrrole-1-carbonyl]-N-(4-propan-2-ylphenyl)pyrrolidine-1-carboxamide
> <PUBCHEM_IUPAC_SYSTEMATIC_NAME>
(2S)-2-[[(3aS,6S,6aR)-4-[5-[bis(fluoranyl)methylsulfonyl]-1,3-benzothiazol-2-yl]-6-methyl-5-oxidanylidene-3,3a,6,6a-tetrahydro-2H-pyrrolo[3,2-b]pyrrol-1-yl]carbonyl]-N-(4-propan-2-ylphenyl)pyrrolidine-1-carboxamide
> <PUBCHEM_IUPAC_TRADITIONAL_NAME>
(2S)-2-[(3aS,6S,6aR)-4-[5-(difluoromethylsulfonyl)-1,3-benzothiazol-2-yl]-5-keto-6-methyl-3,3a,6,6a-tetrahydro-2H-pyrrolo[3,2-b]pyrrole-1-carbonyl]-N-p-cumenyl-pyrrolidine-1-carboxamide
> <PUBCHEM_IUPAC_INCHI>
InChI=1S/C30H33F2N5O5S2/c1-16(2)18-6-8-19(9-7-18)33-29(40)35-13-4-5-23(35)27(39)36-14-12-22-25(36)17(3)26(38)37(22)30-34-21-15-20(10-11-24(21)43-30)44(41,42)28(31)32/h6-11,15-17,22-23,25,28H,4-5,12-14H2,1-3H3,(H,33,40)/t17-,22-,23-,25+/m0/s1
> <PUBCHEM_IUPAC_INCHIKEY>
RHEUOECXBAKPTK-XVYJZYCRSA-N
> <PUBCHEM_XLOGP3_AA>
4.9
> <PUBCHEM_EXACT_MASS>
645.18911784
> <PUBCHEM_MOLECULAR_FORMULA>
C30H33F2N5O5S2
> <PUBCHEM_MOLECULAR_WEIGHT>
645.7
> <PUBCHEM_OPENEYE_CAN_SMILES>
CC1C2C(CCN2C(=O)C3CCCN3C(=O)NC4=CC=C(C=C4)C(C)C)N(C1=O)C5=NC6=C(S5)C=CC(=C6)S(=O)(=O)C(F)F
> <PUBCHEM_OPENEYE_ISO_SMILES>
C[C@H]1[C@@H]2[C@H](CCN2C(=O)[C@@H]3CCCN3C(=O)NC4=CC=C(C=C4)C(C)C)N(C1=O)C5=NC6=C(S5)C=CC(=C6)S(=O)(=O)C(F)F
> <PUBCHEM_CACTVS_TPSA>
157
> <PUBCHEM_MONOISOTOPIC_WEIGHT>
645.18911784
> <PUBCHEM_TOTAL_CHARGE>
0
> <PUBCHEM_HEAVY_ATOM_COUNT>
44
> <PUBCHEM_ATOM_DEF_STEREO_COUNT>
4
> <PUBCHEM_ATOM_UDEF_STEREO_COUNT>
0
> <PUBCHEM_BOND_DEF_STEREO_COUNT>
0
> <PUBCHEM_BOND_UDEF_STEREO_COUNT>
0
> <PUBCHEM_ISOTOPIC_ATOM_COUNT>
0
> <PUBCHEM_COMPONENT_COUNT>
1
> <PUBCHEM_CACTVS_TAUTO_COUNT>
-1
> <PUBCHEM_COORDINATE_TYPE>
1
5
255
> <PUBCHEM_BONDANNOTATIONS>
1  24  8
1  30  8
13  24  8
13  29  8
15  45  5
16  46  6
17  23  6
22  21  6
29  30  8
29  31  8
30  32  8
31  33  8
32  34  8
33  34  8
35  36  8
35  37  8
36  39  8
37  40  8
39  41  8
40  41  8
$$$$
