511135
  -OEChem-10302200282D
 47 50  0     1  0  0  0  0  0999 V2000
    2.9340   -2.2457    0.0000 Br  0  0  0  0  0  0  0  0  0  0  0  0
    2.9340   -4.2457    0.0000 Br  0  0  0  0  0  0  0  0  0  0  0  0
   11.9588    0.6726    0.0000 Br  0  0  0  0  0  0  0  0  0  0  0  0
    6.3981   -1.2457    0.0000 O   0  0  0  0  0  0  0  0  0  0  0  0
    7.2997    3.6793    0.0000 O   0  0  0  0  0  0  0  0  0  0  0  0
    4.6660   -1.2457    0.0000 N   0  0  0  0  0  0  0  0  0  0  0  0
    7.9808    1.0907    0.0000 N   0  0  0  0  0  0  0  0  0  0  0  0
    4.6660    0.7543    0.0000 N   0  0  0  0  0  0  0  0  0  0  0  0
    7.3116    0.3476    0.0000 N   0  0  0  0  0  0  0  0  0  0  0  0
    4.6660   -2.2457    0.0000 C   0  0  0  0  0  0  0  0  0  0  0  0
    3.8000   -0.7457    0.0000 C   0  0  0  0  0  0  0  0  0  0  0  0
    5.5321    0.2543    0.0000 C   0  0  0  0  0  0  0  0  0  0  0  0
    5.5321   -0.7457    0.0000 C   0  0  0  0  0  0  0  0  0  0  0  0
    3.8000   -2.7457    0.0000 C   0  0  3  0  0  0  0  0  0  0  0  0
    3.8000    0.2543    0.0000 C   0  0  0  0  0  0  0  0  0  0  0  0
    6.3981    0.7543    0.0000 C   0  0  0  0  0  0  0  0  0  0  0  0
    7.4808    1.9567    0.0000 C   0  0  0  0  0  0  0  0  0  0  0  0
    6.5026    1.7488    0.0000 C   0  0  0  0  0  0  0  0  0  0  0  0
    2.9061   -1.2804    0.0000 C   0  0  0  0  0  0  0  0  0  0  0  0
    2.9061    0.7890    0.0000 C   0  0  0  0  0  0  0  0  0  0  0  0
    3.8000   -3.7457    0.0000 C   0  0  0  0  0  0  0  0  0  0  0  0
    8.9753    0.9862    0.0000 C   0  0  0  0  0  0  0  0  0  0  0  0
    7.8875    2.8703    0.0000 C   0  0  0  0  0  0  0  0  0  0  0  0
    2.0000   -0.7665    0.0000 C   0  0  0  0  0  0  0  0  0  0  0  0
    2.0000    0.2751    0.0000 C   0  0  0  0  0  0  0  0  0  0  0  0
    9.5631    1.7952    0.0000 C   0  0  0  0  0  0  0  0  0  0  0  0
    9.3820    0.0726    0.0000 C   0  0  0  0  0  0  0  0  0  0  0  0
   10.5576    1.6907    0.0000 C   0  0  0  0  0  0  0  0  0  0  0  0
   10.3765   -0.0319    0.0000 C   0  0  0  0  0  0  0  0  0  0  0  0
   10.9643    0.7771    0.0000 C   0  0  0  0  0  0  0  0  0  0  0  0
    4.8781   -2.8283    0.0000 H   0  0  0  0  0  0  0  0  0  0  0  0
    5.2766   -2.1380    0.0000 H   0  0  0  0  0  0  0  0  0  0  0  0
    3.8000   -2.1257    0.0000 H   0  0  0  0  0  0  0  0  0  0  0  0
    6.0419    2.1637    0.0000 H   0  0  0  0  0  0  0  0  0  0  0  0
    2.9132   -1.9003    0.0000 H   0  0  0  0  0  0  0  0  0  0  0  0
    2.9132    1.4089    0.0000 H   0  0  0  0  0  0  0  0  0  0  0  0
    4.0121   -4.3283    0.0000 H   0  0  0  0  0  0  0  0  0  0  0  0
    4.4106   -3.6380    0.0000 H   0  0  0  0  0  0  0  0  0  0  0  0
    8.4015    2.5236    0.0000 H   0  0  0  0  0  0  0  0  0  0  0  0
    8.3182    3.3163    0.0000 H   0  0  0  0  0  0  0  0  0  0  0  0
    1.4643   -1.0786    0.0000 H   0  0  0  0  0  0  0  0  0  0  0  0
    1.4643    0.5872    0.0000 H   0  0  0  0  0  0  0  0  0  0  0  0
    9.3109    2.3616    0.0000 H   0  0  0  0  0  0  0  0  0  0  0  0
    9.0176   -0.4290    0.0000 H   0  0  0  0  0  0  0  0  0  0  0  0
   10.9220    2.1923    0.0000 H   0  0  0  0  0  0  0  0  0  0  0  0
   10.6287   -0.5983    0.0000 H   0  0  0  0  0  0  0  0  0  0  0  0
    7.5519    4.2457    0.0000 H   0  0  0  0  0  0  0  0  0  0  0  0
  1 14  1  0  0  0  0
  2 21  1  0  0  0  0
  3 30  1  0  0  0  0
  4 13  2  0  0  0  0
  5 23  1  0  0  0  0
  5 47  1  0  0  0  0
  6 10  1  0  0  0  0
  6 11  1  0  0  0  0
  6 13  1  0  0  0  0
  7  9  1  0  0  0  0
  7 17  1  0  0  0  0
  7 22  1  0  0  0  0
  8 12  2  0  0  0  0
  8 15  1  0  0  0  0
  9 16  2  0  0  0  0
 10 14  1  0  0  0  0
 10 31  1  0  0  0  0
 10 32  1  0  0  0  0
 11 15  1  0  0  0  0
 11 19  2  0  0  0  0
 12 13  1  0  0  0  0
 12 16  1  0  0  0  0
 14 21  1  0  0  0  0
 14 33  1  0  0  0  0
 15 20  2  0  0  0  0
 16 18  1  0  0  0  0
 17 18  2  0  0  0  0
 17 23  1  0  0  0  0
 18 34  1  0  0  0  0
 19 24  1  0  0  0  0
 19 35  1  0  0  0  0
 20 25  1  0  0  0  0
 20 36  1  0  0  0  0
 21 37  1  0  0  0  0
 21 38  1  0  0  0  0
 22 26  2  0  0  0  0
 22 27  1  0  0  0  0
 23 39  1  0  0  0  0
 23 40  1  0  0  0  0
 24 25  2  0  0  0  0
 24 41  1  0  0  0  0
 25 42  1  0  0  0  0
 26 28  1  0  0  0  0
 26 43  1  0  0  0  0
 27 29  2  0  0  0  0
 27 44  1  0  0  0  0
 28 30  2  0  0  0  0
 28 45  1  0  0  0  0
 29 30  1  0  0  0  0
 29 46  1  0  0  0  0
M  END
> <PUBCHEM_COMPOUND_CID>
511135
> <PUBCHEM_COMPOUND_CANONICALIZED>
1
> <PUBCHEM_CACTVS_COMPLEXITY>
644
> <PUBCHEM_CACTVS_HBOND_ACCEPTOR>
4
> <PUBCHEM_CACTVS_HBOND_DONOR>
1
> <PUBCHEM_CACTVS_ROTATABLE_BOND>
6
> <PUBCHEM_CACTVS_SUBSKEYS>
AAADceB7sAAAGAAAAAAAAAAAAAAAAWAAAAAwYIAAAAAAAACB0AAAHgBICAAB6AjhlgYwwJMIAgCqASVyVASSBCAhAgQYmCE4fLgKdvrA1dGU9AhkzgHY2he4SQAQAAAgAAAAACAAAEAAAAAAQAAAAAAAAA==
> <PUBCHEM_IUPAC_OPENEYE_NAME>
3-[1-(4-bromophenyl)-5-(hydroxymethyl)pyrazol-3-yl]-1-(2,3-dibromopropyl)quinoxalin-2-one
> <PUBCHEM_IUPAC_CAS_NAME>
3-[1-(4-bromophenyl)-5-(hydroxymethyl)-3-pyrazolyl]-1-(2,3-dibromopropyl)-2-quinoxalinone
> <PUBCHEM_IUPAC_NAME_MARKUP>
3-[1-(4-bromophenyl)-5-(hydroxymethyl)pyrazol-3-yl]-1-(2,3-dibromopropyl)quinoxalin-2-one
> <PUBCHEM_IUPAC_NAME>
3-[1-(4-bromophenyl)-5-(hydroxymethyl)pyrazol-3-yl]-1-(2,3-dibromopropyl)quinoxalin-2-one
> <PUBCHEM_IUPAC_SYSTEMATIC_NAME>
1-[2,3-bis(bromanyl)propyl]-3-[1-(4-bromophenyl)-5-(hydroxymethyl)pyrazol-3-yl]quinoxalin-2-one
> <PUBCHEM_IUPAC_TRADITIONAL_NAME>
3-[1-(4-bromophenyl)-5-methylol-pyrazol-3-yl]-1-(2,3-dibromopropyl)quinoxalin-2-one
> <PUBCHEM_IUPAC_INCHI>
InChI=1S/C21H17Br3N4O2/c22-10-14(24)11-27-19-4-2-1-3-17(19)25-20(21(27)30)18-9-16(12-29)28(26-18)15-7-5-13(23)6-8-15/h1-9,14,29H,10-12H2
> <PUBCHEM_IUPAC_INCHIKEY>
XELHNCOFWMKHQA-UHFFFAOYSA-N
> <PUBCHEM_XLOGP3_AA>
4.3
> <PUBCHEM_EXACT_MASS>
595.88811
> <PUBCHEM_MOLECULAR_FORMULA>
C21H17Br3N4O2
> <PUBCHEM_MOLECULAR_WEIGHT>
597.1
> <PUBCHEM_OPENEYE_CAN_SMILES>
C1=CC=C2C(=C1)N=C(C(=O)N2CC(CBr)Br)C3=NN(C(=C3)CO)C4=CC=C(C=C4)Br
> <PUBCHEM_OPENEYE_ISO_SMILES>
C1=CC=C2C(=C1)N=C(C(=O)N2CC(CBr)Br)C3=NN(C(=C3)CO)C4=CC=C(C=C4)Br
> <PUBCHEM_CACTVS_TPSA>
70.7
> <PUBCHEM_MONOISOTOPIC_WEIGHT>
593.89016
> <PUBCHEM_TOTAL_CHARGE>
0
> <PUBCHEM_HEAVY_ATOM_COUNT>
30
> <PUBCHEM_ATOM_DEF_STEREO_COUNT>
0
> <PUBCHEM_ATOM_UDEF_STEREO_COUNT>
1
> <PUBCHEM_BOND_DEF_STEREO_COUNT>
0
> <PUBCHEM_BOND_UDEF_STEREO_COUNT>
0
> <PUBCHEM_ISOTOPIC_ATOM_COUNT>
0
> <PUBCHEM_COMPONENT_COUNT>
1
> <PUBCHEM_CACTVS_TAUTO_COUNT>
-1
> <PUBCHEM_COORDINATE_TYPE>
1
5
255
> <PUBCHEM_BONDANNOTATIONS>
14  1  3
11  15  8
11  19  8
12  13  8
15  20  8
16  18  8
17  18  8
19  24  8
20  25  8
22  26  8
22  27  8
24  25  8
26  28  8
27  29  8
28  30  8
29  30  8
6  11  8
6  13  8
7  17  8
7  9  8
8  12  8
8  15  8
9  16  8
$$$$
