511109
  -OEChem-10302200282D
 71 75  0     1  0  0  0  0  0999 V2000
    2.6264   -1.7913    0.0000 O   0  0  0  0  0  0  0  0  0  0  0  0
    5.7543    0.7082    0.0000 O   0  0  0  0  0  0  0  0  0  0  0  0
    6.3105    1.9516    0.0000 O   0  0  0  0  0  0  0  0  0  0  0  0
    2.0000   -6.6125    0.0000 O   0  5  0  0  0  0  0  0  0  0  0  0
    3.6473   -7.1477    0.0000 O   0  0  0  0  0  0  0  0  0  0  0  0
    6.1115   -0.9866    0.0000 N   0  0  0  0  0  0  0  0  0  0  0  0
    4.2142   -2.6004    0.0000 N   0  0  0  0  0  0  0  0  0  0  0  0
    7.8090    1.0830    0.0000 N   0  0  0  0  0  0  0  0  0  0  0  0
    7.8120    2.8150    0.0000 N   0  0  0  0  0  0  0  0  0  0  0  0
    2.9782   -6.4046    0.0000 N   0  3  0  0  0  0  0  0  0  0  0  0
    5.1653   -1.2913    0.0000 C   0  0  1  0  0  0  0  0  0  0  0  0
    5.1653   -2.2913    0.0000 C   0  0  2  0  0  0  0  0  0  0  0  0
    4.2142   -0.9823    0.0000 C   0  0  1  0  0  0  0  0  0  0  0  0
    6.1115   -2.5961    0.0000 C   0  0  0  0  0  0  0  0  0  0  0  0
    6.6951   -1.7913    0.0000 C   0  0  0  0  0  0  0  0  0  0  0  0
    3.6264   -1.7913    0.0000 C   0  0  0  0  0  0  0  0  0  0  0  0
    6.4222   -0.0361    0.0000 C   0  0  0  0  0  0  0  0  0  0  0  0
    7.4007    0.1701    0.0000 C   0  0  2  0  0  0  0  0  0  0  0  0
    3.9052   -0.0313    0.0000 C   0  0  0  0  0  0  0  0  0  0  0  0
    3.9052   -3.5514    0.0000 C   0  0  0  0  0  0  0  0  0  0  0  0
    8.1426   -0.5003    0.0000 C   0  0  0  0  0  0  0  0  0  0  0  0
    9.0095   -0.0018    0.0000 C   0  0  0  0  0  0  0  0  0  0  0  0
    8.8033    0.9767    0.0000 C   0  0  0  0  0  0  0  0  0  0  0  0
    4.5743   -4.2946    0.0000 C   0  0  0  0  0  0  0  0  0  0  0  0
    2.9270   -3.7593    0.0000 C   0  0  0  0  0  0  0  0  0  0  0  0
    7.3105    1.9499    0.0000 C   0  0  0  0  0  0  0  0  0  0  0  0
    4.2653   -5.2456    0.0000 C   0  0  0  0  0  0  0  0  0  0  0  0
    2.6180   -4.7104    0.0000 C   0  0  0  0  0  0  0  0  0  0  0  0
    3.2872   -5.4535    0.0000 C   0  0  0  0  0  0  0  0  0  0  0  0
    7.3135    3.6819    0.0000 C   0  0  0  0  0  0  0  0  0  0  0  0
    7.8150    4.5471    0.0000 C   0  0  0  0  0  0  0  0  0  0  0  0
    6.3135    3.6836    0.0000 C   0  0  0  0  0  0  0  0  0  0  0  0
    6.3165    5.4157    0.0000 C   0  0  0  0  0  0  0  0  0  0  0  0
    7.3165    5.4140    0.0000 C   0  0  0  0  0  0  0  0  0  0  0  0
    5.8150    4.5505    0.0000 C   0  0  0  0  0  0  0  0  0  0  0  0
    5.8180    6.2826    0.0000 C   0  0  0  0  0  0  0  0  0  0  0  0
    6.3195    7.1477    0.0000 C   0  0  0  0  0  0  0  0  0  0  0  0
    4.8180    6.2843    0.0000 C   0  0  0  0  0  0  0  0  0  0  0  0
    5.1664   -0.4413    0.0000 H   0  0  0  0  0  0  0  0  0  0  0  0
    5.1664   -3.1413    0.0000 H   0  0  0  0  0  0  0  0  0  0  0  0
    4.6526   -0.5439    0.0000 H   0  0  0  0  0  0  0  0  0  0  0  0
    5.8605   -3.1630    0.0000 H   0  0  0  0  0  0  0  0  0  0  0  0
    6.6489   -2.9053    0.0000 H   0  0  0  0  0  0  0  0  0  0  0  0
    7.1560   -2.2061    0.0000 H   0  0  0  0  0  0  0  0  0  0  0  0
    7.1560   -1.3766    0.0000 H   0  0  0  0  0  0  0  0  0  0  0  0
    7.0113    0.6526    0.0000 H   0  0  0  0  0  0  0  0  0  0  0  0
    4.4948    0.1603    0.0000 H   0  0  0  0  0  0  0  0  0  0  0  0
    3.7136    0.5584    0.0000 H   0  0  0  0  0  0  0  0  0  0  0  0
    3.3155   -0.2229    0.0000 H   0  0  0  0  0  0  0  0  0  0  0  0
    7.6812   -0.9144    0.0000 H   0  0  0  0  0  0  0  0  0  0  0  0
    8.5062   -1.0025    0.0000 H   0  0  0  0  0  0  0  0  0  0  0  0
    9.2607   -0.5686    0.0000 H   0  0  0  0  0  0  0  0  0  0  0  0
    9.5995    0.1888    0.0000 H   0  0  0  0  0  0  0  0  0  0  0  0
    9.4200    1.0405    0.0000 H   0  0  0  0  0  0  0  0  0  0  0  0
    8.8044    1.5967    0.0000 H   0  0  0  0  0  0  0  0  0  0  0  0
    5.1808   -4.1657    0.0000 H   0  0  0  0  0  0  0  0  0  0  0  0
    2.5122   -3.2986    0.0000 H   0  0  0  0  0  0  0  0  0  0  0  0
    4.6802   -5.7064    0.0000 H   0  0  0  0  0  0  0  0  0  0  0  0
    2.0116   -4.8393    0.0000 H   0  0  0  0  0  0  0  0  0  0  0  0
    8.4320    2.8139    0.0000 H   0  0  0  0  0  0  0  0  0  0  0  0
    8.4350    4.5460    0.0000 H   0  0  0  0  0  0  0  0  0  0  0  0
    6.0026    3.1472    0.0000 H   0  0  0  0  0  0  0  0  0  0  0  0
    7.6274    5.9504    0.0000 H   0  0  0  0  0  0  0  0  0  0  0  0
    5.1950    4.5516    0.0000 H   0  0  0  0  0  0  0  0  0  0  0  0
    5.5089    6.8200    0.0000 H   0  0  0  0  0  0  0  0  0  0  0  0
    6.8559    6.8368    0.0000 H   0  0  0  0  0  0  0  0  0  0  0  0
    6.6304    7.6841    0.0000 H   0  0  0  0  0  0  0  0  0  0  0  0
    5.7831    7.4587    0.0000 H   0  0  0  0  0  0  0  0  0  0  0  0
    4.8190    6.9043    0.0000 H   0  0  0  0  0  0  0  0  0  0  0  0
    4.1980    6.2854    0.0000 H   0  0  0  0  0  0  0  0  0  0  0  0
    4.8169    5.6643    0.0000 H   0  0  0  0  0  0  0  0  0  0  0  0
  1 16  2  0  0  0  0
  2 17  2  0  0  0  0
  3 26  2  0  0  0  0
  4 10  1  0  0  0  0
  5 10  2  0  0  0  0
  6 11  1  0  0  0  0
  6 15  1  0  0  0  0
  6 17  1  0  0  0  0
  7 12  1  0  0  0  0
  7 16  1  0  0  0  0
  7 20  1  0  0  0  0
  8 18  1  0  0  0  0
  8 23  1  0  0  0  0
  8 26  1  0  0  0  0
  9 26  1  0  0  0  0
  9 30  1  0  0  0  0
  9 60  1  0  0  0  0
 10 29  1  0  0  0  0
 11 12  1  0  0  0  0
 11 13  1  0  0  0  0
 11 39  1  6  0  0  0
 12 14  1  0  0  0  0
 12 40  1  1  0  0  0
 13 16  1  0  0  0  0
 13 19  1  1  0  0  0
 13 41  1  0  0  0  0
 14 15  1  0  0  0  0
 14 42  1  0  0  0  0
 14 43  1  0  0  0  0
 15 44  1  0  0  0  0
 15 45  1  0  0  0  0
 18 17  1  1  0  0  0
 18 21  1  0  0  0  0
 18 46  1  0  0  0  0
 19 47  1  0  0  0  0
 19 48  1  0  0  0  0
 19 49  1  0  0  0  0
 20 24  2  0  0  0  0
 20 25  1  0  0  0  0
 21 22  1  0  0  0  0
 21 50  1  0  0  0  0
 21 51  1  0  0  0  0
 22 23  1  0  0  0  0
 22 52  1  0  0  0  0
 22 53  1  0  0  0  0
 23 54  1  0  0  0  0
 23 55  1  0  0  0  0
 24 27  1  0  0  0  0
 24 56  1  0  0  0  0
 25 28  2  0  0  0  0
 25 57  1  0  0  0  0
 27 29  2  0  0  0  0
 27 58  1  0  0  0  0
 28 29  1  0  0  0  0
 28 59  1  0  0  0  0
 30 31  2  0  0  0  0
 30 32  1  0  0  0  0
 31 34  1  0  0  0  0
 31 61  1  0  0  0  0
 32 35  2  0  0  0  0
 32 62  1  0  0  0  0
 33 34  2  0  0  0  0
 33 35  1  0  0  0  0
 33 36  1  0  0  0  0
 34 63  1  0  0  0  0
 35 64  1  0  0  0  0
 36 37  1  0  0  0  0
 36 38  1  0  0  0  0
 36 65  1  0  0  0  0
 37 66  1  0  0  0  0
 37 67  1  0  0  0  0
 37 68  1  0  0  0  0
 38 69  1  0  0  0  0
 38 70  1  0  0  0  0
 38 71  1  0  0  0  0
M  CHG  2   4  -1  10   1
M  END
> <PUBCHEM_COMPOUND_CID>
511109
> <PUBCHEM_COMPOUND_CANONICALIZED>
1
> <PUBCHEM_CACTVS_COMPLEXITY>
921
> <PUBCHEM_CACTVS_HBOND_ACCEPTOR>
5
> <PUBCHEM_CACTVS_HBOND_DONOR>
1
> <PUBCHEM_CACTVS_ROTATABLE_BOND>
4
> <PUBCHEM_CACTVS_SUBSKEYS>
AAADcfB7uAAAAAAAAAAAAAAAAAAAAWLFgAAwYAAAAAAWAAABQAAAHgAUAAAADSjBmAQzwIPQQACJAiVSUwCCAAAhAgAoiAGIZIqIYDrA0bGUIAholgLIyCccicAOiACAAAAAAAAQAQAAAAAAAAAAAAAAAA==
> <PUBCHEM_IUPAC_OPENEYE_NAME>
(2S)-2-[(3aS,6S,6aR)-6-methyl-4-(4-nitrophenyl)-5-oxo-3,3a,6,6a-tetrahydro-2H-pyrrolo[3,2-b]pyrrole-1-carbonyl]-N-(4-isopropylphenyl)pyrrolidine-1-carboxamide
> <PUBCHEM_IUPAC_CAS_NAME>
(2S)-2-[[(3aS,6S,6aR)-6-methyl-4-(4-nitrophenyl)-5-oxo-3,3a,6,6a-tetrahydro-2H-pyrrolo[3,2-b]pyrrol-1-yl]-oxomethyl]-N-(4-propan-2-ylphenyl)-1-pyrrolidinecarboxamide
> <PUBCHEM_IUPAC_NAME_MARKUP>
(2<I>S</I>)-2-[(3<I>a</I><I>S</I>,6<I>S</I>,6<I>a</I><I>R</I>)-6-methyl-4-(4-nitrophenyl)-5-oxo-3,3<I>a</I>,6,6<I>a</I>-tetrahydro-2<I>H</I>-pyrrolo[3,2-b]pyrrole-1-carbonyl]-<I>N</I>-(4-propan-2-ylphenyl)pyrrolidine-1-carboxamide
> <PUBCHEM_IUPAC_NAME>
(2S)-2-[(3aS,6S,6aR)-6-methyl-4-(4-nitrophenyl)-5-oxo-3,3a,6,6a-tetrahydro-2H-pyrrolo[3,2-b]pyrrole-1-carbonyl]-N-(4-propan-2-ylphenyl)pyrrolidine-1-carboxamide
> <PUBCHEM_IUPAC_SYSTEMATIC_NAME>
(2S)-2-[[(3aS,6S,6aR)-6-methyl-4-(4-nitrophenyl)-5-oxidanylidene-3,3a,6,6a-tetrahydro-2H-pyrrolo[3,2-b]pyrrol-1-yl]carbonyl]-N-(4-propan-2-ylphenyl)pyrrolidine-1-carboxamide
> <PUBCHEM_IUPAC_TRADITIONAL_NAME>
(2S)-2-[(3aS,6S,6aR)-5-keto-6-methyl-4-(4-nitrophenyl)-3,3a,6,6a-tetrahydro-2H-pyrrolo[3,2-b]pyrrole-1-carbonyl]-N-p-cumenyl-pyrrolidine-1-carboxamide
> <PUBCHEM_IUPAC_INCHI>
InChI=1S/C28H33N5O5/c1-17(2)19-6-8-20(9-7-19)29-28(36)30-15-4-5-24(30)27(35)31-16-14-23-25(31)18(3)26(34)32(23)21-10-12-22(13-11-21)33(37)38/h6-13,17-18,23-25H,4-5,14-16H2,1-3H3,(H,29,36)/t18-,23-,24-,25+/m0/s1
> <PUBCHEM_IUPAC_INCHIKEY>
AUSJXMRLUSRLRP-PAWHMVCQSA-N
> <PUBCHEM_XLOGP3_AA>
3.7
> <PUBCHEM_EXACT_MASS>
519.24816917
> <PUBCHEM_MOLECULAR_FORMULA>
C28H33N5O5
> <PUBCHEM_MOLECULAR_WEIGHT>
519.6
> <PUBCHEM_OPENEYE_CAN_SMILES>
CC1C2C(CCN2C(=O)C3CCCN3C(=O)NC4=CC=C(C=C4)C(C)C)N(C1=O)C5=CC=C(C=C5)[N+](=O)[O-]
> <PUBCHEM_OPENEYE_ISO_SMILES>
C[C@H]1[C@@H]2[C@H](CCN2C(=O)[C@@H]3CCCN3C(=O)NC4=CC=C(C=C4)C(C)C)N(C1=O)C5=CC=C(C=C5)[N+](=O)[O-]
> <PUBCHEM_CACTVS_TPSA>
119
> <PUBCHEM_MONOISOTOPIC_WEIGHT>
519.24816917
> <PUBCHEM_TOTAL_CHARGE>
0
> <PUBCHEM_HEAVY_ATOM_COUNT>
38
> <PUBCHEM_ATOM_DEF_STEREO_COUNT>
4
> <PUBCHEM_ATOM_UDEF_STEREO_COUNT>
0
> <PUBCHEM_BOND_DEF_STEREO_COUNT>
0
> <PUBCHEM_BOND_UDEF_STEREO_COUNT>
0
> <PUBCHEM_ISOTOPIC_ATOM_COUNT>
0
> <PUBCHEM_COMPONENT_COUNT>
1
> <PUBCHEM_CACTVS_TAUTO_COUNT>
-1
> <PUBCHEM_COORDINATE_TYPE>
1
5
255
> <PUBCHEM_BONDANNOTATIONS>
11  39  6
12  40  5
13  19  5
18  17  5
20  24  8
20  25  8
24  27  8
25  28  8
27  29  8
28  29  8
30  31  8
30  32  8
31  34  8
32  35  8
33  34  8
33  35  8
$$$$
