511136
  -OEChem-10302200282D
 91 94  0     1  0  0  0  0  0999 V2000
   10.8183    1.4724    0.0000 O   0  0  0  0  0  0  0  0  0  0  0  0
   10.1372   -2.7890    0.0000 O   0  0  0  0  0  0  0  0  0  0  0  0
   11.4993   -2.7890    0.0000 O   0  0  0  0  0  0  0  0  0  0  0  0
    6.7469   -1.5619    0.0000 O   0  0  0  0  0  0  0  0  0  0  0  0
   15.0707   -3.2845    0.0000 O   0  0  0  0  0  0  0  0  0  0  0  0
    5.3903   -4.9025    0.0000 O   0  0  0  0  0  0  0  0  0  0  0  0
   10.3183   -1.0665    0.0000 N   0  0  0  0  0  0  0  0  0  0  0  0
    8.1482   -2.5800    0.0000 N   0  0  0  0  0  0  0  0  0  0  0  0
   12.9006   -1.7710    0.0000 N   0  0  0  0  0  0  0  0  0  0  0  0
    5.5714   -3.1799    0.0000 N   0  0  0  0  0  0  0  0  0  0  0  0
    3.5823   -2.9709    0.0000 N   0  0  0  0  0  0  0  0  0  0  0  0
    2.4067   -4.5889    0.0000 N   0  0  0  0  0  0  0  0  0  0  0  0
   11.3183   -1.0665    0.0000 C   0  0  1  0  0  0  0  0  0  0  0  0
   10.8183    0.4724    0.0000 C   0  0  2  0  0  0  0  0  0  0  0  0
   11.6273   -0.1154    0.0000 C   0  0  0  0  0  0  0  0  0  0  0  0
   10.0093   -0.1154    0.0000 C   0  0  0  0  0  0  0  0  0  0  0  0
    9.7305   -1.8755    0.0000 C   0  0  0  0  0  0  0  0  0  0  0  0
    8.7360   -1.7710    0.0000 C   0  0  1  0  0  0  0  0  0  0  0  0
   11.9061   -1.8755    0.0000 C   0  0  0  0  0  0  0  0  0  0  0  0
    8.3292   -0.8574    0.0000 C   0  0  0  0  0  0  0  0  0  0  0  0
   11.6843    1.9724    0.0000 C   0  0  0  0  0  0  0  0  0  0  0  0
    7.3347   -0.7529    0.0000 C   0  0  0  0  0  0  0  0  0  0  0  0
    8.9170   -0.0484    0.0000 C   0  0  0  0  0  0  0  0  0  0  0  0
   13.4884   -2.5800    0.0000 C   0  0  3  0  0  0  0  0  0  0  0  0
    7.1537   -2.4754    0.0000 C   0  0  0  0  0  0  0  0  0  0  0  0
    6.5659   -3.2845    0.0000 C   0  0  1  0  0  0  0  0  0  0  0  0
   11.6843    2.9724    0.0000 C   0  0  0  0  0  0  0  0  0  0  0  0
    6.9726   -4.1980    0.0000 C   0  0  0  0  0  0  0  0  0  0  0  0
   13.0816   -3.4935    0.0000 C   0  0  0  0  0  0  0  0  0  0  0  0
   12.5503    3.4724    0.0000 C   0  0  0  0  0  0  0  0  0  0  0  0
   14.4829   -2.4754    0.0000 C   0  0  0  0  0  0  0  0  0  0  0  0
   10.8183    3.4724    0.0000 C   0  0  0  0  0  0  0  0  0  0  0  0
    6.3848   -5.0070    0.0000 C   0  0  0  0  0  0  0  0  0  0  0  0
    7.9671   -4.3025    0.0000 C   0  0  0  0  0  0  0  0  0  0  0  0
   13.6694   -4.3025    0.0000 C   0  0  0  0  0  0  0  0  0  0  0  0
   12.5503    4.4724    0.0000 C   0  0  0  0  0  0  0  0  0  0  0  0
   10.8183    4.4724    0.0000 C   0  0  0  0  0  0  0  0  0  0  0  0
   13.4443    2.9377    0.0000 C   0  0  0  0  0  0  0  0  0  0  0  0
   11.6843    4.9724    0.0000 C   0  0  0  0  0  0  0  0  0  0  0  0
    4.9836   -3.9890    0.0000 C   0  0  0  0  0  0  0  0  0  0  0  0
   13.4443    5.0070    0.0000 C   0  0  0  0  0  0  0  0  0  0  0  0
   14.3503    3.4516    0.0000 C   0  0  0  0  0  0  0  0  0  0  0  0
   14.3503    4.4932    0.0000 C   0  0  0  0  0  0  0  0  0  0  0  0
    3.9890   -3.8844    0.0000 C   0  0  0  0  0  0  0  0  0  0  0  0
    3.4013   -4.6934    0.0000 C   0  0  0  0  0  0  0  0  0  0  0  0
    2.5878   -2.8664    0.0000 C   0  0  0  0  0  0  0  0  0  0  0  0
    2.0000   -3.6754    0.0000 C   0  0  0  0  0  0  0  0  0  0  0  0
   11.0368   -1.6189    0.0000 H   0  0  0  0  0  0  0  0  0  0  0  0
   11.3707    0.7538    0.0000 H   0  0  0  0  0  0  0  0  0  0  0  0
   12.1937   -0.3676    0.0000 H   0  0  0  0  0  0  0  0  0  0  0  0
   11.9373    0.4215    0.0000 H   0  0  0  0  0  0  0  0  0  0  0  0
    9.6992    0.4215    0.0000 H   0  0  0  0  0  0  0  0  0  0  0  0
    9.4429   -0.3676    0.0000 H   0  0  0  0  0  0  0  0  0  0  0  0
    8.1194   -1.7062    0.0000 H   0  0  0  0  0  0  0  0  0  0  0  0
    8.0770   -0.2910    0.0000 H   0  0  0  0  0  0  0  0  0  0  0  0
    8.4004   -3.1464    0.0000 H   0  0  0  0  0  0  0  0  0  0  0  0
   13.1528   -1.2046    0.0000 H   0  0  0  0  0  0  0  0  0  0  0  0
   11.8963    1.3898    0.0000 H   0  0  0  0  0  0  0  0  0  0  0  0
   12.2949    2.0800    0.0000 H   0  0  0  0  0  0  0  0  0  0  0  0
    7.3995   -0.1363    0.0000 H   0  0  0  0  0  0  0  0  0  0  0  0
    6.7181   -0.6881    0.0000 H   0  0  0  0  0  0  0  0  0  0  0  0
    7.2699   -1.3695    0.0000 H   0  0  0  0  0  0  0  0  0  0  0  0
    9.4186   -0.4128    0.0000 H   0  0  0  0  0  0  0  0  0  0  0  0
    9.2814    0.4532    0.0000 H   0  0  0  0  0  0  0  0  0  0  0  0
    8.4154    0.3160    0.0000 H   0  0  0  0  0  0  0  0  0  0  0  0
   13.7405   -2.0136    0.0000 H   0  0  0  0  0  0  0  0  0  0  0  0
    6.2014   -3.7861    0.0000 H   0  0  0  0  0  0  0  0  0  0  0  0
    7.3370   -3.6964    0.0000 H   0  0  0  0  0  0  0  0  0  0  0  0
   12.5676   -3.1468    0.0000 H   0  0  0  0  0  0  0  0  0  0  0  0
   12.6509   -3.9395    0.0000 H   0  0  0  0  0  0  0  0  0  0  0  0
    5.3192   -2.6135    0.0000 H   0  0  0  0  0  0  0  0  0  0  0  0
   14.7351   -1.9090    0.0000 H   0  0  0  0  0  0  0  0  0  0  0  0
    5.8832   -4.6426    0.0000 H   0  0  0  0  0  0  0  0  0  0  0  0
    6.0204   -5.5086    0.0000 H   0  0  0  0  0  0  0  0  0  0  0  0
    6.8864   -5.3715    0.0000 H   0  0  0  0  0  0  0  0  0  0  0  0
    7.9023   -4.9191    0.0000 H   0  0  0  0  0  0  0  0  0  0  0  0
    8.5837   -4.3674    0.0000 H   0  0  0  0  0  0  0  0  0  0  0  0
    8.0319   -3.6859    0.0000 H   0  0  0  0  0  0  0  0  0  0  0  0
   10.2813    3.1624    0.0000 H   0  0  0  0  0  0  0  0  0  0  0  0
   13.1678   -4.6670    0.0000 H   0  0  0  0  0  0  0  0  0  0  0  0
   14.0338   -4.8041    0.0000 H   0  0  0  0  0  0  0  0  0  0  0  0
   14.1710   -3.9381    0.0000 H   0  0  0  0  0  0  0  0  0  0  0  0
   10.2813    4.7824    0.0000 H   0  0  0  0  0  0  0  0  0  0  0  0
   13.4371    2.3178    0.0000 H   0  0  0  0  0  0  0  0  0  0  0  0
   11.6843    5.5924    0.0000 H   0  0  0  0  0  0  0  0  0  0  0  0
   13.4371    5.6270    0.0000 H   0  0  0  0  0  0  0  0  0  0  0  0
   14.8861    3.1395    0.0000 H   0  0  0  0  0  0  0  0  0  0  0  0
   14.8861    4.8052    0.0000 H   0  0  0  0  0  0  0  0  0  0  0  0
    3.6534   -5.2598    0.0000 H   0  0  0  0  0  0  0  0  0  0  0  0
    2.3356   -2.3000    0.0000 H   0  0  0  0  0  0  0  0  0  0  0  0
    1.3834   -3.6106    0.0000 H   0  0  0  0  0  0  0  0  0  0  0  0
 14  1  1  6  0  0  0
  1 21  1  0  0  0  0
  2 17  2  0  0  0  0
  3 19  2  0  0  0  0
  4 25  2  0  0  0  0
  5 31  2  0  0  0  0
  6 40  2  0  0  0  0
  7 13  1  0  0  0  0
  7 16  1  0  0  0  0
  7 17  1  0  0  0  0
 18  8  1  6  0  0  0
  8 25  1  0  0  0  0
  8 56  1  0  0  0  0
  9 19  1  0  0  0  0
  9 24  1  0  0  0  0
  9 57  1  0  0  0  0
 26 10  1  1  0  0  0
 10 40  1  0  0  0  0
 10 71  1  0  0  0  0
 11 44  2  0  0  0  0
 11 46  1  0  0  0  0
 12 45  2  0  0  0  0
 12 47  1  0  0  0  0
 13 15  1  0  0  0  0
 13 19  1  1  0  0  0
 13 48  1  0  0  0  0
 14 15  1  0  0  0  0
 14 16  1  0  0  0  0
 14 49  1  0  0  0  0
 15 50  1  0  0  0  0
 15 51  1  0  0  0  0
 16 52  1  0  0  0  0
 16 53  1  0  0  0  0
 17 18  1  0  0  0  0
 18 20  1  0  0  0  0
 18 54  1  0  0  0  0
 20 22  1  0  0  0  0
 20 23  1  0  0  0  0
 20 55  1  0  0  0  0
 21 27  1  0  0  0  0
 21 58  1  0  0  0  0
 21 59  1  0  0  0  0
 22 60  1  0  0  0  0
 22 61  1  0  0  0  0
 22 62  1  0  0  0  0
 23 63  1  0  0  0  0
 23 64  1  0  0  0  0
 23 65  1  0  0  0  0
 24 29  1  0  0  0  0
 24 31  1  0  0  0  0
 24 66  1  0  0  0  0
 25 26  1  0  0  0  0
 26 28  1  0  0  0  0
 26 67  1  0  0  0  0
 27 30  1  0  0  0  0
 27 32  2  0  0  0  0
 28 33  1  0  0  0  0
 28 34  1  0  0  0  0
 28 68  1  0  0  0  0
 29 35  1  0  0  0  0
 29 69  1  0  0  0  0
 29 70  1  0  0  0  0
 30 36  1  0  0  0  0
 30 38  2  0  0  0  0
 31 72  1  0  0  0  0
 32 37  1  0  0  0  0
 32 79  1  0  0  0  0
 33 73  1  0  0  0  0
 33 74  1  0  0  0  0
 33 75  1  0  0  0  0
 34 76  1  0  0  0  0
 34 77  1  0  0  0  0
 34 78  1  0  0  0  0
 35 80  1  0  0  0  0
 35 81  1  0  0  0  0
 35 82  1  0  0  0  0
 36 39  1  0  0  0  0
 36 41  2  0  0  0  0
 37 39  2  0  0  0  0
 37 83  1  0  0  0  0
 38 42  1  0  0  0  0
 38 84  1  0  0  0  0
 39 85  1  0  0  0  0
 40 44  1  0  0  0  0
 41 43  1  0  0  0  0
 41 86  1  0  0  0  0
 42 43  2  0  0  0  0
 42 87  1  0  0  0  0
 43 88  1  0  0  0  0
 44 45  1  0  0  0  0
 45 89  1  0  0  0  0
 46 47  2  0  0  0  0
 46 90  1  0  0  0  0
 47 91  1  0  0  0  0
M  END
> <PUBCHEM_COMPOUND_CID>
511136
> <PUBCHEM_COMPOUND_CANONICALIZED>
1
> <PUBCHEM_CACTVS_COMPLEXITY>
1090
> <PUBCHEM_CACTVS_HBOND_ACCEPTOR>
8
> <PUBCHEM_CACTVS_HBOND_DONOR>
3
> <PUBCHEM_CACTVS_ROTATABLE_BOND>
14
> <PUBCHEM_CACTVS_SUBSKEYS>
AAADcfB/uAAAAAAAAAAAAAAAAAAAAWAAAAA8YIAAAAAAAADB1AAAHgAQAAAADTzhngY+gNPIFACoAz131ACCgCQ3EiAI2IG4fMgKZnrA8TiXMIgm1gHYqMe6weAOgAACAAAQAAAAAAQAACAAAAAAAAAAAA==
> <PUBCHEM_IUPAC_OPENEYE_NAME>
N-[(1R)-1-[[(1R)-1-[(2S,4R)-2-(1-formylpropylcarbamoyl)-4-(1-naphthylmethoxy)pyrrolidine-1-carbonyl]-2-methyl-propyl]carbamoyl]-2-methyl-propyl]pyrazine-2-carboxamide
> <PUBCHEM_IUPAC_CAS_NAME>
N-[(2R)-3-methyl-1-[[(2R)-3-methyl-1-[(2S,4R)-4-(1-naphthalenylmethoxy)-2-[oxo-(1-oxobutan-2-ylamino)methyl]-1-pyrrolidinyl]-1-oxobutan-2-yl]amino]-1-oxobutan-2-yl]-2-pyrazinecarboxamide
> <PUBCHEM_IUPAC_NAME_MARKUP>
<I>N</I>-[(2<I>R</I>)-3-methyl-1-[[(2<I>R</I>)-3-methyl-1-[(2<I>S</I>,4<I>R</I>)-4-(naphthalen-1-ylmethoxy)-2-(1-oxobutan-2-ylcarbamoyl)pyrrolidin-1-yl]-1-oxobutan-2-yl]amino]-1-oxobutan-2-yl]pyrazine-2-carboxamide
> <PUBCHEM_IUPAC_NAME>
N-[(2R)-3-methyl-1-[[(2R)-3-methyl-1-[(2S,4R)-4-(naphthalen-1-ylmethoxy)-2-(1-oxobutan-2-ylcarbamoyl)pyrrolidin-1-yl]-1-oxobutan-2-yl]amino]-1-oxobutan-2-yl]pyrazine-2-carboxamide
> <PUBCHEM_IUPAC_SYSTEMATIC_NAME>
N-[(2R)-3-methyl-1-[[(2R)-3-methyl-1-[(2S,4R)-4-(naphthalen-1-ylmethoxy)-2-(1-oxidanylidenebutan-2-ylcarbamoyl)pyrrolidin-1-yl]-1-oxidanylidene-butan-2-yl]amino]-1-oxidanylidene-butan-2-yl]pyrazine-2-carboxamide
> <PUBCHEM_IUPAC_TRADITIONAL_NAME>
N-[(1R)-1-[[(1R)-1-[(2S,4R)-2-(1-formylpropylcarbamoyl)-4-(1-naphthylmethoxy)pyrrolidine-1-carbonyl]-2-methyl-propyl]carbamoyl]-2-methyl-propyl]pyrazinamide
> <PUBCHEM_IUPAC_INCHI>
InChI=1S/C35H44N6O6/c1-6-25(19-42)38-33(44)29-16-26(47-20-24-12-9-11-23-10-7-8-13-27(23)24)18-41(29)35(46)31(22(4)5)40-34(45)30(21(2)3)39-32(43)28-17-36-14-15-37-28/h7-15,17,19,21-22,25-26,29-31H,6,16,18,20H2,1-5H3,(H,38,44)(H,39,43)(H,40,45)/t25?,26-,29+,30-,31-/m1/s1
> <PUBCHEM_IUPAC_INCHIKEY>
KUZWHLFHAWVQGA-GJAPNCNESA-N
> <PUBCHEM_XLOGP3_AA>
3.6
> <PUBCHEM_EXACT_MASS>
644.33223314
> <PUBCHEM_MOLECULAR_FORMULA>
C35H44N6O6
> <PUBCHEM_MOLECULAR_WEIGHT>
644.8
> <PUBCHEM_OPENEYE_CAN_SMILES>
CCC(C=O)NC(=O)C1CC(CN1C(=O)C(C(C)C)NC(=O)C(C(C)C)NC(=O)C2=NC=CN=C2)OCC3=CC=CC4=CC=CC=C43
> <PUBCHEM_OPENEYE_ISO_SMILES>
CCC(C=O)NC(=O)[C@@H]1C[C@H](CN1C(=O)[C@@H](C(C)C)NC(=O)[C@@H](C(C)C)NC(=O)C2=NC=CN=C2)OCC3=CC=CC4=CC=CC=C43
> <PUBCHEM_CACTVS_TPSA>
160
> <PUBCHEM_MONOISOTOPIC_WEIGHT>
644.33223314
> <PUBCHEM_TOTAL_CHARGE>
0
> <PUBCHEM_HEAVY_ATOM_COUNT>
47
> <PUBCHEM_ATOM_DEF_STEREO_COUNT>
4
> <PUBCHEM_ATOM_UDEF_STEREO_COUNT>
1
> <PUBCHEM_BOND_DEF_STEREO_COUNT>
0
> <PUBCHEM_BOND_UDEF_STEREO_COUNT>
0
> <PUBCHEM_ISOTOPIC_ATOM_COUNT>
0
> <PUBCHEM_COMPONENT_COUNT>
1
> <PUBCHEM_CACTVS_TAUTO_COUNT>
-1
> <PUBCHEM_COORDINATE_TYPE>
1
5
255
> <PUBCHEM_BONDANNOTATIONS>
14  1  6
26  10  5
11  44  8
11  46  8
12  45  8
12  47  8
13  19  5
24  29  3
27  30  8
27  32  8
30  36  8
30  38  8
32  37  8
36  39  8
36  41  8
37  39  8
38  42  8
41  43  8
42  43  8
44  45  8
46  47  8
18  8  6
$$$$
