511120
  -OEChem-10302200282D
 71 76  0     1  0  0  0  0  0999 V2000
    5.5443    3.0730    0.0000 S   0  0  0  0  0  0  0  0  0  0  0  0
    2.0000    3.2682    0.0000 F   0  0  0  0  0  0  0  0  0  0  0  0
    7.4067    4.0283    0.0000 O   0  0  0  0  0  0  0  0  0  0  0  0
   10.7505    1.8259    0.0000 O   0  0  0  0  0  0  0  0  0  0  0  0
   12.1048    1.6812    0.0000 O   0  0  0  0  0  0  0  0  0  0  0  0
    9.2490    0.9625    0.0000 N   0  0  0  0  0  0  0  0  0  0  0  0
    7.1279    2.2682    0.0000 N   0  0  0  0  0  0  0  0  0  0  0  0
   11.7418   -0.0124    0.0000 N   0  0  0  0  0  0  0  0  0  0  0  0
    5.5443    1.4635    0.0000 N   0  0  0  0  0  0  0  0  0  0  0  0
   13.3900    0.5200    0.0000 N   0  0  0  0  0  0  0  0  0  0  0  0
    8.6668    1.7682    0.0000 C   0  0  1  0  0  0  0  0  0  0  0  0
    7.7157    1.4592    0.0000 C   0  0  2  0  0  0  0  0  0  0  0  0
    8.6668    2.7682    0.0000 C   0  0  1  0  0  0  0  0  0  0  0  0
    7.7183    0.4652    0.0000 C   0  0  0  0  0  0  0  0  0  0  0  0
    8.6640    0.1588    0.0000 C   0  0  0  0  0  0  0  0  0  0  0  0
    7.7157    3.0773    0.0000 C   0  0  0  0  0  0  0  0  0  0  0  0
   10.2490    0.9608    0.0000 C   0  0  0  0  0  0  0  0  0  0  0  0
   10.7475    0.0939    0.0000 C   0  0  2  0  0  0  0  0  0  0  0  0
    9.4758    3.3560    0.0000 C   0  0  0  0  0  0  0  0  0  0  0  0
   10.3391   -0.8190    0.0000 C   0  0  0  0  0  0  0  0  0  0  0  0
    6.1279    2.2682    0.0000 C   0  0  0  0  0  0  0  0  0  0  0  0
   11.0811   -1.4894    0.0000 C   0  0  0  0  0  0  0  0  0  0  0  0
   11.9480   -0.9909    0.0000 C   0  0  0  0  0  0  0  0  0  0  0  0
   12.4122    0.7296    0.0000 C   0  0  0  0  0  0  0  0  0  0  0  0
    4.5981    2.7682    0.0000 C   0  0  0  0  0  0  0  0  0  0  0  0
    4.5981    1.7682    0.0000 C   0  0  0  0  0  0  0  0  0  0  0  0
    3.7320    3.2682    0.0000 C   0  0  0  0  0  0  0  0  0  0  0  0
    3.7320    1.2683    0.0000 C   0  0  0  0  0  0  0  0  0  0  0  0
   13.6974   -0.4316    0.0000 C   0  0  0  0  0  0  0  0  0  0  0  0
    2.8660    2.7682    0.0000 C   0  0  0  0  0  0  0  0  0  0  0  0
    2.8660    1.7682    0.0000 C   0  0  0  0  0  0  0  0  0  0  0  0
   14.6752   -0.6412    0.0000 C   0  0  0  0  0  0  0  0  0  0  0  0
   13.0270   -1.1736    0.0000 C   0  0  0  0  0  0  0  0  0  0  0  0
   14.3121   -2.3348    0.0000 C   0  0  0  0  0  0  0  0  0  0  0  0
   14.9825   -1.5928    0.0000 C   0  0  0  0  0  0  0  0  0  0  0  0
   13.3343   -2.1251    0.0000 C   0  0  0  0  0  0  0  0  0  0  0  0
   14.6195   -3.2863    0.0000 C   0  0  0  0  0  0  0  0  0  0  0  0
   15.5973   -3.4959    0.0000 C   0  0  0  0  0  0  0  0  0  0  0  0
   13.9491   -4.0283    0.0000 C   0  0  0  0  0  0  0  0  0  0  0  0
    9.4755    2.0299    0.0000 H   0  0  0  0  0  0  0  0  0  0  0  0
    6.9076    1.1955    0.0000 H   0  0  0  0  0  0  0  0  0  0  0  0
    8.5698    3.3806    0.0000 H   0  0  0  0  0  0  0  0  0  0  0  0
    7.1015    0.5287    0.0000 H   0  0  0  0  0  0  0  0  0  0  0  0
    7.5902   -0.1415    0.0000 H   0  0  0  0  0  0  0  0  0  0  0  0
    8.4119   -0.4077    0.0000 H   0  0  0  0  0  0  0  0  0  0  0  0
    9.2008   -0.1514    0.0000 H   0  0  0  0  0  0  0  0  0  0  0  0
   11.0860    0.6133    0.0000 H   0  0  0  0  0  0  0  0  0  0  0  0
    9.8402    2.8544    0.0000 H   0  0  0  0  0  0  0  0  0  0  0  0
    9.9774    3.7205    0.0000 H   0  0  0  0  0  0  0  0  0  0  0  0
    9.1113    3.8576    0.0000 H   0  0  0  0  0  0  0  0  0  0  0  0
    9.8028   -0.5080    0.0000 H   0  0  0  0  0  0  0  0  0  0  0  0
    9.9738   -1.3199    0.0000 H   0  0  0  0  0  0  0  0  0  0  0  0
   10.6197   -1.9034    0.0000 H   0  0  0  0  0  0  0  0  0  0  0  0
   11.4447   -1.9916    0.0000 H   0  0  0  0  0  0  0  0  0  0  0  0
   12.1992   -1.5577    0.0000 H   0  0  0  0  0  0  0  0  0  0  0  0
   12.5380   -0.8003    0.0000 H   0  0  0  0  0  0  0  0  0  0  0  0
   13.8057    0.9801    0.0000 H   0  0  0  0  0  0  0  0  0  0  0  0
    3.7320    3.8882    0.0000 H   0  0  0  0  0  0  0  0  0  0  0  0
    3.7320    0.6482    0.0000 H   0  0  0  0  0  0  0  0  0  0  0  0
    2.3291    1.4582    0.0000 H   0  0  0  0  0  0  0  0  0  0  0  0
   15.0908   -0.1811    0.0000 H   0  0  0  0  0  0  0  0  0  0  0  0
   12.4207   -1.0436    0.0000 H   0  0  0  0  0  0  0  0  0  0  0  0
   15.5888   -1.7227    0.0000 H   0  0  0  0  0  0  0  0  0  0  0  0
   12.9187   -2.5852    0.0000 H   0  0  0  0  0  0  0  0  0  0  0  0
   14.0133   -3.1564    0.0000 H   0  0  0  0  0  0  0  0  0  0  0  0
   15.4673   -4.1022    0.0000 H   0  0  0  0  0  0  0  0  0  0  0  0
   16.2035   -3.6259    0.0000 H   0  0  0  0  0  0  0  0  0  0  0  0
   15.7272   -2.8897    0.0000 H   0  0  0  0  0  0  0  0  0  0  0  0
   13.4890   -3.6127    0.0000 H   0  0  0  0  0  0  0  0  0  0  0  0
   13.5334   -4.4884    0.0000 H   0  0  0  0  0  0  0  0  0  0  0  0
   14.4091   -4.4440    0.0000 H   0  0  0  0  0  0  0  0  0  0  0  0
  1 21  1  0  0  0  0
  1 25  1  0  0  0  0
  2 30  1  0  0  0  0
  3 16  2  0  0  0  0
  4 17  2  0  0  0  0
  5 24  2  0  0  0  0
  6 11  1  0  0  0  0
  6 15  1  0  0  0  0
  6 17  1  0  0  0  0
  7 12  1  0  0  0  0
  7 16  1  0  0  0  0
  7 21  1  0  0  0  0
  8 18  1  0  0  0  0
  8 23  1  0  0  0  0
  8 24  1  0  0  0  0
  9 21  2  0  0  0  0
  9 26  1  0  0  0  0
 10 24  1  0  0  0  0
 10 29  1  0  0  0  0
 10 57  1  0  0  0  0
 11 12  1  0  0  0  0
 11 13  1  0  0  0  0
 11 40  1  6  0  0  0
 12 14  1  0  0  0  0
 12 41  1  1  0  0  0
 13 16  1  0  0  0  0
 13 19  1  1  0  0  0
 13 42  1  0  0  0  0
 14 15  1  0  0  0  0
 14 43  1  0  0  0  0
 14 44  1  0  0  0  0
 15 45  1  0  0  0  0
 15 46  1  0  0  0  0
 18 17  1  1  0  0  0
 18 20  1  0  0  0  0
 18 47  1  0  0  0  0
 19 48  1  0  0  0  0
 19 49  1  0  0  0  0
 19 50  1  0  0  0  0
 20 22  1  0  0  0  0
 20 51  1  0  0  0  0
 20 52  1  0  0  0  0
 22 23  1  0  0  0  0
 22 53  1  0  0  0  0
 22 54  1  0  0  0  0
 23 55  1  0  0  0  0
 23 56  1  0  0  0  0
 25 26  2  0  0  0  0
 25 27  1  0  0  0  0
 26 28  1  0  0  0  0
 27 30  2  0  0  0  0
 27 58  1  0  0  0  0
 28 31  2  0  0  0  0
 28 59  1  0  0  0  0
 29 32  2  0  0  0  0
 29 33  1  0  0  0  0
 30 31  1  0  0  0  0
 31 60  1  0  0  0  0
 32 35  1  0  0  0  0
 32 61  1  0  0  0  0
 33 36  2  0  0  0  0
 33 62  1  0  0  0  0
 34 35  2  0  0  0  0
 34 36  1  0  0  0  0
 34 37  1  0  0  0  0
 35 63  1  0  0  0  0
 36 64  1  0  0  0  0
 37 38  1  0  0  0  0
 37 39  1  0  0  0  0
 37 65  1  0  0  0  0
 38 66  1  0  0  0  0
 38 67  1  0  0  0  0
 38 68  1  0  0  0  0
 39 69  1  0  0  0  0
 39 70  1  0  0  0  0
 39 71  1  0  0  0  0
M  END
> <PUBCHEM_COMPOUND_CID>
511120
> <PUBCHEM_COMPOUND_CANONICALIZED>
1
> <PUBCHEM_CACTVS_COMPLEXITY>
961
> <PUBCHEM_CACTVS_HBOND_ACCEPTOR>
6
> <PUBCHEM_CACTVS_HBOND_DONOR>
1
> <PUBCHEM_CACTVS_ROTATABLE_BOND>
4
> <PUBCHEM_CACTVS_SUBSKEYS>
AAADcfB7sQBAAAAAAAAAAAAAAAAAAWLFiwAwYAAAAAAWAFgB9AAAHwQQAAAADSjB3gwz0bPIEAisAyVydACD8KlhCjhJmD24ZJiIYLrg2bGUIAholwLIyCccicAOiAAAAAAAAQAQAAAAAAACAAAAAAAAAA==
> <PUBCHEM_IUPAC_OPENEYE_NAME>
(2S)-2-[(3aS,6S,6aR)-4-(6-fluoro-1,3-benzothiazol-2-yl)-6-methyl-5-oxo-3,3a,6,6a-tetrahydro-2H-pyrrolo[3,2-b]pyrrole-1-carbonyl]-N-(4-isopropylphenyl)pyrrolidine-1-carboxamide
> <PUBCHEM_IUPAC_CAS_NAME>
(2S)-2-[[(3aS,6S,6aR)-4-(6-fluoro-1,3-benzothiazol-2-yl)-6-methyl-5-oxo-3,3a,6,6a-tetrahydro-2H-pyrrolo[3,2-b]pyrrol-1-yl]-oxomethyl]-N-(4-propan-2-ylphenyl)-1-pyrrolidinecarboxamide
> <PUBCHEM_IUPAC_NAME_MARKUP>
(2<I>S</I>)-2-[(3<I>a</I><I>S</I>,6<I>S</I>,6<I>a</I><I>R</I>)-4-(6-fluoro-1,3-benzothiazol-2-yl)-6-methyl-5-oxo-3,3<I>a</I>,6,6<I>a</I>-tetrahydro-2<I>H</I>-pyrrolo[3,2-b]pyrrole-1-carbonyl]-<I>N</I>-(4-propan-2-ylphenyl)pyrrolidine-1-carboxamide
> <PUBCHEM_IUPAC_NAME>
(2S)-2-[(3aS,6S,6aR)-4-(6-fluoro-1,3-benzothiazol-2-yl)-6-methyl-5-oxo-3,3a,6,6a-tetrahydro-2H-pyrrolo[3,2-b]pyrrole-1-carbonyl]-N-(4-propan-2-ylphenyl)pyrrolidine-1-carboxamide
> <PUBCHEM_IUPAC_SYSTEMATIC_NAME>
(2S)-2-[[(3aS,6S,6aR)-4-(6-fluoranyl-1,3-benzothiazol-2-yl)-6-methyl-5-oxidanylidene-3,3a,6,6a-tetrahydro-2H-pyrrolo[3,2-b]pyrrol-1-yl]carbonyl]-N-(4-propan-2-ylphenyl)pyrrolidine-1-carboxamide
> <PUBCHEM_IUPAC_TRADITIONAL_NAME>
(2S)-2-[(3aS,6S,6aR)-4-(6-fluoro-1,3-benzothiazol-2-yl)-5-keto-6-methyl-3,3a,6,6a-tetrahydro-2H-pyrrolo[3,2-b]pyrrole-1-carbonyl]-N-p-cumenyl-pyrrolidine-1-carboxamide
> <PUBCHEM_IUPAC_INCHI>
InChI=1S/C29H32FN5O3S/c1-16(2)18-6-9-20(10-7-18)31-28(38)33-13-4-5-23(33)27(37)34-14-12-22-25(34)17(3)26(36)35(22)29-32-21-11-8-19(30)15-24(21)39-29/h6-11,15-17,22-23,25H,4-5,12-14H2,1-3H3,(H,31,38)/t17-,22-,23-,25+/m0/s1
> <PUBCHEM_IUPAC_INCHIKEY>
QNMONSKDLWQEPR-XVYJZYCRSA-N
> <PUBCHEM_XLOGP3_AA>
4.8
> <PUBCHEM_EXACT_MASS>
549.22098924
> <PUBCHEM_MOLECULAR_FORMULA>
C29H32FN5O3S
> <PUBCHEM_MOLECULAR_WEIGHT>
549.7
> <PUBCHEM_OPENEYE_CAN_SMILES>
CC1C2C(CCN2C(=O)C3CCCN3C(=O)NC4=CC=C(C=C4)C(C)C)N(C1=O)C5=NC6=C(S5)C=C(C=C6)F
> <PUBCHEM_OPENEYE_ISO_SMILES>
C[C@H]1[C@@H]2[C@H](CCN2C(=O)[C@@H]3CCCN3C(=O)NC4=CC=C(C=C4)C(C)C)N(C1=O)C5=NC6=C(S5)C=C(C=C6)F
> <PUBCHEM_CACTVS_TPSA>
114
> <PUBCHEM_MONOISOTOPIC_WEIGHT>
549.22098924
> <PUBCHEM_TOTAL_CHARGE>
0
> <PUBCHEM_HEAVY_ATOM_COUNT>
39
> <PUBCHEM_ATOM_DEF_STEREO_COUNT>
4
> <PUBCHEM_ATOM_UDEF_STEREO_COUNT>
0
> <PUBCHEM_BOND_DEF_STEREO_COUNT>
0
> <PUBCHEM_BOND_UDEF_STEREO_COUNT>
0
> <PUBCHEM_ISOTOPIC_ATOM_COUNT>
0
> <PUBCHEM_COMPONENT_COUNT>
1
> <PUBCHEM_CACTVS_TAUTO_COUNT>
-1
> <PUBCHEM_COORDINATE_TYPE>
1
5
255
> <PUBCHEM_BONDANNOTATIONS>
1  21  8
1  25  8
11  40  6
12  41  5
13  19  5
18  17  5
25  26  8
25  27  8
26  28  8
27  30  8
28  31  8
29  32  8
29  33  8
30  31  8
32  35  8
33  36  8
34  35  8
34  36  8
9  21  8
9  26  8
$$$$
