511114
  -OEChem-10302200282D
 78 83  0     1  0  0  0  0  0999 V2000
    4.6783   -2.9530    0.0000 S   0  0  0  0  0  0  0  0  0  0  0  0
    6.5406   -3.9084    0.0000 O   0  0  0  0  0  0  0  0  0  0  0  0
    9.8844   -1.7060    0.0000 O   0  0  0  0  0  0  0  0  0  0  0  0
   11.2388   -1.5612    0.0000 O   0  0  0  0  0  0  0  0  0  0  0  0
    2.8660   -0.1483    0.0000 O   0  0  0  0  0  0  0  0  0  0  0  0
    8.3829   -0.8425    0.0000 N   0  0  0  0  0  0  0  0  0  0  0  0
    6.2619   -2.1483    0.0000 N   0  0  0  0  0  0  0  0  0  0  0  0
   10.8758    0.1323    0.0000 N   0  0  0  0  0  0  0  0  0  0  0  0
    4.6783   -1.3436    0.0000 N   0  0  0  0  0  0  0  0  0  0  0  0
   12.5240   -0.4001    0.0000 N   0  0  0  0  0  0  0  0  0  0  0  0
    7.8007   -1.6483    0.0000 C   0  0  1  0  0  0  0  0  0  0  0  0
    6.8497   -1.3393    0.0000 C   0  0  2  0  0  0  0  0  0  0  0  0
    7.8007   -2.6483    0.0000 C   0  0  1  0  0  0  0  0  0  0  0  0
    6.8522   -0.3452    0.0000 C   0  0  0  0  0  0  0  0  0  0  0  0
    7.7979   -0.0388    0.0000 C   0  0  0  0  0  0  0  0  0  0  0  0
    6.8497   -2.9573    0.0000 C   0  0  0  0  0  0  0  0  0  0  0  0
    9.3829   -0.8408    0.0000 C   0  0  0  0  0  0  0  0  0  0  0  0
    9.8814    0.0261    0.0000 C   0  0  2  0  0  0  0  0  0  0  0  0
    8.6097   -3.2361    0.0000 C   0  0  0  0  0  0  0  0  0  0  0  0
    5.2619   -2.1483    0.0000 C   0  0  0  0  0  0  0  0  0  0  0  0
    9.4731    0.9389    0.0000 C   0  0  0  0  0  0  0  0  0  0  0  0
   10.2151    1.6093    0.0000 C   0  0  0  0  0  0  0  0  0  0  0  0
   11.0820    1.1108    0.0000 C   0  0  0  0  0  0  0  0  0  0  0  0
   11.5462   -0.6097    0.0000 C   0  0  0  0  0  0  0  0  0  0  0  0
    3.7320   -2.6483    0.0000 C   0  0  0  0  0  0  0  0  0  0  0  0
    3.7320   -1.6483    0.0000 C   0  0  0  0  0  0  0  0  0  0  0  0
    2.8660   -3.1483    0.0000 C   0  0  0  0  0  0  0  0  0  0  0  0
    2.8660   -1.1483    0.0000 C   0  0  0  0  0  0  0  0  0  0  0  0
    2.0000   -2.6483    0.0000 C   0  0  0  0  0  0  0  0  0  0  0  0
    2.0000   -1.6483    0.0000 C   0  0  0  0  0  0  0  0  0  0  0  0
   12.8313    0.5515    0.0000 C   0  0  0  0  0  0  0  0  0  0  0  0
    2.8660   -4.1483    0.0000 C   0  0  0  0  0  0  0  0  0  0  0  0
   13.8091    0.7611    0.0000 C   0  0  0  0  0  0  0  0  0  0  0  0
   12.1609    1.2935    0.0000 C   0  0  0  0  0  0  0  0  0  0  0  0
    2.0000    0.3517    0.0000 C   0  0  0  0  0  0  0  0  0  0  0  0
   14.1165    1.7127    0.0000 C   0  0  0  0  0  0  0  0  0  0  0  0
   12.4683    2.2451    0.0000 C   0  0  0  0  0  0  0  0  0  0  0  0
   13.4461    2.4547    0.0000 C   0  0  0  0  0  0  0  0  0  0  0  0
   13.7535    3.4063    0.0000 C   0  0  0  0  0  0  0  0  0  0  0  0
   14.7312    3.6159    0.0000 C   0  0  0  0  0  0  0  0  0  0  0  0
   13.0830    4.1483    0.0000 C   0  0  0  0  0  0  0  0  0  0  0  0
    8.6095   -1.9099    0.0000 H   0  0  0  0  0  0  0  0  0  0  0  0
    6.0416   -1.0756    0.0000 H   0  0  0  0  0  0  0  0  0  0  0  0
    8.3532   -2.3668    0.0000 H   0  0  0  0  0  0  0  0  0  0  0  0
    6.7242    0.2614    0.0000 H   0  0  0  0  0  0  0  0  0  0  0  0
    6.2355   -0.4088    0.0000 H   0  0  0  0  0  0  0  0  0  0  0  0
    8.3348    0.2713    0.0000 H   0  0  0  0  0  0  0  0  0  0  0  0
    7.5459    0.5276    0.0000 H   0  0  0  0  0  0  0  0  0  0  0  0
   10.2200   -0.4933    0.0000 H   0  0  0  0  0  0  0  0  0  0  0  0
    8.2453   -3.7377    0.0000 H   0  0  0  0  0  0  0  0  0  0  0  0
    9.1113   -3.6005    0.0000 H   0  0  0  0  0  0  0  0  0  0  0  0
    8.9742   -2.7345    0.0000 H   0  0  0  0  0  0  0  0  0  0  0  0
    9.1078    1.4399    0.0000 H   0  0  0  0  0  0  0  0  0  0  0  0
    8.9367    0.6280    0.0000 H   0  0  0  0  0  0  0  0  0  0  0  0
   10.5787    2.1115    0.0000 H   0  0  0  0  0  0  0  0  0  0  0  0
    9.7536    2.0234    0.0000 H   0  0  0  0  0  0  0  0  0  0  0  0
   11.6720    0.9203    0.0000 H   0  0  0  0  0  0  0  0  0  0  0  0
   11.3332    1.6777    0.0000 H   0  0  0  0  0  0  0  0  0  0  0  0
   12.9396   -0.8601    0.0000 H   0  0  0  0  0  0  0  0  0  0  0  0
    1.4631   -2.9583    0.0000 H   0  0  0  0  0  0  0  0  0  0  0  0
    1.4631   -1.3383    0.0000 H   0  0  0  0  0  0  0  0  0  0  0  0
    2.2460   -4.1483    0.0000 H   0  0  0  0  0  0  0  0  0  0  0  0
    2.8660   -4.7683    0.0000 H   0  0  0  0  0  0  0  0  0  0  0  0
    3.4860   -4.1483    0.0000 H   0  0  0  0  0  0  0  0  0  0  0  0
   14.2248    0.3011    0.0000 H   0  0  0  0  0  0  0  0  0  0  0  0
   11.5547    1.1636    0.0000 H   0  0  0  0  0  0  0  0  0  0  0  0
   14.7227    1.8427    0.0000 H   0  0  0  0  0  0  0  0  0  0  0  0
   12.0526    2.7051    0.0000 H   0  0  0  0  0  0  0  0  0  0  0  0
    2.3100    0.8886    0.0000 H   0  0  0  0  0  0  0  0  0  0  0  0
    1.4631    0.6617    0.0000 H   0  0  0  0  0  0  0  0  0  0  0  0
    1.6900   -0.1852    0.0000 H   0  0  0  0  0  0  0  0  0  0  0  0
   14.1691    2.9463    0.0000 H   0  0  0  0  0  0  0  0  0  0  0  0
   14.8612    3.0097    0.0000 H   0  0  0  0  0  0  0  0  0  0  0  0
   15.3375    3.7459    0.0000 H   0  0  0  0  0  0  0  0  0  0  0  0
   14.6013    4.2221    0.0000 H   0  0  0  0  0  0  0  0  0  0  0  0
   13.5431    4.5639    0.0000 H   0  0  0  0  0  0  0  0  0  0  0  0
   12.6674    4.6083    0.0000 H   0  0  0  0  0  0  0  0  0  0  0  0
   12.6230    3.7326    0.0000 H   0  0  0  0  0  0  0  0  0  0  0  0
  1 20  1  0  0  0  0
  1 25  1  0  0  0  0
  2 16  2  0  0  0  0
  3 17  2  0  0  0  0
  4 24  2  0  0  0  0
  5 28  1  0  0  0  0
  5 35  1  0  0  0  0
  6 11  1  0  0  0  0
  6 15  1  0  0  0  0
  6 17  1  0  0  0  0
  7 12  1  0  0  0  0
  7 16  1  0  0  0  0
  7 20  1  0  0  0  0
  8 18  1  0  0  0  0
  8 23  1  0  0  0  0
  8 24  1  0  0  0  0
  9 20  2  0  0  0  0
  9 26  1  0  0  0  0
 10 24  1  0  0  0  0
 10 31  1  0  0  0  0
 10 59  1  0  0  0  0
 11 12  1  0  0  0  0
 11 13  1  0  0  0  0
 11 42  1  1  0  0  0
 12 14  1  0  0  0  0
 12 43  1  6  0  0  0
 13 16  1  0  0  0  0
 13 19  1  6  0  0  0
 13 44  1  0  0  0  0
 14 15  1  0  0  0  0
 14 45  1  0  0  0  0
 14 46  1  0  0  0  0
 15 47  1  0  0  0  0
 15 48  1  0  0  0  0
 18 17  1  6  0  0  0
 18 21  1  0  0  0  0
 18 49  1  0  0  0  0
 19 50  1  0  0  0  0
 19 51  1  0  0  0  0
 19 52  1  0  0  0  0
 21 22  1  0  0  0  0
 21 53  1  0  0  0  0
 21 54  1  0  0  0  0
 22 23  1  0  0  0  0
 22 55  1  0  0  0  0
 22 56  1  0  0  0  0
 23 57  1  0  0  0  0
 23 58  1  0  0  0  0
 25 26  1  0  0  0  0
 25 27  2  0  0  0  0
 26 28  2  0  0  0  0
 27 29  1  0  0  0  0
 27 32  1  0  0  0  0
 28 30  1  0  0  0  0
 29 30  2  0  0  0  0
 29 60  1  0  0  0  0
 30 61  1  0  0  0  0
 31 33  2  0  0  0  0
 31 34  1  0  0  0  0
 32 62  1  0  0  0  0
 32 63  1  0  0  0  0
 32 64  1  0  0  0  0
 33 36  1  0  0  0  0
 33 65  1  0  0  0  0
 34 37  2  0  0  0  0
 34 66  1  0  0  0  0
 35 69  1  0  0  0  0
 35 70  1  0  0  0  0
 35 71  1  0  0  0  0
 36 38  2  0  0  0  0
 36 67  1  0  0  0  0
 37 38  1  0  0  0  0
 37 68  1  0  0  0  0
 38 39  1  0  0  0  0
 39 40  1  0  0  0  0
 39 41  1  0  0  0  0
 39 72  1  0  0  0  0
 40 73  1  0  0  0  0
 40 74  1  0  0  0  0
 40 75  1  0  0  0  0
 41 76  1  0  0  0  0
 41 77  1  0  0  0  0
 41 78  1  0  0  0  0
M  END
> <PUBCHEM_COMPOUND_CID>
511114
> <PUBCHEM_COMPOUND_CANONICALIZED>
1
> <PUBCHEM_CACTVS_COMPLEXITY>
1010
> <PUBCHEM_CACTVS_HBOND_ACCEPTOR>
6
> <PUBCHEM_CACTVS_HBOND_DONOR>
1
> <PUBCHEM_CACTVS_ROTATABLE_BOND>
5
> <PUBCHEM_CACTVS_SUBSKEYS>
AAADcfB7uABAAAAAAAAAAAAAAAAAAWLFiwAwYAAAAAAWAFgB9AAAHgQQAAAADSzB3gYz17PIFAisAyVydASD+KlhajgJmDWvbJiOZrrk+buVMChs1xPY6CecycAOqAAARAAEEQBQAACIAAgiAAAAAAAAAA==
> <PUBCHEM_IUPAC_OPENEYE_NAME>
(2S)-2-[(3aS,6S,6aR)-4-(4-methoxy-7-methyl-1,3-benzothiazol-2-yl)-6-methyl-5-oxo-3,3a,6,6a-tetrahydro-2H-pyrrolo[3,2-b]pyrrole-1-carbonyl]-N-(4-isopropylphenyl)pyrrolidine-1-carboxamide
> <PUBCHEM_IUPAC_CAS_NAME>
(2S)-2-[[(3aS,6S,6aR)-4-(4-methoxy-7-methyl-1,3-benzothiazol-2-yl)-6-methyl-5-oxo-3,3a,6,6a-tetrahydro-2H-pyrrolo[3,2-b]pyrrol-1-yl]-oxomethyl]-N-(4-propan-2-ylphenyl)-1-pyrrolidinecarboxamide
> <PUBCHEM_IUPAC_NAME_MARKUP>
(2<I>S</I>)-2-[(3<I>a</I><I>S</I>,6<I>S</I>,6<I>a</I><I>R</I>)-4-(4-methoxy-7-methyl-1,3-benzothiazol-2-yl)-6-methyl-5-oxo-3,3<I>a</I>,6,6<I>a</I>-tetrahydro-2<I>H</I>-pyrrolo[3,2-b]pyrrole-1-carbonyl]-<I>N</I>-(4-propan-2-ylphenyl)pyrrolidine-1-carboxamide
> <PUBCHEM_IUPAC_NAME>
(2S)-2-[(3aS,6S,6aR)-4-(4-methoxy-7-methyl-1,3-benzothiazol-2-yl)-6-methyl-5-oxo-3,3a,6,6a-tetrahydro-2H-pyrrolo[3,2-b]pyrrole-1-carbonyl]-N-(4-propan-2-ylphenyl)pyrrolidine-1-carboxamide
> <PUBCHEM_IUPAC_SYSTEMATIC_NAME>
(2S)-2-[[(3aS,6S,6aR)-4-(4-methoxy-7-methyl-1,3-benzothiazol-2-yl)-6-methyl-5-oxidanylidene-3,3a,6,6a-tetrahydro-2H-pyrrolo[3,2-b]pyrrol-1-yl]carbonyl]-N-(4-propan-2-ylphenyl)pyrrolidine-1-carboxamide
> <PUBCHEM_IUPAC_TRADITIONAL_NAME>
(2S)-2-[(3aS,6S,6aR)-5-keto-4-(4-methoxy-7-methyl-1,3-benzothiazol-2-yl)-6-methyl-3,3a,6,6a-tetrahydro-2H-pyrrolo[3,2-b]pyrrole-1-carbonyl]-N-p-cumenyl-pyrrolidine-1-carboxamide
> <PUBCHEM_IUPAC_INCHI>
InChI=1S/C31H37N5O4S/c1-17(2)20-9-11-21(12-10-20)32-30(39)34-15-6-7-23(34)29(38)35-16-14-22-26(35)19(4)28(37)36(22)31-33-25-24(40-5)13-8-18(3)27(25)41-31/h8-13,17,19,22-23,26H,6-7,14-16H2,1-5H3,(H,32,39)/t19-,22-,23-,26+/m0/s1
> <PUBCHEM_IUPAC_INCHIKEY>
ZGROCADQAAMWOR-RZOLNQLPSA-N
> <PUBCHEM_XLOGP3_AA>
5
> <PUBCHEM_EXACT_MASS>
575.25662585
> <PUBCHEM_MOLECULAR_FORMULA>
C31H37N5O4S
> <PUBCHEM_MOLECULAR_WEIGHT>
575.7
> <PUBCHEM_OPENEYE_CAN_SMILES>
CC1C2C(CCN2C(=O)C3CCCN3C(=O)NC4=CC=C(C=C4)C(C)C)N(C1=O)C5=NC6=C(C=CC(=C6S5)C)OC
> <PUBCHEM_OPENEYE_ISO_SMILES>
C[C@H]1[C@@H]2[C@H](CCN2C(=O)[C@@H]3CCCN3C(=O)NC4=CC=C(C=C4)C(C)C)N(C1=O)C5=NC6=C(C=CC(=C6S5)C)OC
> <PUBCHEM_CACTVS_TPSA>
123
> <PUBCHEM_MONOISOTOPIC_WEIGHT>
575.25662585
> <PUBCHEM_TOTAL_CHARGE>
0
> <PUBCHEM_HEAVY_ATOM_COUNT>
41
> <PUBCHEM_ATOM_DEF_STEREO_COUNT>
4
> <PUBCHEM_ATOM_UDEF_STEREO_COUNT>
0
> <PUBCHEM_BOND_DEF_STEREO_COUNT>
0
> <PUBCHEM_BOND_UDEF_STEREO_COUNT>
0
> <PUBCHEM_ISOTOPIC_ATOM_COUNT>
0
> <PUBCHEM_COMPONENT_COUNT>
1
> <PUBCHEM_CACTVS_TAUTO_COUNT>
-1
> <PUBCHEM_COORDINATE_TYPE>
1
5
255
> <PUBCHEM_BONDANNOTATIONS>
1  20  8
1  25  8
11  42  5
12  43  6
13  19  6
18  17  6
25  26  8
25  27  8
26  28  8
27  29  8
28  30  8
29  30  8
31  33  8
31  34  8
33  36  8
34  37  8
36  38  8
37  38  8
9  20  8
9  26  8
$$$$
