511192
  -OEChem-10302200282D
 42 43  0     1  0  0  0  0  0999 V2000
    4.5316   -2.7694    0.0000 P   0  0  0  0  0  0  0  0  0  0  0  0
    4.0718    0.7132    0.0000 O   0  0  0  0  0  0  0  0  0  0  0  0
    3.9438   -1.9604    0.0000 O   0  0  0  0  0  0  0  0  0  0  0  0
    5.1194   -3.5784    0.0000 O   0  0  0  0  0  0  0  0  0  0  0  0
    3.7226   -3.3572    0.0000 O   0  0  0  0  0  0  0  0  0  0  0  0
    4.9948    2.3010    0.0000 O   0  0  0  0  0  0  0  0  0  0  0  0
    5.3406   -2.1816    0.0000 O   0  0  0  0  0  0  0  0  0  0  0  0
    3.2628    5.3010    0.0000 O   0  0  0  0  0  0  0  0  0  0  0  0
    3.2628    2.3010    0.0000 N   0  0  0  0  0  0  0  0  0  0  0  0
    4.1288    3.8010    0.0000 N   0  0  0  0  0  0  0  0  0  0  0  0
    3.7628   -0.2378    0.0000 C   0  0  1  0  0  0  0  0  0  0  0  0
    3.2628    1.3010    0.0000 C   0  0  1  0  0  0  0  0  0  0  0  0
    2.7628   -0.2378    0.0000 C   0  0  0  0  0  0  0  0  0  0  0  0
    4.3505   -1.0469    0.0000 C   0  0  0  0  0  0  0  0  0  0  0  0
    2.4537    0.7132    0.0000 C   0  0  0  0  0  0  0  0  0  0  0  0
    4.1288    2.8010    0.0000 C   0  0  0  0  0  0  0  0  0  0  0  0
    2.3967    2.8010    0.0000 C   0  0  0  0  0  0  0  0  0  0  0  0
    2.3967    3.8010    0.0000 C   0  0  0  0  0  0  0  0  0  0  0  0
    3.2628    4.3010    0.0000 C   0  0  0  0  0  0  0  0  0  0  0  0
    4.7126   -4.4920    0.0000 C   0  0  0  0  0  0  0  0  0  0  0  0
    2.8090   -2.9505    0.0000 C   0  0  0  0  0  0  0  0  0  0  0  0
    5.3004   -5.3010    0.0000 C   0  0  0  0  0  0  0  0  0  0  0  0
    2.0000   -3.5382    0.0000 C   0  0  0  0  0  0  0  0  0  0  0  0
    4.3751   -0.1409    0.0000 H   0  0  0  0  0  0  0  0  0  0  0  0
    3.8152    1.5825    0.0000 H   0  0  0  0  0  0  0  0  0  0  0  0
    2.3983   -0.7394    0.0000 H   0  0  0  0  0  0  0  0  0  0  0  0
    4.8645   -1.3936    0.0000 H   0  0  0  0  0  0  0  0  0  0  0  0
    4.7812   -0.6009    0.0000 H   0  0  0  0  0  0  0  0  0  0  0  0
    1.8641    0.9048    0.0000 H   0  0  0  0  0  0  0  0  0  0  0  0
    1.8598    2.4910    0.0000 H   0  0  0  0  0  0  0  0  0  0  0  0
    4.6657    4.1110    0.0000 H   0  0  0  0  0  0  0  0  0  0  0  0
    1.8598    4.1110    0.0000 H   0  0  0  0  0  0  0  0  0  0  0  0
    4.1986   -4.1453    0.0000 H   0  0  0  0  0  0  0  0  0  0  0  0
    4.2819   -4.9380    0.0000 H   0  0  0  0  0  0  0  0  0  0  0  0
    3.1557   -2.4365    0.0000 H   0  0  0  0  0  0  0  0  0  0  0  0
    2.3630   -2.5198    0.0000 H   0  0  0  0  0  0  0  0  0  0  0  0
    4.7988   -5.6654    0.0000 H   0  0  0  0  0  0  0  0  0  0  0  0
    5.6648   -5.8026    0.0000 H   0  0  0  0  0  0  0  0  0  0  0  0
    5.8020   -4.9366    0.0000 H   0  0  0  0  0  0  0  0  0  0  0  0
    1.6356   -3.0367    0.0000 H   0  0  0  0  0  0  0  0  0  0  0  0
    1.4984   -3.9027    0.0000 H   0  0  0  0  0  0  0  0  0  0  0  0
    2.3644   -4.0399    0.0000 H   0  0  0  0  0  0  0  0  0  0  0  0
  1  3  1  0  0  0  0
  1  4  1  0  0  0  0
  1  5  1  0  0  0  0
  1  7  2  0  0  0  0
  2 11  1  0  0  0  0
  2 12  1  0  0  0  0
  3 14  1  0  0  0  0
  4 20  1  0  0  0  0
  5 21  1  0  0  0  0
  6 16  2  0  0  0  0
  8 19  2  0  0  0  0
 12  9  1  6  0  0  0
  9 16  1  0  0  0  0
  9 17  1  0  0  0  0
 10 16  1  0  0  0  0
 10 19  1  0  0  0  0
 10 31  1  0  0  0  0
 11 13  1  0  0  0  0
 11 14  1  6  0  0  0
 11 24  1  0  0  0  0
 12 15  1  0  0  0  0
 12 25  1  0  0  0  0
 13 15  2  0  0  0  0
 13 26  1  0  0  0  0
 14 27  1  0  0  0  0
 14 28  1  0  0  0  0
 15 29  1  0  0  0  0
 17 18  2  0  0  0  0
 17 30  1  0  0  0  0
 18 19  1  0  0  0  0
 18 32  1  0  0  0  0
 20 22  1  0  0  0  0
 20 33  1  0  0  0  0
 20 34  1  0  0  0  0
 21 23  1  0  0  0  0
 21 35  1  0  0  0  0
 21 36  1  0  0  0  0
 22 37  1  0  0  0  0
 22 38  1  0  0  0  0
 22 39  1  0  0  0  0
 23 40  1  0  0  0  0
 23 41  1  0  0  0  0
 23 42  1  0  0  0  0
M  END
> <PUBCHEM_COMPOUND_CID>
511192
> <PUBCHEM_COMPOUND_CANONICALIZED>
1
> <PUBCHEM_CACTVS_COMPLEXITY>
553
> <PUBCHEM_CACTVS_HBOND_ACCEPTOR>
7
> <PUBCHEM_CACTVS_HBOND_DONOR>
1
> <PUBCHEM_CACTVS_ROTATABLE_BOND>
8
> <PUBCHEM_CACTVS_SUBSKEYS>
AAADceBzOAIAAAAAAAAAAAAAAAAAAQAAAAAgAAAAAAAAAAAAAAAAHgAQACAACBThgAYDAAPABRCIQCFWUICAAAAgAgAICAAIAEiBBAAAIQAKEAAIVyIKIMIAAAAAAAAAAAAAAAAAAAAAAAAAAAAAAAAAAA==
> <PUBCHEM_IUPAC_OPENEYE_NAME>
[(2S,5R)-5-(2,4-dioxopyrimidin-1-yl)-2,5-dihydrofuran-2-yl]methyl diethyl phosphate
> <PUBCHEM_IUPAC_CAS_NAME>
phosphoric acid [(2S,5R)-5-(2,4-dioxo-1-pyrimidinyl)-2,5-dihydrofuran-2-yl]methyl diethyl ester
> <PUBCHEM_IUPAC_NAME_MARKUP>
[(2<I>S</I>,5<I>R</I>)-5-(2,4-dioxopyrimidin-1-yl)-2,5-dihydrofuran-2-yl]methyl diethyl phosphate
> <PUBCHEM_IUPAC_NAME>
[(2S,5R)-5-(2,4-dioxopyrimidin-1-yl)-2,5-dihydrofuran-2-yl]methyl diethyl phosphate
> <PUBCHEM_IUPAC_SYSTEMATIC_NAME>
[(2S,5R)-5-[2,4-bis(oxidanylidene)pyrimidin-1-yl]-2,5-dihydrofuran-2-yl]methyl diethyl phosphate
> <PUBCHEM_IUPAC_TRADITIONAL_NAME>
phosphoric acid [(2S,5R)-5-(2,4-diketopyrimidin-1-yl)-2,5-dihydrofuran-2-yl]methyl diethyl ester
> <PUBCHEM_IUPAC_INCHI>
InChI=1S/C13H19N2O7P/c1-3-19-23(18,20-4-2)21-9-10-5-6-12(22-10)15-8-7-11(16)14-13(15)17/h5-8,10,12H,3-4,9H2,1-2H3,(H,14,16,17)/t10-,12+/m0/s1
> <PUBCHEM_IUPAC_INCHIKEY>
WJCOBSGNMWMSDX-CMPLNLGQSA-N
> <PUBCHEM_XLOGP3>
-0.4
> <PUBCHEM_EXACT_MASS>
346.09298795
> <PUBCHEM_MOLECULAR_FORMULA>
C13H19N2O7P
> <PUBCHEM_MOLECULAR_WEIGHT>
346.27
> <PUBCHEM_OPENEYE_CAN_SMILES>
CCOP(=O)(OCC)OCC1C=CC(O1)N2C=CC(=O)NC2=O
> <PUBCHEM_OPENEYE_ISO_SMILES>
CCOP(=O)(OCC)OC[C@@H]1C=C[C@@H](O1)N2C=CC(=O)NC2=O
> <PUBCHEM_CACTVS_TPSA>
103
> <PUBCHEM_MONOISOTOPIC_WEIGHT>
346.09298795
> <PUBCHEM_TOTAL_CHARGE>
0
> <PUBCHEM_HEAVY_ATOM_COUNT>
23
> <PUBCHEM_ATOM_DEF_STEREO_COUNT>
2
> <PUBCHEM_ATOM_UDEF_STEREO_COUNT>
0
> <PUBCHEM_BOND_DEF_STEREO_COUNT>
0
> <PUBCHEM_BOND_UDEF_STEREO_COUNT>
0
> <PUBCHEM_ISOTOPIC_ATOM_COUNT>
0
> <PUBCHEM_COMPONENT_COUNT>
1
> <PUBCHEM_CACTVS_TAUTO_COUNT>
-1
> <PUBCHEM_COORDINATE_TYPE>
1
5
255
> <PUBCHEM_BONDANNOTATIONS>
10  16  8
10  19  8
11  14  6
17  18  8
18  19  8
12  9  6
9  16  8
9  17  8
$$$$
