511183
  -OEChem-10302200282D
 59 60  0     1  0  0  0  0  0999 V2000
    3.3968   -3.4860    0.0000 Cl  0  0  0  0  0  0  0  0  0  0  0  0
    2.0000   -3.2648    0.0000 Cl  0  0  0  0  0  0  0  0  0  0  0  0
    2.2212   -1.8680    0.0000 Cl  0  0  0  0  0  0  0  0  0  0  0  0
    3.1259   -4.7533    0.0000 S   0  0  0  0  0  0  0  0  0  0  0  0
    5.3406   -1.9081    0.0000 P   0  0  3  0  0  0  0  0  0  0  0  0
    4.8808    1.5745    0.0000 O   0  0  0  0  0  0  0  0  0  0  0  0
    4.7528   -1.0991    0.0000 O   0  0  0  0  0  0  0  0  0  0  0  0
    4.5316   -2.4959    0.0000 O   0  0  0  0  0  0  0  0  0  0  0  0
    6.1496   -1.3204    0.0000 O   0  0  0  0  0  0  0  0  0  0  0  0
    5.7027   -5.3533    0.0000 O   0  0  0  0  0  0  0  0  0  0  0  0
    5.8038    3.1623    0.0000 O   0  0  0  0  0  0  0  0  0  0  0  0
    7.1040   -4.3352    0.0000 O   0  0  0  0  0  0  0  0  0  0  0  0
    4.0718    6.1623    0.0000 O   0  0  0  0  0  0  0  0  0  0  0  0
    4.0718    3.1623    0.0000 N   0  0  0  0  0  0  0  0  0  0  0  0
    5.9284   -2.7172    0.0000 N   0  0  0  0  0  0  0  0  0  0  0  0
    4.9378    4.6623    0.0000 N   0  0  0  0  0  0  0  0  0  0  0  0
    4.5718    0.6234    0.0000 C   0  0  2  0  0  0  0  0  0  0  0  0
    4.0718    2.1623    0.0000 C   0  0  1  0  0  0  0  0  0  0  0  0
    5.1596   -0.1856    0.0000 C   0  0  0  0  0  0  0  0  0  0  0  0
    3.5718    0.6234    0.0000 C   0  0  0  0  0  0  0  0  0  0  0  0
    3.2628    1.5745    0.0000 C   0  0  0  0  0  0  0  0  0  0  0  0
    5.5216   -3.6307    0.0000 C   0  0  1  0  0  0  0  0  0  0  0  0
    4.5271   -3.7352    0.0000 C   0  0  0  0  0  0  0  0  0  0  0  0
    3.2057    3.6623    0.0000 C   0  0  0  0  0  0  0  0  0  0  0  0
    4.9378    3.6623    0.0000 C   0  0  0  0  0  0  0  0  0  0  0  0
    4.1204   -4.6488    0.0000 C   0  0  0  0  0  0  0  0  0  0  0  0
    6.1094   -4.4397    0.0000 C   0  0  0  0  0  0  0  0  0  0  0  0
    3.2057    4.6623    0.0000 C   0  0  0  0  0  0  0  0  0  0  0  0
    4.0718    5.1623    0.0000 C   0  0  0  0  0  0  0  0  0  0  0  0
    3.6180   -2.0892    0.0000 C   0  0  0  0  0  0  0  0  0  0  0  0
    2.3397    5.1623    0.0000 C   0  0  0  0  0  0  0  0  0  0  0  0
    2.8090   -2.6770    0.0000 C   0  0  0  0  0  0  0  0  0  0  0  0
    2.7191   -5.6668    0.0000 C   0  0  0  0  0  0  0  0  0  0  0  0
    6.2905   -6.1623    0.0000 C   0  0  0  0  0  0  0  0  0  0  0  0
    5.1841    0.7204    0.0000 H   0  0  0  0  0  0  0  0  0  0  0  0
    3.5193    2.4438    0.0000 H   0  0  0  0  0  0  0  0  0  0  0  0
    5.6736   -0.5323    0.0000 H   0  0  0  0  0  0  0  0  0  0  0  0
    5.5902    0.2604    0.0000 H   0  0  0  0  0  0  0  0  0  0  0  0
    3.2073    0.1218    0.0000 H   0  0  0  0  0  0  0  0  0  0  0  0
    2.6731    1.7661    0.0000 H   0  0  0  0  0  0  0  0  0  0  0  0
    5.1572   -3.1291    0.0000 H   0  0  0  0  0  0  0  0  0  0  0  0
    4.5704   -3.1167    0.0000 H   0  0  0  0  0  0  0  0  0  0  0  0
    3.9255   -3.5852    0.0000 H   0  0  0  0  0  0  0  0  0  0  0  0
    6.5450   -2.6524    0.0000 H   0  0  0  0  0  0  0  0  0  0  0  0
    2.6688    3.3523    0.0000 H   0  0  0  0  0  0  0  0  0  0  0  0
    4.0771   -5.2673    0.0000 H   0  0  0  0  0  0  0  0  0  0  0  0
    4.7220   -4.7988    0.0000 H   0  0  0  0  0  0  0  0  0  0  0  0
    5.4747    4.9723    0.0000 H   0  0  0  0  0  0  0  0  0  0  0  0
    3.9647   -1.5752    0.0000 H   0  0  0  0  0  0  0  0  0  0  0  0
    3.1720   -1.6585    0.0000 H   0  0  0  0  0  0  0  0  0  0  0  0
    2.6497    5.6992    0.0000 H   0  0  0  0  0  0  0  0  0  0  0  0
    1.8028    5.4723    0.0000 H   0  0  0  0  0  0  0  0  0  0  0  0
    2.0297    4.6254    0.0000 H   0  0  0  0  0  0  0  0  0  0  0  0
    2.1527   -5.4147    0.0000 H   0  0  0  0  0  0  0  0  0  0  0  0
    2.4670   -6.2332    0.0000 H   0  0  0  0  0  0  0  0  0  0  0  0
    3.2855   -5.9190    0.0000 H   0  0  0  0  0  0  0  0  0  0  0  0
    5.7889   -6.5267    0.0000 H   0  0  0  0  0  0  0  0  0  0  0  0
    6.6549   -6.6639    0.0000 H   0  0  0  0  0  0  0  0  0  0  0  0
    6.7921   -5.7979    0.0000 H   0  0  0  0  0  0  0  0  0  0  0  0
  1 32  1  0  0  0  0
  2 32  1  0  0  0  0
  3 32  1  0  0  0  0
  4 26  1  0  0  0  0
  4 33  1  0  0  0  0
  5  7  1  0  0  0  0
  5  8  1  0  0  0  0
  5  9  2  0  0  0  0
  5 15  1  0  0  0  0
  6 17  1  0  0  0  0
  6 18  1  0  0  0  0
  7 19  1  0  0  0  0
  8 30  1  0  0  0  0
 10 27  1  0  0  0  0
 10 34  1  0  0  0  0
 11 25  2  0  0  0  0
 12 27  2  0  0  0  0
 13 29  2  0  0  0  0
 18 14  1  6  0  0  0
 14 24  1  0  0  0  0
 14 25  1  0  0  0  0
 22 15  1  6  0  0  0
 15 44  1  0  0  0  0
 16 25  1  0  0  0  0
 16 29  1  0  0  0  0
 16 48  1  0  0  0  0
 17 19  1  6  0  0  0
 17 20  1  0  0  0  0
 17 35  1  0  0  0  0
 18 21  1  0  0  0  0
 18 36  1  0  0  0  0
 19 37  1  0  0  0  0
 19 38  1  0  0  0  0
 20 21  2  0  0  0  0
 20 39  1  0  0  0  0
 21 40  1  0  0  0  0
 22 23  1  0  0  0  0
 22 27  1  0  0  0  0
 22 41  1  0  0  0  0
 23 26  1  0  0  0  0
 23 42  1  0  0  0  0
 23 43  1  0  0  0  0
 24 28  2  0  0  0  0
 24 45  1  0  0  0  0
 26 46  1  0  0  0  0
 26 47  1  0  0  0  0
 28 29  1  0  0  0  0
 28 31  1  0  0  0  0
 30 32  1  0  0  0  0
 30 49  1  0  0  0  0
 30 50  1  0  0  0  0
 31 51  1  0  0  0  0
 31 52  1  0  0  0  0
 31 53  1  0  0  0  0
 33 54  1  0  0  0  0
 33 55  1  0  0  0  0
 33 56  1  0  0  0  0
 34 57  1  0  0  0  0
 34 58  1  0  0  0  0
 34 59  1  0  0  0  0
M  END
> <PUBCHEM_COMPOUND_CID>
511183
> <PUBCHEM_COMPOUND_CANONICALIZED>
1
> <PUBCHEM_CACTVS_COMPLEXITY>
885
> <PUBCHEM_CACTVS_HBOND_ACCEPTOR>
10
> <PUBCHEM_CACTVS_HBOND_DONOR>
2
> <PUBCHEM_CACTVS_ROTATABLE_BOND>
13
> <PUBCHEM_CACTVS_SUBSKEYS>
AAADceB7PAJGAAAAAAAAAAAAAAAAAQAAAAAgAAAAAAAAAAAAAAAAHgYQgCAADD7lwIaDCAPABRiIQiHWWICAAAAgABAICIGIAUiDBBAgIQAPEAAMVyIKIMIAAAAAAAAAAAAAAAAAAAAAAAAAAAAAAAAAAA==
> <PUBCHEM_IUPAC_OPENEYE_NAME>
methyl (2S)-2-[[[(2S,5R)-5-(5-methyl-2,4-dioxo-pyrimidin-1-yl)-2,5-dihydrofuran-2-yl]methoxy-(2,2,2-trichloroethoxy)phosphoryl]amino]-4-methylsulfanyl-butanoate
> <PUBCHEM_IUPAC_CAS_NAME>
(2S)-2-[[[(2S,5R)-5-(5-methyl-2,4-dioxo-1-pyrimidinyl)-2,5-dihydrofuran-2-yl]methoxy-(2,2,2-trichloroethoxy)phosphoryl]amino]-4-(methylthio)butanoic acid methyl ester
> <PUBCHEM_IUPAC_NAME_MARKUP>
methyl (2<I>S</I>)-2-[[[(2<I>S</I>,5<I>R</I>)-5-(5-methyl-2,4-dioxopyrimidin-1-yl)-2,5-dihydrofuran-2-yl]methoxy-(2,2,2-trichloroethoxy)phosphoryl]amino]-4-methylsulfanylbutanoate
> <PUBCHEM_IUPAC_NAME>
methyl (2S)-2-[[[(2S,5R)-5-(5-methyl-2,4-dioxopyrimidin-1-yl)-2,5-dihydrofuran-2-yl]methoxy-(2,2,2-trichloroethoxy)phosphoryl]amino]-4-methylsulfanylbutanoate
> <PUBCHEM_IUPAC_SYSTEMATIC_NAME>
methyl (2S)-2-[[[(2S,5R)-5-[5-methyl-2,4-bis(oxidanylidene)pyrimidin-1-yl]-2,5-dihydrofuran-2-yl]methoxy-[2,2,2-tris(chloranyl)ethoxy]phosphoryl]amino]-4-methylsulfanyl-butanoate
> <PUBCHEM_IUPAC_TRADITIONAL_NAME>
(2S)-2-[[[(2S,5R)-5-(2,4-diketo-5-methyl-pyrimidin-1-yl)-2,5-dihydrofuran-2-yl]methoxy-(2,2,2-trichloroethoxy)phosphoryl]amino]-4-(methylthio)butyric acid methyl ester
> <PUBCHEM_IUPAC_INCHI>
InChI=1S/C18H25Cl3N3O8PS/c1-11-8-24(17(27)22-15(11)25)14-5-4-12(32-14)9-30-33(28,31-10-18(19,20)21)23-13(6-7-34-3)16(26)29-2/h4-5,8,12-14H,6-7,9-10H2,1-3H3,(H,23,28)(H,22,25,27)/t12-,13-,14+,33?/m0/s1
> <PUBCHEM_IUPAC_INCHIKEY>
OZOOHFWUHWDEAB-VGABLECUSA-N
> <PUBCHEM_XLOGP3_AA>
1.7
> <PUBCHEM_EXACT_MASS>
579.016556
> <PUBCHEM_MOLECULAR_FORMULA>
C18H25Cl3N3O8PS
> <PUBCHEM_MOLECULAR_WEIGHT>
580.8
> <PUBCHEM_OPENEYE_CAN_SMILES>
CC1=CN(C(=O)NC1=O)C2C=CC(O2)COP(=O)(NC(CCSC)C(=O)OC)OCC(Cl)(Cl)Cl
> <PUBCHEM_OPENEYE_ISO_SMILES>
CC1=CN(C(=O)NC1=O)[C@H]2C=C[C@H](O2)COP(=O)(N[C@@H](CCSC)C(=O)OC)OCC(Cl)(Cl)Cl
> <PUBCHEM_CACTVS_TPSA>
158
> <PUBCHEM_MONOISOTOPIC_WEIGHT>
579.016556
> <PUBCHEM_TOTAL_CHARGE>
0
> <PUBCHEM_HEAVY_ATOM_COUNT>
34
> <PUBCHEM_ATOM_DEF_STEREO_COUNT>
3
> <PUBCHEM_ATOM_UDEF_STEREO_COUNT>
1
> <PUBCHEM_BOND_DEF_STEREO_COUNT>
0
> <PUBCHEM_BOND_UDEF_STEREO_COUNT>
0
> <PUBCHEM_ISOTOPIC_ATOM_COUNT>
0
> <PUBCHEM_COMPONENT_COUNT>
1
> <PUBCHEM_CACTVS_TAUTO_COUNT>
-1
> <PUBCHEM_COORDINATE_TYPE>
1
5
255
> <PUBCHEM_BONDANNOTATIONS>
18  14  6
14  24  8
14  25  8
22  15  6
16  25  8
16  29  8
17  19  6
24  28  8
28  29  8
5  15  3
$$$$
