511123
  -OEChem-10302200282D
 75 80  0     1  0  0  0  0  0999 V2000
    7.2764    1.5979    0.0000 S   0  0  0  0  0  0  0  0  0  0  0  0
    2.0000    0.7932    0.0000 F   0  0  0  0  0  0  0  0  0  0  0  0
    2.3660    2.1592    0.0000 F   0  0  0  0  0  0  0  0  0  0  0  0
    3.3660    0.4271    0.0000 F   0  0  0  0  0  0  0  0  0  0  0  0
    9.1387    2.5532    0.0000 O   0  0  0  0  0  0  0  0  0  0  0  0
   12.4825    0.3508    0.0000 O   0  0  0  0  0  0  0  0  0  0  0  0
   13.8369    0.2061    0.0000 O   0  0  0  0  0  0  0  0  0  0  0  0
    3.7320    1.7932    0.0000 O   0  0  0  0  0  0  0  0  0  0  0  0
   10.9810   -0.5126    0.0000 N   0  0  0  0  0  0  0  0  0  0  0  0
    8.8600    0.7932    0.0000 N   0  0  0  0  0  0  0  0  0  0  0  0
   13.4739   -1.4874    0.0000 N   0  0  0  0  0  0  0  0  0  0  0  0
    7.2764   -0.0116    0.0000 N   0  0  0  0  0  0  0  0  0  0  0  0
   15.1221   -0.9551    0.0000 N   0  0  0  0  0  0  0  0  0  0  0  0
   10.3988    0.2932    0.0000 C   0  0  1  0  0  0  0  0  0  0  0  0
    9.4477   -0.0159    0.0000 C   0  0  2  0  0  0  0  0  0  0  0  0
   10.3988    1.2932    0.0000 C   0  0  1  0  0  0  0  0  0  0  0  0
    9.4503   -1.0099    0.0000 C   0  0  0  0  0  0  0  0  0  0  0  0
   10.3960   -1.3163    0.0000 C   0  0  0  0  0  0  0  0  0  0  0  0
    9.4477    1.6022    0.0000 C   0  0  0  0  0  0  0  0  0  0  0  0
   11.9810   -0.5143    0.0000 C   0  0  0  0  0  0  0  0  0  0  0  0
   12.4795   -1.3812    0.0000 C   0  0  2  0  0  0  0  0  0  0  0  0
   11.2078    1.8809    0.0000 C   0  0  0  0  0  0  0  0  0  0  0  0
    7.8600    0.7932    0.0000 C   0  0  0  0  0  0  0  0  0  0  0  0
   12.0712   -2.2940    0.0000 C   0  0  0  0  0  0  0  0  0  0  0  0
   12.8132   -2.9645    0.0000 C   0  0  0  0  0  0  0  0  0  0  0  0
   13.6801   -2.4660    0.0000 C   0  0  0  0  0  0  0  0  0  0  0  0
   14.1443   -0.7455    0.0000 C   0  0  0  0  0  0  0  0  0  0  0  0
    6.3301    1.2932    0.0000 C   0  0  0  0  0  0  0  0  0  0  0  0
    6.3301    0.2932    0.0000 C   0  0  0  0  0  0  0  0  0  0  0  0
    5.4641    1.7932    0.0000 C   0  0  0  0  0  0  0  0  0  0  0  0
    5.4641   -0.2068    0.0000 C   0  0  0  0  0  0  0  0  0  0  0  0
   15.7925   -0.2131    0.0000 C   0  0  0  0  0  0  0  0  0  0  0  0
    4.5981    1.2932    0.0000 C   0  0  0  0  0  0  0  0  0  0  0  0
    4.5981    0.2932    0.0000 C   0  0  0  0  0  0  0  0  0  0  0  0
   16.7703   -0.4227    0.0000 C   0  0  0  0  0  0  0  0  0  0  0  0
   15.4851    0.7385    0.0000 C   0  0  0  0  0  0  0  0  0  0  0  0
   17.1333    1.2709    0.0000 C   0  0  0  0  0  0  0  0  0  0  0  0
   17.4407    0.3193    0.0000 C   0  0  0  0  0  0  0  0  0  0  0  0
   16.1555    1.4805    0.0000 C   0  0  0  0  0  0  0  0  0  0  0  0
   17.8037    2.0129    0.0000 C   0  0  0  0  0  0  0  0  0  0  0  0
    2.8660    1.2932    0.0000 C   0  0  0  0  0  0  0  0  0  0  0  0
   18.7815    1.8033    0.0000 C   0  0  0  0  0  0  0  0  0  0  0  0
   17.4963    2.9645    0.0000 C   0  0  0  0  0  0  0  0  0  0  0  0
   11.2075    0.5548    0.0000 H   0  0  0  0  0  0  0  0  0  0  0  0
    8.6397   -0.2796    0.0000 H   0  0  0  0  0  0  0  0  0  0  0  0
   10.9512    1.0117    0.0000 H   0  0  0  0  0  0  0  0  0  0  0  0
    8.8336   -0.9464    0.0000 H   0  0  0  0  0  0  0  0  0  0  0  0
    9.3223   -1.6166    0.0000 H   0  0  0  0  0  0  0  0  0  0  0  0
   10.1440   -1.8828    0.0000 H   0  0  0  0  0  0  0  0  0  0  0  0
   10.9329   -1.6265    0.0000 H   0  0  0  0  0  0  0  0  0  0  0  0
   12.8181   -0.8618    0.0000 H   0  0  0  0  0  0  0  0  0  0  0  0
   11.5722    1.3794    0.0000 H   0  0  0  0  0  0  0  0  0  0  0  0
   11.7094    2.2454    0.0000 H   0  0  0  0  0  0  0  0  0  0  0  0
   10.8434    2.3825    0.0000 H   0  0  0  0  0  0  0  0  0  0  0  0
   11.5348   -1.9831    0.0000 H   0  0  0  0  0  0  0  0  0  0  0  0
   11.7059   -2.7950    0.0000 H   0  0  0  0  0  0  0  0  0  0  0  0
   12.3517   -3.3785    0.0000 H   0  0  0  0  0  0  0  0  0  0  0  0
   13.1767   -3.4667    0.0000 H   0  0  0  0  0  0  0  0  0  0  0  0
   13.9313   -3.0328    0.0000 H   0  0  0  0  0  0  0  0  0  0  0  0
   14.2701   -2.2754    0.0000 H   0  0  0  0  0  0  0  0  0  0  0  0
   15.3126   -1.5451    0.0000 H   0  0  0  0  0  0  0  0  0  0  0  0
    5.4641    2.4132    0.0000 H   0  0  0  0  0  0  0  0  0  0  0  0
    5.4641   -0.8268    0.0000 H   0  0  0  0  0  0  0  0  0  0  0  0
    4.0611   -0.0168    0.0000 H   0  0  0  0  0  0  0  0  0  0  0  0
   16.9608   -1.0127    0.0000 H   0  0  0  0  0  0  0  0  0  0  0  0
   14.8789    0.8685    0.0000 H   0  0  0  0  0  0  0  0  0  0  0  0
   18.0469    0.1893    0.0000 H   0  0  0  0  0  0  0  0  0  0  0  0
   15.9649    2.0705    0.0000 H   0  0  0  0  0  0  0  0  0  0  0  0
   18.2194    2.4729    0.0000 H   0  0  0  0  0  0  0  0  0  0  0  0
   18.6515    1.1970    0.0000 H   0  0  0  0  0  0  0  0  0  0  0  0
   19.3877    1.6733    0.0000 H   0  0  0  0  0  0  0  0  0  0  0  0
   18.9115    2.4095    0.0000 H   0  0  0  0  0  0  0  0  0  0  0  0
   18.0863    3.1550    0.0000 H   0  0  0  0  0  0  0  0  0  0  0  0
   17.3058    3.5544    0.0000 H   0  0  0  0  0  0  0  0  0  0  0  0
   16.9064    2.7739    0.0000 H   0  0  0  0  0  0  0  0  0  0  0  0
  1 23  1  0  0  0  0
  1 28  1  0  0  0  0
  2 41  1  0  0  0  0
  3 41  1  0  0  0  0
  4 41  1  0  0  0  0
  5 19  2  0  0  0  0
  6 20  2  0  0  0  0
  7 27  2  0  0  0  0
  8 33  1  0  0  0  0
  8 41  1  0  0  0  0
  9 14  1  0  0  0  0
  9 18  1  0  0  0  0
  9 20  1  0  0  0  0
 10 15  1  0  0  0  0
 10 19  1  0  0  0  0
 10 23  1  0  0  0  0
 11 21  1  0  0  0  0
 11 26  1  0  0  0  0
 11 27  1  0  0  0  0
 12 23  2  0  0  0  0
 12 29  1  0  0  0  0
 13 27  1  0  0  0  0
 13 32  1  0  0  0  0
 13 61  1  0  0  0  0
 14 15  1  0  0  0  0
 14 16  1  0  0  0  0
 14 44  1  6  0  0  0
 15 17  1  0  0  0  0
 15 45  1  1  0  0  0
 16 19  1  0  0  0  0
 16 22  1  1  0  0  0
 16 46  1  0  0  0  0
 17 18  1  0  0  0  0
 17 47  1  0  0  0  0
 17 48  1  0  0  0  0
 18 49  1  0  0  0  0
 18 50  1  0  0  0  0
 21 20  1  1  0  0  0
 21 24  1  0  0  0  0
 21 51  1  0  0  0  0
 22 52  1  0  0  0  0
 22 53  1  0  0  0  0
 22 54  1  0  0  0  0
 24 25  1  0  0  0  0
 24 55  1  0  0  0  0
 24 56  1  0  0  0  0
 25 26  1  0  0  0  0
 25 57  1  0  0  0  0
 25 58  1  0  0  0  0
 26 59  1  0  0  0  0
 26 60  1  0  0  0  0
 28 29  2  0  0  0  0
 28 30  1  0  0  0  0
 29 31  1  0  0  0  0
 30 33  2  0  0  0  0
 30 62  1  0  0  0  0
 31 34  2  0  0  0  0
 31 63  1  0  0  0  0
 32 35  2  0  0  0  0
 32 36  1  0  0  0  0
 33 34  1  0  0  0  0
 34 64  1  0  0  0  0
 35 38  1  0  0  0  0
 35 65  1  0  0  0  0
 36 39  2  0  0  0  0
 36 66  1  0  0  0  0
 37 38  2  0  0  0  0
 37 39  1  0  0  0  0
 37 40  1  0  0  0  0
 38 67  1  0  0  0  0
 39 68  1  0  0  0  0
 40 42  1  0  0  0  0
 40 43  1  0  0  0  0
 40 69  1  0  0  0  0
 42 70  1  0  0  0  0
 42 71  1  0  0  0  0
 42 72  1  0  0  0  0
 43 73  1  0  0  0  0
 43 74  1  0  0  0  0
 43 75  1  0  0  0  0
M  END
> <PUBCHEM_COMPOUND_CID>
511123
> <PUBCHEM_COMPOUND_CANONICALIZED>
1
> <PUBCHEM_CACTVS_COMPLEXITY>
1070
> <PUBCHEM_CACTVS_HBOND_ACCEPTOR>
9
> <PUBCHEM_CACTVS_HBOND_DONOR>
1
> <PUBCHEM_CACTVS_ROTATABLE_BOND>
5
> <PUBCHEM_CACTVS_SUBSKEYS>
AAADcfB7uYBAAAAAAAAAAAAAAAAAAWLFiwAwYAAAAAAWAFgB9AAAHwQQAAAADSzB3hQz17PIFAisAyVydACD+KlhKjhJmD2+bJiMZrrk+buUMChs1xPI6Ce8ycAOiEAABAAAAQAQgAAIAAACAAAAAAAAAA==
> <PUBCHEM_IUPAC_OPENEYE_NAME>
(2S)-2-[(3aS,6S,6aR)-6-methyl-5-oxo-4-[6-(trifluoromethoxy)-1,3-benzothiazol-2-yl]-3,3a,6,6a-tetrahydro-2H-pyrrolo[3,2-b]pyrrole-1-carbonyl]-N-(4-isopropylphenyl)pyrrolidine-1-carboxamide
> <PUBCHEM_IUPAC_CAS_NAME>
(2S)-2-[[(3aS,6S,6aR)-6-methyl-5-oxo-4-[6-(trifluoromethoxy)-1,3-benzothiazol-2-yl]-3,3a,6,6a-tetrahydro-2H-pyrrolo[3,2-b]pyrrol-1-yl]-oxomethyl]-N-(4-propan-2-ylphenyl)-1-pyrrolidinecarboxamide
> <PUBCHEM_IUPAC_NAME_MARKUP>
(2<I>S</I>)-2-[(3<I>a</I><I>S</I>,6<I>S</I>,6<I>a</I><I>R</I>)-6-methyl-5-oxo-4-[6-(trifluoromethoxy)-1,3-benzothiazol-2-yl]-3,3<I>a</I>,6,6<I>a</I>-tetrahydro-2<I>H</I>-pyrrolo[3,2-b]pyrrole-1-carbonyl]-<I>N</I>-(4-propan-2-ylphenyl)pyrrolidine-1-carboxamide
> <PUBCHEM_IUPAC_NAME>
(2S)-2-[(3aS,6S,6aR)-6-methyl-5-oxo-4-[6-(trifluoromethoxy)-1,3-benzothiazol-2-yl]-3,3a,6,6a-tetrahydro-2H-pyrrolo[3,2-b]pyrrole-1-carbonyl]-N-(4-propan-2-ylphenyl)pyrrolidine-1-carboxamide
> <PUBCHEM_IUPAC_SYSTEMATIC_NAME>
(2S)-2-[[(3aS,6S,6aR)-6-methyl-5-oxidanylidene-4-[6-(trifluoromethyloxy)-1,3-benzothiazol-2-yl]-3,3a,6,6a-tetrahydro-2H-pyrrolo[3,2-b]pyrrol-1-yl]carbonyl]-N-(4-propan-2-ylphenyl)pyrrolidine-1-carboxamide
> <PUBCHEM_IUPAC_TRADITIONAL_NAME>
(2S)-2-[(3aS,6S,6aR)-5-keto-6-methyl-4-[6-(trifluoromethoxy)-1,3-benzothiazol-2-yl]-3,3a,6,6a-tetrahydro-2H-pyrrolo[3,2-b]pyrrole-1-carbonyl]-N-p-cumenyl-pyrrolidine-1-carboxamide
> <PUBCHEM_IUPAC_INCHI>
InChI=1S/C30H32F3N5O4S/c1-16(2)18-6-8-19(9-7-18)34-28(41)36-13-4-5-23(36)27(40)37-14-12-22-25(37)17(3)26(39)38(22)29-35-21-11-10-20(15-24(21)43-29)42-30(31,32)33/h6-11,15-17,22-23,25H,4-5,12-14H2,1-3H3,(H,34,41)/t17-,22-,23-,25+/m0/s1
> <PUBCHEM_IUPAC_INCHIKEY>
LHNABCPKSWARHX-XVYJZYCRSA-N
> <PUBCHEM_XLOGP3_AA>
5.9
> <PUBCHEM_EXACT_MASS>
615.21271018
> <PUBCHEM_MOLECULAR_FORMULA>
C30H32F3N5O4S
> <PUBCHEM_MOLECULAR_WEIGHT>
615.7
> <PUBCHEM_OPENEYE_CAN_SMILES>
CC1C2C(CCN2C(=O)C3CCCN3C(=O)NC4=CC=C(C=C4)C(C)C)N(C1=O)C5=NC6=C(S5)C=C(C=C6)OC(F)(F)F
> <PUBCHEM_OPENEYE_ISO_SMILES>
C[C@H]1[C@@H]2[C@H](CCN2C(=O)[C@@H]3CCCN3C(=O)NC4=CC=C(C=C4)C(C)C)N(C1=O)C5=NC6=C(S5)C=C(C=C6)OC(F)(F)F
> <PUBCHEM_CACTVS_TPSA>
123
> <PUBCHEM_MONOISOTOPIC_WEIGHT>
615.21271018
> <PUBCHEM_TOTAL_CHARGE>
0
> <PUBCHEM_HEAVY_ATOM_COUNT>
43
> <PUBCHEM_ATOM_DEF_STEREO_COUNT>
4
> <PUBCHEM_ATOM_UDEF_STEREO_COUNT>
0
> <PUBCHEM_BOND_DEF_STEREO_COUNT>
0
> <PUBCHEM_BOND_UDEF_STEREO_COUNT>
0
> <PUBCHEM_ISOTOPIC_ATOM_COUNT>
0
> <PUBCHEM_COMPONENT_COUNT>
1
> <PUBCHEM_CACTVS_TAUTO_COUNT>
-1
> <PUBCHEM_COORDINATE_TYPE>
1
5
255
> <PUBCHEM_BONDANNOTATIONS>
1  23  8
1  28  8
12  23  8
12  29  8
14  44  6
15  45  5
16  22  5
21  20  5
28  29  8
28  30  8
29  31  8
30  33  8
31  34  8
32  35  8
32  36  8
33  34  8
35  38  8
36  39  8
37  38  8
37  39  8
$$$$
