511147
  -OEChem-10302200282D
 93 96  0     1  0  0  0  0  0999 V2000
    7.2641    0.4991    0.0000 O   0  0  0  0  0  0  0  0  0  0  0  0
   11.2951   -1.0418    0.0000 O   0  0  0  0  0  0  0  0  0  0  0  0
   10.6141   -2.2214    0.0000 O   0  0  0  0  0  0  0  0  0  0  0  0
    6.3981   -1.0009    0.0000 O   0  0  0  0  0  0  0  0  0  0  0  0
   11.9275    2.5078    0.0000 O   0  0  0  0  0  0  0  0  0  0  0  0
    9.2574   -5.5620    0.0000 O   0  0  0  0  0  0  0  0  0  0  0  0
   15.4989    2.0124    0.0000 O   0  0  0  0  0  0  0  0  0  0  0  0
    9.7128   -0.3373    0.0000 N   0  0  0  0  0  0  0  0  0  0  0  0
   12.1086    0.7853    0.0000 N   0  0  0  0  0  0  0  0  0  0  0  0
    9.0318   -2.9259    0.0000 N   0  0  0  0  0  0  0  0  0  0  0  0
    5.5321    0.4991    0.0000 N   0  0  0  0  0  0  0  0  0  0  0  0
   13.9166    2.7169    0.0000 N   0  0  0  0  0  0  0  0  0  0  0  0
   16.3124    3.8395    0.0000 N   0  0  0  0  0  0  0  0  0  0  0  0
   15.1368    5.4575    0.0000 N   0  0  0  0  0  0  0  0  0  0  0  0
    9.2128   -1.2034    0.0000 C   0  0  1  0  0  0  0  0  0  0  0  0
    8.1301   -0.0009    0.0000 C   0  0  2  0  0  0  0  0  0  0  0  0
    8.2347   -0.9955    0.0000 C   0  0  0  0  0  0  0  0  0  0  0  0
    9.0437    0.4058    0.0000 C   0  0  0  0  0  0  0  0  0  0  0  0
   10.7073   -0.2328    0.0000 C   0  0  0  0  0  0  0  0  0  0  0  0
   11.1141    0.6807    0.0000 C   0  0  1  0  0  0  0  0  0  0  0  0
    9.6196   -2.1169    0.0000 C   0  0  0  0  0  0  0  0  0  0  0  0
   10.5263    1.4897    0.0000 C   0  0  0  0  0  0  0  0  0  0  0  0
    6.3981   -0.0009    0.0000 C   0  0  0  0  0  0  0  0  0  0  0  0
   10.9330    2.4033    0.0000 C   0  0  0  0  0  0  0  0  0  0  0  0
    9.5318    1.3852    0.0000 C   0  0  0  0  0  0  0  0  0  0  0  0
    9.4385   -3.8395    0.0000 C   0  0  3  0  0  0  0  0  0  0  0  0
   12.5153    1.6988    0.0000 C   0  0  0  0  0  0  0  0  0  0  0  0
   13.5099    1.8033    0.0000 C   0  0  1  0  0  0  0  0  0  0  0  0
    5.5321    1.4991    0.0000 C   0  0  0  0  0  0  0  0  0  0  0  0
    4.6660   -0.0009    0.0000 C   0  0  0  0  0  0  0  0  0  0  0  0
   14.0976    0.9943    0.0000 C   0  0  0  0  0  0  0  0  0  0  0  0
    4.6660    1.9991    0.0000 C   0  0  0  0  0  0  0  0  0  0  0  0
   10.4330   -3.9440    0.0000 C   0  0  0  0  0  0  0  0  0  0  0  0
    3.8000    0.4991    0.0000 C   0  0  0  0  0  0  0  0  0  0  0  0
    3.8000    1.4991    0.0000 C   0  0  0  0  0  0  0  0  0  0  0  0
    8.8507   -4.6485    0.0000 C   0  0  0  0  0  0  0  0  0  0  0  0
   15.0922    1.0988    0.0000 C   0  0  0  0  0  0  0  0  0  0  0  0
   13.6909    0.0808    0.0000 C   0  0  0  0  0  0  0  0  0  0  0  0
    2.9061   -0.0356    0.0000 C   0  0  0  0  0  0  0  0  0  0  0  0
   10.8398   -4.8576    0.0000 C   0  0  0  0  0  0  0  0  0  0  0  0
    2.9061    2.0337    0.0000 C   0  0  0  0  0  0  0  0  0  0  0  0
    2.0000    0.4782    0.0000 C   0  0  0  0  0  0  0  0  0  0  0  0
    2.0000    1.5199    0.0000 C   0  0  0  0  0  0  0  0  0  0  0  0
   14.9111    2.8214    0.0000 C   0  0  0  0  0  0  0  0  0  0  0  0
   15.3178    3.7350    0.0000 C   0  0  0  0  0  0  0  0  0  0  0  0
   14.7301    4.5440    0.0000 C   0  0  0  0  0  0  0  0  0  0  0  0
   16.7191    4.7530    0.0000 C   0  0  0  0  0  0  0  0  0  0  0  0
   16.1313    5.5620    0.0000 C   0  0  0  0  0  0  0  0  0  0  0  0
    9.8320   -1.2358    0.0000 H   0  0  0  0  0  0  0  0  0  0  0  0
    7.6102   -0.3386    0.0000 H   0  0  0  0  0  0  0  0  0  0  0  0
    7.6147   -0.9955    0.0000 H   0  0  0  0  0  0  0  0  0  0  0  0
    8.1699   -1.6121    0.0000 H   0  0  0  0  0  0  0  0  0  0  0  0
    9.5453    0.7702    0.0000 H   0  0  0  0  0  0  0  0  0  0  0  0
    8.7337    0.9427    0.0000 H   0  0  0  0  0  0  0  0  0  0  0  0
   11.4785    0.1791    0.0000 H   0  0  0  0  0  0  0  0  0  0  0  0
   10.2741    0.9233    0.0000 H   0  0  0  0  0  0  0  0  0  0  0  0
   12.4730    0.2837    0.0000 H   0  0  0  0  0  0  0  0  0  0  0  0
    8.4152   -2.8611    0.0000 H   0  0  0  0  0  0  0  0  0  0  0  0
   11.4994    2.1511    0.0000 H   0  0  0  0  0  0  0  0  0  0  0  0
   11.1852    2.9697    0.0000 H   0  0  0  0  0  0  0  0  0  0  0  0
   10.3666    2.6555    0.0000 H   0  0  0  0  0  0  0  0  0  0  0  0
    9.4670    2.0018    0.0000 H   0  0  0  0  0  0  0  0  0  0  0  0
    8.9152    1.3204    0.0000 H   0  0  0  0  0  0  0  0  0  0  0  0
    9.5966    0.7686    0.0000 H   0  0  0  0  0  0  0  0  0  0  0  0
    9.8029   -3.3379    0.0000 H   0  0  0  0  0  0  0  0  0  0  0  0
   13.1454    2.3049    0.0000 H   0  0  0  0  0  0  0  0  0  0  0  0
    6.1426    1.3914    0.0000 H   0  0  0  0  0  0  0  0  0  0  0  0
    5.7441    2.0817    0.0000 H   0  0  0  0  0  0  0  0  0  0  0  0
    4.2675   -0.4759    0.0000 H   0  0  0  0  0  0  0  0  0  0  0  0
    5.0646   -0.4759    0.0000 H   0  0  0  0  0  0  0  0  0  0  0  0
   14.3498    1.5607    0.0000 H   0  0  0  0  0  0  0  0  0  0  0  0
    5.0646    2.4740    0.0000 H   0  0  0  0  0  0  0  0  0  0  0  0
    4.2675    2.4740    0.0000 H   0  0  0  0  0  0  0  0  0  0  0  0
   11.0346   -3.7940    0.0000 H   0  0  0  0  0  0  0  0  0  0  0  0
   10.3898   -3.3255    0.0000 H   0  0  0  0  0  0  0  0  0  0  0  0
    8.2341   -4.5837    0.0000 H   0  0  0  0  0  0  0  0  0  0  0  0
   13.5522    3.2185    0.0000 H   0  0  0  0  0  0  0  0  0  0  0  0
   15.1570    0.4822    0.0000 H   0  0  0  0  0  0  0  0  0  0  0  0
   15.7088    1.1636    0.0000 H   0  0  0  0  0  0  0  0  0  0  0  0
   15.0274    1.7154    0.0000 H   0  0  0  0  0  0  0  0  0  0  0  0
   13.1245    0.3329    0.0000 H   0  0  0  0  0  0  0  0  0  0  0  0
   13.4387   -0.4856    0.0000 H   0  0  0  0  0  0  0  0  0  0  0  0
   14.2573   -0.1714    0.0000 H   0  0  0  0  0  0  0  0  0  0  0  0
    2.9132   -0.6556    0.0000 H   0  0  0  0  0  0  0  0  0  0  0  0
   10.2734   -5.1097    0.0000 H   0  0  0  0  0  0  0  0  0  0  0  0
   11.0919   -5.4239    0.0000 H   0  0  0  0  0  0  0  0  0  0  0  0
   11.4062   -4.6054    0.0000 H   0  0  0  0  0  0  0  0  0  0  0  0
    2.9132    2.6537    0.0000 H   0  0  0  0  0  0  0  0  0  0  0  0
    1.4643    0.1662    0.0000 H   0  0  0  0  0  0  0  0  0  0  0  0
    1.4643    1.8320    0.0000 H   0  0  0  0  0  0  0  0  0  0  0  0
   14.1135    4.4792    0.0000 H   0  0  0  0  0  0  0  0  0  0  0  0
   17.3357    4.8178    0.0000 H   0  0  0  0  0  0  0  0  0  0  0  0
   16.3835    6.1284    0.0000 H   0  0  0  0  0  0  0  0  0  0  0  0
 16  1  1  1  0  0  0
  1 23  1  0  0  0  0
  2 19  2  0  0  0  0
  3 21  2  0  0  0  0
  4 23  2  0  0  0  0
  5 27  2  0  0  0  0
  6 36  2  0  0  0  0
  7 44  2  0  0  0  0
  8 15  1  0  0  0  0
  8 18  1  0  0  0  0
  8 19  1  0  0  0  0
 20  9  1  1  0  0  0
  9 27  1  0  0  0  0
  9 57  1  0  0  0  0
 10 21  1  0  0  0  0
 10 26  1  0  0  0  0
 10 58  1  0  0  0  0
 11 23  1  0  0  0  0
 11 29  1  0  0  0  0
 11 30  1  0  0  0  0
 28 12  1  6  0  0  0
 12 44  1  0  0  0  0
 12 77  1  0  0  0  0
 13 45  2  0  0  0  0
 13 47  1  0  0  0  0
 14 46  2  0  0  0  0
 14 48  1  0  0  0  0
 15 17  1  0  0  0  0
 15 21  1  6  0  0  0
 15 49  1  0  0  0  0
 16 17  1  0  0  0  0
 16 18  1  0  0  0  0
 16 50  1  0  0  0  0
 17 51  1  0  0  0  0
 17 52  1  0  0  0  0
 18 53  1  0  0  0  0
 18 54  1  0  0  0  0
 19 20  1  0  0  0  0
 20 22  1  0  0  0  0
 20 55  1  0  0  0  0
 22 24  1  0  0  0  0
 22 25  1  0  0  0  0
 22 56  1  0  0  0  0
 24 59  1  0  0  0  0
 24 60  1  0  0  0  0
 24 61  1  0  0  0  0
 25 62  1  0  0  0  0
 25 63  1  0  0  0  0
 25 64  1  0  0  0  0
 26 33  1  0  0  0  0
 26 36  1  0  0  0  0
 26 65  1  0  0  0  0
 27 28  1  0  0  0  0
 28 31  1  0  0  0  0
 28 66  1  0  0  0  0
 29 32  1  0  0  0  0
 29 67  1  0  0  0  0
 29 68  1  0  0  0  0
 30 34  1  0  0  0  0
 30 69  1  0  0  0  0
 30 70  1  0  0  0  0
 31 37  1  0  0  0  0
 31 38  1  0  0  0  0
 31 71  1  0  0  0  0
 32 35  1  0  0  0  0
 32 72  1  0  0  0  0
 32 73  1  0  0  0  0
 33 40  1  0  0  0  0
 33 74  1  0  0  0  0
 33 75  1  0  0  0  0
 34 35  1  0  0  0  0
 34 39  2  0  0  0  0
 35 41  2  0  0  0  0
 36 76  1  0  0  0  0
 37 78  1  0  0  0  0
 37 79  1  0  0  0  0
 37 80  1  0  0  0  0
 38 81  1  0  0  0  0
 38 82  1  0  0  0  0
 38 83  1  0  0  0  0
 39 42  1  0  0  0  0
 39 84  1  0  0  0  0
 40 85  1  0  0  0  0
 40 86  1  0  0  0  0
 40 87  1  0  0  0  0
 41 43  1  0  0  0  0
 41 88  1  0  0  0  0
 42 43  2  0  0  0  0
 42 89  1  0  0  0  0
 43 90  1  0  0  0  0
 44 45  1  0  0  0  0
 45 46  1  0  0  0  0
 46 91  1  0  0  0  0
 47 48  2  0  0  0  0
 47 92  1  0  0  0  0
 48 93  1  0  0  0  0
M  END
> <PUBCHEM_COMPOUND_CID>
511147
> <PUBCHEM_COMPOUND_CANONICALIZED>
1
> <PUBCHEM_CACTVS_COMPLEXITY>
1170
> <PUBCHEM_CACTVS_HBOND_ACCEPTOR>
9
> <PUBCHEM_CACTVS_HBOND_DONOR>
3
> <PUBCHEM_CACTVS_ROTATABLE_BOND>
13
> <PUBCHEM_CACTVS_SUBSKEYS>
AAADcfB/uAAAAAAAAAAAAAAAAAAAAWAAAAA8WIAAAAAAAACxwAAAHgAQAAAADTzhngY+iJPIFACoAz133ACCgCQ3EiAI2IG4dMgKYHrA0TGdIIhmlgDYiMc6gYAOgAAAAAAQAAAAAAAAACAAAAAAAAAAAA==
> <PUBCHEM_IUPAC_OPENEYE_NAME>
[(3R,5S)-5-(1-formylpropylcarbamoyl)-1-[(2R)-3-methyl-2-[[(2R)-3-methyl-2-(pyrazine-2-carbonylamino)butanoyl]amino]butanoyl]pyrrolidin-3-yl] 3,4-dihydro-1H-isoquinoline-2-carboxylate
> <PUBCHEM_IUPAC_CAS_NAME>
3,4-dihydro-1H-isoquinoline-2-carboxylic acid [(3R,5S)-1-[(2R)-3-methyl-2-[[(2R)-3-methyl-1-oxo-2-[[oxo(2-pyrazinyl)methyl]amino]butyl]amino]-1-oxobutyl]-5-[oxo-(1-oxobutan-2-ylamino)methyl]-3-pyrrolidinyl] ester
> <PUBCHEM_IUPAC_NAME_MARKUP>
[(3<I>R</I>,5<I>S</I>)-1-[(2<I>R</I>)-3-methyl-2-[[(2<I>R</I>)-3-methyl-2-(pyrazine-2-carbonylamino)butanoyl]amino]butanoyl]-5-(1-oxobutan-2-ylcarbamoyl)pyrrolidin-3-yl] 3,4-dihydro-1<I>H</I>-isoquinoline-2-carboxylate
> <PUBCHEM_IUPAC_NAME>
[(3R,5S)-1-[(2R)-3-methyl-2-[[(2R)-3-methyl-2-(pyrazine-2-carbonylamino)butanoyl]amino]butanoyl]-5-(1-oxobutan-2-ylcarbamoyl)pyrrolidin-3-yl] 3,4-dihydro-1H-isoquinoline-2-carboxylate
> <PUBCHEM_IUPAC_SYSTEMATIC_NAME>
[(3R,5S)-1-[(2R)-3-methyl-2-[[(2R)-3-methyl-2-(pyrazin-2-ylcarbonylamino)butanoyl]amino]butanoyl]-5-(1-oxidanylidenebutan-2-ylcarbamoyl)pyrrolidin-3-yl] 3,4-dihydro-1H-isoquinoline-2-carboxylate
> <PUBCHEM_IUPAC_TRADITIONAL_NAME>
3,4-dihydro-1H-isoquinoline-2-carboxylic acid [(3R,5S)-5-(1-formylpropylcarbamoyl)-1-[(2R)-3-methyl-2-[[(2R)-3-methyl-2-(pyrazinoylamino)butanoyl]amino]butanoyl]pyrrolidin-3-yl] ester
> <PUBCHEM_IUPAC_INCHI>
InChI=1S/C34H45N7O7/c1-6-24(19-42)37-31(44)27-15-25(48-34(47)40-14-11-22-9-7-8-10-23(22)17-40)18-41(27)33(46)29(21(4)5)39-32(45)28(20(2)3)38-30(43)26-16-35-12-13-36-26/h7-10,12-13,16,19-21,24-25,27-29H,6,11,14-15,17-18H2,1-5H3,(H,37,44)(H,38,43)(H,39,45)/t24?,25-,27+,28-,29-/m1/s1
> <PUBCHEM_IUPAC_INCHIKEY>
TXVKSSNIKFWGGC-DBICJYJTSA-N
> <PUBCHEM_XLOGP3_AA>
2.5
> <PUBCHEM_EXACT_MASS>
663.33804680
> <PUBCHEM_MOLECULAR_FORMULA>
C34H45N7O7
> <PUBCHEM_MOLECULAR_WEIGHT>
663.8
> <PUBCHEM_OPENEYE_CAN_SMILES>
CCC(C=O)NC(=O)C1CC(CN1C(=O)C(C(C)C)NC(=O)C(C(C)C)NC(=O)C2=NC=CN=C2)OC(=O)N3CCC4=CC=CC=C4C3
> <PUBCHEM_OPENEYE_ISO_SMILES>
CCC(C=O)NC(=O)[C@@H]1C[C@H](CN1C(=O)[C@@H](C(C)C)NC(=O)[C@@H](C(C)C)NC(=O)C2=NC=CN=C2)OC(=O)N3CCC4=CC=CC=C4C3
> <PUBCHEM_CACTVS_TPSA>
180
> <PUBCHEM_MONOISOTOPIC_WEIGHT>
663.33804680
> <PUBCHEM_TOTAL_CHARGE>
0
> <PUBCHEM_HEAVY_ATOM_COUNT>
48
> <PUBCHEM_ATOM_DEF_STEREO_COUNT>
4
> <PUBCHEM_ATOM_UDEF_STEREO_COUNT>
1
> <PUBCHEM_BOND_DEF_STEREO_COUNT>
0
> <PUBCHEM_BOND_UDEF_STEREO_COUNT>
0
> <PUBCHEM_ISOTOPIC_ATOM_COUNT>
0
> <PUBCHEM_COMPONENT_COUNT>
1
> <PUBCHEM_CACTVS_TAUTO_COUNT>
-1
> <PUBCHEM_COORDINATE_TYPE>
1
5
255
> <PUBCHEM_BONDANNOTATIONS>
16  1  5
28  12  6
13  45  8
13  47  8
14  46  8
14  48  8
15  21  6
26  33  3
34  35  8
34  39  8
35  41  8
39  42  8
41  43  8
42  43  8
45  46  8
47  48  8
20  9  5
$$$$
