511108
  -OEChem-10302200282D
 80 84  0     1  0  0  0  0  0999 V2000
    5.5765   -3.5480    0.0000 O   0  0  0  0  0  0  0  0  0  0  0  0
    3.6286   -1.0448    0.0000 O   0  0  0  0  0  0  0  0  0  0  0  0
    6.7565    1.4548    0.0000 O   0  0  0  0  0  0  0  0  0  0  0  0
    7.3126    2.6982    0.0000 O   0  0  0  0  0  0  0  0  0  0  0  0
    5.2164   -1.8538    0.0000 N   0  0  0  0  0  0  0  0  0  0  0  0
    7.1136   -0.2400    0.0000 N   0  0  0  0  0  0  0  0  0  0  0  0
    8.8111    1.8296    0.0000 N   0  0  0  0  0  0  0  0  0  0  0  0
    8.8141    3.5616    0.0000 N   0  0  0  0  0  0  0  0  0  0  0  0
    2.9782   -2.7037    0.0000 C   0  0  0  0  0  0  0  0  0  0  0  0
    3.1861   -3.6819    0.0000 C   0  0  0  0  0  0  0  0  0  0  0  0
    3.9292   -3.0128    0.0000 C   0  0  0  0  0  0  0  0  0  0  0  0
    4.9074   -2.8048    0.0000 C   0  0  0  0  0  0  0  0  0  0  0  0
    2.0000   -2.9116    0.0000 C   0  0  0  0  0  0  0  0  0  0  0  0
    3.2872   -1.7527    0.0000 C   0  0  0  0  0  0  0  0  0  0  0  0
    2.2079   -3.8898    0.0000 C   0  0  0  0  0  0  0  0  0  0  0  0
    3.8552   -4.4250    0.0000 C   0  0  0  0  0  0  0  0  0  0  0  0
    6.1674   -1.5448    0.0000 C   0  0  2  0  0  0  0  0  0  0  0  0
    6.1674   -0.5448    0.0000 C   0  0  1  0  0  0  0  0  0  0  0  0
    5.2164   -0.2357    0.0000 C   0  0  1  0  0  0  0  0  0  0  0  0
    7.1136   -1.8495    0.0000 C   0  0  0  0  0  0  0  0  0  0  0  0
    4.6286   -1.0448    0.0000 C   0  0  0  0  0  0  0  0  0  0  0  0
    7.6972   -1.0448    0.0000 C   0  0  0  0  0  0  0  0  0  0  0  0
    4.9074    0.7153    0.0000 C   0  0  0  0  0  0  0  0  0  0  0  0
    7.4243    0.7105    0.0000 C   0  0  0  0  0  0  0  0  0  0  0  0
    8.4028    0.9167    0.0000 C   0  0  2  0  0  0  0  0  0  0  0  0
    9.1448    0.2463    0.0000 C   0  0  0  0  0  0  0  0  0  0  0  0
   10.0117    0.7448    0.0000 C   0  0  0  0  0  0  0  0  0  0  0  0
    9.8055    1.7233    0.0000 C   0  0  0  0  0  0  0  0  0  0  0  0
    8.3126    2.6964    0.0000 C   0  0  0  0  0  0  0  0  0  0  0  0
    9.8141    3.5599    0.0000 C   0  0  0  0  0  0  0  0  0  0  0  0
   10.3156    4.4250    0.0000 C   0  0  0  0  0  0  0  0  0  0  0  0
   10.3126    2.6930    0.0000 C   0  0  0  0  0  0  0  0  0  0  0  0
   11.3156    4.4233    0.0000 C   0  0  0  0  0  0  0  0  0  0  0  0
   11.3126    2.6912    0.0000 C   0  0  0  0  0  0  0  0  0  0  0  0
   11.8141    3.5564    0.0000 C   0  0  0  0  0  0  0  0  0  0  0  0
   12.8141    3.5547    0.0000 C   0  0  0  0  0  0  0  0  0  0  0  0
   13.3156    4.4198    0.0000 C   0  0  0  0  0  0  0  0  0  0  0  0
   13.3126    2.6878    0.0000 C   0  0  0  0  0  0  0  0  0  0  0  0
    4.2107   -3.5652    0.0000 H   0  0  0  0  0  0  0  0  0  0  0  0
    1.8711   -2.3052    0.0000 H   0  0  0  0  0  0  0  0  0  0  0  0
    1.3936   -3.0406    0.0000 H   0  0  0  0  0  0  0  0  0  0  0  0
    2.1289   -3.5181    0.0000 H   0  0  0  0  0  0  0  0  0  0  0  0
    3.8768   -1.9443    0.0000 H   0  0  0  0  0  0  0  0  0  0  0  0
    3.4788   -1.1630    0.0000 H   0  0  0  0  0  0  0  0  0  0  0  0
    2.6975   -1.5611    0.0000 H   0  0  0  0  0  0  0  0  0  0  0  0
    2.0790   -3.2833    0.0000 H   0  0  0  0  0  0  0  0  0  0  0  0
    1.6015   -4.0187    0.0000 H   0  0  0  0  0  0  0  0  0  0  0  0
    2.3368   -4.4962    0.0000 H   0  0  0  0  0  0  0  0  0  0  0  0
    3.3944   -4.8399    0.0000 H   0  0  0  0  0  0  0  0  0  0  0  0
    4.2700   -4.8858    0.0000 H   0  0  0  0  0  0  0  0  0  0  0  0
    4.3159   -4.0102    0.0000 H   0  0  0  0  0  0  0  0  0  0  0  0
    6.1685   -2.3948    0.0000 H   0  0  0  0  0  0  0  0  0  0  0  0
    6.1685    0.3052    0.0000 H   0  0  0  0  0  0  0  0  0  0  0  0
    5.6548    0.2027    0.0000 H   0  0  0  0  0  0  0  0  0  0  0  0
    6.8626   -2.4164    0.0000 H   0  0  0  0  0  0  0  0  0  0  0  0
    7.6510   -2.1587    0.0000 H   0  0  0  0  0  0  0  0  0  0  0  0
    8.1581   -1.4595    0.0000 H   0  0  0  0  0  0  0  0  0  0  0  0
    8.1581   -0.6300    0.0000 H   0  0  0  0  0  0  0  0  0  0  0  0
    5.4970    0.9069    0.0000 H   0  0  0  0  0  0  0  0  0  0  0  0
    4.7158    1.3050    0.0000 H   0  0  0  0  0  0  0  0  0  0  0  0
    4.3177    0.5237    0.0000 H   0  0  0  0  0  0  0  0  0  0  0  0
    8.0135    1.3992    0.0000 H   0  0  0  0  0  0  0  0  0  0  0  0
    8.6833   -0.1678    0.0000 H   0  0  0  0  0  0  0  0  0  0  0  0
    9.5084   -0.2559    0.0000 H   0  0  0  0  0  0  0  0  0  0  0  0
   10.2629    0.1780    0.0000 H   0  0  0  0  0  0  0  0  0  0  0  0
   10.6017    0.9354    0.0000 H   0  0  0  0  0  0  0  0  0  0  0  0
   10.4222    1.7870    0.0000 H   0  0  0  0  0  0  0  0  0  0  0  0
    9.8065    2.3433    0.0000 H   0  0  0  0  0  0  0  0  0  0  0  0
    8.5051    4.0991    0.0000 H   0  0  0  0  0  0  0  0  0  0  0  0
   10.0066    4.9625    0.0000 H   0  0  0  0  0  0  0  0  0  0  0  0
   10.0017    2.1566    0.0000 H   0  0  0  0  0  0  0  0  0  0  0  0
   11.6266    4.9597    0.0000 H   0  0  0  0  0  0  0  0  0  0  0  0
   11.6217    2.1538    0.0000 H   0  0  0  0  0  0  0  0  0  0  0  0
   12.5051    4.0922    0.0000 H   0  0  0  0  0  0  0  0  0  0  0  0
   13.8520    4.1089    0.0000 H   0  0  0  0  0  0  0  0  0  0  0  0
   13.6265    4.9562    0.0000 H   0  0  0  0  0  0  0  0  0  0  0  0
   12.7792    4.7308    0.0000 H   0  0  0  0  0  0  0  0  0  0  0  0
   12.7752    2.3787    0.0000 H   0  0  0  0  0  0  0  0  0  0  0  0
   13.6217    2.1503    0.0000 H   0  0  0  0  0  0  0  0  0  0  0  0
   13.8501    2.9969    0.0000 H   0  0  0  0  0  0  0  0  0  0  0  0
  1 12  2  0  0  0  0
  2 21  2  0  0  0  0
  3 24  2  0  0  0  0
  4 29  2  0  0  0  0
  5 12  1  0  0  0  0
  5 17  1  0  0  0  0
  5 21  1  0  0  0  0
  6 18  1  0  0  0  0
  6 22  1  0  0  0  0
  6 24  1  0  0  0  0
  7 25  1  0  0  0  0
  7 28  1  0  0  0  0
  7 29  1  0  0  0  0
  8 29  1  0  0  0  0
  8 30  1  0  0  0  0
  8 69  1  0  0  0  0
  9 10  1  0  0  0  0
  9 11  1  0  0  0  0
  9 13  1  0  0  0  0
  9 14  1  0  0  0  0
 10 11  1  0  0  0  0
 10 15  1  0  0  0  0
 10 16  1  0  0  0  0
 11 12  1  0  0  0  0
 11 39  1  0  0  0  0
 13 40  1  0  0  0  0
 13 41  1  0  0  0  0
 13 42  1  0  0  0  0
 14 43  1  0  0  0  0
 14 44  1  0  0  0  0
 14 45  1  0  0  0  0
 15 46  1  0  0  0  0
 15 47  1  0  0  0  0
 15 48  1  0  0  0  0
 16 49  1  0  0  0  0
 16 50  1  0  0  0  0
 16 51  1  0  0  0  0
 17 18  1  0  0  0  0
 17 20  1  0  0  0  0
 17 52  1  1  0  0  0
 18 19  1  0  0  0  0
 18 53  1  6  0  0  0
 19 21  1  0  0  0  0
 19 23  1  1  0  0  0
 19 54  1  0  0  0  0
 20 22  1  0  0  0  0
 20 55  1  0  0  0  0
 20 56  1  0  0  0  0
 22 57  1  0  0  0  0
 22 58  1  0  0  0  0
 23 59  1  0  0  0  0
 23 60  1  0  0  0  0
 23 61  1  0  0  0  0
 25 24  1  1  0  0  0
 25 26  1  0  0  0  0
 25 62  1  0  0  0  0
 26 27  1  0  0  0  0
 26 63  1  0  0  0  0
 26 64  1  0  0  0  0
 27 28  1  0  0  0  0
 27 65  1  0  0  0  0
 27 66  1  0  0  0  0
 28 67  1  0  0  0  0
 28 68  1  0  0  0  0
 30 31  2  0  0  0  0
 30 32  1  0  0  0  0
 31 33  1  0  0  0  0
 31 70  1  0  0  0  0
 32 34  2  0  0  0  0
 32 71  1  0  0  0  0
 33 35  2  0  0  0  0
 33 72  1  0  0  0  0
 34 35  1  0  0  0  0
 34 73  1  0  0  0  0
 35 36  1  0  0  0  0
 36 37  1  0  0  0  0
 36 38  1  0  0  0  0
 36 74  1  0  0  0  0
 37 75  1  0  0  0  0
 37 76  1  0  0  0  0
 37 77  1  0  0  0  0
 38 78  1  0  0  0  0
 38 79  1  0  0  0  0
 38 80  1  0  0  0  0
M  END
> <PUBCHEM_COMPOUND_CID>
511108
> <PUBCHEM_COMPOUND_CANONICALIZED>
1
> <PUBCHEM_CACTVS_COMPLEXITY>
984
> <PUBCHEM_CACTVS_HBOND_ACCEPTOR>
4
> <PUBCHEM_CACTVS_HBOND_DONOR>
1
> <PUBCHEM_CACTVS_ROTATABLE_BOND>
4
> <PUBCHEM_CACTVS_SUBSKEYS>
AAADcfB7uAAAAAAAAAAAAAAAGAAAAWLFgAAwAAAAAAAWAAABAAAAHgAQAAAADyjBmAQzwIPAAACIAiVSUACCAAAhAgAIiAGIZIiIYDrA0bGUIAholiLIyCccicAPiAAAAAAAAAAQAAAAAAAAAAAAAAAAAA==
> <PUBCHEM_IUPAC_OPENEYE_NAME>
(2S)-2-[(3aS,6S,6aR)-6-methyl-5-oxo-4-(2,2,3,3-tetramethylcyclopropanecarbonyl)-3,3a,6,6a-tetrahydro-2H-pyrrolo[3,2-b]pyrrole-1-carbonyl]-N-(4-isopropylphenyl)pyrrolidine-1-carboxamide
> <PUBCHEM_IUPAC_CAS_NAME>
(2S)-2-[[(3aS,6S,6aR)-6-methyl-5-oxo-4-[oxo-(2,2,3,3-tetramethylcyclopropyl)methyl]-3,3a,6,6a-tetrahydro-2H-pyrrolo[3,2-b]pyrrol-1-yl]-oxomethyl]-N-(4-propan-2-ylphenyl)-1-pyrrolidinecarboxamide
> <PUBCHEM_IUPAC_NAME_MARKUP>
(2<I>S</I>)-2-[(3<I>a</I><I>S</I>,6<I>S</I>,6<I>a</I><I>R</I>)-6-methyl-5-oxo-4-(2,2,3,3-tetramethylcyclopropanecarbonyl)-3,3<I>a</I>,6,6<I>a</I>-tetrahydro-2<I>H</I>-pyrrolo[3,2-b]pyrrole-1-carbonyl]-<I>N</I>-(4-propan-2-ylphenyl)pyrrolidine-1-carboxamide
> <PUBCHEM_IUPAC_NAME>
(2S)-2-[(3aS,6S,6aR)-6-methyl-5-oxo-4-(2,2,3,3-tetramethylcyclopropanecarbonyl)-3,3a,6,6a-tetrahydro-2H-pyrrolo[3,2-b]pyrrole-1-carbonyl]-N-(4-propan-2-ylphenyl)pyrrolidine-1-carboxamide
> <PUBCHEM_IUPAC_SYSTEMATIC_NAME>
(2S)-2-[[(3aS,6S,6aR)-6-methyl-5-oxidanylidene-4-(2,2,3,3-tetramethylcyclopropyl)carbonyl-3,3a,6,6a-tetrahydro-2H-pyrrolo[3,2-b]pyrrol-1-yl]carbonyl]-N-(4-propan-2-ylphenyl)pyrrolidine-1-carboxamide
> <PUBCHEM_IUPAC_TRADITIONAL_NAME>
(2S)-2-[(3aS,6S,6aR)-5-keto-6-methyl-4-(2,2,3,3-tetramethylcyclopropanecarbonyl)-3,3a,6,6a-tetrahydro-2H-pyrrolo[3,2-b]pyrrole-1-carbonyl]-N-p-cumenyl-pyrrolidine-1-carboxamide
> <PUBCHEM_IUPAC_INCHI>
InChI=1S/C30H42N4O4/c1-17(2)19-10-12-20(13-11-19)31-28(38)32-15-8-9-22(32)26(36)33-16-14-21-23(33)18(3)25(35)34(21)27(37)24-29(4,5)30(24,6)7/h10-13,17-18,21-24H,8-9,14-16H2,1-7H3,(H,31,38)/t18-,21-,22-,23+/m0/s1
> <PUBCHEM_IUPAC_INCHIKEY>
JYHIHYKJUURNQR-FDTGPBLFSA-N
> <PUBCHEM_XLOGP3_AA>
4.2
> <PUBCHEM_EXACT_MASS>
522.32060583
> <PUBCHEM_MOLECULAR_FORMULA>
C30H42N4O4
> <PUBCHEM_MOLECULAR_WEIGHT>
522.7
> <PUBCHEM_OPENEYE_CAN_SMILES>
CC1C2C(CCN2C(=O)C3CCCN3C(=O)NC4=CC=C(C=C4)C(C)C)N(C1=O)C(=O)C5C(C5(C)C)(C)C
> <PUBCHEM_OPENEYE_ISO_SMILES>
C[C@H]1[C@@H]2[C@H](CCN2C(=O)[C@@H]3CCCN3C(=O)NC4=CC=C(C=C4)C(C)C)N(C1=O)C(=O)C5C(C5(C)C)(C)C
> <PUBCHEM_CACTVS_TPSA>
90
> <PUBCHEM_MONOISOTOPIC_WEIGHT>
522.32060583
> <PUBCHEM_TOTAL_CHARGE>
0
> <PUBCHEM_HEAVY_ATOM_COUNT>
38
> <PUBCHEM_ATOM_DEF_STEREO_COUNT>
4
> <PUBCHEM_ATOM_UDEF_STEREO_COUNT>
0
> <PUBCHEM_BOND_DEF_STEREO_COUNT>
0
> <PUBCHEM_BOND_UDEF_STEREO_COUNT>
0
> <PUBCHEM_ISOTOPIC_ATOM_COUNT>
0
> <PUBCHEM_COMPONENT_COUNT>
1
> <PUBCHEM_CACTVS_TAUTO_COUNT>
-1
> <PUBCHEM_COORDINATE_TYPE>
1
5
255
> <PUBCHEM_BONDANNOTATIONS>
17  52  5
18  53  6
19  23  5
25  24  5
30  31  8
30  32  8
31  33  8
32  34  8
33  35  8
34  35  8
$$$$
