511187
  -OEChem-10302200282D
 46 47  0     1  0  0  0  0  0999 V2000
    3.3968   -4.3473    0.0000 Cl  0  0  0  0  0  0  0  0  0  0  0  0
    2.0000   -4.1260    0.0000 Cl  0  0  0  0  0  0  0  0  0  0  0  0
    2.2212   -2.7292    0.0000 Cl  0  0  0  0  0  0  0  0  0  0  0  0
    5.3406   -2.7694    0.0000 P   0  0  3  0  0  0  0  0  0  0  0  0
    4.8808    0.7132    0.0000 O   0  0  0  0  0  0  0  0  0  0  0  0
    4.7528   -1.9604    0.0000 O   0  0  0  0  0  0  0  0  0  0  0  0
    4.5316   -3.3572    0.0000 O   0  0  0  0  0  0  0  0  0  0  0  0
    6.1496   -2.1816    0.0000 O   0  0  0  0  0  0  0  0  0  0  0  0
    5.8038    2.3010    0.0000 O   0  0  0  0  0  0  0  0  0  0  0  0
    4.0718    5.3010    0.0000 O   0  0  0  0  0  0  0  0  0  0  0  0
    4.0718    2.3010    0.0000 N   0  0  0  0  0  0  0  0  0  0  0  0
    4.9378    3.8010    0.0000 N   0  0  0  0  0  0  0  0  0  0  0  0
    5.9284   -3.5784    0.0000 N   0  0  0  0  0  0  0  0  0  0  0  0
    4.5718   -0.2378    0.0000 C   0  0  2  0  0  0  0  0  0  0  0  0
    4.0718    1.3010    0.0000 C   0  0  1  0  0  0  0  0  0  0  0  0
    5.1596   -1.0469    0.0000 C   0  0  0  0  0  0  0  0  0  0  0  0
    3.5718   -0.2378    0.0000 C   0  0  0  0  0  0  0  0  0  0  0  0
    3.2628    0.7132    0.0000 C   0  0  0  0  0  0  0  0  0  0  0  0
    3.2057    2.8010    0.0000 C   0  0  0  0  0  0  0  0  0  0  0  0
    4.9378    2.8010    0.0000 C   0  0  0  0  0  0  0  0  0  0  0  0
    3.2057    3.8010    0.0000 C   0  0  0  0  0  0  0  0  0  0  0  0
    4.0718    4.3010    0.0000 C   0  0  0  0  0  0  0  0  0  0  0  0
    5.5216   -4.4920    0.0000 C   0  0  0  0  0  0  0  0  0  0  0  0
    2.3397    4.3010    0.0000 C   0  0  0  0  0  0  0  0  0  0  0  0
    3.6180   -2.9505    0.0000 C   0  0  0  0  0  0  0  0  0  0  0  0
    6.1094   -5.3010    0.0000 C   0  0  0  0  0  0  0  0  0  0  0  0
    2.8090   -3.5382    0.0000 C   0  0  0  0  0  0  0  0  0  0  0  0
    5.1841   -0.1409    0.0000 H   0  0  0  0  0  0  0  0  0  0  0  0
    3.5193    1.5825    0.0000 H   0  0  0  0  0  0  0  0  0  0  0  0
    5.6736   -1.3936    0.0000 H   0  0  0  0  0  0  0  0  0  0  0  0
    5.5902   -0.6009    0.0000 H   0  0  0  0  0  0  0  0  0  0  0  0
    3.2073   -0.7394    0.0000 H   0  0  0  0  0  0  0  0  0  0  0  0
    2.6731    0.9048    0.0000 H   0  0  0  0  0  0  0  0  0  0  0  0
    2.6688    2.4910    0.0000 H   0  0  0  0  0  0  0  0  0  0  0  0
    6.5450   -3.5136    0.0000 H   0  0  0  0  0  0  0  0  0  0  0  0
    5.4747    4.1110    0.0000 H   0  0  0  0  0  0  0  0  0  0  0  0
    5.0076   -4.1453    0.0000 H   0  0  0  0  0  0  0  0  0  0  0  0
    5.0910   -4.9380    0.0000 H   0  0  0  0  0  0  0  0  0  0  0  0
    2.6497    4.8379    0.0000 H   0  0  0  0  0  0  0  0  0  0  0  0
    1.8028    4.6110    0.0000 H   0  0  0  0  0  0  0  0  0  0  0  0
    2.0297    3.7641    0.0000 H   0  0  0  0  0  0  0  0  0  0  0  0
    3.9647   -2.4365    0.0000 H   0  0  0  0  0  0  0  0  0  0  0  0
    3.1720   -2.5198    0.0000 H   0  0  0  0  0  0  0  0  0  0  0  0
    5.6078   -5.6654    0.0000 H   0  0  0  0  0  0  0  0  0  0  0  0
    6.4739   -5.8026    0.0000 H   0  0  0  0  0  0  0  0  0  0  0  0
    6.6110   -4.9366    0.0000 H   0  0  0  0  0  0  0  0  0  0  0  0
  1 27  1  0  0  0  0
  2 27  1  0  0  0  0
  3 27  1  0  0  0  0
  4  6  1  0  0  0  0
  4  7  1  0  0  0  0
  4  8  2  0  0  0  0
  4 13  1  0  0  0  0
  5 14  1  0  0  0  0
  5 15  1  0  0  0  0
  6 16  1  0  0  0  0
  7 25  1  0  0  0  0
  9 20  2  0  0  0  0
 10 22  2  0  0  0  0
 15 11  1  6  0  0  0
 11 19  1  0  0  0  0
 11 20  1  0  0  0  0
 12 20  1  0  0  0  0
 12 22  1  0  0  0  0
 12 36  1  0  0  0  0
 13 23  1  0  0  0  0
 13 35  1  0  0  0  0
 14 16  1  6  0  0  0
 14 17  1  0  0  0  0
 14 28  1  0  0  0  0
 15 18  1  0  0  0  0
 15 29  1  0  0  0  0
 16 30  1  0  0  0  0
 16 31  1  0  0  0  0
 17 18  2  0  0  0  0
 17 32  1  0  0  0  0
 18 33  1  0  0  0  0
 19 21  2  0  0  0  0
 19 34  1  0  0  0  0
 21 22  1  0  0  0  0
 21 24  1  0  0  0  0
 23 26  1  0  0  0  0
 23 37  1  0  0  0  0
 23 38  1  0  0  0  0
 24 39  1  0  0  0  0
 24 40  1  0  0  0  0
 24 41  1  0  0  0  0
 25 27  1  0  0  0  0
 25 42  1  0  0  0  0
 25 43  1  0  0  0  0
 26 44  1  0  0  0  0
 26 45  1  0  0  0  0
 26 46  1  0  0  0  0
M  END
> <PUBCHEM_COMPOUND_CID>
511187
> <PUBCHEM_COMPOUND_CANONICALIZED>
1
> <PUBCHEM_CACTVS_COMPLEXITY>
696
> <PUBCHEM_CACTVS_HBOND_ACCEPTOR>
7
> <PUBCHEM_CACTVS_HBOND_DONOR>
2
> <PUBCHEM_CACTVS_ROTATABLE_BOND>
8
> <PUBCHEM_CACTVS_SUBSKEYS>
AAADceBzOAIGAAAAAAAAAAAAAAAAAQAAAAAgAAAAAAAAAAAAAAAAHgIQgCAADBbhgIYDAAPABRCIQiFWUICAAAAgAAAICIEIAUiBBAAAIQAOEAAIVyIKIMIAAAAAAAAAAAAAAAAAAAAAAAAAAAAAAAAAAA==
> <PUBCHEM_IUPAC_OPENEYE_NAME>
1-[(2R,5S)-5-[[ethylamino(2,2,2-trichloroethoxy)phosphoryl]oxymethyl]-2,5-dihydrofuran-2-yl]-5-methyl-pyrimidine-2,4-dione
> <PUBCHEM_IUPAC_CAS_NAME>
1-[(2R,5S)-5-[[ethylamino(2,2,2-trichloroethoxy)phosphoryl]oxymethyl]-2,5-dihydrofuran-2-yl]-5-methylpyrimidine-2,4-dione
> <PUBCHEM_IUPAC_NAME_MARKUP>
1-[(2<I>R</I>,5<I>S</I>)-5-[[ethylamino(2,2,2-trichloroethoxy)phosphoryl]oxymethyl]-2,5-dihydrofuran-2-yl]-5-methylpyrimidine-2,4-dione
> <PUBCHEM_IUPAC_NAME>
1-[(2R,5S)-5-[[ethylamino(2,2,2-trichloroethoxy)phosphoryl]oxymethyl]-2,5-dihydrofuran-2-yl]-5-methylpyrimidine-2,4-dione
> <PUBCHEM_IUPAC_SYSTEMATIC_NAME>
1-[(2R,5S)-5-[[ethylamino-[2,2,2-tris(chloranyl)ethoxy]phosphoryl]oxymethyl]-2,5-dihydrofuran-2-yl]-5-methyl-pyrimidine-2,4-dione
> <PUBCHEM_IUPAC_TRADITIONAL_NAME>
1-[(2R,5S)-5-[[ethylamino(2,2,2-trichloroethoxy)phosphoryl]oxymethyl]-2,5-dihydrofuran-2-yl]-5-methyl-pyrimidine-2,4-quinone
> <PUBCHEM_IUPAC_INCHI>
InChI=1S/C14H19Cl3N3O6P/c1-3-18-27(23,25-8-14(15,16)17)24-7-10-4-5-11(26-10)20-6-9(2)12(21)19-13(20)22/h4-6,10-11H,3,7-8H2,1-2H3,(H,18,23)(H,19,21,22)/t10-,11+,27?/m0/s1
> <PUBCHEM_IUPAC_INCHIKEY>
DYYLSUXWPHWBQM-WXVPALDMSA-N
> <PUBCHEM_XLOGP3>
1.1
> <PUBCHEM_EXACT_MASS>
461.007705
> <PUBCHEM_MOLECULAR_FORMULA>
C14H19Cl3N3O6P
> <PUBCHEM_MOLECULAR_WEIGHT>
462.6
> <PUBCHEM_OPENEYE_CAN_SMILES>
CCNP(=O)(OCC1C=CC(O1)N2C=C(C(=O)NC2=O)C)OCC(Cl)(Cl)Cl
> <PUBCHEM_OPENEYE_ISO_SMILES>
CCNP(=O)(OC[C@@H]1C=C[C@@H](O1)N2C=C(C(=O)NC2=O)C)OCC(Cl)(Cl)Cl
> <PUBCHEM_CACTVS_TPSA>
106
> <PUBCHEM_MONOISOTOPIC_WEIGHT>
461.007705
> <PUBCHEM_TOTAL_CHARGE>
0
> <PUBCHEM_HEAVY_ATOM_COUNT>
27
> <PUBCHEM_ATOM_DEF_STEREO_COUNT>
2
> <PUBCHEM_ATOM_UDEF_STEREO_COUNT>
1
> <PUBCHEM_BOND_DEF_STEREO_COUNT>
0
> <PUBCHEM_BOND_UDEF_STEREO_COUNT>
0
> <PUBCHEM_ISOTOPIC_ATOM_COUNT>
0
> <PUBCHEM_COMPONENT_COUNT>
1
> <PUBCHEM_CACTVS_TAUTO_COUNT>
-1
> <PUBCHEM_COORDINATE_TYPE>
1
5
255
> <PUBCHEM_BONDANNOTATIONS>
15  11  6
11  19  8
11  20  8
12  20  8
12  22  8
14  16  6
19  21  8
21  22  8
4  13  3
$$$$
