511188
  -OEChem-10302200282D
 50 51  0     1  0  0  0  0  0999 V2000
    3.3968   -3.4860    0.0000 Cl  0  0  0  0  0  0  0  0  0  0  0  0
    2.0000   -3.2648    0.0000 Cl  0  0  0  0  0  0  0  0  0  0  0  0
    2.2212   -1.8680    0.0000 Cl  0  0  0  0  0  0  0  0  0  0  0  0
    5.3406   -1.9081    0.0000 P   0  0  3  0  0  0  0  0  0  0  0  0
    4.8808    1.5745    0.0000 O   0  0  0  0  0  0  0  0  0  0  0  0
    4.7528   -1.0991    0.0000 O   0  0  0  0  0  0  0  0  0  0  0  0
    4.5316   -2.4959    0.0000 O   0  0  0  0  0  0  0  0  0  0  0  0
    6.1496   -1.3204    0.0000 O   0  0  0  0  0  0  0  0  0  0  0  0
    5.8038    3.1623    0.0000 O   0  0  0  0  0  0  0  0  0  0  0  0
    5.7027   -5.3533    0.0000 O   0  0  0  0  0  0  0  0  0  0  0  0
    4.0718    6.1623    0.0000 O   0  0  0  0  0  0  0  0  0  0  0  0
    4.0718    3.1623    0.0000 N   0  0  0  0  0  0  0  0  0  0  0  0
    5.9284   -2.7172    0.0000 N   0  0  0  0  0  0  0  0  0  0  0  0
    4.9378    4.6623    0.0000 N   0  0  0  0  0  0  0  0  0  0  0  0
    4.5718    0.6234    0.0000 C   0  0  2  0  0  0  0  0  0  0  0  0
    4.0718    2.1623    0.0000 C   0  0  1  0  0  0  0  0  0  0  0  0
    5.1596   -0.1856    0.0000 C   0  0  0  0  0  0  0  0  0  0  0  0
    3.5718    0.6234    0.0000 C   0  0  0  0  0  0  0  0  0  0  0  0
    3.2628    1.5745    0.0000 C   0  0  0  0  0  0  0  0  0  0  0  0
    3.2057    3.6623    0.0000 C   0  0  0  0  0  0  0  0  0  0  0  0
    4.9378    3.6623    0.0000 C   0  0  0  0  0  0  0  0  0  0  0  0
    3.2057    4.6623    0.0000 C   0  0  0  0  0  0  0  0  0  0  0  0
    5.5216   -3.6307    0.0000 C   0  0  0  0  0  0  0  0  0  0  0  0
    4.0718    5.1623    0.0000 C   0  0  0  0  0  0  0  0  0  0  0  0
    2.3397    5.1623    0.0000 C   0  0  0  0  0  0  0  0  0  0  0  0
    6.1094   -4.4397    0.0000 C   0  0  0  0  0  0  0  0  0  0  0  0
    3.6180   -2.0892    0.0000 C   0  0  0  0  0  0  0  0  0  0  0  0
    2.8090   -2.6770    0.0000 C   0  0  0  0  0  0  0  0  0  0  0  0
    6.2905   -6.1623    0.0000 C   0  0  0  0  0  0  0  0  0  0  0  0
    5.1841    0.7204    0.0000 H   0  0  0  0  0  0  0  0  0  0  0  0
    3.5193    2.4438    0.0000 H   0  0  0  0  0  0  0  0  0  0  0  0
    5.6736   -0.5323    0.0000 H   0  0  0  0  0  0  0  0  0  0  0  0
    5.5902    0.2604    0.0000 H   0  0  0  0  0  0  0  0  0  0  0  0
    3.2073    0.1218    0.0000 H   0  0  0  0  0  0  0  0  0  0  0  0
    2.6731    1.7661    0.0000 H   0  0  0  0  0  0  0  0  0  0  0  0
    2.6688    3.3523    0.0000 H   0  0  0  0  0  0  0  0  0  0  0  0
    6.5450   -2.6524    0.0000 H   0  0  0  0  0  0  0  0  0  0  0  0
    5.4747    4.9723    0.0000 H   0  0  0  0  0  0  0  0  0  0  0  0
    5.0076   -3.2840    0.0000 H   0  0  0  0  0  0  0  0  0  0  0  0
    5.0910   -4.0767    0.0000 H   0  0  0  0  0  0  0  0  0  0  0  0
    2.6497    5.6992    0.0000 H   0  0  0  0  0  0  0  0  0  0  0  0
    1.8028    5.4723    0.0000 H   0  0  0  0  0  0  0  0  0  0  0  0
    2.0297    4.6254    0.0000 H   0  0  0  0  0  0  0  0  0  0  0  0
    6.6234   -4.7864    0.0000 H   0  0  0  0  0  0  0  0  0  0  0  0
    6.5401   -3.9937    0.0000 H   0  0  0  0  0  0  0  0  0  0  0  0
    3.9647   -1.5752    0.0000 H   0  0  0  0  0  0  0  0  0  0  0  0
    3.1720   -1.6585    0.0000 H   0  0  0  0  0  0  0  0  0  0  0  0
    5.7889   -6.5267    0.0000 H   0  0  0  0  0  0  0  0  0  0  0  0
    6.6549   -6.6639    0.0000 H   0  0  0  0  0  0  0  0  0  0  0  0
    6.7921   -5.7979    0.0000 H   0  0  0  0  0  0  0  0  0  0  0  0
  1 28  1  0  0  0  0
  2 28  1  0  0  0  0
  3 28  1  0  0  0  0
  4  6  1  0  0  0  0
  4  7  1  0  0  0  0
  4  8  2  0  0  0  0
  4 13  1  0  0  0  0
  5 15  1  0  0  0  0
  5 16  1  0  0  0  0
  6 17  1  0  0  0  0
  7 27  1  0  0  0  0
  9 21  2  0  0  0  0
 10 26  1  0  0  0  0
 10 29  1  0  0  0  0
 11 24  2  0  0  0  0
 16 12  1  6  0  0  0
 12 20  1  0  0  0  0
 12 21  1  0  0  0  0
 13 23  1  0  0  0  0
 13 37  1  0  0  0  0
 14 21  1  0  0  0  0
 14 24  1  0  0  0  0
 14 38  1  0  0  0  0
 15 17  1  6  0  0  0
 15 18  1  0  0  0  0
 15 30  1  0  0  0  0
 16 19  1  0  0  0  0
 16 31  1  0  0  0  0
 17 32  1  0  0  0  0
 17 33  1  0  0  0  0
 18 19  2  0  0  0  0
 18 34  1  0  0  0  0
 19 35  1  0  0  0  0
 20 22  2  0  0  0  0
 20 36  1  0  0  0  0
 22 24  1  0  0  0  0
 22 25  1  0  0  0  0
 23 26  1  0  0  0  0
 23 39  1  0  0  0  0
 23 40  1  0  0  0  0
 25 41  1  0  0  0  0
 25 42  1  0  0  0  0
 25 43  1  0  0  0  0
 26 44  1  0  0  0  0
 26 45  1  0  0  0  0
 27 28  1  0  0  0  0
 27 46  1  0  0  0  0
 27 47  1  0  0  0  0
 29 48  1  0  0  0  0
 29 49  1  0  0  0  0
 29 50  1  0  0  0  0
M  END
> <PUBCHEM_COMPOUND_CID>
511188
> <PUBCHEM_COMPOUND_CANONICALIZED>
1
> <PUBCHEM_CACTVS_COMPLEXITY>
728
> <PUBCHEM_CACTVS_HBOND_ACCEPTOR>
8
> <PUBCHEM_CACTVS_HBOND_DONOR>
2
> <PUBCHEM_CACTVS_ROTATABLE_BOND>
10
> <PUBCHEM_CACTVS_SUBSKEYS>
AAADceBzOAIGAAAAAAAAAAAAAAAAAQAAAAAgAAAAAAAAAAAAAAAAHgIQgCAADBbhgIYDAAPABRCIQiFWUICAAAAgAAAICIEIAUiDBAAAIQAPEAAIVyIKIMIAAAAAAAAAAAAAAAAAAAAAAAAAAAAAAAAAAA==
> <PUBCHEM_IUPAC_OPENEYE_NAME>
1-[(2R,5S)-5-[[(2-methoxyethylamino)-(2,2,2-trichloroethoxy)phosphoryl]oxymethyl]-2,5-dihydrofuran-2-yl]-5-methyl-pyrimidine-2,4-dione
> <PUBCHEM_IUPAC_CAS_NAME>
1-[(2R,5S)-5-[[(2-methoxyethylamino)-(2,2,2-trichloroethoxy)phosphoryl]oxymethyl]-2,5-dihydrofuran-2-yl]-5-methylpyrimidine-2,4-dione
> <PUBCHEM_IUPAC_NAME_MARKUP>
1-[(2<I>R</I>,5<I>S</I>)-5-[[(2-methoxyethylamino)-(2,2,2-trichloroethoxy)phosphoryl]oxymethyl]-2,5-dihydrofuran-2-yl]-5-methylpyrimidine-2,4-dione
> <PUBCHEM_IUPAC_NAME>
1-[(2R,5S)-5-[[(2-methoxyethylamino)-(2,2,2-trichloroethoxy)phosphoryl]oxymethyl]-2,5-dihydrofuran-2-yl]-5-methylpyrimidine-2,4-dione
> <PUBCHEM_IUPAC_SYSTEMATIC_NAME>
1-[(2R,5S)-5-[[(2-methoxyethylamino)-[2,2,2-tris(chloranyl)ethoxy]phosphoryl]oxymethyl]-2,5-dihydrofuran-2-yl]-5-methyl-pyrimidine-2,4-dione
> <PUBCHEM_IUPAC_TRADITIONAL_NAME>
1-[(2R,5S)-5-[[(2-methoxyethylamino)-(2,2,2-trichloroethoxy)phosphoryl]oxymethyl]-2,5-dihydrofuran-2-yl]-5-methyl-pyrimidine-2,4-quinone
> <PUBCHEM_IUPAC_INCHI>
InChI=1S/C15H21Cl3N3O7P/c1-10-7-21(14(23)20-13(10)22)12-4-3-11(28-12)8-26-29(24,19-5-6-25-2)27-9-15(16,17)18/h3-4,7,11-12H,5-6,8-9H2,1-2H3,(H,19,24)(H,20,22,23)/t11-,12+,29?/m0/s1
> <PUBCHEM_IUPAC_INCHIKEY>
UOERTGPKHLAVNK-ZTRAIXJASA-N
> <PUBCHEM_XLOGP3>
0.6
> <PUBCHEM_EXACT_MASS>
491.018270
> <PUBCHEM_MOLECULAR_FORMULA>
C15H21Cl3N3O7P
> <PUBCHEM_MOLECULAR_WEIGHT>
492.7
> <PUBCHEM_OPENEYE_CAN_SMILES>
CC1=CN(C(=O)NC1=O)C2C=CC(O2)COP(=O)(NCCOC)OCC(Cl)(Cl)Cl
> <PUBCHEM_OPENEYE_ISO_SMILES>
CC1=CN(C(=O)NC1=O)[C@H]2C=C[C@H](O2)COP(=O)(NCCOC)OCC(Cl)(Cl)Cl
> <PUBCHEM_CACTVS_TPSA>
115
> <PUBCHEM_MONOISOTOPIC_WEIGHT>
491.018270
> <PUBCHEM_TOTAL_CHARGE>
0
> <PUBCHEM_HEAVY_ATOM_COUNT>
29
> <PUBCHEM_ATOM_DEF_STEREO_COUNT>
2
> <PUBCHEM_ATOM_UDEF_STEREO_COUNT>
1
> <PUBCHEM_BOND_DEF_STEREO_COUNT>
0
> <PUBCHEM_BOND_UDEF_STEREO_COUNT>
0
> <PUBCHEM_ISOTOPIC_ATOM_COUNT>
0
> <PUBCHEM_COMPONENT_COUNT>
1
> <PUBCHEM_CACTVS_TAUTO_COUNT>
-1
> <PUBCHEM_COORDINATE_TYPE>
1
5
255
> <PUBCHEM_BONDANNOTATIONS>
16  12  6
12  20  8
12  21  8
14  21  8
14  24  8
15  17  6
20  22  8
22  24  8
4  13  3
$$$$
