511180
  -OEChem-10302200282D
 69 70  0     1  0  0  0  0  0999 V2000
    7.9767   -1.0469    0.0000 P   0  0  0  0  0  0  0  0  0  0  0  0
    7.5169    2.4358    0.0000 O   0  0  0  0  0  0  0  0  0  0  0  0
    7.3889   -0.2378    0.0000 O   0  0  0  0  0  0  0  0  0  0  0  0
    8.5645   -1.8559    0.0000 O   0  0  0  0  0  0  0  0  0  0  0  0
    7.1677   -1.6346    0.0000 O   0  0  0  0  0  0  0  0  0  0  0  0
    8.7857   -0.4591    0.0000 O   0  0  0  0  0  0  0  0  0  0  0  0
    8.4399    4.0236    0.0000 O   0  0  0  0  0  0  0  0  0  0  0  0
    6.7079    7.0236    0.0000 O   0  0  0  0  0  0  0  0  0  0  0  0
    6.7079    4.0236    0.0000 N   0  0  0  0  0  0  0  0  0  0  0  0
    7.5739    5.5236    0.0000 N   0  0  0  0  0  0  0  0  0  0  0  0
    7.2079    1.4847    0.0000 C   0  0  2  0  0  0  0  0  0  0  0  0
    6.7079    3.0236    0.0000 C   0  0  1  0  0  0  0  0  0  0  0  0
    7.7957    0.6757    0.0000 C   0  0  0  0  0  0  0  0  0  0  0  0
    6.2079    1.4847    0.0000 C   0  0  0  0  0  0  0  0  0  0  0  0
    5.8989    2.4358    0.0000 C   0  0  0  0  0  0  0  0  0  0  0  0
    8.3388   -4.4920    0.0000 C   0  0  0  0  0  0  0  0  0  0  0  0
    4.5316   -1.4090    0.0000 C   0  0  0  0  0  0  0  0  0  0  0  0
    8.7455   -3.5784    0.0000 C   0  0  0  0  0  0  0  0  0  0  0  0
    5.4451   -1.8157    0.0000 C   0  0  0  0  0  0  0  0  0  0  0  0
    8.9266   -5.3010    0.0000 C   0  0  0  0  0  0  0  0  0  0  0  0
    3.7226   -1.9967    0.0000 C   0  0  0  0  0  0  0  0  0  0  0  0
    8.1578   -2.7694    0.0000 C   0  0  0  0  0  0  0  0  0  0  0  0
    6.2541   -1.2279    0.0000 C   0  0  0  0  0  0  0  0  0  0  0  0
    5.8418    4.5236    0.0000 C   0  0  0  0  0  0  0  0  0  0  0  0
    8.5198   -6.2146    0.0000 C   0  0  0  0  0  0  0  0  0  0  0  0
    2.8090   -1.5900    0.0000 C   0  0  0  0  0  0  0  0  0  0  0  0
    7.5739    4.5236    0.0000 C   0  0  0  0  0  0  0  0  0  0  0  0
    5.8418    5.5236    0.0000 C   0  0  0  0  0  0  0  0  0  0  0  0
    6.7079    6.0236    0.0000 C   0  0  0  0  0  0  0  0  0  0  0  0
    9.1076   -7.0236    0.0000 C   0  0  0  0  0  0  0  0  0  0  0  0
    2.0000   -2.1778    0.0000 C   0  0  0  0  0  0  0  0  0  0  0  0
    4.9758    6.0236    0.0000 C   0  0  0  0  0  0  0  0  0  0  0  0
    7.8202    1.5817    0.0000 H   0  0  0  0  0  0  0  0  0  0  0  0
    7.2603    3.3050    0.0000 H   0  0  0  0  0  0  0  0  0  0  0  0
    8.3097    0.3290    0.0000 H   0  0  0  0  0  0  0  0  0  0  0  0
    8.2263    1.1217    0.0000 H   0  0  0  0  0  0  0  0  0  0  0  0
    5.8434    0.9831    0.0000 H   0  0  0  0  0  0  0  0  0  0  0  0
    5.3092    2.6274    0.0000 H   0  0  0  0  0  0  0  0  0  0  0  0
    7.8248   -4.1453    0.0000 H   0  0  0  0  0  0  0  0  0  0  0  0
    7.9081   -4.9380    0.0000 H   0  0  0  0  0  0  0  0  0  0  0  0
    4.8783   -0.8950    0.0000 H   0  0  0  0  0  0  0  0  0  0  0  0
    4.0856   -0.9783    0.0000 H   0  0  0  0  0  0  0  0  0  0  0  0
    9.2595   -3.9251    0.0000 H   0  0  0  0  0  0  0  0  0  0  0  0
    9.1762   -3.1324    0.0000 H   0  0  0  0  0  0  0  0  0  0  0  0
    5.0984   -2.3297    0.0000 H   0  0  0  0  0  0  0  0  0  0  0  0
    5.8911   -2.2464    0.0000 H   0  0  0  0  0  0  0  0  0  0  0  0
    9.4406   -5.6477    0.0000 H   0  0  0  0  0  0  0  0  0  0  0  0
    9.3573   -4.8550    0.0000 H   0  0  0  0  0  0  0  0  0  0  0  0
    3.3759   -2.5107    0.0000 H   0  0  0  0  0  0  0  0  0  0  0  0
    4.1686   -2.4274    0.0000 H   0  0  0  0  0  0  0  0  0  0  0  0
    7.6438   -2.4227    0.0000 H   0  0  0  0  0  0  0  0  0  0  0  0
    7.7271   -3.2154    0.0000 H   0  0  0  0  0  0  0  0  0  0  0  0
    6.6008   -0.7139    0.0000 H   0  0  0  0  0  0  0  0  0  0  0  0
    5.8082   -0.7972    0.0000 H   0  0  0  0  0  0  0  0  0  0  0  0
    5.3049    4.2136    0.0000 H   0  0  0  0  0  0  0  0  0  0  0  0
    8.0058   -5.8678    0.0000 H   0  0  0  0  0  0  0  0  0  0  0  0
    8.0892   -6.6605    0.0000 H   0  0  0  0  0  0  0  0  0  0  0  0
    3.1557   -1.0760    0.0000 H   0  0  0  0  0  0  0  0  0  0  0  0
    2.3630   -1.1593    0.0000 H   0  0  0  0  0  0  0  0  0  0  0  0
    8.1108    5.8336    0.0000 H   0  0  0  0  0  0  0  0  0  0  0  0
    8.6060   -7.3880    0.0000 H   0  0  0  0  0  0  0  0  0  0  0  0
    9.4721   -7.5252    0.0000 H   0  0  0  0  0  0  0  0  0  0  0  0
    9.6092   -6.6591    0.0000 H   0  0  0  0  0  0  0  0  0  0  0  0
    1.6356   -1.6762    0.0000 H   0  0  0  0  0  0  0  0  0  0  0  0
    1.4984   -2.5422    0.0000 H   0  0  0  0  0  0  0  0  0  0  0  0
    2.3644   -2.6794    0.0000 H   0  0  0  0  0  0  0  0  0  0  0  0
    5.2858    6.5605    0.0000 H   0  0  0  0  0  0  0  0  0  0  0  0
    4.4389    6.3336    0.0000 H   0  0  0  0  0  0  0  0  0  0  0  0
    4.6658    5.4866    0.0000 H   0  0  0  0  0  0  0  0  0  0  0  0
  1  3  1  0  0  0  0
  1  4  1  0  0  0  0
  1  5  1  0  0  0  0
  1  6  2  0  0  0  0
  2 11  1  0  0  0  0
  2 12  1  0  0  0  0
  3 13  1  0  0  0  0
  4 22  1  0  0  0  0
  5 23  1  0  0  0  0
  7 27  2  0  0  0  0
  8 29  2  0  0  0  0
 12  9  1  6  0  0  0
  9 24  1  0  0  0  0
  9 27  1  0  0  0  0
 10 27  1  0  0  0  0
 10 29  1  0  0  0  0
 10 60  1  0  0  0  0
 11 13  1  6  0  0  0
 11 14  1  0  0  0  0
 11 33  1  0  0  0  0
 12 15  1  0  0  0  0
 12 34  1  0  0  0  0
 13 35  1  0  0  0  0
 13 36  1  0  0  0  0
 14 15  2  0  0  0  0
 14 37  1  0  0  0  0
 15 38  1  0  0  0  0
 16 18  1  0  0  0  0
 16 20  1  0  0  0  0
 16 39  1  0  0  0  0
 16 40  1  0  0  0  0
 17 19  1  0  0  0  0
 17 21  1  0  0  0  0
 17 41  1  0  0  0  0
 17 42  1  0  0  0  0
 18 22  1  0  0  0  0
 18 43  1  0  0  0  0
 18 44  1  0  0  0  0
 19 23  1  0  0  0  0
 19 45  1  0  0  0  0
 19 46  1  0  0  0  0
 20 25  1  0  0  0  0
 20 47  1  0  0  0  0
 20 48  1  0  0  0  0
 21 26  1  0  0  0  0
 21 49  1  0  0  0  0
 21 50  1  0  0  0  0
 22 51  1  0  0  0  0
 22 52  1  0  0  0  0
 23 53  1  0  0  0  0
 23 54  1  0  0  0  0
 24 28  2  0  0  0  0
 24 55  1  0  0  0  0
 25 30  1  0  0  0  0
 25 56  1  0  0  0  0
 25 57  1  0  0  0  0
 26 31  1  0  0  0  0
 26 58  1  0  0  0  0
 26 59  1  0  0  0  0
 28 29  1  0  0  0  0
 28 32  1  0  0  0  0
 30 61  1  0  0  0  0
 30 62  1  0  0  0  0
 30 63  1  0  0  0  0
 31 64  1  0  0  0  0
 31 65  1  0  0  0  0
 31 66  1  0  0  0  0
 32 67  1  0  0  0  0
 32 68  1  0  0  0  0
 32 69  1  0  0  0  0
M  END
> <PUBCHEM_COMPOUND_CID>
511180
> <PUBCHEM_COMPOUND_CANONICALIZED>
1
> <PUBCHEM_CACTVS_COMPLEXITY>
707
> <PUBCHEM_CACTVS_HBOND_ACCEPTOR>
7
> <PUBCHEM_CACTVS_HBOND_DONOR>
1
> <PUBCHEM_CACTVS_ROTATABLE_BOND>
16
> <PUBCHEM_CACTVS_SUBSKEYS>
AAADcfB7OAIAAAAAAAAAAAAAAAAAAQAAAAAgAAAAAAAAAAAAAAAAHgAQACAADBThgAYDAAPABRCIQiFWUICAAAAgAAAICAEIAEiBBAIAIQAOEAAMRyIKIMOAQAAAAAAAAAAAAAAAAAAAAAAAAAAAAAAAAA==
> <PUBCHEM_IUPAC_OPENEYE_NAME>
dihexyl [(2S,5R)-5-(5-methyl-2,4-dioxo-pyrimidin-1-yl)-2,5-dihydrofuran-2-yl]methyl phosphate
> <PUBCHEM_IUPAC_CAS_NAME>
phosphoric acid dihexyl [(2S,5R)-5-(5-methyl-2,4-dioxo-1-pyrimidinyl)-2,5-dihydrofuran-2-yl]methyl ester
> <PUBCHEM_IUPAC_NAME_MARKUP>
dihexyl [(2<I>S</I>,5<I>R</I>)-5-(5-methyl-2,4-dioxopyrimidin-1-yl)-2,5-dihydrofuran-2-yl]methyl phosphate
> <PUBCHEM_IUPAC_NAME>
dihexyl [(2S,5R)-5-(5-methyl-2,4-dioxopyrimidin-1-yl)-2,5-dihydrofuran-2-yl]methyl phosphate
> <PUBCHEM_IUPAC_SYSTEMATIC_NAME>
dihexyl [(2S,5R)-5-[5-methyl-2,4-bis(oxidanylidene)pyrimidin-1-yl]-2,5-dihydrofuran-2-yl]methyl phosphate
> <PUBCHEM_IUPAC_TRADITIONAL_NAME>
phosphoric acid [(2S,5R)-5-(2,4-diketo-5-methyl-pyrimidin-1-yl)-2,5-dihydrofuran-2-yl]methyl dihexyl ester
> <PUBCHEM_IUPAC_INCHI>
InChI=1S/C22H37N2O7P/c1-4-6-8-10-14-28-32(27,29-15-11-9-7-5-2)30-17-19-12-13-20(31-19)24-16-18(3)21(25)23-22(24)26/h12-13,16,19-20H,4-11,14-15,17H2,1-3H3,(H,23,25,26)/t19-,20+/m0/s1
> <PUBCHEM_IUPAC_INCHIKEY>
ZHXVRVFMMUBTPP-VQTJNVASSA-N
> <PUBCHEM_XLOGP3>
3.8
> <PUBCHEM_EXACT_MASS>
472.23383852
> <PUBCHEM_MOLECULAR_FORMULA>
C22H37N2O7P
> <PUBCHEM_MOLECULAR_WEIGHT>
472.5
> <PUBCHEM_OPENEYE_CAN_SMILES>
CCCCCCOP(=O)(OCCCCCC)OCC1C=CC(O1)N2C=C(C(=O)NC2=O)C
> <PUBCHEM_OPENEYE_ISO_SMILES>
CCCCCCOP(=O)(OCCCCCC)OC[C@@H]1C=C[C@@H](O1)N2C=C(C(=O)NC2=O)C
> <PUBCHEM_CACTVS_TPSA>
103
> <PUBCHEM_MONOISOTOPIC_WEIGHT>
472.23383852
> <PUBCHEM_TOTAL_CHARGE>
0
> <PUBCHEM_HEAVY_ATOM_COUNT>
32
> <PUBCHEM_ATOM_DEF_STEREO_COUNT>
2
> <PUBCHEM_ATOM_UDEF_STEREO_COUNT>
0
> <PUBCHEM_BOND_DEF_STEREO_COUNT>
0
> <PUBCHEM_BOND_UDEF_STEREO_COUNT>
0
> <PUBCHEM_ISOTOPIC_ATOM_COUNT>
0
> <PUBCHEM_COMPONENT_COUNT>
1
> <PUBCHEM_CACTVS_TAUTO_COUNT>
-1
> <PUBCHEM_COORDINATE_TYPE>
1
5
255
> <PUBCHEM_BONDANNOTATIONS>
10  27  8
10  29  8
11  13  6
24  28  8
28  29  8
12  9  6
9  24  8
9  27  8
$$$$
