511107
  -OEChem-10302200282D
 79 84  0     1  0  0  0  0  0999 V2000
    2.6504   -5.3173    0.0000 O   0  0  0  0  0  0  0  0  0  0  0  0
    4.5983   -7.8206    0.0000 O   0  0  0  0  0  0  0  0  0  0  0  0
    5.7783   -2.8178    0.0000 O   0  0  0  0  0  0  0  0  0  0  0  0
    6.3345   -1.5744    0.0000 O   0  0  0  0  0  0  0  0  0  0  0  0
    4.3465    5.3572    0.0000 O   0  0  0  0  0  0  0  0  0  0  0  0
    6.1355   -4.5126    0.0000 N   0  0  0  0  0  0  0  0  0  0  0  0
    4.2382   -6.1264    0.0000 N   0  0  0  0  0  0  0  0  0  0  0  0
    7.8330   -2.4430    0.0000 N   0  0  0  0  0  0  0  0  0  0  0  0
    7.8360   -0.7110    0.0000 N   0  0  0  0  0  0  0  0  0  0  0  0
    5.1893   -4.8173    0.0000 C   0  0  1  0  0  0  0  0  0  0  0  0
    5.1893   -5.8173    0.0000 C   0  0  2  0  0  0  0  0  0  0  0  0
    4.2382   -4.5083    0.0000 C   0  0  1  0  0  0  0  0  0  0  0  0
    6.1355   -6.1221    0.0000 C   0  0  0  0  0  0  0  0  0  0  0  0
    6.7191   -5.3173    0.0000 C   0  0  0  0  0  0  0  0  0  0  0  0
    2.9511   -7.2853    0.0000 C   0  0  0  0  0  0  0  0  0  0  0  0
    3.6504   -5.3173    0.0000 C   0  0  0  0  0  0  0  0  0  0  0  0
    3.9292   -7.0774    0.0000 C   0  0  0  0  0  0  0  0  0  0  0  0
    2.0000   -6.9763    0.0000 C   0  0  0  0  0  0  0  0  0  0  0  0
    2.2079   -7.9544    0.0000 C   0  0  0  0  0  0  0  0  0  0  0  0
    6.4462   -3.5621    0.0000 C   0  0  0  0  0  0  0  0  0  0  0  0
    3.9292   -3.5573    0.0000 C   0  0  0  0  0  0  0  0  0  0  0  0
    7.4247   -3.3559    0.0000 C   0  0  2  0  0  0  0  0  0  0  0  0
    8.1666   -4.0263    0.0000 C   0  0  0  0  0  0  0  0  0  0  0  0
    9.0335   -3.5278    0.0000 C   0  0  0  0  0  0  0  0  0  0  0  0
    8.8273   -2.5493    0.0000 C   0  0  0  0  0  0  0  0  0  0  0  0
    7.3345   -1.5761    0.0000 C   0  0  0  0  0  0  0  0  0  0  0  0
    7.3375    0.1559    0.0000 C   0  0  0  0  0  0  0  0  0  0  0  0
    7.8390    1.0211    0.0000 C   0  0  0  0  0  0  0  0  0  0  0  0
    6.3375    0.1576    0.0000 C   0  0  0  0  0  0  0  0  0  0  0  0
    7.3405    1.8880    0.0000 C   0  0  0  0  0  0  0  0  0  0  0  0
    5.8390    1.0245    0.0000 C   0  0  0  0  0  0  0  0  0  0  0  0
    6.3405    1.8897    0.0000 C   0  0  0  0  0  0  0  0  0  0  0  0
    5.8420    2.7566    0.0000 C   0  0  0  0  0  0  0  0  0  0  0  0
    4.8420    2.7583    0.0000 C   0  0  0  0  0  0  0  0  0  0  0  0
    6.3435    3.6217    0.0000 C   0  0  0  0  0  0  0  0  0  0  0  0
    4.3435    3.6252    0.0000 C   0  0  0  0  0  0  0  0  0  0  0  0
    5.8450    4.4886    0.0000 C   0  0  0  0  0  0  0  0  0  0  0  0
    4.8450    4.4904    0.0000 C   0  0  0  0  0  0  0  0  0  0  0  0
    4.8480    6.2224    0.0000 C   0  0  0  0  0  0  0  0  0  0  0  0
    4.3495    7.0893    0.0000 C   0  0  0  0  0  0  0  0  0  0  0  0
    4.8510    7.9544    0.0000 C   0  0  0  0  0  0  0  0  0  0  0  0
    5.1904   -3.9673    0.0000 H   0  0  0  0  0  0  0  0  0  0  0  0
    5.1904   -6.6673    0.0000 H   0  0  0  0  0  0  0  0  0  0  0  0
    3.6258   -4.4113    0.0000 H   0  0  0  0  0  0  0  0  0  0  0  0
    5.8845   -6.6890    0.0000 H   0  0  0  0  0  0  0  0  0  0  0  0
    6.6729   -6.4313    0.0000 H   0  0  0  0  0  0  0  0  0  0  0  0
    7.1800   -5.7321    0.0000 H   0  0  0  0  0  0  0  0  0  0  0  0
    7.1800   -4.9026    0.0000 H   0  0  0  0  0  0  0  0  0  0  0  0
    3.2325   -7.8378    0.0000 H   0  0  0  0  0  0  0  0  0  0  0  0
    2.0863   -6.3623    0.0000 H   0  0  0  0  0  0  0  0  0  0  0  0
    1.3804   -6.9979    0.0000 H   0  0  0  0  0  0  0  0  0  0  0  0
    1.6331   -8.1867    0.0000 H   0  0  0  0  0  0  0  0  0  0  0  0
    2.5365   -8.4802    0.0000 H   0  0  0  0  0  0  0  0  0  0  0  0
    4.5189   -3.3657    0.0000 H   0  0  0  0  0  0  0  0  0  0  0  0
    3.7376   -2.9676    0.0000 H   0  0  0  0  0  0  0  0  0  0  0  0
    3.3396   -3.7489    0.0000 H   0  0  0  0  0  0  0  0  0  0  0  0
    7.0353   -2.8734    0.0000 H   0  0  0  0  0  0  0  0  0  0  0  0
    7.7052   -4.4403    0.0000 H   0  0  0  0  0  0  0  0  0  0  0  0
    8.5302   -4.5285    0.0000 H   0  0  0  0  0  0  0  0  0  0  0  0
    9.2847   -4.0946    0.0000 H   0  0  0  0  0  0  0  0  0  0  0  0
    9.6235   -3.3372    0.0000 H   0  0  0  0  0  0  0  0  0  0  0  0
    9.4440   -2.4855    0.0000 H   0  0  0  0  0  0  0  0  0  0  0  0
    8.8284   -1.9293    0.0000 H   0  0  0  0  0  0  0  0  0  0  0  0
    8.4560   -0.7121    0.0000 H   0  0  0  0  0  0  0  0  0  0  0  0
    8.4590    1.0200    0.0000 H   0  0  0  0  0  0  0  0  0  0  0  0
    6.0266   -0.3788    0.0000 H   0  0  0  0  0  0  0  0  0  0  0  0
    7.6514    2.4244    0.0000 H   0  0  0  0  0  0  0  0  0  0  0  0
    5.2190    1.0256    0.0000 H   0  0  0  0  0  0  0  0  0  0  0  0
    4.5310    2.2219    0.0000 H   0  0  0  0  0  0  0  0  0  0  0  0
    6.9635    3.6207    0.0000 H   0  0  0  0  0  0  0  0  0  0  0  0
    3.7235    3.6263    0.0000 H   0  0  0  0  0  0  0  0  0  0  0  0
    6.1559    5.0250    0.0000 H   0  0  0  0  0  0  0  0  0  0  0  0
    5.3222    5.8231    0.0000 H   0  0  0  0  0  0  0  0  0  0  0  0
    5.3236    6.6201    0.0000 H   0  0  0  0  0  0  0  0  0  0  0  0
    3.8752    7.4886    0.0000 H   0  0  0  0  0  0  0  0  0  0  0  0
    3.8738    6.6916    0.0000 H   0  0  0  0  0  0  0  0  0  0  0  0
    5.3874    7.6435    0.0000 H   0  0  0  0  0  0  0  0  0  0  0  0
    5.1619    8.4908    0.0000 H   0  0  0  0  0  0  0  0  0  0  0  0
    4.3146    8.2654    0.0000 H   0  0  0  0  0  0  0  0  0  0  0  0
  1 16  2  0  0  0  0
  2 17  2  0  0  0  0
  3 20  2  0  0  0  0
  4 26  2  0  0  0  0
  5 38  1  0  0  0  0
  5 39  1  0  0  0  0
  6 10  1  0  0  0  0
  6 14  1  0  0  0  0
  6 20  1  0  0  0  0
  7 11  1  0  0  0  0
  7 16  1  0  0  0  0
  7 17  1  0  0  0  0
  8 22  1  0  0  0  0
  8 25  1  0  0  0  0
  8 26  1  0  0  0  0
  9 26  1  0  0  0  0
  9 27  1  0  0  0  0
  9 64  1  0  0  0  0
 10 11  1  0  0  0  0
 10 12  1  0  0  0  0
 10 42  1  6  0  0  0
 11 13  1  0  0  0  0
 11 43  1  1  0  0  0
 12 16  1  0  0  0  0
 12 21  1  1  0  0  0
 12 44  1  0  0  0  0
 13 14  1  0  0  0  0
 13 45  1  0  0  0  0
 13 46  1  0  0  0  0
 14 47  1  0  0  0  0
 14 48  1  0  0  0  0
 15 17  1  0  0  0  0
 15 18  1  0  0  0  0
 15 19  1  0  0  0  0
 15 49  1  0  0  0  0
 18 19  1  0  0  0  0
 18 50  1  0  0  0  0
 18 51  1  0  0  0  0
 19 52  1  0  0  0  0
 19 53  1  0  0  0  0
 22 20  1  1  0  0  0
 21 54  1  0  0  0  0
 21 55  1  0  0  0  0
 21 56  1  0  0  0  0
 22 23  1  0  0  0  0
 22 57  1  0  0  0  0
 23 24  1  0  0  0  0
 23 58  1  0  0  0  0
 23 59  1  0  0  0  0
 24 25  1  0  0  0  0
 24 60  1  0  0  0  0
 24 61  1  0  0  0  0
 25 62  1  0  0  0  0
 25 63  1  0  0  0  0
 27 28  2  0  0  0  0
 27 29  1  0  0  0  0
 28 30  1  0  0  0  0
 28 65  1  0  0  0  0
 29 31  2  0  0  0  0
 29 66  1  0  0  0  0
 30 32  2  0  0  0  0
 30 67  1  0  0  0  0
 31 32  1  0  0  0  0
 31 68  1  0  0  0  0
 32 33  1  0  0  0  0
 33 34  2  0  0  0  0
 33 35  1  0  0  0  0
 34 36  1  0  0  0  0
 34 69  1  0  0  0  0
 35 37  2  0  0  0  0
 35 70  1  0  0  0  0
 36 38  2  0  0  0  0
 36 71  1  0  0  0  0
 37 38  1  0  0  0  0
 37 72  1  0  0  0  0
 39 40  1  0  0  0  0
 39 73  1  0  0  0  0
 39 74  1  0  0  0  0
 40 41  1  0  0  0  0
 40 75  1  0  0  0  0
 40 76  1  0  0  0  0
 41 77  1  0  0  0  0
 41 78  1  0  0  0  0
 41 79  1  0  0  0  0
M  END
> <PUBCHEM_COMPOUND_CID>
511107
> <PUBCHEM_COMPOUND_CANONICALIZED>
1
> <PUBCHEM_CACTVS_COMPLEXITY>
1000
> <PUBCHEM_CACTVS_HBOND_ACCEPTOR>
5
> <PUBCHEM_CACTVS_HBOND_DONOR>
1
> <PUBCHEM_CACTVS_ROTATABLE_BOND>
7
> <PUBCHEM_CACTVS_SUBSKEYS>
AAADcfB/uAAAAAAAAAAAAAAAGAAAAWLFgAAwYAAAAAAWAAABQAAAHgAQAAAADSzhmAYzxoPABACIAiVSUACCCAAhIgAIiAGObIiMZjrE8buWOCjs1jPI6CecyfAOqAAAAAAAAABQAAAAAAAAAAAAAAAAAA==
> <PUBCHEM_IUPAC_OPENEYE_NAME>
(2S)-2-[(3aS,6S,6aR)-4-(cyclopropanecarbonyl)-6-methyl-5-oxo-3,3a,6,6a-tetrahydro-2H-pyrrolo[3,2-b]pyrrole-1-carbonyl]-N-[4-(4-propoxyphenyl)phenyl]pyrrolidine-1-carboxamide
> <PUBCHEM_IUPAC_CAS_NAME>
(2S)-2-[[(3aS,6S,6aR)-4-[cyclopropyl(oxo)methyl]-6-methyl-5-oxo-3,3a,6,6a-tetrahydro-2H-pyrrolo[3,2-b]pyrrol-1-yl]-oxomethyl]-N-[4-(4-propoxyphenyl)phenyl]-1-pyrrolidinecarboxamide
> <PUBCHEM_IUPAC_NAME_MARKUP>
(2<I>S</I>)-2-[(3<I>a</I><I>S</I>,6<I>S</I>,6<I>a</I><I>R</I>)-4-(cyclopropanecarbonyl)-6-methyl-5-oxo-3,3<I>a</I>,6,6<I>a</I>-tetrahydro-2<I>H</I>-pyrrolo[3,2-b]pyrrole-1-carbonyl]-<I>N</I>-[4-(4-propoxyphenyl)phenyl]pyrrolidine-1-carboxamide
> <PUBCHEM_IUPAC_NAME>
(2S)-2-[(3aS,6S,6aR)-4-(cyclopropanecarbonyl)-6-methyl-5-oxo-3,3a,6,6a-tetrahydro-2H-pyrrolo[3,2-b]pyrrole-1-carbonyl]-N-[4-(4-propoxyphenyl)phenyl]pyrrolidine-1-carboxamide
> <PUBCHEM_IUPAC_SYSTEMATIC_NAME>
(2S)-2-[[(3aS,6S,6aR)-4-cyclopropylcarbonyl-6-methyl-5-oxidanylidene-3,3a,6,6a-tetrahydro-2H-pyrrolo[3,2-b]pyrrol-1-yl]carbonyl]-N-[4-(4-propoxyphenyl)phenyl]pyrrolidine-1-carboxamide
> <PUBCHEM_IUPAC_TRADITIONAL_NAME>
(2S)-2-[(3aS,6S,6aR)-4-(cyclopropanecarbonyl)-5-keto-6-methyl-3,3a,6,6a-tetrahydro-2H-pyrrolo[3,2-b]pyrrole-1-carbonyl]-N-[4-(4-propoxyphenyl)phenyl]pyrrolidine-1-carboxamide
> <PUBCHEM_IUPAC_INCHI>
InChI=1S/C32H38N4O5/c1-3-19-41-25-14-10-22(11-15-25)21-8-12-24(13-9-21)33-32(40)34-17-4-5-27(34)31(39)35-18-16-26-28(35)20(2)29(37)36(26)30(38)23-6-7-23/h8-15,20,23,26-28H,3-7,16-19H2,1-2H3,(H,33,40)/t20-,26-,27-,28+/m0/s1
> <PUBCHEM_IUPAC_INCHIKEY>
CIZKKNNWRYMVSB-QGQKXLEHSA-N
> <PUBCHEM_XLOGP3_AA>
3.9
> <PUBCHEM_EXACT_MASS>
558.28422033
> <PUBCHEM_MOLECULAR_FORMULA>
C32H38N4O5
> <PUBCHEM_MOLECULAR_WEIGHT>
558.7
> <PUBCHEM_OPENEYE_CAN_SMILES>
CCCOC1=CC=C(C=C1)C2=CC=C(C=C2)NC(=O)N3CCCC3C(=O)N4CCC5C4C(C(=O)N5C(=O)C6CC6)C
> <PUBCHEM_OPENEYE_ISO_SMILES>
CCCOC1=CC=C(C=C1)C2=CC=C(C=C2)NC(=O)N3CCC[C@H]3C(=O)N4CC[C@H]5[C@H]4[C@@H](C(=O)N5C(=O)C6CC6)C
> <PUBCHEM_CACTVS_TPSA>
99.3
> <PUBCHEM_MONOISOTOPIC_WEIGHT>
558.28422033
> <PUBCHEM_TOTAL_CHARGE>
0
> <PUBCHEM_HEAVY_ATOM_COUNT>
41
> <PUBCHEM_ATOM_DEF_STEREO_COUNT>
4
> <PUBCHEM_ATOM_UDEF_STEREO_COUNT>
0
> <PUBCHEM_BOND_DEF_STEREO_COUNT>
0
> <PUBCHEM_BOND_UDEF_STEREO_COUNT>
0
> <PUBCHEM_ISOTOPIC_ATOM_COUNT>
0
> <PUBCHEM_COMPONENT_COUNT>
1
> <PUBCHEM_CACTVS_TAUTO_COUNT>
-1
> <PUBCHEM_COORDINATE_TYPE>
1
5
255
> <PUBCHEM_BONDANNOTATIONS>
10  42  6
11  43  5
12  21  5
22  20  5
27  28  8
27  29  8
28  30  8
29  31  8
30  32  8
31  32  8
33  34  8
33  35  8
34  36  8
35  37  8
36  38  8
37  38  8
$$$$
