511150
  -OEChem-10302200282D
 94 96  0     1  0  0  0  0  0999 V2000
    5.4641   -2.4076    0.0000 O   0  0  0  0  0  0  0  0  0  0  0  0
    8.8141    0.3129    0.0000 O   0  0  0  0  0  0  0  0  0  0  0  0
    9.4951   -0.8667    0.0000 O   0  0  0  0  0  0  0  0  0  0  0  0
    6.0562    2.6354    0.0000 O   0  0  0  0  0  0  0  0  0  0  0  0
    6.3301   -3.9076    0.0000 O   0  0  0  0  0  0  0  0  0  0  0  0
   11.7098   -3.7119    0.0000 O   0  0  0  0  0  0  0  0  0  0  0  0
    8.2709    5.4806    0.0000 O   0  0  0  0  0  0  0  0  0  0  0  0
    2.8660   -4.9076    0.0000 O   0  0  0  0  0  0  0  0  0  0  0  0
    6.3301   -6.9076    0.0000 O   0  0  0  0  0  0  0  0  0  0  0  0
    7.4128   -0.7052    0.0000 N   0  0  0  0  0  0  0  0  0  0  0  0
    7.6385    1.9309    0.0000 N   0  0  0  0  0  0  0  0  0  0  0  0
    9.3141   -2.5893    0.0000 N   0  0  0  0  0  0  0  0  0  0  0  0
    6.8697    4.4625    0.0000 N   0  0  0  0  0  0  0  0  0  0  0  0
    4.5981   -3.9076    0.0000 N   0  0  0  0  0  0  0  0  0  0  0  0
    5.6941    6.0805    0.0000 N   0  0  0  0  0  0  0  0  0  0  0  0
    6.5076    7.9076    0.0000 N   0  0  0  0  0  0  0  0  0  0  0  0
    7.9128   -1.5712    0.0000 C   0  0  1  0  0  0  0  0  0  0  0  0
    7.2437   -2.3144    0.0000 C   0  0  0  0  0  0  0  0  0  0  0  0
    6.3301   -1.9076    0.0000 C   0  0  2  0  0  0  0  0  0  0  0  0
    6.4347   -0.9131    0.0000 C   0  0  0  0  0  0  0  0  0  0  0  0
    7.8195    0.2084    0.0000 C   0  0  0  0  0  0  0  0  0  0  0  0
    7.2318    1.0174    0.0000 C   0  0  1  0  0  0  0  0  0  0  0  0
    8.9073   -1.6757    0.0000 C   0  0  0  0  0  0  0  0  0  0  0  0
    6.2372    0.9128    0.0000 C   0  0  0  0  0  0  0  0  0  0  0  0
    5.6494    1.7219    0.0000 C   0  0  0  0  0  0  0  0  0  0  0  0
    5.8305   -0.0007    0.0000 C   0  0  0  0  0  0  0  0  0  0  0  0
   10.3086   -2.6938    0.0000 C   0  0  1  0  0  0  0  0  0  0  0  0
    7.0507    2.7399    0.0000 C   0  0  0  0  0  0  0  0  0  0  0  0
    7.4574    3.6535    0.0000 C   0  0  1  0  0  0  0  0  0  0  0  0
    5.4641   -3.4076    0.0000 C   0  0  0  0  0  0  0  0  0  0  0  0
    8.4520    3.7580    0.0000 C   0  0  0  0  0  0  0  0  0  0  0  0
   10.8964   -1.8848    0.0000 C   0  0  0  0  0  0  0  0  0  0  0  0
   10.7153   -3.6074    0.0000 C   0  0  0  0  0  0  0  0  0  0  0  0
    8.8587    4.6716    0.0000 C   0  0  0  0  0  0  0  0  0  0  0  0
    9.0398    2.9490    0.0000 C   0  0  0  0  0  0  0  0  0  0  0  0
   11.8909   -1.9893    0.0000 C   0  0  0  0  0  0  0  0  0  0  0  0
    4.5981   -4.9076    0.0000 C   0  0  0  0  0  0  0  0  0  0  0  0
    7.2764    5.3760    0.0000 C   0  0  0  0  0  0  0  0  0  0  0  0
    3.7320   -5.4076    0.0000 C   0  0  0  0  0  0  0  0  0  0  0  0
    5.4641   -5.4076    0.0000 C   0  0  0  0  0  0  0  0  0  0  0  0
    6.6886    6.1851    0.0000 C   0  0  0  0  0  0  0  0  0  0  0  0
    5.4641   -6.4076    0.0000 C   0  0  0  0  0  0  0  0  0  0  0  0
    3.7320   -6.4076    0.0000 C   0  0  0  0  0  0  0  0  0  0  0  0
    4.5981   -6.9076    0.0000 C   0  0  0  0  0  0  0  0  0  0  0  0
    7.0954    7.0986    0.0000 C   0  0  0  0  0  0  0  0  0  0  0  0
    5.1063    6.8896    0.0000 C   0  0  0  0  0  0  0  0  0  0  0  0
    2.0000   -5.4076    0.0000 C   0  0  0  0  0  0  0  0  0  0  0  0
    5.5130    7.8031    0.0000 C   0  0  0  0  0  0  0  0  0  0  0  0
    6.3301   -7.9076    0.0000 C   0  0  0  0  0  0  0  0  0  0  0  0
    8.2505   -1.0512    0.0000 H   0  0  0  0  0  0  0  0  0  0  0  0
    6.9337   -2.8513    0.0000 H   0  0  0  0  0  0  0  0  0  0  0  0
    7.7453   -2.6788    0.0000 H   0  0  0  0  0  0  0  0  0  0  0  0
    6.3626   -2.5268    0.0000 H   0  0  0  0  0  0  0  0  0  0  0  0
    6.3698   -0.2965    0.0000 H   0  0  0  0  0  0  0  0  0  0  0  0
    5.8147   -0.9131    0.0000 H   0  0  0  0  0  0  0  0  0  0  0  0
    6.8673    1.5190    0.0000 H   0  0  0  0  0  0  0  0  0  0  0  0
    6.6017    0.4113    0.0000 H   0  0  0  0  0  0  0  0  0  0  0  0
    8.2551    1.9957    0.0000 H   0  0  0  0  0  0  0  0  0  0  0  0
    8.9496   -3.0909    0.0000 H   0  0  0  0  0  0  0  0  0  0  0  0
    6.1510    2.0863    0.0000 H   0  0  0  0  0  0  0  0  0  0  0  0
    5.2850    2.2234    0.0000 H   0  0  0  0  0  0  0  0  0  0  0  0
    5.1479    1.3574    0.0000 H   0  0  0  0  0  0  0  0  0  0  0  0
    5.2641    0.2515    0.0000 H   0  0  0  0  0  0  0  0  0  0  0  0
    5.5783   -0.5671    0.0000 H   0  0  0  0  0  0  0  0  0  0  0  0
    6.3969   -0.2529    0.0000 H   0  0  0  0  0  0  0  0  0  0  0  0
    9.9442   -3.1954    0.0000 H   0  0  0  0  0  0  0  0  0  0  0  0
    6.8408    3.5887    0.0000 H   0  0  0  0  0  0  0  0  0  0  0  0
    8.1998    3.1916    0.0000 H   0  0  0  0  0  0  0  0  0  0  0  0
   11.0673   -1.2888    0.0000 H   0  0  0  0  0  0  0  0  0  0  0  0
   10.3391   -1.6130    0.0000 H   0  0  0  0  0  0  0  0  0  0  0  0
    6.2530    4.3977    0.0000 H   0  0  0  0  0  0  0  0  0  0  0  0
   10.3509   -4.1090    0.0000 H   0  0  0  0  0  0  0  0  0  0  0  0
    9.4251    4.4194    0.0000 H   0  0  0  0  0  0  0  0  0  0  0  0
    9.1109    5.2380    0.0000 H   0  0  0  0  0  0  0  0  0  0  0  0
    8.2923    4.9237    0.0000 H   0  0  0  0  0  0  0  0  0  0  0  0
    8.5382    2.5846    0.0000 H   0  0  0  0  0  0  0  0  0  0  0  0
    9.4042    2.4474    0.0000 H   0  0  0  0  0  0  0  0  0  0  0  0
    9.5413    3.3134    0.0000 H   0  0  0  0  0  0  0  0  0  0  0  0
    4.0611   -3.5976    0.0000 H   0  0  0  0  0  0  0  0  0  0  0  0
   11.8261   -2.6059    0.0000 H   0  0  0  0  0  0  0  0  0  0  0  0
   12.5075   -2.0541    0.0000 H   0  0  0  0  0  0  0  0  0  0  0  0
   11.9557   -1.3727    0.0000 H   0  0  0  0  0  0  0  0  0  0  0  0
    6.0010   -5.0976    0.0000 H   0  0  0  0  0  0  0  0  0  0  0  0
    3.1951   -6.7176    0.0000 H   0  0  0  0  0  0  0  0  0  0  0  0
    4.5981   -7.5276    0.0000 H   0  0  0  0  0  0  0  0  0  0  0  0
    7.7120    7.1634    0.0000 H   0  0  0  0  0  0  0  0  0  0  0  0
    4.4897    6.8247    0.0000 H   0  0  0  0  0  0  0  0  0  0  0  0
    1.6900   -4.8707    0.0000 H   0  0  0  0  0  0  0  0  0  0  0  0
    1.4631   -5.7176    0.0000 H   0  0  0  0  0  0  0  0  0  0  0  0
    2.3100   -5.9446    0.0000 H   0  0  0  0  0  0  0  0  0  0  0  0
    5.1486    8.3047    0.0000 H   0  0  0  0  0  0  0  0  0  0  0  0
    5.7101   -7.9076    0.0000 H   0  0  0  0  0  0  0  0  0  0  0  0
    6.3301   -8.5276    0.0000 H   0  0  0  0  0  0  0  0  0  0  0  0
    6.9501   -7.9076    0.0000 H   0  0  0  0  0  0  0  0  0  0  0  0
 19  1  1  1  0  0  0
  1 30  1  0  0  0  0
  2 21  2  0  0  0  0
  3 23  2  0  0  0  0
  4 28  2  0  0  0  0
  5 30  2  0  0  0  0
  6 33  2  0  0  0  0
  7 38  2  0  0  0  0
  8 39  1  0  0  0  0
  8 47  1  0  0  0  0
  9 42  1  0  0  0  0
  9 49  1  0  0  0  0
 10 17  1  0  0  0  0
 10 20  1  0  0  0  0
 10 21  1  0  0  0  0
 22 11  1  1  0  0  0
 11 28  1  0  0  0  0
 11 58  1  0  0  0  0
 12 23  1  0  0  0  0
 27 12  1  1  0  0  0
 12 59  1  0  0  0  0
 29 13  1  6  0  0  0
 13 38  1  0  0  0  0
 13 71  1  0  0  0  0
 14 30  1  0  0  0  0
 14 37  1  0  0  0  0
 14 79  1  0  0  0  0
 15 41  2  0  0  0  0
 15 46  1  0  0  0  0
 16 45  2  0  0  0  0
 16 48  1  0  0  0  0
 17 18  1  0  0  0  0
 17 23  1  6  0  0  0
 17 50  1  0  0  0  0
 18 19  1  0  0  0  0
 18 51  1  0  0  0  0
 18 52  1  0  0  0  0
 19 20  1  0  0  0  0
 19 53  1  0  0  0  0
 20 54  1  0  0  0  0
 20 55  1  0  0  0  0
 21 22  1  0  0  0  0
 22 24  1  0  0  0  0
 22 56  1  0  0  0  0
 24 25  1  0  0  0  0
 24 26  1  0  0  0  0
 24 57  1  0  0  0  0
 25 60  1  0  0  0  0
 25 61  1  0  0  0  0
 25 62  1  0  0  0  0
 26 63  1  0  0  0  0
 26 64  1  0  0  0  0
 26 65  1  0  0  0  0
 27 32  1  0  0  0  0
 27 33  1  0  0  0  0
 27 66  1  0  0  0  0
 28 29  1  0  0  0  0
 29 31  1  0  0  0  0
 29 67  1  0  0  0  0
 31 34  1  0  0  0  0
 31 35  1  0  0  0  0
 31 68  1  0  0  0  0
 32 36  1  0  0  0  0
 32 69  1  0  0  0  0
 32 70  1  0  0  0  0
 33 72  1  0  0  0  0
 34 73  1  0  0  0  0
 34 74  1  0  0  0  0
 34 75  1  0  0  0  0
 35 76  1  0  0  0  0
 35 77  1  0  0  0  0
 35 78  1  0  0  0  0
 36 80  1  0  0  0  0
 36 81  1  0  0  0  0
 36 82  1  0  0  0  0
 37 39  2  0  0  0  0
 37 40  1  0  0  0  0
 38 41  1  0  0  0  0
 39 43  1  0  0  0  0
 40 42  2  0  0  0  0
 40 83  1  0  0  0  0
 41 45  1  0  0  0  0
 42 44  1  0  0  0  0
 43 44  2  0  0  0  0
 43 84  1  0  0  0  0
 44 85  1  0  0  0  0
 45 86  1  0  0  0  0
 46 48  2  0  0  0  0
 46 87  1  0  0  0  0
 47 88  1  0  0  0  0
 47 89  1  0  0  0  0
 47 90  1  0  0  0  0
 48 91  1  0  0  0  0
 49 92  1  0  0  0  0
 49 93  1  0  0  0  0
 49 94  1  0  0  0  0
M  END
> <PUBCHEM_COMPOUND_CID>
511150
> <PUBCHEM_COMPOUND_CANONICALIZED>
1
> <PUBCHEM_CACTVS_COMPLEXITY>
1160
> <PUBCHEM_CACTVS_HBOND_ACCEPTOR>
11
> <PUBCHEM_CACTVS_HBOND_DONOR>
4
> <PUBCHEM_CACTVS_ROTATABLE_BOND>
16
> <PUBCHEM_CACTVS_SUBSKEYS>
AAADcfB/vAAAAAAAAAAAAAAAAAAAAWAAAAA8QAAAAAAAAAABwAAAHgAQAAAADTzhlgY+zpPIFACoAT133ACCiCQ3MiAI2IG/fMkOZnrE8budMKhm1hnY6Mf6UQMIAQAAAgAAEAACAAAEAAAgAAAAAAAAAA==
> <PUBCHEM_IUPAC_OPENEYE_NAME>
[(3R,5S)-5-[[(1S)-1-formylpropyl]carbamoyl]-1-[(2R)-3-methyl-2-[[(2R)-3-methyl-2-(pyrazine-2-carbonylamino)butanoyl]amino]butanoyl]pyrrolidin-3-yl] N-(2,5-dimethoxyphenyl)carbamate
> <PUBCHEM_IUPAC_CAS_NAME>
N-(2,5-dimethoxyphenyl)carbamic acid [(3R,5S)-1-[(2R)-3-methyl-2-[[(2R)-3-methyl-1-oxo-2-[[oxo(2-pyrazinyl)methyl]amino]butyl]amino]-1-oxobutyl]-5-[oxo-[[(2S)-1-oxobutan-2-yl]amino]methyl]-3-pyrrolidinyl] ester
> <PUBCHEM_IUPAC_NAME_MARKUP>
[(3<I>R</I>,5<I>S</I>)-1-[(2<I>R</I>)-3-methyl-2-[[(2<I>R</I>)-3-methyl-2-(pyrazine-2-carbonylamino)butanoyl]amino]butanoyl]-5-[[(2<I>S</I>)-1-oxobutan-2-yl]carbamoyl]pyrrolidin-3-yl] <I>N</I>-(2,5-dimethoxyphenyl)carbamate
> <PUBCHEM_IUPAC_NAME>
[(3R,5S)-1-[(2R)-3-methyl-2-[[(2R)-3-methyl-2-(pyrazine-2-carbonylamino)butanoyl]amino]butanoyl]-5-[[(2S)-1-oxobutan-2-yl]carbamoyl]pyrrolidin-3-yl] N-(2,5-dimethoxyphenyl)carbamate
> <PUBCHEM_IUPAC_SYSTEMATIC_NAME>
[(3R,5S)-1-[(2R)-3-methyl-2-[[(2R)-3-methyl-2-(pyrazin-2-ylcarbonylamino)butanoyl]amino]butanoyl]-5-[[(2S)-1-oxidanylidenebutan-2-yl]carbamoyl]pyrrolidin-3-yl] N-(2,5-dimethoxyphenyl)carbamate
> <PUBCHEM_IUPAC_TRADITIONAL_NAME>
N-(2,5-dimethoxyphenyl)carbamic acid [(3R,5S)-5-[[(1S)-1-formylpropyl]carbamoyl]-1-[(2R)-3-methyl-2-[[(2R)-3-methyl-2-(pyrazinoylamino)butanoyl]amino]butanoyl]pyrrolidin-3-yl] ester
> <PUBCHEM_IUPAC_INCHI>
InChI=1S/C33H45N7O9/c1-8-20(17-41)36-30(43)25-14-22(49-33(46)37-23-13-21(47-6)9-10-26(23)48-7)16-40(25)32(45)28(19(4)5)39-31(44)27(18(2)3)38-29(42)24-15-34-11-12-35-24/h9-13,15,17-20,22,25,27-28H,8,14,16H2,1-7H3,(H,36,43)(H,37,46)(H,38,42)(H,39,44)/t20-,22+,25-,27+,28+/m0/s1
> <PUBCHEM_IUPAC_INCHIKEY>
PICYMFYLWXIKHG-SJGKJGSCSA-N
> <PUBCHEM_XLOGP3_AA>
2.3
> <PUBCHEM_EXACT_MASS>
683.32787604
> <PUBCHEM_MOLECULAR_FORMULA>
C33H45N7O9
> <PUBCHEM_MOLECULAR_WEIGHT>
683.8
> <PUBCHEM_OPENEYE_CAN_SMILES>
CCC(C=O)NC(=O)C1CC(CN1C(=O)C(C(C)C)NC(=O)C(C(C)C)NC(=O)C2=NC=CN=C2)OC(=O)NC3=C(C=CC(=C3)OC)OC
> <PUBCHEM_OPENEYE_ISO_SMILES>
CC[C@@H](C=O)NC(=O)[C@@H]1C[C@H](CN1C(=O)[C@@H](C(C)C)NC(=O)[C@@H](C(C)C)NC(=O)C2=NC=CN=C2)OC(=O)NC3=C(C=CC(=C3)OC)OC
> <PUBCHEM_CACTVS_TPSA>
207
> <PUBCHEM_MONOISOTOPIC_WEIGHT>
683.32787604
> <PUBCHEM_TOTAL_CHARGE>
0
> <PUBCHEM_HEAVY_ATOM_COUNT>
49
> <PUBCHEM_ATOM_DEF_STEREO_COUNT>
5
> <PUBCHEM_ATOM_UDEF_STEREO_COUNT>
0
> <PUBCHEM_BOND_DEF_STEREO_COUNT>
0
> <PUBCHEM_BOND_UDEF_STEREO_COUNT>
0
> <PUBCHEM_ISOTOPIC_ATOM_COUNT>
0
> <PUBCHEM_COMPONENT_COUNT>
1
> <PUBCHEM_CACTVS_TAUTO_COUNT>
-1
> <PUBCHEM_COORDINATE_TYPE>
1
5
255
> <PUBCHEM_BONDANNOTATIONS>
19  1  5
22  11  5
27  12  5
29  13  6
15  41  8
15  46  8
16  45  8
16  48  8
17  23  6
37  39  8
37  40  8
39  43  8
40  42  8
41  45  8
42  44  8
43  44  8
46  48  8
$$$$
