511145
  -OEChem-10302200282D
 86 88  0     1  0  0  0  0  0999 V2000
    6.3848    2.1473    0.0000 O   0  0  0  0  0  0  0  0  0  0  0  0
    8.7403   -1.4687    0.0000 O   0  0  0  0  0  0  0  0  0  0  0  0
    7.4959   -2.0227    0.0000 O   0  0  0  0  0  0  0  0  0  0  0  0
   11.3383    1.0313    0.0000 O   0  0  0  0  0  0  0  0  0  0  0  0
    4.8025    1.4428    0.0000 O   0  0  0  0  0  0  0  0  0  0  0  0
    4.4348   -3.9279    0.0000 O   0  0  0  0  0  0  0  0  0  0  0  0
   13.9364   -1.4687    0.0000 O   0  0  0  0  0  0  0  0  0  0  0  0
    7.8742    0.0313    0.0000 N   0  0  0  0  0  0  0  0  0  0  0  0
   10.4723   -0.4687    0.0000 N   0  0  0  0  0  0  0  0  0  0  0  0
    5.8017   -1.6626    0.0000 N   0  0  0  0  0  0  0  0  0  0  0  0
   13.0704    0.0313    0.0000 N   0  0  0  0  0  0  0  0  0  0  0  0
    4.9836    3.1654    0.0000 N   0  0  0  0  0  0  0  0  0  0  0  0
   15.6685   -0.4687    0.0000 N   0  0  0  0  0  0  0  0  0  0  0  0
   15.6685    1.5313    0.0000 N   0  0  0  0  0  0  0  0  0  0  0  0
    6.9607   -0.3754    0.0000 C   0  0  1  0  0  0  0  0  0  0  0  0
    6.2916    0.3677    0.0000 C   0  0  0  0  0  0  0  0  0  0  0  0
    6.7916    1.2338    0.0000 C   0  0  2  0  0  0  0  0  0  0  0  0
    7.7697    1.0259    0.0000 C   0  0  0  0  0  0  0  0  0  0  0  0
    8.7403   -0.4687    0.0000 C   0  0  0  0  0  0  0  0  0  0  0  0
    9.6063    0.0313    0.0000 C   0  0  1  0  0  0  0  0  0  0  0  0
    6.7528   -1.3536    0.0000 C   0  0  0  0  0  0  0  0  0  0  0  0
    9.6063    1.0313    0.0000 C   0  0  0  0  0  0  0  0  0  0  0  0
   10.4723    1.5313    0.0000 C   0  0  0  0  0  0  0  0  0  0  0  0
    8.7403    1.5313    0.0000 C   0  0  0  0  0  0  0  0  0  0  0  0
    5.5938   -2.6407    0.0000 C   0  0  1  0  0  0  0  0  0  0  0  0
   11.3383    0.0313    0.0000 C   0  0  0  0  0  0  0  0  0  0  0  0
   12.2044   -0.4687    0.0000 C   0  0  1  0  0  0  0  0  0  0  0  0
    5.3903    2.2518    0.0000 C   0  0  0  0  0  0  0  0  0  0  0  0
   12.2044   -1.4687    0.0000 C   0  0  0  0  0  0  0  0  0  0  0  0
    6.3370   -3.3098    0.0000 C   0  0  0  0  0  0  0  0  0  0  0  0
    4.6428   -2.9497    0.0000 C   0  0  0  0  0  0  0  0  0  0  0  0
   11.3383   -1.9687    0.0000 C   0  0  0  0  0  0  0  0  0  0  0  0
   13.0704   -1.9687    0.0000 C   0  0  0  0  0  0  0  0  0  0  0  0
    6.1290   -4.2880    0.0000 C   0  0  0  0  0  0  0  0  0  0  0  0
   13.9364   -0.4687    0.0000 C   0  0  0  0  0  0  0  0  0  0  0  0
    3.9890    3.2699    0.0000 C   0  0  0  0  0  0  0  0  0  0  0  0
   14.8024    0.0313    0.0000 C   0  0  0  0  0  0  0  0  0  0  0  0
    3.5823    4.1835    0.0000 C   0  0  0  0  0  0  0  0  0  0  0  0
    3.4013    2.4609    0.0000 C   0  0  0  0  0  0  0  0  0  0  0  0
    2.5878    4.2880    0.0000 C   0  0  0  0  0  0  0  0  0  0  0  0
    2.4067    2.5654    0.0000 C   0  0  0  0  0  0  0  0  0  0  0  0
   14.8024    1.0313    0.0000 C   0  0  0  0  0  0  0  0  0  0  0  0
    2.0000    3.4790    0.0000 C   0  0  0  0  0  0  0  0  0  0  0  0
   16.5345    0.0313    0.0000 C   0  0  0  0  0  0  0  0  0  0  0  0
   16.5345    1.0313    0.0000 C   0  0  0  0  0  0  0  0  0  0  0  0
    7.4425   -0.7656    0.0000 H   0  0  0  0  0  0  0  0  0  0  0  0
    5.7900    0.7322    0.0000 H   0  0  0  0  0  0  0  0  0  0  0  0
    5.8767   -0.0930    0.0000 H   0  0  0  0  0  0  0  0  0  0  0  0
    6.1724    1.2662    0.0000 H   0  0  0  0  0  0  0  0  0  0  0  0
    8.3897    1.0259    0.0000 H   0  0  0  0  0  0  0  0  0  0  0  0
    7.8345    1.6425    0.0000 H   0  0  0  0  0  0  0  0  0  0  0  0
    9.6063   -0.5887    0.0000 H   0  0  0  0  0  0  0  0  0  0  0  0
   10.1432    0.7213    0.0000 H   0  0  0  0  0  0  0  0  0  0  0  0
   10.4723   -1.0887    0.0000 H   0  0  0  0  0  0  0  0  0  0  0  0
    5.3410   -1.2477    0.0000 H   0  0  0  0  0  0  0  0  0  0  0  0
   10.7823    0.9944    0.0000 H   0  0  0  0  0  0  0  0  0  0  0  0
   11.0092    1.8413    0.0000 H   0  0  0  0  0  0  0  0  0  0  0  0
   10.1623    2.0683    0.0000 H   0  0  0  0  0  0  0  0  0  0  0  0
    9.0503    2.0683    0.0000 H   0  0  0  0  0  0  0  0  0  0  0  0
    8.2033    1.8413    0.0000 H   0  0  0  0  0  0  0  0  0  0  0  0
    8.4303    0.9944    0.0000 H   0  0  0  0  0  0  0  0  0  0  0  0
    5.1331   -2.2258    0.0000 H   0  0  0  0  0  0  0  0  0  0  0  0
   12.2044    0.1513    0.0000 H   0  0  0  0  0  0  0  0  0  0  0  0
   11.6674   -1.1587    0.0000 H   0  0  0  0  0  0  0  0  0  0  0  0
    6.9118   -3.5421    0.0000 H   0  0  0  0  0  0  0  0  0  0  0  0
    6.6655   -2.7840    0.0000 H   0  0  0  0  0  0  0  0  0  0  0  0
   13.0704    0.6513    0.0000 H   0  0  0  0  0  0  0  0  0  0  0  0
   11.0283   -1.4317    0.0000 H   0  0  0  0  0  0  0  0  0  0  0  0
   10.8014   -2.2787    0.0000 H   0  0  0  0  0  0  0  0  0  0  0  0
   11.6483   -2.5056    0.0000 H   0  0  0  0  0  0  0  0  0  0  0  0
   12.7604   -2.5056    0.0000 H   0  0  0  0  0  0  0  0  0  0  0  0
   13.6073   -2.2787    0.0000 H   0  0  0  0  0  0  0  0  0  0  0  0
   13.3804   -1.4317    0.0000 H   0  0  0  0  0  0  0  0  0  0  0  0
    4.1820   -2.5349    0.0000 H   0  0  0  0  0  0  0  0  0  0  0  0
    5.3480    3.6670    0.0000 H   0  0  0  0  0  0  0  0  0  0  0  0
    5.5226   -4.1591    0.0000 H   0  0  0  0  0  0  0  0  0  0  0  0
    6.0001   -4.8944    0.0000 H   0  0  0  0  0  0  0  0  0  0  0  0
    6.7355   -4.4169    0.0000 H   0  0  0  0  0  0  0  0  0  0  0  0
    3.9467    4.6851    0.0000 H   0  0  0  0  0  0  0  0  0  0  0  0
    3.6534    1.8945    0.0000 H   0  0  0  0  0  0  0  0  0  0  0  0
    2.3356    4.8544    0.0000 H   0  0  0  0  0  0  0  0  0  0  0  0
    2.0423    2.0638    0.0000 H   0  0  0  0  0  0  0  0  0  0  0  0
   14.2655    1.3413    0.0000 H   0  0  0  0  0  0  0  0  0  0  0  0
    1.3834    3.5438    0.0000 H   0  0  0  0  0  0  0  0  0  0  0  0
   17.0714   -0.2787    0.0000 H   0  0  0  0  0  0  0  0  0  0  0  0
   17.0714    1.3413    0.0000 H   0  0  0  0  0  0  0  0  0  0  0  0
 17  1  1  1  0  0  0
  1 28  1  0  0  0  0
  2 19  2  0  0  0  0
  3 21  2  0  0  0  0
  4 26  2  0  0  0  0
  5 28  2  0  0  0  0
  6 31  2  0  0  0  0
  7 35  2  0  0  0  0
  8 15  1  0  0  0  0
  8 18  1  0  0  0  0
  8 19  1  0  0  0  0
 20  9  1  1  0  0  0
  9 26  1  0  0  0  0
  9 54  1  0  0  0  0
 10 21  1  0  0  0  0
 25 10  1  1  0  0  0
 10 55  1  0  0  0  0
 27 11  1  6  0  0  0
 11 35  1  0  0  0  0
 11 67  1  0  0  0  0
 12 28  1  0  0  0  0
 12 36  1  0  0  0  0
 12 75  1  0  0  0  0
 13 37  2  0  0  0  0
 13 44  1  0  0  0  0
 14 42  2  0  0  0  0
 14 45  1  0  0  0  0
 15 16  1  0  0  0  0
 15 21  1  6  0  0  0
 15 46  1  0  0  0  0
 16 17  1  0  0  0  0
 16 47  1  0  0  0  0
 16 48  1  0  0  0  0
 17 18  1  0  0  0  0
 17 49  1  0  0  0  0
 18 50  1  0  0  0  0
 18 51  1  0  0  0  0
 19 20  1  0  0  0  0
 20 22  1  0  0  0  0
 20 52  1  0  0  0  0
 22 23  1  0  0  0  0
 22 24  1  0  0  0  0
 22 53  1  0  0  0  0
 23 56  1  0  0  0  0
 23 57  1  0  0  0  0
 23 58  1  0  0  0  0
 24 59  1  0  0  0  0
 24 60  1  0  0  0  0
 24 61  1  0  0  0  0
 25 30  1  0  0  0  0
 25 31  1  0  0  0  0
 25 62  1  0  0  0  0
 26 27  1  0  0  0  0
 27 29  1  0  0  0  0
 27 63  1  0  0  0  0
 29 32  1  0  0  0  0
 29 33  1  0  0  0  0
 29 64  1  0  0  0  0
 30 34  1  0  0  0  0
 30 65  1  0  0  0  0
 30 66  1  0  0  0  0
 31 74  1  0  0  0  0
 32 68  1  0  0  0  0
 32 69  1  0  0  0  0
 32 70  1  0  0  0  0
 33 71  1  0  0  0  0
 33 72  1  0  0  0  0
 33 73  1  0  0  0  0
 34 76  1  0  0  0  0
 34 77  1  0  0  0  0
 34 78  1  0  0  0  0
 35 37  1  0  0  0  0
 36 38  2  0  0  0  0
 36 39  1  0  0  0  0
 37 42  1  0  0  0  0
 38 40  1  0  0  0  0
 38 79  1  0  0  0  0
 39 41  2  0  0  0  0
 39 80  1  0  0  0  0
 40 43  2  0  0  0  0
 40 81  1  0  0  0  0
 41 43  1  0  0  0  0
 41 82  1  0  0  0  0
 42 83  1  0  0  0  0
 43 84  1  0  0  0  0
 44 45  2  0  0  0  0
 44 85  1  0  0  0  0
 45 86  1  0  0  0  0
M  END
> <PUBCHEM_COMPOUND_CID>
511145
> <PUBCHEM_COMPOUND_CANONICALIZED>
1
> <PUBCHEM_CACTVS_COMPLEXITY>
1050
> <PUBCHEM_CACTVS_HBOND_ACCEPTOR>
9
> <PUBCHEM_CACTVS_HBOND_DONOR>
4
> <PUBCHEM_CACTVS_ROTATABLE_BOND>
14
> <PUBCHEM_CACTVS_SUBSKEYS>
AAADcfB7uAAAAAAAAAAAAAAAAAAAAWAAAAA8QAAAAAAAAAABwAAAHgAQAAAADTzhlgY+yJPIFACoAT133ACCgCQ3EiAI2IG4dMkKYHrA0bGdIIhmlgDYyMc6AQAIAAAAAAAAAAAAAAAAAAAAAAAAAAAAAA==
> <PUBCHEM_IUPAC_OPENEYE_NAME>
[(3R,5S)-5-[[(1S)-1-formylpropyl]carbamoyl]-1-[(2R)-3-methyl-2-[[(2R)-3-methyl-2-(pyrazine-2-carbonylamino)butanoyl]amino]butanoyl]pyrrolidin-3-yl] N-phenylcarbamate
> <PUBCHEM_IUPAC_CAS_NAME>
N-phenylcarbamic acid [(3R,5S)-1-[(2R)-3-methyl-2-[[(2R)-3-methyl-1-oxo-2-[[oxo(2-pyrazinyl)methyl]amino]butyl]amino]-1-oxobutyl]-5-[oxo-[[(2S)-1-oxobutan-2-yl]amino]methyl]-3-pyrrolidinyl] ester
> <PUBCHEM_IUPAC_NAME_MARKUP>
[(3<I>R</I>,5<I>S</I>)-1-[(2<I>R</I>)-3-methyl-2-[[(2<I>R</I>)-3-methyl-2-(pyrazine-2-carbonylamino)butanoyl]amino]butanoyl]-5-[[(2<I>S</I>)-1-oxobutan-2-yl]carbamoyl]pyrrolidin-3-yl] <I>N</I>-phenylcarbamate
> <PUBCHEM_IUPAC_NAME>
[(3R,5S)-1-[(2R)-3-methyl-2-[[(2R)-3-methyl-2-(pyrazine-2-carbonylamino)butanoyl]amino]butanoyl]-5-[[(2S)-1-oxobutan-2-yl]carbamoyl]pyrrolidin-3-yl] N-phenylcarbamate
> <PUBCHEM_IUPAC_SYSTEMATIC_NAME>
[(3R,5S)-1-[(2R)-3-methyl-2-[[(2R)-3-methyl-2-(pyrazin-2-ylcarbonylamino)butanoyl]amino]butanoyl]-5-[[(2S)-1-oxidanylidenebutan-2-yl]carbamoyl]pyrrolidin-3-yl] N-phenylcarbamate
> <PUBCHEM_IUPAC_TRADITIONAL_NAME>
N-phenylcarbamic acid [(3R,5S)-5-[[(1S)-1-formylpropyl]carbamoyl]-1-[(2R)-3-methyl-2-[[(2R)-3-methyl-2-(pyrazinoylamino)butanoyl]amino]butanoyl]pyrrolidin-3-yl] ester
> <PUBCHEM_IUPAC_INCHI>
InChI=1S/C31H41N7O7/c1-6-20(17-39)34-28(41)24-14-22(45-31(44)35-21-10-8-7-9-11-21)16-38(24)30(43)26(19(4)5)37-29(42)25(18(2)3)36-27(40)23-15-32-12-13-33-23/h7-13,15,17-20,22,24-26H,6,14,16H2,1-5H3,(H,34,41)(H,35,44)(H,36,40)(H,37,42)/t20-,22+,24-,25+,26+/m0/s1
> <PUBCHEM_IUPAC_INCHIKEY>
IHBUCBGAEUGXQA-DAHCKQEJSA-N
> <PUBCHEM_XLOGP3_AA>
2.3
> <PUBCHEM_EXACT_MASS>
623.30674667
> <PUBCHEM_MOLECULAR_FORMULA>
C31H41N7O7
> <PUBCHEM_MOLECULAR_WEIGHT>
623.7
> <PUBCHEM_OPENEYE_CAN_SMILES>
CCC(C=O)NC(=O)C1CC(CN1C(=O)C(C(C)C)NC(=O)C(C(C)C)NC(=O)C2=NC=CN=C2)OC(=O)NC3=CC=CC=C3
> <PUBCHEM_OPENEYE_ISO_SMILES>
CC[C@@H](C=O)NC(=O)[C@@H]1C[C@H](CN1C(=O)[C@@H](C(C)C)NC(=O)[C@@H](C(C)C)NC(=O)C2=NC=CN=C2)OC(=O)NC3=CC=CC=C3
> <PUBCHEM_CACTVS_TPSA>
189
> <PUBCHEM_MONOISOTOPIC_WEIGHT>
623.30674667
> <PUBCHEM_TOTAL_CHARGE>
0
> <PUBCHEM_HEAVY_ATOM_COUNT>
45
> <PUBCHEM_ATOM_DEF_STEREO_COUNT>
5
> <PUBCHEM_ATOM_UDEF_STEREO_COUNT>
0
> <PUBCHEM_BOND_DEF_STEREO_COUNT>
0
> <PUBCHEM_BOND_UDEF_STEREO_COUNT>
0
> <PUBCHEM_ISOTOPIC_ATOM_COUNT>
0
> <PUBCHEM_COMPONENT_COUNT>
1
> <PUBCHEM_CACTVS_TAUTO_COUNT>
-1
> <PUBCHEM_COORDINATE_TYPE>
1
5
255
> <PUBCHEM_BONDANNOTATIONS>
17  1  5
25  10  5
27  11  6
13  37  8
13  44  8
14  42  8
14  45  8
15  21  6
36  38  8
36  39  8
37  42  8
38  40  8
39  41  8
40  43  8
41  43  8
44  45  8
20  9  5
$$$$
