511261
  -OEChem-10302200282D
164167  0     1  0  0  0  0  0999 V2000
   13.5755   -1.0685    0.0000 O   0  0  0  0  0  0  0  0  0  0  0  0
   12.3312   -1.6225    0.0000 O   0  0  0  0  0  0  0  0  0  0  0  0
   17.1718   -0.8105    0.0000 O   0  0  0  0  0  0  0  0  0  0  0  0
    9.7331   -4.1225    0.0000 O   0  0  0  0  0  0  0  0  0  0  0  0
   18.1229   -0.5015    0.0000 O   0  0  0  0  0  0  0  0  0  0  0  0
    7.0010   -1.6225    0.0000 O   0  0  0  0  0  0  0  0  0  0  0  0
    7.1350    0.3775    0.0000 O   0  0  0  0  0  0  0  0  0  0  0  0
   21.1840    1.4037    0.0000 O   0  0  0  0  0  0  0  0  0  0  0  0
    3.4030   -2.6225    0.0000 O   0  0  0  0  0  0  0  0  0  0  0  0
    4.2690   -4.1225    0.0000 O   0  0  0  0  0  0  0  0  0  0  0  0
   14.1107   -2.7158    0.0000 N   0  0  0  0  0  0  0  0  0  0  0  0
   11.4651   -3.1225    0.0000 N   0  0  0  0  0  0  0  0  0  0  0  0
   15.4776   -0.4504    0.0000 N   0  0  0  0  0  0  0  0  0  0  0  0
   17.5876    1.1458    0.0000 N   0  0  0  0  0  0  0  0  0  0  0  0
    8.7331   -2.6225    0.0000 N   0  0  0  0  0  0  0  0  0  0  0  0
   19.4013   -2.8179    0.0000 N   0  0  0  0  0  0  0  0  0  0  0  0
   20.0250    0.1165    0.0000 N   0  0  0  0  0  0  0  0  0  0  0  0
    6.0010   -3.1225    0.0000 N   0  0  0  0  0  0  0  0  0  0  0  0
   22.6702    0.0654    0.0000 N   0  0  0  0  0  0  0  0  0  0  0  0
   21.5998    3.3600    0.0000 N   0  0  0  0  0  0  0  0  0  0  0  0
   22.7897   -3.5382    0.0000 N   0  0  0  0  0  0  0  0  0  0  0  0
    3.4030    0.3775    0.0000 N   0  0  0  0  0  0  0  0  0  0  0  0
   22.7587    4.6471    0.0000 N   0  0  0  0  0  0  0  0  0  0  0  0
   21.0645    5.0072    0.0000 N   0  0  0  0  0  0  0  0  0  0  0  0
   23.3249   -5.1854    0.0000 N   0  0  0  0  0  0  0  0  0  0  0  0
   21.6307   -4.8253    0.0000 N   0  0  0  0  0  0  0  0  0  0  0  0
    2.5369    1.8775    0.0000 N   0  0  0  0  0  0  0  0  0  0  0  0
    4.2690    1.8775    0.0000 N   0  0  0  0  0  0  0  0  0  0  0  0
   13.1972   -3.1225    0.0000 C   0  0  1  0  0  0  0  0  0  0  0  0
   13.3017   -4.1170    0.0000 C   0  0  0  0  0  0  0  0  0  0  0  0
   14.2799   -4.3249    0.0000 C   0  0  0  0  0  0  0  0  0  0  0  0
   14.7799   -3.4589    0.0000 C   0  0  0  0  0  0  0  0  0  0  0  0
   14.3186   -1.7376    0.0000 C   0  0  0  0  0  0  0  0  0  0  0  0
   15.2697   -1.4286    0.0000 C   0  0  1  0  0  0  0  0  0  0  0  0
   12.3312   -2.6225    0.0000 C   0  0  0  0  0  0  0  0  0  0  0  0
   16.0128   -2.0977    0.0000 C   0  0  0  0  0  0  0  0  0  0  0  0
   16.9639   -1.7887    0.0000 C   0  0  0  0  0  0  0  0  0  0  0  0
   10.5991   -2.6225    0.0000 C   0  0  1  0  0  0  0  0  0  0  0  0
   17.7070   -2.4578    0.0000 C   0  0  0  0  0  0  0  0  0  0  0  0
   16.4287   -0.1414    0.0000 C   0  0  0  0  0  0  0  0  0  0  0  0
   10.5991   -1.6225    0.0000 C   0  0  0  0  0  0  0  0  0  0  0  0
   16.6366    0.8367    0.0000 C   0  0  2  0  0  0  0  0  0  0  0  0
    9.7331   -3.1225    0.0000 C   0  0  0  0  0  0  0  0  0  0  0  0
   18.6581   -2.1488    0.0000 C   0  0  0  0  0  0  0  0  0  0  0  0
   15.8934    1.5059    0.0000 C   0  0  0  0  0  0  0  0  0  0  0  0
    9.7331   -1.1225    0.0000 C   0  0  0  0  0  0  0  0  0  0  0  0
   16.1014    2.4840    0.0000 C   0  0  0  0  0  0  0  0  0  0  0  0
    7.8671   -3.1225    0.0000 C   0  0  1  0  0  0  0  0  0  0  0  0
   18.3308    0.4766    0.0000 C   0  0  0  0  0  0  0  0  0  0  0  0
   19.2818    0.7856    0.0000 C   0  0  2  0  0  0  0  0  0  0  0  0
    8.8671   -1.6225    0.0000 C   0  0  0  0  0  0  0  0  0  0  0  0
    9.7331   -0.1225    0.0000 C   0  0  0  0  0  0  0  0  0  0  0  0
   19.4898    1.7638    0.0000 C   0  0  0  0  0  0  0  0  0  0  0  0
   17.0524    2.7930    0.0000 C   0  0  0  0  0  0  0  0  0  0  0  0
   15.3582    3.1531    0.0000 C   0  0  0  0  0  0  0  0  0  0  0  0
    7.8671   -4.1225    0.0000 C   0  0  0  0  0  0  0  0  0  0  0  0
    7.0010   -2.6225    0.0000 C   0  0  0  0  0  0  0  0  0  0  0  0
    8.0010   -1.1225    0.0000 C   0  0  0  0  0  0  0  0  0  0  0  0
    8.8671    0.3775    0.0000 C   0  0  0  0  0  0  0  0  0  0  0  0
   20.4408    2.0728    0.0000 C   0  0  0  0  0  0  0  0  0  0  0  0
   17.2603    3.7712    0.0000 C   0  0  0  0  0  0  0  0  0  0  0  0
    8.0010   -0.1225    0.0000 C   0  0  0  0  0  0  0  0  0  0  0  0
   15.5661    4.1313    0.0000 C   0  0  0  0  0  0  0  0  0  0  0  0
   16.5172    4.4403    0.0000 C   0  0  0  0  0  0  0  0  0  0  0  0
   20.9760    0.4255    0.0000 C   0  0  0  0  0  0  0  0  0  0  0  0
   21.7192   -0.2436    0.0000 C   0  0  2  0  0  0  0  0  0  0  0  0
   20.6487    3.0509    0.0000 C   0  0  0  0  0  0  0  0  0  0  0  0
    5.1350   -2.6225    0.0000 C   0  0  1  0  0  0  0  0  0  0  0  0
   18.2558    4.0777    0.0000 C   0  0  0  0  0  0  0  0  0  0  0  0
   21.5113   -1.2218    0.0000 C   0  0  0  0  0  0  0  0  0  0  0  0
   16.7180    5.4624    0.0000 C   0  0  0  0  0  0  0  0  0  0  0  0
    5.1350   -1.6225    0.0000 C   0  0  0  0  0  0  0  0  0  0  0  0
   22.2544   -1.8909    0.0000 C   0  0  0  0  0  0  0  0  0  0  0  0
   18.4802    5.0949    0.0000 C   0  0  0  0  0  0  0  0  0  0  0  0
   17.7061    5.7919    0.0000 C   0  0  0  0  0  0  0  0  0  0  0  0
    4.2690   -1.1225    0.0000 C   0  0  0  0  0  0  0  0  0  0  0  0
    4.2690   -3.1225    0.0000 C   0  0  0  0  0  0  0  0  0  0  0  0
   22.0465   -2.8690    0.0000 C   0  0  0  0  0  0  0  0  0  0  0  0
    4.2690   -0.1225    0.0000 C   0  0  0  0  0  0  0  0  0  0  0  0
   21.8077    4.3381    0.0000 C   0  0  0  0  0  0  0  0  0  0  0  0
   22.5817   -4.5163    0.0000 C   0  0  0  0  0  0  0  0  0  0  0  0
    3.4030    1.3775    0.0000 C   0  0  0  0  0  0  0  0  0  0  0  0
   13.2296   -2.5033    0.0000 H   0  0  0  0  0  0  0  0  0  0  0  0
   12.6817   -4.1170    0.0000 H   0  0  0  0  0  0  0  0  0  0  0  0
   13.2369   -4.7336    0.0000 H   0  0  0  0  0  0  0  0  0  0  0  0
   14.0883   -4.9146    0.0000 H   0  0  0  0  0  0  0  0  0  0  0  0
   14.8463   -4.5771    0.0000 H   0  0  0  0  0  0  0  0  0  0  0  0
   15.2815   -3.8233    0.0000 H   0  0  0  0  0  0  0  0  0  0  0  0
   15.1947   -2.9981    0.0000 H   0  0  0  0  0  0  0  0  0  0  0  0
   15.8594   -1.2370    0.0000 H   0  0  0  0  0  0  0  0  0  0  0  0
   15.5243   -2.4794    0.0000 H   0  0  0  0  0  0  0  0  0  0  0  0
   16.3039   -2.6451    0.0000 H   0  0  0  0  0  0  0  0  0  0  0  0
   11.4651   -3.7425    0.0000 H   0  0  0  0  0  0  0  0  0  0  0  0
   17.4525   -1.4070    0.0000 H   0  0  0  0  0  0  0  0  0  0  0  0
   16.6728   -1.2413    0.0000 H   0  0  0  0  0  0  0  0  0  0  0  0
   15.0169   -0.0356    0.0000 H   0  0  0  0  0  0  0  0  0  0  0  0
   11.1360   -2.3125    0.0000 H   0  0  0  0  0  0  0  0  0  0  0  0
   17.2185   -2.8395    0.0000 H   0  0  0  0  0  0  0  0  0  0  0  0
   17.9981   -3.0053    0.0000 H   0  0  0  0  0  0  0  0  0  0  0  0
   11.2097   -1.7302    0.0000 H   0  0  0  0  0  0  0  0  0  0  0  0
   10.8112   -1.0399    0.0000 H   0  0  0  0  0  0  0  0  0  0  0  0
   17.0973    0.4219    0.0000 H   0  0  0  0  0  0  0  0  0  0  0  0
   19.1467   -1.7671    0.0000 H   0  0  0  0  0  0  0  0  0  0  0  0
   18.3670   -1.6014    0.0000 H   0  0  0  0  0  0  0  0  0  0  0  0
   15.3186    1.7381    0.0000 H   0  0  0  0  0  0  0  0  0  0  0  0
   15.5649    0.9801    0.0000 H   0  0  0  0  0  0  0  0  0  0  0  0
   17.7165    1.7522    0.0000 H   0  0  0  0  0  0  0  0  0  0  0  0
    9.2700   -2.3125    0.0000 H   0  0  0  0  0  0  0  0  0  0  0  0
    8.4040   -3.4325    0.0000 H   0  0  0  0  0  0  0  0  0  0  0  0
   19.8715    0.9772    0.0000 H   0  0  0  0  0  0  0  0  0  0  0  0
    8.8671   -2.2425    0.0000 H   0  0  0  0  0  0  0  0  0  0  0  0
   10.2700    0.1875    0.0000 H   0  0  0  0  0  0  0  0  0  0  0  0
   19.9909   -2.6264    0.0000 H   0  0  0  0  0  0  0  0  0  0  0  0
   19.2723   -3.4244    0.0000 H   0  0  0  0  0  0  0  0  0  0  0  0
   19.4035    2.3777    0.0000 H   0  0  0  0  0  0  0  0  0  0  0  0
   18.8701    1.7854    0.0000 H   0  0  0  0  0  0  0  0  0  0  0  0
   17.5132    2.3782    0.0000 H   0  0  0  0  0  0  0  0  0  0  0  0
   14.7685    2.9616    0.0000 H   0  0  0  0  0  0  0  0  0  0  0  0
    7.2471   -4.1225    0.0000 H   0  0  0  0  0  0  0  0  0  0  0  0
    7.8671   -4.7425    0.0000 H   0  0  0  0  0  0  0  0  0  0  0  0
    8.4871   -4.1225    0.0000 H   0  0  0  0  0  0  0  0  0  0  0  0
   19.8961   -0.4900    0.0000 H   0  0  0  0  0  0  0  0  0  0  0  0
   20.5271    1.4588    0.0000 H   0  0  0  0  0  0  0  0  0  0  0  0
   21.0604    2.0512    0.0000 H   0  0  0  0  0  0  0  0  0  0  0  0
    7.4641   -1.4325    0.0000 H   0  0  0  0  0  0  0  0  0  0  0  0
    8.8671    0.9975    0.0000 H   0  0  0  0  0  0  0  0  0  0  0  0
   15.1054    4.5462    0.0000 H   0  0  0  0  0  0  0  0  0  0  0  0
    6.5380   -3.4325    0.0000 H   0  0  0  0  0  0  0  0  0  0  0  0
   22.1799   -0.6585    0.0000 H   0  0  0  0  0  0  0  0  0  0  0  0
   20.5624    3.6649    0.0000 H   0  0  0  0  0  0  0  0  0  0  0  0
   20.0291    3.0726    0.0000 H   0  0  0  0  0  0  0  0  0  0  0  0
    5.6720   -2.3125    0.0000 H   0  0  0  0  0  0  0  0  0  0  0  0
   18.7117    3.6576    0.0000 H   0  0  0  0  0  0  0  0  0  0  0  0
   20.9364   -0.9895    0.0000 H   0  0  0  0  0  0  0  0  0  0  0  0
   21.1827   -1.7476    0.0000 H   0  0  0  0  0  0  0  0  0  0  0  0
   16.2525    5.8719    0.0000 H   0  0  0  0  0  0  0  0  0  0  0  0
    5.7456   -1.7302    0.0000 H   0  0  0  0  0  0  0  0  0  0  0  0
    5.3471   -1.0399    0.0000 H   0  0  0  0  0  0  0  0  0  0  0  0
   22.8293   -2.1232    0.0000 H   0  0  0  0  0  0  0  0  0  0  0  0
   22.5830   -1.3651    0.0000 H   0  0  0  0  0  0  0  0  0  0  0  0
   19.0706    5.2842    0.0000 H   0  0  0  0  0  0  0  0  0  0  0  0
   17.8327    6.3988    0.0000 H   0  0  0  0  0  0  0  0  0  0  0  0
    3.6584   -1.0148    0.0000 H   0  0  0  0  0  0  0  0  0  0  0  0
    4.0569   -1.7051    0.0000 H   0  0  0  0  0  0  0  0  0  0  0  0
    7.1350    0.9975    0.0000 H   0  0  0  0  0  0  0  0  0  0  0  0
   23.1310   -0.3495    0.0000 H   0  0  0  0  0  0  0  0  0  0  0  0
   22.7991    0.6719    0.0000 H   0  0  0  0  0  0  0  0  0  0  0  0
   21.4717   -2.6368    0.0000 H   0  0  0  0  0  0  0  0  0  0  0  0
   21.7180   -3.3948    0.0000 H   0  0  0  0  0  0  0  0  0  0  0  0
    4.8796   -0.2301    0.0000 H   0  0  0  0  0  0  0  0  0  0  0  0
    4.4810    0.4601    0.0000 H   0  0  0  0  0  0  0  0  0  0  0  0
    2.8660   -2.9325    0.0000 H   0  0  0  0  0  0  0  0  0  0  0  0
   22.8877    5.2536    0.0000 H   0  0  0  0  0  0  0  0  0  0  0  0
   23.2195    4.2323    0.0000 H   0  0  0  0  0  0  0  0  0  0  0  0
   21.1934    5.6137    0.0000 H   0  0  0  0  0  0  0  0  0  0  0  0
   20.4749    4.8156    0.0000 H   0  0  0  0  0  0  0  0  0  0  0  0
   23.1960   -5.7919    0.0000 H   0  0  0  0  0  0  0  0  0  0  0  0
   23.9145   -4.9939    0.0000 H   0  0  0  0  0  0  0  0  0  0  0  0
   21.5018   -5.4318    0.0000 H   0  0  0  0  0  0  0  0  0  0  0  0
   21.1699   -4.4105    0.0000 H   0  0  0  0  0  0  0  0  0  0  0  0
    2.5369    2.4975    0.0000 H   0  0  0  0  0  0  0  0  0  0  0  0
    2.0000    1.5675    0.0000 H   0  0  0  0  0  0  0  0  0  0  0  0
    4.2690    2.4975    0.0000 H   0  0  0  0  0  0  0  0  0  0  0  0
    4.8059    1.5675    0.0000 H   0  0  0  0  0  0  0  0  0  0  0  0
  1 33  2  0  0  0  0
  2 35  2  0  0  0  0
  3 40  2  0  0  0  0
  4 43  2  0  0  0  0
  5 49  2  0  0  0  0
  6 57  2  0  0  0  0
  7 62  1  0  0  0  0
  7145  1  0  0  0  0
  8 65  2  0  0  0  0
  9 77  1  0  0  0  0
  9152  1  0  0  0  0
 10 77  2  0  0  0  0
 11 29  1  0  0  0  0
 11 32  1  0  0  0  0
 11 33  1  0  0  0  0
 12 35  1  0  0  0  0
 38 12  1  6  0  0  0
 12 93  1  0  0  0  0
 34 13  1  6  0  0  0
 13 40  1  0  0  0  0
 13 96  1  0  0  0  0
 42 14  1  6  0  0  0
 14 49  1  0  0  0  0
 14107  1  0  0  0  0
 15 43  1  0  0  0  0
 48 15  1  1  0  0  0
 15108  1  0  0  0  0
 16 44  1  0  0  0  0
 16113  1  0  0  0  0
 16114  1  0  0  0  0
 50 17  1  6  0  0  0
 17 65  1  0  0  0  0
 17122  1  0  0  0  0
 18 57  1  0  0  0  0
 68 18  1  6  0  0  0
 18128  1  0  0  0  0
 66 19  1  1  0  0  0
 19146  1  0  0  0  0
 19147  1  0  0  0  0
 20 67  1  0  0  0  0
 20 80  2  0  0  0  0
 21 78  1  0  0  0  0
 21 81  2  0  0  0  0
 22 79  1  0  0  0  0
 22 82  2  0  0  0  0
 23 80  1  0  0  0  0
 23153  1  0  0  0  0
 23154  1  0  0  0  0
 24 80  1  0  0  0  0
 24155  1  0  0  0  0
 24156  1  0  0  0  0
 25 81  1  0  0  0  0
 25157  1  0  0  0  0
 25158  1  0  0  0  0
 26 81  1  0  0  0  0
 26159  1  0  0  0  0
 26160  1  0  0  0  0
 27 82  1  0  0  0  0
 27161  1  0  0  0  0
 27162  1  0  0  0  0
 28 82  1  0  0  0  0
 28163  1  0  0  0  0
 28164  1  0  0  0  0
 29 30  1  0  0  0  0
 29 35  1  1  0  0  0
 29 83  1  0  0  0  0
 30 31  1  0  0  0  0
 30 84  1  0  0  0  0
 30 85  1  0  0  0  0
 31 32  1  0  0  0  0
 31 86  1  0  0  0  0
 31 87  1  0  0  0  0
 32 88  1  0  0  0  0
 32 89  1  0  0  0  0
 33 34  1  0  0  0  0
 34 36  1  0  0  0  0
 34 90  1  0  0  0  0
 36 37  1  0  0  0  0
 36 91  1  0  0  0  0
 36 92  1  0  0  0  0
 37 39  1  0  0  0  0
 37 94  1  0  0  0  0
 37 95  1  0  0  0  0
 38 41  1  0  0  0  0
 38 43  1  0  0  0  0
 38 97  1  0  0  0  0
 39 44  1  0  0  0  0
 39 98  1  0  0  0  0
 39 99  1  0  0  0  0
 40 42  1  0  0  0  0
 41 46  1  0  0  0  0
 41100  1  0  0  0  0
 41101  1  0  0  0  0
 42 45  1  0  0  0  0
 42102  1  0  0  0  0
 44103  1  0  0  0  0
 44104  1  0  0  0  0
 45 47  1  0  0  0  0
 45105  1  0  0  0  0
 45106  1  0  0  0  0
 46 51  2  0  0  0  0
 46 52  1  0  0  0  0
 47 54  2  0  0  0  0
 47 55  1  0  0  0  0
 48 56  1  0  0  0  0
 48 57  1  0  0  0  0
 48109  1  0  0  0  0
 49 50  1  0  0  0  0
 50 53  1  0  0  0  0
 50110  1  0  0  0  0
 51 58  1  0  0  0  0
 51111  1  0  0  0  0
 52 59  2  0  0  0  0
 52112  1  0  0  0  0
 53 60  1  0  0  0  0
 53115  1  0  0  0  0
 53116  1  0  0  0  0
 54 61  1  0  0  0  0
 54117  1  0  0  0  0
 55 63  2  0  0  0  0
 55118  1  0  0  0  0
 56119  1  0  0  0  0
 56120  1  0  0  0  0
 56121  1  0  0  0  0
 58 62  2  0  0  0  0
 58125  1  0  0  0  0
 59 62  1  0  0  0  0
 59126  1  0  0  0  0
 60 67  1  0  0  0  0
 60123  1  0  0  0  0
 60124  1  0  0  0  0
 61 64  1  0  0  0  0
 61 69  2  0  0  0  0
 63 64  1  0  0  0  0
 63127  1  0  0  0  0
 64 71  2  0  0  0  0
 65 66  1  0  0  0  0
 66 70  1  0  0  0  0
 66129  1  0  0  0  0
 67130  1  0  0  0  0
 67131  1  0  0  0  0
 68 72  1  0  0  0  0
 68 77  1  0  0  0  0
 68132  1  0  0  0  0
 69 74  1  0  0  0  0
 69133  1  0  0  0  0
 70 73  1  0  0  0  0
 70134  1  0  0  0  0
 70135  1  0  0  0  0
 71 75  1  0  0  0  0
 71136  1  0  0  0  0
 72 76  1  0  0  0  0
 72137  1  0  0  0  0
 72138  1  0  0  0  0
 73 78  1  0  0  0  0
 73139  1  0  0  0  0
 73140  1  0  0  0  0
 74 75  2  0  0  0  0
 74141  1  0  0  0  0
 75142  1  0  0  0  0
 76 79  1  0  0  0  0
 76143  1  0  0  0  0
 76144  1  0  0  0  0
 78148  1  0  0  0  0
 78149  1  0  0  0  0
 79150  1  0  0  0  0
 79151  1  0  0  0  0
M  END
> <PUBCHEM_COMPOUND_CID>
511261
> <PUBCHEM_COMPOUND_CANONICALIZED>
1
> <PUBCHEM_CACTVS_COMPLEXITY>
2180
> <PUBCHEM_CACTVS_HBOND_ACCEPTOR>
15
> <PUBCHEM_CACTVS_HBOND_DONOR>
16
> <PUBCHEM_CACTVS_ROTATABLE_BOND>
34
> <PUBCHEM_CACTVS_SUBSKEYS>
AAADcfB//AAAAAAAAAAAAAAAAAAAAWAAAAAwYMAAAAAAAADBVAAAHgAQCAAADCzBmAQzDsPAAgCoAiHSPAACAAEgIAAIiIGOCIgKZjKCkTOUcAAk1hGYmAeY2eCO4AACAAAQAADAAAQAACAAAAAAAAAAAA==
> <PUBCHEM_IUPAC_OPENEYE_NAME>
(2S)-2-[[(2S)-2-[[(2S)-2-[[(2S)-1-[(2R)-6-amino-2-[[(2S)-2-[[(2S)-2-[[(2S)-2-amino-5-guanidino-pentanoyl]amino]-5-guanidino-pentanoyl]amino]-3-(2-naphthyl)propanoyl]amino]hexanoyl]pyrrolidine-2-carbonyl]amino]-3-(4-hydroxyphenyl)propanoyl]amino]propanoyl]amino]-5-guanidino-pentanoic acid
> <PUBCHEM_IUPAC_CAS_NAME>
(2S)-2-[[(2S)-2-[[(2S)-2-[[[(2S)-1-[(2R)-6-amino-2-[[(2S)-2-[[(2S)-2-[[(2S)-2-amino-5-(diaminomethylideneamino)-1-oxopentyl]amino]-5-(diaminomethylideneamino)-1-oxopentyl]amino]-3-(2-naphthalenyl)-1-oxopropyl]amino]-1-oxohexyl]-2-pyrrolidinyl]-oxomethyl]amino]-3-(4-hydroxyphenyl)-1-oxopropyl]amino]-1-oxopropyl]amino]-5-(diaminomethylideneamino)pentanoic acid
> <PUBCHEM_IUPAC_NAME_MARKUP>
(2<I>S</I>)-2-[[(2<I>S</I>)-2-[[(2<I>S</I>)-2-[[(2<I>S</I>)-1-[(2<I>R</I>)-6-amino-2-[[(2<I>S</I>)-2-[[(2<I>S</I>)-2-[[(2<I>S</I>)-2-amino-5-(diaminomethylideneamino)pentanoyl]amino]-5-(diaminomethylideneamino)pentanoyl]amino]-3-naphthalen-2-ylpropanoyl]amino]hexanoyl]pyrrolidine-2-carbonyl]amino]-3-(4-hydroxyphenyl)propanoyl]amino]propanoyl]amino]-5-(diaminomethylideneamino)pentanoic acid
> <PUBCHEM_IUPAC_NAME>
(2S)-2-[[(2S)-2-[[(2S)-2-[[(2S)-1-[(2R)-6-amino-2-[[(2S)-2-[[(2S)-2-[[(2S)-2-amino-5-(diaminomethylideneamino)pentanoyl]amino]-5-(diaminomethylideneamino)pentanoyl]amino]-3-naphthalen-2-ylpropanoyl]amino]hexanoyl]pyrrolidine-2-carbonyl]amino]-3-(4-hydroxyphenyl)propanoyl]amino]propanoyl]amino]-5-(diaminomethylideneamino)pentanoic acid
> <PUBCHEM_IUPAC_SYSTEMATIC_NAME>
(2S)-2-[[(2S)-2-[[(2S)-2-[[(2S)-1-[(2R)-6-azanyl-2-[[(2S)-2-[[(2S)-2-[[(2S)-2-azanyl-5-[bis(azanyl)methylideneamino]pentanoyl]amino]-5-[bis(azanyl)methylideneamino]pentanoyl]amino]-3-naphthalen-2-yl-propanoyl]amino]hexanoyl]pyrrolidin-2-yl]carbonylamino]-3-(4-hydroxyphenyl)propanoyl]amino]propanoyl]amino]-5-[bis(azanyl)methylideneamino]pentanoic acid
> <PUBCHEM_IUPAC_TRADITIONAL_NAME>
(2S)-2-[[(2S)-2-[[(2S)-2-[[(2S)-1-[(2R)-6-amino-2-[[(2S)-2-[[(2S)-2-[[(2S)-2-amino-5-guanidino-pentanoyl]amino]-5-guanidino-pentanoyl]amino]-3-(2-naphthyl)propanoyl]amino]hexanoyl]prolyl]amino]-3-(4-hydroxyphenyl)propanoyl]amino]propanoyl]amino]-5-guanidino-valeric acid
> <PUBCHEM_IUPAC_INCHI>
InChI=1S/C54H82N18O10/c1-31(44(74)69-40(51(81)82)15-8-26-65-54(61)62)66-47(77)41(29-32-18-21-36(73)22-19-32)71-49(79)43-16-9-27-72(43)50(80)39(13-4-5-23-55)68-48(78)42(30-33-17-20-34-10-2-3-11-35(34)28-33)70-46(76)38(14-7-25-64-53(59)60)67-45(75)37(56)12-6-24-63-52(57)58/h2-3,10-11,17-22,28,31,37-43,73H,4-9,12-16,23-27,29-30,55-56H2,1H3,(H,66,77)(H,67,75)(H,68,78)(H,69,74)(H,70,76)(H,71,79)(H,81,82)(H4,57,58,63)(H4,59,60,64)(H4,61,62,65)/t31-,37-,38-,39+,40-,41-,42-,43-/m0/s1
> <PUBCHEM_IUPAC_INCHIKEY>
QVXAKHBVEBRRAS-UHGAWOIYSA-N
> <PUBCHEM_XLOGP3_AA>
-4.2
> <PUBCHEM_EXACT_MASS>
1142.64613088
> <PUBCHEM_MOLECULAR_FORMULA>
C54H82N18O10
> <PUBCHEM_MOLECULAR_WEIGHT>
1143.3
> <PUBCHEM_OPENEYE_CAN_SMILES>
CC(C(=O)NC(CCCN=C(N)N)C(=O)O)NC(=O)C(CC1=CC=C(C=C1)O)NC(=O)C2CCCN2C(=O)C(CCCCN)NC(=O)C(CC3=CC4=CC=CC=C4C=C3)NC(=O)C(CCCN=C(N)N)NC(=O)C(CCCN=C(N)N)N
> <PUBCHEM_OPENEYE_ISO_SMILES>
C[C@@H](C(=O)N[C@@H](CCCN=C(N)N)C(=O)O)NC(=O)[C@H](CC1=CC=C(C=C1)O)NC(=O)[C@@H]2CCCN2C(=O)[C@@H](CCCCN)NC(=O)[C@H](CC3=CC4=CC=CC=C4C=C3)NC(=O)[C@H](CCCN=C(N)N)NC(=O)[C@H](CCCN=C(N)N)N
> <PUBCHEM_CACTVS_TPSA>
498
> <PUBCHEM_MONOISOTOPIC_WEIGHT>
1142.64613088
> <PUBCHEM_TOTAL_CHARGE>
0
> <PUBCHEM_HEAVY_ATOM_COUNT>
82
> <PUBCHEM_ATOM_DEF_STEREO_COUNT>
8
> <PUBCHEM_ATOM_UDEF_STEREO_COUNT>
0
> <PUBCHEM_BOND_DEF_STEREO_COUNT>
0
> <PUBCHEM_BOND_UDEF_STEREO_COUNT>
0
> <PUBCHEM_ISOTOPIC_ATOM_COUNT>
0
> <PUBCHEM_COMPONENT_COUNT>
1
> <PUBCHEM_CACTVS_TAUTO_COUNT>
-1
> <PUBCHEM_COORDINATE_TYPE>
1
5
255
> <PUBCHEM_BONDANNOTATIONS>
38  12  6
34  13  6
42  14  6
48  15  5
50  17  6
68  18  6
66  19  5
29  35  5
46  51  8
46  52  8
47  54  8
47  55  8
51  58  8
52  59  8
54  61  8
55  63  8
58  62  8
59  62  8
61  64  8
61  69  8
63  64  8
64  71  8
69  74  8
71  75  8
74  75  8
$$$$
