511263
  -OEChem-10302200282D
133136  0     1  0  0  0  0  0999 V2000
    6.0010   -2.0240    0.0000 O   0  0  0  0  0  0  0  0  0  0  0  0
    6.1434   -3.3786    0.0000 O   0  0  0  0  0  0  0  0  0  0  0  0
    6.8671    1.4760    0.0000 O   0  0  0  0  0  0  0  0  0  0  0  0
    6.0240   -6.9822    0.0000 O   0  0  0  0  0  0  0  0  0  0  0  0
    7.7182   -6.6221    0.0000 O   0  0  0  0  0  0  0  0  0  0  0  0
    6.8671    2.4760    0.0000 O   0  0  0  0  0  0  0  0  0  0  0  0
    2.5369   -2.0240    0.0000 O   0  0  0  0  0  0  0  0  0  0  0  0
    7.7331    5.9760    0.0000 O   0  0  0  0  0  0  0  0  0  0  0  0
    7.7331   -2.0240    0.0000 N   0  0  0  0  0  0  0  0  0  0  0  0
    7.3024   -4.6658    0.0000 N   0  0  0  0  0  0  0  0  0  0  0  0
    7.7331   -0.0240    0.0000 N   0  0  0  0  0  0  0  0  0  0  0  0
    8.5991    2.4760    0.0000 N   0  0  0  0  0  0  0  0  0  0  0  0
    6.8671    4.4760    0.0000 N   0  0  0  0  0  0  0  0  0  0  0  0
    4.3298   -7.3423    0.0000 N   0  0  0  0  0  0  0  0  0  0  0  0
    6.0010    6.9760    0.0000 N   0  0  0  0  0  0  0  0  0  0  0  0
    9.4651    6.9760    0.0000 N   0  0  0  0  0  0  0  0  0  0  0  0
    3.7946   -8.9896    0.0000 N   0  0  0  0  0  0  0  0  0  0  0  0
    5.4888   -8.6295    0.0000 N   0  0  0  0  0  0  0  0  0  0  0  0
    3.4030    7.4760    0.0000 N   0  0  0  0  0  0  0  0  0  0  0  0
   10.3312    8.4760    0.0000 N   0  0  0  0  0  0  0  0  0  0  0  0
   11.1972    6.9760    0.0000 N   0  0  0  0  0  0  0  0  0  0  0  0
    2.5369    8.9760    0.0000 N   0  0  0  0  0  0  0  0  0  0  0  0
    4.2690    8.9760    0.0000 N   0  0  0  0  0  0  0  0  0  0  0  0
    7.8376   -3.0185    0.0000 C   0  0  1  0  0  0  0  0  0  0  0  0
    8.8158   -3.2264    0.0000 C   0  0  0  0  0  0  0  0  0  0  0  0
    9.3158   -2.3604    0.0000 C   0  0  0  0  0  0  0  0  0  0  0  0
    8.6466   -1.6172    0.0000 C   0  0  0  0  0  0  0  0  0  0  0  0
    6.8671   -1.5240    0.0000 C   0  0  0  0  0  0  0  0  0  0  0  0
    7.0945   -3.6876    0.0000 C   0  0  0  0  0  0  0  0  0  0  0  0
    6.8671   -0.5240    0.0000 C   0  0  1  0  0  0  0  0  0  0  0  0
    6.0010   -0.0240    0.0000 C   0  0  0  0  0  0  0  0  0  0  0  0
    6.5592   -5.3349    0.0000 C   0  0  1  0  0  0  0  0  0  0  0  0
    5.6082   -5.0259    0.0000 C   0  0  0  0  0  0  0  0  0  0  0  0
    5.1350   -0.5240    0.0000 C   0  0  0  0  0  0  0  0  0  0  0  0
    7.7331    0.9760    0.0000 C   0  0  0  0  0  0  0  0  0  0  0  0
    8.5991    1.4760    0.0000 C   0  0  2  0  0  0  0  0  0  0  0  0
    4.8650   -5.6950    0.0000 C   0  0  0  0  0  0  0  0  0  0  0  0
    6.7672   -6.3130    0.0000 C   0  0  0  0  0  0  0  0  0  0  0  0
    9.4651    0.9760    0.0000 C   0  0  0  0  0  0  0  0  0  0  0  0
    4.2690   -0.0240    0.0000 C   0  0  0  0  0  0  0  0  0  0  0  0
    5.1350   -1.5240    0.0000 C   0  0  0  0  0  0  0  0  0  0  0  0
    7.7331    3.9760    0.0000 C   0  0  2  0  0  0  0  0  0  0  0  0
    5.0729   -6.6732    0.0000 C   0  0  0  0  0  0  0  0  0  0  0  0
   10.3312    1.4760    0.0000 C   0  0  0  0  0  0  0  0  0  0  0  0
    7.7331    2.9760    0.0000 C   0  0  0  0  0  0  0  0  0  0  0  0
    8.5991    4.4760    0.0000 C   0  0  0  0  0  0  0  0  0  0  0  0
    3.4030   -0.5240    0.0000 C   0  0  0  0  0  0  0  0  0  0  0  0
    4.2690   -2.0240    0.0000 C   0  0  0  0  0  0  0  0  0  0  0  0
    3.4030   -1.5240    0.0000 C   0  0  0  0  0  0  0  0  0  0  0  0
   11.1972    0.9760    0.0000 C   0  0  0  0  0  0  0  0  0  0  0  0
    8.5991    5.4760    0.0000 C   0  0  0  0  0  0  0  0  0  0  0  0
   10.3312    2.4760    0.0000 C   0  0  0  0  0  0  0  0  0  0  0  0
   12.0632    1.4760    0.0000 C   0  0  0  0  0  0  0  0  0  0  0  0
    6.8671    5.4760    0.0000 C   0  0  0  0  0  0  0  0  0  0  0  0
    6.0010    5.9760    0.0000 C   0  0  2  0  0  0  0  0  0  0  0  0
   12.0632    2.4760    0.0000 C   0  0  0  0  0  0  0  0  0  0  0  0
   11.1972    2.9760    0.0000 C   0  0  0  0  0  0  0  0  0  0  0  0
    9.4651    5.9760    0.0000 C   0  0  0  0  0  0  0  0  0  0  0  0
    5.1350    5.4760    0.0000 C   0  0  0  0  0  0  0  0  0  0  0  0
   12.9572    0.9414    0.0000 C   0  0  0  0  0  0  0  0  0  0  0  0
    4.2690    5.9760    0.0000 C   0  0  0  0  0  0  0  0  0  0  0  0
   12.9572    3.0107    0.0000 C   0  0  0  0  0  0  0  0  0  0  0  0
    4.5377   -8.3204    0.0000 C   0  0  0  0  0  0  0  0  0  0  0  0
   13.8632    1.4552    0.0000 C   0  0  0  0  0  0  0  0  0  0  0  0
   13.8632    2.4968    0.0000 C   0  0  0  0  0  0  0  0  0  0  0  0
    4.2690    6.9760    0.0000 C   0  0  0  0  0  0  0  0  0  0  0  0
   10.3312    7.4760    0.0000 C   0  0  0  0  0  0  0  0  0  0  0  0
    3.4030    8.4760    0.0000 C   0  0  0  0  0  0  0  0  0  0  0  0
    7.2588   -2.7963    0.0000 H   0  0  0  0  0  0  0  0  0  0  0  0
    8.6242   -3.8161    0.0000 H   0  0  0  0  0  0  0  0  0  0  0  0
    9.3822   -3.4786    0.0000 H   0  0  0  0  0  0  0  0  0  0  0  0
    9.8174   -2.7248    0.0000 H   0  0  0  0  0  0  0  0  0  0  0  0
    9.7306   -1.8996    0.0000 H   0  0  0  0  0  0  0  0  0  0  0  0
    9.1482   -1.2528    0.0000 H   0  0  0  0  0  0  0  0  0  0  0  0
    8.3366   -1.0803    0.0000 H   0  0  0  0  0  0  0  0  0  0  0  0
    7.4040   -0.8340    0.0000 H   0  0  0  0  0  0  0  0  0  0  0  0
    6.3996    0.4510    0.0000 H   0  0  0  0  0  0  0  0  0  0  0  0
    5.6025    0.4510    0.0000 H   0  0  0  0  0  0  0  0  0  0  0  0
    7.8920   -4.8574    0.0000 H   0  0  0  0  0  0  0  0  0  0  0  0
    7.1489   -5.5265    0.0000 H   0  0  0  0  0  0  0  0  0  0  0  0
    8.2700   -0.3340    0.0000 H   0  0  0  0  0  0  0  0  0  0  0  0
    5.8992   -4.4785    0.0000 H   0  0  0  0  0  0  0  0  0  0  0  0
    5.1196   -4.6442    0.0000 H   0  0  0  0  0  0  0  0  0  0  0  0
    8.0622    1.7860    0.0000 H   0  0  0  0  0  0  0  0  0  0  0  0
    4.5365   -5.1692    0.0000 H   0  0  0  0  0  0  0  0  0  0  0  0
    4.2902   -5.9273    0.0000 H   0  0  0  0  0  0  0  0  0  0  0  0
    9.0666    0.5011    0.0000 H   0  0  0  0  0  0  0  0  0  0  0  0
    9.8637    0.5011    0.0000 H   0  0  0  0  0  0  0  0  0  0  0  0
    9.1360    2.7860    0.0000 H   0  0  0  0  0  0  0  0  0  0  0  0
    4.2690    0.5960    0.0000 H   0  0  0  0  0  0  0  0  0  0  0  0
    5.6720   -1.8340    0.0000 H   0  0  0  0  0  0  0  0  0  0  0  0
    7.7331    4.5960    0.0000 H   0  0  0  0  0  0  0  0  0  0  0  0
    5.4015   -7.1990    0.0000 H   0  0  0  0  0  0  0  0  0  0  0  0
    5.6478   -6.4409    0.0000 H   0  0  0  0  0  0  0  0  0  0  0  0
    8.8112    3.8934    0.0000 H   0  0  0  0  0  0  0  0  0  0  0  0
    9.2097    4.5837    0.0000 H   0  0  0  0  0  0  0  0  0  0  0  0
    2.8660   -0.2140    0.0000 H   0  0  0  0  0  0  0  0  0  0  0  0
    4.2690   -2.6440    0.0000 H   0  0  0  0  0  0  0  0  0  0  0  0
    6.3301    4.1660    0.0000 H   0  0  0  0  0  0  0  0  0  0  0  0
   11.1972    0.3560    0.0000 H   0  0  0  0  0  0  0  0  0  0  0  0
    8.3871    6.0586    0.0000 H   0  0  0  0  0  0  0  0  0  0  0  0
    7.9885    5.3684    0.0000 H   0  0  0  0  0  0  0  0  0  0  0  0
    6.1529   -7.5886    0.0000 H   0  0  0  0  0  0  0  0  0  0  0  0
    9.7942    2.7860    0.0000 H   0  0  0  0  0  0  0  0  0  0  0  0
    6.5380    6.2860    0.0000 H   0  0  0  0  0  0  0  0  0  0  0  0
   11.1972    3.5960    0.0000 H   0  0  0  0  0  0  0  0  0  0  0  0
    9.6772    5.3934    0.0000 H   0  0  0  0  0  0  0  0  0  0  0  0
   10.0757    6.0837    0.0000 H   0  0  0  0  0  0  0  0  0  0  0  0
    4.7365    5.0011    0.0000 H   0  0  0  0  0  0  0  0  0  0  0  0
    5.5335    5.0011    0.0000 H   0  0  0  0  0  0  0  0  0  0  0  0
   12.9500    0.3214    0.0000 H   0  0  0  0  0  0  0  0  0  0  0  0
    3.6584    6.0837    0.0000 H   0  0  0  0  0  0  0  0  0  0  0  0
    4.0569    5.3934    0.0000 H   0  0  0  0  0  0  0  0  0  0  0  0
    2.0000   -1.7140    0.0000 H   0  0  0  0  0  0  0  0  0  0  0  0
   12.9500    3.6306    0.0000 H   0  0  0  0  0  0  0  0  0  0  0  0
    5.4641    7.2860    0.0000 H   0  0  0  0  0  0  0  0  0  0  0  0
    6.5380    7.2860    0.0000 H   0  0  0  0  0  0  0  0  0  0  0  0
   14.3990    1.1431    0.0000 H   0  0  0  0  0  0  0  0  0  0  0  0
   14.3990    2.8089    0.0000 H   0  0  0  0  0  0  0  0  0  0  0  0
    4.8796    6.8684    0.0000 H   0  0  0  0  0  0  0  0  0  0  0  0
    4.4810    7.5586    0.0000 H   0  0  0  0  0  0  0  0  0  0  0  0
    3.9235   -9.5960    0.0000 H   0  0  0  0  0  0  0  0  0  0  0  0
    3.2049   -8.7980    0.0000 H   0  0  0  0  0  0  0  0  0  0  0  0
    5.6177   -9.2359    0.0000 H   0  0  0  0  0  0  0  0  0  0  0  0
    5.9495   -8.2146    0.0000 H   0  0  0  0  0  0  0  0  0  0  0  0
   10.8681    8.7860    0.0000 H   0  0  0  0  0  0  0  0  0  0  0  0
    9.7942    8.7860    0.0000 H   0  0  0  0  0  0  0  0  0  0  0  0
   11.7341    7.2860    0.0000 H   0  0  0  0  0  0  0  0  0  0  0  0
   11.1972    6.3560    0.0000 H   0  0  0  0  0  0  0  0  0  0  0  0
    2.5369    9.5960    0.0000 H   0  0  0  0  0  0  0  0  0  0  0  0
    2.0000    8.6660    0.0000 H   0  0  0  0  0  0  0  0  0  0  0  0
    4.2690    9.5960    0.0000 H   0  0  0  0  0  0  0  0  0  0  0  0
    4.8059    8.6660    0.0000 H   0  0  0  0  0  0  0  0  0  0  0  0
  1 28  2  0  0  0  0
  2 29  2  0  0  0  0
  3 35  2  0  0  0  0
  4 38  1  0  0  0  0
  4103  1  0  0  0  0
  5 38  2  0  0  0  0
  6 45  2  0  0  0  0
  7 49  1  0  0  0  0
  7114  1  0  0  0  0
  8 54  2  0  0  0  0
  9 24  1  0  0  0  0
  9 27  1  0  0  0  0
  9 28  1  0  0  0  0
 10 29  1  0  0  0  0
 32 10  1  6  0  0  0
 10 79  1  0  0  0  0
 30 11  1  1  0  0  0
 11 35  1  0  0  0  0
 11 81  1  0  0  0  0
 36 12  1  1  0  0  0
 12 45  1  0  0  0  0
 12 89  1  0  0  0  0
 42 13  1  1  0  0  0
 13 54  1  0  0  0  0
 13 99  1  0  0  0  0
 14 43  1  0  0  0  0
 14 63  2  0  0  0  0
 55 15  1  6  0  0  0
 15116  1  0  0  0  0
 15117  1  0  0  0  0
 16 58  1  0  0  0  0
 16 67  2  0  0  0  0
 17 63  1  0  0  0  0
 17122  1  0  0  0  0
 17123  1  0  0  0  0
 18 63  1  0  0  0  0
 18124  1  0  0  0  0
 18125  1  0  0  0  0
 19 66  1  0  0  0  0
 19 68  2  0  0  0  0
 20 67  1  0  0  0  0
 20126  1  0  0  0  0
 20127  1  0  0  0  0
 21 67  1  0  0  0  0
 21128  1  0  0  0  0
 21129  1  0  0  0  0
 22 68  1  0  0  0  0
 22130  1  0  0  0  0
 22131  1  0  0  0  0
 23 68  1  0  0  0  0
 23132  1  0  0  0  0
 23133  1  0  0  0  0
 24 25  1  0  0  0  0
 24 29  1  1  0  0  0
 24 69  1  0  0  0  0
 25 26  1  0  0  0  0
 25 70  1  0  0  0  0
 25 71  1  0  0  0  0
 26 27  1  0  0  0  0
 26 72  1  0  0  0  0
 26 73  1  0  0  0  0
 27 74  1  0  0  0  0
 27 75  1  0  0  0  0
 28 30  1  0  0  0  0
 30 31  1  0  0  0  0
 30 76  1  0  0  0  0
 31 34  1  0  0  0  0
 31 77  1  0  0  0  0
 31 78  1  0  0  0  0
 32 33  1  0  0  0  0
 32 38  1  0  0  0  0
 32 80  1  0  0  0  0
 33 37  1  0  0  0  0
 33 82  1  0  0  0  0
 33 83  1  0  0  0  0
 34 40  2  0  0  0  0
 34 41  1  0  0  0  0
 35 36  1  0  0  0  0
 36 39  1  0  0  0  0
 36 84  1  0  0  0  0
 37 43  1  0  0  0  0
 37 85  1  0  0  0  0
 37 86  1  0  0  0  0
 39 44  1  0  0  0  0
 39 87  1  0  0  0  0
 39 88  1  0  0  0  0
 40 47  1  0  0  0  0
 40 90  1  0  0  0  0
 41 48  2  0  0  0  0
 41 91  1  0  0  0  0
 42 45  1  0  0  0  0
 42 46  1  0  0  0  0
 42 92  1  0  0  0  0
 43 93  1  0  0  0  0
 43 94  1  0  0  0  0
 44 50  2  0  0  0  0
 44 52  1  0  0  0  0
 46 51  1  0  0  0  0
 46 95  1  0  0  0  0
 46 96  1  0  0  0  0
 47 49  2  0  0  0  0
 47 97  1  0  0  0  0
 48 49  1  0  0  0  0
 48 98  1  0  0  0  0
 50 53  1  0  0  0  0
 50100  1  0  0  0  0
 51 58  1  0  0  0  0
 51101  1  0  0  0  0
 51102  1  0  0  0  0
 52 57  2  0  0  0  0
 52104  1  0  0  0  0
 53 56  1  0  0  0  0
 53 60  2  0  0  0  0
 54 55  1  0  0  0  0
 55 59  1  0  0  0  0
 55105  1  0  0  0  0
 56 57  1  0  0  0  0
 56 62  2  0  0  0  0
 57106  1  0  0  0  0
 58107  1  0  0  0  0
 58108  1  0  0  0  0
 59 61  1  0  0  0  0
 59109  1  0  0  0  0
 59110  1  0  0  0  0
 60 64  1  0  0  0  0
 60111  1  0  0  0  0
 61 66  1  0  0  0  0
 61112  1  0  0  0  0
 61113  1  0  0  0  0
 62 65  1  0  0  0  0
 62115  1  0  0  0  0
 64 65  2  0  0  0  0
 64118  1  0  0  0  0
 65119  1  0  0  0  0
 66120  1  0  0  0  0
 66121  1  0  0  0  0
M  END
> <PUBCHEM_COMPOUND_CID>
511263
> <PUBCHEM_COMPOUND_CANONICALIZED>
1
> <PUBCHEM_CACTVS_COMPLEXITY>
1760
> <PUBCHEM_CACTVS_HBOND_ACCEPTOR>
12
> <PUBCHEM_CACTVS_HBOND_DONOR>
13
> <PUBCHEM_CACTVS_ROTATABLE_BOND>
26
> <PUBCHEM_CACTVS_SUBSKEYS>
AAADcfB//AAAAAAAAAAAAAAAAAAAAWAAAAAwYMAAAAAAAADBVAAAHgAQCAAADCzBmAQxDsPAAgCoAiHSPAACAAEgIAAIiIGOCIgKZjKCkTOUcAAk1hGYmAeY2eCO4AACAAAQAADAAAQAACAAAAAAAAAAAA==
> <PUBCHEM_IUPAC_OPENEYE_NAME>
(2S)-2-[[(2S)-1-[(2R)-2-[[(2S)-2-[[(2S)-2-[[(2S)-2-amino-5-guanidino-pentanoyl]amino]-5-guanidino-pentanoyl]amino]-3-(2-naphthyl)propanoyl]amino]-3-(4-hydroxyphenyl)propanoyl]pyrrolidine-2-carbonyl]amino]-5-guanidino-pentanoic acid
> <PUBCHEM_IUPAC_CAS_NAME>
(2S)-2-[[[(2S)-1-[(2R)-2-[[(2S)-2-[[(2S)-2-[[(2S)-2-amino-5-(diaminomethylideneamino)-1-oxopentyl]amino]-5-(diaminomethylideneamino)-1-oxopentyl]amino]-3-(2-naphthalenyl)-1-oxopropyl]amino]-3-(4-hydroxyphenyl)-1-oxopropyl]-2-pyrrolidinyl]-oxomethyl]amino]-5-(diaminomethylideneamino)pentanoic acid
> <PUBCHEM_IUPAC_NAME_MARKUP>
(2<I>S</I>)-2-[[(2<I>S</I>)-1-[(2<I>R</I>)-2-[[(2<I>S</I>)-2-[[(2<I>S</I>)-2-[[(2<I>S</I>)-2-amino-5-(diaminomethylideneamino)pentanoyl]amino]-5-(diaminomethylideneamino)pentanoyl]amino]-3-naphthalen-2-ylpropanoyl]amino]-3-(4-hydroxyphenyl)propanoyl]pyrrolidine-2-carbonyl]amino]-5-(diaminomethylideneamino)pentanoic acid
> <PUBCHEM_IUPAC_NAME>
(2S)-2-[[(2S)-1-[(2R)-2-[[(2S)-2-[[(2S)-2-[[(2S)-2-amino-5-(diaminomethylideneamino)pentanoyl]amino]-5-(diaminomethylideneamino)pentanoyl]amino]-3-naphthalen-2-ylpropanoyl]amino]-3-(4-hydroxyphenyl)propanoyl]pyrrolidine-2-carbonyl]amino]-5-(diaminomethylideneamino)pentanoic acid
> <PUBCHEM_IUPAC_SYSTEMATIC_NAME>
(2S)-2-[[(2S)-1-[(2R)-2-[[(2S)-2-[[(2S)-2-[[(2S)-2-azanyl-5-[bis(azanyl)methylideneamino]pentanoyl]amino]-5-[bis(azanyl)methylideneamino]pentanoyl]amino]-3-naphthalen-2-yl-propanoyl]amino]-3-(4-hydroxyphenyl)propanoyl]pyrrolidin-2-yl]carbonylamino]-5-[bis(azanyl)methylideneamino]pentanoic acid
> <PUBCHEM_IUPAC_TRADITIONAL_NAME>
(2S)-2-[[(2S)-1-[(2R)-2-[[(2S)-2-[[(2S)-2-[[(2S)-2-amino-5-guanidino-pentanoyl]amino]-5-guanidino-pentanoyl]amino]-3-(2-naphthyl)propanoyl]amino]-3-(4-hydroxyphenyl)propanoyl]prolyl]amino]-5-guanidino-valeric acid
> <PUBCHEM_IUPAC_INCHI>
InChI=1S/C45H65N15O8/c46-31(9-3-19-53-43(47)48)37(62)56-32(10-4-20-54-44(49)50)38(63)58-34(25-27-13-16-28-7-1-2-8-29(28)23-27)39(64)59-35(24-26-14-17-30(61)18-15-26)41(66)60-22-6-12-36(60)40(65)57-33(42(67)68)11-5-21-55-45(51)52/h1-2,7-8,13-18,23,31-36,61H,3-6,9-12,19-22,24-25,46H2,(H,56,62)(H,57,65)(H,58,63)(H,59,64)(H,67,68)(H4,47,48,53)(H4,49,50,54)(H4,51,52,55)/t31-,32-,33-,34-,35+,36-/m0/s1
> <PUBCHEM_IUPAC_INCHIKEY>
CPTIEVCJVQGRMI-QLBHTZGESA-N
> <PUBCHEM_XLOGP3_AA>
-3.5
> <PUBCHEM_EXACT_MASS>
943.51405409
> <PUBCHEM_MOLECULAR_FORMULA>
C45H65N15O8
> <PUBCHEM_MOLECULAR_WEIGHT>
944.1
> <PUBCHEM_OPENEYE_CAN_SMILES>
C1CC(N(C1)C(=O)C(CC2=CC=C(C=C2)O)NC(=O)C(CC3=CC4=CC=CC=C4C=C3)NC(=O)C(CCCN=C(N)N)NC(=O)C(CCCN=C(N)N)N)C(=O)NC(CCCN=C(N)N)C(=O)O
> <PUBCHEM_OPENEYE_ISO_SMILES>
C1C[C@H](N(C1)C(=O)[C@@H](CC2=CC=C(C=C2)O)NC(=O)[C@H](CC3=CC4=CC=CC=C4C=C3)NC(=O)[C@H](CCCN=C(N)N)NC(=O)[C@H](CCCN=C(N)N)N)C(=O)N[C@@H](CCCN=C(N)N)C(=O)O
> <PUBCHEM_CACTVS_TPSA>
414
> <PUBCHEM_MONOISOTOPIC_WEIGHT>
943.51405409
> <PUBCHEM_TOTAL_CHARGE>
0
> <PUBCHEM_HEAVY_ATOM_COUNT>
68
> <PUBCHEM_ATOM_DEF_STEREO_COUNT>
6
> <PUBCHEM_ATOM_UDEF_STEREO_COUNT>
0
> <PUBCHEM_BOND_DEF_STEREO_COUNT>
0
> <PUBCHEM_BOND_UDEF_STEREO_COUNT>
0
> <PUBCHEM_ISOTOPIC_ATOM_COUNT>
0
> <PUBCHEM_COMPONENT_COUNT>
1
> <PUBCHEM_CACTVS_TAUTO_COUNT>
-1
> <PUBCHEM_COORDINATE_TYPE>
1
5
255
> <PUBCHEM_BONDANNOTATIONS>
32  10  6
30  11  5
36  12  5
42  13  5
55  15  6
24  29  5
34  40  8
34  41  8
40  47  8
41  48  8
44  50  8
44  52  8
47  49  8
48  49  8
50  53  8
52  57  8
53  56  8
53  60  8
56  57  8
56  62  8
60  64  8
62  65  8
64  65  8
$$$$
