511259
  -OEChem-10302200282D
133135  0     1  0  0  0  0  0999 V2000
    7.7331   -2.0240    0.0000 O   0  0  0  0  0  0  0  0  0  0  0  0
    7.5907   -3.3786    0.0000 O   0  0  0  0  0  0  0  0  0  0  0  0
    6.8671    1.4760    0.0000 O   0  0  0  0  0  0  0  0  0  0  0  0
    7.7101   -6.9822    0.0000 O   0  0  0  0  0  0  0  0  0  0  0  0
    6.0159   -6.6221    0.0000 O   0  0  0  0  0  0  0  0  0  0  0  0
    6.8671    2.4760    0.0000 O   0  0  0  0  0  0  0  0  0  0  0  0
    7.7331    5.9760    0.0000 O   0  0  0  0  0  0  0  0  0  0  0  0
    6.0010   -2.0240    0.0000 N   0  0  0  0  0  0  0  0  0  0  0  0
    6.4317   -4.6658    0.0000 N   0  0  0  0  0  0  0  0  0  0  0  0
    7.7331   -0.0240    0.0000 N   0  0  0  0  0  0  0  0  0  0  0  0
    8.5991    2.4760    0.0000 N   0  0  0  0  0  0  0  0  0  0  0  0
    4.2690    2.9760    0.0000 N   0  0  0  0  0  0  0  0  0  0  0  0
    6.8671    4.4760    0.0000 N   0  0  0  0  0  0  0  0  0  0  0  0
    9.4043   -7.3423    0.0000 N   0  0  0  0  0  0  0  0  0  0  0  0
    6.0010    6.9760    0.0000 N   0  0  0  0  0  0  0  0  0  0  0  0
    9.4651    6.9760    0.0000 N   0  0  0  0  0  0  0  0  0  0  0  0
    9.9396   -8.9896    0.0000 N   0  0  0  0  0  0  0  0  0  0  0  0
    8.2454   -8.6295    0.0000 N   0  0  0  0  0  0  0  0  0  0  0  0
    3.4030    7.4760    0.0000 N   0  0  0  0  0  0  0  0  0  0  0  0
   10.3312    8.4760    0.0000 N   0  0  0  0  0  0  0  0  0  0  0  0
   11.1972    6.9760    0.0000 N   0  0  0  0  0  0  0  0  0  0  0  0
    2.5369    8.9760    0.0000 N   0  0  0  0  0  0  0  0  0  0  0  0
    4.2690    8.9760    0.0000 N   0  0  0  0  0  0  0  0  0  0  0  0
    5.8965   -3.0185    0.0000 C   0  0  1  0  0  0  0  0  0  0  0  0
    4.9184   -3.2264    0.0000 C   0  0  0  0  0  0  0  0  0  0  0  0
    4.4184   -2.3604    0.0000 C   0  0  0  0  0  0  0  0  0  0  0  0
    5.0875   -1.6172    0.0000 C   0  0  0  0  0  0  0  0  0  0  0  0
    6.8671   -1.5240    0.0000 C   0  0  0  0  0  0  0  0  0  0  0  0
    6.8671   -0.5240    0.0000 C   0  0  1  0  0  0  0  0  0  0  0  0
    6.6396   -3.6876    0.0000 C   0  0  0  0  0  0  0  0  0  0  0  0
    6.0010   -0.0240    0.0000 C   0  0  0  0  0  0  0  0  0  0  0  0
    6.0010    0.9760    0.0000 C   0  0  0  0  0  0  0  0  0  0  0  0
    7.1749   -5.3349    0.0000 C   0  0  1  0  0  0  0  0  0  0  0  0
    5.1350    1.4760    0.0000 C   0  0  0  0  0  0  0  0  0  0  0  0
    7.7331    0.9760    0.0000 C   0  0  0  0  0  0  0  0  0  0  0  0
    8.1259   -5.0259    0.0000 C   0  0  0  0  0  0  0  0  0  0  0  0
    8.5991    1.4760    0.0000 C   0  0  2  0  0  0  0  0  0  0  0  0
    9.4651    0.9760    0.0000 C   0  0  0  0  0  0  0  0  0  0  0  0
    8.8691   -5.6950    0.0000 C   0  0  0  0  0  0  0  0  0  0  0  0
    5.1350    2.4760    0.0000 C   0  0  0  0  0  0  0  0  0  0  0  0
    6.9670   -6.3130    0.0000 C   0  0  0  0  0  0  0  0  0  0  0  0
   10.3312    1.4760    0.0000 C   0  0  0  0  0  0  0  0  0  0  0  0
    7.7331    3.9760    0.0000 C   0  0  2  0  0  0  0  0  0  0  0  0
    7.7331    2.9760    0.0000 C   0  0  0  0  0  0  0  0  0  0  0  0
    8.6612   -6.6732    0.0000 C   0  0  0  0  0  0  0  0  0  0  0  0
    8.5991    4.4760    0.0000 C   0  0  0  0  0  0  0  0  0  0  0  0
   11.1972    0.9760    0.0000 C   0  0  0  0  0  0  0  0  0  0  0  0
   10.3312    2.4760    0.0000 C   0  0  0  0  0  0  0  0  0  0  0  0
    8.5991    5.4760    0.0000 C   0  0  0  0  0  0  0  0  0  0  0  0
   12.0632    1.4760    0.0000 C   0  0  0  0  0  0  0  0  0  0  0  0
   12.0632    2.4760    0.0000 C   0  0  0  0  0  0  0  0  0  0  0  0
   11.1972    2.9760    0.0000 C   0  0  0  0  0  0  0  0  0  0  0  0
    6.8671    5.4760    0.0000 C   0  0  0  0  0  0  0  0  0  0  0  0
    6.0010    5.9760    0.0000 C   0  0  2  0  0  0  0  0  0  0  0  0
    9.4651    5.9760    0.0000 C   0  0  0  0  0  0  0  0  0  0  0  0
    5.1350    5.4760    0.0000 C   0  0  0  0  0  0  0  0  0  0  0  0
   12.9572    0.9414    0.0000 C   0  0  0  0  0  0  0  0  0  0  0  0
    4.2690    5.9760    0.0000 C   0  0  0  0  0  0  0  0  0  0  0  0
   12.9572    3.0107    0.0000 C   0  0  0  0  0  0  0  0  0  0  0  0
    9.1964   -8.3204    0.0000 C   0  0  0  0  0  0  0  0  0  0  0  0
   13.8632    1.4552    0.0000 C   0  0  0  0  0  0  0  0  0  0  0  0
   13.8632    2.4968    0.0000 C   0  0  0  0  0  0  0  0  0  0  0  0
    4.2690    6.9760    0.0000 C   0  0  0  0  0  0  0  0  0  0  0  0
   10.3312    7.4760    0.0000 C   0  0  0  0  0  0  0  0  0  0  0  0
    3.4030    8.4760    0.0000 C   0  0  0  0  0  0  0  0  0  0  0  0
    6.4753   -2.7963    0.0000 H   0  0  0  0  0  0  0  0  0  0  0  0
    4.3520   -3.4786    0.0000 H   0  0  0  0  0  0  0  0  0  0  0  0
    5.1100   -3.8161    0.0000 H   0  0  0  0  0  0  0  0  0  0  0  0
    4.0035   -1.8996    0.0000 H   0  0  0  0  0  0  0  0  0  0  0  0
    3.9168   -2.7248    0.0000 H   0  0  0  0  0  0  0  0  0  0  0  0
    5.3975   -1.0803    0.0000 H   0  0  0  0  0  0  0  0  0  0  0  0
    4.5859   -1.2528    0.0000 H   0  0  0  0  0  0  0  0  0  0  0  0
    7.4040   -0.8340    0.0000 H   0  0  0  0  0  0  0  0  0  0  0  0
    5.3905    0.0837    0.0000 H   0  0  0  0  0  0  0  0  0  0  0  0
    5.7890   -0.6066    0.0000 H   0  0  0  0  0  0  0  0  0  0  0  0
    5.8421   -4.8574    0.0000 H   0  0  0  0  0  0  0  0  0  0  0  0
    6.6116    0.8684    0.0000 H   0  0  0  0  0  0  0  0  0  0  0  0
    6.2131    1.5586    0.0000 H   0  0  0  0  0  0  0  0  0  0  0  0
    8.2700   -0.3340    0.0000 H   0  0  0  0  0  0  0  0  0  0  0  0
    6.5852   -5.5265    0.0000 H   0  0  0  0  0  0  0  0  0  0  0  0
    4.5244    1.5837    0.0000 H   0  0  0  0  0  0  0  0  0  0  0  0
    4.9230    0.8934    0.0000 H   0  0  0  0  0  0  0  0  0  0  0  0
    8.6145   -4.6442    0.0000 H   0  0  0  0  0  0  0  0  0  0  0  0
    7.8349   -4.4785    0.0000 H   0  0  0  0  0  0  0  0  0  0  0  0
    8.0622    1.7860    0.0000 H   0  0  0  0  0  0  0  0  0  0  0  0
    9.0666    0.5011    0.0000 H   0  0  0  0  0  0  0  0  0  0  0  0
    9.8637    0.5011    0.0000 H   0  0  0  0  0  0  0  0  0  0  0  0
    9.4439   -5.9273    0.0000 H   0  0  0  0  0  0  0  0  0  0  0  0
    9.1976   -5.1692    0.0000 H   0  0  0  0  0  0  0  0  0  0  0  0
    5.7456    2.3684    0.0000 H   0  0  0  0  0  0  0  0  0  0  0  0
    5.3471    3.0586    0.0000 H   0  0  0  0  0  0  0  0  0  0  0  0
    9.1360    2.7860    0.0000 H   0  0  0  0  0  0  0  0  0  0  0  0
    7.7331    4.5960    0.0000 H   0  0  0  0  0  0  0  0  0  0  0  0
    8.0863   -6.4409    0.0000 H   0  0  0  0  0  0  0  0  0  0  0  0
    8.3326   -7.1990    0.0000 H   0  0  0  0  0  0  0  0  0  0  0  0
    8.8112    3.8934    0.0000 H   0  0  0  0  0  0  0  0  0  0  0  0
    9.2097    4.5837    0.0000 H   0  0  0  0  0  0  0  0  0  0  0  0
    4.2690    3.5960    0.0000 H   0  0  0  0  0  0  0  0  0  0  0  0
    3.7320    2.6660    0.0000 H   0  0  0  0  0  0  0  0  0  0  0  0
   11.1972    0.3560    0.0000 H   0  0  0  0  0  0  0  0  0  0  0  0
    6.3301    4.1660    0.0000 H   0  0  0  0  0  0  0  0  0  0  0  0
    9.7942    2.7860    0.0000 H   0  0  0  0  0  0  0  0  0  0  0  0
    8.3871    6.0586    0.0000 H   0  0  0  0  0  0  0  0  0  0  0  0
    7.9885    5.3684    0.0000 H   0  0  0  0  0  0  0  0  0  0  0  0
    7.5812   -7.5886    0.0000 H   0  0  0  0  0  0  0  0  0  0  0  0
   11.1972    3.5960    0.0000 H   0  0  0  0  0  0  0  0  0  0  0  0
    6.5380    6.2860    0.0000 H   0  0  0  0  0  0  0  0  0  0  0  0
    9.6772    5.3934    0.0000 H   0  0  0  0  0  0  0  0  0  0  0  0
   10.0757    6.0837    0.0000 H   0  0  0  0  0  0  0  0  0  0  0  0
    4.7365    5.0011    0.0000 H   0  0  0  0  0  0  0  0  0  0  0  0
    5.5335    5.0011    0.0000 H   0  0  0  0  0  0  0  0  0  0  0  0
   12.9500    0.3214    0.0000 H   0  0  0  0  0  0  0  0  0  0  0  0
    3.6584    6.0837    0.0000 H   0  0  0  0  0  0  0  0  0  0  0  0
    4.0569    5.3934    0.0000 H   0  0  0  0  0  0  0  0  0  0  0  0
   12.9500    3.6306    0.0000 H   0  0  0  0  0  0  0  0  0  0  0  0
    5.4641    7.2860    0.0000 H   0  0  0  0  0  0  0  0  0  0  0  0
    6.5380    7.2860    0.0000 H   0  0  0  0  0  0  0  0  0  0  0  0
   14.3990    1.1431    0.0000 H   0  0  0  0  0  0  0  0  0  0  0  0
   14.3990    2.8089    0.0000 H   0  0  0  0  0  0  0  0  0  0  0  0
    4.8796    6.8684    0.0000 H   0  0  0  0  0  0  0  0  0  0  0  0
    4.4810    7.5586    0.0000 H   0  0  0  0  0  0  0  0  0  0  0  0
    9.8107   -9.5960    0.0000 H   0  0  0  0  0  0  0  0  0  0  0  0
   10.5292   -8.7980    0.0000 H   0  0  0  0  0  0  0  0  0  0  0  0
    8.1164   -9.2359    0.0000 H   0  0  0  0  0  0  0  0  0  0  0  0
    7.7846   -8.2146    0.0000 H   0  0  0  0  0  0  0  0  0  0  0  0
   10.8681    8.7860    0.0000 H   0  0  0  0  0  0  0  0  0  0  0  0
    9.7942    8.7860    0.0000 H   0  0  0  0  0  0  0  0  0  0  0  0
   11.7341    7.2860    0.0000 H   0  0  0  0  0  0  0  0  0  0  0  0
   11.1972    6.3560    0.0000 H   0  0  0  0  0  0  0  0  0  0  0  0
    2.5369    9.5960    0.0000 H   0  0  0  0  0  0  0  0  0  0  0  0
    2.0000    8.6660    0.0000 H   0  0  0  0  0  0  0  0  0  0  0  0
    4.2690    9.5960    0.0000 H   0  0  0  0  0  0  0  0  0  0  0  0
    4.8059    8.6660    0.0000 H   0  0  0  0  0  0  0  0  0  0  0  0
  1 28  2  0  0  0  0
  2 30  2  0  0  0  0
  3 35  2  0  0  0  0
  4 41  1  0  0  0  0
  4105  1  0  0  0  0
  5 41  2  0  0  0  0
  6 44  2  0  0  0  0
  7 53  2  0  0  0  0
  8 24  1  0  0  0  0
  8 27  1  0  0  0  0
  8 28  1  0  0  0  0
  9 30  1  0  0  0  0
 33  9  1  1  0  0  0
  9 76  1  0  0  0  0
 29 10  1  1  0  0  0
 10 35  1  0  0  0  0
 10 79  1  0  0  0  0
 37 11  1  1  0  0  0
 11 44  1  0  0  0  0
 11 92  1  0  0  0  0
 12 40  1  0  0  0  0
 12 98  1  0  0  0  0
 12 99  1  0  0  0  0
 43 13  1  1  0  0  0
 13 53  1  0  0  0  0
 13101  1  0  0  0  0
 14 45  1  0  0  0  0
 14 60  2  0  0  0  0
 54 15  1  6  0  0  0
 15116  1  0  0  0  0
 15117  1  0  0  0  0
 16 55  1  0  0  0  0
 16 64  2  0  0  0  0
 17 60  1  0  0  0  0
 17122  1  0  0  0  0
 17123  1  0  0  0  0
 18 60  1  0  0  0  0
 18124  1  0  0  0  0
 18125  1  0  0  0  0
 19 63  1  0  0  0  0
 19 65  2  0  0  0  0
 20 64  1  0  0  0  0
 20126  1  0  0  0  0
 20127  1  0  0  0  0
 21 64  1  0  0  0  0
 21128  1  0  0  0  0
 21129  1  0  0  0  0
 22 65  1  0  0  0  0
 22130  1  0  0  0  0
 22131  1  0  0  0  0
 23 65  1  0  0  0  0
 23132  1  0  0  0  0
 23133  1  0  0  0  0
 24 25  1  0  0  0  0
 24 30  1  6  0  0  0
 24 66  1  0  0  0  0
 25 26  1  0  0  0  0
 25 67  1  0  0  0  0
 25 68  1  0  0  0  0
 26 27  1  0  0  0  0
 26 69  1  0  0  0  0
 26 70  1  0  0  0  0
 27 71  1  0  0  0  0
 27 72  1  0  0  0  0
 28 29  1  0  0  0  0
 29 31  1  0  0  0  0
 29 73  1  0  0  0  0
 31 32  1  0  0  0  0
 31 74  1  0  0  0  0
 31 75  1  0  0  0  0
 32 34  1  0  0  0  0
 32 77  1  0  0  0  0
 32 78  1  0  0  0  0
 33 36  1  0  0  0  0
 33 41  1  0  0  0  0
 33 80  1  0  0  0  0
 34 40  1  0  0  0  0
 34 81  1  0  0  0  0
 34 82  1  0  0  0  0
 35 37  1  0  0  0  0
 36 39  1  0  0  0  0
 36 83  1  0  0  0  0
 36 84  1  0  0  0  0
 37 38  1  0  0  0  0
 37 85  1  0  0  0  0
 38 42  1  0  0  0  0
 38 86  1  0  0  0  0
 38 87  1  0  0  0  0
 39 45  1  0  0  0  0
 39 88  1  0  0  0  0
 39 89  1  0  0  0  0
 40 90  1  0  0  0  0
 40 91  1  0  0  0  0
 42 47  2  0  0  0  0
 42 48  1  0  0  0  0
 43 44  1  0  0  0  0
 43 46  1  0  0  0  0
 43 93  1  0  0  0  0
 45 94  1  0  0  0  0
 45 95  1  0  0  0  0
 46 49  1  0  0  0  0
 46 96  1  0  0  0  0
 46 97  1  0  0  0  0
 47 50  1  0  0  0  0
 47100  1  0  0  0  0
 48 52  2  0  0  0  0
 48102  1  0  0  0  0
 49 55  1  0  0  0  0
 49103  1  0  0  0  0
 49104  1  0  0  0  0
 50 51  1  0  0  0  0
 50 57  2  0  0  0  0
 51 52  1  0  0  0  0
 51 59  2  0  0  0  0
 52106  1  0  0  0  0
 53 54  1  0  0  0  0
 54 56  1  0  0  0  0
 54107  1  0  0  0  0
 55108  1  0  0  0  0
 55109  1  0  0  0  0
 56 58  1  0  0  0  0
 56110  1  0  0  0  0
 56111  1  0  0  0  0
 57 61  1  0  0  0  0
 57112  1  0  0  0  0
 58 63  1  0  0  0  0
 58113  1  0  0  0  0
 58114  1  0  0  0  0
 59 62  1  0  0  0  0
 59115  1  0  0  0  0
 61 62  2  0  0  0  0
 61118  1  0  0  0  0
 62119  1  0  0  0  0
 63120  1  0  0  0  0
 63121  1  0  0  0  0
M  END
> <PUBCHEM_COMPOUND_CID>
511259
> <PUBCHEM_COMPOUND_CANONICALIZED>
1
> <PUBCHEM_CACTVS_COMPLEXITY>
1650
> <PUBCHEM_CACTVS_HBOND_ACCEPTOR>
12
> <PUBCHEM_CACTVS_HBOND_DONOR>
13
> <PUBCHEM_CACTVS_ROTATABLE_BOND>
28
> <PUBCHEM_CACTVS_SUBSKEYS>
AAADcfB/+AAAAAAAAAAAAAAAAAAAAWAAAAAwYAAAAAAAAADBUAAAHgAQCAAADCjBmAQxCMPAAgCoAiHSPAACAAEgAAAIiIGIAIgKYDKAkTGUYAAklgCYiAeYmcCOwAACAAAQAACAAAQAACAAAAAAAAAAAA==
> <PUBCHEM_IUPAC_OPENEYE_NAME>
(2S)-2-[[(2S)-1-[(2R)-6-amino-2-[[(2S)-2-[[(2S)-2-[[(2S)-2-amino-5-guanidino-pentanoyl]amino]-5-guanidino-pentanoyl]amino]-3-(2-naphthyl)propanoyl]amino]hexanoyl]pyrrolidine-2-carbonyl]amino]-5-guanidino-pentanoic acid
> <PUBCHEM_IUPAC_CAS_NAME>
(2S)-2-[[[(2S)-1-[(2R)-6-amino-2-[[(2S)-2-[[(2S)-2-[[(2S)-2-amino-5-(diaminomethylideneamino)-1-oxopentyl]amino]-5-(diaminomethylideneamino)-1-oxopentyl]amino]-3-(2-naphthalenyl)-1-oxopropyl]amino]-1-oxohexyl]-2-pyrrolidinyl]-oxomethyl]amino]-5-(diaminomethylideneamino)pentanoic acid
> <PUBCHEM_IUPAC_NAME_MARKUP>
(2<I>S</I>)-2-[[(2<I>S</I>)-1-[(2<I>R</I>)-6-amino-2-[[(2<I>S</I>)-2-[[(2<I>S</I>)-2-[[(2<I>S</I>)-2-amino-5-(diaminomethylideneamino)pentanoyl]amino]-5-(diaminomethylideneamino)pentanoyl]amino]-3-naphthalen-2-ylpropanoyl]amino]hexanoyl]pyrrolidine-2-carbonyl]amino]-5-(diaminomethylideneamino)pentanoic acid
> <PUBCHEM_IUPAC_NAME>
(2S)-2-[[(2S)-1-[(2R)-6-amino-2-[[(2S)-2-[[(2S)-2-[[(2S)-2-amino-5-(diaminomethylideneamino)pentanoyl]amino]-5-(diaminomethylideneamino)pentanoyl]amino]-3-naphthalen-2-ylpropanoyl]amino]hexanoyl]pyrrolidine-2-carbonyl]amino]-5-(diaminomethylideneamino)pentanoic acid
> <PUBCHEM_IUPAC_SYSTEMATIC_NAME>
(2S)-2-[[(2S)-1-[(2R)-6-azanyl-2-[[(2S)-2-[[(2S)-2-[[(2S)-2-azanyl-5-[bis(azanyl)methylideneamino]pentanoyl]amino]-5-[bis(azanyl)methylideneamino]pentanoyl]amino]-3-naphthalen-2-yl-propanoyl]amino]hexanoyl]pyrrolidin-2-yl]carbonylamino]-5-[bis(azanyl)methylideneamino]pentanoic acid
> <PUBCHEM_IUPAC_TRADITIONAL_NAME>
(2S)-2-[[(2S)-1-[(2R)-6-amino-2-[[(2S)-2-[[(2S)-2-[[(2S)-2-amino-5-guanidino-pentanoyl]amino]-5-guanidino-pentanoyl]amino]-3-(2-naphthyl)propanoyl]amino]hexanoyl]prolyl]amino]-5-guanidino-valeric acid
> <PUBCHEM_IUPAC_INCHI>
InChI=1S/C42H68N16O7/c43-18-4-3-12-30(38(63)58-22-8-15-33(58)37(62)56-31(39(64)65)14-7-21-53-42(49)50)55-36(61)32(24-25-16-17-26-9-1-2-10-27(26)23-25)57-35(60)29(13-6-20-52-41(47)48)54-34(59)28(44)11-5-19-51-40(45)46/h1-2,9-10,16-17,23,28-33H,3-8,11-15,18-22,24,43-44H2,(H,54,59)(H,55,61)(H,56,62)(H,57,60)(H,64,65)(H4,45,46,51)(H4,47,48,52)(H4,49,50,53)/t28-,29-,30+,31-,32-,33-/m0/s1
> <PUBCHEM_IUPAC_INCHIKEY>
ONCXGCXZBORLNN-QXDHOACBSA-N
> <PUBCHEM_XLOGP3_AA>
-5
> <PUBCHEM_EXACT_MASS>
908.54568857
> <PUBCHEM_MOLECULAR_FORMULA>
C42H68N16O7
> <PUBCHEM_MOLECULAR_WEIGHT>
909.1
> <PUBCHEM_OPENEYE_CAN_SMILES>
C1CC(N(C1)C(=O)C(CCCCN)NC(=O)C(CC2=CC3=CC=CC=C3C=C2)NC(=O)C(CCCN=C(N)N)NC(=O)C(CCCN=C(N)N)N)C(=O)NC(CCCN=C(N)N)C(=O)O
> <PUBCHEM_OPENEYE_ISO_SMILES>
C1C[C@H](N(C1)C(=O)[C@@H](CCCCN)NC(=O)[C@H](CC2=CC3=CC=CC=C3C=C2)NC(=O)[C@H](CCCN=C(N)N)NC(=O)[C@H](CCCN=C(N)N)N)C(=O)N[C@@H](CCCN=C(N)N)C(=O)O
> <PUBCHEM_CACTVS_TPSA>
419
> <PUBCHEM_MONOISOTOPIC_WEIGHT>
908.54568857
> <PUBCHEM_TOTAL_CHARGE>
0
> <PUBCHEM_HEAVY_ATOM_COUNT>
65
> <PUBCHEM_ATOM_DEF_STEREO_COUNT>
6
> <PUBCHEM_ATOM_UDEF_STEREO_COUNT>
0
> <PUBCHEM_BOND_DEF_STEREO_COUNT>
0
> <PUBCHEM_BOND_UDEF_STEREO_COUNT>
0
> <PUBCHEM_ISOTOPIC_ATOM_COUNT>
0
> <PUBCHEM_COMPONENT_COUNT>
1
> <PUBCHEM_CACTVS_TAUTO_COUNT>
-1
> <PUBCHEM_COORDINATE_TYPE>
1
5
255
> <PUBCHEM_BONDANNOTATIONS>
29  10  5
37  11  5
43  13  5
54  15  6
24  30  6
42  47  8
42  48  8
47  50  8
48  52  8
50  51  8
50  57  8
51  52  8
51  59  8
57  61  8
59  62  8
61  62  8
33  9  5
$$$$
