511252
  -OEChem-10302200282D
197200  0     1  0  0  0  0  0999 V2000
    8.5991    1.8533    0.0000 S   0  0  0  0  0  0  0  0  0  0  0  0
    8.8579    0.8873    0.0000 S   0  0  0  0  0  0  0  0  0  0  0  0
   14.3297    5.6985    0.0000 O   0  0  0  0  0  0  0  0  0  0  0  0
   13.0632    3.8533    0.0000 O   0  0  0  0  0  0  0  0  0  0  0  0
   12.2978    3.1713    0.0000 O   0  0  0  0  0  0  0  0  0  0  0  0
    9.4651    2.3533    0.0000 O   0  0  0  0  0  0  0  0  0  0  0  0
   12.2040   -0.0092    0.0000 O   0  0  0  0  0  0  0  0  0  0  0  0
    6.8671    4.8533    0.0000 O   0  0  0  0  0  0  0  0  0  0  0  0
   11.9452   -0.9752    0.0000 O   0  0  0  0  0  0  0  0  0  0  0  0
    3.4030    3.8533    0.0000 O   0  0  0  0  0  0  0  0  0  0  0  0
    4.2690    2.3533    0.0000 O   0  0  0  0  0  0  0  0  0  0  0  0
   12.6523   -1.6823    0.0000 O   0  0  0  0  0  0  0  0  0  0  0  0
   14.5148   -4.7695    0.0000 O   0  0  0  0  0  0  0  0  0  0  0  0
   12.9292    5.3533    0.0000 N   0  0  0  0  0  0  0  0  0  0  0  0
   11.1972    3.3533    0.0000 N   0  0  0  0  0  0  0  0  0  0  0  0
   14.1876    3.0475    0.0000 N   0  0  0  0  0  0  0  0  0  0  0  0
   11.7557    1.6638    0.0000 N   0  0  0  0  0  0  0  0  0  0  0  0
    8.5991    3.8533    0.0000 N   0  0  0  0  0  0  0  0  0  0  0  0
   18.6462    2.8466    0.0000 N   0  0  0  0  0  0  0  0  0  0  0  0
    8.5991    6.8533    0.0000 N   0  0  0  0  0  0  0  0  0  0  0  0
   10.2721   -0.5269    0.0000 N   0  0  0  0  0  0  0  0  0  0  0  0
    6.0010    3.3533    0.0000 N   0  0  0  0  0  0  0  0  0  0  0  0
   16.5308   -0.1964    0.0000 N   0  0  0  0  0  0  0  0  0  0  0  0
   11.4275   -2.9070    0.0000 N   0  0  0  0  0  0  0  0  0  0  0  0
    7.7331    8.3533    0.0000 N   0  0  0  0  0  0  0  0  0  0  0  0
    9.4651    8.3533    0.0000 N   0  0  0  0  0  0  0  0  0  0  0  0
   14.0665   -3.0965    0.0000 N   0  0  0  0  0  0  0  0  0  0  0  0
    3.4030    6.8533    0.0000 N   0  0  0  0  0  0  0  0  0  0  0  0
   16.4466   -4.2519    0.0000 N   0  0  0  0  0  0  0  0  0  0  0  0
   13.9971   -6.7014    0.0000 N   0  0  0  0  0  0  0  0  0  0  0  0
   18.6373   -2.7683    0.0000 N   0  0  0  0  0  0  0  0  0  0  0  0
    2.5369    8.3533    0.0000 N   0  0  0  0  0  0  0  0  0  0  0  0
    4.2690    8.3533    0.0000 N   0  0  0  0  0  0  0  0  0  0  0  0
   14.4454   -8.3744    0.0000 N   0  0  0  0  0  0  0  0  0  0  0  0
   12.7724   -7.9261    0.0000 N   0  0  0  0  0  0  0  0  0  0  0  0
   20.3103   -3.2166    0.0000 N   0  0  0  0  0  0  0  0  0  0  0  0
   19.0856   -4.4413    0.0000 N   0  0  0  0  0  0  0  0  0  0  0  0
   12.0632    4.8533    0.0000 C   0  0  1  0  0  0  0  0  0  0  0  0
   11.3262    5.5204    0.0000 C   0  0  0  0  0  0  0  0  0  0  0  0
   11.7313    6.4281    0.0000 C   0  0  0  0  0  0  0  0  0  0  0  0
   12.7200    6.3251    0.0000 C   0  0  0  0  0  0  0  0  0  0  0  0
   13.7953    4.8533    0.0000 C   0  0  0  0  0  0  0  0  0  0  0  0
   14.4464    4.0134    0.0000 C   0  0  1  0  0  0  0  0  0  0  0  0
   12.0632    3.8533    0.0000 C   0  0  0  0  0  0  0  0  0  0  0  0
   15.4369    4.1506    0.0000 C   0  0  0  0  0  0  0  0  0  0  0  0
   10.3312    3.8533    0.0000 C   0  0  1  0  0  0  0  0  0  0  0  0
   16.0510    3.3614    0.0000 C   0  0  0  0  0  0  0  0  0  0  0  0
   10.3312    4.8533    0.0000 C   0  0  0  0  0  0  0  0  0  0  0  0
   17.0416    3.4986    0.0000 C   0  0  0  0  0  0  0  0  0  0  0  0
   13.2216    2.7886    0.0000 C   0  0  0  0  0  0  0  0  0  0  0  0
   12.7216    1.9226    0.0000 C   0  0  2  0  0  0  0  0  0  0  0  0
    9.4651    3.3533    0.0000 C   0  0  0  0  0  0  0  0  0  0  0  0
    9.4651    5.3533    0.0000 C   0  0  0  0  0  0  0  0  0  0  0  0
   13.3304    1.1293    0.0000 C   0  0  0  0  0  0  0  0  0  0  0  0
   17.6557    2.7094    0.0000 C   0  0  0  0  0  0  0  0  0  0  0  0
   14.3218    1.2598    0.0000 C   0  0  0  0  0  0  0  0  0  0  0  0
    9.4651    6.3533    0.0000 C   0  0  0  0  0  0  0  0  0  0  0  0
    7.7331    3.3533    0.0000 C   0  0  1  0  0  0  0  0  0  0  0  0
   14.9306    0.4664    0.0000 C   0  0  0  0  0  0  0  0  0  0  0  0
   11.4969    0.6979    0.0000 C   0  0  0  0  0  0  0  0  0  0  0  0
   10.5310    0.4391    0.0000 C   0  0  2  0  0  0  0  0  0  0  0  0
    7.7331    2.3533    0.0000 C   0  0  0  0  0  0  0  0  0  0  0  0
    6.8671    3.8533    0.0000 C   0  0  0  0  0  0  0  0  0  0  0  0
   15.9220    0.5970    0.0000 C   0  0  0  0  0  0  0  0  0  0  0  0
    9.8239    1.1462    0.0000 C   0  0  0  0  0  0  0  0  0  0  0  0
    5.1350    3.8533    0.0000 C   0  0  1  0  0  0  0  0  0  0  0  0
   10.7204   -2.1999    0.0000 C   0  0  2  0  0  0  0  0  0  0  0  0
   10.9793   -1.2340    0.0000 C   0  0  0  0  0  0  0  0  0  0  0  0
    8.5991    7.8533    0.0000 C   0  0  0  0  0  0  0  0  0  0  0  0
    5.1350    4.8533    0.0000 C   0  0  0  0  0  0  0  0  0  0  0  0
    9.7545   -2.4587    0.0000 C   0  0  0  0  0  0  0  0  0  0  0  0
   13.1006   -3.3553    0.0000 C   0  0  2  0  0  0  0  0  0  0  0  0
    4.2690    5.3533    0.0000 C   0  0  0  0  0  0  0  0  0  0  0  0
    4.2690    3.3533    0.0000 C   0  0  0  0  0  0  0  0  0  0  0  0
    9.4957   -3.4246    0.0000 C   0  0  0  0  0  0  0  0  0  0  0  0
   12.3935   -2.6482    0.0000 C   0  0  0  0  0  0  0  0  0  0  0  0
   12.8418   -4.3212    0.0000 C   0  0  0  0  0  0  0  0  0  0  0  0
    4.2690    6.3533    0.0000 C   0  0  0  0  0  0  0  0  0  0  0  0
   13.5489   -5.0283    0.0000 C   0  0  0  0  0  0  0  0  0  0  0  0
    8.5298   -3.6835    0.0000 C   0  0  0  0  0  0  0  0  0  0  0  0
   10.2028   -4.1318    0.0000 C   0  0  0  0  0  0  0  0  0  0  0  0
    8.2709   -4.6494    0.0000 C   0  0  0  0  0  0  0  0  0  0  0  0
   15.7395   -3.5448    0.0000 C   0  0  2  0  0  0  0  0  0  0  0  0
   14.7736   -3.8036    0.0000 C   0  0  0  0  0  0  0  0  0  0  0  0
    8.9780   -5.3565    0.0000 C   0  0  0  0  0  0  0  0  0  0  0  0
    9.9440   -5.0977    0.0000 C   0  0  0  0  0  0  0  0  0  0  0  0
   13.2900   -5.9943    0.0000 C   0  0  0  0  0  0  0  0  0  0  0  0
   15.9984   -2.5788    0.0000 C   0  0  0  0  0  0  0  0  0  0  0  0
   16.9643   -2.3200    0.0000 C   0  0  0  0  0  0  0  0  0  0  0  0
    7.2608   -4.9034    0.0000 C   0  0  0  0  0  0  0  0  0  0  0  0
    8.7240   -6.3667    0.0000 C   0  0  0  0  0  0  0  0  0  0  0  0
    6.9834   -5.9075    0.0000 C   0  0  0  0  0  0  0  0  0  0  0  0
   17.6714   -3.0271    0.0000 C   0  0  0  0  0  0  0  0  0  0  0  0
    7.7200   -6.6440    0.0000 C   0  0  0  0  0  0  0  0  0  0  0  0
    3.4030    7.8533    0.0000 C   0  0  0  0  0  0  0  0  0  0  0  0
   13.7383   -7.6673    0.0000 C   0  0  0  0  0  0  0  0  0  0  0  0
   19.3444   -3.4754    0.0000 C   0  0  0  0  0  0  0  0  0  0  0  0
   11.2863    4.5085    0.0000 H   0  0  0  0  0  0  0  0  0  0  0  0
   10.7897    5.8311    0.0000 H   0  0  0  0  0  0  0  0  0  0  0  0
   10.9608    5.0195    0.0000 H   0  0  0  0  0  0  0  0  0  0  0  0
   11.8600    7.0346    0.0000 H   0  0  0  0  0  0  0  0  0  0  0  0
   11.1417    6.6199    0.0000 H   0  0  0  0  0  0  0  0  0  0  0  0
   13.3365    6.3911    0.0000 H   0  0  0  0  0  0  0  0  0  0  0  0
   12.7191    6.9451    0.0000 H   0  0  0  0  0  0  0  0  0  0  0  0
   14.8567    3.5486    0.0000 H   0  0  0  0  0  0  0  0  0  0  0  0
   15.9849    4.4406    0.0000 H   0  0  0  0  0  0  0  0  0  0  0  0
   15.2465    4.7406    0.0000 H   0  0  0  0  0  0  0  0  0  0  0  0
   11.1972    2.7333    0.0000 H   0  0  0  0  0  0  0  0  0  0  0  0
   10.8681    4.1633    0.0000 H   0  0  0  0  0  0  0  0  0  0  0  0
   15.5030    3.0714    0.0000 H   0  0  0  0  0  0  0  0  0  0  0  0
   16.2414    2.7713    0.0000 H   0  0  0  0  0  0  0  0  0  0  0  0
   14.6260    2.6091    0.0000 H   0  0  0  0  0  0  0  0  0  0  0  0
   10.9417    4.7456    0.0000 H   0  0  0  0  0  0  0  0  0  0  0  0
   10.5432    5.4359    0.0000 H   0  0  0  0  0  0  0  0  0  0  0  0
   17.5896    3.7886    0.0000 H   0  0  0  0  0  0  0  0  0  0  0  0
   16.8511    4.0886    0.0000 H   0  0  0  0  0  0  0  0  0  0  0  0
   12.5223    1.3355    0.0000 H   0  0  0  0  0  0  0  0  0  0  0  0
    8.8546    5.4609    0.0000 H   0  0  0  0  0  0  0  0  0  0  0  0
    9.2531    4.7707    0.0000 H   0  0  0  0  0  0  0  0  0  0  0  0
   12.7805    0.8430    0.0000 H   0  0  0  0  0  0  0  0  0  0  0  0
   13.5168    0.5380    0.0000 H   0  0  0  0  0  0  0  0  0  0  0  0
   17.1077    2.4194    0.0000 H   0  0  0  0  0  0  0  0  0  0  0  0
   17.8461    2.1193    0.0000 H   0  0  0  0  0  0  0  0  0  0  0  0
   14.8718    1.5461    0.0000 H   0  0  0  0  0  0  0  0  0  0  0  0
   14.1354    1.8511    0.0000 H   0  0  0  0  0  0  0  0  0  0  0  0
   11.3173    2.1022    0.0000 H   0  0  0  0  0  0  0  0  0  0  0  0
    8.5991    4.4733    0.0000 H   0  0  0  0  0  0  0  0  0  0  0  0
   10.0757    6.2456    0.0000 H   0  0  0  0  0  0  0  0  0  0  0  0
    9.6772    6.9359    0.0000 H   0  0  0  0  0  0  0  0  0  0  0  0
    7.7331    3.9733    0.0000 H   0  0  0  0  0  0  0  0  0  0  0  0
   14.3807    0.1802    0.0000 H   0  0  0  0  0  0  0  0  0  0  0  0
   15.1170   -0.1249    0.0000 H   0  0  0  0  0  0  0  0  0  0  0  0
    9.9321    0.2786    0.0000 H   0  0  0  0  0  0  0  0  0  0  0  0
   19.0269    2.3572    0.0000 H   0  0  0  0  0  0  0  0  0  0  0  0
   18.8796    3.4210    0.0000 H   0  0  0  0  0  0  0  0  0  0  0  0
    7.1225    2.4609    0.0000 H   0  0  0  0  0  0  0  0  0  0  0  0
    7.5210    1.7707    0.0000 H   0  0  0  0  0  0  0  0  0  0  0  0
   16.4720    0.8832    0.0000 H   0  0  0  0  0  0  0  0  0  0  0  0
   15.7356    1.1883    0.0000 H   0  0  0  0  0  0  0  0  0  0  0  0
   10.3317    1.5018    0.0000 H   0  0  0  0  0  0  0  0  0  0  0  0
    9.5618    1.7081    0.0000 H   0  0  0  0  0  0  0  0  0  0  0  0
    9.6733   -0.6873    0.0000 H   0  0  0  0  0  0  0  0  0  0  0  0
    6.0010    2.7333    0.0000 H   0  0  0  0  0  0  0  0  0  0  0  0
    5.6720    4.1633    0.0000 H   0  0  0  0  0  0  0  0  0  0  0  0
   10.5600   -2.7988    0.0000 H   0  0  0  0  0  0  0  0  0  0  0  0
   17.1455   -0.1155    0.0000 H   0  0  0  0  0  0  0  0  0  0  0  0
   16.2935   -0.7692    0.0000 H   0  0  0  0  0  0  0  0  0  0  0  0
    5.7456    4.7456    0.0000 H   0  0  0  0  0  0  0  0  0  0  0  0
    5.3471    5.4359    0.0000 H   0  0  0  0  0  0  0  0  0  0  0  0
    9.7005   -1.8411    0.0000 H   0  0  0  0  0  0  0  0  0  0  0  0
    9.1369   -2.4047    0.0000 H   0  0  0  0  0  0  0  0  0  0  0  0
   11.2671   -3.5059    0.0000 H   0  0  0  0  0  0  0  0  0  0  0  0
   13.2610   -2.7564    0.0000 H   0  0  0  0  0  0  0  0  0  0  0  0
    3.6584    5.4609    0.0000 H   0  0  0  0  0  0  0  0  0  0  0  0
    4.0569    4.7707    0.0000 H   0  0  0  0  0  0  0  0  0  0  0  0
   12.2798   -4.0592    0.0000 H   0  0  0  0  0  0  0  0  0  0  0  0
   12.4861   -4.8291    0.0000 H   0  0  0  0  0  0  0  0  0  0  0  0
    7.7331    8.9733    0.0000 H   0  0  0  0  0  0  0  0  0  0  0  0
    7.1962    8.0433    0.0000 H   0  0  0  0  0  0  0  0  0  0  0  0
    9.4651    8.9733    0.0000 H   0  0  0  0  0  0  0  0  0  0  0  0
   10.0021    8.0433    0.0000 H   0  0  0  0  0  0  0  0  0  0  0  0
   14.2270   -2.4976    0.0000 H   0  0  0  0  0  0  0  0  0  0  0  0
   14.1108   -5.2904    0.0000 H   0  0  0  0  0  0  0  0  0  0  0  0
   13.9045   -4.5205    0.0000 H   0  0  0  0  0  0  0  0  0  0  0  0
    4.8796    6.2456    0.0000 H   0  0  0  0  0  0  0  0  0  0  0  0
    4.4810    6.9359    0.0000 H   0  0  0  0  0  0  0  0  0  0  0  0
    8.0914   -3.2451    0.0000 H   0  0  0  0  0  0  0  0  0  0  0  0
   10.8017   -3.9713    0.0000 H   0  0  0  0  0  0  0  0  0  0  0  0
   16.3384   -3.3843    0.0000 H   0  0  0  0  0  0  0  0  0  0  0  0
   10.3824   -5.5361    0.0000 H   0  0  0  0  0  0  0  0  0  0  0  0
   12.7281   -5.7322    0.0000 H   0  0  0  0  0  0  0  0  0  0  0  0
   12.9344   -6.5021    0.0000 H   0  0  0  0  0  0  0  0  0  0  0  0
   15.9443   -1.9612    0.0000 H   0  0  0  0  0  0  0  0  0  0  0  0
   15.3807   -2.5248    0.0000 H   0  0  0  0  0  0  0  0  0  0  0  0
    2.8660    3.5433    0.0000 H   0  0  0  0  0  0  0  0  0  0  0  0
   17.4722   -1.9644    0.0000 H   0  0  0  0  0  0  0  0  0  0  0  0
   16.7023   -1.7581    0.0000 H   0  0  0  0  0  0  0  0  0  0  0  0
    6.8275   -4.4600    0.0000 H   0  0  0  0  0  0  0  0  0  0  0  0
    9.1674   -6.8000    0.0000 H   0  0  0  0  0  0  0  0  0  0  0  0
   17.0455   -4.0914    0.0000 H   0  0  0  0  0  0  0  0  0  0  0  0
   16.2862   -4.8508    0.0000 H   0  0  0  0  0  0  0  0  0  0  0  0
    6.3839   -6.0656    0.0000 H   0  0  0  0  0  0  0  0  0  0  0  0
   17.1635   -3.3828    0.0000 H   0  0  0  0  0  0  0  0  0  0  0  0
   17.9334   -3.5890    0.0000 H   0  0  0  0  0  0  0  0  0  0  0  0
    7.5618   -7.2435    0.0000 H   0  0  0  0  0  0  0  0  0  0  0  0
    2.5369    8.9733    0.0000 H   0  0  0  0  0  0  0  0  0  0  0  0
    2.0000    8.0433    0.0000 H   0  0  0  0  0  0  0  0  0  0  0  0
    4.2690    8.9733    0.0000 H   0  0  0  0  0  0  0  0  0  0  0  0
    4.8059    8.0433    0.0000 H   0  0  0  0  0  0  0  0  0  0  0  0
   14.2850   -8.9733    0.0000 H   0  0  0  0  0  0  0  0  0  0  0  0
   15.0443   -8.2139    0.0000 H   0  0  0  0  0  0  0  0  0  0  0  0
   12.6119   -8.5250    0.0000 H   0  0  0  0  0  0  0  0  0  0  0  0
   12.3340   -7.4877    0.0000 H   0  0  0  0  0  0  0  0  0  0  0  0
   20.7487   -3.6550    0.0000 H   0  0  0  0  0  0  0  0  0  0  0  0
   20.4708   -2.6177    0.0000 H   0  0  0  0  0  0  0  0  0  0  0  0
   19.5240   -4.8797    0.0000 H   0  0  0  0  0  0  0  0  0  0  0  0
   18.4867   -4.6018    0.0000 H   0  0  0  0  0  0  0  0  0  0  0  0
  1  2  1  0  0  0  0
  1 62  1  0  0  0  0
  2 65  1  0  0  0  0
  3 42  2  0  0  0  0
  4 44  2  0  0  0  0
  5 50  2  0  0  0  0
  6 52  2  0  0  0  0
  7 60  2  0  0  0  0
  8 63  2  0  0  0  0
  9 68  2  0  0  0  0
 10 74  1  0  0  0  0
 10175  1  0  0  0  0
 11 74  2  0  0  0  0
 12 76  2  0  0  0  0
 13 84  2  0  0  0  0
 14 38  1  0  0  0  0
 14 41  1  0  0  0  0
 14 42  1  0  0  0  0
 15 44  1  0  0  0  0
 15 46  1  0  0  0  0
 15108  1  0  0  0  0
 16 43  1  0  0  0  0
 16 50  1  0  0  0  0
 16112  1  0  0  0  0
 17 51  1  0  0  0  0
 17 60  1  0  0  0  0
 17126  1  0  0  0  0
 18 52  1  0  0  0  0
 18 58  1  0  0  0  0
 18127  1  0  0  0  0
 19 55  1  0  0  0  0
 19134  1  0  0  0  0
 19135  1  0  0  0  0
 20 57  1  0  0  0  0
 20 69  2  0  0  0  0
 61 21  1  1  0  0  0
 21 68  1  0  0  0  0
 21142  1  0  0  0  0
 22 63  1  0  0  0  0
 66 22  1  6  0  0  0
 22143  1  0  0  0  0
 23 64  1  0  0  0  0
 23146  1  0  0  0  0
 23147  1  0  0  0  0
 67 24  1  1  0  0  0
 24 76  1  0  0  0  0
 24152  1  0  0  0  0
 25 69  1  0  0  0  0
 25158  1  0  0  0  0
 25159  1  0  0  0  0
 26 69  1  0  0  0  0
 26160  1  0  0  0  0
 26161  1  0  0  0  0
 72 27  1  1  0  0  0
 27 84  1  0  0  0  0
 27162  1  0  0  0  0
 28 78  1  0  0  0  0
 28 95  2  0  0  0  0
 83 29  1  6  0  0  0
 29180  1  0  0  0  0
 29181  1  0  0  0  0
 30 87  1  0  0  0  0
 30 96  2  0  0  0  0
 31 93  1  0  0  0  0
 31 97  2  0  0  0  0
 32 95  1  0  0  0  0
 32186  1  0  0  0  0
 32187  1  0  0  0  0
 33 95  1  0  0  0  0
 33188  1  0  0  0  0
 33189  1  0  0  0  0
 34 96  1  0  0  0  0
 34190  1  0  0  0  0
 34191  1  0  0  0  0
 35 96  1  0  0  0  0
 35192  1  0  0  0  0
 35193  1  0  0  0  0
 36 97  1  0  0  0  0
 36194  1  0  0  0  0
 36195  1  0  0  0  0
 37 97  1  0  0  0  0
 37196  1  0  0  0  0
 37197  1  0  0  0  0
 38 39  1  0  0  0  0
 38 44  1  0  0  0  0
 38 98  1  1  0  0  0
 39 40  1  0  0  0  0
 39 99  1  0  0  0  0
 39100  1  0  0  0  0
 40 41  1  0  0  0  0
 40101  1  0  0  0  0
 40102  1  0  0  0  0
 41103  1  0  0  0  0
 41104  1  0  0  0  0
 42 43  1  0  0  0  0
 43 45  1  1  0  0  0
 43105  1  0  0  0  0
 45 47  1  0  0  0  0
 45106  1  0  0  0  0
 45107  1  0  0  0  0
 46 48  1  6  0  0  0
 46 52  1  0  0  0  0
 46109  1  0  0  0  0
 47 49  1  0  0  0  0
 47110  1  0  0  0  0
 47111  1  0  0  0  0
 48 53  1  0  0  0  0
 48113  1  0  0  0  0
 48114  1  0  0  0  0
 49 55  1  0  0  0  0
 49115  1  0  0  0  0
 49116  1  0  0  0  0
 50 51  1  0  0  0  0
 51 54  1  6  0  0  0
 51117  1  0  0  0  0
 53 57  1  0  0  0  0
 53118  1  0  0  0  0
 53119  1  0  0  0  0
 54 56  1  0  0  0  0
 54120  1  0  0  0  0
 54121  1  0  0  0  0
 55122  1  0  0  0  0
 55123  1  0  0  0  0
 56 59  1  0  0  0  0
 56124  1  0  0  0  0
 56125  1  0  0  0  0
 57128  1  0  0  0  0
 57129  1  0  0  0  0
 58 62  1  0  0  0  0
 58 63  1  1  0  0  0
 58130  1  0  0  0  0
 59 64  1  0  0  0  0
 59131  1  0  0  0  0
 59132  1  0  0  0  0
 60 61  1  0  0  0  0
 61 65  1  0  0  0  0
 61133  1  0  0  0  0
 62136  1  0  0  0  0
 62137  1  0  0  0  0
 64138  1  0  0  0  0
 64139  1  0  0  0  0
 65140  1  0  0  0  0
 65141  1  0  0  0  0
 66 70  1  0  0  0  0
 66 74  1  0  0  0  0
 66144  1  0  0  0  0
 67 68  1  0  0  0  0
 67 71  1  0  0  0  0
 67145  1  0  0  0  0
 70 73  1  0  0  0  0
 70148  1  0  0  0  0
 70149  1  0  0  0  0
 71 75  1  0  0  0  0
 71150  1  0  0  0  0
 71151  1  0  0  0  0
 72 76  1  0  0  0  0
 72 77  1  0  0  0  0
 72153  1  0  0  0  0
 73 78  1  0  0  0  0
 73154  1  0  0  0  0
 73155  1  0  0  0  0
 75 80  2  0  0  0  0
 75 81  1  0  0  0  0
 77 79  1  0  0  0  0
 77156  1  0  0  0  0
 77157  1  0  0  0  0
 78165  1  0  0  0  0
 78166  1  0  0  0  0
 79 87  1  0  0  0  0
 79163  1  0  0  0  0
 79164  1  0  0  0  0
 80 82  1  0  0  0  0
 80167  1  0  0  0  0
 81 86  2  0  0  0  0
 81168  1  0  0  0  0
 82 85  1  0  0  0  0
 82 90  2  0  0  0  0
 83 84  1  0  0  0  0
 83 88  1  0  0  0  0
 83169  1  0  0  0  0
 85 86  1  0  0  0  0
 85 91  2  0  0  0  0
 86170  1  0  0  0  0
 87171  1  0  0  0  0
 87172  1  0  0  0  0
 88 89  1  0  0  0  0
 88173  1  0  0  0  0
 88174  1  0  0  0  0
 89 93  1  0  0  0  0
 89176  1  0  0  0  0
 89177  1  0  0  0  0
 90 92  1  0  0  0  0
 90178  1  0  0  0  0
 91 94  1  0  0  0  0
 91179  1  0  0  0  0
 92 94  2  0  0  0  0
 92182  1  0  0  0  0
 93183  1  0  0  0  0
 93184  1  0  0  0  0
 94185  1  0  0  0  0
M  END
> <PUBCHEM_COMPOUND_CID>
511252
> <PUBCHEM_COMPOUND_CANONICALIZED>
1
> <PUBCHEM_CACTVS_COMPLEXITY>
2700
> <PUBCHEM_CACTVS_HBOND_ACCEPTOR>
20
> <PUBCHEM_CACTVS_HBOND_DONOR>
20
> <PUBCHEM_CACTVS_ROTATABLE_BOND>
35
> <PUBCHEM_CACTVS_SUBSKEYS>
AAADcfB//ABgAAAAAAAAAAAAAAAAAWAAAAAwYAAAAAAAAADBUAAAHgQQCAAADCjF2ASxCMPAAgCoAiHSPAACAAEgAAAIiIGIAIgKYDKAkTGUYAAklgCYiAeYmcCOwAACAAAQAACAAAQAACAAAAAAAAAAAA==
> <PUBCHEM_IUPAC_OPENEYE_NAME>
(2S)-2-[[(3R,6S,9R,14R,17S,20S)-3,6-bis(4-aminobutyl)-9-[[(2S)-2-[[(2S)-2-[[(2S)-2-amino-5-guanidino-pentanoyl]amino]-5-guanidino-pentanoyl]amino]-3-(2-naphthyl)propanoyl]amino]-17-(3-guanidinopropyl)-2,5,8,16,19-pentaoxo-11,12-dithia-1,4,7,15,18-pentazabicyclo[18.3.0]tricosane-14-carbonyl]amino]-5-guanidino-pentanoic acid
> <PUBCHEM_IUPAC_CAS_NAME>
(2S)-2-[[[(3R,6S,9R,14R,17S,20S)-3,6-bis(4-aminobutyl)-9-[[(2S)-2-[[(2S)-2-[[(2S)-2-amino-5-(diaminomethylideneamino)-1-oxopentyl]amino]-5-(diaminomethylideneamino)-1-oxopentyl]amino]-3-(2-naphthalenyl)-1-oxopropyl]amino]-17-[3-(diaminomethylideneamino)propyl]-2,5,8,16,19-pentaoxo-11,12-dithia-1,4,7,15,18-pentazabicyclo[18.3.0]tricosan-14-yl]-oxomethyl]amino]-5-(diaminomethylideneamino)pentanoic acid
> <PUBCHEM_IUPAC_NAME_MARKUP>
(2<I>S</I>)-2-[[(3<I>R</I>,6<I>S</I>,9<I>R</I>,14<I>R</I>,17<I>S</I>,20<I>S</I>)-3,6-bis(4-aminobutyl)-9-[[(2<I>S</I>)-2-[[(2<I>S</I>)-2-[[(2<I>S</I>)-2-amino-5-(diaminomethylideneamino)pentanoyl]amino]-5-(diaminomethylideneamino)pentanoyl]amino]-3-naphthalen-2-ylpropanoyl]amino]-17-[3-(diaminomethylideneamino)propyl]-2,5,8,16,19-pentaoxo-11,12-dithia-1,4,7,15,18-pentazabicyclo[18.3.0]tricosane-14-carbonyl]amino]-5-(diaminomethylideneamino)pentanoic acid
> <PUBCHEM_IUPAC_NAME>
(2S)-2-[[(3R,6S,9R,14R,17S,20S)-3,6-bis(4-aminobutyl)-9-[[(2S)-2-[[(2S)-2-[[(2S)-2-amino-5-(diaminomethylideneamino)pentanoyl]amino]-5-(diaminomethylideneamino)pentanoyl]amino]-3-naphthalen-2-ylpropanoyl]amino]-17-[3-(diaminomethylideneamino)propyl]-2,5,8,16,19-pentaoxo-11,12-dithia-1,4,7,15,18-pentazabicyclo[18.3.0]tricosane-14-carbonyl]amino]-5-(diaminomethylideneamino)pentanoic acid
> <PUBCHEM_IUPAC_SYSTEMATIC_NAME>
(2S)-2-[[(3R,6S,9R,14R,17S,20S)-9-[[(2S)-2-[[(2S)-2-[[(2S)-2-azanyl-5-[bis(azanyl)methylideneamino]pentanoyl]amino]-5-[bis(azanyl)methylideneamino]pentanoyl]amino]-3-naphthalen-2-yl-propanoyl]amino]-3,6-bis(4-azanylbutyl)-17-[3-[bis(azanyl)methylideneamino]propyl]-2,5,8,16,19-pentakis(oxidanylidene)-11,12-dithia-1,4,7,15,18-pentazabicyclo[18.3.0]tricosan-14-yl]carbonylamino]-5-[bis(azanyl)methylideneamino]pentanoic acid
> <PUBCHEM_IUPAC_TRADITIONAL_NAME>
(2S)-2-[[(3R,6S,9R,14R,17S,20S)-3,6-bis(4-aminobutyl)-9-[[(2S)-2-[[(2S)-2-[[(2S)-2-amino-5-guanidino-pentanoyl]amino]-5-guanidino-pentanoyl]amino]-3-(2-naphthyl)propanoyl]amino]-17-(3-guanidinopropyl)-2,5,8,16,19-pentaketo-11,12-dithia-1,4,7,15,18-pentazabicyclo[18.3.0]tricosane-14-carbonyl]amino]-5-guanidino-valeric acid
> <PUBCHEM_IUPAC_INCHI>
InChI=1S/C60H100N24O11S2/c61-23-5-3-15-38-48(86)79-41(16-4-6-24-62)55(93)84-29-11-20-46(84)54(92)78-40(18-9-27-74-59(68)69)50(88)82-45(53(91)80-42(56(94)95)19-10-28-75-60(70)71)33-97-96-32-44(52(90)77-38)83-51(89)43(31-34-21-22-35-12-1-2-13-36(35)30-34)81-49(87)39(17-8-26-73-58(66)67)76-47(85)37(63)14-7-25-72-57(64)65/h1-2,12-13,21-22,30,37-46H,3-11,14-20,23-29,31-33,61-63H2,(H,76,85)(H,77,90)(H,78,92)(H,79,86)(H,80,91)(H,81,87)(H,82,88)(H,83,89)(H,94,95)(H4,64,65,72)(H4,66,67,73)(H4,68,69,74)(H4,70,71,75)/t37-,38-,39-,40-,41+,42-,43-,44-,45-,46-/m0/s1
> <PUBCHEM_IUPAC_INCHIKEY>
PLIGTFHMCVKUTP-CCMOKRMDSA-N
> <PUBCHEM_XLOGP3_AA>
-7.7
> <PUBCHEM_EXACT_MASS>
1396.74448245
> <PUBCHEM_MOLECULAR_FORMULA>
C60H100N24O11S2
> <PUBCHEM_MOLECULAR_WEIGHT>
1397.7
> <PUBCHEM_OPENEYE_CAN_SMILES>
C1CC2C(=O)NC(C(=O)NC(CSSCC(C(=O)NC(C(=O)NC(C(=O)N2C1)CCCCN)CCCCN)NC(=O)C(CC3=CC4=CC=CC=C4C=C3)NC(=O)C(CCCN=C(N)N)NC(=O)C(CCCN=C(N)N)N)C(=O)NC(CCCN=C(N)N)C(=O)O)CCCN=C(N)N
> <PUBCHEM_OPENEYE_ISO_SMILES>
C1C[C@H]2C(=O)N[C@H](C(=O)N[C@@H](CSSC[C@@H](C(=O)N[C@H](C(=O)N[C@@H](C(=O)N2C1)CCCCN)CCCCN)NC(=O)[C@H](CC3=CC4=CC=CC=C4C=C3)NC(=O)[C@H](CCCN=C(N)N)NC(=O)[C@H](CCCN=C(N)N)N)C(=O)N[C@@H](CCCN=C(N)N)C(=O)O)CCCN=C(N)N
> <PUBCHEM_CACTVS_TPSA>
677
> <PUBCHEM_MONOISOTOPIC_WEIGHT>
1396.74448245
> <PUBCHEM_TOTAL_CHARGE>
0
> <PUBCHEM_HEAVY_ATOM_COUNT>
97
> <PUBCHEM_ATOM_DEF_STEREO_COUNT>
10
> <PUBCHEM_ATOM_UDEF_STEREO_COUNT>
0
> <PUBCHEM_BOND_DEF_STEREO_COUNT>
0
> <PUBCHEM_BOND_UDEF_STEREO_COUNT>
0
> <PUBCHEM_ISOTOPIC_ATOM_COUNT>
0
> <PUBCHEM_COMPONENT_COUNT>
1
> <PUBCHEM_CACTVS_TAUTO_COUNT>
-1
> <PUBCHEM_COORDINATE_TYPE>
1
5
255
> <PUBCHEM_BONDANNOTATIONS>
61  21  5
66  22  6
67  24  5
72  27  5
83  29  6
38  98  5
43  45  5
46  48  6
51  54  6
58  63  5
75  80  8
75  81  8
80  82  8
81  86  8
82  85  8
82  90  8
85  86  8
85  91  8
90  92  8
91  94  8
92  94  8
$$$$
