511242
  -OEChem-10302200282D
 47 49  0     1  0  0  0  0  0999 V2000
    7.7469   -2.7694    0.0000 P   0  0  3  0  0  0  0  0  0  0  0  0
    5.8858   -0.3049    0.0000 O   0  0  0  0  0  0  0  0  0  0  0  0
    7.1591   -1.9604    0.0000 O   0  0  0  0  0  0  0  0  0  0  0  0
    6.8089    1.2829    0.0000 O   0  0  0  0  0  0  0  0  0  0  0  0
    8.3347   -3.5784    0.0000 O   0  0  0  0  0  0  0  0  0  0  0  0
    8.5559   -2.1816    0.0000 O   0  0  0  0  0  0  0  0  0  0  0  0
    5.0768    4.2829    0.0000 O   0  0  0  0  0  0  0  0  0  0  0  0
    6.9379   -3.3572    0.0000 O   0  0  0  0  0  0  0  0  0  0  0  0
    5.0768    1.2829    0.0000 N   0  0  0  0  0  0  0  0  0  0  0  0
    3.9890   -2.0649    0.0000 N   0  0  0  0  0  0  0  0  0  0  0  0
    5.9428    2.7829    0.0000 N   0  0  0  0  0  0  0  0  0  0  0  0
    2.9945   -1.9604    0.0000 N   0  3  0  0  0  0  0  0  0  0  0  0
    2.0000   -1.8559    0.0000 N   0  5  0  0  0  0  0  0  0  0  0  0
    4.5768   -1.2559    0.0000 C   0  0  2  0  0  0  0  0  0  0  0  0
    5.5768   -1.2559    0.0000 C   0  0  1  0  0  0  0  0  0  0  0  0
    4.2678   -0.3049    0.0000 C   0  0  0  0  0  0  0  0  0  0  0  0
    5.0768    0.2829    0.0000 C   0  0  1  0  0  0  0  0  0  0  0  0
    6.1646   -2.0649    0.0000 C   0  0  0  0  0  0  0  0  0  0  0  0
    4.2108    1.7829    0.0000 C   0  0  0  0  0  0  0  0  0  0  0  0
    5.9428    1.7829    0.0000 C   0  0  0  0  0  0  0  0  0  0  0  0
    4.2108    2.7829    0.0000 C   0  0  0  0  0  0  0  0  0  0  0  0
    5.0768    3.2829    0.0000 C   0  0  0  0  0  0  0  0  0  0  0  0
    3.3448    3.2829    0.0000 C   0  0  0  0  0  0  0  0  0  0  0  0
    9.3292   -3.4739    0.0000 C   0  0  0  0  0  0  0  0  0  0  0  0
    9.9170   -4.2829    0.0000 C   0  0  0  0  0  0  0  0  0  0  0  0
    9.7360   -2.5604    0.0000 C   0  0  0  0  0  0  0  0  0  0  0  0
   10.9115   -4.1784    0.0000 C   0  0  0  0  0  0  0  0  0  0  0  0
   10.7305   -2.4558    0.0000 C   0  0  0  0  0  0  0  0  0  0  0  0
   11.3183   -3.2648    0.0000 C   0  0  0  0  0  0  0  0  0  0  0  0
    3.9645   -1.1589    0.0000 H   0  0  0  0  0  0  0  0  0  0  0  0
    6.1892   -1.1589    0.0000 H   0  0  0  0  0  0  0  0  0  0  0  0
    3.9578    0.2321    0.0000 H   0  0  0  0  0  0  0  0  0  0  0  0
    3.7014   -0.5570    0.0000 H   0  0  0  0  0  0  0  0  0  0  0  0
    4.5244    0.5644    0.0000 H   0  0  0  0  0  0  0  0  0  0  0  0
    5.6074   -2.3367    0.0000 H   0  0  0  0  0  0  0  0  0  0  0  0
    6.3355   -2.6609    0.0000 H   0  0  0  0  0  0  0  0  0  0  0  0
    3.6739    1.4729    0.0000 H   0  0  0  0  0  0  0  0  0  0  0  0
    6.4798    3.0929    0.0000 H   0  0  0  0  0  0  0  0  0  0  0  0
    3.6548    3.8199    0.0000 H   0  0  0  0  0  0  0  0  0  0  0  0
    2.8078    3.5929    0.0000 H   0  0  0  0  0  0  0  0  0  0  0  0
    3.0348    2.7460    0.0000 H   0  0  0  0  0  0  0  0  0  0  0  0
    8.4911   -1.5650    0.0000 H   0  0  0  0  0  0  0  0  0  0  0  0
    9.6648   -4.8493    0.0000 H   0  0  0  0  0  0  0  0  0  0  0  0
    9.3715   -2.0588    0.0000 H   0  0  0  0  0  0  0  0  0  0  0  0
   11.2760   -4.6800    0.0000 H   0  0  0  0  0  0  0  0  0  0  0  0
   10.9827   -1.8894    0.0000 H   0  0  0  0  0  0  0  0  0  0  0  0
   11.9349   -3.2000    0.0000 H   0  0  0  0  0  0  0  0  0  0  0  0
  1  3  1  0  0  0  0
  1  5  1  0  0  0  0
  1  6  1  0  0  0  0
  1  8  2  0  0  0  0
  2 15  1  0  0  0  0
  2 17  1  0  0  0  0
  3 18  1  0  0  0  0
  4 20  2  0  0  0  0
  5 24  1  0  0  0  0
  6 42  1  0  0  0  0
  7 22  2  0  0  0  0
 17  9  1  6  0  0  0
  9 19  1  0  0  0  0
  9 20  1  0  0  0  0
 10 12  2  0  0  0  0
 14 10  1  1  0  0  0
 11 20  1  0  0  0  0
 11 22  1  0  0  0  0
 11 38  1  0  0  0  0
 12 13  2  0  0  0  0
 14 15  1  0  0  0  0
 14 16  1  0  0  0  0
 14 30  1  0  0  0  0
 15 18  1  6  0  0  0
 15 31  1  0  0  0  0
 16 17  1  0  0  0  0
 16 32  1  0  0  0  0
 16 33  1  0  0  0  0
 17 34  1  0  0  0  0
 18 35  1  0  0  0  0
 18 36  1  0  0  0  0
 19 21  2  0  0  0  0
 19 37  1  0  0  0  0
 21 22  1  0  0  0  0
 21 23  1  0  0  0  0
 23 39  1  0  0  0  0
 23 40  1  0  0  0  0
 23 41  1  0  0  0  0
 24 25  2  0  0  0  0
 24 26  1  0  0  0  0
 25 27  1  0  0  0  0
 25 43  1  0  0  0  0
 26 28  2  0  0  0  0
 26 44  1  0  0  0  0
 27 29  2  0  0  0  0
 27 45  1  0  0  0  0
 28 29  1  0  0  0  0
 28 46  1  0  0  0  0
 29 47  1  0  0  0  0
M  CHG  2  12   1  13  -1
M  END
> <PUBCHEM_COMPOUND_CID>
511242
> <PUBCHEM_COMPOUND_CANONICALIZED>
1
> <PUBCHEM_CACTVS_COMPLEXITY>
778
> <PUBCHEM_CACTVS_HBOND_ACCEPTOR>
9
> <PUBCHEM_CACTVS_HBOND_DONOR>
2
> <PUBCHEM_CACTVS_ROTATABLE_BOND>
7
> <PUBCHEM_CACTVS_SUBSKEYS>
AAADceB7uAIAAAAAAAAAAAAAAAAAASAAAAAwQAAAAAAAAAABAAAAHgAYCCAADDzhkAYzBoPABRCKQiFWUICCAAAgIAAIiAEOCMiLJiKA0RKPMAAuxzMKiMewcAIAAAAAAAAAAAAAAAAAAAAAAAAAAAAAAA==
> <PUBCHEM_IUPAC_OPENEYE_NAME>
[(2S,3S,5R)-3-azido-5-(5-methyl-2,4-dioxo-pyrimidin-1-yl)tetrahydrofuran-2-yl]methyl phenyl hydrogen phosphate
> <PUBCHEM_IUPAC_CAS_NAME>
[(2S,3S,5R)-3-azido-5-(5-methyl-2,4-dioxo-1-pyrimidinyl)-2-oxolanyl]methyl phenyl hydrogen phosphate
> <PUBCHEM_IUPAC_NAME_MARKUP>
[(2<I>S</I>,3<I>S</I>,5<I>R</I>)-3-azido-5-(5-methyl-2,4-dioxopyrimidin-1-yl)oxolan-2-yl]methyl phenyl hydrogen phosphate
> <PUBCHEM_IUPAC_NAME>
[(2S,3S,5R)-3-azido-5-(5-methyl-2,4-dioxopyrimidin-1-yl)oxolan-2-yl]methyl phenyl hydrogen phosphate
> <PUBCHEM_IUPAC_SYSTEMATIC_NAME>
[(2S,3S,5R)-3-azido-5-[5-methyl-2,4-bis(oxidanylidene)pyrimidin-1-yl]oxolan-2-yl]methyl phenyl hydrogen phosphate
> <PUBCHEM_IUPAC_TRADITIONAL_NAME>
[(2S,3S,5R)-3-azido-5-(2,4-diketo-5-methyl-pyrimidin-1-yl)tetrahydrofuran-2-yl]methyl phenyl hydrogen phosphate
> <PUBCHEM_IUPAC_INCHI>
InChI=1S/C16H18N5O7P/c1-10-8-21(16(23)18-15(10)22)14-7-12(19-20-17)13(27-14)9-26-29(24,25)28-11-5-3-2-4-6-11/h2-6,8,12-14H,7,9H2,1H3,(H,24,25)(H,18,22,23)/t12-,13+,14+/m0/s1
> <PUBCHEM_IUPAC_INCHIKEY>
QULORZHZPNWJSC-BFHYXJOUSA-N
> <PUBCHEM_XLOGP3>
1.3
> <PUBCHEM_EXACT_MASS>
423.09438493
> <PUBCHEM_MOLECULAR_FORMULA>
C16H18N5O7P
> <PUBCHEM_MOLECULAR_WEIGHT>
423.32
> <PUBCHEM_OPENEYE_CAN_SMILES>
CC1=CN(C(=O)NC1=O)C2CC(C(O2)COP(=O)(O)OC3=CC=CC=C3)N=[N+]=[N-]
> <PUBCHEM_OPENEYE_ISO_SMILES>
CC1=CN(C(=O)NC1=O)[C@H]2C[C@@H]([C@H](O2)COP(=O)(O)OC3=CC=CC=C3)N=[N+]=[N-]
> <PUBCHEM_CACTVS_TPSA>
129
> <PUBCHEM_MONOISOTOPIC_WEIGHT>
423.09438493
> <PUBCHEM_TOTAL_CHARGE>
0
> <PUBCHEM_HEAVY_ATOM_COUNT>
29
> <PUBCHEM_ATOM_DEF_STEREO_COUNT>
3
> <PUBCHEM_ATOM_UDEF_STEREO_COUNT>
0
> <PUBCHEM_BOND_DEF_STEREO_COUNT>
0
> <PUBCHEM_BOND_UDEF_STEREO_COUNT>
0
> <PUBCHEM_ISOTOPIC_ATOM_COUNT>
0
> <PUBCHEM_COMPONENT_COUNT>
1
> <PUBCHEM_CACTVS_TAUTO_COUNT>
-1
> <PUBCHEM_COORDINATE_TYPE>
1
5
255
> <PUBCHEM_BONDANNOTATIONS>
14  10  5
11  20  8
11  22  8
15  18  6
19  21  8
21  22  8
24  25  8
24  26  8
25  27  8
26  28  8
27  29  8
28  29  8
17  9  6
9  19  8
9  20  8
$$$$
