511274
  -OEChem-10302200282D
 42 43  0     1  0  0  0  0  0999 V2000
    2.3660    0.5207    0.0000 S   0  0  0  0  0  0  0  0  0  0  0  0
    3.6750    1.4718    0.0000 O   0  0  0  0  0  0  0  0  0  0  0  0
    3.5471   -1.2019    0.0000 O   0  0  0  0  0  0  0  0  0  0  0  0
    4.5981    3.0596    0.0000 O   0  0  0  0  0  0  0  0  0  0  0  0
    5.1294   -1.9064    0.0000 O   0  0  0  0  0  0  0  0  0  0  0  0
    2.8660    3.0596    0.0000 N   0  0  0  0  0  0  0  0  0  0  0  0
    3.7281   -2.9244    0.0000 N   0  0  0  0  0  0  0  0  0  0  0  0
    3.7320    4.5596    0.0000 N   0  0  0  0  0  0  0  0  0  0  0  0
    2.8660    6.0596    0.0000 N   0  0  0  0  0  0  0  0  0  0  0  0
    2.8660    2.0596    0.0000 C   0  0  2  0  0  0  0  0  0  0  0  0
    3.3660    0.5207    0.0000 C   0  0  1  0  0  0  0  0  0  0  0  0
    2.0570    1.4718    0.0000 C   0  0  0  0  0  0  0  0  0  0  0  0
    3.9538   -0.2883    0.0000 C   0  0  0  0  0  0  0  0  0  0  0  0
    2.0000    3.5596    0.0000 C   0  0  0  0  0  0  0  0  0  0  0  0
    3.7320    3.5596    0.0000 C   0  0  0  0  0  0  0  0  0  0  0  0
    3.9092   -4.6470    0.0000 C   0  0  0  0  0  0  0  0  0  0  0  0
    4.3159   -3.7334    0.0000 C   0  0  0  0  0  0  0  0  0  0  0  0
    4.4970   -5.4560    0.0000 C   0  0  0  0  0  0  0  0  0  0  0  0
    2.0000    4.5596    0.0000 C   0  0  0  0  0  0  0  0  0  0  0  0
    4.1349   -2.0109    0.0000 C   0  0  0  0  0  0  0  0  0  0  0  0
    2.8660    5.0596    0.0000 C   0  0  0  0  0  0  0  0  0  0  0  0
    4.0902   -6.3696    0.0000 C   0  0  0  0  0  0  0  0  0  0  0  0
    3.4184    2.3410    0.0000 H   0  0  0  0  0  0  0  0  0  0  0  0
    3.9784    0.6177    0.0000 H   0  0  0  0  0  0  0  0  0  0  0  0
    1.7470    2.0087    0.0000 H   0  0  0  0  0  0  0  0  0  0  0  0
    1.4906    1.2196    0.0000 H   0  0  0  0  0  0  0  0  0  0  0  0
    4.4678   -0.6350    0.0000 H   0  0  0  0  0  0  0  0  0  0  0  0
    4.3845    0.1577    0.0000 H   0  0  0  0  0  0  0  0  0  0  0  0
    1.4631    3.2496    0.0000 H   0  0  0  0  0  0  0  0  0  0  0  0
    3.3952   -4.3003    0.0000 H   0  0  0  0  0  0  0  0  0  0  0  0
    3.4785   -5.0930    0.0000 H   0  0  0  0  0  0  0  0  0  0  0  0
    4.8299   -4.0801    0.0000 H   0  0  0  0  0  0  0  0  0  0  0  0
    4.7466   -3.2874    0.0000 H   0  0  0  0  0  0  0  0  0  0  0  0
    5.0110   -5.8027    0.0000 H   0  0  0  0  0  0  0  0  0  0  0  0
    4.9276   -5.0100    0.0000 H   0  0  0  0  0  0  0  0  0  0  0  0
    1.4631    4.8696    0.0000 H   0  0  0  0  0  0  0  0  0  0  0  0
    3.1115   -2.9892    0.0000 H   0  0  0  0  0  0  0  0  0  0  0  0
    3.5238   -6.1174    0.0000 H   0  0  0  0  0  0  0  0  0  0  0  0
    3.8380   -6.9359    0.0000 H   0  0  0  0  0  0  0  0  0  0  0  0
    4.6566   -6.6217    0.0000 H   0  0  0  0  0  0  0  0  0  0  0  0
    2.3291    6.3696    0.0000 H   0  0  0  0  0  0  0  0  0  0  0  0
    3.4030    6.3696    0.0000 H   0  0  0  0  0  0  0  0  0  0  0  0
  1 11  1  0  0  0  0
  1 12  1  0  0  0  0
  2 10  1  0  0  0  0
  2 11  1  0  0  0  0
  3 13  1  0  0  0  0
  3 20  1  0  0  0  0
  4 15  2  0  0  0  0
  5 20  2  0  0  0  0
 10  6  1  1  0  0  0
  6 14  1  0  0  0  0
  6 15  1  0  0  0  0
  7 17  1  0  0  0  0
  7 20  1  0  0  0  0
  7 37  1  0  0  0  0
  8 15  1  0  0  0  0
  8 21  2  0  0  0  0
  9 21  1  0  0  0  0
  9 41  1  0  0  0  0
  9 42  1  0  0  0  0
 10 12  1  0  0  0  0
 10 23  1  0  0  0  0
 11 13  1  1  0  0  0
 11 24  1  0  0  0  0
 12 25  1  0  0  0  0
 12 26  1  0  0  0  0
 13 27  1  0  0  0  0
 13 28  1  0  0  0  0
 14 19  2  0  0  0  0
 14 29  1  0  0  0  0
 16 17  1  0  0  0  0
 16 18  1  0  0  0  0
 16 30  1  0  0  0  0
 16 31  1  0  0  0  0
 17 32  1  0  0  0  0
 17 33  1  0  0  0  0
 18 22  1  0  0  0  0
 18 34  1  0  0  0  0
 18 35  1  0  0  0  0
 19 21  1  0  0  0  0
 19 36  1  0  0  0  0
 22 38  1  0  0  0  0
 22 39  1  0  0  0  0
 22 40  1  0  0  0  0
M  END
> <PUBCHEM_COMPOUND_CID>
511274
> <PUBCHEM_COMPOUND_CANONICALIZED>
1
> <PUBCHEM_CACTVS_COMPLEXITY>
483
> <PUBCHEM_CACTVS_HBOND_ACCEPTOR>
5
> <PUBCHEM_CACTVS_HBOND_DONOR>
2
> <PUBCHEM_CACTVS_ROTATABLE_BOND>
7
> <PUBCHEM_CACTVS_SUBSKEYS>
AAADceBzuABAAAAAAAAAAAAAAAAAASAAAAAgAAAAAAAAAAAAAAAAHgQQAAAACADlwAaDCAPABAioACJmfACAAAEAAhAIAIAYABGBAAAAgAAOAAAAFgIiAAAAAAAAAAAAAAAAAAAAAAAAAAAAAAAAAAAAAA==
> <PUBCHEM_IUPAC_OPENEYE_NAME>
[(2R,5S)-5-(4-amino-2-oxo-pyrimidin-1-yl)-1,3-oxathiolan-2-yl]methyl N-butylcarbamate
> <PUBCHEM_IUPAC_CAS_NAME>
N-butylcarbamic acid [(2R,5S)-5-(4-amino-2-oxo-1-pyrimidinyl)-1,3-oxathiolan-2-yl]methyl ester
> <PUBCHEM_IUPAC_NAME_MARKUP>
[(2<I>R</I>,5<I>S</I>)-5-(4-amino-2-oxopyrimidin-1-yl)-1,3-oxathiolan-2-yl]methyl <I>N</I>-butylcarbamate
> <PUBCHEM_IUPAC_NAME>
[(2R,5S)-5-(4-amino-2-oxopyrimidin-1-yl)-1,3-oxathiolan-2-yl]methyl N-butylcarbamate
> <PUBCHEM_IUPAC_SYSTEMATIC_NAME>
[(2R,5S)-5-(4-azanyl-2-oxidanylidene-pyrimidin-1-yl)-1,3-oxathiolan-2-yl]methyl N-butylcarbamate
> <PUBCHEM_IUPAC_TRADITIONAL_NAME>
N-butylcarbamic acid [(2R,5S)-5-(4-amino-2-keto-pyrimidin-1-yl)-1,3-oxathiolan-2-yl]methyl ester
> <PUBCHEM_IUPAC_INCHI>
InChI=1S/C13H20N4O4S/c1-2-3-5-15-13(19)20-7-11-21-10(8-22-11)17-6-4-9(14)16-12(17)18/h4,6,10-11H,2-3,5,7-8H2,1H3,(H,15,19)(H2,14,16,18)/t10-,11+/m0/s1
> <PUBCHEM_IUPAC_INCHIKEY>
OWDZMPMGOBHFLH-WDEREUQCSA-N
> <PUBCHEM_XLOGP3>
0.7
> <PUBCHEM_EXACT_MASS>
328.12052631
> <PUBCHEM_MOLECULAR_FORMULA>
C13H20N4O4S
> <PUBCHEM_MOLECULAR_WEIGHT>
328.39
> <PUBCHEM_OPENEYE_CAN_SMILES>
CCCCNC(=O)OCC1OC(CS1)N2C=CC(=NC2=O)N
> <PUBCHEM_OPENEYE_ISO_SMILES>
CCCCNC(=O)OC[C@@H]1O[C@@H](CS1)N2C=CC(=NC2=O)N
> <PUBCHEM_CACTVS_TPSA>
132
> <PUBCHEM_MONOISOTOPIC_WEIGHT>
328.12052631
> <PUBCHEM_TOTAL_CHARGE>
0
> <PUBCHEM_HEAVY_ATOM_COUNT>
22
> <PUBCHEM_ATOM_DEF_STEREO_COUNT>
2
> <PUBCHEM_ATOM_UDEF_STEREO_COUNT>
0
> <PUBCHEM_BOND_DEF_STEREO_COUNT>
0
> <PUBCHEM_BOND_UDEF_STEREO_COUNT>
0
> <PUBCHEM_ISOTOPIC_ATOM_COUNT>
0
> <PUBCHEM_COMPONENT_COUNT>
1
> <PUBCHEM_CACTVS_TAUTO_COUNT>
-1
> <PUBCHEM_COORDINATE_TYPE>
1
5
255
> <PUBCHEM_BONDANNOTATIONS>
11  13  5
14  19  8
19  21  8
10  6  5
6  14  8
6  15  8
8  15  8
8  21  8
$$$$
