511227
  -OEChem-10302200282D
 52 53  0     1  0  0  0  0  0999 V2000
    5.0009   -0.3393    0.0000 P   0  0  3  0  0  0  0  0  0  0  0  0
    4.5411    3.1434    0.0000 O   0  0  0  0  0  0  0  0  0  0  0  0
    4.4131    0.4697    0.0000 O   0  0  0  0  0  0  0  0  0  0  0  0
    4.1919   -0.9271    0.0000 O   0  0  0  0  0  0  0  0  0  0  0  0
    5.8099    0.2485    0.0000 O   0  0  0  0  0  0  0  0  0  0  0  0
    5.4641    4.7311    0.0000 O   0  0  0  0  0  0  0  0  0  0  0  0
    3.7320    7.7311    0.0000 O   0  0  0  0  0  0  0  0  0  0  0  0
    5.7251   -7.2295    0.0000 O   0  0  0  0  0  0  0  0  0  0  0  0
    7.1263   -6.2115    0.0000 O   0  0  0  0  0  0  0  0  0  0  0  0
    3.7320    4.7311    0.0000 N   0  0  0  0  0  0  0  0  0  0  0  0
    5.5887   -1.1483    0.0000 N   0  0  0  0  0  0  0  0  0  0  0  0
    4.5981    6.2311    0.0000 N   0  0  0  0  0  0  0  0  0  0  0  0
    4.2320    2.1923    0.0000 C   0  0  2  0  0  0  0  0  0  0  0  0
    3.7320    3.7311    0.0000 C   0  0  1  0  0  0  0  0  0  0  0  0
    4.8198    1.3833    0.0000 C   0  0  0  0  0  0  0  0  0  0  0  0
    3.2320    2.1923    0.0000 C   0  0  0  0  0  0  0  0  0  0  0  0
    2.9230    3.1434    0.0000 C   0  0  0  0  0  0  0  0  0  0  0  0
    5.7697   -2.8709    0.0000 C   0  0  0  0  0  0  0  0  0  0  0  0
    5.3630   -3.7844    0.0000 C   0  0  0  0  0  0  0  0  0  0  0  0
    5.1819   -2.0619    0.0000 C   0  0  0  0  0  0  0  0  0  0  0  0
    5.9508   -4.5934    0.0000 C   0  0  0  0  0  0  0  0  0  0  0  0
    2.8660    5.2311    0.0000 C   0  0  0  0  0  0  0  0  0  0  0  0
    4.5981    5.2311    0.0000 C   0  0  0  0  0  0  0  0  0  0  0  0
    5.5440   -5.5070    0.0000 C   0  0  0  0  0  0  0  0  0  0  0  0
    2.8660    6.2311    0.0000 C   0  0  0  0  0  0  0  0  0  0  0  0
    3.7320    6.7311    0.0000 C   0  0  0  0  0  0  0  0  0  0  0  0
    2.0000    6.7311    0.0000 C   0  0  0  0  0  0  0  0  0  0  0  0
    6.1318   -6.3160    0.0000 C   0  0  0  0  0  0  0  0  0  0  0  0
    4.8444    2.2893    0.0000 H   0  0  0  0  0  0  0  0  0  0  0  0
    4.2845    4.0126    0.0000 H   0  0  0  0  0  0  0  0  0  0  0  0
    5.3338    1.0366    0.0000 H   0  0  0  0  0  0  0  0  0  0  0  0
    5.2505    1.8293    0.0000 H   0  0  0  0  0  0  0  0  0  0  0  0
    2.8676    1.6907    0.0000 H   0  0  0  0  0  0  0  0  0  0  0  0
    2.3334    3.3349    0.0000 H   0  0  0  0  0  0  0  0  0  0  0  0
    6.2837   -3.2176    0.0000 H   0  0  0  0  0  0  0  0  0  0  0  0
    6.2004   -2.4249    0.0000 H   0  0  0  0  0  0  0  0  0  0  0  0
    4.8490   -3.4377    0.0000 H   0  0  0  0  0  0  0  0  0  0  0  0
    4.9323   -4.2304    0.0000 H   0  0  0  0  0  0  0  0  0  0  0  0
    4.6679   -1.7152    0.0000 H   0  0  0  0  0  0  0  0  0  0  0  0
    4.7512   -2.5078    0.0000 H   0  0  0  0  0  0  0  0  0  0  0  0
    6.4648   -4.9401    0.0000 H   0  0  0  0  0  0  0  0  0  0  0  0
    6.3815   -4.1474    0.0000 H   0  0  0  0  0  0  0  0  0  0  0  0
    6.2053   -1.0835    0.0000 H   0  0  0  0  0  0  0  0  0  0  0  0
    2.3291    4.9211    0.0000 H   0  0  0  0  0  0  0  0  0  0  0  0
    5.0300   -5.1603    0.0000 H   0  0  0  0  0  0  0  0  0  0  0  0
    5.1133   -5.9530    0.0000 H   0  0  0  0  0  0  0  0  0  0  0  0
    5.1350    6.5411    0.0000 H   0  0  0  0  0  0  0  0  0  0  0  0
    2.3100    7.2681    0.0000 H   0  0  0  0  0  0  0  0  0  0  0  0
    1.4631    7.0411    0.0000 H   0  0  0  0  0  0  0  0  0  0  0  0
    1.6900    6.1942    0.0000 H   0  0  0  0  0  0  0  0  0  0  0  0
    3.6255   -0.6749    0.0000 H   0  0  0  0  0  0  0  0  0  0  0  0
    6.0895   -7.7311    0.0000 H   0  0  0  0  0  0  0  0  0  0  0  0
  1  3  1  0  0  0  0
  1  4  1  0  0  0  0
  1  5  2  0  0  0  0
  1 11  1  0  0  0  0
  2 13  1  0  0  0  0
  2 14  1  0  0  0  0
  3 15  1  0  0  0  0
  4 51  1  0  0  0  0
  6 23  2  0  0  0  0
  7 26  2  0  0  0  0
  8 28  1  0  0  0  0
  8 52  1  0  0  0  0
  9 28  2  0  0  0  0
 14 10  1  6  0  0  0
 10 22  1  0  0  0  0
 10 23  1  0  0  0  0
 11 20  1  0  0  0  0
 11 43  1  0  0  0  0
 12 23  1  0  0  0  0
 12 26  1  0  0  0  0
 12 47  1  0  0  0  0
 13 15  1  6  0  0  0
 13 16  1  0  0  0  0
 13 29  1  0  0  0  0
 14 17  1  0  0  0  0
 14 30  1  0  0  0  0
 15 31  1  0  0  0  0
 15 32  1  0  0  0  0
 16 17  2  0  0  0  0
 16 33  1  0  0  0  0
 17 34  1  0  0  0  0
 18 19  1  0  0  0  0
 18 20  1  0  0  0  0
 18 35  1  0  0  0  0
 18 36  1  0  0  0  0
 19 21  1  0  0  0  0
 19 37  1  0  0  0  0
 19 38  1  0  0  0  0
 20 39  1  0  0  0  0
 20 40  1  0  0  0  0
 21 24  1  0  0  0  0
 21 41  1  0  0  0  0
 21 42  1  0  0  0  0
 22 25  2  0  0  0  0
 22 44  1  0  0  0  0
 24 28  1  0  0  0  0
 24 45  1  0  0  0  0
 24 46  1  0  0  0  0
 25 26  1  0  0  0  0
 25 27  1  0  0  0  0
 27 48  1  0  0  0  0
 27 49  1  0  0  0  0
 27 50  1  0  0  0  0
M  END
> <PUBCHEM_COMPOUND_CID>
511227
> <PUBCHEM_COMPOUND_CANONICALIZED>
1
> <PUBCHEM_CACTVS_COMPLEXITY>
723
> <PUBCHEM_CACTVS_HBOND_ACCEPTOR>
9
> <PUBCHEM_CACTVS_HBOND_DONOR>
4
> <PUBCHEM_CACTVS_ROTATABLE_BOND>
11
> <PUBCHEM_CACTVS_SUBSKEYS>
AAADceB7PAIAAAAAAAAAAAAAAAAAAQAAAAAgAAAAAAAAAAAAAAAAHgAQiCAADBThgAYDCAPABxCIQiHWWICAAAAgAAAICIEIAEiBBBIAoQAOUAAMVyIKIMOYSAAAAAAAAAAAAAAAAAAAAAAAAAAAAAAAAA==
> <PUBCHEM_IUPAC_OPENEYE_NAME>
6-[[hydroxy-[[(2S,5R)-5-(5-methyl-2,4-dioxo-pyrimidin-1-yl)-2,5-dihydrofuran-2-yl]methoxy]phosphoryl]amino]hexanoic acid
> <PUBCHEM_IUPAC_CAS_NAME>
6-[[hydroxy-[[(2S,5R)-5-(5-methyl-2,4-dioxo-1-pyrimidinyl)-2,5-dihydrofuran-2-yl]methoxy]phosphoryl]amino]hexanoic acid
> <PUBCHEM_IUPAC_NAME_MARKUP>
6-[[hydroxy-[[(2<I>S</I>,5<I>R</I>)-5-(5-methyl-2,4-dioxopyrimidin-1-yl)-2,5-dihydrofuran-2-yl]methoxy]phosphoryl]amino]hexanoic acid
> <PUBCHEM_IUPAC_NAME>
6-[[hydroxy-[[(2S,5R)-5-(5-methyl-2,4-dioxopyrimidin-1-yl)-2,5-dihydrofuran-2-yl]methoxy]phosphoryl]amino]hexanoic acid
> <PUBCHEM_IUPAC_SYSTEMATIC_NAME>
6-[[[(2S,5R)-5-[5-methyl-2,4-bis(oxidanylidene)pyrimidin-1-yl]-2,5-dihydrofuran-2-yl]methoxy-oxidanyl-phosphoryl]amino]hexanoic acid
> <PUBCHEM_IUPAC_TRADITIONAL_NAME>
6-[[[(2S,5R)-5-(2,4-diketo-5-methyl-pyrimidin-1-yl)-2,5-dihydrofuran-2-yl]methoxy-hydroxy-phosphoryl]amino]hexanoic acid
> <PUBCHEM_IUPAC_INCHI>
InChI=1S/C16H24N3O8P/c1-11-9-19(16(23)18-15(11)22)13-7-6-12(27-13)10-26-28(24,25)17-8-4-2-3-5-14(20)21/h6-7,9,12-13H,2-5,8,10H2,1H3,(H,20,21)(H2,17,24,25)(H,18,22,23)/t12-,13+/m0/s1
> <PUBCHEM_IUPAC_INCHIKEY>
XNNYWKNOCJGDBS-QWHCGFSZSA-N
> <PUBCHEM_XLOGP3>
-1.1
> <PUBCHEM_EXACT_MASS>
417.13010173
> <PUBCHEM_MOLECULAR_FORMULA>
C16H24N3O8P
> <PUBCHEM_MOLECULAR_WEIGHT>
417.35
> <PUBCHEM_OPENEYE_CAN_SMILES>
CC1=CN(C(=O)NC1=O)C2C=CC(O2)COP(=O)(NCCCCCC(=O)O)O
> <PUBCHEM_OPENEYE_ISO_SMILES>
CC1=CN(C(=O)NC1=O)[C@H]2C=C[C@H](O2)COP(=O)(NCCCCCC(=O)O)O
> <PUBCHEM_CACTVS_TPSA>
155
> <PUBCHEM_MONOISOTOPIC_WEIGHT>
417.13010173
> <PUBCHEM_TOTAL_CHARGE>
0
> <PUBCHEM_HEAVY_ATOM_COUNT>
28
> <PUBCHEM_ATOM_DEF_STEREO_COUNT>
2
> <PUBCHEM_ATOM_UDEF_STEREO_COUNT>
0
> <PUBCHEM_BOND_DEF_STEREO_COUNT>
0
> <PUBCHEM_BOND_UDEF_STEREO_COUNT>
0
> <PUBCHEM_ISOTOPIC_ATOM_COUNT>
0
> <PUBCHEM_COMPONENT_COUNT>
1
> <PUBCHEM_CACTVS_TAUTO_COUNT>
-1
> <PUBCHEM_COORDINATE_TYPE>
1
5
255
> <PUBCHEM_BONDANNOTATIONS>
14  10  6
10  22  8
10  23  8
12  23  8
12  26  8
13  15  6
22  25  8
25  26  8
$$$$
