511271
  -OEChem-10302200282D
 40 41  0     1  0  0  0  0  0999 V2000
    2.3660    0.7715    0.0000 S   0  0  0  0  0  0  0  0  0  0  0  0
    3.6750    1.7226    0.0000 O   0  0  0  0  0  0  0  0  0  0  0  0
    3.5471   -0.9511    0.0000 O   0  0  0  0  0  0  0  0  0  0  0  0
    4.5981    3.3103    0.0000 O   0  0  0  0  0  0  0  0  0  0  0  0
    5.1294   -1.6556    0.0000 O   0  0  0  0  0  0  0  0  0  0  0  0
    4.0902   -6.1188    0.0000 O   0  0  0  0  0  0  0  0  0  0  0  0
    2.8660    3.3103    0.0000 N   0  0  0  0  0  0  0  0  0  0  0  0
    3.7320    4.8103    0.0000 N   0  0  0  0  0  0  0  0  0  0  0  0
    3.7281   -2.6736    0.0000 N   0  0  0  0  0  0  0  0  0  0  0  0
    2.8660    6.3103    0.0000 N   0  0  0  0  0  0  0  0  0  0  0  0
    2.8660    2.3103    0.0000 C   0  0  2  0  0  0  0  0  0  0  0  0
    3.3660    0.7715    0.0000 C   0  0  1  0  0  0  0  0  0  0  0  0
    2.0570    1.7226    0.0000 C   0  0  0  0  0  0  0  0  0  0  0  0
    3.9538   -0.0375    0.0000 C   0  0  0  0  0  0  0  0  0  0  0  0
    2.0000    3.8103    0.0000 C   0  0  0  0  0  0  0  0  0  0  0  0
    3.7320    3.8103    0.0000 C   0  0  0  0  0  0  0  0  0  0  0  0
    2.0000    4.8103    0.0000 C   0  0  0  0  0  0  0  0  0  0  0  0
    4.3159   -3.4826    0.0000 C   0  0  0  0  0  0  0  0  0  0  0  0
    2.8660    5.3103    0.0000 C   0  0  0  0  0  0  0  0  0  0  0  0
    3.9092   -4.3962    0.0000 C   0  0  0  0  0  0  0  0  0  0  0  0
    4.1349   -1.7601    0.0000 C   0  0  0  0  0  0  0  0  0  0  0  0
    4.4970   -5.2052    0.0000 C   0  0  0  0  0  0  0  0  0  0  0  0
    3.4184    2.5918    0.0000 H   0  0  0  0  0  0  0  0  0  0  0  0
    3.9784    0.8685    0.0000 H   0  0  0  0  0  0  0  0  0  0  0  0
    1.7470    2.2595    0.0000 H   0  0  0  0  0  0  0  0  0  0  0  0
    1.4906    1.4704    0.0000 H   0  0  0  0  0  0  0  0  0  0  0  0
    4.4678   -0.3842    0.0000 H   0  0  0  0  0  0  0  0  0  0  0  0
    4.3845    0.4085    0.0000 H   0  0  0  0  0  0  0  0  0  0  0  0
    1.4631    3.5003    0.0000 H   0  0  0  0  0  0  0  0  0  0  0  0
    1.4631    5.1203    0.0000 H   0  0  0  0  0  0  0  0  0  0  0  0
    4.8299   -3.8293    0.0000 H   0  0  0  0  0  0  0  0  0  0  0  0
    4.7466   -3.0366    0.0000 H   0  0  0  0  0  0  0  0  0  0  0  0
    3.3952   -4.0495    0.0000 H   0  0  0  0  0  0  0  0  0  0  0  0
    3.4785   -4.8422    0.0000 H   0  0  0  0  0  0  0  0  0  0  0  0
    3.1115   -2.7384    0.0000 H   0  0  0  0  0  0  0  0  0  0  0  0
    5.0110   -5.5519    0.0000 H   0  0  0  0  0  0  0  0  0  0  0  0
    4.9276   -4.7592    0.0000 H   0  0  0  0  0  0  0  0  0  0  0  0
    2.3291    6.6203    0.0000 H   0  0  0  0  0  0  0  0  0  0  0  0
    3.4030    6.6203    0.0000 H   0  0  0  0  0  0  0  0  0  0  0  0
    4.4546   -6.6203    0.0000 H   0  0  0  0  0  0  0  0  0  0  0  0
  1 12  1  0  0  0  0
  1 13  1  0  0  0  0
  2 11  1  0  0  0  0
  2 12  1  0  0  0  0
  3 14  1  0  0  0  0
  3 21  1  0  0  0  0
  4 16  2  0  0  0  0
  5 21  2  0  0  0  0
  6 22  1  0  0  0  0
  6 40  1  0  0  0  0
 11  7  1  1  0  0  0
  7 15  1  0  0  0  0
  7 16  1  0  0  0  0
  8 16  1  0  0  0  0
  8 19  2  0  0  0  0
  9 18  1  0  0  0  0
  9 21  1  0  0  0  0
  9 35  1  0  0  0  0
 10 19  1  0  0  0  0
 10 38  1  0  0  0  0
 10 39  1  0  0  0  0
 11 13  1  0  0  0  0
 11 23  1  0  0  0  0
 12 14  1  1  0  0  0
 12 24  1  0  0  0  0
 13 25  1  0  0  0  0
 13 26  1  0  0  0  0
 14 27  1  0  0  0  0
 14 28  1  0  0  0  0
 15 17  2  0  0  0  0
 15 29  1  0  0  0  0
 17 19  1  0  0  0  0
 17 30  1  0  0  0  0
 18 20  1  0  0  0  0
 18 31  1  0  0  0  0
 18 32  1  0  0  0  0
 20 22  1  0  0  0  0
 20 33  1  0  0  0  0
 20 34  1  0  0  0  0
 22 36  1  0  0  0  0
 22 37  1  0  0  0  0
M  END
> <PUBCHEM_COMPOUND_CID>
511271
> <PUBCHEM_COMPOUND_CANONICALIZED>
1
> <PUBCHEM_CACTVS_COMPLEXITY>
484
> <PUBCHEM_CACTVS_HBOND_ACCEPTOR>
6
> <PUBCHEM_CACTVS_HBOND_DONOR>
3
> <PUBCHEM_CACTVS_ROTATABLE_BOND>
7
> <PUBCHEM_CACTVS_SUBSKEYS>
AAADceBzuABAAAAAAAAAAAAAAAAAASAAAAAgAAAAAAAAAAAAAAAAHgQQCAAACADlwAaBCAPABgioACJmfACAAAEAAhAIAIAYABGBEAAAAAAOQAACFgIiAAAAAAAAAAAAAAAAAAAAAAAAAAAAAAAAAAAAAA==
> <PUBCHEM_IUPAC_OPENEYE_NAME>
[(2R,5S)-5-(4-amino-2-oxo-pyrimidin-1-yl)-1,3-oxathiolan-2-yl]methyl N-(3-hydroxypropyl)carbamate
> <PUBCHEM_IUPAC_CAS_NAME>
N-(3-hydroxypropyl)carbamic acid [(2R,5S)-5-(4-amino-2-oxo-1-pyrimidinyl)-1,3-oxathiolan-2-yl]methyl ester
> <PUBCHEM_IUPAC_NAME_MARKUP>
[(2<I>R</I>,5<I>S</I>)-5-(4-amino-2-oxopyrimidin-1-yl)-1,3-oxathiolan-2-yl]methyl <I>N</I>-(3-hydroxypropyl)carbamate
> <PUBCHEM_IUPAC_NAME>
[(2R,5S)-5-(4-amino-2-oxopyrimidin-1-yl)-1,3-oxathiolan-2-yl]methyl N-(3-hydroxypropyl)carbamate
> <PUBCHEM_IUPAC_SYSTEMATIC_NAME>
[(2R,5S)-5-(4-azanyl-2-oxidanylidene-pyrimidin-1-yl)-1,3-oxathiolan-2-yl]methyl N-(3-oxidanylpropyl)carbamate
> <PUBCHEM_IUPAC_TRADITIONAL_NAME>
N-(3-hydroxypropyl)carbamic acid [(2R,5S)-5-(4-amino-2-keto-pyrimidin-1-yl)-1,3-oxathiolan-2-yl]methyl ester
> <PUBCHEM_IUPAC_INCHI>
InChI=1S/C12H18N4O5S/c13-8-2-4-16(11(18)15-8)9-7-22-10(21-9)6-20-12(19)14-3-1-5-17/h2,4,9-10,17H,1,3,5-7H2,(H,14,19)(H2,13,15,18)/t9-,10+/m0/s1
> <PUBCHEM_IUPAC_INCHIKEY>
LIPAXXGVFLNFSX-VHSXEESVSA-N
> <PUBCHEM_XLOGP3>
-0.9
> <PUBCHEM_EXACT_MASS>
330.09979086
> <PUBCHEM_MOLECULAR_FORMULA>
C12H18N4O5S
> <PUBCHEM_MOLECULAR_WEIGHT>
330.36
> <PUBCHEM_OPENEYE_CAN_SMILES>
C1C(OC(S1)COC(=O)NCCCO)N2C=CC(=NC2=O)N
> <PUBCHEM_OPENEYE_ISO_SMILES>
C1[C@H](O[C@H](S1)COC(=O)NCCCO)N2C=CC(=NC2=O)N
> <PUBCHEM_CACTVS_TPSA>
152
> <PUBCHEM_MONOISOTOPIC_WEIGHT>
330.09979086
> <PUBCHEM_TOTAL_CHARGE>
0
> <PUBCHEM_HEAVY_ATOM_COUNT>
22
> <PUBCHEM_ATOM_DEF_STEREO_COUNT>
2
> <PUBCHEM_ATOM_UDEF_STEREO_COUNT>
0
> <PUBCHEM_BOND_DEF_STEREO_COUNT>
0
> <PUBCHEM_BOND_UDEF_STEREO_COUNT>
0
> <PUBCHEM_ISOTOPIC_ATOM_COUNT>
0
> <PUBCHEM_COMPONENT_COUNT>
1
> <PUBCHEM_CACTVS_TAUTO_COUNT>
-1
> <PUBCHEM_COORDINATE_TYPE>
1
5
255
> <PUBCHEM_BONDANNOTATIONS>
12  14  5
15  17  8
17  19  8
11  7  5
7  15  8
7  16  8
8  16  8
8  19  8
$$$$
