511276
  -OEChem-10302200282D
 50 51  0     1  0  0  0  0  0999 V2000
    2.3660    0.9775    0.0000 S   0  0  0  0  0  0  0  0  0  0  0  0
    3.9092   -4.1902    0.0000 P   0  0  0  0  0  0  0  0  0  0  0  0
    3.6750    1.9285    0.0000 O   0  0  0  0  0  0  0  0  0  0  0  0
    3.5471   -0.7451    0.0000 O   0  0  0  0  0  0  0  0  0  0  0  0
    3.5024   -5.1038    0.0000 O   0  0  0  0  0  0  0  0  0  0  0  0
    4.8227   -4.5970    0.0000 O   0  0  0  0  0  0  0  0  0  0  0  0
    4.5981    3.5163    0.0000 O   0  0  0  0  0  0  0  0  0  0  0  0
    2.9956   -3.7835    0.0000 O   0  0  0  0  0  0  0  0  0  0  0  0
    5.1294   -1.4496    0.0000 O   0  0  0  0  0  0  0  0  0  0  0  0
    2.8660    3.5163    0.0000 N   0  0  0  0  0  0  0  0  0  0  0  0
    3.7281   -2.4676    0.0000 N   0  0  0  0  0  0  0  0  0  0  0  0
    3.7320    5.0163    0.0000 N   0  0  0  0  0  0  0  0  0  0  0  0
    2.8660    6.5163    0.0000 N   0  0  0  0  0  0  0  0  0  0  0  0
    2.8660    2.5163    0.0000 C   0  0  2  0  0  0  0  0  0  0  0  0
    3.3660    0.9775    0.0000 C   0  0  1  0  0  0  0  0  0  0  0  0
    2.0570    1.9285    0.0000 C   0  0  0  0  0  0  0  0  0  0  0  0
    3.9538    0.1685    0.0000 C   0  0  0  0  0  0  0  0  0  0  0  0
    2.0000    4.0163    0.0000 C   0  0  0  0  0  0  0  0  0  0  0  0
    3.7320    4.0163    0.0000 C   0  0  0  0  0  0  0  0  0  0  0  0
    4.3159   -3.2767    0.0000 C   0  0  0  0  0  0  0  0  0  0  0  0
    2.0000    5.0163    0.0000 C   0  0  0  0  0  0  0  0  0  0  0  0
    4.1349   -1.5541    0.0000 C   0  0  0  0  0  0  0  0  0  0  0  0
    2.8660    5.5163    0.0000 C   0  0  0  0  0  0  0  0  0  0  0  0
    4.0902   -5.9128    0.0000 C   0  0  0  0  0  0  0  0  0  0  0  0
    5.6317   -4.0092    0.0000 C   0  0  0  0  0  0  0  0  0  0  0  0
    3.6835   -6.8263    0.0000 C   0  0  0  0  0  0  0  0  0  0  0  0
    6.5453   -4.4159    0.0000 C   0  0  0  0  0  0  0  0  0  0  0  0
    3.4184    2.7978    0.0000 H   0  0  0  0  0  0  0  0  0  0  0  0
    3.9784    1.0745    0.0000 H   0  0  0  0  0  0  0  0  0  0  0  0
    1.7470    2.4655    0.0000 H   0  0  0  0  0  0  0  0  0  0  0  0
    1.4906    1.6764    0.0000 H   0  0  0  0  0  0  0  0  0  0  0  0
    4.4678   -0.1782    0.0000 H   0  0  0  0  0  0  0  0  0  0  0  0
    4.3845    0.6145    0.0000 H   0  0  0  0  0  0  0  0  0  0  0  0
    1.4631    3.7063    0.0000 H   0  0  0  0  0  0  0  0  0  0  0  0
    4.8299   -3.6234    0.0000 H   0  0  0  0  0  0  0  0  0  0  0  0
    4.7466   -2.8307    0.0000 H   0  0  0  0  0  0  0  0  0  0  0  0
    1.4631    5.3263    0.0000 H   0  0  0  0  0  0  0  0  0  0  0  0
    3.1115   -2.5325    0.0000 H   0  0  0  0  0  0  0  0  0  0  0  0
    4.6042   -6.2595    0.0000 H   0  0  0  0  0  0  0  0  0  0  0  0
    4.5209   -5.4668    0.0000 H   0  0  0  0  0  0  0  0  0  0  0  0
    5.9784   -3.4952    0.0000 H   0  0  0  0  0  0  0  0  0  0  0  0
    5.1857   -3.5785    0.0000 H   0  0  0  0  0  0  0  0  0  0  0  0
    2.3291    6.8263    0.0000 H   0  0  0  0  0  0  0  0  0  0  0  0
    3.4030    6.8263    0.0000 H   0  0  0  0  0  0  0  0  0  0  0  0
    3.1171   -6.5741    0.0000 H   0  0  0  0  0  0  0  0  0  0  0  0
    3.4313   -7.3927    0.0000 H   0  0  0  0  0  0  0  0  0  0  0  0
    4.2499   -7.0785    0.0000 H   0  0  0  0  0  0  0  0  0  0  0  0
    6.2931   -4.9823    0.0000 H   0  0  0  0  0  0  0  0  0  0  0  0
    7.1117   -4.6681    0.0000 H   0  0  0  0  0  0  0  0  0  0  0  0
    6.7975   -3.8495    0.0000 H   0  0  0  0  0  0  0  0  0  0  0  0
  1 15  1  0  0  0  0
  1 16  1  0  0  0  0
  2  5  1  0  0  0  0
  2  6  1  0  0  0  0
  2  8  2  0  0  0  0
  2 20  1  0  0  0  0
  3 14  1  0  0  0  0
  3 15  1  0  0  0  0
  4 17  1  0  0  0  0
  4 22  1  0  0  0  0
  5 24  1  0  0  0  0
  6 25  1  0  0  0  0
  7 19  2  0  0  0  0
  9 22  2  0  0  0  0
 14 10  1  1  0  0  0
 10 18  1  0  0  0  0
 10 19  1  0  0  0  0
 11 20  1  0  0  0  0
 11 22  1  0  0  0  0
 11 38  1  0  0  0  0
 12 19  1  0  0  0  0
 12 23  2  0  0  0  0
 13 23  1  0  0  0  0
 13 43  1  0  0  0  0
 13 44  1  0  0  0  0
 14 16  1  0  0  0  0
 14 28  1  0  0  0  0
 15 17  1  1  0  0  0
 15 29  1  0  0  0  0
 16 30  1  0  0  0  0
 16 31  1  0  0  0  0
 17 32  1  0  0  0  0
 17 33  1  0  0  0  0
 18 21  2  0  0  0  0
 18 34  1  0  0  0  0
 20 35  1  0  0  0  0
 20 36  1  0  0  0  0
 21 23  1  0  0  0  0
 21 37  1  0  0  0  0
 24 26  1  0  0  0  0
 24 39  1  0  0  0  0
 24 40  1  0  0  0  0
 25 27  1  0  0  0  0
 25 41  1  0  0  0  0
 25 42  1  0  0  0  0
 26 45  1  0  0  0  0
 26 46  1  0  0  0  0
 26 47  1  0  0  0  0
 27 48  1  0  0  0  0
 27 49  1  0  0  0  0
 27 50  1  0  0  0  0
M  END
> <PUBCHEM_COMPOUND_CID>
511276
> <PUBCHEM_COMPOUND_CANONICALIZED>
1
> <PUBCHEM_CACTVS_COMPLEXITY>
649
> <PUBCHEM_CACTVS_HBOND_ACCEPTOR>
8
> <PUBCHEM_CACTVS_HBOND_DONOR>
2
> <PUBCHEM_CACTVS_ROTATABLE_BOND>
10
> <PUBCHEM_CACTVS_SUBSKEYS>
AAADceBzuAJAAAAAAAAAAAAAAAAAASAAAAAgAAAAAAAAAAAAAAAAHgwQACAACADlwAaDCAPABRioQCJmfICAAAEAAhAIAIAYABGBAAAAAAAKAAAAFgIiAAAAAAAAAAAAAAAAAAAAAAAAAAAAAAAAAAAAAA==
> <PUBCHEM_IUPAC_OPENEYE_NAME>
[(2R,5S)-5-(4-amino-2-oxo-pyrimidin-1-yl)-1,3-oxathiolan-2-yl]methyl N-(diethoxyphosphorylmethyl)carbamate
> <PUBCHEM_IUPAC_CAS_NAME>
N-(diethoxyphosphorylmethyl)carbamic acid [(2R,5S)-5-(4-amino-2-oxo-1-pyrimidinyl)-1,3-oxathiolan-2-yl]methyl ester
> <PUBCHEM_IUPAC_NAME_MARKUP>
[(2<I>R</I>,5<I>S</I>)-5-(4-amino-2-oxopyrimidin-1-yl)-1,3-oxathiolan-2-yl]methyl <I>N</I>-(diethoxyphosphorylmethyl)carbamate
> <PUBCHEM_IUPAC_NAME>
[(2R,5S)-5-(4-amino-2-oxopyrimidin-1-yl)-1,3-oxathiolan-2-yl]methyl N-(diethoxyphosphorylmethyl)carbamate
> <PUBCHEM_IUPAC_SYSTEMATIC_NAME>
[(2R,5S)-5-(4-azanyl-2-oxidanylidene-pyrimidin-1-yl)-1,3-oxathiolan-2-yl]methyl N-(diethoxyphosphorylmethyl)carbamate
> <PUBCHEM_IUPAC_TRADITIONAL_NAME>
N-(diethoxyphosphorylmethyl)carbamic acid [(2R,5S)-5-(4-amino-2-keto-pyrimidin-1-yl)-1,3-oxathiolan-2-yl]methyl ester
> <PUBCHEM_IUPAC_INCHI>
InChI=1S/C14H23N4O7PS/c1-3-23-26(21,24-4-2)9-16-14(20)22-7-12-25-11(8-27-12)18-6-5-10(15)17-13(18)19/h5-6,11-12H,3-4,7-9H2,1-2H3,(H,16,20)(H2,15,17,19)/t11-,12+/m0/s1
> <PUBCHEM_IUPAC_INCHIKEY>
KBLPRUQULMKWSJ-NWDGAFQWSA-N
> <PUBCHEM_XLOGP3>
-0.4
> <PUBCHEM_EXACT_MASS>
422.10250726
> <PUBCHEM_MOLECULAR_FORMULA>
C14H23N4O7PS
> <PUBCHEM_MOLECULAR_WEIGHT>
422.40
> <PUBCHEM_OPENEYE_CAN_SMILES>
CCOP(=O)(CNC(=O)OCC1OC(CS1)N2C=CC(=NC2=O)N)OCC
> <PUBCHEM_OPENEYE_ISO_SMILES>
CCOP(=O)(CNC(=O)OC[C@@H]1O[C@@H](CS1)N2C=CC(=NC2=O)N)OCC
> <PUBCHEM_CACTVS_TPSA>
167
> <PUBCHEM_MONOISOTOPIC_WEIGHT>
422.10250726
> <PUBCHEM_TOTAL_CHARGE>
0
> <PUBCHEM_HEAVY_ATOM_COUNT>
27
> <PUBCHEM_ATOM_DEF_STEREO_COUNT>
2
> <PUBCHEM_ATOM_UDEF_STEREO_COUNT>
0
> <PUBCHEM_BOND_DEF_STEREO_COUNT>
0
> <PUBCHEM_BOND_UDEF_STEREO_COUNT>
0
> <PUBCHEM_ISOTOPIC_ATOM_COUNT>
0
> <PUBCHEM_COMPONENT_COUNT>
1
> <PUBCHEM_CACTVS_TAUTO_COUNT>
-1
> <PUBCHEM_COORDINATE_TYPE>
1
5
255
> <PUBCHEM_BONDANNOTATIONS>
14  10  5
10  18  8
10  19  8
12  19  8
12  23  8
15  17  5
18  21  8
21  23  8
$$$$
