511272
  -OEChem-10302200282D
 43 44  0     1  0  0  0  0  0999 V2000
    2.3660    1.2084    0.0000 S   0  0  0  0  0  0  0  0  0  0  0  0
    3.6750    2.1595    0.0000 O   0  0  0  0  0  0  0  0  0  0  0  0
    3.5471   -0.5142    0.0000 O   0  0  0  0  0  0  0  0  0  0  0  0
    4.5981    3.7472    0.0000 O   0  0  0  0  0  0  0  0  0  0  0  0
    4.6780   -6.4909    0.0000 O   0  0  0  0  0  0  0  0  0  0  0  0
    5.1294   -1.2186    0.0000 O   0  0  0  0  0  0  0  0  0  0  0  0
    2.8660    3.7472    0.0000 N   0  0  0  0  0  0  0  0  0  0  0  0
    3.7281   -2.2367    0.0000 N   0  0  0  0  0  0  0  0  0  0  0  0
    3.7320    5.2472    0.0000 N   0  0  0  0  0  0  0  0  0  0  0  0
    2.8660    6.7472    0.0000 N   0  0  0  0  0  0  0  0  0  0  0  0
    2.8660    2.7473    0.0000 C   0  0  2  0  0  0  0  0  0  0  0  0
    3.3660    1.2084    0.0000 C   0  0  1  0  0  0  0  0  0  0  0  0
    2.0570    2.1595    0.0000 C   0  0  0  0  0  0  0  0  0  0  0  0
    3.9538    0.3994    0.0000 C   0  0  0  0  0  0  0  0  0  0  0  0
    2.0000    4.2472    0.0000 C   0  0  0  0  0  0  0  0  0  0  0  0
    3.7320    4.2472    0.0000 C   0  0  0  0  0  0  0  0  0  0  0  0
    3.9092   -3.9593    0.0000 C   0  0  0  0  0  0  0  0  0  0  0  0
    4.3159   -3.0457    0.0000 C   0  0  0  0  0  0  0  0  0  0  0  0
    4.4970   -4.7683    0.0000 C   0  0  0  0  0  0  0  0  0  0  0  0
    2.0000    5.2472    0.0000 C   0  0  0  0  0  0  0  0  0  0  0  0
    4.1349   -1.3232    0.0000 C   0  0  0  0  0  0  0  0  0  0  0  0
    2.8660    5.7472    0.0000 C   0  0  0  0  0  0  0  0  0  0  0  0
    4.0902   -5.6818    0.0000 C   0  0  0  0  0  0  0  0  0  0  0  0
    3.4184    3.0287    0.0000 H   0  0  0  0  0  0  0  0  0  0  0  0
    3.9784    1.3054    0.0000 H   0  0  0  0  0  0  0  0  0  0  0  0
    1.7470    2.6964    0.0000 H   0  0  0  0  0  0  0  0  0  0  0  0
    1.4906    1.9073    0.0000 H   0  0  0  0  0  0  0  0  0  0  0  0
    4.4678    0.0527    0.0000 H   0  0  0  0  0  0  0  0  0  0  0  0
    4.3845    0.8454    0.0000 H   0  0  0  0  0  0  0  0  0  0  0  0
    1.4631    3.9372    0.0000 H   0  0  0  0  0  0  0  0  0  0  0  0
    3.3952   -3.6126    0.0000 H   0  0  0  0  0  0  0  0  0  0  0  0
    3.4785   -4.4053    0.0000 H   0  0  0  0  0  0  0  0  0  0  0  0
    4.8299   -3.3924    0.0000 H   0  0  0  0  0  0  0  0  0  0  0  0
    4.7466   -2.5997    0.0000 H   0  0  0  0  0  0  0  0  0  0  0  0
    5.0110   -5.1150    0.0000 H   0  0  0  0  0  0  0  0  0  0  0  0
    4.9276   -4.3223    0.0000 H   0  0  0  0  0  0  0  0  0  0  0  0
    1.4631    5.5572    0.0000 H   0  0  0  0  0  0  0  0  0  0  0  0
    3.1115   -2.3015    0.0000 H   0  0  0  0  0  0  0  0  0  0  0  0
    3.5762   -5.3351    0.0000 H   0  0  0  0  0  0  0  0  0  0  0  0
    3.6595   -6.1278    0.0000 H   0  0  0  0  0  0  0  0  0  0  0  0
    2.3291    7.0572    0.0000 H   0  0  0  0  0  0  0  0  0  0  0  0
    3.4030    7.0572    0.0000 H   0  0  0  0  0  0  0  0  0  0  0  0
    4.4258   -7.0572    0.0000 H   0  0  0  0  0  0  0  0  0  0  0  0
  1 12  1  0  0  0  0
  1 13  1  0  0  0  0
  2 11  1  0  0  0  0
  2 12  1  0  0  0  0
  3 14  1  0  0  0  0
  3 21  1  0  0  0  0
  4 16  2  0  0  0  0
  5 23  1  0  0  0  0
  5 43  1  0  0  0  0
  6 21  2  0  0  0  0
 11  7  1  1  0  0  0
  7 15  1  0  0  0  0
  7 16  1  0  0  0  0
  8 18  1  0  0  0  0
  8 21  1  0  0  0  0
  8 38  1  0  0  0  0
  9 16  1  0  0  0  0
  9 22  2  0  0  0  0
 10 22  1  0  0  0  0
 10 41  1  0  0  0  0
 10 42  1  0  0  0  0
 11 13  1  0  0  0  0
 11 24  1  0  0  0  0
 12 14  1  1  0  0  0
 12 25  1  0  0  0  0
 13 26  1  0  0  0  0
 13 27  1  0  0  0  0
 14 28  1  0  0  0  0
 14 29  1  0  0  0  0
 15 20  2  0  0  0  0
 15 30  1  0  0  0  0
 17 18  1  0  0  0  0
 17 19  1  0  0  0  0
 17 31  1  0  0  0  0
 17 32  1  0  0  0  0
 18 33  1  0  0  0  0
 18 34  1  0  0  0  0
 19 23  1  0  0  0  0
 19 35  1  0  0  0  0
 19 36  1  0  0  0  0
 20 22  1  0  0  0  0
 20 37  1  0  0  0  0
 23 39  1  0  0  0  0
 23 40  1  0  0  0  0
M  END
> <PUBCHEM_COMPOUND_CID>
511272
> <PUBCHEM_COMPOUND_CANONICALIZED>
1
> <PUBCHEM_CACTVS_COMPLEXITY>
499
> <PUBCHEM_CACTVS_HBOND_ACCEPTOR>
6
> <PUBCHEM_CACTVS_HBOND_DONOR>
3
> <PUBCHEM_CACTVS_ROTATABLE_BOND>
8
> <PUBCHEM_CACTVS_SUBSKEYS>
AAADceBzuABAAAAAAAAAAAAAAAAAASAAAAAgAAAAAAAAAAAAAAAAHgQQCAAACADlwAaBCAPABgioACJmfACAAAEAAhAIAIAYABGBEAAAgAAOQAAEFgIiAAAgAAAAAAAAAAAAAAAAAAAAAAAAAAAAAAAAAA==
> <PUBCHEM_IUPAC_OPENEYE_NAME>
[(2R,5S)-5-(4-amino-2-oxo-pyrimidin-1-yl)-1,3-oxathiolan-2-yl]methyl N-(4-hydroxybutyl)carbamate
> <PUBCHEM_IUPAC_CAS_NAME>
N-(4-hydroxybutyl)carbamic acid [(2R,5S)-5-(4-amino-2-oxo-1-pyrimidinyl)-1,3-oxathiolan-2-yl]methyl ester
> <PUBCHEM_IUPAC_NAME_MARKUP>
[(2<I>R</I>,5<I>S</I>)-5-(4-amino-2-oxopyrimidin-1-yl)-1,3-oxathiolan-2-yl]methyl <I>N</I>-(4-hydroxybutyl)carbamate
> <PUBCHEM_IUPAC_NAME>
[(2R,5S)-5-(4-amino-2-oxopyrimidin-1-yl)-1,3-oxathiolan-2-yl]methyl N-(4-hydroxybutyl)carbamate
> <PUBCHEM_IUPAC_SYSTEMATIC_NAME>
[(2R,5S)-5-(4-azanyl-2-oxidanylidene-pyrimidin-1-yl)-1,3-oxathiolan-2-yl]methyl N-(4-oxidanylbutyl)carbamate
> <PUBCHEM_IUPAC_TRADITIONAL_NAME>
N-(4-hydroxybutyl)carbamic acid [(2R,5S)-5-(4-amino-2-keto-pyrimidin-1-yl)-1,3-oxathiolan-2-yl]methyl ester
> <PUBCHEM_IUPAC_INCHI>
InChI=1S/C13H20N4O5S/c14-9-3-5-17(12(19)16-9)10-8-23-11(22-10)7-21-13(20)15-4-1-2-6-18/h3,5,10-11,18H,1-2,4,6-8H2,(H,15,20)(H2,14,16,19)/t10-,11+/m0/s1
> <PUBCHEM_IUPAC_INCHIKEY>
JARUWXCYYCAZST-WDEREUQCSA-N
> <PUBCHEM_XLOGP3>
-0.5
> <PUBCHEM_EXACT_MASS>
344.11544092
> <PUBCHEM_MOLECULAR_FORMULA>
C13H20N4O5S
> <PUBCHEM_MOLECULAR_WEIGHT>
344.39
> <PUBCHEM_OPENEYE_CAN_SMILES>
C1C(OC(S1)COC(=O)NCCCCO)N2C=CC(=NC2=O)N
> <PUBCHEM_OPENEYE_ISO_SMILES>
C1[C@H](O[C@H](S1)COC(=O)NCCCCO)N2C=CC(=NC2=O)N
> <PUBCHEM_CACTVS_TPSA>
152
> <PUBCHEM_MONOISOTOPIC_WEIGHT>
344.11544092
> <PUBCHEM_TOTAL_CHARGE>
0
> <PUBCHEM_HEAVY_ATOM_COUNT>
23
> <PUBCHEM_ATOM_DEF_STEREO_COUNT>
2
> <PUBCHEM_ATOM_UDEF_STEREO_COUNT>
0
> <PUBCHEM_BOND_DEF_STEREO_COUNT>
0
> <PUBCHEM_BOND_UDEF_STEREO_COUNT>
0
> <PUBCHEM_ISOTOPIC_ATOM_COUNT>
0
> <PUBCHEM_COMPONENT_COUNT>
1
> <PUBCHEM_CACTVS_TAUTO_COUNT>
-1
> <PUBCHEM_COORDINATE_TYPE>
1
5
255
> <PUBCHEM_BONDANNOTATIONS>
12  14  5
15  20  8
20  22  8
11  7  5
7  15  8
7  16  8
9  16  8
9  22  8
$$$$
