511220
  -OEChem-10302200282D
 65 67  0     1  0  0  0  0  0999 V2000
    5.0009   -2.2495    0.0000 P   0  0  3  0  0  0  0  0  0  0  0  0
    4.5411    1.2331    0.0000 O   0  0  0  0  0  0  0  0  0  0  0  0
    4.4131   -1.4405    0.0000 O   0  0  0  0  0  0  0  0  0  0  0  0
    4.1919   -2.8373    0.0000 O   0  0  0  0  0  0  0  0  0  0  0  0
    7.9844   -1.9360    0.0000 O   0  0  0  0  0  0  0  0  0  0  0  0
    5.8099   -1.6618    0.0000 O   0  0  0  0  0  0  0  0  0  0  0  0
    6.4021   -1.2315    0.0000 O   0  0  0  0  0  0  0  0  0  0  0  0
    5.4641    2.8209    0.0000 O   0  0  0  0  0  0  0  0  0  0  0  0
    3.7320    5.8209    0.0000 O   0  0  0  0  0  0  0  0  0  0  0  0
    5.5887   -3.0586    0.0000 N   0  0  0  0  0  0  0  0  0  0  0  0
    3.7320    2.8209    0.0000 N   0  0  0  0  0  0  0  0  0  0  0  0
    4.5981    4.3209    0.0000 N   0  0  0  0  0  0  0  0  0  0  0  0
    7.1710   -3.7630    0.0000 C   0  0  2  0  0  0  0  0  0  0  0  0
    6.5832   -2.9540    0.0000 C   0  0  1  0  0  0  0  0  0  0  0  0
    8.1655   -3.6585    0.0000 C   0  0  0  0  0  0  0  0  0  0  0  0
    4.2320    0.2820    0.0000 C   0  0  2  0  0  0  0  0  0  0  0  0
    6.7642   -4.6766    0.0000 C   0  0  0  0  0  0  0  0  0  0  0  0
    3.7320    1.8209    0.0000 C   0  0  1  0  0  0  0  0  0  0  0  0
    4.8198   -0.5270    0.0000 C   0  0  0  0  0  0  0  0  0  0  0  0
    6.9899   -2.0405    0.0000 C   0  0  0  0  0  0  0  0  0  0  0  0
    3.2320    0.2820    0.0000 C   0  0  0  0  0  0  0  0  0  0  0  0
    8.7533   -4.4675    0.0000 C   0  0  0  0  0  0  0  0  0  0  0  0
    2.9230    1.2331    0.0000 C   0  0  0  0  0  0  0  0  0  0  0  0
    2.8660    3.3209    0.0000 C   0  0  0  0  0  0  0  0  0  0  0  0
    4.5981    3.3209    0.0000 C   0  0  0  0  0  0  0  0  0  0  0  0
    2.8660    4.3209    0.0000 C   0  0  0  0  0  0  0  0  0  0  0  0
    4.2964   -3.8318    0.0000 C   0  0  0  0  0  0  0  0  0  0  0  0
    3.7320    4.8209    0.0000 C   0  0  0  0  0  0  0  0  0  0  0  0
    8.3912   -1.0224    0.0000 C   0  0  0  0  0  0  0  0  0  0  0  0
    2.0000    4.8209    0.0000 C   0  0  0  0  0  0  0  0  0  0  0  0
    5.2099   -4.2386    0.0000 C   0  0  0  0  0  0  0  0  0  0  0  0
    3.4874   -4.4196    0.0000 C   0  0  0  0  0  0  0  0  0  0  0  0
    5.3145   -5.2331    0.0000 C   0  0  0  0  0  0  0  0  0  0  0  0
    3.5919   -5.4142    0.0000 C   0  0  0  0  0  0  0  0  0  0  0  0
    4.5054   -5.8209    0.0000 C   0  0  0  0  0  0  0  0  0  0  0  0
    7.5354   -4.2646    0.0000 H   0  0  0  0  0  0  0  0  0  0  0  0
    6.3310   -3.5204    0.0000 H   0  0  0  0  0  0  0  0  0  0  0  0
    8.7228   -3.3867    0.0000 H   0  0  0  0  0  0  0  0  0  0  0  0
    7.9946   -3.0625    0.0000 H   0  0  0  0  0  0  0  0  0  0  0  0
    4.8444    0.3790    0.0000 H   0  0  0  0  0  0  0  0  0  0  0  0
    5.3365   -3.6250    0.0000 H   0  0  0  0  0  0  0  0  0  0  0  0
    6.1978   -4.4244    0.0000 H   0  0  0  0  0  0  0  0  0  0  0  0
    6.5121   -5.2430    0.0000 H   0  0  0  0  0  0  0  0  0  0  0  0
    7.3306   -4.9288    0.0000 H   0  0  0  0  0  0  0  0  0  0  0  0
    4.2845    2.1024    0.0000 H   0  0  0  0  0  0  0  0  0  0  0  0
    5.3338   -0.8737    0.0000 H   0  0  0  0  0  0  0  0  0  0  0  0
    5.2505   -0.0810    0.0000 H   0  0  0  0  0  0  0  0  0  0  0  0
    2.8676   -0.2195    0.0000 H   0  0  0  0  0  0  0  0  0  0  0  0
    2.3334    1.4247    0.0000 H   0  0  0  0  0  0  0  0  0  0  0  0
    8.2517   -4.8320    0.0000 H   0  0  0  0  0  0  0  0  0  0  0  0
    9.1177   -4.9691    0.0000 H   0  0  0  0  0  0  0  0  0  0  0  0
    9.2549   -4.1031    0.0000 H   0  0  0  0  0  0  0  0  0  0  0  0
    2.3291    3.0109    0.0000 H   0  0  0  0  0  0  0  0  0  0  0  0
    5.1350    4.6309    0.0000 H   0  0  0  0  0  0  0  0  0  0  0  0
    2.3100    5.3578    0.0000 H   0  0  0  0  0  0  0  0  0  0  0  0
    1.4631    5.1309    0.0000 H   0  0  0  0  0  0  0  0  0  0  0  0
    1.6900    4.2840    0.0000 H   0  0  0  0  0  0  0  0  0  0  0  0
    8.9576   -1.2746    0.0000 H   0  0  0  0  0  0  0  0  0  0  0  0
    8.6434   -0.4560    0.0000 H   0  0  0  0  0  0  0  0  0  0  0  0
    7.8248   -0.7702    0.0000 H   0  0  0  0  0  0  0  0  0  0  0  0
    5.7115   -3.8742    0.0000 H   0  0  0  0  0  0  0  0  0  0  0  0
    2.9210   -4.1674    0.0000 H   0  0  0  0  0  0  0  0  0  0  0  0
    5.8809   -5.4853    0.0000 H   0  0  0  0  0  0  0  0  0  0  0  0
    3.0903   -5.7786    0.0000 H   0  0  0  0  0  0  0  0  0  0  0  0
    4.5703   -6.4375    0.0000 H   0  0  0  0  0  0  0  0  0  0  0  0
  1  3  1  0  0  0  0
  1  4  1  0  0  0  0
  1  6  2  0  0  0  0
  1 10  1  0  0  0  0
  2 16  1  0  0  0  0
  2 18  1  0  0  0  0
  3 19  1  0  0  0  0
  4 27  1  0  0  0  0
  5 20  1  0  0  0  0
  5 29  1  0  0  0  0
  7 20  2  0  0  0  0
  8 25  2  0  0  0  0
  9 28  2  0  0  0  0
 14 10  1  6  0  0  0
 10 41  1  0  0  0  0
 18 11  1  6  0  0  0
 11 24  1  0  0  0  0
 11 25  1  0  0  0  0
 12 25  1  0  0  0  0
 12 28  1  0  0  0  0
 12 54  1  0  0  0  0
 13 14  1  0  0  0  0
 13 15  1  0  0  0  0
 13 17  1  6  0  0  0
 13 36  1  0  0  0  0
 14 20  1  0  0  0  0
 14 37  1  0  0  0  0
 15 22  1  0  0  0  0
 15 38  1  0  0  0  0
 15 39  1  0  0  0  0
 16 19  1  6  0  0  0
 16 21  1  0  0  0  0
 16 40  1  0  0  0  0
 17 42  1  0  0  0  0
 17 43  1  0  0  0  0
 17 44  1  0  0  0  0
 18 23  1  0  0  0  0
 18 45  1  0  0  0  0
 19 46  1  0  0  0  0
 19 47  1  0  0  0  0
 21 23  2  0  0  0  0
 21 48  1  0  0  0  0
 22 50  1  0  0  0  0
 22 51  1  0  0  0  0
 22 52  1  0  0  0  0
 23 49  1  0  0  0  0
 24 26  2  0  0  0  0
 24 53  1  0  0  0  0
 26 28  1  0  0  0  0
 26 30  1  0  0  0  0
 27 31  2  0  0  0  0
 27 32  1  0  0  0  0
 29 58  1  0  0  0  0
 29 59  1  0  0  0  0
 29 60  1  0  0  0  0
 30 55  1  0  0  0  0
 30 56  1  0  0  0  0
 30 57  1  0  0  0  0
 31 33  1  0  0  0  0
 31 61  1  0  0  0  0
 32 34  2  0  0  0  0
 32 62  1  0  0  0  0
 33 35  2  0  0  0  0
 33 63  1  0  0  0  0
 34 35  1  0  0  0  0
 34 64  1  0  0  0  0
 35 65  1  0  0  0  0
M  END
> <PUBCHEM_COMPOUND_CID>
511220
> <PUBCHEM_COMPOUND_CANONICALIZED>
1
> <PUBCHEM_CACTVS_COMPLEXITY>
901
> <PUBCHEM_CACTVS_HBOND_ACCEPTOR>
9
> <PUBCHEM_CACTVS_HBOND_DONOR>
2
> <PUBCHEM_CACTVS_ROTATABLE_BOND>
12
> <PUBCHEM_CACTVS_SUBSKEYS>
AAADceB7PAIAAAAAAAAAAAAAAAAAAQAAAAAwQAAAAAAAAAABAAAAHgAQgCAADTzhkAYzDoPABRCIQiHWWICCAAAgIAAIiIGOCMiLJjKAsRKPMAAs1zMKqMeIQAAKAAAAAAAAAAAAAAAAAAAAAAAAAAAAAA==
> <PUBCHEM_IUPAC_OPENEYE_NAME>
methyl (2S,3S)-3-methyl-2-[[[(2S,5R)-5-(5-methyl-2,4-dioxo-pyrimidin-1-yl)-2,5-dihydrofuran-2-yl]methoxy-phenoxy-phosphoryl]amino]pentanoate
> <PUBCHEM_IUPAC_CAS_NAME>
(2S,3S)-3-methyl-2-[[[(2S,5R)-5-(5-methyl-2,4-dioxo-1-pyrimidinyl)-2,5-dihydrofuran-2-yl]methoxy-phenoxyphosphoryl]amino]pentanoic acid methyl ester
> <PUBCHEM_IUPAC_NAME_MARKUP>
methyl (2<I>S</I>,3<I>S</I>)-3-methyl-2-[[[(2<I>S</I>,5<I>R</I>)-5-(5-methyl-2,4-dioxopyrimidin-1-yl)-2,5-dihydrofuran-2-yl]methoxy-phenoxyphosphoryl]amino]pentanoate
> <PUBCHEM_IUPAC_NAME>
methyl (2S,3S)-3-methyl-2-[[[(2S,5R)-5-(5-methyl-2,4-dioxopyrimidin-1-yl)-2,5-dihydrofuran-2-yl]methoxy-phenoxyphosphoryl]amino]pentanoate
> <PUBCHEM_IUPAC_SYSTEMATIC_NAME>
methyl (2S,3S)-3-methyl-2-[[[(2S,5R)-5-[5-methyl-2,4-bis(oxidanylidene)pyrimidin-1-yl]-2,5-dihydrofuran-2-yl]methoxy-phenoxy-phosphoryl]amino]pentanoate
> <PUBCHEM_IUPAC_TRADITIONAL_NAME>
(2S,3S)-2-[[[(2S,5R)-5-(2,4-diketo-5-methyl-pyrimidin-1-yl)-2,5-dihydrofuran-2-yl]methoxy-phenoxy-phosphoryl]amino]-3-methyl-valeric acid methyl ester
> <PUBCHEM_IUPAC_INCHI>
InChI=1S/C23H30N3O8P/c1-5-15(2)20(22(28)31-4)25-35(30,34-17-9-7-6-8-10-17)32-14-18-11-12-19(33-18)26-13-16(3)21(27)24-23(26)29/h6-13,15,18-20H,5,14H2,1-4H3,(H,25,30)(H,24,27,29)/t15-,18-,19+,20-,35?/m0/s1
> <PUBCHEM_IUPAC_INCHIKEY>
GIKYQFMFTYSBOR-GAMCCCKZSA-N
> <PUBCHEM_XLOGP3_AA>
2.3
> <PUBCHEM_EXACT_MASS>
507.17705192
> <PUBCHEM_MOLECULAR_FORMULA>
C23H30N3O8P
> <PUBCHEM_MOLECULAR_WEIGHT>
507.5
> <PUBCHEM_OPENEYE_CAN_SMILES>
CCC(C)C(C(=O)OC)NP(=O)(OCC1C=CC(O1)N2C=C(C(=O)NC2=O)C)OC3=CC=CC=C3
> <PUBCHEM_OPENEYE_ISO_SMILES>
CC[C@H](C)[C@@H](C(=O)OC)NP(=O)(OC[C@@H]1C=C[C@@H](O1)N2C=C(C(=O)NC2=O)C)OC3=CC=CC=C3
> <PUBCHEM_CACTVS_TPSA>
133
> <PUBCHEM_MONOISOTOPIC_WEIGHT>
507.17705192
> <PUBCHEM_TOTAL_CHARGE>
0
> <PUBCHEM_HEAVY_ATOM_COUNT>
35
> <PUBCHEM_ATOM_DEF_STEREO_COUNT>
4
> <PUBCHEM_ATOM_UDEF_STEREO_COUNT>
1
> <PUBCHEM_BOND_DEF_STEREO_COUNT>
0
> <PUBCHEM_BOND_UDEF_STEREO_COUNT>
0
> <PUBCHEM_ISOTOPIC_ATOM_COUNT>
0
> <PUBCHEM_COMPONENT_COUNT>
1
> <PUBCHEM_CACTVS_TAUTO_COUNT>
-1
> <PUBCHEM_COORDINATE_TYPE>
1
5
255
> <PUBCHEM_BONDANNOTATIONS>
1  10  3
14  10  6
18  11  6
11  24  8
11  25  8
12  25  8
12  28  8
13  17  6
16  19  6
24  26  8
26  28  8
27  31  8
27  32  8
31  33  8
32  34  8
33  35  8
34  35  8
$$$$
