511246
  -OEChem-10302200282D
 67 70  0     1  0  0  0  0  0999 V2000
    7.7469   -0.8901    0.0000 P   0  0  3  0  0  0  0  0  0  0  0  0
    5.8858    1.5745    0.0000 O   0  0  0  0  0  0  0  0  0  0  0  0
    7.1591   -0.0810    0.0000 O   0  0  0  0  0  0  0  0  0  0  0  0
    8.5559   -0.3023    0.0000 O   0  0  0  0  0  0  0  0  0  0  0  0
    6.8089    3.1623    0.0000 O   0  0  0  0  0  0  0  0  0  0  0  0
    6.9379   -1.4779    0.0000 O   0  0  0  0  0  0  0  0  0  0  0  0
    5.0768    6.1623    0.0000 O   0  0  0  0  0  0  0  0  0  0  0  0
    6.5267   -3.6307    0.0000 O   0  0  0  0  0  0  0  0  0  0  0  0
    6.3457   -1.9081    0.0000 O   0  0  0  0  0  0  0  0  0  0  0  0
    5.0768    3.1623    0.0000 N   0  0  0  0  0  0  0  0  0  0  0  0
    3.9890   -0.1856    0.0000 N   0  0  0  0  0  0  0  0  0  0  0  0
    5.9428    4.6623    0.0000 N   0  0  0  0  0  0  0  0  0  0  0  0
    8.3347   -1.6991    0.0000 N   0  0  0  0  0  0  0  0  0  0  0  0
    2.9945   -0.0810    0.0000 N   0  3  0  0  0  0  0  0  0  0  0  0
    2.0000    0.0235    0.0000 N   0  5  0  0  0  0  0  0  0  0  0  0
    4.5768    0.6234    0.0000 C   0  0  2  0  0  0  0  0  0  0  0  0
    5.5768    0.6234    0.0000 C   0  0  1  0  0  0  0  0  0  0  0  0
    4.2678    1.5745    0.0000 C   0  0  0  0  0  0  0  0  0  0  0  0
    5.0768    2.1623    0.0000 C   0  0  1  0  0  0  0  0  0  0  0  0
    6.1646   -0.1856    0.0000 C   0  0  0  0  0  0  0  0  0  0  0  0
    4.2108    3.6623    0.0000 C   0  0  0  0  0  0  0  0  0  0  0  0
    5.9428    3.6623    0.0000 C   0  0  0  0  0  0  0  0  0  0  0  0
    4.2108    4.6623    0.0000 C   0  0  0  0  0  0  0  0  0  0  0  0
    7.9280   -2.6126    0.0000 C   0  0  2  0  0  0  0  0  0  0  0  0
    5.0768    5.1623    0.0000 C   0  0  0  0  0  0  0  0  0  0  0  0
    8.5158   -3.4216    0.0000 C   0  0  0  0  0  0  0  0  0  0  0  0
    3.3448    5.1623    0.0000 C   0  0  0  0  0  0  0  0  0  0  0  0
    8.1090   -4.3352    0.0000 C   0  0  0  0  0  0  0  0  0  0  0  0
    6.9334   -2.7172    0.0000 C   0  0  0  0  0  0  0  0  0  0  0  0
    9.4695   -0.7090    0.0000 C   0  0  0  0  0  0  0  0  0  0  0  0
    8.6968   -5.1442    0.0000 C   0  0  0  0  0  0  0  0  0  0  0  0
    7.1145   -4.4397    0.0000 C   0  0  0  0  0  0  0  0  0  0  0  0
   10.2785   -0.1212    0.0000 C   0  0  0  0  0  0  0  0  0  0  0  0
    9.5740   -1.7035    0.0000 C   0  0  0  0  0  0  0  0  0  0  0  0
    8.2901   -6.0578    0.0000 C   0  0  0  0  0  0  0  0  0  0  0  0
    6.7078   -5.3533    0.0000 C   0  0  0  0  0  0  0  0  0  0  0  0
    7.2956   -6.1623    0.0000 C   0  0  0  0  0  0  0  0  0  0  0  0
   11.1920   -0.5280    0.0000 C   0  0  0  0  0  0  0  0  0  0  0  0
   10.4876   -2.1103    0.0000 C   0  0  0  0  0  0  0  0  0  0  0  0
   11.2966   -1.5225    0.0000 C   0  0  0  0  0  0  0  0  0  0  0  0
    3.9645    0.7204    0.0000 H   0  0  0  0  0  0  0  0  0  0  0  0
    6.1892    0.7204    0.0000 H   0  0  0  0  0  0  0  0  0  0  0  0
    3.9578    2.1114    0.0000 H   0  0  0  0  0  0  0  0  0  0  0  0
    3.7014    1.3223    0.0000 H   0  0  0  0  0  0  0  0  0  0  0  0
    4.5244    2.4438    0.0000 H   0  0  0  0  0  0  0  0  0  0  0  0
    5.6074   -0.4574    0.0000 H   0  0  0  0  0  0  0  0  0  0  0  0
    6.3355   -0.7816    0.0000 H   0  0  0  0  0  0  0  0  0  0  0  0
    3.6739    3.3523    0.0000 H   0  0  0  0  0  0  0  0  0  0  0  0
    6.4798    4.9723    0.0000 H   0  0  0  0  0  0  0  0  0  0  0  0
    8.9513   -1.6343    0.0000 H   0  0  0  0  0  0  0  0  0  0  0  0
    8.5446   -2.5478    0.0000 H   0  0  0  0  0  0  0  0  0  0  0  0
    9.0298   -3.7683    0.0000 H   0  0  0  0  0  0  0  0  0  0  0  0
    8.9464   -2.9756    0.0000 H   0  0  0  0  0  0  0  0  0  0  0  0
    3.6548    5.6992    0.0000 H   0  0  0  0  0  0  0  0  0  0  0  0
    2.8078    5.4723    0.0000 H   0  0  0  0  0  0  0  0  0  0  0  0
    3.0348    4.6254    0.0000 H   0  0  0  0  0  0  0  0  0  0  0  0
    9.3134   -5.0794    0.0000 H   0  0  0  0  0  0  0  0  0  0  0  0
    6.7501   -3.9381    0.0000 H   0  0  0  0  0  0  0  0  0  0  0  0
   10.2137    0.4954    0.0000 H   0  0  0  0  0  0  0  0  0  0  0  0
    9.0724   -2.0680    0.0000 H   0  0  0  0  0  0  0  0  0  0  0  0
    8.6545   -6.5593    0.0000 H   0  0  0  0  0  0  0  0  0  0  0  0
    6.0912   -5.4181    0.0000 H   0  0  0  0  0  0  0  0  0  0  0  0
    5.9101   -3.6955    0.0000 H   0  0  0  0  0  0  0  0  0  0  0  0
    7.0434   -6.7287    0.0000 H   0  0  0  0  0  0  0  0  0  0  0  0
   11.6936   -0.1635    0.0000 H   0  0  0  0  0  0  0  0  0  0  0  0
   10.5524   -2.7269    0.0000 H   0  0  0  0  0  0  0  0  0  0  0  0
   11.8630   -1.7747    0.0000 H   0  0  0  0  0  0  0  0  0  0  0  0
  1  3  1  0  0  0  0
  1  4  1  0  0  0  0
  1  6  2  0  0  0  0
  1 13  1  0  0  0  0
  2 17  1  0  0  0  0
  2 19  1  0  0  0  0
  3 20  1  0  0  0  0
  4 30  1  0  0  0  0
  5 22  2  0  0  0  0
  7 25  2  0  0  0  0
  8 29  1  0  0  0  0
  8 63  1  0  0  0  0
  9 29  2  0  0  0  0
 19 10  1  6  0  0  0
 10 21  1  0  0  0  0
 10 22  1  0  0  0  0
 11 14  2  0  0  0  0
 16 11  1  1  0  0  0
 12 22  1  0  0  0  0
 12 25  1  0  0  0  0
 12 49  1  0  0  0  0
 24 13  1  6  0  0  0
 13 50  1  0  0  0  0
 14 15  2  0  0  0  0
 16 17  1  0  0  0  0
 16 18  1  0  0  0  0
 16 41  1  0  0  0  0
 17 20  1  6  0  0  0
 17 42  1  0  0  0  0
 18 19  1  0  0  0  0
 18 43  1  0  0  0  0
 18 44  1  0  0  0  0
 19 45  1  0  0  0  0
 20 46  1  0  0  0  0
 20 47  1  0  0  0  0
 21 23  2  0  0  0  0
 21 48  1  0  0  0  0
 23 25  1  0  0  0  0
 23 27  1  0  0  0  0
 24 26  1  0  0  0  0
 24 29  1  0  0  0  0
 24 51  1  0  0  0  0
 26 28  1  0  0  0  0
 26 52  1  0  0  0  0
 26 53  1  0  0  0  0
 27 54  1  0  0  0  0
 27 55  1  0  0  0  0
 27 56  1  0  0  0  0
 28 31  2  0  0  0  0
 28 32  1  0  0  0  0
 30 33  2  0  0  0  0
 30 34  1  0  0  0  0
 31 35  1  0  0  0  0
 31 57  1  0  0  0  0
 32 36  2  0  0  0  0
 32 58  1  0  0  0  0
 33 38  1  0  0  0  0
 33 59  1  0  0  0  0
 34 39  2  0  0  0  0
 34 60  1  0  0  0  0
 35 37  2  0  0  0  0
 35 61  1  0  0  0  0
 36 37  1  0  0  0  0
 36 62  1  0  0  0  0
 37 64  1  0  0  0  0
 38 40  2  0  0  0  0
 38 65  1  0  0  0  0
 39 40  1  0  0  0  0
 39 66  1  0  0  0  0
 40 67  1  0  0  0  0
M  CHG  2  14   1  15  -1
M  END
> <PUBCHEM_COMPOUND_CID>
511246
> <PUBCHEM_COMPOUND_CANONICALIZED>
1
> <PUBCHEM_CACTVS_COMPLEXITY>
1070
> <PUBCHEM_CACTVS_HBOND_ACCEPTOR>
11
> <PUBCHEM_CACTVS_HBOND_DONOR>
3
> <PUBCHEM_CACTVS_ROTATABLE_BOND>
12
> <PUBCHEM_CACTVS_SUBSKEYS>
AAADceB7vAIAAAAAAAAAAAAAAAAAASAAAAAwYIAAAAAAAAABQAAAHgAYiCAADDzhmAYzDoPABxCKQiHWWICCAAAgIAAIiIGOCMiLJjKA0ROPcAAu1zMKiMe4+KKOAAAAAAAAAAAAAAAAAAAAAAAAAAAAAA==
> <PUBCHEM_IUPAC_OPENEYE_NAME>
(2R)-2-[[[(2S,3S,5R)-3-azido-5-(5-methyl-2,4-dioxo-pyrimidin-1-yl)tetrahydrofuran-2-yl]methoxy-phenoxy-phosphoryl]amino]-3-phenyl-propanoic acid
> <PUBCHEM_IUPAC_CAS_NAME>
(2R)-2-[[[(2S,3S,5R)-3-azido-5-(5-methyl-2,4-dioxo-1-pyrimidinyl)-2-oxolanyl]methoxy-phenoxyphosphoryl]amino]-3-phenylpropanoic acid
> <PUBCHEM_IUPAC_NAME_MARKUP>
(2<I>R</I>)-2-[[[(2<I>S</I>,3<I>S</I>,5<I>R</I>)-3-azido-5-(5-methyl-2,4-dioxopyrimidin-1-yl)oxolan-2-yl]methoxy-phenoxyphosphoryl]amino]-3-phenylpropanoic acid
> <PUBCHEM_IUPAC_NAME>
(2R)-2-[[[(2S,3S,5R)-3-azido-5-(5-methyl-2,4-dioxopyrimidin-1-yl)oxolan-2-yl]methoxy-phenoxyphosphoryl]amino]-3-phenylpropanoic acid
> <PUBCHEM_IUPAC_SYSTEMATIC_NAME>
(2R)-2-[[[(2S,3S,5R)-3-azido-5-[5-methyl-2,4-bis(oxidanylidene)pyrimidin-1-yl]oxolan-2-yl]methoxy-phenoxy-phosphoryl]amino]-3-phenyl-propanoic acid
> <PUBCHEM_IUPAC_TRADITIONAL_NAME>
(2R)-2-[[[(2S,3S,5R)-3-azido-5-(2,4-diketo-5-methyl-pyrimidin-1-yl)tetrahydrofuran-2-yl]methoxy-phenoxy-phosphoryl]amino]-3-phenyl-propionic acid
> <PUBCHEM_IUPAC_INCHI>
InChI=1S/C25H27N6O8P/c1-16-14-31(25(35)27-23(16)32)22-13-19(28-30-26)21(38-22)15-37-40(36,39-18-10-6-3-7-11-18)29-20(24(33)34)12-17-8-4-2-5-9-17/h2-11,14,19-22H,12-13,15H2,1H3,(H,29,36)(H,33,34)(H,27,32,35)/t19-,20+,21+,22+,40?/m0/s1
> <PUBCHEM_IUPAC_INCHIKEY>
KOLNGHYCFFBXQB-GYVZZYLZSA-N
> <PUBCHEM_XLOGP3>
3.1
> <PUBCHEM_EXACT_MASS>
570.16279884
> <PUBCHEM_MOLECULAR_FORMULA>
C25H27N6O8P
> <PUBCHEM_MOLECULAR_WEIGHT>
570.5
> <PUBCHEM_OPENEYE_CAN_SMILES>
CC1=CN(C(=O)NC1=O)C2CC(C(O2)COP(=O)(NC(CC3=CC=CC=C3)C(=O)O)OC4=CC=CC=C4)N=[N+]=[N-]
> <PUBCHEM_OPENEYE_ISO_SMILES>
CC1=CN(C(=O)NC1=O)[C@H]2C[C@@H]([C@H](O2)COP(=O)(N[C@H](CC3=CC=CC=C3)C(=O)O)OC4=CC=CC=C4)N=[N+]=[N-]
> <PUBCHEM_CACTVS_TPSA>
158
> <PUBCHEM_MONOISOTOPIC_WEIGHT>
570.16279884
> <PUBCHEM_TOTAL_CHARGE>
0
> <PUBCHEM_HEAVY_ATOM_COUNT>
40
> <PUBCHEM_ATOM_DEF_STEREO_COUNT>
4
> <PUBCHEM_ATOM_UDEF_STEREO_COUNT>
1
> <PUBCHEM_BOND_DEF_STEREO_COUNT>
0
> <PUBCHEM_BOND_UDEF_STEREO_COUNT>
0
> <PUBCHEM_ISOTOPIC_ATOM_COUNT>
0
> <PUBCHEM_COMPONENT_COUNT>
1
> <PUBCHEM_CACTVS_TAUTO_COUNT>
-1
> <PUBCHEM_COORDINATE_TYPE>
1
5
255
> <PUBCHEM_BONDANNOTATIONS>
1  13  3
19  10  6
10  21  8
10  22  8
16  11  5
12  22  8
12  25  8
24  13  6
17  20  6
21  23  8
23  25  8
28  31  8
28  32  8
30  33  8
30  34  8
31  35  8
32  36  8
33  38  8
34  39  8
35  37  8
36  37  8
38  40  8
39  40  8
$$$$
