511262
  -OEChem-10302200282D
154157  0     1  0  0  0  0  0999 V2000
    7.7331   -0.3435    0.0000 O   0  0  0  0  0  0  0  0  0  0  0  0
    7.5907   -1.6982    0.0000 O   0  0  0  0  0  0  0  0  0  0  0  0
    6.8671    3.1565    0.0000 O   0  0  0  0  0  0  0  0  0  0  0  0
    7.7101   -5.3017    0.0000 O   0  0  0  0  0  0  0  0  0  0  0  0
    6.8671    4.1565    0.0000 O   0  0  0  0  0  0  0  0  0  0  0  0
    4.6490   -7.2069    0.0000 O   0  0  0  0  0  0  0  0  0  0  0  0
    4.1138   -5.5597    0.0000 O   0  0  0  0  0  0  0  0  0  0  0  0
   11.0985   -6.0220    0.0000 O   0  0  0  0  0  0  0  0  0  0  0  0
    7.7331    7.6565    0.0000 O   0  0  0  0  0  0  0  0  0  0  0  0
    6.0010   -0.3435    0.0000 N   0  0  0  0  0  0  0  0  0  0  0  0
    6.4317   -2.9853    0.0000 N   0  0  0  0  0  0  0  0  0  0  0  0
    7.7331    1.6565    0.0000 N   0  0  0  0  0  0  0  0  0  0  0  0
    8.5991    4.1565    0.0000 N   0  0  0  0  0  0  0  0  0  0  0  0
    6.0159   -4.9416    0.0000 N   0  0  0  0  0  0  0  0  0  0  0  0
    4.2690    4.6565    0.0000 N   0  0  0  0  0  0  0  0  0  0  0  0
    6.8671    6.1565    0.0000 N   0  0  0  0  0  0  0  0  0  0  0  0
    6.0010    8.6565    0.0000 N   0  0  0  0  0  0  0  0  0  0  0  0
    6.8785   -9.2143    0.0000 N   0  0  0  0  0  0  0  0  0  0  0  0
    9.4651    8.6565    0.0000 N   0  0  0  0  0  0  0  0  0  0  0  0
    3.4030    9.1565    0.0000 N   0  0  0  0  0  0  0  0  0  0  0  0
    7.4137  -10.8616    0.0000 N   0  0  0  0  0  0  0  0  0  0  0  0
    8.5727   -9.5744    0.0000 N   0  0  0  0  0  0  0  0  0  0  0  0
   10.3312   10.1565    0.0000 N   0  0  0  0  0  0  0  0  0  0  0  0
   11.1972    8.6565    0.0000 N   0  0  0  0  0  0  0  0  0  0  0  0
    4.2690   10.6565    0.0000 N   0  0  0  0  0  0  0  0  0  0  0  0
    2.5369   10.6565    0.0000 N   0  0  0  0  0  0  0  0  0  0  0  0
    5.8965   -1.3380    0.0000 C   0  0  1  0  0  0  0  0  0  0  0  0
    4.9184   -1.5460    0.0000 C   0  0  0  0  0  0  0  0  0  0  0  0
    4.4184   -0.6799    0.0000 C   0  0  0  0  0  0  0  0  0  0  0  0
    5.0875    0.0632    0.0000 C   0  0  0  0  0  0  0  0  0  0  0  0
    6.8671    0.1565    0.0000 C   0  0  0  0  0  0  0  0  0  0  0  0
    6.8671    1.1565    0.0000 C   0  0  1  0  0  0  0  0  0  0  0  0
    6.6396   -2.0072    0.0000 C   0  0  0  0  0  0  0  0  0  0  0  0
    6.0010    1.6565    0.0000 C   0  0  0  0  0  0  0  0  0  0  0  0
    6.0010    2.6565    0.0000 C   0  0  0  0  0  0  0  0  0  0  0  0
    7.1749   -3.6545    0.0000 C   0  0  1  0  0  0  0  0  0  0  0  0
    5.1350    3.1565    0.0000 C   0  0  0  0  0  0  0  0  0  0  0  0
    7.7331    2.6565    0.0000 C   0  0  0  0  0  0  0  0  0  0  0  0
    8.1259   -3.3454    0.0000 C   0  0  0  0  0  0  0  0  0  0  0  0
    8.5991    3.1565    0.0000 C   0  0  2  0  0  0  0  0  0  0  0  0
    6.9670   -4.6326    0.0000 C   0  0  0  0  0  0  0  0  0  0  0  0
    5.1350    4.1565    0.0000 C   0  0  0  0  0  0  0  0  0  0  0  0
    9.4651    2.6565    0.0000 C   0  0  0  0  0  0  0  0  0  0  0  0
    8.8691   -4.0146    0.0000 C   0  0  0  0  0  0  0  0  0  0  0  0
    5.8080   -5.9198    0.0000 C   0  0  1  0  0  0  0  0  0  0  0  0
   10.3312    3.1565    0.0000 C   0  0  0  0  0  0  0  0  0  0  0  0
    7.7331    4.6565    0.0000 C   0  0  0  0  0  0  0  0  0  0  0  0
    7.7331    5.6565    0.0000 C   0  0  2  0  0  0  0  0  0  0  0  0
    6.5512   -6.5889    0.0000 C   0  0  0  0  0  0  0  0  0  0  0  0
    8.6612   -4.9927    0.0000 C   0  0  0  0  0  0  0  0  0  0  0  0
    9.8201   -3.7056    0.0000 C   0  0  0  0  0  0  0  0  0  0  0  0
    8.5991    6.1565    0.0000 C   0  0  0  0  0  0  0  0  0  0  0  0
   11.1972    2.6565    0.0000 C   0  0  0  0  0  0  0  0  0  0  0  0
   10.3312    4.1565    0.0000 C   0  0  0  0  0  0  0  0  0  0  0  0
    6.3432   -7.5670    0.0000 C   0  0  0  0  0  0  0  0  0  0  0  0
    4.8570   -6.2288    0.0000 C   0  0  0  0  0  0  0  0  0  0  0  0
    8.5991    7.1565    0.0000 C   0  0  0  0  0  0  0  0  0  0  0  0
    9.4043   -5.6618    0.0000 C   0  0  0  0  0  0  0  0  0  0  0  0
   10.5633   -4.3747    0.0000 C   0  0  0  0  0  0  0  0  0  0  0  0
   12.0632    3.1565    0.0000 C   0  0  0  0  0  0  0  0  0  0  0  0
   10.3554   -5.3528    0.0000 C   0  0  0  0  0  0  0  0  0  0  0  0
   11.1972    4.6565    0.0000 C   0  0  0  0  0  0  0  0  0  0  0  0
   12.0632    4.1565    0.0000 C   0  0  0  0  0  0  0  0  0  0  0  0
    6.8671    7.1565    0.0000 C   0  0  0  0  0  0  0  0  0  0  0  0
    7.0864   -8.2362    0.0000 C   0  0  0  0  0  0  0  0  0  0  0  0
    6.0010    7.6565    0.0000 C   0  0  2  0  0  0  0  0  0  0  0  0
    9.4651    7.6565    0.0000 C   0  0  0  0  0  0  0  0  0  0  0  0
    5.1350    7.1565    0.0000 C   0  0  0  0  0  0  0  0  0  0  0  0
   12.9572    2.6218    0.0000 C   0  0  0  0  0  0  0  0  0  0  0  0
   12.9572    4.6911    0.0000 C   0  0  0  0  0  0  0  0  0  0  0  0
    4.2690    7.6565    0.0000 C   0  0  0  0  0  0  0  0  0  0  0  0
   13.8632    3.1356    0.0000 C   0  0  0  0  0  0  0  0  0  0  0  0
   13.8632    4.1773    0.0000 C   0  0  0  0  0  0  0  0  0  0  0  0
    4.2690    8.6565    0.0000 C   0  0  0  0  0  0  0  0  0  0  0  0
    7.6216   -9.8835    0.0000 C   0  0  0  0  0  0  0  0  0  0  0  0
   10.3312    9.1565    0.0000 C   0  0  0  0  0  0  0  0  0  0  0  0
    3.4030   10.1565    0.0000 C   0  0  0  0  0  0  0  0  0  0  0  0
    6.4753   -1.1159    0.0000 H   0  0  0  0  0  0  0  0  0  0  0  0
    4.3520   -1.7981    0.0000 H   0  0  0  0  0  0  0  0  0  0  0  0
    5.1100   -2.1356    0.0000 H   0  0  0  0  0  0  0  0  0  0  0  0
    4.0035   -0.2192    0.0000 H   0  0  0  0  0  0  0  0  0  0  0  0
    3.9168   -1.0444    0.0000 H   0  0  0  0  0  0  0  0  0  0  0  0
    5.3975    0.6001    0.0000 H   0  0  0  0  0  0  0  0  0  0  0  0
    4.5859    0.4276    0.0000 H   0  0  0  0  0  0  0  0  0  0  0  0
    7.4040    0.8465    0.0000 H   0  0  0  0  0  0  0  0  0  0  0  0
    5.3905    1.7641    0.0000 H   0  0  0  0  0  0  0  0  0  0  0  0
    5.7890    1.0739    0.0000 H   0  0  0  0  0  0  0  0  0  0  0  0
    5.8421   -3.1769    0.0000 H   0  0  0  0  0  0  0  0  0  0  0  0
    6.6116    2.5488    0.0000 H   0  0  0  0  0  0  0  0  0  0  0  0
    6.2131    3.2391    0.0000 H   0  0  0  0  0  0  0  0  0  0  0  0
    8.2700    1.3465    0.0000 H   0  0  0  0  0  0  0  0  0  0  0  0
    6.5852   -3.8460    0.0000 H   0  0  0  0  0  0  0  0  0  0  0  0
    4.5244    3.2641    0.0000 H   0  0  0  0  0  0  0  0  0  0  0  0
    4.9230    2.5739    0.0000 H   0  0  0  0  0  0  0  0  0  0  0  0
    8.6145   -2.9637    0.0000 H   0  0  0  0  0  0  0  0  0  0  0  0
    7.8349   -2.7980    0.0000 H   0  0  0  0  0  0  0  0  0  0  0  0
    8.0622    3.4665    0.0000 H   0  0  0  0  0  0  0  0  0  0  0  0
    5.7456    4.0488    0.0000 H   0  0  0  0  0  0  0  0  0  0  0  0
    5.3471    4.7391    0.0000 H   0  0  0  0  0  0  0  0  0  0  0  0
    9.0666    2.1815    0.0000 H   0  0  0  0  0  0  0  0  0  0  0  0
    9.8637    2.1815    0.0000 H   0  0  0  0  0  0  0  0  0  0  0  0
    9.1360    4.4665    0.0000 H   0  0  0  0  0  0  0  0  0  0  0  0
    5.5552   -4.5268    0.0000 H   0  0  0  0  0  0  0  0  0  0  0  0
    5.3473   -5.5049    0.0000 H   0  0  0  0  0  0  0  0  0  0  0  0
    7.7331    6.2765    0.0000 H   0  0  0  0  0  0  0  0  0  0  0  0
    7.1260   -6.8212    0.0000 H   0  0  0  0  0  0  0  0  0  0  0  0
    6.8797   -6.0631    0.0000 H   0  0  0  0  0  0  0  0  0  0  0  0
    8.0715   -5.1843    0.0000 H   0  0  0  0  0  0  0  0  0  0  0  0
    9.9490   -3.0991    0.0000 H   0  0  0  0  0  0  0  0  0  0  0  0
    4.2690    5.2765    0.0000 H   0  0  0  0  0  0  0  0  0  0  0  0
    3.7320    4.3465    0.0000 H   0  0  0  0  0  0  0  0  0  0  0  0
    8.8112    5.5739    0.0000 H   0  0  0  0  0  0  0  0  0  0  0  0
    9.2097    6.2641    0.0000 H   0  0  0  0  0  0  0  0  0  0  0  0
   11.1972    2.0365    0.0000 H   0  0  0  0  0  0  0  0  0  0  0  0
    9.7942    4.4665    0.0000 H   0  0  0  0  0  0  0  0  0  0  0  0
    5.7684   -7.3348    0.0000 H   0  0  0  0  0  0  0  0  0  0  0  0
    6.0147   -8.0928    0.0000 H   0  0  0  0  0  0  0  0  0  0  0  0
    6.3301    5.8465    0.0000 H   0  0  0  0  0  0  0  0  0  0  0  0
    8.3871    7.7391    0.0000 H   0  0  0  0  0  0  0  0  0  0  0  0
    7.9885    7.0488    0.0000 H   0  0  0  0  0  0  0  0  0  0  0  0
    9.2754   -6.2683    0.0000 H   0  0  0  0  0  0  0  0  0  0  0  0
   11.1529   -4.1831    0.0000 H   0  0  0  0  0  0  0  0  0  0  0  0
   11.1972    5.2765    0.0000 H   0  0  0  0  0  0  0  0  0  0  0  0
    6.5380    7.9665    0.0000 H   0  0  0  0  0  0  0  0  0  0  0  0
    7.6612   -8.4684    0.0000 H   0  0  0  0  0  0  0  0  0  0  0  0
    7.4149   -7.7104    0.0000 H   0  0  0  0  0  0  0  0  0  0  0  0
    9.6772    7.0739    0.0000 H   0  0  0  0  0  0  0  0  0  0  0  0
   10.0757    7.7641    0.0000 H   0  0  0  0  0  0  0  0  0  0  0  0
    4.7365    6.6815    0.0000 H   0  0  0  0  0  0  0  0  0  0  0  0
    5.5335    6.6815    0.0000 H   0  0  0  0  0  0  0  0  0  0  0  0
   12.9500    2.0018    0.0000 H   0  0  0  0  0  0  0  0  0  0  0  0
   12.9500    5.3111    0.0000 H   0  0  0  0  0  0  0  0  0  0  0  0
    4.0594   -7.3985    0.0000 H   0  0  0  0  0  0  0  0  0  0  0  0
    3.6584    7.7641    0.0000 H   0  0  0  0  0  0  0  0  0  0  0  0
    4.0569    7.0739    0.0000 H   0  0  0  0  0  0  0  0  0  0  0  0
   14.3990    2.8236    0.0000 H   0  0  0  0  0  0  0  0  0  0  0  0
   14.3990    4.4894    0.0000 H   0  0  0  0  0  0  0  0  0  0  0  0
    5.4641    8.9665    0.0000 H   0  0  0  0  0  0  0  0  0  0  0  0
    6.5380    8.9665    0.0000 H   0  0  0  0  0  0  0  0  0  0  0  0
   10.9696   -6.6284    0.0000 H   0  0  0  0  0  0  0  0  0  0  0  0
    4.8796    8.5488    0.0000 H   0  0  0  0  0  0  0  0  0  0  0  0
    4.4810    9.2391    0.0000 H   0  0  0  0  0  0  0  0  0  0  0  0
    7.8745  -11.2765    0.0000 H   0  0  0  0  0  0  0  0  0  0  0  0
    6.8240  -11.0532    0.0000 H   0  0  0  0  0  0  0  0  0  0  0  0
    9.0334   -9.9893    0.0000 H   0  0  0  0  0  0  0  0  0  0  0  0
    8.7016   -8.9680    0.0000 H   0  0  0  0  0  0  0  0  0  0  0  0
   10.8681   10.4665    0.0000 H   0  0  0  0  0  0  0  0  0  0  0  0
    9.7942   10.4665    0.0000 H   0  0  0  0  0  0  0  0  0  0  0  0
   11.7341    8.9665    0.0000 H   0  0  0  0  0  0  0  0  0  0  0  0
   11.1972    8.0365    0.0000 H   0  0  0  0  0  0  0  0  0  0  0  0
    4.2690   11.2765    0.0000 H   0  0  0  0  0  0  0  0  0  0  0  0
    4.8059   10.3465    0.0000 H   0  0  0  0  0  0  0  0  0  0  0  0
    2.5369   11.2765    0.0000 H   0  0  0  0  0  0  0  0  0  0  0  0
    2.0000   10.3465    0.0000 H   0  0  0  0  0  0  0  0  0  0  0  0
  1 31  2  0  0  0  0
  2 33  2  0  0  0  0
  3 38  2  0  0  0  0
  4 41  2  0  0  0  0
  5 47  2  0  0  0  0
  6 56  1  0  0  0  0
  6133  1  0  0  0  0
  7 56  2  0  0  0  0
  8 61  1  0  0  0  0
  8140  1  0  0  0  0
  9 64  2  0  0  0  0
 10 27  1  0  0  0  0
 10 30  1  0  0  0  0
 10 31  1  0  0  0  0
 11 33  1  0  0  0  0
 36 11  1  1  0  0  0
 11 88  1  0  0  0  0
 32 12  1  1  0  0  0
 12 38  1  0  0  0  0
 12 91  1  0  0  0  0
 40 13  1  1  0  0  0
 13 47  1  0  0  0  0
 13102  1  0  0  0  0
 14 41  1  0  0  0  0
 45 14  1  1  0  0  0
 14103  1  0  0  0  0
 15 42  1  0  0  0  0
 15110  1  0  0  0  0
 15111  1  0  0  0  0
 48 16  1  1  0  0  0
 16 64  1  0  0  0  0
 16118  1  0  0  0  0
 66 17  1  6  0  0  0
 17138  1  0  0  0  0
 17139  1  0  0  0  0
 18 65  1  0  0  0  0
 18 75  2  0  0  0  0
 19 67  1  0  0  0  0
 19 76  2  0  0  0  0
 20 74  1  0  0  0  0
 20 77  2  0  0  0  0
 21 75  1  0  0  0  0
 21143  1  0  0  0  0
 21144  1  0  0  0  0
 22 75  1  0  0  0  0
 22145  1  0  0  0  0
 22146  1  0  0  0  0
 23 76  1  0  0  0  0
 23147  1  0  0  0  0
 23148  1  0  0  0  0
 24 76  1  0  0  0  0
 24149  1  0  0  0  0
 24150  1  0  0  0  0
 25 77  1  0  0  0  0
 25151  1  0  0  0  0
 25152  1  0  0  0  0
 26 77  1  0  0  0  0
 26153  1  0  0  0  0
 26154  1  0  0  0  0
 27 28  1  0  0  0  0
 27 33  1  6  0  0  0
 27 78  1  0  0  0  0
 28 29  1  0  0  0  0
 28 79  1  0  0  0  0
 28 80  1  0  0  0  0
 29 30  1  0  0  0  0
 29 81  1  0  0  0  0
 29 82  1  0  0  0  0
 30 83  1  0  0  0  0
 30 84  1  0  0  0  0
 31 32  1  0  0  0  0
 32 34  1  0  0  0  0
 32 85  1  0  0  0  0
 34 35  1  0  0  0  0
 34 86  1  0  0  0  0
 34 87  1  0  0  0  0
 35 37  1  0  0  0  0
 35 89  1  0  0  0  0
 35 90  1  0  0  0  0
 36 39  1  0  0  0  0
 36 41  1  0  0  0  0
 36 92  1  0  0  0  0
 37 42  1  0  0  0  0
 37 93  1  0  0  0  0
 37 94  1  0  0  0  0
 38 40  1  0  0  0  0
 39 44  1  0  0  0  0
 39 95  1  0  0  0  0
 39 96  1  0  0  0  0
 40 43  1  0  0  0  0
 40 97  1  0  0  0  0
 42 98  1  0  0  0  0
 42 99  1  0  0  0  0
 43 46  1  0  0  0  0
 43100  1  0  0  0  0
 43101  1  0  0  0  0
 44 50  2  0  0  0  0
 44 51  1  0  0  0  0
 45 49  1  0  0  0  0
 45 56  1  0  0  0  0
 45104  1  0  0  0  0
 46 53  2  0  0  0  0
 46 54  1  0  0  0  0
 47 48  1  0  0  0  0
 48 52  1  0  0  0  0
 48105  1  0  0  0  0
 49 55  1  0  0  0  0
 49106  1  0  0  0  0
 49107  1  0  0  0  0
 50 58  1  0  0  0  0
 50108  1  0  0  0  0
 51 59  2  0  0  0  0
 51109  1  0  0  0  0
 52 57  1  0  0  0  0
 52112  1  0  0  0  0
 52113  1  0  0  0  0
 53 60  1  0  0  0  0
 53114  1  0  0  0  0
 54 62  2  0  0  0  0
 54115  1  0  0  0  0
 55 65  1  0  0  0  0
 55116  1  0  0  0  0
 55117  1  0  0  0  0
 57 67  1  0  0  0  0
 57119  1  0  0  0  0
 57120  1  0  0  0  0
 58 61  2  0  0  0  0
 58121  1  0  0  0  0
 59 61  1  0  0  0  0
 59122  1  0  0  0  0
 60 63  1  0  0  0  0
 60 69  2  0  0  0  0
 62 63  1  0  0  0  0
 62123  1  0  0  0  0
 63 70  2  0  0  0  0
 64 66  1  0  0  0  0
 65125  1  0  0  0  0
 65126  1  0  0  0  0
 66 68  1  0  0  0  0
 66124  1  0  0  0  0
 67127  1  0  0  0  0
 67128  1  0  0  0  0
 68 71  1  0  0  0  0
 68129  1  0  0  0  0
 68130  1  0  0  0  0
 69 72  1  0  0  0  0
 69131  1  0  0  0  0
 70 73  1  0  0  0  0
 70132  1  0  0  0  0
 71 74  1  0  0  0  0
 71134  1  0  0  0  0
 71135  1  0  0  0  0
 72 73  2  0  0  0  0
 72136  1  0  0  0  0
 73137  1  0  0  0  0
 74141  1  0  0  0  0
 74142  1  0  0  0  0
M  END
> <PUBCHEM_COMPOUND_CID>
511262
> <PUBCHEM_COMPOUND_CANONICALIZED>
1
> <PUBCHEM_CACTVS_COMPLEXITY>
2010
> <PUBCHEM_CACTVS_HBOND_ACCEPTOR>
14
> <PUBCHEM_CACTVS_HBOND_DONOR>
15
> <PUBCHEM_CACTVS_ROTATABLE_BOND>
32
> <PUBCHEM_CACTVS_SUBSKEYS>
AAADcfB//AAAAAAAAAAAAAAAAAAAAWAAAAAwYMAAAAAAAADBVAAAHgAQCAAADCzBmAQxDsPAAgCoAiHSPAACAAEgIAAIiIGOCIgKZjKCkTOUcAAk1hGYmAeY2eCO4AACAAAQAADAAAQAACAAAAAAAAAAAA==
> <PUBCHEM_IUPAC_OPENEYE_NAME>
(2S)-2-[[(2S)-2-[[(2S)-1-[(2R)-6-amino-2-[[(2S)-2-[[(2S)-2-[[(2S)-2-amino-5-guanidino-pentanoyl]amino]-5-guanidino-pentanoyl]amino]-3-(2-naphthyl)propanoyl]amino]hexanoyl]pyrrolidine-2-carbonyl]amino]-3-(4-hydroxyphenyl)propanoyl]amino]-5-guanidino-pentanoic acid
> <PUBCHEM_IUPAC_CAS_NAME>
(2S)-2-[[(2S)-2-[[[(2S)-1-[(2R)-6-amino-2-[[(2S)-2-[[(2S)-2-[[(2S)-2-amino-5-(diaminomethylideneamino)-1-oxopentyl]amino]-5-(diaminomethylideneamino)-1-oxopentyl]amino]-3-(2-naphthalenyl)-1-oxopropyl]amino]-1-oxohexyl]-2-pyrrolidinyl]-oxomethyl]amino]-3-(4-hydroxyphenyl)-1-oxopropyl]amino]-5-(diaminomethylideneamino)pentanoic acid
> <PUBCHEM_IUPAC_NAME_MARKUP>
(2<I>S</I>)-2-[[(2<I>S</I>)-2-[[(2<I>S</I>)-1-[(2<I>R</I>)-6-amino-2-[[(2<I>S</I>)-2-[[(2<I>S</I>)-2-[[(2<I>S</I>)-2-amino-5-(diaminomethylideneamino)pentanoyl]amino]-5-(diaminomethylideneamino)pentanoyl]amino]-3-naphthalen-2-ylpropanoyl]amino]hexanoyl]pyrrolidine-2-carbonyl]amino]-3-(4-hydroxyphenyl)propanoyl]amino]-5-(diaminomethylideneamino)pentanoic acid
> <PUBCHEM_IUPAC_NAME>
(2S)-2-[[(2S)-2-[[(2S)-1-[(2R)-6-amino-2-[[(2S)-2-[[(2S)-2-[[(2S)-2-amino-5-(diaminomethylideneamino)pentanoyl]amino]-5-(diaminomethylideneamino)pentanoyl]amino]-3-naphthalen-2-ylpropanoyl]amino]hexanoyl]pyrrolidine-2-carbonyl]amino]-3-(4-hydroxyphenyl)propanoyl]amino]-5-(diaminomethylideneamino)pentanoic acid
> <PUBCHEM_IUPAC_SYSTEMATIC_NAME>
(2S)-2-[[(2S)-2-[[(2S)-1-[(2R)-6-azanyl-2-[[(2S)-2-[[(2S)-2-[[(2S)-2-azanyl-5-[bis(azanyl)methylideneamino]pentanoyl]amino]-5-[bis(azanyl)methylideneamino]pentanoyl]amino]-3-naphthalen-2-yl-propanoyl]amino]hexanoyl]pyrrolidin-2-yl]carbonylamino]-3-(4-hydroxyphenyl)propanoyl]amino]-5-[bis(azanyl)methylideneamino]pentanoic acid
> <PUBCHEM_IUPAC_TRADITIONAL_NAME>
(2S)-2-[[(2S)-2-[[(2S)-1-[(2R)-6-amino-2-[[(2S)-2-[[(2S)-2-[[(2S)-2-amino-5-guanidino-pentanoyl]amino]-5-guanidino-pentanoyl]amino]-3-(2-naphthyl)propanoyl]amino]hexanoyl]prolyl]amino]-3-(4-hydroxyphenyl)propanoyl]amino]-5-guanidino-valeric acid
> <PUBCHEM_IUPAC_INCHI>
InChI=1S/C51H77N17O9/c52-22-4-3-12-37(47(75)68-26-8-15-41(68)46(74)67-39(28-30-17-20-34(69)21-18-30)45(73)65-38(48(76)77)14-7-25-62-51(58)59)64-44(72)40(29-31-16-19-32-9-1-2-10-33(32)27-31)66-43(71)36(13-6-24-61-50(56)57)63-42(70)35(53)11-5-23-60-49(54)55/h1-2,9-10,16-21,27,35-41,69H,3-8,11-15,22-26,28-29,52-53H2,(H,63,70)(H,64,72)(H,65,73)(H,66,71)(H,67,74)(H,76,77)(H4,54,55,60)(H4,56,57,61)(H4,58,59,62)/t35-,36-,37+,38-,39-,40-,41-/m0/s1
> <PUBCHEM_IUPAC_INCHIKEY>
UVTXOYCOMGINFK-MHNGZOTISA-N
> <PUBCHEM_XLOGP3_AA>
-4
> <PUBCHEM_EXACT_MASS>
1071.60901710
> <PUBCHEM_MOLECULAR_FORMULA>
C51H77N17O9
> <PUBCHEM_MOLECULAR_WEIGHT>
1072.3
> <PUBCHEM_OPENEYE_CAN_SMILES>
C1CC(N(C1)C(=O)C(CCCCN)NC(=O)C(CC2=CC3=CC=CC=C3C=C2)NC(=O)C(CCCN=C(N)N)NC(=O)C(CCCN=C(N)N)N)C(=O)NC(CC4=CC=C(C=C4)O)C(=O)NC(CCCN=C(N)N)C(=O)O
> <PUBCHEM_OPENEYE_ISO_SMILES>
C1C[C@H](N(C1)C(=O)[C@@H](CCCCN)NC(=O)[C@H](CC2=CC3=CC=CC=C3C=C2)NC(=O)[C@H](CCCN=C(N)N)NC(=O)[C@H](CCCN=C(N)N)N)C(=O)N[C@@H](CC4=CC=C(C=C4)O)C(=O)N[C@@H](CCCN=C(N)N)C(=O)O
> <PUBCHEM_CACTVS_TPSA>
469
> <PUBCHEM_MONOISOTOPIC_WEIGHT>
1071.60901710
> <PUBCHEM_TOTAL_CHARGE>
0
> <PUBCHEM_HEAVY_ATOM_COUNT>
77
> <PUBCHEM_ATOM_DEF_STEREO_COUNT>
7
> <PUBCHEM_ATOM_UDEF_STEREO_COUNT>
0
> <PUBCHEM_BOND_DEF_STEREO_COUNT>
0
> <PUBCHEM_BOND_UDEF_STEREO_COUNT>
0
> <PUBCHEM_ISOTOPIC_ATOM_COUNT>
0
> <PUBCHEM_COMPONENT_COUNT>
1
> <PUBCHEM_CACTVS_TAUTO_COUNT>
-1
> <PUBCHEM_COORDINATE_TYPE>
1
5
255
> <PUBCHEM_BONDANNOTATIONS>
36  11  5
32  12  5
40  13  5
45  14  5
48  16  5
66  17  6
27  33  6
44  50  8
44  51  8
46  53  8
46  54  8
50  58  8
51  59  8
53  60  8
54  62  8
58  61  8
59  61  8
60  63  8
60  69  8
62  63  8
63  70  8
69  72  8
70  73  8
72  73  8
$$$$
