511222
  -OEChem-10302200282D
 49 50  0     1  0  0  0  0  0999 V2000
    5.0009   -2.0619    0.0000 P   0  0  3  0  0  0  0  0  0  0  0  0
    4.5411    1.4208    0.0000 O   0  0  0  0  0  0  0  0  0  0  0  0
    4.4131   -1.2528    0.0000 O   0  0  0  0  0  0  0  0  0  0  0  0
    4.1919   -2.6496    0.0000 O   0  0  0  0  0  0  0  0  0  0  0  0
    5.8099   -1.4741    0.0000 O   0  0  0  0  0  0  0  0  0  0  0  0
    5.3630   -5.5070    0.0000 O   0  0  0  0  0  0  0  0  0  0  0  0
    6.7642   -4.4889    0.0000 O   0  0  0  0  0  0  0  0  0  0  0  0
    5.4641    3.0086    0.0000 O   0  0  0  0  0  0  0  0  0  0  0  0
    3.7320    6.0086    0.0000 O   0  0  0  0  0  0  0  0  0  0  0  0
    5.5887   -2.8709    0.0000 N   0  0  0  0  0  0  0  0  0  0  0  0
    3.7320    3.0086    0.0000 N   0  0  0  0  0  0  0  0  0  0  0  0
    4.5981    4.5086    0.0000 N   0  0  0  0  0  0  0  0  0  0  0  0
    4.2320    0.4697    0.0000 C   0  0  2  0  0  0  0  0  0  0  0  0
    3.7320    2.0086    0.0000 C   0  0  1  0  0  0  0  0  0  0  0  0
    4.1874   -3.8889    0.0000 C   0  0  0  0  0  0  0  0  0  0  0  0
    5.1819   -3.7844    0.0000 C   0  0  1  0  0  0  0  0  0  0  0  0
    4.8198   -0.3393    0.0000 C   0  0  0  0  0  0  0  0  0  0  0  0
    3.2320    0.4697    0.0000 C   0  0  0  0  0  0  0  0  0  0  0  0
    2.9230    1.4208    0.0000 C   0  0  0  0  0  0  0  0  0  0  0  0
    3.7807   -4.8025    0.0000 C   0  0  0  0  0  0  0  0  0  0  0  0
    3.5996   -3.0799    0.0000 C   0  0  0  0  0  0  0  0  0  0  0  0
    5.7697   -4.5934    0.0000 C   0  0  0  0  0  0  0  0  0  0  0  0
    2.8660    3.5086    0.0000 C   0  0  0  0  0  0  0  0  0  0  0  0
    4.5981    3.5086    0.0000 C   0  0  0  0  0  0  0  0  0  0  0  0
    2.8660    4.5086    0.0000 C   0  0  0  0  0  0  0  0  0  0  0  0
    3.7320    5.0086    0.0000 C   0  0  0  0  0  0  0  0  0  0  0  0
    2.0000    5.0086    0.0000 C   0  0  0  0  0  0  0  0  0  0  0  0
    4.8444    0.5667    0.0000 H   0  0  0  0  0  0  0  0  0  0  0  0
    4.5518   -4.3905    0.0000 H   0  0  0  0  0  0  0  0  0  0  0  0
    4.2845    2.2900    0.0000 H   0  0  0  0  0  0  0  0  0  0  0  0
    5.7985   -3.7196    0.0000 H   0  0  0  0  0  0  0  0  0  0  0  0
    5.3338   -0.6860    0.0000 H   0  0  0  0  0  0  0  0  0  0  0  0
    5.2505    0.1067    0.0000 H   0  0  0  0  0  0  0  0  0  0  0  0
    2.8676   -0.0319    0.0000 H   0  0  0  0  0  0  0  0  0  0  0  0
    2.3334    1.6124    0.0000 H   0  0  0  0  0  0  0  0  0  0  0  0
    6.2053   -2.8061    0.0000 H   0  0  0  0  0  0  0  0  0  0  0  0
    3.2143   -4.5503    0.0000 H   0  0  0  0  0  0  0  0  0  0  0  0
    3.5285   -5.3689    0.0000 H   0  0  0  0  0  0  0  0  0  0  0  0
    4.3471   -5.0547    0.0000 H   0  0  0  0  0  0  0  0  0  0  0  0
    4.1012   -2.7155    0.0000 H   0  0  0  0  0  0  0  0  0  0  0  0
    3.2352   -2.5783    0.0000 H   0  0  0  0  0  0  0  0  0  0  0  0
    3.0980   -3.4444    0.0000 H   0  0  0  0  0  0  0  0  0  0  0  0
    2.3291    3.1986    0.0000 H   0  0  0  0  0  0  0  0  0  0  0  0
    5.1350    4.8186    0.0000 H   0  0  0  0  0  0  0  0  0  0  0  0
    3.6255   -2.3975    0.0000 H   0  0  0  0  0  0  0  0  0  0  0  0
    2.3100    5.5455    0.0000 H   0  0  0  0  0  0  0  0  0  0  0  0
    1.4631    5.3186    0.0000 H   0  0  0  0  0  0  0  0  0  0  0  0
    1.6900    4.4716    0.0000 H   0  0  0  0  0  0  0  0  0  0  0  0
    5.7274   -6.0086    0.0000 H   0  0  0  0  0  0  0  0  0  0  0  0
  1  3  1  0  0  0  0
  1  4  1  0  0  0  0
  1  5  2  0  0  0  0
  1 10  1  0  0  0  0
  2 13  1  0  0  0  0
  2 14  1  0  0  0  0
  3 17  1  0  0  0  0
  4 45  1  0  0  0  0
  6 22  1  0  0  0  0
  6 49  1  0  0  0  0
  7 22  2  0  0  0  0
  8 24  2  0  0  0  0
  9 26  2  0  0  0  0
 16 10  1  6  0  0  0
 10 36  1  0  0  0  0
 14 11  1  6  0  0  0
 11 23  1  0  0  0  0
 11 24  1  0  0  0  0
 12 24  1  0  0  0  0
 12 26  1  0  0  0  0
 12 44  1  0  0  0  0
 13 17  1  6  0  0  0
 13 18  1  0  0  0  0
 13 28  1  0  0  0  0
 14 19  1  0  0  0  0
 14 30  1  0  0  0  0
 15 16  1  0  0  0  0
 15 20  1  0  0  0  0
 15 21  1  0  0  0  0
 15 29  1  0  0  0  0
 16 22  1  0  0  0  0
 16 31  1  0  0  0  0
 17 32  1  0  0  0  0
 17 33  1  0  0  0  0
 18 19  2  0  0  0  0
 18 34  1  0  0  0  0
 19 35  1  0  0  0  0
 20 37  1  0  0  0  0
 20 38  1  0  0  0  0
 20 39  1  0  0  0  0
 21 40  1  0  0  0  0
 21 41  1  0  0  0  0
 21 42  1  0  0  0  0
 23 25  2  0  0  0  0
 23 43  1  0  0  0  0
 25 26  1  0  0  0  0
 25 27  1  0  0  0  0
 27 46  1  0  0  0  0
 27 47  1  0  0  0  0
 27 48  1  0  0  0  0
M  END
> <PUBCHEM_COMPOUND_CID>
511222
> <PUBCHEM_COMPOUND_CANONICALIZED>
1
> <PUBCHEM_CACTVS_COMPLEXITY>
735
> <PUBCHEM_CACTVS_HBOND_ACCEPTOR>
9
> <PUBCHEM_CACTVS_HBOND_DONOR>
4
> <PUBCHEM_CACTVS_ROTATABLE_BOND>
8
> <PUBCHEM_CACTVS_SUBSKEYS>
AAADceBzPAIAAAAAAAAAAAAAAAAAAQAAAAAgAAAAAAAAAAAAAAAAHgAQiCAADTzhgAYDCAPABxCIQiHWWICAAAAgAAAICIGIAEiDBBAAIQAOUAAMVyIKIMIAAAAIAAAAAAAAAAAAAAAAAAAAAAAAAAAAAA==
> <PUBCHEM_IUPAC_OPENEYE_NAME>
(2S)-2-[[hydroxy-[[(2S,5R)-5-(5-methyl-2,4-dioxo-pyrimidin-1-yl)-2,5-dihydrofuran-2-yl]methoxy]phosphoryl]amino]-3-methyl-butanoic acid
> <PUBCHEM_IUPAC_CAS_NAME>
(2S)-2-[[hydroxy-[[(2S,5R)-5-(5-methyl-2,4-dioxo-1-pyrimidinyl)-2,5-dihydrofuran-2-yl]methoxy]phosphoryl]amino]-3-methylbutanoic acid
> <PUBCHEM_IUPAC_NAME_MARKUP>
(2<I>S</I>)-2-[[hydroxy-[[(2<I>S</I>,5<I>R</I>)-5-(5-methyl-2,4-dioxopyrimidin-1-yl)-2,5-dihydrofuran-2-yl]methoxy]phosphoryl]amino]-3-methylbutanoic acid
> <PUBCHEM_IUPAC_NAME>
(2S)-2-[[hydroxy-[[(2S,5R)-5-(5-methyl-2,4-dioxopyrimidin-1-yl)-2,5-dihydrofuran-2-yl]methoxy]phosphoryl]amino]-3-methylbutanoic acid
> <PUBCHEM_IUPAC_SYSTEMATIC_NAME>
(2S)-3-methyl-2-[[[(2S,5R)-5-[5-methyl-2,4-bis(oxidanylidene)pyrimidin-1-yl]-2,5-dihydrofuran-2-yl]methoxy-oxidanyl-phosphoryl]amino]butanoic acid
> <PUBCHEM_IUPAC_TRADITIONAL_NAME>
(2S)-2-[[[(2S,5R)-5-(2,4-diketo-5-methyl-pyrimidin-1-yl)-2,5-dihydrofuran-2-yl]methoxy-hydroxy-phosphoryl]amino]-3-methyl-butyric acid
> <PUBCHEM_IUPAC_INCHI>
InChI=1S/C15H22N3O8P/c1-8(2)12(14(20)21)17-27(23,24)25-7-10-4-5-11(26-10)18-6-9(3)13(19)16-15(18)22/h4-6,8,10-12H,7H2,1-3H3,(H,20,21)(H,16,19,22)(H2,17,23,24)/t10-,11+,12-/m0/s1
> <PUBCHEM_IUPAC_INCHIKEY>
KPHAQGBEBZLLSC-TUAOUCFPSA-N
> <PUBCHEM_XLOGP3>
-0.7
> <PUBCHEM_EXACT_MASS>
403.11445167
> <PUBCHEM_MOLECULAR_FORMULA>
C15H22N3O8P
> <PUBCHEM_MOLECULAR_WEIGHT>
403.32
> <PUBCHEM_OPENEYE_CAN_SMILES>
CC1=CN(C(=O)NC1=O)C2C=CC(O2)COP(=O)(NC(C(C)C)C(=O)O)O
> <PUBCHEM_OPENEYE_ISO_SMILES>
CC1=CN(C(=O)NC1=O)[C@H]2C=C[C@H](O2)COP(=O)(N[C@@H](C(C)C)C(=O)O)O
> <PUBCHEM_CACTVS_TPSA>
155
> <PUBCHEM_MONOISOTOPIC_WEIGHT>
403.11445167
> <PUBCHEM_TOTAL_CHARGE>
0
> <PUBCHEM_HEAVY_ATOM_COUNT>
27
> <PUBCHEM_ATOM_DEF_STEREO_COUNT>
3
> <PUBCHEM_ATOM_UDEF_STEREO_COUNT>
0
> <PUBCHEM_BOND_DEF_STEREO_COUNT>
0
> <PUBCHEM_BOND_UDEF_STEREO_COUNT>
0
> <PUBCHEM_ISOTOPIC_ATOM_COUNT>
0
> <PUBCHEM_COMPONENT_COUNT>
1
> <PUBCHEM_CACTVS_TAUTO_COUNT>
-1
> <PUBCHEM_COORDINATE_TYPE>
1
5
255
> <PUBCHEM_BONDANNOTATIONS>
16  10  6
14  11  6
11  23  8
11  24  8
12  24  8
12  26  8
13  17  6
23  25  8
25  26  8
$$$$
