511245
  -OEChem-10302200282D
 55 56  0     1  0  0  0  0  0999 V2000
    7.7469   -2.0649    0.0000 P   0  0  3  0  0  0  0  0  0  0  0  0
    5.8858    0.3996    0.0000 O   0  0  0  0  0  0  0  0  0  0  0  0
    7.1591   -1.2559    0.0000 O   0  0  0  0  0  0  0  0  0  0  0  0
    8.3347   -2.8739    0.0000 O   0  0  0  0  0  0  0  0  0  0  0  0
    6.8089    1.9874    0.0000 O   0  0  0  0  0  0  0  0  0  0  0  0
    8.5559   -1.4772    0.0000 O   0  0  0  0  0  0  0  0  0  0  0  0
    6.9379   -2.6527    0.0000 O   0  0  0  0  0  0  0  0  0  0  0  0
    5.0768    4.9874    0.0000 O   0  0  0  0  0  0  0  0  0  0  0  0
    5.0768    1.9874    0.0000 N   0  0  0  0  0  0  0  0  0  0  0  0
    3.9890   -1.3604    0.0000 N   0  0  0  0  0  0  0  0  0  0  0  0
    5.9428    3.4874    0.0000 N   0  0  0  0  0  0  0  0  0  0  0  0
    2.9945   -1.2559    0.0000 N   0  3  0  0  0  0  0  0  0  0  0  0
    2.0000   -1.1514    0.0000 N   0  5  0  0  0  0  0  0  0  0  0  0
    4.5768   -0.5514    0.0000 C   0  0  2  0  0  0  0  0  0  0  0  0
    5.5768   -0.5514    0.0000 C   0  0  1  0  0  0  0  0  0  0  0  0
    4.2678    0.3996    0.0000 C   0  0  0  0  0  0  0  0  0  0  0  0
    5.0768    0.9874    0.0000 C   0  0  1  0  0  0  0  0  0  0  0  0
    6.1646   -1.3604    0.0000 C   0  0  0  0  0  0  0  0  0  0  0  0
    4.2108    2.4874    0.0000 C   0  0  0  0  0  0  0  0  0  0  0  0
    5.9428    2.4874    0.0000 C   0  0  0  0  0  0  0  0  0  0  0  0
    4.2108    3.4874    0.0000 C   0  0  0  0  0  0  0  0  0  0  0  0
    5.0768    3.9874    0.0000 C   0  0  0  0  0  0  0  0  0  0  0  0
    9.9170   -3.5784    0.0000 C   0  0  0  0  0  0  0  0  0  0  0  0
   10.9115   -3.4739    0.0000 C   0  0  0  0  0  0  0  0  0  0  0  0
    9.3292   -2.7694    0.0000 C   0  0  0  0  0  0  0  0  0  0  0  0
   11.4993   -4.2829    0.0000 C   0  0  0  0  0  0  0  0  0  0  0  0
    3.3448    3.9874    0.0000 C   0  0  0  0  0  0  0  0  0  0  0  0
   12.4938   -4.1784    0.0000 C   0  0  0  0  0  0  0  0  0  0  0  0
   13.0816   -4.9874    0.0000 C   0  0  0  0  0  0  0  0  0  0  0  0
    3.9645   -0.4544    0.0000 H   0  0  0  0  0  0  0  0  0  0  0  0
    6.1892   -0.4544    0.0000 H   0  0  0  0  0  0  0  0  0  0  0  0
    3.9578    0.9366    0.0000 H   0  0  0  0  0  0  0  0  0  0  0  0
    3.7014    0.1475    0.0000 H   0  0  0  0  0  0  0  0  0  0  0  0
    4.5244    1.2689    0.0000 H   0  0  0  0  0  0  0  0  0  0  0  0
    5.6074   -1.6322    0.0000 H   0  0  0  0  0  0  0  0  0  0  0  0
    6.3355   -1.9564    0.0000 H   0  0  0  0  0  0  0  0  0  0  0  0
    3.6739    2.1774    0.0000 H   0  0  0  0  0  0  0  0  0  0  0  0
    6.4798    3.7974    0.0000 H   0  0  0  0  0  0  0  0  0  0  0  0
    9.3598   -3.8502    0.0000 H   0  0  0  0  0  0  0  0  0  0  0  0
   10.0879   -4.1744    0.0000 H   0  0  0  0  0  0  0  0  0  0  0  0
   11.4688   -3.2021    0.0000 H   0  0  0  0  0  0  0  0  0  0  0  0
   10.7406   -2.8779    0.0000 H   0  0  0  0  0  0  0  0  0  0  0  0
    9.8865   -2.4976    0.0000 H   0  0  0  0  0  0  0  0  0  0  0  0
    9.1583   -2.1734    0.0000 H   0  0  0  0  0  0  0  0  0  0  0  0
   10.9421   -4.5547    0.0000 H   0  0  0  0  0  0  0  0  0  0  0  0
   11.6702   -4.8789    0.0000 H   0  0  0  0  0  0  0  0  0  0  0  0
    3.6548    4.5244    0.0000 H   0  0  0  0  0  0  0  0  0  0  0  0
    2.8078    4.2974    0.0000 H   0  0  0  0  0  0  0  0  0  0  0  0
    3.0348    3.4505    0.0000 H   0  0  0  0  0  0  0  0  0  0  0  0
   13.0511   -3.9066    0.0000 H   0  0  0  0  0  0  0  0  0  0  0  0
   12.3229   -3.5824    0.0000 H   0  0  0  0  0  0  0  0  0  0  0  0
    8.4911   -0.8605    0.0000 H   0  0  0  0  0  0  0  0  0  0  0  0
   12.5800   -5.3518    0.0000 H   0  0  0  0  0  0  0  0  0  0  0  0
   13.4461   -5.4890    0.0000 H   0  0  0  0  0  0  0  0  0  0  0  0
   13.5832   -4.6230    0.0000 H   0  0  0  0  0  0  0  0  0  0  0  0
  1  3  1  0  0  0  0
  1  4  1  0  0  0  0
  1  6  1  0  0  0  0
  1  7  2  0  0  0  0
  2 15  1  0  0  0  0
  2 17  1  0  0  0  0
  3 18  1  0  0  0  0
  4 25  1  0  0  0  0
  5 20  2  0  0  0  0
  6 52  1  0  0  0  0
  8 22  2  0  0  0  0
 17  9  1  6  0  0  0
  9 19  1  0  0  0  0
  9 20  1  0  0  0  0
 10 12  2  0  0  0  0
 14 10  1  1  0  0  0
 11 20  1  0  0  0  0
 11 22  1  0  0  0  0
 11 38  1  0  0  0  0
 12 13  2  0  0  0  0
 14 15  1  0  0  0  0
 14 16  1  0  0  0  0
 14 30  1  0  0  0  0
 15 18  1  6  0  0  0
 15 31  1  0  0  0  0
 16 17  1  0  0  0  0
 16 32  1  0  0  0  0
 16 33  1  0  0  0  0
 17 34  1  0  0  0  0
 18 35  1  0  0  0  0
 18 36  1  0  0  0  0
 19 21  2  0  0  0  0
 19 37  1  0  0  0  0
 21 22  1  0  0  0  0
 21 27  1  0  0  0  0
 23 24  1  0  0  0  0
 23 25  1  0  0  0  0
 23 39  1  0  0  0  0
 23 40  1  0  0  0  0
 24 26  1  0  0  0  0
 24 41  1  0  0  0  0
 24 42  1  0  0  0  0
 25 43  1  0  0  0  0
 25 44  1  0  0  0  0
 26 28  1  0  0  0  0
 26 45  1  0  0  0  0
 26 46  1  0  0  0  0
 27 47  1  0  0  0  0
 27 48  1  0  0  0  0
 27 49  1  0  0  0  0
 28 29  1  0  0  0  0
 28 50  1  0  0  0  0
 28 51  1  0  0  0  0
 29 53  1  0  0  0  0
 29 54  1  0  0  0  0
 29 55  1  0  0  0  0
M  CHG  2  12   1  13  -1
M  END
> <PUBCHEM_COMPOUND_CID>
511245
> <PUBCHEM_COMPOUND_CANONICALIZED>
1
> <PUBCHEM_CACTVS_COMPLEXITY>
739
> <PUBCHEM_CACTVS_HBOND_ACCEPTOR>
9
> <PUBCHEM_CACTVS_HBOND_DONOR>
2
> <PUBCHEM_CACTVS_ROTATABLE_BOND>
11
> <PUBCHEM_CACTVS_SUBSKEYS>
AAADceB7uAIAAAAAAAAAAAAAAAAAASAAAAAgAAAAAAAAAAAAAAAAHgAYCCAADDzhgAYDAAPABRCKQgFWUICAAAAAAAAAAAEIAECDAAIAwQAPAAAOByICAMGwcAIAAAAAAAAAAAAAAAAAAAAAAAAAAAAAAA==
> <PUBCHEM_IUPAC_OPENEYE_NAME>
[(2S,3S,5R)-3-azido-5-(5-methyl-2,4-dioxo-pyrimidin-1-yl)tetrahydrofuran-2-yl]methyl hexyl hydrogen phosphate
> <PUBCHEM_IUPAC_CAS_NAME>
[(2S,3S,5R)-3-azido-5-(5-methyl-2,4-dioxo-1-pyrimidinyl)-2-oxolanyl]methyl hexyl hydrogen phosphate
> <PUBCHEM_IUPAC_NAME_MARKUP>
[(2<I>S</I>,3<I>S</I>,5<I>R</I>)-3-azido-5-(5-methyl-2,4-dioxopyrimidin-1-yl)oxolan-2-yl]methyl hexyl hydrogen phosphate
> <PUBCHEM_IUPAC_NAME>
[(2S,3S,5R)-3-azido-5-(5-methyl-2,4-dioxopyrimidin-1-yl)oxolan-2-yl]methyl hexyl hydrogen phosphate
> <PUBCHEM_IUPAC_SYSTEMATIC_NAME>
[(2S,3S,5R)-3-azido-5-[5-methyl-2,4-bis(oxidanylidene)pyrimidin-1-yl]oxolan-2-yl]methyl hexyl hydrogen phosphate
> <PUBCHEM_IUPAC_TRADITIONAL_NAME>
[(2S,3S,5R)-3-azido-5-(2,4-diketo-5-methyl-pyrimidin-1-yl)tetrahydrofuran-2-yl]methyl hexyl hydrogen phosphate
> <PUBCHEM_IUPAC_INCHI>
InChI=1S/C16H26N5O7P/c1-3-4-5-6-7-26-29(24,25)27-10-13-12(19-20-17)8-14(28-13)21-9-11(2)15(22)18-16(21)23/h9,12-14H,3-8,10H2,1-2H3,(H,24,25)(H,18,22,23)/t12-,13+,14+/m0/s1
> <PUBCHEM_IUPAC_INCHIKEY>
TXGIUXGRMRWFSX-BFHYXJOUSA-N
> <PUBCHEM_XLOGP3>
1.8
> <PUBCHEM_EXACT_MASS>
431.15698518
> <PUBCHEM_MOLECULAR_FORMULA>
C16H26N5O7P
> <PUBCHEM_MOLECULAR_WEIGHT>
431.38
> <PUBCHEM_OPENEYE_CAN_SMILES>
CCCCCCOP(=O)(O)OCC1C(CC(O1)N2C=C(C(=O)NC2=O)C)N=[N+]=[N-]
> <PUBCHEM_OPENEYE_ISO_SMILES>
CCCCCCOP(=O)(O)OC[C@@H]1[C@H](C[C@@H](O1)N2C=C(C(=O)NC2=O)C)N=[N+]=[N-]
> <PUBCHEM_CACTVS_TPSA>
129
> <PUBCHEM_MONOISOTOPIC_WEIGHT>
431.15698518
> <PUBCHEM_TOTAL_CHARGE>
0
> <PUBCHEM_HEAVY_ATOM_COUNT>
29
> <PUBCHEM_ATOM_DEF_STEREO_COUNT>
3
> <PUBCHEM_ATOM_UDEF_STEREO_COUNT>
0
> <PUBCHEM_BOND_DEF_STEREO_COUNT>
0
> <PUBCHEM_BOND_UDEF_STEREO_COUNT>
0
> <PUBCHEM_ISOTOPIC_ATOM_COUNT>
0
> <PUBCHEM_COMPONENT_COUNT>
1
> <PUBCHEM_CACTVS_TAUTO_COUNT>
-1
> <PUBCHEM_COORDINATE_TYPE>
1
5
255
> <PUBCHEM_BONDANNOTATIONS>
14  10  5
11  20  8
11  22  8
15  18  6
19  21  8
21  22  8
17  9  6
9  19  8
9  20  8
$$$$
