511216
  -OEChem-10302200282D
 46 47  0     1  0  0  0  0  0999 V2000
    5.0009   -1.9081    0.0000 P   0  0  3  0  0  0  0  0  0  0  0  0
    4.5411    1.5745    0.0000 O   0  0  0  0  0  0  0  0  0  0  0  0
    4.4131   -1.0991    0.0000 O   0  0  0  0  0  0  0  0  0  0  0  0
    4.1919   -2.4959    0.0000 O   0  0  0  0  0  0  0  0  0  0  0  0
    5.8099   -1.3204    0.0000 O   0  0  0  0  0  0  0  0  0  0  0  0
    5.4641    3.1623    0.0000 O   0  0  0  0  0  0  0  0  0  0  0  0
    3.7320    6.1623    0.0000 O   0  0  0  0  0  0  0  0  0  0  0  0
    5.3630   -5.3533    0.0000 O   0  0  0  0  0  0  0  0  0  0  0  0
    6.7642   -4.3352    0.0000 O   0  0  0  0  0  0  0  0  0  0  0  0
    3.7320    3.1623    0.0000 N   0  0  0  0  0  0  0  0  0  0  0  0
    5.5887   -2.7172    0.0000 N   0  0  0  0  0  0  0  0  0  0  0  0
    4.5981    4.6623    0.0000 N   0  0  0  0  0  0  0  0  0  0  0  0
    4.2320    0.6234    0.0000 C   0  0  2  0  0  0  0  0  0  0  0  0
    3.7320    2.1623    0.0000 C   0  0  1  0  0  0  0  0  0  0  0  0
    4.8198   -0.1856    0.0000 C   0  0  0  0  0  0  0  0  0  0  0  0
    3.2320    0.6234    0.0000 C   0  0  0  0  0  0  0  0  0  0  0  0
    2.9230    1.5745    0.0000 C   0  0  0  0  0  0  0  0  0  0  0  0
    2.8660    3.6623    0.0000 C   0  0  0  0  0  0  0  0  0  0  0  0
    4.5981    3.6623    0.0000 C   0  0  0  0  0  0  0  0  0  0  0  0
    2.8660    4.6623    0.0000 C   0  0  0  0  0  0  0  0  0  0  0  0
    5.1819   -3.6307    0.0000 C   0  0  1  0  0  0  0  0  0  0  0  0
    3.7320    5.1623    0.0000 C   0  0  0  0  0  0  0  0  0  0  0  0
    4.1874   -3.7352    0.0000 C   0  0  0  0  0  0  0  0  0  0  0  0
    2.0000    5.1623    0.0000 C   0  0  0  0  0  0  0  0  0  0  0  0
    5.7697   -4.4397    0.0000 C   0  0  0  0  0  0  0  0  0  0  0  0
    5.9508   -6.1623    0.0000 C   0  0  0  0  0  0  0  0  0  0  0  0
    4.8444    0.7204    0.0000 H   0  0  0  0  0  0  0  0  0  0  0  0
    4.2845    2.4438    0.0000 H   0  0  0  0  0  0  0  0  0  0  0  0
    5.3338   -0.5323    0.0000 H   0  0  0  0  0  0  0  0  0  0  0  0
    5.2505    0.2604    0.0000 H   0  0  0  0  0  0  0  0  0  0  0  0
    2.8676    0.1218    0.0000 H   0  0  0  0  0  0  0  0  0  0  0  0
    2.3334    1.7661    0.0000 H   0  0  0  0  0  0  0  0  0  0  0  0
    2.3291    3.3523    0.0000 H   0  0  0  0  0  0  0  0  0  0  0  0
    5.7985   -3.5659    0.0000 H   0  0  0  0  0  0  0  0  0  0  0  0
    6.2053   -2.6524    0.0000 H   0  0  0  0  0  0  0  0  0  0  0  0
    5.1350    4.9723    0.0000 H   0  0  0  0  0  0  0  0  0  0  0  0
    4.1226   -3.1186    0.0000 H   0  0  0  0  0  0  0  0  0  0  0  0
    3.5708   -3.8000    0.0000 H   0  0  0  0  0  0  0  0  0  0  0  0
    4.2522   -4.3518    0.0000 H   0  0  0  0  0  0  0  0  0  0  0  0
    2.3100    5.6992    0.0000 H   0  0  0  0  0  0  0  0  0  0  0  0
    1.4631    5.4723    0.0000 H   0  0  0  0  0  0  0  0  0  0  0  0
    1.6900    4.6254    0.0000 H   0  0  0  0  0  0  0  0  0  0  0  0
    3.6255   -2.2438    0.0000 H   0  0  0  0  0  0  0  0  0  0  0  0
    5.4492   -6.5267    0.0000 H   0  0  0  0  0  0  0  0  0  0  0  0
    6.3152   -6.6639    0.0000 H   0  0  0  0  0  0  0  0  0  0  0  0
    6.4524   -5.7979    0.0000 H   0  0  0  0  0  0  0  0  0  0  0  0
  1  3  1  0  0  0  0
  1  4  1  0  0  0  0
  1  5  2  0  0  0  0
  1 11  1  0  0  0  0
  2 13  1  0  0  0  0
  2 14  1  0  0  0  0
  3 15  1  0  0  0  0
  4 43  1  0  0  0  0
  6 19  2  0  0  0  0
  7 22  2  0  0  0  0
  8 25  1  0  0  0  0
  8 26  1  0  0  0  0
  9 25  2  0  0  0  0
 14 10  1  6  0  0  0
 10 18  1  0  0  0  0
 10 19  1  0  0  0  0
 21 11  1  6  0  0  0
 11 35  1  0  0  0  0
 12 19  1  0  0  0  0
 12 22  1  0  0  0  0
 12 36  1  0  0  0  0
 13 15  1  6  0  0  0
 13 16  1  0  0  0  0
 13 27  1  0  0  0  0
 14 17  1  0  0  0  0
 14 28  1  0  0  0  0
 15 29  1  0  0  0  0
 15 30  1  0  0  0  0
 16 17  2  0  0  0  0
 16 31  1  0  0  0  0
 17 32  1  0  0  0  0
 18 20  2  0  0  0  0
 18 33  1  0  0  0  0
 20 22  1  0  0  0  0
 20 24  1  0  0  0  0
 21 23  1  0  0  0  0
 21 25  1  0  0  0  0
 21 34  1  0  0  0  0
 23 37  1  0  0  0  0
 23 38  1  0  0  0  0
 23 39  1  0  0  0  0
 24 40  1  0  0  0  0
 24 41  1  0  0  0  0
 24 42  1  0  0  0  0
 26 44  1  0  0  0  0
 26 45  1  0  0  0  0
 26 46  1  0  0  0  0
M  END
> <PUBCHEM_COMPOUND_CID>
511216
> <PUBCHEM_COMPOUND_CANONICALIZED>
1
> <PUBCHEM_CACTVS_COMPLEXITY>
706
> <PUBCHEM_CACTVS_HBOND_ACCEPTOR>
9
> <PUBCHEM_CACTVS_HBOND_DONOR>
3
> <PUBCHEM_CACTVS_ROTATABLE_BOND>
8
> <PUBCHEM_CACTVS_SUBSKEYS>
AAADceBzPAIAAAAAAAAAAAAAAAAAAQAAAAAgAAAAAAAAAAAAAAAAHgAQiCAADDzhgAYDCAPABRCIQiHWWICAAAAgAAAICIGIAEiDBAAAIQAPEAAIVyIKIMIAAAAAAAAAAAAAAAAAAAAAAAAAAAAAAAAAAA==
> <PUBCHEM_IUPAC_OPENEYE_NAME>
N-[(1S)-2-methoxy-1-methyl-2-oxo-ethyl]-[[(2S,5R)-5-(5-methyl-2,4-dioxo-pyrimidin-1-yl)-2,5-dihydrofuran-2-yl]methoxy]phosphonamidic acid
> <PUBCHEM_IUPAC_CAS_NAME>
N-[(2S)-1-methoxy-1-oxopropan-2-yl]-[[(2S,5R)-5-(5-methyl-2,4-dioxo-1-pyrimidinyl)-2,5-dihydrofuran-2-yl]methoxy]phosphonamidic acid
> <PUBCHEM_IUPAC_NAME_MARKUP>
<I>N</I>-[(2<I>S</I>)-1-methoxy-1-oxopropan-2-yl]-[[(2<I>S</I>,5<I>R</I>)-5-(5-methyl-2,4-dioxopyrimidin-1-yl)-2,5-dihydrofuran-2-yl]methoxy]phosphonamidic acid
> <PUBCHEM_IUPAC_NAME>
N-[(2S)-1-methoxy-1-oxopropan-2-yl]-[[(2S,5R)-5-(5-methyl-2,4-dioxopyrimidin-1-yl)-2,5-dihydrofuran-2-yl]methoxy]phosphonamidic acid
> <PUBCHEM_IUPAC_SYSTEMATIC_NAME>
N-[(2S)-1-methoxy-1-oxidanylidene-propan-2-yl]-[[(2S,5R)-5-[5-methyl-2,4-bis(oxidanylidene)pyrimidin-1-yl]-2,5-dihydrofuran-2-yl]methoxy]phosphonamidic acid
> <PUBCHEM_IUPAC_TRADITIONAL_NAME>
[(2S,5R)-5-(2,4-diketo-5-methyl-pyrimidin-1-yl)-2,5-dihydrofuran-2-yl]methoxy-N-[(1S)-2-keto-2-methoxy-1-methyl-ethyl]phosphonamidic acid
> <PUBCHEM_IUPAC_INCHI>
InChI=1S/C14H20N3O8P/c1-8-6-17(14(20)15-12(8)18)11-5-4-10(25-11)7-24-26(21,22)16-9(2)13(19)23-3/h4-6,9-11H,7H2,1-3H3,(H,15,18,20)(H2,16,21,22)/t9-,10-,11+/m0/s1
> <PUBCHEM_IUPAC_INCHIKEY>
KRCNPUCVJZVHKZ-GARJFASQSA-N
> <PUBCHEM_XLOGP3>
-1.3
> <PUBCHEM_EXACT_MASS>
389.09880160
> <PUBCHEM_MOLECULAR_FORMULA>
C14H20N3O8P
> <PUBCHEM_MOLECULAR_WEIGHT>
389.30
> <PUBCHEM_OPENEYE_CAN_SMILES>
CC1=CN(C(=O)NC1=O)C2C=CC(O2)COP(=O)(NC(C)C(=O)OC)O
> <PUBCHEM_OPENEYE_ISO_SMILES>
CC1=CN(C(=O)NC1=O)[C@H]2C=C[C@H](O2)COP(=O)(N[C@@H](C)C(=O)OC)O
> <PUBCHEM_CACTVS_TPSA>
144
> <PUBCHEM_MONOISOTOPIC_WEIGHT>
389.09880160
> <PUBCHEM_TOTAL_CHARGE>
0
> <PUBCHEM_HEAVY_ATOM_COUNT>
26
> <PUBCHEM_ATOM_DEF_STEREO_COUNT>
3
> <PUBCHEM_ATOM_UDEF_STEREO_COUNT>
0
> <PUBCHEM_BOND_DEF_STEREO_COUNT>
0
> <PUBCHEM_BOND_UDEF_STEREO_COUNT>
0
> <PUBCHEM_ISOTOPIC_ATOM_COUNT>
0
> <PUBCHEM_COMPONENT_COUNT>
1
> <PUBCHEM_CACTVS_TAUTO_COUNT>
-1
> <PUBCHEM_COORDINATE_TYPE>
1
5
255
> <PUBCHEM_BONDANNOTATIONS>
14  10  6
10  18  8
10  19  8
21  11  6
12  19  8
12  22  8
13  15  6
18  20  8
20  22  8
$$$$
