511253
  -OEChem-10302200282D
197200  0     1  0  0  0  0  0999 V2000
    8.5991    3.4807    0.0000 S   0  0  0  0  0  0  0  0  0  0  0  0
    8.8579    2.5148    0.0000 S   0  0  0  0  0  0  0  0  0  0  0  0
   14.3297    7.3260    0.0000 O   0  0  0  0  0  0  0  0  0  0  0  0
   13.0632    5.4807    0.0000 O   0  0  0  0  0  0  0  0  0  0  0  0
   12.2978    4.7988    0.0000 O   0  0  0  0  0  0  0  0  0  0  0  0
    9.4651    3.9807    0.0000 O   0  0  0  0  0  0  0  0  0  0  0  0
   12.2040    1.6182    0.0000 O   0  0  0  0  0  0  0  0  0  0  0  0
    6.8671    6.4807    0.0000 O   0  0  0  0  0  0  0  0  0  0  0  0
   11.9452    0.6523    0.0000 O   0  0  0  0  0  0  0  0  0  0  0  0
    3.4030    5.4807    0.0000 O   0  0  0  0  0  0  0  0  0  0  0  0
   10.2028   -2.5043    0.0000 O   0  0  0  0  0  0  0  0  0  0  0  0
    4.2690    3.9807    0.0000 O   0  0  0  0  0  0  0  0  0  0  0  0
    9.9440   -3.4702    0.0000 O   0  0  0  0  0  0  0  0  0  0  0  0
   12.9292    6.9807    0.0000 N   0  0  0  0  0  0  0  0  0  0  0  0
   11.1972    4.9807    0.0000 N   0  0  0  0  0  0  0  0  0  0  0  0
   14.1876    4.6749    0.0000 N   0  0  0  0  0  0  0  0  0  0  0  0
   11.7557    3.2913    0.0000 N   0  0  0  0  0  0  0  0  0  0  0  0
    8.5991    5.4807    0.0000 N   0  0  0  0  0  0  0  0  0  0  0  0
   18.6462    4.4740    0.0000 N   0  0  0  0  0  0  0  0  0  0  0  0
    8.5991    8.4807    0.0000 N   0  0  0  0  0  0  0  0  0  0  0  0
   10.2721    1.1006    0.0000 N   0  0  0  0  0  0  0  0  0  0  0  0
    6.0010    4.9807    0.0000 N   0  0  0  0  0  0  0  0  0  0  0  0
   16.5308    1.4311    0.0000 N   0  0  0  0  0  0  0  0  0  0  0  0
   11.4275   -1.2795    0.0000 N   0  0  0  0  0  0  0  0  0  0  0  0
    7.7331    9.9807    0.0000 N   0  0  0  0  0  0  0  0  0  0  0  0
    9.4651    9.9807    0.0000 N   0  0  0  0  0  0  0  0  0  0  0  0
   11.6170   -3.9185    0.0000 N   0  0  0  0  0  0  0  0  0  0  0  0
    8.2709   -3.0219    0.0000 N   0  0  0  0  0  0  0  0  0  0  0  0
    3.4030    8.4807    0.0000 N   0  0  0  0  0  0  0  0  0  0  0  0
    9.4263   -5.4021    0.0000 N   0  0  0  0  0  0  0  0  0  0  0  0
    7.0462   -4.2467    0.0000 N   0  0  0  0  0  0  0  0  0  0  0  0
    6.5979   -2.5736    0.0000 N   0  0  0  0  0  0  0  0  0  0  0  0
   11.2888   -8.4893    0.0000 N   0  0  0  0  0  0  0  0  0  0  0  0
    2.5369    9.9807    0.0000 N   0  0  0  0  0  0  0  0  0  0  0  0
    4.2690    9.9807    0.0000 N   0  0  0  0  0  0  0  0  0  0  0  0
   11.7371  -10.1623    0.0000 N   0  0  0  0  0  0  0  0  0  0  0  0
   12.9619   -8.9376    0.0000 N   0  0  0  0  0  0  0  0  0  0  0  0
   12.0632    6.4807    0.0000 C   0  0  1  0  0  0  0  0  0  0  0  0
   11.3262    7.1478    0.0000 C   0  0  0  0  0  0  0  0  0  0  0  0
   11.7313    8.0556    0.0000 C   0  0  0  0  0  0  0  0  0  0  0  0
   12.7200    7.9526    0.0000 C   0  0  0  0  0  0  0  0  0  0  0  0
   13.7953    6.4807    0.0000 C   0  0  0  0  0  0  0  0  0  0  0  0
   14.4464    5.6409    0.0000 C   0  0  1  0  0  0  0  0  0  0  0  0
   12.0632    5.4807    0.0000 C   0  0  0  0  0  0  0  0  0  0  0  0
   15.4369    5.7781    0.0000 C   0  0  0  0  0  0  0  0  0  0  0  0
   10.3312    5.4807    0.0000 C   0  0  1  0  0  0  0  0  0  0  0  0
   16.0510    4.9888    0.0000 C   0  0  0  0  0  0  0  0  0  0  0  0
   10.3312    6.4807    0.0000 C   0  0  0  0  0  0  0  0  0  0  0  0
   17.0416    5.1261    0.0000 C   0  0  0  0  0  0  0  0  0  0  0  0
   13.2216    4.4161    0.0000 C   0  0  0  0  0  0  0  0  0  0  0  0
   12.7216    3.5501    0.0000 C   0  0  2  0  0  0  0  0  0  0  0  0
    9.4651    4.9807    0.0000 C   0  0  0  0  0  0  0  0  0  0  0  0
    9.4651    6.9807    0.0000 C   0  0  0  0  0  0  0  0  0  0  0  0
   13.3304    2.7567    0.0000 C   0  0  0  0  0  0  0  0  0  0  0  0
   17.6557    4.3368    0.0000 C   0  0  0  0  0  0  0  0  0  0  0  0
   14.3218    2.8873    0.0000 C   0  0  0  0  0  0  0  0  0  0  0  0
    9.4651    7.9807    0.0000 C   0  0  0  0  0  0  0  0  0  0  0  0
    7.7331    4.9807    0.0000 C   0  0  1  0  0  0  0  0  0  0  0  0
   14.9306    2.0939    0.0000 C   0  0  0  0  0  0  0  0  0  0  0  0
   11.4969    2.3253    0.0000 C   0  0  0  0  0  0  0  0  0  0  0  0
   10.5310    2.0665    0.0000 C   0  0  2  0  0  0  0  0  0  0  0  0
    7.7331    3.9807    0.0000 C   0  0  0  0  0  0  0  0  0  0  0  0
    6.8671    5.4807    0.0000 C   0  0  0  0  0  0  0  0  0  0  0  0
   15.9220    2.2244    0.0000 C   0  0  0  0  0  0  0  0  0  0  0  0
    9.8239    2.7736    0.0000 C   0  0  0  0  0  0  0  0  0  0  0  0
   10.7204   -0.5724    0.0000 C   0  0  2  0  0  0  0  0  0  0  0  0
   10.9793    0.3935    0.0000 C   0  0  0  0  0  0  0  0  0  0  0  0
    5.1350    5.4807    0.0000 C   0  0  1  0  0  0  0  0  0  0  0  0
    9.7545   -0.8312    0.0000 C   0  0  0  0  0  0  0  0  0  0  0  0
    8.5991    9.4807    0.0000 C   0  0  0  0  0  0  0  0  0  0  0  0
    5.1350    6.4807    0.0000 C   0  0  0  0  0  0  0  0  0  0  0  0
    9.4957   -1.7972    0.0000 C   0  0  0  0  0  0  0  0  0  0  0  0
    4.2690    6.9807    0.0000 C   0  0  0  0  0  0  0  0  0  0  0  0
   11.8758   -2.9526    0.0000 C   0  0  2  0  0  0  0  0  0  0  0  0
    4.2690    4.9807    0.0000 C   0  0  0  0  0  0  0  0  0  0  0  0
   11.1687   -2.2455    0.0000 C   0  0  0  0  0  0  0  0  0  0  0  0
   12.8418   -2.6938    0.0000 C   0  0  0  0  0  0  0  0  0  0  0  0
    8.5298   -2.0560    0.0000 C   0  0  0  0  0  0  0  0  0  0  0  0
    4.2690    7.9807    0.0000 C   0  0  0  0  0  0  0  0  0  0  0  0
   13.5489   -3.4009    0.0000 C   0  0  0  0  0  0  0  0  0  0  0  0
   10.3923   -5.1432    0.0000 C   0  0  2  0  0  0  0  0  0  0  0  0
   10.6511   -4.1773    0.0000 C   0  0  0  0  0  0  0  0  0  0  0  0
   11.0994   -5.8504    0.0000 C   0  0  0  0  0  0  0  0  0  0  0  0
   13.2900   -4.3668    0.0000 C   0  0  0  0  0  0  0  0  0  0  0  0
   14.5148   -3.1420    0.0000 C   0  0  0  0  0  0  0  0  0  0  0  0
   13.9971   -5.0739    0.0000 C   0  0  0  0  0  0  0  0  0  0  0  0
   10.8406   -6.8163    0.0000 C   0  0  0  0  0  0  0  0  0  0  0  0
   14.9631   -4.8151    0.0000 C   0  0  0  0  0  0  0  0  0  0  0  0
   15.2219   -3.8491    0.0000 C   0  0  0  0  0  0  0  0  0  0  0  0
   11.5477   -7.5234    0.0000 C   0  0  0  0  0  0  0  0  0  0  0  0
    7.3050   -3.2807    0.0000 C   0  0  0  0  0  0  0  0  0  0  0  0
   13.7121   -6.0758    0.0000 C   0  0  0  0  0  0  0  0  0  0  0  0
   15.7109   -5.5402    0.0000 C   0  0  0  0  0  0  0  0  0  0  0  0
    3.4030    9.4807    0.0000 C   0  0  0  0  0  0  0  0  0  0  0  0
   14.4429   -6.8180    0.0000 C   0  0  0  0  0  0  0  0  0  0  0  0
   15.4491   -6.5484    0.0000 C   0  0  0  0  0  0  0  0  0  0  0  0
   11.9959   -9.1964    0.0000 C   0  0  0  0  0  0  0  0  0  0  0  0
   11.2863    6.1360    0.0000 H   0  0  0  0  0  0  0  0  0  0  0  0
   10.7897    7.4586    0.0000 H   0  0  0  0  0  0  0  0  0  0  0  0
   10.9608    6.6470    0.0000 H   0  0  0  0  0  0  0  0  0  0  0  0
   11.8600    8.6621    0.0000 H   0  0  0  0  0  0  0  0  0  0  0  0
   11.1417    8.2474    0.0000 H   0  0  0  0  0  0  0  0  0  0  0  0
   13.3365    8.0186    0.0000 H   0  0  0  0  0  0  0  0  0  0  0  0
   12.7191    8.5726    0.0000 H   0  0  0  0  0  0  0  0  0  0  0  0
   14.8567    5.1761    0.0000 H   0  0  0  0  0  0  0  0  0  0  0  0
   15.9849    6.0681    0.0000 H   0  0  0  0  0  0  0  0  0  0  0  0
   15.2465    6.3681    0.0000 H   0  0  0  0  0  0  0  0  0  0  0  0
   11.1972    4.3607    0.0000 H   0  0  0  0  0  0  0  0  0  0  0  0
   10.8681    5.7907    0.0000 H   0  0  0  0  0  0  0  0  0  0  0  0
   15.5030    4.6989    0.0000 H   0  0  0  0  0  0  0  0  0  0  0  0
   16.2414    4.3988    0.0000 H   0  0  0  0  0  0  0  0  0  0  0  0
   14.6260    4.2365    0.0000 H   0  0  0  0  0  0  0  0  0  0  0  0
   10.9417    6.3731    0.0000 H   0  0  0  0  0  0  0  0  0  0  0  0
   10.5432    7.0634    0.0000 H   0  0  0  0  0  0  0  0  0  0  0  0
   17.5896    5.4160    0.0000 H   0  0  0  0  0  0  0  0  0  0  0  0
   16.8511    5.7161    0.0000 H   0  0  0  0  0  0  0  0  0  0  0  0
   12.5223    2.9630    0.0000 H   0  0  0  0  0  0  0  0  0  0  0  0
    8.8546    7.0884    0.0000 H   0  0  0  0  0  0  0  0  0  0  0  0
    9.2531    6.3981    0.0000 H   0  0  0  0  0  0  0  0  0  0  0  0
   12.7805    2.4705    0.0000 H   0  0  0  0  0  0  0  0  0  0  0  0
   13.5168    2.1654    0.0000 H   0  0  0  0  0  0  0  0  0  0  0  0
   17.1077    4.0468    0.0000 H   0  0  0  0  0  0  0  0  0  0  0  0
   17.8461    3.7468    0.0000 H   0  0  0  0  0  0  0  0  0  0  0  0
   14.8718    3.1736    0.0000 H   0  0  0  0  0  0  0  0  0  0  0  0
   14.1354    3.4786    0.0000 H   0  0  0  0  0  0  0  0  0  0  0  0
   11.3173    3.7297    0.0000 H   0  0  0  0  0  0  0  0  0  0  0  0
    8.5991    6.1007    0.0000 H   0  0  0  0  0  0  0  0  0  0  0  0
   10.0757    7.8731    0.0000 H   0  0  0  0  0  0  0  0  0  0  0  0
    9.6772    8.5634    0.0000 H   0  0  0  0  0  0  0  0  0  0  0  0
    7.7331    5.6007    0.0000 H   0  0  0  0  0  0  0  0  0  0  0  0
   14.3807    1.8076    0.0000 H   0  0  0  0  0  0  0  0  0  0  0  0
   15.1170    1.5026    0.0000 H   0  0  0  0  0  0  0  0  0  0  0  0
    9.9321    1.9061    0.0000 H   0  0  0  0  0  0  0  0  0  0  0  0
   19.0269    3.9847    0.0000 H   0  0  0  0  0  0  0  0  0  0  0  0
   18.8796    5.0484    0.0000 H   0  0  0  0  0  0  0  0  0  0  0  0
    7.1225    4.0884    0.0000 H   0  0  0  0  0  0  0  0  0  0  0  0
    7.5210    3.3981    0.0000 H   0  0  0  0  0  0  0  0  0  0  0  0
   16.4720    2.5107    0.0000 H   0  0  0  0  0  0  0  0  0  0  0  0
   15.7356    2.8157    0.0000 H   0  0  0  0  0  0  0  0  0  0  0  0
   10.3317    3.1292    0.0000 H   0  0  0  0  0  0  0  0  0  0  0  0
    9.5618    3.3356    0.0000 H   0  0  0  0  0  0  0  0  0  0  0  0
    9.6733    0.9401    0.0000 H   0  0  0  0  0  0  0  0  0  0  0  0
    6.0010    4.3607    0.0000 H   0  0  0  0  0  0  0  0  0  0  0  0
   10.5600   -1.1713    0.0000 H   0  0  0  0  0  0  0  0  0  0  0  0
    5.6720    5.7907    0.0000 H   0  0  0  0  0  0  0  0  0  0  0  0
   17.1455    1.5120    0.0000 H   0  0  0  0  0  0  0  0  0  0  0  0
   16.2935    0.8583    0.0000 H   0  0  0  0  0  0  0  0  0  0  0  0
    9.7005   -0.2136    0.0000 H   0  0  0  0  0  0  0  0  0  0  0  0
    9.1369   -0.7772    0.0000 H   0  0  0  0  0  0  0  0  0  0  0  0
    5.7456    6.3731    0.0000 H   0  0  0  0  0  0  0  0  0  0  0  0
    5.3471    7.0634    0.0000 H   0  0  0  0  0  0  0  0  0  0  0  0
   12.0264   -1.1191    0.0000 H   0  0  0  0  0  0  0  0  0  0  0  0
    9.5497   -2.4148    0.0000 H   0  0  0  0  0  0  0  0  0  0  0  0
   10.1133   -1.8512    0.0000 H   0  0  0  0  0  0  0  0  0  0  0  0
    3.6584    7.0884    0.0000 H   0  0  0  0  0  0  0  0  0  0  0  0
    4.0569    6.3981    0.0000 H   0  0  0  0  0  0  0  0  0  0  0  0
   11.2770   -3.1130    0.0000 H   0  0  0  0  0  0  0  0  0  0  0  0
   13.3496   -2.3381    0.0000 H   0  0  0  0  0  0  0  0  0  0  0  0
   12.5797   -2.1318    0.0000 H   0  0  0  0  0  0  0  0  0  0  0  0
    8.4757   -1.4384    0.0000 H   0  0  0  0  0  0  0  0  0  0  0  0
    7.9121   -2.0020    0.0000 H   0  0  0  0  0  0  0  0  0  0  0  0
    7.7331   10.6007    0.0000 H   0  0  0  0  0  0  0  0  0  0  0  0
    7.1962    9.6707    0.0000 H   0  0  0  0  0  0  0  0  0  0  0  0
    9.4651   10.6007    0.0000 H   0  0  0  0  0  0  0  0  0  0  0  0
   10.0021    9.6707    0.0000 H   0  0  0  0  0  0  0  0  0  0  0  0
    4.8796    7.8731    0.0000 H   0  0  0  0  0  0  0  0  0  0  0  0
    4.4810    8.5634    0.0000 H   0  0  0  0  0  0  0  0  0  0  0  0
   12.0554   -4.3569    0.0000 H   0  0  0  0  0  0  0  0  0  0  0  0
   10.2318   -5.7421    0.0000 H   0  0  0  0  0  0  0  0  0  0  0  0
   11.6613   -6.1124    0.0000 H   0  0  0  0  0  0  0  0  0  0  0  0
   11.4550   -5.3425    0.0000 H   0  0  0  0  0  0  0  0  0  0  0  0
    2.8660    5.1707    0.0000 H   0  0  0  0  0  0  0  0  0  0  0  0
   12.6912   -4.5273    0.0000 H   0  0  0  0  0  0  0  0  0  0  0  0
   14.6753   -2.5432    0.0000 H   0  0  0  0  0  0  0  0  0  0  0  0
   10.2786   -6.5542    0.0000 H   0  0  0  0  0  0  0  0  0  0  0  0
   10.4849   -7.3242    0.0000 H   0  0  0  0  0  0  0  0  0  0  0  0
   15.8208   -3.6887    0.0000 H   0  0  0  0  0  0  0  0  0  0  0  0
    9.2659   -6.0009    0.0000 H   0  0  0  0  0  0  0  0  0  0  0  0
    8.9879   -4.9636    0.0000 H   0  0  0  0  0  0  0  0  0  0  0  0
   12.1096   -7.7854    0.0000 H   0  0  0  0  0  0  0  0  0  0  0  0
   11.9033   -7.0155    0.0000 H   0  0  0  0  0  0  0  0  0  0  0  0
   13.1114   -6.2293    0.0000 H   0  0  0  0  0  0  0  0  0  0  0  0
   16.3079   -5.3728    0.0000 H   0  0  0  0  0  0  0  0  0  0  0  0
   14.2801   -7.4162    0.0000 H   0  0  0  0  0  0  0  0  0  0  0  0
   15.8892   -6.9851    0.0000 H   0  0  0  0  0  0  0  0  0  0  0  0
    6.4473   -4.4071    0.0000 H   0  0  0  0  0  0  0  0  0  0  0  0
    7.4846   -4.6851    0.0000 H   0  0  0  0  0  0  0  0  0  0  0  0
    5.9990   -2.7341    0.0000 H   0  0  0  0  0  0  0  0  0  0  0  0
    6.7584   -1.9748    0.0000 H   0  0  0  0  0  0  0  0  0  0  0  0
    2.5369   10.6007    0.0000 H   0  0  0  0  0  0  0  0  0  0  0  0
    2.0000    9.6707    0.0000 H   0  0  0  0  0  0  0  0  0  0  0  0
    4.2690   10.6007    0.0000 H   0  0  0  0  0  0  0  0  0  0  0  0
    4.8059    9.6707    0.0000 H   0  0  0  0  0  0  0  0  0  0  0  0
   12.1755  -10.6007    0.0000 H   0  0  0  0  0  0  0  0  0  0  0  0
   11.1383  -10.3228    0.0000 H   0  0  0  0  0  0  0  0  0  0  0  0
   13.4003   -9.3760    0.0000 H   0  0  0  0  0  0  0  0  0  0  0  0
   13.1223   -8.3387    0.0000 H   0  0  0  0  0  0  0  0  0  0  0  0
  1  2  1  0  0  0  0
  1 62  1  0  0  0  0
  2 65  1  0  0  0  0
  3 42  2  0  0  0  0
  4 44  2  0  0  0  0
  5 50  2  0  0  0  0
  6 52  2  0  0  0  0
  7 60  2  0  0  0  0
  8 63  2  0  0  0  0
  9 67  2  0  0  0  0
 10 75  1  0  0  0  0
 10172  1  0  0  0  0
 11 76  2  0  0  0  0
 12 75  2  0  0  0  0
 13 82  2  0  0  0  0
 14 38  1  0  0  0  0
 14 41  1  0  0  0  0
 14 42  1  0  0  0  0
 15 44  1  0  0  0  0
 15 46  1  0  0  0  0
 15108  1  0  0  0  0
 16 43  1  0  0  0  0
 16 50  1  0  0  0  0
 16112  1  0  0  0  0
 17 51  1  0  0  0  0
 17 60  1  0  0  0  0
 17126  1  0  0  0  0
 18 52  1  0  0  0  0
 18 58  1  0  0  0  0
 18127  1  0  0  0  0
 19 55  1  0  0  0  0
 19134  1  0  0  0  0
 19135  1  0  0  0  0
 20 57  1  0  0  0  0
 20 70  2  0  0  0  0
 61 21  1  1  0  0  0
 21 67  1  0  0  0  0
 21142  1  0  0  0  0
 22 63  1  0  0  0  0
 68 22  1  6  0  0  0
 22143  1  0  0  0  0
 23 64  1  0  0  0  0
 23146  1  0  0  0  0
 23147  1  0  0  0  0
 66 24  1  1  0  0  0
 24 76  1  0  0  0  0
 24152  1  0  0  0  0
 25 70  1  0  0  0  0
 25162  1  0  0  0  0
 25163  1  0  0  0  0
 26 70  1  0  0  0  0
 26164  1  0  0  0  0
 26165  1  0  0  0  0
 74 27  1  6  0  0  0
 27 82  1  0  0  0  0
 27168  1  0  0  0  0
 28 78  1  0  0  0  0
 28 91  2  0  0  0  0
 29 79  1  0  0  0  0
 29 94  2  0  0  0  0
 81 30  1  6  0  0  0
 30178  1  0  0  0  0
 30179  1  0  0  0  0
 31 91  1  0  0  0  0
 31186  1  0  0  0  0
 31187  1  0  0  0  0
 32 91  1  0  0  0  0
 32188  1  0  0  0  0
 32189  1  0  0  0  0
 33 90  1  0  0  0  0
 33 97  2  0  0  0  0
 34 94  1  0  0  0  0
 34190  1  0  0  0  0
 34191  1  0  0  0  0
 35 94  1  0  0  0  0
 35192  1  0  0  0  0
 35193  1  0  0  0  0
 36 97  1  0  0  0  0
 36194  1  0  0  0  0
 36195  1  0  0  0  0
 37 97  1  0  0  0  0
 37196  1  0  0  0  0
 37197  1  0  0  0  0
 38 39  1  0  0  0  0
 38 44  1  0  0  0  0
 38 98  1  1  0  0  0
 39 40  1  0  0  0  0
 39 99  1  0  0  0  0
 39100  1  0  0  0  0
 40 41  1  0  0  0  0
 40101  1  0  0  0  0
 40102  1  0  0  0  0
 41103  1  0  0  0  0
 41104  1  0  0  0  0
 42 43  1  0  0  0  0
 43 45  1  1  0  0  0
 43105  1  0  0  0  0
 45 47  1  0  0  0  0
 45106  1  0  0  0  0
 45107  1  0  0  0  0
 46 48  1  6  0  0  0
 46 52  1  0  0  0  0
 46109  1  0  0  0  0
 47 49  1  0  0  0  0
 47110  1  0  0  0  0
 47111  1  0  0  0  0
 48 53  1  0  0  0  0
 48113  1  0  0  0  0
 48114  1  0  0  0  0
 49 55  1  0  0  0  0
 49115  1  0  0  0  0
 49116  1  0  0  0  0
 50 51  1  0  0  0  0
 51 54  1  6  0  0  0
 51117  1  0  0  0  0
 53 57  1  0  0  0  0
 53118  1  0  0  0  0
 53119  1  0  0  0  0
 54 56  1  0  0  0  0
 54120  1  0  0  0  0
 54121  1  0  0  0  0
 55122  1  0  0  0  0
 55123  1  0  0  0  0
 56 59  1  0  0  0  0
 56124  1  0  0  0  0
 56125  1  0  0  0  0
 57128  1  0  0  0  0
 57129  1  0  0  0  0
 58 62  1  0  0  0  0
 58 63  1  1  0  0  0
 58130  1  0  0  0  0
 59 64  1  0  0  0  0
 59131  1  0  0  0  0
 59132  1  0  0  0  0
 60 61  1  0  0  0  0
 61 65  1  0  0  0  0
 61133  1  0  0  0  0
 62136  1  0  0  0  0
 62137  1  0  0  0  0
 64138  1  0  0  0  0
 64139  1  0  0  0  0
 65140  1  0  0  0  0
 65141  1  0  0  0  0
 66 67  1  0  0  0  0
 66 69  1  0  0  0  0
 66144  1  0  0  0  0
 68 71  1  0  0  0  0
 68 75  1  0  0  0  0
 68145  1  0  0  0  0
 69 72  1  0  0  0  0
 69148  1  0  0  0  0
 69149  1  0  0  0  0
 71 73  1  0  0  0  0
 71150  1  0  0  0  0
 71151  1  0  0  0  0
 72 78  1  0  0  0  0
 72153  1  0  0  0  0
 72154  1  0  0  0  0
 73 79  1  0  0  0  0
 73155  1  0  0  0  0
 73156  1  0  0  0  0
 74 76  1  0  0  0  0
 74 77  1  0  0  0  0
 74157  1  0  0  0  0
 77 80  1  0  0  0  0
 77158  1  0  0  0  0
 77159  1  0  0  0  0
 78160  1  0  0  0  0
 78161  1  0  0  0  0
 79166  1  0  0  0  0
 79167  1  0  0  0  0
 80 84  2  0  0  0  0
 80 85  1  0  0  0  0
 81 82  1  0  0  0  0
 81 83  1  0  0  0  0
 81169  1  0  0  0  0
 83 87  1  0  0  0  0
 83170  1  0  0  0  0
 83171  1  0  0  0  0
 84 86  1  0  0  0  0
 84173  1  0  0  0  0
 85 89  2  0  0  0  0
 85174  1  0  0  0  0
 86 88  1  0  0  0  0
 86 92  2  0  0  0  0
 87 90  1  0  0  0  0
 87175  1  0  0  0  0
 87176  1  0  0  0  0
 88 89  1  0  0  0  0
 88 93  2  0  0  0  0
 89177  1  0  0  0  0
 90180  1  0  0  0  0
 90181  1  0  0  0  0
 92 95  1  0  0  0  0
 92182  1  0  0  0  0
 93 96  1  0  0  0  0
 93183  1  0  0  0  0
 95 96  2  0  0  0  0
 95184  1  0  0  0  0
 96185  1  0  0  0  0
M  END
> <PUBCHEM_COMPOUND_CID>
511253
> <PUBCHEM_COMPOUND_CANONICALIZED>
1
> <PUBCHEM_CACTVS_COMPLEXITY>
2700
> <PUBCHEM_CACTVS_HBOND_ACCEPTOR>
20
> <PUBCHEM_CACTVS_HBOND_DONOR>
20
> <PUBCHEM_CACTVS_ROTATABLE_BOND>
35
> <PUBCHEM_CACTVS_SUBSKEYS>
AAADcfB//ABgAAAAAAAAAAAAAAAAAWAAAAAwYAAAAAAAAADBUAAAHgQQCAAADCjF2ASxCMPAAgCoAiHSPAACAAEgAAAIiIGIAIgKYDKAkTGUYAAklgCYiAeYmcCOwAACAAAQAACAAAQAACAAAAAAAAAAAA==
> <PUBCHEM_IUPAC_OPENEYE_NAME>
(2S)-2-[[(3R,6S,9R,14R,17S,20S)-3,6-bis(4-aminobutyl)-9-[[(2S)-2-[[(2S)-2-[[(2S)-2-amino-5-guanidino-pentanoyl]amino]-3-(2-naphthyl)propanoyl]amino]-5-guanidino-pentanoyl]amino]-17-(3-guanidinopropyl)-2,5,8,16,19-pentaoxo-11,12-dithia-1,4,7,15,18-pentazabicyclo[18.3.0]tricosane-14-carbonyl]amino]-5-guanidino-pentanoic acid
> <PUBCHEM_IUPAC_CAS_NAME>
(2S)-2-[[[(3R,6S,9R,14R,17S,20S)-3,6-bis(4-aminobutyl)-9-[[(2S)-2-[[(2S)-2-[[(2S)-2-amino-5-(diaminomethylideneamino)-1-oxopentyl]amino]-3-(2-naphthalenyl)-1-oxopropyl]amino]-5-(diaminomethylideneamino)-1-oxopentyl]amino]-17-[3-(diaminomethylideneamino)propyl]-2,5,8,16,19-pentaoxo-11,12-dithia-1,4,7,15,18-pentazabicyclo[18.3.0]tricosan-14-yl]-oxomethyl]amino]-5-(diaminomethylideneamino)pentanoic acid
> <PUBCHEM_IUPAC_NAME_MARKUP>
(2<I>S</I>)-2-[[(3<I>R</I>,6<I>S</I>,9<I>R</I>,14<I>R</I>,17<I>S</I>,20<I>S</I>)-3,6-bis(4-aminobutyl)-9-[[(2<I>S</I>)-2-[[(2<I>S</I>)-2-[[(2<I>S</I>)-2-amino-5-(diaminomethylideneamino)pentanoyl]amino]-3-naphthalen-2-ylpropanoyl]amino]-5-(diaminomethylideneamino)pentanoyl]amino]-17-[3-(diaminomethylideneamino)propyl]-2,5,8,16,19-pentaoxo-11,12-dithia-1,4,7,15,18-pentazabicyclo[18.3.0]tricosane-14-carbonyl]amino]-5-(diaminomethylideneamino)pentanoic acid
> <PUBCHEM_IUPAC_NAME>
(2S)-2-[[(3R,6S,9R,14R,17S,20S)-3,6-bis(4-aminobutyl)-9-[[(2S)-2-[[(2S)-2-[[(2S)-2-amino-5-(diaminomethylideneamino)pentanoyl]amino]-3-naphthalen-2-ylpropanoyl]amino]-5-(diaminomethylideneamino)pentanoyl]amino]-17-[3-(diaminomethylideneamino)propyl]-2,5,8,16,19-pentaoxo-11,12-dithia-1,4,7,15,18-pentazabicyclo[18.3.0]tricosane-14-carbonyl]amino]-5-(diaminomethylideneamino)pentanoic acid
> <PUBCHEM_IUPAC_SYSTEMATIC_NAME>
(2S)-2-[[(3R,6S,9R,14R,17S,20S)-9-[[(2S)-2-[[(2S)-2-[[(2S)-2-azanyl-5-[bis(azanyl)methylideneamino]pentanoyl]amino]-3-naphthalen-2-yl-propanoyl]amino]-5-[bis(azanyl)methylideneamino]pentanoyl]amino]-3,6-bis(4-azanylbutyl)-17-[3-[bis(azanyl)methylideneamino]propyl]-2,5,8,16,19-pentakis(oxidanylidene)-11,12-dithia-1,4,7,15,18-pentazabicyclo[18.3.0]tricosan-14-yl]carbonylamino]-5-[bis(azanyl)methylideneamino]pentanoic acid
> <PUBCHEM_IUPAC_TRADITIONAL_NAME>
(2S)-2-[[(3R,6S,9R,14R,17S,20S)-3,6-bis(4-aminobutyl)-9-[[(2S)-2-[[(2S)-2-[[(2S)-2-amino-5-guanidino-pentanoyl]amino]-3-(2-naphthyl)propanoyl]amino]-5-guanidino-pentanoyl]amino]-17-(3-guanidinopropyl)-2,5,8,16,19-pentaketo-11,12-dithia-1,4,7,15,18-pentazabicyclo[18.3.0]tricosane-14-carbonyl]amino]-5-guanidino-valeric acid
> <PUBCHEM_IUPAC_INCHI>
InChI=1S/C60H100N24O11S2/c61-23-5-3-15-38-48(86)79-41(16-4-6-24-62)55(93)84-29-11-20-46(84)54(92)78-40(18-9-27-74-59(68)69)50(88)83-45(53(91)80-42(56(94)95)19-10-28-75-60(70)71)33-97-96-32-44(52(90)77-38)82-49(87)39(17-8-26-73-58(66)67)76-51(89)43(81-47(85)37(63)14-7-25-72-57(64)65)31-34-21-22-35-12-1-2-13-36(35)30-34/h1-2,12-13,21-22,30,37-46H,3-11,14-20,23-29,31-33,61-63H2,(H,76,89)(H,77,90)(H,78,92)(H,79,86)(H,80,91)(H,81,85)(H,82,87)(H,83,88)(H,94,95)(H4,64,65,72)(H4,66,67,73)(H4,68,69,74)(H4,70,71,75)/t37-,38-,39-,40-,41+,42-,43-,44-,45-,46-/m0/s1
> <PUBCHEM_IUPAC_INCHIKEY>
VFYMSIJWKBMAKC-CCMOKRMDSA-N
> <PUBCHEM_XLOGP3_AA>
-7.7
> <PUBCHEM_EXACT_MASS>
1396.74448245
> <PUBCHEM_MOLECULAR_FORMULA>
C60H100N24O11S2
> <PUBCHEM_MOLECULAR_WEIGHT>
1397.7
> <PUBCHEM_OPENEYE_CAN_SMILES>
C1CC2C(=O)NC(C(=O)NC(CSSCC(C(=O)NC(C(=O)NC(C(=O)N2C1)CCCCN)CCCCN)NC(=O)C(CCCN=C(N)N)NC(=O)C(CC3=CC4=CC=CC=C4C=C3)NC(=O)C(CCCN=C(N)N)N)C(=O)NC(CCCN=C(N)N)C(=O)O)CCCN=C(N)N
> <PUBCHEM_OPENEYE_ISO_SMILES>
C1C[C@H]2C(=O)N[C@H](C(=O)N[C@@H](CSSC[C@@H](C(=O)N[C@H](C(=O)N[C@@H](C(=O)N2C1)CCCCN)CCCCN)NC(=O)[C@H](CCCN=C(N)N)NC(=O)[C@H](CC3=CC4=CC=CC=C4C=C3)NC(=O)[C@H](CCCN=C(N)N)N)C(=O)N[C@@H](CCCN=C(N)N)C(=O)O)CCCN=C(N)N
> <PUBCHEM_CACTVS_TPSA>
677
> <PUBCHEM_MONOISOTOPIC_WEIGHT>
1396.74448245
> <PUBCHEM_TOTAL_CHARGE>
0
> <PUBCHEM_HEAVY_ATOM_COUNT>
97
> <PUBCHEM_ATOM_DEF_STEREO_COUNT>
10
> <PUBCHEM_ATOM_UDEF_STEREO_COUNT>
0
> <PUBCHEM_BOND_DEF_STEREO_COUNT>
0
> <PUBCHEM_BOND_UDEF_STEREO_COUNT>
0
> <PUBCHEM_ISOTOPIC_ATOM_COUNT>
0
> <PUBCHEM_COMPONENT_COUNT>
1
> <PUBCHEM_CACTVS_TAUTO_COUNT>
-1
> <PUBCHEM_COORDINATE_TYPE>
1
5
255
> <PUBCHEM_BONDANNOTATIONS>
61  21  5
68  22  6
66  24  5
74  27  6
81  30  6
38  98  5
43  45  5
46  48  6
51  54  6
58  63  5
80  84  8
80  85  8
84  86  8
85  89  8
86  88  8
86  92  8
88  89  8
88  93  8
92  95  8
93  96  8
95  96  8
$$$$
