511214
  -OEChem-10302200282D
 49 50  0     1  0  0  0  0  0999 V2000
    5.2381   -2.0619    0.0000 P   0  0  3  0  0  0  0  0  0  0  0  0
    4.7782    1.4208    0.0000 O   0  0  0  0  0  0  0  0  0  0  0  0
    4.6503   -1.2528    0.0000 O   0  0  0  0  0  0  0  0  0  0  0  0
    4.4291   -2.6496    0.0000 O   0  0  0  0  0  0  0  0  0  0  0  0
    6.0471   -1.4741    0.0000 O   0  0  0  0  0  0  0  0  0  0  0  0
    5.7013    3.0086    0.0000 O   0  0  0  0  0  0  0  0  0  0  0  0
    5.6002   -5.5070    0.0000 O   0  0  0  0  0  0  0  0  0  0  0  0
    7.0014   -4.4889    0.0000 O   0  0  0  0  0  0  0  0  0  0  0  0
    3.9692    6.0086    0.0000 O   0  0  0  0  0  0  0  0  0  0  0  0
    2.6166   -5.8206    0.0000 O   0  0  0  0  0  0  0  0  0  0  0  0
    2.4356   -4.0980    0.0000 O   0  0  0  0  0  0  0  0  0  0  0  0
    3.9692    3.0086    0.0000 N   0  0  0  0  0  0  0  0  0  0  0  0
    5.8259   -2.8709    0.0000 N   0  0  0  0  0  0  0  0  0  0  0  0
    4.8353    4.5086    0.0000 N   0  0  0  0  0  0  0  0  0  0  0  0
    4.4692    0.4697    0.0000 C   0  0  2  0  0  0  0  0  0  0  0  0
    3.9692    2.0086    0.0000 C   0  0  1  0  0  0  0  0  0  0  0  0
    5.0570   -0.3393    0.0000 C   0  0  0  0  0  0  0  0  0  0  0  0
    3.4692    0.4697    0.0000 C   0  0  0  0  0  0  0  0  0  0  0  0
    3.1602    1.4208    0.0000 C   0  0  0  0  0  0  0  0  0  0  0  0
    5.4191   -3.7844    0.0000 C   0  0  1  0  0  0  0  0  0  0  0  0
    4.4246   -3.8889    0.0000 C   0  0  0  0  0  0  0  0  0  0  0  0
    3.1032    3.5086    0.0000 C   0  0  0  0  0  0  0  0  0  0  0  0
    4.8353    3.5086    0.0000 C   0  0  0  0  0  0  0  0  0  0  0  0
    4.0179   -4.8025    0.0000 C   0  0  0  0  0  0  0  0  0  0  0  0
    3.1032    4.5086    0.0000 C   0  0  0  0  0  0  0  0  0  0  0  0
    6.0069   -4.5934    0.0000 C   0  0  0  0  0  0  0  0  0  0  0  0
    3.9692    5.0086    0.0000 C   0  0  0  0  0  0  0  0  0  0  0  0
    2.2372    5.0086    0.0000 C   0  0  0  0  0  0  0  0  0  0  0  0
    3.0233   -4.9070    0.0000 C   0  0  0  0  0  0  0  0  0  0  0  0
    5.0816    0.5667    0.0000 H   0  0  0  0  0  0  0  0  0  0  0  0
    4.5217    2.2900    0.0000 H   0  0  0  0  0  0  0  0  0  0  0  0
    5.5710   -0.6860    0.0000 H   0  0  0  0  0  0  0  0  0  0  0  0
    5.4877    0.1067    0.0000 H   0  0  0  0  0  0  0  0  0  0  0  0
    3.1048   -0.0319    0.0000 H   0  0  0  0  0  0  0  0  0  0  0  0
    2.5706    1.6124    0.0000 H   0  0  0  0  0  0  0  0  0  0  0  0
    6.0357   -3.7196    0.0000 H   0  0  0  0  0  0  0  0  0  0  0  0
    4.4678   -3.2704    0.0000 H   0  0  0  0  0  0  0  0  0  0  0  0
    3.8230   -3.7390    0.0000 H   0  0  0  0  0  0  0  0  0  0  0  0
    6.4425   -2.8061    0.0000 H   0  0  0  0  0  0  0  0  0  0  0  0
    2.5663    3.1986    0.0000 H   0  0  0  0  0  0  0  0  0  0  0  0
    3.9746   -5.4210    0.0000 H   0  0  0  0  0  0  0  0  0  0  0  0
    4.6194   -4.9525    0.0000 H   0  0  0  0  0  0  0  0  0  0  0  0
    5.3722    4.8186    0.0000 H   0  0  0  0  0  0  0  0  0  0  0  0
    2.5472    5.5455    0.0000 H   0  0  0  0  0  0  0  0  0  0  0  0
    1.7002    5.3186    0.0000 H   0  0  0  0  0  0  0  0  0  0  0  0
    1.9272    4.4716    0.0000 H   0  0  0  0  0  0  0  0  0  0  0  0
    3.8627   -2.3975    0.0000 H   0  0  0  0  0  0  0  0  0  0  0  0
    5.9646   -6.0086    0.0000 H   0  0  0  0  0  0  0  0  0  0  0  0
    2.0000   -5.8854    0.0000 H   0  0  0  0  0  0  0  0  0  0  0  0
  1  3  1  0  0  0  0
  1  4  1  0  0  0  0
  1  5  2  0  0  0  0
  1 13  1  0  0  0  0
  2 15  1  0  0  0  0
  2 16  1  0  0  0  0
  3 17  1  0  0  0  0
  4 47  1  0  0  0  0
  6 23  2  0  0  0  0
  7 26  1  0  0  0  0
  7 48  1  0  0  0  0
  8 26  2  0  0  0  0
  9 27  2  0  0  0  0
 10 29  1  0  0  0  0
 10 49  1  0  0  0  0
 11 29  2  0  0  0  0
 16 12  1  6  0  0  0
 12 22  1  0  0  0  0
 12 23  1  0  0  0  0
 20 13  1  6  0  0  0
 13 39  1  0  0  0  0
 14 23  1  0  0  0  0
 14 27  1  0  0  0  0
 14 43  1  0  0  0  0
 15 17  1  6  0  0  0
 15 18  1  0  0  0  0
 15 30  1  0  0  0  0
 16 19  1  0  0  0  0
 16 31  1  0  0  0  0
 17 32  1  0  0  0  0
 17 33  1  0  0  0  0
 18 19  2  0  0  0  0
 18 34  1  0  0  0  0
 19 35  1  0  0  0  0
 20 21  1  0  0  0  0
 20 26  1  0  0  0  0
 20 36  1  0  0  0  0
 21 24  1  0  0  0  0
 21 37  1  0  0  0  0
 21 38  1  0  0  0  0
 22 25  2  0  0  0  0
 22 40  1  0  0  0  0
 24 29  1  0  0  0  0
 24 41  1  0  0  0  0
 24 42  1  0  0  0  0
 25 27  1  0  0  0  0
 25 28  1  0  0  0  0
 28 44  1  0  0  0  0
 28 45  1  0  0  0  0
 28 46  1  0  0  0  0
M  END
> <PUBCHEM_COMPOUND_CID>
511214
> <PUBCHEM_COMPOUND_CANONICALIZED>
1
> <PUBCHEM_CACTVS_COMPLEXITY>
810
> <PUBCHEM_CACTVS_HBOND_ACCEPTOR>
11
> <PUBCHEM_CACTVS_HBOND_DONOR>
5
> <PUBCHEM_CACTVS_ROTATABLE_BOND>
10
> <PUBCHEM_CACTVS_SUBSKEYS>
AAADceBzPAIAAAAAAAAAAAAAAAAAAQAAAAAgAAAAAAAAAAAAAAAAHgAQiCAADDzhgAYDCAPABxCIQiHWWICAAAAgAAAICIGIAEiDBBIAoQAOUAAMVyIKIMKsJgAAAAAAAAAAAAAAAAAAAAAAAAAAAAAAAA==
> <PUBCHEM_IUPAC_OPENEYE_NAME>
(2S)-2-[[hydroxy-[[(2S,5R)-5-(5-methyl-2,4-dioxo-pyrimidin-1-yl)-2,5-dihydrofuran-2-yl]methoxy]phosphoryl]amino]pentanedioic acid
> <PUBCHEM_IUPAC_CAS_NAME>
(2S)-2-[[hydroxy-[[(2S,5R)-5-(5-methyl-2,4-dioxo-1-pyrimidinyl)-2,5-dihydrofuran-2-yl]methoxy]phosphoryl]amino]pentanedioic acid
> <PUBCHEM_IUPAC_NAME_MARKUP>
(2<I>S</I>)-2-[[hydroxy-[[(2<I>S</I>,5<I>R</I>)-5-(5-methyl-2,4-dioxopyrimidin-1-yl)-2,5-dihydrofuran-2-yl]methoxy]phosphoryl]amino]pentanedioic acid
> <PUBCHEM_IUPAC_NAME>
(2S)-2-[[hydroxy-[[(2S,5R)-5-(5-methyl-2,4-dioxopyrimidin-1-yl)-2,5-dihydrofuran-2-yl]methoxy]phosphoryl]amino]pentanedioic acid
> <PUBCHEM_IUPAC_SYSTEMATIC_NAME>
(2S)-2-[[[(2S,5R)-5-[5-methyl-2,4-bis(oxidanylidene)pyrimidin-1-yl]-2,5-dihydrofuran-2-yl]methoxy-oxidanyl-phosphoryl]amino]pentanedioic acid
> <PUBCHEM_IUPAC_TRADITIONAL_NAME>
(2S)-2-[[[(2S,5R)-5-(2,4-diketo-5-methyl-pyrimidin-1-yl)-2,5-dihydrofuran-2-yl]methoxy-hydroxy-phosphoryl]amino]glutaric acid
> <PUBCHEM_IUPAC_INCHI>
InChI=1S/C15H20N3O10P/c1-8-6-18(15(24)16-13(8)21)11-4-2-9(28-11)7-27-29(25,26)17-10(14(22)23)3-5-12(19)20/h2,4,6,9-11H,3,5,7H2,1H3,(H,19,20)(H,22,23)(H,16,21,24)(H2,17,25,26)/t9-,10-,11+/m0/s1
> <PUBCHEM_IUPAC_INCHIKEY>
GYZLRKXBIKWQNB-GARJFASQSA-N
> <PUBCHEM_XLOGP3>
-2.2
> <PUBCHEM_EXACT_MASS>
433.08863084
> <PUBCHEM_MOLECULAR_FORMULA>
C15H20N3O10P
> <PUBCHEM_MOLECULAR_WEIGHT>
433.31
> <PUBCHEM_OPENEYE_CAN_SMILES>
CC1=CN(C(=O)NC1=O)C2C=CC(O2)COP(=O)(NC(CCC(=O)O)C(=O)O)O
> <PUBCHEM_OPENEYE_ISO_SMILES>
CC1=CN(C(=O)NC1=O)[C@H]2C=C[C@H](O2)COP(=O)(N[C@@H](CCC(=O)O)C(=O)O)O
> <PUBCHEM_CACTVS_TPSA>
192
> <PUBCHEM_MONOISOTOPIC_WEIGHT>
433.08863084
> <PUBCHEM_TOTAL_CHARGE>
0
> <PUBCHEM_HEAVY_ATOM_COUNT>
29
> <PUBCHEM_ATOM_DEF_STEREO_COUNT>
3
> <PUBCHEM_ATOM_UDEF_STEREO_COUNT>
0
> <PUBCHEM_BOND_DEF_STEREO_COUNT>
0
> <PUBCHEM_BOND_UDEF_STEREO_COUNT>
0
> <PUBCHEM_ISOTOPIC_ATOM_COUNT>
0
> <PUBCHEM_COMPONENT_COUNT>
1
> <PUBCHEM_CACTVS_TAUTO_COUNT>
-1
> <PUBCHEM_COORDINATE_TYPE>
1
5
255
> <PUBCHEM_BONDANNOTATIONS>
16  12  6
12  22  8
12  23  8
20  13  6
14  23  8
14  27  8
15  17  6
22  25  8
25  27  8
$$$$
