511219
  -OEChem-10302200282D
 40 41  0     1  0  0  0  0  0999 V2000
    5.0009   -2.0619    0.0000 P   0  0  3  0  0  0  0  0  0  0  0  0
    4.5411    1.4208    0.0000 O   0  0  0  0  0  0  0  0  0  0  0  0
    4.4131   -1.2528    0.0000 O   0  0  0  0  0  0  0  0  0  0  0  0
    5.4641    3.0086    0.0000 O   0  0  0  0  0  0  0  0  0  0  0  0
    4.1919   -2.6496    0.0000 O   0  0  0  0  0  0  0  0  0  0  0  0
    5.8099   -1.4741    0.0000 O   0  0  0  0  0  0  0  0  0  0  0  0
    3.7320    6.0086    0.0000 O   0  0  0  0  0  0  0  0  0  0  0  0
    5.3630   -5.5070    0.0000 O   0  0  0  0  0  0  0  0  0  0  0  0
    6.7642   -4.4889    0.0000 O   0  0  0  0  0  0  0  0  0  0  0  0
    3.7320    3.0086    0.0000 N   0  0  0  0  0  0  0  0  0  0  0  0
    4.5981    4.5086    0.0000 N   0  0  0  0  0  0  0  0  0  0  0  0
    5.5887   -2.8709    0.0000 N   0  0  0  0  0  0  0  0  0  0  0  0
    3.7320    2.0086    0.0000 C   0  0  1  0  0  0  0  0  0  0  0  0
    4.2320    0.4697    0.0000 C   0  0  1  0  0  0  0  0  0  0  0  0
    2.9230    1.4208    0.0000 C   0  0  0  0  0  0  0  0  0  0  0  0
    3.2320    0.4697    0.0000 C   0  0  0  0  0  0  0  0  0  0  0  0
    4.8198   -0.3393    0.0000 C   0  0  0  0  0  0  0  0  0  0  0  0
    2.8660    3.5086    0.0000 C   0  0  0  0  0  0  0  0  0  0  0  0
    4.5981    3.5086    0.0000 C   0  0  0  0  0  0  0  0  0  0  0  0
    2.8660    4.5086    0.0000 C   0  0  0  0  0  0  0  0  0  0  0  0
    3.7320    5.0086    0.0000 C   0  0  0  0  0  0  0  0  0  0  0  0
    2.0000    5.0086    0.0000 C   0  0  0  0  0  0  0  0  0  0  0  0
    5.1819   -3.7844    0.0000 C   0  0  0  0  0  0  0  0  0  0  0  0
    5.7697   -4.5934    0.0000 C   0  0  0  0  0  0  0  0  0  0  0  0
    4.2845    2.2900    0.0000 H   0  0  0  0  0  0  0  0  0  0  0  0
    4.8444    0.5667    0.0000 H   0  0  0  0  0  0  0  0  0  0  0  0
    2.3334    1.6124    0.0000 H   0  0  0  0  0  0  0  0  0  0  0  0
    2.8676   -0.0319    0.0000 H   0  0  0  0  0  0  0  0  0  0  0  0
    5.3338   -0.6860    0.0000 H   0  0  0  0  0  0  0  0  0  0  0  0
    5.2505    0.1067    0.0000 H   0  0  0  0  0  0  0  0  0  0  0  0
    2.3291    3.1986    0.0000 H   0  0  0  0  0  0  0  0  0  0  0  0
    5.1350    4.8186    0.0000 H   0  0  0  0  0  0  0  0  0  0  0  0
    2.3100    5.5455    0.0000 H   0  0  0  0  0  0  0  0  0  0  0  0
    1.4631    5.3186    0.0000 H   0  0  0  0  0  0  0  0  0  0  0  0
    1.6900    4.4716    0.0000 H   0  0  0  0  0  0  0  0  0  0  0  0
    6.2053   -2.8061    0.0000 H   0  0  0  0  0  0  0  0  0  0  0  0
    4.6679   -3.4377    0.0000 H   0  0  0  0  0  0  0  0  0  0  0  0
    4.7512   -4.2304    0.0000 H   0  0  0  0  0  0  0  0  0  0  0  0
    3.6255   -2.3975    0.0000 H   0  0  0  0  0  0  0  0  0  0  0  0
    5.7274   -6.0086    0.0000 H   0  0  0  0  0  0  0  0  0  0  0  0
  1  3  1  0  0  0  0
  1  5  1  0  0  0  0
  1  6  2  0  0  0  0
  1 12  1  0  0  0  0
  2 13  1  0  0  0  0
  2 14  1  0  0  0  0
  3 17  1  0  0  0  0
  4 19  2  0  0  0  0
  5 39  1  0  0  0  0
  7 21  2  0  0  0  0
  8 24  1  0  0  0  0
  8 40  1  0  0  0  0
  9 24  2  0  0  0  0
 13 10  1  6  0  0  0
 10 18  1  0  0  0  0
 10 19  1  0  0  0  0
 11 19  1  0  0  0  0
 11 21  1  0  0  0  0
 11 32  1  0  0  0  0
 12 23  1  0  0  0  0
 12 36  1  0  0  0  0
 13 15  1  0  0  0  0
 13 25  1  0  0  0  0
 14 16  1  0  0  0  0
 14 17  1  6  0  0  0
 14 26  1  0  0  0  0
 15 16  2  0  0  0  0
 15 27  1  0  0  0  0
 16 28  1  0  0  0  0
 17 29  1  0  0  0  0
 17 30  1  0  0  0  0
 18 20  2  0  0  0  0
 18 31  1  0  0  0  0
 20 21  1  0  0  0  0
 20 22  1  0  0  0  0
 22 33  1  0  0  0  0
 22 34  1  0  0  0  0
 22 35  1  0  0  0  0
 23 24  1  0  0  0  0
 23 37  1  0  0  0  0
 23 38  1  0  0  0  0
M  END
> <PUBCHEM_COMPOUND_CID>
511219
> <PUBCHEM_COMPOUND_CANONICALIZED>
1
> <PUBCHEM_CACTVS_COMPLEXITY>
661
> <PUBCHEM_CACTVS_HBOND_ACCEPTOR>
9
> <PUBCHEM_CACTVS_HBOND_DONOR>
4
> <PUBCHEM_CACTVS_ROTATABLE_BOND>
7
> <PUBCHEM_CACTVS_SUBSKEYS>
AAADceBzPAIAAAAAAAAAAAAAAAAAAQAAAAAgAAAAAAAAAAAAAAAAHgAQiCAADBThgAYDCAPABxCIQiHWWICAAAAgAAAICIGIAEiDBAAAIQAOEAAIRyIKIMIAAAAAAAAAAAAAAAAAAAAAAAAAAAAAAAAAAA==
> <PUBCHEM_IUPAC_OPENEYE_NAME>
2-[[hydroxy-[[(2S,5R)-5-(5-methyl-2,4-dioxo-pyrimidin-1-yl)-2,5-dihydrofuran-2-yl]methoxy]phosphoryl]amino]acetic acid
> <PUBCHEM_IUPAC_CAS_NAME>
2-[[hydroxy-[[(2S,5R)-5-(5-methyl-2,4-dioxo-1-pyrimidinyl)-2,5-dihydrofuran-2-yl]methoxy]phosphoryl]amino]acetic acid
> <PUBCHEM_IUPAC_NAME_MARKUP>
2-[[hydroxy-[[(2<I>S</I>,5<I>R</I>)-5-(5-methyl-2,4-dioxopyrimidin-1-yl)-2,5-dihydrofuran-2-yl]methoxy]phosphoryl]amino]acetic acid
> <PUBCHEM_IUPAC_NAME>
2-[[hydroxy-[[(2S,5R)-5-(5-methyl-2,4-dioxopyrimidin-1-yl)-2,5-dihydrofuran-2-yl]methoxy]phosphoryl]amino]acetic acid
> <PUBCHEM_IUPAC_SYSTEMATIC_NAME>
2-[[[(2S,5R)-5-[5-methyl-2,4-bis(oxidanylidene)pyrimidin-1-yl]-2,5-dihydrofuran-2-yl]methoxy-oxidanyl-phosphoryl]amino]ethanoic acid
> <PUBCHEM_IUPAC_TRADITIONAL_NAME>
2-[[[(2S,5R)-5-(2,4-diketo-5-methyl-pyrimidin-1-yl)-2,5-dihydrofuran-2-yl]methoxy-hydroxy-phosphoryl]amino]acetic acid
> <PUBCHEM_IUPAC_INCHI>
InChI=1S/C12H16N3O8P/c1-7-5-15(12(19)14-11(7)18)9-3-2-8(23-9)6-22-24(20,21)13-4-10(16)17/h2-3,5,8-9H,4,6H2,1H3,(H,16,17)(H2,13,20,21)(H,14,18,19)/t8-,9+/m0/s1
> <PUBCHEM_IUPAC_INCHIKEY>
BFEODQHZNNJTSK-DTWKUNHWSA-N
> <PUBCHEM_XLOGP3>
-2.1
> <PUBCHEM_EXACT_MASS>
361.06750147
> <PUBCHEM_MOLECULAR_FORMULA>
C12H16N3O8P
> <PUBCHEM_MOLECULAR_WEIGHT>
361.24
> <PUBCHEM_OPENEYE_CAN_SMILES>
CC1=CN(C(=O)NC1=O)C2C=CC(O2)COP(=O)(NCC(=O)O)O
> <PUBCHEM_OPENEYE_ISO_SMILES>
CC1=CN(C(=O)NC1=O)[C@H]2C=C[C@H](O2)COP(=O)(NCC(=O)O)O
> <PUBCHEM_CACTVS_TPSA>
155
> <PUBCHEM_MONOISOTOPIC_WEIGHT>
361.06750147
> <PUBCHEM_TOTAL_CHARGE>
0
> <PUBCHEM_HEAVY_ATOM_COUNT>
24
> <PUBCHEM_ATOM_DEF_STEREO_COUNT>
2
> <PUBCHEM_ATOM_UDEF_STEREO_COUNT>
0
> <PUBCHEM_BOND_DEF_STEREO_COUNT>
0
> <PUBCHEM_BOND_UDEF_STEREO_COUNT>
0
> <PUBCHEM_ISOTOPIC_ATOM_COUNT>
0
> <PUBCHEM_COMPONENT_COUNT>
1
> <PUBCHEM_CACTVS_TAUTO_COUNT>
-1
> <PUBCHEM_COORDINATE_TYPE>
1
5
255
> <PUBCHEM_BONDANNOTATIONS>
13  10  6
10  18  8
10  19  8
11  19  8
11  21  8
14  17  6
18  20  8
20  21  8
$$$$
