511251
  -OEChem-10302200282D
196199  0     1  0  0  0  0  0999 V2000
    8.5991    3.6506    0.0000 S   0  0  0  0  0  0  0  0  0  0  0  0
    8.8579    2.6847    0.0000 S   0  0  0  0  0  0  0  0  0  0  0  0
   14.3297    7.4958    0.0000 O   0  0  0  0  0  0  0  0  0  0  0  0
   13.0632    5.6506    0.0000 O   0  0  0  0  0  0  0  0  0  0  0  0
   12.2978    4.9687    0.0000 O   0  0  0  0  0  0  0  0  0  0  0  0
    9.4651    4.1506    0.0000 O   0  0  0  0  0  0  0  0  0  0  0  0
   12.2040    1.7881    0.0000 O   0  0  0  0  0  0  0  0  0  0  0  0
    6.8671    6.6506    0.0000 O   0  0  0  0  0  0  0  0  0  0  0  0
   11.9452    0.8222    0.0000 O   0  0  0  0  0  0  0  0  0  0  0  0
    9.4651   10.1506    0.0000 O   0  0  0  0  0  0  0  0  0  0  0  0
    3.4030    5.6506    0.0000 O   0  0  0  0  0  0  0  0  0  0  0  0
   10.2028   -2.3344    0.0000 O   0  0  0  0  0  0  0  0  0  0  0  0
    4.2690    4.1506    0.0000 O   0  0  0  0  0  0  0  0  0  0  0  0
   13.2900   -4.1969    0.0000 O   0  0  0  0  0  0  0  0  0  0  0  0
   12.9292    7.1506    0.0000 N   0  0  0  0  0  0  0  0  0  0  0  0
   11.1972    5.1506    0.0000 N   0  0  0  0  0  0  0  0  0  0  0  0
   14.1876    4.8448    0.0000 N   0  0  0  0  0  0  0  0  0  0  0  0
   11.7557    3.4611    0.0000 N   0  0  0  0  0  0  0  0  0  0  0  0
    8.5991    5.6506    0.0000 N   0  0  0  0  0  0  0  0  0  0  0  0
   18.6462    4.6439    0.0000 N   0  0  0  0  0  0  0  0  0  0  0  0
    8.5991    8.6506    0.0000 N   0  0  0  0  0  0  0  0  0  0  0  0
   10.2721    1.2705    0.0000 N   0  0  0  0  0  0  0  0  0  0  0  0
    6.0010    5.1506    0.0000 N   0  0  0  0  0  0  0  0  0  0  0  0
   16.5308    1.6010    0.0000 N   0  0  0  0  0  0  0  0  0  0  0  0
   11.4275   -1.1097    0.0000 N   0  0  0  0  0  0  0  0  0  0  0  0
    7.7331   10.1506    0.0000 N   0  0  0  0  0  0  0  0  0  0  0  0
   11.6170   -3.7486    0.0000 N   0  0  0  0  0  0  0  0  0  0  0  0
    8.2709   -2.8521    0.0000 N   0  0  0  0  0  0  0  0  0  0  0  0
    3.4030    8.6506    0.0000 N   0  0  0  0  0  0  0  0  0  0  0  0
   11.0994   -5.6805    0.0000 N   0  0  0  0  0  0  0  0  0  0  0  0
   15.2219   -3.6793    0.0000 N   0  0  0  0  0  0  0  0  0  0  0  0
    7.0462   -4.0768    0.0000 N   0  0  0  0  0  0  0  0  0  0  0  0
    6.5979   -2.4038    0.0000 N   0  0  0  0  0  0  0  0  0  0  0  0
    2.5369   10.1506    0.0000 N   0  0  0  0  0  0  0  0  0  0  0  0
    4.2690   10.1506    0.0000 N   0  0  0  0  0  0  0  0  0  0  0  0
   16.8949   -4.1276    0.0000 N   0  0  0  0  0  0  0  0  0  0  0  0
   16.4466   -2.4545    0.0000 N   0  0  0  0  0  0  0  0  0  0  0  0
   12.0632    6.6506    0.0000 C   0  0  1  0  0  0  0  0  0  0  0  0
   11.3262    7.3177    0.0000 C   0  0  0  0  0  0  0  0  0  0  0  0
   11.7313    8.2255    0.0000 C   0  0  0  0  0  0  0  0  0  0  0  0
   12.7200    8.1224    0.0000 C   0  0  0  0  0  0  0  0  0  0  0  0
   13.7953    6.6506    0.0000 C   0  0  0  0  0  0  0  0  0  0  0  0
   14.4464    5.8107    0.0000 C   0  0  1  0  0  0  0  0  0  0  0  0
   12.0632    5.6506    0.0000 C   0  0  0  0  0  0  0  0  0  0  0  0
   15.4369    5.9479    0.0000 C   0  0  0  0  0  0  0  0  0  0  0  0
   10.3312    5.6506    0.0000 C   0  0  1  0  0  0  0  0  0  0  0  0
   16.0510    5.1587    0.0000 C   0  0  0  0  0  0  0  0  0  0  0  0
   10.3312    6.6506    0.0000 C   0  0  0  0  0  0  0  0  0  0  0  0
   17.0416    5.2959    0.0000 C   0  0  0  0  0  0  0  0  0  0  0  0
   13.2216    4.5860    0.0000 C   0  0  0  0  0  0  0  0  0  0  0  0
   12.7216    3.7200    0.0000 C   0  0  2  0  0  0  0  0  0  0  0  0
    9.4651    5.1506    0.0000 C   0  0  0  0  0  0  0  0  0  0  0  0
    9.4651    7.1506    0.0000 C   0  0  0  0  0  0  0  0  0  0  0  0
   13.3304    2.9266    0.0000 C   0  0  0  0  0  0  0  0  0  0  0  0
   17.6557    4.5067    0.0000 C   0  0  0  0  0  0  0  0  0  0  0  0
   14.3218    3.0571    0.0000 C   0  0  0  0  0  0  0  0  0  0  0  0
    9.4651    8.1506    0.0000 C   0  0  0  0  0  0  0  0  0  0  0  0
    7.7331    5.1506    0.0000 C   0  0  1  0  0  0  0  0  0  0  0  0
   14.9306    2.2638    0.0000 C   0  0  0  0  0  0  0  0  0  0  0  0
   11.4969    2.4952    0.0000 C   0  0  0  0  0  0  0  0  0  0  0  0
   10.5310    2.2364    0.0000 C   0  0  2  0  0  0  0  0  0  0  0  0
    7.7331    4.1506    0.0000 C   0  0  0  0  0  0  0  0  0  0  0  0
    6.8671    5.6506    0.0000 C   0  0  0  0  0  0  0  0  0  0  0  0
   15.9220    2.3943    0.0000 C   0  0  0  0  0  0  0  0  0  0  0  0
    9.8239    2.9435    0.0000 C   0  0  0  0  0  0  0  0  0  0  0  0
   10.7204   -0.4026    0.0000 C   0  0  2  0  0  0  0  0  0  0  0  0
   10.9793    0.5634    0.0000 C   0  0  0  0  0  0  0  0  0  0  0  0
    5.1350    5.6506    0.0000 C   0  0  1  0  0  0  0  0  0  0  0  0
    8.5991    9.6506    0.0000 C   0  0  0  0  0  0  0  0  0  0  0  0
    9.7545   -0.6614    0.0000 C   0  0  0  0  0  0  0  0  0  0  0  0
    5.1350    6.6506    0.0000 C   0  0  0  0  0  0  0  0  0  0  0  0
    9.4957   -1.6273    0.0000 C   0  0  0  0  0  0  0  0  0  0  0  0
   11.8758   -2.7827    0.0000 C   0  0  2  0  0  0  0  0  0  0  0  0
    4.2690    7.1506    0.0000 C   0  0  0  0  0  0  0  0  0  0  0  0
   11.1687   -2.0756    0.0000 C   0  0  0  0  0  0  0  0  0  0  0  0
    4.2690    5.1506    0.0000 C   0  0  0  0  0  0  0  0  0  0  0  0
   12.8418   -2.5239    0.0000 C   0  0  0  0  0  0  0  0  0  0  0  0
    8.5298   -1.8861    0.0000 C   0  0  0  0  0  0  0  0  0  0  0  0
   13.5489   -3.2310    0.0000 C   0  0  0  0  0  0  0  0  0  0  0  0
    4.2690    8.1506    0.0000 C   0  0  0  0  0  0  0  0  0  0  0  0
   12.3241   -4.4557    0.0000 C   0  0  0  0  0  0  0  0  0  0  0  0
   12.0653   -5.4217    0.0000 C   0  0  2  0  0  0  0  0  0  0  0  0
   14.5148   -2.9722    0.0000 C   0  0  0  0  0  0  0  0  0  0  0  0
   12.7724   -6.1288    0.0000 C   0  0  0  0  0  0  0  0  0  0  0  0
   12.5136   -7.0947    0.0000 C   0  0  0  0  0  0  0  0  0  0  0  0
    7.3050   -3.1109    0.0000 C   0  0  0  0  0  0  0  0  0  0  0  0
   13.2207   -7.8018    0.0000 C   0  0  0  0  0  0  0  0  0  0  0  0
   11.5477   -7.3535    0.0000 C   0  0  0  0  0  0  0  0  0  0  0  0
    3.4030    9.6506    0.0000 C   0  0  0  0  0  0  0  0  0  0  0  0
   12.9619   -8.7677    0.0000 C   0  0  0  0  0  0  0  0  0  0  0  0
   11.9959   -9.0266    0.0000 C   0  0  0  0  0  0  0  0  0  0  0  0
   11.2888   -8.3194    0.0000 C   0  0  0  0  0  0  0  0  0  0  0  0
   16.1878   -3.4205    0.0000 C   0  0  0  0  0  0  0  0  0  0  0  0
   13.7097   -9.4928    0.0000 C   0  0  0  0  0  0  0  0  0  0  0  0
   11.7109  -10.0284    0.0000 C   0  0  0  0  0  0  0  0  0  0  0  0
   13.4479  -10.5010    0.0000 C   0  0  0  0  0  0  0  0  0  0  0  0
   12.4417  -10.7706    0.0000 C   0  0  0  0  0  0  0  0  0  0  0  0
   11.2863    6.3059    0.0000 H   0  0  0  0  0  0  0  0  0  0  0  0
   10.7897    7.6285    0.0000 H   0  0  0  0  0  0  0  0  0  0  0  0
   10.9608    6.8168    0.0000 H   0  0  0  0  0  0  0  0  0  0  0  0
   11.8600    8.8320    0.0000 H   0  0  0  0  0  0  0  0  0  0  0  0
   11.1417    8.4172    0.0000 H   0  0  0  0  0  0  0  0  0  0  0  0
   13.3365    8.1885    0.0000 H   0  0  0  0  0  0  0  0  0  0  0  0
   12.7191    8.7424    0.0000 H   0  0  0  0  0  0  0  0  0  0  0  0
   14.8567    5.3460    0.0000 H   0  0  0  0  0  0  0  0  0  0  0  0
   15.9849    6.2379    0.0000 H   0  0  0  0  0  0  0  0  0  0  0  0
   15.2465    6.5380    0.0000 H   0  0  0  0  0  0  0  0  0  0  0  0
   11.1972    4.5306    0.0000 H   0  0  0  0  0  0  0  0  0  0  0  0
   10.8681    5.9606    0.0000 H   0  0  0  0  0  0  0  0  0  0  0  0
   15.5030    4.8687    0.0000 H   0  0  0  0  0  0  0  0  0  0  0  0
   16.2414    4.5687    0.0000 H   0  0  0  0  0  0  0  0  0  0  0  0
   14.6260    4.4064    0.0000 H   0  0  0  0  0  0  0  0  0  0  0  0
   10.9417    6.5430    0.0000 H   0  0  0  0  0  0  0  0  0  0  0  0
   10.5432    7.2332    0.0000 H   0  0  0  0  0  0  0  0  0  0  0  0
   17.5896    5.5859    0.0000 H   0  0  0  0  0  0  0  0  0  0  0  0
   16.8511    5.8860    0.0000 H   0  0  0  0  0  0  0  0  0  0  0  0
   12.5223    3.1329    0.0000 H   0  0  0  0  0  0  0  0  0  0  0  0
    8.8546    7.2583    0.0000 H   0  0  0  0  0  0  0  0  0  0  0  0
    9.2531    6.5680    0.0000 H   0  0  0  0  0  0  0  0  0  0  0  0
   12.7805    2.6403    0.0000 H   0  0  0  0  0  0  0  0  0  0  0  0
   13.5168    2.3353    0.0000 H   0  0  0  0  0  0  0  0  0  0  0  0
   17.1077    4.2167    0.0000 H   0  0  0  0  0  0  0  0  0  0  0  0
   17.8461    3.9167    0.0000 H   0  0  0  0  0  0  0  0  0  0  0  0
   14.8718    3.3434    0.0000 H   0  0  0  0  0  0  0  0  0  0  0  0
   14.1354    3.6484    0.0000 H   0  0  0  0  0  0  0  0  0  0  0  0
   11.3173    3.8996    0.0000 H   0  0  0  0  0  0  0  0  0  0  0  0
    8.5991    6.2706    0.0000 H   0  0  0  0  0  0  0  0  0  0  0  0
   10.0757    8.0430    0.0000 H   0  0  0  0  0  0  0  0  0  0  0  0
    9.6772    8.7332    0.0000 H   0  0  0  0  0  0  0  0  0  0  0  0
    7.7331    5.7706    0.0000 H   0  0  0  0  0  0  0  0  0  0  0  0
   14.3807    1.9775    0.0000 H   0  0  0  0  0  0  0  0  0  0  0  0
   15.1170    1.6725    0.0000 H   0  0  0  0  0  0  0  0  0  0  0  0
    9.9321    2.0759    0.0000 H   0  0  0  0  0  0  0  0  0  0  0  0
   19.0269    4.1546    0.0000 H   0  0  0  0  0  0  0  0  0  0  0  0
   18.8796    5.2183    0.0000 H   0  0  0  0  0  0  0  0  0  0  0  0
    7.1225    4.2583    0.0000 H   0  0  0  0  0  0  0  0  0  0  0  0
    7.5210    3.5680    0.0000 H   0  0  0  0  0  0  0  0  0  0  0  0
    8.0622    8.3406    0.0000 H   0  0  0  0  0  0  0  0  0  0  0  0
   16.4720    2.6806    0.0000 H   0  0  0  0  0  0  0  0  0  0  0  0
   15.7356    2.9856    0.0000 H   0  0  0  0  0  0  0  0  0  0  0  0
   10.3317    3.2991    0.0000 H   0  0  0  0  0  0  0  0  0  0  0  0
    9.5618    3.5054    0.0000 H   0  0  0  0  0  0  0  0  0  0  0  0
    9.6733    1.1100    0.0000 H   0  0  0  0  0  0  0  0  0  0  0  0
    6.0010    4.5306    0.0000 H   0  0  0  0  0  0  0  0  0  0  0  0
   10.5600   -1.0014    0.0000 H   0  0  0  0  0  0  0  0  0  0  0  0
    5.6720    5.9606    0.0000 H   0  0  0  0  0  0  0  0  0  0  0  0
    9.7005   -0.0437    0.0000 H   0  0  0  0  0  0  0  0  0  0  0  0
    9.1369   -0.6073    0.0000 H   0  0  0  0  0  0  0  0  0  0  0  0
   17.1455    1.6819    0.0000 H   0  0  0  0  0  0  0  0  0  0  0  0
   16.2935    1.0281    0.0000 H   0  0  0  0  0  0  0  0  0  0  0  0
    5.7456    6.5430    0.0000 H   0  0  0  0  0  0  0  0  0  0  0  0
    5.3471    7.2332    0.0000 H   0  0  0  0  0  0  0  0  0  0  0  0
   12.0264   -0.9492    0.0000 H   0  0  0  0  0  0  0  0  0  0  0  0
    9.5497   -2.2449    0.0000 H   0  0  0  0  0  0  0  0  0  0  0  0
   10.1133   -1.6814    0.0000 H   0  0  0  0  0  0  0  0  0  0  0  0
   11.2770   -2.9432    0.0000 H   0  0  0  0  0  0  0  0  0  0  0  0
    3.6584    7.2583    0.0000 H   0  0  0  0  0  0  0  0  0  0  0  0
    4.0569    6.5680    0.0000 H   0  0  0  0  0  0  0  0  0  0  0  0
   13.3496   -2.1683    0.0000 H   0  0  0  0  0  0  0  0  0  0  0  0
   12.5797   -1.9620    0.0000 H   0  0  0  0  0  0  0  0  0  0  0  0
    7.7331   10.7706    0.0000 H   0  0  0  0  0  0  0  0  0  0  0  0
    7.1962    9.8406    0.0000 H   0  0  0  0  0  0  0  0  0  0  0  0
    8.4757   -1.2685    0.0000 H   0  0  0  0  0  0  0  0  0  0  0  0
    7.9121   -1.8321    0.0000 H   0  0  0  0  0  0  0  0  0  0  0  0
   13.0410   -3.5866    0.0000 H   0  0  0  0  0  0  0  0  0  0  0  0
   13.8109   -3.7929    0.0000 H   0  0  0  0  0  0  0  0  0  0  0  0
   11.0181   -3.9091    0.0000 H   0  0  0  0  0  0  0  0  0  0  0  0
    4.8796    8.0430    0.0000 H   0  0  0  0  0  0  0  0  0  0  0  0
    4.4810    8.7332    0.0000 H   0  0  0  0  0  0  0  0  0  0  0  0
   11.9048   -6.0205    0.0000 H   0  0  0  0  0  0  0  0  0  0  0  0
   15.0227   -2.6166    0.0000 H   0  0  0  0  0  0  0  0  0  0  0  0
   14.2528   -2.4103    0.0000 H   0  0  0  0  0  0  0  0  0  0  0  0
    2.8660    5.3406    0.0000 H   0  0  0  0  0  0  0  0  0  0  0  0
   13.3343   -6.3908    0.0000 H   0  0  0  0  0  0  0  0  0  0  0  0
   13.1280   -5.6209    0.0000 H   0  0  0  0  0  0  0  0  0  0  0  0
   10.9389   -6.2794    0.0000 H   0  0  0  0  0  0  0  0  0  0  0  0
   10.6610   -5.2421    0.0000 H   0  0  0  0  0  0  0  0  0  0  0  0
   13.8196   -7.6413    0.0000 H   0  0  0  0  0  0  0  0  0  0  0  0
   11.1093   -6.9151    0.0000 H   0  0  0  0  0  0  0  0  0  0  0  0
   10.6900   -8.4799    0.0000 H   0  0  0  0  0  0  0  0  0  0  0  0
   14.3067   -9.3254    0.0000 H   0  0  0  0  0  0  0  0  0  0  0  0
    6.4473   -4.2373    0.0000 H   0  0  0  0  0  0  0  0  0  0  0  0
    7.4846   -4.5152    0.0000 H   0  0  0  0  0  0  0  0  0  0  0  0
    5.9990   -2.5642    0.0000 H   0  0  0  0  0  0  0  0  0  0  0  0
    6.7584   -1.8049    0.0000 H   0  0  0  0  0  0  0  0  0  0  0  0
   11.1102  -10.1819    0.0000 H   0  0  0  0  0  0  0  0  0  0  0  0
    2.5369   10.7706    0.0000 H   0  0  0  0  0  0  0  0  0  0  0  0
    2.0000    9.8406    0.0000 H   0  0  0  0  0  0  0  0  0  0  0  0
    4.2690   10.7706    0.0000 H   0  0  0  0  0  0  0  0  0  0  0  0
    4.8059    9.8406    0.0000 H   0  0  0  0  0  0  0  0  0  0  0  0
   13.8879  -10.9377    0.0000 H   0  0  0  0  0  0  0  0  0  0  0  0
   12.2789  -11.3689    0.0000 H   0  0  0  0  0  0  0  0  0  0  0  0
   17.4938   -3.9671    0.0000 H   0  0  0  0  0  0  0  0  0  0  0  0
   16.7345   -4.7264    0.0000 H   0  0  0  0  0  0  0  0  0  0  0  0
   17.0455   -2.2941    0.0000 H   0  0  0  0  0  0  0  0  0  0  0  0
   16.0082   -2.0161    0.0000 H   0  0  0  0  0  0  0  0  0  0  0  0
  1  2  1  0  0  0  0
  1 62  1  0  0  0  0
  2 65  1  0  0  0  0
  3 42  2  0  0  0  0
  4 44  2  0  0  0  0
  5 50  2  0  0  0  0
  6 52  2  0  0  0  0
  7 60  2  0  0  0  0
  8 63  2  0  0  0  0
  9 67  2  0  0  0  0
 10 69  2  0  0  0  0
 11 76  1  0  0  0  0
 11173  1  0  0  0  0
 12 75  2  0  0  0  0
 13 76  2  0  0  0  0
 14 81  2  0  0  0  0
 15 38  1  0  0  0  0
 15 41  1  0  0  0  0
 15 42  1  0  0  0  0
 16 44  1  0  0  0  0
 16 46  1  0  0  0  0
 16108  1  0  0  0  0
 17 43  1  0  0  0  0
 17 50  1  0  0  0  0
 17112  1  0  0  0  0
 18 51  1  0  0  0  0
 18 60  1  0  0  0  0
 18126  1  0  0  0  0
 19 52  1  0  0  0  0
 19 58  1  0  0  0  0
 19127  1  0  0  0  0
 20 55  1  0  0  0  0
 20134  1  0  0  0  0
 20135  1  0  0  0  0
 21 57  1  0  0  0  0
 21 69  1  0  0  0  0
 21138  1  0  0  0  0
 61 22  1  1  0  0  0
 22 67  1  0  0  0  0
 22143  1  0  0  0  0
 23 63  1  0  0  0  0
 68 23  1  6  0  0  0
 23144  1  0  0  0  0
 24 64  1  0  0  0  0
 24149  1  0  0  0  0
 24150  1  0  0  0  0
 66 25  1  1  0  0  0
 25 75  1  0  0  0  0
 25153  1  0  0  0  0
 26 69  1  0  0  0  0
 26161  1  0  0  0  0
 26162  1  0  0  0  0
 73 27  1  6  0  0  0
 27 81  1  0  0  0  0
 27167  1  0  0  0  0
 28 78  1  0  0  0  0
 28 86  2  0  0  0  0
 29 80  1  0  0  0  0
 29 89  2  0  0  0  0
 82 30  1  6  0  0  0
 30176  1  0  0  0  0
 30177  1  0  0  0  0
 31 83  1  0  0  0  0
 31 93  2  0  0  0  0
 32 86  1  0  0  0  0
 32182  1  0  0  0  0
 32183  1  0  0  0  0
 33 86  1  0  0  0  0
 33184  1  0  0  0  0
 33185  1  0  0  0  0
 34 89  1  0  0  0  0
 34187  1  0  0  0  0
 34188  1  0  0  0  0
 35 89  1  0  0  0  0
 35189  1  0  0  0  0
 35190  1  0  0  0  0
 36 93  1  0  0  0  0
 36193  1  0  0  0  0
 36194  1  0  0  0  0
 37 93  1  0  0  0  0
 37195  1  0  0  0  0
 37196  1  0  0  0  0
 38 39  1  0  0  0  0
 38 44  1  0  0  0  0
 38 98  1  1  0  0  0
 39 40  1  0  0  0  0
 39 99  1  0  0  0  0
 39100  1  0  0  0  0
 40 41  1  0  0  0  0
 40101  1  0  0  0  0
 40102  1  0  0  0  0
 41103  1  0  0  0  0
 41104  1  0  0  0  0
 42 43  1  0  0  0  0
 43 45  1  1  0  0  0
 43105  1  0  0  0  0
 45 47  1  0  0  0  0
 45106  1  0  0  0  0
 45107  1  0  0  0  0
 46 48  1  6  0  0  0
 46 52  1  0  0  0  0
 46109  1  0  0  0  0
 47 49  1  0  0  0  0
 47110  1  0  0  0  0
 47111  1  0  0  0  0
 48 53  1  0  0  0  0
 48113  1  0  0  0  0
 48114  1  0  0  0  0
 49 55  1  0  0  0  0
 49115  1  0  0  0  0
 49116  1  0  0  0  0
 50 51  1  0  0  0  0
 51 54  1  6  0  0  0
 51117  1  0  0  0  0
 53 57  1  0  0  0  0
 53118  1  0  0  0  0
 53119  1  0  0  0  0
 54 56  1  0  0  0  0
 54120  1  0  0  0  0
 54121  1  0  0  0  0
 55122  1  0  0  0  0
 55123  1  0  0  0  0
 56 59  1  0  0  0  0
 56124  1  0  0  0  0
 56125  1  0  0  0  0
 57128  1  0  0  0  0
 57129  1  0  0  0  0
 58 62  1  0  0  0  0
 58 63  1  1  0  0  0
 58130  1  0  0  0  0
 59 64  1  0  0  0  0
 59131  1  0  0  0  0
 59132  1  0  0  0  0
 60 61  1  0  0  0  0
 61 65  1  0  0  0  0
 61133  1  0  0  0  0
 62136  1  0  0  0  0
 62137  1  0  0  0  0
 64139  1  0  0  0  0
 64140  1  0  0  0  0
 65141  1  0  0  0  0
 65142  1  0  0  0  0
 66 67  1  0  0  0  0
 66 70  1  0  0  0  0
 66145  1  0  0  0  0
 68 71  1  0  0  0  0
 68 76  1  0  0  0  0
 68146  1  0  0  0  0
 70 72  1  0  0  0  0
 70147  1  0  0  0  0
 70148  1  0  0  0  0
 71 74  1  0  0  0  0
 71151  1  0  0  0  0
 71152  1  0  0  0  0
 72 78  1  0  0  0  0
 72154  1  0  0  0  0
 72155  1  0  0  0  0
 73 75  1  0  0  0  0
 73 77  1  0  0  0  0
 73156  1  0  0  0  0
 74 80  1  0  0  0  0
 74157  1  0  0  0  0
 74158  1  0  0  0  0
 77 79  1  0  0  0  0
 77159  1  0  0  0  0
 77160  1  0  0  0  0
 78163  1  0  0  0  0
 78164  1  0  0  0  0
 79 83  1  0  0  0  0
 79165  1  0  0  0  0
 79166  1  0  0  0  0
 80168  1  0  0  0  0
 80169  1  0  0  0  0
 81 82  1  0  0  0  0
 82 84  1  0  0  0  0
 82170  1  0  0  0  0
 83171  1  0  0  0  0
 83172  1  0  0  0  0
 84 85  1  0  0  0  0
 84174  1  0  0  0  0
 84175  1  0  0  0  0
 85 87  2  0  0  0  0
 85 88  1  0  0  0  0
 87 90  1  0  0  0  0
 87178  1  0  0  0  0
 88 92  2  0  0  0  0
 88179  1  0  0  0  0
 90 91  1  0  0  0  0
 90 94  2  0  0  0  0
 91 92  1  0  0  0  0
 91 95  2  0  0  0  0
 92180  1  0  0  0  0
 94 96  1  0  0  0  0
 94181  1  0  0  0  0
 95 97  1  0  0  0  0
 95186  1  0  0  0  0
 96 97  2  0  0  0  0
 96191  1  0  0  0  0
 97192  1  0  0  0  0
M  END
> <PUBCHEM_COMPOUND_CID>
511251
> <PUBCHEM_COMPOUND_CANONICALIZED>
1
> <PUBCHEM_CACTVS_COMPLEXITY>
2690
> <PUBCHEM_CACTVS_HBOND_ACCEPTOR>
20
> <PUBCHEM_CACTVS_HBOND_DONOR>
20
> <PUBCHEM_CACTVS_ROTATABLE_BOND>
35
> <PUBCHEM_CACTVS_SUBSKEYS>
AAADcfB//ABgAAAAAAAAAAAAAAAAAWAAAAAwYAAAAAAAAADBUAAAHgQQCAAADCjF2ASxCMPAAgCoAiHSPAACAAEgAAAIiIGIAIiKYDKAkTGUYAAklgKYiAeYmcCOwAACAAAQAACAAAQAACAAAAAAAAAAAA==
> <PUBCHEM_IUPAC_OPENEYE_NAME>
(2S)-2-[[(3R,6S,9R,14R,17S,20S)-3,6-bis(4-aminobutyl)-9-[[(2S)-2-[[(2S)-2-[[(2S)-2-amino-3-(2-naphthyl)propanoyl]amino]-5-guanidino-pentanoyl]amino]-5-guanidino-pentanoyl]amino]-2,5,8,16,19-pentaoxo-17-(3-ureidopropyl)-11,12-dithia-1,4,7,15,18-pentazabicyclo[18.3.0]tricosane-14-carbonyl]amino]-5-guanidino-pentanoic acid
> <PUBCHEM_IUPAC_CAS_NAME>
(2S)-2-[[[(3R,6S,9R,14R,17S,20S)-3,6-bis(4-aminobutyl)-9-[[(2S)-2-[[(2S)-2-[[(2S)-2-amino-3-(2-naphthalenyl)-1-oxopropyl]amino]-5-(diaminomethylideneamino)-1-oxopentyl]amino]-5-(diaminomethylideneamino)-1-oxopentyl]amino]-17-[3-(carbamoylamino)propyl]-2,5,8,16,19-pentaoxo-11,12-dithia-1,4,7,15,18-pentazabicyclo[18.3.0]tricosan-14-yl]-oxomethyl]amino]-5-(diaminomethylideneamino)pentanoic acid
> <PUBCHEM_IUPAC_NAME_MARKUP>
(2<I>S</I>)-2-[[(3<I>R</I>,6<I>S</I>,9<I>R</I>,14<I>R</I>,17<I>S</I>,20<I>S</I>)-3,6-bis(4-aminobutyl)-9-[[(2<I>S</I>)-2-[[(2<I>S</I>)-2-[[(2<I>S</I>)-2-amino-3-naphthalen-2-ylpropanoyl]amino]-5-(diaminomethylideneamino)pentanoyl]amino]-5-(diaminomethylideneamino)pentanoyl]amino]-17-[3-(carbamoylamino)propyl]-2,5,8,16,19-pentaoxo-11,12-dithia-1,4,7,15,18-pentazabicyclo[18.3.0]tricosane-14-carbonyl]amino]-5-(diaminomethylideneamino)pentanoic acid
> <PUBCHEM_IUPAC_NAME>
(2S)-2-[[(3R,6S,9R,14R,17S,20S)-3,6-bis(4-aminobutyl)-9-[[(2S)-2-[[(2S)-2-[[(2S)-2-amino-3-naphthalen-2-ylpropanoyl]amino]-5-(diaminomethylideneamino)pentanoyl]amino]-5-(diaminomethylideneamino)pentanoyl]amino]-17-[3-(carbamoylamino)propyl]-2,5,8,16,19-pentaoxo-11,12-dithia-1,4,7,15,18-pentazabicyclo[18.3.0]tricosane-14-carbonyl]amino]-5-(diaminomethylideneamino)pentanoic acid
> <PUBCHEM_IUPAC_SYSTEMATIC_NAME>
(2S)-2-[[(3R,6S,9R,14R,17S,20S)-17-[3-(aminocarbonylamino)propyl]-3,6-bis(4-azanylbutyl)-9-[[(2S)-2-[[(2S)-2-[[(2S)-2-azanyl-3-naphthalen-2-yl-propanoyl]amino]-5-[bis(azanyl)methylideneamino]pentanoyl]amino]-5-[bis(azanyl)methylideneamino]pentanoyl]amino]-2,5,8,16,19-pentakis(oxidanylidene)-11,12-dithia-1,4,7,15,18-pentazabicyclo[18.3.0]tricosan-14-yl]carbonylamino]-5-[bis(azanyl)methylideneamino]pentanoic acid
> <PUBCHEM_IUPAC_TRADITIONAL_NAME>
(2S)-2-[[(3R,6S,9R,14R,17S,20S)-3,6-bis(4-aminobutyl)-9-[[(2S)-2-[[(2S)-2-[[(2S)-2-amino-3-(2-naphthyl)propanoyl]amino]-5-guanidino-pentanoyl]amino]-5-guanidino-pentanoyl]amino]-2,5,8,16,19-pentaketo-17-(3-ureidopropyl)-11,12-dithia-1,4,7,15,18-pentazabicyclo[18.3.0]tricosane-14-carbonyl]amino]-5-guanidino-valeric acid
> <PUBCHEM_IUPAC_INCHI>
InChI=1S/C60H99N23O12S2/c61-23-5-3-14-38-49(86)79-42(15-4-6-24-62)55(92)83-29-11-20-46(83)54(91)78-41(18-9-28-74-60(70)95)51(88)82-45(53(90)80-43(56(93)94)19-10-27-73-59(68)69)33-97-96-32-44(52(89)77-38)81-50(87)40(17-8-26-72-58(66)67)76-48(85)39(16-7-25-71-57(64)65)75-47(84)37(63)31-34-21-22-35-12-1-2-13-36(35)30-34/h1-2,12-13,21-22,30,37-46H,3-11,14-20,23-29,31-33,61-63H2,(H,75,84)(H,76,85)(H,77,89)(H,78,91)(H,79,86)(H,80,90)(H,81,87)(H,82,88)(H,93,94)(H4,64,65,71)(H4,66,67,72)(H4,68,69,73)(H3,70,74,95)/t37-,38-,39-,40-,41-,42+,43-,44-,45-,46-/m0/s1
> <PUBCHEM_IUPAC_INCHIKEY>
UFILBYVFRSQQKZ-XDLCLKIKSA-N
> <PUBCHEM_XLOGP3_AA>
-7.4
> <PUBCHEM_EXACT_MASS>
1397.72849803
> <PUBCHEM_MOLECULAR_FORMULA>
C60H99N23O12S2
> <PUBCHEM_MOLECULAR_WEIGHT>
1398.7
> <PUBCHEM_OPENEYE_CAN_SMILES>
C1CC2C(=O)NC(C(=O)NC(CSSCC(C(=O)NC(C(=O)NC(C(=O)N2C1)CCCCN)CCCCN)NC(=O)C(CCCN=C(N)N)NC(=O)C(CCCN=C(N)N)NC(=O)C(CC3=CC4=CC=CC=C4C=C3)N)C(=O)NC(CCCN=C(N)N)C(=O)O)CCCNC(=O)N
> <PUBCHEM_OPENEYE_ISO_SMILES>
C1C[C@H]2C(=O)N[C@H](C(=O)N[C@@H](CSSC[C@@H](C(=O)N[C@H](C(=O)N[C@@H](C(=O)N2C1)CCCCN)CCCCN)NC(=O)[C@H](CCCN=C(N)N)NC(=O)[C@H](CCCN=C(N)N)NC(=O)[C@H](CC3=CC4=CC=CC=C4C=C3)N)C(=O)N[C@@H](CCCN=C(N)N)C(=O)O)CCCNC(=O)N
> <PUBCHEM_CACTVS_TPSA>
667
> <PUBCHEM_MONOISOTOPIC_WEIGHT>
1397.72849803
> <PUBCHEM_TOTAL_CHARGE>
0
> <PUBCHEM_HEAVY_ATOM_COUNT>
97
> <PUBCHEM_ATOM_DEF_STEREO_COUNT>
10
> <PUBCHEM_ATOM_UDEF_STEREO_COUNT>
0
> <PUBCHEM_BOND_DEF_STEREO_COUNT>
0
> <PUBCHEM_BOND_UDEF_STEREO_COUNT>
0
> <PUBCHEM_ISOTOPIC_ATOM_COUNT>
0
> <PUBCHEM_COMPONENT_COUNT>
1
> <PUBCHEM_CACTVS_TAUTO_COUNT>
-1
> <PUBCHEM_COORDINATE_TYPE>
1
5
255
> <PUBCHEM_BONDANNOTATIONS>
61  22  5
68  23  6
66  25  5
73  27  6
82  30  6
38  98  5
43  45  5
46  48  6
51  54  6
58  63  5
85  87  8
85  88  8
87  90  8
88  92  8
90  91  8
90  94  8
91  92  8
91  95  8
94  96  8
95  97  8
96  97  8
$$$$
