511224
  -OEChem-10302200282D
 80 81  0     1  0  0  0  0  0999 V2000
    5.0009    3.3118    0.0000 P   0  0  3  0  0  0  0  0  0  0  0  0
    4.5411    6.7944    0.0000 O   0  0  0  0  0  0  0  0  0  0  0  0
    4.5942    2.3983    0.0000 O   0  0  0  0  0  0  0  0  0  0  0  0
    4.4131    4.1208    0.0000 O   0  0  0  0  0  0  0  0  0  0  0  0
    5.9954    3.4163    0.0000 O   0  0  0  0  0  0  0  0  0  0  0  0
    5.4641    8.3822    0.0000 O   0  0  0  0  0  0  0  0  0  0  0  0
    3.7320   11.3822    0.0000 O   0  0  0  0  0  0  0  0  0  0  0  0
    3.7320    8.3822    0.0000 N   0  0  0  0  0  0  0  0  0  0  0  0
    4.5981    9.8822    0.0000 N   0  0  0  0  0  0  0  0  0  0  0  0
    5.3183   -4.4920    0.0000 C   0  0  0  0  0  0  0  0  0  0  0  0
    5.9061   -5.3010    0.0000 C   0  0  0  0  0  0  0  0  0  0  0  0
    5.7251   -3.5784    0.0000 C   0  0  0  0  0  0  0  0  0  0  0  0
    5.4994   -6.2146    0.0000 C   0  0  0  0  0  0  0  0  0  0  0  0
    5.1373   -2.7694    0.0000 C   0  0  0  0  0  0  0  0  0  0  0  0
    6.0872   -7.0236    0.0000 C   0  0  0  0  0  0  0  0  0  0  0  0
    5.5440   -1.8559    0.0000 C   0  0  0  0  0  0  0  0  0  0  0  0
    5.6804   -7.9371    0.0000 C   0  0  0  0  0  0  0  0  0  0  0  0
    4.9562   -1.0469    0.0000 C   0  0  0  0  0  0  0  0  0  0  0  0
    6.2682   -8.7461    0.0000 C   0  0  0  0  0  0  0  0  0  0  0  0
    5.3630   -0.1333    0.0000 C   0  0  0  0  0  0  0  0  0  0  0  0
    5.8615   -9.6597    0.0000 C   0  0  0  0  0  0  0  0  0  0  0  0
    4.7752    0.6757    0.0000 C   0  0  0  0  0  0  0  0  0  0  0  0
    6.4493  -10.4687    0.0000 C   0  0  0  0  0  0  0  0  0  0  0  0
    5.1819    1.5892    0.0000 C   0  0  0  0  0  0  0  0  0  0  0  0
    4.2320    5.8434    0.0000 C   0  0  2  0  0  0  0  0  0  0  0  0
    3.7320    7.3822    0.0000 C   0  0  1  0  0  0  0  0  0  0  0  0
    4.8198    5.0344    0.0000 C   0  0  0  0  0  0  0  0  0  0  0  0
    3.2320    5.8434    0.0000 C   0  0  0  0  0  0  0  0  0  0  0  0
    2.9230    6.7944    0.0000 C   0  0  0  0  0  0  0  0  0  0  0  0
    6.0425  -11.3822    0.0000 C   0  0  0  0  0  0  0  0  0  0  0  0
    2.8660    8.8822    0.0000 C   0  0  0  0  0  0  0  0  0  0  0  0
    4.5981    8.8822    0.0000 C   0  0  0  0  0  0  0  0  0  0  0  0
    2.8660    9.8822    0.0000 C   0  0  0  0  0  0  0  0  0  0  0  0
    3.7320   10.3822    0.0000 C   0  0  0  0  0  0  0  0  0  0  0  0
    2.0000   10.3822    0.0000 C   0  0  0  0  0  0  0  0  0  0  0  0
    4.8043   -4.1453    0.0000 H   0  0  0  0  0  0  0  0  0  0  0  0
    4.8876   -4.9380    0.0000 H   0  0  0  0  0  0  0  0  0  0  0  0
    6.4201   -5.6477    0.0000 H   0  0  0  0  0  0  0  0  0  0  0  0
    6.3368   -4.8550    0.0000 H   0  0  0  0  0  0  0  0  0  0  0  0
    6.2391   -3.9251    0.0000 H   0  0  0  0  0  0  0  0  0  0  0  0
    6.1558   -3.1324    0.0000 H   0  0  0  0  0  0  0  0  0  0  0  0
    4.9854   -5.8678    0.0000 H   0  0  0  0  0  0  0  0  0  0  0  0
    5.0687   -6.6605    0.0000 H   0  0  0  0  0  0  0  0  0  0  0  0
    4.6233   -2.4227    0.0000 H   0  0  0  0  0  0  0  0  0  0  0  0
    4.7066   -3.2154    0.0000 H   0  0  0  0  0  0  0  0  0  0  0  0
    6.6012   -7.3703    0.0000 H   0  0  0  0  0  0  0  0  0  0  0  0
    6.5179   -6.5776    0.0000 H   0  0  0  0  0  0  0  0  0  0  0  0
    6.0580   -2.2026    0.0000 H   0  0  0  0  0  0  0  0  0  0  0  0
    5.9747   -1.4099    0.0000 H   0  0  0  0  0  0  0  0  0  0  0  0
    5.1664   -7.5904    0.0000 H   0  0  0  0  0  0  0  0  0  0  0  0
    5.2498   -8.3831    0.0000 H   0  0  0  0  0  0  0  0  0  0  0  0
    4.4422   -0.7002    0.0000 H   0  0  0  0  0  0  0  0  0  0  0  0
    4.5256   -1.4928    0.0000 H   0  0  0  0  0  0  0  0  0  0  0  0
    6.7822   -9.0928    0.0000 H   0  0  0  0  0  0  0  0  0  0  0  0
    6.6989   -8.3001    0.0000 H   0  0  0  0  0  0  0  0  0  0  0  0
    5.8770   -0.4800    0.0000 H   0  0  0  0  0  0  0  0  0  0  0  0
    5.7937    0.3127    0.0000 H   0  0  0  0  0  0  0  0  0  0  0  0
    5.3475   -9.3130    0.0000 H   0  0  0  0  0  0  0  0  0  0  0  0
    5.4308  -10.1057    0.0000 H   0  0  0  0  0  0  0  0  0  0  0  0
    4.2612    1.0224    0.0000 H   0  0  0  0  0  0  0  0  0  0  0  0
    4.3445    0.2297    0.0000 H   0  0  0  0  0  0  0  0  0  0  0  0
    6.9633  -10.8154    0.0000 H   0  0  0  0  0  0  0  0  0  0  0  0
    6.8800  -10.0227    0.0000 H   0  0  0  0  0  0  0  0  0  0  0  0
    5.6959    1.2426    0.0000 H   0  0  0  0  0  0  0  0  0  0  0  0
    5.6126    2.0352    0.0000 H   0  0  0  0  0  0  0  0  0  0  0  0
    4.8444    5.9404    0.0000 H   0  0  0  0  0  0  0  0  0  0  0  0
    4.2845    7.6637    0.0000 H   0  0  0  0  0  0  0  0  0  0  0  0
    5.3338    4.6877    0.0000 H   0  0  0  0  0  0  0  0  0  0  0  0
    5.2505    5.4804    0.0000 H   0  0  0  0  0  0  0  0  0  0  0  0
    2.8676    5.3418    0.0000 H   0  0  0  0  0  0  0  0  0  0  0  0
    2.3334    6.9860    0.0000 H   0  0  0  0  0  0  0  0  0  0  0  0
    5.4761  -11.1301    0.0000 H   0  0  0  0  0  0  0  0  0  0  0  0
    5.7904  -11.9486    0.0000 H   0  0  0  0  0  0  0  0  0  0  0  0
    6.6089  -11.6344    0.0000 H   0  0  0  0  0  0  0  0  0  0  0  0
    4.1555    3.2230    0.0000 H   0  0  0  0  0  0  0  0  0  0  0  0
    2.3291    8.5722    0.0000 H   0  0  0  0  0  0  0  0  0  0  0  0
    5.1350   10.1922    0.0000 H   0  0  0  0  0  0  0  0  0  0  0  0
    2.3100   10.9192    0.0000 H   0  0  0  0  0  0  0  0  0  0  0  0
    1.4631   10.6922    0.0000 H   0  0  0  0  0  0  0  0  0  0  0  0
    1.6900    9.8453    0.0000 H   0  0  0  0  0  0  0  0  0  0  0  0
  1  3  1  0  0  0  0
  1  4  1  0  0  0  0
  1  5  2  0  0  0  0
  1 75  1  0  0  0  0
  2 25  1  0  0  0  0
  2 26  1  0  0  0  0
  3 24  1  0  0  0  0
  4 27  1  0  0  0  0
  6 32  2  0  0  0  0
  7 34  2  0  0  0  0
 26  8  1  6  0  0  0
  8 31  1  0  0  0  0
  8 32  1  0  0  0  0
  9 32  1  0  0  0  0
  9 34  1  0  0  0  0
  9 77  1  0  0  0  0
 10 11  1  0  0  0  0
 10 12  1  0  0  0  0
 10 36  1  0  0  0  0
 10 37  1  0  0  0  0
 11 13  1  0  0  0  0
 11 38  1  0  0  0  0
 11 39  1  0  0  0  0
 12 14  1  0  0  0  0
 12 40  1  0  0  0  0
 12 41  1  0  0  0  0
 13 15  1  0  0  0  0
 13 42  1  0  0  0  0
 13 43  1  0  0  0  0
 14 16  1  0  0  0  0
 14 44  1  0  0  0  0
 14 45  1  0  0  0  0
 15 17  1  0  0  0  0
 15 46  1  0  0  0  0
 15 47  1  0  0  0  0
 16 18  1  0  0  0  0
 16 48  1  0  0  0  0
 16 49  1  0  0  0  0
 17 19  1  0  0  0  0
 17 50  1  0  0  0  0
 17 51  1  0  0  0  0
 18 20  1  0  0  0  0
 18 52  1  0  0  0  0
 18 53  1  0  0  0  0
 19 21  1  0  0  0  0
 19 54  1  0  0  0  0
 19 55  1  0  0  0  0
 20 22  1  0  0  0  0
 20 56  1  0  0  0  0
 20 57  1  0  0  0  0
 21 23  1  0  0  0  0
 21 58  1  0  0  0  0
 21 59  1  0  0  0  0
 22 24  1  0  0  0  0
 22 60  1  0  0  0  0
 22 61  1  0  0  0  0
 23 30  1  0  0  0  0
 23 62  1  0  0  0  0
 23 63  1  0  0  0  0
 24 64  1  0  0  0  0
 24 65  1  0  0  0  0
 25 27  1  6  0  0  0
 25 28  1  0  0  0  0
 25 66  1  0  0  0  0
 26 29  1  0  0  0  0
 26 67  1  0  0  0  0
 27 68  1  0  0  0  0
 27 69  1  0  0  0  0
 28 29  2  0  0  0  0
 28 70  1  0  0  0  0
 29 71  1  0  0  0  0
 30 72  1  0  0  0  0
 30 73  1  0  0  0  0
 30 74  1  0  0  0  0
 31 33  2  0  0  0  0
 31 76  1  0  0  0  0
 33 34  1  0  0  0  0
 33 35  1  0  0  0  0
 35 78  1  0  0  0  0
 35 79  1  0  0  0  0
 35 80  1  0  0  0  0
M  END
> <PUBCHEM_COMPOUND_CID>
511224
> <PUBCHEM_COMPOUND_CANONICALIZED>
1
> <PUBCHEM_CACTVS_COMPLEXITY>
727
> <PUBCHEM_CACTVS_HBOND_ACCEPTOR>
6
> <PUBCHEM_CACTVS_HBOND_DONOR>
1
> <PUBCHEM_CACTVS_ROTATABLE_BOND>
20
> <PUBCHEM_CACTVS_SUBSKEYS>
AAADcfB7OAIAAAAAAAAAAAAAAAAAAQAAAAAgAAAAAAAAAAAAAAAAHgAQACAQDBThgAYDAAPABRCIQiFWUICAAAAgAAAICAEIAEiBBAIAIQAOEAAMRyIKIMOAwKAAAAAAAAAAAAAAAAAAAAAAAAAAAAAAAA==
> <PUBCHEM_IUPAC_OPENEYE_NAME>
1-[(2R,5S)-5-(hexadecoxyphosphonoyloxymethyl)-2,5-dihydrofuran-2-yl]-5-methyl-pyrimidine-2,4-dione
> <PUBCHEM_IUPAC_CAS_NAME>
1-[(2R,5S)-5-(hexadecoxyphosphonoyloxymethyl)-2,5-dihydrofuran-2-yl]-5-methylpyrimidine-2,4-dione
> <PUBCHEM_IUPAC_NAME_MARKUP>
1-[(2<I>R</I>,5<I>S</I>)-5-(hexadecoxyphosphonoyloxymethyl)-2,5-dihydrofuran-2-yl]-5-methylpyrimidine-2,4-dione
> <PUBCHEM_IUPAC_NAME>
1-[(2R,5S)-5-(hexadecoxyphosphonoyloxymethyl)-2,5-dihydrofuran-2-yl]-5-methylpyrimidine-2,4-dione
> <PUBCHEM_IUPAC_SYSTEMATIC_NAME>
1-[(2R,5S)-5-(hexadecoxyphosphonoyloxymethyl)-2,5-dihydrofuran-2-yl]-5-methyl-pyrimidine-2,4-dione
> <PUBCHEM_IUPAC_TRADITIONAL_NAME>
1-[(2R,5S)-5-(cetyloxyphosphonoyloxymethyl)-2,5-dihydrofuran-2-yl]-5-methyl-pyrimidine-2,4-quinone
> <PUBCHEM_IUPAC_INCHI>
InChI=1S/C26H45N2O6P/c1-3-4-5-6-7-8-9-10-11-12-13-14-15-16-19-32-35(31)33-21-23-17-18-24(34-23)28-20-22(2)25(29)27-26(28)30/h17-18,20,23-24,35H,3-16,19,21H2,1-2H3,(H,27,29,30)/t23-,24+/m0/s1
> <PUBCHEM_IUPAC_INCHIKEY>
MKIRXOANELCPQD-BJKOFHAPSA-N
> <PUBCHEM_XLOGP3>
6.9
> <PUBCHEM_EXACT_MASS>
512.30152416
> <PUBCHEM_MOLECULAR_FORMULA>
C26H45N2O6P
> <PUBCHEM_MOLECULAR_WEIGHT>
512.6
> <PUBCHEM_OPENEYE_CAN_SMILES>
CCCCCCCCCCCCCCCCOP(=O)OCC1C=CC(O1)N2C=C(C(=O)NC2=O)C
> <PUBCHEM_OPENEYE_ISO_SMILES>
CCCCCCCCCCCCCCCCOP(=O)OC[C@@H]1C=C[C@@H](O1)N2C=C(C(=O)NC2=O)C
> <PUBCHEM_CACTVS_TPSA>
94.2
> <PUBCHEM_MONOISOTOPIC_WEIGHT>
512.30152416
> <PUBCHEM_TOTAL_CHARGE>
0
> <PUBCHEM_HEAVY_ATOM_COUNT>
35
> <PUBCHEM_ATOM_DEF_STEREO_COUNT>
2
> <PUBCHEM_ATOM_UDEF_STEREO_COUNT>
1
> <PUBCHEM_BOND_DEF_STEREO_COUNT>
0
> <PUBCHEM_BOND_UDEF_STEREO_COUNT>
0
> <PUBCHEM_ISOTOPIC_ATOM_COUNT>
0
> <PUBCHEM_COMPONENT_COUNT>
1
> <PUBCHEM_CACTVS_TAUTO_COUNT>
-1
> <PUBCHEM_COORDINATE_TYPE>
1
5
255
> <PUBCHEM_BONDANNOTATIONS>
1  75  3
25  27  6
31  33  8
33  34  8
26  8  6
8  31  8
8  32  8
9  32  8
9  34  8
$$$$
