511210
  -OEChem-10302200282D
 70 74  0     1  0  0  0  0  0999 V2000
    5.5496   -0.8899    0.0000 P   0  0  3  0  0  0  0  0  0  0  0  0
    4.9619   -0.0808    0.0000 O   0  0  0  0  0  0  0  0  0  0  0  0
    4.7406   -1.4776    0.0000 O   0  0  0  0  0  0  0  0  0  0  0  0
    4.6694   -3.9371    0.0000 O   0  0  0  0  0  0  0  0  0  0  0  0
    6.3587   -0.3021    0.0000 O   0  0  0  0  0  0  0  0  0  0  0  0
    5.0898    2.5928    0.0000 O   0  0  0  0  0  0  0  0  0  0  0  0
    4.1342   -2.2898    0.0000 O   0  0  0  0  0  0  0  0  0  0  0  0
    6.0129    4.1806    0.0000 O   0  0  0  0  0  0  0  0  0  0  0  0
    4.2808    7.1806    0.0000 O   0  0  0  0  0  0  0  0  0  0  0  0
    6.1374   -1.6989    0.0000 N   0  0  3  0  0  0  0  0  0  0  0  0
    4.2808    4.1806    0.0000 N   0  0  0  0  0  0  0  0  0  0  0  0
    5.1468    5.6806    0.0000 N   0  0  0  0  0  0  0  0  0  0  0  0
    5.8284   -2.6499    0.0000 C   0  0  1  0  0  0  0  0  0  0  0  0
    6.6374   -3.2377    0.0000 C   0  0  0  0  0  0  0  0  0  0  0  0
    7.1374   -1.6989    0.0000 C   0  0  0  0  0  0  0  0  0  0  0  0
    7.4465   -2.6499    0.0000 C   0  0  0  0  0  0  0  0  0  0  0  0
    4.8774   -2.9590    0.0000 C   0  0  0  0  0  0  0  0  0  0  0  0
    5.3686    0.8327    0.0000 C   0  0  0  0  0  0  0  0  0  0  0  0
    4.7808    1.6417    0.0000 C   0  0  2  0  0  0  0  0  0  0  0  0
    4.2808    3.1806    0.0000 C   0  0  1  0  0  0  0  0  0  0  0  0
    3.7808    1.6417    0.0000 C   0  0  0  0  0  0  0  0  0  0  0  0
    3.4718    2.5928    0.0000 C   0  0  0  0  0  0  0  0  0  0  0  0
    3.8271   -1.0709    0.0000 C   0  0  0  0  0  0  0  0  0  0  0  0
    3.7184   -4.2461    0.0000 C   0  0  0  0  0  0  0  0  0  0  0  0
    3.4148    4.6806    0.0000 C   0  0  0  0  0  0  0  0  0  0  0  0
    3.0181   -1.6587    0.0000 C   0  0  0  0  0  0  0  0  0  0  0  0
    3.7226   -0.0764    0.0000 C   0  0  0  0  0  0  0  0  0  0  0  0
    3.5105   -5.2243    0.0000 C   0  0  0  0  0  0  0  0  0  0  0  0
    5.1468    4.6806    0.0000 C   0  0  0  0  0  0  0  0  0  0  0  0
    3.4148    5.6806    0.0000 C   0  0  0  0  0  0  0  0  0  0  0  0
    2.1045   -1.2520    0.0000 C   0  0  0  0  0  0  0  0  0  0  0  0
    2.8090    0.3303    0.0000 C   0  0  0  0  0  0  0  0  0  0  0  0
    4.2808    6.1806    0.0000 C   0  0  0  0  0  0  0  0  0  0  0  0
    4.2536   -5.8934    0.0000 C   0  0  0  0  0  0  0  0  0  0  0  0
    2.5594   -5.5333    0.0000 C   0  0  0  0  0  0  0  0  0  0  0  0
    2.0000   -0.2574    0.0000 C   0  0  0  0  0  0  0  0  0  0  0  0
    2.5488    6.1806    0.0000 C   0  0  0  0  0  0  0  0  0  0  0  0
    4.0457   -6.8715    0.0000 C   0  0  0  0  0  0  0  0  0  0  0  0
    2.3515   -6.5114    0.0000 C   0  0  0  0  0  0  0  0  0  0  0  0
    3.0947   -7.1806    0.0000 C   0  0  0  0  0  0  0  0  0  0  0  0
    5.3900   -2.2115    0.0000 H   0  0  0  0  0  0  0  0  0  0  0  0
    6.2226   -3.6985    0.0000 H   0  0  0  0  0  0  0  0  0  0  0  0
    7.0523   -3.6985    0.0000 H   0  0  0  0  0  0  0  0  0  0  0  0
    7.7439   -1.5700    0.0000 H   0  0  0  0  0  0  0  0  0  0  0  0
    7.0726   -1.0823    0.0000 H   0  0  0  0  0  0  0  0  0  0  0  0
    7.7565   -3.1869    0.0000 H   0  0  0  0  0  0  0  0  0  0  0  0
    8.0128   -2.3978    0.0000 H   0  0  0  0  0  0  0  0  0  0  0  0
    5.8826    0.4860    0.0000 H   0  0  0  0  0  0  0  0  0  0  0  0
    5.7993    1.2787    0.0000 H   0  0  0  0  0  0  0  0  0  0  0  0
    5.3932    1.7387    0.0000 H   0  0  0  0  0  0  0  0  0  0  0  0
    3.7284    3.4620    0.0000 H   0  0  0  0  0  0  0  0  0  0  0  0
    3.4164    1.1401    0.0000 H   0  0  0  0  0  0  0  0  0  0  0  0
    2.8822    2.7844    0.0000 H   0  0  0  0  0  0  0  0  0  0  0  0
    3.6321   -3.6322    0.0000 H   0  0  0  0  0  0  0  0  0  0  0  0
    3.0988   -4.2245    0.0000 H   0  0  0  0  0  0  0  0  0  0  0  0
    2.8779    4.3706    0.0000 H   0  0  0  0  0  0  0  0  0  0  0  0
    3.0829   -2.2753    0.0000 H   0  0  0  0  0  0  0  0  0  0  0  0
    4.2242    0.2880    0.0000 H   0  0  0  0  0  0  0  0  0  0  0  0
    5.6838    5.9906    0.0000 H   0  0  0  0  0  0  0  0  0  0  0  0
    1.6029   -1.6164    0.0000 H   0  0  0  0  0  0  0  0  0  0  0  0
    2.7442    0.9470    0.0000 H   0  0  0  0  0  0  0  0  0  0  0  0
    4.8433   -5.7018    0.0000 H   0  0  0  0  0  0  0  0  0  0  0  0
    2.0987   -5.1184    0.0000 H   0  0  0  0  0  0  0  0  0  0  0  0
    1.4336   -0.0053    0.0000 H   0  0  0  0  0  0  0  0  0  0  0  0
    2.8588    6.7175    0.0000 H   0  0  0  0  0  0  0  0  0  0  0  0
    2.0118    6.4906    0.0000 H   0  0  0  0  0  0  0  0  0  0  0  0
    2.2388    5.6436    0.0000 H   0  0  0  0  0  0  0  0  0  0  0  0
    4.5065   -7.2864    0.0000 H   0  0  0  0  0  0  0  0  0  0  0  0
    1.7619   -6.7030    0.0000 H   0  0  0  0  0  0  0  0  0  0  0  0
    2.9658   -7.7870    0.0000 H   0  0  0  0  0  0  0  0  0  0  0  0
  1  2  1  0  0  0  0
  1  3  1  0  0  0  0
  1  5  2  0  0  0  0
  1 10  1  0  0  0  0
  2 18  1  0  0  0  0
  3 23  1  0  0  0  0
  4 17  1  0  0  0  0
  4 24  1  0  0  0  0
  6 19  1  0  0  0  0
  6 20  1  0  0  0  0
  7 17  2  0  0  0  0
  8 29  2  0  0  0  0
  9 33  2  0  0  0  0
 10 13  1  0  0  0  0
 10 15  1  0  0  0  0
 20 11  1  6  0  0  0
 11 25  1  0  0  0  0
 11 29  1  0  0  0  0
 12 29  1  0  0  0  0
 12 33  1  0  0  0  0
 12 59  1  0  0  0  0
 13 14  1  0  0  0  0
 13 17  1  1  0  0  0
 13 41  1  0  0  0  0
 14 16  1  0  0  0  0
 14 42  1  0  0  0  0
 14 43  1  0  0  0  0
 15 16  1  0  0  0  0
 15 44  1  0  0  0  0
 15 45  1  0  0  0  0
 16 46  1  0  0  0  0
 16 47  1  0  0  0  0
 19 18  1  6  0  0  0
 18 48  1  0  0  0  0
 18 49  1  0  0  0  0
 19 21  1  0  0  0  0
 19 50  1  0  0  0  0
 20 22  1  0  0  0  0
 20 51  1  0  0  0  0
 21 22  2  0  0  0  0
 21 52  1  0  0  0  0
 22 53  1  0  0  0  0
 23 26  2  0  0  0  0
 23 27  1  0  0  0  0
 24 28  1  0  0  0  0
 24 54  1  0  0  0  0
 24 55  1  0  0  0  0
 25 30  2  0  0  0  0
 25 56  1  0  0  0  0
 26 31  1  0  0  0  0
 26 57  1  0  0  0  0
 27 32  2  0  0  0  0
 27 58  1  0  0  0  0
 28 34  2  0  0  0  0
 28 35  1  0  0  0  0
 30 33  1  0  0  0  0
 30 37  1  0  0  0  0
 31 36  2  0  0  0  0
 31 60  1  0  0  0  0
 32 36  1  0  0  0  0
 32 61  1  0  0  0  0
 34 38  1  0  0  0  0
 34 62  1  0  0  0  0
 35 39  2  0  0  0  0
 35 63  1  0  0  0  0
 36 64  1  0  0  0  0
 37 65  1  0  0  0  0
 37 66  1  0  0  0  0
 37 67  1  0  0  0  0
 38 40  2  0  0  0  0
 38 68  1  0  0  0  0
 39 40  1  0  0  0  0
 39 69  1  0  0  0  0
 40 70  1  0  0  0  0
M  END
> <PUBCHEM_COMPOUND_CID>
511210
> <PUBCHEM_COMPOUND_CANONICALIZED>
1
> <PUBCHEM_CACTVS_COMPLEXITY>
1050
> <PUBCHEM_CACTVS_HBOND_ACCEPTOR>
9
> <PUBCHEM_CACTVS_HBOND_DONOR>
1
> <PUBCHEM_CACTVS_ROTATABLE_BOND>
11
> <PUBCHEM_CACTVS_SUBSKEYS>
AAADceB7PAIAAAAAAAAAAAAAAAAAAWIAAAAwYIAAAAAAAAABQAAAHgAQgCAADDzhmAYzDoPABRCIQiHWWICCAAAgIAAIiAGOCMiLJjKAsTqPMAAsxzOaqMeY0SAOAAAAAAAAAAAAAAAAAAAAAAAAAAAAAA==
> <PUBCHEM_IUPAC_OPENEYE_NAME>
benzyl (2S)-1-[[(2S,5R)-5-(5-methyl-2,4-dioxo-pyrimidin-1-yl)-2,5-dihydrofuran-2-yl]methoxy-phenoxy-phosphoryl]pyrrolidine-2-carboxylate
> <PUBCHEM_IUPAC_CAS_NAME>
(2S)-1-[[(2S,5R)-5-(5-methyl-2,4-dioxo-1-pyrimidinyl)-2,5-dihydrofuran-2-yl]methoxy-phenoxyphosphoryl]-2-pyrrolidinecarboxylic acid (phenylmethyl) ester
> <PUBCHEM_IUPAC_NAME_MARKUP>
benzyl (2<I>S</I>)-1-[[(2<I>S</I>,5<I>R</I>)-5-(5-methyl-2,4-dioxopyrimidin-1-yl)-2,5-dihydrofuran-2-yl]methoxy-phenoxyphosphoryl]pyrrolidine-2-carboxylate
> <PUBCHEM_IUPAC_NAME>
benzyl (2S)-1-[[(2S,5R)-5-(5-methyl-2,4-dioxopyrimidin-1-yl)-2,5-dihydrofuran-2-yl]methoxy-phenoxyphosphoryl]pyrrolidine-2-carboxylate
> <PUBCHEM_IUPAC_SYSTEMATIC_NAME>
(phenylmethyl) (2S)-1-[[(2S,5R)-5-[5-methyl-2,4-bis(oxidanylidene)pyrimidin-1-yl]-2,5-dihydrofuran-2-yl]methoxy-phenoxy-phosphoryl]pyrrolidine-2-carboxylate
> <PUBCHEM_IUPAC_TRADITIONAL_NAME>
(2S)-1-[[(2S,5R)-5-(2,4-diketo-5-methyl-pyrimidin-1-yl)-2,5-dihydrofuran-2-yl]methoxy-phenoxy-phosphoryl]pyrrolidine-2-carboxylic acid benzyl ester
> <PUBCHEM_IUPAC_INCHI>
InChI=1S/C28H30N3O8P/c1-20-17-30(28(34)29-26(20)32)25-15-14-23(38-25)19-37-40(35,39-22-11-6-3-7-12-22)31-16-8-13-24(31)27(33)36-18-21-9-4-2-5-10-21/h2-7,9-12,14-15,17,23-25H,8,13,16,18-19H2,1H3,(H,29,32,34)/t23-,24-,25+,40?/m0/s1
> <PUBCHEM_IUPAC_INCHIKEY>
QHIBVSRSKLRLRE-VGSOICMISA-N
> <PUBCHEM_XLOGP3_AA>
3.1
> <PUBCHEM_EXACT_MASS>
567.17705192
> <PUBCHEM_MOLECULAR_FORMULA>
C28H30N3O8P
> <PUBCHEM_MOLECULAR_WEIGHT>
567.5
> <PUBCHEM_OPENEYE_CAN_SMILES>
CC1=CN(C(=O)NC1=O)C2C=CC(O2)COP(=O)(N3CCCC3C(=O)OCC4=CC=CC=C4)OC5=CC=CC=C5
> <PUBCHEM_OPENEYE_ISO_SMILES>
CC1=CN(C(=O)NC1=O)[C@H]2C=C[C@H](O2)COP(=O)(N3CCC[C@H]3C(=O)OCC4=CC=CC=C4)OC5=CC=CC=C5
> <PUBCHEM_CACTVS_TPSA>
124
> <PUBCHEM_MONOISOTOPIC_WEIGHT>
567.17705192
> <PUBCHEM_TOTAL_CHARGE>
0
> <PUBCHEM_HEAVY_ATOM_COUNT>
40
> <PUBCHEM_ATOM_DEF_STEREO_COUNT>
3
> <PUBCHEM_ATOM_UDEF_STEREO_COUNT>
1
> <PUBCHEM_BOND_DEF_STEREO_COUNT>
0
> <PUBCHEM_BOND_UDEF_STEREO_COUNT>
0
> <PUBCHEM_ISOTOPIC_ATOM_COUNT>
0
> <PUBCHEM_COMPONENT_COUNT>
1
> <PUBCHEM_CACTVS_TAUTO_COUNT>
-1
> <PUBCHEM_COORDINATE_TYPE>
1
5
255
> <PUBCHEM_BONDANNOTATIONS>
1  2  3
20  11  6
11  25  8
11  29  8
12  29  8
12  33  8
13  17  5
19  18  6
23  26  8
23  27  8
25  30  8
26  31  8
27  32  8
28  34  8
28  35  8
30  33  8
31  36  8
32  36  8
34  38  8
35  39  8
38  40  8
39  40  8
$$$$
