511264
  -OEChem-10302200282D
119121  0     1  0  0  0  0  0999 V2000
    6.8671    1.5950    0.0000 O   0  0  0  0  0  0  0  0  0  0  0  0
    6.8671    0.5950    0.0000 O   0  0  0  0  0  0  0  0  0  0  0  0
    6.0010   -2.9050    0.0000 O   0  0  0  0  0  0  0  0  0  0  0  0
    7.7331    5.0950    0.0000 O   0  0  0  0  0  0  0  0  0  0  0  0
    6.8671   -5.4050    0.0000 O   0  0  0  0  0  0  0  0  0  0  0  0
    6.0010   -3.9050    0.0000 O   0  0  0  0  0  0  0  0  0  0  0  0
    2.5369   -2.9050    0.0000 O   0  0  0  0  0  0  0  0  0  0  0  0
    8.5991    1.5950    0.0000 N   0  0  0  0  0  0  0  0  0  0  0  0
    7.7331   -0.9050    0.0000 N   0  0  0  0  0  0  0  0  0  0  0  0
    6.8671    3.5950    0.0000 N   0  0  0  0  0  0  0  0  0  0  0  0
    7.7331   -2.9050    0.0000 N   0  0  0  0  0  0  0  0  0  0  0  0
    6.0010    6.0950    0.0000 N   0  0  0  0  0  0  0  0  0  0  0  0
    9.4651    6.0950    0.0000 N   0  0  0  0  0  0  0  0  0  0  0  0
    3.4030    6.5950    0.0000 N   0  0  0  0  0  0  0  0  0  0  0  0
    7.7331   -6.9050    0.0000 N   0  0  0  0  0  0  0  0  0  0  0  0
   10.3312    7.5950    0.0000 N   0  0  0  0  0  0  0  0  0  0  0  0
   11.1972    6.0950    0.0000 N   0  0  0  0  0  0  0  0  0  0  0  0
    2.5369    8.0950    0.0000 N   0  0  0  0  0  0  0  0  0  0  0  0
    4.2690    8.0950    0.0000 N   0  0  0  0  0  0  0  0  0  0  0  0
    6.8671   -8.4050    0.0000 N   0  0  0  0  0  0  0  0  0  0  0  0
    6.0010   -6.9050    0.0000 N   0  0  0  0  0  0  0  0  0  0  0  0
    8.5991    0.5950    0.0000 C   0  0  1  0  0  0  0  0  0  0  0  0
    7.7331    3.0950    0.0000 C   0  0  1  0  0  0  0  0  0  0  0  0
    8.5991    3.5950    0.0000 C   0  0  0  0  0  0  0  0  0  0  0  0
    9.4651    0.0950    0.0000 C   0  0  0  0  0  0  0  0  0  0  0  0
    6.8671   -1.4050    0.0000 C   0  0  2  0  0  0  0  0  0  0  0  0
    7.7331    2.0950    0.0000 C   0  0  0  0  0  0  0  0  0  0  0  0
    7.7331    0.0950    0.0000 C   0  0  0  0  0  0  0  0  0  0  0  0
    8.5991    4.5950    0.0000 C   0  0  0  0  0  0  0  0  0  0  0  0
    6.0010   -0.9050    0.0000 C   0  0  0  0  0  0  0  0  0  0  0  0
   10.3312    0.5950    0.0000 C   0  0  0  0  0  0  0  0  0  0  0  0
    6.0010    5.0950    0.0000 C   0  0  2  0  0  0  0  0  0  0  0  0
    6.8671   -2.4050    0.0000 C   0  0  0  0  0  0  0  0  0  0  0  0
    6.8671    4.5950    0.0000 C   0  0  0  0  0  0  0  0  0  0  0  0
    7.7331   -3.9050    0.0000 C   0  0  1  0  0  0  0  0  0  0  0  0
    5.1350    4.5950    0.0000 C   0  0  0  0  0  0  0  0  0  0  0  0
    8.5991   -4.4050    0.0000 C   0  0  0  0  0  0  0  0  0  0  0  0
    9.4651    5.0950    0.0000 C   0  0  0  0  0  0  0  0  0  0  0  0
    5.1350   -1.4050    0.0000 C   0  0  0  0  0  0  0  0  0  0  0  0
   11.1972    0.0950    0.0000 C   0  0  0  0  0  0  0  0  0  0  0  0
   10.3312    1.5950    0.0000 C   0  0  0  0  0  0  0  0  0  0  0  0
    4.2690    5.0950    0.0000 C   0  0  0  0  0  0  0  0  0  0  0  0
   12.0632    0.5950    0.0000 C   0  0  0  0  0  0  0  0  0  0  0  0
    8.5991   -5.4050    0.0000 C   0  0  0  0  0  0  0  0  0  0  0  0
   12.0632    1.5950    0.0000 C   0  0  0  0  0  0  0  0  0  0  0  0
   11.1972    2.0950    0.0000 C   0  0  0  0  0  0  0  0  0  0  0  0
    6.8671   -4.4050    0.0000 C   0  0  0  0  0  0  0  0  0  0  0  0
    4.2690    6.0950    0.0000 C   0  0  0  0  0  0  0  0  0  0  0  0
    4.2690   -0.9050    0.0000 C   0  0  0  0  0  0  0  0  0  0  0  0
    5.1350   -2.4050    0.0000 C   0  0  0  0  0  0  0  0  0  0  0  0
    7.7331   -5.9050    0.0000 C   0  0  0  0  0  0  0  0  0  0  0  0
   12.9572    0.0603    0.0000 C   0  0  0  0  0  0  0  0  0  0  0  0
   12.9572    2.1297    0.0000 C   0  0  0  0  0  0  0  0  0  0  0  0
    3.4030   -1.4050    0.0000 C   0  0  0  0  0  0  0  0  0  0  0  0
    4.2690   -2.9050    0.0000 C   0  0  0  0  0  0  0  0  0  0  0  0
   13.8632    0.5742    0.0000 C   0  0  0  0  0  0  0  0  0  0  0  0
   13.8632    1.6158    0.0000 C   0  0  0  0  0  0  0  0  0  0  0  0
    3.4030   -2.4050    0.0000 C   0  0  0  0  0  0  0  0  0  0  0  0
   10.3312    6.5950    0.0000 C   0  0  0  0  0  0  0  0  0  0  0  0
    3.4030    7.5950    0.0000 C   0  0  0  0  0  0  0  0  0  0  0  0
    6.8671   -7.4050    0.0000 C   0  0  0  0  0  0  0  0  0  0  0  0
    8.0622    0.9050    0.0000 H   0  0  0  0  0  0  0  0  0  0  0  0
    7.7331    3.7150    0.0000 H   0  0  0  0  0  0  0  0  0  0  0  0
    8.8112    3.0124    0.0000 H   0  0  0  0  0  0  0  0  0  0  0  0
    9.2097    3.7027    0.0000 H   0  0  0  0  0  0  0  0  0  0  0  0
    9.0666   -0.3799    0.0000 H   0  0  0  0  0  0  0  0  0  0  0  0
    9.8637   -0.3799    0.0000 H   0  0  0  0  0  0  0  0  0  0  0  0
    7.4040   -1.7150    0.0000 H   0  0  0  0  0  0  0  0  0  0  0  0
    9.1360    1.9050    0.0000 H   0  0  0  0  0  0  0  0  0  0  0  0
    8.3871    5.1776    0.0000 H   0  0  0  0  0  0  0  0  0  0  0  0
    7.9885    4.4873    0.0000 H   0  0  0  0  0  0  0  0  0  0  0  0
    8.2700   -1.2150    0.0000 H   0  0  0  0  0  0  0  0  0  0  0  0
    6.3301    3.2850    0.0000 H   0  0  0  0  0  0  0  0  0  0  0  0
    6.3996   -0.4301    0.0000 H   0  0  0  0  0  0  0  0  0  0  0  0
    5.6025   -0.4301    0.0000 H   0  0  0  0  0  0  0  0  0  0  0  0
    6.5380    5.4050    0.0000 H   0  0  0  0  0  0  0  0  0  0  0  0
    8.2700   -3.5950    0.0000 H   0  0  0  0  0  0  0  0  0  0  0  0
    4.7365    4.1200    0.0000 H   0  0  0  0  0  0  0  0  0  0  0  0
    5.5335    4.1200    0.0000 H   0  0  0  0  0  0  0  0  0  0  0  0
    9.2097   -4.5127    0.0000 H   0  0  0  0  0  0  0  0  0  0  0  0
    8.8112   -3.8224    0.0000 H   0  0  0  0  0  0  0  0  0  0  0  0
    8.2700   -2.5950    0.0000 H   0  0  0  0  0  0  0  0  0  0  0  0
    9.6772    4.5124    0.0000 H   0  0  0  0  0  0  0  0  0  0  0  0
   10.0757    5.2027    0.0000 H   0  0  0  0  0  0  0  0  0  0  0  0
   11.1972   -0.5250    0.0000 H   0  0  0  0  0  0  0  0  0  0  0  0
    9.7942    1.9050    0.0000 H   0  0  0  0  0  0  0  0  0  0  0  0
    3.6584    5.2027    0.0000 H   0  0  0  0  0  0  0  0  0  0  0  0
    4.0569    4.5124    0.0000 H   0  0  0  0  0  0  0  0  0  0  0  0
    8.8112   -5.9876    0.0000 H   0  0  0  0  0  0  0  0  0  0  0  0
    9.2097   -5.2973    0.0000 H   0  0  0  0  0  0  0  0  0  0  0  0
   11.1972    2.7150    0.0000 H   0  0  0  0  0  0  0  0  0  0  0  0
    5.4641    6.4050    0.0000 H   0  0  0  0  0  0  0  0  0  0  0  0
    6.5380    6.4050    0.0000 H   0  0  0  0  0  0  0  0  0  0  0  0
    4.8796    5.9873    0.0000 H   0  0  0  0  0  0  0  0  0  0  0  0
    4.4810    6.6776    0.0000 H   0  0  0  0  0  0  0  0  0  0  0  0
    4.2690   -0.2850    0.0000 H   0  0  0  0  0  0  0  0  0  0  0  0
    5.6720   -2.7150    0.0000 H   0  0  0  0  0  0  0  0  0  0  0  0
    7.5210   -5.3224    0.0000 H   0  0  0  0  0  0  0  0  0  0  0  0
    7.1225   -6.0127    0.0000 H   0  0  0  0  0  0  0  0  0  0  0  0
   12.9500   -0.5596    0.0000 H   0  0  0  0  0  0  0  0  0  0  0  0
   12.9500    2.7496    0.0000 H   0  0  0  0  0  0  0  0  0  0  0  0
    2.8660   -1.0950    0.0000 H   0  0  0  0  0  0  0  0  0  0  0  0
    4.2690   -3.5250    0.0000 H   0  0  0  0  0  0  0  0  0  0  0  0
   14.3990    0.2621    0.0000 H   0  0  0  0  0  0  0  0  0  0  0  0
   14.3990    1.9279    0.0000 H   0  0  0  0  0  0  0  0  0  0  0  0
    6.3301   -5.7150    0.0000 H   0  0  0  0  0  0  0  0  0  0  0  0
    2.0000   -2.5950    0.0000 H   0  0  0  0  0  0  0  0  0  0  0  0
   10.8681    7.9050    0.0000 H   0  0  0  0  0  0  0  0  0  0  0  0
    9.7942    7.9050    0.0000 H   0  0  0  0  0  0  0  0  0  0  0  0
   11.7341    6.4050    0.0000 H   0  0  0  0  0  0  0  0  0  0  0  0
   11.1972    5.4750    0.0000 H   0  0  0  0  0  0  0  0  0  0  0  0
    2.5369    8.7150    0.0000 H   0  0  0  0  0  0  0  0  0  0  0  0
    2.0000    7.7850    0.0000 H   0  0  0  0  0  0  0  0  0  0  0  0
    4.2690    8.7150    0.0000 H   0  0  0  0  0  0  0  0  0  0  0  0
    4.8059    7.7850    0.0000 H   0  0  0  0  0  0  0  0  0  0  0  0
    6.3301   -8.7150    0.0000 H   0  0  0  0  0  0  0  0  0  0  0  0
    7.4040   -8.7150    0.0000 H   0  0  0  0  0  0  0  0  0  0  0  0
    5.4641   -7.2150    0.0000 H   0  0  0  0  0  0  0  0  0  0  0  0
    6.0010   -6.2850    0.0000 H   0  0  0  0  0  0  0  0  0  0  0  0
  1 27  2  0  0  0  0
  2 28  2  0  0  0  0
  3 33  2  0  0  0  0
  4 34  2  0  0  0  0
  5 47  1  0  0  0  0
  5106  1  0  0  0  0
  6 47  2  0  0  0  0
  7 58  1  0  0  0  0
  7107  1  0  0  0  0
 22  8  1  1  0  0  0
  8 27  1  0  0  0  0
  8 69  1  0  0  0  0
 26  9  1  1  0  0  0
  9 28  1  0  0  0  0
  9 72  1  0  0  0  0
 23 10  1  1  0  0  0
 10 34  1  0  0  0  0
 10 73  1  0  0  0  0
 11 33  1  0  0  0  0
 35 11  1  1  0  0  0
 11 82  1  0  0  0  0
 32 12  1  6  0  0  0
 12 92  1  0  0  0  0
 12 93  1  0  0  0  0
 13 38  1  0  0  0  0
 13 59  2  0  0  0  0
 14 48  1  0  0  0  0
 14 60  2  0  0  0  0
 15 51  1  0  0  0  0
 15 61  2  0  0  0  0
 16 59  1  0  0  0  0
 16108  1  0  0  0  0
 16109  1  0  0  0  0
 17 59  1  0  0  0  0
 17110  1  0  0  0  0
 17111  1  0  0  0  0
 18 60  1  0  0  0  0
 18112  1  0  0  0  0
 18113  1  0  0  0  0
 19 60  1  0  0  0  0
 19114  1  0  0  0  0
 19115  1  0  0  0  0
 20 61  1  0  0  0  0
 20116  1  0  0  0  0
 20117  1  0  0  0  0
 21 61  1  0  0  0  0
 21118  1  0  0  0  0
 21119  1  0  0  0  0
 22 25  1  0  0  0  0
 22 28  1  0  0  0  0
 22 62  1  0  0  0  0
 23 24  1  0  0  0  0
 23 27  1  0  0  0  0
 23 63  1  0  0  0  0
 24 29  1  0  0  0  0
 24 64  1  0  0  0  0
 24 65  1  0  0  0  0
 25 31  1  0  0  0  0
 25 66  1  0  0  0  0
 25 67  1  0  0  0  0
 26 30  1  0  0  0  0
 26 33  1  0  0  0  0
 26 68  1  0  0  0  0
 29 38  1  0  0  0  0
 29 70  1  0  0  0  0
 29 71  1  0  0  0  0
 30 39  1  0  0  0  0
 30 74  1  0  0  0  0
 30 75  1  0  0  0  0
 31 40  2  0  0  0  0
 31 41  1  0  0  0  0
 32 34  1  0  0  0  0
 32 36  1  0  0  0  0
 32 76  1  0  0  0  0
 35 37  1  0  0  0  0
 35 47  1  0  0  0  0
 35 77  1  0  0  0  0
 36 42  1  0  0  0  0
 36 78  1  0  0  0  0
 36 79  1  0  0  0  0
 37 44  1  0  0  0  0
 37 80  1  0  0  0  0
 37 81  1  0  0  0  0
 38 83  1  0  0  0  0
 38 84  1  0  0  0  0
 39 49  2  0  0  0  0
 39 50  1  0  0  0  0
 40 43  1  0  0  0  0
 40 85  1  0  0  0  0
 41 46  2  0  0  0  0
 41 86  1  0  0  0  0
 42 48  1  0  0  0  0
 42 87  1  0  0  0  0
 42 88  1  0  0  0  0
 43 45  1  0  0  0  0
 43 52  2  0  0  0  0
 44 51  1  0  0  0  0
 44 89  1  0  0  0  0
 44 90  1  0  0  0  0
 45 46  1  0  0  0  0
 45 53  2  0  0  0  0
 46 91  1  0  0  0  0
 48 94  1  0  0  0  0
 48 95  1  0  0  0  0
 49 54  1  0  0  0  0
 49 96  1  0  0  0  0
 50 55  2  0  0  0  0
 50 97  1  0  0  0  0
 51 98  1  0  0  0  0
 51 99  1  0  0  0  0
 52 56  1  0  0  0  0
 52100  1  0  0  0  0
 53 57  1  0  0  0  0
 53101  1  0  0  0  0
 54 58  2  0  0  0  0
 54102  1  0  0  0  0
 55 58  1  0  0  0  0
 55103  1  0  0  0  0
 56 57  2  0  0  0  0
 56104  1  0  0  0  0
 57105  1  0  0  0  0
M  END
> <PUBCHEM_COMPOUND_CID>
511264
> <PUBCHEM_COMPOUND_CANONICALIZED>
1
> <PUBCHEM_CACTVS_COMPLEXITY>
1510
> <PUBCHEM_CACTVS_HBOND_ACCEPTOR>
11
> <PUBCHEM_CACTVS_HBOND_DONOR>
13
> <PUBCHEM_CACTVS_ROTATABLE_BOND>
25
> <PUBCHEM_CACTVS_SUBSKEYS>
AAADcfB/+AAAAAAAAAAAAAAAAAAAAAAAAAAwYMAAAAAAAADBVAAAHgAQCAAADCzBmAQxDsLAAgCoAiHSPAACAAEgIAAIiIGOCIgKZjKCkTOUcAAk1hGYmAeY2eCO4AACAAAQAADAAAQAACAAAAAAAAAAAA==
> <PUBCHEM_IUPAC_OPENEYE_NAME>
(2S)-2-[[(2R)-2-[[(2S)-2-[[(2S)-2-[[(2S)-2-amino-5-guanidino-pentanoyl]amino]-5-guanidino-pentanoyl]amino]-3-(2-naphthyl)propanoyl]amino]-3-(4-hydroxyphenyl)propanoyl]amino]-5-guanidino-pentanoic acid
> <PUBCHEM_IUPAC_CAS_NAME>
(2S)-2-[[(2R)-2-[[(2S)-2-[[(2S)-2-[[(2S)-2-amino-5-(diaminomethylideneamino)-1-oxopentyl]amino]-5-(diaminomethylideneamino)-1-oxopentyl]amino]-3-(2-naphthalenyl)-1-oxopropyl]amino]-3-(4-hydroxyphenyl)-1-oxopropyl]amino]-5-(diaminomethylideneamino)pentanoic acid
> <PUBCHEM_IUPAC_NAME_MARKUP>
(2<I>S</I>)-2-[[(2<I>R</I>)-2-[[(2<I>S</I>)-2-[[(2<I>S</I>)-2-[[(2<I>S</I>)-2-amino-5-(diaminomethylideneamino)pentanoyl]amino]-5-(diaminomethylideneamino)pentanoyl]amino]-3-naphthalen-2-ylpropanoyl]amino]-3-(4-hydroxyphenyl)propanoyl]amino]-5-(diaminomethylideneamino)pentanoic acid
> <PUBCHEM_IUPAC_NAME>
(2S)-2-[[(2R)-2-[[(2S)-2-[[(2S)-2-[[(2S)-2-amino-5-(diaminomethylideneamino)pentanoyl]amino]-5-(diaminomethylideneamino)pentanoyl]amino]-3-naphthalen-2-ylpropanoyl]amino]-3-(4-hydroxyphenyl)propanoyl]amino]-5-(diaminomethylideneamino)pentanoic acid
> <PUBCHEM_IUPAC_SYSTEMATIC_NAME>
(2S)-2-[[(2R)-2-[[(2S)-2-[[(2S)-2-[[(2S)-2-azanyl-5-[bis(azanyl)methylideneamino]pentanoyl]amino]-5-[bis(azanyl)methylideneamino]pentanoyl]amino]-3-naphthalen-2-yl-propanoyl]amino]-3-(4-hydroxyphenyl)propanoyl]amino]-5-[bis(azanyl)methylideneamino]pentanoic acid
> <PUBCHEM_IUPAC_TRADITIONAL_NAME>
(2S)-2-[[(2R)-2-[[(2S)-2-[[(2S)-2-[[(2S)-2-amino-5-guanidino-pentanoyl]amino]-5-guanidino-pentanoyl]amino]-3-(2-naphthyl)propanoyl]amino]-3-(4-hydroxyphenyl)propanoyl]amino]-5-guanidino-valeric acid
> <PUBCHEM_IUPAC_INCHI>
InChI=1S/C40H58N14O7/c41-28(8-3-17-48-38(42)43)33(56)51-29(9-4-18-49-39(44)45)34(57)53-32(22-24-11-14-25-6-1-2-7-26(25)20-24)36(59)54-31(21-23-12-15-27(55)16-13-23)35(58)52-30(37(60)61)10-5-19-50-40(46)47/h1-2,6-7,11-16,20,28-32,55H,3-5,8-10,17-19,21-22,41H2,(H,51,56)(H,52,58)(H,53,57)(H,54,59)(H,60,61)(H4,42,43,48)(H4,44,45,49)(H4,46,47,50)/t28-,29-,30-,31+,32-/m0/s1
> <PUBCHEM_IUPAC_INCHIKEY>
CJSWQTJULZOZQE-NRQMHRBESA-N
> <PUBCHEM_XLOGP3_AA>
-3.5
> <PUBCHEM_EXACT_MASS>
846.46129024
> <PUBCHEM_MOLECULAR_FORMULA>
C40H58N14O7
> <PUBCHEM_MOLECULAR_WEIGHT>
847.0
> <PUBCHEM_OPENEYE_CAN_SMILES>
C1=CC=C2C=C(C=CC2=C1)CC(C(=O)NC(CC3=CC=C(C=C3)O)C(=O)NC(CCCN=C(N)N)C(=O)O)NC(=O)C(CCCN=C(N)N)NC(=O)C(CCCN=C(N)N)N
> <PUBCHEM_OPENEYE_ISO_SMILES>
C1=CC=C2C=C(C=CC2=C1)C[C@@H](C(=O)N[C@H](CC3=CC=C(C=C3)O)C(=O)N[C@@H](CCCN=C(N)N)C(=O)O)NC(=O)[C@H](CCCN=C(N)N)NC(=O)[C@H](CCCN=C(N)N)N
> <PUBCHEM_CACTVS_TPSA>
393
> <PUBCHEM_MONOISOTOPIC_WEIGHT>
846.46129024
> <PUBCHEM_TOTAL_CHARGE>
0
> <PUBCHEM_HEAVY_ATOM_COUNT>
61
> <PUBCHEM_ATOM_DEF_STEREO_COUNT>
5
> <PUBCHEM_ATOM_UDEF_STEREO_COUNT>
0
> <PUBCHEM_BOND_DEF_STEREO_COUNT>
0
> <PUBCHEM_BOND_UDEF_STEREO_COUNT>
0
> <PUBCHEM_ISOTOPIC_ATOM_COUNT>
0
> <PUBCHEM_COMPONENT_COUNT>
1
> <PUBCHEM_CACTVS_TAUTO_COUNT>
-1
> <PUBCHEM_COORDINATE_TYPE>
1
5
255
> <PUBCHEM_BONDANNOTATIONS>
23  10  5
35  11  5
32  12  6
31  40  8
31  41  8
39  49  8
39  50  8
40  43  8
41  46  8
43  45  8
43  52  8
45  46  8
45  53  8
49  54  8
50  55  8
52  56  8
53  57  8
54  58  8
55  58  8
56  57  8
22  8  5
26  9  5
$$$$
