511212
  -OEChem-10302200282D
 62 65  0     1  0  0  0  0  0999 V2000
    5.0009   -2.2495    0.0000 P   0  0  3  0  0  0  0  0  0  0  0  0
    4.5411    1.2331    0.0000 O   0  0  0  0  0  0  0  0  0  0  0  0
    4.4131   -1.4405    0.0000 O   0  0  0  0  0  0  0  0  0  0  0  0
    5.5887   -3.0586    0.0000 O   0  0  0  0  0  0  0  0  0  0  0  0
    4.1919   -2.8373    0.0000 O   0  0  0  0  0  0  0  0  0  0  0  0
    5.4641    2.8209    0.0000 O   0  0  0  0  0  0  0  0  0  0  0  0
    5.8099   -1.6618    0.0000 O   0  0  0  0  0  0  0  0  0  0  0  0
    3.7320    5.8209    0.0000 O   0  0  0  0  0  0  0  0  0  0  0  0
    7.9844   -1.9360    0.0000 O   0  0  0  0  0  0  0  0  0  0  0  0
    6.4021   -1.2315    0.0000 O   0  0  0  0  0  0  0  0  0  0  0  0
    3.7320    2.8209    0.0000 N   0  0  0  0  0  0  0  0  0  0  0  0
    4.5981    4.3209    0.0000 N   0  0  0  0  0  0  0  0  0  0  0  0
    4.2320    0.2820    0.0000 C   0  0  1  0  0  0  0  0  0  0  0  0
    3.7320    1.8209    0.0000 C   0  0  1  0  0  0  0  0  0  0  0  0
    3.2320    0.2820    0.0000 C   0  0  0  0  0  0  0  0  0  0  0  0
    2.9230    1.2331    0.0000 C   0  0  0  0  0  0  0  0  0  0  0  0
    4.8198   -0.5270    0.0000 C   0  0  0  0  0  0  0  0  0  0  0  0
    2.8660    3.3209    0.0000 C   0  0  0  0  0  0  0  0  0  0  0  0
    4.5981    3.3209    0.0000 C   0  0  0  0  0  0  0  0  0  0  0  0
    2.8660    4.3209    0.0000 C   0  0  0  0  0  0  0  0  0  0  0  0
    3.7320    4.8209    0.0000 C   0  0  0  0  0  0  0  0  0  0  0  0
    6.5832   -2.9540    0.0000 C   0  0  3  0  0  0  0  0  0  0  0  0
    2.0000    4.8209    0.0000 C   0  0  0  0  0  0  0  0  0  0  0  0
    7.1710   -3.7630    0.0000 C   0  0  0  0  0  0  0  0  0  0  0  0
    6.9899   -2.0405    0.0000 C   0  0  0  0  0  0  0  0  0  0  0  0
    8.1655   -3.6585    0.0000 C   0  0  0  0  0  0  0  0  0  0  0  0
    6.7642   -4.6766    0.0000 C   0  0  0  0  0  0  0  0  0  0  0  0
    4.2964   -3.8318    0.0000 C   0  0  0  0  0  0  0  0  0  0  0  0
    8.7533   -4.4675    0.0000 C   0  0  0  0  0  0  0  0  0  0  0  0
    7.3520   -5.4856    0.0000 C   0  0  0  0  0  0  0  0  0  0  0  0
    8.3466   -5.3811    0.0000 C   0  0  0  0  0  0  0  0  0  0  0  0
    5.2099   -4.2386    0.0000 C   0  0  0  0  0  0  0  0  0  0  0  0
    3.4874   -4.4196    0.0000 C   0  0  0  0  0  0  0  0  0  0  0  0
    5.3145   -5.2331    0.0000 C   0  0  0  0  0  0  0  0  0  0  0  0
    3.5919   -5.4142    0.0000 C   0  0  0  0  0  0  0  0  0  0  0  0
    4.5054   -5.8209    0.0000 C   0  0  0  0  0  0  0  0  0  0  0  0
    8.3912   -1.0224    0.0000 C   0  0  0  0  0  0  0  0  0  0  0  0
    4.8444    0.3790    0.0000 H   0  0  0  0  0  0  0  0  0  0  0  0
    4.2845    2.1024    0.0000 H   0  0  0  0  0  0  0  0  0  0  0  0
    2.8676   -0.2195    0.0000 H   0  0  0  0  0  0  0  0  0  0  0  0
    2.3334    1.4247    0.0000 H   0  0  0  0  0  0  0  0  0  0  0  0
    5.3338   -0.8737    0.0000 H   0  0  0  0  0  0  0  0  0  0  0  0
    5.2505   -0.0810    0.0000 H   0  0  0  0  0  0  0  0  0  0  0  0
    2.3291    3.0109    0.0000 H   0  0  0  0  0  0  0  0  0  0  0  0
    5.1350    4.6309    0.0000 H   0  0  0  0  0  0  0  0  0  0  0  0
    6.3310   -3.5204    0.0000 H   0  0  0  0  0  0  0  0  0  0  0  0
    2.3100    5.3578    0.0000 H   0  0  0  0  0  0  0  0  0  0  0  0
    1.4631    5.1309    0.0000 H   0  0  0  0  0  0  0  0  0  0  0  0
    1.6900    4.2840    0.0000 H   0  0  0  0  0  0  0  0  0  0  0  0
    8.4177   -3.0921    0.0000 H   0  0  0  0  0  0  0  0  0  0  0  0
    6.1476   -4.7414    0.0000 H   0  0  0  0  0  0  0  0  0  0  0  0
    9.3699   -4.4027    0.0000 H   0  0  0  0  0  0  0  0  0  0  0  0
    7.0998   -6.0520    0.0000 H   0  0  0  0  0  0  0  0  0  0  0  0
    8.7110   -5.8827    0.0000 H   0  0  0  0  0  0  0  0  0  0  0  0
    5.7115   -3.8742    0.0000 H   0  0  0  0  0  0  0  0  0  0  0  0
    2.9210   -4.1674    0.0000 H   0  0  0  0  0  0  0  0  0  0  0  0
    5.8809   -5.4853    0.0000 H   0  0  0  0  0  0  0  0  0  0  0  0
    3.0903   -5.7786    0.0000 H   0  0  0  0  0  0  0  0  0  0  0  0
    4.5703   -6.4375    0.0000 H   0  0  0  0  0  0  0  0  0  0  0  0
    8.9576   -1.2746    0.0000 H   0  0  0  0  0  0  0  0  0  0  0  0
    8.6434   -0.4560    0.0000 H   0  0  0  0  0  0  0  0  0  0  0  0
    7.8248   -0.7702    0.0000 H   0  0  0  0  0  0  0  0  0  0  0  0
  1  3  1  0  0  0  0
  1  4  1  0  0  0  0
  1  5  1  0  0  0  0
  1  7  2  0  0  0  0
  2 13  1  0  0  0  0
  2 14  1  0  0  0  0
  3 17  1  0  0  0  0
  4 22  1  0  0  0  0
  5 28  1  0  0  0  0
  6 19  2  0  0  0  0
  8 21  2  0  0  0  0
  9 25  1  0  0  0  0
  9 37  1  0  0  0  0
 10 25  2  0  0  0  0
 14 11  1  6  0  0  0
 11 18  1  0  0  0  0
 11 19  1  0  0  0  0
 12 19  1  0  0  0  0
 12 21  1  0  0  0  0
 12 45  1  0  0  0  0
 13 15  1  0  0  0  0
 13 17  1  6  0  0  0
 13 38  1  0  0  0  0
 14 16  1  0  0  0  0
 14 39  1  0  0  0  0
 15 16  2  0  0  0  0
 15 40  1  0  0  0  0
 16 41  1  0  0  0  0
 17 42  1  0  0  0  0
 17 43  1  0  0  0  0
 18 20  2  0  0  0  0
 18 44  1  0  0  0  0
 20 21  1  0  0  0  0
 20 23  1  0  0  0  0
 22 24  1  0  0  0  0
 22 25  1  0  0  0  0
 22 46  1  0  0  0  0
 23 47  1  0  0  0  0
 23 48  1  0  0  0  0
 23 49  1  0  0  0  0
 24 26  2  0  0  0  0
 24 27  1  0  0  0  0
 26 29  1  0  0  0  0
 26 50  1  0  0  0  0
 27 30  2  0  0  0  0
 27 51  1  0  0  0  0
 28 32  2  0  0  0  0
 28 33  1  0  0  0  0
 29 31  2  0  0  0  0
 29 52  1  0  0  0  0
 30 31  1  0  0  0  0
 30 53  1  0  0  0  0
 31 54  1  0  0  0  0
 32 34  1  0  0  0  0
 32 55  1  0  0  0  0
 33 35  2  0  0  0  0
 33 56  1  0  0  0  0
 34 36  2  0  0  0  0
 34 57  1  0  0  0  0
 35 36  1  0  0  0  0
 35 58  1  0  0  0  0
 36 59  1  0  0  0  0
 37 60  1  0  0  0  0
 37 61  1  0  0  0  0
 37 62  1  0  0  0  0
M  END
> <PUBCHEM_COMPOUND_CID>
511212
> <PUBCHEM_COMPOUND_CANONICALIZED>
1
> <PUBCHEM_CACTVS_COMPLEXITY>
956
> <PUBCHEM_CACTVS_HBOND_ACCEPTOR>
9
> <PUBCHEM_CACTVS_HBOND_DONOR>
1
> <PUBCHEM_CACTVS_ROTATABLE_BOND>
11
> <PUBCHEM_CACTVS_SUBSKEYS>
AAADceB7PAIAAAAAAAAAAAAAAAAAAQAAAAAwYIAAAAAAAAABQAAAHgAQACAADBThmAYzDoPABRCIQiHWWIKCAAAgIAAIiAFOCMiJJjKANRKOMAAsxzMKqMeIyKCOAAAAAAAAAAAAAAAAAAAAAAAAAAAAAA==
> <PUBCHEM_IUPAC_OPENEYE_NAME>
methyl 2-[[(2S,5R)-5-(5-methyl-2,4-dioxo-pyrimidin-1-yl)-2,5-dihydrofuran-2-yl]methoxy-phenoxy-phosphoryl]oxy-2-phenyl-acetate
> <PUBCHEM_IUPAC_CAS_NAME>
2-[[(2S,5R)-5-(5-methyl-2,4-dioxo-1-pyrimidinyl)-2,5-dihydrofuran-2-yl]methoxy-phenoxyphosphoryl]oxy-2-phenylacetic acid methyl ester
> <PUBCHEM_IUPAC_NAME_MARKUP>
methyl 2-[[(2<I>S</I>,5<I>R</I>)-5-(5-methyl-2,4-dioxopyrimidin-1-yl)-2,5-dihydrofuran-2-yl]methoxy-phenoxyphosphoryl]oxy-2-phenylacetate
> <PUBCHEM_IUPAC_NAME>
methyl 2-[[(2S,5R)-5-(5-methyl-2,4-dioxopyrimidin-1-yl)-2,5-dihydrofuran-2-yl]methoxy-phenoxyphosphoryl]oxy-2-phenylacetate
> <PUBCHEM_IUPAC_SYSTEMATIC_NAME>
methyl 2-[[(2S,5R)-5-[5-methyl-2,4-bis(oxidanylidene)pyrimidin-1-yl]-2,5-dihydrofuran-2-yl]methoxy-phenoxy-phosphoryl]oxy-2-phenyl-ethanoate
> <PUBCHEM_IUPAC_TRADITIONAL_NAME>
2-[[(2S,5R)-5-(2,4-diketo-5-methyl-pyrimidin-1-yl)-2,5-dihydrofuran-2-yl]methoxy-phenoxy-phosphoryl]oxy-2-phenyl-acetic acid methyl ester
> <PUBCHEM_IUPAC_INCHI>
InChI=1S/C25H25N2O9P/c1-17-15-27(25(30)26-23(17)28)21-14-13-20(34-21)16-33-37(31,35-19-11-7-4-8-12-19)36-22(24(29)32-2)18-9-5-3-6-10-18/h3-15,20-22H,16H2,1-2H3,(H,26,28,30)/t20-,21+,22?,37?/m0/s1
> <PUBCHEM_IUPAC_INCHIKEY>
SHWASZPAMRQTHS-OEXLOIRESA-N
> <PUBCHEM_XLOGP3_AA>
2.6
> <PUBCHEM_EXACT_MASS>
528.12976738
> <PUBCHEM_MOLECULAR_FORMULA>
C25H25N2O9P
> <PUBCHEM_MOLECULAR_WEIGHT>
528.4
> <PUBCHEM_OPENEYE_CAN_SMILES>
CC1=CN(C(=O)NC1=O)C2C=CC(O2)COP(=O)(OC3=CC=CC=C3)OC(C4=CC=CC=C4)C(=O)OC
> <PUBCHEM_OPENEYE_ISO_SMILES>
CC1=CN(C(=O)NC1=O)[C@H]2C=C[C@H](O2)COP(=O)(OC3=CC=CC=C3)OC(C4=CC=CC=C4)C(=O)OC
> <PUBCHEM_CACTVS_TPSA>
130
> <PUBCHEM_MONOISOTOPIC_WEIGHT>
528.12976738
> <PUBCHEM_TOTAL_CHARGE>
0
> <PUBCHEM_HEAVY_ATOM_COUNT>
37
> <PUBCHEM_ATOM_DEF_STEREO_COUNT>
2
> <PUBCHEM_ATOM_UDEF_STEREO_COUNT>
2
> <PUBCHEM_BOND_DEF_STEREO_COUNT>
0
> <PUBCHEM_BOND_UDEF_STEREO_COUNT>
0
> <PUBCHEM_ISOTOPIC_ATOM_COUNT>
0
> <PUBCHEM_COMPONENT_COUNT>
1
> <PUBCHEM_CACTVS_TAUTO_COUNT>
-1
> <PUBCHEM_COORDINATE_TYPE>
1
5
255
> <PUBCHEM_BONDANNOTATIONS>
1  3  3
14  11  6
11  18  8
11  19  8
12  19  8
12  21  8
13  17  6
18  20  8
20  21  8
22  25  3
24  26  8
24  27  8
26  29  8
27  30  8
28  32  8
28  33  8
29  31  8
30  31  8
32  34  8
33  35  8
34  36  8
35  36  8
$$$$
