511298
  -OEChem-10302200282D
 67 70  0     1  0  0  0  0  0999 V2000
    4.5981    5.9641    0.0000 Br  0  0  0  0  0  0  0  0  0  0  0  0
    7.5981    2.5000    0.0000 O   0  0  0  0  0  0  0  0  0  0  0  0
    5.4641   -4.4641    0.0000 O   0  0  0  0  0  0  0  0  0  0  0  0
    5.0981   -0.0981    0.0000 N   0  0  0  0  0  0  0  0  0  0  0  0
    4.5981   -2.9641    0.0000 N   0  0  0  0  0  0  0  0  0  0  0  0
    4.5981   -0.9641    0.0000 C   0  0  0  0  0  0  0  0  0  0  0  0
    3.7320   -1.4641    0.0000 C   0  0  0  0  0  0  0  0  0  0  0  0
    5.4641   -1.4641    0.0000 C   0  0  0  0  0  0  0  0  0  0  0  0
    6.0981    1.6340    0.0000 C   0  0  0  0  0  0  0  0  0  0  0  0
    6.0981   -0.0981    0.0000 C   0  0  0  0  0  0  0  0  0  0  0  0
    4.5981    0.7679    0.0000 C   0  0  0  0  0  0  0  0  0  0  0  0
    6.5981    0.7679    0.0000 C   0  0  0  0  0  0  0  0  0  0  0  0
    5.0981    1.6340    0.0000 C   0  0  0  0  0  0  0  0  0  0  0  0
    3.7320   -2.4641    0.0000 C   0  0  0  0  0  0  0  0  0  0  0  0
    5.4641   -2.4641    0.0000 C   0  0  0  0  0  0  0  0  0  0  0  0
    4.0981   -0.0981    0.0000 C   0  0  0  0  0  0  0  0  0  0  0  0
    6.5981    2.5000    0.0000 C   0  0  3  0  0  0  0  0  0  0  0  0
    4.5981   -3.9641    0.0000 C   0  0  0  0  0  0  0  0  0  0  0  0
    6.0981    3.3660    0.0000 C   0  0  0  0  0  0  0  0  0  0  0  0
    3.7320   -4.4641    0.0000 C   0  0  0  0  0  0  0  0  0  0  0  0
    5.0981    3.3660    0.0000 C   0  0  0  0  0  0  0  0  0  0  0  0
    6.5981    4.2320    0.0000 C   0  0  0  0  0  0  0  0  0  0  0  0
    2.8660   -3.9641    0.0000 C   0  0  0  0  0  0  0  0  0  0  0  0
    3.7320   -5.4641    0.0000 C   0  0  0  0  0  0  0  0  0  0  0  0
    4.5981    4.2320    0.0000 C   0  0  0  0  0  0  0  0  0  0  0  0
    6.0981    5.0981    0.0000 C   0  0  0  0  0  0  0  0  0  0  0  0
    5.0981    5.0981    0.0000 C   0  0  0  0  0  0  0  0  0  0  0  0
    2.0000   -4.4641    0.0000 C   0  0  0  0  0  0  0  0  0  0  0  0
    2.8660   -5.9641    0.0000 C   0  0  0  0  0  0  0  0  0  0  0  0
    2.8660   -2.9641    0.0000 C   0  0  0  0  0  0  0  0  0  0  0  0
    4.5981   -5.9641    0.0000 C   0  0  0  0  0  0  0  0  0  0  0  0
    2.0000   -5.4641    0.0000 C   0  0  0  0  0  0  0  0  0  0  0  0
    3.5200   -0.8815    0.0000 H   0  0  0  0  0  0  0  0  0  0  0  0
    3.1215   -1.5718    0.0000 H   0  0  0  0  0  0  0  0  0  0  0  0
    6.0747   -1.5718    0.0000 H   0  0  0  0  0  0  0  0  0  0  0  0
    5.6762   -0.8815    0.0000 H   0  0  0  0  0  0  0  0  0  0  0  0
    6.7181    1.6340    0.0000 H   0  0  0  0  0  0  0  0  0  0  0  0
    5.9904   -0.7087    0.0000 H   0  0  0  0  0  0  0  0  0  0  0  0
    6.6807   -0.3101    0.0000 H   0  0  0  0  0  0  0  0  0  0  0  0
    4.1231    1.1665    0.0000 H   0  0  0  0  0  0  0  0  0  0  0  0
    4.1231    0.3694    0.0000 H   0  0  0  0  0  0  0  0  0  0  0  0
    7.0730    0.3694    0.0000 H   0  0  0  0  0  0  0  0  0  0  0  0
    7.0730    1.1665    0.0000 H   0  0  0  0  0  0  0  0  0  0  0  0
    5.2057    2.2446    0.0000 H   0  0  0  0  0  0  0  0  0  0  0  0
    4.5155    1.8460    0.0000 H   0  0  0  0  0  0  0  0  0  0  0  0
    3.1215   -2.3564    0.0000 H   0  0  0  0  0  0  0  0  0  0  0  0
    3.5200   -3.0467    0.0000 H   0  0  0  0  0  0  0  0  0  0  0  0
    5.6762   -3.0467    0.0000 H   0  0  0  0  0  0  0  0  0  0  0  0
    6.0747   -2.3564    0.0000 H   0  0  0  0  0  0  0  0  0  0  0  0
    4.6350    0.2119    0.0000 H   0  0  0  0  0  0  0  0  0  0  0  0
    3.7881    0.4389    0.0000 H   0  0  0  0  0  0  0  0  0  0  0  0
    3.5611   -0.4081    0.0000 H   0  0  0  0  0  0  0  0  0  0  0  0
    6.9081    3.0369    0.0000 H   0  0  0  0  0  0  0  0  0  0  0  0
    7.9081    3.0369    0.0000 H   0  0  0  0  0  0  0  0  0  0  0  0
    4.7881    2.8291    0.0000 H   0  0  0  0  0  0  0  0  0  0  0  0
    7.2181    4.2320    0.0000 H   0  0  0  0  0  0  0  0  0  0  0  0
    3.9781    4.2320    0.0000 H   0  0  0  0  0  0  0  0  0  0  0  0
    6.4081    5.6350    0.0000 H   0  0  0  0  0  0  0  0  0  0  0  0
    1.4631   -4.1541    0.0000 H   0  0  0  0  0  0  0  0  0  0  0  0
    2.8660   -6.5841    0.0000 H   0  0  0  0  0  0  0  0  0  0  0  0
    3.4860   -2.9641    0.0000 H   0  0  0  0  0  0  0  0  0  0  0  0
    2.8660   -2.3441    0.0000 H   0  0  0  0  0  0  0  0  0  0  0  0
    2.2460   -2.9641    0.0000 H   0  0  0  0  0  0  0  0  0  0  0  0
    4.2881   -6.5010    0.0000 H   0  0  0  0  0  0  0  0  0  0  0  0
    5.1350   -6.2741    0.0000 H   0  0  0  0  0  0  0  0  0  0  0  0
    4.9081   -5.4272    0.0000 H   0  0  0  0  0  0  0  0  0  0  0  0
    1.4631   -5.7741    0.0000 H   0  0  0  0  0  0  0  0  0  0  0  0
  1 27  1  0  0  0  0
  2 17  1  0  0  0  0
  2 54  1  0  0  0  0
  3 18  2  0  0  0  0
  4  6  1  0  0  0  0
  4 10  1  0  0  0  0
  4 11  1  0  0  0  0
  5 14  1  0  0  0  0
  5 15  1  0  0  0  0
  5 18  1  0  0  0  0
  6  7  1  0  0  0  0
  6  8  1  0  0  0  0
  6 16  1  0  0  0  0
  7 14  1  0  0  0  0
  7 33  1  0  0  0  0
  7 34  1  0  0  0  0
  8 15  1  0  0  0  0
  8 35  1  0  0  0  0
  8 36  1  0  0  0  0
  9 12  1  0  0  0  0
  9 13  1  0  0  0  0
  9 17  1  0  0  0  0
  9 37  1  0  0  0  0
 10 12  1  0  0  0  0
 10 38  1  0  0  0  0
 10 39  1  0  0  0  0
 11 13  1  0  0  0  0
 11 40  1  0  0  0  0
 11 41  1  0  0  0  0
 12 42  1  0  0  0  0
 12 43  1  0  0  0  0
 13 44  1  0  0  0  0
 13 45  1  0  0  0  0
 14 46  1  0  0  0  0
 14 47  1  0  0  0  0
 15 48  1  0  0  0  0
 15 49  1  0  0  0  0
 16 50  1  0  0  0  0
 16 51  1  0  0  0  0
 16 52  1  0  0  0  0
 17 19  1  0  0  0  0
 17 53  1  0  0  0  0
 18 20  1  0  0  0  0
 19 21  2  0  0  0  0
 19 22  1  0  0  0  0
 20 23  2  0  0  0  0
 20 24  1  0  0  0  0
 21 25  1  0  0  0  0
 21 55  1  0  0  0  0
 22 26  2  0  0  0  0
 22 56  1  0  0  0  0
 23 28  1  0  0  0  0
 23 30  1  0  0  0  0
 24 29  2  0  0  0  0
 24 31  1  0  0  0  0
 25 27  2  0  0  0  0
 25 57  1  0  0  0  0
 26 27  1  0  0  0  0
 26 58  1  0  0  0  0
 28 32  2  0  0  0  0
 28 59  1  0  0  0  0
 29 32  1  0  0  0  0
 29 60  1  0  0  0  0
 30 61  1  0  0  0  0
 30 62  1  0  0  0  0
 30 63  1  0  0  0  0
 31 64  1  0  0  0  0
 31 65  1  0  0  0  0
 31 66  1  0  0  0  0
 32 67  1  0  0  0  0
M  END
> <PUBCHEM_COMPOUND_CID>
511298
> <PUBCHEM_COMPOUND_CANONICALIZED>
1
> <PUBCHEM_CACTVS_COMPLEXITY>
609
> <PUBCHEM_CACTVS_HBOND_ACCEPTOR>
3
> <PUBCHEM_CACTVS_HBOND_DONOR>
1
> <PUBCHEM_CACTVS_ROTATABLE_BOND>
4
> <PUBCHEM_CACTVS_SUBSKEYS>
AAADcfB7MAAAEAAAAAAAAAAAAAAAAAAAAAA8eIEAAAAAAAABQAAAHgBACAABrZzhmAYyAIMAAgCIAiFSEACCAAAkAAQIiAEIDOgINjKA1RGEcQhkxgGImxe4yOCOggACAAAQAAAEAAQAACAAAAAAAAAAAA==
> <PUBCHEM_IUPAC_OPENEYE_NAME>
[4-[4-[(4-bromophenyl)-hydroxy-methyl]-1-piperidyl]-4-methyl-1-piperidyl]-(2,6-dimethylphenyl)methanone
> <PUBCHEM_IUPAC_CAS_NAME>
[4-[4-[(4-bromophenyl)-hydroxymethyl]-1-piperidinyl]-4-methyl-1-piperidinyl]-(2,6-dimethylphenyl)methanone
> <PUBCHEM_IUPAC_NAME_MARKUP>
[4-[4-[(4-bromophenyl)-hydroxymethyl]piperidin-1-yl]-4-methylpiperidin-1-yl]-(2,6-dimethylphenyl)methanone
> <PUBCHEM_IUPAC_NAME>
[4-[4-[(4-bromophenyl)-hydroxymethyl]piperidin-1-yl]-4-methylpiperidin-1-yl]-(2,6-dimethylphenyl)methanone
> <PUBCHEM_IUPAC_SYSTEMATIC_NAME>
[4-[4-[(4-bromophenyl)-oxidanyl-methyl]piperidin-1-yl]-4-methyl-piperidin-1-yl]-(2,6-dimethylphenyl)methanone
> <PUBCHEM_IUPAC_TRADITIONAL_NAME>
[4-[4-[(4-bromophenyl)-hydroxy-methyl]piperidino]-4-methyl-piperidino]-(2,6-dimethylphenyl)methanone
> <PUBCHEM_IUPAC_INCHI>
InChI=1S/C27H35BrN2O2/c1-19-5-4-6-20(2)24(19)26(32)29-17-13-27(3,14-18-29)30-15-11-22(12-16-30)25(31)21-7-9-23(28)10-8-21/h4-10,22,25,31H,11-18H2,1-3H3
> <PUBCHEM_IUPAC_INCHIKEY>
IYUGABYSRYTCQT-UHFFFAOYSA-N
> <PUBCHEM_XLOGP3_AA>
5.2
> <PUBCHEM_EXACT_MASS>
498.18819
> <PUBCHEM_MOLECULAR_FORMULA>
C27H35BrN2O2
> <PUBCHEM_MOLECULAR_WEIGHT>
499.5
> <PUBCHEM_OPENEYE_CAN_SMILES>
CC1=C(C(=CC=C1)C)C(=O)N2CCC(CC2)(C)N3CCC(CC3)C(C4=CC=C(C=C4)Br)O
> <PUBCHEM_OPENEYE_ISO_SMILES>
CC1=C(C(=CC=C1)C)C(=O)N2CCC(CC2)(C)N3CCC(CC3)C(C4=CC=C(C=C4)Br)O
> <PUBCHEM_CACTVS_TPSA>
43.8
> <PUBCHEM_MONOISOTOPIC_WEIGHT>
498.18819
> <PUBCHEM_TOTAL_CHARGE>
0
> <PUBCHEM_HEAVY_ATOM_COUNT>
32
> <PUBCHEM_ATOM_DEF_STEREO_COUNT>
0
> <PUBCHEM_ATOM_UDEF_STEREO_COUNT>
1
> <PUBCHEM_BOND_DEF_STEREO_COUNT>
0
> <PUBCHEM_BOND_UDEF_STEREO_COUNT>
0
> <PUBCHEM_ISOTOPIC_ATOM_COUNT>
0
> <PUBCHEM_COMPONENT_COUNT>
1
> <PUBCHEM_CACTVS_TAUTO_COUNT>
-1
> <PUBCHEM_COORDINATE_TYPE>
1
5
255
> <PUBCHEM_BONDANNOTATIONS>
19  21  8
19  22  8
17  2  3
20  23  8
20  24  8
21  25  8
22  26  8
23  28  8
24  29  8
25  27  8
26  27  8
28  32  8
29  32  8
$$$$
