511279
  -OEChem-10302200282D
 38 39  0     1  0  0  0  0  0999 V2000
    2.3660    0.3670    0.0000 S   0  0  0  0  0  0  0  0  0  0  0  0
    3.9092   -4.8007    0.0000 P   0  0  0  0  0  0  0  0  0  0  0  0
    3.6750    1.3180    0.0000 O   0  0  0  0  0  0  0  0  0  0  0  0
    3.5471   -1.3556    0.0000 O   0  0  0  0  0  0  0  0  0  0  0  0
    4.5981    2.9058    0.0000 O   0  0  0  0  0  0  0  0  0  0  0  0
    5.1294   -2.0601    0.0000 O   0  0  0  0  0  0  0  0  0  0  0  0
    3.5024   -5.7142    0.0000 O   0  0  0  0  0  0  0  0  0  0  0  0
    4.8227   -5.2074    0.0000 O   0  0  0  0  0  0  0  0  0  0  0  0
    2.9956   -4.3940    0.0000 O   0  0  0  0  0  0  0  0  0  0  0  0
    2.8660    2.9058    0.0000 N   0  0  0  0  0  0  0  0  0  0  0  0
    3.7320    4.4058    0.0000 N   0  0  0  0  0  0  0  0  0  0  0  0
    3.7281   -3.0781    0.0000 N   0  0  0  0  0  0  0  0  0  0  0  0
    2.8660    5.9058    0.0000 N   0  0  0  0  0  0  0  0  0  0  0  0
    2.8660    1.9058    0.0000 C   0  0  2  0  0  0  0  0  0  0  0  0
    3.3660    0.3670    0.0000 C   0  0  1  0  0  0  0  0  0  0  0  0
    2.0570    1.3180    0.0000 C   0  0  0  0  0  0  0  0  0  0  0  0
    3.9538   -0.4420    0.0000 C   0  0  0  0  0  0  0  0  0  0  0  0
    2.0000    3.4058    0.0000 C   0  0  0  0  0  0  0  0  0  0  0  0
    3.7320    3.4058    0.0000 C   0  0  0  0  0  0  0  0  0  0  0  0
    2.0000    4.4058    0.0000 C   0  0  0  0  0  0  0  0  0  0  0  0
    2.8660    4.9058    0.0000 C   0  0  0  0  0  0  0  0  0  0  0  0
    4.1349   -2.1646    0.0000 C   0  0  0  0  0  0  0  0  0  0  0  0
    4.3159   -3.8872    0.0000 C   0  0  0  0  0  0  0  0  0  0  0  0
    3.4184    2.1873    0.0000 H   0  0  0  0  0  0  0  0  0  0  0  0
    3.9784    0.4640    0.0000 H   0  0  0  0  0  0  0  0  0  0  0  0
    1.7470    1.8550    0.0000 H   0  0  0  0  0  0  0  0  0  0  0  0
    1.4906    1.0659    0.0000 H   0  0  0  0  0  0  0  0  0  0  0  0
    4.4678   -0.7887    0.0000 H   0  0  0  0  0  0  0  0  0  0  0  0
    4.3845    0.0040    0.0000 H   0  0  0  0  0  0  0  0  0  0  0  0
    1.4631    3.0958    0.0000 H   0  0  0  0  0  0  0  0  0  0  0  0
    1.4631    4.7158    0.0000 H   0  0  0  0  0  0  0  0  0  0  0  0
    4.8299   -4.2338    0.0000 H   0  0  0  0  0  0  0  0  0  0  0  0
    4.7466   -3.4412    0.0000 H   0  0  0  0  0  0  0  0  0  0  0  0
    3.1115   -3.1429    0.0000 H   0  0  0  0  0  0  0  0  0  0  0  0
    2.3291    6.2158    0.0000 H   0  0  0  0  0  0  0  0  0  0  0  0
    3.4030    6.2158    0.0000 H   0  0  0  0  0  0  0  0  0  0  0  0
    3.8669   -6.2158    0.0000 H   0  0  0  0  0  0  0  0  0  0  0  0
    5.3243   -4.8430    0.0000 H   0  0  0  0  0  0  0  0  0  0  0  0
  1 15  1  0  0  0  0
  1 16  1  0  0  0  0
  2  7  1  0  0  0  0
  2  8  1  0  0  0  0
  2  9  2  0  0  0  0
  2 23  1  0  0  0  0
  3 14  1  0  0  0  0
  3 15  1  0  0  0  0
  4 17  1  0  0  0  0
  4 22  1  0  0  0  0
  5 19  2  0  0  0  0
  6 22  2  0  0  0  0
  7 37  1  0  0  0  0
  8 38  1  0  0  0  0
 14 10  1  1  0  0  0
 10 18  1  0  0  0  0
 10 19  1  0  0  0  0
 11 19  1  0  0  0  0
 11 21  2  0  0  0  0
 12 22  1  0  0  0  0
 12 23  1  0  0  0  0
 12 34  1  0  0  0  0
 13 21  1  0  0  0  0
 13 35  1  0  0  0  0
 13 36  1  0  0  0  0
 14 16  1  0  0  0  0
 14 24  1  0  0  0  0
 15 17  1  1  0  0  0
 15 25  1  0  0  0  0
 16 26  1  0  0  0  0
 16 27  1  0  0  0  0
 17 28  1  0  0  0  0
 17 29  1  0  0  0  0
 18 20  2  0  0  0  0
 18 30  1  0  0  0  0
 20 21  1  0  0  0  0
 20 31  1  0  0  0  0
 23 32  1  0  0  0  0
 23 33  1  0  0  0  0
M  END
> <PUBCHEM_COMPOUND_CID>
511279
> <PUBCHEM_COMPOUND_CANONICALIZED>
1
> <PUBCHEM_CACTVS_COMPLEXITY>
592
> <PUBCHEM_CACTVS_HBOND_ACCEPTOR>
8
> <PUBCHEM_CACTVS_HBOND_DONOR>
4
> <PUBCHEM_CACTVS_ROTATABLE_BOND>
6
> <PUBCHEM_CACTVS_SUBSKEYS>
AAADccBzuAJAAAAAAAAAAAAAAAAAASAAAAAgAAAAAAAAAAAAAAAAHgwQCCAACADlwAaBCAPABBioQCJmfICAAAEAAhAIAIAYABGBAAAAAAAKAAAAFgIiAAAAAAAAAAAAAAAAAAAAAAAAAAAAAAAAAAAAAA==
> <PUBCHEM_IUPAC_OPENEYE_NAME>
[[(2R,5S)-5-(4-amino-2-oxo-pyrimidin-1-yl)-1,3-oxathiolan-2-yl]methoxycarbonylamino]methylphosphonic acid
> <PUBCHEM_IUPAC_CAS_NAME>
[[[(2R,5S)-5-(4-amino-2-oxo-1-pyrimidinyl)-1,3-oxathiolan-2-yl]methoxy-oxomethyl]amino]methylphosphonic acid
> <PUBCHEM_IUPAC_NAME_MARKUP>
[[(2<I>R</I>,5<I>S</I>)-5-(4-amino-2-oxopyrimidin-1-yl)-1,3-oxathiolan-2-yl]methoxycarbonylamino]methylphosphonic acid
> <PUBCHEM_IUPAC_NAME>
[[(2R,5S)-5-(4-amino-2-oxopyrimidin-1-yl)-1,3-oxathiolan-2-yl]methoxycarbonylamino]methylphosphonic acid
> <PUBCHEM_IUPAC_SYSTEMATIC_NAME>
[[(2R,5S)-5-(4-azanyl-2-oxidanylidene-pyrimidin-1-yl)-1,3-oxathiolan-2-yl]methoxycarbonylamino]methylphosphonic acid
> <PUBCHEM_IUPAC_TRADITIONAL_NAME>
[[(2R,5S)-5-(4-amino-2-keto-pyrimidin-1-yl)-1,3-oxathiolan-2-yl]methoxycarbonylamino]methylphosphonic acid
> <PUBCHEM_IUPAC_INCHI>
InChI=1S/C10H15N4O7PS/c11-6-1-2-14(9(15)13-6)7-4-23-8(21-7)3-20-10(16)12-5-22(17,18)19/h1-2,7-8H,3-5H2,(H,12,16)(H2,11,13,15)(H2,17,18,19)/t7-,8+/m0/s1
> <PUBCHEM_IUPAC_INCHIKEY>
XVXWAODOCNVXHI-JGVFFNPUSA-N
> <PUBCHEM_XLOGP3>
-2.3
> <PUBCHEM_EXACT_MASS>
366.03990700
> <PUBCHEM_MOLECULAR_FORMULA>
C10H15N4O7PS
> <PUBCHEM_MOLECULAR_WEIGHT>
366.29
> <PUBCHEM_OPENEYE_CAN_SMILES>
C1C(OC(S1)COC(=O)NCP(=O)(O)O)N2C=CC(=NC2=O)N
> <PUBCHEM_OPENEYE_ISO_SMILES>
C1[C@H](O[C@H](S1)COC(=O)NCP(=O)(O)O)N2C=CC(=NC2=O)N
> <PUBCHEM_CACTVS_TPSA>
189
> <PUBCHEM_MONOISOTOPIC_WEIGHT>
366.03990700
> <PUBCHEM_TOTAL_CHARGE>
0
> <PUBCHEM_HEAVY_ATOM_COUNT>
23
> <PUBCHEM_ATOM_DEF_STEREO_COUNT>
2
> <PUBCHEM_ATOM_UDEF_STEREO_COUNT>
0
> <PUBCHEM_BOND_DEF_STEREO_COUNT>
0
> <PUBCHEM_BOND_UDEF_STEREO_COUNT>
0
> <PUBCHEM_ISOTOPIC_ATOM_COUNT>
0
> <PUBCHEM_COMPONENT_COUNT>
1
> <PUBCHEM_CACTVS_TAUTO_COUNT>
-1
> <PUBCHEM_COORDINATE_TYPE>
1
5
255
> <PUBCHEM_BONDANNOTATIONS>
14  10  5
10  18  8
10  19  8
11  19  8
11  21  8
15  17  5
18  20  8
20  21  8
$$$$
