511349
  -OEChem-10302200282D
104110  0     1  0  0  0  0  0999 V2000
    6.5638    2.0432    0.0000 O   0  0  0  0  0  0  0  0  0  0  0  0
    3.8507   -0.6499    0.0000 O   0  0  0  0  0  0  0  0  0  0  0  0
    7.1860    0.6750    0.0000 O   0  0  0  0  0  0  0  0  0  0  0  0
    5.3482   -0.5216    0.0000 O   0  0  0  0  0  0  0  0  0  0  0  0
    5.8501    3.7476    0.0000 O   0  0  0  0  0  0  0  0  0  0  0  0
    2.0057   -0.7518    0.0000 O   0  0  0  0  0  0  0  0  0  0  0  0
    8.9180    0.6817    0.0000 O   0  0  0  0  0  0  0  0  0  0  0  0
    5.9218    1.1127    0.0000 O   0  0  0  0  0  0  0  0  0  0  0  0
    8.0839   -1.8874    0.0000 O   0  0  0  0  0  0  0  0  0  0  0  0
    2.7778   -1.8701    0.0000 O   0  0  0  0  0  0  0  0  0  0  0  0
    4.8684   -0.1574    0.0000 O   0  0  0  0  0  0  0  0  0  0  0  0
    4.5479   -1.8596    0.0000 N   0  0  0  0  0  0  0  0  0  0  0  0
    9.0053    3.9405    0.0000 C   0  0  0  0  0  0  0  0  0  0  0  0
    2.8802    2.2859    0.0000 C   0  0  0  0  0  0  0  0  0  0  0  0
    8.0424    3.1783    0.0000 C   0  0  3  0  0  0  0  0  0  0  0  0
    3.2760    1.1234    0.0000 C   0  0  3  0  0  0  0  0  0  0  0  0
    8.0462    2.1784    0.0000 C   0  0  3  0  0  0  0  0  0  0  0  0
    4.2196    0.7923    0.0000 C   0  0  3  0  0  0  0  0  0  0  0  0
    9.7929    2.0771    0.0000 C   0  0  0  0  0  0  0  0  0  0  0  0
    4.8998    2.4043    0.0000 C   0  0  0  0  0  0  0  0  0  0  0  0
    9.2225    1.2558    0.0000 C   0  0  0  0  0  0  0  0  0  0  0  0
    5.4828    1.5918    0.0000 C   0  0  0  0  0  0  0  0  0  0  0  0
    6.5599    3.0432    0.0000 C   0  0  0  0  0  0  0  0  0  0  0  0
    2.9071   -0.3187    0.0000 C   0  0  0  0  0  0  0  0  0  0  0  0
    9.1579    4.9288    0.0000 C   0  0  0  0  0  0  0  0  0  0  0  0
    9.9924    4.1008    0.0000 C   0  0  0  0  0  0  0  0  0  0  0  0
    2.0000    2.7606    0.0000 C   0  0  0  0  0  0  0  0  0  0  0  0
    3.0596    3.2697    0.0000 C   0  0  0  0  0  0  0  0  0  0  0  0
    8.0385    4.1783    0.0000 C   0  0  0  0  0  0  0  0  0  0  0  0
    2.3325    1.4545    0.0000 C   0  0  0  0  0  0  0  0  0  0  0  0
    8.0501    1.1784    0.0000 C   0  0  0  0  0  0  0  0  0  0  0  0
    5.1632    0.4611    0.0000 C   0  0  0  0  0  0  0  0  0  0  0  0
    7.1899   -0.3250    0.0000 C   0  0  2  0  0  0  0  0  0  0  0  0
    6.2918   -0.8527    0.0000 C   0  0  1  0  0  0  0  0  0  0  0  0
    8.0919   -0.8458    0.0000 C   0  0  0  0  0  0  0  0  0  0  0  0
    6.3079   -1.8942    0.0000 C   0  0  0  0  0  0  0  0  0  0  0  0
    7.1739   -2.3942    0.0000 C   0  0  0  0  0  0  0  0  0  0  0  0
    9.0919   -0.8496    0.0000 C   0  0  0  0  0  0  0  0  0  0  0  0
    8.5953    0.0183    0.0000 C   0  0  0  0  0  0  0  0  0  0  0  0
    5.4418   -2.3942    0.0000 C   0  0  0  0  0  0  0  0  0  0  0  0
    7.1739   -3.3942    0.0000 C   0  0  0  0  0  0  0  0  0  0  0  0
    5.4418   -3.3942    0.0000 C   0  0  0  0  0  0  0  0  0  0  0  0
    6.3079   -3.8942    0.0000 C   0  0  0  0  0  0  0  0  0  0  0  0
    4.5479   -3.9289    0.0000 C   0  0  0  0  0  0  0  0  0  0  0  0
    3.6418   -2.3734    0.0000 C   0  0  0  0  0  0  0  0  0  0  0  0
    5.1995   -1.1010    0.0000 C   0  0  0  0  0  0  0  0  0  0  0  0
    3.6418   -3.4150    0.0000 C   0  0  0  0  0  0  0  0  0  0  0  0
    6.1822   -1.2860    0.0000 C   0  0  0  0  0  0  0  0  0  0  0  0
    4.5595   -4.9288    0.0000 C   0  0  0  0  0  0  0  0  0  0  0  0
    2.7778   -3.9184    0.0000 C   0  0  0  0  0  0  0  0  0  0  0  0
    5.9695   -2.4162    0.0000 C   0  0  0  0  0  0  0  0  0  0  0  0
    6.1938   -0.2861    0.0000 C   0  0  0  0  0  0  0  0  0  0  0  0
    7.1650   -1.4711    0.0000 C   0  0  0  0  0  0  0  0  0  0  0  0
   10.3075    1.7312    0.0000 H   0  0  0  0  0  0  0  0  0  0  0  0
   10.1310    2.5968    0.0000 H   0  0  0  0  0  0  0  0  0  0  0  0
    5.3980    2.7733    0.0000 H   0  0  0  0  0  0  0  0  0  0  0  0
    4.5232    2.8968    0.0000 H   0  0  0  0  0  0  0  0  0  0  0  0
    8.8494    0.7606    0.0000 H   0  0  0  0  0  0  0  0  0  0  0  0
    9.7248    0.8923    0.0000 H   0  0  0  0  0  0  0  0  0  0  0  0
    5.8245    1.0745    0.0000 H   0  0  0  0  0  0  0  0  0  0  0  0
    5.9934    1.9435    0.0000 H   0  0  0  0  0  0  0  0  0  0  0  0
    9.7706    4.8342    0.0000 H   0  0  0  0  0  0  0  0  0  0  0  0
    9.2525    5.5416    0.0000 H   0  0  0  0  0  0  0  0  0  0  0  0
    8.5452    5.0235    0.0000 H   0  0  0  0  0  0  0  0  0  0  0  0
   10.0917    3.4888    0.0000 H   0  0  0  0  0  0  0  0  0  0  0  0
   10.6044    4.2001    0.0000 H   0  0  0  0  0  0  0  0  0  0  0  0
    9.8930    4.7128    0.0000 H   0  0  0  0  0  0  0  0  0  0  0  0
    2.2943    3.3063    0.0000 H   0  0  0  0  0  0  0  0  0  0  0  0
    1.4543    3.0549    0.0000 H   0  0  0  0  0  0  0  0  0  0  0  0
    1.7057    2.2149    0.0000 H   0  0  0  0  0  0  0  0  0  0  0  0
    3.6696    3.1584    0.0000 H   0  0  0  0  0  0  0  0  0  0  0  0
    3.1709    3.8796    0.0000 H   0  0  0  0  0  0  0  0  0  0  0  0
    2.4497    3.3809    0.0000 H   0  0  0  0  0  0  0  0  0  0  0  0
    8.6585    4.1807    0.0000 H   0  0  0  0  0  0  0  0  0  0  0  0
    8.0361    4.7983    0.0000 H   0  0  0  0  0  0  0  0  0  0  0  0
    7.4185    4.1759    0.0000 H   0  0  0  0  0  0  0  0  0  0  0  0
    2.5378    2.0396    0.0000 H   0  0  0  0  0  0  0  0  0  0  0  0
    1.7474    1.6598    0.0000 H   0  0  0  0  0  0  0  0  0  0  0  0
    2.1272    0.8695    0.0000 H   0  0  0  0  0  0  0  0  0  0  0  0
    6.6511   -0.0181    0.0000 H   0  0  0  0  0  0  0  0  0  0  0  0
    6.2318   -0.2356    0.0000 H   0  0  0  0  0  0  0  0  0  0  0  0
    9.0895   -1.4696    0.0000 H   0  0  0  0  0  0  0  0  0  0  0  0
    9.7119   -0.8520    0.0000 H   0  0  0  0  0  0  0  0  0  0  0  0
    9.0943   -0.2296    0.0000 H   0  0  0  0  0  0  0  0  0  0  0  0
    9.1310   -0.2938    0.0000 H   0  0  0  0  0  0  0  0  0  0  0  0
    8.9073    0.5540    0.0000 H   0  0  0  0  0  0  0  0  0  0  0  0
    8.0595    0.3304    0.0000 H   0  0  0  0  0  0  0  0  0  0  0  0
    7.7108   -3.7042    0.0000 H   0  0  0  0  0  0  0  0  0  0  0  0
    6.3079   -4.5142    0.0000 H   0  0  0  0  0  0  0  0  0  0  0  0
    3.9395   -4.9360    0.0000 H   0  0  0  0  0  0  0  0  0  0  0  0
    4.5666   -5.5488    0.0000 H   0  0  0  0  0  0  0  0  0  0  0  0
    5.1794   -4.9217    0.0000 H   0  0  0  0  0  0  0  0  0  0  0  0
    2.4657   -3.3826    0.0000 H   0  0  0  0  0  0  0  0  0  0  0  0
    2.2420   -4.2304    0.0000 H   0  0  0  0  0  0  0  0  0  0  0  0
    3.0898   -4.4541    0.0000 H   0  0  0  0  0  0  0  0  0  0  0  0
    5.3602   -2.3015    0.0000 H   0  0  0  0  0  0  0  0  0  0  0  0
    5.8548   -3.0255    0.0000 H   0  0  0  0  0  0  0  0  0  0  0  0
    6.5788   -2.5309    0.0000 H   0  0  0  0  0  0  0  0  0  0  0  0
    6.8138   -0.2933    0.0000 H   0  0  0  0  0  0  0  0  0  0  0  0
    6.2010    0.3339    0.0000 H   0  0  0  0  0  0  0  0  0  0  0  0
    5.5738   -0.2789    0.0000 H   0  0  0  0  0  0  0  0  0  0  0  0
    7.0503   -2.0804    0.0000 H   0  0  0  0  0  0  0  0  0  0  0  0
    7.7743   -1.5858    0.0000 H   0  0  0  0  0  0  0  0  0  0  0  0
    7.2797   -0.8618    0.0000 H   0  0  0  0  0  0  0  0  0  0  0  0
  1 17  1  0  0  0  0
  1 23  1  0  0  0  0
  2 18  1  0  0  0  0
  2 24  1  0  0  0  0
  3 31  1  0  0  0  0
 33  3  1  1  0  0  0
  4 32  1  0  0  0  0
 34  4  1  1  0  0  0
  5 23  2  0  0  0  0
  6 24  2  0  0  0  0
  7 31  2  0  0  0  0
  8 32  2  0  0  0  0
  9 35  1  0  0  0  0
  9 37  1  0  0  0  0
 10 45  2  0  0  0  0
 11 46  2  0  0  0  0
 12 40  1  0  0  0  0
 12 45  1  0  0  0  0
 12 46  1  0  0  0  0
 13 15  1  0  0  0  0
 13 17  1  0  0  0  0
 13 25  1  0  0  0  0
 13 26  1  0  0  0  0
 14 16  1  0  0  0  0
 14 18  1  0  0  0  0
 14 27  1  0  0  0  0
 14 28  1  0  0  0  0
 15 19  1  0  0  0  0
 15 23  1  0  0  0  0
 15 29  1  0  0  0  0
 16 20  1  0  0  0  0
 16 24  1  0  0  0  0
 16 30  1  0  0  0  0
 17 21  1  0  0  0  0
 17 31  1  0  0  0  0
 18 22  1  0  0  0  0
 18 32  1  0  0  0  0
 19 21  1  0  0  0  0
 19 54  1  0  0  0  0
 19 55  1  0  0  0  0
 20 22  1  0  0  0  0
 20 56  1  0  0  0  0
 20 57  1  0  0  0  0
 21 58  1  0  0  0  0
 21 59  1  0  0  0  0
 22 60  1  0  0  0  0
 22 61  1  0  0  0  0
 25 62  1  0  0  0  0
 25 63  1  0  0  0  0
 25 64  1  0  0  0  0
 26 65  1  0  0  0  0
 26 66  1  0  0  0  0
 26 67  1  0  0  0  0
 27 68  1  0  0  0  0
 27 69  1  0  0  0  0
 27 70  1  0  0  0  0
 28 71  1  0  0  0  0
 28 72  1  0  0  0  0
 28 73  1  0  0  0  0
 29 74  1  0  0  0  0
 29 75  1  0  0  0  0
 29 76  1  0  0  0  0
 30 77  1  0  0  0  0
 30 78  1  0  0  0  0
 30 79  1  0  0  0  0
 33 34  1  0  0  0  0
 33 35  1  0  0  0  0
 33 80  1  0  0  0  0
 34 36  1  0  0  0  0
 34 81  1  0  0  0  0
 35 38  1  0  0  0  0
 35 39  1  0  0  0  0
 36 37  2  0  0  0  0
 36 40  1  0  0  0  0
 37 41  1  0  0  0  0
 38 82  1  0  0  0  0
 38 83  1  0  0  0  0
 38 84  1  0  0  0  0
 39 85  1  0  0  0  0
 39 86  1  0  0  0  0
 39 87  1  0  0  0  0
 40 42  2  0  0  0  0
 41 43  2  0  0  0  0
 41 88  1  0  0  0  0
 42 43  1  0  0  0  0
 42 44  1  0  0  0  0
 43 89  1  0  0  0  0
 44 47  2  0  0  0  0
 44 49  1  0  0  0  0
 45 47  1  0  0  0  0
 46 48  1  0  0  0  0
 47 50  1  0  0  0  0
 48 51  1  0  0  0  0
 48 52  1  0  0  0  0
 48 53  1  0  0  0  0
 49 90  1  0  0  0  0
 49 91  1  0  0  0  0
 49 92  1  0  0  0  0
 50 93  1  0  0  0  0
 50 94  1  0  0  0  0
 50 95  1  0  0  0  0
 51 96  1  0  0  0  0
 51 97  1  0  0  0  0
 51 98  1  0  0  0  0
 52 99  1  0  0  0  0
 52100  1  0  0  0  0
 52101  1  0  0  0  0
 53102  1  0  0  0  0
 53103  1  0  0  0  0
 53104  1  0  0  0  0
M  END
> <PUBCHEM_COMPOUND_CID>
511349
> <PUBCHEM_COMPOUND_CANONICALIZED>
1
> <PUBCHEM_CACTVS_COMPLEXITY>
1770
> <PUBCHEM_CACTVS_HBOND_ACCEPTOR>
11
> <PUBCHEM_CACTVS_HBOND_DONOR>
0
> <PUBCHEM_CACTVS_ROTATABLE_BOND>
7
> <PUBCHEM_CACTVS_SUBSKEYS>
AAADcfB+PAAAAAAAAAAAAAAAAAAAAaNECAA0SJECAAAAAACRAAAAHgAAAAAADlyhmAIyzoMABACIAiXSWAKCCAAhIAAIiAFGTMgNJzLEsJ+GOCjnxDnK6Qf6/vvPoAACAgAKAABAAAQEABQAAYAADAAAAA==
> <PUBCHEM_IUPAC_OPENEYE_NAME>
[(9R,10R)-1-(2,2-dimethylpropanoyl)-3,4,8,8-tetramethyl-2-oxo-9-(4,7,7-trimethyl-3-oxo-2-oxabicyclo[2.2.1]heptane-1-carbonyl)oxy-9,10-dihydropyrano[2,3-h]quinolin-10-yl] 4,7,7-trimethyl-3-oxo-2-oxabicyclo[2.2.1]heptane-1-carboxylate
> <PUBCHEM_IUPAC_CAS_NAME>
4,7,7-trimethyl-3-oxo-2-oxabicyclo[2.2.1]heptane-1-carboxylic acid [(9R,10R)-1-(2,2-dimethyl-1-oxopropyl)-3,4,8,8-tetramethyl-2-oxo-9-[oxo-(4,7,7-trimethyl-3-oxo-2-oxabicyclo[2.2.1]heptan-1-yl)methoxy]-9,10-dihydropyrano[2,3-h]quinolin-10-yl] ester
> <PUBCHEM_IUPAC_NAME_MARKUP>
[(9<I>R</I>,10<I>R</I>)-1-(2,2-dimethylpropanoyl)-3,4,8,8-tetramethyl-2-oxo-9-(4,7,7-trimethyl-3-oxo-2-oxabicyclo[2.2.1]heptane-1-carbonyl)oxy-9,10-dihydropyrano[2,3-h]quinolin-10-yl] 4,7,7-trimethyl-3-oxo-2-oxabicyclo[2.2.1]heptane-1-carboxylate
> <PUBCHEM_IUPAC_NAME>
[(9R,10R)-1-(2,2-dimethylpropanoyl)-3,4,8,8-tetramethyl-2-oxo-9-(4,7,7-trimethyl-3-oxo-2-oxabicyclo[2.2.1]heptane-1-carbonyl)oxy-9,10-dihydropyrano[2,3-h]quinolin-10-yl] 4,7,7-trimethyl-3-oxo-2-oxabicyclo[2.2.1]heptane-1-carboxylate
> <PUBCHEM_IUPAC_SYSTEMATIC_NAME>
[(9R,10R)-1-(2,2-dimethylpropanoyl)-3,4,8,8-tetramethyl-2-oxidanylidene-9-[(4,7,7-trimethyl-3-oxidanylidene-2-oxabicyclo[2.2.1]heptan-1-yl)carbonyloxy]-9,10-dihydropyrano[2,3-h]quinolin-10-yl] 4,7,7-trimethyl-3-oxidanylidene-2-oxabicyclo[2.2.1]heptane-1-carboxylate
> <PUBCHEM_IUPAC_TRADITIONAL_NAME>
3-keto-4,7,7-trimethyl-2-oxabicyclo[2.2.1]heptane-1-carboxylic acid [(9R,10R)-2-keto-9-(3-keto-4,7,7-trimethyl-2-oxabicyclo[2.2.1]heptane-1-carbonyl)oxy-3,4,8,8-tetramethyl-1-pivaloyl-9,10-dihydropyrano[2,3-h]quinolin-10-yl] ester
> <PUBCHEM_IUPAC_INCHI>
InChI=1S/C41H51NO11/c1-20-21(2)28(43)42(29(44)34(3,4)5)25-22(20)14-15-23-24(25)26(49-32(47)40-18-16-38(12,30(45)52-40)36(40,8)9)27(35(6,7)51-23)50-33(48)41-19-17-39(13,31(46)53-41)37(41,10)11/h14-15,26-27H,16-19H2,1-13H3/t26-,27-,38?,39?,40?,41?/m1/s1
> <PUBCHEM_IUPAC_INCHIKEY>
FHMJXRZINOUWIP-YYHJSSRUSA-N
> <PUBCHEM_XLOGP3_AA>
6.1
> <PUBCHEM_EXACT_MASS>
733.34621144
> <PUBCHEM_MOLECULAR_FORMULA>
C41H51NO11
> <PUBCHEM_MOLECULAR_WEIGHT>
733.8
> <PUBCHEM_OPENEYE_CAN_SMILES>
CC1=C(C(=O)N(C2=C1C=CC3=C2C(C(C(O3)(C)C)OC(=O)C45CCC(C4(C)C)(C(=O)O5)C)OC(=O)C67CCC(C6(C)C)(C(=O)O7)C)C(=O)C(C)(C)C)C
> <PUBCHEM_OPENEYE_ISO_SMILES>
CC1=C(C(=O)N(C2=C1C=CC3=C2[C@H]([C@H](C(O3)(C)C)OC(=O)C45CCC(C4(C)C)(C(=O)O5)C)OC(=O)C67CCC(C6(C)C)(C(=O)O7)C)C(=O)C(C)(C)C)C
> <PUBCHEM_CACTVS_TPSA>
152
> <PUBCHEM_MONOISOTOPIC_WEIGHT>
733.34621144
> <PUBCHEM_TOTAL_CHARGE>
0
> <PUBCHEM_HEAVY_ATOM_COUNT>
53
> <PUBCHEM_ATOM_DEF_STEREO_COUNT>
2
> <PUBCHEM_ATOM_UDEF_STEREO_COUNT>
4
> <PUBCHEM_BOND_DEF_STEREO_COUNT>
0
> <PUBCHEM_BOND_UDEF_STEREO_COUNT>
0
> <PUBCHEM_ISOTOPIC_ATOM_COUNT>
0
> <PUBCHEM_COMPONENT_COUNT>
1
> <PUBCHEM_CACTVS_TAUTO_COUNT>
-1
> <PUBCHEM_COORDINATE_TYPE>
1
5
255
> <PUBCHEM_BONDANNOTATIONS>
12  40  8
12  45  8
15  29  3
16  30  3
17  31  3
18  32  3
33  3  5
36  37  8
36  40  8
37  41  8
34  4  5
40  42  8
41  43  8
42  43  8
42  44  8
44  47  8
45  47  8
$$$$
