511378
  -OEChem-10302200282D
 38 40  0     1  0  0  0  0  0999 V2000
    6.1610    1.0575    0.0000 O   0  0  0  0  0  0  0  0  0  0  0  0
    8.5124   -0.0226    0.0000 O   0  0  0  0  0  0  0  0  0  0  0  0
    8.5053    2.1530    0.0000 O   0  0  0  0  0  0  0  0  0  0  0  0
    5.4552    3.0232    0.0000 O   0  0  0  0  0  0  0  0  0  0  0  0
    4.9335    0.5845    0.0000 O   0  0  0  0  0  0  0  0  0  0  0  0
    4.9544   -3.6122    0.0000 O   0  0  0  0  0  0  0  0  0  0  0  0
    6.4455   -0.7016    0.0000 N   0  0  0  0  0  0  0  0  0  0  0  0
    6.4535   -2.3111    0.0000 N   0  0  0  0  0  0  0  0  0  0  0  0
    3.7420   -0.6189    0.0000 N   0  0  0  0  0  0  0  0  0  0  0  0
    3.7510   -2.4208    0.0000 N   0  0  0  0  0  0  0  0  0  0  0  0
    2.3127   -1.5270    0.0000 N   0  0  0  0  0  0  0  0  0  0  0  0
    7.7014    0.5625    0.0000 C   0  0  1  0  0  0  0  0  0  0  0  0
    6.7514    0.2504    0.0000 C   0  0  1  0  0  0  0  0  0  0  0  0
    7.6982    1.5625    0.0000 C   0  0  1  0  0  0  0  0  0  0  0  0
    6.7461    1.8684    0.0000 C   0  0  1  0  0  0  0  0  0  0  0  0
    6.4340    2.8185    0.0000 C   0  0  0  0  0  0  0  0  0  0  0  0
    5.5008   -1.0111    0.0000 C   0  0  0  0  0  0  0  0  0  0  0  0
    7.0331   -1.5034    0.0000 C   0  0  0  0  0  0  0  0  0  0  0  0
    5.5058   -2.0111    0.0000 C   0  0  0  0  0  0  0  0  0  0  0  0
    9.4246    0.3871    0.0000 C   0  0  0  0  0  0  0  0  0  0  0  0
    4.7158   -0.3915    0.0000 C   0  0  0  0  0  0  0  0  0  0  0  0
    4.7271   -2.6385    0.0000 C   0  0  0  0  0  0  0  0  0  0  0  0
    3.3127   -1.5220    0.0000 C   0  0  0  0  0  0  0  0  0  0  0  0
    8.2529    0.8458    0.0000 H   0  0  0  0  0  0  0  0  0  0  0  0
    7.1912   -0.1865    0.0000 H   0  0  0  0  0  0  0  0  0  0  0  0
    7.5992    2.1746    0.0000 H   0  0  0  0  0  0  0  0  0  0  0  0
    6.1334    1.9634    0.0000 H   0  0  0  0  0  0  0  0  0  0  0  0
    7.0477    2.9068    0.0000 H   0  0  0  0  0  0  0  0  0  0  0  0
    6.4536    3.4382    0.0000 H   0  0  0  0  0  0  0  0  0  0  0  0
    8.4385    2.7693    0.0000 H   0  0  0  0  0  0  0  0  0  0  0  0
    7.6531   -1.5004    0.0000 H   0  0  0  0  0  0  0  0  0  0  0  0
    9.6786   -0.1785    0.0000 H   0  0  0  0  0  0  0  0  0  0  0  0
    9.9902    0.6411    0.0000 H   0  0  0  0  0  0  0  0  0  0  0  0
    9.1706    0.9527    0.0000 H   0  0  0  0  0  0  0  0  0  0  0  0
    5.2617    3.6122    0.0000 H   0  0  0  0  0  0  0  0  0  0  0  0
    3.3531   -0.1361    0.0000 H   0  0  0  0  0  0  0  0  0  0  0  0
    2.0054   -2.0655    0.0000 H   0  0  0  0  0  0  0  0  0  0  0  0
    2.0000   -0.9916    0.0000 H   0  0  0  0  0  0  0  0  0  0  0  0
  1 13  1  0  0  0  0
  1 15  1  0  0  0  0
 12  2  1  1  0  0  0
  2 20  1  0  0  0  0
 14  3  1  1  0  0  0
  3 30  1  0  0  0  0
  4 16  1  0  0  0  0
  4 35  1  0  0  0  0
  5 21  2  0  0  0  0
  6 22  2  0  0  0  0
 13  7  1  6  0  0  0
  7 17  1  0  0  0  0
  7 18  1  0  0  0  0
  8 18  2  0  0  0  0
  8 19  1  0  0  0  0
  9 21  1  0  0  0  0
  9 23  1  0  0  0  0
  9 36  1  0  0  0  0
 10 22  1  0  0  0  0
 10 23  2  0  0  0  0
 11 23  1  0  0  0  0
 11 37  1  0  0  0  0
 11 38  1  0  0  0  0
 12 13  1  0  0  0  0
 12 14  1  0  0  0  0
 12 24  1  0  0  0  0
 13 25  1  0  0  0  0
 14 15  1  0  0  0  0
 14 26  1  0  0  0  0
 15 16  1  6  0  0  0
 15 27  1  0  0  0  0
 16 28  1  0  0  0  0
 16 29  1  0  0  0  0
 17 19  2  0  0  0  0
 17 21  1  0  0  0  0
 18 31  1  0  0  0  0
 19 22  1  0  0  0  0
 20 32  1  0  0  0  0
 20 33  1  0  0  0  0
 20 34  1  0  0  0  0
M  END
> <PUBCHEM_COMPOUND_CID>
511378
> <PUBCHEM_COMPOUND_CANONICALIZED>
1
> <PUBCHEM_CACTVS_COMPLEXITY>
542
> <PUBCHEM_CACTVS_HBOND_ACCEPTOR>
7
> <PUBCHEM_CACTVS_HBOND_DONOR>
4
> <PUBCHEM_CACTVS_ROTATABLE_BOND>
3
> <PUBCHEM_CACTVS_SUBSKEYS>
AAADccBzuAAAAAAAAAAAAAAAAAAAAWJAAAAAAAAABAAAAACBgAAAHgAQCAAACBzhlgYHkBfMFgCoAQVxdACAgC0XEKABWAGoVECDWBpAyCAfQYhPAQLTAWD1MAIAAAAAAAAAAAAAAAAAAAAAAAAAAAAAAA==
> <PUBCHEM_IUPAC_OPENEYE_NAME>
6-amino-1-[(2R,3R,4R,5R)-4-hydroxy-5-(hydroxymethyl)-3-methoxy-tetrahydrofuran-2-yl]-7H-imidazo[4,5-e][1,3]diazepine-4,8-dione
> <PUBCHEM_IUPAC_CAS_NAME>
6-amino-1-[(2R,3R,4R,5R)-4-hydroxy-5-(hydroxymethyl)-3-methoxy-2-oxolanyl]-7H-imidazo[4,5-e][1,3]diazepine-4,8-dione
> <PUBCHEM_IUPAC_NAME_MARKUP>
6-amino-1-[(2<I>R</I>,3<I>R</I>,4<I>R</I>,5<I>R</I>)-4-hydroxy-5-(hydroxymethyl)-3-methoxyoxolan-2-yl]-7<I>H</I>-imidazo[4,5-e][1,3]diazepine-4,8-dione
> <PUBCHEM_IUPAC_NAME>
6-amino-1-[(2R,3R,4R,5R)-4-hydroxy-5-(hydroxymethyl)-3-methoxyoxolan-2-yl]-7H-imidazo[4,5-e][1,3]diazepine-4,8-dione
> <PUBCHEM_IUPAC_SYSTEMATIC_NAME>
6-azanyl-1-[(2R,3R,4R,5R)-5-(hydroxymethyl)-3-methoxy-4-oxidanyl-oxolan-2-yl]-7H-imidazo[4,5-e][1,3]diazepine-4,8-dione
> <PUBCHEM_IUPAC_TRADITIONAL_NAME>
6-amino-1-[(2R,3R,4R,5R)-4-hydroxy-3-methoxy-5-methylol-tetrahydrofuran-2-yl]-7H-imidazo[4,5-e][1,3]diazepine-4,8-quinone
> <PUBCHEM_IUPAC_INCHI>
InChI=1S/C12H15N5O6/c1-22-8-7(19)4(2-18)23-11(8)17-3-14-5-6(17)10(21)16-12(13)15-9(5)20/h3-4,7-8,11,18-19H,2H2,1H3,(H3,13,15,16,20,21)/t4-,7-,8-,11-/m1/s1
> <PUBCHEM_IUPAC_INCHIKEY>
SGZJFJKNXMDXCE-TZQXKBMNSA-N
> <PUBCHEM_XLOGP3>
-1.5
> <PUBCHEM_EXACT_MASS>
325.10223322
> <PUBCHEM_MOLECULAR_FORMULA>
C12H15N5O6
> <PUBCHEM_MOLECULAR_WEIGHT>
325.28
> <PUBCHEM_OPENEYE_CAN_SMILES>
COC1C(C(OC1N2C=NC3=C2C(=O)NC(=NC3=O)N)CO)O
> <PUBCHEM_OPENEYE_ISO_SMILES>
CO[C@@H]1[C@@H]([C@H](O[C@H]1N2C=NC3=C2C(=O)NC(=NC3=O)N)CO)O
> <PUBCHEM_CACTVS_TPSA>
161
> <PUBCHEM_MONOISOTOPIC_WEIGHT>
325.10223322
> <PUBCHEM_TOTAL_CHARGE>
0
> <PUBCHEM_HEAVY_ATOM_COUNT>
23
> <PUBCHEM_ATOM_DEF_STEREO_COUNT>
4
> <PUBCHEM_ATOM_UDEF_STEREO_COUNT>
0
> <PUBCHEM_BOND_DEF_STEREO_COUNT>
0
> <PUBCHEM_BOND_UDEF_STEREO_COUNT>
0
> <PUBCHEM_ISOTOPIC_ATOM_COUNT>
0
> <PUBCHEM_COMPONENT_COUNT>
1
> <PUBCHEM_CACTVS_TAUTO_COUNT>
-1
> <PUBCHEM_COORDINATE_TYPE>
1
5
255
> <PUBCHEM_BONDANNOTATIONS>
10  22  8
10  23  8
15  16  6
17  19  8
17  21  8
19  22  8
12  2  5
14  3  5
13  7  6
7  17  8
7  18  8
8  18  8
8  19  8
9  21  8
9  23  8
$$$$
