511332
  -OEChem-10302200282D
 74 77  0     1  0  0  0  0  0999 V2000
    6.6962    6.0311    0.0000 F   0  0  0  0  0  0  0  0  0  0  0  0
    8.0622    5.6651    0.0000 F   0  0  0  0  0  0  0  0  0  0  0  0
    7.6962    4.2990    0.0000 F   0  0  0  0  0  0  0  0  0  0  0  0
    6.2320   -3.4330    0.0000 O   0  0  0  0  0  0  0  0  0  0  0  0
    2.2320   -5.1651    0.0000 O   0  5  0  0  0  0  0  0  0  0  0  0
    3.7320    0.1651    0.0000 N   0  0  3  0  0  0  0  0  0  0  0  0
    3.7320    2.1651    0.0000 N   0  0  3  0  0  0  0  0  0  0  0  0
    4.7320   -2.5670    0.0000 N   0  0  0  0  0  0  0  0  0  0  0  0
    3.2320   -5.1651    0.0000 N   0  3  0  0  0  0  0  0  0  0  0  0
    3.7320   -0.8349    0.0000 C   0  0  0  0  0  0  0  0  0  0  0  0
    4.7320   -0.8349    0.0000 C   0  0  0  0  0  0  0  0  0  0  0  0
    3.2320   -1.7010    0.0000 C   0  0  0  0  0  0  0  0  0  0  0  0
    2.8660    0.6651    0.0000 C   0  0  0  0  0  0  0  0  0  0  0  0
    2.8660    1.6651    0.0000 C   0  0  2  0  0  0  0  0  0  0  0  0
    4.5981    0.6651    0.0000 C   0  0  0  0  0  0  0  0  0  0  0  0
    4.5981    1.6651    0.0000 C   0  0  0  0  0  0  0  0  0  0  0  0
    5.2320   -1.7010    0.0000 C   0  0  0  0  0  0  0  0  0  0  0  0
    3.7320   -2.5670    0.0000 C   0  0  0  0  0  0  0  0  0  0  0  0
    2.8660   -0.3349    0.0000 C   0  0  0  0  0  0  0  0  0  0  0  0
    3.7320    3.1651    0.0000 C   0  0  2  0  0  0  0  0  0  0  0  0
    2.0000    2.1651    0.0000 C   0  0  0  0  0  0  0  0  0  0  0  0
    5.2320   -3.4330    0.0000 C   0  0  0  0  0  0  0  0  0  0  0  0
    4.5981    3.6651    0.0000 C   0  0  0  0  0  0  0  0  0  0  0  0
    2.8660    3.6651    0.0000 C   0  0  0  0  0  0  0  0  0  0  0  0
    4.7320   -4.2990    0.0000 C   0  0  0  0  0  0  0  0  0  0  0  0
    4.5981    4.6651    0.0000 C   0  0  0  0  0  0  0  0  0  0  0  0
    5.4641    3.1651    0.0000 C   0  0  0  0  0  0  0  0  0  0  0  0
    3.7320   -4.2990    0.0000 C   0  0  0  0  0  0  0  0  0  0  0  0
    5.2320   -5.1651    0.0000 C   0  0  0  0  0  0  0  0  0  0  0  0
    5.4641    5.1651    0.0000 C   0  0  0  0  0  0  0  0  0  0  0  0
    6.3301    3.6651    0.0000 C   0  0  0  0  0  0  0  0  0  0  0  0
    6.3301    4.6651    0.0000 C   0  0  0  0  0  0  0  0  0  0  0  0
    4.7320   -6.0311    0.0000 C   0  0  0  0  0  0  0  0  0  0  0  0
    3.2320   -3.4330    0.0000 C   0  0  0  0  0  0  0  0  0  0  0  0
    6.2320   -5.1651    0.0000 C   0  0  0  0  0  0  0  0  0  0  0  0
    3.7320   -6.0311    0.0000 C   0  0  0  0  0  0  0  0  0  0  0  0
    7.1962    5.1651    0.0000 C   0  0  0  0  0  0  0  0  0  0  0  0
    5.3147   -0.6229    0.0000 H   0  0  0  0  0  0  0  0  0  0  0  0
    4.6244   -0.2244    0.0000 H   0  0  0  0  0  0  0  0  0  0  0  0
    2.7571   -1.3024    0.0000 H   0  0  0  0  0  0  0  0  0  0  0  0
    2.7571   -2.0995    0.0000 H   0  0  0  0  0  0  0  0  0  0  0  0
    2.2554    0.7727    0.0000 H   0  0  0  0  0  0  0  0  0  0  0  0
    2.6540    0.0825    0.0000 H   0  0  0  0  0  0  0  0  0  0  0  0
    2.8660    2.2851    0.0000 H   0  0  0  0  0  0  0  0  0  0  0  0
    4.8101    0.0825    0.0000 H   0  0  0  0  0  0  0  0  0  0  0  0
    5.2087    0.7727    0.0000 H   0  0  0  0  0  0  0  0  0  0  0  0
    5.2087    1.5574    0.0000 H   0  0  0  0  0  0  0  0  0  0  0  0
    4.8101    2.2477    0.0000 H   0  0  0  0  0  0  0  0  0  0  0  0
    5.7070   -2.0995    0.0000 H   0  0  0  0  0  0  0  0  0  0  0  0
    5.7070   -1.3024    0.0000 H   0  0  0  0  0  0  0  0  0  0  0  0
    3.1494   -2.7790    0.0000 H   0  0  0  0  0  0  0  0  0  0  0  0
    3.8397   -3.1776    0.0000 H   0  0  0  0  0  0  0  0  0  0  0  0
    3.1760    0.2020    0.0000 H   0  0  0  0  0  0  0  0  0  0  0  0
    2.3291   -0.0249    0.0000 H   0  0  0  0  0  0  0  0  0  0  0  0
    2.5560   -0.8719    0.0000 H   0  0  0  0  0  0  0  0  0  0  0  0
    3.1951    2.8551    0.0000 H   0  0  0  0  0  0  0  0  0  0  0  0
    2.3100    2.7020    0.0000 H   0  0  0  0  0  0  0  0  0  0  0  0
    1.4631    2.4751    0.0000 H   0  0  0  0  0  0  0  0  0  0  0  0
    1.6900    1.6281    0.0000 H   0  0  0  0  0  0  0  0  0  0  0  0
    3.1760    4.2020    0.0000 H   0  0  0  0  0  0  0  0  0  0  0  0
    2.3291    3.9751    0.0000 H   0  0  0  0  0  0  0  0  0  0  0  0
    2.5560    3.1281    0.0000 H   0  0  0  0  0  0  0  0  0  0  0  0
    4.0611    4.9751    0.0000 H   0  0  0  0  0  0  0  0  0  0  0  0
    5.4641    2.5451    0.0000 H   0  0  0  0  0  0  0  0  0  0  0  0
    5.4641    5.7851    0.0000 H   0  0  0  0  0  0  0  0  0  0  0  0
    6.8671    3.3551    0.0000 H   0  0  0  0  0  0  0  0  0  0  0  0
    5.0420   -6.5680    0.0000 H   0  0  0  0  0  0  0  0  0  0  0  0
    3.7690   -3.1230    0.0000 H   0  0  0  0  0  0  0  0  0  0  0  0
    2.9220   -2.8961    0.0000 H   0  0  0  0  0  0  0  0  0  0  0  0
    2.6951   -3.7430    0.0000 H   0  0  0  0  0  0  0  0  0  0  0  0
    6.2320   -5.7851    0.0000 H   0  0  0  0  0  0  0  0  0  0  0  0
    6.8520   -5.1651    0.0000 H   0  0  0  0  0  0  0  0  0  0  0  0
    6.2320   -4.5451    0.0000 H   0  0  0  0  0  0  0  0  0  0  0  0
    3.4220   -6.5680    0.0000 H   0  0  0  0  0  0  0  0  0  0  0  0
  1 37  1  0  0  0  0
  2 37  1  0  0  0  0
  3 37  1  0  0  0  0
  4 22  2  0  0  0  0
  5  9  1  0  0  0  0
  6 10  1  0  0  0  0
  6 13  1  0  0  0  0
  6 15  1  0  0  0  0
  7 14  1  0  0  0  0
  7 16  1  0  0  0  0
  7 20  1  0  0  0  0
  8 17  1  0  0  0  0
  8 18  1  0  0  0  0
  8 22  1  0  0  0  0
  9 28  2  0  0  0  0
  9 36  1  0  0  0  0
 10 11  1  0  0  0  0
 10 12  1  0  0  0  0
 10 19  1  0  0  0  0
 11 17  1  0  0  0  0
 11 38  1  0  0  0  0
 11 39  1  0  0  0  0
 12 18  1  0  0  0  0
 12 40  1  0  0  0  0
 12 41  1  0  0  0  0
 13 14  1  0  0  0  0
 13 42  1  0  0  0  0
 13 43  1  0  0  0  0
 14 21  1  6  0  0  0
 14 44  1  0  0  0  0
 15 16  1  0  0  0  0
 15 45  1  0  0  0  0
 15 46  1  0  0  0  0
 16 47  1  0  0  0  0
 16 48  1  0  0  0  0
 17 49  1  0  0  0  0
 17 50  1  0  0  0  0
 18 51  1  0  0  0  0
 18 52  1  0  0  0  0
 19 53  1  0  0  0  0
 19 54  1  0  0  0  0
 19 55  1  0  0  0  0
 20 23  1  0  0  0  0
 20 24  1  1  0  0  0
 20 56  1  0  0  0  0
 21 57  1  0  0  0  0
 21 58  1  0  0  0  0
 21 59  1  0  0  0  0
 22 25  1  0  0  0  0
 23 26  2  0  0  0  0
 23 27  1  0  0  0  0
 24 60  1  0  0  0  0
 24 61  1  0  0  0  0
 24 62  1  0  0  0  0
 25 28  1  0  0  0  0
 25 29  2  0  0  0  0
 26 30  1  0  0  0  0
 26 63  1  0  0  0  0
 27 31  2  0  0  0  0
 27 64  1  0  0  0  0
 28 34  1  0  0  0  0
 29 33  1  0  0  0  0
 29 35  1  0  0  0  0
 30 32  2  0  0  0  0
 30 65  1  0  0  0  0
 31 32  1  0  0  0  0
 31 66  1  0  0  0  0
 32 37  1  0  0  0  0
 33 36  2  0  0  0  0
 33 67  1  0  0  0  0
 34 68  1  0  0  0  0
 34 69  1  0  0  0  0
 34 70  1  0  0  0  0
 35 71  1  0  0  0  0
 35 72  1  0  0  0  0
 35 73  1  0  0  0  0
 36 74  1  0  0  0  0
M  CHG  2   5  -1   9   1
M  END
> <PUBCHEM_COMPOUND_CID>
511332
> <PUBCHEM_COMPOUND_CANONICALIZED>
1
> <PUBCHEM_CACTVS_COMPLEXITY>
780
> <PUBCHEM_CACTVS_HBOND_ACCEPTOR>
7
> <PUBCHEM_CACTVS_HBOND_DONOR>
0
> <PUBCHEM_CACTVS_ROTATABLE_BOND>
4
> <PUBCHEM_CACTVS_SUBSKEYS>
AAADcfB7sYAAAAAAAAAAAAAAAAAAAAAAAAA8WLEAAAAAAAABwAAAHwAEAAAADKjBnhQ+gJMYEACoAzV3VACCgCA1AiAo2CE4ZNoIYHrA1ZGUIYhghgDIyUcYgcAOwAAAAAAAAACAAAAAAAAAAAAAAAAAAA==
> <PUBCHEM_IUPAC_OPENEYE_NAME>
(2,4-dimethyl-1-oxido-pyridin-1-ium-3-yl)-[4-methyl-4-[(3S)-3-methyl-4-[(1S)-1-[4-(trifluoromethyl)phenyl]ethyl]piperazin-1-yl]-1-piperidyl]methanone
> <PUBCHEM_IUPAC_CAS_NAME>
(2,4-dimethyl-1-oxido-3-pyridin-1-iumyl)-[4-methyl-4-[(3S)-3-methyl-4-[(1S)-1-[4-(trifluoromethyl)phenyl]ethyl]-1-piperazinyl]-1-piperidinyl]methanone
> <PUBCHEM_IUPAC_NAME_MARKUP>
(2,4-dimethyl-1-oxidopyridin-1-ium-3-yl)-[4-methyl-4-[(3<I>S</I>)-3-methyl-4-[(1<I>S</I>)-1-[4-(trifluoromethyl)phenyl]ethyl]piperazin-1-yl]piperidin-1-yl]methanone
> <PUBCHEM_IUPAC_NAME>
(2,4-dimethyl-1-oxidopyridin-1-ium-3-yl)-[4-methyl-4-[(3S)-3-methyl-4-[(1S)-1-[4-(trifluoromethyl)phenyl]ethyl]piperazin-1-yl]piperidin-1-yl]methanone
> <PUBCHEM_IUPAC_SYSTEMATIC_NAME>
(2,4-dimethyl-1-oxidanidyl-pyridin-1-ium-3-yl)-[4-methyl-4-[(3S)-3-methyl-4-[(1S)-1-[4-(trifluoromethyl)phenyl]ethyl]piperazin-1-yl]piperidin-1-yl]methanone
> <PUBCHEM_IUPAC_TRADITIONAL_NAME>
(2,4-dimethyl-1-oxido-pyridin-1-ium-3-yl)-[4-methyl-4-[(3S)-3-methyl-4-[(1S)-1-[4-(trifluoromethyl)phenyl]ethyl]piperazino]piperidino]methanone
> <PUBCHEM_IUPAC_INCHI>
InChI=1S/C28H37F3N4O2/c1-19-10-13-35(37)22(4)25(19)26(36)32-14-11-27(5,12-15-32)33-16-17-34(20(2)18-33)21(3)23-6-8-24(9-7-23)28(29,30)31/h6-10,13,20-21H,11-12,14-18H2,1-5H3/t20-,21-/m0/s1
> <PUBCHEM_IUPAC_INCHIKEY>
RQDGBNLSKUOAJD-SFTDATJTSA-N
> <PUBCHEM_XLOGP3_AA>
3.9
> <PUBCHEM_EXACT_MASS>
518.28686092
> <PUBCHEM_MOLECULAR_FORMULA>
C28H37F3N4O2
> <PUBCHEM_MOLECULAR_WEIGHT>
518.6
> <PUBCHEM_OPENEYE_CAN_SMILES>
CC1CN(CCN1C(C)C2=CC=C(C=C2)C(F)(F)F)C3(CCN(CC3)C(=O)C4=C(C=C[N+](=C4C)[O-])C)C
> <PUBCHEM_OPENEYE_ISO_SMILES>
C[C@H]1CN(CCN1[C@@H](C)C2=CC=C(C=C2)C(F)(F)F)C3(CCN(CC3)C(=O)C4=C(C=C[N+](=C4C)[O-])C)C
> <PUBCHEM_CACTVS_TPSA>
52.2
> <PUBCHEM_MONOISOTOPIC_WEIGHT>
518.28686092
> <PUBCHEM_TOTAL_CHARGE>
0
> <PUBCHEM_HEAVY_ATOM_COUNT>
37
> <PUBCHEM_ATOM_DEF_STEREO_COUNT>
2
> <PUBCHEM_ATOM_UDEF_STEREO_COUNT>
0
> <PUBCHEM_BOND_DEF_STEREO_COUNT>
0
> <PUBCHEM_BOND_UDEF_STEREO_COUNT>
0
> <PUBCHEM_ISOTOPIC_ATOM_COUNT>
0
> <PUBCHEM_COMPONENT_COUNT>
1
> <PUBCHEM_CACTVS_TAUTO_COUNT>
1
> <PUBCHEM_COORDINATE_TYPE>
1
5
255
> <PUBCHEM_BONDANNOTATIONS>
14  21  6
20  24  5
23  26  8
23  27  8
25  28  8
25  29  8
26  30  8
27  31  8
29  33  8
30  32  8
31  32  8
33  36  8
9  28  8
9  36  8
$$$$
