511357
  -OEChem-10302200282D
 54 57  0     1  0  0  0  0  0999 V2000
    4.5624    2.2151    0.0000 O   0  0  0  0  0  0  0  0  0  0  0  0
    7.6108    0.4230    0.0000 O   0  0  0  0  0  0  0  0  0  0  0  0
    4.5346   -1.3209    0.0000 O   0  0  0  0  0  0  0  0  0  0  0  0
    4.5451   -3.0911    0.0000 O   0  0  0  0  0  0  0  0  0  0  0  0
    3.0378   -0.4487    0.0000 N   0  0  0  0  0  0  0  0  0  0  0  0
    3.0000    1.3210    0.0000 C   0  0  2  0  0  0  0  0  0  0  0  0
    3.5278    0.4230    0.0000 C   0  0  1  0  0  0  0  0  0  0  0  0
    3.5208    2.2231    0.0000 C   0  0  2  0  0  0  0  0  0  0  0  0
    4.5692    0.4391    0.0000 C   0  0  0  0  0  0  0  0  0  0  0  0
    5.0692    1.3051    0.0000 C   0  0  0  0  0  0  0  0  0  0  0  0
    5.0692   -0.4270    0.0000 C   0  0  0  0  0  0  0  0  0  0  0  0
    6.0692    1.3051    0.0000 C   0  0  0  0  0  0  0  0  0  0  0  0
    6.0692   -0.4270    0.0000 C   0  0  0  0  0  0  0  0  0  0  0  0
    2.0000    1.3172    0.0000 C   0  0  0  0  0  0  0  0  0  0  0  0
    6.5692    0.4391    0.0000 C   0  0  0  0  0  0  0  0  0  0  0  0
    3.0242    3.0911    0.0000 C   0  0  0  0  0  0  0  0  0  0  0  0
    8.1385    1.3210    0.0000 C   0  0  0  0  0  0  0  0  0  0  0  0
    6.6039   -1.3209    0.0000 C   0  0  0  0  0  0  0  0  0  0  0  0
    6.5761    2.2151    0.0000 C   0  0  0  0  0  0  0  0  0  0  0  0
    7.6177    2.2231    0.0000 C   0  0  0  0  0  0  0  0  0  0  0  0
    7.6038   -1.3093    0.0000 C   0  0  0  0  0  0  0  0  0  0  0  0
    9.0065    1.8177    0.0000 C   0  0  0  0  0  0  0  0  0  0  0  0
    9.0026    0.8177    0.0000 C   0  0  0  0  0  0  0  0  0  0  0  0
    6.0901   -2.2270    0.0000 C   0  0  0  0  0  0  0  0  0  0  0  0
    5.0484   -2.2270    0.0000 C   0  0  0  0  0  0  0  0  0  0  0  0
    8.1138   -2.1695    0.0000 C   0  0  0  0  0  0  0  0  0  0  0  0
    9.1138   -2.1580    0.0000 C   0  0  0  0  0  0  0  0  0  0  0  0
    2.6931    0.7823    0.0000 H   0  0  0  0  0  0  0  0  0  0  0  0
    3.8450   -0.1097    0.0000 H   0  0  0  0  0  0  0  0  0  0  0  0
    3.8339    2.7582    0.0000 H   0  0  0  0  0  0  0  0  0  0  0  0
    1.9976    1.9372    0.0000 H   0  0  0  0  0  0  0  0  0  0  0  0
    1.3800    1.3148    0.0000 H   0  0  0  0  0  0  0  0  0  0  0  0
    2.0024    0.6972    0.0000 H   0  0  0  0  0  0  0  0  0  0  0  0
    3.5623    3.3990    0.0000 H   0  0  0  0  0  0  0  0  0  0  0  0
    2.7162    3.6292    0.0000 H   0  0  0  0  0  0  0  0  0  0  0  0
    2.4860    2.7831    0.0000 H   0  0  0  0  0  0  0  0  0  0  0  0
    2.4178   -0.4559    0.0000 H   0  0  0  0  0  0  0  0  0  0  0  0
    3.3540   -0.9821    0.0000 H   0  0  0  0  0  0  0  0  0  0  0  0
    6.2599    2.7484    0.0000 H   0  0  0  0  0  0  0  0  0  0  0  0
    7.9256    2.7612    0.0000 H   0  0  0  0  0  0  0  0  0  0  0  0
    8.1840   -1.0906    0.0000 H   0  0  0  0  0  0  0  0  0  0  0  0
    7.4891   -0.7000    0.0000 H   0  0  0  0  0  0  0  0  0  0  0  0
    9.3144    1.2796    0.0000 H   0  0  0  0  0  0  0  0  0  0  0  0
    9.5446    2.1256    0.0000 H   0  0  0  0  0  0  0  0  0  0  0  0
    8.6985    2.3558    0.0000 H   0  0  0  0  0  0  0  0  0  0  0  0
    8.6905    0.2820    0.0000 H   0  0  0  0  0  0  0  0  0  0  0  0
    9.5383    0.5056    0.0000 H   0  0  0  0  0  0  0  0  0  0  0  0
    9.3147    1.3534    0.0000 H   0  0  0  0  0  0  0  0  0  0  0  0
    6.4021   -2.7627    0.0000 H   0  0  0  0  0  0  0  0  0  0  0  0
    7.5337   -2.3883    0.0000 H   0  0  0  0  0  0  0  0  0  0  0  0
    8.2285   -2.7788    0.0000 H   0  0  0  0  0  0  0  0  0  0  0  0
    9.1209   -2.7779    0.0000 H   0  0  0  0  0  0  0  0  0  0  0  0
    9.7337   -2.1508    0.0000 H   0  0  0  0  0  0  0  0  0  0  0  0
    9.1066   -1.5380    0.0000 H   0  0  0  0  0  0  0  0  0  0  0  0
  1  8  1  0  0  0  0
  1 10  1  0  0  0  0
  2 15  1  0  0  0  0
  2 17  1  0  0  0  0
  3 11  1  0  0  0  0
  3 25  1  0  0  0  0
  4 25  2  0  0  0  0
  7  5  1  1  0  0  0
  5 37  1  0  0  0  0
  5 38  1  0  0  0  0
  6  7  1  0  0  0  0
  6  8  1  0  0  0  0
  6 14  1  1  0  0  0
  6 28  1  0  0  0  0
  7  9  1  0  0  0  0
  7 29  1  0  0  0  0
  8 16  1  6  0  0  0
  8 30  1  0  0  0  0
  9 10  2  0  0  0  0
  9 11  1  0  0  0  0
 10 12  1  0  0  0  0
 11 13  2  0  0  0  0
 12 15  2  0  0  0  0
 12 19  1  0  0  0  0
 13 15  1  0  0  0  0
 13 18  1  0  0  0  0
 14 31  1  0  0  0  0
 14 32  1  0  0  0  0
 14 33  1  0  0  0  0
 16 34  1  0  0  0  0
 16 35  1  0  0  0  0
 16 36  1  0  0  0  0
 17 20  1  0  0  0  0
 17 22  1  0  0  0  0
 17 23  1  0  0  0  0
 18 21  1  0  0  0  0
 18 24  2  0  0  0  0
 19 20  2  0  0  0  0
 19 39  1  0  0  0  0
 20 40  1  0  0  0  0
 21 26  1  0  0  0  0
 21 41  1  0  0  0  0
 21 42  1  0  0  0  0
 22 43  1  0  0  0  0
 22 44  1  0  0  0  0
 22 45  1  0  0  0  0
 23 46  1  0  0  0  0
 23 47  1  0  0  0  0
 23 48  1  0  0  0  0
 24 25  1  0  0  0  0
 24 49  1  0  0  0  0
 26 27  1  0  0  0  0
 26 50  1  0  0  0  0
 26 51  1  0  0  0  0
 27 52  1  0  0  0  0
 27 53  1  0  0  0  0
 27 54  1  0  0  0  0
M  END
> <PUBCHEM_COMPOUND_CID>
511357
> <PUBCHEM_COMPOUND_CANONICALIZED>
1
> <PUBCHEM_CACTVS_COMPLEXITY>
669
> <PUBCHEM_CACTVS_HBOND_ACCEPTOR>
5
> <PUBCHEM_CACTVS_HBOND_DONOR>
1
> <PUBCHEM_CACTVS_ROTATABLE_BOND>
2
> <PUBCHEM_CACTVS_SUBSKEYS>
AAADceB6OAAAAAAAAAAAAAAAAAAAAAAAAAA0QIEAAAAAAACRAAAAHgAQAAAADXzhmAYCDoBABACIAiDSCACCCAAgIAAIiIAEDMgMJyKEsRuCOiDn0BUIqQeQ8O0OIAACCAAIAABAAAQQABAAAAAAAAAAAA==
> <PUBCHEM_IUPAC_OPENEYE_NAME>
(16S,17R,18S)-18-amino-10,10,16,17-tetramethyl-6-propyl-3,9,15-trioxatetracyclo[12.4.0.02,7.08,13]octadeca-1(14),2(7),5,8(13),11-pentaen-4-one
> <PUBCHEM_IUPAC_CAS_NAME>
(16S,17R,18S)-18-amino-10,10,16,17-tetramethyl-6-propyl-3,9,15-trioxatetracyclo[12.4.0.02,7.08,13]octadeca-1(14),2(7),5,8(13),11-pentaen-4-one
> <PUBCHEM_IUPAC_NAME_MARKUP>
(16<I>S</I>,17<I>R</I>,18<I>S</I>)-18-amino-10,10,16,17-tetramethyl-6-propyl-3,9,15-trioxatetracyclo[12.4.0.0<SUP>2,7</SUP>.0<SUP>8,13</SUP>]octadeca-1(14),2(7),5,8(13),11-pentaen-4-one
> <PUBCHEM_IUPAC_NAME>
(16S,17R,18S)-18-amino-10,10,16,17-tetramethyl-6-propyl-3,9,15-trioxatetracyclo[12.4.0.02,7.08,13]octadeca-1(14),2(7),5,8(13),11-pentaen-4-one
> <PUBCHEM_IUPAC_SYSTEMATIC_NAME>
(16S,17R,18S)-18-azanyl-10,10,16,17-tetramethyl-6-propyl-3,9,15-trioxatetracyclo[12.4.0.02,7.08,13]octadeca-1(14),2(7),5,8(13),11-pentaen-4-one
> <PUBCHEM_IUPAC_TRADITIONAL_NAME>
(16S,17R,18S)-18-amino-10,10,16,17-tetramethyl-6-propyl-3,9,15-trioxatetracyclo[12.4.0.02,7.08,13]octadeca-1(14),2(7),5,8(13),11-pentaen-4-one
> <PUBCHEM_IUPAC_INCHI>
InChI=1S/C22H27NO4/c1-6-7-13-10-15(24)26-21-16(13)20-14(8-9-22(4,5)27-20)19-17(21)18(23)11(2)12(3)25-19/h8-12,18H,6-7,23H2,1-5H3/t11-,12-,18-/m0/s1
> <PUBCHEM_IUPAC_INCHIKEY>
SIIFOSXJDSZXFW-PZROIBLQSA-N
> <PUBCHEM_XLOGP3_AA>
3.6
> <PUBCHEM_EXACT_MASS>
369.19400834
> <PUBCHEM_MOLECULAR_FORMULA>
C22H27NO4
> <PUBCHEM_MOLECULAR_WEIGHT>
369.5
> <PUBCHEM_OPENEYE_CAN_SMILES>
CCCC1=CC(=O)OC2=C1C3=C(C=CC(O3)(C)C)C4=C2C(C(C(O4)C)C)N
> <PUBCHEM_OPENEYE_ISO_SMILES>
CCCC1=CC(=O)OC2=C1C3=C(C=CC(O3)(C)C)C4=C2[C@H]([C@H]([C@@H](O4)C)C)N
> <PUBCHEM_CACTVS_TPSA>
70.8
> <PUBCHEM_MONOISOTOPIC_WEIGHT>
369.19400834
> <PUBCHEM_TOTAL_CHARGE>
0
> <PUBCHEM_HEAVY_ATOM_COUNT>
27
> <PUBCHEM_ATOM_DEF_STEREO_COUNT>
3
> <PUBCHEM_ATOM_UDEF_STEREO_COUNT>
0
> <PUBCHEM_BOND_DEF_STEREO_COUNT>
0
> <PUBCHEM_BOND_UDEF_STEREO_COUNT>
0
> <PUBCHEM_ISOTOPIC_ATOM_COUNT>
0
> <PUBCHEM_COMPONENT_COUNT>
1
> <PUBCHEM_CACTVS_TAUTO_COUNT>
-1
> <PUBCHEM_COORDINATE_TYPE>
1
5
255
> <PUBCHEM_BONDANNOTATIONS>
10  12  8
11  13  8
12  15  8
13  15  8
13  18  8
18  24  8
24  25  8
3  11  8
3  25  8
7  5  5
6  14  5
8  16  6
9  10  8
9  11  8
$$$$
