511356
  -OEChem-10302200282D
 54 57  0     1  0  0  0  0  0999 V2000
    5.5245    2.2151    0.0000 O   0  0  0  0  0  0  0  0  0  0  0  0
    8.5728    0.4230    0.0000 O   0  0  0  0  0  0  0  0  0  0  0  0
    5.4967   -1.3209    0.0000 O   0  0  0  0  0  0  0  0  0  0  0  0
    5.5072   -3.0911    0.0000 O   0  0  0  0  0  0  0  0  0  0  0  0
    3.9999   -0.4487    0.0000 N   0  0  0  0  0  0  0  0  0  0  0  0
    2.9999   -0.4603    0.0000 N   0  3  0  0  0  0  0  0  0  0  0  0
    2.0000   -0.4719    0.0000 N   0  5  0  0  0  0  0  0  0  0  0  0
    3.9621    1.3210    0.0000 C   0  0  2  0  0  0  0  0  0  0  0  0
    4.4898    0.4230    0.0000 C   0  0  1  0  0  0  0  0  0  0  0  0
    4.4829    2.2231    0.0000 C   0  0  2  0  0  0  0  0  0  0  0  0
    5.5313    0.4391    0.0000 C   0  0  0  0  0  0  0  0  0  0  0  0
    6.0313    1.3051    0.0000 C   0  0  0  0  0  0  0  0  0  0  0  0
    6.0313   -0.4270    0.0000 C   0  0  0  0  0  0  0  0  0  0  0  0
    7.0313    1.3051    0.0000 C   0  0  0  0  0  0  0  0  0  0  0  0
    7.0313   -0.4270    0.0000 C   0  0  0  0  0  0  0  0  0  0  0  0
    7.5313    0.4391    0.0000 C   0  0  0  0  0  0  0  0  0  0  0  0
    2.9621    1.3172    0.0000 C   0  0  0  0  0  0  0  0  0  0  0  0
    9.1006    1.3210    0.0000 C   0  0  0  0  0  0  0  0  0  0  0  0
    3.9862    3.0911    0.0000 C   0  0  0  0  0  0  0  0  0  0  0  0
    7.5660   -1.3209    0.0000 C   0  0  0  0  0  0  0  0  0  0  0  0
    7.5382    2.2151    0.0000 C   0  0  0  0  0  0  0  0  0  0  0  0
    8.5659   -1.3093    0.0000 C   0  0  0  0  0  0  0  0  0  0  0  0
    8.5798    2.2231    0.0000 C   0  0  0  0  0  0  0  0  0  0  0  0
    7.0521   -2.2270    0.0000 C   0  0  0  0  0  0  0  0  0  0  0  0
    9.9685    1.8177    0.0000 C   0  0  0  0  0  0  0  0  0  0  0  0
    9.9647    0.8177    0.0000 C   0  0  0  0  0  0  0  0  0  0  0  0
    6.0105   -2.2270    0.0000 C   0  0  0  0  0  0  0  0  0  0  0  0
    9.0759   -2.1695    0.0000 C   0  0  0  0  0  0  0  0  0  0  0  0
    9.0559   -0.4376    0.0000 C   0  0  0  0  0  0  0  0  0  0  0  0
    3.6510    1.8574    0.0000 H   0  0  0  0  0  0  0  0  0  0  0  0
    3.8698    0.4170    0.0000 H   0  0  0  0  0  0  0  0  0  0  0  0
    4.7960    2.7582    0.0000 H   0  0  0  0  0  0  0  0  0  0  0  0
    2.9597    1.9372    0.0000 H   0  0  0  0  0  0  0  0  0  0  0  0
    2.3421    1.3148    0.0000 H   0  0  0  0  0  0  0  0  0  0  0  0
    2.9645    0.6972    0.0000 H   0  0  0  0  0  0  0  0  0  0  0  0
    4.5244    3.3990    0.0000 H   0  0  0  0  0  0  0  0  0  0  0  0
    3.6783    3.6292    0.0000 H   0  0  0  0  0  0  0  0  0  0  0  0
    3.4481    2.7831    0.0000 H   0  0  0  0  0  0  0  0  0  0  0  0
    7.2220    2.7484    0.0000 H   0  0  0  0  0  0  0  0  0  0  0  0
    8.2497   -0.7760    0.0000 H   0  0  0  0  0  0  0  0  0  0  0  0
    8.8877    2.7612    0.0000 H   0  0  0  0  0  0  0  0  0  0  0  0
    7.3642   -2.7627    0.0000 H   0  0  0  0  0  0  0  0  0  0  0  0
   10.2765    1.2796    0.0000 H   0  0  0  0  0  0  0  0  0  0  0  0
   10.5067    2.1256    0.0000 H   0  0  0  0  0  0  0  0  0  0  0  0
    9.6606    2.3558    0.0000 H   0  0  0  0  0  0  0  0  0  0  0  0
    9.6526    0.2820    0.0000 H   0  0  0  0  0  0  0  0  0  0  0  0
   10.5004    0.5056    0.0000 H   0  0  0  0  0  0  0  0  0  0  0  0
   10.2767    1.3534    0.0000 H   0  0  0  0  0  0  0  0  0  0  0  0
    8.5426   -2.4857    0.0000 H   0  0  0  0  0  0  0  0  0  0  0  0
    9.3921   -2.7028    0.0000 H   0  0  0  0  0  0  0  0  0  0  0  0
    9.6092   -1.8533    0.0000 H   0  0  0  0  0  0  0  0  0  0  0  0
    9.5964   -0.7414    0.0000 H   0  0  0  0  0  0  0  0  0  0  0  0
    9.3596    0.1029    0.0000 H   0  0  0  0  0  0  0  0  0  0  0  0
    8.5154   -0.1338    0.0000 H   0  0  0  0  0  0  0  0  0  0  0  0
  1 10  1  0  0  0  0
  1 12  1  0  0  0  0
  2 16  1  0  0  0  0
  2 18  1  0  0  0  0
  3 13  1  0  0  0  0
  3 27  1  0  0  0  0
  4 27  2  0  0  0  0
  5  6  2  0  0  0  0
  9  5  1  1  0  0  0
  6  7  2  0  0  0  0
  8  9  1  0  0  0  0
  8 10  1  0  0  0  0
  8 17  1  1  0  0  0
  8 30  1  0  0  0  0
  9 11  1  0  0  0  0
  9 31  1  0  0  0  0
 10 19  1  6  0  0  0
 10 32  1  0  0  0  0
 11 12  2  0  0  0  0
 11 13  1  0  0  0  0
 12 14  1  0  0  0  0
 13 15  2  0  0  0  0
 14 16  2  0  0  0  0
 14 21  1  0  0  0  0
 15 16  1  0  0  0  0
 15 20  1  0  0  0  0
 17 33  1  0  0  0  0
 17 34  1  0  0  0  0
 17 35  1  0  0  0  0
 18 23  1  0  0  0  0
 18 25  1  0  0  0  0
 18 26  1  0  0  0  0
 19 36  1  0  0  0  0
 19 37  1  0  0  0  0
 19 38  1  0  0  0  0
 20 22  1  0  0  0  0
 20 24  2  0  0  0  0
 21 23  2  0  0  0  0
 21 39  1  0  0  0  0
 22 28  1  0  0  0  0
 22 29  1  0  0  0  0
 22 40  1  0  0  0  0
 23 41  1  0  0  0  0
 24 27  1  0  0  0  0
 24 42  1  0  0  0  0
 25 43  1  0  0  0  0
 25 44  1  0  0  0  0
 25 45  1  0  0  0  0
 26 46  1  0  0  0  0
 26 47  1  0  0  0  0
 26 48  1  0  0  0  0
 28 49  1  0  0  0  0
 28 50  1  0  0  0  0
 28 51  1  0  0  0  0
 29 52  1  0  0  0  0
 29 53  1  0  0  0  0
 29 54  1  0  0  0  0
M  CHG  2   6   1   7  -1
M  END
> <PUBCHEM_COMPOUND_CID>
511356
> <PUBCHEM_COMPOUND_CANONICALIZED>
1
> <PUBCHEM_CACTVS_COMPLEXITY>
798
> <PUBCHEM_CACTVS_HBOND_ACCEPTOR>
6
> <PUBCHEM_CACTVS_HBOND_DONOR>
0
> <PUBCHEM_CACTVS_ROTATABLE_BOND>
2
> <PUBCHEM_CACTVS_SUBSKEYS>
AAADceB7OAAAAAAAAAAAAAAAAAAAAAAAAAA0QIEAAAAAAACRAAAAHgAIAAAADXzhmAYCDoAABACKAiDSCACCCAAgIAAIiAAEDMgMJyKEsRuCOiDnwBUIqQeQ8O0OIAACCAAIAABAAAQQABAAAAAAAAAAAA==
> <PUBCHEM_IUPAC_OPENEYE_NAME>
(16S,17R,18S)-18-azido-6-isopropyl-10,10,16,17-tetramethyl-3,9,15-trioxatetracyclo[12.4.0.02,7.08,13]octadeca-1(14),2(7),5,8(13),11-pentaen-4-one
> <PUBCHEM_IUPAC_CAS_NAME>
(16S,17R,18S)-18-azido-10,10,16,17-tetramethyl-6-propan-2-yl-3,9,15-trioxatetracyclo[12.4.0.02,7.08,13]octadeca-1(14),2(7),5,8(13),11-pentaen-4-one
> <PUBCHEM_IUPAC_NAME_MARKUP>
(16<I>S</I>,17<I>R</I>,18<I>S</I>)-18-azido-10,10,16,17-tetramethyl-6-propan-2-yl-3,9,15-trioxatetracyclo[12.4.0.0<SUP>2,7</SUP>.0<SUP>8,13</SUP>]octadeca-1(14),2(7),5,8(13),11-pentaen-4-one
> <PUBCHEM_IUPAC_NAME>
(16S,17R,18S)-18-azido-10,10,16,17-tetramethyl-6-propan-2-yl-3,9,15-trioxatetracyclo[12.4.0.02,7.08,13]octadeca-1(14),2(7),5,8(13),11-pentaen-4-one
> <PUBCHEM_IUPAC_SYSTEMATIC_NAME>
(16S,17R,18S)-18-azido-10,10,16,17-tetramethyl-6-propan-2-yl-3,9,15-trioxatetracyclo[12.4.0.02,7.08,13]octadeca-1(14),2(7),5,8(13),11-pentaen-4-one
> <PUBCHEM_IUPAC_TRADITIONAL_NAME>
(16S,17R,18S)-18-azido-6-isopropyl-10,10,16,17-tetramethyl-3,9,15-trioxatetracyclo[12.4.0.02,7.08,13]octadeca-1(14),2(7),5,8(13),11-pentaen-4-one
> <PUBCHEM_IUPAC_INCHI>
InChI=1S/C22H25N3O4/c1-10(2)14-9-15(26)28-21-16(14)20-13(7-8-22(5,6)29-20)19-17(21)18(24-25-23)11(3)12(4)27-19/h7-12,18H,1-6H3/t11-,12-,18-/m0/s1
> <PUBCHEM_IUPAC_INCHIKEY>
WERXRVAQJGYDDG-PZROIBLQSA-N
> <PUBCHEM_XLOGP3_AA>
5.4
> <PUBCHEM_EXACT_MASS>
395.18450629
> <PUBCHEM_MOLECULAR_FORMULA>
C22H25N3O4
> <PUBCHEM_MOLECULAR_WEIGHT>
395.5
> <PUBCHEM_OPENEYE_CAN_SMILES>
CC1C(OC2=C(C1N=[N+]=[N-])C3=C(C(=CC(=O)O3)C(C)C)C4=C2C=CC(O4)(C)C)C
> <PUBCHEM_OPENEYE_ISO_SMILES>
C[C@H]1[C@@H](OC2=C([C@H]1N=[N+]=[N-])C3=C(C(=CC(=O)O3)C(C)C)C4=C2C=CC(O4)(C)C)C
> <PUBCHEM_CACTVS_TPSA>
59.1
> <PUBCHEM_MONOISOTOPIC_WEIGHT>
395.18450629
> <PUBCHEM_TOTAL_CHARGE>
0
> <PUBCHEM_HEAVY_ATOM_COUNT>
29
> <PUBCHEM_ATOM_DEF_STEREO_COUNT>
3
> <PUBCHEM_ATOM_UDEF_STEREO_COUNT>
0
> <PUBCHEM_BOND_DEF_STEREO_COUNT>
0
> <PUBCHEM_BOND_UDEF_STEREO_COUNT>
0
> <PUBCHEM_ISOTOPIC_ATOM_COUNT>
0
> <PUBCHEM_COMPONENT_COUNT>
1
> <PUBCHEM_CACTVS_TAUTO_COUNT>
-1
> <PUBCHEM_COORDINATE_TYPE>
1
5
255
> <PUBCHEM_BONDANNOTATIONS>
10  19  6
11  12  8
11  13  8
12  14  8
13  15  8
14  16  8
15  16  8
15  20  8
20  24  8
24  27  8
3  13  8
3  27  8
9  5  5
8  17  5
$$$$
