511359
  -OEChem-10302200282D
 37 39  0     1  0  0  0  0  0999 V2000
    8.1282    2.5843    0.0000 Cl  0  0  0  0  0  0  0  0  0  0  0  0
    5.5301    0.0843    0.0000 O   0  0  0  0  0  0  0  0  0  0  0  0
    5.5301    2.0843    0.0000 O   0  0  0  0  0  0  0  0  0  0  0  0
    7.3424   -1.1110    0.0000 O   0  0  0  0  0  0  0  0  0  0  0  0
    3.7702   -0.8810    0.0000 O   0  0  0  0  0  0  0  0  0  0  0  0
    2.0000   -0.8915    0.0000 O   0  0  0  0  0  0  0  0  0  0  0  0
    7.2622    2.0843    0.0000 C   0  0  0  0  0  0  0  0  0  0  0  0
    6.3961    1.5843    0.0000 C   0  0  3  0  0  0  0  0  0  0  0  0
    6.3961    0.5843    0.0000 C   0  0  0  0  0  0  0  0  0  0  0  0
    6.7622    2.9503    0.0000 C   0  0  0  0  0  0  0  0  0  0  0  0
    7.7622    1.2183    0.0000 C   0  0  0  0  0  0  0  0  0  0  0  0
    5.5301   -0.9157    0.0000 C   0  0  0  0  0  0  0  0  0  0  0  0
    6.3961   -1.4157    0.0000 C   0  0  0  0  0  0  0  0  0  0  0  0
    4.6641   -1.4157    0.0000 C   0  0  0  0  0  0  0  0  0  0  0  0
    6.3961   -2.4157    0.0000 C   0  0  0  0  0  0  0  0  0  0  0  0
    4.6641   -2.4157    0.0000 C   0  0  0  0  0  0  0  0  0  0  0  0
    5.5301   -2.9157    0.0000 C   0  0  0  0  0  0  0  0  0  0  0  0
    7.3424   -2.7204    0.0000 C   0  0  0  0  0  0  0  0  0  0  0  0
    3.7702   -2.9503    0.0000 C   0  0  0  0  0  0  0  0  0  0  0  0
    7.9260   -1.9157    0.0000 C   0  0  0  0  0  0  0  0  0  0  0  0
    2.8641   -2.4365    0.0000 C   0  0  0  0  0  0  0  0  0  0  0  0
    2.8641   -1.3949    0.0000 C   0  0  0  0  0  0  0  0  0  0  0  0
    5.8592    1.2743    0.0000 H   0  0  0  0  0  0  0  0  0  0  0  0
    6.6082    0.0017    0.0000 H   0  0  0  0  0  0  0  0  0  0  0  0
    7.0067    0.6920    0.0000 H   0  0  0  0  0  0  0  0  0  0  0  0
    7.2991    3.2603    0.0000 H   0  0  0  0  0  0  0  0  0  0  0  0
    6.4522    3.4873    0.0000 H   0  0  0  0  0  0  0  0  0  0  0  0
    6.2252    2.6403    0.0000 H   0  0  0  0  0  0  0  0  0  0  0  0
    7.2252    0.9083    0.0000 H   0  0  0  0  0  0  0  0  0  0  0  0
    8.0722    0.6814    0.0000 H   0  0  0  0  0  0  0  0  0  0  0  0
    8.2991    1.5283    0.0000 H   0  0  0  0  0  0  0  0  0  0  0  0
    5.5301   -3.5357    0.0000 H   0  0  0  0  0  0  0  0  0  0  0  0
    5.5301    2.7043    0.0000 H   0  0  0  0  0  0  0  0  0  0  0  0
    7.5350   -3.3097    0.0000 H   0  0  0  0  0  0  0  0  0  0  0  0
    3.7773   -3.5703    0.0000 H   0  0  0  0  0  0  0  0  0  0  0  0
    8.5460   -1.9157    0.0000 H   0  0  0  0  0  0  0  0  0  0  0  0
    2.3284   -2.7486    0.0000 H   0  0  0  0  0  0  0  0  0  0  0  0
  1  7  1  0  0  0  0
  2  9  1  0  0  0  0
  2 12  1  0  0  0  0
  3  8  1  0  0  0  0
  3 33  1  0  0  0  0
  4 13  1  0  0  0  0
  4 20  1  0  0  0  0
  5 14  1  0  0  0  0
  5 22  1  0  0  0  0
  6 22  2  0  0  0  0
  7  8  1  0  0  0  0
  7 10  1  0  0  0  0
  7 11  1  0  0  0  0
  8  9  1  0  0  0  0
  8 23  1  0  0  0  0
  9 24  1  0  0  0  0
  9 25  1  0  0  0  0
 10 26  1  0  0  0  0
 10 27  1  0  0  0  0
 10 28  1  0  0  0  0
 11 29  1  0  0  0  0
 11 30  1  0  0  0  0
 11 31  1  0  0  0  0
 12 13  1  0  0  0  0
 12 14  2  0  0  0  0
 13 15  2  0  0  0  0
 14 16  1  0  0  0  0
 15 17  1  0  0  0  0
 15 18  1  0  0  0  0
 16 17  2  0  0  0  0
 16 19  1  0  0  0  0
 17 32  1  0  0  0  0
 18 20  2  0  0  0  0
 18 34  1  0  0  0  0
 19 21  2  0  0  0  0
 19 35  1  0  0  0  0
 20 36  1  0  0  0  0
 21 22  1  0  0  0  0
 21 37  1  0  0  0  0
M  END
> <PUBCHEM_COMPOUND_CID>
511359
> <PUBCHEM_COMPOUND_CANONICALIZED>
1
> <PUBCHEM_CACTVS_COMPLEXITY>
464
> <PUBCHEM_CACTVS_HBOND_ACCEPTOR>
5
> <PUBCHEM_CACTVS_HBOND_DONOR>
1
> <PUBCHEM_CACTVS_ROTATABLE_BOND>
4
> <PUBCHEM_CACTVS_SUBSKEYS>
AAADccB4OAAEAAAAAAAAAAAAAAAAASAAAAAwQAAAAAAAAEiB8AAAGgIACAAADBagmAIyDsAABkCIAqjSiAICCAAkIAAIiAFGi8gNNzaENR6Ce2Kl4BULqYeI7PzOIAADCAAIQABAAAYQABCAAAAAAAAAAA==
> <PUBCHEM_IUPAC_OPENEYE_NAME>
9-(3-chloro-2-hydroxy-3-methyl-butoxy)furo[3,2-g]chromen-7-one
> <PUBCHEM_IUPAC_CAS_NAME>
9-(3-chloro-2-hydroxy-3-methylbutoxy)-7-furo[3,2-g][1]benzopyranone
> <PUBCHEM_IUPAC_NAME_MARKUP>
9-(3-chloro-2-hydroxy-3-methylbutoxy)furo[3,2-g]chromen-7-one
> <PUBCHEM_IUPAC_NAME>
9-(3-chloro-2-hydroxy-3-methylbutoxy)furo[3,2-g]chromen-7-one
> <PUBCHEM_IUPAC_SYSTEMATIC_NAME>
9-(3-chloranyl-3-methyl-2-oxidanyl-butoxy)furo[3,2-g]chromen-7-one
> <PUBCHEM_IUPAC_TRADITIONAL_NAME>
9-(3-chloro-2-hydroxy-3-methyl-butoxy)furo[3,2-g]chromen-7-one
> <PUBCHEM_IUPAC_INCHI>
InChI=1S/C16H15ClO5/c1-16(2,17)11(18)8-21-15-13-10(5-6-20-13)7-9-3-4-12(19)22-14(9)15/h3-7,11,18H,8H2,1-2H3
> <PUBCHEM_IUPAC_INCHIKEY>
VNNTVHKCIBWHDR-UHFFFAOYSA-N
> <PUBCHEM_XLOGP3>
2.5
> <PUBCHEM_EXACT_MASS>
322.0608013
> <PUBCHEM_MOLECULAR_FORMULA>
C16H15ClO5
> <PUBCHEM_MOLECULAR_WEIGHT>
322.74
> <PUBCHEM_OPENEYE_CAN_SMILES>
CC(C)(C(COC1=C2C(=CC3=C1OC=C3)C=CC(=O)O2)O)Cl
> <PUBCHEM_OPENEYE_ISO_SMILES>
CC(C)(C(COC1=C2C(=CC3=C1OC=C3)C=CC(=O)O2)O)Cl
> <PUBCHEM_CACTVS_TPSA>
68.9
> <PUBCHEM_MONOISOTOPIC_WEIGHT>
322.0608013
> <PUBCHEM_TOTAL_CHARGE>
0
> <PUBCHEM_HEAVY_ATOM_COUNT>
22
> <PUBCHEM_ATOM_DEF_STEREO_COUNT>
0
> <PUBCHEM_ATOM_UDEF_STEREO_COUNT>
1
> <PUBCHEM_BOND_DEF_STEREO_COUNT>
0
> <PUBCHEM_BOND_UDEF_STEREO_COUNT>
0
> <PUBCHEM_ISOTOPIC_ATOM_COUNT>
0
> <PUBCHEM_COMPONENT_COUNT>
1
> <PUBCHEM_CACTVS_TAUTO_COUNT>
-1
> <PUBCHEM_COORDINATE_TYPE>
1
5
255
> <PUBCHEM_BONDANNOTATIONS>
12  13  8
12  14  8
13  15  8
14  16  8
15  17  8
15  18  8
16  17  8
16  19  8
18  20  8
19  21  8
21  22  8
8  3  3
4  13  8
4  20  8
5  14  8
5  22  8
$$$$
