511348
  -OEChem-10302200282D
101107  0     1  0  0  0  0  0999 V2000
    5.7961   -0.3376    0.0000 O   0  0  0  0  0  0  0  0  0  0  0  0
    9.4849    0.6655    0.0000 O   0  0  0  0  0  0  0  0  0  0  0  0
    6.6699   -1.5605    0.0000 O   0  0  0  0  0  0  0  0  0  0  0  0
    8.6250   -0.5673    0.0000 O   0  0  0  0  0  0  0  0  0  0  0  0
    4.6769    1.1327    0.0000 O   0  0  0  0  0  0  0  0  0  0  0  0
   10.4957    2.2123    0.0000 O   0  0  0  0  0  0  0  0  0  0  0  0
    5.7981   -3.0572    0.0000 O   0  0  0  0  0  0  0  0  0  0  0  0
    6.9229   -0.2468    0.0000 O   0  0  0  0  0  0  0  0  0  0  0  0
    8.4400   -3.6194    0.0000 O   0  0  0  0  0  0  0  0  0  0  0  0
   11.0781    0.9846    0.0000 O   0  0  0  0  0  0  0  0  0  0  0  0
    8.5496    0.0304    0.0000 O   0  0  0  0  0  0  0  0  0  0  0  0
   10.1839   -0.5432    0.0000 N   0  0  0  0  0  0  0  0  0  0  0  0
    2.9322   -1.5033    0.0000 C   0  0  0  0  0  0  0  0  0  0  0  0
    7.4277    2.9739    0.0000 C   0  0  0  0  0  0  0  0  0  0  0  0
    4.0737   -1.0505    0.0000 C   0  0  3  0  0  0  0  0  0  0  0  0
    8.2365    2.0498    0.0000 C   0  0  3  0  0  0  0  0  0  0  0  0
    4.9378   -1.5539    0.0000 C   0  0  3  0  0  0  0  0  0  0  0  0
    8.0515    1.0670    0.0000 C   0  0  3  0  0  0  0  0  0  0  0  0
    4.1522   -3.1172    0.0000 C   0  0  0  0  0  0  0  0  0  0  0  0
    6.3154    1.2840    0.0000 C   0  0  0  0  0  0  0  0  0  0  0  0
    5.1487   -3.0338    0.0000 C   0  0  0  0  0  0  0  0  0  0  0  0
    6.7275    0.3729    0.0000 C   0  0  0  0  0  0  0  0  0  0  0  0
    4.9320    0.1658    0.0000 C   0  0  0  0  0  0  0  0  0  0  0  0
    9.6699    1.6482    0.0000 C   0  0  0  0  0  0  0  0  0  0  0  0
    2.0000   -1.1414    0.0000 C   0  0  0  0  0  0  0  0  0  0  0  0
    2.2999   -2.2780    0.0000 C   0  0  0  0  0  0  0  0  0  0  0  0
    7.4567    3.9734    0.0000 C   0  0  0  0  0  0  0  0  0  0  0  0
    6.4860    3.3104    0.0000 C   0  0  0  0  0  0  0  0  0  0  0  0
    3.2096   -0.5472    0.0000 C   0  0  0  0  0  0  0  0  0  0  0  0
    8.4216    3.0325    0.0000 C   0  0  0  0  0  0  0  0  0  0  0  0
    5.8019   -2.0572    0.0000 C   0  0  0  0  0  0  0  0  0  0  0  0
    7.8665    0.0843    0.0000 C   0  0  0  0  0  0  0  0  0  0  0  0
    7.5340   -2.0639    0.0000 C   0  0  2  0  0  0  0  0  0  0  0  0
    8.4400   -1.5500    0.0000 C   0  0  1  0  0  0  0  0  0  0  0  0
    7.5340   -3.1055    0.0000 C   0  0  0  0  0  0  0  0  0  0  0  0
    9.3340   -2.0847    0.0000 C   0  0  0  0  0  0  0  0  0  0  0  0
    9.3340   -3.0847    0.0000 C   0  0  0  0  0  0  0  0  0  0  0  0
    7.0373   -3.9734    0.0000 C   0  0  0  0  0  0  0  0  0  0  0  0
    6.5340   -3.1094    0.0000 C   0  0  0  0  0  0  0  0  0  0  0  0
   10.2000   -1.5847    0.0000 C   0  0  0  0  0  0  0  0  0  0  0  0
   10.2000   -3.5847    0.0000 C   0  0  0  0  0  0  0  0  0  0  0  0
   11.0660   -2.0847    0.0000 C   0  0  0  0  0  0  0  0  0  0  0  0
   11.0660   -3.0847    0.0000 C   0  0  0  0  0  0  0  0  0  0  0  0
   11.9760   -1.5778    0.0000 C   0  0  0  0  0  0  0  0  0  0  0  0
   11.0820   -0.0154    0.0000 C   0  0  0  0  0  0  0  0  0  0  0  0
    9.2012   -0.7282    0.0000 C   0  0  0  0  0  0  0  0  0  0  0  0
   11.9840   -0.5362    0.0000 C   0  0  0  0  0  0  0  0  0  0  0  0
    8.8700   -1.6717    0.0000 C   0  0  0  0  0  0  0  0  0  0  0  0
   12.8362   -2.0878    0.0000 C   0  0  0  0  0  0  0  0  0  0  0  0
    9.9552   -2.0526    0.0000 C   0  0  0  0  0  0  0  0  0  0  0  0
    7.9983   -1.1818    0.0000 C   0  0  0  0  0  0  0  0  0  0  0  0
    8.5389   -2.6153    0.0000 C   0  0  0  0  0  0  0  0  0  0  0  0
    3.5330   -3.1501    0.0000 H   0  0  0  0  0  0  0  0  0  0  0  0
    4.1944   -3.7357    0.0000 H   0  0  0  0  0  0  0  0  0  0  0  0
    6.0771    1.8564    0.0000 H   0  0  0  0  0  0  0  0  0  0  0  0
    5.7467    1.0371    0.0000 H   0  0  0  0  0  0  0  0  0  0  0  0
    5.2123   -3.6506    0.0000 H   0  0  0  0  0  0  0  0  0  0  0  0
    5.7641   -2.9583    0.0000 H   0  0  0  0  0  0  0  0  0  0  0  0
    6.1677    0.1065    0.0000 H   0  0  0  0  0  0  0  0  0  0  0  0
    7.0047   -0.1817    0.0000 H   0  0  0  0  0  0  0  0  0  0  0  0
    2.2244   -0.5634    0.0000 H   0  0  0  0  0  0  0  0  0  0  0  0
    1.4220   -0.9169    0.0000 H   0  0  0  0  0  0  0  0  0  0  0  0
    1.7756   -1.7193    0.0000 H   0  0  0  0  0  0  0  0  0  0  0  0
    1.8196   -1.8860    0.0000 H   0  0  0  0  0  0  0  0  0  0  0  0
    1.9078   -2.7584    0.0000 H   0  0  0  0  0  0  0  0  0  0  0  0
    2.7802   -2.6701    0.0000 H   0  0  0  0  0  0  0  0  0  0  0  0
    8.0765    3.9555    0.0000 H   0  0  0  0  0  0  0  0  0  0  0  0
    7.4747    4.5932    0.0000 H   0  0  0  0  0  0  0  0  0  0  0  0
    6.8370    3.9914    0.0000 H   0  0  0  0  0  0  0  0  0  0  0  0
    6.6946    3.8942    0.0000 H   0  0  0  0  0  0  0  0  0  0  0  0
    5.9022    3.5190    0.0000 H   0  0  0  0  0  0  0  0  0  0  0  0
    6.2774    2.7265    0.0000 H   0  0  0  0  0  0  0  0  0  0  0  0
    3.5217   -0.0115    0.0000 H   0  0  0  0  0  0  0  0  0  0  0  0
    2.6739   -0.2351    0.0000 H   0  0  0  0  0  0  0  0  0  0  0  0
    2.8976   -1.0829    0.0000 H   0  0  0  0  0  0  0  0  0  0  0  0
    9.0308    2.9178    0.0000 H   0  0  0  0  0  0  0  0  0  0  0  0
    8.5363    3.6418    0.0000 H   0  0  0  0  0  0  0  0  0  0  0  0
    7.8123    3.1472    0.0000 H   0  0  0  0  0  0  0  0  0  0  0  0
    6.9964   -2.3728    0.0000 H   0  0  0  0  0  0  0  0  0  0  0  0
    7.9356   -1.1895    0.0000 H   0  0  0  0  0  0  0  0  0  0  0  0
    6.4992   -3.6655    0.0000 H   0  0  0  0  0  0  0  0  0  0  0  0
    6.7294   -4.5116    0.0000 H   0  0  0  0  0  0  0  0  0  0  0  0
    7.5754   -4.2814    0.0000 H   0  0  0  0  0  0  0  0  0  0  0  0
    6.5316   -2.4894    0.0000 H   0  0  0  0  0  0  0  0  0  0  0  0
    5.9140   -3.1117    0.0000 H   0  0  0  0  0  0  0  0  0  0  0  0
    6.5364   -3.7294    0.0000 H   0  0  0  0  0  0  0  0  0  0  0  0
   10.2000   -4.2047    0.0000 H   0  0  0  0  0  0  0  0  0  0  0  0
   11.6029   -3.3947    0.0000 H   0  0  0  0  0  0  0  0  0  0  0  0
   12.5222   -0.2283    0.0000 H   0  0  0  0  0  0  0  0  0  0  0  0
   12.5200   -2.6211    0.0000 H   0  0  0  0  0  0  0  0  0  0  0  0
   13.3695   -2.4040    0.0000 H   0  0  0  0  0  0  0  0  0  0  0  0
   13.1524   -1.5545    0.0000 H   0  0  0  0  0  0  0  0  0  0  0  0
    9.7498   -2.6376    0.0000 H   0  0  0  0  0  0  0  0  0  0  0  0
   10.5402   -2.2579    0.0000 H   0  0  0  0  0  0  0  0  0  0  0  0
   10.1605   -1.4676    0.0000 H   0  0  0  0  0  0  0  0  0  0  0  0
    8.3020   -0.6413    0.0000 H   0  0  0  0  0  0  0  0  0  0  0  0
    7.4578   -0.8781    0.0000 H   0  0  0  0  0  0  0  0  0  0  0  0
    7.6946   -1.7224    0.0000 H   0  0  0  0  0  0  0  0  0  0  0  0
    7.9538   -2.4100    0.0000 H   0  0  0  0  0  0  0  0  0  0  0  0
    8.3336   -3.2003    0.0000 H   0  0  0  0  0  0  0  0  0  0  0  0
    9.1239   -2.8206    0.0000 H   0  0  0  0  0  0  0  0  0  0  0  0
  1 17  1  0  0  0  0
  1 23  1  0  0  0  0
  2 18  1  0  0  0  0
  2 24  1  0  0  0  0
  3 31  1  0  0  0  0
 33  3  1  6  0  0  0
  4 32  1  0  0  0  0
 34  4  1  6  0  0  0
  5 23  2  0  0  0  0
  6 24  2  0  0  0  0
  7 31  2  0  0  0  0
  8 32  2  0  0  0  0
  9 35  1  0  0  0  0
  9 37  1  0  0  0  0
 10 45  2  0  0  0  0
 11 46  2  0  0  0  0
 12 40  1  0  0  0  0
 12 45  1  0  0  0  0
 12 46  1  0  0  0  0
 13 15  1  0  0  0  0
 13 17  1  0  0  0  0
 13 25  1  0  0  0  0
 13 26  1  0  0  0  0
 14 16  1  0  0  0  0
 14 18  1  0  0  0  0
 14 27  1  0  0  0  0
 14 28  1  0  0  0  0
 15 19  1  0  0  0  0
 15 23  1  0  0  0  0
 15 29  1  0  0  0  0
 16 20  1  0  0  0  0
 16 24  1  0  0  0  0
 16 30  1  0  0  0  0
 17 21  1  0  0  0  0
 17 31  1  0  0  0  0
 18 22  1  0  0  0  0
 18 32  1  0  0  0  0
 19 21  1  0  0  0  0
 19 53  1  0  0  0  0
 19 54  1  0  0  0  0
 20 22  1  0  0  0  0
 20 55  1  0  0  0  0
 20 56  1  0  0  0  0
 21 57  1  0  0  0  0
 21 58  1  0  0  0  0
 22 59  1  0  0  0  0
 22 60  1  0  0  0  0
 25 61  1  0  0  0  0
 25 62  1  0  0  0  0
 25 63  1  0  0  0  0
 26 64  1  0  0  0  0
 26 65  1  0  0  0  0
 26 66  1  0  0  0  0
 27 67  1  0  0  0  0
 27 68  1  0  0  0  0
 27 69  1  0  0  0  0
 28 70  1  0  0  0  0
 28 71  1  0  0  0  0
 28 72  1  0  0  0  0
 29 73  1  0  0  0  0
 29 74  1  0  0  0  0
 29 75  1  0  0  0  0
 30 76  1  0  0  0  0
 30 77  1  0  0  0  0
 30 78  1  0  0  0  0
 33 34  1  0  0  0  0
 33 35  1  0  0  0  0
 33 79  1  0  0  0  0
 34 36  1  0  0  0  0
 34 80  1  0  0  0  0
 35 38  1  0  0  0  0
 35 39  1  0  0  0  0
 36 37  2  0  0  0  0
 36 40  1  0  0  0  0
 37 41  1  0  0  0  0
 38 81  1  0  0  0  0
 38 82  1  0  0  0  0
 38 83  1  0  0  0  0
 39 84  1  0  0  0  0
 39 85  1  0  0  0  0
 39 86  1  0  0  0  0
 40 42  2  0  0  0  0
 41 43  2  0  0  0  0
 41 87  1  0  0  0  0
 42 43  1  0  0  0  0
 42 44  1  0  0  0  0
 43 88  1  0  0  0  0
 44 47  2  0  0  0  0
 44 49  1  0  0  0  0
 45 47  1  0  0  0  0
 46 48  1  0  0  0  0
 47 89  1  0  0  0  0
 48 50  1  0  0  0  0
 48 51  1  0  0  0  0
 48 52  1  0  0  0  0
 49 90  1  0  0  0  0
 49 91  1  0  0  0  0
 49 92  1  0  0  0  0
 50 93  1  0  0  0  0
 50 94  1  0  0  0  0
 50 95  1  0  0  0  0
 51 96  1  0  0  0  0
 51 97  1  0  0  0  0
 51 98  1  0  0  0  0
 52 99  1  0  0  0  0
 52100  1  0  0  0  0
 52101  1  0  0  0  0
M  END
> <PUBCHEM_COMPOUND_CID>
511348
> <PUBCHEM_COMPOUND_CANONICALIZED>
1
> <PUBCHEM_CACTVS_COMPLEXITY>
1720
> <PUBCHEM_CACTVS_HBOND_ACCEPTOR>
11
> <PUBCHEM_CACTVS_HBOND_DONOR>
0
> <PUBCHEM_CACTVS_ROTATABLE_BOND>
7
> <PUBCHEM_CACTVS_SUBSKEYS>
AAADcfB+PAAAAAAAAAAAAAAAAAAAAaNECAA0SJECAAAAAACRAAAAHgAAAAAADlyhmAIyzoMABACIAiXSWAKCCAAhIAAIiAFGTMgNJzLEsZ+GOCjnxDnK6Qf6/vvPoAACAgAKAABAAAQEABQAAYAADAAAAA==
> <PUBCHEM_IUPAC_OPENEYE_NAME>
[(9R,10R)-1-(2,2-dimethylpropanoyl)-4,8,8-trimethyl-2-oxo-9-(4,7,7-trimethyl-3-oxo-2-oxabicyclo[2.2.1]heptane-1-carbonyl)oxy-9,10-dihydropyrano[2,3-h]quinolin-10-yl] 4,7,7-trimethyl-3-oxo-2-oxabicyclo[2.2.1]heptane-1-carboxylate
> <PUBCHEM_IUPAC_CAS_NAME>
4,7,7-trimethyl-3-oxo-2-oxabicyclo[2.2.1]heptane-1-carboxylic acid [(9R,10R)-1-(2,2-dimethyl-1-oxopropyl)-4,8,8-trimethyl-2-oxo-9-[oxo-(4,7,7-trimethyl-3-oxo-2-oxabicyclo[2.2.1]heptan-1-yl)methoxy]-9,10-dihydropyrano[2,3-h]quinolin-10-yl] ester
> <PUBCHEM_IUPAC_NAME_MARKUP>
[(9<I>R</I>,10<I>R</I>)-1-(2,2-dimethylpropanoyl)-4,8,8-trimethyl-2-oxo-9-(4,7,7-trimethyl-3-oxo-2-oxabicyclo[2.2.1]heptane-1-carbonyl)oxy-9,10-dihydropyrano[2,3-h]quinolin-10-yl] 4,7,7-trimethyl-3-oxo-2-oxabicyclo[2.2.1]heptane-1-carboxylate
> <PUBCHEM_IUPAC_NAME>
[(9R,10R)-1-(2,2-dimethylpropanoyl)-4,8,8-trimethyl-2-oxo-9-(4,7,7-trimethyl-3-oxo-2-oxabicyclo[2.2.1]heptane-1-carbonyl)oxy-9,10-dihydropyrano[2,3-h]quinolin-10-yl] 4,7,7-trimethyl-3-oxo-2-oxabicyclo[2.2.1]heptane-1-carboxylate
> <PUBCHEM_IUPAC_SYSTEMATIC_NAME>
[(9R,10R)-1-(2,2-dimethylpropanoyl)-4,8,8-trimethyl-2-oxidanylidene-9-[(4,7,7-trimethyl-3-oxidanylidene-2-oxabicyclo[2.2.1]heptan-1-yl)carbonyloxy]-9,10-dihydropyrano[2,3-h]quinolin-10-yl] 4,7,7-trimethyl-3-oxidanylidene-2-oxabicyclo[2.2.1]heptane-1-carboxylate
> <PUBCHEM_IUPAC_TRADITIONAL_NAME>
3-keto-4,7,7-trimethyl-2-oxabicyclo[2.2.1]heptane-1-carboxylic acid [(9R,10R)-2-keto-9-(3-keto-4,7,7-trimethyl-2-oxabicyclo[2.2.1]heptane-1-carbonyl)oxy-4,8,8-trimethyl-1-pivaloyl-9,10-dihydropyrano[2,3-h]quinolin-10-yl] ester
> <PUBCHEM_IUPAC_INCHI>
InChI=1S/C40H49NO11/c1-20-19-23(42)41(28(43)33(2,3)4)25-21(20)13-14-22-24(25)26(48-31(46)39-17-15-37(11,29(44)51-39)35(39,7)8)27(34(5,6)50-22)49-32(47)40-18-16-38(12,30(45)52-40)36(40,9)10/h13-14,19,26-27H,15-18H2,1-12H3/t26-,27-,37?,38?,39?,40?/m1/s1
> <PUBCHEM_IUPAC_INCHIKEY>
YUQMXLCWLWNZPP-CFOKTJJSSA-N
> <PUBCHEM_XLOGP3_AA>
5.8
> <PUBCHEM_EXACT_MASS>
719.33056138
> <PUBCHEM_MOLECULAR_FORMULA>
C40H49NO11
> <PUBCHEM_MOLECULAR_WEIGHT>
719.8
> <PUBCHEM_OPENEYE_CAN_SMILES>
CC1=CC(=O)N(C2=C1C=CC3=C2C(C(C(O3)(C)C)OC(=O)C45CCC(C4(C)C)(C(=O)O5)C)OC(=O)C67CCC(C6(C)C)(C(=O)O7)C)C(=O)C(C)(C)C
> <PUBCHEM_OPENEYE_ISO_SMILES>
CC1=CC(=O)N(C2=C1C=CC3=C2[C@H]([C@H](C(O3)(C)C)OC(=O)C45CCC(C4(C)C)(C(=O)O5)C)OC(=O)C67CCC(C6(C)C)(C(=O)O7)C)C(=O)C(C)(C)C
> <PUBCHEM_CACTVS_TPSA>
152
> <PUBCHEM_MONOISOTOPIC_WEIGHT>
719.33056138
> <PUBCHEM_TOTAL_CHARGE>
0
> <PUBCHEM_HEAVY_ATOM_COUNT>
52
> <PUBCHEM_ATOM_DEF_STEREO_COUNT>
2
> <PUBCHEM_ATOM_UDEF_STEREO_COUNT>
4
> <PUBCHEM_BOND_DEF_STEREO_COUNT>
0
> <PUBCHEM_BOND_UDEF_STEREO_COUNT>
0
> <PUBCHEM_ISOTOPIC_ATOM_COUNT>
0
> <PUBCHEM_COMPONENT_COUNT>
1
> <PUBCHEM_CACTVS_TAUTO_COUNT>
-1
> <PUBCHEM_COORDINATE_TYPE>
1
5
255
> <PUBCHEM_BONDANNOTATIONS>
12  40  8
12  45  8
15  29  3
16  30  3
17  31  3
18  32  3
33  3  6
36  37  8
36  40  8
37  41  8
34  4  6
40  42  8
41  43  8
42  43  8
42  44  8
44  47  8
45  47  8
$$$$
