511302
  -OEChem-10302200282D
 65 68  0     1  0  0  0  0  0999 V2000
    6.2320   -4.7320    0.0000 I   0  0  0  0  0  0  0  0  0  0  0  0
    7.1962    5.5981    0.0000 I   0  0  0  0  0  0  0  0  0  0  0  0
    3.2320   -3.0000    0.0000 F   0  0  0  0  0  0  0  0  0  0  0  0
    6.2320   -3.0000    0.0000 O   0  0  0  0  0  0  0  0  0  0  0  0
    3.7320    0.5981    0.0000 N   0  0  3  0  0  0  0  0  0  0  0  0
    3.7320    2.5981    0.0000 N   0  0  3  0  0  0  0  0  0  0  0  0
    4.7320   -2.1340    0.0000 N   0  0  0  0  0  0  0  0  0  0  0  0
    3.7320   -0.4019    0.0000 C   0  0  0  0  0  0  0  0  0  0  0  0
    4.7320   -0.4019    0.0000 C   0  0  0  0  0  0  0  0  0  0  0  0
    3.2320   -1.2680    0.0000 C   0  0  0  0  0  0  0  0  0  0  0  0
    2.8660    1.0981    0.0000 C   0  0  0  0  0  0  0  0  0  0  0  0
    2.8660    2.0981    0.0000 C   0  0  2  0  0  0  0  0  0  0  0  0
    4.5981    1.0981    0.0000 C   0  0  0  0  0  0  0  0  0  0  0  0
    4.5981    2.0981    0.0000 C   0  0  0  0  0  0  0  0  0  0  0  0
    5.2320   -1.2680    0.0000 C   0  0  0  0  0  0  0  0  0  0  0  0
    3.7320   -2.1340    0.0000 C   0  0  0  0  0  0  0  0  0  0  0  0
    2.8660    0.0981    0.0000 C   0  0  0  0  0  0  0  0  0  0  0  0
    3.7320    3.5981    0.0000 C   0  0  2  0  0  0  0  0  0  0  0  0
    2.0000    2.5981    0.0000 C   0  0  0  0  0  0  0  0  0  0  0  0
    5.2320   -3.0000    0.0000 C   0  0  0  0  0  0  0  0  0  0  0  0
    4.5981    4.0981    0.0000 C   0  0  0  0  0  0  0  0  0  0  0  0
    2.8660    4.0981    0.0000 C   0  0  0  0  0  0  0  0  0  0  0  0
    4.7320   -3.8660    0.0000 C   0  0  0  0  0  0  0  0  0  0  0  0
    5.4641    3.5981    0.0000 C   0  0  0  0  0  0  0  0  0  0  0  0
    4.5981    5.0981    0.0000 C   0  0  0  0  0  0  0  0  0  0  0  0
    6.3301    4.0981    0.0000 C   0  0  0  0  0  0  0  0  0  0  0  0
    5.4641    5.5981    0.0000 C   0  0  0  0  0  0  0  0  0  0  0  0
    5.2320   -4.7320    0.0000 C   0  0  0  0  0  0  0  0  0  0  0  0
    3.7320   -3.8660    0.0000 C   0  0  0  0  0  0  0  0  0  0  0  0
    6.3301    5.0981    0.0000 C   0  0  0  0  0  0  0  0  0  0  0  0
    4.7320   -5.5981    0.0000 C   0  0  0  0  0  0  0  0  0  0  0  0
    3.2320   -4.7320    0.0000 C   0  0  0  0  0  0  0  0  0  0  0  0
    3.7320   -5.5981    0.0000 C   0  0  0  0  0  0  0  0  0  0  0  0
    5.3147   -0.1899    0.0000 H   0  0  0  0  0  0  0  0  0  0  0  0
    4.6244    0.2087    0.0000 H   0  0  0  0  0  0  0  0  0  0  0  0
    2.7571   -0.8694    0.0000 H   0  0  0  0  0  0  0  0  0  0  0  0
    2.7571   -1.6665    0.0000 H   0  0  0  0  0  0  0  0  0  0  0  0
    2.2554    1.2057    0.0000 H   0  0  0  0  0  0  0  0  0  0  0  0
    2.6540    0.5155    0.0000 H   0  0  0  0  0  0  0  0  0  0  0  0
    2.8660    2.7181    0.0000 H   0  0  0  0  0  0  0  0  0  0  0  0
    4.8101    0.5155    0.0000 H   0  0  0  0  0  0  0  0  0  0  0  0
    5.2087    1.2057    0.0000 H   0  0  0  0  0  0  0  0  0  0  0  0
    5.2087    1.9904    0.0000 H   0  0  0  0  0  0  0  0  0  0  0  0
    4.8101    2.6807    0.0000 H   0  0  0  0  0  0  0  0  0  0  0  0
    5.7070   -1.6665    0.0000 H   0  0  0  0  0  0  0  0  0  0  0  0
    5.7070   -0.8694    0.0000 H   0  0  0  0  0  0  0  0  0  0  0  0
    3.1494   -2.3460    0.0000 H   0  0  0  0  0  0  0  0  0  0  0  0
    3.8397   -2.7446    0.0000 H   0  0  0  0  0  0  0  0  0  0  0  0
    3.1760    0.6350    0.0000 H   0  0  0  0  0  0  0  0  0  0  0  0
    2.3291    0.4081    0.0000 H   0  0  0  0  0  0  0  0  0  0  0  0
    2.5560   -0.4389    0.0000 H   0  0  0  0  0  0  0  0  0  0  0  0
    3.1951    3.2881    0.0000 H   0  0  0  0  0  0  0  0  0  0  0  0
    2.3100    3.1350    0.0000 H   0  0  0  0  0  0  0  0  0  0  0  0
    1.4631    2.9081    0.0000 H   0  0  0  0  0  0  0  0  0  0  0  0
    1.6900    2.0611    0.0000 H   0  0  0  0  0  0  0  0  0  0  0  0
    3.1760    4.6350    0.0000 H   0  0  0  0  0  0  0  0  0  0  0  0
    2.3291    4.4081    0.0000 H   0  0  0  0  0  0  0  0  0  0  0  0
    2.5560    3.5611    0.0000 H   0  0  0  0  0  0  0  0  0  0  0  0
    5.4641    2.9781    0.0000 H   0  0  0  0  0  0  0  0  0  0  0  0
    4.0611    5.4081    0.0000 H   0  0  0  0  0  0  0  0  0  0  0  0
    6.8671    3.7881    0.0000 H   0  0  0  0  0  0  0  0  0  0  0  0
    5.4641    6.2181    0.0000 H   0  0  0  0  0  0  0  0  0  0  0  0
    5.0420   -6.1350    0.0000 H   0  0  0  0  0  0  0  0  0  0  0  0
    2.6120   -4.7320    0.0000 H   0  0  0  0  0  0  0  0  0  0  0  0
    3.4220   -6.1350    0.0000 H   0  0  0  0  0  0  0  0  0  0  0  0
  1 28  1  0  0  0  0
  2 30  1  0  0  0  0
  3 29  1  0  0  0  0
  4 20  2  0  0  0  0
  5  8  1  0  0  0  0
  5 11  1  0  0  0  0
  5 13  1  0  0  0  0
  6 12  1  0  0  0  0
  6 14  1  0  0  0  0
  6 18  1  0  0  0  0
  7 15  1  0  0  0  0
  7 16  1  0  0  0  0
  7 20  1  0  0  0  0
  8  9  1  0  0  0  0
  8 10  1  0  0  0  0
  8 17  1  0  0  0  0
  9 15  1  0  0  0  0
  9 34  1  0  0  0  0
  9 35  1  0  0  0  0
 10 16  1  0  0  0  0
 10 36  1  0  0  0  0
 10 37  1  0  0  0  0
 11 12  1  0  0  0  0
 11 38  1  0  0  0  0
 11 39  1  0  0  0  0
 12 19  1  6  0  0  0
 12 40  1  0  0  0  0
 13 14  1  0  0  0  0
 13 41  1  0  0  0  0
 13 42  1  0  0  0  0
 14 43  1  0  0  0  0
 14 44  1  0  0  0  0
 15 45  1  0  0  0  0
 15 46  1  0  0  0  0
 16 47  1  0  0  0  0
 16 48  1  0  0  0  0
 17 49  1  0  0  0  0
 17 50  1  0  0  0  0
 17 51  1  0  0  0  0
 18 21  1  0  0  0  0
 18 22  1  1  0  0  0
 18 52  1  0  0  0  0
 19 53  1  0  0  0  0
 19 54  1  0  0  0  0
 19 55  1  0  0  0  0
 20 23  1  0  0  0  0
 21 24  2  0  0  0  0
 21 25  1  0  0  0  0
 22 56  1  0  0  0  0
 22 57  1  0  0  0  0
 22 58  1  0  0  0  0
 23 28  1  0  0  0  0
 23 29  2  0  0  0  0
 24 26  1  0  0  0  0
 24 59  1  0  0  0  0
 25 27  2  0  0  0  0
 25 60  1  0  0  0  0
 26 30  2  0  0  0  0
 26 61  1  0  0  0  0
 27 30  1  0  0  0  0
 27 62  1  0  0  0  0
 28 31  2  0  0  0  0
 29 32  1  0  0  0  0
 31 33  1  0  0  0  0
 31 63  1  0  0  0  0
 32 33  2  0  0  0  0
 32 64  1  0  0  0  0
 33 65  1  0  0  0  0
M  END
> <PUBCHEM_COMPOUND_CID>
511302
> <PUBCHEM_COMPOUND_CANONICALIZED>
1
> <PUBCHEM_CACTVS_COMPLEXITY>
666
> <PUBCHEM_CACTVS_HBOND_ACCEPTOR>
4
> <PUBCHEM_CACTVS_HBOND_DONOR>
0
> <PUBCHEM_CACTVS_ROTATABLE_BOND>
4
> <PUBCHEM_CACTVS_SUBSKEYS>
AAADcfB7IQAAAwAAAAAAAAAAAAAAAAAAAAA8eIEAAAAAAAABQAAAHwAgAAAADKjDmAwyAIMAAACIAiFSEACCAAAkAAAIiAEIBMgIYDKA1RGUIQhghgCIiQcYiICOAAAAAAAAAAAAAAAAAAAAAAAAAAAAAA==
> <PUBCHEM_IUPAC_OPENEYE_NAME>
(2-fluoro-6-iodo-phenyl)-[4-[(3S)-4-[(1S)-1-(4-iodophenyl)ethyl]-3-methyl-piperazin-1-yl]-4-methyl-1-piperidyl]methanone
> <PUBCHEM_IUPAC_CAS_NAME>
(2-fluoro-6-iodophenyl)-[4-[(3S)-4-[(1S)-1-(4-iodophenyl)ethyl]-3-methyl-1-piperazinyl]-4-methyl-1-piperidinyl]methanone
> <PUBCHEM_IUPAC_NAME_MARKUP>
(2-fluoro-6-iodophenyl)-[4-[(3<I>S</I>)-4-[(1<I>S</I>)-1-(4-iodophenyl)ethyl]-3-methylpiperazin-1-yl]-4-methylpiperidin-1-yl]methanone
> <PUBCHEM_IUPAC_NAME>
(2-fluoro-6-iodophenyl)-[4-[(3S)-4-[(1S)-1-(4-iodophenyl)ethyl]-3-methylpiperazin-1-yl]-4-methylpiperidin-1-yl]methanone
> <PUBCHEM_IUPAC_SYSTEMATIC_NAME>
(2-fluoranyl-6-iodanyl-phenyl)-[4-[(3S)-4-[(1S)-1-(4-iodophenyl)ethyl]-3-methyl-piperazin-1-yl]-4-methyl-piperidin-1-yl]methanone
> <PUBCHEM_IUPAC_TRADITIONAL_NAME>
(2-fluoro-6-iodo-phenyl)-[4-[(3S)-4-[(1S)-1-(4-iodophenyl)ethyl]-3-methyl-piperazino]-4-methyl-piperidino]methanone
> <PUBCHEM_IUPAC_INCHI>
InChI=1S/C26H32FI2N3O/c1-18-17-31(15-16-32(18)19(2)20-7-9-21(28)10-8-20)26(3)11-13-30(14-12-26)25(33)24-22(27)5-4-6-23(24)29/h4-10,18-19H,11-17H2,1-3H3/t18-,19-/m0/s1
> <PUBCHEM_IUPAC_INCHIKEY>
ROCSMTFHIDSLFI-OALUTQOASA-N
> <PUBCHEM_XLOGP3_AA>
5.7
> <PUBCHEM_EXACT_MASS>
675.06189
> <PUBCHEM_MOLECULAR_FORMULA>
C26H32FI2N3O
> <PUBCHEM_MOLECULAR_WEIGHT>
675.4
> <PUBCHEM_OPENEYE_CAN_SMILES>
CC1CN(CCN1C(C)C2=CC=C(C=C2)I)C3(CCN(CC3)C(=O)C4=C(C=CC=C4I)F)C
> <PUBCHEM_OPENEYE_ISO_SMILES>
C[C@H]1CN(CCN1[C@@H](C)C2=CC=C(C=C2)I)C3(CCN(CC3)C(=O)C4=C(C=CC=C4I)F)C
> <PUBCHEM_CACTVS_TPSA>
26.8
> <PUBCHEM_MONOISOTOPIC_WEIGHT>
675.06189
> <PUBCHEM_TOTAL_CHARGE>
0
> <PUBCHEM_HEAVY_ATOM_COUNT>
33
> <PUBCHEM_ATOM_DEF_STEREO_COUNT>
2
> <PUBCHEM_ATOM_UDEF_STEREO_COUNT>
0
> <PUBCHEM_BOND_DEF_STEREO_COUNT>
0
> <PUBCHEM_BOND_UDEF_STEREO_COUNT>
0
> <PUBCHEM_ISOTOPIC_ATOM_COUNT>
0
> <PUBCHEM_COMPONENT_COUNT>
1
> <PUBCHEM_CACTVS_TAUTO_COUNT>
-1
> <PUBCHEM_COORDINATE_TYPE>
1
5
255
> <PUBCHEM_BONDANNOTATIONS>
12  19  6
18  22  5
21  24  8
21  25  8
23  28  8
23  29  8
24  26  8
25  27  8
26  30  8
27  30  8
28  31  8
29  32  8
31  33  8
32  33  8
$$$$
