511352
  -OEChem-10302200282D
 51 54  0     1  0  0  0  0  0999 V2000
    7.5729   -0.4910    0.0000 O   0  0  0  0  0  0  0  0  0  0  0  0
    4.4967    1.2530    0.0000 O   0  0  0  0  0  0  0  0  0  0  0  0
    4.5245   -2.2830    0.0000 O   0  0  0  0  0  0  0  0  0  0  0  0
    6.0283   -3.1432    0.0000 O   0  0  0  0  0  0  0  0  0  0  0  0
    2.9863   -3.1590    0.0000 O   0  0  0  0  0  0  0  0  0  0  0  0
    7.5798   -2.2911    0.0000 C   0  0  1  0  0  0  0  0  0  0  0  0
    8.1006   -1.3890    0.0000 C   0  0  2  0  0  0  0  0  0  0  0  0
    6.0314   -1.3730    0.0000 C   0  0  0  0  0  0  0  0  0  0  0  0
    6.5314   -0.5070    0.0000 C   0  0  0  0  0  0  0  0  0  0  0  0
    4.5314   -0.5070    0.0000 C   0  0  0  0  0  0  0  0  0  0  0  0
    6.0314    0.3590    0.0000 C   0  0  0  0  0  0  0  0  0  0  0  0
    5.0314    0.3590    0.0000 C   0  0  0  0  0  0  0  0  0  0  0  0
    5.0314   -1.3730    0.0000 C   0  0  0  0  0  0  0  0  0  0  0  0
    6.5382   -2.2830    0.0000 C   0  0  0  0  0  0  0  0  0  0  0  0
    5.0106    2.1590    0.0000 C   0  0  0  0  0  0  0  0  0  0  0  0
    3.4899   -0.4910    0.0000 C   0  0  0  0  0  0  0  0  0  0  0  0
    2.9999    0.3808    0.0000 C   0  0  0  0  0  0  0  0  0  0  0  0
    6.5660    1.2530    0.0000 C   0  0  0  0  0  0  0  0  0  0  0  0
    8.0765   -3.1590    0.0000 C   0  0  0  0  0  0  0  0  0  0  0  0
    6.0522    2.1590    0.0000 C   0  0  0  0  0  0  0  0  0  0  0  0
    9.1006   -1.3851    0.0000 C   0  0  0  0  0  0  0  0  0  0  0  0
    5.0067    3.1590    0.0000 C   0  0  0  0  0  0  0  0  0  0  0  0
    4.1426    2.6557    0.0000 C   0  0  0  0  0  0  0  0  0  0  0  0
    2.9621   -1.3890    0.0000 C   0  0  0  0  0  0  0  0  0  0  0  0
    2.0000    0.3924    0.0000 C   0  0  0  0  0  0  0  0  0  0  0  0
    3.5099    1.2410    0.0000 C   0  0  0  0  0  0  0  0  0  0  0  0
    3.4830   -2.2911    0.0000 C   0  0  0  0  0  0  0  0  0  0  0  0
    8.1998   -2.2923    0.0000 H   0  0  0  0  0  0  0  0  0  0  0  0
    8.4075   -0.8503    0.0000 H   0  0  0  0  0  0  0  0  0  0  0  0
    3.6199    0.3736    0.0000 H   0  0  0  0  0  0  0  0  0  0  0  0
    7.1860    1.2458    0.0000 H   0  0  0  0  0  0  0  0  0  0  0  0
    7.5384   -3.4669    0.0000 H   0  0  0  0  0  0  0  0  0  0  0  0
    8.3844   -3.6971    0.0000 H   0  0  0  0  0  0  0  0  0  0  0  0
    8.6146   -2.8511    0.0000 H   0  0  0  0  0  0  0  0  0  0  0  0
    6.3643    2.6948    0.0000 H   0  0  0  0  0  0  0  0  0  0  0  0
    9.1030   -2.0051    0.0000 H   0  0  0  0  0  0  0  0  0  0  0  0
    9.7206   -1.3828    0.0000 H   0  0  0  0  0  0  0  0  0  0  0  0
    9.0983   -0.7651    0.0000 H   0  0  0  0  0  0  0  0  0  0  0  0
    5.6267    3.1614    0.0000 H   0  0  0  0  0  0  0  0  0  0  0  0
    5.0043    3.7790    0.0000 H   0  0  0  0  0  0  0  0  0  0  0  0
    4.3867    3.1566    0.0000 H   0  0  0  0  0  0  0  0  0  0  0  0
    4.4506    3.1938    0.0000 H   0  0  0  0  0  0  0  0  0  0  0  0
    3.6045    2.9636    0.0000 H   0  0  0  0  0  0  0  0  0  0  0  0
    3.8347    2.1176    0.0000 H   0  0  0  0  0  0  0  0  0  0  0  0
    2.3421   -1.3866    0.0000 H   0  0  0  0  0  0  0  0  0  0  0  0
    2.0072    1.0123    0.0000 H   0  0  0  0  0  0  0  0  0  0  0  0
    1.3800    0.3995    0.0000 H   0  0  0  0  0  0  0  0  0  0  0  0
    1.9928   -0.2276    0.0000 H   0  0  0  0  0  0  0  0  0  0  0  0
    4.0432    0.9248    0.0000 H   0  0  0  0  0  0  0  0  0  0  0  0
    3.8261    1.7743    0.0000 H   0  0  0  0  0  0  0  0  0  0  0  0
    2.9766    1.5572    0.0000 H   0  0  0  0  0  0  0  0  0  0  0  0
  1  7  1  0  0  0  0
  1  9  1  0  0  0  0
  2 12  1  0  0  0  0
  2 15  1  0  0  0  0
  3 13  1  0  0  0  0
  3 27  1  0  0  0  0
  4 14  2  0  0  0  0
  5 27  2  0  0  0  0
  6  7  1  0  0  0  0
  6 14  1  0  0  0  0
  6 19  1  6  0  0  0
  6 28  1  0  0  0  0
  7 21  1  1  0  0  0
  7 29  1  0  0  0  0
  8  9  2  0  0  0  0
  8 13  1  0  0  0  0
  8 14  1  0  0  0  0
  9 11  1  0  0  0  0
 10 12  1  0  0  0  0
 10 13  2  0  0  0  0
 10 16  1  0  0  0  0
 11 12  2  0  0  0  0
 11 18  1  0  0  0  0
 15 20  1  0  0  0  0
 15 22  1  0  0  0  0
 15 23  1  0  0  0  0
 16 17  1  0  0  0  0
 16 24  2  0  0  0  0
 17 25  1  0  0  0  0
 17 26  1  0  0  0  0
 17 30  1  0  0  0  0
 18 20  2  0  0  0  0
 18 31  1  0  0  0  0
 19 32  1  0  0  0  0
 19 33  1  0  0  0  0
 19 34  1  0  0  0  0
 20 35  1  0  0  0  0
 21 36  1  0  0  0  0
 21 37  1  0  0  0  0
 21 38  1  0  0  0  0
 22 39  1  0  0  0  0
 22 40  1  0  0  0  0
 22 41  1  0  0  0  0
 23 42  1  0  0  0  0
 23 43  1  0  0  0  0
 23 44  1  0  0  0  0
 24 27  1  0  0  0  0
 24 45  1  0  0  0  0
 25 46  1  0  0  0  0
 25 47  1  0  0  0  0
 25 48  1  0  0  0  0
 26 49  1  0  0  0  0
 26 50  1  0  0  0  0
 26 51  1  0  0  0  0
M  END
> <PUBCHEM_COMPOUND_CID>
511352
> <PUBCHEM_COMPOUND_CANONICALIZED>
1
> <PUBCHEM_CACTVS_COMPLEXITY>
718
> <PUBCHEM_CACTVS_HBOND_ACCEPTOR>
5
> <PUBCHEM_CACTVS_HBOND_DONOR>
0
> <PUBCHEM_CACTVS_ROTATABLE_BOND>
1
> <PUBCHEM_CACTVS_SUBSKEYS>
AAADceB4OAAAAAAAAAAAAAAAAAAAAAAAAAA0QIEAAAAAAACRAAAAGgAAAAAADVSgmAICDoAABACIAqDSCAACCAAkIAAIiAEECMgMJzaENRqCO2Cl4BUIqQeI7OzOIAACCAAIAABAAAQQABAAAAAAAAAAAA==
> <PUBCHEM_IUPAC_OPENEYE_NAME>
(16S,17S)-6-isopropyl-10,10,16,17-tetramethyl-3,9,15-trioxatetracyclo[12.4.0.02,7.08,13]octadeca-1(14),2(7),5,8(13),11-pentaene-4,18-dione
> <PUBCHEM_IUPAC_CAS_NAME>
(16S,17S)-10,10,16,17-tetramethyl-6-propan-2-yl-3,9,15-trioxatetracyclo[12.4.0.02,7.08,13]octadeca-1(14),2(7),5,8(13),11-pentaene-4,18-dione
> <PUBCHEM_IUPAC_NAME_MARKUP>
(16<I>S</I>,17<I>S</I>)-10,10,16,17-tetramethyl-6-propan-2-yl-3,9,15-trioxatetracyclo[12.4.0.0<SUP>2,7</SUP>.0<SUP>8,13</SUP>]octadeca-1(14),2(7),5,8(13),11-pentaene-4,18-dione
> <PUBCHEM_IUPAC_NAME>
(16S,17S)-10,10,16,17-tetramethyl-6-propan-2-yl-3,9,15-trioxatetracyclo[12.4.0.02,7.08,13]octadeca-1(14),2(7),5,8(13),11-pentaene-4,18-dione
> <PUBCHEM_IUPAC_SYSTEMATIC_NAME>
(16S,17S)-10,10,16,17-tetramethyl-6-propan-2-yl-3,9,15-trioxatetracyclo[12.4.0.02,7.08,13]octadeca-1(14),2(7),5,8(13),11-pentaene-4,18-dione
> <PUBCHEM_IUPAC_TRADITIONAL_NAME>
(16S,17S)-6-isopropyl-10,10,16,17-tetramethyl-3,9,15-trioxatetracyclo[12.4.0.02,7.08,13]octadeca-1(14),2(7),5,8(13),11-pentaene-4,18-quinone
> <PUBCHEM_IUPAC_INCHI>
InChI=1S/C22H24O5/c1-10(2)14-9-15(23)26-21-16(14)20-13(7-8-22(5,6)27-20)19-17(21)18(24)11(3)12(4)25-19/h7-12H,1-6H3/t11-,12-/m0/s1
> <PUBCHEM_IUPAC_INCHIKEY>
BDJLBVAAHNASQV-RYUDHWBXSA-N
> <PUBCHEM_XLOGP3_AA>
4
> <PUBCHEM_EXACT_MASS>
368.16237386
> <PUBCHEM_MOLECULAR_FORMULA>
C22H24O5
> <PUBCHEM_MOLECULAR_WEIGHT>
368.4
> <PUBCHEM_OPENEYE_CAN_SMILES>
CC1C(OC2=C(C1=O)C3=C(C(=CC(=O)O3)C(C)C)C4=C2C=CC(O4)(C)C)C
> <PUBCHEM_OPENEYE_ISO_SMILES>
C[C@H]1[C@@H](OC2=C(C1=O)C3=C(C(=CC(=O)O3)C(C)C)C4=C2C=CC(O4)(C)C)C
> <PUBCHEM_CACTVS_TPSA>
61.8
> <PUBCHEM_MONOISOTOPIC_WEIGHT>
368.16237386
> <PUBCHEM_TOTAL_CHARGE>
0
> <PUBCHEM_HEAVY_ATOM_COUNT>
27
> <PUBCHEM_ATOM_DEF_STEREO_COUNT>
2
> <PUBCHEM_ATOM_UDEF_STEREO_COUNT>
0
> <PUBCHEM_BOND_DEF_STEREO_COUNT>
0
> <PUBCHEM_BOND_UDEF_STEREO_COUNT>
0
> <PUBCHEM_ISOTOPIC_ATOM_COUNT>
0
> <PUBCHEM_COMPONENT_COUNT>
1
> <PUBCHEM_CACTVS_TAUTO_COUNT>
-1
> <PUBCHEM_COORDINATE_TYPE>
1
5
255
> <PUBCHEM_BONDANNOTATIONS>
10  12  8
10  13  8
10  16  8
11  12  8
16  24  8
24  27  8
3  13  8
3  27  8
6  19  6
7  21  5
8  13  8
8  9  8
9  11  8
$$$$
