511351
  -OEChem-10302200282D
 55 58  0     1  0  0  0  0  0999 V2000
    6.0283   -2.8809    0.0000 O   0  0  0  0  0  0  0  0  0  0  0  0
    4.4967    1.5153    0.0000 O   0  0  0  0  0  0  0  0  0  0  0  0
    4.5245   -2.0207    0.0000 O   0  0  0  0  0  0  0  0  0  0  0  0
    2.9863   -2.8967    0.0000 O   0  0  0  0  0  0  0  0  0  0  0  0
    7.5798   -2.0287    0.0000 C   0  0  1  0  0  0  0  0  0  0  0  0
    8.1006   -1.1266    0.0000 C   0  0  1  0  0  0  0  0  0  0  0  0
    6.5382   -2.0207    0.0000 C   0  0  1  0  0  0  0  0  0  0  0  0
    7.5729   -0.2286    0.0000 C   0  0  0  0  0  0  0  0  0  0  0  0
    6.5314   -0.2447    0.0000 C   0  0  0  0  0  0  0  0  0  0  0  0
    6.0314   -1.1107    0.0000 C   0  0  0  0  0  0  0  0  0  0  0  0
    6.0314    0.6214    0.0000 C   0  0  0  0  0  0  0  0  0  0  0  0
    5.0314   -1.1107    0.0000 C   0  0  0  0  0  0  0  0  0  0  0  0
    8.0765   -2.8967    0.0000 C   0  0  0  0  0  0  0  0  0  0  0  0
    9.1006   -1.1228    0.0000 C   0  0  0  0  0  0  0  0  0  0  0  0
    4.5314   -0.2447    0.0000 C   0  0  0  0  0  0  0  0  0  0  0  0
    5.0314    0.6214    0.0000 C   0  0  0  0  0  0  0  0  0  0  0  0
    5.0106    2.4214    0.0000 C   0  0  0  0  0  0  0  0  0  0  0  0
    3.4899   -0.2286    0.0000 C   0  0  0  0  0  0  0  0  0  0  0  0
    6.5660    1.5153    0.0000 C   0  0  0  0  0  0  0  0  0  0  0  0
    6.0522    2.4214    0.0000 C   0  0  0  0  0  0  0  0  0  0  0  0
    2.9999    0.6431    0.0000 C   0  0  0  0  0  0  0  0  0  0  0  0
    2.9621   -1.1266    0.0000 C   0  0  0  0  0  0  0  0  0  0  0  0
    5.0067    3.4214    0.0000 C   0  0  0  0  0  0  0  0  0  0  0  0
    4.1426    2.9180    0.0000 C   0  0  0  0  0  0  0  0  0  0  0  0
    3.4830   -2.0287    0.0000 C   0  0  0  0  0  0  0  0  0  0  0  0
    2.0000    0.6547    0.0000 C   0  0  0  0  0  0  0  0  0  0  0  0
    3.5099    1.5033    0.0000 C   0  0  0  0  0  0  0  0  0  0  0  0
    8.1998   -2.0299    0.0000 H   0  0  0  0  0  0  0  0  0  0  0  0
    8.4117   -1.6630    0.0000 H   0  0  0  0  0  0  0  0  0  0  0  0
    6.8430   -2.5606    0.0000 H   0  0  0  0  0  0  0  0  0  0  0  0
    8.1533   -0.0106    0.0000 H   0  0  0  0  0  0  0  0  0  0  0  0
    7.4574    0.3805    0.0000 H   0  0  0  0  0  0  0  0  0  0  0  0
    7.5384   -3.2046    0.0000 H   0  0  0  0  0  0  0  0  0  0  0  0
    8.3844   -3.4348    0.0000 H   0  0  0  0  0  0  0  0  0  0  0  0
    8.6146   -2.5887    0.0000 H   0  0  0  0  0  0  0  0  0  0  0  0
    9.1030   -1.7428    0.0000 H   0  0  0  0  0  0  0  0  0  0  0  0
    9.7206   -1.1204    0.0000 H   0  0  0  0  0  0  0  0  0  0  0  0
    9.0983   -0.5028    0.0000 H   0  0  0  0  0  0  0  0  0  0  0  0
    7.1860    1.5081    0.0000 H   0  0  0  0  0  0  0  0  0  0  0  0
    6.3320   -3.4214    0.0000 H   0  0  0  0  0  0  0  0  0  0  0  0
    6.3643    2.9571    0.0000 H   0  0  0  0  0  0  0  0  0  0  0  0
    3.6199    0.6360    0.0000 H   0  0  0  0  0  0  0  0  0  0  0  0
    2.3421   -1.1242    0.0000 H   0  0  0  0  0  0  0  0  0  0  0  0
    5.6267    3.4238    0.0000 H   0  0  0  0  0  0  0  0  0  0  0  0
    5.0043    4.0414    0.0000 H   0  0  0  0  0  0  0  0  0  0  0  0
    4.3867    3.4190    0.0000 H   0  0  0  0  0  0  0  0  0  0  0  0
    4.4506    3.4562    0.0000 H   0  0  0  0  0  0  0  0  0  0  0  0
    3.6045    3.2260    0.0000 H   0  0  0  0  0  0  0  0  0  0  0  0
    3.8347    2.3799    0.0000 H   0  0  0  0  0  0  0  0  0  0  0  0
    2.0072    1.2747    0.0000 H   0  0  0  0  0  0  0  0  0  0  0  0
    1.3800    0.6619    0.0000 H   0  0  0  0  0  0  0  0  0  0  0  0
    1.9928    0.0347    0.0000 H   0  0  0  0  0  0  0  0  0  0  0  0
    4.0432    1.1871    0.0000 H   0  0  0  0  0  0  0  0  0  0  0  0
    3.8261    2.0366    0.0000 H   0  0  0  0  0  0  0  0  0  0  0  0
    2.9766    1.8195    0.0000 H   0  0  0  0  0  0  0  0  0  0  0  0
  7  1  1  6  0  0  0
  1 40  1  0  0  0  0
  2 16  1  0  0  0  0
  2 17  1  0  0  0  0
  3 12  1  0  0  0  0
  3 25  1  0  0  0  0
  4 25  2  0  0  0  0
  5  6  1  0  0  0  0
  5  7  1  0  0  0  0
  5 13  1  6  0  0  0
  5 28  1  0  0  0  0
  6  8  1  0  0  0  0
  6 14  1  1  0  0  0
  6 29  1  0  0  0  0
  7 10  1  0  0  0  0
  7 30  1  0  0  0  0
  8  9  1  0  0  0  0
  8 31  1  0  0  0  0
  8 32  1  0  0  0  0
  9 10  1  0  0  0  0
  9 11  2  0  0  0  0
 10 12  2  0  0  0  0
 11 16  1  0  0  0  0
 11 19  1  0  0  0  0
 12 15  1  0  0  0  0
 13 33  1  0  0  0  0
 13 34  1  0  0  0  0
 13 35  1  0  0  0  0
 14 36  1  0  0  0  0
 14 37  1  0  0  0  0
 14 38  1  0  0  0  0
 15 16  2  0  0  0  0
 15 18  1  0  0  0  0
 17 20  1  0  0  0  0
 17 23  1  0  0  0  0
 17 24  1  0  0  0  0
 18 21  1  0  0  0  0
 18 22  2  0  0  0  0
 19 20  2  0  0  0  0
 19 39  1  0  0  0  0
 20 41  1  0  0  0  0
 21 26  1  0  0  0  0
 21 27  1  0  0  0  0
 21 42  1  0  0  0  0
 22 25  1  0  0  0  0
 22 43  1  0  0  0  0
 23 44  1  0  0  0  0
 23 45  1  0  0  0  0
 23 46  1  0  0  0  0
 24 47  1  0  0  0  0
 24 48  1  0  0  0  0
 24 49  1  0  0  0  0
 26 50  1  0  0  0  0
 26 51  1  0  0  0  0
 26 52  1  0  0  0  0
 27 53  1  0  0  0  0
 27 54  1  0  0  0  0
 27 55  1  0  0  0  0
M  END
> <PUBCHEM_COMPOUND_CID>
511351
> <PUBCHEM_COMPOUND_CANONICALIZED>
1
> <PUBCHEM_CACTVS_COMPLEXITY>
676
> <PUBCHEM_CACTVS_HBOND_ACCEPTOR>
4
> <PUBCHEM_CACTVS_HBOND_DONOR>
1
> <PUBCHEM_CACTVS_ROTATABLE_BOND>
1
> <PUBCHEM_CACTVS_SUBSKEYS>
AAADceB4OAAAAAAAAAAAAAAAAAAAAAAAAAAwYIEAAAAAAADBAAAAGgAACAAADVSgmAICDoAABgCIAiDSCAACCAAgIAAIiAAECMgMNyKEMRqCeiClwBUIuQeA4PwO4AADCAAYAADAAAYQADAAAAAAAAAAAA==
> <PUBCHEM_IUPAC_OPENEYE_NAME>
(16R,17S,18S)-18-hydroxy-6-isopropyl-10,10,16,17-tetramethyl-3,9-dioxatetracyclo[12.4.0.02,7.08,13]octadeca-1,5,7,11,13-pentaen-4-one
> <PUBCHEM_IUPAC_CAS_NAME>
(16R,17S,18S)-18-hydroxy-10,10,16,17-tetramethyl-6-propan-2-yl-3,9-dioxatetracyclo[12.4.0.02,7.08,13]octadeca-1,5,7,11,13-pentaen-4-one
> <PUBCHEM_IUPAC_NAME_MARKUP>
(16<I>R</I>,17<I>S</I>,18<I>S</I>)-18-hydroxy-10,10,16,17-tetramethyl-6-propan-2-yl-3,9-dioxatetracyclo[12.4.0.0<SUP>2,7</SUP>.0<SUP>8,13</SUP>]octadeca-1,5,7,11,13-pentaen-4-one
> <PUBCHEM_IUPAC_NAME>
(16R,17S,18S)-18-hydroxy-10,10,16,17-tetramethyl-6-propan-2-yl-3,9-dioxatetracyclo[12.4.0.02,7.08,13]octadeca-1,5,7,11,13-pentaen-4-one
> <PUBCHEM_IUPAC_SYSTEMATIC_NAME>
(16R,17S,18S)-10,10,16,17-tetramethyl-18-oxidanyl-6-propan-2-yl-3,9-dioxatetracyclo[12.4.0.02,7.08,13]octadeca-1,5,7,11,13-pentaen-4-one
> <PUBCHEM_IUPAC_TRADITIONAL_NAME>
(16R,17S,18S)-18-hydroxy-6-isopropyl-10,10,16,17-tetramethyl-3,9-dioxatetracyclo[12.4.0.02,7.08,13]octadeca-1,5,7,11,13-pentaen-4-one
> <PUBCHEM_IUPAC_INCHI>
InChI=1S/C23H28O4/c1-11(2)15-10-17(24)26-22-18-16(9-12(3)13(4)20(18)25)14-7-8-23(5,6)27-21(14)19(15)22/h7-8,10-13,20,25H,9H2,1-6H3/t12-,13+,20+/m1/s1
> <PUBCHEM_IUPAC_INCHIKEY>
NFTWIFXCCDKVEO-UVARLRKDSA-N
> <PUBCHEM_XLOGP3_AA>
4.3
> <PUBCHEM_EXACT_MASS>
368.19875937
> <PUBCHEM_MOLECULAR_FORMULA>
C23H28O4
> <PUBCHEM_MOLECULAR_WEIGHT>
368.5
> <PUBCHEM_OPENEYE_CAN_SMILES>
CC1CC2=C3C=CC(OC3=C4C(=CC(=O)OC4=C2C(C1C)O)C(C)C)(C)C
> <PUBCHEM_OPENEYE_ISO_SMILES>
C[C@@H]1CC2=C3C=CC(OC3=C4C(=CC(=O)OC4=C2[C@H]([C@H]1C)O)C(C)C)(C)C
> <PUBCHEM_CACTVS_TPSA>
55.8
> <PUBCHEM_MONOISOTOPIC_WEIGHT>
368.19875937
> <PUBCHEM_TOTAL_CHARGE>
0
> <PUBCHEM_HEAVY_ATOM_COUNT>
27
> <PUBCHEM_ATOM_DEF_STEREO_COUNT>
3
> <PUBCHEM_ATOM_UDEF_STEREO_COUNT>
0
> <PUBCHEM_BOND_DEF_STEREO_COUNT>
0
> <PUBCHEM_BOND_UDEF_STEREO_COUNT>
0
> <PUBCHEM_ISOTOPIC_ATOM_COUNT>
0
> <PUBCHEM_COMPONENT_COUNT>
1
> <PUBCHEM_CACTVS_TAUTO_COUNT>
-1
> <PUBCHEM_COORDINATE_TYPE>
1
5
255
> <PUBCHEM_BONDANNOTATIONS>
7  1  6
10  12  8
11  16  8
12  15  8
15  16  8
15  18  8
18  22  8
22  25  8
3  12  8
3  25  8
5  13  6
6  14  5
9  10  8
9  11  8
$$$$
