511377
  -OEChem-10302200282D
 34 36  0     1  0  0  0  0  0999 V2000
    7.7014    0.7284    0.0000 O   0  0  0  0  0  0  0  0  0  0  0  0
    6.4340    2.9843    0.0000 O   0  0  0  0  0  0  0  0  0  0  0  0
    9.4201    1.9150    0.0000 O   0  0  0  0  0  0  0  0  0  0  0  0
    4.9335    0.7504    0.0000 O   0  0  0  0  0  0  0  0  0  0  0  0
    4.9544   -3.4464    0.0000 O   0  0  0  0  0  0  0  0  0  0  0  0
    6.4455   -0.5358    0.0000 N   0  0  0  0  0  0  0  0  0  0  0  0
    6.4535   -2.1452    0.0000 N   0  0  0  0  0  0  0  0  0  0  0  0
    3.7420   -0.4530    0.0000 N   0  0  0  0  0  0  0  0  0  0  0  0
    3.7510   -2.2550    0.0000 N   0  0  0  0  0  0  0  0  0  0  0  0
    2.3127   -1.3612    0.0000 N   0  0  0  0  0  0  0  0  0  0  0  0
    6.7514    0.4163    0.0000 C   0  0  1  0  0  0  0  0  0  0  0  0
    6.7461    2.0343    0.0000 C   0  0  1  0  0  0  0  0  0  0  0  0
    6.1610    1.2234    0.0000 C   0  0  0  0  0  0  0  0  0  0  0  0
    7.6982    1.7284    0.0000 C   0  0  1  0  0  0  0  0  0  0  0  0
    8.5053    2.3188    0.0000 C   0  0  0  0  0  0  0  0  0  0  0  0
    5.5008   -0.8452    0.0000 C   0  0  0  0  0  0  0  0  0  0  0  0
    7.0331   -1.3376    0.0000 C   0  0  0  0  0  0  0  0  0  0  0  0
    5.5058   -1.8452    0.0000 C   0  0  0  0  0  0  0  0  0  0  0  0
    4.7158   -0.2257    0.0000 C   0  0  0  0  0  0  0  0  0  0  0  0
    4.7271   -2.4726    0.0000 C   0  0  0  0  0  0  0  0  0  0  0  0
    3.3127   -1.3562    0.0000 C   0  0  0  0  0  0  0  0  0  0  0  0
    7.1912   -0.0207    0.0000 H   0  0  0  0  0  0  0  0  0  0  0  0
    7.1831    2.4741    0.0000 H   0  0  0  0  0  0  0  0  0  0  0  0
    5.6989    1.6367    0.0000 H   0  0  0  0  0  0  0  0  0  0  0  0
    5.7016    0.8070    0.0000 H   0  0  0  0  0  0  0  0  0  0  0  0
    8.2515    1.4487    0.0000 H   0  0  0  0  0  0  0  0  0  0  0  0
    8.8503    2.8339    0.0000 H   0  0  0  0  0  0  0  0  0  0  0  0
    8.0579    2.7480    0.0000 H   0  0  0  0  0  0  0  0  0  0  0  0
    7.6531   -1.3345    0.0000 H   0  0  0  0  0  0  0  0  0  0  0  0
    6.8474    3.4464    0.0000 H   0  0  0  0  0  0  0  0  0  0  0  0
    9.9205    2.2811    0.0000 H   0  0  0  0  0  0  0  0  0  0  0  0
    3.3531    0.0298    0.0000 H   0  0  0  0  0  0  0  0  0  0  0  0
    2.0054   -1.8996    0.0000 H   0  0  0  0  0  0  0  0  0  0  0  0
    2.0000   -0.8258    0.0000 H   0  0  0  0  0  0  0  0  0  0  0  0
  1 11  1  0  0  0  0
  1 14  1  0  0  0  0
 12  2  1  6  0  0  0
  2 30  1  0  0  0  0
  3 15  1  0  0  0  0
  3 31  1  0  0  0  0
  4 19  2  0  0  0  0
  5 20  2  0  0  0  0
 11  6  1  1  0  0  0
  6 16  1  0  0  0  0
  6 17  1  0  0  0  0
  7 17  2  0  0  0  0
  7 18  1  0  0  0  0
  8 19  1  0  0  0  0
  8 21  1  0  0  0  0
  8 32  1  0  0  0  0
  9 20  1  0  0  0  0
  9 21  2  0  0  0  0
 10 21  1  0  0  0  0
 10 33  1  0  0  0  0
 10 34  1  0  0  0  0
 11 13  1  0  0  0  0
 11 22  1  0  0  0  0
 12 13  1  0  0  0  0
 12 14  1  0  0  0  0
 12 23  1  0  0  0  0
 13 24  1  0  0  0  0
 13 25  1  0  0  0  0
 14 15  1  1  0  0  0
 14 26  1  0  0  0  0
 15 27  1  0  0  0  0
 15 28  1  0  0  0  0
 16 18  2  0  0  0  0
 16 19  1  0  0  0  0
 17 29  1  0  0  0  0
 18 20  1  0  0  0  0
M  END
> <PUBCHEM_COMPOUND_CID>
511377
> <PUBCHEM_COMPOUND_CANONICALIZED>
1
> <PUBCHEM_CACTVS_COMPLEXITY>
497
> <PUBCHEM_CACTVS_HBOND_ACCEPTOR>
6
> <PUBCHEM_CACTVS_HBOND_DONOR>
4
> <PUBCHEM_CACTVS_ROTATABLE_BOND>
2
> <PUBCHEM_CACTVS_SUBSKEYS>
AAADccBzuAAAAAAAAAAAAAAAAAAAAWJAAAAAAAAABAAAAACBgAAAHgAQCAAACBzhlgYFkBfMFgCoAQVxdACAgC0XEKABWAGoVECBWBpAyCAeQYhPAQLDAWC1MAIAAAAAAAAAAAAAAAAAAAAAAAAAAAAAAA==
> <PUBCHEM_IUPAC_OPENEYE_NAME>
6-amino-1-[(2R,4S,5R)-4-hydroxy-5-(hydroxymethyl)tetrahydrofuran-2-yl]-7H-imidazo[4,5-e][1,3]diazepine-4,8-dione
> <PUBCHEM_IUPAC_CAS_NAME>
6-amino-1-[(2R,4S,5R)-4-hydroxy-5-(hydroxymethyl)-2-oxolanyl]-7H-imidazo[4,5-e][1,3]diazepine-4,8-dione
> <PUBCHEM_IUPAC_NAME_MARKUP>
6-amino-1-[(2<I>R</I>,4<I>S</I>,5<I>R</I>)-4-hydroxy-5-(hydroxymethyl)oxolan-2-yl]-7<I>H</I>-imidazo[4,5-e][1,3]diazepine-4,8-dione
> <PUBCHEM_IUPAC_NAME>
6-amino-1-[(2R,4S,5R)-4-hydroxy-5-(hydroxymethyl)oxolan-2-yl]-7H-imidazo[4,5-e][1,3]diazepine-4,8-dione
> <PUBCHEM_IUPAC_SYSTEMATIC_NAME>
6-azanyl-1-[(2R,4S,5R)-5-(hydroxymethyl)-4-oxidanyl-oxolan-2-yl]-7H-imidazo[4,5-e][1,3]diazepine-4,8-dione
> <PUBCHEM_IUPAC_TRADITIONAL_NAME>
6-amino-1-[(2R,4S,5R)-4-hydroxy-5-methylol-tetrahydrofuran-2-yl]-7H-imidazo[4,5-e][1,3]diazepine-4,8-quinone
> <PUBCHEM_IUPAC_INCHI>
InChI=1S/C11H13N5O5/c12-11-14-9(19)7-8(10(20)15-11)16(3-13-7)6-1-4(18)5(2-17)21-6/h3-6,17-18H,1-2H2,(H3,12,14,15,19,20)/t4-,5+,6+/m0/s1
> <PUBCHEM_IUPAC_INCHIKEY>
AUZLZZFIVRITMV-KVQBGUIXSA-N
> <PUBCHEM_XLOGP3>
-1.4
> <PUBCHEM_EXACT_MASS>
295.09166853
> <PUBCHEM_MOLECULAR_FORMULA>
C11H13N5O5
> <PUBCHEM_MOLECULAR_WEIGHT>
295.25
> <PUBCHEM_OPENEYE_CAN_SMILES>
C1C(C(OC1N2C=NC3=C2C(=O)NC(=NC3=O)N)CO)O
> <PUBCHEM_OPENEYE_ISO_SMILES>
C1[C@@H]([C@H](O[C@H]1N2C=NC3=C2C(=O)NC(=NC3=O)N)CO)O
> <PUBCHEM_CACTVS_TPSA>
152
> <PUBCHEM_MONOISOTOPIC_WEIGHT>
295.09166853
> <PUBCHEM_TOTAL_CHARGE>
0
> <PUBCHEM_HEAVY_ATOM_COUNT>
21
> <PUBCHEM_ATOM_DEF_STEREO_COUNT>
3
> <PUBCHEM_ATOM_UDEF_STEREO_COUNT>
0
> <PUBCHEM_BOND_DEF_STEREO_COUNT>
0
> <PUBCHEM_BOND_UDEF_STEREO_COUNT>
0
> <PUBCHEM_ISOTOPIC_ATOM_COUNT>
0
> <PUBCHEM_COMPONENT_COUNT>
1
> <PUBCHEM_CACTVS_TAUTO_COUNT>
-1
> <PUBCHEM_COORDINATE_TYPE>
1
5
255
> <PUBCHEM_BONDANNOTATIONS>
14  15  5
16  18  8
16  19  8
18  20  8
12  2  6
11  6  5
6  16  8
6  17  8
7  17  8
7  18  8
8  19  8
8  21  8
9  20  8
9  21  8
$$$$
