511362
  -OEChem-10302200282D
 48 50  0     1  0  0  0  0  0999 V2000
    8.9282   -1.0000    0.0000 Br  0  0  0  0  0  0  0  0  0  0  0  0
    2.0000   -4.0000    0.0000 Cl  0  0  0  0  0  0  0  0  0  0  0  0
    3.7320    2.0000    0.0000 O   0  0  0  0  0  0  0  0  0  0  0  0
    2.8660   -0.5000    0.0000 O   0  0  0  0  0  0  0  0  0  0  0  0
    2.8660    0.5000    0.0000 O   0  0  0  0  0  0  0  0  0  0  0  0
    4.5981   -0.5000    0.0000 N   0  0  0  0  0  0  0  0  0  0  0  0
    4.5981    0.5000    0.0000 C   0  0  1  0  0  0  0  0  0  0  0  0
    5.4641    1.0000    0.0000 C   0  0  0  0  0  0  0  0  0  0  0  0
    5.4641   -1.0000    0.0000 C   0  0  0  0  0  0  0  0  0  0  0  0
    5.4641    2.0000    0.0000 C   0  0  0  0  0  0  0  0  0  0  0  0
    3.7320   -1.0000    0.0000 C   0  0  0  0  0  0  0  0  0  0  0  0
    6.3301   -0.5000    0.0000 C   0  0  0  0  0  0  0  0  0  0  0  0
    3.7320    1.0000    0.0000 C   0  0  0  0  0  0  0  0  0  0  0  0
    3.7320   -2.0000    0.0000 C   0  0  0  0  0  0  0  0  0  0  0  0
    4.5981    2.5000    0.0000 C   0  0  0  0  0  0  0  0  0  0  0  0
    6.3301    2.5000    0.0000 C   0  0  0  0  0  0  0  0  0  0  0  0
    7.1962   -1.0000    0.0000 C   0  0  0  0  0  0  0  0  0  0  0  0
    6.3301    0.5000    0.0000 C   0  0  0  0  0  0  0  0  0  0  0  0
    4.5981    3.5000    0.0000 C   0  0  0  0  0  0  0  0  0  0  0  0
    6.3301    3.5000    0.0000 C   0  0  0  0  0  0  0  0  0  0  0  0
    2.8660   -2.5000    0.0000 C   0  0  0  0  0  0  0  0  0  0  0  0
    4.5981   -2.5000    0.0000 C   0  0  0  0  0  0  0  0  0  0  0  0
    8.0622   -0.5000    0.0000 C   0  0  0  0  0  0  0  0  0  0  0  0
    7.1962    1.0000    0.0000 C   0  0  0  0  0  0  0  0  0  0  0  0
    5.4641    4.0000    0.0000 C   0  0  0  0  0  0  0  0  0  0  0  0
    8.0622    0.5000    0.0000 C   0  0  0  0  0  0  0  0  0  0  0  0
    2.8660   -3.5000    0.0000 C   0  0  0  0  0  0  0  0  0  0  0  0
    4.5981   -3.5000    0.0000 C   0  0  0  0  0  0  0  0  0  0  0  0
    3.7320   -4.0000    0.0000 C   0  0  0  0  0  0  0  0  0  0  0  0
    5.1350    0.1900    0.0000 H   0  0  0  0  0  0  0  0  0  0  0  0
    5.6762    0.4174    0.0000 H   0  0  0  0  0  0  0  0  0  0  0  0
    6.0747    1.1077    0.0000 H   0  0  0  0  0  0  0  0  0  0  0  0
    5.0656   -1.4750    0.0000 H   0  0  0  0  0  0  0  0  0  0  0  0
    5.8626   -1.4750    0.0000 H   0  0  0  0  0  0  0  0  0  0  0  0
    4.0611    2.1900    0.0000 H   0  0  0  0  0  0  0  0  0  0  0  0
    6.8671    2.1900    0.0000 H   0  0  0  0  0  0  0  0  0  0  0  0
    7.1962   -1.6200    0.0000 H   0  0  0  0  0  0  0  0  0  0  0  0
    5.7932    0.8100    0.0000 H   0  0  0  0  0  0  0  0  0  0  0  0
    4.0611    3.8100    0.0000 H   0  0  0  0  0  0  0  0  0  0  0  0
    6.8671    3.8100    0.0000 H   0  0  0  0  0  0  0  0  0  0  0  0
    2.3291   -2.1900    0.0000 H   0  0  0  0  0  0  0  0  0  0  0  0
    5.1350   -2.1900    0.0000 H   0  0  0  0  0  0  0  0  0  0  0  0
    7.1962    1.6200    0.0000 H   0  0  0  0  0  0  0  0  0  0  0  0
    5.4641    4.6200    0.0000 H   0  0  0  0  0  0  0  0  0  0  0  0
    3.1951    2.3100    0.0000 H   0  0  0  0  0  0  0  0  0  0  0  0
    8.5991    0.8100    0.0000 H   0  0  0  0  0  0  0  0  0  0  0  0
    5.1350   -3.8100    0.0000 H   0  0  0  0  0  0  0  0  0  0  0  0
    3.7320   -4.6200    0.0000 H   0  0  0  0  0  0  0  0  0  0  0  0
  1 23  1  0  0  0  0
  2 27  1  0  0  0  0
  3 13  1  0  0  0  0
  3 45  1  0  0  0  0
  4 11  2  0  0  0  0
  5 13  2  0  0  0  0
  7  6  1  6  0  0  0
  6  9  1  0  0  0  0
  6 11  1  0  0  0  0
  7  8  1  0  0  0  0
  7 13  1  0  0  0  0
  7 30  1  0  0  0  0
  8 10  1  0  0  0  0
  8 31  1  0  0  0  0
  8 32  1  0  0  0  0
  9 12  1  0  0  0  0
  9 33  1  0  0  0  0
  9 34  1  0  0  0  0
 10 15  2  0  0  0  0
 10 16  1  0  0  0  0
 11 14  1  0  0  0  0
 12 17  2  0  0  0  0
 12 18  1  0  0  0  0
 14 21  2  0  0  0  0
 14 22  1  0  0  0  0
 15 19  1  0  0  0  0
 15 35  1  0  0  0  0
 16 20  2  0  0  0  0
 16 36  1  0  0  0  0
 17 23  1  0  0  0  0
 17 37  1  0  0  0  0
 18 24  2  0  0  0  0
 18 38  1  0  0  0  0
 19 25  2  0  0  0  0
 19 39  1  0  0  0  0
 20 25  1  0  0  0  0
 20 40  1  0  0  0  0
 21 27  1  0  0  0  0
 21 41  1  0  0  0  0
 22 28  2  0  0  0  0
 22 42  1  0  0  0  0
 23 26  2  0  0  0  0
 24 26  1  0  0  0  0
 24 43  1  0  0  0  0
 25 44  1  0  0  0  0
 26 46  1  0  0  0  0
 27 29  2  0  0  0  0
 28 29  1  0  0  0  0
 28 47  1  0  0  0  0
 29 48  1  0  0  0  0
M  END
> <PUBCHEM_COMPOUND_CID>
511362
> <PUBCHEM_COMPOUND_CANONICALIZED>
1
> <PUBCHEM_CACTVS_COMPLEXITY>
554
> <PUBCHEM_CACTVS_HBOND_ACCEPTOR>
3
> <PUBCHEM_CACTVS_HBOND_DONOR>
1
> <PUBCHEM_CACTVS_ROTATABLE_BOND>
7
> <PUBCHEM_CACTVS_SUBSKEYS>
AAADceB6MAAEEAAAAAAAAAAAAAAAAAAAAAAwYMAAAAAAAAABUAAAHgJACAABrCrBmCQwCIMAAgCIAiHSGACCAAAkBQQIiAGIBugKIDKBlzGEYQhkhgCYi5eYyKCOAAAAMAAAAAAAAABgAAAAAAAAAAAAAA==
> <PUBCHEM_IUPAC_OPENEYE_NAME>
(2S)-2-[(3-bromophenyl)methyl-(3-chlorobenzoyl)amino]-3-phenyl-propanoic acid
> <PUBCHEM_IUPAC_CAS_NAME>
(2S)-2-[(3-bromophenyl)methyl-[(3-chlorophenyl)-oxomethyl]amino]-3-phenylpropanoic acid
> <PUBCHEM_IUPAC_NAME_MARKUP>
(2<I>S</I>)-2-[(3-bromophenyl)methyl-(3-chlorobenzoyl)amino]-3-phenylpropanoic acid
> <PUBCHEM_IUPAC_NAME>
(2S)-2-[(3-bromophenyl)methyl-(3-chlorobenzoyl)amino]-3-phenylpropanoic acid
> <PUBCHEM_IUPAC_SYSTEMATIC_NAME>
(2S)-2-[(3-bromophenyl)methyl-(3-chlorophenyl)carbonyl-amino]-3-phenyl-propanoic acid
> <PUBCHEM_IUPAC_TRADITIONAL_NAME>
(2S)-2-[(3-bromobenzyl)-(3-chlorobenzoyl)amino]-3-phenyl-propionic acid
> <PUBCHEM_IUPAC_INCHI>
InChI=1S/C23H19BrClNO3/c24-19-10-4-8-17(12-19)15-26(22(27)18-9-5-11-20(25)14-18)21(23(28)29)13-16-6-2-1-3-7-16/h1-12,14,21H,13,15H2,(H,28,29)/t21-/m0/s1
> <PUBCHEM_IUPAC_INCHIKEY>
CSIZJRJOWXGEKB-NRFANRHFSA-N
> <PUBCHEM_XLOGP3_AA>
5.8
> <PUBCHEM_EXACT_MASS>
471.02368
> <PUBCHEM_MOLECULAR_FORMULA>
C23H19BrClNO3
> <PUBCHEM_MOLECULAR_WEIGHT>
472.8
> <PUBCHEM_OPENEYE_CAN_SMILES>
C1=CC=C(C=C1)CC(C(=O)O)N(CC2=CC(=CC=C2)Br)C(=O)C3=CC(=CC=C3)Cl
> <PUBCHEM_OPENEYE_ISO_SMILES>
C1=CC=C(C=C1)C[C@@H](C(=O)O)N(CC2=CC(=CC=C2)Br)C(=O)C3=CC(=CC=C3)Cl
> <PUBCHEM_CACTVS_TPSA>
57.6
> <PUBCHEM_MONOISOTOPIC_WEIGHT>
471.02368
> <PUBCHEM_TOTAL_CHARGE>
0
> <PUBCHEM_HEAVY_ATOM_COUNT>
29
> <PUBCHEM_ATOM_DEF_STEREO_COUNT>
1
> <PUBCHEM_ATOM_UDEF_STEREO_COUNT>
0
> <PUBCHEM_BOND_DEF_STEREO_COUNT>
0
> <PUBCHEM_BOND_UDEF_STEREO_COUNT>
0
> <PUBCHEM_ISOTOPIC_ATOM_COUNT>
0
> <PUBCHEM_COMPONENT_COUNT>
1
> <PUBCHEM_CACTVS_TAUTO_COUNT>
-1
> <PUBCHEM_COORDINATE_TYPE>
1
5
255
> <PUBCHEM_BONDANNOTATIONS>
10  15  8
10  16  8
12  17  8
12  18  8
14  21  8
14  22  8
15  19  8
16  20  8
17  23  8
18  24  8
19  25  8
20  25  8
21  27  8
22  28  8
23  26  8
24  26  8
27  29  8
28  29  8
7  6  6
$$$$
