511386
  -OEChem-10302200282D
 13 12  0     1  0  0  0  0  0999 V2000
    4.2690    1.2500    0.0000 Cl  0  0  0  0  0  0  0  0  0  0  0  0
    3.4030   -0.2500    0.0000 P   0  0  0  0  0  0  0  0  0  0  0  0
    2.5369   -0.7500    0.0000 O   0  0  0  0  0  0  0  0  0  0  0  0
    2.9030    0.6160    0.0000 O   0  0  0  0  0  0  0  0  0  0  0  0
    3.9030   -1.1160    0.0000 O   0  0  0  0  0  0  0  0  0  0  0  0
    6.0010    0.2500    0.0000 O   0  0  0  0  0  0  0  0  0  0  0  0
    5.1350   -1.2500    0.0000 O   0  0  0  0  0  0  0  0  0  0  0  0
    4.2690    0.2500    0.0000 C   0  0  3  0  0  0  0  0  0  0  0  0
    5.1350   -0.2500    0.0000 C   0  0  0  0  0  0  0  0  0  0  0  0
    4.8059    0.5600    0.0000 H   0  0  0  0  0  0  0  0  0  0  0  0
    2.0000   -0.4400    0.0000 H   0  0  0  0  0  0  0  0  0  0  0  0
    2.2830    0.6160    0.0000 H   0  0  0  0  0  0  0  0  0  0  0  0
    6.5380   -0.0600    0.0000 H   0  0  0  0  0  0  0  0  0  0  0  0
  1  8  1  0  0  0  0
  2  3  1  0  0  0  0
  2  4  1  0  0  0  0
  2  5  2  0  0  0  0
  2  8  1  0  0  0  0
  3 11  1  0  0  0  0
  4 12  1  0  0  0  0
  6  9  1  0  0  0  0
  6 13  1  0  0  0  0
  7  9  2  0  0  0  0
  8  9  1  0  0  0  0
  8 10  1  0  0  0  0
M  END
> <PUBCHEM_COMPOUND_CID>
511386
> <PUBCHEM_COMPOUND_CANONICALIZED>
1
> <PUBCHEM_CACTVS_COMPLEXITY>
160
> <PUBCHEM_CACTVS_HBOND_ACCEPTOR>
5
> <PUBCHEM_CACTVS_HBOND_DONOR>
3
> <PUBCHEM_CACTVS_ROTATABLE_BOND>
2
> <PUBCHEM_CACTVS_SUBSKEYS>
AAADcYBAOAIEAAAAAAAAAAAAAAAAAAAAAAAAAAAAAAAAAAAAAAAAGgoACCAAAAOIgEAACAAAAhAIQACQCIAAAAAAAAAAAAAAAQBAAAAAAAAAAAAAAAAAAAAAAAAAAAAAAAAAAAAAAAAAAAAAAAAAAAAAAA==
> <PUBCHEM_IUPAC_OPENEYE_NAME>
2-chloro-2-phosphono-acetic acid
> <PUBCHEM_IUPAC_CAS_NAME>
2-chloro-2-phosphonoacetic acid
> <PUBCHEM_IUPAC_NAME_MARKUP>
2-chloro-2-phosphonoacetic acid
> <PUBCHEM_IUPAC_NAME>
2-chloro-2-phosphonoacetic acid
> <PUBCHEM_IUPAC_SYSTEMATIC_NAME>
2-chloranyl-2-phosphono-ethanoic acid
> <PUBCHEM_IUPAC_TRADITIONAL_NAME>
2-chloro-2-phosphono-acetic acid
> <PUBCHEM_IUPAC_INCHI>
InChI=1S/C2H4ClO5P/c3-1(2(4)5)9(6,7)8/h1H,(H,4,5)(H2,6,7,8)
> <PUBCHEM_IUPAC_INCHIKEY>
PMGINNPAPWFWMT-UHFFFAOYSA-N
> <PUBCHEM_XLOGP3_AA>
-1.3
> <PUBCHEM_EXACT_MASS>
173.9484879
> <PUBCHEM_MOLECULAR_FORMULA>
C2H4ClO5P
> <PUBCHEM_MOLECULAR_WEIGHT>
174.48
> <PUBCHEM_OPENEYE_CAN_SMILES>
C(C(=O)O)(P(=O)(O)O)Cl
> <PUBCHEM_OPENEYE_ISO_SMILES>
C(C(=O)O)(P(=O)(O)O)Cl
> <PUBCHEM_CACTVS_TPSA>
94.8
> <PUBCHEM_MONOISOTOPIC_WEIGHT>
173.9484879
> <PUBCHEM_TOTAL_CHARGE>
0
> <PUBCHEM_HEAVY_ATOM_COUNT>
9
> <PUBCHEM_ATOM_DEF_STEREO_COUNT>
0
> <PUBCHEM_ATOM_UDEF_STEREO_COUNT>
1
> <PUBCHEM_BOND_DEF_STEREO_COUNT>
0
> <PUBCHEM_BOND_UDEF_STEREO_COUNT>
0
> <PUBCHEM_ISOTOPIC_ATOM_COUNT>
0
> <PUBCHEM_COMPONENT_COUNT>
1
> <PUBCHEM_CACTVS_TAUTO_COUNT>
-1
> <PUBCHEM_COORDINATE_TYPE>
1
5
255
> <PUBCHEM_BONDANNOTATIONS>
8  1  3
$$$$
