511439
  -OEChem-10302200282D
 44 46  0     1  0  0  0  0  0999 V2000
    7.0468    0.4806    0.0000 O   0  0  0  0  0  0  0  0  0  0  0  0
    5.3147    1.4806    0.0000 O   0  0  0  0  0  0  0  0  0  0  0  0
    9.6448   -3.0194    0.0000 O   0  5  0  0  0  0  0  0  0  0  0  0
    7.9128   -3.0194    0.0000 O   0  0  0  0  0  0  0  0  0  0  0  0
    8.7788    1.4806    0.0000 N   0  0  0  0  0  0  0  0  0  0  0  0
    3.5827    0.4806    0.0000 N   0  0  0  0  0  0  0  0  0  0  0  0
    8.7788   -2.5194    0.0000 N   0  3  0  0  0  0  0  0  0  0  0  0
    2.6691    0.0738    0.0000 N   0  0  0  0  0  0  0  0  0  0  0  0
    9.2788    3.0194    0.0000 C   0  0  0  0  0  0  0  0  0  0  0  0
    8.2788    3.0194    0.0000 C   0  0  0  0  0  0  0  0  0  0  0  0
    9.5878    2.0684    0.0000 C   0  0  0  0  0  0  0  0  0  0  0  0
    7.9698    2.0684    0.0000 C   0  0  0  0  0  0  0  0  0  0  0  0
    8.7788    0.4806    0.0000 C   0  0  0  0  0  0  0  0  0  0  0  0
    7.9128   -0.0194    0.0000 C   0  0  0  0  0  0  0  0  0  0  0  0
    9.6448   -0.0194    0.0000 C   0  0  0  0  0  0  0  0  0  0  0  0
    5.3147    0.4806    0.0000 C   0  0  3  0  0  0  0  0  0  0  0  0
    6.1808   -0.0194    0.0000 C   0  0  0  0  0  0  0  0  0  0  0  0
    7.9128   -1.0194    0.0000 C   0  0  0  0  0  0  0  0  0  0  0  0
    9.6448   -1.0194    0.0000 C   0  0  0  0  0  0  0  0  0  0  0  0
    4.4487   -0.0194    0.0000 C   0  0  0  0  0  0  0  0  0  0  0  0
    8.7788   -1.5194    0.0000 C   0  0  0  0  0  0  0  0  0  0  0  0
    3.4782    1.4751    0.0000 C   0  0  0  0  0  0  0  0  0  0  0  0
    2.5000    1.6830    0.0000 C   0  0  0  0  0  0  0  0  0  0  0  0
    2.0000    0.8170    0.0000 C   0  0  0  0  0  0  0  0  0  0  0  0
    9.8853    3.1483    0.0000 H   0  0  0  0  0  0  0  0  0  0  0  0
    9.2140    3.6360    0.0000 H   0  0  0  0  0  0  0  0  0  0  0  0
    8.3436    3.6360    0.0000 H   0  0  0  0  0  0  0  0  0  0  0  0
    7.6724    3.1483    0.0000 H   0  0  0  0  0  0  0  0  0  0  0  0
    9.8978    1.5314    0.0000 H   0  0  0  0  0  0  0  0  0  0  0  0
   10.1542    2.3205    0.0000 H   0  0  0  0  0  0  0  0  0  0  0  0
    7.4034    2.3205    0.0000 H   0  0  0  0  0  0  0  0  0  0  0  0
    7.6598    1.5314    0.0000 H   0  0  0  0  0  0  0  0  0  0  0  0
   10.1818    0.2906    0.0000 H   0  0  0  0  0  0  0  0  0  0  0  0
    5.8517    0.7906    0.0000 H   0  0  0  0  0  0  0  0  0  0  0  0
    5.7822   -0.4944    0.0000 H   0  0  0  0  0  0  0  0  0  0  0  0
    6.5793   -0.4944    0.0000 H   0  0  0  0  0  0  0  0  0  0  0  0
    7.3759   -1.3294    0.0000 H   0  0  0  0  0  0  0  0  0  0  0  0
    4.0502   -0.4944    0.0000 H   0  0  0  0  0  0  0  0  0  0  0  0
    4.8472   -0.4944    0.0000 H   0  0  0  0  0  0  0  0  0  0  0  0
   10.1818   -1.3294    0.0000 H   0  0  0  0  0  0  0  0  0  0  0  0
    5.8517    1.7906    0.0000 H   0  0  0  0  0  0  0  0  0  0  0  0
    3.9389    1.8900    0.0000 H   0  0  0  0  0  0  0  0  0  0  0  0
    2.2478    2.2494    0.0000 H   0  0  0  0  0  0  0  0  0  0  0  0
    1.3834    0.7522    0.0000 H   0  0  0  0  0  0  0  0  0  0  0  0
  1 14  1  0  0  0  0
  1 17  1  0  0  0  0
  2 16  1  0  0  0  0
  2 41  1  0  0  0  0
  3  7  1  0  0  0  0
  4  7  2  0  0  0  0
  5 11  1  0  0  0  0
  5 12  1  0  0  0  0
  5 13  1  0  0  0  0
  6  8  1  0  0  0  0
  6 20  1  0  0  0  0
  6 22  1  0  0  0  0
  7 21  1  0  0  0  0
  8 24  2  0  0  0  0
  9 10  1  0  0  0  0
  9 11  1  0  0  0  0
  9 25  1  0  0  0  0
  9 26  1  0  0  0  0
 10 12  1  0  0  0  0
 10 27  1  0  0  0  0
 10 28  1  0  0  0  0
 11 29  1  0  0  0  0
 11 30  1  0  0  0  0
 12 31  1  0  0  0  0
 12 32  1  0  0  0  0
 13 14  2  0  0  0  0
 13 15  1  0  0  0  0
 14 18  1  0  0  0  0
 15 19  2  0  0  0  0
 15 33  1  0  0  0  0
 16 17  1  0  0  0  0
 16 20  1  0  0  0  0
 16 34  1  0  0  0  0
 17 35  1  0  0  0  0
 17 36  1  0  0  0  0
 18 21  2  0  0  0  0
 18 37  1  0  0  0  0
 19 21  1  0  0  0  0
 19 40  1  0  0  0  0
 20 38  1  0  0  0  0
 20 39  1  0  0  0  0
 22 23  2  0  0  0  0
 22 42  1  0  0  0  0
 23 24  1  0  0  0  0
 23 43  1  0  0  0  0
 24 44  1  0  0  0  0
M  CHG  2   3  -1   7   1
M  END
> <PUBCHEM_COMPOUND_CID>
511439
> <PUBCHEM_COMPOUND_CANONICALIZED>
1
> <PUBCHEM_CACTVS_COMPLEXITY>
413
> <PUBCHEM_CACTVS_HBOND_ACCEPTOR>
6
> <PUBCHEM_CACTVS_HBOND_DONOR>
1
> <PUBCHEM_CACTVS_ROTATABLE_BOND>
6
> <PUBCHEM_CACTVS_SUBSKEYS>
AAADceB7uAAAAAAAAAAAAAAAAAAAAWLAAAAwAAAAAAAAAAABwAAAHgAMCAAACBzhkgY8xpMYRgCjADRnRwCSDAAxogA42CA/bJoPNqLE8duHvCjmyBnb6AeQUAEAAACAAgAAEAAAAQAEAAAgAAAAAAAAAA==
> <PUBCHEM_IUPAC_OPENEYE_NAME>
1-(5-nitro-2-pyrrolidin-1-yl-phenoxy)-3-pyrazol-1-yl-propan-2-ol
> <PUBCHEM_IUPAC_CAS_NAME>
1-[5-nitro-2-(1-pyrrolidinyl)phenoxy]-3-(1-pyrazolyl)-2-propanol
> <PUBCHEM_IUPAC_NAME_MARKUP>
1-(5-nitro-2-pyrrolidin-1-ylphenoxy)-3-pyrazol-1-ylpropan-2-ol
> <PUBCHEM_IUPAC_NAME>
1-(5-nitro-2-pyrrolidin-1-ylphenoxy)-3-pyrazol-1-ylpropan-2-ol
> <PUBCHEM_IUPAC_SYSTEMATIC_NAME>
1-(5-nitro-2-pyrrolidin-1-yl-phenoxy)-3-pyrazol-1-yl-propan-2-ol
> <PUBCHEM_IUPAC_TRADITIONAL_NAME>
1-(5-nitro-2-pyrrolidino-phenoxy)-3-pyrazol-1-yl-propan-2-ol
> <PUBCHEM_IUPAC_INCHI>
InChI=1S/C16H20N4O4/c21-14(11-19-9-3-6-17-19)12-24-16-10-13(20(22)23)4-5-15(16)18-7-1-2-8-18/h3-6,9-10,14,21H,1-2,7-8,11-12H2
> <PUBCHEM_IUPAC_INCHIKEY>
LIRVDLTXPSYYLX-UHFFFAOYSA-N
> <PUBCHEM_XLOGP3_AA>
1.7
> <PUBCHEM_EXACT_MASS>
332.14845513
> <PUBCHEM_MOLECULAR_FORMULA>
C16H20N4O4
> <PUBCHEM_MOLECULAR_WEIGHT>
332.35
> <PUBCHEM_OPENEYE_CAN_SMILES>
C1CCN(C1)C2=C(C=C(C=C2)[N+](=O)[O-])OCC(CN3C=CC=N3)O
> <PUBCHEM_OPENEYE_ISO_SMILES>
C1CCN(C1)C2=C(C=C(C=C2)[N+](=O)[O-])OCC(CN3C=CC=N3)O
> <PUBCHEM_CACTVS_TPSA>
96.3
> <PUBCHEM_MONOISOTOPIC_WEIGHT>
332.14845513
> <PUBCHEM_TOTAL_CHARGE>
0
> <PUBCHEM_HEAVY_ATOM_COUNT>
24
> <PUBCHEM_ATOM_DEF_STEREO_COUNT>
0
> <PUBCHEM_ATOM_UDEF_STEREO_COUNT>
1
> <PUBCHEM_BOND_DEF_STEREO_COUNT>
0
> <PUBCHEM_BOND_UDEF_STEREO_COUNT>
0
> <PUBCHEM_ISOTOPIC_ATOM_COUNT>
0
> <PUBCHEM_COMPONENT_COUNT>
1
> <PUBCHEM_CACTVS_TAUTO_COUNT>
-1
> <PUBCHEM_COORDINATE_TYPE>
1
5
255
> <PUBCHEM_BONDANNOTATIONS>
13  14  8
13  15  8
14  18  8
15  19  8
18  21  8
19  21  8
16  2  3
22  23  8
23  24  8
6  22  8
6  8  8
8  24  8
$$$$
