511413
  -OEChem-10302200282D
 65 68  0     1  0  0  0  0  0999 V2000
    7.1962    0.5000    0.0000 O   0  0  0  0  0  0  0  0  0  0  0  0
    8.9282   -0.5000    0.0000 O   0  0  0  0  0  0  0  0  0  0  0  0
   11.5263   -4.0000    0.0000 O   0  5  0  0  0  0  0  0  0  0  0  0
    9.7942   -4.0000    0.0000 O   0  0  0  0  0  0  0  0  0  0  0  0
    5.4641   -0.5000    0.0000 N   0  0  3  0  0  0  0  0  0  0  0  0
   10.6603    0.5000    0.0000 N   0  0  0  0  0  0  0  0  0  0  0  0
   10.6603   -3.5000    0.0000 N   0  3  0  0  0  0  0  0  0  0  0  0
    4.5981    1.0000    0.0000 C   0  0  3  0  0  0  0  0  0  0  0  0
    5.4641    0.5000    0.0000 C   0  0  0  0  0  0  0  0  0  0  0  0
    3.7320    0.5000    0.0000 C   0  0  0  0  0  0  0  0  0  0  0  0
    3.7320   -0.5000    0.0000 C   0  0  0  0  0  0  0  0  0  0  0  0
    4.5981   -1.0000    0.0000 C   0  0  0  0  0  0  0  0  0  0  0  0
    4.5981    2.0000    0.0000 C   0  0  0  0  0  0  0  0  0  0  0  0
    6.3301   -1.0000    0.0000 C   0  0  0  0  0  0  0  0  0  0  0  0
    7.1962   -0.5000    0.0000 C   0  0  3  0  0  0  0  0  0  0  0  0
    3.7320    2.5000    0.0000 C   0  0  0  0  0  0  0  0  0  0  0  0
    8.0622   -1.0000    0.0000 C   0  0  0  0  0  0  0  0  0  0  0  0
   11.4693    1.0878    0.0000 C   0  0  0  0  0  0  0  0  0  0  0  0
    9.8512    1.0878    0.0000 C   0  0  0  0  0  0  0  0  0  0  0  0
   11.1603    2.0388    0.0000 C   0  0  0  0  0  0  0  0  0  0  0  0
   10.1603    2.0388    0.0000 C   0  0  0  0  0  0  0  0  0  0  0  0
   10.6603   -0.5000    0.0000 C   0  0  0  0  0  0  0  0  0  0  0  0
    2.8660    2.0000    0.0000 C   0  0  0  0  0  0  0  0  0  0  0  0
    3.7320    3.5000    0.0000 C   0  0  0  0  0  0  0  0  0  0  0  0
    9.7942   -1.0000    0.0000 C   0  0  0  0  0  0  0  0  0  0  0  0
   11.5263   -1.0000    0.0000 C   0  0  0  0  0  0  0  0  0  0  0  0
    2.0000    2.5000    0.0000 C   0  0  0  0  0  0  0  0  0  0  0  0
    2.8660    4.0000    0.0000 C   0  0  0  0  0  0  0  0  0  0  0  0
    9.7942   -2.0000    0.0000 C   0  0  0  0  0  0  0  0  0  0  0  0
    2.0000    3.5000    0.0000 C   0  0  0  0  0  0  0  0  0  0  0  0
   11.5263   -2.0000    0.0000 C   0  0  0  0  0  0  0  0  0  0  0  0
   10.6603   -2.5000    0.0000 C   0  0  0  0  0  0  0  0  0  0  0  0
    5.1350    1.3100    0.0000 H   0  0  0  0  0  0  0  0  0  0  0  0
    6.0747    0.3923    0.0000 H   0  0  0  0  0  0  0  0  0  0  0  0
    5.6762    1.0826    0.0000 H   0  0  0  0  0  0  0  0  0  0  0  0
    3.5200    1.0826    0.0000 H   0  0  0  0  0  0  0  0  0  0  0  0
    3.1215    0.3923    0.0000 H   0  0  0  0  0  0  0  0  0  0  0  0
    3.1215   -0.3923    0.0000 H   0  0  0  0  0  0  0  0  0  0  0  0
    3.5200   -1.0826    0.0000 H   0  0  0  0  0  0  0  0  0  0  0  0
    4.1996   -1.4750    0.0000 H   0  0  0  0  0  0  0  0  0  0  0  0
    4.9966   -1.4750    0.0000 H   0  0  0  0  0  0  0  0  0  0  0  0
    5.2087    1.8923    0.0000 H   0  0  0  0  0  0  0  0  0  0  0  0
    4.8101    2.5826    0.0000 H   0  0  0  0  0  0  0  0  0  0  0  0
    5.9316   -1.4750    0.0000 H   0  0  0  0  0  0  0  0  0  0  0  0
    6.7287   -1.4750    0.0000 H   0  0  0  0  0  0  0  0  0  0  0  0
    6.6592   -0.1900    0.0000 H   0  0  0  0  0  0  0  0  0  0  0  0
   11.7793    0.5508    0.0000 H   0  0  0  0  0  0  0  0  0  0  0  0
   12.0357    1.3400    0.0000 H   0  0  0  0  0  0  0  0  0  0  0  0
    9.2848    1.3400    0.0000 H   0  0  0  0  0  0  0  0  0  0  0  0
    9.5412    0.5508    0.0000 H   0  0  0  0  0  0  0  0  0  0  0  0
    7.6636   -1.4750    0.0000 H   0  0  0  0  0  0  0  0  0  0  0  0
    8.4607   -1.4750    0.0000 H   0  0  0  0  0  0  0  0  0  0  0  0
   11.7667    2.1678    0.0000 H   0  0  0  0  0  0  0  0  0  0  0  0
   11.0954    2.6554    0.0000 H   0  0  0  0  0  0  0  0  0  0  0  0
   10.2251    2.6554    0.0000 H   0  0  0  0  0  0  0  0  0  0  0  0
    9.5538    2.1678    0.0000 H   0  0  0  0  0  0  0  0  0  0  0  0
    2.8660    1.3800    0.0000 H   0  0  0  0  0  0  0  0  0  0  0  0
    4.2690    3.8100    0.0000 H   0  0  0  0  0  0  0  0  0  0  0  0
    7.7331    0.8100    0.0000 H   0  0  0  0  0  0  0  0  0  0  0  0
   12.0632   -0.6900    0.0000 H   0  0  0  0  0  0  0  0  0  0  0  0
    1.4631    2.1900    0.0000 H   0  0  0  0  0  0  0  0  0  0  0  0
    2.8660    4.6200    0.0000 H   0  0  0  0  0  0  0  0  0  0  0  0
    9.2573   -2.3100    0.0000 H   0  0  0  0  0  0  0  0  0  0  0  0
    1.4631    3.8100    0.0000 H   0  0  0  0  0  0  0  0  0  0  0  0
   12.0632   -2.3100    0.0000 H   0  0  0  0  0  0  0  0  0  0  0  0
  1 15  1  0  0  0  0
  1 59  1  0  0  0  0
  2 17  1  0  0  0  0
  2 25  1  0  0  0  0
  3  7  1  0  0  0  0
  4  7  2  0  0  0  0
  5  9  1  0  0  0  0
  5 12  1  0  0  0  0
  5 14  1  0  0  0  0
  6 18  1  0  0  0  0
  6 19  1  0  0  0  0
  6 22  1  0  0  0  0
  7 32  1  0  0  0  0
  8  9  1  0  0  0  0
  8 10  1  0  0  0  0
  8 13  1  0  0  0  0
  8 33  1  0  0  0  0
  9 34  1  0  0  0  0
  9 35  1  0  0  0  0
 10 11  1  0  0  0  0
 10 36  1  0  0  0  0
 10 37  1  0  0  0  0
 11 12  1  0  0  0  0
 11 38  1  0  0  0  0
 11 39  1  0  0  0  0
 12 40  1  0  0  0  0
 12 41  1  0  0  0  0
 13 16  1  0  0  0  0
 13 42  1  0  0  0  0
 13 43  1  0  0  0  0
 14 15  1  0  0  0  0
 14 44  1  0  0  0  0
 14 45  1  0  0  0  0
 15 17  1  0  0  0  0
 15 46  1  0  0  0  0
 16 23  2  0  0  0  0
 16 24  1  0  0  0  0
 17 51  1  0  0  0  0
 17 52  1  0  0  0  0
 18 20  1  0  0  0  0
 18 47  1  0  0  0  0
 18 48  1  0  0  0  0
 19 21  1  0  0  0  0
 19 49  1  0  0  0  0
 19 50  1  0  0  0  0
 20 21  1  0  0  0  0
 20 53  1  0  0  0  0
 20 54  1  0  0  0  0
 21 55  1  0  0  0  0
 21 56  1  0  0  0  0
 22 25  2  0  0  0  0
 22 26  1  0  0  0  0
 23 27  1  0  0  0  0
 23 57  1  0  0  0  0
 24 28  2  0  0  0  0
 24 58  1  0  0  0  0
 25 29  1  0  0  0  0
 26 31  2  0  0  0  0
 26 60  1  0  0  0  0
 27 30  2  0  0  0  0
 27 61  1  0  0  0  0
 28 30  1  0  0  0  0
 28 62  1  0  0  0  0
 29 32  2  0  0  0  0
 29 63  1  0  0  0  0
 30 64  1  0  0  0  0
 31 32  1  0  0  0  0
 31 65  1  0  0  0  0
M  CHG  2   3  -1   7   1
M  END
> <PUBCHEM_COMPOUND_CID>
511413
> <PUBCHEM_COMPOUND_CANONICALIZED>
1
> <PUBCHEM_CACTVS_COMPLEXITY>
574
> <PUBCHEM_CACTVS_HBOND_ACCEPTOR>
6
> <PUBCHEM_CACTVS_HBOND_DONOR>
1
> <PUBCHEM_CACTVS_ROTATABLE_BOND>
8
> <PUBCHEM_CACTVS_SUBSKEYS>
AAADcfB7OAAAAAAAAAAAAAAAAAAAAWAAAAA8YIAAAAAAAAABQAAAHgAECAAADRzhmAYwxoMQRgCBAiRCQwCCCAAhIgAoiAAPbIoPNiLEsZuHOCjmwBnb6AeQ0MEOAACAAgAAEAAAAQAEAAAgAAAAAAAAAA==
> <PUBCHEM_IUPAC_OPENEYE_NAME>
1-(3-benzyl-1-piperidyl)-3-(5-nitro-2-pyrrolidin-1-yl-phenoxy)propan-2-ol
> <PUBCHEM_IUPAC_CAS_NAME>
1-[5-nitro-2-(1-pyrrolidinyl)phenoxy]-3-[3-(phenylmethyl)-1-piperidinyl]-2-propanol
> <PUBCHEM_IUPAC_NAME_MARKUP>
1-(3-benzylpiperidin-1-yl)-3-(5-nitro-2-pyrrolidin-1-ylphenoxy)propan-2-ol
> <PUBCHEM_IUPAC_NAME>
1-(3-benzylpiperidin-1-yl)-3-(5-nitro-2-pyrrolidin-1-ylphenoxy)propan-2-ol
> <PUBCHEM_IUPAC_SYSTEMATIC_NAME>
1-(5-nitro-2-pyrrolidin-1-yl-phenoxy)-3-[3-(phenylmethyl)piperidin-1-yl]propan-2-ol
> <PUBCHEM_IUPAC_TRADITIONAL_NAME>
1-(3-benzylpiperidino)-3-(5-nitro-2-pyrrolidino-phenoxy)propan-2-ol
> <PUBCHEM_IUPAC_INCHI>
InChI=1S/C25H33N3O4/c29-23(18-26-12-6-9-21(17-26)15-20-7-2-1-3-8-20)19-32-25-16-22(28(30)31)10-11-24(25)27-13-4-5-14-27/h1-3,7-8,10-11,16,21,23,29H,4-6,9,12-15,17-19H2
> <PUBCHEM_IUPAC_INCHIKEY>
LUVOJLKEMPNPEU-UHFFFAOYSA-N
> <PUBCHEM_XLOGP3_AA>
4.5
> <PUBCHEM_EXACT_MASS>
439.24710654
> <PUBCHEM_MOLECULAR_FORMULA>
C25H33N3O4
> <PUBCHEM_MOLECULAR_WEIGHT>
439.5
> <PUBCHEM_OPENEYE_CAN_SMILES>
C1CCN(C1)C2=C(C=C(C=C2)[N+](=O)[O-])OCC(CN3CCCC(C3)CC4=CC=CC=C4)O
> <PUBCHEM_OPENEYE_ISO_SMILES>
C1CCN(C1)C2=C(C=C(C=C2)[N+](=O)[O-])OCC(CN3CCCC(C3)CC4=CC=CC=C4)O
> <PUBCHEM_CACTVS_TPSA>
81.8
> <PUBCHEM_MONOISOTOPIC_WEIGHT>
439.24710654
> <PUBCHEM_TOTAL_CHARGE>
0
> <PUBCHEM_HEAVY_ATOM_COUNT>
32
> <PUBCHEM_ATOM_DEF_STEREO_COUNT>
0
> <PUBCHEM_ATOM_UDEF_STEREO_COUNT>
2
> <PUBCHEM_BOND_DEF_STEREO_COUNT>
0
> <PUBCHEM_BOND_UDEF_STEREO_COUNT>
0
> <PUBCHEM_ISOTOPIC_ATOM_COUNT>
0
> <PUBCHEM_COMPONENT_COUNT>
1
> <PUBCHEM_CACTVS_TAUTO_COUNT>
-1
> <PUBCHEM_COORDINATE_TYPE>
1
5
255
> <PUBCHEM_BONDANNOTATIONS>
15  1  3
16  23  8
16  24  8
22  25  8
22  26  8
23  27  8
24  28  8
25  29  8
26  31  8
27  30  8
28  30  8
29  32  8
31  32  8
8  13  3
$$$$
