511463
  -OEChem-10302200282D
 28 29  0     1  0  0  0  0  0999 V2000
    5.0298   -0.4078    0.0000 O   0  0  0  0  0  0  0  0  0  0  0  0
    2.4608   -0.0988    0.0000 O   0  0  0  0  0  0  0  0  0  0  0  0
    3.1330   -2.1679    0.0000 O   0  0  0  0  0  0  0  0  0  0  0  0
    6.3031   -2.0634    0.0000 O   0  0  0  0  0  0  0  0  0  0  0  0
    6.1888    0.4806    0.0000 O   0  0  0  0  0  0  0  0  0  0  0  0
    4.2208    1.1800    0.0000 N   0  0  0  0  0  0  0  0  0  0  0  0
    3.4118    1.7677    0.0000 N   0  0  0  0  0  0  0  0  0  0  0  0
    4.7208    2.7188    0.0000 N   0  0  0  0  0  0  0  0  0  0  0  0
    3.7208    2.7188    0.0000 N   0  0  0  0  0  0  0  0  0  0  0  0
    6.7240    2.1278    0.0000 N   0  0  0  0  0  0  0  0  0  0  0  0
    3.4118   -0.4078    0.0000 C   0  0  2  0  0  0  0  0  0  0  0  0
    3.7208   -1.3589    0.0000 C   0  0  1  0  0  0  0  0  0  0  0  0
    4.7208   -1.3589    0.0000 C   0  0  1  0  0  0  0  0  0  0  0  0
    4.2208    0.1800    0.0000 C   0  0  1  0  0  0  0  0  0  0  0  0
    5.3086   -2.1679    0.0000 C   0  0  0  0  0  0  0  0  0  0  0  0
    5.0298    1.7677    0.0000 C   0  0  0  0  0  0  0  0  0  0  0  0
    5.9809    1.4587    0.0000 C   0  0  0  0  0  0  0  0  0  0  0  0
    2.9734   -0.8462    0.0000 H   0  0  0  0  0  0  0  0  0  0  0  0
    3.1085   -1.2619    0.0000 H   0  0  0  0  0  0  0  0  0  0  0  0
    5.3332   -1.2619    0.0000 H   0  0  0  0  0  0  0  0  0  0  0  0
    3.6684    0.4614    0.0000 H   0  0  0  0  0  0  0  0  0  0  0  0
    4.7514   -2.4397    0.0000 H   0  0  0  0  0  0  0  0  0  0  0  0
    5.4795   -2.7639    0.0000 H   0  0  0  0  0  0  0  0  0  0  0  0
    2.0000   -0.5137    0.0000 H   0  0  0  0  0  0  0  0  0  0  0  0
    3.3852   -2.7343    0.0000 H   0  0  0  0  0  0  0  0  0  0  0  0
    6.6676   -2.5650    0.0000 H   0  0  0  0  0  0  0  0  0  0  0  0
    7.3137    1.9363    0.0000 H   0  0  0  0  0  0  0  0  0  0  0  0
    6.5951    2.7343    0.0000 H   0  0  0  0  0  0  0  0  0  0  0  0
  1 13  1  0  0  0  0
  1 14  1  0  0  0  0
 11  2  1  1  0  0  0
  2 24  1  0  0  0  0
 12  3  1  1  0  0  0
  3 25  1  0  0  0  0
  4 15  1  0  0  0  0
  4 26  1  0  0  0  0
  5 17  2  0  0  0  0
  6  7  1  0  0  0  0
 14  6  1  6  0  0  0
  6 16  1  0  0  0  0
  7  9  2  0  0  0  0
  8  9  1  0  0  0  0
  8 16  2  0  0  0  0
 10 17  1  0  0  0  0
 10 27  1  0  0  0  0
 10 28  1  0  0  0  0
 11 12  1  0  0  0  0
 11 14  1  0  0  0  0
 11 18  1  0  0  0  0
 12 13  1  0  0  0  0
 12 19  1  0  0  0  0
 13 15  1  6  0  0  0
 13 20  1  0  0  0  0
 14 21  1  0  0  0  0
 15 22  1  0  0  0  0
 15 23  1  0  0  0  0
 16 17  1  0  0  0  0
M  END
> <PUBCHEM_COMPOUND_CID>
511463
> <PUBCHEM_COMPOUND_CANONICALIZED>
1
> <PUBCHEM_CACTVS_COMPLEXITY>
304
> <PUBCHEM_CACTVS_HBOND_ACCEPTOR>
8
> <PUBCHEM_CACTVS_HBOND_DONOR>
4
> <PUBCHEM_CACTVS_ROTATABLE_BOND>
3
> <PUBCHEM_CACTVS_SUBSKEYS>
AAADccBjuAAAAAAAAAAAAAAAAAAAAWJAAAAAAAAAAAAAAAABgAAAHgAYCAAACBThgwYBEAZIBgAqAAMwNAAAAAMCgIAVQACIAACDUAIAiCAeQAAHAAKTAADwMAIAAAAAAAAAAAAAAAAAAAAAAAAAAAAAAA==
> <PUBCHEM_IUPAC_OPENEYE_NAME>
1-[(2R,3R,4S,5R)-3,4-dihydroxy-5-(hydroxymethyl)tetrahydrofuran-2-yl]tetrazole-5-carboxamide
> <PUBCHEM_IUPAC_CAS_NAME>
1-[(2R,3R,4S,5R)-3,4-dihydroxy-5-(hydroxymethyl)-2-oxolanyl]-5-tetrazolecarboxamide
> <PUBCHEM_IUPAC_NAME_MARKUP>
1-[(2<I>R</I>,3<I>R</I>,4<I>S</I>,5<I>R</I>)-3,4-dihydroxy-5-(hydroxymethyl)oxolan-2-yl]tetrazole-5-carboxamide
> <PUBCHEM_IUPAC_NAME>
1-[(2R,3R,4S,5R)-3,4-dihydroxy-5-(hydroxymethyl)oxolan-2-yl]tetrazole-5-carboxamide
> <PUBCHEM_IUPAC_SYSTEMATIC_NAME>
1-[(2R,3R,4S,5R)-5-(hydroxymethyl)-3,4-bis(oxidanyl)oxolan-2-yl]-1,2,3,4-tetrazole-5-carboxamide
> <PUBCHEM_IUPAC_TRADITIONAL_NAME>
1-[(2R,3R,4S,5R)-3,4-dihydroxy-5-methylol-tetrahydrofuran-2-yl]tetrazole-5-carboxamide
> <PUBCHEM_IUPAC_INCHI>
InChI=1S/C7H11N5O5/c8-5(16)6-9-10-11-12(6)7-4(15)3(14)2(1-13)17-7/h2-4,7,13-15H,1H2,(H2,8,16)/t2-,3-,4-,7-/m1/s1
> <PUBCHEM_IUPAC_INCHIKEY>
UAPTWLHZUPXFRE-WVQVIYPNSA-N
> <PUBCHEM_XLOGP3_AA>
-2.8
> <PUBCHEM_EXACT_MASS>
245.07601847
> <PUBCHEM_MOLECULAR_FORMULA>
C7H11N5O5
> <PUBCHEM_MOLECULAR_WEIGHT>
245.19
> <PUBCHEM_OPENEYE_CAN_SMILES>
C(C1C(C(C(O1)N2C(=NN=N2)C(=O)N)O)O)O
> <PUBCHEM_OPENEYE_ISO_SMILES>
C([C@@H]1[C@H]([C@H]([C@@H](O1)N2C(=NN=N2)C(=O)N)O)O)O
> <PUBCHEM_CACTVS_TPSA>
157
> <PUBCHEM_MONOISOTOPIC_WEIGHT>
245.07601847
> <PUBCHEM_TOTAL_CHARGE>
0
> <PUBCHEM_HEAVY_ATOM_COUNT>
17
> <PUBCHEM_ATOM_DEF_STEREO_COUNT>
4
> <PUBCHEM_ATOM_UDEF_STEREO_COUNT>
0
> <PUBCHEM_BOND_DEF_STEREO_COUNT>
0
> <PUBCHEM_BOND_UDEF_STEREO_COUNT>
0
> <PUBCHEM_ISOTOPIC_ATOM_COUNT>
0
> <PUBCHEM_COMPONENT_COUNT>
1
> <PUBCHEM_CACTVS_TAUTO_COUNT>
-1
> <PUBCHEM_COORDINATE_TYPE>
1
5
255
> <PUBCHEM_BONDANNOTATIONS>
13  15  6
11  2  5
12  3  5
14  6  6
6  16  8
6  7  8
7  9  8
8  16  8
8  9  8
$$$$
