511485
  -OEChem-10302200282D
 55 55  0     1  0  0  0  0  0999 V2000
    4.5981   -0.6830    0.0000 O   0  0  0  0  0  0  0  0  0  0  0  0
    4.5981    1.3170    0.0000 O   0  0  0  0  0  0  0  0  0  0  0  0
    6.3301    2.3170    0.0000 N   0  0  0  0  0  0  0  0  0  0  0  0
    3.7320   -2.1830    0.0000 C   0  0  3  0  0  0  0  0  0  0  0  0
    4.5981   -1.6830    0.0000 C   0  0  3  0  0  0  0  0  0  0  0  0
    3.7320   -3.1830    0.0000 C   0  0  0  0  0  0  0  0  0  0  0  0
    5.4641   -3.1830    0.0000 C   0  0  3  0  0  0  0  0  0  0  0  0
    5.4641   -2.1830    0.0000 C   0  0  0  0  0  0  0  0  0  0  0  0
    4.5981   -3.6830    0.0000 C   0  0  0  0  0  0  0  0  0  0  0  0
    2.8660   -1.6830    0.0000 C   0  0  0  0  0  0  0  0  0  0  0  0
    6.3301   -3.6830    0.0000 C   0  0  0  0  0  0  0  0  0  0  0  0
    2.0000   -2.1830    0.0000 C   0  0  0  0  0  0  0  0  0  0  0  0
    2.8660   -0.6830    0.0000 C   0  0  0  0  0  0  0  0  0  0  0  0
    5.4641   -0.1830    0.0000 C   0  0  0  0  0  0  0  0  0  0  0  0
    5.4641    0.8170    0.0000 C   0  0  3  0  0  0  0  0  0  0  0  0
    6.3301    1.3170    0.0000 C   0  0  0  0  0  0  0  0  0  0  0  0
    7.1962    2.8170    0.0000 C   0  0  0  0  0  0  0  0  0  0  0  0
    8.0622    3.3170    0.0000 C   0  0  0  0  0  0  0  0  0  0  0  0
    6.6962    3.6830    0.0000 C   0  0  0  0  0  0  0  0  0  0  0  0
    7.6962    1.9510    0.0000 C   0  0  0  0  0  0  0  0  0  0  0  0
    4.2690   -2.4930    0.0000 H   0  0  0  0  0  0  0  0  0  0  0  0
    5.1350   -1.3730    0.0000 H   0  0  0  0  0  0  0  0  0  0  0  0
    3.1215   -3.0753    0.0000 H   0  0  0  0  0  0  0  0  0  0  0  0
    3.5200   -3.7656    0.0000 H   0  0  0  0  0  0  0  0  0  0  0  0
    5.4641   -3.8030    0.0000 H   0  0  0  0  0  0  0  0  0  0  0  0
    6.0747   -2.2907    0.0000 H   0  0  0  0  0  0  0  0  0  0  0  0
    5.6762   -1.6004    0.0000 H   0  0  0  0  0  0  0  0  0  0  0  0
    4.1996   -4.1580    0.0000 H   0  0  0  0  0  0  0  0  0  0  0  0
    4.9966   -4.1580    0.0000 H   0  0  0  0  0  0  0  0  0  0  0  0
    2.8660   -2.3030    0.0000 H   0  0  0  0  0  0  0  0  0  0  0  0
    6.0201   -4.2200    0.0000 H   0  0  0  0  0  0  0  0  0  0  0  0
    6.8671   -3.9930    0.0000 H   0  0  0  0  0  0  0  0  0  0  0  0
    6.6401   -3.1461    0.0000 H   0  0  0  0  0  0  0  0  0  0  0  0
    1.6900   -1.6461    0.0000 H   0  0  0  0  0  0  0  0  0  0  0  0
    1.4631   -2.4930    0.0000 H   0  0  0  0  0  0  0  0  0  0  0  0
    2.3100   -2.7200    0.0000 H   0  0  0  0  0  0  0  0  0  0  0  0
    3.4860   -0.6830    0.0000 H   0  0  0  0  0  0  0  0  0  0  0  0
    2.8660   -0.0630    0.0000 H   0  0  0  0  0  0  0  0  0  0  0  0
    2.2460   -0.6830    0.0000 H   0  0  0  0  0  0  0  0  0  0  0  0
    5.6762   -0.7656    0.0000 H   0  0  0  0  0  0  0  0  0  0  0  0
    6.0747   -0.0754    0.0000 H   0  0  0  0  0  0  0  0  0  0  0  0
    5.4641    1.4370    0.0000 H   0  0  0  0  0  0  0  0  0  0  0  0
    6.5422    0.7344    0.0000 H   0  0  0  0  0  0  0  0  0  0  0  0
    6.9407    1.4246    0.0000 H   0  0  0  0  0  0  0  0  0  0  0  0
    5.7932    2.6270    0.0000 H   0  0  0  0  0  0  0  0  0  0  0  0
    4.5981    1.9370    0.0000 H   0  0  0  0  0  0  0  0  0  0  0  0
    8.3722    2.7800    0.0000 H   0  0  0  0  0  0  0  0  0  0  0  0
    8.5991    3.6270    0.0000 H   0  0  0  0  0  0  0  0  0  0  0  0
    7.7522    3.8539    0.0000 H   0  0  0  0  0  0  0  0  0  0  0  0
    7.2331    3.9930    0.0000 H   0  0  0  0  0  0  0  0  0  0  0  0
    6.3862    4.2200    0.0000 H   0  0  0  0  0  0  0  0  0  0  0  0
    6.1592    3.3730    0.0000 H   0  0  0  0  0  0  0  0  0  0  0  0
    7.1592    1.6410    0.0000 H   0  0  0  0  0  0  0  0  0  0  0  0
    8.0062    1.4140    0.0000 H   0  0  0  0  0  0  0  0  0  0  0  0
    8.2331    2.2610    0.0000 H   0  0  0  0  0  0  0  0  0  0  0  0
  1  5  1  0  0  0  0
  1 14  1  0  0  0  0
  2 15  1  0  0  0  0
  2 46  1  0  0  0  0
  3 16  1  0  0  0  0
  3 17  1  0  0  0  0
  3 45  1  0  0  0  0
  4  5  1  0  0  0  0
  4  6  1  0  0  0  0
  4 10  1  0  0  0  0
  4 21  1  0  0  0  0
  5  8  1  0  0  0  0
  5 22  1  0  0  0  0
  6  9  1  0  0  0  0
  6 23  1  0  0  0  0
  6 24  1  0  0  0  0
  7  8  1  0  0  0  0
  7  9  1  0  0  0  0
  7 11  1  0  0  0  0
  7 25  1  0  0  0  0
  8 26  1  0  0  0  0
  8 27  1  0  0  0  0
  9 28  1  0  0  0  0
  9 29  1  0  0  0  0
 10 12  1  0  0  0  0
 10 13  1  0  0  0  0
 10 30  1  0  0  0  0
 11 31  1  0  0  0  0
 11 32  1  0  0  0  0
 11 33  1  0  0  0  0
 12 34  1  0  0  0  0
 12 35  1  0  0  0  0
 12 36  1  0  0  0  0
 13 37  1  0  0  0  0
 13 38  1  0  0  0  0
 13 39  1  0  0  0  0
 14 15  1  0  0  0  0
 14 40  1  0  0  0  0
 14 41  1  0  0  0  0
 15 16  1  0  0  0  0
 15 42  1  0  0  0  0
 16 43  1  0  0  0  0
 16 44  1  0  0  0  0
 17 18  1  0  0  0  0
 17 19  1  0  0  0  0
 17 20  1  0  0  0  0
 18 47  1  0  0  0  0
 18 48  1  0  0  0  0
 18 49  1  0  0  0  0
 19 50  1  0  0  0  0
 19 51  1  0  0  0  0
 19 52  1  0  0  0  0
 20 53  1  0  0  0  0
 20 54  1  0  0  0  0
 20 55  1  0  0  0  0
M  END
> <PUBCHEM_COMPOUND_CID>
511485
> <PUBCHEM_COMPOUND_CANONICALIZED>
1
> <PUBCHEM_CACTVS_COMPLEXITY>
273
> <PUBCHEM_CACTVS_HBOND_ACCEPTOR>
3
> <PUBCHEM_CACTVS_HBOND_DONOR>
2
> <PUBCHEM_CACTVS_ROTATABLE_BOND>
7
> <PUBCHEM_CACTVS_SUBSKEYS>
AAADcfB6MAAAAAAAAAAAAAAAAAAAAAAAAAAwAAAAAAAAAAAAAAAAHgAQCAAADZzhgAYCAALABgAAAAAAAAAAAAAAAAAAAIAIAAADEAIAAAAGAAAGEACTAAGAwPAOgAAAAAAAAACAAAIAABAAAAAAAAAAAA==
> <PUBCHEM_IUPAC_OPENEYE_NAME>
1-(tert-butylamino)-3-(2-isopropyl-5-methyl-cyclohexoxy)propan-2-ol
> <PUBCHEM_IUPAC_CAS_NAME>
1-(tert-butylamino)-3-(5-methyl-2-propan-2-ylcyclohexyl)oxy-2-propanol
> <PUBCHEM_IUPAC_NAME_MARKUP>
1-(<I>tert</I>-butylamino)-3-(5-methyl-2-propan-2-ylcyclohexyl)oxypropan-2-ol
> <PUBCHEM_IUPAC_NAME>
1-(tert-butylamino)-3-(5-methyl-2-propan-2-ylcyclohexyl)oxypropan-2-ol
> <PUBCHEM_IUPAC_SYSTEMATIC_NAME>
1-(tert-butylamino)-3-(5-methyl-2-propan-2-yl-cyclohexyl)oxy-propan-2-ol
> <PUBCHEM_IUPAC_TRADITIONAL_NAME>
1-(tert-butylamino)-3-(2-isopropyl-5-methyl-cyclohexoxy)propan-2-ol
> <PUBCHEM_IUPAC_INCHI>
InChI=1S/C17H35NO2/c1-12(2)15-8-7-13(3)9-16(15)20-11-14(19)10-18-17(4,5)6/h12-16,18-19H,7-11H2,1-6H3
> <PUBCHEM_IUPAC_INCHIKEY>
URMJPEDTGXJUMD-UHFFFAOYSA-N
> <PUBCHEM_XLOGP3_AA>
3.5
> <PUBCHEM_EXACT_MASS>
285.266779359
> <PUBCHEM_MOLECULAR_FORMULA>
C17H35NO2
> <PUBCHEM_MOLECULAR_WEIGHT>
285.5
> <PUBCHEM_OPENEYE_CAN_SMILES>
CC1CCC(C(C1)OCC(CNC(C)(C)C)O)C(C)C
> <PUBCHEM_OPENEYE_ISO_SMILES>
CC1CCC(C(C1)OCC(CNC(C)(C)C)O)C(C)C
> <PUBCHEM_CACTVS_TPSA>
41.5
> <PUBCHEM_MONOISOTOPIC_WEIGHT>
285.266779359
> <PUBCHEM_TOTAL_CHARGE>
0
> <PUBCHEM_HEAVY_ATOM_COUNT>
20
> <PUBCHEM_ATOM_DEF_STEREO_COUNT>
0
> <PUBCHEM_ATOM_UDEF_STEREO_COUNT>
4
> <PUBCHEM_BOND_DEF_STEREO_COUNT>
0
> <PUBCHEM_BOND_UDEF_STEREO_COUNT>
0
> <PUBCHEM_ISOTOPIC_ATOM_COUNT>
0
> <PUBCHEM_COMPONENT_COUNT>
1
> <PUBCHEM_CACTVS_TAUTO_COUNT>
1
> <PUBCHEM_COORDINATE_TYPE>
1
5
255
> <PUBCHEM_BONDANNOTATIONS>
5  1  3
15  2  3
4  10  3
7  11  3
$$$$
