511431
  -OEChem-10302200282D
 64 67  0     1  0  0  0  0  0999 V2000
    8.9282   -0.5000    0.0000 O   0  0  0  0  0  0  0  0  0  0  0  0
    7.1962    0.5000    0.0000 O   0  0  0  0  0  0  0  0  0  0  0  0
   11.5263   -4.0000    0.0000 O   0  5  0  0  0  0  0  0  0  0  0  0
    9.7942   -4.0000    0.0000 O   0  0  0  0  0  0  0  0  0  0  0  0
    5.4641   -0.5000    0.0000 N   0  0  3  0  0  0  0  0  0  0  0  0
    3.7320    0.5000    0.0000 N   0  0  0  0  0  0  0  0  0  0  0  0
   10.6603    0.5000    0.0000 N   0  0  0  0  0  0  0  0  0  0  0  0
   10.6603   -3.5000    0.0000 N   0  3  0  0  0  0  0  0  0  0  0  0
    4.5981    1.0000    0.0000 C   0  0  3  0  0  0  0  0  0  0  0  0
    5.4641    0.5000    0.0000 C   0  0  0  0  0  0  0  0  0  0  0  0
    4.5981   -1.0000    0.0000 C   0  0  0  0  0  0  0  0  0  0  0  0
    3.7320   -0.5000    0.0000 C   0  0  0  0  0  0  0  0  0  0  0  0
    6.3301   -1.0000    0.0000 C   0  0  0  0  0  0  0  0  0  0  0  0
    4.5981    2.0000    0.0000 C   0  0  0  0  0  0  0  0  0  0  0  0
    7.1962   -0.5000    0.0000 C   0  0  3  0  0  0  0  0  0  0  0  0
   11.4693    1.0878    0.0000 C   0  0  0  0  0  0  0  0  0  0  0  0
    9.8512    1.0878    0.0000 C   0  0  0  0  0  0  0  0  0  0  0  0
   11.1603    2.0388    0.0000 C   0  0  0  0  0  0  0  0  0  0  0  0
   10.1603    2.0388    0.0000 C   0  0  0  0  0  0  0  0  0  0  0  0
    3.7320    2.5000    0.0000 C   0  0  0  0  0  0  0  0  0  0  0  0
    8.0622   -1.0000    0.0000 C   0  0  0  0  0  0  0  0  0  0  0  0
   10.6603   -0.5000    0.0000 C   0  0  0  0  0  0  0  0  0  0  0  0
    9.7942   -1.0000    0.0000 C   0  0  0  0  0  0  0  0  0  0  0  0
    2.8660    2.0000    0.0000 C   0  0  0  0  0  0  0  0  0  0  0  0
    3.7320    3.5000    0.0000 C   0  0  0  0  0  0  0  0  0  0  0  0
   11.5263   -1.0000    0.0000 C   0  0  0  0  0  0  0  0  0  0  0  0
    9.7942   -2.0000    0.0000 C   0  0  0  0  0  0  0  0  0  0  0  0
   11.5263   -2.0000    0.0000 C   0  0  0  0  0  0  0  0  0  0  0  0
   10.6603   -2.5000    0.0000 C   0  0  0  0  0  0  0  0  0  0  0  0
    2.0000    2.5000    0.0000 C   0  0  0  0  0  0  0  0  0  0  0  0
    2.8660    4.0000    0.0000 C   0  0  0  0  0  0  0  0  0  0  0  0
    2.0000    3.5000    0.0000 C   0  0  0  0  0  0  0  0  0  0  0  0
    4.0611    1.3100    0.0000 H   0  0  0  0  0  0  0  0  0  0  0  0
    6.0747    0.3923    0.0000 H   0  0  0  0  0  0  0  0  0  0  0  0
    5.6762    1.0826    0.0000 H   0  0  0  0  0  0  0  0  0  0  0  0
    4.1996   -1.4750    0.0000 H   0  0  0  0  0  0  0  0  0  0  0  0
    4.9966   -1.4750    0.0000 H   0  0  0  0  0  0  0  0  0  0  0  0
    3.1215   -0.3923    0.0000 H   0  0  0  0  0  0  0  0  0  0  0  0
    3.5200   -1.0826    0.0000 H   0  0  0  0  0  0  0  0  0  0  0  0
    5.9316   -1.4750    0.0000 H   0  0  0  0  0  0  0  0  0  0  0  0
    6.7287   -1.4750    0.0000 H   0  0  0  0  0  0  0  0  0  0  0  0
    3.1951    0.8100    0.0000 H   0  0  0  0  0  0  0  0  0  0  0  0
    5.2087    1.8923    0.0000 H   0  0  0  0  0  0  0  0  0  0  0  0
    4.8101    2.5826    0.0000 H   0  0  0  0  0  0  0  0  0  0  0  0
    6.6592   -0.1900    0.0000 H   0  0  0  0  0  0  0  0  0  0  0  0
   11.7793    0.5508    0.0000 H   0  0  0  0  0  0  0  0  0  0  0  0
   12.0357    1.3400    0.0000 H   0  0  0  0  0  0  0  0  0  0  0  0
    9.2848    1.3400    0.0000 H   0  0  0  0  0  0  0  0  0  0  0  0
    9.5412    0.5508    0.0000 H   0  0  0  0  0  0  0  0  0  0  0  0
   11.7667    2.1678    0.0000 H   0  0  0  0  0  0  0  0  0  0  0  0
   11.0954    2.6554    0.0000 H   0  0  0  0  0  0  0  0  0  0  0  0
   10.2251    2.6554    0.0000 H   0  0  0  0  0  0  0  0  0  0  0  0
    9.5538    2.1678    0.0000 H   0  0  0  0  0  0  0  0  0  0  0  0
    7.6636   -1.4750    0.0000 H   0  0  0  0  0  0  0  0  0  0  0  0
    8.4607   -1.4750    0.0000 H   0  0  0  0  0  0  0  0  0  0  0  0
   12.0632   -0.6900    0.0000 H   0  0  0  0  0  0  0  0  0  0  0  0
    7.7331    0.8100    0.0000 H   0  0  0  0  0  0  0  0  0  0  0  0
    2.8660    1.3800    0.0000 H   0  0  0  0  0  0  0  0  0  0  0  0
    4.2690    3.8100    0.0000 H   0  0  0  0  0  0  0  0  0  0  0  0
    9.2573   -2.3100    0.0000 H   0  0  0  0  0  0  0  0  0  0  0  0
   12.0632   -2.3100    0.0000 H   0  0  0  0  0  0  0  0  0  0  0  0
    1.4631    2.1900    0.0000 H   0  0  0  0  0  0  0  0  0  0  0  0
    2.8660    4.6200    0.0000 H   0  0  0  0  0  0  0  0  0  0  0  0
    1.4631    3.8100    0.0000 H   0  0  0  0  0  0  0  0  0  0  0  0
  1 21  1  0  0  0  0
  1 23  1  0  0  0  0
  2 15  1  0  0  0  0
  2 57  1  0  0  0  0
  3  8  1  0  0  0  0
  4  8  2  0  0  0  0
  5 10  1  0  0  0  0
  5 11  1  0  0  0  0
  5 13  1  0  0  0  0
  6  9  1  0  0  0  0
  6 12  1  0  0  0  0
  6 42  1  0  0  0  0
  7 16  1  0  0  0  0
  7 17  1  0  0  0  0
  7 22  1  0  0  0  0
  8 29  1  0  0  0  0
  9 10  1  0  0  0  0
  9 14  1  0  0  0  0
  9 33  1  0  0  0  0
 10 34  1  0  0  0  0
 10 35  1  0  0  0  0
 11 12  1  0  0  0  0
 11 36  1  0  0  0  0
 11 37  1  0  0  0  0
 12 38  1  0  0  0  0
 12 39  1  0  0  0  0
 13 15  1  0  0  0  0
 13 40  1  0  0  0  0
 13 41  1  0  0  0  0
 14 20  1  0  0  0  0
 14 43  1  0  0  0  0
 14 44  1  0  0  0  0
 15 21  1  0  0  0  0
 15 45  1  0  0  0  0
 16 18  1  0  0  0  0
 16 46  1  0  0  0  0
 16 47  1  0  0  0  0
 17 19  1  0  0  0  0
 17 48  1  0  0  0  0
 17 49  1  0  0  0  0
 18 19  1  0  0  0  0
 18 50  1  0  0  0  0
 18 51  1  0  0  0  0
 19 52  1  0  0  0  0
 19 53  1  0  0  0  0
 20 24  2  0  0  0  0
 20 25  1  0  0  0  0
 21 54  1  0  0  0  0
 21 55  1  0  0  0  0
 22 23  2  0  0  0  0
 22 26  1  0  0  0  0
 23 27  1  0  0  0  0
 24 30  1  0  0  0  0
 24 58  1  0  0  0  0
 25 31  2  0  0  0  0
 25 59  1  0  0  0  0
 26 28  2  0  0  0  0
 26 56  1  0  0  0  0
 27 29  2  0  0  0  0
 27 60  1  0  0  0  0
 28 29  1  0  0  0  0
 28 61  1  0  0  0  0
 30 32  2  0  0  0  0
 30 62  1  0  0  0  0
 31 32  1  0  0  0  0
 31 63  1  0  0  0  0
 32 64  1  0  0  0  0
M  CHG  2   3  -1   8   1
M  END
> <PUBCHEM_COMPOUND_CID>
511431
> <PUBCHEM_COMPOUND_CANONICALIZED>
1
> <PUBCHEM_CACTVS_COMPLEXITY>
577
> <PUBCHEM_CACTVS_HBOND_ACCEPTOR>
7
> <PUBCHEM_CACTVS_HBOND_DONOR>
2
> <PUBCHEM_CACTVS_ROTATABLE_BOND>
8
> <PUBCHEM_CACTVS_SUBSKEYS>
AAADcfB7uAAAAAAAAAAAAAAAAAAAAWAAAAA8YIAAAAAAAAABQAAAHgAUCAAADDzhmAYwxoPQRgCBAiRCQwCCCAAhIgAoiIAPbIoPdiLEsZuXOCjm0Bnb6AeQ0IEOAACAAgAAEAAAAQAEAAAgAAAAAAAAAA==
> <PUBCHEM_IUPAC_OPENEYE_NAME>
1-(3-benzylpiperazin-1-yl)-3-(5-nitro-2-pyrrolidin-1-yl-phenoxy)propan-2-ol
> <PUBCHEM_IUPAC_CAS_NAME>
1-[5-nitro-2-(1-pyrrolidinyl)phenoxy]-3-[3-(phenylmethyl)-1-piperazinyl]-2-propanol
> <PUBCHEM_IUPAC_NAME_MARKUP>
1-(3-benzylpiperazin-1-yl)-3-(5-nitro-2-pyrrolidin-1-ylphenoxy)propan-2-ol
> <PUBCHEM_IUPAC_NAME>
1-(3-benzylpiperazin-1-yl)-3-(5-nitro-2-pyrrolidin-1-ylphenoxy)propan-2-ol
> <PUBCHEM_IUPAC_SYSTEMATIC_NAME>
1-(5-nitro-2-pyrrolidin-1-yl-phenoxy)-3-[3-(phenylmethyl)piperazin-1-yl]propan-2-ol
> <PUBCHEM_IUPAC_TRADITIONAL_NAME>
1-(3-benzylpiperazino)-3-(5-nitro-2-pyrrolidino-phenoxy)propan-2-ol
> <PUBCHEM_IUPAC_INCHI>
InChI=1S/C24H32N4O4/c29-22(17-26-13-10-25-20(16-26)14-19-6-2-1-3-7-19)18-32-24-15-21(28(30)31)8-9-23(24)27-11-4-5-12-27/h1-3,6-9,15,20,22,25,29H,4-5,10-14,16-18H2
> <PUBCHEM_IUPAC_INCHIKEY>
FOSWFLFUGOIEFW-UHFFFAOYSA-N
> <PUBCHEM_XLOGP3_AA>
3.1
> <PUBCHEM_EXACT_MASS>
440.24235551
> <PUBCHEM_MOLECULAR_FORMULA>
C24H32N4O4
> <PUBCHEM_MOLECULAR_WEIGHT>
440.5
> <PUBCHEM_OPENEYE_CAN_SMILES>
C1CCN(C1)C2=C(C=C(C=C2)[N+](=O)[O-])OCC(CN3CCNC(C3)CC4=CC=CC=C4)O
> <PUBCHEM_OPENEYE_ISO_SMILES>
C1CCN(C1)C2=C(C=C(C=C2)[N+](=O)[O-])OCC(CN3CCNC(C3)CC4=CC=CC=C4)O
> <PUBCHEM_CACTVS_TPSA>
93.8
> <PUBCHEM_MONOISOTOPIC_WEIGHT>
440.24235551
> <PUBCHEM_TOTAL_CHARGE>
0
> <PUBCHEM_HEAVY_ATOM_COUNT>
32
> <PUBCHEM_ATOM_DEF_STEREO_COUNT>
0
> <PUBCHEM_ATOM_UDEF_STEREO_COUNT>
2
> <PUBCHEM_BOND_DEF_STEREO_COUNT>
0
> <PUBCHEM_BOND_UDEF_STEREO_COUNT>
0
> <PUBCHEM_ISOTOPIC_ATOM_COUNT>
0
> <PUBCHEM_COMPONENT_COUNT>
1
> <PUBCHEM_CACTVS_TAUTO_COUNT>
-1
> <PUBCHEM_COORDINATE_TYPE>
1
5
255
> <PUBCHEM_BONDANNOTATIONS>
15  2  3
20  24  8
20  25  8
22  23  8
22  26  8
23  27  8
24  30  8
25  31  8
26  28  8
27  29  8
28  29  8
30  32  8
31  32  8
9  14  3
$$$$
