511450
  -OEChem-10302200282D
 26 27  0     1  0  0  0  0  0999 V2000
    5.0298   -0.4001    0.0000 O   0  0  0  0  0  0  0  0  0  0  0  0
    2.4608   -0.0911    0.0000 O   0  0  0  0  0  0  0  0  0  0  0  0
    3.1330   -2.1601    0.0000 O   0  0  0  0  0  0  0  0  0  0  0  0
    6.3031   -2.0556    0.0000 O   0  0  0  0  0  0  0  0  0  0  0  0
    4.2208    1.1877    0.0000 N   0  0  0  0  0  0  0  0  0  0  0  0
    3.4118    1.7755    0.0000 N   0  0  0  0  0  0  0  0  0  0  0  0
    4.7208    2.7266    0.0000 N   0  0  0  0  0  0  0  0  0  0  0  0
    5.9809    1.4665    0.0000 N   0  0  0  0  0  0  0  0  0  0  0  0
    3.7208    2.7266    0.0000 N   0  0  0  0  0  0  0  0  0  0  0  0
    3.7208   -1.3511    0.0000 C   0  0  1  0  0  0  0  0  0  0  0  0
    3.4118   -0.4001    0.0000 C   0  0  2  0  0  0  0  0  0  0  0  0
    4.7208   -1.3511    0.0000 C   0  0  1  0  0  0  0  0  0  0  0  0
    4.2208    0.1877    0.0000 C   0  0  1  0  0  0  0  0  0  0  0  0
    5.3086   -2.1601    0.0000 C   0  0  0  0  0  0  0  0  0  0  0  0
    5.0298    1.7755    0.0000 C   0  0  0  0  0  0  0  0  0  0  0  0
    2.9734   -0.8385    0.0000 H   0  0  0  0  0  0  0  0  0  0  0  0
    3.1085   -1.2541    0.0000 H   0  0  0  0  0  0  0  0  0  0  0  0
    5.3332   -1.2541    0.0000 H   0  0  0  0  0  0  0  0  0  0  0  0
    3.6684    0.4692    0.0000 H   0  0  0  0  0  0  0  0  0  0  0  0
    4.7514   -2.4319    0.0000 H   0  0  0  0  0  0  0  0  0  0  0  0
    5.4795   -2.7561    0.0000 H   0  0  0  0  0  0  0  0  0  0  0  0
    2.0000   -0.5059    0.0000 H   0  0  0  0  0  0  0  0  0  0  0  0
    3.3852   -2.7266    0.0000 H   0  0  0  0  0  0  0  0  0  0  0  0
    6.6676   -2.5572    0.0000 H   0  0  0  0  0  0  0  0  0  0  0  0
    6.4416    1.8813    0.0000 H   0  0  0  0  0  0  0  0  0  0  0  0
    6.1098    0.8600    0.0000 H   0  0  0  0  0  0  0  0  0  0  0  0
  1 12  1  0  0  0  0
  1 13  1  0  0  0  0
 11  2  1  1  0  0  0
  2 22  1  0  0  0  0
 10  3  1  1  0  0  0
  3 23  1  0  0  0  0
  4 14  1  0  0  0  0
  4 24  1  0  0  0  0
  5  6  1  0  0  0  0
 13  5  1  6  0  0  0
  5 15  1  0  0  0  0
  6  9  2  0  0  0  0
  7  9  1  0  0  0  0
  7 15  2  0  0  0  0
  8 15  1  0  0  0  0
  8 25  1  0  0  0  0
  8 26  1  0  0  0  0
 10 11  1  0  0  0  0
 10 12  1  0  0  0  0
 10 17  1  0  0  0  0
 11 13  1  0  0  0  0
 11 16  1  0  0  0  0
 12 14  1  6  0  0  0
 12 18  1  0  0  0  0
 13 19  1  0  0  0  0
 14 20  1  0  0  0  0
 14 21  1  0  0  0  0
M  END
> <PUBCHEM_COMPOUND_CID>
511450
> <PUBCHEM_COMPOUND_CANONICALIZED>
1
> <PUBCHEM_CACTVS_COMPLEXITY>
232
> <PUBCHEM_CACTVS_HBOND_ACCEPTOR>
8
> <PUBCHEM_CACTVS_HBOND_DONOR>
4
> <PUBCHEM_CACTVS_ROTATABLE_BOND>
2
> <PUBCHEM_CACTVS_SUBSKEYS>
AAADccBjuAAAAAAAAAAAAAAAAAAAAWJAAAAAAAAAAAAAAAABgAAAHgAYCAAACBThgAYBEAZIBgAiAAAAJAAAAAMAgIAVQAAIAACDEAIAiAAOQAAXAAITAADwMAIAAAAAAAAAAAAAAAAAAAAAAAAAAAAAAA==
> <PUBCHEM_IUPAC_OPENEYE_NAME>
(2R,3R,4S,5R)-2-(5-aminotetrazol-1-yl)-5-(hydroxymethyl)tetrahydrofuran-3,4-diol
> <PUBCHEM_IUPAC_CAS_NAME>
(2R,3R,4S,5R)-2-(5-amino-1-tetrazolyl)-5-(hydroxymethyl)oxolane-3,4-diol
> <PUBCHEM_IUPAC_NAME_MARKUP>
(2<I>R</I>,3<I>R</I>,4<I>S</I>,5<I>R</I>)-2-(5-aminotetrazol-1-yl)-5-(hydroxymethyl)oxolane-3,4-diol
> <PUBCHEM_IUPAC_NAME>
(2R,3R,4S,5R)-2-(5-aminotetrazol-1-yl)-5-(hydroxymethyl)oxolane-3,4-diol
> <PUBCHEM_IUPAC_SYSTEMATIC_NAME>
(2R,3R,4S,5R)-2-(5-azanyl-1,2,3,4-tetrazol-1-yl)-5-(hydroxymethyl)oxolane-3,4-diol
> <PUBCHEM_IUPAC_TRADITIONAL_NAME>
(2R,3R,4S,5R)-2-(5-aminotetrazol-1-yl)-5-methylol-tetrahydrofuran-3,4-diol
> <PUBCHEM_IUPAC_INCHI>
InChI=1S/C6H11N5O4/c7-6-8-9-10-11(6)5-4(14)3(13)2(1-12)15-5/h2-5,12-14H,1H2,(H2,7,8,10)/t2-,3-,4-,5-/m1/s1
> <PUBCHEM_IUPAC_INCHIKEY>
DTLYDEGPRQTWSV-TXICZTDVSA-N
> <PUBCHEM_XLOGP3_AA>
-2.4
> <PUBCHEM_EXACT_MASS>
217.08110385
> <PUBCHEM_MOLECULAR_FORMULA>
C6H11N5O4
> <PUBCHEM_MOLECULAR_WEIGHT>
217.18
> <PUBCHEM_OPENEYE_CAN_SMILES>
C(C1C(C(C(O1)N2C(=NN=N2)N)O)O)O
> <PUBCHEM_OPENEYE_ISO_SMILES>
C([C@@H]1[C@H]([C@H]([C@@H](O1)N2C(=NN=N2)N)O)O)O
> <PUBCHEM_CACTVS_TPSA>
140
> <PUBCHEM_MONOISOTOPIC_WEIGHT>
217.08110385
> <PUBCHEM_TOTAL_CHARGE>
0
> <PUBCHEM_HEAVY_ATOM_COUNT>
15
> <PUBCHEM_ATOM_DEF_STEREO_COUNT>
4
> <PUBCHEM_ATOM_UDEF_STEREO_COUNT>
0
> <PUBCHEM_BOND_DEF_STEREO_COUNT>
0
> <PUBCHEM_BOND_UDEF_STEREO_COUNT>
0
> <PUBCHEM_ISOTOPIC_ATOM_COUNT>
0
> <PUBCHEM_COMPONENT_COUNT>
1
> <PUBCHEM_CACTVS_TAUTO_COUNT>
-1
> <PUBCHEM_COORDINATE_TYPE>
1
5
255
> <PUBCHEM_BONDANNOTATIONS>
12  14  6
11  2  5
10  3  5
13  5  6
5  15  8
5  6  8
6  9  8
7  15  8
7  9  8
$$$$
