511462
  -OEChem-10302200282D
 24 25  0     1  0  0  0  0  0999 V2000
    5.3781   -1.0116    0.0000 O   0  0  0  0  0  0  0  0  0  0  0  0
    6.4659    1.3362    0.0000 O   0  0  0  0  0  0  0  0  0  0  0  0
    4.2903    1.3362    0.0000 O   0  0  0  0  0  0  0  0  0  0  0  0
    7.3461   -1.7110    0.0000 O   0  0  0  0  0  0  0  0  0  0  0  0
    3.6180   -0.7329    0.0000 N   0  0  0  0  0  0  0  0  0  0  0  0
    2.8090   -0.1451    0.0000 N   0  0  0  0  0  0  0  0  0  0  0  0
    2.3090   -1.6839    0.0000 N   0  0  0  0  0  0  0  0  0  0  0  0
    2.0000   -0.7329    0.0000 N   0  0  0  0  0  0  0  0  0  0  0  0
    5.8781    0.5272    0.0000 C   0  0  1  0  0  0  0  0  0  0  0  0
    4.8781    0.5272    0.0000 C   0  0  2  0  0  0  0  0  0  0  0  0
    6.1871   -0.4239    0.0000 C   0  0  1  0  0  0  0  0  0  0  0  0
    4.5691   -0.4239    0.0000 C   0  0  1  0  0  0  0  0  0  0  0  0
    7.1382   -0.7329    0.0000 C   0  0  0  0  0  0  0  0  0  0  0  0
    3.3090   -1.6839    0.0000 C   0  0  0  0  0  0  0  0  0  0  0  0
    5.5966    1.0796    0.0000 H   0  0  0  0  0  0  0  0  0  0  0  0
    5.1596    1.0796    0.0000 H   0  0  0  0  0  0  0  0  0  0  0  0
    6.2841   -1.0362    0.0000 H   0  0  0  0  0  0  0  0  0  0  0  0
    4.1307    0.0145    0.0000 H   0  0  0  0  0  0  0  0  0  0  0  0
    7.7578   -0.7112    0.0000 H   0  0  0  0  0  0  0  0  0  0  0  0
    7.2245   -0.1189    0.0000 H   0  0  0  0  0  0  0  0  0  0  0  0
    7.0825    1.2714    0.0000 H   0  0  0  0  0  0  0  0  0  0  0  0
    4.5425    1.9026    0.0000 H   0  0  0  0  0  0  0  0  0  0  0  0
    3.6734   -2.1855    0.0000 H   0  0  0  0  0  0  0  0  0  0  0  0
    7.9358   -1.9026    0.0000 H   0  0  0  0  0  0  0  0  0  0  0  0
  1 11  1  0  0  0  0
  1 12  1  0  0  0  0
  9  2  1  6  0  0  0
  2 21  1  0  0  0  0
 10  3  1  6  0  0  0
  3 22  1  0  0  0  0
  4 13  1  0  0  0  0
  4 24  1  0  0  0  0
  5  6  1  0  0  0  0
 12  5  1  1  0  0  0
  5 14  1  0  0  0  0
  6  8  2  0  0  0  0
  7  8  1  0  0  0  0
  7 14  2  0  0  0  0
  9 10  1  0  0  0  0
  9 11  1  0  0  0  0
  9 15  1  0  0  0  0
 10 12  1  0  0  0  0
 10 16  1  0  0  0  0
 11 13  1  1  0  0  0
 11 17  1  0  0  0  0
 12 18  1  0  0  0  0
 13 19  1  0  0  0  0
 13 20  1  0  0  0  0
 14 23  1  0  0  0  0
M  END
> <PUBCHEM_COMPOUND_CID>
511462
> <PUBCHEM_COMPOUND_CANONICALIZED>
1
> <PUBCHEM_CACTVS_COMPLEXITY>
206
> <PUBCHEM_CACTVS_HBOND_ACCEPTOR>
7
> <PUBCHEM_CACTVS_HBOND_DONOR>
3
> <PUBCHEM_CACTVS_ROTATABLE_BOND>
2
> <PUBCHEM_CACTVS_SUBSKEYS>
AAADccBjuAAAAAAAAAAAAAAAAAAAAWJAAAAAAAAAAAAAAAABgAAAHgAICAAACBThgAYFEAYIBgAiAAABJAAAAAMQgIAVQAAIAACDEAIAiAAOQAAHAAITAADwMAIAAAAAAAAAAAAAAAAAAAAAAAAAAAAAAA==
> <PUBCHEM_IUPAC_OPENEYE_NAME>
(2R,3S,4R,5R)-2-(hydroxymethyl)-5-(tetrazol-1-yl)tetrahydrofuran-3,4-diol
> <PUBCHEM_IUPAC_CAS_NAME>
(2R,3S,4R,5R)-2-(hydroxymethyl)-5-(1-tetrazolyl)oxolane-3,4-diol
> <PUBCHEM_IUPAC_NAME_MARKUP>
(2<I>R</I>,3<I>S</I>,4<I>R</I>,5<I>R</I>)-2-(hydroxymethyl)-5-(tetrazol-1-yl)oxolane-3,4-diol
> <PUBCHEM_IUPAC_NAME>
(2R,3S,4R,5R)-2-(hydroxymethyl)-5-(tetrazol-1-yl)oxolane-3,4-diol
> <PUBCHEM_IUPAC_SYSTEMATIC_NAME>
(2R,3S,4R,5R)-2-(hydroxymethyl)-5-(1,2,3,4-tetrazol-1-yl)oxolane-3,4-diol
> <PUBCHEM_IUPAC_TRADITIONAL_NAME>
(2R,3S,4R,5R)-2-methylol-5-(tetrazol-1-yl)tetrahydrofuran-3,4-diol
> <PUBCHEM_IUPAC_INCHI>
InChI=1S/C6H10N4O4/c11-1-3-4(12)5(13)6(14-3)10-2-7-8-9-10/h2-6,11-13H,1H2/t3-,4-,5-,6-/m1/s1
> <PUBCHEM_IUPAC_INCHIKEY>
YLTNTJMJKHROKL-KVTDHHQDSA-N
> <PUBCHEM_XLOGP3_AA>
-2
> <PUBCHEM_EXACT_MASS>
202.07020481
> <PUBCHEM_MOLECULAR_FORMULA>
C6H10N4O4
> <PUBCHEM_MOLECULAR_WEIGHT>
202.17
> <PUBCHEM_OPENEYE_CAN_SMILES>
C1=NN=NN1C2C(C(C(O2)CO)O)O
> <PUBCHEM_OPENEYE_ISO_SMILES>
C1=NN=NN1[C@H]2[C@@H]([C@@H]([C@H](O2)CO)O)O
> <PUBCHEM_CACTVS_TPSA>
114
> <PUBCHEM_MONOISOTOPIC_WEIGHT>
202.07020481
> <PUBCHEM_TOTAL_CHARGE>
0
> <PUBCHEM_HEAVY_ATOM_COUNT>
14
> <PUBCHEM_ATOM_DEF_STEREO_COUNT>
4
> <PUBCHEM_ATOM_UDEF_STEREO_COUNT>
0
> <PUBCHEM_BOND_DEF_STEREO_COUNT>
0
> <PUBCHEM_BOND_UDEF_STEREO_COUNT>
0
> <PUBCHEM_ISOTOPIC_ATOM_COUNT>
0
> <PUBCHEM_COMPONENT_COUNT>
1
> <PUBCHEM_CACTVS_TAUTO_COUNT>
-1
> <PUBCHEM_COORDINATE_TYPE>
1
5
255
> <PUBCHEM_BONDANNOTATIONS>
11  13  5
9  2  6
10  3  6
12  5  5
5  14  8
5  6  8
6  8  8
7  14  8
7  8  8
$$$$
