511451
  -OEChem-10302200282D
 26 27  0     1  0  0  0  0  0999 V2000
    5.0298   -1.0878    0.0000 O   0  0  0  0  0  0  0  0  0  0  0  0
    3.1330   -2.8479    0.0000 O   0  0  0  0  0  0  0  0  0  0  0  0
    2.4608   -0.7788    0.0000 O   0  0  0  0  0  0  0  0  0  0  0  0
    6.3031   -2.7433    0.0000 O   0  0  0  0  0  0  0  0  0  0  0  0
    4.2208    0.5000    0.0000 N   0  0  0  0  0  0  0  0  0  0  0  0
    5.0298    1.0878    0.0000 N   0  0  0  0  0  0  0  0  0  0  0  0
    3.4118    1.0878    0.0000 N   0  0  0  0  0  0  0  0  0  0  0  0
    3.7208    2.0388    0.0000 N   0  0  0  0  0  0  0  0  0  0  0  0
    5.3086    2.8479    0.0000 N   0  0  0  0  0  0  0  0  0  0  0  0
    3.7208   -2.0388    0.0000 C   0  0  1  0  0  0  0  0  0  0  0  0
    3.4118   -1.0878    0.0000 C   0  0  2  0  0  0  0  0  0  0  0  0
    4.7208   -2.0388    0.0000 C   0  0  1  0  0  0  0  0  0  0  0  0
    4.2208   -0.5000    0.0000 C   0  0  1  0  0  0  0  0  0  0  0  0
    5.3086   -2.8479    0.0000 C   0  0  0  0  0  0  0  0  0  0  0  0
    4.7208    2.0388    0.0000 C   0  0  0  0  0  0  0  0  0  0  0  0
    4.0023   -2.5913    0.0000 H   0  0  0  0  0  0  0  0  0  0  0  0
    2.9734   -1.5262    0.0000 H   0  0  0  0  0  0  0  0  0  0  0  0
    5.3332   -1.9418    0.0000 H   0  0  0  0  0  0  0  0  0  0  0  0
    3.6684   -0.2185    0.0000 H   0  0  0  0  0  0  0  0  0  0  0  0
    4.7514   -3.1196    0.0000 H   0  0  0  0  0  0  0  0  0  0  0  0
    5.4795   -3.4438    0.0000 H   0  0  0  0  0  0  0  0  0  0  0  0
    3.3852   -3.4143    0.0000 H   0  0  0  0  0  0  0  0  0  0  0  0
    2.0000   -1.1936    0.0000 H   0  0  0  0  0  0  0  0  0  0  0  0
    6.6676   -3.2449    0.0000 H   0  0  0  0  0  0  0  0  0  0  0  0
    5.0564    3.4143    0.0000 H   0  0  0  0  0  0  0  0  0  0  0  0
    5.9252    2.7830    0.0000 H   0  0  0  0  0  0  0  0  0  0  0  0
  1 12  1  0  0  0  0
  1 13  1  0  0  0  0
 10  2  1  1  0  0  0
  2 22  1  0  0  0  0
 11  3  1  1  0  0  0
  3 23  1  0  0  0  0
  4 14  1  0  0  0  0
  4 24  1  0  0  0  0
  5  6  1  0  0  0  0
  5  7  1  0  0  0  0
 13  5  1  6  0  0  0
  6 15  2  0  0  0  0
  7  8  2  0  0  0  0
  8 15  1  0  0  0  0
  9 15  1  0  0  0  0
  9 25  1  0  0  0  0
  9 26  1  0  0  0  0
 10 11  1  0  0  0  0
 10 12  1  0  0  0  0
 10 16  1  0  0  0  0
 11 13  1  0  0  0  0
 11 17  1  0  0  0  0
 12 14  1  6  0  0  0
 12 18  1  0  0  0  0
 13 19  1  0  0  0  0
 14 20  1  0  0  0  0
 14 21  1  0  0  0  0
M  END
> <PUBCHEM_COMPOUND_CID>
511451
> <PUBCHEM_COMPOUND_CANONICALIZED>
1
> <PUBCHEM_CACTVS_COMPLEXITY>
232
> <PUBCHEM_CACTVS_HBOND_ACCEPTOR>
8
> <PUBCHEM_CACTVS_HBOND_DONOR>
4
> <PUBCHEM_CACTVS_ROTATABLE_BOND>
2
> <PUBCHEM_CACTVS_SUBSKEYS>
AAADccBjuAAAAAAAAAAAAAAAAAAAAWJAAAAAAAAAAAAAAAABgAAAHgAYCAAACBThgAYBEARABgAiAAAAIAAQAAIAgAAUAAAAAAADEAIAgAAKQAAXAAADAADwMAAAAAAAAAAAAAAAAAAAAAAAAAAAAAAAAA==
> <PUBCHEM_IUPAC_OPENEYE_NAME>
(2R,3R,4S,5R)-2-(5-aminotetrazol-2-yl)-5-(hydroxymethyl)tetrahydrofuran-3,4-diol
> <PUBCHEM_IUPAC_CAS_NAME>
(2R,3R,4S,5R)-2-(5-amino-2-tetrazolyl)-5-(hydroxymethyl)oxolane-3,4-diol
> <PUBCHEM_IUPAC_NAME_MARKUP>
(2<I>R</I>,3<I>R</I>,4<I>S</I>,5<I>R</I>)-2-(5-aminotetrazol-2-yl)-5-(hydroxymethyl)oxolane-3,4-diol
> <PUBCHEM_IUPAC_NAME>
(2R,3R,4S,5R)-2-(5-aminotetrazol-2-yl)-5-(hydroxymethyl)oxolane-3,4-diol
> <PUBCHEM_IUPAC_SYSTEMATIC_NAME>
(2R,3R,4S,5R)-2-(5-azanyl-1,2,3,4-tetrazol-2-yl)-5-(hydroxymethyl)oxolane-3,4-diol
> <PUBCHEM_IUPAC_TRADITIONAL_NAME>
(2R,3R,4S,5R)-2-(5-aminotetrazol-2-yl)-5-methylol-tetrahydrofuran-3,4-diol
> <PUBCHEM_IUPAC_INCHI>
InChI=1S/C6H11N5O4/c7-6-8-10-11(9-6)5-4(14)3(13)2(1-12)15-5/h2-5,12-14H,1H2,(H2,7,9)/t2-,3-,4-,5-/m1/s1
> <PUBCHEM_IUPAC_INCHIKEY>
RYUHPUWVZKRLLB-TXICZTDVSA-N
> <PUBCHEM_XLOGP3_AA>
-1.8
> <PUBCHEM_EXACT_MASS>
217.08110385
> <PUBCHEM_MOLECULAR_FORMULA>
C6H11N5O4
> <PUBCHEM_MOLECULAR_WEIGHT>
217.18
> <PUBCHEM_OPENEYE_CAN_SMILES>
C(C1C(C(C(O1)N2N=C(N=N2)N)O)O)O
> <PUBCHEM_OPENEYE_ISO_SMILES>
C([C@@H]1[C@H]([C@H]([C@@H](O1)N2N=C(N=N2)N)O)O)O
> <PUBCHEM_CACTVS_TPSA>
140
> <PUBCHEM_MONOISOTOPIC_WEIGHT>
217.08110385
> <PUBCHEM_TOTAL_CHARGE>
0
> <PUBCHEM_HEAVY_ATOM_COUNT>
15
> <PUBCHEM_ATOM_DEF_STEREO_COUNT>
4
> <PUBCHEM_ATOM_UDEF_STEREO_COUNT>
0
> <PUBCHEM_BOND_DEF_STEREO_COUNT>
0
> <PUBCHEM_BOND_UDEF_STEREO_COUNT>
0
> <PUBCHEM_ISOTOPIC_ATOM_COUNT>
0
> <PUBCHEM_COMPONENT_COUNT>
1
> <PUBCHEM_CACTVS_TAUTO_COUNT>
-1
> <PUBCHEM_COORDINATE_TYPE>
1
5
255
> <PUBCHEM_BONDANNOTATIONS>
12  14  6
10  2  5
11  3  5
13  5  6
5  6  8
5  7  8
6  15  8
7  8  8
8  15  8
$$$$
