511478
  -OEChem-10302200282D
 52 53  0     1  0  0  0  0  0999 V2000
    6.8301    3.3660    0.0000 Cl  0  0  0  0  0  0  0  0  0  0  0  0
    7.1962    2.0000    0.0000 Cl  0  0  0  0  0  0  0  0  0  0  0  0
    5.8301    1.6340    0.0000 Cl  0  0  0  0  0  0  0  0  0  0  0  0
    7.1962    4.0000    0.0000 O   0  0  0  0  0  0  0  0  0  0  0  0
    5.4641    1.0000    0.0000 O   0  0  0  0  0  0  0  0  0  0  0  0
    5.4641    4.0000    0.0000 N   0  0  0  0  0  0  0  0  0  0  0  0
    4.5981    2.5000    0.0000 N   0  0  0  0  0  0  0  0  0  0  0  0
    3.7320    1.0000    0.0000 N   0  0  0  0  0  0  0  0  0  0  0  0
    3.7320   -3.0000    0.0000 N   0  0  0  0  0  0  0  0  0  0  0  0
    2.8660   -3.5000    0.0000 N   0  0  0  0  0  0  0  0  0  0  0  0
    6.3301    5.5000    0.0000 C   0  0  0  0  0  0  0  0  0  0  0  0
    6.3301    4.5000    0.0000 C   0  0  0  0  0  0  0  0  0  0  0  0
    6.3301    6.5000    0.0000 C   0  0  0  0  0  0  0  0  0  0  0  0
    7.3301    5.5000    0.0000 C   0  0  0  0  0  0  0  0  0  0  0  0
    5.3301    5.5000    0.0000 C   0  0  0  0  0  0  0  0  0  0  0  0
    5.4641    3.0000    0.0000 C   0  0  3  0  0  0  0  0  0  0  0  0
    6.3301    2.5000    0.0000 C   0  0  0  0  0  0  0  0  0  0  0  0
    4.5981    1.5000    0.0000 C   0  0  0  0  0  0  0  0  0  0  0  0
    3.7320   -0.0000    0.0000 C   0  0  0  0  0  0  0  0  0  0  0  0
    2.8660   -0.5000    0.0000 C   0  0  0  0  0  0  0  0  0  0  0  0
    4.5981   -0.5000    0.0000 C   0  0  0  0  0  0  0  0  0  0  0  0
    2.8660   -1.5000    0.0000 C   0  0  0  0  0  0  0  0  0  0  0  0
    4.5981   -1.5000    0.0000 C   0  0  0  0  0  0  0  0  0  0  0  0
    3.7320   -2.0000    0.0000 C   0  0  0  0  0  0  0  0  0  0  0  0
    2.8660   -4.5000    0.0000 C   0  0  0  0  0  0  0  0  0  0  0  0
    3.7320   -5.0000    0.0000 C   0  0  0  0  0  0  0  0  0  0  0  0
    2.0000   -5.0000    0.0000 C   0  0  0  0  0  0  0  0  0  0  0  0
    3.7320   -6.0000    0.0000 C   0  0  0  0  0  0  0  0  0  0  0  0
    2.0000   -6.0000    0.0000 C   0  0  0  0  0  0  0  0  0  0  0  0
    2.8660   -6.5000    0.0000 C   0  0  0  0  0  0  0  0  0  0  0  0
    6.9501    6.5000    0.0000 H   0  0  0  0  0  0  0  0  0  0  0  0
    6.3301    7.1200    0.0000 H   0  0  0  0  0  0  0  0  0  0  0  0
    5.7101    6.5000    0.0000 H   0  0  0  0  0  0  0  0  0  0  0  0
    7.3301    4.8800    0.0000 H   0  0  0  0  0  0  0  0  0  0  0  0
    7.9501    5.5000    0.0000 H   0  0  0  0  0  0  0  0  0  0  0  0
    7.3301    6.1200    0.0000 H   0  0  0  0  0  0  0  0  0  0  0  0
    5.3301    6.1200    0.0000 H   0  0  0  0  0  0  0  0  0  0  0  0
    4.7101    5.5000    0.0000 H   0  0  0  0  0  0  0  0  0  0  0  0
    5.3301    4.8800    0.0000 H   0  0  0  0  0  0  0  0  0  0  0  0
    5.4641    2.3800    0.0000 H   0  0  0  0  0  0  0  0  0  0  0  0
    4.9272    4.3100    0.0000 H   0  0  0  0  0  0  0  0  0  0  0  0
    4.0611    2.8100    0.0000 H   0  0  0  0  0  0  0  0  0  0  0  0
    3.1951    1.3100    0.0000 H   0  0  0  0  0  0  0  0  0  0  0  0
    2.3291   -0.1900    0.0000 H   0  0  0  0  0  0  0  0  0  0  0  0
    5.1350   -0.1900    0.0000 H   0  0  0  0  0  0  0  0  0  0  0  0
    2.3291   -1.8100    0.0000 H   0  0  0  0  0  0  0  0  0  0  0  0
    5.1350   -1.8100    0.0000 H   0  0  0  0  0  0  0  0  0  0  0  0
    4.2690   -4.6900    0.0000 H   0  0  0  0  0  0  0  0  0  0  0  0
    1.4631   -4.6900    0.0000 H   0  0  0  0  0  0  0  0  0  0  0  0
    4.2690   -6.3100    0.0000 H   0  0  0  0  0  0  0  0  0  0  0  0
    1.4631   -6.3100    0.0000 H   0  0  0  0  0  0  0  0  0  0  0  0
    2.8660   -7.1200    0.0000 H   0  0  0  0  0  0  0  0  0  0  0  0
  1 17  1  0  0  0  0
  2 17  1  0  0  0  0
  3 17  1  0  0  0  0
  4 12  2  0  0  0  0
  5 18  2  0  0  0  0
  6 12  1  0  0  0  0
  6 16  1  0  0  0  0
  6 41  1  0  0  0  0
  7 16  1  0  0  0  0
  7 18  1  0  0  0  0
  7 42  1  0  0  0  0
  8 18  1  0  0  0  0
  8 19  1  0  0  0  0
  8 43  1  0  0  0  0
  9 10  2  0  0  0  0
  9 24  1  0  0  0  0
 10 25  1  0  0  0  0
 11 12  1  0  0  0  0
 11 13  1  0  0  0  0
 11 14  1  0  0  0  0
 11 15  1  0  0  0  0
 13 31  1  0  0  0  0
 13 32  1  0  0  0  0
 13 33  1  0  0  0  0
 14 34  1  0  0  0  0
 14 35  1  0  0  0  0
 14 36  1  0  0  0  0
 15 37  1  0  0  0  0
 15 38  1  0  0  0  0
 15 39  1  0  0  0  0
 16 17  1  0  0  0  0
 16 40  1  0  0  0  0
 19 20  2  0  0  0  0
 19 21  1  0  0  0  0
 20 22  1  0  0  0  0
 20 44  1  0  0  0  0
 21 23  2  0  0  0  0
 21 45  1  0  0  0  0
 22 24  2  0  0  0  0
 22 46  1  0  0  0  0
 23 24  1  0  0  0  0
 23 47  1  0  0  0  0
 25 26  2  0  0  0  0
 25 27  1  0  0  0  0
 26 28  1  0  0  0  0
 26 48  1  0  0  0  0
 27 29  2  0  0  0  0
 27 49  1  0  0  0  0
 28 30  2  0  0  0  0
 28 50  1  0  0  0  0
 29 30  1  0  0  0  0
 29 51  1  0  0  0  0
 30 52  1  0  0  0  0
M  END
> <PUBCHEM_COMPOUND_CID>
511478
> <PUBCHEM_COMPOUND_CANONICALIZED>
1
> <PUBCHEM_CACTVS_COMPLEXITY>
605
> <PUBCHEM_CACTVS_HBOND_ACCEPTOR>
4
> <PUBCHEM_CACTVS_HBOND_DONOR>
3
> <PUBCHEM_CACTVS_ROTATABLE_BOND>
6
> <PUBCHEM_CACTVS_SUBSKEYS>
AAADceB7sAAGAAAAAAAAAAAAAAAAAAAAAAAwYAAAAAAAAAABQAAAHgIYAAAADgrBkIQzwILAAACKACVSUACCAAAhAgAIiIEIZIiIICLAkZHEIAholwLIyCcQAAAAAACAAAAAAAAAAQAAAAAAAAAAAAAAAA==
> <PUBCHEM_IUPAC_OPENEYE_NAME>
2,2-dimethyl-N-[2,2,2-trichloro-1-[(4-phenylazophenyl)carbamoylamino]ethyl]propanamide
> <PUBCHEM_IUPAC_CAS_NAME>
2,2-dimethyl-N-[2,2,2-trichloro-1-[[oxo-(4-phenyldiazenylanilino)methyl]amino]ethyl]propanamide
> <PUBCHEM_IUPAC_NAME_MARKUP>
2,2-dimethyl-<I>N</I>-[2,2,2-trichloro-1-[(4-phenyldiazenylphenyl)carbamoylamino]ethyl]propanamide
> <PUBCHEM_IUPAC_NAME>
2,2-dimethyl-N-[2,2,2-trichloro-1-[(4-phenyldiazenylphenyl)carbamoylamino]ethyl]propanamide
> <PUBCHEM_IUPAC_SYSTEMATIC_NAME>
2,2-dimethyl-N-[2,2,2-tris(chloranyl)-1-[(4-phenyldiazenylphenyl)carbamoylamino]ethyl]propanamide
> <PUBCHEM_IUPAC_TRADITIONAL_NAME>
2,2-dimethyl-N-[2,2,2-trichloro-1-[(4-phenylazophenyl)carbamoylamino]ethyl]propionamide
> <PUBCHEM_IUPAC_INCHI>
InChI=1S/C20H22Cl3N5O2/c1-19(2,3)17(29)25-16(20(21,22)23)26-18(30)24-13-9-11-15(12-10-13)28-27-14-7-5-4-6-8-14/h4-12,16H,1-3H3,(H,25,29)(H2,24,26,30)
> <PUBCHEM_IUPAC_INCHIKEY>
OBKPXEXZXOSAPL-UHFFFAOYSA-N
> <PUBCHEM_XLOGP3_AA>
5.4
> <PUBCHEM_EXACT_MASS>
469.083908
> <PUBCHEM_MOLECULAR_FORMULA>
C20H22Cl3N5O2
> <PUBCHEM_MOLECULAR_WEIGHT>
470.8
> <PUBCHEM_OPENEYE_CAN_SMILES>
CC(C)(C)C(=O)NC(C(Cl)(Cl)Cl)NC(=O)NC1=CC=C(C=C1)N=NC2=CC=CC=C2
> <PUBCHEM_OPENEYE_ISO_SMILES>
CC(C)(C)C(=O)NC(C(Cl)(Cl)Cl)NC(=O)NC1=CC=C(C=C1)N=NC2=CC=CC=C2
> <PUBCHEM_CACTVS_TPSA>
95
> <PUBCHEM_MONOISOTOPIC_WEIGHT>
469.083908
> <PUBCHEM_TOTAL_CHARGE>
0
> <PUBCHEM_HEAVY_ATOM_COUNT>
30
> <PUBCHEM_ATOM_DEF_STEREO_COUNT>
0
> <PUBCHEM_ATOM_UDEF_STEREO_COUNT>
1
> <PUBCHEM_BOND_DEF_STEREO_COUNT>
0
> <PUBCHEM_BOND_UDEF_STEREO_COUNT>
0
> <PUBCHEM_ISOTOPIC_ATOM_COUNT>
0
> <PUBCHEM_COMPONENT_COUNT>
1
> <PUBCHEM_CACTVS_TAUTO_COUNT>
-1
> <PUBCHEM_COORDINATE_TYPE>
1
5
255
> <PUBCHEM_BONDANNOTATIONS>
16  17  3
19  20  8
19  21  8
20  22  8
21  23  8
22  24  8
23  24  8
25  26  8
25  27  8
26  28  8
27  29  8
28  30  8
29  30  8
$$$$
