511489
  -OEChem-10302200282D
 42 44  0     1  0  0  0  0  0999 V2000
    2.5369   -0.8091    0.0000 Cl  0  0  0  0  0  0  0  0  0  0  0  0
    6.0812   -0.6138    0.0000 O   0  0  0  0  0  0  0  0  0  0  0  0
    2.5369    1.1909    0.0000 O   0  0  0  0  0  0  0  0  0  0  0  0
    4.2690    2.1909    0.0000 O   0  0  0  0  0  0  0  0  0  0  0  0
    2.5369   -1.8091    0.0000 O   0  0  0  0  0  0  0  0  0  0  0  0
    6.0010   -1.8091    0.0000 O   0  0  0  0  0  0  0  0  0  0  0  0
    5.7240    2.6904    0.0000 O   0  0  0  0  0  0  0  0  0  0  0  0
    4.2690   -0.8091    0.0000 C   0  0  0  0  0  0  0  0  0  0  0  0
    4.2690   -1.8091    0.0000 C   0  0  0  0  0  0  0  0  0  0  0  0
    5.1350   -0.3091    0.0000 C   0  0  0  0  0  0  0  0  0  0  0  0
    5.1350    0.6909    0.0000 C   0  0  0  0  0  0  0  0  0  0  0  0
    3.4030    0.6909    0.0000 C   0  0  3  0  0  0  0  0  0  0  0  0
    3.4030   -0.3091    0.0000 C   0  0  0  0  0  0  0  0  0  0  0  0
    4.2690    1.1909    0.0000 C   0  0  0  0  0  0  0  0  0  0  0  0
    6.0812    0.9956    0.0000 C   0  0  0  0  0  0  0  0  0  0  0  0
    3.4030   -2.3091    0.0000 C   0  0  0  0  0  0  0  0  0  0  0  0
    5.1350   -2.3091    0.0000 C   0  0  0  0  0  0  0  0  0  0  0  0
    6.6648    0.1909    0.0000 C   0  0  0  0  0  0  0  0  0  0  0  0
    6.3919    1.9462    0.0000 C   0  0  0  0  0  0  0  0  0  0  0  0
    3.4030   -3.3091    0.0000 C   0  0  0  0  0  0  0  0  0  0  0  0
    5.1350   -3.3091    0.0000 C   0  0  0  0  0  0  0  0  0  0  0  0
    7.3704    2.1524    0.0000 C   0  0  0  0  0  0  0  0  0  0  0  0
    7.6811    3.1029    0.0000 C   0  0  0  0  0  0  0  0  0  0  0  0
    8.0382    1.4081    0.0000 C   0  0  0  0  0  0  0  0  0  0  0  0
    8.6596    3.3091    0.0000 C   0  0  0  0  0  0  0  0  0  0  0  0
    9.0168    1.6143    0.0000 C   0  0  0  0  0  0  0  0  0  0  0  0
    9.3274    2.5648    0.0000 C   0  0  0  0  0  0  0  0  0  0  0  0
    4.2690   -2.4291    0.0000 H   0  0  0  0  0  0  0  0  0  0  0  0
    3.4030    1.3109    0.0000 H   0  0  0  0  0  0  0  0  0  0  0  0
    7.2848    0.1909    0.0000 H   0  0  0  0  0  0  0  0  0  0  0  0
    2.7830   -3.3091    0.0000 H   0  0  0  0  0  0  0  0  0  0  0  0
    3.4030   -3.9291    0.0000 H   0  0  0  0  0  0  0  0  0  0  0  0
    4.0230   -3.3091    0.0000 H   0  0  0  0  0  0  0  0  0  0  0  0
    4.5150   -3.3091    0.0000 H   0  0  0  0  0  0  0  0  0  0  0  0
    5.1350   -3.9291    0.0000 H   0  0  0  0  0  0  0  0  0  0  0  0
    5.7550   -3.3091    0.0000 H   0  0  0  0  0  0  0  0  0  0  0  0
    2.0000    0.8809    0.0000 H   0  0  0  0  0  0  0  0  0  0  0  0
    7.2670    3.5644    0.0000 H   0  0  0  0  0  0  0  0  0  0  0  0
    7.8456    0.8187    0.0000 H   0  0  0  0  0  0  0  0  0  0  0  0
    8.8522    3.8984    0.0000 H   0  0  0  0  0  0  0  0  0  0  0  0
    9.4308    1.1528    0.0000 H   0  0  0  0  0  0  0  0  0  0  0  0
    9.9341    2.6927    0.0000 H   0  0  0  0  0  0  0  0  0  0  0  0
  1 13  1  0  0  0  0
  2 10  1  0  0  0  0
  2 18  1  0  0  0  0
  3 12  1  0  0  0  0
  3 37  1  0  0  0  0
  4 14  2  0  0  0  0
  5 16  2  0  0  0  0
  6 17  2  0  0  0  0
  7 19  2  0  0  0  0
  8  9  1  0  0  0  0
  8 10  1  0  0  0  0
  8 13  2  0  0  0  0
  9 16  1  0  0  0  0
  9 17  1  0  0  0  0
  9 28  1  0  0  0  0
 10 11  2  0  0  0  0
 11 14  1  0  0  0  0
 11 15  1  0  0  0  0
 12 13  1  0  0  0  0
 12 14  1  0  0  0  0
 12 29  1  0  0  0  0
 15 18  2  0  0  0  0
 15 19  1  0  0  0  0
 16 20  1  0  0  0  0
 17 21  1  0  0  0  0
 18 30  1  0  0  0  0
 19 22  1  0  0  0  0
 20 31  1  0  0  0  0
 20 32  1  0  0  0  0
 20 33  1  0  0  0  0
 21 34  1  0  0  0  0
 21 35  1  0  0  0  0
 21 36  1  0  0  0  0
 22 23  2  0  0  0  0
 22 24  1  0  0  0  0
 23 25  1  0  0  0  0
 23 38  1  0  0  0  0
 24 26  2  0  0  0  0
 24 39  1  0  0  0  0
 25 27  2  0  0  0  0
 25 40  1  0  0  0  0
 26 27  1  0  0  0  0
 26 41  1  0  0  0  0
 27 42  1  0  0  0  0
M  END
> <PUBCHEM_COMPOUND_CID>
511489
> <PUBCHEM_COMPOUND_CANONICALIZED>
1
> <PUBCHEM_CACTVS_COMPLEXITY>
691
> <PUBCHEM_CACTVS_HBOND_ACCEPTOR>
6
> <PUBCHEM_CACTVS_HBOND_DONOR>
1
> <PUBCHEM_CACTVS_ROTATABLE_BOND>
5
> <PUBCHEM_CACTVS_SUBSKEYS>
AAADccB4OAAEAAAAAAAAAAAAAAAAASAAAAAwQAAAAAAAAEABwAAAGgIACAAADRagmAIyBIAABkCIAqhSgAICCAAkIAAIiAFEC8gMNjaNNRqCeWCk4BEIuYfL7PzOgAAAAAAAAAAAAAAAAAAAAAAAAAAAAA==
> <PUBCHEM_IUPAC_OPENEYE_NAME>
3-(3-benzoyl-6-chloro-5-hydroxy-4-oxo-5H-benzofuran-7-yl)pentane-2,4-dione
> <PUBCHEM_IUPAC_CAS_NAME>
3-(3-benzoyl-6-chloro-5-hydroxy-4-oxo-5H-benzofuran-7-yl)pentane-2,4-dione
> <PUBCHEM_IUPAC_NAME_MARKUP>
3-(3-benzoyl-6-chloro-5-hydroxy-4-oxo-5<I>H</I>-1-benzofuran-7-yl)pentane-2,4-dione
> <PUBCHEM_IUPAC_NAME>
3-(3-benzoyl-6-chloro-5-hydroxy-4-oxo-5H-1-benzofuran-7-yl)pentane-2,4-dione
> <PUBCHEM_IUPAC_SYSTEMATIC_NAME>
3-[6-chloranyl-5-oxidanyl-4-oxidanylidene-3-(phenylcarbonyl)-5H-1-benzofuran-7-yl]pentane-2,4-dione
> <PUBCHEM_IUPAC_TRADITIONAL_NAME>
3-(3-benzoyl-6-chloro-5-hydroxy-4-keto-5H-benzofuran-7-yl)pentane-2,4-dione
> <PUBCHEM_IUPAC_INCHI>
InChI=1S/C20H15ClO6/c1-9(22)13(10(2)23)15-16(21)19(26)18(25)14-12(8-27-20(14)15)17(24)11-6-4-3-5-7-11/h3-8,13,19,26H,1-2H3
> <PUBCHEM_IUPAC_INCHIKEY>
VTGDXBTXEHHJLL-UHFFFAOYSA-N
> <PUBCHEM_XLOGP3_AA>
1.5
> <PUBCHEM_EXACT_MASS>
386.0557159
> <PUBCHEM_MOLECULAR_FORMULA>
C20H15ClO6
> <PUBCHEM_MOLECULAR_WEIGHT>
386.8
> <PUBCHEM_OPENEYE_CAN_SMILES>
CC(=O)C(C1=C(C(C(=O)C2=C1OC=C2C(=O)C3=CC=CC=C3)O)Cl)C(=O)C
> <PUBCHEM_OPENEYE_ISO_SMILES>
CC(=O)C(C1=C(C(C(=O)C2=C1OC=C2C(=O)C3=CC=CC=C3)O)Cl)C(=O)C
> <PUBCHEM_CACTVS_TPSA>
102
> <PUBCHEM_MONOISOTOPIC_WEIGHT>
386.0557159
> <PUBCHEM_TOTAL_CHARGE>
0
> <PUBCHEM_HEAVY_ATOM_COUNT>
27
> <PUBCHEM_ATOM_DEF_STEREO_COUNT>
0
> <PUBCHEM_ATOM_UDEF_STEREO_COUNT>
1
> <PUBCHEM_BOND_DEF_STEREO_COUNT>
0
> <PUBCHEM_BOND_UDEF_STEREO_COUNT>
0
> <PUBCHEM_ISOTOPIC_ATOM_COUNT>
0
> <PUBCHEM_COMPONENT_COUNT>
1
> <PUBCHEM_CACTVS_TAUTO_COUNT>
-1
> <PUBCHEM_COORDINATE_TYPE>
1
5
255
> <PUBCHEM_BONDANNOTATIONS>
10  11  8
11  15  8
15  18  8
2  10  8
2  18  8
22  23  8
22  24  8
23  25  8
24  26  8
25  27  8
26  27  8
12  3  3
$$$$
