511475
  -OEChem-10302200282D
 64 66  0     1  0  0  0  0  0999 V2000
   10.6782    4.8097    0.0000 O   0  0  0  0  0  0  0  0  0  0  0  0
    7.1602    1.7646    0.0000 N   0  0  3  0  0  0  0  0  0  0  0  0
    5.3602    1.7438    0.0000 N   0  0  0  0  0  0  0  0  0  0  0  0
    6.2778    0.2300    0.0000 N   0  0  0  0  0  0  0  0  0  0  0  0
    7.1602    2.7646    0.0000 C   0  0  3  0  0  0  0  0  0  0  0  0
    6.2662    1.2299    0.0000 C   0  0  3  0  0  0  0  0  0  0  0  0
    6.2662    3.2992    0.0000 C   0  0  0  0  0  0  0  0  0  0  0  0
    8.0262    1.2646    0.0000 C   0  0  0  0  0  0  0  0  0  0  0  0
    8.0262    3.2646    0.0000 C   0  0  0  0  0  0  0  0  0  0  0  0
    5.3602    2.7854    0.0000 C   0  0  0  0  0  0  0  0  0  0  0  0
    8.8922    1.7646    0.0000 C   0  0  0  0  0  0  0  0  0  0  0  0
    8.8922    2.7646    0.0000 C   0  0  0  0  0  0  0  0  0  0  0  0
    8.0102    4.3061    0.0000 C   0  0  0  0  0  0  0  0  0  0  0  0
    5.4176   -0.2800    0.0000 C   0  0  0  0  0  0  0  0  0  0  0  0
    9.8022    3.2714    0.0000 C   0  0  0  0  0  0  0  0  0  0  0  0
    5.4292   -1.2799    0.0000 C   0  0  0  0  0  0  0  0  0  0  0  0
    8.9082    4.8338    0.0000 C   0  0  0  0  0  0  0  0  0  0  0  0
    9.8103    4.3130    0.0000 C   0  0  0  0  0  0  0  0  0  0  0  0
    4.5690   -1.7899    0.0000 C   0  0  0  0  0  0  0  0  0  0  0  0
    4.5806   -2.7898    0.0000 C   0  0  0  0  0  0  0  0  0  0  0  0
    3.7204   -3.2998    0.0000 C   0  0  0  0  0  0  0  0  0  0  0  0
    3.7319   -4.2998    0.0000 C   0  0  0  0  0  0  0  0  0  0  0  0
    2.8718   -4.8097    0.0000 C   0  0  0  0  0  0  0  0  0  0  0  0
   10.6821    5.8097    0.0000 C   0  0  0  0  0  0  0  0  0  0  0  0
    2.8833   -5.8097    0.0000 C   0  0  0  0  0  0  0  0  0  0  0  0
    2.0000   -4.3198    0.0000 C   0  0  0  0  0  0  0  0  0  0  0  0
    4.6037   -4.7897    0.0000 C   0  0  0  0  0  0  0  0  0  0  0  0
    7.1650    3.3846    0.0000 H   0  0  0  0  0  0  0  0  0  0  0  0
    6.8073    0.9272    0.0000 H   0  0  0  0  0  0  0  0  0  0  0  0
    6.6708    3.7690    0.0000 H   0  0  0  0  0  0  0  0  0  0  0  0
    5.8726    3.7783    0.0000 H   0  0  0  0  0  0  0  0  0  0  0  0
    7.6277    0.7896    0.0000 H   0  0  0  0  0  0  0  0  0  0  0  0
    8.4247    0.7896    0.0000 H   0  0  0  0  0  0  0  0  0  0  0  0
    5.1511    3.3691    0.0000 H   0  0  0  0  0  0  0  0  0  0  0  0
    4.7493    2.6793    0.0000 H   0  0  0  0  0  0  0  0  0  0  0  0
    9.1043    1.1820    0.0000 H   0  0  0  0  0  0  0  0  0  0  0  0
    9.5028    1.8722    0.0000 H   0  0  0  0  0  0  0  0  0  0  0  0
    4.8244    1.4317    0.0000 H   0  0  0  0  0  0  0  0  0  0  0  0
    6.8183   -0.0738    0.0000 H   0  0  0  0  0  0  0  0  0  0  0  0
    7.4697    4.6098    0.0000 H   0  0  0  0  0  0  0  0  0  0  0  0
    5.1988    0.3001    0.0000 H   0  0  0  0  0  0  0  0  0  0  0  0
    4.8083   -0.3947    0.0000 H   0  0  0  0  0  0  0  0  0  0  0  0
   10.3355    2.9552    0.0000 H   0  0  0  0  0  0  0  0  0  0  0  0
    5.6480   -1.8600    0.0000 H   0  0  0  0  0  0  0  0  0  0  0  0
    6.0385   -1.1652    0.0000 H   0  0  0  0  0  0  0  0  0  0  0  0
    8.9058    5.4538    0.0000 H   0  0  0  0  0  0  0  0  0  0  0  0
    4.3502   -1.2098    0.0000 H   0  0  0  0  0  0  0  0  0  0  0  0
    3.9597   -1.9046    0.0000 H   0  0  0  0  0  0  0  0  0  0  0  0
    4.7993   -3.3700    0.0000 H   0  0  0  0  0  0  0  0  0  0  0  0
    5.1898   -2.6751    0.0000 H   0  0  0  0  0  0  0  0  0  0  0  0
    3.5016   -2.7197    0.0000 H   0  0  0  0  0  0  0  0  0  0  0  0
    3.1111   -3.4145    0.0000 H   0  0  0  0  0  0  0  0  0  0  0  0
    2.3384   -5.1259    0.0000 H   0  0  0  0  0  0  0  0  0  0  0  0
   11.3021    5.8073    0.0000 H   0  0  0  0  0  0  0  0  0  0  0  0
   10.6845    6.4297    0.0000 H   0  0  0  0  0  0  0  0  0  0  0  0
   10.0621    5.8121    0.0000 H   0  0  0  0  0  0  0  0  0  0  0  0
    2.2634   -5.8168    0.0000 H   0  0  0  0  0  0  0  0  0  0  0  0
    2.8905   -6.4296    0.0000 H   0  0  0  0  0  0  0  0  0  0  0  0
    3.5033   -5.8025    0.0000 H   0  0  0  0  0  0  0  0  0  0  0  0
    2.3038   -3.7793    0.0000 H   0  0  0  0  0  0  0  0  0  0  0  0
    1.4595   -4.0160    0.0000 H   0  0  0  0  0  0  0  0  0  0  0  0
    1.6962   -4.8603    0.0000 H   0  0  0  0  0  0  0  0  0  0  0  0
    4.6108   -5.4097    0.0000 H   0  0  0  0  0  0  0  0  0  0  0  0
    5.1370   -4.4735    0.0000 H   0  0  0  0  0  0  0  0  0  0  0  0
  1 18  1  0  0  0  0
  1 24  1  0  0  0  0
  2  5  1  0  0  0  0
  2  6  1  0  0  0  0
  2  8  1  0  0  0  0
  3  6  1  0  0  0  0
  3 10  1  0  0  0  0
  3 38  1  0  0  0  0
  4  6  1  0  0  0  0
  4 14  1  0  0  0  0
  4 39  1  0  0  0  0
  5  7  1  0  0  0  0
  5  9  1  0  0  0  0
  5 28  1  0  0  0  0
  6 29  1  0  0  0  0
  7 10  1  0  0  0  0
  7 30  1  0  0  0  0
  7 31  1  0  0  0  0
  8 11  1  0  0  0  0
  8 32  1  0  0  0  0
  8 33  1  0  0  0  0
  9 12  2  0  0  0  0
  9 13  1  0  0  0  0
 10 34  1  0  0  0  0
 10 35  1  0  0  0  0
 11 12  1  0  0  0  0
 11 36  1  0  0  0  0
 11 37  1  0  0  0  0
 12 15  1  0  0  0  0
 13 17  2  0  0  0  0
 13 40  1  0  0  0  0
 14 16  1  0  0  0  0
 14 41  1  0  0  0  0
 14 42  1  0  0  0  0
 15 18  2  0  0  0  0
 15 43  1  0  0  0  0
 16 19  1  0  0  0  0
 16 44  1  0  0  0  0
 16 45  1  0  0  0  0
 17 18  1  0  0  0  0
 17 46  1  0  0  0  0
 19 20  1  0  0  0  0
 19 47  1  0  0  0  0
 19 48  1  0  0  0  0
 20 21  1  0  0  0  0
 20 49  1  0  0  0  0
 20 50  1  0  0  0  0
 21 22  1  0  0  0  0
 21 51  1  0  0  0  0
 21 52  1  0  0  0  0
 22 23  1  0  0  0  0
 22 27  2  0  0  0  0
 23 25  1  0  0  0  0
 23 26  1  0  0  0  0
 23 53  1  0  0  0  0
 24 54  1  0  0  0  0
 24 55  1  0  0  0  0
 24 56  1  0  0  0  0
 25 57  1  0  0  0  0
 25 58  1  0  0  0  0
 25 59  1  0  0  0  0
 26 60  1  0  0  0  0
 26 61  1  0  0  0  0
 26 62  1  0  0  0  0
 27 63  1  0  0  0  0
 27 64  1  0  0  0  0
M  END
> <PUBCHEM_COMPOUND_CID>
511475
> <PUBCHEM_COMPOUND_CANONICALIZED>
1
> <PUBCHEM_CACTVS_COMPLEXITY>
467
> <PUBCHEM_CACTVS_HBOND_ACCEPTOR>
4
> <PUBCHEM_CACTVS_HBOND_DONOR>
2
> <PUBCHEM_CACTVS_ROTATABLE_BOND>
9
> <PUBCHEM_CACTVS_SUBSKEYS>
AAADcfB7IAAAAAAAAAAAAAAAAAAAAAAAAAA8WIAAAAAAAACxAAAAHgAQAAAADSzBmAYzBoPABACAAiBCAACCCAAgIAAIiIAODIiMJiKE8RuEMChs0BOIqAeQ0PMOoAABAAAQAABAAAIAACAAAAAAAAAAAA==
> <PUBCHEM_IUPAC_OPENEYE_NAME>
9-methoxy-N-(7-methyl-6-methylene-octyl)-2,3,4,6,7,11b-hexahydro-1H-pyrimido[6,1-a]isoquinolin-4-amine
> <PUBCHEM_IUPAC_CAS_NAME>
9-methoxy-N-(7-methyl-6-methyleneoctyl)-2,3,4,6,7,11b-hexahydro-1H-pyrimido[6,1-a]isoquinolin-4-amine
> <PUBCHEM_IUPAC_NAME_MARKUP>
9-methoxy-<I>N</I>-(7-methyl-6-methylideneoctyl)-2,3,4,6,7,11<I>b</I>-hexahydro-1<I>H</I>-pyrimido[6,1-a]isoquinolin-4-amine
> <PUBCHEM_IUPAC_NAME>
9-methoxy-N-(7-methyl-6-methylideneoctyl)-2,3,4,6,7,11b-hexahydro-1H-pyrimido[6,1-a]isoquinolin-4-amine
> <PUBCHEM_IUPAC_SYSTEMATIC_NAME>
9-methoxy-N-(7-methyl-6-methylidene-octyl)-2,3,4,6,7,11b-hexahydro-1H-pyrimido[6,1-a]isoquinolin-4-amine
> <PUBCHEM_IUPAC_TRADITIONAL_NAME>
6-isopropylhept-6-enyl-(9-methoxy-2,3,4,6,7,11b-hexahydro-1H-pyrimid[6,1-a]isoquinolin-4-yl)amine
> <PUBCHEM_IUPAC_INCHI>
InChI=1S/C23H37N3O/c1-17(2)18(3)8-6-5-7-13-24-23-25-14-11-22-21-10-9-20(27-4)16-19(21)12-15-26(22)23/h9-10,16-17,22-25H,3,5-8,11-15H2,1-2,4H3
> <PUBCHEM_IUPAC_INCHIKEY>
QKYOTWZQYUYMJG-UHFFFAOYSA-N
> <PUBCHEM_XLOGP3_AA>
5.1
> <PUBCHEM_EXACT_MASS>
371.293662812
> <PUBCHEM_MOLECULAR_FORMULA>
C23H37N3O
> <PUBCHEM_MOLECULAR_WEIGHT>
371.6
> <PUBCHEM_OPENEYE_CAN_SMILES>
CC(C)C(=C)CCCCCNC1NCCC2N1CCC3=C2C=CC(=C3)OC
> <PUBCHEM_OPENEYE_ISO_SMILES>
CC(C)C(=C)CCCCCNC1NCCC2N1CCC3=C2C=CC(=C3)OC
> <PUBCHEM_CACTVS_TPSA>
36.5
> <PUBCHEM_MONOISOTOPIC_WEIGHT>
371.293662812
> <PUBCHEM_TOTAL_CHARGE>
0
> <PUBCHEM_HEAVY_ATOM_COUNT>
27
> <PUBCHEM_ATOM_DEF_STEREO_COUNT>
0
> <PUBCHEM_ATOM_UDEF_STEREO_COUNT>
2
> <PUBCHEM_BOND_DEF_STEREO_COUNT>
0
> <PUBCHEM_BOND_UDEF_STEREO_COUNT>
0
> <PUBCHEM_ISOTOPIC_ATOM_COUNT>
0
> <PUBCHEM_COMPONENT_COUNT>
1
> <PUBCHEM_CACTVS_TAUTO_COUNT>
-1
> <PUBCHEM_COORDINATE_TYPE>
1
5
255
> <PUBCHEM_BONDANNOTATIONS>
12  15  8
13  17  8
15  18  8
17  18  8
6  4  3
5  7  3
9  12  8
9  13  8
$$$$
