511457
  -OEChem-10302200282D
 28 30  0     1  0  0  0  0  0999 V2000
    2.2607    0.8352    0.0000 O   0  0  0  0  0  0  0  0  0  0  0  0
    3.5053    0.9358    0.0000 C   0  0  3  0  0  0  0  0  0  0  0  0
    4.0445   -0.5695    0.0000 C   0  0  3  0  0  0  0  0  0  0  0  0
    4.0670    0.5089    0.0000 C   0  0  3  0  0  0  0  0  0  0  0  0
    2.4493   -0.5471    0.0000 C   0  0  3  0  0  0  0  0  0  0  0  0
    3.0494   -1.1380    0.0000 C   0  0  0  0  0  0  0  0  0  0  0  0
    2.7864    1.1380    0.0000 C   0  0  0  0  0  0  0  0  0  0  0  0
    2.0000    0.4190    0.0000 C   0  0  0  0  0  0  0  0  0  0  0  0
    5.1158   -1.0114    0.0000 C   0  0  0  0  0  0  0  0  0  0  0  0
    2.9885    0.1494    0.0000 C   0  0  0  0  0  0  0  0  0  0  0  0
    4.9882    0.3516    0.0000 C   0  0  0  0  0  0  0  0  0  0  0  0
    5.5723   -0.3224    0.0000 C   0  0  0  0  0  0  0  0  0  0  0  0
    3.7817    1.4908    0.0000 H   0  0  0  0  0  0  0  0  0  0  0  0
    4.0841   -1.1883    0.0000 H   0  0  0  0  0  0  0  0  0  0  0  0
    4.1143   -0.1093    0.0000 H   0  0  0  0  0  0  0  0  0  0  0  0
    1.9426   -0.9044    0.0000 H   0  0  0  0  0  0  0  0  0  0  0  0
    2.5759   -1.5382    0.0000 H   0  0  0  0  0  0  0  0  0  0  0  0
    3.4047   -1.6461    0.0000 H   0  0  0  0  0  0  0  0  0  0  0  0
    3.0613    1.6937    0.0000 H   0  0  0  0  0  0  0  0  0  0  0  0
    2.2908    1.5106    0.0000 H   0  0  0  0  0  0  0  0  0  0  0  0
    1.6303    0.9167    0.0000 H   0  0  0  0  0  0  0  0  0  0  0  0
    1.4673    0.1018    0.0000 H   0  0  0  0  0  0  0  0  0  0  0  0
    4.8428   -1.5681    0.0000 H   0  0  0  0  0  0  0  0  0  0  0  0
    5.6537   -1.3198    0.0000 H   0  0  0  0  0  0  0  0  0  0  0  0
    5.5544    0.6043    0.0000 H   0  0  0  0  0  0  0  0  0  0  0  0
    4.9107    0.9668    0.0000 H   0  0  0  0  0  0  0  0  0  0  0  0
    6.0561   -0.7101    0.0000 H   0  0  0  0  0  0  0  0  0  0  0  0
    6.0022    0.1244    0.0000 H   0  0  0  0  0  0  0  0  0  0  0  0
  1 10  2  0  0  0  0
  2  3  1  0  0  0  0
  2  4  1  0  0  0  0
  2  7  1  0  0  0  0
  2 13  1  0  0  0  0
  3  6  1  0  0  0  0
  3  9  1  0  0  0  0
  3 14  1  0  0  0  0
  4 10  1  0  0  0  0
  4 11  1  0  0  0  0
  4 15  1  0  0  0  0
  5  6  1  0  0  0  0
  5  8  1  0  0  0  0
  5 10  1  0  0  0  0
  5 16  1  0  0  0  0
  6 17  1  0  0  0  0
  6 18  1  0  0  0  0
  7  8  1  0  0  0  0
  7 19  1  0  0  0  0
  7 20  1  0  0  0  0
  8 21  1  0  0  0  0
  8 22  1  0  0  0  0
  9 12  1  0  0  0  0
  9 23  1  0  0  0  0
  9 24  1  0  0  0  0
 11 12  1  0  0  0  0
 11 25  1  0  0  0  0
 11 26  1  0  0  0  0
 12 27  1  0  0  0  0
 12 28  1  0  0  0  0
M  END
> <PUBCHEM_COMPOUND_CID>
511457
> <PUBCHEM_COMPOUND_CANONICALIZED>
1
> <PUBCHEM_CACTVS_COMPLEXITY>
221
> <PUBCHEM_CACTVS_HBOND_ACCEPTOR>
1
> <PUBCHEM_CACTVS_HBOND_DONOR>
0
> <PUBCHEM_CACTVS_ROTATABLE_BOND>
0
> <PUBCHEM_CACTVS_SUBSKEYS>
AAADceBwIAAAAAAAAAAAAAAAAAAAAAAAAAAwYMAAAAAYAAAAAAAAGgAAAAAADQSAgAAAAAAAAAAIAIAQAAAAAAAAAAAAAAEAAAAAABIAAAAAAAAAAAAAAAEIiMCOgAAAAAAAAACAAAQAACAAAAAAAAAAAA==
> <PUBCHEM_IUPAC_OPENEYE_NAME>
tricyclo[5.3.1.03,8]undecan-2-one
> <PUBCHEM_IUPAC_CAS_NAME>
2-tricyclo[5.3.1.03,8]undecanone
> <PUBCHEM_IUPAC_NAME_MARKUP>
tricyclo[5.3.1.0<SUP>3,8</SUP>]undecan-2-one
> <PUBCHEM_IUPAC_NAME>
tricyclo[5.3.1.03,8]undecan-2-one
> <PUBCHEM_IUPAC_SYSTEMATIC_NAME>
tricyclo[5.3.1.03,8]undecan-2-one
> <PUBCHEM_IUPAC_TRADITIONAL_NAME>
tricyclo[5.3.1.03,8]undecan-2-one
> <PUBCHEM_IUPAC_INCHI>
InChI=1S/C11H16O/c12-11-8-4-5-9-7(6-8)2-1-3-10(9)11/h7-10H,1-6H2
> <PUBCHEM_IUPAC_INCHIKEY>
MPNWBTNWXJJXJE-UHFFFAOYSA-N
> <PUBCHEM_XLOGP3_AA>
2.5
> <PUBCHEM_EXACT_MASS>
164.120115130
> <PUBCHEM_MOLECULAR_FORMULA>
C11H16O
> <PUBCHEM_MOLECULAR_WEIGHT>
164.24
> <PUBCHEM_OPENEYE_CAN_SMILES>
C1CC2CC3CCC2C(C1)C3=O
> <PUBCHEM_OPENEYE_ISO_SMILES>
C1CC2CC3CCC2C(C1)C3=O
> <PUBCHEM_CACTVS_TPSA>
17.1
> <PUBCHEM_MONOISOTOPIC_WEIGHT>
164.120115130
> <PUBCHEM_TOTAL_CHARGE>
0
> <PUBCHEM_HEAVY_ATOM_COUNT>
12
> <PUBCHEM_ATOM_DEF_STEREO_COUNT>
0
> <PUBCHEM_ATOM_UDEF_STEREO_COUNT>
4
> <PUBCHEM_BOND_DEF_STEREO_COUNT>
0
> <PUBCHEM_BOND_UDEF_STEREO_COUNT>
0
> <PUBCHEM_ISOTOPIC_ATOM_COUNT>
0
> <PUBCHEM_COMPONENT_COUNT>
1
> <PUBCHEM_CACTVS_TAUTO_COUNT>
-1
> <PUBCHEM_COORDINATE_TYPE>
1
5
255
> <PUBCHEM_BONDANNOTATIONS>
2  7  3
3  9  3
4  11  3
5  8  3
$$$$
