511402
  -OEChem-10302200282D
 57 58  0     1  0  0  0  0  0999 V2000
    7.1962    0.4806    0.0000 O   0  0  0  0  0  0  0  0  0  0  0  0
    5.4641    1.4806    0.0000 O   0  0  0  0  0  0  0  0  0  0  0  0
    9.7942   -3.0194    0.0000 O   0  5  0  0  0  0  0  0  0  0  0  0
    8.0622   -3.0194    0.0000 O   0  0  0  0  0  0  0  0  0  0  0  0
    8.9282    1.4806    0.0000 N   0  0  0  0  0  0  0  0  0  0  0  0
    3.7320    0.4806    0.0000 N   0  0  0  0  0  0  0  0  0  0  0  0
    8.9282   -2.5194    0.0000 N   0  3  0  0  0  0  0  0  0  0  0  0
    9.7372    2.0684    0.0000 C   0  0  0  0  0  0  0  0  0  0  0  0
    8.1192    2.0684    0.0000 C   0  0  0  0  0  0  0  0  0  0  0  0
    9.4282    3.0194    0.0000 C   0  0  0  0  0  0  0  0  0  0  0  0
    8.4282    3.0194    0.0000 C   0  0  0  0  0  0  0  0  0  0  0  0
    4.5981   -0.0194    0.0000 C   0  0  0  0  0  0  0  0  0  0  0  0
    2.8660   -0.0194    0.0000 C   0  0  0  0  0  0  0  0  0  0  0  0
    3.7320    1.4806    0.0000 C   0  0  0  0  0  0  0  0  0  0  0  0
    5.4641    0.4806    0.0000 C   0  0  3  0  0  0  0  0  0  0  0  0
    8.9282    0.4806    0.0000 C   0  0  0  0  0  0  0  0  0  0  0  0
    6.3301   -0.0194    0.0000 C   0  0  0  0  0  0  0  0  0  0  0  0
    8.0622   -0.0194    0.0000 C   0  0  0  0  0  0  0  0  0  0  0  0
    2.0000    0.4806    0.0000 C   0  0  0  0  0  0  0  0  0  0  0  0
    2.8660   -1.0194    0.0000 C   0  0  0  0  0  0  0  0  0  0  0  0
    2.8660    1.9806    0.0000 C   0  0  0  0  0  0  0  0  0  0  0  0
    4.5981    1.9806    0.0000 C   0  0  0  0  0  0  0  0  0  0  0  0
    9.7942   -0.0194    0.0000 C   0  0  0  0  0  0  0  0  0  0  0  0
    8.0622   -1.0194    0.0000 C   0  0  0  0  0  0  0  0  0  0  0  0
    9.7942   -1.0194    0.0000 C   0  0  0  0  0  0  0  0  0  0  0  0
    8.9282   -1.5194    0.0000 C   0  0  0  0  0  0  0  0  0  0  0  0
   10.0472    1.5314    0.0000 H   0  0  0  0  0  0  0  0  0  0  0  0
   10.3036    2.3205    0.0000 H   0  0  0  0  0  0  0  0  0  0  0  0
    7.5528    2.3205    0.0000 H   0  0  0  0  0  0  0  0  0  0  0  0
    7.8092    1.5314    0.0000 H   0  0  0  0  0  0  0  0  0  0  0  0
   10.0347    3.1483    0.0000 H   0  0  0  0  0  0  0  0  0  0  0  0
    9.3634    3.6360    0.0000 H   0  0  0  0  0  0  0  0  0  0  0  0
    8.4930    3.6360    0.0000 H   0  0  0  0  0  0  0  0  0  0  0  0
    7.8218    3.1483    0.0000 H   0  0  0  0  0  0  0  0  0  0  0  0
    4.1996   -0.4944    0.0000 H   0  0  0  0  0  0  0  0  0  0  0  0
    4.9966   -0.4944    0.0000 H   0  0  0  0  0  0  0  0  0  0  0  0
    2.8660    0.6006    0.0000 H   0  0  0  0  0  0  0  0  0  0  0  0
    4.2690    1.1706    0.0000 H   0  0  0  0  0  0  0  0  0  0  0  0
    6.0010    0.7906    0.0000 H   0  0  0  0  0  0  0  0  0  0  0  0
    5.9316   -0.4944    0.0000 H   0  0  0  0  0  0  0  0  0  0  0  0
    6.7287   -0.4944    0.0000 H   0  0  0  0  0  0  0  0  0  0  0  0
    2.3100    1.0175    0.0000 H   0  0  0  0  0  0  0  0  0  0  0  0
    1.4631    0.7906    0.0000 H   0  0  0  0  0  0  0  0  0  0  0  0
    1.6900   -0.0564    0.0000 H   0  0  0  0  0  0  0  0  0  0  0  0
    2.2460   -1.0194    0.0000 H   0  0  0  0  0  0  0  0  0  0  0  0
    2.8660   -1.6394    0.0000 H   0  0  0  0  0  0  0  0  0  0  0  0
    3.4860   -1.0194    0.0000 H   0  0  0  0  0  0  0  0  0  0  0  0
    3.1760    2.5175    0.0000 H   0  0  0  0  0  0  0  0  0  0  0  0
    2.3291    2.2906    0.0000 H   0  0  0  0  0  0  0  0  0  0  0  0
    2.5560    1.4436    0.0000 H   0  0  0  0  0  0  0  0  0  0  0  0
    4.9081    1.4436    0.0000 H   0  0  0  0  0  0  0  0  0  0  0  0
    5.1350    2.2906    0.0000 H   0  0  0  0  0  0  0  0  0  0  0  0
    4.2881    2.5175    0.0000 H   0  0  0  0  0  0  0  0  0  0  0  0
   10.3312    0.2906    0.0000 H   0  0  0  0  0  0  0  0  0  0  0  0
    7.5252   -1.3294    0.0000 H   0  0  0  0  0  0  0  0  0  0  0  0
    6.0010    1.7906    0.0000 H   0  0  0  0  0  0  0  0  0  0  0  0
   10.3312   -1.3294    0.0000 H   0  0  0  0  0  0  0  0  0  0  0  0
  1 17  1  0  0  0  0
  1 18  1  0  0  0  0
  2 15  1  0  0  0  0
  2 56  1  0  0  0  0
  3  7  1  0  0  0  0
  4  7  2  0  0  0  0
  5  8  1  0  0  0  0
  5  9  1  0  0  0  0
  5 16  1  0  0  0  0
  6 12  1  0  0  0  0
  6 13  1  0  0  0  0
  6 14  1  0  0  0  0
  7 26  1  0  0  0  0
  8 10  1  0  0  0  0
  8 27  1  0  0  0  0
  8 28  1  0  0  0  0
  9 11  1  0  0  0  0
  9 29  1  0  0  0  0
  9 30  1  0  0  0  0
 10 11  1  0  0  0  0
 10 31  1  0  0  0  0
 10 32  1  0  0  0  0
 11 33  1  0  0  0  0
 11 34  1  0  0  0  0
 12 15  1  0  0  0  0
 12 35  1  0  0  0  0
 12 36  1  0  0  0  0
 13 19  1  0  0  0  0
 13 20  1  0  0  0  0
 13 37  1  0  0  0  0
 14 21  1  0  0  0  0
 14 22  1  0  0  0  0
 14 38  1  0  0  0  0
 15 17  1  0  0  0  0
 15 39  1  0  0  0  0
 16 18  2  0  0  0  0
 16 23  1  0  0  0  0
 17 40  1  0  0  0  0
 17 41  1  0  0  0  0
 18 24  1  0  0  0  0
 19 42  1  0  0  0  0
 19 43  1  0  0  0  0
 19 44  1  0  0  0  0
 20 45  1  0  0  0  0
 20 46  1  0  0  0  0
 20 47  1  0  0  0  0
 21 48  1  0  0  0  0
 21 49  1  0  0  0  0
 21 50  1  0  0  0  0
 22 51  1  0  0  0  0
 22 52  1  0  0  0  0
 22 53  1  0  0  0  0
 23 25  2  0  0  0  0
 23 54  1  0  0  0  0
 24 26  2  0  0  0  0
 24 55  1  0  0  0  0
 25 26  1  0  0  0  0
 25 57  1  0  0  0  0
M  CHG  2   3  -1   7   1
M  END
> <PUBCHEM_COMPOUND_CID>
511402
> <PUBCHEM_COMPOUND_CANONICALIZED>
1
> <PUBCHEM_CACTVS_COMPLEXITY>
427
> <PUBCHEM_CACTVS_HBOND_ACCEPTOR>
6
> <PUBCHEM_CACTVS_HBOND_DONOR>
1
> <PUBCHEM_CACTVS_ROTATABLE_BOND>
8
> <PUBCHEM_CACTVS_SUBSKEYS>
AAADceB7OAAAAAAAAAAAAAAAAAAAAWAAAAAwAAAAAAAAAAABAAAAHgAECAAACDzhkAYyxoMQRgCBACRCQwCCCAAhIgAoiAAPbIoPNiLEsZuHOCjmwBnb6AeQUAEAAACAAgAAEAAAAQAEAAAgAAAAAAAAAA==
> <PUBCHEM_IUPAC_OPENEYE_NAME>
1-(diisopropylamino)-3-(5-nitro-2-pyrrolidin-1-yl-phenoxy)propan-2-ol
> <PUBCHEM_IUPAC_CAS_NAME>
1-[di(propan-2-yl)amino]-3-[5-nitro-2-(1-pyrrolidinyl)phenoxy]-2-propanol
> <PUBCHEM_IUPAC_NAME_MARKUP>
1-[di(propan-2-yl)amino]-3-(5-nitro-2-pyrrolidin-1-ylphenoxy)propan-2-ol
> <PUBCHEM_IUPAC_NAME>
1-[di(propan-2-yl)amino]-3-(5-nitro-2-pyrrolidin-1-ylphenoxy)propan-2-ol
> <PUBCHEM_IUPAC_SYSTEMATIC_NAME>
1-[di(propan-2-yl)amino]-3-(5-nitro-2-pyrrolidin-1-yl-phenoxy)propan-2-ol
> <PUBCHEM_IUPAC_TRADITIONAL_NAME>
1-(diisopropylamino)-3-(5-nitro-2-pyrrolidino-phenoxy)propan-2-ol
> <PUBCHEM_IUPAC_INCHI>
InChI=1S/C19H31N3O4/c1-14(2)21(15(3)4)12-17(23)13-26-19-11-16(22(24)25)7-8-18(19)20-9-5-6-10-20/h7-8,11,14-15,17,23H,5-6,9-10,12-13H2,1-4H3
> <PUBCHEM_IUPAC_INCHIKEY>
JEMSWZSYTWQJGL-UHFFFAOYSA-N
> <PUBCHEM_XLOGP3_AA>
3.4
> <PUBCHEM_EXACT_MASS>
365.23145648
> <PUBCHEM_MOLECULAR_FORMULA>
C19H31N3O4
> <PUBCHEM_MOLECULAR_WEIGHT>
365.5
> <PUBCHEM_OPENEYE_CAN_SMILES>
CC(C)N(CC(COC1=C(C=CC(=C1)[N+](=O)[O-])N2CCCC2)O)C(C)C
> <PUBCHEM_OPENEYE_ISO_SMILES>
CC(C)N(CC(COC1=C(C=CC(=C1)[N+](=O)[O-])N2CCCC2)O)C(C)C
> <PUBCHEM_CACTVS_TPSA>
81.8
> <PUBCHEM_MONOISOTOPIC_WEIGHT>
365.23145648
> <PUBCHEM_TOTAL_CHARGE>
0
> <PUBCHEM_HEAVY_ATOM_COUNT>
26
> <PUBCHEM_ATOM_DEF_STEREO_COUNT>
0
> <PUBCHEM_ATOM_UDEF_STEREO_COUNT>
1
> <PUBCHEM_BOND_DEF_STEREO_COUNT>
0
> <PUBCHEM_BOND_UDEF_STEREO_COUNT>
0
> <PUBCHEM_ISOTOPIC_ATOM_COUNT>
0
> <PUBCHEM_COMPONENT_COUNT>
1
> <PUBCHEM_CACTVS_TAUTO_COUNT>
-1
> <PUBCHEM_COORDINATE_TYPE>
1
5
255
> <PUBCHEM_BONDANNOTATIONS>
16  18  8
16  23  8
18  24  8
15  2  3
23  25  8
24  26  8
25  26  8
$$$$
