511411
  -OEChem-10302200282D
 53 55  0     1  0  0  0  0  0999 V2000
    4.2213    2.0928    0.0000 O   0  0  0  0  0  0  0  0  0  0  0  0
    7.0468    0.4291    0.0000 O   0  0  0  0  0  0  0  0  0  0  0  0
    5.3147    1.4291    0.0000 O   0  0  0  0  0  0  0  0  0  0  0  0
    9.6448   -3.0709    0.0000 O   0  5  0  0  0  0  0  0  0  0  0  0
    7.9128   -3.0709    0.0000 O   0  0  0  0  0  0  0  0  0  0  0  0
    3.5827    0.4291    0.0000 N   0  0  3  0  0  0  0  0  0  0  0  0
    8.7788    1.4291    0.0000 N   0  0  0  0  0  0  0  0  0  0  0  0
    8.7788   -2.5709    0.0000 N   0  3  0  0  0  0  0  0  0  0  0  0
    3.4782    1.4236    0.0000 C   0  0  3  0  0  0  0  0  0  0  0  0
    2.5000    1.6315    0.0000 C   0  0  0  0  0  0  0  0  0  0  0  0
    2.6691    0.0224    0.0000 C   0  0  0  0  0  0  0  0  0  0  0  0
    2.0000    0.7655    0.0000 C   0  0  0  0  0  0  0  0  0  0  0  0
    4.4487   -0.0709    0.0000 C   0  0  0  0  0  0  0  0  0  0  0  0
    5.3147    0.4291    0.0000 C   0  0  3  0  0  0  0  0  0  0  0  0
    9.5878    2.0169    0.0000 C   0  0  0  0  0  0  0  0  0  0  0  0
    7.9698    2.0169    0.0000 C   0  0  0  0  0  0  0  0  0  0  0  0
    9.2788    2.9679    0.0000 C   0  0  0  0  0  0  0  0  0  0  0  0
    8.2788    2.9679    0.0000 C   0  0  0  0  0  0  0  0  0  0  0  0
    6.1808   -0.0709    0.0000 C   0  0  0  0  0  0  0  0  0  0  0  0
    8.7788    0.4291    0.0000 C   0  0  0  0  0  0  0  0  0  0  0  0
    7.9128   -0.0709    0.0000 C   0  0  0  0  0  0  0  0  0  0  0  0
    4.0134    3.0709    0.0000 C   0  0  0  0  0  0  0  0  0  0  0  0
    9.6448   -0.0709    0.0000 C   0  0  0  0  0  0  0  0  0  0  0  0
    7.9128   -1.0709    0.0000 C   0  0  0  0  0  0  0  0  0  0  0  0
    9.6448   -1.0709    0.0000 C   0  0  0  0  0  0  0  0  0  0  0  0
    8.7788   -1.5709    0.0000 C   0  0  0  0  0  0  0  0  0  0  0  0
    3.3177    2.0225    0.0000 H   0  0  0  0  0  0  0  0  0  0  0  0
    2.6916    2.2212    0.0000 H   0  0  0  0  0  0  0  0  0  0  0  0
    1.9336    1.8837    0.0000 H   0  0  0  0  0  0  0  0  0  0  0  0
    2.1675   -0.3421    0.0000 H   0  0  0  0  0  0  0  0  0  0  0  0
    2.9791   -0.5146    0.0000 H   0  0  0  0  0  0  0  0  0  0  0  0
    1.4984    1.1299    0.0000 H   0  0  0  0  0  0  0  0  0  0  0  0
    1.5851    0.3048    0.0000 H   0  0  0  0  0  0  0  0  0  0  0  0
    4.0502   -0.5458    0.0000 H   0  0  0  0  0  0  0  0  0  0  0  0
    4.8472   -0.5458    0.0000 H   0  0  0  0  0  0  0  0  0  0  0  0
    5.8517    0.7391    0.0000 H   0  0  0  0  0  0  0  0  0  0  0  0
    9.8978    1.4800    0.0000 H   0  0  0  0  0  0  0  0  0  0  0  0
   10.1542    2.2691    0.0000 H   0  0  0  0  0  0  0  0  0  0  0  0
    7.4034    2.2691    0.0000 H   0  0  0  0  0  0  0  0  0  0  0  0
    7.6598    1.4800    0.0000 H   0  0  0  0  0  0  0  0  0  0  0  0
    9.8853    3.0968    0.0000 H   0  0  0  0  0  0  0  0  0  0  0  0
    9.2140    3.5846    0.0000 H   0  0  0  0  0  0  0  0  0  0  0  0
    8.3436    3.5846    0.0000 H   0  0  0  0  0  0  0  0  0  0  0  0
    7.6724    3.0968    0.0000 H   0  0  0  0  0  0  0  0  0  0  0  0
    5.7822   -0.5458    0.0000 H   0  0  0  0  0  0  0  0  0  0  0  0
    6.5793   -0.5458    0.0000 H   0  0  0  0  0  0  0  0  0  0  0  0
    4.6198    3.1998    0.0000 H   0  0  0  0  0  0  0  0  0  0  0  0
    3.8845    3.6774    0.0000 H   0  0  0  0  0  0  0  0  0  0  0  0
    3.4069    2.9420    0.0000 H   0  0  0  0  0  0  0  0  0  0  0  0
   10.1818    0.2391    0.0000 H   0  0  0  0  0  0  0  0  0  0  0  0
    5.8517    1.7391    0.0000 H   0  0  0  0  0  0  0  0  0  0  0  0
    7.3759   -1.3809    0.0000 H   0  0  0  0  0  0  0  0  0  0  0  0
   10.1818   -1.3809    0.0000 H   0  0  0  0  0  0  0  0  0  0  0  0
  1  9  1  0  0  0  0
  1 22  1  0  0  0  0
  2 19  1  0  0  0  0
  2 21  1  0  0  0  0
  3 14  1  0  0  0  0
  3 51  1  0  0  0  0
  4  8  1  0  0  0  0
  5  8  2  0  0  0  0
  6  9  1  0  0  0  0
  6 11  1  0  0  0  0
  6 13  1  0  0  0  0
  7 15  1  0  0  0  0
  7 16  1  0  0  0  0
  7 20  1  0  0  0  0
  8 26  1  0  0  0  0
  9 10  1  0  0  0  0
  9 27  1  0  0  0  0
 10 12  1  0  0  0  0
 10 28  1  0  0  0  0
 10 29  1  0  0  0  0
 11 12  1  0  0  0  0
 11 30  1  0  0  0  0
 11 31  1  0  0  0  0
 12 32  1  0  0  0  0
 12 33  1  0  0  0  0
 13 14  1  0  0  0  0
 13 34  1  0  0  0  0
 13 35  1  0  0  0  0
 14 19  1  0  0  0  0
 14 36  1  0  0  0  0
 15 17  1  0  0  0  0
 15 37  1  0  0  0  0
 15 38  1  0  0  0  0
 16 18  1  0  0  0  0
 16 39  1  0  0  0  0
 16 40  1  0  0  0  0
 17 18  1  0  0  0  0
 17 41  1  0  0  0  0
 17 42  1  0  0  0  0
 18 43  1  0  0  0  0
 18 44  1  0  0  0  0
 19 45  1  0  0  0  0
 19 46  1  0  0  0  0
 20 21  2  0  0  0  0
 20 23  1  0  0  0  0
 21 24  1  0  0  0  0
 22 47  1  0  0  0  0
 22 48  1  0  0  0  0
 22 49  1  0  0  0  0
 23 25  2  0  0  0  0
 23 50  1  0  0  0  0
 24 26  2  0  0  0  0
 24 52  1  0  0  0  0
 25 26  1  0  0  0  0
 25 53  1  0  0  0  0
M  CHG  2   4  -1   8   1
M  END
> <PUBCHEM_COMPOUND_CID>
511411
> <PUBCHEM_COMPOUND_CANONICALIZED>
1
> <PUBCHEM_CACTVS_COMPLEXITY>
455
> <PUBCHEM_CACTVS_HBOND_ACCEPTOR>
7
> <PUBCHEM_CACTVS_HBOND_DONOR>
1
> <PUBCHEM_CACTVS_ROTATABLE_BOND>
7
> <PUBCHEM_CACTVS_SUBSKEYS>
AAADceB7OAAAAAAAAAAAAAAAAAAAAWLAAAAwAAAAAAAAAAABAAAAHgAECAAACBzhkAYyxoMQRgCBACRCQwCCCAAhIgAoiAAPbIoPNiLEsZuHOCjmwBnb6AewUAEAAACAAgAAEAAAAQAEAAAgAAAAAAAAAA==
> <PUBCHEM_IUPAC_OPENEYE_NAME>
1-(2-methoxypyrrolidin-1-yl)-3-(5-nitro-2-pyrrolidin-1-yl-phenoxy)propan-2-ol
> <PUBCHEM_IUPAC_CAS_NAME>
1-(2-methoxy-1-pyrrolidinyl)-3-[5-nitro-2-(1-pyrrolidinyl)phenoxy]-2-propanol
> <PUBCHEM_IUPAC_NAME_MARKUP>
1-(2-methoxypyrrolidin-1-yl)-3-(5-nitro-2-pyrrolidin-1-ylphenoxy)propan-2-ol
> <PUBCHEM_IUPAC_NAME>
1-(2-methoxypyrrolidin-1-yl)-3-(5-nitro-2-pyrrolidin-1-ylphenoxy)propan-2-ol
> <PUBCHEM_IUPAC_SYSTEMATIC_NAME>
1-(2-methoxypyrrolidin-1-yl)-3-(5-nitro-2-pyrrolidin-1-yl-phenoxy)propan-2-ol
> <PUBCHEM_IUPAC_TRADITIONAL_NAME>
1-(2-methoxypyrrolidino)-3-(5-nitro-2-pyrrolidino-phenoxy)propan-2-ol
> <PUBCHEM_IUPAC_INCHI>
InChI=1S/C18H27N3O5/c1-25-18-5-4-10-20(18)12-15(22)13-26-17-11-14(21(23)24)6-7-16(17)19-8-2-3-9-19/h6-7,11,15,18,22H,2-5,8-10,12-13H2,1H3
> <PUBCHEM_IUPAC_INCHIKEY>
QZLVMNYYOAVFFD-UHFFFAOYSA-N
> <PUBCHEM_XLOGP3_AA>
2.3
> <PUBCHEM_EXACT_MASS>
365.19507097
> <PUBCHEM_MOLECULAR_FORMULA>
C18H27N3O5
> <PUBCHEM_MOLECULAR_WEIGHT>
365.4
> <PUBCHEM_OPENEYE_CAN_SMILES>
COC1CCCN1CC(COC2=C(C=CC(=C2)[N+](=O)[O-])N3CCCC3)O
> <PUBCHEM_OPENEYE_ISO_SMILES>
COC1CCCN1CC(COC2=C(C=CC(=C2)[N+](=O)[O-])N3CCCC3)O
> <PUBCHEM_CACTVS_TPSA>
91
> <PUBCHEM_MONOISOTOPIC_WEIGHT>
365.19507097
> <PUBCHEM_TOTAL_CHARGE>
0
> <PUBCHEM_HEAVY_ATOM_COUNT>
26
> <PUBCHEM_ATOM_DEF_STEREO_COUNT>
0
> <PUBCHEM_ATOM_UDEF_STEREO_COUNT>
2
> <PUBCHEM_BOND_DEF_STEREO_COUNT>
0
> <PUBCHEM_BOND_UDEF_STEREO_COUNT>
0
> <PUBCHEM_ISOTOPIC_ATOM_COUNT>
0
> <PUBCHEM_COMPONENT_COUNT>
1
> <PUBCHEM_CACTVS_TAUTO_COUNT>
-1
> <PUBCHEM_COORDINATE_TYPE>
1
5
255
> <PUBCHEM_BONDANNOTATIONS>
9  1  3
20  21  8
20  23  8
21  24  8
23  25  8
24  26  8
25  26  8
14  3  3
$$$$
