511491
  -OEChem-10302200282D
 40 42  0     1  0  0  0  0  0999 V2000
    3.2733   -0.4565    0.0000 S   0  0  0  0  0  0  0  0  0  0  0  0
    7.5366   -0.4054    0.0000 O   0  0  0  0  0  0  0  0  0  0  0  0
    6.3776    0.8818    0.0000 O   0  0  0  0  0  0  0  0  0  0  0  0
    2.0000    1.1991    0.0000 O   0  0  0  0  0  0  0  0  0  0  0  0
    4.8913   -0.4565    0.0000 C   0  0  0  0  0  0  0  0  0  0  0  0
    5.8424   -0.7655    0.0000 C   0  0  3  0  0  0  0  0  0  0  0  0
    4.0823   -1.0442    0.0000 C   0  0  0  0  0  0  0  0  0  0  0  0
    4.5823    0.4946    0.0000 C   0  0  0  0  0  0  0  0  0  0  0  0
    3.5823    0.4946    0.0000 C   0  0  0  0  0  0  0  0  0  0  0  0
    4.0823   -2.0442    0.0000 C   0  0  0  0  0  0  0  0  0  0  0  0
    6.0503   -1.7436    0.0000 C   0  0  0  0  0  0  0  0  0  0  0  0
    6.5855   -0.0963    0.0000 C   0  0  0  0  0  0  0  0  0  0  0  0
    2.9945    1.3036    0.0000 C   0  0  0  0  0  0  0  0  0  0  0  0
    3.2163   -2.5442    0.0000 C   0  0  0  0  0  0  0  0  0  0  0  0
    4.9483   -2.5442    0.0000 C   0  0  0  0  0  0  0  0  0  0  0  0
    3.4013    2.2172    0.0000 C   0  0  0  0  0  0  0  0  0  0  0  0
    3.2163   -3.5442    0.0000 C   0  0  0  0  0  0  0  0  0  0  0  0
    4.9483   -3.5442    0.0000 C   0  0  0  0  0  0  0  0  0  0  0  0
    4.0823   -4.0442    0.0000 C   0  0  0  0  0  0  0  0  0  0  0  0
    4.3958    2.3217    0.0000 C   0  0  0  0  0  0  0  0  0  0  0  0
    2.8135    3.0262    0.0000 C   0  0  0  0  0  0  0  0  0  0  0  0
    4.8025    3.2352    0.0000 C   0  0  0  0  0  0  0  0  0  0  0  0
    3.2202    3.9397    0.0000 C   0  0  0  0  0  0  0  0  0  0  0  0
    4.2147    4.0442    0.0000 C   0  0  0  0  0  0  0  0  0  0  0  0
    5.3816   -1.1803    0.0000 H   0  0  0  0  0  0  0  0  0  0  0  0
    4.9467    0.9962    0.0000 H   0  0  0  0  0  0  0  0  0  0  0  0
    5.4438   -1.8725    0.0000 H   0  0  0  0  0  0  0  0  0  0  0  0
    6.1792   -2.3501    0.0000 H   0  0  0  0  0  0  0  0  0  0  0  0
    6.6567   -1.6147    0.0000 H   0  0  0  0  0  0  0  0  0  0  0  0
    2.6794   -2.2342    0.0000 H   0  0  0  0  0  0  0  0  0  0  0  0
    5.4853   -2.2342    0.0000 H   0  0  0  0  0  0  0  0  0  0  0  0
    2.6794   -3.8542    0.0000 H   0  0  0  0  0  0  0  0  0  0  0  0
    5.4853   -3.8542    0.0000 H   0  0  0  0  0  0  0  0  0  0  0  0
    4.0823   -4.6642    0.0000 H   0  0  0  0  0  0  0  0  0  0  0  0
    4.7602    1.8201    0.0000 H   0  0  0  0  0  0  0  0  0  0  0  0
    2.1969    2.9614    0.0000 H   0  0  0  0  0  0  0  0  0  0  0  0
    7.9973    0.0095    0.0000 H   0  0  0  0  0  0  0  0  0  0  0  0
    5.4191    3.3000    0.0000 H   0  0  0  0  0  0  0  0  0  0  0  0
    2.8558    4.4413    0.0000 H   0  0  0  0  0  0  0  0  0  0  0  0
    4.4669    4.6106    0.0000 H   0  0  0  0  0  0  0  0  0  0  0  0
  1  7  1  0  0  0  0
  1  9  1  0  0  0  0
  2 12  1  0  0  0  0
  2 37  1  0  0  0  0
  3 12  2  0  0  0  0
  4 13  2  0  0  0  0
  5  6  1  0  0  0  0
  5  7  2  0  0  0  0
  5  8  1  0  0  0  0
  6 11  1  0  0  0  0
  6 12  1  0  0  0  0
  6 25  1  0  0  0  0
  7 10  1  0  0  0  0
  8  9  2  0  0  0  0
  8 26  1  0  0  0  0
  9 13  1  0  0  0  0
 10 14  2  0  0  0  0
 10 15  1  0  0  0  0
 11 27  1  0  0  0  0
 11 28  1  0  0  0  0
 11 29  1  0  0  0  0
 13 16  1  0  0  0  0
 14 17  1  0  0  0  0
 14 30  1  0  0  0  0
 15 18  2  0  0  0  0
 15 31  1  0  0  0  0
 16 20  2  0  0  0  0
 16 21  1  0  0  0  0
 17 19  2  0  0  0  0
 17 32  1  0  0  0  0
 18 19  1  0  0  0  0
 18 33  1  0  0  0  0
 19 34  1  0  0  0  0
 20 22  1  0  0  0  0
 20 35  1  0  0  0  0
 21 23  2  0  0  0  0
 21 36  1  0  0  0  0
 22 24  2  0  0  0  0
 22 38  1  0  0  0  0
 23 24  1  0  0  0  0
 23 39  1  0  0  0  0
 24 40  1  0  0  0  0
M  END
> <PUBCHEM_COMPOUND_CID>
511491
> <PUBCHEM_COMPOUND_CANONICALIZED>
1
> <PUBCHEM_CACTVS_COMPLEXITY>
452
> <PUBCHEM_CACTVS_HBOND_ACCEPTOR>
4
> <PUBCHEM_CACTVS_HBOND_DONOR>
1
> <PUBCHEM_CACTVS_ROTATABLE_BOND>
5
> <PUBCHEM_CACTVS_SUBSKEYS>
AAADceB4MABAAAAAAAAAAAAAAAAAASAAAAAwYAAAAAAAAAAB0AAAGgQACAAADQSA2AAyCYAAAgiMAqDSCAADAIAkCBBIiBkAAMgIIDKgFRCAYQAkwAEoiYeIyPCOgAAAAAAAAAAAAAAAAAAAAAAAAAAAAA==
> <PUBCHEM_IUPAC_OPENEYE_NAME>
2-(5-benzoyl-2-phenyl-3-thienyl)propanoic acid
> <PUBCHEM_IUPAC_CAS_NAME>
2-(5-benzoyl-2-phenyl-3-thiophenyl)propanoic acid
> <PUBCHEM_IUPAC_NAME_MARKUP>
2-(5-benzoyl-2-phenylthiophen-3-yl)propanoic acid
> <PUBCHEM_IUPAC_NAME>
2-(5-benzoyl-2-phenylthiophen-3-yl)propanoic acid
> <PUBCHEM_IUPAC_SYSTEMATIC_NAME>
2-[2-phenyl-5-(phenylcarbonyl)thiophen-3-yl]propanoic acid
> <PUBCHEM_IUPAC_TRADITIONAL_NAME>
2-(5-benzoyl-2-phenyl-3-thienyl)propionic acid
> <PUBCHEM_IUPAC_INCHI>
InChI=1S/C20H16O3S/c1-13(20(22)23)16-12-17(18(21)14-8-4-2-5-9-14)24-19(16)15-10-6-3-7-11-15/h2-13H,1H3,(H,22,23)
> <PUBCHEM_IUPAC_INCHIKEY>
QQHYIPCEZGPGNG-UHFFFAOYSA-N
> <PUBCHEM_XLOGP3_AA>
5
> <PUBCHEM_EXACT_MASS>
336.08201554
> <PUBCHEM_MOLECULAR_FORMULA>
C20H16O3S
> <PUBCHEM_MOLECULAR_WEIGHT>
336.4
> <PUBCHEM_OPENEYE_CAN_SMILES>
CC(C1=C(SC(=C1)C(=O)C2=CC=CC=C2)C3=CC=CC=C3)C(=O)O
> <PUBCHEM_OPENEYE_ISO_SMILES>
CC(C1=C(SC(=C1)C(=O)C2=CC=CC=C2)C3=CC=CC=C3)C(=O)O
> <PUBCHEM_CACTVS_TPSA>
82.6
> <PUBCHEM_MONOISOTOPIC_WEIGHT>
336.08201554
> <PUBCHEM_TOTAL_CHARGE>
0
> <PUBCHEM_HEAVY_ATOM_COUNT>
24
> <PUBCHEM_ATOM_DEF_STEREO_COUNT>
0
> <PUBCHEM_ATOM_UDEF_STEREO_COUNT>
1
> <PUBCHEM_BOND_DEF_STEREO_COUNT>
0
> <PUBCHEM_BOND_UDEF_STEREO_COUNT>
0
> <PUBCHEM_ISOTOPIC_ATOM_COUNT>
0
> <PUBCHEM_COMPONENT_COUNT>
1
> <PUBCHEM_CACTVS_TAUTO_COUNT>
-1
> <PUBCHEM_COORDINATE_TYPE>
1
5
255
> <PUBCHEM_BONDANNOTATIONS>
1  7  8
1  9  8
10  14  8
10  15  8
14  17  8
15  18  8
16  20  8
16  21  8
17  19  8
18  19  8
20  22  8
21  23  8
22  24  8
23  24  8
5  7  8
5  8  8
6  11  3
8  9  8
$$$$
