511403
  -OEChem-10302200282D
 52 53  0     1  0  0  0  0  0999 V2000
    8.5991    0.4806    0.0000 O   0  0  0  0  0  0  0  0  0  0  0  0
    6.8671    1.4806    0.0000 O   0  0  0  0  0  0  0  0  0  0  0  0
    2.5369   -0.0194    0.0000 O   0  0  0  0  0  0  0  0  0  0  0  0
   11.1972   -3.0194    0.0000 O   0  5  0  0  0  0  0  0  0  0  0  0
    9.4651   -3.0194    0.0000 O   0  0  0  0  0  0  0  0  0  0  0  0
   10.3312    1.4806    0.0000 N   0  0  0  0  0  0  0  0  0  0  0  0
    5.1350    0.4806    0.0000 N   0  0  3  0  0  0  0  0  0  0  0  0
   10.3312   -2.5194    0.0000 N   0  3  0  0  0  0  0  0  0  0  0  0
   10.8312    3.0194    0.0000 C   0  0  0  0  0  0  0  0  0  0  0  0
    9.8312    3.0194    0.0000 C   0  0  0  0  0  0  0  0  0  0  0  0
   11.1402    2.0684    0.0000 C   0  0  0  0  0  0  0  0  0  0  0  0
    9.5222    2.0684    0.0000 C   0  0  0  0  0  0  0  0  0  0  0  0
   10.3312    0.4806    0.0000 C   0  0  0  0  0  0  0  0  0  0  0  0
    9.4651   -0.0194    0.0000 C   0  0  0  0  0  0  0  0  0  0  0  0
    6.8671    0.4806    0.0000 C   0  0  3  0  0  0  0  0  0  0  0  0
    6.0010   -0.0194    0.0000 C   0  0  0  0  0  0  0  0  0  0  0  0
    7.7331   -0.0194    0.0000 C   0  0  0  0  0  0  0  0  0  0  0  0
   11.1972   -0.0194    0.0000 C   0  0  0  0  0  0  0  0  0  0  0  0
    4.2690   -0.0194    0.0000 C   0  0  0  0  0  0  0  0  0  0  0  0
    5.1350    1.4806    0.0000 C   0  0  0  0  0  0  0  0  0  0  0  0
    9.4651   -1.0194    0.0000 C   0  0  0  0  0  0  0  0  0  0  0  0
   11.1972   -1.0194    0.0000 C   0  0  0  0  0  0  0  0  0  0  0  0
   10.3312   -1.5194    0.0000 C   0  0  0  0  0  0  0  0  0  0  0  0
    3.4030    0.4806    0.0000 C   0  0  0  0  0  0  0  0  0  0  0  0
    4.2690    1.9806    0.0000 C   0  0  0  0  0  0  0  0  0  0  0  0
   11.4376    3.1483    0.0000 H   0  0  0  0  0  0  0  0  0  0  0  0
   10.7664    3.6360    0.0000 H   0  0  0  0  0  0  0  0  0  0  0  0
    9.8960    3.6360    0.0000 H   0  0  0  0  0  0  0  0  0  0  0  0
    9.2247    3.1483    0.0000 H   0  0  0  0  0  0  0  0  0  0  0  0
   11.4502    1.5314    0.0000 H   0  0  0  0  0  0  0  0  0  0  0  0
   11.7066    2.3205    0.0000 H   0  0  0  0  0  0  0  0  0  0  0  0
    8.9558    2.3205    0.0000 H   0  0  0  0  0  0  0  0  0  0  0  0
    9.2122    1.5314    0.0000 H   0  0  0  0  0  0  0  0  0  0  0  0
    6.3301    0.7906    0.0000 H   0  0  0  0  0  0  0  0  0  0  0  0
    5.6025   -0.4944    0.0000 H   0  0  0  0  0  0  0  0  0  0  0  0
    6.3996   -0.4944    0.0000 H   0  0  0  0  0  0  0  0  0  0  0  0
    7.3346   -0.4944    0.0000 H   0  0  0  0  0  0  0  0  0  0  0  0
    8.1316   -0.4944    0.0000 H   0  0  0  0  0  0  0  0  0  0  0  0
   11.7341    0.2906    0.0000 H   0  0  0  0  0  0  0  0  0  0  0  0
    3.8705   -0.4944    0.0000 H   0  0  0  0  0  0  0  0  0  0  0  0
    4.6675   -0.4944    0.0000 H   0  0  0  0  0  0  0  0  0  0  0  0
    5.7456    1.3729    0.0000 H   0  0  0  0  0  0  0  0  0  0  0  0
    5.3471    2.0632    0.0000 H   0  0  0  0  0  0  0  0  0  0  0  0
    8.9282   -1.3294    0.0000 H   0  0  0  0  0  0  0  0  0  0  0  0
   11.7341   -1.3294    0.0000 H   0  0  0  0  0  0  0  0  0  0  0  0
    3.8015    0.9555    0.0000 H   0  0  0  0  0  0  0  0  0  0  0  0
    3.0044    0.9555    0.0000 H   0  0  0  0  0  0  0  0  0  0  0  0
    4.5790    2.5175    0.0000 H   0  0  0  0  0  0  0  0  0  0  0  0
    3.7320    2.2906    0.0000 H   0  0  0  0  0  0  0  0  0  0  0  0
    3.9590    1.4436    0.0000 H   0  0  0  0  0  0  0  0  0  0  0  0
    6.3301    1.7906    0.0000 H   0  0  0  0  0  0  0  0  0  0  0  0
    2.0000    0.2906    0.0000 H   0  0  0  0  0  0  0  0  0  0  0  0
  1 14  1  0  0  0  0
  1 17  1  0  0  0  0
  2 15  1  0  0  0  0
  2 51  1  0  0  0  0
  3 24  1  0  0  0  0
  3 52  1  0  0  0  0
  4  8  1  0  0  0  0
  5  8  2  0  0  0  0
  6 11  1  0  0  0  0
  6 12  1  0  0  0  0
  6 13  1  0  0  0  0
  7 16  1  0  0  0  0
  7 19  1  0  0  0  0
  7 20  1  0  0  0  0
  8 23  1  0  0  0  0
  9 10  1  0  0  0  0
  9 11  1  0  0  0  0
  9 26  1  0  0  0  0
  9 27  1  0  0  0  0
 10 12  1  0  0  0  0
 10 28  1  0  0  0  0
 10 29  1  0  0  0  0
 11 30  1  0  0  0  0
 11 31  1  0  0  0  0
 12 32  1  0  0  0  0
 12 33  1  0  0  0  0
 13 14  2  0  0  0  0
 13 18  1  0  0  0  0
 14 21  1  0  0  0  0
 15 16  1  0  0  0  0
 15 17  1  0  0  0  0
 15 34  1  0  0  0  0
 16 35  1  0  0  0  0
 16 36  1  0  0  0  0
 17 37  1  0  0  0  0
 17 38  1  0  0  0  0
 18 22  2  0  0  0  0
 18 39  1  0  0  0  0
 19 24  1  0  0  0  0
 19 40  1  0  0  0  0
 19 41  1  0  0  0  0
 20 25  1  0  0  0  0
 20 42  1  0  0  0  0
 20 43  1  0  0  0  0
 21 23  2  0  0  0  0
 21 44  1  0  0  0  0
 22 23  1  0  0  0  0
 22 45  1  0  0  0  0
 24 46  1  0  0  0  0
 24 47  1  0  0  0  0
 25 48  1  0  0  0  0
 25 49  1  0  0  0  0
 25 50  1  0  0  0  0
M  CHG  2   4  -1   8   1
M  END
> <PUBCHEM_COMPOUND_CID>
511403
> <PUBCHEM_COMPOUND_CANONICALIZED>
1
> <PUBCHEM_CACTVS_COMPLEXITY>
400
> <PUBCHEM_CACTVS_HBOND_ACCEPTOR>
7
> <PUBCHEM_CACTVS_HBOND_DONOR>
2
> <PUBCHEM_CACTVS_ROTATABLE_BOND>
9
> <PUBCHEM_CACTVS_SUBSKEYS>
AAADceB7OAAAAAAAAAAAAAAAAAAAAWAAAAAwAAAAAAAAAAABAAAAHgAECAAACBzhkAYyxoMQRgCBACRCQwCCCAAhIgAoiAAPbIoPNiLEsZuHOCjmwBnb6AeQUAEAAACAAgAAEAAAAQAEAAAgAAAAAAAAAA==
> <PUBCHEM_IUPAC_OPENEYE_NAME>
1-[ethyl(2-hydroxyethyl)amino]-3-(5-nitro-2-pyrrolidin-1-yl-phenoxy)propan-2-ol
> <PUBCHEM_IUPAC_CAS_NAME>
1-[ethyl(2-hydroxyethyl)amino]-3-[5-nitro-2-(1-pyrrolidinyl)phenoxy]-2-propanol
> <PUBCHEM_IUPAC_NAME_MARKUP>
1-[ethyl(2-hydroxyethyl)amino]-3-(5-nitro-2-pyrrolidin-1-ylphenoxy)propan-2-ol
> <PUBCHEM_IUPAC_NAME>
1-[ethyl(2-hydroxyethyl)amino]-3-(5-nitro-2-pyrrolidin-1-ylphenoxy)propan-2-ol
> <PUBCHEM_IUPAC_SYSTEMATIC_NAME>
1-[ethyl(2-hydroxyethyl)amino]-3-(5-nitro-2-pyrrolidin-1-yl-phenoxy)propan-2-ol
> <PUBCHEM_IUPAC_TRADITIONAL_NAME>
1-[ethyl(2-hydroxyethyl)amino]-3-(5-nitro-2-pyrrolidino-phenoxy)propan-2-ol
> <PUBCHEM_IUPAC_INCHI>
InChI=1S/C17H27N3O5/c1-2-18(9-10-21)12-15(22)13-25-17-11-14(20(23)24)5-6-16(17)19-7-3-4-8-19/h5-6,11,15,21-22H,2-4,7-10,12-13H2,1H3
> <PUBCHEM_IUPAC_INCHIKEY>
XSVZSGCSSZXRDT-UHFFFAOYSA-N
> <PUBCHEM_XLOGP3_AA>
1.4
> <PUBCHEM_EXACT_MASS>
353.19507097
> <PUBCHEM_MOLECULAR_FORMULA>
C17H27N3O5
> <PUBCHEM_MOLECULAR_WEIGHT>
353.4
> <PUBCHEM_OPENEYE_CAN_SMILES>
CCN(CCO)CC(COC1=C(C=CC(=C1)[N+](=O)[O-])N2CCCC2)O
> <PUBCHEM_OPENEYE_ISO_SMILES>
CCN(CCO)CC(COC1=C(C=CC(=C1)[N+](=O)[O-])N2CCCC2)O
> <PUBCHEM_CACTVS_TPSA>
102
> <PUBCHEM_MONOISOTOPIC_WEIGHT>
353.19507097
> <PUBCHEM_TOTAL_CHARGE>
0
> <PUBCHEM_HEAVY_ATOM_COUNT>
25
> <PUBCHEM_ATOM_DEF_STEREO_COUNT>
0
> <PUBCHEM_ATOM_UDEF_STEREO_COUNT>
1
> <PUBCHEM_BOND_DEF_STEREO_COUNT>
0
> <PUBCHEM_BOND_UDEF_STEREO_COUNT>
0
> <PUBCHEM_ISOTOPIC_ATOM_COUNT>
0
> <PUBCHEM_COMPONENT_COUNT>
1
> <PUBCHEM_CACTVS_TAUTO_COUNT>
-1
> <PUBCHEM_COORDINATE_TYPE>
1
5
255
> <PUBCHEM_BONDANNOTATIONS>
13  14  8
13  18  8
14  21  8
18  22  8
15  2  3
21  23  8
22  23  8
$$$$
