511427
  -OEChem-10302200282D
 58 59  0     1  0  0  0  0  0999 V2000
    7.1962    1.2306    0.0000 O   0  0  0  0  0  0  0  0  0  0  0  0
    5.4641    2.2306    0.0000 O   0  0  0  0  0  0  0  0  0  0  0  0
    9.7942   -2.2694    0.0000 O   0  0  0  0  0  0  0  0  0  0  0  0
    8.0622   -2.2694    0.0000 O   0  0  0  0  0  0  0  0  0  0  0  0
    8.9282    2.2306    0.0000 N   0  0  0  0  0  0  0  0  0  0  0  0
    3.7320    1.2306    0.0000 N   0  0  0  0  0  0  0  0  0  0  0  0
    9.4282    3.7694    0.0000 C   0  0  0  0  0  0  0  0  0  0  0  0
    8.4282    3.7694    0.0000 C   0  0  0  0  0  0  0  0  0  0  0  0
    9.7372    2.8184    0.0000 C   0  0  0  0  0  0  0  0  0  0  0  0
    8.1192    2.8184    0.0000 C   0  0  0  0  0  0  0  0  0  0  0  0
    8.9282    1.2306    0.0000 C   0  0  0  0  0  0  0  0  0  0  0  0
    8.0622    0.7306    0.0000 C   0  0  0  0  0  0  0  0  0  0  0  0
    5.4641    1.2306    0.0000 C   0  0  3  0  0  0  0  0  0  0  0  0
    9.7942    0.7306    0.0000 C   0  0  0  0  0  0  0  0  0  0  0  0
    4.5981    0.7306    0.0000 C   0  0  0  0  0  0  0  0  0  0  0  0
    6.3301    0.7306    0.0000 C   0  0  0  0  0  0  0  0  0  0  0  0
    8.0622   -0.2694    0.0000 C   0  0  0  0  0  0  0  0  0  0  0  0
    9.7942   -0.2694    0.0000 C   0  0  0  0  0  0  0  0  0  0  0  0
    8.9282   -0.7694    0.0000 C   0  0  0  0  0  0  0  0  0  0  0  0
    2.8660    0.7306    0.0000 C   0  0  0  0  0  0  0  0  0  0  0  0
    3.7320    2.2306    0.0000 C   0  0  0  0  0  0  0  0  0  0  0  0
    2.0000    1.2306    0.0000 C   0  0  0  0  0  0  0  0  0  0  0  0
    2.8660    2.7306    0.0000 C   0  0  0  0  0  0  0  0  0  0  0  0
    8.9282   -1.7694    0.0000 C   0  0  0  0  0  0  0  0  0  0  0  0
    9.7942   -3.2694    0.0000 C   0  0  0  0  0  0  0  0  0  0  0  0
   10.6603   -3.7694    0.0000 C   0  0  0  0  0  0  0  0  0  0  0  0
   10.0347    3.8983    0.0000 H   0  0  0  0  0  0  0  0  0  0  0  0
    9.3634    4.3860    0.0000 H   0  0  0  0  0  0  0  0  0  0  0  0
    8.4930    4.3860    0.0000 H   0  0  0  0  0  0  0  0  0  0  0  0
    7.8218    3.8983    0.0000 H   0  0  0  0  0  0  0  0  0  0  0  0
   10.0472    2.2814    0.0000 H   0  0  0  0  0  0  0  0  0  0  0  0
   10.3036    3.0705    0.0000 H   0  0  0  0  0  0  0  0  0  0  0  0
    7.5528    3.0705    0.0000 H   0  0  0  0  0  0  0  0  0  0  0  0
    7.8092    2.2814    0.0000 H   0  0  0  0  0  0  0  0  0  0  0  0
    6.0010    1.5406    0.0000 H   0  0  0  0  0  0  0  0  0  0  0  0
    4.1996    0.2556    0.0000 H   0  0  0  0  0  0  0  0  0  0  0  0
    4.9966    0.2556    0.0000 H   0  0  0  0  0  0  0  0  0  0  0  0
   10.3312    1.0406    0.0000 H   0  0  0  0  0  0  0  0  0  0  0  0
    5.9316    0.2556    0.0000 H   0  0  0  0  0  0  0  0  0  0  0  0
    6.7287    0.2556    0.0000 H   0  0  0  0  0  0  0  0  0  0  0  0
    7.5252   -0.5794    0.0000 H   0  0  0  0  0  0  0  0  0  0  0  0
   10.3312   -0.5794    0.0000 H   0  0  0  0  0  0  0  0  0  0  0  0
    2.4675    0.2556    0.0000 H   0  0  0  0  0  0  0  0  0  0  0  0
    3.2646    0.2556    0.0000 H   0  0  0  0  0  0  0  0  0  0  0  0
    4.3426    2.1229    0.0000 H   0  0  0  0  0  0  0  0  0  0  0  0
    3.9441    2.8132    0.0000 H   0  0  0  0  0  0  0  0  0  0  0  0
    2.3100    1.7675    0.0000 H   0  0  0  0  0  0  0  0  0  0  0  0
    1.4631    1.5406    0.0000 H   0  0  0  0  0  0  0  0  0  0  0  0
    1.6900    0.6936    0.0000 H   0  0  0  0  0  0  0  0  0  0  0  0
    3.1760    3.2675    0.0000 H   0  0  0  0  0  0  0  0  0  0  0  0
    2.3291    3.0406    0.0000 H   0  0  0  0  0  0  0  0  0  0  0  0
    2.5560    2.1936    0.0000 H   0  0  0  0  0  0  0  0  0  0  0  0
    4.9272    2.5406    0.0000 H   0  0  0  0  0  0  0  0  0  0  0  0
    9.1836   -3.1618    0.0000 H   0  0  0  0  0  0  0  0  0  0  0  0
    9.5822   -3.8520    0.0000 H   0  0  0  0  0  0  0  0  0  0  0  0
   10.3503   -4.3064    0.0000 H   0  0  0  0  0  0  0  0  0  0  0  0
   11.1972   -4.0794    0.0000 H   0  0  0  0  0  0  0  0  0  0  0  0
   10.9703   -3.2325    0.0000 H   0  0  0  0  0  0  0  0  0  0  0  0
  1 12  1  0  0  0  0
  1 16  1  0  0  0  0
  2 13  1  0  0  0  0
  2 53  1  0  0  0  0
  3 24  1  0  0  0  0
  3 25  1  0  0  0  0
  4 24  2  0  0  0  0
  5  9  1  0  0  0  0
  5 10  1  0  0  0  0
  5 11  1  0  0  0  0
  6 15  1  0  0  0  0
  6 20  1  0  0  0  0
  6 21  1  0  0  0  0
  7  8  1  0  0  0  0
  7  9  1  0  0  0  0
  7 27  1  0  0  0  0
  7 28  1  0  0  0  0
  8 10  1  0  0  0  0
  8 29  1  0  0  0  0
  8 30  1  0  0  0  0
  9 31  1  0  0  0  0
  9 32  1  0  0  0  0
 10 33  1  0  0  0  0
 10 34  1  0  0  0  0
 11 12  2  0  0  0  0
 11 14  1  0  0  0  0
 12 17  1  0  0  0  0
 13 15  1  0  0  0  0
 13 16  1  0  0  0  0
 13 35  1  0  0  0  0
 14 18  2  0  0  0  0
 14 38  1  0  0  0  0
 15 36  1  0  0  0  0
 15 37  1  0  0  0  0
 16 39  1  0  0  0  0
 16 40  1  0  0  0  0
 17 19  2  0  0  0  0
 17 41  1  0  0  0  0
 18 19  1  0  0  0  0
 18 42  1  0  0  0  0
 19 24  1  0  0  0  0
 20 22  1  0  0  0  0
 20 43  1  0  0  0  0
 20 44  1  0  0  0  0
 21 23  1  0  0  0  0
 21 45  1  0  0  0  0
 21 46  1  0  0  0  0
 22 47  1  0  0  0  0
 22 48  1  0  0  0  0
 22 49  1  0  0  0  0
 23 50  1  0  0  0  0
 23 51  1  0  0  0  0
 23 52  1  0  0  0  0
 25 26  1  0  0  0  0
 25 54  1  0  0  0  0
 25 55  1  0  0  0  0
 26 56  1  0  0  0  0
 26 57  1  0  0  0  0
 26 58  1  0  0  0  0
M  END
> <PUBCHEM_COMPOUND_CID>
511427
> <PUBCHEM_COMPOUND_CANONICALIZED>
1
> <PUBCHEM_CACTVS_COMPLEXITY>
411
> <PUBCHEM_CACTVS_HBOND_ACCEPTOR>
6
> <PUBCHEM_CACTVS_HBOND_DONOR>
1
> <PUBCHEM_CACTVS_ROTATABLE_BOND>
11
> <PUBCHEM_CACTVS_SUBSKEYS>
AAADcfB7OAAAAAAAAAAAAAAAAAAAAWAAAAAwAAAAAAAAAAABAAAAHgAACAAADBzhmAYyzoMABgCIAiTSSACCCAAlIgAIiAEPbMgPNjLEtZuHOSjmwBHb6Yfa2TOeCAABAAAAEAAQAAIAAAAgAAAAAAAAAA==
> <PUBCHEM_IUPAC_OPENEYE_NAME>
ethyl 3-[3-(diethylamino)-2-hydroxy-propoxy]-4-pyrrolidin-1-yl-benzoate
> <PUBCHEM_IUPAC_CAS_NAME>
3-[3-(diethylamino)-2-hydroxypropoxy]-4-(1-pyrrolidinyl)benzoic acid ethyl ester
> <PUBCHEM_IUPAC_NAME_MARKUP>
ethyl 3-[3-(diethylamino)-2-hydroxypropoxy]-4-pyrrolidin-1-ylbenzoate
> <PUBCHEM_IUPAC_NAME>
ethyl 3-[3-(diethylamino)-2-hydroxypropoxy]-4-pyrrolidin-1-ylbenzoate
> <PUBCHEM_IUPAC_SYSTEMATIC_NAME>
ethyl 3-[3-(diethylamino)-2-oxidanyl-propoxy]-4-pyrrolidin-1-yl-benzoate
> <PUBCHEM_IUPAC_TRADITIONAL_NAME>
3-[3-(diethylamino)-2-hydroxy-propoxy]-4-pyrrolidino-benzoic acid ethyl ester
> <PUBCHEM_IUPAC_INCHI>
InChI=1S/C20H32N2O4/c1-4-21(5-2)14-17(23)15-26-19-13-16(20(24)25-6-3)9-10-18(19)22-11-7-8-12-22/h9-10,13,17,23H,4-8,11-12,14-15H2,1-3H3
> <PUBCHEM_IUPAC_INCHIKEY>
VKNQNWHLEXDKSA-UHFFFAOYSA-N
> <PUBCHEM_XLOGP3_AA>
2.9
> <PUBCHEM_EXACT_MASS>
364.23620751
> <PUBCHEM_MOLECULAR_FORMULA>
C20H32N2O4
> <PUBCHEM_MOLECULAR_WEIGHT>
364.5
> <PUBCHEM_OPENEYE_CAN_SMILES>
CCN(CC)CC(COC1=C(C=CC(=C1)C(=O)OCC)N2CCCC2)O
> <PUBCHEM_OPENEYE_ISO_SMILES>
CCN(CC)CC(COC1=C(C=CC(=C1)C(=O)OCC)N2CCCC2)O
> <PUBCHEM_CACTVS_TPSA>
62.2
> <PUBCHEM_MONOISOTOPIC_WEIGHT>
364.23620751
> <PUBCHEM_TOTAL_CHARGE>
0
> <PUBCHEM_HEAVY_ATOM_COUNT>
26
> <PUBCHEM_ATOM_DEF_STEREO_COUNT>
0
> <PUBCHEM_ATOM_UDEF_STEREO_COUNT>
1
> <PUBCHEM_BOND_DEF_STEREO_COUNT>
0
> <PUBCHEM_BOND_UDEF_STEREO_COUNT>
0
> <PUBCHEM_ISOTOPIC_ATOM_COUNT>
0
> <PUBCHEM_COMPONENT_COUNT>
1
> <PUBCHEM_CACTVS_TAUTO_COUNT>
-1
> <PUBCHEM_COORDINATE_TYPE>
1
5
255
> <PUBCHEM_BONDANNOTATIONS>
11  12  8
11  14  8
12  17  8
14  18  8
17  19  8
18  19  8
13  2  3
$$$$
