511438
  -OEChem-10302200282D
 46 47  0     1  0  0  0  0  0999 V2000
    7.1962    0.4806    0.0000 O   0  0  0  0  0  0  0  0  0  0  0  0
    5.4641    1.4806    0.0000 O   0  0  0  0  0  0  0  0  0  0  0  0
    9.7942   -3.0194    0.0000 O   0  5  0  0  0  0  0  0  0  0  0  0
    8.0622   -3.0194    0.0000 O   0  0  0  0  0  0  0  0  0  0  0  0
    3.7320    0.4806    0.0000 N   0  0  0  0  0  0  0  0  0  0  0  0
    8.9282    1.4806    0.0000 N   0  0  0  0  0  0  0  0  0  0  0  0
    9.7372    2.0684    0.0000 N   0  0  0  0  0  0  0  0  0  0  0  0
    8.9282   -2.5194    0.0000 N   0  3  0  0  0  0  0  0  0  0  0  0
    4.5981   -0.0194    0.0000 C   0  0  0  0  0  0  0  0  0  0  0  0
    5.4641    0.4806    0.0000 C   0  0  3  0  0  0  0  0  0  0  0  0
    2.8660   -0.0194    0.0000 C   0  0  0  0  0  0  0  0  0  0  0  0
    3.7320    1.4806    0.0000 C   0  0  0  0  0  0  0  0  0  0  0  0
    6.3301   -0.0194    0.0000 C   0  0  0  0  0  0  0  0  0  0  0  0
    2.0000    0.4806    0.0000 C   0  0  0  0  0  0  0  0  0  0  0  0
    2.8660    1.9806    0.0000 C   0  0  0  0  0  0  0  0  0  0  0  0
    8.0622   -0.0194    0.0000 C   0  0  0  0  0  0  0  0  0  0  0  0
    8.9282    0.4806    0.0000 C   0  0  0  0  0  0  0  0  0  0  0  0
    8.0622   -1.0194    0.0000 C   0  0  0  0  0  0  0  0  0  0  0  0
    9.7942   -0.0194    0.0000 C   0  0  0  0  0  0  0  0  0  0  0  0
    8.9282   -1.5194    0.0000 C   0  0  0  0  0  0  0  0  0  0  0  0
    9.7942   -1.0194    0.0000 C   0  0  0  0  0  0  0  0  0  0  0  0
    8.1192    2.0684    0.0000 C   0  0  0  0  0  0  0  0  0  0  0  0
    8.4282    3.0194    0.0000 C   0  0  0  0  0  0  0  0  0  0  0  0
    9.4282    3.0194    0.0000 C   0  0  0  0  0  0  0  0  0  0  0  0
    4.1996   -0.4944    0.0000 H   0  0  0  0  0  0  0  0  0  0  0  0
    4.9966   -0.4944    0.0000 H   0  0  0  0  0  0  0  0  0  0  0  0
    6.0010    0.7906    0.0000 H   0  0  0  0  0  0  0  0  0  0  0  0
    2.4675   -0.4944    0.0000 H   0  0  0  0  0  0  0  0  0  0  0  0
    3.2646   -0.4944    0.0000 H   0  0  0  0  0  0  0  0  0  0  0  0
    4.3426    1.3729    0.0000 H   0  0  0  0  0  0  0  0  0  0  0  0
    3.9441    2.0632    0.0000 H   0  0  0  0  0  0  0  0  0  0  0  0
    5.9316   -0.4944    0.0000 H   0  0  0  0  0  0  0  0  0  0  0  0
    6.7287   -0.4944    0.0000 H   0  0  0  0  0  0  0  0  0  0  0  0
    2.3100    1.0175    0.0000 H   0  0  0  0  0  0  0  0  0  0  0  0
    1.4631    0.7906    0.0000 H   0  0  0  0  0  0  0  0  0  0  0  0
    1.6900   -0.0564    0.0000 H   0  0  0  0  0  0  0  0  0  0  0  0
    3.1760    2.5175    0.0000 H   0  0  0  0  0  0  0  0  0  0  0  0
    2.3291    2.2906    0.0000 H   0  0  0  0  0  0  0  0  0  0  0  0
    2.5560    1.4436    0.0000 H   0  0  0  0  0  0  0  0  0  0  0  0
    4.9272    1.7906    0.0000 H   0  0  0  0  0  0  0  0  0  0  0  0
    7.5252   -1.3294    0.0000 H   0  0  0  0  0  0  0  0  0  0  0  0
   10.3312    0.2906    0.0000 H   0  0  0  0  0  0  0  0  0  0  0  0
   10.3312   -1.3294    0.0000 H   0  0  0  0  0  0  0  0  0  0  0  0
    7.5295    1.8768    0.0000 H   0  0  0  0  0  0  0  0  0  0  0  0
    8.0638    3.5210    0.0000 H   0  0  0  0  0  0  0  0  0  0  0  0
    9.7926    3.5210    0.0000 H   0  0  0  0  0  0  0  0  0  0  0  0
  1 13  1  0  0  0  0
  1 16  1  0  0  0  0
  2 10  1  0  0  0  0
  2 40  1  0  0  0  0
  3  8  1  0  0  0  0
  4  8  2  0  0  0  0
  5  9  1  0  0  0  0
  5 11  1  0  0  0  0
  5 12  1  0  0  0  0
  6  7  1  0  0  0  0
  6 17  1  0  0  0  0
  6 22  1  0  0  0  0
  7 24  2  0  0  0  0
  8 20  1  0  0  0  0
  9 10  1  0  0  0  0
  9 25  1  0  0  0  0
  9 26  1  0  0  0  0
 10 13  1  0  0  0  0
 10 27  1  0  0  0  0
 11 14  1  0  0  0  0
 11 28  1  0  0  0  0
 11 29  1  0  0  0  0
 12 15  1  0  0  0  0
 12 30  1  0  0  0  0
 12 31  1  0  0  0  0
 13 32  1  0  0  0  0
 13 33  1  0  0  0  0
 14 34  1  0  0  0  0
 14 35  1  0  0  0  0
 14 36  1  0  0  0  0
 15 37  1  0  0  0  0
 15 38  1  0  0  0  0
 15 39  1  0  0  0  0
 16 17  2  0  0  0  0
 16 18  1  0  0  0  0
 17 19  1  0  0  0  0
 18 20  2  0  0  0  0
 18 41  1  0  0  0  0
 19 21  2  0  0  0  0
 19 42  1  0  0  0  0
 20 21  1  0  0  0  0
 21 43  1  0  0  0  0
 22 23  2  0  0  0  0
 22 44  1  0  0  0  0
 23 24  1  0  0  0  0
 23 45  1  0  0  0  0
 24 46  1  0  0  0  0
M  CHG  2   3  -1   8   1
M  END
> <PUBCHEM_COMPOUND_CID>
511438
> <PUBCHEM_COMPOUND_CANONICALIZED>
1
> <PUBCHEM_CACTVS_COMPLEXITY>
389
> <PUBCHEM_CACTVS_HBOND_ACCEPTOR>
6
> <PUBCHEM_CACTVS_HBOND_DONOR>
1
> <PUBCHEM_CACTVS_ROTATABLE_BOND>
8
> <PUBCHEM_CACTVS_SUBSKEYS>
AAADceB7uAAAAAAAAAAAAAAAAAAAAWAAAAAwAAAAAAAAAAABwAAAHgAMCAAACBzhkgY+xpMYRgCjADRnRwCSDCAxogA4mCA/bJoPNuLE8duHvCjmyBnb6AeQUAEAAACAAgAAEAAAAQAEAAAgAAAAAAAAAA==
> <PUBCHEM_IUPAC_OPENEYE_NAME>
1-(diethylamino)-3-(5-nitro-2-pyrazol-1-yl-phenoxy)propan-2-ol
> <PUBCHEM_IUPAC_CAS_NAME>
1-(diethylamino)-3-[5-nitro-2-(1-pyrazolyl)phenoxy]-2-propanol
> <PUBCHEM_IUPAC_NAME_MARKUP>
1-(diethylamino)-3-(5-nitro-2-pyrazol-1-ylphenoxy)propan-2-ol
> <PUBCHEM_IUPAC_NAME>
1-(diethylamino)-3-(5-nitro-2-pyrazol-1-ylphenoxy)propan-2-ol
> <PUBCHEM_IUPAC_SYSTEMATIC_NAME>
1-(diethylamino)-3-(5-nitro-2-pyrazol-1-yl-phenoxy)propan-2-ol
> <PUBCHEM_IUPAC_TRADITIONAL_NAME>
1-(diethylamino)-3-(5-nitro-2-pyrazol-1-yl-phenoxy)propan-2-ol
> <PUBCHEM_IUPAC_INCHI>
InChI=1S/C16H22N4O4/c1-3-18(4-2)11-14(21)12-24-16-10-13(20(22)23)6-7-15(16)19-9-5-8-17-19/h5-10,14,21H,3-4,11-12H2,1-2H3
> <PUBCHEM_IUPAC_INCHIKEY>
QJJMWZUGVYEJDL-UHFFFAOYSA-N
> <PUBCHEM_XLOGP3_AA>
1.8
> <PUBCHEM_EXACT_MASS>
334.16410520
> <PUBCHEM_MOLECULAR_FORMULA>
C16H22N4O4
> <PUBCHEM_MOLECULAR_WEIGHT>
334.37
> <PUBCHEM_OPENEYE_CAN_SMILES>
CCN(CC)CC(COC1=C(C=CC(=C1)[N+](=O)[O-])N2C=CC=N2)O
> <PUBCHEM_OPENEYE_ISO_SMILES>
CCN(CC)CC(COC1=C(C=CC(=C1)[N+](=O)[O-])N2C=CC=N2)O
> <PUBCHEM_CACTVS_TPSA>
96.3
> <PUBCHEM_MONOISOTOPIC_WEIGHT>
334.16410520
> <PUBCHEM_TOTAL_CHARGE>
0
> <PUBCHEM_HEAVY_ATOM_COUNT>
24
> <PUBCHEM_ATOM_DEF_STEREO_COUNT>
0
> <PUBCHEM_ATOM_UDEF_STEREO_COUNT>
1
> <PUBCHEM_BOND_DEF_STEREO_COUNT>
0
> <PUBCHEM_BOND_UDEF_STEREO_COUNT>
0
> <PUBCHEM_ISOTOPIC_ATOM_COUNT>
0
> <PUBCHEM_COMPONENT_COUNT>
1
> <PUBCHEM_CACTVS_TAUTO_COUNT>
-1
> <PUBCHEM_COORDINATE_TYPE>
1
5
255
> <PUBCHEM_BONDANNOTATIONS>
16  17  8
16  18  8
17  19  8
18  20  8
19  21  8
10  2  3
20  21  8
22  23  8
23  24  8
6  22  8
6  7  8
7  24  8
$$$$
