511455
  -OEChem-10302200282D
 30 32  0     1  0  0  0  0  0999 V2000
    4.1084   -1.2152    0.0000 O   0  0  0  0  0  0  0  0  0  0  0  0
    3.5053    1.2881    0.0000 C   0  0  3  0  0  0  0  0  0  0  0  0
    4.0445   -0.2172    0.0000 C   0  0  3  0  0  0  0  0  0  0  0  0
    4.0670    0.8612    0.0000 C   0  0  3  0  0  0  0  0  0  0  0  0
    2.4493   -0.1948    0.0000 C   0  0  3  0  0  0  0  0  0  0  0  0
    3.0494   -0.7857    0.0000 C   0  0  0  0  0  0  0  0  0  0  0  0
    2.9885    0.5017    0.0000 C   0  0  0  0  0  0  0  0  0  0  0  0
    2.7864    1.4903    0.0000 C   0  0  0  0  0  0  0  0  0  0  0  0
    2.0000    0.7713    0.0000 C   0  0  0  0  0  0  0  0  0  0  0  0
    5.1158   -0.6591    0.0000 C   0  0  0  0  0  0  0  0  0  0  0  0
    4.9882    0.7039    0.0000 C   0  0  0  0  0  0  0  0  0  0  0  0
    5.5723    0.0299    0.0000 C   0  0  0  0  0  0  0  0  0  0  0  0
    3.7817    1.8431    0.0000 H   0  0  0  0  0  0  0  0  0  0  0  0
    4.1143    0.2430    0.0000 H   0  0  0  0  0  0  0  0  0  0  0  0
    1.9426   -0.5521    0.0000 H   0  0  0  0  0  0  0  0  0  0  0  0
    2.5759   -1.1859    0.0000 H   0  0  0  0  0  0  0  0  0  0  0  0
    3.4047   -1.2938    0.0000 H   0  0  0  0  0  0  0  0  0  0  0  0
    2.9917    1.1217    0.0000 H   0  0  0  0  0  0  0  0  0  0  0  0
    3.3472   -0.0040    0.0000 H   0  0  0  0  0  0  0  0  0  0  0  0
    3.0613    2.0460    0.0000 H   0  0  0  0  0  0  0  0  0  0  0  0
    2.2908    1.8629    0.0000 H   0  0  0  0  0  0  0  0  0  0  0  0
    1.6303    1.2690    0.0000 H   0  0  0  0  0  0  0  0  0  0  0  0
    1.4673    0.4541    0.0000 H   0  0  0  0  0  0  0  0  0  0  0  0
    4.8428   -1.2158    0.0000 H   0  0  0  0  0  0  0  0  0  0  0  0
    5.6537   -0.9675    0.0000 H   0  0  0  0  0  0  0  0  0  0  0  0
    5.5544    0.9566    0.0000 H   0  0  0  0  0  0  0  0  0  0  0  0
    4.9107    1.3191    0.0000 H   0  0  0  0  0  0  0  0  0  0  0  0
    6.0561   -0.3579    0.0000 H   0  0  0  0  0  0  0  0  0  0  0  0
    6.0022    0.4767    0.0000 H   0  0  0  0  0  0  0  0  0  0  0  0
    4.6640   -1.4903    0.0000 H   0  0  0  0  0  0  0  0  0  0  0  0
  1  3  1  0  0  0  0
  1 30  1  0  0  0  0
  2  3  1  0  0  0  0
  2  4  1  0  0  0  0
  2  8  1  0  0  0  0
  2 13  1  0  0  0  0
  3  6  1  0  0  0  0
  3 10  1  0  0  0  0
  4  7  1  0  0  0  0
  4 11  1  0  0  0  0
  4 14  1  0  0  0  0
  5  6  1  0  0  0  0
  5  7  1  0  0  0  0
  5  9  1  0  0  0  0
  5 15  1  0  0  0  0
  6 16  1  0  0  0  0
  6 17  1  0  0  0  0
  7 18  1  0  0  0  0
  7 19  1  0  0  0  0
  8  9  1  0  0  0  0
  8 20  1  0  0  0  0
  8 21  1  0  0  0  0
  9 22  1  0  0  0  0
  9 23  1  0  0  0  0
 10 12  1  0  0  0  0
 10 24  1  0  0  0  0
 10 25  1  0  0  0  0
 11 12  1  0  0  0  0
 11 26  1  0  0  0  0
 11 27  1  0  0  0  0
 12 28  1  0  0  0  0
 12 29  1  0  0  0  0
M  END
> <PUBCHEM_COMPOUND_CID>
511455
> <PUBCHEM_COMPOUND_CANONICALIZED>
1
> <PUBCHEM_CACTVS_COMPLEXITY>
201
> <PUBCHEM_CACTVS_HBOND_ACCEPTOR>
1
> <PUBCHEM_CACTVS_HBOND_DONOR>
1
> <PUBCHEM_CACTVS_ROTATABLE_BOND>
0
> <PUBCHEM_CACTVS_SUBSKEYS>
AAADceBwIAAAAAAAAAAAAAAAAAAAAAAAAAAwYMAAAAAYAAAAAAAAGgAACAAADUSAgAAAAAAAAgAAAAAAAAAAAAAAAAAAAAAAAAAAAAIAAAAAQAAEAAAAAAGAwPAOgAAAAAAAAACAAAYAADAAAAAAAAAAAA==
> <PUBCHEM_IUPAC_OPENEYE_NAME>
tricyclo[5.3.1.03,8]undecan-3-ol
> <PUBCHEM_IUPAC_CAS_NAME>
3-tricyclo[5.3.1.03,8]undecanol
> <PUBCHEM_IUPAC_NAME_MARKUP>
tricyclo[5.3.1.0<SUP>3,8</SUP>]undecan-3-ol
> <PUBCHEM_IUPAC_NAME>
tricyclo[5.3.1.03,8]undecan-3-ol
> <PUBCHEM_IUPAC_SYSTEMATIC_NAME>
tricyclo[5.3.1.03,8]undecan-3-ol
> <PUBCHEM_IUPAC_TRADITIONAL_NAME>
tricyclo[5.3.1.03,8]undecan-3-ol
> <PUBCHEM_IUPAC_INCHI>
InChI=1S/C11H18O/c12-11-5-1-2-9-6-8(7-11)3-4-10(9)11/h8-10,12H,1-7H2
> <PUBCHEM_IUPAC_INCHIKEY>
SVEULPCBDTWNMG-UHFFFAOYSA-N
> <PUBCHEM_XLOGP3_AA>
2.6
> <PUBCHEM_EXACT_MASS>
166.135765193
> <PUBCHEM_MOLECULAR_FORMULA>
C11H18O
> <PUBCHEM_MOLECULAR_WEIGHT>
166.26
> <PUBCHEM_OPENEYE_CAN_SMILES>
C1CC2CC3CCC2C(C1)(C3)O
> <PUBCHEM_OPENEYE_ISO_SMILES>
C1CC2CC3CCC2C(C1)(C3)O
> <PUBCHEM_CACTVS_TPSA>
20.2
> <PUBCHEM_MONOISOTOPIC_WEIGHT>
166.135765193
> <PUBCHEM_TOTAL_CHARGE>
0
> <PUBCHEM_HEAVY_ATOM_COUNT>
12
> <PUBCHEM_ATOM_DEF_STEREO_COUNT>
0
> <PUBCHEM_ATOM_UDEF_STEREO_COUNT>
4
> <PUBCHEM_BOND_DEF_STEREO_COUNT>
0
> <PUBCHEM_BOND_UDEF_STEREO_COUNT>
0
> <PUBCHEM_ISOTOPIC_ATOM_COUNT>
0
> <PUBCHEM_COMPONENT_COUNT>
1
> <PUBCHEM_CACTVS_TAUTO_COUNT>
-1
> <PUBCHEM_COORDINATE_TYPE>
1
5
255
> <PUBCHEM_BONDANNOTATIONS>
2  8  3
3  6  3
4  11  3
5  9  3
$$$$
