511412
  -OEChem-10302200282D
 52 54  0     1  0  0  0  0  0999 V2000
    7.1962    0.4806    0.0000 O   0  0  0  0  0  0  0  0  0  0  0  0
    5.4641    1.4806    0.0000 O   0  0  0  0  0  0  0  0  0  0  0  0
    9.7942   -3.0194    0.0000 O   0  5  0  0  0  0  0  0  0  0  0  0
    8.0622   -3.0194    0.0000 O   0  0  0  0  0  0  0  0  0  0  0  0
    3.7320    0.4806    0.0000 N   0  0  0  0  0  0  0  0  0  0  0  0
    8.9282    1.4806    0.0000 N   0  0  0  0  0  0  0  0  0  0  0  0
    8.9282   -2.5194    0.0000 N   0  3  0  0  0  0  0  0  0  0  0  0
    3.7320    1.4806    0.0000 C   0  0  0  0  0  0  0  0  0  0  0  0
    2.8660   -0.0194    0.0000 C   0  0  0  0  0  0  0  0  0  0  0  0
    2.8660    1.9806    0.0000 C   0  0  0  0  0  0  0  0  0  0  0  0
    2.0000    0.4806    0.0000 C   0  0  0  0  0  0  0  0  0  0  0  0
    2.0000    1.4806    0.0000 C   0  0  0  0  0  0  0  0  0  0  0  0
    4.5981   -0.0194    0.0000 C   0  0  0  0  0  0  0  0  0  0  0  0
    9.7372    2.0684    0.0000 C   0  0  0  0  0  0  0  0  0  0  0  0
    8.1192    2.0684    0.0000 C   0  0  0  0  0  0  0  0  0  0  0  0
    9.4282    3.0194    0.0000 C   0  0  0  0  0  0  0  0  0  0  0  0
    8.4282    3.0194    0.0000 C   0  0  0  0  0  0  0  0  0  0  0  0
    5.4641    0.4806    0.0000 C   0  0  3  0  0  0  0  0  0  0  0  0
    8.9282    0.4806    0.0000 C   0  0  0  0  0  0  0  0  0  0  0  0
    6.3301   -0.0194    0.0000 C   0  0  0  0  0  0  0  0  0  0  0  0
    8.0622   -0.0194    0.0000 C   0  0  0  0  0  0  0  0  0  0  0  0
    9.7942   -0.0194    0.0000 C   0  0  0  0  0  0  0  0  0  0  0  0
    8.0622   -1.0194    0.0000 C   0  0  0  0  0  0  0  0  0  0  0  0
    9.7942   -1.0194    0.0000 C   0  0  0  0  0  0  0  0  0  0  0  0
    8.9282   -1.5194    0.0000 C   0  0  0  0  0  0  0  0  0  0  0  0
    4.3426    1.3729    0.0000 H   0  0  0  0  0  0  0  0  0  0  0  0
    3.9441    2.0632    0.0000 H   0  0  0  0  0  0  0  0  0  0  0  0
    2.4675   -0.4944    0.0000 H   0  0  0  0  0  0  0  0  0  0  0  0
    3.2646   -0.4944    0.0000 H   0  0  0  0  0  0  0  0  0  0  0  0
    3.2646    2.4555    0.0000 H   0  0  0  0  0  0  0  0  0  0  0  0
    2.4675    2.4555    0.0000 H   0  0  0  0  0  0  0  0  0  0  0  0
    1.3894    0.5882    0.0000 H   0  0  0  0  0  0  0  0  0  0  0  0
    1.7880   -0.1020    0.0000 H   0  0  0  0  0  0  0  0  0  0  0  0
    1.7880    2.0632    0.0000 H   0  0  0  0  0  0  0  0  0  0  0  0
    1.3894    1.3729    0.0000 H   0  0  0  0  0  0  0  0  0  0  0  0
    4.1996   -0.4944    0.0000 H   0  0  0  0  0  0  0  0  0  0  0  0
    4.9966   -0.4944    0.0000 H   0  0  0  0  0  0  0  0  0  0  0  0
   10.0472    1.5314    0.0000 H   0  0  0  0  0  0  0  0  0  0  0  0
   10.3036    2.3205    0.0000 H   0  0  0  0  0  0  0  0  0  0  0  0
    7.5528    2.3205    0.0000 H   0  0  0  0  0  0  0  0  0  0  0  0
    7.8092    1.5314    0.0000 H   0  0  0  0  0  0  0  0  0  0  0  0
   10.0347    3.1483    0.0000 H   0  0  0  0  0  0  0  0  0  0  0  0
    9.3634    3.6360    0.0000 H   0  0  0  0  0  0  0  0  0  0  0  0
    8.4930    3.6360    0.0000 H   0  0  0  0  0  0  0  0  0  0  0  0
    7.8218    3.1483    0.0000 H   0  0  0  0  0  0  0  0  0  0  0  0
    6.0010    0.7906    0.0000 H   0  0  0  0  0  0  0  0  0  0  0  0
    5.9316   -0.4944    0.0000 H   0  0  0  0  0  0  0  0  0  0  0  0
    6.7287   -0.4944    0.0000 H   0  0  0  0  0  0  0  0  0  0  0  0
   10.3312    0.2906    0.0000 H   0  0  0  0  0  0  0  0  0  0  0  0
    6.0010    1.7906    0.0000 H   0  0  0  0  0  0  0  0  0  0  0  0
    7.5252   -1.3294    0.0000 H   0  0  0  0  0  0  0  0  0  0  0  0
   10.3312   -1.3294    0.0000 H   0  0  0  0  0  0  0  0  0  0  0  0
  1 20  1  0  0  0  0
  1 21  1  0  0  0  0
  2 18  1  0  0  0  0
  2 50  1  0  0  0  0
  3  7  1  0  0  0  0
  4  7  2  0  0  0  0
  5  8  1  0  0  0  0
  5  9  1  0  0  0  0
  5 13  1  0  0  0  0
  6 14  1  0  0  0  0
  6 15  1  0  0  0  0
  6 19  1  0  0  0  0
  7 25  1  0  0  0  0
  8 10  1  0  0  0  0
  8 26  1  0  0  0  0
  8 27  1  0  0  0  0
  9 11  1  0  0  0  0
  9 28  1  0  0  0  0
  9 29  1  0  0  0  0
 10 12  1  0  0  0  0
 10 30  1  0  0  0  0
 10 31  1  0  0  0  0
 11 12  1  0  0  0  0
 11 32  1  0  0  0  0
 11 33  1  0  0  0  0
 12 34  1  0  0  0  0
 12 35  1  0  0  0  0
 13 18  1  0  0  0  0
 13 36  1  0  0  0  0
 13 37  1  0  0  0  0
 14 16  1  0  0  0  0
 14 38  1  0  0  0  0
 14 39  1  0  0  0  0
 15 17  1  0  0  0  0
 15 40  1  0  0  0  0
 15 41  1  0  0  0  0
 16 17  1  0  0  0  0
 16 42  1  0  0  0  0
 16 43  1  0  0  0  0
 17 44  1  0  0  0  0
 17 45  1  0  0  0  0
 18 20  1  0  0  0  0
 18 46  1  0  0  0  0
 19 21  2  0  0  0  0
 19 22  1  0  0  0  0
 20 47  1  0  0  0  0
 20 48  1  0  0  0  0
 21 23  1  0  0  0  0
 22 24  2  0  0  0  0
 22 49  1  0  0  0  0
 23 25  2  0  0  0  0
 23 51  1  0  0  0  0
 24 25  1  0  0  0  0
 24 52  1  0  0  0  0
M  CHG  2   3  -1   7   1
M  END
> <PUBCHEM_COMPOUND_CID>
511412
> <PUBCHEM_COMPOUND_CANONICALIZED>
1
> <PUBCHEM_CACTVS_COMPLEXITY>
419
> <PUBCHEM_CACTVS_HBOND_ACCEPTOR>
6
> <PUBCHEM_CACTVS_HBOND_DONOR>
1
> <PUBCHEM_CACTVS_ROTATABLE_BOND>
6
> <PUBCHEM_CACTVS_SUBSKEYS>
AAADceB7OAAAAAAAAAAAAAAAAAAAAWAAAAA8QAAAAAAAAAABAAAAHgAECAAACBzhkAYwxoMQRgCBACRCQwCCCAAhIgAoiAAPbIoPNiLEsZuHOCjmwBnb6AeQUAEAAACAAgAAEAAAAQAEAAAgAAAAAAAAAA==
> <PUBCHEM_IUPAC_OPENEYE_NAME>
1-(5-nitro-2-pyrrolidin-1-yl-phenoxy)-3-(1-piperidyl)propan-2-ol
> <PUBCHEM_IUPAC_CAS_NAME>
1-[5-nitro-2-(1-pyrrolidinyl)phenoxy]-3-(1-piperidinyl)-2-propanol
> <PUBCHEM_IUPAC_NAME_MARKUP>
1-(5-nitro-2-pyrrolidin-1-ylphenoxy)-3-piperidin-1-ylpropan-2-ol
> <PUBCHEM_IUPAC_NAME>
1-(5-nitro-2-pyrrolidin-1-ylphenoxy)-3-piperidin-1-ylpropan-2-ol
> <PUBCHEM_IUPAC_SYSTEMATIC_NAME>
1-(5-nitro-2-pyrrolidin-1-yl-phenoxy)-3-piperidin-1-yl-propan-2-ol
> <PUBCHEM_IUPAC_TRADITIONAL_NAME>
1-(5-nitro-2-pyrrolidino-phenoxy)-3-piperidino-propan-2-ol
> <PUBCHEM_IUPAC_INCHI>
InChI=1S/C18H27N3O4/c22-16(13-19-8-2-1-3-9-19)14-25-18-12-15(21(23)24)6-7-17(18)20-10-4-5-11-20/h6-7,12,16,22H,1-5,8-11,13-14H2
> <PUBCHEM_IUPAC_INCHIKEY>
ZWHIEVGKROAHEU-UHFFFAOYSA-N
> <PUBCHEM_XLOGP3_AA>
2.6
> <PUBCHEM_EXACT_MASS>
349.20015635
> <PUBCHEM_MOLECULAR_FORMULA>
C18H27N3O4
> <PUBCHEM_MOLECULAR_WEIGHT>
349.4
> <PUBCHEM_OPENEYE_CAN_SMILES>
C1CCN(CC1)CC(COC2=C(C=CC(=C2)[N+](=O)[O-])N3CCCC3)O
> <PUBCHEM_OPENEYE_ISO_SMILES>
C1CCN(CC1)CC(COC2=C(C=CC(=C2)[N+](=O)[O-])N3CCCC3)O
> <PUBCHEM_CACTVS_TPSA>
81.8
> <PUBCHEM_MONOISOTOPIC_WEIGHT>
349.20015635
> <PUBCHEM_TOTAL_CHARGE>
0
> <PUBCHEM_HEAVY_ATOM_COUNT>
25
> <PUBCHEM_ATOM_DEF_STEREO_COUNT>
0
> <PUBCHEM_ATOM_UDEF_STEREO_COUNT>
1
> <PUBCHEM_BOND_DEF_STEREO_COUNT>
0
> <PUBCHEM_BOND_UDEF_STEREO_COUNT>
0
> <PUBCHEM_ISOTOPIC_ATOM_COUNT>
0
> <PUBCHEM_COMPONENT_COUNT>
1
> <PUBCHEM_CACTVS_TAUTO_COUNT>
-1
> <PUBCHEM_COORDINATE_TYPE>
1
5
255
> <PUBCHEM_BONDANNOTATIONS>
19  21  8
19  22  8
18  2  3
21  23  8
22  24  8
23  25  8
24  25  8
$$$$
