511528
  -OEChem-10302200282D
 38 39  0     1  0  0  0  0  0999 V2000
    4.0981   -1.8660    0.0000 Cl  0  0  0  0  0  0  0  0  0  0  0  0
    5.4641   -1.5000    0.0000 Cl  0  0  0  0  0  0  0  0  0  0  0  0
    5.0981   -0.1340    0.0000 Cl  0  0  0  0  0  0  0  0  0  0  0  0
    5.4641    0.5000    0.0000 O   0  0  0  0  0  0  0  0  0  0  0  0
    2.0000   -5.5000    0.0000 O   0  5  0  0  0  0  0  0  0  0  0  0
    3.7320   -5.5000    0.0000 O   0  0  0  0  0  0  0  0  0  0  0  0
    5.4641    5.5000    0.0000 O   0  5  0  0  0  0  0  0  0  0  0  0
    3.7320    5.5000    0.0000 O   0  0  0  0  0  0  0  0  0  0  0  0
    2.8660   -1.0000    0.0000 N   0  0  0  0  0  0  0  0  0  0  0  0
    3.7320    0.5000    0.0000 N   0  0  0  0  0  0  0  0  0  0  0  0
    2.8660   -5.0000    0.0000 N   0  3  0  0  0  0  0  0  0  0  0  0
    4.5981    5.0000    0.0000 N   0  3  0  0  0  0  0  0  0  0  0  0
    3.7320   -0.5000    0.0000 C   0  0  3  0  0  0  0  0  0  0  0  0
    4.5981   -1.0000    0.0000 C   0  0  0  0  0  0  0  0  0  0  0  0
    2.8660   -2.0000    0.0000 C   0  0  0  0  0  0  0  0  0  0  0  0
    4.5981    1.0000    0.0000 C   0  0  0  0  0  0  0  0  0  0  0  0
    4.5981    2.0000    0.0000 C   0  0  0  0  0  0  0  0  0  0  0  0
    2.0000   -2.5000    0.0000 C   0  0  0  0  0  0  0  0  0  0  0  0
    3.7320   -2.5000    0.0000 C   0  0  0  0  0  0  0  0  0  0  0  0
    2.0000   -3.5000    0.0000 C   0  0  0  0  0  0  0  0  0  0  0  0
    3.7320   -3.5000    0.0000 C   0  0  0  0  0  0  0  0  0  0  0  0
    2.8660   -4.0000    0.0000 C   0  0  0  0  0  0  0  0  0  0  0  0
    5.4641    2.5000    0.0000 C   0  0  0  0  0  0  0  0  0  0  0  0
    3.7320    2.5000    0.0000 C   0  0  0  0  0  0  0  0  0  0  0  0
    4.5981    4.0000    0.0000 C   0  0  0  0  0  0  0  0  0  0  0  0
    5.4641    3.5000    0.0000 C   0  0  0  0  0  0  0  0  0  0  0  0
    3.7320    3.5000    0.0000 C   0  0  0  0  0  0  0  0  0  0  0  0
    4.2690   -0.1900    0.0000 H   0  0  0  0  0  0  0  0  0  0  0  0
    2.3291   -0.6900    0.0000 H   0  0  0  0  0  0  0  0  0  0  0  0
    3.1951    0.8100    0.0000 H   0  0  0  0  0  0  0  0  0  0  0  0
    1.4631   -2.1900    0.0000 H   0  0  0  0  0  0  0  0  0  0  0  0
    4.2690   -2.1900    0.0000 H   0  0  0  0  0  0  0  0  0  0  0  0
    1.4631   -3.8100    0.0000 H   0  0  0  0  0  0  0  0  0  0  0  0
    4.2690   -3.8100    0.0000 H   0  0  0  0  0  0  0  0  0  0  0  0
    6.0010    2.1900    0.0000 H   0  0  0  0  0  0  0  0  0  0  0  0
    3.1951    2.1900    0.0000 H   0  0  0  0  0  0  0  0  0  0  0  0
    6.0010    3.8100    0.0000 H   0  0  0  0  0  0  0  0  0  0  0  0
    3.1951    3.8100    0.0000 H   0  0  0  0  0  0  0  0  0  0  0  0
  1 14  1  0  0  0  0
  2 14  1  0  0  0  0
  3 14  1  0  0  0  0
  4 16  2  0  0  0  0
  5 11  1  0  0  0  0
  6 11  2  0  0  0  0
  7 12  1  0  0  0  0
  8 12  2  0  0  0  0
  9 13  1  0  0  0  0
  9 15  1  0  0  0  0
  9 29  1  0  0  0  0
 10 13  1  0  0  0  0
 10 16  1  0  0  0  0
 10 30  1  0  0  0  0
 11 22  1  0  0  0  0
 12 25  1  0  0  0  0
 13 14  1  0  0  0  0
 13 28  1  0  0  0  0
 15 18  2  0  0  0  0
 15 19  1  0  0  0  0
 16 17  1  0  0  0  0
 17 23  2  0  0  0  0
 17 24  1  0  0  0  0
 18 20  1  0  0  0  0
 18 31  1  0  0  0  0
 19 21  2  0  0  0  0
 19 32  1  0  0  0  0
 20 22  2  0  0  0  0
 20 33  1  0  0  0  0
 21 22  1  0  0  0  0
 21 34  1  0  0  0  0
 23 26  1  0  0  0  0
 23 35  1  0  0  0  0
 24 27  2  0  0  0  0
 24 36  1  0  0  0  0
 25 26  2  0  0  0  0
 25 27  1  0  0  0  0
 26 37  1  0  0  0  0
 27 38  1  0  0  0  0
M  CHG  4   5  -1   7  -1  11   1  12   1
M  END
> <PUBCHEM_COMPOUND_CID>
511528
> <PUBCHEM_COMPOUND_CANONICALIZED>
1
> <PUBCHEM_CACTVS_COMPLEXITY>
547
> <PUBCHEM_CACTVS_HBOND_ACCEPTOR>
6
> <PUBCHEM_CACTVS_HBOND_DONOR>
2
> <PUBCHEM_CACTVS_ROTATABLE_BOND>
4
> <PUBCHEM_CACTVS_SUBSKEYS>
AAADccBzuAAGAAAAAAAAAAAAAAAAAAAAAAAwYAAAAAAAAAABQAAAHgIUAAAADArBmIQxwILQQACJAiVSUwCCAAAlAgAoiIEIZMqIIDLAlZHEIQholwLIyacYiQCeCACAAAAAAAAQAQAAAAAAAAAAAAAAAA==
> <PUBCHEM_IUPAC_OPENEYE_NAME>
4-nitro-N-[2,2,2-trichloro-1-(4-nitroanilino)ethyl]benzamide
> <PUBCHEM_IUPAC_CAS_NAME>
4-nitro-N-[2,2,2-trichloro-1-(4-nitroanilino)ethyl]benzamide
> <PUBCHEM_IUPAC_NAME_MARKUP>
4-nitro-<I>N</I>-[2,2,2-trichloro-1-(4-nitroanilino)ethyl]benzamide
> <PUBCHEM_IUPAC_NAME>
4-nitro-N-[2,2,2-trichloro-1-(4-nitroanilino)ethyl]benzamide
> <PUBCHEM_IUPAC_SYSTEMATIC_NAME>
4-nitro-N-[2,2,2-tris(chloranyl)-1-[(4-nitrophenyl)amino]ethyl]benzamide
> <PUBCHEM_IUPAC_TRADITIONAL_NAME>
4-nitro-N-[2,2,2-trichloro-1-(4-nitroanilino)ethyl]benzamide
> <PUBCHEM_IUPAC_INCHI>
InChI=1S/C15H11Cl3N4O5/c16-15(17,18)14(19-10-3-7-12(8-4-10)22(26)27)20-13(23)9-1-5-11(6-2-9)21(24)25/h1-8,14,19H,(H,20,23)
> <PUBCHEM_IUPAC_INCHIKEY>
SHVZXTNBDHDEIT-UHFFFAOYSA-N
> <PUBCHEM_XLOGP3_AA>
5.1
> <PUBCHEM_EXACT_MASS>
431.979503
> <PUBCHEM_MOLECULAR_FORMULA>
C15H11Cl3N4O5
> <PUBCHEM_MOLECULAR_WEIGHT>
433.6
> <PUBCHEM_OPENEYE_CAN_SMILES>
C1=CC(=CC=C1C(=O)NC(C(Cl)(Cl)Cl)NC2=CC=C(C=C2)[N+](=O)[O-])[N+](=O)[O-]
> <PUBCHEM_OPENEYE_ISO_SMILES>
C1=CC(=CC=C1C(=O)NC(C(Cl)(Cl)Cl)NC2=CC=C(C=C2)[N+](=O)[O-])[N+](=O)[O-]
> <PUBCHEM_CACTVS_TPSA>
133
> <PUBCHEM_MONOISOTOPIC_WEIGHT>
431.979503
> <PUBCHEM_TOTAL_CHARGE>
0
> <PUBCHEM_HEAVY_ATOM_COUNT>
27
> <PUBCHEM_ATOM_DEF_STEREO_COUNT>
0
> <PUBCHEM_ATOM_UDEF_STEREO_COUNT>
1
> <PUBCHEM_BOND_DEF_STEREO_COUNT>
0
> <PUBCHEM_BOND_UDEF_STEREO_COUNT>
0
> <PUBCHEM_ISOTOPIC_ATOM_COUNT>
0
> <PUBCHEM_COMPONENT_COUNT>
1
> <PUBCHEM_CACTVS_TAUTO_COUNT>
-1
> <PUBCHEM_COORDINATE_TYPE>
1
5
255
> <PUBCHEM_BONDANNOTATIONS>
13  14  3
15  18  8
15  19  8
17  23  8
17  24  8
18  20  8
19  21  8
20  22  8
21  22  8
23  26  8
24  27  8
25  26  8
25  27  8
$$$$
