511531
  -OEChem-10302200282D
 80 85  0     1  0  0  0  0  0999 V2000
    4.5981    1.8152    0.0000 Br  0  0  0  0  0  0  0  0  0  0  0  0
    9.8674    1.5560    0.0000 S   0  0  0  0  0  0  0  0  0  0  0  0
    9.5609   -2.6954    0.0000 S   0  0  0  0  0  0  0  0  0  0  0  0
    6.6206    2.8172    0.0000 O   0  0  0  0  0  0  0  0  0  0  0  0
    9.3855    4.6861    0.0000 O   0  0  0  0  0  0  0  0  0  0  0  0
   10.9526    0.0631    0.0000 O   0  0  0  0  0  0  0  0  0  0  0  0
    4.5981   -0.1861    0.0000 O   0  0  0  0  0  0  0  0  0  0  0  0
   10.5181   -0.8391    0.0000 O   0  0  0  0  0  0  0  0  0  0  0  0
    2.0000   -4.6861    0.0000 O   0  5  0  0  0  0  0  0  0  0  0  0
    3.7320   -4.6861    0.0000 O   0  0  0  0  0  0  0  0  0  0  0  0
    8.9576   -0.0876    0.0000 N   0  0  0  0  0  0  0  0  0  0  0  0
    2.8660   -4.1861    0.0000 N   0  3  0  0  0  0  0  0  0  0  0  0
    7.9814    1.9396    0.0000 C   0  0  3  0  0  0  0  0  0  0  0  0
    7.4662    2.8617    0.0000 C   0  0  1  0  0  0  0  0  0  0  0  0
    9.0068    2.0653    0.0000 C   0  0  1  0  0  0  0  0  0  0  0  0
    8.9576    1.7167    0.0000 C   0  0  0  0  0  0  0  0  0  0  0  0
    7.1985    1.3152    0.0000 C   0  0  0  0  0  0  0  0  0  0  0  0
    9.3921    0.8146    0.0000 C   0  0  1  0  0  0  0  0  0  0  0  0
    7.9260    3.7513    0.0000 C   0  0  0  0  0  0  0  0  0  0  0  0
    9.4667    2.9548    0.0000 C   0  0  0  0  0  0  0  0  0  0  0  0
    6.3313    1.8159    0.0000 C   0  0  0  0  0  0  0  0  0  0  0  0
    7.1985    0.3139    0.0000 C   0  0  0  0  0  0  0  0  0  0  0  0
    8.9262    3.7978    0.0000 C   0  0  0  0  0  0  0  0  0  0  0  0
    7.9814   -0.3104    0.0000 C   0  0  0  0  0  0  0  0  0  0  0  0
   10.3893    0.8893    0.0000 C   0  0  0  0  0  0  0  0  0  0  0  0
    5.4641    1.3152    0.0000 C   0  0  0  0  0  0  0  0  0  0  0  0
    6.3313   -0.1868    0.0000 C   0  0  0  0  0  0  0  0  0  0  0  0
    5.4641    0.3139    0.0000 C   0  0  0  0  0  0  0  0  0  0  0  0
   10.7388    2.0466    0.0000 C   0  0  0  0  0  0  0  0  0  0  0  0
    9.5209   -0.9139    0.0000 C   0  0  0  0  0  0  0  0  0  0  0  0
   11.5993    1.5372    0.0000 C   0  0  0  0  0  0  0  0  0  0  0  0
    9.0870   -1.8148    0.0000 C   0  0  0  0  0  0  0  0  0  0  0  0
   12.4707    2.0278    0.0000 C   0  0  0  0  0  0  0  0  0  0  0  0
    4.5981   -1.1861    0.0000 C   0  0  0  0  0  0  0  0  0  0  0  0
    8.1031   -1.9934    0.0000 C   0  0  0  0  0  0  0  0  0  0  0  0
   13.3313    1.5185    0.0000 C   0  0  0  0  0  0  0  0  0  0  0  0
   12.4815    3.0278    0.0000 C   0  0  0  0  0  0  0  0  0  0  0  0
    7.9689   -2.9843    0.0000 C   0  0  0  0  0  0  0  0  0  0  0  0
    3.7321   -1.6861    0.0000 C   0  0  0  0  0  0  0  0  0  0  0  0
    8.8698   -3.4182    0.0000 C   0  0  0  0  0  0  0  0  0  0  0  0
    3.7320   -2.6861    0.0000 C   0  0  0  0  0  0  0  0  0  0  0  0
    2.8660   -1.1861    0.0000 C   0  0  0  0  0  0  0  0  0  0  0  0
    2.8660   -3.1861    0.0000 C   0  0  0  0  0  0  0  0  0  0  0  0
    2.0000   -1.6861    0.0000 C   0  0  0  0  0  0  0  0  0  0  0  0
    2.0000   -2.6861    0.0000 C   0  0  0  0  0  0  0  0  0  0  0  0
    7.0052    3.5759    0.0000 H   0  0  0  0  0  0  0  0  0  0  0  0
    8.8799    1.4584    0.0000 H   0  0  0  0  0  0  0  0  0  0  0  0
    9.5620    1.8547    0.0000 H   0  0  0  0  0  0  0  0  0  0  0  0
    8.9576    2.3367    0.0000 H   0  0  0  0  0  0  0  0  0  0  0  0
    9.7413    0.3023    0.0000 H   0  0  0  0  0  0  0  0  0  0  0  0
    8.0052    4.3662    0.0000 H   0  0  0  0  0  0  0  0  0  0  0  0
    7.3342    3.9360    0.0000 H   0  0  0  0  0  0  0  0  0  0  0  0
    9.9596    2.5788    0.0000 H   0  0  0  0  0  0  0  0  0  0  0  0
    9.9226    3.3750    0.0000 H   0  0  0  0  0  0  0  0  0  0  0  0
    7.4966   -0.6970    0.0000 H   0  0  0  0  0  0  0  0  0  0  0  0
    8.2504   -0.8690    0.0000 H   0  0  0  0  0  0  0  0  0  0  0  0
   10.9544    1.1443    0.0000 H   0  0  0  0  0  0  0  0  0  0  0  0
   10.2363    1.4901    0.0000 H   0  0  0  0  0  0  0  0  0  0  0  0
    6.3313   -0.8068    0.0000 H   0  0  0  0  0  0  0  0  0  0  0  0
   11.1424    2.5172    0.0000 H   0  0  0  0  0  0  0  0  0  0  0  0
   10.3454    2.5258    0.0000 H   0  0  0  0  0  0  0  0  0  0  0  0
   11.1957    1.0666    0.0000 H   0  0  0  0  0  0  0  0  0  0  0  0
   11.9927    1.0580    0.0000 H   0  0  0  0  0  0  0  0  0  0  0  0
   11.5708    0.1094    0.0000 H   0  0  0  0  0  0  0  0  0  0  0  0
   11.9372    2.3436    0.0000 H   0  0  0  0  0  0  0  0  0  0  0  0
    4.8101   -1.7687    0.0000 H   0  0  0  0  0  0  0  0  0  0  0  0
    5.2087   -1.0784    0.0000 H   0  0  0  0  0  0  0  0  0  0  0  0
    7.6550   -1.5649    0.0000 H   0  0  0  0  0  0  0  0  0  0  0  0
   13.0155    0.9849    0.0000 H   0  0  0  0  0  0  0  0  0  0  0  0
   13.8648    1.2027    0.0000 H   0  0  0  0  0  0  0  0  0  0  0  0
   13.6471    2.0520    0.0000 H   0  0  0  0  0  0  0  0  0  0  0  0
   13.1015    3.0210    0.0000 H   0  0  0  0  0  0  0  0  0  0  0  0
   12.4883    3.6477    0.0000 H   0  0  0  0  0  0  0  0  0  0  0  0
   11.8616    3.0345    0.0000 H   0  0  0  0  0  0  0  0  0  0  0  0
    7.4229   -3.2781    0.0000 H   0  0  0  0  0  0  0  0  0  0  0  0
    8.9806   -4.0282    0.0000 H   0  0  0  0  0  0  0  0  0  0  0  0
    4.2690   -2.9961    0.0000 H   0  0  0  0  0  0  0  0  0  0  0  0
    2.8660   -0.5661    0.0000 H   0  0  0  0  0  0  0  0  0  0  0  0
    1.4631   -1.3761    0.0000 H   0  0  0  0  0  0  0  0  0  0  0  0
    1.4631   -2.9961    0.0000 H   0  0  0  0  0  0  0  0  0  0  0  0
  1 26  1  0  0  0  0
 15  2  1  1  0  0  0
  2 29  1  0  0  0  0
  3 32  1  0  0  0  0
  3 40  1  0  0  0  0
  4 14  1  0  0  0  0
  4 21  1  0  0  0  0
  5 23  2  0  0  0  0
  6 25  1  0  0  0  0
  6 64  1  0  0  0  0
  7 28  1  0  0  0  0
  7 34  1  0  0  0  0
  8 30  2  0  0  0  0
  9 12  1  0  0  0  0
 10 12  2  0  0  0  0
 11 18  1  0  0  0  0
 11 24  1  0  0  0  0
 11 30  1  0  0  0  0
 12 43  1  0  0  0  0
 13 14  1  0  0  0  0
 13 15  1  0  0  0  0
 13 16  1  0  0  0  0
 13 17  1  0  0  0  0
 14 19  1  0  0  0  0
 14 46  1  1  0  0  0
 15 20  1  0  0  0  0
 15 47  1  0  0  0  0
 16 18  1  0  0  0  0
 16 48  1  0  0  0  0
 16 49  1  0  0  0  0
 17 21  2  0  0  0  0
 17 22  1  0  0  0  0
 18 25  1  1  0  0  0
 18 50  1  0  0  0  0
 19 23  1  0  0  0  0
 19 51  1  0  0  0  0
 19 52  1  0  0  0  0
 20 23  1  0  0  0  0
 20 53  1  0  0  0  0
 20 54  1  0  0  0  0
 21 26  1  0  0  0  0
 22 24  1  0  0  0  0
 22 27  2  0  0  0  0
 24 55  1  0  0  0  0
 24 56  1  0  0  0  0
 25 57  1  0  0  0  0
 25 58  1  0  0  0  0
 26 28  2  0  0  0  0
 27 28  1  0  0  0  0
 27 59  1  0  0  0  0
 29 31  1  0  0  0  0
 29 60  1  0  0  0  0
 29 61  1  0  0  0  0
 30 32  1  0  0  0  0
 31 33  1  0  0  0  0
 31 62  1  0  0  0  0
 31 63  1  0  0  0  0
 32 35  2  0  0  0  0
 33 36  1  0  0  0  0
 33 37  1  0  0  0  0
 33 65  1  0  0  0  0
 34 39  1  0  0  0  0
 34 66  1  0  0  0  0
 34 67  1  0  0  0  0
 35 38  1  0  0  0  0
 35 68  1  0  0  0  0
 36 69  1  0  0  0  0
 36 70  1  0  0  0  0
 36 71  1  0  0  0  0
 37 72  1  0  0  0  0
 37 73  1  0  0  0  0
 37 74  1  0  0  0  0
 38 40  2  0  0  0  0
 38 75  1  0  0  0  0
 39 41  2  0  0  0  0
 39 42  1  0  0  0  0
 40 76  1  0  0  0  0
 41 43  1  0  0  0  0
 41 77  1  0  0  0  0
 42 44  2  0  0  0  0
 42 78  1  0  0  0  0
 43 45  2  0  0  0  0
 44 45  1  0  0  0  0
 44 79  1  0  0  0  0
 45 80  1  0  0  0  0
M  CHG  2   9  -1  12   1
M  END
> <PUBCHEM_COMPOUND_CID>
511531
> <PUBCHEM_COMPOUND_CANONICALIZED>
1
> <PUBCHEM_CACTVS_COMPLEXITY>
1100
> <PUBCHEM_CACTVS_HBOND_ACCEPTOR>
9
> <PUBCHEM_CACTVS_HBOND_DONOR>
1
> <PUBCHEM_CACTVS_ROTATABLE_BOND>
9
> <PUBCHEM_CACTVS_SUBSKEYS>
AAADcfB/OABgEAAAAAAAAAAAAAAAASJAAAAwYMAABYAAAEix0AAAHgRECAABrzzl2Aayx4MQRgiNAqVSUwCDCIAkKhRoiBkObOoONzaktZuGeSjl5hW465e4/P/PogABWAAYBABEAAK4ADgIAAAAAAAAAA==
> <PUBCHEM_IUPAC_OPENEYE_NAME>
(3S,12R,16R)-9-bromo-3-(hydroxymethyl)-16-isopentylsulfanyl-8-[(3-nitrophenyl)methoxy]-4-(thiophene-2-carbonyl)-11-oxa-4-azatetracyclo[8.6.1.01,12.06,17]heptadeca-6,8,10(17)-trien-14-one
> <PUBCHEM_IUPAC_CAS_NAME>
(3S,12R,16R)-9-bromo-3-(hydroxymethyl)-16-(3-methylbutylthio)-8-[(3-nitrophenyl)methoxy]-4-[oxo(thiophen-2-yl)methyl]-11-oxa-4-azatetracyclo[8.6.1.01,12.06,17]heptadeca-6,8,10(17)-trien-14-one
> <PUBCHEM_IUPAC_NAME_MARKUP>
(3<I>S</I>,12<I>R</I>,16<I>R</I>)-9-bromo-3-(hydroxymethyl)-16-(3-methylbutylsulfanyl)-8-[(3-nitrophenyl)methoxy]-4-(thiophene-2-carbonyl)-11-oxa-4-azatetracyclo[8.6.1.0<SUP>1,12</SUP>.0<SUP>6,17</SUP>]heptadeca-6,8,10(17)-trien-14-one
> <PUBCHEM_IUPAC_NAME>
(3S,12R,16R)-9-bromo-3-(hydroxymethyl)-16-(3-methylbutylsulfanyl)-8-[(3-nitrophenyl)methoxy]-4-(thiophene-2-carbonyl)-11-oxa-4-azatetracyclo[8.6.1.01,12.06,17]heptadeca-6,8,10(17)-trien-14-one
> <PUBCHEM_IUPAC_SYSTEMATIC_NAME>
(3S,12R,16R)-9-bromanyl-3-(hydroxymethyl)-16-(3-methylbutylsulfanyl)-8-[(3-nitrophenyl)methoxy]-4-thiophen-2-ylcarbonyl-11-oxa-4-azatetracyclo[8.6.1.01,12.06,17]heptadeca-6,8,10(17)-trien-14-one
> <PUBCHEM_IUPAC_TRADITIONAL_NAME>
(3S,12R,16R)-9-bromo-16-(isoamylthio)-3-methylol-8-(3-nitrobenzyl)oxy-4-(2-thenoyl)-11-oxa-4-azatetracyclo[8.6.1.01,12.06,17]heptadeca-6,8,10(17)-trien-14-one
> <PUBCHEM_IUPAC_INCHI>
InChI=1S/C33H35BrN2O7S2/c1-19(2)8-10-45-28-14-24(38)13-27-33(28)15-23(17-37)35(32(39)26-7-4-9-44-26)16-21-12-25(30(34)31(43-27)29(21)33)42-18-20-5-3-6-22(11-20)36(40)41/h3-7,9,11-12,19,23,27-28,37H,8,10,13-18H2,1-2H3/t23-,27+,28+,33?/m0/s1
> <PUBCHEM_IUPAC_INCHIKEY>
YBSDISCVQRYUNW-QPAXAWQFSA-N
> <PUBCHEM_XLOGP3_AA>
6.1
> <PUBCHEM_EXACT_MASS>
714.10691
> <PUBCHEM_MOLECULAR_FORMULA>
C33H35BrN2O7S2
> <PUBCHEM_MOLECULAR_WEIGHT>
715.7
> <PUBCHEM_OPENEYE_CAN_SMILES>
CC(C)CCSC1CC(=O)CC2C13CC(N(CC4=CC(=C(C(=C34)O2)Br)OCC5=CC(=CC=C5)[N+](=O)[O-])C(=O)C6=CC=CS6)CO
> <PUBCHEM_OPENEYE_ISO_SMILES>
CC(C)CCS[C@@H]1CC(=O)C[C@@H]2C13C[C@H](N(CC4=CC(=C(C(=C34)O2)Br)OCC5=CC(=CC=C5)[N+](=O)[O-])C(=O)C6=CC=CS6)CO
> <PUBCHEM_CACTVS_TPSA>
175
> <PUBCHEM_MONOISOTOPIC_WEIGHT>
714.10691
> <PUBCHEM_TOTAL_CHARGE>
0
> <PUBCHEM_HEAVY_ATOM_COUNT>
45
> <PUBCHEM_ATOM_DEF_STEREO_COUNT>
3
> <PUBCHEM_ATOM_UDEF_STEREO_COUNT>
1
> <PUBCHEM_BOND_DEF_STEREO_COUNT>
0
> <PUBCHEM_BOND_UDEF_STEREO_COUNT>
0
> <PUBCHEM_ISOTOPIC_ATOM_COUNT>
0
> <PUBCHEM_COMPONENT_COUNT>
1
> <PUBCHEM_CACTVS_TAUTO_COUNT>
-1
> <PUBCHEM_COORDINATE_TYPE>
1
5
255
> <PUBCHEM_BONDANNOTATIONS>
13  16  3
14  46  5
17  21  8
17  22  8
18  25  5
15  2  5
21  26  8
22  27  8
26  28  8
27  28  8
3  32  8
3  40  8
32  35  8
35  38  8
38  40  8
39  41  8
39  42  8
41  43  8
42  44  8
43  45  8
44  45  8
$$$$
