511503
  -OEChem-10302200282D
 49 51  0     1  0  0  0  0  0999 V2000
    5.0000    0.6340    0.0000 O   0  0  0  0  0  0  0  0  0  0  0  0
    3.0603    0.2919    0.0000 O   0  0  0  0  0  0  0  0  0  0  0  0
    5.5000   -2.2320    0.0000 N   0  0  3  0  0  0  0  0  0  0  0  0
    5.5000   -0.2321    0.0000 C   0  0  3  0  0  0  0  0  0  0  0  0
    4.6340   -0.7321    0.0000 C   0  0  3  0  0  0  0  0  0  0  0  0
    6.3660   -0.7321    0.0000 C   0  0  0  0  0  0  0  0  0  0  0  0
    6.3660   -1.7320    0.0000 C   0  0  3  0  0  0  0  0  0  0  0  0
    4.6340   -1.7320    0.0000 C   0  0  0  0  0  0  0  0  0  0  0  0
    6.0000    0.6340    0.0000 C   0  0  0  0  0  0  0  0  0  0  0  0
    3.6492   -0.9057    0.0000 C   0  0  0  0  0  0  0  0  0  0  0  0
    7.2320   -2.2320    0.0000 C   0  0  0  0  0  0  0  0  0  0  0  0
    5.5000   -3.2320    0.0000 C   0  0  0  0  0  0  0  0  0  0  0  0
    7.0000    0.6340    0.0000 C   0  0  0  0  0  0  0  0  0  0  0  0
    5.5000    1.5000    0.0000 C   0  0  0  0  0  0  0  0  0  0  0  0
    4.0000    0.6340    0.0000 C   0  0  0  0  0  0  0  0  0  0  0  0
    7.5000    1.5000    0.0000 C   0  0  0  0  0  0  0  0  0  0  0  0
    6.0000    2.3660    0.0000 C   0  0  0  0  0  0  0  0  0  0  0  0
    7.0000    2.3660    0.0000 C   0  0  0  0  0  0  0  0  0  0  0  0
    3.5000    1.5000    0.0000 C   0  0  0  0  0  0  0  0  0  0  0  0
    4.0000    2.3660    0.0000 C   0  0  0  0  0  0  0  0  0  0  0  0
    2.5000    1.5000    0.0000 C   0  0  0  0  0  0  0  0  0  0  0  0
    3.5000    3.2320    0.0000 C   0  0  0  0  0  0  0  0  0  0  0  0
    2.0000    2.3660    0.0000 C   0  0  0  0  0  0  0  0  0  0  0  0
    2.5000    3.2320    0.0000 C   0  0  0  0  0  0  0  0  0  0  0  0
    4.4219   -0.1494    0.0000 H   0  0  0  0  0  0  0  0  0  0  0  0
    6.9766   -0.8397    0.0000 H   0  0  0  0  0  0  0  0  0  0  0  0
    6.5781   -0.1494    0.0000 H   0  0  0  0  0  0  0  0  0  0  0  0
    6.3660   -2.3521    0.0000 H   0  0  0  0  0  0  0  0  0  0  0  0
    4.0234   -1.6244    0.0000 H   0  0  0  0  0  0  0  0  0  0  0  0
    4.4219   -2.3147    0.0000 H   0  0  0  0  0  0  0  0  0  0  0  0
    3.5415   -0.2951    0.0000 H   0  0  0  0  0  0  0  0  0  0  0  0
    3.0386   -1.0134    0.0000 H   0  0  0  0  0  0  0  0  0  0  0  0
    3.7568   -1.5163    0.0000 H   0  0  0  0  0  0  0  0  0  0  0  0
    6.9220   -2.7690    0.0000 H   0  0  0  0  0  0  0  0  0  0  0  0
    7.7690   -2.5420    0.0000 H   0  0  0  0  0  0  0  0  0  0  0  0
    7.5420   -1.6951    0.0000 H   0  0  0  0  0  0  0  0  0  0  0  0
    4.8800   -3.2320    0.0000 H   0  0  0  0  0  0  0  0  0  0  0  0
    5.5000   -3.8520    0.0000 H   0  0  0  0  0  0  0  0  0  0  0  0
    6.1200   -3.2320    0.0000 H   0  0  0  0  0  0  0  0  0  0  0  0
    7.3100    0.0970    0.0000 H   0  0  0  0  0  0  0  0  0  0  0  0
    4.8800    1.5000    0.0000 H   0  0  0  0  0  0  0  0  0  0  0  0
    8.1200    1.5000    0.0000 H   0  0  0  0  0  0  0  0  0  0  0  0
    5.6900    2.9030    0.0000 H   0  0  0  0  0  0  0  0  0  0  0  0
    7.3100    2.9030    0.0000 H   0  0  0  0  0  0  0  0  0  0  0  0
    4.6200    2.3660    0.0000 H   0  0  0  0  0  0  0  0  0  0  0  0
    2.1900    0.9631    0.0000 H   0  0  0  0  0  0  0  0  0  0  0  0
    3.8100    3.7690    0.0000 H   0  0  0  0  0  0  0  0  0  0  0  0
    1.3800    2.3660    0.0000 H   0  0  0  0  0  0  0  0  0  0  0  0
    2.1900    3.7690    0.0000 H   0  0  0  0  0  0  0  0  0  0  0  0
  1  4  1  0  0  0  0
  1 15  1  0  0  0  0
  2 15  2  0  0  0  0
  3  7  1  0  0  0  0
  3  8  1  0  0  0  0
  3 12  1  0  0  0  0
  4  5  1  0  0  0  0
  4  6  1  0  0  0  0
  4  9  1  0  0  0  0
  5  8  1  0  0  0  0
  5 10  1  0  0  0  0
  5 25  1  0  0  0  0
  6  7  1  0  0  0  0
  6 26  1  0  0  0  0
  6 27  1  0  0  0  0
  7 11  1  0  0  0  0
  7 28  1  0  0  0  0
  8 29  1  0  0  0  0
  8 30  1  0  0  0  0
  9 13  2  0  0  0  0
  9 14  1  0  0  0  0
 10 31  1  0  0  0  0
 10 32  1  0  0  0  0
 10 33  1  0  0  0  0
 11 34  1  0  0  0  0
 11 35  1  0  0  0  0
 11 36  1  0  0  0  0
 12 37  1  0  0  0  0
 12 38  1  0  0  0  0
 12 39  1  0  0  0  0
 13 16  1  0  0  0  0
 13 40  1  0  0  0  0
 14 17  2  0  0  0  0
 14 41  1  0  0  0  0
 15 19  1  0  0  0  0
 16 18  2  0  0  0  0
 16 42  1  0  0  0  0
 17 18  1  0  0  0  0
 17 43  1  0  0  0  0
 18 44  1  0  0  0  0
 19 20  2  0  0  0  0
 19 21  1  0  0  0  0
 20 22  1  0  0  0  0
 20 45  1  0  0  0  0
 21 23  2  0  0  0  0
 21 46  1  0  0  0  0
 22 24  2  0  0  0  0
 22 47  1  0  0  0  0
 23 24  1  0  0  0  0
 23 48  1  0  0  0  0
 24 49  1  0  0  0  0
M  END
> <PUBCHEM_COMPOUND_CID>
511503
> <PUBCHEM_COMPOUND_CANONICALIZED>
1
> <PUBCHEM_CACTVS_COMPLEXITY>
426
> <PUBCHEM_CACTVS_HBOND_ACCEPTOR>
3
> <PUBCHEM_CACTVS_HBOND_DONOR>
0
> <PUBCHEM_CACTVS_ROTATABLE_BOND>
4
> <PUBCHEM_CACTVS_SUBSKEYS>
AAADceB6MAAAAAAAAAAAAAAAAAAAAAAAAAA8YIAAAAAAAAABQAAAHgAAAAAADWzBmAQyCIMABACIAiDSCAACAAAkAAAIiAEICMgIJjKAtRiGMQAmwAGIqYeYyOCOgAAAAAAAAAAAAAAAAAAAAAAAAAAAAA==
> <PUBCHEM_IUPAC_OPENEYE_NAME>
(1,2,5-trimethyl-4-phenyl-4-piperidyl) benzoate
> <PUBCHEM_IUPAC_CAS_NAME>
benzoic acid (1,2,5-trimethyl-4-phenyl-4-piperidinyl) ester
> <PUBCHEM_IUPAC_NAME_MARKUP>
(1,2,5-trimethyl-4-phenylpiperidin-4-yl) benzoate
> <PUBCHEM_IUPAC_NAME>
(1,2,5-trimethyl-4-phenylpiperidin-4-yl) benzoate
> <PUBCHEM_IUPAC_SYSTEMATIC_NAME>
(1,2,5-trimethyl-4-phenyl-piperidin-4-yl) benzoate
> <PUBCHEM_IUPAC_TRADITIONAL_NAME>
benzoic acid (1,2,5-trimethyl-4-phenyl-4-piperidyl) ester
> <PUBCHEM_IUPAC_INCHI>
InChI=1S/C21H25NO2/c1-16-15-22(3)17(2)14-21(16,19-12-8-5-9-13-19)24-20(23)18-10-6-4-7-11-18/h4-13,16-17H,14-15H2,1-3H3
> <PUBCHEM_IUPAC_INCHIKEY>
ADUJECNUNSENPU-UHFFFAOYSA-N
> <PUBCHEM_XLOGP3>
4.3
> <PUBCHEM_EXACT_MASS>
323.188529040
> <PUBCHEM_MOLECULAR_FORMULA>
C21H25NO2
> <PUBCHEM_MOLECULAR_WEIGHT>
323.4
> <PUBCHEM_OPENEYE_CAN_SMILES>
CC1CC(C(CN1C)C)(C2=CC=CC=C2)OC(=O)C3=CC=CC=C3
> <PUBCHEM_OPENEYE_ISO_SMILES>
CC1CC(C(CN1C)C)(C2=CC=CC=C2)OC(=O)C3=CC=CC=C3
> <PUBCHEM_CACTVS_TPSA>
29.5
> <PUBCHEM_MONOISOTOPIC_WEIGHT>
323.188529040
> <PUBCHEM_TOTAL_CHARGE>
0
> <PUBCHEM_HEAVY_ATOM_COUNT>
24
> <PUBCHEM_ATOM_DEF_STEREO_COUNT>
0
> <PUBCHEM_ATOM_UDEF_STEREO_COUNT>
3
> <PUBCHEM_BOND_DEF_STEREO_COUNT>
0
> <PUBCHEM_BOND_UDEF_STEREO_COUNT>
0
> <PUBCHEM_ISOTOPIC_ATOM_COUNT>
0
> <PUBCHEM_COMPONENT_COUNT>
1
> <PUBCHEM_CACTVS_TAUTO_COUNT>
-1
> <PUBCHEM_COORDINATE_TYPE>
1
5
255
> <PUBCHEM_BONDANNOTATIONS>
4  1  3
13  16  8
14  17  8
16  18  8
17  18  8
19  20  8
19  21  8
20  22  8
21  23  8
22  24  8
23  24  8
5  10  3
7  11  3
9  13  8
9  14  8
$$$$
