511574
  -OEChem-10302200282D
144144  0     1  0  0  0  0  0999 V2000
   11.7100    3.3366    0.0000 O   0  0  0  0  0  0  0  0  0  0  0  0
    9.7562   -0.5113    0.0000 O   0  0  0  0  0  0  0  0  0  0  0  0
    8.6542    0.2893    0.0000 O   0  0  0  0  0  0  0  0  0  0  0  0
    5.4737    1.9877    0.0000 O   0  0  0  0  0  0  0  0  0  0  0  0
   11.4882   -2.5113    0.0000 O   0  0  0  0  0  0  0  0  0  0  0  0
    7.0485    5.2312    0.0000 O   0  0  0  0  0  0  0  0  0  0  0  0
    3.8680    6.9296    0.0000 O   0  0  0  0  0  0  0  0  0  0  0  0
    2.5896    9.2460    0.0000 O   0  0  0  0  0  0  0  0  0  0  0  0
    8.4154    7.4965    0.0000 O   0  0  0  0  0  0  0  0  0  0  0  0
   10.6222    0.9887    0.0000 N   0  0  0  0  0  0  0  0  0  0  0  0
    8.1190    1.9366    0.0000 N   0  0  0  0  0  0  0  0  0  0  0  0
   12.3543   -1.0113    0.0000 N   0  0  0  0  0  0  0  0  0  0  0  0
    6.6327    3.2749    0.0000 N   0  0  0  0  0  0  0  0  0  0  0  0
    5.3543    5.5913    0.0000 N   0  0  0  0  0  0  0  0  0  0  0  0
    5.0270    8.2167    0.0000 N   0  0  0  0  0  0  0  0  0  0  0  0
    7.8802    9.1438    0.0000 N   0  0  0  0  0  0  0  0  0  0  0  0
    9.8132    1.5765    0.0000 C   0  0  3  0  0  0  0  0  0  0  0  0
   10.1222    2.5276    0.0000 C   0  0  0  0  0  0  0  0  0  0  0  0
   11.1222    2.5276    0.0000 C   0  0  1  0  0  0  0  0  0  0  0  0
   11.4312    1.5765    0.0000 C   0  0  0  0  0  0  0  0  0  0  0  0
   10.6222   -0.0113    0.0000 C   0  0  0  0  0  0  0  0  0  0  0  0
   11.4882   -0.5113    0.0000 C   0  0  0  0  0  0  0  0  0  0  0  0
    8.8621    1.2675    0.0000 C   0  0  0  0  0  0  0  0  0  0  0  0
    7.1679    1.6276    0.0000 C   0  0  1  0  0  0  0  0  0  0  0  0
   10.9882   -1.3773    0.0000 C   0  0  0  0  0  0  0  0  0  0  0  0
   11.9882    0.3548    0.0000 C   0  0  0  0  0  0  0  0  0  0  0  0
    6.9600    0.6495    0.0000 C   0  0  0  0  0  0  0  0  0  0  0  0
    6.0090    0.3404    0.0000 C   0  0  0  0  0  0  0  0  0  0  0  0
    6.4248    2.2967    0.0000 C   0  0  0  0  0  0  0  0  0  0  0  0
   12.3543   -2.0113    0.0000 C   0  0  0  0  0  0  0  0  0  0  0  0
    5.8896    3.9440    0.0000 C   0  0  1  0  0  0  0  0  0  0  0  0
   13.2203   -2.5113    0.0000 C   0  0  0  0  0  0  0  0  0  0  0  0
    5.8010   -0.6377    0.0000 C   0  0  0  0  0  0  0  0  0  0  0  0
    5.2658    1.0096    0.0000 C   0  0  0  0  0  0  0  0  0  0  0  0
    4.9385    3.6350    0.0000 C   0  0  0  0  0  0  0  0  0  0  0  0
   13.2203   -3.5113    0.0000 C   0  0  0  0  0  0  0  0  0  0  0  0
   14.0863   -4.0113    0.0000 C   0  0  0  0  0  0  0  0  0  0  0  0
    6.0975    4.9222    0.0000 C   0  0  0  0  0  0  0  0  0  0  0  0
   14.0863   -5.0113    0.0000 C   0  0  0  0  0  0  0  0  0  0  0  0
   14.9523   -5.5113    0.0000 C   0  0  0  0  0  0  0  0  0  0  0  0
    4.1954    4.3041    0.0000 C   0  0  0  0  0  0  0  0  0  0  0  0
    4.7306    2.6568    0.0000 C   0  0  0  0  0  0  0  0  0  0  0  0
    5.5622    6.5694    0.0000 C   0  0  1  0  0  0  0  0  0  0  0  0
   14.9523   -6.5113    0.0000 C   0  0  0  0  0  0  0  0  0  0  0  0
   15.8184   -7.0113    0.0000 C   0  0  0  0  0  0  0  0  0  0  0  0
    4.2839    8.8858    0.0000 C   0  0  1  0  0  0  0  0  0  0  0  0
    6.5133    6.8785    0.0000 C   0  0  0  0  0  0  0  0  0  0  0  0
   15.8184   -8.0113    0.0000 C   0  0  0  0  0  0  0  0  0  0  0  0
    4.4918    9.8640    0.0000 C   0  0  0  0  0  0  0  0  0  0  0  0
    4.8191    7.2386    0.0000 C   0  0  0  0  0  0  0  0  0  0  0  0
    3.7486   10.5331    0.0000 C   0  0  0  0  0  0  0  0  0  0  0  0
   16.6844   -8.5113    0.0000 C   0  0  0  0  0  0  0  0  0  0  0  0
   16.6844   -9.5113    0.0000 C   0  0  0  0  0  0  0  0  0  0  0  0
    6.7212    7.8566    0.0000 C   0  0  0  0  0  0  0  0  0  0  0  0
    3.3328    8.5768    0.0000 C   0  0  0  0  0  0  0  0  0  0  0  0
   17.5504  -10.0113    0.0000 C   0  0  0  0  0  0  0  0  0  0  0  0
    3.9565   11.5113    0.0000 C   0  0  0  0  0  0  0  0  0  0  0  0
    2.7976   10.2241    0.0000 C   0  0  0  0  0  0  0  0  0  0  0  0
   17.5504  -11.0113    0.0000 C   0  0  0  0  0  0  0  0  0  0  0  0
    7.6723    8.1656    0.0000 C   0  0  0  0  0  0  0  0  0  0  0  0
   18.4164  -11.5113    0.0000 C   0  0  0  0  0  0  0  0  0  0  0  0
    9.7162    0.9641    0.0000 H   0  0  0  0  0  0  0  0  0  0  0  0
   10.1870    3.1442    0.0000 H   0  0  0  0  0  0  0  0  0  0  0  0
    9.5158    2.6565    0.0000 H   0  0  0  0  0  0  0  0  0  0  0  0
   10.8407    3.0800    0.0000 H   0  0  0  0  0  0  0  0  0  0  0  0
   11.7412    1.0396    0.0000 H   0  0  0  0  0  0  0  0  0  0  0  0
   11.9976    1.8287    0.0000 H   0  0  0  0  0  0  0  0  0  0  0  0
    7.6287    1.2128    0.0000 H   0  0  0  0  0  0  0  0  0  0  0  0
    8.2479    2.5431    0.0000 H   0  0  0  0  0  0  0  0  0  0  0  0
   11.4578    3.9030    0.0000 H   0  0  0  0  0  0  0  0  0  0  0  0
   10.4513   -1.0673    0.0000 H   0  0  0  0  0  0  0  0  0  0  0  0
   10.6782   -1.9142    0.0000 H   0  0  0  0  0  0  0  0  0  0  0  0
   11.5252   -1.6873    0.0000 H   0  0  0  0  0  0  0  0  0  0  0  0
   12.5252    0.0447    0.0000 H   0  0  0  0  0  0  0  0  0  0  0  0
   12.2982    0.8917    0.0000 H   0  0  0  0  0  0  0  0  0  0  0  0
   11.4513    0.6647    0.0000 H   0  0  0  0  0  0  0  0  0  0  0  0
    7.0463    0.0355    0.0000 H   0  0  0  0  0  0  0  0  0  0  0  0
    7.5796    0.6278    0.0000 H   0  0  0  0  0  0  0  0  0  0  0  0
   12.8912   -0.7013    0.0000 H   0  0  0  0  0  0  0  0  0  0  0  0
    6.1379    0.9469    0.0000 H   0  0  0  0  0  0  0  0  0  0  0  0
    6.4792    4.1356    0.0000 H   0  0  0  0  0  0  0  0  0  0  0  0
    7.2224    3.4665    0.0000 H   0  0  0  0  0  0  0  0  0  0  0  0
   13.8309   -2.6189    0.0000 H   0  0  0  0  0  0  0  0  0  0  0  0
   13.4323   -1.9287    0.0000 H   0  0  0  0  0  0  0  0  0  0  0  0
    5.1946   -0.5088    0.0000 H   0  0  0  0  0  0  0  0  0  0  0  0
    5.6722   -1.2442    0.0000 H   0  0  0  0  0  0  0  0  0  0  0  0
    6.4075   -0.7666    0.0000 H   0  0  0  0  0  0  0  0  0  0  0  0
    5.6807    1.4703    0.0000 H   0  0  0  0  0  0  0  0  0  0  0  0
    4.8051    1.4244    0.0000 H   0  0  0  0  0  0  0  0  0  0  0  0
    4.8510    0.5488    0.0000 H   0  0  0  0  0  0  0  0  0  0  0  0
    5.3992    3.2201    0.0000 H   0  0  0  0  0  0  0  0  0  0  0  0
   12.6097   -3.4036    0.0000 H   0  0  0  0  0  0  0  0  0  0  0  0
   13.0082   -4.0939    0.0000 H   0  0  0  0  0  0  0  0  0  0  0  0
   14.6969   -4.1189    0.0000 H   0  0  0  0  0  0  0  0  0  0  0  0
   14.2984   -3.4287    0.0000 H   0  0  0  0  0  0  0  0  0  0  0  0
   13.4757   -4.9036    0.0000 H   0  0  0  0  0  0  0  0  0  0  0  0
   13.8743   -5.5939    0.0000 H   0  0  0  0  0  0  0  0  0  0  0  0
   15.5629   -5.6189    0.0000 H   0  0  0  0  0  0  0  0  0  0  0  0
   15.1644   -4.9287    0.0000 H   0  0  0  0  0  0  0  0  0  0  0  0
    4.6102    4.7649    0.0000 H   0  0  0  0  0  0  0  0  0  0  0  0
    3.7346    4.7190    0.0000 H   0  0  0  0  0  0  0  0  0  0  0  0
    3.7805    3.8434    0.0000 H   0  0  0  0  0  0  0  0  0  0  0  0
    4.1241    2.7858    0.0000 H   0  0  0  0  0  0  0  0  0  0  0  0
    4.6017    2.0504    0.0000 H   0  0  0  0  0  0  0  0  0  0  0  0
    5.3370    2.5280    0.0000 H   0  0  0  0  0  0  0  0  0  0  0  0
    6.0230    6.1546    0.0000 H   0  0  0  0  0  0  0  0  0  0  0  0
    4.7647    5.3997    0.0000 H   0  0  0  0  0  0  0  0  0  0  0  0
   14.3418   -6.4036    0.0000 H   0  0  0  0  0  0  0  0  0  0  0  0
   14.7403   -7.0939    0.0000 H   0  0  0  0  0  0  0  0  0  0  0  0
   16.4289   -7.1189    0.0000 H   0  0  0  0  0  0  0  0  0  0  0  0
   16.0304   -6.4287    0.0000 H   0  0  0  0  0  0  0  0  0  0  0  0
    4.8735    9.0774    0.0000 H   0  0  0  0  0  0  0  0  0  0  0  0
    6.5996    6.2645    0.0000 H   0  0  0  0  0  0  0  0  0  0  0  0
    7.1329    6.8568    0.0000 H   0  0  0  0  0  0  0  0  0  0  0  0
   15.2078   -7.9036    0.0000 H   0  0  0  0  0  0  0  0  0  0  0  0
   15.6063   -8.5939    0.0000 H   0  0  0  0  0  0  0  0  0  0  0  0
    5.0666    9.6317    0.0000 H   0  0  0  0  0  0  0  0  0  0  0  0
    4.8203   10.3898    0.0000 H   0  0  0  0  0  0  0  0  0  0  0  0
    3.2879   10.9480    0.0000 H   0  0  0  0  0  0  0  0  0  0  0  0
   17.2950   -8.6189    0.0000 H   0  0  0  0  0  0  0  0  0  0  0  0
   16.8964   -7.9287    0.0000 H   0  0  0  0  0  0  0  0  0  0  0  0
    5.6167    8.4083    0.0000 H   0  0  0  0  0  0  0  0  0  0  0  0
   16.0738   -9.4036    0.0000 H   0  0  0  0  0  0  0  0  0  0  0  0
   16.4723  -10.0939    0.0000 H   0  0  0  0  0  0  0  0  0  0  0  0
    6.6349    8.4706    0.0000 H   0  0  0  0  0  0  0  0  0  0  0  0
    6.1016    7.8782    0.0000 H   0  0  0  0  0  0  0  0  0  0  0  0
    2.8442    8.1951    0.0000 H   0  0  0  0  0  0  0  0  0  0  0  0
    3.6239    8.0294    0.0000 H   0  0  0  0  0  0  0  0  0  0  0  0
   18.1610  -10.1189    0.0000 H   0  0  0  0  0  0  0  0  0  0  0  0
   17.7625   -9.4287    0.0000 H   0  0  0  0  0  0  0  0  0  0  0  0
    4.5630   11.3824    0.0000 H   0  0  0  0  0  0  0  0  0  0  0  0
    4.0854   12.1177    0.0000 H   0  0  0  0  0  0  0  0  0  0  0  0
    3.3501   11.6402    0.0000 H   0  0  0  0  0  0  0  0  0  0  0  0
    2.6060   10.8138    0.0000 H   0  0  0  0  0  0  0  0  0  0  0  0
    2.2079   10.0325    0.0000 H   0  0  0  0  0  0  0  0  0  0  0  0
    2.9892    9.6345    0.0000 H   0  0  0  0  0  0  0  0  0  0  0  0
   16.9398  -10.9036    0.0000 H   0  0  0  0  0  0  0  0  0  0  0  0
   17.3384  -11.5939    0.0000 H   0  0  0  0  0  0  0  0  0  0  0  0
    2.0000    9.0544    0.0000 H   0  0  0  0  0  0  0  0  0  0  0  0
   18.1064  -12.0482    0.0000 H   0  0  0  0  0  0  0  0  0  0  0  0
   18.9534  -11.8213    0.0000 H   0  0  0  0  0  0  0  0  0  0  0  0
   18.7264  -10.9743    0.0000 H   0  0  0  0  0  0  0  0  0  0  0  0
    8.4698    9.3354    0.0000 H   0  0  0  0  0  0  0  0  0  0  0  0
    7.4194    9.5586    0.0000 H   0  0  0  0  0  0  0  0  0  0  0  0
 19  1  1  6  0  0  0
  1 70  1  0  0  0  0
  2 21  2  0  0  0  0
  3 23  2  0  0  0  0
  4 29  2  0  0  0  0
  5 30  2  0  0  0  0
  6 38  2  0  0  0  0
  7 50  2  0  0  0  0
  8 55  1  0  0  0  0
  8139  1  0  0  0  0
  9 60  2  0  0  0  0
 10 17  1  0  0  0  0
 10 20  1  0  0  0  0
 10 21  1  0  0  0  0
 11 23  1  0  0  0  0
 24 11  1  1  0  0  0
 11 69  1  0  0  0  0
 12 22  1  0  0  0  0
 12 30  1  0  0  0  0
 12 79  1  0  0  0  0
 13 29  1  0  0  0  0
 31 13  1  1  0  0  0
 13 82  1  0  0  0  0
 14 38  1  0  0  0  0
 43 14  1  6  0  0  0
 14107  1  0  0  0  0
 46 15  1  6  0  0  0
 15 50  1  0  0  0  0
 15122  1  0  0  0  0
 16 60  1  0  0  0  0
 16143  1  0  0  0  0
 16144  1  0  0  0  0
 17 18  1  0  0  0  0
 17 23  1  0  0  0  0
 17 62  1  0  0  0  0
 18 19  1  0  0  0  0
 18 63  1  0  0  0  0
 18 64  1  0  0  0  0
 19 20  1  0  0  0  0
 19 65  1  0  0  0  0
 20 66  1  0  0  0  0
 20 67  1  0  0  0  0
 21 22  1  0  0  0  0
 22 25  1  0  0  0  0
 22 26  1  0  0  0  0
 24 27  1  0  0  0  0
 24 29  1  0  0  0  0
 24 68  1  0  0  0  0
 25 71  1  0  0  0  0
 25 72  1  0  0  0  0
 25 73  1  0  0  0  0
 26 74  1  0  0  0  0
 26 75  1  0  0  0  0
 26 76  1  0  0  0  0
 27 28  1  0  0  0  0
 27 77  1  0  0  0  0
 27 78  1  0  0  0  0
 28 33  1  0  0  0  0
 28 34  1  0  0  0  0
 28 80  1  0  0  0  0
 30 32  1  0  0  0  0
 31 35  1  0  0  0  0
 31 38  1  0  0  0  0
 31 81  1  0  0  0  0
 32 36  1  0  0  0  0
 32 83  1  0  0  0  0
 32 84  1  0  0  0  0
 33 85  1  0  0  0  0
 33 86  1  0  0  0  0
 33 87  1  0  0  0  0
 34 88  1  0  0  0  0
 34 89  1  0  0  0  0
 34 90  1  0  0  0  0
 35 41  1  0  0  0  0
 35 42  1  0  0  0  0
 35 91  1  0  0  0  0
 36 37  1  0  0  0  0
 36 92  1  0  0  0  0
 36 93  1  0  0  0  0
 37 39  1  0  0  0  0
 37 94  1  0  0  0  0
 37 95  1  0  0  0  0
 39 40  1  0  0  0  0
 39 96  1  0  0  0  0
 39 97  1  0  0  0  0
 40 44  1  0  0  0  0
 40 98  1  0  0  0  0
 40 99  1  0  0  0  0
 41100  1  0  0  0  0
 41101  1  0  0  0  0
 41102  1  0  0  0  0
 42103  1  0  0  0  0
 42104  1  0  0  0  0
 42105  1  0  0  0  0
 43 47  1  0  0  0  0
 43 50  1  0  0  0  0
 43106  1  0  0  0  0
 44 45  1  0  0  0  0
 44108  1  0  0  0  0
 44109  1  0  0  0  0
 45 48  1  0  0  0  0
 45110  1  0  0  0  0
 45111  1  0  0  0  0
 46 49  1  0  0  0  0
 46 55  1  0  0  0  0
 46112  1  0  0  0  0
 47 54  1  0  0  0  0
 47113  1  0  0  0  0
 47114  1  0  0  0  0
 48 52  1  0  0  0  0
 48115  1  0  0  0  0
 48116  1  0  0  0  0
 49 51  1  0  0  0  0
 49117  1  0  0  0  0
 49118  1  0  0  0  0
 51 57  1  0  0  0  0
 51 58  1  0  0  0  0
 51119  1  0  0  0  0
 52 53  1  0  0  0  0
 52120  1  0  0  0  0
 52121  1  0  0  0  0
 53 56  1  0  0  0  0
 53123  1  0  0  0  0
 53124  1  0  0  0  0
 54 60  1  0  0  0  0
 54125  1  0  0  0  0
 54126  1  0  0  0  0
 55127  1  0  0  0  0
 55128  1  0  0  0  0
 56 59  1  0  0  0  0
 56129  1  0  0  0  0
 56130  1  0  0  0  0
 57131  1  0  0  0  0
 57132  1  0  0  0  0
 57133  1  0  0  0  0
 58134  1  0  0  0  0
 58135  1  0  0  0  0
 58136  1  0  0  0  0
 59 61  1  0  0  0  0
 59137  1  0  0  0  0
 59138  1  0  0  0  0
 61140  1  0  0  0  0
 61141  1  0  0  0  0
 61142  1  0  0  0  0
M  END
> <PUBCHEM_COMPOUND_CID>
511574
> <PUBCHEM_COMPOUND_CANONICALIZED>
1
> <PUBCHEM_CACTVS_COMPLEXITY>
1390
> <PUBCHEM_CACTVS_HBOND_ACCEPTOR>
9
> <PUBCHEM_CACTVS_HBOND_DONOR>
8
> <PUBCHEM_CACTVS_ROTATABLE_BOND>
31
> <PUBCHEM_CACTVS_SUBSKEYS>
AAADcfB/vAAAAAAAAAAAAAAAAAAAAWAAAAAAAAAAAAAAAAAAAAAAHgAQCAAADbzhgAYCAAPAAgAIAAEQEAAAAAAAAAAAAIGIAAACUBIAgCAUQAAGFgCQAAG+i4CMAAAAAAAAAAAAAAAAAAAAAAAAAAAAAA==
> <PUBCHEM_IUPAC_OPENEYE_NAME>
(2S)-N-[(1S)-1-(hydroxymethyl)-3-methyl-butyl]-2-[[(2S)-2-[[(2S)-2-[[(4S)-4-hydroxy-1-[2-methyl-2-(tetradecanoylamino)propanoyl]pyrrolidine-2-carbonyl]amino]-4-methyl-pentanoyl]amino]-3-methyl-butanoyl]amino]pentanediamide
> <PUBCHEM_IUPAC_CAS_NAME>
(2S)-2-[[(2S)-2-[[(2S)-2-[[[(4S)-4-hydroxy-1-[2-methyl-1-oxo-2-(1-oxotetradecylamino)propyl]-2-pyrrolidinyl]-oxomethyl]amino]-4-methyl-1-oxopentyl]amino]-3-methyl-1-oxobutyl]amino]-N-[(2S)-1-hydroxy-4-methylpentan-2-yl]pentanediamide
> <PUBCHEM_IUPAC_NAME_MARKUP>
(2<I>S</I>)-<I>N</I>-[(2<I>S</I>)-1-hydroxy-4-methylpentan-2-yl]-2-[[(2<I>S</I>)-2-[[(2<I>S</I>)-2-[[(4<I>S</I>)-4-hydroxy-1-[2-methyl-2-(tetradecanoylamino)propanoyl]pyrrolidine-2-carbonyl]amino]-4-methylpentanoyl]amino]-3-methylbutanoyl]amino]pentanediamide
> <PUBCHEM_IUPAC_NAME>
(2S)-N-[(2S)-1-hydroxy-4-methylpentan-2-yl]-2-[[(2S)-2-[[(2S)-2-[[(4S)-4-hydroxy-1-[2-methyl-2-(tetradecanoylamino)propanoyl]pyrrolidine-2-carbonyl]amino]-4-methylpentanoyl]amino]-3-methylbutanoyl]amino]pentanediamide
> <PUBCHEM_IUPAC_SYSTEMATIC_NAME>
(2S)-2-[[(2S)-3-methyl-2-[[(2S)-4-methyl-2-[[(4S)-1-[2-methyl-2-(tetradecanoylamino)propanoyl]-4-oxidanyl-pyrrolidin-2-yl]carbonylamino]pentanoyl]amino]butanoyl]amino]-N-[(2S)-4-methyl-1-oxidanyl-pentan-2-yl]pentanediamide
> <PUBCHEM_IUPAC_TRADITIONAL_NAME>
(2S)-2-[[(2S)-2-[[(2S)-2-[[(4S)-4-hydroxy-1-[2-methyl-2-(tetradecanoylamino)propanoyl]prolyl]amino]-4-methyl-pentanoyl]amino]-3-methyl-butanoyl]amino]-N-[(1S)-3-methyl-1-methylol-butyl]glutaramide
> <PUBCHEM_IUPAC_INCHI>
InChI=1S/C45H83N7O9/c1-10-11-12-13-14-15-16-17-18-19-20-21-38(56)51-45(8,9)44(61)52-27-33(54)26-36(52)42(59)49-35(25-30(4)5)41(58)50-39(31(6)7)43(60)48-34(22-23-37(46)55)40(57)47-32(28-53)24-29(2)3/h29-36,39,53-54H,10-28H2,1-9H3,(H2,46,55)(H,47,57)(H,48,60)(H,49,59)(H,50,58)(H,51,56)/t32-,33-,34-,35-,36?,39-/m0/s1
> <PUBCHEM_IUPAC_INCHIKEY>
GRJSOZDXIUZXEW-DKTSUBOASA-N
> <PUBCHEM_XLOGP3_AA>
6.2
> <PUBCHEM_EXACT_MASS>
865.62522725
> <PUBCHEM_MOLECULAR_FORMULA>
C45H83N7O9
> <PUBCHEM_MOLECULAR_WEIGHT>
866.2
> <PUBCHEM_OPENEYE_CAN_SMILES>
CCCCCCCCCCCCCC(=O)NC(C)(C)C(=O)N1CC(CC1C(=O)NC(CC(C)C)C(=O)NC(C(C)C)C(=O)NC(CCC(=O)N)C(=O)NC(CC(C)C)CO)O
> <PUBCHEM_OPENEYE_ISO_SMILES>
CCCCCCCCCCCCCC(=O)NC(C)(C)C(=O)N1C[C@H](CC1C(=O)N[C@@H](CC(C)C)C(=O)N[C@@H](C(C)C)C(=O)N[C@@H](CCC(=O)N)C(=O)N[C@@H](CC(C)C)CO)O
> <PUBCHEM_CACTVS_TPSA>
249
> <PUBCHEM_MONOISOTOPIC_WEIGHT>
865.62522725
> <PUBCHEM_TOTAL_CHARGE>
0
> <PUBCHEM_HEAVY_ATOM_COUNT>
61
> <PUBCHEM_ATOM_DEF_STEREO_COUNT>
5
> <PUBCHEM_ATOM_UDEF_STEREO_COUNT>
1
> <PUBCHEM_BOND_DEF_STEREO_COUNT>
0
> <PUBCHEM_BOND_UDEF_STEREO_COUNT>
0
> <PUBCHEM_ISOTOPIC_ATOM_COUNT>
0
> <PUBCHEM_COMPONENT_COUNT>
1
> <PUBCHEM_CACTVS_TAUTO_COUNT>
-1
> <PUBCHEM_COORDINATE_TYPE>
1
5
255
> <PUBCHEM_BONDANNOTATIONS>
19  1  6
24  11  5
31  13  5
43  14  6
46  15  6
17  23  3
$$$$
