511584
  -OEChem-10302200282D
 32 34  0     1  0  0  0  0  0999 V2000
    2.6443    3.9239    0.0000 Cl  0  0  0  0  0  0  0  0  0  0  0  0
    2.8660   -3.9239    0.0000 Cl  0  0  0  0  0  0  0  0  0  0  0  0
    2.9230    2.1639    0.0000 S   0  0  0  0  0  0  0  0  0  0  0  0
    4.5981    0.0761    0.0000 N   0  0  0  0  0  0  0  0  0  0  0  0
    5.6808   -1.1264    0.0000 N   0  0  0  0  0  0  0  0  0  0  0  0
    3.7320    0.5761    0.0000 C   0  0  3  0  0  0  0  0  0  0  0  0
    2.8660    0.0761    0.0000 C   0  0  0  0  0  0  0  0  0  0  0  0
    3.7320    1.5761    0.0000 C   0  0  0  0  0  0  0  0  0  0  0  0
    2.8660   -0.9239    0.0000 C   0  0  0  0  0  0  0  0  0  0  0  0
    5.5116    0.4828    0.0000 C   0  0  0  0  0  0  0  0  0  0  0  0
    4.5411    2.1639    0.0000 C   0  0  0  0  0  0  0  0  0  0  0  0
    4.7026   -0.9185    0.0000 C   0  0  0  0  0  0  0  0  0  0  0  0
    3.7320   -1.4239    0.0000 C   0  0  0  0  0  0  0  0  0  0  0  0
    2.0000   -1.4239    0.0000 C   0  0  0  0  0  0  0  0  0  0  0  0
    4.2320    3.1149    0.0000 C   0  0  0  0  0  0  0  0  0  0  0  0
    6.1808   -0.2603    0.0000 C   0  0  0  0  0  0  0  0  0  0  0  0
    3.2320    3.1149    0.0000 C   0  0  0  0  0  0  0  0  0  0  0  0
    3.7320   -2.4239    0.0000 C   0  0  0  0  0  0  0  0  0  0  0  0
    2.0000   -2.4239    0.0000 C   0  0  0  0  0  0  0  0  0  0  0  0
    2.8660   -2.9239    0.0000 C   0  0  0  0  0  0  0  0  0  0  0  0
    3.7320   -0.0439    0.0000 H   0  0  0  0  0  0  0  0  0  0  0  0
    2.6540    0.6587    0.0000 H   0  0  0  0  0  0  0  0  0  0  0  0
    2.2554   -0.0316    0.0000 H   0  0  0  0  0  0  0  0  0  0  0  0
    5.6405    1.0893    0.0000 H   0  0  0  0  0  0  0  0  0  0  0  0
    5.1307    1.9723    0.0000 H   0  0  0  0  0  0  0  0  0  0  0  0
    4.2419   -1.3333    0.0000 H   0  0  0  0  0  0  0  0  0  0  0  0
    4.2690   -1.1139    0.0000 H   0  0  0  0  0  0  0  0  0  0  0  0
    1.4631   -1.1139    0.0000 H   0  0  0  0  0  0  0  0  0  0  0  0
    4.5965    3.6165    0.0000 H   0  0  0  0  0  0  0  0  0  0  0  0
    6.7974   -0.1955    0.0000 H   0  0  0  0  0  0  0  0  0  0  0  0
    4.2690   -2.7339    0.0000 H   0  0  0  0  0  0  0  0  0  0  0  0
    1.4631   -2.7339    0.0000 H   0  0  0  0  0  0  0  0  0  0  0  0
  1 17  1  0  0  0  0
  2 20  1  0  0  0  0
  3  8  1  0  0  0  0
  3 17  1  0  0  0  0
  4  6  1  0  0  0  0
  4 10  1  0  0  0  0
  4 12  1  0  0  0  0
  5 12  2  0  0  0  0
  5 16  1  0  0  0  0
  6  7  1  0  0  0  0
  6  8  1  0  0  0  0
  6 21  1  0  0  0  0
  7  9  1  0  0  0  0
  7 22  1  0  0  0  0
  7 23  1  0  0  0  0
  8 11  2  0  0  0  0
  9 13  2  0  0  0  0
  9 14  1  0  0  0  0
 10 16  2  0  0  0  0
 10 24  1  0  0  0  0
 11 15  1  0  0  0  0
 11 25  1  0  0  0  0
 12 26  1  0  0  0  0
 13 18  1  0  0  0  0
 13 27  1  0  0  0  0
 14 19  2  0  0  0  0
 14 28  1  0  0  0  0
 15 17  2  0  0  0  0
 15 29  1  0  0  0  0
 16 30  1  0  0  0  0
 18 20  2  0  0  0  0
 18 31  1  0  0  0  0
 19 20  1  0  0  0  0
 19 32  1  0  0  0  0
M  END
> <PUBCHEM_COMPOUND_CID>
511584
> <PUBCHEM_COMPOUND_CANONICALIZED>
1
> <PUBCHEM_CACTVS_COMPLEXITY>
310
> <PUBCHEM_CACTVS_HBOND_ACCEPTOR>
2
> <PUBCHEM_CACTVS_HBOND_DONOR>
0
> <PUBCHEM_CACTVS_ROTATABLE_BOND>
4
> <PUBCHEM_CACTVS_SUBSKEYS>
AAADccBzAABGAAAAAAAAAAAAAAAAAWJAAAAwAAAAAAAAAAAB8AAAHAYAAAAADCrBWiQ9kZcMEAikAjBnZACDgK0xH7BJyBgYNoiIaCKhmxGUIAhogAKoiCcQgMAOBAAAAAAAAAAIAAAAAAAAAAAAAAAAAA==
> <PUBCHEM_IUPAC_OPENEYE_NAME>
1-[2-(4-chlorophenyl)-1-(5-chloro-2-thienyl)ethyl]imidazole
> <PUBCHEM_IUPAC_CAS_NAME>
1-[2-(4-chlorophenyl)-1-(5-chloro-2-thiophenyl)ethyl]imidazole
> <PUBCHEM_IUPAC_NAME_MARKUP>
1-[2-(4-chlorophenyl)-1-(5-chlorothiophen-2-yl)ethyl]imidazole
> <PUBCHEM_IUPAC_NAME>
1-[2-(4-chlorophenyl)-1-(5-chlorothiophen-2-yl)ethyl]imidazole
> <PUBCHEM_IUPAC_SYSTEMATIC_NAME>
1-[1-(5-chloranylthiophen-2-yl)-2-(4-chlorophenyl)ethyl]imidazole
> <PUBCHEM_IUPAC_TRADITIONAL_NAME>
1-[2-(4-chlorophenyl)-1-(5-chloro-2-thienyl)ethyl]imidazole
> <PUBCHEM_IUPAC_INCHI>
InChI=1S/C15H12Cl2N2S/c16-12-3-1-11(2-4-12)9-13(19-8-7-18-10-19)14-5-6-15(17)20-14/h1-8,10,13H,9H2
> <PUBCHEM_IUPAC_INCHIKEY>
GCBNOFHUDKKBFT-UHFFFAOYSA-N
> <PUBCHEM_XLOGP3_AA>
4.9
> <PUBCHEM_EXACT_MASS>
322.0098250
> <PUBCHEM_MOLECULAR_FORMULA>
C15H12Cl2N2S
> <PUBCHEM_MOLECULAR_WEIGHT>
323.2
> <PUBCHEM_OPENEYE_CAN_SMILES>
C1=CC(=CC=C1CC(C2=CC=C(S2)Cl)N3C=CN=C3)Cl
> <PUBCHEM_OPENEYE_ISO_SMILES>
C1=CC(=CC=C1CC(C2=CC=C(S2)Cl)N3C=CN=C3)Cl
> <PUBCHEM_CACTVS_TPSA>
46.1
> <PUBCHEM_MONOISOTOPIC_WEIGHT>
322.0098250
> <PUBCHEM_TOTAL_CHARGE>
0
> <PUBCHEM_HEAVY_ATOM_COUNT>
20
> <PUBCHEM_ATOM_DEF_STEREO_COUNT>
0
> <PUBCHEM_ATOM_UDEF_STEREO_COUNT>
1
> <PUBCHEM_BOND_DEF_STEREO_COUNT>
0
> <PUBCHEM_BOND_UDEF_STEREO_COUNT>
0
> <PUBCHEM_ISOTOPIC_ATOM_COUNT>
0
> <PUBCHEM_COMPONENT_COUNT>
1
> <PUBCHEM_CACTVS_TAUTO_COUNT>
-1
> <PUBCHEM_COORDINATE_TYPE>
1
5
255
> <PUBCHEM_BONDANNOTATIONS>
10  16  8
11  15  8
13  18  8
14  19  8
15  17  8
18  20  8
19  20  8
3  17  8
3  8  8
4  10  8
4  12  8
5  12  8
5  16  8
6  7  3
8  11  8
9  13  8
9  14  8
$$$$
