511580
  -OEChem-10302200282D
 32 34  0     1  0  0  0  0  0999 V2000
    2.8660   -3.5194    0.0000 Cl  0  0  0  0  0  0  0  0  0  0  0  0
    5.5116    0.8873    0.0000 S   0  0  0  0  0  0  0  0  0  0  0  0
    3.7320    1.9806    0.0000 N   0  0  0  0  0  0  0  0  0  0  0  0
    3.2320    3.5194    0.0000 N   0  0  0  0  0  0  0  0  0  0  0  0
    3.7320    0.9806    0.0000 C   0  0  3  0  0  0  0  0  0  0  0  0
    2.8660    0.4806    0.0000 C   0  0  0  0  0  0  0  0  0  0  0  0
    4.5981    0.4806    0.0000 C   0  0  0  0  0  0  0  0  0  0  0  0
    2.8660   -0.5194    0.0000 C   0  0  0  0  0  0  0  0  0  0  0  0
    4.5411    2.5684    0.0000 C   0  0  0  0  0  0  0  0  0  0  0  0
    4.7026   -0.5139    0.0000 C   0  0  0  0  0  0  0  0  0  0  0  0
    2.9230    2.5684    0.0000 C   0  0  0  0  0  0  0  0  0  0  0  0
    2.0000   -1.0194    0.0000 C   0  0  0  0  0  0  0  0  0  0  0  0
    3.7320   -1.0194    0.0000 C   0  0  0  0  0  0  0  0  0  0  0  0
    5.6808   -0.7219    0.0000 C   0  0  0  0  0  0  0  0  0  0  0  0
    4.2320    3.5194    0.0000 C   0  0  0  0  0  0  0  0  0  0  0  0
    6.1808    0.1442    0.0000 C   0  0  0  0  0  0  0  0  0  0  0  0
    2.0000   -2.0194    0.0000 C   0  0  0  0  0  0  0  0  0  0  0  0
    3.7320   -2.0194    0.0000 C   0  0  0  0  0  0  0  0  0  0  0  0
    2.8660   -2.5194    0.0000 C   0  0  0  0  0  0  0  0  0  0  0  0
    3.1951    1.2906    0.0000 H   0  0  0  0  0  0  0  0  0  0  0  0
    2.6540    1.0632    0.0000 H   0  0  0  0  0  0  0  0  0  0  0  0
    2.2554    0.3729    0.0000 H   0  0  0  0  0  0  0  0  0  0  0  0
    5.1307    2.3768    0.0000 H   0  0  0  0  0  0  0  0  0  0  0  0
    4.2419   -0.9288    0.0000 H   0  0  0  0  0  0  0  0  0  0  0  0
    2.3334    2.3768    0.0000 H   0  0  0  0  0  0  0  0  0  0  0  0
    1.4631   -0.7094    0.0000 H   0  0  0  0  0  0  0  0  0  0  0  0
    4.2690   -0.7094    0.0000 H   0  0  0  0  0  0  0  0  0  0  0  0
    5.9329   -1.2882    0.0000 H   0  0  0  0  0  0  0  0  0  0  0  0
    4.5965    4.0210    0.0000 H   0  0  0  0  0  0  0  0  0  0  0  0
    6.7974    0.2090    0.0000 H   0  0  0  0  0  0  0  0  0  0  0  0
    1.4631   -2.3294    0.0000 H   0  0  0  0  0  0  0  0  0  0  0  0
    4.2690   -2.3294    0.0000 H   0  0  0  0  0  0  0  0  0  0  0  0
  1 19  1  0  0  0  0
  2  7  1  0  0  0  0
  2 16  1  0  0  0  0
  3  5  1  0  0  0  0
  3  9  1  0  0  0  0
  3 11  1  0  0  0  0
  4 11  2  0  0  0  0
  4 15  1  0  0  0  0
  5  6  1  0  0  0  0
  5  7  1  0  0  0  0
  5 20  1  0  0  0  0
  6  8  1  0  0  0  0
  6 21  1  0  0  0  0
  6 22  1  0  0  0  0
  7 10  2  0  0  0  0
  8 12  2  0  0  0  0
  8 13  1  0  0  0  0
  9 15  2  0  0  0  0
  9 23  1  0  0  0  0
 10 14  1  0  0  0  0
 10 24  1  0  0  0  0
 11 25  1  0  0  0  0
 12 17  1  0  0  0  0
 12 26  1  0  0  0  0
 13 18  2  0  0  0  0
 13 27  1  0  0  0  0
 14 16  2  0  0  0  0
 14 28  1  0  0  0  0
 15 29  1  0  0  0  0
 16 30  1  0  0  0  0
 17 19  2  0  0  0  0
 17 31  1  0  0  0  0
 18 19  1  0  0  0  0
 18 32  1  0  0  0  0
M  END
> <PUBCHEM_COMPOUND_CID>
511580
> <PUBCHEM_COMPOUND_CANONICALIZED>
1
> <PUBCHEM_CACTVS_COMPLEXITY>
281
> <PUBCHEM_CACTVS_HBOND_ACCEPTOR>
2
> <PUBCHEM_CACTVS_HBOND_DONOR>
0
> <PUBCHEM_CACTVS_ROTATABLE_BOND>
4
> <PUBCHEM_CACTVS_SUBSKEYS>
AAADccBzAABEAAAAAAAAAAAAAAAAAWJAAAAwAAAAAAAAAAAB8AAAHAYAAAAADCrFWiS9kZcMEAikAjBnZACDgK0xH7BJyBgYNoiIaCKhmxGUIAhogAKoiCcQgMAOBAAAAAAAAAAIAAAAAAAAAAAAAAAAAA==
> <PUBCHEM_IUPAC_OPENEYE_NAME>
1-[2-(4-chlorophenyl)-1-(2-thienyl)ethyl]imidazole
> <PUBCHEM_IUPAC_CAS_NAME>
1-[2-(4-chlorophenyl)-1-thiophen-2-ylethyl]imidazole
> <PUBCHEM_IUPAC_NAME_MARKUP>
1-[2-(4-chlorophenyl)-1-thiophen-2-ylethyl]imidazole
> <PUBCHEM_IUPAC_NAME>
1-[2-(4-chlorophenyl)-1-thiophen-2-ylethyl]imidazole
> <PUBCHEM_IUPAC_SYSTEMATIC_NAME>
1-[2-(4-chlorophenyl)-1-thiophen-2-yl-ethyl]imidazole
> <PUBCHEM_IUPAC_TRADITIONAL_NAME>
1-[2-(4-chlorophenyl)-1-(2-thienyl)ethyl]imidazole
> <PUBCHEM_IUPAC_INCHI>
InChI=1S/C15H13ClN2S/c16-13-5-3-12(4-6-13)10-14(15-2-1-9-19-15)18-8-7-17-11-18/h1-9,11,14H,10H2
> <PUBCHEM_IUPAC_INCHIKEY>
QETHTEZRHVMQNU-UHFFFAOYSA-N
> <PUBCHEM_XLOGP3_AA>
3.9
> <PUBCHEM_EXACT_MASS>
288.0487973
> <PUBCHEM_MOLECULAR_FORMULA>
C15H13ClN2S
> <PUBCHEM_MOLECULAR_WEIGHT>
288.8
> <PUBCHEM_OPENEYE_CAN_SMILES>
C1=CSC(=C1)C(CC2=CC=C(C=C2)Cl)N3C=CN=C3
> <PUBCHEM_OPENEYE_ISO_SMILES>
C1=CSC(=C1)C(CC2=CC=C(C=C2)Cl)N3C=CN=C3
> <PUBCHEM_CACTVS_TPSA>
46.1
> <PUBCHEM_MONOISOTOPIC_WEIGHT>
288.0487973
> <PUBCHEM_TOTAL_CHARGE>
0
> <PUBCHEM_HEAVY_ATOM_COUNT>
19
> <PUBCHEM_ATOM_DEF_STEREO_COUNT>
0
> <PUBCHEM_ATOM_UDEF_STEREO_COUNT>
1
> <PUBCHEM_BOND_DEF_STEREO_COUNT>
0
> <PUBCHEM_BOND_UDEF_STEREO_COUNT>
0
> <PUBCHEM_ISOTOPIC_ATOM_COUNT>
0
> <PUBCHEM_COMPONENT_COUNT>
1
> <PUBCHEM_CACTVS_TAUTO_COUNT>
-1
> <PUBCHEM_COORDINATE_TYPE>
1
5
255
> <PUBCHEM_BONDANNOTATIONS>
10  14  8
12  17  8
13  18  8
14  16  8
17  19  8
18  19  8
2  16  8
2  7  8
3  11  8
3  9  8
4  11  8
4  15  8
5  6  3
7  10  8
8  12  8
8  13  8
9  15  8
$$$$
