511532
  -OEChem-10302200282D
 73 77  0     1  0  0  0  0  0999 V2000
    4.5981    1.8152    0.0000 Br  0  0  0  0  0  0  0  0  0  0  0  0
    9.8674    1.5560    0.0000 S   0  0  0  0  0  0  0  0  0  0  0  0
    9.5609   -2.6954    0.0000 S   0  0  0  0  0  0  0  0  0  0  0  0
    6.6206    2.8172    0.0000 O   0  0  0  0  0  0  0  0  0  0  0  0
    9.3855    4.6861    0.0000 O   0  0  0  0  0  0  0  0  0  0  0  0
   10.9526    0.0631    0.0000 O   0  0  0  0  0  0  0  0  0  0  0  0
    4.5981   -0.1861    0.0000 O   0  0  0  0  0  0  0  0  0  0  0  0
   10.5181   -0.8391    0.0000 O   0  0  0  0  0  0  0  0  0  0  0  0
   12.4707    2.0278    0.0000 O   0  0  0  0  0  0  0  0  0  0  0  0
    8.9576   -0.0876    0.0000 N   0  0  0  0  0  0  0  0  0  0  0  0
    7.9814    1.9396    0.0000 C   0  0  3  0  0  0  0  0  0  0  0  0
    7.4662    2.8617    0.0000 C   0  0  1  0  0  0  0  0  0  0  0  0
    9.0068    2.0653    0.0000 C   0  0  1  0  0  0  0  0  0  0  0  0
    8.9576    1.7167    0.0000 C   0  0  0  0  0  0  0  0  0  0  0  0
    7.1985    1.3152    0.0000 C   0  0  0  0  0  0  0  0  0  0  0  0
    9.3921    0.8146    0.0000 C   0  0  1  0  0  0  0  0  0  0  0  0
    7.9260    3.7513    0.0000 C   0  0  0  0  0  0  0  0  0  0  0  0
    9.4667    2.9548    0.0000 C   0  0  0  0  0  0  0  0  0  0  0  0
    6.3313    1.8159    0.0000 C   0  0  0  0  0  0  0  0  0  0  0  0
    7.1985    0.3139    0.0000 C   0  0  0  0  0  0  0  0  0  0  0  0
    8.9262    3.7978    0.0000 C   0  0  0  0  0  0  0  0  0  0  0  0
    7.9814   -0.3104    0.0000 C   0  0  0  0  0  0  0  0  0  0  0  0
   10.3893    0.8893    0.0000 C   0  0  0  0  0  0  0  0  0  0  0  0
    5.4641    1.3152    0.0000 C   0  0  0  0  0  0  0  0  0  0  0  0
    6.3313   -0.1868    0.0000 C   0  0  0  0  0  0  0  0  0  0  0  0
    5.4641    0.3139    0.0000 C   0  0  0  0  0  0  0  0  0  0  0  0
    9.5209   -0.9139    0.0000 C   0  0  0  0  0  0  0  0  0  0  0  0
   10.7388    2.0466    0.0000 C   0  0  0  0  0  0  0  0  0  0  0  0
   11.5993    1.5372    0.0000 C   0  0  0  0  0  0  0  0  0  0  0  0
    9.0870   -1.8148    0.0000 C   0  0  0  0  0  0  0  0  0  0  0  0
    4.5981   -1.1861    0.0000 C   0  0  0  0  0  0  0  0  0  0  0  0
    8.1031   -1.9934    0.0000 C   0  0  0  0  0  0  0  0  0  0  0  0
    3.7321   -1.6861    0.0000 C   0  0  0  0  0  0  0  0  0  0  0  0
    7.9689   -2.9843    0.0000 C   0  0  0  0  0  0  0  0  0  0  0  0
    8.8698   -3.4182    0.0000 C   0  0  0  0  0  0  0  0  0  0  0  0
    3.7320   -2.6861    0.0000 C   0  0  0  0  0  0  0  0  0  0  0  0
    2.8660   -3.1861    0.0000 C   0  0  0  0  0  0  0  0  0  0  0  0
    2.8660   -4.1861    0.0000 C   0  0  0  0  0  0  0  0  0  0  0  0
    2.0000   -4.6861    0.0000 C   0  0  0  0  0  0  0  0  0  0  0  0
    7.0052    3.5759    0.0000 H   0  0  0  0  0  0  0  0  0  0  0  0
    8.8799    1.4584    0.0000 H   0  0  0  0  0  0  0  0  0  0  0  0
    9.5620    1.8547    0.0000 H   0  0  0  0  0  0  0  0  0  0  0  0
    8.9576    2.3367    0.0000 H   0  0  0  0  0  0  0  0  0  0  0  0
    9.7413    0.3023    0.0000 H   0  0  0  0  0  0  0  0  0  0  0  0
    8.0052    4.3662    0.0000 H   0  0  0  0  0  0  0  0  0  0  0  0
    7.3342    3.9360    0.0000 H   0  0  0  0  0  0  0  0  0  0  0  0
    9.9596    2.5788    0.0000 H   0  0  0  0  0  0  0  0  0  0  0  0
    9.9226    3.3750    0.0000 H   0  0  0  0  0  0  0  0  0  0  0  0
    7.4966   -0.6970    0.0000 H   0  0  0  0  0  0  0  0  0  0  0  0
    8.2504   -0.8690    0.0000 H   0  0  0  0  0  0  0  0  0  0  0  0
   10.9544    1.1443    0.0000 H   0  0  0  0  0  0  0  0  0  0  0  0
   10.2363    1.4901    0.0000 H   0  0  0  0  0  0  0  0  0  0  0  0
    6.3313   -0.8068    0.0000 H   0  0  0  0  0  0  0  0  0  0  0  0
   11.1424    2.5172    0.0000 H   0  0  0  0  0  0  0  0  0  0  0  0
   10.3454    2.5258    0.0000 H   0  0  0  0  0  0  0  0  0  0  0  0
   11.5708    0.1094    0.0000 H   0  0  0  0  0  0  0  0  0  0  0  0
   11.1957    1.0666    0.0000 H   0  0  0  0  0  0  0  0  0  0  0  0
   11.9927    1.0580    0.0000 H   0  0  0  0  0  0  0  0  0  0  0  0
    4.8101   -1.7687    0.0000 H   0  0  0  0  0  0  0  0  0  0  0  0
    5.2087   -1.0784    0.0000 H   0  0  0  0  0  0  0  0  0  0  0  0
    7.6550   -1.5649    0.0000 H   0  0  0  0  0  0  0  0  0  0  0  0
    3.5200   -1.1035    0.0000 H   0  0  0  0  0  0  0  0  0  0  0  0
    3.1215   -1.7938    0.0000 H   0  0  0  0  0  0  0  0  0  0  0  0
   13.0043    1.7120    0.0000 H   0  0  0  0  0  0  0  0  0  0  0  0
    7.4229   -3.2781    0.0000 H   0  0  0  0  0  0  0  0  0  0  0  0
    8.9806   -4.0282    0.0000 H   0  0  0  0  0  0  0  0  0  0  0  0
    3.9441   -3.2687    0.0000 H   0  0  0  0  0  0  0  0  0  0  0  0
    4.3426   -2.5784    0.0000 H   0  0  0  0  0  0  0  0  0  0  0  0
    2.6540   -2.6035    0.0000 H   0  0  0  0  0  0  0  0  0  0  0  0
    2.2554   -3.2938    0.0000 H   0  0  0  0  0  0  0  0  0  0  0  0
    3.4030   -4.4961    0.0000 H   0  0  0  0  0  0  0  0  0  0  0  0
    1.4631   -4.3761    0.0000 H   0  0  0  0  0  0  0  0  0  0  0  0
    2.0000   -5.3061    0.0000 H   0  0  0  0  0  0  0  0  0  0  0  0
  1 24  1  0  0  0  0
 13  2  1  1  0  0  0
  2 28  1  0  0  0  0
  3 30  1  0  0  0  0
  3 35  1  0  0  0  0
  4 12  1  0  0  0  0
  4 19  1  0  0  0  0
  5 21  2  0  0  0  0
  6 23  1  0  0  0  0
  6 56  1  0  0  0  0
  7 26  1  0  0  0  0
  7 31  1  0  0  0  0
  8 27  2  0  0  0  0
  9 29  1  0  0  0  0
  9 64  1  0  0  0  0
 10 16  1  0  0  0  0
 10 22  1  0  0  0  0
 10 27  1  0  0  0  0
 11 12  1  0  0  0  0
 11 13  1  0  0  0  0
 11 14  1  0  0  0  0
 11 15  1  0  0  0  0
 12 17  1  0  0  0  0
 12 40  1  1  0  0  0
 13 18  1  0  0  0  0
 13 41  1  0  0  0  0
 14 16  1  0  0  0  0
 14 42  1  0  0  0  0
 14 43  1  0  0  0  0
 15 19  2  0  0  0  0
 15 20  1  0  0  0  0
 16 23  1  1  0  0  0
 16 44  1  0  0  0  0
 17 21  1  0  0  0  0
 17 45  1  0  0  0  0
 17 46  1  0  0  0  0
 18 21  1  0  0  0  0
 18 47  1  0  0  0  0
 18 48  1  0  0  0  0
 19 24  1  0  0  0  0
 20 22  1  0  0  0  0
 20 25  2  0  0  0  0
 22 49  1  0  0  0  0
 22 50  1  0  0  0  0
 23 51  1  0  0  0  0
 23 52  1  0  0  0  0
 24 26  2  0  0  0  0
 25 26  1  0  0  0  0
 25 53  1  0  0  0  0
 27 30  1  0  0  0  0
 28 29  1  0  0  0  0
 28 54  1  0  0  0  0
 28 55  1  0  0  0  0
 29 57  1  0  0  0  0
 29 58  1  0  0  0  0
 30 32  2  0  0  0  0
 31 33  1  0  0  0  0
 31 59  1  0  0  0  0
 31 60  1  0  0  0  0
 32 34  1  0  0  0  0
 32 61  1  0  0  0  0
 33 36  1  0  0  0  0
 33 62  1  0  0  0  0
 33 63  1  0  0  0  0
 34 35  2  0  0  0  0
 34 65  1  0  0  0  0
 35 66  1  0  0  0  0
 36 37  1  0  0  0  0
 36 67  1  0  0  0  0
 36 68  1  0  0  0  0
 37 38  1  0  0  0  0
 37 69  1  0  0  0  0
 37 70  1  0  0  0  0
 38 39  2  0  0  0  0
 38 71  1  0  0  0  0
 39 72  1  0  0  0  0
 39 73  1  0  0  0  0
M  END
> <PUBCHEM_COMPOUND_CID>
511532
> <PUBCHEM_COMPOUND_CANONICALIZED>
1
> <PUBCHEM_CACTVS_COMPLEXITY>
896
> <PUBCHEM_CACTVS_HBOND_ACCEPTOR>
8
> <PUBCHEM_CACTVS_HBOND_DONOR>
2
> <PUBCHEM_CACTVS_ROTATABLE_BOND>
11
> <PUBCHEM_CACTVS_SUBSKEYS>
AAADcfB6OABgEAAAAAAAAAAAAAAAASJAAAAwYAAABYAAAEixwAAAHgRACAABrjzl2AawB4MABgiMAqFSEACDCIAkKBRIiBkODOgONzaktRuGeSjl5hW4q5e4/P/PogABGAAYBABEAAI4ADgIAAAAAAAAAA==
> <PUBCHEM_IUPAC_OPENEYE_NAME>
(3S,12R,16R)-9-bromo-8-hex-5-enoxy-16-(2-hydroxyethylsulfanyl)-3-(hydroxymethyl)-4-(thiophene-2-carbonyl)-11-oxa-4-azatetracyclo[8.6.1.01,12.06,17]heptadeca-6,8,10(17)-trien-14-one
> <PUBCHEM_IUPAC_CAS_NAME>
(3S,12R,16R)-9-bromo-8-hex-5-enoxy-16-(2-hydroxyethylthio)-3-(hydroxymethyl)-4-[oxo(thiophen-2-yl)methyl]-11-oxa-4-azatetracyclo[8.6.1.01,12.06,17]heptadeca-6,8,10(17)-trien-14-one
> <PUBCHEM_IUPAC_NAME_MARKUP>
(3<I>S</I>,12<I>R</I>,16<I>R</I>)-9-bromo-8-hex-5-enoxy-16-(2-hydroxyethylsulfanyl)-3-(hydroxymethyl)-4-(thiophene-2-carbonyl)-11-oxa-4-azatetracyclo[8.6.1.0<SUP>1,12</SUP>.0<SUP>6,17</SUP>]heptadeca-6,8,10(17)-trien-14-one
> <PUBCHEM_IUPAC_NAME>
(3S,12R,16R)-9-bromo-8-hex-5-enoxy-16-(2-hydroxyethylsulfanyl)-3-(hydroxymethyl)-4-(thiophene-2-carbonyl)-11-oxa-4-azatetracyclo[8.6.1.01,12.06,17]heptadeca-6,8,10(17)-trien-14-one
> <PUBCHEM_IUPAC_SYSTEMATIC_NAME>
(3S,12R,16R)-9-bromanyl-8-hex-5-enoxy-16-(2-hydroxyethylsulfanyl)-3-(hydroxymethyl)-4-thiophen-2-ylcarbonyl-11-oxa-4-azatetracyclo[8.6.1.01,12.06,17]heptadeca-6,8,10(17)-trien-14-one
> <PUBCHEM_IUPAC_TRADITIONAL_NAME>
(3S,12R,16R)-9-bromo-8-hex-5-enoxy-16-(2-hydroxyethylthio)-3-methylol-4-(2-thenoyl)-11-oxa-4-azatetracyclo[8.6.1.01,12.06,17]heptadeca-6,8,10(17)-trien-14-one
> <PUBCHEM_IUPAC_INCHI>
InChI=1S/C29H34BrNO6S2/c1-2-3-4-5-9-36-21-12-18-16-31(28(35)22-7-6-10-38-22)19(17-33)15-29-23(37-27(25(18)29)26(21)30)13-20(34)14-24(29)39-11-8-32/h2,6-7,10,12,19,23-24,32-33H,1,3-5,8-9,11,13-17H2/t19-,23+,24+,29?/m0/s1
> <PUBCHEM_IUPAC_INCHIKEY>
UCSGPKLUAMHMBD-PDGWDSTCSA-N
> <PUBCHEM_XLOGP3_AA>
4.2
> <PUBCHEM_EXACT_MASS>
635.10109
> <PUBCHEM_MOLECULAR_FORMULA>
C29H34BrNO6S2
> <PUBCHEM_MOLECULAR_WEIGHT>
636.6
> <PUBCHEM_OPENEYE_CAN_SMILES>
C=CCCCCOC1=C(C2=C3C(=C1)CN(C(CC34C(O2)CC(=O)CC4SCCO)CO)C(=O)C5=CC=CS5)Br
> <PUBCHEM_OPENEYE_ISO_SMILES>
C=CCCCCOC1=C(C2=C3C(=C1)CN([C@@H](CC34[C@H](O2)CC(=O)C[C@H]4SCCO)CO)C(=O)C5=CC=CS5)Br
> <PUBCHEM_CACTVS_TPSA>
150
> <PUBCHEM_MONOISOTOPIC_WEIGHT>
635.10109
> <PUBCHEM_TOTAL_CHARGE>
0
> <PUBCHEM_HEAVY_ATOM_COUNT>
39
> <PUBCHEM_ATOM_DEF_STEREO_COUNT>
3
> <PUBCHEM_ATOM_UDEF_STEREO_COUNT>
1
> <PUBCHEM_BOND_DEF_STEREO_COUNT>
0
> <PUBCHEM_BOND_UDEF_STEREO_COUNT>
0
> <PUBCHEM_ISOTOPIC_ATOM_COUNT>
0
> <PUBCHEM_COMPONENT_COUNT>
1
> <PUBCHEM_CACTVS_TAUTO_COUNT>
-1
> <PUBCHEM_COORDINATE_TYPE>
1
5
255
> <PUBCHEM_BONDANNOTATIONS>
11  14  3
12  40  5
15  19  8
15  20  8
16  23  5
19  24  8
13  2  5
20  25  8
24  26  8
25  26  8
3  30  8
3  35  8
30  32  8
32  34  8
34  35  8
$$$$
