511533
  -OEChem-10302200282D
 92 96  0     1  0  0  0  0  0999 V2000
    4.5981    1.4139    0.0000 Br  0  0  0  0  0  0  0  0  0  0  0  0
    9.8674    1.1546    0.0000 S   0  0  0  0  0  0  0  0  0  0  0  0
    6.6206    2.4159    0.0000 O   0  0  0  0  0  0  0  0  0  0  0  0
    8.8798    4.3954    0.0000 O   0  0  0  0  0  0  0  0  0  0  0  0
   10.9526   -0.3383    0.0000 O   0  0  0  0  0  0  0  0  0  0  0  0
    4.5981   -0.5875    0.0000 O   0  0  0  0  0  0  0  0  0  0  0  0
    9.0870   -2.2162    0.0000 O   0  0  0  0  0  0  0  0  0  0  0  0
   10.5181   -1.2405    0.0000 O   0  0  0  0  0  0  0  0  0  0  0  0
   12.7761    5.0875    0.0000 O   0  0  0  0  0  0  0  0  0  0  0  0
    8.9576   -0.4890    0.0000 N   0  0  0  0  0  0  0  0  0  0  0  0
    7.9814    1.5382    0.0000 C   0  0  3  0  0  0  0  0  0  0  0  0
    7.4662    2.4604    0.0000 C   0  0  1  0  0  0  0  0  0  0  0  0
    9.0068    1.6639    0.0000 C   0  0  1  0  0  0  0  0  0  0  0  0
    8.9576    1.3154    0.0000 C   0  0  0  0  0  0  0  0  0  0  0  0
    7.1985    0.9139    0.0000 C   0  0  0  0  0  0  0  0  0  0  0  0
    9.3921    0.4132    0.0000 C   0  0  1  0  0  0  0  0  0  0  0  0
    7.9260    3.3499    0.0000 C   0  0  0  0  0  0  0  0  0  0  0  0
    9.4667    2.5534    0.0000 C   0  0  0  0  0  0  0  0  0  0  0  0
    6.3313    1.4146    0.0000 C   0  0  0  0  0  0  0  0  0  0  0  0
    7.1985   -0.0875    0.0000 C   0  0  0  0  0  0  0  0  0  0  0  0
    8.9262    3.3964    0.0000 C   0  0  0  0  0  0  0  0  0  0  0  0
    7.9814   -0.7118    0.0000 C   0  0  0  0  0  0  0  0  0  0  0  0
   10.3893    0.4879    0.0000 C   0  0  0  0  0  0  0  0  0  0  0  0
    5.4641    0.9139    0.0000 C   0  0  0  0  0  0  0  0  0  0  0  0
    6.3313   -0.5881    0.0000 C   0  0  0  0  0  0  0  0  0  0  0  0
    5.4641   -0.0875    0.0000 C   0  0  0  0  0  0  0  0  0  0  0  0
   10.7388    1.6452    0.0000 C   0  0  0  0  0  0  0  0  0  0  0  0
    9.5209   -1.3152    0.0000 C   0  0  0  0  0  0  0  0  0  0  0  0
   11.2481    2.5058    0.0000 C   0  0  0  0  0  0  0  0  0  0  0  0
    4.5981   -1.5875    0.0000 C   0  0  0  0  0  0  0  0  0  0  0  0
    9.6504   -3.0424    0.0000 C   0  0  0  0  0  0  0  0  0  0  0  0
   10.7575    3.3771    0.0000 C   0  0  0  0  0  0  0  0  0  0  0  0
   12.2481    2.4949    0.0000 C   0  0  0  0  0  0  0  0  0  0  0  0
    9.2165   -3.9434    0.0000 C   0  0  0  0  0  0  0  0  0  0  0  0
    3.7321   -2.0875    0.0000 C   0  0  0  0  0  0  0  0  0  0  0  0
   11.2669    4.2377    0.0000 C   0  0  0  0  0  0  0  0  0  0  0  0
   12.7574    3.3555    0.0000 C   0  0  0  0  0  0  0  0  0  0  0  0
    8.7826   -4.8444    0.0000 C   0  0  0  0  0  0  0  0  0  0  0  0
   10.1174   -4.3773    0.0000 C   0  0  0  0  0  0  0  0  0  0  0  0
    8.3155   -3.5095    0.0000 C   0  0  0  0  0  0  0  0  0  0  0  0
    3.7320   -3.0875    0.0000 C   0  0  0  0  0  0  0  0  0  0  0  0
   12.2668    4.2269    0.0000 C   0  0  0  0  0  0  0  0  0  0  0  0
    2.8660   -3.5875    0.0000 C   0  0  0  0  0  0  0  0  0  0  0  0
    2.8660   -4.5875    0.0000 C   0  0  0  0  0  0  0  0  0  0  0  0
   13.7761    5.0766    0.0000 C   0  0  0  0  0  0  0  0  0  0  0  0
    2.0000   -5.0875    0.0000 C   0  0  0  0  0  0  0  0  0  0  0  0
    7.0052    3.1746    0.0000 H   0  0  0  0  0  0  0  0  0  0  0  0
    8.8799    1.0571    0.0000 H   0  0  0  0  0  0  0  0  0  0  0  0
    9.5620    1.4533    0.0000 H   0  0  0  0  0  0  0  0  0  0  0  0
    8.9576    1.9354    0.0000 H   0  0  0  0  0  0  0  0  0  0  0  0
    9.7413   -0.0991    0.0000 H   0  0  0  0  0  0  0  0  0  0  0  0
    8.0052    3.9648    0.0000 H   0  0  0  0  0  0  0  0  0  0  0  0
    7.3342    3.5347    0.0000 H   0  0  0  0  0  0  0  0  0  0  0  0
    9.9596    2.1774    0.0000 H   0  0  0  0  0  0  0  0  0  0  0  0
    9.9226    2.9736    0.0000 H   0  0  0  0  0  0  0  0  0  0  0  0
    7.4966   -1.0984    0.0000 H   0  0  0  0  0  0  0  0  0  0  0  0
    8.2504   -1.2704    0.0000 H   0  0  0  0  0  0  0  0  0  0  0  0
   10.9544    0.7429    0.0000 H   0  0  0  0  0  0  0  0  0  0  0  0
   10.2363    1.0888    0.0000 H   0  0  0  0  0  0  0  0  0  0  0  0
    6.3313   -1.2081    0.0000 H   0  0  0  0  0  0  0  0  0  0  0  0
   10.8398    1.0335    0.0000 H   0  0  0  0  0  0  0  0  0  0  0  0
   10.3051    2.0883    0.0000 H   0  0  0  0  0  0  0  0  0  0  0  0
   11.5708   -0.2920    0.0000 H   0  0  0  0  0  0  0  0  0  0  0  0
    4.8101   -2.1701    0.0000 H   0  0  0  0  0  0  0  0  0  0  0  0
    5.2087   -1.4798    0.0000 H   0  0  0  0  0  0  0  0  0  0  0  0
   10.1538   -3.4043    0.0000 H   0  0  0  0  0  0  0  0  0  0  0  0
   10.0942   -2.6095    0.0000 H   0  0  0  0  0  0  0  0  0  0  0  0
   10.1375    3.3838    0.0000 H   0  0  0  0  0  0  0  0  0  0  0  0
   12.5522    1.9547    0.0000 H   0  0  0  0  0  0  0  0  0  0  0  0
    3.5200   -1.5048    0.0000 H   0  0  0  0  0  0  0  0  0  0  0  0
    3.1215   -2.1951    0.0000 H   0  0  0  0  0  0  0  0  0  0  0  0
   10.9627    4.7780    0.0000 H   0  0  0  0  0  0  0  0  0  0  0  0
   13.3774    3.3488    0.0000 H   0  0  0  0  0  0  0  0  0  0  0  0
    8.2240   -4.5754    0.0000 H   0  0  0  0  0  0  0  0  0  0  0  0
    8.5136   -5.4030    0.0000 H   0  0  0  0  0  0  0  0  0  0  0  0
    9.3412   -5.1134    0.0000 H   0  0  0  0  0  0  0  0  0  0  0  0
    9.8484   -4.9359    0.0000 H   0  0  0  0  0  0  0  0  0  0  0  0
   10.6761   -4.6463    0.0000 H   0  0  0  0  0  0  0  0  0  0  0  0
   10.3865   -3.8187    0.0000 H   0  0  0  0  0  0  0  0  0  0  0  0
    8.5845   -2.9509    0.0000 H   0  0  0  0  0  0  0  0  0  0  0  0
    7.7569   -3.2405    0.0000 H   0  0  0  0  0  0  0  0  0  0  0  0
    8.0465   -4.0681    0.0000 H   0  0  0  0  0  0  0  0  0  0  0  0
    3.9441   -3.6701    0.0000 H   0  0  0  0  0  0  0  0  0  0  0  0
    4.3426   -2.9798    0.0000 H   0  0  0  0  0  0  0  0  0  0  0  0
    2.6540   -3.0048    0.0000 H   0  0  0  0  0  0  0  0  0  0  0  0
    2.2554   -3.6951    0.0000 H   0  0  0  0  0  0  0  0  0  0  0  0
    3.4030   -4.8975    0.0000 H   0  0  0  0  0  0  0  0  0  0  0  0
   13.7694    4.4567    0.0000 H   0  0  0  0  0  0  0  0  0  0  0  0
   14.3960    5.0699    0.0000 H   0  0  0  0  0  0  0  0  0  0  0  0
   13.7828    5.6966    0.0000 H   0  0  0  0  0  0  0  0  0  0  0  0
    1.4631   -4.7775    0.0000 H   0  0  0  0  0  0  0  0  0  0  0  0
    2.0000   -5.7075    0.0000 H   0  0  0  0  0  0  0  0  0  0  0  0
  1 24  1  0  0  0  0
 13  2  1  1  0  0  0
  2 27  1  0  0  0  0
  3 12  1  0  0  0  0
  3 19  1  0  0  0  0
  4 21  2  0  0  0  0
  5 23  1  0  0  0  0
  5 63  1  0  0  0  0
  6 26  1  0  0  0  0
  6 30  1  0  0  0  0
  7 28  1  0  0  0  0
  7 31  1  0  0  0  0
  8 28  2  0  0  0  0
  9 42  1  0  0  0  0
  9 45  1  0  0  0  0
 10 16  1  0  0  0  0
 10 22  1  0  0  0  0
 10 28  1  0  0  0  0
 11 12  1  0  0  0  0
 11 13  1  0  0  0  0
 11 14  1  0  0  0  0
 11 15  1  0  0  0  0
 12 17  1  0  0  0  0
 12 47  1  1  0  0  0
 13 18  1  0  0  0  0
 13 48  1  0  0  0  0
 14 16  1  0  0  0  0
 14 49  1  0  0  0  0
 14 50  1  0  0  0  0
 15 19  2  0  0  0  0
 15 20  1  0  0  0  0
 16 23  1  1  0  0  0
 16 51  1  0  0  0  0
 17 21  1  0  0  0  0
 17 52  1  0  0  0  0
 17 53  1  0  0  0  0
 18 21  1  0  0  0  0
 18 54  1  0  0  0  0
 18 55  1  0  0  0  0
 19 24  1  0  0  0  0
 20 22  1  0  0  0  0
 20 25  2  0  0  0  0
 22 56  1  0  0  0  0
 22 57  1  0  0  0  0
 23 58  1  0  0  0  0
 23 59  1  0  0  0  0
 24 26  2  0  0  0  0
 25 26  1  0  0  0  0
 25 60  1  0  0  0  0
 27 29  1  0  0  0  0
 27 61  1  0  0  0  0
 27 62  1  0  0  0  0
 29 32  2  0  0  0  0
 29 33  1  0  0  0  0
 30 35  1  0  0  0  0
 30 64  1  0  0  0  0
 30 65  1  0  0  0  0
 31 34  1  0  0  0  0
 31 66  1  0  0  0  0
 31 67  1  0  0  0  0
 32 36  1  0  0  0  0
 32 68  1  0  0  0  0
 33 37  2  0  0  0  0
 33 69  1  0  0  0  0
 34 38  1  0  0  0  0
 34 39  1  0  0  0  0
 34 40  1  0  0  0  0
 35 41  1  0  0  0  0
 35 70  1  0  0  0  0
 35 71  1  0  0  0  0
 36 42  2  0  0  0  0
 36 72  1  0  0  0  0
 37 42  1  0  0  0  0
 37 73  1  0  0  0  0
 38 74  1  0  0  0  0
 38 75  1  0  0  0  0
 38 76  1  0  0  0  0
 39 77  1  0  0  0  0
 39 78  1  0  0  0  0
 39 79  1  0  0  0  0
 40 80  1  0  0  0  0
 40 81  1  0  0  0  0
 40 82  1  0  0  0  0
 41 43  1  0  0  0  0
 41 83  1  0  0  0  0
 41 84  1  0  0  0  0
 43 44  1  0  0  0  0
 43 85  1  0  0  0  0
 43 86  1  0  0  0  0
 44 46  2  0  0  0  0
 44 87  1  0  0  0  0
 45 88  1  0  0  0  0
 45 89  1  0  0  0  0
 45 90  1  0  0  0  0
 46 91  1  0  0  0  0
 46 92  1  0  0  0  0
M  END
> <PUBCHEM_COMPOUND_CID>
511533
> <PUBCHEM_COMPOUND_CANONICALIZED>
1
> <PUBCHEM_CACTVS_COMPLEXITY>
1050
> <PUBCHEM_CACTVS_HBOND_ACCEPTOR>
8
> <PUBCHEM_CACTVS_HBOND_DONOR>
1
> <PUBCHEM_CACTVS_ROTATABLE_BOND>
14
> <PUBCHEM_CACTVS_SUBSKEYS>
AAADcfB+OABAEAAAAAAAAAAAAAAAASAAAAAwYMAABYAAAEixQAAAHgRACAABrjzl2AayDoMABgiIAqBSGACCCAAgIBQIiAEODKgONzaksRuOeCjl5hW4qhe4/P/PogABGAAYBABEAAI4ADgIAAAAAAAAAA==
> <PUBCHEM_IUPAC_OPENEYE_NAME>
2,2-dimethylpropyl (3S,12R,16R)-9-bromo-8-hex-5-enoxy-3-(hydroxymethyl)-16-[(4-methoxyphenyl)methylsulfanyl]-14-oxo-11-oxa-4-azatetracyclo[8.6.1.01,12.06,17]heptadeca-6,8,10(17)-triene-4-carboxylate
> <PUBCHEM_IUPAC_CAS_NAME>
(3S,12R,16R)-9-bromo-8-hex-5-enoxy-3-(hydroxymethyl)-16-[(4-methoxyphenyl)methylthio]-14-oxo-11-oxa-4-azatetracyclo[8.6.1.01,12.06,17]heptadeca-6,8,10(17)-triene-4-carboxylic acid 2,2-dimethylpropyl ester
> <PUBCHEM_IUPAC_NAME_MARKUP>
2,2-dimethylpropyl (3<I>S</I>,12<I>R</I>,16<I>R</I>)-9-bromo-8-hex-5-enoxy-3-(hydroxymethyl)-16-[(4-methoxyphenyl)methylsulfanyl]-14-oxo-11-oxa-4-azatetracyclo[8.6.1.0<SUP>1,12</SUP>.0<SUP>6,17</SUP>]heptadeca-6,8,10(17)-triene-4-carboxylate
> <PUBCHEM_IUPAC_NAME>
2,2-dimethylpropyl (3S,12R,16R)-9-bromo-8-hex-5-enoxy-3-(hydroxymethyl)-16-[(4-methoxyphenyl)methylsulfanyl]-14-oxo-11-oxa-4-azatetracyclo[8.6.1.01,12.06,17]heptadeca-6,8,10(17)-triene-4-carboxylate
> <PUBCHEM_IUPAC_SYSTEMATIC_NAME>
2,2-dimethylpropyl (3S,12R,16R)-9-bromanyl-8-hex-5-enoxy-3-(hydroxymethyl)-16-[(4-methoxyphenyl)methylsulfanyl]-14-oxidanylidene-11-oxa-4-azatetracyclo[8.6.1.01,12.06,17]heptadeca-6,8,10(17)-triene-4-carboxylate
> <PUBCHEM_IUPAC_TRADITIONAL_NAME>
(3S,12R,16R)-9-bromo-8-hex-5-enoxy-14-keto-3-methylol-16-(p-anisylthio)-11-oxa-4-azatetracyclo[8.6.1.01,12.06,17]heptadeca-6,8,10(17)-triene-4-carboxylic acid neopentyl ester
> <PUBCHEM_IUPAC_INCHI>
InChI=1S/C36H46BrNO7S/c1-6-7-8-9-14-43-28-15-24-19-38(34(41)44-22-35(2,3)4)25(20-39)18-36-29(45-33(31(24)36)32(28)37)16-26(40)17-30(36)46-21-23-10-12-27(42-5)13-11-23/h6,10-13,15,25,29-30,39H,1,7-9,14,16-22H2,2-5H3/t25-,29+,30+,36?/m0/s1
> <PUBCHEM_IUPAC_INCHIKEY>
URDPSWIVUVSEJX-OXVWBNTCSA-N
> <PUBCHEM_XLOGP3_AA>
6.9
> <PUBCHEM_EXACT_MASS>
715.21784
> <PUBCHEM_MOLECULAR_FORMULA>
C36H46BrNO7S
> <PUBCHEM_MOLECULAR_WEIGHT>
716.7
> <PUBCHEM_OPENEYE_CAN_SMILES>
CC(C)(C)COC(=O)N1CC2=CC(=C(C3=C2C4(CC1CO)C(O3)CC(=O)CC4SCC5=CC=C(C=C5)OC)Br)OCCCCC=C
> <PUBCHEM_OPENEYE_ISO_SMILES>
CC(C)(C)COC(=O)N1CC2=CC(=C(C3=C2C4(C[C@H]1CO)[C@H](O3)CC(=O)C[C@H]4SCC5=CC=C(C=C5)OC)Br)OCCCCC=C
> <PUBCHEM_CACTVS_TPSA>
120
> <PUBCHEM_MONOISOTOPIC_WEIGHT>
715.21784
> <PUBCHEM_TOTAL_CHARGE>
0
> <PUBCHEM_HEAVY_ATOM_COUNT>
46
> <PUBCHEM_ATOM_DEF_STEREO_COUNT>
3
> <PUBCHEM_ATOM_UDEF_STEREO_COUNT>
1
> <PUBCHEM_BOND_DEF_STEREO_COUNT>
0
> <PUBCHEM_BOND_UDEF_STEREO_COUNT>
0
> <PUBCHEM_ISOTOPIC_ATOM_COUNT>
0
> <PUBCHEM_COMPONENT_COUNT>
1
> <PUBCHEM_CACTVS_TAUTO_COUNT>
-1
> <PUBCHEM_COORDINATE_TYPE>
1
5
255
> <PUBCHEM_BONDANNOTATIONS>
11  14  3
12  47  5
15  19  8
15  20  8
16  23  5
19  24  8
13  2  5
20  25  8
24  26  8
25  26  8
29  32  8
29  33  8
32  36  8
33  37  8
36  42  8
37  42  8
$$$$
