511588
  -OEChem-10302200282D
 35 37  0     1  0  0  0  0  0999 V2000
    2.8660   -3.9239    0.0000 Cl  0  0  0  0  0  0  0  0  0  0  0  0
    2.9230    2.1639    0.0000 S   0  0  0  0  0  0  0  0  0  0  0  0
    4.5981    0.0761    0.0000 N   0  0  0  0  0  0  0  0  0  0  0  0
    5.6808   -1.1264    0.0000 N   0  0  0  0  0  0  0  0  0  0  0  0
    3.7320    0.5761    0.0000 C   0  0  3  0  0  0  0  0  0  0  0  0
    2.8660    0.0761    0.0000 C   0  0  0  0  0  0  0  0  0  0  0  0
    3.7320    1.5761    0.0000 C   0  0  0  0  0  0  0  0  0  0  0  0
    2.8660   -0.9239    0.0000 C   0  0  0  0  0  0  0  0  0  0  0  0
    4.5411    2.1639    0.0000 C   0  0  0  0  0  0  0  0  0  0  0  0
    5.5116    0.4828    0.0000 C   0  0  0  0  0  0  0  0  0  0  0  0
    4.7026   -0.9185    0.0000 C   0  0  0  0  0  0  0  0  0  0  0  0
    3.2320    3.1149    0.0000 C   0  0  0  0  0  0  0  0  0  0  0  0
    4.2320    3.1149    0.0000 C   0  0  0  0  0  0  0  0  0  0  0  0
    2.0000   -1.4239    0.0000 C   0  0  0  0  0  0  0  0  0  0  0  0
    3.7320   -1.4239    0.0000 C   0  0  0  0  0  0  0  0  0  0  0  0
    6.1808   -0.2603    0.0000 C   0  0  0  0  0  0  0  0  0  0  0  0
    2.0000   -2.4239    0.0000 C   0  0  0  0  0  0  0  0  0  0  0  0
    3.7320   -2.4239    0.0000 C   0  0  0  0  0  0  0  0  0  0  0  0
    2.6443    3.9239    0.0000 C   0  0  0  0  0  0  0  0  0  0  0  0
    2.8660   -2.9239    0.0000 C   0  0  0  0  0  0  0  0  0  0  0  0
    3.7320   -0.0439    0.0000 H   0  0  0  0  0  0  0  0  0  0  0  0
    2.6540    0.6587    0.0000 H   0  0  0  0  0  0  0  0  0  0  0  0
    2.2554   -0.0316    0.0000 H   0  0  0  0  0  0  0  0  0  0  0  0
    5.1307    1.9723    0.0000 H   0  0  0  0  0  0  0  0  0  0  0  0
    5.6405    1.0893    0.0000 H   0  0  0  0  0  0  0  0  0  0  0  0
    4.2419   -1.3333    0.0000 H   0  0  0  0  0  0  0  0  0  0  0  0
    4.5965    3.6165    0.0000 H   0  0  0  0  0  0  0  0  0  0  0  0
    1.4631   -1.1139    0.0000 H   0  0  0  0  0  0  0  0  0  0  0  0
    4.2690   -1.1139    0.0000 H   0  0  0  0  0  0  0  0  0  0  0  0
    6.7974   -0.1955    0.0000 H   0  0  0  0  0  0  0  0  0  0  0  0
    1.4631   -2.7339    0.0000 H   0  0  0  0  0  0  0  0  0  0  0  0
    4.2690   -2.7339    0.0000 H   0  0  0  0  0  0  0  0  0  0  0  0
    3.1459    4.2884    0.0000 H   0  0  0  0  0  0  0  0  0  0  0  0
    2.2798    4.4255    0.0000 H   0  0  0  0  0  0  0  0  0  0  0  0
    2.1427    3.5595    0.0000 H   0  0  0  0  0  0  0  0  0  0  0  0
  1 20  1  0  0  0  0
  2  7  1  0  0  0  0
  2 12  1  0  0  0  0
  3  5  1  0  0  0  0
  3 10  1  0  0  0  0
  3 11  1  0  0  0  0
  4 11  2  0  0  0  0
  4 16  1  0  0  0  0
  5  6  1  0  0  0  0
  5  7  1  0  0  0  0
  5 21  1  0  0  0  0
  6  8  1  0  0  0  0
  6 22  1  0  0  0  0
  6 23  1  0  0  0  0
  7  9  2  0  0  0  0
  8 14  2  0  0  0  0
  8 15  1  0  0  0  0
  9 13  1  0  0  0  0
  9 24  1  0  0  0  0
 10 16  2  0  0  0  0
 10 25  1  0  0  0  0
 11 26  1  0  0  0  0
 12 13  2  0  0  0  0
 12 19  1  0  0  0  0
 13 27  1  0  0  0  0
 14 17  1  0  0  0  0
 14 28  1  0  0  0  0
 15 18  2  0  0  0  0
 15 29  1  0  0  0  0
 16 30  1  0  0  0  0
 17 20  2  0  0  0  0
 17 31  1  0  0  0  0
 18 20  1  0  0  0  0
 18 32  1  0  0  0  0
 19 33  1  0  0  0  0
 19 34  1  0  0  0  0
 19 35  1  0  0  0  0
M  END
> <PUBCHEM_COMPOUND_CID>
511588
> <PUBCHEM_COMPOUND_CANONICALIZED>
1
> <PUBCHEM_CACTVS_COMPLEXITY>
307
> <PUBCHEM_CACTVS_HBOND_ACCEPTOR>
2
> <PUBCHEM_CACTVS_HBOND_DONOR>
0
> <PUBCHEM_CACTVS_ROTATABLE_BOND>
4
> <PUBCHEM_CACTVS_SUBSKEYS>
AAADccB7AABEAAAAAAAAAAAAAAAAAWJAAAAwAAAAAAAAAAAB8AAAHAYAAAAADCrBWiQ/kZcMEAikAjBnZACDgK0xH7BJyBgYNoiIaCKhmxGUIAhogAKoiCcQgMAOBAAAAAAAAAAIAAAAAAAAAAAAAAAAAA==
> <PUBCHEM_IUPAC_OPENEYE_NAME>
1-[2-(4-chlorophenyl)-1-(5-methyl-2-thienyl)ethyl]imidazole
> <PUBCHEM_IUPAC_CAS_NAME>
1-[2-(4-chlorophenyl)-1-(5-methyl-2-thiophenyl)ethyl]imidazole
> <PUBCHEM_IUPAC_NAME_MARKUP>
1-[2-(4-chlorophenyl)-1-(5-methylthiophen-2-yl)ethyl]imidazole
> <PUBCHEM_IUPAC_NAME>
1-[2-(4-chlorophenyl)-1-(5-methylthiophen-2-yl)ethyl]imidazole
> <PUBCHEM_IUPAC_SYSTEMATIC_NAME>
1-[2-(4-chlorophenyl)-1-(5-methylthiophen-2-yl)ethyl]imidazole
> <PUBCHEM_IUPAC_TRADITIONAL_NAME>
1-[2-(4-chlorophenyl)-1-(5-methyl-2-thienyl)ethyl]imidazole
> <PUBCHEM_IUPAC_INCHI>
InChI=1S/C16H15ClN2S/c1-12-2-7-16(20-12)15(19-9-8-18-11-19)10-13-3-5-14(17)6-4-13/h2-9,11,15H,10H2,1H3
> <PUBCHEM_IUPAC_INCHIKEY>
HOTTZBDBTFKOAU-UHFFFAOYSA-N
> <PUBCHEM_XLOGP3_AA>
4.3
> <PUBCHEM_EXACT_MASS>
302.0644474
> <PUBCHEM_MOLECULAR_FORMULA>
C16H15ClN2S
> <PUBCHEM_MOLECULAR_WEIGHT>
302.8
> <PUBCHEM_OPENEYE_CAN_SMILES>
CC1=CC=C(S1)C(CC2=CC=C(C=C2)Cl)N3C=CN=C3
> <PUBCHEM_OPENEYE_ISO_SMILES>
CC1=CC=C(S1)C(CC2=CC=C(C=C2)Cl)N3C=CN=C3
> <PUBCHEM_CACTVS_TPSA>
46.1
> <PUBCHEM_MONOISOTOPIC_WEIGHT>
302.0644474
> <PUBCHEM_TOTAL_CHARGE>
0
> <PUBCHEM_HEAVY_ATOM_COUNT>
20
> <PUBCHEM_ATOM_DEF_STEREO_COUNT>
0
> <PUBCHEM_ATOM_UDEF_STEREO_COUNT>
1
> <PUBCHEM_BOND_DEF_STEREO_COUNT>
0
> <PUBCHEM_BOND_UDEF_STEREO_COUNT>
0
> <PUBCHEM_ISOTOPIC_ATOM_COUNT>
0
> <PUBCHEM_COMPONENT_COUNT>
1
> <PUBCHEM_CACTVS_TAUTO_COUNT>
-1
> <PUBCHEM_COORDINATE_TYPE>
1
5
255
> <PUBCHEM_BONDANNOTATIONS>
10  16  8
12  13  8
14  17  8
15  18  8
17  20  8
18  20  8
2  12  8
2  7  8
3  10  8
3  11  8
4  11  8
4  16  8
5  6  3
7  9  8
8  14  8
8  15  8
9  13  8
$$$$
