511578
  -OEChem-10302200282D
137137  0     1  0  0  0  0  0999 V2000
    9.7942   -1.2613    0.0000 O   0  0  0  0  0  0  0  0  0  0  0  0
   10.8962   -0.4607    0.0000 O   0  0  0  0  0  0  0  0  0  0  0  0
   14.0767    1.2377    0.0000 O   0  0  0  0  0  0  0  0  0  0  0  0
    8.0622   -3.2613    0.0000 O   0  0  0  0  0  0  0  0  0  0  0  0
   12.5019    4.4812    0.0000 O   0  0  0  0  0  0  0  0  0  0  0  0
   15.6824    6.1796    0.0000 O   0  0  0  0  0  0  0  0  0  0  0  0
   16.9608    8.4960    0.0000 O   0  0  0  0  0  0  0  0  0  0  0  0
   11.1350    6.7465    0.0000 O   0  0  0  0  0  0  0  0  0  0  0  0
    8.9282    0.2387    0.0000 N   0  0  0  0  0  0  0  0  0  0  0  0
   11.4314    1.1866    0.0000 N   0  0  0  0  0  0  0  0  0  0  0  0
    7.1962   -1.7613    0.0000 N   0  0  0  0  0  0  0  0  0  0  0  0
   12.9177    2.5249    0.0000 N   0  0  0  0  0  0  0  0  0  0  0  0
   14.1961    4.8413    0.0000 N   0  0  0  0  0  0  0  0  0  0  0  0
   14.5234    7.4667    0.0000 N   0  0  0  0  0  0  0  0  0  0  0  0
   11.6702    8.3938    0.0000 N   0  0  0  0  0  0  0  0  0  0  0  0
    9.7372    0.8265    0.0000 C   0  0  3  0  0  0  0  0  0  0  0  0
    9.4282    1.7776    0.0000 C   0  0  0  0  0  0  0  0  0  0  0  0
    8.4282    1.7776    0.0000 C   0  0  0  0  0  0  0  0  0  0  0  0
    8.1192    0.8265    0.0000 C   0  0  0  0  0  0  0  0  0  0  0  0
    8.9282   -0.7613    0.0000 C   0  0  0  0  0  0  0  0  0  0  0  0
    8.0622   -1.2613    0.0000 C   0  0  0  0  0  0  0  0  0  0  0  0
   10.6883    0.5175    0.0000 C   0  0  0  0  0  0  0  0  0  0  0  0
   12.3825    0.8776    0.0000 C   0  0  1  0  0  0  0  0  0  0  0  0
   12.5904   -0.1005    0.0000 C   0  0  0  0  0  0  0  0  0  0  0  0
    8.5622   -2.1273    0.0000 C   0  0  0  0  0  0  0  0  0  0  0  0
    7.5622   -0.3952    0.0000 C   0  0  0  0  0  0  0  0  0  0  0  0
   13.5414   -0.4096    0.0000 C   0  0  0  0  0  0  0  0  0  0  0  0
   13.1256    1.5467    0.0000 C   0  0  0  0  0  0  0  0  0  0  0  0
    7.1962   -2.7613    0.0000 C   0  0  0  0  0  0  0  0  0  0  0  0
   13.6609    3.1940    0.0000 C   0  0  1  0  0  0  0  0  0  0  0  0
   14.6119    2.8850    0.0000 C   0  0  0  0  0  0  0  0  0  0  0  0
    6.3301   -3.2613    0.0000 C   0  0  0  0  0  0  0  0  0  0  0  0
   13.7494   -1.3877    0.0000 C   0  0  0  0  0  0  0  0  0  0  0  0
   14.2846    0.2596    0.0000 C   0  0  0  0  0  0  0  0  0  0  0  0
    6.3301   -4.2613    0.0000 C   0  0  0  0  0  0  0  0  0  0  0  0
    5.4641   -4.7613    0.0000 C   0  0  0  0  0  0  0  0  0  0  0  0
   13.4529    4.1722    0.0000 C   0  0  0  0  0  0  0  0  0  0  0  0
    5.4641   -5.7613    0.0000 C   0  0  0  0  0  0  0  0  0  0  0  0
   13.9882    5.8194    0.0000 C   0  0  1  0  0  0  0  0  0  0  0  0
   15.3551    3.5541    0.0000 C   0  0  0  0  0  0  0  0  0  0  0  0
   14.8198    1.9068    0.0000 C   0  0  0  0  0  0  0  0  0  0  0  0
    4.5981   -6.2613    0.0000 C   0  0  0  0  0  0  0  0  0  0  0  0
   15.2666    8.1358    0.0000 C   0  0  1  0  0  0  0  0  0  0  0  0
    4.5981   -7.2613    0.0000 C   0  0  0  0  0  0  0  0  0  0  0  0
   13.0371    6.1285    0.0000 C   0  0  0  0  0  0  0  0  0  0  0  0
   15.0586    9.1140    0.0000 C   0  0  0  0  0  0  0  0  0  0  0  0
   14.7313    6.4886    0.0000 C   0  0  0  0  0  0  0  0  0  0  0  0
   15.8018    9.7831    0.0000 C   0  0  0  0  0  0  0  0  0  0  0  0
    3.7320   -7.7613    0.0000 C   0  0  0  0  0  0  0  0  0  0  0  0
    3.7320   -8.7613    0.0000 C   0  0  0  0  0  0  0  0  0  0  0  0
   16.2176    7.8268    0.0000 C   0  0  0  0  0  0  0  0  0  0  0  0
   12.8292    7.1066    0.0000 C   0  0  0  0  0  0  0  0  0  0  0  0
    2.8660   -9.2613    0.0000 C   0  0  0  0  0  0  0  0  0  0  0  0
   15.5939   10.7613    0.0000 C   0  0  0  0  0  0  0  0  0  0  0  0
   16.7528    9.4741    0.0000 C   0  0  0  0  0  0  0  0  0  0  0  0
    2.8660  -10.2613    0.0000 C   0  0  0  0  0  0  0  0  0  0  0  0
   11.8782    7.4156    0.0000 C   0  0  0  0  0  0  0  0  0  0  0  0
    2.0000  -10.7613    0.0000 C   0  0  0  0  0  0  0  0  0  0  0  0
    9.8342    0.2141    0.0000 H   0  0  0  0  0  0  0  0  0  0  0  0
   10.0347    1.9065    0.0000 H   0  0  0  0  0  0  0  0  0  0  0  0
    9.3634    2.3942    0.0000 H   0  0  0  0  0  0  0  0  0  0  0  0
    8.4930    2.3942    0.0000 H   0  0  0  0  0  0  0  0  0  0  0  0
    7.8218    1.9065    0.0000 H   0  0  0  0  0  0  0  0  0  0  0  0
    7.5528    1.0787    0.0000 H   0  0  0  0  0  0  0  0  0  0  0  0
    7.8092    0.2896    0.0000 H   0  0  0  0  0  0  0  0  0  0  0  0
   11.9217    0.4627    0.0000 H   0  0  0  0  0  0  0  0  0  0  0  0
   11.3025    1.7931    0.0000 H   0  0  0  0  0  0  0  0  0  0  0  0
   11.9708   -0.1222    0.0000 H   0  0  0  0  0  0  0  0  0  0  0  0
   12.5041   -0.7145    0.0000 H   0  0  0  0  0  0  0  0  0  0  0  0
    8.0252   -2.4373    0.0000 H   0  0  0  0  0  0  0  0  0  0  0  0
    8.8722   -2.6642    0.0000 H   0  0  0  0  0  0  0  0  0  0  0  0
    9.0991   -1.8173    0.0000 H   0  0  0  0  0  0  0  0  0  0  0  0
    8.0991   -0.0853    0.0000 H   0  0  0  0  0  0  0  0  0  0  0  0
    7.2522    0.1417    0.0000 H   0  0  0  0  0  0  0  0  0  0  0  0
    7.0252   -0.7052    0.0000 H   0  0  0  0  0  0  0  0  0  0  0  0
    6.6592   -1.4513    0.0000 H   0  0  0  0  0  0  0  0  0  0  0  0
   14.1311   -0.6011    0.0000 H   0  0  0  0  0  0  0  0  0  0  0  0
   13.7898    2.5876    0.0000 H   0  0  0  0  0  0  0  0  0  0  0  0
   12.3281    2.7165    0.0000 H   0  0  0  0  0  0  0  0  0  0  0  0
   14.4830    3.4914    0.0000 H   0  0  0  0  0  0  0  0  0  0  0  0
    6.1181   -2.6787    0.0000 H   0  0  0  0  0  0  0  0  0  0  0  0
    5.7196   -3.3689    0.0000 H   0  0  0  0  0  0  0  0  0  0  0  0
   13.1429   -1.5166    0.0000 H   0  0  0  0  0  0  0  0  0  0  0  0
   13.8783   -1.9942    0.0000 H   0  0  0  0  0  0  0  0  0  0  0  0
   14.3558   -1.2588    0.0000 H   0  0  0  0  0  0  0  0  0  0  0  0
   14.6995   -0.2012    0.0000 H   0  0  0  0  0  0  0  0  0  0  0  0
   14.7453    0.6744    0.0000 H   0  0  0  0  0  0  0  0  0  0  0  0
   13.8697    0.7203    0.0000 H   0  0  0  0  0  0  0  0  0  0  0  0
    6.5422   -4.8439    0.0000 H   0  0  0  0  0  0  0  0  0  0  0  0
    6.9407   -4.1536    0.0000 H   0  0  0  0  0  0  0  0  0  0  0  0
    5.2520   -4.1787    0.0000 H   0  0  0  0  0  0  0  0  0  0  0  0
    4.8535   -4.8689    0.0000 H   0  0  0  0  0  0  0  0  0  0  0  0
    5.6762   -6.3439    0.0000 H   0  0  0  0  0  0  0  0  0  0  0  0
    6.0747   -5.6536    0.0000 H   0  0  0  0  0  0  0  0  0  0  0  0
   14.5778    5.6278    0.0000 H   0  0  0  0  0  0  0  0  0  0  0  0
   15.7699    3.0934    0.0000 H   0  0  0  0  0  0  0  0  0  0  0  0
   15.8158    3.9690    0.0000 H   0  0  0  0  0  0  0  0  0  0  0  0
   14.9402    4.0149    0.0000 H   0  0  0  0  0  0  0  0  0  0  0  0
   14.2134    1.7780    0.0000 H   0  0  0  0  0  0  0  0  0  0  0  0
   14.9487    1.3004    0.0000 H   0  0  0  0  0  0  0  0  0  0  0  0
   15.4263    2.0358    0.0000 H   0  0  0  0  0  0  0  0  0  0  0  0
   14.7857    4.6497    0.0000 H   0  0  0  0  0  0  0  0  0  0  0  0
    4.3860   -5.6787    0.0000 H   0  0  0  0  0  0  0  0  0  0  0  0
    3.9875   -6.3689    0.0000 H   0  0  0  0  0  0  0  0  0  0  0  0
   15.3955    7.5294    0.0000 H   0  0  0  0  0  0  0  0  0  0  0  0
    4.8101   -7.8439    0.0000 H   0  0  0  0  0  0  0  0  0  0  0  0
    5.2087   -7.1536    0.0000 H   0  0  0  0  0  0  0  0  0  0  0  0
   12.4175    6.1068    0.0000 H   0  0  0  0  0  0  0  0  0  0  0  0
   12.9508    5.5145    0.0000 H   0  0  0  0  0  0  0  0  0  0  0  0
   14.7301    9.6398    0.0000 H   0  0  0  0  0  0  0  0  0  0  0  0
   14.4838    8.8817    0.0000 H   0  0  0  0  0  0  0  0  0  0  0  0
   15.9307    9.1767    0.0000 H   0  0  0  0  0  0  0  0  0  0  0  0
    3.5200   -7.1787    0.0000 H   0  0  0  0  0  0  0  0  0  0  0  0
    3.1215   -7.8689    0.0000 H   0  0  0  0  0  0  0  0  0  0  0  0
   13.9338    7.6583    0.0000 H   0  0  0  0  0  0  0  0  0  0  0  0
    3.9441   -9.3439    0.0000 H   0  0  0  0  0  0  0  0  0  0  0  0
    4.3426   -8.6536    0.0000 H   0  0  0  0  0  0  0  0  0  0  0  0
   15.9265    7.2794    0.0000 H   0  0  0  0  0  0  0  0  0  0  0  0
   16.7062    7.4451    0.0000 H   0  0  0  0  0  0  0  0  0  0  0  0
   13.4488    7.1282    0.0000 H   0  0  0  0  0  0  0  0  0  0  0  0
   12.9155    7.7206    0.0000 H   0  0  0  0  0  0  0  0  0  0  0  0
    2.6540   -8.6787    0.0000 H   0  0  0  0  0  0  0  0  0  0  0  0
    2.2554   -9.3689    0.0000 H   0  0  0  0  0  0  0  0  0  0  0  0
   16.2003   10.8902    0.0000 H   0  0  0  0  0  0  0  0  0  0  0  0
   15.4650   11.3677    0.0000 H   0  0  0  0  0  0  0  0  0  0  0  0
   14.9874   10.6324    0.0000 H   0  0  0  0  0  0  0  0  0  0  0  0
   16.5613    8.8845    0.0000 H   0  0  0  0  0  0  0  0  0  0  0  0
   17.3425    9.2825    0.0000 H   0  0  0  0  0  0  0  0  0  0  0  0
   16.9444   10.0638    0.0000 H   0  0  0  0  0  0  0  0  0  0  0  0
    3.0781  -10.8439    0.0000 H   0  0  0  0  0  0  0  0  0  0  0  0
    3.4766  -10.1536    0.0000 H   0  0  0  0  0  0  0  0  0  0  0  0
   17.5504    8.3044    0.0000 H   0  0  0  0  0  0  0  0  0  0  0  0
    1.6900  -10.2243    0.0000 H   0  0  0  0  0  0  0  0  0  0  0  0
    1.4631  -11.0713    0.0000 H   0  0  0  0  0  0  0  0  0  0  0  0
    2.3100  -11.2982    0.0000 H   0  0  0  0  0  0  0  0  0  0  0  0
   11.0806    8.5854    0.0000 H   0  0  0  0  0  0  0  0  0  0  0  0
   12.1310    8.8086    0.0000 H   0  0  0  0  0  0  0  0  0  0  0  0
  1 20  2  0  0  0  0
  2 22  2  0  0  0  0
  3 28  2  0  0  0  0
  4 29  2  0  0  0  0
  5 37  2  0  0  0  0
  6 47  2  0  0  0  0
  7 51  1  0  0  0  0
  7132  1  0  0  0  0
  8 57  2  0  0  0  0
  9 16  1  0  0  0  0
  9 19  1  0  0  0  0
  9 20  1  0  0  0  0
 10 22  1  0  0  0  0
 23 10  1  6  0  0  0
 10 67  1  0  0  0  0
 11 21  1  0  0  0  0
 11 29  1  0  0  0  0
 11 76  1  0  0  0  0
 12 28  1  0  0  0  0
 30 12  1  6  0  0  0
 12 79  1  0  0  0  0
 13 37  1  0  0  0  0
 39 13  1  1  0  0  0
 13102  1  0  0  0  0
 43 14  1  1  0  0  0
 14 47  1  0  0  0  0
 14115  1  0  0  0  0
 15 57  1  0  0  0  0
 15136  1  0  0  0  0
 15137  1  0  0  0  0
 16 17  1  0  0  0  0
 16 22  1  0  0  0  0
 16 59  1  0  0  0  0
 17 18  1  0  0  0  0
 17 60  1  0  0  0  0
 17 61  1  0  0  0  0
 18 19  1  0  0  0  0
 18 62  1  0  0  0  0
 18 63  1  0  0  0  0
 19 64  1  0  0  0  0
 19 65  1  0  0  0  0
 20 21  1  0  0  0  0
 21 25  1  0  0  0  0
 21 26  1  0  0  0  0
 23 24  1  0  0  0  0
 23 28  1  0  0  0  0
 23 66  1  0  0  0  0
 24 27  1  0  0  0  0
 24 68  1  0  0  0  0
 24 69  1  0  0  0  0
 25 70  1  0  0  0  0
 25 71  1  0  0  0  0
 25 72  1  0  0  0  0
 26 73  1  0  0  0  0
 26 74  1  0  0  0  0
 26 75  1  0  0  0  0
 27 33  1  0  0  0  0
 27 34  1  0  0  0  0
 27 77  1  0  0  0  0
 29 32  1  0  0  0  0
 30 31  1  0  0  0  0
 30 37  1  0  0  0  0
 30 78  1  0  0  0  0
 31 40  1  0  0  0  0
 31 41  1  0  0  0  0
 31 80  1  0  0  0  0
 32 35  1  0  0  0  0
 32 81  1  0  0  0  0
 32 82  1  0  0  0  0
 33 83  1  0  0  0  0
 33 84  1  0  0  0  0
 33 85  1  0  0  0  0
 34 86  1  0  0  0  0
 34 87  1  0  0  0  0
 34 88  1  0  0  0  0
 35 36  1  0  0  0  0
 35 89  1  0  0  0  0
 35 90  1  0  0  0  0
 36 38  1  0  0  0  0
 36 91  1  0  0  0  0
 36 92  1  0  0  0  0
 38 42  1  0  0  0  0
 38 93  1  0  0  0  0
 38 94  1  0  0  0  0
 39 45  1  0  0  0  0
 39 47  1  0  0  0  0
 39 95  1  0  0  0  0
 40 96  1  0  0  0  0
 40 97  1  0  0  0  0
 40 98  1  0  0  0  0
 41 99  1  0  0  0  0
 41100  1  0  0  0  0
 41101  1  0  0  0  0
 42 44  1  0  0  0  0
 42103  1  0  0  0  0
 42104  1  0  0  0  0
 43 46  1  0  0  0  0
 43 51  1  0  0  0  0
 43105  1  0  0  0  0
 44 49  1  0  0  0  0
 44106  1  0  0  0  0
 44107  1  0  0  0  0
 45 52  1  0  0  0  0
 45108  1  0  0  0  0
 45109  1  0  0  0  0
 46 48  1  0  0  0  0
 46110  1  0  0  0  0
 46111  1  0  0  0  0
 48 54  1  0  0  0  0
 48 55  1  0  0  0  0
 48112  1  0  0  0  0
 49 50  1  0  0  0  0
 49113  1  0  0  0  0
 49114  1  0  0  0  0
 50 53  1  0  0  0  0
 50116  1  0  0  0  0
 50117  1  0  0  0  0
 51118  1  0  0  0  0
 51119  1  0  0  0  0
 52 57  1  0  0  0  0
 52120  1  0  0  0  0
 52121  1  0  0  0  0
 53 56  1  0  0  0  0
 53122  1  0  0  0  0
 53123  1  0  0  0  0
 54124  1  0  0  0  0
 54125  1  0  0  0  0
 54126  1  0  0  0  0
 55127  1  0  0  0  0
 55128  1  0  0  0  0
 55129  1  0  0  0  0
 56 58  1  0  0  0  0
 56130  1  0  0  0  0
 56131  1  0  0  0  0
 58133  1  0  0  0  0
 58134  1  0  0  0  0
 58135  1  0  0  0  0
M  END
> <PUBCHEM_COMPOUND_CID>
511578
> <PUBCHEM_COMPOUND_CANONICALIZED>
1
> <PUBCHEM_CACTVS_COMPLEXITY>
1320
> <PUBCHEM_CACTVS_HBOND_ACCEPTOR>
8
> <PUBCHEM_CACTVS_HBOND_DONOR>
7
> <PUBCHEM_CACTVS_ROTATABLE_BOND>
29
> <PUBCHEM_CACTVS_SUBSKEYS>
AAADcfB/vAAAAAAAAAAAAAAAAAAAAWAAAAAAAAAAAAAAAAAAAAAAHgAQCAAADajhgAYCAAPAAgAIAAEQEAAAAAAAAAAAAIGIAAACUBIAgCAUQAAEFgCQAAGci4CMAAAAAAAAAAAAAAAAAAAAAAAAAAAAAA==
> <PUBCHEM_IUPAC_OPENEYE_NAME>
(2S)-2-[[(2S)-2-[[(2S)-2-[[1-[2-(dodecanoylamino)-2-methyl-propanoyl]pyrrolidine-2-carbonyl]amino]-4-methyl-pentanoyl]amino]-3-methyl-butanoyl]amino]-N-[(1S)-1-(hydroxymethyl)-3-methyl-butyl]pentanediamide
> <PUBCHEM_IUPAC_CAS_NAME>
(2S)-N-[(2S)-1-hydroxy-4-methylpentan-2-yl]-2-[[(2S)-3-methyl-2-[[(2S)-4-methyl-2-[[[1-[2-methyl-1-oxo-2-(1-oxododecylamino)propyl]-2-pyrrolidinyl]-oxomethyl]amino]-1-oxopentyl]amino]-1-oxobutyl]amino]pentanediamide
> <PUBCHEM_IUPAC_NAME_MARKUP>
(2<I>S</I>)-2-[[(2<I>S</I>)-2-[[(2<I>S</I>)-2-[[1-[2-(dodecanoylamino)-2-methylpropanoyl]pyrrolidine-2-carbonyl]amino]-4-methylpentanoyl]amino]-3-methylbutanoyl]amino]-<I>N</I>-[(2<I>S</I>)-1-hydroxy-4-methylpentan-2-yl]pentanediamide
> <PUBCHEM_IUPAC_NAME>
(2S)-2-[[(2S)-2-[[(2S)-2-[[1-[2-(dodecanoylamino)-2-methylpropanoyl]pyrrolidine-2-carbonyl]amino]-4-methylpentanoyl]amino]-3-methylbutanoyl]amino]-N-[(2S)-1-hydroxy-4-methylpentan-2-yl]pentanediamide
> <PUBCHEM_IUPAC_SYSTEMATIC_NAME>
(2S)-2-[[(2S)-2-[[(2S)-2-[[1-[2-(dodecanoylamino)-2-methyl-propanoyl]pyrrolidin-2-yl]carbonylamino]-4-methyl-pentanoyl]amino]-3-methyl-butanoyl]amino]-N-[(2S)-4-methyl-1-oxidanyl-pentan-2-yl]pentanediamide
> <PUBCHEM_IUPAC_TRADITIONAL_NAME>
(2S)-2-[[(2S)-2-[[(2S)-2-[[1-[2-(lauroylamino)-2-methyl-propanoyl]prolyl]amino]-4-methyl-pentanoyl]amino]-3-methyl-butanoyl]amino]-N-[(1S)-3-methyl-1-methylol-butyl]glutaramide
> <PUBCHEM_IUPAC_INCHI>
InChI=1S/C43H79N7O8/c1-10-11-12-13-14-15-16-17-18-21-36(53)49-43(8,9)42(58)50-24-19-20-34(50)40(56)47-33(26-29(4)5)39(55)48-37(30(6)7)41(57)46-32(22-23-35(44)52)38(54)45-31(27-51)25-28(2)3/h28-34,37,51H,10-27H2,1-9H3,(H2,44,52)(H,45,54)(H,46,57)(H,47,56)(H,48,55)(H,49,53)/t31-,32-,33-,34?,37-/m0/s1
> <PUBCHEM_IUPAC_INCHIKEY>
VIMHZRMCYGNNPY-UTSRMWQRSA-N
> <PUBCHEM_XLOGP3_AA>
6.1
> <PUBCHEM_EXACT_MASS>
821.59901250
> <PUBCHEM_MOLECULAR_FORMULA>
C43H79N7O8
> <PUBCHEM_MOLECULAR_WEIGHT>
822.1
> <PUBCHEM_OPENEYE_CAN_SMILES>
CCCCCCCCCCCC(=O)NC(C)(C)C(=O)N1CCCC1C(=O)NC(CC(C)C)C(=O)NC(C(C)C)C(=O)NC(CCC(=O)N)C(=O)NC(CC(C)C)CO
> <PUBCHEM_OPENEYE_ISO_SMILES>
CCCCCCCCCCCC(=O)NC(C)(C)C(=O)N1CCCC1C(=O)N[C@@H](CC(C)C)C(=O)N[C@@H](C(C)C)C(=O)N[C@@H](CCC(=O)N)C(=O)N[C@@H](CC(C)C)CO
> <PUBCHEM_CACTVS_TPSA>
229
> <PUBCHEM_MONOISOTOPIC_WEIGHT>
821.59901250
> <PUBCHEM_TOTAL_CHARGE>
0
> <PUBCHEM_HEAVY_ATOM_COUNT>
58
> <PUBCHEM_ATOM_DEF_STEREO_COUNT>
4
> <PUBCHEM_ATOM_UDEF_STEREO_COUNT>
1
> <PUBCHEM_BOND_DEF_STEREO_COUNT>
0
> <PUBCHEM_BOND_UDEF_STEREO_COUNT>
0
> <PUBCHEM_ISOTOPIC_ATOM_COUNT>
0
> <PUBCHEM_COMPONENT_COUNT>
1
> <PUBCHEM_CACTVS_TAUTO_COUNT>
-1
> <PUBCHEM_COORDINATE_TYPE>
1
5
255
> <PUBCHEM_BONDANNOTATIONS>
23  10  6
30  12  6
39  13  5
43  14  5
16  22  3
$$$$
