511563
  -OEChem-10302200282D
 45 47  0     1  0  0  0  0  0999 V2000
    7.5673   -2.5079    0.0000 S   0  0  0  0  0  0  0  0  0  0  0  0
    5.9209   -3.0460    0.0000 F   0  0  0  0  0  0  0  0  0  0  0  0
    5.9674   -0.4006    0.0000 O   0  0  0  0  0  0  0  0  0  0  0  0
    4.6783    0.7561    0.0000 N   0  0  0  0  0  0  0  0  0  0  0  0
    4.6783    2.3656    0.0000 N   0  0  0  0  0  0  0  0  0  0  0  0
    2.8660    0.5608    0.0000 N   0  0  0  0  0  0  0  0  0  0  0  0
    2.0000    2.0608    0.0000 N   0  0  0  0  0  0  0  0  0  0  0  0
    2.8660    3.5608    0.0000 N   0  0  0  0  0  0  0  0  0  0  0  0
    6.2781   -1.3512    0.0000 C   0  0  1  0  0  0  0  0  0  0  0  0
    5.6103   -2.0954    0.0000 C   0  0  1  0  0  0  0  0  0  0  0  0
    7.2566   -1.5574    0.0000 C   0  0  0  0  0  0  0  0  0  0  0  0
    4.9889   -0.1944    0.0000 C   0  0  0  0  0  0  0  0  0  0  0  0
    4.6318   -1.8892    0.0000 C   0  0  0  0  0  0  0  0  0  0  0  0
    3.7320    1.0608    0.0000 C   0  0  0  0  0  0  0  0  0  0  0  0
    3.7320    2.0608    0.0000 C   0  0  0  0  0  0  0  0  0  0  0  0
    5.2619    1.5608    0.0000 C   0  0  0  0  0  0  0  0  0  0  0  0
    8.5458   -2.7141    0.0000 C   0  0  0  0  0  0  0  0  0  0  0  0
    2.8660    2.5608    0.0000 C   0  0  0  0  0  0  0  0  0  0  0  0
    8.8564   -3.6646    0.0000 C   0  0  0  0  0  0  0  0  0  0  0  0
    9.2136   -1.9698    0.0000 C   0  0  0  0  0  0  0  0  0  0  0  0
   10.5028   -3.1265    0.0000 C   0  0  0  0  0  0  0  0  0  0  0  0
    9.8349   -3.8708    0.0000 C   0  0  0  0  0  0  0  0  0  0  0  0
   10.1921   -2.1760    0.0000 C   0  0  0  0  0  0  0  0  0  0  0  0
    2.0000    1.0608    0.0000 C   0  0  0  0  0  0  0  0  0  0  0  0
   11.4813   -3.3328    0.0000 C   0  0  0  0  0  0  0  0  0  0  0  0
    5.6714   -1.2233    0.0000 H   0  0  0  0  0  0  0  0  0  0  0  0
    6.2169   -2.2233    0.0000 H   0  0  0  0  0  0  0  0  0  0  0  0
    7.8704   -1.4700    0.0000 H   0  0  0  0  0  0  0  0  0  0  0  0
    7.2772   -0.9377    0.0000 H   0  0  0  0  0  0  0  0  0  0  0  0
    4.3751   -0.2818    0.0000 H   0  0  0  0  0  0  0  0  0  0  0  0
    4.9684   -0.8141    0.0000 H   0  0  0  0  0  0  0  0  0  0  0  0
    4.7596   -1.2826    0.0000 H   0  0  0  0  0  0  0  0  0  0  0  0
    4.0251   -1.7614    0.0000 H   0  0  0  0  0  0  0  0  0  0  0  0
    4.5039   -2.4959    0.0000 H   0  0  0  0  0  0  0  0  0  0  0  0
    5.8819    1.5608    0.0000 H   0  0  0  0  0  0  0  0  0  0  0  0
    8.4424   -4.1261    0.0000 H   0  0  0  0  0  0  0  0  0  0  0  0
    9.0210   -1.3805    0.0000 H   0  0  0  0  0  0  0  0  0  0  0  0
   10.0276   -4.4602    0.0000 H   0  0  0  0  0  0  0  0  0  0  0  0
   10.6062   -1.7146    0.0000 H   0  0  0  0  0  0  0  0  0  0  0  0
    1.4631    0.7508    0.0000 H   0  0  0  0  0  0  0  0  0  0  0  0
    2.3291    3.8708    0.0000 H   0  0  0  0  0  0  0  0  0  0  0  0
    3.4030    3.8708    0.0000 H   0  0  0  0  0  0  0  0  0  0  0  0
   11.3534   -3.9394    0.0000 H   0  0  0  0  0  0  0  0  0  0  0  0
   12.0880   -3.4606    0.0000 H   0  0  0  0  0  0  0  0  0  0  0  0
   11.6091   -2.7261    0.0000 H   0  0  0  0  0  0  0  0  0  0  0  0
  1 11  1  0  0  0  0
  1 17  1  0  0  0  0
 10  2  1  6  0  0  0
  9  3  1  6  0  0  0
  3 12  1  0  0  0  0
  4 12  1  0  0  0  0
  4 14  1  0  0  0  0
  4 16  1  0  0  0  0
  5 15  1  0  0  0  0
  5 16  2  0  0  0  0
  6 14  2  0  0  0  0
  6 24  1  0  0  0  0
  7 18  1  0  0  0  0
  7 24  2  0  0  0  0
  8 18  1  0  0  0  0
  8 41  1  0  0  0  0
  8 42  1  0  0  0  0
  9 10  1  0  0  0  0
  9 11  1  0  0  0  0
  9 26  1  0  0  0  0
 10 13  1  0  0  0  0
 10 27  1  0  0  0  0
 11 28  1  0  0  0  0
 11 29  1  0  0  0  0
 12 30  1  0  0  0  0
 12 31  1  0  0  0  0
 13 32  1  0  0  0  0
 13 33  1  0  0  0  0
 13 34  1  0  0  0  0
 14 15  1  0  0  0  0
 15 18  2  0  0  0  0
 16 35  1  0  0  0  0
 17 19  2  0  0  0  0
 17 20  1  0  0  0  0
 19 22  1  0  0  0  0
 19 36  1  0  0  0  0
 20 23  2  0  0  0  0
 20 37  1  0  0  0  0
 21 22  2  0  0  0  0
 21 23  1  0  0  0  0
 21 25  1  0  0  0  0
 22 38  1  0  0  0  0
 23 39  1  0  0  0  0
 24 40  1  0  0  0  0
 25 43  1  0  0  0  0
 25 44  1  0  0  0  0
 25 45  1  0  0  0  0
M  END
> <PUBCHEM_COMPOUND_CID>
511563
> <PUBCHEM_COMPOUND_CANONICALIZED>
1
> <PUBCHEM_CACTVS_COMPLEXITY>
413
> <PUBCHEM_CACTVS_HBOND_ACCEPTOR>
7
> <PUBCHEM_CACTVS_HBOND_DONOR>
1
> <PUBCHEM_CACTVS_ROTATABLE_BOND>
7
> <PUBCHEM_CACTVS_SUBSKEYS>
AAADceB7oQBAAAAAAAAAAAAAAAAAAWAAAAA8QAAAAAAAAFgB/AAAHwQQAAAADByl3wa38b9MFAigAyZjZACCgC0xGLAJ2DgoVJiIaCLgWVCcJAgogAJoiCcAgAAOEAAAAAAAAAAgAAAAAAAAAAAAAAAAAA==
> <PUBCHEM_IUPAC_OPENEYE_NAME>
9-[[(1S,2R)-2-fluoro-1-(p-tolylsulfanylmethyl)propoxy]methyl]purin-6-amine
> <PUBCHEM_IUPAC_CAS_NAME>
9-[[(2S,3R)-3-fluoro-1-[(4-methylphenyl)thio]butan-2-yl]oxymethyl]-6-purinamine
> <PUBCHEM_IUPAC_NAME_MARKUP>
9-[[(2<I>S</I>,3<I>R</I>)-3-fluoro-1-(4-methylphenyl)sulfanylbutan-2-yl]oxymethyl]purin-6-amine
> <PUBCHEM_IUPAC_NAME>
9-[[(2S,3R)-3-fluoro-1-(4-methylphenyl)sulfanylbutan-2-yl]oxymethyl]purin-6-amine
> <PUBCHEM_IUPAC_SYSTEMATIC_NAME>
9-[[(2S,3R)-3-fluoranyl-1-(4-methylphenyl)sulfanyl-butan-2-yl]oxymethyl]purin-6-amine
> <PUBCHEM_IUPAC_TRADITIONAL_NAME>
[9-[[(1S,2R)-2-fluoro-1-[(p-tolylthio)methyl]propoxy]methyl]purin-6-yl]amine
> <PUBCHEM_IUPAC_INCHI>
InChI=1S/C17H20FN5OS/c1-11-3-5-13(6-4-11)25-7-14(12(2)18)24-10-23-9-22-15-16(19)20-8-21-17(15)23/h3-6,8-9,12,14H,7,10H2,1-2H3,(H2,19,20,21)/t12-,14-/m1/s1
> <PUBCHEM_IUPAC_INCHIKEY>
RKNPTNALCDEBCL-TZMCWYRMSA-N
> <PUBCHEM_XLOGP3>
3.2
> <PUBCHEM_EXACT_MASS>
361.13725961
> <PUBCHEM_MOLECULAR_FORMULA>
C17H20FN5OS
> <PUBCHEM_MOLECULAR_WEIGHT>
361.4
> <PUBCHEM_OPENEYE_CAN_SMILES>
CC1=CC=C(C=C1)SCC(C(C)F)OCN2C=NC3=C(N=CN=C32)N
> <PUBCHEM_OPENEYE_ISO_SMILES>
CC1=CC=C(C=C1)SC[C@H]([C@@H](C)F)OCN2C=NC3=C(N=CN=C32)N
> <PUBCHEM_CACTVS_TPSA>
104
> <PUBCHEM_MONOISOTOPIC_WEIGHT>
361.13725961
> <PUBCHEM_TOTAL_CHARGE>
0
> <PUBCHEM_HEAVY_ATOM_COUNT>
25
> <PUBCHEM_ATOM_DEF_STEREO_COUNT>
2
> <PUBCHEM_ATOM_UDEF_STEREO_COUNT>
0
> <PUBCHEM_BOND_DEF_STEREO_COUNT>
0
> <PUBCHEM_BOND_UDEF_STEREO_COUNT>
0
> <PUBCHEM_ISOTOPIC_ATOM_COUNT>
0
> <PUBCHEM_COMPONENT_COUNT>
1
> <PUBCHEM_CACTVS_TAUTO_COUNT>
-1
> <PUBCHEM_COORDINATE_TYPE>
1
5
255
> <PUBCHEM_BONDANNOTATIONS>
14  15  8
15  18  8
17  19  8
17  20  8
19  22  8
10  2  6
20  23  8
21  22  8
21  23  8
9  3  6
4  14  8
4  16  8
5  15  8
5  16  8
6  14  8
6  24  8
7  18  8
7  24  8
$$$$
