511587
  -OEChem-10302200282D
 34 36  0     1  0  0  0  0  0999 V2000
    2.6443    4.0789    0.0000 Cl  0  0  0  0  0  0  0  0  0  0  0  0
    2.9230    2.3189    0.0000 S   0  0  0  0  0  0  0  0  0  0  0  0
    4.5981    0.2311    0.0000 N   0  0  0  0  0  0  0  0  0  0  0  0
    5.6808   -0.9714    0.0000 N   0  0  0  0  0  0  0  0  0  0  0  0
    2.8660   -3.7689    0.0000 N   0  0  0  0  0  0  0  0  0  0  0  0
    3.7320    0.7311    0.0000 C   0  0  3  0  0  0  0  0  0  0  0  0
    2.8660    0.2311    0.0000 C   0  0  0  0  0  0  0  0  0  0  0  0
    3.7320    1.7311    0.0000 C   0  0  0  0  0  0  0  0  0  0  0  0
    2.8660   -0.7689    0.0000 C   0  0  0  0  0  0  0  0  0  0  0  0
    5.5116    0.6378    0.0000 C   0  0  0  0  0  0  0  0  0  0  0  0
    4.5411    2.3189    0.0000 C   0  0  0  0  0  0  0  0  0  0  0  0
    4.7026   -0.7635    0.0000 C   0  0  0  0  0  0  0  0  0  0  0  0
    3.7320   -1.2689    0.0000 C   0  0  0  0  0  0  0  0  0  0  0  0
    2.0000   -1.2689    0.0000 C   0  0  0  0  0  0  0  0  0  0  0  0
    4.2320    3.2699    0.0000 C   0  0  0  0  0  0  0  0  0  0  0  0
    6.1808   -0.1053    0.0000 C   0  0  0  0  0  0  0  0  0  0  0  0
    3.7320   -2.2689    0.0000 C   0  0  0  0  0  0  0  0  0  0  0  0
    2.0000   -2.2689    0.0000 C   0  0  0  0  0  0  0  0  0  0  0  0
    3.2320    3.2699    0.0000 C   0  0  0  0  0  0  0  0  0  0  0  0
    2.8660   -2.7689    0.0000 C   0  0  0  0  0  0  0  0  0  0  0  0
    3.7320    0.1111    0.0000 H   0  0  0  0  0  0  0  0  0  0  0  0
    2.6540    0.8137    0.0000 H   0  0  0  0  0  0  0  0  0  0  0  0
    2.2554    0.1234    0.0000 H   0  0  0  0  0  0  0  0  0  0  0  0
    5.6405    1.2443    0.0000 H   0  0  0  0  0  0  0  0  0  0  0  0
    5.1307    2.1273    0.0000 H   0  0  0  0  0  0  0  0  0  0  0  0
    4.2419   -1.1783    0.0000 H   0  0  0  0  0  0  0  0  0  0  0  0
    4.2690   -0.9589    0.0000 H   0  0  0  0  0  0  0  0  0  0  0  0
    1.4631   -0.9589    0.0000 H   0  0  0  0  0  0  0  0  0  0  0  0
    4.5965    3.7715    0.0000 H   0  0  0  0  0  0  0  0  0  0  0  0
    6.7974   -0.0405    0.0000 H   0  0  0  0  0  0  0  0  0  0  0  0
    4.2690   -2.5789    0.0000 H   0  0  0  0  0  0  0  0  0  0  0  0
    1.4631   -2.5789    0.0000 H   0  0  0  0  0  0  0  0  0  0  0  0
    2.3291   -4.0789    0.0000 H   0  0  0  0  0  0  0  0  0  0  0  0
    3.4030   -4.0789    0.0000 H   0  0  0  0  0  0  0  0  0  0  0  0
  1 19  1  0  0  0  0
  2  8  1  0  0  0  0
  2 19  1  0  0  0  0
  3  6  1  0  0  0  0
  3 10  1  0  0  0  0
  3 12  1  0  0  0  0
  4 12  2  0  0  0  0
  4 16  1  0  0  0  0
  5 20  1  0  0  0  0
  5 33  1  0  0  0  0
  5 34  1  0  0  0  0
  6  7  1  0  0  0  0
  6  8  1  0  0  0  0
  6 21  1  0  0  0  0
  7  9  1  0  0  0  0
  7 22  1  0  0  0  0
  7 23  1  0  0  0  0
  8 11  2  0  0  0  0
  9 13  2  0  0  0  0
  9 14  1  0  0  0  0
 10 16  2  0  0  0  0
 10 24  1  0  0  0  0
 11 15  1  0  0  0  0
 11 25  1  0  0  0  0
 12 26  1  0  0  0  0
 13 17  1  0  0  0  0
 13 27  1  0  0  0  0
 14 18  2  0  0  0  0
 14 28  1  0  0  0  0
 15 19  2  0  0  0  0
 15 29  1  0  0  0  0
 16 30  1  0  0  0  0
 17 20  2  0  0  0  0
 17 31  1  0  0  0  0
 18 20  1  0  0  0  0
 18 32  1  0  0  0  0
M  END
> <PUBCHEM_COMPOUND_CID>
511587
> <PUBCHEM_COMPOUND_CANONICALIZED>
1
> <PUBCHEM_CACTVS_COMPLEXITY>
310
> <PUBCHEM_CACTVS_HBOND_ACCEPTOR>
3
> <PUBCHEM_CACTVS_HBOND_DONOR>
1
> <PUBCHEM_CACTVS_ROTATABLE_BOND>
4
> <PUBCHEM_CACTVS_SUBSKEYS>
AAADccBzAABEAAAAAAAAAAAAAAAAAWJAAAAwAAAAAAAAAAAB8AAAHAYQAAAADCrBWiQ90ZdMEAikAjRnZACDgK0xH7BJyBgYdoiIaCKhm5GUIAhokAKoyCcQgMAOCAAAAAAAAAAQAAAAAAAAAAAAAAAAAA==
> <PUBCHEM_IUPAC_OPENEYE_NAME>
4-[2-(5-chloro-2-thienyl)-2-imidazol-1-yl-ethyl]aniline
> <PUBCHEM_IUPAC_CAS_NAME>
4-[2-(5-chloro-2-thiophenyl)-2-(1-imidazolyl)ethyl]aniline
> <PUBCHEM_IUPAC_NAME_MARKUP>
4-[2-(5-chlorothiophen-2-yl)-2-imidazol-1-ylethyl]aniline
> <PUBCHEM_IUPAC_NAME>
4-[2-(5-chlorothiophen-2-yl)-2-imidazol-1-ylethyl]aniline
> <PUBCHEM_IUPAC_SYSTEMATIC_NAME>
4-[2-(5-chloranylthiophen-2-yl)-2-imidazol-1-yl-ethyl]aniline
> <PUBCHEM_IUPAC_TRADITIONAL_NAME>
[4-[2-(5-chloro-2-thienyl)-2-imidazol-1-yl-ethyl]phenyl]amine
> <PUBCHEM_IUPAC_INCHI>
InChI=1S/C15H14ClN3S/c16-15-6-5-14(20-15)13(19-8-7-18-10-19)9-11-1-3-12(17)4-2-11/h1-8,10,13H,9,17H2
> <PUBCHEM_IUPAC_INCHIKEY>
GOZLXXYZXBSDNH-UHFFFAOYSA-N
> <PUBCHEM_XLOGP3_AA>
3.6
> <PUBCHEM_EXACT_MASS>
303.0596963
> <PUBCHEM_MOLECULAR_FORMULA>
C15H14ClN3S
> <PUBCHEM_MOLECULAR_WEIGHT>
303.8
> <PUBCHEM_OPENEYE_CAN_SMILES>
C1=CC(=CC=C1CC(C2=CC=C(S2)Cl)N3C=CN=C3)N
> <PUBCHEM_OPENEYE_ISO_SMILES>
C1=CC(=CC=C1CC(C2=CC=C(S2)Cl)N3C=CN=C3)N
> <PUBCHEM_CACTVS_TPSA>
72.1
> <PUBCHEM_MONOISOTOPIC_WEIGHT>
303.0596963
> <PUBCHEM_TOTAL_CHARGE>
0
> <PUBCHEM_HEAVY_ATOM_COUNT>
20
> <PUBCHEM_ATOM_DEF_STEREO_COUNT>
0
> <PUBCHEM_ATOM_UDEF_STEREO_COUNT>
1
> <PUBCHEM_BOND_DEF_STEREO_COUNT>
0
> <PUBCHEM_BOND_UDEF_STEREO_COUNT>
0
> <PUBCHEM_ISOTOPIC_ATOM_COUNT>
0
> <PUBCHEM_COMPONENT_COUNT>
1
> <PUBCHEM_CACTVS_TAUTO_COUNT>
-1
> <PUBCHEM_COORDINATE_TYPE>
1
5
255
> <PUBCHEM_BONDANNOTATIONS>
10  16  8
11  15  8
13  17  8
14  18  8
15  19  8
17  20  8
18  20  8
2  19  8
2  8  8
3  10  8
3  12  8
4  12  8
4  16  8
6  7  3
8  11  8
9  13  8
9  14  8
$$$$
