511598
  -OEChem-10302200282D
 38 40  0     1  0  0  0  0  0999 V2000
    2.0000   -4.1739    0.0000 O   0  5  0  0  0  0  0  0  0  0  0  0
    3.7320   -4.1739    0.0000 O   0  0  0  0  0  0  0  0  0  0  0  0
    4.5981    0.3261    0.0000 N   0  0  0  0  0  0  0  0  0  0  0  0
    4.2320    3.3649    0.0000 N   0  0  0  0  0  0  0  0  0  0  0  0
    5.6808   -0.8764    0.0000 N   0  0  0  0  0  0  0  0  0  0  0  0
    2.8660   -3.6739    0.0000 N   0  3  0  0  0  0  0  0  0  0  0  0
    3.7320    0.8261    0.0000 C   0  0  3  0  0  0  0  0  0  0  0  0
    2.8660    0.3261    0.0000 C   0  0  0  0  0  0  0  0  0  0  0  0
    3.7320    1.8261    0.0000 C   0  0  0  0  0  0  0  0  0  0  0  0
    2.8660   -0.6739    0.0000 C   0  0  0  0  0  0  0  0  0  0  0  0
    4.5411    2.4139    0.0000 C   0  0  0  0  0  0  0  0  0  0  0  0
    2.9230    2.4139    0.0000 C   0  0  0  0  0  0  0  0  0  0  0  0
    3.2320    3.3649    0.0000 C   0  0  0  0  0  0  0  0  0  0  0  0
    5.5116    0.7328    0.0000 C   0  0  0  0  0  0  0  0  0  0  0  0
    4.7026   -0.6685    0.0000 C   0  0  0  0  0  0  0  0  0  0  0  0
    3.7320   -1.1739    0.0000 C   0  0  0  0  0  0  0  0  0  0  0  0
    2.0000   -1.1739    0.0000 C   0  0  0  0  0  0  0  0  0  0  0  0
    4.8198    4.1739    0.0000 C   0  0  0  0  0  0  0  0  0  0  0  0
    6.1808   -0.0103    0.0000 C   0  0  0  0  0  0  0  0  0  0  0  0
    3.7320   -2.1739    0.0000 C   0  0  0  0  0  0  0  0  0  0  0  0
    2.0000   -2.1739    0.0000 C   0  0  0  0  0  0  0  0  0  0  0  0
    2.8660   -2.6739    0.0000 C   0  0  0  0  0  0  0  0  0  0  0  0
    3.7320    0.2061    0.0000 H   0  0  0  0  0  0  0  0  0  0  0  0
    2.6540    0.9087    0.0000 H   0  0  0  0  0  0  0  0  0  0  0  0
    2.2554    0.2184    0.0000 H   0  0  0  0  0  0  0  0  0  0  0  0
    5.1307    2.2223    0.0000 H   0  0  0  0  0  0  0  0  0  0  0  0
    2.3334    2.2223    0.0000 H   0  0  0  0  0  0  0  0  0  0  0  0
    2.8676    3.8665    0.0000 H   0  0  0  0  0  0  0  0  0  0  0  0
    5.6405    1.3393    0.0000 H   0  0  0  0  0  0  0  0  0  0  0  0
    4.2419   -1.0833    0.0000 H   0  0  0  0  0  0  0  0  0  0  0  0
    4.2690   -0.8639    0.0000 H   0  0  0  0  0  0  0  0  0  0  0  0
    1.4631   -0.8639    0.0000 H   0  0  0  0  0  0  0  0  0  0  0  0
    5.3214    3.8095    0.0000 H   0  0  0  0  0  0  0  0  0  0  0  0
    5.1843    4.6755    0.0000 H   0  0  0  0  0  0  0  0  0  0  0  0
    4.3182    4.5384    0.0000 H   0  0  0  0  0  0  0  0  0  0  0  0
    6.7974    0.0545    0.0000 H   0  0  0  0  0  0  0  0  0  0  0  0
    4.2690   -2.4839    0.0000 H   0  0  0  0  0  0  0  0  0  0  0  0
    1.4631   -2.4839    0.0000 H   0  0  0  0  0  0  0  0  0  0  0  0
  1  6  1  0  0  0  0
  2  6  2  0  0  0  0
  3  7  1  0  0  0  0
  3 14  1  0  0  0  0
  3 15  1  0  0  0  0
  4 11  1  0  0  0  0
  4 13  1  0  0  0  0
  4 18  1  0  0  0  0
  5 15  2  0  0  0  0
  5 19  1  0  0  0  0
  6 22  1  0  0  0  0
  7  8  1  0  0  0  0
  7  9  1  0  0  0  0
  7 23  1  0  0  0  0
  8 10  1  0  0  0  0
  8 24  1  0  0  0  0
  8 25  1  0  0  0  0
  9 11  2  0  0  0  0
  9 12  1  0  0  0  0
 10 16  2  0  0  0  0
 10 17  1  0  0  0  0
 11 26  1  0  0  0  0
 12 13  2  0  0  0  0
 12 27  1  0  0  0  0
 13 28  1  0  0  0  0
 14 19  2  0  0  0  0
 14 29  1  0  0  0  0
 15 30  1  0  0  0  0
 16 20  1  0  0  0  0
 16 31  1  0  0  0  0
 17 21  2  0  0  0  0
 17 32  1  0  0  0  0
 18 33  1  0  0  0  0
 18 34  1  0  0  0  0
 18 35  1  0  0  0  0
 19 36  1  0  0  0  0
 20 22  2  0  0  0  0
 20 37  1  0  0  0  0
 21 22  1  0  0  0  0
 21 38  1  0  0  0  0
M  CHG  2   1  -1   6   1
M  END
> <PUBCHEM_COMPOUND_CID>
511598
> <PUBCHEM_COMPOUND_CANONICALIZED>
1
> <PUBCHEM_CACTVS_COMPLEXITY>
379
> <PUBCHEM_CACTVS_HBOND_ACCEPTOR>
3
> <PUBCHEM_CACTVS_HBOND_DONOR>
0
> <PUBCHEM_CACTVS_ROTATABLE_BOND>
4
> <PUBCHEM_CACTVS_SUBSKEYS>
AAADceB7sAAAAAAAAAAAAAAAAAAAAWLAAAAwAAAAAAAAAAAB8AAAHAAEAAAADCjBGgQ/0JccUAChAjRnZwCCgC0xEqAp2CA4dJqIaOLA2ZGUIAhogALIyCcQgMAOCAAAAAAAAAAQAAAAAAAAAAAAAAAAAA==
> <PUBCHEM_IUPAC_OPENEYE_NAME>
1-[1-(1-methylpyrrol-3-yl)-2-(4-nitrophenyl)ethyl]imidazole
> <PUBCHEM_IUPAC_CAS_NAME>
1-[1-(1-methyl-3-pyrrolyl)-2-(4-nitrophenyl)ethyl]imidazole
> <PUBCHEM_IUPAC_NAME_MARKUP>
1-[1-(1-methylpyrrol-3-yl)-2-(4-nitrophenyl)ethyl]imidazole
> <PUBCHEM_IUPAC_NAME>
1-[1-(1-methylpyrrol-3-yl)-2-(4-nitrophenyl)ethyl]imidazole
> <PUBCHEM_IUPAC_SYSTEMATIC_NAME>
1-[1-(1-methylpyrrol-3-yl)-2-(4-nitrophenyl)ethyl]imidazole
> <PUBCHEM_IUPAC_TRADITIONAL_NAME>
1-[1-(1-methylpyrrol-3-yl)-2-(4-nitrophenyl)ethyl]imidazole
> <PUBCHEM_IUPAC_INCHI>
InChI=1S/C16H16N4O2/c1-18-8-6-14(11-18)16(19-9-7-17-12-19)10-13-2-4-15(5-3-13)20(21)22/h2-9,11-12,16H,10H2,1H3
> <PUBCHEM_IUPAC_INCHIKEY>
ACTHAEUUROAMFP-UHFFFAOYSA-N
> <PUBCHEM_XLOGP3_AA>
2.2
> <PUBCHEM_EXACT_MASS>
296.12732577
> <PUBCHEM_MOLECULAR_FORMULA>
C16H16N4O2
> <PUBCHEM_MOLECULAR_WEIGHT>
296.32
> <PUBCHEM_OPENEYE_CAN_SMILES>
CN1C=CC(=C1)C(CC2=CC=C(C=C2)[N+](=O)[O-])N3C=CN=C3
> <PUBCHEM_OPENEYE_ISO_SMILES>
CN1C=CC(=C1)C(CC2=CC=C(C=C2)[N+](=O)[O-])N3C=CN=C3
> <PUBCHEM_CACTVS_TPSA>
68.6
> <PUBCHEM_MONOISOTOPIC_WEIGHT>
296.12732577
> <PUBCHEM_TOTAL_CHARGE>
0
> <PUBCHEM_HEAVY_ATOM_COUNT>
22
> <PUBCHEM_ATOM_DEF_STEREO_COUNT>
0
> <PUBCHEM_ATOM_UDEF_STEREO_COUNT>
1
> <PUBCHEM_BOND_DEF_STEREO_COUNT>
0
> <PUBCHEM_BOND_UDEF_STEREO_COUNT>
0
> <PUBCHEM_ISOTOPIC_ATOM_COUNT>
0
> <PUBCHEM_COMPONENT_COUNT>
1
> <PUBCHEM_CACTVS_TAUTO_COUNT>
-1
> <PUBCHEM_COORDINATE_TYPE>
1
5
255
> <PUBCHEM_BONDANNOTATIONS>
10  16  8
10  17  8
12  13  8
14  19  8
16  20  8
17  21  8
20  22  8
21  22  8
3  14  8
3  15  8
4  11  8
4  13  8
5  15  8
5  19  8
7  8  3
9  11  8
9  12  8
$$$$
