511582
  -OEChem-10302200282D
 34 36  0     1  0  0  0  0  0999 V2000
    5.5116    1.1373    0.0000 S   0  0  0  0  0  0  0  0  0  0  0  0
    2.0000   -3.7694    0.0000 O   0  5  0  0  0  0  0  0  0  0  0  0
    3.7320   -3.7694    0.0000 O   0  0  0  0  0  0  0  0  0  0  0  0
    3.7320    2.2306    0.0000 N   0  0  0  0  0  0  0  0  0  0  0  0
    3.2320    3.7694    0.0000 N   0  0  0  0  0  0  0  0  0  0  0  0
    2.8660   -3.2694    0.0000 N   0  3  0  0  0  0  0  0  0  0  0  0
    3.7320    1.2306    0.0000 C   0  0  3  0  0  0  0  0  0  0  0  0
    2.8660    0.7306    0.0000 C   0  0  0  0  0  0  0  0  0  0  0  0
    4.5981    0.7306    0.0000 C   0  0  0  0  0  0  0  0  0  0  0  0
    2.8660   -0.2694    0.0000 C   0  0  0  0  0  0  0  0  0  0  0  0
    4.5411    2.8184    0.0000 C   0  0  0  0  0  0  0  0  0  0  0  0
    4.7026   -0.2639    0.0000 C   0  0  0  0  0  0  0  0  0  0  0  0
    2.9230    2.8184    0.0000 C   0  0  0  0  0  0  0  0  0  0  0  0
    2.0000   -0.7694    0.0000 C   0  0  0  0  0  0  0  0  0  0  0  0
    3.7320   -0.7694    0.0000 C   0  0  0  0  0  0  0  0  0  0  0  0
    5.6808   -0.4719    0.0000 C   0  0  0  0  0  0  0  0  0  0  0  0
    2.0000   -1.7694    0.0000 C   0  0  0  0  0  0  0  0  0  0  0  0
    3.7320   -1.7694    0.0000 C   0  0  0  0  0  0  0  0  0  0  0  0
    4.2320    3.7694    0.0000 C   0  0  0  0  0  0  0  0  0  0  0  0
    6.1808    0.3942    0.0000 C   0  0  0  0  0  0  0  0  0  0  0  0
    2.8660   -2.2694    0.0000 C   0  0  0  0  0  0  0  0  0  0  0  0
    3.1951    1.5406    0.0000 H   0  0  0  0  0  0  0  0  0  0  0  0
    2.6540    1.3132    0.0000 H   0  0  0  0  0  0  0  0  0  0  0  0
    2.2554    0.6229    0.0000 H   0  0  0  0  0  0  0  0  0  0  0  0
    5.1307    2.6268    0.0000 H   0  0  0  0  0  0  0  0  0  0  0  0
    4.2419   -0.6788    0.0000 H   0  0  0  0  0  0  0  0  0  0  0  0
    2.3334    2.6268    0.0000 H   0  0  0  0  0  0  0  0  0  0  0  0
    1.4631   -0.4594    0.0000 H   0  0  0  0  0  0  0  0  0  0  0  0
    4.2690   -0.4594    0.0000 H   0  0  0  0  0  0  0  0  0  0  0  0
    5.9329   -1.0382    0.0000 H   0  0  0  0  0  0  0  0  0  0  0  0
    1.4631   -2.0794    0.0000 H   0  0  0  0  0  0  0  0  0  0  0  0
    4.2690   -2.0794    0.0000 H   0  0  0  0  0  0  0  0  0  0  0  0
    4.5965    4.2710    0.0000 H   0  0  0  0  0  0  0  0  0  0  0  0
    6.7974    0.4590    0.0000 H   0  0  0  0  0  0  0  0  0  0  0  0
  1  9  1  0  0  0  0
  1 20  1  0  0  0  0
  2  6  1  0  0  0  0
  3  6  2  0  0  0  0
  4  7  1  0  0  0  0
  4 11  1  0  0  0  0
  4 13  1  0  0  0  0
  5 13  2  0  0  0  0
  5 19  1  0  0  0  0
  6 21  1  0  0  0  0
  7  8  1  0  0  0  0
  7  9  1  0  0  0  0
  7 22  1  0  0  0  0
  8 10  1  0  0  0  0
  8 23  1  0  0  0  0
  8 24  1  0  0  0  0
  9 12  2  0  0  0  0
 10 14  2  0  0  0  0
 10 15  1  0  0  0  0
 11 19  2  0  0  0  0
 11 25  1  0  0  0  0
 12 16  1  0  0  0  0
 12 26  1  0  0  0  0
 13 27  1  0  0  0  0
 14 17  1  0  0  0  0
 14 28  1  0  0  0  0
 15 18  2  0  0  0  0
 15 29  1  0  0  0  0
 16 20  2  0  0  0  0
 16 30  1  0  0  0  0
 17 21  2  0  0  0  0
 17 31  1  0  0  0  0
 18 21  1  0  0  0  0
 18 32  1  0  0  0  0
 19 33  1  0  0  0  0
 20 34  1  0  0  0  0
M  CHG  2   2  -1   6   1
M  END
> <PUBCHEM_COMPOUND_CID>
511582
> <PUBCHEM_COMPOUND_CANONICALIZED>
1
> <PUBCHEM_CACTVS_COMPLEXITY>
355
> <PUBCHEM_CACTVS_HBOND_ACCEPTOR>
4
> <PUBCHEM_CACTVS_HBOND_DONOR>
0
> <PUBCHEM_CACTVS_ROTATABLE_BOND>
4
> <PUBCHEM_CACTVS_SUBSKEYS>
AAADccBzMABAAAAAAAAAAAAAAAAAAWJAAAAwAAAAAAAAAAAB8AAAHAQEAAAADCjFWgS90ZccUAilAjRnZwCDgK0xGrBpyBgYdIqIaCKgmZGUIAhogAKoyCcQgMAOCAAAAAAAAAAQAAAAAAAAAAAAAAAAAA==
> <PUBCHEM_IUPAC_OPENEYE_NAME>
1-[2-(4-nitrophenyl)-1-(2-thienyl)ethyl]imidazole
> <PUBCHEM_IUPAC_CAS_NAME>
1-[2-(4-nitrophenyl)-1-thiophen-2-ylethyl]imidazole
> <PUBCHEM_IUPAC_NAME_MARKUP>
1-[2-(4-nitrophenyl)-1-thiophen-2-ylethyl]imidazole
> <PUBCHEM_IUPAC_NAME>
1-[2-(4-nitrophenyl)-1-thiophen-2-ylethyl]imidazole
> <PUBCHEM_IUPAC_SYSTEMATIC_NAME>
1-[2-(4-nitrophenyl)-1-thiophen-2-yl-ethyl]imidazole
> <PUBCHEM_IUPAC_TRADITIONAL_NAME>
1-[2-(4-nitrophenyl)-1-(2-thienyl)ethyl]imidazole
> <PUBCHEM_IUPAC_INCHI>
InChI=1S/C15H13N3O2S/c19-18(20)13-5-3-12(4-6-13)10-14(15-2-1-9-21-15)17-8-7-16-11-17/h1-9,11,14H,10H2
> <PUBCHEM_IUPAC_INCHIKEY>
CIVMMEQJMHRECU-UHFFFAOYSA-N
> <PUBCHEM_XLOGP3_AA>
3.1
> <PUBCHEM_EXACT_MASS>
299.07284784
> <PUBCHEM_MOLECULAR_FORMULA>
C15H13N3O2S
> <PUBCHEM_MOLECULAR_WEIGHT>
299.3
> <PUBCHEM_OPENEYE_CAN_SMILES>
C1=CSC(=C1)C(CC2=CC=C(C=C2)[N+](=O)[O-])N3C=CN=C3
> <PUBCHEM_OPENEYE_ISO_SMILES>
C1=CSC(=C1)C(CC2=CC=C(C=C2)[N+](=O)[O-])N3C=CN=C3
> <PUBCHEM_CACTVS_TPSA>
91.9
> <PUBCHEM_MONOISOTOPIC_WEIGHT>
299.07284784
> <PUBCHEM_TOTAL_CHARGE>
0
> <PUBCHEM_HEAVY_ATOM_COUNT>
21
> <PUBCHEM_ATOM_DEF_STEREO_COUNT>
0
> <PUBCHEM_ATOM_UDEF_STEREO_COUNT>
1
> <PUBCHEM_BOND_DEF_STEREO_COUNT>
0
> <PUBCHEM_BOND_UDEF_STEREO_COUNT>
0
> <PUBCHEM_ISOTOPIC_ATOM_COUNT>
0
> <PUBCHEM_COMPONENT_COUNT>
1
> <PUBCHEM_CACTVS_TAUTO_COUNT>
-1
> <PUBCHEM_COORDINATE_TYPE>
1
5
255
> <PUBCHEM_BONDANNOTATIONS>
1  20  8
1  9  8
10  14  8
10  15  8
11  19  8
12  16  8
14  17  8
15  18  8
16  20  8
17  21  8
18  21  8
4  11  8
4  13  8
5  13  8
5  19  8
7  8  3
9  12  8
$$$$
