511534
  -OEChem-10302200282D
 84 87  0     1  0  0  0  0  0999 V2000
    4.5981    1.6937    0.0000 Br  0  0  0  0  0  0  0  0  0  0  0  0
    9.8674    1.4344    0.0000 S   0  0  0  0  0  0  0  0  0  0  0  0
    6.6206    2.6957    0.0000 O   0  0  0  0  0  0  0  0  0  0  0  0
    9.3855    4.5646    0.0000 O   0  0  0  0  0  0  0  0  0  0  0  0
   10.9526   -0.0585    0.0000 O   0  0  0  0  0  0  0  0  0  0  0  0
    4.5981   -0.3077    0.0000 O   0  0  0  0  0  0  0  0  0  0  0  0
    9.0870   -1.9364    0.0000 O   0  0  0  0  0  0  0  0  0  0  0  0
   10.5181   -0.9607    0.0000 O   0  0  0  0  0  0  0  0  0  0  0  0
   12.4707    1.9063    0.0000 O   0  0  0  0  0  0  0  0  0  0  0  0
    3.7320   -1.8076    0.0000 O   0  0  0  0  0  0  0  0  0  0  0  0
    5.4641   -1.8077    0.0000 O   0  0  0  0  0  0  0  0  0  0  0  0
    8.9576   -0.2092    0.0000 N   0  0  0  0  0  0  0  0  0  0  0  0
    7.9814    1.8180    0.0000 C   0  0  3  0  0  0  0  0  0  0  0  0
    7.4662    2.7402    0.0000 C   0  0  1  0  0  0  0  0  0  0  0  0
    9.0068    1.9437    0.0000 C   0  0  1  0  0  0  0  0  0  0  0  0
    8.9576    1.5952    0.0000 C   0  0  0  0  0  0  0  0  0  0  0  0
    7.1985    1.1937    0.0000 C   0  0  0  0  0  0  0  0  0  0  0  0
    9.3921    0.6930    0.0000 C   0  0  1  0  0  0  0  0  0  0  0  0
    7.9260    3.6297    0.0000 C   0  0  0  0  0  0  0  0  0  0  0  0
    9.4667    2.8332    0.0000 C   0  0  0  0  0  0  0  0  0  0  0  0
    6.3313    1.6944    0.0000 C   0  0  0  0  0  0  0  0  0  0  0  0
    7.1985    0.1923    0.0000 C   0  0  0  0  0  0  0  0  0  0  0  0
    8.9262    3.6762    0.0000 C   0  0  0  0  0  0  0  0  0  0  0  0
    7.9814   -0.4320    0.0000 C   0  0  0  0  0  0  0  0  0  0  0  0
   10.3893    0.7677    0.0000 C   0  0  0  0  0  0  0  0  0  0  0  0
    5.4641    1.1937    0.0000 C   0  0  0  0  0  0  0  0  0  0  0  0
    6.3313   -0.3083    0.0000 C   0  0  0  0  0  0  0  0  0  0  0  0
    5.4641    0.1923    0.0000 C   0  0  0  0  0  0  0  0  0  0  0  0
   10.7388    1.9250    0.0000 C   0  0  0  0  0  0  0  0  0  0  0  0
    9.5209   -1.0354    0.0000 C   0  0  0  0  0  0  0  0  0  0  0  0
   11.5993    1.4157    0.0000 C   0  0  0  0  0  0  0  0  0  0  0  0
    9.6504   -2.7626    0.0000 C   0  0  0  0  0  0  0  0  0  0  0  0
    9.2165   -3.6636    0.0000 C   0  0  0  0  0  0  0  0  0  0  0  0
    4.5981   -1.3077    0.0000 C   0  0  0  0  0  0  0  0  0  0  0  0
    8.7826   -4.5646    0.0000 C   0  0  0  0  0  0  0  0  0  0  0  0
   10.1174   -4.0975    0.0000 C   0  0  0  0  0  0  0  0  0  0  0  0
    8.3155   -3.2297    0.0000 C   0  0  0  0  0  0  0  0  0  0  0  0
    3.7320   -2.8077    0.0000 C   0  0  0  0  0  0  0  0  0  0  0  0
    2.8660   -3.3076    0.0000 C   0  0  0  0  0  0  0  0  0  0  0  0
    2.0000   -3.8076    0.0000 C   0  0  0  0  0  0  0  0  0  0  0  0
    3.3660   -4.1737    0.0000 C   0  0  0  0  0  0  0  0  0  0  0  0
    2.3660   -2.4416    0.0000 C   0  0  0  0  0  0  0  0  0  0  0  0
    7.0052    3.4544    0.0000 H   0  0  0  0  0  0  0  0  0  0  0  0
    8.8799    1.3369    0.0000 H   0  0  0  0  0  0  0  0  0  0  0  0
    9.5620    1.7332    0.0000 H   0  0  0  0  0  0  0  0  0  0  0  0
    8.9576    2.2152    0.0000 H   0  0  0  0  0  0  0  0  0  0  0  0
    9.7413    0.1807    0.0000 H   0  0  0  0  0  0  0  0  0  0  0  0
    8.0052    4.2446    0.0000 H   0  0  0  0  0  0  0  0  0  0  0  0
    7.3342    3.8145    0.0000 H   0  0  0  0  0  0  0  0  0  0  0  0
    9.9596    2.4572    0.0000 H   0  0  0  0  0  0  0  0  0  0  0  0
    9.9226    3.2534    0.0000 H   0  0  0  0  0  0  0  0  0  0  0  0
    7.4966   -0.8185    0.0000 H   0  0  0  0  0  0  0  0  0  0  0  0
    8.2504   -0.9906    0.0000 H   0  0  0  0  0  0  0  0  0  0  0  0
   10.9544    1.0227    0.0000 H   0  0  0  0  0  0  0  0  0  0  0  0
   10.2363    1.3686    0.0000 H   0  0  0  0  0  0  0  0  0  0  0  0
    6.3313   -0.9283    0.0000 H   0  0  0  0  0  0  0  0  0  0  0  0
   11.1424    2.3956    0.0000 H   0  0  0  0  0  0  0  0  0  0  0  0
   10.3454    2.4042    0.0000 H   0  0  0  0  0  0  0  0  0  0  0  0
   11.5708   -0.0122    0.0000 H   0  0  0  0  0  0  0  0  0  0  0  0
   11.1957    0.9451    0.0000 H   0  0  0  0  0  0  0  0  0  0  0  0
   11.9927    0.9364    0.0000 H   0  0  0  0  0  0  0  0  0  0  0  0
   10.1538   -3.1245    0.0000 H   0  0  0  0  0  0  0  0  0  0  0  0
   10.0942   -2.3297    0.0000 H   0  0  0  0  0  0  0  0  0  0  0  0
   13.0043    1.5905    0.0000 H   0  0  0  0  0  0  0  0  0  0  0  0
    8.2240   -4.2955    0.0000 H   0  0  0  0  0  0  0  0  0  0  0  0
    8.5136   -5.1232    0.0000 H   0  0  0  0  0  0  0  0  0  0  0  0
    9.3412   -4.8336    0.0000 H   0  0  0  0  0  0  0  0  0  0  0  0
    9.8484   -4.6561    0.0000 H   0  0  0  0  0  0  0  0  0  0  0  0
   10.6760   -4.3665    0.0000 H   0  0  0  0  0  0  0  0  0  0  0  0
   10.3865   -3.5389    0.0000 H   0  0  0  0  0  0  0  0  0  0  0  0
    8.5845   -2.6711    0.0000 H   0  0  0  0  0  0  0  0  0  0  0  0
    7.7569   -2.9607    0.0000 H   0  0  0  0  0  0  0  0  0  0  0  0
    8.0465   -3.7883    0.0000 H   0  0  0  0  0  0  0  0  0  0  0  0
    3.9441   -3.3903    0.0000 H   0  0  0  0  0  0  0  0  0  0  0  0
    4.3426   -2.7000    0.0000 H   0  0  0  0  0  0  0  0  0  0  0  0
    1.6900   -3.2707    0.0000 H   0  0  0  0  0  0  0  0  0  0  0  0
    1.4631   -4.1176    0.0000 H   0  0  0  0  0  0  0  0  0  0  0  0
    2.3100   -4.3446    0.0000 H   0  0  0  0  0  0  0  0  0  0  0  0
    2.8291   -4.4837    0.0000 H   0  0  0  0  0  0  0  0  0  0  0  0
    3.6760   -4.7106    0.0000 H   0  0  0  0  0  0  0  0  0  0  0  0
    3.9030   -3.8637    0.0000 H   0  0  0  0  0  0  0  0  0  0  0  0
    2.9030   -2.1316    0.0000 H   0  0  0  0  0  0  0  0  0  0  0  0
    2.0560   -1.9047    0.0000 H   0  0  0  0  0  0  0  0  0  0  0  0
    1.8291   -2.7516    0.0000 H   0  0  0  0  0  0  0  0  0  0  0  0
  1 26  1  0  0  0  0
 15  2  1  1  0  0  0
  2 29  1  0  0  0  0
  3 14  1  0  0  0  0
  3 21  1  0  0  0  0
  4 23  2  0  0  0  0
  5 25  1  0  0  0  0
  5 59  1  0  0  0  0
  6 28  1  0  0  0  0
  6 34  1  0  0  0  0
  7 30  1  0  0  0  0
  7 32  1  0  0  0  0
  8 30  2  0  0  0  0
  9 31  1  0  0  0  0
  9 64  1  0  0  0  0
 10 34  1  0  0  0  0
 10 38  1  0  0  0  0
 11 34  2  0  0  0  0
 12 18  1  0  0  0  0
 12 24  1  0  0  0  0
 12 30  1  0  0  0  0
 13 14  1  0  0  0  0
 13 15  1  0  0  0  0
 13 16  1  0  0  0  0
 13 17  1  0  0  0  0
 14 19  1  0  0  0  0
 14 43  1  1  0  0  0
 15 20  1  0  0  0  0
 15 44  1  0  0  0  0
 16 18  1  0  0  0  0
 16 45  1  0  0  0  0
 16 46  1  0  0  0  0
 17 21  2  0  0  0  0
 17 22  1  0  0  0  0
 18 25  1  1  0  0  0
 18 47  1  0  0  0  0
 19 23  1  0  0  0  0
 19 48  1  0  0  0  0
 19 49  1  0  0  0  0
 20 23  1  0  0  0  0
 20 50  1  0  0  0  0
 20 51  1  0  0  0  0
 21 26  1  0  0  0  0
 22 24  1  0  0  0  0
 22 27  2  0  0  0  0
 24 52  1  0  0  0  0
 24 53  1  0  0  0  0
 25 54  1  0  0  0  0
 25 55  1  0  0  0  0
 26 28  2  0  0  0  0
 27 28  1  0  0  0  0
 27 56  1  0  0  0  0
 29 31  1  0  0  0  0
 29 57  1  0  0  0  0
 29 58  1  0  0  0  0
 31 60  1  0  0  0  0
 31 61  1  0  0  0  0
 32 33  1  0  0  0  0
 32 62  1  0  0  0  0
 32 63  1  0  0  0  0
 33 35  1  0  0  0  0
 33 36  1  0  0  0  0
 33 37  1  0  0  0  0
 35 65  1  0  0  0  0
 35 66  1  0  0  0  0
 35 67  1  0  0  0  0
 36 68  1  0  0  0  0
 36 69  1  0  0  0  0
 36 70  1  0  0  0  0
 37 71  1  0  0  0  0
 37 72  1  0  0  0  0
 37 73  1  0  0  0  0
 38 39  1  0  0  0  0
 38 74  1  0  0  0  0
 38 75  1  0  0  0  0
 39 40  1  0  0  0  0
 39 41  1  0  0  0  0
 39 42  1  0  0  0  0
 40 76  1  0  0  0  0
 40 77  1  0  0  0  0
 40 78  1  0  0  0  0
 41 79  1  0  0  0  0
 41 80  1  0  0  0  0
 41 81  1  0  0  0  0
 42 82  1  0  0  0  0
 42 83  1  0  0  0  0
 42 84  1  0  0  0  0
M  END
> <PUBCHEM_COMPOUND_CID>
511534
> <PUBCHEM_COMPOUND_CANONICALIZED>
1
> <PUBCHEM_CACTVS_COMPLEXITY>
1000
> <PUBCHEM_CACTVS_HBOND_ACCEPTOR>
10
> <PUBCHEM_CACTVS_HBOND_DONOR>
2
> <PUBCHEM_CACTVS_ROTATABLE_BOND>
12
> <PUBCHEM_CACTVS_SUBSKEYS>
AAADcfB6PABAEAAAAAAAAAAAAAAAASAAAAAwYAAABYAAAEixAAAAHgRACAABrjzl2AayDoMABgiIAqBSGACCCAAgIBQAiAEODKgeNzaksRuueijl5hW8qhe4/P/PogABGAAYBABEAAI4ADgIAAAAAAAAAA==
> <PUBCHEM_IUPAC_OPENEYE_NAME>
2,2-dimethylpropyl (3S,12R,16R)-9-bromo-8-(2,2-dimethylpropoxycarbonyloxy)-16-(2-hydroxyethylsulfanyl)-3-(hydroxymethyl)-14-oxo-11-oxa-4-azatetracyclo[8.6.1.01,12.06,17]heptadeca-6,8,10(17)-triene-4-carboxylate
> <PUBCHEM_IUPAC_CAS_NAME>
(3S,12R,16R)-9-bromo-8-[2,2-dimethylpropoxy(oxo)methoxy]-16-(2-hydroxyethylthio)-3-(hydroxymethyl)-14-oxo-11-oxa-4-azatetracyclo[8.6.1.01,12.06,17]heptadeca-6,8,10(17)-triene-4-carboxylic acid 2,2-dimethylpropyl ester
> <PUBCHEM_IUPAC_NAME_MARKUP>
2,2-dimethylpropyl (3<I>S</I>,12<I>R</I>,16<I>R</I>)-9-bromo-8-(2,2-dimethylpropoxycarbonyloxy)-16-(2-hydroxyethylsulfanyl)-3-(hydroxymethyl)-14-oxo-11-oxa-4-azatetracyclo[8.6.1.0<SUP>1,12</SUP>.0<SUP>6,17</SUP>]heptadeca-6,8,10(17)-triene-4-carboxylate
> <PUBCHEM_IUPAC_NAME>
2,2-dimethylpropyl (3S,12R,16R)-9-bromo-8-(2,2-dimethylpropoxycarbonyloxy)-16-(2-hydroxyethylsulfanyl)-3-(hydroxymethyl)-14-oxo-11-oxa-4-azatetracyclo[8.6.1.01,12.06,17]heptadeca-6,8,10(17)-triene-4-carboxylate
> <PUBCHEM_IUPAC_SYSTEMATIC_NAME>
2,2-dimethylpropyl (3S,12R,16R)-9-bromanyl-8-(2,2-dimethylpropoxycarbonyloxy)-16-(2-hydroxyethylsulfanyl)-3-(hydroxymethyl)-14-oxidanylidene-11-oxa-4-azatetracyclo[8.6.1.01,12.06,17]heptadeca-6,8,10(17)-triene-4-carboxylate
> <PUBCHEM_IUPAC_TRADITIONAL_NAME>
(3S,12R,16R)-9-bromo-16-(2-hydroxyethylthio)-14-keto-3-methylol-8-neopentyloxycarbonyloxy-11-oxa-4-azatetracyclo[8.6.1.01,12.06,17]heptadeca-6,8,10(17)-triene-4-carboxylic acid neopentyl ester
> <PUBCHEM_IUPAC_INCHI>
InChI=1S/C30H42BrNO9S/c1-28(2,3)15-38-26(36)32-13-17-9-20(40-27(37)39-16-29(4,5)6)24(31)25-23(17)30(12-18(32)14-34)21(41-25)10-19(35)11-22(30)42-8-7-33/h9,18,21-22,33-34H,7-8,10-16H2,1-6H3/t18-,21+,22+,30?/m0/s1
> <PUBCHEM_IUPAC_INCHIKEY>
HWSJXKHHXSDPMQ-DDVVWACZSA-N
> <PUBCHEM_XLOGP3_AA>
4.8
> <PUBCHEM_EXACT_MASS>
671.17637
> <PUBCHEM_MOLECULAR_FORMULA>
C30H42BrNO9S
> <PUBCHEM_MOLECULAR_WEIGHT>
672.6
> <PUBCHEM_OPENEYE_CAN_SMILES>
CC(C)(C)COC(=O)N1CC2=CC(=C(C3=C2C4(CC1CO)C(O3)CC(=O)CC4SCCO)Br)OC(=O)OCC(C)(C)C
> <PUBCHEM_OPENEYE_ISO_SMILES>
CC(C)(C)COC(=O)N1CC2=CC(=C(C3=C2C4(C[C@H]1CO)[C@H](O3)CC(=O)C[C@H]4SCCO)Br)OC(=O)OCC(C)(C)C
> <PUBCHEM_CACTVS_TPSA>
157
> <PUBCHEM_MONOISOTOPIC_WEIGHT>
671.17637
> <PUBCHEM_TOTAL_CHARGE>
0
> <PUBCHEM_HEAVY_ATOM_COUNT>
42
> <PUBCHEM_ATOM_DEF_STEREO_COUNT>
3
> <PUBCHEM_ATOM_UDEF_STEREO_COUNT>
1
> <PUBCHEM_BOND_DEF_STEREO_COUNT>
0
> <PUBCHEM_BOND_UDEF_STEREO_COUNT>
0
> <PUBCHEM_ISOTOPIC_ATOM_COUNT>
0
> <PUBCHEM_COMPONENT_COUNT>
1
> <PUBCHEM_CACTVS_TAUTO_COUNT>
-1
> <PUBCHEM_COORDINATE_TYPE>
1
5
255
> <PUBCHEM_BONDANNOTATIONS>
13  16  3
14  43  5
17  21  8
17  22  8
18  25  5
15  2  5
21  26  8
22  27  8
26  28  8
27  28  8
$$$$
