511586
  -OEChem-10302200282D
 34 36  0     1  0  0  0  0  0999 V2000
    4.8198    4.1739    0.0000 Cl  0  0  0  0  0  0  0  0  0  0  0  0
    4.5411    2.4139    0.0000 S   0  0  0  0  0  0  0  0  0  0  0  0
    2.0000   -4.1739    0.0000 O   0  5  0  0  0  0  0  0  0  0  0  0
    3.7320   -4.1739    0.0000 O   0  0  0  0  0  0  0  0  0  0  0  0
    4.5981    0.3261    0.0000 N   0  0  0  0  0  0  0  0  0  0  0  0
    5.6808   -0.8764    0.0000 N   0  0  0  0  0  0  0  0  0  0  0  0
    2.8660   -3.6739    0.0000 N   0  3  0  0  0  0  0  0  0  0  0  0
    3.7320    0.8261    0.0000 C   0  0  3  0  0  0  0  0  0  0  0  0
    2.8660    0.3261    0.0000 C   0  0  0  0  0  0  0  0  0  0  0  0
    3.7320    1.8261    0.0000 C   0  0  0  0  0  0  0  0  0  0  0  0
    2.8660   -0.6739    0.0000 C   0  0  0  0  0  0  0  0  0  0  0  0
    5.5116    0.7328    0.0000 C   0  0  0  0  0  0  0  0  0  0  0  0
    2.9230    2.4139    0.0000 C   0  0  0  0  0  0  0  0  0  0  0  0
    4.7026   -0.6685    0.0000 C   0  0  0  0  0  0  0  0  0  0  0  0
    3.7320   -1.1739    0.0000 C   0  0  0  0  0  0  0  0  0  0  0  0
    2.0000   -1.1739    0.0000 C   0  0  0  0  0  0  0  0  0  0  0  0
    3.2320    3.3649    0.0000 C   0  0  0  0  0  0  0  0  0  0  0  0
    6.1808   -0.0103    0.0000 C   0  0  0  0  0  0  0  0  0  0  0  0
    3.7320   -2.1739    0.0000 C   0  0  0  0  0  0  0  0  0  0  0  0
    2.0000   -2.1739    0.0000 C   0  0  0  0  0  0  0  0  0  0  0  0
    4.2320    3.3649    0.0000 C   0  0  0  0  0  0  0  0  0  0  0  0
    2.8660   -2.6739    0.0000 C   0  0  0  0  0  0  0  0  0  0  0  0
    3.7320    0.2061    0.0000 H   0  0  0  0  0  0  0  0  0  0  0  0
    2.6540    0.9087    0.0000 H   0  0  0  0  0  0  0  0  0  0  0  0
    2.2554    0.2184    0.0000 H   0  0  0  0  0  0  0  0  0  0  0  0
    5.6405    1.3393    0.0000 H   0  0  0  0  0  0  0  0  0  0  0  0
    2.3334    2.2223    0.0000 H   0  0  0  0  0  0  0  0  0  0  0  0
    4.2419   -1.0833    0.0000 H   0  0  0  0  0  0  0  0  0  0  0  0
    4.2690   -0.8639    0.0000 H   0  0  0  0  0  0  0  0  0  0  0  0
    1.4631   -0.8639    0.0000 H   0  0  0  0  0  0  0  0  0  0  0  0
    2.8676    3.8665    0.0000 H   0  0  0  0  0  0  0  0  0  0  0  0
    4.2690   -2.4839    0.0000 H   0  0  0  0  0  0  0  0  0  0  0  0
    1.4631   -2.4839    0.0000 H   0  0  0  0  0  0  0  0  0  0  0  0
    6.7974    0.0545    0.0000 H   0  0  0  0  0  0  0  0  0  0  0  0
  1 21  1  0  0  0  0
  2 10  1  0  0  0  0
  2 21  1  0  0  0  0
  3  7  1  0  0  0  0
  4  7  2  0  0  0  0
  5  8  1  0  0  0  0
  5 12  1  0  0  0  0
  5 14  1  0  0  0  0
  6 14  2  0  0  0  0
  6 18  1  0  0  0  0
  7 22  1  0  0  0  0
  8  9  1  0  0  0  0
  8 10  1  0  0  0  0
  8 23  1  0  0  0  0
  9 11  1  0  0  0  0
  9 24  1  0  0  0  0
  9 25  1  0  0  0  0
 10 13  2  0  0  0  0
 11 15  2  0  0  0  0
 11 16  1  0  0  0  0
 12 18  2  0  0  0  0
 12 26  1  0  0  0  0
 13 17  1  0  0  0  0
 13 27  1  0  0  0  0
 14 28  1  0  0  0  0
 15 19  1  0  0  0  0
 15 29  1  0  0  0  0
 16 20  2  0  0  0  0
 16 30  1  0  0  0  0
 17 21  2  0  0  0  0
 17 31  1  0  0  0  0
 18 34  1  0  0  0  0
 19 22  2  0  0  0  0
 19 32  1  0  0  0  0
 20 22  1  0  0  0  0
 20 33  1  0  0  0  0
M  CHG  2   3  -1   7   1
M  END
> <PUBCHEM_COMPOUND_CID>
511586
> <PUBCHEM_COMPOUND_CANONICALIZED>
1
> <PUBCHEM_CACTVS_COMPLEXITY>
388
> <PUBCHEM_CACTVS_HBOND_ACCEPTOR>
4
> <PUBCHEM_CACTVS_HBOND_DONOR>
0
> <PUBCHEM_CACTVS_ROTATABLE_BOND>
4
> <PUBCHEM_CACTVS_SUBSKEYS>
AAADccBzMABEAAAAAAAAAAAAAAAAAWJAAAAwAAAAAAAAAAAB8AAAHAYEAAAADCrBWiQ90ZccUAilAjRnZwCDgK0xH7BpyBgYdoqIaCKhm5GUIAhogAKoyCcQgMAOCAAAAAAAAAAQAAAAAAAAAAAAAAAAAA==
> <PUBCHEM_IUPAC_OPENEYE_NAME>
1-[1-(5-chloro-2-thienyl)-2-(4-nitrophenyl)ethyl]imidazole
> <PUBCHEM_IUPAC_CAS_NAME>
1-[1-(5-chloro-2-thiophenyl)-2-(4-nitrophenyl)ethyl]imidazole
> <PUBCHEM_IUPAC_NAME_MARKUP>
1-[1-(5-chlorothiophen-2-yl)-2-(4-nitrophenyl)ethyl]imidazole
> <PUBCHEM_IUPAC_NAME>
1-[1-(5-chlorothiophen-2-yl)-2-(4-nitrophenyl)ethyl]imidazole
> <PUBCHEM_IUPAC_SYSTEMATIC_NAME>
1-[1-(5-chloranylthiophen-2-yl)-2-(4-nitrophenyl)ethyl]imidazole
> <PUBCHEM_IUPAC_TRADITIONAL_NAME>
1-[1-(5-chloro-2-thienyl)-2-(4-nitrophenyl)ethyl]imidazole
> <PUBCHEM_IUPAC_INCHI>
InChI=1S/C15H12ClN3O2S/c16-15-6-5-14(22-15)13(18-8-7-17-10-18)9-11-1-3-12(4-2-11)19(20)21/h1-8,10,13H,9H2
> <PUBCHEM_IUPAC_INCHIKEY>
RCNAYNBKYNADLP-UHFFFAOYSA-N
> <PUBCHEM_XLOGP3_AA>
4.1
> <PUBCHEM_EXACT_MASS>
333.0338755
> <PUBCHEM_MOLECULAR_FORMULA>
C15H12ClN3O2S
> <PUBCHEM_MOLECULAR_WEIGHT>
333.8
> <PUBCHEM_OPENEYE_CAN_SMILES>
C1=CC(=CC=C1CC(C2=CC=C(S2)Cl)N3C=CN=C3)[N+](=O)[O-]
> <PUBCHEM_OPENEYE_ISO_SMILES>
C1=CC(=CC=C1CC(C2=CC=C(S2)Cl)N3C=CN=C3)[N+](=O)[O-]
> <PUBCHEM_CACTVS_TPSA>
91.9
> <PUBCHEM_MONOISOTOPIC_WEIGHT>
333.0338755
> <PUBCHEM_TOTAL_CHARGE>
0
> <PUBCHEM_HEAVY_ATOM_COUNT>
22
> <PUBCHEM_ATOM_DEF_STEREO_COUNT>
0
> <PUBCHEM_ATOM_UDEF_STEREO_COUNT>
1
> <PUBCHEM_BOND_DEF_STEREO_COUNT>
0
> <PUBCHEM_BOND_UDEF_STEREO_COUNT>
0
> <PUBCHEM_ISOTOPIC_ATOM_COUNT>
0
> <PUBCHEM_COMPONENT_COUNT>
1
> <PUBCHEM_CACTVS_TAUTO_COUNT>
-1
> <PUBCHEM_COORDINATE_TYPE>
1
5
255
> <PUBCHEM_BONDANNOTATIONS>
10  13  8
11  15  8
11  16  8
12  18  8
13  17  8
15  19  8
16  20  8
17  21  8
19  22  8
2  10  8
2  21  8
20  22  8
5  12  8
5  14  8
6  14  8
6  18  8
8  9  3
$$$$
