511576
  -OEChem-10302200282D
143143  0     1  0  0  0  0  0999 V2000
   10.6603   -0.5113    0.0000 O   0  0  0  0  0  0  0  0  0  0  0  0
   11.7622    0.2893    0.0000 O   0  0  0  0  0  0  0  0  0  0  0  0
   14.9427    1.9877    0.0000 O   0  0  0  0  0  0  0  0  0  0  0  0
    8.9282   -2.5113    0.0000 O   0  0  0  0  0  0  0  0  0  0  0  0
   13.3679    5.2312    0.0000 O   0  0  0  0  0  0  0  0  0  0  0  0
   16.5484    6.9296    0.0000 O   0  0  0  0  0  0  0  0  0  0  0  0
   17.8268    9.2460    0.0000 O   0  0  0  0  0  0  0  0  0  0  0  0
   12.0010    7.4965    0.0000 O   0  0  0  0  0  0  0  0  0  0  0  0
    9.7942    0.9887    0.0000 N   0  0  0  0  0  0  0  0  0  0  0  0
   12.2974    1.9366    0.0000 N   0  0  0  0  0  0  0  0  0  0  0  0
    8.0622   -1.0113    0.0000 N   0  0  0  0  0  0  0  0  0  0  0  0
   13.7837    3.2749    0.0000 N   0  0  0  0  0  0  0  0  0  0  0  0
   15.0621    5.5913    0.0000 N   0  0  0  0  0  0  0  0  0  0  0  0
   15.3894    8.2167    0.0000 N   0  0  0  0  0  0  0  0  0  0  0  0
   12.5363    9.1438    0.0000 N   0  0  0  0  0  0  0  0  0  0  0  0
   10.6032    1.5765    0.0000 C   0  0  3  0  0  0  0  0  0  0  0  0
   10.2942    2.5276    0.0000 C   0  0  0  0  0  0  0  0  0  0  0  0
    9.2942    2.5276    0.0000 C   0  0  0  0  0  0  0  0  0  0  0  0
    8.9852    1.5765    0.0000 C   0  0  0  0  0  0  0  0  0  0  0  0
    9.7942   -0.0113    0.0000 C   0  0  0  0  0  0  0  0  0  0  0  0
    8.9282   -0.5113    0.0000 C   0  0  0  0  0  0  0  0  0  0  0  0
   11.5543    1.2675    0.0000 C   0  0  0  0  0  0  0  0  0  0  0  0
   13.2485    1.6276    0.0000 C   0  0  1  0  0  0  0  0  0  0  0  0
    9.4282   -1.3773    0.0000 C   0  0  0  0  0  0  0  0  0  0  0  0
    8.4282    0.3548    0.0000 C   0  0  0  0  0  0  0  0  0  0  0  0
   13.4564    0.6495    0.0000 C   0  0  0  0  0  0  0  0  0  0  0  0
   14.4075    0.3404    0.0000 C   0  0  0  0  0  0  0  0  0  0  0  0
   13.9916    2.2967    0.0000 C   0  0  0  0  0  0  0  0  0  0  0  0
    8.0622   -2.0113    0.0000 C   0  0  0  0  0  0  0  0  0  0  0  0
   14.5269    3.9440    0.0000 C   0  0  1  0  0  0  0  0  0  0  0  0
    7.1962   -2.5113    0.0000 C   0  0  0  0  0  0  0  0  0  0  0  0
   15.4779    3.6350    0.0000 C   0  0  0  0  0  0  0  0  0  0  0  0
   14.6154   -0.6377    0.0000 C   0  0  0  0  0  0  0  0  0  0  0  0
   15.1506    1.0096    0.0000 C   0  0  0  0  0  0  0  0  0  0  0  0
    7.1962   -3.5113    0.0000 C   0  0  0  0  0  0  0  0  0  0  0  0
    6.3301   -4.0113    0.0000 C   0  0  0  0  0  0  0  0  0  0  0  0
   14.3190    4.9222    0.0000 C   0  0  0  0  0  0  0  0  0  0  0  0
    6.3301   -5.0113    0.0000 C   0  0  0  0  0  0  0  0  0  0  0  0
    5.4641   -5.5113    0.0000 C   0  0  0  0  0  0  0  0  0  0  0  0
   16.2211    4.3041    0.0000 C   0  0  0  0  0  0  0  0  0  0  0  0
   15.6858    2.6568    0.0000 C   0  0  0  0  0  0  0  0  0  0  0  0
   14.8542    6.5694    0.0000 C   0  0  1  0  0  0  0  0  0  0  0  0
    5.4641   -6.5113    0.0000 C   0  0  0  0  0  0  0  0  0  0  0  0
    4.5981   -7.0113    0.0000 C   0  0  0  0  0  0  0  0  0  0  0  0
   16.1326    8.8858    0.0000 C   0  0  1  0  0  0  0  0  0  0  0  0
   13.9031    6.8785    0.0000 C   0  0  0  0  0  0  0  0  0  0  0  0
    4.5981   -8.0113    0.0000 C   0  0  0  0  0  0  0  0  0  0  0  0
   15.9247    9.8640    0.0000 C   0  0  0  0  0  0  0  0  0  0  0  0
   15.5973    7.2386    0.0000 C   0  0  0  0  0  0  0  0  0  0  0  0
   16.6678   10.5331    0.0000 C   0  0  0  0  0  0  0  0  0  0  0  0
    3.7320   -8.5113    0.0000 C   0  0  0  0  0  0  0  0  0  0  0  0
    3.7320   -9.5113    0.0000 C   0  0  0  0  0  0  0  0  0  0  0  0
   13.6952    7.8566    0.0000 C   0  0  0  0  0  0  0  0  0  0  0  0
   17.0836    8.5768    0.0000 C   0  0  0  0  0  0  0  0  0  0  0  0
    2.8660  -10.0113    0.0000 C   0  0  0  0  0  0  0  0  0  0  0  0
   16.4599   11.5113    0.0000 C   0  0  0  0  0  0  0  0  0  0  0  0
   17.6189   10.2241    0.0000 C   0  0  0  0  0  0  0  0  0  0  0  0
    2.8660  -11.0113    0.0000 C   0  0  0  0  0  0  0  0  0  0  0  0
   12.7442    8.1656    0.0000 C   0  0  0  0  0  0  0  0  0  0  0  0
    2.0000  -11.5113    0.0000 C   0  0  0  0  0  0  0  0  0  0  0  0
   10.7002    0.9641    0.0000 H   0  0  0  0  0  0  0  0  0  0  0  0
   10.9007    2.6565    0.0000 H   0  0  0  0  0  0  0  0  0  0  0  0
   10.2294    3.1442    0.0000 H   0  0  0  0  0  0  0  0  0  0  0  0
    9.3590    3.1442    0.0000 H   0  0  0  0  0  0  0  0  0  0  0  0
    8.6878    2.6565    0.0000 H   0  0  0  0  0  0  0  0  0  0  0  0
    8.4188    1.8287    0.0000 H   0  0  0  0  0  0  0  0  0  0  0  0
    8.6752    1.0396    0.0000 H   0  0  0  0  0  0  0  0  0  0  0  0
   13.1196    2.2341    0.0000 H   0  0  0  0  0  0  0  0  0  0  0  0
   12.1685    2.5431    0.0000 H   0  0  0  0  0  0  0  0  0  0  0  0
    8.8913   -1.6873    0.0000 H   0  0  0  0  0  0  0  0  0  0  0  0
    9.7382   -1.9142    0.0000 H   0  0  0  0  0  0  0  0  0  0  0  0
    9.9651   -1.0673    0.0000 H   0  0  0  0  0  0  0  0  0  0  0  0
    8.9651    0.6647    0.0000 H   0  0  0  0  0  0  0  0  0  0  0  0
    8.1182    0.8917    0.0000 H   0  0  0  0  0  0  0  0  0  0  0  0
    7.8913    0.0447    0.0000 H   0  0  0  0  0  0  0  0  0  0  0  0
   12.8368    0.6278    0.0000 H   0  0  0  0  0  0  0  0  0  0  0  0
   13.3701    0.0355    0.0000 H   0  0  0  0  0  0  0  0  0  0  0  0
    7.5252   -0.7013    0.0000 H   0  0  0  0  0  0  0  0  0  0  0  0
   14.2786    0.9469    0.0000 H   0  0  0  0  0  0  0  0  0  0  0  0
   14.6558    3.3376    0.0000 H   0  0  0  0  0  0  0  0  0  0  0  0
   13.1941    3.4665    0.0000 H   0  0  0  0  0  0  0  0  0  0  0  0
    6.9841   -1.9287    0.0000 H   0  0  0  0  0  0  0  0  0  0  0  0
    6.5856   -2.6189    0.0000 H   0  0  0  0  0  0  0  0  0  0  0  0
   15.3490    4.2415    0.0000 H   0  0  0  0  0  0  0  0  0  0  0  0
   14.0089   -0.7666    0.0000 H   0  0  0  0  0  0  0  0  0  0  0  0
   14.7443   -1.2442    0.0000 H   0  0  0  0  0  0  0  0  0  0  0  0
   15.2218   -0.5088    0.0000 H   0  0  0  0  0  0  0  0  0  0  0  0
   15.5655    0.5488    0.0000 H   0  0  0  0  0  0  0  0  0  0  0  0
   15.6114    1.4244    0.0000 H   0  0  0  0  0  0  0  0  0  0  0  0
   14.7358    1.4703    0.0000 H   0  0  0  0  0  0  0  0  0  0  0  0
    7.4082   -4.0939    0.0000 H   0  0  0  0  0  0  0  0  0  0  0  0
    7.8067   -3.4036    0.0000 H   0  0  0  0  0  0  0  0  0  0  0  0
    6.1181   -3.4287    0.0000 H   0  0  0  0  0  0  0  0  0  0  0  0
    5.7196   -4.1189    0.0000 H   0  0  0  0  0  0  0  0  0  0  0  0
    6.5422   -5.5939    0.0000 H   0  0  0  0  0  0  0  0  0  0  0  0
    6.9407   -4.9036    0.0000 H   0  0  0  0  0  0  0  0  0  0  0  0
    5.2520   -4.9287    0.0000 H   0  0  0  0  0  0  0  0  0  0  0  0
    4.8535   -5.6189    0.0000 H   0  0  0  0  0  0  0  0  0  0  0  0
   15.4439    6.3778    0.0000 H   0  0  0  0  0  0  0  0  0  0  0  0
   16.6359    3.8434    0.0000 H   0  0  0  0  0  0  0  0  0  0  0  0
   16.6818    4.7190    0.0000 H   0  0  0  0  0  0  0  0  0  0  0  0
   15.8062    4.7649    0.0000 H   0  0  0  0  0  0  0  0  0  0  0  0
   15.0794    2.5280    0.0000 H   0  0  0  0  0  0  0  0  0  0  0  0
   15.8148    2.0504    0.0000 H   0  0  0  0  0  0  0  0  0  0  0  0
   16.2923    2.7858    0.0000 H   0  0  0  0  0  0  0  0  0  0  0  0
    5.6762   -7.0939    0.0000 H   0  0  0  0  0  0  0  0  0  0  0  0
    6.0747   -6.4036    0.0000 H   0  0  0  0  0  0  0  0  0  0  0  0
   15.6518    5.3997    0.0000 H   0  0  0  0  0  0  0  0  0  0  0  0
    4.3860   -6.4287    0.0000 H   0  0  0  0  0  0  0  0  0  0  0  0
    3.9875   -7.1189    0.0000 H   0  0  0  0  0  0  0  0  0  0  0  0
   16.2615    8.2794    0.0000 H   0  0  0  0  0  0  0  0  0  0  0  0
   13.2835    6.8568    0.0000 H   0  0  0  0  0  0  0  0  0  0  0  0
   13.8169    6.2645    0.0000 H   0  0  0  0  0  0  0  0  0  0  0  0
    4.8101   -8.5939    0.0000 H   0  0  0  0  0  0  0  0  0  0  0  0
    5.2087   -7.9036    0.0000 H   0  0  0  0  0  0  0  0  0  0  0  0
   15.5961   10.3898    0.0000 H   0  0  0  0  0  0  0  0  0  0  0  0
   15.3498    9.6317    0.0000 H   0  0  0  0  0  0  0  0  0  0  0  0
   17.1286   10.9480    0.0000 H   0  0  0  0  0  0  0  0  0  0  0  0
    3.5200   -7.9287    0.0000 H   0  0  0  0  0  0  0  0  0  0  0  0
    3.1215   -8.6189    0.0000 H   0  0  0  0  0  0  0  0  0  0  0  0
   14.7998    8.4083    0.0000 H   0  0  0  0  0  0  0  0  0  0  0  0
    3.9441  -10.0939    0.0000 H   0  0  0  0  0  0  0  0  0  0  0  0
    4.3426   -9.4036    0.0000 H   0  0  0  0  0  0  0  0  0  0  0  0
   14.3149    7.8782    0.0000 H   0  0  0  0  0  0  0  0  0  0  0  0
   13.7815    8.4706    0.0000 H   0  0  0  0  0  0  0  0  0  0  0  0
   16.7926    8.0294    0.0000 H   0  0  0  0  0  0  0  0  0  0  0  0
   17.5722    8.1951    0.0000 H   0  0  0  0  0  0  0  0  0  0  0  0
    2.6540   -9.4287    0.0000 H   0  0  0  0  0  0  0  0  0  0  0  0
    2.2554  -10.1189    0.0000 H   0  0  0  0  0  0  0  0  0  0  0  0
   17.0664   11.6402    0.0000 H   0  0  0  0  0  0  0  0  0  0  0  0
   16.3310   12.1177    0.0000 H   0  0  0  0  0  0  0  0  0  0  0  0
   15.8535   11.3824    0.0000 H   0  0  0  0  0  0  0  0  0  0  0  0
   17.4273    9.6345    0.0000 H   0  0  0  0  0  0  0  0  0  0  0  0
   18.2085   10.0325    0.0000 H   0  0  0  0  0  0  0  0  0  0  0  0
   17.8105   10.8138    0.0000 H   0  0  0  0  0  0  0  0  0  0  0  0
    3.0781  -11.5939    0.0000 H   0  0  0  0  0  0  0  0  0  0  0  0
    3.4766  -10.9036    0.0000 H   0  0  0  0  0  0  0  0  0  0  0  0
   18.4164    9.0544    0.0000 H   0  0  0  0  0  0  0  0  0  0  0  0
    1.6900  -10.9743    0.0000 H   0  0  0  0  0  0  0  0  0  0  0  0
    1.4631  -11.8213    0.0000 H   0  0  0  0  0  0  0  0  0  0  0  0
    2.3100  -12.0482    0.0000 H   0  0  0  0  0  0  0  0  0  0  0  0
   11.9466    9.3354    0.0000 H   0  0  0  0  0  0  0  0  0  0  0  0
   12.9970    9.5586    0.0000 H   0  0  0  0  0  0  0  0  0  0  0  0
  1 20  2  0  0  0  0
  2 22  2  0  0  0  0
  3 28  2  0  0  0  0
  4 29  2  0  0  0  0
  5 37  2  0  0  0  0
  6 49  2  0  0  0  0
  7 54  1  0  0  0  0
  7138  1  0  0  0  0
  8 59  2  0  0  0  0
  9 16  1  0  0  0  0
  9 19  1  0  0  0  0
  9 20  1  0  0  0  0
 10 22  1  0  0  0  0
 23 10  1  6  0  0  0
 10 69  1  0  0  0  0
 11 21  1  0  0  0  0
 11 29  1  0  0  0  0
 11 78  1  0  0  0  0
 12 28  1  0  0  0  0
 30 12  1  6  0  0  0
 12 81  1  0  0  0  0
 13 37  1  0  0  0  0
 42 13  1  1  0  0  0
 13108  1  0  0  0  0
 45 14  1  1  0  0  0
 14 49  1  0  0  0  0
 14121  1  0  0  0  0
 15 59  1  0  0  0  0
 15142  1  0  0  0  0
 15143  1  0  0  0  0
 16 17  1  0  0  0  0
 16 22  1  0  0  0  0
 16 61  1  0  0  0  0
 17 18  1  0  0  0  0
 17 62  1  0  0  0  0
 17 63  1  0  0  0  0
 18 19  1  0  0  0  0
 18 64  1  0  0  0  0
 18 65  1  0  0  0  0
 19 66  1  0  0  0  0
 19 67  1  0  0  0  0
 20 21  1  0  0  0  0
 21 24  1  0  0  0  0
 21 25  1  0  0  0  0
 23 26  1  0  0  0  0
 23 28  1  0  0  0  0
 23 68  1  0  0  0  0
 24 70  1  0  0  0  0
 24 71  1  0  0  0  0
 24 72  1  0  0  0  0
 25 73  1  0  0  0  0
 25 74  1  0  0  0  0
 25 75  1  0  0  0  0
 26 27  1  0  0  0  0
 26 76  1  0  0  0  0
 26 77  1  0  0  0  0
 27 33  1  0  0  0  0
 27 34  1  0  0  0  0
 27 79  1  0  0  0  0
 29 31  1  0  0  0  0
 30 32  1  0  0  0  0
 30 37  1  0  0  0  0
 30 80  1  0  0  0  0
 31 35  1  0  0  0  0
 31 82  1  0  0  0  0
 31 83  1  0  0  0  0
 32 40  1  0  0  0  0
 32 41  1  0  0  0  0
 32 84  1  0  0  0  0
 33 85  1  0  0  0  0
 33 86  1  0  0  0  0
 33 87  1  0  0  0  0
 34 88  1  0  0  0  0
 34 89  1  0  0  0  0
 34 90  1  0  0  0  0
 35 36  1  0  0  0  0
 35 91  1  0  0  0  0
 35 92  1  0  0  0  0
 36 38  1  0  0  0  0
 36 93  1  0  0  0  0
 36 94  1  0  0  0  0
 38 39  1  0  0  0  0
 38 95  1  0  0  0  0
 38 96  1  0  0  0  0
 39 43  1  0  0  0  0
 39 97  1  0  0  0  0
 39 98  1  0  0  0  0
 40100  1  0  0  0  0
 40101  1  0  0  0  0
 40102  1  0  0  0  0
 41103  1  0  0  0  0
 41104  1  0  0  0  0
 41105  1  0  0  0  0
 42 46  1  0  0  0  0
 42 49  1  0  0  0  0
 42 99  1  0  0  0  0
 43 44  1  0  0  0  0
 43106  1  0  0  0  0
 43107  1  0  0  0  0
 44 47  1  0  0  0  0
 44109  1  0  0  0  0
 44110  1  0  0  0  0
 45 48  1  0  0  0  0
 45 54  1  0  0  0  0
 45111  1  0  0  0  0
 46 53  1  0  0  0  0
 46112  1  0  0  0  0
 46113  1  0  0  0  0
 47 51  1  0  0  0  0
 47114  1  0  0  0  0
 47115  1  0  0  0  0
 48 50  1  0  0  0  0
 48116  1  0  0  0  0
 48117  1  0  0  0  0
 50 56  1  0  0  0  0
 50 57  1  0  0  0  0
 50118  1  0  0  0  0
 51 52  1  0  0  0  0
 51119  1  0  0  0  0
 51120  1  0  0  0  0
 52 55  1  0  0  0  0
 52122  1  0  0  0  0
 52123  1  0  0  0  0
 53 59  1  0  0  0  0
 53124  1  0  0  0  0
 53125  1  0  0  0  0
 54126  1  0  0  0  0
 54127  1  0  0  0  0
 55 58  1  0  0  0  0
 55128  1  0  0  0  0
 55129  1  0  0  0  0
 56130  1  0  0  0  0
 56131  1  0  0  0  0
 56132  1  0  0  0  0
 57133  1  0  0  0  0
 57134  1  0  0  0  0
 57135  1  0  0  0  0
 58 60  1  0  0  0  0
 58136  1  0  0  0  0
 58137  1  0  0  0  0
 60139  1  0  0  0  0
 60140  1  0  0  0  0
 60141  1  0  0  0  0
M  END
> <PUBCHEM_COMPOUND_CID>
511576
> <PUBCHEM_COMPOUND_CANONICALIZED>
1
> <PUBCHEM_CACTVS_COMPLEXITY>
1350
> <PUBCHEM_CACTVS_HBOND_ACCEPTOR>
8
> <PUBCHEM_CACTVS_HBOND_DONOR>
7
> <PUBCHEM_CACTVS_ROTATABLE_BOND>
31
> <PUBCHEM_CACTVS_SUBSKEYS>
AAADcfB/vAAAAAAAAAAAAAAAAAAAAWAAAAAAAAAAAAAAAAAAAAAAHgAQCAAADajhgAYCAAPAAgAIAAEQEAAAAAAAAAAAAIGIAAACUBIAgCAUQAAEFgCQAAGci4CMAAAAAAAAAAAAAAAAAAAAAAAAAAAAAA==
> <PUBCHEM_IUPAC_OPENEYE_NAME>
(2S)-N-[(1S)-1-(hydroxymethyl)-3-methyl-butyl]-2-[[(2S)-3-methyl-2-[[(2S)-4-methyl-2-[[1-[2-methyl-2-(tetradecanoylamino)propanoyl]pyrrolidine-2-carbonyl]amino]pentanoyl]amino]butanoyl]amino]pentanediamide
> <PUBCHEM_IUPAC_CAS_NAME>
(2S)-N-[(2S)-1-hydroxy-4-methylpentan-2-yl]-2-[[(2S)-3-methyl-2-[[(2S)-4-methyl-2-[[[1-[2-methyl-1-oxo-2-(1-oxotetradecylamino)propyl]-2-pyrrolidinyl]-oxomethyl]amino]-1-oxopentyl]amino]-1-oxobutyl]amino]pentanediamide
> <PUBCHEM_IUPAC_NAME_MARKUP>
(2<I>S</I>)-<I>N</I>-[(2<I>S</I>)-1-hydroxy-4-methylpentan-2-yl]-2-[[(2<I>S</I>)-3-methyl-2-[[(2<I>S</I>)-4-methyl-2-[[1-[2-methyl-2-(tetradecanoylamino)propanoyl]pyrrolidine-2-carbonyl]amino]pentanoyl]amino]butanoyl]amino]pentanediamide
> <PUBCHEM_IUPAC_NAME>
(2S)-N-[(2S)-1-hydroxy-4-methylpentan-2-yl]-2-[[(2S)-3-methyl-2-[[(2S)-4-methyl-2-[[1-[2-methyl-2-(tetradecanoylamino)propanoyl]pyrrolidine-2-carbonyl]amino]pentanoyl]amino]butanoyl]amino]pentanediamide
> <PUBCHEM_IUPAC_SYSTEMATIC_NAME>
(2S)-2-[[(2S)-3-methyl-2-[[(2S)-4-methyl-2-[[1-[2-methyl-2-(tetradecanoylamino)propanoyl]pyrrolidin-2-yl]carbonylamino]pentanoyl]amino]butanoyl]amino]-N-[(2S)-4-methyl-1-oxidanyl-pentan-2-yl]pentanediamide
> <PUBCHEM_IUPAC_TRADITIONAL_NAME>
(2S)-2-[[(2S)-3-methyl-2-[[(2S)-4-methyl-2-[[1-[2-methyl-2-(tetradecanoylamino)propanoyl]prolyl]amino]pentanoyl]amino]butanoyl]amino]-N-[(1S)-3-methyl-1-methylol-butyl]glutaramide
> <PUBCHEM_IUPAC_INCHI>
InChI=1S/C45H83N7O8/c1-10-11-12-13-14-15-16-17-18-19-20-23-38(55)51-45(8,9)44(60)52-26-21-22-36(52)42(58)49-35(28-31(4)5)41(57)50-39(32(6)7)43(59)48-34(24-25-37(46)54)40(56)47-33(29-53)27-30(2)3/h30-36,39,53H,10-29H2,1-9H3,(H2,46,54)(H,47,56)(H,48,59)(H,49,58)(H,50,57)(H,51,55)/t33-,34-,35-,36?,39-/m0/s1
> <PUBCHEM_IUPAC_INCHIKEY>
VCAGNEUDNVLWPT-OTWNAZPASA-N
> <PUBCHEM_XLOGP3_AA>
7.2
> <PUBCHEM_EXACT_MASS>
849.63031263
> <PUBCHEM_MOLECULAR_FORMULA>
C45H83N7O8
> <PUBCHEM_MOLECULAR_WEIGHT>
850.2
> <PUBCHEM_OPENEYE_CAN_SMILES>
CCCCCCCCCCCCCC(=O)NC(C)(C)C(=O)N1CCCC1C(=O)NC(CC(C)C)C(=O)NC(C(C)C)C(=O)NC(CCC(=O)N)C(=O)NC(CC(C)C)CO
> <PUBCHEM_OPENEYE_ISO_SMILES>
CCCCCCCCCCCCCC(=O)NC(C)(C)C(=O)N1CCCC1C(=O)N[C@@H](CC(C)C)C(=O)N[C@@H](C(C)C)C(=O)N[C@@H](CCC(=O)N)C(=O)N[C@@H](CC(C)C)CO
> <PUBCHEM_CACTVS_TPSA>
229
> <PUBCHEM_MONOISOTOPIC_WEIGHT>
849.63031263
> <PUBCHEM_TOTAL_CHARGE>
0
> <PUBCHEM_HEAVY_ATOM_COUNT>
60
> <PUBCHEM_ATOM_DEF_STEREO_COUNT>
4
> <PUBCHEM_ATOM_UDEF_STEREO_COUNT>
1
> <PUBCHEM_BOND_DEF_STEREO_COUNT>
0
> <PUBCHEM_BOND_UDEF_STEREO_COUNT>
0
> <PUBCHEM_ISOTOPIC_ATOM_COUNT>
0
> <PUBCHEM_COMPONENT_COUNT>
1
> <PUBCHEM_CACTVS_TAUTO_COUNT>
-1
> <PUBCHEM_COORDINATE_TYPE>
1
5
255
> <PUBCHEM_BONDANNOTATIONS>
23  10  6
30  12  6
42  13  5
45  14  5
16  22  3
$$$$
