511596
  -OEChem-10302200282D
 36 38  0     1  0  0  0  0  0999 V2000
    2.8660   -3.9239    0.0000 Cl  0  0  0  0  0  0  0  0  0  0  0  0
    4.5981    0.0761    0.0000 N   0  0  0  0  0  0  0  0  0  0  0  0
    4.2320    3.1149    0.0000 N   0  0  0  0  0  0  0  0  0  0  0  0
    5.6808   -1.1264    0.0000 N   0  0  0  0  0  0  0  0  0  0  0  0
    3.7320    0.5761    0.0000 C   0  0  3  0  0  0  0  0  0  0  0  0
    2.8660    0.0761    0.0000 C   0  0  0  0  0  0  0  0  0  0  0  0
    3.7320    1.5761    0.0000 C   0  0  0  0  0  0  0  0  0  0  0  0
    2.8660   -0.9239    0.0000 C   0  0  0  0  0  0  0  0  0  0  0  0
    4.5411    2.1639    0.0000 C   0  0  0  0  0  0  0  0  0  0  0  0
    2.9230    2.1639    0.0000 C   0  0  0  0  0  0  0  0  0  0  0  0
    3.2320    3.1149    0.0000 C   0  0  0  0  0  0  0  0  0  0  0  0
    5.5116    0.4828    0.0000 C   0  0  0  0  0  0  0  0  0  0  0  0
    4.7026   -0.9185    0.0000 C   0  0  0  0  0  0  0  0  0  0  0  0
    3.7320   -1.4239    0.0000 C   0  0  0  0  0  0  0  0  0  0  0  0
    2.0000   -1.4239    0.0000 C   0  0  0  0  0  0  0  0  0  0  0  0
    4.8198    3.9239    0.0000 C   0  0  0  0  0  0  0  0  0  0  0  0
    6.1808   -0.2603    0.0000 C   0  0  0  0  0  0  0  0  0  0  0  0
    3.7320   -2.4239    0.0000 C   0  0  0  0  0  0  0  0  0  0  0  0
    2.0000   -2.4239    0.0000 C   0  0  0  0  0  0  0  0  0  0  0  0
    2.8660   -2.9239    0.0000 C   0  0  0  0  0  0  0  0  0  0  0  0
    3.7320   -0.0439    0.0000 H   0  0  0  0  0  0  0  0  0  0  0  0
    2.6540    0.6587    0.0000 H   0  0  0  0  0  0  0  0  0  0  0  0
    2.2554   -0.0316    0.0000 H   0  0  0  0  0  0  0  0  0  0  0  0
    5.1307    1.9723    0.0000 H   0  0  0  0  0  0  0  0  0  0  0  0
    2.3334    1.9723    0.0000 H   0  0  0  0  0  0  0  0  0  0  0  0
    2.8676    3.6165    0.0000 H   0  0  0  0  0  0  0  0  0  0  0  0
    5.6405    1.0893    0.0000 H   0  0  0  0  0  0  0  0  0  0  0  0
    4.2419   -1.3333    0.0000 H   0  0  0  0  0  0  0  0  0  0  0  0
    4.2690   -1.1139    0.0000 H   0  0  0  0  0  0  0  0  0  0  0  0
    1.4631   -1.1139    0.0000 H   0  0  0  0  0  0  0  0  0  0  0  0
    5.3214    3.5595    0.0000 H   0  0  0  0  0  0  0  0  0  0  0  0
    5.1843    4.4255    0.0000 H   0  0  0  0  0  0  0  0  0  0  0  0
    4.3182    4.2884    0.0000 H   0  0  0  0  0  0  0  0  0  0  0  0
    6.7974   -0.1955    0.0000 H   0  0  0  0  0  0  0  0  0  0  0  0
    4.2690   -2.7339    0.0000 H   0  0  0  0  0  0  0  0  0  0  0  0
    1.4631   -2.7339    0.0000 H   0  0  0  0  0  0  0  0  0  0  0  0
  1 20  1  0  0  0  0
  2  5  1  0  0  0  0
  2 12  1  0  0  0  0
  2 13  1  0  0  0  0
  3  9  1  0  0  0  0
  3 11  1  0  0  0  0
  3 16  1  0  0  0  0
  4 13  2  0  0  0  0
  4 17  1  0  0  0  0
  5  6  1  0  0  0  0
  5  7  1  0  0  0  0
  5 21  1  0  0  0  0
  6  8  1  0  0  0  0
  6 22  1  0  0  0  0
  6 23  1  0  0  0  0
  7  9  2  0  0  0  0
  7 10  1  0  0  0  0
  8 14  2  0  0  0  0
  8 15  1  0  0  0  0
  9 24  1  0  0  0  0
 10 11  2  0  0  0  0
 10 25  1  0  0  0  0
 11 26  1  0  0  0  0
 12 17  2  0  0  0  0
 12 27  1  0  0  0  0
 13 28  1  0  0  0  0
 14 18  1  0  0  0  0
 14 29  1  0  0  0  0
 15 19  2  0  0  0  0
 15 30  1  0  0  0  0
 16 31  1  0  0  0  0
 16 32  1  0  0  0  0
 16 33  1  0  0  0  0
 17 34  1  0  0  0  0
 18 20  2  0  0  0  0
 18 35  1  0  0  0  0
 19 20  1  0  0  0  0
 19 36  1  0  0  0  0
M  END
> <PUBCHEM_COMPOUND_CID>
511596
> <PUBCHEM_COMPOUND_CANONICALIZED>
1
> <PUBCHEM_CACTVS_COMPLEXITY>
304
> <PUBCHEM_CACTVS_HBOND_ACCEPTOR>
1
> <PUBCHEM_CACTVS_HBOND_DONOR>
0
> <PUBCHEM_CACTVS_ROTATABLE_BOND>
4
> <PUBCHEM_CACTVS_SUBSKEYS>
AAADceB7AAAEAAAAAAAAAAAAAAAAAWLAAAAwAAAAAAAAAAAB8AAAHAIAAAAADCrBGiQ/kJcMEACgAjBnZACCgC0xF6AJ2CA4dpiIaOLB25GUIAhogALIyCcQgMAOBAAAAAAAAAAIAAAAAAAAAAAAAAAAAA==
> <PUBCHEM_IUPAC_OPENEYE_NAME>
1-[2-(4-chlorophenyl)-1-(1-methylpyrrol-3-yl)ethyl]imidazole
> <PUBCHEM_IUPAC_CAS_NAME>
1-[2-(4-chlorophenyl)-1-(1-methyl-3-pyrrolyl)ethyl]imidazole
> <PUBCHEM_IUPAC_NAME_MARKUP>
1-[2-(4-chlorophenyl)-1-(1-methylpyrrol-3-yl)ethyl]imidazole
> <PUBCHEM_IUPAC_NAME>
1-[2-(4-chlorophenyl)-1-(1-methylpyrrol-3-yl)ethyl]imidazole
> <PUBCHEM_IUPAC_SYSTEMATIC_NAME>
1-[2-(4-chlorophenyl)-1-(1-methylpyrrol-3-yl)ethyl]imidazole
> <PUBCHEM_IUPAC_TRADITIONAL_NAME>
1-[2-(4-chlorophenyl)-1-(1-methylpyrrol-3-yl)ethyl]imidazole
> <PUBCHEM_IUPAC_INCHI>
InChI=1S/C16H16ClN3/c1-19-8-6-14(11-19)16(20-9-7-18-12-20)10-13-2-4-15(17)5-3-13/h2-9,11-12,16H,10H2,1H3
> <PUBCHEM_IUPAC_INCHIKEY>
LIHTWBXFDUXRLI-UHFFFAOYSA-N
> <PUBCHEM_XLOGP3_AA>
3
> <PUBCHEM_EXACT_MASS>
285.1032752
> <PUBCHEM_MOLECULAR_FORMULA>
C16H16ClN3
> <PUBCHEM_MOLECULAR_WEIGHT>
285.77
> <PUBCHEM_OPENEYE_CAN_SMILES>
CN1C=CC(=C1)C(CC2=CC=C(C=C2)Cl)N3C=CN=C3
> <PUBCHEM_OPENEYE_ISO_SMILES>
CN1C=CC(=C1)C(CC2=CC=C(C=C2)Cl)N3C=CN=C3
> <PUBCHEM_CACTVS_TPSA>
22.8
> <PUBCHEM_MONOISOTOPIC_WEIGHT>
285.1032752
> <PUBCHEM_TOTAL_CHARGE>
0
> <PUBCHEM_HEAVY_ATOM_COUNT>
20
> <PUBCHEM_ATOM_DEF_STEREO_COUNT>
0
> <PUBCHEM_ATOM_UDEF_STEREO_COUNT>
1
> <PUBCHEM_BOND_DEF_STEREO_COUNT>
0
> <PUBCHEM_BOND_UDEF_STEREO_COUNT>
0
> <PUBCHEM_ISOTOPIC_ATOM_COUNT>
0
> <PUBCHEM_COMPONENT_COUNT>
1
> <PUBCHEM_CACTVS_TAUTO_COUNT>
-1
> <PUBCHEM_COORDINATE_TYPE>
1
5
255
> <PUBCHEM_BONDANNOTATIONS>
10  11  8
12  17  8
14  18  8
15  19  8
18  20  8
19  20  8
2  12  8
2  13  8
3  11  8
3  9  8
4  13  8
4  17  8
5  6  3
7  10  8
7  9  8
8  14  8
8  15  8
$$$$
