511535
  -OEChem-10302200282D
 78 82  0     1  0  0  0  0  0999 V2000
    5.3147    1.6937    0.0000 Br  0  0  0  0  0  0  0  0  0  0  0  0
    7.3372    2.6957    0.0000 O   0  0  0  0  0  0  0  0  0  0  0  0
    5.3147   -0.3077    0.0000 O   0  0  0  0  0  0  0  0  0  0  0  0
   11.5398    1.6687    0.0000 O   0  0  0  0  0  0  0  0  0  0  0  0
   10.1021    4.5646    0.0000 O   0  0  0  0  0  0  0  0  0  0  0  0
    9.8037   -1.9364    0.0000 O   0  0  0  0  0  0  0  0  0  0  0  0
   11.2348   -0.9607    0.0000 O   0  0  0  0  0  0  0  0  0  0  0  0
    9.6742   -0.2092    0.0000 N   0  0  0  0  0  0  0  0  0  0  0  0
    8.6980    1.8180    0.0000 C   0  0  3  0  0  0  0  0  0  0  0  0
    8.1828    2.7402    0.0000 C   0  0  1  0  0  0  0  0  0  0  0  0
    9.6742    1.5952    0.0000 C   0  0  0  0  0  0  0  0  0  0  0  0
    7.9151    1.1937    0.0000 C   0  0  0  0  0  0  0  0  0  0  0  0
   10.1087    0.6930    0.0000 C   0  0  1  0  0  0  0  0  0  0  0  0
    9.7235    1.9437    0.0000 C   0  0  0  0  0  0  0  0  0  0  0  0
    8.6426    3.6297    0.0000 C   0  0  0  0  0  0  0  0  0  0  0  0
    7.9151    0.1923    0.0000 C   0  0  0  0  0  0  0  0  0  0  0  0
    7.0480    1.6944    0.0000 C   0  0  0  0  0  0  0  0  0  0  0  0
    8.6980   -0.4320    0.0000 C   0  0  0  0  0  0  0  0  0  0  0  0
   11.1059    0.7677    0.0000 C   0  0  0  0  0  0  0  0  0  0  0  0
   10.1833    2.8332    0.0000 C   0  0  0  0  0  0  0  0  0  0  0  0
    9.6429    3.6762    0.0000 C   0  0  0  0  0  0  0  0  0  0  0  0
    7.0480   -0.3083    0.0000 C   0  0  0  0  0  0  0  0  0  0  0  0
    6.1808    1.1937    0.0000 C   0  0  0  0  0  0  0  0  0  0  0  0
    3.5827   -3.3076    0.0000 C   0  0  0  0  0  0  0  0  0  0  0  0
    6.1808    0.1923    0.0000 C   0  0  0  0  0  0  0  0  0  0  0  0
    2.6691   -2.9009    0.0000 C   0  0  0  0  0  0  0  0  0  0  0  0
    3.4782   -4.3022    0.0000 C   0  0  0  0  0  0  0  0  0  0  0  0
    2.0000   -3.6441    0.0000 C   0  0  0  0  0  0  0  0  0  0  0  0
    2.5000   -4.5101    0.0000 C   0  0  0  0  0  0  0  0  0  0  0  0
    4.4487   -2.8077    0.0000 C   0  0  0  0  0  0  0  0  0  0  0  0
   10.2376   -1.0354    0.0000 C   0  0  0  0  0  0  0  0  0  0  0  0
    4.4487   -1.8076    0.0000 C   0  0  0  0  0  0  0  0  0  0  0  0
    5.3147   -1.3077    0.0000 C   0  0  0  0  0  0  0  0  0  0  0  0
   10.3670   -2.7626    0.0000 C   0  0  0  0  0  0  0  0  0  0  0  0
    9.9331   -3.6636    0.0000 C   0  0  0  0  0  0  0  0  0  0  0  0
    9.4992   -4.5646    0.0000 C   0  0  0  0  0  0  0  0  0  0  0  0
   10.8341   -4.0975    0.0000 C   0  0  0  0  0  0  0  0  0  0  0  0
    9.0322   -3.2297    0.0000 C   0  0  0  0  0  0  0  0  0  0  0  0
    7.7219    3.4544    0.0000 H   0  0  0  0  0  0  0  0  0  0  0  0
   10.2787    1.7332    0.0000 H   0  0  0  0  0  0  0  0  0  0  0  0
    9.6742    2.2152    0.0000 H   0  0  0  0  0  0  0  0  0  0  0  0
   10.4580    0.1807    0.0000 H   0  0  0  0  0  0  0  0  0  0  0  0
   10.0776    1.4348    0.0000 H   0  0  0  0  0  0  0  0  0  0  0  0
    8.7218    4.2446    0.0000 H   0  0  0  0  0  0  0  0  0  0  0  0
    8.0508    3.8145    0.0000 H   0  0  0  0  0  0  0  0  0  0  0  0
    8.2133   -0.8185    0.0000 H   0  0  0  0  0  0  0  0  0  0  0  0
    8.9670   -0.9906    0.0000 H   0  0  0  0  0  0  0  0  0  0  0  0
   11.0442    0.1508    0.0000 H   0  0  0  0  0  0  0  0  0  0  0  0
   11.7027    0.5998    0.0000 H   0  0  0  0  0  0  0  0  0  0  0  0
   10.8026    2.8620    0.0000 H   0  0  0  0  0  0  0  0  0  0  0  0
    7.0480   -0.9283    0.0000 H   0  0  0  0  0  0  0  0  0  0  0  0
    4.1026   -3.6453    0.0000 H   0  0  0  0  0  0  0  0  0  0  0  0
    2.9791   -2.3640    0.0000 H   0  0  0  0  0  0  0  0  0  0  0  0
    2.1675   -2.5365    0.0000 H   0  0  0  0  0  0  0  0  0  0  0  0
    3.5430   -4.9188    0.0000 H   0  0  0  0  0  0  0  0  0  0  0  0
    4.0982   -4.3022    0.0000 H   0  0  0  0  0  0  0  0  0  0  0  0
    1.5851   -3.1833    0.0000 H   0  0  0  0  0  0  0  0  0  0  0  0
    1.4984   -4.0085    0.0000 H   0  0  0  0  0  0  0  0  0  0  0  0
    1.9336   -4.7623    0.0000 H   0  0  0  0  0  0  0  0  0  0  0  0
    2.6916   -5.0997    0.0000 H   0  0  0  0  0  0  0  0  0  0  0  0
    4.6608   -3.3903    0.0000 H   0  0  0  0  0  0  0  0  0  0  0  0
    5.0593   -2.7000    0.0000 H   0  0  0  0  0  0  0  0  0  0  0  0
    4.2366   -1.2250    0.0000 H   0  0  0  0  0  0  0  0  0  0  0  0
    3.8381   -1.9153    0.0000 H   0  0  0  0  0  0  0  0  0  0  0  0
    5.5268   -1.8903    0.0000 H   0  0  0  0  0  0  0  0  0  0  0  0
    5.9253   -1.2000    0.0000 H   0  0  0  0  0  0  0  0  0  0  0  0
   12.1581    1.7150    0.0000 H   0  0  0  0  0  0  0  0  0  0  0  0
   10.8704   -3.1245    0.0000 H   0  0  0  0  0  0  0  0  0  0  0  0
   10.8108   -2.3297    0.0000 H   0  0  0  0  0  0  0  0  0  0  0  0
    8.9406   -4.2956    0.0000 H   0  0  0  0  0  0  0  0  0  0  0  0
    9.2302   -5.1232    0.0000 H   0  0  0  0  0  0  0  0  0  0  0  0
   10.0578   -4.8336    0.0000 H   0  0  0  0  0  0  0  0  0  0  0  0
   10.5651   -4.6561    0.0000 H   0  0  0  0  0  0  0  0  0  0  0  0
   11.3927   -4.3665    0.0000 H   0  0  0  0  0  0  0  0  0  0  0  0
   11.1031   -3.5389    0.0000 H   0  0  0  0  0  0  0  0  0  0  0  0
    9.3012   -2.6711    0.0000 H   0  0  0  0  0  0  0  0  0  0  0  0
    8.4736   -2.9607    0.0000 H   0  0  0  0  0  0  0  0  0  0  0  0
    8.7632   -3.7883    0.0000 H   0  0  0  0  0  0  0  0  0  0  0  0
  1 23  1  0  0  0  0
  2 10  1  0  0  0  0
  2 17  1  0  0  0  0
  3 25  1  0  0  0  0
  3 33  1  0  0  0  0
  4 19  1  0  0  0  0
  4 67  1  0  0  0  0
  5 21  2  0  0  0  0
  6 31  1  0  0  0  0
  6 34  1  0  0  0  0
  7 31  2  0  0  0  0
  8 13  1  0  0  0  0
  8 18  1  0  0  0  0
  8 31  1  0  0  0  0
  9 10  1  0  0  0  0
  9 11  1  0  0  0  0
  9 12  1  0  0  0  0
  9 14  1  0  0  0  0
 10 15  1  0  0  0  0
 10 39  1  1  0  0  0
 11 13  1  0  0  0  0
 11 40  1  0  0  0  0
 11 41  1  0  0  0  0
 12 16  1  0  0  0  0
 12 17  2  0  0  0  0
 13 19  1  1  0  0  0
 13 42  1  0  0  0  0
 14 20  2  0  0  0  0
 14 43  1  0  0  0  0
 15 21  1  0  0  0  0
 15 44  1  0  0  0  0
 15 45  1  0  0  0  0
 16 18  1  0  0  0  0
 16 22  2  0  0  0  0
 17 23  1  0  0  0  0
 18 46  1  0  0  0  0
 18 47  1  0  0  0  0
 19 48  1  0  0  0  0
 19 49  1  0  0  0  0
 20 21  1  0  0  0  0
 20 50  1  0  0  0  0
 22 25  1  0  0  0  0
 22 51  1  0  0  0  0
 23 25  2  0  0  0  0
 24 26  1  0  0  0  0
 24 27  1  0  0  0  0
 24 30  1  0  0  0  0
 24 52  1  0  0  0  0
 26 28  1  0  0  0  0
 26 53  1  0  0  0  0
 26 54  1  0  0  0  0
 27 29  1  0  0  0  0
 27 55  1  0  0  0  0
 27 56  1  0  0  0  0
 28 29  1  0  0  0  0
 28 57  1  0  0  0  0
 28 58  1  0  0  0  0
 29 59  1  0  0  0  0
 29 60  1  0  0  0  0
 30 32  1  0  0  0  0
 30 61  1  0  0  0  0
 30 62  1  0  0  0  0
 32 33  1  0  0  0  0
 32 63  1  0  0  0  0
 32 64  1  0  0  0  0
 33 65  1  0  0  0  0
 33 66  1  0  0  0  0
 34 35  1  0  0  0  0
 34 68  1  0  0  0  0
 34 69  1  0  0  0  0
 35 36  1  0  0  0  0
 35 37  1  0  0  0  0
 35 38  1  0  0  0  0
 36 70  1  0  0  0  0
 36 71  1  0  0  0  0
 36 72  1  0  0  0  0
 37 73  1  0  0  0  0
 37 74  1  0  0  0  0
 37 75  1  0  0  0  0
 38 76  1  0  0  0  0
 38 77  1  0  0  0  0
 38 78  1  0  0  0  0
M  END
> <PUBCHEM_COMPOUND_CID>
511535
> <PUBCHEM_COMPOUND_CANONICALIZED>
1
> <PUBCHEM_CACTVS_COMPLEXITY>
898
> <PUBCHEM_CACTVS_HBOND_ACCEPTOR>
6
> <PUBCHEM_CACTVS_HBOND_DONOR>
1
> <PUBCHEM_CACTVS_ROTATABLE_BOND>
9
> <PUBCHEM_CACTVS_SUBSKEYS>
AAADcfB6OAAAEAAAAAAAAAAAAAAAAaIAAAAwQAAABYAAAEixAAAAHgBACAABrzzhmAYyDoMABgCIAqBSGACCCAAgIAQIiAEODOgONzaEsRuOeCjl5hWYq5e4+P+PogABGAAYBABEAAIwADAIAAAAAAAAAA==
> <PUBCHEM_IUPAC_OPENEYE_NAME>
2,2-dimethylpropyl (3S,12R)-9-bromo-8-(3-cyclopentylpropoxy)-3-(hydroxymethyl)-14-oxo-11-oxa-4-azatetracyclo[8.6.1.01,12.06,17]heptadeca-6,8,10(17),15-tetraene-4-carboxylate
> <PUBCHEM_IUPAC_CAS_NAME>
(3S,12R)-9-bromo-8-(3-cyclopentylpropoxy)-3-(hydroxymethyl)-14-oxo-11-oxa-4-azatetracyclo[8.6.1.01,12.06,17]heptadeca-6,8,10(17),15-tetraene-4-carboxylic acid 2,2-dimethylpropyl ester
> <PUBCHEM_IUPAC_NAME_MARKUP>
2,2-dimethylpropyl (3<I>S</I>,12<I>R</I>)-9-bromo-8-(3-cyclopentylpropoxy)-3-(hydroxymethyl)-14-oxo-11-oxa-4-azatetracyclo[8.6.1.0<SUP>1,12</SUP>.0<SUP>6,17</SUP>]heptadeca-6,8,10(17),15-tetraene-4-carboxylate
> <PUBCHEM_IUPAC_NAME>
2,2-dimethylpropyl (3S,12R)-9-bromo-8-(3-cyclopentylpropoxy)-3-(hydroxymethyl)-14-oxo-11-oxa-4-azatetracyclo[8.6.1.01,12.06,17]heptadeca-6,8,10(17),15-tetraene-4-carboxylate
> <PUBCHEM_IUPAC_SYSTEMATIC_NAME>
2,2-dimethylpropyl (3S,12R)-9-bromanyl-8-(3-cyclopentylpropoxy)-3-(hydroxymethyl)-14-oxidanylidene-11-oxa-4-azatetracyclo[8.6.1.01,12.06,17]heptadeca-6,8,10(17),15-tetraene-4-carboxylate
> <PUBCHEM_IUPAC_TRADITIONAL_NAME>
(3S,12R)-9-bromo-8-(3-cyclopentylpropoxy)-14-keto-3-methylol-11-oxa-4-azatetracyclo[8.6.1.01,12.06,17]heptadeca-6,8,10(17),15-tetraene-4-carboxylic acid neopentyl ester
> <PUBCHEM_IUPAC_INCHI>
InChI=1S/C30H40BrNO6/c1-29(2,3)18-37-28(35)32-16-20-13-23(36-12-6-9-19-7-4-5-8-19)26(31)27-25(20)30(15-21(32)17-33)11-10-22(34)14-24(30)38-27/h10-11,13,19,21,24,33H,4-9,12,14-18H2,1-3H3/t21-,24+,30?/m0/s1
> <PUBCHEM_IUPAC_INCHIKEY>
AXGHJBVZARCAON-LWGYQOPOSA-N
> <PUBCHEM_XLOGP3_AA>
6.3
> <PUBCHEM_EXACT_MASS>
589.20390
> <PUBCHEM_MOLECULAR_FORMULA>
C30H40BrNO6
> <PUBCHEM_MOLECULAR_WEIGHT>
590.5
> <PUBCHEM_OPENEYE_CAN_SMILES>
CC(C)(C)COC(=O)N1CC2=CC(=C(C3=C2C4(CC1CO)C=CC(=O)CC4O3)Br)OCCCC5CCCC5
> <PUBCHEM_OPENEYE_ISO_SMILES>
CC(C)(C)COC(=O)N1CC2=CC(=C(C3=C2C4(C[C@H]1CO)C=CC(=O)C[C@H]4O3)Br)OCCCC5CCCC5
> <PUBCHEM_CACTVS_TPSA>
85.3
> <PUBCHEM_MONOISOTOPIC_WEIGHT>
589.20390
> <PUBCHEM_TOTAL_CHARGE>
0
> <PUBCHEM_HEAVY_ATOM_COUNT>
38
> <PUBCHEM_ATOM_DEF_STEREO_COUNT>
2
> <PUBCHEM_ATOM_UDEF_STEREO_COUNT>
1
> <PUBCHEM_BOND_DEF_STEREO_COUNT>
0
> <PUBCHEM_BOND_UDEF_STEREO_COUNT>
0
> <PUBCHEM_ISOTOPIC_ATOM_COUNT>
0
> <PUBCHEM_COMPONENT_COUNT>
1
> <PUBCHEM_CACTVS_TAUTO_COUNT>
-1
> <PUBCHEM_COORDINATE_TYPE>
1
5
255
> <PUBCHEM_BONDANNOTATIONS>
10  39  5
12  16  8
12  17  8
13  19  5
16  22  8
17  23  8
22  25  8
23  25  8
9  11  3
$$$$
