511577
  -OEChem-10302200282D
138138  0     1  0  0  0  0  0999 V2000
   11.7100    2.5866    0.0000 O   0  0  0  0  0  0  0  0  0  0  0  0
    9.7562   -1.2613    0.0000 O   0  0  0  0  0  0  0  0  0  0  0  0
    8.6542   -0.4607    0.0000 O   0  0  0  0  0  0  0  0  0  0  0  0
    5.4737    1.2377    0.0000 O   0  0  0  0  0  0  0  0  0  0  0  0
   11.4882   -3.2613    0.0000 O   0  0  0  0  0  0  0  0  0  0  0  0
    7.0485    4.4812    0.0000 O   0  0  0  0  0  0  0  0  0  0  0  0
    3.8680    6.1796    0.0000 O   0  0  0  0  0  0  0  0  0  0  0  0
    2.5896    8.4960    0.0000 O   0  0  0  0  0  0  0  0  0  0  0  0
    8.4154    6.7465    0.0000 O   0  0  0  0  0  0  0  0  0  0  0  0
   10.6222    0.2387    0.0000 N   0  0  0  0  0  0  0  0  0  0  0  0
    8.1190    1.1866    0.0000 N   0  0  0  0  0  0  0  0  0  0  0  0
   12.3543   -1.7613    0.0000 N   0  0  0  0  0  0  0  0  0  0  0  0
    6.6327    2.5249    0.0000 N   0  0  0  0  0  0  0  0  0  0  0  0
    5.3543    4.8413    0.0000 N   0  0  0  0  0  0  0  0  0  0  0  0
    5.0270    7.4667    0.0000 N   0  0  0  0  0  0  0  0  0  0  0  0
    7.8802    8.3938    0.0000 N   0  0  0  0  0  0  0  0  0  0  0  0
    9.8132    0.8265    0.0000 C   0  0  3  0  0  0  0  0  0  0  0  0
   10.1222    1.7776    0.0000 C   0  0  0  0  0  0  0  0  0  0  0  0
   11.1222    1.7776    0.0000 C   0  0  1  0  0  0  0  0  0  0  0  0
   11.4312    0.8265    0.0000 C   0  0  0  0  0  0  0  0  0  0  0  0
   10.6222   -0.7613    0.0000 C   0  0  0  0  0  0  0  0  0  0  0  0
   11.4882   -1.2613    0.0000 C   0  0  0  0  0  0  0  0  0  0  0  0
    8.8621    0.5175    0.0000 C   0  0  0  0  0  0  0  0  0  0  0  0
    7.1679    0.8776    0.0000 C   0  0  1  0  0  0  0  0  0  0  0  0
   10.9882   -2.1273    0.0000 C   0  0  0  0  0  0  0  0  0  0  0  0
   11.9882   -0.3952    0.0000 C   0  0  0  0  0  0  0  0  0  0  0  0
    6.9600   -0.1005    0.0000 C   0  0  0  0  0  0  0  0  0  0  0  0
    6.0090   -0.4096    0.0000 C   0  0  0  0  0  0  0  0  0  0  0  0
    6.4248    1.5467    0.0000 C   0  0  0  0  0  0  0  0  0  0  0  0
   12.3543   -2.7613    0.0000 C   0  0  0  0  0  0  0  0  0  0  0  0
    5.8896    3.1940    0.0000 C   0  0  1  0  0  0  0  0  0  0  0  0
   13.2203   -3.2613    0.0000 C   0  0  0  0  0  0  0  0  0  0  0  0
    4.9385    2.8850    0.0000 C   0  0  0  0  0  0  0  0  0  0  0  0
    5.8010   -1.3877    0.0000 C   0  0  0  0  0  0  0  0  0  0  0  0
    5.2658    0.2596    0.0000 C   0  0  0  0  0  0  0  0  0  0  0  0
   13.2203   -4.2613    0.0000 C   0  0  0  0  0  0  0  0  0  0  0  0
   14.0863   -4.7613    0.0000 C   0  0  0  0  0  0  0  0  0  0  0  0
    6.0975    4.1722    0.0000 C   0  0  0  0  0  0  0  0  0  0  0  0
   14.0863   -5.7613    0.0000 C   0  0  0  0  0  0  0  0  0  0  0  0
    4.1954    3.5541    0.0000 C   0  0  0  0  0  0  0  0  0  0  0  0
    4.7306    1.9068    0.0000 C   0  0  0  0  0  0  0  0  0  0  0  0
    5.5622    5.8194    0.0000 C   0  0  1  0  0  0  0  0  0  0  0  0
   14.9523   -6.2613    0.0000 C   0  0  0  0  0  0  0  0  0  0  0  0
   14.9523   -7.2613    0.0000 C   0  0  0  0  0  0  0  0  0  0  0  0
    4.2839    8.1358    0.0000 C   0  0  1  0  0  0  0  0  0  0  0  0
    6.5133    6.1285    0.0000 C   0  0  0  0  0  0  0  0  0  0  0  0
    4.4918    9.1140    0.0000 C   0  0  0  0  0  0  0  0  0  0  0  0
    4.8191    6.4886    0.0000 C   0  0  0  0  0  0  0  0  0  0  0  0
   15.8184   -7.7613    0.0000 C   0  0  0  0  0  0  0  0  0  0  0  0
    3.7486    9.7831    0.0000 C   0  0  0  0  0  0  0  0  0  0  0  0
   15.8184   -8.7613    0.0000 C   0  0  0  0  0  0  0  0  0  0  0  0
    6.7212    7.1066    0.0000 C   0  0  0  0  0  0  0  0  0  0  0  0
    3.3328    7.8268    0.0000 C   0  0  0  0  0  0  0  0  0  0  0  0
   16.6844   -9.2613    0.0000 C   0  0  0  0  0  0  0  0  0  0  0  0
    3.9565   10.7613    0.0000 C   0  0  0  0  0  0  0  0  0  0  0  0
    2.7976    9.4741    0.0000 C   0  0  0  0  0  0  0  0  0  0  0  0
   16.6844  -10.2613    0.0000 C   0  0  0  0  0  0  0  0  0  0  0  0
    7.6723    7.4156    0.0000 C   0  0  0  0  0  0  0  0  0  0  0  0
   17.5504  -10.7613    0.0000 C   0  0  0  0  0  0  0  0  0  0  0  0
    9.7162    0.2141    0.0000 H   0  0  0  0  0  0  0  0  0  0  0  0
   10.1870    2.3942    0.0000 H   0  0  0  0  0  0  0  0  0  0  0  0
    9.5158    1.9065    0.0000 H   0  0  0  0  0  0  0  0  0  0  0  0
   10.8407    2.3300    0.0000 H   0  0  0  0  0  0  0  0  0  0  0  0
   11.7412    0.2896    0.0000 H   0  0  0  0  0  0  0  0  0  0  0  0
   11.9976    1.0787    0.0000 H   0  0  0  0  0  0  0  0  0  0  0  0
    7.6287    0.4627    0.0000 H   0  0  0  0  0  0  0  0  0  0  0  0
    8.2479    1.7931    0.0000 H   0  0  0  0  0  0  0  0  0  0  0  0
   11.4578    3.1530    0.0000 H   0  0  0  0  0  0  0  0  0  0  0  0
   10.4513   -1.8173    0.0000 H   0  0  0  0  0  0  0  0  0  0  0  0
   10.6782   -2.6642    0.0000 H   0  0  0  0  0  0  0  0  0  0  0  0
   11.5252   -2.4373    0.0000 H   0  0  0  0  0  0  0  0  0  0  0  0
   12.5252   -0.7052    0.0000 H   0  0  0  0  0  0  0  0  0  0  0  0
   12.2982    0.1417    0.0000 H   0  0  0  0  0  0  0  0  0  0  0  0
   11.4513   -0.0853    0.0000 H   0  0  0  0  0  0  0  0  0  0  0  0
    7.0463   -0.7145    0.0000 H   0  0  0  0  0  0  0  0  0  0  0  0
    7.5796   -0.1222    0.0000 H   0  0  0  0  0  0  0  0  0  0  0  0
   12.8912   -1.4513    0.0000 H   0  0  0  0  0  0  0  0  0  0  0  0
    5.4193   -0.6011    0.0000 H   0  0  0  0  0  0  0  0  0  0  0  0
    6.4792    3.3856    0.0000 H   0  0  0  0  0  0  0  0  0  0  0  0
    7.2224    2.7165    0.0000 H   0  0  0  0  0  0  0  0  0  0  0  0
   13.8309   -3.3689    0.0000 H   0  0  0  0  0  0  0  0  0  0  0  0
   13.4323   -2.6787    0.0000 H   0  0  0  0  0  0  0  0  0  0  0  0
    5.3992    2.4701    0.0000 H   0  0  0  0  0  0  0  0  0  0  0  0
    5.1946   -1.2588    0.0000 H   0  0  0  0  0  0  0  0  0  0  0  0
    5.6722   -1.9942    0.0000 H   0  0  0  0  0  0  0  0  0  0  0  0
    6.4075   -1.5166    0.0000 H   0  0  0  0  0  0  0  0  0  0  0  0
    5.6807    0.7203    0.0000 H   0  0  0  0  0  0  0  0  0  0  0  0
    4.8051    0.6744    0.0000 H   0  0  0  0  0  0  0  0  0  0  0  0
    4.8510   -0.2012    0.0000 H   0  0  0  0  0  0  0  0  0  0  0  0
   12.6097   -4.1536    0.0000 H   0  0  0  0  0  0  0  0  0  0  0  0
   13.0082   -4.8439    0.0000 H   0  0  0  0  0  0  0  0  0  0  0  0
   14.6969   -4.8689    0.0000 H   0  0  0  0  0  0  0  0  0  0  0  0
   14.2984   -4.1787    0.0000 H   0  0  0  0  0  0  0  0  0  0  0  0
   13.4757   -5.6536    0.0000 H   0  0  0  0  0  0  0  0  0  0  0  0
   13.8743   -6.3439    0.0000 H   0  0  0  0  0  0  0  0  0  0  0  0
    4.6102    4.0149    0.0000 H   0  0  0  0  0  0  0  0  0  0  0  0
    3.7346    3.9690    0.0000 H   0  0  0  0  0  0  0  0  0  0  0  0
    3.7805    3.0934    0.0000 H   0  0  0  0  0  0  0  0  0  0  0  0
    4.1241    2.0358    0.0000 H   0  0  0  0  0  0  0  0  0  0  0  0
    4.6017    1.3004    0.0000 H   0  0  0  0  0  0  0  0  0  0  0  0
    5.3370    1.7780    0.0000 H   0  0  0  0  0  0  0  0  0  0  0  0
    6.0230    5.4046    0.0000 H   0  0  0  0  0  0  0  0  0  0  0  0
    4.7647    4.6497    0.0000 H   0  0  0  0  0  0  0  0  0  0  0  0
   15.5629   -6.3689    0.0000 H   0  0  0  0  0  0  0  0  0  0  0  0
   15.1644   -5.6787    0.0000 H   0  0  0  0  0  0  0  0  0  0  0  0
   14.3418   -7.1536    0.0000 H   0  0  0  0  0  0  0  0  0  0  0  0
   14.7403   -7.8439    0.0000 H   0  0  0  0  0  0  0  0  0  0  0  0
    4.8735    8.3274    0.0000 H   0  0  0  0  0  0  0  0  0  0  0  0
    6.5996    5.5145    0.0000 H   0  0  0  0  0  0  0  0  0  0  0  0
    7.1329    6.1068    0.0000 H   0  0  0  0  0  0  0  0  0  0  0  0
    5.0666    8.8817    0.0000 H   0  0  0  0  0  0  0  0  0  0  0  0
    4.8203    9.6398    0.0000 H   0  0  0  0  0  0  0  0  0  0  0  0
   16.4289   -7.8689    0.0000 H   0  0  0  0  0  0  0  0  0  0  0  0
   16.0304   -7.1787    0.0000 H   0  0  0  0  0  0  0  0  0  0  0  0
    3.2879   10.1980    0.0000 H   0  0  0  0  0  0  0  0  0  0  0  0
    5.6167    7.6583    0.0000 H   0  0  0  0  0  0  0  0  0  0  0  0
   15.2078   -8.6536    0.0000 H   0  0  0  0  0  0  0  0  0  0  0  0
   15.6063   -9.3439    0.0000 H   0  0  0  0  0  0  0  0  0  0  0  0
    6.6349    7.7206    0.0000 H   0  0  0  0  0  0  0  0  0  0  0  0
    6.1016    7.1282    0.0000 H   0  0  0  0  0  0  0  0  0  0  0  0
    2.8442    7.4451    0.0000 H   0  0  0  0  0  0  0  0  0  0  0  0
    3.6239    7.2794    0.0000 H   0  0  0  0  0  0  0  0  0  0  0  0
   17.2950   -9.3689    0.0000 H   0  0  0  0  0  0  0  0  0  0  0  0
   16.8964   -8.6787    0.0000 H   0  0  0  0  0  0  0  0  0  0  0  0
    4.5630   10.6324    0.0000 H   0  0  0  0  0  0  0  0  0  0  0  0
    4.0854   11.3677    0.0000 H   0  0  0  0  0  0  0  0  0  0  0  0
    3.3501   10.8902    0.0000 H   0  0  0  0  0  0  0  0  0  0  0  0
    2.6060   10.0638    0.0000 H   0  0  0  0  0  0  0  0  0  0  0  0
    2.2079    9.2825    0.0000 H   0  0  0  0  0  0  0  0  0  0  0  0
    2.9892    8.8845    0.0000 H   0  0  0  0  0  0  0  0  0  0  0  0
   16.0738  -10.1536    0.0000 H   0  0  0  0  0  0  0  0  0  0  0  0
   16.4723  -10.8439    0.0000 H   0  0  0  0  0  0  0  0  0  0  0  0
    2.0000    8.3044    0.0000 H   0  0  0  0  0  0  0  0  0  0  0  0
   17.2404  -11.2982    0.0000 H   0  0  0  0  0  0  0  0  0  0  0  0
   18.0873  -11.0713    0.0000 H   0  0  0  0  0  0  0  0  0  0  0  0
   17.8604  -10.2243    0.0000 H   0  0  0  0  0  0  0  0  0  0  0  0
    8.4698    8.5854    0.0000 H   0  0  0  0  0  0  0  0  0  0  0  0
    7.4194    8.8086    0.0000 H   0  0  0  0  0  0  0  0  0  0  0  0
 19  1  1  6  0  0  0
  1 68  1  0  0  0  0
  2 21  2  0  0  0  0
  3 23  2  0  0  0  0
  4 29  2  0  0  0  0
  5 30  2  0  0  0  0
  6 38  2  0  0  0  0
  7 48  2  0  0  0  0
  8 53  1  0  0  0  0
  8133  1  0  0  0  0
  9 58  2  0  0  0  0
 10 17  1  0  0  0  0
 10 20  1  0  0  0  0
 10 21  1  0  0  0  0
 11 23  1  0  0  0  0
 24 11  1  1  0  0  0
 11 67  1  0  0  0  0
 12 22  1  0  0  0  0
 12 30  1  0  0  0  0
 12 77  1  0  0  0  0
 13 29  1  0  0  0  0
 31 13  1  1  0  0  0
 13 80  1  0  0  0  0
 14 38  1  0  0  0  0
 42 14  1  6  0  0  0
 14103  1  0  0  0  0
 45 15  1  6  0  0  0
 15 48  1  0  0  0  0
 15116  1  0  0  0  0
 16 58  1  0  0  0  0
 16137  1  0  0  0  0
 16138  1  0  0  0  0
 17 18  1  0  0  0  0
 17 23  1  0  0  0  0
 17 60  1  0  0  0  0
 18 19  1  0  0  0  0
 18 61  1  0  0  0  0
 18 62  1  0  0  0  0
 19 20  1  0  0  0  0
 19 63  1  0  0  0  0
 20 64  1  0  0  0  0
 20 65  1  0  0  0  0
 21 22  1  0  0  0  0
 22 25  1  0  0  0  0
 22 26  1  0  0  0  0
 24 27  1  0  0  0  0
 24 29  1  0  0  0  0
 24 66  1  0  0  0  0
 25 69  1  0  0  0  0
 25 70  1  0  0  0  0
 25 71  1  0  0  0  0
 26 72  1  0  0  0  0
 26 73  1  0  0  0  0
 26 74  1  0  0  0  0
 27 28  1  0  0  0  0
 27 75  1  0  0  0  0
 27 76  1  0  0  0  0
 28 34  1  0  0  0  0
 28 35  1  0  0  0  0
 28 78  1  0  0  0  0
 30 32  1  0  0  0  0
 31 33  1  0  0  0  0
 31 38  1  0  0  0  0
 31 79  1  0  0  0  0
 32 36  1  0  0  0  0
 32 81  1  0  0  0  0
 32 82  1  0  0  0  0
 33 40  1  0  0  0  0
 33 41  1  0  0  0  0
 33 83  1  0  0  0  0
 34 84  1  0  0  0  0
 34 85  1  0  0  0  0
 34 86  1  0  0  0  0
 35 87  1  0  0  0  0
 35 88  1  0  0  0  0
 35 89  1  0  0  0  0
 36 37  1  0  0  0  0
 36 90  1  0  0  0  0
 36 91  1  0  0  0  0
 37 39  1  0  0  0  0
 37 92  1  0  0  0  0
 37 93  1  0  0  0  0
 39 43  1  0  0  0  0
 39 94  1  0  0  0  0
 39 95  1  0  0  0  0
 40 96  1  0  0  0  0
 40 97  1  0  0  0  0
 40 98  1  0  0  0  0
 41 99  1  0  0  0  0
 41100  1  0  0  0  0
 41101  1  0  0  0  0
 42 46  1  0  0  0  0
 42 48  1  0  0  0  0
 42102  1  0  0  0  0
 43 44  1  0  0  0  0
 43104  1  0  0  0  0
 43105  1  0  0  0  0
 44 49  1  0  0  0  0
 44106  1  0  0  0  0
 44107  1  0  0  0  0
 45 47  1  0  0  0  0
 45 53  1  0  0  0  0
 45108  1  0  0  0  0
 46 52  1  0  0  0  0
 46109  1  0  0  0  0
 46110  1  0  0  0  0
 47 50  1  0  0  0  0
 47111  1  0  0  0  0
 47112  1  0  0  0  0
 49 51  1  0  0  0  0
 49113  1  0  0  0  0
 49114  1  0  0  0  0
 50 55  1  0  0  0  0
 50 56  1  0  0  0  0
 50115  1  0  0  0  0
 51 54  1  0  0  0  0
 51117  1  0  0  0  0
 51118  1  0  0  0  0
 52 58  1  0  0  0  0
 52119  1  0  0  0  0
 52120  1  0  0  0  0
 53121  1  0  0  0  0
 53122  1  0  0  0  0
 54 57  1  0  0  0  0
 54123  1  0  0  0  0
 54124  1  0  0  0  0
 55125  1  0  0  0  0
 55126  1  0  0  0  0
 55127  1  0  0  0  0
 56128  1  0  0  0  0
 56129  1  0  0  0  0
 56130  1  0  0  0  0
 57 59  1  0  0  0  0
 57131  1  0  0  0  0
 57132  1  0  0  0  0
 59134  1  0  0  0  0
 59135  1  0  0  0  0
 59136  1  0  0  0  0
M  END
> <PUBCHEM_COMPOUND_CID>
511577
> <PUBCHEM_COMPOUND_CANONICALIZED>
1
> <PUBCHEM_CACTVS_COMPLEXITY>
1360
> <PUBCHEM_CACTVS_HBOND_ACCEPTOR>
9
> <PUBCHEM_CACTVS_HBOND_DONOR>
8
> <PUBCHEM_CACTVS_ROTATABLE_BOND>
29
> <PUBCHEM_CACTVS_SUBSKEYS>
AAADcfB/vAAAAAAAAAAAAAAAAAAAAWAAAAAAAAAAAAAAAAAAAAAAHgAQCAAADbzhgAYCAAPAAgAIAAEQEAAAAAAAAAAAAIGIAAACUBIAgCAUQAAGFgCQAAG+i4CMAAAAAAAAAAAAAAAAAAAAAAAAAAAAAA==
> <PUBCHEM_IUPAC_OPENEYE_NAME>
(2S)-2-[[(2S)-2-[[(2S)-2-[[(4S)-1-[2-(dodecanoylamino)-2-methyl-propanoyl]-4-hydroxy-pyrrolidine-2-carbonyl]amino]-4-methyl-pentanoyl]amino]-3-methyl-butanoyl]amino]-N-[(1S)-1-(hydroxymethyl)-3-methyl-butyl]pentanediamide
> <PUBCHEM_IUPAC_CAS_NAME>
(2S)-2-[[(2S)-2-[[(2S)-2-[[[(4S)-4-hydroxy-1-[2-methyl-1-oxo-2-(1-oxododecylamino)propyl]-2-pyrrolidinyl]-oxomethyl]amino]-4-methyl-1-oxopentyl]amino]-3-methyl-1-oxobutyl]amino]-N-[(2S)-1-hydroxy-4-methylpentan-2-yl]pentanediamide
> <PUBCHEM_IUPAC_NAME_MARKUP>
(2<I>S</I>)-2-[[(2<I>S</I>)-2-[[(2<I>S</I>)-2-[[(4<I>S</I>)-1-[2-(dodecanoylamino)-2-methylpropanoyl]-4-hydroxypyrrolidine-2-carbonyl]amino]-4-methylpentanoyl]amino]-3-methylbutanoyl]amino]-<I>N</I>-[(2<I>S</I>)-1-hydroxy-4-methylpentan-2-yl]pentanediamide
> <PUBCHEM_IUPAC_NAME>
(2S)-2-[[(2S)-2-[[(2S)-2-[[(4S)-1-[2-(dodecanoylamino)-2-methylpropanoyl]-4-hydroxypyrrolidine-2-carbonyl]amino]-4-methylpentanoyl]amino]-3-methylbutanoyl]amino]-N-[(2S)-1-hydroxy-4-methylpentan-2-yl]pentanediamide
> <PUBCHEM_IUPAC_SYSTEMATIC_NAME>
(2S)-2-[[(2S)-2-[[(2S)-2-[[(4S)-1-[2-(dodecanoylamino)-2-methyl-propanoyl]-4-oxidanyl-pyrrolidin-2-yl]carbonylamino]-4-methyl-pentanoyl]amino]-3-methyl-butanoyl]amino]-N-[(2S)-4-methyl-1-oxidanyl-pentan-2-yl]pentanediamide
> <PUBCHEM_IUPAC_TRADITIONAL_NAME>
(2S)-2-[[(2S)-2-[[(2S)-2-[[(4S)-4-hydroxy-1-[2-(lauroylamino)-2-methyl-propanoyl]prolyl]amino]-4-methyl-pentanoyl]amino]-3-methyl-butanoyl]amino]-N-[(1S)-3-methyl-1-methylol-butyl]glutaramide
> <PUBCHEM_IUPAC_INCHI>
InChI=1S/C43H79N7O9/c1-10-11-12-13-14-15-16-17-18-19-36(54)49-43(8,9)42(59)50-25-31(52)24-34(50)40(57)47-33(23-28(4)5)39(56)48-37(29(6)7)41(58)46-32(20-21-35(44)53)38(55)45-30(26-51)22-27(2)3/h27-34,37,51-52H,10-26H2,1-9H3,(H2,44,53)(H,45,55)(H,46,58)(H,47,57)(H,48,56)(H,49,54)/t30-,31-,32-,33-,34?,37-/m0/s1
> <PUBCHEM_IUPAC_INCHIKEY>
XLHSKXDZYNSELH-NJCBQLJASA-N
> <PUBCHEM_XLOGP3_AA>
5.1
> <PUBCHEM_EXACT_MASS>
837.59392712
> <PUBCHEM_MOLECULAR_FORMULA>
C43H79N7O9
> <PUBCHEM_MOLECULAR_WEIGHT>
838.1
> <PUBCHEM_OPENEYE_CAN_SMILES>
CCCCCCCCCCCC(=O)NC(C)(C)C(=O)N1CC(CC1C(=O)NC(CC(C)C)C(=O)NC(C(C)C)C(=O)NC(CCC(=O)N)C(=O)NC(CC(C)C)CO)O
> <PUBCHEM_OPENEYE_ISO_SMILES>
CCCCCCCCCCCC(=O)NC(C)(C)C(=O)N1C[C@H](CC1C(=O)N[C@@H](CC(C)C)C(=O)N[C@@H](C(C)C)C(=O)N[C@@H](CCC(=O)N)C(=O)N[C@@H](CC(C)C)CO)O
> <PUBCHEM_CACTVS_TPSA>
249
> <PUBCHEM_MONOISOTOPIC_WEIGHT>
837.59392712
> <PUBCHEM_TOTAL_CHARGE>
0
> <PUBCHEM_HEAVY_ATOM_COUNT>
59
> <PUBCHEM_ATOM_DEF_STEREO_COUNT>
5
> <PUBCHEM_ATOM_UDEF_STEREO_COUNT>
1
> <PUBCHEM_BOND_DEF_STEREO_COUNT>
0
> <PUBCHEM_BOND_UDEF_STEREO_COUNT>
0
> <PUBCHEM_ISOTOPIC_ATOM_COUNT>
0
> <PUBCHEM_COMPONENT_COUNT>
1
> <PUBCHEM_CACTVS_TAUTO_COUNT>
-1
> <PUBCHEM_COORDINATE_TYPE>
1
5
255
> <PUBCHEM_BONDANNOTATIONS>
19  1  6
24  11  5
31  13  5
42  14  6
45  15  6
17  23  3
$$$$
