511553
  -OEChem-10302200282D
 84 89  0     1  0  0  0  0  0999 V2000
    4.5981    2.5099    0.0000 Br  0  0  0  0  0  0  0  0  0  0  0  0
    9.8674    2.2506    0.0000 S   0  0  0  0  0  0  0  0  0  0  0  0
    6.6206    3.5119    0.0000 O   0  0  0  0  0  0  0  0  0  0  0  0
    8.8798    5.4914    0.0000 O   0  0  0  0  0  0  0  0  0  0  0  0
   10.9526    0.7578    0.0000 O   0  0  0  0  0  0  0  0  0  0  0  0
    4.5981    0.5086    0.0000 O   0  0  0  0  0  0  0  0  0  0  0  0
   10.5181   -0.1444    0.0000 O   0  0  0  0  0  0  0  0  0  0  0  0
    2.8660   -2.4914    0.0000 O   0  0  0  0  0  0  0  0  0  0  0  0
    8.9576    0.6071    0.0000 N   0  0  0  0  0  0  0  0  0  0  0  0
    9.0870   -1.1201    0.0000 N   0  0  0  0  0  0  0  0  0  0  0  0
    7.9814    2.6343    0.0000 C   0  0  3  0  0  0  0  0  0  0  0  0
    7.4662    3.5564    0.0000 C   0  0  1  0  0  0  0  0  0  0  0  0
    9.0068    2.7600    0.0000 C   0  0  1  0  0  0  0  0  0  0  0  0
    8.9576    2.4114    0.0000 C   0  0  0  0  0  0  0  0  0  0  0  0
    7.1985    2.0099    0.0000 C   0  0  0  0  0  0  0  0  0  0  0  0
    9.3921    1.5093    0.0000 C   0  0  1  0  0  0  0  0  0  0  0  0
    7.9260    4.4460    0.0000 C   0  0  0  0  0  0  0  0  0  0  0  0
    9.4667    3.6495    0.0000 C   0  0  0  0  0  0  0  0  0  0  0  0
    6.3313    2.5106    0.0000 C   0  0  0  0  0  0  0  0  0  0  0  0
    7.1985    1.0086    0.0000 C   0  0  0  0  0  0  0  0  0  0  0  0
    8.9262    4.4925    0.0000 C   0  0  0  0  0  0  0  0  0  0  0  0
    7.9814    0.3843    0.0000 C   0  0  0  0  0  0  0  0  0  0  0  0
   10.3893    1.5840    0.0000 C   0  0  0  0  0  0  0  0  0  0  0  0
    5.4641    2.0099    0.0000 C   0  0  0  0  0  0  0  0  0  0  0  0
    6.3313    0.5079    0.0000 C   0  0  0  0  0  0  0  0  0  0  0  0
    5.4641    1.0086    0.0000 C   0  0  0  0  0  0  0  0  0  0  0  0
    9.5209   -0.2192    0.0000 C   0  0  0  0  0  0  0  0  0  0  0  0
   10.7388    2.7412    0.0000 C   0  0  0  0  0  0  0  0  0  0  0  0
   11.2481    3.6018    0.0000 C   0  0  0  0  0  0  0  0  0  0  0  0
    4.5981   -0.4914    0.0000 C   0  0  0  0  0  0  0  0  0  0  0  0
    9.6504   -1.9464    0.0000 C   0  0  0  0  0  0  0  0  0  0  0  0
   12.2481    3.5910    0.0000 C   0  0  0  0  0  0  0  0  0  0  0  0
   10.7575    4.4732    0.0000 C   0  0  0  0  0  0  0  0  0  0  0  0
    3.7321   -0.9914    0.0000 C   0  0  0  0  0  0  0  0  0  0  0  0
    9.2165   -2.8473    0.0000 C   0  0  0  0  0  0  0  0  0  0  0  0
   12.7574    4.4516    0.0000 C   0  0  0  0  0  0  0  0  0  0  0  0
   11.2669    5.3338    0.0000 C   0  0  0  0  0  0  0  0  0  0  0  0
   12.2668    5.3229    0.0000 C   0  0  0  0  0  0  0  0  0  0  0  0
    3.7321   -1.9914    0.0000 C   0  0  0  0  0  0  0  0  0  0  0  0
    2.8660   -3.4914    0.0000 C   0  0  0  0  0  0  0  0  0  0  0  0
    3.7320   -3.9914    0.0000 C   0  0  0  0  0  0  0  0  0  0  0  0
    2.0000   -3.9914    0.0000 C   0  0  0  0  0  0  0  0  0  0  0  0
    3.7320   -4.9914    0.0000 C   0  0  0  0  0  0  0  0  0  0  0  0
    2.0000   -4.9914    0.0000 C   0  0  0  0  0  0  0  0  0  0  0  0
    2.8660   -5.4914    0.0000 C   0  0  0  0  0  0  0  0  0  0  0  0
    7.0052    4.2706    0.0000 H   0  0  0  0  0  0  0  0  0  0  0  0
    8.8799    2.1531    0.0000 H   0  0  0  0  0  0  0  0  0  0  0  0
    9.5621    2.5494    0.0000 H   0  0  0  0  0  0  0  0  0  0  0  0
    8.9576    3.0314    0.0000 H   0  0  0  0  0  0  0  0  0  0  0  0
    9.7413    0.9970    0.0000 H   0  0  0  0  0  0  0  0  0  0  0  0
    8.0052    5.0609    0.0000 H   0  0  0  0  0  0  0  0  0  0  0  0
    7.3342    4.6307    0.0000 H   0  0  0  0  0  0  0  0  0  0  0  0
    9.9596    3.2735    0.0000 H   0  0  0  0  0  0  0  0  0  0  0  0
    9.9226    4.0697    0.0000 H   0  0  0  0  0  0  0  0  0  0  0  0
    7.4966   -0.0023    0.0000 H   0  0  0  0  0  0  0  0  0  0  0  0
    8.2504   -0.1743    0.0000 H   0  0  0  0  0  0  0  0  0  0  0  0
   10.9544    1.8390    0.0000 H   0  0  0  0  0  0  0  0  0  0  0  0
   10.2363    2.1848    0.0000 H   0  0  0  0  0  0  0  0  0  0  0  0
    6.3313   -0.1121    0.0000 H   0  0  0  0  0  0  0  0  0  0  0  0
   10.8398    2.1295    0.0000 H   0  0  0  0  0  0  0  0  0  0  0  0
   10.3051    3.1844    0.0000 H   0  0  0  0  0  0  0  0  0  0  0  0
   11.5709    0.8041    0.0000 H   0  0  0  0  0  0  0  0  0  0  0  0
    8.4688   -1.1665    0.0000 H   0  0  0  0  0  0  0  0  0  0  0  0
    4.8101   -1.0740    0.0000 H   0  0  0  0  0  0  0  0  0  0  0  0
    5.2087   -0.3837    0.0000 H   0  0  0  0  0  0  0  0  0  0  0  0
   10.1538   -2.3083    0.0000 H   0  0  0  0  0  0  0  0  0  0  0  0
   10.0942   -1.5134    0.0000 H   0  0  0  0  0  0  0  0  0  0  0  0
   12.5522    3.0507    0.0000 H   0  0  0  0  0  0  0  0  0  0  0  0
   10.1376    4.4799    0.0000 H   0  0  0  0  0  0  0  0  0  0  0  0
    3.5200   -0.4088    0.0000 H   0  0  0  0  0  0  0  0  0  0  0  0
    3.1215   -1.0991    0.0000 H   0  0  0  0  0  0  0  0  0  0  0  0
    8.6579   -2.5783    0.0000 H   0  0  0  0  0  0  0  0  0  0  0  0
    8.9475   -3.4059    0.0000 H   0  0  0  0  0  0  0  0  0  0  0  0
    9.7751   -3.1163    0.0000 H   0  0  0  0  0  0  0  0  0  0  0  0
   13.3774    4.4449    0.0000 H   0  0  0  0  0  0  0  0  0  0  0  0
   10.9627    5.8740    0.0000 H   0  0  0  0  0  0  0  0  0  0  0  0
   12.5826    5.8565    0.0000 H   0  0  0  0  0  0  0  0  0  0  0  0
    3.9441   -2.5740    0.0000 H   0  0  0  0  0  0  0  0  0  0  0  0
    4.3426   -1.8837    0.0000 H   0  0  0  0  0  0  0  0  0  0  0  0
    4.2690   -3.6814    0.0000 H   0  0  0  0  0  0  0  0  0  0  0  0
    1.4631   -3.6814    0.0000 H   0  0  0  0  0  0  0  0  0  0  0  0
    4.2690   -5.3014    0.0000 H   0  0  0  0  0  0  0  0  0  0  0  0
    1.4631   -5.3014    0.0000 H   0  0  0  0  0  0  0  0  0  0  0  0
    2.8660   -6.1114    0.0000 H   0  0  0  0  0  0  0  0  0  0  0  0
  1 24  1  0  0  0  0
 13  2  1  1  0  0  0
  2 28  1  0  0  0  0
  3 12  1  0  0  0  0
  3 19  1  0  0  0  0
  4 21  2  0  0  0  0
  5 23  1  0  0  0  0
  5 62  1  0  0  0  0
  6 26  1  0  0  0  0
  6 30  1  0  0  0  0
  7 27  2  0  0  0  0
  8 39  1  0  0  0  0
  8 40  1  0  0  0  0
  9 16  1  0  0  0  0
  9 22  1  0  0  0  0
  9 27  1  0  0  0  0
 10 27  1  0  0  0  0
 10 31  1  0  0  0  0
 10 63  1  0  0  0  0
 11 12  1  0  0  0  0
 11 13  1  0  0  0  0
 11 14  1  0  0  0  0
 11 15  1  0  0  0  0
 12 17  1  0  0  0  0
 12 46  1  1  0  0  0
 13 18  1  0  0  0  0
 13 47  1  0  0  0  0
 14 16  1  0  0  0  0
 14 48  1  0  0  0  0
 14 49  1  0  0  0  0
 15 19  2  0  0  0  0
 15 20  1  0  0  0  0
 16 23  1  1  0  0  0
 16 50  1  0  0  0  0
 17 21  1  0  0  0  0
 17 51  1  0  0  0  0
 17 52  1  0  0  0  0
 18 21  1  0  0  0  0
 18 53  1  0  0  0  0
 18 54  1  0  0  0  0
 19 24  1  0  0  0  0
 20 22  1  0  0  0  0
 20 25  2  0  0  0  0
 22 55  1  0  0  0  0
 22 56  1  0  0  0  0
 23 57  1  0  0  0  0
 23 58  1  0  0  0  0
 24 26  2  0  0  0  0
 25 26  1  0  0  0  0
 25 59  1  0  0  0  0
 28 29  1  0  0  0  0
 28 60  1  0  0  0  0
 28 61  1  0  0  0  0
 29 32  2  0  0  0  0
 29 33  1  0  0  0  0
 30 34  1  0  0  0  0
 30 64  1  0  0  0  0
 30 65  1  0  0  0  0
 31 35  1  0  0  0  0
 31 66  1  0  0  0  0
 31 67  1  0  0  0  0
 32 36  1  0  0  0  0
 32 68  1  0  0  0  0
 33 37  2  0  0  0  0
 33 69  1  0  0  0  0
 34 39  1  0  0  0  0
 34 70  1  0  0  0  0
 34 71  1  0  0  0  0
 35 72  1  0  0  0  0
 35 73  1  0  0  0  0
 35 74  1  0  0  0  0
 36 38  2  0  0  0  0
 36 75  1  0  0  0  0
 37 38  1  0  0  0  0
 37 76  1  0  0  0  0
 38 77  1  0  0  0  0
 39 78  1  0  0  0  0
 39 79  1  0  0  0  0
 40 41  2  0  0  0  0
 40 42  1  0  0  0  0
 41 43  1  0  0  0  0
 41 80  1  0  0  0  0
 42 44  2  0  0  0  0
 42 81  1  0  0  0  0
 43 45  2  0  0  0  0
 43 82  1  0  0  0  0
 44 45  1  0  0  0  0
 44 83  1  0  0  0  0
 45 84  1  0  0  0  0
M  END
> <PUBCHEM_COMPOUND_CID>
511553
> <PUBCHEM_COMPOUND_CANONICALIZED>
1
> <PUBCHEM_CACTVS_COMPLEXITY>
995
> <PUBCHEM_CACTVS_HBOND_ACCEPTOR>
7
> <PUBCHEM_CACTVS_HBOND_DONOR>
2
> <PUBCHEM_CACTVS_ROTATABLE_BOND>
11
> <PUBCHEM_CACTVS_SUBSKEYS>
AAADcfB/OABAEAAAAAAAAAAAAAAAASAAAAAwYMGABYAAAEixUAAAHgRQCAABrjzl2AazBoPABgiIAqBSEACCCAAgIBQIiIEODKiONzaksRuGeCjt9he4qhe4/P/PogABGAAYBABEAAI4ADgIAAAAAAAAAA==
> <PUBCHEM_IUPAC_OPENEYE_NAME>
(3S,12R,16R)-16-benzylsulfanyl-9-bromo-N-ethyl-3-(hydroxymethyl)-14-oxo-8-(3-phenoxypropoxy)-11-oxa-4-azatetracyclo[8.6.1.01,12.06,17]heptadeca-6,8,10(17)-triene-4-carboxamide
> <PUBCHEM_IUPAC_CAS_NAME>
(3S,12R,16R)-9-bromo-N-ethyl-3-(hydroxymethyl)-14-oxo-8-(3-phenoxypropoxy)-16-(phenylmethylthio)-11-oxa-4-azatetracyclo[8.6.1.01,12.06,17]heptadeca-6,8,10(17)-triene-4-carboxamide
> <PUBCHEM_IUPAC_NAME_MARKUP>
(3<I>S</I>,12<I>R</I>,16<I>R</I>)-16-benzylsulfanyl-9-bromo-<I>N</I>-ethyl-3-(hydroxymethyl)-14-oxo-8-(3-phenoxypropoxy)-11-oxa-4-azatetracyclo[8.6.1.0<SUP>1,12</SUP>.0<SUP>6,17</SUP>]heptadeca-6,8,10(17)-triene-4-carboxamide
> <PUBCHEM_IUPAC_NAME>
(3S,12R,16R)-16-benzylsulfanyl-9-bromo-N-ethyl-3-(hydroxymethyl)-14-oxo-8-(3-phenoxypropoxy)-11-oxa-4-azatetracyclo[8.6.1.01,12.06,17]heptadeca-6,8,10(17)-triene-4-carboxamide
> <PUBCHEM_IUPAC_SYSTEMATIC_NAME>
(3S,12R,16R)-9-bromanyl-N-ethyl-3-(hydroxymethyl)-14-oxidanylidene-8-(3-phenoxypropoxy)-16-(phenylmethylsulfanyl)-11-oxa-4-azatetracyclo[8.6.1.01,12.06,17]heptadeca-6,8,10(17)-triene-4-carboxamide
> <PUBCHEM_IUPAC_TRADITIONAL_NAME>
(3S,12R,16R)-16-(benzylthio)-9-bromo-N-ethyl-14-keto-3-methylol-8-(3-phenoxypropoxy)-11-oxa-4-azatetracyclo[8.6.1.01,12.06,17]heptadeca-6,8,10(17)-triene-4-carboxamide
> <PUBCHEM_IUPAC_INCHI>
InChI=1S/C35H39BrN2O6S/c1-2-37-34(41)38-20-24-16-28(43-15-9-14-42-27-12-7-4-8-13-27)32(36)33-31(24)35(19-25(38)21-39)29(44-33)17-26(40)18-30(35)45-22-23-10-5-3-6-11-23/h3-8,10-13,16,25,29-30,39H,2,9,14-15,17-22H2,1H3,(H,37,41)/t25-,29+,30+,35?/m0/s1
> <PUBCHEM_IUPAC_INCHIKEY>
NZBUVLUJODPZBG-SEBFCURTSA-N
> <PUBCHEM_XLOGP3_AA>
5.1
> <PUBCHEM_EXACT_MASS>
694.17122
> <PUBCHEM_MOLECULAR_FORMULA>
C35H39BrN2O6S
> <PUBCHEM_MOLECULAR_WEIGHT>
695.7
> <PUBCHEM_OPENEYE_CAN_SMILES>
CCNC(=O)N1CC2=CC(=C(C3=C2C4(CC1CO)C(O3)CC(=O)CC4SCC5=CC=CC=C5)Br)OCCCOC6=CC=CC=C6
> <PUBCHEM_OPENEYE_ISO_SMILES>
CCNC(=O)N1CC2=CC(=C(C3=C2C4(C[C@H]1CO)[C@H](O3)CC(=O)C[C@H]4SCC5=CC=CC=C5)Br)OCCCOC6=CC=CC=C6
> <PUBCHEM_CACTVS_TPSA>
123
> <PUBCHEM_MONOISOTOPIC_WEIGHT>
694.17122
> <PUBCHEM_TOTAL_CHARGE>
0
> <PUBCHEM_HEAVY_ATOM_COUNT>
45
> <PUBCHEM_ATOM_DEF_STEREO_COUNT>
3
> <PUBCHEM_ATOM_UDEF_STEREO_COUNT>
1
> <PUBCHEM_BOND_DEF_STEREO_COUNT>
0
> <PUBCHEM_BOND_UDEF_STEREO_COUNT>
0
> <PUBCHEM_ISOTOPIC_ATOM_COUNT>
0
> <PUBCHEM_COMPONENT_COUNT>
1
> <PUBCHEM_CACTVS_TAUTO_COUNT>
-1
> <PUBCHEM_COORDINATE_TYPE>
1
5
255
> <PUBCHEM_BONDANNOTATIONS>
11  14  3
12  46  5
15  19  8
15  20  8
16  23  5
19  24  8
13  2  5
20  25  8
24  26  8
25  26  8
29  32  8
29  33  8
32  36  8
33  37  8
36  38  8
37  38  8
40  41  8
40  42  8
41  43  8
42  44  8
43  45  8
44  45  8
$$$$
