511668
  -OEChem-10302200282D
 34 35  0     1  0  0  0  0  0999 V2000
    2.0000   -0.5126    0.0000 F   0  0  0  0  0  0  0  0  0  0  0  0
    2.6420   -1.7727    0.0000 F   0  0  0  0  0  0  0  0  0  0  0  0
    3.2601    0.1294    0.0000 F   0  0  0  0  0  0  0  0  0  0  0  0
    5.5202   -1.1307    0.0000 O   0  0  0  0  0  0  0  0  0  0  0  0
    3.6233   -2.8907    0.0000 O   0  0  0  0  0  0  0  0  0  0  0  0
    6.7934   -2.7862    0.0000 O   0  0  0  0  0  0  0  0  0  0  0  0
    6.4432    0.4571    0.0000 O   0  0  0  0  0  0  0  0  0  0  0  0
    4.7111    3.4571    0.0000 O   0  0  0  0  0  0  0  0  0  0  0  0
    4.7111    0.4571    0.0000 N   0  0  0  0  0  0  0  0  0  0  0  0
    5.5772    1.9571    0.0000 N   0  0  0  0  0  0  0  0  0  0  0  0
    3.9021   -1.1307    0.0000 C   0  0  2  0  0  0  0  0  0  0  0  0
    4.2111   -2.0817    0.0000 C   0  0  1  0  0  0  0  0  0  0  0  0
    4.7111   -0.5429    0.0000 C   0  0  1  0  0  0  0  0  0  0  0  0
    5.2111   -2.0817    0.0000 C   0  0  1  0  0  0  0  0  0  0  0  0
    2.9511   -0.8216    0.0000 C   0  0  0  0  0  0  0  0  0  0  0  0
    5.7989   -2.8907    0.0000 C   0  0  0  0  0  0  0  0  0  0  0  0
    3.8451    0.9571    0.0000 C   0  0  0  0  0  0  0  0  0  0  0  0
    5.5772    0.9571    0.0000 C   0  0  0  0  0  0  0  0  0  0  0  0
    3.8451    1.9571    0.0000 C   0  0  0  0  0  0  0  0  0  0  0  0
    4.7111    2.4571    0.0000 C   0  0  0  0  0  0  0  0  0  0  0  0
    2.9791    2.4571    0.0000 C   0  0  0  0  0  0  0  0  0  0  0  0
    3.4637   -1.5691    0.0000 H   0  0  0  0  0  0  0  0  0  0  0  0
    4.4926   -2.6341    0.0000 H   0  0  0  0  0  0  0  0  0  0  0  0
    5.2636   -0.2614    0.0000 H   0  0  0  0  0  0  0  0  0  0  0  0
    5.8235   -1.9847    0.0000 H   0  0  0  0  0  0  0  0  0  0  0  0
    5.2417   -3.1625    0.0000 H   0  0  0  0  0  0  0  0  0  0  0  0
    5.9698   -3.4867    0.0000 H   0  0  0  0  0  0  0  0  0  0  0  0
    3.8755   -3.4571    0.0000 H   0  0  0  0  0  0  0  0  0  0  0  0
    3.3082    0.6471    0.0000 H   0  0  0  0  0  0  0  0  0  0  0  0
    6.1141    2.2671    0.0000 H   0  0  0  0  0  0  0  0  0  0  0  0
    7.1579   -3.2878    0.0000 H   0  0  0  0  0  0  0  0  0  0  0  0
    3.2891    2.9941    0.0000 H   0  0  0  0  0  0  0  0  0  0  0  0
    2.4421    2.7671    0.0000 H   0  0  0  0  0  0  0  0  0  0  0  0
    2.6691    1.9202    0.0000 H   0  0  0  0  0  0  0  0  0  0  0  0
  1 15  1  0  0  0  0
  2 15  1  0  0  0  0
  3 15  1  0  0  0  0
  4 13  1  0  0  0  0
  4 14  1  0  0  0  0
 12  5  1  1  0  0  0
  5 28  1  0  0  0  0
  6 16  1  0  0  0  0
  6 31  1  0  0  0  0
  7 18  2  0  0  0  0
  8 20  2  0  0  0  0
 13  9  1  6  0  0  0
  9 17  1  0  0  0  0
  9 18  1  0  0  0  0
 10 18  1  0  0  0  0
 10 20  1  0  0  0  0
 10 30  1  0  0  0  0
 11 12  1  0  0  0  0
 11 13  1  0  0  0  0
 11 15  1  1  0  0  0
 11 22  1  0  0  0  0
 12 14  1  0  0  0  0
 12 23  1  0  0  0  0
 13 24  1  0  0  0  0
 14 16  1  6  0  0  0
 14 25  1  0  0  0  0
 16 26  1  0  0  0  0
 16 27  1  0  0  0  0
 17 19  2  0  0  0  0
 17 29  1  0  0  0  0
 19 20  1  0  0  0  0
 19 21  1  0  0  0  0
 21 32  1  0  0  0  0
 21 33  1  0  0  0  0
 21 34  1  0  0  0  0
M  END
> <PUBCHEM_COMPOUND_CID>
511668
> <PUBCHEM_COMPOUND_CANONICALIZED>
1
> <PUBCHEM_CACTVS_COMPLEXITY>
493
> <PUBCHEM_CACTVS_HBOND_ACCEPTOR>
8
> <PUBCHEM_CACTVS_HBOND_DONOR>
3
> <PUBCHEM_CACTVS_ROTATABLE_BOND>
2
> <PUBCHEM_CACTVS_SUBSKEYS>
AAADccBzOYAAAAAAAAAAAAAAAAAAASAAAAAgAAAAAAAAAAAAAAAAHwAQCAAADRThgBYDAAPABgCIAgFWUACAAAAAAAAAAAEIAECBEAIAgQAOQAAPByIDAMCwMAIMAAAAAAAAAAAAAAAAAAAAAAAAAAAAAA==
> <PUBCHEM_IUPAC_OPENEYE_NAME>
1-[(2R,3R,4S,5R)-4-hydroxy-5-(hydroxymethyl)-3-(trifluoromethyl)tetrahydrofuran-2-yl]-5-methyl-pyrimidine-2,4-dione
> <PUBCHEM_IUPAC_CAS_NAME>
1-[(2R,3R,4S,5R)-4-hydroxy-5-(hydroxymethyl)-3-(trifluoromethyl)-2-oxolanyl]-5-methylpyrimidine-2,4-dione
> <PUBCHEM_IUPAC_NAME_MARKUP>
1-[(2<I>R</I>,3<I>R</I>,4<I>S</I>,5<I>R</I>)-4-hydroxy-5-(hydroxymethyl)-3-(trifluoromethyl)oxolan-2-yl]-5-methylpyrimidine-2,4-dione
> <PUBCHEM_IUPAC_NAME>
1-[(2R,3R,4S,5R)-4-hydroxy-5-(hydroxymethyl)-3-(trifluoromethyl)oxolan-2-yl]-5-methylpyrimidine-2,4-dione
> <PUBCHEM_IUPAC_SYSTEMATIC_NAME>
1-[(2R,3R,4S,5R)-5-(hydroxymethyl)-4-oxidanyl-3-(trifluoromethyl)oxolan-2-yl]-5-methyl-pyrimidine-2,4-dione
> <PUBCHEM_IUPAC_TRADITIONAL_NAME>
1-[(2R,3R,4S,5R)-4-hydroxy-5-methylol-3-(trifluoromethyl)tetrahydrofuran-2-yl]-5-methyl-pyrimidine-2,4-quinone
> <PUBCHEM_IUPAC_INCHI>
InChI=1S/C11H13F3N2O5/c1-4-2-16(10(20)15-8(4)19)9-6(11(12,13)14)7(18)5(3-17)21-9/h2,5-7,9,17-18H,3H2,1H3,(H,15,19,20)/t5-,6-,7-,9-/m1/s1
> <PUBCHEM_IUPAC_INCHIKEY>
ODAQCOFZWJBMIZ-JXOAFFINSA-N
> <PUBCHEM_XLOGP3>
-0.2
> <PUBCHEM_EXACT_MASS>
310.07765601
> <PUBCHEM_MOLECULAR_FORMULA>
C11H13F3N2O5
> <PUBCHEM_MOLECULAR_WEIGHT>
310.23
> <PUBCHEM_OPENEYE_CAN_SMILES>
CC1=CN(C(=O)NC1=O)C2C(C(C(O2)CO)O)C(F)(F)F
> <PUBCHEM_OPENEYE_ISO_SMILES>
CC1=CN(C(=O)NC1=O)[C@H]2[C@@H]([C@@H]([C@H](O2)CO)O)C(F)(F)F
> <PUBCHEM_CACTVS_TPSA>
99.1
> <PUBCHEM_MONOISOTOPIC_WEIGHT>
310.07765601
> <PUBCHEM_TOTAL_CHARGE>
0
> <PUBCHEM_HEAVY_ATOM_COUNT>
21
> <PUBCHEM_ATOM_DEF_STEREO_COUNT>
4
> <PUBCHEM_ATOM_UDEF_STEREO_COUNT>
0
> <PUBCHEM_BOND_DEF_STEREO_COUNT>
0
> <PUBCHEM_BOND_UDEF_STEREO_COUNT>
0
> <PUBCHEM_ISOTOPIC_ATOM_COUNT>
0
> <PUBCHEM_COMPONENT_COUNT>
1
> <PUBCHEM_CACTVS_TAUTO_COUNT>
-1
> <PUBCHEM_COORDINATE_TYPE>
1
5
255
> <PUBCHEM_BONDANNOTATIONS>
10  18  8
10  20  8
11  15  5
14  16  6
17  19  8
19  20  8
12  5  5
13  9  6
9  17  8
9  18  8
$$$$
