511682
  -OEChem-10302200282D
 51 54  0     1  0  0  0  0  0999 V2000
    4.6870    0.5165    0.0000 O   0  0  0  0  0  0  0  0  0  0  0  0
    4.1111    3.0392    0.0000 O   0  0  0  0  0  0  0  0  0  0  0  0
    2.6166    0.2416    0.0000 O   0  0  0  0  0  0  0  0  0  0  0  0
    9.1448   -0.8815    0.0000 O   0  0  0  0  0  0  0  0  0  0  0  0
   13.7284   -1.8088    0.0000 O   0  0  0  0  0  0  0  0  0  0  0  0
   12.2284   -2.6748    0.0000 O   0  0  0  0  0  0  0  0  0  0  0  0
    5.6005   -1.0767    0.0000 O   0  0  0  0  0  0  0  0  0  0  0  0
    6.4666    0.4233    0.0000 N   0  0  0  0  0  0  0  0  0  0  0  0
    7.3326   -1.0767    0.0000 N   0  0  0  0  0  0  0  0  0  0  0  0
    5.6005    0.9233    0.0000 C   0  0  1  0  0  0  0  0  0  0  0  0
    4.5179    2.1257    0.0000 C   0  0  1  0  0  0  0  0  0  0  0  0
    5.4960    1.9178    0.0000 C   0  0  0  0  0  0  0  0  0  0  0  0
    4.0179    1.2597    0.0000 C   0  0  1  0  0  0  0  0  0  0  0  0
    3.0233    1.1551    0.0000 C   0  0  0  0  0  0  0  0  0  0  0  0
    7.3326    0.9233    0.0000 C   0  0  0  0  0  0  0  0  0  0  0  0
    8.1986    0.4233    0.0000 C   0  0  0  0  0  0  0  0  0  0  0  0
    6.4666   -0.5767    0.0000 C   0  0  0  0  0  0  0  0  0  0  0  0
   11.2284   -0.9428    0.0000 C   0  0  0  0  0  0  0  0  0  0  0  0
   12.2284   -0.9428    0.0000 C   0  0  0  0  0  0  0  0  0  0  0  0
   10.7284   -0.0767    0.0000 C   0  0  0  0  0  0  0  0  0  0  0  0
   12.7284   -1.8088    0.0000 C   0  0  0  0  0  0  0  0  0  0  0  0
    9.7284   -0.0767    0.0000 C   0  0  0  0  0  0  0  0  0  0  0  0
    8.1986   -0.5767    0.0000 C   0  0  0  0  0  0  0  0  0  0  0  0
    9.1448    0.7280    0.0000 C   0  0  0  0  0  0  0  0  0  0  0  0
   13.7284   -3.5408    0.0000 C   0  0  0  0  0  0  0  0  0  0  0  0
   14.2284   -2.6748    0.0000 C   0  0  0  0  0  0  0  0  0  0  0  0
   12.7284   -3.5408    0.0000 C   0  0  0  0  0  0  0  0  0  0  0  0
    5.5681    0.3041    0.0000 H   0  0  0  0  0  0  0  0  0  0  0  0
    4.9080    2.6075    0.0000 H   0  0  0  0  0  0  0  0  0  0  0  0
    6.1160    1.9178    0.0000 H   0  0  0  0  0  0  0  0  0  0  0  0
    5.5608    2.5344    0.0000 H   0  0  0  0  0  0  0  0  0  0  0  0
    3.7957    0.6809    0.0000 H   0  0  0  0  0  0  0  0  0  0  0  0
    3.0666    1.7736    0.0000 H   0  0  0  0  0  0  0  0  0  0  0  0
    2.4218    1.3051    0.0000 H   0  0  0  0  0  0  0  0  0  0  0  0
    7.3326    1.5433    0.0000 H   0  0  0  0  0  0  0  0  0  0  0  0
    4.4756    3.5408    0.0000 H   0  0  0  0  0  0  0  0  0  0  0  0
   10.6458   -1.1548    0.0000 H   0  0  0  0  0  0  0  0  0  0  0  0
   11.3361   -1.5533    0.0000 H   0  0  0  0  0  0  0  0  0  0  0  0
   12.8111   -0.7307    0.0000 H   0  0  0  0  0  0  0  0  0  0  0  0
   12.1208   -0.3322    0.0000 H   0  0  0  0  0  0  0  0  0  0  0  0
   11.3111    0.1353    0.0000 H   0  0  0  0  0  0  0  0  0  0  0  0
   10.6208    0.5338    0.0000 H   0  0  0  0  0  0  0  0  0  0  0  0
   12.1084   -1.8088    0.0000 H   0  0  0  0  0  0  0  0  0  0  0  0
    9.3374    1.3173    0.0000 H   0  0  0  0  0  0  0  0  0  0  0  0
   13.6208   -4.1514    0.0000 H   0  0  0  0  0  0  0  0  0  0  0  0
   14.3111   -3.7529    0.0000 H   0  0  0  0  0  0  0  0  0  0  0  0
   14.7034   -3.0733    0.0000 H   0  0  0  0  0  0  0  0  0  0  0  0
   14.7034   -2.2763    0.0000 H   0  0  0  0  0  0  0  0  0  0  0  0
   12.1458   -3.7529    0.0000 H   0  0  0  0  0  0  0  0  0  0  0  0
   12.8361   -4.1514    0.0000 H   0  0  0  0  0  0  0  0  0  0  0  0
    2.0000    0.1768    0.0000 H   0  0  0  0  0  0  0  0  0  0  0  0
  1 10  1  0  0  0  0
  1 13  1  0  0  0  0
 11  2  1  1  0  0  0
  2 36  1  0  0  0  0
  3 14  1  0  0  0  0
  3 51  1  0  0  0  0
  4 22  1  0  0  0  0
  4 23  1  0  0  0  0
  5 21  1  0  0  0  0
  5 26  1  0  0  0  0
  6 21  1  0  0  0  0
  6 27  1  0  0  0  0
  7 17  2  0  0  0  0
 10  8  1  6  0  0  0
  8 15  1  0  0  0  0
  8 17  1  0  0  0  0
  9 17  1  0  0  0  0
  9 23  2  0  0  0  0
 10 12  1  0  0  0  0
 10 28  1  0  0  0  0
 11 12  1  0  0  0  0
 11 13  1  0  0  0  0
 11 29  1  0  0  0  0
 12 30  1  0  0  0  0
 12 31  1  0  0  0  0
 13 14  1  6  0  0  0
 13 32  1  0  0  0  0
 14 33  1  0  0  0  0
 14 34  1  0  0  0  0
 15 16  2  0  0  0  0
 15 35  1  0  0  0  0
 16 23  1  0  0  0  0
 16 24  1  0  0  0  0
 18 19  1  0  0  0  0
 18 20  1  0  0  0  0
 18 37  1  0  0  0  0
 18 38  1  0  0  0  0
 19 21  1  0  0  0  0
 19 39  1  0  0  0  0
 19 40  1  0  0  0  0
 20 22  1  0  0  0  0
 20 41  1  0  0  0  0
 20 42  1  0  0  0  0
 21 43  1  0  0  0  0
 22 24  2  0  0  0  0
 24 44  1  0  0  0  0
 25 26  1  0  0  0  0
 25 27  1  0  0  0  0
 25 45  1  0  0  0  0
 25 46  1  0  0  0  0
 26 47  1  0  0  0  0
 26 48  1  0  0  0  0
 27 49  1  0  0  0  0
 27 50  1  0  0  0  0
M  END
> <PUBCHEM_COMPOUND_CID>
511682
> <PUBCHEM_COMPOUND_CANONICALIZED>
1
> <PUBCHEM_CACTVS_COMPLEXITY>
669
> <PUBCHEM_CACTVS_HBOND_ACCEPTOR>
7
> <PUBCHEM_CACTVS_HBOND_DONOR>
2
> <PUBCHEM_CACTVS_ROTATABLE_BOND>
6
> <PUBCHEM_CACTVS_SUBSKEYS>
AAADceB7OAAAAAAAAAAAAAAAAAAAASIAAAAkQAAAAAAAAEAAAAAAHgAACAAADBTxgAcBCAMABgCoAiBmVAAACAAgIAAACAAoABiZFAIAoQAuQAAHxgIPoAKwMAoAAAAAAAAAAAAAAAAAAAAAAAAAAAAAAA==
> <PUBCHEM_IUPAC_OPENEYE_NAME>
6-[3-(1,3-dioxan-2-yl)propyl]-3-[(2R,4S,5R)-4-hydroxy-5-(hydroxymethyl)tetrahydrofuran-2-yl]furo[2,3-d]pyrimidin-2-one
> <PUBCHEM_IUPAC_CAS_NAME>
6-[3-(1,3-dioxan-2-yl)propyl]-3-[(2R,4S,5R)-4-hydroxy-5-(hydroxymethyl)-2-oxolanyl]-2-furo[2,3-d]pyrimidinone
> <PUBCHEM_IUPAC_NAME_MARKUP>
6-[3-(1,3-dioxan-2-yl)propyl]-3-[(2<I>R</I>,4<I>S</I>,5<I>R</I>)-4-hydroxy-5-(hydroxymethyl)oxolan-2-yl]furo[2,3-d]pyrimidin-2-one
> <PUBCHEM_IUPAC_NAME>
6-[3-(1,3-dioxan-2-yl)propyl]-3-[(2R,4S,5R)-4-hydroxy-5-(hydroxymethyl)oxolan-2-yl]furo[2,3-d]pyrimidin-2-one
> <PUBCHEM_IUPAC_SYSTEMATIC_NAME>
6-[3-(1,3-dioxan-2-yl)propyl]-3-[(2R,4S,5R)-5-(hydroxymethyl)-4-oxidanyl-oxolan-2-yl]furo[2,3-d]pyrimidin-2-one
> <PUBCHEM_IUPAC_TRADITIONAL_NAME>
6-[3-(1,3-dioxan-2-yl)propyl]-3-[(2R,4S,5R)-4-hydroxy-5-methylol-tetrahydrofuran-2-yl]furo[2,3-d]pyrimidin-2-one
> <PUBCHEM_IUPAC_INCHI>
InChI=1S/C18H24N2O7/c21-10-14-13(22)8-15(27-14)20-9-11-7-12(26-17(11)19-18(20)23)3-1-4-16-24-5-2-6-25-16/h7,9,13-16,21-22H,1-6,8,10H2/t13-,14+,15+/m0/s1
> <PUBCHEM_IUPAC_INCHIKEY>
SVRRFVGAONKSBQ-RRFJBIMHSA-N
> <PUBCHEM_XLOGP3_AA>
0.5
> <PUBCHEM_EXACT_MASS>
380.15835111
> <PUBCHEM_MOLECULAR_FORMULA>
C18H24N2O7
> <PUBCHEM_MOLECULAR_WEIGHT>
380.4
> <PUBCHEM_OPENEYE_CAN_SMILES>
C1COC(OC1)CCCC2=CC3=CN(C(=O)N=C3O2)C4CC(C(O4)CO)O
> <PUBCHEM_OPENEYE_ISO_SMILES>
C1COC(OC1)CCCC2=CC3=CN(C(=O)N=C3O2)[C@H]4C[C@@H]([C@H](O4)CO)O
> <PUBCHEM_CACTVS_TPSA>
110
> <PUBCHEM_MONOISOTOPIC_WEIGHT>
380.15835111
> <PUBCHEM_TOTAL_CHARGE>
0
> <PUBCHEM_HEAVY_ATOM_COUNT>
27
> <PUBCHEM_ATOM_DEF_STEREO_COUNT>
3
> <PUBCHEM_ATOM_UDEF_STEREO_COUNT>
0
> <PUBCHEM_BOND_DEF_STEREO_COUNT>
0
> <PUBCHEM_BOND_UDEF_STEREO_COUNT>
0
> <PUBCHEM_ISOTOPIC_ATOM_COUNT>
0
> <PUBCHEM_COMPONENT_COUNT>
1
> <PUBCHEM_CACTVS_TAUTO_COUNT>
-1
> <PUBCHEM_COORDINATE_TYPE>
1
5
255
> <PUBCHEM_BONDANNOTATIONS>
13  14  6
15  16  8
16  23  8
16  24  8
11  2  5
22  24  8
4  22  8
4  23  8
10  8  6
8  15  8
8  17  8
9  17  8
9  23  8
$$$$
