511665
  -OEChem-10302200282D
 45 46  0     1  0  0  0  0  0999 V2000
    4.5134   -0.5812    0.0000 O   0  0  0  0  0  0  0  0  0  0  0  0
    2.6166   -2.3412    0.0000 O   0  0  0  0  0  0  0  0  0  0  0  0
    5.7867   -2.2367    0.0000 O   0  0  0  0  0  0  0  0  0  0  0  0
    5.4364    1.0066    0.0000 O   0  0  0  0  0  0  0  0  0  0  0  0
    5.9677   -3.9593    0.0000 O   0  0  0  0  0  0  0  0  0  0  0  0
    3.7044    1.0066    0.0000 N   0  0  0  0  0  0  0  0  0  0  0  0
    4.5704    2.5066    0.0000 N   0  0  0  0  0  0  0  0  0  0  0  0
    7.9568   -3.7502    0.0000 N   0  0  0  0  0  0  0  0  0  0  0  0
    3.7044    4.0066    0.0000 N   0  0  0  0  0  0  0  0  0  0  0  0
    3.2044   -1.5322    0.0000 C   0  0  1  0  0  0  0  0  0  0  0  0
    4.2044   -1.5322    0.0000 C   0  0  2  0  0  0  0  0  0  0  0  0
    2.8954   -0.5812    0.0000 C   0  0  0  0  0  0  0  0  0  0  0  0
    3.7044    0.0066    0.0000 C   0  0  2  0  0  0  0  0  0  0  0  0
    4.7922   -2.3412    0.0000 C   0  0  0  0  0  0  0  0  0  0  0  0
    7.3690   -2.9412    0.0000 C   0  0  3  0  0  0  0  0  0  0  0  0
    2.8384    1.5066    0.0000 C   0  0  0  0  0  0  0  0  0  0  0  0
    7.7757   -2.0277    0.0000 C   0  0  0  0  0  0  0  0  0  0  0  0
    4.5704    1.5066    0.0000 C   0  0  0  0  0  0  0  0  0  0  0  0
    6.3745   -3.0457    0.0000 C   0  0  0  0  0  0  0  0  0  0  0  0
    2.8384    2.5066    0.0000 C   0  0  0  0  0  0  0  0  0  0  0  0
    8.7703   -1.9231    0.0000 C   0  0  0  0  0  0  0  0  0  0  0  0
    7.1880   -1.2186    0.0000 C   0  0  0  0  0  0  0  0  0  0  0  0
    3.7044    3.0066    0.0000 C   0  0  0  0  0  0  0  0  0  0  0  0
    4.8168   -1.4352    0.0000 H   0  0  0  0  0  0  0  0  0  0  0  0
    2.5920   -1.4352    0.0000 H   0  0  0  0  0  0  0  0  0  0  0  0
    2.5854   -0.0442    0.0000 H   0  0  0  0  0  0  0  0  0  0  0  0
    2.3290   -0.8333    0.0000 H   0  0  0  0  0  0  0  0  0  0  0  0
    4.2568    0.2881    0.0000 H   0  0  0  0  0  0  0  0  0  0  0  0
    4.2349   -2.6130    0.0000 H   0  0  0  0  0  0  0  0  0  0  0  0
    4.9631   -2.9372    0.0000 H   0  0  0  0  0  0  0  0  0  0  0  0
    2.0000   -2.2764    0.0000 H   0  0  0  0  0  0  0  0  0  0  0  0
    7.9856   -2.8764    0.0000 H   0  0  0  0  0  0  0  0  0  0  0  0
    7.1591   -2.0925    0.0000 H   0  0  0  0  0  0  0  0  0  0  0  0
    2.3014    1.1966    0.0000 H   0  0  0  0  0  0  0  0  0  0  0  0
    8.8351   -2.5397    0.0000 H   0  0  0  0  0  0  0  0  0  0  0  0
    9.3869   -1.8583    0.0000 H   0  0  0  0  0  0  0  0  0  0  0  0
    8.7055   -1.3065    0.0000 H   0  0  0  0  0  0  0  0  0  0  0  0
    7.6896   -0.8542    0.0000 H   0  0  0  0  0  0  0  0  0  0  0  0
    6.8235   -0.7170    0.0000 H   0  0  0  0  0  0  0  0  0  0  0  0
    6.6864   -1.5831    0.0000 H   0  0  0  0  0  0  0  0  0  0  0  0
    2.3014    2.8166    0.0000 H   0  0  0  0  0  0  0  0  0  0  0  0
    8.5734   -3.6854    0.0000 H   0  0  0  0  0  0  0  0  0  0  0  0
    7.7046   -4.3166    0.0000 H   0  0  0  0  0  0  0  0  0  0  0  0
    3.1674    4.3166    0.0000 H   0  0  0  0  0  0  0  0  0  0  0  0
    4.2413    4.3166    0.0000 H   0  0  0  0  0  0  0  0  0  0  0  0
  1 11  1  0  0  0  0
  1 13  1  0  0  0  0
 10  2  1  6  0  0  0
  2 31  1  0  0  0  0
  3 14  1  0  0  0  0
  3 19  1  0  0  0  0
  4 18  2  0  0  0  0
  5 19  2  0  0  0  0
 13  6  1  1  0  0  0
  6 16  1  0  0  0  0
  6 18  1  0  0  0  0
  7 18  1  0  0  0  0
  7 23  2  0  0  0  0
  8 15  1  0  0  0  0
  8 42  1  0  0  0  0
  8 43  1  0  0  0  0
  9 23  1  0  0  0  0
  9 44  1  0  0  0  0
  9 45  1  0  0  0  0
 10 11  1  0  0  0  0
 10 12  1  0  0  0  0
 10 25  1  0  0  0  0
 11 14  1  1  0  0  0
 11 24  1  0  0  0  0
 12 13  1  0  0  0  0
 12 26  1  0  0  0  0
 12 27  1  0  0  0  0
 13 28  1  0  0  0  0
 14 29  1  0  0  0  0
 14 30  1  0  0  0  0
 15 17  1  0  0  0  0
 15 19  1  0  0  0  0
 15 32  1  0  0  0  0
 16 20  2  0  0  0  0
 16 34  1  0  0  0  0
 17 21  1  0  0  0  0
 17 22  1  0  0  0  0
 17 33  1  0  0  0  0
 20 23  1  0  0  0  0
 20 41  1  0  0  0  0
 21 35  1  0  0  0  0
 21 36  1  0  0  0  0
 21 37  1  0  0  0  0
 22 38  1  0  0  0  0
 22 39  1  0  0  0  0
 22 40  1  0  0  0  0
M  END
> <PUBCHEM_COMPOUND_CID>
511665
> <PUBCHEM_COMPOUND_CANONICALIZED>
1
> <PUBCHEM_CACTVS_COMPLEXITY>
533
> <PUBCHEM_CACTVS_HBOND_ACCEPTOR>
6
> <PUBCHEM_CACTVS_HBOND_DONOR>
3
> <PUBCHEM_CACTVS_ROTATABLE_BOND>
6
> <PUBCHEM_CACTVS_SUBSKEYS>
AAADceBzuAAAAAAAAAAAAAAAAAAAASAAAAAgAAAAAAAAAAAAAAAAHgAQCAAADTzhgAYDCANABgCoACL2fACAAAEAAgAIAIGYABCDEBIAgAAPQAAHFgIDAACwMAoIAAAAAAAAAAAAAAAAAAAAAAAAAAAAAA==
> <PUBCHEM_IUPAC_OPENEYE_NAME>
[(2S,3R,5S)-5-(4-amino-2-oxo-pyrimidin-1-yl)-3-hydroxy-tetrahydrofuran-2-yl]methyl 2-amino-3-methyl-butanoate
> <PUBCHEM_IUPAC_CAS_NAME>
2-amino-3-methylbutanoic acid [(2S,3R,5S)-5-(4-amino-2-oxo-1-pyrimidinyl)-3-hydroxy-2-oxolanyl]methyl ester
> <PUBCHEM_IUPAC_NAME_MARKUP>
[(2<I>S</I>,3<I>R</I>,5<I>S</I>)-5-(4-amino-2-oxopyrimidin-1-yl)-3-hydroxyoxolan-2-yl]methyl 2-amino-3-methylbutanoate
> <PUBCHEM_IUPAC_NAME>
[(2S,3R,5S)-5-(4-amino-2-oxopyrimidin-1-yl)-3-hydroxyoxolan-2-yl]methyl 2-amino-3-methylbutanoate
> <PUBCHEM_IUPAC_SYSTEMATIC_NAME>
[(2S,3R,5S)-5-(4-azanyl-2-oxidanylidene-pyrimidin-1-yl)-3-oxidanyl-oxolan-2-yl]methyl 2-azanyl-3-methyl-butanoate
> <PUBCHEM_IUPAC_TRADITIONAL_NAME>
2-amino-3-methyl-butyric acid [(2S,3R,5S)-5-(4-amino-2-keto-pyrimidin-1-yl)-3-hydroxy-tetrahydrofuran-2-yl]methyl ester
> <PUBCHEM_IUPAC_INCHI>
InChI=1S/C14H22N4O5/c1-7(2)12(16)13(20)22-6-9-8(19)5-11(23-9)18-4-3-10(15)17-14(18)21/h3-4,7-9,11-12,19H,5-6,16H2,1-2H3,(H2,15,17,21)/t8-,9+,11+,12?/m1/s1
> <PUBCHEM_IUPAC_INCHIKEY>
BTWPVHJIZSZPCI-IWDUUBJBSA-N
> <PUBCHEM_XLOGP3>
-1.3
> <PUBCHEM_EXACT_MASS>
326.15901982
> <PUBCHEM_MOLECULAR_FORMULA>
C14H22N4O5
> <PUBCHEM_MOLECULAR_WEIGHT>
326.35
> <PUBCHEM_OPENEYE_CAN_SMILES>
CC(C)C(C(=O)OCC1C(CC(O1)N2C=CC(=NC2=O)N)O)N
> <PUBCHEM_OPENEYE_ISO_SMILES>
CC(C)C(C(=O)OC[C@H]1[C@@H](C[C@H](O1)N2C=CC(=NC2=O)N)O)N
> <PUBCHEM_CACTVS_TPSA>
141
> <PUBCHEM_MONOISOTOPIC_WEIGHT>
326.15901982
> <PUBCHEM_TOTAL_CHARGE>
0
> <PUBCHEM_HEAVY_ATOM_COUNT>
23
> <PUBCHEM_ATOM_DEF_STEREO_COUNT>
3
> <PUBCHEM_ATOM_UDEF_STEREO_COUNT>
1
> <PUBCHEM_BOND_DEF_STEREO_COUNT>
0
> <PUBCHEM_BOND_UDEF_STEREO_COUNT>
0
> <PUBCHEM_ISOTOPIC_ATOM_COUNT>
0
> <PUBCHEM_COMPONENT_COUNT>
1
> <PUBCHEM_CACTVS_TAUTO_COUNT>
-1
> <PUBCHEM_COORDINATE_TYPE>
1
5
255
> <PUBCHEM_BONDANNOTATIONS>
11  14  5
16  20  8
10  2  6
20  23  8
13  6  5
6  16  8
6  18  8
7  18  8
7  23  8
15  8  3
$$$$
