511647
  -OEChem-10302200282D
 54 57  0     1  0  0  0  0  0999 V2000
    4.1111    3.7230    0.0000 F   0  0  0  0  0  0  0  0  0  0  0  0
    4.6870    1.2003    0.0000 O   0  0  0  0  0  0  0  0  0  0  0  0
    9.1448   -0.1977    0.0000 O   0  0  0  0  0  0  0  0  0  0  0  0
    2.6166    0.9254    0.0000 O   0  0  0  0  0  0  0  0  0  0  0  0
    5.6005   -0.3929    0.0000 O   0  0  0  0  0  0  0  0  0  0  0  0
    6.4666    1.1071    0.0000 N   0  0  0  0  0  0  0  0  0  0  0  0
    7.3326   -0.3929    0.0000 N   0  0  0  0  0  0  0  0  0  0  0  0
    5.6005    1.6071    0.0000 C   0  0  1  0  0  0  0  0  0  0  0  0
    5.4960    2.6016    0.0000 C   0  0  0  0  0  0  0  0  0  0  0  0
    4.5179    2.8095    0.0000 C   0  0  1  0  0  0  0  0  0  0  0  0
    4.0179    1.9435    0.0000 C   0  0  1  0  0  0  0  0  0  0  0  0
    3.0233    1.8390    0.0000 C   0  0  0  0  0  0  0  0  0  0  0  0
    7.3326    1.6071    0.0000 C   0  0  0  0  0  0  0  0  0  0  0  0
    8.1986    1.1071    0.0000 C   0  0  0  0  0  0  0  0  0  0  0  0
    6.4666    0.1071    0.0000 C   0  0  0  0  0  0  0  0  0  0  0  0
   10.7284    0.6071    0.0000 C   0  0  0  0  0  0  0  0  0  0  0  0
   11.2284   -0.2590    0.0000 C   0  0  0  0  0  0  0  0  0  0  0  0
    8.1986    0.1071    0.0000 C   0  0  0  0  0  0  0  0  0  0  0  0
    9.7284    0.6071    0.0000 C   0  0  0  0  0  0  0  0  0  0  0  0
   12.2284   -0.2590    0.0000 C   0  0  0  0  0  0  0  0  0  0  0  0
    9.1448    1.4118    0.0000 C   0  0  0  0  0  0  0  0  0  0  0  0
   12.7284   -1.1250    0.0000 C   0  0  0  0  0  0  0  0  0  0  0  0
   13.7284   -1.1250    0.0000 C   0  0  0  0  0  0  0  0  0  0  0  0
   14.2284   -1.9910    0.0000 C   0  0  0  0  0  0  0  0  0  0  0  0
   13.7284   -2.8570    0.0000 C   0  0  0  0  0  0  0  0  0  0  0  0
   15.2284   -1.9910    0.0000 C   0  0  0  0  0  0  0  0  0  0  0  0
   14.2284   -3.7230    0.0000 C   0  0  0  0  0  0  0  0  0  0  0  0
   15.7284   -2.8570    0.0000 C   0  0  0  0  0  0  0  0  0  0  0  0
   15.2284   -3.7230    0.0000 C   0  0  0  0  0  0  0  0  0  0  0  0
    5.5681    0.9879    0.0000 H   0  0  0  0  0  0  0  0  0  0  0  0
    6.1160    2.6016    0.0000 H   0  0  0  0  0  0  0  0  0  0  0  0
    5.5608    3.2182    0.0000 H   0  0  0  0  0  0  0  0  0  0  0  0
    4.9080    3.2913    0.0000 H   0  0  0  0  0  0  0  0  0  0  0  0
    3.7957    1.3647    0.0000 H   0  0  0  0  0  0  0  0  0  0  0  0
    3.0666    2.4574    0.0000 H   0  0  0  0  0  0  0  0  0  0  0  0
    2.4218    1.9890    0.0000 H   0  0  0  0  0  0  0  0  0  0  0  0
    7.3326    2.2271    0.0000 H   0  0  0  0  0  0  0  0  0  0  0  0
   11.3111    0.8191    0.0000 H   0  0  0  0  0  0  0  0  0  0  0  0
   10.6208    1.2176    0.0000 H   0  0  0  0  0  0  0  0  0  0  0  0
   10.6458   -0.4710    0.0000 H   0  0  0  0  0  0  0  0  0  0  0  0
   11.3361   -0.8695    0.0000 H   0  0  0  0  0  0  0  0  0  0  0  0
   12.8111   -0.0469    0.0000 H   0  0  0  0  0  0  0  0  0  0  0  0
   12.1208    0.3516    0.0000 H   0  0  0  0  0  0  0  0  0  0  0  0
    9.3374    2.0011    0.0000 H   0  0  0  0  0  0  0  0  0  0  0  0
   12.1458   -1.3370    0.0000 H   0  0  0  0  0  0  0  0  0  0  0  0
   12.8361   -1.7356    0.0000 H   0  0  0  0  0  0  0  0  0  0  0  0
    2.0000    0.8606    0.0000 H   0  0  0  0  0  0  0  0  0  0  0  0
   14.3111   -0.9129    0.0000 H   0  0  0  0  0  0  0  0  0  0  0  0
   13.6208   -0.5144    0.0000 H   0  0  0  0  0  0  0  0  0  0  0  0
   13.1084   -2.8570    0.0000 H   0  0  0  0  0  0  0  0  0  0  0  0
   15.5384   -1.4541    0.0000 H   0  0  0  0  0  0  0  0  0  0  0  0
   13.9184   -4.2600    0.0000 H   0  0  0  0  0  0  0  0  0  0  0  0
   16.3484   -2.8570    0.0000 H   0  0  0  0  0  0  0  0  0  0  0  0
   15.5384   -4.2600    0.0000 H   0  0  0  0  0  0  0  0  0  0  0  0
 10  1  1  1  0  0  0
  2  8  1  0  0  0  0
  2 11  1  0  0  0  0
  3 18  1  0  0  0  0
  3 19  1  0  0  0  0
  4 12  1  0  0  0  0
  4 47  1  0  0  0  0
  5 15  2  0  0  0  0
  8  6  1  6  0  0  0
  6 13  1  0  0  0  0
  6 15  1  0  0  0  0
  7 15  1  0  0  0  0
  7 18  2  0  0  0  0
  8  9  1  0  0  0  0
  8 30  1  0  0  0  0
  9 10  1  0  0  0  0
  9 31  1  0  0  0  0
  9 32  1  0  0  0  0
 10 11  1  0  0  0  0
 10 33  1  0  0  0  0
 11 12  1  6  0  0  0
 11 34  1  0  0  0  0
 12 35  1  0  0  0  0
 12 36  1  0  0  0  0
 13 14  2  0  0  0  0
 13 37  1  0  0  0  0
 14 18  1  0  0  0  0
 14 21  1  0  0  0  0
 16 17  1  0  0  0  0
 16 19  1  0  0  0  0
 16 38  1  0  0  0  0
 16 39  1  0  0  0  0
 17 20  1  0  0  0  0
 17 40  1  0  0  0  0
 17 41  1  0  0  0  0
 19 21  2  0  0  0  0
 20 22  1  0  0  0  0
 20 42  1  0  0  0  0
 20 43  1  0  0  0  0
 21 44  1  0  0  0  0
 22 23  1  0  0  0  0
 22 45  1  0  0  0  0
 22 46  1  0  0  0  0
 23 24  1  0  0  0  0
 23 48  1  0  0  0  0
 23 49  1  0  0  0  0
 24 25  2  0  0  0  0
 24 26  1  0  0  0  0
 25 27  1  0  0  0  0
 25 50  1  0  0  0  0
 26 28  2  0  0  0  0
 26 51  1  0  0  0  0
 27 29  2  0  0  0  0
 27 52  1  0  0  0  0
 28 29  1  0  0  0  0
 28 53  1  0  0  0  0
 29 54  1  0  0  0  0
M  END
> <PUBCHEM_COMPOUND_CID>
511647
> <PUBCHEM_COMPOUND_CANONICALIZED>
1
> <PUBCHEM_CACTVS_COMPLEXITY>
699
> <PUBCHEM_CACTVS_HBOND_ACCEPTOR>
5
> <PUBCHEM_CACTVS_HBOND_DONOR>
1
> <PUBCHEM_CACTVS_ROTATABLE_BOND>
8
> <PUBCHEM_CACTVS_SUBSKEYS>
AAADceB7OQAAAAAAAAAAAAAAAAAAASIAAAAwQAAAAAAAAEABAAAAHwAACAAADBThmAYxAIMABgCoAiBmVAACCAAgIAAIiAAoAJiJNCKAsRCOYAAkxgILqAew8OIOAAAAAAAAAAAAAAAAAAAAAAAAAAAAAA==
> <PUBCHEM_IUPAC_OPENEYE_NAME>
3-[(2R,4S,5R)-4-fluoro-5-(hydroxymethyl)tetrahydrofuran-2-yl]-6-(5-phenylpentyl)furo[2,3-d]pyrimidin-2-one
> <PUBCHEM_IUPAC_CAS_NAME>
3-[(2R,4S,5R)-4-fluoro-5-(hydroxymethyl)-2-oxolanyl]-6-(5-phenylpentyl)-2-furo[2,3-d]pyrimidinone
> <PUBCHEM_IUPAC_NAME_MARKUP>
3-[(2<I>R</I>,4<I>S</I>,5<I>R</I>)-4-fluoro-5-(hydroxymethyl)oxolan-2-yl]-6-(5-phenylpentyl)furo[2,3-d]pyrimidin-2-one
> <PUBCHEM_IUPAC_NAME>
3-[(2R,4S,5R)-4-fluoro-5-(hydroxymethyl)oxolan-2-yl]-6-(5-phenylpentyl)furo[2,3-d]pyrimidin-2-one
> <PUBCHEM_IUPAC_SYSTEMATIC_NAME>
3-[(2R,4S,5R)-4-fluoranyl-5-(hydroxymethyl)oxolan-2-yl]-6-(5-phenylpentyl)furo[2,3-d]pyrimidin-2-one
> <PUBCHEM_IUPAC_TRADITIONAL_NAME>
3-[(2R,4S,5R)-4-fluoro-5-methylol-tetrahydrofuran-2-yl]-6-(5-phenylpentyl)furo[2,3-d]pyrimidin-2-one
> <PUBCHEM_IUPAC_INCHI>
InChI=1S/C22H25FN2O4/c23-18-12-20(29-19(18)14-26)25-13-16-11-17(28-21(16)24-22(25)27)10-6-2-5-9-15-7-3-1-4-8-15/h1,3-4,7-8,11,13,18-20,26H,2,5-6,9-10,12,14H2/t18-,19+,20+/m0/s1
> <PUBCHEM_IUPAC_INCHIKEY>
ZJPQMFRXNFNXGF-XUVXKRRUSA-N
> <PUBCHEM_XLOGP3_AA>
3.6
> <PUBCHEM_EXACT_MASS>
400.17983545
> <PUBCHEM_MOLECULAR_FORMULA>
C22H25FN2O4
> <PUBCHEM_MOLECULAR_WEIGHT>
400.4
> <PUBCHEM_OPENEYE_CAN_SMILES>
C1C(C(OC1N2C=C3C=C(OC3=NC2=O)CCCCCC4=CC=CC=C4)CO)F
> <PUBCHEM_OPENEYE_ISO_SMILES>
C1[C@@H]([C@H](O[C@H]1N2C=C3C=C(OC3=NC2=O)CCCCCC4=CC=CC=C4)CO)F
> <PUBCHEM_CACTVS_TPSA>
71.4
> <PUBCHEM_MONOISOTOPIC_WEIGHT>
400.17983545
> <PUBCHEM_TOTAL_CHARGE>
0
> <PUBCHEM_HEAVY_ATOM_COUNT>
29
> <PUBCHEM_ATOM_DEF_STEREO_COUNT>
3
> <PUBCHEM_ATOM_UDEF_STEREO_COUNT>
0
> <PUBCHEM_BOND_DEF_STEREO_COUNT>
0
> <PUBCHEM_BOND_UDEF_STEREO_COUNT>
0
> <PUBCHEM_ISOTOPIC_ATOM_COUNT>
0
> <PUBCHEM_COMPONENT_COUNT>
1
> <PUBCHEM_CACTVS_TAUTO_COUNT>
-1
> <PUBCHEM_COORDINATE_TYPE>
1
5
255
> <PUBCHEM_BONDANNOTATIONS>
10  1  5
11  12  6
13  14  8
14  18  8
14  21  8
19  21  8
24  25  8
24  26  8
25  27  8
26  28  8
27  29  8
28  29  8
3  18  8
3  19  8
6  13  8
6  15  8
8  6  6
7  15  8
7  18  8
$$$$
