511664
  -OEChem-10302200282D
 61 62  0     1  0  0  0  0  0999 V2000
    6.8381   -0.3553    0.0000 O   0  0  0  0  0  0  0  0  0  0  0  0
    4.9413   -2.1154    0.0000 O   0  0  0  0  0  0  0  0  0  0  0  0
    8.1114   -2.0109    0.0000 O   0  0  0  0  0  0  0  0  0  0  0  0
    3.5400   -1.0973    0.0000 O   0  0  0  0  0  0  0  0  0  0  0  0
    7.7611    1.2324    0.0000 O   0  0  0  0  0  0  0  0  0  0  0  0
    8.2924   -3.7334    0.0000 O   0  0  0  0  0  0  0  0  0  0  0  0
    6.0290    1.2324    0.0000 N   0  0  0  0  0  0  0  0  0  0  0  0
    2.3644   -2.7154    0.0000 N   0  0  0  0  0  0  0  0  0  0  0  0
    6.8951    2.7324    0.0000 N   0  0  0  0  0  0  0  0  0  0  0  0
   10.2814   -3.5244    0.0000 N   0  0  0  0  0  0  0  0  0  0  0  0
    6.0290    4.2324    0.0000 N   0  0  0  0  0  0  0  0  0  0  0  0
    5.5290   -1.3064    0.0000 C   0  0  1  0  0  0  0  0  0  0  0  0
    6.5290   -1.3064    0.0000 C   0  0  2  0  0  0  0  0  0  0  0  0
    5.2200   -0.3553    0.0000 C   0  0  0  0  0  0  0  0  0  0  0  0
    6.0290    0.2325    0.0000 C   0  0  2  0  0  0  0  0  0  0  0  0
    7.1168   -2.1154    0.0000 C   0  0  0  0  0  0  0  0  0  0  0  0
    3.9467   -2.0109    0.0000 C   0  0  0  0  0  0  0  0  0  0  0  0
    3.3590   -2.8199    0.0000 C   0  0  3  0  0  0  0  0  0  0  0  0
    5.1630    1.7324    0.0000 C   0  0  0  0  0  0  0  0  0  0  0  0
    3.7657   -3.7334    0.0000 C   0  0  0  0  0  0  0  0  0  0  0  0
    6.8951    1.7324    0.0000 C   0  0  0  0  0  0  0  0  0  0  0  0
    9.6937   -2.7154    0.0000 C   0  0  3  0  0  0  0  0  0  0  0  0
    8.6991   -2.8199    0.0000 C   0  0  0  0  0  0  0  0  0  0  0  0
   10.1004   -1.8018    0.0000 C   0  0  0  0  0  0  0  0  0  0  0  0
    5.1630    2.7324    0.0000 C   0  0  0  0  0  0  0  0  0  0  0  0
    3.1779   -4.5424    0.0000 C   0  0  0  0  0  0  0  0  0  0  0  0
    4.7602   -3.8380    0.0000 C   0  0  0  0  0  0  0  0  0  0  0  0
    6.0290    3.2324    0.0000 C   0  0  0  0  0  0  0  0  0  0  0  0
   11.0949   -1.6973    0.0000 C   0  0  0  0  0  0  0  0  0  0  0  0
    9.5126   -0.9928    0.0000 C   0  0  0  0  0  0  0  0  0  0  0  0
    5.8105   -1.8588    0.0000 H   0  0  0  0  0  0  0  0  0  0  0  0
    7.1414   -1.2094    0.0000 H   0  0  0  0  0  0  0  0  0  0  0  0
    4.9100    0.1816    0.0000 H   0  0  0  0  0  0  0  0  0  0  0  0
    4.6536   -0.6075    0.0000 H   0  0  0  0  0  0  0  0  0  0  0  0
    6.5815    0.5139    0.0000 H   0  0  0  0  0  0  0  0  0  0  0  0
    6.5596   -2.3872    0.0000 H   0  0  0  0  0  0  0  0  0  0  0  0
    7.2877   -2.7114    0.0000 H   0  0  0  0  0  0  0  0  0  0  0  0
    3.1068   -2.2535    0.0000 H   0  0  0  0  0  0  0  0  0  0  0  0
    4.6261    1.4224    0.0000 H   0  0  0  0  0  0  0  0  0  0  0  0
    4.1301   -3.2318    0.0000 H   0  0  0  0  0  0  0  0  0  0  0  0
    9.4415   -3.2818    0.0000 H   0  0  0  0  0  0  0  0  0  0  0  0
   10.4648   -2.3034    0.0000 H   0  0  0  0  0  0  0  0  0  0  0  0
    4.6261    3.0424    0.0000 H   0  0  0  0  0  0  0  0  0  0  0  0
    2.6763   -4.1780    0.0000 H   0  0  0  0  0  0  0  0  0  0  0  0
    2.8135   -5.0441    0.0000 H   0  0  0  0  0  0  0  0  0  0  0  0
    3.6795   -4.9069    0.0000 H   0  0  0  0  0  0  0  0  0  0  0  0
    4.6954   -4.4546    0.0000 H   0  0  0  0  0  0  0  0  0  0  0  0
    5.3768   -3.9028    0.0000 H   0  0  0  0  0  0  0  0  0  0  0  0
    4.8250   -3.2214    0.0000 H   0  0  0  0  0  0  0  0  0  0  0  0
    2.0000   -3.2170    0.0000 H   0  0  0  0  0  0  0  0  0  0  0  0
    2.1122   -2.1490    0.0000 H   0  0  0  0  0  0  0  0  0  0  0  0
   11.1597   -2.3139    0.0000 H   0  0  0  0  0  0  0  0  0  0  0  0
   11.7115   -1.6325    0.0000 H   0  0  0  0  0  0  0  0  0  0  0  0
   11.0301   -1.0807    0.0000 H   0  0  0  0  0  0  0  0  0  0  0  0
   10.0142   -0.6284    0.0000 H   0  0  0  0  0  0  0  0  0  0  0  0
    9.1482   -0.4912    0.0000 H   0  0  0  0  0  0  0  0  0  0  0  0
    9.0110   -1.3572    0.0000 H   0  0  0  0  0  0  0  0  0  0  0  0
   10.8980   -3.4596    0.0000 H   0  0  0  0  0  0  0  0  0  0  0  0
   10.0293   -4.0908    0.0000 H   0  0  0  0  0  0  0  0  0  0  0  0
    5.4921    4.5424    0.0000 H   0  0  0  0  0  0  0  0  0  0  0  0
    6.5660    4.5424    0.0000 H   0  0  0  0  0  0  0  0  0  0  0  0
  1 13  1  0  0  0  0
  1 15  1  0  0  0  0
 12  2  1  6  0  0  0
  2 17  1  0  0  0  0
  3 16  1  0  0  0  0
  3 23  1  0  0  0  0
  4 17  2  0  0  0  0
  5 21  2  0  0  0  0
  6 23  2  0  0  0  0
 15  7  1  1  0  0  0
  7 19  1  0  0  0  0
  7 21  1  0  0  0  0
  8 18  1  0  0  0  0
  8 50  1  0  0  0  0
  8 51  1  0  0  0  0
  9 21  1  0  0  0  0
  9 28  2  0  0  0  0
 10 22  1  0  0  0  0
 10 58  1  0  0  0  0
 10 59  1  0  0  0  0
 11 28  1  0  0  0  0
 11 60  1  0  0  0  0
 11 61  1  0  0  0  0
 12 13  1  0  0  0  0
 12 14  1  0  0  0  0
 12 31  1  0  0  0  0
 13 16  1  1  0  0  0
 13 32  1  0  0  0  0
 14 15  1  0  0  0  0
 14 33  1  0  0  0  0
 14 34  1  0  0  0  0
 15 35  1  0  0  0  0
 16 36  1  0  0  0  0
 16 37  1  0  0  0  0
 17 18  1  0  0  0  0
 18 20  1  0  0  0  0
 18 38  1  0  0  0  0
 19 25  2  0  0  0  0
 19 39  1  0  0  0  0
 20 26  1  0  0  0  0
 20 27  1  0  0  0  0
 20 40  1  0  0  0  0
 22 23  1  0  0  0  0
 22 24  1  0  0  0  0
 22 41  1  0  0  0  0
 24 29  1  0  0  0  0
 24 30  1  0  0  0  0
 24 42  1  0  0  0  0
 25 28  1  0  0  0  0
 25 43  1  0  0  0  0
 26 44  1  0  0  0  0
 26 45  1  0  0  0  0
 26 46  1  0  0  0  0
 27 47  1  0  0  0  0
 27 48  1  0  0  0  0
 27 49  1  0  0  0  0
 29 52  1  0  0  0  0
 29 53  1  0  0  0  0
 29 54  1  0  0  0  0
 30 55  1  0  0  0  0
 30 56  1  0  0  0  0
 30 57  1  0  0  0  0
M  END
> <PUBCHEM_COMPOUND_CID>
511664
> <PUBCHEM_COMPOUND_CANONICALIZED>
1
> <PUBCHEM_CACTVS_COMPLEXITY>
722
> <PUBCHEM_CACTVS_HBOND_ACCEPTOR>
8
> <PUBCHEM_CACTVS_HBOND_DONOR>
3
> <PUBCHEM_CACTVS_ROTATABLE_BOND>
10
> <PUBCHEM_CACTVS_SUBSKEYS>
AAADceB7uAAAAAAAAAAAAAAAAAAAASAAAAAgAAAAAAAAAAAAAAAAHgAQAAAADTzhgAYDCANABACoACL2fACAAAEAAgAIAIGYABCDABIAgAAPAAAHFgICAACwMAoIAAAAAAAAAAAAAAAAAAAAAAAAAAAAAA==
> <PUBCHEM_IUPAC_OPENEYE_NAME>
[(2S,3R,5S)-3-(2-amino-3-methyl-butanoyl)oxy-5-(4-amino-2-oxo-pyrimidin-1-yl)tetrahydrofuran-2-yl]methyl 2-amino-3-methyl-butanoate
> <PUBCHEM_IUPAC_CAS_NAME>
2-amino-3-methylbutanoic acid [(2S,3R,5S)-3-(2-amino-3-methyl-1-oxobutoxy)-5-(4-amino-2-oxo-1-pyrimidinyl)-2-oxolanyl]methyl ester
> <PUBCHEM_IUPAC_NAME_MARKUP>
[(2<I>S</I>,3<I>R</I>,5<I>S</I>)-3-(2-amino-3-methylbutanoyl)oxy-5-(4-amino-2-oxopyrimidin-1-yl)oxolan-2-yl]methyl 2-amino-3-methylbutanoate
> <PUBCHEM_IUPAC_NAME>
[(2S,3R,5S)-3-(2-amino-3-methylbutanoyl)oxy-5-(4-amino-2-oxopyrimidin-1-yl)oxolan-2-yl]methyl 2-amino-3-methylbutanoate
> <PUBCHEM_IUPAC_SYSTEMATIC_NAME>
[(2S,3R,5S)-3-(2-azanyl-3-methyl-butanoyl)oxy-5-(4-azanyl-2-oxidanylidene-pyrimidin-1-yl)oxolan-2-yl]methyl 2-azanyl-3-methyl-butanoate
> <PUBCHEM_IUPAC_TRADITIONAL_NAME>
2-amino-3-methyl-butyric acid [(2S,3R,5S)-5-(4-amino-2-keto-pyrimidin-1-yl)-3-(2-amino-3-methyl-butanoyl)oxy-tetrahydrofuran-2-yl]methyl ester
> <PUBCHEM_IUPAC_INCHI>
InChI=1S/C19H31N5O6/c1-9(2)15(21)17(25)28-8-12-11(30-18(26)16(22)10(3)4)7-14(29-12)24-6-5-13(20)23-19(24)27/h5-6,9-12,14-16H,7-8,21-22H2,1-4H3,(H2,20,23,27)/t11-,12+,14+,15?,16?/m1/s1
> <PUBCHEM_IUPAC_INCHIKEY>
BPPMYUZIZUESBY-WMQZXVRPSA-N
> <PUBCHEM_XLOGP3>
0.1
> <PUBCHEM_EXACT_MASS>
425.22743373
> <PUBCHEM_MOLECULAR_FORMULA>
C19H31N5O6
> <PUBCHEM_MOLECULAR_WEIGHT>
425.5
> <PUBCHEM_OPENEYE_CAN_SMILES>
CC(C)C(C(=O)OCC1C(CC(O1)N2C=CC(=NC2=O)N)OC(=O)C(C(C)C)N)N
> <PUBCHEM_OPENEYE_ISO_SMILES>
CC(C)C(C(=O)OC[C@H]1[C@@H](C[C@H](O1)N2C=CC(=NC2=O)N)OC(=O)C(C(C)C)N)N
> <PUBCHEM_CACTVS_TPSA>
173
> <PUBCHEM_MONOISOTOPIC_WEIGHT>
425.22743373
> <PUBCHEM_TOTAL_CHARGE>
0
> <PUBCHEM_HEAVY_ATOM_COUNT>
30
> <PUBCHEM_ATOM_DEF_STEREO_COUNT>
3
> <PUBCHEM_ATOM_UDEF_STEREO_COUNT>
2
> <PUBCHEM_BOND_DEF_STEREO_COUNT>
0
> <PUBCHEM_BOND_UDEF_STEREO_COUNT>
0
> <PUBCHEM_ISOTOPIC_ATOM_COUNT>
0
> <PUBCHEM_COMPONENT_COUNT>
1
> <PUBCHEM_CACTVS_TAUTO_COUNT>
-1
> <PUBCHEM_COORDINATE_TYPE>
1
5
255
> <PUBCHEM_BONDANNOTATIONS>
22  10  3
13  16  5
19  25  8
12  2  6
25  28  8
15  7  5
7  19  8
7  21  8
18  8  3
9  21  8
9  28  8
$$$$
