511683
  -OEChem-10302200282D
 48 51  0     1  0  0  0  0  0999 V2000
    4.6870    0.4418    0.0000 O   0  0  0  0  0  0  0  0  0  0  0  0
    4.1111    2.9646    0.0000 O   0  0  0  0  0  0  0  0  0  0  0  0
    9.1448   -0.9562    0.0000 O   0  0  0  0  0  0  0  0  0  0  0  0
    2.6166    0.1669    0.0000 O   0  0  0  0  0  0  0  0  0  0  0  0
   13.7230   -1.9880    0.0000 O   0  0  0  0  0  0  0  0  0  0  0  0
   12.3217   -2.7970    0.0000 O   0  0  0  0  0  0  0  0  0  0  0  0
    5.6005   -1.1514    0.0000 O   0  0  0  0  0  0  0  0  0  0  0  0
    6.4666    0.3486    0.0000 N   0  0  0  0  0  0  0  0  0  0  0  0
    7.3326   -1.1514    0.0000 N   0  0  0  0  0  0  0  0  0  0  0  0
    5.6005    0.8486    0.0000 C   0  0  1  0  0  0  0  0  0  0  0  0
    4.5179    2.0510    0.0000 C   0  0  1  0  0  0  0  0  0  0  0  0
    5.4960    1.8431    0.0000 C   0  0  0  0  0  0  0  0  0  0  0  0
    4.0179    1.1850    0.0000 C   0  0  1  0  0  0  0  0  0  0  0  0
    3.0233    1.0805    0.0000 C   0  0  0  0  0  0  0  0  0  0  0  0
    7.3326    0.8486    0.0000 C   0  0  0  0  0  0  0  0  0  0  0  0
    8.1986    0.3486    0.0000 C   0  0  0  0  0  0  0  0  0  0  0  0
    6.4666   -0.6514    0.0000 C   0  0  0  0  0  0  0  0  0  0  0  0
   11.2284   -1.0174    0.0000 C   0  0  0  0  0  0  0  0  0  0  0  0
   12.2284   -1.0174    0.0000 C   0  0  0  0  0  0  0  0  0  0  0  0
   10.7284   -0.1514    0.0000 C   0  0  0  0  0  0  0  0  0  0  0  0
   12.7284   -1.8835    0.0000 C   0  0  0  0  0  0  0  0  0  0  0  0
    9.7284   -0.1514    0.0000 C   0  0  0  0  0  0  0  0  0  0  0  0
    8.1986   -0.6514    0.0000 C   0  0  0  0  0  0  0  0  0  0  0  0
    9.1448    0.6533    0.0000 C   0  0  0  0  0  0  0  0  0  0  0  0
   13.9309   -2.9662    0.0000 C   0  0  0  0  0  0  0  0  0  0  0  0
   13.0649   -3.4662    0.0000 C   0  0  0  0  0  0  0  0  0  0  0  0
    5.5681    0.2294    0.0000 H   0  0  0  0  0  0  0  0  0  0  0  0
    4.9080    2.5328    0.0000 H   0  0  0  0  0  0  0  0  0  0  0  0
    6.1160    1.8431    0.0000 H   0  0  0  0  0  0  0  0  0  0  0  0
    5.5608    2.4597    0.0000 H   0  0  0  0  0  0  0  0  0  0  0  0
    3.7957    0.6062    0.0000 H   0  0  0  0  0  0  0  0  0  0  0  0
    3.0666    1.6990    0.0000 H   0  0  0  0  0  0  0  0  0  0  0  0
    2.4218    1.2304    0.0000 H   0  0  0  0  0  0  0  0  0  0  0  0
    7.3326    1.4686    0.0000 H   0  0  0  0  0  0  0  0  0  0  0  0
    4.4756    3.4662    0.0000 H   0  0  0  0  0  0  0  0  0  0  0  0
   10.6458   -1.2295    0.0000 H   0  0  0  0  0  0  0  0  0  0  0  0
   11.3361   -1.6280    0.0000 H   0  0  0  0  0  0  0  0  0  0  0  0
   12.8111   -0.8054    0.0000 H   0  0  0  0  0  0  0  0  0  0  0  0
   12.1208   -0.4069    0.0000 H   0  0  0  0  0  0  0  0  0  0  0  0
   11.3111    0.0606    0.0000 H   0  0  0  0  0  0  0  0  0  0  0  0
   10.6208    0.4592    0.0000 H   0  0  0  0  0  0  0  0  0  0  0  0
   12.1093   -1.9159    0.0000 H   0  0  0  0  0  0  0  0  0  0  0  0
    9.3374    1.2426    0.0000 H   0  0  0  0  0  0  0  0  0  0  0  0
    2.0000    0.1021    0.0000 H   0  0  0  0  0  0  0  0  0  0  0  0
   14.1831   -3.5326    0.0000 H   0  0  0  0  0  0  0  0  0  0  0  0
   14.5205   -2.7746    0.0000 H   0  0  0  0  0  0  0  0  0  0  0  0
   12.6041   -3.8810    0.0000 H   0  0  0  0  0  0  0  0  0  0  0  0
   13.4293   -3.9677    0.0000 H   0  0  0  0  0  0  0  0  0  0  0  0
  1 10  1  0  0  0  0
  1 13  1  0  0  0  0
 11  2  1  1  0  0  0
  2 35  1  0  0  0  0
  3 22  1  0  0  0  0
  3 23  1  0  0  0  0
  4 14  1  0  0  0  0
  4 44  1  0  0  0  0
  5 21  1  0  0  0  0
  5 25  1  0  0  0  0
  6 21  1  0  0  0  0
  6 26  1  0  0  0  0
  7 17  2  0  0  0  0
 10  8  1  6  0  0  0
  8 15  1  0  0  0  0
  8 17  1  0  0  0  0
  9 17  1  0  0  0  0
  9 23  2  0  0  0  0
 10 12  1  0  0  0  0
 10 27  1  0  0  0  0
 11 12  1  0  0  0  0
 11 13  1  0  0  0  0
 11 28  1  0  0  0  0
 12 29  1  0  0  0  0
 12 30  1  0  0  0  0
 13 14  1  6  0  0  0
 13 31  1  0  0  0  0
 14 32  1  0  0  0  0
 14 33  1  0  0  0  0
 15 16  2  0  0  0  0
 15 34  1  0  0  0  0
 16 23  1  0  0  0  0
 16 24  1  0  0  0  0
 18 19  1  0  0  0  0
 18 20  1  0  0  0  0
 18 36  1  0  0  0  0
 18 37  1  0  0  0  0
 19 21  1  0  0  0  0
 19 38  1  0  0  0  0
 19 39  1  0  0  0  0
 20 22  1  0  0  0  0
 20 40  1  0  0  0  0
 20 41  1  0  0  0  0
 21 42  1  0  0  0  0
 22 24  2  0  0  0  0
 24 43  1  0  0  0  0
 25 26  1  0  0  0  0
 25 45  1  0  0  0  0
 25 46  1  0  0  0  0
 26 47  1  0  0  0  0
 26 48  1  0  0  0  0
M  END
> <PUBCHEM_COMPOUND_CID>
511683
> <PUBCHEM_COMPOUND_CANONICALIZED>
1
> <PUBCHEM_CACTVS_COMPLEXITY>
654
> <PUBCHEM_CACTVS_HBOND_ACCEPTOR>
7
> <PUBCHEM_CACTVS_HBOND_DONOR>
2
> <PUBCHEM_CACTVS_ROTATABLE_BOND>
6
> <PUBCHEM_CACTVS_SUBSKEYS>
AAADceB7OAAAAAAAAAAAAAAAAAAAASJEAAAgAAAAAAAAAEAAAAAAHgAACAAADBTxgAcBCAMABgCoAiBmVAAACAAgIAAACAAoABiZFAIAoQAuQAAHxgIPoAKwMAoAAAAAAAAAAAAAAAAAAAAAAAAAAAAAAA==
> <PUBCHEM_IUPAC_OPENEYE_NAME>
6-[3-(1,3-dioxolan-2-yl)propyl]-3-[(2R,4S,5R)-4-hydroxy-5-(hydroxymethyl)tetrahydrofuran-2-yl]furo[2,3-d]pyrimidin-2-one
> <PUBCHEM_IUPAC_CAS_NAME>
6-[3-(1,3-dioxolan-2-yl)propyl]-3-[(2R,4S,5R)-4-hydroxy-5-(hydroxymethyl)-2-oxolanyl]-2-furo[2,3-d]pyrimidinone
> <PUBCHEM_IUPAC_NAME_MARKUP>
6-[3-(1,3-dioxolan-2-yl)propyl]-3-[(2<I>R</I>,4<I>S</I>,5<I>R</I>)-4-hydroxy-5-(hydroxymethyl)oxolan-2-yl]furo[2,3-d]pyrimidin-2-one
> <PUBCHEM_IUPAC_NAME>
6-[3-(1,3-dioxolan-2-yl)propyl]-3-[(2R,4S,5R)-4-hydroxy-5-(hydroxymethyl)oxolan-2-yl]furo[2,3-d]pyrimidin-2-one
> <PUBCHEM_IUPAC_SYSTEMATIC_NAME>
6-[3-(1,3-dioxolan-2-yl)propyl]-3-[(2R,4S,5R)-5-(hydroxymethyl)-4-oxidanyl-oxolan-2-yl]furo[2,3-d]pyrimidin-2-one
> <PUBCHEM_IUPAC_TRADITIONAL_NAME>
6-[3-(1,3-dioxolan-2-yl)propyl]-3-[(2R,4S,5R)-4-hydroxy-5-methylol-tetrahydrofuran-2-yl]furo[2,3-d]pyrimidin-2-one
> <PUBCHEM_IUPAC_INCHI>
InChI=1S/C17H22N2O7/c20-9-13-12(21)7-14(26-13)19-8-10-6-11(25-16(10)18-17(19)22)2-1-3-15-23-4-5-24-15/h6,8,12-15,20-21H,1-5,7,9H2/t12-,13+,14+/m0/s1
> <PUBCHEM_IUPAC_INCHIKEY>
JVNJWYVZZYDLOM-BFHYXJOUSA-N
> <PUBCHEM_XLOGP3_AA>
0.1
> <PUBCHEM_EXACT_MASS>
366.14270105
> <PUBCHEM_MOLECULAR_FORMULA>
C17H22N2O7
> <PUBCHEM_MOLECULAR_WEIGHT>
366.4
> <PUBCHEM_OPENEYE_CAN_SMILES>
C1COC(O1)CCCC2=CC3=CN(C(=O)N=C3O2)C4CC(C(O4)CO)O
> <PUBCHEM_OPENEYE_ISO_SMILES>
C1COC(O1)CCCC2=CC3=CN(C(=O)N=C3O2)[C@H]4C[C@@H]([C@H](O4)CO)O
> <PUBCHEM_CACTVS_TPSA>
110
> <PUBCHEM_MONOISOTOPIC_WEIGHT>
366.14270105
> <PUBCHEM_TOTAL_CHARGE>
0
> <PUBCHEM_HEAVY_ATOM_COUNT>
26
> <PUBCHEM_ATOM_DEF_STEREO_COUNT>
3
> <PUBCHEM_ATOM_UDEF_STEREO_COUNT>
0
> <PUBCHEM_BOND_DEF_STEREO_COUNT>
0
> <PUBCHEM_BOND_UDEF_STEREO_COUNT>
0
> <PUBCHEM_ISOTOPIC_ATOM_COUNT>
0
> <PUBCHEM_COMPONENT_COUNT>
1
> <PUBCHEM_CACTVS_TAUTO_COUNT>
-1
> <PUBCHEM_COORDINATE_TYPE>
1
5
255
> <PUBCHEM_BONDANNOTATIONS>
13  14  6
15  16  8
16  23  8
16  24  8
11  2  5
22  24  8
3  22  8
3  23  8
10  8  6
8  15  8
8  17  8
9  17  8
9  23  8
$$$$
