511669
  -OEChem-10302200282D
 32 33  0     1  0  0  0  0  0999 V2000
    3.2601   -0.0256    0.0000 F   0  0  0  0  0  0  0  0  0  0  0  0
    2.0000   -0.6676    0.0000 F   0  0  0  0  0  0  0  0  0  0  0  0
    2.6420   -1.9277    0.0000 F   0  0  0  0  0  0  0  0  0  0  0  0
    5.5202   -1.2857    0.0000 O   0  0  0  0  0  0  0  0  0  0  0  0
    3.6233   -3.0457    0.0000 O   0  0  0  0  0  0  0  0  0  0  0  0
    6.7934   -2.9412    0.0000 O   0  0  0  0  0  0  0  0  0  0  0  0
    6.4432    0.3021    0.0000 O   0  0  0  0  0  0  0  0  0  0  0  0
    4.7111    0.3021    0.0000 N   0  0  0  0  0  0  0  0  0  0  0  0
    5.5772    1.8021    0.0000 N   0  0  0  0  0  0  0  0  0  0  0  0
    4.7111    3.3021    0.0000 N   0  0  0  0  0  0  0  0  0  0  0  0
    3.9021   -1.2857    0.0000 C   0  0  2  0  0  0  0  0  0  0  0  0
    4.2111   -2.2367    0.0000 C   0  0  1  0  0  0  0  0  0  0  0  0
    4.7111   -0.6979    0.0000 C   0  0  1  0  0  0  0  0  0  0  0  0
    5.2111   -2.2367    0.0000 C   0  0  1  0  0  0  0  0  0  0  0  0
    2.9511   -0.9766    0.0000 C   0  0  0  0  0  0  0  0  0  0  0  0
    5.7989   -3.0457    0.0000 C   0  0  0  0  0  0  0  0  0  0  0  0
    3.8451    0.8021    0.0000 C   0  0  0  0  0  0  0  0  0  0  0  0
    5.5772    0.8021    0.0000 C   0  0  0  0  0  0  0  0  0  0  0  0
    3.8451    1.8021    0.0000 C   0  0  0  0  0  0  0  0  0  0  0  0
    4.7111    2.3021    0.0000 C   0  0  0  0  0  0  0  0  0  0  0  0
    3.4637   -1.7241    0.0000 H   0  0  0  0  0  0  0  0  0  0  0  0
    4.4926   -2.7891    0.0000 H   0  0  0  0  0  0  0  0  0  0  0  0
    5.2636   -0.4164    0.0000 H   0  0  0  0  0  0  0  0  0  0  0  0
    5.8235   -2.1397    0.0000 H   0  0  0  0  0  0  0  0  0  0  0  0
    5.2417   -3.3175    0.0000 H   0  0  0  0  0  0  0  0  0  0  0  0
    5.9698   -3.6417    0.0000 H   0  0  0  0  0  0  0  0  0  0  0  0
    3.8755   -3.6121    0.0000 H   0  0  0  0  0  0  0  0  0  0  0  0
    3.3082    0.4921    0.0000 H   0  0  0  0  0  0  0  0  0  0  0  0
    7.1579   -3.4428    0.0000 H   0  0  0  0  0  0  0  0  0  0  0  0
    3.3082    2.1121    0.0000 H   0  0  0  0  0  0  0  0  0  0  0  0
    4.1742    3.6121    0.0000 H   0  0  0  0  0  0  0  0  0  0  0  0
    5.2481    3.6121    0.0000 H   0  0  0  0  0  0  0  0  0  0  0  0
  1 15  1  0  0  0  0
  2 15  1  0  0  0  0
  3 15  1  0  0  0  0
  4 13  1  0  0  0  0
  4 14  1  0  0  0  0
 12  5  1  1  0  0  0
  5 27  1  0  0  0  0
  6 16  1  0  0  0  0
  6 29  1  0  0  0  0
  7 18  2  0  0  0  0
 13  8  1  6  0  0  0
  8 17  1  0  0  0  0
  8 18  1  0  0  0  0
  9 18  1  0  0  0  0
  9 20  2  0  0  0  0
 10 20  1  0  0  0  0
 10 31  1  0  0  0  0
 10 32  1  0  0  0  0
 11 12  1  0  0  0  0
 11 13  1  0  0  0  0
 11 15  1  1  0  0  0
 11 21  1  0  0  0  0
 12 14  1  0  0  0  0
 12 22  1  0  0  0  0
 13 23  1  0  0  0  0
 14 16  1  6  0  0  0
 14 24  1  0  0  0  0
 16 25  1  0  0  0  0
 16 26  1  0  0  0  0
 17 19  2  0  0  0  0
 17 28  1  0  0  0  0
 19 20  1  0  0  0  0
 19 30  1  0  0  0  0
M  END
> <PUBCHEM_COMPOUND_CID>
511669
> <PUBCHEM_COMPOUND_CANONICALIZED>
1
> <PUBCHEM_CACTVS_COMPLEXITY>
465
> <PUBCHEM_CACTVS_HBOND_ACCEPTOR>
7
> <PUBCHEM_CACTVS_HBOND_DONOR>
3
> <PUBCHEM_CACTVS_ROTATABLE_BOND>
2
> <PUBCHEM_CACTVS_SUBSKEYS>
AAADccBzOYAAAAAAAAAAAAAAAAAAASAAAAAgAAAAAAAAAAAAAAAAHwAQCAAADRThgBYBAANABgCoACJmdACAAAEAAgAIAAAYABCBEAIAgAAOQAAHFgIDAACwMAIMAAAAAAAAAAAAAAAAAAAAAAAAAAAAAA==
> <PUBCHEM_IUPAC_OPENEYE_NAME>
4-amino-1-[(2R,3R,4S,5R)-4-hydroxy-5-(hydroxymethyl)-3-(trifluoromethyl)tetrahydrofuran-2-yl]pyrimidin-2-one
> <PUBCHEM_IUPAC_CAS_NAME>
4-amino-1-[(2R,3R,4S,5R)-4-hydroxy-5-(hydroxymethyl)-3-(trifluoromethyl)-2-oxolanyl]-2-pyrimidinone
> <PUBCHEM_IUPAC_NAME_MARKUP>
4-amino-1-[(2<I>R</I>,3<I>R</I>,4<I>S</I>,5<I>R</I>)-4-hydroxy-5-(hydroxymethyl)-3-(trifluoromethyl)oxolan-2-yl]pyrimidin-2-one
> <PUBCHEM_IUPAC_NAME>
4-amino-1-[(2R,3R,4S,5R)-4-hydroxy-5-(hydroxymethyl)-3-(trifluoromethyl)oxolan-2-yl]pyrimidin-2-one
> <PUBCHEM_IUPAC_SYSTEMATIC_NAME>
4-azanyl-1-[(2R,3R,4S,5R)-5-(hydroxymethyl)-4-oxidanyl-3-(trifluoromethyl)oxolan-2-yl]pyrimidin-2-one
> <PUBCHEM_IUPAC_TRADITIONAL_NAME>
4-amino-1-[(2R,3R,4S,5R)-4-hydroxy-5-methylol-3-(trifluoromethyl)tetrahydrofuran-2-yl]pyrimidin-2-one
> <PUBCHEM_IUPAC_INCHI>
InChI=1S/C10H12F3N3O4/c11-10(12,13)6-7(18)4(3-17)20-8(6)16-2-1-5(14)15-9(16)19/h1-2,4,6-8,17-18H,3H2,(H2,14,15,19)/t4-,6-,7-,8-/m1/s1
> <PUBCHEM_IUPAC_INCHIKEY>
NQDBUQKNVZSCEV-XVFCMESISA-N
> <PUBCHEM_XLOGP3>
-0.8
> <PUBCHEM_EXACT_MASS>
295.07799036
> <PUBCHEM_MOLECULAR_FORMULA>
C10H12F3N3O4
> <PUBCHEM_MOLECULAR_WEIGHT>
295.22
> <PUBCHEM_OPENEYE_CAN_SMILES>
C1=CN(C(=O)N=C1N)C2C(C(C(O2)CO)O)C(F)(F)F
> <PUBCHEM_OPENEYE_ISO_SMILES>
C1=CN(C(=O)N=C1N)[C@H]2[C@@H]([C@@H]([C@H](O2)CO)O)C(F)(F)F
> <PUBCHEM_CACTVS_TPSA>
108
> <PUBCHEM_MONOISOTOPIC_WEIGHT>
295.07799036
> <PUBCHEM_TOTAL_CHARGE>
0
> <PUBCHEM_HEAVY_ATOM_COUNT>
20
> <PUBCHEM_ATOM_DEF_STEREO_COUNT>
4
> <PUBCHEM_ATOM_UDEF_STEREO_COUNT>
0
> <PUBCHEM_BOND_DEF_STEREO_COUNT>
0
> <PUBCHEM_BOND_UDEF_STEREO_COUNT>
0
> <PUBCHEM_ISOTOPIC_ATOM_COUNT>
0
> <PUBCHEM_COMPONENT_COUNT>
1
> <PUBCHEM_CACTVS_TAUTO_COUNT>
-1
> <PUBCHEM_COORDINATE_TYPE>
1
5
255
> <PUBCHEM_BONDANNOTATIONS>
11  15  5
14  16  6
17  19  8
19  20  8
12  5  5
13  8  6
8  17  8
8  18  8
9  18  8
9  20  8
$$$$
