511606
  -OEChem-10302200282D
 39 41  0     1  0  0  0  0  0999 V2000
    7.1962   -0.2694    0.0000 S   0  0  0  0  0  0  0  0  0  0  0  0
    8.0622    1.2306    0.0000 S   0  0  0  0  0  0  0  0  0  0  0  0
    5.5211    2.8184    0.0000 O   0  0  0  0  0  0  0  0  0  0  0  0
    3.7320    0.7306    0.0000 O   0  0  0  0  0  0  0  0  0  0  0  0
    2.8660   -0.7694    0.0000 O   0  0  0  0  0  0  0  0  0  0  0  0
    5.4641   -0.2694    0.0000 N   0  0  3  0  0  0  0  0  0  0  0  0
    6.3301    1.2306    0.0000 N   0  0  0  0  0  0  0  0  0  0  0  0
    4.5981   -0.7694    0.0000 C   0  0  3  0  0  0  0  0  0  0  0  0
    5.4641    0.7306    0.0000 C   0  0  0  0  0  0  0  0  0  0  0  0
    4.5981   -1.7694    0.0000 C   0  0  0  0  0  0  0  0  0  0  0  0
    6.3301   -0.7694    0.0000 C   0  0  0  0  0  0  0  0  0  0  0  0
    3.7320   -2.2694    0.0000 C   0  0  0  0  0  0  0  0  0  0  0  0
    3.7320   -0.2694    0.0000 C   0  0  0  0  0  0  0  0  0  0  0  0
    7.1962    0.7306    0.0000 C   0  0  0  0  0  0  0  0  0  0  0  0
    6.3301    2.2306    0.0000 C   0  0  0  0  0  0  0  0  0  0  0  0
    3.7320   -3.2694    0.0000 C   0  0  0  0  0  0  0  0  0  0  0  0
    2.8660   -1.7694    0.0000 C   0  0  0  0  0  0  0  0  0  0  0  0
    7.1391    2.8184    0.0000 C   0  0  0  0  0  0  0  0  0  0  0  0
    2.8660   -3.7694    0.0000 C   0  0  0  0  0  0  0  0  0  0  0  0
    2.0000   -2.2694    0.0000 C   0  0  0  0  0  0  0  0  0  0  0  0
    2.0000   -3.2694    0.0000 C   0  0  0  0  0  0  0  0  0  0  0  0
    6.8301    3.7694    0.0000 C   0  0  0  0  0  0  0  0  0  0  0  0
    5.8301    3.7694    0.0000 C   0  0  0  0  0  0  0  0  0  0  0  0
    4.5981   -0.1494    0.0000 H   0  0  0  0  0  0  0  0  0  0  0  0
    5.2520    1.3132    0.0000 H   0  0  0  0  0  0  0  0  0  0  0  0
    4.8535    0.6229    0.0000 H   0  0  0  0  0  0  0  0  0  0  0  0
    4.8101   -2.3520    0.0000 H   0  0  0  0  0  0  0  0  0  0  0  0
    5.2087   -1.6618    0.0000 H   0  0  0  0  0  0  0  0  0  0  0  0
    5.9316   -1.2444    0.0000 H   0  0  0  0  0  0  0  0  0  0  0  0
    6.7287   -1.2444    0.0000 H   0  0  0  0  0  0  0  0  0  0  0  0
    4.2690   -3.5794    0.0000 H   0  0  0  0  0  0  0  0  0  0  0  0
    2.8660   -1.1494    0.0000 H   0  0  0  0  0  0  0  0  0  0  0  0
    7.7288    2.6268    0.0000 H   0  0  0  0  0  0  0  0  0  0  0  0
    2.8660   -4.3894    0.0000 H   0  0  0  0  0  0  0  0  0  0  0  0
    1.4631   -1.9594    0.0000 H   0  0  0  0  0  0  0  0  0  0  0  0
    3.1951    1.0406    0.0000 H   0  0  0  0  0  0  0  0  0  0  0  0
    1.4631   -3.5794    0.0000 H   0  0  0  0  0  0  0  0  0  0  0  0
    7.1946    4.2710    0.0000 H   0  0  0  0  0  0  0  0  0  0  0  0
    5.4657    4.2710    0.0000 H   0  0  0  0  0  0  0  0  0  0  0  0
  1 11  1  0  0  0  0
  1 14  1  0  0  0  0
  2 14  2  0  0  0  0
  3 15  1  0  0  0  0
  3 23  1  0  0  0  0
  4 13  1  0  0  0  0
  4 36  1  0  0  0  0
  5 13  2  0  0  0  0
  6  8  1  0  0  0  0
  6  9  1  0  0  0  0
  6 11  1  0  0  0  0
  7  9  1  0  0  0  0
  7 14  1  0  0  0  0
  7 15  1  0  0  0  0
  8 10  1  0  0  0  0
  8 13  1  0  0  0  0
  8 24  1  0  0  0  0
  9 25  1  0  0  0  0
  9 26  1  0  0  0  0
 10 12  1  0  0  0  0
 10 27  1  0  0  0  0
 10 28  1  0  0  0  0
 11 29  1  0  0  0  0
 11 30  1  0  0  0  0
 12 16  2  0  0  0  0
 12 17  1  0  0  0  0
 15 18  2  0  0  0  0
 16 19  1  0  0  0  0
 16 31  1  0  0  0  0
 17 20  2  0  0  0  0
 17 32  1  0  0  0  0
 18 22  1  0  0  0  0
 18 33  1  0  0  0  0
 19 21  2  0  0  0  0
 19 34  1  0  0  0  0
 20 21  1  0  0  0  0
 20 35  1  0  0  0  0
 21 37  1  0  0  0  0
 22 23  2  0  0  0  0
 22 38  1  0  0  0  0
 23 39  1  0  0  0  0
M  END
> <PUBCHEM_COMPOUND_CID>
511606
> <PUBCHEM_COMPOUND_CANONICALIZED>
1
> <PUBCHEM_CACTVS_COMPLEXITY>
443
> <PUBCHEM_CACTVS_HBOND_ACCEPTOR>
6
> <PUBCHEM_CACTVS_HBOND_DONOR>
1
> <PUBCHEM_CACTVS_ROTATABLE_BOND>
5
> <PUBCHEM_CACTVS_SUBSKEYS>
AAADceB7MABgAAAAAAAAAAAAAAAAASAAAAA8QAAAAAAAAAABwAAAHgQACAAADCjhmAaxjIMABkiMAinS2ACCCABtIggIiAGObMiOJjLEtbuOeSjswxNY6ae8yKCOAAAAAAAAAAAAAAAAAAAAAAAAAAAAAA==
> <PUBCHEM_IUPAC_OPENEYE_NAME>
2-[5-(2-furyl)-6-thioxo-1,3,5-thiadiazinan-3-yl]-3-phenyl-propanoic acid
> <PUBCHEM_IUPAC_CAS_NAME>
2-[5-(2-furanyl)-6-sulfanylidene-1,3,5-thiadiazinan-3-yl]-3-phenylpropanoic acid
> <PUBCHEM_IUPAC_NAME_MARKUP>
2-[5-(furan-2-yl)-6-sulfanylidene-1,3,5-thiadiazinan-3-yl]-3-phenylpropanoic acid
> <PUBCHEM_IUPAC_NAME>
2-[5-(furan-2-yl)-6-sulfanylidene-1,3,5-thiadiazinan-3-yl]-3-phenylpropanoic acid
> <PUBCHEM_IUPAC_SYSTEMATIC_NAME>
2-[5-(furan-2-yl)-6-sulfanylidene-1,3,5-thiadiazinan-3-yl]-3-phenyl-propanoic acid
> <PUBCHEM_IUPAC_TRADITIONAL_NAME>
2-[5-(2-furyl)-6-thioxo-1,3,5-thiadiazinan-3-yl]-3-phenyl-propionic acid
> <PUBCHEM_IUPAC_INCHI>
InChI=1S/C16H16N2O3S2/c19-15(20)13(9-12-5-2-1-3-6-12)17-10-18(16(22)23-11-17)14-7-4-8-21-14/h1-8,13H,9-11H2,(H,19,20)
> <PUBCHEM_IUPAC_INCHIKEY>
BXGKLZLBUONLCL-UHFFFAOYSA-N
> <PUBCHEM_XLOGP3_AA>
1.5
> <PUBCHEM_EXACT_MASS>
348.06023472
> <PUBCHEM_MOLECULAR_FORMULA>
C16H16N2O3S2
> <PUBCHEM_MOLECULAR_WEIGHT>
348.4
> <PUBCHEM_OPENEYE_CAN_SMILES>
C1N(CSC(=S)N1C2=CC=CO2)C(CC3=CC=CC=C3)C(=O)O
> <PUBCHEM_OPENEYE_ISO_SMILES>
C1N(CSC(=S)N1C2=CC=CO2)C(CC3=CC=CC=C3)C(=O)O
> <PUBCHEM_CACTVS_TPSA>
114
> <PUBCHEM_MONOISOTOPIC_WEIGHT>
348.06023472
> <PUBCHEM_TOTAL_CHARGE>
0
> <PUBCHEM_HEAVY_ATOM_COUNT>
23
> <PUBCHEM_ATOM_DEF_STEREO_COUNT>
0
> <PUBCHEM_ATOM_UDEF_STEREO_COUNT>
1
> <PUBCHEM_BOND_DEF_STEREO_COUNT>
0
> <PUBCHEM_BOND_UDEF_STEREO_COUNT>
0
> <PUBCHEM_ISOTOPIC_ATOM_COUNT>
0
> <PUBCHEM_COMPONENT_COUNT>
1
> <PUBCHEM_CACTVS_TAUTO_COUNT>
-1
> <PUBCHEM_COORDINATE_TYPE>
1
5
255
> <PUBCHEM_BONDANNOTATIONS>
12  16  8
12  17  8
15  18  8
16  19  8
17  20  8
18  22  8
19  21  8
20  21  8
22  23  8
3  15  8
3  23  8
8  10  3
$$$$
