511658
  -OEChem-10302200282D
 80 86  0     1  0  0  0  0  0999 V2000
    5.9860   -0.3283    0.0000 O   0  0  0  0  0  0  0  0  0  0  0  0
    6.8680   -2.8698    0.0000 O   0  0  0  0  0  0  0  0  0  0  0  0
    8.6382   -1.8730    0.0000 O   0  0  0  0  0  0  0  0  0  0  0  0
    6.8802    1.1994    0.0000 O   0  0  0  0  0  0  0  0  0  0  0  0
    8.6540    0.1753    0.0000 O   0  0  0  0  0  0  0  0  0  0  0  0
    4.8772   -2.8358    0.0000 O   0  0  0  0  0  0  0  0  0  0  0  0
    5.0942    4.2445    0.0000 O   0  0  0  0  0  0  0  0  0  0  0  0
    5.8477   -4.5501    0.0000 O   0  0  0  0  0  0  0  0  0  0  0  0
    5.8772   -2.8358    0.0000 O   0  0  0  0  0  0  0  0  0  0  0  0
    3.3403    1.2131    0.0000 O   0  0  0  0  0  0  0  0  0  0  0  0
    2.4961    2.7445    0.0000 O   0  0  0  0  0  0  0  0  0  0  0  0
    6.3741   -7.2040    0.0000 O   0  0  0  0  0  0  0  0  0  0  0  0
    5.3803   -7.2040    0.0000 O   0  0  0  0  0  0  0  0  0  0  0  0
    9.4464   -5.4459    0.0000 O   0  0  0  0  0  0  0  0  0  0  0  0
    8.4223   -7.2198    0.0000 O   0  0  0  0  0  0  0  0  0  0  0  0
    3.3321   -7.2198    0.0000 O   0  0  0  0  0  0  0  0  0  0  0  0
    2.3079   -5.4459    0.0000 O   0  0  0  0  0  0  0  0  0  0  0  0
    6.8680   -1.8698    0.0000 C   0  0  3  0  0  0  0  0  0  0  0  0
    7.7780   -1.3630    0.0000 C   0  0  3  0  0  0  0  0  0  0  0  0
    6.0020   -1.3698    0.0000 C   0  0  3  0  0  0  0  0  0  0  0  0
    7.7861   -0.3214    0.0000 C   0  0  3  0  0  0  0  0  0  0  0  0
    6.8840    0.1994    0.0000 C   0  0  3  0  0  0  0  0  0  0  0  0
    5.1360   -1.8698    0.0000 C   0  0  0  0  0  0  0  0  0  0  0  0
    6.0122    1.6961    0.0000 C   0  0  0  0  0  0  0  0  0  0  0  0
    6.3772   -3.7018    0.0000 C   0  0  0  0  0  0  0  0  0  0  0  0
    6.8772   -4.5678    0.0000 C   0  0  0  0  0  0  0  0  0  0  0  0
    6.0042    2.7377    0.0000 C   0  0  0  0  0  0  0  0  0  0  0  0
    5.3772   -3.7018    0.0000 C   0  0  0  0  0  0  0  0  0  0  0  0
    5.0942    3.2445    0.0000 C   0  0  0  0  0  0  0  0  0  0  0  0
    6.3772   -5.4338    0.0000 C   0  0  0  0  0  0  0  0  0  0  0  0
    5.1101    1.1752    0.0000 C   0  0  0  0  0  0  0  0  0  0  0  0
    4.2282    2.7445    0.0000 C   0  0  0  0  0  0  0  0  0  0  0  0
    4.2282    4.7445    0.0000 C   0  0  3  0  0  0  0  0  0  0  0  0
    5.3772   -5.4338    0.0000 C   0  0  0  0  0  0  0  0  0  0  0  0
    4.8772   -4.5678    0.0000 C   0  0  0  0  0  0  0  0  0  0  0  0
    3.3621    4.2445    0.0000 C   0  0  0  0  0  0  0  0  0  0  0  0
    4.2121    1.7030    0.0000 C   0  0  0  0  0  0  0  0  0  0  0  0
    3.3621    3.2445    0.0000 C   0  0  0  0  0  0  0  0  0  0  0  0
    7.9187   -4.5518    0.0000 C   0  0  0  0  0  0  0  0  0  0  0  0
    6.8840   -6.3438    0.0000 C   0  0  0  0  0  0  0  0  0  0  0  0
    4.2282    5.7445    0.0000 C   0  0  0  0  0  0  0  0  0  0  0  0
    4.8703   -6.3438    0.0000 C   0  0  0  0  0  0  0  0  0  0  0  0
    3.8357   -4.5518    0.0000 C   0  0  0  0  0  0  0  0  0  0  0  0
    8.4464   -5.4498    0.0000 C   0  0  0  0  0  0  0  0  0  0  0  0
    7.9256   -6.3519    0.0000 C   0  0  0  0  0  0  0  0  0  0  0  0
    3.8287   -6.3519    0.0000 C   0  0  0  0  0  0  0  0  0  0  0  0
    3.3079   -5.4498    0.0000 C   0  0  0  0  0  0  0  0  0  0  0  0
    3.3621    6.2445    0.0000 C   0  0  0  0  0  0  0  0  0  0  0  0
    5.0942    6.2445    0.0000 C   0  0  0  0  0  0  0  0  0  0  0  0
    3.3621    7.2445    0.0000 C   0  0  0  0  0  0  0  0  0  0  0  0
    5.0942    7.2445    0.0000 C   0  0  0  0  0  0  0  0  0  0  0  0
    4.2282    7.7445    0.0000 C   0  0  0  0  0  0  0  0  0  0  0  0
    7.4026   -2.1840    0.0000 H   0  0  0  0  0  0  0  0  0  0  0  0
    7.7697   -1.9829    0.0000 H   0  0  0  0  0  0  0  0  0  0  0  0
    5.4627   -1.0640    0.0000 H   0  0  0  0  0  0  0  0  0  0  0  0
    8.3212   -0.6345    0.0000 H   0  0  0  0  0  0  0  0  0  0  0  0
    7.4203    0.5105    0.0000 H   0  0  0  0  0  0  0  0  0  0  0  0
    4.9755   -1.2710    0.0000 H   0  0  0  0  0  0  0  0  0  0  0  0
    4.5160   -1.8698    0.0000 H   0  0  0  0  0  0  0  0  0  0  0  0
    9.1787   -1.5692    0.0000 H   0  0  0  0  0  0  0  0  0  0  0  0
    8.6564    0.7953    0.0000 H   0  0  0  0  0  0  0  0  0  0  0  0
    6.5375    3.0539    0.0000 H   0  0  0  0  0  0  0  0  0  0  0  0
    5.1077    0.5553    0.0000 H   0  0  0  0  0  0  0  0  0  0  0  0
    3.6912    5.0545    0.0000 H   0  0  0  0  0  0  0  0  0  0  0  0
    3.1501    4.8271    0.0000 H   0  0  0  0  0  0  0  0  0  0  0  0
    2.7515    4.1368    0.0000 H   0  0  0  0  0  0  0  0  0  0  0  0
    8.2225   -4.0113    0.0000 H   0  0  0  0  0  0  0  0  0  0  0  0
    3.5319   -4.0113    0.0000 H   0  0  0  0  0  0  0  0  0  0  0  0
    2.8252    5.9345    0.0000 H   0  0  0  0  0  0  0  0  0  0  0  0
    5.6311    5.9345    0.0000 H   0  0  0  0  0  0  0  0  0  0  0  0
    3.3332    0.5931    0.0000 H   0  0  0  0  0  0  0  0  0  0  0  0
    6.6778   -7.7445    0.0000 H   0  0  0  0  0  0  0  0  0  0  0  0
    2.8252    7.5545    0.0000 H   0  0  0  0  0  0  0  0  0  0  0  0
    5.6311    7.5545    0.0000 H   0  0  0  0  0  0  0  0  0  0  0  0
    5.0766   -7.7445    0.0000 H   0  0  0  0  0  0  0  0  0  0  0  0
    9.7544   -4.9078    0.0000 H   0  0  0  0  0  0  0  0  0  0  0  0
    4.2282    8.3645    0.0000 H   0  0  0  0  0  0  0  0  0  0  0  0
    9.0423   -7.2222    0.0000 H   0  0  0  0  0  0  0  0  0  0  0  0
    2.7121   -7.2222    0.0000 H   0  0  0  0  0  0  0  0  0  0  0  0
    2.0000   -4.9078    0.0000 H   0  0  0  0  0  0  0  0  0  0  0  0
  1 20  1  0  0  0  0
  1 22  1  0  0  0  0
  2 18  1  0  0  0  0
  2 25  1  0  0  0  0
  3 19  1  0  0  0  0
  3 60  1  0  0  0  0
  4 22  1  0  0  0  0
  4 24  1  0  0  0  0
  5 21  1  0  0  0  0
  5 61  1  0  0  0  0
  6 23  1  0  0  0  0
  6 28  1  0  0  0  0
  7 29  1  0  0  0  0
  7 33  1  0  0  0  0
  8 25  2  0  0  0  0
  9 28  2  0  0  0  0
 10 37  1  0  0  0  0
 10 71  1  0  0  0  0
 11 38  2  0  0  0  0
 12 40  1  0  0  0  0
 12 72  1  0  0  0  0
 13 42  1  0  0  0  0
 13 75  1  0  0  0  0
 14 44  1  0  0  0  0
 14 76  1  0  0  0  0
 15 45  1  0  0  0  0
 15 78  1  0  0  0  0
 16 46  1  0  0  0  0
 16 79  1  0  0  0  0
 17 47  1  0  0  0  0
 17 80  1  0  0  0  0
 18 19  1  0  0  0  0
 18 20  1  0  0  0  0
 18 53  1  0  0  0  0
 19 21  1  0  0  0  0
 19 54  1  0  0  0  0
 20 23  1  0  0  0  0
 20 55  1  0  0  0  0
 21 22  1  0  0  0  0
 21 56  1  0  0  0  0
 22 57  1  0  0  0  0
 23 58  1  0  0  0  0
 23 59  1  0  0  0  0
 24 27  1  0  0  0  0
 24 31  2  0  0  0  0
 25 26  1  0  0  0  0
 26 30  1  0  0  0  0
 26 39  2  0  0  0  0
 27 29  2  0  0  0  0
 27 62  1  0  0  0  0
 28 35  1  0  0  0  0
 29 32  1  0  0  0  0
 30 34  1  0  0  0  0
 30 40  2  0  0  0  0
 31 37  1  0  0  0  0
 31 63  1  0  0  0  0
 32 37  2  0  0  0  0
 32 38  1  0  0  0  0
 33 36  1  0  0  0  0
 33 41  1  0  0  0  0
 33 64  1  0  0  0  0
 34 35  1  0  0  0  0
 34 42  2  0  0  0  0
 35 43  2  0  0  0  0
 36 38  1  0  0  0  0
 36 65  1  0  0  0  0
 36 66  1  0  0  0  0
 39 44  1  0  0  0  0
 39 67  1  0  0  0  0
 40 45  1  0  0  0  0
 41 48  2  0  0  0  0
 41 49  1  0  0  0  0
 42 46  1  0  0  0  0
 43 47  1  0  0  0  0
 43 68  1  0  0  0  0
 44 45  2  0  0  0  0
 46 47  2  0  0  0  0
 48 50  1  0  0  0  0
 48 69  1  0  0  0  0
 49 51  2  0  0  0  0
 49 70  1  0  0  0  0
 50 52  2  0  0  0  0
 50 73  1  0  0  0  0
 51 52  1  0  0  0  0
 51 74  1  0  0  0  0
 52 77  1  0  0  0  0
M  END
> <PUBCHEM_COMPOUND_CID>
511658
> <PUBCHEM_COMPOUND_CANONICALIZED>
1
> <PUBCHEM_CACTVS_COMPLEXITY>
1310
> <PUBCHEM_CACTVS_HBOND_ACCEPTOR>
17
> <PUBCHEM_CACTVS_HBOND_DONOR>
9
> <PUBCHEM_CACTVS_ROTATABLE_BOND>
3
> <PUBCHEM_CACTVS_SUBSKEYS>
AAADceB8PgAAAAAAAAAAAAAAAAAAAAAAAAA0aMGCAAAAAACRVAAAGgAACAAADBSwmAMwDoAABgCIAqDSCAACCAAkIAAIiAEGiMgdNzaGNRqieWGl4BUPuYfK7PzOoAABCAAYQABAAAIQADCAAAAAAAAAAA==
> <PUBCHEM_IUPAC_OPENEYE_NAME>
3,4,5,11,12,21,22,23-octahydroxy-13-(5-hydroxy-4-oxo-2-phenyl-chroman-7-yl)oxy-9,14,17-trioxatetracyclo[17.4.0.02,7.010,15]tricosa-1(23),2,4,6,19,21-hexaene-8,18-dione
> <PUBCHEM_IUPAC_CAS_NAME>
3,4,5,11,12,21,22,23-octahydroxy-13-[(5-hydroxy-4-oxo-2-phenyl-3,4-dihydro-2H-1-benzopyran-7-yl)oxy]-9,14,17-trioxatetracyclo[17.4.0.02,7.010,15]tricosa-1(23),2,4,6,19,21-hexaene-8,18-dione
> <PUBCHEM_IUPAC_NAME_MARKUP>
3,4,5,11,12,21,22,23-octahydroxy-13-[(5-hydroxy-4-oxo-2-phenyl-2,3-dihydrochromen-7-yl)oxy]-9,14,17-trioxatetracyclo[17.4.0.0<SUP>2,7</SUP>.0<SUP>10,15</SUP>]tricosa-1(23),2,4,6,19,21-hexaene-8,18-dione
> <PUBCHEM_IUPAC_NAME>
3,4,5,11,12,21,22,23-octahydroxy-13-[(5-hydroxy-4-oxo-2-phenyl-2,3-dihydrochromen-7-yl)oxy]-9,14,17-trioxatetracyclo[17.4.0.02,7.010,15]tricosa-1(23),2,4,6,19,21-hexaene-8,18-dione
> <PUBCHEM_IUPAC_SYSTEMATIC_NAME>
3,4,5,11,12,21,22,23-octakis(oxidanyl)-13-[(5-oxidanyl-4-oxidanylidene-2-phenyl-2,3-dihydrochromen-7-yl)oxy]-9,14,17-trioxatetracyclo[17.4.0.02,7.010,15]tricosa-1(23),2,4,6,19,21-hexaene-8,18-dione
> <PUBCHEM_IUPAC_TRADITIONAL_NAME>
3,4,5,11,12,21,22,23-octahydroxy-13-(5-hydroxy-4-keto-2-phenyl-chroman-7-yl)oxy-9,14,17-trioxatetracyclo[17.4.0.02,7.010,15]tricosa-1(23),2,4,6,19,21-hexaene-8,18-quinone
> <PUBCHEM_IUPAC_INCHI>
InChI=1S/C35H28O17/c36-16-6-13(7-21-25(16)17(37)10-20(50-21)12-4-2-1-3-5-12)49-35-31(45)30(44)32-22(51-35)11-48-33(46)14-8-18(38)26(40)28(42)23(14)24-15(34(47)52-32)9-19(39)27(41)29(24)43/h1-9,20,22,30-32,35-36,38-45H,10-11H2
> <PUBCHEM_IUPAC_INCHIKEY>
SHBQSNYBINOTIL-UHFFFAOYSA-N
> <PUBCHEM_XLOGP3_AA>
2.4
> <PUBCHEM_EXACT_MASS>
720.13264942
> <PUBCHEM_MOLECULAR_FORMULA>
C35H28O17
> <PUBCHEM_MOLECULAR_WEIGHT>
720.6
> <PUBCHEM_OPENEYE_CAN_SMILES>
C1C(OC2=CC(=CC(=C2C1=O)O)OC3C(C(C4C(O3)COC(=O)C5=CC(=C(C(=C5C6=C(C(=C(C=C6C(=O)O4)O)O)O)O)O)O)O)O)C7=CC=CC=C7
> <PUBCHEM_OPENEYE_ISO_SMILES>
C1C(OC2=CC(=CC(=C2C1=O)O)OC3C(C(C4C(O3)COC(=O)C5=CC(=C(C(=C5C6=C(C(=C(C=C6C(=O)O4)O)O)O)O)O)O)O)O)C7=CC=CC=C7
> <PUBCHEM_CACTVS_TPSA>
279
> <PUBCHEM_MONOISOTOPIC_WEIGHT>
720.13264942
> <PUBCHEM_TOTAL_CHARGE>
0
> <PUBCHEM_HEAVY_ATOM_COUNT>
52
> <PUBCHEM_ATOM_DEF_STEREO_COUNT>
0
> <PUBCHEM_ATOM_UDEF_STEREO_COUNT>
6
> <PUBCHEM_BOND_DEF_STEREO_COUNT>
0
> <PUBCHEM_BOND_UDEF_STEREO_COUNT>
0
> <PUBCHEM_ISOTOPIC_ATOM_COUNT>
0
> <PUBCHEM_COMPONENT_COUNT>
1
> <PUBCHEM_CACTVS_TAUTO_COUNT>
-1
> <PUBCHEM_COORDINATE_TYPE>
1
5
255
> <PUBCHEM_BONDANNOTATIONS>
18  2  3
20  23  3
24  27  8
24  31  8
26  30  8
26  39  8
27  29  8
29  32  8
19  3  3
30  40  8
31  37  8
32  37  8
33  41  3
34  35  8
34  42  8
35  43  8
39  44  8
22  4  3
40  45  8
41  48  8
41  49  8
42  46  8
43  47  8
44  45  8
46  47  8
48  50  8
49  51  8
21  5  3
50  52  8
51  52  8
$$$$
