511795
  -OEChem-10302200282D
 29 30  0     1  0  0  0  0  0999 V2000
    2.3660   -1.6573    0.0000 S   0  0  0  0  0  0  0  0  0  0  0  0
    3.6750   -0.7063    0.0000 O   0  0  0  0  0  0  0  0  0  0  0  0
    3.5471   -3.3799    0.0000 O   0  0  0  0  0  0  0  0  0  0  0  0
    4.5981    2.8815    0.0000 O   0  0  0  0  0  0  0  0  0  0  0  0
    2.8660    3.8815    0.0000 O   0  0  0  0  0  0  0  0  0  0  0  0
    2.8660    0.8815    0.0000 N   0  0  0  0  0  0  0  0  0  0  0  0
    2.8660   -0.1185    0.0000 C   0  0  2  0  0  0  0  0  0  0  0  0
    2.0570   -0.7063    0.0000 C   0  0  0  0  0  0  0  0  0  0  0  0
    3.3660   -1.6573    0.0000 C   0  0  2  0  0  0  0  0  0  0  0  0
    3.7320    1.3815    0.0000 C   0  0  0  0  0  0  0  0  0  0  0  0
    3.9538   -2.4664    0.0000 C   0  0  0  0  0  0  0  0  0  0  0  0
    2.0000    1.3815    0.0000 C   0  0  0  0  0  0  0  0  0  0  0  0
    3.7320    2.3815    0.0000 C   0  0  0  0  0  0  0  0  0  0  0  0
    4.5981    0.8815    0.0000 C   0  0  0  0  0  0  0  0  0  0  0  0
    2.0000    2.3815    0.0000 C   0  0  0  0  0  0  0  0  0  0  0  0
    2.8660    2.8815    0.0000 C   0  0  0  0  0  0  0  0  0  0  0  0
    3.4184    0.1630    0.0000 H   0  0  0  0  0  0  0  0  0  0  0  0
    1.7470   -0.1694    0.0000 H   0  0  0  0  0  0  0  0  0  0  0  0
    1.4906   -0.9585    0.0000 H   0  0  0  0  0  0  0  0  0  0  0  0
    3.0846   -2.2098    0.0000 H   0  0  0  0  0  0  0  0  0  0  0  0
    4.4678   -2.8131    0.0000 H   0  0  0  0  0  0  0  0  0  0  0  0
    4.3845   -2.0204    0.0000 H   0  0  0  0  0  0  0  0  0  0  0  0
    1.4631    1.0715    0.0000 H   0  0  0  0  0  0  0  0  0  0  0  0
    4.2881    0.3446    0.0000 H   0  0  0  0  0  0  0  0  0  0  0  0
    5.1350    0.5715    0.0000 H   0  0  0  0  0  0  0  0  0  0  0  0
    4.9081    1.4184    0.0000 H   0  0  0  0  0  0  0  0  0  0  0  0
    1.4631    2.6915    0.0000 H   0  0  0  0  0  0  0  0  0  0  0  0
    3.9115   -3.8815    0.0000 H   0  0  0  0  0  0  0  0  0  0  0  0
    4.5981    3.5015    0.0000 H   0  0  0  0  0  0  0  0  0  0  0  0
  1  8  1  0  0  0  0
  1  9  1  0  0  0  0
  2  7  1  0  0  0  0
  2  9  1  0  0  0  0
  3 11  1  0  0  0  0
  3 28  1  0  0  0  0
  4 13  1  0  0  0  0
  4 29  1  0  0  0  0
  5 16  2  0  0  0  0
  7  6  1  1  0  0  0
  6 10  1  0  0  0  0
  6 12  1  0  0  0  0
  7  8  1  0  0  0  0
  7 17  1  0  0  0  0
  8 18  1  0  0  0  0
  8 19  1  0  0  0  0
  9 11  1  6  0  0  0
  9 20  1  0  0  0  0
 10 13  2  0  0  0  0
 10 14  1  0  0  0  0
 11 21  1  0  0  0  0
 11 22  1  0  0  0  0
 12 15  2  0  0  0  0
 12 23  1  0  0  0  0
 13 16  1  0  0  0  0
 14 24  1  0  0  0  0
 14 25  1  0  0  0  0
 14 26  1  0  0  0  0
 15 16  1  0  0  0  0
 15 27  1  0  0  0  0
M  END
> <PUBCHEM_COMPOUND_CID>
511795
> <PUBCHEM_COMPOUND_CANONICALIZED>
1
> <PUBCHEM_CACTVS_COMPLEXITY>
366
> <PUBCHEM_CACTVS_HBOND_ACCEPTOR>
6
> <PUBCHEM_CACTVS_HBOND_DONOR>
2
> <PUBCHEM_CACTVS_ROTATABLE_BOND>
2
> <PUBCHEM_CACTVS_SUBSKEYS>
AAADccByOABAAAAAAAAAAAAAAAAAASAAAAAgAAAAAAAAAAAAAAAAHgQACAAACAzlwAaCAAMABgiIAKRWQAIAAAAgIhAICABIAEgBEAAAAAAKQAAAQACrAcIAAAAAAAAAAAAAAAAAAAAAAAAAAAAAAAAAAA==
> <PUBCHEM_IUPAC_OPENEYE_NAME>
3-hydroxy-1-[(2S,5S)-2-(hydroxymethyl)-1,3-oxathiolan-5-yl]-2-methyl-pyridin-4-one
> <PUBCHEM_IUPAC_CAS_NAME>
3-hydroxy-1-[(2S,5S)-2-(hydroxymethyl)-1,3-oxathiolan-5-yl]-2-methyl-4-pyridinone
> <PUBCHEM_IUPAC_NAME_MARKUP>
3-hydroxy-1-[(2<I>S</I>,5<I>S</I>)-2-(hydroxymethyl)-1,3-oxathiolan-5-yl]-2-methylpyridin-4-one
> <PUBCHEM_IUPAC_NAME>
3-hydroxy-1-[(2S,5S)-2-(hydroxymethyl)-1,3-oxathiolan-5-yl]-2-methylpyridin-4-one
> <PUBCHEM_IUPAC_SYSTEMATIC_NAME>
1-[(2S,5S)-2-(hydroxymethyl)-1,3-oxathiolan-5-yl]-2-methyl-3-oxidanyl-pyridin-4-one
> <PUBCHEM_IUPAC_TRADITIONAL_NAME>
3-hydroxy-2-methyl-1-[(2S,5S)-2-methylol-1,3-oxathiolan-5-yl]-4-pyridone
> <PUBCHEM_IUPAC_INCHI>
InChI=1S/C10H13NO4S/c1-6-10(14)7(13)2-3-11(6)8-5-16-9(4-12)15-8/h2-3,8-9,12,14H,4-5H2,1H3/t8-,9-/m0/s1
> <PUBCHEM_IUPAC_INCHIKEY>
NKJAPWNODJCMMP-IUCAKERBSA-N
> <PUBCHEM_XLOGP3_AA>
0.4
> <PUBCHEM_EXACT_MASS>
243.05652907
> <PUBCHEM_MOLECULAR_FORMULA>
C10H13NO4S
> <PUBCHEM_MOLECULAR_WEIGHT>
243.28
> <PUBCHEM_OPENEYE_CAN_SMILES>
CC1=C(C(=O)C=CN1C2CSC(O2)CO)O
> <PUBCHEM_OPENEYE_ISO_SMILES>
CC1=C(C(=O)C=CN1[C@@H]2CS[C@H](O2)CO)O
> <PUBCHEM_CACTVS_TPSA>
95.3
> <PUBCHEM_MONOISOTOPIC_WEIGHT>
243.05652907
> <PUBCHEM_TOTAL_CHARGE>
0
> <PUBCHEM_HEAVY_ATOM_COUNT>
16
> <PUBCHEM_ATOM_DEF_STEREO_COUNT>
2
> <PUBCHEM_ATOM_UDEF_STEREO_COUNT>
0
> <PUBCHEM_BOND_DEF_STEREO_COUNT>
0
> <PUBCHEM_BOND_UDEF_STEREO_COUNT>
0
> <PUBCHEM_ISOTOPIC_ATOM_COUNT>
0
> <PUBCHEM_COMPONENT_COUNT>
1
> <PUBCHEM_CACTVS_TAUTO_COUNT>
-1
> <PUBCHEM_COORDINATE_TYPE>
1
5
255
> <PUBCHEM_BONDANNOTATIONS>
10  13  8
12  15  8
13  16  8
15  16  8
6  10  8
6  12  8
7  6  5
9  11  6
$$$$
