511791
  -OEChem-10302200282D
 58 60  0     1  0  0  0  0  0999 V2000
    6.0682   -0.9254    0.0000 O   0  0  0  0  0  0  0  0  0  0  0  0
    6.0682    2.0746    0.0000 O   0  0  0  0  0  0  0  0  0  0  0  0
   10.3984   -2.4254    0.0000 O   0  0  0  0  0  0  0  0  0  0  0  0
    4.3198    2.1092    0.0000 O   0  0  0  0  0  0  0  0  0  0  0  0
    2.5381   -0.9495    0.0000 O   0  0  0  0  0  0  0  0  0  0  0  0
    6.9343   -0.4254    0.0000 C   0  0  3  0  0  0  0  0  0  0  0  0
    6.9343    0.5746    0.0000 C   0  0  0  0  0  0  0  0  0  0  0  0
    7.8003   -0.9254    0.0000 C   0  0  0  0  0  0  0  0  0  0  0  0
    5.2022    0.5746    0.0000 C   0  0  0  0  0  0  0  0  0  0  0  0
    6.0682    1.0746    0.0000 C   0  0  0  0  0  0  0  0  0  0  0  0
    5.2022   -0.4254    0.0000 C   0  0  0  0  0  0  0  0  0  0  0  0
    8.6663   -0.4254    0.0000 C   0  0  0  0  0  0  0  0  0  0  0  0
    7.8003   -1.9254    0.0000 C   0  0  0  0  0  0  0  0  0  0  0  0
    4.3083    1.1093    0.0000 C   0  0  0  0  0  0  0  0  0  0  0  0
    4.3083   -0.9601    0.0000 C   0  0  0  0  0  0  0  0  0  0  0  0
    9.5323   -0.9254    0.0000 C   0  0  0  0  0  0  0  0  0  0  0  0
    8.6663   -2.4254    0.0000 C   0  0  0  0  0  0  0  0  0  0  0  0
    9.5323   -1.9254    0.0000 C   0  0  0  0  0  0  0  0  0  0  0  0
    3.4022    0.5954    0.0000 C   0  0  0  0  0  0  0  0  0  0  0  0
    3.4022   -0.4462    0.0000 C   0  0  0  0  0  0  0  0  0  0  0  0
   13.8625   -2.4254    0.0000 C   0  0  0  0  0  0  0  0  0  0  0  0
   12.9965   -1.9254    0.0000 C   0  0  0  0  0  0  0  0  0  0  0  0
   14.7285   -1.9254    0.0000 C   0  0  0  0  0  0  0  0  0  0  0  0
   11.2644   -1.9254    0.0000 C   0  0  0  0  0  0  0  0  0  0  0  0
   12.1304   -2.4254    0.0000 C   0  0  0  0  0  0  0  0  0  0  0  0
   15.5945   -2.4254    0.0000 C   0  0  0  0  0  0  0  0  0  0  0  0
   12.9965   -0.9254    0.0000 C   0  0  0  0  0  0  0  0  0  0  0  0
   16.4606   -1.9254    0.0000 C   0  0  0  0  0  0  0  0  0  0  0  0
   17.3266   -2.4254    0.0000 C   0  0  0  0  0  0  0  0  0  0  0  0
   16.4606   -0.9254    0.0000 C   0  0  0  0  0  0  0  0  0  0  0  0
    6.9343   -1.0454    0.0000 H   0  0  0  0  0  0  0  0  0  0  0  0
    7.5449    0.4669    0.0000 H   0  0  0  0  0  0  0  0  0  0  0  0
    7.1463    1.1572    0.0000 H   0  0  0  0  0  0  0  0  0  0  0  0
    8.6663    0.1946    0.0000 H   0  0  0  0  0  0  0  0  0  0  0  0
    7.2634   -2.2354    0.0000 H   0  0  0  0  0  0  0  0  0  0  0  0
    4.3154   -1.5800    0.0000 H   0  0  0  0  0  0  0  0  0  0  0  0
   10.0693   -0.6154    0.0000 H   0  0  0  0  0  0  0  0  0  0  0  0
    8.6663   -3.0454    0.0000 H   0  0  0  0  0  0  0  0  0  0  0  0
    2.8665    0.9075    0.0000 H   0  0  0  0  0  0  0  0  0  0  0  0
   13.4640   -2.9003    0.0000 H   0  0  0  0  0  0  0  0  0  0  0  0
   14.2610   -2.9003    0.0000 H   0  0  0  0  0  0  0  0  0  0  0  0
   15.1270   -1.4504    0.0000 H   0  0  0  0  0  0  0  0  0  0  0  0
   14.3300   -1.4504    0.0000 H   0  0  0  0  0  0  0  0  0  0  0  0
   11.6629   -1.4504    0.0000 H   0  0  0  0  0  0  0  0  0  0  0  0
   10.8659   -1.4504    0.0000 H   0  0  0  0  0  0  0  0  0  0  0  0
   12.1304   -3.0454    0.0000 H   0  0  0  0  0  0  0  0  0  0  0  0
   15.5945   -3.0454    0.0000 H   0  0  0  0  0  0  0  0  0  0  0  0
   13.6165   -0.9254    0.0000 H   0  0  0  0  0  0  0  0  0  0  0  0
   12.9965   -0.3054    0.0000 H   0  0  0  0  0  0  0  0  0  0  0  0
   12.3765   -0.9254    0.0000 H   0  0  0  0  0  0  0  0  0  0  0  0
    3.7865    2.4254    0.0000 H   0  0  0  0  0  0  0  0  0  0  0  0
    2.0000   -0.6416    0.0000 H   0  0  0  0  0  0  0  0  0  0  0  0
   17.0166   -2.9623    0.0000 H   0  0  0  0  0  0  0  0  0  0  0  0
   17.8635   -2.7354    0.0000 H   0  0  0  0  0  0  0  0  0  0  0  0
   17.6366   -1.8885    0.0000 H   0  0  0  0  0  0  0  0  0  0  0  0
   17.0806   -0.9254    0.0000 H   0  0  0  0  0  0  0  0  0  0  0  0
   16.4606   -0.3054    0.0000 H   0  0  0  0  0  0  0  0  0  0  0  0
   15.8406   -0.9254    0.0000 H   0  0  0  0  0  0  0  0  0  0  0  0
  1  6  1  0  0  0  0
  1 11  1  0  0  0  0
  2 10  2  0  0  0  0
  3 18  1  0  0  0  0
  3 24  1  0  0  0  0
  4 14  1  0  0  0  0
  4 51  1  0  0  0  0
  5 20  1  0  0  0  0
  5 52  1  0  0  0  0
  6  7  1  0  0  0  0
  6  8  1  0  0  0  0
  6 31  1  0  0  0  0
  7 10  1  0  0  0  0
  7 32  1  0  0  0  0
  7 33  1  0  0  0  0
  8 12  2  0  0  0  0
  8 13  1  0  0  0  0
  9 10  1  0  0  0  0
  9 11  1  0  0  0  0
  9 14  2  0  0  0  0
 11 15  2  0  0  0  0
 12 16  1  0  0  0  0
 12 34  1  0  0  0  0
 13 17  2  0  0  0  0
 13 35  1  0  0  0  0
 14 19  1  0  0  0  0
 15 20  1  0  0  0  0
 15 36  1  0  0  0  0
 16 18  2  0  0  0  0
 16 37  1  0  0  0  0
 17 18  1  0  0  0  0
 17 38  1  0  0  0  0
 19 20  2  0  0  0  0
 19 39  1  0  0  0  0
 21 22  1  0  0  0  0
 21 23  1  0  0  0  0
 21 40  1  0  0  0  0
 21 41  1  0  0  0  0
 22 25  2  3  0  0  0
 22 27  1  0  0  0  0
 23 26  1  0  0  0  0
 23 42  1  0  0  0  0
 23 43  1  0  0  0  0
 24 25  1  0  0  0  0
 24 44  1  0  0  0  0
 24 45  1  0  0  0  0
 25 46  1  0  0  0  0
 26 28  2  0  0  0  0
 26 47  1  0  0  0  0
 27 48  1  0  0  0  0
 27 49  1  0  0  0  0
 27 50  1  0  0  0  0
 28 29  1  0  0  0  0
 28 30  1  0  0  0  0
 29 53  1  0  0  0  0
 29 54  1  0  0  0  0
 29 55  1  0  0  0  0
 30 56  1  0  0  0  0
 30 57  1  0  0  0  0
 30 58  1  0  0  0  0
M  END
> <PUBCHEM_COMPOUND_CID>
511791
> <PUBCHEM_COMPOUND_CANONICALIZED>
1
> <PUBCHEM_CACTVS_COMPLEXITY>
628
> <PUBCHEM_CACTVS_HBOND_ACCEPTOR>
5
> <PUBCHEM_CACTVS_HBOND_DONOR>
2
> <PUBCHEM_CACTVS_ROTATABLE_BOND>
7
> <PUBCHEM_CACTVS_SUBSKEYS>
AAADceB4OAAAAAAAAAAAAAAAAAAAAAAAAAA0YIAAAAAAAACRQAAAGgAACAAADBSgmAIyBoAABgCIAqBSAAACCAAkIAAIiAEGCMgMJzaGNRqCeWCl4BUIuQeI7OzOIAAACAAIAABAAAAQABAAAAAAAAAAAA==
> <PUBCHEM_IUPAC_OPENEYE_NAME>
2-[4-(3,7-dimethylocta-2,6-dienoxy)phenyl]-5,7-dihydroxy-chroman-4-one
> <PUBCHEM_IUPAC_CAS_NAME>
2-[4-(3,7-dimethylocta-2,6-dienoxy)phenyl]-5,7-dihydroxy-3,4-dihydro-2H-1-benzopyran-4-one
> <PUBCHEM_IUPAC_NAME_MARKUP>
2-[4-(3,7-dimethylocta-2,6-dienoxy)phenyl]-5,7-dihydroxy-2,3-dihydrochromen-4-one
> <PUBCHEM_IUPAC_NAME>
2-[4-(3,7-dimethylocta-2,6-dienoxy)phenyl]-5,7-dihydroxy-2,3-dihydrochromen-4-one
> <PUBCHEM_IUPAC_SYSTEMATIC_NAME>
2-[4-(3,7-dimethylocta-2,6-dienoxy)phenyl]-5,7-bis(oxidanyl)-2,3-dihydrochromen-4-one
> <PUBCHEM_IUPAC_TRADITIONAL_NAME>
2-[4-(3,7-dimethylocta-2,6-dienoxy)phenyl]-5,7-dihydroxy-chroman-4-one
> <PUBCHEM_IUPAC_INCHI>
InChI=1S/C25H28O5/c1-16(2)5-4-6-17(3)11-12-29-20-9-7-18(8-10-20)23-15-22(28)25-21(27)13-19(26)14-24(25)30-23/h5,7-11,13-14,23,26-27H,4,6,12,15H2,1-3H3
> <PUBCHEM_IUPAC_INCHIKEY>
XHCAXPZUMUUNKN-UHFFFAOYSA-N
> <PUBCHEM_XLOGP3_AA>
6.1
> <PUBCHEM_EXACT_MASS>
408.19367399
> <PUBCHEM_MOLECULAR_FORMULA>
C25H28O5
> <PUBCHEM_MOLECULAR_WEIGHT>
408.5
> <PUBCHEM_OPENEYE_CAN_SMILES>
CC(=CCCC(=CCOC1=CC=C(C=C1)C2CC(=O)C3=C(C=C(C=C3O2)O)O)C)C
> <PUBCHEM_OPENEYE_ISO_SMILES>
CC(=CCCC(=CCOC1=CC=C(C=C1)C2CC(=O)C3=C(C=C(C=C3O2)O)O)C)C
> <PUBCHEM_CACTVS_TPSA>
76
> <PUBCHEM_MONOISOTOPIC_WEIGHT>
408.19367399
> <PUBCHEM_TOTAL_CHARGE>
0
> <PUBCHEM_HEAVY_ATOM_COUNT>
30
> <PUBCHEM_ATOM_DEF_STEREO_COUNT>
0
> <PUBCHEM_ATOM_UDEF_STEREO_COUNT>
1
> <PUBCHEM_BOND_DEF_STEREO_COUNT>
0
> <PUBCHEM_BOND_UDEF_STEREO_COUNT>
1
> <PUBCHEM_ISOTOPIC_ATOM_COUNT>
0
> <PUBCHEM_COMPONENT_COUNT>
1
> <PUBCHEM_CACTVS_TAUTO_COUNT>
-1
> <PUBCHEM_COORDINATE_TYPE>
1
5
255
> <PUBCHEM_BONDANNOTATIONS>
11  15  8
12  16  8
13  17  8
14  19  8
15  20  8
16  18  8
17  18  8
19  20  8
22  25  1
6  8  3
8  12  8
8  13  8
9  11  8
9  14  8
$$$$
