511797
  -OEChem-10302200282D
 54 56  0     1  0  0  0  0  0999 V2000
    5.1350   -0.5346    0.0000 O   0  0  0  0  0  0  0  0  0  0  0  0
    6.8671   -0.5346    0.0000 O   0  0  0  0  0  0  0  0  0  0  0  0
    6.8671   -2.5346    0.0000 O   0  0  0  0  0  0  0  0  0  0  0  0
    5.1350   -3.5346    0.0000 O   0  0  0  0  0  0  0  0  0  0  0  0
    3.4030   -2.5346    0.0000 O   0  0  0  0  0  0  0  0  0  0  0  0
    2.5369   -1.0346    0.0000 O   0  0  0  0  0  0  0  0  0  0  0  0
    8.6431    2.4722    0.0000 O   0  0  0  0  0  0  0  0  0  0  0  0
    5.1350    2.4654    0.0000 O   0  0  0  0  0  0  0  0  0  0  0  0
    6.0010   -4.0346    0.0000 O   0  0  0  0  0  0  0  0  0  0  0  0
    5.9793    3.9968    0.0000 O   0  0  0  0  0  0  0  0  0  0  0  0
    5.1350   -2.5346    0.0000 C   0  0  1  0  0  0  0  0  0  0  0  0
    4.2690   -2.0346    0.0000 C   0  0  1  0  0  0  0  0  0  0  0  0
    6.0010   -2.0346    0.0000 C   0  0  2  0  0  0  0  0  0  0  0  0
    4.2690   -1.0346    0.0000 C   0  0  1  0  0  0  0  0  0  0  0  0
    6.0010   -1.0346    0.0000 C   0  0  2  0  0  0  0  0  0  0  0  0
    3.4030   -0.5346    0.0000 C   0  0  0  0  0  0  0  0  0  0  0  0
    6.8671    0.4654    0.0000 C   0  0  0  0  0  0  0  0  0  0  0  0
    7.7331    0.9654    0.0000 C   0  0  0  0  0  0  0  0  0  0  0  0
    6.0010    0.9654    0.0000 C   0  0  0  0  0  0  0  0  0  0  0  0
    6.8671   -3.5346    0.0000 C   0  0  0  0  0  0  0  0  0  0  0  0
    7.7331    1.9654    0.0000 C   0  0  0  0  0  0  0  0  0  0  0  0
    6.8671    2.4654    0.0000 C   0  0  0  0  0  0  0  0  0  0  0  0
    6.0010    1.9654    0.0000 C   0  0  0  0  0  0  0  0  0  0  0  0
    8.5991    0.4654    0.0000 C   0  0  0  0  0  0  0  0  0  0  0  0
    5.1350    0.4654    0.0000 C   0  0  0  0  0  0  0  0  0  0  0  0
    7.7331   -4.0346    0.0000 C   0  0  0  0  0  0  0  0  0  0  0  0
    6.8510    3.5069    0.0000 C   0  0  0  0  0  0  0  0  0  0  0  0
    8.6511    3.5138    0.0000 C   0  0  0  0  0  0  0  0  0  0  0  0
    7.7490    4.0346    0.0000 C   0  0  0  0  0  0  0  0  0  0  0  0
    9.5191    4.0105    0.0000 C   0  0  0  0  0  0  0  0  0  0  0  0
    4.5981   -2.8446    0.0000 H   0  0  0  0  0  0  0  0  0  0  0  0
    4.2690   -2.6546    0.0000 H   0  0  0  0  0  0  0  0  0  0  0  0
    6.0010   -2.6546    0.0000 H   0  0  0  0  0  0  0  0  0  0  0  0
    4.2690   -0.4146    0.0000 H   0  0  0  0  0  0  0  0  0  0  0  0
    6.0010   -0.4146    0.0000 H   0  0  0  0  0  0  0  0  0  0  0  0
    3.8015   -0.0597    0.0000 H   0  0  0  0  0  0  0  0  0  0  0  0
    3.0044   -0.0597    0.0000 H   0  0  0  0  0  0  0  0  0  0  0  0
    4.5981   -3.8446    0.0000 H   0  0  0  0  0  0  0  0  0  0  0  0
    3.4030   -3.1546    0.0000 H   0  0  0  0  0  0  0  0  0  0  0  0
    2.0000   -0.7246    0.0000 H   0  0  0  0  0  0  0  0  0  0  0  0
    8.2891   -0.0716    0.0000 H   0  0  0  0  0  0  0  0  0  0  0  0
    9.1360    0.1554    0.0000 H   0  0  0  0  0  0  0  0  0  0  0  0
    8.9091    1.0023    0.0000 H   0  0  0  0  0  0  0  0  0  0  0  0
    4.8250    1.0023    0.0000 H   0  0  0  0  0  0  0  0  0  0  0  0
    4.5981    0.1554    0.0000 H   0  0  0  0  0  0  0  0  0  0  0  0
    5.4450   -0.0716    0.0000 H   0  0  0  0  0  0  0  0  0  0  0  0
    7.4231   -4.5716    0.0000 H   0  0  0  0  0  0  0  0  0  0  0  0
    8.2700   -4.3446    0.0000 H   0  0  0  0  0  0  0  0  0  0  0  0
    8.0431   -3.4977    0.0000 H   0  0  0  0  0  0  0  0  0  0  0  0
    7.7466    4.6546    0.0000 H   0  0  0  0  0  0  0  0  0  0  0  0
    4.5981    2.1554    0.0000 H   0  0  0  0  0  0  0  0  0  0  0  0
    9.8270    3.4724    0.0000 H   0  0  0  0  0  0  0  0  0  0  0  0
   10.0572    4.3184    0.0000 H   0  0  0  0  0  0  0  0  0  0  0  0
    9.2111    4.5486    0.0000 H   0  0  0  0  0  0  0  0  0  0  0  0
  1 14  1  0  0  0  0
  1 15  1  0  0  0  0
 15  2  1  6  0  0  0
  2 17  1  0  0  0  0
 13  3  1  6  0  0  0
  3 20  1  0  0  0  0
 11  4  1  1  0  0  0
  4 38  1  0  0  0  0
 12  5  1  6  0  0  0
  5 39  1  0  0  0  0
  6 16  1  0  0  0  0
  6 40  1  0  0  0  0
  7 21  1  0  0  0  0
  7 28  1  0  0  0  0
  8 23  1  0  0  0  0
  8 51  1  0  0  0  0
  9 20  2  0  0  0  0
 10 27  2  0  0  0  0
 11 12  1  0  0  0  0
 11 13  1  0  0  0  0
 11 31  1  0  0  0  0
 12 14  1  0  0  0  0
 12 32  1  0  0  0  0
 13 15  1  0  0  0  0
 13 33  1  0  0  0  0
 14 16  1  1  0  0  0
 14 34  1  0  0  0  0
 15 35  1  0  0  0  0
 16 36  1  0  0  0  0
 16 37  1  0  0  0  0
 17 18  2  0  0  0  0
 17 19  1  0  0  0  0
 18 21  1  0  0  0  0
 18 24  1  0  0  0  0
 19 23  2  0  0  0  0
 19 25  1  0  0  0  0
 20 26  1  0  0  0  0
 21 22  2  0  0  0  0
 22 23  1  0  0  0  0
 22 27  1  0  0  0  0
 24 41  1  0  0  0  0
 24 42  1  0  0  0  0
 24 43  1  0  0  0  0
 25 44  1  0  0  0  0
 25 45  1  0  0  0  0
 25 46  1  0  0  0  0
 26 47  1  0  0  0  0
 26 48  1  0  0  0  0
 26 49  1  0  0  0  0
 27 29  1  0  0  0  0
 28 29  2  0  0  0  0
 28 30  1  0  0  0  0
 29 50  1  0  0  0  0
 30 52  1  0  0  0  0
 30 53  1  0  0  0  0
 30 54  1  0  0  0  0
M  END
> <PUBCHEM_COMPOUND_CID>
511797
> <PUBCHEM_COMPOUND_CANONICALIZED>
1
> <PUBCHEM_CACTVS_COMPLEXITY>
693
> <PUBCHEM_CACTVS_HBOND_ACCEPTOR>
10
> <PUBCHEM_CACTVS_HBOND_DONOR>
4
> <PUBCHEM_CACTVS_ROTATABLE_BOND>
5
> <PUBCHEM_CACTVS_SUBSKEYS>
AAADceB4PAAAAAAAAAAAAAAAAAAAAAAAAAA0QIAAAAAAAACBAAAAGgAACAAADBSwmAMCDoAABgCIAqDSCAACCAAkIAAAiAEECMgdNzaGNRqieWCl4BUPuQfI7OzOIAACCAAIAABAAAQQABAAAAAAAAAAAA==
> <PUBCHEM_IUPAC_OPENEYE_NAME>
[(2R,3R,4S,5S,6R)-4,5-dihydroxy-6-(hydroxymethyl)-2-(5-hydroxy-2,6,8-trimethyl-4-oxo-chromen-7-yl)oxy-tetrahydropyran-3-yl] acetate
> <PUBCHEM_IUPAC_CAS_NAME>
acetic acid [(2R,3R,4S,5S,6R)-4,5-dihydroxy-6-(hydroxymethyl)-2-[(5-hydroxy-2,6,8-trimethyl-4-oxo-1-benzopyran-7-yl)oxy]-3-oxanyl] ester
> <PUBCHEM_IUPAC_NAME_MARKUP>
[(2<I>R</I>,3<I>R</I>,4<I>S</I>,5<I>S</I>,6<I>R</I>)-4,5-dihydroxy-6-(hydroxymethyl)-2-(5-hydroxy-2,6,8-trimethyl-4-oxochromen-7-yl)oxyoxan-3-yl] acetate
> <PUBCHEM_IUPAC_NAME>
[(2R,3R,4S,5S,6R)-4,5-dihydroxy-6-(hydroxymethyl)-2-(5-hydroxy-2,6,8-trimethyl-4-oxochromen-7-yl)oxyoxan-3-yl] acetate
> <PUBCHEM_IUPAC_SYSTEMATIC_NAME>
[(2R,3R,4S,5S,6R)-6-(hydroxymethyl)-4,5-bis(oxidanyl)-2-(2,6,8-trimethyl-5-oxidanyl-4-oxidanylidene-chromen-7-yl)oxy-oxan-3-yl] ethanoate
> <PUBCHEM_IUPAC_TRADITIONAL_NAME>
acetic acid [(2R,3R,4S,5S,6R)-4,5-dihydroxy-2-(5-hydroxy-4-keto-2,6,8-trimethyl-chromen-7-yl)oxy-6-methylol-tetrahydropyran-3-yl] ester
> <PUBCHEM_IUPAC_INCHI>
InChI=1S/C20H24O10/c1-7-5-11(23)13-14(24)8(2)17(9(3)18(13)27-7)30-20-19(28-10(4)22)16(26)15(25)12(6-21)29-20/h5,12,15-16,19-21,24-26H,6H2,1-4H3/t12-,15-,16+,19-,20-/m1/s1
> <PUBCHEM_IUPAC_INCHIKEY>
LZVXQCMWSFCKNF-KQFONWOYSA-N
> <PUBCHEM_XLOGP3_AA>
1.3
> <PUBCHEM_EXACT_MASS>
424.13694696
> <PUBCHEM_MOLECULAR_FORMULA>
C20H24O10
> <PUBCHEM_MOLECULAR_WEIGHT>
424.4
> <PUBCHEM_OPENEYE_CAN_SMILES>
CC1=CC(=O)C2=C(O1)C(=C(C(=C2O)C)OC3C(C(C(C(O3)CO)O)O)OC(=O)C)C
> <PUBCHEM_OPENEYE_ISO_SMILES>
CC1=CC(=O)C2=C(O1)C(=C(C(=C2O)C)O[C@@H]3[C@@H]([C@H]([C@@H]([C@H](O3)CO)O)O)OC(=O)C)C
> <PUBCHEM_CACTVS_TPSA>
152
> <PUBCHEM_MONOISOTOPIC_WEIGHT>
424.13694696
> <PUBCHEM_TOTAL_CHARGE>
0
> <PUBCHEM_HEAVY_ATOM_COUNT>
30
> <PUBCHEM_ATOM_DEF_STEREO_COUNT>
5
> <PUBCHEM_ATOM_UDEF_STEREO_COUNT>
0
> <PUBCHEM_BOND_DEF_STEREO_COUNT>
0
> <PUBCHEM_BOND_UDEF_STEREO_COUNT>
0
> <PUBCHEM_ISOTOPIC_ATOM_COUNT>
0
> <PUBCHEM_COMPONENT_COUNT>
1
> <PUBCHEM_CACTVS_TAUTO_COUNT>
-1
> <PUBCHEM_COORDINATE_TYPE>
1
5
255
> <PUBCHEM_BONDANNOTATIONS>
14  16  5
17  18  8
17  19  8
18  21  8
19  23  8
15  2  6
21  22  8
22  23  8
22  27  8
27  29  8
28  29  8
13  3  6
11  4  5
12  5  6
7  21  8
7  28  8
$$$$
