511758
  -OEChem-10302200282D
 28 29  0     1  0  0  0  0  0999 V2000
    5.9674    0.3632    0.0000 S   0  0  0  0  0  0  0  0  0  0  0  0
    7.5673    2.4704    0.0000 O   0  0  0  0  0  0  0  0  0  0  0  0
    3.7320   -1.0983    0.0000 N   0  0  0  0  0  0  0  0  0  0  0  0
    4.6783   -2.4030    0.0000 N   0  0  0  0  0  0  0  0  0  0  0  0
    2.8660   -2.5983    0.0000 N   0  0  0  0  0  0  0  0  0  0  0  0
    4.6783   -0.7936    0.0000 C   0  0  0  0  0  0  0  0  0  0  0  0
    4.9889    0.1570    0.0000 C   0  0  0  0  0  0  0  0  0  0  0  0
    6.2781    1.3137    0.0000 C   0  0  0  0  0  0  0  0  0  0  0  0
    7.2566    1.5199    0.0000 C   0  0  3  0  0  0  0  0  0  0  0  0
    3.7320   -2.0983    0.0000 C   0  0  0  0  0  0  0  0  0  0  0  0
    5.2619   -1.5983    0.0000 C   0  0  0  0  0  0  0  0  0  0  0  0
    2.8660   -0.5983    0.0000 C   0  0  0  0  0  0  0  0  0  0  0  0
    7.9244    0.7756    0.0000 C   0  0  0  0  0  0  0  0  0  0  0  0
    2.0000   -1.0983    0.0000 C   0  0  0  0  0  0  0  0  0  0  0  0
    2.0000   -2.0983    0.0000 C   0  0  0  0  0  0  0  0  0  0  0  0
    4.9684    0.7766    0.0000 H   0  0  0  0  0  0  0  0  0  0  0  0
    4.3751    0.2443    0.0000 H   0  0  0  0  0  0  0  0  0  0  0  0
    6.2575    1.9334    0.0000 H   0  0  0  0  0  0  0  0  0  0  0  0
    5.6643    1.4010    0.0000 H   0  0  0  0  0  0  0  0  0  0  0  0
    6.8425    1.9814    0.0000 H   0  0  0  0  0  0  0  0  0  0  0  0
    5.8819   -1.5983    0.0000 H   0  0  0  0  0  0  0  0  0  0  0  0
    2.8660    0.0217    0.0000 H   0  0  0  0  0  0  0  0  0  0  0  0
    7.4630    0.3616    0.0000 H   0  0  0  0  0  0  0  0  0  0  0  0
    8.3385    0.3141    0.0000 H   0  0  0  0  0  0  0  0  0  0  0  0
    8.3859    1.1897    0.0000 H   0  0  0  0  0  0  0  0  0  0  0  0
    1.4631   -0.7883    0.0000 H   0  0  0  0  0  0  0  0  0  0  0  0
    1.4631   -2.4083    0.0000 H   0  0  0  0  0  0  0  0  0  0  0  0
    8.1739    2.5983    0.0000 H   0  0  0  0  0  0  0  0  0  0  0  0
  1  7  1  0  0  0  0
  1  8  1  0  0  0  0
  2  9  1  0  0  0  0
  2 28  1  0  0  0  0
  3  6  1  0  0  0  0
  3 10  1  0  0  0  0
  3 12  1  0  0  0  0
  4 10  2  0  0  0  0
  4 11  1  0  0  0  0
  5 10  1  0  0  0  0
  5 15  2  0  0  0  0
  6  7  1  0  0  0  0
  6 11  2  0  0  0  0
  7 16  1  0  0  0  0
  7 17  1  0  0  0  0
  8  9  1  0  0  0  0
  8 18  1  0  0  0  0
  8 19  1  0  0  0  0
  9 13  1  0  0  0  0
  9 20  1  0  0  0  0
 11 21  1  0  0  0  0
 12 14  2  0  0  0  0
 12 22  1  0  0  0  0
 13 23  1  0  0  0  0
 13 24  1  0  0  0  0
 13 25  1  0  0  0  0
 14 15  1  0  0  0  0
 14 26  1  0  0  0  0
 15 27  1  0  0  0  0
M  END
> <PUBCHEM_COMPOUND_CID>
511758
> <PUBCHEM_COMPOUND_CANONICALIZED>
1
> <PUBCHEM_CACTVS_COMPLEXITY>
205
> <PUBCHEM_CACTVS_HBOND_ACCEPTOR>
4
> <PUBCHEM_CACTVS_HBOND_DONOR>
1
> <PUBCHEM_CACTVS_ROTATABLE_BOND>
4
> <PUBCHEM_CACTVS_SUBSKEYS>
AAADccBzIABAAAAAAAAAAAAAAAAAAWAAAAAsAAAAAAAAAFgB4AAAHgQACAAACBzl1ga/kJcMGgigATRnZACAgC0RErAJUCA4dBCAWMBgSUAUBAgIAALgACAAAAAAAAAAAAAAAAAAAAAAAAAAAAAAAAAAAA==
> <PUBCHEM_IUPAC_OPENEYE_NAME>
1-(imidazo[1,2-a]pyrimidin-3-ylmethylsulfanyl)propan-2-ol
> <PUBCHEM_IUPAC_CAS_NAME>
1-(3-imidazo[1,2-a]pyrimidinylmethylthio)-2-propanol
> <PUBCHEM_IUPAC_NAME_MARKUP>
1-(imidazo[1,2-a]pyrimidin-3-ylmethylsulfanyl)propan-2-ol
> <PUBCHEM_IUPAC_NAME>
1-(imidazo[1,2-a]pyrimidin-3-ylmethylsulfanyl)propan-2-ol
> <PUBCHEM_IUPAC_SYSTEMATIC_NAME>
1-(imidazo[1,2-a]pyrimidin-3-ylmethylsulfanyl)propan-2-ol
> <PUBCHEM_IUPAC_TRADITIONAL_NAME>
1-(imidazo[1,2-a]pyrimidin-3-ylmethylthio)propan-2-ol
> <PUBCHEM_IUPAC_INCHI>
InChI=1S/C10H13N3OS/c1-8(14)6-15-7-9-5-12-10-11-3-2-4-13(9)10/h2-5,8,14H,6-7H2,1H3
> <PUBCHEM_IUPAC_INCHIKEY>
DQBVIGRDPONBFV-UHFFFAOYSA-N
> <PUBCHEM_XLOGP3_AA>
1.3
> <PUBCHEM_EXACT_MASS>
223.07793322
> <PUBCHEM_MOLECULAR_FORMULA>
C10H13N3OS
> <PUBCHEM_MOLECULAR_WEIGHT>
223.30
> <PUBCHEM_OPENEYE_CAN_SMILES>
CC(CSCC1=CN=C2N1C=CC=N2)O
> <PUBCHEM_OPENEYE_ISO_SMILES>
CC(CSCC1=CN=C2N1C=CC=N2)O
> <PUBCHEM_CACTVS_TPSA>
75.7
> <PUBCHEM_MONOISOTOPIC_WEIGHT>
223.07793322
> <PUBCHEM_TOTAL_CHARGE>
0
> <PUBCHEM_HEAVY_ATOM_COUNT>
15
> <PUBCHEM_ATOM_DEF_STEREO_COUNT>
0
> <PUBCHEM_ATOM_UDEF_STEREO_COUNT>
1
> <PUBCHEM_BOND_DEF_STEREO_COUNT>
0
> <PUBCHEM_BOND_UDEF_STEREO_COUNT>
0
> <PUBCHEM_ISOTOPIC_ATOM_COUNT>
0
> <PUBCHEM_COMPONENT_COUNT>
1
> <PUBCHEM_CACTVS_TAUTO_COUNT>
-1
> <PUBCHEM_COORDINATE_TYPE>
1
5
255
> <PUBCHEM_BONDANNOTATIONS>
12  14  8
14  15  8
9  2  3
3  10  8
3  12  8
3  6  8
4  10  8
4  11  8
5  10  8
5  15  8
6  11  8
$$$$
