511789
  -OEChem-10302200282D
 47 49  0     1  0  0  0  0  0999 V2000
    6.3981    0.0272    0.0000 O   0  0  0  0  0  0  0  0  0  0  0  0
    2.8680    0.0031    0.0000 O   0  0  0  0  0  0  0  0  0  0  0  0
    6.3981    3.0272    0.0000 O   0  0  0  0  0  0  0  0  0  0  0  0
   10.7282   -1.4728    0.0000 O   0  0  0  0  0  0  0  0  0  0  0  0
    7.2641    0.5272    0.0000 C   0  0  1  0  0  0  0  0  0  0  0  0
    7.2641    1.5272    0.0000 C   0  0  0  0  0  0  0  0  0  0  0  0
    5.5320    0.5272    0.0000 C   0  0  0  0  0  0  0  0  0  0  0  0
    5.5320    1.5272    0.0000 C   0  0  0  0  0  0  0  0  0  0  0  0
    4.6381   -0.0074    0.0000 C   0  0  0  0  0  0  0  0  0  0  0  0
    6.3981    2.0272    0.0000 C   0  0  0  0  0  0  0  0  0  0  0  0
    8.1301    0.0272    0.0000 C   0  0  0  0  0  0  0  0  0  0  0  0
    4.6497   -1.0074    0.0000 C   0  0  0  0  0  0  0  0  0  0  0  0
    3.7320    0.5064    0.0000 C   0  0  0  0  0  0  0  0  0  0  0  0
    4.6381    2.0619    0.0000 C   0  0  0  0  0  0  0  0  0  0  0  0
    3.7320    1.5481    0.0000 C   0  0  0  0  0  0  0  0  0  0  0  0
    8.9962    0.5272    0.0000 C   0  0  0  0  0  0  0  0  0  0  0  0
    8.1301   -0.9728    0.0000 C   0  0  0  0  0  0  0  0  0  0  0  0
    3.7895   -1.5173    0.0000 C   0  0  0  0  0  0  0  0  0  0  0  0
    9.8622    0.0272    0.0000 C   0  0  0  0  0  0  0  0  0  0  0  0
    8.9962   -1.4728    0.0000 C   0  0  0  0  0  0  0  0  0  0  0  0
    3.8010   -2.5173    0.0000 C   0  0  0  0  0  0  0  0  0  0  0  0
    9.8622   -0.9728    0.0000 C   0  0  0  0  0  0  0  0  0  0  0  0
    2.9409   -3.0272    0.0000 C   0  0  0  0  0  0  0  0  0  0  0  0
    4.6728   -3.0072    0.0000 C   0  0  0  0  0  0  0  0  0  0  0  0
    2.0000    0.4998    0.0000 C   0  0  0  0  0  0  0  0  0  0  0  0
    7.2641   -0.0928    0.0000 H   0  0  0  0  0  0  0  0  0  0  0  0
    7.8747    1.4196    0.0000 H   0  0  0  0  0  0  0  0  0  0  0  0
    7.4762    2.1098    0.0000 H   0  0  0  0  0  0  0  0  0  0  0  0
    4.8684   -1.5875    0.0000 H   0  0  0  0  0  0  0  0  0  0  0  0
    5.2590   -0.8926    0.0000 H   0  0  0  0  0  0  0  0  0  0  0  0
    4.6453    2.6819    0.0000 H   0  0  0  0  0  0  0  0  0  0  0  0
    3.1963    1.8601    0.0000 H   0  0  0  0  0  0  0  0  0  0  0  0
    8.9962    1.1472    0.0000 H   0  0  0  0  0  0  0  0  0  0  0  0
    7.5932   -1.2828    0.0000 H   0  0  0  0  0  0  0  0  0  0  0  0
    3.2490   -1.2136    0.0000 H   0  0  0  0  0  0  0  0  0  0  0  0
   10.3991    0.3372    0.0000 H   0  0  0  0  0  0  0  0  0  0  0  0
    8.9962   -2.0928    0.0000 H   0  0  0  0  0  0  0  0  0  0  0  0
    2.6247   -2.4939    0.0000 H   0  0  0  0  0  0  0  0  0  0  0  0
    2.4075   -3.3434    0.0000 H   0  0  0  0  0  0  0  0  0  0  0  0
    3.2570   -3.5606    0.0000 H   0  0  0  0  0  0  0  0  0  0  0  0
    4.3690   -3.5477    0.0000 H   0  0  0  0  0  0  0  0  0  0  0  0
    5.2133   -3.3110    0.0000 H   0  0  0  0  0  0  0  0  0  0  0  0
    4.9766   -2.4667    0.0000 H   0  0  0  0  0  0  0  0  0  0  0  0
    2.3079    1.0379    0.0000 H   0  0  0  0  0  0  0  0  0  0  0  0
    1.4619    0.8077    0.0000 H   0  0  0  0  0  0  0  0  0  0  0  0
    1.6921   -0.0384    0.0000 H   0  0  0  0  0  0  0  0  0  0  0  0
   11.2651   -1.1628    0.0000 H   0  0  0  0  0  0  0  0  0  0  0  0
  1  5  1  0  0  0  0
  1  7  1  0  0  0  0
  2 13  1  0  0  0  0
  2 25  1  0  0  0  0
  3 10  2  0  0  0  0
  4 22  1  0  0  0  0
  4 47  1  0  0  0  0
  5  6  1  0  0  0  0
  5 11  1  1  0  0  0
  5 26  1  0  0  0  0
  6 10  1  0  0  0  0
  6 27  1  0  0  0  0
  6 28  1  0  0  0  0
  7  8  2  0  0  0  0
  7  9  1  0  0  0  0
  8 10  1  0  0  0  0
  8 14  1  0  0  0  0
  9 12  1  0  0  0  0
  9 13  2  0  0  0  0
 11 16  2  0  0  0  0
 11 17  1  0  0  0  0
 12 18  1  0  0  0  0
 12 29  1  0  0  0  0
 12 30  1  0  0  0  0
 13 15  1  0  0  0  0
 14 15  2  0  0  0  0
 14 31  1  0  0  0  0
 15 32  1  0  0  0  0
 16 19  1  0  0  0  0
 16 33  1  0  0  0  0
 17 20  2  0  0  0  0
 17 34  1  0  0  0  0
 18 21  2  0  0  0  0
 18 35  1  0  0  0  0
 19 22  2  0  0  0  0
 19 36  1  0  0  0  0
 20 22  1  0  0  0  0
 20 37  1  0  0  0  0
 21 23  1  0  0  0  0
 21 24  1  0  0  0  0
 23 38  1  0  0  0  0
 23 39  1  0  0  0  0
 23 40  1  0  0  0  0
 24 41  1  0  0  0  0
 24 42  1  0  0  0  0
 24 43  1  0  0  0  0
 25 44  1  0  0  0  0
 25 45  1  0  0  0  0
 25 46  1  0  0  0  0
M  END
> <PUBCHEM_COMPOUND_CID>
511789
> <PUBCHEM_COMPOUND_CANONICALIZED>
1
> <PUBCHEM_CACTVS_COMPLEXITY>
488
> <PUBCHEM_CACTVS_HBOND_ACCEPTOR>
4
> <PUBCHEM_CACTVS_HBOND_DONOR>
1
> <PUBCHEM_CACTVS_ROTATABLE_BOND>
4
> <PUBCHEM_CACTVS_SUBSKEYS>
AAADceB4OAAAAAAAAAAAAAAAAAAAAAAAAAA0YIAAAAAAAACRQAAAGgAACAAADBSgmAIyBoAABgCIAqBSAAACCAAkIAAIiAEGCMgMJzaGNRqCeWCl4BUIuYeI7OzOIAACCAAIAABAAAQQABAAAAAAAAAAAA==
> <PUBCHEM_IUPAC_OPENEYE_NAME>
(2S)-2-(4-hydroxyphenyl)-7-methoxy-8-(3-methylbut-2-enyl)chroman-4-one
> <PUBCHEM_IUPAC_CAS_NAME>
(2S)-2-(4-hydroxyphenyl)-7-methoxy-8-(3-methylbut-2-enyl)-3,4-dihydro-2H-1-benzopyran-4-one
> <PUBCHEM_IUPAC_NAME_MARKUP>
(2<I>S</I>)-2-(4-hydroxyphenyl)-7-methoxy-8-(3-methylbut-2-enyl)-2,3-dihydrochromen-4-one
> <PUBCHEM_IUPAC_NAME>
(2S)-2-(4-hydroxyphenyl)-7-methoxy-8-(3-methylbut-2-enyl)-2,3-dihydrochromen-4-one
> <PUBCHEM_IUPAC_SYSTEMATIC_NAME>
(2S)-2-(4-hydroxyphenyl)-7-methoxy-8-(3-methylbut-2-enyl)-2,3-dihydrochromen-4-one
> <PUBCHEM_IUPAC_TRADITIONAL_NAME>
(2S)-2-(4-hydroxyphenyl)-7-methoxy-8-(3-methylbut-2-enyl)chroman-4-one
> <PUBCHEM_IUPAC_INCHI>
InChI=1S/C21H22O4/c1-13(2)4-9-17-19(24-3)11-10-16-18(23)12-20(25-21(16)17)14-5-7-15(22)8-6-14/h4-8,10-11,20,22H,9,12H2,1-3H3/t20-/m0/s1
> <PUBCHEM_IUPAC_INCHIKEY>
IIIACKGGDCVYPY-FQEVSTJZSA-N
> <PUBCHEM_XLOGP3_AA>
4.4
> <PUBCHEM_EXACT_MASS>
338.15180918
> <PUBCHEM_MOLECULAR_FORMULA>
C21H22O4
> <PUBCHEM_MOLECULAR_WEIGHT>
338.4
> <PUBCHEM_OPENEYE_CAN_SMILES>
CC(=CCC1=C(C=CC2=C1OC(CC2=O)C3=CC=C(C=C3)O)OC)C
> <PUBCHEM_OPENEYE_ISO_SMILES>
CC(=CCC1=C(C=CC2=C1O[C@@H](CC2=O)C3=CC=C(C=C3)O)OC)C
> <PUBCHEM_CACTVS_TPSA>
55.8
> <PUBCHEM_MONOISOTOPIC_WEIGHT>
338.15180918
> <PUBCHEM_TOTAL_CHARGE>
0
> <PUBCHEM_HEAVY_ATOM_COUNT>
25
> <PUBCHEM_ATOM_DEF_STEREO_COUNT>
1
> <PUBCHEM_ATOM_UDEF_STEREO_COUNT>
0
> <PUBCHEM_BOND_DEF_STEREO_COUNT>
0
> <PUBCHEM_BOND_UDEF_STEREO_COUNT>
0
> <PUBCHEM_ISOTOPIC_ATOM_COUNT>
0
> <PUBCHEM_COMPONENT_COUNT>
1
> <PUBCHEM_CACTVS_TAUTO_COUNT>
-1
> <PUBCHEM_COORDINATE_TYPE>
1
5
255
> <PUBCHEM_BONDANNOTATIONS>
11  16  8
11  17  8
13  15  8
14  15  8
16  19  8
17  20  8
19  22  8
20  22  8
5  11  5
7  8  8
7  9  8
8  14  8
9  13  8
$$$$
