511763
  -OEChem-10302200282D
 31 33  0     1  0  0  0  0  0999 V2000
    4.6844   -3.3174    0.0000 F   0  0  0  0  0  0  0  0  0  0  0  0
    5.9405   -1.0552    0.0000 O   0  0  0  0  0  0  0  0  0  0  0  0
    7.6651   -2.2332    0.0000 O   0  0  0  0  0  0  0  0  0  0  0  0
    4.6783    0.2027    0.0000 N   0  0  0  0  0  0  0  0  0  0  0  0
    2.8660    0.0074    0.0000 N   0  0  0  0  0  0  0  0  0  0  0  0
    2.0000    1.5074    0.0000 N   0  0  0  0  0  0  0  0  0  0  0  0
    2.8660    3.0074    0.0000 N   0  0  0  0  0  0  0  0  0  0  0  0
    4.9889   -0.7478    0.0000 C   0  0  1  0  0  0  0  0  0  0  0  0
    4.4026   -1.5578    0.0000 C   0  0  0  0  0  0  0  0  0  0  0  0
    4.9917   -2.3658    0.0000 C   0  0  3  0  0  0  0  0  0  0  0  0
    5.9422   -2.0552    0.0000 C   0  0  1  0  0  0  0  0  0  0  0  0
    6.7523   -2.6416    0.0000 C   0  0  0  0  0  0  0  0  0  0  0  0
    3.7320    0.5074    0.0000 C   0  0  0  0  0  0  0  0  0  0  0  0
    5.2619    1.0074    0.0000 C   0  0  0  0  0  0  0  0  0  0  0  0
    3.7320    1.5074    0.0000 C   0  0  0  0  0  0  0  0  0  0  0  0
    4.6783    1.8122    0.0000 C   0  0  0  0  0  0  0  0  0  0  0  0
    2.8660    2.0074    0.0000 C   0  0  0  0  0  0  0  0  0  0  0  0
    2.0000    0.5074    0.0000 C   0  0  0  0  0  0  0  0  0  0  0  0
    5.4266   -0.3087    0.0000 H   0  0  0  0  0  0  0  0  0  0  0  0
    3.9411   -1.1438    0.0000 H   0  0  0  0  0  0  0  0  0  0  0  0
    3.9425   -1.9735    0.0000 H   0  0  0  0  0  0  0  0  0  0  0  0
    5.4309   -2.8035    0.0000 H   0  0  0  0  0  0  0  0  0  0  0  0
    6.4942   -1.7728    0.0000 H   0  0  0  0  0  0  0  0  0  0  0  0
    6.3070   -3.0730    0.0000 H   0  0  0  0  0  0  0  0  0  0  0  0
    7.0999   -3.1550    0.0000 H   0  0  0  0  0  0  0  0  0  0  0  0
    5.8819    1.0074    0.0000 H   0  0  0  0  0  0  0  0  0  0  0  0
    4.8709    2.4015    0.0000 H   0  0  0  0  0  0  0  0  0  0  0  0
    8.1674   -2.5968    0.0000 H   0  0  0  0  0  0  0  0  0  0  0  0
    1.4631    0.1974    0.0000 H   0  0  0  0  0  0  0  0  0  0  0  0
    2.3291    3.3174    0.0000 H   0  0  0  0  0  0  0  0  0  0  0  0
    3.4030    3.3174    0.0000 H   0  0  0  0  0  0  0  0  0  0  0  0
  1 10  1  0  0  0  0
  2  8  1  0  0  0  0
  2 11  1  0  0  0  0
  3 12  1  0  0  0  0
  3 28  1  0  0  0  0
  8  4  1  6  0  0  0
  4 13  1  0  0  0  0
  4 14  1  0  0  0  0
  5 13  2  0  0  0  0
  5 18  1  0  0  0  0
  6 17  1  0  0  0  0
  6 18  2  0  0  0  0
  7 17  1  0  0  0  0
  7 30  1  0  0  0  0
  7 31  1  0  0  0  0
  8  9  1  0  0  0  0
  8 19  1  0  0  0  0
  9 10  1  0  0  0  0
  9 20  1  0  0  0  0
  9 21  1  0  0  0  0
 10 11  1  0  0  0  0
 10 22  1  0  0  0  0
 11 12  1  6  0  0  0
 11 23  1  0  0  0  0
 12 24  1  0  0  0  0
 12 25  1  0  0  0  0
 13 15  1  0  0  0  0
 14 16  2  0  0  0  0
 14 26  1  0  0  0  0
 15 16  1  0  0  0  0
 15 17  2  0  0  0  0
 16 27  1  0  0  0  0
 18 29  1  0  0  0  0
M  END
> <PUBCHEM_COMPOUND_CID>
511763
> <PUBCHEM_COMPOUND_CANONICALIZED>
1
> <PUBCHEM_CACTVS_COMPLEXITY>
309
> <PUBCHEM_CACTVS_HBOND_ACCEPTOR>
6
> <PUBCHEM_CACTVS_HBOND_DONOR>
2
> <PUBCHEM_CACTVS_ROTATABLE_BOND>
2
> <PUBCHEM_CACTVS_SUBSKEYS>
AAADccBzsQAAAAAAAAAAAAAAAAAAAWJAAAAsAAAAAAAAAFgB+AAAHwAQCAAADBThmwY9sN9MFgCgAjJnZACCgCkxAqAJ2CA4ZJiJOMJAyMEORAhMAALDQCCwMAIIAAAAAAAAAAAAAAAAAAAAAAAAAAAAAA==
> <PUBCHEM_IUPAC_OPENEYE_NAME>
[(2R,5R)-5-(4-aminopyrrolo[2,3-d]pyrimidin-7-yl)-3-fluoro-tetrahydrofuran-2-yl]methanol
> <PUBCHEM_IUPAC_CAS_NAME>
[(2R,5R)-5-(4-amino-7-pyrrolo[2,3-d]pyrimidinyl)-3-fluoro-2-oxolanyl]methanol
> <PUBCHEM_IUPAC_NAME_MARKUP>
[(2<I>R</I>,5<I>R</I>)-5-(4-aminopyrrolo[2,3-d]pyrimidin-7-yl)-3-fluorooxolan-2-yl]methanol
> <PUBCHEM_IUPAC_NAME>
[(2R,5R)-5-(4-aminopyrrolo[2,3-d]pyrimidin-7-yl)-3-fluorooxolan-2-yl]methanol
> <PUBCHEM_IUPAC_SYSTEMATIC_NAME>
[(2R,5R)-5-(4-azanylpyrrolo[2,3-d]pyrimidin-7-yl)-3-fluoranyl-oxolan-2-yl]methanol
> <PUBCHEM_IUPAC_TRADITIONAL_NAME>
[(2R,5R)-5-(4-aminopyrrolo[2,3-d]pyrimidin-7-yl)-3-fluoro-tetrahydrofuran-2-yl]methanol
> <PUBCHEM_IUPAC_INCHI>
InChI=1S/C11H13FN4O2/c12-7-3-9(18-8(7)4-17)16-2-1-6-10(13)14-5-15-11(6)16/h1-2,5,7-9,17H,3-4H2,(H2,13,14,15)/t7?,8-,9-/m1/s1
> <PUBCHEM_IUPAC_INCHIKEY>
CFKCKBZGNLRNEJ-CFCGPWAMSA-N
> <PUBCHEM_XLOGP3_AA>
0.1
> <PUBCHEM_EXACT_MASS>
252.10225383
> <PUBCHEM_MOLECULAR_FORMULA>
C11H13FN4O2
> <PUBCHEM_MOLECULAR_WEIGHT>
252.24
> <PUBCHEM_OPENEYE_CAN_SMILES>
C1C(C(OC1N2C=CC3=C(N=CN=C32)N)CO)F
> <PUBCHEM_OPENEYE_ISO_SMILES>
C1[C@@H](O[C@@H](C1F)CO)N2C=CC3=C(N=CN=C32)N
> <PUBCHEM_CACTVS_TPSA>
86.2
> <PUBCHEM_MONOISOTOPIC_WEIGHT>
252.10225383
> <PUBCHEM_TOTAL_CHARGE>
0
> <PUBCHEM_HEAVY_ATOM_COUNT>
18
> <PUBCHEM_ATOM_DEF_STEREO_COUNT>
2
> <PUBCHEM_ATOM_UDEF_STEREO_COUNT>
1
> <PUBCHEM_BOND_DEF_STEREO_COUNT>
0
> <PUBCHEM_BOND_UDEF_STEREO_COUNT>
0
> <PUBCHEM_ISOTOPIC_ATOM_COUNT>
0
> <PUBCHEM_COMPONENT_COUNT>
1
> <PUBCHEM_CACTVS_TAUTO_COUNT>
-1
> <PUBCHEM_COORDINATE_TYPE>
1
5
255
> <PUBCHEM_BONDANNOTATIONS>
10  1  3
11  12  6
13  15  8
14  16  8
15  16  8
15  17  8
4  13  8
4  14  8
8  4  6
5  13  8
5  18  8
6  17  8
6  18  8
$$$$
