511715
  -OEChem-10302200282D
 37 37  0     1  0  0  0  0  0999 V2000
    5.1350    5.9438    0.0000 Hg  0  3  0  0  0  0  0  0  0  0  0  0
    0.0000    3.7219    0.0000 S   0  5  0  0  0  0  0  0  0  0  0  0
    7.6761    2.3561    0.0000 O   0  0  0  0  0  0  0  0  0  0  0  0
    5.7793    0.5960    0.0000 O   0  0  0  0  0  0  0  0  0  0  0  0
    8.9494    0.7005    0.0000 O   0  0  0  0  0  0  0  0  0  0  0  0
    8.5991    3.9438    0.0000 O   0  0  0  0  0  0  0  0  0  0  0  0
    6.8671    6.9438    0.0000 O   0  0  0  0  0  0  0  0  0  0  0  0
    2.5981    3.2219    0.0000 O   0  0  0  0  0  0  0  0  0  0  0  0
    6.8671    3.9438    0.0000 N   0  0  0  0  0  0  0  0  0  0  0  0
    7.7331    5.4438    0.0000 N   0  0  0  0  0  0  0  0  0  0  0  0
    6.3671    1.4050    0.0000 C   0  0  1  0  0  0  0  0  0  0  0  0
    6.0580    2.3561    0.0000 C   0  0  0  0  0  0  0  0  0  0  0  0
    7.3671    1.4050    0.0000 C   0  0  1  0  0  0  0  0  0  0  0  0
    6.8671    2.9438    0.0000 C   0  0  1  0  0  0  0  0  0  0  0  0
    7.9548    0.5960    0.0000 C   0  0  0  0  0  0  0  0  0  0  0  0
    7.7331    4.4438    0.0000 C   0  0  0  0  0  0  0  0  0  0  0  0
    6.0010    4.4438    0.0000 C   0  0  0  0  0  0  0  0  0  0  0  0
    6.0010    5.4438    0.0000 C   0  0  0  0  0  0  0  0  0  0  0  0
    6.8671    5.9438    0.0000 C   0  0  0  0  0  0  0  0  0  0  0  0
    1.7320    3.7219    0.0000 C   0  0  0  0  0  0  0  0  0  0  0  0
    0.8660    3.2219    0.0000 C   0  0  0  0  0  0  0  0  0  0  0  0
    6.6485    0.8526    0.0000 H   0  0  0  0  0  0  0  0  0  0  0  0
    5.7480    2.8930    0.0000 H   0  0  0  0  0  0  0  0  0  0  0  0
    5.4916    2.1039    0.0000 H   0  0  0  0  0  0  0  0  0  0  0  0
    7.4195    3.2253    0.0000 H   0  0  0  0  0  0  0  0  0  0  0  0
    7.9794    1.5020    0.0000 H   0  0  0  0  0  0  0  0  0  0  0  0
    7.3976    0.3242    0.0000 H   0  0  0  0  0  0  0  0  0  0  0  0
    8.1257    0.0000    0.0000 H   0  0  0  0  0  0  0  0  0  0  0  0
    5.1627    0.6608    0.0000 H   0  0  0  0  0  0  0  0  0  0  0  0
    5.4641    4.1338    0.0000 H   0  0  0  0  0  0  0  0  0  0  0  0
    9.3138    0.1989    0.0000 H   0  0  0  0  0  0  0  0  0  0  0  0
    8.2700    5.7538    0.0000 H   0  0  0  0  0  0  0  0  0  0  0  0
    2.1306    4.1969    0.0000 H   0  0  0  0  0  0  0  0  0  0  0  0
    1.3335    4.1969    0.0000 H   0  0  0  0  0  0  0  0  0  0  0  0
    0.4675    2.7470    0.0000 H   0  0  0  0  0  0  0  0  0  0  0  0
    1.2646    2.7470    0.0000 H   0  0  0  0  0  0  0  0  0  0  0  0
    3.1350    3.5319    0.0000 H   0  0  0  0  0  0  0  0  0  0  0  0
  1 18  1  0  0  0  0
  2 21  1  0  0  0  0
  3 13  1  0  0  0  0
  3 14  1  0  0  0  0
 11  4  1  1  0  0  0
  4 29  1  0  0  0  0
  5 15  1  0  0  0  0
  5 31  1  0  0  0  0
  6 16  2  0  0  0  0
  7 19  2  0  0  0  0
  8 20  1  0  0  0  0
  8 37  1  0  0  0  0
 14  9  1  6  0  0  0
  9 16  1  0  0  0  0
  9 17  1  0  0  0  0
 10 16  1  0  0  0  0
 10 19  1  0  0  0  0
 10 32  1  0  0  0  0
 11 12  1  0  0  0  0
 11 13  1  0  0  0  0
 11 22  1  0  0  0  0
 12 14  1  0  0  0  0
 12 23  1  0  0  0  0
 12 24  1  0  0  0  0
 13 15  1  6  0  0  0
 13 26  1  0  0  0  0
 14 25  1  0  0  0  0
 15 27  1  0  0  0  0
 15 28  1  0  0  0  0
 17 18  2  0  0  0  0
 17 30  1  0  0  0  0
 18 19  1  0  0  0  0
 20 21  1  0  0  0  0
 20 33  1  0  0  0  0
 20 34  1  0  0  0  0
 21 35  1  0  0  0  0
 21 36  1  0  0  0  0
M  CHG  2   1   1   2  -1
M  END
> <PUBCHEM_COMPOUND_CID>
511715
> <PUBCHEM_COMPOUND_CANONICALIZED>
1
> <PUBCHEM_CACTVS_COMPLEXITY>
396
> <PUBCHEM_CACTVS_HBOND_ACCEPTOR>
7
> <PUBCHEM_CACTVS_HBOND_DONOR>
4
> <PUBCHEM_CACTVS_ROTATABLE_BOND>
3
> <PUBCHEM_CACTVS_SUBSKEYS>
AAADceBzOABAAAAAAAAAAQAAAAAAASAAAAAgAAAAAAAAAAAAAAAAHgQQCAAACBTlwAaBAAPABgCIAAFWUACAAAAAAAAAAAAIAECBEAIAgAAOQAAPByIDAMCwMAIAAAAAAAAAAAAAAAAAAAAAAAAAAAAAAA==
> <PUBCHEM_IUPAC_OPENEYE_NAME>
2-hydroxyethanethiolate;[1-[(2R,4S,5R)-4-hydroxy-5-(hydroxymethyl)tetrahydrofuran-2-yl]-2,4-dioxo-pyrimidin-5-yl]mercury(1+)
> <PUBCHEM_IUPAC_CAS_NAME>
2-hydroxyethanethiolate;[1-[(2R,4S,5R)-4-hydroxy-5-(hydroxymethyl)-2-oxolanyl]-2,4-dioxo-5-pyrimidinyl]mercury(1+)
> <PUBCHEM_IUPAC_NAME_MARKUP>
2-hydroxyethanethiolate;[1-[(2<I>R</I>,4<I>S</I>,5<I>R</I>)-4-hydroxy-5-(hydroxymethyl)oxolan-2-yl]-2,4-dioxopyrimidin-5-yl]mercury(1+)
> <PUBCHEM_IUPAC_NAME>
2-hydroxyethanethiolate;[1-[(2R,4S,5R)-4-hydroxy-5-(hydroxymethyl)oxolan-2-yl]-2,4-dioxopyrimidin-5-yl]mercury(1+)
> <PUBCHEM_IUPAC_SYSTEMATIC_NAME>
[1-[(2R,4S,5R)-5-(hydroxymethyl)-4-oxidanyl-oxolan-2-yl]-2,4-bis(oxidanylidene)pyrimidin-5-yl]mercury(1+);2-oxidanylethanethiolate
> <PUBCHEM_IUPAC_TRADITIONAL_NAME>
2-hydroxyethanethiolate;[1-[(2R,4S,5R)-4-hydroxy-5-methylol-tetrahydrofuran-2-yl]-2,4-diketo-pyrimidin-5-yl]mercury(1+)
> <PUBCHEM_IUPAC_INCHI>
InChI=1S/C9H11N2O5.C2H6OS.Hg/c12-4-6-5(13)3-8(16-6)11-2-1-7(14)10-9(11)15;3-1-2-4;/h2,5-6,8,12-13H,3-4H2,(H,10,14,15);3-4H,1-2H2;/q;;+1/p-1/t5-,6+,8+;;/m0../s1
> <PUBCHEM_IUPAC_INCHIKEY>
OBGMGPPRKPCHSA-CDNBRZBRSA-M
> <PUBCHEM_EXACT_MASS>
506.043551
> <PUBCHEM_MOLECULAR_FORMULA>
C11H16HgN2O6S
> <PUBCHEM_MOLECULAR_WEIGHT>
504.91
> <PUBCHEM_OPENEYE_CAN_SMILES>
C1C(C(OC1N2C=C(C(=O)NC2=O)[Hg+])CO)O.C(C[S-])O
> <PUBCHEM_OPENEYE_ISO_SMILES>
C1[C@@H]([C@H](O[C@H]1N2C=C(C(=O)NC2=O)[Hg+])CO)O.C(C[S-])O
> <PUBCHEM_CACTVS_TPSA>
120
> <PUBCHEM_MONOISOTOPIC_WEIGHT>
506.043551
> <PUBCHEM_TOTAL_CHARGE>
0
> <PUBCHEM_HEAVY_ATOM_COUNT>
21
> <PUBCHEM_ATOM_DEF_STEREO_COUNT>
3
> <PUBCHEM_ATOM_UDEF_STEREO_COUNT>
0
> <PUBCHEM_BOND_DEF_STEREO_COUNT>
0
> <PUBCHEM_BOND_UDEF_STEREO_COUNT>
0
> <PUBCHEM_ISOTOPIC_ATOM_COUNT>
0
> <PUBCHEM_COMPONENT_COUNT>
2
> <PUBCHEM_CACTVS_TAUTO_COUNT>
-1
> <PUBCHEM_COORDINATE_TYPE>
1
5
255
> <PUBCHEM_BONDANNOTATIONS>
10  16  8
10  19  8
13  15  6
17  18  8
18  19  8
11  4  5
14  9  6
9  16  8
9  17  8
$$$$
