511796
  -OEChem-10302200282D
 49 51  0     1  0  0  0  0  0999 V2000
    5.1350   -0.6296    0.0000 O   0  0  0  0  0  0  0  0  0  0  0  0
    6.8671   -0.6296    0.0000 O   0  0  0  0  0  0  0  0  0  0  0  0
    5.1350   -3.6296    0.0000 O   0  0  0  0  0  0  0  0  0  0  0  0
    3.4030   -2.6296    0.0000 O   0  0  0  0  0  0  0  0  0  0  0  0
    6.8671   -2.6296    0.0000 O   0  0  0  0  0  0  0  0  0  0  0  0
    2.5369   -1.1296    0.0000 O   0  0  0  0  0  0  0  0  0  0  0  0
    8.6431    2.3772    0.0000 O   0  0  0  0  0  0  0  0  0  0  0  0
    5.1350    2.3704    0.0000 O   0  0  0  0  0  0  0  0  0  0  0  0
    5.9793    3.9018    0.0000 O   0  0  0  0  0  0  0  0  0  0  0  0
    5.1350   -2.6296    0.0000 C   0  0  1  0  0  0  0  0  0  0  0  0
    4.2690   -2.1296    0.0000 C   0  0  1  0  0  0  0  0  0  0  0  0
    6.0010   -2.1296    0.0000 C   0  0  2  0  0  0  0  0  0  0  0  0
    4.2690   -1.1296    0.0000 C   0  0  1  0  0  0  0  0  0  0  0  0
    6.0010   -1.1296    0.0000 C   0  0  2  0  0  0  0  0  0  0  0  0
    3.4030   -0.6296    0.0000 C   0  0  0  0  0  0  0  0  0  0  0  0
    6.8671    0.3704    0.0000 C   0  0  0  0  0  0  0  0  0  0  0  0
    7.7331    0.8704    0.0000 C   0  0  0  0  0  0  0  0  0  0  0  0
    6.0010    0.8704    0.0000 C   0  0  0  0  0  0  0  0  0  0  0  0
    7.7331    1.8704    0.0000 C   0  0  0  0  0  0  0  0  0  0  0  0
    6.8671    2.3704    0.0000 C   0  0  0  0  0  0  0  0  0  0  0  0
    6.0010    1.8704    0.0000 C   0  0  0  0  0  0  0  0  0  0  0  0
    8.5991    0.3704    0.0000 C   0  0  0  0  0  0  0  0  0  0  0  0
    5.1350    0.3704    0.0000 C   0  0  0  0  0  0  0  0  0  0  0  0
    6.8510    3.4119    0.0000 C   0  0  0  0  0  0  0  0  0  0  0  0
    8.6511    3.4188    0.0000 C   0  0  0  0  0  0  0  0  0  0  0  0
    7.7490    3.9396    0.0000 C   0  0  0  0  0  0  0  0  0  0  0  0
    9.5191    3.9155    0.0000 C   0  0  0  0  0  0  0  0  0  0  0  0
    4.5981   -2.9396    0.0000 H   0  0  0  0  0  0  0  0  0  0  0  0
    4.2690   -2.7496    0.0000 H   0  0  0  0  0  0  0  0  0  0  0  0
    6.0010   -2.7496    0.0000 H   0  0  0  0  0  0  0  0  0  0  0  0
    4.2690   -0.5096    0.0000 H   0  0  0  0  0  0  0  0  0  0  0  0
    6.5380   -1.4396    0.0000 H   0  0  0  0  0  0  0  0  0  0  0  0
    3.8015   -0.1547    0.0000 H   0  0  0  0  0  0  0  0  0  0  0  0
    3.0044   -0.1547    0.0000 H   0  0  0  0  0  0  0  0  0  0  0  0
    4.5981   -3.9396    0.0000 H   0  0  0  0  0  0  0  0  0  0  0  0
    3.4030   -3.2496    0.0000 H   0  0  0  0  0  0  0  0  0  0  0  0
    6.8671   -3.2496    0.0000 H   0  0  0  0  0  0  0  0  0  0  0  0
    2.0000   -0.8196    0.0000 H   0  0  0  0  0  0  0  0  0  0  0  0
    8.2891   -0.1666    0.0000 H   0  0  0  0  0  0  0  0  0  0  0  0
    9.1360    0.0604    0.0000 H   0  0  0  0  0  0  0  0  0  0  0  0
    8.9091    0.9073    0.0000 H   0  0  0  0  0  0  0  0  0  0  0  0
    4.8250    0.9073    0.0000 H   0  0  0  0  0  0  0  0  0  0  0  0
    4.5981    0.0604    0.0000 H   0  0  0  0  0  0  0  0  0  0  0  0
    5.4450   -0.1666    0.0000 H   0  0  0  0  0  0  0  0  0  0  0  0
    7.7466    4.5596    0.0000 H   0  0  0  0  0  0  0  0  0  0  0  0
    4.5981    2.0604    0.0000 H   0  0  0  0  0  0  0  0  0  0  0  0
    9.8270    3.3774    0.0000 H   0  0  0  0  0  0  0  0  0  0  0  0
   10.0572    4.2234    0.0000 H   0  0  0  0  0  0  0  0  0  0  0  0
    9.2111    4.4536    0.0000 H   0  0  0  0  0  0  0  0  0  0  0  0
  1 13  1  0  0  0  0
  1 14  1  0  0  0  0
 14  2  1  6  0  0  0
  2 16  1  0  0  0  0
 10  3  1  1  0  0  0
  3 35  1  0  0  0  0
 11  4  1  6  0  0  0
  4 36  1  0  0  0  0
 12  5  1  6  0  0  0
  5 37  1  0  0  0  0
  6 15  1  0  0  0  0
  6 38  1  0  0  0  0
  7 19  1  0  0  0  0
  7 25  1  0  0  0  0
  8 21  1  0  0  0  0
  8 46  1  0  0  0  0
  9 24  2  0  0  0  0
 10 11  1  0  0  0  0
 10 12  1  0  0  0  0
 10 28  1  0  0  0  0
 11 13  1  0  0  0  0
 11 29  1  0  0  0  0
 12 14  1  0  0  0  0
 12 30  1  0  0  0  0
 13 15  1  1  0  0  0
 13 31  1  0  0  0  0
 14 32  1  0  0  0  0
 15 33  1  0  0  0  0
 15 34  1  0  0  0  0
 16 17  2  0  0  0  0
 16 18  1  0  0  0  0
 17 19  1  0  0  0  0
 17 22  1  0  0  0  0
 18 21  2  0  0  0  0
 18 23  1  0  0  0  0
 19 20  2  0  0  0  0
 20 21  1  0  0  0  0
 20 24  1  0  0  0  0
 22 39  1  0  0  0  0
 22 40  1  0  0  0  0
 22 41  1  0  0  0  0
 23 42  1  0  0  0  0
 23 43  1  0  0  0  0
 23 44  1  0  0  0  0
 24 26  1  0  0  0  0
 25 26  2  0  0  0  0
 25 27  1  0  0  0  0
 26 45  1  0  0  0  0
 27 47  1  0  0  0  0
 27 48  1  0  0  0  0
 27 49  1  0  0  0  0
M  END
> <PUBCHEM_COMPOUND_CID>
511796
> <PUBCHEM_COMPOUND_CANONICALIZED>
1
> <PUBCHEM_CACTVS_COMPLEXITY>
593
> <PUBCHEM_CACTVS_HBOND_ACCEPTOR>
9
> <PUBCHEM_CACTVS_HBOND_DONOR>
5
> <PUBCHEM_CACTVS_ROTATABLE_BOND>
3
> <PUBCHEM_CACTVS_SUBSKEYS>
AAADceB4PAAAAAAAAAAAAAAAAAAAAAAAAAA0QIAAAAAAAACBAAAAGgAACAAADBSwmAMCDoAABgCIAqBSAAACCAAkIAAAiAEECMgdNzaGNRqieWCl4BUPuQfI7OzOIAACCAAIAABAAAQQABAAAAAAAAAAAA==
> <PUBCHEM_IUPAC_OPENEYE_NAME>
5-hydroxy-2,6,8-trimethyl-7-[(2R,3R,4S,5S,6R)-3,4,5-trihydroxy-6-(hydroxymethyl)tetrahydropyran-2-yl]oxy-chromen-4-one
> <PUBCHEM_IUPAC_CAS_NAME>
5-hydroxy-2,6,8-trimethyl-7-[[(2R,3R,4S,5S,6R)-3,4,5-trihydroxy-6-(hydroxymethyl)-2-oxanyl]oxy]-1-benzopyran-4-one
> <PUBCHEM_IUPAC_NAME_MARKUP>
5-hydroxy-2,6,8-trimethyl-7-[(2<I>R</I>,3<I>R</I>,4<I>S</I>,5<I>S</I>,6<I>R</I>)-3,4,5-trihydroxy-6-(hydroxymethyl)oxan-2-yl]oxychromen-4-one
> <PUBCHEM_IUPAC_NAME>
5-hydroxy-2,6,8-trimethyl-7-[(2R,3R,4S,5S,6R)-3,4,5-trihydroxy-6-(hydroxymethyl)oxan-2-yl]oxychromen-4-one
> <PUBCHEM_IUPAC_SYSTEMATIC_NAME>
7-[(2R,3R,4S,5S,6R)-6-(hydroxymethyl)-3,4,5-tris(oxidanyl)oxan-2-yl]oxy-2,6,8-trimethyl-5-oxidanyl-chromen-4-one
> <PUBCHEM_IUPAC_TRADITIONAL_NAME>
5-hydroxy-2,6,8-trimethyl-7-[(2R,3R,4S,5S,6R)-3,4,5-trihydroxy-6-methylol-tetrahydropyran-2-yl]oxy-chromone
> <PUBCHEM_IUPAC_INCHI>
InChI=1S/C18H22O9/c1-6-4-9(20)11-12(21)7(2)16(8(3)17(11)25-6)27-18-15(24)14(23)13(22)10(5-19)26-18/h4,10,13-15,18-19,21-24H,5H2,1-3H3/t10-,13-,14+,15-,18-/m1/s1
> <PUBCHEM_IUPAC_INCHIKEY>
SYRSLDAOMRWYGP-FRRILYKYSA-N
> <PUBCHEM_XLOGP3_AA>
0.7
> <PUBCHEM_EXACT_MASS>
382.12638228
> <PUBCHEM_MOLECULAR_FORMULA>
C18H22O9
> <PUBCHEM_MOLECULAR_WEIGHT>
382.4
> <PUBCHEM_OPENEYE_CAN_SMILES>
CC1=CC(=O)C2=C(O1)C(=C(C(=C2O)C)OC3C(C(C(C(O3)CO)O)O)O)C
> <PUBCHEM_OPENEYE_ISO_SMILES>
CC1=CC(=O)C2=C(O1)C(=C(C(=C2O)C)O[C@@H]3[C@@H]([C@H]([C@@H]([C@H](O3)CO)O)O)O)C
> <PUBCHEM_CACTVS_TPSA>
146
> <PUBCHEM_MONOISOTOPIC_WEIGHT>
382.12638228
> <PUBCHEM_TOTAL_CHARGE>
0
> <PUBCHEM_HEAVY_ATOM_COUNT>
27
> <PUBCHEM_ATOM_DEF_STEREO_COUNT>
5
> <PUBCHEM_ATOM_UDEF_STEREO_COUNT>
0
> <PUBCHEM_BOND_DEF_STEREO_COUNT>
0
> <PUBCHEM_BOND_UDEF_STEREO_COUNT>
0
> <PUBCHEM_ISOTOPIC_ATOM_COUNT>
0
> <PUBCHEM_COMPONENT_COUNT>
1
> <PUBCHEM_CACTVS_TAUTO_COUNT>
-1
> <PUBCHEM_COORDINATE_TYPE>
1
5
255
> <PUBCHEM_BONDANNOTATIONS>
13  15  5
16  17  8
16  18  8
17  19  8
18  21  8
19  20  8
14  2  6
20  21  8
20  24  8
24  26  8
25  26  8
10  3  5
11  4  6
12  5  6
7  19  8
7  25  8
$$$$
