511788
  -OEChem-10302200282D
 45 47  0     1  0  0  0  0  0999 V2000
    7.5836   -1.7233    0.0000 O   0  0  0  0  0  0  0  0  0  0  0  0
    5.0000   -0.9186    0.0000 O   0  0  0  0  0  0  0  0  0  0  0  0
    7.2730    0.8367    0.0000 O   0  0  0  0  0  0  0  0  0  0  0  0
    9.3798    1.1229    0.0000 O   0  0  0  0  0  0  0  0  0  0  0  0
    5.0000   -2.6506    0.0000 O   0  0  0  0  0  0  0  0  0  0  0  0
   10.2740    2.6506    0.0000 O   0  0  0  0  0  0  0  0  0  0  0  0
    7.0000   -0.9186    0.0000 C   0  0  2  0  0  0  0  0  0  0  0  0
    6.0000   -0.9186    0.0000 C   0  0  0  0  0  0  0  0  0  0  0  0
    7.5836   -0.1139    0.0000 C   0  0  1  0  0  0  0  0  0  0  0  0
    8.5298   -0.4186    0.0000 C   0  0  0  0  0  0  0  0  0  0  0  0
    8.5298   -1.4186    0.0000 C   0  0  0  0  0  0  0  0  0  0  0  0
    6.0000   -1.9186    0.0000 C   0  0  0  0  0  0  0  0  0  0  0  0
    6.0000    0.0814    0.0000 C   0  0  0  0  0  0  0  0  0  0  0  0
    9.3958    0.0814    0.0000 C   0  0  0  0  0  0  0  0  0  0  0  0
    9.3958   -1.9186    0.0000 C   0  0  0  0  0  0  0  0  0  0  0  0
   10.2619   -0.4186    0.0000 C   0  0  0  0  0  0  0  0  0  0  0  0
   10.2619   -1.4186    0.0000 C   0  0  0  0  0  0  0  0  0  0  0  0
    4.5000   -1.7846    0.0000 C   0  0  0  0  0  0  0  0  0  0  0  0
   11.1719    0.0882    0.0000 C   0  0  0  0  0  0  0  0  0  0  0  0
   10.2778    1.6507    0.0000 C   0  0  0  0  0  0  0  0  0  0  0  0
   11.1799    1.1298    0.0000 C   0  0  0  0  0  0  0  0  0  0  0  0
    3.5000   -1.7846    0.0000 C   0  0  0  0  0  0  0  0  0  0  0  0
    3.0000   -0.9186    0.0000 C   0  0  0  0  0  0  0  0  0  0  0  0
    3.0000   -2.6506    0.0000 C   0  0  0  0  0  0  0  0  0  0  0  0
    2.0000   -2.6506    0.0000 C   0  0  0  0  0  0  0  0  0  0  0  0
    6.6138   -1.6758    0.0000 H   0  0  0  0  0  0  0  0  0  0  0  0
    6.9711   -0.0177    0.0000 H   0  0  0  0  0  0  0  0  0  0  0  0
    5.3800   -1.9186    0.0000 H   0  0  0  0  0  0  0  0  0  0  0  0
    6.0000   -2.5386    0.0000 H   0  0  0  0  0  0  0  0  0  0  0  0
    6.6200   -1.9186    0.0000 H   0  0  0  0  0  0  0  0  0  0  0  0
    6.6200    0.0814    0.0000 H   0  0  0  0  0  0  0  0  0  0  0  0
    6.0000    0.7014    0.0000 H   0  0  0  0  0  0  0  0  0  0  0  0
    5.3800    0.0814    0.0000 H   0  0  0  0  0  0  0  0  0  0  0  0
    9.3958   -2.5386    0.0000 H   0  0  0  0  0  0  0  0  0  0  0  0
    7.6870    1.2981    0.0000 H   0  0  0  0  0  0  0  0  0  0  0  0
   10.7988   -1.7286    0.0000 H   0  0  0  0  0  0  0  0  0  0  0  0
   11.7052   -0.2279    0.0000 H   0  0  0  0  0  0  0  0  0  0  0  0
   11.7180    1.4378    0.0000 H   0  0  0  0  0  0  0  0  0  0  0  0
    3.5369   -0.6086    0.0000 H   0  0  0  0  0  0  0  0  0  0  0  0
    2.6900   -0.3817    0.0000 H   0  0  0  0  0  0  0  0  0  0  0  0
    2.4631   -1.2286    0.0000 H   0  0  0  0  0  0  0  0  0  0  0  0
    3.3100   -3.1876    0.0000 H   0  0  0  0  0  0  0  0  0  0  0  0
    2.0000   -2.0306    0.0000 H   0  0  0  0  0  0  0  0  0  0  0  0
    1.3800   -2.6506    0.0000 H   0  0  0  0  0  0  0  0  0  0  0  0
    2.0000   -3.2706    0.0000 H   0  0  0  0  0  0  0  0  0  0  0  0
  1  7  1  0  0  0  0
  1 11  1  0  0  0  0
  2  8  1  0  0  0  0
  2 18  1  0  0  0  0
  9  3  1  6  0  0  0
  3 35  1  0  0  0  0
  4 14  1  0  0  0  0
  4 20  1  0  0  0  0
  5 18  2  0  0  0  0
  6 20  2  0  0  0  0
  7  8  1  0  0  0  0
  7  9  1  0  0  0  0
  7 26  1  1  0  0  0
  8 12  1  0  0  0  0
  8 13  1  0  0  0  0
  9 10  1  0  0  0  0
  9 27  1  0  0  0  0
 10 11  2  0  0  0  0
 10 14  1  0  0  0  0
 11 15  1  0  0  0  0
 12 28  1  0  0  0  0
 12 29  1  0  0  0  0
 12 30  1  0  0  0  0
 13 31  1  0  0  0  0
 13 32  1  0  0  0  0
 13 33  1  0  0  0  0
 14 16  2  0  0  0  0
 15 17  2  0  0  0  0
 15 34  1  0  0  0  0
 16 17  1  0  0  0  0
 16 19  1  0  0  0  0
 17 36  1  0  0  0  0
 18 22  1  0  0  0  0
 19 21  2  0  0  0  0
 19 37  1  0  0  0  0
 20 21  1  0  0  0  0
 21 38  1  0  0  0  0
 22 23  1  0  0  0  0
 22 24  2  3  0  0  0
 23 39  1  0  0  0  0
 23 40  1  0  0  0  0
 23 41  1  0  0  0  0
 24 25  1  0  0  0  0
 24 42  1  0  0  0  0
 25 43  1  0  0  0  0
 25 44  1  0  0  0  0
 25 45  1  0  0  0  0
M  END
> <PUBCHEM_COMPOUND_CID>
511788
> <PUBCHEM_COMPOUND_CANONICALIZED>
1
> <PUBCHEM_CACTVS_COMPLEXITY>
619
> <PUBCHEM_CACTVS_HBOND_ACCEPTOR>
6
> <PUBCHEM_CACTVS_HBOND_DONOR>
1
> <PUBCHEM_CACTVS_ROTATABLE_BOND>
4
> <PUBCHEM_CACTVS_SUBSKEYS>
AAADceB4OAAAAAAAAAAAAAAAAAAAASAAAAAwQAAAAAAAAEiBAAAAGgAACAAADFSgmAIyDoAABgCIAiDSCAACCAAgIAAIiAEGCMgNNyKEMRqCeiClwBULuYfA4PwOIAACCAAIAABAAAQQABAAAAAAAAAAAA==
> <PUBCHEM_IUPAC_OPENEYE_NAME>
[1-[(8S,9R)-9-hydroxy-2-oxo-8,9-dihydrofuro[2,3-h]chromen-8-yl]-1-methyl-ethyl] 2-methylbut-2-enoate
> <PUBCHEM_IUPAC_CAS_NAME>
2-methyl-2-butenoic acid 2-[(8S,9R)-9-hydroxy-2-oxo-8,9-dihydrofuro[2,3-h][1]benzopyran-8-yl]propan-2-yl ester
> <PUBCHEM_IUPAC_NAME_MARKUP>
2-[(8<I>S</I>,9<I>R</I>)-9-hydroxy-2-oxo-8,9-dihydrofuro[2,3-h]chromen-8-yl]propan-2-yl 2-methylbut-2-enoate
> <PUBCHEM_IUPAC_NAME>
2-[(8S,9R)-9-hydroxy-2-oxo-8,9-dihydrofuro[2,3-h]chromen-8-yl]propan-2-yl 2-methylbut-2-enoate
> <PUBCHEM_IUPAC_SYSTEMATIC_NAME>
2-[(8S,9R)-9-oxidanyl-2-oxidanylidene-8,9-dihydrofuro[2,3-h]chromen-8-yl]propan-2-yl 2-methylbut-2-enoate
> <PUBCHEM_IUPAC_TRADITIONAL_NAME>
2-methylbut-2-enoic acid [1-[(8S,9R)-9-hydroxy-2-keto-8,9-dihydrofuro[2,3-h]chromen-8-yl]-1-methyl-ethyl] ester
> <PUBCHEM_IUPAC_INCHI>
InChI=1S/C19H20O6/c1-5-10(2)18(22)25-19(3,4)17-15(21)14-12(23-17)8-6-11-7-9-13(20)24-16(11)14/h5-9,15,17,21H,1-4H3/t15-,17+/m1/s1
> <PUBCHEM_IUPAC_INCHIKEY>
GZAQAICYIHWIAX-WBVHZDCISA-N
> <PUBCHEM_XLOGP3_AA>
2.6
> <PUBCHEM_EXACT_MASS>
344.12598835
> <PUBCHEM_MOLECULAR_FORMULA>
C19H20O6
> <PUBCHEM_MOLECULAR_WEIGHT>
344.4
> <PUBCHEM_OPENEYE_CAN_SMILES>
CC=C(C)C(=O)OC(C)(C)C1C(C2=C(O1)C=CC3=C2OC(=O)C=C3)O
> <PUBCHEM_OPENEYE_ISO_SMILES>
CC=C(C)C(=O)OC(C)(C)[C@@H]1[C@@H](C2=C(O1)C=CC3=C2OC(=O)C=C3)O
> <PUBCHEM_CACTVS_TPSA>
82.1
> <PUBCHEM_MONOISOTOPIC_WEIGHT>
344.12598835
> <PUBCHEM_TOTAL_CHARGE>
0
> <PUBCHEM_HEAVY_ATOM_COUNT>
25
> <PUBCHEM_ATOM_DEF_STEREO_COUNT>
2
> <PUBCHEM_ATOM_UDEF_STEREO_COUNT>
0
> <PUBCHEM_BOND_DEF_STEREO_COUNT>
0
> <PUBCHEM_BOND_UDEF_STEREO_COUNT>
1
> <PUBCHEM_ISOTOPIC_ATOM_COUNT>
0
> <PUBCHEM_COMPONENT_COUNT>
1
> <PUBCHEM_CACTVS_TAUTO_COUNT>
-1
> <PUBCHEM_COORDINATE_TYPE>
1
5
255
> <PUBCHEM_BONDANNOTATIONS>
10  11  8
10  14  8
11  15  8
14  16  8
15  17  8
16  17  8
16  19  8
19  21  8
20  21  8
22  24  1
9  3  6
4  14  8
4  20  8
7  26  5
$$$$
