511716
  -OEChem-10302200282D
 45 45  0     1  0  0  0  0  0999 V2000
    6.5380    5.9438    0.0000 Hg  0  3  0  0  0  0  0  0  0  0  0  0
    0.5369    3.0856    0.0000 S   0  0  0  0  0  0  0  0  0  0  0  0
    4.0010    5.0856    0.0000 S   0  5  0  0  0  0  0  0  0  0  0  0
    9.0790    2.3561    0.0000 O   0  0  0  0  0  0  0  0  0  0  0  0
    7.1822    0.5960    0.0000 O   0  0  0  0  0  0  0  0  0  0  0  0
   10.3523    0.7005    0.0000 O   0  0  0  0  0  0  0  0  0  0  0  0
   10.0021    3.9438    0.0000 O   0  0  0  0  0  0  0  0  0  0  0  0
    8.2700    6.9438    0.0000 O   0  0  0  0  0  0  0  0  0  0  0  0
    2.2690    2.0856    0.0000 O   0  0  0  0  0  0  0  0  0  0  0  0
    4.0010    3.0856    0.0000 O   0  0  0  0  0  0  0  0  0  0  0  0
    8.2700    3.9438    0.0000 N   0  0  0  0  0  0  0  0  0  0  0  0
    9.1360    5.4438    0.0000 N   0  0  0  0  0  0  0  0  0  0  0  0
    7.7700    1.4050    0.0000 C   0  0  1  0  0  0  0  0  0  0  0  0
    7.4610    2.3561    0.0000 C   0  0  0  0  0  0  0  0  0  0  0  0
    8.7700    1.4050    0.0000 C   0  0  1  0  0  0  0  0  0  0  0  0
    8.2700    2.9438    0.0000 C   0  0  1  0  0  0  0  0  0  0  0  0
    9.3578    0.5960    0.0000 C   0  0  0  0  0  0  0  0  0  0  0  0
    9.1360    4.4438    0.0000 C   0  0  0  0  0  0  0  0  0  0  0  0
    7.4040    4.4438    0.0000 C   0  0  0  0  0  0  0  0  0  0  0  0
    7.4040    5.4438    0.0000 C   0  0  0  0  0  0  0  0  0  0  0  0
    8.2700    5.9438    0.0000 C   0  0  0  0  0  0  0  0  0  0  0  0
    2.2690    3.0856    0.0000 C   0  0  1  0  0  0  0  0  0  0  0  0
    3.1350    3.5856    0.0000 C   0  0  1  0  0  0  0  0  0  0  0  0
    1.4030    3.5856    0.0000 C   0  0  0  0  0  0  0  0  0  0  0  0
    3.1350    4.5856    0.0000 C   0  0  0  0  0  0  0  0  0  0  0  0
    8.0515    0.8526    0.0000 H   0  0  0  0  0  0  0  0  0  0  0  0
    7.1510    2.8930    0.0000 H   0  0  0  0  0  0  0  0  0  0  0  0
    6.8946    2.1039    0.0000 H   0  0  0  0  0  0  0  0  0  0  0  0
    9.3824    1.5020    0.0000 H   0  0  0  0  0  0  0  0  0  0  0  0
    8.8224    3.2253    0.0000 H   0  0  0  0  0  0  0  0  0  0  0  0
    8.8006    0.3242    0.0000 H   0  0  0  0  0  0  0  0  0  0  0  0
    9.5287    0.0000    0.0000 H   0  0  0  0  0  0  0  0  0  0  0  0
    6.5656    0.6608    0.0000 H   0  0  0  0  0  0  0  0  0  0  0  0
    6.8671    4.1338    0.0000 H   0  0  0  0  0  0  0  0  0  0  0  0
   10.7168    0.1989    0.0000 H   0  0  0  0  0  0  0  0  0  0  0  0
    9.6730    5.7538    0.0000 H   0  0  0  0  0  0  0  0  0  0  0  0
    1.7320    2.7756    0.0000 H   0  0  0  0  0  0  0  0  0  0  0  0
    3.6720    3.8956    0.0000 H   0  0  0  0  0  0  0  0  0  0  0  0
    1.8015    4.0606    0.0000 H   0  0  0  0  0  0  0  0  0  0  0  0
    1.0044    4.0606    0.0000 H   0  0  0  0  0  0  0  0  0  0  0  0
    2.9230    5.1682    0.0000 H   0  0  0  0  0  0  0  0  0  0  0  0
    2.5244    4.4780    0.0000 H   0  0  0  0  0  0  0  0  0  0  0  0
    1.7320    1.7756    0.0000 H   0  0  0  0  0  0  0  0  0  0  0  0
    4.5380    3.3956    0.0000 H   0  0  0  0  0  0  0  0  0  0  0  0
    0.0000    3.3956    0.0000 H   0  0  0  0  0  0  0  0  0  0  0  0
  1 20  1  0  0  0  0
  2 24  1  0  0  0  0
  2 45  1  0  0  0  0
  3 25  1  0  0  0  0
  4 15  1  0  0  0  0
  4 16  1  0  0  0  0
 13  5  1  1  0  0  0
  5 33  1  0  0  0  0
  6 17  1  0  0  0  0
  6 35  1  0  0  0  0
  7 18  2  0  0  0  0
  8 21  2  0  0  0  0
 22  9  1  6  0  0  0
  9 43  1  0  0  0  0
 23 10  1  1  0  0  0
 10 44  1  0  0  0  0
 16 11  1  6  0  0  0
 11 18  1  0  0  0  0
 11 19  1  0  0  0  0
 12 18  1  0  0  0  0
 12 21  1  0  0  0  0
 12 36  1  0  0  0  0
 13 14  1  0  0  0  0
 13 15  1  0  0  0  0
 13 26  1  0  0  0  0
 14 16  1  0  0  0  0
 14 27  1  0  0  0  0
 14 28  1  0  0  0  0
 15 17  1  6  0  0  0
 15 29  1  0  0  0  0
 16 30  1  0  0  0  0
 17 31  1  0  0  0  0
 17 32  1  0  0  0  0
 19 20  2  0  0  0  0
 19 34  1  0  0  0  0
 20 21  1  0  0  0  0
 22 23  1  0  0  0  0
 22 24  1  0  0  0  0
 22 37  1  0  0  0  0
 23 25  1  0  0  0  0
 23 38  1  0  0  0  0
 24 39  1  0  0  0  0
 24 40  1  0  0  0  0
 25 41  1  0  0  0  0
 25 42  1  0  0  0  0
M  CHG  2   1   1   3  -1
M  END
> <PUBCHEM_COMPOUND_CID>
511716
> <PUBCHEM_COMPOUND_CANONICALIZED>
1
> <PUBCHEM_CACTVS_COMPLEXITY>
446
> <PUBCHEM_CACTVS_HBOND_ACCEPTOR>
9
> <PUBCHEM_CACTVS_HBOND_DONOR>
6
> <PUBCHEM_CACTVS_ROTATABLE_BOND>
5
> <PUBCHEM_CACTVS_SUBSKEYS>
AAADceBzOABgAAAAAAAAAQAAAAAAASAAAAAgAAAAAAAAAAAAAAAAHgQQCAAACBTlwAaBAAPABgSIAAFWUACAAAAAAAAAAAAIAECBEAIAgAAOQAAPByIDAMCwMAIAAAAAAAAAAAAAAAAAAAAAAAAAAAAAAA==
> <PUBCHEM_IUPAC_OPENEYE_NAME>
(2S,3S)-2,3-dihydroxy-4-sulfanyl-butane-1-thiolate;[1-[(2R,4S,5R)-4-hydroxy-5-(hydroxymethyl)tetrahydrofuran-2-yl]-2,4-dioxo-pyrimidin-5-yl]mercury(1+)
> <PUBCHEM_IUPAC_CAS_NAME>
(2S,3S)-2,3-dihydroxy-4-mercapto-1-butanethiolate;[1-[(2R,4S,5R)-4-hydroxy-5-(hydroxymethyl)-2-oxolanyl]-2,4-dioxo-5-pyrimidinyl]mercury(1+)
> <PUBCHEM_IUPAC_NAME_MARKUP>
(2<I>S</I>,3<I>S</I>)-2,3-dihydroxy-4-sulfanylbutane-1-thiolate;[1-[(2<I>R</I>,4<I>S</I>,5<I>R</I>)-4-hydroxy-5-(hydroxymethyl)oxolan-2-yl]-2,4-dioxopyrimidin-5-yl]mercury(1+)
> <PUBCHEM_IUPAC_NAME>
(2S,3S)-2,3-dihydroxy-4-sulfanylbutane-1-thiolate;[1-[(2R,4S,5R)-4-hydroxy-5-(hydroxymethyl)oxolan-2-yl]-2,4-dioxopyrimidin-5-yl]mercury(1+)
> <PUBCHEM_IUPAC_SYSTEMATIC_NAME>
(2S,3S)-2,3-bis(oxidanyl)-4-sulfanyl-butane-1-thiolate;[1-[(2R,4S,5R)-5-(hydroxymethyl)-4-oxidanyl-oxolan-2-yl]-2,4-bis(oxidanylidene)pyrimidin-5-yl]mercury(1+)
> <PUBCHEM_IUPAC_TRADITIONAL_NAME>
(2S,3S)-2,3-dihydroxy-4-mercapto-butane-1-thiolate;[1-[(2R,4S,5R)-4-hydroxy-5-methylol-tetrahydrofuran-2-yl]-2,4-diketo-pyrimidin-5-yl]mercury(1+)
> <PUBCHEM_IUPAC_INCHI>
InChI=1S/C9H11N2O5.C4H10O2S2.Hg/c12-4-6-5(13)3-8(16-6)11-2-1-7(14)10-9(11)15;5-3(1-7)4(6)2-8;/h2,5-6,8,12-13H,3-4H2,(H,10,14,15);3-8H,1-2H2;/q;;+1/p-1/t5-,6+,8+;3-,4-;/m01./s1
> <PUBCHEM_IUPAC_INCHIKEY>
ZBSISPSNUDELKN-GMAXWBSKSA-M
> <PUBCHEM_EXACT_MASS>
582.041837
> <PUBCHEM_MOLECULAR_FORMULA>
C13H20HgN2O7S2
> <PUBCHEM_MOLECULAR_WEIGHT>
581.0
> <PUBCHEM_OPENEYE_CAN_SMILES>
C1C(C(OC1N2C=C(C(=O)NC2=O)[Hg+])CO)O.C(C(C(C[S-])O)O)S
> <PUBCHEM_OPENEYE_ISO_SMILES>
C1[C@@H]([C@H](O[C@H]1N2C=C(C(=O)NC2=O)[Hg+])CO)O.C([C@H]([C@@H](C[S-])O)O)S
> <PUBCHEM_CACTVS_TPSA>
142
> <PUBCHEM_MONOISOTOPIC_WEIGHT>
582.041837
> <PUBCHEM_TOTAL_CHARGE>
0
> <PUBCHEM_HEAVY_ATOM_COUNT>
25
> <PUBCHEM_ATOM_DEF_STEREO_COUNT>
5
> <PUBCHEM_ATOM_UDEF_STEREO_COUNT>
0
> <PUBCHEM_BOND_DEF_STEREO_COUNT>
0
> <PUBCHEM_BOND_UDEF_STEREO_COUNT>
0
> <PUBCHEM_ISOTOPIC_ATOM_COUNT>
0
> <PUBCHEM_COMPONENT_COUNT>
2
> <PUBCHEM_CACTVS_TAUTO_COUNT>
-1
> <PUBCHEM_COORDINATE_TYPE>
1
5
255
> <PUBCHEM_BONDANNOTATIONS>
23  10  5
16  11  6
11  18  8
11  19  8
12  18  8
12  21  8
15  17  6
19  20  8
20  21  8
13  5  5
22  9  6
$$$$
