511744
  -OEChem-10302200282D
 33 34  0     1  0  0  0  0  0999 V2000
    6.8335    0.0293    0.0000 S   0  0  0  0  0  0  0  0  0  0  0  0
    8.7905    0.4418    0.0000 O   0  0  0  0  0  0  0  0  0  0  0  0
    9.4118    2.3428    0.0000 O   0  0  0  0  0  0  0  0  0  0  0  0
    4.5981   -1.4321    0.0000 N   0  0  0  0  0  0  0  0  0  0  0  0
    5.5443   -2.7369    0.0000 N   0  0  0  0  0  0  0  0  0  0  0  0
    5.5443   -1.1274    0.0000 C   0  0  0  0  0  0  0  0  0  0  0  0
    5.8550   -0.1769    0.0000 C   0  0  0  0  0  0  0  0  0  0  0  0
    4.5981   -2.4321    0.0000 C   0  0  0  0  0  0  0  0  0  0  0  0
    7.1441    0.9799    0.0000 C   0  0  0  0  0  0  0  0  0  0  0  0
    8.1226    1.1861    0.0000 C   0  0  3  0  0  0  0  0  0  0  0  0
    3.7320   -0.9321    0.0000 C   0  0  0  0  0  0  0  0  0  0  0  0
    6.1279   -1.9321    0.0000 C   0  0  0  0  0  0  0  0  0  0  0  0
    3.7320   -2.9321    0.0000 C   0  0  0  0  0  0  0  0  0  0  0  0
    2.8660   -2.4321    0.0000 C   0  0  0  0  0  0  0  0  0  0  0  0
    2.8660   -1.4321    0.0000 C   0  0  0  0  0  0  0  0  0  0  0  0
    8.4333    2.1366    0.0000 C   0  0  0  0  0  0  0  0  0  0  0  0
    2.0000   -2.9321    0.0000 C   0  0  0  0  0  0  0  0  0  0  0  0
    5.8344    0.4428    0.0000 H   0  0  0  0  0  0  0  0  0  0  0  0
    5.2411   -0.0895    0.0000 H   0  0  0  0  0  0  0  0  0  0  0  0
    7.9300    0.5968    0.0000 H   0  0  0  0  0  0  0  0  0  0  0  0
    7.1236    1.5995    0.0000 H   0  0  0  0  0  0  0  0  0  0  0  0
    6.5303    1.0672    0.0000 H   0  0  0  0  0  0  0  0  0  0  0  0
    3.7320   -0.3121    0.0000 H   0  0  0  0  0  0  0  0  0  0  0  0
    6.7479   -1.9321    0.0000 H   0  0  0  0  0  0  0  0  0  0  0  0
    3.7320   -3.5521    0.0000 H   0  0  0  0  0  0  0  0  0  0  0  0
    2.3291   -1.1221    0.0000 H   0  0  0  0  0  0  0  0  0  0  0  0
    8.4127    2.7562    0.0000 H   0  0  0  0  0  0  0  0  0  0  0  0
    7.8195    2.2239    0.0000 H   0  0  0  0  0  0  0  0  0  0  0  0
    1.6900   -2.3952    0.0000 H   0  0  0  0  0  0  0  0  0  0  0  0
    1.4631   -3.2421    0.0000 H   0  0  0  0  0  0  0  0  0  0  0  0
    2.3100   -3.4691    0.0000 H   0  0  0  0  0  0  0  0  0  0  0  0
    9.3972    0.5696    0.0000 H   0  0  0  0  0  0  0  0  0  0  0  0
    9.6044    2.9321    0.0000 H   0  0  0  0  0  0  0  0  0  0  0  0
  1  7  1  0  0  0  0
  1  9  1  0  0  0  0
  2 10  1  0  0  0  0
  2 32  1  0  0  0  0
  3 16  1  0  0  0  0
  3 33  1  0  0  0  0
  4  6  1  0  0  0  0
  4  8  1  0  0  0  0
  4 11  1  0  0  0  0
  5  8  2  0  0  0  0
  5 12  1  0  0  0  0
  6  7  1  0  0  0  0
  6 12  2  0  0  0  0
  7 18  1  0  0  0  0
  7 19  1  0  0  0  0
  8 13  1  0  0  0  0
  9 10  1  0  0  0  0
  9 21  1  0  0  0  0
  9 22  1  0  0  0  0
 10 16  1  0  0  0  0
 10 20  1  0  0  0  0
 11 15  2  0  0  0  0
 11 23  1  0  0  0  0
 12 24  1  0  0  0  0
 13 14  2  0  0  0  0
 13 25  1  0  0  0  0
 14 15  1  0  0  0  0
 14 17  1  0  0  0  0
 15 26  1  0  0  0  0
 16 27  1  0  0  0  0
 16 28  1  0  0  0  0
 17 29  1  0  0  0  0
 17 30  1  0  0  0  0
 17 31  1  0  0  0  0
M  END
> <PUBCHEM_COMPOUND_CID>
511744
> <PUBCHEM_COMPOUND_CANONICALIZED>
1
> <PUBCHEM_CACTVS_COMPLEXITY>
243
> <PUBCHEM_CACTVS_HBOND_ACCEPTOR>
4
> <PUBCHEM_CACTVS_HBOND_DONOR>
2
> <PUBCHEM_CACTVS_ROTATABLE_BOND>
5
> <PUBCHEM_CACTVS_SUBSKEYS>
AAADceBzMABAAAAAAAAAAAAAAAAAAWAAAAAsAAAAAAAAAFgB4AAAHgQACAAADBzl3wa/sJ8MGgigAzZnZACCgC0xErAJ2CA4dJiJeGLgmZGUYAhogALpyCYQAAAKAAAAAAAAAAAAAAAAAAAAAAAAAAAAAA==
> <PUBCHEM_IUPAC_OPENEYE_NAME>
3-[(7-methylimidazo[1,2-a]pyridin-3-yl)methylsulfanyl]propane-1,2-diol
> <PUBCHEM_IUPAC_CAS_NAME>
3-[(7-methyl-3-imidazo[1,2-a]pyridinyl)methylthio]propane-1,2-diol
> <PUBCHEM_IUPAC_NAME_MARKUP>
3-[(7-methylimidazo[1,2-a]pyridin-3-yl)methylsulfanyl]propane-1,2-diol
> <PUBCHEM_IUPAC_NAME>
3-[(7-methylimidazo[1,2-a]pyridin-3-yl)methylsulfanyl]propane-1,2-diol
> <PUBCHEM_IUPAC_SYSTEMATIC_NAME>
3-[(7-methylimidazo[1,2-a]pyridin-3-yl)methylsulfanyl]propane-1,2-diol
> <PUBCHEM_IUPAC_TRADITIONAL_NAME>
3-[(7-methylimidazo[1,2-a]pyridin-3-yl)methylthio]propane-1,2-diol
> <PUBCHEM_IUPAC_INCHI>
InChI=1S/C12H16N2O2S/c1-9-2-3-14-10(5-13-12(14)4-9)7-17-8-11(16)6-15/h2-5,11,15-16H,6-8H2,1H3
> <PUBCHEM_IUPAC_INCHIKEY>
WPNZKKCBKOAMMT-UHFFFAOYSA-N
> <PUBCHEM_XLOGP3_AA>
1.3
> <PUBCHEM_EXACT_MASS>
252.09324893
> <PUBCHEM_MOLECULAR_FORMULA>
C12H16N2O2S
> <PUBCHEM_MOLECULAR_WEIGHT>
252.33
> <PUBCHEM_OPENEYE_CAN_SMILES>
CC1=CC2=NC=C(N2C=C1)CSCC(CO)O
> <PUBCHEM_OPENEYE_ISO_SMILES>
CC1=CC2=NC=C(N2C=C1)CSCC(CO)O
> <PUBCHEM_CACTVS_TPSA>
83.1
> <PUBCHEM_MONOISOTOPIC_WEIGHT>
252.09324893
> <PUBCHEM_TOTAL_CHARGE>
0
> <PUBCHEM_HEAVY_ATOM_COUNT>
17
> <PUBCHEM_ATOM_DEF_STEREO_COUNT>
0
> <PUBCHEM_ATOM_UDEF_STEREO_COUNT>
1
> <PUBCHEM_BOND_DEF_STEREO_COUNT>
0
> <PUBCHEM_BOND_UDEF_STEREO_COUNT>
0
> <PUBCHEM_ISOTOPIC_ATOM_COUNT>
0
> <PUBCHEM_COMPONENT_COUNT>
1
> <PUBCHEM_CACTVS_TAUTO_COUNT>
-1
> <PUBCHEM_COORDINATE_TYPE>
1
5
255
> <PUBCHEM_BONDANNOTATIONS>
11  15  8
13  14  8
14  15  8
10  2  3
4  11  8
4  6  8
4  8  8
5  12  8
5  8  8
6  12  8
8  13  8
$$$$
