511811
  -OEChem-10302200282D
 38 41  0     1  0  0  0  0  0999 V2000
    4.4820    1.4985    0.0000 N   0  0  0  0  0  0  0  0  0  0  0  0
    3.6730   -0.0893    0.0000 C   0  0  0  0  0  0  0  0  0  0  0  0
    4.5092   -1.5376    0.0000 C   0  0  0  0  0  0  0  0  0  0  0  0
    2.8368   -1.5376    0.0000 C   0  0  0  0  0  0  0  0  0  0  0  0
    2.9819   -1.9727    0.0000 C   0  0  0  0  0  0  0  0  0  0  0  0
    4.5092   -0.5721    0.0000 C   0  0  0  0  0  0  0  0  0  0  0  0
    2.8368   -0.5721    0.0000 C   0  0  0  0  0  0  0  0  0  0  0  0
    2.9819   -0.9274    0.0000 C   0  0  0  0  0  0  0  0  0  0  0  0
    3.6730   -1.8404    0.0000 C   0  0  0  0  0  0  0  0  0  0  0  0
    3.8876   -2.4495    0.0000 C   0  0  0  0  0  0  0  0  0  0  0  0
    2.0000   -2.0204    0.0000 C   0  0  0  0  0  0  0  0  0  0  0  0
    3.6730    0.9107    0.0000 C   0  0  3  0  0  0  0  0  0  0  0  0
    2.8640    1.4985    0.0000 C   0  0  0  0  0  0  0  0  0  0  0  0
    3.1730    2.4495    0.0000 C   0  0  0  0  0  0  0  0  0  0  0  0
    4.1730    2.4495    0.0000 C   0  0  0  0  0  0  0  0  0  0  0  0
    5.1016   -1.7204    0.0000 H   0  0  0  0  0  0  0  0  0  0  0  0
    3.3444   -1.1816    0.0000 H   0  0  0  0  0  0  0  0  0  0  0  0
    2.8478   -2.5780    0.0000 H   0  0  0  0  0  0  0  0  0  0  0  0
    5.1198   -0.6798    0.0000 H   0  0  0  0  0  0  0  0  0  0  0  0
    4.7212    0.0105    0.0000 H   0  0  0  0  0  0  0  0  0  0  0  0
    2.6247    0.0105    0.0000 H   0  0  0  0  0  0  0  0  0  0  0  0
    2.2262   -0.6798    0.0000 H   0  0  0  0  0  0  0  0  0  0  0  0
    2.6383   -0.4114    0.0000 H   0  0  0  0  0  0  0  0  0  0  0  0
    2.3885   -1.1070    0.0000 H   0  0  0  0  0  0  0  0  0  0  0  0
    3.3030   -2.3379    0.0000 H   0  0  0  0  0  0  0  0  0  0  0  0
    4.0430   -2.3379    0.0000 H   0  0  0  0  0  0  0  0  0  0  0  0
    3.5782   -2.9868    0.0000 H   0  0  0  0  0  0  0  0  0  0  0  0
    4.4127   -2.7791    0.0000 H   0  0  0  0  0  0  0  0  0  0  0  0
    1.5188   -1.6295    0.0000 H   0  0  0  0  0  0  0  0  0  0  0  0
    1.8068   -2.6095    0.0000 H   0  0  0  0  0  0  0  0  0  0  0  0
    4.2254    0.6292    0.0000 H   0  0  0  0  0  0  0  0  0  0  0  0
    2.2976    1.7506    0.0000 H   0  0  0  0  0  0  0  0  0  0  0  0
    2.5540    0.9615    0.0000 H   0  0  0  0  0  0  0  0  0  0  0  0
    5.0717    1.3069    0.0000 H   0  0  0  0  0  0  0  0  0  0  0  0
    3.2378    3.0661    0.0000 H   0  0  0  0  0  0  0  0  0  0  0  0
    2.5665    2.5784    0.0000 H   0  0  0  0  0  0  0  0  0  0  0  0
    4.7794    2.5784    0.0000 H   0  0  0  0  0  0  0  0  0  0  0  0
    4.1082    3.0661    0.0000 H   0  0  0  0  0  0  0  0  0  0  0  0
  1 12  1  0  0  0  0
  1 15  1  0  0  0  0
  1 34  1  0  0  0  0
  2  6  1  0  0  0  0
  2  7  1  0  0  0  0
  2  8  1  0  0  0  0
  2 12  1  0  0  0  0
  3  6  1  0  0  0  0
  3  9  1  0  0  0  0
  3 10  1  0  0  0  0
  3 16  1  0  0  0  0
  4  7  1  0  0  0  0
  4  9  1  0  0  0  0
  4 11  1  0  0  0  0
  4 17  1  0  0  0  0
  5  8  1  0  0  0  0
  5 10  1  0  0  0  0
  5 11  1  0  0  0  0
  5 18  1  0  0  0  0
  6 19  1  0  0  0  0
  6 20  1  0  0  0  0
  7 21  1  0  0  0  0
  7 22  1  0  0  0  0
  8 23  1  0  0  0  0
  8 24  1  0  0  0  0
  9 25  1  0  0  0  0
  9 26  1  0  0  0  0
 10 27  1  0  0  0  0
 10 28  1  0  0  0  0
 11 29  1  0  0  0  0
 11 30  1  0  0  0  0
 12 13  1  0  0  0  0
 12 31  1  0  0  0  0
 13 14  1  0  0  0  0
 13 32  1  0  0  0  0
 13 33  1  0  0  0  0
 14 15  1  0  0  0  0
 14 35  1  0  0  0  0
 14 36  1  0  0  0  0
 15 37  1  0  0  0  0
 15 38  1  0  0  0  0
M  END
> <PUBCHEM_COMPOUND_CID>
511811
> <PUBCHEM_COMPOUND_CANONICALIZED>
1
> <PUBCHEM_CACTVS_COMPLEXITY>
229
> <PUBCHEM_CACTVS_HBOND_ACCEPTOR>
1
> <PUBCHEM_CACTVS_HBOND_DONOR>
1
> <PUBCHEM_CACTVS_ROTATABLE_BOND>
1
> <PUBCHEM_CACTVS_SUBSKEYS>
AAADceByAAAAAAAAAAAAAAAAAAAAAWAAAAAwYMGAAAAAAAAAAAAAHAAQAAAADyjBAAQAAALAAAAAAAAAAAAAAAAAAAAAAIAIAAAAAAIAgAAEAAAAEACAAAEQgMAPAAAAAAAAAAAAAAQAAAAAAAAAAAAAAA==
> <PUBCHEM_IUPAC_OPENEYE_NAME>
2-(1-adamantyl)pyrrolidine
> <PUBCHEM_IUPAC_CAS_NAME>
2-(1-adamantyl)pyrrolidine
> <PUBCHEM_IUPAC_NAME_MARKUP>
2-(1-adamantyl)pyrrolidine
> <PUBCHEM_IUPAC_NAME>
2-(1-adamantyl)pyrrolidine
> <PUBCHEM_IUPAC_SYSTEMATIC_NAME>
2-(1-adamantyl)pyrrolidine
> <PUBCHEM_IUPAC_TRADITIONAL_NAME>
2-(1-adamantyl)pyrrolidine
> <PUBCHEM_IUPAC_INCHI>
InChI=1S/C14H23N/c1-2-13(15-3-1)14-7-10-4-11(8-14)6-12(5-10)9-14/h10-13,15H,1-9H2
> <PUBCHEM_IUPAC_INCHIKEY>
YVRRAISBZUMEJB-UHFFFAOYSA-N
> <PUBCHEM_XLOGP3_AA>
3.3
> <PUBCHEM_EXACT_MASS>
205.183049738
> <PUBCHEM_MOLECULAR_FORMULA>
C14H23N
> <PUBCHEM_MOLECULAR_WEIGHT>
205.34
> <PUBCHEM_OPENEYE_CAN_SMILES>
C1CC(NC1)C23CC4CC(C2)CC(C4)C3
> <PUBCHEM_OPENEYE_ISO_SMILES>
C1CC(NC1)C23CC4CC(C2)CC(C4)C3
> <PUBCHEM_CACTVS_TPSA>
12
> <PUBCHEM_MONOISOTOPIC_WEIGHT>
205.183049738
> <PUBCHEM_TOTAL_CHARGE>
0
> <PUBCHEM_HEAVY_ATOM_COUNT>
15
> <PUBCHEM_ATOM_DEF_STEREO_COUNT>
0
> <PUBCHEM_ATOM_UDEF_STEREO_COUNT>
1
> <PUBCHEM_BOND_DEF_STEREO_COUNT>
0
> <PUBCHEM_BOND_UDEF_STEREO_COUNT>
0
> <PUBCHEM_ISOTOPIC_ATOM_COUNT>
0
> <PUBCHEM_COMPONENT_COUNT>
1
> <PUBCHEM_CACTVS_TAUTO_COUNT>
1
> <PUBCHEM_COORDINATE_TYPE>
1
5
255
> <PUBCHEM_BONDANNOTATIONS>
12  2  3
$$$$
