511864
  -OEChem-10302200282D
123123  0     1  0  0  0  0  0999 V2000
    4.2690   -4.0950    0.0000 O   0  0  0  0  0  0  0  0  0  0  0  0
    6.0010   -4.0950    0.0000 O   0  0  0  0  0  0  0  0  0  0  0  0
    4.2690   -7.0950    0.0000 O   0  0  0  0  0  0  0  0  0  0  0  0
    2.5369   -6.0950    0.0000 O   0  0  0  0  0  0  0  0  0  0  0  0
    6.0010   -6.0950    0.0000 O   0  0  0  0  0  0  0  0  0  0  0  0
    2.5369   -3.0950    0.0000 O   0  0  0  0  0  0  0  0  0  0  0  0
    6.8671   -1.5950    0.0000 O   0  0  0  0  0  0  0  0  0  0  0  0
    8.5991   -2.5950    0.0000 O   0  0  0  0  0  0  0  0  0  0  0  0
    8.5991   -1.5950    0.0000 O   0  0  0  0  0  0  0  0  0  0  0  0
    9.4651   -4.0950    0.0000 O   0  0  0  0  0  0  0  0  0  0  0  0
    4.2690   -6.0950    0.0000 C   0  0  1  0  0  0  0  0  0  0  0  0
    3.4030   -5.5950    0.0000 C   0  0  1  0  0  0  0  0  0  0  0  0
    5.1350   -5.5950    0.0000 C   0  0  2  0  0  0  0  0  0  0  0  0
    3.4030   -4.5950    0.0000 C   0  0  1  0  0  0  0  0  0  0  0  0
    5.1350   -4.5950    0.0000 C   0  0  1  0  0  0  0  0  0  0  0  0
    2.5369   -4.0950    0.0000 C   0  0  0  0  0  0  0  0  0  0  0  0
    6.0010   -3.0950    0.0000 C   0  0  0  0  0  0  0  0  0  0  0  0
    6.8671   -2.5950    0.0000 C   0  0  3  0  0  0  0  0  0  0  0  0
   16.3933   -3.0950    0.0000 C   0  0  0  0  0  0  0  0  0  0  0  0
   17.2594   -2.5950    0.0000 C   0  0  0  0  0  0  0  0  0  0  0  0
   15.5273   -2.5950    0.0000 C   0  0  0  0  0  0  0  0  0  0  0  0
   18.1254   -3.0950    0.0000 C   0  0  0  0  0  0  0  0  0  0  0  0
   14.6613   -3.0950    0.0000 C   0  0  0  0  0  0  0  0  0  0  0  0
   18.9914   -2.5950    0.0000 C   0  0  0  0  0  0  0  0  0  0  0  0
   13.7953   -2.5950    0.0000 C   0  0  0  0  0  0  0  0  0  0  0  0
   19.8574   -3.0950    0.0000 C   0  0  0  0  0  0  0  0  0  0  0  0
   12.9292   -3.0950    0.0000 C   0  0  0  0  0  0  0  0  0  0  0  0
    7.7331   -3.0950    0.0000 C   0  0  0  0  0  0  0  0  0  0  0  0
   20.7235   -2.5950    0.0000 C   0  0  0  0  0  0  0  0  0  0  0  0
   12.0632   -2.5950    0.0000 C   0  0  0  0  0  0  0  0  0  0  0  0
   21.5895   -3.0950    0.0000 C   0  0  0  0  0  0  0  0  0  0  0  0
   11.1972   -3.0950    0.0000 C   0  0  0  0  0  0  0  0  0  0  0  0
    9.4651    1.9050    0.0000 C   0  0  0  0  0  0  0  0  0  0  0  0
    9.4651    2.9050    0.0000 C   0  0  0  0  0  0  0  0  0  0  0  0
    8.5991    1.4050    0.0000 C   0  0  0  0  0  0  0  0  0  0  0  0
   10.3312    3.4050    0.0000 C   0  0  0  0  0  0  0  0  0  0  0  0
    8.5991    0.4050    0.0000 C   0  0  0  0  0  0  0  0  0  0  0  0
   10.3312    4.4050    0.0000 C   0  0  0  0  0  0  0  0  0  0  0  0
   22.4555   -2.5950    0.0000 C   0  0  0  0  0  0  0  0  0  0  0  0
   10.3312   -2.5950    0.0000 C   0  0  0  0  0  0  0  0  0  0  0  0
    7.7331   -0.0950    0.0000 C   0  0  0  0  0  0  0  0  0  0  0  0
   11.1972    4.9050    0.0000 C   0  0  0  0  0  0  0  0  0  0  0  0
    7.7331   -1.0950    0.0000 C   0  0  0  0  0  0  0  0  0  0  0  0
    9.4651   -3.0950    0.0000 C   0  0  0  0  0  0  0  0  0  0  0  0
   11.1972    5.9050    0.0000 C   0  0  0  0  0  0  0  0  0  0  0  0
   23.3215   -3.0950    0.0000 C   0  0  0  0  0  0  0  0  0  0  0  0
   12.0632    6.4050    0.0000 C   0  0  0  0  0  0  0  0  0  0  0  0
   24.1876   -2.5950    0.0000 C   0  0  0  0  0  0  0  0  0  0  0  0
   12.0632    7.4050    0.0000 C   0  0  0  0  0  0  0  0  0  0  0  0
    3.7320   -6.4050    0.0000 H   0  0  0  0  0  0  0  0  0  0  0  0
    3.4030   -6.2150    0.0000 H   0  0  0  0  0  0  0  0  0  0  0  0
    5.1350   -6.2150    0.0000 H   0  0  0  0  0  0  0  0  0  0  0  0
    3.4030   -3.9750    0.0000 H   0  0  0  0  0  0  0  0  0  0  0  0
    5.1350   -3.9750    0.0000 H   0  0  0  0  0  0  0  0  0  0  0  0
    1.9264   -3.9873    0.0000 H   0  0  0  0  0  0  0  0  0  0  0  0
    2.3249   -4.6776    0.0000 H   0  0  0  0  0  0  0  0  0  0  0  0
    3.7320   -7.4050    0.0000 H   0  0  0  0  0  0  0  0  0  0  0  0
    2.0000   -5.7850    0.0000 H   0  0  0  0  0  0  0  0  0  0  0  0
    5.7890   -2.5124    0.0000 H   0  0  0  0  0  0  0  0  0  0  0  0
    5.3905   -3.2027    0.0000 H   0  0  0  0  0  0  0  0  0  0  0  0
    6.5380   -5.7850    0.0000 H   0  0  0  0  0  0  0  0  0  0  0  0
    7.4040   -2.2850    0.0000 H   0  0  0  0  0  0  0  0  0  0  0  0
   15.9948   -3.5700    0.0000 H   0  0  0  0  0  0  0  0  0  0  0  0
   16.7919   -3.5700    0.0000 H   0  0  0  0  0  0  0  0  0  0  0  0
   17.6579   -2.1200    0.0000 H   0  0  0  0  0  0  0  0  0  0  0  0
   16.8608   -2.1200    0.0000 H   0  0  0  0  0  0  0  0  0  0  0  0
   15.9258   -2.1200    0.0000 H   0  0  0  0  0  0  0  0  0  0  0  0
   15.1288   -2.1200    0.0000 H   0  0  0  0  0  0  0  0  0  0  0  0
   17.7269   -3.5700    0.0000 H   0  0  0  0  0  0  0  0  0  0  0  0
   18.5239   -3.5700    0.0000 H   0  0  0  0  0  0  0  0  0  0  0  0
   14.2628   -3.5700    0.0000 H   0  0  0  0  0  0  0  0  0  0  0  0
   15.0598   -3.5700    0.0000 H   0  0  0  0  0  0  0  0  0  0  0  0
   19.3899   -2.1200    0.0000 H   0  0  0  0  0  0  0  0  0  0  0  0
   18.5929   -2.1200    0.0000 H   0  0  0  0  0  0  0  0  0  0  0  0
   14.1938   -2.1200    0.0000 H   0  0  0  0  0  0  0  0  0  0  0  0
   13.3967   -2.1200    0.0000 H   0  0  0  0  0  0  0  0  0  0  0  0
   19.4589   -3.5700    0.0000 H   0  0  0  0  0  0  0  0  0  0  0  0
   20.2560   -3.5700    0.0000 H   0  0  0  0  0  0  0  0  0  0  0  0
   12.5307   -3.5700    0.0000 H   0  0  0  0  0  0  0  0  0  0  0  0
   13.3278   -3.5700    0.0000 H   0  0  0  0  0  0  0  0  0  0  0  0
    2.0000   -2.7850    0.0000 H   0  0  0  0  0  0  0  0  0  0  0  0
    7.3346   -3.5700    0.0000 H   0  0  0  0  0  0  0  0  0  0  0  0
    8.1316   -3.5700    0.0000 H   0  0  0  0  0  0  0  0  0  0  0  0
   21.1220   -2.1200    0.0000 H   0  0  0  0  0  0  0  0  0  0  0  0
   20.3249   -2.1200    0.0000 H   0  0  0  0  0  0  0  0  0  0  0  0
   12.4617   -2.1200    0.0000 H   0  0  0  0  0  0  0  0  0  0  0  0
   11.6647   -2.1200    0.0000 H   0  0  0  0  0  0  0  0  0  0  0  0
   21.1910   -3.5700    0.0000 H   0  0  0  0  0  0  0  0  0  0  0  0
   21.9880   -3.5700    0.0000 H   0  0  0  0  0  0  0  0  0  0  0  0
   10.7987   -3.5700    0.0000 H   0  0  0  0  0  0  0  0  0  0  0  0
   11.5957   -3.5700    0.0000 H   0  0  0  0  0  0  0  0  0  0  0  0
    9.6772    1.3224    0.0000 H   0  0  0  0  0  0  0  0  0  0  0  0
   10.0757    2.0127    0.0000 H   0  0  0  0  0  0  0  0  0  0  0  0
    9.2531    3.4876    0.0000 H   0  0  0  0  0  0  0  0  0  0  0  0
    8.8546    2.7973    0.0000 H   0  0  0  0  0  0  0  0  0  0  0  0
    8.3871    1.9876    0.0000 H   0  0  0  0  0  0  0  0  0  0  0  0
    7.9885    1.2973    0.0000 H   0  0  0  0  0  0  0  0  0  0  0  0
   10.5432    2.8224    0.0000 H   0  0  0  0  0  0  0  0  0  0  0  0
   10.9417    3.5127    0.0000 H   0  0  0  0  0  0  0  0  0  0  0  0
    8.8112   -0.1776    0.0000 H   0  0  0  0  0  0  0  0  0  0  0  0
    9.2097    0.5127    0.0000 H   0  0  0  0  0  0  0  0  0  0  0  0
   10.1191    4.9876    0.0000 H   0  0  0  0  0  0  0  0  0  0  0  0
    9.7206    4.2973    0.0000 H   0  0  0  0  0  0  0  0  0  0  0  0
   22.8540   -2.1200    0.0000 H   0  0  0  0  0  0  0  0  0  0  0  0
   22.0570   -2.1200    0.0000 H   0  0  0  0  0  0  0  0  0  0  0  0
   10.7297   -2.1200    0.0000 H   0  0  0  0  0  0  0  0  0  0  0  0
    9.9326   -2.1200    0.0000 H   0  0  0  0  0  0  0  0  0  0  0  0
    7.5210    0.4876    0.0000 H   0  0  0  0  0  0  0  0  0  0  0  0
    7.1225   -0.2027    0.0000 H   0  0  0  0  0  0  0  0  0  0  0  0
   11.4092    4.3224    0.0000 H   0  0  0  0  0  0  0  0  0  0  0  0
   11.8078    5.0127    0.0000 H   0  0  0  0  0  0  0  0  0  0  0  0
   10.9851    6.4876    0.0000 H   0  0  0  0  0  0  0  0  0  0  0  0
   10.5866    5.7973    0.0000 H   0  0  0  0  0  0  0  0  0  0  0  0
   22.9230   -3.5700    0.0000 H   0  0  0  0  0  0  0  0  0  0  0  0
   23.7201   -3.5700    0.0000 H   0  0  0  0  0  0  0  0  0  0  0  0
   12.2753    5.8224    0.0000 H   0  0  0  0  0  0  0  0  0  0  0  0
   12.6738    6.5127    0.0000 H   0  0  0  0  0  0  0  0  0  0  0  0
   24.4976   -3.1319    0.0000 H   0  0  0  0  0  0  0  0  0  0  0  0
   24.7245   -2.2850    0.0000 H   0  0  0  0  0  0  0  0  0  0  0  0
   23.8776   -2.0581    0.0000 H   0  0  0  0  0  0  0  0  0  0  0  0
   12.6832    7.4050    0.0000 H   0  0  0  0  0  0  0  0  0  0  0  0
   12.0632    8.0250    0.0000 H   0  0  0  0  0  0  0  0  0  0  0  0
   11.4432    7.4050    0.0000 H   0  0  0  0  0  0  0  0  0  0  0  0
  1 14  1  0  0  0  0
  1 15  1  0  0  0  0
 15  2  1  1  0  0  0
  2 17  1  0  0  0  0
 11  3  1  1  0  0  0
  3 57  1  0  0  0  0
 12  4  1  6  0  0  0
  4 58  1  0  0  0  0
 13  5  1  6  0  0  0
  5 61  1  0  0  0  0
  6 16  1  0  0  0  0
  6 81  1  0  0  0  0
  7 18  1  0  0  0  0
  7 43  1  0  0  0  0
  8 28  1  0  0  0  0
  8 44  1  0  0  0  0
  9 43  2  0  0  0  0
 10 44  2  0  0  0  0
 11 12  1  0  0  0  0
 11 13  1  0  0  0  0
 11 50  1  0  0  0  0
 12 14  1  0  0  0  0
 12 51  1  0  0  0  0
 13 15  1  0  0  0  0
 13 52  1  0  0  0  0
 14 16  1  1  0  0  0
 14 53  1  0  0  0  0
 15 54  1  0  0  0  0
 16 55  1  0  0  0  0
 16 56  1  0  0  0  0
 17 18  1  0  0  0  0
 17 59  1  0  0  0  0
 17 60  1  0  0  0  0
 18 28  1  0  0  0  0
 18 62  1  0  0  0  0
 19 20  1  0  0  0  0
 19 21  1  0  0  0  0
 19 63  1  0  0  0  0
 19 64  1  0  0  0  0
 20 22  1  0  0  0  0
 20 65  1  0  0  0  0
 20 66  1  0  0  0  0
 21 23  1  0  0  0  0
 21 67  1  0  0  0  0
 21 68  1  0  0  0  0
 22 24  1  0  0  0  0
 22 69  1  0  0  0  0
 22 70  1  0  0  0  0
 23 25  1  0  0  0  0
 23 71  1  0  0  0  0
 23 72  1  0  0  0  0
 24 26  1  0  0  0  0
 24 73  1  0  0  0  0
 24 74  1  0  0  0  0
 25 27  1  0  0  0  0
 25 75  1  0  0  0  0
 25 76  1  0  0  0  0
 26 29  1  0  0  0  0
 26 77  1  0  0  0  0
 26 78  1  0  0  0  0
 27 30  1  0  0  0  0
 27 79  1  0  0  0  0
 27 80  1  0  0  0  0
 28 82  1  0  0  0  0
 28 83  1  0  0  0  0
 29 31  1  0  0  0  0
 29 84  1  0  0  0  0
 29 85  1  0  0  0  0
 30 32  1  0  0  0  0
 30 86  1  0  0  0  0
 30 87  1  0  0  0  0
 31 39  1  0  0  0  0
 31 88  1  0  0  0  0
 31 89  1  0  0  0  0
 32 40  1  0  0  0  0
 32 90  1  0  0  0  0
 32 91  1  0  0  0  0
 33 34  1  0  0  0  0
 33 35  1  0  0  0  0
 33 92  1  0  0  0  0
 33 93  1  0  0  0  0
 34 36  1  0  0  0  0
 34 94  1  0  0  0  0
 34 95  1  0  0  0  0
 35 37  1  0  0  0  0
 35 96  1  0  0  0  0
 35 97  1  0  0  0  0
 36 38  1  0  0  0  0
 36 98  1  0  0  0  0
 36 99  1  0  0  0  0
 37 41  1  0  0  0  0
 37100  1  0  0  0  0
 37101  1  0  0  0  0
 38 42  1  0  0  0  0
 38102  1  0  0  0  0
 38103  1  0  0  0  0
 39 46  1  0  0  0  0
 39104  1  0  0  0  0
 39105  1  0  0  0  0
 40 44  1  0  0  0  0
 40106  1  0  0  0  0
 40107  1  0  0  0  0
 41 43  1  0  0  0  0
 41108  1  0  0  0  0
 41109  1  0  0  0  0
 42 45  1  0  0  0  0
 42110  1  0  0  0  0
 42111  1  0  0  0  0
 45 47  1  0  0  0  0
 45112  1  0  0  0  0
 45113  1  0  0  0  0
 46 48  1  0  0  0  0
 46114  1  0  0  0  0
 46115  1  0  0  0  0
 47 49  1  0  0  0  0
 47116  1  0  0  0  0
 47117  1  0  0  0  0
 48118  1  0  0  0  0
 48119  1  0  0  0  0
 48120  1  0  0  0  0
 49121  1  0  0  0  0
 49122  1  0  0  0  0
 49123  1  0  0  0  0
M  END
> <PUBCHEM_COMPOUND_CID>
511864
> <PUBCHEM_COMPOUND_CANONICALIZED>
1
> <PUBCHEM_CACTVS_COMPLEXITY>
781
> <PUBCHEM_CACTVS_HBOND_ACCEPTOR>
10
> <PUBCHEM_CACTVS_HBOND_DONOR>
4
> <PUBCHEM_CACTVS_ROTATABLE_BOND>
35
> <PUBCHEM_CACTVS_SUBSKEYS>
AAADcfB8PAAAAAAAAAAAAAAAAAAAAAAAAAAkAAAAAAAAAAAAAAAAGgAACAAACBSwgAMCCAAABgAIAACQCAAAAAAAAAAAAAEAAAAREBIAAAAiQAAFAAAHAAHI6KyAAAAAAAAAAAAAAAAAAAAAAAAAAAAAAA==
> <PUBCHEM_IUPAC_OPENEYE_NAME>
[2-dodecanoyloxy-3-[(2R,3R,4S,5S,6R)-3,4,5-trihydroxy-6-(hydroxymethyl)tetrahydropyran-2-yl]oxy-propyl] octadecanoate
> <PUBCHEM_IUPAC_CAS_NAME>
octadecanoic acid [2-(1-oxododecoxy)-3-[[(2R,3R,4S,5S,6R)-3,4,5-trihydroxy-6-(hydroxymethyl)-2-oxanyl]oxy]propyl] ester
> <PUBCHEM_IUPAC_NAME_MARKUP>
[2-dodecanoyloxy-3-[(2<I>R</I>,3<I>R</I>,4<I>S</I>,5<I>S</I>,6<I>R</I>)-3,4,5-trihydroxy-6-(hydroxymethyl)oxan-2-yl]oxypropyl] octadecanoate
> <PUBCHEM_IUPAC_NAME>
[2-dodecanoyloxy-3-[(2R,3R,4S,5S,6R)-3,4,5-trihydroxy-6-(hydroxymethyl)oxan-2-yl]oxypropyl] octadecanoate
> <PUBCHEM_IUPAC_SYSTEMATIC_NAME>
[2-dodecanoyloxy-3-[(2R,3R,4S,5S,6R)-6-(hydroxymethyl)-3,4,5-tris(oxidanyl)oxan-2-yl]oxy-propyl] octadecanoate
> <PUBCHEM_IUPAC_TRADITIONAL_NAME>
stearic acid [2-lauroyloxy-3-[(2R,3R,4S,5S,6R)-3,4,5-trihydroxy-6-methylol-tetrahydropyran-2-yl]oxy-propyl] ester
> <PUBCHEM_IUPAC_INCHI>
InChI=1S/C39H74O10/c1-3-5-7-9-11-13-14-15-16-17-18-20-21-23-25-27-34(41)46-30-32(31-47-39-38(45)37(44)36(43)33(29-40)49-39)48-35(42)28-26-24-22-19-12-10-8-6-4-2/h32-33,36-40,43-45H,3-31H2,1-2H3/t32?,33-,36-,37+,38-,39-/m1/s1
> <PUBCHEM_IUPAC_INCHIKEY>
MAVYAANVWQLWLR-ZOWCSDMMSA-N
> <PUBCHEM_XLOGP3_AA>
11.4
> <PUBCHEM_EXACT_MASS>
702.52819855
> <PUBCHEM_MOLECULAR_FORMULA>
C39H74O10
> <PUBCHEM_MOLECULAR_WEIGHT>
703.0
> <PUBCHEM_OPENEYE_CAN_SMILES>
CCCCCCCCCCCCCCCCCC(=O)OCC(COC1C(C(C(C(O1)CO)O)O)O)OC(=O)CCCCCCCCCCC
> <PUBCHEM_OPENEYE_ISO_SMILES>
CCCCCCCCCCCCCCCCCC(=O)OCC(CO[C@H]1[C@@H]([C@H]([C@@H]([C@H](O1)CO)O)O)O)OC(=O)CCCCCCCCCCC
> <PUBCHEM_CACTVS_TPSA>
152
> <PUBCHEM_MONOISOTOPIC_WEIGHT>
702.52819855
> <PUBCHEM_TOTAL_CHARGE>
0
> <PUBCHEM_HEAVY_ATOM_COUNT>
49
> <PUBCHEM_ATOM_DEF_STEREO_COUNT>
5
> <PUBCHEM_ATOM_UDEF_STEREO_COUNT>
1
> <PUBCHEM_BOND_DEF_STEREO_COUNT>
0
> <PUBCHEM_BOND_UDEF_STEREO_COUNT>
0
> <PUBCHEM_ISOTOPIC_ATOM_COUNT>
0
> <PUBCHEM_COMPONENT_COUNT>
1
> <PUBCHEM_CACTVS_TAUTO_COUNT>
-1
> <PUBCHEM_COORDINATE_TYPE>
1
5
255
> <PUBCHEM_BONDANNOTATIONS>
14  16  5
18  17  3
15  2  5
11  3  5
12  4  6
13  5  6
$$$$
