511849
  -OEChem-10302200282D
 36 38  0     1  0  0  0  0  0999 V2000
    6.1041   -1.6118    0.0000 Se  0  0  0  0  0  0  0  0  0  0  0  0
    4.2690    1.3770    0.0000 O   0  0  0  0  0  0  0  0  0  0  0  0
    4.2690   -1.6230    0.0000 O   0  0  0  0  0  0  0  0  0  0  0  0
    2.5369   -0.6230    0.0000 O   0  0  0  0  0  0  0  0  0  0  0  0
    6.0010    1.3770    0.0000 O   0  0  0  0  0  0  0  0  0  0  0  0
    2.5369    2.3770    0.0000 O   0  0  0  0  0  0  0  0  0  0  0  0
    7.1150    0.7606    0.0000 O   0  0  0  0  0  0  0  0  0  0  0  0
    6.0010   -0.6230    0.0000 N   0  0  0  0  0  0  0  0  0  0  0  0
    5.1350   -0.1230    0.0000 C   0  0  1  0  0  0  0  0  0  0  0  0
    4.2690   -0.6230    0.0000 C   0  0  1  0  0  0  0  0  0  0  0  0
    3.4030   -0.1230    0.0000 C   0  0  2  0  0  0  0  0  0  0  0  0
    3.4030    0.8770    0.0000 C   0  0  2  0  0  0  0  0  0  0  0  0
    5.1350    0.8770    0.0000 C   0  0  3  0  0  0  0  0  0  0  0  0
    2.5369    1.3770    0.0000 C   0  0  0  0  0  0  0  0  0  0  0  0
    6.9088   -0.2179    0.0000 C   0  0  0  0  0  0  0  0  0  0  0  0
    7.5759   -0.9549    0.0000 C   0  0  0  0  0  0  0  0  0  0  0  0
    7.0759   -1.8210    0.0000 C   0  0  0  0  0  0  0  0  0  0  0  0
    8.5759   -0.9549    0.0000 C   0  0  0  0  0  0  0  0  0  0  0  0
    7.5759   -2.6870    0.0000 C   0  0  0  0  0  0  0  0  0  0  0  0
    9.0759   -1.8210    0.0000 C   0  0  0  0  0  0  0  0  0  0  0  0
    8.5759   -2.6870    0.0000 C   0  0  0  0  0  0  0  0  0  0  0  0
    5.6720    0.1870    0.0000 H   0  0  0  0  0  0  0  0  0  0  0  0
    4.8059   -0.9330    0.0000 H   0  0  0  0  0  0  0  0  0  0  0  0
    3.4030   -0.7430    0.0000 H   0  0  0  0  0  0  0  0  0  0  0  0
    3.4030    1.4970    0.0000 H   0  0  0  0  0  0  0  0  0  0  0  0
    5.1350    1.4970    0.0000 H   0  0  0  0  0  0  0  0  0  0  0  0
    1.9264    1.4846    0.0000 H   0  0  0  0  0  0  0  0  0  0  0  0
    2.3249    0.7944    0.0000 H   0  0  0  0  0  0  0  0  0  0  0  0
    3.7320   -1.9330    0.0000 H   0  0  0  0  0  0  0  0  0  0  0  0
    2.0000   -0.3130    0.0000 H   0  0  0  0  0  0  0  0  0  0  0  0
    6.0010    1.9970    0.0000 H   0  0  0  0  0  0  0  0  0  0  0  0
    2.0000    2.6870    0.0000 H   0  0  0  0  0  0  0  0  0  0  0  0
    8.8859   -0.4180    0.0000 H   0  0  0  0  0  0  0  0  0  0  0  0
    7.2659   -3.2239    0.0000 H   0  0  0  0  0  0  0  0  0  0  0  0
    9.6959   -1.8210    0.0000 H   0  0  0  0  0  0  0  0  0  0  0  0
    8.8859   -3.2239    0.0000 H   0  0  0  0  0  0  0  0  0  0  0  0
  1  8  1  0  0  0  0
  1 17  1  0  0  0  0
  2 12  1  0  0  0  0
  2 13  1  0  0  0  0
 10  3  1  6  0  0  0
  3 29  1  0  0  0  0
 11  4  1  1  0  0  0
  4 30  1  0  0  0  0
  5 13  1  0  0  0  0
  5 31  1  0  0  0  0
  6 14  1  0  0  0  0
  6 32  1  0  0  0  0
  7 15  2  0  0  0  0
  9  8  1  1  0  0  0
  8 15  1  0  0  0  0
  9 10  1  0  0  0  0
  9 13  1  0  0  0  0
  9 22  1  0  0  0  0
 10 11  1  0  0  0  0
 10 23  1  0  0  0  0
 11 12  1  0  0  0  0
 11 24  1  0  0  0  0
 12 14  1  6  0  0  0
 12 25  1  0  0  0  0
 13 26  1  0  0  0  0
 14 27  1  0  0  0  0
 14 28  1  0  0  0  0
 15 16  1  0  0  0  0
 16 17  1  0  0  0  0
 16 18  2  0  0  0  0
 17 19  2  0  0  0  0
 18 20  1  0  0  0  0
 18 33  1  0  0  0  0
 19 21  1  0  0  0  0
 19 34  1  0  0  0  0
 20 21  2  0  0  0  0
 20 35  1  0  0  0  0
 21 36  1  0  0  0  0
M  END
> <PUBCHEM_COMPOUND_CID>
511849
> <PUBCHEM_COMPOUND_CANONICALIZED>
1
> <PUBCHEM_CACTVS_COMPLEXITY>
410
> <PUBCHEM_CACTVS_HBOND_ACCEPTOR>
6
> <PUBCHEM_CACTVS_HBOND_DONOR>
4
> <PUBCHEM_CACTVS_ROTATABLE_BOND>
2
> <PUBCHEM_CACTVS_SUBSKEYS>
AAADccByOAAAAAAAIAAAAAAAAAAAAWAAAAA0QAAAAAAAAFgBAAAAHgCACAAADDzxmAcwCIIABgCIAiFSEACCAAAkAAAIiAEIBMgbMDKAlRGHYQhnhgCfiYf4+AeOAAAAAAAAAAAAAAAAAAAAAAAAAAAAAA==
> <PUBCHEM_IUPAC_OPENEYE_NAME>
2-[(3S,4S,5R,6S)-2,4,5-trihydroxy-6-(hydroxymethyl)tetrahydropyran-3-yl]-1,2-benzoselenazol-3-one
> <PUBCHEM_IUPAC_CAS_NAME>
2-[(3S,4S,5R,6S)-2,4,5-trihydroxy-6-(hydroxymethyl)-3-oxanyl]-1,2-benzoselenazol-3-one
> <PUBCHEM_IUPAC_NAME_MARKUP>
2-[(3<I>S</I>,4<I>S</I>,5<I>R</I>,6<I>S</I>)-2,4,5-trihydroxy-6-(hydroxymethyl)oxan-3-yl]-1,2-benzoselenazol-3-one
> <PUBCHEM_IUPAC_NAME>
2-[(3S,4S,5R,6S)-2,4,5-trihydroxy-6-(hydroxymethyl)oxan-3-yl]-1,2-benzoselenazol-3-one
> <PUBCHEM_IUPAC_SYSTEMATIC_NAME>
2-[(3S,4S,5R,6S)-6-(hydroxymethyl)-2,4,5-tris(oxidanyl)oxan-3-yl]-1,2-benzoselenazol-3-one
> <PUBCHEM_IUPAC_TRADITIONAL_NAME>
2-[(3S,4S,5R,6S)-2,4,5-trihydroxy-6-methylol-tetrahydropyran-3-yl]-1,2-benzoselenazol-3-one
> <PUBCHEM_IUPAC_INCHI>
InChI=1S/C13H15NO6Se/c15-5-7-10(16)11(17)9(13(19)20-7)14-12(18)6-3-1-2-4-8(6)21-14/h1-4,7,9-11,13,15-17,19H,5H2/t7-,9-,10-,11-,13?/m0/s1
> <PUBCHEM_IUPAC_INCHIKEY>
FBXRBXYWCSRUAD-BBROHUMTSA-N
> <PUBCHEM_EXACT_MASS>
361.00646
> <PUBCHEM_MOLECULAR_FORMULA>
C13H15NO6Se
> <PUBCHEM_MOLECULAR_WEIGHT>
360.23
> <PUBCHEM_OPENEYE_CAN_SMILES>
C1=CC=C2C(=C1)C(=O)N([Se]2)C3C(C(C(OC3O)CO)O)O
> <PUBCHEM_OPENEYE_ISO_SMILES>
C1=CC=C2C(=C1)C(=O)N([Se]2)[C@H]3[C@@H]([C@H]([C@@H](OC3O)CO)O)O
> <PUBCHEM_CACTVS_TPSA>
111
> <PUBCHEM_MONOISOTOPIC_WEIGHT>
361.00646
> <PUBCHEM_TOTAL_CHARGE>
0
> <PUBCHEM_HEAVY_ATOM_COUNT>
21
> <PUBCHEM_ATOM_DEF_STEREO_COUNT>
4
> <PUBCHEM_ATOM_UDEF_STEREO_COUNT>
1
> <PUBCHEM_BOND_DEF_STEREO_COUNT>
0
> <PUBCHEM_BOND_UDEF_STEREO_COUNT>
0
> <PUBCHEM_ISOTOPIC_ATOM_COUNT>
0
> <PUBCHEM_COMPONENT_COUNT>
1
> <PUBCHEM_CACTVS_TAUTO_COUNT>
-1
> <PUBCHEM_COORDINATE_TYPE>
1
5
255
> <PUBCHEM_BONDANNOTATIONS>
1  17  8
1  8  8
12  14  6
15  16  8
16  17  8
16  18  8
17  19  8
18  20  8
19  21  8
20  21  8
10  3  6
11  4  5
13  5  3
8  15  8
9  8  5
$$$$
