511897
  -OEChem-10302200282D
 35 36  0     1  0  0  0  0  0999 V2000
    4.2690    0.1550    0.0000 O   0  0  0  0  0  0  0  0  0  0  0  0
    2.5369   -1.8450    0.0000 O   0  0  0  0  0  0  0  0  0  0  0  0
    4.2690   -2.8450    0.0000 O   0  0  0  0  0  0  0  0  0  0  0  0
    6.0010    0.1550    0.0000 O   0  0  0  0  0  0  0  0  0  0  0  0
    6.0010   -1.8450    0.0000 O   0  0  0  0  0  0  0  0  0  0  0  0
    2.5369    1.1550    0.0000 N   0  0  0  0  0  0  0  0  0  0  0  0
    3.4030   -1.3450    0.0000 C   0  0  1  0  0  0  0  0  0  0  0  0
    4.2690   -1.8450    0.0000 C   0  0  1  0  0  0  0  0  0  0  0  0
    3.4030   -0.3450    0.0000 C   0  0  1  0  0  0  0  0  0  0  0  0
    5.1350   -1.3450    0.0000 C   0  0  2  0  0  0  0  0  0  0  0  0
    5.1350   -0.3450    0.0000 C   0  0  1  0  0  0  0  0  0  0  0  0
    2.5369    0.1550    0.0000 C   0  0  0  0  0  0  0  0  0  0  0  0
    6.0010    1.1550    0.0000 C   0  0  0  0  0  0  0  0  0  0  0  0
    6.8671    1.6550    0.0000 C   0  0  0  0  0  0  0  0  0  0  0  0
    5.1350    1.6550    0.0000 C   0  0  0  0  0  0  0  0  0  0  0  0
    6.8671    2.6550    0.0000 C   0  0  0  0  0  0  0  0  0  0  0  0
    5.1350    2.6550    0.0000 C   0  0  0  0  0  0  0  0  0  0  0  0
    6.0010    3.1550    0.0000 C   0  0  0  0  0  0  0  0  0  0  0  0
    3.4030   -1.9650    0.0000 H   0  0  0  0  0  0  0  0  0  0  0  0
    3.7320   -2.1550    0.0000 H   0  0  0  0  0  0  0  0  0  0  0  0
    3.4030    0.2750    0.0000 H   0  0  0  0  0  0  0  0  0  0  0  0
    5.1350   -1.9650    0.0000 H   0  0  0  0  0  0  0  0  0  0  0  0
    5.1350    0.2750    0.0000 H   0  0  0  0  0  0  0  0  0  0  0  0
    1.9264    0.2627    0.0000 H   0  0  0  0  0  0  0  0  0  0  0  0
    2.3249   -0.4276    0.0000 H   0  0  0  0  0  0  0  0  0  0  0  0
    2.0000   -1.5350    0.0000 H   0  0  0  0  0  0  0  0  0  0  0  0
    3.7320   -3.1550    0.0000 H   0  0  0  0  0  0  0  0  0  0  0  0
    6.5380   -1.5350    0.0000 H   0  0  0  0  0  0  0  0  0  0  0  0
    2.0000    1.4650    0.0000 H   0  0  0  0  0  0  0  0  0  0  0  0
    3.0739    1.4650    0.0000 H   0  0  0  0  0  0  0  0  0  0  0  0
    7.4040    1.3450    0.0000 H   0  0  0  0  0  0  0  0  0  0  0  0
    4.5981    1.3450    0.0000 H   0  0  0  0  0  0  0  0  0  0  0  0
    7.4040    2.9650    0.0000 H   0  0  0  0  0  0  0  0  0  0  0  0
    4.5981    2.9650    0.0000 H   0  0  0  0  0  0  0  0  0  0  0  0
    6.0010    3.7750    0.0000 H   0  0  0  0  0  0  0  0  0  0  0  0
  1  9  1  0  0  0  0
  1 11  1  0  0  0  0
  7  2  1  6  0  0  0
  2 26  1  0  0  0  0
  8  3  1  1  0  0  0
  3 27  1  0  0  0  0
 11  4  1  1  0  0  0
  4 13  1  0  0  0  0
 10  5  1  6  0  0  0
  5 28  1  0  0  0  0
  6 12  1  0  0  0  0
  6 29  1  0  0  0  0
  6 30  1  0  0  0  0
  7  8  1  0  0  0  0
  7  9  1  0  0  0  0
  7 19  1  0  0  0  0
  8 10  1  0  0  0  0
  8 20  1  0  0  0  0
  9 12  1  1  0  0  0
  9 21  1  0  0  0  0
 10 11  1  0  0  0  0
 10 22  1  0  0  0  0
 11 23  1  0  0  0  0
 12 24  1  0  0  0  0
 12 25  1  0  0  0  0
 13 14  2  0  0  0  0
 13 15  1  0  0  0  0
 14 16  1  0  0  0  0
 14 31  1  0  0  0  0
 15 17  2  0  0  0  0
 15 32  1  0  0  0  0
 16 18  2  0  0  0  0
 16 33  1  0  0  0  0
 17 18  1  0  0  0  0
 17 34  1  0  0  0  0
 18 35  1  0  0  0  0
M  END
> <PUBCHEM_COMPOUND_CID>
511897
> <PUBCHEM_COMPOUND_CANONICALIZED>
1
> <PUBCHEM_CACTVS_COMPLEXITY>
259
> <PUBCHEM_CACTVS_HBOND_ACCEPTOR>
6
> <PUBCHEM_CACTVS_HBOND_DONOR>
4
> <PUBCHEM_CACTVS_ROTATABLE_BOND>
3
> <PUBCHEM_CACTVS_SUBSKEYS>
AAADceByOAAAAAAAAAAAAAAAAAAAAAAAAAA0QAAAAAAAAAABAAAAHgAQCAAACBTxkAcwDoBABgCAACBCAAACCAAgIAAIiIAGCIgfNiKEsRqjeCCn0BEPqAfwcAwAAAAAAAAAAAAAAAAAAAAAAAAAAAAAAA==
> <PUBCHEM_IUPAC_OPENEYE_NAME>
(2R,3S,4S,5R,6S)-2-(aminomethyl)-6-phenoxy-tetrahydropyran-3,4,5-triol
> <PUBCHEM_IUPAC_CAS_NAME>
(2R,3S,4S,5R,6S)-2-(aminomethyl)-6-phenoxyoxane-3,4,5-triol
> <PUBCHEM_IUPAC_NAME_MARKUP>
(2<I>R</I>,3<I>S</I>,4<I>S</I>,5<I>R</I>,6<I>S</I>)-2-(aminomethyl)-6-phenoxyoxane-3,4,5-triol
> <PUBCHEM_IUPAC_NAME>
(2R,3S,4S,5R,6S)-2-(aminomethyl)-6-phenoxyoxane-3,4,5-triol
> <PUBCHEM_IUPAC_SYSTEMATIC_NAME>
(2R,3S,4S,5R,6S)-2-(aminomethyl)-6-phenoxy-oxane-3,4,5-triol
> <PUBCHEM_IUPAC_TRADITIONAL_NAME>
(2R,3S,4S,5R,6S)-2-(aminomethyl)-6-phenoxy-tetrahydropyran-3,4,5-triol
> <PUBCHEM_IUPAC_INCHI>
InChI=1S/C12H17NO5/c13-6-8-9(14)10(15)11(16)12(18-8)17-7-4-2-1-3-5-7/h1-5,8-12,14-16H,6,13H2/t8-,9-,10+,11-,12-/m1/s1
> <PUBCHEM_IUPAC_INCHIKEY>
VJQWAORFTGWHFM-RMPHRYRLSA-N
> <PUBCHEM_XLOGP3>
-1.1
> <PUBCHEM_EXACT_MASS>
255.11067264
> <PUBCHEM_MOLECULAR_FORMULA>
C12H17NO5
> <PUBCHEM_MOLECULAR_WEIGHT>
255.27
> <PUBCHEM_OPENEYE_CAN_SMILES>
C1=CC=C(C=C1)OC2C(C(C(C(O2)CN)O)O)O
> <PUBCHEM_OPENEYE_ISO_SMILES>
C1=CC=C(C=C1)O[C@H]2[C@@H]([C@H]([C@@H]([C@H](O2)CN)O)O)O
> <PUBCHEM_CACTVS_TPSA>
105
> <PUBCHEM_MONOISOTOPIC_WEIGHT>
255.11067264
> <PUBCHEM_TOTAL_CHARGE>
0
> <PUBCHEM_HEAVY_ATOM_COUNT>
18
> <PUBCHEM_ATOM_DEF_STEREO_COUNT>
5
> <PUBCHEM_ATOM_UDEF_STEREO_COUNT>
0
> <PUBCHEM_BOND_DEF_STEREO_COUNT>
0
> <PUBCHEM_BOND_UDEF_STEREO_COUNT>
0
> <PUBCHEM_ISOTOPIC_ATOM_COUNT>
0
> <PUBCHEM_COMPONENT_COUNT>
1
> <PUBCHEM_CACTVS_TAUTO_COUNT>
-1
> <PUBCHEM_COORDINATE_TYPE>
1
5
255
> <PUBCHEM_BONDANNOTATIONS>
13  14  8
13  15  8
14  16  8
15  17  8
16  18  8
17  18  8
7  2  6
8  3  5
11  4  5
10  5  6
9  12  5
$$$$
