511846
  -OEChem-10302200282D
 26 27  0     1  0  0  0  0  0999 V2000
    4.6783   -0.5479    0.0000 Se  0  0  0  0  0  0  0  0  0  0  0  0
    6.2619   -1.4752    0.0000 O   0  0  0  0  0  0  0  0  0  0  0  0
    8.2619   -1.4752    0.0000 O   0  0  0  0  0  0  0  0  0  0  0  0
    4.9889    2.0121    0.0000 O   0  0  0  0  0  0  0  0  0  0  0  0
    5.2619    0.2569    0.0000 N   0  0  0  0  0  0  0  0  0  0  0  0
    6.2619    0.2569    0.0000 C   0  0  0  0  0  0  0  0  0  0  0  0
    6.7619   -0.6092    0.0000 C   0  0  3  0  0  0  0  0  0  0  0  0
    3.7320    0.7569    0.0000 C   0  0  0  0  0  0  0  0  0  0  0  0
    4.6783    1.0616    0.0000 C   0  0  0  0  0  0  0  0  0  0  0  0
    3.7320   -0.2431    0.0000 C   0  0  0  0  0  0  0  0  0  0  0  0
    7.7619   -0.6092    0.0000 C   0  0  0  0  0  0  0  0  0  0  0  0
    2.8660    1.2569    0.0000 C   0  0  0  0  0  0  0  0  0  0  0  0
    2.8660   -0.7431    0.0000 C   0  0  0  0  0  0  0  0  0  0  0  0
    2.0000    0.7569    0.0000 C   0  0  0  0  0  0  0  0  0  0  0  0
    2.0000   -0.2431    0.0000 C   0  0  0  0  0  0  0  0  0  0  0  0
    6.8445    0.4689    0.0000 H   0  0  0  0  0  0  0  0  0  0  0  0
    6.1542    0.8674    0.0000 H   0  0  0  0  0  0  0  0  0  0  0  0
    6.1419   -0.6092    0.0000 H   0  0  0  0  0  0  0  0  0  0  0  0
    8.3445   -0.3971    0.0000 H   0  0  0  0  0  0  0  0  0  0  0  0
    7.6542    0.0014    0.0000 H   0  0  0  0  0  0  0  0  0  0  0  0
    2.8660    1.8769    0.0000 H   0  0  0  0  0  0  0  0  0  0  0  0
    2.8660   -1.3631    0.0000 H   0  0  0  0  0  0  0  0  0  0  0  0
    1.4631    1.0669    0.0000 H   0  0  0  0  0  0  0  0  0  0  0  0
    1.4631   -0.5531    0.0000 H   0  0  0  0  0  0  0  0  0  0  0  0
    6.5719   -2.0121    0.0000 H   0  0  0  0  0  0  0  0  0  0  0  0
    8.8819   -1.4752    0.0000 H   0  0  0  0  0  0  0  0  0  0  0  0
  1  5  1  0  0  0  0
  1 10  1  0  0  0  0
  2  7  1  0  0  0  0
  2 25  1  0  0  0  0
  3 11  1  0  0  0  0
  3 26  1  0  0  0  0
  4  9  2  0  0  0  0
  5  6  1  0  0  0  0
  5  9  1  0  0  0  0
  6  7  1  0  0  0  0
  6 16  1  0  0  0  0
  6 17  1  0  0  0  0
  7 11  1  0  0  0  0
  7 18  1  0  0  0  0
  8  9  1  0  0  0  0
  8 10  1  0  0  0  0
  8 12  2  0  0  0  0
 10 13  2  0  0  0  0
 11 19  1  0  0  0  0
 11 20  1  0  0  0  0
 12 14  1  0  0  0  0
 12 21  1  0  0  0  0
 13 15  1  0  0  0  0
 13 22  1  0  0  0  0
 14 15  2  0  0  0  0
 14 23  1  0  0  0  0
 15 24  1  0  0  0  0
M  END
> <PUBCHEM_COMPOUND_CID>
511846
> <PUBCHEM_COMPOUND_CANONICALIZED>
1
> <PUBCHEM_CACTVS_COMPLEXITY>
249
> <PUBCHEM_CACTVS_HBOND_ACCEPTOR>
3
> <PUBCHEM_CACTVS_HBOND_DONOR>
2
> <PUBCHEM_CACTVS_ROTATABLE_BOND>
3
> <PUBCHEM_CACTVS_SUBSKEYS>
AAADccByMAAAAAAAIAAAAAAAAAAAAWAAAAAwAAAAAAAAAFgBAAAAHgCACAAADBThmAYwAIIAAgCIAiFSEACCAAAkAAAIiAEIBMgLMDKAlRGEYQhihgCZiYcYiACOAAAAAAAAAAAAAAAAAAAAAAAAAAAAAA==
> <PUBCHEM_IUPAC_OPENEYE_NAME>
2-(2,3-dihydroxypropyl)-1,2-benzoselenazol-3-one
> <PUBCHEM_IUPAC_CAS_NAME>
2-(2,3-dihydroxypropyl)-1,2-benzoselenazol-3-one
> <PUBCHEM_IUPAC_NAME_MARKUP>
2-(2,3-dihydroxypropyl)-1,2-benzoselenazol-3-one
> <PUBCHEM_IUPAC_NAME>
2-(2,3-dihydroxypropyl)-1,2-benzoselenazol-3-one
> <PUBCHEM_IUPAC_SYSTEMATIC_NAME>
2-[2,3-bis(oxidanyl)propyl]-1,2-benzoselenazol-3-one
> <PUBCHEM_IUPAC_TRADITIONAL_NAME>
2-glyceryl-1,2-benzoselenazol-3-one
> <PUBCHEM_IUPAC_INCHI>
InChI=1S/C10H11NO3Se/c12-6-7(13)5-11-10(14)8-3-1-2-4-9(8)15-11/h1-4,7,12-13H,5-6H2
> <PUBCHEM_IUPAC_INCHIKEY>
WEBLQRIRFCGCLC-UHFFFAOYSA-N
> <PUBCHEM_EXACT_MASS>
272.99041
> <PUBCHEM_MOLECULAR_FORMULA>
C10H11NO3Se
> <PUBCHEM_MOLECULAR_WEIGHT>
272.17
> <PUBCHEM_OPENEYE_CAN_SMILES>
C1=CC=C2C(=C1)C(=O)N([Se]2)CC(CO)O
> <PUBCHEM_OPENEYE_ISO_SMILES>
C1=CC=C2C(=C1)C(=O)N([Se]2)CC(CO)O
> <PUBCHEM_CACTVS_TPSA>
60.8
> <PUBCHEM_MONOISOTOPIC_WEIGHT>
272.99041
> <PUBCHEM_TOTAL_CHARGE>
0
> <PUBCHEM_HEAVY_ATOM_COUNT>
15
> <PUBCHEM_ATOM_DEF_STEREO_COUNT>
0
> <PUBCHEM_ATOM_UDEF_STEREO_COUNT>
1
> <PUBCHEM_BOND_DEF_STEREO_COUNT>
0
> <PUBCHEM_BOND_UDEF_STEREO_COUNT>
0
> <PUBCHEM_ISOTOPIC_ATOM_COUNT>
0
> <PUBCHEM_COMPONENT_COUNT>
1
> <PUBCHEM_CACTVS_TAUTO_COUNT>
-1
> <PUBCHEM_COORDINATE_TYPE>
1
5
255
> <PUBCHEM_BONDANNOTATIONS>
1  10  8
1  5  8
10  13  8
12  14  8
13  15  8
14  15  8
7  2  3
5  9  8
8  10  8
8  12  8
8  9  8
$$$$
