511860
  -OEChem-10302200282D
 93 93  0     1  0  0  0  0  0999 V2000
    4.2690   -3.3450    0.0000 O   0  0  0  0  0  0  0  0  0  0  0  0
    6.0010   -3.3450    0.0000 O   0  0  0  0  0  0  0  0  0  0  0  0
    4.2690   -6.3450    0.0000 O   0  0  0  0  0  0  0  0  0  0  0  0
    2.5369   -5.3450    0.0000 O   0  0  0  0  0  0  0  0  0  0  0  0
    6.0010   -5.3450    0.0000 O   0  0  0  0  0  0  0  0  0  0  0  0
    2.5369   -2.3450    0.0000 O   0  0  0  0  0  0  0  0  0  0  0  0
    6.8671   -0.8450    0.0000 O   0  0  0  0  0  0  0  0  0  0  0  0
    8.5991   -1.8450    0.0000 O   0  0  0  0  0  0  0  0  0  0  0  0
    8.5991   -0.8450    0.0000 O   0  0  0  0  0  0  0  0  0  0  0  0
    9.4651   -3.3450    0.0000 O   0  0  0  0  0  0  0  0  0  0  0  0
    4.2690   -5.3450    0.0000 C   0  0  1  0  0  0  0  0  0  0  0  0
    3.4030   -4.8450    0.0000 C   0  0  1  0  0  0  0  0  0  0  0  0
    5.1350   -4.8450    0.0000 C   0  0  2  0  0  0  0  0  0  0  0  0
    3.4030   -3.8450    0.0000 C   0  0  1  0  0  0  0  0  0  0  0  0
    5.1350   -3.8450    0.0000 C   0  0  1  0  0  0  0  0  0  0  0  0
    2.5369   -3.3450    0.0000 C   0  0  0  0  0  0  0  0  0  0  0  0
    6.0010   -2.3450    0.0000 C   0  0  0  0  0  0  0  0  0  0  0  0
    6.8671   -1.8450    0.0000 C   0  0  3  0  0  0  0  0  0  0  0  0
    7.7331   -2.3450    0.0000 C   0  0  0  0  0  0  0  0  0  0  0  0
    9.4651    2.6550    0.0000 C   0  0  0  0  0  0  0  0  0  0  0  0
    8.5991    2.1550    0.0000 C   0  0  0  0  0  0  0  0  0  0  0  0
    9.4651    3.6550    0.0000 C   0  0  0  0  0  0  0  0  0  0  0  0
    8.5991    1.1550    0.0000 C   0  0  0  0  0  0  0  0  0  0  0  0
   12.9292   -2.3450    0.0000 C   0  0  0  0  0  0  0  0  0  0  0  0
   12.0632   -1.8450    0.0000 C   0  0  0  0  0  0  0  0  0  0  0  0
   13.7953   -1.8450    0.0000 C   0  0  0  0  0  0  0  0  0  0  0  0
    7.7331    0.6550    0.0000 C   0  0  0  0  0  0  0  0  0  0  0  0
   10.3312    4.1550    0.0000 C   0  0  0  0  0  0  0  0  0  0  0  0
   11.1972   -2.3450    0.0000 C   0  0  0  0  0  0  0  0  0  0  0  0
   14.6613   -2.3450    0.0000 C   0  0  0  0  0  0  0  0  0  0  0  0
    7.7331   -0.3450    0.0000 C   0  0  0  0  0  0  0  0  0  0  0  0
   10.3312    5.1550    0.0000 C   0  0  0  0  0  0  0  0  0  0  0  0
   10.3312   -1.8450    0.0000 C   0  0  0  0  0  0  0  0  0  0  0  0
   15.5273   -1.8450    0.0000 C   0  0  0  0  0  0  0  0  0  0  0  0
    9.4651   -2.3450    0.0000 C   0  0  0  0  0  0  0  0  0  0  0  0
   11.1972    5.6550    0.0000 C   0  0  0  0  0  0  0  0  0  0  0  0
   16.3933   -2.3450    0.0000 C   0  0  0  0  0  0  0  0  0  0  0  0
   11.1972    6.6550    0.0000 C   0  0  0  0  0  0  0  0  0  0  0  0
   17.2594   -1.8450    0.0000 C   0  0  0  0  0  0  0  0  0  0  0  0
    3.7320   -5.6550    0.0000 H   0  0  0  0  0  0  0  0  0  0  0  0
    3.4030   -5.4650    0.0000 H   0  0  0  0  0  0  0  0  0  0  0  0
    5.1350   -5.4650    0.0000 H   0  0  0  0  0  0  0  0  0  0  0  0
    3.4030   -3.2250    0.0000 H   0  0  0  0  0  0  0  0  0  0  0  0
    5.1350   -3.2250    0.0000 H   0  0  0  0  0  0  0  0  0  0  0  0
    1.9264   -3.2373    0.0000 H   0  0  0  0  0  0  0  0  0  0  0  0
    2.3249   -3.9276    0.0000 H   0  0  0  0  0  0  0  0  0  0  0  0
    3.7320   -6.6550    0.0000 H   0  0  0  0  0  0  0  0  0  0  0  0
    5.7890   -1.7624    0.0000 H   0  0  0  0  0  0  0  0  0  0  0  0
    5.3905   -2.4527    0.0000 H   0  0  0  0  0  0  0  0  0  0  0  0
    2.0000   -5.0350    0.0000 H   0  0  0  0  0  0  0  0  0  0  0  0
    6.5380   -5.0350    0.0000 H   0  0  0  0  0  0  0  0  0  0  0  0
    7.4040   -1.5350    0.0000 H   0  0  0  0  0  0  0  0  0  0  0  0
    7.3346   -2.8200    0.0000 H   0  0  0  0  0  0  0  0  0  0  0  0
    8.1316   -2.8200    0.0000 H   0  0  0  0  0  0  0  0  0  0  0  0
    2.0000   -2.0350    0.0000 H   0  0  0  0  0  0  0  0  0  0  0  0
    9.6772    2.0724    0.0000 H   0  0  0  0  0  0  0  0  0  0  0  0
   10.0757    2.7627    0.0000 H   0  0  0  0  0  0  0  0  0  0  0  0
    8.3871    2.7376    0.0000 H   0  0  0  0  0  0  0  0  0  0  0  0
    7.9885    2.0473    0.0000 H   0  0  0  0  0  0  0  0  0  0  0  0
    9.2531    4.2376    0.0000 H   0  0  0  0  0  0  0  0  0  0  0  0
    8.8546    3.5473    0.0000 H   0  0  0  0  0  0  0  0  0  0  0  0
    8.8112    0.5724    0.0000 H   0  0  0  0  0  0  0  0  0  0  0  0
    9.2097    1.2627    0.0000 H   0  0  0  0  0  0  0  0  0  0  0  0
   12.5307   -2.8200    0.0000 H   0  0  0  0  0  0  0  0  0  0  0  0
   13.3278   -2.8200    0.0000 H   0  0  0  0  0  0  0  0  0  0  0  0
   12.4617   -1.3700    0.0000 H   0  0  0  0  0  0  0  0  0  0  0  0
   11.6647   -1.3700    0.0000 H   0  0  0  0  0  0  0  0  0  0  0  0
   14.1938   -1.3700    0.0000 H   0  0  0  0  0  0  0  0  0  0  0  0
   13.3967   -1.3700    0.0000 H   0  0  0  0  0  0  0  0  0  0  0  0
    7.5210    1.2376    0.0000 H   0  0  0  0  0  0  0  0  0  0  0  0
    7.1225    0.5473    0.0000 H   0  0  0  0  0  0  0  0  0  0  0  0
   10.5432    3.5724    0.0000 H   0  0  0  0  0  0  0  0  0  0  0  0
   10.9417    4.2627    0.0000 H   0  0  0  0  0  0  0  0  0  0  0  0
   10.7987   -2.8200    0.0000 H   0  0  0  0  0  0  0  0  0  0  0  0
   11.5957   -2.8200    0.0000 H   0  0  0  0  0  0  0  0  0  0  0  0
   14.2628   -2.8200    0.0000 H   0  0  0  0  0  0  0  0  0  0  0  0
   15.0598   -2.8200    0.0000 H   0  0  0  0  0  0  0  0  0  0  0  0
   10.1191    5.7376    0.0000 H   0  0  0  0  0  0  0  0  0  0  0  0
    9.7206    5.0473    0.0000 H   0  0  0  0  0  0  0  0  0  0  0  0
   10.7297   -1.3700    0.0000 H   0  0  0  0  0  0  0  0  0  0  0  0
    9.9326   -1.3700    0.0000 H   0  0  0  0  0  0  0  0  0  0  0  0
   15.9258   -1.3700    0.0000 H   0  0  0  0  0  0  0  0  0  0  0  0
   15.1288   -1.3700    0.0000 H   0  0  0  0  0  0  0  0  0  0  0  0
   11.4092    5.0724    0.0000 H   0  0  0  0  0  0  0  0  0  0  0  0
   11.8078    5.7627    0.0000 H   0  0  0  0  0  0  0  0  0  0  0  0
   15.9948   -2.8200    0.0000 H   0  0  0  0  0  0  0  0  0  0  0  0
   16.7919   -2.8200    0.0000 H   0  0  0  0  0  0  0  0  0  0  0  0
   11.8172    6.6550    0.0000 H   0  0  0  0  0  0  0  0  0  0  0  0
   11.1972    7.2750    0.0000 H   0  0  0  0  0  0  0  0  0  0  0  0
   10.5772    6.6550    0.0000 H   0  0  0  0  0  0  0  0  0  0  0  0
   17.5694   -2.3819    0.0000 H   0  0  0  0  0  0  0  0  0  0  0  0
   17.7963   -1.5350    0.0000 H   0  0  0  0  0  0  0  0  0  0  0  0
   16.9494   -1.3081    0.0000 H   0  0  0  0  0  0  0  0  0  0  0  0
  1 14  1  0  0  0  0
  1 15  1  0  0  0  0
 15  2  1  1  0  0  0
  2 17  1  0  0  0  0
 11  3  1  1  0  0  0
  3 47  1  0  0  0  0
 12  4  1  6  0  0  0
  4 50  1  0  0  0  0
 13  5  1  6  0  0  0
  5 51  1  0  0  0  0
  6 16  1  0  0  0  0
  6 55  1  0  0  0  0
  7 18  1  0  0  0  0
  7 31  1  0  0  0  0
  8 19  1  0  0  0  0
  8 35  1  0  0  0  0
  9 31  2  0  0  0  0
 10 35  2  0  0  0  0
 11 12  1  0  0  0  0
 11 13  1  0  0  0  0
 11 40  1  0  0  0  0
 12 14  1  0  0  0  0
 12 41  1  0  0  0  0
 13 15  1  0  0  0  0
 13 42  1  0  0  0  0
 14 16  1  1  0  0  0
 14 43  1  0  0  0  0
 15 44  1  0  0  0  0
 16 45  1  0  0  0  0
 16 46  1  0  0  0  0
 17 18  1  0  0  0  0
 17 48  1  0  0  0  0
 17 49  1  0  0  0  0
 18 19  1  0  0  0  0
 18 52  1  0  0  0  0
 19 53  1  0  0  0  0
 19 54  1  0  0  0  0
 20 21  1  0  0  0  0
 20 22  1  0  0  0  0
 20 56  1  0  0  0  0
 20 57  1  0  0  0  0
 21 23  1  0  0  0  0
 21 58  1  0  0  0  0
 21 59  1  0  0  0  0
 22 28  1  0  0  0  0
 22 60  1  0  0  0  0
 22 61  1  0  0  0  0
 23 27  1  0  0  0  0
 23 62  1  0  0  0  0
 23 63  1  0  0  0  0
 24 25  1  0  0  0  0
 24 26  1  0  0  0  0
 24 64  1  0  0  0  0
 24 65  1  0  0  0  0
 25 29  1  0  0  0  0
 25 66  1  0  0  0  0
 25 67  1  0  0  0  0
 26 30  1  0  0  0  0
 26 68  1  0  0  0  0
 26 69  1  0  0  0  0
 27 31  1  0  0  0  0
 27 70  1  0  0  0  0
 27 71  1  0  0  0  0
 28 32  1  0  0  0  0
 28 72  1  0  0  0  0
 28 73  1  0  0  0  0
 29 33  1  0  0  0  0
 29 74  1  0  0  0  0
 29 75  1  0  0  0  0
 30 34  1  0  0  0  0
 30 76  1  0  0  0  0
 30 77  1  0  0  0  0
 32 36  1  0  0  0  0
 32 78  1  0  0  0  0
 32 79  1  0  0  0  0
 33 35  1  0  0  0  0
 33 80  1  0  0  0  0
 33 81  1  0  0  0  0
 34 37  1  0  0  0  0
 34 82  1  0  0  0  0
 34 83  1  0  0  0  0
 36 38  1  0  0  0  0
 36 84  1  0  0  0  0
 36 85  1  0  0  0  0
 37 39  1  0  0  0  0
 37 86  1  0  0  0  0
 37 87  1  0  0  0  0
 38 88  1  0  0  0  0
 38 89  1  0  0  0  0
 38 90  1  0  0  0  0
 39 91  1  0  0  0  0
 39 92  1  0  0  0  0
 39 93  1  0  0  0  0
M  END
> <PUBCHEM_COMPOUND_CID>
511860
> <PUBCHEM_COMPOUND_CANONICALIZED>
1
> <PUBCHEM_CACTVS_COMPLEXITY>
631
> <PUBCHEM_CACTVS_HBOND_ACCEPTOR>
10
> <PUBCHEM_CACTVS_HBOND_DONOR>
4
> <PUBCHEM_CACTVS_ROTATABLE_BOND>
25
> <PUBCHEM_CACTVS_SUBSKEYS>
AAADcfB4PAAAAAAAAAAAAAAAAAAAAAAAAAAkAAAAAAAAAAAAAAAAGgAACAAACBSwgAMCCAAABgAIAACQCAAAAAAAAAAAAAEAAAAREBIAAAAiQAAFAAAHAAHI6KyAAAAAAAAAAAAAAAAAAAAAAAAAAAAAAA==
> <PUBCHEM_IUPAC_OPENEYE_NAME>
[2-decanoyloxy-3-[(2R,3R,4S,5S,6R)-3,4,5-trihydroxy-6-(hydroxymethyl)tetrahydropyran-2-yl]oxy-propyl] decanoate
> <PUBCHEM_IUPAC_CAS_NAME>
decanoic acid [2-(1-oxodecoxy)-3-[[(2R,3R,4S,5S,6R)-3,4,5-trihydroxy-6-(hydroxymethyl)-2-oxanyl]oxy]propyl] ester
> <PUBCHEM_IUPAC_NAME_MARKUP>
[2-decanoyloxy-3-[(2<I>R</I>,3<I>R</I>,4<I>S</I>,5<I>S</I>,6<I>R</I>)-3,4,5-trihydroxy-6-(hydroxymethyl)oxan-2-yl]oxypropyl] decanoate
> <PUBCHEM_IUPAC_NAME>
[2-decanoyloxy-3-[(2R,3R,4S,5S,6R)-3,4,5-trihydroxy-6-(hydroxymethyl)oxan-2-yl]oxypropyl] decanoate
> <PUBCHEM_IUPAC_SYSTEMATIC_NAME>
[2-decanoyloxy-3-[(2R,3R,4S,5S,6R)-6-(hydroxymethyl)-3,4,5-tris(oxidanyl)oxan-2-yl]oxy-propyl] decanoate
> <PUBCHEM_IUPAC_TRADITIONAL_NAME>
capric acid [2-capryloxy-3-[(2R,3R,4S,5S,6R)-3,4,5-trihydroxy-6-methylol-tetrahydropyran-2-yl]oxy-propyl] ester
> <PUBCHEM_IUPAC_INCHI>
InChI=1S/C29H54O10/c1-3-5-7-9-11-13-15-17-24(31)36-20-22(38-25(32)18-16-14-12-10-8-6-4-2)21-37-29-28(35)27(34)26(33)23(19-30)39-29/h22-23,26-30,33-35H,3-21H2,1-2H3/t22?,23-,26-,27+,28-,29-/m1/s1
> <PUBCHEM_IUPAC_INCHIKEY>
IQTODBJGAKFUCU-HBRGCYOCSA-N
> <PUBCHEM_XLOGP3_AA>
5.9
> <PUBCHEM_EXACT_MASS>
562.37169792
> <PUBCHEM_MOLECULAR_FORMULA>
C29H54O10
> <PUBCHEM_MOLECULAR_WEIGHT>
562.7
> <PUBCHEM_OPENEYE_CAN_SMILES>
CCCCCCCCCC(=O)OCC(COC1C(C(C(C(O1)CO)O)O)O)OC(=O)CCCCCCCCC
> <PUBCHEM_OPENEYE_ISO_SMILES>
CCCCCCCCCC(=O)OCC(CO[C@H]1[C@@H]([C@H]([C@@H]([C@H](O1)CO)O)O)O)OC(=O)CCCCCCCCC
> <PUBCHEM_CACTVS_TPSA>
152
> <PUBCHEM_MONOISOTOPIC_WEIGHT>
562.37169792
> <PUBCHEM_TOTAL_CHARGE>
0
> <PUBCHEM_HEAVY_ATOM_COUNT>
39
> <PUBCHEM_ATOM_DEF_STEREO_COUNT>
5
> <PUBCHEM_ATOM_UDEF_STEREO_COUNT>
1
> <PUBCHEM_BOND_DEF_STEREO_COUNT>
0
> <PUBCHEM_BOND_UDEF_STEREO_COUNT>
0
> <PUBCHEM_ISOTOPIC_ATOM_COUNT>
0
> <PUBCHEM_COMPONENT_COUNT>
1
> <PUBCHEM_CACTVS_TAUTO_COUNT>
-1
> <PUBCHEM_COORDINATE_TYPE>
1
5
255
> <PUBCHEM_BONDANNOTATIONS>
14  16  5
18  17  3
15  2  5
11  3  5
12  4  6
13  5  6
$$$$
