511813
  -OEChem-10302200282D
 47 50  0     1  0  0  0  0  0999 V2000
    2.7818    1.0187    0.0000 N   0  0  3  0  0  0  0  0  0  0  0  0
    3.6828   -0.4152    0.0000 C   0  0  0  0  0  0  0  0  0  0  0  0
    4.5190   -1.8635    0.0000 C   0  0  0  0  0  0  0  0  0  0  0  0
    2.8466   -1.8635    0.0000 C   0  0  0  0  0  0  0  0  0  0  0  0
    2.9917   -2.2986    0.0000 C   0  0  0  0  0  0  0  0  0  0  0  0
    4.5190   -0.8980    0.0000 C   0  0  0  0  0  0  0  0  0  0  0  0
    2.8466   -0.8980    0.0000 C   0  0  0  0  0  0  0  0  0  0  0  0
    2.9917   -1.2533    0.0000 C   0  0  0  0  0  0  0  0  0  0  0  0
    3.6828   -2.1663    0.0000 C   0  0  0  0  0  0  0  0  0  0  0  0
    3.8974   -2.7754    0.0000 C   0  0  0  0  0  0  0  0  0  0  0  0
    2.0098   -2.3463    0.0000 C   0  0  0  0  0  0  0  0  0  0  0  0
    3.6828    0.5848    0.0000 C   0  0  3  0  0  0  0  0  0  0  0  0
    4.5838    1.0187    0.0000 C   0  0  0  0  0  0  0  0  0  0  0  0
    4.8063    1.9936    0.0000 C   0  0  0  0  0  0  0  0  0  0  0  0
    2.5593    1.9936    0.0000 C   0  0  0  0  0  0  0  0  0  0  0  0
    4.1828    2.7754    0.0000 C   0  0  0  0  0  0  0  0  0  0  0  0
    3.1828    2.7754    0.0000 C   0  0  0  0  0  0  0  0  0  0  0  0
    2.0000    0.3952    0.0000 C   0  0  0  0  0  0  0  0  0  0  0  0
    5.1114   -2.0463    0.0000 H   0  0  0  0  0  0  0  0  0  0  0  0
    3.3542   -1.5075    0.0000 H   0  0  0  0  0  0  0  0  0  0  0  0
    2.8576   -2.9040    0.0000 H   0  0  0  0  0  0  0  0  0  0  0  0
    5.1296   -1.0057    0.0000 H   0  0  0  0  0  0  0  0  0  0  0  0
    4.7310   -0.3154    0.0000 H   0  0  0  0  0  0  0  0  0  0  0  0
    2.6345   -0.3154    0.0000 H   0  0  0  0  0  0  0  0  0  0  0  0
    2.2360   -1.0056    0.0000 H   0  0  0  0  0  0  0  0  0  0  0  0
    2.6481   -0.7373    0.0000 H   0  0  0  0  0  0  0  0  0  0  0  0
    2.3983   -1.4328    0.0000 H   0  0  0  0  0  0  0  0  0  0  0  0
    3.3128   -2.6638    0.0000 H   0  0  0  0  0  0  0  0  0  0  0  0
    4.0528   -2.6638    0.0000 H   0  0  0  0  0  0  0  0  0  0  0  0
    3.5880   -3.3127    0.0000 H   0  0  0  0  0  0  0  0  0  0  0  0
    4.4225   -3.1050    0.0000 H   0  0  0  0  0  0  0  0  0  0  0  0
    1.5286   -1.9554    0.0000 H   0  0  0  0  0  0  0  0  0  0  0  0
    1.8166   -2.9354    0.0000 H   0  0  0  0  0  0  0  0  0  0  0  0
    4.2078    0.2549    0.0000 H   0  0  0  0  0  0  0  0  0  0  0  0
    4.7217    0.4142    0.0000 H   0  0  0  0  0  0  0  0  0  0  0  0
    5.2038    1.0187    0.0000 H   0  0  0  0  0  0  0  0  0  0  0  0
    5.3649    1.7246    0.0000 H   0  0  0  0  0  0  0  0  0  0  0  0
    5.1928    2.4783    0.0000 H   0  0  0  0  0  0  0  0  0  0  0  0
    2.1727    2.4783    0.0000 H   0  0  0  0  0  0  0  0  0  0  0  0
    2.0007    1.7246    0.0000 H   0  0  0  0  0  0  0  0  0  0  0  0
    4.7414    3.0444    0.0000 H   0  0  0  0  0  0  0  0  0  0  0  0
    4.0448    3.3799    0.0000 H   0  0  0  0  0  0  0  0  0  0  0  0
    3.3208    3.3799    0.0000 H   0  0  0  0  0  0  0  0  0  0  0  0
    2.6242    3.0444    0.0000 H   0  0  0  0  0  0  0  0  0  0  0  0
    1.6134    0.8799    0.0000 H   0  0  0  0  0  0  0  0  0  0  0  0
    1.5153    0.0086    0.0000 H   0  0  0  0  0  0  0  0  0  0  0  0
    2.3866   -0.0896    0.0000 H   0  0  0  0  0  0  0  0  0  0  0  0
  1 12  1  0  0  0  0
  1 15  1  0  0  0  0
  1 18  1  0  0  0  0
  2  6  1  0  0  0  0
  2  7  1  0  0  0  0
  2  8  1  0  0  0  0
  2 12  1  0  0  0  0
  3  6  1  0  0  0  0
  3  9  1  0  0  0  0
  3 10  1  0  0  0  0
  3 19  1  0  0  0  0
  4  7  1  0  0  0  0
  4  9  1  0  0  0  0
  4 11  1  0  0  0  0
  4 20  1  0  0  0  0
  5  8  1  0  0  0  0
  5 10  1  0  0  0  0
  5 11  1  0  0  0  0
  5 21  1  0  0  0  0
  6 22  1  0  0  0  0
  6 23  1  0  0  0  0
  7 24  1  0  0  0  0
  7 25  1  0  0  0  0
  8 26  1  0  0  0  0
  8 27  1  0  0  0  0
  9 28  1  0  0  0  0
  9 29  1  0  0  0  0
 10 30  1  0  0  0  0
 10 31  1  0  0  0  0
 11 32  1  0  0  0  0
 11 33  1  0  0  0  0
 12 13  1  0  0  0  0
 12 34  1  0  0  0  0
 13 14  1  0  0  0  0
 13 35  1  0  0  0  0
 13 36  1  0  0  0  0
 14 16  1  0  0  0  0
 14 37  1  0  0  0  0
 14 38  1  0  0  0  0
 15 17  1  0  0  0  0
 15 39  1  0  0  0  0
 15 40  1  0  0  0  0
 16 17  1  0  0  0  0
 16 41  1  0  0  0  0
 16 42  1  0  0  0  0
 17 43  1  0  0  0  0
 17 44  1  0  0  0  0
 18 45  1  0  0  0  0
 18 46  1  0  0  0  0
 18 47  1  0  0  0  0
M  END
> <PUBCHEM_COMPOUND_CID>
511813
> <PUBCHEM_COMPOUND_CANONICALIZED>
1
> <PUBCHEM_CACTVS_COMPLEXITY>
280
> <PUBCHEM_CACTVS_HBOND_ACCEPTOR>
1
> <PUBCHEM_CACTVS_HBOND_DONOR>
0
> <PUBCHEM_CACTVS_ROTATABLE_BOND>
1
> <PUBCHEM_CACTVS_SUBSKEYS>
AAADceB6AAAAAAAAAAAAAAAAAAAAAAAAAAAwYMGABYAAAAAAAAAAHAAAAAAADyjBAAQCAAMAAAAAAAAAAAAAAAAAAAAAAAAIAAAAAAIAgAAEAAAAAACAAAEQgMAPAAAAAAAAAAAAAAQAAAAAAAAAAAAAAA==
> <PUBCHEM_IUPAC_OPENEYE_NAME>
2-(1-adamantyl)-1-methyl-azepane
> <PUBCHEM_IUPAC_CAS_NAME>
2-(1-adamantyl)-1-methylazepane
> <PUBCHEM_IUPAC_NAME_MARKUP>
2-(1-adamantyl)-1-methylazepane
> <PUBCHEM_IUPAC_NAME>
2-(1-adamantyl)-1-methylazepane
> <PUBCHEM_IUPAC_SYSTEMATIC_NAME>
2-(1-adamantyl)-1-methyl-azepane
> <PUBCHEM_IUPAC_TRADITIONAL_NAME>
2-(1-adamantyl)-1-methyl-azepane
> <PUBCHEM_IUPAC_INCHI>
InChI=1S/C17H29N/c1-18-6-4-2-3-5-16(18)17-10-13-7-14(11-17)9-15(8-13)12-17/h13-16H,2-12H2,1H3
> <PUBCHEM_IUPAC_INCHIKEY>
JGTWRQXPKMAXQE-UHFFFAOYSA-N
> <PUBCHEM_XLOGP3_AA>
4.4
> <PUBCHEM_EXACT_MASS>
247.229999929
> <PUBCHEM_MOLECULAR_FORMULA>
C17H29N
> <PUBCHEM_MOLECULAR_WEIGHT>
247.4
> <PUBCHEM_OPENEYE_CAN_SMILES>
CN1CCCCCC1C23CC4CC(C2)CC(C4)C3
> <PUBCHEM_OPENEYE_ISO_SMILES>
CN1CCCCCC1C23CC4CC(C2)CC(C4)C3
> <PUBCHEM_CACTVS_TPSA>
3.2
> <PUBCHEM_MONOISOTOPIC_WEIGHT>
247.229999929
> <PUBCHEM_TOTAL_CHARGE>
0
> <PUBCHEM_HEAVY_ATOM_COUNT>
18
> <PUBCHEM_ATOM_DEF_STEREO_COUNT>
0
> <PUBCHEM_ATOM_UDEF_STEREO_COUNT>
1
> <PUBCHEM_BOND_DEF_STEREO_COUNT>
0
> <PUBCHEM_BOND_UDEF_STEREO_COUNT>
0
> <PUBCHEM_ISOTOPIC_ATOM_COUNT>
0
> <PUBCHEM_COMPONENT_COUNT>
1
> <PUBCHEM_CACTVS_TAUTO_COUNT>
-1
> <PUBCHEM_COORDINATE_TYPE>
1
5
255
> <PUBCHEM_BONDANNOTATIONS>
12  2  3
$$$$
