511843
  -OEChem-10302200282D
 98102  0     1  0  0  0  0  0999 V2000
    7.1962    2.2126    0.0000 O   0  0  0  0  0  0  0  0  0  0  0  0
   10.4370    5.4786    0.0000 O   0  0  0  0  0  0  0  0  0  0  0  0
   10.6603    4.2126    0.0000 O   0  0  0  0  0  0  0  0  0  0  0  0
    9.9187    6.6334    0.0000 O   0  0  0  0  0  0  0  0  0  0  0  0
    5.4641    2.2126    0.0000 O   0  0  0  0  0  0  0  0  0  0  0  0
    7.1962    0.2126    0.0000 O   0  0  0  0  0  0  0  0  0  0  0  0
    5.4641   -0.7874    0.0000 O   0  0  0  0  0  0  0  0  0  0  0  0
    3.7320    0.2126    0.0000 O   0  0  0  0  0  0  0  0  0  0  0  0
    3.7320   -0.7874    0.0000 O   0  0  0  0  0  0  0  0  0  0  0  0
    8.0622    3.7126    0.0000 C   0  0  1  0  0  0  0  0  0  0  0  0
    8.9282    4.2126    0.0000 C   0  0  1  0  0  0  0  0  0  0  0  0
    8.9282    5.2126    0.0000 C   0  0  1  0  0  0  0  0  0  0  0  0
    8.0622    5.7126    0.0000 C   0  0  3  0  0  0  0  0  0  0  0  0
    8.2714    2.7407    0.0000 C   0  0  3  0  0  0  0  0  0  0  0  0
    7.1962    5.2126    0.0000 C   0  0  3  0  0  0  0  0  0  0  0  0
    7.8862    4.1663    0.0000 C   0  0  0  0  0  0  0  0  0  0  0  0
    7.1962    4.2126    0.0000 C   0  0  0  0  0  0  0  0  0  0  0  0
    9.6652    3.5455    0.0000 C   0  0  0  0  0  0  0  0  0  0  0  0
    6.4591    5.8796    0.0000 C   0  0  1  0  0  0  0  0  0  0  0  0
    7.8530    6.6844    0.0000 C   0  0  0  0  0  0  0  0  0  0  0  0
    9.2601    2.6377    0.0000 C   0  0  0  0  0  0  0  0  0  0  0  0
    7.1962    3.2126    0.0000 C   0  0  0  0  0  0  0  0  0  0  0  0
    6.8642    6.7874    0.0000 C   0  0  0  0  0  0  0  0  0  0  0  0
    9.7942    4.7126    0.0000 C   0  0  0  0  0  0  0  0  0  0  0  0
    9.0133    6.2089    0.0000 C   0  0  0  0  0  0  0  0  0  0  0  0
   10.6157    3.2348    0.0000 C   0  0  0  0  0  0  0  0  0  0  0  0
    5.4806    5.6734    0.0000 C   0  0  0  0  0  0  0  0  0  0  0  0
   10.8220    2.2563    0.0000 C   0  0  0  0  0  0  0  0  0  0  0  0
   11.3600    3.9027    0.0000 C   0  0  0  0  0  0  0  0  0  0  0  0
    6.3301    1.7126    0.0000 C   0  0  2  0  0  0  0  0  0  0  0  0
    6.3301    0.7126    0.0000 C   0  0  2  0  0  0  0  0  0  0  0  0
    5.4641    0.2126    0.0000 C   0  0  1  0  0  0  0  0  0  0  0  0
    4.5981    1.7126    0.0000 C   0  0  1  0  0  0  0  0  0  0  0  0
    4.5981    0.7126    0.0000 C   0  0  1  0  0  0  0  0  0  0  0  0
    3.7320    2.2126    0.0000 C   0  0  0  0  0  0  0  0  0  0  0  0
    4.5981   -1.2874    0.0000 C   0  0  0  0  0  0  0  0  0  0  0  0
    2.8660    0.7126    0.0000 C   0  0  0  0  0  0  0  0  0  0  0  0
    4.5981   -2.2874    0.0000 C   0  0  0  0  0  0  0  0  0  0  0  0
    3.7320   -2.7874    0.0000 C   0  0  0  0  0  0  0  0  0  0  0  0
    3.7320   -3.7874    0.0000 C   0  0  0  0  0  0  0  0  0  0  0  0
    2.8660   -4.2874    0.0000 C   0  0  0  0  0  0  0  0  0  0  0  0
    2.8660   -5.2874    0.0000 C   0  0  0  0  0  0  0  0  0  0  0  0
    2.0000   -5.7874    0.0000 C   0  0  0  0  0  0  0  0  0  0  0  0
    2.0000   -6.7874    0.0000 C   0  0  0  0  0  0  0  0  0  0  0  0
    8.5633    6.0776    0.0000 H   0  0  0  0  0  0  0  0  0  0  0  0
    7.8694    2.2687    0.0000 H   0  0  0  0  0  0  0  0  0  0  0  0
    6.6294    4.9611    0.0000 H   0  0  0  0  0  0  0  0  0  0  0  0
    7.5296    4.6734    0.0000 H   0  0  0  0  0  0  0  0  0  0  0  0
    7.3249    3.9031    0.0000 H   0  0  0  0  0  0  0  0  0  0  0  0
    6.5856    4.3202    0.0000 H   0  0  0  0  0  0  0  0  0  0  0  0
    6.9841    3.6300    0.0000 H   0  0  0  0  0  0  0  0  0  0  0  0
    6.0696    6.3620    0.0000 H   0  0  0  0  0  0  0  0  0  0  0  0
    8.4694    6.7504    0.0000 H   0  0  0  0  0  0  0  0  0  0  0  0
    7.8521    7.3044    0.0000 H   0  0  0  0  0  0  0  0  0  0  0  0
    9.5701    2.1008    0.0000 H   0  0  0  0  0  0  0  0  0  0  0  0
    6.9841    3.7952    0.0000 H   0  0  0  0  0  0  0  0  0  0  0  0
    6.5856    3.1049    0.0000 H   0  0  0  0  0  0  0  0  0  0  0  0
    6.9930    7.3939    0.0000 H   0  0  0  0  0  0  0  0  0  0  0  0
    6.2746    6.9792    0.0000 H   0  0  0  0  0  0  0  0  0  0  0  0
    8.5047    6.5635    0.0000 H   0  0  0  0  0  0  0  0  0  0  0  0
   11.2051    3.0422    0.0000 H   0  0  0  0  0  0  0  0  0  0  0  0
    5.3528    6.2801    0.0000 H   0  0  0  0  0  0  0  0  0  0  0  0
    4.8740    5.5456    0.0000 H   0  0  0  0  0  0  0  0  0  0  0  0
    5.6085    5.0668    0.0000 H   0  0  0  0  0  0  0  0  0  0  0  0
   10.2153    2.1285    0.0000 H   0  0  0  0  0  0  0  0  0  0  0  0
   10.9498    1.6496    0.0000 H   0  0  0  0  0  0  0  0  0  0  0  0
   11.4286    2.3842    0.0000 H   0  0  0  0  0  0  0  0  0  0  0  0
   11.7741    3.4412    0.0000 H   0  0  0  0  0  0  0  0  0  0  0  0
   11.8215    4.3167    0.0000 H   0  0  0  0  0  0  0  0  0  0  0  0
   10.9460    4.3641    0.0000 H   0  0  0  0  0  0  0  0  0  0  0  0
   11.0476    5.3710    0.0000 H   0  0  0  0  0  0  0  0  0  0  0  0
    6.3301    2.3326    0.0000 H   0  0  0  0  0  0  0  0  0  0  0  0
    6.3301    0.0926    0.0000 H   0  0  0  0  0  0  0  0  0  0  0  0
    4.9272   -0.0974    0.0000 H   0  0  0  0  0  0  0  0  0  0  0  0
    4.5981    2.3326    0.0000 H   0  0  0  0  0  0  0  0  0  0  0  0
    4.5981    0.0926    0.0000 H   0  0  0  0  0  0  0  0  0  0  0  0
    7.7331    0.5226    0.0000 H   0  0  0  0  0  0  0  0  0  0  0  0
    4.0420    2.7495    0.0000 H   0  0  0  0  0  0  0  0  0  0  0  0
    3.1951    2.5226    0.0000 H   0  0  0  0  0  0  0  0  0  0  0  0
    3.4220    1.6756    0.0000 H   0  0  0  0  0  0  0  0  0  0  0  0
    3.1760    1.2495    0.0000 H   0  0  0  0  0  0  0  0  0  0  0  0
    2.3291    1.0226    0.0000 H   0  0  0  0  0  0  0  0  0  0  0  0
    2.5560    0.1756    0.0000 H   0  0  0  0  0  0  0  0  0  0  0  0
    4.8101   -2.8700    0.0000 H   0  0  0  0  0  0  0  0  0  0  0  0
    5.2087   -2.1798    0.0000 H   0  0  0  0  0  0  0  0  0  0  0  0
    3.5200   -2.2048    0.0000 H   0  0  0  0  0  0  0  0  0  0  0  0
    3.1215   -2.8951    0.0000 H   0  0  0  0  0  0  0  0  0  0  0  0
    3.9441   -4.3700    0.0000 H   0  0  0  0  0  0  0  0  0  0  0  0
    4.3426   -3.6798    0.0000 H   0  0  0  0  0  0  0  0  0  0  0  0
    2.6540   -3.7048    0.0000 H   0  0  0  0  0  0  0  0  0  0  0  0
    2.2554   -4.3951    0.0000 H   0  0  0  0  0  0  0  0  0  0  0  0
    3.0781   -5.8700    0.0000 H   0  0  0  0  0  0  0  0  0  0  0  0
    3.4766   -5.1798    0.0000 H   0  0  0  0  0  0  0  0  0  0  0  0
    1.7880   -5.2048    0.0000 H   0  0  0  0  0  0  0  0  0  0  0  0
    1.3894   -5.8951    0.0000 H   0  0  0  0  0  0  0  0  0  0  0  0
    1.3800   -6.7874    0.0000 H   0  0  0  0  0  0  0  0  0  0  0  0
    2.0000   -7.4074    0.0000 H   0  0  0  0  0  0  0  0  0  0  0  0
    2.6200   -6.7874    0.0000 H   0  0  0  0  0  0  0  0  0  0  0  0
  1 22  1  0  0  0  0
 30  1  1  1  0  0  0
  2 24  1  0  0  0  0
  2 71  1  0  0  0  0
  3 24  2  0  0  0  0
  4 25  2  0  0  0  0
  5 30  1  0  0  0  0
  5 33  1  0  0  0  0
 31  6  1  1  0  0  0
  6 77  1  0  0  0  0
 32  7  1  6  0  0  0
  7 36  1  0  0  0  0
 34  8  1  6  0  0  0
  8 37  1  0  0  0  0
  9 36  2  0  0  0  0
 10 11  1  0  0  0  0
 10 14  1  0  0  0  0
 10 17  1  0  0  0  0
 10 22  1  6  0  0  0
 11 12  1  0  0  0  0
 11 18  1  0  0  0  0
 11 24  1  6  0  0  0
 12 13  1  0  0  0  0
 12 16  1  0  0  0  0
 12 25  1  1  0  0  0
 13 15  1  0  0  0  0
 13 20  1  0  0  0  0
 13 45  1  0  0  0  0
 14 16  1  0  0  0  0
 14 21  1  0  0  0  0
 14 46  1  0  0  0  0
 15 17  1  0  0  0  0
 15 19  1  0  0  0  0
 15 47  1  0  0  0  0
 16 48  1  0  0  0  0
 16 49  1  0  0  0  0
 17 50  1  0  0  0  0
 17 51  1  0  0  0  0
 18 21  2  0  0  0  0
 18 26  1  0  0  0  0
 19 23  1  0  0  0  0
 19 27  1  6  0  0  0
 19 52  1  0  0  0  0
 20 23  1  0  0  0  0
 20 53  1  0  0  0  0
 20 54  1  0  0  0  0
 21 55  1  0  0  0  0
 22 56  1  0  0  0  0
 22 57  1  0  0  0  0
 23 58  1  0  0  0  0
 23 59  1  0  0  0  0
 25 60  1  0  0  0  0
 26 28  1  0  0  0  0
 26 29  1  0  0  0  0
 26 61  1  0  0  0  0
 27 62  1  0  0  0  0
 27 63  1  0  0  0  0
 27 64  1  0  0  0  0
 28 65  1  0  0  0  0
 28 66  1  0  0  0  0
 28 67  1  0  0  0  0
 29 68  1  0  0  0  0
 29 69  1  0  0  0  0
 29 70  1  0  0  0  0
 30 31  1  0  0  0  0
 30 72  1  0  0  0  0
 31 32  1  0  0  0  0
 31 73  1  0  0  0  0
 32 34  1  0  0  0  0
 32 74  1  0  0  0  0
 33 34  1  0  0  0  0
 33 35  1  1  0  0  0
 33 75  1  0  0  0  0
 34 76  1  0  0  0  0
 35 78  1  0  0  0  0
 35 79  1  0  0  0  0
 35 80  1  0  0  0  0
 36 38  1  0  0  0  0
 37 81  1  0  0  0  0
 37 82  1  0  0  0  0
 37 83  1  0  0  0  0
 38 39  1  0  0  0  0
 38 84  1  0  0  0  0
 38 85  1  0  0  0  0
 39 40  1  0  0  0  0
 39 86  1  0  0  0  0
 39 87  1  0  0  0  0
 40 41  1  0  0  0  0
 40 88  1  0  0  0  0
 40 89  1  0  0  0  0
 41 42  1  0  0  0  0
 41 90  1  0  0  0  0
 41 91  1  0  0  0  0
 42 43  1  0  0  0  0
 42 92  1  0  0  0  0
 42 93  1  0  0  0  0
 43 44  1  0  0  0  0
 43 94  1  0  0  0  0
 43 95  1  0  0  0  0
 44 96  1  0  0  0  0
 44 97  1  0  0  0  0
 44 98  1  0  0  0  0
M  END
> <PUBCHEM_COMPOUND_CID>
511843
> <PUBCHEM_COMPOUND_CANONICALIZED>
1
> <PUBCHEM_CACTVS_COMPLEXITY>
1120
> <PUBCHEM_CACTVS_HBOND_ACCEPTOR>
9
> <PUBCHEM_CACTVS_HBOND_DONOR>
2
> <PUBCHEM_CACTVS_ROTATABLE_BOND>
15
> <PUBCHEM_CACTVS_SUBSKEYS>
AAADcfB8PAAAAAAAAAAAAAAAAAAAAYMEAAA0QIAABgAAAGAAAAAAGgAACAAADxSwgAMCCAAABgCIAijSiAAAAAAgAAAACAEAAAgREBIAAQAiQAAFwAAPAAPL7PyPgAAAAAAAAACAAAQAACAAAQAACAAAAA==
> <PUBCHEM_IUPAC_OPENEYE_NAME>
(1R,2S,5R,9S)-9-formyl-2-[[(2R,3S,4S,5R,6R)-3-hydroxy-5-methoxy-6-methyl-4-octanoyloxy-tetrahydropyran-2-yl]oxymethyl]-13-isopropyl-5-methyl-tetracyclo[7.4.0.02,11.04,8]tridec-12-ene-1-carboxylic acid
> <PUBCHEM_IUPAC_CAS_NAME>
(1R,2S,5R,9S)-9-formyl-2-[[(2R,3S,4S,5R,6R)-3-hydroxy-5-methoxy-6-methyl-4-(1-oxooctoxy)-2-oxanyl]oxymethyl]-5-methyl-13-propan-2-yl-1-tetracyclo[7.4.0.02,11.04,8]tridec-12-enecarboxylic acid
> <PUBCHEM_IUPAC_NAME_MARKUP>
(1<I>R</I>,2<I>S</I>,5<I>R</I>,9<I>S</I>)-9-formyl-2-[[(2<I>R</I>,3<I>S</I>,4<I>S</I>,5<I>R</I>,6<I>R</I>)-3-hydroxy-5-methoxy-6-methyl-4-octanoyloxyoxan-2-yl]oxymethyl]-5-methyl-13-propan-2-yltetracyclo[7.4.0.0<SUP>2,11</SUP>.0<SUP>4,8</SUP>]tridec-12-ene-1-carboxylic acid
> <PUBCHEM_IUPAC_NAME>
(1R,2S,5R,9S)-9-formyl-2-[[(2R,3S,4S,5R,6R)-3-hydroxy-5-methoxy-6-methyl-4-octanoyloxyoxan-2-yl]oxymethyl]-5-methyl-13-propan-2-yltetracyclo[7.4.0.02,11.04,8]tridec-12-ene-1-carboxylic acid
> <PUBCHEM_IUPAC_SYSTEMATIC_NAME>
(1R,2S,5R,9S)-9-methanoyl-2-[[(2R,3S,4S,5R,6R)-5-methoxy-6-methyl-4-octanoyloxy-3-oxidanyl-oxan-2-yl]oxymethyl]-5-methyl-13-propan-2-yl-tetracyclo[7.4.0.02,11.04,8]tridec-12-ene-1-carboxylic acid
> <PUBCHEM_IUPAC_TRADITIONAL_NAME>
(1R,2S,5R,9S)-2-[[(2R,3S,4S,5R,6R)-4-caprylyloxy-3-hydroxy-5-methoxy-6-methyl-tetrahydropyran-2-yl]oxymethyl]-9-formyl-13-isopropyl-5-methyl-tetracyclo[7.4.0.02,11.04,8]tridec-12-ene-1-carboxylic acid
> <PUBCHEM_IUPAC_INCHI>
InChI=1S/C35H54O9/c1-7-8-9-10-11-12-27(37)44-30-28(38)31(43-22(5)29(30)41-6)42-19-34-17-24-21(4)13-14-25(24)33(18-36)16-23(34)15-26(20(2)3)35(33,34)32(39)40/h15,18,20-25,28-31,38H,7-14,16-17,19H2,1-6H3,(H,39,40)/t21-,22-,23?,24?,25?,28+,29-,30+,31-,33+,34+,35+/m1/s1
> <PUBCHEM_IUPAC_INCHIKEY>
DFHYTFSFKCOUHL-FMYMAPCBSA-N
> <PUBCHEM_XLOGP3_AA>
5.1
> <PUBCHEM_EXACT_MASS>
618.37678330
> <PUBCHEM_MOLECULAR_FORMULA>
C35H54O9
> <PUBCHEM_MOLECULAR_WEIGHT>
618.8
> <PUBCHEM_OPENEYE_CAN_SMILES>
CCCCCCCC(=O)OC1C(C(OC(C1OC)C)OCC23CC4C(CCC4C5(C2(C(=CC3C5)C(C)C)C(=O)O)C=O)C)O
> <PUBCHEM_OPENEYE_ISO_SMILES>
CCCCCCCC(=O)O[C@H]1[C@@H]([C@@H](O[C@@H]([C@H]1OC)C)OC[C@]23CC4[C@@H](CCC4[C@@]5([C@]2(C(=CC3C5)C(C)C)C(=O)O)C=O)C)O
> <PUBCHEM_CACTVS_TPSA>
129
> <PUBCHEM_MONOISOTOPIC_WEIGHT>
618.37678330
> <PUBCHEM_TOTAL_CHARGE>
0
> <PUBCHEM_HEAVY_ATOM_COUNT>
44
> <PUBCHEM_ATOM_DEF_STEREO_COUNT>
9
> <PUBCHEM_ATOM_UDEF_STEREO_COUNT>
3
> <PUBCHEM_BOND_DEF_STEREO_COUNT>
0
> <PUBCHEM_BOND_UDEF_STEREO_COUNT>
0
> <PUBCHEM_ISOTOPIC_ATOM_COUNT>
0
> <PUBCHEM_COMPONENT_COUNT>
1
> <PUBCHEM_CACTVS_TAUTO_COUNT>
-1
> <PUBCHEM_COORDINATE_TYPE>
1
5
255
> <PUBCHEM_BONDANNOTATIONS>
30  1  5
10  22  6
11  24  6
12  25  5
13  20  3
14  16  3
15  17  3
19  27  6
33  35  5
31  6  5
32  7  6
34  8  6
$$$$
