511890
  -OEChem-10302200282D
 33 34  0     1  0  0  0  0  0999 V2000
    4.2690    0.1550    0.0000 O   0  0  0  0  0  0  0  0  0  0  0  0
    4.2690   -2.8450    0.0000 O   0  0  0  0  0  0  0  0  0  0  0  0
    6.0010    0.1550    0.0000 O   0  0  0  0  0  0  0  0  0  0  0  0
    2.5369   -1.8450    0.0000 O   0  0  0  0  0  0  0  0  0  0  0  0
    6.0010   -1.8450    0.0000 O   0  0  0  0  0  0  0  0  0  0  0  0
    4.2690   -1.8450    0.0000 C   0  0  1  0  0  0  0  0  0  0  0  0
    3.4030   -1.3450    0.0000 C   0  0  1  0  0  0  0  0  0  0  0  0
    5.1350   -1.3450    0.0000 C   0  0  2  0  0  0  0  0  0  0  0  0
    3.4030   -0.3450    0.0000 C   0  0  1  0  0  0  0  0  0  0  0  0
    5.1350   -0.3450    0.0000 C   0  0  1  0  0  0  0  0  0  0  0  0
    2.5369    0.1550    0.0000 C   0  0  0  0  0  0  0  0  0  0  0  0
    6.0010    1.1550    0.0000 C   0  0  0  0  0  0  0  0  0  0  0  0
    5.1350    1.6550    0.0000 C   0  0  0  0  0  0  0  0  0  0  0  0
    6.8671    1.6550    0.0000 C   0  0  0  0  0  0  0  0  0  0  0  0
    5.1350    2.6550    0.0000 C   0  0  0  0  0  0  0  0  0  0  0  0
    6.8671    2.6550    0.0000 C   0  0  0  0  0  0  0  0  0  0  0  0
    6.0010    3.1550    0.0000 C   0  0  0  0  0  0  0  0  0  0  0  0
    3.7320   -2.1550    0.0000 H   0  0  0  0  0  0  0  0  0  0  0  0
    3.4030   -1.9650    0.0000 H   0  0  0  0  0  0  0  0  0  0  0  0
    5.1350   -1.9650    0.0000 H   0  0  0  0  0  0  0  0  0  0  0  0
    3.4030    0.2750    0.0000 H   0  0  0  0  0  0  0  0  0  0  0  0
    5.1350    0.2750    0.0000 H   0  0  0  0  0  0  0  0  0  0  0  0
    2.8469    0.6919    0.0000 H   0  0  0  0  0  0  0  0  0  0  0  0
    2.0000    0.4650    0.0000 H   0  0  0  0  0  0  0  0  0  0  0  0
    2.2269   -0.3819    0.0000 H   0  0  0  0  0  0  0  0  0  0  0  0
    3.7320   -3.1550    0.0000 H   0  0  0  0  0  0  0  0  0  0  0  0
    2.0000   -1.5350    0.0000 H   0  0  0  0  0  0  0  0  0  0  0  0
    6.0010   -2.4650    0.0000 H   0  0  0  0  0  0  0  0  0  0  0  0
    4.5981    1.3450    0.0000 H   0  0  0  0  0  0  0  0  0  0  0  0
    7.4040    1.3450    0.0000 H   0  0  0  0  0  0  0  0  0  0  0  0
    4.5981    2.9650    0.0000 H   0  0  0  0  0  0  0  0  0  0  0  0
    7.4040    2.9650    0.0000 H   0  0  0  0  0  0  0  0  0  0  0  0
    6.0010    3.7750    0.0000 H   0  0  0  0  0  0  0  0  0  0  0  0
  1  9  1  0  0  0  0
  1 10  1  0  0  0  0
  6  2  1  1  0  0  0
  2 26  1  0  0  0  0
 10  3  1  1  0  0  0
  3 12  1  0  0  0  0
  7  4  1  6  0  0  0
  4 27  1  0  0  0  0
  8  5  1  6  0  0  0
  5 28  1  0  0  0  0
  6  7  1  0  0  0  0
  6  8  1  0  0  0  0
  6 18  1  0  0  0  0
  7  9  1  0  0  0  0
  7 19  1  0  0  0  0
  8 10  1  0  0  0  0
  8 20  1  0  0  0  0
  9 11  1  1  0  0  0
  9 21  1  0  0  0  0
 10 22  1  0  0  0  0
 11 23  1  0  0  0  0
 11 24  1  0  0  0  0
 11 25  1  0  0  0  0
 12 13  2  0  0  0  0
 12 14  1  0  0  0  0
 13 15  1  0  0  0  0
 13 29  1  0  0  0  0
 14 16  2  0  0  0  0
 14 30  1  0  0  0  0
 15 17  2  0  0  0  0
 15 31  1  0  0  0  0
 16 17  1  0  0  0  0
 16 32  1  0  0  0  0
 17 33  1  0  0  0  0
M  END
> <PUBCHEM_COMPOUND_CID>
511890
> <PUBCHEM_COMPOUND_CANONICALIZED>
1
> <PUBCHEM_CACTVS_COMPLEXITY>
241
> <PUBCHEM_CACTVS_HBOND_ACCEPTOR>
5
> <PUBCHEM_CACTVS_HBOND_DONOR>
3
> <PUBCHEM_CACTVS_ROTATABLE_BOND>
2
> <PUBCHEM_CACTVS_SUBSKEYS>
AAADceBwOAAAAAAAAAAAAAAAAAAAAAAAAAA0QAAAAAAAAAABAAAAGgAACAAACBSwkAMyDoAABgCAACBCAAACCAAgIAAIiAAGCIgdNiKEMRqieCClwBEPqAfAYAwAAAAAAAAAAAAAAAAAAAAAAAAAAAAAAA==
> <PUBCHEM_IUPAC_OPENEYE_NAME>
(2R,3S,4S,5R,6S)-2-methyl-6-phenoxy-tetrahydropyran-3,4,5-triol
> <PUBCHEM_IUPAC_CAS_NAME>
(2R,3S,4S,5R,6S)-2-methyl-6-phenoxyoxane-3,4,5-triol
> <PUBCHEM_IUPAC_NAME_MARKUP>
(2<I>R</I>,3<I>S</I>,4<I>S</I>,5<I>R</I>,6<I>S</I>)-2-methyl-6-phenoxyoxane-3,4,5-triol
> <PUBCHEM_IUPAC_NAME>
(2R,3S,4S,5R,6S)-2-methyl-6-phenoxyoxane-3,4,5-triol
> <PUBCHEM_IUPAC_SYSTEMATIC_NAME>
(2R,3S,4S,5R,6S)-2-methyl-6-phenoxy-oxane-3,4,5-triol
> <PUBCHEM_IUPAC_TRADITIONAL_NAME>
(2R,3S,4S,5R,6S)-2-methyl-6-phenoxy-tetrahydropyran-3,4,5-triol
> <PUBCHEM_IUPAC_INCHI>
InChI=1S/C12H16O5/c1-7-9(13)10(14)11(15)12(16-7)17-8-5-3-2-4-6-8/h2-7,9-15H,1H3/t7-,9-,10+,11-,12+/m1/s1
> <PUBCHEM_IUPAC_INCHIKEY>
REPZTFJHHCCRRS-URYVQPGZSA-N
> <PUBCHEM_XLOGP3>
-0.4
> <PUBCHEM_EXACT_MASS>
240.09977361
> <PUBCHEM_MOLECULAR_FORMULA>
C12H16O5
> <PUBCHEM_MOLECULAR_WEIGHT>
240.25
> <PUBCHEM_OPENEYE_CAN_SMILES>
CC1C(C(C(C(O1)OC2=CC=CC=C2)O)O)O
> <PUBCHEM_OPENEYE_ISO_SMILES>
C[C@@H]1[C@H]([C@@H]([C@H]([C@@H](O1)OC2=CC=CC=C2)O)O)O
> <PUBCHEM_CACTVS_TPSA>
79.2
> <PUBCHEM_MONOISOTOPIC_WEIGHT>
240.09977361
> <PUBCHEM_TOTAL_CHARGE>
0
> <PUBCHEM_HEAVY_ATOM_COUNT>
17
> <PUBCHEM_ATOM_DEF_STEREO_COUNT>
5
> <PUBCHEM_ATOM_UDEF_STEREO_COUNT>
0
> <PUBCHEM_BOND_DEF_STEREO_COUNT>
0
> <PUBCHEM_BOND_UDEF_STEREO_COUNT>
0
> <PUBCHEM_ISOTOPIC_ATOM_COUNT>
0
> <PUBCHEM_COMPONENT_COUNT>
1
> <PUBCHEM_CACTVS_TAUTO_COUNT>
-1
> <PUBCHEM_COORDINATE_TYPE>
1
5
255
> <PUBCHEM_BONDANNOTATIONS>
12  13  8
12  14  8
13  15  8
14  16  8
15  17  8
16  17  8
6  2  5
10  3  5
7  4  6
8  5  6
9  11  5
$$$$
