511865
  -OEChem-10302200282D
165165  0     1  0  0  0  0  0999 V2000
    4.2690   -7.8450    0.0000 O   0  0  0  0  0  0  0  0  0  0  0  0
    6.0010   -7.8450    0.0000 O   0  0  0  0  0  0  0  0  0  0  0  0
    4.2690  -10.8450    0.0000 O   0  0  0  0  0  0  0  0  0  0  0  0
    2.5369   -9.8450    0.0000 O   0  0  0  0  0  0  0  0  0  0  0  0
    6.0010   -9.8450    0.0000 O   0  0  0  0  0  0  0  0  0  0  0  0
    2.5369   -6.8450    0.0000 O   0  0  0  0  0  0  0  0  0  0  0  0
    6.8671   -5.3450    0.0000 O   0  0  0  0  0  0  0  0  0  0  0  0
    8.5991   -6.3450    0.0000 O   0  0  0  0  0  0  0  0  0  0  0  0
    8.5991   -5.3450    0.0000 O   0  0  0  0  0  0  0  0  0  0  0  0
    9.4651   -7.8450    0.0000 O   0  0  0  0  0  0  0  0  0  0  0  0
    4.2690   -9.8450    0.0000 C   0  0  1  0  0  0  0  0  0  0  0  0
    3.4030   -9.3450    0.0000 C   0  0  1  0  0  0  0  0  0  0  0  0
    5.1350   -9.3450    0.0000 C   0  0  2  0  0  0  0  0  0  0  0  0
    3.4030   -8.3450    0.0000 C   0  0  1  0  0  0  0  0  0  0  0  0
    5.1350   -8.3450    0.0000 C   0  0  1  0  0  0  0  0  0  0  0  0
    2.5369   -7.8450    0.0000 C   0  0  0  0  0  0  0  0  0  0  0  0
    6.0010   -6.8450    0.0000 C   0  0  0  0  0  0  0  0  0  0  0  0
    6.8671   -6.3450    0.0000 C   0  0  3  0  0  0  0  0  0  0  0  0
   12.0632    2.6550    0.0000 C   0  0  0  0  0  0  0  0  0  0  0  0
   11.1972    2.1550    0.0000 C   0  0  0  0  0  0  0  0  0  0  0  0
   12.0632    3.6550    0.0000 C   0  0  0  0  0  0  0  0  0  0  0  0
   18.1254   -6.8450    0.0000 C   0  0  0  0  0  0  0  0  0  0  0  0
   11.1972    1.1550    0.0000 C   0  0  0  0  0  0  0  0  0  0  0  0
   18.9914   -6.3450    0.0000 C   0  0  0  0  0  0  0  0  0  0  0  0
   17.2594   -6.3450    0.0000 C   0  0  0  0  0  0  0  0  0  0  0  0
   12.9292    4.1550    0.0000 C   0  0  0  0  0  0  0  0  0  0  0  0
   19.8574   -6.8450    0.0000 C   0  0  0  0  0  0  0  0  0  0  0  0
   16.3933   -6.8450    0.0000 C   0  0  0  0  0  0  0  0  0  0  0  0
   10.3312    0.6550    0.0000 C   0  0  0  0  0  0  0  0  0  0  0  0
   12.9292    5.1550    0.0000 C   0  0  0  0  0  0  0  0  0  0  0  0
   20.7235   -6.3450    0.0000 C   0  0  0  0  0  0  0  0  0  0  0  0
   15.5273   -6.3450    0.0000 C   0  0  0  0  0  0  0  0  0  0  0  0
   10.3312   -0.3450    0.0000 C   0  0  0  0  0  0  0  0  0  0  0  0
   13.7953    5.6550    0.0000 C   0  0  0  0  0  0  0  0  0  0  0  0
   21.5895   -6.8450    0.0000 C   0  0  0  0  0  0  0  0  0  0  0  0
   14.6613   -6.8450    0.0000 C   0  0  0  0  0  0  0  0  0  0  0  0
    9.4651   -0.8450    0.0000 C   0  0  0  0  0  0  0  0  0  0  0  0
   13.7953    6.6550    0.0000 C   0  0  0  0  0  0  0  0  0  0  0  0
   22.4555   -6.3450    0.0000 C   0  0  0  0  0  0  0  0  0  0  0  0
   13.7953   -6.3450    0.0000 C   0  0  0  0  0  0  0  0  0  0  0  0
    9.4651   -1.8450    0.0000 C   0  0  0  0  0  0  0  0  0  0  0  0
    7.7331   -6.8450    0.0000 C   0  0  0  0  0  0  0  0  0  0  0  0
   14.6613    7.1550    0.0000 C   0  0  0  0  0  0  0  0  0  0  0  0
   23.3215   -6.8450    0.0000 C   0  0  0  0  0  0  0  0  0  0  0  0
   12.9292   -6.8450    0.0000 C   0  0  0  0  0  0  0  0  0  0  0  0
    8.5991   -2.3450    0.0000 C   0  0  0  0  0  0  0  0  0  0  0  0
   12.0632   -6.3450    0.0000 C   0  0  0  0  0  0  0  0  0  0  0  0
    8.5991   -3.3450    0.0000 C   0  0  0  0  0  0  0  0  0  0  0  0
   14.6613    8.1550    0.0000 C   0  0  0  0  0  0  0  0  0  0  0  0
   24.1876   -6.3450    0.0000 C   0  0  0  0  0  0  0  0  0  0  0  0
    7.7331   -3.8450    0.0000 C   0  0  0  0  0  0  0  0  0  0  0  0
   11.1972   -6.8450    0.0000 C   0  0  0  0  0  0  0  0  0  0  0  0
   15.5273    8.6550    0.0000 C   0  0  0  0  0  0  0  0  0  0  0  0
   25.0536   -6.8450    0.0000 C   0  0  0  0  0  0  0  0  0  0  0  0
    7.7331   -4.8450    0.0000 C   0  0  0  0  0  0  0  0  0  0  0  0
   10.3312   -6.3450    0.0000 C   0  0  0  0  0  0  0  0  0  0  0  0
   15.5273    9.6550    0.0000 C   0  0  0  0  0  0  0  0  0  0  0  0
   25.9196   -6.3450    0.0000 C   0  0  0  0  0  0  0  0  0  0  0  0
    9.4651   -6.8450    0.0000 C   0  0  0  0  0  0  0  0  0  0  0  0
   16.3933   10.1550    0.0000 C   0  0  0  0  0  0  0  0  0  0  0  0
   26.7856   -6.8450    0.0000 C   0  0  0  0  0  0  0  0  0  0  0  0
   16.3933   11.1550    0.0000 C   0  0  0  0  0  0  0  0  0  0  0  0
   27.6517   -6.3450    0.0000 C   0  0  0  0  0  0  0  0  0  0  0  0
    3.7320  -10.1550    0.0000 H   0  0  0  0  0  0  0  0  0  0  0  0
    3.4030   -9.9650    0.0000 H   0  0  0  0  0  0  0  0  0  0  0  0
    5.1350   -9.9650    0.0000 H   0  0  0  0  0  0  0  0  0  0  0  0
    3.4030   -7.7250    0.0000 H   0  0  0  0  0  0  0  0  0  0  0  0
    5.1350   -7.7250    0.0000 H   0  0  0  0  0  0  0  0  0  0  0  0
    1.9264   -7.7373    0.0000 H   0  0  0  0  0  0  0  0  0  0  0  0
    2.3249   -8.4276    0.0000 H   0  0  0  0  0  0  0  0  0  0  0  0
    3.7320  -11.1550    0.0000 H   0  0  0  0  0  0  0  0  0  0  0  0
    2.0000   -9.5350    0.0000 H   0  0  0  0  0  0  0  0  0  0  0  0
    5.7890   -6.2624    0.0000 H   0  0  0  0  0  0  0  0  0  0  0  0
    5.3905   -6.9527    0.0000 H   0  0  0  0  0  0  0  0  0  0  0  0
    6.5380   -9.5350    0.0000 H   0  0  0  0  0  0  0  0  0  0  0  0
    7.4040   -6.0350    0.0000 H   0  0  0  0  0  0  0  0  0  0  0  0
   12.2753    2.0724    0.0000 H   0  0  0  0  0  0  0  0  0  0  0  0
   12.6738    2.7627    0.0000 H   0  0  0  0  0  0  0  0  0  0  0  0
   10.9851    2.7376    0.0000 H   0  0  0  0  0  0  0  0  0  0  0  0
   10.5866    2.0473    0.0000 H   0  0  0  0  0  0  0  0  0  0  0  0
   11.8512    4.2376    0.0000 H   0  0  0  0  0  0  0  0  0  0  0  0
   11.4526    3.5473    0.0000 H   0  0  0  0  0  0  0  0  0  0  0  0
   17.7269   -7.3200    0.0000 H   0  0  0  0  0  0  0  0  0  0  0  0
   18.5239   -7.3200    0.0000 H   0  0  0  0  0  0  0  0  0  0  0  0
   11.4092    0.5724    0.0000 H   0  0  0  0  0  0  0  0  0  0  0  0
   11.8078    1.2627    0.0000 H   0  0  0  0  0  0  0  0  0  0  0  0
   19.3899   -5.8700    0.0000 H   0  0  0  0  0  0  0  0  0  0  0  0
   18.5929   -5.8700    0.0000 H   0  0  0  0  0  0  0  0  0  0  0  0
   17.6579   -5.8700    0.0000 H   0  0  0  0  0  0  0  0  0  0  0  0
   16.8608   -5.8700    0.0000 H   0  0  0  0  0  0  0  0  0  0  0  0
   13.1413    3.5724    0.0000 H   0  0  0  0  0  0  0  0  0  0  0  0
   13.5398    4.2627    0.0000 H   0  0  0  0  0  0  0  0  0  0  0  0
   19.4589   -7.3200    0.0000 H   0  0  0  0  0  0  0  0  0  0  0  0
   20.2560   -7.3200    0.0000 H   0  0  0  0  0  0  0  0  0  0  0  0
   15.9948   -7.3200    0.0000 H   0  0  0  0  0  0  0  0  0  0  0  0
   16.7919   -7.3200    0.0000 H   0  0  0  0  0  0  0  0  0  0  0  0
   10.1191    1.2376    0.0000 H   0  0  0  0  0  0  0  0  0  0  0  0
    9.7206    0.5473    0.0000 H   0  0  0  0  0  0  0  0  0  0  0  0
   12.7172    5.7376    0.0000 H   0  0  0  0  0  0  0  0  0  0  0  0
   12.3187    5.0473    0.0000 H   0  0  0  0  0  0  0  0  0  0  0  0
   21.1220   -5.8700    0.0000 H   0  0  0  0  0  0  0  0  0  0  0  0
   20.3249   -5.8700    0.0000 H   0  0  0  0  0  0  0  0  0  0  0  0
   15.9258   -5.8700    0.0000 H   0  0  0  0  0  0  0  0  0  0  0  0
   15.1288   -5.8700    0.0000 H   0  0  0  0  0  0  0  0  0  0  0  0
   10.5432   -0.9276    0.0000 H   0  0  0  0  0  0  0  0  0  0  0  0
   10.9417   -0.2373    0.0000 H   0  0  0  0  0  0  0  0  0  0  0  0
   14.0073    5.0724    0.0000 H   0  0  0  0  0  0  0  0  0  0  0  0
   14.4058    5.7627    0.0000 H   0  0  0  0  0  0  0  0  0  0  0  0
   21.1910   -7.3200    0.0000 H   0  0  0  0  0  0  0  0  0  0  0  0
   21.9880   -7.3200    0.0000 H   0  0  0  0  0  0  0  0  0  0  0  0
   14.2628   -7.3200    0.0000 H   0  0  0  0  0  0  0  0  0  0  0  0
   15.0598   -7.3200    0.0000 H   0  0  0  0  0  0  0  0  0  0  0  0
    9.2531   -0.2624    0.0000 H   0  0  0  0  0  0  0  0  0  0  0  0
    8.8546   -0.9527    0.0000 H   0  0  0  0  0  0  0  0  0  0  0  0
   13.5832    7.2376    0.0000 H   0  0  0  0  0  0  0  0  0  0  0  0
   13.1847    6.5473    0.0000 H   0  0  0  0  0  0  0  0  0  0  0  0
   22.8540   -5.8700    0.0000 H   0  0  0  0  0  0  0  0  0  0  0  0
   22.0570   -5.8700    0.0000 H   0  0  0  0  0  0  0  0  0  0  0  0
    2.0000   -6.5350    0.0000 H   0  0  0  0  0  0  0  0  0  0  0  0
   14.1938   -5.8700    0.0000 H   0  0  0  0  0  0  0  0  0  0  0  0
   13.3967   -5.8700    0.0000 H   0  0  0  0  0  0  0  0  0  0  0  0
    9.6772   -2.4276    0.0000 H   0  0  0  0  0  0  0  0  0  0  0  0
   10.0757   -1.7373    0.0000 H   0  0  0  0  0  0  0  0  0  0  0  0
    7.3346   -7.3200    0.0000 H   0  0  0  0  0  0  0  0  0  0  0  0
    8.1316   -7.3200    0.0000 H   0  0  0  0  0  0  0  0  0  0  0  0
   14.8733    6.5724    0.0000 H   0  0  0  0  0  0  0  0  0  0  0  0
   15.2719    7.2627    0.0000 H   0  0  0  0  0  0  0  0  0  0  0  0
   22.9230   -7.3200    0.0000 H   0  0  0  0  0  0  0  0  0  0  0  0
   23.7201   -7.3200    0.0000 H   0  0  0  0  0  0  0  0  0  0  0  0
   12.5307   -7.3200    0.0000 H   0  0  0  0  0  0  0  0  0  0  0  0
   13.3278   -7.3200    0.0000 H   0  0  0  0  0  0  0  0  0  0  0  0
    8.3871   -1.7624    0.0000 H   0  0  0  0  0  0  0  0  0  0  0  0
    7.9885   -2.4527    0.0000 H   0  0  0  0  0  0  0  0  0  0  0  0
   12.4617   -5.8700    0.0000 H   0  0  0  0  0  0  0  0  0  0  0  0
   11.6647   -5.8700    0.0000 H   0  0  0  0  0  0  0  0  0  0  0  0
    8.8112   -3.9276    0.0000 H   0  0  0  0  0  0  0  0  0  0  0  0
    9.2097   -3.2373    0.0000 H   0  0  0  0  0  0  0  0  0  0  0  0
   14.4492    8.7376    0.0000 H   0  0  0  0  0  0  0  0  0  0  0  0
   14.0507    8.0473    0.0000 H   0  0  0  0  0  0  0  0  0  0  0  0
   24.5861   -5.8700    0.0000 H   0  0  0  0  0  0  0  0  0  0  0  0
   23.7890   -5.8700    0.0000 H   0  0  0  0  0  0  0  0  0  0  0  0
    7.5210   -3.2624    0.0000 H   0  0  0  0  0  0  0  0  0  0  0  0
    7.1225   -3.9527    0.0000 H   0  0  0  0  0  0  0  0  0  0  0  0
   10.7987   -7.3200    0.0000 H   0  0  0  0  0  0  0  0  0  0  0  0
   11.5957   -7.3200    0.0000 H   0  0  0  0  0  0  0  0  0  0  0  0
   15.7394    8.0724    0.0000 H   0  0  0  0  0  0  0  0  0  0  0  0
   16.1379    8.7627    0.0000 H   0  0  0  0  0  0  0  0  0  0  0  0
   24.6551   -7.3200    0.0000 H   0  0  0  0  0  0  0  0  0  0  0  0
   25.4521   -7.3200    0.0000 H   0  0  0  0  0  0  0  0  0  0  0  0
   10.7297   -5.8700    0.0000 H   0  0  0  0  0  0  0  0  0  0  0  0
    9.9326   -5.8700    0.0000 H   0  0  0  0  0  0  0  0  0  0  0  0
   15.3153   10.2376    0.0000 H   0  0  0  0  0  0  0  0  0  0  0  0
   14.9167    9.5473    0.0000 H   0  0  0  0  0  0  0  0  0  0  0  0
   26.3182   -5.8700    0.0000 H   0  0  0  0  0  0  0  0  0  0  0  0
   25.5211   -5.8700    0.0000 H   0  0  0  0  0  0  0  0  0  0  0  0
   16.6054    9.5724    0.0000 H   0  0  0  0  0  0  0  0  0  0  0  0
   17.0039   10.2627    0.0000 H   0  0  0  0  0  0  0  0  0  0  0  0
   26.3871   -7.3200    0.0000 H   0  0  0  0  0  0  0  0  0  0  0  0
   27.1842   -7.3200    0.0000 H   0  0  0  0  0  0  0  0  0  0  0  0
   17.0133   11.1550    0.0000 H   0  0  0  0  0  0  0  0  0  0  0  0
   16.3933   11.7750    0.0000 H   0  0  0  0  0  0  0  0  0  0  0  0
   15.7733   11.1550    0.0000 H   0  0  0  0  0  0  0  0  0  0  0  0
   27.9617   -6.8819    0.0000 H   0  0  0  0  0  0  0  0  0  0  0  0
   28.1886   -6.0350    0.0000 H   0  0  0  0  0  0  0  0  0  0  0  0
   27.3417   -5.8081    0.0000 H   0  0  0  0  0  0  0  0  0  0  0  0
  1 14  1  0  0  0  0
  1 15  1  0  0  0  0
 15  2  1  1  0  0  0
  2 17  1  0  0  0  0
 11  3  1  1  0  0  0
  3 71  1  0  0  0  0
 12  4  1  6  0  0  0
  4 72  1  0  0  0  0
 13  5  1  6  0  0  0
  5 75  1  0  0  0  0
  6 16  1  0  0  0  0
  6119  1  0  0  0  0
  7 18  1  0  0  0  0
  7 55  1  0  0  0  0
  8 42  1  0  0  0  0
  8 59  1  0  0  0  0
  9 55  2  0  0  0  0
 10 59  2  0  0  0  0
 11 12  1  0  0  0  0
 11 13  1  0  0  0  0
 11 64  1  0  0  0  0
 12 14  1  0  0  0  0
 12 65  1  0  0  0  0
 13 15  1  0  0  0  0
 13 66  1  0  0  0  0
 14 16  1  1  0  0  0
 14 67  1  0  0  0  0
 15 68  1  0  0  0  0
 16 69  1  0  0  0  0
 16 70  1  0  0  0  0
 17 18  1  0  0  0  0
 17 73  1  0  0  0  0
 17 74  1  0  0  0  0
 18 42  1  0  0  0  0
 18 76  1  0  0  0  0
 19 20  1  0  0  0  0
 19 21  1  0  0  0  0
 19 77  1  0  0  0  0
 19 78  1  0  0  0  0
 20 23  1  0  0  0  0
 20 79  1  0  0  0  0
 20 80  1  0  0  0  0
 21 26  1  0  0  0  0
 21 81  1  0  0  0  0
 21 82  1  0  0  0  0
 22 24  1  0  0  0  0
 22 25  1  0  0  0  0
 22 83  1  0  0  0  0
 22 84  1  0  0  0  0
 23 29  1  0  0  0  0
 23 85  1  0  0  0  0
 23 86  1  0  0  0  0
 24 27  1  0  0  0  0
 24 87  1  0  0  0  0
 24 88  1  0  0  0  0
 25 28  1  0  0  0  0
 25 89  1  0  0  0  0
 25 90  1  0  0  0  0
 26 30  1  0  0  0  0
 26 91  1  0  0  0  0
 26 92  1  0  0  0  0
 27 31  1  0  0  0  0
 27 93  1  0  0  0  0
 27 94  1  0  0  0  0
 28 32  1  0  0  0  0
 28 95  1  0  0  0  0
 28 96  1  0  0  0  0
 29 33  1  0  0  0  0
 29 97  1  0  0  0  0
 29 98  1  0  0  0  0
 30 34  1  0  0  0  0
 30 99  1  0  0  0  0
 30100  1  0  0  0  0
 31 35  1  0  0  0  0
 31101  1  0  0  0  0
 31102  1  0  0  0  0
 32 36  1  0  0  0  0
 32103  1  0  0  0  0
 32104  1  0  0  0  0
 33 37  1  0  0  0  0
 33105  1  0  0  0  0
 33106  1  0  0  0  0
 34 38  1  0  0  0  0
 34107  1  0  0  0  0
 34108  1  0  0  0  0
 35 39  1  0  0  0  0
 35109  1  0  0  0  0
 35110  1  0  0  0  0
 36 40  1  0  0  0  0
 36111  1  0  0  0  0
 36112  1  0  0  0  0
 37 41  1  0  0  0  0
 37113  1  0  0  0  0
 37114  1  0  0  0  0
 38 43  1  0  0  0  0
 38115  1  0  0  0  0
 38116  1  0  0  0  0
 39 44  1  0  0  0  0
 39117  1  0  0  0  0
 39118  1  0  0  0  0
 40 45  1  0  0  0  0
 40120  1  0  0  0  0
 40121  1  0  0  0  0
 41 46  1  0  0  0  0
 41122  1  0  0  0  0
 41123  1  0  0  0  0
 42124  1  0  0  0  0
 42125  1  0  0  0  0
 43 49  1  0  0  0  0
 43126  1  0  0  0  0
 43127  1  0  0  0  0
 44 50  1  0  0  0  0
 44128  1  0  0  0  0
 44129  1  0  0  0  0
 45 47  1  0  0  0  0
 45130  1  0  0  0  0
 45131  1  0  0  0  0
 46 48  1  0  0  0  0
 46132  1  0  0  0  0
 46133  1  0  0  0  0
 47 52  1  0  0  0  0
 47134  1  0  0  0  0
 47135  1  0  0  0  0
 48 51  1  0  0  0  0
 48136  1  0  0  0  0
 48137  1  0  0  0  0
 49 53  1  0  0  0  0
 49138  1  0  0  0  0
 49139  1  0  0  0  0
 50 54  1  0  0  0  0
 50140  1  0  0  0  0
 50141  1  0  0  0  0
 51 55  1  0  0  0  0
 51142  1  0  0  0  0
 51143  1  0  0  0  0
 52 56  1  0  0  0  0
 52144  1  0  0  0  0
 52145  1  0  0  0  0
 53 57  1  0  0  0  0
 53146  1  0  0  0  0
 53147  1  0  0  0  0
 54 58  1  0  0  0  0
 54148  1  0  0  0  0
 54149  1  0  0  0  0
 56 59  1  0  0  0  0
 56150  1  0  0  0  0
 56151  1  0  0  0  0
 57 60  1  0  0  0  0
 57152  1  0  0  0  0
 57153  1  0  0  0  0
 58 61  1  0  0  0  0
 58154  1  0  0  0  0
 58155  1  0  0  0  0
 60 62  1  0  0  0  0
 60156  1  0  0  0  0
 60157  1  0  0  0  0
 61 63  1  0  0  0  0
 61158  1  0  0  0  0
 61159  1  0  0  0  0
 62160  1  0  0  0  0
 62161  1  0  0  0  0
 62162  1  0  0  0  0
 63163  1  0  0  0  0
 63164  1  0  0  0  0
 63165  1  0  0  0  0
M  END
> <PUBCHEM_COMPOUND_CID>
511865
> <PUBCHEM_COMPOUND_CANONICALIZED>
1
> <PUBCHEM_CACTVS_COMPLEXITY>
997
> <PUBCHEM_CACTVS_HBOND_ACCEPTOR>
10
> <PUBCHEM_CACTVS_HBOND_DONOR>
4
> <PUBCHEM_CACTVS_ROTATABLE_BOND>
49
> <PUBCHEM_CACTVS_SUBSKEYS>
AAADcfB8PAAAAAAAAAAAAAAAAAAAAAAAAAAkAAAAAAAAAAAAAAAAGgAACAAACBSwgAMCCAAABgAIAACQCAAAAAAAAAAAAAEAAAAREBIAAAAiQAAFAAAHAAHI6KyAAAAAAAAAAAAAAAAAAAAAAAAAAAAAAA==
> <PUBCHEM_IUPAC_OPENEYE_NAME>
[2-docosanoyloxy-3-[(2R,3R,4S,5S,6R)-3,4,5-trihydroxy-6-(hydroxymethyl)tetrahydropyran-2-yl]oxy-propyl] docosanoate
> <PUBCHEM_IUPAC_CAS_NAME>
docosanoic acid [2-(1-oxodocosoxy)-3-[[(2R,3R,4S,5S,6R)-3,4,5-trihydroxy-6-(hydroxymethyl)-2-oxanyl]oxy]propyl] ester
> <PUBCHEM_IUPAC_NAME_MARKUP>
[2-docosanoyloxy-3-[(2<I>R</I>,3<I>R</I>,4<I>S</I>,5<I>S</I>,6<I>R</I>)-3,4,5-trihydroxy-6-(hydroxymethyl)oxan-2-yl]oxypropyl] docosanoate
> <PUBCHEM_IUPAC_NAME>
[2-docosanoyloxy-3-[(2R,3R,4S,5S,6R)-3,4,5-trihydroxy-6-(hydroxymethyl)oxan-2-yl]oxypropyl] docosanoate
> <PUBCHEM_IUPAC_SYSTEMATIC_NAME>
[2-docosanoyloxy-3-[(2R,3R,4S,5S,6R)-6-(hydroxymethyl)-3,4,5-tris(oxidanyl)oxan-2-yl]oxy-propyl] docosanoate
> <PUBCHEM_IUPAC_TRADITIONAL_NAME>
behenic acid [2-docosanoyloxy-3-[(2R,3R,4S,5S,6R)-3,4,5-trihydroxy-6-methylol-tetrahydropyran-2-yl]oxy-propyl] ester
> <PUBCHEM_IUPAC_INCHI>
InChI=1S/C53H102O10/c1-3-5-7-9-11-13-15-17-19-21-23-25-27-29-31-33-35-37-39-41-48(55)60-44-46(45-61-53-52(59)51(58)50(57)47(43-54)63-53)62-49(56)42-40-38-36-34-32-30-28-26-24-22-20-18-16-14-12-10-8-6-4-2/h46-47,50-54,57-59H,3-45H2,1-2H3/t46?,47-,50-,51+,52-,53-/m1/s1
> <PUBCHEM_IUPAC_INCHIKEY>
SLMUZMTWRUVFLM-PQUHKJBHSA-N
> <PUBCHEM_XLOGP3_AA>
18.9
> <PUBCHEM_EXACT_MASS>
898.74729945
> <PUBCHEM_MOLECULAR_FORMULA>
C53H102O10
> <PUBCHEM_MOLECULAR_WEIGHT>
899.4
> <PUBCHEM_OPENEYE_CAN_SMILES>
CCCCCCCCCCCCCCCCCCCCCC(=O)OCC(COC1C(C(C(C(O1)CO)O)O)O)OC(=O)CCCCCCCCCCCCCCCCCCCCC
> <PUBCHEM_OPENEYE_ISO_SMILES>
CCCCCCCCCCCCCCCCCCCCCC(=O)OCC(CO[C@H]1[C@@H]([C@H]([C@@H]([C@H](O1)CO)O)O)O)OC(=O)CCCCCCCCCCCCCCCCCCCCC
> <PUBCHEM_CACTVS_TPSA>
152
> <PUBCHEM_MONOISOTOPIC_WEIGHT>
898.74729945
> <PUBCHEM_TOTAL_CHARGE>
0
> <PUBCHEM_HEAVY_ATOM_COUNT>
63
> <PUBCHEM_ATOM_DEF_STEREO_COUNT>
5
> <PUBCHEM_ATOM_UDEF_STEREO_COUNT>
1
> <PUBCHEM_BOND_DEF_STEREO_COUNT>
0
> <PUBCHEM_BOND_UDEF_STEREO_COUNT>
0
> <PUBCHEM_ISOTOPIC_ATOM_COUNT>
0
> <PUBCHEM_COMPONENT_COUNT>
1
> <PUBCHEM_CACTVS_TAUTO_COUNT>
-1
> <PUBCHEM_COORDINATE_TYPE>
1
5
255
> <PUBCHEM_BONDANNOTATIONS>
14  16  5
18  17  3
15  2  5
11  3  5
12  4  6
13  5  6
$$$$
