511857
  -OEChem-10302200282D
 32 34  0     1  0  0  0  0  0999 V2000
    5.9405   -0.7140    0.0000 O   0  0  0  0  0  0  0  0  0  0  0  0
    4.9917   -2.0246    0.0000 O   0  0  0  0  0  0  0  0  0  0  0  0
    6.6495   -3.2951    0.0000 O   0  0  0  0  0  0  0  0  0  0  0  0
    4.6783    0.5439    0.0000 N   0  0  0  0  0  0  0  0  0  0  0  0
    2.8660    0.3486    0.0000 N   0  0  0  0  0  0  0  0  0  0  0  0
    2.0000    1.8486    0.0000 N   0  0  0  0  0  0  0  0  0  0  0  0
    2.8660    3.3486    0.0000 N   0  0  0  0  0  0  0  0  0  0  0  0
    4.9889   -0.4066    0.0000 C   0  0  1  0  0  0  0  0  0  0  0  0
    4.4026   -1.2166    0.0000 C   0  0  1  0  0  0  0  0  0  0  0  0
    5.9422   -1.7140    0.0000 C   0  0  1  0  0  0  0  0  0  0  0  0
    3.4026   -1.2184    0.0000 C   0  0  0  0  0  0  0  0  0  0  0  0
    3.7320    0.8486    0.0000 C   0  0  0  0  0  0  0  0  0  0  0  0
    5.2619    1.3486    0.0000 C   0  0  0  0  0  0  0  0  0  0  0  0
    3.7320    1.8486    0.0000 C   0  0  0  0  0  0  0  0  0  0  0  0
    6.7523   -2.3004    0.0000 C   0  0  0  0  0  0  0  0  0  0  0  0
    4.6783    2.1534    0.0000 C   0  0  0  0  0  0  0  0  0  0  0  0
    2.8660    2.3486    0.0000 C   0  0  0  0  0  0  0  0  0  0  0  0
    2.0000    0.8486    0.0000 C   0  0  0  0  0  0  0  0  0  0  0  0
    5.4266    0.0325    0.0000 H   0  0  0  0  0  0  0  0  0  0  0  0
    4.1220   -1.7696    0.0000 H   0  0  0  0  0  0  0  0  0  0  0  0
    6.4942   -1.4316    0.0000 H   0  0  0  0  0  0  0  0  0  0  0  0
    3.4015   -0.5984    0.0000 H   0  0  0  0  0  0  0  0  0  0  0  0
    2.7826   -1.2195    0.0000 H   0  0  0  0  0  0  0  0  0  0  0  0
    3.4036   -1.8384    0.0000 H   0  0  0  0  0  0  0  0  0  0  0  0
    5.8819    1.3486    0.0000 H   0  0  0  0  0  0  0  0  0  0  0  0
    7.3486   -2.4702    0.0000 H   0  0  0  0  0  0  0  0  0  0  0  0
    7.0231   -1.7426    0.0000 H   0  0  0  0  0  0  0  0  0  0  0  0
    4.8709    2.7427    0.0000 H   0  0  0  0  0  0  0  0  0  0  0  0
    1.4631    0.5386    0.0000 H   0  0  0  0  0  0  0  0  0  0  0  0
    7.1517   -3.6586    0.0000 H   0  0  0  0  0  0  0  0  0  0  0  0
    2.3291    3.6586    0.0000 H   0  0  0  0  0  0  0  0  0  0  0  0
    3.4030    3.6586    0.0000 H   0  0  0  0  0  0  0  0  0  0  0  0
  1  8  1  0  0  0  0
  1 10  1  0  0  0  0
  2  9  1  0  0  0  0
  2 10  1  0  0  0  0
  3 15  1  0  0  0  0
  3 30  1  0  0  0  0
  8  4  1  6  0  0  0
  4 12  1  0  0  0  0
  4 13  1  0  0  0  0
  5 12  2  0  0  0  0
  5 18  1  0  0  0  0
  6 17  1  0  0  0  0
  6 18  2  0  0  0  0
  7 17  1  0  0  0  0
  7 31  1  0  0  0  0
  7 32  1  0  0  0  0
  8  9  1  0  0  0  0
  8 19  1  0  0  0  0
  9 11  1  6  0  0  0
  9 20  1  0  0  0  0
 10 15  1  6  0  0  0
 10 21  1  0  0  0  0
 11 22  1  0  0  0  0
 11 23  1  0  0  0  0
 11 24  1  0  0  0  0
 12 14  1  0  0  0  0
 13 16  2  0  0  0  0
 13 25  1  0  0  0  0
 14 16  1  0  0  0  0
 14 17  2  0  0  0  0
 15 26  1  0  0  0  0
 15 27  1  0  0  0  0
 16 28  1  0  0  0  0
 18 29  1  0  0  0  0
M  END
> <PUBCHEM_COMPOUND_CID>
511857
> <PUBCHEM_COMPOUND_CANONICALIZED>
1
> <PUBCHEM_CACTVS_COMPLEXITY>
306
> <PUBCHEM_CACTVS_HBOND_ACCEPTOR>
6
> <PUBCHEM_CACTVS_HBOND_DONOR>
2
> <PUBCHEM_CACTVS_ROTATABLE_BOND>
2
> <PUBCHEM_CACTVS_SUBSKEYS>
AAADccBzsAAAAAAAAAAAAAAAAAAAAWJAAAAsAAAAAAAAAFgB+AAAHgAQCAAADBTxmwc/uN9MFgCgAjJnZACCgCkxAqAJ2CA4ZJibOMBAyMEvBAhIAALXQCAAAAAIAAAAAAAAAAAAAAAAAAAAAAAAAAAAAA==
> <PUBCHEM_IUPAC_OPENEYE_NAME>
[(2R,4R,5R)-4-(4-aminopyrrolo[2,3-d]pyrimidin-7-yl)-5-methyl-1,3-dioxolan-2-yl]methanol
> <PUBCHEM_IUPAC_CAS_NAME>
[(2R,4R,5R)-4-(4-amino-7-pyrrolo[2,3-d]pyrimidinyl)-5-methyl-1,3-dioxolan-2-yl]methanol
> <PUBCHEM_IUPAC_NAME_MARKUP>
[(2<I>R</I>,4<I>R</I>,5<I>R</I>)-4-(4-aminopyrrolo[2,3-d]pyrimidin-7-yl)-5-methyl-1,3-dioxolan-2-yl]methanol
> <PUBCHEM_IUPAC_NAME>
[(2R,4R,5R)-4-(4-aminopyrrolo[2,3-d]pyrimidin-7-yl)-5-methyl-1,3-dioxolan-2-yl]methanol
> <PUBCHEM_IUPAC_SYSTEMATIC_NAME>
[(2R,4R,5R)-4-(4-azanylpyrrolo[2,3-d]pyrimidin-7-yl)-5-methyl-1,3-dioxolan-2-yl]methanol
> <PUBCHEM_IUPAC_TRADITIONAL_NAME>
[(2R,4R,5R)-4-(4-aminopyrrolo[2,3-d]pyrimidin-7-yl)-5-methyl-1,3-dioxolan-2-yl]methanol
> <PUBCHEM_IUPAC_INCHI>
InChI=1S/C11H14N4O3/c1-6-11(18-8(4-16)17-6)15-3-2-7-9(12)13-5-14-10(7)15/h2-3,5-6,8,11,16H,4H2,1H3,(H2,12,13,14)/t6-,8-,11-/m1/s1
> <PUBCHEM_IUPAC_INCHIKEY>
LEEQGAKZDJMHNM-AZTOOPQRSA-N
> <PUBCHEM_XLOGP3_AA>
-0.3
> <PUBCHEM_EXACT_MASS>
250.10659032
> <PUBCHEM_MOLECULAR_FORMULA>
C11H14N4O3
> <PUBCHEM_MOLECULAR_WEIGHT>
250.25
> <PUBCHEM_OPENEYE_CAN_SMILES>
CC1C(OC(O1)CO)N2C=CC3=C(N=CN=C32)N
> <PUBCHEM_OPENEYE_ISO_SMILES>
C[C@@H]1[C@@H](O[C@@H](O1)CO)N2C=CC3=C(N=CN=C32)N
> <PUBCHEM_CACTVS_TPSA>
95.4
> <PUBCHEM_MONOISOTOPIC_WEIGHT>
250.10659032
> <PUBCHEM_TOTAL_CHARGE>
0
> <PUBCHEM_HEAVY_ATOM_COUNT>
18
> <PUBCHEM_ATOM_DEF_STEREO_COUNT>
3
> <PUBCHEM_ATOM_UDEF_STEREO_COUNT>
0
> <PUBCHEM_BOND_DEF_STEREO_COUNT>
0
> <PUBCHEM_BOND_UDEF_STEREO_COUNT>
0
> <PUBCHEM_ISOTOPIC_ATOM_COUNT>
0
> <PUBCHEM_COMPONENT_COUNT>
1
> <PUBCHEM_CACTVS_TAUTO_COUNT>
-1
> <PUBCHEM_COORDINATE_TYPE>
1
5
255
> <PUBCHEM_BONDANNOTATIONS>
10  15  6
12  14  8
13  16  8
14  16  8
14  17  8
4  12  8
4  13  8
8  4  6
5  12  8
5  18  8
6  17  8
6  18  8
9  11  6
$$$$
