511812
  -OEChem-10302200282D
 44 47  0     1  0  0  0  0  0999 V2000
    2.7720    1.0187    0.0000 N   0  0  0  0  0  0  0  0  0  0  0  0
    3.6730   -0.4152    0.0000 C   0  0  0  0  0  0  0  0  0  0  0  0
    4.5092   -1.8635    0.0000 C   0  0  0  0  0  0  0  0  0  0  0  0
    2.8368   -1.8635    0.0000 C   0  0  0  0  0  0  0  0  0  0  0  0
    2.9819   -2.2986    0.0000 C   0  0  0  0  0  0  0  0  0  0  0  0
    4.5092   -0.8980    0.0000 C   0  0  0  0  0  0  0  0  0  0  0  0
    2.8368   -0.8980    0.0000 C   0  0  0  0  0  0  0  0  0  0  0  0
    2.9819   -1.2533    0.0000 C   0  0  0  0  0  0  0  0  0  0  0  0
    3.6730   -2.1663    0.0000 C   0  0  0  0  0  0  0  0  0  0  0  0
    3.8876   -2.7754    0.0000 C   0  0  0  0  0  0  0  0  0  0  0  0
    2.0000   -2.3463    0.0000 C   0  0  0  0  0  0  0  0  0  0  0  0
    3.6730    0.5848    0.0000 C   0  0  3  0  0  0  0  0  0  0  0  0
    4.5740    1.0187    0.0000 C   0  0  0  0  0  0  0  0  0  0  0  0
    4.7965    1.9936    0.0000 C   0  0  0  0  0  0  0  0  0  0  0  0
    2.5495    1.9936    0.0000 C   0  0  0  0  0  0  0  0  0  0  0  0
    4.1730    2.7754    0.0000 C   0  0  0  0  0  0  0  0  0  0  0  0
    3.1730    2.7754    0.0000 C   0  0  0  0  0  0  0  0  0  0  0  0
    5.1016   -2.0463    0.0000 H   0  0  0  0  0  0  0  0  0  0  0  0
    3.3444   -1.5075    0.0000 H   0  0  0  0  0  0  0  0  0  0  0  0
    2.8478   -2.9040    0.0000 H   0  0  0  0  0  0  0  0  0  0  0  0
    5.1198   -1.0057    0.0000 H   0  0  0  0  0  0  0  0  0  0  0  0
    4.7212   -0.3154    0.0000 H   0  0  0  0  0  0  0  0  0  0  0  0
    2.6247   -0.3154    0.0000 H   0  0  0  0  0  0  0  0  0  0  0  0
    2.2262   -1.0056    0.0000 H   0  0  0  0  0  0  0  0  0  0  0  0
    2.6383   -0.7373    0.0000 H   0  0  0  0  0  0  0  0  0  0  0  0
    2.3885   -1.4328    0.0000 H   0  0  0  0  0  0  0  0  0  0  0  0
    3.3030   -2.6638    0.0000 H   0  0  0  0  0  0  0  0  0  0  0  0
    4.0430   -2.6638    0.0000 H   0  0  0  0  0  0  0  0  0  0  0  0
    3.5782   -3.3127    0.0000 H   0  0  0  0  0  0  0  0  0  0  0  0
    4.4127   -3.1050    0.0000 H   0  0  0  0  0  0  0  0  0  0  0  0
    1.5188   -1.9554    0.0000 H   0  0  0  0  0  0  0  0  0  0  0  0
    1.8068   -2.9354    0.0000 H   0  0  0  0  0  0  0  0  0  0  0  0
    4.1980    0.2549    0.0000 H   0  0  0  0  0  0  0  0  0  0  0  0
    4.7119    0.4142    0.0000 H   0  0  0  0  0  0  0  0  0  0  0  0
    5.1940    1.0187    0.0000 H   0  0  0  0  0  0  0  0  0  0  0  0
    2.2873    0.6321    0.0000 H   0  0  0  0  0  0  0  0  0  0  0  0
    5.3551    1.7246    0.0000 H   0  0  0  0  0  0  0  0  0  0  0  0
    5.1830    2.4783    0.0000 H   0  0  0  0  0  0  0  0  0  0  0  0
    2.1629    2.4783    0.0000 H   0  0  0  0  0  0  0  0  0  0  0  0
    1.9909    1.7246    0.0000 H   0  0  0  0  0  0  0  0  0  0  0  0
    4.7316    3.0444    0.0000 H   0  0  0  0  0  0  0  0  0  0  0  0
    4.0350    3.3799    0.0000 H   0  0  0  0  0  0  0  0  0  0  0  0
    3.3110    3.3799    0.0000 H   0  0  0  0  0  0  0  0  0  0  0  0
    2.6144    3.0444    0.0000 H   0  0  0  0  0  0  0  0  0  0  0  0
  1 12  1  0  0  0  0
  1 15  1  0  0  0  0
  1 36  1  0  0  0  0
  2  6  1  0  0  0  0
  2  7  1  0  0  0  0
  2  8  1  0  0  0  0
  2 12  1  0  0  0  0
  3  6  1  0  0  0  0
  3  9  1  0  0  0  0
  3 10  1  0  0  0  0
  3 18  1  0  0  0  0
  4  7  1  0  0  0  0
  4  9  1  0  0  0  0
  4 11  1  0  0  0  0
  4 19  1  0  0  0  0
  5  8  1  0  0  0  0
  5 10  1  0  0  0  0
  5 11  1  0  0  0  0
  5 20  1  0  0  0  0
  6 21  1  0  0  0  0
  6 22  1  0  0  0  0
  7 23  1  0  0  0  0
  7 24  1  0  0  0  0
  8 25  1  0  0  0  0
  8 26  1  0  0  0  0
  9 27  1  0  0  0  0
  9 28  1  0  0  0  0
 10 29  1  0  0  0  0
 10 30  1  0  0  0  0
 11 31  1  0  0  0  0
 11 32  1  0  0  0  0
 12 13  1  0  0  0  0
 12 33  1  0  0  0  0
 13 14  1  0  0  0  0
 13 34  1  0  0  0  0
 13 35  1  0  0  0  0
 14 16  1  0  0  0  0
 14 37  1  0  0  0  0
 14 38  1  0  0  0  0
 15 17  1  0  0  0  0
 15 39  1  0  0  0  0
 15 40  1  0  0  0  0
 16 17  1  0  0  0  0
 16 41  1  0  0  0  0
 16 42  1  0  0  0  0
 17 43  1  0  0  0  0
 17 44  1  0  0  0  0
M  END
> <PUBCHEM_COMPOUND_CID>
511812
> <PUBCHEM_COMPOUND_CANONICALIZED>
1
> <PUBCHEM_CACTVS_COMPLEXITY>
255
> <PUBCHEM_CACTVS_HBOND_ACCEPTOR>
1
> <PUBCHEM_CACTVS_HBOND_DONOR>
1
> <PUBCHEM_CACTVS_ROTATABLE_BOND>
1
> <PUBCHEM_CACTVS_SUBSKEYS>
AAADceB6AAAAAAAAAAAAAAAAAAAAAAAAAAAwYMGABYAAAAAAAAAAHAAQAAAADyjBAAQAAALAAAAAAAAAAAAAAAAAAAAAAIAIAAAAAAIAgAAEAAAAEACAAAEQgMAPAAAAAAAAAAAAAAQAAAAAAAAAAAAAAA==
> <PUBCHEM_IUPAC_OPENEYE_NAME>
2-(1-adamantyl)azepane
> <PUBCHEM_IUPAC_CAS_NAME>
2-(1-adamantyl)azepane
> <PUBCHEM_IUPAC_NAME_MARKUP>
2-(1-adamantyl)azepane
> <PUBCHEM_IUPAC_NAME>
2-(1-adamantyl)azepane
> <PUBCHEM_IUPAC_SYSTEMATIC_NAME>
2-(1-adamantyl)azepane
> <PUBCHEM_IUPAC_TRADITIONAL_NAME>
2-(1-adamantyl)azepane
> <PUBCHEM_IUPAC_INCHI>
InChI=1S/C16H27N/c1-2-4-15(17-5-3-1)16-9-12-6-13(10-16)8-14(7-12)11-16/h12-15,17H,1-11H2
> <PUBCHEM_IUPAC_INCHIKEY>
XZNAEFSEWAVUTE-UHFFFAOYSA-N
> <PUBCHEM_XLOGP3_AA>
4
> <PUBCHEM_EXACT_MASS>
233.214349865
> <PUBCHEM_MOLECULAR_FORMULA>
C16H27N
> <PUBCHEM_MOLECULAR_WEIGHT>
233.39
> <PUBCHEM_OPENEYE_CAN_SMILES>
C1CCC(NCC1)C23CC4CC(C2)CC(C4)C3
> <PUBCHEM_OPENEYE_ISO_SMILES>
C1CCC(NCC1)C23CC4CC(C2)CC(C4)C3
> <PUBCHEM_CACTVS_TPSA>
12
> <PUBCHEM_MONOISOTOPIC_WEIGHT>
233.214349865
> <PUBCHEM_TOTAL_CHARGE>
0
> <PUBCHEM_HEAVY_ATOM_COUNT>
17
> <PUBCHEM_ATOM_DEF_STEREO_COUNT>
0
> <PUBCHEM_ATOM_UDEF_STEREO_COUNT>
1
> <PUBCHEM_BOND_DEF_STEREO_COUNT>
0
> <PUBCHEM_BOND_UDEF_STEREO_COUNT>
0
> <PUBCHEM_ISOTOPIC_ATOM_COUNT>
0
> <PUBCHEM_COMPONENT_COUNT>
1
> <PUBCHEM_CACTVS_TAUTO_COUNT>
-1
> <PUBCHEM_COORDINATE_TYPE>
1
5
255
> <PUBCHEM_BONDANNOTATIONS>
12  2  3
$$$$
