511854
  -OEChem-10302200282D
 29 31  0     1  0  0  0  0  0999 V2000
    5.9405   -0.7140    0.0000 O   0  0  0  0  0  0  0  0  0  0  0  0
    4.9917   -2.0246    0.0000 O   0  0  0  0  0  0  0  0  0  0  0  0
    6.6495   -3.2951    0.0000 O   0  0  0  0  0  0  0  0  0  0  0  0
    4.6783    0.5439    0.0000 N   0  0  0  0  0  0  0  0  0  0  0  0
    2.8660    0.3486    0.0000 N   0  0  0  0  0  0  0  0  0  0  0  0
    2.0000    1.8486    0.0000 N   0  0  0  0  0  0  0  0  0  0  0  0
    2.8660    3.3486    0.0000 N   0  0  0  0  0  0  0  0  0  0  0  0
    4.9889   -0.4066    0.0000 C   0  0  2  0  0  0  0  0  0  0  0  0
    4.4026   -1.2166    0.0000 C   0  0  0  0  0  0  0  0  0  0  0  0
    5.9422   -1.7140    0.0000 C   0  0  1  0  0  0  0  0  0  0  0  0
    3.7320    0.8486    0.0000 C   0  0  0  0  0  0  0  0  0  0  0  0
    5.2619    1.3486    0.0000 C   0  0  0  0  0  0  0  0  0  0  0  0
    3.7320    1.8486    0.0000 C   0  0  0  0  0  0  0  0  0  0  0  0
    6.7523   -2.3004    0.0000 C   0  0  0  0  0  0  0  0  0  0  0  0
    4.6783    2.1534    0.0000 C   0  0  0  0  0  0  0  0  0  0  0  0
    2.8660    2.3486    0.0000 C   0  0  0  0  0  0  0  0  0  0  0  0
    2.0000    0.8486    0.0000 C   0  0  0  0  0  0  0  0  0  0  0  0
    5.4266    0.0325    0.0000 H   0  0  0  0  0  0  0  0  0  0  0  0
    3.9411   -0.8026    0.0000 H   0  0  0  0  0  0  0  0  0  0  0  0
    3.9425   -1.6323    0.0000 H   0  0  0  0  0  0  0  0  0  0  0  0
    6.4942   -1.4316    0.0000 H   0  0  0  0  0  0  0  0  0  0  0  0
    5.8819    1.3486    0.0000 H   0  0  0  0  0  0  0  0  0  0  0  0
    7.3486   -2.4702    0.0000 H   0  0  0  0  0  0  0  0  0  0  0  0
    7.0231   -1.7426    0.0000 H   0  0  0  0  0  0  0  0  0  0  0  0
    4.8709    2.7427    0.0000 H   0  0  0  0  0  0  0  0  0  0  0  0
    1.4631    0.5386    0.0000 H   0  0  0  0  0  0  0  0  0  0  0  0
    7.1517   -3.6586    0.0000 H   0  0  0  0  0  0  0  0  0  0  0  0
    2.3291    3.6586    0.0000 H   0  0  0  0  0  0  0  0  0  0  0  0
    3.4030    3.6586    0.0000 H   0  0  0  0  0  0  0  0  0  0  0  0
  1  8  1  0  0  0  0
  1 10  1  0  0  0  0
  2  9  1  0  0  0  0
  2 10  1  0  0  0  0
  3 14  1  0  0  0  0
  3 27  1  0  0  0  0
  8  4  1  1  0  0  0
  4 11  1  0  0  0  0
  4 12  1  0  0  0  0
  5 11  2  0  0  0  0
  5 17  1  0  0  0  0
  6 16  1  0  0  0  0
  6 17  2  0  0  0  0
  7 16  1  0  0  0  0
  7 28  1  0  0  0  0
  7 29  1  0  0  0  0
  8  9  1  0  0  0  0
  8 18  1  0  0  0  0
  9 19  1  0  0  0  0
  9 20  1  0  0  0  0
 10 14  1  6  0  0  0
 10 21  1  0  0  0  0
 11 13  1  0  0  0  0
 12 15  2  0  0  0  0
 12 22  1  0  0  0  0
 13 15  1  0  0  0  0
 13 16  2  0  0  0  0
 14 23  1  0  0  0  0
 14 24  1  0  0  0  0
 15 25  1  0  0  0  0
 17 26  1  0  0  0  0
M  END
> <PUBCHEM_COMPOUND_CID>
511854
> <PUBCHEM_COMPOUND_CANONICALIZED>
1
> <PUBCHEM_CACTVS_COMPLEXITY>
280
> <PUBCHEM_CACTVS_HBOND_ACCEPTOR>
6
> <PUBCHEM_CACTVS_HBOND_DONOR>
2
> <PUBCHEM_CACTVS_ROTATABLE_BOND>
2
> <PUBCHEM_CACTVS_SUBSKEYS>
AAADccBzsAAAAAAAAAAAAAAAAAAAAWJAAAAsAAAAAAAAAFgB+AAAHgAQCAAADADxmwc9uN9MFgCgAjJnZACCgCkxAqAJ2CA4ZJibOMBAyMEvBAhIAALXQCAAAAAIAAAAAAAAAAAAAAAAAAAAAAAAAAAAAA==
> <PUBCHEM_IUPAC_OPENEYE_NAME>
[(2R,4S)-4-(4-aminopyrrolo[2,3-d]pyrimidin-7-yl)-1,3-dioxolan-2-yl]methanol
> <PUBCHEM_IUPAC_CAS_NAME>
[(2R,4S)-4-(4-amino-7-pyrrolo[2,3-d]pyrimidinyl)-1,3-dioxolan-2-yl]methanol
> <PUBCHEM_IUPAC_NAME_MARKUP>
[(2<I>R</I>,4<I>S</I>)-4-(4-aminopyrrolo[2,3-d]pyrimidin-7-yl)-1,3-dioxolan-2-yl]methanol
> <PUBCHEM_IUPAC_NAME>
[(2R,4S)-4-(4-aminopyrrolo[2,3-d]pyrimidin-7-yl)-1,3-dioxolan-2-yl]methanol
> <PUBCHEM_IUPAC_SYSTEMATIC_NAME>
[(2R,4S)-4-(4-azanylpyrrolo[2,3-d]pyrimidin-7-yl)-1,3-dioxolan-2-yl]methanol
> <PUBCHEM_IUPAC_TRADITIONAL_NAME>
[(2R,4S)-4-(4-aminopyrrolo[2,3-d]pyrimidin-7-yl)-1,3-dioxolan-2-yl]methanol
> <PUBCHEM_IUPAC_INCHI>
InChI=1S/C10H12N4O3/c11-9-6-1-2-14(10(6)13-5-12-9)7-4-16-8(3-15)17-7/h1-2,5,7-8,15H,3-4H2,(H2,11,12,13)/t7-,8+/m0/s1
> <PUBCHEM_IUPAC_INCHIKEY>
OZOBZSULJCYGKH-JGVFFNPUSA-N
> <PUBCHEM_XLOGP3_AA>
-0.7
> <PUBCHEM_EXACT_MASS>
236.09094026
> <PUBCHEM_MOLECULAR_FORMULA>
C10H12N4O3
> <PUBCHEM_MOLECULAR_WEIGHT>
236.23
> <PUBCHEM_OPENEYE_CAN_SMILES>
C1C(OC(O1)CO)N2C=CC3=C(N=CN=C32)N
> <PUBCHEM_OPENEYE_ISO_SMILES>
C1[C@H](O[C@@H](O1)CO)N2C=CC3=C(N=CN=C32)N
> <PUBCHEM_CACTVS_TPSA>
95.4
> <PUBCHEM_MONOISOTOPIC_WEIGHT>
236.09094026
> <PUBCHEM_TOTAL_CHARGE>
0
> <PUBCHEM_HEAVY_ATOM_COUNT>
17
> <PUBCHEM_ATOM_DEF_STEREO_COUNT>
2
> <PUBCHEM_ATOM_UDEF_STEREO_COUNT>
0
> <PUBCHEM_BOND_DEF_STEREO_COUNT>
0
> <PUBCHEM_BOND_UDEF_STEREO_COUNT>
0
> <PUBCHEM_ISOTOPIC_ATOM_COUNT>
0
> <PUBCHEM_COMPONENT_COUNT>
1
> <PUBCHEM_CACTVS_TAUTO_COUNT>
-1
> <PUBCHEM_COORDINATE_TYPE>
1
5
255
> <PUBCHEM_BONDANNOTATIONS>
10  14  6
11  13  8
12  15  8
13  15  8
13  16  8
4  11  8
4  12  8
8  4  5
5  11  8
5  17  8
6  16  8
6  17  8
$$$$
