511985
  -OEChem-10302200282D
 32 33  0     1  0  0  0  0  0999 V2000
    2.0000    2.3725    0.0000 Cl  0  0  0  0  0  0  0  0  0  0  0  0
    3.7320    3.3725    0.0000 F   0  0  0  0  0  0  0  0  0  0  0  0
    2.8660    0.8725    0.0000 F   0  0  0  0  0  0  0  0  0  0  0  0
    6.2731   -1.2153    0.0000 O   0  0  0  0  0  0  0  0  0  0  0  0
    4.3763   -2.9754    0.0000 O   0  0  0  0  0  0  0  0  0  0  0  0
    7.5464   -2.8709    0.0000 O   0  0  0  0  0  0  0  0  0  0  0  0
    7.1962    0.3725    0.0000 O   0  0  0  0  0  0  0  0  0  0  0  0
    5.4641    3.3725    0.0000 O   0  0  0  0  0  0  0  0  0  0  0  0
    5.4641    0.3725    0.0000 N   0  0  0  0  0  0  0  0  0  0  0  0
    6.3301    1.8725    0.0000 N   0  0  0  0  0  0  0  0  0  0  0  0
    4.9641   -2.1664    0.0000 C   0  0  1  0  0  0  0  0  0  0  0  0
    5.4641   -0.6275    0.0000 C   0  0  1  0  0  0  0  0  0  0  0  0
    4.6551   -1.2153    0.0000 C   0  0  0  0  0  0  0  0  0  0  0  0
    5.9641   -2.1664    0.0000 C   0  0  1  0  0  0  0  0  0  0  0  0
    6.5519   -2.9754    0.0000 C   0  0  0  0  0  0  0  0  0  0  0  0
    4.5981    0.8725    0.0000 C   0  0  0  0  0  0  0  0  0  0  0  0
    6.3301    0.8725    0.0000 C   0  0  0  0  0  0  0  0  0  0  0  0
    4.5981    1.8725    0.0000 C   0  0  0  0  0  0  0  0  0  0  0  0
    5.4641    2.3725    0.0000 C   0  0  0  0  0  0  0  0  0  0  0  0
    3.7320    2.3725    0.0000 C   0  0  0  0  0  0  0  0  0  0  0  0
    2.8660    1.8725    0.0000 C   0  0  0  0  0  0  0  0  0  0  0  0
    5.2456   -2.7188    0.0000 H   0  0  0  0  0  0  0  0  0  0  0  0
    6.0165   -0.3461    0.0000 H   0  0  0  0  0  0  0  0  0  0  0  0
    4.3451   -0.6784    0.0000 H   0  0  0  0  0  0  0  0  0  0  0  0
    4.0887   -1.4675    0.0000 H   0  0  0  0  0  0  0  0  0  0  0  0
    6.5765   -2.0694    0.0000 H   0  0  0  0  0  0  0  0  0  0  0  0
    5.9946   -3.2472    0.0000 H   0  0  0  0  0  0  0  0  0  0  0  0
    6.7228   -3.5714    0.0000 H   0  0  0  0  0  0  0  0  0  0  0  0
    3.7597   -2.9106    0.0000 H   0  0  0  0  0  0  0  0  0  0  0  0
    4.0611    0.5625    0.0000 H   0  0  0  0  0  0  0  0  0  0  0  0
    6.8671    2.1825    0.0000 H   0  0  0  0  0  0  0  0  0  0  0  0
    7.9108   -3.3725    0.0000 H   0  0  0  0  0  0  0  0  0  0  0  0
  1 21  1  0  0  0  0
  2 20  1  0  0  0  0
  3 21  1  0  0  0  0
  4 12  1  0  0  0  0
  4 14  1  0  0  0  0
 11  5  1  1  0  0  0
  5 29  1  0  0  0  0
  6 15  1  0  0  0  0
  6 32  1  0  0  0  0
  7 17  2  0  0  0  0
  8 19  2  0  0  0  0
 12  9  1  6  0  0  0
  9 16  1  0  0  0  0
  9 17  1  0  0  0  0
 10 17  1  0  0  0  0
 10 19  1  0  0  0  0
 10 31  1  0  0  0  0
 11 13  1  0  0  0  0
 11 14  1  0  0  0  0
 11 22  1  0  0  0  0
 12 13  1  0  0  0  0
 12 23  1  0  0  0  0
 13 24  1  0  0  0  0
 13 25  1  0  0  0  0
 14 15  1  6  0  0  0
 14 26  1  0  0  0  0
 15 27  1  0  0  0  0
 15 28  1  0  0  0  0
 16 18  2  0  0  0  0
 16 30  1  0  0  0  0
 18 19  1  0  0  0  0
 18 20  1  0  0  0  0
 20 21  2  3  0  0  0
M  END
> <PUBCHEM_COMPOUND_CID>
511985
> <PUBCHEM_COMPOUND_CANONICALIZED>
1
> <PUBCHEM_CACTVS_COMPLEXITY>
539
> <PUBCHEM_CACTVS_HBOND_ACCEPTOR>
7
> <PUBCHEM_CACTVS_HBOND_DONOR>
3
> <PUBCHEM_CACTVS_ROTATABLE_BOND>
3
> <PUBCHEM_CACTVS_SUBSKEYS>
AAADccBzOYAEAAAAAAAAAAAAAAAAASAAAAAgAAAAAAAAAAAAAAAAHwIQCAAADBbhgAYBAAPABgCIAgFWUACAAAAgAAAAAAEIAEiJEAIAgAAOQAAPByIDAMCwMAIAAAAAAAAAAAAAAAAAAAAAAAAAAAAAAA==
> <PUBCHEM_IUPAC_OPENEYE_NAME>
5-(2-chloro-1,2-difluoro-vinyl)-1-[(2R,4S,5R)-4-hydroxy-5-(hydroxymethyl)tetrahydrofuran-2-yl]pyrimidine-2,4-dione
> <PUBCHEM_IUPAC_CAS_NAME>
5-(2-chloro-1,2-difluoroethenyl)-1-[(2R,4S,5R)-4-hydroxy-5-(hydroxymethyl)-2-oxolanyl]pyrimidine-2,4-dione
> <PUBCHEM_IUPAC_NAME_MARKUP>
5-(2-chloro-1,2-difluoroethenyl)-1-[(2<I>R</I>,4<I>S</I>,5<I>R</I>)-4-hydroxy-5-(hydroxymethyl)oxolan-2-yl]pyrimidine-2,4-dione
> <PUBCHEM_IUPAC_NAME>
5-(2-chloro-1,2-difluoroethenyl)-1-[(2R,4S,5R)-4-hydroxy-5-(hydroxymethyl)oxolan-2-yl]pyrimidine-2,4-dione
> <PUBCHEM_IUPAC_SYSTEMATIC_NAME>
5-[2-chloranyl-1,2-bis(fluoranyl)ethenyl]-1-[(2R,4S,5R)-5-(hydroxymethyl)-4-oxidanyl-oxolan-2-yl]pyrimidine-2,4-dione
> <PUBCHEM_IUPAC_TRADITIONAL_NAME>
5-(2-chloro-1,2-difluoro-vinyl)-1-[(2R,4S,5R)-4-hydroxy-5-methylol-tetrahydrofuran-2-yl]pyrimidine-2,4-quinone
> <PUBCHEM_IUPAC_INCHI>
InChI=1S/C11H11ClF2N2O5/c12-9(14)8(13)4-2-16(11(20)15-10(4)19)7-1-5(18)6(3-17)21-7/h2,5-7,17-18H,1,3H2,(H,15,19,20)/t5-,6+,7+/m0/s1
> <PUBCHEM_IUPAC_INCHIKEY>
GQHZVWDYOPVASP-RRKCRQDMSA-N
> <PUBCHEM_XLOGP3>
-0.3
> <PUBCHEM_EXACT_MASS>
324.0324555
> <PUBCHEM_MOLECULAR_FORMULA>
C11H11ClF2N2O5
> <PUBCHEM_MOLECULAR_WEIGHT>
324.66
> <PUBCHEM_OPENEYE_CAN_SMILES>
C1C(C(OC1N2C=C(C(=O)NC2=O)C(=C(F)Cl)F)CO)O
> <PUBCHEM_OPENEYE_ISO_SMILES>
C1[C@@H]([C@H](O[C@H]1N2C=C(C(=O)NC2=O)C(=C(F)Cl)F)CO)O
> <PUBCHEM_CACTVS_TPSA>
99.1
> <PUBCHEM_MONOISOTOPIC_WEIGHT>
324.0324555
> <PUBCHEM_TOTAL_CHARGE>
0
> <PUBCHEM_HEAVY_ATOM_COUNT>
21
> <PUBCHEM_ATOM_DEF_STEREO_COUNT>
3
> <PUBCHEM_ATOM_UDEF_STEREO_COUNT>
0
> <PUBCHEM_BOND_DEF_STEREO_COUNT>
0
> <PUBCHEM_BOND_UDEF_STEREO_COUNT>
1
> <PUBCHEM_ISOTOPIC_ATOM_COUNT>
0
> <PUBCHEM_COMPONENT_COUNT>
1
> <PUBCHEM_CACTVS_TAUTO_COUNT>
-1
> <PUBCHEM_COORDINATE_TYPE>
1
5
255
> <PUBCHEM_BONDANNOTATIONS>
10  17  8
10  19  8
14  15  6
16  18  8
18  19  8
20  21  1
11  5  5
12  9  6
9  16  8
9  17  8
$$$$
