511917
  -OEChem-10302200282D
 46 47  0     1  0  0  0  0  0999 V2000
    6.8671   -0.1516    0.0000 O   0  0  0  0  0  0  0  0  0  0  0  0
    5.1350   -0.1516    0.0000 O   0  0  0  0  0  0  0  0  0  0  0  0
    6.8671   -2.1516    0.0000 O   0  0  0  0  0  0  0  0  0  0  0  0
    5.1350   -3.1516    0.0000 O   0  0  0  0  0  0  0  0  0  0  0  0
    3.4030   -2.1516    0.0000 O   0  0  0  0  0  0  0  0  0  0  0  0
    2.5369   -0.6516    0.0000 O   0  0  0  0  0  0  0  0  0  0  0  0
    6.8671    0.8484    0.0000 C   0  0  0  0  0  0  0  0  0  0  0  0
    6.0010   -0.6516    0.0000 C   0  0  2  0  0  0  0  0  0  0  0  0
    6.0010   -1.6516    0.0000 C   0  0  1  0  0  0  0  0  0  0  0  0
    5.1350   -2.1516    0.0000 C   0  0  2  0  0  0  0  0  0  0  0  0
    4.2690   -1.6516    0.0000 C   0  0  1  0  0  0  0  0  0  0  0  0
    4.2690   -0.6516    0.0000 C   0  0  1  0  0  0  0  0  0  0  0  0
    7.7909    1.2311    0.0000 C   0  0  0  0  0  0  0  0  0  0  0  0
    5.9432    1.2311    0.0000 C   0  0  0  0  0  0  0  0  0  0  0  0
    8.1736    2.1550    0.0000 C   0  0  0  0  0  0  0  0  0  0  0  0
    5.5605    2.1550    0.0000 C   0  0  0  0  0  0  0  0  0  0  0  0
    7.7909    3.0789    0.0000 C   0  0  0  0  0  0  0  0  0  0  0  0
    5.9432    3.0789    0.0000 C   0  0  0  0  0  0  0  0  0  0  0  0
    6.8671    3.4616    0.0000 C   0  0  0  0  0  0  0  0  0  0  0  0
    3.4030   -0.1516    0.0000 C   0  0  0  0  0  0  0  0  0  0  0  0
    7.3826    0.5040    0.0000 H   0  0  0  0  0  0  0  0  0  0  0  0
    6.0010   -0.0316    0.0000 H   0  0  0  0  0  0  0  0  0  0  0  0
    6.0010   -2.2716    0.0000 H   0  0  0  0  0  0  0  0  0  0  0  0
    4.5981   -2.4616    0.0000 H   0  0  0  0  0  0  0  0  0  0  0  0
    4.2690   -2.2716    0.0000 H   0  0  0  0  0  0  0  0  0  0  0  0
    4.2690   -0.0316    0.0000 H   0  0  0  0  0  0  0  0  0  0  0  0
    7.8719    0.6164    0.0000 H   0  0  0  0  0  0  0  0  0  0  0  0
    8.4056    1.1502    0.0000 H   0  0  0  0  0  0  0  0  0  0  0  0
    5.3285    1.1502    0.0000 H   0  0  0  0  0  0  0  0  0  0  0  0
    5.8623    0.6164    0.0000 H   0  0  0  0  0  0  0  0  0  0  0  0
    8.6655    1.7776    0.0000 H   0  0  0  0  0  0  0  0  0  0  0  0
    8.6655    2.5324    0.0000 H   0  0  0  0  0  0  0  0  0  0  0  0
    5.0686    2.5324    0.0000 H   0  0  0  0  0  0  0  0  0  0  0  0
    5.0686    1.7776    0.0000 H   0  0  0  0  0  0  0  0  0  0  0  0
    8.4056    3.1598    0.0000 H   0  0  0  0  0  0  0  0  0  0  0  0
    7.8719    3.6936    0.0000 H   0  0  0  0  0  0  0  0  0  0  0  0
    5.8623    3.6936    0.0000 H   0  0  0  0  0  0  0  0  0  0  0  0
    5.3285    3.1598    0.0000 H   0  0  0  0  0  0  0  0  0  0  0  0
    7.2445    3.9534    0.0000 H   0  0  0  0  0  0  0  0  0  0  0  0
    6.4896    3.9534    0.0000 H   0  0  0  0  0  0  0  0  0  0  0  0
    3.8015    0.3234    0.0000 H   0  0  0  0  0  0  0  0  0  0  0  0
    3.0044    0.3234    0.0000 H   0  0  0  0  0  0  0  0  0  0  0  0
    7.4040   -1.8416    0.0000 H   0  0  0  0  0  0  0  0  0  0  0  0
    4.5981   -3.4616    0.0000 H   0  0  0  0  0  0  0  0  0  0  0  0
    3.4030   -2.7716    0.0000 H   0  0  0  0  0  0  0  0  0  0  0  0
    2.0000   -0.3416    0.0000 H   0  0  0  0  0  0  0  0  0  0  0  0
  1  7  1  0  0  0  0
  8  1  1  1  0  0  0
  2  8  1  0  0  0  0
  2 12  1  0  0  0  0
  9  3  1  6  0  0  0
  3 43  1  0  0  0  0
 10  4  1  1  0  0  0
  4 44  1  0  0  0  0
 11  5  1  6  0  0  0
  5 45  1  0  0  0  0
  6 20  1  0  0  0  0
  6 46  1  0  0  0  0
  7 13  1  0  0  0  0
  7 14  1  0  0  0  0
  7 21  1  0  0  0  0
  8  9  1  0  0  0  0
  8 22  1  0  0  0  0
  9 10  1  0  0  0  0
  9 23  1  0  0  0  0
 10 11  1  0  0  0  0
 10 24  1  0  0  0  0
 11 12  1  0  0  0  0
 11 25  1  0  0  0  0
 12 20  1  1  0  0  0
 12 26  1  0  0  0  0
 13 15  1  0  0  0  0
 13 27  1  0  0  0  0
 13 28  1  0  0  0  0
 14 16  1  0  0  0  0
 14 29  1  0  0  0  0
 14 30  1  0  0  0  0
 15 17  1  0  0  0  0
 15 31  1  0  0  0  0
 15 32  1  0  0  0  0
 16 18  1  0  0  0  0
 16 33  1  0  0  0  0
 16 34  1  0  0  0  0
 17 19  1  0  0  0  0
 17 35  1  0  0  0  0
 17 36  1  0  0  0  0
 18 19  1  0  0  0  0
 18 37  1  0  0  0  0
 18 38  1  0  0  0  0
 19 39  1  0  0  0  0
 19 40  1  0  0  0  0
 20 41  1  0  0  0  0
 20 42  1  0  0  0  0
M  END
> <PUBCHEM_COMPOUND_CID>
511917
> <PUBCHEM_COMPOUND_CANONICALIZED>
1
> <PUBCHEM_CACTVS_COMPLEXITY>
279
> <PUBCHEM_CACTVS_HBOND_ACCEPTOR>
6
> <PUBCHEM_CACTVS_HBOND_DONOR>
4
> <PUBCHEM_CACTVS_ROTATABLE_BOND>
3
> <PUBCHEM_CACTVS_SUBSKEYS>
AAADceBwOAAAAAAAAAAAAAAAAAAAAAAAAAAkAAAAAAAYAAAAAAAAGgAACAAACBSwgAMACAAABgAAAAAAAAAAAAAAAAAAAAAAAAAREAIAAAAiQAAFAAAHAAHA4KwAAAAAAAAAAAAAAAAAAAAAAAAAAAAAAA==
> <PUBCHEM_IUPAC_OPENEYE_NAME>
(2R,3R,4S,5S,6R)-2-(cyclooctoxy)-6-(hydroxymethyl)tetrahydropyran-3,4,5-triol
> <PUBCHEM_IUPAC_CAS_NAME>
(2R,3R,4S,5S,6R)-2-cyclooctyloxy-6-(hydroxymethyl)oxane-3,4,5-triol
> <PUBCHEM_IUPAC_NAME_MARKUP>
(2<I>R</I>,3<I>R</I>,4<I>S</I>,5<I>S</I>,6<I>R</I>)-2-cyclooctyloxy-6-(hydroxymethyl)oxane-3,4,5-triol
> <PUBCHEM_IUPAC_NAME>
(2R,3R,4S,5S,6R)-2-cyclooctyloxy-6-(hydroxymethyl)oxane-3,4,5-triol
> <PUBCHEM_IUPAC_SYSTEMATIC_NAME>
(2R,3R,4S,5S,6R)-2-cyclooctyloxy-6-(hydroxymethyl)oxane-3,4,5-triol
> <PUBCHEM_IUPAC_TRADITIONAL_NAME>
(2R,3R,4S,5S,6R)-2-(cyclooctoxy)-6-methylol-tetrahydropyran-3,4,5-triol
> <PUBCHEM_IUPAC_INCHI>
InChI=1S/C14H26O6/c15-8-10-11(16)12(17)13(18)14(20-10)19-9-6-4-2-1-3-5-7-9/h9-18H,1-8H2/t10-,11-,12+,13-,14-/m1/s1
> <PUBCHEM_IUPAC_INCHIKEY>
XJSXQHKLSKNLGD-RKQHYHRCSA-N
> <PUBCHEM_XLOGP3_AA>
0.8
> <PUBCHEM_EXACT_MASS>
290.17293854
> <PUBCHEM_MOLECULAR_FORMULA>
C14H26O6
> <PUBCHEM_MOLECULAR_WEIGHT>
290.35
> <PUBCHEM_OPENEYE_CAN_SMILES>
C1CCCC(CCC1)OC2C(C(C(C(O2)CO)O)O)O
> <PUBCHEM_OPENEYE_ISO_SMILES>
C1CCCC(CCC1)O[C@H]2[C@@H]([C@H]([C@@H]([C@H](O2)CO)O)O)O
> <PUBCHEM_CACTVS_TPSA>
99.4
> <PUBCHEM_MONOISOTOPIC_WEIGHT>
290.17293854
> <PUBCHEM_TOTAL_CHARGE>
0
> <PUBCHEM_HEAVY_ATOM_COUNT>
20
> <PUBCHEM_ATOM_DEF_STEREO_COUNT>
5
> <PUBCHEM_ATOM_UDEF_STEREO_COUNT>
0
> <PUBCHEM_BOND_DEF_STEREO_COUNT>
0
> <PUBCHEM_BOND_UDEF_STEREO_COUNT>
0
> <PUBCHEM_ISOTOPIC_ATOM_COUNT>
0
> <PUBCHEM_COMPONENT_COUNT>
1
> <PUBCHEM_CACTVS_TAUTO_COUNT>
-1
> <PUBCHEM_COORDINATE_TYPE>
1
5
255
> <PUBCHEM_BONDANNOTATIONS>
8  1  5
12  20  5
9  3  6
10  4  5
11  5  6
$$$$
