511994
  -OEChem-10302200282D
 36 37  0     1  0  0  0  0  0999 V2000
    6.2731   -1.3703    0.0000 O   0  0  0  0  0  0  0  0  0  0  0  0
    4.3763   -3.1304    0.0000 O   0  0  0  0  0  0  0  0  0  0  0  0
    7.5464   -3.0259    0.0000 O   0  0  0  0  0  0  0  0  0  0  0  0
    7.1962    0.2175    0.0000 O   0  0  0  0  0  0  0  0  0  0  0  0
    5.4641    0.2175    0.0000 N   0  0  0  0  0  0  0  0  0  0  0  0
    6.3301    1.7175    0.0000 N   0  0  0  0  0  0  0  0  0  0  0  0
    5.4641    3.2175    0.0000 N   0  0  0  0  0  0  0  0  0  0  0  0
    4.9641   -2.3214    0.0000 C   0  0  1  0  0  0  0  0  0  0  0  0
    4.6551   -1.3703    0.0000 C   0  0  0  0  0  0  0  0  0  0  0  0
    5.4641   -0.7825    0.0000 C   0  0  1  0  0  0  0  0  0  0  0  0
    5.9641   -2.3214    0.0000 C   0  0  1  0  0  0  0  0  0  0  0  0
    6.5519   -3.1304    0.0000 C   0  0  0  0  0  0  0  0  0  0  0  0
    4.5981    0.7175    0.0000 C   0  0  0  0  0  0  0  0  0  0  0  0
    6.3301    0.7175    0.0000 C   0  0  0  0  0  0  0  0  0  0  0  0
    4.5981    1.7175    0.0000 C   0  0  0  0  0  0  0  0  0  0  0  0
    5.4641    2.2175    0.0000 C   0  0  0  0  0  0  0  0  0  0  0  0
    3.7320    2.2175    0.0000 C   0  0  0  0  0  0  0  0  0  0  0  0
    2.8660    1.7175    0.0000 C   0  0  0  0  0  0  0  0  0  0  0  0
    2.0000    2.2175    0.0000 C   0  0  0  0  0  0  0  0  0  0  0  0
    5.2456   -2.8738    0.0000 H   0  0  0  0  0  0  0  0  0  0  0  0
    4.3451   -0.8334    0.0000 H   0  0  0  0  0  0  0  0  0  0  0  0
    4.0887   -1.6225    0.0000 H   0  0  0  0  0  0  0  0  0  0  0  0
    6.0165   -0.5011    0.0000 H   0  0  0  0  0  0  0  0  0  0  0  0
    6.5765   -2.2244    0.0000 H   0  0  0  0  0  0  0  0  0  0  0  0
    5.9946   -3.4022    0.0000 H   0  0  0  0  0  0  0  0  0  0  0  0
    6.7228   -3.7264    0.0000 H   0  0  0  0  0  0  0  0  0  0  0  0
    3.7597   -3.0656    0.0000 H   0  0  0  0  0  0  0  0  0  0  0  0
    4.0611    0.4075    0.0000 H   0  0  0  0  0  0  0  0  0  0  0  0
    7.9108   -3.5275    0.0000 H   0  0  0  0  0  0  0  0  0  0  0  0
    3.7320    2.8375    0.0000 H   0  0  0  0  0  0  0  0  0  0  0  0
    6.0010    3.5275    0.0000 H   0  0  0  0  0  0  0  0  0  0  0  0
    4.9272    3.5275    0.0000 H   0  0  0  0  0  0  0  0  0  0  0  0
    2.8660    1.0975    0.0000 H   0  0  0  0  0  0  0  0  0  0  0  0
    2.3100    2.7544    0.0000 H   0  0  0  0  0  0  0  0  0  0  0  0
    1.4631    2.5275    0.0000 H   0  0  0  0  0  0  0  0  0  0  0  0
    1.6900    1.6805    0.0000 H   0  0  0  0  0  0  0  0  0  0  0  0
  1 10  1  0  0  0  0
  1 11  1  0  0  0  0
  8  2  1  1  0  0  0
  2 27  1  0  0  0  0
  3 12  1  0  0  0  0
  3 29  1  0  0  0  0
  4 14  2  0  0  0  0
 10  5  1  6  0  0  0
  5 13  1  0  0  0  0
  5 14  1  0  0  0  0
  6 14  1  0  0  0  0
  6 16  2  0  0  0  0
  7 16  1  0  0  0  0
  7 31  1  0  0  0  0
  7 32  1  0  0  0  0
  8  9  1  0  0  0  0
  8 11  1  0  0  0  0
  8 20  1  0  0  0  0
  9 10  1  0  0  0  0
  9 21  1  0  0  0  0
  9 22  1  0  0  0  0
 10 23  1  0  0  0  0
 11 12  1  6  0  0  0
 11 24  1  0  0  0  0
 12 25  1  0  0  0  0
 12 26  1  0  0  0  0
 13 15  2  0  0  0  0
 13 28  1  0  0  0  0
 15 16  1  0  0  0  0
 15 17  1  0  0  0  0
 17 18  2  3  0  0  0
 17 30  1  0  0  0  0
 18 19  1  0  0  0  0
 18 33  1  0  0  0  0
 19 34  1  0  0  0  0
 19 35  1  0  0  0  0
 19 36  1  0  0  0  0
M  END
> <PUBCHEM_COMPOUND_CID>
511994
> <PUBCHEM_COMPOUND_CANONICALIZED>
1
> <PUBCHEM_CACTVS_COMPLEXITY>
458
> <PUBCHEM_CACTVS_HBOND_ACCEPTOR>
4
> <PUBCHEM_CACTVS_HBOND_DONOR>
3
> <PUBCHEM_CACTVS_ROTATABLE_BOND>
3
> <PUBCHEM_CACTVS_SUBSKEYS>
AAADceBzOAAAAAAAAAAAAAAAAAAAASAAAAAgAAAAAAAAAAAAAAAAHgAQCAAADBThgAYDAANABgCoAiJmdACAAAEgAAAICAAoABiJEAIAgQAOQAAHBgILgAKwMAIAAAAAAAAAAAAAAAAAAAAAAAAAAAAAAA==
> <PUBCHEM_IUPAC_OPENEYE_NAME>
4-amino-1-[(2R,4S,5R)-4-hydroxy-5-(hydroxymethyl)tetrahydrofuran-2-yl]-5-prop-1-enyl-pyrimidin-2-one
> <PUBCHEM_IUPAC_CAS_NAME>
4-amino-1-[(2R,4S,5R)-4-hydroxy-5-(hydroxymethyl)-2-oxolanyl]-5-prop-1-enyl-2-pyrimidinone
> <PUBCHEM_IUPAC_NAME_MARKUP>
4-amino-1-[(2<I>R</I>,4<I>S</I>,5<I>R</I>)-4-hydroxy-5-(hydroxymethyl)oxolan-2-yl]-5-prop-1-enylpyrimidin-2-one
> <PUBCHEM_IUPAC_NAME>
4-amino-1-[(2R,4S,5R)-4-hydroxy-5-(hydroxymethyl)oxolan-2-yl]-5-prop-1-enylpyrimidin-2-one
> <PUBCHEM_IUPAC_SYSTEMATIC_NAME>
4-azanyl-1-[(2R,4S,5R)-5-(hydroxymethyl)-4-oxidanyl-oxolan-2-yl]-5-prop-1-enyl-pyrimidin-2-one
> <PUBCHEM_IUPAC_TRADITIONAL_NAME>
4-amino-1-[(2R,4S,5R)-4-hydroxy-5-methylol-tetrahydrofuran-2-yl]-5-prop-1-enyl-pyrimidin-2-one
> <PUBCHEM_IUPAC_INCHI>
InChI=1S/C12H17N3O4/c1-2-3-7-5-15(12(18)14-11(7)13)10-4-8(17)9(6-16)19-10/h2-3,5,8-10,16-17H,4,6H2,1H3,(H2,13,14,18)/t8-,9+,10+/m0/s1
> <PUBCHEM_IUPAC_INCHIKEY>
KATMTGGBSHKNTC-IVZWLZJFSA-N
> <PUBCHEM_XLOGP3>
-0.8
> <PUBCHEM_EXACT_MASS>
267.12190603
> <PUBCHEM_MOLECULAR_FORMULA>
C12H17N3O4
> <PUBCHEM_MOLECULAR_WEIGHT>
267.28
> <PUBCHEM_OPENEYE_CAN_SMILES>
CC=CC1=CN(C(=O)N=C1N)C2CC(C(O2)CO)O
> <PUBCHEM_OPENEYE_ISO_SMILES>
CC=CC1=CN(C(=O)N=C1N)[C@H]2C[C@@H]([C@H](O2)CO)O
> <PUBCHEM_CACTVS_TPSA>
108
> <PUBCHEM_MONOISOTOPIC_WEIGHT>
267.12190603
> <PUBCHEM_TOTAL_CHARGE>
0
> <PUBCHEM_HEAVY_ATOM_COUNT>
19
> <PUBCHEM_ATOM_DEF_STEREO_COUNT>
3
> <PUBCHEM_ATOM_UDEF_STEREO_COUNT>
0
> <PUBCHEM_BOND_DEF_STEREO_COUNT>
0
> <PUBCHEM_BOND_UDEF_STEREO_COUNT>
1
> <PUBCHEM_ISOTOPIC_ATOM_COUNT>
0
> <PUBCHEM_COMPONENT_COUNT>
1
> <PUBCHEM_CACTVS_TAUTO_COUNT>
-1
> <PUBCHEM_COORDINATE_TYPE>
1
5
255
> <PUBCHEM_BONDANNOTATIONS>
11  12  6
13  15  8
15  16  8
17  18  1
8  2  5
10  5  6
5  13  8
5  14  8
6  14  8
6  16  8
$$$$
