511986
  -OEChem-10302200282D
 35 36  0     1  0  0  0  0  0999 V2000
    4.5981    3.3725    0.0000 F   0  0  0  0  0  0  0  0  0  0  0  0
    3.7320    0.8725    0.0000 F   0  0  0  0  0  0  0  0  0  0  0  0
    2.0000    2.8725    0.0000 F   0  0  0  0  0  0  0  0  0  0  0  0
    2.3660    1.5064    0.0000 F   0  0  0  0  0  0  0  0  0  0  0  0
    3.3660    3.2385    0.0000 F   0  0  0  0  0  0  0  0  0  0  0  0
    7.1391   -1.2153    0.0000 O   0  0  0  0  0  0  0  0  0  0  0  0
    5.2423   -2.9754    0.0000 O   0  0  0  0  0  0  0  0  0  0  0  0
    8.4124   -2.8709    0.0000 O   0  0  0  0  0  0  0  0  0  0  0  0
    8.0622    0.3725    0.0000 O   0  0  0  0  0  0  0  0  0  0  0  0
    6.3301    3.3725    0.0000 O   0  0  0  0  0  0  0  0  0  0  0  0
    6.3301    0.3725    0.0000 N   0  0  0  0  0  0  0  0  0  0  0  0
    7.1962    1.8725    0.0000 N   0  0  0  0  0  0  0  0  0  0  0  0
    5.8301   -2.1664    0.0000 C   0  0  1  0  0  0  0  0  0  0  0  0
    6.3301   -0.6275    0.0000 C   0  0  1  0  0  0  0  0  0  0  0  0
    5.5211   -1.2153    0.0000 C   0  0  0  0  0  0  0  0  0  0  0  0
    6.8301   -2.1664    0.0000 C   0  0  1  0  0  0  0  0  0  0  0  0
    7.4179   -2.9754    0.0000 C   0  0  0  0  0  0  0  0  0  0  0  0
    5.4641    0.8725    0.0000 C   0  0  0  0  0  0  0  0  0  0  0  0
    7.1962    0.8725    0.0000 C   0  0  0  0  0  0  0  0  0  0  0  0
    5.4641    1.8725    0.0000 C   0  0  0  0  0  0  0  0  0  0  0  0
    6.3301    2.3725    0.0000 C   0  0  0  0  0  0  0  0  0  0  0  0
    4.5981    2.3725    0.0000 C   0  0  0  0  0  0  0  0  0  0  0  0
    3.7320    1.8725    0.0000 C   0  0  0  0  0  0  0  0  0  0  0  0
    2.8660    2.3725    0.0000 C   0  0  0  0  0  0  0  0  0  0  0  0
    6.1116   -2.7188    0.0000 H   0  0  0  0  0  0  0  0  0  0  0  0
    6.8826   -0.3461    0.0000 H   0  0  0  0  0  0  0  0  0  0  0  0
    5.2111   -0.6784    0.0000 H   0  0  0  0  0  0  0  0  0  0  0  0
    4.9547   -1.4675    0.0000 H   0  0  0  0  0  0  0  0  0  0  0  0
    7.4425   -2.0694    0.0000 H   0  0  0  0  0  0  0  0  0  0  0  0
    6.8607   -3.2472    0.0000 H   0  0  0  0  0  0  0  0  0  0  0  0
    7.5888   -3.5714    0.0000 H   0  0  0  0  0  0  0  0  0  0  0  0
    4.6257   -2.9106    0.0000 H   0  0  0  0  0  0  0  0  0  0  0  0
    4.9272    0.5625    0.0000 H   0  0  0  0  0  0  0  0  0  0  0  0
    7.7331    2.1825    0.0000 H   0  0  0  0  0  0  0  0  0  0  0  0
    8.7769   -3.3725    0.0000 H   0  0  0  0  0  0  0  0  0  0  0  0
  1 22  1  0  0  0  0
  2 23  1  0  0  0  0
  3 24  1  0  0  0  0
  4 24  1  0  0  0  0
  5 24  1  0  0  0  0
  6 14  1  0  0  0  0
  6 16  1  0  0  0  0
 13  7  1  1  0  0  0
  7 32  1  0  0  0  0
  8 17  1  0  0  0  0
  8 35  1  0  0  0  0
  9 19  2  0  0  0  0
 10 21  2  0  0  0  0
 14 11  1  6  0  0  0
 11 18  1  0  0  0  0
 11 19  1  0  0  0  0
 12 19  1  0  0  0  0
 12 21  1  0  0  0  0
 12 34  1  0  0  0  0
 13 15  1  0  0  0  0
 13 16  1  0  0  0  0
 13 25  1  0  0  0  0
 14 15  1  0  0  0  0
 14 26  1  0  0  0  0
 15 27  1  0  0  0  0
 15 28  1  0  0  0  0
 16 17  1  6  0  0  0
 16 29  1  0  0  0  0
 17 30  1  0  0  0  0
 17 31  1  0  0  0  0
 18 20  2  0  0  0  0
 18 33  1  0  0  0  0
 20 21  1  0  0  0  0
 20 22  1  0  0  0  0
 22 23  2  3  0  0  0
 23 24  1  0  0  0  0
M  END
> <PUBCHEM_COMPOUND_CID>
511986
> <PUBCHEM_COMPOUND_CANONICALIZED>
1
> <PUBCHEM_CACTVS_COMPLEXITY>
618
> <PUBCHEM_CACTVS_HBOND_ACCEPTOR>
10
> <PUBCHEM_CACTVS_HBOND_DONOR>
3
> <PUBCHEM_CACTVS_ROTATABLE_BOND>
3
> <PUBCHEM_CACTVS_SUBSKEYS>
AAADccBzOcAAAAAAAAAAAAAAAAAAASAAAAAgAAAAAAAAAAAAAAAAHwAQCAAADBThgBYBAAPABgCIAgFWUACAAAAgAAAACAEIAEiJEAIAgAAOQAAPByILgMKwMAIAAAAAAAAAAAAAAAAAAAAAAAAAAAAAAA==
> <PUBCHEM_IUPAC_OPENEYE_NAME>
1-[(2R,4S,5R)-4-hydroxy-5-(hydroxymethyl)tetrahydrofuran-2-yl]-5-(1,2,3,3,3-pentafluoroprop-1-enyl)pyrimidine-2,4-dione
> <PUBCHEM_IUPAC_CAS_NAME>
1-[(2R,4S,5R)-4-hydroxy-5-(hydroxymethyl)-2-oxolanyl]-5-(1,2,3,3,3-pentafluoroprop-1-enyl)pyrimidine-2,4-dione
> <PUBCHEM_IUPAC_NAME_MARKUP>
1-[(2<I>R</I>,4<I>S</I>,5<I>R</I>)-4-hydroxy-5-(hydroxymethyl)oxolan-2-yl]-5-(1,2,3,3,3-pentafluoroprop-1-enyl)pyrimidine-2,4-dione
> <PUBCHEM_IUPAC_NAME>
1-[(2R,4S,5R)-4-hydroxy-5-(hydroxymethyl)oxolan-2-yl]-5-(1,2,3,3,3-pentafluoroprop-1-enyl)pyrimidine-2,4-dione
> <PUBCHEM_IUPAC_SYSTEMATIC_NAME>
1-[(2R,4S,5R)-5-(hydroxymethyl)-4-oxidanyl-oxolan-2-yl]-5-[1,2,3,3,3-pentakis(fluoranyl)prop-1-enyl]pyrimidine-2,4-dione
> <PUBCHEM_IUPAC_TRADITIONAL_NAME>
1-[(2R,4S,5R)-4-hydroxy-5-methylol-tetrahydrofuran-2-yl]-5-(1,2,3,3,3-pentafluoroprop-1-enyl)pyrimidine-2,4-quinone
> <PUBCHEM_IUPAC_INCHI>
InChI=1S/C12H11F5N2O5/c13-8(9(14)12(15,16)17)4-2-19(11(23)18-10(4)22)7-1-5(21)6(3-20)24-7/h2,5-7,20-21H,1,3H2,(H,18,22,23)/t5-,6+,7+/m0/s1
> <PUBCHEM_IUPAC_INCHIKEY>
HWJSNNMYASKIHY-RRKCRQDMSA-N
> <PUBCHEM_XLOGP3>
-0.2
> <PUBCHEM_EXACT_MASS>
358.05881227
> <PUBCHEM_MOLECULAR_FORMULA>
C12H11F5N2O5
> <PUBCHEM_MOLECULAR_WEIGHT>
358.22
> <PUBCHEM_OPENEYE_CAN_SMILES>
C1C(C(OC1N2C=C(C(=O)NC2=O)C(=C(C(F)(F)F)F)F)CO)O
> <PUBCHEM_OPENEYE_ISO_SMILES>
C1[C@@H]([C@H](O[C@H]1N2C=C(C(=O)NC2=O)C(=C(C(F)(F)F)F)F)CO)O
> <PUBCHEM_CACTVS_TPSA>
99.1
> <PUBCHEM_MONOISOTOPIC_WEIGHT>
358.05881227
> <PUBCHEM_TOTAL_CHARGE>
0
> <PUBCHEM_HEAVY_ATOM_COUNT>
24
> <PUBCHEM_ATOM_DEF_STEREO_COUNT>
3
> <PUBCHEM_ATOM_UDEF_STEREO_COUNT>
0
> <PUBCHEM_BOND_DEF_STEREO_COUNT>
0
> <PUBCHEM_BOND_UDEF_STEREO_COUNT>
1
> <PUBCHEM_ISOTOPIC_ATOM_COUNT>
0
> <PUBCHEM_COMPONENT_COUNT>
1
> <PUBCHEM_CACTVS_TAUTO_COUNT>
-1
> <PUBCHEM_COORDINATE_TYPE>
1
5
255
> <PUBCHEM_BONDANNOTATIONS>
14  11  6
11  18  8
11  19  8
12  19  8
12  21  8
16  17  6
18  20  8
20  21  8
22  23  1
13  7  5
$$$$
