511906
  -OEChem-10302200282D
 32 33  0     1  0  0  0  0  0999 V2000
    2.0000   -2.3450    0.0000 Cl  0  0  0  0  0  0  0  0  0  0  0  0
    2.0000    0.6550    0.0000 Cl  0  0  0  0  0  0  0  0  0  0  0  0
    5.4641    3.6550    0.0000 Cl  0  0  0  0  0  0  0  0  0  0  0  0
    3.7320   -0.3450    0.0000 O   0  0  0  0  0  0  0  0  0  0  0  0
    5.4641   -0.3450    0.0000 O   0  0  0  0  0  0  0  0  0  0  0  0
    3.7320   -3.3450    0.0000 O   0  0  0  0  0  0  0  0  0  0  0  0
    5.4641   -2.3450    0.0000 O   0  0  0  0  0  0  0  0  0  0  0  0
    3.7320   -2.3450    0.0000 C   0  0  2  0  0  0  0  0  0  0  0  0
    4.5981   -1.8450    0.0000 C   0  0  2  0  0  0  0  0  0  0  0  0
    2.8660   -1.8450    0.0000 C   0  0  2  0  0  0  0  0  0  0  0  0
    2.8660   -0.8450    0.0000 C   0  0  1  0  0  0  0  0  0  0  0  0
    4.5981   -0.8450    0.0000 C   0  0  1  0  0  0  0  0  0  0  0  0
    2.0000   -0.3450    0.0000 C   0  0  0  0  0  0  0  0  0  0  0  0
    5.4641    0.6550    0.0000 C   0  0  0  0  0  0  0  0  0  0  0  0
    4.5981    1.1550    0.0000 C   0  0  0  0  0  0  0  0  0  0  0  0
    6.3301    1.1550    0.0000 C   0  0  0  0  0  0  0  0  0  0  0  0
    4.5981    2.1550    0.0000 C   0  0  0  0  0  0  0  0  0  0  0  0
    6.3301    2.1550    0.0000 C   0  0  0  0  0  0  0  0  0  0  0  0
    5.4641    2.6550    0.0000 C   0  0  0  0  0  0  0  0  0  0  0  0
    3.1951   -2.6550    0.0000 H   0  0  0  0  0  0  0  0  0  0  0  0
    4.5981   -2.4650    0.0000 H   0  0  0  0  0  0  0  0  0  0  0  0
    2.8660   -2.4650    0.0000 H   0  0  0  0  0  0  0  0  0  0  0  0
    2.8660   -0.2250    0.0000 H   0  0  0  0  0  0  0  0  0  0  0  0
    4.5981   -0.2250    0.0000 H   0  0  0  0  0  0  0  0  0  0  0  0
    1.3894   -0.2373    0.0000 H   0  0  0  0  0  0  0  0  0  0  0  0
    1.7880   -0.9276    0.0000 H   0  0  0  0  0  0  0  0  0  0  0  0
    3.1951   -3.6550    0.0000 H   0  0  0  0  0  0  0  0  0  0  0  0
    5.4641   -2.9650    0.0000 H   0  0  0  0  0  0  0  0  0  0  0  0
    4.0611    0.8450    0.0000 H   0  0  0  0  0  0  0  0  0  0  0  0
    6.8671    0.8450    0.0000 H   0  0  0  0  0  0  0  0  0  0  0  0
    4.0611    2.4650    0.0000 H   0  0  0  0  0  0  0  0  0  0  0  0
    6.8671    2.4650    0.0000 H   0  0  0  0  0  0  0  0  0  0  0  0
 10  1  1  1  0  0  0
  2 13  1  0  0  0  0
  3 19  1  0  0  0  0
  4 11  1  0  0  0  0
  4 12  1  0  0  0  0
 12  5  1  1  0  0  0
  5 14  1  0  0  0  0
  8  6  1  1  0  0  0
  6 27  1  0  0  0  0
  9  7  1  6  0  0  0
  7 28  1  0  0  0  0
  8  9  1  0  0  0  0
  8 10  1  0  0  0  0
  8 20  1  0  0  0  0
  9 12  1  0  0  0  0
  9 21  1  0  0  0  0
 10 11  1  0  0  0  0
 10 22  1  0  0  0  0
 11 13  1  1  0  0  0
 11 23  1  0  0  0  0
 12 24  1  0  0  0  0
 13 25  1  0  0  0  0
 13 26  1  0  0  0  0
 14 15  2  0  0  0  0
 14 16  1  0  0  0  0
 15 17  1  0  0  0  0
 15 29  1  0  0  0  0
 16 18  2  0  0  0  0
 16 30  1  0  0  0  0
 17 19  2  0  0  0  0
 17 31  1  0  0  0  0
 18 19  1  0  0  0  0
 18 32  1  0  0  0  0
M  END
> <PUBCHEM_COMPOUND_CID>
511906
> <PUBCHEM_COMPOUND_CANONICALIZED>
1
> <PUBCHEM_CACTVS_COMPLEXITY>
286
> <PUBCHEM_CACTVS_HBOND_ACCEPTOR>
4
> <PUBCHEM_CACTVS_HBOND_DONOR>
2
> <PUBCHEM_CACTVS_ROTATABLE_BOND>
3
> <PUBCHEM_CACTVS_SUBSKEYS>
AAADccBwOAAGAAAAAAAAAAAAAAAAAAAAAAA0QAAAAAAAAAABAAAAGgIACAAACBewkGMwDoAABgCAACBCAAACCAAgJQAIiAAGC4gdNiKFMxqieCClwBEPqAfAYAwAACAAAAAAAAAAQAAAAAAAAAAAAAAAAA==
> <PUBCHEM_IUPAC_OPENEYE_NAME>
(2S,3R,4R,5R,6R)-5-chloro-6-(chloromethyl)-2-(4-chlorophenoxy)tetrahydropyran-3,4-diol
> <PUBCHEM_IUPAC_CAS_NAME>
(2S,3R,4R,5R,6R)-5-chloro-6-(chloromethyl)-2-(4-chlorophenoxy)oxane-3,4-diol
> <PUBCHEM_IUPAC_NAME_MARKUP>
(2<I>S</I>,3<I>R</I>,4<I>R</I>,5<I>R</I>,6<I>R</I>)-5-chloro-6-(chloromethyl)-2-(4-chlorophenoxy)oxane-3,4-diol
> <PUBCHEM_IUPAC_NAME>
(2S,3R,4R,5R,6R)-5-chloro-6-(chloromethyl)-2-(4-chlorophenoxy)oxane-3,4-diol
> <PUBCHEM_IUPAC_SYSTEMATIC_NAME>
(2S,3R,4R,5R,6R)-5-chloranyl-2-(4-chloranylphenoxy)-6-(chloromethyl)oxane-3,4-diol
> <PUBCHEM_IUPAC_TRADITIONAL_NAME>
(2S,3R,4R,5R,6R)-5-chloro-6-(chloromethyl)-2-(4-chlorophenoxy)tetrahydropyran-3,4-diol
> <PUBCHEM_IUPAC_INCHI>
InChI=1S/C12H13Cl3O4/c13-5-8-9(15)10(16)11(17)12(19-8)18-7-3-1-6(14)2-4-7/h1-4,8-12,16-17H,5H2/t8-,9+,10+,11-,12-/m1/s1
> <PUBCHEM_IUPAC_INCHIKEY>
APROGNRWTMUSTH-YBXAARCKSA-N
> <PUBCHEM_XLOGP3>
2.3
> <PUBCHEM_EXACT_MASS>
325.987942
> <PUBCHEM_MOLECULAR_FORMULA>
C12H13Cl3O4
> <PUBCHEM_MOLECULAR_WEIGHT>
327.6
> <PUBCHEM_OPENEYE_CAN_SMILES>
C1=CC(=CC=C1OC2C(C(C(C(O2)CCl)Cl)O)O)Cl
> <PUBCHEM_OPENEYE_ISO_SMILES>
C1=CC(=CC=C1O[C@H]2[C@@H]([C@H]([C@H]([C@H](O2)CCl)Cl)O)O)Cl
> <PUBCHEM_CACTVS_TPSA>
58.9
> <PUBCHEM_MONOISOTOPIC_WEIGHT>
325.987942
> <PUBCHEM_TOTAL_CHARGE>
0
> <PUBCHEM_HEAVY_ATOM_COUNT>
19
> <PUBCHEM_ATOM_DEF_STEREO_COUNT>
5
> <PUBCHEM_ATOM_UDEF_STEREO_COUNT>
0
> <PUBCHEM_BOND_DEF_STEREO_COUNT>
0
> <PUBCHEM_BOND_UDEF_STEREO_COUNT>
0
> <PUBCHEM_ISOTOPIC_ATOM_COUNT>
0
> <PUBCHEM_COMPONENT_COUNT>
1
> <PUBCHEM_CACTVS_TAUTO_COUNT>
-1
> <PUBCHEM_COORDINATE_TYPE>
1
5
255
> <PUBCHEM_BONDANNOTATIONS>
10  1  5
11  13  5
14  15  8
14  16  8
15  17  8
16  18  8
17  19  8
18  19  8
12  5  5
8  6  5
9  7  6
$$$$
