511907
  -OEChem-10302200282D
 32 33  0     1  0  0  0  0  0999 V2000
    2.0000   -1.8450    0.0000 Cl  0  0  0  0  0  0  0  0  0  0  0  0
    2.0000    1.1550    0.0000 Cl  0  0  0  0  0  0  0  0  0  0  0  0
    3.7320    0.1550    0.0000 O   0  0  0  0  0  0  0  0  0  0  0  0
    5.4641    0.1550    0.0000 O   0  0  0  0  0  0  0  0  0  0  0  0
    3.7320   -2.8450    0.0000 O   0  0  0  0  0  0  0  0  0  0  0  0
    5.4641   -1.8450    0.0000 O   0  0  0  0  0  0  0  0  0  0  0  0
    3.7320   -1.8450    0.0000 C   0  0  2  0  0  0  0  0  0  0  0  0
    4.5981   -1.3450    0.0000 C   0  0  2  0  0  0  0  0  0  0  0  0
    2.8660   -1.3450    0.0000 C   0  0  2  0  0  0  0  0  0  0  0  0
    2.8660   -0.3450    0.0000 C   0  0  1  0  0  0  0  0  0  0  0  0
    4.5981   -0.3450    0.0000 C   0  0  1  0  0  0  0  0  0  0  0  0
    2.0000    0.1550    0.0000 C   0  0  0  0  0  0  0  0  0  0  0  0
    5.4641    1.1550    0.0000 C   0  0  0  0  0  0  0  0  0  0  0  0
    6.3301    1.6550    0.0000 C   0  0  0  0  0  0  0  0  0  0  0  0
    4.5981    1.6550    0.0000 C   0  0  0  0  0  0  0  0  0  0  0  0
    6.3301    2.6550    0.0000 C   0  0  0  0  0  0  0  0  0  0  0  0
    4.5981    2.6550    0.0000 C   0  0  0  0  0  0  0  0  0  0  0  0
    5.4641    3.1550    0.0000 C   0  0  0  0  0  0  0  0  0  0  0  0
    3.1951   -2.1550    0.0000 H   0  0  0  0  0  0  0  0  0  0  0  0
    4.5981   -1.9650    0.0000 H   0  0  0  0  0  0  0  0  0  0  0  0
    2.8660   -1.9650    0.0000 H   0  0  0  0  0  0  0  0  0  0  0  0
    2.8660    0.2750    0.0000 H   0  0  0  0  0  0  0  0  0  0  0  0
    4.5981    0.2750    0.0000 H   0  0  0  0  0  0  0  0  0  0  0  0
    1.3894    0.2627    0.0000 H   0  0  0  0  0  0  0  0  0  0  0  0
    1.7880   -0.4276    0.0000 H   0  0  0  0  0  0  0  0  0  0  0  0
    3.1951   -3.1550    0.0000 H   0  0  0  0  0  0  0  0  0  0  0  0
    5.4641   -2.4650    0.0000 H   0  0  0  0  0  0  0  0  0  0  0  0
    6.8671    1.3450    0.0000 H   0  0  0  0  0  0  0  0  0  0  0  0
    4.0611    1.3450    0.0000 H   0  0  0  0  0  0  0  0  0  0  0  0
    6.8671    2.9650    0.0000 H   0  0  0  0  0  0  0  0  0  0  0  0
    4.0611    2.9650    0.0000 H   0  0  0  0  0  0  0  0  0  0  0  0
    5.4641    3.7750    0.0000 H   0  0  0  0  0  0  0  0  0  0  0  0
  9  1  1  1  0  0  0
  2 12  1  0  0  0  0
  3 10  1  0  0  0  0
  3 11  1  0  0  0  0
 11  4  1  1  0  0  0
  4 13  1  0  0  0  0
  7  5  1  1  0  0  0
  5 26  1  0  0  0  0
  8  6  1  6  0  0  0
  6 27  1  0  0  0  0
  7  8  1  0  0  0  0
  7  9  1  0  0  0  0
  7 19  1  0  0  0  0
  8 11  1  0  0  0  0
  8 20  1  0  0  0  0
  9 10  1  0  0  0  0
  9 21  1  0  0  0  0
 10 12  1  1  0  0  0
 10 22  1  0  0  0  0
 11 23  1  0  0  0  0
 12 24  1  0  0  0  0
 12 25  1  0  0  0  0
 13 14  2  0  0  0  0
 13 15  1  0  0  0  0
 14 16  1  0  0  0  0
 14 28  1  0  0  0  0
 15 17  2  0  0  0  0
 15 29  1  0  0  0  0
 16 18  2  0  0  0  0
 16 30  1  0  0  0  0
 17 18  1  0  0  0  0
 17 31  1  0  0  0  0
 18 32  1  0  0  0  0
M  END
> <PUBCHEM_COMPOUND_CID>
511907
> <PUBCHEM_COMPOUND_CANONICALIZED>
1
> <PUBCHEM_CACTVS_COMPLEXITY>
261
> <PUBCHEM_CACTVS_HBOND_ACCEPTOR>
4
> <PUBCHEM_CACTVS_HBOND_DONOR>
2
> <PUBCHEM_CACTVS_ROTATABLE_BOND>
3
> <PUBCHEM_CACTVS_SUBSKEYS>
AAADccBwOAAGAAAAAAAAAAAAAAAAAAAAAAA0QAAAAAAAAAABAAAAGgIACAAACBewkEMwDoAABgCAACBCAAACCAAgIAAIiAAGC4gdNiKFMRqieCClwBEPqAfAYAwAAAAAAAAAAAAAAAAAAAAAAAAAAAAAAA==
> <PUBCHEM_IUPAC_OPENEYE_NAME>
(2S,3R,4R,5R,6R)-5-chloro-6-(chloromethyl)-2-phenoxy-tetrahydropyran-3,4-diol
> <PUBCHEM_IUPAC_CAS_NAME>
(2S,3R,4R,5R,6R)-5-chloro-6-(chloromethyl)-2-phenoxyoxane-3,4-diol
> <PUBCHEM_IUPAC_NAME_MARKUP>
(2<I>S</I>,3<I>R</I>,4<I>R</I>,5<I>R</I>,6<I>R</I>)-5-chloro-6-(chloromethyl)-2-phenoxyoxane-3,4-diol
> <PUBCHEM_IUPAC_NAME>
(2S,3R,4R,5R,6R)-5-chloro-6-(chloromethyl)-2-phenoxyoxane-3,4-diol
> <PUBCHEM_IUPAC_SYSTEMATIC_NAME>
(2S,3R,4R,5R,6R)-5-chloranyl-6-(chloromethyl)-2-phenoxy-oxane-3,4-diol
> <PUBCHEM_IUPAC_TRADITIONAL_NAME>
(2S,3R,4R,5R,6R)-5-chloro-6-(chloromethyl)-2-phenoxy-tetrahydropyran-3,4-diol
> <PUBCHEM_IUPAC_INCHI>
InChI=1S/C12H14Cl2O4/c13-6-8-9(14)10(15)11(16)12(18-8)17-7-4-2-1-3-5-7/h1-5,8-12,15-16H,6H2/t8-,9+,10+,11-,12-/m1/s1
> <PUBCHEM_IUPAC_INCHIKEY>
HNEGHPYVEOZCNO-YBXAARCKSA-N
> <PUBCHEM_XLOGP3>
1.1
> <PUBCHEM_EXACT_MASS>
292.0269143
> <PUBCHEM_MOLECULAR_FORMULA>
C12H14Cl2O4
> <PUBCHEM_MOLECULAR_WEIGHT>
293.14
> <PUBCHEM_OPENEYE_CAN_SMILES>
C1=CC=C(C=C1)OC2C(C(C(C(O2)CCl)Cl)O)O
> <PUBCHEM_OPENEYE_ISO_SMILES>
C1=CC=C(C=C1)O[C@H]2[C@@H]([C@H]([C@H]([C@H](O2)CCl)Cl)O)O
> <PUBCHEM_CACTVS_TPSA>
58.9
> <PUBCHEM_MONOISOTOPIC_WEIGHT>
292.0269143
> <PUBCHEM_TOTAL_CHARGE>
0
> <PUBCHEM_HEAVY_ATOM_COUNT>
18
> <PUBCHEM_ATOM_DEF_STEREO_COUNT>
5
> <PUBCHEM_ATOM_UDEF_STEREO_COUNT>
0
> <PUBCHEM_BOND_DEF_STEREO_COUNT>
0
> <PUBCHEM_BOND_UDEF_STEREO_COUNT>
0
> <PUBCHEM_ISOTOPIC_ATOM_COUNT>
0
> <PUBCHEM_COMPONENT_COUNT>
1
> <PUBCHEM_CACTVS_TAUTO_COUNT>
-1
> <PUBCHEM_COORDINATE_TYPE>
1
5
255
> <PUBCHEM_BONDANNOTATIONS>
9  1  5
10  12  5
13  14  8
13  15  8
14  16  8
15  17  8
16  18  8
17  18  8
11  4  5
7  5  5
8  6  6
$$$$
