511908
  -OEChem-10302200282D
 33 34  0     1  0  0  0  0  0999 V2000
    2.5369    0.6550    0.0000 Cl  0  0  0  0  0  0  0  0  0  0  0  0
    6.0010    3.6550    0.0000 Cl  0  0  0  0  0  0  0  0  0  0  0  0
    4.2690   -0.3450    0.0000 O   0  0  0  0  0  0  0  0  0  0  0  0
    4.2690   -3.3450    0.0000 O   0  0  0  0  0  0  0  0  0  0  0  0
    6.0010   -0.3450    0.0000 O   0  0  0  0  0  0  0  0  0  0  0  0
    2.5369   -2.3450    0.0000 O   0  0  0  0  0  0  0  0  0  0  0  0
    6.0010   -2.3450    0.0000 O   0  0  0  0  0  0  0  0  0  0  0  0
    4.2690   -2.3450    0.0000 C   0  0  1  0  0  0  0  0  0  0  0  0
    3.4030   -1.8450    0.0000 C   0  0  1  0  0  0  0  0  0  0  0  0
    5.1350   -1.8450    0.0000 C   0  0  2  0  0  0  0  0  0  0  0  0
    3.4030   -0.8450    0.0000 C   0  0  1  0  0  0  0  0  0  0  0  0
    5.1350   -0.8450    0.0000 C   0  0  1  0  0  0  0  0  0  0  0  0
    2.5369   -0.3450    0.0000 C   0  0  0  0  0  0  0  0  0  0  0  0
    6.0010    0.6550    0.0000 C   0  0  0  0  0  0  0  0  0  0  0  0
    6.8671    1.1550    0.0000 C   0  0  0  0  0  0  0  0  0  0  0  0
    5.1350    1.1550    0.0000 C   0  0  0  0  0  0  0  0  0  0  0  0
    6.8671    2.1550    0.0000 C   0  0  0  0  0  0  0  0  0  0  0  0
    5.1350    2.1550    0.0000 C   0  0  0  0  0  0  0  0  0  0  0  0
    6.0010    2.6550    0.0000 C   0  0  0  0  0  0  0  0  0  0  0  0
    3.7320   -2.6550    0.0000 H   0  0  0  0  0  0  0  0  0  0  0  0
    3.4030   -2.4650    0.0000 H   0  0  0  0  0  0  0  0  0  0  0  0
    5.1350   -2.4650    0.0000 H   0  0  0  0  0  0  0  0  0  0  0  0
    3.4030   -0.2250    0.0000 H   0  0  0  0  0  0  0  0  0  0  0  0
    5.1350   -0.2250    0.0000 H   0  0  0  0  0  0  0  0  0  0  0  0
    1.9264   -0.2373    0.0000 H   0  0  0  0  0  0  0  0  0  0  0  0
    2.3249   -0.9276    0.0000 H   0  0  0  0  0  0  0  0  0  0  0  0
    3.7320   -3.6550    0.0000 H   0  0  0  0  0  0  0  0  0  0  0  0
    2.0000   -2.0350    0.0000 H   0  0  0  0  0  0  0  0  0  0  0  0
    6.0010   -2.9650    0.0000 H   0  0  0  0  0  0  0  0  0  0  0  0
    7.4040    0.8450    0.0000 H   0  0  0  0  0  0  0  0  0  0  0  0
    4.5981    0.8450    0.0000 H   0  0  0  0  0  0  0  0  0  0  0  0
    7.4040    2.4650    0.0000 H   0  0  0  0  0  0  0  0  0  0  0  0
    4.5981    2.4650    0.0000 H   0  0  0  0  0  0  0  0  0  0  0  0
  1 13  1  0  0  0  0
  2 19  1  0  0  0  0
  3 11  1  0  0  0  0
  3 12  1  0  0  0  0
  8  4  1  1  0  0  0
  4 27  1  0  0  0  0
 12  5  1  1  0  0  0
  5 14  1  0  0  0  0
  9  6  1  6  0  0  0
  6 28  1  0  0  0  0
 10  7  1  6  0  0  0
  7 29  1  0  0  0  0
  8  9  1  0  0  0  0
  8 10  1  0  0  0  0
  8 20  1  0  0  0  0
  9 11  1  0  0  0  0
  9 21  1  0  0  0  0
 10 12  1  0  0  0  0
 10 22  1  0  0  0  0
 11 13  1  1  0  0  0
 11 23  1  0  0  0  0
 12 24  1  0  0  0  0
 13 25  1  0  0  0  0
 13 26  1  0  0  0  0
 14 15  2  0  0  0  0
 14 16  1  0  0  0  0
 15 17  1  0  0  0  0
 15 30  1  0  0  0  0
 16 18  2  0  0  0  0
 16 31  1  0  0  0  0
 17 19  2  0  0  0  0
 17 32  1  0  0  0  0
 18 19  1  0  0  0  0
 18 33  1  0  0  0  0
M  END
> <PUBCHEM_COMPOUND_CID>
511908
> <PUBCHEM_COMPOUND_CANONICALIZED>
1
> <PUBCHEM_CACTVS_COMPLEXITY>
285
> <PUBCHEM_CACTVS_HBOND_ACCEPTOR>
5
> <PUBCHEM_CACTVS_HBOND_DONOR>
3
> <PUBCHEM_CACTVS_ROTATABLE_BOND>
3
> <PUBCHEM_CACTVS_SUBSKEYS>
AAADccBwOAAGAAAAAAAAAAAAAAAAAAAAAAA0QAAAAAAAAAABAAAAGgIACAAACBewkGMwDoAABgCAACBCAAACCAAgJQAIiAAGC4gdNiKFMxqieCClwBEPqAfAYAwAACAAAAAAAAAAQAAAAAAAAAAAAAAAAA==
> <PUBCHEM_IUPAC_OPENEYE_NAME>
(2S,3S,4S,5R,6S)-2-(chloromethyl)-6-(4-chlorophenoxy)tetrahydropyran-3,4,5-triol
> <PUBCHEM_IUPAC_CAS_NAME>
(2S,3S,4S,5R,6S)-2-(chloromethyl)-6-(4-chlorophenoxy)oxane-3,4,5-triol
> <PUBCHEM_IUPAC_NAME_MARKUP>
(2<I>S</I>,3<I>S</I>,4<I>S</I>,5<I>R</I>,6<I>S</I>)-2-(chloromethyl)-6-(4-chlorophenoxy)oxane-3,4,5-triol
> <PUBCHEM_IUPAC_NAME>
(2S,3S,4S,5R,6S)-2-(chloromethyl)-6-(4-chlorophenoxy)oxane-3,4,5-triol
> <PUBCHEM_IUPAC_SYSTEMATIC_NAME>
(2S,3R,4S,5S,6S)-2-(4-chloranylphenoxy)-6-(chloromethyl)oxane-3,4,5-triol
> <PUBCHEM_IUPAC_TRADITIONAL_NAME>
(2S,3S,4S,5R,6S)-2-(chloromethyl)-6-(4-chlorophenoxy)tetrahydropyran-3,4,5-triol
> <PUBCHEM_IUPAC_INCHI>
InChI=1S/C12H14Cl2O5/c13-5-8-9(15)10(16)11(17)12(19-8)18-7-3-1-6(14)2-4-7/h1-4,8-12,15-17H,5H2/t8-,9-,10+,11-,12-/m1/s1
> <PUBCHEM_IUPAC_INCHIKEY>
LRWIMERDLSHSJJ-RMPHRYRLSA-N
> <PUBCHEM_XLOGP3>
1
> <PUBCHEM_EXACT_MASS>
308.0218289
> <PUBCHEM_MOLECULAR_FORMULA>
C12H14Cl2O5
> <PUBCHEM_MOLECULAR_WEIGHT>
309.14
> <PUBCHEM_OPENEYE_CAN_SMILES>
C1=CC(=CC=C1OC2C(C(C(C(O2)CCl)O)O)O)Cl
> <PUBCHEM_OPENEYE_ISO_SMILES>
C1=CC(=CC=C1O[C@H]2[C@@H]([C@H]([C@@H]([C@H](O2)CCl)O)O)O)Cl
> <PUBCHEM_CACTVS_TPSA>
79.2
> <PUBCHEM_MONOISOTOPIC_WEIGHT>
308.0218289
> <PUBCHEM_TOTAL_CHARGE>
0
> <PUBCHEM_HEAVY_ATOM_COUNT>
19
> <PUBCHEM_ATOM_DEF_STEREO_COUNT>
5
> <PUBCHEM_ATOM_UDEF_STEREO_COUNT>
0
> <PUBCHEM_BOND_DEF_STEREO_COUNT>
0
> <PUBCHEM_BOND_UDEF_STEREO_COUNT>
0
> <PUBCHEM_ISOTOPIC_ATOM_COUNT>
0
> <PUBCHEM_COMPONENT_COUNT>
1
> <PUBCHEM_CACTVS_TAUTO_COUNT>
-1
> <PUBCHEM_COORDINATE_TYPE>
1
5
255
> <PUBCHEM_BONDANNOTATIONS>
11  13  5
14  15  8
14  16  8
15  17  8
16  18  8
17  19  8
18  19  8
8  4  5
12  5  5
9  6  6
10  7  6
$$$$
