511974
  -OEChem-10302200282D
 36 37  0     1  0  0  0  0  0999 V2000
    4.5981   -3.3450    0.0000 O   0  0  0  0  0  0  0  0  0  0  0  0
    2.8660   -4.3450    0.0000 O   0  0  0  0  0  0  0  0  0  0  0  0
    2.0000   -2.8450    0.0000 O   0  0  0  0  0  0  0  0  0  0  0  0
    6.3301   -0.3450    0.0000 N   0  0  0  0  0  0  0  0  0  0  0  0
    5.4641   -1.8450    0.0000 N   0  0  0  0  0  0  0  0  0  0  0  0
    5.4641    1.1550    0.0000 C   0  0  0  0  0  0  0  0  0  0  0  0
    6.3301    1.6550    0.0000 C   0  0  0  0  0  0  0  0  0  0  0  0
    5.4641    0.1550    0.0000 C   0  0  0  0  0  0  0  0  0  0  0  0
    3.7320   -1.8450    0.0000 C   0  0  0  0  0  0  0  0  0  0  0  0
    4.5981   -1.3450    0.0000 C   0  0  0  0  0  0  0  0  0  0  0  0
    6.3301    2.6550    0.0000 C   0  0  0  0  0  0  0  0  0  0  0  0
    4.5981   -0.3450    0.0000 C   0  0  0  0  0  0  0  0  0  0  0  0
    3.7320   -2.8450    0.0000 C   0  0  3  0  0  0  0  0  0  0  0  0
    7.1962    3.1550    0.0000 C   0  0  0  0  0  0  0  0  0  0  0  0
    5.4641    3.1550    0.0000 C   0  0  0  0  0  0  0  0  0  0  0  0
    6.3301   -1.3450    0.0000 C   0  0  0  0  0  0  0  0  0  0  0  0
    2.8660   -3.3450    0.0000 C   0  0  0  0  0  0  0  0  0  0  0  0
    7.1962    4.1550    0.0000 C   0  0  0  0  0  0  0  0  0  0  0  0
    5.4641    4.1550    0.0000 C   0  0  0  0  0  0  0  0  0  0  0  0
    6.3301    4.6550    0.0000 C   0  0  0  0  0  0  0  0  0  0  0  0
    5.2520    1.7376    0.0000 H   0  0  0  0  0  0  0  0  0  0  0  0
    4.8535    1.0473    0.0000 H   0  0  0  0  0  0  0  0  0  0  0  0
    6.5422    1.0724    0.0000 H   0  0  0  0  0  0  0  0  0  0  0  0
    6.9407    1.7627    0.0000 H   0  0  0  0  0  0  0  0  0  0  0  0
    3.5200   -1.2624    0.0000 H   0  0  0  0  0  0  0  0  0  0  0  0
    3.1215   -1.9527    0.0000 H   0  0  0  0  0  0  0  0  0  0  0  0
    4.0611   -0.0350    0.0000 H   0  0  0  0  0  0  0  0  0  0  0  0
    3.7320   -3.4650    0.0000 H   0  0  0  0  0  0  0  0  0  0  0  0
    7.7331    2.8450    0.0000 H   0  0  0  0  0  0  0  0  0  0  0  0
    4.9272    2.8450    0.0000 H   0  0  0  0  0  0  0  0  0  0  0  0
    6.8671   -1.6550    0.0000 H   0  0  0  0  0  0  0  0  0  0  0  0
    7.7331    4.4650    0.0000 H   0  0  0  0  0  0  0  0  0  0  0  0
    4.9272    4.4650    0.0000 H   0  0  0  0  0  0  0  0  0  0  0  0
    6.3301    5.2750    0.0000 H   0  0  0  0  0  0  0  0  0  0  0  0
    4.5981   -3.9650    0.0000 H   0  0  0  0  0  0  0  0  0  0  0  0
    2.3291   -4.6550    0.0000 H   0  0  0  0  0  0  0  0  0  0  0  0
  1 13  1  0  0  0  0
  1 35  1  0  0  0  0
  2 17  1  0  0  0  0
  2 36  1  0  0  0  0
  3 17  2  0  0  0  0
  4  8  1  0  0  0  0
  4 16  2  0  0  0  0
  5 10  2  0  0  0  0
  5 16  1  0  0  0  0
  6  7  1  0  0  0  0
  6  8  1  0  0  0  0
  6 21  1  0  0  0  0
  6 22  1  0  0  0  0
  7 11  1  0  0  0  0
  7 23  1  0  0  0  0
  7 24  1  0  0  0  0
  8 12  2  0  0  0  0
  9 10  1  0  0  0  0
  9 13  1  0  0  0  0
  9 25  1  0  0  0  0
  9 26  1  0  0  0  0
 10 12  1  0  0  0  0
 11 14  2  0  0  0  0
 11 15  1  0  0  0  0
 12 27  1  0  0  0  0
 13 17  1  0  0  0  0
 13 28  1  0  0  0  0
 14 18  1  0  0  0  0
 14 29  1  0  0  0  0
 15 19  2  0  0  0  0
 15 30  1  0  0  0  0
 16 31  1  0  0  0  0
 18 20  2  0  0  0  0
 18 32  1  0  0  0  0
 19 20  1  0  0  0  0
 19 33  1  0  0  0  0
 20 34  1  0  0  0  0
M  END
> <PUBCHEM_COMPOUND_CID>
511974
> <PUBCHEM_COMPOUND_CANONICALIZED>
1
> <PUBCHEM_CACTVS_COMPLEXITY>
306
> <PUBCHEM_CACTVS_HBOND_ACCEPTOR>
5
> <PUBCHEM_CACTVS_HBOND_DONOR>
2
> <PUBCHEM_CACTVS_ROTATABLE_BOND>
6
> <PUBCHEM_CACTVS_SUBSKEYS>
AAADceBzMAAAAAAAAAAAAAAAAAAAAAAAAAA8QAAAAAAAAAABwAAAHgAACAAADByhngY1mJYIEgCoAyTzbAKCgCkxAqAJ2CF4ZJiJODLA2dCEZAhuwANJyCe82OOOAAAAAAAAAAAAAAAAAAAAAAAAAAAAAA==
> <PUBCHEM_IUPAC_OPENEYE_NAME>
2-hydroxy-3-[6-(2-phenylethyl)pyrimidin-4-yl]propanoic acid
> <PUBCHEM_IUPAC_CAS_NAME>
2-hydroxy-3-[6-(2-phenylethyl)-4-pyrimidinyl]propanoic acid
> <PUBCHEM_IUPAC_NAME_MARKUP>
2-hydroxy-3-[6-(2-phenylethyl)pyrimidin-4-yl]propanoic acid
> <PUBCHEM_IUPAC_NAME>
2-hydroxy-3-[6-(2-phenylethyl)pyrimidin-4-yl]propanoic acid
> <PUBCHEM_IUPAC_SYSTEMATIC_NAME>
2-oxidanyl-3-[6-(2-phenylethyl)pyrimidin-4-yl]propanoic acid
> <PUBCHEM_IUPAC_TRADITIONAL_NAME>
2-hydroxy-3-(6-phenethylpyrimidin-4-yl)propionic acid
> <PUBCHEM_IUPAC_INCHI>
InChI=1S/C15H16N2O3/c18-14(15(19)20)9-13-8-12(16-10-17-13)7-6-11-4-2-1-3-5-11/h1-5,8,10,14,18H,6-7,9H2,(H,19,20)
> <PUBCHEM_IUPAC_INCHIKEY>
DEOHQXQXYWRZEH-UHFFFAOYSA-N
> <PUBCHEM_XLOGP3_AA>
1.7
> <PUBCHEM_EXACT_MASS>
272.11609238
> <PUBCHEM_MOLECULAR_FORMULA>
C15H16N2O3
> <PUBCHEM_MOLECULAR_WEIGHT>
272.30
> <PUBCHEM_OPENEYE_CAN_SMILES>
C1=CC=C(C=C1)CCC2=CC(=NC=N2)CC(C(=O)O)O
> <PUBCHEM_OPENEYE_ISO_SMILES>
C1=CC=C(C=C1)CCC2=CC(=NC=N2)CC(C(=O)O)O
> <PUBCHEM_CACTVS_TPSA>
83.3
> <PUBCHEM_MONOISOTOPIC_WEIGHT>
272.11609238
> <PUBCHEM_TOTAL_CHARGE>
0
> <PUBCHEM_HEAVY_ATOM_COUNT>
20
> <PUBCHEM_ATOM_DEF_STEREO_COUNT>
0
> <PUBCHEM_ATOM_UDEF_STEREO_COUNT>
1
> <PUBCHEM_BOND_DEF_STEREO_COUNT>
0
> <PUBCHEM_BOND_UDEF_STEREO_COUNT>
0
> <PUBCHEM_ISOTOPIC_ATOM_COUNT>
0
> <PUBCHEM_COMPONENT_COUNT>
1
> <PUBCHEM_CACTVS_TAUTO_COUNT>
-1
> <PUBCHEM_COORDINATE_TYPE>
1
5
255
> <PUBCHEM_BONDANNOTATIONS>
13  1  3
10  12  8
11  14  8
11  15  8
14  18  8
15  19  8
18  20  8
19  20  8
4  16  8
4  8  8
5  10  8
5  16  8
8  12  8
$$$$
