511913
  -OEChem-10302200282D
 33 34  0     1  0  0  0  0  0999 V2000
    5.1350   -0.1900    0.0000 O   0  0  0  0  0  0  0  0  0  0  0  0
    6.8671   -0.1900    0.0000 O   0  0  0  0  0  0  0  0  0  0  0  0
    3.4030   -2.1900    0.0000 O   0  0  0  0  0  0  0  0  0  0  0  0
    6.8671   -2.1900    0.0000 O   0  0  0  0  0  0  0  0  0  0  0  0
    2.5369   -0.6900    0.0000 O   0  0  0  0  0  0  0  0  0  0  0  0
    4.2690   -1.6900    0.0000 C   0  0  1  0  0  0  0  0  0  0  0  0
    5.1350   -2.1900    0.0000 C   0  0  0  0  0  0  0  0  0  0  0  0
    4.2690   -0.6900    0.0000 C   0  0  1  0  0  0  0  0  0  0  0  0
    6.0010   -1.6900    0.0000 C   0  0  2  0  0  0  0  0  0  0  0  0
    6.0010   -0.6900    0.0000 C   0  0  1  0  0  0  0  0  0  0  0  0
    3.4030   -0.1900    0.0000 C   0  0  0  0  0  0  0  0  0  0  0  0
    6.8671    0.8100    0.0000 C   0  0  0  0  0  0  0  0  0  0  0  0
    7.7331    1.3100    0.0000 C   0  0  0  0  0  0  0  0  0  0  0  0
    6.0010    1.3100    0.0000 C   0  0  0  0  0  0  0  0  0  0  0  0
    7.7331    2.3100    0.0000 C   0  0  0  0  0  0  0  0  0  0  0  0
    6.0010    2.3100    0.0000 C   0  0  0  0  0  0  0  0  0  0  0  0
    6.8671    2.8100    0.0000 C   0  0  0  0  0  0  0  0  0  0  0  0
    4.2690   -2.3100    0.0000 H   0  0  0  0  0  0  0  0  0  0  0  0
    4.7365   -2.6650    0.0000 H   0  0  0  0  0  0  0  0  0  0  0  0
    5.5335   -2.6650    0.0000 H   0  0  0  0  0  0  0  0  0  0  0  0
    4.2690   -0.0700    0.0000 H   0  0  0  0  0  0  0  0  0  0  0  0
    6.0010   -2.3100    0.0000 H   0  0  0  0  0  0  0  0  0  0  0  0
    6.0010   -0.0700    0.0000 H   0  0  0  0  0  0  0  0  0  0  0  0
    3.8015    0.2849    0.0000 H   0  0  0  0  0  0  0  0  0  0  0  0
    3.0044    0.2849    0.0000 H   0  0  0  0  0  0  0  0  0  0  0  0
    3.4030   -2.8100    0.0000 H   0  0  0  0  0  0  0  0  0  0  0  0
    6.8671   -2.8100    0.0000 H   0  0  0  0  0  0  0  0  0  0  0  0
    2.0000   -0.3800    0.0000 H   0  0  0  0  0  0  0  0  0  0  0  0
    8.2700    1.0000    0.0000 H   0  0  0  0  0  0  0  0  0  0  0  0
    5.4641    1.0000    0.0000 H   0  0  0  0  0  0  0  0  0  0  0  0
    8.2700    2.6200    0.0000 H   0  0  0  0  0  0  0  0  0  0  0  0
    5.4641    2.6200    0.0000 H   0  0  0  0  0  0  0  0  0  0  0  0
    6.8671    3.4300    0.0000 H   0  0  0  0  0  0  0  0  0  0  0  0
  1  8  1  0  0  0  0
  1 10  1  0  0  0  0
 10  2  1  1  0  0  0
  2 12  1  0  0  0  0
  6  3  1  6  0  0  0
  3 26  1  0  0  0  0
  9  4  1  6  0  0  0
  4 27  1  0  0  0  0
  5 11  1  0  0  0  0
  5 28  1  0  0  0  0
  6  7  1  0  0  0  0
  6  8  1  0  0  0  0
  6 18  1  0  0  0  0
  7  9  1  0  0  0  0
  7 19  1  0  0  0  0
  7 20  1  0  0  0  0
  8 11  1  1  0  0  0
  8 21  1  0  0  0  0
  9 10  1  0  0  0  0
  9 22  1  0  0  0  0
 10 23  1  0  0  0  0
 11 24  1  0  0  0  0
 11 25  1  0  0  0  0
 12 13  2  0  0  0  0
 12 14  1  0  0  0  0
 13 15  1  0  0  0  0
 13 29  1  0  0  0  0
 14 16  2  0  0  0  0
 14 30  1  0  0  0  0
 15 17  2  0  0  0  0
 15 31  1  0  0  0  0
 16 17  1  0  0  0  0
 16 32  1  0  0  0  0
 17 33  1  0  0  0  0
M  END
> <PUBCHEM_COMPOUND_CID>
511913
> <PUBCHEM_COMPOUND_CANONICALIZED>
1
> <PUBCHEM_CACTVS_COMPLEXITY>
229
> <PUBCHEM_CACTVS_HBOND_ACCEPTOR>
5
> <PUBCHEM_CACTVS_HBOND_DONOR>
3
> <PUBCHEM_CACTVS_ROTATABLE_BOND>
3
> <PUBCHEM_CACTVS_SUBSKEYS>
AAADceBwOAAAAAAAAAAAAAAAAAAAAAAAAAA0QAAAAAAAAAABAAAAGgAACAAACBSwkAMwDoAABgCAACBCAAACCAAgIAAIiAAGCIgdNiKEMRqieCClwBEPqAfAYAwAAAAAAAAAAAAAAAAAAAAAAAAAAAAAAA==
> <PUBCHEM_IUPAC_OPENEYE_NAME>
(2R,3S,5R,6S)-2-(hydroxymethyl)-6-phenoxy-tetrahydropyran-3,5-diol
> <PUBCHEM_IUPAC_CAS_NAME>
(2R,3S,5R,6S)-2-(hydroxymethyl)-6-phenoxyoxane-3,5-diol
> <PUBCHEM_IUPAC_NAME_MARKUP>
(2<I>R</I>,3<I>S</I>,5<I>R</I>,6<I>S</I>)-2-(hydroxymethyl)-6-phenoxyoxane-3,5-diol
> <PUBCHEM_IUPAC_NAME>
(2R,3S,5R,6S)-2-(hydroxymethyl)-6-phenoxyoxane-3,5-diol
> <PUBCHEM_IUPAC_SYSTEMATIC_NAME>
(2R,3S,5R,6S)-2-(hydroxymethyl)-6-phenoxy-oxane-3,5-diol
> <PUBCHEM_IUPAC_TRADITIONAL_NAME>
(2R,3S,5R,6S)-2-methylol-6-phenoxy-tetrahydropyran-3,5-diol
> <PUBCHEM_IUPAC_INCHI>
InChI=1S/C12H16O5/c13-7-11-9(14)6-10(15)12(17-11)16-8-4-2-1-3-5-8/h1-5,9-15H,6-7H2/t9-,10+,11+,12+/m0/s1
> <PUBCHEM_IUPAC_INCHIKEY>
PCUCKDCJMYQVBR-IRCOFANPSA-N
> <PUBCHEM_XLOGP3>
0.1
> <PUBCHEM_EXACT_MASS>
240.09977361
> <PUBCHEM_MOLECULAR_FORMULA>
C12H16O5
> <PUBCHEM_MOLECULAR_WEIGHT>
240.25
> <PUBCHEM_OPENEYE_CAN_SMILES>
C1C(C(OC(C1O)OC2=CC=CC=C2)CO)O
> <PUBCHEM_OPENEYE_ISO_SMILES>
C1[C@@H]([C@H](O[C@H]([C@@H]1O)OC2=CC=CC=C2)CO)O
> <PUBCHEM_CACTVS_TPSA>
79.2
> <PUBCHEM_MONOISOTOPIC_WEIGHT>
240.09977361
> <PUBCHEM_TOTAL_CHARGE>
0
> <PUBCHEM_HEAVY_ATOM_COUNT>
17
> <PUBCHEM_ATOM_DEF_STEREO_COUNT>
4
> <PUBCHEM_ATOM_UDEF_STEREO_COUNT>
0
> <PUBCHEM_BOND_DEF_STEREO_COUNT>
0
> <PUBCHEM_BOND_UDEF_STEREO_COUNT>
0
> <PUBCHEM_ISOTOPIC_ATOM_COUNT>
0
> <PUBCHEM_COMPONENT_COUNT>
1
> <PUBCHEM_CACTVS_TAUTO_COUNT>
-1
> <PUBCHEM_COORDINATE_TYPE>
1
5
255
> <PUBCHEM_BONDANNOTATIONS>
12  13  8
12  14  8
13  15  8
14  16  8
15  17  8
16  17  8
10  2  5
6  3  6
9  4  6
8  11  5
$$$$
