511914
  -OEChem-10302200282D
 33 34  0     1  0  0  0  0  0999 V2000
    9.4651   -1.0000    0.0000 Cl  0  0  0  0  0  0  0  0  0  0  0  0
    4.2690    1.0000    0.0000 O   0  0  0  0  0  0  0  0  0  0  0  0
    2.5369   -1.0000    0.0000 O   0  0  0  0  0  0  0  0  0  0  0  0
    4.2690   -2.0000    0.0000 O   0  0  0  0  0  0  0  0  0  0  0  0
    6.0010    1.0000    0.0000 O   0  0  0  0  0  0  0  0  0  0  0  0
    2.5369    2.0000    0.0000 O   0  0  0  0  0  0  0  0  0  0  0  0
    3.4030   -0.5000    0.0000 C   0  0  1  0  0  0  0  0  0  0  0  0
    4.2690   -1.0000    0.0000 C   0  0  1  0  0  0  0  0  0  0  0  0
    3.4030    0.5000    0.0000 C   0  0  1  0  0  0  0  0  0  0  0  0
    5.1350   -0.5000    0.0000 C   0  0  0  0  0  0  0  0  0  0  0  0
    5.1350    0.5000    0.0000 C   0  0  2  0  0  0  0  0  0  0  0  0
    2.5369    1.0000    0.0000 C   0  0  0  0  0  0  0  0  0  0  0  0
    6.8671    0.5000    0.0000 C   0  0  0  0  0  0  0  0  0  0  0  0
    6.8671   -0.5000    0.0000 C   0  0  0  0  0  0  0  0  0  0  0  0
    7.7331    1.0000    0.0000 C   0  0  0  0  0  0  0  0  0  0  0  0
    7.7331   -1.0000    0.0000 C   0  0  0  0  0  0  0  0  0  0  0  0
    8.5991    0.5000    0.0000 C   0  0  0  0  0  0  0  0  0  0  0  0
    8.5991   -0.5000    0.0000 C   0  0  0  0  0  0  0  0  0  0  0  0
    2.8660   -0.1900    0.0000 H   0  0  0  0  0  0  0  0  0  0  0  0
    4.8059   -1.3100    0.0000 H   0  0  0  0  0  0  0  0  0  0  0  0
    3.4030    1.1200    0.0000 H   0  0  0  0  0  0  0  0  0  0  0  0
    5.3471   -1.0826    0.0000 H   0  0  0  0  0  0  0  0  0  0  0  0
    5.7456   -0.3923    0.0000 H   0  0  0  0  0  0  0  0  0  0  0  0
    5.1350    1.1200    0.0000 H   0  0  0  0  0  0  0  0  0  0  0  0
    1.9264    1.1077    0.0000 H   0  0  0  0  0  0  0  0  0  0  0  0
    2.3249    0.4174    0.0000 H   0  0  0  0  0  0  0  0  0  0  0  0
    2.5369   -1.6200    0.0000 H   0  0  0  0  0  0  0  0  0  0  0  0
    4.8059   -2.3100    0.0000 H   0  0  0  0  0  0  0  0  0  0  0  0
    2.0000    2.3100    0.0000 H   0  0  0  0  0  0  0  0  0  0  0  0
    6.3301   -0.8100    0.0000 H   0  0  0  0  0  0  0  0  0  0  0  0
    7.7331    1.6200    0.0000 H   0  0  0  0  0  0  0  0  0  0  0  0
    7.7331   -1.6200    0.0000 H   0  0  0  0  0  0  0  0  0  0  0  0
    9.1360    0.8100    0.0000 H   0  0  0  0  0  0  0  0  0  0  0  0
  1 18  1  0  0  0  0
  2  9  1  0  0  0  0
  2 11  1  0  0  0  0
  7  3  1  6  0  0  0
  3 27  1  0  0  0  0
  8  4  1  1  0  0  0
  4 28  1  0  0  0  0
 11  5  1  6  0  0  0
  5 13  1  0  0  0  0
  6 12  1  0  0  0  0
  6 29  1  0  0  0  0
  7  8  1  0  0  0  0
  7  9  1  0  0  0  0
  7 19  1  0  0  0  0
  8 10  1  0  0  0  0
  8 20  1  0  0  0  0
  9 12  1  1  0  0  0
  9 21  1  0  0  0  0
 10 11  1  0  0  0  0
 10 22  1  0  0  0  0
 10 23  1  0  0  0  0
 11 24  1  0  0  0  0
 12 25  1  0  0  0  0
 12 26  1  0  0  0  0
 13 14  2  0  0  0  0
 13 15  1  0  0  0  0
 14 16  1  0  0  0  0
 14 30  1  0  0  0  0
 15 17  2  0  0  0  0
 15 31  1  0  0  0  0
 16 18  2  0  0  0  0
 16 32  1  0  0  0  0
 17 18  1  0  0  0  0
 17 33  1  0  0  0  0
M  END
> <PUBCHEM_COMPOUND_CID>
511914
> <PUBCHEM_COMPOUND_CANONICALIZED>
1
> <PUBCHEM_CACTVS_COMPLEXITY>
257
> <PUBCHEM_CACTVS_HBOND_ACCEPTOR>
5
> <PUBCHEM_CACTVS_HBOND_DONOR>
3
> <PUBCHEM_CACTVS_ROTATABLE_BOND>
3
> <PUBCHEM_CACTVS_SUBSKEYS>
AAADccBwOAAEAAAAAAAAAAAAAAAAAAAAAAA0QAAAAAAAAAABAAAAGgIACAAACBawkCMwDoAABgCAACBCAAACCAAgJQAIiAAGCogdNiKFMxqieCClwBEPqAfAYAwAACAAAAAAAAAAQAAAAAAAAAAAAAAAAA==
> <PUBCHEM_IUPAC_OPENEYE_NAME>
(2R,3S,4R,6R)-6-(4-chlorophenoxy)-2-(hydroxymethyl)tetrahydropyran-3,4-diol
> <PUBCHEM_IUPAC_CAS_NAME>
(2R,3S,4R,6R)-6-(4-chlorophenoxy)-2-(hydroxymethyl)oxane-3,4-diol
> <PUBCHEM_IUPAC_NAME_MARKUP>
(2<I>R</I>,3<I>S</I>,4<I>R</I>,6<I>R</I>)-6-(4-chlorophenoxy)-2-(hydroxymethyl)oxane-3,4-diol
> <PUBCHEM_IUPAC_NAME>
(2R,3S,4R,6R)-6-(4-chlorophenoxy)-2-(hydroxymethyl)oxane-3,4-diol
> <PUBCHEM_IUPAC_SYSTEMATIC_NAME>
(2R,3S,4R,6R)-6-(4-chloranylphenoxy)-2-(hydroxymethyl)oxane-3,4-diol
> <PUBCHEM_IUPAC_TRADITIONAL_NAME>
(2R,3S,4R,6R)-6-(4-chlorophenoxy)-2-methylol-tetrahydropyran-3,4-diol
> <PUBCHEM_IUPAC_INCHI>
InChI=1S/C12H15ClO5/c13-7-1-3-8(4-2-7)17-11-5-9(15)12(16)10(6-14)18-11/h1-4,9-12,14-16H,5-6H2/t9-,10-,11+,12+/m1/s1
> <PUBCHEM_IUPAC_INCHIKEY>
ADBDKPJKXLEFKB-WYUUTHIRSA-N
> <PUBCHEM_XLOGP3>
1.2
> <PUBCHEM_EXACT_MASS>
274.0608013
> <PUBCHEM_MOLECULAR_FORMULA>
C12H15ClO5
> <PUBCHEM_MOLECULAR_WEIGHT>
274.70
> <PUBCHEM_OPENEYE_CAN_SMILES>
C1C(C(C(OC1OC2=CC=C(C=C2)Cl)CO)O)O
> <PUBCHEM_OPENEYE_ISO_SMILES>
C1[C@H]([C@@H]([C@H](O[C@@H]1OC2=CC=C(C=C2)Cl)CO)O)O
> <PUBCHEM_CACTVS_TPSA>
79.2
> <PUBCHEM_MONOISOTOPIC_WEIGHT>
274.0608013
> <PUBCHEM_TOTAL_CHARGE>
0
> <PUBCHEM_HEAVY_ATOM_COUNT>
18
> <PUBCHEM_ATOM_DEF_STEREO_COUNT>
4
> <PUBCHEM_ATOM_UDEF_STEREO_COUNT>
0
> <PUBCHEM_BOND_DEF_STEREO_COUNT>
0
> <PUBCHEM_BOND_UDEF_STEREO_COUNT>
0
> <PUBCHEM_ISOTOPIC_ATOM_COUNT>
0
> <PUBCHEM_COMPONENT_COUNT>
1
> <PUBCHEM_CACTVS_TAUTO_COUNT>
-1
> <PUBCHEM_COORDINATE_TYPE>
1
5
255
> <PUBCHEM_BONDANNOTATIONS>
13  14  8
13  15  8
14  16  8
15  17  8
16  18  8
17  18  8
7  3  6
8  4  5
11  5  6
9  12  5
$$$$
