511912
  -OEChem-10302200282D
 33 34  0     1  0  0  0  0  0999 V2000
    5.1350    0.1550    0.0000 O   0  0  0  0  0  0  0  0  0  0  0  0
    6.8671    0.1550    0.0000 O   0  0  0  0  0  0  0  0  0  0  0  0
    5.1350   -2.8450    0.0000 O   0  0  0  0  0  0  0  0  0  0  0  0
    6.8671   -1.8450    0.0000 O   0  0  0  0  0  0  0  0  0  0  0  0
    2.5369   -0.3450    0.0000 O   0  0  0  0  0  0  0  0  0  0  0  0
    5.1350   -1.8450    0.0000 C   0  0  1  0  0  0  0  0  0  0  0  0
    4.2690   -1.3450    0.0000 C   0  0  0  0  0  0  0  0  0  0  0  0
    6.0010   -1.3450    0.0000 C   0  0  2  0  0  0  0  0  0  0  0  0
    4.2690   -0.3450    0.0000 C   0  0  1  0  0  0  0  0  0  0  0  0
    6.0010   -0.3450    0.0000 C   0  0  1  0  0  0  0  0  0  0  0  0
    3.4030    0.1550    0.0000 C   0  0  0  0  0  0  0  0  0  0  0  0
    6.8671    1.1550    0.0000 C   0  0  0  0  0  0  0  0  0  0  0  0
    6.0010    1.6550    0.0000 C   0  0  0  0  0  0  0  0  0  0  0  0
    7.7331    1.6550    0.0000 C   0  0  0  0  0  0  0  0  0  0  0  0
    6.0010    2.6550    0.0000 C   0  0  0  0  0  0  0  0  0  0  0  0
    7.7331    2.6550    0.0000 C   0  0  0  0  0  0  0  0  0  0  0  0
    6.8671    3.1550    0.0000 C   0  0  0  0  0  0  0  0  0  0  0  0
    4.5981   -2.1550    0.0000 H   0  0  0  0  0  0  0  0  0  0  0  0
    3.6584   -1.2373    0.0000 H   0  0  0  0  0  0  0  0  0  0  0  0
    4.0569   -1.9276    0.0000 H   0  0  0  0  0  0  0  0  0  0  0  0
    6.0010   -1.9650    0.0000 H   0  0  0  0  0  0  0  0  0  0  0  0
    4.2690    0.2750    0.0000 H   0  0  0  0  0  0  0  0  0  0  0  0
    6.0010    0.2750    0.0000 H   0  0  0  0  0  0  0  0  0  0  0  0
    3.8015    0.6299    0.0000 H   0  0  0  0  0  0  0  0  0  0  0  0
    3.0044    0.6299    0.0000 H   0  0  0  0  0  0  0  0  0  0  0  0
    4.5981   -3.1550    0.0000 H   0  0  0  0  0  0  0  0  0  0  0  0
    6.8671   -2.4650    0.0000 H   0  0  0  0  0  0  0  0  0  0  0  0
    2.0000   -0.0350    0.0000 H   0  0  0  0  0  0  0  0  0  0  0  0
    5.4641    1.3450    0.0000 H   0  0  0  0  0  0  0  0  0  0  0  0
    8.2700    1.3450    0.0000 H   0  0  0  0  0  0  0  0  0  0  0  0
    5.4641    2.9650    0.0000 H   0  0  0  0  0  0  0  0  0  0  0  0
    8.2700    2.9650    0.0000 H   0  0  0  0  0  0  0  0  0  0  0  0
    6.8671    3.7750    0.0000 H   0  0  0  0  0  0  0  0  0  0  0  0
  1  9  1  0  0  0  0
  1 10  1  0  0  0  0
 10  2  1  1  0  0  0
  2 12  1  0  0  0  0
  6  3  1  1  0  0  0
  3 26  1  0  0  0  0
  8  4  1  6  0  0  0
  4 27  1  0  0  0  0
  5 11  1  0  0  0  0
  5 28  1  0  0  0  0
  6  7  1  0  0  0  0
  6  8  1  0  0  0  0
  6 18  1  0  0  0  0
  7  9  1  0  0  0  0
  7 19  1  0  0  0  0
  7 20  1  0  0  0  0
  8 10  1  0  0  0  0
  8 21  1  0  0  0  0
  9 11  1  1  0  0  0
  9 22  1  0  0  0  0
 10 23  1  0  0  0  0
 11 24  1  0  0  0  0
 11 25  1  0  0  0  0
 12 13  2  0  0  0  0
 12 14  1  0  0  0  0
 13 15  1  0  0  0  0
 13 29  1  0  0  0  0
 14 16  2  0  0  0  0
 14 30  1  0  0  0  0
 15 17  2  0  0  0  0
 15 31  1  0  0  0  0
 16 17  1  0  0  0  0
 16 32  1  0  0  0  0
 17 33  1  0  0  0  0
M  END
> <PUBCHEM_COMPOUND_CID>
511912
> <PUBCHEM_COMPOUND_CANONICALIZED>
1
> <PUBCHEM_CACTVS_COMPLEXITY>
229
> <PUBCHEM_CACTVS_HBOND_ACCEPTOR>
5
> <PUBCHEM_CACTVS_HBOND_DONOR>
3
> <PUBCHEM_CACTVS_ROTATABLE_BOND>
3
> <PUBCHEM_CACTVS_SUBSKEYS>
AAADceBwOAAAAAAAAAAAAAAAAAAAAAAAAAA0QAAAAAAAAAABAAAAGgAACAAACBSwkAMwDoAABgCAACBCAAACCAAgIAAIiAAGCIgdNiKEMRqieCClwBEPqAfAYAwAAAAAAAAAAAAAAAAAAAAAAAAAAAAAAA==
> <PUBCHEM_IUPAC_OPENEYE_NAME>
(2S,3R,4S,6S)-6-(hydroxymethyl)-2-phenoxy-tetrahydropyran-3,4-diol
> <PUBCHEM_IUPAC_CAS_NAME>
(2S,3R,4S,6S)-6-(hydroxymethyl)-2-phenoxyoxane-3,4-diol
> <PUBCHEM_IUPAC_NAME_MARKUP>
(2<I>S</I>,3<I>R</I>,4<I>S</I>,6<I>S</I>)-6-(hydroxymethyl)-2-phenoxyoxane-3,4-diol
> <PUBCHEM_IUPAC_NAME>
(2S,3R,4S,6S)-6-(hydroxymethyl)-2-phenoxyoxane-3,4-diol
> <PUBCHEM_IUPAC_SYSTEMATIC_NAME>
(2S,3R,4S,6S)-6-(hydroxymethyl)-2-phenoxy-oxane-3,4-diol
> <PUBCHEM_IUPAC_TRADITIONAL_NAME>
(2S,3R,4S,6S)-6-methylol-2-phenoxy-tetrahydropyran-3,4-diol
> <PUBCHEM_IUPAC_INCHI>
InChI=1S/C12H16O5/c13-7-9-6-10(14)11(15)12(17-9)16-8-4-2-1-3-5-8/h1-5,9-15H,6-7H2/t9-,10-,11+,12+/m0/s1
> <PUBCHEM_IUPAC_INCHIKEY>
SSLFIIKNQZWQNV-NNYUYHANSA-N
> <PUBCHEM_XLOGP3>
-0.5
> <PUBCHEM_EXACT_MASS>
240.09977361
> <PUBCHEM_MOLECULAR_FORMULA>
C12H16O5
> <PUBCHEM_MOLECULAR_WEIGHT>
240.25
> <PUBCHEM_OPENEYE_CAN_SMILES>
C1C(OC(C(C1O)O)OC2=CC=CC=C2)CO
> <PUBCHEM_OPENEYE_ISO_SMILES>
C1[C@H](O[C@H]([C@@H]([C@H]1O)O)OC2=CC=CC=C2)CO
> <PUBCHEM_CACTVS_TPSA>
79.2
> <PUBCHEM_MONOISOTOPIC_WEIGHT>
240.09977361
> <PUBCHEM_TOTAL_CHARGE>
0
> <PUBCHEM_HEAVY_ATOM_COUNT>
17
> <PUBCHEM_ATOM_DEF_STEREO_COUNT>
4
> <PUBCHEM_ATOM_UDEF_STEREO_COUNT>
0
> <PUBCHEM_BOND_DEF_STEREO_COUNT>
0
> <PUBCHEM_BOND_UDEF_STEREO_COUNT>
0
> <PUBCHEM_ISOTOPIC_ATOM_COUNT>
0
> <PUBCHEM_COMPONENT_COUNT>
1
> <PUBCHEM_CACTVS_TAUTO_COUNT>
-1
> <PUBCHEM_COORDINATE_TYPE>
1
5
255
> <PUBCHEM_BONDANNOTATIONS>
12  13  8
12  14  8
13  15  8
14  16  8
15  17  8
16  17  8
10  2  5
6  3  5
8  4  6
9  11  5
$$$$
