512012
  -OEChem-10302200282D
 39 40  0     1  0  0  0  0  0999 V2000
    7.3704   -0.0490    0.0000 O   0  0  0  0  0  0  0  0  0  0  0  0
    4.2690   -4.0105    0.0000 O   0  0  0  0  0  0  0  0  0  0  0  0
    8.9702    2.0582    0.0000 O   0  0  0  0  0  0  0  0  0  0  0  0
   10.6166    1.5201    0.0000 O   0  0  0  0  0  0  0  0  0  0  0  0
    6.0812   -1.2058    0.0000 N   0  0  0  0  0  0  0  0  0  0  0  0
    6.0812   -2.8152    0.0000 N   0  0  0  0  0  0  0  0  0  0  0  0
    4.2690   -1.0105    0.0000 N   0  0  0  0  0  0  0  0  0  0  0  0
    3.4030   -2.5105    0.0000 N   0  0  0  0  0  0  0  0  0  0  0  0
    2.5369   -1.0105    0.0000 N   0  0  0  0  0  0  0  0  0  0  0  0
   11.2379    3.4212    0.0000 N   0  0  0  0  0  0  0  0  0  0  0  0
    5.1350   -1.5105    0.0000 C   0  0  3  0  0  0  0  0  0  0  0  0
    5.1350   -2.5105    0.0000 C   0  0  3  0  0  0  0  0  0  0  0  0
    4.2690   -3.0105    0.0000 C   0  0  0  0  0  0  0  0  0  0  0  0
    6.6648   -2.0105    0.0000 C   0  0  0  0  0  0  0  0  0  0  0  0
    6.3919   -0.2553    0.0000 C   0  0  0  0  0  0  0  0  0  0  0  0
    3.4030   -1.5105    0.0000 C   0  0  0  0  0  0  0  0  0  0  0  0
    7.6811    0.9015    0.0000 C   0  0  0  0  0  0  0  0  0  0  0  0
    8.6596    1.1077    0.0000 C   0  0  0  0  0  0  0  0  0  0  0  0
   10.2594    3.2150    0.0000 C   0  0  3  0  0  0  0  0  0  0  0  0
    9.9487    2.2644    0.0000 C   0  0  0  0  0  0  0  0  0  0  0  0
    9.5916    3.9593    0.0000 C   0  0  0  0  0  0  0  0  0  0  0  0
    5.2006   -0.8940    0.0000 H   0  0  0  0  0  0  0  0  0  0  0  0
    5.2006   -3.1270    0.0000 H   0  0  0  0  0  0  0  0  0  0  0  0
    7.2848   -2.0105    0.0000 H   0  0  0  0  0  0  0  0  0  0  0  0
    6.3713    0.3644    0.0000 H   0  0  0  0  0  0  0  0  0  0  0  0
    5.7781   -0.1679    0.0000 H   0  0  0  0  0  0  0  0  0  0  0  0
    2.8660   -2.8205    0.0000 H   0  0  0  0  0  0  0  0  0  0  0  0
    7.6605    1.5211    0.0000 H   0  0  0  0  0  0  0  0  0  0  0  0
    7.0672    0.9888    0.0000 H   0  0  0  0  0  0  0  0  0  0  0  0
    8.6801    0.4880    0.0000 H   0  0  0  0  0  0  0  0  0  0  0  0
    9.2734    1.0204    0.0000 H   0  0  0  0  0  0  0  0  0  0  0  0
    2.5369   -0.3905    0.0000 H   0  0  0  0  0  0  0  0  0  0  0  0
    2.0000   -1.3205    0.0000 H   0  0  0  0  0  0  0  0  0  0  0  0
   10.6735    2.7535    0.0000 H   0  0  0  0  0  0  0  0  0  0  0  0
   10.0530    4.3733    0.0000 H   0  0  0  0  0  0  0  0  0  0  0  0
    9.1775    4.4207    0.0000 H   0  0  0  0  0  0  0  0  0  0  0  0
    9.1301    3.5452    0.0000 H   0  0  0  0  0  0  0  0  0  0  0  0
   11.4305    4.0105    0.0000 H   0  0  0  0  0  0  0  0  0  0  0  0
   11.6520    2.9597    0.0000 H   0  0  0  0  0  0  0  0  0  0  0  0
  1 15  1  0  0  0  0
  1 17  1  0  0  0  0
  2 13  2  0  0  0  0
  3 18  1  0  0  0  0
  3 20  1  0  0  0  0
  4 20  2  0  0  0  0
  5 11  1  0  0  0  0
  5 14  1  0  0  0  0
  5 15  1  0  0  0  0
  6 12  1  0  0  0  0
  6 14  2  0  0  0  0
  7 11  1  0  0  0  0
  7 16  2  0  0  0  0
  8 13  1  0  0  0  0
  8 16  1  0  0  0  0
  8 27  1  0  0  0  0
  9 16  1  0  0  0  0
  9 32  1  0  0  0  0
  9 33  1  0  0  0  0
 10 19  1  0  0  0  0
 10 38  1  0  0  0  0
 10 39  1  0  0  0  0
 11 12  1  0  0  0  0
 11 22  1  0  0  0  0
 12 13  1  0  0  0  0
 12 23  1  0  0  0  0
 14 24  1  0  0  0  0
 15 25  1  0  0  0  0
 15 26  1  0  0  0  0
 17 18  1  0  0  0  0
 17 28  1  0  0  0  0
 17 29  1  0  0  0  0
 18 30  1  0  0  0  0
 18 31  1  0  0  0  0
 19 20  1  0  0  0  0
 19 21  1  0  0  0  0
 19 34  1  0  0  0  0
 21 35  1  0  0  0  0
 21 36  1  0  0  0  0
 21 37  1  0  0  0  0
M  END
> <PUBCHEM_COMPOUND_CID>
512012
> <PUBCHEM_COMPOUND_CANONICALIZED>
1
> <PUBCHEM_CACTVS_COMPLEXITY>
479
> <PUBCHEM_CACTVS_HBOND_ACCEPTOR>
7
> <PUBCHEM_CACTVS_HBOND_DONOR>
3
> <PUBCHEM_CACTVS_ROTATABLE_BOND>
7
> <PUBCHEM_CACTVS_SUBSKEYS>
AAADceBzuAAAAAAAAAAAAAAAAAAAAQAAAAAgAAAAAAAAAEAAAAAAHgAQAAAACCjhgAYDCAPABAAoAAGRPAAAAAEAAAABAIGIAACDQAgASAAfAAAAEQICAAAAAAAAAAAAAAAAAAAAAAAAAAAAAAAAAAAAAA==
> <PUBCHEM_IUPAC_OPENEYE_NAME>
2-[(2-amino-6-oxo-4,5-dihydro-1H-purin-9-yl)methoxy]ethyl 2-aminopropanoate
> <PUBCHEM_IUPAC_CAS_NAME>
2-aminopropanoic acid 2-[(2-amino-6-oxo-4,5-dihydro-1H-purin-9-yl)methoxy]ethyl ester
> <PUBCHEM_IUPAC_NAME_MARKUP>
2-[(2-amino-6-oxo-4,5-dihydro-1<I>H</I>-purin-9-yl)methoxy]ethyl 2-aminopropanoate
> <PUBCHEM_IUPAC_NAME>
2-[(2-amino-6-oxo-4,5-dihydro-1H-purin-9-yl)methoxy]ethyl 2-aminopropanoate
> <PUBCHEM_IUPAC_SYSTEMATIC_NAME>
2-[(2-azanyl-6-oxidanylidene-4,5-dihydro-1H-purin-9-yl)methoxy]ethyl 2-azanylpropanoate
> <PUBCHEM_IUPAC_TRADITIONAL_NAME>
2-aminopropionic acid 2-[(2-amino-6-keto-4,5-dihydro-1H-purin-9-yl)methoxy]ethyl ester
> <PUBCHEM_IUPAC_INCHI>
InChI=1S/C11H18N6O4/c1-6(12)10(19)21-3-2-20-5-17-4-14-7-8(17)15-11(13)16-9(7)18/h4,6-8H,2-3,5,12H2,1H3,(H3,13,15,16,18)
> <PUBCHEM_IUPAC_INCHIKEY>
SLZHXXBPAHOTPH-UHFFFAOYSA-N
> <PUBCHEM_XLOGP3_AA>
-2.7
> <PUBCHEM_EXACT_MASS>
298.13895308
> <PUBCHEM_MOLECULAR_FORMULA>
C11H18N6O4
> <PUBCHEM_MOLECULAR_WEIGHT>
298.30
> <PUBCHEM_OPENEYE_CAN_SMILES>
CC(C(=O)OCCOCN1C=NC2C1N=C(NC2=O)N)N
> <PUBCHEM_OPENEYE_ISO_SMILES>
CC(C(=O)OCCOCN1C=NC2C1N=C(NC2=O)N)N
> <PUBCHEM_CACTVS_TPSA>
145
> <PUBCHEM_MONOISOTOPIC_WEIGHT>
298.13895308
> <PUBCHEM_TOTAL_CHARGE>
0
> <PUBCHEM_HEAVY_ATOM_COUNT>
21
> <PUBCHEM_ATOM_DEF_STEREO_COUNT>
0
> <PUBCHEM_ATOM_UDEF_STEREO_COUNT>
3
> <PUBCHEM_BOND_DEF_STEREO_COUNT>
0
> <PUBCHEM_BOND_UDEF_STEREO_COUNT>
0
> <PUBCHEM_ISOTOPIC_ATOM_COUNT>
0
> <PUBCHEM_COMPONENT_COUNT>
1
> <PUBCHEM_CACTVS_TAUTO_COUNT>
-1
> <PUBCHEM_COORDINATE_TYPE>
1
5
255
> <PUBCHEM_BONDANNOTATIONS>
19  10  3
12  13  3
11  7  3
$$$$
