512013
  -OEChem-10302200282D
 39 40  0     1  0  0  0  0  0999 V2000
    7.3704   -0.4604    0.0000 O   0  0  0  0  0  0  0  0  0  0  0  0
    4.2690   -4.4218    0.0000 O   0  0  0  0  0  0  0  0  0  0  0  0
    8.9702    1.6469    0.0000 O   0  0  0  0  0  0  0  0  0  0  0  0
   10.6166    1.1088    0.0000 O   0  0  0  0  0  0  0  0  0  0  0  0
    6.0812   -1.6171    0.0000 N   0  0  0  0  0  0  0  0  0  0  0  0
    6.0812   -3.2266    0.0000 N   0  0  0  0  0  0  0  0  0  0  0  0
    4.2690   -1.4218    0.0000 N   0  0  0  0  0  0  0  0  0  0  0  0
    3.4030   -2.9218    0.0000 N   0  0  0  0  0  0  0  0  0  0  0  0
    2.5369   -1.4218    0.0000 N   0  0  0  0  0  0  0  0  0  0  0  0
   11.5486    3.9604    0.0000 N   0  0  0  0  0  0  0  0  0  0  0  0
    5.1350   -1.9218    0.0000 C   0  0  3  0  0  0  0  0  0  0  0  0
    5.1350   -2.9218    0.0000 C   0  0  3  0  0  0  0  0  0  0  0  0
    4.2690   -3.4218    0.0000 C   0  0  0  0  0  0  0  0  0  0  0  0
    6.6648   -2.4218    0.0000 C   0  0  0  0  0  0  0  0  0  0  0  0
    6.3919   -0.6666    0.0000 C   0  0  0  0  0  0  0  0  0  0  0  0
    3.4030   -1.9218    0.0000 C   0  0  0  0  0  0  0  0  0  0  0  0
    7.6811    0.4902    0.0000 C   0  0  0  0  0  0  0  0  0  0  0  0
    8.6596    0.6964    0.0000 C   0  0  0  0  0  0  0  0  0  0  0  0
   10.2594    2.8036    0.0000 C   0  0  0  0  0  0  0  0  0  0  0  0
    9.9487    1.8531    0.0000 C   0  0  0  0  0  0  0  0  0  0  0  0
   11.2379    3.0098    0.0000 C   0  0  0  0  0  0  0  0  0  0  0  0
    5.2250   -1.0766    0.0000 H   0  0  0  0  0  0  0  0  0  0  0  0
    5.2250   -3.7671    0.0000 H   0  0  0  0  0  0  0  0  0  0  0  0
    7.2848   -2.4218    0.0000 H   0  0  0  0  0  0  0  0  0  0  0  0
    6.3713   -0.0469    0.0000 H   0  0  0  0  0  0  0  0  0  0  0  0
    5.7781   -0.5792    0.0000 H   0  0  0  0  0  0  0  0  0  0  0  0
    2.8660   -3.2318    0.0000 H   0  0  0  0  0  0  0  0  0  0  0  0
    7.6605    1.1098    0.0000 H   0  0  0  0  0  0  0  0  0  0  0  0
    7.0672    0.5775    0.0000 H   0  0  0  0  0  0  0  0  0  0  0  0
    8.6801    0.0767    0.0000 H   0  0  0  0  0  0  0  0  0  0  0  0
    9.2734    0.6090    0.0000 H   0  0  0  0  0  0  0  0  0  0  0  0
    2.5369   -0.8018    0.0000 H   0  0  0  0  0  0  0  0  0  0  0  0
    2.0000   -1.7318    0.0000 H   0  0  0  0  0  0  0  0  0  0  0  0
   10.2388    3.4233    0.0000 H   0  0  0  0  0  0  0  0  0  0  0  0
    9.6456    2.8910    0.0000 H   0  0  0  0  0  0  0  0  0  0  0  0
   11.2585    2.3902    0.0000 H   0  0  0  0  0  0  0  0  0  0  0  0
   11.8517    2.9225    0.0000 H   0  0  0  0  0  0  0  0  0  0  0  0
   12.1552    4.0882    0.0000 H   0  0  0  0  0  0  0  0  0  0  0  0
   11.1345    4.4218    0.0000 H   0  0  0  0  0  0  0  0  0  0  0  0
  1 15  1  0  0  0  0
  1 17  1  0  0  0  0
  2 13  2  0  0  0  0
  3 18  1  0  0  0  0
  3 20  1  0  0  0  0
  4 20  2  0  0  0  0
  5 11  1  0  0  0  0
  5 14  1  0  0  0  0
  5 15  1  0  0  0  0
  6 12  1  0  0  0  0
  6 14  2  0  0  0  0
  7 11  1  0  0  0  0
  7 16  2  0  0  0  0
  8 13  1  0  0  0  0
  8 16  1  0  0  0  0
  8 27  1  0  0  0  0
  9 16  1  0  0  0  0
  9 32  1  0  0  0  0
  9 33  1  0  0  0  0
 10 21  1  0  0  0  0
 10 38  1  0  0  0  0
 10 39  1  0  0  0  0
 11 12  1  0  0  0  0
 11 22  1  0  0  0  0
 12 13  1  0  0  0  0
 12 23  1  0  0  0  0
 14 24  1  0  0  0  0
 15 25  1  0  0  0  0
 15 26  1  0  0  0  0
 17 18  1  0  0  0  0
 17 28  1  0  0  0  0
 17 29  1  0  0  0  0
 18 30  1  0  0  0  0
 18 31  1  0  0  0  0
 19 20  1  0  0  0  0
 19 21  1  0  0  0  0
 19 34  1  0  0  0  0
 19 35  1  0  0  0  0
 21 36  1  0  0  0  0
 21 37  1  0  0  0  0
M  END
> <PUBCHEM_COMPOUND_CID>
512013
> <PUBCHEM_COMPOUND_CANONICALIZED>
1
> <PUBCHEM_CACTVS_COMPLEXITY>
466
> <PUBCHEM_CACTVS_HBOND_ACCEPTOR>
7
> <PUBCHEM_CACTVS_HBOND_DONOR>
3
> <PUBCHEM_CACTVS_ROTATABLE_BOND>
8
> <PUBCHEM_CACTVS_SUBSKEYS>
AAADceBzuAAAAAAAAAAAAAAAAAAAAQAAAAAgAAAAAAAAAEAAAAAAHgAQAAAACCjhgAYBCAPABAAoAAGRPAAAAAEAAAABAIGIAACBQAgASAAeAAACEQICAAAAAAAAAAAAAAAAAAAAAAAAAAAAAAAAAAAAAA==
> <PUBCHEM_IUPAC_OPENEYE_NAME>
2-[(2-amino-6-oxo-4,5-dihydro-1H-purin-9-yl)methoxy]ethyl 3-aminopropanoate
> <PUBCHEM_IUPAC_CAS_NAME>
3-aminopropanoic acid 2-[(2-amino-6-oxo-4,5-dihydro-1H-purin-9-yl)methoxy]ethyl ester
> <PUBCHEM_IUPAC_NAME_MARKUP>
2-[(2-amino-6-oxo-4,5-dihydro-1<I>H</I>-purin-9-yl)methoxy]ethyl 3-aminopropanoate
> <PUBCHEM_IUPAC_NAME>
2-[(2-amino-6-oxo-4,5-dihydro-1H-purin-9-yl)methoxy]ethyl 3-aminopropanoate
> <PUBCHEM_IUPAC_SYSTEMATIC_NAME>
2-[(2-azanyl-6-oxidanylidene-4,5-dihydro-1H-purin-9-yl)methoxy]ethyl 3-azanylpropanoate
> <PUBCHEM_IUPAC_TRADITIONAL_NAME>
3-aminopropionic acid 2-[(2-amino-6-keto-4,5-dihydro-1H-purin-9-yl)methoxy]ethyl ester
> <PUBCHEM_IUPAC_INCHI>
InChI=1S/C11H18N6O4/c12-2-1-7(18)21-4-3-20-6-17-5-14-8-9(17)15-11(13)16-10(8)19/h5,8-9H,1-4,6,12H2,(H3,13,15,16,19)
> <PUBCHEM_IUPAC_INCHIKEY>
QSDQEAHAWHXHKB-UHFFFAOYSA-N
> <PUBCHEM_XLOGP3_AA>
-3.2
> <PUBCHEM_EXACT_MASS>
298.13895308
> <PUBCHEM_MOLECULAR_FORMULA>
C11H18N6O4
> <PUBCHEM_MOLECULAR_WEIGHT>
298.30
> <PUBCHEM_OPENEYE_CAN_SMILES>
C1=NC2C(N1COCCOC(=O)CCN)N=C(NC2=O)N
> <PUBCHEM_OPENEYE_ISO_SMILES>
C1=NC2C(N1COCCOC(=O)CCN)N=C(NC2=O)N
> <PUBCHEM_CACTVS_TPSA>
145
> <PUBCHEM_MONOISOTOPIC_WEIGHT>
298.13895308
> <PUBCHEM_TOTAL_CHARGE>
0
> <PUBCHEM_HEAVY_ATOM_COUNT>
21
> <PUBCHEM_ATOM_DEF_STEREO_COUNT>
0
> <PUBCHEM_ATOM_UDEF_STEREO_COUNT>
2
> <PUBCHEM_BOND_DEF_STEREO_COUNT>
0
> <PUBCHEM_BOND_UDEF_STEREO_COUNT>
0
> <PUBCHEM_ISOTOPIC_ATOM_COUNT>
0
> <PUBCHEM_COMPONENT_COUNT>
1
> <PUBCHEM_CACTVS_TAUTO_COUNT>
8
> <PUBCHEM_COORDINATE_TYPE>
1
5
255
> <PUBCHEM_BONDANNOTATIONS>
11  22  3
12  23  3
$$$$
