512014
  -OEChem-10302200282D
 40 41  0     1  0  0  0  0  0999 V2000
    7.3704   -0.6274    0.0000 O   0  0  0  0  0  0  0  0  0  0  0  0
    4.2690   -4.5889    0.0000 O   0  0  0  0  0  0  0  0  0  0  0  0
    8.9702    1.4799    0.0000 O   0  0  0  0  0  0  0  0  0  0  0  0
   10.6166    0.9418    0.0000 O   0  0  0  0  0  0  0  0  0  0  0  0
   12.5271    3.9996    0.0000 O   0  0  0  0  0  0  0  0  0  0  0  0
   10.8807    4.5376    0.0000 O   0  0  0  0  0  0  0  0  0  0  0  0
    6.0812   -1.7841    0.0000 N   0  0  0  0  0  0  0  0  0  0  0  0
    6.0812   -3.3936    0.0000 N   0  0  0  0  0  0  0  0  0  0  0  0
    4.2690   -1.5889    0.0000 N   0  0  0  0  0  0  0  0  0  0  0  0
    3.4030   -3.0889    0.0000 N   0  0  0  0  0  0  0  0  0  0  0  0
    2.5369   -1.5889    0.0000 N   0  0  0  0  0  0  0  0  0  0  0  0
    5.1350   -2.0889    0.0000 C   0  0  3  0  0  0  0  0  0  0  0  0
    5.1350   -3.0889    0.0000 C   0  0  3  0  0  0  0  0  0  0  0  0
    4.2690   -3.5889    0.0000 C   0  0  0  0  0  0  0  0  0  0  0  0
    6.6648   -2.5889    0.0000 C   0  0  0  0  0  0  0  0  0  0  0  0
    6.3919   -0.8336    0.0000 C   0  0  0  0  0  0  0  0  0  0  0  0
    3.4030   -2.0889    0.0000 C   0  0  0  0  0  0  0  0  0  0  0  0
    7.6811    0.3231    0.0000 C   0  0  0  0  0  0  0  0  0  0  0  0
    8.6596    0.5293    0.0000 C   0  0  0  0  0  0  0  0  0  0  0  0
   10.2594    2.6366    0.0000 C   0  0  0  0  0  0  0  0  0  0  0  0
    9.9487    1.6861    0.0000 C   0  0  0  0  0  0  0  0  0  0  0  0
   11.2379    2.8428    0.0000 C   0  0  0  0  0  0  0  0  0  0  0  0
   11.5486    3.7933    0.0000 C   0  0  0  0  0  0  0  0  0  0  0  0
    5.2250   -1.2436    0.0000 H   0  0  0  0  0  0  0  0  0  0  0  0
    5.2250   -3.9341    0.0000 H   0  0  0  0  0  0  0  0  0  0  0  0
    7.2848   -2.5889    0.0000 H   0  0  0  0  0  0  0  0  0  0  0  0
    6.3713   -0.2140    0.0000 H   0  0  0  0  0  0  0  0  0  0  0  0
    5.7781   -0.7463    0.0000 H   0  0  0  0  0  0  0  0  0  0  0  0
    2.8660   -3.3989    0.0000 H   0  0  0  0  0  0  0  0  0  0  0  0
    7.6605    0.9428    0.0000 H   0  0  0  0  0  0  0  0  0  0  0  0
    7.0672    0.4105    0.0000 H   0  0  0  0  0  0  0  0  0  0  0  0
    8.6801   -0.0903    0.0000 H   0  0  0  0  0  0  0  0  0  0  0  0
    9.2734    0.4420    0.0000 H   0  0  0  0  0  0  0  0  0  0  0  0
    2.5369   -0.9689    0.0000 H   0  0  0  0  0  0  0  0  0  0  0  0
    2.0000   -1.8989    0.0000 H   0  0  0  0  0  0  0  0  0  0  0  0
   10.2388    3.2562    0.0000 H   0  0  0  0  0  0  0  0  0  0  0  0
    9.6456    2.7239    0.0000 H   0  0  0  0  0  0  0  0  0  0  0  0
   11.2585    2.2232    0.0000 H   0  0  0  0  0  0  0  0  0  0  0  0
   11.8517    2.7555    0.0000 H   0  0  0  0  0  0  0  0  0  0  0  0
   12.7197    4.5889    0.0000 H   0  0  0  0  0  0  0  0  0  0  0  0
  1 16  1  0  0  0  0
  1 18  1  0  0  0  0
  2 14  2  0  0  0  0
  3 19  1  0  0  0  0
  3 21  1  0  0  0  0
  4 21  2  0  0  0  0
  5 23  1  0  0  0  0
  5 40  1  0  0  0  0
  6 23  2  0  0  0  0
  7 12  1  0  0  0  0
  7 15  1  0  0  0  0
  7 16  1  0  0  0  0
  8 13  1  0  0  0  0
  8 15  2  0  0  0  0
  9 12  1  0  0  0  0
  9 17  2  0  0  0  0
 10 14  1  0  0  0  0
 10 17  1  0  0  0  0
 10 29  1  0  0  0  0
 11 17  1  0  0  0  0
 11 34  1  0  0  0  0
 11 35  1  0  0  0  0
 12 13  1  0  0  0  0
 12 24  1  0  0  0  0
 13 14  1  0  0  0  0
 13 25  1  0  0  0  0
 15 26  1  0  0  0  0
 16 27  1  0  0  0  0
 16 28  1  0  0  0  0
 18 19  1  0  0  0  0
 18 30  1  0  0  0  0
 18 31  1  0  0  0  0
 19 32  1  0  0  0  0
 19 33  1  0  0  0  0
 20 21  1  0  0  0  0
 20 22  1  0  0  0  0
 20 36  1  0  0  0  0
 20 37  1  0  0  0  0
 22 23  1  0  0  0  0
 22 38  1  0  0  0  0
 22 39  1  0  0  0  0
M  END
> <PUBCHEM_COMPOUND_CID>
512014
> <PUBCHEM_COMPOUND_CANONICALIZED>
1
> <PUBCHEM_CACTVS_COMPLEXITY>
548
> <PUBCHEM_CACTVS_HBOND_ACCEPTOR>
8
> <PUBCHEM_CACTVS_HBOND_DONOR>
3
> <PUBCHEM_CACTVS_ROTATABLE_BOND>
9
> <PUBCHEM_CACTVS_SUBSKEYS>
AAADceBzuAAAAAAAAAAAAAAAAAAAAQAAAAAgAAAAAAAAAEAAAAAAHgAQCAAACCjhgAYBCAPABgAoAAGRPAAAAAEAAAABAAGIAACBQBgASAAeQAAEEQICAABDAAAAAAAAAAAAAAAAAAAAAAAAAAAAAAAAAA==
> <PUBCHEM_IUPAC_OPENEYE_NAME>
4-[2-[(2-amino-6-oxo-4,5-dihydro-1H-purin-9-yl)methoxy]ethoxy]-4-oxo-butanoic acid
> <PUBCHEM_IUPAC_CAS_NAME>
4-[2-[(2-amino-6-oxo-4,5-dihydro-1H-purin-9-yl)methoxy]ethoxy]-4-oxobutanoic acid
> <PUBCHEM_IUPAC_NAME_MARKUP>
4-[2-[(2-amino-6-oxo-4,5-dihydro-1<I>H</I>-purin-9-yl)methoxy]ethoxy]-4-oxobutanoic acid
> <PUBCHEM_IUPAC_NAME>
4-[2-[(2-amino-6-oxo-4,5-dihydro-1H-purin-9-yl)methoxy]ethoxy]-4-oxobutanoic acid
> <PUBCHEM_IUPAC_SYSTEMATIC_NAME>
4-[2-[(2-azanyl-6-oxidanylidene-4,5-dihydro-1H-purin-9-yl)methoxy]ethoxy]-4-oxidanylidene-butanoic acid
> <PUBCHEM_IUPAC_TRADITIONAL_NAME>
4-[2-[(2-amino-6-keto-4,5-dihydro-1H-purin-9-yl)methoxy]ethoxy]-4-keto-butyric acid
> <PUBCHEM_IUPAC_INCHI>
InChI=1S/C12H17N5O6/c13-12-15-10-9(11(21)16-12)14-5-17(10)6-22-3-4-23-8(20)2-1-7(18)19/h5,9-10H,1-4,6H2,(H,18,19)(H3,13,15,16,21)
> <PUBCHEM_IUPAC_INCHIKEY>
GFTOQVCQFJPLTE-UHFFFAOYSA-N
> <PUBCHEM_XLOGP3_AA>
-2.7
> <PUBCHEM_EXACT_MASS>
327.11788328
> <PUBCHEM_MOLECULAR_FORMULA>
C12H17N5O6
> <PUBCHEM_MOLECULAR_WEIGHT>
327.29
> <PUBCHEM_OPENEYE_CAN_SMILES>
C1=NC2C(N1COCCOC(=O)CCC(=O)O)N=C(NC2=O)N
> <PUBCHEM_OPENEYE_ISO_SMILES>
C1=NC2C(N1COCCOC(=O)CCC(=O)O)N=C(NC2=O)N
> <PUBCHEM_CACTVS_TPSA>
156
> <PUBCHEM_MONOISOTOPIC_WEIGHT>
327.11788328
> <PUBCHEM_TOTAL_CHARGE>
0
> <PUBCHEM_HEAVY_ATOM_COUNT>
23
> <PUBCHEM_ATOM_DEF_STEREO_COUNT>
0
> <PUBCHEM_ATOM_UDEF_STEREO_COUNT>
2
> <PUBCHEM_BOND_DEF_STEREO_COUNT>
0
> <PUBCHEM_BOND_UDEF_STEREO_COUNT>
0
> <PUBCHEM_ISOTOPIC_ATOM_COUNT>
0
> <PUBCHEM_COMPONENT_COUNT>
1
> <PUBCHEM_CACTVS_TAUTO_COUNT>
8
> <PUBCHEM_COORDINATE_TYPE>
1
5
255
> <PUBCHEM_BONDANNOTATIONS>
12  24  3
13  25  3
$$$$
