512002
  -OEChem-10302200282D
 38 39  0     1  0  0  0  0  0999 V2000
    7.1391   -1.2153    0.0000 O   0  0  0  0  0  0  0  0  0  0  0  0
    5.2423   -2.9754    0.0000 O   0  0  0  0  0  0  0  0  0  0  0  0
    8.4124   -2.8709    0.0000 O   0  0  0  0  0  0  0  0  0  0  0  0
    8.0622    0.3725    0.0000 O   0  0  0  0  0  0  0  0  0  0  0  0
    6.3301    3.3725    0.0000 O   0  0  0  0  0  0  0  0  0  0  0  0
    6.3301    0.3725    0.0000 N   0  0  0  0  0  0  0  0  0  0  0  0
    7.1962    1.8725    0.0000 N   0  0  0  0  0  0  0  0  0  0  0  0
    5.8301   -2.1664    0.0000 C   0  0  1  0  0  0  0  0  0  0  0  0
    6.3301   -0.6275    0.0000 C   0  0  1  0  0  0  0  0  0  0  0  0
    5.5211   -1.2153    0.0000 C   0  0  0  0  0  0  0  0  0  0  0  0
    6.8301   -2.1664    0.0000 C   0  0  1  0  0  0  0  0  0  0  0  0
    7.4179   -2.9754    0.0000 C   0  0  0  0  0  0  0  0  0  0  0  0
    5.4641    0.8725    0.0000 C   0  0  0  0  0  0  0  0  0  0  0  0
    7.1962    0.8725    0.0000 C   0  0  0  0  0  0  0  0  0  0  0  0
    5.4641    1.8725    0.0000 C   0  0  0  0  0  0  0  0  0  0  0  0
    6.3301    2.3725    0.0000 C   0  0  0  0  0  0  0  0  0  0  0  0
    4.5981    2.3725    0.0000 C   0  0  0  0  0  0  0  0  0  0  0  0
    3.7320    1.8725    0.0000 C   0  0  0  0  0  0  0  0  0  0  0  0
    2.8660    2.3725    0.0000 C   0  0  0  0  0  0  0  0  0  0  0  0
    2.0000    1.8725    0.0000 C   0  0  0  0  0  0  0  0  0  0  0  0
    6.1116   -2.7188    0.0000 H   0  0  0  0  0  0  0  0  0  0  0  0
    6.8826   -0.3461    0.0000 H   0  0  0  0  0  0  0  0  0  0  0  0
    5.2111   -0.6784    0.0000 H   0  0  0  0  0  0  0  0  0  0  0  0
    4.9547   -1.4675    0.0000 H   0  0  0  0  0  0  0  0  0  0  0  0
    7.4425   -2.0694    0.0000 H   0  0  0  0  0  0  0  0  0  0  0  0
    6.8607   -3.2472    0.0000 H   0  0  0  0  0  0  0  0  0  0  0  0
    7.5888   -3.5714    0.0000 H   0  0  0  0  0  0  0  0  0  0  0  0
    4.6257   -2.9106    0.0000 H   0  0  0  0  0  0  0  0  0  0  0  0
    4.9272    0.5625    0.0000 H   0  0  0  0  0  0  0  0  0  0  0  0
    7.7331    2.1825    0.0000 H   0  0  0  0  0  0  0  0  0  0  0  0
    8.7769   -3.3725    0.0000 H   0  0  0  0  0  0  0  0  0  0  0  0
    4.5981    2.9925    0.0000 H   0  0  0  0  0  0  0  0  0  0  0  0
    3.7320    1.2525    0.0000 H   0  0  0  0  0  0  0  0  0  0  0  0
    3.2646    2.8474    0.0000 H   0  0  0  0  0  0  0  0  0  0  0  0
    2.4675    2.8474    0.0000 H   0  0  0  0  0  0  0  0  0  0  0  0
    1.6900    2.4094    0.0000 H   0  0  0  0  0  0  0  0  0  0  0  0
    1.4631    1.5625    0.0000 H   0  0  0  0  0  0  0  0  0  0  0  0
    2.3100    1.3355    0.0000 H   0  0  0  0  0  0  0  0  0  0  0  0
  1  9  1  0  0  0  0
  1 11  1  0  0  0  0
  8  2  1  1  0  0  0
  2 28  1  0  0  0  0
  3 12  1  0  0  0  0
  3 31  1  0  0  0  0
  4 14  2  0  0  0  0
  5 16  2  0  0  0  0
  9  6  1  6  0  0  0
  6 13  1  0  0  0  0
  6 14  1  0  0  0  0
  7 14  1  0  0  0  0
  7 16  1  0  0  0  0
  7 30  1  0  0  0  0
  8 10  1  0  0  0  0
  8 11  1  0  0  0  0
  8 21  1  0  0  0  0
  9 10  1  0  0  0  0
  9 22  1  0  0  0  0
 10 23  1  0  0  0  0
 10 24  1  0  0  0  0
 11 12  1  6  0  0  0
 11 25  1  0  0  0  0
 12 26  1  0  0  0  0
 12 27  1  0  0  0  0
 13 15  2  0  0  0  0
 13 29  1  0  0  0  0
 15 16  1  0  0  0  0
 15 17  1  0  0  0  0
 17 18  2  3  0  0  0
 17 32  1  0  0  0  0
 18 19  1  0  0  0  0
 18 33  1  0  0  0  0
 19 20  1  0  0  0  0
 19 34  1  0  0  0  0
 19 35  1  0  0  0  0
 20 36  1  0  0  0  0
 20 37  1  0  0  0  0
 20 38  1  0  0  0  0
M  END
> <PUBCHEM_COMPOUND_CID>
512002
> <PUBCHEM_COMPOUND_CANONICALIZED>
1
> <PUBCHEM_CACTVS_COMPLEXITY>
460
> <PUBCHEM_CACTVS_HBOND_ACCEPTOR>
5
> <PUBCHEM_CACTVS_HBOND_DONOR>
3
> <PUBCHEM_CACTVS_ROTATABLE_BOND>
4
> <PUBCHEM_CACTVS_SUBSKEYS>
AAADceBzOAAAAAAAAAAAAAAAAAAAASAAAAAgAAAAAAAAAAAAAAAAHgAQCAAADBThgAYDAAPABgCIAiFWUACAAAAgAAAICAEIAEiJEAIAgQAOQAAPByILgMKwMAIAAAAAAAAAAAAAAAAAAAAAAAAAAAAAAA==
> <PUBCHEM_IUPAC_OPENEYE_NAME>
5-but-1-enyl-1-[(2R,4S,5R)-4-hydroxy-5-(hydroxymethyl)tetrahydrofuran-2-yl]pyrimidine-2,4-dione
> <PUBCHEM_IUPAC_CAS_NAME>
5-but-1-enyl-1-[(2R,4S,5R)-4-hydroxy-5-(hydroxymethyl)-2-oxolanyl]pyrimidine-2,4-dione
> <PUBCHEM_IUPAC_NAME_MARKUP>
5-but-1-enyl-1-[(2<I>R</I>,4<I>S</I>,5<I>R</I>)-4-hydroxy-5-(hydroxymethyl)oxolan-2-yl]pyrimidine-2,4-dione
> <PUBCHEM_IUPAC_NAME>
5-but-1-enyl-1-[(2R,4S,5R)-4-hydroxy-5-(hydroxymethyl)oxolan-2-yl]pyrimidine-2,4-dione
> <PUBCHEM_IUPAC_SYSTEMATIC_NAME>
5-but-1-enyl-1-[(2R,4S,5R)-5-(hydroxymethyl)-4-oxidanyl-oxolan-2-yl]pyrimidine-2,4-dione
> <PUBCHEM_IUPAC_TRADITIONAL_NAME>
5-but-1-enyl-1-[(2R,4S,5R)-4-hydroxy-5-methylol-tetrahydrofuran-2-yl]pyrimidine-2,4-quinone
> <PUBCHEM_IUPAC_INCHI>
InChI=1S/C13H18N2O5/c1-2-3-4-8-6-15(13(19)14-12(8)18)11-5-9(17)10(7-16)20-11/h3-4,6,9-11,16-17H,2,5,7H2,1H3,(H,14,18,19)/t9-,10+,11+/m0/s1
> <PUBCHEM_IUPAC_INCHIKEY>
KLTGVKYEAMZTMH-HBNTYKKESA-N
> <PUBCHEM_XLOGP3>
-0.1
> <PUBCHEM_EXACT_MASS>
282.12157168
> <PUBCHEM_MOLECULAR_FORMULA>
C13H18N2O5
> <PUBCHEM_MOLECULAR_WEIGHT>
282.29
> <PUBCHEM_OPENEYE_CAN_SMILES>
CCC=CC1=CN(C(=O)NC1=O)C2CC(C(O2)CO)O
> <PUBCHEM_OPENEYE_ISO_SMILES>
CCC=CC1=CN(C(=O)NC1=O)[C@H]2C[C@@H]([C@H](O2)CO)O
> <PUBCHEM_CACTVS_TPSA>
99.1
> <PUBCHEM_MONOISOTOPIC_WEIGHT>
282.12157168
> <PUBCHEM_TOTAL_CHARGE>
0
> <PUBCHEM_HEAVY_ATOM_COUNT>
20
> <PUBCHEM_ATOM_DEF_STEREO_COUNT>
3
> <PUBCHEM_ATOM_UDEF_STEREO_COUNT>
0
> <PUBCHEM_BOND_DEF_STEREO_COUNT>
0
> <PUBCHEM_BOND_UDEF_STEREO_COUNT>
1
> <PUBCHEM_ISOTOPIC_ATOM_COUNT>
0
> <PUBCHEM_COMPONENT_COUNT>
1
> <PUBCHEM_CACTVS_TAUTO_COUNT>
-1
> <PUBCHEM_COORDINATE_TYPE>
1
5
255
> <PUBCHEM_BONDANNOTATIONS>
11  12  6
13  15  8
15  16  8
17  18  1
8  2  5
6  13  8
6  14  8
9  6  6
7  14  8
7  16  8
$$$$
