512173
  -OEChem-10302200282D
 30 31  0     1  0  0  0  0  0999 V2000
    2.4608   -0.3973    0.0000 O   0  0  0  0  0  0  0  0  0  0  0  0
    4.9019   -3.3799    0.0000 O   0  0  0  0  0  0  0  0  0  0  0  0
    5.9529    0.8815    0.0000 O   0  0  0  0  0  0  0  0  0  0  0  0
    4.2208    3.8815    0.0000 O   0  0  0  0  0  0  0  0  0  0  0  0
    4.2208    0.8815    0.0000 N   0  0  0  0  0  0  0  0  0  0  0  0
    5.0868    2.3815    0.0000 N   0  0  0  0  0  0  0  0  0  0  0  0
    4.2208   -0.1185    0.0000 C   0  0  2  0  0  0  0  0  0  0  0  0
    4.7208   -1.6573    0.0000 C   0  0  1  0  0  0  0  0  0  0  0  0
    5.0298   -0.7063    0.0000 C   0  0  0  0  0  0  0  0  0  0  0  0
    3.4118   -0.7063    0.0000 C   0  0  1  0  0  0  0  0  0  0  0  0
    3.7208   -1.6573    0.0000 C   0  0  0  0  0  0  0  0  0  0  0  0
    5.3086   -2.4664    0.0000 C   0  0  0  0  0  0  0  0  0  0  0  0
    5.0868    1.3815    0.0000 C   0  0  0  0  0  0  0  0  0  0  0  0
    3.3548    1.3815    0.0000 C   0  0  0  0  0  0  0  0  0  0  0  0
    3.3548    2.3815    0.0000 C   0  0  0  0  0  0  0  0  0  0  0  0
    4.2208    2.8815    0.0000 C   0  0  0  0  0  0  0  0  0  0  0  0
    3.6684    0.1630    0.0000 H   0  0  0  0  0  0  0  0  0  0  0  0
    4.4394   -2.2098    0.0000 H   0  0  0  0  0  0  0  0  0  0  0  0
    5.5962   -0.9585    0.0000 H   0  0  0  0  0  0  0  0  0  0  0  0
    5.3398   -0.1694    0.0000 H   0  0  0  0  0  0  0  0  0  0  0  0
    3.3148   -0.0939    0.0000 H   0  0  0  0  0  0  0  0  0  0  0  0
    3.1144   -1.7862    0.0000 H   0  0  0  0  0  0  0  0  0  0  0  0
    3.7856   -2.2740    0.0000 H   0  0  0  0  0  0  0  0  0  0  0  0
    5.8226   -2.8131    0.0000 H   0  0  0  0  0  0  0  0  0  0  0  0
    5.7393   -2.0204    0.0000 H   0  0  0  0  0  0  0  0  0  0  0  0
    2.0000   -0.8121    0.0000 H   0  0  0  0  0  0  0  0  0  0  0  0
    2.8179    1.0715    0.0000 H   0  0  0  0  0  0  0  0  0  0  0  0
    5.2663   -3.8815    0.0000 H   0  0  0  0  0  0  0  0  0  0  0  0
    5.6238    2.6915    0.0000 H   0  0  0  0  0  0  0  0  0  0  0  0
    2.8179    2.6915    0.0000 H   0  0  0  0  0  0  0  0  0  0  0  0
 10  1  1  1  0  0  0
  1 26  1  0  0  0  0
  2 12  1  0  0  0  0
  2 28  1  0  0  0  0
  3 13  2  0  0  0  0
  4 16  2  0  0  0  0
  7  5  1  6  0  0  0
  5 13  1  0  0  0  0
  5 14  1  0  0  0  0
  6 13  1  0  0  0  0
  6 16  1  0  0  0  0
  6 29  1  0  0  0  0
  7  9  1  0  0  0  0
  7 10  1  0  0  0  0
  7 17  1  0  0  0  0
  8  9  1  0  0  0  0
  8 11  1  0  0  0  0
  8 12  1  6  0  0  0
  8 18  1  0  0  0  0
  9 19  1  0  0  0  0
  9 20  1  0  0  0  0
 10 11  1  0  0  0  0
 10 21  1  0  0  0  0
 11 22  1  0  0  0  0
 11 23  1  0  0  0  0
 12 24  1  0  0  0  0
 12 25  1  0  0  0  0
 14 15  2  0  0  0  0
 14 27  1  0  0  0  0
 15 16  1  0  0  0  0
 15 30  1  0  0  0  0
M  END
> <PUBCHEM_COMPOUND_CID>
512173
> <PUBCHEM_COMPOUND_CANONICALIZED>
1
> <PUBCHEM_CACTVS_COMPLEXITY>
342
> <PUBCHEM_CACTVS_HBOND_ACCEPTOR>
4
> <PUBCHEM_CACTVS_HBOND_DONOR>
3
> <PUBCHEM_CACTVS_ROTATABLE_BOND>
2
> <PUBCHEM_CACTVS_SUBSKEYS>
AAADccBzOAAAAAAAAAAAAAAAAAAAAYAAAAAgAAAAAAAAAAAAAAAAHgAQCAAADTzhgAYBAAPAAgCIACFWUACAAAAAAgAIAAAIAECCEAIAgAAEQAAMFyIQAMHwcAcOAAAAAAAAAAAAAAAAAAAAAKAAAAgAAA==
> <PUBCHEM_IUPAC_OPENEYE_NAME>
1-[(1R,2R,4S)-2-hydroxy-4-(hydroxymethyl)cyclopentyl]pyrimidine-2,4-dione
> <PUBCHEM_IUPAC_CAS_NAME>
1-[(1R,2R,4S)-2-hydroxy-4-(hydroxymethyl)cyclopentyl]pyrimidine-2,4-dione
> <PUBCHEM_IUPAC_NAME_MARKUP>
1-[(1<I>R</I>,2<I>R</I>,4<I>S</I>)-2-hydroxy-4-(hydroxymethyl)cyclopentyl]pyrimidine-2,4-dione
> <PUBCHEM_IUPAC_NAME>
1-[(1R,2R,4S)-2-hydroxy-4-(hydroxymethyl)cyclopentyl]pyrimidine-2,4-dione
> <PUBCHEM_IUPAC_SYSTEMATIC_NAME>
1-[(1R,2R,4S)-4-(hydroxymethyl)-2-oxidanyl-cyclopentyl]pyrimidine-2,4-dione
> <PUBCHEM_IUPAC_TRADITIONAL_NAME>
1-[(1R,2R,4S)-2-hydroxy-4-methylol-cyclopentyl]pyrimidine-2,4-quinone
> <PUBCHEM_IUPAC_INCHI>
InChI=1S/C10H14N2O4/c13-5-6-3-7(8(14)4-6)12-2-1-9(15)11-10(12)16/h1-2,6-8,13-14H,3-5H2,(H,11,15,16)/t6-,7+,8+/m0/s1
> <PUBCHEM_IUPAC_INCHIKEY>
DPWHBIMKUXLNPO-XLPZGREQSA-N
> <PUBCHEM_XLOGP3_AA>
-1.3
> <PUBCHEM_EXACT_MASS>
226.09535693
> <PUBCHEM_MOLECULAR_FORMULA>
C10H14N2O4
> <PUBCHEM_MOLECULAR_WEIGHT>
226.23
> <PUBCHEM_OPENEYE_CAN_SMILES>
C1C(CC(C1N2C=CC(=O)NC2=O)O)CO
> <PUBCHEM_OPENEYE_ISO_SMILES>
C1[C@@H](C[C@H]([C@@H]1N2C=CC(=O)NC2=O)O)CO
> <PUBCHEM_CACTVS_TPSA>
89.9
> <PUBCHEM_MONOISOTOPIC_WEIGHT>
226.09535693
> <PUBCHEM_TOTAL_CHARGE>
0
> <PUBCHEM_HEAVY_ATOM_COUNT>
16
> <PUBCHEM_ATOM_DEF_STEREO_COUNT>
3
> <PUBCHEM_ATOM_UDEF_STEREO_COUNT>
0
> <PUBCHEM_BOND_DEF_STEREO_COUNT>
0
> <PUBCHEM_BOND_UDEF_STEREO_COUNT>
0
> <PUBCHEM_ISOTOPIC_ATOM_COUNT>
0
> <PUBCHEM_COMPONENT_COUNT>
1
> <PUBCHEM_CACTVS_TAUTO_COUNT>
-1
> <PUBCHEM_COORDINATE_TYPE>
1
5
255
> <PUBCHEM_BONDANNOTATIONS>
10  1  5
14  15  8
15  16  8
5  13  8
5  14  8
7  5  6
6  13  8
6  16  8
8  12  6
$$$$
