512178
  -OEChem-10302200282D
 36 37  0     1  0  0  0  0  0999 V2000
    2.8380   -0.8216    0.0000 O   0  0  0  0  0  0  0  0  0  0  0  0
    3.5103   -2.8907    0.0000 O   0  0  0  0  0  0  0  0  0  0  0  0
    6.6804   -2.7862    0.0000 O   0  0  0  0  0  0  0  0  0  0  0  0
    6.3301    0.4571    0.0000 O   0  0  0  0  0  0  0  0  0  0  0  0
    4.5981    3.4571    0.0000 O   0  0  0  0  0  0  0  0  0  0  0  0
    4.5981    0.4571    0.0000 N   0  0  0  0  0  0  0  0  0  0  0  0
    5.4641    1.9571    0.0000 N   0  0  0  0  0  0  0  0  0  0  0  0
    2.8660    2.4571    0.0000 N   0  0  0  0  0  0  0  0  0  0  0  0
    4.5981   -0.5429    0.0000 C   0  0  2  0  0  0  0  0  0  0  0  0
    5.0981   -2.0817    0.0000 C   0  0  1  0  0  0  0  0  0  0  0  0
    5.4071   -1.1307    0.0000 C   0  0  0  0  0  0  0  0  0  0  0  0
    3.7891   -1.1307    0.0000 C   0  0  1  0  0  0  0  0  0  0  0  0
    4.0981   -2.0817    0.0000 C   0  0  2  0  0  0  0  0  0  0  0  0
    5.6859   -2.8907    0.0000 C   0  0  0  0  0  0  0  0  0  0  0  0
    3.7320    0.9571    0.0000 C   0  0  0  0  0  0  0  0  0  0  0  0
    5.4641    0.9571    0.0000 C   0  0  0  0  0  0  0  0  0  0  0  0
    3.7320    1.9571    0.0000 C   0  0  0  0  0  0  0  0  0  0  0  0
    4.5981    2.4571    0.0000 C   0  0  0  0  0  0  0  0  0  0  0  0
    2.0000    1.9571    0.0000 C   0  0  0  0  0  0  0  0  0  0  0  0
    5.1505   -0.2614    0.0000 H   0  0  0  0  0  0  0  0  0  0  0  0
    5.7104   -1.9847    0.0000 H   0  0  0  0  0  0  0  0  0  0  0  0
    5.9735   -1.3828    0.0000 H   0  0  0  0  0  0  0  0  0  0  0  0
    5.7171   -0.5937    0.0000 H   0  0  0  0  0  0  0  0  0  0  0  0
    3.3506   -1.5691    0.0000 H   0  0  0  0  0  0  0  0  0  0  0  0
    4.3796   -2.6341    0.0000 H   0  0  0  0  0  0  0  0  0  0  0  0
    5.1286   -3.1625    0.0000 H   0  0  0  0  0  0  0  0  0  0  0  0
    5.8568   -3.4867    0.0000 H   0  0  0  0  0  0  0  0  0  0  0  0
    2.3772   -1.2365    0.0000 H   0  0  0  0  0  0  0  0  0  0  0  0
    3.7625   -3.4571    0.0000 H   0  0  0  0  0  0  0  0  0  0  0  0
    3.1951    0.6471    0.0000 H   0  0  0  0  0  0  0  0  0  0  0  0
    7.0448   -3.2878    0.0000 H   0  0  0  0  0  0  0  0  0  0  0  0
    6.0010    2.2671    0.0000 H   0  0  0  0  0  0  0  0  0  0  0  0
    2.8660    3.0771    0.0000 H   0  0  0  0  0  0  0  0  0  0  0  0
    1.6900    2.4941    0.0000 H   0  0  0  0  0  0  0  0  0  0  0  0
    1.4631    1.6471    0.0000 H   0  0  0  0  0  0  0  0  0  0  0  0
    2.3100    1.4202    0.0000 H   0  0  0  0  0  0  0  0  0  0  0  0
 12  1  1  1  0  0  0
  1 28  1  0  0  0  0
 13  2  1  1  0  0  0
  2 29  1  0  0  0  0
  3 14  1  0  0  0  0
  3 31  1  0  0  0  0
  4 16  2  0  0  0  0
  5 18  2  0  0  0  0
  9  6  1  6  0  0  0
  6 15  1  0  0  0  0
  6 16  1  0  0  0  0
  7 16  1  0  0  0  0
  7 18  1  0  0  0  0
  7 32  1  0  0  0  0
  8 17  1  0  0  0  0
  8 19  1  0  0  0  0
  8 33  1  0  0  0  0
  9 11  1  0  0  0  0
  9 12  1  0  0  0  0
  9 20  1  0  0  0  0
 10 11  1  0  0  0  0
 10 13  1  0  0  0  0
 10 14  1  6  0  0  0
 10 21  1  0  0  0  0
 11 22  1  0  0  0  0
 11 23  1  0  0  0  0
 12 13  1  0  0  0  0
 12 24  1  0  0  0  0
 13 25  1  0  0  0  0
 14 26  1  0  0  0  0
 14 27  1  0  0  0  0
 15 17  2  0  0  0  0
 15 30  1  0  0  0  0
 17 18  1  0  0  0  0
 19 34  1  0  0  0  0
 19 35  1  0  0  0  0
 19 36  1  0  0  0  0
M  END
> <PUBCHEM_COMPOUND_CID>
512178
> <PUBCHEM_COMPOUND_CANONICALIZED>
1
> <PUBCHEM_CACTVS_COMPLEXITY>
425
> <PUBCHEM_CACTVS_HBOND_ACCEPTOR>
6
> <PUBCHEM_CACTVS_HBOND_DONOR>
5
> <PUBCHEM_CACTVS_ROTATABLE_BOND>
3
> <PUBCHEM_CACTVS_SUBSKEYS>
AAADceBzOAAAAAAAAAAAAAAAAAAAAYAAAAAgAAAAAAAAAAAAAAAAHgAQCAAADTzhgAYDAAPAAgCIAAVWUACAAAAAAgAAAICIAECDUAIAgCAUQAAPByIRAMHwcAcOAAAAAAAAAAAAAAAAAAAAAKEABCgAAA==
> <PUBCHEM_IUPAC_OPENEYE_NAME>
1-[(1R,2S,3R,4R)-2,3-dihydroxy-4-(hydroxymethyl)cyclopentyl]-5-(methylamino)pyrimidine-2,4-dione
> <PUBCHEM_IUPAC_CAS_NAME>
1-[(1R,2S,3R,4R)-2,3-dihydroxy-4-(hydroxymethyl)cyclopentyl]-5-(methylamino)pyrimidine-2,4-dione
> <PUBCHEM_IUPAC_NAME_MARKUP>
1-[(1<I>R</I>,2<I>S</I>,3<I>R</I>,4<I>R</I>)-2,3-dihydroxy-4-(hydroxymethyl)cyclopentyl]-5-(methylamino)pyrimidine-2,4-dione
> <PUBCHEM_IUPAC_NAME>
1-[(1R,2S,3R,4R)-2,3-dihydroxy-4-(hydroxymethyl)cyclopentyl]-5-(methylamino)pyrimidine-2,4-dione
> <PUBCHEM_IUPAC_SYSTEMATIC_NAME>
1-[(1R,2S,3R,4R)-4-(hydroxymethyl)-2,3-bis(oxidanyl)cyclopentyl]-5-(methylamino)pyrimidine-2,4-dione
> <PUBCHEM_IUPAC_TRADITIONAL_NAME>
1-[(1R,2S,3R,4R)-2,3-dihydroxy-4-methylol-cyclopentyl]-5-(methylamino)pyrimidine-2,4-quinone
> <PUBCHEM_IUPAC_INCHI>
InChI=1S/C11H17N3O5/c1-12-6-3-14(11(19)13-10(6)18)7-2-5(4-15)8(16)9(7)17/h3,5,7-9,12,15-17H,2,4H2,1H3,(H,13,18,19)/t5-,7-,8-,9+/m1/s1
> <PUBCHEM_IUPAC_INCHIKEY>
VOLNGEAGCNDJOZ-YYNOVJQHSA-N
> <PUBCHEM_XLOGP3_AA>
-1.5
> <PUBCHEM_EXACT_MASS>
271.11682065
> <PUBCHEM_MOLECULAR_FORMULA>
C11H17N3O5
> <PUBCHEM_MOLECULAR_WEIGHT>
271.27
> <PUBCHEM_OPENEYE_CAN_SMILES>
CNC1=CN(C(=O)NC1=O)C2CC(C(C2O)O)CO
> <PUBCHEM_OPENEYE_ISO_SMILES>
CNC1=CN(C(=O)NC1=O)[C@@H]2C[C@@H]([C@H]([C@H]2O)O)CO
> <PUBCHEM_CACTVS_TPSA>
122
> <PUBCHEM_MONOISOTOPIC_WEIGHT>
271.11682065
> <PUBCHEM_TOTAL_CHARGE>
0
> <PUBCHEM_HEAVY_ATOM_COUNT>
19
> <PUBCHEM_ATOM_DEF_STEREO_COUNT>
4
> <PUBCHEM_ATOM_UDEF_STEREO_COUNT>
0
> <PUBCHEM_BOND_DEF_STEREO_COUNT>
0
> <PUBCHEM_BOND_UDEF_STEREO_COUNT>
0
> <PUBCHEM_ISOTOPIC_ATOM_COUNT>
0
> <PUBCHEM_COMPONENT_COUNT>
1
> <PUBCHEM_CACTVS_TAUTO_COUNT>
-1
> <PUBCHEM_COORDINATE_TYPE>
1
5
255
> <PUBCHEM_BONDANNOTATIONS>
12  1  5
10  14  6
15  17  8
17  18  8
13  2  5
6  15  8
6  16  8
9  6  6
7  16  8
7  18  8
$$$$
