512135
  -OEChem-10302200282D
 35 37  0     1  0  0  0  0  0999 V2000
    4.9395   -1.2969    0.0000 O   0  0  0  0  0  0  0  0  0  0  0  0
    7.2855   -0.2050    0.0000 O   0  0  0  0  0  0  0  0  0  0  0  0
    7.2892   -2.3806    0.0000 O   0  0  0  0  0  0  0  0  0  0  0  0
    5.8917   -3.7984    0.0000 O   0  0  0  0  0  0  0  0  0  0  0  0
    4.2690    3.7684    0.0000 O   0  0  0  0  0  0  0  0  0  0  0  0
    5.2152    0.4637    0.0000 N   0  0  0  0  0  0  0  0  0  0  0  0
    3.4030    0.2684    0.0000 N   0  0  0  0  0  0  0  0  0  0  0  0
    2.5369    1.7684    0.0000 N   0  0  0  0  0  0  0  0  0  0  0  0
    2.5369    3.7684    0.0000 N   0  0  0  0  0  0  0  0  0  0  0  0
    5.5259   -0.4868    0.0000 C   0  0  1  0  0  0  0  0  0  0  0  0
    6.4775   -0.7942    0.0000 C   0  0  1  0  0  0  0  0  0  0  0  0
    6.4792   -1.7942    0.0000 C   0  0  1  0  0  0  0  0  0  0  0  0
    5.5287   -2.1049    0.0000 C   0  0  1  0  0  0  0  0  0  0  0  0
    5.2213   -3.0564    0.0000 C   0  0  0  0  0  0  0  0  0  0  0  0
    4.2690    0.7684    0.0000 C   0  0  0  0  0  0  0  0  0  0  0  0
    5.7988    1.2684    0.0000 C   0  0  0  0  0  0  0  0  0  0  0  0
    4.2690    1.7684    0.0000 C   0  0  0  0  0  0  0  0  0  0  0  0
    5.2152    2.0732    0.0000 C   0  0  0  0  0  0  0  0  0  0  0  0
    3.4030    2.2684    0.0000 C   0  0  0  0  0  0  0  0  0  0  0  0
    2.5369    0.7684    0.0000 C   0  0  0  0  0  0  0  0  0  0  0  0
    3.4030    3.2684    0.0000 C   0  0  0  0  0  0  0  0  0  0  0  0
    4.9133   -0.3909    0.0000 H   0  0  0  0  0  0  0  0  0  0  0  0
    6.3794   -0.1820    0.0000 H   0  0  0  0  0  0  0  0  0  0  0  0
    7.0311   -1.5118    0.0000 H   0  0  0  0  0  0  0  0  0  0  0  0
    4.9165   -2.2029    0.0000 H   0  0  0  0  0  0  0  0  0  0  0  0
    4.6734   -2.7663    0.0000 H   0  0  0  0  0  0  0  0  0  0  0  0
    4.8404   -3.5457    0.0000 H   0  0  0  0  0  0  0  0  0  0  0  0
    6.4188    1.2684    0.0000 H   0  0  0  0  0  0  0  0  0  0  0  0
    7.8523   -0.4562    0.0000 H   0  0  0  0  0  0  0  0  0  0  0  0
    7.8552   -2.1274    0.0000 H   0  0  0  0  0  0  0  0  0  0  0  0
    5.4078    2.6625    0.0000 H   0  0  0  0  0  0  0  0  0  0  0  0
    5.7011   -4.3884    0.0000 H   0  0  0  0  0  0  0  0  0  0  0  0
    2.0000    0.4584    0.0000 H   0  0  0  0  0  0  0  0  0  0  0  0
    2.5369    4.3884    0.0000 H   0  0  0  0  0  0  0  0  0  0  0  0
    2.0000    3.4584    0.0000 H   0  0  0  0  0  0  0  0  0  0  0  0
  1 10  1  0  0  0  0
  1 13  1  0  0  0  0
 11  2  1  6  0  0  0
  2 29  1  0  0  0  0
 12  3  1  6  0  0  0
  3 30  1  0  0  0  0
  4 14  1  0  0  0  0
  4 32  1  0  0  0  0
  5 21  2  0  0  0  0
 10  6  1  1  0  0  0
  6 15  1  0  0  0  0
  6 16  1  0  0  0  0
  7 15  2  0  0  0  0
  7 20  1  0  0  0  0
  8 19  1  0  0  0  0
  8 20  2  0  0  0  0
  9 21  1  0  0  0  0
  9 34  1  0  0  0  0
  9 35  1  0  0  0  0
 10 11  1  0  0  0  0
 10 22  1  0  0  0  0
 11 12  1  0  0  0  0
 11 23  1  0  0  0  0
 12 13  1  0  0  0  0
 12 24  1  0  0  0  0
 13 14  1  1  0  0  0
 13 25  1  0  0  0  0
 14 26  1  0  0  0  0
 14 27  1  0  0  0  0
 15 17  1  0  0  0  0
 16 18  2  0  0  0  0
 16 28  1  0  0  0  0
 17 18  1  0  0  0  0
 17 19  2  0  0  0  0
 18 31  1  0  0  0  0
 19 21  1  0  0  0  0
 20 33  1  0  0  0  0
M  END
> <PUBCHEM_COMPOUND_CID>
512135
> <PUBCHEM_COMPOUND_CANONICALIZED>
1
> <PUBCHEM_CACTVS_COMPLEXITY>
411
> <PUBCHEM_CACTVS_HBOND_ACCEPTOR>
7
> <PUBCHEM_CACTVS_HBOND_DONOR>
4
> <PUBCHEM_CACTVS_ROTATABLE_BOND>
3
> <PUBCHEM_CACTVS_SUBSKEYS>
AAADccBzuAAAAAAAAAAAAAAAAAAAAWJAAAAsAAAAAAAAAFgB+AAAHgAQCAAADBzhnwY9sN9MFgCoAzd3dACCgCk3AqAJ2CG4ZNiLePLA3PGeRQhvgALbySb8MQIKAAAAAAAAAAAAAAAAAAAAAAAAAAAAAA==
> <PUBCHEM_IUPAC_OPENEYE_NAME>
7-[(2R,3R,4S,5R)-3,4-dihydroxy-5-(hydroxymethyl)tetrahydrofuran-2-yl]pyrrolo[2,3-d]pyrimidine-4-carboxamide
> <PUBCHEM_IUPAC_CAS_NAME>
7-[(2R,3R,4S,5R)-3,4-dihydroxy-5-(hydroxymethyl)-2-oxolanyl]-4-pyrrolo[2,3-d]pyrimidinecarboxamide
> <PUBCHEM_IUPAC_NAME_MARKUP>
7-[(2<I>R</I>,3<I>R</I>,4<I>S</I>,5<I>R</I>)-3,4-dihydroxy-5-(hydroxymethyl)oxolan-2-yl]pyrrolo[2,3-d]pyrimidine-4-carboxamide
> <PUBCHEM_IUPAC_NAME>
7-[(2R,3R,4S,5R)-3,4-dihydroxy-5-(hydroxymethyl)oxolan-2-yl]pyrrolo[2,3-d]pyrimidine-4-carboxamide
> <PUBCHEM_IUPAC_SYSTEMATIC_NAME>
7-[(2R,3R,4S,5R)-5-(hydroxymethyl)-3,4-bis(oxidanyl)oxolan-2-yl]pyrrolo[2,3-d]pyrimidine-4-carboxamide
> <PUBCHEM_IUPAC_TRADITIONAL_NAME>
7-[(2R,3R,4S,5R)-3,4-dihydroxy-5-methylol-tetrahydrofuran-2-yl]pyrrolo[2,3-d]pyrimidine-4-carboxamide
> <PUBCHEM_IUPAC_INCHI>
InChI=1S/C12H14N4O5/c13-10(20)7-5-1-2-16(11(5)15-4-14-7)12-9(19)8(18)6(3-17)21-12/h1-2,4,6,8-9,12,17-19H,3H2,(H2,13,20)/t6-,8-,9-,12-/m1/s1
> <PUBCHEM_IUPAC_INCHIKEY>
GOOLLXIEFXHJQO-WOUKDFQISA-N
> <PUBCHEM_XLOGP3_AA>
-1.8
> <PUBCHEM_EXACT_MASS>
294.09641956
> <PUBCHEM_MOLECULAR_FORMULA>
C12H14N4O5
> <PUBCHEM_MOLECULAR_WEIGHT>
294.26
> <PUBCHEM_OPENEYE_CAN_SMILES>
C1=CN(C2=NC=NC(=C21)C(=O)N)C3C(C(C(O3)CO)O)O
> <PUBCHEM_OPENEYE_ISO_SMILES>
C1=CN(C2=NC=NC(=C21)C(=O)N)[C@H]3[C@@H]([C@@H]([C@H](O3)CO)O)O
> <PUBCHEM_CACTVS_TPSA>
144
> <PUBCHEM_MONOISOTOPIC_WEIGHT>
294.09641956
> <PUBCHEM_TOTAL_CHARGE>
0
> <PUBCHEM_HEAVY_ATOM_COUNT>
21
> <PUBCHEM_ATOM_DEF_STEREO_COUNT>
4
> <PUBCHEM_ATOM_UDEF_STEREO_COUNT>
0
> <PUBCHEM_BOND_DEF_STEREO_COUNT>
0
> <PUBCHEM_BOND_UDEF_STEREO_COUNT>
0
> <PUBCHEM_ISOTOPIC_ATOM_COUNT>
0
> <PUBCHEM_COMPONENT_COUNT>
1
> <PUBCHEM_CACTVS_TAUTO_COUNT>
-1
> <PUBCHEM_COORDINATE_TYPE>
1
5
255
> <PUBCHEM_BONDANNOTATIONS>
13  14  5
15  17  8
16  18  8
17  18  8
17  19  8
11  2  6
12  3  6
10  6  5
6  15  8
6  16  8
7  15  8
7  20  8
8  19  8
8  20  8
$$$$
