512133
  -OEChem-10302200282D
 49 51  0     1  0  0  0  0  0999 V2000
    2.8660   -3.8640    0.0000 S   0  0  0  0  0  0  0  0  0  0  0  0
    4.4026    0.7013    0.0000 O   0  0  0  0  0  0  0  0  0  0  0  0
    6.7485   -0.3906    0.0000 O   0  0  0  0  0  0  0  0  0  0  0  0
    6.7523    1.7850    0.0000 O   0  0  0  0  0  0  0  0  0  0  0  0
    3.7066    2.6705    0.0000 O   0  0  0  0  0  0  0  0  0  0  0  0
    7.7690    1.0089    0.0000 O   0  0  0  0  0  0  0  0  0  0  0  0
    5.7366    3.1880    0.0000 O   0  0  0  0  0  0  0  0  0  0  0  0
    4.0696    4.3640    0.0000 O   0  0  0  0  0  0  0  0  0  0  0  0
    5.2619   -1.8640    0.0000 N   0  0  0  0  0  0  0  0  0  0  0  0
    4.6783   -2.6688    0.0000 N   0  0  0  0  0  0  0  0  0  0  0  0
    2.8660   -0.8640    0.0000 N   0  0  0  0  0  0  0  0  0  0  0  0
    2.0000   -2.3640    0.0000 N   0  0  0  0  0  0  0  0  0  0  0  0
    5.9405    0.1986    0.0000 C   0  0  2  0  0  0  0  0  0  0  0  0
    5.9422    1.1986    0.0000 C   0  0  1  0  0  0  0  0  0  0  0  0
    4.9889   -0.1088    0.0000 C   0  0  2  0  0  0  0  0  0  0  0  0
    4.9917    1.5093    0.0000 C   0  0  1  0  0  0  0  0  0  0  0  0
    4.6783   -1.0593    0.0000 C   0  0  0  0  0  0  0  0  0  0  0  0
    4.6844    2.4609    0.0000 C   0  0  0  0  0  0  0  0  0  0  0  0
    3.7320   -1.3640    0.0000 C   0  0  0  0  0  0  0  0  0  0  0  0
    3.7320   -2.3640    0.0000 C   0  0  0  0  0  0  0  0  0  0  0  0
    7.6628    0.0146    0.0000 C   0  0  0  0  0  0  0  0  0  0  0  0
    6.6495    2.7797    0.0000 C   0  0  0  0  0  0  0  0  0  0  0  0
    2.8660   -2.8640    0.0000 C   0  0  0  0  0  0  0  0  0  0  0  0
    8.4708   -0.5746    0.0000 C   0  0  0  0  0  0  0  0  0  0  0  0
    3.3992    3.6220    0.0000 C   0  0  0  0  0  0  0  0  0  0  0  0
    7.4595    3.3661    0.0000 C   0  0  0  0  0  0  0  0  0  0  0  0
    2.0000   -1.3640    0.0000 C   0  0  0  0  0  0  0  0  0  0  0  0
    2.4214    3.8316    0.0000 C   0  0  0  0  0  0  0  0  0  0  0  0
    2.0000   -4.3640    0.0000 C   0  0  0  0  0  0  0  0  0  0  0  0
    6.4934    0.4791    0.0000 H   0  0  0  0  0  0  0  0  0  0  0  0
    6.4942    0.9162    0.0000 H   0  0  0  0  0  0  0  0  0  0  0  0
    5.5889   -0.7109    0.0000 H   0  0  0  0  0  0  0  0  0  0  0  0
    4.3795    1.6073    0.0000 H   0  0  0  0  0  0  0  0  0  0  0  0
    5.2985    2.5461    0.0000 H   0  0  0  0  0  0  0  0  0  0  0  0
    4.7071    3.0804    0.0000 H   0  0  0  0  0  0  0  0  0  0  0  0
    5.8819   -1.8640    0.0000 H   0  0  0  0  0  0  0  0  0  0  0  0
    8.1055   -1.0756    0.0000 H   0  0  0  0  0  0  0  0  0  0  0  0
    8.9717   -0.9399    0.0000 H   0  0  0  0  0  0  0  0  0  0  0  0
    8.8361   -0.0737    0.0000 H   0  0  0  0  0  0  0  0  0  0  0  0
    7.8231    2.8638    0.0000 H   0  0  0  0  0  0  0  0  0  0  0  0
    7.9617    3.7296    0.0000 H   0  0  0  0  0  0  0  0  0  0  0  0
    7.0960    3.8683    0.0000 H   0  0  0  0  0  0  0  0  0  0  0  0
    1.4631   -1.0540    0.0000 H   0  0  0  0  0  0  0  0  0  0  0  0
    2.5514    4.4379    0.0000 H   0  0  0  0  0  0  0  0  0  0  0  0
    1.8152    3.9616    0.0000 H   0  0  0  0  0  0  0  0  0  0  0  0
    2.2915    3.2254    0.0000 H   0  0  0  0  0  0  0  0  0  0  0  0
    1.6900   -3.8271    0.0000 H   0  0  0  0  0  0  0  0  0  0  0  0
    1.4631   -4.6740    0.0000 H   0  0  0  0  0  0  0  0  0  0  0  0
    2.3100   -4.9010    0.0000 H   0  0  0  0  0  0  0  0  0  0  0  0
  1 23  1  0  0  0  0
  1 29  1  0  0  0  0
  2 15  1  0  0  0  0
  2 16  1  0  0  0  0
 13  3  1  1  0  0  0
  3 21  1  0  0  0  0
 14  4  1  1  0  0  0
  4 22  1  0  0  0  0
  5 18  1  0  0  0  0
  5 25  1  0  0  0  0
  6 21  2  0  0  0  0
  7 22  2  0  0  0  0
  8 25  2  0  0  0  0
  9 10  1  0  0  0  0
  9 17  1  0  0  0  0
  9 36  1  0  0  0  0
 10 20  2  0  0  0  0
 11 19  1  0  0  0  0
 11 27  2  0  0  0  0
 12 23  2  0  0  0  0
 12 27  1  0  0  0  0
 13 14  1  0  0  0  0
 13 15  1  0  0  0  0
 13 30  1  0  0  0  0
 14 16  1  0  0  0  0
 14 31  1  0  0  0  0
 15 17  1  0  0  0  0
 15 32  1  1  0  0  0
 16 18  1  6  0  0  0
 16 33  1  0  0  0  0
 17 19  2  0  0  0  0
 18 34  1  0  0  0  0
 18 35  1  0  0  0  0
 19 20  1  0  0  0  0
 20 23  1  0  0  0  0
 21 24  1  0  0  0  0
 22 26  1  0  0  0  0
 24 37  1  0  0  0  0
 24 38  1  0  0  0  0
 24 39  1  0  0  0  0
 25 28  1  0  0  0  0
 26 40  1  0  0  0  0
 26 41  1  0  0  0  0
 26 42  1  0  0  0  0
 27 43  1  0  0  0  0
 28 44  1  0  0  0  0
 28 45  1  0  0  0  0
 28 46  1  0  0  0  0
 29 47  1  0  0  0  0
 29 48  1  0  0  0  0
 29 49  1  0  0  0  0
M  END
> <PUBCHEM_COMPOUND_CID>
512133
> <PUBCHEM_COMPOUND_CANONICALIZED>
1
> <PUBCHEM_CACTVS_COMPLEXITY>
639
> <PUBCHEM_CACTVS_HBOND_ACCEPTOR>
11
> <PUBCHEM_CACTVS_HBOND_DONOR>
1
> <PUBCHEM_CACTVS_ROTATABLE_BOND>
9
> <PUBCHEM_CACTVS_SUBSKEYS>
AAADceB7uABAAAAAAAAAAAAAAAAAAWJAAAAsAAAAAAAAAFgB+AAAHgQYAAAACByh1gaH2bZrFAiqAQTxbASS1C1xGLAR+TQ4XJiLbiLg+NmXlAxv2ANK6Cfw8K8AAAAAAAAAAAAAAAAAAAAAAAAAAAAAAA==
> <PUBCHEM_IUPAC_OPENEYE_NAME>
[(2R,3R,4S,5S)-3,4-diacetoxy-5-(7-methylsulfanyl-2H-pyrazolo[4,3-d]pyrimidin-3-yl)tetrahydrofuran-2-yl]methyl acetate
> <PUBCHEM_IUPAC_CAS_NAME>
acetic acid [(2R,3R,4S,5S)-3,4-diacetyloxy-5-[7-(methylthio)-2H-pyrazolo[4,3-d]pyrimidin-3-yl]-2-oxolanyl]methyl ester
> <PUBCHEM_IUPAC_NAME_MARKUP>
[(2<I>R</I>,3<I>R</I>,4<I>S</I>,5<I>S</I>)-3,4-diacetyloxy-5-(7-methylsulfanyl-2<I>H</I>-pyrazolo[4,3-d]pyrimidin-3-yl)oxolan-2-yl]methyl acetate
> <PUBCHEM_IUPAC_NAME>
[(2R,3R,4S,5S)-3,4-diacetyloxy-5-(7-methylsulfanyl-2H-pyrazolo[4,3-d]pyrimidin-3-yl)oxolan-2-yl]methyl acetate
> <PUBCHEM_IUPAC_SYSTEMATIC_NAME>
[(2R,3R,4S,5S)-3,4-diacetyloxy-5-(7-methylsulfanyl-2H-pyrazolo[4,3-d]pyrimidin-3-yl)oxolan-2-yl]methyl ethanoate
> <PUBCHEM_IUPAC_TRADITIONAL_NAME>
acetic acid [(2R,3R,4S,5S)-3,4-diacetoxy-5-[7-(methylthio)-2H-pyrazolo[4,3-d]pyrimidin-3-yl]tetrahydrofuran-2-yl]methyl ester
> <PUBCHEM_IUPAC_INCHI>
InChI=1S/C17H20N4O7S/c1-7(22)25-5-10-14(26-8(2)23)16(27-9(3)24)15(28-10)12-11-13(21-20-12)17(29-4)19-6-18-11/h6,10,14-16H,5H2,1-4H3,(H,20,21)/t10-,14-,15+,16-/m1/s1
> <PUBCHEM_IUPAC_INCHIKEY>
MTJDYYDXBVRKLX-HGGPSHQYSA-N
> <PUBCHEM_XLOGP3_AA>
0.1
> <PUBCHEM_EXACT_MASS>
424.10527016
> <PUBCHEM_MOLECULAR_FORMULA>
C17H20N4O7S
> <PUBCHEM_MOLECULAR_WEIGHT>
424.4
> <PUBCHEM_OPENEYE_CAN_SMILES>
CC(=O)OCC1C(C(C(O1)C2=C3C(=NN2)C(=NC=N3)SC)OC(=O)C)OC(=O)C
> <PUBCHEM_OPENEYE_ISO_SMILES>
CC(=O)OC[C@@H]1[C@H]([C@H]([C@@H](O1)C2=C3C(=NN2)C(=NC=N3)SC)OC(=O)C)OC(=O)C
> <PUBCHEM_CACTVS_TPSA>
168
> <PUBCHEM_MONOISOTOPIC_WEIGHT>
424.10527016
> <PUBCHEM_TOTAL_CHARGE>
0
> <PUBCHEM_HEAVY_ATOM_COUNT>
29
> <PUBCHEM_ATOM_DEF_STEREO_COUNT>
4
> <PUBCHEM_ATOM_UDEF_STEREO_COUNT>
0
> <PUBCHEM_BOND_DEF_STEREO_COUNT>
0
> <PUBCHEM_BOND_UDEF_STEREO_COUNT>
0
> <PUBCHEM_ISOTOPIC_ATOM_COUNT>
0
> <PUBCHEM_COMPONENT_COUNT>
1
> <PUBCHEM_CACTVS_TAUTO_COUNT>
-1
> <PUBCHEM_COORDINATE_TYPE>
1
5
255
> <PUBCHEM_BONDANNOTATIONS>
10  20  8
11  19  8
11  27  8
12  23  8
12  27  8
15  32  5
16  18  6
17  19  8
19  20  8
20  23  8
13  3  5
14  4  5
9  10  8
9  17  8
$$$$
