512175
  -OEChem-10302200282D
 32 33  0     1  0  0  0  0  0999 V2000
    2.5089   -0.3973    0.0000 O   0  0  0  0  0  0  0  0  0  0  0  0
    4.9500   -3.3799    0.0000 O   0  0  0  0  0  0  0  0  0  0  0  0
    6.0010    0.8815    0.0000 O   0  0  0  0  0  0  0  0  0  0  0  0
    4.2690    3.8815    0.0000 O   0  0  0  0  0  0  0  0  0  0  0  0
    4.2690    0.8815    0.0000 N   0  0  0  0  0  0  0  0  0  0  0  0
    5.1350    2.3815    0.0000 N   0  0  0  0  0  0  0  0  0  0  0  0
    2.5369    2.8815    0.0000 N   0  0  0  0  0  0  0  0  0  0  0  0
    4.2690   -0.1185    0.0000 C   0  0  2  0  0  0  0  0  0  0  0  0
    4.7690   -1.6573    0.0000 C   0  0  1  0  0  0  0  0  0  0  0  0
    5.0780   -0.7063    0.0000 C   0  0  0  0  0  0  0  0  0  0  0  0
    3.4600   -0.7063    0.0000 C   0  0  1  0  0  0  0  0  0  0  0  0
    3.7690   -1.6573    0.0000 C   0  0  0  0  0  0  0  0  0  0  0  0
    5.3568   -2.4664    0.0000 C   0  0  0  0  0  0  0  0  0  0  0  0
    3.4030    1.3815    0.0000 C   0  0  0  0  0  0  0  0  0  0  0  0
    5.1350    1.3815    0.0000 C   0  0  0  0  0  0  0  0  0  0  0  0
    3.4030    2.3815    0.0000 C   0  0  0  0  0  0  0  0  0  0  0  0
    4.2690    2.8815    0.0000 C   0  0  0  0  0  0  0  0  0  0  0  0
    4.8214    0.1630    0.0000 H   0  0  0  0  0  0  0  0  0  0  0  0
    5.3814   -1.5603    0.0000 H   0  0  0  0  0  0  0  0  0  0  0  0
    5.6444   -0.9585    0.0000 H   0  0  0  0  0  0  0  0  0  0  0  0
    5.3880   -0.1694    0.0000 H   0  0  0  0  0  0  0  0  0  0  0  0
    3.3630   -0.0939    0.0000 H   0  0  0  0  0  0  0  0  0  0  0  0
    3.1625   -1.7862    0.0000 H   0  0  0  0  0  0  0  0  0  0  0  0
    3.8338   -2.2740    0.0000 H   0  0  0  0  0  0  0  0  0  0  0  0
    5.8708   -2.8131    0.0000 H   0  0  0  0  0  0  0  0  0  0  0  0
    5.7875   -2.0204    0.0000 H   0  0  0  0  0  0  0  0  0  0  0  0
    2.0482   -0.8121    0.0000 H   0  0  0  0  0  0  0  0  0  0  0  0
    2.8660    1.0715    0.0000 H   0  0  0  0  0  0  0  0  0  0  0  0
    5.3145   -3.8815    0.0000 H   0  0  0  0  0  0  0  0  0  0  0  0
    5.6720    2.6915    0.0000 H   0  0  0  0  0  0  0  0  0  0  0  0
    2.0000    2.5715    0.0000 H   0  0  0  0  0  0  0  0  0  0  0  0
    2.5369    3.5015    0.0000 H   0  0  0  0  0  0  0  0  0  0  0  0
 11  1  1  1  0  0  0
  1 27  1  0  0  0  0
  2 13  1  0  0  0  0
  2 29  1  0  0  0  0
  3 15  2  0  0  0  0
  4 17  2  0  0  0  0
  8  5  1  6  0  0  0
  5 14  1  0  0  0  0
  5 15  1  0  0  0  0
  6 15  1  0  0  0  0
  6 17  1  0  0  0  0
  6 30  1  0  0  0  0
  7 16  1  0  0  0  0
  7 31  1  0  0  0  0
  7 32  1  0  0  0  0
  8 10  1  0  0  0  0
  8 11  1  0  0  0  0
  8 18  1  0  0  0  0
  9 10  1  0  0  0  0
  9 12  1  0  0  0  0
  9 13  1  6  0  0  0
  9 19  1  0  0  0  0
 10 20  1  0  0  0  0
 10 21  1  0  0  0  0
 11 12  1  0  0  0  0
 11 22  1  0  0  0  0
 12 23  1  0  0  0  0
 12 24  1  0  0  0  0
 13 25  1  0  0  0  0
 13 26  1  0  0  0  0
 14 16  2  0  0  0  0
 14 28  1  0  0  0  0
 16 17  1  0  0  0  0
M  END
> <PUBCHEM_COMPOUND_CID>
512175
> <PUBCHEM_COMPOUND_CANONICALIZED>
1
> <PUBCHEM_CACTVS_COMPLEXITY>
382
> <PUBCHEM_CACTVS_HBOND_ACCEPTOR>
5
> <PUBCHEM_CACTVS_HBOND_DONOR>
4
> <PUBCHEM_CACTVS_ROTATABLE_BOND>
2
> <PUBCHEM_CACTVS_SUBSKEYS>
AAADccBzOAAAAAAAAAAAAAAAAAAAAYAAAAAgAAAAAAAAAAAAAAAAHgAQCAAADTzhgAYBAAPAAgCIAAVWUACAAAAAAgAAAACIAECCUAIAgAAUQAAMByIQAMHwcAcOAAAAAAAAAAAAAAAAAAAAAKAAAAgAAA==
> <PUBCHEM_IUPAC_OPENEYE_NAME>
5-amino-1-[(1R,2R,4S)-2-hydroxy-4-(hydroxymethyl)cyclopentyl]pyrimidine-2,4-dione
> <PUBCHEM_IUPAC_CAS_NAME>
5-amino-1-[(1R,2R,4S)-2-hydroxy-4-(hydroxymethyl)cyclopentyl]pyrimidine-2,4-dione
> <PUBCHEM_IUPAC_NAME_MARKUP>
5-amino-1-[(1<I>R</I>,2<I>R</I>,4<I>S</I>)-2-hydroxy-4-(hydroxymethyl)cyclopentyl]pyrimidine-2,4-dione
> <PUBCHEM_IUPAC_NAME>
5-amino-1-[(1R,2R,4S)-2-hydroxy-4-(hydroxymethyl)cyclopentyl]pyrimidine-2,4-dione
> <PUBCHEM_IUPAC_SYSTEMATIC_NAME>
5-azanyl-1-[(1R,2R,4S)-4-(hydroxymethyl)-2-oxidanyl-cyclopentyl]pyrimidine-2,4-dione
> <PUBCHEM_IUPAC_TRADITIONAL_NAME>
5-amino-1-[(1R,2R,4S)-2-hydroxy-4-methylol-cyclopentyl]pyrimidine-2,4-quinone
> <PUBCHEM_IUPAC_INCHI>
InChI=1S/C10H15N3O4/c11-6-3-13(10(17)12-9(6)16)7-1-5(4-14)2-8(7)15/h3,5,7-8,14-15H,1-2,4,11H2,(H,12,16,17)/t5-,7+,8+/m0/s1
> <PUBCHEM_IUPAC_INCHIKEY>
IHMQPKOBJLKNQT-UIISKDMLSA-N
> <PUBCHEM_XLOGP3_AA>
-1.8
> <PUBCHEM_EXACT_MASS>
241.10625597
> <PUBCHEM_MOLECULAR_FORMULA>
C10H15N3O4
> <PUBCHEM_MOLECULAR_WEIGHT>
241.24
> <PUBCHEM_OPENEYE_CAN_SMILES>
C1C(CC(C1N2C=C(C(=O)NC2=O)N)O)CO
> <PUBCHEM_OPENEYE_ISO_SMILES>
C1[C@@H](C[C@H]([C@@H]1N2C=C(C(=O)NC2=O)N)O)CO
> <PUBCHEM_CACTVS_TPSA>
116
> <PUBCHEM_MONOISOTOPIC_WEIGHT>
241.10625597
> <PUBCHEM_TOTAL_CHARGE>
0
> <PUBCHEM_HEAVY_ATOM_COUNT>
17
> <PUBCHEM_ATOM_DEF_STEREO_COUNT>
3
> <PUBCHEM_ATOM_UDEF_STEREO_COUNT>
0
> <PUBCHEM_BOND_DEF_STEREO_COUNT>
0
> <PUBCHEM_BOND_UDEF_STEREO_COUNT>
0
> <PUBCHEM_ISOTOPIC_ATOM_COUNT>
0
> <PUBCHEM_COMPONENT_COUNT>
1
> <PUBCHEM_CACTVS_TAUTO_COUNT>
-1
> <PUBCHEM_COORDINATE_TYPE>
1
5
255
> <PUBCHEM_BONDANNOTATIONS>
11  1  5
14  16  8
16  17  8
5  14  8
5  15  8
8  5  6
6  15  8
6  17  8
9  13  6
$$$$
