512189
  -OEChem-10302200282D
 44 45  0     1  0  0  0  0  0999 V2000
    3.6844    2.4571    0.0000 Br  0  0  0  0  0  0  0  0  0  0  0  0
    5.3884   -0.8216    0.0000 O   0  0  0  0  0  0  0  0  0  0  0  0
    6.0607   -2.8907    0.0000 O   0  0  0  0  0  0  0  0  0  0  0  0
    9.2308   -2.7862    0.0000 O   0  0  0  0  0  0  0  0  0  0  0  0
    8.8805    0.4571    0.0000 O   0  0  0  0  0  0  0  0  0  0  0  0
    4.8532   -2.4689    0.0000 O   0  0  0  0  0  0  0  0  0  0  0  0
    2.9511   -1.8509    0.0000 O   0  0  0  0  0  0  0  0  0  0  0  0
    7.1485    3.4571    0.0000 O   0  0  0  0  0  0  0  0  0  0  0  0
    7.1485    0.4571    0.0000 N   0  0  0  0  0  0  0  0  0  0  0  0
    8.0145    1.9571    0.0000 N   0  0  0  0  0  0  0  0  0  0  0  0
    7.1485   -0.5429    0.0000 C   0  0  1  0  0  0  0  0  0  0  0  0
    7.6485   -2.0817    0.0000 C   0  0  2  0  0  0  0  0  0  0  0  0
    6.3395   -1.1307    0.0000 C   0  0  2  0  0  0  0  0  0  0  0  0
    6.6485   -2.0817    0.0000 C   0  0  2  0  0  0  0  0  0  0  0  0
    7.9575   -1.1307    0.0000 C   0  0  0  0  0  0  0  0  0  0  0  0
    8.2363   -2.8907    0.0000 C   0  0  0  0  0  0  0  0  0  0  0  0
    6.2824    0.9571    0.0000 C   0  0  0  0  0  0  0  0  0  0  0  0
    8.0145    0.9571    0.0000 C   0  0  0  0  0  0  0  0  0  0  0  0
    4.6453   -1.4908    0.0000 C   0  0  0  0  0  0  0  0  0  0  0  0
    6.2824    1.9571    0.0000 C   0  0  0  0  0  0  0  0  0  0  0  0
    7.1485    2.4571    0.0000 C   0  0  0  0  0  0  0  0  0  0  0  0
    3.6942   -1.1818    0.0000 C   0  0  0  0  0  0  0  0  0  0  0  0
    5.4164    2.4571    0.0000 C   0  0  0  0  0  0  0  0  0  0  0  0
    4.5504    1.9571    0.0000 C   0  0  0  0  0  0  0  0  0  0  0  0
    2.0000   -1.5419    0.0000 C   0  0  0  0  0  0  0  0  0  0  0  0
    6.5960   -0.2614    0.0000 H   0  0  0  0  0  0  0  0  0  0  0  0
    8.2608   -1.9847    0.0000 H   0  0  0  0  0  0  0  0  0  0  0  0
    6.2425   -0.5183    0.0000 H   0  0  0  0  0  0  0  0  0  0  0  0
    6.0361   -1.9847    0.0000 H   0  0  0  0  0  0  0  0  0  0  0  0
    8.5239   -1.3828    0.0000 H   0  0  0  0  0  0  0  0  0  0  0  0
    8.2675   -0.5937    0.0000 H   0  0  0  0  0  0  0  0  0  0  0  0
    7.6790   -3.1625    0.0000 H   0  0  0  0  0  0  0  0  0  0  0  0
    8.4072   -3.4867    0.0000 H   0  0  0  0  0  0  0  0  0  0  0  0
    6.3129   -3.4571    0.0000 H   0  0  0  0  0  0  0  0  0  0  0  0
    5.7455    0.6471    0.0000 H   0  0  0  0  0  0  0  0  0  0  0  0
    9.5952   -3.2878    0.0000 H   0  0  0  0  0  0  0  0  0  0  0  0
    8.5514    2.2671    0.0000 H   0  0  0  0  0  0  0  0  0  0  0  0
    3.9853   -0.6343    0.0000 H   0  0  0  0  0  0  0  0  0  0  0  0
    3.2056   -0.8000    0.0000 H   0  0  0  0  0  0  0  0  0  0  0  0
    5.4164    3.0771    0.0000 H   0  0  0  0  0  0  0  0  0  0  0  0
    4.5504    1.3371    0.0000 H   0  0  0  0  0  0  0  0  0  0  0  0
    2.1916   -0.9522    0.0000 H   0  0  0  0  0  0  0  0  0  0  0  0
    1.4103   -1.3503    0.0000 H   0  0  0  0  0  0  0  0  0  0  0  0
    1.8084   -2.1315    0.0000 H   0  0  0  0  0  0  0  0  0  0  0  0
  1 24  1  0  0  0  0
 13  2  1  6  0  0  0
  2 19  1  0  0  0  0
 14  3  1  1  0  0  0
  3 34  1  0  0  0  0
  4 16  1  0  0  0  0
  4 36  1  0  0  0  0
  5 18  2  0  0  0  0
  6 19  2  0  0  0  0
  7 22  1  0  0  0  0
  7 25  1  0  0  0  0
  8 21  2  0  0  0  0
 11  9  1  6  0  0  0
  9 17  1  0  0  0  0
  9 18  1  0  0  0  0
 10 18  1  0  0  0  0
 10 21  1  0  0  0  0
 10 37  1  0  0  0  0
 11 13  1  0  0  0  0
 11 15  1  0  0  0  0
 11 26  1  0  0  0  0
 12 14  1  0  0  0  0
 12 15  1  0  0  0  0
 12 16  1  6  0  0  0
 12 27  1  0  0  0  0
 13 14  1  0  0  0  0
 13 28  1  0  0  0  0
 14 29  1  0  0  0  0
 15 30  1  0  0  0  0
 15 31  1  0  0  0  0
 16 32  1  0  0  0  0
 16 33  1  0  0  0  0
 17 20  2  0  0  0  0
 17 35  1  0  0  0  0
 19 22  1  0  0  0  0
 20 21  1  0  0  0  0
 20 23  1  0  0  0  0
 22 38  1  0  0  0  0
 22 39  1  0  0  0  0
 23 24  2  3  0  0  0
 23 40  1  0  0  0  0
 24 41  1  0  0  0  0
 25 42  1  0  0  0  0
 25 43  1  0  0  0  0
 25 44  1  0  0  0  0
M  END
> <PUBCHEM_COMPOUND_CID>
512189
> <PUBCHEM_COMPOUND_CANONICALIZED>
1
> <PUBCHEM_CACTVS_COMPLEXITY>
607
> <PUBCHEM_CACTVS_HBOND_ACCEPTOR>
7
> <PUBCHEM_CACTVS_HBOND_DONOR>
3
> <PUBCHEM_CACTVS_ROTATABLE_BOND>
7
> <PUBCHEM_CACTVS_SUBSKEYS>
AAADceBzOAAAEAAAAAAAAAAAAAAAAYAAAAAgAAAAAAAAAAAAAAAAHgBQCAABTTzhgAYDCAPABgCIAiHWWAKAAAAgAAAIAAFIAEiLEAIAgQQHQAAPByITAMHwcA8OAAAAAAAAAAAAAAAAAAAAAKEABCgAAA==
> <PUBCHEM_IUPAC_OPENEYE_NAME>
[(1R,2R,3R,5R)-5-[5-(2-bromovinyl)-2,4-dioxo-pyrimidin-1-yl]-2-hydroxy-3-(hydroxymethyl)cyclopentyl] 2-methoxyacetate
> <PUBCHEM_IUPAC_CAS_NAME>
2-methoxyacetic acid [(1R,2R,3R,5R)-5-[5-(2-bromoethenyl)-2,4-dioxo-1-pyrimidinyl]-2-hydroxy-3-(hydroxymethyl)cyclopentyl] ester
> <PUBCHEM_IUPAC_NAME_MARKUP>
[(1<I>R</I>,2<I>R</I>,3<I>R</I>,5<I>R</I>)-5-[5-(2-bromoethenyl)-2,4-dioxopyrimidin-1-yl]-2-hydroxy-3-(hydroxymethyl)cyclopentyl] 2-methoxyacetate
> <PUBCHEM_IUPAC_NAME>
[(1R,2R,3R,5R)-5-[5-(2-bromoethenyl)-2,4-dioxopyrimidin-1-yl]-2-hydroxy-3-(hydroxymethyl)cyclopentyl] 2-methoxyacetate
> <PUBCHEM_IUPAC_SYSTEMATIC_NAME>
[(1R,2R,3R,5R)-5-[5-(2-bromanylethenyl)-2,4-bis(oxidanylidene)pyrimidin-1-yl]-3-(hydroxymethyl)-2-oxidanyl-cyclopentyl] 2-methoxyethanoate
> <PUBCHEM_IUPAC_TRADITIONAL_NAME>
2-methoxyacetic acid [(1R,2R,3R,5R)-5-[5-(2-bromovinyl)-2,4-diketo-pyrimidin-1-yl]-2-hydroxy-3-methylol-cyclopentyl] ester
> <PUBCHEM_IUPAC_INCHI>
InChI=1S/C15H19BrN2O7/c1-24-7-11(20)25-13-10(4-9(6-19)12(13)21)18-5-8(2-3-16)14(22)17-15(18)23/h2-3,5,9-10,12-13,19,21H,4,6-7H2,1H3,(H,17,22,23)/t9-,10-,12-,13-/m1/s1
> <PUBCHEM_IUPAC_INCHIKEY>
LNAWFIXXLKJKGF-FPQZTECRSA-N
> <PUBCHEM_XLOGP3_AA>
-0.1
> <PUBCHEM_EXACT_MASS>
418.03756
> <PUBCHEM_MOLECULAR_FORMULA>
C15H19BrN2O7
> <PUBCHEM_MOLECULAR_WEIGHT>
419.22
> <PUBCHEM_OPENEYE_CAN_SMILES>
COCC(=O)OC1C(CC(C1O)CO)N2C=C(C(=O)NC2=O)C=CBr
> <PUBCHEM_OPENEYE_ISO_SMILES>
COCC(=O)O[C@@H]1[C@@H](C[C@@H]([C@H]1O)CO)N2C=C(C(=O)NC2=O)C=CBr
> <PUBCHEM_CACTVS_TPSA>
125
> <PUBCHEM_MONOISOTOPIC_WEIGHT>
418.03756
> <PUBCHEM_TOTAL_CHARGE>
0
> <PUBCHEM_HEAVY_ATOM_COUNT>
25
> <PUBCHEM_ATOM_DEF_STEREO_COUNT>
4
> <PUBCHEM_ATOM_UDEF_STEREO_COUNT>
0
> <PUBCHEM_BOND_DEF_STEREO_COUNT>
0
> <PUBCHEM_BOND_UDEF_STEREO_COUNT>
1
> <PUBCHEM_ISOTOPIC_ATOM_COUNT>
0
> <PUBCHEM_COMPONENT_COUNT>
1
> <PUBCHEM_CACTVS_TAUTO_COUNT>
-1
> <PUBCHEM_COORDINATE_TYPE>
1
5
255
> <PUBCHEM_BONDANNOTATIONS>
10  18  8
10  21  8
12  16  6
17  20  8
13  2  6
20  21  8
23  24  1
14  3  5
11  9  6
9  17  8
9  18  8
$$$$
