512131
  -OEChem-10302200282D
 35 37  0     1  0  0  0  0  0999 V2000
    2.8660    3.5784    0.0000 S   0  0  0  0  0  0  0  0  0  0  0  0
    4.4026   -0.9869    0.0000 O   0  0  0  0  0  0  0  0  0  0  0  0
    6.7485    0.1050    0.0000 O   0  0  0  0  0  0  0  0  0  0  0  0
    6.7523   -2.0706    0.0000 O   0  0  0  0  0  0  0  0  0  0  0  0
    5.3548   -3.4884    0.0000 O   0  0  0  0  0  0  0  0  0  0  0  0
    4.6783    0.7737    0.0000 N   0  0  0  0  0  0  0  0  0  0  0  0
    2.8660    0.5784    0.0000 N   0  0  0  0  0  0  0  0  0  0  0  0
    2.0000    2.0784    0.0000 N   0  0  0  0  0  0  0  0  0  0  0  0
    4.9889   -0.1768    0.0000 C   0  0  1  0  0  0  0  0  0  0  0  0
    5.9405   -0.4842    0.0000 C   0  0  1  0  0  0  0  0  0  0  0  0
    5.9422   -1.4842    0.0000 C   0  0  1  0  0  0  0  0  0  0  0  0
    4.9917   -1.7949    0.0000 C   0  0  1  0  0  0  0  0  0  0  0  0
    4.6844   -2.7464    0.0000 C   0  0  0  0  0  0  0  0  0  0  0  0
    3.7320    1.0784    0.0000 C   0  0  0  0  0  0  0  0  0  0  0  0
    5.2619    1.5784    0.0000 C   0  0  0  0  0  0  0  0  0  0  0  0
    3.7320    2.0784    0.0000 C   0  0  0  0  0  0  0  0  0  0  0  0
    4.6783    2.3832    0.0000 C   0  0  0  0  0  0  0  0  0  0  0  0
    2.8660    2.5784    0.0000 C   0  0  0  0  0  0  0  0  0  0  0  0
    2.0000    1.0784    0.0000 C   0  0  0  0  0  0  0  0  0  0  0  0
    2.0000    4.0784    0.0000 C   0  0  0  0  0  0  0  0  0  0  0  0
    5.4266    0.2623    0.0000 H   0  0  0  0  0  0  0  0  0  0  0  0
    6.4934   -0.7647    0.0000 H   0  0  0  0  0  0  0  0  0  0  0  0
    6.4942   -1.2018    0.0000 H   0  0  0  0  0  0  0  0  0  0  0  0
    4.3795   -1.8929    0.0000 H   0  0  0  0  0  0  0  0  0  0  0  0
    4.1364   -2.4563    0.0000 H   0  0  0  0  0  0  0  0  0  0  0  0
    4.3035   -3.2357    0.0000 H   0  0  0  0  0  0  0  0  0  0  0  0
    5.8819    1.5784    0.0000 H   0  0  0  0  0  0  0  0  0  0  0  0
    7.3154   -0.1462    0.0000 H   0  0  0  0  0  0  0  0  0  0  0  0
    7.3182   -1.8174    0.0000 H   0  0  0  0  0  0  0  0  0  0  0  0
    4.8709    2.9725    0.0000 H   0  0  0  0  0  0  0  0  0  0  0  0
    5.1642   -4.0784    0.0000 H   0  0  0  0  0  0  0  0  0  0  0  0
    1.4631    0.7684    0.0000 H   0  0  0  0  0  0  0  0  0  0  0  0
    2.3100    4.6154    0.0000 H   0  0  0  0  0  0  0  0  0  0  0  0
    1.4631    4.3884    0.0000 H   0  0  0  0  0  0  0  0  0  0  0  0
    1.6900    3.5415    0.0000 H   0  0  0  0  0  0  0  0  0  0  0  0
  1 18  1  0  0  0  0
  1 20  1  0  0  0  0
  2  9  1  0  0  0  0
  2 12  1  0  0  0  0
 10  3  1  6  0  0  0
  3 28  1  0  0  0  0
 11  4  1  6  0  0  0
  4 29  1  0  0  0  0
  5 13  1  0  0  0  0
  5 31  1  0  0  0  0
  9  6  1  1  0  0  0
  6 14  1  0  0  0  0
  6 15  1  0  0  0  0
  7 14  1  0  0  0  0
  7 19  2  0  0  0  0
  8 18  2  0  0  0  0
  8 19  1  0  0  0  0
  9 10  1  0  0  0  0
  9 21  1  0  0  0  0
 10 11  1  0  0  0  0
 10 22  1  0  0  0  0
 11 12  1  0  0  0  0
 11 23  1  0  0  0  0
 12 13  1  1  0  0  0
 12 24  1  0  0  0  0
 13 25  1  0  0  0  0
 13 26  1  0  0  0  0
 14 16  2  0  0  0  0
 15 17  2  0  0  0  0
 15 27  1  0  0  0  0
 16 17  1  0  0  0  0
 16 18  1  0  0  0  0
 17 30  1  0  0  0  0
 19 32  1  0  0  0  0
 20 33  1  0  0  0  0
 20 34  1  0  0  0  0
 20 35  1  0  0  0  0
M  END
> <PUBCHEM_COMPOUND_CID>
512131
> <PUBCHEM_COMPOUND_CANONICALIZED>
1
> <PUBCHEM_CACTVS_COMPLEXITY>
351
> <PUBCHEM_CACTVS_HBOND_ACCEPTOR>
7
> <PUBCHEM_CACTVS_HBOND_DONOR>
3
> <PUBCHEM_CACTVS_ROTATABLE_BOND>
3
> <PUBCHEM_CACTVS_SUBSKEYS>
AAADccBzOABAAAAAAAAAAAAAAAAAAWJAAAAsAAAAAAAAAFgB+AAAHgQACAAADBTh2wa/sd8MFgigAjJnZACC0ClxCrAJ2DA4ZJiLOMJgyMEORAxPAALTQCDwMAIIAAAAAAAAAAAAAAAAAAAAAAAAAAAAAA==
> <PUBCHEM_IUPAC_OPENEYE_NAME>
(2R,3S,4R,5R)-2-(hydroxymethyl)-5-(4-methylsulfanylpyrrolo[2,3-d]pyrimidin-7-yl)tetrahydrofuran-3,4-diol
> <PUBCHEM_IUPAC_CAS_NAME>
(2R,3S,4R,5R)-2-(hydroxymethyl)-5-[4-(methylthio)-7-pyrrolo[2,3-d]pyrimidinyl]oxolane-3,4-diol
> <PUBCHEM_IUPAC_NAME_MARKUP>
(2<I>R</I>,3<I>S</I>,4<I>R</I>,5<I>R</I>)-2-(hydroxymethyl)-5-(4-methylsulfanylpyrrolo[2,3-d]pyrimidin-7-yl)oxolane-3,4-diol
> <PUBCHEM_IUPAC_NAME>
(2R,3S,4R,5R)-2-(hydroxymethyl)-5-(4-methylsulfanylpyrrolo[2,3-d]pyrimidin-7-yl)oxolane-3,4-diol
> <PUBCHEM_IUPAC_SYSTEMATIC_NAME>
(2R,3S,4R,5R)-2-(hydroxymethyl)-5-(4-methylsulfanylpyrrolo[2,3-d]pyrimidin-7-yl)oxolane-3,4-diol
> <PUBCHEM_IUPAC_TRADITIONAL_NAME>
(2R,3S,4R,5R)-2-methylol-5-[4-(methylthio)pyrrolo[2,3-d]pyrimidin-7-yl]tetrahydrofuran-3,4-diol
> <PUBCHEM_IUPAC_INCHI>
InChI=1S/C12H15N3O4S/c1-20-11-6-2-3-15(10(6)13-5-14-11)12-9(18)8(17)7(4-16)19-12/h2-3,5,7-9,12,16-18H,4H2,1H3/t7-,8-,9-,12-/m1/s1
> <PUBCHEM_IUPAC_INCHIKEY>
ULAFTYMEZPGDOI-MFYTUXHUSA-N
> <PUBCHEM_XLOGP3_AA>
-0.2
> <PUBCHEM_EXACT_MASS>
297.07832714
> <PUBCHEM_MOLECULAR_FORMULA>
C12H15N3O4S
> <PUBCHEM_MOLECULAR_WEIGHT>
297.33
> <PUBCHEM_OPENEYE_CAN_SMILES>
CSC1=NC=NC2=C1C=CN2C3C(C(C(O3)CO)O)O
> <PUBCHEM_OPENEYE_ISO_SMILES>
CSC1=NC=NC2=C1C=CN2[C@H]3[C@@H]([C@@H]([C@H](O3)CO)O)O
> <PUBCHEM_CACTVS_TPSA>
126
> <PUBCHEM_MONOISOTOPIC_WEIGHT>
297.07832714
> <PUBCHEM_TOTAL_CHARGE>
0
> <PUBCHEM_HEAVY_ATOM_COUNT>
20
> <PUBCHEM_ATOM_DEF_STEREO_COUNT>
4
> <PUBCHEM_ATOM_UDEF_STEREO_COUNT>
0
> <PUBCHEM_BOND_DEF_STEREO_COUNT>
0
> <PUBCHEM_BOND_UDEF_STEREO_COUNT>
0
> <PUBCHEM_ISOTOPIC_ATOM_COUNT>
0
> <PUBCHEM_COMPONENT_COUNT>
1
> <PUBCHEM_CACTVS_TAUTO_COUNT>
-1
> <PUBCHEM_COORDINATE_TYPE>
1
5
255
> <PUBCHEM_BONDANNOTATIONS>
12  13  5
14  16  8
15  17  8
16  17  8
16  18  8
10  3  6
11  4  6
6  14  8
6  15  8
9  6  5
7  14  8
7  19  8
8  18  8
8  19  8
$$$$
