512138
  -OEChem-10302200282D
 30 31  0     1  0  0  0  0  0999 V2000
    5.0298   -1.2614    0.0000 O   0  0  0  0  0  0  0  0  0  0  0  0
    3.1330   -3.0214    0.0000 O   0  0  0  0  0  0  0  0  0  0  0  0
    2.4608   -0.9523    0.0000 O   0  0  0  0  0  0  0  0  0  0  0  0
    6.3031   -2.9169    0.0000 O   0  0  0  0  0  0  0  0  0  0  0  0
    6.3031    2.5698    0.0000 O   0  0  0  0  0  0  0  0  0  0  0  0
    4.2208    0.3264    0.0000 N   0  0  0  0  0  0  0  0  0  0  0  0
    5.0298    0.9142    0.0000 N   0  0  0  0  0  0  0  0  0  0  0  0
    3.7208    1.8653    0.0000 N   0  0  0  0  0  0  0  0  0  0  0  0
    3.7208   -2.2124    0.0000 C   0  0  1  0  0  0  0  0  0  0  0  0
    3.4118   -1.2614    0.0000 C   0  0  2  0  0  0  0  0  0  0  0  0
    4.7208   -2.2124    0.0000 C   0  0  1  0  0  0  0  0  0  0  0  0
    4.2208   -0.6736    0.0000 C   0  0  1  0  0  0  0  0  0  0  0  0
    5.3086   -3.0214    0.0000 C   0  0  0  0  0  0  0  0  0  0  0  0
    3.4118    0.9142    0.0000 C   0  0  0  0  0  0  0  0  0  0  0  0
    4.7208    1.8653    0.0000 C   0  0  0  0  0  0  0  0  0  0  0  0
    5.3086    2.6743    0.0000 C   0  0  0  0  0  0  0  0  0  0  0  0
    4.9019    3.5878    0.0000 C   0  0  0  0  0  0  0  0  0  0  0  0
    3.1085   -2.1154    0.0000 H   0  0  0  0  0  0  0  0  0  0  0  0
    3.3148   -0.6490    0.0000 H   0  0  0  0  0  0  0  0  0  0  0  0
    5.3332   -2.1154    0.0000 H   0  0  0  0  0  0  0  0  0  0  0  0
    3.6684   -0.3921    0.0000 H   0  0  0  0  0  0  0  0  0  0  0  0
    4.7514   -3.2932    0.0000 H   0  0  0  0  0  0  0  0  0  0  0  0
    5.4795   -3.6174    0.0000 H   0  0  0  0  0  0  0  0  0  0  0  0
    2.0000   -1.3672    0.0000 H   0  0  0  0  0  0  0  0  0  0  0  0
    3.3852   -3.5878    0.0000 H   0  0  0  0  0  0  0  0  0  0  0  0
    2.8222    0.7226    0.0000 H   0  0  0  0  0  0  0  0  0  0  0  0
    6.6676   -3.4185    0.0000 H   0  0  0  0  0  0  0  0  0  0  0  0
    5.4683    3.8400    0.0000 H   0  0  0  0  0  0  0  0  0  0  0  0
    4.6497    4.1542    0.0000 H   0  0  0  0  0  0  0  0  0  0  0  0
    4.3355    3.3356    0.0000 H   0  0  0  0  0  0  0  0  0  0  0  0
  1 11  1  0  0  0  0
  1 12  1  0  0  0  0
  9  2  1  1  0  0  0
  2 25  1  0  0  0  0
 10  3  1  1  0  0  0
  3 24  1  0  0  0  0
  4 13  1  0  0  0  0
  4 27  1  0  0  0  0
  5 16  2  0  0  0  0
  6  7  1  0  0  0  0
 12  6  1  6  0  0  0
  6 14  1  0  0  0  0
  7 15  2  0  0  0  0
  8 14  2  0  0  0  0
  8 15  1  0  0  0  0
  9 10  1  0  0  0  0
  9 11  1  0  0  0  0
  9 18  1  0  0  0  0
 10 12  1  0  0  0  0
 10 19  1  0  0  0  0
 11 13  1  6  0  0  0
 11 20  1  0  0  0  0
 12 21  1  0  0  0  0
 13 22  1  0  0  0  0
 13 23  1  0  0  0  0
 14 26  1  0  0  0  0
 15 16  1  0  0  0  0
 16 17  1  0  0  0  0
 17 28  1  0  0  0  0
 17 29  1  0  0  0  0
 17 30  1  0  0  0  0
M  END
> <PUBCHEM_COMPOUND_CID>
512138
> <PUBCHEM_COMPOUND_CANONICALIZED>
1
> <PUBCHEM_CACTVS_COMPLEXITY>
302
> <PUBCHEM_CACTVS_HBOND_ACCEPTOR>
7
> <PUBCHEM_CACTVS_HBOND_DONOR>
3
> <PUBCHEM_CACTVS_ROTATABLE_BOND>
3
> <PUBCHEM_CACTVS_SUBSKEYS>
AAADccBzOAAAAAAAAAAAAAAAAAAAAWJAAAAAAAAAAAAAAAABgAAAHgAICAAACBThgwYHEAYIFgAqAIIxJAAQgAsSgKAVQACoAACDGAIAiCAOQAAPCAITAADwMAIAAAAAAAAAAAAAAAAAAAAAAAAAAAAAAA==
> <PUBCHEM_IUPAC_OPENEYE_NAME>
1-[1-[(2R,3R,4S,5R)-3,4-dihydroxy-5-(hydroxymethyl)tetrahydrofuran-2-yl]-1,2,4-triazol-3-yl]ethanone
> <PUBCHEM_IUPAC_CAS_NAME>
1-[1-[(2R,3R,4S,5R)-3,4-dihydroxy-5-(hydroxymethyl)-2-oxolanyl]-1,2,4-triazol-3-yl]ethanone
> <PUBCHEM_IUPAC_NAME_MARKUP>
1-[1-[(2<I>R</I>,3<I>R</I>,4<I>S</I>,5<I>R</I>)-3,4-dihydroxy-5-(hydroxymethyl)oxolan-2-yl]-1,2,4-triazol-3-yl]ethanone
> <PUBCHEM_IUPAC_NAME>
1-[1-[(2R,3R,4S,5R)-3,4-dihydroxy-5-(hydroxymethyl)oxolan-2-yl]-1,2,4-triazol-3-yl]ethanone
> <PUBCHEM_IUPAC_SYSTEMATIC_NAME>
1-[1-[(2R,3R,4S,5R)-5-(hydroxymethyl)-3,4-bis(oxidanyl)oxolan-2-yl]-1,2,4-triazol-3-yl]ethanone
> <PUBCHEM_IUPAC_TRADITIONAL_NAME>
1-[1-[(2R,3R,4S,5R)-3,4-dihydroxy-5-methylol-tetrahydrofuran-2-yl]-1,2,4-triazol-3-yl]ethanone
> <PUBCHEM_IUPAC_INCHI>
InChI=1S/C9H13N3O5/c1-4(14)8-10-3-12(11-8)9-7(16)6(15)5(2-13)17-9/h3,5-7,9,13,15-16H,2H2,1H3/t5-,6-,7-,9-/m1/s1
> <PUBCHEM_IUPAC_INCHIKEY>
WJYMYODOUSNDBA-JXOAFFINSA-N
> <PUBCHEM_XLOGP3>
-1.7
> <PUBCHEM_EXACT_MASS>
243.08552052
> <PUBCHEM_MOLECULAR_FORMULA>
C9H13N3O5
> <PUBCHEM_MOLECULAR_WEIGHT>
243.22
> <PUBCHEM_OPENEYE_CAN_SMILES>
CC(=O)C1=NN(C=N1)C2C(C(C(O2)CO)O)O
> <PUBCHEM_OPENEYE_ISO_SMILES>
CC(=O)C1=NN(C=N1)[C@H]2[C@@H]([C@@H]([C@H](O2)CO)O)O
> <PUBCHEM_CACTVS_TPSA>
118
> <PUBCHEM_MONOISOTOPIC_WEIGHT>
243.08552052
> <PUBCHEM_TOTAL_CHARGE>
0
> <PUBCHEM_HEAVY_ATOM_COUNT>
17
> <PUBCHEM_ATOM_DEF_STEREO_COUNT>
4
> <PUBCHEM_ATOM_UDEF_STEREO_COUNT>
0
> <PUBCHEM_BOND_DEF_STEREO_COUNT>
0
> <PUBCHEM_BOND_UDEF_STEREO_COUNT>
0
> <PUBCHEM_ISOTOPIC_ATOM_COUNT>
0
> <PUBCHEM_COMPONENT_COUNT>
1
> <PUBCHEM_CACTVS_TAUTO_COUNT>
-1
> <PUBCHEM_COORDINATE_TYPE>
1
5
255
> <PUBCHEM_BONDANNOTATIONS>
11  13  6
9  2  5
10  3  5
12  6  6
6  14  8
6  7  8
7  15  8
8  14  8
8  15  8
$$$$
