512180
  -OEChem-10302200282D
 40 41  0     1  0  0  0  0  0999 V2000
    3.7222    3.4920    0.0000 Br  0  0  0  0  0  0  0  0  0  0  0  0
    3.6942    0.2132    0.0000 O   0  0  0  0  0  0  0  0  0  0  0  0
    6.1353   -2.7694    0.0000 O   0  0  0  0  0  0  0  0  0  0  0  0
    7.1863    1.4920    0.0000 O   0  0  0  0  0  0  0  0  0  0  0  0
    3.1590   -1.4341    0.0000 O   0  0  0  0  0  0  0  0  0  0  0  0
    5.4543    4.4920    0.0000 O   0  0  0  0  0  0  0  0  0  0  0  0
    7.7176   -3.4739    0.0000 O   0  0  0  0  0  0  0  0  0  0  0  0
    5.4543    1.4920    0.0000 N   0  0  0  0  0  0  0  0  0  0  0  0
    6.3203    2.9920    0.0000 N   0  0  0  0  0  0  0  0  0  0  0  0
    5.4543    0.4920    0.0000 C   0  0  2  0  0  0  0  0  0  0  0  0
    5.9543   -1.0469    0.0000 C   0  0  1  0  0  0  0  0  0  0  0  0
    6.2633   -0.0958    0.0000 C   0  0  0  0  0  0  0  0  0  0  0  0
    4.6453   -0.0958    0.0000 C   0  0  1  0  0  0  0  0  0  0  0  0
    4.9543   -1.0469    0.0000 C   0  0  0  0  0  0  0  0  0  0  0  0
    6.5421   -1.8559    0.0000 C   0  0  0  0  0  0  0  0  0  0  0  0
    6.3203    1.9920    0.0000 C   0  0  0  0  0  0  0  0  0  0  0  0
    4.5883    1.9920    0.0000 C   0  0  0  0  0  0  0  0  0  0  0  0
    2.9511   -0.4559    0.0000 C   0  0  0  0  0  0  0  0  0  0  0  0
    4.5883    2.9920    0.0000 C   0  0  0  0  0  0  0  0  0  0  0  0
    5.4543    3.4920    0.0000 C   0  0  0  0  0  0  0  0  0  0  0  0
    6.7231   -3.5784    0.0000 C   0  0  0  0  0  0  0  0  0  0  0  0
    2.0000   -0.1469    0.0000 C   0  0  0  0  0  0  0  0  0  0  0  0
    6.3164   -4.4920    0.0000 C   0  0  0  0  0  0  0  0  0  0  0  0
    4.9018    0.7735    0.0000 H   0  0  0  0  0  0  0  0  0  0  0  0
    5.6728   -1.5993    0.0000 H   0  0  0  0  0  0  0  0  0  0  0  0
    6.8297   -0.3480    0.0000 H   0  0  0  0  0  0  0  0  0  0  0  0
    6.5733    0.4411    0.0000 H   0  0  0  0  0  0  0  0  0  0  0  0
    4.5483    0.5166    0.0000 H   0  0  0  0  0  0  0  0  0  0  0  0
    4.3478   -1.1758    0.0000 H   0  0  0  0  0  0  0  0  0  0  0  0
    5.0191   -1.6635    0.0000 H   0  0  0  0  0  0  0  0  0  0  0  0
    7.0561   -2.2026    0.0000 H   0  0  0  0  0  0  0  0  0  0  0  0
    6.9728   -1.4099    0.0000 H   0  0  0  0  0  0  0  0  0  0  0  0
    4.0513    1.6820    0.0000 H   0  0  0  0  0  0  0  0  0  0  0  0
    6.8572    3.3020    0.0000 H   0  0  0  0  0  0  0  0  0  0  0  0
    2.1916    0.4428    0.0000 H   0  0  0  0  0  0  0  0  0  0  0  0
    1.4103    0.0447    0.0000 H   0  0  0  0  0  0  0  0  0  0  0  0
    1.8084   -0.7366    0.0000 H   0  0  0  0  0  0  0  0  0  0  0  0
    5.7500   -4.2398    0.0000 H   0  0  0  0  0  0  0  0  0  0  0  0
    6.0642   -5.0584    0.0000 H   0  0  0  0  0  0  0  0  0  0  0  0
    6.8828   -4.7442    0.0000 H   0  0  0  0  0  0  0  0  0  0  0  0
  1 19  1  0  0  0  0
 13  2  1  1  0  0  0
  2 18  1  0  0  0  0
  3 15  1  0  0  0  0
  3 21  1  0  0  0  0
  4 16  2  0  0  0  0
  5 18  2  0  0  0  0
  6 20  2  0  0  0  0
  7 21  2  0  0  0  0
 10  8  1  6  0  0  0
  8 16  1  0  0  0  0
  8 17  1  0  0  0  0
  9 16  1  0  0  0  0
  9 20  1  0  0  0  0
  9 34  1  0  0  0  0
 10 12  1  0  0  0  0
 10 13  1  0  0  0  0
 10 24  1  0  0  0  0
 11 12  1  0  0  0  0
 11 14  1  0  0  0  0
 11 15  1  6  0  0  0
 11 25  1  0  0  0  0
 12 26  1  0  0  0  0
 12 27  1  0  0  0  0
 13 14  1  0  0  0  0
 13 28  1  0  0  0  0
 14 29  1  0  0  0  0
 14 30  1  0  0  0  0
 15 31  1  0  0  0  0
 15 32  1  0  0  0  0
 17 19  2  0  0  0  0
 17 33  1  0  0  0  0
 18 22  1  0  0  0  0
 19 20  1  0  0  0  0
 21 23  1  0  0  0  0
 22 35  1  0  0  0  0
 22 36  1  0  0  0  0
 22 37  1  0  0  0  0
 23 38  1  0  0  0  0
 23 39  1  0  0  0  0
 23 40  1  0  0  0  0
M  END
> <PUBCHEM_COMPOUND_CID>
512180
> <PUBCHEM_COMPOUND_CANONICALIZED>
1
> <PUBCHEM_CACTVS_COMPLEXITY>
576
> <PUBCHEM_CACTVS_HBOND_ACCEPTOR>
6
> <PUBCHEM_CACTVS_HBOND_DONOR>
1
> <PUBCHEM_CACTVS_ROTATABLE_BOND>
6
> <PUBCHEM_CACTVS_SUBSKEYS>
AAADceBzOAAAEAAAAAAAAAAAAAAAAYAAAAAgAAAAAAAAAAAAAAAAHgBQAAABjTzhgAYDCAPABACIAAHWWACAAAAAAAAAAAAIAECiAAIAgAAHAAAMByIQAMHwcA8OAAAAAAAAAAAAAAAAAAAAAKAAAAgAAA==
> <PUBCHEM_IUPAC_OPENEYE_NAME>
[(1S,3R,4R)-3-acetoxy-4-(5-bromo-2,4-dioxo-pyrimidin-1-yl)cyclopentyl]methyl acetate
> <PUBCHEM_IUPAC_CAS_NAME>
acetic acid [(1S,3R,4R)-3-acetyloxy-4-(5-bromo-2,4-dioxo-1-pyrimidinyl)cyclopentyl]methyl ester
> <PUBCHEM_IUPAC_NAME_MARKUP>
[(1<I>S</I>,3<I>R</I>,4<I>R</I>)-3-acetyloxy-4-(5-bromo-2,4-dioxopyrimidin-1-yl)cyclopentyl]methyl acetate
> <PUBCHEM_IUPAC_NAME>
[(1S,3R,4R)-3-acetyloxy-4-(5-bromo-2,4-dioxopyrimidin-1-yl)cyclopentyl]methyl acetate
> <PUBCHEM_IUPAC_SYSTEMATIC_NAME>
[(1S,3R,4R)-3-acetyloxy-4-[5-bromanyl-2,4-bis(oxidanylidene)pyrimidin-1-yl]cyclopentyl]methyl ethanoate
> <PUBCHEM_IUPAC_TRADITIONAL_NAME>
acetic acid [(1S,3R,4R)-3-acetoxy-4-(5-bromo-2,4-diketo-pyrimidin-1-yl)cyclopentyl]methyl ester
> <PUBCHEM_IUPAC_INCHI>
InChI=1S/C14H17BrN2O6/c1-7(18)22-6-9-3-11(12(4-9)23-8(2)19)17-5-10(15)13(20)16-14(17)21/h5,9,11-12H,3-4,6H2,1-2H3,(H,16,20,21)/t9-,11+,12+/m0/s1
> <PUBCHEM_IUPAC_INCHIKEY>
FYHUGDOHZFPYND-MVWJERBFSA-N
> <PUBCHEM_XLOGP3_AA>
0.8
> <PUBCHEM_EXACT_MASS>
388.02700
> <PUBCHEM_MOLECULAR_FORMULA>
C14H17BrN2O6
> <PUBCHEM_MOLECULAR_WEIGHT>
389.20
> <PUBCHEM_OPENEYE_CAN_SMILES>
CC(=O)OCC1CC(C(C1)OC(=O)C)N2C=C(C(=O)NC2=O)Br
> <PUBCHEM_OPENEYE_ISO_SMILES>
CC(=O)OC[C@H]1C[C@H]([C@@H](C1)OC(=O)C)N2C=C(C(=O)NC2=O)Br
> <PUBCHEM_CACTVS_TPSA>
102
> <PUBCHEM_MONOISOTOPIC_WEIGHT>
388.02700
> <PUBCHEM_TOTAL_CHARGE>
0
> <PUBCHEM_HEAVY_ATOM_COUNT>
23
> <PUBCHEM_ATOM_DEF_STEREO_COUNT>
3
> <PUBCHEM_ATOM_UDEF_STEREO_COUNT>
0
> <PUBCHEM_BOND_DEF_STEREO_COUNT>
0
> <PUBCHEM_BOND_UDEF_STEREO_COUNT>
0
> <PUBCHEM_ISOTOPIC_ATOM_COUNT>
0
> <PUBCHEM_COMPONENT_COUNT>
1
> <PUBCHEM_CACTVS_TAUTO_COUNT>
-1
> <PUBCHEM_COORDINATE_TYPE>
1
5
255
> <PUBCHEM_BONDANNOTATIONS>
11  15  6
17  19  8
19  20  8
13  2  5
10  8  6
8  16  8
8  17  8
9  16  8
9  20  8
$$$$
