512186
  -OEChem-10302200282D
 35 36  0     1  0  0  0  0  0999 V2000
    2.0000    2.4571    0.0000 Br  0  0  0  0  0  0  0  0  0  0  0  0
    3.7040   -0.8216    0.0000 O   0  0  0  0  0  0  0  0  0  0  0  0
    4.3763   -2.8907    0.0000 O   0  0  0  0  0  0  0  0  0  0  0  0
    7.5464   -2.7862    0.0000 O   0  0  0  0  0  0  0  0  0  0  0  0
    7.1962    0.4571    0.0000 O   0  0  0  0  0  0  0  0  0  0  0  0
    5.4641    3.4571    0.0000 O   0  0  0  0  0  0  0  0  0  0  0  0
    5.4641    0.4571    0.0000 N   0  0  0  0  0  0  0  0  0  0  0  0
    6.3301    1.9571    0.0000 N   0  0  0  0  0  0  0  0  0  0  0  0
    5.4641   -0.5429    0.0000 C   0  0  2  0  0  0  0  0  0  0  0  0
    5.9641   -2.0817    0.0000 C   0  0  1  0  0  0  0  0  0  0  0  0
    6.2731   -1.1307    0.0000 C   0  0  0  0  0  0  0  0  0  0  0  0
    4.6551   -1.1307    0.0000 C   0  0  2  0  0  0  0  0  0  0  0  0
    4.9641   -2.0817    0.0000 C   0  0  2  0  0  0  0  0  0  0  0  0
    6.5519   -2.8907    0.0000 C   0  0  0  0  0  0  0  0  0  0  0  0
    4.5981    0.9571    0.0000 C   0  0  0  0  0  0  0  0  0  0  0  0
    6.3301    0.9571    0.0000 C   0  0  0  0  0  0  0  0  0  0  0  0
    4.5981    1.9571    0.0000 C   0  0  0  0  0  0  0  0  0  0  0  0
    5.4641    2.4571    0.0000 C   0  0  0  0  0  0  0  0  0  0  0  0
    3.7320    2.4571    0.0000 C   0  0  0  0  0  0  0  0  0  0  0  0
    2.8660    1.9571    0.0000 C   0  0  0  0  0  0  0  0  0  0  0  0
    6.0165   -0.2614    0.0000 H   0  0  0  0  0  0  0  0  0  0  0  0
    6.5765   -1.9847    0.0000 H   0  0  0  0  0  0  0  0  0  0  0  0
    6.8395   -1.3828    0.0000 H   0  0  0  0  0  0  0  0  0  0  0  0
    6.5831   -0.5937    0.0000 H   0  0  0  0  0  0  0  0  0  0  0  0
    4.2167   -1.5691    0.0000 H   0  0  0  0  0  0  0  0  0  0  0  0
    4.3517   -1.9847    0.0000 H   0  0  0  0  0  0  0  0  0  0  0  0
    5.9946   -3.1625    0.0000 H   0  0  0  0  0  0  0  0  0  0  0  0
    6.7228   -3.4867    0.0000 H   0  0  0  0  0  0  0  0  0  0  0  0
    3.2433   -1.2365    0.0000 H   0  0  0  0  0  0  0  0  0  0  0  0
    4.6285   -3.4571    0.0000 H   0  0  0  0  0  0  0  0  0  0  0  0
    4.0611    0.6471    0.0000 H   0  0  0  0  0  0  0  0  0  0  0  0
    7.9108   -3.2878    0.0000 H   0  0  0  0  0  0  0  0  0  0  0  0
    6.8671    2.2671    0.0000 H   0  0  0  0  0  0  0  0  0  0  0  0
    3.7320    3.0771    0.0000 H   0  0  0  0  0  0  0  0  0  0  0  0
    2.8660    1.3371    0.0000 H   0  0  0  0  0  0  0  0  0  0  0  0
  1 20  1  0  0  0  0
 12  2  1  6  0  0  0
  2 29  1  0  0  0  0
 13  3  1  1  0  0  0
  3 30  1  0  0  0  0
  4 14  1  0  0  0  0
  4 32  1  0  0  0  0
  5 16  2  0  0  0  0
  6 18  2  0  0  0  0
  9  7  1  6  0  0  0
  7 15  1  0  0  0  0
  7 16  1  0  0  0  0
  8 16  1  0  0  0  0
  8 18  1  0  0  0  0
  8 33  1  0  0  0  0
  9 11  1  0  0  0  0
  9 12  1  0  0  0  0
  9 21  1  0  0  0  0
 10 11  1  0  0  0  0
 10 13  1  0  0  0  0
 10 14  1  6  0  0  0
 10 22  1  0  0  0  0
 11 23  1  0  0  0  0
 11 24  1  0  0  0  0
 12 13  1  0  0  0  0
 12 25  1  0  0  0  0
 13 26  1  0  0  0  0
 14 27  1  0  0  0  0
 14 28  1  0  0  0  0
 15 17  2  0  0  0  0
 15 31  1  0  0  0  0
 17 18  1  0  0  0  0
 17 19  1  0  0  0  0
 19 20  2  3  0  0  0
 19 34  1  0  0  0  0
 20 35  1  0  0  0  0
M  END
> <PUBCHEM_COMPOUND_CID>
512186
> <PUBCHEM_COMPOUND_CANONICALIZED>
1
> <PUBCHEM_CACTVS_COMPLEXITY>
479
> <PUBCHEM_CACTVS_HBOND_ACCEPTOR>
5
> <PUBCHEM_CACTVS_HBOND_DONOR>
4
> <PUBCHEM_CACTVS_ROTATABLE_BOND>
3
> <PUBCHEM_CACTVS_SUBSKEYS>
AAADccBzOAAAEAAAAAAAAAAAAAAAAYAAAAAgAAAAAAAAAAAAAAAAHgBQCAABTTzhgAYBAAPAAgCIAiFWUACAAAAgAAAIAAEIAEiLEAIAgQAEQAAPByIRAMHwcAcOAAAAAAAAAAAAAAAAAAAAAKEABCgAAA==
> <PUBCHEM_IUPAC_OPENEYE_NAME>
5-(2-bromovinyl)-1-[(1R,2R,3R,4R)-2,3-dihydroxy-4-(hydroxymethyl)cyclopentyl]pyrimidine-2,4-dione
> <PUBCHEM_IUPAC_CAS_NAME>
5-(2-bromoethenyl)-1-[(1R,2R,3R,4R)-2,3-dihydroxy-4-(hydroxymethyl)cyclopentyl]pyrimidine-2,4-dione
> <PUBCHEM_IUPAC_NAME_MARKUP>
5-(2-bromoethenyl)-1-[(1<I>R</I>,2<I>R</I>,3<I>R</I>,4<I>R</I>)-2,3-dihydroxy-4-(hydroxymethyl)cyclopentyl]pyrimidine-2,4-dione
> <PUBCHEM_IUPAC_NAME>
5-(2-bromoethenyl)-1-[(1R,2R,3R,4R)-2,3-dihydroxy-4-(hydroxymethyl)cyclopentyl]pyrimidine-2,4-dione
> <PUBCHEM_IUPAC_SYSTEMATIC_NAME>
5-(2-bromanylethenyl)-1-[(1R,2R,3R,4R)-4-(hydroxymethyl)-2,3-bis(oxidanyl)cyclopentyl]pyrimidine-2,4-dione
> <PUBCHEM_IUPAC_TRADITIONAL_NAME>
5-(2-bromovinyl)-1-[(1R,2R,3R,4R)-2,3-dihydroxy-4-methylol-cyclopentyl]pyrimidine-2,4-quinone
> <PUBCHEM_IUPAC_INCHI>
InChI=1S/C12H15BrN2O5/c13-2-1-6-4-15(12(20)14-11(6)19)8-3-7(5-16)9(17)10(8)18/h1-2,4,7-10,16-18H,3,5H2,(H,14,19,20)/t7-,8-,9-,10-/m1/s1
> <PUBCHEM_IUPAC_INCHIKEY>
BITYEQLJKLJCLP-ZYUZMQFOSA-N
> <PUBCHEM_XLOGP3_AA>
-0.6
> <PUBCHEM_EXACT_MASS>
346.01643
> <PUBCHEM_MOLECULAR_FORMULA>
C12H15BrN2O5
> <PUBCHEM_MOLECULAR_WEIGHT>
347.16
> <PUBCHEM_OPENEYE_CAN_SMILES>
C1C(C(C(C1N2C=C(C(=O)NC2=O)C=CBr)O)O)CO
> <PUBCHEM_OPENEYE_ISO_SMILES>
C1[C@@H]([C@H]([C@@H]([C@@H]1N2C=C(C(=O)NC2=O)C=CBr)O)O)CO
> <PUBCHEM_CACTVS_TPSA>
110
> <PUBCHEM_MONOISOTOPIC_WEIGHT>
346.01643
> <PUBCHEM_TOTAL_CHARGE>
0
> <PUBCHEM_HEAVY_ATOM_COUNT>
20
> <PUBCHEM_ATOM_DEF_STEREO_COUNT>
4
> <PUBCHEM_ATOM_UDEF_STEREO_COUNT>
0
> <PUBCHEM_BOND_DEF_STEREO_COUNT>
0
> <PUBCHEM_BOND_UDEF_STEREO_COUNT>
1
> <PUBCHEM_ISOTOPIC_ATOM_COUNT>
0
> <PUBCHEM_COMPONENT_COUNT>
1
> <PUBCHEM_CACTVS_TAUTO_COUNT>
-1
> <PUBCHEM_COORDINATE_TYPE>
1
5
255
> <PUBCHEM_BONDANNOTATIONS>
10  14  6
15  17  8
17  18  8
19  20  1
12  2  6
13  3  5
7  15  8
7  16  8
9  7  6
8  16  8
8  18  8
$$$$
