512166
  -OEChem-10302200282D
 32 33  0     1  0  0  0  0  0999 V2000
    3.4030    0.5880    0.0000 O   0  0  0  0  0  0  0  0  0  0  0  0
    5.6350   -3.2780    0.0000 O   0  0  0  0  0  0  0  0  0  0  0  0
    6.8671    0.5880    0.0000 O   0  0  0  0  0  0  0  0  0  0  0  0
    5.1350    3.5880    0.0000 O   0  0  0  0  0  0  0  0  0  0  0  0
    5.1350    0.5880    0.0000 N   0  0  0  0  0  0  0  0  0  0  0  0
    6.0010    2.0880    0.0000 N   0  0  0  0  0  0  0  0  0  0  0  0
    4.2690   -0.9120    0.0000 C   0  0  1  0  0  0  0  0  0  0  0  0
    4.7690   -1.7780    0.0000 C   0  0  1  0  0  0  0  0  0  0  0  0
    3.7690   -1.7780    0.0000 C   0  0  0  0  0  0  0  0  0  0  0  0
    5.1350   -0.4120    0.0000 C   0  0  0  0  0  0  0  0  0  0  0  0
    3.4030   -0.4120    0.0000 C   0  0  0  0  0  0  0  0  0  0  0  0
    5.6350   -2.2780    0.0000 C   0  0  0  0  0  0  0  0  0  0  0  0
    4.2690    1.0880    0.0000 C   0  0  0  0  0  0  0  0  0  0  0  0
    6.0010    1.0880    0.0000 C   0  0  0  0  0  0  0  0  0  0  0  0
    4.2690    2.0880    0.0000 C   0  0  0  0  0  0  0  0  0  0  0  0
    5.1350    2.5880    0.0000 C   0  0  0  0  0  0  0  0  0  0  0  0
    3.4030    2.5880    0.0000 C   0  0  0  0  0  0  0  0  0  0  0  0
    2.5369    3.0880    0.0000 C   0  0  0  0  0  0  0  0  0  0  0  0
    4.6085   -2.3769    0.0000 H   0  0  0  0  0  0  0  0  0  0  0  0
    3.1864   -1.5660    0.0000 H   0  0  0  0  0  0  0  0  0  0  0  0
    3.6613   -2.3886    0.0000 H   0  0  0  0  0  0  0  0  0  0  0  0
    5.3471   -0.9946    0.0000 H   0  0  0  0  0  0  0  0  0  0  0  0
    5.7456   -0.3043    0.0000 H   0  0  0  0  0  0  0  0  0  0  0  0
    2.7924   -0.3043    0.0000 H   0  0  0  0  0  0  0  0  0  0  0  0
    3.1909   -0.9946    0.0000 H   0  0  0  0  0  0  0  0  0  0  0  0
    6.2456   -2.3857    0.0000 H   0  0  0  0  0  0  0  0  0  0  0  0
    5.8471   -1.6954    0.0000 H   0  0  0  0  0  0  0  0  0  0  0  0
    2.8660    0.8980    0.0000 H   0  0  0  0  0  0  0  0  0  0  0  0
    5.0981   -3.5880    0.0000 H   0  0  0  0  0  0  0  0  0  0  0  0
    3.7320    0.7780    0.0000 H   0  0  0  0  0  0  0  0  0  0  0  0
    6.5380    2.3980    0.0000 H   0  0  0  0  0  0  0  0  0  0  0  0
    2.0000    3.3980    0.0000 H   0  0  0  0  0  0  0  0  0  0  0  0
  1 11  1  0  0  0  0
  1 28  1  0  0  0  0
  2 12  1  0  0  0  0
  2 29  1  0  0  0  0
  3 14  2  0  0  0  0
  4 16  2  0  0  0  0
  5 10  1  0  0  0  0
  5 13  1  0  0  0  0
  5 14  1  0  0  0  0
  6 14  1  0  0  0  0
  6 16  1  0  0  0  0
  6 31  1  0  0  0  0
  7  8  1  0  0  0  0
  7  9  1  0  0  0  0
  7 10  1  0  0  0  0
  7 11  1  6  0  0  0
  8  9  1  0  0  0  0
  8 12  1  6  0  0  0
  8 19  1  0  0  0  0
  9 20  1  0  0  0  0
  9 21  1  0  0  0  0
 10 22  1  0  0  0  0
 10 23  1  0  0  0  0
 11 24  1  0  0  0  0
 11 25  1  0  0  0  0
 12 26  1  0  0  0  0
 12 27  1  0  0  0  0
 13 15  2  0  0  0  0
 13 30  1  0  0  0  0
 15 16  1  0  0  0  0
 15 17  1  0  0  0  0
 17 18  3  0  0  0  0
 18 32  1  0  0  0  0
M  END
> <PUBCHEM_COMPOUND_CID>
512166
> <PUBCHEM_COMPOUND_CANONICALIZED>
1
> <PUBCHEM_CACTVS_COMPLEXITY>
476
> <PUBCHEM_CACTVS_HBOND_ACCEPTOR>
4
> <PUBCHEM_CACTVS_HBOND_DONOR>
3
> <PUBCHEM_CACTVS_ROTATABLE_BOND>
5
> <PUBCHEM_CACTVS_SUBSKEYS>
AAADccBzOAAAAAAAAAAAAAAAGAAAAAAAAAAgAAAAAAAAAAAAAAAAHgAQCAAADwDhgAYBAAPAAgDIGgFWUAiAAAAAAAAAAAEIAECAEAIAgAAEQAAOByIAAMDwMAINgAAAAAAAAAAAAAAAAAAAAAAAAAAAAA==
> <PUBCHEM_IUPAC_OPENEYE_NAME>
1-[[(1S,2R)-1,2-bis(hydroxymethyl)cyclopropyl]methyl]-5-ethynyl-pyrimidine-2,4-dione
> <PUBCHEM_IUPAC_CAS_NAME>
1-[[(1S,2R)-1,2-bis(hydroxymethyl)cyclopropyl]methyl]-5-ethynylpyrimidine-2,4-dione
> <PUBCHEM_IUPAC_NAME_MARKUP>
1-[[(1<I>S</I>,2<I>R</I>)-1,2-bis(hydroxymethyl)cyclopropyl]methyl]-5-ethynylpyrimidine-2,4-dione
> <PUBCHEM_IUPAC_NAME>
1-[[(1S,2R)-1,2-bis(hydroxymethyl)cyclopropyl]methyl]-5-ethynylpyrimidine-2,4-dione
> <PUBCHEM_IUPAC_SYSTEMATIC_NAME>
1-[[(1S,2R)-1,2-bis(hydroxymethyl)cyclopropyl]methyl]-5-ethynyl-pyrimidine-2,4-dione
> <PUBCHEM_IUPAC_TRADITIONAL_NAME>
1-[[(1S,2R)-1,2-dimethylolcyclopropyl]methyl]-5-ethynyl-pyrimidine-2,4-quinone
> <PUBCHEM_IUPAC_INCHI>
InChI=1S/C12H14N2O4/c1-2-8-4-14(11(18)13-10(8)17)6-12(7-16)3-9(12)5-15/h1,4,9,15-16H,3,5-7H2,(H,13,17,18)/t9-,12-/m0/s1
> <PUBCHEM_IUPAC_INCHIKEY>
DTSHCWVQXCXVIX-CABZTGNLSA-N
> <PUBCHEM_XLOGP3_AA>
-1.4
> <PUBCHEM_EXACT_MASS>
250.09535693
> <PUBCHEM_MOLECULAR_FORMULA>
C12H14N2O4
> <PUBCHEM_MOLECULAR_WEIGHT>
250.25
> <PUBCHEM_OPENEYE_CAN_SMILES>
C#CC1=CN(C(=O)NC1=O)CC2(CC2CO)CO
> <PUBCHEM_OPENEYE_ISO_SMILES>
C#CC1=CN(C(=O)NC1=O)C[C@@]2(C[C@H]2CO)CO
> <PUBCHEM_CACTVS_TPSA>
89.9
> <PUBCHEM_MONOISOTOPIC_WEIGHT>
250.09535693
> <PUBCHEM_TOTAL_CHARGE>
0
> <PUBCHEM_HEAVY_ATOM_COUNT>
18
> <PUBCHEM_ATOM_DEF_STEREO_COUNT>
2
> <PUBCHEM_ATOM_UDEF_STEREO_COUNT>
0
> <PUBCHEM_BOND_DEF_STEREO_COUNT>
0
> <PUBCHEM_BOND_UDEF_STEREO_COUNT>
0
> <PUBCHEM_ISOTOPIC_ATOM_COUNT>
0
> <PUBCHEM_COMPONENT_COUNT>
1
> <PUBCHEM_CACTVS_TAUTO_COUNT>
-1
> <PUBCHEM_COORDINATE_TYPE>
1
5
255
> <PUBCHEM_BONDANNOTATIONS>
13  15  8
15  16  8
5  13  8
5  14  8
6  14  8
6  16  8
7  11  6
8  12  6
$$$$
