512127
  -OEChem-10302200282D
 31 33  0     1  0  0  0  0  0999 V2000
    2.8660    3.5622    0.0000 Cl  0  0  0  0  0  0  0  0  0  0  0  0
    4.4026   -1.0030    0.0000 O   0  0  0  0  0  0  0  0  0  0  0  0
    6.7485    0.0888    0.0000 O   0  0  0  0  0  0  0  0  0  0  0  0
    6.7523   -2.0868    0.0000 O   0  0  0  0  0  0  0  0  0  0  0  0
    3.7066   -2.9722    0.0000 O   0  0  0  0  0  0  0  0  0  0  0  0
    4.6783    0.7575    0.0000 N   0  0  0  0  0  0  0  0  0  0  0  0
    2.8660    0.5622    0.0000 N   0  0  0  0  0  0  0  0  0  0  0  0
    2.0000    2.0622    0.0000 N   0  0  0  0  0  0  0  0  0  0  0  0
    4.9889   -0.1930    0.0000 C   0  0  1  0  0  0  0  0  0  0  0  0
    5.9405   -0.5004    0.0000 C   0  0  1  0  0  0  0  0  0  0  0  0
    5.9422   -1.5004    0.0000 C   0  0  1  0  0  0  0  0  0  0  0  0
    4.9917   -1.8110    0.0000 C   0  0  1  0  0  0  0  0  0  0  0  0
    4.6844   -2.7626    0.0000 C   0  0  0  0  0  0  0  0  0  0  0  0
    3.7320    1.0622    0.0000 C   0  0  0  0  0  0  0  0  0  0  0  0
    5.2619    1.5622    0.0000 C   0  0  0  0  0  0  0  0  0  0  0  0
    3.7320    2.0622    0.0000 C   0  0  0  0  0  0  0  0  0  0  0  0
    4.6783    2.3670    0.0000 C   0  0  0  0  0  0  0  0  0  0  0  0
    2.8660    2.5622    0.0000 C   0  0  0  0  0  0  0  0  0  0  0  0
    2.0000    1.0622    0.0000 C   0  0  0  0  0  0  0  0  0  0  0  0
    5.4266    0.2461    0.0000 H   0  0  0  0  0  0  0  0  0  0  0  0
    6.4934   -0.7809    0.0000 H   0  0  0  0  0  0  0  0  0  0  0  0
    5.8463   -2.1129    0.0000 H   0  0  0  0  0  0  0  0  0  0  0  0
    4.3795   -1.9091    0.0000 H   0  0  0  0  0  0  0  0  0  0  0  0
    4.7071   -3.3822    0.0000 H   0  0  0  0  0  0  0  0  0  0  0  0
    5.2985   -2.8479    0.0000 H   0  0  0  0  0  0  0  0  0  0  0  0
    5.8819    1.5622    0.0000 H   0  0  0  0  0  0  0  0  0  0  0  0
    7.3154   -0.1624    0.0000 H   0  0  0  0  0  0  0  0  0  0  0  0
    6.6886   -2.7035    0.0000 H   0  0  0  0  0  0  0  0  0  0  0  0
    4.8709    2.9563    0.0000 H   0  0  0  0  0  0  0  0  0  0  0  0
    3.5160   -3.5622    0.0000 H   0  0  0  0  0  0  0  0  0  0  0  0
    1.4631    0.7522    0.0000 H   0  0  0  0  0  0  0  0  0  0  0  0
  1 18  1  0  0  0  0
  2  9  1  0  0  0  0
  2 12  1  0  0  0  0
 10  3  1  6  0  0  0
  3 27  1  0  0  0  0
 11  4  1  6  0  0  0
  4 28  1  0  0  0  0
  5 13  1  0  0  0  0
  5 30  1  0  0  0  0
  9  6  1  1  0  0  0
  6 14  1  0  0  0  0
  6 15  1  0  0  0  0
  7 14  1  0  0  0  0
  7 19  2  0  0  0  0
  8 18  2  0  0  0  0
  8 19  1  0  0  0  0
  9 10  1  0  0  0  0
  9 20  1  0  0  0  0
 10 11  1  0  0  0  0
 10 21  1  0  0  0  0
 11 12  1  0  0  0  0
 11 22  1  0  0  0  0
 12 13  1  1  0  0  0
 12 23  1  0  0  0  0
 13 24  1  0  0  0  0
 13 25  1  0  0  0  0
 14 16  2  0  0  0  0
 15 17  2  0  0  0  0
 15 26  1  0  0  0  0
 16 17  1  0  0  0  0
 16 18  1  0  0  0  0
 17 29  1  0  0  0  0
 19 31  1  0  0  0  0
M  END
> <PUBCHEM_COMPOUND_CID>
512127
> <PUBCHEM_COMPOUND_CANONICALIZED>
1
> <PUBCHEM_CACTVS_COMPLEXITY>
337
> <PUBCHEM_CACTVS_HBOND_ACCEPTOR>
6
> <PUBCHEM_CACTVS_HBOND_DONOR>
3
> <PUBCHEM_CACTVS_ROTATABLE_BOND>
2
> <PUBCHEM_CACTVS_SUBSKEYS>
AAADccBzOAAEAAAAAAAAAAAAAAAAAWJAAAAsAAAAAAAAAFgB+AAAHgIACAAADBbhmyY9sN8MFgCgAjJnZACCgCkxBqAJ2CA4ZpiLOMJBysEORAhPAALTQCDwMAIIAAAAAAAAAAAAAAAAAAAAAAAAAAAAAA==
> <PUBCHEM_IUPAC_OPENEYE_NAME>
(2R,3R,4S,5R)-2-(4-chloropyrrolo[2,3-d]pyrimidin-7-yl)-5-(hydroxymethyl)tetrahydrofuran-3,4-diol
> <PUBCHEM_IUPAC_CAS_NAME>
(2R,3R,4S,5R)-2-(4-chloro-7-pyrrolo[2,3-d]pyrimidinyl)-5-(hydroxymethyl)oxolane-3,4-diol
> <PUBCHEM_IUPAC_NAME_MARKUP>
(2<I>R</I>,3<I>R</I>,4<I>S</I>,5<I>R</I>)-2-(4-chloropyrrolo[2,3-d]pyrimidin-7-yl)-5-(hydroxymethyl)oxolane-3,4-diol
> <PUBCHEM_IUPAC_NAME>
(2R,3R,4S,5R)-2-(4-chloropyrrolo[2,3-d]pyrimidin-7-yl)-5-(hydroxymethyl)oxolane-3,4-diol
> <PUBCHEM_IUPAC_SYSTEMATIC_NAME>
(2R,3R,4S,5R)-2-(4-chloranylpyrrolo[2,3-d]pyrimidin-7-yl)-5-(hydroxymethyl)oxolane-3,4-diol
> <PUBCHEM_IUPAC_TRADITIONAL_NAME>
(2R,3R,4S,5R)-2-(4-chloropyrrolo[2,3-d]pyrimidin-7-yl)-5-methylol-tetrahydrofuran-3,4-diol
> <PUBCHEM_IUPAC_INCHI>
InChI=1S/C11H12ClN3O4/c12-9-5-1-2-15(10(5)14-4-13-9)11-8(18)7(17)6(3-16)19-11/h1-2,4,6-8,11,16-18H,3H2/t6-,7-,8-,11-/m1/s1
> <PUBCHEM_IUPAC_INCHIKEY>
BFDDOTZWMOKUCD-KCGFPETGSA-N
> <PUBCHEM_XLOGP3_AA>
0
> <PUBCHEM_EXACT_MASS>
285.0516336
> <PUBCHEM_MOLECULAR_FORMULA>
C11H12ClN3O4
> <PUBCHEM_MOLECULAR_WEIGHT>
285.68
> <PUBCHEM_OPENEYE_CAN_SMILES>
C1=CN(C2=C1C(=NC=N2)Cl)C3C(C(C(O3)CO)O)O
> <PUBCHEM_OPENEYE_ISO_SMILES>
C1=CN(C2=C1C(=NC=N2)Cl)[C@H]3[C@@H]([C@@H]([C@H](O3)CO)O)O
> <PUBCHEM_CACTVS_TPSA>
101
> <PUBCHEM_MONOISOTOPIC_WEIGHT>
285.0516336
> <PUBCHEM_TOTAL_CHARGE>
0
> <PUBCHEM_HEAVY_ATOM_COUNT>
19
> <PUBCHEM_ATOM_DEF_STEREO_COUNT>
4
> <PUBCHEM_ATOM_UDEF_STEREO_COUNT>
0
> <PUBCHEM_BOND_DEF_STEREO_COUNT>
0
> <PUBCHEM_BOND_UDEF_STEREO_COUNT>
0
> <PUBCHEM_ISOTOPIC_ATOM_COUNT>
0
> <PUBCHEM_COMPONENT_COUNT>
1
> <PUBCHEM_CACTVS_TAUTO_COUNT>
-1
> <PUBCHEM_COORDINATE_TYPE>
1
5
255
> <PUBCHEM_BONDANNOTATIONS>
12  13  5
14  16  8
15  17  8
16  17  8
16  18  8
10  3  6
11  4  6
6  14  8
6  15  8
9  6  5
7  14  8
7  19  8
8  18  8
8  19  8
$$$$
