512185
  -OEChem-10302200282D
 46 48  0     1  0  0  0  0  0999 V2000
    5.3122   -0.8216    0.0000 O   0  0  0  0  0  0  0  0  0  0  0  0
    5.9845   -2.8907    0.0000 O   0  0  0  0  0  0  0  0  0  0  0  0
    9.1546   -2.7862    0.0000 O   0  0  0  0  0  0  0  0  0  0  0  0
    8.8044    0.4571    0.0000 O   0  0  0  0  0  0  0  0  0  0  0  0
    7.0723    3.4571    0.0000 O   0  0  0  0  0  0  0  0  0  0  0  0
    7.0723    0.4571    0.0000 N   0  0  0  0  0  0  0  0  0  0  0  0
    7.9383    1.9571    0.0000 N   0  0  0  0  0  0  0  0  0  0  0  0
    7.0723   -0.5429    0.0000 C   0  0  1  0  0  0  0  0  0  0  0  0
    7.5723   -2.0817    0.0000 C   0  0  2  0  0  0  0  0  0  0  0  0
    6.2633   -1.1307    0.0000 C   0  0  2  0  0  0  0  0  0  0  0  0
    6.5723   -2.0817    0.0000 C   0  0  2  0  0  0  0  0  0  0  0  0
    7.8813   -1.1307    0.0000 C   0  0  0  0  0  0  0  0  0  0  0  0
    8.1601   -2.8907    0.0000 C   0  0  0  0  0  0  0  0  0  0  0  0
    4.5691   -1.4908    0.0000 C   0  0  0  0  0  0  0  0  0  0  0  0
    6.2063    0.9571    0.0000 C   0  0  0  0  0  0  0  0  0  0  0  0
    7.9383    0.9571    0.0000 C   0  0  0  0  0  0  0  0  0  0  0  0
    3.6180   -1.1818    0.0000 C   0  0  0  0  0  0  0  0  0  0  0  0
    6.2063    1.9571    0.0000 C   0  0  0  0  0  0  0  0  0  0  0  0
    7.0723    2.4571    0.0000 C   0  0  0  0  0  0  0  0  0  0  0  0
    2.8090   -1.7695    0.0000 C   0  0  0  0  0  0  0  0  0  0  0  0
    3.3090   -0.2307    0.0000 C   0  0  0  0  0  0  0  0  0  0  0  0
    5.3403    2.4571    0.0000 C   0  0  0  0  0  0  0  0  0  0  0  0
    2.0000   -1.1818    0.0000 C   0  0  0  0  0  0  0  0  0  0  0  0
    2.3090   -0.2307    0.0000 C   0  0  0  0  0  0  0  0  0  0  0  0
    7.6247   -0.2614    0.0000 H   0  0  0  0  0  0  0  0  0  0  0  0
    8.1847   -1.9847    0.0000 H   0  0  0  0  0  0  0  0  0  0  0  0
    5.8249   -1.5691    0.0000 H   0  0  0  0  0  0  0  0  0  0  0  0
    5.9599   -1.9847    0.0000 H   0  0  0  0  0  0  0  0  0  0  0  0
    8.4477   -1.3828    0.0000 H   0  0  0  0  0  0  0  0  0  0  0  0
    8.1913   -0.5937    0.0000 H   0  0  0  0  0  0  0  0  0  0  0  0
    7.6028   -3.1625    0.0000 H   0  0  0  0  0  0  0  0  0  0  0  0
    8.3310   -3.4867    0.0000 H   0  0  0  0  0  0  0  0  0  0  0  0
    6.2367   -3.4571    0.0000 H   0  0  0  0  0  0  0  0  0  0  0  0
    4.2780   -2.0382    0.0000 H   0  0  0  0  0  0  0  0  0  0  0  0
    5.0577   -1.8725    0.0000 H   0  0  0  0  0  0  0  0  0  0  0  0
    5.6694    0.6471    0.0000 H   0  0  0  0  0  0  0  0  0  0  0  0
    3.7150   -1.7941    0.0000 H   0  0  0  0  0  0  0  0  0  0  0  0
    9.5190   -3.2878    0.0000 H   0  0  0  0  0  0  0  0  0  0  0  0
    8.4753    2.2671    0.0000 H   0  0  0  0  0  0  0  0  0  0  0  0
    2.8090   -2.3895    0.0000 H   0  0  0  0  0  0  0  0  0  0  0  0
    3.6734    0.2709    0.0000 H   0  0  0  0  0  0  0  0  0  0  0  0
    5.6503    2.9941    0.0000 H   0  0  0  0  0  0  0  0  0  0  0  0
    4.8033    2.7671    0.0000 H   0  0  0  0  0  0  0  0  0  0  0  0
    5.0303    1.9202    0.0000 H   0  0  0  0  0  0  0  0  0  0  0  0
    1.4103   -1.3733    0.0000 H   0  0  0  0  0  0  0  0  0  0  0  0
    1.9446    0.2709    0.0000 H   0  0  0  0  0  0  0  0  0  0  0  0
 10  1  1  6  0  0  0
  1 14  1  0  0  0  0
 11  2  1  1  0  0  0
  2 33  1  0  0  0  0
  3 13  1  0  0  0  0
  3 38  1  0  0  0  0
  4 16  2  0  0  0  0
  5 19  2  0  0  0  0
  8  6  1  6  0  0  0
  6 15  1  0  0  0  0
  6 16  1  0  0  0  0
  7 16  1  0  0  0  0
  7 19  1  0  0  0  0
  7 39  1  0  0  0  0
  8 10  1  0  0  0  0
  8 12  1  0  0  0  0
  8 25  1  0  0  0  0
  9 11  1  0  0  0  0
  9 12  1  0  0  0  0
  9 13  1  6  0  0  0
  9 26  1  0  0  0  0
 10 11  1  0  0  0  0
 10 27  1  0  0  0  0
 11 28  1  0  0  0  0
 12 29  1  0  0  0  0
 12 30  1  0  0  0  0
 13 31  1  0  0  0  0
 13 32  1  0  0  0  0
 14 17  1  0  0  0  0
 14 34  1  0  0  0  0
 14 35  1  0  0  0  0
 15 18  2  0  0  0  0
 15 36  1  0  0  0  0
 17 20  1  0  0  0  0
 17 21  1  0  0  0  0
 17 37  1  0  0  0  0
 18 19  1  0  0  0  0
 18 22  1  0  0  0  0
 20 23  2  0  0  0  0
 20 40  1  0  0  0  0
 21 24  2  0  0  0  0
 21 41  1  0  0  0  0
 22 42  1  0  0  0  0
 22 43  1  0  0  0  0
 22 44  1  0  0  0  0
 23 24  1  0  0  0  0
 23 45  1  0  0  0  0
 24 46  1  0  0  0  0
M  END
> <PUBCHEM_COMPOUND_CID>
512185
> <PUBCHEM_COMPOUND_CANONICALIZED>
1
> <PUBCHEM_CACTVS_COMPLEXITY>
600
> <PUBCHEM_CACTVS_HBOND_ACCEPTOR>
5
> <PUBCHEM_CACTVS_HBOND_DONOR>
3
> <PUBCHEM_CACTVS_ROTATABLE_BOND>
5
> <PUBCHEM_CACTVS_SUBSKEYS>
AAADceB7OAAAAAAAAAAAAAAAAAAAAYIAAAAgAAAAAAAAAAAAAAAAHgAQCAAADTzhgAYDAAPABgCIAiFWUACAAAAgAAAICAEIAEiLEAIAgQAHQAAPRyIbgMPwcA8OAAAAAAAAAAAAAAAAAAAAAKEABCgAAA==
> <PUBCHEM_IUPAC_OPENEYE_NAME>
1-[(1R,2R,3R,4R)-2-(cyclopenta-2,4-dien-1-ylmethoxy)-3-hydroxy-4-(hydroxymethyl)cyclopentyl]-5-methyl-pyrimidine-2,4-dione
> <PUBCHEM_IUPAC_CAS_NAME>
1-[(1R,2R,3R,4R)-2-(1-cyclopenta-2,4-dienylmethoxy)-3-hydroxy-4-(hydroxymethyl)cyclopentyl]-5-methylpyrimidine-2,4-dione
> <PUBCHEM_IUPAC_NAME_MARKUP>
1-[(1<I>R</I>,2<I>R</I>,3<I>R</I>,4<I>R</I>)-2-(cyclopenta-2,4-dien-1-ylmethoxy)-3-hydroxy-4-(hydroxymethyl)cyclopentyl]-5-methylpyrimidine-2,4-dione
> <PUBCHEM_IUPAC_NAME>
1-[(1R,2R,3R,4R)-2-(cyclopenta-2,4-dien-1-ylmethoxy)-3-hydroxy-4-(hydroxymethyl)cyclopentyl]-5-methylpyrimidine-2,4-dione
> <PUBCHEM_IUPAC_SYSTEMATIC_NAME>
1-[(1R,2R,3R,4R)-2-(cyclopenta-2,4-dien-1-ylmethoxy)-4-(hydroxymethyl)-3-oxidanyl-cyclopentyl]-5-methyl-pyrimidine-2,4-dione
> <PUBCHEM_IUPAC_TRADITIONAL_NAME>
1-[(1R,2R,3R,4R)-2-(cyclopenta-2,4-dien-1-ylmethoxy)-3-hydroxy-4-methylol-cyclopentyl]-5-methyl-pyrimidine-2,4-quinone
> <PUBCHEM_IUPAC_INCHI>
InChI=1S/C17H22N2O5/c1-10-7-19(17(23)18-16(10)22)13-6-12(8-20)14(21)15(13)24-9-11-4-2-3-5-11/h2-5,7,11-15,20-21H,6,8-9H2,1H3,(H,18,22,23)/t12-,13-,14-,15-/m1/s1
> <PUBCHEM_IUPAC_INCHIKEY>
ZHLNHZMVEADCFN-KBUPBQIOSA-N
> <PUBCHEM_XLOGP3_AA>
0.6
> <PUBCHEM_EXACT_MASS>
334.15287181
> <PUBCHEM_MOLECULAR_FORMULA>
C17H22N2O5
> <PUBCHEM_MOLECULAR_WEIGHT>
334.4
> <PUBCHEM_OPENEYE_CAN_SMILES>
CC1=CN(C(=O)NC1=O)C2CC(C(C2OCC3C=CC=C3)O)CO
> <PUBCHEM_OPENEYE_ISO_SMILES>
CC1=CN(C(=O)NC1=O)[C@@H]2C[C@@H]([C@H]([C@@H]2OCC3C=CC=C3)O)CO
> <PUBCHEM_CACTVS_TPSA>
99.1
> <PUBCHEM_MONOISOTOPIC_WEIGHT>
334.15287181
> <PUBCHEM_TOTAL_CHARGE>
0
> <PUBCHEM_HEAVY_ATOM_COUNT>
24
> <PUBCHEM_ATOM_DEF_STEREO_COUNT>
4
> <PUBCHEM_ATOM_UDEF_STEREO_COUNT>
0
> <PUBCHEM_BOND_DEF_STEREO_COUNT>
0
> <PUBCHEM_BOND_UDEF_STEREO_COUNT>
0
> <PUBCHEM_ISOTOPIC_ATOM_COUNT>
0
> <PUBCHEM_COMPONENT_COUNT>
1
> <PUBCHEM_CACTVS_TAUTO_COUNT>
-1
> <PUBCHEM_COORDINATE_TYPE>
1
5
255
> <PUBCHEM_BONDANNOTATIONS>
10  1  6
15  18  8
18  19  8
11  2  5
6  15  8
6  16  8
8  6  6
7  16  8
7  19  8
9  13  6
$$$$
