512132
  -OEChem-10302200282D
 49 51  0     1  0  0  0  0  0999 V2000
    2.9620    3.7592    0.0000 S   0  0  0  0  0  0  0  0  0  0  0  0
    6.0365   -0.3034    0.0000 O   0  0  0  0  0  0  0  0  0  0  0  0
    3.4985   -0.8078    0.0000 O   0  0  0  0  0  0  0  0  0  0  0  0
    4.7803   -2.5657    0.0000 O   0  0  0  0  0  0  0  0  0  0  0  0
    7.7611   -1.4815    0.0000 O   0  0  0  0  0  0  0  0  0  0  0  0
    3.5015   -2.5398    0.0000 O   0  0  0  0  0  0  0  0  0  0  0  0
    6.4285   -3.0980    0.0000 O   0  0  0  0  0  0  0  0  0  0  0  0
    8.4683   -3.0626    0.0000 O   0  0  0  0  0  0  0  0  0  0  0  0
    4.7742    0.9545    0.0000 N   0  0  0  0  0  0  0  0  0  0  0  0
    5.3578    1.7592    0.0000 N   0  0  0  0  0  0  0  0  0  0  0  0
    2.9620    0.7592    0.0000 N   0  0  0  0  0  0  0  0  0  0  0  0
    2.0960    2.2592    0.0000 N   0  0  0  0  0  0  0  0  0  0  0  0
    4.4985   -0.8061    0.0000 C   0  0  2  0  0  0  0  0  0  0  0  0
    5.0877   -1.6141    0.0000 C   0  0  1  0  0  0  0  0  0  0  0  0
    5.0849    0.0040    0.0000 C   0  0  1  0  0  0  0  0  0  0  0  0
    6.0382   -1.3034    0.0000 C   0  0  1  0  0  0  0  0  0  0  0  0
    6.8482   -1.8898    0.0000 C   0  0  0  0  0  0  0  0  0  0  0  0
    3.8280    1.2592    0.0000 C   0  0  0  0  0  0  0  0  0  0  0  0
    3.8280    2.2592    0.0000 C   0  0  0  0  0  0  0  0  0  0  0  0
    4.7742    2.5640    0.0000 C   0  0  0  0  0  0  0  0  0  0  0  0
    3.0000   -1.6747    0.0000 C   0  0  0  0  0  0  0  0  0  0  0  0
    5.4507   -3.3076    0.0000 C   0  0  0  0  0  0  0  0  0  0  0  0
    2.9620    2.7592    0.0000 C   0  0  0  0  0  0  0  0  0  0  0  0
    8.5711   -2.0678    0.0000 C   0  0  0  0  0  0  0  0  0  0  0  0
    2.0000   -1.6764    0.0000 C   0  0  0  0  0  0  0  0  0  0  0  0
    5.1434   -4.2592    0.0000 C   0  0  0  0  0  0  0  0  0  0  0  0
    2.0960    1.2592    0.0000 C   0  0  0  0  0  0  0  0  0  0  0  0
    9.4840   -1.6595    0.0000 C   0  0  0  0  0  0  0  0  0  0  0  0
    2.0960    4.2592    0.0000 C   0  0  0  0  0  0  0  0  0  0  0  0
    4.2161   -0.2541    0.0000 H   0  0  0  0  0  0  0  0  0  0  0  0
    4.4755   -1.7121    0.0000 H   0  0  0  0  0  0  0  0  0  0  0  0
    4.4723    0.0999    0.0000 H   0  0  0  0  0  0  0  0  0  0  0  0
    6.5901   -1.0210    0.0000 H   0  0  0  0  0  0  0  0  0  0  0  0
    6.4030   -2.3212    0.0000 H   0  0  0  0  0  0  0  0  0  0  0  0
    7.1958   -2.4032    0.0000 H   0  0  0  0  0  0  0  0  0  0  0  0
    4.9668    3.1533    0.0000 H   0  0  0  0  0  0  0  0  0  0  0  0
    1.9989   -1.0564    0.0000 H   0  0  0  0  0  0  0  0  0  0  0  0
    1.3800   -1.6775    0.0000 H   0  0  0  0  0  0  0  0  0  0  0  0
    2.0011   -2.2964    0.0000 H   0  0  0  0  0  0  0  0  0  0  0  0
    4.5534   -4.0687    0.0000 H   0  0  0  0  0  0  0  0  0  0  0  0
    4.9528   -4.8492    0.0000 H   0  0  0  0  0  0  0  0  0  0  0  0
    5.7333   -4.4498    0.0000 H   0  0  0  0  0  0  0  0  0  0  0  0
    1.5590    0.9492    0.0000 H   0  0  0  0  0  0  0  0  0  0  0  0
    9.7371   -2.2255    0.0000 H   0  0  0  0  0  0  0  0  0  0  0  0
   10.0499   -1.4064    0.0000 H   0  0  0  0  0  0  0  0  0  0  0  0
    9.2308   -1.0936    0.0000 H   0  0  0  0  0  0  0  0  0  0  0  0
    2.4059    4.7962    0.0000 H   0  0  0  0  0  0  0  0  0  0  0  0
    1.5590    4.5692    0.0000 H   0  0  0  0  0  0  0  0  0  0  0  0
    1.7860    3.7223    0.0000 H   0  0  0  0  0  0  0  0  0  0  0  0
  1 23  1  0  0  0  0
  1 29  1  0  0  0  0
  2 15  1  0  0  0  0
  2 16  1  0  0  0  0
 13  3  1  1  0  0  0
  3 21  1  0  0  0  0
 14  4  1  1  0  0  0
  4 22  1  0  0  0  0
  5 17  1  0  0  0  0
  5 24  1  0  0  0  0
  6 21  2  0  0  0  0
  7 22  2  0  0  0  0
  8 24  2  0  0  0  0
  9 10  1  0  0  0  0
 15  9  1  6  0  0  0
  9 18  1  0  0  0  0
 10 20  2  0  0  0  0
 11 18  1  0  0  0  0
 11 27  2  0  0  0  0
 12 23  2  0  0  0  0
 12 27  1  0  0  0  0
 13 14  1  0  0  0  0
 13 15  1  0  0  0  0
 13 30  1  0  0  0  0
 14 16  1  0  0  0  0
 14 31  1  0  0  0  0
 15 32  1  0  0  0  0
 16 17  1  6  0  0  0
 16 33  1  0  0  0  0
 17 34  1  0  0  0  0
 17 35  1  0  0  0  0
 18 19  2  0  0  0  0
 19 20  1  0  0  0  0
 19 23  1  0  0  0  0
 20 36  1  0  0  0  0
 21 25  1  0  0  0  0
 22 26  1  0  0  0  0
 24 28  1  0  0  0  0
 25 37  1  0  0  0  0
 25 38  1  0  0  0  0
 25 39  1  0  0  0  0
 26 40  1  0  0  0  0
 26 41  1  0  0  0  0
 26 42  1  0  0  0  0
 27 43  1  0  0  0  0
 28 44  1  0  0  0  0
 28 45  1  0  0  0  0
 28 46  1  0  0  0  0
 29 47  1  0  0  0  0
 29 48  1  0  0  0  0
 29 49  1  0  0  0  0
M  END
> <PUBCHEM_COMPOUND_CID>
512132
> <PUBCHEM_COMPOUND_CANONICALIZED>
1
> <PUBCHEM_CACTVS_COMPLEXITY>
639
> <PUBCHEM_CACTVS_HBOND_ACCEPTOR>
11
> <PUBCHEM_CACTVS_HBOND_DONOR>
0
> <PUBCHEM_CACTVS_ROTATABLE_BOND>
9
> <PUBCHEM_CACTVS_SUBSKEYS>
AAADceB7uABAAAAAAAAAAAAAAAAAAWJAAAAsAAAAAAAAAFgB+AAAHgQIAAAADBTh2wavud4IFAiqAhL3bACQ1CtRiLAVUDAoRBCDCIJgyEAPhAwPCALSACDwMAoAAAAAAAAAAAAAAAAAAAAAAAAAAAAAAA==
> <PUBCHEM_IUPAC_OPENEYE_NAME>
[(2R,3R,4R,5R)-3,4-diacetoxy-5-(4-methylsulfanylpyrazolo[3,4-d]pyrimidin-1-yl)tetrahydrofuran-2-yl]methyl acetate
> <PUBCHEM_IUPAC_CAS_NAME>
acetic acid [(2R,3R,4R,5R)-3,4-diacetyloxy-5-[4-(methylthio)-1-pyrazolo[3,4-d]pyrimidinyl]-2-oxolanyl]methyl ester
> <PUBCHEM_IUPAC_NAME_MARKUP>
[(2<I>R</I>,3<I>R</I>,4<I>R</I>,5<I>R</I>)-3,4-diacetyloxy-5-(4-methylsulfanylpyrazolo[3,4-d]pyrimidin-1-yl)oxolan-2-yl]methyl acetate
> <PUBCHEM_IUPAC_NAME>
[(2R,3R,4R,5R)-3,4-diacetyloxy-5-(4-methylsulfanylpyrazolo[3,4-d]pyrimidin-1-yl)oxolan-2-yl]methyl acetate
> <PUBCHEM_IUPAC_SYSTEMATIC_NAME>
[(2R,3R,4R,5R)-3,4-diacetyloxy-5-(4-methylsulfanylpyrazolo[3,4-d]pyrimidin-1-yl)oxolan-2-yl]methyl ethanoate
> <PUBCHEM_IUPAC_TRADITIONAL_NAME>
acetic acid [(2R,3R,4R,5R)-3,4-diacetoxy-5-[4-(methylthio)pyrazolo[3,4-d]pyrimidin-1-yl]tetrahydrofuran-2-yl]methyl ester
> <PUBCHEM_IUPAC_INCHI>
InChI=1S/C17H20N4O7S/c1-8(22)25-6-12-13(26-9(2)23)14(27-10(3)24)17(28-12)21-15-11(5-20-21)16(29-4)19-7-18-15/h5,7,12-14,17H,6H2,1-4H3/t12-,13-,14-,17-/m1/s1
> <PUBCHEM_IUPAC_INCHIKEY>
DVJOJOOPGQSVDP-VMUDFCTBSA-N
> <PUBCHEM_XLOGP3_AA>
0.6
> <PUBCHEM_EXACT_MASS>
424.10527016
> <PUBCHEM_MOLECULAR_FORMULA>
C17H20N4O7S
> <PUBCHEM_MOLECULAR_WEIGHT>
424.4
> <PUBCHEM_OPENEYE_CAN_SMILES>
CC(=O)OCC1C(C(C(O1)N2C3=C(C=N2)C(=NC=N3)SC)OC(=O)C)OC(=O)C
> <PUBCHEM_OPENEYE_ISO_SMILES>
CC(=O)OC[C@@H]1[C@H]([C@H]([C@@H](O1)N2C3=C(C=N2)C(=NC=N3)SC)OC(=O)C)OC(=O)C
> <PUBCHEM_CACTVS_TPSA>
157
> <PUBCHEM_MONOISOTOPIC_WEIGHT>
424.10527016
> <PUBCHEM_TOTAL_CHARGE>
0
> <PUBCHEM_HEAVY_ATOM_COUNT>
29
> <PUBCHEM_ATOM_DEF_STEREO_COUNT>
4
> <PUBCHEM_ATOM_UDEF_STEREO_COUNT>
0
> <PUBCHEM_BOND_DEF_STEREO_COUNT>
0
> <PUBCHEM_BOND_UDEF_STEREO_COUNT>
0
> <PUBCHEM_ISOTOPIC_ATOM_COUNT>
0
> <PUBCHEM_COMPONENT_COUNT>
1
> <PUBCHEM_CACTVS_TAUTO_COUNT>
-1
> <PUBCHEM_COORDINATE_TYPE>
1
5
255
> <PUBCHEM_BONDANNOTATIONS>
10  20  8
11  18  8
11  27  8
12  23  8
12  27  8
16  17  6
18  19  8
19  20  8
19  23  8
13  3  5
14  4  5
9  10  8
15  9  6
9  18  8
$$$$
