512165
  -OEChem-10302200282D
 34 35  0     1  0  0  0  0  0999 V2000
    2.0000    3.8380    0.0000 I   0  0  0  0  0  0  0  0  0  0  0  0
    2.8660    0.3380    0.0000 O   0  0  0  0  0  0  0  0  0  0  0  0
    5.0981   -3.5280    0.0000 O   0  0  0  0  0  0  0  0  0  0  0  0
    6.3301    0.3380    0.0000 O   0  0  0  0  0  0  0  0  0  0  0  0
    4.5981    3.3380    0.0000 O   0  0  0  0  0  0  0  0  0  0  0  0
    4.5981    0.3380    0.0000 N   0  0  0  0  0  0  0  0  0  0  0  0
    5.4641    1.8380    0.0000 N   0  0  0  0  0  0  0  0  0  0  0  0
    3.7320   -1.1620    0.0000 C   0  0  1  0  0  0  0  0  0  0  0  0
    4.2320   -2.0280    0.0000 C   0  0  1  0  0  0  0  0  0  0  0  0
    3.2320   -2.0280    0.0000 C   0  0  0  0  0  0  0  0  0  0  0  0
    4.5981   -0.6620    0.0000 C   0  0  0  0  0  0  0  0  0  0  0  0
    2.8660   -0.6620    0.0000 C   0  0  0  0  0  0  0  0  0  0  0  0
    5.0981   -2.5280    0.0000 C   0  0  0  0  0  0  0  0  0  0  0  0
    3.7320    0.8380    0.0000 C   0  0  0  0  0  0  0  0  0  0  0  0
    5.4641    0.8380    0.0000 C   0  0  0  0  0  0  0  0  0  0  0  0
    3.7320    1.8380    0.0000 C   0  0  0  0  0  0  0  0  0  0  0  0
    4.5981    2.3380    0.0000 C   0  0  0  0  0  0  0  0  0  0  0  0
    2.8660    2.3380    0.0000 C   0  0  0  0  0  0  0  0  0  0  0  0
    2.8660    3.3380    0.0000 C   0  0  0  0  0  0  0  0  0  0  0  0
    4.0716   -2.6269    0.0000 H   0  0  0  0  0  0  0  0  0  0  0  0
    2.6494   -1.8160    0.0000 H   0  0  0  0  0  0  0  0  0  0  0  0
    3.1244   -2.6386    0.0000 H   0  0  0  0  0  0  0  0  0  0  0  0
    4.8101   -1.2446    0.0000 H   0  0  0  0  0  0  0  0  0  0  0  0
    5.2087   -0.5543    0.0000 H   0  0  0  0  0  0  0  0  0  0  0  0
    2.2554   -0.5543    0.0000 H   0  0  0  0  0  0  0  0  0  0  0  0
    2.6540   -1.2446    0.0000 H   0  0  0  0  0  0  0  0  0  0  0  0
    5.7087   -2.6357    0.0000 H   0  0  0  0  0  0  0  0  0  0  0  0
    5.3101   -1.9454    0.0000 H   0  0  0  0  0  0  0  0  0  0  0  0
    2.3291    0.6480    0.0000 H   0  0  0  0  0  0  0  0  0  0  0  0
    4.5611   -3.8380    0.0000 H   0  0  0  0  0  0  0  0  0  0  0  0
    3.1951    0.5280    0.0000 H   0  0  0  0  0  0  0  0  0  0  0  0
    6.0010    2.1480    0.0000 H   0  0  0  0  0  0  0  0  0  0  0  0
    2.3291    2.0280    0.0000 H   0  0  0  0  0  0  0  0  0  0  0  0
    3.4030    3.6480    0.0000 H   0  0  0  0  0  0  0  0  0  0  0  0
  1 19  1  0  0  0  0
  2 12  1  0  0  0  0
  2 29  1  0  0  0  0
  3 13  1  0  0  0  0
  3 30  1  0  0  0  0
  4 15  2  0  0  0  0
  5 17  2  0  0  0  0
  6 11  1  0  0  0  0
  6 14  1  0  0  0  0
  6 15  1  0  0  0  0
  7 15  1  0  0  0  0
  7 17  1  0  0  0  0
  7 32  1  0  0  0  0
  8  9  1  0  0  0  0
  8 10  1  0  0  0  0
  8 11  1  0  0  0  0
  8 12  1  6  0  0  0
  9 10  1  0  0  0  0
  9 13  1  6  0  0  0
  9 20  1  0  0  0  0
 10 21  1  0  0  0  0
 10 22  1  0  0  0  0
 11 23  1  0  0  0  0
 11 24  1  0  0  0  0
 12 25  1  0  0  0  0
 12 26  1  0  0  0  0
 13 27  1  0  0  0  0
 13 28  1  0  0  0  0
 14 16  2  0  0  0  0
 14 31  1  0  0  0  0
 16 17  1  0  0  0  0
 16 18  1  0  0  0  0
 18 19  2  3  0  0  0
 18 33  1  0  0  0  0
 19 34  1  0  0  0  0
M  END
> <PUBCHEM_COMPOUND_CID>
512165
> <PUBCHEM_COMPOUND_CANONICALIZED>
1
> <PUBCHEM_CACTVS_COMPLEXITY>
463
> <PUBCHEM_CACTVS_HBOND_ACCEPTOR>
4
> <PUBCHEM_CACTVS_HBOND_DONOR>
3
> <PUBCHEM_CACTVS_ROTATABLE_BOND>
5
> <PUBCHEM_CACTVS_SUBSKEYS>
AAADccBzOAAAAgAAAAAAAAAAGAAAAAAAAAAgAAAAAAAAAAAAAAAAHgAwCAAADwDjgAYBAAPAAgCIAiFWUACAAAAgAAAIAAEIAEiIEAIAgQAEQAAOByIAAMDwMAINgAAAAAAAAAAAAAAAAAAAAAAAAAAAAA==
> <PUBCHEM_IUPAC_OPENEYE_NAME>
1-[[(1S,2R)-1,2-bis(hydroxymethyl)cyclopropyl]methyl]-5-(2-iodovinyl)pyrimidine-2,4-dione
> <PUBCHEM_IUPAC_CAS_NAME>
1-[[(1S,2R)-1,2-bis(hydroxymethyl)cyclopropyl]methyl]-5-(2-iodoethenyl)pyrimidine-2,4-dione
> <PUBCHEM_IUPAC_NAME_MARKUP>
1-[[(1<I>S</I>,2<I>R</I>)-1,2-bis(hydroxymethyl)cyclopropyl]methyl]-5-(2-iodoethenyl)pyrimidine-2,4-dione
> <PUBCHEM_IUPAC_NAME>
1-[[(1S,2R)-1,2-bis(hydroxymethyl)cyclopropyl]methyl]-5-(2-iodoethenyl)pyrimidine-2,4-dione
> <PUBCHEM_IUPAC_SYSTEMATIC_NAME>
1-[[(1S,2R)-1,2-bis(hydroxymethyl)cyclopropyl]methyl]-5-(2-iodanylethenyl)pyrimidine-2,4-dione
> <PUBCHEM_IUPAC_TRADITIONAL_NAME>
1-[[(1S,2R)-1,2-dimethylolcyclopropyl]methyl]-5-(2-iodovinyl)pyrimidine-2,4-quinone
> <PUBCHEM_IUPAC_INCHI>
InChI=1S/C12H15IN2O4/c13-2-1-8-4-15(11(19)14-10(8)18)6-12(7-17)3-9(12)5-16/h1-2,4,9,16-17H,3,5-7H2,(H,14,18,19)/t9-,12-/m0/s1
> <PUBCHEM_IUPAC_INCHIKEY>
MIJSVRRTSWPTMV-CABZTGNLSA-N
> <PUBCHEM_XLOGP3_AA>
-0.4
> <PUBCHEM_EXACT_MASS>
378.00765
> <PUBCHEM_MOLECULAR_FORMULA>
C12H15IN2O4
> <PUBCHEM_MOLECULAR_WEIGHT>
378.16
> <PUBCHEM_OPENEYE_CAN_SMILES>
C1C(C1(CN2C=C(C(=O)NC2=O)C=CI)CO)CO
> <PUBCHEM_OPENEYE_ISO_SMILES>
C1[C@H]([C@@]1(CN2C=C(C(=O)NC2=O)C=CI)CO)CO
> <PUBCHEM_CACTVS_TPSA>
89.9
> <PUBCHEM_MONOISOTOPIC_WEIGHT>
378.00765
> <PUBCHEM_TOTAL_CHARGE>
0
> <PUBCHEM_HEAVY_ATOM_COUNT>
19
> <PUBCHEM_ATOM_DEF_STEREO_COUNT>
2
> <PUBCHEM_ATOM_UDEF_STEREO_COUNT>
0
> <PUBCHEM_BOND_DEF_STEREO_COUNT>
0
> <PUBCHEM_BOND_UDEF_STEREO_COUNT>
1
> <PUBCHEM_ISOTOPIC_ATOM_COUNT>
0
> <PUBCHEM_COMPONENT_COUNT>
1
> <PUBCHEM_CACTVS_TAUTO_COUNT>
-1
> <PUBCHEM_COORDINATE_TYPE>
1
5
255
> <PUBCHEM_BONDANNOTATIONS>
14  16  8
16  17  8
18  19  1
6  14  8
6  15  8
7  15  8
7  17  8
8  12  6
9  13  6
$$$$
