512177
  -OEChem-10302200282D
 33 34  0     1  0  0  0  0  0999 V2000
    2.5089   -0.8216    0.0000 O   0  0  0  0  0  0  0  0  0  0  0  0
    3.1812   -2.8907    0.0000 O   0  0  0  0  0  0  0  0  0  0  0  0
    6.3513   -2.7862    0.0000 O   0  0  0  0  0  0  0  0  0  0  0  0
    6.0010    0.4571    0.0000 O   0  0  0  0  0  0  0  0  0  0  0  0
    4.2690    3.4571    0.0000 O   0  0  0  0  0  0  0  0  0  0  0  0
    4.2690    0.4571    0.0000 N   0  0  0  0  0  0  0  0  0  0  0  0
    5.1350    1.9571    0.0000 N   0  0  0  0  0  0  0  0  0  0  0  0
    2.5369    2.4571    0.0000 N   0  0  0  0  0  0  0  0  0  0  0  0
    4.2690   -0.5429    0.0000 C   0  0  2  0  0  0  0  0  0  0  0  0
    4.7690   -2.0817    0.0000 C   0  0  1  0  0  0  0  0  0  0  0  0
    5.0780   -1.1307    0.0000 C   0  0  0  0  0  0  0  0  0  0  0  0
    3.4600   -1.1307    0.0000 C   0  0  1  0  0  0  0  0  0  0  0  0
    3.7690   -2.0817    0.0000 C   0  0  2  0  0  0  0  0  0  0  0  0
    5.3568   -2.8907    0.0000 C   0  0  0  0  0  0  0  0  0  0  0  0
    3.4030    0.9571    0.0000 C   0  0  0  0  0  0  0  0  0  0  0  0
    5.1350    0.9571    0.0000 C   0  0  0  0  0  0  0  0  0  0  0  0
    3.4030    1.9571    0.0000 C   0  0  0  0  0  0  0  0  0  0  0  0
    4.2690    2.4571    0.0000 C   0  0  0  0  0  0  0  0  0  0  0  0
    4.8214   -0.2614    0.0000 H   0  0  0  0  0  0  0  0  0  0  0  0
    5.3814   -1.9847    0.0000 H   0  0  0  0  0  0  0  0  0  0  0  0
    5.6444   -1.3828    0.0000 H   0  0  0  0  0  0  0  0  0  0  0  0
    5.3880   -0.5937    0.0000 H   0  0  0  0  0  0  0  0  0  0  0  0
    3.0216   -1.5691    0.0000 H   0  0  0  0  0  0  0  0  0  0  0  0
    3.1566   -1.9847    0.0000 H   0  0  0  0  0  0  0  0  0  0  0  0
    4.7995   -3.1625    0.0000 H   0  0  0  0  0  0  0  0  0  0  0  0
    5.5277   -3.4867    0.0000 H   0  0  0  0  0  0  0  0  0  0  0  0
    2.0482   -1.2365    0.0000 H   0  0  0  0  0  0  0  0  0  0  0  0
    3.4334   -3.4571    0.0000 H   0  0  0  0  0  0  0  0  0  0  0  0
    2.8660    0.6471    0.0000 H   0  0  0  0  0  0  0  0  0  0  0  0
    6.7157   -3.2878    0.0000 H   0  0  0  0  0  0  0  0  0  0  0  0
    5.6720    2.2671    0.0000 H   0  0  0  0  0  0  0  0  0  0  0  0
    2.0000    2.1471    0.0000 H   0  0  0  0  0  0  0  0  0  0  0  0
    2.5369    3.0771    0.0000 H   0  0  0  0  0  0  0  0  0  0  0  0
 12  1  1  1  0  0  0
  1 27  1  0  0  0  0
 13  2  1  1  0  0  0
  2 28  1  0  0  0  0
  3 14  1  0  0  0  0
  3 30  1  0  0  0  0
  4 16  2  0  0  0  0
  5 18  2  0  0  0  0
  9  6  1  6  0  0  0
  6 15  1  0  0  0  0
  6 16  1  0  0  0  0
  7 16  1  0  0  0  0
  7 18  1  0  0  0  0
  7 31  1  0  0  0  0
  8 17  1  0  0  0  0
  8 32  1  0  0  0  0
  8 33  1  0  0  0  0
  9 11  1  0  0  0  0
  9 12  1  0  0  0  0
  9 19  1  0  0  0  0
 10 11  1  0  0  0  0
 10 13  1  0  0  0  0
 10 14  1  6  0  0  0
 10 20  1  0  0  0  0
 11 21  1  0  0  0  0
 11 22  1  0  0  0  0
 12 13  1  0  0  0  0
 12 23  1  0  0  0  0
 13 24  1  0  0  0  0
 14 25  1  0  0  0  0
 14 26  1  0  0  0  0
 15 17  2  0  0  0  0
 15 29  1  0  0  0  0
 17 18  1  0  0  0  0
M  END
> <PUBCHEM_COMPOUND_CID>
512177
> <PUBCHEM_COMPOUND_CANONICALIZED>
1
> <PUBCHEM_CACTVS_COMPLEXITY>
410
> <PUBCHEM_CACTVS_HBOND_ACCEPTOR>
6
> <PUBCHEM_CACTVS_HBOND_DONOR>
5
> <PUBCHEM_CACTVS_ROTATABLE_BOND>
2
> <PUBCHEM_CACTVS_SUBSKEYS>
AAADccBzOAAAAAAAAAAAAAAAAAAAAYAAAAAgAAAAAAAAAAAAAAAAHgAQCAAADTzhgAYBAAPAAgCIAAVWUACAAAAAAgAAAACIAECDUAIAgAAUQAAPByIRAMHwcAcOAAAAAAAAAAAAAAAAAAAAAKEABCgAAA==
> <PUBCHEM_IUPAC_OPENEYE_NAME>
5-amino-1-[(1R,2S,3R,4R)-2,3-dihydroxy-4-(hydroxymethyl)cyclopentyl]pyrimidine-2,4-dione
> <PUBCHEM_IUPAC_CAS_NAME>
5-amino-1-[(1R,2S,3R,4R)-2,3-dihydroxy-4-(hydroxymethyl)cyclopentyl]pyrimidine-2,4-dione
> <PUBCHEM_IUPAC_NAME_MARKUP>
5-amino-1-[(1<I>R</I>,2<I>S</I>,3<I>R</I>,4<I>R</I>)-2,3-dihydroxy-4-(hydroxymethyl)cyclopentyl]pyrimidine-2,4-dione
> <PUBCHEM_IUPAC_NAME>
5-amino-1-[(1R,2S,3R,4R)-2,3-dihydroxy-4-(hydroxymethyl)cyclopentyl]pyrimidine-2,4-dione
> <PUBCHEM_IUPAC_SYSTEMATIC_NAME>
5-azanyl-1-[(1R,2S,3R,4R)-4-(hydroxymethyl)-2,3-bis(oxidanyl)cyclopentyl]pyrimidine-2,4-dione
> <PUBCHEM_IUPAC_TRADITIONAL_NAME>
5-amino-1-[(1R,2S,3R,4R)-2,3-dihydroxy-4-methylol-cyclopentyl]pyrimidine-2,4-quinone
> <PUBCHEM_IUPAC_INCHI>
InChI=1S/C10H15N3O5/c11-5-2-13(10(18)12-9(5)17)6-1-4(3-14)7(15)8(6)16/h2,4,6-8,14-16H,1,3,11H2,(H,12,17,18)/t4-,6-,7-,8+/m1/s1
> <PUBCHEM_IUPAC_INCHIKEY>
YHOQZPXUKMYLCJ-JBBNEOJLSA-N
> <PUBCHEM_XLOGP3_AA>
-2.2
> <PUBCHEM_EXACT_MASS>
257.10117059
> <PUBCHEM_MOLECULAR_FORMULA>
C10H15N3O5
> <PUBCHEM_MOLECULAR_WEIGHT>
257.24
> <PUBCHEM_OPENEYE_CAN_SMILES>
C1C(C(C(C1N2C=C(C(=O)NC2=O)N)O)O)CO
> <PUBCHEM_OPENEYE_ISO_SMILES>
C1[C@@H]([C@H]([C@H]([C@@H]1N2C=C(C(=O)NC2=O)N)O)O)CO
> <PUBCHEM_CACTVS_TPSA>
136
> <PUBCHEM_MONOISOTOPIC_WEIGHT>
257.10117059
> <PUBCHEM_TOTAL_CHARGE>
0
> <PUBCHEM_HEAVY_ATOM_COUNT>
18
> <PUBCHEM_ATOM_DEF_STEREO_COUNT>
4
> <PUBCHEM_ATOM_UDEF_STEREO_COUNT>
0
> <PUBCHEM_BOND_DEF_STEREO_COUNT>
0
> <PUBCHEM_BOND_UDEF_STEREO_COUNT>
0
> <PUBCHEM_ISOTOPIC_ATOM_COUNT>
0
> <PUBCHEM_COMPONENT_COUNT>
1
> <PUBCHEM_CACTVS_TAUTO_COUNT>
-1
> <PUBCHEM_COORDINATE_TYPE>
1
5
255
> <PUBCHEM_BONDANNOTATIONS>
12  1  5
10  14  6
15  17  8
17  18  8
13  2  5
6  15  8
6  16  8
9  6  6
7  16  8
7  18  8
$$$$
