512181
  -OEChem-10302200282D
 63 64  0     1  0  0  0  0  0999 V2000
   10.4710   -0.8216    0.0000 O   0  0  0  0  0  0  0  0  0  0  0  0
   11.1433   -2.8907    0.0000 O   0  0  0  0  0  0  0  0  0  0  0  0
   14.3134   -2.7862    0.0000 O   0  0  0  0  0  0  0  0  0  0  0  0
   13.9631    0.4571    0.0000 O   0  0  0  0  0  0  0  0  0  0  0  0
    9.9358   -2.4689    0.0000 O   0  0  0  0  0  0  0  0  0  0  0  0
   12.2311    3.4571    0.0000 O   0  0  0  0  0  0  0  0  0  0  0  0
   12.2311    0.4571    0.0000 N   0  0  0  0  0  0  0  0  0  0  0  0
   13.0971    1.9571    0.0000 N   0  0  0  0  0  0  0  0  0  0  0  0
   12.2311   -0.5429    0.0000 C   0  0  1  0  0  0  0  0  0  0  0  0
   12.7311   -2.0817    0.0000 C   0  0  2  0  0  0  0  0  0  0  0  0
   11.4221   -1.1307    0.0000 C   0  0  2  0  0  0  0  0  0  0  0  0
   11.7311   -2.0817    0.0000 C   0  0  2  0  0  0  0  0  0  0  0  0
   13.0401   -1.1307    0.0000 C   0  0  0  0  0  0  0  0  0  0  0  0
   13.3189   -2.8907    0.0000 C   0  0  0  0  0  0  0  0  0  0  0  0
   11.3651    0.9571    0.0000 C   0  0  0  0  0  0  0  0  0  0  0  0
   13.0971    0.9571    0.0000 C   0  0  0  0  0  0  0  0  0  0  0  0
    9.7279   -1.4908    0.0000 C   0  0  0  0  0  0  0  0  0  0  0  0
   11.3651    1.9571    0.0000 C   0  0  0  0  0  0  0  0  0  0  0  0
    8.7768   -1.1818    0.0000 C   0  0  0  0  0  0  0  0  0  0  0  0
   12.2311    2.4571    0.0000 C   0  0  0  0  0  0  0  0  0  0  0  0
    8.0337   -1.8509    0.0000 C   0  0  0  0  0  0  0  0  0  0  0  0
    7.0826   -1.5419    0.0000 C   0  0  0  0  0  0  0  0  0  0  0  0
   10.4990    2.4571    0.0000 C   0  0  0  0  0  0  0  0  0  0  0  0
    6.3395   -2.2110    0.0000 C   0  0  0  0  0  0  0  0  0  0  0  0
    5.3884   -1.9020    0.0000 C   0  0  0  0  0  0  0  0  0  0  0  0
    4.6453   -2.5711    0.0000 C   0  0  0  0  0  0  0  0  0  0  0  0
    3.6942   -2.2621    0.0000 C   0  0  0  0  0  0  0  0  0  0  0  0
    2.9511   -2.9312    0.0000 C   0  0  0  0  0  0  0  0  0  0  0  0
    2.0000   -2.6222    0.0000 C   0  0  0  0  0  0  0  0  0  0  0  0
   11.6787   -0.2614    0.0000 H   0  0  0  0  0  0  0  0  0  0  0  0
   12.4496   -2.6341    0.0000 H   0  0  0  0  0  0  0  0  0  0  0  0
   10.9837   -1.5691    0.0000 H   0  0  0  0  0  0  0  0  0  0  0  0
   11.1187   -1.9847    0.0000 H   0  0  0  0  0  0  0  0  0  0  0  0
   13.6065   -1.3828    0.0000 H   0  0  0  0  0  0  0  0  0  0  0  0
   13.3501   -0.5937    0.0000 H   0  0  0  0  0  0  0  0  0  0  0  0
   12.7616   -3.1625    0.0000 H   0  0  0  0  0  0  0  0  0  0  0  0
   13.4898   -3.4867    0.0000 H   0  0  0  0  0  0  0  0  0  0  0  0
   11.3955   -3.4571    0.0000 H   0  0  0  0  0  0  0  0  0  0  0  0
   10.8281    0.6471    0.0000 H   0  0  0  0  0  0  0  0  0  0  0  0
   14.6778   -3.2878    0.0000 H   0  0  0  0  0  0  0  0  0  0  0  0
    9.0679   -0.6343    0.0000 H   0  0  0  0  0  0  0  0  0  0  0  0
    8.2882   -0.8000    0.0000 H   0  0  0  0  0  0  0  0  0  0  0  0
   13.6340    2.2671    0.0000 H   0  0  0  0  0  0  0  0  0  0  0  0
    7.7426   -2.3983    0.0000 H   0  0  0  0  0  0  0  0  0  0  0  0
    8.5222   -2.2326    0.0000 H   0  0  0  0  0  0  0  0  0  0  0  0
    7.3737   -0.9944    0.0000 H   0  0  0  0  0  0  0  0  0  0  0  0
    6.5940   -1.1602    0.0000 H   0  0  0  0  0  0  0  0  0  0  0  0
   10.8090    2.9941    0.0000 H   0  0  0  0  0  0  0  0  0  0  0  0
    9.9621    2.7671    0.0000 H   0  0  0  0  0  0  0  0  0  0  0  0
   10.1890    1.9202    0.0000 H   0  0  0  0  0  0  0  0  0  0  0  0
    6.0484   -2.7584    0.0000 H   0  0  0  0  0  0  0  0  0  0  0  0
    6.8280   -2.5927    0.0000 H   0  0  0  0  0  0  0  0  0  0  0  0
    5.6795   -1.3546    0.0000 H   0  0  0  0  0  0  0  0  0  0  0  0
    4.8998   -1.5203    0.0000 H   0  0  0  0  0  0  0  0  0  0  0  0
    4.3542   -3.1185    0.0000 H   0  0  0  0  0  0  0  0  0  0  0  0
    5.1338   -2.9528    0.0000 H   0  0  0  0  0  0  0  0  0  0  0  0
    3.9853   -1.7147    0.0000 H   0  0  0  0  0  0  0  0  0  0  0  0
    3.2056   -1.8804    0.0000 H   0  0  0  0  0  0  0  0  0  0  0  0
    2.6600   -3.4786    0.0000 H   0  0  0  0  0  0  0  0  0  0  0  0
    3.4396   -3.3129    0.0000 H   0  0  0  0  0  0  0  0  0  0  0  0
    2.1916   -2.0326    0.0000 H   0  0  0  0  0  0  0  0  0  0  0  0
    1.4103   -2.4306    0.0000 H   0  0  0  0  0  0  0  0  0  0  0  0
    1.8084   -3.2119    0.0000 H   0  0  0  0  0  0  0  0  0  0  0  0
 11  1  1  6  0  0  0
  1 17  1  0  0  0  0
 12  2  1  1  0  0  0
  2 38  1  0  0  0  0
  3 14  1  0  0  0  0
  3 40  1  0  0  0  0
  4 16  2  0  0  0  0
  5 17  2  0  0  0  0
  6 20  2  0  0  0  0
  9  7  1  6  0  0  0
  7 15  1  0  0  0  0
  7 16  1  0  0  0  0
  8 16  1  0  0  0  0
  8 20  1  0  0  0  0
  8 43  1  0  0  0  0
  9 11  1  0  0  0  0
  9 13  1  0  0  0  0
  9 30  1  0  0  0  0
 10 12  1  0  0  0  0
 10 13  1  0  0  0  0
 10 14  1  6  0  0  0
 10 31  1  0  0  0  0
 11 12  1  0  0  0  0
 11 32  1  0  0  0  0
 12 33  1  0  0  0  0
 13 34  1  0  0  0  0
 13 35  1  0  0  0  0
 14 36  1  0  0  0  0
 14 37  1  0  0  0  0
 15 18  2  0  0  0  0
 15 39  1  0  0  0  0
 17 19  1  0  0  0  0
 18 20  1  0  0  0  0
 18 23  1  0  0  0  0
 19 21  1  0  0  0  0
 19 41  1  0  0  0  0
 19 42  1  0  0  0  0
 21 22  1  0  0  0  0
 21 44  1  0  0  0  0
 21 45  1  0  0  0  0
 22 24  1  0  0  0  0
 22 46  1  0  0  0  0
 22 47  1  0  0  0  0
 23 48  1  0  0  0  0
 23 49  1  0  0  0  0
 23 50  1  0  0  0  0
 24 25  1  0  0  0  0
 24 51  1  0  0  0  0
 24 52  1  0  0  0  0
 25 26  1  0  0  0  0
 25 53  1  0  0  0  0
 25 54  1  0  0  0  0
 26 27  1  0  0  0  0
 26 55  1  0  0  0  0
 26 56  1  0  0  0  0
 27 28  1  0  0  0  0
 27 57  1  0  0  0  0
 27 58  1  0  0  0  0
 28 29  1  0  0  0  0
 28 59  1  0  0  0  0
 28 60  1  0  0  0  0
 29 61  1  0  0  0  0
 29 62  1  0  0  0  0
 29 63  1  0  0  0  0
M  END
> <PUBCHEM_COMPOUND_CID>
512181
> <PUBCHEM_COMPOUND_CANONICALIZED>
1
> <PUBCHEM_CACTVS_COMPLEXITY>
620
> <PUBCHEM_CACTVS_HBOND_ACCEPTOR>
6
> <PUBCHEM_CACTVS_HBOND_DONOR>
3
> <PUBCHEM_CACTVS_ROTATABLE_BOND>
12
> <PUBCHEM_CACTVS_SUBSKEYS>
AAADcfB7OAAAAAAAAAAAAAAAAAAAAYAAAAAgAAAAAAAAAAAAAAAAHgAQCAAADTzhgAYDCAPABgCIAgHWWACAAAAAAAAAAAEIAECDEBIAgQAHQAAPByITAMH4+K+OAAAAAAAAAAAAAAAAAAAAAKEABCgAAA==
> <PUBCHEM_IUPAC_OPENEYE_NAME>
[(1R,2R,3R,5R)-2-hydroxy-3-(hydroxymethyl)-5-(5-methyl-2,4-dioxo-pyrimidin-1-yl)cyclopentyl] decanoate
> <PUBCHEM_IUPAC_CAS_NAME>
decanoic acid [(1R,2R,3R,5R)-2-hydroxy-3-(hydroxymethyl)-5-(5-methyl-2,4-dioxo-1-pyrimidinyl)cyclopentyl] ester
> <PUBCHEM_IUPAC_NAME_MARKUP>
[(1<I>R</I>,2<I>R</I>,3<I>R</I>,5<I>R</I>)-2-hydroxy-3-(hydroxymethyl)-5-(5-methyl-2,4-dioxopyrimidin-1-yl)cyclopentyl] decanoate
> <PUBCHEM_IUPAC_NAME>
[(1R,2R,3R,5R)-2-hydroxy-3-(hydroxymethyl)-5-(5-methyl-2,4-dioxopyrimidin-1-yl)cyclopentyl] decanoate
> <PUBCHEM_IUPAC_SYSTEMATIC_NAME>
[(1R,2R,3R,5R)-3-(hydroxymethyl)-5-[5-methyl-2,4-bis(oxidanylidene)pyrimidin-1-yl]-2-oxidanyl-cyclopentyl] decanoate
> <PUBCHEM_IUPAC_TRADITIONAL_NAME>
capric acid [(1R,2R,3R,5R)-5-(2,4-diketo-5-methyl-pyrimidin-1-yl)-2-hydroxy-3-methylol-cyclopentyl] ester
> <PUBCHEM_IUPAC_INCHI>
InChI=1S/C21H34N2O6/c1-3-4-5-6-7-8-9-10-17(25)29-19-16(11-15(13-24)18(19)26)23-12-14(2)20(27)22-21(23)28/h12,15-16,18-19,24,26H,3-11,13H2,1-2H3,(H,22,27,28)/t15-,16-,18-,19-/m1/s1
> <PUBCHEM_IUPAC_INCHIKEY>
AAOOBHJJIDFNHG-PSBWJHGTSA-N
> <PUBCHEM_XLOGP3_AA>
3.3
> <PUBCHEM_EXACT_MASS>
410.24168681
> <PUBCHEM_MOLECULAR_FORMULA>
C21H34N2O6
> <PUBCHEM_MOLECULAR_WEIGHT>
410.5
> <PUBCHEM_OPENEYE_CAN_SMILES>
CCCCCCCCCC(=O)OC1C(CC(C1O)CO)N2C=C(C(=O)NC2=O)C
> <PUBCHEM_OPENEYE_ISO_SMILES>
CCCCCCCCCC(=O)O[C@@H]1[C@@H](C[C@@H]([C@H]1O)CO)N2C=C(C(=O)NC2=O)C
> <PUBCHEM_CACTVS_TPSA>
116
> <PUBCHEM_MONOISOTOPIC_WEIGHT>
410.24168681
> <PUBCHEM_TOTAL_CHARGE>
0
> <PUBCHEM_HEAVY_ATOM_COUNT>
29
> <PUBCHEM_ATOM_DEF_STEREO_COUNT>
4
> <PUBCHEM_ATOM_UDEF_STEREO_COUNT>
0
> <PUBCHEM_BOND_DEF_STEREO_COUNT>
0
> <PUBCHEM_BOND_UDEF_STEREO_COUNT>
0
> <PUBCHEM_ISOTOPIC_ATOM_COUNT>
0
> <PUBCHEM_COMPONENT_COUNT>
1
> <PUBCHEM_CACTVS_TAUTO_COUNT>
-1
> <PUBCHEM_COORDINATE_TYPE>
1
5
255
> <PUBCHEM_BONDANNOTATIONS>
11  1  6
10  14  6
15  18  8
18  20  8
12  2  5
7  15  8
7  16  8
9  7  6
8  16  8
8  20  8
$$$$
