512278
  -OEChem-10302200282D
 69 70  0     1  0  0  0  0  0999 V2000
    6.0010   -2.0000    0.0000 O   0  0  0  0  0  0  0  0  0  0  0  0
    6.8671   -3.5000    0.0000 O   0  0  0  0  0  0  0  0  0  0  0  0
    5.1350   -3.5000    0.0000 O   0  0  0  0  0  0  0  0  0  0  0  0
    8.5991   -2.5000    0.0000 O   0  0  0  0  0  0  0  0  0  0  0  0
    8.5991   -0.5000    0.0000 O   0  0  0  0  0  0  0  0  0  0  0  0
    6.8671    0.5000    0.0000 O   0  0  0  0  0  0  0  0  0  0  0  0
    6.8671   -5.5000    0.0000 O   0  0  0  0  0  0  0  0  0  0  0  0
    5.1350   -6.5000    0.0000 O   0  0  0  0  0  0  0  0  0  0  0  0
    3.4030   -5.5000    0.0000 O   0  0  0  0  0  0  0  0  0  0  0  0
    2.5369   -4.0000    0.0000 O   0  0  0  0  0  0  0  0  0  0  0  0
    3.4030    0.5000    0.0000 O   0  0  0  0  0  0  0  0  0  0  0  0
    5.1350    0.5000    0.0000 N   0  0  0  0  0  0  0  0  0  0  0  0
    3.4030    2.5000    0.0000 N   0  0  0  0  0  0  0  0  0  0  0  0
    6.0010    5.0000    0.0000 N   0  0  0  0  0  0  0  0  0  0  0  0
    6.8671    6.5000    0.0000 N   0  0  0  0  0  0  0  0  0  0  0  0
    7.7331    5.0000    0.0000 N   0  0  0  0  0  0  0  0  0  0  0  0
    6.8671   -2.5000    0.0000 C   0  0  2  0  0  0  0  0  0  0  0  0
    7.7331   -2.0000    0.0000 C   0  0  1  0  0  0  0  0  0  0  0  0
    7.7331   -1.0000    0.0000 C   0  0  2  0  0  0  0  0  0  0  0  0
    6.8671   -0.5000    0.0000 C   0  0  1  0  0  0  0  0  0  0  0  0
    6.0010   -1.0000    0.0000 C   0  0  1  0  0  0  0  0  0  0  0  0
    6.0010   -4.0000    0.0000 C   0  0  2  0  0  0  0  0  0  0  0  0
    6.0010   -5.0000    0.0000 C   0  0  2  0  0  0  0  0  0  0  0  0
    5.1350   -5.5000    0.0000 C   0  0  1  0  0  0  0  0  0  0  0  0
    4.2690   -5.0000    0.0000 C   0  0  2  0  0  0  0  0  0  0  0  0
    4.2690   -4.0000    0.0000 C   0  0  1  0  0  0  0  0  0  0  0  0
    5.1350   -0.5000    0.0000 C   0  0  0  0  0  0  0  0  0  0  0  0
    3.4030   -3.5000    0.0000 C   0  0  0  0  0  0  0  0  0  0  0  0
    4.2690    1.0000    0.0000 C   0  0  0  0  0  0  0  0  0  0  0  0
    4.2690    2.0000    0.0000 C   0  0  3  0  0  0  0  0  0  0  0  0
    5.1350    2.5000    0.0000 C   0  0  0  0  0  0  0  0  0  0  0  0
    5.1350    3.5000    0.0000 C   0  0  0  0  0  0  0  0  0  0  0  0
    6.0010    4.0000    0.0000 C   0  0  0  0  0  0  0  0  0  0  0  0
    6.8671    5.5000    0.0000 C   0  0  0  0  0  0  0  0  0  0  0  0
    7.4040   -2.8100    0.0000 H   0  0  0  0  0  0  0  0  0  0  0  0
    8.2700   -1.6900    0.0000 H   0  0  0  0  0  0  0  0  0  0  0  0
    7.7331   -0.3800    0.0000 H   0  0  0  0  0  0  0  0  0  0  0  0
    7.4040   -0.1900    0.0000 H   0  0  0  0  0  0  0  0  0  0  0  0
    5.4641   -1.3100    0.0000 H   0  0  0  0  0  0  0  0  0  0  0  0
    6.0010   -3.3800    0.0000 H   0  0  0  0  0  0  0  0  0  0  0  0
    6.0010   -5.6200    0.0000 H   0  0  0  0  0  0  0  0  0  0  0  0
    4.5981   -5.8100    0.0000 H   0  0  0  0  0  0  0  0  0  0  0  0
    4.2690   -5.6200    0.0000 H   0  0  0  0  0  0  0  0  0  0  0  0
    4.2690   -3.3800    0.0000 H   0  0  0  0  0  0  0  0  0  0  0  0
    4.5244   -0.3923    0.0000 H   0  0  0  0  0  0  0  0  0  0  0  0
    4.9230   -1.0826    0.0000 H   0  0  0  0  0  0  0  0  0  0  0  0
    3.8015   -3.0250    0.0000 H   0  0  0  0  0  0  0  0  0  0  0  0
    3.0044   -3.0250    0.0000 H   0  0  0  0  0  0  0  0  0  0  0  0
    9.1360   -2.1900    0.0000 H   0  0  0  0  0  0  0  0  0  0  0  0
    8.5991    0.1200    0.0000 H   0  0  0  0  0  0  0  0  0  0  0  0
    7.4040    0.8100    0.0000 H   0  0  0  0  0  0  0  0  0  0  0  0
    5.6720    0.8100    0.0000 H   0  0  0  0  0  0  0  0  0  0  0  0
    6.8671   -6.1200    0.0000 H   0  0  0  0  0  0  0  0  0  0  0  0
    4.5981   -6.8100    0.0000 H   0  0  0  0  0  0  0  0  0  0  0  0
    3.4030   -6.1200    0.0000 H   0  0  0  0  0  0  0  0  0  0  0  0
    4.2690    2.6200    0.0000 H   0  0  0  0  0  0  0  0  0  0  0  0
    2.0000   -3.6900    0.0000 H   0  0  0  0  0  0  0  0  0  0  0  0
    5.3471    1.9174    0.0000 H   0  0  0  0  0  0  0  0  0  0  0  0
    5.7456    2.6077    0.0000 H   0  0  0  0  0  0  0  0  0  0  0  0
    4.9230    4.0826    0.0000 H   0  0  0  0  0  0  0  0  0  0  0  0
    4.5244    3.3923    0.0000 H   0  0  0  0  0  0  0  0  0  0  0  0
    3.4030    3.1200    0.0000 H   0  0  0  0  0  0  0  0  0  0  0  0
    2.8660    2.1900    0.0000 H   0  0  0  0  0  0  0  0  0  0  0  0
    6.2131    3.4174    0.0000 H   0  0  0  0  0  0  0  0  0  0  0  0
    6.6116    4.1077    0.0000 H   0  0  0  0  0  0  0  0  0  0  0  0
    7.4040    6.8100    0.0000 H   0  0  0  0  0  0  0  0  0  0  0  0
    6.3301    6.8100    0.0000 H   0  0  0  0  0  0  0  0  0  0  0  0
    8.2700    5.3100    0.0000 H   0  0  0  0  0  0  0  0  0  0  0  0
    7.7331    4.3800    0.0000 H   0  0  0  0  0  0  0  0  0  0  0  0
  1 17  1  0  0  0  0
  1 21  1  0  0  0  0
 17  2  1  1  0  0  0
 22  2  1  1  0  0  0
  3 22  1  0  0  0  0
  3 26  1  0  0  0  0
 18  4  1  1  0  0  0
  4 49  1  0  0  0  0
 19  5  1  6  0  0  0
  5 50  1  0  0  0  0
 20  6  1  1  0  0  0
  6 51  1  0  0  0  0
 23  7  1  1  0  0  0
  7 53  1  0  0  0  0
 24  8  1  6  0  0  0
  8 54  1  0  0  0  0
 25  9  1  1  0  0  0
  9 55  1  0  0  0  0
 10 28  1  0  0  0  0
 10 57  1  0  0  0  0
 11 29  2  0  0  0  0
 12 27  1  0  0  0  0
 12 29  1  0  0  0  0
 12 52  1  0  0  0  0
 13 30  1  0  0  0  0
 13 62  1  0  0  0  0
 13 63  1  0  0  0  0
 14 33  1  0  0  0  0
 14 34  2  0  0  0  0
 15 34  1  0  0  0  0
 15 66  1  0  0  0  0
 15 67  1  0  0  0  0
 16 34  1  0  0  0  0
 16 68  1  0  0  0  0
 16 69  1  0  0  0  0
 17 18  1  0  0  0  0
 17 35  1  0  0  0  0
 18 19  1  0  0  0  0
 18 36  1  0  0  0  0
 19 20  1  0  0  0  0
 19 37  1  0  0  0  0
 20 21  1  0  0  0  0
 20 38  1  0  0  0  0
 21 27  1  6  0  0  0
 21 39  1  0  0  0  0
 22 23  1  0  0  0  0
 22 40  1  0  0  0  0
 23 24  1  0  0  0  0
 23 41  1  0  0  0  0
 24 25  1  0  0  0  0
 24 42  1  0  0  0  0
 25 26  1  0  0  0  0
 25 43  1  0  0  0  0
 26 28  1  1  0  0  0
 26 44  1  0  0  0  0
 27 45  1  0  0  0  0
 27 46  1  0  0  0  0
 28 47  1  0  0  0  0
 28 48  1  0  0  0  0
 29 30  1  0  0  0  0
 30 31  1  0  0  0  0
 30 56  1  0  0  0  0
 31 32  1  0  0  0  0
 31 58  1  0  0  0  0
 31 59  1  0  0  0  0
 32 33  1  0  0  0  0
 32 60  1  0  0  0  0
 32 61  1  0  0  0  0
 33 64  1  0  0  0  0
 33 65  1  0  0  0  0
M  END
> <PUBCHEM_COMPOUND_CID>
512278
> <PUBCHEM_COMPOUND_CANONICALIZED>
1
> <PUBCHEM_CACTVS_COMPLEXITY>
685
> <PUBCHEM_CACTVS_HBOND_ACCEPTOR>
13
> <PUBCHEM_CACTVS_HBOND_DONOR>
11
> <PUBCHEM_CACTVS_ROTATABLE_BOND>
10
> <PUBCHEM_CACTVS_SUBSKEYS>
AAADcfB7vAAAAAAAAAAAAAAAAAAAAAAAAAAkSAAAAAAAAAAAAAAAHgAQCAAACDzxgAcBCALABgAoAAEQNAAAAAEAAAAAAIGIAAATUBIAgAA3QAAHFgCXAAH4cQ4AAAAAAAAAAAAAAAAAAAAAAAAAAAAAAA==
> <PUBCHEM_IUPAC_OPENEYE_NAME>
2-amino-5-guanidino-N-[[(2R,3S,4S,5R,6R)-3,4,5-trihydroxy-6-[(2S,3S,4R,5R,6R)-3,4,5-trihydroxy-6-(hydroxymethyl)tetrahydropyran-2-yl]oxy-tetrahydropyran-2-yl]methyl]pentanamide
> <PUBCHEM_IUPAC_CAS_NAME>
2-amino-5-(diaminomethylideneamino)-N-[[(2R,3S,4S,5R,6R)-3,4,5-trihydroxy-6-[[(2S,3S,4R,5R,6R)-3,4,5-trihydroxy-6-(hydroxymethyl)-2-oxanyl]oxy]-2-oxanyl]methyl]pentanamide
> <PUBCHEM_IUPAC_NAME_MARKUP>
2-amino-5-(diaminomethylideneamino)-<I>N</I>-[[(2<I>R</I>,3<I>S</I>,4<I>S</I>,5<I>R</I>,6<I>R</I>)-3,4,5-trihydroxy-6-[(2<I>S</I>,3<I>S</I>,4<I>R</I>,5<I>R</I>,6<I>R</I>)-3,4,5-trihydroxy-6-(hydroxymethyl)oxan-2-yl]oxyoxan-2-yl]methyl]pentanamide
> <PUBCHEM_IUPAC_NAME>
2-amino-5-(diaminomethylideneamino)-N-[[(2R,3S,4S,5R,6R)-3,4,5-trihydroxy-6-[(2S,3S,4R,5R,6R)-3,4,5-trihydroxy-6-(hydroxymethyl)oxan-2-yl]oxyoxan-2-yl]methyl]pentanamide
> <PUBCHEM_IUPAC_SYSTEMATIC_NAME>
2-azanyl-5-[bis(azanyl)methylideneamino]-N-[[(2R,3S,4S,5R,6R)-6-[(2S,3S,4R,5R,6R)-6-(hydroxymethyl)-3,4,5-tris(oxidanyl)oxan-2-yl]oxy-3,4,5-tris(oxidanyl)oxan-2-yl]methyl]pentanamide
> <PUBCHEM_IUPAC_TRADITIONAL_NAME>
2-amino-5-guanidino-N-[[(2R,3S,4S,5R,6R)-3,4,5-trihydroxy-6-[(2S,3S,4R,5R,6R)-3,4,5-trihydroxy-6-methylol-tetrahydropyran-2-yl]oxy-tetrahydropyran-2-yl]methyl]valeramide
> <PUBCHEM_IUPAC_INCHI>
InChI=1S/C18H35N5O11/c19-6(2-1-3-22-18(20)21)15(31)23-4-7-9(25)11(27)13(29)16(32-7)34-17-14(30)12(28)10(26)8(5-24)33-17/h6-14,16-17,24-30H,1-5,19H2,(H,23,31)(H4,20,21,22)/t6?,7-,8-,9-,10+,11+,12-,13-,14+,16-,17+/m1/s1
> <PUBCHEM_IUPAC_INCHIKEY>
PMDMWDGCAWBGAJ-XITDJWJVSA-N
> <PUBCHEM_XLOGP3_AA>
-5.9
> <PUBCHEM_EXACT_MASS>
497.23330695
> <PUBCHEM_MOLECULAR_FORMULA>
C18H35N5O11
> <PUBCHEM_MOLECULAR_WEIGHT>
497.5
> <PUBCHEM_OPENEYE_CAN_SMILES>
C(CC(C(=O)NCC1C(C(C(C(O1)OC2C(C(C(C(O2)CO)O)O)O)O)O)O)N)CN=C(N)N
> <PUBCHEM_OPENEYE_ISO_SMILES>
C(CC(C(=O)NC[C@@H]1[C@H]([C@@H]([C@H]([C@H](O1)O[C@H]2[C@H]([C@@H]([C@H]([C@H](O2)CO)O)O)O)O)O)O)N)CN=C(N)N
> <PUBCHEM_CACTVS_TPSA>
289
> <PUBCHEM_MONOISOTOPIC_WEIGHT>
497.23330695
> <PUBCHEM_TOTAL_CHARGE>
0
> <PUBCHEM_HEAVY_ATOM_COUNT>
34
> <PUBCHEM_ATOM_DEF_STEREO_COUNT>
10
> <PUBCHEM_ATOM_UDEF_STEREO_COUNT>
1
> <PUBCHEM_BOND_DEF_STEREO_COUNT>
0
> <PUBCHEM_BOND_UDEF_STEREO_COUNT>
0
> <PUBCHEM_ISOTOPIC_ATOM_COUNT>
0
> <PUBCHEM_COMPONENT_COUNT>
1
> <PUBCHEM_CACTVS_TAUTO_COUNT>
-1
> <PUBCHEM_COORDINATE_TYPE>
1
5
255
> <PUBCHEM_BONDANNOTATIONS>
30  13  3
17  2  5
22  2  5
21  27  6
26  28  5
18  4  5
19  5  6
20  6  5
23  7  5
24  8  6
25  9  5
$$$$
