512296
  -OEChem-10302200282D
 34 35  0     1  0  0  0  0  0999 V2000
    2.0000    2.3725    0.0000 Br  0  0  0  0  0  0  0  0  0  0  0  0
    6.5519   -2.9754    0.0000 O   0  0  0  0  0  0  0  0  0  0  0  0
    3.3818   -2.8709    0.0000 O   0  0  0  0  0  0  0  0  0  0  0  0
    7.1962    0.3725    0.0000 O   0  0  0  0  0  0  0  0  0  0  0  0
    5.4641    3.3725    0.0000 O   0  0  0  0  0  0  0  0  0  0  0  0
    5.4641    0.3725    0.0000 N   0  0  0  0  0  0  0  0  0  0  0  0
    6.3301    1.8725    0.0000 N   0  0  0  0  0  0  0  0  0  0  0  0
    4.9641   -2.1664    0.0000 C   0  0  1  0  0  0  0  0  0  0  0  0
    5.4641   -0.6275    0.0000 C   0  0  2  0  0  0  0  0  0  0  0  0
    4.6551   -1.2153    0.0000 C   0  0  0  0  0  0  0  0  0  0  0  0
    5.9641   -2.1664    0.0000 C   0  0  2  0  0  0  0  0  0  0  0  0
    6.2731   -1.2153    0.0000 C   0  0  0  0  0  0  0  0  0  0  0  0
    4.3763   -2.9754    0.0000 C   0  0  0  0  0  0  0  0  0  0  0  0
    4.5981    0.8725    0.0000 C   0  0  0  0  0  0  0  0  0  0  0  0
    6.3301    0.8725    0.0000 C   0  0  0  0  0  0  0  0  0  0  0  0
    4.5981    1.8725    0.0000 C   0  0  0  0  0  0  0  0  0  0  0  0
    5.4641    2.3725    0.0000 C   0  0  0  0  0  0  0  0  0  0  0  0
    3.7320    2.3725    0.0000 C   0  0  0  0  0  0  0  0  0  0  0  0
    2.8660    1.8725    0.0000 C   0  0  0  0  0  0  0  0  0  0  0  0
    5.2456   -2.7188    0.0000 H   0  0  0  0  0  0  0  0  0  0  0  0
    6.0165   -0.3461    0.0000 H   0  0  0  0  0  0  0  0  0  0  0  0
    4.3451   -0.6784    0.0000 H   0  0  0  0  0  0  0  0  0  0  0  0
    4.0887   -1.4675    0.0000 H   0  0  0  0  0  0  0  0  0  0  0  0
    6.5765   -2.0694    0.0000 H   0  0  0  0  0  0  0  0  0  0  0  0
    6.8395   -1.4675    0.0000 H   0  0  0  0  0  0  0  0  0  0  0  0
    6.5831   -0.6784    0.0000 H   0  0  0  0  0  0  0  0  0  0  0  0
    4.2054   -3.5714    0.0000 H   0  0  0  0  0  0  0  0  0  0  0  0
    4.9336   -3.2472    0.0000 H   0  0  0  0  0  0  0  0  0  0  0  0
    7.1685   -2.9106    0.0000 H   0  0  0  0  0  0  0  0  0  0  0  0
    4.0611    0.5625    0.0000 H   0  0  0  0  0  0  0  0  0  0  0  0
    3.0174   -3.3725    0.0000 H   0  0  0  0  0  0  0  0  0  0  0  0
    6.8671    2.1825    0.0000 H   0  0  0  0  0  0  0  0  0  0  0  0
    3.7320    2.9925    0.0000 H   0  0  0  0  0  0  0  0  0  0  0  0
    2.8660    1.2525    0.0000 H   0  0  0  0  0  0  0  0  0  0  0  0
  1 19  1  0  0  0  0
 11  2  1  6  0  0  0
  2 29  1  0  0  0  0
  3 13  1  0  0  0  0
  3 31  1  0  0  0  0
  4 15  2  0  0  0  0
  5 17  2  0  0  0  0
  9  6  1  1  0  0  0
  6 14  1  0  0  0  0
  6 15  1  0  0  0  0
  7 15  1  0  0  0  0
  7 17  1  0  0  0  0
  7 32  1  0  0  0  0
  8 10  1  0  0  0  0
  8 11  1  0  0  0  0
  8 13  1  1  0  0  0
  8 20  1  0  0  0  0
  9 10  1  0  0  0  0
  9 12  1  0  0  0  0
  9 21  1  0  0  0  0
 10 22  1  0  0  0  0
 10 23  1  0  0  0  0
 11 12  1  0  0  0  0
 11 24  1  0  0  0  0
 12 25  1  0  0  0  0
 12 26  1  0  0  0  0
 13 27  1  0  0  0  0
 13 28  1  0  0  0  0
 14 16  2  0  0  0  0
 14 30  1  0  0  0  0
 16 17  1  0  0  0  0
 16 18  1  0  0  0  0
 18 19  2  3  0  0  0
 18 33  1  0  0  0  0
 19 34  1  0  0  0  0
M  END
> <PUBCHEM_COMPOUND_CID>
512296
> <PUBCHEM_COMPOUND_CANONICALIZED>
1
> <PUBCHEM_CACTVS_COMPLEXITY>
449
> <PUBCHEM_CACTVS_HBOND_ACCEPTOR>
4
> <PUBCHEM_CACTVS_HBOND_DONOR>
3
> <PUBCHEM_CACTVS_ROTATABLE_BOND>
3
> <PUBCHEM_CACTVS_SUBSKEYS>
AAADccBzOAAAEAAAAAAAAAAAAAAAAYAAAAAgAAAAAAAAAAAAAAAAHgBQCAABTTzhgAYBAAPAAgCIAiFWUACAAAAgAAAIAAEIAEiIEAIAgQAEQAAPByIAAMGwUAMOAAAAAAAAAAAAAAAAAAAAACEABAAAAA==
> <PUBCHEM_IUPAC_OPENEYE_NAME>
5-(2-bromovinyl)-1-[(1R,3S,4R)-3-hydroxy-4-(hydroxymethyl)cyclopentyl]pyrimidine-2,4-dione
> <PUBCHEM_IUPAC_CAS_NAME>
5-(2-bromoethenyl)-1-[(1R,3S,4R)-3-hydroxy-4-(hydroxymethyl)cyclopentyl]pyrimidine-2,4-dione
> <PUBCHEM_IUPAC_NAME_MARKUP>
5-(2-bromoethenyl)-1-[(1<I>R</I>,3<I>S</I>,4<I>R</I>)-3-hydroxy-4-(hydroxymethyl)cyclopentyl]pyrimidine-2,4-dione
> <PUBCHEM_IUPAC_NAME>
5-(2-bromoethenyl)-1-[(1R,3S,4R)-3-hydroxy-4-(hydroxymethyl)cyclopentyl]pyrimidine-2,4-dione
> <PUBCHEM_IUPAC_SYSTEMATIC_NAME>
5-(2-bromanylethenyl)-1-[(1R,3R,4S)-3-(hydroxymethyl)-4-oxidanyl-cyclopentyl]pyrimidine-2,4-dione
> <PUBCHEM_IUPAC_TRADITIONAL_NAME>
5-(2-bromovinyl)-1-[(1R,3S,4R)-3-hydroxy-4-methylol-cyclopentyl]pyrimidine-2,4-quinone
> <PUBCHEM_IUPAC_INCHI>
InChI=1S/C12H15BrN2O4/c13-2-1-7-5-15(12(19)14-11(7)18)9-3-8(6-16)10(17)4-9/h1-2,5,8-10,16-17H,3-4,6H2,(H,14,18,19)/t8-,9-,10+/m1/s1
> <PUBCHEM_IUPAC_INCHIKEY>
KAVDAMFOTJIBCK-BBBLOLIVSA-N
> <PUBCHEM_XLOGP3_AA>
0.4
> <PUBCHEM_EXACT_MASS>
330.02152
> <PUBCHEM_MOLECULAR_FORMULA>
C12H15BrN2O4
> <PUBCHEM_MOLECULAR_WEIGHT>
331.16
> <PUBCHEM_OPENEYE_CAN_SMILES>
C1C(CC(C1CO)O)N2C=C(C(=O)NC2=O)C=CBr
> <PUBCHEM_OPENEYE_ISO_SMILES>
C1[C@H](C[C@@H]([C@H]1CO)O)N2C=C(C(=O)NC2=O)C=CBr
> <PUBCHEM_CACTVS_TPSA>
89.9
> <PUBCHEM_MONOISOTOPIC_WEIGHT>
330.02152
> <PUBCHEM_TOTAL_CHARGE>
0
> <PUBCHEM_HEAVY_ATOM_COUNT>
19
> <PUBCHEM_ATOM_DEF_STEREO_COUNT>
3
> <PUBCHEM_ATOM_UDEF_STEREO_COUNT>
0
> <PUBCHEM_BOND_DEF_STEREO_COUNT>
0
> <PUBCHEM_BOND_UDEF_STEREO_COUNT>
1
> <PUBCHEM_ISOTOPIC_ATOM_COUNT>
0
> <PUBCHEM_COMPONENT_COUNT>
1
> <PUBCHEM_CACTVS_TAUTO_COUNT>
3
> <PUBCHEM_COORDINATE_TYPE>
1
5
255
> <PUBCHEM_BONDANNOTATIONS>
14  16  8
16  17  8
18  19  1
11  2  6
6  14  8
6  15  8
9  6  5
7  15  8
7  17  8
8  13  5
$$$$
