512280
  -OEChem-10302200282D
 58 59  0     1  0  0  0  0  0999 V2000
    6.0010   -0.9050    0.0000 O   0  0  0  0  0  0  0  0  0  0  0  0
    6.8671   -2.4050    0.0000 O   0  0  0  0  0  0  0  0  0  0  0  0
    5.1350   -2.4050    0.0000 O   0  0  0  0  0  0  0  0  0  0  0  0
    8.5991   -1.4050    0.0000 O   0  0  0  0  0  0  0  0  0  0  0  0
    8.5991    0.5950    0.0000 O   0  0  0  0  0  0  0  0  0  0  0  0
    6.8671    1.5950    0.0000 O   0  0  0  0  0  0  0  0  0  0  0  0
    6.8671   -4.4050    0.0000 O   0  0  0  0  0  0  0  0  0  0  0  0
    5.1350   -5.4050    0.0000 O   0  0  0  0  0  0  0  0  0  0  0  0
    3.4030   -4.4050    0.0000 O   0  0  0  0  0  0  0  0  0  0  0  0
    2.5369   -2.9050    0.0000 O   0  0  0  0  0  0  0  0  0  0  0  0
    3.4030    1.5950    0.0000 O   0  0  0  0  0  0  0  0  0  0  0  0
    5.1350    1.5950    0.0000 N   0  0  0  0  0  0  0  0  0  0  0  0
    3.4030    3.5950    0.0000 N   0  0  0  0  0  0  0  0  0  0  0  0
    2.5369    5.0950    0.0000 N   0  0  0  0  0  0  0  0  0  0  0  0
    4.2690    5.0950    0.0000 N   0  0  0  0  0  0  0  0  0  0  0  0
    6.8671   -1.4050    0.0000 C   0  0  2  0  0  0  0  0  0  0  0  0
    7.7331   -0.9050    0.0000 C   0  0  1  0  0  0  0  0  0  0  0  0
    7.7331    0.0950    0.0000 C   0  0  2  0  0  0  0  0  0  0  0  0
    6.8671    0.5950    0.0000 C   0  0  1  0  0  0  0  0  0  0  0  0
    6.0010    0.0950    0.0000 C   0  0  1  0  0  0  0  0  0  0  0  0
    6.0010   -2.9050    0.0000 C   0  0  2  0  0  0  0  0  0  0  0  0
    6.0010   -3.9050    0.0000 C   0  0  2  0  0  0  0  0  0  0  0  0
    5.1350   -4.4050    0.0000 C   0  0  1  0  0  0  0  0  0  0  0  0
    4.2690   -3.9050    0.0000 C   0  0  2  0  0  0  0  0  0  0  0  0
    4.2690   -2.9050    0.0000 C   0  0  1  0  0  0  0  0  0  0  0  0
    5.1350    0.5950    0.0000 C   0  0  0  0  0  0  0  0  0  0  0  0
    3.4030   -2.4050    0.0000 C   0  0  0  0  0  0  0  0  0  0  0  0
    4.2690    2.0950    0.0000 C   0  0  0  0  0  0  0  0  0  0  0  0
    4.2690    3.0950    0.0000 C   0  0  0  0  0  0  0  0  0  0  0  0
    3.4030    4.5950    0.0000 C   0  0  0  0  0  0  0  0  0  0  0  0
    7.4040   -1.7150    0.0000 H   0  0  0  0  0  0  0  0  0  0  0  0
    8.2700   -0.5950    0.0000 H   0  0  0  0  0  0  0  0  0  0  0  0
    7.7331    0.7150    0.0000 H   0  0  0  0  0  0  0  0  0  0  0  0
    7.4040    0.9050    0.0000 H   0  0  0  0  0  0  0  0  0  0  0  0
    5.4641   -0.2150    0.0000 H   0  0  0  0  0  0  0  0  0  0  0  0
    6.0010   -2.2850    0.0000 H   0  0  0  0  0  0  0  0  0  0  0  0
    6.5380   -3.5950    0.0000 H   0  0  0  0  0  0  0  0  0  0  0  0
    5.6720   -4.7150    0.0000 H   0  0  0  0  0  0  0  0  0  0  0  0
    3.7320   -3.5950    0.0000 H   0  0  0  0  0  0  0  0  0  0  0  0
    4.2690   -2.2850    0.0000 H   0  0  0  0  0  0  0  0  0  0  0  0
    4.5244    0.7027    0.0000 H   0  0  0  0  0  0  0  0  0  0  0  0
    4.9230    0.0124    0.0000 H   0  0  0  0  0  0  0  0  0  0  0  0
    3.8015   -1.9300    0.0000 H   0  0  0  0  0  0  0  0  0  0  0  0
    3.0044   -1.9300    0.0000 H   0  0  0  0  0  0  0  0  0  0  0  0
    9.1360   -1.0950    0.0000 H   0  0  0  0  0  0  0  0  0  0  0  0
    8.5991    1.2150    0.0000 H   0  0  0  0  0  0  0  0  0  0  0  0
    7.4040    1.9050    0.0000 H   0  0  0  0  0  0  0  0  0  0  0  0
    6.8671   -5.0250    0.0000 H   0  0  0  0  0  0  0  0  0  0  0  0
    4.5981   -5.7150    0.0000 H   0  0  0  0  0  0  0  0  0  0  0  0
    3.4030   -5.0250    0.0000 H   0  0  0  0  0  0  0  0  0  0  0  0
    5.6720    1.9050    0.0000 H   0  0  0  0  0  0  0  0  0  0  0  0
    2.0000   -2.5950    0.0000 H   0  0  0  0  0  0  0  0  0  0  0  0
    4.8796    2.9873    0.0000 H   0  0  0  0  0  0  0  0  0  0  0  0
    4.4810    3.6776    0.0000 H   0  0  0  0  0  0  0  0  0  0  0  0
    2.5369    5.7150    0.0000 H   0  0  0  0  0  0  0  0  0  0  0  0
    2.0000    4.7850    0.0000 H   0  0  0  0  0  0  0  0  0  0  0  0
    4.2690    5.7150    0.0000 H   0  0  0  0  0  0  0  0  0  0  0  0
    4.8059    4.7850    0.0000 H   0  0  0  0  0  0  0  0  0  0  0  0
  1 16  1  0  0  0  0
  1 20  1  0  0  0  0
 16  2  1  1  0  0  0
 21  2  1  1  0  0  0
  3 21  1  0  0  0  0
  3 25  1  0  0  0  0
 17  4  1  1  0  0  0
  4 45  1  0  0  0  0
 18  5  1  6  0  0  0
  5 46  1  0  0  0  0
 19  6  1  1  0  0  0
  6 47  1  0  0  0  0
 22  7  1  1  0  0  0
  7 48  1  0  0  0  0
 23  8  1  6  0  0  0
  8 49  1  0  0  0  0
 24  9  1  1  0  0  0
  9 50  1  0  0  0  0
 10 27  1  0  0  0  0
 10 52  1  0  0  0  0
 11 28  2  0  0  0  0
 12 26  1  0  0  0  0
 12 28  1  0  0  0  0
 12 51  1  0  0  0  0
 13 29  1  0  0  0  0
 13 30  2  0  0  0  0
 14 30  1  0  0  0  0
 14 55  1  0  0  0  0
 14 56  1  0  0  0  0
 15 30  1  0  0  0  0
 15 57  1  0  0  0  0
 15 58  1  0  0  0  0
 16 17  1  0  0  0  0
 16 31  1  0  0  0  0
 17 18  1  0  0  0  0
 17 32  1  0  0  0  0
 18 19  1  0  0  0  0
 18 33  1  0  0  0  0
 19 20  1  0  0  0  0
 19 34  1  0  0  0  0
 20 26  1  6  0  0  0
 20 35  1  0  0  0  0
 21 22  1  0  0  0  0
 21 36  1  0  0  0  0
 22 23  1  0  0  0  0
 22 37  1  0  0  0  0
 23 24  1  0  0  0  0
 23 38  1  0  0  0  0
 24 25  1  0  0  0  0
 24 39  1  0  0  0  0
 25 27  1  1  0  0  0
 25 40  1  0  0  0  0
 26 41  1  0  0  0  0
 26 42  1  0  0  0  0
 27 43  1  0  0  0  0
 27 44  1  0  0  0  0
 28 29  1  0  0  0  0
 29 53  1  0  0  0  0
 29 54  1  0  0  0  0
M  END
> <PUBCHEM_COMPOUND_CID>
512280
> <PUBCHEM_COMPOUND_CANONICALIZED>
1
> <PUBCHEM_CACTVS_COMPLEXITY>
607
> <PUBCHEM_CACTVS_HBOND_ACCEPTOR>
12
> <PUBCHEM_CACTVS_HBOND_DONOR>
10
> <PUBCHEM_CACTVS_ROTATABLE_BOND>
7
> <PUBCHEM_CACTVS_SUBSKEYS>
AAADceBzvAAAAAAAAAAAAAAAAAAAAAAAAAAkSAAAAAAAAAAAAAAAHgAQCAAACBTxgAcBCALABgAoAAEQNAAAAAEAAAAAAICIAAATUAIAgAA3QAAHFgCXAAHwcA4AAAAAAAAAAAAAAAAAAAAAAAAAAAAAAA==
> <PUBCHEM_IUPAC_OPENEYE_NAME>
2-guanidino-N-[[(2R,3S,4S,5R,6R)-3,4,5-trihydroxy-6-[(2S,3S,4R,5R,6R)-3,4,5-trihydroxy-6-(hydroxymethyl)tetrahydropyran-2-yl]oxy-tetrahydropyran-2-yl]methyl]acetamide
> <PUBCHEM_IUPAC_CAS_NAME>
2-(diaminomethylideneamino)-N-[[(2R,3S,4S,5R,6R)-3,4,5-trihydroxy-6-[[(2S,3S,4R,5R,6R)-3,4,5-trihydroxy-6-(hydroxymethyl)-2-oxanyl]oxy]-2-oxanyl]methyl]acetamide
> <PUBCHEM_IUPAC_NAME_MARKUP>
2-(diaminomethylideneamino)-<I>N</I>-[[(2<I>R</I>,3<I>S</I>,4<I>S</I>,5<I>R</I>,6<I>R</I>)-3,4,5-trihydroxy-6-[(2<I>S</I>,3<I>S</I>,4<I>R</I>,5<I>R</I>,6<I>R</I>)-3,4,5-trihydroxy-6-(hydroxymethyl)oxan-2-yl]oxyoxan-2-yl]methyl]acetamide
> <PUBCHEM_IUPAC_NAME>
2-(diaminomethylideneamino)-N-[[(2R,3S,4S,5R,6R)-3,4,5-trihydroxy-6-[(2S,3S,4R,5R,6R)-3,4,5-trihydroxy-6-(hydroxymethyl)oxan-2-yl]oxyoxan-2-yl]methyl]acetamide
> <PUBCHEM_IUPAC_SYSTEMATIC_NAME>
2-[bis(azanyl)methylideneamino]-N-[[(2R,3S,4S,5R,6R)-6-[(2S,3S,4R,5R,6R)-6-(hydroxymethyl)-3,4,5-tris(oxidanyl)oxan-2-yl]oxy-3,4,5-tris(oxidanyl)oxan-2-yl]methyl]ethanamide
> <PUBCHEM_IUPAC_TRADITIONAL_NAME>
2-guanidino-N-[[(2R,3S,4S,5R,6R)-3,4,5-trihydroxy-6-[(2S,3S,4R,5R,6R)-3,4,5-trihydroxy-6-methylol-tetrahydropyran-2-yl]oxy-tetrahydropyran-2-yl]methyl]acetamide
> <PUBCHEM_IUPAC_INCHI>
InChI=1S/C15H28N4O11/c16-15(17)19-2-6(21)18-1-4-7(22)9(24)11(26)13(28-4)30-14-12(27)10(25)8(23)5(3-20)29-14/h4-5,7-14,20,22-27H,1-3H2,(H,18,21)(H4,16,17,19)/t4-,5-,7-,8+,9+,10-,11-,12+,13-,14+/m1/s1
> <PUBCHEM_IUPAC_INCHIKEY>
SJAYWDXQFUVEMJ-BNPYQMAMSA-N
> <PUBCHEM_XLOGP3_AA>
-5.5
> <PUBCHEM_EXACT_MASS>
440.17545772
> <PUBCHEM_MOLECULAR_FORMULA>
C15H28N4O11
> <PUBCHEM_MOLECULAR_WEIGHT>
440.40
> <PUBCHEM_OPENEYE_CAN_SMILES>
C(C1C(C(C(C(O1)OC2C(C(C(C(O2)CO)O)O)O)O)O)O)NC(=O)CN=C(N)N
> <PUBCHEM_OPENEYE_ISO_SMILES>
C([C@@H]1[C@H]([C@@H]([C@H]([C@H](O1)O[C@H]2[C@H]([C@@H]([C@H]([C@H](O2)CO)O)O)O)O)O)O)NC(=O)CN=C(N)N
> <PUBCHEM_CACTVS_TPSA>
263
> <PUBCHEM_MONOISOTOPIC_WEIGHT>
440.17545772
> <PUBCHEM_TOTAL_CHARGE>
0
> <PUBCHEM_HEAVY_ATOM_COUNT>
30
> <PUBCHEM_ATOM_DEF_STEREO_COUNT>
10
> <PUBCHEM_ATOM_UDEF_STEREO_COUNT>
0
> <PUBCHEM_BOND_DEF_STEREO_COUNT>
0
> <PUBCHEM_BOND_UDEF_STEREO_COUNT>
0
> <PUBCHEM_ISOTOPIC_ATOM_COUNT>
0
> <PUBCHEM_COMPONENT_COUNT>
1
> <PUBCHEM_CACTVS_TAUTO_COUNT>
-1
> <PUBCHEM_COORDINATE_TYPE>
1
5
255
> <PUBCHEM_BONDANNOTATIONS>
16  2  5
21  2  5
20  26  6
25  27  5
17  4  5
18  5  6
19  6  5
22  7  5
23  8  6
24  9  5
$$$$
