512288
  -OEChem-10302200282D
120127  0     1  0  0  0  0  0999 V2000
   14.7112    2.2180    0.0000 P   0  0  3  0  0  0  0  0  0  0  0  0
   16.2936    1.5135    0.0000 P   0  0  3  0  0  0  0  0  0  0  0  0
   17.8759    0.8090    0.0000 P   0  0  0  0  0  0  0  0  0  0  0  0
   12.8502    4.6826    0.0000 O   0  0  0  0  0  0  0  0  0  0  0  0
    4.4086   11.6950    0.0000 O   0  0  0  0  0  0  0  0  0  0  0  0
   14.1235    3.0270    0.0000 O   0  0  0  0  0  0  0  0  0  0  0  0
   13.7732    6.2703    0.0000 O   0  0  0  0  0  0  0  0  0  0  0  0
   15.2990    1.4090    0.0000 O   0  0  0  0  0  0  0  0  0  0  0  0
   13.4738   15.1958    0.0000 O   0  0  0  0  0  0  0  0  0  0  0  0
   15.5203    2.8058    0.0000 O   0  0  0  0  0  0  0  0  0  0  0  0
   12.0412    9.2703    0.0000 O   0  0  0  0  0  0  0  0  0  0  0  0
   13.9022    1.6302    0.0000 O   0  0  0  0  0  0  0  0  0  0  0  0
   16.0722   14.6365    0.0000 O   0  0  0  0  0  0  0  0  0  0  0  0
   17.2881    1.6180    0.0000 O   0  0  0  0  0  0  0  0  0  0  0  0
   16.3981    0.5190    0.0000 O   0  0  0  0  0  0  0  0  0  0  0  0
   16.1890    2.5080    0.0000 O   0  0  0  0  0  0  0  0  0  0  0  0
   18.4636    0.0000    0.0000 O   0  0  0  0  0  0  0  0  0  0  0  0
   18.6849    1.3968    0.0000 O   0  0  0  0  0  0  0  0  0  0  0  0
   17.0668    0.2212    0.0000 O   0  0  0  0  0  0  0  0  0  0  0  0
    3.4747    8.6033    0.0000 N   0  0  0  0  0  0  0  0  0  0  0  0
    1.8212    8.3171    0.0000 N   0  0  0  0  0  0  0  0  0  0  0  0
    2.9747   10.7940    0.0000 N   0  0  0  0  0  0  0  0  0  0  0  0
    5.1283    8.3170    0.0000 N   0  0  0  0  0  0  0  0  0  0  0  0
   12.0412    6.2703    0.0000 N   0  0  0  0  0  0  0  0  0  0  0  0
   10.9534    2.9225    0.0000 N   0  0  0  0  0  0  0  0  0  0  0  0
   12.9072    7.7703    0.0000 N   0  0  0  0  0  0  0  0  0  0  0  0
    9.9588    3.0270    0.0000 N   0  3  0  0  0  0  0  0  0  0  0  0
   13.9738   13.0052    0.0000 N   0  0  0  0  0  0  0  0  0  0  0  0
    8.9643    3.1315    0.0000 N   0  5  0  0  0  0  0  0  0  0  0  0
   12.3203   12.7189    0.0000 N   0  0  0  0  0  0  0  0  0  0  0  0
    3.4747    7.6033    0.0000 C   0  0  0  0  0  0  0  0  0  0  0  0
    2.9747    6.7373    0.0000 C   0  0  0  0  0  0  0  0  0  0  0  0
    3.9747    6.7373    0.0000 C   0  0  0  0  0  0  0  0  0  0  0  0
    2.5738    9.0372    0.0000 C   0  0  0  0  0  0  0  0  0  0  0  0
    4.3757    9.0372    0.0000 C   0  0  0  0  0  0  0  0  0  0  0  0
    2.3513   10.0122    0.0000 C   0  0  0  0  0  0  0  0  0  0  0  0
    4.5982   10.0121    0.0000 C   0  0  0  0  0  0  0  0  0  0  0  0
   11.5412    3.7315    0.0000 C   0  0  2  0  0  0  0  0  0  0  0  0
   12.5412    3.7315    0.0000 C   0  0  1  0  0  0  0  0  0  0  0  0
    3.9748   10.7940    0.0000 C   0  0  0  0  0  0  0  0  0  0  0  0
   11.2321    4.6826    0.0000 C   0  0  0  0  0  0  0  0  0  0  0  0
    1.3608   10.3345    0.0000 C   0  0  0  0  0  0  0  0  0  0  0  0
   12.0412    5.2703    0.0000 C   0  0  1  0  0  0  0  0  0  0  0  0
    5.5887   10.3345    0.0000 C   0  0  0  0  0  0  0  0  0  0  0  0
    0.8235    8.6164    0.0000 C   0  0  0  0  0  0  0  0  0  0  0  0
    0.5917    9.6319    0.0000 C   0  0  0  0  0  0  0  0  0  0  0  0
    6.1259    8.6164    0.0000 C   0  0  0  0  0  0  0  0  0  0  0  0
   13.1289    2.9225    0.0000 C   0  0  0  0  0  0  0  0  0  0  0  0
    6.3578    9.6319    0.0000 C   0  0  0  0  0  0  0  0  0  0  0  0
    1.1495   11.3119    0.0000 C   0  0  0  0  0  0  0  0  0  0  0  0
   11.1751    6.7703    0.0000 C   0  0  0  0  0  0  0  0  0  0  0  0
   12.9072    6.7703    0.0000 C   0  0  0  0  0  0  0  0  0  0  0  0
   11.1751    7.7703    0.0000 C   0  0  0  0  0  0  0  0  0  0  0  0
   12.0412    8.2703    0.0000 C   0  0  0  0  0  0  0  0  0  0  0  0
   14.4738   15.1958    0.0000 C   0  0  1  0  0  0  0  0  0  0  0  0
   10.3091    8.2703    0.0000 C   0  0  0  0  0  0  0  0  0  0  0  0
   14.4738   16.1958    0.0000 C   0  0  0  0  0  0  0  0  0  0  0  0
   15.0973   14.4140    0.0000 C   0  0  0  0  0  0  0  0  0  0  0  0
   15.2557   15.8193    0.0000 C   0  0  0  0  0  0  0  0  0  0  0  0
   14.8748   13.4390    0.0000 C   0  0  0  0  0  0  0  0  0  0  0  0
   12.8503   14.4140    0.0000 C   0  0  0  0  0  0  0  0  0  0  0  0
   13.0729   13.4390    0.0000 C   0  0  0  0  0  0  0  0  0  0  0  0
   13.6078   16.6958    0.0000 C   0  0  0  0  0  0  0  0  0  0  0  0
   15.5599   12.7187    0.0000 C   0  0  0  0  0  0  0  0  0  0  0  0
   15.1066   16.8081    0.0000 C   0  0  0  0  0  0  0  0  0  0  0  0
   16.1865   15.4540    0.0000 C   0  0  0  0  0  0  0  0  0  0  0  0
   14.1098   12.0204    0.0000 C   0  0  0  0  0  0  0  0  0  0  0  0
   15.0881   11.8438    0.0000 C   0  0  0  0  0  0  0  0  0  0  0  0
   11.8598   14.7363    0.0000 C   0  0  0  0  0  0  0  0  0  0  0  0
   15.8884   17.4316    0.0000 C   0  0  0  0  0  0  0  0  0  0  0  0
   16.9684   16.0774    0.0000 C   0  0  0  0  0  0  0  0  0  0  0  0
   16.8193   17.0663    0.0000 C   0  0  0  0  0  0  0  0  0  0  0  0
   11.0908   14.0337    0.0000 C   0  0  0  0  0  0  0  0  0  0  0  0
   11.3226   13.0182    0.0000 C   0  0  0  0  0  0  0  0  0  0  0  0
    4.0736    7.7638    0.0000 H   0  0  0  0  0  0  0  0  0  0  0  0
    2.3921    6.9494    0.0000 H   0  0  0  0  0  0  0  0  0  0  0  0
    2.8671    6.1267    0.0000 H   0  0  0  0  0  0  0  0  0  0  0  0
    4.0824    6.1267    0.0000 H   0  0  0  0  0  0  0  0  0  0  0  0
    4.5573    6.9494    0.0000 H   0  0  0  0  0  0  0  0  0  0  0  0
   10.9288    3.8285    0.0000 H   0  0  0  0  0  0  0  0  0  0  0  0
   13.1535    3.8285    0.0000 H   0  0  0  0  0  0  0  0  0  0  0  0
    2.7058   11.3526    0.0000 H   0  0  0  0  0  0  0  0  0  0  0  0
   10.9221    5.2195    0.0000 H   0  0  0  0  0  0  0  0  0  0  0  0
   10.6657    4.4304    0.0000 H   0  0  0  0  0  0  0  0  0  0  0  0
   11.4887    5.5518    0.0000 H   0  0  0  0  0  0  0  0  0  0  0  0
    5.7197   10.9405    0.0000 H   0  0  0  0  0  0  0  0  0  0  0  0
    0.3707    8.1930    0.0000 H   0  0  0  0  0  0  0  0  0  0  0  0
    0.0000    9.8170    0.0000 H   0  0  0  0  0  0  0  0  0  0  0  0
   12.5717    2.6507    0.0000 H   0  0  0  0  0  0  0  0  0  0  0  0
   13.2998    2.3265    0.0000 H   0  0  0  0  0  0  0  0  0  0  0  0
    6.5788    8.1929    0.0000 H   0  0  0  0  0  0  0  0  0  0  0  0
    6.9495    9.8169    0.0000 H   0  0  0  0  0  0  0  0  0  0  0  0
    1.7555   11.4429    0.0000 H   0  0  0  0  0  0  0  0  0  0  0  0
    1.0186   11.9180    0.0000 H   0  0  0  0  0  0  0  0  0  0  0  0
    0.5435   11.1810    0.0000 H   0  0  0  0  0  0  0  0  0  0  0  0
   10.6382    6.4603    0.0000 H   0  0  0  0  0  0  0  0  0  0  0  0
   13.4441    8.0803    0.0000 H   0  0  0  0  0  0  0  0  0  0  0  0
   10.6191    8.8073    0.0000 H   0  0  0  0  0  0  0  0  0  0  0  0
    9.7722    8.5803    0.0000 H   0  0  0  0  0  0  0  0  0  0  0  0
    9.9991    7.7334    0.0000 H   0  0  0  0  0  0  0  0  0  0  0  0
   15.0844   16.0881    0.0000 H   0  0  0  0  0  0  0  0  0  0  0  0
   14.6859   16.7784    0.0000 H   0  0  0  0  0  0  0  0  0  0  0  0
   15.4555    3.4224    0.0000 H   0  0  0  0  0  0  0  0  0  0  0  0
   13.9178   17.2327    0.0000 H   0  0  0  0  0  0  0  0  0  0  0  0
   13.0709   17.0058    0.0000 H   0  0  0  0  0  0  0  0  0  0  0  0
   13.2978   16.1589    0.0000 H   0  0  0  0  0  0  0  0  0  0  0  0
   16.1744   12.8009    0.0000 H   0  0  0  0  0  0  0  0  0  0  0  0
   14.5295   17.0346    0.0000 H   0  0  0  0  0  0  0  0  0  0  0  0
   16.2789   14.8409    0.0000 H   0  0  0  0  0  0  0  0  0  0  0  0
   13.6624   11.5912    0.0000 H   0  0  0  0  0  0  0  0  0  0  0  0
   15.3571   11.2852    0.0000 H   0  0  0  0  0  0  0  0  0  0  0  0
   11.7289   15.3423    0.0000 H   0  0  0  0  0  0  0  0  0  0  0  0
   15.7960   18.0447    0.0000 H   0  0  0  0  0  0  0  0  0  0  0  0
   17.5455   15.8509    0.0000 H   0  0  0  0  0  0  0  0  0  0  0  0
   17.3041   17.4528    0.0000 H   0  0  0  0  0  0  0  0  0  0  0  0
   10.4991   14.2188    0.0000 H   0  0  0  0  0  0  0  0  0  0  0  0
   10.8697   12.5948    0.0000 H   0  0  0  0  0  0  0  0  0  0  0  0
   15.8965    0.1546    0.0000 H   0  0  0  0  0  0  0  0  0  0  0  0
   19.0803    0.0648    0.0000 H   0  0  0  0  0  0  0  0  0  0  0  0
   18.6201    2.0134    0.0000 H   0  0  0  0  0  0  0  0  0  0  0  0
  1  6  1  0  0  0  0
  1  8  1  0  0  0  0
  1 10  1  0  0  0  0
  1 12  2  0  0  0  0
  2  8  1  0  0  0  0
  2 14  1  0  0  0  0
  2 15  1  0  0  0  0
  2 16  2  0  0  0  0
  3 14  1  0  0  0  0
  3 17  1  0  0  0  0
  3 18  1  0  0  0  0
  3 19  2  0  0  0  0
  4 39  1  0  0  0  0
  4 43  1  0  0  0  0
  5 40  2  0  0  0  0
  6 48  1  0  0  0  0
  7 52  2  0  0  0  0
  9 55  1  0  0  0  0
  9 61  1  0  0  0  0
 10103  1  0  0  0  0
 11 54  2  0  0  0  0
 13 58  2  0  0  0  0
 15118  1  0  0  0  0
 17119  1  0  0  0  0
 18120  1  0  0  0  0
 20 31  1  0  0  0  0
 20 34  1  0  0  0  0
 20 35  1  0  0  0  0
 21 34  2  0  0  0  0
 21 45  1  0  0  0  0
 22 36  1  0  0  0  0
 22 40  1  0  0  0  0
 22 82  1  0  0  0  0
 23 35  1  0  0  0  0
 23 47  2  0  0  0  0
 43 24  1  6  0  0  0
 24 51  1  0  0  0  0
 24 52  1  0  0  0  0
 25 27  2  0  0  0  0
 38 25  1  1  0  0  0
 26 52  1  0  0  0  0
 26 54  1  0  0  0  0
 26 97  1  0  0  0  0
 27 29  2  0  0  0  0
 28 60  1  0  0  0  0
 28 62  1  0  0  0  0
 28 67  1  0  0  0  0
 30 62  1  0  0  0  0
 30 74  2  0  0  0  0
 31 32  1  0  0  0  0
 31 33  1  0  0  0  0
 31 75  1  0  0  0  0
 32 33  1  0  0  0  0
 32 76  1  0  0  0  0
 32 77  1  0  0  0  0
 33 78  1  0  0  0  0
 33 79  1  0  0  0  0
 34 36  1  0  0  0  0
 35 37  2  0  0  0  0
 36 42  2  0  0  0  0
 37 40  1  0  0  0  0
 37 44  1  0  0  0  0
 38 39  1  0  0  0  0
 38 41  1  0  0  0  0
 38 80  1  0  0  0  0
 39 48  1  6  0  0  0
 39 81  1  0  0  0  0
 41 43  1  0  0  0  0
 41 83  1  0  0  0  0
 41 84  1  0  0  0  0
 42 46  1  0  0  0  0
 42 50  1  0  0  0  0
 43 85  1  0  0  0  0
 44 49  2  0  0  0  0
 44 86  1  0  0  0  0
 45 46  2  0  0  0  0
 45 87  1  0  0  0  0
 46 88  1  0  0  0  0
 47 49  1  0  0  0  0
 47 91  1  0  0  0  0
 48 89  1  0  0  0  0
 48 90  1  0  0  0  0
 49 92  1  0  0  0  0
 50 93  1  0  0  0  0
 50 94  1  0  0  0  0
 50 95  1  0  0  0  0
 51 53  2  0  0  0  0
 51 96  1  0  0  0  0
 53 54  1  0  0  0  0
 53 56  1  0  0  0  0
 55 57  1  1  0  0  0
 55 58  1  0  0  0  0
 55 59  1  0  0  0  0
 56 98  1  0  0  0  0
 56 99  1  0  0  0  0
 56100  1  0  0  0  0
 57 63  1  0  0  0  0
 57101  1  0  0  0  0
 57102  1  0  0  0  0
 58 60  1  0  0  0  0
 59 65  2  0  0  0  0
 59 66  1  0  0  0  0
 60 64  2  0  0  0  0
 61 62  2  0  0  0  0
 61 69  1  0  0  0  0
 63104  1  0  0  0  0
 63105  1  0  0  0  0
 63106  1  0  0  0  0
 64 68  1  0  0  0  0
 64107  1  0  0  0  0
 65 70  1  0  0  0  0
 65108  1  0  0  0  0
 66 71  2  0  0  0  0
 66109  1  0  0  0  0
 67 68  2  0  0  0  0
 67110  1  0  0  0  0
 68111  1  0  0  0  0
 69 73  2  0  0  0  0
 69112  1  0  0  0  0
 70 72  2  0  0  0  0
 70113  1  0  0  0  0
 71 72  1  0  0  0  0
 71114  1  0  0  0  0
 72115  1  0  0  0  0
 73 74  1  0  0  0  0
 73116  1  0  0  0  0
 74117  1  0  0  0  0
M  CHG  2  27   1  29  -1
M  END
> <PUBCHEM_COMPOUND_CID>
512288
> <PUBCHEM_COMPOUND_CANONICALIZED>
1
> <PUBCHEM_CACTVS_COMPLEXITY>
1820
> <PUBCHEM_CACTVS_HBOND_ACCEPTOR>
22
> <PUBCHEM_CACTVS_HBOND_DONOR>
6
> <PUBCHEM_CACTVS_ROTATABLE_BOND>
12
> <PUBCHEM_CACTVS_SUBSKEYS>
AAADcfB//gMAAAAAAAAAAAAAGAAAAWJAAAA8WLECBYsAAACx/gAAHgAYCCAADHzhngY/9pPMFRCqQ7d3dIaCiCk3ciAJ2CH/fNiPZvrE/b+fOajuxzPa6ee4+eKOgAAAAAAAAAAAAAAAAAAAAAAAAAAAAA==
> <PUBCHEM_IUPAC_OPENEYE_NAME>
[[(2S,3S,5R)-3-azido-5-(5-methyl-2,4-dioxo-pyrimidin-1-yl)tetrahydrofuran-2-yl]methoxy-hydroxy-phosphoryl] phosphono hydrogen phosphate;2-cyclopropyl-7-methyl-2,4,9,15-tetrazatricyclo[9.4.0.03,8]pentadeca-1(11),3,5,7,12,14-hexaen-10-one;(8R)-8-ethyl-8-phenyl-9-oxa-2,14-diazatricyclo[8.4.0.02,6]tetradeca-1(10),3,5,11,13-pentaen-7-one
> <PUBCHEM_IUPAC_CAS_NAME>
[[(2S,3S,5R)-3-azido-5-(5-methyl-2,4-dioxo-1-pyrimidinyl)-2-oxolanyl]methoxy-hydroxyphosphoryl] phosphono hydrogen phosphate;2-cyclopropyl-7-methyl-2,4,9,15-tetrazatricyclo[9.4.0.03,8]pentadeca-1(11),3,5,7,12,14-hexaen-10-one;(8R)-8-ethyl-8-phenyl-9-oxa-2,14-diazatricyclo[8.4.0.02,6]tetradeca-1(10),3,5,11,13-pentaen-7-one
> <PUBCHEM_IUPAC_NAME_MARKUP>
[[(2<I>S</I>,3<I>S</I>,5<I>R</I>)-3-azido-5-(5-methyl-2,4-dioxopyrimidin-1-yl)oxolan-2-yl]methoxy-hydroxyphosphoryl] phosphono hydrogen phosphate;2-cyclopropyl-7-methyl-2,4,9,15-tetrazatricyclo[9.4.0.0<SUP>3,8</SUP>]pentadeca-1(11),3,5,7,12,14-hexaen-10-one;(8<I>R</I>)-8-ethyl-8-phenyl-9-oxa-2,14-diazatricyclo[8.4.0.0<SUP>2,6</SUP>]tetradeca-1(10),3,5,11,13-pentaen-7-one
> <PUBCHEM_IUPAC_NAME>
[[(2S,3S,5R)-3-azido-5-(5-methyl-2,4-dioxopyrimidin-1-yl)oxolan-2-yl]methoxy-hydroxyphosphoryl] phosphono hydrogen phosphate;2-cyclopropyl-7-methyl-2,4,9,15-tetrazatricyclo[9.4.0.03,8]pentadeca-1(11),3,5,7,12,14-hexaen-10-one;(8R)-8-ethyl-8-phenyl-9-oxa-2,14-diazatricyclo[8.4.0.02,6]tetradeca-1(10),3,5,11,13-pentaen-7-one
> <PUBCHEM_IUPAC_SYSTEMATIC_NAME>
[[(2S,3S,5R)-3-azido-5-[5-methyl-2,4-bis(oxidanylidene)pyrimidin-1-yl]oxolan-2-yl]methoxy-oxidanyl-phosphoryl] phosphono hydrogen phosphate;2-cyclopropyl-7-methyl-2,4,9,15-tetrazatricyclo[9.4.0.03,8]pentadeca-1(11),3,5,7,12,14-hexaen-10-one;(8R)-8-ethyl-8-phenyl-9-oxa-2,14-diazatricyclo[8.4.0.02,6]tetradeca-1(10),3,5,11,13-pentaen-7-one
> <PUBCHEM_IUPAC_TRADITIONAL_NAME>
[[(2S,3S,5R)-3-azido-5-(2,4-diketo-5-methyl-pyrimidin-1-yl)tetrahydrofuran-2-yl]methoxy-hydroxy-phosphoryl] phosphono hydrogen phosphate;2-cyclopropyl-7-methyl-2,4,9,15-tetrazatricyclo[9.4.0.03,8]pentadeca-1(11),3,5,7,12,14-hexaen-10-one;(8R)-8-ethyl-8-phenyl-9-oxa-2,14-diazatricyclo[8.4.0.02,6]tetradeca-1(10),3,5,11,13-pentaen-7-one
> <PUBCHEM_IUPAC_INCHI>
InChI=1S/C19H16N2O2.C15H14N4O.C10H16N5O13P3/c1-2-19(14-8-4-3-5-9-14)17(22)15-10-7-13-21(15)18-16(23-19)11-6-12-20-18;1-9-6-8-17-14-12(9)18-15(20)11-3-2-7-16-13(11)19(14)10-4-5-10;1-5-3-15(10(17)12-9(5)16)8-2-6(13-14-11)7(26-8)4-25-30(21,22)28-31(23,24)27-29(18,19)20/h3-13H,2H2,1H3;2-3,6-8,10H,4-5H2,1H3,(H,18,20);3,6-8H,2,4H2,1H3,(H,21,22)(H,23,24)(H,12,16,17)(H2,18,19,20)/t19-;;6-,7+,8+/m1.0/s1
> <PUBCHEM_IUPAC_INCHIKEY>
RDVYJVSPFZRYDG-HFGUMCEOSA-N
> <PUBCHEM_EXACT_MASS>
1077.23368542
> <PUBCHEM_MOLECULAR_FORMULA>
C44H46N11O16P3
> <PUBCHEM_MOLECULAR_WEIGHT>
1077.8
> <PUBCHEM_OPENEYE_CAN_SMILES>
CCC1(C(=O)C2=CC=CN2C3=C(O1)C=CC=N3)C4=CC=CC=C4.CC1=C2C(=NC=C1)N(C3=C(C=CC=N3)C(=O)N2)C4CC4.CC1=CN(C(=O)NC1=O)C2CC(C(O2)COP(=O)(O)OP(=O)(O)OP(=O)(O)O)N=[N+]=[N-]
> <PUBCHEM_OPENEYE_ISO_SMILES>
CC[C@]1(C(=O)C2=CC=CN2C3=C(O1)C=CC=N3)C4=CC=CC=C4.CC1=C2C(=NC=C1)N(C3=C(C=CC=N3)C(=O)N2)C4CC4.CC1=CN(C(=O)NC1=O)[C@H]2C[C@@H]([C@H](O2)COP(=O)(O)OP(=O)(O)OP(=O)(O)O)N=[N+]=[N-]
> <PUBCHEM_CACTVS_TPSA>
335
> <PUBCHEM_MONOISOTOPIC_WEIGHT>
1077.23368542
> <PUBCHEM_TOTAL_CHARGE>
0
> <PUBCHEM_HEAVY_ATOM_COUNT>
74
> <PUBCHEM_ATOM_DEF_STEREO_COUNT>
4
> <PUBCHEM_ATOM_UDEF_STEREO_COUNT>
0
> <PUBCHEM_BOND_DEF_STEREO_COUNT>
0
> <PUBCHEM_BOND_UDEF_STEREO_COUNT>
0
> <PUBCHEM_ISOTOPIC_ATOM_COUNT>
0
> <PUBCHEM_COMPONENT_COUNT>
3
> <PUBCHEM_CACTVS_TAUTO_COUNT>
-1
> <PUBCHEM_COORDINATE_TYPE>
1
5
255
> <PUBCHEM_BONDANNOTATIONS>
21  34  8
21  45  8
23  35  8
23  47  8
43  24  6
24  51  8
24  52  8
38  25  5
26  52  8
26  54  8
28  60  8
28  67  8
30  62  8
30  74  8
34  36  8
35  37  8
36  42  8
37  44  8
39  48  6
42  46  8
44  49  8
45  46  8
47  49  8
51  53  8
53  54  8
55  57  5
59  65  8
59  66  8
60  64  8
61  62  8
61  69  8
64  68  8
65  70  8
66  71  8
67  68  8
69  73  8
70  72  8
71  72  8
73  74  8
$$$$
