512287
  -OEChem-10302200282D
 86 90  0     1  0  0  0  0  0999 V2000
    5.7469    2.2180    0.0000 P   0  0  3  0  0  0  0  0  0  0  0  0
    7.3292    1.5135    0.0000 P   0  0  3  0  0  0  0  0  0  0  0  0
    8.9115    0.8090    0.0000 P   0  0  0  0  0  0  0  0  0  0  0  0
    3.8858    4.6826    0.0000 O   0  0  0  0  0  0  0  0  0  0  0  0
    5.1591    3.0270    0.0000 O   0  0  0  0  0  0  0  0  0  0  0  0
    4.5095   15.1873    0.0000 O   0  0  0  0  0  0  0  0  0  0  0  0
    4.8089    6.2703    0.0000 O   0  0  0  0  0  0  0  0  0  0  0  0
    6.3347    1.4090    0.0000 O   0  0  0  0  0  0  0  0  0  0  0  0
    6.5559    2.8058    0.0000 O   0  0  0  0  0  0  0  0  0  0  0  0
    3.0768    9.2703    0.0000 O   0  0  0  0  0  0  0  0  0  0  0  0
    4.9379    1.6302    0.0000 O   0  0  0  0  0  0  0  0  0  0  0  0
    7.1079   14.6280    0.0000 O   0  0  0  0  0  0  0  0  0  0  0  0
    8.3238    1.6180    0.0000 O   0  0  0  0  0  0  0  0  0  0  0  0
    7.4338    0.5190    0.0000 O   0  0  0  0  0  0  0  0  0  0  0  0
    7.2247    2.5080    0.0000 O   0  0  0  0  0  0  0  0  0  0  0  0
    9.4993    0.0000    0.0000 O   0  0  0  0  0  0  0  0  0  0  0  0
    9.7206    1.3968    0.0000 O   0  0  0  0  0  0  0  0  0  0  0  0
    8.1025    0.2212    0.0000 O   0  0  0  0  0  0  0  0  0  0  0  0
    3.0768    6.2703    0.0000 N   0  0  0  0  0  0  0  0  0  0  0  0
    1.9890    2.9225    0.0000 N   0  0  0  0  0  0  0  0  0  0  0  0
    3.9428    7.7703    0.0000 N   0  0  0  0  0  0  0  0  0  0  0  0
    0.9945    3.0270    0.0000 N   0  3  0  0  0  0  0  0  0  0  0  0
    5.0095   12.9967    0.0000 N   0  0  0  0  0  0  0  0  0  0  0  0
    3.3560   12.7104    0.0000 N   0  0  0  0  0  0  0  0  0  0  0  0
    0.0000    3.1315    0.0000 N   0  5  0  0  0  0  0  0  0  0  0  0
    2.5768    3.7315    0.0000 C   0  0  2  0  0  0  0  0  0  0  0  0
    3.5768    3.7315    0.0000 C   0  0  1  0  0  0  0  0  0  0  0  0
    2.2678    4.6826    0.0000 C   0  0  0  0  0  0  0  0  0  0  0  0
    3.0768    5.2703    0.0000 C   0  0  1  0  0  0  0  0  0  0  0  0
    4.1646    2.9225    0.0000 C   0  0  0  0  0  0  0  0  0  0  0  0
    2.2108    6.7703    0.0000 C   0  0  0  0  0  0  0  0  0  0  0  0
    3.9428    6.7703    0.0000 C   0  0  0  0  0  0  0  0  0  0  0  0
    5.5095   15.1873    0.0000 C   0  0  1  0  0  0  0  0  0  0  0  0
    2.2108    7.7703    0.0000 C   0  0  0  0  0  0  0  0  0  0  0  0
    3.0768    8.2703    0.0000 C   0  0  0  0  0  0  0  0  0  0  0  0
    5.5095   16.1873    0.0000 C   0  0  0  0  0  0  0  0  0  0  0  0
    6.1330   14.4055    0.0000 C   0  0  0  0  0  0  0  0  0  0  0  0
    6.2913   15.8108    0.0000 C   0  0  0  0  0  0  0  0  0  0  0  0
    5.9105   13.4306    0.0000 C   0  0  0  0  0  0  0  0  0  0  0  0
    1.3448    8.2703    0.0000 C   0  0  0  0  0  0  0  0  0  0  0  0
    3.8860   14.4055    0.0000 C   0  0  0  0  0  0  0  0  0  0  0  0
    4.1085   13.4306    0.0000 C   0  0  0  0  0  0  0  0  0  0  0  0
    4.6435   16.6873    0.0000 C   0  0  0  0  0  0  0  0  0  0  0  0
    6.5956   12.7103    0.0000 C   0  0  0  0  0  0  0  0  0  0  0  0
    6.1423   16.7997    0.0000 C   0  0  0  0  0  0  0  0  0  0  0  0
    7.2222   15.4455    0.0000 C   0  0  0  0  0  0  0  0  0  0  0  0
    5.1455   12.0120    0.0000 C   0  0  0  0  0  0  0  0  0  0  0  0
    6.1238   11.8353    0.0000 C   0  0  0  0  0  0  0  0  0  0  0  0
    2.8955   14.7278    0.0000 C   0  0  0  0  0  0  0  0  0  0  0  0
    6.9241   17.4231    0.0000 C   0  0  0  0  0  0  0  0  0  0  0  0
    8.0040   16.0690    0.0000 C   0  0  0  0  0  0  0  0  0  0  0  0
    7.8550   17.0578    0.0000 C   0  0  0  0  0  0  0  0  0  0  0  0
    2.1265   14.0253    0.0000 C   0  0  0  0  0  0  0  0  0  0  0  0
    2.3583   13.0097    0.0000 C   0  0  0  0  0  0  0  0  0  0  0  0
    1.9645    3.8285    0.0000 H   0  0  0  0  0  0  0  0  0  0  0  0
    4.1892    3.8285    0.0000 H   0  0  0  0  0  0  0  0  0  0  0  0
    1.9578    5.2195    0.0000 H   0  0  0  0  0  0  0  0  0  0  0  0
    1.7014    4.4304    0.0000 H   0  0  0  0  0  0  0  0  0  0  0  0
    2.5244    5.5518    0.0000 H   0  0  0  0  0  0  0  0  0  0  0  0
    3.6074    2.6507    0.0000 H   0  0  0  0  0  0  0  0  0  0  0  0
    4.3355    2.3265    0.0000 H   0  0  0  0  0  0  0  0  0  0  0  0
    1.6739    6.4603    0.0000 H   0  0  0  0  0  0  0  0  0  0  0  0
    4.4798    8.0803    0.0000 H   0  0  0  0  0  0  0  0  0  0  0  0
    6.1201   16.0797    0.0000 H   0  0  0  0  0  0  0  0  0  0  0  0
    5.7216   16.7699    0.0000 H   0  0  0  0  0  0  0  0  0  0  0  0
    1.6548    8.8073    0.0000 H   0  0  0  0  0  0  0  0  0  0  0  0
    0.8078    8.5803    0.0000 H   0  0  0  0  0  0  0  0  0  0  0  0
    1.0348    7.7334    0.0000 H   0  0  0  0  0  0  0  0  0  0  0  0
    4.9535   17.2243    0.0000 H   0  0  0  0  0  0  0  0  0  0  0  0
    4.1065   16.9973    0.0000 H   0  0  0  0  0  0  0  0  0  0  0  0
    4.3335   16.1504    0.0000 H   0  0  0  0  0  0  0  0  0  0  0  0
    7.2101   12.7924    0.0000 H   0  0  0  0  0  0  0  0  0  0  0  0
    5.5652   17.0262    0.0000 H   0  0  0  0  0  0  0  0  0  0  0  0
    7.3146   14.8324    0.0000 H   0  0  0  0  0  0  0  0  0  0  0  0
    4.6981   11.5827    0.0000 H   0  0  0  0  0  0  0  0  0  0  0  0
    6.3928   11.2767    0.0000 H   0  0  0  0  0  0  0  0  0  0  0  0
    2.7645   15.3338    0.0000 H   0  0  0  0  0  0  0  0  0  0  0  0
    6.4911    3.4224    0.0000 H   0  0  0  0  0  0  0  0  0  0  0  0
    6.8317   18.0362    0.0000 H   0  0  0  0  0  0  0  0  0  0  0  0
    8.5812   15.8425    0.0000 H   0  0  0  0  0  0  0  0  0  0  0  0
    8.3397   17.4444    0.0000 H   0  0  0  0  0  0  0  0  0  0  0  0
    1.5348   14.2103    0.0000 H   0  0  0  0  0  0  0  0  0  0  0  0
    1.9054   12.5863    0.0000 H   0  0  0  0  0  0  0  0  0  0  0  0
    6.9322    0.1546    0.0000 H   0  0  0  0  0  0  0  0  0  0  0  0
   10.1159    0.0648    0.0000 H   0  0  0  0  0  0  0  0  0  0  0  0
    9.6558    2.0134    0.0000 H   0  0  0  0  0  0  0  0  0  0  0  0
  1  5  1  0  0  0  0
  1  8  1  0  0  0  0
  1  9  1  0  0  0  0
  1 11  2  0  0  0  0
  2  8  1  0  0  0  0
  2 13  1  0  0  0  0
  2 14  1  0  0  0  0
  2 15  2  0  0  0  0
  3 13  1  0  0  0  0
  3 16  1  0  0  0  0
  3 17  1  0  0  0  0
  3 18  2  0  0  0  0
  4 27  1  0  0  0  0
  4 29  1  0  0  0  0
  5 30  1  0  0  0  0
  6 33  1  0  0  0  0
  6 41  1  0  0  0  0
  7 32  2  0  0  0  0
  9 78  1  0  0  0  0
 10 35  2  0  0  0  0
 12 37  2  0  0  0  0
 14 84  1  0  0  0  0
 16 85  1  0  0  0  0
 17 86  1  0  0  0  0
 29 19  1  6  0  0  0
 19 31  1  0  0  0  0
 19 32  1  0  0  0  0
 20 22  2  0  0  0  0
 26 20  1  1  0  0  0
 21 32  1  0  0  0  0
 21 35  1  0  0  0  0
 21 63  1  0  0  0  0
 22 25  2  0  0  0  0
 23 39  1  0  0  0  0
 23 42  1  0  0  0  0
 23 47  1  0  0  0  0
 24 42  1  0  0  0  0
 24 54  2  0  0  0  0
 26 27  1  0  0  0  0
 26 28  1  0  0  0  0
 26 55  1  0  0  0  0
 27 30  1  6  0  0  0
 27 56  1  0  0  0  0
 28 29  1  0  0  0  0
 28 57  1  0  0  0  0
 28 58  1  0  0  0  0
 29 59  1  0  0  0  0
 30 60  1  0  0  0  0
 30 61  1  0  0  0  0
 31 34  2  0  0  0  0
 31 62  1  0  0  0  0
 33 36  1  1  0  0  0
 33 37  1  0  0  0  0
 33 38  1  0  0  0  0
 34 35  1  0  0  0  0
 34 40  1  0  0  0  0
 36 43  1  0  0  0  0
 36 64  1  0  0  0  0
 36 65  1  0  0  0  0
 37 39  1  0  0  0  0
 38 45  2  0  0  0  0
 38 46  1  0  0  0  0
 39 44  2  0  0  0  0
 40 66  1  0  0  0  0
 40 67  1  0  0  0  0
 40 68  1  0  0  0  0
 41 42  2  0  0  0  0
 41 49  1  0  0  0  0
 43 69  1  0  0  0  0
 43 70  1  0  0  0  0
 43 71  1  0  0  0  0
 44 48  1  0  0  0  0
 44 72  1  0  0  0  0
 45 50  1  0  0  0  0
 45 73  1  0  0  0  0
 46 51  2  0  0  0  0
 46 74  1  0  0  0  0
 47 48  2  0  0  0  0
 47 75  1  0  0  0  0
 48 76  1  0  0  0  0
 49 53  2  0  0  0  0
 49 77  1  0  0  0  0
 50 52  2  0  0  0  0
 50 79  1  0  0  0  0
 51 52  1  0  0  0  0
 51 80  1  0  0  0  0
 52 81  1  0  0  0  0
 53 54  1  0  0  0  0
 53 82  1  0  0  0  0
 54 83  1  0  0  0  0
M  CHG  2  22   1  25  -1
M  END
> <PUBCHEM_COMPOUND_CID>
512287
> <PUBCHEM_COMPOUND_CANONICALIZED>
1
> <PUBCHEM_CACTVS_COMPLEXITY>
1420
> <PUBCHEM_CACTVS_HBOND_ACCEPTOR>
18
> <PUBCHEM_CACTVS_HBOND_DONOR>
5
> <PUBCHEM_CACTVS_ROTATABLE_BOND>
11
> <PUBCHEM_CACTVS_SUBSKEYS>
AAADcfB7vAMAAAAAAAAAAAAAAAAAAWJAAAA8QIAABYAAAACx8AAAHgAYCCAADHzhngY/tpPMFRCqQ7d3dIaCiCk3YiAJ2CH/bNiPJvLE/b+POSjuxzPa6ee4+eKOgAAAAAAAAAAAAAAAAAAAAAAAAAAAAA==
> <PUBCHEM_IUPAC_OPENEYE_NAME>
[[(2S,3S,5R)-3-azido-5-(5-methyl-2,4-dioxo-pyrimidin-1-yl)tetrahydrofuran-2-yl]methoxy-hydroxy-phosphoryl] phosphono hydrogen phosphate;(8R)-8-ethyl-8-phenyl-9-oxa-2,14-diazatricyclo[8.4.0.02,6]tetradeca-1(10),3,5,11,13-pentaen-7-one
> <PUBCHEM_IUPAC_CAS_NAME>
[[(2S,3S,5R)-3-azido-5-(5-methyl-2,4-dioxo-1-pyrimidinyl)-2-oxolanyl]methoxy-hydroxyphosphoryl] phosphono hydrogen phosphate;(8R)-8-ethyl-8-phenyl-9-oxa-2,14-diazatricyclo[8.4.0.02,6]tetradeca-1(10),3,5,11,13-pentaen-7-one
> <PUBCHEM_IUPAC_NAME_MARKUP>
[[(2<I>S</I>,3<I>S</I>,5<I>R</I>)-3-azido-5-(5-methyl-2,4-dioxopyrimidin-1-yl)oxolan-2-yl]methoxy-hydroxyphosphoryl] phosphono hydrogen phosphate;(8<I>R</I>)-8-ethyl-8-phenyl-9-oxa-2,14-diazatricyclo[8.4.0.0<SUP>2,6</SUP>]tetradeca-1(10),3,5,11,13-pentaen-7-one
> <PUBCHEM_IUPAC_NAME>
[[(2S,3S,5R)-3-azido-5-(5-methyl-2,4-dioxopyrimidin-1-yl)oxolan-2-yl]methoxy-hydroxyphosphoryl] phosphono hydrogen phosphate;(8R)-8-ethyl-8-phenyl-9-oxa-2,14-diazatricyclo[8.4.0.02,6]tetradeca-1(10),3,5,11,13-pentaen-7-one
> <PUBCHEM_IUPAC_SYSTEMATIC_NAME>
[[(2S,3S,5R)-3-azido-5-[5-methyl-2,4-bis(oxidanylidene)pyrimidin-1-yl]oxolan-2-yl]methoxy-oxidanyl-phosphoryl] phosphono hydrogen phosphate;(8R)-8-ethyl-8-phenyl-9-oxa-2,14-diazatricyclo[8.4.0.02,6]tetradeca-1(10),3,5,11,13-pentaen-7-one
> <PUBCHEM_IUPAC_TRADITIONAL_NAME>
[[(2S,3S,5R)-3-azido-5-(2,4-diketo-5-methyl-pyrimidin-1-yl)tetrahydrofuran-2-yl]methoxy-hydroxy-phosphoryl] phosphono hydrogen phosphate;(8R)-8-ethyl-8-phenyl-9-oxa-2,14-diazatricyclo[8.4.0.02,6]tetradeca-1(10),3,5,11,13-pentaen-7-one
> <PUBCHEM_IUPAC_INCHI>
InChI=1S/C19H16N2O2.C10H16N5O13P3/c1-2-19(14-8-4-3-5-9-14)17(22)15-10-7-13-21(15)18-16(23-19)11-6-12-20-18;1-5-3-15(10(17)12-9(5)16)8-2-6(13-14-11)7(26-8)4-25-30(21,22)28-31(23,24)27-29(18,19)20/h3-13H,2H2,1H3;3,6-8H,2,4H2,1H3,(H,21,22)(H,23,24)(H,12,16,17)(H2,18,19,20)/t19-;6-,7+,8+/m10/s1
> <PUBCHEM_IUPAC_INCHIKEY>
MOHVEPOLZPTWGO-LKBVYIDSSA-N
> <PUBCHEM_EXACT_MASS>
811.11692433
> <PUBCHEM_MOLECULAR_FORMULA>
C29H32N7O15P3
> <PUBCHEM_MOLECULAR_WEIGHT>
811.5
> <PUBCHEM_OPENEYE_CAN_SMILES>
CCC1(C(=O)C2=CC=CN2C3=C(O1)C=CC=N3)C4=CC=CC=C4.CC1=CN(C(=O)NC1=O)C2CC(C(O2)COP(=O)(O)OP(=O)(O)OP(=O)(O)O)N=[N+]=[N-]
> <PUBCHEM_OPENEYE_ISO_SMILES>
CC[C@]1(C(=O)C2=CC=CN2C3=C(O1)C=CC=N3)C4=CC=CC=C4.CC1=CN(C(=O)NC1=O)[C@H]2C[C@@H]([C@H](O2)COP(=O)(O)OP(=O)(O)OP(=O)(O)O)N=[N+]=[N-]
> <PUBCHEM_CACTVS_TPSA>
277
> <PUBCHEM_MONOISOTOPIC_WEIGHT>
811.11692433
> <PUBCHEM_TOTAL_CHARGE>
0
> <PUBCHEM_HEAVY_ATOM_COUNT>
54
> <PUBCHEM_ATOM_DEF_STEREO_COUNT>
4
> <PUBCHEM_ATOM_UDEF_STEREO_COUNT>
0
> <PUBCHEM_BOND_DEF_STEREO_COUNT>
0
> <PUBCHEM_BOND_UDEF_STEREO_COUNT>
0
> <PUBCHEM_ISOTOPIC_ATOM_COUNT>
0
> <PUBCHEM_COMPONENT_COUNT>
2
> <PUBCHEM_CACTVS_TAUTO_COUNT>
-1
> <PUBCHEM_COORDINATE_TYPE>
1
5
255
> <PUBCHEM_BONDANNOTATIONS>
29  19  6
19  31  8
19  32  8
26  20  5
21  32  8
21  35  8
23  39  8
23  47  8
24  42  8
24  54  8
27  30  6
31  34  8
33  36  5
34  35  8
38  45  8
38  46  8
39  44  8
41  42  8
41  49  8
44  48  8
45  50  8
46  51  8
47  48  8
49  53  8
50  52  8
51  52  8
53  54  8
$$$$
