512281
  -OEChem-10302200282D
 64 65  0     1  0  0  0  0  0999 V2000
    6.8671   -1.6550    0.0000 O   0  0  0  0  0  0  0  0  0  0  0  0
    7.7331   -3.1550    0.0000 O   0  0  0  0  0  0  0  0  0  0  0  0
    6.0010   -3.1550    0.0000 O   0  0  0  0  0  0  0  0  0  0  0  0
    9.4651   -2.1550    0.0000 O   0  0  0  0  0  0  0  0  0  0  0  0
    9.4651   -0.1550    0.0000 O   0  0  0  0  0  0  0  0  0  0  0  0
    7.7331    0.8450    0.0000 O   0  0  0  0  0  0  0  0  0  0  0  0
    7.7331   -5.1550    0.0000 O   0  0  0  0  0  0  0  0  0  0  0  0
    6.0010   -6.1550    0.0000 O   0  0  0  0  0  0  0  0  0  0  0  0
    4.2690   -5.1550    0.0000 O   0  0  0  0  0  0  0  0  0  0  0  0
    3.4030   -3.6550    0.0000 O   0  0  0  0  0  0  0  0  0  0  0  0
    4.2690    0.8450    0.0000 O   0  0  0  0  0  0  0  0  0  0  0  0
    6.0010    0.8450    0.0000 N   0  0  0  0  0  0  0  0  0  0  0  0
    3.4030    4.3450    0.0000 N   0  0  0  0  0  0  0  0  0  0  0  0
    2.5369    5.8450    0.0000 N   0  0  0  0  0  0  0  0  0  0  0  0
    4.2690    5.8450    0.0000 N   0  0  0  0  0  0  0  0  0  0  0  0
    7.7331   -2.1550    0.0000 C   0  0  2  0  0  0  0  0  0  0  0  0
    8.5991   -1.6550    0.0000 C   0  0  1  0  0  0  0  0  0  0  0  0
    8.5991   -0.6550    0.0000 C   0  0  2  0  0  0  0  0  0  0  0  0
    7.7331   -0.1550    0.0000 C   0  0  1  0  0  0  0  0  0  0  0  0
    6.8671   -0.6550    0.0000 C   0  0  1  0  0  0  0  0  0  0  0  0
    6.8671   -3.6550    0.0000 C   0  0  2  0  0  0  0  0  0  0  0  0
    6.8671   -4.6550    0.0000 C   0  0  2  0  0  0  0  0  0  0  0  0
    6.0010   -5.1550    0.0000 C   0  0  1  0  0  0  0  0  0  0  0  0
    5.1350   -4.6550    0.0000 C   0  0  2  0  0  0  0  0  0  0  0  0
    5.1350   -3.6550    0.0000 C   0  0  1  0  0  0  0  0  0  0  0  0
    6.0010   -0.1550    0.0000 C   0  0  0  0  0  0  0  0  0  0  0  0
    4.2690   -3.1550    0.0000 C   0  0  0  0  0  0  0  0  0  0  0  0
    5.1350    1.3450    0.0000 C   0  0  0  0  0  0  0  0  0  0  0  0
    5.1350    2.3450    0.0000 C   0  0  0  0  0  0  0  0  0  0  0  0
    4.2690    2.8450    0.0000 C   0  0  0  0  0  0  0  0  0  0  0  0
    4.2690    3.8450    0.0000 C   0  0  0  0  0  0  0  0  0  0  0  0
    3.4030    5.3450    0.0000 C   0  0  0  0  0  0  0  0  0  0  0  0
    8.2700   -2.4650    0.0000 H   0  0  0  0  0  0  0  0  0  0  0  0
    9.1360   -1.3450    0.0000 H   0  0  0  0  0  0  0  0  0  0  0  0
    8.5991   -0.0350    0.0000 H   0  0  0  0  0  0  0  0  0  0  0  0
    7.1962    0.1550    0.0000 H   0  0  0  0  0  0  0  0  0  0  0  0
    6.3301   -0.9650    0.0000 H   0  0  0  0  0  0  0  0  0  0  0  0
    6.8671   -3.0350    0.0000 H   0  0  0  0  0  0  0  0  0  0  0  0
    6.8671   -5.2750    0.0000 H   0  0  0  0  0  0  0  0  0  0  0  0
    5.4641   -5.4650    0.0000 H   0  0  0  0  0  0  0  0  0  0  0  0
    5.1350   -5.2750    0.0000 H   0  0  0  0  0  0  0  0  0  0  0  0
    5.1350   -3.0350    0.0000 H   0  0  0  0  0  0  0  0  0  0  0  0
    5.3905   -0.0473    0.0000 H   0  0  0  0  0  0  0  0  0  0  0  0
    5.7890   -0.7376    0.0000 H   0  0  0  0  0  0  0  0  0  0  0  0
    4.6675   -2.6800    0.0000 H   0  0  0  0  0  0  0  0  0  0  0  0
    3.8705   -2.6800    0.0000 H   0  0  0  0  0  0  0  0  0  0  0  0
   10.0021   -1.8450    0.0000 H   0  0  0  0  0  0  0  0  0  0  0  0
    9.4651    0.4650    0.0000 H   0  0  0  0  0  0  0  0  0  0  0  0
    8.2700    1.1550    0.0000 H   0  0  0  0  0  0  0  0  0  0  0  0
    7.7331   -5.7750    0.0000 H   0  0  0  0  0  0  0  0  0  0  0  0
    5.4641   -6.4650    0.0000 H   0  0  0  0  0  0  0  0  0  0  0  0
    4.2690   -5.7750    0.0000 H   0  0  0  0  0  0  0  0  0  0  0  0
    6.5380    1.1550    0.0000 H   0  0  0  0  0  0  0  0  0  0  0  0
    2.8660   -3.3450    0.0000 H   0  0  0  0  0  0  0  0  0  0  0  0
    5.7456    2.2373    0.0000 H   0  0  0  0  0  0  0  0  0  0  0  0
    5.3471    2.9276    0.0000 H   0  0  0  0  0  0  0  0  0  0  0  0
    3.6584    2.9527    0.0000 H   0  0  0  0  0  0  0  0  0  0  0  0
    4.0569    2.2624    0.0000 H   0  0  0  0  0  0  0  0  0  0  0  0
    4.8796    3.7373    0.0000 H   0  0  0  0  0  0  0  0  0  0  0  0
    4.4810    4.4276    0.0000 H   0  0  0  0  0  0  0  0  0  0  0  0
    2.5369    6.4650    0.0000 H   0  0  0  0  0  0  0  0  0  0  0  0
    2.0000    5.5350    0.0000 H   0  0  0  0  0  0  0  0  0  0  0  0
    4.2690    6.4650    0.0000 H   0  0  0  0  0  0  0  0  0  0  0  0
    4.8059    5.5350    0.0000 H   0  0  0  0  0  0  0  0  0  0  0  0
  1 16  1  0  0  0  0
  1 20  1  0  0  0  0
 16  2  1  1  0  0  0
 21  2  1  1  0  0  0
  3 21  1  0  0  0  0
  3 25  1  0  0  0  0
 17  4  1  1  0  0  0
  4 47  1  0  0  0  0
 18  5  1  6  0  0  0
  5 48  1  0  0  0  0
 19  6  1  1  0  0  0
  6 49  1  0  0  0  0
 22  7  1  1  0  0  0
  7 50  1  0  0  0  0
 23  8  1  6  0  0  0
  8 51  1  0  0  0  0
 24  9  1  1  0  0  0
  9 52  1  0  0  0  0
 10 27  1  0  0  0  0
 10 54  1  0  0  0  0
 11 28  2  0  0  0  0
 12 26  1  0  0  0  0
 12 28  1  0  0  0  0
 12 53  1  0  0  0  0
 13 31  1  0  0  0  0
 13 32  2  0  0  0  0
 14 32  1  0  0  0  0
 14 61  1  0  0  0  0
 14 62  1  0  0  0  0
 15 32  1  0  0  0  0
 15 63  1  0  0  0  0
 15 64  1  0  0  0  0
 16 17  1  0  0  0  0
 16 33  1  0  0  0  0
 17 18  1  0  0  0  0
 17 34  1  0  0  0  0
 18 19  1  0  0  0  0
 18 35  1  0  0  0  0
 19 20  1  0  0  0  0
 19 36  1  0  0  0  0
 20 26  1  6  0  0  0
 20 37  1  0  0  0  0
 21 22  1  0  0  0  0
 21 38  1  0  0  0  0
 22 23  1  0  0  0  0
 22 39  1  0  0  0  0
 23 24  1  0  0  0  0
 23 40  1  0  0  0  0
 24 25  1  0  0  0  0
 24 41  1  0  0  0  0
 25 27  1  1  0  0  0
 25 42  1  0  0  0  0
 26 43  1  0  0  0  0
 26 44  1  0  0  0  0
 27 45  1  0  0  0  0
 27 46  1  0  0  0  0
 28 29  1  0  0  0  0
 29 30  1  0  0  0  0
 29 55  1  0  0  0  0
 29 56  1  0  0  0  0
 30 31  1  0  0  0  0
 30 57  1  0  0  0  0
 30 58  1  0  0  0  0
 31 59  1  0  0  0  0
 31 60  1  0  0  0  0
M  END
> <PUBCHEM_COMPOUND_CID>
512281
> <PUBCHEM_COMPOUND_CANONICALIZED>
1
> <PUBCHEM_CACTVS_COMPLEXITY>
638
> <PUBCHEM_CACTVS_HBOND_ACCEPTOR>
12
> <PUBCHEM_CACTVS_HBOND_DONOR>
10
> <PUBCHEM_CACTVS_ROTATABLE_BOND>
9
> <PUBCHEM_CACTVS_SUBSKEYS>
AAADcfB7vAAAAAAAAAAAAAAAAAAAAAAAAAAkSAAAAAAAAAAAAAAAHgAQCAAACBTxgAcBCALABgAoAAEQNAAAAAEAAAAAAIEIAAATEBIAgAAnQAAHFgCXAAH0cA4AAAAAAAAAAAAAAAAAAAAAAAAAAAAAAA==
> <PUBCHEM_IUPAC_OPENEYE_NAME>
4-guanidino-N-[[(2R,3S,4S,5R,6R)-3,4,5-trihydroxy-6-[(2S,3S,4R,5R,6R)-3,4,5-trihydroxy-6-(hydroxymethyl)tetrahydropyran-2-yl]oxy-tetrahydropyran-2-yl]methyl]butanamide
> <PUBCHEM_IUPAC_CAS_NAME>
4-(diaminomethylideneamino)-N-[[(2R,3S,4S,5R,6R)-3,4,5-trihydroxy-6-[[(2S,3S,4R,5R,6R)-3,4,5-trihydroxy-6-(hydroxymethyl)-2-oxanyl]oxy]-2-oxanyl]methyl]butanamide
> <PUBCHEM_IUPAC_NAME_MARKUP>
4-(diaminomethylideneamino)-<I>N</I>-[[(2<I>R</I>,3<I>S</I>,4<I>S</I>,5<I>R</I>,6<I>R</I>)-3,4,5-trihydroxy-6-[(2<I>S</I>,3<I>S</I>,4<I>R</I>,5<I>R</I>,6<I>R</I>)-3,4,5-trihydroxy-6-(hydroxymethyl)oxan-2-yl]oxyoxan-2-yl]methyl]butanamide
> <PUBCHEM_IUPAC_NAME>
4-(diaminomethylideneamino)-N-[[(2R,3S,4S,5R,6R)-3,4,5-trihydroxy-6-[(2S,3S,4R,5R,6R)-3,4,5-trihydroxy-6-(hydroxymethyl)oxan-2-yl]oxyoxan-2-yl]methyl]butanamide
> <PUBCHEM_IUPAC_SYSTEMATIC_NAME>
4-[bis(azanyl)methylideneamino]-N-[[(2R,3S,4S,5R,6R)-6-[(2S,3S,4R,5R,6R)-6-(hydroxymethyl)-3,4,5-tris(oxidanyl)oxan-2-yl]oxy-3,4,5-tris(oxidanyl)oxan-2-yl]methyl]butanamide
> <PUBCHEM_IUPAC_TRADITIONAL_NAME>
4-guanidino-N-[[(2R,3S,4S,5R,6R)-3,4,5-trihydroxy-6-[(2S,3S,4R,5R,6R)-3,4,5-trihydroxy-6-methylol-tetrahydropyran-2-yl]oxy-tetrahydropyran-2-yl]methyl]butyramide
> <PUBCHEM_IUPAC_INCHI>
InChI=1S/C17H32N4O11/c18-17(19)20-3-1-2-8(23)21-4-6-9(24)11(26)13(28)15(30-6)32-16-14(29)12(27)10(25)7(5-22)31-16/h6-7,9-16,22,24-29H,1-5H2,(H,21,23)(H4,18,19,20)/t6-,7-,9-,10+,11+,12-,13-,14+,15-,16+/m1/s1
> <PUBCHEM_IUPAC_INCHIKEY>
ZAOZJSYYPADDQN-IZTBFSJASA-N
> <PUBCHEM_XLOGP3_AA>
-5.4
> <PUBCHEM_EXACT_MASS>
468.20675785
> <PUBCHEM_MOLECULAR_FORMULA>
C17H32N4O11
> <PUBCHEM_MOLECULAR_WEIGHT>
468.5
> <PUBCHEM_OPENEYE_CAN_SMILES>
C(CC(=O)NCC1C(C(C(C(O1)OC2C(C(C(C(O2)CO)O)O)O)O)O)O)CN=C(N)N
> <PUBCHEM_OPENEYE_ISO_SMILES>
C(CC(=O)NC[C@@H]1[C@H]([C@@H]([C@H]([C@H](O1)O[C@H]2[C@H]([C@@H]([C@H]([C@H](O2)CO)O)O)O)O)O)O)CN=C(N)N
> <PUBCHEM_CACTVS_TPSA>
263
> <PUBCHEM_MONOISOTOPIC_WEIGHT>
468.20675785
> <PUBCHEM_TOTAL_CHARGE>
0
> <PUBCHEM_HEAVY_ATOM_COUNT>
32
> <PUBCHEM_ATOM_DEF_STEREO_COUNT>
10
> <PUBCHEM_ATOM_UDEF_STEREO_COUNT>
0
> <PUBCHEM_BOND_DEF_STEREO_COUNT>
0
> <PUBCHEM_BOND_UDEF_STEREO_COUNT>
0
> <PUBCHEM_ISOTOPIC_ATOM_COUNT>
0
> <PUBCHEM_COMPONENT_COUNT>
1
> <PUBCHEM_CACTVS_TAUTO_COUNT>
-1
> <PUBCHEM_COORDINATE_TYPE>
1
5
255
> <PUBCHEM_BONDANNOTATIONS>
16  2  5
21  2  5
20  26  6
25  27  5
17  4  5
18  5  6
19  6  5
22  7  5
23  8  6
24  9  5
$$$$
