512299
  -OEChem-10302200282D
 33 34  0     1  0  0  0  0  0999 V2000
    2.0000    2.2175    0.0000 Br  0  0  0  0  0  0  0  0  0  0  0  0
    6.2731   -1.3703    0.0000 O   0  0  0  0  0  0  0  0  0  0  0  0
    4.3763   -3.1304    0.0000 O   0  0  0  0  0  0  0  0  0  0  0  0
    7.5464   -3.0259    0.0000 O   0  0  0  0  0  0  0  0  0  0  0  0
    7.1962    0.2175    0.0000 O   0  0  0  0  0  0  0  0  0  0  0  0
    5.4641    0.2175    0.0000 N   0  0  0  0  0  0  0  0  0  0  0  0
    6.3301    1.7175    0.0000 N   0  0  0  0  0  0  0  0  0  0  0  0
    5.4641    3.2175    0.0000 N   0  0  0  0  0  0  0  0  0  0  0  0
    4.9641   -2.3214    0.0000 C   0  0  1  0  0  0  0  0  0  0  0  0
    4.6551   -1.3703    0.0000 C   0  0  0  0  0  0  0  0  0  0  0  0
    5.4641   -0.7825    0.0000 C   0  0  1  0  0  0  0  0  0  0  0  0
    5.9641   -2.3214    0.0000 C   0  0  1  0  0  0  0  0  0  0  0  0
    6.5519   -3.1304    0.0000 C   0  0  0  0  0  0  0  0  0  0  0  0
    4.5981    0.7175    0.0000 C   0  0  0  0  0  0  0  0  0  0  0  0
    6.3301    0.7175    0.0000 C   0  0  0  0  0  0  0  0  0  0  0  0
    4.5981    1.7175    0.0000 C   0  0  0  0  0  0  0  0  0  0  0  0
    5.4641    2.2175    0.0000 C   0  0  0  0  0  0  0  0  0  0  0  0
    3.7320    2.2175    0.0000 C   0  0  0  0  0  0  0  0  0  0  0  0
    2.8660    1.7175    0.0000 C   0  0  0  0  0  0  0  0  0  0  0  0
    5.2456   -2.8738    0.0000 H   0  0  0  0  0  0  0  0  0  0  0  0
    4.3451   -0.8334    0.0000 H   0  0  0  0  0  0  0  0  0  0  0  0
    4.0887   -1.6225    0.0000 H   0  0  0  0  0  0  0  0  0  0  0  0
    6.0165   -0.5011    0.0000 H   0  0  0  0  0  0  0  0  0  0  0  0
    6.5765   -2.2244    0.0000 H   0  0  0  0  0  0  0  0  0  0  0  0
    5.9946   -3.4022    0.0000 H   0  0  0  0  0  0  0  0  0  0  0  0
    6.7228   -3.7264    0.0000 H   0  0  0  0  0  0  0  0  0  0  0  0
    3.7597   -3.0656    0.0000 H   0  0  0  0  0  0  0  0  0  0  0  0
    4.0611    0.4075    0.0000 H   0  0  0  0  0  0  0  0  0  0  0  0
    7.9108   -3.5275    0.0000 H   0  0  0  0  0  0  0  0  0  0  0  0
    3.7320    2.8375    0.0000 H   0  0  0  0  0  0  0  0  0  0  0  0
    6.0010    3.5275    0.0000 H   0  0  0  0  0  0  0  0  0  0  0  0
    4.9272    3.5275    0.0000 H   0  0  0  0  0  0  0  0  0  0  0  0
    2.8660    1.0975    0.0000 H   0  0  0  0  0  0  0  0  0  0  0  0
  1 19  1  0  0  0  0
  2 11  1  0  0  0  0
  2 12  1  0  0  0  0
  9  3  1  1  0  0  0
  3 27  1  0  0  0  0
  4 13  1  0  0  0  0
  4 29  1  0  0  0  0
  5 15  2  0  0  0  0
 11  6  1  6  0  0  0
  6 14  1  0  0  0  0
  6 15  1  0  0  0  0
  7 15  1  0  0  0  0
  7 17  2  0  0  0  0
  8 17  1  0  0  0  0
  8 31  1  0  0  0  0
  8 32  1  0  0  0  0
  9 10  1  0  0  0  0
  9 12  1  0  0  0  0
  9 20  1  0  0  0  0
 10 11  1  0  0  0  0
 10 21  1  0  0  0  0
 10 22  1  0  0  0  0
 11 23  1  0  0  0  0
 12 13  1  6  0  0  0
 12 24  1  0  0  0  0
 13 25  1  0  0  0  0
 13 26  1  0  0  0  0
 14 16  2  0  0  0  0
 14 28  1  0  0  0  0
 16 17  1  0  0  0  0
 16 18  1  0  0  0  0
 18 19  2  3  0  0  0
 18 30  1  0  0  0  0
 19 33  1  0  0  0  0
M  END
> <PUBCHEM_COMPOUND_CID>
512299
> <PUBCHEM_COMPOUND_CANONICALIZED>
1
> <PUBCHEM_CACTVS_COMPLEXITY>
463
> <PUBCHEM_CACTVS_HBOND_ACCEPTOR>
4
> <PUBCHEM_CACTVS_HBOND_DONOR>
3
> <PUBCHEM_CACTVS_ROTATABLE_BOND>
3
> <PUBCHEM_CACTVS_SUBSKEYS>
AAADccBzOAAAEAAAAAAAAAAAAAAAASAAAAAgAAAAAAAAAAAAAAAAHgBQCAABTBThgAYBAANABgCoAiJmdACAAAEgAAAIAAAoABiJEAIAgQAOQAAHBgIDAACwMAIAAAAAAAAAAAAAAAAAAAAAAAAAAAAAAA==
> <PUBCHEM_IUPAC_OPENEYE_NAME>
4-amino-5-(2-bromovinyl)-1-[(2R,4S,5R)-4-hydroxy-5-(hydroxymethyl)tetrahydrofuran-2-yl]pyrimidin-2-one
> <PUBCHEM_IUPAC_CAS_NAME>
4-amino-5-(2-bromoethenyl)-1-[(2R,4S,5R)-4-hydroxy-5-(hydroxymethyl)-2-oxolanyl]-2-pyrimidinone
> <PUBCHEM_IUPAC_NAME_MARKUP>
4-amino-5-(2-bromoethenyl)-1-[(2<I>R</I>,4<I>S</I>,5<I>R</I>)-4-hydroxy-5-(hydroxymethyl)oxolan-2-yl]pyrimidin-2-one
> <PUBCHEM_IUPAC_NAME>
4-amino-5-(2-bromoethenyl)-1-[(2R,4S,5R)-4-hydroxy-5-(hydroxymethyl)oxolan-2-yl]pyrimidin-2-one
> <PUBCHEM_IUPAC_SYSTEMATIC_NAME>
4-azanyl-5-(2-bromanylethenyl)-1-[(2R,4S,5R)-5-(hydroxymethyl)-4-oxidanyl-oxolan-2-yl]pyrimidin-2-one
> <PUBCHEM_IUPAC_TRADITIONAL_NAME>
4-amino-5-(2-bromovinyl)-1-[(2R,4S,5R)-4-hydroxy-5-methylol-tetrahydrofuran-2-yl]pyrimidin-2-one
> <PUBCHEM_IUPAC_INCHI>
InChI=1S/C11H14BrN3O4/c12-2-1-6-4-15(11(18)14-10(6)13)9-3-7(17)8(5-16)19-9/h1-2,4,7-9,16-17H,3,5H2,(H2,13,14,18)/t7-,8+,9+/m0/s1
> <PUBCHEM_IUPAC_INCHIKEY>
AKVDSWDYVDOWDW-DJLDLDEBSA-N
> <PUBCHEM_XLOGP3>
-0.6
> <PUBCHEM_EXACT_MASS>
331.01677
> <PUBCHEM_MOLECULAR_FORMULA>
C11H14BrN3O4
> <PUBCHEM_MOLECULAR_WEIGHT>
332.15
> <PUBCHEM_OPENEYE_CAN_SMILES>
C1C(C(OC1N2C=C(C(=NC2=O)N)C=CBr)CO)O
> <PUBCHEM_OPENEYE_ISO_SMILES>
C1[C@@H]([C@H](O[C@H]1N2C=C(C(=NC2=O)N)C=CBr)CO)O
> <PUBCHEM_CACTVS_TPSA>
108
> <PUBCHEM_MONOISOTOPIC_WEIGHT>
331.01677
> <PUBCHEM_TOTAL_CHARGE>
0
> <PUBCHEM_HEAVY_ATOM_COUNT>
19
> <PUBCHEM_ATOM_DEF_STEREO_COUNT>
3
> <PUBCHEM_ATOM_UDEF_STEREO_COUNT>
0
> <PUBCHEM_BOND_DEF_STEREO_COUNT>
0
> <PUBCHEM_BOND_UDEF_STEREO_COUNT>
1
> <PUBCHEM_ISOTOPIC_ATOM_COUNT>
0
> <PUBCHEM_COMPONENT_COUNT>
1
> <PUBCHEM_CACTVS_TAUTO_COUNT>
3
> <PUBCHEM_COORDINATE_TYPE>
1
5
255
> <PUBCHEM_BONDANNOTATIONS>
12  13  6
14  16  8
16  17  8
18  19  1
9  3  5
11  6  6
6  14  8
6  15  8
7  15  8
7  17  8
$$$$
