512279
  -OEChem-10302200282D
 51 52  0     1  0  0  0  0  0999 V2000
    6.8671   -1.2500    0.0000 O   0  0  0  0  0  0  0  0  0  0  0  0
    6.0010    0.2500    0.0000 O   0  0  0  0  0  0  0  0  0  0  0  0
    5.1350   -1.2500    0.0000 O   0  0  0  0  0  0  0  0  0  0  0  0
    8.5991   -0.2500    0.0000 O   0  0  0  0  0  0  0  0  0  0  0  0
    8.5991    1.7500    0.0000 O   0  0  0  0  0  0  0  0  0  0  0  0
    6.8671   -3.2500    0.0000 O   0  0  0  0  0  0  0  0  0  0  0  0
    6.8671    2.7500    0.0000 O   0  0  0  0  0  0  0  0  0  0  0  0
    5.1350   -4.2500    0.0000 O   0  0  0  0  0  0  0  0  0  0  0  0
    3.4030   -3.2500    0.0000 O   0  0  0  0  0  0  0  0  0  0  0  0
    2.5369   -1.7500    0.0000 O   0  0  0  0  0  0  0  0  0  0  0  0
    5.1350    2.7500    0.0000 N   0  0  0  0  0  0  0  0  0  0  0  0
    4.2690    4.2500    0.0000 N   0  0  0  0  0  0  0  0  0  0  0  0
    3.4030    2.7500    0.0000 N   0  0  0  0  0  0  0  0  0  0  0  0
    6.8671   -0.2500    0.0000 C   0  0  1  0  0  0  0  0  0  0  0  0
    7.7331    0.2500    0.0000 C   0  0  1  0  0  0  0  0  0  0  0  0
    6.0010   -1.7500    0.0000 C   0  0  2  0  0  0  0  0  0  0  0  0
    7.7331    1.2500    0.0000 C   0  0  2  0  0  0  0  0  0  0  0  0
    6.0010   -2.7500    0.0000 C   0  0  2  0  0  0  0  0  0  0  0  0
    6.8671    1.7500    0.0000 C   0  0  1  0  0  0  0  0  0  0  0  0
    5.1350   -3.2500    0.0000 C   0  0  1  0  0  0  0  0  0  0  0  0
    6.0010    1.2500    0.0000 C   0  0  1  0  0  0  0  0  0  0  0  0
    4.2690   -2.7500    0.0000 C   0  0  2  0  0  0  0  0  0  0  0  0
    4.2690   -1.7500    0.0000 C   0  0  1  0  0  0  0  0  0  0  0  0
    5.1350    1.7500    0.0000 C   0  0  0  0  0  0  0  0  0  0  0  0
    3.4030   -1.2500    0.0000 C   0  0  0  0  0  0  0  0  0  0  0  0
    4.2690    3.2500    0.0000 C   0  0  0  0  0  0  0  0  0  0  0  0
    7.4040   -0.5600    0.0000 H   0  0  0  0  0  0  0  0  0  0  0  0
    8.2700    0.5600    0.0000 H   0  0  0  0  0  0  0  0  0  0  0  0
    6.0010   -1.1300    0.0000 H   0  0  0  0  0  0  0  0  0  0  0  0
    7.7331    1.8700    0.0000 H   0  0  0  0  0  0  0  0  0  0  0  0
    6.0010   -3.3700    0.0000 H   0  0  0  0  0  0  0  0  0  0  0  0
    7.4040    2.0600    0.0000 H   0  0  0  0  0  0  0  0  0  0  0  0
    4.5981   -3.5600    0.0000 H   0  0  0  0  0  0  0  0  0  0  0  0
    5.4641    0.9400    0.0000 H   0  0  0  0  0  0  0  0  0  0  0  0
    4.2690   -3.3700    0.0000 H   0  0  0  0  0  0  0  0  0  0  0  0
    4.2690   -1.1300    0.0000 H   0  0  0  0  0  0  0  0  0  0  0  0
    4.5244    1.8577    0.0000 H   0  0  0  0  0  0  0  0  0  0  0  0
    4.9230    1.1674    0.0000 H   0  0  0  0  0  0  0  0  0  0  0  0
    3.8015   -0.7751    0.0000 H   0  0  0  0  0  0  0  0  0  0  0  0
    3.0044   -0.7751    0.0000 H   0  0  0  0  0  0  0  0  0  0  0  0
    9.1360    0.0600    0.0000 H   0  0  0  0  0  0  0  0  0  0  0  0
    8.5991    2.3700    0.0000 H   0  0  0  0  0  0  0  0  0  0  0  0
    6.8671   -3.8700    0.0000 H   0  0  0  0  0  0  0  0  0  0  0  0
    7.4040    3.0600    0.0000 H   0  0  0  0  0  0  0  0  0  0  0  0
    4.5981   -4.5600    0.0000 H   0  0  0  0  0  0  0  0  0  0  0  0
    3.4030   -3.8700    0.0000 H   0  0  0  0  0  0  0  0  0  0  0  0
    2.0000   -1.4400    0.0000 H   0  0  0  0  0  0  0  0  0  0  0  0
    3.7320    4.5600    0.0000 H   0  0  0  0  0  0  0  0  0  0  0  0
    4.8059    4.5600    0.0000 H   0  0  0  0  0  0  0  0  0  0  0  0
    2.8660    3.0600    0.0000 H   0  0  0  0  0  0  0  0  0  0  0  0
    3.4030    2.1300    0.0000 H   0  0  0  0  0  0  0  0  0  0  0  0
 14  1  1  1  0  0  0
 16  1  1  1  0  0  0
  2 14  1  0  0  0  0
  2 21  1  0  0  0  0
  3 16  1  0  0  0  0
  3 23  1  0  0  0  0
 15  4  1  1  0  0  0
  4 41  1  0  0  0  0
 17  5  1  6  0  0  0
  5 42  1  0  0  0  0
 18  6  1  1  0  0  0
  6 43  1  0  0  0  0
 19  7  1  1  0  0  0
  7 44  1  0  0  0  0
 20  8  1  6  0  0  0
  8 45  1  0  0  0  0
 22  9  1  1  0  0  0
  9 46  1  0  0  0  0
 10 25  1  0  0  0  0
 10 47  1  0  0  0  0
 11 24  1  0  0  0  0
 11 26  2  0  0  0  0
 12 26  1  0  0  0  0
 12 48  1  0  0  0  0
 12 49  1  0  0  0  0
 13 26  1  0  0  0  0
 13 50  1  0  0  0  0
 13 51  1  0  0  0  0
 14 15  1  0  0  0  0
 14 27  1  0  0  0  0
 15 17  1  0  0  0  0
 15 28  1  0  0  0  0
 16 18  1  0  0  0  0
 16 29  1  0  0  0  0
 17 19  1  0  0  0  0
 17 30  1  0  0  0  0
 18 20  1  0  0  0  0
 18 31  1  0  0  0  0
 19 21  1  0  0  0  0
 19 32  1  0  0  0  0
 20 22  1  0  0  0  0
 20 33  1  0  0  0  0
 21 24  1  6  0  0  0
 21 34  1  0  0  0  0
 22 23  1  0  0  0  0
 22 35  1  0  0  0  0
 23 25  1  1  0  0  0
 23 36  1  0  0  0  0
 24 37  1  0  0  0  0
 24 38  1  0  0  0  0
 25 39  1  0  0  0  0
 25 40  1  0  0  0  0
M  END
> <PUBCHEM_COMPOUND_CID>
512279
> <PUBCHEM_COMPOUND_CANONICALIZED>
1
> <PUBCHEM_CACTVS_COMPLEXITY>
493
> <PUBCHEM_CACTVS_HBOND_ACCEPTOR>
11
> <PUBCHEM_CACTVS_HBOND_DONOR>
9
> <PUBCHEM_CACTVS_ROTATABLE_BOND>
5
> <PUBCHEM_CACTVS_SUBSKEYS>
AAADceBzPAAAAAAAAAAAAAAAAAAAAAAAAAAkSAAAAAAAAAAAAAAAHgAQCAAACBTxgAcBCAJABgAgAAAAJAAAAAEAAAAAAAAAAAATEAIAgAAjQAAHAAAHAAHwcAwAAAAAAAAAAAAAAAAAAAAAAAAAAAAAAA==
> <PUBCHEM_IUPAC_OPENEYE_NAME>
2-[[(2R,3S,4S,5R,6R)-3,4,5-trihydroxy-6-[(2S,3S,4R,5R,6R)-3,4,5-trihydroxy-6-(hydroxymethyl)tetrahydropyran-2-yl]oxy-tetrahydropyran-2-yl]methyl]guanidine
> <PUBCHEM_IUPAC_CAS_NAME>
2-[[(2R,3S,4S,5R,6R)-3,4,5-trihydroxy-6-[[(2S,3S,4R,5R,6R)-3,4,5-trihydroxy-6-(hydroxymethyl)-2-oxanyl]oxy]-2-oxanyl]methyl]guanidine
> <PUBCHEM_IUPAC_NAME_MARKUP>
2-[[(2<I>R</I>,3<I>S</I>,4<I>S</I>,5<I>R</I>,6<I>R</I>)-3,4,5-trihydroxy-6-[(2<I>S</I>,3<I>S</I>,4<I>R</I>,5<I>R</I>,6<I>R</I>)-3,4,5-trihydroxy-6-(hydroxymethyl)oxan-2-yl]oxyoxan-2-yl]methyl]guanidine
> <PUBCHEM_IUPAC_NAME>
2-[[(2R,3S,4S,5R,6R)-3,4,5-trihydroxy-6-[(2S,3S,4R,5R,6R)-3,4,5-trihydroxy-6-(hydroxymethyl)oxan-2-yl]oxyoxan-2-yl]methyl]guanidine
> <PUBCHEM_IUPAC_SYSTEMATIC_NAME>
2-[[(2R,3S,4S,5R,6R)-6-[(2S,3S,4R,5R,6R)-6-(hydroxymethyl)-3,4,5-tris(oxidanyl)oxan-2-yl]oxy-3,4,5-tris(oxidanyl)oxan-2-yl]methyl]guanidine
> <PUBCHEM_IUPAC_TRADITIONAL_NAME>
2-[[(2R,3S,4S,5R,6R)-3,4,5-trihydroxy-6-[(2S,3S,4R,5R,6R)-3,4,5-trihydroxy-6-methylol-tetrahydropyran-2-yl]oxy-tetrahydropyran-2-yl]methyl]guanidine
> <PUBCHEM_IUPAC_INCHI>
InChI=1S/C13H25N3O10/c14-13(15)16-1-3-5(18)7(20)9(22)11(24-3)26-12-10(23)8(21)6(19)4(2-17)25-12/h3-12,17-23H,1-2H2,(H4,14,15,16)/t3-,4-,5-,6+,7+,8-,9-,10+,11-,12+/m1/s1
> <PUBCHEM_IUPAC_INCHIKEY>
MUCDQAALOPJUOW-BCHYZRIQSA-N
> <PUBCHEM_XLOGP3_AA>
-5.6
> <PUBCHEM_EXACT_MASS>
383.15399400
> <PUBCHEM_MOLECULAR_FORMULA>
C13H25N3O10
> <PUBCHEM_MOLECULAR_WEIGHT>
383.35
> <PUBCHEM_OPENEYE_CAN_SMILES>
C(C1C(C(C(C(O1)OC2C(C(C(C(O2)CO)O)O)O)O)O)O)N=C(N)N
> <PUBCHEM_OPENEYE_ISO_SMILES>
C([C@@H]1[C@H]([C@@H]([C@H]([C@H](O1)O[C@H]2[C@H]([C@@H]([C@H]([C@H](O2)CO)O)O)O)O)O)O)N=C(N)N
> <PUBCHEM_CACTVS_TPSA>
234
> <PUBCHEM_MONOISOTOPIC_WEIGHT>
383.15399400
> <PUBCHEM_TOTAL_CHARGE>
0
> <PUBCHEM_HEAVY_ATOM_COUNT>
26
> <PUBCHEM_ATOM_DEF_STEREO_COUNT>
10
> <PUBCHEM_ATOM_UDEF_STEREO_COUNT>
0
> <PUBCHEM_BOND_DEF_STEREO_COUNT>
0
> <PUBCHEM_BOND_UDEF_STEREO_COUNT>
0
> <PUBCHEM_ISOTOPIC_ATOM_COUNT>
0
> <PUBCHEM_COMPONENT_COUNT>
1
> <PUBCHEM_CACTVS_TAUTO_COUNT>
-1
> <PUBCHEM_COORDINATE_TYPE>
1
5
255
> <PUBCHEM_BONDANNOTATIONS>
14  1  5
16  1  5
21  24  6
23  25  5
15  4  5
17  5  6
18  6  5
19  7  5
20  8  6
22  9  5
$$$$
