512282
  -OEChem-10302200282D
 54 56  0     1  0  0  0  0  0999 V2000
   14.1244   -2.4050    0.0000 Cl  0  0  0  0  0  0  0  0  0  0  0  0
    2.0000   -0.4050    0.0000 F   0  0  0  0  0  0  0  0  0  0  0  0
    8.9282    0.5950    0.0000 O   0  0  0  0  0  0  0  0  0  0  0  0
   10.6603   -0.4050    0.0000 O   0  0  0  0  0  0  0  0  0  0  0  0
   14.1244    0.5950    0.0000 O   0  0  0  0  0  0  0  0  0  0  0  0
    6.3301   -1.9050    0.0000 N   0  0  3  0  0  0  0  0  0  0  0  0
    8.0622   -0.9050    0.0000 N   0  0  0  0  0  0  0  0  0  0  0  0
   12.3923    0.5950    0.0000 N   0  0  0  0  0  0  0  0  0  0  0  0
   13.2583    2.0950    0.0000 N   0  0  0  0  0  0  0  0  0  0  0  0
    7.1962   -0.4050    0.0000 C   0  0  1  0  0  0  0  0  0  0  0  0
    6.3301   -0.9050    0.0000 C   0  0  0  0  0  0  0  0  0  0  0  0
    7.1962   -2.4050    0.0000 C   0  0  0  0  0  0  0  0  0  0  0  0
    8.0622   -1.9050    0.0000 C   0  0  0  0  0  0  0  0  0  0  0  0
    5.4641   -2.4050    0.0000 C   0  0  0  0  0  0  0  0  0  0  0  0
    7.1962    0.5950    0.0000 C   0  0  0  0  0  0  0  0  0  0  0  0
    8.9282   -0.4050    0.0000 C   0  0  0  0  0  0  0  0  0  0  0  0
    4.5981   -1.9050    0.0000 C   0  0  0  0  0  0  0  0  0  0  0  0
    9.7942   -0.9050    0.0000 C   0  0  0  0  0  0  0  0  0  0  0  0
    3.7320   -2.4050    0.0000 C   0  0  0  0  0  0  0  0  0  0  0  0
    4.5981   -0.9050    0.0000 C   0  0  0  0  0  0  0  0  0  0  0  0
    2.8660   -1.9050    0.0000 C   0  0  0  0  0  0  0  0  0  0  0  0
    3.7320   -0.4050    0.0000 C   0  0  0  0  0  0  0  0  0  0  0  0
    2.8660   -0.9050    0.0000 C   0  0  0  0  0  0  0  0  0  0  0  0
   11.5263   -0.9050    0.0000 C   0  0  0  0  0  0  0  0  0  0  0  0
   12.3923   -0.4050    0.0000 C   0  0  0  0  0  0  0  0  0  0  0  0
   11.5263   -1.9050    0.0000 C   0  0  0  0  0  0  0  0  0  0  0  0
   13.2583   -0.9050    0.0000 C   0  0  0  0  0  0  0  0  0  0  0  0
   12.3923   -2.4050    0.0000 C   0  0  0  0  0  0  0  0  0  0  0  0
   13.2583   -1.9050    0.0000 C   0  0  0  0  0  0  0  0  0  0  0  0
   13.2583    1.0950    0.0000 C   0  0  0  0  0  0  0  0  0  0  0  0
    7.7331   -0.0950    0.0000 H   0  0  0  0  0  0  0  0  0  0  0  0
    6.1181   -0.3224    0.0000 H   0  0  0  0  0  0  0  0  0  0  0  0
    5.7196   -1.0127    0.0000 H   0  0  0  0  0  0  0  0  0  0  0  0
    6.7976   -2.8800    0.0000 H   0  0  0  0  0  0  0  0  0  0  0  0
    7.5947   -2.8800    0.0000 H   0  0  0  0  0  0  0  0  0  0  0  0
    8.2742   -2.4876    0.0000 H   0  0  0  0  0  0  0  0  0  0  0  0
    8.6728   -1.7973    0.0000 H   0  0  0  0  0  0  0  0  0  0  0  0
    5.0656   -2.8800    0.0000 H   0  0  0  0  0  0  0  0  0  0  0  0
    5.8626   -2.8800    0.0000 H   0  0  0  0  0  0  0  0  0  0  0  0
    7.8162    0.5950    0.0000 H   0  0  0  0  0  0  0  0  0  0  0  0
    7.1962    1.2150    0.0000 H   0  0  0  0  0  0  0  0  0  0  0  0
    6.5762    0.5950    0.0000 H   0  0  0  0  0  0  0  0  0  0  0  0
    9.3957   -1.3800    0.0000 H   0  0  0  0  0  0  0  0  0  0  0  0
   10.1928   -1.3800    0.0000 H   0  0  0  0  0  0  0  0  0  0  0  0
    3.7320   -3.0250    0.0000 H   0  0  0  0  0  0  0  0  0  0  0  0
    5.1350   -0.5950    0.0000 H   0  0  0  0  0  0  0  0  0  0  0  0
    2.3291   -2.2150    0.0000 H   0  0  0  0  0  0  0  0  0  0  0  0
    3.7320    0.2150    0.0000 H   0  0  0  0  0  0  0  0  0  0  0  0
   10.9893   -2.2150    0.0000 H   0  0  0  0  0  0  0  0  0  0  0  0
   13.7953   -0.5950    0.0000 H   0  0  0  0  0  0  0  0  0  0  0  0
   12.3923   -3.0250    0.0000 H   0  0  0  0  0  0  0  0  0  0  0  0
   11.8554    0.9050    0.0000 H   0  0  0  0  0  0  0  0  0  0  0  0
   13.7953    2.4050    0.0000 H   0  0  0  0  0  0  0  0  0  0  0  0
   12.7214    2.4050    0.0000 H   0  0  0  0  0  0  0  0  0  0  0  0
  1 29  1  0  0  0  0
  2 23  1  0  0  0  0
  3 16  2  0  0  0  0
  4 18  1  0  0  0  0
  4 24  1  0  0  0  0
  5 30  2  0  0  0  0
  6 11  1  0  0  0  0
  6 12  1  0  0  0  0
  6 14  1  0  0  0  0
  7 10  1  0  0  0  0
  7 13  1  0  0  0  0
  7 16  1  0  0  0  0
  8 25  1  0  0  0  0
  8 30  1  0  0  0  0
  8 52  1  0  0  0  0
  9 30  1  0  0  0  0
  9 53  1  0  0  0  0
  9 54  1  0  0  0  0
 10 11  1  0  0  0  0
 10 15  1  1  0  0  0
 10 31  1  0  0  0  0
 11 32  1  0  0  0  0
 11 33  1  0  0  0  0
 12 13  1  0  0  0  0
 12 34  1  0  0  0  0
 12 35  1  0  0  0  0
 13 36  1  0  0  0  0
 13 37  1  0  0  0  0
 14 17  1  0  0  0  0
 14 38  1  0  0  0  0
 14 39  1  0  0  0  0
 15 40  1  0  0  0  0
 15 41  1  0  0  0  0
 15 42  1  0  0  0  0
 16 18  1  0  0  0  0
 17 19  2  0  0  0  0
 17 20  1  0  0  0  0
 18 43  1  0  0  0  0
 18 44  1  0  0  0  0
 19 21  1  0  0  0  0
 19 45  1  0  0  0  0
 20 22  2  0  0  0  0
 20 46  1  0  0  0  0
 21 23  2  0  0  0  0
 21 47  1  0  0  0  0
 22 23  1  0  0  0  0
 22 48  1  0  0  0  0
 24 25  2  0  0  0  0
 24 26  1  0  0  0  0
 25 27  1  0  0  0  0
 26 28  2  0  0  0  0
 26 49  1  0  0  0  0
 27 29  2  0  0  0  0
 27 50  1  0  0  0  0
 28 29  1  0  0  0  0
 28 51  1  0  0  0  0
M  END
> <PUBCHEM_COMPOUND_CID>
512282
> <PUBCHEM_COMPOUND_CANONICALIZED>
1
> <PUBCHEM_CACTVS_COMPLEXITY>
591
> <PUBCHEM_CACTVS_HBOND_ACCEPTOR>
5
> <PUBCHEM_CACTVS_HBOND_DONOR>
2
> <PUBCHEM_CACTVS_ROTATABLE_BOND>
6
> <PUBCHEM_CACTVS_SUBSKEYS>
AAADceB7sQAEAAAAAAAAAAAAAAAAAAAAAAA8YIAAAAAAAAABQAAAHwIQAAAADC7hmC4zxoPABACIAiVSUAKCCAAhJwAIiABPboiOZiLFs5+XOCjk1hPY6CeQwAAOACAAAAIAEAAAQAAABAAgAAAAAAAAAA==
> <PUBCHEM_IUPAC_OPENEYE_NAME>
[5-chloro-2-[2-[(2R)-4-[(4-fluorophenyl)methyl]-2-methyl-piperazin-1-yl]-2-oxo-ethoxy]phenyl]urea
> <PUBCHEM_IUPAC_CAS_NAME>
[5-chloro-2-[2-[(2R)-4-[(4-fluorophenyl)methyl]-2-methyl-1-piperazinyl]-2-oxoethoxy]phenyl]urea
> <PUBCHEM_IUPAC_NAME_MARKUP>
[5-chloro-2-[2-[(2<I>R</I>)-4-[(4-fluorophenyl)methyl]-2-methylpiperazin-1-yl]-2-oxoethoxy]phenyl]urea
> <PUBCHEM_IUPAC_NAME>
[5-chloro-2-[2-[(2R)-4-[(4-fluorophenyl)methyl]-2-methylpiperazin-1-yl]-2-oxoethoxy]phenyl]urea
> <PUBCHEM_IUPAC_SYSTEMATIC_NAME>
1-[5-chloranyl-2-[2-[(2R)-4-[(4-fluorophenyl)methyl]-2-methyl-piperazin-1-yl]-2-oxidanylidene-ethoxy]phenyl]urea
> <PUBCHEM_IUPAC_TRADITIONAL_NAME>
[5-chloro-2-[2-[(2R)-4-(4-fluorobenzyl)-2-methyl-piperazino]-2-keto-ethoxy]phenyl]urea
> <PUBCHEM_IUPAC_INCHI>
InChI=1S/C21H24ClFN4O3/c1-14-11-26(12-15-2-5-17(23)6-3-15)8-9-27(14)20(28)13-30-19-7-4-16(22)10-18(19)25-21(24)29/h2-7,10,14H,8-9,11-13H2,1H3,(H3,24,25,29)/t14-/m1/s1
> <PUBCHEM_IUPAC_INCHIKEY>
XQYASZNUFDVMFH-CQSZACIVSA-N
> <PUBCHEM_XLOGP3_AA>
2.5
> <PUBCHEM_EXACT_MASS>
434.1520965
> <PUBCHEM_MOLECULAR_FORMULA>
C21H24ClFN4O3
> <PUBCHEM_MOLECULAR_WEIGHT>
434.9
> <PUBCHEM_OPENEYE_CAN_SMILES>
CC1CN(CCN1C(=O)COC2=C(C=C(C=C2)Cl)NC(=O)N)CC3=CC=C(C=C3)F
> <PUBCHEM_OPENEYE_ISO_SMILES>
C[C@@H]1CN(CCN1C(=O)COC2=C(C=C(C=C2)Cl)NC(=O)N)CC3=CC=C(C=C3)F
> <PUBCHEM_CACTVS_TPSA>
87.9
> <PUBCHEM_MONOISOTOPIC_WEIGHT>
434.1520965
> <PUBCHEM_TOTAL_CHARGE>
0
> <PUBCHEM_HEAVY_ATOM_COUNT>
30
> <PUBCHEM_ATOM_DEF_STEREO_COUNT>
1
> <PUBCHEM_ATOM_UDEF_STEREO_COUNT>
0
> <PUBCHEM_BOND_DEF_STEREO_COUNT>
0
> <PUBCHEM_BOND_UDEF_STEREO_COUNT>
0
> <PUBCHEM_ISOTOPIC_ATOM_COUNT>
0
> <PUBCHEM_COMPONENT_COUNT>
1
> <PUBCHEM_CACTVS_TAUTO_COUNT>
3
> <PUBCHEM_COORDINATE_TYPE>
1
5
255
> <PUBCHEM_BONDANNOTATIONS>
10  15  5
17  19  8
17  20  8
19  21  8
20  22  8
21  23  8
22  23  8
24  25  8
24  26  8
25  27  8
26  28  8
27  29  8
28  29  8
$$$$
