512284
  -OEChem-10302200282D
121126  0     1  0  0  0  0  0999 V2000
    7.9279    3.4199    0.0000 S   0  0  0  0  0  0  0  0  0  0  0  0
    7.7103   -2.8213    0.0000 O   0  0  0  0  0  0  0  0  0  0  0  0
    7.0424   -2.0770    0.0000 O   0  0  0  0  0  0  0  0  0  0  0  0
    9.4032   -6.0047    0.0000 O   0  0  0  0  0  0  0  0  0  0  0  0
    5.3496    1.1064    0.0000 O   0  0  0  0  0  0  0  0  0  0  0  0
   10.0710   -6.7490    0.0000 O   0  0  0  0  0  0  0  0  0  0  0  0
    7.2601    4.1642    0.0000 O   0  0  0  0  0  0  0  0  0  0  0  0
    9.3566   -3.3594    0.0000 N   0  0  0  0  0  0  0  0  0  0  0  0
    8.3316   -0.9202    0.0000 N   0  0  0  0  0  0  0  0  0  0  0  0
    6.9959    0.5684    0.0000 N   0  0  0  0  0  0  0  0  0  0  0  0
   10.6923   -4.8480    0.0000 N   0  0  0  0  0  0  0  0  0  0  0  0
    7.7568   -7.0761    0.0000 N   0  0  0  0  0  0  0  0  0  0  0  0
   12.6493   -2.8261    0.0000 N   0  0  0  0  0  0  0  0  0  0  0  0
    5.9709    3.0075    0.0000 N   0  0  0  0  0  0  0  0  0  0  0  0
    2.4141    0.4878    0.0000 N   0  0  0  0  0  0  0  0  0  0  0  0
   11.7174   -7.2871    0.0000 N   0  0  0  0  0  0  0  0  0  0  0  0
    4.6352    4.4961    0.0000 N   0  0  0  0  0  0  0  0  0  0  0  0
    5.4662    7.3749    0.0000 N   0  0  0  0  0  0  0  0  0  0  0  0
    3.8567    7.2086    0.0000 N   0  0  0  0  0  0  0  0  0  0  0  0
    9.0460   -4.3099    0.0000 C   0  0  1  0  0  0  0  0  0  0  0  0
    6.6853   -0.3822    0.0000 C   0  0  1  0  0  0  0  0  0  0  0  0
    8.9995   -1.6645    0.0000 C   0  0  1  0  0  0  0  0  0  0  0  0
    8.0675   -4.5161    0.0000 C   0  0  0  0  0  0  0  0  0  0  0  0
    5.7068   -0.5884    0.0000 C   0  0  0  0  0  0  0  0  0  0  0  0
    5.0389    0.1559    0.0000 C   0  0  0  0  0  0  0  0  0  0  0  0
    7.7568   -5.4666    0.0000 C   0  0  0  0  0  0  0  0  0  0  0  0
    9.9780   -1.4583    0.0000 C   0  0  0  0  0  0  0  0  0  0  0  0
    8.6888   -2.6151    0.0000 C   0  0  0  0  0  0  0  0  0  0  0  0
    7.3531   -1.1265    0.0000 C   0  0  0  0  0  0  0  0  0  0  0  0
   11.3602   -5.5923    0.0000 C   0  0  1  0  0  0  0  0  0  0  0  0
    9.7138   -5.0542    0.0000 C   0  0  0  0  0  0  0  0  0  0  0  0
   12.3387   -5.3860    0.0000 C   0  0  0  0  0  0  0  0  0  0  0  0
    6.8106   -5.7714    0.0000 C   0  0  0  0  0  0  0  0  0  0  0  0
    4.0604   -0.0503    0.0000 C   0  0  0  0  0  0  0  0  0  0  0  0
   12.6493   -4.4355    0.0000 C   0  0  0  0  0  0  0  0  0  0  0  0
    6.8106   -6.7714    0.0000 C   0  0  0  0  0  0  0  0  0  0  0  0
    8.3404   -6.2714    0.0000 C   0  0  0  0  0  0  0  0  0  0  0  0
   10.2886   -0.5078    0.0000 C   0  0  0  0  0  0  0  0  0  0  0  0
    6.3281    1.3127    0.0000 C   0  0  0  0  0  0  0  0  0  0  0  0
    6.6388    2.2632    0.0000 C   0  0  2  0  0  0  0  0  0  0  0  0
   13.5956   -4.1308    0.0000 C   0  0  0  0  0  0  0  0  0  0  0  0
    3.3926    0.6940    0.0000 C   0  0  0  0  0  0  0  0  0  0  0  0
   11.0495   -6.5428    0.0000 C   0  0  0  0  0  0  0  0  0  0  0  0
    5.9446   -5.2714    0.0000 C   0  0  0  0  0  0  0  0  0  0  0  0
   13.5956   -3.1308    0.0000 C   0  0  0  0  0  0  0  0  0  0  0  0
   12.0657   -3.6308    0.0000 C   0  0  0  0  0  0  0  0  0  0  0  0
    5.9446   -7.2714    0.0000 C   0  0  0  0  0  0  0  0  0  0  0  0
    7.6172    2.4694    0.0000 C   0  0  0  0  0  0  0  0  0  0  0  0
   11.2671   -0.3016    0.0000 C   0  0  0  0  0  0  0  0  0  0  0  0
    9.6208    0.2365    0.0000 C   0  0  0  0  0  0  0  0  0  0  0  0
   14.4616   -4.6308    0.0000 C   0  0  0  0  0  0  0  0  0  0  0  0
    5.0785   -5.7714    0.0000 C   0  0  0  0  0  0  0  0  0  0  0  0
    5.0785   -6.7714    0.0000 C   0  0  0  0  0  0  0  0  0  0  0  0
   14.4616   -2.6308    0.0000 C   0  0  0  0  0  0  0  0  0  0  0  0
    5.6137    4.7023    0.0000 C   0  0  2  0  0  0  0  0  0  0  0  0
    6.2816    3.9580    0.0000 C   0  0  0  0  0  0  0  0  0  0  0  0
   11.5778    0.6489    0.0000 C   0  0  0  0  0  0  0  0  0  0  0  0
    9.9314    1.1870    0.0000 C   0  0  0  0  0  0  0  0  0  0  0  0
   15.3276   -4.1308    0.0000 C   0  0  0  0  0  0  0  0  0  0  0  0
   15.3276   -3.1308    0.0000 C   0  0  0  0  0  0  0  0  0  0  0  0
    5.9244    5.6528    0.0000 C   0  0  0  0  0  0  0  0  0  0  0  0
   10.9100    1.3932    0.0000 C   0  0  0  0  0  0  0  0  0  0  0  0
    5.2565    6.3971    0.0000 C   0  0  0  0  0  0  0  0  0  0  0  0
    4.2618    6.2943    0.0000 C   0  0  0  0  0  0  0  0  0  0  0  0
    4.6010    7.8764    0.0000 C   0  0  0  0  0  0  0  0  0  0  0  0
    9.6526   -4.1820    0.0000 H   0  0  0  0  0  0  0  0  0  0  0  0
    6.2712    0.0793    0.0000 H   0  0  0  0  0  0  0  0  0  0  0  0
    9.1921   -1.0752    0.0000 H   0  0  0  0  0  0  0  0  0  0  0  0
    8.0469   -3.8964    0.0000 H   0  0  0  0  0  0  0  0  0  0  0  0
    7.4537   -4.4288    0.0000 H   0  0  0  0  0  0  0  0  0  0  0  0
    5.1804   -0.9160    0.0000 H   0  0  0  0  0  0  0  0  0  0  0  0
    5.9380   -1.1636    0.0000 H   0  0  0  0  0  0  0  0  0  0  0  0
    5.5653    0.4836    0.0000 H   0  0  0  0  0  0  0  0  0  0  0  0
    4.8077    0.7312    0.0000 H   0  0  0  0  0  0  0  0  0  0  0  0
    9.9633   -3.2315    0.0000 H   0  0  0  0  0  0  0  0  0  0  0  0
    9.9985   -2.0780    0.0000 H   0  0  0  0  0  0  0  0  0  0  0  0
   10.5918   -1.5457    0.0000 H   0  0  0  0  0  0  0  0  0  0  0  0
    8.5242   -0.3309    0.0000 H   0  0  0  0  0  0  0  0  0  0  0  0
   11.5528   -5.0030    0.0000 H   0  0  0  0  0  0  0  0  0  0  0  0
   12.3592   -6.0057    0.0000 H   0  0  0  0  0  0  0  0  0  0  0  0
   12.9525   -5.4734    0.0000 H   0  0  0  0  0  0  0  0  0  0  0  0
    3.5340   -0.3779    0.0000 H   0  0  0  0  0  0  0  0  0  0  0  0
    4.2917   -0.6255    0.0000 H   0  0  0  0  0  0  0  0  0  0  0  0
    7.6026    0.6962    0.0000 H   0  0  0  0  0  0  0  0  0  0  0  0
   10.8849   -4.2586    0.0000 H   0  0  0  0  0  0  0  0  0  0  0  0
    8.9604   -6.2714    0.0000 H   0  0  0  0  0  0  0  0  0  0  0  0
    6.8314    2.8525    0.0000 H   0  0  0  0  0  0  0  0  0  0  0  0
    7.9494   -7.6654    0.0000 H   0  0  0  0  0  0  0  0  0  0  0  0
    3.9189    1.0216    0.0000 H   0  0  0  0  0  0  0  0  0  0  0  0
    3.1613    1.2693    0.0000 H   0  0  0  0  0  0  0  0  0  0  0  0
    5.9446   -4.6514    0.0000 H   0  0  0  0  0  0  0  0  0  0  0  0
   11.4457   -3.6308    0.0000 H   0  0  0  0  0  0  0  0  0  0  0  0
    5.9446   -7.8914    0.0000 H   0  0  0  0  0  0  0  0  0  0  0  0
   12.4567   -2.2367    0.0000 H   0  0  0  0  0  0  0  0  0  0  0  0
    7.6378    1.8497    0.0000 H   0  0  0  0  0  0  0  0  0  0  0  0
    8.2311    2.3820    0.0000 H   0  0  0  0  0  0  0  0  0  0  0  0
   11.6812   -0.7631    0.0000 H   0  0  0  0  0  0  0  0  0  0  0  0
    9.0141    0.1086    0.0000 H   0  0  0  0  0  0  0  0  0  0  0  0
    5.3642    2.8796    0.0000 H   0  0  0  0  0  0  0  0  0  0  0  0
   14.4616   -5.2508    0.0000 H   0  0  0  0  0  0  0  0  0  0  0  0
    4.5416   -5.4614    0.0000 H   0  0  0  0  0  0  0  0  0  0  0  0
    4.5416   -7.0814    0.0000 H   0  0  0  0  0  0  0  0  0  0  0  0
   14.4616   -2.0108    0.0000 H   0  0  0  0  0  0  0  0  0  0  0  0
    5.4211    4.1130    0.0000 H   0  0  0  0  0  0  0  0  0  0  0  0
    2.0000    0.9493    0.0000 H   0  0  0  0  0  0  0  0  0  0  0  0
    2.2214   -0.1015    0.0000 H   0  0  0  0  0  0  0  0  0  0  0  0
   12.1845    0.7768    0.0000 H   0  0  0  0  0  0  0  0  0  0  0  0
    9.5174    1.6485    0.0000 H   0  0  0  0  0  0  0  0  0  0  0  0
   15.8645   -4.4408    0.0000 H   0  0  0  0  0  0  0  0  0  0  0  0
   11.5247   -7.8764    0.0000 H   0  0  0  0  0  0  0  0  0  0  0  0
   12.3240   -7.1592    0.0000 H   0  0  0  0  0  0  0  0  0  0  0  0
   15.8645   -2.8208    0.0000 H   0  0  0  0  0  0  0  0  0  0  0  0
    6.4713    5.3608    0.0000 H   0  0  0  0  0  0  0  0  0  0  0  0
    6.3069    6.1407    0.0000 H   0  0  0  0  0  0  0  0  0  0  0  0
   11.1026    1.9826    0.0000 H   0  0  0  0  0  0  0  0  0  0  0  0
    8.5346    3.5478    0.0000 H   0  0  0  0  0  0  0  0  0  0  0  0
    4.2212    4.9576    0.0000 H   0  0  0  0  0  0  0  0  0  0  0  0
    4.4426    3.9068    0.0000 H   0  0  0  0  0  0  0  0  0  0  0  0
    6.0330    7.6261    0.0000 H   0  0  0  0  0  0  0  0  0  0  0  0
    3.9509    5.7579    0.0000 H   0  0  0  0  0  0  0  0  0  0  0  0
    4.5372    8.4931    0.0000 H   0  0  0  0  0  0  0  0  0  0  0  0
  1 48  1  0  0  0  0
  1116  1  0  0  0  0
  2 28  2  0  0  0  0
  3 29  2  0  0  0  0
  4 31  2  0  0  0  0
  5 39  2  0  0  0  0
  6 43  2  0  0  0  0
  7 56  2  0  0  0  0
 20  8  1  6  0  0  0
  8 28  1  0  0  0  0
  8 75  1  0  0  0  0
 22  9  1  1  0  0  0
  9 29  1  0  0  0  0
  9 78  1  0  0  0  0
 21 10  1  6  0  0  0
 10 39  1  0  0  0  0
 10 84  1  0  0  0  0
 30 11  1  1  0  0  0
 11 31  1  0  0  0  0
 11 85  1  0  0  0  0
 12 36  1  0  0  0  0
 12 37  1  0  0  0  0
 12 88  1  0  0  0  0
 13 45  1  0  0  0  0
 13 46  1  0  0  0  0
 13 94  1  0  0  0  0
 40 14  1  1  0  0  0
 14 56  1  0  0  0  0
 14 99  1  0  0  0  0
 15 42  1  0  0  0  0
 15105  1  0  0  0  0
 15106  1  0  0  0  0
 16 43  1  0  0  0  0
 16110  1  0  0  0  0
 16111  1  0  0  0  0
 55 17  1  1  0  0  0
 17117  1  0  0  0  0
 17118  1  0  0  0  0
 18 63  1  0  0  0  0
 18 65  1  0  0  0  0
 18119  1  0  0  0  0
 19 64  1  0  0  0  0
 19 65  2  0  0  0  0
 20 23  1  0  0  0  0
 20 31  1  0  0  0  0
 20 66  1  0  0  0  0
 21 24  1  0  0  0  0
 21 29  1  0  0  0  0
 21 67  1  0  0  0  0
 22 27  1  0  0  0  0
 22 28  1  0  0  0  0
 22 68  1  0  0  0  0
 23 26  1  0  0  0  0
 23 69  1  0  0  0  0
 23 70  1  0  0  0  0
 24 25  1  0  0  0  0
 24 71  1  0  0  0  0
 24 72  1  0  0  0  0
 25 34  1  0  0  0  0
 25 73  1  0  0  0  0
 25 74  1  0  0  0  0
 26 33  1  0  0  0  0
 26 37  2  0  0  0  0
 27 38  1  0  0  0  0
 27 76  1  0  0  0  0
 27 77  1  0  0  0  0
 30 32  1  0  0  0  0
 30 43  1  0  0  0  0
 30 79  1  0  0  0  0
 32 35  1  0  0  0  0
 32 80  1  0  0  0  0
 32 81  1  0  0  0  0
 33 36  1  0  0  0  0
 33 44  2  0  0  0  0
 34 42  1  0  0  0  0
 34 82  1  0  0  0  0
 34 83  1  0  0  0  0
 35 41  1  0  0  0  0
 35 46  2  0  0  0  0
 36 47  2  0  0  0  0
 37 86  1  0  0  0  0
 38 49  2  0  0  0  0
 38 50  1  0  0  0  0
 39 40  1  0  0  0  0
 40 48  1  0  0  0  0
 40 87  1  0  0  0  0
 41 45  1  0  0  0  0
 41 51  2  0  0  0  0
 42 89  1  0  0  0  0
 42 90  1  0  0  0  0
 44 52  1  0  0  0  0
 44 91  1  0  0  0  0
 45 54  2  0  0  0  0
 46 92  1  0  0  0  0
 47 53  1  0  0  0  0
 47 93  1  0  0  0  0
 48 95  1  0  0  0  0
 48 96  1  0  0  0  0
 49 57  1  0  0  0  0
 49 97  1  0  0  0  0
 50 58  2  0  0  0  0
 50 98  1  0  0  0  0
 51 59  1  0  0  0  0
 51100  1  0  0  0  0
 52 53  2  0  0  0  0
 52101  1  0  0  0  0
 53102  1  0  0  0  0
 54 60  1  0  0  0  0
 54103  1  0  0  0  0
 55 56  1  0  0  0  0
 55 61  1  0  0  0  0
 55104  1  0  0  0  0
 57 62  2  0  0  0  0
 57107  1  0  0  0  0
 58 62  1  0  0  0  0
 58108  1  0  0  0  0
 59 60  2  0  0  0  0
 59109  1  0  0  0  0
 60112  1  0  0  0  0
 61 63  1  0  0  0  0
 61113  1  0  0  0  0
 61114  1  0  0  0  0
 62115  1  0  0  0  0
 63 64  2  0  0  0  0
 64120  1  0  0  0  0
 65121  1  0  0  0  0
M  END
> <PUBCHEM_COMPOUND_CID>
512284
> <PUBCHEM_COMPOUND_CANONICALIZED>
1
> <PUBCHEM_CACTVS_COMPLEXITY>
1590
> <PUBCHEM_CACTVS_HBOND_ACCEPTOR>
10
> <PUBCHEM_CACTVS_HBOND_DONOR>
12
> <PUBCHEM_CACTVS_ROTATABLE_BOND>
24
> <PUBCHEM_CACTVS_SUBSKEYS>
AAADcfB/+ABAAAAAAAAAAAAAAAAAAWLFgAAwYMAAAAAAAFgB/gAAHgQQAAAADCjF3gS90PbJkASoAzV3dACCgC2xEqAJ2aG4dJiIaPLA2bGUIAholgLIyCccicCOgAAAAAACAAAAAAAAAAQAAAAAAAAAAA==
> <PUBCHEM_IUPAC_OPENEYE_NAME>
(2S)-6-amino-2-[[(2R)-2-[[(2S)-2-amino-3-(1H-imidazol-5-yl)propanoyl]amino]-3-sulfanyl-propanoyl]amino]-N-[(1S)-2-[[(1S)-2-[[(1S)-2-amino-1-(1H-indol-3-ylmethyl)-2-oxo-ethyl]amino]-1-(1H-indol-3-ylmethyl)-2-oxo-ethyl]amino]-1-benzyl-2-oxo-ethyl]hexanamide
> <PUBCHEM_IUPAC_CAS_NAME>
(2S)-6-amino-2-[[(2R)-2-[[(2S)-2-amino-3-(1H-imidazol-5-yl)-1-oxopropyl]amino]-3-mercapto-1-oxopropyl]amino]-N-[(2S)-1-[[(2S)-1-[[(2S)-1-amino-3-(1H-indol-3-yl)-1-oxopropan-2-yl]amino]-3-(1H-indol-3-yl)-1-oxopropan-2-yl]amino]-1-oxo-3-phenylpropan-2-yl]hexanamide
> <PUBCHEM_IUPAC_NAME_MARKUP>
(2<I>S</I>)-6-amino-2-[[(2<I>R</I>)-2-[[(2<I>S</I>)-2-amino-3-(1<I>H</I>-imidazol-5-yl)propanoyl]amino]-3-sulfanylpropanoyl]amino]-<I>N</I>-[(2<I>S</I>)-1-[[(2<I>S</I>)-1-[[(2<I>S</I>)-1-amino-3-(1<I>H</I>-indol-3-yl)-1-oxopropan-2-yl]amino]-3-(1<I>H</I>-indol-3-yl)-1-oxopropan-2-yl]amino]-1-oxo-3-phenylpropan-2-yl]hexanamide
> <PUBCHEM_IUPAC_NAME>
(2S)-6-amino-2-[[(2R)-2-[[(2S)-2-amino-3-(1H-imidazol-5-yl)propanoyl]amino]-3-sulfanylpropanoyl]amino]-N-[(2S)-1-[[(2S)-1-[[(2S)-1-amino-3-(1H-indol-3-yl)-1-oxopropan-2-yl]amino]-3-(1H-indol-3-yl)-1-oxopropan-2-yl]amino]-1-oxo-3-phenylpropan-2-yl]hexanamide
> <PUBCHEM_IUPAC_SYSTEMATIC_NAME>
(2S)-6-azanyl-2-[[(2R)-2-[[(2S)-2-azanyl-3-(1H-imidazol-5-yl)propanoyl]amino]-3-sulfanyl-propanoyl]amino]-N-[(2S)-1-[[(2S)-1-[[(2S)-1-azanyl-3-(1H-indol-3-yl)-1-oxidanylidene-propan-2-yl]amino]-3-(1H-indol-3-yl)-1-oxidanylidene-propan-2-yl]amino]-1-oxidanylidene-3-phenyl-propan-2-yl]hexanamide
> <PUBCHEM_IUPAC_TRADITIONAL_NAME>
(2S)-6-amino-2-[[(2R)-2-[[(2S)-2-amino-3-(1H-imidazol-5-yl)propanoyl]amino]-3-mercapto-propanoyl]amino]-N-[(1S)-2-[[(1S)-2-[[(1S)-2-amino-1-(1H-indol-3-ylmethyl)-2-keto-ethyl]amino]-1-(1H-indol-3-ylmethyl)-2-keto-ethyl]amino]-1-benzyl-2-keto-ethyl]hexanamide
> <PUBCHEM_IUPAC_INCHI>
InChI=1S/C46H56N12O6S/c47-17-9-8-16-36(54-46(64)40(25-65)58-42(60)33(48)21-30-24-50-26-53-30)43(61)56-38(18-27-10-2-1-3-11-27)44(62)57-39(20-29-23-52-35-15-7-5-13-32(29)35)45(63)55-37(41(49)59)19-28-22-51-34-14-6-4-12-31(28)34/h1-7,10-15,22-24,26,33,36-40,51-52,65H,8-9,16-21,25,47-48H2,(H2,49,59)(H,50,53)(H,54,64)(H,55,63)(H,56,61)(H,57,62)(H,58,60)/t33-,36-,37-,38-,39-,40-/m0/s1
> <PUBCHEM_IUPAC_INCHIKEY>
CEMAKGYCEDBVQU-CCMAZBEPSA-N
> <PUBCHEM_XLOGP3_AA>
1.8
> <PUBCHEM_EXACT_MASS>
904.41664873
> <PUBCHEM_MOLECULAR_FORMULA>
C46H56N12O6S
> <PUBCHEM_MOLECULAR_WEIGHT>
905.1
> <PUBCHEM_OPENEYE_CAN_SMILES>
C1=CC=C(C=C1)CC(C(=O)NC(CC2=CNC3=CC=CC=C32)C(=O)NC(CC4=CNC5=CC=CC=C54)C(=O)N)NC(=O)C(CCCCN)NC(=O)C(CS)NC(=O)C(CC6=CN=CN6)N
> <PUBCHEM_OPENEYE_ISO_SMILES>
C1=CC=C(C=C1)C[C@@H](C(=O)N[C@@H](CC2=CNC3=CC=CC=C32)C(=O)N[C@@H](CC4=CNC5=CC=CC=C54)C(=O)N)NC(=O)[C@H](CCCCN)NC(=O)[C@H](CS)NC(=O)[C@H](CC6=CN=CN6)N
> <PUBCHEM_CACTVS_TPSA>
302
> <PUBCHEM_MONOISOTOPIC_WEIGHT>
904.41664873
> <PUBCHEM_TOTAL_CHARGE>
0
> <PUBCHEM_HEAVY_ATOM_COUNT>
65
> <PUBCHEM_ATOM_DEF_STEREO_COUNT>
6
> <PUBCHEM_ATOM_UDEF_STEREO_COUNT>
0
> <PUBCHEM_BOND_DEF_STEREO_COUNT>
0
> <PUBCHEM_BOND_UDEF_STEREO_COUNT>
0
> <PUBCHEM_ISOTOPIC_ATOM_COUNT>
0
> <PUBCHEM_COMPONENT_COUNT>
1
> <PUBCHEM_CACTVS_TAUTO_COUNT>
-1
> <PUBCHEM_COORDINATE_TYPE>
1
5
255
> <PUBCHEM_BONDANNOTATIONS>
21  10  6
30  11  5
12  36  8
12  37  8
13  45  8
13  46  8
40  14  5
55  17  5
18  63  8
18  65  8
19  64  8
19  65  8
26  33  8
26  37  8
33  36  8
33  44  8
35  41  8
35  46  8
36  47  8
38  49  8
38  50  8
41  45  8
41  51  8
44  52  8
45  54  8
47  53  8
49  57  8
50  58  8
51  59  8
52  53  8
54  60  8
57  62  8
58  62  8
59  60  8
63  64  8
20  8  6
22  9  5
$$$$
