512347
  -OEChem-10302200282D
 50 53  0     1  0  0  0  0  0999 V2000
    4.3540    2.9063    0.0000 N   0  0  0  0  0  0  0  0  0  0  0  0
    3.6730   -1.3551    0.0000 C   0  0  0  0  0  0  0  0  0  0  0  0
    4.5092   -2.8034    0.0000 C   0  0  0  0  0  0  0  0  0  0  0  0
    2.9819   -3.2385    0.0000 C   0  0  0  0  0  0  0  0  0  0  0  0
    2.8368   -2.8034    0.0000 C   0  0  0  0  0  0  0  0  0  0  0  0
    4.5092   -1.8379    0.0000 C   0  0  0  0  0  0  0  0  0  0  0  0
    2.9819   -2.1932    0.0000 C   0  0  0  0  0  0  0  0  0  0  0  0
    2.8368   -1.8379    0.0000 C   0  0  0  0  0  0  0  0  0  0  0  0
    3.6730   -0.3551    0.0000 C   0  0  3  0  0  0  0  0  0  0  0  0
    3.8876   -3.7153    0.0000 C   0  0  0  0  0  0  0  0  0  0  0  0
    3.6730   -3.1062    0.0000 C   0  0  0  0  0  0  0  0  0  0  0  0
    2.0000   -3.2862    0.0000 C   0  0  0  0  0  0  0  0  0  0  0  0
    4.4820    0.2327    0.0000 C   0  0  0  0  0  0  0  0  0  0  0  0
    2.8640    0.2327    0.0000 C   0  0  0  0  0  0  0  0  0  0  0  0
    4.1730    1.1837    0.0000 C   0  0  3  0  0  0  0  0  0  0  0  0
    3.1730    1.1837    0.0000 C   0  0  0  0  0  0  0  0  0  0  0  0
    4.7608    1.9928    0.0000 C   0  0  0  0  0  0  0  0  0  0  0  0
    4.9418    3.7153    0.0000 C   0  0  0  0  0  0  0  0  0  0  0  0
    3.3595    3.0108    0.0000 C   0  0  0  0  0  0  0  0  0  0  0  0
    5.1016   -2.9862    0.0000 H   0  0  0  0  0  0  0  0  0  0  0  0
    2.8478   -3.8438    0.0000 H   0  0  0  0  0  0  0  0  0  0  0  0
    3.3444   -2.4474    0.0000 H   0  0  0  0  0  0  0  0  0  0  0  0
    5.1198   -1.9456    0.0000 H   0  0  0  0  0  0  0  0  0  0  0  0
    4.7212   -1.2553    0.0000 H   0  0  0  0  0  0  0  0  0  0  0  0
    2.6383   -1.6772    0.0000 H   0  0  0  0  0  0  0  0  0  0  0  0
    2.3885   -2.3727    0.0000 H   0  0  0  0  0  0  0  0  0  0  0  0
    2.6247   -1.2553    0.0000 H   0  0  0  0  0  0  0  0  0  0  0  0
    2.2262   -1.9455    0.0000 H   0  0  0  0  0  0  0  0  0  0  0  0
    4.2254   -0.6366    0.0000 H   0  0  0  0  0  0  0  0  0  0  0  0
    3.5782   -4.2526    0.0000 H   0  0  0  0  0  0  0  0  0  0  0  0
    4.4127   -4.0449    0.0000 H   0  0  0  0  0  0  0  0  0  0  0  0
    3.3030   -3.6037    0.0000 H   0  0  0  0  0  0  0  0  0  0  0  0
    4.0430   -3.6037    0.0000 H   0  0  0  0  0  0  0  0  0  0  0  0
    1.5188   -2.8953    0.0000 H   0  0  0  0  0  0  0  0  0  0  0  0
    1.8068   -3.8753    0.0000 H   0  0  0  0  0  0  0  0  0  0  0  0
    4.7920   -0.3042    0.0000 H   0  0  0  0  0  0  0  0  0  0  0  0
    5.0484    0.4849    0.0000 H   0  0  0  0  0  0  0  0  0  0  0  0
    2.2976    0.4849    0.0000 H   0  0  0  0  0  0  0  0  0  0  0  0
    2.5540   -0.3043    0.0000 H   0  0  0  0  0  0  0  0  0  0  0  0
    3.8915    1.7362    0.0000 H   0  0  0  0  0  0  0  0  0  0  0  0
    3.2378    1.8003    0.0000 H   0  0  0  0  0  0  0  0  0  0  0  0
    2.5665    1.3126    0.0000 H   0  0  0  0  0  0  0  0  0  0  0  0
    5.1915    1.5468    0.0000 H   0  0  0  0  0  0  0  0  0  0  0  0
    5.2748    2.3395    0.0000 H   0  0  0  0  0  0  0  0  0  0  0  0
    5.4434    3.3509    0.0000 H   0  0  0  0  0  0  0  0  0  0  0  0
    5.3062    4.2169    0.0000 H   0  0  0  0  0  0  0  0  0  0  0  0
    4.4402    4.0798    0.0000 H   0  0  0  0  0  0  0  0  0  0  0  0
    3.4243    3.6274    0.0000 H   0  0  0  0  0  0  0  0  0  0  0  0
    2.7429    3.0756    0.0000 H   0  0  0  0  0  0  0  0  0  0  0  0
    3.2947    2.3942    0.0000 H   0  0  0  0  0  0  0  0  0  0  0  0
  1 17  1  0  0  0  0
  1 18  1  0  0  0  0
  1 19  1  0  0  0  0
  2  6  1  0  0  0  0
  2  7  1  0  0  0  0
  2  8  1  0  0  0  0
  2  9  1  0  0  0  0
  3  6  1  0  0  0  0
  3 10  1  0  0  0  0
  3 11  1  0  0  0  0
  3 20  1  0  0  0  0
  4  7  1  0  0  0  0
  4 10  1  0  0  0  0
  4 12  1  0  0  0  0
  4 21  1  0  0  0  0
  5  8  1  0  0  0  0
  5 11  1  0  0  0  0
  5 12  1  0  0  0  0
  5 22  1  0  0  0  0
  6 23  1  0  0  0  0
  6 24  1  0  0  0  0
  7 25  1  0  0  0  0
  7 26  1  0  0  0  0
  8 27  1  0  0  0  0
  8 28  1  0  0  0  0
  9 13  1  0  0  0  0
  9 14  1  0  0  0  0
  9 29  1  0  0  0  0
 10 30  1  0  0  0  0
 10 31  1  0  0  0  0
 11 32  1  0  0  0  0
 11 33  1  0  0  0  0
 12 34  1  0  0  0  0
 12 35  1  0  0  0  0
 13 15  1  0  0  0  0
 13 36  1  0  0  0  0
 13 37  1  0  0  0  0
 14 16  1  0  0  0  0
 14 38  1  0  0  0  0
 14 39  1  0  0  0  0
 15 16  1  0  0  0  0
 15 17  1  0  0  0  0
 15 40  1  0  0  0  0
 16 41  1  0  0  0  0
 16 42  1  0  0  0  0
 17 43  1  0  0  0  0
 17 44  1  0  0  0  0
 18 45  1  0  0  0  0
 18 46  1  0  0  0  0
 18 47  1  0  0  0  0
 19 48  1  0  0  0  0
 19 49  1  0  0  0  0
 19 50  1  0  0  0  0
M  END
> <PUBCHEM_COMPOUND_CID>
512347
> <PUBCHEM_COMPOUND_CANONICALIZED>
1
> <PUBCHEM_CACTVS_COMPLEXITY>
304
> <PUBCHEM_CACTVS_HBOND_ACCEPTOR>
1
> <PUBCHEM_CACTVS_HBOND_DONOR>
0
> <PUBCHEM_CACTVS_ROTATABLE_BOND>
3
> <PUBCHEM_CACTVS_SUBSKEYS>
AAADceB6AAAAAAAAAAAAAAAAAAAAAYAAAAAwYMGAAAAAAAAAAAAAHAAAAAAADwDBAAQCAAMAAAAAAAAAAAAAAAAAAAAAAAAIAAAAAAIAgAAEAAAAAAAAAAEQgMAPgAAAAAAAAAAAAAQAAAAAAQAAAAAAAA==
> <PUBCHEM_IUPAC_OPENEYE_NAME>
1-[3-(1-adamantyl)cyclopentyl]-N,N-dimethyl-methanamine
> <PUBCHEM_IUPAC_CAS_NAME>
1-[3-(1-adamantyl)cyclopentyl]-N,N-dimethylmethanamine
> <PUBCHEM_IUPAC_NAME_MARKUP>
1-[3-(1-adamantyl)cyclopentyl]-<I>N</I>,<I>N</I>-dimethylmethanamine
> <PUBCHEM_IUPAC_NAME>
1-[3-(1-adamantyl)cyclopentyl]-N,N-dimethylmethanamine
> <PUBCHEM_IUPAC_SYSTEMATIC_NAME>
1-[3-(1-adamantyl)cyclopentyl]-N,N-dimethyl-methanamine
> <PUBCHEM_IUPAC_TRADITIONAL_NAME>
[3-(1-adamantyl)cyclopentyl]methyl-dimethyl-amine
> <PUBCHEM_IUPAC_INCHI>
InChI=1S/C18H31N/c1-19(2)12-13-3-4-17(8-13)18-9-14-5-15(10-18)7-16(6-14)11-18/h13-17H,3-12H2,1-2H3
> <PUBCHEM_IUPAC_INCHIKEY>
ZTQXCFGQPAETKU-UHFFFAOYSA-N
> <PUBCHEM_XLOGP3_AA>
5.3
> <PUBCHEM_EXACT_MASS>
261.245649993
> <PUBCHEM_MOLECULAR_FORMULA>
C18H31N
> <PUBCHEM_MOLECULAR_WEIGHT>
261.4
> <PUBCHEM_OPENEYE_CAN_SMILES>
CN(C)CC1CCC(C1)C23CC4CC(C2)CC(C4)C3
> <PUBCHEM_OPENEYE_ISO_SMILES>
CN(C)CC1CCC(C1)C23CC4CC(C2)CC(C4)C3
> <PUBCHEM_CACTVS_TPSA>
3.2
> <PUBCHEM_MONOISOTOPIC_WEIGHT>
261.245649993
> <PUBCHEM_TOTAL_CHARGE>
0
> <PUBCHEM_HEAVY_ATOM_COUNT>
19
> <PUBCHEM_ATOM_DEF_STEREO_COUNT>
0
> <PUBCHEM_ATOM_UDEF_STEREO_COUNT>
2
> <PUBCHEM_BOND_DEF_STEREO_COUNT>
0
> <PUBCHEM_BOND_UDEF_STEREO_COUNT>
0
> <PUBCHEM_ISOTOPIC_ATOM_COUNT>
0
> <PUBCHEM_COMPONENT_COUNT>
1
> <PUBCHEM_CACTVS_TAUTO_COUNT>
-1
> <PUBCHEM_COORDINATE_TYPE>
1
5
255
> <PUBCHEM_BONDANNOTATIONS>
15  17  3
9  2  3
$$$$
