512317
  -OEChem-10302200282D
 29 30  0     1  0  0  0  0  0999 V2000
    2.0000    2.8815    0.0000 Cl  0  0  0  0  0  0  0  0  0  0  0  0
    6.2731   -0.7063    0.0000 O   0  0  0  0  0  0  0  0  0  0  0  0
    4.9641   -1.6573    0.0000 O   0  0  0  0  0  0  0  0  0  0  0  0
    6.1452   -3.3799    0.0000 O   0  0  0  0  0  0  0  0  0  0  0  0
    7.1962    0.8815    0.0000 O   0  0  0  0  0  0  0  0  0  0  0  0
    5.4641    3.8815    0.0000 O   0  0  0  0  0  0  0  0  0  0  0  0
    5.4641    0.8815    0.0000 N   0  0  0  0  0  0  0  0  0  0  0  0
    6.3301    2.3815    0.0000 N   0  0  0  0  0  0  0  0  0  0  0  0
    5.4641   -0.1185    0.0000 C   0  0  1  0  0  0  0  0  0  0  0  0
    4.6551   -0.7063    0.0000 C   0  0  0  0  0  0  0  0  0  0  0  0
    5.9641   -1.6573    0.0000 C   0  0  2  0  0  0  0  0  0  0  0  0
    6.5519   -2.4664    0.0000 C   0  0  0  0  0  0  0  0  0  0  0  0
    4.5981    1.3815    0.0000 C   0  0  0  0  0  0  0  0  0  0  0  0
    6.3301    1.3815    0.0000 C   0  0  0  0  0  0  0  0  0  0  0  0
    4.5981    2.3815    0.0000 C   0  0  0  0  0  0  0  0  0  0  0  0
    5.4641    2.8815    0.0000 C   0  0  0  0  0  0  0  0  0  0  0  0
    3.7320    2.8815    0.0000 C   0  0  0  0  0  0  0  0  0  0  0  0
    2.8660    2.3815    0.0000 C   0  0  0  0  0  0  0  0  0  0  0  0
    6.0165    0.1630    0.0000 H   0  0  0  0  0  0  0  0  0  0  0  0
    4.3451   -0.1694    0.0000 H   0  0  0  0  0  0  0  0  0  0  0  0
    4.0887   -0.9585    0.0000 H   0  0  0  0  0  0  0  0  0  0  0  0
    6.5765   -1.5603    0.0000 H   0  0  0  0  0  0  0  0  0  0  0  0
    7.0659   -2.8131    0.0000 H   0  0  0  0  0  0  0  0  0  0  0  0
    6.9826   -2.0204    0.0000 H   0  0  0  0  0  0  0  0  0  0  0  0
    4.0611    1.0715    0.0000 H   0  0  0  0  0  0  0  0  0  0  0  0
    6.8671    2.6915    0.0000 H   0  0  0  0  0  0  0  0  0  0  0  0
    3.7320    3.5015    0.0000 H   0  0  0  0  0  0  0  0  0  0  0  0
    6.5096   -3.8815    0.0000 H   0  0  0  0  0  0  0  0  0  0  0  0
    2.8660    1.7615    0.0000 H   0  0  0  0  0  0  0  0  0  0  0  0
  1 18  1  0  0  0  0
  2  9  1  0  0  0  0
  2 11  1  0  0  0  0
  3 10  1  0  0  0  0
  3 11  1  0  0  0  0
  4 12  1  0  0  0  0
  4 28  1  0  0  0  0
  5 14  2  0  0  0  0
  6 16  2  0  0  0  0
  9  7  1  6  0  0  0
  7 13  1  0  0  0  0
  7 14  1  0  0  0  0
  8 14  1  0  0  0  0
  8 16  1  0  0  0  0
  8 26  1  0  0  0  0
  9 10  1  0  0  0  0
  9 19  1  0  0  0  0
 10 20  1  0  0  0  0
 10 21  1  0  0  0  0
 11 12  1  1  0  0  0
 11 22  1  0  0  0  0
 12 23  1  0  0  0  0
 12 24  1  0  0  0  0
 13 15  2  0  0  0  0
 13 25  1  0  0  0  0
 15 16  1  0  0  0  0
 15 17  1  0  0  0  0
 17 18  2  3  0  0  0
 17 27  1  0  0  0  0
 18 29  1  0  0  0  0
M  END
> <PUBCHEM_COMPOUND_CID>
512317
> <PUBCHEM_COMPOUND_CANONICALIZED>
1
> <PUBCHEM_CACTVS_COMPLEXITY>
423
> <PUBCHEM_CACTVS_HBOND_ACCEPTOR>
5
> <PUBCHEM_CACTVS_HBOND_DONOR>
2
> <PUBCHEM_CACTVS_ROTATABLE_BOND>
3
> <PUBCHEM_CACTVS_SUBSKEYS>
AAADccBzOAAEAAAAAAAAAAAAAAAAASAAAAAgAAAAAAAAAAAAAAAAHgIQCAAADAPxgEcBCAPABgCIAiFWUACAAAAgAAAIAAEIAEibEAAAAQAvAAAIByIXAMAAAAAAAAAAAAAAAAAAAAAAAAAAAAAAAAAAAA==
> <PUBCHEM_IUPAC_OPENEYE_NAME>
5-(2-chlorovinyl)-1-[(2S,4R)-2-(hydroxymethyl)-1,3-dioxolan-4-yl]pyrimidine-2,4-dione
> <PUBCHEM_IUPAC_CAS_NAME>
5-(2-chloroethenyl)-1-[(2S,4R)-2-(hydroxymethyl)-1,3-dioxolan-4-yl]pyrimidine-2,4-dione
> <PUBCHEM_IUPAC_NAME_MARKUP>
5-(2-chloroethenyl)-1-[(2<I>S</I>,4<I>R</I>)-2-(hydroxymethyl)-1,3-dioxolan-4-yl]pyrimidine-2,4-dione
> <PUBCHEM_IUPAC_NAME>
5-(2-chloroethenyl)-1-[(2S,4R)-2-(hydroxymethyl)-1,3-dioxolan-4-yl]pyrimidine-2,4-dione
> <PUBCHEM_IUPAC_SYSTEMATIC_NAME>
5-(2-chloranylethenyl)-1-[(2S,4R)-2-(hydroxymethyl)-1,3-dioxolan-4-yl]pyrimidine-2,4-dione
> <PUBCHEM_IUPAC_TRADITIONAL_NAME>
5-(2-chlorovinyl)-1-[(2S,4R)-2-methylol-1,3-dioxolan-4-yl]pyrimidine-2,4-quinone
> <PUBCHEM_IUPAC_INCHI>
InChI=1S/C10H11ClN2O5/c11-2-1-6-3-13(10(16)12-9(6)15)7-5-17-8(4-14)18-7/h1-3,7-8,14H,4-5H2,(H,12,15,16)/t7-,8+/m1/s1
> <PUBCHEM_IUPAC_INCHIKEY>
IPJDIPLTDHPFRM-SFYZADRCSA-N
> <PUBCHEM_XLOGP3_AA>
-0.6
> <PUBCHEM_EXACT_MASS>
274.0356491
> <PUBCHEM_MOLECULAR_FORMULA>
C10H11ClN2O5
> <PUBCHEM_MOLECULAR_WEIGHT>
274.66
> <PUBCHEM_OPENEYE_CAN_SMILES>
C1C(OC(O1)CO)N2C=C(C(=O)NC2=O)C=CCl
> <PUBCHEM_OPENEYE_ISO_SMILES>
C1[C@@H](O[C@H](O1)CO)N2C=C(C(=O)NC2=O)C=CCl
> <PUBCHEM_CACTVS_TPSA>
88.1
> <PUBCHEM_MONOISOTOPIC_WEIGHT>
274.0356491
> <PUBCHEM_TOTAL_CHARGE>
0
> <PUBCHEM_HEAVY_ATOM_COUNT>
18
> <PUBCHEM_ATOM_DEF_STEREO_COUNT>
2
> <PUBCHEM_ATOM_UDEF_STEREO_COUNT>
0
> <PUBCHEM_BOND_DEF_STEREO_COUNT>
0
> <PUBCHEM_BOND_UDEF_STEREO_COUNT>
1
> <PUBCHEM_ISOTOPIC_ATOM_COUNT>
0
> <PUBCHEM_COMPONENT_COUNT>
1
> <PUBCHEM_CACTVS_TAUTO_COUNT>
-1
> <PUBCHEM_COORDINATE_TYPE>
1
5
255
> <PUBCHEM_BONDANNOTATIONS>
11  12  5
13  15  8
15  16  8
17  18  1
7  13  8
7  14  8
9  7  6
8  14  8
8  16  8
$$$$
