512336
  -OEChem-10302200282D
 36 38  0     1  0  0  0  0  0999 V2000
    2.0000    1.4045    0.0000 Br  0  0  0  0  0  0  0  0  0  0  0  0
    7.5464   -3.8388    0.0000 Cl  0  0  0  0  0  0  0  0  0  0  0  0
    6.2731   -2.1833    0.0000 O   0  0  0  0  0  0  0  0  0  0  0  0
    4.3763   -3.9434    0.0000 O   0  0  0  0  0  0  0  0  0  0  0  0
    7.1962   -0.5955    0.0000 O   0  0  0  0  0  0  0  0  0  0  0  0
    5.4641   -0.5955    0.0000 N   0  0  0  0  0  0  0  0  0  0  0  0
    6.3301    0.9045    0.0000 N   0  0  0  0  0  0  0  0  0  0  0  0
    5.4641    2.4045    0.0000 N   0  0  0  0  0  0  0  0  0  0  0  0
    6.2731    2.9923    0.0000 N   0  0  0  0  0  0  0  0  0  0  0  0
    4.9641    3.9434    0.0000 N   0  0  0  0  0  0  0  0  0  0  0  0
    4.9641   -3.1343    0.0000 C   0  0  1  0  0  0  0  0  0  0  0  0
    5.4641   -1.5955    0.0000 C   0  0  1  0  0  0  0  0  0  0  0  0
    4.6551   -2.1833    0.0000 C   0  0  0  0  0  0  0  0  0  0  0  0
    5.9641   -3.1343    0.0000 C   0  0  1  0  0  0  0  0  0  0  0  0
    6.5519   -3.9434    0.0000 C   0  0  0  0  0  0  0  0  0  0  0  0
    4.5981   -0.0955    0.0000 C   0  0  0  0  0  0  0  0  0  0  0  0
    6.3301   -0.0955    0.0000 C   0  0  0  0  0  0  0  0  0  0  0  0
    4.5981    0.9045    0.0000 C   0  0  0  0  0  0  0  0  0  0  0  0
    5.4641    1.4045    0.0000 C   0  0  0  0  0  0  0  0  0  0  0  0
    3.7320    1.4045    0.0000 C   0  0  0  0  0  0  0  0  0  0  0  0
    4.6551    2.9923    0.0000 C   0  0  0  0  0  0  0  0  0  0  0  0
    2.8660    0.9045    0.0000 C   0  0  0  0  0  0  0  0  0  0  0  0
    5.9641    3.9434    0.0000 C   0  0  0  0  0  0  0  0  0  0  0  0
    5.2456   -3.6868    0.0000 H   0  0  0  0  0  0  0  0  0  0  0  0
    6.0165   -1.3140    0.0000 H   0  0  0  0  0  0  0  0  0  0  0  0
    4.3451   -1.6463    0.0000 H   0  0  0  0  0  0  0  0  0  0  0  0
    4.0887   -2.4354    0.0000 H   0  0  0  0  0  0  0  0  0  0  0  0
    6.5765   -3.0373    0.0000 H   0  0  0  0  0  0  0  0  0  0  0  0
    5.9946   -4.2151    0.0000 H   0  0  0  0  0  0  0  0  0  0  0  0
    6.7228   -4.5393    0.0000 H   0  0  0  0  0  0  0  0  0  0  0  0
    3.7597   -3.8785    0.0000 H   0  0  0  0  0  0  0  0  0  0  0  0
    4.0611   -0.4055    0.0000 H   0  0  0  0  0  0  0  0  0  0  0  0
    3.7320    2.0245    0.0000 H   0  0  0  0  0  0  0  0  0  0  0  0
    4.0654    2.8007    0.0000 H   0  0  0  0  0  0  0  0  0  0  0  0
    2.8660    0.2845    0.0000 H   0  0  0  0  0  0  0  0  0  0  0  0
    6.3285    4.4449    0.0000 H   0  0  0  0  0  0  0  0  0  0  0  0
  1 22  1  0  0  0  0
  2 15  1  0  0  0  0
  3 12  1  0  0  0  0
  3 14  1  0  0  0  0
 11  4  1  1  0  0  0
  4 31  1  0  0  0  0
  5 17  2  0  0  0  0
 12  6  1  6  0  0  0
  6 16  1  0  0  0  0
  6 17  1  0  0  0  0
  7 17  1  0  0  0  0
  7 19  2  0  0  0  0
  8  9  1  0  0  0  0
  8 19  1  0  0  0  0
  8 21  1  0  0  0  0
  9 23  2  0  0  0  0
 10 21  2  0  0  0  0
 10 23  1  0  0  0  0
 11 13  1  0  0  0  0
 11 14  1  0  0  0  0
 11 24  1  0  0  0  0
 12 13  1  0  0  0  0
 12 25  1  0  0  0  0
 13 26  1  0  0  0  0
 13 27  1  0  0  0  0
 14 15  1  6  0  0  0
 14 28  1  0  0  0  0
 15 29  1  0  0  0  0
 15 30  1  0  0  0  0
 16 18  2  0  0  0  0
 16 32  1  0  0  0  0
 18 19  1  0  0  0  0
 18 20  1  0  0  0  0
 20 22  2  3  0  0  0
 20 33  1  0  0  0  0
 21 34  1  0  0  0  0
 22 35  1  0  0  0  0
 23 36  1  0  0  0  0
M  END
> <PUBCHEM_COMPOUND_CID>
512336
> <PUBCHEM_COMPOUND_CANONICALIZED>
1
> <PUBCHEM_CACTVS_COMPLEXITY>
570
> <PUBCHEM_CACTVS_HBOND_ACCEPTOR>
5
> <PUBCHEM_CACTVS_HBOND_DONOR>
1
> <PUBCHEM_CACTVS_ROTATABLE_BOND>
4
> <PUBCHEM_CACTVS_SUBSKEYS>
AAADccBzsAAEEAAAAAAAAAAAAAAAAWJAAAAgAAAAAAAAAAABgAAAHgJICAABTBfhgEYFEAcIFgCqAiJndACQAAswgIAdQAAoAxiJGAIBiQAOQAAPBgIDAACwAAAAAAAAAAAAAAAAAAAAAAAAAAAAAAAAAA==
> <PUBCHEM_IUPAC_OPENEYE_NAME>
5-(2-bromovinyl)-1-[(2R,4S,5S)-5-(chloromethyl)-4-hydroxy-tetrahydrofuran-2-yl]-4-(1,2,4-triazol-1-yl)pyrimidin-2-one
> <PUBCHEM_IUPAC_CAS_NAME>
5-(2-bromoethenyl)-1-[(2R,4S,5S)-5-(chloromethyl)-4-hydroxy-2-oxolanyl]-4-(1,2,4-triazol-1-yl)-2-pyrimidinone
> <PUBCHEM_IUPAC_NAME_MARKUP>
5-(2-bromoethenyl)-1-[(2<I>R</I>,4<I>S</I>,5<I>S</I>)-5-(chloromethyl)-4-hydroxyoxolan-2-yl]-4-(1,2,4-triazol-1-yl)pyrimidin-2-one
> <PUBCHEM_IUPAC_NAME>
5-(2-bromoethenyl)-1-[(2R,4S,5S)-5-(chloromethyl)-4-hydroxyoxolan-2-yl]-4-(1,2,4-triazol-1-yl)pyrimidin-2-one
> <PUBCHEM_IUPAC_SYSTEMATIC_NAME>
5-(2-bromanylethenyl)-1-[(2R,4S,5S)-5-(chloromethyl)-4-oxidanyl-oxolan-2-yl]-4-(1,2,4-triazol-1-yl)pyrimidin-2-one
> <PUBCHEM_IUPAC_TRADITIONAL_NAME>
5-(2-bromovinyl)-1-[(2R,4S,5S)-5-(chloromethyl)-4-hydroxy-tetrahydrofuran-2-yl]-4-(1,2,4-triazol-1-yl)pyrimidin-2-one
> <PUBCHEM_IUPAC_INCHI>
InChI=1S/C13H13BrClN5O3/c14-2-1-8-5-19(11-3-9(21)10(4-15)23-11)13(22)18-12(8)20-7-16-6-17-20/h1-2,5-7,9-11,21H,3-4H2/t9-,10+,11+/m0/s1
> <PUBCHEM_IUPAC_INCHIKEY>
YYHSTHHJNVFONA-HBNTYKKESA-N
> <PUBCHEM_XLOGP3_AA>
0.9
> <PUBCHEM_EXACT_MASS>
400.98903
> <PUBCHEM_MOLECULAR_FORMULA>
C13H13BrClN5O3
> <PUBCHEM_MOLECULAR_WEIGHT>
402.63
> <PUBCHEM_OPENEYE_CAN_SMILES>
C1C(C(OC1N2C=C(C(=NC2=O)N3C=NC=N3)C=CBr)CCl)O
> <PUBCHEM_OPENEYE_ISO_SMILES>
C1[C@@H]([C@H](O[C@H]1N2C=C(C(=NC2=O)N3C=NC=N3)C=CBr)CCl)O
> <PUBCHEM_CACTVS_TPSA>
92.8
> <PUBCHEM_MONOISOTOPIC_WEIGHT>
400.98903
> <PUBCHEM_TOTAL_CHARGE>
0
> <PUBCHEM_HEAVY_ATOM_COUNT>
23
> <PUBCHEM_ATOM_DEF_STEREO_COUNT>
3
> <PUBCHEM_ATOM_UDEF_STEREO_COUNT>
0
> <PUBCHEM_BOND_DEF_STEREO_COUNT>
0
> <PUBCHEM_BOND_UDEF_STEREO_COUNT>
1
> <PUBCHEM_ISOTOPIC_ATOM_COUNT>
0
> <PUBCHEM_COMPONENT_COUNT>
1
> <PUBCHEM_CACTVS_TAUTO_COUNT>
-1
> <PUBCHEM_COORDINATE_TYPE>
1
5
255
> <PUBCHEM_BONDANNOTATIONS>
10  21  8
10  23  8
14  15  6
16  18  8
18  19  8
20  22  1
11  4  5
12  6  6
6  16  8
6  17  8
7  17  8
7  19  8
8  21  8
8  9  8
9  23  8
$$$$
