512306
  -OEChem-10302200282D
 39 39  0     1  0  0  0  0  0999 V2000
    3.7320   -3.0000    0.0000 P   0  0  0  0  0  0  0  0  0  0  0  0
    4.5981   -1.5000    0.0000 O   0  0  0  0  0  0  0  0  0  0  0  0
    3.7320   -4.0000    0.0000 O   0  0  0  0  0  0  0  0  0  0  0  0
    2.7320   -3.0000    0.0000 O   0  0  0  0  0  0  0  0  0  0  0  0
    7.1962    1.0000    0.0000 O   0  0  0  0  0  0  0  0  0  0  0  0
    4.7320   -3.0000    0.0000 O   0  0  0  0  0  0  0  0  0  0  0  0
    2.8660   -0.5000    0.0000 N   0  0  0  0  0  0  0  0  0  0  0  0
    5.4641    1.0000    0.0000 N   0  0  0  0  0  0  0  0  0  0  0  0
    6.3301    2.5000    0.0000 N   0  0  0  0  0  0  0  0  0  0  0  0
    5.4641    4.0000    0.0000 N   0  0  0  0  0  0  0  0  0  0  0  0
    4.5981   -0.5000    0.0000 C   0  0  3  0  0  0  0  0  0  0  0  0
    3.7320   -0.0000    0.0000 C   0  0  0  0  0  0  0  0  0  0  0  0
    5.4641    0.0000    0.0000 C   0  0  0  0  0  0  0  0  0  0  0  0
    3.7320   -2.0000    0.0000 C   0  0  0  0  0  0  0  0  0  0  0  0
    2.0000   -0.0000    0.0000 C   0  0  0  0  0  0  0  0  0  0  0  0
    2.8660   -1.5000    0.0000 C   0  0  0  0  0  0  0  0  0  0  0  0
    4.5981    1.5000    0.0000 C   0  0  0  0  0  0  0  0  0  0  0  0
    6.3301    1.5000    0.0000 C   0  0  0  0  0  0  0  0  0  0  0  0
    4.5981    2.5000    0.0000 C   0  0  0  0  0  0  0  0  0  0  0  0
    5.4641    3.0000    0.0000 C   0  0  0  0  0  0  0  0  0  0  0  0
    5.1350   -0.8100    0.0000 H   0  0  0  0  0  0  0  0  0  0  0  0
    4.1306    0.4749    0.0000 H   0  0  0  0  0  0  0  0  0  0  0  0
    3.3335    0.4749    0.0000 H   0  0  0  0  0  0  0  0  0  0  0  0
    5.6762   -0.5826    0.0000 H   0  0  0  0  0  0  0  0  0  0  0  0
    6.0747    0.1077    0.0000 H   0  0  0  0  0  0  0  0  0  0  0  0
    3.5200   -1.4174    0.0000 H   0  0  0  0  0  0  0  0  0  0  0  0
    3.1215   -2.1077    0.0000 H   0  0  0  0  0  0  0  0  0  0  0  0
    2.3100    0.5369    0.0000 H   0  0  0  0  0  0  0  0  0  0  0  0
    1.4631    0.3100    0.0000 H   0  0  0  0  0  0  0  0  0  0  0  0
    1.6900   -0.5369    0.0000 H   0  0  0  0  0  0  0  0  0  0  0  0
    2.2460   -1.5000    0.0000 H   0  0  0  0  0  0  0  0  0  0  0  0
    2.8660   -2.1200    0.0000 H   0  0  0  0  0  0  0  0  0  0  0  0
    3.4860   -1.5000    0.0000 H   0  0  0  0  0  0  0  0  0  0  0  0
    4.0611    1.1900    0.0000 H   0  0  0  0  0  0  0  0  0  0  0  0
    4.0611    2.8100    0.0000 H   0  0  0  0  0  0  0  0  0  0  0  0
    3.1951   -4.3100    0.0000 H   0  0  0  0  0  0  0  0  0  0  0  0
    2.4220   -3.5369    0.0000 H   0  0  0  0  0  0  0  0  0  0  0  0
    4.9272    4.3100    0.0000 H   0  0  0  0  0  0  0  0  0  0  0  0
    6.0010    4.3100    0.0000 H   0  0  0  0  0  0  0  0  0  0  0  0
  1  3  1  0  0  0  0
  1  4  1  0  0  0  0
  1  6  2  0  0  0  0
  1 14  1  0  0  0  0
  2 11  1  0  0  0  0
  2 14  1  0  0  0  0
  3 36  1  0  0  0  0
  4 37  1  0  0  0  0
  5 18  2  0  0  0  0
  7 12  1  0  0  0  0
  7 15  1  0  0  0  0
  7 16  1  0  0  0  0
  8 13  1  0  0  0  0
  8 17  1  0  0  0  0
  8 18  1  0  0  0  0
  9 18  1  0  0  0  0
  9 20  2  0  0  0  0
 10 20  1  0  0  0  0
 10 38  1  0  0  0  0
 10 39  1  0  0  0  0
 11 12  1  0  0  0  0
 11 13  1  0  0  0  0
 11 21  1  0  0  0  0
 12 22  1  0  0  0  0
 12 23  1  0  0  0  0
 13 24  1  0  0  0  0
 13 25  1  0  0  0  0
 14 26  1  0  0  0  0
 14 27  1  0  0  0  0
 15 28  1  0  0  0  0
 15 29  1  0  0  0  0
 15 30  1  0  0  0  0
 16 31  1  0  0  0  0
 16 32  1  0  0  0  0
 16 33  1  0  0  0  0
 17 19  2  0  0  0  0
 17 34  1  0  0  0  0
 19 20  1  0  0  0  0
 19 35  1  0  0  0  0
M  END
> <PUBCHEM_COMPOUND_CID>
512306
> <PUBCHEM_COMPOUND_CANONICALIZED>
1
> <PUBCHEM_CACTVS_COMPLEXITY>
459
> <PUBCHEM_CACTVS_HBOND_ACCEPTOR>
6
> <PUBCHEM_CACTVS_HBOND_DONOR>
3
> <PUBCHEM_CACTVS_ROTATABLE_BOND>
7
> <PUBCHEM_CACTVS_SUBSKEYS>
AAADceBzuAIAAAAAAAAAAAAAAAAAAAAAAAAgAAAAAAAAAAAAAAAAHggQCCAACBThgAYDAANABBCoQCJmdICAAAEAAgAIAAAYABCCAAAAQAAFAAAAFgIQAAAAAAAAAAAAAAAAAAAAAAAAAAAAAAAAAAAAAA==
> <PUBCHEM_IUPAC_OPENEYE_NAME>
[1-[(4-amino-2-oxo-pyrimidin-1-yl)methyl]-2-(dimethylamino)ethoxy]methylphosphonic acid
> <PUBCHEM_IUPAC_CAS_NAME>
[1-(4-amino-2-oxo-1-pyrimidinyl)-3-(dimethylamino)propan-2-yl]oxymethylphosphonic acid
> <PUBCHEM_IUPAC_NAME_MARKUP>
[1-(4-amino-2-oxopyrimidin-1-yl)-3-(dimethylamino)propan-2-yl]oxymethylphosphonic acid
> <PUBCHEM_IUPAC_NAME>
[1-(4-amino-2-oxopyrimidin-1-yl)-3-(dimethylamino)propan-2-yl]oxymethylphosphonic acid
> <PUBCHEM_IUPAC_SYSTEMATIC_NAME>
[1-(4-azanyl-2-oxidanylidene-pyrimidin-1-yl)-3-(dimethylamino)propan-2-yl]oxymethylphosphonic acid
> <PUBCHEM_IUPAC_TRADITIONAL_NAME>
[1-[(4-amino-2-keto-pyrimidin-1-yl)methyl]-2-(dimethylamino)ethoxy]methylphosphonic acid
> <PUBCHEM_IUPAC_INCHI>
InChI=1S/C10H19N4O5P/c1-13(2)5-8(19-7-20(16,17)18)6-14-4-3-9(11)12-10(14)15/h3-4,8H,5-7H2,1-2H3,(H2,11,12,15)(H2,16,17,18)
> <PUBCHEM_IUPAC_INCHIKEY>
JBOOYKIWLXTTBA-UHFFFAOYSA-N
> <PUBCHEM_XLOGP3_AA>
-5.2
> <PUBCHEM_EXACT_MASS>
306.10930672
> <PUBCHEM_MOLECULAR_FORMULA>
C10H19N4O5P
> <PUBCHEM_MOLECULAR_WEIGHT>
306.26
> <PUBCHEM_OPENEYE_CAN_SMILES>
CN(C)CC(CN1C=CC(=NC1=O)N)OCP(=O)(O)O
> <PUBCHEM_OPENEYE_ISO_SMILES>
CN(C)CC(CN1C=CC(=NC1=O)N)OCP(=O)(O)O
> <PUBCHEM_CACTVS_TPSA>
129
> <PUBCHEM_MONOISOTOPIC_WEIGHT>
306.10930672
> <PUBCHEM_TOTAL_CHARGE>
0
> <PUBCHEM_HEAVY_ATOM_COUNT>
20
> <PUBCHEM_ATOM_DEF_STEREO_COUNT>
0
> <PUBCHEM_ATOM_UDEF_STEREO_COUNT>
1
> <PUBCHEM_BOND_DEF_STEREO_COUNT>
0
> <PUBCHEM_BOND_UDEF_STEREO_COUNT>
0
> <PUBCHEM_ISOTOPIC_ATOM_COUNT>
0
> <PUBCHEM_COMPONENT_COUNT>
1
> <PUBCHEM_CACTVS_TAUTO_COUNT>
-1
> <PUBCHEM_COORDINATE_TYPE>
1
5
255
> <PUBCHEM_BONDANNOTATIONS>
11  13  3
17  19  8
19  20  8
8  17  8
8  18  8
9  18  8
9  20  8
$$$$
