512303
  -OEChem-10302200282D
 50 52  0     1  0  0  0  0  0999 V2000
    8.2816    1.8568    0.0000 P   0  0  0  0  0  0  0  0  0  0  0  0
    6.6353    1.3187    0.0000 O   0  0  0  0  0  0  0  0  0  0  0  0
    8.9495    2.6011    0.0000 O   0  0  0  0  0  0  0  0  0  0  0  0
    9.0259    1.1890    0.0000 O   0  0  0  0  0  0  0  0  0  0  0  0
    6.8994   -2.2771    0.0000 O   0  0  0  0  0  0  0  0  0  0  0  0
    7.5373    2.5246    0.0000 O   0  0  0  0  0  0  0  0  0  0  0  0
    8.4993   -4.3844    0.0000 O   0  0  0  0  0  0  0  0  0  0  0  0
    7.2101   -3.2277    0.0000 O   0  0  0  0  0  0  0  0  0  0  0  0
    4.6783    1.7312    0.0000 N   0  0  0  0  0  0  0  0  0  0  0  0
    7.2566   -0.5823    0.0000 N   0  0  0  0  0  0  0  0  0  0  0  0
    4.6783    3.3406    0.0000 N   0  0  0  0  0  0  0  0  0  0  0  0
    2.8660    1.5359    0.0000 N   0  0  0  0  0  0  0  0  0  0  0  0
    2.0000    3.0359    0.0000 N   0  0  0  0  0  0  0  0  0  0  0  0
    2.8660    4.5359    0.0000 N   0  0  0  0  0  0  0  0  0  0  0  0
    5.9674    0.5744    0.0000 C   0  0  3  0  0  0  0  0  0  0  0  0
    4.9889    0.7806    0.0000 C   0  0  0  0  0  0  0  0  0  0  0  0
    6.2781   -0.3761    0.0000 C   0  0  0  0  0  0  0  0  0  0  0  0
    3.7320    2.0359    0.0000 C   0  0  0  0  0  0  0  0  0  0  0  0
    5.2619    2.5359    0.0000 C   0  0  0  0  0  0  0  0  0  0  0  0
    7.6138    1.1125    0.0000 C   0  0  0  0  0  0  0  0  0  0  0  0
    3.7320    3.0359    0.0000 C   0  0  0  0  0  0  0  0  0  0  0  0
    7.5673   -1.5328    0.0000 C   0  0  0  0  0  0  0  0  0  0  0  0
    2.8660    3.5359    0.0000 C   0  0  0  0  0  0  0  0  0  0  0  0
    8.5458   -1.7391    0.0000 C   0  0  0  0  0  0  0  0  0  0  0  0
    2.0000    2.0359    0.0000 C   0  0  0  0  0  0  0  0  0  0  0  0
    8.8564   -2.6896    0.0000 C   0  0  0  0  0  0  0  0  0  0  0  0
    9.2136   -0.9948    0.0000 C   0  0  0  0  0  0  0  0  0  0  0  0
    9.8349   -2.8958    0.0000 C   0  0  0  0  0  0  0  0  0  0  0  0
   10.1921   -1.2010    0.0000 C   0  0  0  0  0  0  0  0  0  0  0  0
   10.5028   -2.1515    0.0000 C   0  0  0  0  0  0  0  0  0  0  0  0
    8.1886   -3.4339    0.0000 C   0  0  0  0  0  0  0  0  0  0  0  0
    5.7748    1.1637    0.0000 H   0  0  0  0  0  0  0  0  0  0  0  0
    4.3751    0.6933    0.0000 H   0  0  0  0  0  0  0  0  0  0  0  0
    4.9684    0.1610    0.0000 H   0  0  0  0  0  0  0  0  0  0  0  0
    5.6643   -0.4635    0.0000 H   0  0  0  0  0  0  0  0  0  0  0  0
    6.2575   -0.9958    0.0000 H   0  0  0  0  0  0  0  0  0  0  0  0
    7.6707   -0.1209    0.0000 H   0  0  0  0  0  0  0  0  0  0  0  0
    5.8819    2.5359    0.0000 H   0  0  0  0  0  0  0  0  0  0  0  0
    7.3825    0.5372    0.0000 H   0  0  0  0  0  0  0  0  0  0  0  0
    8.1402    0.7849    0.0000 H   0  0  0  0  0  0  0  0  0  0  0  0
    1.4631    1.7259    0.0000 H   0  0  0  0  0  0  0  0  0  0  0  0
    9.0210   -0.4054    0.0000 H   0  0  0  0  0  0  0  0  0  0  0  0
    2.3291    4.8459    0.0000 H   0  0  0  0  0  0  0  0  0  0  0  0
    3.4030    4.8459    0.0000 H   0  0  0  0  0  0  0  0  0  0  0  0
   10.0276   -3.4851    0.0000 H   0  0  0  0  0  0  0  0  0  0  0  0
    9.5562    2.4732    0.0000 H   0  0  0  0  0  0  0  0  0  0  0  0
    9.6153    1.3816    0.0000 H   0  0  0  0  0  0  0  0  0  0  0  0
   10.6062   -0.7395    0.0000 H   0  0  0  0  0  0  0  0  0  0  0  0
   11.1095   -2.2794    0.0000 H   0  0  0  0  0  0  0  0  0  0  0  0
    8.0852   -4.8459    0.0000 H   0  0  0  0  0  0  0  0  0  0  0  0
  1  3  1  0  0  0  0
  1  4  1  0  0  0  0
  1  6  2  0  0  0  0
  1 20  1  0  0  0  0
  2 15  1  0  0  0  0
  2 20  1  0  0  0  0
  3 46  1  0  0  0  0
  4 47  1  0  0  0  0
  5 22  2  0  0  0  0
  7 31  1  0  0  0  0
  7 50  1  0  0  0  0
  8 31  2  0  0  0  0
  9 16  1  0  0  0  0
  9 18  1  0  0  0  0
  9 19  1  0  0  0  0
 10 17  1  0  0  0  0
 10 22  1  0  0  0  0
 10 37  1  0  0  0  0
 11 19  2  0  0  0  0
 11 21  1  0  0  0  0
 12 18  2  0  0  0  0
 12 25  1  0  0  0  0
 13 23  1  0  0  0  0
 13 25  2  0  0  0  0
 14 23  1  0  0  0  0
 14 43  1  0  0  0  0
 14 44  1  0  0  0  0
 15 16  1  0  0  0  0
 15 17  1  0  0  0  0
 15 32  1  0  0  0  0
 16 33  1  0  0  0  0
 16 34  1  0  0  0  0
 17 35  1  0  0  0  0
 17 36  1  0  0  0  0
 18 21  1  0  0  0  0
 19 38  1  0  0  0  0
 20 39  1  0  0  0  0
 20 40  1  0  0  0  0
 21 23  2  0  0  0  0
 22 24  1  0  0  0  0
 24 26  1  0  0  0  0
 24 27  2  0  0  0  0
 25 41  1  0  0  0  0
 26 28  2  0  0  0  0
 26 31  1  0  0  0  0
 27 29  1  0  0  0  0
 27 42  1  0  0  0  0
 28 30  1  0  0  0  0
 28 45  1  0  0  0  0
 29 30  2  0  0  0  0
 29 48  1  0  0  0  0
 30 49  1  0  0  0  0
M  END
> <PUBCHEM_COMPOUND_CID>
512303
> <PUBCHEM_COMPOUND_CANONICALIZED>
1
> <PUBCHEM_CACTVS_COMPLEXITY>
694
> <PUBCHEM_CACTVS_HBOND_ACCEPTOR>
11
> <PUBCHEM_CACTVS_HBOND_DONOR>
5
> <PUBCHEM_CACTVS_ROTATABLE_BOND>
9
> <PUBCHEM_CACTVS_SUBSKEYS>
AAADceB7uAIAAAAAAAAAAAAAAAAAAWAAAAA8QAAAAAAAAFgB/AAAHggQCCAADBzhnwY1+L/MFhCoQyfzfICCgC01EKAJ2KEoXNiKbjLA3VGVdQhs1gPYmae/yKCOgAAAAAAQAAAAAAAAACAAAAAAAAAAAA==
> <PUBCHEM_IUPAC_OPENEYE_NAME>
2-[[3-(6-aminopurin-9-yl)-2-(phosphonomethoxy)propyl]carbamoyl]benzoic acid
> <PUBCHEM_IUPAC_CAS_NAME>
2-[[[3-(6-aminopurin-9-yl)-2-(phosphonomethoxy)propyl]amino]-oxomethyl]benzoic acid
> <PUBCHEM_IUPAC_NAME_MARKUP>
2-[[3-(6-aminopurin-9-yl)-2-(phosphonomethoxy)propyl]carbamoyl]benzoic acid
> <PUBCHEM_IUPAC_NAME>
2-[[3-(6-aminopurin-9-yl)-2-(phosphonomethoxy)propyl]carbamoyl]benzoic acid
> <PUBCHEM_IUPAC_SYSTEMATIC_NAME>
2-[[3-(6-aminopurin-9-yl)-2-(phosphonomethoxy)propyl]carbamoyl]benzoic acid
> <PUBCHEM_IUPAC_TRADITIONAL_NAME>
2-[[3-adenin-9-yl-2-(phosphonomethoxy)propyl]carbamoyl]benzoic acid
> <PUBCHEM_IUPAC_INCHI>
InChI=1S/C17H19N6O7P/c18-14-13-15(21-7-20-14)23(8-22-13)6-10(30-9-31(27,28)29)5-19-16(24)11-3-1-2-4-12(11)17(25)26/h1-4,7-8,10H,5-6,9H2,(H,19,24)(H,25,26)(H2,18,20,21)(H2,27,28,29)
> <PUBCHEM_IUPAC_INCHIKEY>
KQAQPBPPBGLXOV-UHFFFAOYSA-N
> <PUBCHEM_XLOGP3_AA>
-1.7
> <PUBCHEM_EXACT_MASS>
450.10528396
> <PUBCHEM_MOLECULAR_FORMULA>
C17H19N6O7P
> <PUBCHEM_MOLECULAR_WEIGHT>
450.3
> <PUBCHEM_OPENEYE_CAN_SMILES>
C1=CC=C(C(=C1)C(=O)NCC(CN2C=NC3=C(N=CN=C32)N)OCP(=O)(O)O)C(=O)O
> <PUBCHEM_OPENEYE_ISO_SMILES>
C1=CC=C(C(=C1)C(=O)NCC(CN2C=NC3=C(N=CN=C32)N)OCP(=O)(O)O)C(=O)O
> <PUBCHEM_CACTVS_TPSA>
203
> <PUBCHEM_MONOISOTOPIC_WEIGHT>
450.10528396
> <PUBCHEM_TOTAL_CHARGE>
0
> <PUBCHEM_HEAVY_ATOM_COUNT>
31
> <PUBCHEM_ATOM_DEF_STEREO_COUNT>
0
> <PUBCHEM_ATOM_UDEF_STEREO_COUNT>
1
> <PUBCHEM_BOND_DEF_STEREO_COUNT>
0
> <PUBCHEM_BOND_UDEF_STEREO_COUNT>
0
> <PUBCHEM_ISOTOPIC_ATOM_COUNT>
0
> <PUBCHEM_COMPONENT_COUNT>
1
> <PUBCHEM_CACTVS_TAUTO_COUNT>
-1
> <PUBCHEM_COORDINATE_TYPE>
1
5
255
> <PUBCHEM_BONDANNOTATIONS>
11  19  8
11  21  8
12  18  8
12  25  8
13  23  8
13  25  8
15  17  3
18  21  8
21  23  8
24  26  8
24  27  8
26  28  8
27  29  8
28  30  8
29  30  8
9  18  8
9  19  8
$$$$
