512305
  -OEChem-10302200282D
 41 42  0     1  0  0  0  0  0999 V2000
    7.5673   -2.6502    0.0000 P   0  0  0  0  0  0  0  0  0  0  0  0
    6.2781   -1.4934    0.0000 O   0  0  0  0  0  0  0  0  0  0  0  0
    7.8779   -3.6007    0.0000 O   0  0  0  0  0  0  0  0  0  0  0  0
    8.5178   -2.3395    0.0000 O   0  0  0  0  0  0  0  0  0  0  0  0
    6.6168   -2.9608    0.0000 O   0  0  0  0  0  0  0  0  0  0  0  0
    4.6783    0.6138    0.0000 N   0  0  0  0  0  0  0  0  0  0  0  0
    7.6138   -0.0048    0.0000 N   0  0  0  0  0  0  0  0  0  0  0  0
    4.6783    2.2233    0.0000 N   0  0  0  0  0  0  0  0  0  0  0  0
    2.8660    0.4186    0.0000 N   0  0  0  0  0  0  0  0  0  0  0  0
    2.0000    1.9186    0.0000 N   0  0  0  0  0  0  0  0  0  0  0  0
    2.8660    3.4186    0.0000 N   0  0  0  0  0  0  0  0  0  0  0  0
    5.9674   -0.5429    0.0000 C   0  0  3  0  0  0  0  0  0  0  0  0
    4.9889   -0.3367    0.0000 C   0  0  0  0  0  0  0  0  0  0  0  0
    6.6353    0.2014    0.0000 C   0  0  0  0  0  0  0  0  0  0  0  0
    3.7320    0.9186    0.0000 C   0  0  0  0  0  0  0  0  0  0  0  0
    7.2566   -1.6997    0.0000 C   0  0  0  0  0  0  0  0  0  0  0  0
    5.2619    1.4186    0.0000 C   0  0  0  0  0  0  0  0  0  0  0  0
    3.7320    1.9186    0.0000 C   0  0  0  0  0  0  0  0  0  0  0  0
    8.2816    0.7395    0.0000 C   0  0  0  0  0  0  0  0  0  0  0  0
    7.9244   -0.9554    0.0000 C   0  0  0  0  0  0  0  0  0  0  0  0
    2.8660    2.4186    0.0000 C   0  0  0  0  0  0  0  0  0  0  0  0
    2.0000    0.9186    0.0000 C   0  0  0  0  0  0  0  0  0  0  0  0
    5.5534   -1.0044    0.0000 H   0  0  0  0  0  0  0  0  0  0  0  0
    4.3751   -0.4240    0.0000 H   0  0  0  0  0  0  0  0  0  0  0  0
    4.9684   -0.9564    0.0000 H   0  0  0  0  0  0  0  0  0  0  0  0
    6.8665    0.7766    0.0000 H   0  0  0  0  0  0  0  0  0  0  0  0
    6.1089    0.5290    0.0000 H   0  0  0  0  0  0  0  0  0  0  0  0
    7.8704   -1.6123    0.0000 H   0  0  0  0  0  0  0  0  0  0  0  0
    7.2772   -1.0800    0.0000 H   0  0  0  0  0  0  0  0  0  0  0  0
    5.8819    1.4186    0.0000 H   0  0  0  0  0  0  0  0  0  0  0  0
    8.7431    0.3254    0.0000 H   0  0  0  0  0  0  0  0  0  0  0  0
    8.6957    1.2009    0.0000 H   0  0  0  0  0  0  0  0  0  0  0  0
    7.8202    1.1535    0.0000 H   0  0  0  0  0  0  0  0  0  0  0  0
    7.3351   -1.1480    0.0000 H   0  0  0  0  0  0  0  0  0  0  0  0
    8.1171   -1.5447    0.0000 H   0  0  0  0  0  0  0  0  0  0  0  0
    8.5138   -0.7627    0.0000 H   0  0  0  0  0  0  0  0  0  0  0  0
    1.4631    0.6086    0.0000 H   0  0  0  0  0  0  0  0  0  0  0  0
    2.3291    3.7286    0.0000 H   0  0  0  0  0  0  0  0  0  0  0  0
    3.4030    3.7286    0.0000 H   0  0  0  0  0  0  0  0  0  0  0  0
    8.4846   -3.7286    0.0000 H   0  0  0  0  0  0  0  0  0  0  0  0
    8.9793   -2.7536    0.0000 H   0  0  0  0  0  0  0  0  0  0  0  0
  1  3  1  0  0  0  0
  1  4  1  0  0  0  0
  1  5  2  0  0  0  0
  1 16  1  0  0  0  0
  2 12  1  0  0  0  0
  2 16  1  0  0  0  0
  3 40  1  0  0  0  0
  4 41  1  0  0  0  0
  6 13  1  0  0  0  0
  6 15  1  0  0  0  0
  6 17  1  0  0  0  0
  7 14  1  0  0  0  0
  7 19  1  0  0  0  0
  7 20  1  0  0  0  0
  8 17  2  0  0  0  0
  8 18  1  0  0  0  0
  9 15  2  0  0  0  0
  9 22  1  0  0  0  0
 10 21  1  0  0  0  0
 10 22  2  0  0  0  0
 11 21  1  0  0  0  0
 11 38  1  0  0  0  0
 11 39  1  0  0  0  0
 12 13  1  0  0  0  0
 12 14  1  0  0  0  0
 12 23  1  0  0  0  0
 13 24  1  0  0  0  0
 13 25  1  0  0  0  0
 14 26  1  0  0  0  0
 14 27  1  0  0  0  0
 15 18  1  0  0  0  0
 16 28  1  0  0  0  0
 16 29  1  0  0  0  0
 17 30  1  0  0  0  0
 18 21  2  0  0  0  0
 19 31  1  0  0  0  0
 19 32  1  0  0  0  0
 19 33  1  0  0  0  0
 20 34  1  0  0  0  0
 20 35  1  0  0  0  0
 20 36  1  0  0  0  0
 22 37  1  0  0  0  0
M  END
> <PUBCHEM_COMPOUND_CID>
512305
> <PUBCHEM_COMPOUND_CANONICALIZED>
1
> <PUBCHEM_CACTVS_COMPLEXITY>
408
> <PUBCHEM_CACTVS_HBOND_ACCEPTOR>
9
> <PUBCHEM_CACTVS_HBOND_DONOR>
3
> <PUBCHEM_CACTVS_ROTATABLE_BOND>
7
> <PUBCHEM_CACTVS_SUBSKEYS>
AAADceBzuAIAAAAAAAAAAAAAAAAAAWAAAAAsAAAAAAAAAFgB+AAAHggQCCAACBzhlwYH8L9MFBCgQQZhZICAgC0REKABUCAoVBCCSABASEAVBAgIAALQACAAAAAAAAAAAAAAAAAAAAAAAAAAAAAAAAAAAA==
> <PUBCHEM_IUPAC_OPENEYE_NAME>
[1-[(6-aminopurin-9-yl)methyl]-2-(dimethylamino)ethoxy]methylphosphonic acid
> <PUBCHEM_IUPAC_CAS_NAME>
[1-(6-aminopurin-9-yl)-3-(dimethylamino)propan-2-yl]oxymethylphosphonic acid
> <PUBCHEM_IUPAC_NAME_MARKUP>
[1-(6-aminopurin-9-yl)-3-(dimethylamino)propan-2-yl]oxymethylphosphonic acid
> <PUBCHEM_IUPAC_NAME>
[1-(6-aminopurin-9-yl)-3-(dimethylamino)propan-2-yl]oxymethylphosphonic acid
> <PUBCHEM_IUPAC_SYSTEMATIC_NAME>
[1-(6-aminopurin-9-yl)-3-(dimethylamino)propan-2-yl]oxymethylphosphonic acid
> <PUBCHEM_IUPAC_TRADITIONAL_NAME>
[1-(adenin-9-ylmethyl)-2-(dimethylamino)ethoxy]methylphosphonic acid
> <PUBCHEM_IUPAC_INCHI>
InChI=1S/C11H19N6O4P/c1-16(2)3-8(21-7-22(18,19)20)4-17-6-15-9-10(12)13-5-14-11(9)17/h5-6,8H,3-4,7H2,1-2H3,(H2,12,13,14)(H2,18,19,20)
> <PUBCHEM_IUPAC_INCHIKEY>
YLEYZLIGAVKNLJ-UHFFFAOYSA-N
> <PUBCHEM_XLOGP3>
-4.2
> <PUBCHEM_EXACT_MASS>
330.12054011
> <PUBCHEM_MOLECULAR_FORMULA>
C11H19N6O4P
> <PUBCHEM_MOLECULAR_WEIGHT>
330.28
> <PUBCHEM_OPENEYE_CAN_SMILES>
CN(C)CC(CN1C=NC2=C(N=CN=C21)N)OCP(=O)(O)O
> <PUBCHEM_OPENEYE_ISO_SMILES>
CN(C)CC(CN1C=NC2=C(N=CN=C21)N)OCP(=O)(O)O
> <PUBCHEM_CACTVS_TPSA>
140
> <PUBCHEM_MONOISOTOPIC_WEIGHT>
330.12054011
> <PUBCHEM_TOTAL_CHARGE>
0
> <PUBCHEM_HEAVY_ATOM_COUNT>
22
> <PUBCHEM_ATOM_DEF_STEREO_COUNT>
0
> <PUBCHEM_ATOM_UDEF_STEREO_COUNT>
1
> <PUBCHEM_BOND_DEF_STEREO_COUNT>
0
> <PUBCHEM_BOND_UDEF_STEREO_COUNT>
0
> <PUBCHEM_ISOTOPIC_ATOM_COUNT>
0
> <PUBCHEM_COMPONENT_COUNT>
1
> <PUBCHEM_CACTVS_TAUTO_COUNT>
-1
> <PUBCHEM_COORDINATE_TYPE>
1
5
255
> <PUBCHEM_BONDANNOTATIONS>
10  21  8
10  22  8
12  13  3
15  18  8
18  21  8
6  15  8
6  17  8
8  17  8
8  18  8
9  15  8
9  22  8
$$$$
