512310
  -OEChem-10302200282D
 43 43  0     1  0  0  0  0  0999 V2000
    3.4030   -0.7220    0.0000 P   0  0  0  0  0  0  0  0  0  0  0  0
    5.1350   -0.7220    0.0000 O   0  0  0  0  0  0  0  0  0  0  0  0
    2.5369   -0.2220    0.0000 O   0  0  0  0  0  0  0  0  0  0  0  0
    2.9030   -1.5880    0.0000 O   0  0  0  0  0  0  0  0  0  0  0  0
    8.5991    0.2780    0.0000 O   0  0  0  0  0  0  0  0  0  0  0  0
    3.9030    0.1440    0.0000 O   0  0  0  0  0  0  0  0  0  0  0  0
    5.1350   -2.7220    0.0000 N   0  3  0  0  0  0  0  0  0  0  0  0
    6.8671    0.2780    0.0000 N   0  0  0  0  0  0  0  0  0  0  0  0
    7.7331    1.7780    0.0000 N   0  0  0  0  0  0  0  0  0  0  0  0
    6.8671    3.2780    0.0000 N   0  0  0  0  0  0  0  0  0  0  0  0
    6.0010   -2.2220    0.0000 C   0  0  0  0  0  0  0  0  0  0  0  0
    6.0010   -1.2220    0.0000 C   0  0  3  0  0  0  0  0  0  0  0  0
    4.2690   -3.2220    0.0000 C   0  0  0  0  0  0  0  0  0  0  0  0
    5.6350   -3.5880    0.0000 C   0  0  0  0  0  0  0  0  0  0  0  0
    4.6350   -1.8560    0.0000 C   0  0  0  0  0  0  0  0  0  0  0  0
    6.8671   -0.7220    0.0000 C   0  0  0  0  0  0  0  0  0  0  0  0
    4.2690   -1.2220    0.0000 C   0  0  0  0  0  0  0  0  0  0  0  0
    6.0010    0.7780    0.0000 C   0  0  0  0  0  0  0  0  0  0  0  0
    7.7331    0.7780    0.0000 C   0  0  0  0  0  0  0  0  0  0  0  0
    6.0010    1.7780    0.0000 C   0  0  0  0  0  0  0  0  0  0  0  0
    6.8671    2.2780    0.0000 C   0  0  0  0  0  0  0  0  0  0  0  0
    6.2131   -2.8046    0.0000 H   0  0  0  0  0  0  0  0  0  0  0  0
    6.6116   -2.1143    0.0000 H   0  0  0  0  0  0  0  0  0  0  0  0
    5.4641   -1.5320    0.0000 H   0  0  0  0  0  0  0  0  0  0  0  0
    7.0791   -1.3046    0.0000 H   0  0  0  0  0  0  0  0  0  0  0  0
    7.4776   -0.6143    0.0000 H   0  0  0  0  0  0  0  0  0  0  0  0
    3.9590   -2.6850    0.0000 H   0  0  0  0  0  0  0  0  0  0  0  0
    3.7320   -3.5320    0.0000 H   0  0  0  0  0  0  0  0  0  0  0  0
    4.5790   -3.7589    0.0000 H   0  0  0  0  0  0  0  0  0  0  0  0
    5.0981   -3.8980    0.0000 H   0  0  0  0  0  0  0  0  0  0  0  0
    5.9450   -4.1250    0.0000 H   0  0  0  0  0  0  0  0  0  0  0  0
    6.1720   -3.2780    0.0000 H   0  0  0  0  0  0  0  0  0  0  0  0
    5.1720   -1.5460    0.0000 H   0  0  0  0  0  0  0  0  0  0  0  0
    4.3250   -1.3190    0.0000 H   0  0  0  0  0  0  0  0  0  0  0  0
    4.0981   -2.1660    0.0000 H   0  0  0  0  0  0  0  0  0  0  0  0
    3.8705   -1.6969    0.0000 H   0  0  0  0  0  0  0  0  0  0  0  0
    4.6675   -1.6969    0.0000 H   0  0  0  0  0  0  0  0  0  0  0  0
    5.4641    0.4680    0.0000 H   0  0  0  0  0  0  0  0  0  0  0  0
    5.4641    2.0880    0.0000 H   0  0  0  0  0  0  0  0  0  0  0  0
    2.0000   -0.5320    0.0000 H   0  0  0  0  0  0  0  0  0  0  0  0
    2.2830   -1.5880    0.0000 H   0  0  0  0  0  0  0  0  0  0  0  0
    6.3301    3.5880    0.0000 H   0  0  0  0  0  0  0  0  0  0  0  0
    7.4040    3.5880    0.0000 H   0  0  0  0  0  0  0  0  0  0  0  0
  1  3  1  0  0  0  0
  1  4  1  0  0  0  0
  1  6  2  0  0  0  0
  1 17  1  0  0  0  0
  2 12  1  0  0  0  0
  2 17  1  0  0  0  0
  3 40  1  0  0  0  0
  4 41  1  0  0  0  0
  5 19  2  0  0  0  0
  7 11  1  0  0  0  0
  7 13  1  0  0  0  0
  7 14  1  0  0  0  0
  7 15  1  0  0  0  0
  8 16  1  0  0  0  0
  8 18  1  0  0  0  0
  8 19  1  0  0  0  0
  9 19  1  0  0  0  0
  9 21  2  0  0  0  0
 10 21  1  0  0  0  0
 10 42  1  0  0  0  0
 10 43  1  0  0  0  0
 11 12  1  0  0  0  0
 11 22  1  0  0  0  0
 11 23  1  0  0  0  0
 12 16  1  0  0  0  0
 12 24  1  0  0  0  0
 13 27  1  0  0  0  0
 13 28  1  0  0  0  0
 13 29  1  0  0  0  0
 14 30  1  0  0  0  0
 14 31  1  0  0  0  0
 14 32  1  0  0  0  0
 15 33  1  0  0  0  0
 15 34  1  0  0  0  0
 15 35  1  0  0  0  0
 16 25  1  0  0  0  0
 16 26  1  0  0  0  0
 17 36  1  0  0  0  0
 17 37  1  0  0  0  0
 18 20  2  0  0  0  0
 18 38  1  0  0  0  0
 20 21  1  0  0  0  0
 20 39  1  0  0  0  0
M  CHG  1   7   1
M  END
> <PUBCHEM_COMPOUND_CID>
512310
> <PUBCHEM_COMPOUND_CANONICALIZED>
1
> <PUBCHEM_CACTVS_COMPLEXITY>
493
> <PUBCHEM_CACTVS_HBOND_ACCEPTOR>
5
> <PUBCHEM_CACTVS_HBOND_DONOR>
3
> <PUBCHEM_CACTVS_ROTATABLE_BOND>
7
> <PUBCHEM_CACTVS_SUBSKEYS>
AAADceBzuAIAAAAAAAAAAAAAAAAAAAAAAAAgAAAAAAAAAAAAAAAAHggQCCAACBThgAYDAANABBCoQCJmdICAAAEAAgAIAAAYABCCAAAAQAAFAAAAFgIQAAAAAAAAAAAAAAAAAAAAAAAAAAAAAAAAAAAAAA==
> <PUBCHEM_IUPAC_OPENEYE_NAME>
[3-(4-amino-2-oxo-pyrimidin-1-yl)-2-(phosphonomethoxy)propyl]-trimethyl-ammonium
> <PUBCHEM_IUPAC_CAS_NAME>
[3-(4-amino-2-oxo-1-pyrimidinyl)-2-(phosphonomethoxy)propyl]-trimethylammonium
> <PUBCHEM_IUPAC_NAME_MARKUP>
[3-(4-amino-2-oxopyrimidin-1-yl)-2-(phosphonomethoxy)propyl]-trimethylazanium
> <PUBCHEM_IUPAC_NAME>
[3-(4-amino-2-oxopyrimidin-1-yl)-2-(phosphonomethoxy)propyl]-trimethylazanium
> <PUBCHEM_IUPAC_SYSTEMATIC_NAME>
[3-(4-azanyl-2-oxidanylidene-pyrimidin-1-yl)-2-(phosphonomethoxy)propyl]-trimethyl-azanium
> <PUBCHEM_IUPAC_TRADITIONAL_NAME>
[3-(4-amino-2-keto-pyrimidin-1-yl)-2-(phosphonomethoxy)propyl]-trimethyl-ammonium
> <PUBCHEM_IUPAC_INCHI>
InChI=1S/C11H21N4O5P/c1-15(2,3)7-9(20-8-21(17,18)19)6-14-5-4-10(12)13-11(14)16/h4-5,9H,6-8H2,1-3H3,(H3-,12,13,16,17,18,19)/p+1
> <PUBCHEM_IUPAC_INCHIKEY>
AGTYBYJNORXZIU-UHFFFAOYSA-O
> <PUBCHEM_XLOGP3_AA>
-2.9
> <PUBCHEM_EXACT_MASS>
321.13278181
> <PUBCHEM_MOLECULAR_FORMULA>
C11H22N4O5P+
> <PUBCHEM_MOLECULAR_WEIGHT>
321.29
> <PUBCHEM_OPENEYE_CAN_SMILES>
C[N+](C)(C)CC(CN1C=CC(=NC1=O)N)OCP(=O)(O)O
> <PUBCHEM_OPENEYE_ISO_SMILES>
C[N+](C)(C)CC(CN1C=CC(=NC1=O)N)OCP(=O)(O)O
> <PUBCHEM_CACTVS_TPSA>
125
> <PUBCHEM_MONOISOTOPIC_WEIGHT>
321.13278181
> <PUBCHEM_TOTAL_CHARGE>
1
> <PUBCHEM_HEAVY_ATOM_COUNT>
21
> <PUBCHEM_ATOM_DEF_STEREO_COUNT>
0
> <PUBCHEM_ATOM_UDEF_STEREO_COUNT>
1
> <PUBCHEM_BOND_DEF_STEREO_COUNT>
0
> <PUBCHEM_BOND_UDEF_STEREO_COUNT>
0
> <PUBCHEM_ISOTOPIC_ATOM_COUNT>
0
> <PUBCHEM_COMPONENT_COUNT>
1
> <PUBCHEM_CACTVS_TAUTO_COUNT>
-1
> <PUBCHEM_COORDINATE_TYPE>
1
5
255
> <PUBCHEM_BONDANNOTATIONS>
12  16  3
18  20  8
20  21  8
8  18  8
8  19  8
9  19  8
9  21  8
$$$$
