512353
  -OEChem-10302200282D
 53 56  0     1  0  0  0  0  0999 V2000
    4.5390    0.7267    0.0000 N   0  0  3  0  0  0  0  0  0  0  0  0
    3.6730   -0.7733    0.0000 C   0  0  0  0  0  0  0  0  0  0  0  0
    4.5092   -2.2216    0.0000 C   0  0  0  0  0  0  0  0  0  0  0  0
    2.8368   -2.2216    0.0000 C   0  0  0  0  0  0  0  0  0  0  0  0
    2.9819   -2.6567    0.0000 C   0  0  0  0  0  0  0  0  0  0  0  0
    4.5092   -1.2561    0.0000 C   0  0  0  0  0  0  0  0  0  0  0  0
    2.8368   -1.2561    0.0000 C   0  0  0  0  0  0  0  0  0  0  0  0
    2.9819   -1.6114    0.0000 C   0  0  0  0  0  0  0  0  0  0  0  0
    3.6730   -2.5244    0.0000 C   0  0  0  0  0  0  0  0  0  0  0  0
    3.8876   -3.1335    0.0000 C   0  0  0  0  0  0  0  0  0  0  0  0
    2.0000   -2.7044    0.0000 C   0  0  0  0  0  0  0  0  0  0  0  0
    3.6730    0.2267    0.0000 C   0  0  0  0  0  0  0  0  0  0  0  0
    4.6435    1.7212    0.0000 C   0  0  3  0  0  0  0  0  0  0  0  0
    5.4526    0.3200    0.0000 C   0  0  0  0  0  0  0  0  0  0  0  0
    5.6217    1.9292    0.0000 C   0  0  0  0  0  0  0  0  0  0  0  0
    3.9004    2.3904    0.0000 C   0  0  0  0  0  0  0  0  0  0  0  0
    6.1217    1.0631    0.0000 C   0  0  0  0  0  0  0  0  0  0  0  0
    4.5695    3.1335    0.0000 C   0  0  0  0  0  0  0  0  0  0  0  0
    3.1572    3.0595    0.0000 C   0  0  0  0  0  0  0  0  0  0  0  0
    3.2313    1.6472    0.0000 C   0  0  0  0  0  0  0  0  0  0  0  0
    5.1016   -2.4043    0.0000 H   0  0  0  0  0  0  0  0  0  0  0  0
    3.3444   -1.8656    0.0000 H   0  0  0  0  0  0  0  0  0  0  0  0
    2.8478   -3.2620    0.0000 H   0  0  0  0  0  0  0  0  0  0  0  0
    5.1198   -1.3637    0.0000 H   0  0  0  0  0  0  0  0  0  0  0  0
    4.7212   -0.6735    0.0000 H   0  0  0  0  0  0  0  0  0  0  0  0
    2.6247   -0.6735    0.0000 H   0  0  0  0  0  0  0  0  0  0  0  0
    2.2262   -1.3637    0.0000 H   0  0  0  0  0  0  0  0  0  0  0  0
    2.6383   -1.0954    0.0000 H   0  0  0  0  0  0  0  0  0  0  0  0
    2.3885   -1.7909    0.0000 H   0  0  0  0  0  0  0  0  0  0  0  0
    3.3030   -3.0219    0.0000 H   0  0  0  0  0  0  0  0  0  0  0  0
    4.0430   -3.0219    0.0000 H   0  0  0  0  0  0  0  0  0  0  0  0
    3.5782   -3.6708    0.0000 H   0  0  0  0  0  0  0  0  0  0  0  0
    4.4127   -3.4631    0.0000 H   0  0  0  0  0  0  0  0  0  0  0  0
    1.5188   -2.3135    0.0000 H   0  0  0  0  0  0  0  0  0  0  0  0
    1.8068   -3.2935    0.0000 H   0  0  0  0  0  0  0  0  0  0  0  0
    3.4609    0.8093    0.0000 H   0  0  0  0  0  0  0  0  0  0  0  0
    3.0624    0.1190    0.0000 H   0  0  0  0  0  0  0  0  0  0  0  0
    4.0647    1.4990    0.0000 H   0  0  0  0  0  0  0  0  0  0  0  0
    5.1426   -0.2170    0.0000 H   0  0  0  0  0  0  0  0  0  0  0  0
    5.9542   -0.0444    0.0000 H   0  0  0  0  0  0  0  0  0  0  0  0
    6.1881    2.1813    0.0000 H   0  0  0  0  0  0  0  0  0  0  0  0
    5.4301    2.5188    0.0000 H   0  0  0  0  0  0  0  0  0  0  0  0
    6.5366    0.6024    0.0000 H   0  0  0  0  0  0  0  0  0  0  0  0
    6.6233    1.4276    0.0000 H   0  0  0  0  0  0  0  0  0  0  0  0
    5.0303    2.7186    0.0000 H   0  0  0  0  0  0  0  0  0  0  0  0
    4.9844    3.5943    0.0000 H   0  0  0  0  0  0  0  0  0  0  0  0
    4.1088    3.5484    0.0000 H   0  0  0  0  0  0  0  0  0  0  0  0
    3.5721    3.5202    0.0000 H   0  0  0  0  0  0  0  0  0  0  0  0
    2.6965    3.4744    0.0000 H   0  0  0  0  0  0  0  0  0  0  0  0
    2.7424    2.5987    0.0000 H   0  0  0  0  0  0  0  0  0  0  0  0
    2.7705    2.0621    0.0000 H   0  0  0  0  0  0  0  0  0  0  0  0
    2.8164    1.1865    0.0000 H   0  0  0  0  0  0  0  0  0  0  0  0
    3.6920    1.2324    0.0000 H   0  0  0  0  0  0  0  0  0  0  0  0
  1 12  1  0  0  0  0
  1 13  1  0  0  0  0
  1 14  1  0  0  0  0
  2  6  1  0  0  0  0
  2  7  1  0  0  0  0
  2  8  1  0  0  0  0
  2 12  1  0  0  0  0
  3  6  1  0  0  0  0
  3  9  1  0  0  0  0
  3 10  1  0  0  0  0
  3 21  1  0  0  0  0
  4  7  1  0  0  0  0
  4  9  1  0  0  0  0
  4 11  1  0  0  0  0
  4 22  1  0  0  0  0
  5  8  1  0  0  0  0
  5 10  1  0  0  0  0
  5 11  1  0  0  0  0
  5 23  1  0  0  0  0
  6 24  1  0  0  0  0
  6 25  1  0  0  0  0
  7 26  1  0  0  0  0
  7 27  1  0  0  0  0
  8 28  1  0  0  0  0
  8 29  1  0  0  0  0
  9 30  1  0  0  0  0
  9 31  1  0  0  0  0
 10 32  1  0  0  0  0
 10 33  1  0  0  0  0
 11 34  1  0  0  0  0
 11 35  1  0  0  0  0
 12 36  1  0  0  0  0
 12 37  1  0  0  0  0
 13 15  1  0  0  0  0
 13 16  1  0  0  0  0
 13 38  1  0  0  0  0
 14 17  1  0  0  0  0
 14 39  1  0  0  0  0
 14 40  1  0  0  0  0
 15 17  1  0  0  0  0
 15 41  1  0  0  0  0
 15 42  1  0  0  0  0
 16 18  1  0  0  0  0
 16 19  1  0  0  0  0
 16 20  1  0  0  0  0
 17 43  1  0  0  0  0
 17 44  1  0  0  0  0
 18 45  1  0  0  0  0
 18 46  1  0  0  0  0
 18 47  1  0  0  0  0
 19 48  1  0  0  0  0
 19 49  1  0  0  0  0
 19 50  1  0  0  0  0
 20 51  1  0  0  0  0
 20 52  1  0  0  0  0
 20 53  1  0  0  0  0
M  END
> <PUBCHEM_COMPOUND_CID>
512353
> <PUBCHEM_COMPOUND_CANONICALIZED>
1
> <PUBCHEM_CACTVS_COMPLEXITY>
336
> <PUBCHEM_CACTVS_HBOND_ACCEPTOR>
1
> <PUBCHEM_CACTVS_HBOND_DONOR>
0
> <PUBCHEM_CACTVS_ROTATABLE_BOND>
3
> <PUBCHEM_CACTVS_SUBSKEYS>
AAADcfB6AAAAAAAAAAAAAAAAAAAAAWAAAAAwYMGAAAAAAAAAAAAAHAAAAAAADyjBAAQCAAMAAAAAAAAAAAAAAAAAAAAAAAAIAAAAAAIAgAAEAAAAAACAAAEQgMAPAAAAAAAAAAAAAAQAAAAAAAAAAAAAAA==
> <PUBCHEM_IUPAC_OPENEYE_NAME>
1-(1-adamantylmethyl)-2-tert-butyl-pyrrolidine
> <PUBCHEM_IUPAC_CAS_NAME>
1-(1-adamantylmethyl)-2-tert-butylpyrrolidine
> <PUBCHEM_IUPAC_NAME_MARKUP>
1-(1-adamantylmethyl)-2-<I>tert</I>-butylpyrrolidine
> <PUBCHEM_IUPAC_NAME>
1-(1-adamantylmethyl)-2-tert-butylpyrrolidine
> <PUBCHEM_IUPAC_SYSTEMATIC_NAME>
1-(1-adamantylmethyl)-2-tert-butyl-pyrrolidine
> <PUBCHEM_IUPAC_TRADITIONAL_NAME>
1-(1-adamantylmethyl)-2-tert-butyl-pyrrolidine
> <PUBCHEM_IUPAC_INCHI>
InChI=1S/C19H33N/c1-18(2,3)17-5-4-6-20(17)13-19-10-14-7-15(11-19)9-16(8-14)12-19/h14-17H,4-13H2,1-3H3
> <PUBCHEM_IUPAC_INCHIKEY>
JHTXNHWUEBPBJM-UHFFFAOYSA-N
> <PUBCHEM_XLOGP3_AA>
5.4
> <PUBCHEM_EXACT_MASS>
275.261300057
> <PUBCHEM_MOLECULAR_FORMULA>
C19H33N
> <PUBCHEM_MOLECULAR_WEIGHT>
275.5
> <PUBCHEM_OPENEYE_CAN_SMILES>
CC(C)(C)C1CCCN1CC23CC4CC(C2)CC(C4)C3
> <PUBCHEM_OPENEYE_ISO_SMILES>
CC(C)(C)C1CCCN1CC23CC4CC(C2)CC(C4)C3
> <PUBCHEM_CACTVS_TPSA>
3.2
> <PUBCHEM_MONOISOTOPIC_WEIGHT>
275.261300057
> <PUBCHEM_TOTAL_CHARGE>
0
> <PUBCHEM_HEAVY_ATOM_COUNT>
20
> <PUBCHEM_ATOM_DEF_STEREO_COUNT>
0
> <PUBCHEM_ATOM_UDEF_STEREO_COUNT>
1
> <PUBCHEM_BOND_DEF_STEREO_COUNT>
0
> <PUBCHEM_BOND_UDEF_STEREO_COUNT>
0
> <PUBCHEM_ISOTOPIC_ATOM_COUNT>
0
> <PUBCHEM_COMPONENT_COUNT>
1
> <PUBCHEM_CACTVS_TAUTO_COUNT>
-1
> <PUBCHEM_COORDINATE_TYPE>
1
5
255
> <PUBCHEM_BONDANNOTATIONS>
13  16  3
$$$$
