512333
  -OEChem-10302200282D
 35 37  0     1  0  0  0  0  0999 V2000
    5.8144   -3.8388    0.0000 Cl  0  0  0  0  0  0  0  0  0  0  0  0
    4.5411   -2.1833    0.0000 O   0  0  0  0  0  0  0  0  0  0  0  0
    2.6443   -3.9434    0.0000 O   0  0  0  0  0  0  0  0  0  0  0  0
    5.4641   -0.5955    0.0000 O   0  0  0  0  0  0  0  0  0  0  0  0
    3.7320   -0.5955    0.0000 N   0  0  0  0  0  0  0  0  0  0  0  0
    4.5981    0.9045    0.0000 N   0  0  0  0  0  0  0  0  0  0  0  0
    3.7320    2.4045    0.0000 N   0  0  0  0  0  0  0  0  0  0  0  0
    4.5411    2.9923    0.0000 N   0  0  0  0  0  0  0  0  0  0  0  0
    3.2320    3.9434    0.0000 N   0  0  0  0  0  0  0  0  0  0  0  0
    3.7320   -1.5955    0.0000 C   0  0  1  0  0  0  0  0  0  0  0  0
    3.2320   -3.1343    0.0000 C   0  0  1  0  0  0  0  0  0  0  0  0
    2.9230   -2.1833    0.0000 C   0  0  0  0  0  0  0  0  0  0  0  0
    4.2320   -3.1343    0.0000 C   0  0  1  0  0  0  0  0  0  0  0  0
    4.8198   -3.9434    0.0000 C   0  0  0  0  0  0  0  0  0  0  0  0
    2.8660   -0.0955    0.0000 C   0  0  0  0  0  0  0  0  0  0  0  0
    4.5981   -0.0955    0.0000 C   0  0  0  0  0  0  0  0  0  0  0  0
    2.8660    0.9045    0.0000 C   0  0  0  0  0  0  0  0  0  0  0  0
    3.7320    1.4045    0.0000 C   0  0  0  0  0  0  0  0  0  0  0  0
    2.0000    1.4045    0.0000 C   0  0  0  0  0  0  0  0  0  0  0  0
    2.9230    2.9923    0.0000 C   0  0  0  0  0  0  0  0  0  0  0  0
    4.2320    3.9434    0.0000 C   0  0  0  0  0  0  0  0  0  0  0  0
    4.2845   -1.3140    0.0000 H   0  0  0  0  0  0  0  0  0  0  0  0
    3.5135   -3.6868    0.0000 H   0  0  0  0  0  0  0  0  0  0  0  0
    2.6130   -1.6463    0.0000 H   0  0  0  0  0  0  0  0  0  0  0  0
    2.3566   -2.4354    0.0000 H   0  0  0  0  0  0  0  0  0  0  0  0
    4.8444   -3.0373    0.0000 H   0  0  0  0  0  0  0  0  0  0  0  0
    4.2626   -4.2151    0.0000 H   0  0  0  0  0  0  0  0  0  0  0  0
    4.9907   -4.5393    0.0000 H   0  0  0  0  0  0  0  0  0  0  0  0
    2.3291   -0.4055    0.0000 H   0  0  0  0  0  0  0  0  0  0  0  0
    2.0277   -3.8785    0.0000 H   0  0  0  0  0  0  0  0  0  0  0  0
    2.3100    1.9414    0.0000 H   0  0  0  0  0  0  0  0  0  0  0  0
    1.4631    1.7145    0.0000 H   0  0  0  0  0  0  0  0  0  0  0  0
    1.6900    0.8676    0.0000 H   0  0  0  0  0  0  0  0  0  0  0  0
    2.3334    2.8007    0.0000 H   0  0  0  0  0  0  0  0  0  0  0  0
    4.5965    4.4449    0.0000 H   0  0  0  0  0  0  0  0  0  0  0  0
  1 14  1  0  0  0  0
  2 10  1  0  0  0  0
  2 13  1  0  0  0  0
 11  3  1  1  0  0  0
  3 30  1  0  0  0  0
  4 16  2  0  0  0  0
 10  5  1  6  0  0  0
  5 15  1  0  0  0  0
  5 16  1  0  0  0  0
  6 16  1  0  0  0  0
  6 18  2  0  0  0  0
  7  8  1  0  0  0  0
  7 18  1  0  0  0  0
  7 20  1  0  0  0  0
  8 21  2  0  0  0  0
  9 20  2  0  0  0  0
  9 21  1  0  0  0  0
 10 12  1  0  0  0  0
 10 22  1  0  0  0  0
 11 12  1  0  0  0  0
 11 13  1  0  0  0  0
 11 23  1  0  0  0  0
 12 24  1  0  0  0  0
 12 25  1  0  0  0  0
 13 14  1  6  0  0  0
 13 26  1  0  0  0  0
 14 27  1  0  0  0  0
 14 28  1  0  0  0  0
 15 17  2  0  0  0  0
 15 29  1  0  0  0  0
 17 18  1  0  0  0  0
 17 19  1  0  0  0  0
 19 31  1  0  0  0  0
 19 32  1  0  0  0  0
 19 33  1  0  0  0  0
 20 34  1  0  0  0  0
 21 35  1  0  0  0  0
M  END
> <PUBCHEM_COMPOUND_CID>
512333
> <PUBCHEM_COMPOUND_CANONICALIZED>
1
> <PUBCHEM_CACTVS_COMPLEXITY>
497
> <PUBCHEM_CACTVS_HBOND_ACCEPTOR>
5
> <PUBCHEM_CACTVS_HBOND_DONOR>
1
> <PUBCHEM_CACTVS_ROTATABLE_BOND>
3
> <PUBCHEM_CACTVS_SUBSKEYS>
AAADccBzsAAEAAAAAAAAAAAAAAAAAWJAAAAgAAAAAAAAAAABgAAAHgIICAAADBfhgEYHEAcIFgCqAgJndACQAAsQgIAVQAAoAxCBGAIBiQAOQAAPBgIDAACwAAAAAAAAAAAAAAAAAAAAAAAAAAAAAAAAAA==
> <PUBCHEM_IUPAC_OPENEYE_NAME>
1-[(2R,4S,5S)-5-(chloromethyl)-4-hydroxy-tetrahydrofuran-2-yl]-5-methyl-4-(1,2,4-triazol-1-yl)pyrimidin-2-one
> <PUBCHEM_IUPAC_CAS_NAME>
1-[(2R,4S,5S)-5-(chloromethyl)-4-hydroxy-2-oxolanyl]-5-methyl-4-(1,2,4-triazol-1-yl)-2-pyrimidinone
> <PUBCHEM_IUPAC_NAME_MARKUP>
1-[(2<I>R</I>,4<I>S</I>,5<I>S</I>)-5-(chloromethyl)-4-hydroxyoxolan-2-yl]-5-methyl-4-(1,2,4-triazol-1-yl)pyrimidin-2-one
> <PUBCHEM_IUPAC_NAME>
1-[(2R,4S,5S)-5-(chloromethyl)-4-hydroxyoxolan-2-yl]-5-methyl-4-(1,2,4-triazol-1-yl)pyrimidin-2-one
> <PUBCHEM_IUPAC_SYSTEMATIC_NAME>
1-[(2R,4S,5S)-5-(chloromethyl)-4-oxidanyl-oxolan-2-yl]-5-methyl-4-(1,2,4-triazol-1-yl)pyrimidin-2-one
> <PUBCHEM_IUPAC_TRADITIONAL_NAME>
1-[(2R,4S,5S)-5-(chloromethyl)-4-hydroxy-tetrahydrofuran-2-yl]-5-methyl-4-(1,2,4-triazol-1-yl)pyrimidin-2-one
> <PUBCHEM_IUPAC_INCHI>
InChI=1S/C12H14ClN5O3/c1-7-4-17(10-2-8(19)9(3-13)21-10)12(20)16-11(7)18-6-14-5-15-18/h4-6,8-10,19H,2-3H2,1H3/t8-,9+,10+/m0/s1
> <PUBCHEM_IUPAC_INCHIKEY>
PDTYFSKQWVDABZ-IVZWLZJFSA-N
> <PUBCHEM_XLOGP3_AA>
0.2
> <PUBCHEM_EXACT_MASS>
311.0785170
> <PUBCHEM_MOLECULAR_FORMULA>
C12H14ClN5O3
> <PUBCHEM_MOLECULAR_WEIGHT>
311.72
> <PUBCHEM_OPENEYE_CAN_SMILES>
CC1=CN(C(=O)N=C1N2C=NC=N2)C3CC(C(O3)CCl)O
> <PUBCHEM_OPENEYE_ISO_SMILES>
CC1=CN(C(=O)N=C1N2C=NC=N2)[C@H]3C[C@@H]([C@H](O3)CCl)O
> <PUBCHEM_CACTVS_TPSA>
92.8
> <PUBCHEM_MONOISOTOPIC_WEIGHT>
311.0785170
> <PUBCHEM_TOTAL_CHARGE>
0
> <PUBCHEM_HEAVY_ATOM_COUNT>
21
> <PUBCHEM_ATOM_DEF_STEREO_COUNT>
3
> <PUBCHEM_ATOM_UDEF_STEREO_COUNT>
0
> <PUBCHEM_BOND_DEF_STEREO_COUNT>
0
> <PUBCHEM_BOND_UDEF_STEREO_COUNT>
0
> <PUBCHEM_ISOTOPIC_ATOM_COUNT>
0
> <PUBCHEM_COMPONENT_COUNT>
1
> <PUBCHEM_CACTVS_TAUTO_COUNT>
1
> <PUBCHEM_COORDINATE_TYPE>
1
5
255
> <PUBCHEM_BONDANNOTATIONS>
13  14  6
15  17  8
17  18  8
11  3  5
10  5  6
5  15  8
5  16  8
6  16  8
6  18  8
7  20  8
7  8  8
8  21  8
9  20  8
9  21  8
$$$$
