512330
  -OEChem-10302200282D
 35 37  0     1  0  0  0  0  0999 V2000
    2.0933    3.9304    0.0000 Cl  0  0  0  0  0  0  0  0  0  0  0  0
    6.1237   -1.7733    0.0000 O   0  0  0  0  0  0  0  0  0  0  0  0
    4.2269   -3.5334    0.0000 O   0  0  0  0  0  0  0  0  0  0  0  0
    7.3970   -3.4289    0.0000 O   0  0  0  0  0  0  0  0  0  0  0  0
    7.0468   -0.1855    0.0000 O   0  0  0  0  0  0  0  0  0  0  0  0
    3.4782    2.8090    0.0000 O   0  0  0  0  0  0  0  0  0  0  0  0
    5.3147    2.8145    0.0000 O   0  0  0  0  0  0  0  0  0  0  0  0
    5.3147   -0.1855    0.0000 N   0  0  0  0  0  0  0  0  0  0  0  0
    6.1808    1.3145    0.0000 N   0  0  0  0  0  0  0  0  0  0  0  0
    4.8147   -2.7244    0.0000 C   0  0  1  0  0  0  0  0  0  0  0  0
    5.3147   -1.1855    0.0000 C   0  0  1  0  0  0  0  0  0  0  0  0
    4.5057   -1.7733    0.0000 C   0  0  0  0  0  0  0  0  0  0  0  0
    5.8147   -2.7244    0.0000 C   0  0  1  0  0  0  0  0  0  0  0  0
    6.4025   -3.5334    0.0000 C   0  0  0  0  0  0  0  0  0  0  0  0
    4.4487    0.3145    0.0000 C   0  0  0  0  0  0  0  0  0  0  0  0
    6.1808    0.3145    0.0000 C   0  0  0  0  0  0  0  0  0  0  0  0
    4.4487    1.3145    0.0000 C   0  0  0  0  0  0  0  0  0  0  0  0
    5.3147    1.8145    0.0000 C   0  0  0  0  0  0  0  0  0  0  0  0
    3.5827    1.8145    0.0000 C   0  0  0  0  0  0  0  0  0  0  0  0
    2.6691    1.4077    0.0000 C   0  0  0  0  0  0  0  0  0  0  0  0
    2.0000    2.1509    0.0000 C   0  0  0  0  0  0  0  0  0  0  0  0
    2.5000    3.0169    0.0000 C   0  0  0  0  0  0  0  0  0  0  0  0
    5.8672   -0.9041    0.0000 H   0  0  0  0  0  0  0  0  0  0  0  0
    5.0962   -3.2768    0.0000 H   0  0  0  0  0  0  0  0  0  0  0  0
    4.1957   -1.2364    0.0000 H   0  0  0  0  0  0  0  0  0  0  0  0
    3.9393   -2.0255    0.0000 H   0  0  0  0  0  0  0  0  0  0  0  0
    6.4271   -2.6274    0.0000 H   0  0  0  0  0  0  0  0  0  0  0  0
    5.8453   -3.8052    0.0000 H   0  0  0  0  0  0  0  0  0  0  0  0
    6.5734   -4.1294    0.0000 H   0  0  0  0  0  0  0  0  0  0  0  0
    3.9118    0.0045    0.0000 H   0  0  0  0  0  0  0  0  0  0  0  0
    3.6103   -3.4686    0.0000 H   0  0  0  0  0  0  0  0  0  0  0  0
    6.7177    1.6245    0.0000 H   0  0  0  0  0  0  0  0  0  0  0  0
    7.7615   -3.9304    0.0000 H   0  0  0  0  0  0  0  0  0  0  0  0
    2.5402    0.8013    0.0000 H   0  0  0  0  0  0  0  0  0  0  0  0
    1.3834    2.0861    0.0000 H   0  0  0  0  0  0  0  0  0  0  0  0
  1 22  1  0  0  0  0
  2 11  1  0  0  0  0
  2 13  1  0  0  0  0
 10  3  1  1  0  0  0
  3 31  1  0  0  0  0
  4 14  1  0  0  0  0
  4 33  1  0  0  0  0
  5 16  2  0  0  0  0
  6 19  1  0  0  0  0
  6 22  1  0  0  0  0
  7 18  2  0  0  0  0
 11  8  1  6  0  0  0
  8 15  1  0  0  0  0
  8 16  1  0  0  0  0
  9 16  1  0  0  0  0
  9 18  1  0  0  0  0
  9 32  1  0  0  0  0
 10 12  1  0  0  0  0
 10 13  1  0  0  0  0
 10 24  1  0  0  0  0
 11 12  1  0  0  0  0
 11 23  1  0  0  0  0
 12 25  1  0  0  0  0
 12 26  1  0  0  0  0
 13 14  1  6  0  0  0
 13 27  1  0  0  0  0
 14 28  1  0  0  0  0
 14 29  1  0  0  0  0
 15 17  2  0  0  0  0
 15 30  1  0  0  0  0
 17 18  1  0  0  0  0
 17 19  1  0  0  0  0
 19 20  2  0  0  0  0
 20 21  1  0  0  0  0
 20 34  1  0  0  0  0
 21 22  2  0  0  0  0
 21 35  1  0  0  0  0
M  END
> <PUBCHEM_COMPOUND_CID>
512330
> <PUBCHEM_COMPOUND_CANONICALIZED>
1
> <PUBCHEM_CACTVS_COMPLEXITY>
513
> <PUBCHEM_CACTVS_HBOND_ACCEPTOR>
6
> <PUBCHEM_CACTVS_HBOND_DONOR>
3
> <PUBCHEM_CACTVS_ROTATABLE_BOND>
3
> <PUBCHEM_CACTVS_SUBSKEYS>
AAADccBzOAAEAAAAAAAAAAAAAAAAASJAAAAgAAAAAAAAAAABgAAAHgIQCAAADBbhkCYxBIPABkCIAuFeUACCCAAkJQAIiAEOCsiNNj6NthuOWSCv5zMLqce4eAIAAAAAAAAAAAAAAAAAAAAAAAAAAAAAAA==
> <PUBCHEM_IUPAC_OPENEYE_NAME>
5-(5-chloro-2-furyl)-1-[(2R,4S,5R)-4-hydroxy-5-(hydroxymethyl)tetrahydrofuran-2-yl]pyrimidine-2,4-dione
> <PUBCHEM_IUPAC_CAS_NAME>
5-(5-chloro-2-furanyl)-1-[(2R,4S,5R)-4-hydroxy-5-(hydroxymethyl)-2-oxolanyl]pyrimidine-2,4-dione
> <PUBCHEM_IUPAC_NAME_MARKUP>
5-(5-chlorofuran-2-yl)-1-[(2<I>R</I>,4<I>S</I>,5<I>R</I>)-4-hydroxy-5-(hydroxymethyl)oxolan-2-yl]pyrimidine-2,4-dione
> <PUBCHEM_IUPAC_NAME>
5-(5-chlorofuran-2-yl)-1-[(2R,4S,5R)-4-hydroxy-5-(hydroxymethyl)oxolan-2-yl]pyrimidine-2,4-dione
> <PUBCHEM_IUPAC_SYSTEMATIC_NAME>
5-(5-chloranylfuran-2-yl)-1-[(2R,4S,5R)-5-(hydroxymethyl)-4-oxidanyl-oxolan-2-yl]pyrimidine-2,4-dione
> <PUBCHEM_IUPAC_TRADITIONAL_NAME>
5-(5-chloro-2-furyl)-1-[(2R,4S,5R)-4-hydroxy-5-methylol-tetrahydrofuran-2-yl]pyrimidine-2,4-quinone
> <PUBCHEM_IUPAC_INCHI>
InChI=1S/C13H13ClN2O6/c14-10-2-1-8(21-10)6-4-16(13(20)15-12(6)19)11-3-7(18)9(5-17)22-11/h1-2,4,7,9,11,17-18H,3,5H2,(H,15,19,20)/t7-,9+,11+/m0/s1
> <PUBCHEM_IUPAC_INCHIKEY>
XMWRRADZWTVZNE-JVUFJMBOSA-N
> <PUBCHEM_XLOGP3>
0.2
> <PUBCHEM_EXACT_MASS>
328.0462138
> <PUBCHEM_MOLECULAR_FORMULA>
C13H13ClN2O6
> <PUBCHEM_MOLECULAR_WEIGHT>
328.70
> <PUBCHEM_OPENEYE_CAN_SMILES>
C1C(C(OC1N2C=C(C(=O)NC2=O)C3=CC=C(O3)Cl)CO)O
> <PUBCHEM_OPENEYE_ISO_SMILES>
C1[C@@H]([C@H](O[C@H]1N2C=C(C(=O)NC2=O)C3=CC=C(O3)Cl)CO)O
> <PUBCHEM_CACTVS_TPSA>
112
> <PUBCHEM_MONOISOTOPIC_WEIGHT>
328.0462138
> <PUBCHEM_TOTAL_CHARGE>
0
> <PUBCHEM_HEAVY_ATOM_COUNT>
22
> <PUBCHEM_ATOM_DEF_STEREO_COUNT>
3
> <PUBCHEM_ATOM_UDEF_STEREO_COUNT>
0
> <PUBCHEM_BOND_DEF_STEREO_COUNT>
0
> <PUBCHEM_BOND_UDEF_STEREO_COUNT>
0
> <PUBCHEM_ISOTOPIC_ATOM_COUNT>
0
> <PUBCHEM_COMPONENT_COUNT>
1
> <PUBCHEM_CACTVS_TAUTO_COUNT>
3
> <PUBCHEM_COORDINATE_TYPE>
1
5
255
> <PUBCHEM_BONDANNOTATIONS>
13  14  6
15  17  8
17  18  8
19  20  8
20  21  8
21  22  8
10  3  5
6  19  8
6  22  8
11  8  6
8  15  8
8  16  8
9  16  8
9  18  8
$$$$
