512324
  -OEChem-10302200282D
 36 38  0     1  0  0  0  0  0999 V2000
    2.6691    1.9492    0.0000 S   0  0  0  0  0  0  0  0  0  0  0  0
    6.1237   -1.2319    0.0000 O   0  0  0  0  0  0  0  0  0  0  0  0
    3.5546   -0.9229    0.0000 O   0  0  0  0  0  0  0  0  0  0  0  0
    4.2269   -2.9920    0.0000 O   0  0  0  0  0  0  0  0  0  0  0  0
    7.3970   -2.8874    0.0000 O   0  0  0  0  0  0  0  0  0  0  0  0
    7.0468    0.3559    0.0000 O   0  0  0  0  0  0  0  0  0  0  0  0
    5.3147    3.3559    0.0000 O   0  0  0  0  0  0  0  0  0  0  0  0
    5.3147    0.3559    0.0000 N   0  0  0  0  0  0  0  0  0  0  0  0
    6.1808    1.8559    0.0000 N   0  0  0  0  0  0  0  0  0  0  0  0
    4.5057   -1.2319    0.0000 C   0  0  1  0  0  0  0  0  0  0  0  0
    4.8147   -2.1829    0.0000 C   0  0  1  0  0  0  0  0  0  0  0  0
    5.3147   -0.6441    0.0000 C   0  0  1  0  0  0  0  0  0  0  0  0
    5.8147   -2.1829    0.0000 C   0  0  1  0  0  0  0  0  0  0  0  0
    6.4025   -2.9920    0.0000 C   0  0  0  0  0  0  0  0  0  0  0  0
    4.4487    0.8559    0.0000 C   0  0  0  0  0  0  0  0  0  0  0  0
    6.1808    0.8559    0.0000 C   0  0  0  0  0  0  0  0  0  0  0  0
    4.4487    1.8559    0.0000 C   0  0  0  0  0  0  0  0  0  0  0  0
    5.3147    2.3559    0.0000 C   0  0  0  0  0  0  0  0  0  0  0  0
    3.5827    2.3559    0.0000 C   0  0  0  0  0  0  0  0  0  0  0  0
    3.4782    3.3504    0.0000 C   0  0  0  0  0  0  0  0  0  0  0  0
    2.5000    3.5584    0.0000 C   0  0  0  0  0  0  0  0  0  0  0  0
    2.0000    2.6923    0.0000 C   0  0  0  0  0  0  0  0  0  0  0  0
    4.0673   -1.6703    0.0000 H   0  0  0  0  0  0  0  0  0  0  0  0
    4.2024   -2.0859    0.0000 H   0  0  0  0  0  0  0  0  0  0  0  0
    4.7623   -0.3626    0.0000 H   0  0  0  0  0  0  0  0  0  0  0  0
    6.4271   -2.0859    0.0000 H   0  0  0  0  0  0  0  0  0  0  0  0
    5.8453   -3.2637    0.0000 H   0  0  0  0  0  0  0  0  0  0  0  0
    6.5734   -3.5879    0.0000 H   0  0  0  0  0  0  0  0  0  0  0  0
    3.0939   -1.3377    0.0000 H   0  0  0  0  0  0  0  0  0  0  0  0
    4.4791   -3.5584    0.0000 H   0  0  0  0  0  0  0  0  0  0  0  0
    3.9118    0.5459    0.0000 H   0  0  0  0  0  0  0  0  0  0  0  0
    6.7177    2.1659    0.0000 H   0  0  0  0  0  0  0  0  0  0  0  0
    7.7615   -3.3890    0.0000 H   0  0  0  0  0  0  0  0  0  0  0  0
    3.9389    3.7653    0.0000 H   0  0  0  0  0  0  0  0  0  0  0  0
    2.2478    4.1247    0.0000 H   0  0  0  0  0  0  0  0  0  0  0  0
    1.3834    2.6275    0.0000 H   0  0  0  0  0  0  0  0  0  0  0  0
  1 19  1  0  0  0  0
  1 22  1  0  0  0  0
  2 12  1  0  0  0  0
  2 13  1  0  0  0  0
 10  3  1  6  0  0  0
  3 29  1  0  0  0  0
 11  4  1  1  0  0  0
  4 30  1  0  0  0  0
  5 14  1  0  0  0  0
  5 33  1  0  0  0  0
  6 16  2  0  0  0  0
  7 18  2  0  0  0  0
 12  8  1  6  0  0  0
  8 15  1  0  0  0  0
  8 16  1  0  0  0  0
  9 16  1  0  0  0  0
  9 18  1  0  0  0  0
  9 32  1  0  0  0  0
 10 11  1  0  0  0  0
 10 12  1  0  0  0  0
 10 23  1  0  0  0  0
 11 13  1  0  0  0  0
 11 24  1  0  0  0  0
 12 25  1  0  0  0  0
 13 14  1  6  0  0  0
 13 26  1  0  0  0  0
 14 27  1  0  0  0  0
 14 28  1  0  0  0  0
 15 17  2  0  0  0  0
 15 31  1  0  0  0  0
 17 18  1  0  0  0  0
 17 19  1  0  0  0  0
 19 20  2  0  0  0  0
 20 21  1  0  0  0  0
 20 34  1  0  0  0  0
 21 22  2  0  0  0  0
 21 35  1  0  0  0  0
 22 36  1  0  0  0  0
M  END
> <PUBCHEM_COMPOUND_CID>
512324
> <PUBCHEM_COMPOUND_CANONICALIZED>
1
> <PUBCHEM_CACTVS_COMPLEXITY>
513
> <PUBCHEM_CACTVS_HBOND_ACCEPTOR>
7
> <PUBCHEM_CACTVS_HBOND_DONOR>
4
> <PUBCHEM_CACTVS_ROTATABLE_BOND>
3
> <PUBCHEM_CACTVS_SUBSKEYS>
AAADccBzOABAAAAAAAAAAAAAAAAAASJAAAAgAAAAAAAAAAABgAAAHgQQCAAADBTl0AaxAYPABgiMAiFWUACDAIAgCBBIiBkIAMiLMDKglRGOQAAvhyI7iMf4OAIAAAAAAAAAAAAAAAAAAAAAAAAAAAAAAA==
> <PUBCHEM_IUPAC_OPENEYE_NAME>
1-[(2R,3S,4S,5R)-3,4-dihydroxy-5-(hydroxymethyl)tetrahydrofuran-2-yl]-5-(2-thienyl)pyrimidine-2,4-dione
> <PUBCHEM_IUPAC_CAS_NAME>
1-[(2R,3S,4S,5R)-3,4-dihydroxy-5-(hydroxymethyl)-2-oxolanyl]-5-thiophen-2-ylpyrimidine-2,4-dione
> <PUBCHEM_IUPAC_NAME_MARKUP>
1-[(2<I>R</I>,3<I>S</I>,4<I>S</I>,5<I>R</I>)-3,4-dihydroxy-5-(hydroxymethyl)oxolan-2-yl]-5-thiophen-2-ylpyrimidine-2,4-dione
> <PUBCHEM_IUPAC_NAME>
1-[(2R,3S,4S,5R)-3,4-dihydroxy-5-(hydroxymethyl)oxolan-2-yl]-5-thiophen-2-ylpyrimidine-2,4-dione
> <PUBCHEM_IUPAC_SYSTEMATIC_NAME>
1-[(2R,3S,4S,5R)-5-(hydroxymethyl)-3,4-bis(oxidanyl)oxolan-2-yl]-5-thiophen-2-yl-pyrimidine-2,4-dione
> <PUBCHEM_IUPAC_TRADITIONAL_NAME>
1-[(2R,3S,4S,5R)-3,4-dihydroxy-5-methylol-tetrahydrofuran-2-yl]-5-(2-thienyl)pyrimidine-2,4-quinone
> <PUBCHEM_IUPAC_INCHI>
InChI=1S/C13H14N2O6S/c16-5-7-9(17)10(18)12(21-7)15-4-6(8-2-1-3-22-8)11(19)14-13(15)20/h1-4,7,9-10,12,16-18H,5H2,(H,14,19,20)/t7-,9-,10+,12-/m1/s1
> <PUBCHEM_IUPAC_INCHIKEY>
DCIPFACYLTURBG-ZIYJGFGOSA-N
> <PUBCHEM_XLOGP3>
-0.6
> <PUBCHEM_EXACT_MASS>
326.05725734
> <PUBCHEM_MOLECULAR_FORMULA>
C13H14N2O6S
> <PUBCHEM_MOLECULAR_WEIGHT>
326.33
> <PUBCHEM_OPENEYE_CAN_SMILES>
C1=CSC(=C1)C2=CN(C(=O)NC2=O)C3C(C(C(O3)CO)O)O
> <PUBCHEM_OPENEYE_ISO_SMILES>
C1=CSC(=C1)C2=CN(C(=O)NC2=O)[C@H]3[C@H]([C@@H]([C@H](O3)CO)O)O
> <PUBCHEM_CACTVS_TPSA>
148
> <PUBCHEM_MONOISOTOPIC_WEIGHT>
326.05725734
> <PUBCHEM_TOTAL_CHARGE>
0
> <PUBCHEM_HEAVY_ATOM_COUNT>
22
> <PUBCHEM_ATOM_DEF_STEREO_COUNT>
4
> <PUBCHEM_ATOM_UDEF_STEREO_COUNT>
0
> <PUBCHEM_BOND_DEF_STEREO_COUNT>
0
> <PUBCHEM_BOND_UDEF_STEREO_COUNT>
0
> <PUBCHEM_ISOTOPIC_ATOM_COUNT>
0
> <PUBCHEM_COMPONENT_COUNT>
1
> <PUBCHEM_CACTVS_TAUTO_COUNT>
3
> <PUBCHEM_COORDINATE_TYPE>
1
5
255
> <PUBCHEM_BONDANNOTATIONS>
1  19  8
1  22  8
13  14  6
15  17  8
17  18  8
19  20  8
20  21  8
21  22  8
10  3  6
11  4  5
12  8  6
8  15  8
8  16  8
9  16  8
9  18  8
$$$$
