512308
  -OEChem-10302200282D
 47 48  0     1  0  0  0  0  0999 V2000
    9.6846   -0.2143    0.0000 P   0  0  0  0  0  0  0  0  0  0  0  0
    8.0382    0.3238    0.0000 O   0  0  0  0  0  0  0  0  0  0  0  0
   10.3524   -0.9586    0.0000 O   0  0  0  0  0  0  0  0  0  0  0  0
   10.4289    0.4536    0.0000 O   0  0  0  0  0  0  0  0  0  0  0  0
    8.9403   -0.8821    0.0000 O   0  0  0  0  0  0  0  0  0  0  0  0
    8.6596    2.2248    0.0000 N   0  3  0  0  0  0  0  0  0  0  0  0
    6.0812   -0.0886    0.0000 N   0  0  0  0  0  0  0  0  0  0  0  0
    6.0812   -1.6981    0.0000 N   0  0  0  0  0  0  0  0  0  0  0  0
    4.2690    0.1066    0.0000 N   0  0  0  0  0  0  0  0  0  0  0  0
    3.4030   -1.3934    0.0000 N   0  0  0  0  0  0  0  0  0  0  0  0
    4.2690   -2.8934    0.0000 N   0  0  0  0  0  0  0  0  0  0  0  0
    2.5369    0.1066    0.0000 N   0  0  0  0  0  0  0  0  0  0  0  0
    7.6811    2.0186    0.0000 C   0  0  0  0  0  0  0  0  0  0  0  0
    7.3704    1.0681    0.0000 C   0  0  3  0  0  0  0  0  0  0  0  0
    6.3919    0.8619    0.0000 C   0  0  0  0  0  0  0  0  0  0  0  0
    9.6381    2.4311    0.0000 C   0  0  0  0  0  0  0  0  0  0  0  0
    8.4534    3.2034    0.0000 C   0  0  0  0  0  0  0  0  0  0  0  0
    8.8658    1.2464    0.0000 C   0  0  0  0  0  0  0  0  0  0  0  0
    5.1350   -0.3934    0.0000 C   0  0  0  0  0  0  0  0  0  0  0  0
    9.0168    0.5300    0.0000 C   0  0  0  0  0  0  0  0  0  0  0  0
    6.6648   -0.8934    0.0000 C   0  0  0  0  0  0  0  0  0  0  0  0
    5.1350   -1.3934    0.0000 C   0  0  0  0  0  0  0  0  0  0  0  0
    4.2690   -1.8934    0.0000 C   0  0  0  0  0  0  0  0  0  0  0  0
    3.4030   -0.3934    0.0000 C   0  0  0  0  0  0  0  0  0  0  0  0
    7.6605    2.6383    0.0000 H   0  0  0  0  0  0  0  0  0  0  0  0
    7.0672    2.1060    0.0000 H   0  0  0  0  0  0  0  0  0  0  0  0
    7.9771    1.1960    0.0000 H   0  0  0  0  0  0  0  0  0  0  0  0
    6.3713    1.4816    0.0000 H   0  0  0  0  0  0  0  0  0  0  0  0
    5.7781    0.9492    0.0000 H   0  0  0  0  0  0  0  0  0  0  0  0
    9.7659    1.8244    0.0000 H   0  0  0  0  0  0  0  0  0  0  0  0
   10.2447    2.5589    0.0000 H   0  0  0  0  0  0  0  0  0  0  0  0
    9.5102    3.0377    0.0000 H   0  0  0  0  0  0  0  0  0  0  0  0
    9.0600    3.3312    0.0000 H   0  0  0  0  0  0  0  0  0  0  0  0
    8.3255    3.8100    0.0000 H   0  0  0  0  0  0  0  0  0  0  0  0
    7.8467    3.0755    0.0000 H   0  0  0  0  0  0  0  0  0  0  0  0
    8.2591    1.1185    0.0000 H   0  0  0  0  0  0  0  0  0  0  0  0
    8.9936    0.6397    0.0000 H   0  0  0  0  0  0  0  0  0  0  0  0
    9.4725    1.3742    0.0000 H   0  0  0  0  0  0  0  0  0  0  0  0
    9.5431    0.8577    0.0000 H   0  0  0  0  0  0  0  0  0  0  0  0
    8.7855    1.1053    0.0000 H   0  0  0  0  0  0  0  0  0  0  0  0
    7.2848   -0.8934    0.0000 H   0  0  0  0  0  0  0  0  0  0  0  0
   10.9591   -0.8307    0.0000 H   0  0  0  0  0  0  0  0  0  0  0  0
   11.0182    0.2610    0.0000 H   0  0  0  0  0  0  0  0  0  0  0  0
    3.7320   -3.2034    0.0000 H   0  0  0  0  0  0  0  0  0  0  0  0
    4.8059   -3.2034    0.0000 H   0  0  0  0  0  0  0  0  0  0  0  0
    2.0000   -0.2034    0.0000 H   0  0  0  0  0  0  0  0  0  0  0  0
    2.5369    0.7266    0.0000 H   0  0  0  0  0  0  0  0  0  0  0  0
  1  3  1  0  0  0  0
  1  4  1  0  0  0  0
  1  5  2  0  0  0  0
  1 20  1  0  0  0  0
  2 14  1  0  0  0  0
  2 20  1  0  0  0  0
  3 42  1  0  0  0  0
  4 43  1  0  0  0  0
  6 13  1  0  0  0  0
  6 16  1  0  0  0  0
  6 17  1  0  0  0  0
  6 18  1  0  0  0  0
  7 15  1  0  0  0  0
  7 19  1  0  0  0  0
  7 21  1  0  0  0  0
  8 21  2  0  0  0  0
  8 22  1  0  0  0  0
  9 19  2  0  0  0  0
  9 24  1  0  0  0  0
 10 23  1  0  0  0  0
 10 24  2  0  0  0  0
 11 23  1  0  0  0  0
 11 44  1  0  0  0  0
 11 45  1  0  0  0  0
 12 24  1  0  0  0  0
 12 46  1  0  0  0  0
 12 47  1  0  0  0  0
 13 14  1  0  0  0  0
 13 25  1  0  0  0  0
 13 26  1  0  0  0  0
 14 15  1  0  0  0  0
 14 27  1  0  0  0  0
 15 28  1  0  0  0  0
 15 29  1  0  0  0  0
 16 30  1  0  0  0  0
 16 31  1  0  0  0  0
 16 32  1  0  0  0  0
 17 33  1  0  0  0  0
 17 34  1  0  0  0  0
 17 35  1  0  0  0  0
 18 36  1  0  0  0  0
 18 37  1  0  0  0  0
 18 38  1  0  0  0  0
 19 22  1  0  0  0  0
 20 39  1  0  0  0  0
 20 40  1  0  0  0  0
 21 41  1  0  0  0  0
 22 23  2  0  0  0  0
M  CHG  1   6   1
M  END
> <PUBCHEM_COMPOUND_CID>
512308
> <PUBCHEM_COMPOUND_CANONICALIZED>
1
> <PUBCHEM_CACTVS_COMPLEXITY>
471
> <PUBCHEM_CACTVS_HBOND_ACCEPTOR>
9
> <PUBCHEM_CACTVS_HBOND_DONOR>
4
> <PUBCHEM_CACTVS_ROTATABLE_BOND>
7
> <PUBCHEM_CACTVS_SUBSKEYS>
AAADceBzuAIAAAAAAAAAAAAAAAAAAWAAAAAsAAAAAAAAAFgB+AAAHggQCCAACBzhlwYH8L9MFBCgQQZhZICAgC0REKABUCAoVBCCSABASEAVBAgIAALQACAAAAAAAAAAAAAAAAAAAAAAAAAAAAAAAAAAAA==
> <PUBCHEM_IUPAC_OPENEYE_NAME>
[3-(2,6-diaminopurin-9-yl)-2-(phosphonomethoxy)propyl]-trimethyl-ammonium
> <PUBCHEM_IUPAC_CAS_NAME>
[3-(2,6-diamino-9-purinyl)-2-(phosphonomethoxy)propyl]-trimethylammonium
> <PUBCHEM_IUPAC_NAME_MARKUP>
[3-(2,6-diaminopurin-9-yl)-2-(phosphonomethoxy)propyl]-trimethylazanium
> <PUBCHEM_IUPAC_NAME>
[3-(2,6-diaminopurin-9-yl)-2-(phosphonomethoxy)propyl]-trimethylazanium
> <PUBCHEM_IUPAC_SYSTEMATIC_NAME>
[3-[2,6-bis(azanyl)purin-9-yl]-2-(phosphonomethoxy)propyl]-trimethyl-azanium
> <PUBCHEM_IUPAC_TRADITIONAL_NAME>
[3-(2,6-diaminopurin-9-yl)-2-(phosphonomethoxy)propyl]-trimethyl-ammonium
> <PUBCHEM_IUPAC_INCHI>
InChI=1S/C12H22N7O4P/c1-19(2,3)5-8(23-7-24(20,21)22)4-18-6-15-9-10(13)16-12(14)17-11(9)18/h6,8H,4-5,7H2,1-3H3,(H5-,13,14,16,17,20,21,22)/p+1
> <PUBCHEM_IUPAC_INCHIKEY>
RZYZIWWFICZRPO-UHFFFAOYSA-O
> <PUBCHEM_XLOGP3_AA>
-2.5
> <PUBCHEM_EXACT_MASS>
360.15491424
> <PUBCHEM_MOLECULAR_FORMULA>
C12H23N7O4P+
> <PUBCHEM_MOLECULAR_WEIGHT>
360.33
> <PUBCHEM_OPENEYE_CAN_SMILES>
C[N+](C)(C)CC(CN1C=NC2=C(N=C(N=C21)N)N)OCP(=O)(O)O
> <PUBCHEM_OPENEYE_ISO_SMILES>
C[N+](C)(C)CC(CN1C=NC2=C(N=C(N=C21)N)N)OCP(=O)(O)O
> <PUBCHEM_CACTVS_TPSA>
162
> <PUBCHEM_MONOISOTOPIC_WEIGHT>
360.15491424
> <PUBCHEM_TOTAL_CHARGE>
1
> <PUBCHEM_HEAVY_ATOM_COUNT>
24
> <PUBCHEM_ATOM_DEF_STEREO_COUNT>
0
> <PUBCHEM_ATOM_UDEF_STEREO_COUNT>
1
> <PUBCHEM_BOND_DEF_STEREO_COUNT>
0
> <PUBCHEM_BOND_UDEF_STEREO_COUNT>
0
> <PUBCHEM_ISOTOPIC_ATOM_COUNT>
0
> <PUBCHEM_COMPONENT_COUNT>
1
> <PUBCHEM_CACTVS_TAUTO_COUNT>
-1
> <PUBCHEM_COORDINATE_TYPE>
1
5
255
> <PUBCHEM_BONDANNOTATIONS>
10  23  8
10  24  8
14  15  3
19  22  8
22  23  8
7  19  8
7  21  8
8  21  8
8  22  8
9  19  8
9  24  8
$$$$
