512309
  -OEChem-10302200282D
 45 46  0     1  0  0  0  0  0999 V2000
    8.2816    0.2143    0.0000 P   0  0  0  0  0  0  0  0  0  0  0  0
    6.6353   -0.3238    0.0000 O   0  0  0  0  0  0  0  0  0  0  0  0
    8.9495    0.9586    0.0000 O   0  0  0  0  0  0  0  0  0  0  0  0
    9.0259   -0.4536    0.0000 O   0  0  0  0  0  0  0  0  0  0  0  0
    7.5373    0.8821    0.0000 O   0  0  0  0  0  0  0  0  0  0  0  0
    7.2566   -2.2248    0.0000 N   0  3  0  0  0  0  0  0  0  0  0  0
    4.6783    0.0886    0.0000 N   0  0  0  0  0  0  0  0  0  0  0  0
    4.6783    1.6981    0.0000 N   0  0  0  0  0  0  0  0  0  0  0  0
    2.8660   -0.1066    0.0000 N   0  0  0  0  0  0  0  0  0  0  0  0
    2.0000    1.3934    0.0000 N   0  0  0  0  0  0  0  0  0  0  0  0
    2.8660    2.8934    0.0000 N   0  0  0  0  0  0  0  0  0  0  0  0
    6.2781   -2.0186    0.0000 C   0  0  0  0  0  0  0  0  0  0  0  0
    5.9674   -1.0681    0.0000 C   0  0  3  0  0  0  0  0  0  0  0  0
    4.9889   -0.8619    0.0000 C   0  0  0  0  0  0  0  0  0  0  0  0
    8.2351   -2.4311    0.0000 C   0  0  0  0  0  0  0  0  0  0  0  0
    7.0504   -3.2034    0.0000 C   0  0  0  0  0  0  0  0  0  0  0  0
    7.4628   -1.2464    0.0000 C   0  0  0  0  0  0  0  0  0  0  0  0
    7.6138   -0.5300    0.0000 C   0  0  0  0  0  0  0  0  0  0  0  0
    3.7320    0.3934    0.0000 C   0  0  0  0  0  0  0  0  0  0  0  0
    5.2619    0.8934    0.0000 C   0  0  0  0  0  0  0  0  0  0  0  0
    3.7320    1.3934    0.0000 C   0  0  0  0  0  0  0  0  0  0  0  0
    2.8660    1.8934    0.0000 C   0  0  0  0  0  0  0  0  0  0  0  0
    2.0000    0.3934    0.0000 C   0  0  0  0  0  0  0  0  0  0  0  0
    5.6643   -2.1060    0.0000 H   0  0  0  0  0  0  0  0  0  0  0  0
    6.2575   -2.6383    0.0000 H   0  0  0  0  0  0  0  0  0  0  0  0
    5.7748   -0.4788    0.0000 H   0  0  0  0  0  0  0  0  0  0  0  0
    4.3751   -0.9492    0.0000 H   0  0  0  0  0  0  0  0  0  0  0  0
    4.9684   -1.4816    0.0000 H   0  0  0  0  0  0  0  0  0  0  0  0
    8.1073   -3.0377    0.0000 H   0  0  0  0  0  0  0  0  0  0  0  0
    8.8418   -2.5589    0.0000 H   0  0  0  0  0  0  0  0  0  0  0  0
    8.3630   -1.8244    0.0000 H   0  0  0  0  0  0  0  0  0  0  0  0
    6.4437   -3.0755    0.0000 H   0  0  0  0  0  0  0  0  0  0  0  0
    6.9225   -3.8100    0.0000 H   0  0  0  0  0  0  0  0  0  0  0  0
    7.6571   -3.3312    0.0000 H   0  0  0  0  0  0  0  0  0  0  0  0
    8.0695   -1.3742    0.0000 H   0  0  0  0  0  0  0  0  0  0  0  0
    7.5907   -0.6397    0.0000 H   0  0  0  0  0  0  0  0  0  0  0  0
    6.8562   -1.1185    0.0000 H   0  0  0  0  0  0  0  0  0  0  0  0
    7.3825   -1.1053    0.0000 H   0  0  0  0  0  0  0  0  0  0  0  0
    8.1402   -0.8577    0.0000 H   0  0  0  0  0  0  0  0  0  0  0  0
    5.8819    0.8934    0.0000 H   0  0  0  0  0  0  0  0  0  0  0  0
    1.4631    0.0834    0.0000 H   0  0  0  0  0  0  0  0  0  0  0  0
    9.5562    0.8307    0.0000 H   0  0  0  0  0  0  0  0  0  0  0  0
    9.6153   -0.2610    0.0000 H   0  0  0  0  0  0  0  0  0  0  0  0
    2.3291    3.2034    0.0000 H   0  0  0  0  0  0  0  0  0  0  0  0
    3.4030    3.2034    0.0000 H   0  0  0  0  0  0  0  0  0  0  0  0
  1  3  1  0  0  0  0
  1  4  1  0  0  0  0
  1  5  2  0  0  0  0
  1 18  1  0  0  0  0
  2 13  1  0  0  0  0
  2 18  1  0  0  0  0
  3 42  1  0  0  0  0
  4 43  1  0  0  0  0
  6 12  1  0  0  0  0
  6 15  1  0  0  0  0
  6 16  1  0  0  0  0
  6 17  1  0  0  0  0
  7 14  1  0  0  0  0
  7 19  1  0  0  0  0
  7 20  1  0  0  0  0
  8 20  2  0  0  0  0
  8 21  1  0  0  0  0
  9 19  2  0  0  0  0
  9 23  1  0  0  0  0
 10 22  1  0  0  0  0
 10 23  2  0  0  0  0
 11 22  1  0  0  0  0
 11 44  1  0  0  0  0
 11 45  1  0  0  0  0
 12 13  1  0  0  0  0
 12 24  1  0  0  0  0
 12 25  1  0  0  0  0
 13 14  1  0  0  0  0
 13 26  1  0  0  0  0
 14 27  1  0  0  0  0
 14 28  1  0  0  0  0
 15 29  1  0  0  0  0
 15 30  1  0  0  0  0
 15 31  1  0  0  0  0
 16 32  1  0  0  0  0
 16 33  1  0  0  0  0
 16 34  1  0  0  0  0
 17 35  1  0  0  0  0
 17 36  1  0  0  0  0
 17 37  1  0  0  0  0
 18 38  1  0  0  0  0
 18 39  1  0  0  0  0
 19 21  1  0  0  0  0
 20 40  1  0  0  0  0
 21 22  2  0  0  0  0
 23 41  1  0  0  0  0
M  CHG  1   6   1
M  END
> <PUBCHEM_COMPOUND_CID>
512309
> <PUBCHEM_COMPOUND_CANONICALIZED>
1
> <PUBCHEM_CACTVS_COMPLEXITY>
442
> <PUBCHEM_CACTVS_HBOND_ACCEPTOR>
8
> <PUBCHEM_CACTVS_HBOND_DONOR>
3
> <PUBCHEM_CACTVS_ROTATABLE_BOND>
7
> <PUBCHEM_CACTVS_SUBSKEYS>
AAADceBzuAIAAAAAAAAAAAAAAAAAAWAAAAAsAAAAAAAAAFgB+AAAHggQCCAACBzhlwYH8L9MFBCgQQZhZICAgC0REKABUCAoVBCCSABASEAVBAgIAALQACAAAAAAAAAAAAAAAAAAAAAAAAAAAAAAAAAAAA==
> <PUBCHEM_IUPAC_OPENEYE_NAME>
[3-(6-aminopurin-9-yl)-2-(phosphonomethoxy)propyl]-trimethyl-ammonium
> <PUBCHEM_IUPAC_CAS_NAME>
[3-(6-aminopurin-9-yl)-2-(phosphonomethoxy)propyl]-trimethylammonium
> <PUBCHEM_IUPAC_NAME_MARKUP>
[3-(6-aminopurin-9-yl)-2-(phosphonomethoxy)propyl]-trimethylazanium
> <PUBCHEM_IUPAC_NAME>
[3-(6-aminopurin-9-yl)-2-(phosphonomethoxy)propyl]-trimethylazanium
> <PUBCHEM_IUPAC_SYSTEMATIC_NAME>
[3-(6-aminopurin-9-yl)-2-(phosphonomethoxy)propyl]-trimethyl-azanium
> <PUBCHEM_IUPAC_TRADITIONAL_NAME>
[3-adenin-9-yl-2-(phosphonomethoxy)propyl]-trimethyl-ammonium
> <PUBCHEM_IUPAC_INCHI>
InChI=1S/C12H21N6O4P/c1-18(2,3)5-9(22-8-23(19,20)21)4-17-7-16-10-11(13)14-6-15-12(10)17/h6-7,9H,4-5,8H2,1-3H3,(H3-,13,14,15,19,20,21)/p+1
> <PUBCHEM_IUPAC_INCHIKEY>
PBXFYMBAUXCIFL-UHFFFAOYSA-O
> <PUBCHEM_XLOGP3>
-1.9
> <PUBCHEM_EXACT_MASS>
345.14401520
> <PUBCHEM_MOLECULAR_FORMULA>
C12H22N6O4P+
> <PUBCHEM_MOLECULAR_WEIGHT>
345.32
> <PUBCHEM_OPENEYE_CAN_SMILES>
C[N+](C)(C)CC(CN1C=NC2=C(N=CN=C21)N)OCP(=O)(O)O
> <PUBCHEM_OPENEYE_ISO_SMILES>
C[N+](C)(C)CC(CN1C=NC2=C(N=CN=C21)N)OCP(=O)(O)O
> <PUBCHEM_CACTVS_TPSA>
136
> <PUBCHEM_MONOISOTOPIC_WEIGHT>
345.14401520
> <PUBCHEM_TOTAL_CHARGE>
1
> <PUBCHEM_HEAVY_ATOM_COUNT>
23
> <PUBCHEM_ATOM_DEF_STEREO_COUNT>
0
> <PUBCHEM_ATOM_UDEF_STEREO_COUNT>
1
> <PUBCHEM_BOND_DEF_STEREO_COUNT>
0
> <PUBCHEM_BOND_UDEF_STEREO_COUNT>
0
> <PUBCHEM_ISOTOPIC_ATOM_COUNT>
0
> <PUBCHEM_COMPONENT_COUNT>
1
> <PUBCHEM_CACTVS_TAUTO_COUNT>
-1
> <PUBCHEM_COORDINATE_TYPE>
1
5
255
> <PUBCHEM_BONDANNOTATIONS>
10  22  8
10  23  8
13  14  3
19  21  8
21  22  8
7  19  8
7  20  8
8  20  8
8  21  8
9  19  8
9  23  8
$$$$
