512325
  -OEChem-10302200282D
 36 38  0     1  0  0  0  0  0999 V2000
    2.6691    1.8107    0.0000 S   0  0  0  0  0  0  0  0  0  0  0  0
    6.1237   -1.3703    0.0000 O   0  0  0  0  0  0  0  0  0  0  0  0
    4.2269   -3.1304    0.0000 O   0  0  0  0  0  0  0  0  0  0  0  0
    7.3970   -3.0259    0.0000 O   0  0  0  0  0  0  0  0  0  0  0  0
    7.0468    0.2175    0.0000 O   0  0  0  0  0  0  0  0  0  0  0  0
    5.3147    0.2175    0.0000 N   0  0  0  0  0  0  0  0  0  0  0  0
    6.1808    1.7175    0.0000 N   0  0  0  0  0  0  0  0  0  0  0  0
    5.3147    3.2175    0.0000 N   0  0  0  0  0  0  0  0  0  0  0  0
    4.8147   -2.3214    0.0000 C   0  0  1  0  0  0  0  0  0  0  0  0
    5.3147   -0.7825    0.0000 C   0  0  1  0  0  0  0  0  0  0  0  0
    4.5057   -1.3703    0.0000 C   0  0  0  0  0  0  0  0  0  0  0  0
    5.8147   -2.3214    0.0000 C   0  0  1  0  0  0  0  0  0  0  0  0
    6.4025   -3.1304    0.0000 C   0  0  0  0  0  0  0  0  0  0  0  0
    4.4487    0.7175    0.0000 C   0  0  0  0  0  0  0  0  0  0  0  0
    6.1808    0.7175    0.0000 C   0  0  0  0  0  0  0  0  0  0  0  0
    4.4487    1.7175    0.0000 C   0  0  0  0  0  0  0  0  0  0  0  0
    5.3147    2.2175    0.0000 C   0  0  0  0  0  0  0  0  0  0  0  0
    3.5827    2.2175    0.0000 C   0  0  0  0  0  0  0  0  0  0  0  0
    3.4782    3.2120    0.0000 C   0  0  0  0  0  0  0  0  0  0  0  0
    2.5000    3.4199    0.0000 C   0  0  0  0  0  0  0  0  0  0  0  0
    2.0000    2.5539    0.0000 C   0  0  0  0  0  0  0  0  0  0  0  0
    5.0962   -2.8738    0.0000 H   0  0  0  0  0  0  0  0  0  0  0  0
    5.8672   -0.5011    0.0000 H   0  0  0  0  0  0  0  0  0  0  0  0
    4.1957   -0.8334    0.0000 H   0  0  0  0  0  0  0  0  0  0  0  0
    3.9393   -1.6225    0.0000 H   0  0  0  0  0  0  0  0  0  0  0  0
    6.4271   -2.2244    0.0000 H   0  0  0  0  0  0  0  0  0  0  0  0
    5.8453   -3.4022    0.0000 H   0  0  0  0  0  0  0  0  0  0  0  0
    6.5734   -3.7264    0.0000 H   0  0  0  0  0  0  0  0  0  0  0  0
    3.6103   -3.0656    0.0000 H   0  0  0  0  0  0  0  0  0  0  0  0
    3.9118    0.4075    0.0000 H   0  0  0  0  0  0  0  0  0  0  0  0
    7.7615   -3.5275    0.0000 H   0  0  0  0  0  0  0  0  0  0  0  0
    3.9389    3.6268    0.0000 H   0  0  0  0  0  0  0  0  0  0  0  0
    5.8517    3.5275    0.0000 H   0  0  0  0  0  0  0  0  0  0  0  0
    4.7778    3.5275    0.0000 H   0  0  0  0  0  0  0  0  0  0  0  0
    2.2478    3.9863    0.0000 H   0  0  0  0  0  0  0  0  0  0  0  0
    1.3834    2.4891    0.0000 H   0  0  0  0  0  0  0  0  0  0  0  0
  1 18  1  0  0  0  0
  1 21  1  0  0  0  0
  2 10  1  0  0  0  0
  2 12  1  0  0  0  0
  9  3  1  1  0  0  0
  3 29  1  0  0  0  0
  4 13  1  0  0  0  0
  4 31  1  0  0  0  0
  5 15  2  0  0  0  0
 10  6  1  6  0  0  0
  6 14  1  0  0  0  0
  6 15  1  0  0  0  0
  7 15  1  0  0  0  0
  7 17  2  0  0  0  0
  8 17  1  0  0  0  0
  8 33  1  0  0  0  0
  8 34  1  0  0  0  0
  9 11  1  0  0  0  0
  9 12  1  0  0  0  0
  9 22  1  0  0  0  0
 10 11  1  0  0  0  0
 10 23  1  0  0  0  0
 11 24  1  0  0  0  0
 11 25  1  0  0  0  0
 12 13  1  6  0  0  0
 12 26  1  0  0  0  0
 13 27  1  0  0  0  0
 13 28  1  0  0  0  0
 14 16  2  0  0  0  0
 14 30  1  0  0  0  0
 16 17  1  0  0  0  0
 16 18  1  0  0  0  0
 18 19  2  0  0  0  0
 19 20  1  0  0  0  0
 19 32  1  0  0  0  0
 20 21  2  0  0  0  0
 20 35  1  0  0  0  0
 21 36  1  0  0  0  0
M  END
> <PUBCHEM_COMPOUND_CID>
512325
> <PUBCHEM_COMPOUND_CANONICALIZED>
1
> <PUBCHEM_CACTVS_COMPLEXITY>
496
> <PUBCHEM_CACTVS_HBOND_ACCEPTOR>
5
> <PUBCHEM_CACTVS_HBOND_DONOR>
3
> <PUBCHEM_CACTVS_ROTATABLE_BOND>
3
> <PUBCHEM_CACTVS_SUBSKEYS>
AAADccBzOABAAAAAAAAAAAAAAAAAASJAAAAgAAAAAAAAAAABgAAAHgQQCAAADBTl0AaxAYNABgisAiJmdACDAIEgCBBIiBgoAJiJMCKgkRGOQAAnhgIriAewMAIAAAAAAAAAAAAAAAAAAAAAAAAAAAAAAA==
> <PUBCHEM_IUPAC_OPENEYE_NAME>
4-amino-1-[(2R,4S,5R)-4-hydroxy-5-(hydroxymethyl)tetrahydrofuran-2-yl]-5-(2-thienyl)pyrimidin-2-one
> <PUBCHEM_IUPAC_CAS_NAME>
4-amino-1-[(2R,4S,5R)-4-hydroxy-5-(hydroxymethyl)-2-oxolanyl]-5-thiophen-2-yl-2-pyrimidinone
> <PUBCHEM_IUPAC_NAME_MARKUP>
4-amino-1-[(2<I>R</I>,4<I>S</I>,5<I>R</I>)-4-hydroxy-5-(hydroxymethyl)oxolan-2-yl]-5-thiophen-2-ylpyrimidin-2-one
> <PUBCHEM_IUPAC_NAME>
4-amino-1-[(2R,4S,5R)-4-hydroxy-5-(hydroxymethyl)oxolan-2-yl]-5-thiophen-2-ylpyrimidin-2-one
> <PUBCHEM_IUPAC_SYSTEMATIC_NAME>
4-azanyl-1-[(2R,4S,5R)-5-(hydroxymethyl)-4-oxidanyl-oxolan-2-yl]-5-thiophen-2-yl-pyrimidin-2-one
> <PUBCHEM_IUPAC_TRADITIONAL_NAME>
4-amino-1-[(2R,4S,5R)-4-hydroxy-5-methylol-tetrahydrofuran-2-yl]-5-(2-thienyl)pyrimidin-2-one
> <PUBCHEM_IUPAC_INCHI>
InChI=1S/C13H15N3O4S/c14-12-7(10-2-1-3-21-10)5-16(13(19)15-12)11-4-8(18)9(6-17)20-11/h1-3,5,8-9,11,17-18H,4,6H2,(H2,14,15,19)/t8-,9+,11+/m0/s1
> <PUBCHEM_IUPAC_INCHIKEY>
XGDYHDVQDBZPGC-IQJOONFLSA-N
> <PUBCHEM_XLOGP3>
-0.4
> <PUBCHEM_EXACT_MASS>
309.07832714
> <PUBCHEM_MOLECULAR_FORMULA>
C13H15N3O4S
> <PUBCHEM_MOLECULAR_WEIGHT>
309.34
> <PUBCHEM_OPENEYE_CAN_SMILES>
C1C(C(OC1N2C=C(C(=NC2=O)N)C3=CC=CS3)CO)O
> <PUBCHEM_OPENEYE_ISO_SMILES>
C1[C@@H]([C@H](O[C@H]1N2C=C(C(=NC2=O)N)C3=CC=CS3)CO)O
> <PUBCHEM_CACTVS_TPSA>
137
> <PUBCHEM_MONOISOTOPIC_WEIGHT>
309.07832714
> <PUBCHEM_TOTAL_CHARGE>
0
> <PUBCHEM_HEAVY_ATOM_COUNT>
21
> <PUBCHEM_ATOM_DEF_STEREO_COUNT>
3
> <PUBCHEM_ATOM_UDEF_STEREO_COUNT>
0
> <PUBCHEM_BOND_DEF_STEREO_COUNT>
0
> <PUBCHEM_BOND_UDEF_STEREO_COUNT>
0
> <PUBCHEM_ISOTOPIC_ATOM_COUNT>
0
> <PUBCHEM_COMPONENT_COUNT>
1
> <PUBCHEM_CACTVS_TAUTO_COUNT>
-1
> <PUBCHEM_COORDINATE_TYPE>
1
5
255
> <PUBCHEM_BONDANNOTATIONS>
1  18  8
1  21  8
12  13  6
14  16  8
16  17  8
18  19  8
19  20  8
20  21  8
9  3  5
10  6  6
6  14  8
6  15  8
7  15  8
7  17  8
$$$$
