512300
  -OEChem-10302200282D
 35 36  0     1  0  0  0  0  0999 V2000
    7.5673   -2.6502    0.0000 P   0  0  0  0  0  0  0  0  0  0  0  0
    6.2781   -1.4934    0.0000 O   0  0  0  0  0  0  0  0  0  0  0  0
    7.8779   -3.6007    0.0000 O   0  0  0  0  0  0  0  0  0  0  0  0
    8.5178   -2.3395    0.0000 O   0  0  0  0  0  0  0  0  0  0  0  0
    6.6168   -2.9608    0.0000 O   0  0  0  0  0  0  0  0  0  0  0  0
    4.6783    0.6138    0.0000 N   0  0  0  0  0  0  0  0  0  0  0  0
    4.6783    2.2233    0.0000 N   0  0  0  0  0  0  0  0  0  0  0  0
    7.6138   -0.0048    0.0000 N   0  0  0  0  0  0  0  0  0  0  0  0
    2.8660    0.4186    0.0000 N   0  0  0  0  0  0  0  0  0  0  0  0
    2.0000    1.9186    0.0000 N   0  0  0  0  0  0  0  0  0  0  0  0
    2.8660    3.4186    0.0000 N   0  0  0  0  0  0  0  0  0  0  0  0
    5.9674   -0.5429    0.0000 C   0  0  3  0  0  0  0  0  0  0  0  0
    4.9889   -0.3367    0.0000 C   0  0  0  0  0  0  0  0  0  0  0  0
    6.6353    0.2014    0.0000 C   0  0  0  0  0  0  0  0  0  0  0  0
    3.7320    0.9186    0.0000 C   0  0  0  0  0  0  0  0  0  0  0  0
    5.2619    1.4186    0.0000 C   0  0  0  0  0  0  0  0  0  0  0  0
    3.7320    1.9186    0.0000 C   0  0  0  0  0  0  0  0  0  0  0  0
    7.2566   -1.6997    0.0000 C   0  0  0  0  0  0  0  0  0  0  0  0
    2.8660    2.4186    0.0000 C   0  0  0  0  0  0  0  0  0  0  0  0
    2.0000    0.9186    0.0000 C   0  0  0  0  0  0  0  0  0  0  0  0
    5.5534   -1.0044    0.0000 H   0  0  0  0  0  0  0  0  0  0  0  0
    4.3751   -0.4240    0.0000 H   0  0  0  0  0  0  0  0  0  0  0  0
    4.9684   -0.9564    0.0000 H   0  0  0  0  0  0  0  0  0  0  0  0
    6.8665    0.7766    0.0000 H   0  0  0  0  0  0  0  0  0  0  0  0
    6.1089    0.5290    0.0000 H   0  0  0  0  0  0  0  0  0  0  0  0
    5.8819    1.4186    0.0000 H   0  0  0  0  0  0  0  0  0  0  0  0
    7.8704   -1.6123    0.0000 H   0  0  0  0  0  0  0  0  0  0  0  0
    7.2772   -1.0800    0.0000 H   0  0  0  0  0  0  0  0  0  0  0  0
    8.0279    0.4566    0.0000 H   0  0  0  0  0  0  0  0  0  0  0  0
    7.8064   -0.5942    0.0000 H   0  0  0  0  0  0  0  0  0  0  0  0
    1.4631    0.6086    0.0000 H   0  0  0  0  0  0  0  0  0  0  0  0
    2.3291    3.7286    0.0000 H   0  0  0  0  0  0  0  0  0  0  0  0
    3.4030    3.7286    0.0000 H   0  0  0  0  0  0  0  0  0  0  0  0
    8.4846   -3.7286    0.0000 H   0  0  0  0  0  0  0  0  0  0  0  0
    8.9793   -2.7536    0.0000 H   0  0  0  0  0  0  0  0  0  0  0  0
  1  3  1  0  0  0  0
  1  4  1  0  0  0  0
  1  5  2  0  0  0  0
  1 18  1  0  0  0  0
  2 12  1  0  0  0  0
  2 18  1  0  0  0  0
  3 34  1  0  0  0  0
  4 35  1  0  0  0  0
  6 13  1  0  0  0  0
  6 15  1  0  0  0  0
  6 16  1  0  0  0  0
  7 16  2  0  0  0  0
  7 17  1  0  0  0  0
  8 14  1  0  0  0  0
  8 29  1  0  0  0  0
  8 30  1  0  0  0  0
  9 15  2  0  0  0  0
  9 20  1  0  0  0  0
 10 19  1  0  0  0  0
 10 20  2  0  0  0  0
 11 19  1  0  0  0  0
 11 32  1  0  0  0  0
 11 33  1  0  0  0  0
 12 13  1  0  0  0  0
 12 14  1  0  0  0  0
 12 21  1  0  0  0  0
 13 22  1  0  0  0  0
 13 23  1  0  0  0  0
 14 24  1  0  0  0  0
 14 25  1  0  0  0  0
 15 17  1  0  0  0  0
 16 26  1  0  0  0  0
 17 19  2  0  0  0  0
 18 27  1  0  0  0  0
 18 28  1  0  0  0  0
 20 31  1  0  0  0  0
M  END
> <PUBCHEM_COMPOUND_CID>
512300
> <PUBCHEM_COMPOUND_CANONICALIZED>
1
> <PUBCHEM_CACTVS_COMPLEXITY>
368
> <PUBCHEM_CACTVS_HBOND_ACCEPTOR>
9
> <PUBCHEM_CACTVS_HBOND_DONOR>
4
> <PUBCHEM_CACTVS_ROTATABLE_BOND>
6
> <PUBCHEM_CACTVS_SUBSKEYS>
AAADccBzuAIAAAAAAAAAAAAAAAAAAWAAAAAsAAAAAAAAAFgB+AAAHggQCCAACBzhlwYF8L9MFBCgQQZhZICAgC0REKABUKAoVBCCSABASEAVBAgIEALQACAAAAAAAAAAAAAAAAAAAAAAAAAAAAAAAAAAAA==
> <PUBCHEM_IUPAC_OPENEYE_NAME>
[1-(aminomethyl)-2-(6-aminopurin-9-yl)ethoxy]methylphosphonic acid
> <PUBCHEM_IUPAC_CAS_NAME>
[1-amino-3-(6-aminopurin-9-yl)propan-2-yl]oxymethylphosphonic acid
> <PUBCHEM_IUPAC_NAME_MARKUP>
[1-amino-3-(6-aminopurin-9-yl)propan-2-yl]oxymethylphosphonic acid
> <PUBCHEM_IUPAC_NAME>
[1-amino-3-(6-aminopurin-9-yl)propan-2-yl]oxymethylphosphonic acid
> <PUBCHEM_IUPAC_SYSTEMATIC_NAME>
[1-(6-aminopurin-9-yl)-3-azanyl-propan-2-yl]oxymethylphosphonic acid
> <PUBCHEM_IUPAC_TRADITIONAL_NAME>
[1-(adenin-9-ylmethyl)-2-amino-ethoxy]methylphosphonic acid
> <PUBCHEM_IUPAC_INCHI>
InChI=1S/C9H15N6O4P/c10-1-6(19-5-20(16,17)18)2-15-4-14-7-8(11)12-3-13-9(7)15/h3-4,6H,1-2,5,10H2,(H2,11,12,13)(H2,16,17,18)
> <PUBCHEM_IUPAC_INCHIKEY>
ULRASSNVJHWKCB-UHFFFAOYSA-N
> <PUBCHEM_XLOGP3>
-5.2
> <PUBCHEM_EXACT_MASS>
302.08923998
> <PUBCHEM_MOLECULAR_FORMULA>
C9H15N6O4P
> <PUBCHEM_MOLECULAR_WEIGHT>
302.23
> <PUBCHEM_OPENEYE_CAN_SMILES>
C1=NC(=C2C(=N1)N(C=N2)CC(CN)OCP(=O)(O)O)N
> <PUBCHEM_OPENEYE_ISO_SMILES>
C1=NC(=C2C(=N1)N(C=N2)CC(CN)OCP(=O)(O)O)N
> <PUBCHEM_CACTVS_TPSA>
162
> <PUBCHEM_MONOISOTOPIC_WEIGHT>
302.08923998
> <PUBCHEM_TOTAL_CHARGE>
0
> <PUBCHEM_HEAVY_ATOM_COUNT>
20
> <PUBCHEM_ATOM_DEF_STEREO_COUNT>
0
> <PUBCHEM_ATOM_UDEF_STEREO_COUNT>
1
> <PUBCHEM_BOND_DEF_STEREO_COUNT>
0
> <PUBCHEM_BOND_UDEF_STEREO_COUNT>
0
> <PUBCHEM_ISOTOPIC_ATOM_COUNT>
0
> <PUBCHEM_COMPONENT_COUNT>
1
> <PUBCHEM_CACTVS_TAUTO_COUNT>
-1
> <PUBCHEM_COORDINATE_TYPE>
1
5
255
> <PUBCHEM_BONDANNOTATIONS>
10  19  8
10  20  8
12  14  3
15  17  8
17  19  8
6  15  8
6  16  8
7  16  8
7  17  8
9  15  8
9  20  8
$$$$
