512485
  -OEChem-10302200282D
 92 91  0     1  0  0  0  0  0999 V2000
    9.4651    2.7500    0.0000 S   0  0  0  0  0  0  0  0  0  0  0  0
   18.9914   -1.7500    0.0000 S   0  0  0  0  0  0  0  0  0  0  0  0
   11.1972   -1.2500    0.0000 O   0  0  0  0  0  0  0  0  0  0  0  0
   13.7953    1.2500    0.0000 O   0  0  0  0  0  0  0  0  0  0  0  0
    8.5991    1.2500    0.0000 O   0  0  0  0  0  0  0  0  0  0  0  0
   16.3933   -1.2500    0.0000 O   0  0  0  0  0  0  0  0  0  0  0  0
    6.0010   -1.2500    0.0000 O   0  0  0  0  0  0  0  0  0  0  0  0
   11.1972   -3.2500    0.0000 O   0  0  0  0  0  0  0  0  0  0  0  0
   12.9292   -3.2500    0.0000 O   0  0  0  0  0  0  0  0  0  0  0  0
    6.0010   -3.2500    0.0000 O   0  0  0  0  0  0  0  0  0  0  0  0
   17.2594    3.2500    0.0000 O   0  0  0  0  0  0  0  0  0  0  0  0
    7.7331   -3.2500    0.0000 O   0  0  0  0  0  0  0  0  0  0  0  0
   15.5273    3.2500    0.0000 O   0  0  0  0  0  0  0  0  0  0  0  0
   19.8574   -0.2500    0.0000 O   0  0  0  0  0  0  0  0  0  0  0  0
   18.9914    1.2500    0.0000 O   0  0  0  0  0  0  0  0  0  0  0  0
    2.5369   -0.2500    0.0000 O   0  0  0  0  0  0  0  0  0  0  0  0
    3.4030    1.2500    0.0000 O   0  0  0  0  0  0  0  0  0  0  0  0
   12.0632    0.2500    0.0000 N   0  0  0  0  0  0  0  0  0  0  0  0
    9.4651   -0.2500    0.0000 N   0  0  0  0  0  0  0  0  0  0  0  0
   14.6613   -0.2500    0.0000 N   0  0  0  0  0  0  0  0  0  0  0  0
    6.8671    0.2500    0.0000 N   0  0  0  0  0  0  0  0  0  0  0  0
   17.2594    0.2500    0.0000 N   0  0  0  0  0  0  0  0  0  0  0  0
    5.1350    1.2500    0.0000 N   0  0  0  0  0  0  0  0  0  0  0  0
   12.9292   -0.2500    0.0000 C   0  0  1  0  0  0  0  0  0  0  0  0
   10.3312    0.2500    0.0000 C   0  0  1  0  0  0  0  0  0  0  0  0
   12.9292   -1.2500    0.0000 C   0  0  0  0  0  0  0  0  0  0  0  0
   10.3312    1.2500    0.0000 C   0  0  0  0  0  0  0  0  0  0  0  0
    7.7331   -0.2500    0.0000 C   0  0  1  0  0  0  0  0  0  0  0  0
   15.5273    0.2500    0.0000 C   0  0  1  0  0  0  0  0  0  0  0  0
   11.1972   -0.2500    0.0000 C   0  0  0  0  0  0  0  0  0  0  0  0
   13.7953    0.2500    0.0000 C   0  0  0  0  0  0  0  0  0  0  0  0
    7.7331   -1.2500    0.0000 C   0  0  0  0  0  0  0  0  0  0  0  0
   15.5273    1.2500    0.0000 C   0  0  0  0  0  0  0  0  0  0  0  0
    8.5991    0.2500    0.0000 C   0  0  0  0  0  0  0  0  0  0  0  0
   12.0632   -1.7500    0.0000 C   0  0  0  0  0  0  0  0  0  0  0  0
    9.4651    1.7500    0.0000 C   0  0  0  0  0  0  0  0  0  0  0  0
   16.3933   -0.2500    0.0000 C   0  0  0  0  0  0  0  0  0  0  0  0
    6.8671   -1.7500    0.0000 C   0  0  0  0  0  0  0  0  0  0  0  0
   16.3933    1.7500    0.0000 C   0  0  0  0  0  0  0  0  0  0  0  0
    6.0010   -0.2500    0.0000 C   0  0  0  0  0  0  0  0  0  0  0  0
    5.1350    0.2500    0.0000 C   0  0  2  0  0  0  0  0  0  0  0  0
   18.1254   -0.2500    0.0000 C   0  0  2  0  0  0  0  0  0  0  0  0
   12.0632   -2.7500    0.0000 C   0  0  0  0  0  0  0  0  0  0  0  0
    4.2690   -0.2500    0.0000 C   0  0  0  0  0  0  0  0  0  0  0  0
    6.8671   -2.7500    0.0000 C   0  0  0  0  0  0  0  0  0  0  0  0
   16.3933    2.7500    0.0000 C   0  0  0  0  0  0  0  0  0  0  0  0
   18.1254   -1.2500    0.0000 C   0  0  0  0  0  0  0  0  0  0  0  0
   18.9914    0.2500    0.0000 C   0  0  0  0  0  0  0  0  0  0  0  0
    8.5991    3.2500    0.0000 C   0  0  0  0  0  0  0  0  0  0  0  0
    3.4030    0.2500    0.0000 C   0  0  0  0  0  0  0  0  0  0  0  0
   12.3923   -0.5600    0.0000 H   0  0  0  0  0  0  0  0  0  0  0  0
    9.7942    0.5600    0.0000 H   0  0  0  0  0  0  0  0  0  0  0  0
   13.1413   -1.8326    0.0000 H   0  0  0  0  0  0  0  0  0  0  0  0
   13.5398   -1.1423    0.0000 H   0  0  0  0  0  0  0  0  0  0  0  0
   10.9417    1.1423    0.0000 H   0  0  0  0  0  0  0  0  0  0  0  0
   10.5432    1.8326    0.0000 H   0  0  0  0  0  0  0  0  0  0  0  0
    7.7331    0.3700    0.0000 H   0  0  0  0  0  0  0  0  0  0  0  0
   15.5273   -0.3700    0.0000 H   0  0  0  0  0  0  0  0  0  0  0  0
   12.0632    0.8700    0.0000 H   0  0  0  0  0  0  0  0  0  0  0  0
    9.4651   -0.8700    0.0000 H   0  0  0  0  0  0  0  0  0  0  0  0
    7.9451   -1.8326    0.0000 H   0  0  0  0  0  0  0  0  0  0  0  0
    8.3437   -1.1423    0.0000 H   0  0  0  0  0  0  0  0  0  0  0  0
   14.6613   -0.8700    0.0000 H   0  0  0  0  0  0  0  0  0  0  0  0
   15.3153    1.8326    0.0000 H   0  0  0  0  0  0  0  0  0  0  0  0
   14.9167    1.1423    0.0000 H   0  0  0  0  0  0  0  0  0  0  0  0
   11.8512   -1.1674    0.0000 H   0  0  0  0  0  0  0  0  0  0  0  0
   11.4526   -1.8577    0.0000 H   0  0  0  0  0  0  0  0  0  0  0  0
    8.8546    1.8577    0.0000 H   0  0  0  0  0  0  0  0  0  0  0  0
    9.2531    1.1674    0.0000 H   0  0  0  0  0  0  0  0  0  0  0  0
    6.8671    0.8700    0.0000 H   0  0  0  0  0  0  0  0  0  0  0  0
    6.6550   -1.1674    0.0000 H   0  0  0  0  0  0  0  0  0  0  0  0
    6.2565   -1.8577    0.0000 H   0  0  0  0  0  0  0  0  0  0  0  0
   16.6054    1.1674    0.0000 H   0  0  0  0  0  0  0  0  0  0  0  0
   17.0039    1.8577    0.0000 H   0  0  0  0  0  0  0  0  0  0  0  0
   17.2594    0.8700    0.0000 H   0  0  0  0  0  0  0  0  0  0  0  0
    5.6720    0.5600    0.0000 H   0  0  0  0  0  0  0  0  0  0  0  0
   18.1254    0.3700    0.0000 H   0  0  0  0  0  0  0  0  0  0  0  0
    3.8705   -0.7249    0.0000 H   0  0  0  0  0  0  0  0  0  0  0  0
    4.6675   -0.7249    0.0000 H   0  0  0  0  0  0  0  0  0  0  0  0
   17.5148   -1.1423    0.0000 H   0  0  0  0  0  0  0  0  0  0  0  0
   17.9133   -1.8326    0.0000 H   0  0  0  0  0  0  0  0  0  0  0  0
    4.5981    1.5600    0.0000 H   0  0  0  0  0  0  0  0  0  0  0  0
    5.6720    1.5600    0.0000 H   0  0  0  0  0  0  0  0  0  0  0  0
    8.9091    3.7869    0.0000 H   0  0  0  0  0  0  0  0  0  0  0  0
    8.0622    3.5600    0.0000 H   0  0  0  0  0  0  0  0  0  0  0  0
    8.2891    2.7131    0.0000 H   0  0  0  0  0  0  0  0  0  0  0  0
   11.1972   -3.8700    0.0000 H   0  0  0  0  0  0  0  0  0  0  0  0
    6.0010   -3.8700    0.0000 H   0  0  0  0  0  0  0  0  0  0  0  0
   17.2594    3.8700    0.0000 H   0  0  0  0  0  0  0  0  0  0  0  0
   18.9914   -2.3700    0.0000 H   0  0  0  0  0  0  0  0  0  0  0  0
   20.3944    0.0600    0.0000 H   0  0  0  0  0  0  0  0  0  0  0  0
    2.0000    0.0600    0.0000 H   0  0  0  0  0  0  0  0  0  0  0  0
  1 36  1  0  0  0  0
  1 49  1  0  0  0  0
  2 47  1  0  0  0  0
  2 90  1  0  0  0  0
  3 30  2  0  0  0  0
  4 31  2  0  0  0  0
  5 34  2  0  0  0  0
  6 37  2  0  0  0  0
  7 40  2  0  0  0  0
  8 43  1  0  0  0  0
  8 87  1  0  0  0  0
  9 43  2  0  0  0  0
 10 45  1  0  0  0  0
 10 88  1  0  0  0  0
 11 46  1  0  0  0  0
 11 89  1  0  0  0  0
 12 45  2  0  0  0  0
 13 46  2  0  0  0  0
 14 48  1  0  0  0  0
 14 91  1  0  0  0  0
 15 48  2  0  0  0  0
 16 50  1  0  0  0  0
 16 92  1  0  0  0  0
 17 50  2  0  0  0  0
 24 18  1  6  0  0  0
 18 30  1  0  0  0  0
 18 59  1  0  0  0  0
 25 19  1  1  0  0  0
 19 34  1  0  0  0  0
 19 60  1  0  0  0  0
 29 20  1  1  0  0  0
 20 31  1  0  0  0  0
 20 63  1  0  0  0  0
 28 21  1  6  0  0  0
 21 40  1  0  0  0  0
 21 70  1  0  0  0  0
 22 37  1  0  0  0  0
 42 22  1  1  0  0  0
 22 75  1  0  0  0  0
 41 23  1  6  0  0  0
 23 82  1  0  0  0  0
 23 83  1  0  0  0  0
 24 26  1  0  0  0  0
 24 31  1  0  0  0  0
 24 51  1  0  0  0  0
 25 27  1  0  0  0  0
 25 30  1  0  0  0  0
 25 52  1  0  0  0  0
 26 35  1  0  0  0  0
 26 53  1  0  0  0  0
 26 54  1  0  0  0  0
 27 36  1  0  0  0  0
 27 55  1  0  0  0  0
 27 56  1  0  0  0  0
 28 32  1  0  0  0  0
 28 34  1  0  0  0  0
 28 57  1  0  0  0  0
 29 33  1  0  0  0  0
 29 37  1  0  0  0  0
 29 58  1  0  0  0  0
 32 38  1  0  0  0  0
 32 61  1  0  0  0  0
 32 62  1  0  0  0  0
 33 39  1  0  0  0  0
 33 64  1  0  0  0  0
 33 65  1  0  0  0  0
 35 43  1  0  0  0  0
 35 66  1  0  0  0  0
 35 67  1  0  0  0  0
 36 68  1  0  0  0  0
 36 69  1  0  0  0  0
 38 45  1  0  0  0  0
 38 71  1  0  0  0  0
 38 72  1  0  0  0  0
 39 46  1  0  0  0  0
 39 73  1  0  0  0  0
 39 74  1  0  0  0  0
 40 41  1  0  0  0  0
 41 44  1  0  0  0  0
 41 76  1  0  0  0  0
 42 47  1  0  0  0  0
 42 48  1  0  0  0  0
 42 77  1  0  0  0  0
 44 50  1  0  0  0  0
 44 78  1  0  0  0  0
 44 79  1  0  0  0  0
 47 80  1  0  0  0  0
 47 81  1  0  0  0  0
 49 84  1  0  0  0  0
 49 85  1  0  0  0  0
 49 86  1  0  0  0  0
M  END
> <PUBCHEM_COMPOUND_CID>
512485
> <PUBCHEM_COMPOUND_CANONICALIZED>
1
> <PUBCHEM_CACTVS_COMPLEXITY>
1270
> <PUBCHEM_CACTVS_HBOND_ACCEPTOR>
18
> <PUBCHEM_CACTVS_HBOND_DONOR>
12
> <PUBCHEM_CACTVS_ROTATABLE_BOND>
26
> <PUBCHEM_CACTVS_SUBSKEYS>
AAADcfB7vABgAAAAAAAAAAAAAAAAAAAAAAAAAAAAAAAAAAAAAAAAHgQQCAAACCjFwASCCALAAgwIAAGQGAAAAAAAABAAAIGIAAACQBoggCAUQAAGFgCQAAC/FwIAAAAAAAAAAAAAAAAAAAAAAAAAAAAAAA==
> <PUBCHEM_IUPAC_OPENEYE_NAME>
(4S)-4-[[(2S)-2-[[(2S)-2-[[(2S)-2-amino-3-carboxy-propanoyl]amino]-4-carboxy-butanoyl]amino]-4-methylsulfanyl-butanoyl]amino]-5-[[(1S)-3-carboxy-1-[[(1S)-1-carboxy-2-sulfanyl-ethyl]carbamoyl]propyl]amino]-5-oxo-pentanoic acid
> <PUBCHEM_IUPAC_CAS_NAME>
(4S)-4-[[(2S)-2-[[(2S)-2-[[(2S)-2-amino-3-carboxy-1-oxopropyl]amino]-4-carboxy-1-oxobutyl]amino]-4-(methylthio)-1-oxobutyl]amino]-5-[[(2S)-4-carboxy-1-[[(1S)-1-carboxy-2-mercaptoethyl]amino]-1-oxobutan-2-yl]amino]-5-oxopentanoic acid
> <PUBCHEM_IUPAC_NAME_MARKUP>
(4<I>S</I>)-4-[[(2<I>S</I>)-2-[[(2<I>S</I>)-2-[[(2<I>S</I>)-2-amino-3-carboxypropanoyl]amino]-4-carboxybutanoyl]amino]-4-methylsulfanylbutanoyl]amino]-5-[[(2<I>S</I>)-4-carboxy-1-[[(1<I>S</I>)-1-carboxy-2-sulfanylethyl]amino]-1-oxobutan-2-yl]amino]-5-oxopentanoic acid
> <PUBCHEM_IUPAC_NAME>
(4S)-4-[[(2S)-2-[[(2S)-2-[[(2S)-2-amino-3-carboxypropanoyl]amino]-4-carboxybutanoyl]amino]-4-methylsulfanylbutanoyl]amino]-5-[[(2S)-4-carboxy-1-[[(1S)-1-carboxy-2-sulfanylethyl]amino]-1-oxobutan-2-yl]amino]-5-oxopentanoic acid
> <PUBCHEM_IUPAC_SYSTEMATIC_NAME>
(4S)-4-[[(2S)-2-[[(2S)-2-[[(2S)-2-azanyl-4-oxidanyl-4-oxidanylidene-butanoyl]amino]-5-oxidanyl-5-oxidanylidene-pentanoyl]amino]-4-methylsulfanyl-butanoyl]amino]-5-[[(2S)-5-oxidanyl-1,5-bis(oxidanylidene)-1-[[(2S)-1-oxidanyl-1-oxidanylidene-3-sulfanyl-propan-2-yl]amino]pentan-2-yl]amino]-5-oxidanylidene-pentanoic acid
> <PUBCHEM_IUPAC_TRADITIONAL_NAME>
(4S)-4-[[(2S)-2-[[(2S)-2-[[(2S)-2-amino-3-carboxy-propanoyl]amino]-4-carboxy-butanoyl]amino]-4-(methylthio)butanoyl]amino]-5-[[(1S)-3-carboxy-1-[[(1S)-1-carboxy-2-mercapto-ethyl]carbamoyl]propyl]amino]-5-keto-valeric acid
> <PUBCHEM_IUPAC_INCHI>
InChI=1S/C27H42N6O15S2/c1-50-9-8-16(32-23(43)13(2-5-18(34)35)29-22(42)12(28)10-21(40)41)26(46)31-14(3-6-19(36)37)24(44)30-15(4-7-20(38)39)25(45)33-17(11-49)27(47)48/h12-17,49H,2-11,28H2,1H3,(H,29,42)(H,30,44)(H,31,46)(H,32,43)(H,33,45)(H,34,35)(H,36,37)(H,38,39)(H,40,41)(H,47,48)/t12-,13-,14-,15-,16-,17+/m0/s1
> <PUBCHEM_IUPAC_INCHIKEY>
KCDXKNRMZVQTFT-KBCNZALWSA-N
> <PUBCHEM_XLOGP3_AA>
-6.1
> <PUBCHEM_EXACT_MASS>
754.21495700
> <PUBCHEM_MOLECULAR_FORMULA>
C27H42N6O15S2
> <PUBCHEM_MOLECULAR_WEIGHT>
754.8
> <PUBCHEM_OPENEYE_CAN_SMILES>
CSCCC(C(=O)NC(CCC(=O)O)C(=O)NC(CCC(=O)O)C(=O)NC(CS)C(=O)O)NC(=O)C(CCC(=O)O)NC(=O)C(CC(=O)O)N
> <PUBCHEM_OPENEYE_ISO_SMILES>
CSCC[C@@H](C(=O)N[C@@H](CCC(=O)O)C(=O)N[C@@H](CCC(=O)O)C(=O)N[C@H](CS)C(=O)O)NC(=O)[C@H](CCC(=O)O)NC(=O)[C@H](CC(=O)O)N
> <PUBCHEM_CACTVS_TPSA>
384
> <PUBCHEM_MONOISOTOPIC_WEIGHT>
754.21495700
> <PUBCHEM_TOTAL_CHARGE>
0
> <PUBCHEM_HEAVY_ATOM_COUNT>
50
> <PUBCHEM_ATOM_DEF_STEREO_COUNT>
6
> <PUBCHEM_ATOM_UDEF_STEREO_COUNT>
0
> <PUBCHEM_BOND_DEF_STEREO_COUNT>
0
> <PUBCHEM_BOND_UDEF_STEREO_COUNT>
0
> <PUBCHEM_ISOTOPIC_ATOM_COUNT>
0
> <PUBCHEM_COMPONENT_COUNT>
1
> <PUBCHEM_CACTVS_TAUTO_COUNT>
-1
> <PUBCHEM_COORDINATE_TYPE>
1
5
255
> <PUBCHEM_BONDANNOTATIONS>
24  18  6
25  19  5
29  20  5
28  21  6
42  22  5
41  23  6
$$$$
