512484
  -OEChem-10302200282D
 36 38  0     1  0  0  0  0  0999 V2000
    7.0356   -2.1474    0.0000 S   0  0  0  0  0  0  0  0  0  0  0  0
    5.8507    0.1762    0.0000 S   0  0  0  0  0  0  0  0  0  0  0  0
    2.9789   -2.6844    0.0000 O   0  0  0  0  0  0  0  0  0  0  0  0
    8.9488    0.9945    0.0000 O   0  0  0  0  0  0  0  0  0  0  0  0
    8.5691    2.6844    0.0000 O   0  0  0  0  0  0  0  0  0  0  0  0
    7.9731    0.7752    0.0000 N   0  0  0  0  0  0  0  0  0  0  0  0
    8.3780   -0.9480    0.0000 C   0  0  3  0  0  0  0  0  0  0  0  0
    8.0562   -1.9387    0.0000 C   0  0  0  0  0  0  0  0  0  0  0  0
    7.6751   -0.1793    0.0000 C   0  0  0  0  0  0  0  0  0  0  0  0
    6.6597   -0.4116    0.0000 C   0  0  0  0  0  0  0  0  0  0  0  0
    6.3507   -1.3626    0.0000 C   0  0  0  0  0  0  0  0  0  0  0  0
    5.3507   -1.3626    0.0000 C   0  0  0  0  0  0  0  0  0  0  0  0
    9.3554   -0.7363    0.0000 C   0  0  0  0  0  0  0  0  0  0  0  0
    5.0417   -0.4116    0.0000 C   0  0  0  0  0  0  0  0  0  0  0  0
    4.6657   -2.1474    0.0000 C   0  0  0  0  0  0  0  0  0  0  0  0
    4.0263   -0.1793    0.0000 C   0  0  0  0  0  0  0  0  0  0  0  0
    3.6452   -1.9387    0.0000 C   0  0  0  0  0  0  0  0  0  0  0  0
    3.3233   -0.9480    0.0000 C   0  0  0  0  0  0  0  0  0  0  0  0
    2.0000   -2.4802    0.0000 C   0  0  0  0  0  0  0  0  0  0  0  0
    9.2468    1.9490    0.0000 C   0  0  0  0  0  0  0  0  0  0  0  0
   10.2225    2.1682    0.0000 C   0  0  0  0  0  0  0  0  0  0  0  0
    8.7938   -1.4080    0.0000 H   0  0  0  0  0  0  0  0  0  0  0  0
    8.0746   -2.5584    0.0000 H   0  0  0  0  0  0  0  0  0  0  0  0
    8.6699   -2.0265    0.0000 H   0  0  0  0  0  0  0  0  0  0  0  0
    9.4866   -1.3423    0.0000 H   0  0  0  0  0  0  0  0  0  0  0  0
    9.9613   -0.6051    0.0000 H   0  0  0  0  0  0  0  0  0  0  0  0
    9.2241   -0.1304    0.0000 H   0  0  0  0  0  0  0  0  0  0  0  0
    4.8641   -2.7348    0.0000 H   0  0  0  0  0  0  0  0  0  0  0  0
    3.8415    0.4125    0.0000 H   0  0  0  0  0  0  0  0  0  0  0  0
    2.7174   -0.8168    0.0000 H   0  0  0  0  0  0  0  0  0  0  0  0
    2.1266   -1.8733    0.0000 H   0  0  0  0  0  0  0  0  0  0  0  0
    1.3931   -2.3537    0.0000 H   0  0  0  0  0  0  0  0  0  0  0  0
    1.8734   -3.0872    0.0000 H   0  0  0  0  0  0  0  0  0  0  0  0
   10.3584    1.5633    0.0000 H   0  0  0  0  0  0  0  0  0  0  0  0
   10.8274    2.3041    0.0000 H   0  0  0  0  0  0  0  0  0  0  0  0
   10.0866    2.7731    0.0000 H   0  0  0  0  0  0  0  0  0  0  0  0
  1  8  1  0  0  0  0
  1 11  1  0  0  0  0
  2 10  1  0  0  0  0
  2 14  1  0  0  0  0
  3 17  1  0  0  0  0
  3 19  1  0  0  0  0
  4  6  1  0  0  0  0
  4 20  1  0  0  0  0
  5 20  2  0  0  0  0
  6  9  2  3  0  0  0
  7  8  1  0  0  0  0
  7  9  1  0  0  0  0
  7 13  1  0  0  0  0
  7 22  1  0  0  0  0
  8 23  1  0  0  0  0
  8 24  1  0  0  0  0
  9 10  1  0  0  0  0
 10 11  2  0  0  0  0
 11 12  1  0  0  0  0
 12 14  2  0  0  0  0
 12 15  1  0  0  0  0
 13 25  1  0  0  0  0
 13 26  1  0  0  0  0
 13 27  1  0  0  0  0
 14 16  1  0  0  0  0
 15 17  2  0  0  0  0
 15 28  1  0  0  0  0
 16 18  2  0  0  0  0
 16 29  1  0  0  0  0
 17 18  1  0  0  0  0
 18 30  1  0  0  0  0
 19 31  1  0  0  0  0
 19 32  1  0  0  0  0
 19 33  1  0  0  0  0
 20 21  1  0  0  0  0
 21 34  1  0  0  0  0
 21 35  1  0  0  0  0
 21 36  1  0  0  0  0
M  END
> <PUBCHEM_COMPOUND_CID>
512484
> <PUBCHEM_COMPOUND_CANONICALIZED>
1
> <PUBCHEM_CACTVS_COMPLEXITY>
443
> <PUBCHEM_CACTVS_HBOND_ACCEPTOR>
6
> <PUBCHEM_CACTVS_HBOND_DONOR>
0
> <PUBCHEM_CACTVS_ROTATABLE_BOND>
3
> <PUBCHEM_CACTVS_SUBSKEYS>
AAADccByMABgAAAAAAAAAAAAAAAAASAAAAA0QAAAAAAAAEgB8AAAHgQEAAAADQyF2AKyD8AQBAisAyDyCAADCIAgKBBIiBg2CJgMJiKkMRqAMCAkwBEoqAeAwPAOAIABAAAEAAABAAIAAAgAAAAAAAAAAA==
> <PUBCHEM_IUPAC_OPENEYE_NAME>
[(8-methoxy-3-methyl-2,3-dihydrothiopyrano[3,2-b]benzothiophen-4-ylidene)amino] acetate
> <PUBCHEM_IUPAC_CAS_NAME>
acetic acid [(8-methoxy-3-methyl-2,3-dihydrothiopyrano[3,2-b][1]benzothiol-4-ylidene)amino] ester
> <PUBCHEM_IUPAC_NAME_MARKUP>
[(8-methoxy-3-methyl-2,3-dihydrothiopyrano[3,2-b][1]benzothiol-4-ylidene)amino] acetate
> <PUBCHEM_IUPAC_NAME>
[(8-methoxy-3-methyl-2,3-dihydrothiopyrano[3,2-b][1]benzothiol-4-ylidene)amino] acetate
> <PUBCHEM_IUPAC_SYSTEMATIC_NAME>
[(8-methoxy-3-methyl-2,3-dihydrothiopyrano[3,2-b][1]benzothiol-4-ylidene)amino] ethanoate
> <PUBCHEM_IUPAC_TRADITIONAL_NAME>
acetic acid [(8-methoxy-3-methyl-2,3-dihydrothiopyrano[3,2-b]benzothiophen-4-ylidene)amino] ester
> <PUBCHEM_IUPAC_INCHI>
InChI=1S/C15H15NO3S2/c1-8-7-20-14-11-6-10(18-3)4-5-12(11)21-15(14)13(8)16-19-9(2)17/h4-6,8H,7H2,1-3H3
> <PUBCHEM_IUPAC_INCHIKEY>
WAOPGUUXLWKCCY-UHFFFAOYSA-N
> <PUBCHEM_XLOGP3_AA>
4.2
> <PUBCHEM_EXACT_MASS>
321.04933569
> <PUBCHEM_MOLECULAR_FORMULA>
C15H15NO3S2
> <PUBCHEM_MOLECULAR_WEIGHT>
321.4
> <PUBCHEM_OPENEYE_CAN_SMILES>
CC1CSC2=C(C1=NOC(=O)C)SC3=C2C=C(C=C3)OC
> <PUBCHEM_OPENEYE_ISO_SMILES>
CC1CSC2=C(C1=NOC(=O)C)SC3=C2C=C(C=C3)OC
> <PUBCHEM_CACTVS_TPSA>
101
> <PUBCHEM_MONOISOTOPIC_WEIGHT>
321.04933569
> <PUBCHEM_TOTAL_CHARGE>
0
> <PUBCHEM_HEAVY_ATOM_COUNT>
21
> <PUBCHEM_ATOM_DEF_STEREO_COUNT>
0
> <PUBCHEM_ATOM_UDEF_STEREO_COUNT>
1
> <PUBCHEM_BOND_DEF_STEREO_COUNT>
0
> <PUBCHEM_BOND_UDEF_STEREO_COUNT>
1
> <PUBCHEM_ISOTOPIC_ATOM_COUNT>
0
> <PUBCHEM_COMPONENT_COUNT>
1
> <PUBCHEM_CACTVS_TAUTO_COUNT>
-1
> <PUBCHEM_COORDINATE_TYPE>
1
5
255
> <PUBCHEM_BONDANNOTATIONS>
10  11  8
11  12  8
12  14  8
12  15  8
14  16  8
15  17  8
16  18  8
17  18  8
2  10  8
2  14  8
6  9  1
7  13  3
$$$$
