512494
  -OEChem-10302200282D
 95 94  0     1  0  0  0  0  0999 V2000
    9.4651   -2.7500    0.0000 S   0  0  0  0  0  0  0  0  0  0  0  0
   11.1972    1.2500    0.0000 O   0  0  0  0  0  0  0  0  0  0  0  0
   13.7953   -1.2500    0.0000 O   0  0  0  0  0  0  0  0  0  0  0  0
    8.5991   -1.2500    0.0000 O   0  0  0  0  0  0  0  0  0  0  0  0
   16.3933    1.2500    0.0000 O   0  0  0  0  0  0  0  0  0  0  0  0
   11.1972    3.2500    0.0000 O   0  0  0  0  0  0  0  0  0  0  0  0
    6.0010    1.2500    0.0000 O   0  0  0  0  0  0  0  0  0  0  0  0
   12.9292    3.2500    0.0000 O   0  0  0  0  0  0  0  0  0  0  0  0
   13.7953   -3.2500    0.0000 O   0  0  0  0  0  0  0  0  0  0  0  0
    6.0010    3.2500    0.0000 O   0  0  0  0  0  0  0  0  0  0  0  0
   15.5273   -3.2500    0.0000 O   0  0  0  0  0  0  0  0  0  0  0  0
    7.7331    3.2500    0.0000 O   0  0  0  0  0  0  0  0  0  0  0  0
   19.8574    0.2500    0.0000 O   0  0  0  0  0  0  0  0  0  0  0  0
   18.9914   -1.2500    0.0000 O   0  0  0  0  0  0  0  0  0  0  0  0
    2.5369    0.2500    0.0000 O   0  0  0  0  0  0  0  0  0  0  0  0
    3.4030   -1.2500    0.0000 O   0  0  0  0  0  0  0  0  0  0  0  0
   12.0632   -0.2500    0.0000 N   0  0  0  0  0  0  0  0  0  0  0  0
    9.4651    0.2500    0.0000 N   0  0  0  0  0  0  0  0  0  0  0  0
   14.6613    0.2500    0.0000 N   0  0  0  0  0  0  0  0  0  0  0  0
    6.8671   -0.2500    0.0000 N   0  0  0  0  0  0  0  0  0  0  0  0
   17.2594   -0.2500    0.0000 N   0  0  0  0  0  0  0  0  0  0  0  0
    5.1350   -1.2500    0.0000 N   0  0  0  0  0  0  0  0  0  0  0  0
   12.9292    0.2500    0.0000 C   0  0  1  0  0  0  0  0  0  0  0  0
   10.3312   -0.2500    0.0000 C   0  0  1  0  0  0  0  0  0  0  0  0
   15.5273   -0.2500    0.0000 C   0  0  1  0  0  0  0  0  0  0  0  0
   12.9292    1.2500    0.0000 C   0  0  0  0  0  0  0  0  0  0  0  0
   10.3312   -1.2500    0.0000 C   0  0  0  0  0  0  0  0  0  0  0  0
    7.7331    0.2500    0.0000 C   0  0  1  0  0  0  0  0  0  0  0  0
   11.1972    0.2500    0.0000 C   0  0  0  0  0  0  0  0  0  0  0  0
   13.7953   -0.2500    0.0000 C   0  0  0  0  0  0  0  0  0  0  0  0
   15.5273   -1.2500    0.0000 C   0  0  0  0  0  0  0  0  0  0  0  0
    7.7331    1.2500    0.0000 C   0  0  0  0  0  0  0  0  0  0  0  0
    8.5991   -0.2500    0.0000 C   0  0  0  0  0  0  0  0  0  0  0  0
   12.0632    1.7500    0.0000 C   0  0  0  0  0  0  0  0  0  0  0  0
   16.3933    0.2500    0.0000 C   0  0  0  0  0  0  0  0  0  0  0  0
    9.4651   -1.7500    0.0000 C   0  0  0  0  0  0  0  0  0  0  0  0
   14.6613   -1.7500    0.0000 C   0  0  0  0  0  0  0  0  0  0  0  0
    6.8671    1.7500    0.0000 C   0  0  0  0  0  0  0  0  0  0  0  0
    6.0010    0.2500    0.0000 C   0  0  0  0  0  0  0  0  0  0  0  0
    5.1350   -0.2500    0.0000 C   0  0  2  0  0  0  0  0  0  0  0  0
   17.2594   -1.2500    0.0000 C   0  0  0  0  0  0  0  0  0  0  0  0
   18.1254    0.2500    0.0000 C   0  0  0  0  0  0  0  0  0  0  0  0
   12.0632    2.7500    0.0000 C   0  0  0  0  0  0  0  0  0  0  0  0
   14.6613   -2.7500    0.0000 C   0  0  0  0  0  0  0  0  0  0  0  0
    4.2690    0.2500    0.0000 C   0  0  0  0  0  0  0  0  0  0  0  0
    6.8671    2.7500    0.0000 C   0  0  0  0  0  0  0  0  0  0  0  0
   18.1254   -1.7500    0.0000 C   0  0  0  0  0  0  0  0  0  0  0  0
   18.9914   -0.2500    0.0000 C   0  0  0  0  0  0  0  0  0  0  0  0
    8.5991   -3.2500    0.0000 C   0  0  0  0  0  0  0  0  0  0  0  0
    3.4030   -0.2500    0.0000 C   0  0  0  0  0  0  0  0  0  0  0  0
   18.1254   -2.7500    0.0000 C   0  0  0  0  0  0  0  0  0  0  0  0
   12.3923    0.5600    0.0000 H   0  0  0  0  0  0  0  0  0  0  0  0
    9.7942   -0.5600    0.0000 H   0  0  0  0  0  0  0  0  0  0  0  0
   15.5273    0.3700    0.0000 H   0  0  0  0  0  0  0  0  0  0  0  0
   13.5398    1.1423    0.0000 H   0  0  0  0  0  0  0  0  0  0  0  0
   13.1413    1.8326    0.0000 H   0  0  0  0  0  0  0  0  0  0  0  0
   10.5432   -1.8326    0.0000 H   0  0  0  0  0  0  0  0  0  0  0  0
   10.9417   -1.1423    0.0000 H   0  0  0  0  0  0  0  0  0  0  0  0
    7.7331   -0.3700    0.0000 H   0  0  0  0  0  0  0  0  0  0  0  0
   12.0632   -0.8700    0.0000 H   0  0  0  0  0  0  0  0  0  0  0  0
   15.7394   -1.8326    0.0000 H   0  0  0  0  0  0  0  0  0  0  0  0
   16.1379   -1.1423    0.0000 H   0  0  0  0  0  0  0  0  0  0  0  0
    9.4651    0.8700    0.0000 H   0  0  0  0  0  0  0  0  0  0  0  0
   14.6613    0.8700    0.0000 H   0  0  0  0  0  0  0  0  0  0  0  0
    8.3437    1.1423    0.0000 H   0  0  0  0  0  0  0  0  0  0  0  0
    7.9451    1.8326    0.0000 H   0  0  0  0  0  0  0  0  0  0  0  0
   11.4526    1.8577    0.0000 H   0  0  0  0  0  0  0  0  0  0  0  0
   11.8512    1.1674    0.0000 H   0  0  0  0  0  0  0  0  0  0  0  0
    9.2531   -1.1674    0.0000 H   0  0  0  0  0  0  0  0  0  0  0  0
    8.8546   -1.8577    0.0000 H   0  0  0  0  0  0  0  0  0  0  0  0
   14.4492   -1.1674    0.0000 H   0  0  0  0  0  0  0  0  0  0  0  0
   14.0507   -1.8577    0.0000 H   0  0  0  0  0  0  0  0  0  0  0  0
    6.8671   -0.8700    0.0000 H   0  0  0  0  0  0  0  0  0  0  0  0
    6.2565    1.8577    0.0000 H   0  0  0  0  0  0  0  0  0  0  0  0
    6.6550    1.1674    0.0000 H   0  0  0  0  0  0  0  0  0  0  0  0
    5.6720   -0.5600    0.0000 H   0  0  0  0  0  0  0  0  0  0  0  0
   16.6488   -1.1423    0.0000 H   0  0  0  0  0  0  0  0  0  0  0  0
   17.0473   -1.8326    0.0000 H   0  0  0  0  0  0  0  0  0  0  0  0
   18.5239    0.7249    0.0000 H   0  0  0  0  0  0  0  0  0  0  0  0
   17.7269    0.7249    0.0000 H   0  0  0  0  0  0  0  0  0  0  0  0
    4.6675    0.7249    0.0000 H   0  0  0  0  0  0  0  0  0  0  0  0
    3.8705    0.7249    0.0000 H   0  0  0  0  0  0  0  0  0  0  0  0
   18.6623   -1.4400    0.0000 H   0  0  0  0  0  0  0  0  0  0  0  0
    4.5981   -1.5600    0.0000 H   0  0  0  0  0  0  0  0  0  0  0  0
    5.6720   -1.5600    0.0000 H   0  0  0  0  0  0  0  0  0  0  0  0
    8.2891   -2.7131    0.0000 H   0  0  0  0  0  0  0  0  0  0  0  0
    8.0622   -3.5600    0.0000 H   0  0  0  0  0  0  0  0  0  0  0  0
    8.9091   -3.7869    0.0000 H   0  0  0  0  0  0  0  0  0  0  0  0
   11.1972    3.8700    0.0000 H   0  0  0  0  0  0  0  0  0  0  0  0
   13.7953   -3.8700    0.0000 H   0  0  0  0  0  0  0  0  0  0  0  0
    6.0010    3.8700    0.0000 H   0  0  0  0  0  0  0  0  0  0  0  0
   17.5885   -3.0600    0.0000 H   0  0  0  0  0  0  0  0  0  0  0  0
   18.6623   -3.0600    0.0000 H   0  0  0  0  0  0  0  0  0  0  0  0
   20.3944   -0.0600    0.0000 H   0  0  0  0  0  0  0  0  0  0  0  0
    2.0000   -0.0600    0.0000 H   0  0  0  0  0  0  0  0  0  0  0  0
  1 36  1  0  0  0  0
  1 49  1  0  0  0  0
  2 29  2  0  0  0  0
  3 30  2  0  0  0  0
  4 33  2  0  0  0  0
  5 35  2  0  0  0  0
  6 43  1  0  0  0  0
  6 89  1  0  0  0  0
  7 39  2  0  0  0  0
  8 43  2  0  0  0  0
  9 44  1  0  0  0  0
  9 90  1  0  0  0  0
 10 46  1  0  0  0  0
 10 91  1  0  0  0  0
 11 44  2  0  0  0  0
 12 46  2  0  0  0  0
 13 48  1  0  0  0  0
 13 94  1  0  0  0  0
 14 48  2  0  0  0  0
 15 50  1  0  0  0  0
 15 95  1  0  0  0  0
 16 50  2  0  0  0  0
 23 17  1  1  0  0  0
 17 29  1  0  0  0  0
 17 60  1  0  0  0  0
 24 18  1  6  0  0  0
 18 33  1  0  0  0  0
 18 63  1  0  0  0  0
 25 19  1  6  0  0  0
 19 30  1  0  0  0  0
 19 64  1  0  0  0  0
 28 20  1  1  0  0  0
 20 39  1  0  0  0  0
 20 73  1  0  0  0  0
 21 35  1  0  0  0  0
 21 41  1  0  0  0  0
 21 42  1  0  0  0  0
 40 22  1  1  0  0  0
 22 84  1  0  0  0  0
 22 85  1  0  0  0  0
 23 26  1  0  0  0  0
 23 30  1  0  0  0  0
 23 52  1  0  0  0  0
 24 27  1  0  0  0  0
 24 29  1  0  0  0  0
 24 53  1  0  0  0  0
 25 31  1  0  0  0  0
 25 35  1  0  0  0  0
 25 54  1  0  0  0  0
 26 34  1  0  0  0  0
 26 55  1  0  0  0  0
 26 56  1  0  0  0  0
 27 36  1  0  0  0  0
 27 57  1  0  0  0  0
 27 58  1  0  0  0  0
 28 32  1  0  0  0  0
 28 33  1  0  0  0  0
 28 59  1  0  0  0  0
 31 37  1  0  0  0  0
 31 61  1  0  0  0  0
 31 62  1  0  0  0  0
 32 38  1  0  0  0  0
 32 65  1  0  0  0  0
 32 66  1  0  0  0  0
 34 43  1  0  0  0  0
 34 67  1  0  0  0  0
 34 68  1  0  0  0  0
 36 69  1  0  0  0  0
 36 70  1  0  0  0  0
 37 44  1  0  0  0  0
 37 71  1  0  0  0  0
 37 72  1  0  0  0  0
 38 46  1  0  0  0  0
 38 74  1  0  0  0  0
 38 75  1  0  0  0  0
 39 40  1  0  0  0  0
 40 45  1  0  0  0  0
 40 76  1  0  0  0  0
 41 47  1  0  0  0  0
 41 77  1  0  0  0  0
 41 78  1  0  0  0  0
 42 48  1  0  0  0  0
 42 79  1  0  0  0  0
 42 80  1  0  0  0  0
 45 50  1  0  0  0  0
 45 81  1  0  0  0  0
 45 82  1  0  0  0  0
 47 51  2  0  0  0  0
 47 83  1  0  0  0  0
 49 86  1  0  0  0  0
 49 87  1  0  0  0  0
 49 88  1  0  0  0  0
 51 92  1  0  0  0  0
 51 93  1  0  0  0  0
M  END
> <PUBCHEM_COMPOUND_CID>
512494
> <PUBCHEM_COMPOUND_CANONICALIZED>
1
> <PUBCHEM_CACTVS_COMPLEXITY>
1310
> <PUBCHEM_CACTVS_HBOND_ACCEPTOR>
17
> <PUBCHEM_CACTVS_HBOND_DONOR>
10
> <PUBCHEM_CACTVS_ROTATABLE_BOND>
27
> <PUBCHEM_CACTVS_SUBSKEYS>
AAADcfB7vABAAAAAAAAAAAAAAAAAAAAAAAAAAAAAAAAAAAAAAAAAHgQQCAAACCjFwASCCAPAAgiIACHSGACAAAAAABAIAIGIAAACQBoggSAUQAAGFgCQAAC/FwIAAAAAAAAAAAAAAAAAAAAAAAAAAAAAAA==
> <PUBCHEM_IUPAC_OPENEYE_NAME>
(4S)-5-[[(1S)-1-[allyl(carboxymethyl)carbamoyl]-3-carboxy-propyl]amino]-4-[[(2S)-2-[[(2S)-2-[[(2S)-2-amino-3-carboxy-propanoyl]amino]-4-carboxy-butanoyl]amino]-4-methylsulfanyl-butanoyl]amino]-5-oxo-pentanoic acid
> <PUBCHEM_IUPAC_CAS_NAME>
(4S)-4-[[(2S)-2-[[(2S)-2-[[(2S)-2-amino-3-carboxy-1-oxopropyl]amino]-4-carboxy-1-oxobutyl]amino]-4-(methylthio)-1-oxobutyl]amino]-5-[[(2S)-4-carboxy-1-[carboxymethyl(prop-2-enyl)amino]-1-oxobutan-2-yl]amino]-5-oxopentanoic acid
> <PUBCHEM_IUPAC_NAME_MARKUP>
(4<I>S</I>)-4-[[(2<I>S</I>)-2-[[(2<I>S</I>)-2-[[(2<I>S</I>)-2-amino-3-carboxypropanoyl]amino]-4-carboxybutanoyl]amino]-4-methylsulfanylbutanoyl]amino]-5-[[(2<I>S</I>)-4-carboxy-1-[carboxymethyl(prop-2-enyl)amino]-1-oxobutan-2-yl]amino]-5-oxopentanoic acid
> <PUBCHEM_IUPAC_NAME>
(4S)-4-[[(2S)-2-[[(2S)-2-[[(2S)-2-amino-3-carboxypropanoyl]amino]-4-carboxybutanoyl]amino]-4-methylsulfanylbutanoyl]amino]-5-[[(2S)-4-carboxy-1-[carboxymethyl(prop-2-enyl)amino]-1-oxobutan-2-yl]amino]-5-oxopentanoic acid
> <PUBCHEM_IUPAC_SYSTEMATIC_NAME>
(4S)-4-[[(2S)-2-[[(2S)-2-[[(2S)-2-azanyl-4-oxidanyl-4-oxidanylidene-butanoyl]amino]-5-oxidanyl-5-oxidanylidene-pentanoyl]amino]-4-methylsulfanyl-butanoyl]amino]-5-[[(2S)-1-[2-hydroxy-2-oxoethyl(prop-2-enyl)amino]-5-oxidanyl-1,5-bis(oxidanylidene)pentan-2-yl]amino]-5-oxidanylidene-pentanoic acid
> <PUBCHEM_IUPAC_TRADITIONAL_NAME>
(4S)-5-[[(1S)-1-[allyl(carboxymethyl)carbamoyl]-3-carboxy-propyl]amino]-4-[[(2S)-2-[[(2S)-2-[[(2S)-2-amino-3-carboxy-propanoyl]amino]-4-carboxy-butanoyl]amino]-4-(methylthio)butanoyl]amino]-5-keto-valeric acid
> <PUBCHEM_IUPAC_INCHI>
InChI=1S/C29H44N6O15S/c1-3-11-35(14-24(44)45)29(50)19(6-9-22(40)41)34-27(48)17(5-8-21(38)39)32-28(49)18(10-12-51-2)33-26(47)16(4-7-20(36)37)31-25(46)15(30)13-23(42)43/h3,15-19H,1,4-14,30H2,2H3,(H,31,46)(H,32,49)(H,33,47)(H,34,48)(H,36,37)(H,38,39)(H,40,41)(H,42,43)(H,44,45)/t15-,16-,17-,18-,19-/m0/s1
> <PUBCHEM_IUPAC_INCHIKEY>
VBWOHBHQWMWVGS-VMXHOPILSA-N
> <PUBCHEM_XLOGP3_AA>
-5.6
> <PUBCHEM_EXACT_MASS>
748.25853589
> <PUBCHEM_MOLECULAR_FORMULA>
C29H44N6O15S
> <PUBCHEM_MOLECULAR_WEIGHT>
748.8
> <PUBCHEM_OPENEYE_CAN_SMILES>
CSCCC(C(=O)NC(CCC(=O)O)C(=O)NC(CCC(=O)O)C(=O)N(CC=C)CC(=O)O)NC(=O)C(CCC(=O)O)NC(=O)C(CC(=O)O)N
> <PUBCHEM_OPENEYE_ISO_SMILES>
CSCC[C@@H](C(=O)N[C@@H](CCC(=O)O)C(=O)N[C@@H](CCC(=O)O)C(=O)N(CC=C)CC(=O)O)NC(=O)[C@H](CCC(=O)O)NC(=O)[C@H](CC(=O)O)N
> <PUBCHEM_CACTVS_TPSA>
375
> <PUBCHEM_MONOISOTOPIC_WEIGHT>
748.25853589
> <PUBCHEM_TOTAL_CHARGE>
0
> <PUBCHEM_HEAVY_ATOM_COUNT>
51
> <PUBCHEM_ATOM_DEF_STEREO_COUNT>
5
> <PUBCHEM_ATOM_UDEF_STEREO_COUNT>
0
> <PUBCHEM_BOND_DEF_STEREO_COUNT>
0
> <PUBCHEM_BOND_UDEF_STEREO_COUNT>
0
> <PUBCHEM_ISOTOPIC_ATOM_COUNT>
0
> <PUBCHEM_COMPONENT_COUNT>
1
> <PUBCHEM_CACTVS_TAUTO_COUNT>
-1
> <PUBCHEM_COORDINATE_TYPE>
1
5
255
> <PUBCHEM_BONDANNOTATIONS>
23  17  5
24  18  6
25  19  6
28  20  5
40  22  5
$$$$
