512486
  -OEChem-10302200282D
 94 93  0     1  0  0  0  0  0999 V2000
    9.4651    2.7500    0.0000 S   0  0  0  0  0  0  0  0  0  0  0  0
   11.1972   -1.2500    0.0000 O   0  0  0  0  0  0  0  0  0  0  0  0
   13.7953    1.2500    0.0000 O   0  0  0  0  0  0  0  0  0  0  0  0
    8.5991    1.2500    0.0000 O   0  0  0  0  0  0  0  0  0  0  0  0
   16.3933   -1.2500    0.0000 O   0  0  0  0  0  0  0  0  0  0  0  0
    6.0010   -1.2500    0.0000 O   0  0  0  0  0  0  0  0  0  0  0  0
   11.1972   -3.2500    0.0000 O   0  0  0  0  0  0  0  0  0  0  0  0
   12.9292   -3.2500    0.0000 O   0  0  0  0  0  0  0  0  0  0  0  0
   17.2594    3.2500    0.0000 O   0  0  0  0  0  0  0  0  0  0  0  0
    6.0010   -3.2500    0.0000 O   0  0  0  0  0  0  0  0  0  0  0  0
   19.8574   -0.2500    0.0000 O   0  0  0  0  0  0  0  0  0  0  0  0
   15.5273    3.2500    0.0000 O   0  0  0  0  0  0  0  0  0  0  0  0
    7.7331   -3.2500    0.0000 O   0  0  0  0  0  0  0  0  0  0  0  0
   18.9914    1.2500    0.0000 O   0  0  0  0  0  0  0  0  0  0  0  0
    2.5369   -0.2500    0.0000 O   0  0  0  0  0  0  0  0  0  0  0  0
    3.4030    1.2500    0.0000 O   0  0  0  0  0  0  0  0  0  0  0  0
   12.0632    0.2500    0.0000 N   0  0  0  0  0  0  0  0  0  0  0  0
    9.4651   -0.2500    0.0000 N   0  0  0  0  0  0  0  0  0  0  0  0
   14.6613   -0.2500    0.0000 N   0  0  0  0  0  0  0  0  0  0  0  0
    6.8671    0.2500    0.0000 N   0  0  0  0  0  0  0  0  0  0  0  0
   17.2594    0.2500    0.0000 N   0  0  0  0  0  0  0  0  0  0  0  0
    5.1350    1.2500    0.0000 N   0  0  0  0  0  0  0  0  0  0  0  0
   12.9292   -0.2500    0.0000 C   0  0  1  0  0  0  0  0  0  0  0  0
   10.3312    0.2500    0.0000 C   0  0  1  0  0  0  0  0  0  0  0  0
   15.5273    0.2500    0.0000 C   0  0  1  0  0  0  0  0  0  0  0  0
   12.9292   -1.2500    0.0000 C   0  0  0  0  0  0  0  0  0  0  0  0
   10.3312    1.2500    0.0000 C   0  0  0  0  0  0  0  0  0  0  0  0
    7.7331   -0.2500    0.0000 C   0  0  1  0  0  0  0  0  0  0  0  0
   11.1972   -0.2500    0.0000 C   0  0  0  0  0  0  0  0  0  0  0  0
   13.7953    0.2500    0.0000 C   0  0  0  0  0  0  0  0  0  0  0  0
   15.5273    1.2500    0.0000 C   0  0  0  0  0  0  0  0  0  0  0  0
    7.7331   -1.2500    0.0000 C   0  0  0  0  0  0  0  0  0  0  0  0
    8.5991    0.2500    0.0000 C   0  0  0  0  0  0  0  0  0  0  0  0
   12.0632   -1.7500    0.0000 C   0  0  0  0  0  0  0  0  0  0  0  0
   16.3933   -0.2500    0.0000 C   0  0  0  0  0  0  0  0  0  0  0  0
    9.4651    1.7500    0.0000 C   0  0  0  0  0  0  0  0  0  0  0  0
   16.3933    1.7500    0.0000 C   0  0  0  0  0  0  0  0  0  0  0  0
    6.8671   -1.7500    0.0000 C   0  0  0  0  0  0  0  0  0  0  0  0
   18.1254   -0.2500    0.0000 C   0  0  1  0  0  0  0  0  0  0  0  0
    6.0010   -0.2500    0.0000 C   0  0  0  0  0  0  0  0  0  0  0  0
    5.1350    0.2500    0.0000 C   0  0  2  0  0  0  0  0  0  0  0  0
   18.1254   -1.2500    0.0000 C   0  0  0  0  0  0  0  0  0  0  0  0
   12.0632   -2.7500    0.0000 C   0  0  0  0  0  0  0  0  0  0  0  0
   16.3933    2.7500    0.0000 C   0  0  0  0  0  0  0  0  0  0  0  0
    4.2690   -0.2500    0.0000 C   0  0  0  0  0  0  0  0  0  0  0  0
    6.8671   -2.7500    0.0000 C   0  0  0  0  0  0  0  0  0  0  0  0
   18.9914    0.2500    0.0000 C   0  0  0  0  0  0  0  0  0  0  0  0
   18.9914   -1.7500    0.0000 C   0  0  0  0  0  0  0  0  0  0  0  0
    8.5991    3.2500    0.0000 C   0  0  0  0  0  0  0  0  0  0  0  0
    3.4030    0.2500    0.0000 C   0  0  0  0  0  0  0  0  0  0  0  0
   12.3923   -0.5600    0.0000 H   0  0  0  0  0  0  0  0  0  0  0  0
    9.7942    0.5600    0.0000 H   0  0  0  0  0  0  0  0  0  0  0  0
   15.5273   -0.3700    0.0000 H   0  0  0  0  0  0  0  0  0  0  0  0
   13.1413   -1.8326    0.0000 H   0  0  0  0  0  0  0  0  0  0  0  0
   13.5398   -1.1423    0.0000 H   0  0  0  0  0  0  0  0  0  0  0  0
   10.9417    1.1423    0.0000 H   0  0  0  0  0  0  0  0  0  0  0  0
   10.5432    1.8326    0.0000 H   0  0  0  0  0  0  0  0  0  0  0  0
    7.7331    0.3700    0.0000 H   0  0  0  0  0  0  0  0  0  0  0  0
   12.0632    0.8700    0.0000 H   0  0  0  0  0  0  0  0  0  0  0  0
    9.4651   -0.8700    0.0000 H   0  0  0  0  0  0  0  0  0  0  0  0
   15.3153    1.8326    0.0000 H   0  0  0  0  0  0  0  0  0  0  0  0
   14.9167    1.1423    0.0000 H   0  0  0  0  0  0  0  0  0  0  0  0
   14.6613   -0.8700    0.0000 H   0  0  0  0  0  0  0  0  0  0  0  0
    7.9451   -1.8326    0.0000 H   0  0  0  0  0  0  0  0  0  0  0  0
    8.3437   -1.1423    0.0000 H   0  0  0  0  0  0  0  0  0  0  0  0
   11.8512   -1.1674    0.0000 H   0  0  0  0  0  0  0  0  0  0  0  0
   11.4526   -1.8577    0.0000 H   0  0  0  0  0  0  0  0  0  0  0  0
    8.8546    1.8577    0.0000 H   0  0  0  0  0  0  0  0  0  0  0  0
    9.2531    1.1674    0.0000 H   0  0  0  0  0  0  0  0  0  0  0  0
    6.8671    0.8700    0.0000 H   0  0  0  0  0  0  0  0  0  0  0  0
   16.6054    1.1674    0.0000 H   0  0  0  0  0  0  0  0  0  0  0  0
   17.0039    1.8577    0.0000 H   0  0  0  0  0  0  0  0  0  0  0  0
    6.6550   -1.1674    0.0000 H   0  0  0  0  0  0  0  0  0  0  0  0
    6.2565   -1.8577    0.0000 H   0  0  0  0  0  0  0  0  0  0  0  0
   18.1254    0.3700    0.0000 H   0  0  0  0  0  0  0  0  0  0  0  0
   17.2594    0.8700    0.0000 H   0  0  0  0  0  0  0  0  0  0  0  0
    5.6720    0.5600    0.0000 H   0  0  0  0  0  0  0  0  0  0  0  0
   17.5148   -1.1423    0.0000 H   0  0  0  0  0  0  0  0  0  0  0  0
   17.9133   -1.8326    0.0000 H   0  0  0  0  0  0  0  0  0  0  0  0
    3.8705   -0.7249    0.0000 H   0  0  0  0  0  0  0  0  0  0  0  0
    4.6675   -0.7249    0.0000 H   0  0  0  0  0  0  0  0  0  0  0  0
   18.6814   -2.2869    0.0000 H   0  0  0  0  0  0  0  0  0  0  0  0
   19.5284   -2.0600    0.0000 H   0  0  0  0  0  0  0  0  0  0  0  0
   19.3014   -1.2131    0.0000 H   0  0  0  0  0  0  0  0  0  0  0  0
    4.5981    1.5600    0.0000 H   0  0  0  0  0  0  0  0  0  0  0  0
    5.6720    1.5600    0.0000 H   0  0  0  0  0  0  0  0  0  0  0  0
    8.9091    3.7869    0.0000 H   0  0  0  0  0  0  0  0  0  0  0  0
    8.0622    3.5600    0.0000 H   0  0  0  0  0  0  0  0  0  0  0  0
    8.2891    2.7131    0.0000 H   0  0  0  0  0  0  0  0  0  0  0  0
   11.1972   -3.8700    0.0000 H   0  0  0  0  0  0  0  0  0  0  0  0
   17.2594    3.8700    0.0000 H   0  0  0  0  0  0  0  0  0  0  0  0
    6.0010   -3.8700    0.0000 H   0  0  0  0  0  0  0  0  0  0  0  0
   20.3944    0.0600    0.0000 H   0  0  0  0  0  0  0  0  0  0  0  0
    2.0000    0.0600    0.0000 H   0  0  0  0  0  0  0  0  0  0  0  0
  1 36  1  0  0  0  0
  1 49  1  0  0  0  0
  2 29  2  0  0  0  0
  3 30  2  0  0  0  0
  4 33  2  0  0  0  0
  5 35  2  0  0  0  0
  6 40  2  0  0  0  0
  7 43  1  0  0  0  0
  7 90  1  0  0  0  0
  8 43  2  0  0  0  0
  9 44  1  0  0  0  0
  9 91  1  0  0  0  0
 10 46  1  0  0  0  0
 10 92  1  0  0  0  0
 11 47  1  0  0  0  0
 11 93  1  0  0  0  0
 12 44  2  0  0  0  0
 13 46  2  0  0  0  0
 14 47  2  0  0  0  0
 15 50  1  0  0  0  0
 15 94  1  0  0  0  0
 16 50  2  0  0  0  0
 23 17  1  6  0  0  0
 17 29  1  0  0  0  0
 17 59  1  0  0  0  0
 24 18  1  1  0  0  0
 18 33  1  0  0  0  0
 18 60  1  0  0  0  0
 25 19  1  1  0  0  0
 19 30  1  0  0  0  0
 19 63  1  0  0  0  0
 28 20  1  6  0  0  0
 20 40  1  0  0  0  0
 20 70  1  0  0  0  0
 21 35  1  0  0  0  0
 39 21  1  6  0  0  0
 21 76  1  0  0  0  0
 41 22  1  6  0  0  0
 22 85  1  0  0  0  0
 22 86  1  0  0  0  0
 23 26  1  0  0  0  0
 23 30  1  0  0  0  0
 23 51  1  0  0  0  0
 24 27  1  0  0  0  0
 24 29  1  0  0  0  0
 24 52  1  0  0  0  0
 25 31  1  0  0  0  0
 25 35  1  0  0  0  0
 25 53  1  0  0  0  0
 26 34  1  0  0  0  0
 26 54  1  0  0  0  0
 26 55  1  0  0  0  0
 27 36  1  0  0  0  0
 27 56  1  0  0  0  0
 27 57  1  0  0  0  0
 28 32  1  0  0  0  0
 28 33  1  0  0  0  0
 28 58  1  0  0  0  0
 31 37  1  0  0  0  0
 31 61  1  0  0  0  0
 31 62  1  0  0  0  0
 32 38  1  0  0  0  0
 32 64  1  0  0  0  0
 32 65  1  0  0  0  0
 34 43  1  0  0  0  0
 34 66  1  0  0  0  0
 34 67  1  0  0  0  0
 36 68  1  0  0  0  0
 36 69  1  0  0  0  0
 37 44  1  0  0  0  0
 37 71  1  0  0  0  0
 37 72  1  0  0  0  0
 38 46  1  0  0  0  0
 38 73  1  0  0  0  0
 38 74  1  0  0  0  0
 39 42  1  0  0  0  0
 39 47  1  0  0  0  0
 39 75  1  0  0  0  0
 40 41  1  0  0  0  0
 41 45  1  0  0  0  0
 41 77  1  0  0  0  0
 42 48  1  0  0  0  0
 42 78  1  0  0  0  0
 42 79  1  0  0  0  0
 45 50  1  0  0  0  0
 45 80  1  0  0  0  0
 45 81  1  0  0  0  0
 48 82  1  0  0  0  0
 48 83  1  0  0  0  0
 48 84  1  0  0  0  0
 49 87  1  0  0  0  0
 49 88  1  0  0  0  0
 49 89  1  0  0  0  0
M  END
> <PUBCHEM_COMPOUND_CID>
512486
> <PUBCHEM_COMPOUND_CANONICALIZED>
1
> <PUBCHEM_CACTVS_COMPLEXITY>
1270
> <PUBCHEM_CACTVS_HBOND_ACCEPTOR>
17
> <PUBCHEM_CACTVS_HBOND_DONOR>
11
> <PUBCHEM_CACTVS_ROTATABLE_BOND>
26
> <PUBCHEM_CACTVS_SUBSKEYS>
AAADcfB7vABAAAAAAAAAAAAAAAAAAAAAAAAAAAAAAAAAAAAAAAAAHgQQCAAACCjFwASCCALAAggIAAGQGAAAAAAAABAAAIGIAAACQBoggCAUQAAGFgCQAAC/FwIAAAAAAAAAAAAAAAAAAAAAAAAAAAAAAA==
> <PUBCHEM_IUPAC_OPENEYE_NAME>
(4S)-4-[[(2S)-2-[[(2S)-2-[[(2S)-2-[[(2S)-2-amino-3-carboxy-propanoyl]amino]-4-carboxy-butanoyl]amino]-4-methylsulfanyl-butanoyl]amino]-4-carboxy-butanoyl]amino]-5-[[(1S)-1-carboxypropyl]amino]-5-oxo-pentanoic acid
> <PUBCHEM_IUPAC_CAS_NAME>
(4S)-4-[[(2S)-2-[[(2S)-2-[[(2S)-2-[[(2S)-2-amino-3-carboxy-1-oxopropyl]amino]-4-carboxy-1-oxobutyl]amino]-4-(methylthio)-1-oxobutyl]amino]-4-carboxy-1-oxobutyl]amino]-5-[[(1S)-1-carboxypropyl]amino]-5-oxopentanoic acid
> <PUBCHEM_IUPAC_NAME_MARKUP>
(4<I>S</I>)-4-[[(2<I>S</I>)-2-[[(2<I>S</I>)-2-[[(2<I>S</I>)-2-[[(2<I>S</I>)-2-amino-3-carboxypropanoyl]amino]-4-carboxybutanoyl]amino]-4-methylsulfanylbutanoyl]amino]-4-carboxybutanoyl]amino]-5-[[(1<I>S</I>)-1-carboxypropyl]amino]-5-oxopentanoic acid
> <PUBCHEM_IUPAC_NAME>
(4S)-4-[[(2S)-2-[[(2S)-2-[[(2S)-2-[[(2S)-2-amino-3-carboxypropanoyl]amino]-4-carboxybutanoyl]amino]-4-methylsulfanylbutanoyl]amino]-4-carboxybutanoyl]amino]-5-[[(1S)-1-carboxypropyl]amino]-5-oxopentanoic acid
> <PUBCHEM_IUPAC_SYSTEMATIC_NAME>
(4S)-4-[[(2S)-2-[[(2S)-2-[[(2S)-2-[[(2S)-2-azanyl-4-oxidanyl-4-oxidanylidene-butanoyl]amino]-5-oxidanyl-5-oxidanylidene-pentanoyl]amino]-4-methylsulfanyl-butanoyl]amino]-5-oxidanyl-5-oxidanylidene-pentanoyl]amino]-5-oxidanylidene-5-[[(2S)-1-oxidanyl-1-oxidanylidene-butan-2-yl]amino]pentanoic acid
> <PUBCHEM_IUPAC_TRADITIONAL_NAME>
(4S)-4-[[(2S)-2-[[(2S)-2-[[(2S)-2-[[(2S)-2-amino-3-carboxy-propanoyl]amino]-4-carboxy-butanoyl]amino]-4-(methylthio)butanoyl]amino]-4-carboxy-butanoyl]amino]-5-[[(1S)-1-carboxypropyl]amino]-5-keto-valeric acid
> <PUBCHEM_IUPAC_INCHI>
InChI=1S/C28H44N6O15S/c1-3-14(28(48)49)30-24(44)16(5-8-20(37)38)32-26(46)17(6-9-21(39)40)33-27(47)18(10-11-50-2)34-25(45)15(4-7-19(35)36)31-23(43)13(29)12-22(41)42/h13-18H,3-12,29H2,1-2H3,(H,30,44)(H,31,43)(H,32,46)(H,33,47)(H,34,45)(H,35,36)(H,37,38)(H,39,40)(H,41,42)(H,48,49)/t13-,14-,15-,16-,17-,18-/m0/s1
> <PUBCHEM_IUPAC_INCHIKEY>
FHTMECLOGMTUPJ-QQCJEOGWSA-N
> <PUBCHEM_XLOGP3_AA>
-5.5
> <PUBCHEM_EXACT_MASS>
736.25853589
> <PUBCHEM_MOLECULAR_FORMULA>
C28H44N6O15S
> <PUBCHEM_MOLECULAR_WEIGHT>
736.7
> <PUBCHEM_OPENEYE_CAN_SMILES>
CCC(C(=O)O)NC(=O)C(CCC(=O)O)NC(=O)C(CCC(=O)O)NC(=O)C(CCSC)NC(=O)C(CCC(=O)O)NC(=O)C(CC(=O)O)N
> <PUBCHEM_OPENEYE_ISO_SMILES>
CC[C@@H](C(=O)O)NC(=O)[C@H](CCC(=O)O)NC(=O)[C@H](CCC(=O)O)NC(=O)[C@H](CCSC)NC(=O)[C@H](CCC(=O)O)NC(=O)[C@H](CC(=O)O)N
> <PUBCHEM_CACTVS_TPSA>
383
> <PUBCHEM_MONOISOTOPIC_WEIGHT>
736.25853589
> <PUBCHEM_TOTAL_CHARGE>
0
> <PUBCHEM_HEAVY_ATOM_COUNT>
50
> <PUBCHEM_ATOM_DEF_STEREO_COUNT>
6
> <PUBCHEM_ATOM_UDEF_STEREO_COUNT>
0
> <PUBCHEM_BOND_DEF_STEREO_COUNT>
0
> <PUBCHEM_BOND_UDEF_STEREO_COUNT>
0
> <PUBCHEM_ISOTOPIC_ATOM_COUNT>
0
> <PUBCHEM_COMPONENT_COUNT>
1
> <PUBCHEM_CACTVS_TAUTO_COUNT>
-1
> <PUBCHEM_COORDINATE_TYPE>
1
5
255
> <PUBCHEM_BONDANNOTATIONS>
23  17  6
24  18  5
25  19  5
28  20  6
39  21  6
41  22  6
$$$$
