512481
  -OEChem-10302200282D
 31 33  0     1  0  0  0  0  0999 V2000
    7.0356   -1.5983    0.0000 S   0  0  0  0  0  0  0  0  0  0  0  0
    5.8507    0.7253    0.0000 S   0  0  0  0  0  0  0  0  0  0  0  0
    2.9789   -2.1353    0.0000 O   0  0  0  0  0  0  0  0  0  0  0  0
    8.9488    1.5435    0.0000 O   0  0  0  0  0  0  0  0  0  0  0  0
    7.9731    1.3243    0.0000 N   0  0  0  0  0  0  0  0  0  0  0  0
    8.3780   -0.3990    0.0000 C   0  0  3  0  0  0  0  0  0  0  0  0
    8.0562   -1.3896    0.0000 C   0  0  0  0  0  0  0  0  0  0  0  0
    7.6751    0.3697    0.0000 C   0  0  0  0  0  0  0  0  0  0  0  0
    6.6597    0.1375    0.0000 C   0  0  0  0  0  0  0  0  0  0  0  0
    6.3507   -0.8136    0.0000 C   0  0  0  0  0  0  0  0  0  0  0  0
    5.3507   -0.8136    0.0000 C   0  0  0  0  0  0  0  0  0  0  0  0
    5.0417    0.1375    0.0000 C   0  0  0  0  0  0  0  0  0  0  0  0
    9.3554   -0.1873    0.0000 C   0  0  0  0  0  0  0  0  0  0  0  0
    4.6657   -1.5983    0.0000 C   0  0  0  0  0  0  0  0  0  0  0  0
    4.0263    0.3697    0.0000 C   0  0  0  0  0  0  0  0  0  0  0  0
    3.6452   -1.3896    0.0000 C   0  0  0  0  0  0  0  0  0  0  0  0
    3.3233   -0.3990    0.0000 C   0  0  0  0  0  0  0  0  0  0  0  0
    2.0000   -1.9312    0.0000 C   0  0  0  0  0  0  0  0  0  0  0  0
    8.7938   -0.8589    0.0000 H   0  0  0  0  0  0  0  0  0  0  0  0
    8.0746   -2.0093    0.0000 H   0  0  0  0  0  0  0  0  0  0  0  0
    8.6699   -1.4775    0.0000 H   0  0  0  0  0  0  0  0  0  0  0  0
    9.4866   -0.7932    0.0000 H   0  0  0  0  0  0  0  0  0  0  0  0
    9.9613   -0.0560    0.0000 H   0  0  0  0  0  0  0  0  0  0  0  0
    9.2241    0.4187    0.0000 H   0  0  0  0  0  0  0  0  0  0  0  0
    4.8641   -2.1857    0.0000 H   0  0  0  0  0  0  0  0  0  0  0  0
    3.8415    0.9616    0.0000 H   0  0  0  0  0  0  0  0  0  0  0  0
    2.7174   -0.2677    0.0000 H   0  0  0  0  0  0  0  0  0  0  0  0
    9.1335    2.1353    0.0000 H   0  0  0  0  0  0  0  0  0  0  0  0
    2.1266   -1.3242    0.0000 H   0  0  0  0  0  0  0  0  0  0  0  0
    1.3931   -1.8046    0.0000 H   0  0  0  0  0  0  0  0  0  0  0  0
    1.8734   -2.5381    0.0000 H   0  0  0  0  0  0  0  0  0  0  0  0
  1  7  1  0  0  0  0
  1 10  1  0  0  0  0
  2  9  1  0  0  0  0
  2 12  1  0  0  0  0
  3 16  1  0  0  0  0
  3 18  1  0  0  0  0
  4  5  1  0  0  0  0
  4 28  1  0  0  0  0
  5  8  2  3  0  0  0
  6  7  1  0  0  0  0
  6  8  1  0  0  0  0
  6 13  1  0  0  0  0
  6 19  1  0  0  0  0
  7 20  1  0  0  0  0
  7 21  1  0  0  0  0
  8  9  1  0  0  0  0
  9 10  2  0  0  0  0
 10 11  1  0  0  0  0
 11 12  2  0  0  0  0
 11 14  1  0  0  0  0
 12 15  1  0  0  0  0
 13 22  1  0  0  0  0
 13 23  1  0  0  0  0
 13 24  1  0  0  0  0
 14 16  2  0  0  0  0
 14 25  1  0  0  0  0
 15 17  2  0  0  0  0
 15 26  1  0  0  0  0
 16 17  1  0  0  0  0
 17 27  1  0  0  0  0
 18 29  1  0  0  0  0
 18 30  1  0  0  0  0
 18 31  1  0  0  0  0
M  END
> <PUBCHEM_COMPOUND_CID>
512481
> <PUBCHEM_COMPOUND_CANONICALIZED>
1
> <PUBCHEM_CACTVS_COMPLEXITY>
350
> <PUBCHEM_CACTVS_HBOND_ACCEPTOR>
5
> <PUBCHEM_CACTVS_HBOND_DONOR>
1
> <PUBCHEM_CACTVS_ROTATABLE_BOND>
1
> <PUBCHEM_CACTVS_SUBSKEYS>
AAADccByMABgAAAAAAAAAAAAAAAAASAAAAA0QAAAAAAAAEgB8AAAHgQECAAADQyF2AKyB8AQBAikAyBiAAADCIAgKBBIiBg2CJgMJiKkMRqAMCAkwBEoqAeAwPAOAIABAAAEAAABAAIAAAgAAAAAAAAAAA==
> <PUBCHEM_IUPAC_OPENEYE_NAME>
8-methoxy-3-methyl-2,3-dihydrothiopyrano[3,2-b]benzothiophen-4-one oxime
> <PUBCHEM_IUPAC_CAS_NAME>
8-methoxy-3-methyl-2,3-dihydrothiopyrano[3,2-b][1]benzothiol-4-one oxime
> <PUBCHEM_IUPAC_NAME_MARKUP>
<I>N</I>-(8-methoxy-3-methyl-2,3-dihydrothiopyrano[3,2-b][1]benzothiol-4-ylidene)hydroxylamine
> <PUBCHEM_IUPAC_NAME>
N-(8-methoxy-3-methyl-2,3-dihydrothiopyrano[3,2-b][1]benzothiol-4-ylidene)hydroxylamine
> <PUBCHEM_IUPAC_SYSTEMATIC_NAME>
N-(8-methoxy-3-methyl-2,3-dihydrothiopyrano[3,2-b][1]benzothiol-4-ylidene)hydroxylamine
> <PUBCHEM_IUPAC_TRADITIONAL_NAME>
8-methoxy-3-methyl-2,3-dihydrothiopyrano[3,2-b]benzothiophen-4-one oxime
> <PUBCHEM_IUPAC_INCHI>
InChI=1S/C13H13NO2S2/c1-7-6-17-12-9-5-8(16-2)3-4-10(9)18-13(12)11(7)14-15/h3-5,7,15H,6H2,1-2H3
> <PUBCHEM_IUPAC_INCHIKEY>
VKOPKNIAXNWHGD-UHFFFAOYSA-N
> <PUBCHEM_XLOGP3_AA>
4.1
> <PUBCHEM_EXACT_MASS>
279.03877100
> <PUBCHEM_MOLECULAR_FORMULA>
C13H13NO2S2
> <PUBCHEM_MOLECULAR_WEIGHT>
279.4
> <PUBCHEM_OPENEYE_CAN_SMILES>
CC1CSC2=C(C1=NO)SC3=C2C=C(C=C3)OC
> <PUBCHEM_OPENEYE_ISO_SMILES>
CC1CSC2=C(C1=NO)SC3=C2C=C(C=C3)OC
> <PUBCHEM_CACTVS_TPSA>
95.4
> <PUBCHEM_MONOISOTOPIC_WEIGHT>
279.03877100
> <PUBCHEM_TOTAL_CHARGE>
0
> <PUBCHEM_HEAVY_ATOM_COUNT>
18
> <PUBCHEM_ATOM_DEF_STEREO_COUNT>
0
> <PUBCHEM_ATOM_UDEF_STEREO_COUNT>
1
> <PUBCHEM_BOND_DEF_STEREO_COUNT>
0
> <PUBCHEM_BOND_UDEF_STEREO_COUNT>
1
> <PUBCHEM_ISOTOPIC_ATOM_COUNT>
0
> <PUBCHEM_COMPONENT_COUNT>
1
> <PUBCHEM_CACTVS_TAUTO_COUNT>
-1
> <PUBCHEM_COORDINATE_TYPE>
1
5
255
> <PUBCHEM_BONDANNOTATIONS>
10  11  8
11  12  8
11  14  8
12  15  8
14  16  8
15  17  8
16  17  8
2  12  8
2  9  8
5  8  1
6  13  3
9  10  8
$$$$
