512491
  -OEChem-10302200282D
 86 85  0     1  0  0  0  0  0999 V2000
   16.3933   -1.7500    0.0000 S   0  0  0  0  0  0  0  0  0  0  0  0
   18.9914    1.7500    0.0000 S   0  0  0  0  0  0  0  0  0  0  0  0
   11.1972    1.2500    0.0000 O   0  0  0  0  0  0  0  0  0  0  0  0
   13.7953   -1.2500    0.0000 O   0  0  0  0  0  0  0  0  0  0  0  0
    8.5991   -1.2500    0.0000 O   0  0  0  0  0  0  0  0  0  0  0  0
    7.7331   -1.7500    0.0000 O   0  0  0  0  0  0  0  0  0  0  0  0
   16.3933    1.2500    0.0000 O   0  0  0  0  0  0  0  0  0  0  0  0
    6.8671    2.7500    0.0000 O   0  0  0  0  0  0  0  0  0  0  0  0
    6.0010    1.2500    0.0000 O   0  0  0  0  0  0  0  0  0  0  0  0
    2.5369   -1.7500    0.0000 O   0  0  0  0  0  0  0  0  0  0  0  0
   19.8574    0.2500    0.0000 O   0  0  0  0  0  0  0  0  0  0  0  0
    3.4030   -0.2500    0.0000 O   0  0  0  0  0  0  0  0  0  0  0  0
   18.9914   -1.2500    0.0000 O   0  0  0  0  0  0  0  0  0  0  0  0
   12.0632   -0.2500    0.0000 N   0  0  0  0  0  0  0  0  0  0  0  0
    9.4651    0.2500    0.0000 N   0  0  0  0  0  0  0  0  0  0  0  0
   14.6613    0.2500    0.0000 N   0  0  0  0  0  0  0  0  0  0  0  0
    6.8671   -0.2500    0.0000 N   0  0  0  0  0  0  0  0  0  0  0  0
   17.2594   -0.2500    0.0000 N   0  0  0  0  0  0  0  0  0  0  0  0
    6.0010   -2.7500    0.0000 N   0  0  0  0  0  0  0  0  0  0  0  0
   10.3312   -0.2500    0.0000 C   0  0  1  0  0  0  0  0  0  0  0  0
   12.9292    0.2500    0.0000 C   0  0  1  0  0  0  0  0  0  0  0  0
   10.3312   -1.2500    0.0000 C   0  0  0  0  0  0  0  0  0  0  0  0
   12.9292    1.2500    0.0000 C   0  0  0  0  0  0  0  0  0  0  0  0
   11.1972    0.2500    0.0000 C   0  0  0  0  0  0  0  0  0  0  0  0
   13.7953   -0.2500    0.0000 C   0  0  0  0  0  0  0  0  0  0  0  0
    9.4651   -1.7500    0.0000 C   0  0  0  0  0  0  0  0  0  0  0  0
   11.1972   -1.7500    0.0000 C   0  0  0  0  0  0  0  0  0  0  0  0
   13.7953    1.7500    0.0000 C   0  0  0  0  0  0  0  0  0  0  0  0
   12.0632    1.7500    0.0000 C   0  0  0  0  0  0  0  0  0  0  0  0
    7.7331    0.2500    0.0000 C   0  0  2  0  0  0  0  0  0  0  0  0
    8.5991   -0.2500    0.0000 C   0  0  0  0  0  0  0  0  0  0  0  0
   15.5273   -0.2500    0.0000 C   0  0  1  0  0  0  0  0  0  0  0  0
    7.7331    1.2500    0.0000 C   0  0  0  0  0  0  0  0  0  0  0  0
    6.0010   -1.7500    0.0000 C   0  0  2  0  0  0  0  0  0  0  0  0
   15.5273   -1.2500    0.0000 C   0  0  0  0  0  0  0  0  0  0  0  0
    6.8671   -1.2500    0.0000 C   0  0  0  0  0  0  0  0  0  0  0  0
   16.3933    0.2500    0.0000 C   0  0  0  0  0  0  0  0  0  0  0  0
    5.1350   -1.2500    0.0000 C   0  0  0  0  0  0  0  0  0  0  0  0
    6.8671    1.7500    0.0000 C   0  0  0  0  0  0  0  0  0  0  0  0
    4.2690   -1.7500    0.0000 C   0  0  0  0  0  0  0  0  0  0  0  0
   18.1254    0.2500    0.0000 C   0  0  1  0  0  0  0  0  0  0  0  0
   18.1254    1.2500    0.0000 C   0  0  0  0  0  0  0  0  0  0  0  0
    3.4030   -1.2500    0.0000 C   0  0  0  0  0  0  0  0  0  0  0  0
   18.9914   -0.2500    0.0000 C   0  0  0  0  0  0  0  0  0  0  0  0
    9.7942   -0.5600    0.0000 H   0  0  0  0  0  0  0  0  0  0  0  0
   12.9292   -0.3700    0.0000 H   0  0  0  0  0  0  0  0  0  0  0  0
   10.8681   -0.9400    0.0000 H   0  0  0  0  0  0  0  0  0  0  0  0
   12.3923    0.9400    0.0000 H   0  0  0  0  0  0  0  0  0  0  0  0
   12.0632   -0.8700    0.0000 H   0  0  0  0  0  0  0  0  0  0  0  0
    9.4651    0.8700    0.0000 H   0  0  0  0  0  0  0  0  0  0  0  0
    9.1551   -1.2131    0.0000 H   0  0  0  0  0  0  0  0  0  0  0  0
    8.9282   -2.0600    0.0000 H   0  0  0  0  0  0  0  0  0  0  0  0
    9.7751   -2.2869    0.0000 H   0  0  0  0  0  0  0  0  0  0  0  0
   10.8872   -2.2869    0.0000 H   0  0  0  0  0  0  0  0  0  0  0  0
   11.7341   -2.0600    0.0000 H   0  0  0  0  0  0  0  0  0  0  0  0
   11.5072   -1.2131    0.0000 H   0  0  0  0  0  0  0  0  0  0  0  0
   14.1053    1.2131    0.0000 H   0  0  0  0  0  0  0  0  0  0  0  0
   14.3322    2.0600    0.0000 H   0  0  0  0  0  0  0  0  0  0  0  0
   13.4853    2.2869    0.0000 H   0  0  0  0  0  0  0  0  0  0  0  0
   12.3732    2.2869    0.0000 H   0  0  0  0  0  0  0  0  0  0  0  0
   11.5263    2.0600    0.0000 H   0  0  0  0  0  0  0  0  0  0  0  0
   11.7532    1.2131    0.0000 H   0  0  0  0  0  0  0  0  0  0  0  0
    7.7331   -0.3700    0.0000 H   0  0  0  0  0  0  0  0  0  0  0  0
   14.6613    0.8700    0.0000 H   0  0  0  0  0  0  0  0  0  0  0  0
   15.5273    0.3700    0.0000 H   0  0  0  0  0  0  0  0  0  0  0  0
    8.3437    1.1423    0.0000 H   0  0  0  0  0  0  0  0  0  0  0  0
    7.9451    1.8326    0.0000 H   0  0  0  0  0  0  0  0  0  0  0  0
    6.3301    0.0600    0.0000 H   0  0  0  0  0  0  0  0  0  0  0  0
    6.5380   -2.0600    0.0000 H   0  0  0  0  0  0  0  0  0  0  0  0
   14.9167   -1.1423    0.0000 H   0  0  0  0  0  0  0  0  0  0  0  0
   15.3153   -1.8326    0.0000 H   0  0  0  0  0  0  0  0  0  0  0  0
    5.5335   -0.7751    0.0000 H   0  0  0  0  0  0  0  0  0  0  0  0
    4.7365   -0.7751    0.0000 H   0  0  0  0  0  0  0  0  0  0  0  0
   17.2594   -0.8700    0.0000 H   0  0  0  0  0  0  0  0  0  0  0  0
    3.8705   -2.2250    0.0000 H   0  0  0  0  0  0  0  0  0  0  0  0
    4.6675   -2.2250    0.0000 H   0  0  0  0  0  0  0  0  0  0  0  0
   18.1254   -0.3700    0.0000 H   0  0  0  0  0  0  0  0  0  0  0  0
    5.4641   -3.0600    0.0000 H   0  0  0  0  0  0  0  0  0  0  0  0
    6.5380   -3.0600    0.0000 H   0  0  0  0  0  0  0  0  0  0  0  0
   16.3933   -2.3700    0.0000 H   0  0  0  0  0  0  0  0  0  0  0  0
   17.9133    1.8326    0.0000 H   0  0  0  0  0  0  0  0  0  0  0  0
   17.5148    1.1423    0.0000 H   0  0  0  0  0  0  0  0  0  0  0  0
    6.3301    3.0600    0.0000 H   0  0  0  0  0  0  0  0  0  0  0  0
   18.9914    2.3700    0.0000 H   0  0  0  0  0  0  0  0  0  0  0  0
    2.0000   -1.4400    0.0000 H   0  0  0  0  0  0  0  0  0  0  0  0
   20.3944   -0.0600    0.0000 H   0  0  0  0  0  0  0  0  0  0  0  0
  1 35  1  0  0  0  0
  1 80  1  0  0  0  0
  2 42  1  0  0  0  0
  2 84  1  0  0  0  0
  3 24  2  0  0  0  0
  4 25  2  0  0  0  0
  5 31  2  0  0  0  0
  6 36  2  0  0  0  0
  7 37  2  0  0  0  0
  8 39  1  0  0  0  0
  8 83  1  0  0  0  0
  9 39  2  0  0  0  0
 10 43  1  0  0  0  0
 10 85  1  0  0  0  0
 11 44  1  0  0  0  0
 11 86  1  0  0  0  0
 12 43  2  0  0  0  0
 13 44  2  0  0  0  0
 21 14  1  1  0  0  0
 14 24  1  0  0  0  0
 14 49  1  0  0  0  0
 20 15  1  6  0  0  0
 15 31  1  0  0  0  0
 15 50  1  0  0  0  0
 16 25  1  0  0  0  0
 32 16  1  6  0  0  0
 16 64  1  0  0  0  0
 30 17  1  1  0  0  0
 17 36  1  0  0  0  0
 17 68  1  0  0  0  0
 18 37  1  0  0  0  0
 41 18  1  1  0  0  0
 18 74  1  0  0  0  0
 34 19  1  1  0  0  0
 19 78  1  0  0  0  0
 19 79  1  0  0  0  0
 20 22  1  0  0  0  0
 20 24  1  0  0  0  0
 20 45  1  0  0  0  0
 21 23  1  0  0  0  0
 21 25  1  0  0  0  0
 21 46  1  0  0  0  0
 22 26  1  0  0  0  0
 22 27  1  0  0  0  0
 22 47  1  0  0  0  0
 23 28  1  0  0  0  0
 23 29  1  0  0  0  0
 23 48  1  0  0  0  0
 26 51  1  0  0  0  0
 26 52  1  0  0  0  0
 26 53  1  0  0  0  0
 27 54  1  0  0  0  0
 27 55  1  0  0  0  0
 27 56  1  0  0  0  0
 28 57  1  0  0  0  0
 28 58  1  0  0  0  0
 28 59  1  0  0  0  0
 29 60  1  0  0  0  0
 29 61  1  0  0  0  0
 29 62  1  0  0  0  0
 30 31  1  0  0  0  0
 30 33  1  0  0  0  0
 30 63  1  0  0  0  0
 32 35  1  0  0  0  0
 32 37  1  0  0  0  0
 32 65  1  0  0  0  0
 33 39  1  0  0  0  0
 33 66  1  0  0  0  0
 33 67  1  0  0  0  0
 34 36  1  0  0  0  0
 34 38  1  0  0  0  0
 34 69  1  0  0  0  0
 35 70  1  0  0  0  0
 35 71  1  0  0  0  0
 38 40  1  0  0  0  0
 38 72  1  0  0  0  0
 38 73  1  0  0  0  0
 40 43  1  0  0  0  0
 40 75  1  0  0  0  0
 40 76  1  0  0  0  0
 41 42  1  0  0  0  0
 41 44  1  0  0  0  0
 41 77  1  0  0  0  0
 42 81  1  0  0  0  0
 42 82  1  0  0  0  0
M  END
> <PUBCHEM_COMPOUND_CID>
512491
> <PUBCHEM_COMPOUND_CANONICALIZED>
1
> <PUBCHEM_CACTVS_COMPLEXITY>
1080
> <PUBCHEM_CACTVS_HBOND_ACCEPTOR>
14
> <PUBCHEM_CACTVS_HBOND_DONOR>
11
> <PUBCHEM_CACTVS_ROTATABLE_BOND>
20
> <PUBCHEM_CACTVS_SUBSKEYS>
AAADcfB7vABgAAAAAAAAAAAAAAAAAAAAAAAAAAAAAAAAAAAAAAAAHgQQCAAADSjFwASCCALAAgQIAAGQGAAAAAAAAAAAAIGIAAACQBoAgCAUQAAGFgCQAAC/FwIIAAAAAAAAAAAAAAAAAAAAAAAAAAAAAA==
> <PUBCHEM_IUPAC_OPENEYE_NAME>
(4S)-4-amino-5-[[(1S)-1-(carboxymethyl)-2-[[(1S)-1-[[(1S)-1-[[(1R)-2-[[(1R)-1-carboxy-2-sulfanyl-ethyl]amino]-2-oxo-1-(sulfanylmethyl)ethyl]carbamoyl]-2-methyl-propyl]carbamoyl]-2-methyl-propyl]amino]-2-oxo-ethyl]amino]-5-oxo-pentanoic acid
> <PUBCHEM_IUPAC_CAS_NAME>
(4S)-4-amino-5-[[(2S)-3-carboxy-1-[[(2S)-1-[[(2S)-1-[[(2R)-1-[[(1R)-1-carboxy-2-mercaptoethyl]amino]-3-mercapto-1-oxopropan-2-yl]amino]-3-methyl-1-oxobutan-2-yl]amino]-3-methyl-1-oxobutan-2-yl]amino]-1-oxopropan-2-yl]amino]-5-oxopentanoic acid
> <PUBCHEM_IUPAC_NAME_MARKUP>
(4<I>S</I>)-4-amino-5-[[(2<I>S</I>)-3-carboxy-1-[[(2<I>S</I>)-1-[[(2<I>S</I>)-1-[[(2<I>R</I>)-1-[[(1<I>R</I>)-1-carboxy-2-sulfanylethyl]amino]-1-oxo-3-sulfanylpropan-2-yl]amino]-3-methyl-1-oxobutan-2-yl]amino]-3-methyl-1-oxobutan-2-yl]amino]-1-oxopropan-2-yl]amino]-5-oxopentanoic acid
> <PUBCHEM_IUPAC_NAME>
(4S)-4-amino-5-[[(2S)-3-carboxy-1-[[(2S)-1-[[(2S)-1-[[(2R)-1-[[(1R)-1-carboxy-2-sulfanylethyl]amino]-1-oxo-3-sulfanylpropan-2-yl]amino]-3-methyl-1-oxobutan-2-yl]amino]-3-methyl-1-oxobutan-2-yl]amino]-1-oxopropan-2-yl]amino]-5-oxopentanoic acid
> <PUBCHEM_IUPAC_SYSTEMATIC_NAME>
(4S)-4-azanyl-5-[[(2S)-1-[[(2S)-3-methyl-1-[[(2S)-3-methyl-1-oxidanylidene-1-[[(2R)-1-oxidanylidene-1-[[(2R)-1-oxidanyl-1-oxidanylidene-3-sulfanyl-propan-2-yl]amino]-3-sulfanyl-propan-2-yl]amino]butan-2-yl]amino]-1-oxidanylidene-butan-2-yl]amino]-4-oxidanyl-1,4-bis(oxidanylidene)butan-2-yl]amino]-5-oxidanylidene-pentanoic acid
> <PUBCHEM_IUPAC_TRADITIONAL_NAME>
(4S)-4-amino-5-[[(1S)-2-[[(1S)-1-[[(1S)-1-[[(1R)-2-[[(1R)-1-carboxy-2-mercapto-ethyl]amino]-2-keto-1-(mercaptomethyl)ethyl]carbamoyl]-2-methyl-propyl]carbamoyl]-2-methyl-propyl]amino]-1-(carboxymethyl)-2-keto-ethyl]amino]-5-keto-valeric acid
> <PUBCHEM_IUPAC_INCHI>
InChI=1S/C25H42N6O11S2/c1-10(2)18(23(39)28-14(8-43)22(38)29-15(9-44)25(41)42)31-24(40)19(11(3)4)30-21(37)13(7-17(34)35)27-20(36)12(26)5-6-16(32)33/h10-15,18-19,43-44H,5-9,26H2,1-4H3,(H,27,36)(H,28,39)(H,29,38)(H,30,37)(H,31,40)(H,32,33)(H,34,35)(H,41,42)/t12-,13-,14-,15-,18-,19-/m0/s1
> <PUBCHEM_IUPAC_INCHIKEY>
ZHJQGLVFXUUOCQ-VRBUCKFRSA-N
> <PUBCHEM_XLOGP3_AA>
-3.9
> <PUBCHEM_EXACT_MASS>
666.23529852
> <PUBCHEM_MOLECULAR_FORMULA>
C25H42N6O11S2
> <PUBCHEM_MOLECULAR_WEIGHT>
666.8
> <PUBCHEM_OPENEYE_CAN_SMILES>
CC(C)C(C(=O)NC(C(C)C)C(=O)NC(CS)C(=O)NC(CS)C(=O)O)NC(=O)C(CC(=O)O)NC(=O)C(CCC(=O)O)N
> <PUBCHEM_OPENEYE_ISO_SMILES>
CC(C)[C@@H](C(=O)N[C@@H](C(C)C)C(=O)N[C@@H](CS)C(=O)N[C@@H](CS)C(=O)O)NC(=O)[C@H](CC(=O)O)NC(=O)[C@H](CCC(=O)O)N
> <PUBCHEM_CACTVS_TPSA>
285
> <PUBCHEM_MONOISOTOPIC_WEIGHT>
666.23529852
> <PUBCHEM_TOTAL_CHARGE>
0
> <PUBCHEM_HEAVY_ATOM_COUNT>
44
> <PUBCHEM_ATOM_DEF_STEREO_COUNT>
6
> <PUBCHEM_ATOM_UDEF_STEREO_COUNT>
0
> <PUBCHEM_BOND_DEF_STEREO_COUNT>
0
> <PUBCHEM_BOND_UDEF_STEREO_COUNT>
0
> <PUBCHEM_ISOTOPIC_ATOM_COUNT>
0
> <PUBCHEM_COMPONENT_COUNT>
1
> <PUBCHEM_CACTVS_TAUTO_COUNT>
-1
> <PUBCHEM_COORDINATE_TYPE>
1
5
255
> <PUBCHEM_BONDANNOTATIONS>
21  14  5
20  15  6
32  16  6
30  17  5
41  18  5
34  19  5
$$$$
