512457
  -OEChem-10302200282D
 44 47  0     1  0  0  0  0  0999 V2000
    2.0000    1.9596    0.0000 O   0  0  0  0  0  0  0  0  0  0  0  0
    6.1841   -2.6612    0.0000 O   0  0  0  0  0  0  0  0  0  0  0  0
    4.9994    0.7621    0.0000 N   0  0  0  0  0  0  0  0  0  0  0  0
    3.5984    2.5189    0.0000 N   0  0  0  0  0  0  0  0  0  0  0  0
    5.2219    1.7371    0.0000 C   0  0  2  0  0  0  0  0  0  0  0  0
    4.5984    2.5189    0.0000 C   0  0  2  0  0  0  0  0  0  0  0  0
    6.2542    1.8764    0.0000 C   0  0  0  0  0  0  0  0  0  0  0  0
    4.9640    3.4943    0.0000 C   0  0  0  0  0  0  0  0  0  0  0  0
    6.6422    2.8431    0.0000 C   0  0  0  0  0  0  0  0  0  0  0  0
    5.9927    3.6575    0.0000 C   0  0  0  0  0  0  0  0  0  0  0  0
    4.0984    0.3283    0.0000 C   0  0  0  0  0  0  0  0  0  0  0  0
    3.1974    0.7621    0.0000 C   0  0  0  0  0  0  0  0  0  0  0  0
    2.9749    1.7371    0.0000 C   0  0  0  0  0  0  0  0  0  0  0  0
    2.3279    0.1887    0.0000 C   0  0  0  0  0  0  0  0  0  0  0  0
    4.1923   -0.7091    0.0000 C   0  0  0  0  0  0  0  0  0  0  0  0
    2.3977   -0.8506    0.0000 C   0  0  0  0  0  0  0  0  0  0  0  0
    3.3362   -1.3025    0.0000 C   0  0  0  0  0  0  0  0  0  0  0  0
    5.1804   -1.1572    0.0000 C   0  0  0  0  0  0  0  0  0  0  0  0
    3.4089   -2.3851    0.0000 C   0  0  0  0  0  0  0  0  0  0  0  0
    5.2782   -2.2378    0.0000 C   0  0  0  0  0  0  0  0  0  0  0  0
    4.3865   -2.8558    0.0000 C   0  0  0  0  0  0  0  0  0  0  0  0
    6.2704   -3.6575    0.0000 C   0  0  0  0  0  0  0  0  0  0  0  0
    5.7952    1.1095    0.0000 H   0  0  0  0  0  0  0  0  0  0  0  0
    4.1142    3.2175    0.0000 H   0  0  0  0  0  0  0  0  0  0  0  0
    6.2308    1.2569    0.0000 H   0  0  0  0  0  0  0  0  0  0  0  0
    6.8606    1.7473    0.0000 H   0  0  0  0  0  0  0  0  0  0  0  0
    4.9731    4.1142    0.0000 H   0  0  0  0  0  0  0  0  0  0  0  0
    4.3547    3.6093    0.0000 H   0  0  0  0  0  0  0  0  0  0  0  0
    7.1696    2.5171    0.0000 H   0  0  0  0  0  0  0  0  0  0  0  0
    7.0536    3.3069    0.0000 H   0  0  0  0  0  0  0  0  0  0  0  0
    6.5365    3.9554    0.0000 H   0  0  0  0  0  0  0  0  0  0  0  0
    5.7923    4.2442    0.0000 H   0  0  0  0  0  0  0  0  0  0  0  0
    5.4841    0.3756    0.0000 H   0  0  0  0  0  0  0  0  0  0  0  0
    3.3294    3.0775    0.0000 H   0  0  0  0  0  0  0  0  0  0  0  0
    2.0802    0.7571    0.0000 H   0  0  0  0  0  0  0  0  0  0  0  0
    1.7255    0.0419    0.0000 H   0  0  0  0  0  0  0  0  0  0  0  0
    1.7811   -0.7857    0.0000 H   0  0  0  0  0  0  0  0  0  0  0  0
    2.2282   -1.4470    0.0000 H   0  0  0  0  0  0  0  0  0  0  0  0
    5.6859   -0.7981    0.0000 H   0  0  0  0  0  0  0  0  0  0  0  0
    2.8953   -2.7324    0.0000 H   0  0  0  0  0  0  0  0  0  0  0  0
    4.4352   -3.4739    0.0000 H   0  0  0  0  0  0  0  0  0  0  0  0
    5.6527   -3.7109    0.0000 H   0  0  0  0  0  0  0  0  0  0  0  0
    6.3238   -4.2752    0.0000 H   0  0  0  0  0  0  0  0  0  0  0  0
    6.8881   -3.6040    0.0000 H   0  0  0  0  0  0  0  0  0  0  0  0
  1 13  2  0  0  0  0
  2 20  1  0  0  0  0
  2 22  1  0  0  0  0
  3  5  1  0  0  0  0
  3 11  1  0  0  0  0
  3 33  1  0  0  0  0
  4  6  1  0  0  0  0
  4 13  1  0  0  0  0
  4 34  1  0  0  0  0
  5  6  1  0  0  0  0
  5  7  1  0  0  0  0
  5 23  1  1  0  0  0
  6  8  1  0  0  0  0
  6 24  1  6  0  0  0
  7  9  1  0  0  0  0
  7 25  1  0  0  0  0
  7 26  1  0  0  0  0
  8 10  1  0  0  0  0
  8 27  1  0  0  0  0
  8 28  1  0  0  0  0
  9 10  1  0  0  0  0
  9 29  1  0  0  0  0
  9 30  1  0  0  0  0
 10 31  1  0  0  0  0
 10 32  1  0  0  0  0
 11 12  2  0  0  0  0
 11 15  1  0  0  0  0
 12 13  1  0  0  0  0
 12 14  1  0  0  0  0
 14 16  1  0  0  0  0
 14 35  1  0  0  0  0
 14 36  1  0  0  0  0
 15 17  2  0  0  0  0
 15 18  1  0  0  0  0
 16 17  1  0  0  0  0
 16 37  1  0  0  0  0
 16 38  1  0  0  0  0
 17 19  1  0  0  0  0
 18 20  2  0  0  0  0
 18 39  1  0  0  0  0
 19 21  2  0  0  0  0
 19 40  1  0  0  0  0
 20 21  1  0  0  0  0
 21 41  1  0  0  0  0
 22 42  1  0  0  0  0
 22 43  1  0  0  0  0
 22 44  1  0  0  0  0
M  END
> <PUBCHEM_COMPOUND_CID>
512457
> <PUBCHEM_COMPOUND_CANONICALIZED>
1
> <PUBCHEM_CACTVS_COMPLEXITY>
488
> <PUBCHEM_CACTVS_HBOND_ACCEPTOR>
3
> <PUBCHEM_CACTVS_HBOND_DONOR>
2
> <PUBCHEM_CACTVS_ROTATABLE_BOND>
1
> <PUBCHEM_CACTVS_SUBSKEYS>
AAADceB7MAAAAAAAAAAAAAAAAAAAAAAAAAAwYIAABAAAAACBAAAAHgAQAAAADCzBmAYyBoLABACIAiVSUACCCAAgIAAIiIEODMgMZjKEsRuUMChk1hGIqUe4yPCOoAABAAAQAABAAAIAACAAQAAAAAAAAA==
> <PUBCHEM_IUPAC_OPENEYE_NAME>
(8aS,12aS)-2-methoxy-5,6,8,8a,9,10,11,12,12a,13-decahydronaphtho[2,1-c][1,5]benzodiazepin-7-one
> <PUBCHEM_IUPAC_CAS_NAME>
(8aS,12aS)-2-methoxy-5,6,8,8a,9,10,11,12,12a,13-decahydronaphtho[2,1-c][1,5]benzodiazepin-7-one
> <PUBCHEM_IUPAC_NAME_MARKUP>
(8<I>a</I><I>S</I>,12<I>a</I><I>S</I>)-2-methoxy-5,6,8,8<I>a</I>,9,10,11,12,12<I>a</I>,13-decahydronaphtho[2,1-c][1,5]benzodiazepin-7-one
> <PUBCHEM_IUPAC_NAME>
(8aS,12aS)-2-methoxy-5,6,8,8a,9,10,11,12,12a,13-decahydronaphtho[2,1-c][1,5]benzodiazepin-7-one
> <PUBCHEM_IUPAC_SYSTEMATIC_NAME>
(8aS,12aS)-2-methoxy-5,6,8,8a,9,10,11,12,12a,13-decahydronaphtho[2,1-c][1,5]benzodiazepin-7-one
> <PUBCHEM_IUPAC_TRADITIONAL_NAME>
(8aS,12aS)-2-methoxy-5,6,8,8a,9,10,11,12,12a,13-decahydronaphtho[2,1-c][1,5]benzodiazepin-7-one
> <PUBCHEM_IUPAC_INCHI>
InChI=1S/C18H22N2O2/c1-22-12-8-6-11-7-9-13-17(14(11)10-12)19-15-4-2-3-5-16(15)20-18(13)21/h6,8,10,15-16,19H,2-5,7,9H2,1H3,(H,20,21)/t15-,16-/m0/s1
> <PUBCHEM_IUPAC_INCHIKEY>
YXDLSQKWRHREAV-HOTGVXAUSA-N
> <PUBCHEM_XLOGP3_AA>
2.8
> <PUBCHEM_EXACT_MASS>
298.168127949
> <PUBCHEM_MOLECULAR_FORMULA>
C18H22N2O2
> <PUBCHEM_MOLECULAR_WEIGHT>
298.4
> <PUBCHEM_OPENEYE_CAN_SMILES>
COC1=CC2=C(CCC3=C2NC4CCCCC4NC3=O)C=C1
> <PUBCHEM_OPENEYE_ISO_SMILES>
COC1=CC2=C(CCC3=C2N[C@H]4CCCC[C@@H]4NC3=O)C=C1
> <PUBCHEM_CACTVS_TPSA>
50.4
> <PUBCHEM_MONOISOTOPIC_WEIGHT>
298.168127949
> <PUBCHEM_TOTAL_CHARGE>
0
> <PUBCHEM_HEAVY_ATOM_COUNT>
22
> <PUBCHEM_ATOM_DEF_STEREO_COUNT>
2
> <PUBCHEM_ATOM_UDEF_STEREO_COUNT>
0
> <PUBCHEM_BOND_DEF_STEREO_COUNT>
0
> <PUBCHEM_BOND_UDEF_STEREO_COUNT>
0
> <PUBCHEM_ISOTOPIC_ATOM_COUNT>
0
> <PUBCHEM_COMPONENT_COUNT>
1
> <PUBCHEM_CACTVS_TAUTO_COUNT>
-1
> <PUBCHEM_COORDINATE_TYPE>
1
5
255
> <PUBCHEM_BONDANNOTATIONS>
15  17  8
15  18  8
17  19  8
18  20  8
19  21  8
20  21  8
5  23  5
6  24  6
$$$$
