512497
  -OEChem-10302200282D
 91 90  0     1  0  0  0  0  0999 V2000
    3.4030   -1.7500    0.0000 S   0  0  0  0  0  0  0  0  0  0  0  0
   11.1972   -1.2500    0.0000 O   0  0  0  0  0  0  0  0  0  0  0  0
    8.5991    1.2500    0.0000 O   0  0  0  0  0  0  0  0  0  0  0  0
   13.7953    1.2500    0.0000 O   0  0  0  0  0  0  0  0  0  0  0  0
    6.0010   -1.2500    0.0000 O   0  0  0  0  0  0  0  0  0  0  0  0
   14.6613    1.7500    0.0000 O   0  0  0  0  0  0  0  0  0  0  0  0
   15.5273   -2.7500    0.0000 O   0  0  0  0  0  0  0  0  0  0  0  0
   16.3933   -1.2500    0.0000 O   0  0  0  0  0  0  0  0  0  0  0  0
    2.5369   -0.2500    0.0000 O   0  0  0  0  0  0  0  0  0  0  0  0
    3.4030    1.2500    0.0000 O   0  0  0  0  0  0  0  0  0  0  0  0
   19.8574    1.7500    0.0000 O   0  0  0  0  0  0  0  0  0  0  0  0
   18.9914    0.2500    0.0000 O   0  0  0  0  0  0  0  0  0  0  0  0
   10.3312    0.2500    0.0000 N   0  0  0  0  0  0  0  0  0  0  0  0
   12.9292   -0.2500    0.0000 N   0  0  0  0  0  0  0  0  0  0  0  0
    7.7331   -0.2500    0.0000 N   0  0  0  0  0  0  0  0  0  0  0  0
   15.5273    0.2500    0.0000 N   0  0  0  0  0  0  0  0  0  0  0  0
    5.1350    0.2500    0.0000 N   0  0  0  0  0  0  0  0  0  0  0  0
   16.3933    2.7500    0.0000 N   0  0  0  0  0  0  0  0  0  0  0  0
    9.4651   -0.2500    0.0000 C   0  0  1  0  0  0  0  0  0  0  0  0
    9.4651   -1.2500    0.0000 C   0  0  0  0  0  0  0  0  0  0  0  0
   12.0632    0.2500    0.0000 C   0  0  1  0  0  0  0  0  0  0  0  0
   12.0632    1.2500    0.0000 C   0  0  0  0  0  0  0  0  0  0  0  0
   11.1972   -0.2500    0.0000 C   0  0  0  0  0  0  0  0  0  0  0  0
    8.5991    0.2500    0.0000 C   0  0  0  0  0  0  0  0  0  0  0  0
    8.5991   -1.7500    0.0000 C   0  0  0  0  0  0  0  0  0  0  0  0
   10.3312   -1.7500    0.0000 C   0  0  0  0  0  0  0  0  0  0  0  0
   10.3312    1.2500    0.0000 C   0  0  0  0  0  0  0  0  0  0  0  0
   12.9292    1.7500    0.0000 C   0  0  0  0  0  0  0  0  0  0  0  0
   11.1972    1.7500    0.0000 C   0  0  0  0  0  0  0  0  0  0  0  0
    6.8671    0.2500    0.0000 C   0  0  1  0  0  0  0  0  0  0  0  0
   13.7953    0.2500    0.0000 C   0  0  0  0  0  0  0  0  0  0  0  0
   14.6613   -0.2500    0.0000 C   0  0  2  0  0  0  0  0  0  0  0  0
    6.8671    1.2500    0.0000 C   0  0  0  0  0  0  0  0  0  0  0  0
   14.6613   -1.2500    0.0000 C   0  0  0  0  0  0  0  0  0  0  0  0
    6.0010   -0.2500    0.0000 C   0  0  0  0  0  0  0  0  0  0  0  0
    6.0010    1.7500    0.0000 C   0  0  0  0  0  0  0  0  0  0  0  0
   16.3933    1.7500    0.0000 C   0  0  2  0  0  0  0  0  0  0  0  0
   15.5273    1.2500    0.0000 C   0  0  0  0  0  0  0  0  0  0  0  0
    4.2690   -0.2500    0.0000 C   0  0  1  0  0  0  0  0  0  0  0  0
   17.2594    1.2500    0.0000 C   0  0  0  0  0  0  0  0  0  0  0  0
   15.5273   -1.7500    0.0000 C   0  0  0  0  0  0  0  0  0  0  0  0
   18.1254    1.7500    0.0000 C   0  0  0  0  0  0  0  0  0  0  0  0
    4.2690   -1.2500    0.0000 C   0  0  0  0  0  0  0  0  0  0  0  0
    3.4030    0.2500    0.0000 C   0  0  0  0  0  0  0  0  0  0  0  0
   18.9914    1.2500    0.0000 C   0  0  0  0  0  0  0  0  0  0  0  0
    9.4651    0.3700    0.0000 H   0  0  0  0  0  0  0  0  0  0  0  0
   10.0021   -0.9400    0.0000 H   0  0  0  0  0  0  0  0  0  0  0  0
   12.0632   -0.3700    0.0000 H   0  0  0  0  0  0  0  0  0  0  0  0
   12.6002    0.9400    0.0000 H   0  0  0  0  0  0  0  0  0  0  0  0
    8.2891   -1.2131    0.0000 H   0  0  0  0  0  0  0  0  0  0  0  0
    8.0622   -2.0600    0.0000 H   0  0  0  0  0  0  0  0  0  0  0  0
    8.9091   -2.2869    0.0000 H   0  0  0  0  0  0  0  0  0  0  0  0
   10.0212   -2.2869    0.0000 H   0  0  0  0  0  0  0  0  0  0  0  0
   10.8681   -2.0600    0.0000 H   0  0  0  0  0  0  0  0  0  0  0  0
   10.6412   -1.2131    0.0000 H   0  0  0  0  0  0  0  0  0  0  0  0
   12.9292   -0.8700    0.0000 H   0  0  0  0  0  0  0  0  0  0  0  0
   10.9512    1.2500    0.0000 H   0  0  0  0  0  0  0  0  0  0  0  0
   10.3312    1.8700    0.0000 H   0  0  0  0  0  0  0  0  0  0  0  0
    9.7112    1.2500    0.0000 H   0  0  0  0  0  0  0  0  0  0  0  0
   13.2392    1.2131    0.0000 H   0  0  0  0  0  0  0  0  0  0  0  0
   13.4662    2.0600    0.0000 H   0  0  0  0  0  0  0  0  0  0  0  0
   12.6192    2.2869    0.0000 H   0  0  0  0  0  0  0  0  0  0  0  0
   11.5072    2.2869    0.0000 H   0  0  0  0  0  0  0  0  0  0  0  0
   10.6603    2.0600    0.0000 H   0  0  0  0  0  0  0  0  0  0  0  0
   10.8872    1.2131    0.0000 H   0  0  0  0  0  0  0  0  0  0  0  0
    7.4040    0.5600    0.0000 H   0  0  0  0  0  0  0  0  0  0  0  0
    7.7331   -0.8700    0.0000 H   0  0  0  0  0  0  0  0  0  0  0  0
   14.6613    0.3700    0.0000 H   0  0  0  0  0  0  0  0  0  0  0  0
    7.4776    1.1423    0.0000 H   0  0  0  0  0  0  0  0  0  0  0  0
    7.0791    1.8326    0.0000 H   0  0  0  0  0  0  0  0  0  0  0  0
   14.0507   -1.1423    0.0000 H   0  0  0  0  0  0  0  0  0  0  0  0
   14.4492   -1.8326    0.0000 H   0  0  0  0  0  0  0  0  0  0  0  0
   16.0643   -0.0600    0.0000 H   0  0  0  0  0  0  0  0  0  0  0  0
    6.3110    2.2869    0.0000 H   0  0  0  0  0  0  0  0  0  0  0  0
    5.4641    2.0600    0.0000 H   0  0  0  0  0  0  0  0  0  0  0  0
    5.6910    1.2131    0.0000 H   0  0  0  0  0  0  0  0  0  0  0  0
   16.9303    2.0600    0.0000 H   0  0  0  0  0  0  0  0  0  0  0  0
    5.1350    0.8700    0.0000 H   0  0  0  0  0  0  0  0  0  0  0  0
    4.2690    0.3700    0.0000 H   0  0  0  0  0  0  0  0  0  0  0  0
   16.8608    0.7751    0.0000 H   0  0  0  0  0  0  0  0  0  0  0  0
   17.6579    0.7751    0.0000 H   0  0  0  0  0  0  0  0  0  0  0  0
   18.5239    2.2250    0.0000 H   0  0  0  0  0  0  0  0  0  0  0  0
   17.7269    2.2250    0.0000 H   0  0  0  0  0  0  0  0  0  0  0  0
    4.4810   -1.8326    0.0000 H   0  0  0  0  0  0  0  0  0  0  0  0
    4.8796   -1.1423    0.0000 H   0  0  0  0  0  0  0  0  0  0  0  0
   16.9303    3.0600    0.0000 H   0  0  0  0  0  0  0  0  0  0  0  0
   15.8564    3.0600    0.0000 H   0  0  0  0  0  0  0  0  0  0  0  0
   16.0643   -3.0600    0.0000 H   0  0  0  0  0  0  0  0  0  0  0  0
    3.4030   -2.3700    0.0000 H   0  0  0  0  0  0  0  0  0  0  0  0
    2.0000    0.0600    0.0000 H   0  0  0  0  0  0  0  0  0  0  0  0
   20.3944    1.4400    0.0000 H   0  0  0  0  0  0  0  0  0  0  0  0
  1 43  1  0  0  0  0
  1 89  1  0  0  0  0
  2 23  2  0  0  0  0
  3 24  2  0  0  0  0
  4 31  2  0  0  0  0
  5 35  2  0  0  0  0
  6 38  2  0  0  0  0
  7 41  1  0  0  0  0
  7 88  1  0  0  0  0
  8 41  2  0  0  0  0
  9 44  1  0  0  0  0
  9 90  1  0  0  0  0
 10 44  2  0  0  0  0
 11 45  1  0  0  0  0
 11 91  1  0  0  0  0
 12 45  2  0  0  0  0
 19 13  1  1  0  0  0
 13 23  1  0  0  0  0
 13 27  1  0  0  0  0
 21 14  1  6  0  0  0
 14 31  1  0  0  0  0
 14 56  1  0  0  0  0
 15 24  1  0  0  0  0
 30 15  1  6  0  0  0
 15 67  1  0  0  0  0
 32 16  1  1  0  0  0
 16 38  1  0  0  0  0
 16 73  1  0  0  0  0
 17 35  1  0  0  0  0
 39 17  1  1  0  0  0
 17 78  1  0  0  0  0
 37 18  1  1  0  0  0
 18 86  1  0  0  0  0
 18 87  1  0  0  0  0
 19 20  1  0  0  0  0
 19 24  1  0  0  0  0
 19 46  1  0  0  0  0
 20 25  1  0  0  0  0
 20 26  1  0  0  0  0
 20 47  1  0  0  0  0
 21 22  1  0  0  0  0
 21 23  1  0  0  0  0
 21 48  1  0  0  0  0
 22 28  1  0  0  0  0
 22 29  1  0  0  0  0
 22 49  1  0  0  0  0
 25 50  1  0  0  0  0
 25 51  1  0  0  0  0
 25 52  1  0  0  0  0
 26 53  1  0  0  0  0
 26 54  1  0  0  0  0
 26 55  1  0  0  0  0
 27 57  1  0  0  0  0
 27 58  1  0  0  0  0
 27 59  1  0  0  0  0
 28 60  1  0  0  0  0
 28 61  1  0  0  0  0
 28 62  1  0  0  0  0
 29 63  1  0  0  0  0
 29 64  1  0  0  0  0
 29 65  1  0  0  0  0
 30 33  1  0  0  0  0
 30 35  1  0  0  0  0
 30 66  1  0  0  0  0
 31 32  1  0  0  0  0
 32 34  1  0  0  0  0
 32 68  1  0  0  0  0
 33 36  1  0  0  0  0
 33 69  1  0  0  0  0
 33 70  1  0  0  0  0
 34 41  1  0  0  0  0
 34 71  1  0  0  0  0
 34 72  1  0  0  0  0
 36 74  1  0  0  0  0
 36 75  1  0  0  0  0
 36 76  1  0  0  0  0
 37 38  1  0  0  0  0
 37 40  1  0  0  0  0
 37 77  1  0  0  0  0
 39 43  1  0  0  0  0
 39 44  1  0  0  0  0
 39 79  1  0  0  0  0
 40 42  1  0  0  0  0
 40 80  1  0  0  0  0
 40 81  1  0  0  0  0
 42 45  1  0  0  0  0
 42 82  1  0  0  0  0
 42 83  1  0  0  0  0
 43 84  1  0  0  0  0
 43 85  1  0  0  0  0
M  END
> <PUBCHEM_COMPOUND_CID>
512497
> <PUBCHEM_COMPOUND_CANONICALIZED>
1
> <PUBCHEM_CACTVS_COMPLEXITY>
1100
> <PUBCHEM_CACTVS_HBOND_ACCEPTOR>
13
> <PUBCHEM_CACTVS_HBOND_DONOR>
9
> <PUBCHEM_CACTVS_ROTATABLE_BOND>
20
> <PUBCHEM_CACTVS_SUBSKEYS>
AAADcfB7vABAAAAAAAAAAAAAAAAAAAAAAAAAAAAAAAAAAAAAAAAAHgQQCAAADSjFwASCCAPAAgQIAAGQGAAAAAAAAAAAAIGIAAACQBoAgCAUQAAGFgCQAAC/FwIIAAAAAAAAAAAAAAAAAAAAAAAAAAAAAA==
> <PUBCHEM_IUPAC_OPENEYE_NAME>
(4S)-4-amino-5-[[(1S)-1-(carboxymethyl)-2-[[(1S)-1-[[(1S)-1-[[(1S)-1-[[(1R)-1-carboxy-2-sulfanyl-ethyl]carbamoyl]propyl]carbamoyl]-2-methyl-propyl]-methyl-carbamoyl]-2-methyl-propyl]amino]-2-oxo-ethyl]amino]-5-oxo-pentanoic acid
> <PUBCHEM_IUPAC_CAS_NAME>
(4S)-4-amino-5-[[(2S)-3-carboxy-1-[[(2S)-1-[[(2S)-1-[[(2S)-1-[[(1R)-1-carboxy-2-mercaptoethyl]amino]-1-oxobutan-2-yl]amino]-3-methyl-1-oxobutan-2-yl]-methylamino]-3-methyl-1-oxobutan-2-yl]amino]-1-oxopropan-2-yl]amino]-5-oxopentanoic acid
> <PUBCHEM_IUPAC_NAME_MARKUP>
(4<I>S</I>)-4-amino-5-[[(2<I>S</I>)-3-carboxy-1-[[(2<I>S</I>)-1-[[(2<I>S</I>)-1-[[(2<I>S</I>)-1-[[(1<I>R</I>)-1-carboxy-2-sulfanylethyl]amino]-1-oxobutan-2-yl]amino]-3-methyl-1-oxobutan-2-yl]-methylamino]-3-methyl-1-oxobutan-2-yl]amino]-1-oxopropan-2-yl]amino]-5-oxopentanoic acid
> <PUBCHEM_IUPAC_NAME>
(4S)-4-amino-5-[[(2S)-3-carboxy-1-[[(2S)-1-[[(2S)-1-[[(2S)-1-[[(1R)-1-carboxy-2-sulfanylethyl]amino]-1-oxobutan-2-yl]amino]-3-methyl-1-oxobutan-2-yl]-methylamino]-3-methyl-1-oxobutan-2-yl]amino]-1-oxopropan-2-yl]amino]-5-oxopentanoic acid
> <PUBCHEM_IUPAC_SYSTEMATIC_NAME>
(4S)-4-azanyl-5-[[(2S)-1-[[(2S)-3-methyl-1-[methyl-[(2S)-3-methyl-1-oxidanylidene-1-[[(2S)-1-oxidanylidene-1-[[(2R)-1-oxidanyl-1-oxidanylidene-3-sulfanyl-propan-2-yl]amino]butan-2-yl]amino]butan-2-yl]amino]-1-oxidanylidene-butan-2-yl]amino]-4-oxidanyl-1,4-bis(oxidanylidene)butan-2-yl]amino]-5-oxidanylidene-pentanoic acid
> <PUBCHEM_IUPAC_TRADITIONAL_NAME>
(4S)-4-amino-5-[[(1S)-2-[[(1S)-1-[[(1S)-1-[[(1S)-1-[[(1R)-1-carboxy-2-mercapto-ethyl]carbamoyl]propyl]carbamoyl]-2-methyl-propyl]-methyl-carbamoyl]-2-methyl-propyl]amino]-1-(carboxymethyl)-2-keto-ethyl]amino]-5-keto-valeric acid
> <PUBCHEM_IUPAC_INCHI>
InChI=1S/C27H46N6O11S/c1-7-15(23(39)31-17(11-45)27(43)44)29-25(41)21(13(4)5)33(6)26(42)20(12(2)3)32-24(40)16(10-19(36)37)30-22(38)14(28)8-9-18(34)35/h12-17,20-21,45H,7-11,28H2,1-6H3,(H,29,41)(H,30,38)(H,31,39)(H,32,40)(H,34,35)(H,36,37)(H,43,44)/t14-,15-,16-,17-,20-,21-/m0/s1
> <PUBCHEM_IUPAC_INCHIKEY>
SVMGSJRLHXSRIA-KZVLABISSA-N
> <PUBCHEM_XLOGP3_AA>
-3.1
> <PUBCHEM_EXACT_MASS>
662.29452748
> <PUBCHEM_MOLECULAR_FORMULA>
C27H46N6O11S
> <PUBCHEM_MOLECULAR_WEIGHT>
662.8
> <PUBCHEM_OPENEYE_CAN_SMILES>
CCC(C(=O)NC(CS)C(=O)O)NC(=O)C(C(C)C)N(C)C(=O)C(C(C)C)NC(=O)C(CC(=O)O)NC(=O)C(CCC(=O)O)N
> <PUBCHEM_OPENEYE_ISO_SMILES>
CC[C@@H](C(=O)N[C@@H](CS)C(=O)O)NC(=O)[C@H](C(C)C)N(C)C(=O)[C@H](C(C)C)NC(=O)[C@H](CC(=O)O)NC(=O)[C@H](CCC(=O)O)N
> <PUBCHEM_CACTVS_TPSA>
276
> <PUBCHEM_MONOISOTOPIC_WEIGHT>
662.29452748
> <PUBCHEM_TOTAL_CHARGE>
0
> <PUBCHEM_HEAVY_ATOM_COUNT>
45
> <PUBCHEM_ATOM_DEF_STEREO_COUNT>
6
> <PUBCHEM_ATOM_UDEF_STEREO_COUNT>
0
> <PUBCHEM_BOND_DEF_STEREO_COUNT>
0
> <PUBCHEM_BOND_UDEF_STEREO_COUNT>
0
> <PUBCHEM_ISOTOPIC_ATOM_COUNT>
0
> <PUBCHEM_COMPONENT_COUNT>
1
> <PUBCHEM_CACTVS_TAUTO_COUNT>
-1
> <PUBCHEM_COORDINATE_TYPE>
1
5
255
> <PUBCHEM_BONDANNOTATIONS>
19  13  5
21  14  6
30  15  6
32  16  5
39  17  5
37  18  5
$$$$
