512561
  -OEChem-10302200282D
 32 34  0     1  0  0  0  0  0999 V2000
    6.1509    1.3682    0.0000 S   0  0  0  0  0  0  0  0  0  0  0  0
    5.1133    3.0443    0.0000 O   0  0  0  0  0  0  0  0  0  0  0  0
    6.7928   -2.6340    0.0000 O   0  0  0  0  0  0  0  0  0  0  0  0
    3.9213    0.0787    0.0000 N   0  0  0  0  0  0  0  0  0  0  0  0
    3.6279    2.2671    0.0000 N   0  0  0  0  0  0  0  0  0  0  0  0
    2.9511    1.5572    0.0000 C   0  0  2  0  0  0  0  0  0  0  0  0
    3.0814    0.5851    0.0000 C   0  0  0  0  0  0  0  0  0  0  0  0
    4.8419    0.4171    0.0000 C   0  0  0  0  0  0  0  0  0  0  0  0
    5.6509   -0.1706    0.0000 C   0  0  0  0  0  0  0  0  0  0  0  0
    5.1509    1.3682    0.0000 C   0  0  0  0  0  0  0  0  0  0  0  0
    6.4599    0.4171    0.0000 C   0  0  0  0  0  0  0  0  0  0  0  0
    4.6051    2.1831    0.0000 C   0  0  0  0  0  0  0  0  0  0  0  0
    2.0000    1.8663    0.0000 C   0  0  0  0  0  0  0  0  0  0  0  0
    5.7438   -1.2081    0.0000 C   0  0  0  0  0  0  0  0  0  0  0  0
    7.4179    0.0082    0.0000 C   0  0  0  0  0  0  0  0  0  0  0  0
    6.6921   -1.6391    0.0000 C   0  0  0  0  0  0  0  0  0  0  0  0
    7.5348   -1.0269    0.0000 C   0  0  0  0  0  0  0  0  0  0  0  0
    7.7047   -3.0443    0.0000 C   0  0  0  0  0  0  0  0  0  0  0  0
    2.7992    2.1583    0.0000 H   0  0  0  0  0  0  0  0  0  0  0  0
    2.4640    0.6421    0.0000 H   0  0  0  0  0  0  0  0  0  0  0  0
    2.8880   -0.0039    0.0000 H   0  0  0  0  0  0  0  0  0  0  0  0
    3.8624   -0.5385    0.0000 H   0  0  0  0  0  0  0  0  0  0  0  0
    3.4085    2.8469    0.0000 H   0  0  0  0  0  0  0  0  0  0  0  0
    2.1916    2.4559    0.0000 H   0  0  0  0  0  0  0  0  0  0  0  0
    1.4103    2.0578    0.0000 H   0  0  0  0  0  0  0  0  0  0  0  0
    1.8084    1.2766    0.0000 H   0  0  0  0  0  0  0  0  0  0  0  0
    5.2380   -1.5667    0.0000 H   0  0  0  0  0  0  0  0  0  0  0  0
    7.9152    0.3784    0.0000 H   0  0  0  0  0  0  0  0  0  0  0  0
    8.1021   -1.2768    0.0000 H   0  0  0  0  0  0  0  0  0  0  0  0
    7.4504   -3.6097    0.0000 H   0  0  0  0  0  0  0  0  0  0  0  0
    8.2702   -3.2986    0.0000 H   0  0  0  0  0  0  0  0  0  0  0  0
    7.9591   -2.4789    0.0000 H   0  0  0  0  0  0  0  0  0  0  0  0
  1 10  1  0  0  0  0
  1 11  1  0  0  0  0
  2 12  2  0  0  0  0
  3 16  1  0  0  0  0
  3 18  1  0  0  0  0
  4  7  1  0  0  0  0
  4  8  1  0  0  0  0
  4 22  1  0  0  0  0
  5  6  1  0  0  0  0
  5 12  1  0  0  0  0
  5 23  1  0  0  0  0
  6  7  1  0  0  0  0
  6 13  1  6  0  0  0
  6 19  1  0  0  0  0
  7 20  1  0  0  0  0
  7 21  1  0  0  0  0
  8  9  1  0  0  0  0
  8 10  2  0  0  0  0
  9 11  2  0  0  0  0
  9 14  1  0  0  0  0
 10 12  1  0  0  0  0
 11 15  1  0  0  0  0
 13 24  1  0  0  0  0
 13 25  1  0  0  0  0
 13 26  1  0  0  0  0
 14 16  2  0  0  0  0
 14 27  1  0  0  0  0
 15 17  2  0  0  0  0
 15 28  1  0  0  0  0
 16 17  1  0  0  0  0
 17 29  1  0  0  0  0
 18 30  1  0  0  0  0
 18 31  1  0  0  0  0
 18 32  1  0  0  0  0
M  END
> <PUBCHEM_COMPOUND_CID>
512561
> <PUBCHEM_COMPOUND_CANONICALIZED>
1
> <PUBCHEM_CACTVS_COMPLEXITY>
339
> <PUBCHEM_CACTVS_HBOND_ACCEPTOR>
4
> <PUBCHEM_CACTVS_HBOND_DONOR>
2
> <PUBCHEM_CACTVS_ROTATABLE_BOND>
1
> <PUBCHEM_CACTVS_SUBSKEYS>
AAADccBzMABAAAAAAAAAAAAAAAAAASAAAAAwAAAABYAAAEix8AAAHgQQAAAADCzB2AYyx8LABAiMAiVSUACDCIAlKBBIiJ0OTMgMZjrk9ZuUMaxk1hHo6Ue4yLCOAIABAAAEAAABAAIAAAgAAAAAAAAAAA==
> <PUBCHEM_IUPAC_OPENEYE_NAME>
(3S)-9-methoxy-3-methyl-1,2,3,4-tetrahydrobenzothiopheno[3,2-e][1,4]diazepin-5-one
> <PUBCHEM_IUPAC_CAS_NAME>
(3S)-9-methoxy-3-methyl-1,2,3,4-tetrahydro-[1]benzothiolo[3,2-e][1,4]diazepin-5-one
> <PUBCHEM_IUPAC_NAME_MARKUP>
(3<I>S</I>)-9-methoxy-3-methyl-1,2,3,4-tetrahydro-[1]benzothiolo[3,2-e][1,4]diazepin-5-one
> <PUBCHEM_IUPAC_NAME>
(3S)-9-methoxy-3-methyl-1,2,3,4-tetrahydro-[1]benzothiolo[3,2-e][1,4]diazepin-5-one
> <PUBCHEM_IUPAC_SYSTEMATIC_NAME>
(3S)-9-methoxy-3-methyl-1,2,3,4-tetrahydro-[1]benzothiolo[3,2-e][1,4]diazepin-5-one
> <PUBCHEM_IUPAC_TRADITIONAL_NAME>
(3S)-9-methoxy-3-methyl-1,2,3,4-tetrahydrobenzothiopheno[3,2-e][1,4]diazepin-5-one
> <PUBCHEM_IUPAC_INCHI>
InChI=1S/C13H14N2O2S/c1-7-6-14-11-9-5-8(17-2)3-4-10(9)18-12(11)13(16)15-7/h3-5,7,14H,6H2,1-2H3,(H,15,16)/t7-/m0/s1
> <PUBCHEM_IUPAC_INCHIKEY>
QAQKNZRNOQBKRE-ZETCQYMHSA-N
> <PUBCHEM_XLOGP3_AA>
2.7
> <PUBCHEM_EXACT_MASS>
262.07759887
> <PUBCHEM_MOLECULAR_FORMULA>
C13H14N2O2S
> <PUBCHEM_MOLECULAR_WEIGHT>
262.33
> <PUBCHEM_OPENEYE_CAN_SMILES>
CC1CNC2=C(C(=O)N1)SC3=C2C=C(C=C3)OC
> <PUBCHEM_OPENEYE_ISO_SMILES>
C[C@H]1CNC2=C(C(=O)N1)SC3=C2C=C(C=C3)OC
> <PUBCHEM_CACTVS_TPSA>
78.6
> <PUBCHEM_MONOISOTOPIC_WEIGHT>
262.07759887
> <PUBCHEM_TOTAL_CHARGE>
0
> <PUBCHEM_HEAVY_ATOM_COUNT>
18
> <PUBCHEM_ATOM_DEF_STEREO_COUNT>
1
> <PUBCHEM_ATOM_UDEF_STEREO_COUNT>
0
> <PUBCHEM_BOND_DEF_STEREO_COUNT>
0
> <PUBCHEM_BOND_UDEF_STEREO_COUNT>
0
> <PUBCHEM_ISOTOPIC_ATOM_COUNT>
0
> <PUBCHEM_COMPONENT_COUNT>
1
> <PUBCHEM_CACTVS_TAUTO_COUNT>
-1
> <PUBCHEM_COORDINATE_TYPE>
1
5
255
> <PUBCHEM_BONDANNOTATIONS>
1  10  8
1  11  8
11  15  8
14  16  8
15  17  8
16  17  8
6  13  6
8  10  8
8  9  8
9  11  8
9  14  8
$$$$
