512526
  -OEChem-10302200282D
 98 98  0     1  0  0  0  0  0999 V2000
   10.6381    3.3533    0.0000 S   0  0  0  0  0  0  0  0  0  0  0  0
    2.3644   -2.2053    0.0000 O   0  0  0  0  0  0  0  0  0  0  0  0
    3.7657   -1.1872    0.0000 O   0  0  0  0  0  0  0  0  0  0  0  0
    5.9358   -3.1189    0.0000 O   0  0  0  0  0  0  0  0  0  0  0  0
    7.2924    0.2217    0.0000 O   0  0  0  0  0  0  0  0  0  0  0  0
    6.4789    2.0488    0.0000 O   0  0  0  0  0  0  0  0  0  0  0  0
    4.8966    1.3443    0.0000 O   0  0  0  0  0  0  0  0  0  0  0  0
   10.6827   -1.0054    0.0000 O   0  0  0  0  0  0  0  0  0  0  0  0
   12.0393    2.3352    0.0000 O   0  0  0  0  0  0  0  0  0  0  0  0
   11.4962   -2.8325    0.0000 O   0  0  0  0  0  0  0  0  0  0  0  0
    9.9139   -3.5370    0.0000 O   0  0  0  0  0  0  0  0  0  0  0  0
   15.4296    1.1081    0.0000 O   0  0  0  0  0  0  0  0  0  0  0  0
   16.2431   -0.7190    0.0000 O   0  0  0  0  0  0  0  0  0  0  0  0
   14.6608   -1.4235    0.0000 O   0  0  0  0  0  0  0  0  0  0  0  0
   18.1875    3.4306    0.0000 O   0  0  0  0  0  0  0  0  0  0  0  0
   16.7862    4.4487    0.0000 O   0  0  0  0  0  0  0  0  0  0  0  0
    4.5345   -2.1008    0.0000 N   0  0  0  0  0  0  0  0  0  0  0  0
    7.1114   -1.5008    0.0000 N   0  0  0  0  0  0  0  0  0  0  0  0
    9.2814    0.0127    0.0000 N   0  0  0  0  0  0  0  0  0  0  0  0
   11.8583    0.6126    0.0000 N   0  0  0  0  0  0  0  0  0  0  0  0
   14.0284    2.1261    0.0000 N   0  0  0  0  0  0  0  0  0  0  0  0
   15.2039    3.7442    0.0000 N   0  0  0  0  0  0  0  0  0  0  0  0
    3.9467   -2.9098    0.0000 C   0  0  0  0  0  0  0  0  0  0  0  0
    3.1377   -3.4976    0.0000 C   0  0  0  0  0  0  0  0  0  0  0  0
    4.7558   -3.4976    0.0000 C   0  0  0  0  0  0  0  0  0  0  0  0
    3.4467   -4.4487    0.0000 C   0  0  0  0  0  0  0  0  0  0  0  0
    4.4467   -4.4487    0.0000 C   0  0  0  0  0  0  0  0  0  0  0  0
    3.3590   -2.1008    0.0000 C   0  0  0  0  0  0  0  0  0  0  0  0
    5.5290   -2.2053    0.0000 C   0  0  0  0  0  0  0  0  0  0  0  0
    6.1168   -1.3963    0.0000 C   0  0  2  0  0  0  0  0  0  0  0  0
    5.7101   -0.4828    0.0000 C   0  0  0  0  0  0  0  0  0  0  0  0
    6.2979    0.3263    0.0000 C   0  0  0  0  0  0  0  0  0  0  0  0
    7.6991   -0.6918    0.0000 C   0  0  0  0  0  0  0  0  0  0  0  0
    8.6937   -0.7963    0.0000 C   0  0  2  0  0  0  0  0  0  0  0  0
    9.1004   -1.7099    0.0000 C   0  0  0  0  0  0  0  0  0  0  0  0
    5.8911    1.2398    0.0000 C   0  0  0  0  0  0  0  0  0  0  0  0
   10.8637    0.7172    0.0000 C   0  0  2  0  0  0  0  0  0  0  0  0
   10.2760   -0.0919    0.0000 C   0  0  0  0  0  0  0  0  0  0  0  0
   10.0949   -1.8144    0.0000 C   0  0  0  0  0  0  0  0  0  0  0  0
   10.4570    1.6307    0.0000 C   0  0  0  0  0  0  0  0  0  0  0  0
   13.4406    1.3171    0.0000 C   0  0  2  0  0  0  0  0  0  0  0  0
   12.4461    1.4216    0.0000 C   0  0  0  0  0  0  0  0  0  0  0  0
   13.8473    0.4036    0.0000 C   0  0  0  0  0  0  0  0  0  0  0  0
   11.0448    2.4397    0.0000 C   0  0  0  0  0  0  0  0  0  0  0  0
   10.5017   -2.7280    0.0000 C   0  0  0  0  0  0  0  0  0  0  0  0
   14.8418    0.2990    0.0000 C   0  0  0  0  0  0  0  0  0  0  0  0
   15.0229    2.0216    0.0000 C   0  0  0  0  0  0  0  0  0  0  0  0
   15.6107    2.8306    0.0000 C   0  0  2  0  0  0  0  0  0  0  0  0
   16.6052    2.7261    0.0000 C   0  0  0  0  0  0  0  0  0  0  0  0
   15.2486   -0.6145    0.0000 C   0  0  0  0  0  0  0  0  0  0  0  0
   11.2258    4.1623    0.0000 C   0  0  0  0  0  0  0  0  0  0  0  0
   17.1930    3.5351    0.0000 C   0  0  0  0  0  0  0  0  0  0  0  0
    2.8277   -2.9607    0.0000 H   0  0  0  0  0  0  0  0  0  0  0  0
    2.5713   -3.7498    0.0000 H   0  0  0  0  0  0  0  0  0  0  0  0
    5.3222   -3.7498    0.0000 H   0  0  0  0  0  0  0  0  0  0  0  0
    5.0658   -2.9607    0.0000 H   0  0  0  0  0  0  0  0  0  0  0  0
    2.8403   -4.5776    0.0000 H   0  0  0  0  0  0  0  0  0  0  0  0
    3.5115   -5.0653    0.0000 H   0  0  0  0  0  0  0  0  0  0  0  0
    4.3819   -5.0653    0.0000 H   0  0  0  0  0  0  0  0  0  0  0  0
    5.0532   -4.5776    0.0000 H   0  0  0  0  0  0  0  0  0  0  0  0
    4.2823   -1.5344    0.0000 H   0  0  0  0  0  0  0  0  0  0  0  0
    6.4812   -0.8947    0.0000 H   0  0  0  0  0  0  0  0  0  0  0  0
    5.2794   -0.0368    0.0000 H   0  0  0  0  0  0  0  0  0  0  0  0
    5.1961   -0.8295    0.0000 H   0  0  0  0  0  0  0  0  0  0  0  0
    2.0000   -1.7037    0.0000 H   0  0  0  0  0  0  0  0  0  0  0  0
    7.3635   -2.0672    0.0000 H   0  0  0  0  0  0  0  0  0  0  0  0
    6.7286   -0.1197    0.0000 H   0  0  0  0  0  0  0  0  0  0  0  0
    6.8119    0.6730    0.0000 H   0  0  0  0  0  0  0  0  0  0  0  0
    8.4415   -0.2300    0.0000 H   0  0  0  0  0  0  0  0  0  0  0  0
    8.4988   -1.8599    0.0000 H   0  0  0  0  0  0  0  0  0  0  0  0
    9.1436   -2.3284    0.0000 H   0  0  0  0  0  0  0  0  0  0  0  0
    9.0293    0.5791    0.0000 H   0  0  0  0  0  0  0  0  0  0  0  0
   11.2282    1.2188    0.0000 H   0  0  0  0  0  0  0  0  0  0  0  0
   10.6965   -1.6644    0.0000 H   0  0  0  0  0  0  0  0  0  0  0  0
   10.0517   -1.1959    0.0000 H   0  0  0  0  0  0  0  0  0  0  0  0
   10.0263    2.0767    0.0000 H   0  0  0  0  0  0  0  0  0  0  0  0
    9.9430    1.2840    0.0000 H   0  0  0  0  0  0  0  0  0  0  0  0
   12.1104    0.0462    0.0000 H   0  0  0  0  0  0  0  0  0  0  0  0
   13.1884    1.8835    0.0000 H   0  0  0  0  0  0  0  0  0  0  0  0
   13.2457    0.2536    0.0000 H   0  0  0  0  0  0  0  0  0  0  0  0
   13.8906   -0.2149    0.0000 H   0  0  0  0  0  0  0  0  0  0  0  0
   11.4755    1.9937    0.0000 H   0  0  0  0  0  0  0  0  0  0  0  0
   11.5588    2.7864    0.0000 H   0  0  0  0  0  0  0  0  0  0  0  0
   13.7762    2.6925    0.0000 H   0  0  0  0  0  0  0  0  0  0  0  0
    6.2268    2.6152    0.0000 H   0  0  0  0  0  0  0  0  0  0  0  0
   15.4434    0.4490    0.0000 H   0  0  0  0  0  0  0  0  0  0  0  0
   14.7986    0.9175    0.0000 H   0  0  0  0  0  0  0  0  0  0  0  0
   14.9941    2.8954    0.0000 H   0  0  0  0  0  0  0  0  0  0  0  0
   16.4343    2.1301    0.0000 H   0  0  0  0  0  0  0  0  0  0  0  0
   17.1624    2.4543    0.0000 H   0  0  0  0  0  0  0  0  0  0  0  0
   11.7483   -3.3989    0.0000 H   0  0  0  0  0  0  0  0  0  0  0  0
   11.7274    3.7978    0.0000 H   0  0  0  0  0  0  0  0  0  0  0  0
   11.5903    4.6639    0.0000 H   0  0  0  0  0  0  0  0  0  0  0  0
   10.7243    4.5267    0.0000 H   0  0  0  0  0  0  0  0  0  0  0  0
   15.5684    4.2458    0.0000 H   0  0  0  0  0  0  0  0  0  0  0  0
   14.5873    3.8090    0.0000 H   0  0  0  0  0  0  0  0  0  0  0  0
   16.4953   -1.2854    0.0000 H   0  0  0  0  0  0  0  0  0  0  0  0
   18.5519    3.9322    0.0000 H   0  0  0  0  0  0  0  0  0  0  0  0
  1 44  1  0  0  0  0
  1 51  1  0  0  0  0
  2 28  1  0  0  0  0
  2 65  1  0  0  0  0
  3 28  2  0  0  0  0
  4 29  2  0  0  0  0
  5 33  2  0  0  0  0
  6 36  1  0  0  0  0
  6 85  1  0  0  0  0
  7 36  2  0  0  0  0
  8 38  2  0  0  0  0
  9 42  2  0  0  0  0
 10 45  1  0  0  0  0
 10 91  1  0  0  0  0
 11 45  2  0  0  0  0
 12 47  2  0  0  0  0
 13 50  1  0  0  0  0
 13 97  1  0  0  0  0
 14 50  2  0  0  0  0
 15 52  1  0  0  0  0
 15 98  1  0  0  0  0
 16 52  2  0  0  0  0
 17 23  1  0  0  0  0
 17 29  1  0  0  0  0
 17 61  1  0  0  0  0
 30 18  1  6  0  0  0
 18 33  1  0  0  0  0
 18 66  1  0  0  0  0
 34 19  1  1  0  0  0
 19 38  1  0  0  0  0
 19 72  1  0  0  0  0
 37 20  1  6  0  0  0
 20 42  1  0  0  0  0
 20 78  1  0  0  0  0
 41 21  1  1  0  0  0
 21 47  1  0  0  0  0
 21 84  1  0  0  0  0
 48 22  1  1  0  0  0
 22 95  1  0  0  0  0
 22 96  1  0  0  0  0
 23 24  1  0  0  0  0
 23 25  1  0  0  0  0
 23 28  1  0  0  0  0
 24 26  1  0  0  0  0
 24 53  1  0  0  0  0
 24 54  1  0  0  0  0
 25 27  1  0  0  0  0
 25 55  1  0  0  0  0
 25 56  1  0  0  0  0
 26 27  1  0  0  0  0
 26 57  1  0  0  0  0
 26 58  1  0  0  0  0
 27 59  1  0  0  0  0
 27 60  1  0  0  0  0
 29 30  1  0  0  0  0
 30 31  1  0  0  0  0
 30 62  1  0  0  0  0
 31 32  1  0  0  0  0
 31 63  1  0  0  0  0
 31 64  1  0  0  0  0
 32 36  1  0  0  0  0
 32 67  1  0  0  0  0
 32 68  1  0  0  0  0
 33 34  1  0  0  0  0
 34 35  1  0  0  0  0
 34 69  1  0  0  0  0
 35 39  1  0  0  0  0
 35 70  1  0  0  0  0
 35 71  1  0  0  0  0
 37 38  1  0  0  0  0
 37 40  1  0  0  0  0
 37 73  1  0  0  0  0
 39 45  1  0  0  0  0
 39 74  1  0  0  0  0
 39 75  1  0  0  0  0
 40 44  1  0  0  0  0
 40 76  1  0  0  0  0
 40 77  1  0  0  0  0
 41 42  1  0  0  0  0
 41 43  1  0  0  0  0
 41 79  1  0  0  0  0
 43 46  1  0  0  0  0
 43 80  1  0  0  0  0
 43 81  1  0  0  0  0
 44 82  1  0  0  0  0
 44 83  1  0  0  0  0
 46 50  1  0  0  0  0
 46 86  1  0  0  0  0
 46 87  1  0  0  0  0
 47 48  1  0  0  0  0
 48 49  1  0  0  0  0
 48 88  1  0  0  0  0
 49 52  1  0  0  0  0
 49 89  1  0  0  0  0
 49 90  1  0  0  0  0
 51 92  1  0  0  0  0
 51 93  1  0  0  0  0
 51 94  1  0  0  0  0
M  END
> <PUBCHEM_COMPOUND_CID>
512526
> <PUBCHEM_COMPOUND_CANONICALIZED>
1
> <PUBCHEM_CACTVS_COMPLEXITY>
1360
> <PUBCHEM_CACTVS_HBOND_ACCEPTOR>
17
> <PUBCHEM_CACTVS_HBOND_DONOR>
11
> <PUBCHEM_CACTVS_ROTATABLE_BOND>
25
> <PUBCHEM_CACTVS_SUBSKEYS>
AAADcfB7vABAAAAAAAAAAAAAAAAAAYAAAAAAAAAAAAAAAAAAAAAAHgQQCAAADKjFwASCCALAAggIAAGQGAAAAAAAABAAAIGIAAACQBoggCAUQAAGFgCQAAG/XwIOAAAAAAAAAAAAAAAAAAAAAAAAAAAAAA==
> <PUBCHEM_IUPAC_OPENEYE_NAME>
1-[[(2S)-2-[[(2S)-2-[[(2S)-2-[[(2S)-2-[[(2S)-2-amino-3-carboxy-propanoyl]amino]-4-carboxy-butanoyl]amino]-4-methylsulfanyl-butanoyl]amino]-4-carboxy-butanoyl]amino]-4-carboxy-butanoyl]amino]cyclopentanecarboxylic acid
> <PUBCHEM_IUPAC_CAS_NAME>
1-[[(2S)-2-[[(2S)-2-[[(2S)-2-[[(2S)-2-[[(2S)-2-amino-3-carboxy-1-oxopropyl]amino]-4-carboxy-1-oxobutyl]amino]-4-(methylthio)-1-oxobutyl]amino]-4-carboxy-1-oxobutyl]amino]-4-carboxy-1-oxobutyl]amino]-1-cyclopentanecarboxylic acid
> <PUBCHEM_IUPAC_NAME_MARKUP>
1-[[(2<I>S</I>)-2-[[(2<I>S</I>)-2-[[(2<I>S</I>)-2-[[(2<I>S</I>)-2-[[(2<I>S</I>)-2-amino-3-carboxypropanoyl]amino]-4-carboxybutanoyl]amino]-4-methylsulfanylbutanoyl]amino]-4-carboxybutanoyl]amino]-4-carboxybutanoyl]amino]cyclopentane-1-carboxylic acid
> <PUBCHEM_IUPAC_NAME>
1-[[(2S)-2-[[(2S)-2-[[(2S)-2-[[(2S)-2-[[(2S)-2-amino-3-carboxypropanoyl]amino]-4-carboxybutanoyl]amino]-4-methylsulfanylbutanoyl]amino]-4-carboxybutanoyl]amino]-4-carboxybutanoyl]amino]cyclopentane-1-carboxylic acid
> <PUBCHEM_IUPAC_SYSTEMATIC_NAME>
1-[[(2S)-2-[[(2S)-2-[[(2S)-2-[[(2S)-2-[[(2S)-2-azanyl-4-oxidanyl-4-oxidanylidene-butanoyl]amino]-5-oxidanyl-5-oxidanylidene-pentanoyl]amino]-4-methylsulfanyl-butanoyl]amino]-5-oxidanyl-5-oxidanylidene-pentanoyl]amino]-5-oxidanyl-5-oxidanylidene-pentanoyl]amino]cyclopentane-1-carboxylic acid
> <PUBCHEM_IUPAC_TRADITIONAL_NAME>
1-[[(2S)-2-[[(2S)-2-[[(2S)-2-[[(2S)-2-[[(2S)-2-amino-3-carboxy-propanoyl]amino]-4-carboxy-butanoyl]amino]-4-(methylthio)butanoyl]amino]-4-carboxy-butanoyl]amino]-4-carboxy-butanoyl]amino]cyclopentanecarboxylic acid
> <PUBCHEM_IUPAC_INCHI>
InChI=1S/C30H46N6O15S/c1-52-13-10-19(35-25(46)16(4-7-20(37)38)32-24(45)15(31)14-23(43)44)27(48)33-17(5-8-21(39)40)26(47)34-18(6-9-22(41)42)28(49)36-30(29(50)51)11-2-3-12-30/h15-19H,2-14,31H2,1H3,(H,32,45)(H,33,48)(H,34,47)(H,35,46)(H,36,49)(H,37,38)(H,39,40)(H,41,42)(H,43,44)(H,50,51)/t15-,16-,17-,18-,19-/m0/s1
> <PUBCHEM_IUPAC_INCHIKEY>
VZQRSFQEKFMEJU-VMXHOPILSA-N
> <PUBCHEM_XLOGP3_AA>
-5.4
> <PUBCHEM_EXACT_MASS>
762.27418596
> <PUBCHEM_MOLECULAR_FORMULA>
C30H46N6O15S
> <PUBCHEM_MOLECULAR_WEIGHT>
762.8
> <PUBCHEM_OPENEYE_CAN_SMILES>
CSCCC(C(=O)NC(CCC(=O)O)C(=O)NC(CCC(=O)O)C(=O)NC1(CCCC1)C(=O)O)NC(=O)C(CCC(=O)O)NC(=O)C(CC(=O)O)N
> <PUBCHEM_OPENEYE_ISO_SMILES>
CSCC[C@@H](C(=O)N[C@@H](CCC(=O)O)C(=O)N[C@@H](CCC(=O)O)C(=O)NC1(CCCC1)C(=O)O)NC(=O)[C@H](CCC(=O)O)NC(=O)[C@H](CC(=O)O)N
> <PUBCHEM_CACTVS_TPSA>
383
> <PUBCHEM_MONOISOTOPIC_WEIGHT>
762.27418596
> <PUBCHEM_TOTAL_CHARGE>
0
> <PUBCHEM_HEAVY_ATOM_COUNT>
52
> <PUBCHEM_ATOM_DEF_STEREO_COUNT>
5
> <PUBCHEM_ATOM_UDEF_STEREO_COUNT>
0
> <PUBCHEM_BOND_DEF_STEREO_COUNT>
0
> <PUBCHEM_BOND_UDEF_STEREO_COUNT>
0
> <PUBCHEM_ISOTOPIC_ATOM_COUNT>
0
> <PUBCHEM_COMPONENT_COUNT>
1
> <PUBCHEM_CACTVS_TAUTO_COUNT>
-1
> <PUBCHEM_COORDINATE_TYPE>
1
5
255
> <PUBCHEM_BONDANNOTATIONS>
30  18  6
34  19  5
37  20  6
41  21  5
48  22  5
$$$$
