512539
  -OEChem-10302200282D
108109  0     1  0  0  0  0  0999 V2000
    2.5369    2.9400    0.0000 S   0  0  0  0  0  0  0  0  0  0  0  0
    4.2690    0.9400    0.0000 O   0  0  0  0  0  0  0  0  0  0  0  0
    7.7331   -0.0600    0.0000 O   0  0  0  0  0  0  0  0  0  0  0  0
   10.3312    2.4400    0.0000 O   0  0  0  0  0  0  0  0  0  0  0  0
    3.4030    4.4400    0.0000 O   0  0  0  0  0  0  0  0  0  0  0  0
    5.1350    4.4400    0.0000 O   0  0  0  0  0  0  0  0  0  0  0  0
    6.8671    4.4400    0.0000 O   0  0  0  0  0  0  0  0  0  0  0  0
   12.9292   -0.0600    0.0000 O   0  0  0  0  0  0  0  0  0  0  0  0
    8.5991    4.4400    0.0000 O   0  0  0  0  0  0  0  0  0  0  0  0
   13.7953   -0.5600    0.0000 O   0  0  0  0  0  0  0  0  0  0  0  0
   17.2594   -1.5600    0.0000 O   0  0  0  0  0  0  0  0  0  0  0  0
   16.3933   -3.0600    0.0000 O   0  0  0  0  0  0  0  0  0  0  0  0
    6.8671    1.4400    0.0000 N   0  0  0  0  0  0  0  0  0  0  0  0
    5.1350    2.4400    0.0000 N   0  0  0  0  0  0  0  0  0  0  0  0
    9.4651    0.9400    0.0000 N   0  0  0  0  0  0  0  0  0  0  0  0
   11.1972   -0.0600    0.0000 N   0  0  0  0  0  0  0  0  0  0  0  0
   12.9292   -2.0600    0.0000 N   0  0  0  0  0  0  0  0  0  0  0  0
   14.6613   -3.0600    0.0000 N   0  0  0  0  0  0  0  0  0  0  0  0
    5.1350   -0.5600    0.0000 C   0  0  0  0  0  0  0  0  0  0  0  0
    4.2690   -0.0600    0.0000 C   0  0  0  0  0  0  0  0  0  0  0  0
    5.1350   -1.5600    0.0000 C   0  0  0  0  0  0  0  0  0  0  0  0
    6.0010   -0.0600    0.0000 C   0  0  0  0  0  0  0  0  0  0  0  0
    3.4030   -0.5600    0.0000 C   0  0  0  0  0  0  0  0  0  0  0  0
    4.2690   -2.0600    0.0000 C   0  0  0  0  0  0  0  0  0  0  0  0
    3.4030   -1.5600    0.0000 C   0  0  0  0  0  0  0  0  0  0  0  0
    6.0010    0.9400    0.0000 C   0  0  1  0  0  0  0  0  0  0  0  0
    5.1350    1.4400    0.0000 C   0  0  0  0  0  0  0  0  0  0  0  0
    7.7331    0.9400    0.0000 C   0  0  0  0  0  0  0  0  0  0  0  0
    8.5991    1.4400    0.0000 C   0  0  2  0  0  0  0  0  0  0  0  0
    8.5991    2.4400    0.0000 C   0  0  0  0  0  0  0  0  0  0  0  0
    4.2690    2.9400    0.0000 C   0  0  1  0  0  0  0  0  0  0  0  0
   11.1972    0.9400    0.0000 C   0  0  1  0  0  0  0  0  0  0  0  0
   12.0632    1.4400    0.0000 C   0  0  0  0  0  0  0  0  0  0  0  0
   10.3312    1.4400    0.0000 C   0  0  0  0  0  0  0  0  0  0  0  0
    7.7331    2.9400    0.0000 C   0  0  0  0  0  0  0  0  0  0  0  0
   12.0632    2.4400    0.0000 C   0  0  0  0  0  0  0  0  0  0  0  0
    3.4030    2.4400    0.0000 C   0  0  0  0  0  0  0  0  0  0  0  0
    4.2690    3.9400    0.0000 C   0  0  0  0  0  0  0  0  0  0  0  0
   12.9292    2.9400    0.0000 C   0  0  0  0  0  0  0  0  0  0  0  0
   11.1972    2.9400    0.0000 C   0  0  0  0  0  0  0  0  0  0  0  0
   12.0632   -1.5600    0.0000 C   0  0  1  0  0  0  0  0  0  0  0  0
   12.0632   -0.5600    0.0000 C   0  0  0  0  0  0  0  0  0  0  0  0
    7.7331    3.9400    0.0000 C   0  0  0  0  0  0  0  0  0  0  0  0
   11.1972   -2.0600    0.0000 C   0  0  0  0  0  0  0  0  0  0  0  0
   11.1972   -3.0600    0.0000 C   0  0  0  0  0  0  0  0  0  0  0  0
   13.7953   -1.5600    0.0000 C   0  0  0  0  0  0  0  0  0  0  0  0
   14.6613   -2.0600    0.0000 C   0  0  2  0  0  0  0  0  0  0  0  0
   12.0632   -3.5600    0.0000 C   0  0  0  0  0  0  0  0  0  0  0  0
   10.3312   -3.5600    0.0000 C   0  0  0  0  0  0  0  0  0  0  0  0
   15.5273   -1.5600    0.0000 C   0  0  0  0  0  0  0  0  0  0  0  0
   12.0632   -4.5600    0.0000 C   0  0  0  0  0  0  0  0  0  0  0  0
   10.3312   -4.5600    0.0000 C   0  0  0  0  0  0  0  0  0  0  0  0
   11.1972   -5.0600    0.0000 C   0  0  0  0  0  0  0  0  0  0  0  0
   16.3933   -2.0600    0.0000 C   0  0  0  0  0  0  0  0  0  0  0  0
    5.1350    0.0600    0.0000 H   0  0  0  0  0  0  0  0  0  0  0  0
    4.6675    0.4149    0.0000 H   0  0  0  0  0  0  0  0  0  0  0  0
    3.8705    0.4149    0.0000 H   0  0  0  0  0  0  0  0  0  0  0  0
    5.3471   -2.1426    0.0000 H   0  0  0  0  0  0  0  0  0  0  0  0
    5.7456   -1.4523    0.0000 H   0  0  0  0  0  0  0  0  0  0  0  0
    6.2131   -0.6426    0.0000 H   0  0  0  0  0  0  0  0  0  0  0  0
    6.6116    0.0477    0.0000 H   0  0  0  0  0  0  0  0  0  0  0  0
    3.1909    0.0226    0.0000 H   0  0  0  0  0  0  0  0  0  0  0  0
    2.7924   -0.6677    0.0000 H   0  0  0  0  0  0  0  0  0  0  0  0
    3.8705   -2.5349    0.0000 H   0  0  0  0  0  0  0  0  0  0  0  0
    4.6675   -2.5349    0.0000 H   0  0  0  0  0  0  0  0  0  0  0  0
    2.7924   -1.4523    0.0000 H   0  0  0  0  0  0  0  0  0  0  0  0
    3.1909   -2.1426    0.0000 H   0  0  0  0  0  0  0  0  0  0  0  0
    6.5380    0.6300    0.0000 H   0  0  0  0  0  0  0  0  0  0  0  0
    6.8671    2.0600    0.0000 H   0  0  0  0  0  0  0  0  0  0  0  0
    8.5991    0.8200    0.0000 H   0  0  0  0  0  0  0  0  0  0  0  0
    5.6720    2.7500    0.0000 H   0  0  0  0  0  0  0  0  0  0  0  0
    9.2097    2.3323    0.0000 H   0  0  0  0  0  0  0  0  0  0  0  0
    8.8112    3.0226    0.0000 H   0  0  0  0  0  0  0  0  0  0  0  0
    4.2690    2.3200    0.0000 H   0  0  0  0  0  0  0  0  0  0  0  0
    9.4651    0.3200    0.0000 H   0  0  0  0  0  0  0  0  0  0  0  0
   10.6603    0.6300    0.0000 H   0  0  0  0  0  0  0  0  0  0  0  0
   12.2753    0.8574    0.0000 H   0  0  0  0  0  0  0  0  0  0  0  0
   12.6738    1.5477    0.0000 H   0  0  0  0  0  0  0  0  0  0  0  0
    7.1225    3.0477    0.0000 H   0  0  0  0  0  0  0  0  0  0  0  0
    7.5210    2.3574    0.0000 H   0  0  0  0  0  0  0  0  0  0  0  0
   12.6002    2.1300    0.0000 H   0  0  0  0  0  0  0  0  0  0  0  0
    3.0044    1.9650    0.0000 H   0  0  0  0  0  0  0  0  0  0  0  0
    3.8015    1.9650    0.0000 H   0  0  0  0  0  0  0  0  0  0  0  0
   10.6603   -0.3700    0.0000 H   0  0  0  0  0  0  0  0  0  0  0  0
   13.2392    2.4031    0.0000 H   0  0  0  0  0  0  0  0  0  0  0  0
   13.4662    3.2500    0.0000 H   0  0  0  0  0  0  0  0  0  0  0  0
   12.6192    3.4769    0.0000 H   0  0  0  0  0  0  0  0  0  0  0  0
   11.5072    3.4769    0.0000 H   0  0  0  0  0  0  0  0  0  0  0  0
   10.6603    3.2500    0.0000 H   0  0  0  0  0  0  0  0  0  0  0  0
   10.8872    2.4031    0.0000 H   0  0  0  0  0  0  0  0  0  0  0  0
   12.6002   -1.2500    0.0000 H   0  0  0  0  0  0  0  0  0  0  0  0
   10.9851   -1.4774    0.0000 H   0  0  0  0  0  0  0  0  0  0  0  0
   10.5866   -2.1677    0.0000 H   0  0  0  0  0  0  0  0  0  0  0  0
    2.0000    2.6300    0.0000 H   0  0  0  0  0  0  0  0  0  0  0  0
   12.9292   -2.6800    0.0000 H   0  0  0  0  0  0  0  0  0  0  0  0
    3.4030    5.0600    0.0000 H   0  0  0  0  0  0  0  0  0  0  0  0
    6.8671    5.0600    0.0000 H   0  0  0  0  0  0  0  0  0  0  0  0
   14.1244   -2.3700    0.0000 H   0  0  0  0  0  0  0  0  0  0  0  0
   12.6002   -3.2500    0.0000 H   0  0  0  0  0  0  0  0  0  0  0  0
    9.7942   -3.2500    0.0000 H   0  0  0  0  0  0  0  0  0  0  0  0
   15.9258   -1.0850    0.0000 H   0  0  0  0  0  0  0  0  0  0  0  0
   15.1288   -1.0850    0.0000 H   0  0  0  0  0  0  0  0  0  0  0  0
   12.6002   -4.8700    0.0000 H   0  0  0  0  0  0  0  0  0  0  0  0
    9.7942   -4.8700    0.0000 H   0  0  0  0  0  0  0  0  0  0  0  0
   15.1982   -3.3700    0.0000 H   0  0  0  0  0  0  0  0  0  0  0  0
   14.1244   -3.3700    0.0000 H   0  0  0  0  0  0  0  0  0  0  0  0
   11.1972   -5.6800    0.0000 H   0  0  0  0  0  0  0  0  0  0  0  0
   17.7963   -1.8700    0.0000 H   0  0  0  0  0  0  0  0  0  0  0  0
  1 37  1  0  0  0  0
  1 94  1  0  0  0  0
  2 27  2  0  0  0  0
  3 28  2  0  0  0  0
  4 34  2  0  0  0  0
  5 38  1  0  0  0  0
  5 96  1  0  0  0  0
  6 38  2  0  0  0  0
  7 43  1  0  0  0  0
  7 97  1  0  0  0  0
  8 42  2  0  0  0  0
  9 43  2  0  0  0  0
 10 46  2  0  0  0  0
 11 54  1  0  0  0  0
 11108  1  0  0  0  0
 12 54  2  0  0  0  0
 26 13  1  1  0  0  0
 13 28  1  0  0  0  0
 13 69  1  0  0  0  0
 14 27  1  0  0  0  0
 31 14  1  1  0  0  0
 14 71  1  0  0  0  0
 29 15  1  6  0  0  0
 15 34  1  0  0  0  0
 15 75  1  0  0  0  0
 32 16  1  6  0  0  0
 16 42  1  0  0  0  0
 16 84  1  0  0  0  0
 41 17  1  6  0  0  0
 17 46  1  0  0  0  0
 17 95  1  0  0  0  0
 47 18  1  6  0  0  0
 18105  1  0  0  0  0
 18106  1  0  0  0  0
 19 20  1  0  0  0  0
 19 21  1  0  0  0  0
 19 22  1  0  0  0  0
 19 55  1  0  0  0  0
 20 23  1  0  0  0  0
 20 56  1  0  0  0  0
 20 57  1  0  0  0  0
 21 24  1  0  0  0  0
 21 58  1  0  0  0  0
 21 59  1  0  0  0  0
 22 26  1  0  0  0  0
 22 60  1  0  0  0  0
 22 61  1  0  0  0  0
 23 25  1  0  0  0  0
 23 62  1  0  0  0  0
 23 63  1  0  0  0  0
 24 25  1  0  0  0  0
 24 64  1  0  0  0  0
 24 65  1  0  0  0  0
 25 66  1  0  0  0  0
 25 67  1  0  0  0  0
 26 27  1  0  0  0  0
 26 68  1  0  0  0  0
 28 29  1  0  0  0  0
 29 30  1  0  0  0  0
 29 70  1  0  0  0  0
 30 35  1  0  0  0  0
 30 72  1  0  0  0  0
 30 73  1  0  0  0  0
 31 37  1  0  0  0  0
 31 38  1  0  0  0  0
 31 74  1  0  0  0  0
 32 33  1  0  0  0  0
 32 34  1  0  0  0  0
 32 76  1  0  0  0  0
 33 36  1  0  0  0  0
 33 77  1  0  0  0  0
 33 78  1  0  0  0  0
 35 43  1  0  0  0  0
 35 79  1  0  0  0  0
 35 80  1  0  0  0  0
 36 39  1  0  0  0  0
 36 40  1  0  0  0  0
 36 81  1  0  0  0  0
 37 82  1  0  0  0  0
 37 83  1  0  0  0  0
 39 85  1  0  0  0  0
 39 86  1  0  0  0  0
 39 87  1  0  0  0  0
 40 88  1  0  0  0  0
 40 89  1  0  0  0  0
 40 90  1  0  0  0  0
 41 42  1  0  0  0  0
 41 44  1  0  0  0  0
 41 91  1  0  0  0  0
 44 45  1  0  0  0  0
 44 92  1  0  0  0  0
 44 93  1  0  0  0  0
 45 48  2  0  0  0  0
 45 49  1  0  0  0  0
 46 47  1  0  0  0  0
 47 50  1  0  0  0  0
 47 98  1  0  0  0  0
 48 51  1  0  0  0  0
 48 99  1  0  0  0  0
 49 52  2  0  0  0  0
 49100  1  0  0  0  0
 50 54  1  0  0  0  0
 50101  1  0  0  0  0
 50102  1  0  0  0  0
 51 53  2  0  0  0  0
 51103  1  0  0  0  0
 52 53  1  0  0  0  0
 52104  1  0  0  0  0
 53107  1  0  0  0  0
M  END
> <PUBCHEM_COMPOUND_CID>
512539
> <PUBCHEM_COMPOUND_CANONICALIZED>
1
> <PUBCHEM_CACTVS_COMPLEXITY>
1310
> <PUBCHEM_CACTVS_HBOND_ACCEPTOR>
13
> <PUBCHEM_CACTVS_HBOND_DONOR>
10
> <PUBCHEM_CACTVS_ROTATABLE_BOND>
23
> <PUBCHEM_CACTVS_SUBSKEYS>
AAADcfB/vABAAAAAAAAAAAAAAAAAAAAAAAAwYAAAAAAAAAABAAAAHgQQCAAADSjF2ASyCILAAgSIAiHSGAACAAAgAAAIiIGIAIgKYDqAkTGUYAAmlgCYiAe/n4KOAAAAAAAAAAAAAAAAAAAAAAAAAAAAAA==
> <PUBCHEM_IUPAC_OPENEYE_NAME>
(4S)-4-[[(2S)-2-[[(2R)-2-[[(2S)-2-amino-3-carboxy-propanoyl]amino]-3-phenyl-propanoyl]amino]-4-methyl-pentanoyl]amino]-5-[[(1S)-2-[[(1R)-1-carboxy-2-sulfanyl-ethyl]amino]-1-(cyclohexylmethyl)-2-oxo-ethyl]amino]-5-oxo-pentanoic acid
> <PUBCHEM_IUPAC_CAS_NAME>
(4S)-4-[[(2S)-2-[[(2R)-2-[[(2S)-2-amino-3-carboxy-1-oxopropyl]amino]-1-oxo-3-phenylpropyl]amino]-4-methyl-1-oxopentyl]amino]-5-[[(2S)-1-[[(1R)-1-carboxy-2-mercaptoethyl]amino]-3-cyclohexyl-1-oxopropan-2-yl]amino]-5-oxopentanoic acid
> <PUBCHEM_IUPAC_NAME_MARKUP>
(4<I>S</I>)-4-[[(2<I>S</I>)-2-[[(2<I>R</I>)-2-[[(2<I>S</I>)-2-amino-3-carboxypropanoyl]amino]-3-phenylpropanoyl]amino]-4-methylpentanoyl]amino]-5-[[(2<I>S</I>)-1-[[(1<I>R</I>)-1-carboxy-2-sulfanylethyl]amino]-3-cyclohexyl-1-oxopropan-2-yl]amino]-5-oxopentanoic acid
> <PUBCHEM_IUPAC_NAME>
(4S)-4-[[(2S)-2-[[(2R)-2-[[(2S)-2-amino-3-carboxypropanoyl]amino]-3-phenylpropanoyl]amino]-4-methylpentanoyl]amino]-5-[[(2S)-1-[[(1R)-1-carboxy-2-sulfanylethyl]amino]-3-cyclohexyl-1-oxopropan-2-yl]amino]-5-oxopentanoic acid
> <PUBCHEM_IUPAC_SYSTEMATIC_NAME>
(4S)-4-[[(2S)-2-[[(2R)-2-[[(2S)-2-azanyl-4-oxidanyl-4-oxidanylidene-butanoyl]amino]-3-phenyl-propanoyl]amino]-4-methyl-pentanoyl]amino]-5-[[(2S)-3-cyclohexyl-1-oxidanylidene-1-[[(2R)-1-oxidanyl-1-oxidanylidene-3-sulfanyl-propan-2-yl]amino]propan-2-yl]amino]-5-oxidanylidene-pentanoic acid
> <PUBCHEM_IUPAC_TRADITIONAL_NAME>
(4S)-4-[[(2S)-2-[[(2R)-2-[[(2S)-2-amino-3-carboxy-propanoyl]amino]-3-phenyl-propanoyl]amino]-4-methyl-pentanoyl]amino]-5-[[(1S)-2-[[(1R)-1-carboxy-2-mercapto-ethyl]amino]-1-(cyclohexylmethyl)-2-keto-ethyl]amino]-5-keto-valeric acid
> <PUBCHEM_IUPAC_INCHI>
InChI=1S/C36H54N6O11S/c1-20(2)15-25(40-34(50)26(16-21-9-5-3-6-10-21)39-31(47)23(37)18-30(45)46)33(49)38-24(13-14-29(43)44)32(48)41-27(17-22-11-7-4-8-12-22)35(51)42-28(19-54)36(52)53/h3,5-6,9-10,20,22-28,54H,4,7-8,11-19,37H2,1-2H3,(H,38,49)(H,39,47)(H,40,50)(H,41,48)(H,42,51)(H,43,44)(H,45,46)(H,52,53)/t23-,24-,25-,26+,27-,28-/m0/s1
> <PUBCHEM_IUPAC_INCHIKEY>
CQFLUDIDGMAYGP-XDHPVKSMSA-N
> <PUBCHEM_XLOGP3_AA>
-0.1
> <PUBCHEM_EXACT_MASS>
778.35712773
> <PUBCHEM_MOLECULAR_FORMULA>
C36H54N6O11S
> <PUBCHEM_MOLECULAR_WEIGHT>
778.9
> <PUBCHEM_OPENEYE_CAN_SMILES>
CC(C)CC(C(=O)NC(CCC(=O)O)C(=O)NC(CC1CCCCC1)C(=O)NC(CS)C(=O)O)NC(=O)C(CC2=CC=CC=C2)NC(=O)C(CC(=O)O)N
> <PUBCHEM_OPENEYE_ISO_SMILES>
CC(C)C[C@@H](C(=O)N[C@@H](CCC(=O)O)C(=O)N[C@@H](CC1CCCCC1)C(=O)N[C@@H](CS)C(=O)O)NC(=O)[C@@H](CC2=CC=CC=C2)NC(=O)[C@H](CC(=O)O)N
> <PUBCHEM_CACTVS_TPSA>
284
> <PUBCHEM_MONOISOTOPIC_WEIGHT>
778.35712773
> <PUBCHEM_TOTAL_CHARGE>
0
> <PUBCHEM_HEAVY_ATOM_COUNT>
54
> <PUBCHEM_ATOM_DEF_STEREO_COUNT>
6
> <PUBCHEM_ATOM_UDEF_STEREO_COUNT>
0
> <PUBCHEM_BOND_DEF_STEREO_COUNT>
0
> <PUBCHEM_BOND_UDEF_STEREO_COUNT>
0
> <PUBCHEM_ISOTOPIC_ATOM_COUNT>
0
> <PUBCHEM_COMPONENT_COUNT>
1
> <PUBCHEM_CACTVS_TAUTO_COUNT>
-1
> <PUBCHEM_COORDINATE_TYPE>
1
5
255
> <PUBCHEM_BONDANNOTATIONS>
26  13  5
31  14  5
29  15  6
32  16  6
41  17  6
47  18  6
45  48  8
45  49  8
48  51  8
49  52  8
51  53  8
52  53  8
$$$$
