512519
  -OEChem-10302200282D
 91 90  0     1  0  0  0  0  0999 V2000
    9.4651    2.7500    0.0000 S   0  0  0  0  0  0  0  0  0  0  0  0
   11.1972   -1.2500    0.0000 O   0  0  0  0  0  0  0  0  0  0  0  0
   13.7953    1.2500    0.0000 O   0  0  0  0  0  0  0  0  0  0  0  0
    8.5991    1.2500    0.0000 O   0  0  0  0  0  0  0  0  0  0  0  0
   16.3933   -1.2500    0.0000 O   0  0  0  0  0  0  0  0  0  0  0  0
    6.0010   -1.2500    0.0000 O   0  0  0  0  0  0  0  0  0  0  0  0
   11.1972   -3.2500    0.0000 O   0  0  0  0  0  0  0  0  0  0  0  0
   12.9292   -3.2500    0.0000 O   0  0  0  0  0  0  0  0  0  0  0  0
    6.0010   -3.2500    0.0000 O   0  0  0  0  0  0  0  0  0  0  0  0
   17.2594    3.2500    0.0000 O   0  0  0  0  0  0  0  0  0  0  0  0
    7.7331   -3.2500    0.0000 O   0  0  0  0  0  0  0  0  0  0  0  0
   15.5273    3.2500    0.0000 O   0  0  0  0  0  0  0  0  0  0  0  0
    2.5369   -0.2500    0.0000 O   0  0  0  0  0  0  0  0  0  0  0  0
    3.4030    1.2500    0.0000 O   0  0  0  0  0  0  0  0  0  0  0  0
   20.7235    0.2500    0.0000 O   0  0  0  0  0  0  0  0  0  0  0  0
   19.8574   -1.2500    0.0000 O   0  0  0  0  0  0  0  0  0  0  0  0
   12.0632    0.2500    0.0000 N   0  0  0  0  0  0  0  0  0  0  0  0
    9.4651   -0.2500    0.0000 N   0  0  0  0  0  0  0  0  0  0  0  0
   14.6613   -0.2500    0.0000 N   0  0  0  0  0  0  0  0  0  0  0  0
    6.8671    0.2500    0.0000 N   0  0  0  0  0  0  0  0  0  0  0  0
   17.2594    0.2500    0.0000 N   0  0  0  0  0  0  0  0  0  0  0  0
    5.1350    1.2500    0.0000 N   0  0  0  0  0  0  0  0  0  0  0  0
   10.3312    0.2500    0.0000 C   0  0  1  0  0  0  0  0  0  0  0  0
   12.9292   -0.2500    0.0000 C   0  0  1  0  0  0  0  0  0  0  0  0
   12.9292   -1.2500    0.0000 C   0  0  0  0  0  0  0  0  0  0  0  0
    7.7331   -0.2500    0.0000 C   0  0  1  0  0  0  0  0  0  0  0  0
   10.3312    1.2500    0.0000 C   0  0  0  0  0  0  0  0  0  0  0  0
   11.1972   -0.2500    0.0000 C   0  0  0  0  0  0  0  0  0  0  0  0
   15.5273    0.2500    0.0000 C   0  0  1  0  0  0  0  0  0  0  0  0
   13.7953    0.2500    0.0000 C   0  0  0  0  0  0  0  0  0  0  0  0
    7.7331   -1.2500    0.0000 C   0  0  0  0  0  0  0  0  0  0  0  0
    8.5991    0.2500    0.0000 C   0  0  0  0  0  0  0  0  0  0  0  0
   15.5273    1.2500    0.0000 C   0  0  0  0  0  0  0  0  0  0  0  0
   12.0632   -1.7500    0.0000 C   0  0  0  0  0  0  0  0  0  0  0  0
    9.4651    1.7500    0.0000 C   0  0  0  0  0  0  0  0  0  0  0  0
    6.8671   -1.7500    0.0000 C   0  0  0  0  0  0  0  0  0  0  0  0
   16.3933   -0.2500    0.0000 C   0  0  0  0  0  0  0  0  0  0  0  0
   16.3933    1.7500    0.0000 C   0  0  0  0  0  0  0  0  0  0  0  0
    6.0010   -0.2500    0.0000 C   0  0  0  0  0  0  0  0  0  0  0  0
    5.1350    0.2500    0.0000 C   0  0  2  0  0  0  0  0  0  0  0  0
   12.0632   -2.7500    0.0000 C   0  0  0  0  0  0  0  0  0  0  0  0
    4.2690   -0.2500    0.0000 C   0  0  0  0  0  0  0  0  0  0  0  0
   18.1254   -0.2500    0.0000 C   0  0  0  0  0  0  0  0  0  0  0  0
    6.8671   -2.7500    0.0000 C   0  0  0  0  0  0  0  0  0  0  0  0
   16.3933    2.7500    0.0000 C   0  0  0  0  0  0  0  0  0  0  0  0
   18.9914    0.2500    0.0000 C   0  0  0  0  0  0  0  0  0  0  0  0
    8.5991    3.2500    0.0000 C   0  0  0  0  0  0  0  0  0  0  0  0
    3.4030    0.2500    0.0000 C   0  0  0  0  0  0  0  0  0  0  0  0
   19.8574   -0.2500    0.0000 C   0  0  0  0  0  0  0  0  0  0  0  0
    9.7942    0.5600    0.0000 H   0  0  0  0  0  0  0  0  0  0  0  0
   12.3923   -0.5600    0.0000 H   0  0  0  0  0  0  0  0  0  0  0  0
   13.1413   -1.8326    0.0000 H   0  0  0  0  0  0  0  0  0  0  0  0
   13.5398   -1.1423    0.0000 H   0  0  0  0  0  0  0  0  0  0  0  0
    7.7331    0.3700    0.0000 H   0  0  0  0  0  0  0  0  0  0  0  0
   10.9417    1.1423    0.0000 H   0  0  0  0  0  0  0  0  0  0  0  0
   10.5432    1.8326    0.0000 H   0  0  0  0  0  0  0  0  0  0  0  0
   12.0632    0.8700    0.0000 H   0  0  0  0  0  0  0  0  0  0  0  0
   15.5273   -0.3700    0.0000 H   0  0  0  0  0  0  0  0  0  0  0  0
    9.4651   -0.8700    0.0000 H   0  0  0  0  0  0  0  0  0  0  0  0
    7.9451   -1.8326    0.0000 H   0  0  0  0  0  0  0  0  0  0  0  0
    8.3437   -1.1423    0.0000 H   0  0  0  0  0  0  0  0  0  0  0  0
   14.6613   -0.8700    0.0000 H   0  0  0  0  0  0  0  0  0  0  0  0
   15.3153    1.8326    0.0000 H   0  0  0  0  0  0  0  0  0  0  0  0
   14.9167    1.1423    0.0000 H   0  0  0  0  0  0  0  0  0  0  0  0
   11.8512   -1.1674    0.0000 H   0  0  0  0  0  0  0  0  0  0  0  0
   11.4526   -1.8577    0.0000 H   0  0  0  0  0  0  0  0  0  0  0  0
    8.8546    1.8577    0.0000 H   0  0  0  0  0  0  0  0  0  0  0  0
    9.2531    1.1674    0.0000 H   0  0  0  0  0  0  0  0  0  0  0  0
    6.8671    0.8700    0.0000 H   0  0  0  0  0  0  0  0  0  0  0  0
    6.6550   -1.1674    0.0000 H   0  0  0  0  0  0  0  0  0  0  0  0
    6.2565   -1.8577    0.0000 H   0  0  0  0  0  0  0  0  0  0  0  0
   16.6054    1.1674    0.0000 H   0  0  0  0  0  0  0  0  0  0  0  0
   17.0039    1.8577    0.0000 H   0  0  0  0  0  0  0  0  0  0  0  0
    5.6720    0.5600    0.0000 H   0  0  0  0  0  0  0  0  0  0  0  0
   17.2594    0.8700    0.0000 H   0  0  0  0  0  0  0  0  0  0  0  0
    3.8705   -0.7249    0.0000 H   0  0  0  0  0  0  0  0  0  0  0  0
    4.6675   -0.7249    0.0000 H   0  0  0  0  0  0  0  0  0  0  0  0
   17.7269   -0.7249    0.0000 H   0  0  0  0  0  0  0  0  0  0  0  0
   18.5239   -0.7249    0.0000 H   0  0  0  0  0  0  0  0  0  0  0  0
    4.5981    1.5600    0.0000 H   0  0  0  0  0  0  0  0  0  0  0  0
    5.6720    1.5600    0.0000 H   0  0  0  0  0  0  0  0  0  0  0  0
   19.3899    0.7249    0.0000 H   0  0  0  0  0  0  0  0  0  0  0  0
   18.5929    0.7249    0.0000 H   0  0  0  0  0  0  0  0  0  0  0  0
    8.9091    3.7869    0.0000 H   0  0  0  0  0  0  0  0  0  0  0  0
    8.0622    3.5600    0.0000 H   0  0  0  0  0  0  0  0  0  0  0  0
    8.2891    2.7131    0.0000 H   0  0  0  0  0  0  0  0  0  0  0  0
   11.1972   -3.8700    0.0000 H   0  0  0  0  0  0  0  0  0  0  0  0
    6.0010   -3.8700    0.0000 H   0  0  0  0  0  0  0  0  0  0  0  0
   17.2594    3.8700    0.0000 H   0  0  0  0  0  0  0  0  0  0  0  0
    2.0000    0.0600    0.0000 H   0  0  0  0  0  0  0  0  0  0  0  0
   21.2604   -0.0600    0.0000 H   0  0  0  0  0  0  0  0  0  0  0  0
  1 35  1  0  0  0  0
  1 47  1  0  0  0  0
  2 28  2  0  0  0  0
  3 30  2  0  0  0  0
  4 32  2  0  0  0  0
  5 37  2  0  0  0  0
  6 39  2  0  0  0  0
  7 41  1  0  0  0  0
  7 87  1  0  0  0  0
  8 41  2  0  0  0  0
  9 44  1  0  0  0  0
  9 88  1  0  0  0  0
 10 45  1  0  0  0  0
 10 89  1  0  0  0  0
 11 44  2  0  0  0  0
 12 45  2  0  0  0  0
 13 48  1  0  0  0  0
 13 90  1  0  0  0  0
 14 48  2  0  0  0  0
 15 49  1  0  0  0  0
 15 91  1  0  0  0  0
 16 49  2  0  0  0  0
 24 17  1  6  0  0  0
 17 28  1  0  0  0  0
 17 57  1  0  0  0  0
 23 18  1  1  0  0  0
 18 32  1  0  0  0  0
 18 59  1  0  0  0  0
 29 19  1  1  0  0  0
 19 30  1  0  0  0  0
 19 62  1  0  0  0  0
 26 20  1  6  0  0  0
 20 39  1  0  0  0  0
 20 69  1  0  0  0  0
 21 37  1  0  0  0  0
 21 43  1  0  0  0  0
 21 75  1  0  0  0  0
 40 22  1  6  0  0  0
 22 80  1  0  0  0  0
 22 81  1  0  0  0  0
 23 27  1  0  0  0  0
 23 28  1  0  0  0  0
 23 50  1  0  0  0  0
 24 25  1  0  0  0  0
 24 30  1  0  0  0  0
 24 51  1  0  0  0  0
 25 34  1  0  0  0  0
 25 52  1  0  0  0  0
 25 53  1  0  0  0  0
 26 31  1  0  0  0  0
 26 32  1  0  0  0  0
 26 54  1  0  0  0  0
 27 35  1  0  0  0  0
 27 55  1  0  0  0  0
 27 56  1  0  0  0  0
 29 33  1  0  0  0  0
 29 37  1  0  0  0  0
 29 58  1  0  0  0  0
 31 36  1  0  0  0  0
 31 60  1  0  0  0  0
 31 61  1  0  0  0  0
 33 38  1  0  0  0  0
 33 63  1  0  0  0  0
 33 64  1  0  0  0  0
 34 41  1  0  0  0  0
 34 65  1  0  0  0  0
 34 66  1  0  0  0  0
 35 67  1  0  0  0  0
 35 68  1  0  0  0  0
 36 44  1  0  0  0  0
 36 70  1  0  0  0  0
 36 71  1  0  0  0  0
 38 45  1  0  0  0  0
 38 72  1  0  0  0  0
 38 73  1  0  0  0  0
 39 40  1  0  0  0  0
 40 42  1  0  0  0  0
 40 74  1  0  0  0  0
 42 48  1  0  0  0  0
 42 76  1  0  0  0  0
 42 77  1  0  0  0  0
 43 46  1  0  0  0  0
 43 78  1  0  0  0  0
 43 79  1  0  0  0  0
 46 49  1  0  0  0  0
 46 82  1  0  0  0  0
 46 83  1  0  0  0  0
 47 84  1  0  0  0  0
 47 85  1  0  0  0  0
 47 86  1  0  0  0  0
M  END
> <PUBCHEM_COMPOUND_CID>
512519
> <PUBCHEM_COMPOUND_CANONICALIZED>
1
> <PUBCHEM_CACTVS_COMPLEXITY>
1230
> <PUBCHEM_CACTVS_HBOND_ACCEPTOR>
17
> <PUBCHEM_CACTVS_HBOND_DONOR>
11
> <PUBCHEM_CACTVS_ROTATABLE_BOND>
26
> <PUBCHEM_CACTVS_SUBSKEYS>
AAADcfB7vABAAAAAAAAAAAAAAAAAAAAAAAAAAAAAAAAAAAAAAAAAHgQQCAAACCjFwASCCALAAggIAAGQGAAAAAAAABAAAIGIAAAAQBoggCAUQAAGFgCAAAC/FwIAAAAAAAAAAAAAAAAAAAAAAAAAAAAAAA==
> <PUBCHEM_IUPAC_OPENEYE_NAME>
(4S)-4-[[(2S)-2-[[(2S)-2-[[(2S)-2-[[(2S)-2-amino-3-carboxy-propanoyl]amino]-4-carboxy-butanoyl]amino]-4-methylsulfanyl-butanoyl]amino]-4-carboxy-butanoyl]amino]-5-(2-carboxyethylamino)-5-oxo-pentanoic acid
> <PUBCHEM_IUPAC_CAS_NAME>
(4S)-4-[[(2S)-2-[[(2S)-2-[[(2S)-2-[[(2S)-2-amino-3-carboxy-1-oxopropyl]amino]-4-carboxy-1-oxobutyl]amino]-4-(methylthio)-1-oxobutyl]amino]-4-carboxy-1-oxobutyl]amino]-5-(2-carboxyethylamino)-5-oxopentanoic acid
> <PUBCHEM_IUPAC_NAME_MARKUP>
(4<I>S</I>)-4-[[(2<I>S</I>)-2-[[(2<I>S</I>)-2-[[(2<I>S</I>)-2-[[(2<I>S</I>)-2-amino-3-carboxypropanoyl]amino]-4-carboxybutanoyl]amino]-4-methylsulfanylbutanoyl]amino]-4-carboxybutanoyl]amino]-5-(2-carboxyethylamino)-5-oxopentanoic acid
> <PUBCHEM_IUPAC_NAME>
(4S)-4-[[(2S)-2-[[(2S)-2-[[(2S)-2-[[(2S)-2-amino-3-carboxypropanoyl]amino]-4-carboxybutanoyl]amino]-4-methylsulfanylbutanoyl]amino]-4-carboxybutanoyl]amino]-5-(2-carboxyethylamino)-5-oxopentanoic acid
> <PUBCHEM_IUPAC_SYSTEMATIC_NAME>
(4S)-4-[[(2S)-2-[[(2S)-2-[[(2S)-2-[[(2S)-2-azanyl-4-oxidanyl-4-oxidanylidene-butanoyl]amino]-5-oxidanyl-5-oxidanylidene-pentanoyl]amino]-4-methylsulfanyl-butanoyl]amino]-5-oxidanyl-5-oxidanylidene-pentanoyl]amino]-5-(3-hydroxy-3-oxopropylamino)-5-oxidanylidene-pentanoic acid
> <PUBCHEM_IUPAC_TRADITIONAL_NAME>
(4S)-4-[[(2S)-2-[[(2S)-2-[[(2S)-2-[[(2S)-2-amino-3-carboxy-propanoyl]amino]-4-carboxy-butanoyl]amino]-4-(methylthio)butanoyl]amino]-4-carboxy-butanoyl]amino]-5-(2-carboxyethylamino)-5-keto-valeric acid
> <PUBCHEM_IUPAC_INCHI>
InChI=1S/C27H42N6O15S/c1-49-11-9-17(33-25(46)15(3-6-19(36)37)30-23(44)13(28)12-22(42)43)27(48)32-16(4-7-20(38)39)26(47)31-14(2-5-18(34)35)24(45)29-10-8-21(40)41/h13-17H,2-12,28H2,1H3,(H,29,45)(H,30,44)(H,31,47)(H,32,48)(H,33,46)(H,34,35)(H,36,37)(H,38,39)(H,40,41)(H,42,43)/t13-,14-,15-,16-,17-/m0/s1
> <PUBCHEM_IUPAC_INCHIKEY>
AOWXZGWDJYGVFI-WOYTXXSLSA-N
> <PUBCHEM_XLOGP3_AA>
-6.5
> <PUBCHEM_EXACT_MASS>
722.24288583
> <PUBCHEM_MOLECULAR_FORMULA>
C27H42N6O15S
> <PUBCHEM_MOLECULAR_WEIGHT>
722.7
> <PUBCHEM_OPENEYE_CAN_SMILES>
CSCCC(C(=O)NC(CCC(=O)O)C(=O)NC(CCC(=O)O)C(=O)NCCC(=O)O)NC(=O)C(CCC(=O)O)NC(=O)C(CC(=O)O)N
> <PUBCHEM_OPENEYE_ISO_SMILES>
CSCC[C@@H](C(=O)N[C@@H](CCC(=O)O)C(=O)N[C@@H](CCC(=O)O)C(=O)NCCC(=O)O)NC(=O)[C@H](CCC(=O)O)NC(=O)[C@H](CC(=O)O)N
> <PUBCHEM_CACTVS_TPSA>
383
> <PUBCHEM_MONOISOTOPIC_WEIGHT>
722.24288583
> <PUBCHEM_TOTAL_CHARGE>
0
> <PUBCHEM_HEAVY_ATOM_COUNT>
49
> <PUBCHEM_ATOM_DEF_STEREO_COUNT>
5
> <PUBCHEM_ATOM_UDEF_STEREO_COUNT>
0
> <PUBCHEM_BOND_DEF_STEREO_COUNT>
0
> <PUBCHEM_BOND_UDEF_STEREO_COUNT>
0
> <PUBCHEM_ISOTOPIC_ATOM_COUNT>
0
> <PUBCHEM_COMPONENT_COUNT>
1
> <PUBCHEM_CACTVS_TAUTO_COUNT>
-1
> <PUBCHEM_COORDINATE_TYPE>
1
5
255
> <PUBCHEM_BONDANNOTATIONS>
24  17  6
23  18  5
29  19  5
26  20  6
40  22  6
$$$$
