512574
  -OEChem-10302200282D
 49 52  0     1  0  0  0  0  0999 V2000
    8.6826    1.3682    0.0000 S   0  0  0  0  0  0  0  0  0  0  0  0
    7.6451    3.0443    0.0000 O   0  0  0  0  0  0  0  0  0  0  0  0
    9.3245   -2.6340    0.0000 O   0  0  0  0  0  0  0  0  0  0  0  0
    2.9096   -0.5877    0.0000 O   0  0  0  0  0  0  0  0  0  0  0  0
    6.4530    0.0787    0.0000 N   0  0  3  0  0  0  0  0  0  0  0  0
    6.1596    2.2671    0.0000 N   0  0  0  0  0  0  0  0  0  0  0  0
    5.6131    0.5851    0.0000 C   0  0  0  0  0  0  0  0  0  0  0  0
    5.4828    1.5572    0.0000 C   0  0  1  0  0  0  0  0  0  0  0  0
    7.3736    0.4171    0.0000 C   0  0  0  0  0  0  0  0  0  0  0  0
    6.3580   -0.9168    0.0000 C   0  0  0  0  0  0  0  0  0  0  0  0
    7.6826    1.3682    0.0000 C   0  0  0  0  0  0  0  0  0  0  0  0
    8.1826   -0.1706    0.0000 C   0  0  0  0  0  0  0  0  0  0  0  0
    4.5317    1.8663    0.0000 C   0  0  0  0  0  0  0  0  0  0  0  0
    7.1368    2.1831    0.0000 C   0  0  0  0  0  0  0  0  0  0  0  0
    8.9916    0.4171    0.0000 C   0  0  0  0  0  0  0  0  0  0  0  0
    5.4484   -1.3322    0.0000 C   0  0  0  0  0  0  0  0  0  0  0  0
    8.2755   -1.2081    0.0000 C   0  0  0  0  0  0  0  0  0  0  0  0
    9.9496    0.0082    0.0000 C   0  0  0  0  0  0  0  0  0  0  0  0
    9.2238   -1.6391    0.0000 C   0  0  0  0  0  0  0  0  0  0  0  0
    4.6338   -0.7522    0.0000 C   0  0  0  0  0  0  0  0  0  0  0  0
    5.3534   -2.3277    0.0000 C   0  0  0  0  0  0  0  0  0  0  0  0
   10.0665   -1.0269    0.0000 C   0  0  0  0  0  0  0  0  0  0  0  0
    3.7242   -1.1677    0.0000 C   0  0  0  0  0  0  0  0  0  0  0  0
    4.4438   -2.7432    0.0000 C   0  0  0  0  0  0  0  0  0  0  0  0
    3.6292   -2.1632    0.0000 C   0  0  0  0  0  0  0  0  0  0  0  0
   10.2365   -3.0443    0.0000 C   0  0  0  0  0  0  0  0  0  0  0  0
    2.0000   -1.0032    0.0000 C   0  0  0  0  0  0  0  0  0  0  0  0
    4.9957    0.6421    0.0000 H   0  0  0  0  0  0  0  0  0  0  0  0
    5.4197   -0.0039    0.0000 H   0  0  0  0  0  0  0  0  0  0  0  0
    5.3309    2.1583    0.0000 H   0  0  0  0  0  0  0  0  0  0  0  0
    6.5138   -1.5169    0.0000 H   0  0  0  0  0  0  0  0  0  0  0  0
    6.9761   -0.8676    0.0000 H   0  0  0  0  0  0  0  0  0  0  0  0
    5.9402    2.8469    0.0000 H   0  0  0  0  0  0  0  0  0  0  0  0
    4.7233    2.4559    0.0000 H   0  0  0  0  0  0  0  0  0  0  0  0
    3.9421    2.0578    0.0000 H   0  0  0  0  0  0  0  0  0  0  0  0
    4.3401    1.2766    0.0000 H   0  0  0  0  0  0  0  0  0  0  0  0
    7.7697   -1.5667    0.0000 H   0  0  0  0  0  0  0  0  0  0  0  0
   10.4470    0.3784    0.0000 H   0  0  0  0  0  0  0  0  0  0  0  0
    4.6927   -0.1350    0.0000 H   0  0  0  0  0  0  0  0  0  0  0  0
    5.8585   -2.6873    0.0000 H   0  0  0  0  0  0  0  0  0  0  0  0
   10.6339   -1.2768    0.0000 H   0  0  0  0  0  0  0  0  0  0  0  0
    4.3849   -3.3604    0.0000 H   0  0  0  0  0  0  0  0  0  0  0  0
    3.0653   -2.4208    0.0000 H   0  0  0  0  0  0  0  0  0  0  0  0
    9.9821   -3.6097    0.0000 H   0  0  0  0  0  0  0  0  0  0  0  0
   10.8019   -3.2986    0.0000 H   0  0  0  0  0  0  0  0  0  0  0  0
   10.4908   -2.4789    0.0000 H   0  0  0  0  0  0  0  0  0  0  0  0
    1.7424   -0.4392    0.0000 H   0  0  0  0  0  0  0  0  0  0  0  0
    1.4360   -1.2607    0.0000 H   0  0  0  0  0  0  0  0  0  0  0  0
    2.2576   -1.5671    0.0000 H   0  0  0  0  0  0  0  0  0  0  0  0
  1 11  1  0  0  0  0
  1 15  1  0  0  0  0
  2 14  2  0  0  0  0
  3 19  1  0  0  0  0
  3 26  1  0  0  0  0
  4 23  1  0  0  0  0
  4 27  1  0  0  0  0
  5  7  1  0  0  0  0
  5  9  1  0  0  0  0
  5 10  1  0  0  0  0
  6  8  1  0  0  0  0
  6 14  1  0  0  0  0
  6 33  1  0  0  0  0
  7  8  1  0  0  0  0
  7 28  1  0  0  0  0
  7 29  1  0  0  0  0
  8 13  1  1  0  0  0
  8 30  1  0  0  0  0
  9 11  2  0  0  0  0
  9 12  1  0  0  0  0
 10 16  1  0  0  0  0
 10 31  1  0  0  0  0
 10 32  1  0  0  0  0
 11 14  1  0  0  0  0
 12 15  2  0  0  0  0
 12 17  1  0  0  0  0
 13 34  1  0  0  0  0
 13 35  1  0  0  0  0
 13 36  1  0  0  0  0
 15 18  1  0  0  0  0
 16 20  2  0  0  0  0
 16 21  1  0  0  0  0
 17 19  2  0  0  0  0
 17 37  1  0  0  0  0
 18 22  2  0  0  0  0
 18 38  1  0  0  0  0
 19 22  1  0  0  0  0
 20 23  1  0  0  0  0
 20 39  1  0  0  0  0
 21 24  2  0  0  0  0
 21 40  1  0  0  0  0
 22 41  1  0  0  0  0
 23 25  2  0  0  0  0
 24 25  1  0  0  0  0
 24 42  1  0  0  0  0
 25 43  1  0  0  0  0
 26 44  1  0  0  0  0
 26 45  1  0  0  0  0
 26 46  1  0  0  0  0
 27 47  1  0  0  0  0
 27 48  1  0  0  0  0
 27 49  1  0  0  0  0
M  END
> <PUBCHEM_COMPOUND_CID>
512574
> <PUBCHEM_COMPOUND_CANONICALIZED>
1
> <PUBCHEM_CACTVS_COMPLEXITY>
534
> <PUBCHEM_CACTVS_HBOND_ACCEPTOR>
5
> <PUBCHEM_CACTVS_HBOND_DONOR>
1
> <PUBCHEM_CACTVS_ROTATABLE_BOND>
4
> <PUBCHEM_CACTVS_SUBSKEYS>
AAADceB7MABAAAAAAAAAAAAAAAAAASAAAAAwYAAABYAAAEix9AAAHgQQAAAADCzB2AYyx8PABAiMAiVSUACDCIAlKBBIiJ0OTMgMZjrk9ZuUMaxk1hHo6Ue4yLCOAIABAAAEAAABAAIAAAgAAAAAAAAAAA==
> <PUBCHEM_IUPAC_OPENEYE_NAME>
(3R)-9-methoxy-1-[(3-methoxyphenyl)methyl]-3-methyl-3,4-dihydro-2H-benzothiopheno[3,2-e][1,4]diazepin-5-one
> <PUBCHEM_IUPAC_CAS_NAME>
(3R)-9-methoxy-1-[(3-methoxyphenyl)methyl]-3-methyl-3,4-dihydro-2H-[1]benzothiolo[3,2-e][1,4]diazepin-5-one
> <PUBCHEM_IUPAC_NAME_MARKUP>
(3<I>R</I>)-9-methoxy-1-[(3-methoxyphenyl)methyl]-3-methyl-3,4-dihydro-2<I>H</I>-[1]benzothiolo[3,2-e][1,4]diazepin-5-one
> <PUBCHEM_IUPAC_NAME>
(3R)-9-methoxy-1-[(3-methoxyphenyl)methyl]-3-methyl-3,4-dihydro-2H-[1]benzothiolo[3,2-e][1,4]diazepin-5-one
> <PUBCHEM_IUPAC_SYSTEMATIC_NAME>
(3R)-9-methoxy-1-[(3-methoxyphenyl)methyl]-3-methyl-3,4-dihydro-2H-[1]benzothiolo[3,2-e][1,4]diazepin-5-one
> <PUBCHEM_IUPAC_TRADITIONAL_NAME>
(3R)-1-m-anisyl-9-methoxy-3-methyl-3,4-dihydro-2H-benzothiopheno[3,2-e][1,4]diazepin-5-one
> <PUBCHEM_IUPAC_INCHI>
InChI=1S/C21H22N2O3S/c1-13-11-23(12-14-5-4-6-15(9-14)25-2)19-17-10-16(26-3)7-8-18(17)27-20(19)21(24)22-13/h4-10,13H,11-12H2,1-3H3,(H,22,24)/t13-/m1/s1
> <PUBCHEM_IUPAC_INCHIKEY>
KHIVJUGWFVBXIC-CYBMUJFWSA-N
> <PUBCHEM_XLOGP3_AA>
4.3
> <PUBCHEM_EXACT_MASS>
382.13511374
> <PUBCHEM_MOLECULAR_FORMULA>
C21H22N2O3S
> <PUBCHEM_MOLECULAR_WEIGHT>
382.5
> <PUBCHEM_OPENEYE_CAN_SMILES>
CC1CN(C2=C(C(=O)N1)SC3=C2C=C(C=C3)OC)CC4=CC(=CC=C4)OC
> <PUBCHEM_OPENEYE_ISO_SMILES>
C[C@@H]1CN(C2=C(C(=O)N1)SC3=C2C=C(C=C3)OC)CC4=CC(=CC=C4)OC
> <PUBCHEM_CACTVS_TPSA>
79
> <PUBCHEM_MONOISOTOPIC_WEIGHT>
382.13511374
> <PUBCHEM_TOTAL_CHARGE>
0
> <PUBCHEM_HEAVY_ATOM_COUNT>
27
> <PUBCHEM_ATOM_DEF_STEREO_COUNT>
1
> <PUBCHEM_ATOM_UDEF_STEREO_COUNT>
0
> <PUBCHEM_BOND_DEF_STEREO_COUNT>
0
> <PUBCHEM_BOND_UDEF_STEREO_COUNT>
0
> <PUBCHEM_ISOTOPIC_ATOM_COUNT>
0
> <PUBCHEM_COMPONENT_COUNT>
1
> <PUBCHEM_CACTVS_TAUTO_COUNT>
-1
> <PUBCHEM_COORDINATE_TYPE>
1
5
255
> <PUBCHEM_BONDANNOTATIONS>
1  11  8
1  15  8
12  15  8
12  17  8
15  18  8
16  20  8
16  21  8
17  19  8
18  22  8
19  22  8
20  23  8
21  24  8
23  25  8
24  25  8
8  13  5
9  11  8
9  12  8
$$$$
