512509
  -OEChem-10302200282D
106107  0     1  0  0  0  0  0999 V2000
    5.4641    6.5000    0.0000 S   0  0  0  0  0  0  0  0  0  0  0  0
    4.5981    4.0000    0.0000 O   0  0  0  0  0  0  0  0  0  0  0  0
    5.4641    0.5000    0.0000 O   0  0  0  0  0  0  0  0  0  0  0  0
    7.1962    6.5000    0.0000 O   0  0  0  0  0  0  0  0  0  0  0  0
    8.9282   -0.5000    0.0000 O   0  0  0  0  0  0  0  0  0  0  0  0
    8.0622    5.0000    0.0000 O   0  0  0  0  0  0  0  0  0  0  0  0
    8.9282    3.5000    0.0000 O   0  0  0  0  0  0  0  0  0  0  0  0
    9.7942    2.0000    0.0000 O   0  0  0  0  0  0  0  0  0  0  0  0
    9.7942   -1.0000    0.0000 O   0  0  0  0  0  0  0  0  0  0  0  0
   12.3923   -3.5000    0.0000 O   0  0  0  0  0  0  0  0  0  0  0  0
    7.1962   -6.5000    0.0000 O   0  0  0  0  0  0  0  0  0  0  0  0
   12.3923   -5.5000    0.0000 O   0  0  0  0  0  0  0  0  0  0  0  0
   10.6603   -5.5000    0.0000 O   0  0  0  0  0  0  0  0  0  0  0  0
   15.8564   -2.5000    0.0000 O   0  0  0  0  0  0  0  0  0  0  0  0
   14.9904   -1.0000    0.0000 O   0  0  0  0  0  0  0  0  0  0  0  0
    6.3301    2.0000    0.0000 N   0  0  0  0  0  0  0  0  0  0  0  0
    6.3301    4.0000    0.0000 N   0  0  0  0  0  0  0  0  0  0  0  0
    7.1962   -0.5000    0.0000 N   0  0  0  0  0  0  0  0  0  0  0  0
    8.9282   -2.5000    0.0000 N   0  0  0  0  0  0  0  0  0  0  0  0
   11.5263   -2.0000    0.0000 N   0  0  0  0  0  0  0  0  0  0  0  0
   13.2583   -1.0000    0.0000 N   0  0  0  0  0  0  0  0  0  0  0  0
    3.7320    2.5000    0.0000 C   0  0  0  0  0  0  0  0  0  0  0  0
    2.8660    2.0000    0.0000 C   0  0  0  0  0  0  0  0  0  0  0  0
    3.7320    3.5000    0.0000 C   0  0  0  0  0  0  0  0  0  0  0  0
    2.0000    2.5000    0.0000 C   0  0  0  0  0  0  0  0  0  0  0  0
    2.8660    4.0000    0.0000 C   0  0  0  0  0  0  0  0  0  0  0  0
    4.5981    2.0000    0.0000 C   0  0  0  0  0  0  0  0  0  0  0  0
    2.0000    3.5000    0.0000 C   0  0  0  0  0  0  0  0  0  0  0  0
    5.4641    2.5000    0.0000 C   0  0  1  0  0  0  0  0  0  0  0  0
    5.4641    3.5000    0.0000 C   0  0  0  0  0  0  0  0  0  0  0  0
    6.3301    1.0000    0.0000 C   0  0  0  0  0  0  0  0  0  0  0  0
    7.1962    0.5000    0.0000 C   0  0  2  0  0  0  0  0  0  0  0  0
    6.3301    5.0000    0.0000 C   0  0  1  0  0  0  0  0  0  0  0  0
    8.0622    1.0000    0.0000 C   0  0  0  0  0  0  0  0  0  0  0  0
    8.0622    2.0000    0.0000 C   0  0  0  0  0  0  0  0  0  0  0  0
    5.4641    5.5000    0.0000 C   0  0  0  0  0  0  0  0  0  0  0  0
    8.0622   -1.0000    0.0000 C   0  0  0  0  0  0  0  0  0  0  0  0
    8.0622   -2.0000    0.0000 C   0  0  2  0  0  0  0  0  0  0  0  0
    7.1962    5.5000    0.0000 C   0  0  0  0  0  0  0  0  0  0  0  0
    7.1962   -2.5000    0.0000 C   0  0  0  0  0  0  0  0  0  0  0  0
    8.9282    2.5000    0.0000 C   0  0  0  0  0  0  0  0  0  0  0  0
   10.6603   -2.5000    0.0000 C   0  0  2  0  0  0  0  0  0  0  0  0
    9.7942   -2.0000    0.0000 C   0  0  0  0  0  0  0  0  0  0  0  0
    7.1962   -3.5000    0.0000 C   0  0  0  0  0  0  0  0  0  0  0  0
   10.6603   -3.5000    0.0000 C   0  0  0  0  0  0  0  0  0  0  0  0
   11.5263   -4.0000    0.0000 C   0  0  0  0  0  0  0  0  0  0  0  0
    6.3301   -4.0000    0.0000 C   0  0  0  0  0  0  0  0  0  0  0  0
    8.0622   -4.0000    0.0000 C   0  0  0  0  0  0  0  0  0  0  0  0
   12.3923   -2.5000    0.0000 C   0  0  0  0  0  0  0  0  0  0  0  0
   13.2583   -2.0000    0.0000 C   0  0  2  0  0  0  0  0  0  0  0  0
    6.3301   -5.0000    0.0000 C   0  0  0  0  0  0  0  0  0  0  0  0
    8.0622   -5.0000    0.0000 C   0  0  0  0  0  0  0  0  0  0  0  0
    7.1962   -5.5000    0.0000 C   0  0  0  0  0  0  0  0  0  0  0  0
   11.5263   -5.0000    0.0000 C   0  0  0  0  0  0  0  0  0  0  0  0
   14.1244   -2.5000    0.0000 C   0  0  0  0  0  0  0  0  0  0  0  0
   14.9904   -2.0000    0.0000 C   0  0  0  0  0  0  0  0  0  0  0  0
    3.7320    1.8800    0.0000 H   0  0  0  0  0  0  0  0  0  0  0  0
    2.4675    1.5250    0.0000 H   0  0  0  0  0  0  0  0  0  0  0  0
    3.2646    1.5250    0.0000 H   0  0  0  0  0  0  0  0  0  0  0  0
    4.3426    3.3923    0.0000 H   0  0  0  0  0  0  0  0  0  0  0  0
    3.9441    4.0826    0.0000 H   0  0  0  0  0  0  0  0  0  0  0  0
    4.1996    1.5250    0.0000 H   0  0  0  0  0  0  0  0  0  0  0  0
    4.9966    1.5250    0.0000 H   0  0  0  0  0  0  0  0  0  0  0  0
    1.3894    2.6077    0.0000 H   0  0  0  0  0  0  0  0  0  0  0  0
    1.7880    1.9174    0.0000 H   0  0  0  0  0  0  0  0  0  0  0  0
    3.2646    4.4750    0.0000 H   0  0  0  0  0  0  0  0  0  0  0  0
    2.4675    4.4750    0.0000 H   0  0  0  0  0  0  0  0  0  0  0  0
    1.7880    4.0826    0.0000 H   0  0  0  0  0  0  0  0  0  0  0  0
    1.3894    3.3923    0.0000 H   0  0  0  0  0  0  0  0  0  0  0  0
    5.4641    1.8800    0.0000 H   0  0  0  0  0  0  0  0  0  0  0  0
    6.8671    2.3100    0.0000 H   0  0  0  0  0  0  0  0  0  0  0  0
    6.6592    0.1900    0.0000 H   0  0  0  0  0  0  0  0  0  0  0  0
    6.8671    3.6900    0.0000 H   0  0  0  0  0  0  0  0  0  0  0  0
    6.8671    4.6900    0.0000 H   0  0  0  0  0  0  0  0  0  0  0  0
    8.2742    0.4174    0.0000 H   0  0  0  0  0  0  0  0  0  0  0  0
    8.6728    1.1077    0.0000 H   0  0  0  0  0  0  0  0  0  0  0  0
    6.6592   -0.8100    0.0000 H   0  0  0  0  0  0  0  0  0  0  0  0
    7.8501    2.5826    0.0000 H   0  0  0  0  0  0  0  0  0  0  0  0
    7.4516    1.8923    0.0000 H   0  0  0  0  0  0  0  0  0  0  0  0
    4.8535    5.6077    0.0000 H   0  0  0  0  0  0  0  0  0  0  0  0
    5.2520    4.9174    0.0000 H   0  0  0  0  0  0  0  0  0  0  0  0
    8.0622   -2.6200    0.0000 H   0  0  0  0  0  0  0  0  0  0  0  0
    6.9841   -1.9174    0.0000 H   0  0  0  0  0  0  0  0  0  0  0  0
    6.5856   -2.6077    0.0000 H   0  0  0  0  0  0  0  0  0  0  0  0
    8.9282   -3.1200    0.0000 H   0  0  0  0  0  0  0  0  0  0  0  0
   11.1972   -2.8100    0.0000 H   0  0  0  0  0  0  0  0  0  0  0  0
    4.9272    6.8100    0.0000 H   0  0  0  0  0  0  0  0  0  0  0  0
   10.0497   -3.3923    0.0000 H   0  0  0  0  0  0  0  0  0  0  0  0
   10.4482   -4.0826    0.0000 H   0  0  0  0  0  0  0  0  0  0  0  0
    7.7331    6.8100    0.0000 H   0  0  0  0  0  0  0  0  0  0  0  0
   11.5263   -1.3800    0.0000 H   0  0  0  0  0  0  0  0  0  0  0  0
   12.1369   -4.1077    0.0000 H   0  0  0  0  0  0  0  0  0  0  0  0
   11.7383   -3.4174    0.0000 H   0  0  0  0  0  0  0  0  0  0  0  0
    5.7932   -3.6900    0.0000 H   0  0  0  0  0  0  0  0  0  0  0  0
    8.5991   -3.6900    0.0000 H   0  0  0  0  0  0  0  0  0  0  0  0
    9.4651    3.8100    0.0000 H   0  0  0  0  0  0  0  0  0  0  0  0
   13.7953   -1.6900    0.0000 H   0  0  0  0  0  0  0  0  0  0  0  0
    5.7932   -5.3100    0.0000 H   0  0  0  0  0  0  0  0  0  0  0  0
    8.5991   -5.3100    0.0000 H   0  0  0  0  0  0  0  0  0  0  0  0
   13.7258   -2.9750    0.0000 H   0  0  0  0  0  0  0  0  0  0  0  0
   14.5229   -2.9750    0.0000 H   0  0  0  0  0  0  0  0  0  0  0  0
   13.7953   -0.6900    0.0000 H   0  0  0  0  0  0  0  0  0  0  0  0
   12.7214   -0.6900    0.0000 H   0  0  0  0  0  0  0  0  0  0  0  0
    6.6592   -6.8100    0.0000 H   0  0  0  0  0  0  0  0  0  0  0  0
   12.3923   -6.1200    0.0000 H   0  0  0  0  0  0  0  0  0  0  0  0
   16.3933   -2.1900    0.0000 H   0  0  0  0  0  0  0  0  0  0  0  0
  1 36  1  0  0  0  0
  1 87  1  0  0  0  0
  2 30  2  0  0  0  0
  3 31  2  0  0  0  0
  4 39  1  0  0  0  0
  4 90  1  0  0  0  0
  5 37  2  0  0  0  0
  6 39  2  0  0  0  0
  7 41  1  0  0  0  0
  7 96  1  0  0  0  0
  8 41  2  0  0  0  0
  9 43  2  0  0  0  0
 10 49  2  0  0  0  0
 11 53  1  0  0  0  0
 11104  1  0  0  0  0
 12 54  1  0  0  0  0
 12105  1  0  0  0  0
 13 54  2  0  0  0  0
 14 56  1  0  0  0  0
 14106  1  0  0  0  0
 15 56  2  0  0  0  0
 29 16  1  1  0  0  0
 16 31  1  0  0  0  0
 16 71  1  0  0  0  0
 17 30  1  0  0  0  0
 33 17  1  1  0  0  0
 17 73  1  0  0  0  0
 32 18  1  6  0  0  0
 18 37  1  0  0  0  0
 18 77  1  0  0  0  0
 38 19  1  1  0  0  0
 19 43  1  0  0  0  0
 19 85  1  0  0  0  0
 42 20  1  1  0  0  0
 20 49  1  0  0  0  0
 20 91  1  0  0  0  0
 50 21  1  1  0  0  0
 21102  1  0  0  0  0
 21103  1  0  0  0  0
 22 23  1  0  0  0  0
 22 24  1  0  0  0  0
 22 27  1  0  0  0  0
 22 57  1  0  0  0  0
 23 25  1  0  0  0  0
 23 58  1  0  0  0  0
 23 59  1  0  0  0  0
 24 26  1  0  0  0  0
 24 60  1  0  0  0  0
 24 61  1  0  0  0  0
 25 28  1  0  0  0  0
 25 64  1  0  0  0  0
 25 65  1  0  0  0  0
 26 28  1  0  0  0  0
 26 66  1  0  0  0  0
 26 67  1  0  0  0  0
 27 29  1  0  0  0  0
 27 62  1  0  0  0  0
 27 63  1  0  0  0  0
 28 68  1  0  0  0  0
 28 69  1  0  0  0  0
 29 30  1  0  0  0  0
 29 70  1  0  0  0  0
 31 32  1  0  0  0  0
 32 34  1  0  0  0  0
 32 72  1  0  0  0  0
 33 36  1  0  0  0  0
 33 39  1  0  0  0  0
 33 74  1  0  0  0  0
 34 35  1  0  0  0  0
 34 75  1  0  0  0  0
 34 76  1  0  0  0  0
 35 41  1  0  0  0  0
 35 78  1  0  0  0  0
 35 79  1  0  0  0  0
 36 80  1  0  0  0  0
 36 81  1  0  0  0  0
 37 38  1  0  0  0  0
 38 40  1  0  0  0  0
 38 82  1  0  0  0  0
 40 44  1  0  0  0  0
 40 83  1  0  0  0  0
 40 84  1  0  0  0  0
 42 43  1  0  0  0  0
 42 45  1  0  0  0  0
 42 86  1  0  0  0  0
 44 47  2  0  0  0  0
 44 48  1  0  0  0  0
 45 46  1  0  0  0  0
 45 88  1  0  0  0  0
 45 89  1  0  0  0  0
 46 54  1  0  0  0  0
 46 92  1  0  0  0  0
 46 93  1  0  0  0  0
 47 51  1  0  0  0  0
 47 94  1  0  0  0  0
 48 52  2  0  0  0  0
 48 95  1  0  0  0  0
 49 50  1  0  0  0  0
 50 55  1  0  0  0  0
 50 97  1  0  0  0  0
 51 53  2  0  0  0  0
 51 98  1  0  0  0  0
 52 53  1  0  0  0  0
 52 99  1  0  0  0  0
 55 56  1  0  0  0  0
 55100  1  0  0  0  0
 55101  1  0  0  0  0
M  END
> <PUBCHEM_COMPOUND_CID>
512509
> <PUBCHEM_COMPOUND_CANONICALIZED>
1
> <PUBCHEM_CACTVS_COMPLEXITY>
1400
> <PUBCHEM_CACTVS_HBOND_ACCEPTOR>
16
> <PUBCHEM_CACTVS_HBOND_DONOR>
12
> <PUBCHEM_CACTVS_ROTATABLE_BOND>
24
> <PUBCHEM_CACTVS_SUBSKEYS>
AAADcfB/vABAAAAAAAAAAAAAAAAAAAAAAAAwYAAAAAAAAAABAAAAHgQQCAAADSzF2ASwDoLAAgSIAiHSGAACAAAgIAAIiIGOCIgKZjqCkTOUcAAm1hGYmAe/36KOIAAAAAAAAABAAAAAAAAAAAAAAAAAAA==
> <PUBCHEM_IUPAC_OPENEYE_NAME>
(4S)-4-[[(2S)-2-[[(2S)-2-[[(2S)-2-amino-3-carboxy-propanoyl]amino]-4-carboxy-butanoyl]amino]-3-(4-hydroxyphenyl)propanoyl]amino]-5-[[(1S)-2-[[(1R)-1-carboxy-2-sulfanyl-ethyl]amino]-1-(cyclohexylmethyl)-2-oxo-ethyl]amino]-5-oxo-pentanoic acid
> <PUBCHEM_IUPAC_CAS_NAME>
(4S)-4-[[(2S)-2-[[(2S)-2-[[(2S)-2-amino-3-carboxy-1-oxopropyl]amino]-4-carboxy-1-oxobutyl]amino]-3-(4-hydroxyphenyl)-1-oxopropyl]amino]-5-[[(2S)-1-[[(1R)-1-carboxy-2-mercaptoethyl]amino]-3-cyclohexyl-1-oxopropan-2-yl]amino]-5-oxopentanoic acid
> <PUBCHEM_IUPAC_NAME_MARKUP>
(4<I>S</I>)-4-[[(2<I>S</I>)-2-[[(2<I>S</I>)-2-[[(2<I>S</I>)-2-amino-3-carboxypropanoyl]amino]-4-carboxybutanoyl]amino]-3-(4-hydroxyphenyl)propanoyl]amino]-5-[[(2<I>S</I>)-1-[[(1<I>R</I>)-1-carboxy-2-sulfanylethyl]amino]-3-cyclohexyl-1-oxopropan-2-yl]amino]-5-oxopentanoic acid
> <PUBCHEM_IUPAC_NAME>
(4S)-4-[[(2S)-2-[[(2S)-2-[[(2S)-2-amino-3-carboxypropanoyl]amino]-4-carboxybutanoyl]amino]-3-(4-hydroxyphenyl)propanoyl]amino]-5-[[(2S)-1-[[(1R)-1-carboxy-2-sulfanylethyl]amino]-3-cyclohexyl-1-oxopropan-2-yl]amino]-5-oxopentanoic acid
> <PUBCHEM_IUPAC_SYSTEMATIC_NAME>
(4S)-4-[[(2S)-2-[[(2S)-2-[[(2S)-2-azanyl-4-oxidanyl-4-oxidanylidene-butanoyl]amino]-5-oxidanyl-5-oxidanylidene-pentanoyl]amino]-3-(4-hydroxyphenyl)propanoyl]amino]-5-[[(2S)-3-cyclohexyl-1-oxidanylidene-1-[[(2R)-1-oxidanyl-1-oxidanylidene-3-sulfanyl-propan-2-yl]amino]propan-2-yl]amino]-5-oxidanylidene-pentanoic acid
> <PUBCHEM_IUPAC_TRADITIONAL_NAME>
(4S)-4-[[(2S)-2-[[(2S)-2-[[(2S)-2-amino-3-carboxy-propanoyl]amino]-4-carboxy-butanoyl]amino]-3-(4-hydroxyphenyl)propanoyl]amino]-5-[[(1S)-2-[[(1R)-1-carboxy-2-mercapto-ethyl]amino]-1-(cyclohexylmethyl)-2-keto-ethyl]amino]-5-keto-valeric acid
> <PUBCHEM_IUPAC_INCHI>
InChI=1S/C35H50N6O14S/c36-21(16-29(47)48)30(49)37-22(10-12-27(43)44)31(50)40-25(15-19-6-8-20(42)9-7-19)33(52)38-23(11-13-28(45)46)32(51)39-24(14-18-4-2-1-3-5-18)34(53)41-26(17-56)35(54)55/h6-9,18,21-26,42,56H,1-5,10-17,36H2,(H,37,49)(H,38,52)(H,39,51)(H,40,50)(H,41,53)(H,43,44)(H,45,46)(H,47,48)(H,54,55)/t21-,22-,23-,24-,25-,26-/m0/s1
> <PUBCHEM_IUPAC_INCHIKEY>
LAXTYYBKDLAFKZ-FRSCJGFNSA-N
> <PUBCHEM_XLOGP3_AA>
-2.3
> <PUBCHEM_EXACT_MASS>
810.31057146
> <PUBCHEM_MOLECULAR_FORMULA>
C35H50N6O14S
> <PUBCHEM_MOLECULAR_WEIGHT>
810.9
> <PUBCHEM_OPENEYE_CAN_SMILES>
C1CCC(CC1)CC(C(=O)NC(CS)C(=O)O)NC(=O)C(CCC(=O)O)NC(=O)C(CC2=CC=C(C=C2)O)NC(=O)C(CCC(=O)O)NC(=O)C(CC(=O)O)N
> <PUBCHEM_OPENEYE_ISO_SMILES>
C1CCC(CC1)C[C@@H](C(=O)N[C@@H](CS)C(=O)O)NC(=O)[C@H](CCC(=O)O)NC(=O)[C@H](CC2=CC=C(C=C2)O)NC(=O)[C@H](CCC(=O)O)NC(=O)[C@H](CC(=O)O)N
> <PUBCHEM_CACTVS_TPSA>
342
> <PUBCHEM_MONOISOTOPIC_WEIGHT>
810.31057146
> <PUBCHEM_TOTAL_CHARGE>
0
> <PUBCHEM_HEAVY_ATOM_COUNT>
56
> <PUBCHEM_ATOM_DEF_STEREO_COUNT>
6
> <PUBCHEM_ATOM_UDEF_STEREO_COUNT>
0
> <PUBCHEM_BOND_DEF_STEREO_COUNT>
0
> <PUBCHEM_BOND_UDEF_STEREO_COUNT>
0
> <PUBCHEM_ISOTOPIC_ATOM_COUNT>
0
> <PUBCHEM_COMPONENT_COUNT>
1
> <PUBCHEM_CACTVS_TAUTO_COUNT>
-1
> <PUBCHEM_COORDINATE_TYPE>
1
5
255
> <PUBCHEM_BONDANNOTATIONS>
29  16  5
33  17  5
32  18  6
38  19  5
42  20  5
50  21  5
44  47  8
44  48  8
47  51  8
48  52  8
51  53  8
52  53  8
$$$$
