512554
  -OEChem-10302200282D
 35 37  0     1  0  0  0  0  0999 V2000
    5.3548    3.2126    0.0000 S   0  0  0  0  0  0  0  0  0  0  0  0
    6.7485   -0.3808    0.0000 O   0  0  0  0  0  0  0  0  0  0  0  0
    6.7523    1.7948    0.0000 O   0  0  0  0  0  0  0  0  0  0  0  0
    4.6783   -1.0495    0.0000 N   0  0  0  0  0  0  0  0  0  0  0  0
    4.6783   -2.6590    0.0000 N   0  0  0  0  0  0  0  0  0  0  0  0
    2.8660   -0.8542    0.0000 N   0  0  0  0  0  0  0  0  0  0  0  0
    2.0000   -2.3542    0.0000 N   0  0  0  0  0  0  0  0  0  0  0  0
    2.8660   -3.8542    0.0000 N   0  0  0  0  0  0  0  0  0  0  0  0
    4.9889   -0.0990    0.0000 C   0  0  1  0  0  0  0  0  0  0  0  0
    5.9405    0.2084    0.0000 C   0  0  1  0  0  0  0  0  0  0  0  0
    5.9422    1.2084    0.0000 C   0  0  1  0  0  0  0  0  0  0  0  0
    4.9917    1.5191    0.0000 C   0  0  0  0  0  0  0  0  0  0  0  0
    4.4026    0.7111    0.0000 C   0  0  0  0  0  0  0  0  0  0  0  0
    4.6844    2.4706    0.0000 C   0  0  0  0  0  0  0  0  0  0  0  0
    3.7320   -1.3542    0.0000 C   0  0  0  0  0  0  0  0  0  0  0  0
    5.2619   -1.8542    0.0000 C   0  0  0  0  0  0  0  0  0  0  0  0
    3.7320   -2.3542    0.0000 C   0  0  0  0  0  0  0  0  0  0  0  0
    2.8660   -2.8542    0.0000 C   0  0  0  0  0  0  0  0  0  0  0  0
    2.0000   -1.3542    0.0000 C   0  0  0  0  0  0  0  0  0  0  0  0
    5.0474    4.1642    0.0000 C   0  0  0  0  0  0  0  0  0  0  0  0
    5.4266   -0.5381    0.0000 H   0  0  0  0  0  0  0  0  0  0  0  0
    6.4934    0.4889    0.0000 H   0  0  0  0  0  0  0  0  0  0  0  0
    6.4942    0.9260    0.0000 H   0  0  0  0  0  0  0  0  0  0  0  0
    3.7826    0.7121    0.0000 H   0  0  0  0  0  0  0  0  0  0  0  0
    4.3035    2.9599    0.0000 H   0  0  0  0  0  0  0  0  0  0  0  0
    4.1364    2.1805    0.0000 H   0  0  0  0  0  0  0  0  0  0  0  0
    5.8819   -1.8542    0.0000 H   0  0  0  0  0  0  0  0  0  0  0  0
    7.3154   -0.1296    0.0000 H   0  0  0  0  0  0  0  0  0  0  0  0
    7.3182    1.5416    0.0000 H   0  0  0  0  0  0  0  0  0  0  0  0
    1.4631   -1.0442    0.0000 H   0  0  0  0  0  0  0  0  0  0  0  0
    5.6374    4.3548    0.0000 H   0  0  0  0  0  0  0  0  0  0  0  0
    4.8568    4.7542    0.0000 H   0  0  0  0  0  0  0  0  0  0  0  0
    4.4574    3.9736    0.0000 H   0  0  0  0  0  0  0  0  0  0  0  0
    2.3291   -4.1642    0.0000 H   0  0  0  0  0  0  0  0  0  0  0  0
    3.4030   -4.1642    0.0000 H   0  0  0  0  0  0  0  0  0  0  0  0
  1 14  1  0  0  0  0
  1 20  1  0  0  0  0
 10  2  1  1  0  0  0
  2 28  1  0  0  0  0
 11  3  1  1  0  0  0
  3 29  1  0  0  0  0
  9  4  1  6  0  0  0
  4 15  1  0  0  0  0
  4 16  1  0  0  0  0
  5 16  2  0  0  0  0
  5 17  1  0  0  0  0
  6 15  2  0  0  0  0
  6 19  1  0  0  0  0
  7 18  1  0  0  0  0
  7 19  2  0  0  0  0
  8 18  1  0  0  0  0
  8 34  1  0  0  0  0
  8 35  1  0  0  0  0
  9 10  1  0  0  0  0
  9 13  1  0  0  0  0
  9 21  1  0  0  0  0
 10 11  1  0  0  0  0
 10 22  1  0  0  0  0
 11 12  1  0  0  0  0
 11 23  1  0  0  0  0
 12 13  2  0  0  0  0
 12 14  1  0  0  0  0
 13 24  1  0  0  0  0
 14 25  1  0  0  0  0
 14 26  1  0  0  0  0
 15 17  1  0  0  0  0
 16 27  1  0  0  0  0
 17 18  2  0  0  0  0
 19 30  1  0  0  0  0
 20 31  1  0  0  0  0
 20 32  1  0  0  0  0
 20 33  1  0  0  0  0
M  END
> <PUBCHEM_COMPOUND_CID>
512554
> <PUBCHEM_COMPOUND_CANONICALIZED>
1
> <PUBCHEM_CACTVS_COMPLEXITY>
396
> <PUBCHEM_CACTVS_HBOND_ACCEPTOR>
7
> <PUBCHEM_CACTVS_HBOND_DONOR>
3
> <PUBCHEM_CACTVS_ROTATABLE_BOND>
3
> <PUBCHEM_CACTVS_SUBSKEYS>
AAADccBzsABAAAAAAAAAAAAAAAAAAWIAAAAsAAAAAAAAAFgB+AAAHgQQCAAADDzl1waH8L9MEgigAyZjZACAgC0xELABWCAoVBiDXAJgyUAUVAgOwALZECMQAAAAAAAAAAAAAAAAAAAAAAAAAAAAAAAAAA==
> <PUBCHEM_IUPAC_OPENEYE_NAME>
(1S,2R,5R)-5-(6-aminopurin-9-yl)-3-(methylsulfanylmethyl)cyclopent-3-ene-1,2-diol
> <PUBCHEM_IUPAC_CAS_NAME>
(1S,2R,5R)-5-(6-aminopurin-9-yl)-3-[(methylthio)methyl]cyclopent-3-ene-1,2-diol
> <PUBCHEM_IUPAC_NAME_MARKUP>
(1<I>S</I>,2<I>R</I>,5<I>R</I>)-5-(6-aminopurin-9-yl)-3-(methylsulfanylmethyl)cyclopent-3-ene-1,2-diol
> <PUBCHEM_IUPAC_NAME>
(1S,2R,5R)-5-(6-aminopurin-9-yl)-3-(methylsulfanylmethyl)cyclopent-3-ene-1,2-diol
> <PUBCHEM_IUPAC_SYSTEMATIC_NAME>
(1S,2R,5R)-5-(6-aminopurin-9-yl)-3-(methylsulfanylmethyl)cyclopent-3-ene-1,2-diol
> <PUBCHEM_IUPAC_TRADITIONAL_NAME>
(1S,2R,5R)-5-adenin-9-yl-3-[(methylthio)methyl]cyclopent-3-ene-1,2-diol
> <PUBCHEM_IUPAC_INCHI>
InChI=1S/C12H15N5O2S/c1-20-3-6-2-7(10(19)9(6)18)17-5-16-8-11(13)14-4-15-12(8)17/h2,4-5,7,9-10,18-19H,3H2,1H3,(H2,13,14,15)/t7-,9-,10+/m1/s1
> <PUBCHEM_IUPAC_INCHIKEY>
BDXQCQPOGKWBCU-QNSHHTMESA-N
> <PUBCHEM_XLOGP3_AA>
-1.2
> <PUBCHEM_EXACT_MASS>
293.09464591
> <PUBCHEM_MOLECULAR_FORMULA>
C12H15N5O2S
> <PUBCHEM_MOLECULAR_WEIGHT>
293.35
> <PUBCHEM_OPENEYE_CAN_SMILES>
CSCC1=CC(C(C1O)O)N2C=NC3=C(N=CN=C32)N
> <PUBCHEM_OPENEYE_ISO_SMILES>
CSCC1=C[C@H]([C@@H]([C@@H]1O)O)N2C=NC3=C(N=CN=C32)N
> <PUBCHEM_CACTVS_TPSA>
135
> <PUBCHEM_MONOISOTOPIC_WEIGHT>
293.09464591
> <PUBCHEM_TOTAL_CHARGE>
0
> <PUBCHEM_HEAVY_ATOM_COUNT>
20
> <PUBCHEM_ATOM_DEF_STEREO_COUNT>
3
> <PUBCHEM_ATOM_UDEF_STEREO_COUNT>
0
> <PUBCHEM_BOND_DEF_STEREO_COUNT>
0
> <PUBCHEM_BOND_UDEF_STEREO_COUNT>
0
> <PUBCHEM_ISOTOPIC_ATOM_COUNT>
0
> <PUBCHEM_COMPONENT_COUNT>
1
> <PUBCHEM_CACTVS_TAUTO_COUNT>
-1
> <PUBCHEM_COORDINATE_TYPE>
1
5
255
> <PUBCHEM_BONDANNOTATIONS>
15  17  8
17  18  8
10  2  5
11  3  5
4  15  8
4  16  8
9  4  6
5  16  8
5  17  8
6  15  8
6  19  8
7  18  8
7  19  8
$$$$
