512571
  -OEChem-10302200282D
 42 45  0     1  0  0  0  0  0999 V2000
    8.5851    1.3682    0.0000 S   0  0  0  0  0  0  0  0  0  0  0  0
    7.5475    3.0443    0.0000 O   0  0  0  0  0  0  0  0  0  0  0  0
    9.2269   -2.6340    0.0000 O   0  0  0  0  0  0  0  0  0  0  0  0
    6.3555    0.0787    0.0000 N   0  0  0  0  0  0  0  0  0  0  0  0
    6.0620    2.2671    0.0000 N   0  0  0  0  0  0  0  0  0  0  0  0
    5.5156    0.5851    0.0000 C   0  0  2  0  0  0  0  0  0  0  0  0
    5.3852    1.5572    0.0000 C   0  0  0  0  0  0  0  0  0  0  0  0
    4.6795    0.0365    0.0000 C   0  0  0  0  0  0  0  0  0  0  0  0
    7.2760    0.4171    0.0000 C   0  0  0  0  0  0  0  0  0  0  0  0
    7.5850    1.3682    0.0000 C   0  0  0  0  0  0  0  0  0  0  0  0
    8.0851   -0.1706    0.0000 C   0  0  0  0  0  0  0  0  0  0  0  0
    3.7863    0.4862    0.0000 C   0  0  0  0  0  0  0  0  0  0  0  0
    8.8941    0.4171    0.0000 C   0  0  0  0  0  0  0  0  0  0  0  0
    7.0392    2.1831    0.0000 C   0  0  0  0  0  0  0  0  0  0  0  0
    8.1779   -1.2081    0.0000 C   0  0  0  0  0  0  0  0  0  0  0  0
    9.8521    0.0082    0.0000 C   0  0  0  0  0  0  0  0  0  0  0  0
    2.9503   -0.0624    0.0000 C   0  0  0  0  0  0  0  0  0  0  0  0
    3.7292    1.4846    0.0000 C   0  0  0  0  0  0  0  0  0  0  0  0
    9.1262   -1.6391    0.0000 C   0  0  0  0  0  0  0  0  0  0  0  0
    9.9689   -1.0269    0.0000 C   0  0  0  0  0  0  0  0  0  0  0  0
    2.0571    0.3873    0.0000 C   0  0  0  0  0  0  0  0  0  0  0  0
    2.8360    1.9343    0.0000 C   0  0  0  0  0  0  0  0  0  0  0  0
    2.0000    1.3856    0.0000 C   0  0  0  0  0  0  0  0  0  0  0  0
   10.1389   -3.0443    0.0000 C   0  0  0  0  0  0  0  0  0  0  0  0
    5.5274   -0.0347    0.0000 H   0  0  0  0  0  0  0  0  0  0  0  0
    5.0434    2.0745    0.0000 H   0  0  0  0  0  0  0  0  0  0  0  0
    4.8046    1.3396    0.0000 H   0  0  0  0  0  0  0  0  0  0  0  0
    4.3088   -0.4604    0.0000 H   0  0  0  0  0  0  0  0  0  0  0  0
    5.1045   -0.4149    0.0000 H   0  0  0  0  0  0  0  0  0  0  0  0
    6.2966   -0.5385    0.0000 H   0  0  0  0  0  0  0  0  0  0  0  0
    5.8426    2.8469    0.0000 H   0  0  0  0  0  0  0  0  0  0  0  0
    7.6722   -1.5667    0.0000 H   0  0  0  0  0  0  0  0  0  0  0  0
   10.3494    0.3784    0.0000 H   0  0  0  0  0  0  0  0  0  0  0  0
    2.9857   -0.6814    0.0000 H   0  0  0  0  0  0  0  0  0  0  0  0
    4.2476    1.8248    0.0000 H   0  0  0  0  0  0  0  0  0  0  0  0
   10.5363   -1.2768    0.0000 H   0  0  0  0  0  0  0  0  0  0  0  0
    1.5388    0.0471    0.0000 H   0  0  0  0  0  0  0  0  0  0  0  0
    2.8006    2.5533    0.0000 H   0  0  0  0  0  0  0  0  0  0  0  0
    1.4462    1.6645    0.0000 H   0  0  0  0  0  0  0  0  0  0  0  0
    9.8845   -3.6097    0.0000 H   0  0  0  0  0  0  0  0  0  0  0  0
   10.7043   -3.2986    0.0000 H   0  0  0  0  0  0  0  0  0  0  0  0
   10.3933   -2.4789    0.0000 H   0  0  0  0  0  0  0  0  0  0  0  0
  1 10  1  0  0  0  0
  1 13  1  0  0  0  0
  2 14  2  0  0  0  0
  3 19  1  0  0  0  0
  3 24  1  0  0  0  0
  4  6  1  0  0  0  0
  4  9  1  0  0  0  0
  4 30  1  0  0  0  0
  5  7  1  0  0  0  0
  5 14  1  0  0  0  0
  5 31  1  0  0  0  0
  6  7  1  0  0  0  0
  6  8  1  1  0  0  0
  6 25  1  0  0  0  0
  7 26  1  0  0  0  0
  7 27  1  0  0  0  0
  8 12  1  0  0  0  0
  8 28  1  0  0  0  0
  8 29  1  0  0  0  0
  9 10  2  0  0  0  0
  9 11  1  0  0  0  0
 10 14  1  0  0  0  0
 11 13  2  0  0  0  0
 11 15  1  0  0  0  0
 12 17  2  0  0  0  0
 12 18  1  0  0  0  0
 13 16  1  0  0  0  0
 15 19  2  0  0  0  0
 15 32  1  0  0  0  0
 16 20  2  0  0  0  0
 16 33  1  0  0  0  0
 17 21  1  0  0  0  0
 17 34  1  0  0  0  0
 18 22  2  0  0  0  0
 18 35  1  0  0  0  0
 19 20  1  0  0  0  0
 20 36  1  0  0  0  0
 21 23  2  0  0  0  0
 21 37  1  0  0  0  0
 22 23  1  0  0  0  0
 22 38  1  0  0  0  0
 23 39  1  0  0  0  0
 24 40  1  0  0  0  0
 24 41  1  0  0  0  0
 24 42  1  0  0  0  0
M  END
> <PUBCHEM_COMPOUND_CID>
512571
> <PUBCHEM_COMPOUND_CANONICALIZED>
1
> <PUBCHEM_CACTVS_COMPLEXITY>
455
> <PUBCHEM_CACTVS_HBOND_ACCEPTOR>
4
> <PUBCHEM_CACTVS_HBOND_DONOR>
2
> <PUBCHEM_CACTVS_ROTATABLE_BOND>
3
> <PUBCHEM_CACTVS_SUBSKEYS>
AAADceB7MABAAAAAAAAAAAAAAAAAASAAAAAwYAAABYAAAEix9AAAHgQQAAAADCzB2AYyx8LABAiMAiVSUACDCIAlKBBIiJ0OTMgMZjrk9ZuUMaxk1hHo6Ue4yLCOAIABAAAEAAABAAIAAAgAAAAAAAAAAA==
> <PUBCHEM_IUPAC_OPENEYE_NAME>
(2S)-2-benzyl-9-methoxy-1,2,3,4-tetrahydrobenzothiopheno[3,2-e][1,4]diazepin-5-one
> <PUBCHEM_IUPAC_CAS_NAME>
(2S)-9-methoxy-2-(phenylmethyl)-1,2,3,4-tetrahydro-[1]benzothiolo[3,2-e][1,4]diazepin-5-one
> <PUBCHEM_IUPAC_NAME_MARKUP>
(2<I>S</I>)-2-benzyl-9-methoxy-1,2,3,4-tetrahydro-[1]benzothiolo[3,2-e][1,4]diazepin-5-one
> <PUBCHEM_IUPAC_NAME>
(2S)-2-benzyl-9-methoxy-1,2,3,4-tetrahydro-[1]benzothiolo[3,2-e][1,4]diazepin-5-one
> <PUBCHEM_IUPAC_SYSTEMATIC_NAME>
(2S)-9-methoxy-2-(phenylmethyl)-1,2,3,4-tetrahydro-[1]benzothiolo[3,2-e][1,4]diazepin-5-one
> <PUBCHEM_IUPAC_TRADITIONAL_NAME>
(2S)-2-benzyl-9-methoxy-1,2,3,4-tetrahydrobenzothiopheno[3,2-e][1,4]diazepin-5-one
> <PUBCHEM_IUPAC_INCHI>
InChI=1S/C19H18N2O2S/c1-23-14-7-8-16-15(10-14)17-18(24-16)19(22)20-11-13(21-17)9-12-5-3-2-4-6-12/h2-8,10,13,21H,9,11H2,1H3,(H,20,22)/t13-/m0/s1
> <PUBCHEM_IUPAC_INCHIKEY>
GMMKBMFISPUHMR-ZDUSSCGKSA-N
> <PUBCHEM_XLOGP3_AA>
4.3
> <PUBCHEM_EXACT_MASS>
338.10889899
> <PUBCHEM_MOLECULAR_FORMULA>
C19H18N2O2S
> <PUBCHEM_MOLECULAR_WEIGHT>
338.4
> <PUBCHEM_OPENEYE_CAN_SMILES>
COC1=CC2=C(C=C1)SC3=C2NC(CNC3=O)CC4=CC=CC=C4
> <PUBCHEM_OPENEYE_ISO_SMILES>
COC1=CC2=C(C=C1)SC3=C2N[C@H](CNC3=O)CC4=CC=CC=C4
> <PUBCHEM_CACTVS_TPSA>
78.6
> <PUBCHEM_MONOISOTOPIC_WEIGHT>
338.10889899
> <PUBCHEM_TOTAL_CHARGE>
0
> <PUBCHEM_HEAVY_ATOM_COUNT>
24
> <PUBCHEM_ATOM_DEF_STEREO_COUNT>
1
> <PUBCHEM_ATOM_UDEF_STEREO_COUNT>
0
> <PUBCHEM_BOND_DEF_STEREO_COUNT>
0
> <PUBCHEM_BOND_UDEF_STEREO_COUNT>
0
> <PUBCHEM_ISOTOPIC_ATOM_COUNT>
0
> <PUBCHEM_COMPONENT_COUNT>
1
> <PUBCHEM_CACTVS_TAUTO_COUNT>
-1
> <PUBCHEM_COORDINATE_TYPE>
1
5
255
> <PUBCHEM_BONDANNOTATIONS>
1  10  8
1  13  8
11  13  8
11  15  8
12  17  8
12  18  8
13  16  8
15  19  8
16  20  8
17  21  8
18  22  8
19  20  8
21  23  8
22  23  8
6  8  5
9  10  8
9  11  8
$$$$
