512518
  -OEChem-10302200282D
115117  0     1  0  0  0  0  0999 V2000
   12.9292    6.1550    0.0000 S   0  0  0  0  0  0  0  0  0  0  0  0
   13.7953    3.6550    0.0000 O   0  0  0  0  0  0  0  0  0  0  0  0
   12.9292    0.1550    0.0000 O   0  0  0  0  0  0  0  0  0  0  0  0
    9.4651   -0.8450    0.0000 O   0  0  0  0  0  0  0  0  0  0  0  0
   11.1972    6.1550    0.0000 O   0  0  0  0  0  0  0  0  0  0  0  0
   10.3312    4.6550    0.0000 O   0  0  0  0  0  0  0  0  0  0  0  0
    8.5991   -1.3450    0.0000 O   0  0  0  0  0  0  0  0  0  0  0  0
    9.4651    3.1550    0.0000 O   0  0  0  0  0  0  0  0  0  0  0  0
    8.5991    1.6550    0.0000 O   0  0  0  0  0  0  0  0  0  0  0  0
    6.0010   -3.8450    0.0000 O   0  0  0  0  0  0  0  0  0  0  0  0
    6.0010   -5.8450    0.0000 O   0  0  0  0  0  0  0  0  0  0  0  0
    7.7331   -5.8450    0.0000 O   0  0  0  0  0  0  0  0  0  0  0  0
    2.5369   -2.8450    0.0000 O   0  0  0  0  0  0  0  0  0  0  0  0
    3.4030   -1.3450    0.0000 O   0  0  0  0  0  0  0  0  0  0  0  0
   12.0632    1.6550    0.0000 N   0  0  0  0  0  0  0  0  0  0  0  0
   12.0632    3.6550    0.0000 N   0  0  0  0  0  0  0  0  0  0  0  0
   11.1972   -0.8450    0.0000 N   0  0  0  0  0  0  0  0  0  0  0  0
    9.4651   -2.8450    0.0000 N   0  0  0  0  0  0  0  0  0  0  0  0
    6.8671   -2.3450    0.0000 N   0  0  0  0  0  0  0  0  0  0  0  0
    5.1350   -1.3450    0.0000 N   0  0  0  0  0  0  0  0  0  0  0  0
   14.6613    2.1550    0.0000 C   0  0  0  0  0  0  0  0  0  0  0  0
   14.6613    3.1550    0.0000 C   0  0  0  0  0  0  0  0  0  0  0  0
   15.5273    1.6550    0.0000 C   0  0  0  0  0  0  0  0  0  0  0  0
   13.7953    1.6550    0.0000 C   0  0  0  0  0  0  0  0  0  0  0  0
   15.5273    3.6550    0.0000 C   0  0  0  0  0  0  0  0  0  0  0  0
   16.3933    2.1550    0.0000 C   0  0  0  0  0  0  0  0  0  0  0  0
   16.3933    3.1550    0.0000 C   0  0  0  0  0  0  0  0  0  0  0  0
   12.9292    2.1550    0.0000 C   0  0  1  0  0  0  0  0  0  0  0  0
   12.9292    3.1550    0.0000 C   0  0  0  0  0  0  0  0  0  0  0  0
   12.0632    0.6550    0.0000 C   0  0  0  0  0  0  0  0  0  0  0  0
   11.1972    0.1550    0.0000 C   0  0  2  0  0  0  0  0  0  0  0  0
   10.3312    0.6550    0.0000 C   0  0  0  0  0  0  0  0  0  0  0  0
   12.0632    4.6550    0.0000 C   0  0  2  0  0  0  0  0  0  0  0  0
   10.3312   -2.3450    0.0000 C   0  0  1  0  0  0  0  0  0  0  0  0
   11.1972   -2.8450    0.0000 C   0  0  0  0  0  0  0  0  0  0  0  0
   10.3312   -1.3450    0.0000 C   0  0  0  0  0  0  0  0  0  0  0  0
   10.3312    1.6550    0.0000 C   0  0  0  0  0  0  0  0  0  0  0  0
   12.9292    5.1550    0.0000 C   0  0  0  0  0  0  0  0  0  0  0  0
   11.1972    5.1550    0.0000 C   0  0  0  0  0  0  0  0  0  0  0  0
   11.1972   -3.8450    0.0000 C   0  0  0  0  0  0  0  0  0  0  0  0
   12.1972   -2.8450    0.0000 C   0  0  0  0  0  0  0  0  0  0  0  0
    7.7331   -2.8450    0.0000 C   0  0  2  0  0  0  0  0  0  0  0  0
    8.5991   -2.3450    0.0000 C   0  0  0  0  0  0  0  0  0  0  0  0
    9.4651    2.1550    0.0000 C   0  0  0  0  0  0  0  0  0  0  0  0
    7.7331   -3.8450    0.0000 C   0  0  0  0  0  0  0  0  0  0  0  0
   12.0632   -4.3450    0.0000 C   0  0  0  0  0  0  0  0  0  0  0  0
   12.6972   -1.9790    0.0000 C   0  0  0  0  0  0  0  0  0  0  0  0
   10.3312   -4.3450    0.0000 C   0  0  0  0  0  0  0  0  0  0  0  0
   12.6972   -3.7110    0.0000 C   0  0  0  0  0  0  0  0  0  0  0  0
    6.8671   -4.3450    0.0000 C   0  0  0  0  0  0  0  0  0  0  0  0
   12.0632   -5.3450    0.0000 C   0  0  0  0  0  0  0  0  0  0  0  0
   13.6972   -1.9790    0.0000 C   0  0  0  0  0  0  0  0  0  0  0  0
   10.3312   -5.3450    0.0000 C   0  0  0  0  0  0  0  0  0  0  0  0
   13.6972   -3.7110    0.0000 C   0  0  0  0  0  0  0  0  0  0  0  0
   11.1972   -5.8450    0.0000 C   0  0  0  0  0  0  0  0  0  0  0  0
   14.1972   -2.8450    0.0000 C   0  0  0  0  0  0  0  0  0  0  0  0
    6.0010   -2.8450    0.0000 C   0  0  0  0  0  0  0  0  0  0  0  0
    5.1350   -2.3450    0.0000 C   0  0  2  0  0  0  0  0  0  0  0  0
    6.8671   -5.3450    0.0000 C   0  0  0  0  0  0  0  0  0  0  0  0
    4.2690   -2.8450    0.0000 C   0  0  0  0  0  0  0  0  0  0  0  0
    3.4030   -2.3450    0.0000 C   0  0  0  0  0  0  0  0  0  0  0  0
   14.1244    2.4650    0.0000 H   0  0  0  0  0  0  0  0  0  0  0  0
   14.4492    3.7376    0.0000 H   0  0  0  0  0  0  0  0  0  0  0  0
   14.0507    3.0473    0.0000 H   0  0  0  0  0  0  0  0  0  0  0  0
   15.1288    1.1800    0.0000 H   0  0  0  0  0  0  0  0  0  0  0  0
   15.9258    1.1800    0.0000 H   0  0  0  0  0  0  0  0  0  0  0  0
   13.3967    1.1800    0.0000 H   0  0  0  0  0  0  0  0  0  0  0  0
   14.1938    1.1800    0.0000 H   0  0  0  0  0  0  0  0  0  0  0  0
   15.9258    4.1300    0.0000 H   0  0  0  0  0  0  0  0  0  0  0  0
   15.1288    4.1300    0.0000 H   0  0  0  0  0  0  0  0  0  0  0  0
   16.6054    1.5724    0.0000 H   0  0  0  0  0  0  0  0  0  0  0  0
   17.0039    2.2627    0.0000 H   0  0  0  0  0  0  0  0  0  0  0  0
   17.0039    3.0473    0.0000 H   0  0  0  0  0  0  0  0  0  0  0  0
   16.6054    3.7376    0.0000 H   0  0  0  0  0  0  0  0  0  0  0  0
   12.3923    2.4650    0.0000 H   0  0  0  0  0  0  0  0  0  0  0  0
   11.5263    1.9650    0.0000 H   0  0  0  0  0  0  0  0  0  0  0  0
   10.6603   -0.1550    0.0000 H   0  0  0  0  0  0  0  0  0  0  0  0
   11.5263    3.3450    0.0000 H   0  0  0  0  0  0  0  0  0  0  0  0
    9.7206    0.7627    0.0000 H   0  0  0  0  0  0  0  0  0  0  0  0
   10.1191    0.0724    0.0000 H   0  0  0  0  0  0  0  0  0  0  0  0
   12.6002    4.3450    0.0000 H   0  0  0  0  0  0  0  0  0  0  0  0
   11.7341   -1.1550    0.0000 H   0  0  0  0  0  0  0  0  0  0  0  0
    9.7942   -2.0350    0.0000 H   0  0  0  0  0  0  0  0  0  0  0  0
   11.3577   -2.2461    0.0000 H   0  0  0  0  0  0  0  0  0  0  0  0
   10.9417    1.5473    0.0000 H   0  0  0  0  0  0  0  0  0  0  0  0
   10.5432    2.2376    0.0000 H   0  0  0  0  0  0  0  0  0  0  0  0
   13.1413    4.5724    0.0000 H   0  0  0  0  0  0  0  0  0  0  0  0
   13.5398    5.2627    0.0000 H   0  0  0  0  0  0  0  0  0  0  0  0
    9.4651   -3.4650    0.0000 H   0  0  0  0  0  0  0  0  0  0  0  0
    7.7331   -2.2250    0.0000 H   0  0  0  0  0  0  0  0  0  0  0  0
    7.9451   -4.4276    0.0000 H   0  0  0  0  0  0  0  0  0  0  0  0
    8.3437   -3.7373    0.0000 H   0  0  0  0  0  0  0  0  0  0  0  0
   12.6002   -4.0350    0.0000 H   0  0  0  0  0  0  0  0  0  0  0  0
   12.3872   -1.4420    0.0000 H   0  0  0  0  0  0  0  0  0  0  0  0
    9.7942   -4.0350    0.0000 H   0  0  0  0  0  0  0  0  0  0  0  0
   12.3872   -4.2480    0.0000 H   0  0  0  0  0  0  0  0  0  0  0  0
   13.4662    6.4650    0.0000 H   0  0  0  0  0  0  0  0  0  0  0  0
    6.8671   -1.7250    0.0000 H   0  0  0  0  0  0  0  0  0  0  0  0
   10.6603    6.4650    0.0000 H   0  0  0  0  0  0  0  0  0  0  0  0
    6.6550   -3.7624    0.0000 H   0  0  0  0  0  0  0  0  0  0  0  0
    6.2565   -4.4527    0.0000 H   0  0  0  0  0  0  0  0  0  0  0  0
   12.6002   -5.6550    0.0000 H   0  0  0  0  0  0  0  0  0  0  0  0
   14.0072   -1.4420    0.0000 H   0  0  0  0  0  0  0  0  0  0  0  0
    9.7942   -5.6550    0.0000 H   0  0  0  0  0  0  0  0  0  0  0  0
   14.0072   -4.2480    0.0000 H   0  0  0  0  0  0  0  0  0  0  0  0
   11.1972   -6.4650    0.0000 H   0  0  0  0  0  0  0  0  0  0  0  0
   14.8172   -2.8450    0.0000 H   0  0  0  0  0  0  0  0  0  0  0  0
    8.9282    3.4650    0.0000 H   0  0  0  0  0  0  0  0  0  0  0  0
    5.6720   -2.0350    0.0000 H   0  0  0  0  0  0  0  0  0  0  0  0
    3.8705   -3.3200    0.0000 H   0  0  0  0  0  0  0  0  0  0  0  0
    4.6675   -3.3200    0.0000 H   0  0  0  0  0  0  0  0  0  0  0  0
    4.5981   -1.0350    0.0000 H   0  0  0  0  0  0  0  0  0  0  0  0
    5.6720   -1.0350    0.0000 H   0  0  0  0  0  0  0  0  0  0  0  0
    6.0010   -6.4650    0.0000 H   0  0  0  0  0  0  0  0  0  0  0  0
    2.0000   -2.5350    0.0000 H   0  0  0  0  0  0  0  0  0  0  0  0
  1 38  1  0  0  0  0
  1 97  1  0  0  0  0
  2 29  2  0  0  0  0
  3 30  2  0  0  0  0
  4 36  2  0  0  0  0
  5 39  1  0  0  0  0
  5 99  1  0  0  0  0
  6 39  2  0  0  0  0
  7 43  2  0  0  0  0
  8 44  1  0  0  0  0
  8108  1  0  0  0  0
  9 44  2  0  0  0  0
 10 57  2  0  0  0  0
 11 59  1  0  0  0  0
 11114  1  0  0  0  0
 12 59  2  0  0  0  0
 13 61  1  0  0  0  0
 13115  1  0  0  0  0
 14 61  2  0  0  0  0
 28 15  1  6  0  0  0
 15 30  1  0  0  0  0
 15 76  1  0  0  0  0
 16 29  1  0  0  0  0
 33 16  1  1  0  0  0
 16 78  1  0  0  0  0
 31 17  1  1  0  0  0
 17 36  1  0  0  0  0
 17 82  1  0  0  0  0
 34 18  1  6  0  0  0
 18 43  1  0  0  0  0
 18 89  1  0  0  0  0
 42 19  1  6  0  0  0
 19 57  1  0  0  0  0
 19 98  1  0  0  0  0
 58 20  1  6  0  0  0
 20112  1  0  0  0  0
 20113  1  0  0  0  0
 21 22  1  0  0  0  0
 21 23  1  0  0  0  0
 21 24  1  0  0  0  0
 21 62  1  0  0  0  0
 22 25  1  0  0  0  0
 22 63  1  0  0  0  0
 22 64  1  0  0  0  0
 23 26  1  0  0  0  0
 23 65  1  0  0  0  0
 23 66  1  0  0  0  0
 24 28  1  0  0  0  0
 24 67  1  0  0  0  0
 24 68  1  0  0  0  0
 25 27  1  0  0  0  0
 25 69  1  0  0  0  0
 25 70  1  0  0  0  0
 26 27  1  0  0  0  0
 26 71  1  0  0  0  0
 26 72  1  0  0  0  0
 27 73  1  0  0  0  0
 27 74  1  0  0  0  0
 28 29  1  0  0  0  0
 28 75  1  0  0  0  0
 30 31  1  0  0  0  0
 31 32  1  0  0  0  0
 31 77  1  0  0  0  0
 32 37  1  0  0  0  0
 32 79  1  0  0  0  0
 32 80  1  0  0  0  0
 33 38  1  0  0  0  0
 33 39  1  0  0  0  0
 33 81  1  0  0  0  0
 34 35  1  0  0  0  0
 34 36  1  0  0  0  0
 34 83  1  0  0  0  0
 35 40  1  0  0  0  0
 35 41  1  0  0  0  0
 35 84  1  0  0  0  0
 37 44  1  0  0  0  0
 37 85  1  0  0  0  0
 37 86  1  0  0  0  0
 38 87  1  0  0  0  0
 38 88  1  0  0  0  0
 40 46  2  0  0  0  0
 40 48  1  0  0  0  0
 41 47  2  0  0  0  0
 41 49  1  0  0  0  0
 42 43  1  0  0  0  0
 42 45  1  0  0  0  0
 42 90  1  0  0  0  0
 45 50  1  0  0  0  0
 45 91  1  0  0  0  0
 45 92  1  0  0  0  0
 46 51  1  0  0  0  0
 46 93  1  0  0  0  0
 47 52  1  0  0  0  0
 47 94  1  0  0  0  0
 48 53  2  0  0  0  0
 48 95  1  0  0  0  0
 49 54  2  0  0  0  0
 49 96  1  0  0  0  0
 50 59  1  0  0  0  0
 50100  1  0  0  0  0
 50101  1  0  0  0  0
 51 55  2  0  0  0  0
 51102  1  0  0  0  0
 52 56  2  0  0  0  0
 52103  1  0  0  0  0
 53 55  1  0  0  0  0
 53104  1  0  0  0  0
 54 56  1  0  0  0  0
 54105  1  0  0  0  0
 55106  1  0  0  0  0
 56107  1  0  0  0  0
 57 58  1  0  0  0  0
 58 60  1  0  0  0  0
 58109  1  0  0  0  0
 60 61  1  0  0  0  0
 60110  1  0  0  0  0
 60111  1  0  0  0  0
M  END
> <PUBCHEM_COMPOUND_CID>
512518
> <PUBCHEM_COMPOUND_CANONICALIZED>
1
> <PUBCHEM_CACTVS_COMPLEXITY>
1510
> <PUBCHEM_CACTVS_HBOND_ACCEPTOR>
15
> <PUBCHEM_CACTVS_HBOND_DONOR>
11
> <PUBCHEM_CACTVS_ROTATABLE_BOND>
25
> <PUBCHEM_CACTVS_SUBSKEYS>
AAADcfB/vABAAAAAAAAAAAAAAAAAAAAAAAAwYMAAAAAAAAABQAAAHgQQCAAADSjF2ASwCILAAgSIAiHSGAACAAAgAAAIiIGIAIgKYDqAkTGUYAAmlgCYiAe/n8KOgAAAAAAAAAAAAAAAAAAAAAAAAAAAAA==
> <PUBCHEM_IUPAC_OPENEYE_NAME>
(4S)-4-[[(2S)-2-amino-3-carboxy-propanoyl]amino]-5-[[(1S)-1-benzhydryl-2-[[(1S)-3-carboxy-1-[[(1S)-2-[[(1S)-1-carboxy-2-sulfanyl-ethyl]amino]-1-(cyclohexylmethyl)-2-oxo-ethyl]carbamoyl]propyl]amino]-2-oxo-ethyl]amino]-5-oxo-pentanoic acid
> <PUBCHEM_IUPAC_CAS_NAME>
(4S)-4-[[(2S)-2-amino-3-carboxy-1-oxopropyl]amino]-5-[[(2S)-1-[[(2S)-4-carboxy-1-[[(2S)-1-[[(1S)-1-carboxy-2-mercaptoethyl]amino]-3-cyclohexyl-1-oxopropan-2-yl]amino]-1-oxobutan-2-yl]amino]-1-oxo-3,3-diphenylpropan-2-yl]amino]-5-oxopentanoic acid
> <PUBCHEM_IUPAC_NAME_MARKUP>
(4<I>S</I>)-4-[[(2<I>S</I>)-2-amino-3-carboxypropanoyl]amino]-5-[[(2<I>S</I>)-1-[[(2<I>S</I>)-4-carboxy-1-[[(2<I>S</I>)-1-[[(1<I>S</I>)-1-carboxy-2-sulfanylethyl]amino]-3-cyclohexyl-1-oxopropan-2-yl]amino]-1-oxobutan-2-yl]amino]-1-oxo-3,3-diphenylpropan-2-yl]amino]-5-oxopentanoic acid
> <PUBCHEM_IUPAC_NAME>
(4S)-4-[[(2S)-2-amino-3-carboxypropanoyl]amino]-5-[[(2S)-1-[[(2S)-4-carboxy-1-[[(2S)-1-[[(1S)-1-carboxy-2-sulfanylethyl]amino]-3-cyclohexyl-1-oxopropan-2-yl]amino]-1-oxobutan-2-yl]amino]-1-oxo-3,3-diphenylpropan-2-yl]amino]-5-oxopentanoic acid
> <PUBCHEM_IUPAC_SYSTEMATIC_NAME>
(4S)-4-[[(2S)-2-azanyl-4-oxidanyl-4-oxidanylidene-butanoyl]amino]-5-[[(2S)-1-[[(2S)-1-[[(2S)-3-cyclohexyl-1-oxidanylidene-1-[[(2S)-1-oxidanyl-1-oxidanylidene-3-sulfanyl-propan-2-yl]amino]propan-2-yl]amino]-5-oxidanyl-1,5-bis(oxidanylidene)pentan-2-yl]amino]-1-oxidanylidene-3,3-diphenyl-propan-2-yl]amino]-5-oxidanylidene-pentanoic acid
> <PUBCHEM_IUPAC_TRADITIONAL_NAME>
(4S)-4-[[(2S)-2-amino-3-carboxy-propanoyl]amino]-5-[[(1S)-1-benzhydryl-2-[[(1S)-3-carboxy-1-[[(1S)-2-[[(1S)-1-carboxy-2-mercapto-ethyl]amino]-1-(cyclohexylmethyl)-2-keto-ethyl]carbamoyl]propyl]amino]-2-keto-ethyl]amino]-5-keto-valeric acid
> <PUBCHEM_IUPAC_INCHI>
InChI=1S/C41H54N6O13S/c42-26(21-33(52)53)36(54)43-28(17-19-32(50)51)38(56)47-35(34(24-12-6-2-7-13-24)25-14-8-3-9-15-25)40(58)44-27(16-18-31(48)49)37(55)45-29(20-23-10-4-1-5-11-23)39(57)46-30(22-61)41(59)60/h2-3,6-9,12-15,23,26-30,34-35,61H,1,4-5,10-11,16-22,42H2,(H,43,54)(H,44,58)(H,45,55)(H,46,57)(H,47,56)(H,48,49)(H,50,51)(H,52,53)(H,59,60)/t26-,27-,28-,29-,30+,35-/m0/s1
> <PUBCHEM_IUPAC_INCHIKEY>
IDIFQPTUAPTICY-SNMQKVRGSA-N
> <PUBCHEM_XLOGP3_AA>
-0.5
> <PUBCHEM_EXACT_MASS>
870.34695697
> <PUBCHEM_MOLECULAR_FORMULA>
C41H54N6O13S
> <PUBCHEM_MOLECULAR_WEIGHT>
871.0
> <PUBCHEM_OPENEYE_CAN_SMILES>
C1CCC(CC1)CC(C(=O)NC(CS)C(=O)O)NC(=O)C(CCC(=O)O)NC(=O)C(C(C2=CC=CC=C2)C3=CC=CC=C3)NC(=O)C(CCC(=O)O)NC(=O)C(CC(=O)O)N
> <PUBCHEM_OPENEYE_ISO_SMILES>
C1CCC(CC1)C[C@@H](C(=O)N[C@H](CS)C(=O)O)NC(=O)[C@H](CCC(=O)O)NC(=O)[C@H](C(C2=CC=CC=C2)C3=CC=CC=C3)NC(=O)[C@H](CCC(=O)O)NC(=O)[C@H](CC(=O)O)N
> <PUBCHEM_CACTVS_TPSA>
322
> <PUBCHEM_MONOISOTOPIC_WEIGHT>
870.34695697
> <PUBCHEM_TOTAL_CHARGE>
0
> <PUBCHEM_HEAVY_ATOM_COUNT>
61
> <PUBCHEM_ATOM_DEF_STEREO_COUNT>
6
> <PUBCHEM_ATOM_UDEF_STEREO_COUNT>
0
> <PUBCHEM_BOND_DEF_STEREO_COUNT>
0
> <PUBCHEM_BOND_UDEF_STEREO_COUNT>
0
> <PUBCHEM_ISOTOPIC_ATOM_COUNT>
0
> <PUBCHEM_COMPONENT_COUNT>
1
> <PUBCHEM_CACTVS_TAUTO_COUNT>
-1
> <PUBCHEM_COORDINATE_TYPE>
1
5
255
> <PUBCHEM_BONDANNOTATIONS>
28  15  6
33  16  5
31  17  5
34  18  6
42  19  6
58  20  6
40  46  8
40  48  8
41  47  8
41  49  8
46  51  8
47  52  8
48  53  8
49  54  8
51  55  8
52  56  8
53  55  8
54  56  8
$$$$
