512507
  -OEChem-10302200282D
101101  0     1  0  0  0  0  0999 V2000
   12.3923   -6.1550    0.0000 S   0  0  0  0  0  0  0  0  0  0  0  0
    9.7942   -5.6550    0.0000 O   0  0  0  0  0  0  0  0  0  0  0  0
    7.1962   -3.1550    0.0000 O   0  0  0  0  0  0  0  0  0  0  0  0
    8.0622    0.3450    0.0000 O   0  0  0  0  0  0  0  0  0  0  0  0
   13.2583   -4.6550    0.0000 O   0  0  0  0  0  0  0  0  0  0  0  0
   12.3923   -3.1550    0.0000 O   0  0  0  0  0  0  0  0  0  0  0  0
    4.5981    1.3450    0.0000 O   0  0  0  0  0  0  0  0  0  0  0  0
    9.7942    1.3450    0.0000 O   0  0  0  0  0  0  0  0  0  0  0  0
   10.6603   -0.1550    0.0000 O   0  0  0  0  0  0  0  0  0  0  0  0
    5.4641    4.8450    0.0000 O   0  0  0  0  0  0  0  0  0  0  0  0
    7.1962    5.8450    0.0000 O   0  0  0  0  0  0  0  0  0  0  0  0
    8.0622    4.3450    0.0000 O   0  0  0  0  0  0  0  0  0  0  0  0
    2.8660    7.3450    0.0000 O   0  0  0  0  0  0  0  0  0  0  0  0
    2.0000    5.8450    0.0000 O   0  0  0  0  0  0  0  0  0  0  0  0
    8.9282   -3.1550    0.0000 N   0  0  0  0  0  0  0  0  0  0  0  0
   10.6603   -4.1550    0.0000 N   0  0  0  0  0  0  0  0  0  0  0  0
    7.1962   -1.1550    0.0000 N   0  0  0  0  0  0  0  0  0  0  0  0
    6.3301    1.3450    0.0000 N   0  0  0  0  0  0  0  0  0  0  0  0
    4.5981    3.3450    0.0000 N   0  0  0  0  0  0  0  0  0  0  0  0
    2.8660    4.3450    0.0000 N   0  0  0  0  0  0  0  0  0  0  0  0
    8.0622   -5.6550    0.0000 C   0  0  0  0  0  0  0  0  0  0  0  0
    7.1962   -6.1550    0.0000 C   0  0  0  0  0  0  0  0  0  0  0  0
    8.9282   -6.1550    0.0000 C   0  0  0  0  0  0  0  0  0  0  0  0
    8.0622   -4.6550    0.0000 C   0  0  0  0  0  0  0  0  0  0  0  0
    7.1962   -7.1550    0.0000 C   0  0  0  0  0  0  0  0  0  0  0  0
    8.9282   -7.1550    0.0000 C   0  0  0  0  0  0  0  0  0  0  0  0
    8.0622   -7.6550    0.0000 C   0  0  0  0  0  0  0  0  0  0  0  0
    8.9282   -4.1550    0.0000 C   0  0  1  0  0  0  0  0  0  0  0  0
    9.7942   -4.6550    0.0000 C   0  0  0  0  0  0  0  0  0  0  0  0
    8.0622   -2.6550    0.0000 C   0  0  0  0  0  0  0  0  0  0  0  0
    8.0622   -1.6550    0.0000 C   0  0  2  0  0  0  0  0  0  0  0  0
    8.9282   -1.1550    0.0000 C   0  0  0  0  0  0  0  0  0  0  0  0
   11.5263   -4.6550    0.0000 C   0  0  1  0  0  0  0  0  0  0  0  0
    6.3301    0.3450    0.0000 C   0  0  1  0  0  0  0  0  0  0  0  0
    5.4641   -0.1550    0.0000 C   0  0  0  0  0  0  0  0  0  0  0  0
    7.1962   -0.1550    0.0000 C   0  0  0  0  0  0  0  0  0  0  0  0
    8.9282   -0.1550    0.0000 C   0  0  0  0  0  0  0  0  0  0  0  0
   11.5263   -5.6550    0.0000 C   0  0  0  0  0  0  0  0  0  0  0  0
   12.3923   -4.1550    0.0000 C   0  0  0  0  0  0  0  0  0  0  0  0
    4.5981    0.3450    0.0000 C   0  0  0  0  0  0  0  0  0  0  0  0
    5.4641   -1.1550    0.0000 C   0  0  0  0  0  0  0  0  0  0  0  0
    5.4641    2.8450    0.0000 C   0  0  2  0  0  0  0  0  0  0  0  0
    5.4641    1.8450    0.0000 C   0  0  0  0  0  0  0  0  0  0  0  0
    9.7942    0.3450    0.0000 C   0  0  0  0  0  0  0  0  0  0  0  0
    6.3301    3.3450    0.0000 C   0  0  0  0  0  0  0  0  0  0  0  0
    6.3301    4.3450    0.0000 C   0  0  0  0  0  0  0  0  0  0  0  0
    4.5981    4.3450    0.0000 C   0  0  0  0  0  0  0  0  0  0  0  0
    3.7320    4.8450    0.0000 C   0  0  2  0  0  0  0  0  0  0  0  0
    7.1962    4.8450    0.0000 C   0  0  0  0  0  0  0  0  0  0  0  0
    3.7320    5.8450    0.0000 C   0  0  0  0  0  0  0  0  0  0  0  0
    2.8660    6.3450    0.0000 C   0  0  0  0  0  0  0  0  0  0  0  0
    7.5252   -5.3450    0.0000 H   0  0  0  0  0  0  0  0  0  0  0  0
    6.9841   -5.5724    0.0000 H   0  0  0  0  0  0  0  0  0  0  0  0
    6.5856   -6.2627    0.0000 H   0  0  0  0  0  0  0  0  0  0  0  0
    9.5388   -6.2627    0.0000 H   0  0  0  0  0  0  0  0  0  0  0  0
    9.1403   -5.5724    0.0000 H   0  0  0  0  0  0  0  0  0  0  0  0
    7.8501   -4.0724    0.0000 H   0  0  0  0  0  0  0  0  0  0  0  0
    7.4516   -4.7627    0.0000 H   0  0  0  0  0  0  0  0  0  0  0  0
    6.5856   -7.0473    0.0000 H   0  0  0  0  0  0  0  0  0  0  0  0
    6.9841   -7.7376    0.0000 H   0  0  0  0  0  0  0  0  0  0  0  0
    9.1403   -7.7376    0.0000 H   0  0  0  0  0  0  0  0  0  0  0  0
    9.5388   -7.0473    0.0000 H   0  0  0  0  0  0  0  0  0  0  0  0
    7.6636   -8.1299    0.0000 H   0  0  0  0  0  0  0  0  0  0  0  0
    8.4607   -8.1299    0.0000 H   0  0  0  0  0  0  0  0  0  0  0  0
    9.4651   -3.8450    0.0000 H   0  0  0  0  0  0  0  0  0  0  0  0
    9.4651   -2.8450    0.0000 H   0  0  0  0  0  0  0  0  0  0  0  0
    8.0622   -1.0350    0.0000 H   0  0  0  0  0  0  0  0  0  0  0  0
   10.6603   -3.5350    0.0000 H   0  0  0  0  0  0  0  0  0  0  0  0
    9.1403   -1.7376    0.0000 H   0  0  0  0  0  0  0  0  0  0  0  0
    9.5388   -1.0473    0.0000 H   0  0  0  0  0  0  0  0  0  0  0  0
   10.9893   -4.9650    0.0000 H   0  0  0  0  0  0  0  0  0  0  0  0
    6.6592   -1.4650    0.0000 H   0  0  0  0  0  0  0  0  0  0  0  0
    6.8671    0.6550    0.0000 H   0  0  0  0  0  0  0  0  0  0  0  0
    5.4641    0.4650    0.0000 H   0  0  0  0  0  0  0  0  0  0  0  0
    8.7162    0.4276    0.0000 H   0  0  0  0  0  0  0  0  0  0  0  0
    8.3176   -0.2627    0.0000 H   0  0  0  0  0  0  0  0  0  0  0  0
   10.9157   -5.5473    0.0000 H   0  0  0  0  0  0  0  0  0  0  0  0
   11.3142   -6.2376    0.0000 H   0  0  0  0  0  0  0  0  0  0  0  0
    6.8671    1.6550    0.0000 H   0  0  0  0  0  0  0  0  0  0  0  0
    4.9081    0.8819    0.0000 H   0  0  0  0  0  0  0  0  0  0  0  0
    4.0611    0.6550    0.0000 H   0  0  0  0  0  0  0  0  0  0  0  0
    4.2881   -0.1919    0.0000 H   0  0  0  0  0  0  0  0  0  0  0  0
    4.8441   -1.1550    0.0000 H   0  0  0  0  0  0  0  0  0  0  0  0
    5.4641   -1.7750    0.0000 H   0  0  0  0  0  0  0  0  0  0  0  0
    6.0841   -1.1550    0.0000 H   0  0  0  0  0  0  0  0  0  0  0  0
    5.4641    3.4650    0.0000 H   0  0  0  0  0  0  0  0  0  0  0  0
    6.5422    2.7624    0.0000 H   0  0  0  0  0  0  0  0  0  0  0  0
    6.9407    3.4527    0.0000 H   0  0  0  0  0  0  0  0  0  0  0  0
    4.0611    3.0350    0.0000 H   0  0  0  0  0  0  0  0  0  0  0  0
   12.3923   -6.7750    0.0000 H   0  0  0  0  0  0  0  0  0  0  0  0
    6.1181    4.9276    0.0000 H   0  0  0  0  0  0  0  0  0  0  0  0
    5.7196    4.2373    0.0000 H   0  0  0  0  0  0  0  0  0  0  0  0
   13.7953   -4.3450    0.0000 H   0  0  0  0  0  0  0  0  0  0  0  0
    3.7320    4.2250    0.0000 H   0  0  0  0  0  0  0  0  0  0  0  0
   10.3312    1.6550    0.0000 H   0  0  0  0  0  0  0  0  0  0  0  0
    4.3426    5.7373    0.0000 H   0  0  0  0  0  0  0  0  0  0  0  0
    3.9441    6.4276    0.0000 H   0  0  0  0  0  0  0  0  0  0  0  0
    2.3291    4.6550    0.0000 H   0  0  0  0  0  0  0  0  0  0  0  0
    2.8660    3.7250    0.0000 H   0  0  0  0  0  0  0  0  0  0  0  0
    7.7331    6.1550    0.0000 H   0  0  0  0  0  0  0  0  0  0  0  0
    2.3291    7.6550    0.0000 H   0  0  0  0  0  0  0  0  0  0  0  0
  1 38  1  0  0  0  0
  1 90  1  0  0  0  0
  2 29  2  0  0  0  0
  3 30  2  0  0  0  0
  4 36  2  0  0  0  0
  5 39  1  0  0  0  0
  5 93  1  0  0  0  0
  6 39  2  0  0  0  0
  7 43  2  0  0  0  0
  8 44  1  0  0  0  0
  8 95  1  0  0  0  0
  9 44  2  0  0  0  0
 10 47  2  0  0  0  0
 11 49  1  0  0  0  0
 11100  1  0  0  0  0
 12 49  2  0  0  0  0
 13 51  1  0  0  0  0
 13101  1  0  0  0  0
 14 51  2  0  0  0  0
 28 15  1  6  0  0  0
 15 30  1  0  0  0  0
 15 66  1  0  0  0  0
 16 29  1  0  0  0  0
 33 16  1  6  0  0  0
 16 68  1  0  0  0  0
 31 17  1  1  0  0  0
 17 36  1  0  0  0  0
 17 72  1  0  0  0  0
 34 18  1  6  0  0  0
 18 43  1  0  0  0  0
 18 79  1  0  0  0  0
 42 19  1  1  0  0  0
 19 47  1  0  0  0  0
 19 89  1  0  0  0  0
 48 20  1  1  0  0  0
 20 98  1  0  0  0  0
 20 99  1  0  0  0  0
 21 22  1  0  0  0  0
 21 23  1  0  0  0  0
 21 24  1  0  0  0  0
 21 52  1  0  0  0  0
 22 25  1  0  0  0  0
 22 53  1  0  0  0  0
 22 54  1  0  0  0  0
 23 26  1  0  0  0  0
 23 55  1  0  0  0  0
 23 56  1  0  0  0  0
 24 28  1  0  0  0  0
 24 57  1  0  0  0  0
 24 58  1  0  0  0  0
 25 27  1  0  0  0  0
 25 59  1  0  0  0  0
 25 60  1  0  0  0  0
 26 27  1  0  0  0  0
 26 61  1  0  0  0  0
 26 62  1  0  0  0  0
 27 63  1  0  0  0  0
 27 64  1  0  0  0  0
 28 29  1  0  0  0  0
 28 65  1  0  0  0  0
 30 31  1  0  0  0  0
 31 32  1  0  0  0  0
 31 67  1  0  0  0  0
 32 37  1  0  0  0  0
 32 69  1  0  0  0  0
 32 70  1  0  0  0  0
 33 38  1  0  0  0  0
 33 39  1  0  0  0  0
 33 71  1  0  0  0  0
 34 35  1  0  0  0  0
 34 36  1  0  0  0  0
 34 73  1  0  0  0  0
 35 40  1  0  0  0  0
 35 41  1  0  0  0  0
 35 74  1  0  0  0  0
 37 44  1  0  0  0  0
 37 75  1  0  0  0  0
 37 76  1  0  0  0  0
 38 77  1  0  0  0  0
 38 78  1  0  0  0  0
 40 80  1  0  0  0  0
 40 81  1  0  0  0  0
 40 82  1  0  0  0  0
 41 83  1  0  0  0  0
 41 84  1  0  0  0  0
 41 85  1  0  0  0  0
 42 43  1  0  0  0  0
 42 45  1  0  0  0  0
 42 86  1  0  0  0  0
 45 46  1  0  0  0  0
 45 87  1  0  0  0  0
 45 88  1  0  0  0  0
 46 49  1  0  0  0  0
 46 91  1  0  0  0  0
 46 92  1  0  0  0  0
 47 48  1  0  0  0  0
 48 50  1  0  0  0  0
 48 94  1  0  0  0  0
 50 51  1  0  0  0  0
 50 96  1  0  0  0  0
 50 97  1  0  0  0  0
M  END
> <PUBCHEM_COMPOUND_CID>
512507
> <PUBCHEM_COMPOUND_CANONICALIZED>
1
> <PUBCHEM_CACTVS_COMPLEXITY>
1280
> <PUBCHEM_CACTVS_HBOND_ACCEPTOR>
15
> <PUBCHEM_CACTVS_HBOND_DONOR>
11
> <PUBCHEM_CACTVS_ROTATABLE_BOND>
23
> <PUBCHEM_CACTVS_SUBSKEYS>
AAADcfB7vABAAAAAAAAAAAAAAAAAAAAAAAAwAAAAAAAAAAAAAAAAHgQQCAAADSjFwASCCALAAgQIAAGQGAAAAAAAAAAAAIGIAAACQBoAgCAUQAAGFgCQAAG/n4KOAAAAAAAAAAAAAAAAAAAAAAAAAAAAAA==
> <PUBCHEM_IUPAC_OPENEYE_NAME>
(4S)-4-[[(2S)-2-amino-3-carboxy-propanoyl]amino]-5-[[(1S)-1-[[(1S)-3-carboxy-1-[[(1S)-2-[[(1R)-1-carboxy-2-sulfanyl-ethyl]amino]-1-(cyclohexylmethyl)-2-oxo-ethyl]carbamoyl]propyl]carbamoyl]-2-methyl-propyl]amino]-5-oxo-pentanoic acid
> <PUBCHEM_IUPAC_CAS_NAME>
(4S)-4-[[(2S)-2-amino-3-carboxy-1-oxopropyl]amino]-5-[[(2S)-1-[[(2S)-4-carboxy-1-[[(2S)-1-[[(1R)-1-carboxy-2-mercaptoethyl]amino]-3-cyclohexyl-1-oxopropan-2-yl]amino]-1-oxobutan-2-yl]amino]-3-methyl-1-oxobutan-2-yl]amino]-5-oxopentanoic acid
> <PUBCHEM_IUPAC_NAME_MARKUP>
(4<I>S</I>)-4-[[(2<I>S</I>)-2-amino-3-carboxypropanoyl]amino]-5-[[(2<I>S</I>)-1-[[(2<I>S</I>)-4-carboxy-1-[[(2<I>S</I>)-1-[[(1<I>R</I>)-1-carboxy-2-sulfanylethyl]amino]-3-cyclohexyl-1-oxopropan-2-yl]amino]-1-oxobutan-2-yl]amino]-3-methyl-1-oxobutan-2-yl]amino]-5-oxopentanoic acid
> <PUBCHEM_IUPAC_NAME>
(4S)-4-[[(2S)-2-amino-3-carboxypropanoyl]amino]-5-[[(2S)-1-[[(2S)-4-carboxy-1-[[(2S)-1-[[(1R)-1-carboxy-2-sulfanylethyl]amino]-3-cyclohexyl-1-oxopropan-2-yl]amino]-1-oxobutan-2-yl]amino]-3-methyl-1-oxobutan-2-yl]amino]-5-oxopentanoic acid
> <PUBCHEM_IUPAC_SYSTEMATIC_NAME>
(4S)-4-[[(2S)-2-azanyl-4-oxidanyl-4-oxidanylidene-butanoyl]amino]-5-[[(2S)-1-[[(2S)-1-[[(2S)-3-cyclohexyl-1-oxidanylidene-1-[[(2R)-1-oxidanyl-1-oxidanylidene-3-sulfanyl-propan-2-yl]amino]propan-2-yl]amino]-5-oxidanyl-1,5-bis(oxidanylidene)pentan-2-yl]amino]-3-methyl-1-oxidanylidene-butan-2-yl]amino]-5-oxidanylidene-pentanoic acid
> <PUBCHEM_IUPAC_TRADITIONAL_NAME>
(4S)-4-[[(2S)-2-amino-3-carboxy-propanoyl]amino]-5-[[(1S)-1-[[(1S)-3-carboxy-1-[[(1S)-2-[[(1R)-1-carboxy-2-mercapto-ethyl]amino]-1-(cyclohexylmethyl)-2-keto-ethyl]carbamoyl]propyl]carbamoyl]-2-methyl-propyl]amino]-5-keto-valeric acid
> <PUBCHEM_IUPAC_INCHI>
InChI=1S/C31H50N6O13S/c1-15(2)25(37-28(46)19(9-11-23(40)41)33-26(44)17(32)13-24(42)43)30(48)34-18(8-10-22(38)39)27(45)35-20(12-16-6-4-3-5-7-16)29(47)36-21(14-51)31(49)50/h15-21,25,51H,3-14,32H2,1-2H3,(H,33,44)(H,34,48)(H,35,45)(H,36,47)(H,37,46)(H,38,39)(H,40,41)(H,42,43)(H,49,50)/t17-,18-,19-,20-,21-,25-/m0/s1
> <PUBCHEM_IUPAC_INCHIKEY>
GKHLOJVLLFCRCM-OEPYWMGDSA-N
> <PUBCHEM_XLOGP3_AA>
-2.5
> <PUBCHEM_EXACT_MASS>
746.31565684
> <PUBCHEM_MOLECULAR_FORMULA>
C31H50N6O13S
> <PUBCHEM_MOLECULAR_WEIGHT>
746.8
> <PUBCHEM_OPENEYE_CAN_SMILES>
CC(C)C(C(=O)NC(CCC(=O)O)C(=O)NC(CC1CCCCC1)C(=O)NC(CS)C(=O)O)NC(=O)C(CCC(=O)O)NC(=O)C(CC(=O)O)N
> <PUBCHEM_OPENEYE_ISO_SMILES>
CC(C)[C@@H](C(=O)N[C@@H](CCC(=O)O)C(=O)N[C@@H](CC1CCCCC1)C(=O)N[C@@H](CS)C(=O)O)NC(=O)[C@H](CCC(=O)O)NC(=O)[C@H](CC(=O)O)N
> <PUBCHEM_CACTVS_TPSA>
322
> <PUBCHEM_MONOISOTOPIC_WEIGHT>
746.31565684
> <PUBCHEM_TOTAL_CHARGE>
0
> <PUBCHEM_HEAVY_ATOM_COUNT>
51
> <PUBCHEM_ATOM_DEF_STEREO_COUNT>
6
> <PUBCHEM_ATOM_UDEF_STEREO_COUNT>
0
> <PUBCHEM_BOND_DEF_STEREO_COUNT>
0
> <PUBCHEM_BOND_UDEF_STEREO_COUNT>
0
> <PUBCHEM_ISOTOPIC_ATOM_COUNT>
0
> <PUBCHEM_COMPONENT_COUNT>
1
> <PUBCHEM_CACTVS_TAUTO_COUNT>
-1
> <PUBCHEM_COORDINATE_TYPE>
1
5
255
> <PUBCHEM_BONDANNOTATIONS>
28  15  6
33  16  6
31  17  5
34  18  6
42  19  5
48  20  5
$$$$
