512538
  -OEChem-10302200282D
107107  0     1  0  0  0  0  0999 V2000
   14.1244   -4.6550    0.0000 S   0  0  0  0  0  0  0  0  0  0  0  0
   11.5263   -4.1550    0.0000 O   0  0  0  0  0  0  0  0  0  0  0  0
    8.9282   -1.6550    0.0000 O   0  0  0  0  0  0  0  0  0  0  0  0
    9.7942    1.8450    0.0000 O   0  0  0  0  0  0  0  0  0  0  0  0
   14.9904   -3.1550    0.0000 O   0  0  0  0  0  0  0  0  0  0  0  0
   14.1244   -1.6550    0.0000 O   0  0  0  0  0  0  0  0  0  0  0  0
    6.3301    2.8450    0.0000 O   0  0  0  0  0  0  0  0  0  0  0  0
   11.5263    2.8450    0.0000 O   0  0  0  0  0  0  0  0  0  0  0  0
   12.3923    1.3450    0.0000 O   0  0  0  0  0  0  0  0  0  0  0  0
    5.4641    3.3450    0.0000 O   0  0  0  0  0  0  0  0  0  0  0  0
    4.9641   -2.2531    0.0000 O   0  0  0  0  0  0  0  0  0  0  0  0
    3.4640   -1.3870    0.0000 O   0  0  0  0  0  0  0  0  0  0  0  0
    6.4642   -1.3870    0.0000 O   0  0  0  0  0  0  0  0  0  0  0  0
    3.4641    0.3450    0.0000 O   0  0  0  0  0  0  0  0  0  0  0  0
    2.8660    5.8450    0.0000 O   0  0  0  0  0  0  0  0  0  0  0  0
    2.0000    4.3450    0.0000 O   0  0  0  0  0  0  0  0  0  0  0  0
   10.6603   -1.6550    0.0000 N   0  0  0  0  0  0  0  0  0  0  0  0
   12.3923   -2.6550    0.0000 N   0  0  0  0  0  0  0  0  0  0  0  0
    8.9282    0.3450    0.0000 N   0  0  0  0  0  0  0  0  0  0  0  0
    7.1962    1.3450    0.0000 N   0  0  0  0  0  0  0  0  0  0  0  0
    4.5981    1.8450    0.0000 N   0  0  0  0  0  0  0  0  0  0  0  0
    2.8660    2.8450    0.0000 N   0  0  0  0  0  0  0  0  0  0  0  0
    9.7942   -4.1550    0.0000 C   0  0  0  0  0  0  0  0  0  0  0  0
    8.9282   -4.6550    0.0000 C   0  0  0  0  0  0  0  0  0  0  0  0
   10.6603   -4.6550    0.0000 C   0  0  0  0  0  0  0  0  0  0  0  0
    9.7942   -3.1550    0.0000 C   0  0  0  0  0  0  0  0  0  0  0  0
    8.9282   -5.6550    0.0000 C   0  0  0  0  0  0  0  0  0  0  0  0
   10.6603   -5.6550    0.0000 C   0  0  0  0  0  0  0  0  0  0  0  0
    9.7942   -6.1550    0.0000 C   0  0  0  0  0  0  0  0  0  0  0  0
   10.6603   -2.6550    0.0000 C   0  0  1  0  0  0  0  0  0  0  0  0
   11.5263   -3.1550    0.0000 C   0  0  0  0  0  0  0  0  0  0  0  0
    9.7942   -1.1550    0.0000 C   0  0  0  0  0  0  0  0  0  0  0  0
    9.7942   -0.1550    0.0000 C   0  0  2  0  0  0  0  0  0  0  0  0
   10.6603    0.3450    0.0000 C   0  0  0  0  0  0  0  0  0  0  0  0
   13.2583   -3.1550    0.0000 C   0  0  1  0  0  0  0  0  0  0  0  0
    8.0622    1.8450    0.0000 C   0  0  1  0  0  0  0  0  0  0  0  0
    8.0622    2.8450    0.0000 C   0  0  0  0  0  0  0  0  0  0  0  0
    8.9282    1.3450    0.0000 C   0  0  0  0  0  0  0  0  0  0  0  0
    8.9282    3.3450    0.0000 C   0  0  0  0  0  0  0  0  0  0  0  0
   10.6603    1.3450    0.0000 C   0  0  0  0  0  0  0  0  0  0  0  0
   13.2583   -4.1550    0.0000 C   0  0  0  0  0  0  0  0  0  0  0  0
   14.1244   -2.6550    0.0000 C   0  0  0  0  0  0  0  0  0  0  0  0
    5.4641    1.3450    0.0000 C   0  0  2  0  0  0  0  0  0  0  0  0
    6.3301    1.8450    0.0000 C   0  0  0  0  0  0  0  0  0  0  0  0
    8.9282    4.3450    0.0000 C   0  0  0  0  0  0  0  0  0  0  0  0
    9.7942    2.8450    0.0000 C   0  0  0  0  0  0  0  0  0  0  0  0
    5.4641    0.3450    0.0000 C   0  0  0  0  0  0  0  0  0  0  0  0
   11.5263    1.8450    0.0000 C   0  0  0  0  0  0  0  0  0  0  0  0
    4.9641   -0.5210    0.0000 C   0  0  0  0  0  0  0  0  0  0  0  0
    4.5981    2.8450    0.0000 C   0  0  0  0  0  0  0  0  0  0  0  0
    3.7320    3.3450    0.0000 C   0  0  2  0  0  0  0  0  0  0  0  0
    5.4641   -1.3870    0.0000 C   0  0  0  0  0  0  0  0  0  0  0  0
    3.9640   -0.5209    0.0000 C   0  0  0  0  0  0  0  0  0  0  0  0
    3.7320    4.3450    0.0000 C   0  0  0  0  0  0  0  0  0  0  0  0
    2.8660    4.8450    0.0000 C   0  0  0  0  0  0  0  0  0  0  0  0
    9.2573   -3.8450    0.0000 H   0  0  0  0  0  0  0  0  0  0  0  0
    8.7162   -4.0724    0.0000 H   0  0  0  0  0  0  0  0  0  0  0  0
    8.3176   -4.7627    0.0000 H   0  0  0  0  0  0  0  0  0  0  0  0
   11.2708   -4.7627    0.0000 H   0  0  0  0  0  0  0  0  0  0  0  0
   10.8723   -4.0724    0.0000 H   0  0  0  0  0  0  0  0  0  0  0  0
    9.5822   -2.5724    0.0000 H   0  0  0  0  0  0  0  0  0  0  0  0
    9.1836   -3.2627    0.0000 H   0  0  0  0  0  0  0  0  0  0  0  0
    8.3176   -5.5473    0.0000 H   0  0  0  0  0  0  0  0  0  0  0  0
    8.7162   -6.2376    0.0000 H   0  0  0  0  0  0  0  0  0  0  0  0
   10.8723   -6.2376    0.0000 H   0  0  0  0  0  0  0  0  0  0  0  0
   11.2708   -5.5473    0.0000 H   0  0  0  0  0  0  0  0  0  0  0  0
    9.3957   -6.6300    0.0000 H   0  0  0  0  0  0  0  0  0  0  0  0
   10.1928   -6.6300    0.0000 H   0  0  0  0  0  0  0  0  0  0  0  0
   11.1972   -2.3450    0.0000 H   0  0  0  0  0  0  0  0  0  0  0  0
   11.1972   -1.3450    0.0000 H   0  0  0  0  0  0  0  0  0  0  0  0
    9.2573   -0.4650    0.0000 H   0  0  0  0  0  0  0  0  0  0  0  0
   12.3923   -2.0350    0.0000 H   0  0  0  0  0  0  0  0  0  0  0  0
   10.8723   -0.2376    0.0000 H   0  0  0  0  0  0  0  0  0  0  0  0
   11.2708    0.4527    0.0000 H   0  0  0  0  0  0  0  0  0  0  0  0
   13.2583   -2.5350    0.0000 H   0  0  0  0  0  0  0  0  0  0  0  0
    8.3913    0.0350    0.0000 H   0  0  0  0  0  0  0  0  0  0  0  0
    8.0622    1.2250    0.0000 H   0  0  0  0  0  0  0  0  0  0  0  0
    7.8501    3.4276    0.0000 H   0  0  0  0  0  0  0  0  0  0  0  0
    7.4516    2.7373    0.0000 H   0  0  0  0  0  0  0  0  0  0  0  0
    9.4651    3.6550    0.0000 H   0  0  0  0  0  0  0  0  0  0  0  0
   10.4482    1.9276    0.0000 H   0  0  0  0  0  0  0  0  0  0  0  0
   10.0497    1.2373    0.0000 H   0  0  0  0  0  0  0  0  0  0  0  0
   12.6477   -4.0473    0.0000 H   0  0  0  0  0  0  0  0  0  0  0  0
   13.0463   -4.7376    0.0000 H   0  0  0  0  0  0  0  0  0  0  0  0
    7.1962    0.7250    0.0000 H   0  0  0  0  0  0  0  0  0  0  0  0
    5.4641    1.9650    0.0000 H   0  0  0  0  0  0  0  0  0  0  0  0
    9.5482    4.3450    0.0000 H   0  0  0  0  0  0  0  0  0  0  0  0
    8.9282    4.9650    0.0000 H   0  0  0  0  0  0  0  0  0  0  0  0
    8.3082    4.3450    0.0000 H   0  0  0  0  0  0  0  0  0  0  0  0
    9.4842    2.3081    0.0000 H   0  0  0  0  0  0  0  0  0  0  0  0
   10.3312    2.5350    0.0000 H   0  0  0  0  0  0  0  0  0  0  0  0
   10.1042    3.3819    0.0000 H   0  0  0  0  0  0  0  0  0  0  0  0
    5.8626   -0.1300    0.0000 H   0  0  0  0  0  0  0  0  0  0  0  0
    4.8652    0.5055    0.0000 H   0  0  0  0  0  0  0  0  0  0  0  0
    4.6541   -1.0579    0.0000 H   0  0  0  0  0  0  0  0  0  0  0  0
    4.0611    1.5350    0.0000 H   0  0  0  0  0  0  0  0  0  0  0  0
   14.1244   -5.2750    0.0000 H   0  0  0  0  0  0  0  0  0  0  0  0
   15.5273   -2.8450    0.0000 H   0  0  0  0  0  0  0  0  0  0  0  0
    3.7320    2.7250    0.0000 H   0  0  0  0  0  0  0  0  0  0  0  0
   12.0632    3.1550    0.0000 H   0  0  0  0  0  0  0  0  0  0  0  0
    4.3426    4.2373    0.0000 H   0  0  0  0  0  0  0  0  0  0  0  0
    3.9441    4.9276    0.0000 H   0  0  0  0  0  0  0  0  0  0  0  0
    2.3291    3.1550    0.0000 H   0  0  0  0  0  0  0  0  0  0  0  0
    2.8660    2.2250    0.0000 H   0  0  0  0  0  0  0  0  0  0  0  0
    5.2741   -2.7900    0.0000 H   0  0  0  0  0  0  0  0  0  0  0  0
    3.7741   -1.9240    0.0000 H   0  0  0  0  0  0  0  0  0  0  0  0
    2.3291    6.1550    0.0000 H   0  0  0  0  0  0  0  0  0  0  0  0
  1 41  1  0  0  0  0
  1 97  1  0  0  0  0
  2 31  2  0  0  0  0
  3 32  2  0  0  0  0
  4 38  2  0  0  0  0
  5 42  1  0  0  0  0
  5 98  1  0  0  0  0
  6 42  2  0  0  0  0
  7 44  2  0  0  0  0
  8 48  1  0  0  0  0
  8100  1  0  0  0  0
  9 48  2  0  0  0  0
 10 50  2  0  0  0  0
 11 52  1  0  0  0  0
 11105  1  0  0  0  0
 12 53  1  0  0  0  0
 12106  1  0  0  0  0
 13 52  2  0  0  0  0
 14 53  2  0  0  0  0
 15 55  1  0  0  0  0
 15107  1  0  0  0  0
 16 55  2  0  0  0  0
 30 17  1  6  0  0  0
 17 32  1  0  0  0  0
 17 70  1  0  0  0  0
 18 31  1  0  0  0  0
 35 18  1  6  0  0  0
 18 72  1  0  0  0  0
 33 19  1  1  0  0  0
 19 38  1  0  0  0  0
 19 76  1  0  0  0  0
 36 20  1  1  0  0  0
 20 44  1  0  0  0  0
 20 85  1  0  0  0  0
 43 21  1  6  0  0  0
 21 50  1  0  0  0  0
 21 96  1  0  0  0  0
 51 22  1  1  0  0  0
 22103  1  0  0  0  0
 22104  1  0  0  0  0
 23 24  1  0  0  0  0
 23 25  1  0  0  0  0
 23 26  1  0  0  0  0
 23 56  1  0  0  0  0
 24 27  1  0  0  0  0
 24 57  1  0  0  0  0
 24 58  1  0  0  0  0
 25 28  1  0  0  0  0
 25 59  1  0  0  0  0
 25 60  1  0  0  0  0
 26 30  1  0  0  0  0
 26 61  1  0  0  0  0
 26 62  1  0  0  0  0
 27 29  1  0  0  0  0
 27 63  1  0  0  0  0
 27 64  1  0  0  0  0
 28 29  1  0  0  0  0
 28 65  1  0  0  0  0
 28 66  1  0  0  0  0
 29 67  1  0  0  0  0
 29 68  1  0  0  0  0
 30 31  1  0  0  0  0
 30 69  1  0  0  0  0
 32 33  1  0  0  0  0
 33 34  1  0  0  0  0
 33 71  1  0  0  0  0
 34 40  1  0  0  0  0
 34 73  1  0  0  0  0
 34 74  1  0  0  0  0
 35 41  1  0  0  0  0
 35 42  1  0  0  0  0
 35 75  1  0  0  0  0
 36 37  1  0  0  0  0
 36 38  1  0  0  0  0
 36 77  1  0  0  0  0
 37 39  1  0  0  0  0
 37 78  1  0  0  0  0
 37 79  1  0  0  0  0
 39 45  1  0  0  0  0
 39 46  1  0  0  0  0
 39 80  1  0  0  0  0
 40 48  1  0  0  0  0
 40 81  1  0  0  0  0
 40 82  1  0  0  0  0
 41 83  1  0  0  0  0
 41 84  1  0  0  0  0
 43 44  1  0  0  0  0
 43 47  1  0  0  0  0
 43 86  1  0  0  0  0
 45 87  1  0  0  0  0
 45 88  1  0  0  0  0
 45 89  1  0  0  0  0
 46 90  1  0  0  0  0
 46 91  1  0  0  0  0
 46 92  1  0  0  0  0
 47 49  1  0  0  0  0
 47 93  1  0  0  0  0
 47 94  1  0  0  0  0
 49 52  1  0  0  0  0
 49 53  1  0  0  0  0
 49 95  1  0  0  0  0
 50 51  1  0  0  0  0
 51 54  1  0  0  0  0
 51 99  1  0  0  0  0
 54 55  1  0  0  0  0
 54101  1  0  0  0  0
 54102  1  0  0  0  0
M  END
> <PUBCHEM_COMPOUND_CID>
512538
> <PUBCHEM_COMPOUND_CANONICALIZED>
1
> <PUBCHEM_CACTVS_COMPLEXITY>
1410
> <PUBCHEM_CACTVS_HBOND_ACCEPTOR>
17
> <PUBCHEM_CACTVS_HBOND_DONOR>
12
> <PUBCHEM_CACTVS_ROTATABLE_BOND>
25
> <PUBCHEM_CACTVS_SUBSKEYS>
AAADcfB/vABAAAAAAAAAAAAAAAAAAAAAAAAwAAAAAAAAAAAAAAAAHgQQCAAADSjFwASCCALAAgQIAAGQGAAAAAAAAAAAAIGIAAACQB4IgCAUQAAHNgCQAAG/n4KOAAAAAAAAAAAAAAAAAAAAAAAAAAAAAA==
> <PUBCHEM_IUPAC_OPENEYE_NAME>
2-[(2S)-2-[[(2S)-2-amino-3-carboxy-propanoyl]amino]-3-[[(1S)-1-[[(1S)-3-carboxy-1-[[(1S)-2-[[(1R)-1-carboxy-2-sulfanyl-ethyl]amino]-1-(cyclohexylmethyl)-2-oxo-ethyl]carbamoyl]propyl]carbamoyl]-3-methyl-butyl]amino]-3-oxo-propyl]propanedioic acid
> <PUBCHEM_IUPAC_CAS_NAME>
2-[(2S)-2-[[(2S)-2-amino-3-carboxy-1-oxopropyl]amino]-3-[[(2S)-1-[[(2S)-4-carboxy-1-[[(2S)-1-[[(1R)-1-carboxy-2-mercaptoethyl]amino]-3-cyclohexyl-1-oxopropan-2-yl]amino]-1-oxobutan-2-yl]amino]-4-methyl-1-oxopentan-2-yl]amino]-3-oxopropyl]propanedioic acid
> <PUBCHEM_IUPAC_NAME_MARKUP>
2-[(2<I>S</I>)-2-[[(2<I>S</I>)-2-amino-3-carboxypropanoyl]amino]-3-[[(2<I>S</I>)-1-[[(2<I>S</I>)-4-carboxy-1-[[(2<I>S</I>)-1-[[(1<I>R</I>)-1-carboxy-2-sulfanylethyl]amino]-3-cyclohexyl-1-oxopropan-2-yl]amino]-1-oxobutan-2-yl]amino]-4-methyl-1-oxopentan-2-yl]amino]-3-oxopropyl]propanedioic acid
> <PUBCHEM_IUPAC_NAME>
2-[(2S)-2-[[(2S)-2-amino-3-carboxypropanoyl]amino]-3-[[(2S)-1-[[(2S)-4-carboxy-1-[[(2S)-1-[[(1R)-1-carboxy-2-sulfanylethyl]amino]-3-cyclohexyl-1-oxopropan-2-yl]amino]-1-oxobutan-2-yl]amino]-4-methyl-1-oxopentan-2-yl]amino]-3-oxopropyl]propanedioic acid
> <PUBCHEM_IUPAC_SYSTEMATIC_NAME>
2-[(2S)-2-[[(2S)-2-azanyl-4-oxidanyl-4-oxidanylidene-butanoyl]amino]-3-[[(2S)-1-[[(2S)-1-[[(2S)-3-cyclohexyl-1-oxidanylidene-1-[[(2R)-1-oxidanyl-1-oxidanylidene-3-sulfanyl-propan-2-yl]amino]propan-2-yl]amino]-5-oxidanyl-1,5-bis(oxidanylidene)pentan-2-yl]amino]-4-methyl-1-oxidanylidene-pentan-2-yl]amino]-3-oxidanylidene-propyl]propanedioic acid
> <PUBCHEM_IUPAC_TRADITIONAL_NAME>
2-[(2S)-2-[[(2S)-2-amino-3-carboxy-propanoyl]amino]-3-[[(1S)-1-[[(1S)-3-carboxy-1-[[(1S)-2-[[(1R)-1-carboxy-2-mercapto-ethyl]amino]-1-(cyclohexylmethyl)-2-keto-ethyl]carbamoyl]propyl]carbamoyl]-3-methyl-butyl]amino]-3-keto-propyl]malonic acid
> <PUBCHEM_IUPAC_INCHI>
InChI=1S/C33H52N6O15S/c1-15(2)10-20(37-30(48)22(12-17(31(49)50)32(51)52)36-26(44)18(34)13-25(42)43)28(46)35-19(8-9-24(40)41)27(45)38-21(11-16-6-4-3-5-7-16)29(47)39-23(14-55)33(53)54/h15-23,55H,3-14,34H2,1-2H3,(H,35,46)(H,36,44)(H,37,48)(H,38,45)(H,39,47)(H,40,41)(H,42,43)(H,49,50)(H,51,52)(H,53,54)/t18-,19-,20-,21-,22-,23-/m0/s1
> <PUBCHEM_IUPAC_INCHIKEY>
PUMWNUNVZCERKH-LLINQDLYSA-N
> <PUBCHEM_XLOGP3_AA>
-2.4
> <PUBCHEM_EXACT_MASS>
804.32113615
> <PUBCHEM_MOLECULAR_FORMULA>
C33H52N6O15S
> <PUBCHEM_MOLECULAR_WEIGHT>
804.9
> <PUBCHEM_OPENEYE_CAN_SMILES>
CC(C)CC(C(=O)NC(CCC(=O)O)C(=O)NC(CC1CCCCC1)C(=O)NC(CS)C(=O)O)NC(=O)C(CC(C(=O)O)C(=O)O)NC(=O)C(CC(=O)O)N
> <PUBCHEM_OPENEYE_ISO_SMILES>
CC(C)C[C@@H](C(=O)N[C@@H](CCC(=O)O)C(=O)N[C@@H](CC1CCCCC1)C(=O)N[C@@H](CS)C(=O)O)NC(=O)[C@H](CC(C(=O)O)C(=O)O)NC(=O)[C@H](CC(=O)O)N
> <PUBCHEM_CACTVS_TPSA>
359
> <PUBCHEM_MONOISOTOPIC_WEIGHT>
804.32113615
> <PUBCHEM_TOTAL_CHARGE>
0
> <PUBCHEM_HEAVY_ATOM_COUNT>
55
> <PUBCHEM_ATOM_DEF_STEREO_COUNT>
6
> <PUBCHEM_ATOM_UDEF_STEREO_COUNT>
0
> <PUBCHEM_BOND_DEF_STEREO_COUNT>
0
> <PUBCHEM_BOND_UDEF_STEREO_COUNT>
0
> <PUBCHEM_ISOTOPIC_ATOM_COUNT>
0
> <PUBCHEM_COMPONENT_COUNT>
1
> <PUBCHEM_CACTVS_TAUTO_COUNT>
-1
> <PUBCHEM_COORDINATE_TYPE>
1
5
255
> <PUBCHEM_BONDANNOTATIONS>
30  17  6
35  18  6
33  19  5
36  20  5
43  21  6
51  22  5
$$$$
