512555
  -OEChem-10302200282D
 31 33  0     1  0  0  0  0  0999 V2000
    3.7066    3.4222    0.0000 Cl  0  0  0  0  0  0  0  0  0  0  0  0
    6.7485    0.3612    0.0000 O   0  0  0  0  0  0  0  0  0  0  0  0
    6.7523    2.5368    0.0000 O   0  0  0  0  0  0  0  0  0  0  0  0
    4.6783   -0.3075    0.0000 N   0  0  0  0  0  0  0  0  0  0  0  0
    4.6783   -1.9170    0.0000 N   0  0  0  0  0  0  0  0  0  0  0  0
    2.8660   -0.1122    0.0000 N   0  0  0  0  0  0  0  0  0  0  0  0
    2.0000   -1.6122    0.0000 N   0  0  0  0  0  0  0  0  0  0  0  0
    2.8660   -3.1122    0.0000 N   0  0  0  0  0  0  0  0  0  0  0  0
    4.9889    0.6430    0.0000 C   0  0  1  0  0  0  0  0  0  0  0  0
    5.9405    0.9504    0.0000 C   0  0  1  0  0  0  0  0  0  0  0  0
    5.9422    1.9504    0.0000 C   0  0  1  0  0  0  0  0  0  0  0  0
    4.9917    2.2610    0.0000 C   0  0  0  0  0  0  0  0  0  0  0  0
    4.4026    1.4530    0.0000 C   0  0  0  0  0  0  0  0  0  0  0  0
    3.7320   -0.6122    0.0000 C   0  0  0  0  0  0  0  0  0  0  0  0
    4.6844    3.2126    0.0000 C   0  0  0  0  0  0  0  0  0  0  0  0
    5.2619   -1.1122    0.0000 C   0  0  0  0  0  0  0  0  0  0  0  0
    3.7320   -1.6122    0.0000 C   0  0  0  0  0  0  0  0  0  0  0  0
    2.8660   -2.1122    0.0000 C   0  0  0  0  0  0  0  0  0  0  0  0
    2.0000   -0.6122    0.0000 C   0  0  0  0  0  0  0  0  0  0  0  0
    5.4266    0.2038    0.0000 H   0  0  0  0  0  0  0  0  0  0  0  0
    6.4934    1.2309    0.0000 H   0  0  0  0  0  0  0  0  0  0  0  0
    6.4942    1.6680    0.0000 H   0  0  0  0  0  0  0  0  0  0  0  0
    3.7826    1.4541    0.0000 H   0  0  0  0  0  0  0  0  0  0  0  0
    5.2985    3.2979    0.0000 H   0  0  0  0  0  0  0  0  0  0  0  0
    4.7071    3.8322    0.0000 H   0  0  0  0  0  0  0  0  0  0  0  0
    5.8819   -1.1122    0.0000 H   0  0  0  0  0  0  0  0  0  0  0  0
    7.3154    0.6124    0.0000 H   0  0  0  0  0  0  0  0  0  0  0  0
    6.6886    3.1535    0.0000 H   0  0  0  0  0  0  0  0  0  0  0  0
    1.4631   -0.3022    0.0000 H   0  0  0  0  0  0  0  0  0  0  0  0
    2.3291   -3.4222    0.0000 H   0  0  0  0  0  0  0  0  0  0  0  0
    3.4030   -3.4222    0.0000 H   0  0  0  0  0  0  0  0  0  0  0  0
  1 15  1  0  0  0  0
 10  2  1  1  0  0  0
  2 27  1  0  0  0  0
 11  3  1  1  0  0  0
  3 28  1  0  0  0  0
  9  4  1  6  0  0  0
  4 14  1  0  0  0  0
  4 16  1  0  0  0  0
  5 16  2  0  0  0  0
  5 17  1  0  0  0  0
  6 14  2  0  0  0  0
  6 19  1  0  0  0  0
  7 18  1  0  0  0  0
  7 19  2  0  0  0  0
  8 18  1  0  0  0  0
  8 30  1  0  0  0  0
  8 31  1  0  0  0  0
  9 10  1  0  0  0  0
  9 13  1  0  0  0  0
  9 20  1  0  0  0  0
 10 11  1  0  0  0  0
 10 21  1  0  0  0  0
 11 12  1  0  0  0  0
 11 22  1  0  0  0  0
 12 13  2  0  0  0  0
 12 15  1  0  0  0  0
 13 23  1  0  0  0  0
 14 17  1  0  0  0  0
 15 24  1  0  0  0  0
 15 25  1  0  0  0  0
 16 26  1  0  0  0  0
 17 18  2  0  0  0  0
 19 29  1  0  0  0  0
M  END
> <PUBCHEM_COMPOUND_CID>
512555
> <PUBCHEM_COMPOUND_CANONICALIZED>
1
> <PUBCHEM_CACTVS_COMPLEXITY>
382
> <PUBCHEM_CACTVS_HBOND_ACCEPTOR>
6
> <PUBCHEM_CACTVS_HBOND_DONOR>
3
> <PUBCHEM_CACTVS_ROTATABLE_BOND>
2
> <PUBCHEM_CACTVS_SUBSKEYS>
AAADccBzsAAEAAAAAAAAAAAAAAAAAWIAAAAsAAAAAAAAAFgB+AAAHgIQCAAADD/hl0YF8L9MEgCgAyZjZACAgC0xEKABWCAoVhiDXAJByUAUVAgOwALZECMQAAAAAAAAAAAAAAAAAAAAAAAAAAAAAAAAAA==
> <PUBCHEM_IUPAC_OPENEYE_NAME>
(1S,2R,5R)-5-(6-aminopurin-9-yl)-3-(chloromethyl)cyclopent-3-ene-1,2-diol
> <PUBCHEM_IUPAC_CAS_NAME>
(1S,2R,5R)-5-(6-aminopurin-9-yl)-3-(chloromethyl)cyclopent-3-ene-1,2-diol
> <PUBCHEM_IUPAC_NAME_MARKUP>
(1<I>S</I>,2<I>R</I>,5<I>R</I>)-5-(6-aminopurin-9-yl)-3-(chloromethyl)cyclopent-3-ene-1,2-diol
> <PUBCHEM_IUPAC_NAME>
(1S,2R,5R)-5-(6-aminopurin-9-yl)-3-(chloromethyl)cyclopent-3-ene-1,2-diol
> <PUBCHEM_IUPAC_SYSTEMATIC_NAME>
(1S,2R,5R)-5-(6-aminopurin-9-yl)-3-(chloromethyl)cyclopent-3-ene-1,2-diol
> <PUBCHEM_IUPAC_TRADITIONAL_NAME>
(1S,2R,5R)-5-adenin-9-yl-3-(chloromethyl)cyclopent-3-ene-1,2-diol
> <PUBCHEM_IUPAC_INCHI>
InChI=1S/C11H12ClN5O2/c12-2-5-1-6(9(19)8(5)18)17-4-16-7-10(13)14-3-15-11(7)17/h1,3-4,6,8-9,18-19H,2H2,(H2,13,14,15)/t6-,8-,9+/m1/s1
> <PUBCHEM_IUPAC_INCHIKEY>
CWXWTVUEORINIV-VDAHYXPESA-N
> <PUBCHEM_XLOGP3_AA>
-1.3
> <PUBCHEM_EXACT_MASS>
281.0679523
> <PUBCHEM_MOLECULAR_FORMULA>
C11H12ClN5O2
> <PUBCHEM_MOLECULAR_WEIGHT>
281.70
> <PUBCHEM_OPENEYE_CAN_SMILES>
C1=C(C(C(C1N2C=NC3=C(N=CN=C32)N)O)O)CCl
> <PUBCHEM_OPENEYE_ISO_SMILES>
C1=C([C@H]([C@H]([C@@H]1N2C=NC3=C(N=CN=C32)N)O)O)CCl
> <PUBCHEM_CACTVS_TPSA>
110
> <PUBCHEM_MONOISOTOPIC_WEIGHT>
281.0679523
> <PUBCHEM_TOTAL_CHARGE>
0
> <PUBCHEM_HEAVY_ATOM_COUNT>
19
> <PUBCHEM_ATOM_DEF_STEREO_COUNT>
3
> <PUBCHEM_ATOM_UDEF_STEREO_COUNT>
0
> <PUBCHEM_BOND_DEF_STEREO_COUNT>
0
> <PUBCHEM_BOND_UDEF_STEREO_COUNT>
0
> <PUBCHEM_ISOTOPIC_ATOM_COUNT>
0
> <PUBCHEM_COMPONENT_COUNT>
1
> <PUBCHEM_CACTVS_TAUTO_COUNT>
-1
> <PUBCHEM_COORDINATE_TYPE>
1
5
255
> <PUBCHEM_BONDANNOTATIONS>
14  17  8
17  18  8
10  2  5
11  3  5
4  14  8
4  16  8
9  4  6
5  16  8
5  17  8
6  14  8
6  19  8
7  18  8
7  19  8
$$$$
