512527
  -OEChem-10302200282D
107109  0     1  0  0  0  0  0999 V2000
   14.6613    2.8100    0.0000 O   0  0  0  0  0  0  0  0  0  0  0  0
   13.7953    1.3100    0.0000 O   0  0  0  0  0  0  0  0  0  0  0  0
   12.9292    0.8100    0.0000 O   0  0  0  0  0  0  0  0  0  0  0  0
    9.4651   -0.1900    0.0000 O   0  0  0  0  0  0  0  0  0  0  0  0
    8.5991   -0.6900    0.0000 O   0  0  0  0  0  0  0  0  0  0  0  0
    6.0010   -3.1900    0.0000 O   0  0  0  0  0  0  0  0  0  0  0  0
    6.0010   -5.1900    0.0000 O   0  0  0  0  0  0  0  0  0  0  0  0
    7.7331   -5.1900    0.0000 O   0  0  0  0  0  0  0  0  0  0  0  0
    2.5369   -2.1900    0.0000 O   0  0  0  0  0  0  0  0  0  0  0  0
    3.4030   -0.6900    0.0000 O   0  0  0  0  0  0  0  0  0  0  0  0
   12.0632    2.3100    0.0000 N   0  0  0  0  0  0  0  0  0  0  0  0
   11.1972   -0.1900    0.0000 N   0  0  0  0  0  0  0  0  0  0  0  0
    9.4651   -2.1900    0.0000 N   0  0  0  0  0  0  0  0  0  0  0  0
    6.8671   -1.6900    0.0000 N   0  0  0  0  0  0  0  0  0  0  0  0
    5.1350   -0.6900    0.0000 N   0  0  0  0  0  0  0  0  0  0  0  0
   13.7953    4.3100    0.0000 C   0  0  0  0  0  0  0  0  0  0  0  0
   13.7953    5.3100    0.0000 C   0  0  0  0  0  0  0  0  0  0  0  0
   14.6613    3.8100    0.0000 C   0  0  0  0  0  0  0  0  0  0  0  0
   14.6613    5.8100    0.0000 C   0  0  0  0  0  0  0  0  0  0  0  0
   15.5273    4.3100    0.0000 C   0  0  0  0  0  0  0  0  0  0  0  0
   12.9292    3.8100    0.0000 C   0  0  0  0  0  0  0  0  0  0  0  0
   15.5273    5.3100    0.0000 C   0  0  0  0  0  0  0  0  0  0  0  0
   12.9292    2.8100    0.0000 C   0  0  1  0  0  0  0  0  0  0  0  0
   11.1972    0.8100    0.0000 C   0  0  2  0  0  0  0  0  0  0  0  0
   13.7953    2.3100    0.0000 C   0  0  0  0  0  0  0  0  0  0  0  0
   12.0632    1.3100    0.0000 C   0  0  0  0  0  0  0  0  0  0  0  0
   10.3312    1.3100    0.0000 C   0  0  2  0  0  0  0  0  0  0  0  0
   10.3312    2.3100    0.0000 C   0  0  0  0  0  0  0  0  0  0  0  0
   10.3312   -1.6900    0.0000 C   0  0  1  0  0  0  0  0  0  0  0  0
    9.4651    0.8100    0.0000 C   0  0  0  0  0  0  0  0  0  0  0  0
   11.1972   -2.1900    0.0000 C   0  0  0  0  0  0  0  0  0  0  0  0
   10.3312   -0.6900    0.0000 C   0  0  0  0  0  0  0  0  0  0  0  0
    9.4651    2.8100    0.0000 C   0  0  0  0  0  0  0  0  0  0  0  0
   11.1972   -3.1900    0.0000 C   0  0  0  0  0  0  0  0  0  0  0  0
   12.1972   -2.1900    0.0000 C   0  0  0  0  0  0  0  0  0  0  0  0
    8.5991   -1.6900    0.0000 C   0  0  0  0  0  0  0  0  0  0  0  0
    7.7331   -2.1900    0.0000 C   0  0  2  0  0  0  0  0  0  0  0  0
   10.3312   -3.6900    0.0000 C   0  0  0  0  0  0  0  0  0  0  0  0
   12.6972   -1.3240    0.0000 C   0  0  0  0  0  0  0  0  0  0  0  0
   12.0632   -3.6900    0.0000 C   0  0  0  0  0  0  0  0  0  0  0  0
   12.6972   -3.0560    0.0000 C   0  0  0  0  0  0  0  0  0  0  0  0
    7.7331   -3.1900    0.0000 C   0  0  0  0  0  0  0  0  0  0  0  0
    6.8671   -3.6900    0.0000 C   0  0  0  0  0  0  0  0  0  0  0  0
   10.3312   -4.6900    0.0000 C   0  0  0  0  0  0  0  0  0  0  0  0
   13.6972   -1.3240    0.0000 C   0  0  0  0  0  0  0  0  0  0  0  0
   12.0632   -4.6900    0.0000 C   0  0  0  0  0  0  0  0  0  0  0  0
   13.6972   -3.0560    0.0000 C   0  0  0  0  0  0  0  0  0  0  0  0
   11.1972   -5.1900    0.0000 C   0  0  0  0  0  0  0  0  0  0  0  0
   14.1972   -2.1900    0.0000 C   0  0  0  0  0  0  0  0  0  0  0  0
    6.0010   -2.1900    0.0000 C   0  0  0  0  0  0  0  0  0  0  0  0
    5.1350   -1.6900    0.0000 C   0  0  2  0  0  0  0  0  0  0  0  0
    6.8671   -4.6900    0.0000 C   0  0  0  0  0  0  0  0  0  0  0  0
    4.2690   -2.1900    0.0000 C   0  0  0  0  0  0  0  0  0  0  0  0
    3.4030   -1.6900    0.0000 C   0  0  0  0  0  0  0  0  0  0  0  0
   13.7953    3.6900    0.0000 H   0  0  0  0  0  0  0  0  0  0  0  0
   13.5832    5.8926    0.0000 H   0  0  0  0  0  0  0  0  0  0  0  0
   13.1847    5.2023    0.0000 H   0  0  0  0  0  0  0  0  0  0  0  0
   14.2628    3.3350    0.0000 H   0  0  0  0  0  0  0  0  0  0  0  0
   15.0598    3.3350    0.0000 H   0  0  0  0  0  0  0  0  0  0  0  0
   15.0598    6.2850    0.0000 H   0  0  0  0  0  0  0  0  0  0  0  0
   14.2628    6.2850    0.0000 H   0  0  0  0  0  0  0  0  0  0  0  0
   15.7394    3.7274    0.0000 H   0  0  0  0  0  0  0  0  0  0  0  0
   16.1379    4.4177    0.0000 H   0  0  0  0  0  0  0  0  0  0  0  0
   12.7172    4.3926    0.0000 H   0  0  0  0  0  0  0  0  0  0  0  0
   12.3187    3.7023    0.0000 H   0  0  0  0  0  0  0  0  0  0  0  0
   16.1379    5.2023    0.0000 H   0  0  0  0  0  0  0  0  0  0  0  0
   15.7394    5.8926    0.0000 H   0  0  0  0  0  0  0  0  0  0  0  0
   12.3923    3.1200    0.0000 H   0  0  0  0  0  0  0  0  0  0  0  0
   11.5263    2.6200    0.0000 H   0  0  0  0  0  0  0  0  0  0  0  0
   10.6603    0.5000    0.0000 H   0  0  0  0  0  0  0  0  0  0  0  0
    9.7942    1.6200    0.0000 H   0  0  0  0  0  0  0  0  0  0  0  0
   11.7341   -0.5000    0.0000 H   0  0  0  0  0  0  0  0  0  0  0  0
   10.9417    2.2023    0.0000 H   0  0  0  0  0  0  0  0  0  0  0  0
   10.5432    2.8926    0.0000 H   0  0  0  0  0  0  0  0  0  0  0  0
    9.7942   -1.3800    0.0000 H   0  0  0  0  0  0  0  0  0  0  0  0
    9.1551    1.3469    0.0000 H   0  0  0  0  0  0  0  0  0  0  0  0
    8.9282    0.5000    0.0000 H   0  0  0  0  0  0  0  0  0  0  0  0
    9.7751    0.2731    0.0000 H   0  0  0  0  0  0  0  0  0  0  0  0
   11.3577   -1.5911    0.0000 H   0  0  0  0  0  0  0  0  0  0  0  0
   15.1982    2.5000    0.0000 H   0  0  0  0  0  0  0  0  0  0  0  0
    9.7751    3.3469    0.0000 H   0  0  0  0  0  0  0  0  0  0  0  0
    8.9282    3.1200    0.0000 H   0  0  0  0  0  0  0  0  0  0  0  0
    9.1551    2.2731    0.0000 H   0  0  0  0  0  0  0  0  0  0  0  0
    9.4651   -2.8100    0.0000 H   0  0  0  0  0  0  0  0  0  0  0  0
    7.7331   -1.5700    0.0000 H   0  0  0  0  0  0  0  0  0  0  0  0
    9.7942   -3.3800    0.0000 H   0  0  0  0  0  0  0  0  0  0  0  0
   12.3872   -0.7870    0.0000 H   0  0  0  0  0  0  0  0  0  0  0  0
   12.6002   -3.3800    0.0000 H   0  0  0  0  0  0  0  0  0  0  0  0
   12.3872   -3.5930    0.0000 H   0  0  0  0  0  0  0  0  0  0  0  0
    7.9451   -3.7726    0.0000 H   0  0  0  0  0  0  0  0  0  0  0  0
    8.3437   -3.0823    0.0000 H   0  0  0  0  0  0  0  0  0  0  0  0
    6.8671   -1.0700    0.0000 H   0  0  0  0  0  0  0  0  0  0  0  0
    6.6550   -3.1074    0.0000 H   0  0  0  0  0  0  0  0  0  0  0  0
    6.2565   -3.7977    0.0000 H   0  0  0  0  0  0  0  0  0  0  0  0
    9.7942   -5.0000    0.0000 H   0  0  0  0  0  0  0  0  0  0  0  0
   14.0072   -0.7870    0.0000 H   0  0  0  0  0  0  0  0  0  0  0  0
   12.6002   -5.0000    0.0000 H   0  0  0  0  0  0  0  0  0  0  0  0
   14.0072   -3.5930    0.0000 H   0  0  0  0  0  0  0  0  0  0  0  0
   11.1972   -5.8100    0.0000 H   0  0  0  0  0  0  0  0  0  0  0  0
   14.8172   -2.1900    0.0000 H   0  0  0  0  0  0  0  0  0  0  0  0
    5.6720   -1.3800    0.0000 H   0  0  0  0  0  0  0  0  0  0  0  0
    3.8705   -2.6650    0.0000 H   0  0  0  0  0  0  0  0  0  0  0  0
    4.6675   -2.6650    0.0000 H   0  0  0  0  0  0  0  0  0  0  0  0
    4.5981   -0.3800    0.0000 H   0  0  0  0  0  0  0  0  0  0  0  0
    5.6720   -0.3800    0.0000 H   0  0  0  0  0  0  0  0  0  0  0  0
    6.0010   -5.8100    0.0000 H   0  0  0  0  0  0  0  0  0  0  0  0
    2.0000   -1.8800    0.0000 H   0  0  0  0  0  0  0  0  0  0  0  0
  1 25  1  0  0  0  0
  1 80  1  0  0  0  0
  2 25  2  0  0  0  0
  3 26  2  0  0  0  0
  4 32  2  0  0  0  0
  5 36  2  0  0  0  0
  6 50  2  0  0  0  0
  7 52  1  0  0  0  0
  7106  1  0  0  0  0
  8 52  2  0  0  0  0
  9 54  1  0  0  0  0
  9107  1  0  0  0  0
 10 54  2  0  0  0  0
 23 11  1  1  0  0  0
 11 26  1  0  0  0  0
 11 69  1  0  0  0  0
 24 12  1  1  0  0  0
 12 32  1  0  0  0  0
 12 72  1  0  0  0  0
 29 13  1  6  0  0  0
 13 36  1  0  0  0  0
 13 84  1  0  0  0  0
 37 14  1  6  0  0  0
 14 50  1  0  0  0  0
 14 92  1  0  0  0  0
 51 15  1  6  0  0  0
 15104  1  0  0  0  0
 15105  1  0  0  0  0
 16 17  1  0  0  0  0
 16 18  1  0  0  0  0
 16 21  1  0  0  0  0
 16 55  1  0  0  0  0
 17 19  1  0  0  0  0
 17 56  1  0  0  0  0
 17 57  1  0  0  0  0
 18 20  1  0  0  0  0
 18 58  1  0  0  0  0
 18 59  1  0  0  0  0
 19 22  1  0  0  0  0
 19 60  1  0  0  0  0
 19 61  1  0  0  0  0
 20 22  1  0  0  0  0
 20 62  1  0  0  0  0
 20 63  1  0  0  0  0
 21 23  1  0  0  0  0
 21 64  1  0  0  0  0
 21 65  1  0  0  0  0
 22 66  1  0  0  0  0
 22 67  1  0  0  0  0
 23 25  1  0  0  0  0
 23 68  1  0  0  0  0
 24 26  1  0  0  0  0
 24 27  1  0  0  0  0
 24 70  1  0  0  0  0
 27 28  1  0  0  0  0
 27 30  1  1  0  0  0
 27 71  1  0  0  0  0
 28 33  1  0  0  0  0
 28 73  1  0  0  0  0
 28 74  1  0  0  0  0
 29 31  1  0  0  0  0
 29 32  1  0  0  0  0
 29 75  1  0  0  0  0
 30 76  1  0  0  0  0
 30 77  1  0  0  0  0
 30 78  1  0  0  0  0
 31 34  1  0  0  0  0
 31 35  1  0  0  0  0
 31 79  1  0  0  0  0
 33 81  1  0  0  0  0
 33 82  1  0  0  0  0
 33 83  1  0  0  0  0
 34 38  2  0  0  0  0
 34 40  1  0  0  0  0
 35 39  2  0  0  0  0
 35 41  1  0  0  0  0
 36 37  1  0  0  0  0
 37 42  1  0  0  0  0
 37 85  1  0  0  0  0
 38 44  1  0  0  0  0
 38 86  1  0  0  0  0
 39 45  1  0  0  0  0
 39 87  1  0  0  0  0
 40 46  2  0  0  0  0
 40 88  1  0  0  0  0
 41 47  2  0  0  0  0
 41 89  1  0  0  0  0
 42 43  1  0  0  0  0
 42 90  1  0  0  0  0
 42 91  1  0  0  0  0
 43 52  1  0  0  0  0
 43 93  1  0  0  0  0
 43 94  1  0  0  0  0
 44 48  2  0  0  0  0
 44 95  1  0  0  0  0
 45 49  2  0  0  0  0
 45 96  1  0  0  0  0
 46 48  1  0  0  0  0
 46 97  1  0  0  0  0
 47 49  1  0  0  0  0
 47 98  1  0  0  0  0
 48 99  1  0  0  0  0
 49100  1  0  0  0  0
 50 51  1  0  0  0  0
 51 53  1  0  0  0  0
 51101  1  0  0  0  0
 53 54  1  0  0  0  0
 53102  1  0  0  0  0
 53103  1  0  0  0  0
M  END
> <PUBCHEM_COMPOUND_CID>
512527
> <PUBCHEM_COMPOUND_CANONICALIZED>
1
> <PUBCHEM_CACTVS_COMPLEXITY>
1260
> <PUBCHEM_CACTVS_HBOND_ACCEPTOR>
11
> <PUBCHEM_CACTVS_HBOND_DONOR>
8
> <PUBCHEM_CACTVS_ROTATABLE_BOND>
21
> <PUBCHEM_CACTVS_SUBSKEYS>
AAADcfB/vAAAAAAAAAAAAAAAAAAAAAAAAAAwYMAAAAAAAAABQAAAHgAQCAAADSjBmAQyCILAAgCIAiHSGAACAAAgAAAIiIGIAIgKYDqAkTGUYAAmlgCYiAe/3+KOgAAAAAAAAAAAAAAAAAAAAAAAAAAAAA==
> <PUBCHEM_IUPAC_OPENEYE_NAME>
(4S)-4-[[(2S)-2-amino-3-carboxy-propanoyl]amino]-5-[[(1S)-1-benzhydryl-2-[[(1S,2S)-1-[[(1S)-1-carboxy-2-cyclohexyl-ethyl]carbamoyl]-2-methyl-butyl]amino]-2-oxo-ethyl]amino]-5-oxo-pentanoic acid
> <PUBCHEM_IUPAC_CAS_NAME>
(4S)-4-[[(2S)-2-amino-3-carboxy-1-oxopropyl]amino]-5-[[(2S)-1-[[(2S,3S)-1-[[(1S)-1-carboxy-2-cyclohexylethyl]amino]-3-methyl-1-oxopentan-2-yl]amino]-1-oxo-3,3-diphenylpropan-2-yl]amino]-5-oxopentanoic acid
> <PUBCHEM_IUPAC_NAME_MARKUP>
(4<I>S</I>)-4-[[(2<I>S</I>)-2-amino-3-carboxypropanoyl]amino]-5-[[(2<I>S</I>)-1-[[(2<I>S</I>,3<I>S</I>)-1-[[(1<I>S</I>)-1-carboxy-2-cyclohexylethyl]amino]-3-methyl-1-oxopentan-2-yl]amino]-1-oxo-3,3-diphenylpropan-2-yl]amino]-5-oxopentanoic acid
> <PUBCHEM_IUPAC_NAME>
(4S)-4-[[(2S)-2-amino-3-carboxypropanoyl]amino]-5-[[(2S)-1-[[(2S,3S)-1-[[(1S)-1-carboxy-2-cyclohexylethyl]amino]-3-methyl-1-oxopentan-2-yl]amino]-1-oxo-3,3-diphenylpropan-2-yl]amino]-5-oxopentanoic acid
> <PUBCHEM_IUPAC_SYSTEMATIC_NAME>
(4S)-4-[[(2S)-2-azanyl-4-oxidanyl-4-oxidanylidene-butanoyl]amino]-5-[[(2S)-1-[[(2S,3S)-1-[[(2S)-3-cyclohexyl-1-oxidanyl-1-oxidanylidene-propan-2-yl]amino]-3-methyl-1-oxidanylidene-pentan-2-yl]amino]-1-oxidanylidene-3,3-diphenyl-propan-2-yl]amino]-5-oxidanylidene-pentanoic acid
> <PUBCHEM_IUPAC_TRADITIONAL_NAME>
(4S)-4-[[(2S)-2-amino-3-carboxy-propanoyl]amino]-5-[[(1S)-1-benzhydryl-2-[[(1S,2S)-1-[[(1S)-1-carboxy-2-cyclohexyl-ethyl]carbamoyl]-2-methyl-butyl]amino]-2-keto-ethyl]amino]-5-keto-valeric acid
> <PUBCHEM_IUPAC_INCHI>
InChI=1S/C39H53N5O10/c1-3-23(2)33(37(51)42-29(39(53)54)21-24-13-7-4-8-14-24)43-38(52)34(32(25-15-9-5-10-16-25)26-17-11-6-12-18-26)44-36(50)28(19-20-30(45)46)41-35(49)27(40)22-31(47)48/h5-6,9-12,15-18,23-24,27-29,32-34H,3-4,7-8,13-14,19-22,40H2,1-2H3,(H,41,49)(H,42,51)(H,43,52)(H,44,50)(H,45,46)(H,47,48)(H,53,54)/t23-,27-,28-,29-,33-,34-/m0/s1
> <PUBCHEM_IUPAC_INCHIKEY>
UEBAXXFRLVOIMN-XGNZUTDWSA-N
> <PUBCHEM_XLOGP3_AA>
1.7
> <PUBCHEM_EXACT_MASS>
751.37924290
> <PUBCHEM_MOLECULAR_FORMULA>
C39H53N5O10
> <PUBCHEM_MOLECULAR_WEIGHT>
751.9
> <PUBCHEM_OPENEYE_CAN_SMILES>
CCC(C)C(C(=O)NC(CC1CCCCC1)C(=O)O)NC(=O)C(C(C2=CC=CC=C2)C3=CC=CC=C3)NC(=O)C(CCC(=O)O)NC(=O)C(CC(=O)O)N
> <PUBCHEM_OPENEYE_ISO_SMILES>
CC[C@H](C)[C@@H](C(=O)N[C@@H](CC1CCCCC1)C(=O)O)NC(=O)[C@H](C(C2=CC=CC=C2)C3=CC=CC=C3)NC(=O)[C@H](CCC(=O)O)NC(=O)[C@H](CC(=O)O)N
> <PUBCHEM_CACTVS_TPSA>
254
> <PUBCHEM_MONOISOTOPIC_WEIGHT>
751.37924290
> <PUBCHEM_TOTAL_CHARGE>
0
> <PUBCHEM_HEAVY_ATOM_COUNT>
54
> <PUBCHEM_ATOM_DEF_STEREO_COUNT>
6
> <PUBCHEM_ATOM_UDEF_STEREO_COUNT>
0
> <PUBCHEM_BOND_DEF_STEREO_COUNT>
0
> <PUBCHEM_BOND_UDEF_STEREO_COUNT>
0
> <PUBCHEM_ISOTOPIC_ATOM_COUNT>
0
> <PUBCHEM_COMPONENT_COUNT>
1
> <PUBCHEM_CACTVS_TAUTO_COUNT>
-1
> <PUBCHEM_COORDINATE_TYPE>
1
5
255
> <PUBCHEM_BONDANNOTATIONS>
23  11  5
24  12  5
29  13  6
37  14  6
51  15  6
27  30  5
34  38  8
34  40  8
35  39  8
35  41  8
38  44  8
39  45  8
40  46  8
41  47  8
44  48  8
45  49  8
46  48  8
47  49  8
$$$$
