512597
  -OEChem-10302200282D
 52 54  0     1  0  0  0  0  0999 V2000
    4.4026    1.0359    0.0000 O   0  0  0  0  0  0  0  0  0  0  0  0
    6.7523    2.1196    0.0000 O   0  0  0  0  0  0  0  0  0  0  0  0
    5.3548    3.5375    0.0000 O   0  0  0  0  0  0  0  0  0  0  0  0
    4.6783   -0.7247    0.0000 N   0  0  0  0  0  0  0  0  0  0  0  0
    4.6783   -2.3341    0.0000 N   0  0  0  0  0  0  0  0  0  0  0  0
    2.8660   -0.5294    0.0000 N   0  0  0  0  0  0  0  0  0  0  0  0
    2.0000   -2.0294    0.0000 N   0  0  0  0  0  0  0  0  0  0  0  0
    2.8660   -3.5294    0.0000 N   0  0  0  0  0  0  0  0  0  0  0  0
    4.9889    0.2259    0.0000 C   0  0  1  0  0  0  0  0  0  0  0  0
    5.9405    0.5332    0.0000 C   0  0  0  0  0  0  0  0  0  0  0  0
    5.9422    1.5332    0.0000 C   0  0  1  0  0  0  0  0  0  0  0  0
    4.9917    1.8439    0.0000 C   0  0  1  0  0  0  0  0  0  0  0  0
    5.2619   -1.5294    0.0000 C   0  0  0  0  0  0  0  0  0  0  0  0
    4.6844    2.7955    0.0000 C   0  0  0  0  0  0  0  0  0  0  0  0
    6.2619   -1.5294    0.0000 C   0  0  0  0  0  0  0  0  0  0  0  0
    3.7320   -1.0294    0.0000 C   0  0  0  0  0  0  0  0  0  0  0  0
    6.7619   -2.3954    0.0000 C   0  0  0  0  0  0  0  0  0  0  0  0
    3.7320   -2.0294    0.0000 C   0  0  0  0  0  0  0  0  0  0  0  0
    7.7619   -2.3954    0.0000 C   0  0  0  0  0  0  0  0  0  0  0  0
    8.2619   -3.2614    0.0000 C   0  0  0  0  0  0  0  0  0  0  0  0
    9.2619   -3.2614    0.0000 C   0  0  0  0  0  0  0  0  0  0  0  0
    2.8660   -2.5294    0.0000 C   0  0  0  0  0  0  0  0  0  0  0  0
    9.7619   -4.1275    0.0000 C   0  0  0  0  0  0  0  0  0  0  0  0
    2.0000   -1.0294    0.0000 C   0  0  0  0  0  0  0  0  0  0  0  0
   10.7619   -4.1275    0.0000 C   0  0  0  0  0  0  0  0  0  0  0  0
    5.4266   -0.2133    0.0000 H   0  0  0  0  0  0  0  0  0  0  0  0
    6.0684   -0.0734    0.0000 H   0  0  0  0  0  0  0  0  0  0  0  0
    6.5572    0.5970    0.0000 H   0  0  0  0  0  0  0  0  0  0  0  0
    6.4942    1.2508    0.0000 H   0  0  0  0  0  0  0  0  0  0  0  0
    4.3795    1.9420    0.0000 H   0  0  0  0  0  0  0  0  0  0  0  0
    4.3035    3.2847    0.0000 H   0  0  0  0  0  0  0  0  0  0  0  0
    4.1364    2.5054    0.0000 H   0  0  0  0  0  0  0  0  0  0  0  0
    6.8445   -1.3173    0.0000 H   0  0  0  0  0  0  0  0  0  0  0  0
    6.1542   -0.9188    0.0000 H   0  0  0  0  0  0  0  0  0  0  0  0
    6.1793   -2.6075    0.0000 H   0  0  0  0  0  0  0  0  0  0  0  0
    6.8695   -3.0060    0.0000 H   0  0  0  0  0  0  0  0  0  0  0  0
    8.3445   -2.1834    0.0000 H   0  0  0  0  0  0  0  0  0  0  0  0
    7.6542   -1.7848    0.0000 H   0  0  0  0  0  0  0  0  0  0  0  0
    7.3182    1.8665    0.0000 H   0  0  0  0  0  0  0  0  0  0  0  0
    7.6793   -3.4735    0.0000 H   0  0  0  0  0  0  0  0  0  0  0  0
    8.3695   -3.8720    0.0000 H   0  0  0  0  0  0  0  0  0  0  0  0
    9.8445   -3.0494    0.0000 H   0  0  0  0  0  0  0  0  0  0  0  0
    9.1542   -2.6508    0.0000 H   0  0  0  0  0  0  0  0  0  0  0  0
    5.1642    4.1275    0.0000 H   0  0  0  0  0  0  0  0  0  0  0  0
    9.1793   -4.3395    0.0000 H   0  0  0  0  0  0  0  0  0  0  0  0
    9.8695   -4.7380    0.0000 H   0  0  0  0  0  0  0  0  0  0  0  0
    1.4631   -0.7194    0.0000 H   0  0  0  0  0  0  0  0  0  0  0  0
    2.3291   -3.8394    0.0000 H   0  0  0  0  0  0  0  0  0  0  0  0
    3.4030   -3.8394    0.0000 H   0  0  0  0  0  0  0  0  0  0  0  0
   10.7619   -4.7475    0.0000 H   0  0  0  0  0  0  0  0  0  0  0  0
   11.3819   -4.1275    0.0000 H   0  0  0  0  0  0  0  0  0  0  0  0
   10.7619   -3.5075    0.0000 H   0  0  0  0  0  0  0  0  0  0  0  0
  1  9  1  0  0  0  0
  1 12  1  0  0  0  0
 11  2  1  1  0  0  0
  2 39  1  0  0  0  0
  3 14  1  0  0  0  0
  3 44  1  0  0  0  0
  9  4  1  6  0  0  0
  4 13  1  0  0  0  0
  4 16  1  0  0  0  0
  5 13  2  0  0  0  0
  5 18  1  0  0  0  0
  6 16  2  0  0  0  0
  6 24  1  0  0  0  0
  7 22  1  0  0  0  0
  7 24  2  0  0  0  0
  8 22  1  0  0  0  0
  8 48  1  0  0  0  0
  8 49  1  0  0  0  0
  9 10  1  0  0  0  0
  9 26  1  0  0  0  0
 10 11  1  0  0  0  0
 10 27  1  0  0  0  0
 10 28  1  0  0  0  0
 11 12  1  0  0  0  0
 11 29  1  0  0  0  0
 12 14  1  6  0  0  0
 12 30  1  0  0  0  0
 13 15  1  0  0  0  0
 14 31  1  0  0  0  0
 14 32  1  0  0  0  0
 15 17  1  0  0  0  0
 15 33  1  0  0  0  0
 15 34  1  0  0  0  0
 16 18  1  0  0  0  0
 17 19  1  0  0  0  0
 17 35  1  0  0  0  0
 17 36  1  0  0  0  0
 18 22  2  0  0  0  0
 19 20  1  0  0  0  0
 19 37  1  0  0  0  0
 19 38  1  0  0  0  0
 20 21  1  0  0  0  0
 20 40  1  0  0  0  0
 20 41  1  0  0  0  0
 21 23  1  0  0  0  0
 21 42  1  0  0  0  0
 21 43  1  0  0  0  0
 23 25  1  0  0  0  0
 23 45  1  0  0  0  0
 23 46  1  0  0  0  0
 24 47  1  0  0  0  0
 25 50  1  0  0  0  0
 25 51  1  0  0  0  0
 25 52  1  0  0  0  0
M  END
> <PUBCHEM_COMPOUND_CID>
512597
> <PUBCHEM_COMPOUND_CANONICALIZED>
1
> <PUBCHEM_CACTVS_COMPLEXITY>
416
> <PUBCHEM_CACTVS_HBOND_ACCEPTOR>
7
> <PUBCHEM_CACTVS_HBOND_DONOR>
3
> <PUBCHEM_CACTVS_ROTATABLE_BOND>
8
> <PUBCHEM_CACTVS_SUBSKEYS>
AAADceB7sAAAAAAAAAAAAAAAAAAAAWJAAAAsAAAAAAAAAFgB+AAAHgAQCAAACBzhlwYH8L9MFgCgAQZhZACAgC0REKABUCA4VBCBWAJAyEAeRAgPAALDACGwsIIAAAAAAAAAAAAAAAAAAAAAAAAAAAAAAA==
> <PUBCHEM_IUPAC_OPENEYE_NAME>
(2R,3S,5R)-5-(6-amino-8-heptyl-purin-9-yl)-2-(hydroxymethyl)tetrahydrofuran-3-ol
> <PUBCHEM_IUPAC_CAS_NAME>
(2R,3S,5R)-5-(6-amino-8-heptyl-9-purinyl)-2-(hydroxymethyl)-3-oxolanol
> <PUBCHEM_IUPAC_NAME_MARKUP>
(2<I>R</I>,3<I>S</I>,5<I>R</I>)-5-(6-amino-8-heptylpurin-9-yl)-2-(hydroxymethyl)oxolan-3-ol
> <PUBCHEM_IUPAC_NAME>
(2R,3S,5R)-5-(6-amino-8-heptylpurin-9-yl)-2-(hydroxymethyl)oxolan-3-ol
> <PUBCHEM_IUPAC_SYSTEMATIC_NAME>
(2R,3S,5R)-5-(6-azanyl-8-heptyl-purin-9-yl)-2-(hydroxymethyl)oxolan-3-ol
> <PUBCHEM_IUPAC_TRADITIONAL_NAME>
(2R,3S,5R)-5-(6-amino-8-heptyl-purin-9-yl)-2-methylol-tetrahydrofuran-3-ol
> <PUBCHEM_IUPAC_INCHI>
InChI=1S/C17H27N5O3/c1-2-3-4-5-6-7-13-21-15-16(18)19-10-20-17(15)22(13)14-8-11(24)12(9-23)25-14/h10-12,14,23-24H,2-9H2,1H3,(H2,18,19,20)/t11-,12+,14+/m0/s1
> <PUBCHEM_IUPAC_INCHIKEY>
SIYUMSIMNJILTK-OUCADQQQSA-N
> <PUBCHEM_XLOGP3>
2.8
> <PUBCHEM_EXACT_MASS>
349.21138974
> <PUBCHEM_MOLECULAR_FORMULA>
C17H27N5O3
> <PUBCHEM_MOLECULAR_WEIGHT>
349.4
> <PUBCHEM_OPENEYE_CAN_SMILES>
CCCCCCCC1=NC2=C(N=CN=C2N1C3CC(C(O3)CO)O)N
> <PUBCHEM_OPENEYE_ISO_SMILES>
CCCCCCCC1=NC2=C(N=CN=C2N1[C@H]3C[C@@H]([C@H](O3)CO)O)N
> <PUBCHEM_CACTVS_TPSA>
119
> <PUBCHEM_MONOISOTOPIC_WEIGHT>
349.21138974
> <PUBCHEM_TOTAL_CHARGE>
0
> <PUBCHEM_HEAVY_ATOM_COUNT>
25
> <PUBCHEM_ATOM_DEF_STEREO_COUNT>
3
> <PUBCHEM_ATOM_UDEF_STEREO_COUNT>
0
> <PUBCHEM_BOND_DEF_STEREO_COUNT>
0
> <PUBCHEM_BOND_UDEF_STEREO_COUNT>
0
> <PUBCHEM_ISOTOPIC_ATOM_COUNT>
0
> <PUBCHEM_COMPONENT_COUNT>
1
> <PUBCHEM_CACTVS_TAUTO_COUNT>
-1
> <PUBCHEM_COORDINATE_TYPE>
1
5
255
> <PUBCHEM_BONDANNOTATIONS>
12  14  6
16  18  8
18  22  8
11  2  5
4  13  8
4  16  8
9  4  6
5  13  8
5  18  8
6  16  8
6  24  8
7  22  8
7  24  8
$$$$
