512520
  -OEChem-10302200282D
101100  0     1  0  0  0  0  0999 V2000
   14.9904   -2.7500    0.0000 S   0  0  0  0  0  0  0  0  0  0  0  0
    3.7320   -0.2500    0.0000 S   0  0  0  0  0  0  0  0  0  0  0  0
    7.1962    1.7500    0.0000 S   0  0  0  0  0  0  0  0  0  0  0  0
   13.2583    1.2500    0.0000 O   0  0  0  0  0  0  0  0  0  0  0  0
   10.6603   -1.2500    0.0000 O   0  0  0  0  0  0  0  0  0  0  0  0
   15.8564   -1.2500    0.0000 O   0  0  0  0  0  0  0  0  0  0  0  0
    8.0622    1.2500    0.0000 O   0  0  0  0  0  0  0  0  0  0  0  0
   13.2583    3.2500    0.0000 O   0  0  0  0  0  0  0  0  0  0  0  0
   18.4545    1.2500    0.0000 O   0  0  0  0  0  0  0  0  0  0  0  0
   11.5263    3.2500    0.0000 O   0  0  0  0  0  0  0  0  0  0  0  0
   10.6603   -3.2500    0.0000 O   0  0  0  0  0  0  0  0  0  0  0  0
   18.4545    3.2500    0.0000 O   0  0  0  0  0  0  0  0  0  0  0  0
    8.9282   -3.2500    0.0000 O   0  0  0  0  0  0  0  0  0  0  0  0
    5.4641   -1.2500    0.0000 O   0  0  0  0  0  0  0  0  0  0  0  0
   16.7224    3.2500    0.0000 O   0  0  0  0  0  0  0  0  0  0  0  0
   21.9186    0.2500    0.0000 O   0  0  0  0  0  0  0  0  0  0  0  0
   21.0526   -1.2500    0.0000 O   0  0  0  0  0  0  0  0  0  0  0  0
    3.2320    0.6160    0.0000 O   0  0  0  0  0  0  0  0  0  0  0  0
    4.2320   -1.1160    0.0000 O   0  0  0  0  0  0  0  0  0  0  0  0
    2.8660   -1.7500    0.0000 O   0  0  0  0  0  0  0  0  0  0  0  0
   12.3923   -0.2500    0.0000 N   0  0  0  0  0  0  0  0  0  0  0  0
   14.9904    0.2500    0.0000 N   0  0  0  0  0  0  0  0  0  0  0  0
    9.7942    0.2500    0.0000 N   0  0  0  0  0  0  0  0  0  0  0  0
   17.5885   -0.2500    0.0000 N   0  0  0  0  0  0  0  0  0  0  0  0
    7.1962   -0.2500    0.0000 N   0  0  0  0  0  0  0  0  0  0  0  0
   19.3205   -1.2500    0.0000 N   0  0  0  0  0  0  0  0  0  0  0  0
    4.5981    0.2500    0.0000 N   0  0  0  0  0  0  0  0  0  0  0  0
   11.5263    0.2500    0.0000 C   0  0  1  0  0  0  0  0  0  0  0  0
   14.1244   -0.2500    0.0000 C   0  0  1  0  0  0  0  0  0  0  0  0
   11.5263    1.2500    0.0000 C   0  0  0  0  0  0  0  0  0  0  0  0
    8.9282   -0.2500    0.0000 C   0  0  1  0  0  0  0  0  0  0  0  0
   14.1244   -1.2500    0.0000 C   0  0  0  0  0  0  0  0  0  0  0  0
   16.7224    0.2500    0.0000 C   0  0  2  0  0  0  0  0  0  0  0  0
   13.2583    0.2500    0.0000 C   0  0  0  0  0  0  0  0  0  0  0  0
   10.6603   -0.2500    0.0000 C   0  0  0  0  0  0  0  0  0  0  0  0
    8.9282   -1.2500    0.0000 C   0  0  0  0  0  0  0  0  0  0  0  0
   15.8564   -0.2500    0.0000 C   0  0  0  0  0  0  0  0  0  0  0  0
   16.7224    1.2500    0.0000 C   0  0  0  0  0  0  0  0  0  0  0  0
   12.3923    1.7500    0.0000 C   0  0  0  0  0  0  0  0  0  0  0  0
   14.9904   -1.7500    0.0000 C   0  0  0  0  0  0  0  0  0  0  0  0
    8.0622    0.2500    0.0000 C   0  0  0  0  0  0  0  0  0  0  0  0
    9.7942   -1.7500    0.0000 C   0  0  0  0  0  0  0  0  0  0  0  0
   17.5885    1.7500    0.0000 C   0  0  0  0  0  0  0  0  0  0  0  0
    6.3301    0.2500    0.0000 C   0  0  1  0  0  0  0  0  0  0  0  0
   18.4545    0.2500    0.0000 C   0  0  0  0  0  0  0  0  0  0  0  0
   19.3205   -0.2500    0.0000 C   0  0  2  0  0  0  0  0  0  0  0  0
   12.3923    2.7500    0.0000 C   0  0  0  0  0  0  0  0  0  0  0  0
    6.3301    1.2500    0.0000 C   0  0  0  0  0  0  0  0  0  0  0  0
    9.7942   -2.7500    0.0000 C   0  0  0  0  0  0  0  0  0  0  0  0
    5.4641   -0.2500    0.0000 C   0  0  0  0  0  0  0  0  0  0  0  0
   20.1865    0.2500    0.0000 C   0  0  0  0  0  0  0  0  0  0  0  0
   17.5885    2.7500    0.0000 C   0  0  0  0  0  0  0  0  0  0  0  0
   15.8564   -3.2500    0.0000 C   0  0  0  0  0  0  0  0  0  0  0  0
   21.0526   -0.2500    0.0000 C   0  0  0  0  0  0  0  0  0  0  0  0
    2.8660   -0.7500    0.0000 C   0  0  0  0  0  0  0  0  0  0  0  0
    2.0000   -0.2500    0.0000 C   0  0  0  0  0  0  0  0  0  0  0  0
   12.0632    0.5600    0.0000 H   0  0  0  0  0  0  0  0  0  0  0  0
   14.1244    0.3700    0.0000 H   0  0  0  0  0  0  0  0  0  0  0  0
   11.3142    1.8326    0.0000 H   0  0  0  0  0  0  0  0  0  0  0  0
   10.9157    1.1423    0.0000 H   0  0  0  0  0  0  0  0  0  0  0  0
    9.4651   -0.5600    0.0000 H   0  0  0  0  0  0  0  0  0  0  0  0
   13.5138   -1.1423    0.0000 H   0  0  0  0  0  0  0  0  0  0  0  0
   13.9123   -1.8326    0.0000 H   0  0  0  0  0  0  0  0  0  0  0  0
   16.7224   -0.3700    0.0000 H   0  0  0  0  0  0  0  0  0  0  0  0
   12.3923   -0.8700    0.0000 H   0  0  0  0  0  0  0  0  0  0  0  0
   14.9904    0.8700    0.0000 H   0  0  0  0  0  0  0  0  0  0  0  0
    8.3176   -1.1423    0.0000 H   0  0  0  0  0  0  0  0  0  0  0  0
    8.7162   -1.8326    0.0000 H   0  0  0  0  0  0  0  0  0  0  0  0
    9.7942    0.8700    0.0000 H   0  0  0  0  0  0  0  0  0  0  0  0
   16.5104    1.8326    0.0000 H   0  0  0  0  0  0  0  0  0  0  0  0
   16.1119    1.1423    0.0000 H   0  0  0  0  0  0  0  0  0  0  0  0
   12.6044    1.1674    0.0000 H   0  0  0  0  0  0  0  0  0  0  0  0
   13.0029    1.8577    0.0000 H   0  0  0  0  0  0  0  0  0  0  0  0
   15.6010   -1.8577    0.0000 H   0  0  0  0  0  0  0  0  0  0  0  0
   15.2024   -1.1674    0.0000 H   0  0  0  0  0  0  0  0  0  0  0  0
   10.4048   -1.8577    0.0000 H   0  0  0  0  0  0  0  0  0  0  0  0
   10.0063   -1.1674    0.0000 H   0  0  0  0  0  0  0  0  0  0  0  0
   17.5885   -0.8700    0.0000 H   0  0  0  0  0  0  0  0  0  0  0  0
   17.8005    1.1674    0.0000 H   0  0  0  0  0  0  0  0  0  0  0  0
   18.1990    1.8577    0.0000 H   0  0  0  0  0  0  0  0  0  0  0  0
    7.1962   -0.8700    0.0000 H   0  0  0  0  0  0  0  0  0  0  0  0
    6.8671    0.5600    0.0000 H   0  0  0  0  0  0  0  0  0  0  0  0
   19.8574   -0.5600    0.0000 H   0  0  0  0  0  0  0  0  0  0  0  0
    6.1181    1.8326    0.0000 H   0  0  0  0  0  0  0  0  0  0  0  0
    5.7196    1.1423    0.0000 H   0  0  0  0  0  0  0  0  0  0  0  0
   20.5851    0.7249    0.0000 H   0  0  0  0  0  0  0  0  0  0  0  0
   19.7880    0.7249    0.0000 H   0  0  0  0  0  0  0  0  0  0  0  0
   19.8574   -1.5600    0.0000 H   0  0  0  0  0  0  0  0  0  0  0  0
   18.7836   -1.5600    0.0000 H   0  0  0  0  0  0  0  0  0  0  0  0
   15.5464   -3.7869    0.0000 H   0  0  0  0  0  0  0  0  0  0  0  0
   16.3933   -3.5600    0.0000 H   0  0  0  0  0  0  0  0  0  0  0  0
   16.1664   -2.7131    0.0000 H   0  0  0  0  0  0  0  0  0  0  0  0
    4.5981    0.8700    0.0000 H   0  0  0  0  0  0  0  0  0  0  0  0
   13.2583    3.8700    0.0000 H   0  0  0  0  0  0  0  0  0  0  0  0
    7.1962    2.3700    0.0000 H   0  0  0  0  0  0  0  0  0  0  0  0
   10.6603   -3.8700    0.0000 H   0  0  0  0  0  0  0  0  0  0  0  0
   18.4545    3.8700    0.0000 H   0  0  0  0  0  0  0  0  0  0  0  0
   22.4555   -0.0600    0.0000 H   0  0  0  0  0  0  0  0  0  0  0  0
    2.3100    0.2869    0.0000 H   0  0  0  0  0  0  0  0  0  0  0  0
    1.4631    0.0600    0.0000 H   0  0  0  0  0  0  0  0  0  0  0  0
    1.6900   -0.7869    0.0000 H   0  0  0  0  0  0  0  0  0  0  0  0
  1 40  1  0  0  0  0
  1 53  1  0  0  0  0
  2 18  2  0  0  0  0
  2 19  2  0  0  0  0
  2 27  1  0  0  0  0
  2 55  1  0  0  0  0
  3 48  1  0  0  0  0
  3 95  1  0  0  0  0
  4 34  2  0  0  0  0
  5 35  2  0  0  0  0
  6 37  2  0  0  0  0
  7 41  2  0  0  0  0
  8 47  1  0  0  0  0
  8 94  1  0  0  0  0
  9 45  2  0  0  0  0
 10 47  2  0  0  0  0
 11 49  1  0  0  0  0
 11 96  1  0  0  0  0
 12 52  1  0  0  0  0
 12 97  1  0  0  0  0
 13 49  2  0  0  0  0
 14 50  2  0  0  0  0
 15 52  2  0  0  0  0
 16 54  1  0  0  0  0
 16 98  1  0  0  0  0
 17 54  2  0  0  0  0
 20 55  2  0  0  0  0
 28 21  1  6  0  0  0
 21 34  1  0  0  0  0
 21 65  1  0  0  0  0
 29 22  1  1  0  0  0
 22 37  1  0  0  0  0
 22 66  1  0  0  0  0
 31 23  1  1  0  0  0
 23 35  1  0  0  0  0
 23 69  1  0  0  0  0
 33 24  1  6  0  0  0
 24 45  1  0  0  0  0
 24 78  1  0  0  0  0
 25 41  1  0  0  0  0
 44 25  1  6  0  0  0
 25 81  1  0  0  0  0
 46 26  1  6  0  0  0
 26 88  1  0  0  0  0
 26 89  1  0  0  0  0
 27 50  1  0  0  0  0
 27 93  1  0  0  0  0
 28 30  1  0  0  0  0
 28 35  1  0  0  0  0
 28 57  1  0  0  0  0
 29 32  1  0  0  0  0
 29 34  1  0  0  0  0
 29 58  1  0  0  0  0
 30 39  1  0  0  0  0
 30 59  1  0  0  0  0
 30 60  1  0  0  0  0
 31 36  1  0  0  0  0
 31 41  1  0  0  0  0
 31 61  1  0  0  0  0
 32 40  1  0  0  0  0
 32 62  1  0  0  0  0
 32 63  1  0  0  0  0
 33 37  1  0  0  0  0
 33 38  1  0  0  0  0
 33 64  1  0  0  0  0
 36 42  1  0  0  0  0
 36 67  1  0  0  0  0
 36 68  1  0  0  0  0
 38 43  1  0  0  0  0
 38 70  1  0  0  0  0
 38 71  1  0  0  0  0
 39 47  1  0  0  0  0
 39 72  1  0  0  0  0
 39 73  1  0  0  0  0
 40 74  1  0  0  0  0
 40 75  1  0  0  0  0
 42 49  1  0  0  0  0
 42 76  1  0  0  0  0
 42 77  1  0  0  0  0
 43 52  1  0  0  0  0
 43 79  1  0  0  0  0
 43 80  1  0  0  0  0
 44 48  1  0  0  0  0
 44 50  1  0  0  0  0
 44 82  1  0  0  0  0
 45 46  1  0  0  0  0
 46 51  1  0  0  0  0
 46 83  1  0  0  0  0
 48 84  1  0  0  0  0
 48 85  1  0  0  0  0
 51 54  1  0  0  0  0
 51 86  1  0  0  0  0
 51 87  1  0  0  0  0
 53 90  1  0  0  0  0
 53 91  1  0  0  0  0
 53 92  1  0  0  0  0
 55 56  1  0  0  0  0
 56 99  1  0  0  0  0
 56100  1  0  0  0  0
 56101  1  0  0  0  0
M  END
> <PUBCHEM_COMPOUND_CID>
512520
> <PUBCHEM_COMPOUND_CANONICALIZED>
1
> <PUBCHEM_CACTVS_COMPLEXITY>
1610
> <PUBCHEM_CACTVS_HBOND_ACCEPTOR>
20
> <PUBCHEM_CACTVS_HBOND_DONOR>
12
> <PUBCHEM_CACTVS_ROTATABLE_BOND>
28
> <PUBCHEM_CACTVS_SUBSKEYS>
AAADcfB7vgBgAAAAAAAAAAAAAAAAAAAAAAAAAAAAAAAAAAAAAAAAHgQQSAAACCjFwASCCALAAg4IAAGQGHBAAAAAABAAAIGIAAAAQBoggCAUQAAGFgCAAAC/FwIAAAAAAAAAAAAAAAAAAAAAAAAAAAAAAA==
> <PUBCHEM_IUPAC_OPENEYE_NAME>
(4S)-5-[[(1S)-1-[[(1R)-2-(acetylsulfonylamino)-2-oxo-1-(sulfanylmethyl)ethyl]carbamoyl]-3-carboxy-propyl]amino]-4-[[(2S)-2-[[(2S)-2-[[(2S)-2-amino-3-carboxy-propanoyl]amino]-4-carboxy-butanoyl]amino]-4-methylsulfanyl-butanoyl]amino]-5-oxo-pentanoic acid
> <PUBCHEM_IUPAC_CAS_NAME>
(4S)-5-[[(2S)-1-[[(2R)-1-(acetylsulfonylamino)-3-mercapto-1-oxopropan-2-yl]amino]-4-carboxy-1-oxobutan-2-yl]amino]-4-[[(2S)-2-[[(2S)-2-[[(2S)-2-amino-3-carboxy-1-oxopropyl]amino]-4-carboxy-1-oxobutyl]amino]-4-(methylthio)-1-oxobutyl]amino]-5-oxopentanoic acid
> <PUBCHEM_IUPAC_NAME_MARKUP>
(4<I>S</I>)-5-[[(2<I>S</I>)-1-[[(2<I>R</I>)-1-(acetylsulfonylamino)-1-oxo-3-sulfanylpropan-2-yl]amino]-4-carboxy-1-oxobutan-2-yl]amino]-4-[[(2<I>S</I>)-2-[[(2<I>S</I>)-2-[[(2<I>S</I>)-2-amino-3-carboxypropanoyl]amino]-4-carboxybutanoyl]amino]-4-methylsulfanylbutanoyl]amino]-5-oxopentanoic acid
> <PUBCHEM_IUPAC_NAME>
(4S)-5-[[(2S)-1-[[(2R)-1-(acetylsulfonylamino)-1-oxo-3-sulfanylpropan-2-yl]amino]-4-carboxy-1-oxobutan-2-yl]amino]-4-[[(2S)-2-[[(2S)-2-[[(2S)-2-amino-3-carboxypropanoyl]amino]-4-carboxybutanoyl]amino]-4-methylsulfanylbutanoyl]amino]-5-oxopentanoic acid
> <PUBCHEM_IUPAC_SYSTEMATIC_NAME>
(4S)-4-[[(2S)-2-[[(2S)-2-[[(2S)-2-azanyl-4-oxidanyl-4-oxidanylidene-butanoyl]amino]-5-oxidanyl-5-oxidanylidene-pentanoyl]amino]-4-methylsulfanyl-butanoyl]amino]-5-[[(2S)-1-[[(2R)-1-(ethanoylsulfonylamino)-1-oxidanylidene-3-sulfanyl-propan-2-yl]amino]-5-oxidanyl-1,5-bis(oxidanylidene)pentan-2-yl]amino]-5-oxidanylidene-pentanoic acid
> <PUBCHEM_IUPAC_TRADITIONAL_NAME>
(4S)-5-[[(1S)-1-[[(1R)-2-(acetylsulfonylamino)-2-keto-1-(mercaptomethyl)ethyl]carbamoyl]-3-carboxy-propyl]amino]-4-[[(2S)-2-[[(2S)-2-[[(2S)-2-amino-3-carboxy-propanoyl]amino]-4-carboxy-butanoyl]amino]-4-(methylthio)butanoyl]amino]-5-keto-valeric acid
> <PUBCHEM_IUPAC_INCHI>
InChI=1S/C29H45N7O17S3/c1-13(37)56(52,53)36-29(51)19(12-54)35-27(49)17(5-8-22(42)43)32-26(48)16(4-7-21(40)41)33-28(50)18(9-10-55-2)34-25(47)15(3-6-20(38)39)31-24(46)14(30)11-23(44)45/h14-19,54H,3-12,30H2,1-2H3,(H,31,46)(H,32,48)(H,33,50)(H,34,47)(H,35,49)(H,36,51)(H,38,39)(H,40,41)(H,42,43)(H,44,45)/t14-,15-,16-,17-,18-,19-/m0/s1
> <PUBCHEM_IUPAC_INCHIKEY>
GGRGPCMOMHVLGU-DYKIIFRCSA-N
> <PUBCHEM_XLOGP3_AA>
-7
> <PUBCHEM_EXACT_MASS>
859.20340651
> <PUBCHEM_MOLECULAR_FORMULA>
C29H45N7O17S3
> <PUBCHEM_MOLECULAR_WEIGHT>
859.9
> <PUBCHEM_OPENEYE_CAN_SMILES>
CC(=O)S(=O)(=O)NC(=O)C(CS)NC(=O)C(CCC(=O)O)NC(=O)C(CCC(=O)O)NC(=O)C(CCSC)NC(=O)C(CCC(=O)O)NC(=O)C(CC(=O)O)N
> <PUBCHEM_OPENEYE_ISO_SMILES>
CC(=O)S(=O)(=O)NC(=O)[C@H](CS)NC(=O)[C@H](CCC(=O)O)NC(=O)[C@H](CCC(=O)O)NC(=O)[C@H](CCSC)NC(=O)[C@H](CCC(=O)O)NC(=O)[C@H](CC(=O)O)N
> <PUBCHEM_CACTVS_TPSA>
436
> <PUBCHEM_MONOISOTOPIC_WEIGHT>
859.20340651
> <PUBCHEM_TOTAL_CHARGE>
0
> <PUBCHEM_HEAVY_ATOM_COUNT>
56
> <PUBCHEM_ATOM_DEF_STEREO_COUNT>
6
> <PUBCHEM_ATOM_UDEF_STEREO_COUNT>
0
> <PUBCHEM_BOND_DEF_STEREO_COUNT>
0
> <PUBCHEM_BOND_UDEF_STEREO_COUNT>
0
> <PUBCHEM_ISOTOPIC_ATOM_COUNT>
0
> <PUBCHEM_COMPONENT_COUNT>
1
> <PUBCHEM_CACTVS_TAUTO_COUNT>
-1
> <PUBCHEM_COORDINATE_TYPE>
1
5
255
> <PUBCHEM_BONDANNOTATIONS>
28  21  6
29  22  5
31  23  5
33  24  6
44  25  6
46  26  6
$$$$
