512576
  -OEChem-10302200282D
 59 63  0     1  0  0  0  0  0999 V2000
    8.6826    0.4900    0.0000 S   0  0  0  0  0  0  0  0  0  0  0  0
    7.6451    2.1661    0.0000 O   0  0  0  0  0  0  0  0  0  0  0  0
    9.3245   -3.5122    0.0000 O   0  0  0  0  0  0  0  0  0  0  0  0
    2.9096   -1.4659    0.0000 O   0  0  0  0  0  0  0  0  0  0  0  0
    6.4530   -0.7995    0.0000 N   0  0  3  0  0  0  0  0  0  0  0  0
    6.1596    1.3889    0.0000 N   0  0  0  0  0  0  0  0  0  0  0  0
    5.4828    0.6790    0.0000 C   0  0  1  0  0  0  0  0  0  0  0  0
    5.6131   -0.2931    0.0000 C   0  0  0  0  0  0  0  0  0  0  0  0
    7.3736   -0.4611    0.0000 C   0  0  0  0  0  0  0  0  0  0  0  0
    4.5317    0.9880    0.0000 C   0  0  0  0  0  0  0  0  0  0  0  0
    6.3580   -1.7950    0.0000 C   0  0  0  0  0  0  0  0  0  0  0  0
    7.6826    0.4900    0.0000 C   0  0  0  0  0  0  0  0  0  0  0  0
    8.1826   -1.0488    0.0000 C   0  0  0  0  0  0  0  0  0  0  0  0
    7.1368    1.3049    0.0000 C   0  0  0  0  0  0  0  0  0  0  0  0
    8.9916   -0.4611    0.0000 C   0  0  0  0  0  0  0  0  0  0  0  0
    4.3238    1.9662    0.0000 C   0  0  0  0  0  0  0  0  0  0  0  0
    5.4484   -2.2104    0.0000 C   0  0  0  0  0  0  0  0  0  0  0  0
    8.2755   -2.0863    0.0000 C   0  0  0  0  0  0  0  0  0  0  0  0
    9.9496   -0.8700    0.0000 C   0  0  0  0  0  0  0  0  0  0  0  0
    5.0670    2.6353    0.0000 C   0  0  0  0  0  0  0  0  0  0  0  0
    3.3728    2.2752    0.0000 C   0  0  0  0  0  0  0  0  0  0  0  0
    9.2238   -2.5173    0.0000 C   0  0  0  0  0  0  0  0  0  0  0  0
    4.6338   -1.6304    0.0000 C   0  0  0  0  0  0  0  0  0  0  0  0
    5.3534   -3.2059    0.0000 C   0  0  0  0  0  0  0  0  0  0  0  0
   10.0665   -1.9051    0.0000 C   0  0  0  0  0  0  0  0  0  0  0  0
    3.7242   -2.0459    0.0000 C   0  0  0  0  0  0  0  0  0  0  0  0
    4.8590    3.6135    0.0000 C   0  0  0  0  0  0  0  0  0  0  0  0
    3.1648    3.2534    0.0000 C   0  0  0  0  0  0  0  0  0  0  0  0
    4.4438   -3.6214    0.0000 C   0  0  0  0  0  0  0  0  0  0  0  0
    3.9080    3.9225    0.0000 C   0  0  0  0  0  0  0  0  0  0  0  0
    3.6292   -3.0414    0.0000 C   0  0  0  0  0  0  0  0  0  0  0  0
   10.2365   -3.9225    0.0000 C   0  0  0  0  0  0  0  0  0  0  0  0
    2.0000   -1.8814    0.0000 C   0  0  0  0  0  0  0  0  0  0  0  0
    5.3309    1.2801    0.0000 H   0  0  0  0  0  0  0  0  0  0  0  0
    4.9957   -0.2361    0.0000 H   0  0  0  0  0  0  0  0  0  0  0  0
    5.4197   -0.8821    0.0000 H   0  0  0  0  0  0  0  0  0  0  0  0
    3.9121    0.9664    0.0000 H   0  0  0  0  0  0  0  0  0  0  0  0
    4.4454    0.3741    0.0000 H   0  0  0  0  0  0  0  0  0  0  0  0
    6.5138   -2.3951    0.0000 H   0  0  0  0  0  0  0  0  0  0  0  0
    6.9761   -1.7458    0.0000 H   0  0  0  0  0  0  0  0  0  0  0  0
    5.9402    1.9687    0.0000 H   0  0  0  0  0  0  0  0  0  0  0  0
    7.7697   -2.4449    0.0000 H   0  0  0  0  0  0  0  0  0  0  0  0
   10.4470   -0.4998    0.0000 H   0  0  0  0  0  0  0  0  0  0  0  0
    5.6566    2.4437    0.0000 H   0  0  0  0  0  0  0  0  0  0  0  0
    2.9120    1.8604    0.0000 H   0  0  0  0  0  0  0  0  0  0  0  0
    4.6927   -1.0132    0.0000 H   0  0  0  0  0  0  0  0  0  0  0  0
    5.8585   -3.5655    0.0000 H   0  0  0  0  0  0  0  0  0  0  0  0
   10.6339   -2.1551    0.0000 H   0  0  0  0  0  0  0  0  0  0  0  0
    5.3198    4.0283    0.0000 H   0  0  0  0  0  0  0  0  0  0  0  0
    2.5752    3.4450    0.0000 H   0  0  0  0  0  0  0  0  0  0  0  0
    4.3849   -4.2386    0.0000 H   0  0  0  0  0  0  0  0  0  0  0  0
    3.7791    4.5289    0.0000 H   0  0  0  0  0  0  0  0  0  0  0  0
    3.0653   -3.2990    0.0000 H   0  0  0  0  0  0  0  0  0  0  0  0
    9.9821   -4.4879    0.0000 H   0  0  0  0  0  0  0  0  0  0  0  0
   10.8019   -4.1768    0.0000 H   0  0  0  0  0  0  0  0  0  0  0  0
   10.4908   -3.3571    0.0000 H   0  0  0  0  0  0  0  0  0  0  0  0
    1.7424   -1.3174    0.0000 H   0  0  0  0  0  0  0  0  0  0  0  0
    1.4360   -2.1390    0.0000 H   0  0  0  0  0  0  0  0  0  0  0  0
    2.2576   -2.4453    0.0000 H   0  0  0  0  0  0  0  0  0  0  0  0
  1 12  1  0  0  0  0
  1 15  1  0  0  0  0
  2 14  2  0  0  0  0
  3 22  1  0  0  0  0
  3 32  1  0  0  0  0
  4 26  1  0  0  0  0
  4 33  1  0  0  0  0
  5  8  1  0  0  0  0
  5  9  1  0  0  0  0
  5 11  1  0  0  0  0
  6  7  1  0  0  0  0
  6 14  1  0  0  0  0
  6 41  1  0  0  0  0
  7  8  1  0  0  0  0
  7 10  1  1  0  0  0
  7 34  1  0  0  0  0
  8 35  1  0  0  0  0
  8 36  1  0  0  0  0
  9 12  2  0  0  0  0
  9 13  1  0  0  0  0
 10 16  1  0  0  0  0
 10 37  1  0  0  0  0
 10 38  1  0  0  0  0
 11 17  1  0  0  0  0
 11 39  1  0  0  0  0
 11 40  1  0  0  0  0
 12 14  1  0  0  0  0
 13 15  2  0  0  0  0
 13 18  1  0  0  0  0
 15 19  1  0  0  0  0
 16 20  2  0  0  0  0
 16 21  1  0  0  0  0
 17 23  2  0  0  0  0
 17 24  1  0  0  0  0
 18 22  2  0  0  0  0
 18 42  1  0  0  0  0
 19 25  2  0  0  0  0
 19 43  1  0  0  0  0
 20 27  1  0  0  0  0
 20 44  1  0  0  0  0
 21 28  2  0  0  0  0
 21 45  1  0  0  0  0
 22 25  1  0  0  0  0
 23 26  1  0  0  0  0
 23 46  1  0  0  0  0
 24 29  2  0  0  0  0
 24 47  1  0  0  0  0
 25 48  1  0  0  0  0
 26 31  2  0  0  0  0
 27 30  2  0  0  0  0
 27 49  1  0  0  0  0
 28 30  1  0  0  0  0
 28 50  1  0  0  0  0
 29 31  1  0  0  0  0
 29 51  1  0  0  0  0
 30 52  1  0  0  0  0
 31 53  1  0  0  0  0
 32 54  1  0  0  0  0
 32 55  1  0  0  0  0
 32 56  1  0  0  0  0
 33 57  1  0  0  0  0
 33 58  1  0  0  0  0
 33 59  1  0  0  0  0
M  END
> <PUBCHEM_COMPOUND_CID>
512576
> <PUBCHEM_COMPOUND_CANONICALIZED>
1
> <PUBCHEM_CACTVS_COMPLEXITY>
657
> <PUBCHEM_CACTVS_HBOND_ACCEPTOR>
5
> <PUBCHEM_CACTVS_HBOND_DONOR>
1
> <PUBCHEM_CACTVS_ROTATABLE_BOND>
6
> <PUBCHEM_CACTVS_SUBSKEYS>
AAADceB7MABAAAAAAAAAAAAAAAAAASAAAAAwYMAABYAAAEix9AAAHgQQAAAADCzB2AYyx8PABAiMAiVSUACDCIAlKBBIiJ0OTMgMZjrk9ZuUMaxk1hHo6Ue4yLCOAIABAAAEAAABAAIAAAgAAAAAAAAAAA==
> <PUBCHEM_IUPAC_OPENEYE_NAME>
(3R)-3-benzyl-9-methoxy-1-[(3-methoxyphenyl)methyl]-3,4-dihydro-2H-benzothiopheno[3,2-e][1,4]diazepin-5-one
> <PUBCHEM_IUPAC_CAS_NAME>
(3R)-9-methoxy-1-[(3-methoxyphenyl)methyl]-3-(phenylmethyl)-3,4-dihydro-2H-[1]benzothiolo[3,2-e][1,4]diazepin-5-one
> <PUBCHEM_IUPAC_NAME_MARKUP>
(3<I>R</I>)-3-benzyl-9-methoxy-1-[(3-methoxyphenyl)methyl]-3,4-dihydro-2<I>H</I>-[1]benzothiolo[3,2-e][1,4]diazepin-5-one
> <PUBCHEM_IUPAC_NAME>
(3R)-3-benzyl-9-methoxy-1-[(3-methoxyphenyl)methyl]-3,4-dihydro-2H-[1]benzothiolo[3,2-e][1,4]diazepin-5-one
> <PUBCHEM_IUPAC_SYSTEMATIC_NAME>
(3R)-9-methoxy-1-[(3-methoxyphenyl)methyl]-3-(phenylmethyl)-3,4-dihydro-2H-[1]benzothiolo[3,2-e][1,4]diazepin-5-one
> <PUBCHEM_IUPAC_TRADITIONAL_NAME>
(3R)-3-benzyl-1-m-anisyl-9-methoxy-3,4-dihydro-2H-benzothiopheno[3,2-e][1,4]diazepin-5-one
> <PUBCHEM_IUPAC_INCHI>
InChI=1S/C27H26N2O3S/c1-31-21-10-6-9-19(14-21)16-29-17-20(13-18-7-4-3-5-8-18)28-27(30)26-25(29)23-15-22(32-2)11-12-24(23)33-26/h3-12,14-15,20H,13,16-17H2,1-2H3,(H,28,30)/t20-/m1/s1
> <PUBCHEM_IUPAC_INCHIKEY>
DANVVHYAJIQENC-HXUWFJFHSA-N
> <PUBCHEM_XLOGP3_AA>
5.9
> <PUBCHEM_EXACT_MASS>
458.16641387
> <PUBCHEM_MOLECULAR_FORMULA>
C27H26N2O3S
> <PUBCHEM_MOLECULAR_WEIGHT>
458.6
> <PUBCHEM_OPENEYE_CAN_SMILES>
COC1=CC2=C(C=C1)SC3=C2N(CC(NC3=O)CC4=CC=CC=C4)CC5=CC(=CC=C5)OC
> <PUBCHEM_OPENEYE_ISO_SMILES>
COC1=CC2=C(C=C1)SC3=C2N(C[C@H](NC3=O)CC4=CC=CC=C4)CC5=CC(=CC=C5)OC
> <PUBCHEM_CACTVS_TPSA>
79
> <PUBCHEM_MONOISOTOPIC_WEIGHT>
458.16641387
> <PUBCHEM_TOTAL_CHARGE>
0
> <PUBCHEM_HEAVY_ATOM_COUNT>
33
> <PUBCHEM_ATOM_DEF_STEREO_COUNT>
1
> <PUBCHEM_ATOM_UDEF_STEREO_COUNT>
0
> <PUBCHEM_BOND_DEF_STEREO_COUNT>
0
> <PUBCHEM_BOND_UDEF_STEREO_COUNT>
0
> <PUBCHEM_ISOTOPIC_ATOM_COUNT>
0
> <PUBCHEM_COMPONENT_COUNT>
1
> <PUBCHEM_CACTVS_TAUTO_COUNT>
-1
> <PUBCHEM_COORDINATE_TYPE>
1
5
255
> <PUBCHEM_BONDANNOTATIONS>
1  12  8
1  15  8
13  15  8
13  18  8
15  19  8
16  20  8
16  21  8
17  23  8
17  24  8
18  22  8
19  25  8
20  27  8
21  28  8
22  25  8
23  26  8
24  29  8
26  31  8
27  30  8
28  30  8
29  31  8
7  10  5
9  12  8
9  13  8
$$$$
