512524
  -OEChem-10302200282D
107107  0     1  0  0  0  0  0999 V2000
   10.6603   -6.1550    0.0000 S   0  0  0  0  0  0  0  0  0  0  0  0
    8.0622   -5.6550    0.0000 O   0  0  0  0  0  0  0  0  0  0  0  0
    5.4641   -3.1550    0.0000 O   0  0  0  0  0  0  0  0  0  0  0  0
    6.3301    0.3450    0.0000 O   0  0  0  0  0  0  0  0  0  0  0  0
   11.5263   -4.6550    0.0000 O   0  0  0  0  0  0  0  0  0  0  0  0
   10.6603   -3.1550    0.0000 O   0  0  0  0  0  0  0  0  0  0  0  0
    6.3301    1.3450    0.0000 O   0  0  0  0  0  0  0  0  0  0  0  0
    5.4641    4.8450    0.0000 O   0  0  0  0  0  0  0  0  0  0  0  0
    3.7320    5.8450    0.0000 O   0  0  0  0  0  0  0  0  0  0  0  0
    2.8660    4.3450    0.0000 O   0  0  0  0  0  0  0  0  0  0  0  0
    8.0622    7.3450    0.0000 O   0  0  0  0  0  0  0  0  0  0  0  0
    8.9282    5.8450    0.0000 O   0  0  0  0  0  0  0  0  0  0  0  0
    7.1962   -3.1550    0.0000 N   0  0  0  0  0  0  0  0  0  0  0  0
    8.9282   -4.1550    0.0000 N   0  0  0  0  0  0  0  0  0  0  0  0
    5.4641   -1.1550    0.0000 N   0  0  0  0  0  0  0  0  0  0  0  0
    4.5981    1.3450    0.0000 N   0  0  0  0  0  0  0  0  0  0  0  0
    6.3301    3.3450    0.0000 N   0  0  0  0  0  0  0  0  0  0  0  0
    8.0622    4.3450    0.0000 N   0  0  0  0  0  0  0  0  0  0  0  0
    6.3301   -5.6550    0.0000 C   0  0  0  0  0  0  0  0  0  0  0  0
    5.4641   -6.1550    0.0000 C   0  0  0  0  0  0  0  0  0  0  0  0
    7.1962   -6.1550    0.0000 C   0  0  0  0  0  0  0  0  0  0  0  0
    6.3301   -4.6550    0.0000 C   0  0  0  0  0  0  0  0  0  0  0  0
    5.4641   -7.1550    0.0000 C   0  0  0  0  0  0  0  0  0  0  0  0
    7.1962   -7.1550    0.0000 C   0  0  0  0  0  0  0  0  0  0  0  0
    6.3301   -7.6550    0.0000 C   0  0  0  0  0  0  0  0  0  0  0  0
    7.1962   -4.1550    0.0000 C   0  0  1  0  0  0  0  0  0  0  0  0
    8.0622   -4.6550    0.0000 C   0  0  0  0  0  0  0  0  0  0  0  0
    6.3301   -1.6550    0.0000 C   0  0  2  0  0  0  0  0  0  0  0  0
    6.3301   -2.6550    0.0000 C   0  0  0  0  0  0  0  0  0  0  0  0
    7.1962   -1.1550    0.0000 C   0  0  2  0  0  0  0  0  0  0  0  0
    7.1962   -0.1550    0.0000 C   0  0  0  0  0  0  0  0  0  0  0  0
    8.0622   -1.6550    0.0000 C   0  0  0  0  0  0  0  0  0  0  0  0
    4.5981    0.3450    0.0000 C   0  0  2  0  0  0  0  0  0  0  0  0
    9.7942   -4.6550    0.0000 C   0  0  1  0  0  0  0  0  0  0  0  0
    5.4641   -0.1550    0.0000 C   0  0  0  0  0  0  0  0  0  0  0  0
    3.7320   -0.1550    0.0000 C   0  0  0  0  0  0  0  0  0  0  0  0
    2.8660    0.3450    0.0000 C   0  0  0  0  0  0  0  0  0  0  0  0
    8.0622    0.3450    0.0000 C   0  0  0  0  0  0  0  0  0  0  0  0
    9.7942   -5.6550    0.0000 C   0  0  0  0  0  0  0  0  0  0  0  0
   10.6603   -4.1550    0.0000 C   0  0  0  0  0  0  0  0  0  0  0  0
    2.0000   -0.1550    0.0000 C   0  0  0  0  0  0  0  0  0  0  0  0
    2.8660    1.3450    0.0000 C   0  0  0  0  0  0  0  0  0  0  0  0
    5.4641    1.8450    0.0000 C   0  0  0  0  0  0  0  0  0  0  0  0
    5.4641    2.8450    0.0000 C   0  0  2  0  0  0  0  0  0  0  0  0
    4.5981    3.3450    0.0000 C   0  0  0  0  0  0  0  0  0  0  0  0
    4.5981    4.3450    0.0000 C   0  0  0  0  0  0  0  0  0  0  0  0
    6.3301    4.3450    0.0000 C   0  0  0  0  0  0  0  0  0  0  0  0
    7.1962    4.8450    0.0000 C   0  0  2  0  0  0  0  0  0  0  0  0
    3.7320    4.8450    0.0000 C   0  0  0  0  0  0  0  0  0  0  0  0
    7.1962    5.8450    0.0000 C   0  0  0  0  0  0  0  0  0  0  0  0
    8.0622    6.3450    0.0000 C   0  0  0  0  0  0  0  0  0  0  0  0
    6.8671   -5.3450    0.0000 H   0  0  0  0  0  0  0  0  0  0  0  0
    5.2520   -5.5724    0.0000 H   0  0  0  0  0  0  0  0  0  0  0  0
    4.8535   -6.2627    0.0000 H   0  0  0  0  0  0  0  0  0  0  0  0
    7.8067   -6.2627    0.0000 H   0  0  0  0  0  0  0  0  0  0  0  0
    7.4082   -5.5724    0.0000 H   0  0  0  0  0  0  0  0  0  0  0  0
    6.1181   -4.0724    0.0000 H   0  0  0  0  0  0  0  0  0  0  0  0
    5.7196   -4.7627    0.0000 H   0  0  0  0  0  0  0  0  0  0  0  0
    4.8535   -7.0473    0.0000 H   0  0  0  0  0  0  0  0  0  0  0  0
    5.2520   -7.7376    0.0000 H   0  0  0  0  0  0  0  0  0  0  0  0
    7.4082   -7.7376    0.0000 H   0  0  0  0  0  0  0  0  0  0  0  0
    7.8067   -7.0473    0.0000 H   0  0  0  0  0  0  0  0  0  0  0  0
    5.9316   -8.1299    0.0000 H   0  0  0  0  0  0  0  0  0  0  0  0
    6.7287   -8.1299    0.0000 H   0  0  0  0  0  0  0  0  0  0  0  0
    6.6592   -3.8450    0.0000 H   0  0  0  0  0  0  0  0  0  0  0  0
    7.7331   -2.8450    0.0000 H   0  0  0  0  0  0  0  0  0  0  0  0
    5.7932   -1.9650    0.0000 H   0  0  0  0  0  0  0  0  0  0  0  0
    7.7331   -0.8450    0.0000 H   0  0  0  0  0  0  0  0  0  0  0  0
    8.9282   -3.5350    0.0000 H   0  0  0  0  0  0  0  0  0  0  0  0
    6.9841    0.4276    0.0000 H   0  0  0  0  0  0  0  0  0  0  0  0
    6.5856   -0.2627    0.0000 H   0  0  0  0  0  0  0  0  0  0  0  0
    4.9272   -1.4650    0.0000 H   0  0  0  0  0  0  0  0  0  0  0  0
    7.7522   -2.1919    0.0000 H   0  0  0  0  0  0  0  0  0  0  0  0
    8.5991   -1.9650    0.0000 H   0  0  0  0  0  0  0  0  0  0  0  0
    8.3722   -1.1181    0.0000 H   0  0  0  0  0  0  0  0  0  0  0  0
    5.1350    0.6550    0.0000 H   0  0  0  0  0  0  0  0  0  0  0  0
    9.2573   -4.9650    0.0000 H   0  0  0  0  0  0  0  0  0  0  0  0
    3.3335   -0.6299    0.0000 H   0  0  0  0  0  0  0  0  0  0  0  0
    4.1306   -0.6299    0.0000 H   0  0  0  0  0  0  0  0  0  0  0  0
    2.8660   -0.2750    0.0000 H   0  0  0  0  0  0  0  0  0  0  0  0
    8.3722   -0.1919    0.0000 H   0  0  0  0  0  0  0  0  0  0  0  0
    8.5991    0.6550    0.0000 H   0  0  0  0  0  0  0  0  0  0  0  0
    7.7522    0.8819    0.0000 H   0  0  0  0  0  0  0  0  0  0  0  0
    4.0611    1.6550    0.0000 H   0  0  0  0  0  0  0  0  0  0  0  0
    9.1836   -5.5473    0.0000 H   0  0  0  0  0  0  0  0  0  0  0  0
    9.5822   -6.2376    0.0000 H   0  0  0  0  0  0  0  0  0  0  0  0
    1.6900    0.3819    0.0000 H   0  0  0  0  0  0  0  0  0  0  0  0
    1.4631   -0.4650    0.0000 H   0  0  0  0  0  0  0  0  0  0  0  0
    2.3100   -0.6919    0.0000 H   0  0  0  0  0  0  0  0  0  0  0  0
    3.4860    1.3450    0.0000 H   0  0  0  0  0  0  0  0  0  0  0  0
    2.8660    1.9650    0.0000 H   0  0  0  0  0  0  0  0  0  0  0  0
    2.2460    1.3450    0.0000 H   0  0  0  0  0  0  0  0  0  0  0  0
    5.4641    3.4650    0.0000 H   0  0  0  0  0  0  0  0  0  0  0  0
    3.9875    3.4527    0.0000 H   0  0  0  0  0  0  0  0  0  0  0  0
    4.3860    2.7624    0.0000 H   0  0  0  0  0  0  0  0  0  0  0  0
    6.8671    3.0350    0.0000 H   0  0  0  0  0  0  0  0  0  0  0  0
   10.6603   -6.7750    0.0000 H   0  0  0  0  0  0  0  0  0  0  0  0
    5.2087    4.2373    0.0000 H   0  0  0  0  0  0  0  0  0  0  0  0
    4.8101    4.9276    0.0000 H   0  0  0  0  0  0  0  0  0  0  0  0
   12.0632   -4.3450    0.0000 H   0  0  0  0  0  0  0  0  0  0  0  0
    7.7331    5.1550    0.0000 H   0  0  0  0  0  0  0  0  0  0  0  0
    6.9841    6.4276    0.0000 H   0  0  0  0  0  0  0  0  0  0  0  0
    6.5856    5.7373    0.0000 H   0  0  0  0  0  0  0  0  0  0  0  0
    8.5991    4.6550    0.0000 H   0  0  0  0  0  0  0  0  0  0  0  0
    8.0622    3.7250    0.0000 H   0  0  0  0  0  0  0  0  0  0  0  0
    3.1951    6.1550    0.0000 H   0  0  0  0  0  0  0  0  0  0  0  0
    8.5991    7.6550    0.0000 H   0  0  0  0  0  0  0  0  0  0  0  0
  1 39  1  0  0  0  0
  1 97  1  0  0  0  0
  2 27  2  0  0  0  0
  3 29  2  0  0  0  0
  4 35  2  0  0  0  0
  5 40  1  0  0  0  0
  5100  1  0  0  0  0
  6 40  2  0  0  0  0
  7 43  2  0  0  0  0
  8 47  2  0  0  0  0
  9 49  1  0  0  0  0
  9106  1  0  0  0  0
 10 49  2  0  0  0  0
 11 51  1  0  0  0  0
 11107  1  0  0  0  0
 12 51  2  0  0  0  0
 26 13  1  6  0  0  0
 13 29  1  0  0  0  0
 13 66  1  0  0  0  0
 14 27  1  0  0  0  0
 34 14  1  6  0  0  0
 14 69  1  0  0  0  0
 28 15  1  1  0  0  0
 15 35  1  0  0  0  0
 15 72  1  0  0  0  0
 33 16  1  6  0  0  0
 16 43  1  0  0  0  0
 16 84  1  0  0  0  0
 44 17  1  6  0  0  0
 17 47  1  0  0  0  0
 17 96  1  0  0  0  0
 48 18  1  6  0  0  0
 18104  1  0  0  0  0
 18105  1  0  0  0  0
 19 20  1  0  0  0  0
 19 21  1  0  0  0  0
 19 22  1  0  0  0  0
 19 52  1  0  0  0  0
 20 23  1  0  0  0  0
 20 53  1  0  0  0  0
 20 54  1  0  0  0  0
 21 24  1  0  0  0  0
 21 55  1  0  0  0  0
 21 56  1  0  0  0  0
 22 26  1  0  0  0  0
 22 57  1  0  0  0  0
 22 58  1  0  0  0  0
 23 25  1  0  0  0  0
 23 59  1  0  0  0  0
 23 60  1  0  0  0  0
 24 25  1  0  0  0  0
 24 61  1  0  0  0  0
 24 62  1  0  0  0  0
 25 63  1  0  0  0  0
 25 64  1  0  0  0  0
 26 27  1  0  0  0  0
 26 65  1  0  0  0  0
 28 29  1  0  0  0  0
 28 30  1  0  0  0  0
 28 67  1  0  0  0  0
 30 31  1  0  0  0  0
 30 32  1  6  0  0  0
 30 68  1  0  0  0  0
 31 38  1  0  0  0  0
 31 70  1  0  0  0  0
 31 71  1  0  0  0  0
 32 73  1  0  0  0  0
 32 74  1  0  0  0  0
 32 75  1  0  0  0  0
 33 35  1  0  0  0  0
 33 36  1  0  0  0  0
 33 76  1  0  0  0  0
 34 39  1  0  0  0  0
 34 40  1  0  0  0  0
 34 77  1  0  0  0  0
 36 37  1  0  0  0  0
 36 78  1  0  0  0  0
 36 79  1  0  0  0  0
 37 41  1  0  0  0  0
 37 42  1  0  0  0  0
 37 80  1  0  0  0  0
 38 81  1  0  0  0  0
 38 82  1  0  0  0  0
 38 83  1  0  0  0  0
 39 85  1  0  0  0  0
 39 86  1  0  0  0  0
 41 87  1  0  0  0  0
 41 88  1  0  0  0  0
 41 89  1  0  0  0  0
 42 90  1  0  0  0  0
 42 91  1  0  0  0  0
 42 92  1  0  0  0  0
 43 44  1  0  0  0  0
 44 45  1  0  0  0  0
 44 93  1  0  0  0  0
 45 46  1  0  0  0  0
 45 94  1  0  0  0  0
 45 95  1  0  0  0  0
 46 49  1  0  0  0  0
 46 98  1  0  0  0  0
 46 99  1  0  0  0  0
 47 48  1  0  0  0  0
 48 50  1  0  0  0  0
 48101  1  0  0  0  0
 50 51  1  0  0  0  0
 50102  1  0  0  0  0
 50103  1  0  0  0  0
M  END
> <PUBCHEM_COMPOUND_CID>
512524
> <PUBCHEM_COMPOUND_CANONICALIZED>
1
> <PUBCHEM_CACTVS_COMPLEXITY>
1230
> <PUBCHEM_CACTVS_HBOND_ACCEPTOR>
13
> <PUBCHEM_CACTVS_HBOND_DONOR>
10
> <PUBCHEM_CACTVS_ROTATABLE_BOND>
23
> <PUBCHEM_CACTVS_SUBSKEYS>
AAADcfB/vABAAAAAAAAAAAAAAAAAAAAAAAAwAAAAAAAAAAAAAAAAHgQQCAAADSjFwASCCALAAgQIAAGQGAAAAAAAAAAAAIGIAAACQBoAgCAUQAAGFgCQAAG/n4KOAAAAAAAAAAAAAAAAAAAAAAAAAAAAAA==
> <PUBCHEM_IUPAC_OPENEYE_NAME>
(4S)-4-[[(2S)-2-amino-3-carboxy-propanoyl]amino]-5-[[(1S)-1-[[(1S,2S)-1-[[(1S)-2-[[(1R)-1-carboxy-2-sulfanyl-ethyl]amino]-1-(cyclohexylmethyl)-2-oxo-ethyl]carbamoyl]-2-methyl-butyl]carbamoyl]-3-methyl-butyl]amino]-5-oxo-pentanoic acid
> <PUBCHEM_IUPAC_CAS_NAME>
(4S)-4-[[(2S)-2-amino-3-carboxy-1-oxopropyl]amino]-5-[[(2S)-1-[[(2S,3S)-1-[[(2S)-1-[[(1R)-1-carboxy-2-mercaptoethyl]amino]-3-cyclohexyl-1-oxopropan-2-yl]amino]-3-methyl-1-oxopentan-2-yl]amino]-4-methyl-1-oxopentan-2-yl]amino]-5-oxopentanoic acid
> <PUBCHEM_IUPAC_NAME_MARKUP>
(4<I>S</I>)-4-[[(2<I>S</I>)-2-amino-3-carboxypropanoyl]amino]-5-[[(2<I>S</I>)-1-[[(2<I>S</I>,3<I>S</I>)-1-[[(2<I>S</I>)-1-[[(1<I>R</I>)-1-carboxy-2-sulfanylethyl]amino]-3-cyclohexyl-1-oxopropan-2-yl]amino]-3-methyl-1-oxopentan-2-yl]amino]-4-methyl-1-oxopentan-2-yl]amino]-5-oxopentanoic acid
> <PUBCHEM_IUPAC_NAME>
(4S)-4-[[(2S)-2-amino-3-carboxypropanoyl]amino]-5-[[(2S)-1-[[(2S,3S)-1-[[(2S)-1-[[(1R)-1-carboxy-2-sulfanylethyl]amino]-3-cyclohexyl-1-oxopropan-2-yl]amino]-3-methyl-1-oxopentan-2-yl]amino]-4-methyl-1-oxopentan-2-yl]amino]-5-oxopentanoic acid
> <PUBCHEM_IUPAC_SYSTEMATIC_NAME>
(4S)-4-[[(2S)-2-azanyl-4-oxidanyl-4-oxidanylidene-butanoyl]amino]-5-[[(2S)-1-[[(2S,3S)-1-[[(2S)-3-cyclohexyl-1-oxidanylidene-1-[[(2R)-1-oxidanyl-1-oxidanylidene-3-sulfanyl-propan-2-yl]amino]propan-2-yl]amino]-3-methyl-1-oxidanylidene-pentan-2-yl]amino]-4-methyl-1-oxidanylidene-pentan-2-yl]amino]-5-oxidanylidene-pentanoic acid
> <PUBCHEM_IUPAC_TRADITIONAL_NAME>
(4S)-4-[[(2S)-2-amino-3-carboxy-propanoyl]amino]-5-[[(1S)-1-[[(1S,2S)-1-[[(1S)-2-[[(1R)-1-carboxy-2-mercapto-ethyl]amino]-1-(cyclohexylmethyl)-2-keto-ethyl]carbamoyl]-2-methyl-butyl]carbamoyl]-3-methyl-butyl]amino]-5-keto-valeric acid
> <PUBCHEM_IUPAC_INCHI>
InChI=1S/C33H56N6O11S/c1-5-18(4)27(32(48)37-23(14-19-9-7-6-8-10-19)30(46)38-24(16-51)33(49)50)39-31(47)22(13-17(2)3)36-29(45)21(11-12-25(40)41)35-28(44)20(34)15-26(42)43/h17-24,27,51H,5-16,34H2,1-4H3,(H,35,44)(H,36,45)(H,37,48)(H,38,46)(H,39,47)(H,40,41)(H,42,43)(H,49,50)/t18-,20-,21-,22-,23-,24-,27-/m0/s1
> <PUBCHEM_IUPAC_INCHIKEY>
AIGSHSQMNWNTAN-OMSFKYJOSA-N
> <PUBCHEM_XLOGP3_AA>
-0.4
> <PUBCHEM_EXACT_MASS>
744.37277780
> <PUBCHEM_MOLECULAR_FORMULA>
C33H56N6O11S
> <PUBCHEM_MOLECULAR_WEIGHT>
744.9
> <PUBCHEM_OPENEYE_CAN_SMILES>
CCC(C)C(C(=O)NC(CC1CCCCC1)C(=O)NC(CS)C(=O)O)NC(=O)C(CC(C)C)NC(=O)C(CCC(=O)O)NC(=O)C(CC(=O)O)N
> <PUBCHEM_OPENEYE_ISO_SMILES>
CC[C@H](C)[C@@H](C(=O)N[C@@H](CC1CCCCC1)C(=O)N[C@@H](CS)C(=O)O)NC(=O)[C@H](CC(C)C)NC(=O)[C@H](CCC(=O)O)NC(=O)[C@H](CC(=O)O)N
> <PUBCHEM_CACTVS_TPSA>
284
> <PUBCHEM_MONOISOTOPIC_WEIGHT>
744.37277780
> <PUBCHEM_TOTAL_CHARGE>
0
> <PUBCHEM_HEAVY_ATOM_COUNT>
51
> <PUBCHEM_ATOM_DEF_STEREO_COUNT>
7
> <PUBCHEM_ATOM_UDEF_STEREO_COUNT>
0
> <PUBCHEM_BOND_DEF_STEREO_COUNT>
0
> <PUBCHEM_BOND_UDEF_STEREO_COUNT>
0
> <PUBCHEM_ISOTOPIC_ATOM_COUNT>
0
> <PUBCHEM_COMPONENT_COUNT>
1
> <PUBCHEM_CACTVS_TAUTO_COUNT>
-1
> <PUBCHEM_COORDINATE_TYPE>
1
5
255
> <PUBCHEM_BONDANNOTATIONS>
26  13  6
34  14  6
28  15  5
33  16  6
44  17  6
48  18  6
30  32  6
$$$$
