512515
  -OEChem-10302200282D
102103  0     1  0  0  0  0  0999 V2000
   11.3769   -6.1550    0.0000 S   0  0  0  0  0  0  0  0  0  0  0  0
    2.6691   -0.0617    0.0000 S   0  0  0  0  0  0  0  0  0  0  0  0
    8.7788   -5.6550    0.0000 O   0  0  0  0  0  0  0  0  0  0  0  0
    6.1808   -3.1550    0.0000 O   0  0  0  0  0  0  0  0  0  0  0  0
    7.0468    0.3450    0.0000 O   0  0  0  0  0  0  0  0  0  0  0  0
   12.2429   -4.6550    0.0000 O   0  0  0  0  0  0  0  0  0  0  0  0
   11.3769   -3.1550    0.0000 O   0  0  0  0  0  0  0  0  0  0  0  0
    8.7788    1.3450    0.0000 O   0  0  0  0  0  0  0  0  0  0  0  0
    9.6448   -0.1550    0.0000 O   0  0  0  0  0  0  0  0  0  0  0  0
    7.0468    1.3450    0.0000 O   0  0  0  0  0  0  0  0  0  0  0  0
    6.1808    4.8450    0.0000 O   0  0  0  0  0  0  0  0  0  0  0  0
    4.4487    5.8450    0.0000 O   0  0  0  0  0  0  0  0  0  0  0  0
    3.5827    4.3450    0.0000 O   0  0  0  0  0  0  0  0  0  0  0  0
    8.7788    7.3450    0.0000 O   0  0  0  0  0  0  0  0  0  0  0  0
    9.6448    5.8450    0.0000 O   0  0  0  0  0  0  0  0  0  0  0  0
    7.9128   -3.1550    0.0000 N   0  0  0  0  0  0  0  0  0  0  0  0
    9.6448   -4.1550    0.0000 N   0  0  0  0  0  0  0  0  0  0  0  0
    6.1808   -1.1550    0.0000 N   0  0  0  0  0  0  0  0  0  0  0  0
    5.3147    1.3450    0.0000 N   0  0  0  0  0  0  0  0  0  0  0  0
    7.0468    3.3450    0.0000 N   0  0  0  0  0  0  0  0  0  0  0  0
    8.7788    4.3450    0.0000 N   0  0  0  0  0  0  0  0  0  0  0  0
    7.0468   -5.6550    0.0000 C   0  0  0  0  0  0  0  0  0  0  0  0
    6.1808   -6.1550    0.0000 C   0  0  0  0  0  0  0  0  0  0  0  0
    7.9128   -6.1550    0.0000 C   0  0  0  0  0  0  0  0  0  0  0  0
    7.0468   -4.6550    0.0000 C   0  0  0  0  0  0  0  0  0  0  0  0
    6.1808   -7.1550    0.0000 C   0  0  0  0  0  0  0  0  0  0  0  0
    7.9128   -7.1550    0.0000 C   0  0  0  0  0  0  0  0  0  0  0  0
    7.0468   -7.6550    0.0000 C   0  0  0  0  0  0  0  0  0  0  0  0
    7.9128   -4.1550    0.0000 C   0  0  1  0  0  0  0  0  0  0  0  0
    8.7788   -4.6550    0.0000 C   0  0  0  0  0  0  0  0  0  0  0  0
    7.0468   -2.6550    0.0000 C   0  0  0  0  0  0  0  0  0  0  0  0
    7.0468   -1.6550    0.0000 C   0  0  2  0  0  0  0  0  0  0  0  0
   10.5109   -4.6550    0.0000 C   0  0  1  0  0  0  0  0  0  0  0  0
    7.9128   -1.1550    0.0000 C   0  0  0  0  0  0  0  0  0  0  0  0
    7.9128   -0.1550    0.0000 C   0  0  0  0  0  0  0  0  0  0  0  0
   10.5109   -5.6550    0.0000 C   0  0  0  0  0  0  0  0  0  0  0  0
    6.1808   -0.1550    0.0000 C   0  0  0  0  0  0  0  0  0  0  0  0
    5.3147    0.3450    0.0000 C   0  0  2  0  0  0  0  0  0  0  0  0
   11.3769   -4.1550    0.0000 C   0  0  0  0  0  0  0  0  0  0  0  0
    4.4487   -0.1550    0.0000 C   0  0  0  0  0  0  0  0  0  0  0  0
    8.7788    0.3450    0.0000 C   0  0  0  0  0  0  0  0  0  0  0  0
    6.1808    2.8450    0.0000 C   0  0  2  0  0  0  0  0  0  0  0  0
    6.1808    1.8450    0.0000 C   0  0  0  0  0  0  0  0  0  0  0  0
    3.5827    0.3450    0.0000 C   0  0  0  0  0  0  0  0  0  0  0  0
    5.3147    3.3450    0.0000 C   0  0  0  0  0  0  0  0  0  0  0  0
    5.3147    4.3450    0.0000 C   0  0  0  0  0  0  0  0  0  0  0  0
    3.4782    1.3395    0.0000 C   0  0  0  0  0  0  0  0  0  0  0  0
    7.0468    4.3450    0.0000 C   0  0  0  0  0  0  0  0  0  0  0  0
    7.9128    4.8450    0.0000 C   0  0  2  0  0  0  0  0  0  0  0  0
    2.5000    1.5474    0.0000 C   0  0  0  0  0  0  0  0  0  0  0  0
    2.0000    0.6814    0.0000 C   0  0  0  0  0  0  0  0  0  0  0  0
    4.4487    4.8450    0.0000 C   0  0  0  0  0  0  0  0  0  0  0  0
    7.9128    5.8450    0.0000 C   0  0  0  0  0  0  0  0  0  0  0  0
    8.7788    6.3450    0.0000 C   0  0  0  0  0  0  0  0  0  0  0  0
    7.5837   -5.3450    0.0000 H   0  0  0  0  0  0  0  0  0  0  0  0
    5.9687   -5.5724    0.0000 H   0  0  0  0  0  0  0  0  0  0  0  0
    5.5702   -6.2627    0.0000 H   0  0  0  0  0  0  0  0  0  0  0  0
    8.5234   -6.2627    0.0000 H   0  0  0  0  0  0  0  0  0  0  0  0
    8.1249   -5.5724    0.0000 H   0  0  0  0  0  0  0  0  0  0  0  0
    6.8347   -4.0724    0.0000 H   0  0  0  0  0  0  0  0  0  0  0  0
    6.4362   -4.7627    0.0000 H   0  0  0  0  0  0  0  0  0  0  0  0
    5.5702   -7.0473    0.0000 H   0  0  0  0  0  0  0  0  0  0  0  0
    5.9687   -7.7376    0.0000 H   0  0  0  0  0  0  0  0  0  0  0  0
    8.1249   -7.7376    0.0000 H   0  0  0  0  0  0  0  0  0  0  0  0
    8.5234   -7.0473    0.0000 H   0  0  0  0  0  0  0  0  0  0  0  0
    6.6482   -8.1299    0.0000 H   0  0  0  0  0  0  0  0  0  0  0  0
    7.4453   -8.1299    0.0000 H   0  0  0  0  0  0  0  0  0  0  0  0
    8.4497   -3.8450    0.0000 H   0  0  0  0  0  0  0  0  0  0  0  0
    8.4497   -2.8450    0.0000 H   0  0  0  0  0  0  0  0  0  0  0  0
    7.0468   -1.0350    0.0000 H   0  0  0  0  0  0  0  0  0  0  0  0
    9.6448   -3.5350    0.0000 H   0  0  0  0  0  0  0  0  0  0  0  0
   10.5109   -4.0350    0.0000 H   0  0  0  0  0  0  0  0  0  0  0  0
    8.1249   -1.7376    0.0000 H   0  0  0  0  0  0  0  0  0  0  0  0
    8.5234   -1.0473    0.0000 H   0  0  0  0  0  0  0  0  0  0  0  0
    5.6438   -1.4650    0.0000 H   0  0  0  0  0  0  0  0  0  0  0  0
    7.7008    0.4276    0.0000 H   0  0  0  0  0  0  0  0  0  0  0  0
    7.3022   -0.2627    0.0000 H   0  0  0  0  0  0  0  0  0  0  0  0
    9.9003   -5.5473    0.0000 H   0  0  0  0  0  0  0  0  0  0  0  0
   10.2988   -6.2376    0.0000 H   0  0  0  0  0  0  0  0  0  0  0  0
    5.8517    0.6550    0.0000 H   0  0  0  0  0  0  0  0  0  0  0  0
    4.0502   -0.6299    0.0000 H   0  0  0  0  0  0  0  0  0  0  0  0
    4.8472   -0.6299    0.0000 H   0  0  0  0  0  0  0  0  0  0  0  0
    4.7778    1.6550    0.0000 H   0  0  0  0  0  0  0  0  0  0  0  0
    6.1808    3.4650    0.0000 H   0  0  0  0  0  0  0  0  0  0  0  0
    4.7042    3.4527    0.0000 H   0  0  0  0  0  0  0  0  0  0  0  0
    5.1027    2.7624    0.0000 H   0  0  0  0  0  0  0  0  0  0  0  0
   11.3769   -6.7750    0.0000 H   0  0  0  0  0  0  0  0  0  0  0  0
   12.7799   -4.3450    0.0000 H   0  0  0  0  0  0  0  0  0  0  0  0
    7.5837    3.0350    0.0000 H   0  0  0  0  0  0  0  0  0  0  0  0
    5.9253    4.2373    0.0000 H   0  0  0  0  0  0  0  0  0  0  0  0
    5.5268    4.9276    0.0000 H   0  0  0  0  0  0  0  0  0  0  0  0
    3.9389    1.7544    0.0000 H   0  0  0  0  0  0  0  0  0  0  0  0
    9.3158    1.6550    0.0000 H   0  0  0  0  0  0  0  0  0  0  0  0
    7.9128    4.2250    0.0000 H   0  0  0  0  0  0  0  0  0  0  0  0
    2.2478    2.1138    0.0000 H   0  0  0  0  0  0  0  0  0  0  0  0
    1.3834    0.6166    0.0000 H   0  0  0  0  0  0  0  0  0  0  0  0
    7.7008    6.4276    0.0000 H   0  0  0  0  0  0  0  0  0  0  0  0
    7.3022    5.7373    0.0000 H   0  0  0  0  0  0  0  0  0  0  0  0
    9.3158    4.6550    0.0000 H   0  0  0  0  0  0  0  0  0  0  0  0
    8.7788    3.7250    0.0000 H   0  0  0  0  0  0  0  0  0  0  0  0
    3.9118    6.1550    0.0000 H   0  0  0  0  0  0  0  0  0  0  0  0
    9.3158    7.6550    0.0000 H   0  0  0  0  0  0  0  0  0  0  0  0
  1 36  1  0  0  0  0
  1 87  1  0  0  0  0
  2 44  1  0  0  0  0
  2 51  1  0  0  0  0
  3 30  2  0  0  0  0
  4 31  2  0  0  0  0
  5 37  2  0  0  0  0
  6 39  1  0  0  0  0
  6 88  1  0  0  0  0
  7 39  2  0  0  0  0
  8 41  1  0  0  0  0
  8 93  1  0  0  0  0
  9 41  2  0  0  0  0
 10 43  2  0  0  0  0
 11 48  2  0  0  0  0
 12 52  1  0  0  0  0
 12101  1  0  0  0  0
 13 52  2  0  0  0  0
 14 54  1  0  0  0  0
 14102  1  0  0  0  0
 15 54  2  0  0  0  0
 29 16  1  6  0  0  0
 16 31  1  0  0  0  0
 16 69  1  0  0  0  0
 17 30  1  0  0  0  0
 33 17  1  6  0  0  0
 17 71  1  0  0  0  0
 32 18  1  1  0  0  0
 18 37  1  0  0  0  0
 18 75  1  0  0  0  0
 38 19  1  6  0  0  0
 19 43  1  0  0  0  0
 19 83  1  0  0  0  0
 42 20  1  6  0  0  0
 20 48  1  0  0  0  0
 20 89  1  0  0  0  0
 49 21  1  6  0  0  0
 21 99  1  0  0  0  0
 21100  1  0  0  0  0
 22 23  1  0  0  0  0
 22 24  1  0  0  0  0
 22 25  1  0  0  0  0
 22 55  1  0  0  0  0
 23 26  1  0  0  0  0
 23 56  1  0  0  0  0
 23 57  1  0  0  0  0
 24 27  1  0  0  0  0
 24 58  1  0  0  0  0
 24 59  1  0  0  0  0
 25 29  1  0  0  0  0
 25 60  1  0  0  0  0
 25 61  1  0  0  0  0
 26 28  1  0  0  0  0
 26 62  1  0  0  0  0
 26 63  1  0  0  0  0
 27 28  1  0  0  0  0
 27 64  1  0  0  0  0
 27 65  1  0  0  0  0
 28 66  1  0  0  0  0
 28 67  1  0  0  0  0
 29 30  1  0  0  0  0
 29 68  1  0  0  0  0
 31 32  1  0  0  0  0
 32 34  1  0  0  0  0
 32 70  1  0  0  0  0
 33 36  1  0  0  0  0
 33 39  1  0  0  0  0
 33 72  1  0  0  0  0
 34 35  1  0  0  0  0
 34 73  1  0  0  0  0
 34 74  1  0  0  0  0
 35 41  1  0  0  0  0
 35 76  1  0  0  0  0
 35 77  1  0  0  0  0
 36 78  1  0  0  0  0
 36 79  1  0  0  0  0
 37 38  1  0  0  0  0
 38 40  1  0  0  0  0
 38 80  1  0  0  0  0
 40 44  1  0  0  0  0
 40 81  1  0  0  0  0
 40 82  1  0  0  0  0
 42 43  1  0  0  0  0
 42 45  1  0  0  0  0
 42 84  1  0  0  0  0
 44 47  2  0  0  0  0
 45 46  1  0  0  0  0
 45 85  1  0  0  0  0
 45 86  1  0  0  0  0
 46 52  1  0  0  0  0
 46 90  1  0  0  0  0
 46 91  1  0  0  0  0
 47 50  1  0  0  0  0
 47 92  1  0  0  0  0
 48 49  1  0  0  0  0
 49 53  1  0  0  0  0
 49 94  1  0  0  0  0
 50 51  2  0  0  0  0
 50 95  1  0  0  0  0
 51 96  1  0  0  0  0
 53 54  1  0  0  0  0
 53 97  1  0  0  0  0
 53 98  1  0  0  0  0
M  END
> <PUBCHEM_COMPOUND_CID>
512515
> <PUBCHEM_COMPOUND_CANONICALIZED>
1
> <PUBCHEM_CACTVS_COMPLEXITY>
1370
> <PUBCHEM_CACTVS_HBOND_ACCEPTOR>
16
> <PUBCHEM_CACTVS_HBOND_DONOR>
11
> <PUBCHEM_CACTVS_ROTATABLE_BOND>
24
> <PUBCHEM_CACTVS_SUBSKEYS>
AAADcfB/vABgAAAAAAAAAAAAAAAAASAAAAAwAAAAAAAAAAABgAAAHgQQCAAADSjF0ASwCYLAAgyMACHSGAADAIAgCBBIiJmIAIgKYDqgkTGUQAAmlgC4iAe/n4KOAAAAAAAAAAAAAAAAAAAAAAAAAAAAAA==
> <PUBCHEM_IUPAC_OPENEYE_NAME>
(4S)-4-[[(2S)-2-[[(2S)-2-[[(2S)-2-amino-3-carboxy-propanoyl]amino]-4-carboxy-butanoyl]amino]-3-(2-thienyl)propanoyl]amino]-5-[[(1S)-2-[[(1R)-1-carboxy-2-sulfanyl-ethyl]amino]-1-(cyclohexylmethyl)-2-oxo-ethyl]amino]-5-oxo-pentanoic acid
> <PUBCHEM_IUPAC_CAS_NAME>
(4S)-4-[[(2S)-2-[[(2S)-2-[[(2S)-2-amino-3-carboxy-1-oxopropyl]amino]-4-carboxy-1-oxobutyl]amino]-1-oxo-3-thiophen-2-ylpropyl]amino]-5-[[(2S)-1-[[(1R)-1-carboxy-2-mercaptoethyl]amino]-3-cyclohexyl-1-oxopropan-2-yl]amino]-5-oxopentanoic acid
> <PUBCHEM_IUPAC_NAME_MARKUP>
(4<I>S</I>)-4-[[(2<I>S</I>)-2-[[(2<I>S</I>)-2-[[(2<I>S</I>)-2-amino-3-carboxypropanoyl]amino]-4-carboxybutanoyl]amino]-3-thiophen-2-ylpropanoyl]amino]-5-[[(2<I>S</I>)-1-[[(1<I>R</I>)-1-carboxy-2-sulfanylethyl]amino]-3-cyclohexyl-1-oxopropan-2-yl]amino]-5-oxopentanoic acid
> <PUBCHEM_IUPAC_NAME>
(4S)-4-[[(2S)-2-[[(2S)-2-[[(2S)-2-amino-3-carboxypropanoyl]amino]-4-carboxybutanoyl]amino]-3-thiophen-2-ylpropanoyl]amino]-5-[[(2S)-1-[[(1R)-1-carboxy-2-sulfanylethyl]amino]-3-cyclohexyl-1-oxopropan-2-yl]amino]-5-oxopentanoic acid
> <PUBCHEM_IUPAC_SYSTEMATIC_NAME>
(4S)-4-[[(2S)-2-[[(2S)-2-[[(2S)-2-azanyl-4-oxidanyl-4-oxidanylidene-butanoyl]amino]-5-oxidanyl-5-oxidanylidene-pentanoyl]amino]-3-thiophen-2-yl-propanoyl]amino]-5-[[(2S)-3-cyclohexyl-1-oxidanylidene-1-[[(2R)-1-oxidanyl-1-oxidanylidene-3-sulfanyl-propan-2-yl]amino]propan-2-yl]amino]-5-oxidanylidene-pentanoic acid
> <PUBCHEM_IUPAC_TRADITIONAL_NAME>
(4S)-4-[[(2S)-2-[[(2S)-2-[[(2S)-2-amino-3-carboxy-propanoyl]amino]-4-carboxy-butanoyl]amino]-3-(2-thienyl)propanoyl]amino]-5-[[(1S)-2-[[(1R)-1-carboxy-2-mercapto-ethyl]amino]-1-(cyclohexylmethyl)-2-keto-ethyl]amino]-5-keto-valeric acid
> <PUBCHEM_IUPAC_INCHI>
InChI=1S/C33H48N6O13S2/c34-19(15-27(44)45)28(46)35-20(8-10-25(40)41)29(47)38-23(14-18-7-4-12-54-18)32(50)36-21(9-11-26(42)43)30(48)37-22(13-17-5-2-1-3-6-17)31(49)39-24(16-53)33(51)52/h4,7,12,17,19-24,53H,1-3,5-6,8-11,13-16,34H2,(H,35,46)(H,36,50)(H,37,48)(H,38,47)(H,39,49)(H,40,41)(H,42,43)(H,44,45)(H,51,52)/t19-,20-,21-,22-,23-,24-/m0/s1
> <PUBCHEM_IUPAC_INCHIKEY>
JDAMGPTXMKNBFG-BTNSXGMBSA-N
> <PUBCHEM_XLOGP3_AA>
-2.2
> <PUBCHEM_EXACT_MASS>
800.27207795
> <PUBCHEM_MOLECULAR_FORMULA>
C33H48N6O13S2
> <PUBCHEM_MOLECULAR_WEIGHT>
800.9
> <PUBCHEM_OPENEYE_CAN_SMILES>
C1CCC(CC1)CC(C(=O)NC(CS)C(=O)O)NC(=O)C(CCC(=O)O)NC(=O)C(CC2=CC=CS2)NC(=O)C(CCC(=O)O)NC(=O)C(CC(=O)O)N
> <PUBCHEM_OPENEYE_ISO_SMILES>
C1CCC(CC1)C[C@@H](C(=O)N[C@@H](CS)C(=O)O)NC(=O)[C@H](CCC(=O)O)NC(=O)[C@H](CC2=CC=CS2)NC(=O)[C@H](CCC(=O)O)NC(=O)[C@H](CC(=O)O)N
> <PUBCHEM_CACTVS_TPSA>
350
> <PUBCHEM_MONOISOTOPIC_WEIGHT>
800.27207795
> <PUBCHEM_TOTAL_CHARGE>
0
> <PUBCHEM_HEAVY_ATOM_COUNT>
54
> <PUBCHEM_ATOM_DEF_STEREO_COUNT>
6
> <PUBCHEM_ATOM_UDEF_STEREO_COUNT>
0
> <PUBCHEM_BOND_DEF_STEREO_COUNT>
0
> <PUBCHEM_BOND_UDEF_STEREO_COUNT>
0
> <PUBCHEM_ISOTOPIC_ATOM_COUNT>
0
> <PUBCHEM_COMPONENT_COUNT>
1
> <PUBCHEM_CACTVS_TAUTO_COUNT>
-1
> <PUBCHEM_COORDINATE_TYPE>
1
5
255
> <PUBCHEM_BONDANNOTATIONS>
29  16  6
33  17  6
32  18  5
38  19  6
2  44  8
2  51  8
42  20  6
49  21  6
44  47  8
47  50  8
50  51  8
$$$$
