512523
  -OEChem-10302200282D
104104  0     1  0  0  0  0  0999 V2000
   10.6603   -6.1550    0.0000 S   0  0  0  0  0  0  0  0  0  0  0  0
    8.0622   -5.6550    0.0000 O   0  0  0  0  0  0  0  0  0  0  0  0
    5.4641   -3.1550    0.0000 O   0  0  0  0  0  0  0  0  0  0  0  0
    6.3301    0.3450    0.0000 O   0  0  0  0  0  0  0  0  0  0  0  0
   11.5263   -4.6550    0.0000 O   0  0  0  0  0  0  0  0  0  0  0  0
   10.6603   -3.1550    0.0000 O   0  0  0  0  0  0  0  0  0  0  0  0
    6.3301    1.3450    0.0000 O   0  0  0  0  0  0  0  0  0  0  0  0
    5.4641    4.8450    0.0000 O   0  0  0  0  0  0  0  0  0  0  0  0
    3.7320    5.8450    0.0000 O   0  0  0  0  0  0  0  0  0  0  0  0
    2.8660    4.3450    0.0000 O   0  0  0  0  0  0  0  0  0  0  0  0
    8.0622    7.3450    0.0000 O   0  0  0  0  0  0  0  0  0  0  0  0
    8.9282    5.8450    0.0000 O   0  0  0  0  0  0  0  0  0  0  0  0
    7.1962   -3.1550    0.0000 N   0  0  0  0  0  0  0  0  0  0  0  0
    8.9282   -4.1550    0.0000 N   0  0  0  0  0  0  0  0  0  0  0  0
    5.4641   -1.1550    0.0000 N   0  0  0  0  0  0  0  0  0  0  0  0
    4.5981    1.3450    0.0000 N   0  0  0  0  0  0  0  0  0  0  0  0
    6.3301    3.3450    0.0000 N   0  0  0  0  0  0  0  0  0  0  0  0
    8.0622    4.3450    0.0000 N   0  0  0  0  0  0  0  0  0  0  0  0
    6.3301   -5.6550    0.0000 C   0  0  0  0  0  0  0  0  0  0  0  0
    5.4641   -6.1550    0.0000 C   0  0  0  0  0  0  0  0  0  0  0  0
    7.1962   -6.1550    0.0000 C   0  0  0  0  0  0  0  0  0  0  0  0
    6.3301   -4.6550    0.0000 C   0  0  0  0  0  0  0  0  0  0  0  0
    5.4641   -7.1550    0.0000 C   0  0  0  0  0  0  0  0  0  0  0  0
    7.1962   -7.1550    0.0000 C   0  0  0  0  0  0  0  0  0  0  0  0
    6.3301   -7.6550    0.0000 C   0  0  0  0  0  0  0  0  0  0  0  0
    7.1962   -4.1550    0.0000 C   0  0  1  0  0  0  0  0  0  0  0  0
    8.0622   -4.6550    0.0000 C   0  0  0  0  0  0  0  0  0  0  0  0
    6.3301   -1.6550    0.0000 C   0  0  2  0  0  0  0  0  0  0  0  0
    6.3301   -2.6550    0.0000 C   0  0  0  0  0  0  0  0  0  0  0  0
    7.1962   -1.1550    0.0000 C   0  0  0  0  0  0  0  0  0  0  0  0
    9.7942   -4.6550    0.0000 C   0  0  1  0  0  0  0  0  0  0  0  0
    4.5981    0.3450    0.0000 C   0  0  2  0  0  0  0  0  0  0  0  0
    5.4641   -0.1550    0.0000 C   0  0  0  0  0  0  0  0  0  0  0  0
    7.1962   -0.1550    0.0000 C   0  0  0  0  0  0  0  0  0  0  0  0
    8.0622   -1.6550    0.0000 C   0  0  0  0  0  0  0  0  0  0  0  0
    3.7320   -0.1550    0.0000 C   0  0  0  0  0  0  0  0  0  0  0  0
    2.8660    0.3450    0.0000 C   0  0  0  0  0  0  0  0  0  0  0  0
    9.7942   -5.6550    0.0000 C   0  0  0  0  0  0  0  0  0  0  0  0
   10.6603   -4.1550    0.0000 C   0  0  0  0  0  0  0  0  0  0  0  0
    2.0000   -0.1550    0.0000 C   0  0  0  0  0  0  0  0  0  0  0  0
    2.8660    1.3450    0.0000 C   0  0  0  0  0  0  0  0  0  0  0  0
    5.4641    2.8450    0.0000 C   0  0  2  0  0  0  0  0  0  0  0  0
    5.4641    1.8450    0.0000 C   0  0  0  0  0  0  0  0  0  0  0  0
    4.5981    3.3450    0.0000 C   0  0  0  0  0  0  0  0  0  0  0  0
    4.5981    4.3450    0.0000 C   0  0  0  0  0  0  0  0  0  0  0  0
    6.3301    4.3450    0.0000 C   0  0  0  0  0  0  0  0  0  0  0  0
    7.1962    4.8450    0.0000 C   0  0  2  0  0  0  0  0  0  0  0  0
    3.7320    4.8450    0.0000 C   0  0  0  0  0  0  0  0  0  0  0  0
    7.1962    5.8450    0.0000 C   0  0  0  0  0  0  0  0  0  0  0  0
    8.0622    6.3450    0.0000 C   0  0  0  0  0  0  0  0  0  0  0  0
    6.8671   -5.3450    0.0000 H   0  0  0  0  0  0  0  0  0  0  0  0
    5.2520   -5.5724    0.0000 H   0  0  0  0  0  0  0  0  0  0  0  0
    4.8535   -6.2627    0.0000 H   0  0  0  0  0  0  0  0  0  0  0  0
    7.8067   -6.2627    0.0000 H   0  0  0  0  0  0  0  0  0  0  0  0
    7.4082   -5.5724    0.0000 H   0  0  0  0  0  0  0  0  0  0  0  0
    6.1181   -4.0724    0.0000 H   0  0  0  0  0  0  0  0  0  0  0  0
    5.7196   -4.7627    0.0000 H   0  0  0  0  0  0  0  0  0  0  0  0
    4.8535   -7.0473    0.0000 H   0  0  0  0  0  0  0  0  0  0  0  0
    5.2520   -7.7376    0.0000 H   0  0  0  0  0  0  0  0  0  0  0  0
    7.4082   -7.7376    0.0000 H   0  0  0  0  0  0  0  0  0  0  0  0
    7.8067   -7.0473    0.0000 H   0  0  0  0  0  0  0  0  0  0  0  0
    5.9316   -8.1299    0.0000 H   0  0  0  0  0  0  0  0  0  0  0  0
    6.7287   -8.1299    0.0000 H   0  0  0  0  0  0  0  0  0  0  0  0
    6.6592   -3.8450    0.0000 H   0  0  0  0  0  0  0  0  0  0  0  0
    7.7331   -2.8450    0.0000 H   0  0  0  0  0  0  0  0  0  0  0  0
    5.7932   -1.9650    0.0000 H   0  0  0  0  0  0  0  0  0  0  0  0
    6.6592   -0.8450    0.0000 H   0  0  0  0  0  0  0  0  0  0  0  0
    8.9282   -3.5350    0.0000 H   0  0  0  0  0  0  0  0  0  0  0  0
    4.9272   -1.4650    0.0000 H   0  0  0  0  0  0  0  0  0  0  0  0
    9.2573   -4.9650    0.0000 H   0  0  0  0  0  0  0  0  0  0  0  0
    5.1350    0.6550    0.0000 H   0  0  0  0  0  0  0  0  0  0  0  0
    7.8162   -0.1550    0.0000 H   0  0  0  0  0  0  0  0  0  0  0  0
    7.1962    0.4650    0.0000 H   0  0  0  0  0  0  0  0  0  0  0  0
    6.5762   -0.1550    0.0000 H   0  0  0  0  0  0  0  0  0  0  0  0
    7.7522   -2.1919    0.0000 H   0  0  0  0  0  0  0  0  0  0  0  0
    8.5991   -1.9650    0.0000 H   0  0  0  0  0  0  0  0  0  0  0  0
    8.3722   -1.1181    0.0000 H   0  0  0  0  0  0  0  0  0  0  0  0
    3.3335   -0.6299    0.0000 H   0  0  0  0  0  0  0  0  0  0  0  0
    4.1306   -0.6299    0.0000 H   0  0  0  0  0  0  0  0  0  0  0  0
    2.8660   -0.2750    0.0000 H   0  0  0  0  0  0  0  0  0  0  0  0
    9.1836   -5.5473    0.0000 H   0  0  0  0  0  0  0  0  0  0  0  0
    9.5822   -6.2376    0.0000 H   0  0  0  0  0  0  0  0  0  0  0  0
    4.0611    1.6550    0.0000 H   0  0  0  0  0  0  0  0  0  0  0  0
    1.6900    0.3819    0.0000 H   0  0  0  0  0  0  0  0  0  0  0  0
    1.4631   -0.4650    0.0000 H   0  0  0  0  0  0  0  0  0  0  0  0
    2.3100   -0.6919    0.0000 H   0  0  0  0  0  0  0  0  0  0  0  0
    3.4860    1.3450    0.0000 H   0  0  0  0  0  0  0  0  0  0  0  0
    2.8660    1.9650    0.0000 H   0  0  0  0  0  0  0  0  0  0  0  0
    2.2460    1.3450    0.0000 H   0  0  0  0  0  0  0  0  0  0  0  0
    5.4641    3.4650    0.0000 H   0  0  0  0  0  0  0  0  0  0  0  0
    3.9875    3.4527    0.0000 H   0  0  0  0  0  0  0  0  0  0  0  0
    4.3860    2.7624    0.0000 H   0  0  0  0  0  0  0  0  0  0  0  0
    6.8671    3.0350    0.0000 H   0  0  0  0  0  0  0  0  0  0  0  0
   10.6603   -6.7750    0.0000 H   0  0  0  0  0  0  0  0  0  0  0  0
    5.2087    4.2373    0.0000 H   0  0  0  0  0  0  0  0  0  0  0  0
    4.8101    4.9276    0.0000 H   0  0  0  0  0  0  0  0  0  0  0  0
   12.0632   -4.3450    0.0000 H   0  0  0  0  0  0  0  0  0  0  0  0
    7.7331    5.1550    0.0000 H   0  0  0  0  0  0  0  0  0  0  0  0
    6.9841    6.4276    0.0000 H   0  0  0  0  0  0  0  0  0  0  0  0
    6.5856    5.7373    0.0000 H   0  0  0  0  0  0  0  0  0  0  0  0
    8.5991    4.6550    0.0000 H   0  0  0  0  0  0  0  0  0  0  0  0
    8.0622    3.7250    0.0000 H   0  0  0  0  0  0  0  0  0  0  0  0
    3.1951    6.1550    0.0000 H   0  0  0  0  0  0  0  0  0  0  0  0
    8.5991    7.6550    0.0000 H   0  0  0  0  0  0  0  0  0  0  0  0
  1 38  1  0  0  0  0
  1 94  1  0  0  0  0
  2 27  2  0  0  0  0
  3 29  2  0  0  0  0
  4 33  2  0  0  0  0
  5 39  1  0  0  0  0
  5 97  1  0  0  0  0
  6 39  2  0  0  0  0
  7 43  2  0  0  0  0
  8 46  2  0  0  0  0
  9 48  1  0  0  0  0
  9103  1  0  0  0  0
 10 48  2  0  0  0  0
 11 50  1  0  0  0  0
 11104  1  0  0  0  0
 12 50  2  0  0  0  0
 26 13  1  6  0  0  0
 13 29  1  0  0  0  0
 13 65  1  0  0  0  0
 14 27  1  0  0  0  0
 31 14  1  6  0  0  0
 14 68  1  0  0  0  0
 28 15  1  1  0  0  0
 15 33  1  0  0  0  0
 15 69  1  0  0  0  0
 32 16  1  6  0  0  0
 16 43  1  0  0  0  0
 16 83  1  0  0  0  0
 42 17  1  6  0  0  0
 17 46  1  0  0  0  0
 17 93  1  0  0  0  0
 47 18  1  6  0  0  0
 18101  1  0  0  0  0
 18102  1  0  0  0  0
 19 20  1  0  0  0  0
 19 21  1  0  0  0  0
 19 22  1  0  0  0  0
 19 51  1  0  0  0  0
 20 23  1  0  0  0  0
 20 52  1  0  0  0  0
 20 53  1  0  0  0  0
 21 24  1  0  0  0  0
 21 54  1  0  0  0  0
 21 55  1  0  0  0  0
 22 26  1  0  0  0  0
 22 56  1  0  0  0  0
 22 57  1  0  0  0  0
 23 25  1  0  0  0  0
 23 58  1  0  0  0  0
 23 59  1  0  0  0  0
 24 25  1  0  0  0  0
 24 60  1  0  0  0  0
 24 61  1  0  0  0  0
 25 62  1  0  0  0  0
 25 63  1  0  0  0  0
 26 27  1  0  0  0  0
 26 64  1  0  0  0  0
 28 29  1  0  0  0  0
 28 30  1  0  0  0  0
 28 66  1  0  0  0  0
 30 34  1  0  0  0  0
 30 35  1  0  0  0  0
 30 67  1  0  0  0  0
 31 38  1  0  0  0  0
 31 39  1  0  0  0  0
 31 70  1  0  0  0  0
 32 33  1  0  0  0  0
 32 36  1  0  0  0  0
 32 71  1  0  0  0  0
 34 72  1  0  0  0  0
 34 73  1  0  0  0  0
 34 74  1  0  0  0  0
 35 75  1  0  0  0  0
 35 76  1  0  0  0  0
 35 77  1  0  0  0  0
 36 37  1  0  0  0  0
 36 78  1  0  0  0  0
 36 79  1  0  0  0  0
 37 40  1  0  0  0  0
 37 41  1  0  0  0  0
 37 80  1  0  0  0  0
 38 81  1  0  0  0  0
 38 82  1  0  0  0  0
 40 84  1  0  0  0  0
 40 85  1  0  0  0  0
 40 86  1  0  0  0  0
 41 87  1  0  0  0  0
 41 88  1  0  0  0  0
 41 89  1  0  0  0  0
 42 43  1  0  0  0  0
 42 44  1  0  0  0  0
 42 90  1  0  0  0  0
 44 45  1  0  0  0  0
 44 91  1  0  0  0  0
 44 92  1  0  0  0  0
 45 48  1  0  0  0  0
 45 95  1  0  0  0  0
 45 96  1  0  0  0  0
 46 47  1  0  0  0  0
 47 49  1  0  0  0  0
 47 98  1  0  0  0  0
 49 50  1  0  0  0  0
 49 99  1  0  0  0  0
 49100  1  0  0  0  0
M  END
> <PUBCHEM_COMPOUND_CID>
512523
> <PUBCHEM_COMPOUND_CANONICALIZED>
1
> <PUBCHEM_CACTVS_COMPLEXITY>
1210
> <PUBCHEM_CACTVS_HBOND_ACCEPTOR>
13
> <PUBCHEM_CACTVS_HBOND_DONOR>
10
> <PUBCHEM_CACTVS_ROTATABLE_BOND>
22
> <PUBCHEM_CACTVS_SUBSKEYS>
AAADcfB/vABAAAAAAAAAAAAAAAAAAAAAAAAwAAAAAAAAAAAAAAAAHgQQCAAADSjFwASCCALAAgQIAAGQGAAAAAAAAAAAAIGIAAACQBoAgCAUQAAGFgCQAAG/n4KOAAAAAAAAAAAAAAAAAAAAAAAAAAAAAA==
> <PUBCHEM_IUPAC_OPENEYE_NAME>
(4S)-4-[[(2S)-2-amino-3-carboxy-propanoyl]amino]-5-[[(1S)-1-[[(1S)-1-[[(1S)-2-[[(1R)-1-carboxy-2-sulfanyl-ethyl]amino]-1-(cyclohexylmethyl)-2-oxo-ethyl]carbamoyl]-2-methyl-propyl]carbamoyl]-3-methyl-butyl]amino]-5-oxo-pentanoic acid
> <PUBCHEM_IUPAC_CAS_NAME>
(4S)-4-[[(2S)-2-amino-3-carboxy-1-oxopropyl]amino]-5-[[(2S)-1-[[(2S)-1-[[(2S)-1-[[(1R)-1-carboxy-2-mercaptoethyl]amino]-3-cyclohexyl-1-oxopropan-2-yl]amino]-3-methyl-1-oxobutan-2-yl]amino]-4-methyl-1-oxopentan-2-yl]amino]-5-oxopentanoic acid
> <PUBCHEM_IUPAC_NAME_MARKUP>
(4<I>S</I>)-4-[[(2<I>S</I>)-2-amino-3-carboxypropanoyl]amino]-5-[[(2<I>S</I>)-1-[[(2<I>S</I>)-1-[[(2<I>S</I>)-1-[[(1<I>R</I>)-1-carboxy-2-sulfanylethyl]amino]-3-cyclohexyl-1-oxopropan-2-yl]amino]-3-methyl-1-oxobutan-2-yl]amino]-4-methyl-1-oxopentan-2-yl]amino]-5-oxopentanoic acid
> <PUBCHEM_IUPAC_NAME>
(4S)-4-[[(2S)-2-amino-3-carboxypropanoyl]amino]-5-[[(2S)-1-[[(2S)-1-[[(2S)-1-[[(1R)-1-carboxy-2-sulfanylethyl]amino]-3-cyclohexyl-1-oxopropan-2-yl]amino]-3-methyl-1-oxobutan-2-yl]amino]-4-methyl-1-oxopentan-2-yl]amino]-5-oxopentanoic acid
> <PUBCHEM_IUPAC_SYSTEMATIC_NAME>
(4S)-4-[[(2S)-2-azanyl-4-oxidanyl-4-oxidanylidene-butanoyl]amino]-5-[[(2S)-1-[[(2S)-1-[[(2S)-3-cyclohexyl-1-oxidanylidene-1-[[(2R)-1-oxidanyl-1-oxidanylidene-3-sulfanyl-propan-2-yl]amino]propan-2-yl]amino]-3-methyl-1-oxidanylidene-butan-2-yl]amino]-4-methyl-1-oxidanylidene-pentan-2-yl]amino]-5-oxidanylidene-pentanoic acid
> <PUBCHEM_IUPAC_TRADITIONAL_NAME>
(4S)-4-[[(2S)-2-amino-3-carboxy-propanoyl]amino]-5-[[(1S)-1-[[(1S)-1-[[(1S)-2-[[(1R)-1-carboxy-2-mercapto-ethyl]amino]-1-(cyclohexylmethyl)-2-keto-ethyl]carbamoyl]-2-methyl-propyl]carbamoyl]-3-methyl-butyl]amino]-5-keto-valeric acid
> <PUBCHEM_IUPAC_INCHI>
InChI=1S/C32H54N6O11S/c1-16(2)12-21(35-28(44)20(10-11-24(39)40)34-27(43)19(33)14-25(41)42)30(46)38-26(17(3)4)31(47)36-22(13-18-8-6-5-7-9-18)29(45)37-23(15-50)32(48)49/h16-23,26,50H,5-15,33H2,1-4H3,(H,34,43)(H,35,44)(H,36,47)(H,37,45)(H,38,46)(H,39,40)(H,41,42)(H,48,49)/t19-,20-,21-,22-,23-,26-/m0/s1
> <PUBCHEM_IUPAC_INCHIKEY>
ROASLKUKVSNIBE-DAESNONBSA-N
> <PUBCHEM_XLOGP3_AA>
-0.7
> <PUBCHEM_EXACT_MASS>
730.35712773
> <PUBCHEM_MOLECULAR_FORMULA>
C32H54N6O11S
> <PUBCHEM_MOLECULAR_WEIGHT>
730.9
> <PUBCHEM_OPENEYE_CAN_SMILES>
CC(C)CC(C(=O)NC(C(C)C)C(=O)NC(CC1CCCCC1)C(=O)NC(CS)C(=O)O)NC(=O)C(CCC(=O)O)NC(=O)C(CC(=O)O)N
> <PUBCHEM_OPENEYE_ISO_SMILES>
CC(C)C[C@@H](C(=O)N[C@@H](C(C)C)C(=O)N[C@@H](CC1CCCCC1)C(=O)N[C@@H](CS)C(=O)O)NC(=O)[C@H](CCC(=O)O)NC(=O)[C@H](CC(=O)O)N
> <PUBCHEM_CACTVS_TPSA>
284
> <PUBCHEM_MONOISOTOPIC_WEIGHT>
730.35712773
> <PUBCHEM_TOTAL_CHARGE>
0
> <PUBCHEM_HEAVY_ATOM_COUNT>
50
> <PUBCHEM_ATOM_DEF_STEREO_COUNT>
6
> <PUBCHEM_ATOM_UDEF_STEREO_COUNT>
0
> <PUBCHEM_BOND_DEF_STEREO_COUNT>
0
> <PUBCHEM_BOND_UDEF_STEREO_COUNT>
0
> <PUBCHEM_ISOTOPIC_ATOM_COUNT>
0
> <PUBCHEM_COMPONENT_COUNT>
1
> <PUBCHEM_CACTVS_TAUTO_COUNT>
-1
> <PUBCHEM_COORDINATE_TYPE>
1
5
255
> <PUBCHEM_BONDANNOTATIONS>
26  13  6
31  14  6
28  15  5
32  16  6
42  17  6
47  18  6
$$$$
