512545
  -OEChem-10302200282D
110110  0     1  0  0  0  0  0999 V2000
   10.6822   -5.2990    0.0000 S   0  0  0  0  0  0  0  0  0  0  0  0
    8.0841   -4.7990    0.0000 O   0  0  0  0  0  0  0  0  0  0  0  0
    5.4860   -2.2990    0.0000 O   0  0  0  0  0  0  0  0  0  0  0  0
    6.3520    1.2010    0.0000 O   0  0  0  0  0  0  0  0  0  0  0  0
   11.5482   -3.7990    0.0000 O   0  0  0  0  0  0  0  0  0  0  0  0
   10.6822   -2.2990    0.0000 O   0  0  0  0  0  0  0  0  0  0  0  0
    6.3520    2.2010    0.0000 O   0  0  0  0  0  0  0  0  0  0  0  0
    7.2181    2.7010    0.0000 O   0  0  0  0  0  0  0  0  0  0  0  0
    2.6200    5.9330    0.0000 O   0  0  0  0  0  0  0  0  0  0  0  0
    4.1200    6.7990    0.0000 O   0  0  0  0  0  0  0  0  0  0  0  0
    2.6200    4.2010    0.0000 O   0  0  0  0  0  0  0  0  0  0  0  0
    5.6200    5.9330    0.0000 O   0  0  0  0  0  0  0  0  0  0  0  0
   10.6822    3.7010    0.0000 O   0  0  0  0  0  0  0  0  0  0  0  0
    9.8162    5.2010    0.0000 O   0  0  0  0  0  0  0  0  0  0  0  0
    7.2181   -2.2990    0.0000 N   0  0  0  0  0  0  0  0  0  0  0  0
    8.9501   -3.2990    0.0000 N   0  0  0  0  0  0  0  0  0  0  0  0
    5.4860   -0.2990    0.0000 N   0  0  0  0  0  0  0  0  0  0  0  0
    4.6200    2.2010    0.0000 N   0  0  0  0  0  0  0  0  0  0  0  0
    6.3520    4.2010    0.0000 N   0  0  0  0  0  0  0  0  0  0  0  0
    8.0841    5.2010    0.0000 N   0  0  0  0  0  0  0  0  0  0  0  0
    6.3520   -4.7990    0.0000 C   0  0  0  0  0  0  0  0  0  0  0  0
    5.4860   -5.2990    0.0000 C   0  0  0  0  0  0  0  0  0  0  0  0
    7.2181   -5.2990    0.0000 C   0  0  0  0  0  0  0  0  0  0  0  0
    6.3520   -3.7990    0.0000 C   0  0  0  0  0  0  0  0  0  0  0  0
    5.4860   -6.2990    0.0000 C   0  0  0  0  0  0  0  0  0  0  0  0
    7.2181   -6.2990    0.0000 C   0  0  0  0  0  0  0  0  0  0  0  0
    6.3520   -6.7990    0.0000 C   0  0  0  0  0  0  0  0  0  0  0  0
    7.2181   -3.2990    0.0000 C   0  0  1  0  0  0  0  0  0  0  0  0
    8.0841   -3.7990    0.0000 C   0  0  0  0  0  0  0  0  0  0  0  0
    6.3520   -0.7990    0.0000 C   0  0  2  0  0  0  0  0  0  0  0  0
    6.3520   -1.7990    0.0000 C   0  0  0  0  0  0  0  0  0  0  0  0
    7.2181   -0.2990    0.0000 C   0  0  2  0  0  0  0  0  0  0  0  0
    7.2181    0.7010    0.0000 C   0  0  0  0  0  0  0  0  0  0  0  0
    8.0841   -0.7990    0.0000 C   0  0  0  0  0  0  0  0  0  0  0  0
    4.6200    1.2010    0.0000 C   0  0  2  0  0  0  0  0  0  0  0  0
    9.8162   -3.7990    0.0000 C   0  0  1  0  0  0  0  0  0  0  0  0
    5.4860    0.7010    0.0000 C   0  0  0  0  0  0  0  0  0  0  0  0
    3.7540    0.7010    0.0000 C   0  0  0  0  0  0  0  0  0  0  0  0
    2.8880    1.2010    0.0000 C   0  0  0  0  0  0  0  0  0  0  0  0
    8.0841    1.2010    0.0000 C   0  0  0  0  0  0  0  0  0  0  0  0
    9.8162   -4.7990    0.0000 C   0  0  0  0  0  0  0  0  0  0  0  0
   10.6822   -3.2990    0.0000 C   0  0  0  0  0  0  0  0  0  0  0  0
    5.4860    3.7010    0.0000 C   0  0  1  0  0  0  0  0  0  0  0  0
    5.4860    2.7010    0.0000 C   0  0  0  0  0  0  0  0  0  0  0  0
    2.0219    0.7010    0.0000 C   0  0  0  0  0  0  0  0  0  0  0  0
    2.8880    2.2010    0.0000 C   0  0  0  0  0  0  0  0  0  0  0  0
    4.6200    4.2010    0.0000 C   0  0  0  0  0  0  0  0  0  0  0  0
    4.1200    5.0670    0.0000 C   0  0  0  0  0  0  0  0  0  0  0  0
    7.2181    3.7010    0.0000 C   0  0  0  0  0  0  0  0  0  0  0  0
    8.0841    4.2010    0.0000 C   0  0  2  0  0  0  0  0  0  0  0  0
    3.1200    5.0670    0.0000 C   0  0  0  0  0  0  0  0  0  0  0  0
    4.6200    5.9330    0.0000 C   0  0  0  0  0  0  0  0  0  0  0  0
    8.9501    3.7010    0.0000 C   0  0  0  0  0  0  0  0  0  0  0  0
    9.8162    4.2010    0.0000 C   0  0  0  0  0  0  0  0  0  0  0  0
    6.8890   -4.4890    0.0000 H   0  0  0  0  0  0  0  0  0  0  0  0
    5.2740   -4.7164    0.0000 H   0  0  0  0  0  0  0  0  0  0  0  0
    4.8754   -5.4067    0.0000 H   0  0  0  0  0  0  0  0  0  0  0  0
    7.8287   -5.4067    0.0000 H   0  0  0  0  0  0  0  0  0  0  0  0
    7.4301   -4.7164    0.0000 H   0  0  0  0  0  0  0  0  0  0  0  0
    6.1400   -3.2164    0.0000 H   0  0  0  0  0  0  0  0  0  0  0  0
    5.7415   -3.9067    0.0000 H   0  0  0  0  0  0  0  0  0  0  0  0
    4.8754   -6.1914    0.0000 H   0  0  0  0  0  0  0  0  0  0  0  0
    5.2740   -6.8816    0.0000 H   0  0  0  0  0  0  0  0  0  0  0  0
    7.4301   -6.8816    0.0000 H   0  0  0  0  0  0  0  0  0  0  0  0
    7.8287   -6.1914    0.0000 H   0  0  0  0  0  0  0  0  0  0  0  0
    5.9535   -7.2740    0.0000 H   0  0  0  0  0  0  0  0  0  0  0  0
    6.7506   -7.2740    0.0000 H   0  0  0  0  0  0  0  0  0  0  0  0
    7.7550   -2.9890    0.0000 H   0  0  0  0  0  0  0  0  0  0  0  0
    7.7550   -1.9890    0.0000 H   0  0  0  0  0  0  0  0  0  0  0  0
    6.3520   -0.1790    0.0000 H   0  0  0  0  0  0  0  0  0  0  0  0
    7.2181   -0.9190    0.0000 H   0  0  0  0  0  0  0  0  0  0  0  0
    8.9501   -2.6790    0.0000 H   0  0  0  0  0  0  0  0  0  0  0  0
    4.9491   -0.6090    0.0000 H   0  0  0  0  0  0  0  0  0  0  0  0
    7.0060    1.2836    0.0000 H   0  0  0  0  0  0  0  0  0  0  0  0
    6.6075    0.5933    0.0000 H   0  0  0  0  0  0  0  0  0  0  0  0
    7.7741   -1.3360    0.0000 H   0  0  0  0  0  0  0  0  0  0  0  0
    8.6210   -1.1090    0.0000 H   0  0  0  0  0  0  0  0  0  0  0  0
    8.3941   -0.2621    0.0000 H   0  0  0  0  0  0  0  0  0  0  0  0
    4.0831    1.5110    0.0000 H   0  0  0  0  0  0  0  0  0  0  0  0
    9.8162   -3.1790    0.0000 H   0  0  0  0  0  0  0  0  0  0  0  0
    3.3554    0.2260    0.0000 H   0  0  0  0  0  0  0  0  0  0  0  0
    4.1525    0.2260    0.0000 H   0  0  0  0  0  0  0  0  0  0  0  0
    3.4249    1.5110    0.0000 H   0  0  0  0  0  0  0  0  0  0  0  0
    8.3941    0.6640    0.0000 H   0  0  0  0  0  0  0  0  0  0  0  0
    8.6210    1.5110    0.0000 H   0  0  0  0  0  0  0  0  0  0  0  0
    7.7741    1.7379    0.0000 H   0  0  0  0  0  0  0  0  0  0  0  0
    4.0831    2.5110    0.0000 H   0  0  0  0  0  0  0  0  0  0  0  0
    9.2056   -4.6914    0.0000 H   0  0  0  0  0  0  0  0  0  0  0  0
    9.6041   -5.3816    0.0000 H   0  0  0  0  0  0  0  0  0  0  0  0
    6.0230    3.3910    0.0000 H   0  0  0  0  0  0  0  0  0  0  0  0
    1.7119    1.2379    0.0000 H   0  0  0  0  0  0  0  0  0  0  0  0
    1.4850    0.3910    0.0000 H   0  0  0  0  0  0  0  0  0  0  0  0
    2.3319    0.1640    0.0000 H   0  0  0  0  0  0  0  0  0  0  0  0
    3.5080    2.2010    0.0000 H   0  0  0  0  0  0  0  0  0  0  0  0
    2.8880    2.8210    0.0000 H   0  0  0  0  0  0  0  0  0  0  0  0
    2.2680    2.2010    0.0000 H   0  0  0  0  0  0  0  0  0  0  0  0
    4.0094    4.0933    0.0000 H   0  0  0  0  0  0  0  0  0  0  0  0
    5.0584    4.6394    0.0000 H   0  0  0  0  0  0  0  0  0  0  0  0
    3.8100    5.6039    0.0000 H   0  0  0  0  0  0  0  0  0  0  0  0
    6.3520    4.8210    0.0000 H   0  0  0  0  0  0  0  0  0  0  0  0
   10.6822   -5.9190    0.0000 H   0  0  0  0  0  0  0  0  0  0  0  0
   12.0851   -3.4890    0.0000 H   0  0  0  0  0  0  0  0  0  0  0  0
    8.6210    4.5110    0.0000 H   0  0  0  0  0  0  0  0  0  0  0  0
    8.5516    3.2260    0.0000 H   0  0  0  0  0  0  0  0  0  0  0  0
    9.3486    3.2260    0.0000 H   0  0  0  0  0  0  0  0  0  0  0  0
    8.6210    5.5110    0.0000 H   0  0  0  0  0  0  0  0  0  0  0  0
    7.5472    5.5110    0.0000 H   0  0  0  0  0  0  0  0  0  0  0  0
    2.0000    5.9330    0.0000 H   0  0  0  0  0  0  0  0  0  0  0  0
    3.5000    6.7990    0.0000 H   0  0  0  0  0  0  0  0  0  0  0  0
   11.2191    4.0110    0.0000 H   0  0  0  0  0  0  0  0  0  0  0  0
  1 41  1  0  0  0  0
  1101  1  0  0  0  0
  2 29  2  0  0  0  0
  3 31  2  0  0  0  0
  4 37  2  0  0  0  0
  5 42  1  0  0  0  0
  5102  1  0  0  0  0
  6 42  2  0  0  0  0
  7 44  2  0  0  0  0
  8 49  2  0  0  0  0
  9 51  1  0  0  0  0
  9108  1  0  0  0  0
 10 52  1  0  0  0  0
 10109  1  0  0  0  0
 11 51  2  0  0  0  0
 12 52  2  0  0  0  0
 13 54  1  0  0  0  0
 13110  1  0  0  0  0
 14 54  2  0  0  0  0
 28 15  1  6  0  0  0
 15 31  1  0  0  0  0
 15 69  1  0  0  0  0
 16 29  1  0  0  0  0
 36 16  1  6  0  0  0
 16 72  1  0  0  0  0
 30 17  1  1  0  0  0
 17 37  1  0  0  0  0
 17 73  1  0  0  0  0
 35 18  1  6  0  0  0
 18 44  1  0  0  0  0
 18 87  1  0  0  0  0
 43 19  1  1  0  0  0
 19 49  1  0  0  0  0
 19100  1  0  0  0  0
 50 20  1  1  0  0  0
 20106  1  0  0  0  0
 20107  1  0  0  0  0
 21 22  1  0  0  0  0
 21 23  1  0  0  0  0
 21 24  1  0  0  0  0
 21 55  1  0  0  0  0
 22 25  1  0  0  0  0
 22 56  1  0  0  0  0
 22 57  1  0  0  0  0
 23 26  1  0  0  0  0
 23 58  1  0  0  0  0
 23 59  1  0  0  0  0
 24 28  1  0  0  0  0
 24 60  1  0  0  0  0
 24 61  1  0  0  0  0
 25 27  1  0  0  0  0
 25 62  1  0  0  0  0
 25 63  1  0  0  0  0
 26 27  1  0  0  0  0
 26 64  1  0  0  0  0
 26 65  1  0  0  0  0
 27 66  1  0  0  0  0
 27 67  1  0  0  0  0
 28 29  1  0  0  0  0
 28 68  1  0  0  0  0
 30 31  1  0  0  0  0
 30 32  1  0  0  0  0
 30 70  1  0  0  0  0
 32 33  1  0  0  0  0
 32 34  1  6  0  0  0
 32 71  1  0  0  0  0
 33 40  1  0  0  0  0
 33 74  1  0  0  0  0
 33 75  1  0  0  0  0
 34 76  1  0  0  0  0
 34 77  1  0  0  0  0
 34 78  1  0  0  0  0
 35 37  1  0  0  0  0
 35 38  1  0  0  0  0
 35 79  1  0  0  0  0
 36 41  1  0  0  0  0
 36 42  1  0  0  0  0
 36 80  1  0  0  0  0
 38 39  1  0  0  0  0
 38 81  1  0  0  0  0
 38 82  1  0  0  0  0
 39 45  1  0  0  0  0
 39 46  1  0  0  0  0
 39 83  1  0  0  0  0
 40 84  1  0  0  0  0
 40 85  1  0  0  0  0
 40 86  1  0  0  0  0
 41 88  1  0  0  0  0
 41 89  1  0  0  0  0
 43 44  1  0  0  0  0
 43 47  1  0  0  0  0
 43 90  1  0  0  0  0
 45 91  1  0  0  0  0
 45 92  1  0  0  0  0
 45 93  1  0  0  0  0
 46 94  1  0  0  0  0
 46 95  1  0  0  0  0
 46 96  1  0  0  0  0
 47 48  1  0  0  0  0
 47 97  1  0  0  0  0
 47 98  1  0  0  0  0
 48 51  1  0  0  0  0
 48 52  1  0  0  0  0
 48 99  1  0  0  0  0
 49 50  1  0  0  0  0
 50 53  1  0  0  0  0
 50103  1  0  0  0  0
 53 54  1  0  0  0  0
 53104  1  0  0  0  0
 53105  1  0  0  0  0
M  END
> <PUBCHEM_COMPOUND_CID>
512545
> <PUBCHEM_COMPOUND_CANONICALIZED>
1
> <PUBCHEM_CACTVS_COMPLEXITY>
1340
> <PUBCHEM_CACTVS_HBOND_ACCEPTOR>
15
> <PUBCHEM_CACTVS_HBOND_DONOR>
11
> <PUBCHEM_CACTVS_ROTATABLE_BOND>
24
> <PUBCHEM_CACTVS_SUBSKEYS>
AAADcfB/vABAAAAAAAAAAAAAAAAAAAAAAAAwAAAAAAAAAAAAAAAAHgQQCAAADSjFwASCCALAAgQIAAGQGAAAAAAAAAAAAIGIAAACQB4IgCAUQAAHNgCQAAG/n4KOAAAAAAAAAAAAAAAAAAAAAAAAAAAAAA==
> <PUBCHEM_IUPAC_OPENEYE_NAME>
2-[(2R)-2-[[(2S)-2-amino-3-carboxy-propanoyl]amino]-3-[[(1S)-1-[[(1S,2S)-1-[[(1S)-2-[[(1R)-1-carboxy-2-sulfanyl-ethyl]amino]-1-(cyclohexylmethyl)-2-oxo-ethyl]carbamoyl]-2-methyl-butyl]carbamoyl]-3-methyl-butyl]amino]-3-oxo-propyl]propanedioic acid
> <PUBCHEM_IUPAC_CAS_NAME>
2-[(2R)-2-[[(2S)-2-amino-3-carboxy-1-oxopropyl]amino]-3-[[(2S)-1-[[(2S,3S)-1-[[(2S)-1-[[(1R)-1-carboxy-2-mercaptoethyl]amino]-3-cyclohexyl-1-oxopropan-2-yl]amino]-3-methyl-1-oxopentan-2-yl]amino]-4-methyl-1-oxopentan-2-yl]amino]-3-oxopropyl]propanedioic acid
> <PUBCHEM_IUPAC_NAME_MARKUP>
2-[(2<I>R</I>)-2-[[(2<I>S</I>)-2-amino-3-carboxypropanoyl]amino]-3-[[(2<I>S</I>)-1-[[(2<I>S</I>,3<I>S</I>)-1-[[(2<I>S</I>)-1-[[(1<I>R</I>)-1-carboxy-2-sulfanylethyl]amino]-3-cyclohexyl-1-oxopropan-2-yl]amino]-3-methyl-1-oxopentan-2-yl]amino]-4-methyl-1-oxopentan-2-yl]amino]-3-oxopropyl]propanedioic acid
> <PUBCHEM_IUPAC_NAME>
2-[(2R)-2-[[(2S)-2-amino-3-carboxypropanoyl]amino]-3-[[(2S)-1-[[(2S,3S)-1-[[(2S)-1-[[(1R)-1-carboxy-2-sulfanylethyl]amino]-3-cyclohexyl-1-oxopropan-2-yl]amino]-3-methyl-1-oxopentan-2-yl]amino]-4-methyl-1-oxopentan-2-yl]amino]-3-oxopropyl]propanedioic acid
> <PUBCHEM_IUPAC_SYSTEMATIC_NAME>
2-[(2R)-2-[[(2S)-2-azanyl-4-oxidanyl-4-oxidanylidene-butanoyl]amino]-3-[[(2S)-1-[[(2S,3S)-1-[[(2S)-3-cyclohexyl-1-oxidanylidene-1-[[(2R)-1-oxidanyl-1-oxidanylidene-3-sulfanyl-propan-2-yl]amino]propan-2-yl]amino]-3-methyl-1-oxidanylidene-pentan-2-yl]amino]-4-methyl-1-oxidanylidene-pentan-2-yl]amino]-3-oxidanylidene-propyl]propanedioic acid
> <PUBCHEM_IUPAC_TRADITIONAL_NAME>
2-[(2R)-2-[[(2S)-2-amino-3-carboxy-propanoyl]amino]-3-[[(1S)-1-[[(1S,2S)-1-[[(1S)-2-[[(1R)-1-carboxy-2-mercapto-ethyl]amino]-1-(cyclohexylmethyl)-2-keto-ethyl]carbamoyl]-2-methyl-butyl]carbamoyl]-3-methyl-butyl]amino]-3-keto-propyl]malonic acid
> <PUBCHEM_IUPAC_INCHI>
InChI=1S/C34H56N6O13S/c1-5-17(4)26(31(47)38-22(12-18-9-7-6-8-10-18)28(44)39-24(15-54)34(52)53)40-30(46)21(11-16(2)3)37-29(45)23(13-19(32(48)49)33(50)51)36-27(43)20(35)14-25(41)42/h16-24,26,54H,5-15,35H2,1-4H3,(H,36,43)(H,37,45)(H,38,47)(H,39,44)(H,40,46)(H,41,42)(H,48,49)(H,50,51)(H,52,53)/t17-,20-,21-,22-,23+,24-,26-/m0/s1
> <PUBCHEM_IUPAC_INCHIKEY>
DSWCERQOFYCOMK-PHZXOTISSA-N
> <PUBCHEM_XLOGP3_AA>
-0.6
> <PUBCHEM_EXACT_MASS>
788.36260704
> <PUBCHEM_MOLECULAR_FORMULA>
C34H56N6O13S
> <PUBCHEM_MOLECULAR_WEIGHT>
788.9
> <PUBCHEM_OPENEYE_CAN_SMILES>
CCC(C)C(C(=O)NC(CC1CCCCC1)C(=O)NC(CS)C(=O)O)NC(=O)C(CC(C)C)NC(=O)C(CC(C(=O)O)C(=O)O)NC(=O)C(CC(=O)O)N
> <PUBCHEM_OPENEYE_ISO_SMILES>
CC[C@H](C)[C@@H](C(=O)N[C@@H](CC1CCCCC1)C(=O)N[C@@H](CS)C(=O)O)NC(=O)[C@H](CC(C)C)NC(=O)[C@@H](CC(C(=O)O)C(=O)O)NC(=O)[C@H](CC(=O)O)N
> <PUBCHEM_CACTVS_TPSA>
322
> <PUBCHEM_MONOISOTOPIC_WEIGHT>
788.36260704
> <PUBCHEM_TOTAL_CHARGE>
0
> <PUBCHEM_HEAVY_ATOM_COUNT>
54
> <PUBCHEM_ATOM_DEF_STEREO_COUNT>
7
> <PUBCHEM_ATOM_UDEF_STEREO_COUNT>
0
> <PUBCHEM_BOND_DEF_STEREO_COUNT>
0
> <PUBCHEM_BOND_UDEF_STEREO_COUNT>
0
> <PUBCHEM_ISOTOPIC_ATOM_COUNT>
0
> <PUBCHEM_COMPONENT_COUNT>
1
> <PUBCHEM_CACTVS_TAUTO_COUNT>
-1
> <PUBCHEM_COORDINATE_TYPE>
1
5
255
> <PUBCHEM_BONDANNOTATIONS>
28  15  6
36  16  6
30  17  5
35  18  6
43  19  5
50  20  5
32  34  6
$$$$
