512534
  -OEChem-10302200282D
109109  0     1  0  0  0  0  0999 V2000
    8.0622   -5.6550    0.0000 O   0  0  0  0  0  0  0  0  0  0  0  0
    5.4641   -3.1550    0.0000 O   0  0  0  0  0  0  0  0  0  0  0  0
    6.3301    0.3450    0.0000 O   0  0  0  0  0  0  0  0  0  0  0  0
   11.5263   -4.6550    0.0000 O   0  0  0  0  0  0  0  0  0  0  0  0
   10.6603   -3.1550    0.0000 O   0  0  0  0  0  0  0  0  0  0  0  0
    8.0622    1.3450    0.0000 O   0  0  0  0  0  0  0  0  0  0  0  0
    6.3301    1.3450    0.0000 O   0  0  0  0  0  0  0  0  0  0  0  0
    8.9282   -0.1550    0.0000 O   0  0  0  0  0  0  0  0  0  0  0  0
    5.4641    4.8450    0.0000 O   0  0  0  0  0  0  0  0  0  0  0  0
    3.7320    5.8450    0.0000 O   0  0  0  0  0  0  0  0  0  0  0  0
    2.8660    4.3450    0.0000 O   0  0  0  0  0  0  0  0  0  0  0  0
    8.0622    7.3450    0.0000 O   0  0  0  0  0  0  0  0  0  0  0  0
    8.9282    5.8450    0.0000 O   0  0  0  0  0  0  0  0  0  0  0  0
    7.1962   -3.1550    0.0000 N   0  0  0  0  0  0  0  0  0  0  0  0
    8.9282   -4.1550    0.0000 N   0  0  0  0  0  0  0  0  0  0  0  0
    5.4641   -1.1550    0.0000 N   0  0  0  0  0  0  0  0  0  0  0  0
    4.5981    1.3450    0.0000 N   0  0  0  0  0  0  0  0  0  0  0  0
    6.3301    3.3450    0.0000 N   0  0  0  0  0  0  0  0  0  0  0  0
    8.0622    4.3450    0.0000 N   0  0  0  0  0  0  0  0  0  0  0  0
    6.3301   -5.6550    0.0000 C   0  0  0  0  0  0  0  0  0  0  0  0
    5.4641   -6.1550    0.0000 C   0  0  0  0  0  0  0  0  0  0  0  0
    7.1962   -6.1550    0.0000 C   0  0  0  0  0  0  0  0  0  0  0  0
    6.3301   -4.6550    0.0000 C   0  0  0  0  0  0  0  0  0  0  0  0
    5.4641   -7.1550    0.0000 C   0  0  0  0  0  0  0  0  0  0  0  0
    7.1962   -7.1550    0.0000 C   0  0  0  0  0  0  0  0  0  0  0  0
    6.3301   -7.6550    0.0000 C   0  0  0  0  0  0  0  0  0  0  0  0
    7.1962   -4.1550    0.0000 C   0  0  1  0  0  0  0  0  0  0  0  0
    8.0622   -4.6550    0.0000 C   0  0  0  0  0  0  0  0  0  0  0  0
    6.3301   -2.6550    0.0000 C   0  0  0  0  0  0  0  0  0  0  0  0
    6.3301   -1.6550    0.0000 C   0  0  2  0  0  0  0  0  0  0  0  0
    9.7942   -4.6550    0.0000 C   0  0  1  0  0  0  0  0  0  0  0  0
    7.1962   -1.1550    0.0000 C   0  0  0  0  0  0  0  0  0  0  0  0
    9.7942   -5.6550    0.0000 C   0  0  0  0  0  0  0  0  0  0  0  0
    4.5981    0.3450    0.0000 C   0  0  2  0  0  0  0  0  0  0  0  0
    5.4641   -0.1550    0.0000 C   0  0  0  0  0  0  0  0  0  0  0  0
    3.7320   -0.1550    0.0000 C   0  0  0  0  0  0  0  0  0  0  0  0
    7.1962   -0.1550    0.0000 C   0  0  0  0  0  0  0  0  0  0  0  0
    2.8660    0.3450    0.0000 C   0  0  0  0  0  0  0  0  0  0  0  0
   10.6603   -4.1550    0.0000 C   0  0  0  0  0  0  0  0  0  0  0  0
   10.6603   -6.1550    0.0000 C   0  0  0  0  0  0  0  0  0  0  0  0
    2.0000   -0.1550    0.0000 C   0  0  0  0  0  0  0  0  0  0  0  0
    2.8660    1.3450    0.0000 C   0  0  0  0  0  0  0  0  0  0  0  0
    5.4641    2.8450    0.0000 C   0  0  2  0  0  0  0  0  0  0  0  0
    5.4641    1.8450    0.0000 C   0  0  0  0  0  0  0  0  0  0  0  0
   10.6603   -7.1550    0.0000 C   0  0  0  0  0  0  0  0  0  0  0  0
    8.0622    0.3450    0.0000 C   0  0  0  0  0  0  0  0  0  0  0  0
    4.5981    3.3450    0.0000 C   0  0  0  0  0  0  0  0  0  0  0  0
    4.5981    4.3450    0.0000 C   0  0  0  0  0  0  0  0  0  0  0  0
    6.3301    4.3450    0.0000 C   0  0  0  0  0  0  0  0  0  0  0  0
    7.1962    4.8450    0.0000 C   0  0  2  0  0  0  0  0  0  0  0  0
    3.7320    4.8450    0.0000 C   0  0  0  0  0  0  0  0  0  0  0  0
    7.1962    5.8450    0.0000 C   0  0  0  0  0  0  0  0  0  0  0  0
    8.0622    6.3450    0.0000 C   0  0  0  0  0  0  0  0  0  0  0  0
    6.8671   -5.3450    0.0000 H   0  0  0  0  0  0  0  0  0  0  0  0
    5.2520   -5.5724    0.0000 H   0  0  0  0  0  0  0  0  0  0  0  0
    4.8535   -6.2627    0.0000 H   0  0  0  0  0  0  0  0  0  0  0  0
    7.8067   -6.2627    0.0000 H   0  0  0  0  0  0  0  0  0  0  0  0
    7.4082   -5.5724    0.0000 H   0  0  0  0  0  0  0  0  0  0  0  0
    6.1181   -4.0724    0.0000 H   0  0  0  0  0  0  0  0  0  0  0  0
    5.7196   -4.7627    0.0000 H   0  0  0  0  0  0  0  0  0  0  0  0
    4.8535   -7.0473    0.0000 H   0  0  0  0  0  0  0  0  0  0  0  0
    5.2520   -7.7376    0.0000 H   0  0  0  0  0  0  0  0  0  0  0  0
    7.4082   -7.7376    0.0000 H   0  0  0  0  0  0  0  0  0  0  0  0
    7.8067   -7.0473    0.0000 H   0  0  0  0  0  0  0  0  0  0  0  0
    5.9316   -8.1299    0.0000 H   0  0  0  0  0  0  0  0  0  0  0  0
    6.7287   -8.1299    0.0000 H   0  0  0  0  0  0  0  0  0  0  0  0
    6.6592   -3.8450    0.0000 H   0  0  0  0  0  0  0  0  0  0  0  0
    7.7331   -2.8450    0.0000 H   0  0  0  0  0  0  0  0  0  0  0  0
    5.7932   -1.9650    0.0000 H   0  0  0  0  0  0  0  0  0  0  0  0
    8.9282   -3.5350    0.0000 H   0  0  0  0  0  0  0  0  0  0  0  0
    9.2573   -4.9650    0.0000 H   0  0  0  0  0  0  0  0  0  0  0  0
    7.4082   -1.7376    0.0000 H   0  0  0  0  0  0  0  0  0  0  0  0
    7.8067   -1.0473    0.0000 H   0  0  0  0  0  0  0  0  0  0  0  0
    4.9272   -1.4650    0.0000 H   0  0  0  0  0  0  0  0  0  0  0  0
    9.1836   -5.5473    0.0000 H   0  0  0  0  0  0  0  0  0  0  0  0
    9.5822   -6.2376    0.0000 H   0  0  0  0  0  0  0  0  0  0  0  0
    5.1350    0.6550    0.0000 H   0  0  0  0  0  0  0  0  0  0  0  0
    3.3335   -0.6299    0.0000 H   0  0  0  0  0  0  0  0  0  0  0  0
    4.1306   -0.6299    0.0000 H   0  0  0  0  0  0  0  0  0  0  0  0
    6.9841    0.4276    0.0000 H   0  0  0  0  0  0  0  0  0  0  0  0
    6.5856   -0.2627    0.0000 H   0  0  0  0  0  0  0  0  0  0  0  0
    2.8660   -0.2750    0.0000 H   0  0  0  0  0  0  0  0  0  0  0  0
   11.2708   -6.2627    0.0000 H   0  0  0  0  0  0  0  0  0  0  0  0
   10.8723   -5.5724    0.0000 H   0  0  0  0  0  0  0  0  0  0  0  0
    4.0611    1.6550    0.0000 H   0  0  0  0  0  0  0  0  0  0  0  0
    1.6900    0.3819    0.0000 H   0  0  0  0  0  0  0  0  0  0  0  0
    1.4631   -0.4650    0.0000 H   0  0  0  0  0  0  0  0  0  0  0  0
    2.3100   -0.6919    0.0000 H   0  0  0  0  0  0  0  0  0  0  0  0
    3.4860    1.3450    0.0000 H   0  0  0  0  0  0  0  0  0  0  0  0
    2.8660    1.9650    0.0000 H   0  0  0  0  0  0  0  0  0  0  0  0
    2.2460    1.3450    0.0000 H   0  0  0  0  0  0  0  0  0  0  0  0
    5.4641    3.4650    0.0000 H   0  0  0  0  0  0  0  0  0  0  0  0
   10.0403   -7.1550    0.0000 H   0  0  0  0  0  0  0  0  0  0  0  0
   10.6603   -7.7750    0.0000 H   0  0  0  0  0  0  0  0  0  0  0  0
   11.2803   -7.1550    0.0000 H   0  0  0  0  0  0  0  0  0  0  0  0
    3.9875    3.4527    0.0000 H   0  0  0  0  0  0  0  0  0  0  0  0
    4.3860    2.7624    0.0000 H   0  0  0  0  0  0  0  0  0  0  0  0
   12.0632   -4.3450    0.0000 H   0  0  0  0  0  0  0  0  0  0  0  0
    6.8671    3.0350    0.0000 H   0  0  0  0  0  0  0  0  0  0  0  0
    5.2087    4.2373    0.0000 H   0  0  0  0  0  0  0  0  0  0  0  0
    4.8101    4.9276    0.0000 H   0  0  0  0  0  0  0  0  0  0  0  0
    8.5991    1.6550    0.0000 H   0  0  0  0  0  0  0  0  0  0  0  0
    7.7331    5.1550    0.0000 H   0  0  0  0  0  0  0  0  0  0  0  0
    6.9841    6.4276    0.0000 H   0  0  0  0  0  0  0  0  0  0  0  0
    6.5856    5.7373    0.0000 H   0  0  0  0  0  0  0  0  0  0  0  0
    8.5991    4.6550    0.0000 H   0  0  0  0  0  0  0  0  0  0  0  0
    8.0622    3.7250    0.0000 H   0  0  0  0  0  0  0  0  0  0  0  0
    3.1951    6.1550    0.0000 H   0  0  0  0  0  0  0  0  0  0  0  0
    8.5991    7.6550    0.0000 H   0  0  0  0  0  0  0  0  0  0  0  0
  1 28  2  0  0  0  0
  2 29  2  0  0  0  0
  3 35  2  0  0  0  0
  4 39  1  0  0  0  0
  4 98  1  0  0  0  0
  5 39  2  0  0  0  0
  6 46  1  0  0  0  0
  6102  1  0  0  0  0
  7 44  2  0  0  0  0
  8 46  2  0  0  0  0
  9 49  2  0  0  0  0
 10 51  1  0  0  0  0
 10108  1  0  0  0  0
 11 51  2  0  0  0  0
 12 53  1  0  0  0  0
 12109  1  0  0  0  0
 13 53  2  0  0  0  0
 27 14  1  6  0  0  0
 14 29  1  0  0  0  0
 14 68  1  0  0  0  0
 15 28  1  0  0  0  0
 31 15  1  6  0  0  0
 15 70  1  0  0  0  0
 30 16  1  1  0  0  0
 16 35  1  0  0  0  0
 16 74  1  0  0  0  0
 34 17  1  6  0  0  0
 17 44  1  0  0  0  0
 17 85  1  0  0  0  0
 43 18  1  6  0  0  0
 18 49  1  0  0  0  0
 18 99  1  0  0  0  0
 50 19  1  6  0  0  0
 19106  1  0  0  0  0
 19107  1  0  0  0  0
 20 21  1  0  0  0  0
 20 22  1  0  0  0  0
 20 23  1  0  0  0  0
 20 54  1  0  0  0  0
 21 24  1  0  0  0  0
 21 55  1  0  0  0  0
 21 56  1  0  0  0  0
 22 25  1  0  0  0  0
 22 57  1  0  0  0  0
 22 58  1  0  0  0  0
 23 27  1  0  0  0  0
 23 59  1  0  0  0  0
 23 60  1  0  0  0  0
 24 26  1  0  0  0  0
 24 61  1  0  0  0  0
 24 62  1  0  0  0  0
 25 26  1  0  0  0  0
 25 63  1  0  0  0  0
 25 64  1  0  0  0  0
 26 65  1  0  0  0  0
 26 66  1  0  0  0  0
 27 28  1  0  0  0  0
 27 67  1  0  0  0  0
 29 30  1  0  0  0  0
 30 32  1  0  0  0  0
 30 69  1  0  0  0  0
 31 33  1  0  0  0  0
 31 39  1  0  0  0  0
 31 71  1  0  0  0  0
 32 37  1  0  0  0  0
 32 72  1  0  0  0  0
 32 73  1  0  0  0  0
 33 40  1  0  0  0  0
 33 75  1  0  0  0  0
 33 76  1  0  0  0  0
 34 35  1  0  0  0  0
 34 36  1  0  0  0  0
 34 77  1  0  0  0  0
 36 38  1  0  0  0  0
 36 78  1  0  0  0  0
 36 79  1  0  0  0  0
 37 46  1  0  0  0  0
 37 80  1  0  0  0  0
 37 81  1  0  0  0  0
 38 41  1  0  0  0  0
 38 42  1  0  0  0  0
 38 82  1  0  0  0  0
 40 45  1  0  0  0  0
 40 83  1  0  0  0  0
 40 84  1  0  0  0  0
 41 86  1  0  0  0  0
 41 87  1  0  0  0  0
 41 88  1  0  0  0  0
 42 89  1  0  0  0  0
 42 90  1  0  0  0  0
 42 91  1  0  0  0  0
 43 44  1  0  0  0  0
 43 47  1  0  0  0  0
 43 92  1  0  0  0  0
 45 93  1  0  0  0  0
 45 94  1  0  0  0  0
 45 95  1  0  0  0  0
 47 48  1  0  0  0  0
 47 96  1  0  0  0  0
 47 97  1  0  0  0  0
 48 51  1  0  0  0  0
 48100  1  0  0  0  0
 48101  1  0  0  0  0
 49 50  1  0  0  0  0
 50 52  1  0  0  0  0
 50103  1  0  0  0  0
 52 53  1  0  0  0  0
 52104  1  0  0  0  0
 52105  1  0  0  0  0
M  END
> <PUBCHEM_COMPOUND_CID>
512534
> <PUBCHEM_COMPOUND_CANONICALIZED>
1
> <PUBCHEM_CACTVS_COMPLEXITY>
1300
> <PUBCHEM_CACTVS_HBOND_ACCEPTOR>
14
> <PUBCHEM_CACTVS_HBOND_DONOR>
10
> <PUBCHEM_CACTVS_ROTATABLE_BOND>
25
> <PUBCHEM_CACTVS_SUBSKEYS>
AAADcfB/vAAAAAAAAAAAAAAAAAAAAAAAAAAwAAAAAAAAAAAAAAAAHgAQCAAADSjBgAQCCALAAgAIAAGQGAAAAAAAAAAAAIGIAAACQBoAgCAUQAAGFgCQAAG/n4KOAAAAAAAAAAAAAAAAAAAAAAAAAAAAAA==
> <PUBCHEM_IUPAC_OPENEYE_NAME>
(4S)-4-[[(2S)-2-[[(2S)-2-[[(2S)-2-amino-3-carboxy-propanoyl]amino]-4-carboxy-butanoyl]amino]-4-methyl-pentanoyl]amino]-5-[[(1S)-2-[[(1S)-1-carboxybutyl]amino]-1-(cyclohexylmethyl)-2-oxo-ethyl]amino]-5-oxo-pentanoic acid
> <PUBCHEM_IUPAC_CAS_NAME>
(4S)-4-[[(2S)-2-[[(2S)-2-[[(2S)-2-amino-3-carboxy-1-oxopropyl]amino]-4-carboxy-1-oxobutyl]amino]-4-methyl-1-oxopentyl]amino]-5-[[(2S)-1-[[(1S)-1-carboxybutyl]amino]-3-cyclohexyl-1-oxopropan-2-yl]amino]-5-oxopentanoic acid
> <PUBCHEM_IUPAC_NAME_MARKUP>
(4<I>S</I>)-4-[[(2<I>S</I>)-2-[[(2<I>S</I>)-2-[[(2<I>S</I>)-2-amino-3-carboxypropanoyl]amino]-4-carboxybutanoyl]amino]-4-methylpentanoyl]amino]-5-[[(2<I>S</I>)-1-[[(1<I>S</I>)-1-carboxybutyl]amino]-3-cyclohexyl-1-oxopropan-2-yl]amino]-5-oxopentanoic acid
> <PUBCHEM_IUPAC_NAME>
(4S)-4-[[(2S)-2-[[(2S)-2-[[(2S)-2-amino-3-carboxypropanoyl]amino]-4-carboxybutanoyl]amino]-4-methylpentanoyl]amino]-5-[[(2S)-1-[[(1S)-1-carboxybutyl]amino]-3-cyclohexyl-1-oxopropan-2-yl]amino]-5-oxopentanoic acid
> <PUBCHEM_IUPAC_SYSTEMATIC_NAME>
(4S)-4-[[(2S)-2-[[(2S)-2-[[(2S)-2-azanyl-4-oxidanyl-4-oxidanylidene-butanoyl]amino]-5-oxidanyl-5-oxidanylidene-pentanoyl]amino]-4-methyl-pentanoyl]amino]-5-[[(2S)-3-cyclohexyl-1-oxidanylidene-1-[[(2S)-1-oxidanyl-1-oxidanylidene-pentan-2-yl]amino]propan-2-yl]amino]-5-oxidanylidene-pentanoic acid
> <PUBCHEM_IUPAC_TRADITIONAL_NAME>
(4S)-4-[[(2S)-2-[[(2S)-2-[[(2S)-2-amino-3-carboxy-propanoyl]amino]-4-carboxy-butanoyl]amino]-4-methyl-pentanoyl]amino]-5-[[(1S)-2-[[(1S)-1-carboxybutyl]amino]-1-(cyclohexylmethyl)-2-keto-ethyl]amino]-5-keto-valeric acid
> <PUBCHEM_IUPAC_INCHI>
InChI=1S/C34H56N6O13/c1-4-8-23(34(52)53)38-33(51)25(16-19-9-6-5-7-10-19)40-31(49)22(12-14-27(43)44)37-32(50)24(15-18(2)3)39-30(48)21(11-13-26(41)42)36-29(47)20(35)17-28(45)46/h18-25H,4-17,35H2,1-3H3,(H,36,47)(H,37,50)(H,38,51)(H,39,48)(H,40,49)(H,41,42)(H,43,44)(H,45,46)(H,52,53)/t20-,21-,22-,23-,24-,25-/m0/s1
> <PUBCHEM_IUPAC_INCHIKEY>
PXPSRMHBWOTBJI-OOPVGHQCSA-N
> <PUBCHEM_XLOGP3_AA>
-1.2
> <PUBCHEM_EXACT_MASS>
756.39053586
> <PUBCHEM_MOLECULAR_FORMULA>
C34H56N6O13
> <PUBCHEM_MOLECULAR_WEIGHT>
756.8
> <PUBCHEM_OPENEYE_CAN_SMILES>
CCCC(C(=O)O)NC(=O)C(CC1CCCCC1)NC(=O)C(CCC(=O)O)NC(=O)C(CC(C)C)NC(=O)C(CCC(=O)O)NC(=O)C(CC(=O)O)N
> <PUBCHEM_OPENEYE_ISO_SMILES>
CCC[C@@H](C(=O)O)NC(=O)[C@H](CC1CCCCC1)NC(=O)[C@H](CCC(=O)O)NC(=O)[C@H](CC(C)C)NC(=O)[C@H](CCC(=O)O)NC(=O)[C@H](CC(=O)O)N
> <PUBCHEM_CACTVS_TPSA>
321
> <PUBCHEM_MONOISOTOPIC_WEIGHT>
756.39053586
> <PUBCHEM_TOTAL_CHARGE>
0
> <PUBCHEM_HEAVY_ATOM_COUNT>
53
> <PUBCHEM_ATOM_DEF_STEREO_COUNT>
6
> <PUBCHEM_ATOM_UDEF_STEREO_COUNT>
0
> <PUBCHEM_BOND_DEF_STEREO_COUNT>
0
> <PUBCHEM_BOND_UDEF_STEREO_COUNT>
0
> <PUBCHEM_ISOTOPIC_ATOM_COUNT>
0
> <PUBCHEM_COMPONENT_COUNT>
1
> <PUBCHEM_CACTVS_TAUTO_COUNT>
-1
> <PUBCHEM_COORDINATE_TYPE>
1
5
255
> <PUBCHEM_BONDANNOTATIONS>
27  14  6
31  15  6
30  16  5
34  17  6
43  18  6
50  19  6
$$$$
