512544
  -OEChem-10302200282D
101101  0     1  0  0  0  0  0999 V2000
   14.1244   -4.6550    0.0000 S   0  0  0  0  0  0  0  0  0  0  0  0
   11.5263   -4.1550    0.0000 O   0  0  0  0  0  0  0  0  0  0  0  0
    8.9282   -1.6550    0.0000 O   0  0  0  0  0  0  0  0  0  0  0  0
    9.7942    1.8450    0.0000 O   0  0  0  0  0  0  0  0  0  0  0  0
   14.9904   -3.1550    0.0000 O   0  0  0  0  0  0  0  0  0  0  0  0
   14.1244   -1.6550    0.0000 O   0  0  0  0  0  0  0  0  0  0  0  0
   11.5263    2.8450    0.0000 O   0  0  0  0  0  0  0  0  0  0  0  0
    6.3301    2.8450    0.0000 O   0  0  0  0  0  0  0  0  0  0  0  0
   12.3923    1.3450    0.0000 O   0  0  0  0  0  0  0  0  0  0  0  0
    5.4641    3.3450    0.0000 O   0  0  0  0  0  0  0  0  0  0  0  0
    4.5981   -1.1550    0.0000 O   0  0  0  0  0  0  0  0  0  0  0  0
    3.7320    0.3450    0.0000 O   0  0  0  0  0  0  0  0  0  0  0  0
    2.8660    5.8450    0.0000 O   0  0  0  0  0  0  0  0  0  0  0  0
    2.0000    4.3450    0.0000 O   0  0  0  0  0  0  0  0  0  0  0  0
   10.6603   -1.6550    0.0000 N   0  0  0  0  0  0  0  0  0  0  0  0
   12.3923   -2.6550    0.0000 N   0  0  0  0  0  0  0  0  0  0  0  0
    8.9282    0.3450    0.0000 N   0  0  0  0  0  0  0  0  0  0  0  0
    7.1962    1.3450    0.0000 N   0  0  0  0  0  0  0  0  0  0  0  0
    4.5981    1.8450    0.0000 N   0  0  0  0  0  0  0  0  0  0  0  0
    2.8660    2.8450    0.0000 N   0  0  0  0  0  0  0  0  0  0  0  0
    9.7942   -4.1550    0.0000 C   0  0  0  0  0  0  0  0  0  0  0  0
    8.9282   -4.6550    0.0000 C   0  0  0  0  0  0  0  0  0  0  0  0
   10.6603   -4.6550    0.0000 C   0  0  0  0  0  0  0  0  0  0  0  0
    9.7942   -3.1550    0.0000 C   0  0  0  0  0  0  0  0  0  0  0  0
    8.9282   -5.6550    0.0000 C   0  0  0  0  0  0  0  0  0  0  0  0
   10.6603   -5.6550    0.0000 C   0  0  0  0  0  0  0  0  0  0  0  0
    9.7942   -6.1550    0.0000 C   0  0  0  0  0  0  0  0  0  0  0  0
   10.6603   -2.6550    0.0000 C   0  0  1  0  0  0  0  0  0  0  0  0
   11.5263   -3.1550    0.0000 C   0  0  0  0  0  0  0  0  0  0  0  0
    9.7942   -1.1550    0.0000 C   0  0  0  0  0  0  0  0  0  0  0  0
    9.7942   -0.1550    0.0000 C   0  0  2  0  0  0  0  0  0  0  0  0
   10.6603    0.3450    0.0000 C   0  0  0  0  0  0  0  0  0  0  0  0
   13.2583   -3.1550    0.0000 C   0  0  1  0  0  0  0  0  0  0  0  0
    8.0622    1.8450    0.0000 C   0  0  1  0  0  0  0  0  0  0  0  0
    8.0622    2.8450    0.0000 C   0  0  0  0  0  0  0  0  0  0  0  0
    8.9282    1.3450    0.0000 C   0  0  0  0  0  0  0  0  0  0  0  0
   10.6603    1.3450    0.0000 C   0  0  0  0  0  0  0  0  0  0  0  0
    8.9282    3.3450    0.0000 C   0  0  0  0  0  0  0  0  0  0  0  0
   13.2583   -4.1550    0.0000 C   0  0  0  0  0  0  0  0  0  0  0  0
   14.1244   -2.6550    0.0000 C   0  0  0  0  0  0  0  0  0  0  0  0
    8.9282    4.3450    0.0000 C   0  0  0  0  0  0  0  0  0  0  0  0
    9.7942    2.8450    0.0000 C   0  0  0  0  0  0  0  0  0  0  0  0
    6.3301    1.8450    0.0000 C   0  0  0  0  0  0  0  0  0  0  0  0
    5.4641    1.3450    0.0000 C   0  0  1  0  0  0  0  0  0  0  0  0
   11.5263    1.8450    0.0000 C   0  0  0  0  0  0  0  0  0  0  0  0
    5.4641    0.3450    0.0000 C   0  0  0  0  0  0  0  0  0  0  0  0
    4.5981    2.8450    0.0000 C   0  0  0  0  0  0  0  0  0  0  0  0
    3.7320    3.3450    0.0000 C   0  0  2  0  0  0  0  0  0  0  0  0
    4.5981   -0.1550    0.0000 C   0  0  0  0  0  0  0  0  0  0  0  0
    3.7320    4.3450    0.0000 C   0  0  0  0  0  0  0  0  0  0  0  0
    2.8660    4.8450    0.0000 C   0  0  0  0  0  0  0  0  0  0  0  0
    9.2573   -3.8450    0.0000 H   0  0  0  0  0  0  0  0  0  0  0  0
    8.7162   -4.0724    0.0000 H   0  0  0  0  0  0  0  0  0  0  0  0
    8.3176   -4.7627    0.0000 H   0  0  0  0  0  0  0  0  0  0  0  0
   11.2708   -4.7627    0.0000 H   0  0  0  0  0  0  0  0  0  0  0  0
   10.8723   -4.0724    0.0000 H   0  0  0  0  0  0  0  0  0  0  0  0
    9.5822   -2.5724    0.0000 H   0  0  0  0  0  0  0  0  0  0  0  0
    9.1836   -3.2627    0.0000 H   0  0  0  0  0  0  0  0  0  0  0  0
    8.3176   -5.5473    0.0000 H   0  0  0  0  0  0  0  0  0  0  0  0
    8.7162   -6.2376    0.0000 H   0  0  0  0  0  0  0  0  0  0  0  0
   10.8723   -6.2376    0.0000 H   0  0  0  0  0  0  0  0  0  0  0  0
   11.2708   -5.5473    0.0000 H   0  0  0  0  0  0  0  0  0  0  0  0
    9.3957   -6.6300    0.0000 H   0  0  0  0  0  0  0  0  0  0  0  0
   10.1928   -6.6300    0.0000 H   0  0  0  0  0  0  0  0  0  0  0  0
   11.1972   -2.3450    0.0000 H   0  0  0  0  0  0  0  0  0  0  0  0
   11.1972   -1.3450    0.0000 H   0  0  0  0  0  0  0  0  0  0  0  0
    9.2573   -0.4650    0.0000 H   0  0  0  0  0  0  0  0  0  0  0  0
   12.3923   -2.0350    0.0000 H   0  0  0  0  0  0  0  0  0  0  0  0
   10.8723   -0.2376    0.0000 H   0  0  0  0  0  0  0  0  0  0  0  0
   11.2708    0.4527    0.0000 H   0  0  0  0  0  0  0  0  0  0  0  0
   13.2583   -2.5350    0.0000 H   0  0  0  0  0  0  0  0  0  0  0  0
    8.3913    0.0350    0.0000 H   0  0  0  0  0  0  0  0  0  0  0  0
    8.0622    1.2250    0.0000 H   0  0  0  0  0  0  0  0  0  0  0  0
    7.8501    3.4276    0.0000 H   0  0  0  0  0  0  0  0  0  0  0  0
    7.4516    2.7373    0.0000 H   0  0  0  0  0  0  0  0  0  0  0  0
    9.4651    3.6550    0.0000 H   0  0  0  0  0  0  0  0  0  0  0  0
   10.4482    1.9276    0.0000 H   0  0  0  0  0  0  0  0  0  0  0  0
   10.0497    1.2373    0.0000 H   0  0  0  0  0  0  0  0  0  0  0  0
   12.6477   -4.0473    0.0000 H   0  0  0  0  0  0  0  0  0  0  0  0
   13.0463   -4.7376    0.0000 H   0  0  0  0  0  0  0  0  0  0  0  0
    7.1962    0.7250    0.0000 H   0  0  0  0  0  0  0  0  0  0  0  0
    9.5482    4.3450    0.0000 H   0  0  0  0  0  0  0  0  0  0  0  0
    8.9282    4.9650    0.0000 H   0  0  0  0  0  0  0  0  0  0  0  0
    8.3082    4.3450    0.0000 H   0  0  0  0  0  0  0  0  0  0  0  0
    9.4842    2.3081    0.0000 H   0  0  0  0  0  0  0  0  0  0  0  0
   10.3312    2.5350    0.0000 H   0  0  0  0  0  0  0  0  0  0  0  0
   10.1042    3.3819    0.0000 H   0  0  0  0  0  0  0  0  0  0  0  0
    5.4641    1.9650    0.0000 H   0  0  0  0  0  0  0  0  0  0  0  0
   14.1244   -5.2750    0.0000 H   0  0  0  0  0  0  0  0  0  0  0  0
    5.6762   -0.2376    0.0000 H   0  0  0  0  0  0  0  0  0  0  0  0
    6.0747    0.4527    0.0000 H   0  0  0  0  0  0  0  0  0  0  0  0
    4.0611    1.5350    0.0000 H   0  0  0  0  0  0  0  0  0  0  0  0
   15.5273   -2.8450    0.0000 H   0  0  0  0  0  0  0  0  0  0  0  0
   12.0632    3.1550    0.0000 H   0  0  0  0  0  0  0  0  0  0  0  0
    3.7320    2.7250    0.0000 H   0  0  0  0  0  0  0  0  0  0  0  0
    4.3426    4.2373    0.0000 H   0  0  0  0  0  0  0  0  0  0  0  0
    3.9441    4.9276    0.0000 H   0  0  0  0  0  0  0  0  0  0  0  0
    2.3291    3.1550    0.0000 H   0  0  0  0  0  0  0  0  0  0  0  0
    2.8660    2.2250    0.0000 H   0  0  0  0  0  0  0  0  0  0  0  0
    4.0611   -1.4650    0.0000 H   0  0  0  0  0  0  0  0  0  0  0  0
    2.3291    6.1550    0.0000 H   0  0  0  0  0  0  0  0  0  0  0  0
  1 39  1  0  0  0  0
  1 89  1  0  0  0  0
  2 29  2  0  0  0  0
  3 30  2  0  0  0  0
  4 36  2  0  0  0  0
  5 40  1  0  0  0  0
  5 93  1  0  0  0  0
  6 40  2  0  0  0  0
  7 45  1  0  0  0  0
  7 94  1  0  0  0  0
  8 43  2  0  0  0  0
  9 45  2  0  0  0  0
 10 47  2  0  0  0  0
 11 49  1  0  0  0  0
 11100  1  0  0  0  0
 12 49  2  0  0  0  0
 13 51  1  0  0  0  0
 13101  1  0  0  0  0
 14 51  2  0  0  0  0
 28 15  1  6  0  0  0
 15 30  1  0  0  0  0
 15 66  1  0  0  0  0
 16 29  1  0  0  0  0
 33 16  1  6  0  0  0
 16 68  1  0  0  0  0
 31 17  1  1  0  0  0
 17 36  1  0  0  0  0
 17 72  1  0  0  0  0
 34 18  1  1  0  0  0
 18 43  1  0  0  0  0
 18 81  1  0  0  0  0
 44 19  1  1  0  0  0
 19 47  1  0  0  0  0
 19 92  1  0  0  0  0
 48 20  1  1  0  0  0
 20 98  1  0  0  0  0
 20 99  1  0  0  0  0
 21 22  1  0  0  0  0
 21 23  1  0  0  0  0
 21 24  1  0  0  0  0
 21 52  1  0  0  0  0
 22 25  1  0  0  0  0
 22 53  1  0  0  0  0
 22 54  1  0  0  0  0
 23 26  1  0  0  0  0
 23 55  1  0  0  0  0
 23 56  1  0  0  0  0
 24 28  1  0  0  0  0
 24 57  1  0  0  0  0
 24 58  1  0  0  0  0
 25 27  1  0  0  0  0
 25 59  1  0  0  0  0
 25 60  1  0  0  0  0
 26 27  1  0  0  0  0
 26 61  1  0  0  0  0
 26 62  1  0  0  0  0
 27 63  1  0  0  0  0
 27 64  1  0  0  0  0
 28 29  1  0  0  0  0
 28 65  1  0  0  0  0
 30 31  1  0  0  0  0
 31 32  1  0  0  0  0
 31 67  1  0  0  0  0
 32 37  1  0  0  0  0
 32 69  1  0  0  0  0
 32 70  1  0  0  0  0
 33 39  1  0  0  0  0
 33 40  1  0  0  0  0
 33 71  1  0  0  0  0
 34 35  1  0  0  0  0
 34 36  1  0  0  0  0
 34 73  1  0  0  0  0
 35 38  1  0  0  0  0
 35 74  1  0  0  0  0
 35 75  1  0  0  0  0
 37 45  1  0  0  0  0
 37 77  1  0  0  0  0
 37 78  1  0  0  0  0
 38 41  1  0  0  0  0
 38 42  1  0  0  0  0
 38 76  1  0  0  0  0
 39 79  1  0  0  0  0
 39 80  1  0  0  0  0
 41 82  1  0  0  0  0
 41 83  1  0  0  0  0
 41 84  1  0  0  0  0
 42 85  1  0  0  0  0
 42 86  1  0  0  0  0
 42 87  1  0  0  0  0
 43 44  1  0  0  0  0
 44 46  1  0  0  0  0
 44 88  1  0  0  0  0
 46 49  1  0  0  0  0
 46 90  1  0  0  0  0
 46 91  1  0  0  0  0
 47 48  1  0  0  0  0
 48 50  1  0  0  0  0
 48 95  1  0  0  0  0
 50 51  1  0  0  0  0
 50 96  1  0  0  0  0
 50 97  1  0  0  0  0
M  END
> <PUBCHEM_COMPOUND_CID>
512544
> <PUBCHEM_COMPOUND_CANONICALIZED>
1
> <PUBCHEM_CACTVS_COMPLEXITY>
1280
> <PUBCHEM_CACTVS_HBOND_ACCEPTOR>
15
> <PUBCHEM_CACTVS_HBOND_DONOR>
11
> <PUBCHEM_CACTVS_ROTATABLE_BOND>
23
> <PUBCHEM_CACTVS_SUBSKEYS>
AAADcfB7vABAAAAAAAAAAAAAAAAAAAAAAAAwAAAAAAAAAAAAAAAAHgQQCAAADSjFwASCCALAAgQIAAGQGAAAAAAAAAAAAIGIAAACQBoAgCAUQAAGFgCQAAG/n4KOAAAAAAAAAAAAAAAAAAAAAAAAAAAAAA==
> <PUBCHEM_IUPAC_OPENEYE_NAME>
(4S)-4-[[(2S)-2-[[(2R)-2-[[(2S)-2-amino-3-carboxy-propanoyl]amino]-3-carboxy-propanoyl]amino]-4-methyl-pentanoyl]amino]-5-[[(1S)-2-[[(1R)-1-carboxy-2-sulfanyl-ethyl]amino]-1-(cyclohexylmethyl)-2-oxo-ethyl]amino]-5-oxo-pentanoic acid
> <PUBCHEM_IUPAC_CAS_NAME>
(4S)-4-[[(2S)-2-[[(2R)-2-[[(2S)-2-amino-3-carboxy-1-oxopropyl]amino]-3-carboxy-1-oxopropyl]amino]-4-methyl-1-oxopentyl]amino]-5-[[(2S)-1-[[(1R)-1-carboxy-2-mercaptoethyl]amino]-3-cyclohexyl-1-oxopropan-2-yl]amino]-5-oxopentanoic acid
> <PUBCHEM_IUPAC_NAME_MARKUP>
(4<I>S</I>)-4-[[(2<I>S</I>)-2-[[(2<I>R</I>)-2-[[(2<I>S</I>)-2-amino-3-carboxypropanoyl]amino]-3-carboxypropanoyl]amino]-4-methylpentanoyl]amino]-5-[[(2<I>S</I>)-1-[[(1<I>R</I>)-1-carboxy-2-sulfanylethyl]amino]-3-cyclohexyl-1-oxopropan-2-yl]amino]-5-oxopentanoic acid
> <PUBCHEM_IUPAC_NAME>
(4S)-4-[[(2S)-2-[[(2R)-2-[[(2S)-2-amino-3-carboxypropanoyl]amino]-3-carboxypropanoyl]amino]-4-methylpentanoyl]amino]-5-[[(2S)-1-[[(1R)-1-carboxy-2-sulfanylethyl]amino]-3-cyclohexyl-1-oxopropan-2-yl]amino]-5-oxopentanoic acid
> <PUBCHEM_IUPAC_SYSTEMATIC_NAME>
(4S)-4-[[(2S)-2-[[(2R)-2-[[(2S)-2-azanyl-4-oxidanyl-4-oxidanylidene-butanoyl]amino]-4-oxidanyl-4-oxidanylidene-butanoyl]amino]-4-methyl-pentanoyl]amino]-5-[[(2S)-3-cyclohexyl-1-oxidanylidene-1-[[(2R)-1-oxidanyl-1-oxidanylidene-3-sulfanyl-propan-2-yl]amino]propan-2-yl]amino]-5-oxidanylidene-pentanoic acid
> <PUBCHEM_IUPAC_TRADITIONAL_NAME>
(4S)-4-[[(2S)-2-[[(2R)-2-[[(2S)-2-amino-3-carboxy-propanoyl]amino]-3-carboxy-propanoyl]amino]-4-methyl-pentanoyl]amino]-5-[[(1S)-2-[[(1R)-1-carboxy-2-mercapto-ethyl]amino]-1-(cyclohexylmethyl)-2-keto-ethyl]amino]-5-keto-valeric acid
> <PUBCHEM_IUPAC_INCHI>
InChI=1S/C31H50N6O13S/c1-15(2)10-19(35-30(48)21(13-25(42)43)34-26(44)17(32)12-24(40)41)28(46)33-18(8-9-23(38)39)27(45)36-20(11-16-6-4-3-5-7-16)29(47)37-22(14-51)31(49)50/h15-22,51H,3-14,32H2,1-2H3,(H,33,46)(H,34,44)(H,35,48)(H,36,45)(H,37,47)(H,38,39)(H,40,41)(H,42,43)(H,49,50)/t17-,18-,19-,20-,21+,22-/m0/s1
> <PUBCHEM_IUPAC_INCHIKEY>
DJQMYAPKPMWUIC-LLTZGFESSA-N
> <PUBCHEM_XLOGP3_AA>
-2.5
> <PUBCHEM_EXACT_MASS>
746.31565684
> <PUBCHEM_MOLECULAR_FORMULA>
C31H50N6O13S
> <PUBCHEM_MOLECULAR_WEIGHT>
746.8
> <PUBCHEM_OPENEYE_CAN_SMILES>
CC(C)CC(C(=O)NC(CCC(=O)O)C(=O)NC(CC1CCCCC1)C(=O)NC(CS)C(=O)O)NC(=O)C(CC(=O)O)NC(=O)C(CC(=O)O)N
> <PUBCHEM_OPENEYE_ISO_SMILES>
CC(C)C[C@@H](C(=O)N[C@@H](CCC(=O)O)C(=O)N[C@@H](CC1CCCCC1)C(=O)N[C@@H](CS)C(=O)O)NC(=O)[C@@H](CC(=O)O)NC(=O)[C@H](CC(=O)O)N
> <PUBCHEM_CACTVS_TPSA>
322
> <PUBCHEM_MONOISOTOPIC_WEIGHT>
746.31565684
> <PUBCHEM_TOTAL_CHARGE>
0
> <PUBCHEM_HEAVY_ATOM_COUNT>
51
> <PUBCHEM_ATOM_DEF_STEREO_COUNT>
6
> <PUBCHEM_ATOM_UDEF_STEREO_COUNT>
0
> <PUBCHEM_BOND_DEF_STEREO_COUNT>
0
> <PUBCHEM_BOND_UDEF_STEREO_COUNT>
0
> <PUBCHEM_ISOTOPIC_ATOM_COUNT>
0
> <PUBCHEM_COMPONENT_COUNT>
1
> <PUBCHEM_CACTVS_TAUTO_COUNT>
-1
> <PUBCHEM_COORDINATE_TYPE>
1
5
255
> <PUBCHEM_BONDANNOTATIONS>
28  15  6
33  16  6
31  17  5
34  18  5
44  19  5
48  20  5
$$$$
