512528
  -OEChem-10302200282D
105107  0     1  0  0  0  0  0999 V2000
    5.4641    6.6382    0.0000 S   0  0  0  0  0  0  0  0  0  0  0  0
    4.5981    4.1382    0.0000 O   0  0  0  0  0  0  0  0  0  0  0  0
    5.4641    0.6382    0.0000 O   0  0  0  0  0  0  0  0  0  0  0  0
    8.9282   -0.3618    0.0000 O   0  0  0  0  0  0  0  0  0  0  0  0
    7.1962    6.6382    0.0000 O   0  0  0  0  0  0  0  0  0  0  0  0
    8.0622    5.1382    0.0000 O   0  0  0  0  0  0  0  0  0  0  0  0
    5.8693   -1.2484    0.0000 O   0  0  0  0  0  0  0  0  0  0  0  0
    4.9670   -6.3656    0.0000 O   0  0  0  0  0  0  0  0  0  0  0  0
    6.5946   -5.7732    0.0000 O   0  0  0  0  0  0  0  0  0  0  0  0
    6.3301    2.1382    0.0000 N   0  0  0  0  0  0  0  0  0  0  0  0
    6.3301    4.1382    0.0000 N   0  0  0  0  0  0  0  0  0  0  0  0
    7.1962   -0.3618    0.0000 N   0  0  0  0  0  0  0  0  0  0  0  0
    7.1962   -2.3618    0.0000 N   0  0  0  0  0  0  0  0  0  0  0  0
    4.5838   -2.7805    0.0000 N   0  0  0  0  0  0  0  0  0  0  0  0
    3.7320    2.6382    0.0000 C   0  0  0  0  0  0  0  0  0  0  0  0
    3.7320    3.6382    0.0000 C   0  0  0  0  0  0  0  0  0  0  0  0
    2.8660    2.1382    0.0000 C   0  0  0  0  0  0  0  0  0  0  0  0
    4.5981    2.1382    0.0000 C   0  0  0  0  0  0  0  0  0  0  0  0
    2.8660    4.1382    0.0000 C   0  0  0  0  0  0  0  0  0  0  0  0
    2.0000    2.6382    0.0000 C   0  0  0  0  0  0  0  0  0  0  0  0
    2.0000    3.6382    0.0000 C   0  0  0  0  0  0  0  0  0  0  0  0
    5.4641    2.6382    0.0000 C   0  0  1  0  0  0  0  0  0  0  0  0
    5.4641    3.6382    0.0000 C   0  0  0  0  0  0  0  0  0  0  0  0
    7.1962    0.6382    0.0000 C   0  0  2  0  0  0  0  0  0  0  0  0
    6.3301    1.1382    0.0000 C   0  0  0  0  0  0  0  0  0  0  0  0
    8.0622    1.1382    0.0000 C   0  0  2  0  0  0  0  0  0  0  0  0
    8.0622    2.1382    0.0000 C   0  0  0  0  0  0  0  0  0  0  0  0
    8.9282    0.6382    0.0000 C   0  0  0  0  0  0  0  0  0  0  0  0
    8.0622   -1.8618    0.0000 C   0  0  2  0  0  0  0  0  0  0  0  0
    6.3301    5.1382    0.0000 C   0  0  1  0  0  0  0  0  0  0  0  0
    8.0622   -0.8618    0.0000 C   0  0  0  0  0  0  0  0  0  0  0  0
    8.9282   -2.3618    0.0000 C   0  0  0  0  0  0  0  0  0  0  0  0
    8.9282    2.6382    0.0000 C   0  0  0  0  0  0  0  0  0  0  0  0
    5.4641    5.6382    0.0000 C   0  0  0  0  0  0  0  0  0  0  0  0
    8.9282   -3.3618    0.0000 C   0  0  0  0  0  0  0  0  0  0  0  0
    9.7942   -1.8618    0.0000 C   0  0  0  0  0  0  0  0  0  0  0  0
    7.1962    5.6382    0.0000 C   0  0  0  0  0  0  0  0  0  0  0  0
    6.2113   -2.1881    0.0000 C   0  0  0  0  0  0  0  0  0  0  0  0
    5.5685   -2.9541    0.0000 C   0  0  2  0  0  0  0  0  0  0  0  0
    9.7942   -3.8618    0.0000 C   0  0  0  0  0  0  0  0  0  0  0  0
    9.7942   -0.8618    0.0000 C   0  0  0  0  0  0  0  0  0  0  0  0
    8.0622   -3.8618    0.0000 C   0  0  0  0  0  0  0  0  0  0  0  0
   10.6603   -2.3618    0.0000 C   0  0  0  0  0  0  0  0  0  0  0  0
    5.9106   -3.8938    0.0000 C   0  0  0  0  0  0  0  0  0  0  0  0
    9.7942   -4.8618    0.0000 C   0  0  0  0  0  0  0  0  0  0  0  0
   10.6603   -0.3618    0.0000 C   0  0  0  0  0  0  0  0  0  0  0  0
    8.0622   -4.8618    0.0000 C   0  0  0  0  0  0  0  0  0  0  0  0
   11.5263   -1.8618    0.0000 C   0  0  0  0  0  0  0  0  0  0  0  0
    8.9282   -5.3618    0.0000 C   0  0  0  0  0  0  0  0  0  0  0  0
   11.5263   -0.8618    0.0000 C   0  0  0  0  0  0  0  0  0  0  0  0
    5.2678   -4.6599    0.0000 C   0  0  0  0  0  0  0  0  0  0  0  0
    5.6098   -5.5996    0.0000 C   0  0  0  0  0  0  0  0  0  0  0  0
    3.7320    2.0182    0.0000 H   0  0  0  0  0  0  0  0  0  0  0  0
    4.3426    3.5306    0.0000 H   0  0  0  0  0  0  0  0  0  0  0  0
    3.9441    4.2209    0.0000 H   0  0  0  0  0  0  0  0  0  0  0  0
    2.4675    1.6633    0.0000 H   0  0  0  0  0  0  0  0  0  0  0  0
    3.2646    1.6633    0.0000 H   0  0  0  0  0  0  0  0  0  0  0  0
    4.1996    1.6633    0.0000 H   0  0  0  0  0  0  0  0  0  0  0  0
    4.9966    1.6633    0.0000 H   0  0  0  0  0  0  0  0  0  0  0  0
    3.2646    4.6132    0.0000 H   0  0  0  0  0  0  0  0  0  0  0  0
    2.4675    4.6132    0.0000 H   0  0  0  0  0  0  0  0  0  0  0  0
    1.3894    2.7459    0.0000 H   0  0  0  0  0  0  0  0  0  0  0  0
    1.7880    2.0556    0.0000 H   0  0  0  0  0  0  0  0  0  0  0  0
    1.7880    4.2209    0.0000 H   0  0  0  0  0  0  0  0  0  0  0  0
    1.3894    3.5306    0.0000 H   0  0  0  0  0  0  0  0  0  0  0  0
    5.4641    2.0182    0.0000 H   0  0  0  0  0  0  0  0  0  0  0  0
    6.8671    2.4482    0.0000 H   0  0  0  0  0  0  0  0  0  0  0  0
    6.6592    0.3282    0.0000 H   0  0  0  0  0  0  0  0  0  0  0  0
    8.0622    0.5182    0.0000 H   0  0  0  0  0  0  0  0  0  0  0  0
    6.8671    3.8282    0.0000 H   0  0  0  0  0  0  0  0  0  0  0  0
    6.5856   -0.4694    0.0000 H   0  0  0  0  0  0  0  0  0  0  0  0
    7.8501    2.7208    0.0000 H   0  0  0  0  0  0  0  0  0  0  0  0
    7.4516    2.0306    0.0000 H   0  0  0  0  0  0  0  0  0  0  0  0
    8.0622   -2.4818    0.0000 H   0  0  0  0  0  0  0  0  0  0  0  0
    8.6182    0.1013    0.0000 H   0  0  0  0  0  0  0  0  0  0  0  0
    9.4651    0.3282    0.0000 H   0  0  0  0  0  0  0  0  0  0  0  0
    9.2382    1.1752    0.0000 H   0  0  0  0  0  0  0  0  0  0  0  0
    6.8671    4.8282    0.0000 H   0  0  0  0  0  0  0  0  0  0  0  0
    8.9282   -1.7418    0.0000 H   0  0  0  0  0  0  0  0  0  0  0  0
    9.2382    2.1013    0.0000 H   0  0  0  0  0  0  0  0  0  0  0  0
    9.4651    2.9482    0.0000 H   0  0  0  0  0  0  0  0  0  0  0  0
    8.6182    3.1752    0.0000 H   0  0  0  0  0  0  0  0  0  0  0  0
    7.1962   -2.9818    0.0000 H   0  0  0  0  0  0  0  0  0  0  0  0
    4.8535    5.7459    0.0000 H   0  0  0  0  0  0  0  0  0  0  0  0
    5.2520    5.0556    0.0000 H   0  0  0  0  0  0  0  0  0  0  0  0
    5.3565   -2.3714    0.0000 H   0  0  0  0  0  0  0  0  0  0  0  0
   10.3312   -3.5518    0.0000 H   0  0  0  0  0  0  0  0  0  0  0  0
    9.2573   -0.5518    0.0000 H   0  0  0  0  0  0  0  0  0  0  0  0
    7.5252   -3.5518    0.0000 H   0  0  0  0  0  0  0  0  0  0  0  0
   10.6603   -2.9818    0.0000 H   0  0  0  0  0  0  0  0  0  0  0  0
    6.3091   -4.3688    0.0000 H   0  0  0  0  0  0  0  0  0  0  0  0
    6.4475   -3.5838    0.0000 H   0  0  0  0  0  0  0  0  0  0  0  0
    4.9272    6.9482    0.0000 H   0  0  0  0  0  0  0  0  0  0  0  0
   10.3312   -5.1718    0.0000 H   0  0  0  0  0  0  0  0  0  0  0  0
   10.6603    0.2582    0.0000 H   0  0  0  0  0  0  0  0  0  0  0  0
    7.5252   -5.1718    0.0000 H   0  0  0  0  0  0  0  0  0  0  0  0
   12.0632   -2.1718    0.0000 H   0  0  0  0  0  0  0  0  0  0  0  0
    7.7331    6.9482    0.0000 H   0  0  0  0  0  0  0  0  0  0  0  0
    8.9282   -5.9818    0.0000 H   0  0  0  0  0  0  0  0  0  0  0  0
   12.0632   -0.5518    0.0000 H   0  0  0  0  0  0  0  0  0  0  0  0
    4.8692   -4.1849    0.0000 H   0  0  0  0  0  0  0  0  0  0  0  0
    4.7308   -4.9699    0.0000 H   0  0  0  0  0  0  0  0  0  0  0  0
    4.1852   -3.2555    0.0000 H   0  0  0  0  0  0  0  0  0  0  0  0
    4.3717   -2.1979    0.0000 H   0  0  0  0  0  0  0  0  0  0  0  0
    5.1791   -6.9482    0.0000 H   0  0  0  0  0  0  0  0  0  0  0  0
  1 34  1  0  0  0  0
  1 93  1  0  0  0  0
  2 23  2  0  0  0  0
  3 25  2  0  0  0  0
  4 31  2  0  0  0  0
  5 37  1  0  0  0  0
  5 98  1  0  0  0  0
  6 37  2  0  0  0  0
  7 38  2  0  0  0  0
  8 52  1  0  0  0  0
  8105  1  0  0  0  0
  9 52  2  0  0  0  0
 22 10  1  1  0  0  0
 10 25  1  0  0  0  0
 10 67  1  0  0  0  0
 11 23  1  0  0  0  0
 30 11  1  1  0  0  0
 11 70  1  0  0  0  0
 24 12  1  6  0  0  0
 12 31  1  0  0  0  0
 12 71  1  0  0  0  0
 29 13  1  6  0  0  0
 13 38  1  0  0  0  0
 13 83  1  0  0  0  0
 39 14  1  6  0  0  0
 14103  1  0  0  0  0
 14104  1  0  0  0  0
 15 16  1  0  0  0  0
 15 17  1  0  0  0  0
 15 18  1  0  0  0  0
 15 53  1  0  0  0  0
 16 19  1  0  0  0  0
 16 54  1  0  0  0  0
 16 55  1  0  0  0  0
 17 20  1  0  0  0  0
 17 56  1  0  0  0  0
 17 57  1  0  0  0  0
 18 22  1  0  0  0  0
 18 58  1  0  0  0  0
 18 59  1  0  0  0  0
 19 21  1  0  0  0  0
 19 60  1  0  0  0  0
 19 61  1  0  0  0  0
 20 21  1  0  0  0  0
 20 62  1  0  0  0  0
 20 63  1  0  0  0  0
 21 64  1  0  0  0  0
 21 65  1  0  0  0  0
 22 23  1  0  0  0  0
 22 66  1  0  0  0  0
 24 25  1  0  0  0  0
 24 26  1  0  0  0  0
 24 68  1  0  0  0  0
 26 27  1  0  0  0  0
 26 28  1  6  0  0  0
 26 69  1  0  0  0  0
 27 33  1  0  0  0  0
 27 72  1  0  0  0  0
 27 73  1  0  0  0  0
 28 75  1  0  0  0  0
 28 76  1  0  0  0  0
 28 77  1  0  0  0  0
 29 31  1  0  0  0  0
 29 32  1  0  0  0  0
 29 74  1  0  0  0  0
 30 34  1  0  0  0  0
 30 37  1  0  0  0  0
 30 78  1  0  0  0  0
 32 35  1  0  0  0  0
 32 36  1  0  0  0  0
 32 79  1  0  0  0  0
 33 80  1  0  0  0  0
 33 81  1  0  0  0  0
 33 82  1  0  0  0  0
 34 84  1  0  0  0  0
 34 85  1  0  0  0  0
 35 40  2  0  0  0  0
 35 42  1  0  0  0  0
 36 41  2  0  0  0  0
 36 43  1  0  0  0  0
 38 39  1  0  0  0  0
 39 44  1  0  0  0  0
 39 86  1  0  0  0  0
 40 45  1  0  0  0  0
 40 87  1  0  0  0  0
 41 46  1  0  0  0  0
 41 88  1  0  0  0  0
 42 47  2  0  0  0  0
 42 89  1  0  0  0  0
 43 48  2  0  0  0  0
 43 90  1  0  0  0  0
 44 51  1  0  0  0  0
 44 91  1  0  0  0  0
 44 92  1  0  0  0  0
 45 49  2  0  0  0  0
 45 94  1  0  0  0  0
 46 50  2  0  0  0  0
 46 95  1  0  0  0  0
 47 49  1  0  0  0  0
 47 96  1  0  0  0  0
 48 50  1  0  0  0  0
 48 97  1  0  0  0  0
 49 99  1  0  0  0  0
 50100  1  0  0  0  0
 51 52  1  0  0  0  0
 51101  1  0  0  0  0
 51102  1  0  0  0  0
M  END
> <PUBCHEM_COMPOUND_CID>
512528
> <PUBCHEM_COMPOUND_CANONICALIZED>
1
> <PUBCHEM_CACTVS_COMPLEXITY>
1170
> <PUBCHEM_CACTVS_HBOND_ACCEPTOR>
10
> <PUBCHEM_CACTVS_HBOND_DONOR>
8
> <PUBCHEM_CACTVS_ROTATABLE_BOND>
20
> <PUBCHEM_CACTVS_SUBSKEYS>
AAADcfB/vABAAAAAAAAAAAAAAAAAAAAAAAAwYMAAAAAAAAABQAAAHgQQCAAADSjF2ASyCILAAgSIAiHSGAACAAAgAAAIiIGIAIgKYDKAkTGUYAAklgCYiAe8n8KOgAAAAAAAAAAAAAAAAAAAAAAAAAAAAA==
> <PUBCHEM_IUPAC_OPENEYE_NAME>
(4S)-4-amino-5-[[(1S)-1-benzhydryl-2-[[(1S,2S)-1-[[(1S)-2-[[(1R)-1-carboxy-2-sulfanyl-ethyl]amino]-1-(cyclohexylmethyl)-2-oxo-ethyl]carbamoyl]-2-methyl-butyl]amino]-2-oxo-ethyl]amino]-5-oxo-pentanoic acid
> <PUBCHEM_IUPAC_CAS_NAME>
(4S)-4-amino-5-[[(2S)-1-[[(2S,3S)-1-[[(2S)-1-[[(1R)-1-carboxy-2-mercaptoethyl]amino]-3-cyclohexyl-1-oxopropan-2-yl]amino]-3-methyl-1-oxopentan-2-yl]amino]-1-oxo-3,3-diphenylpropan-2-yl]amino]-5-oxopentanoic acid
> <PUBCHEM_IUPAC_NAME_MARKUP>
(4<I>S</I>)-4-amino-5-[[(2<I>S</I>)-1-[[(2<I>S</I>,3<I>S</I>)-1-[[(2<I>S</I>)-1-[[(1<I>R</I>)-1-carboxy-2-sulfanylethyl]amino]-3-cyclohexyl-1-oxopropan-2-yl]amino]-3-methyl-1-oxopentan-2-yl]amino]-1-oxo-3,3-diphenylpropan-2-yl]amino]-5-oxopentanoic acid
> <PUBCHEM_IUPAC_NAME>
(4S)-4-amino-5-[[(2S)-1-[[(2S,3S)-1-[[(2S)-1-[[(1R)-1-carboxy-2-sulfanylethyl]amino]-3-cyclohexyl-1-oxopropan-2-yl]amino]-3-methyl-1-oxopentan-2-yl]amino]-1-oxo-3,3-diphenylpropan-2-yl]amino]-5-oxopentanoic acid
> <PUBCHEM_IUPAC_SYSTEMATIC_NAME>
(4S)-4-azanyl-5-[[(2S)-1-[[(2S,3S)-1-[[(2S)-3-cyclohexyl-1-oxidanylidene-1-[[(2R)-1-oxidanyl-1-oxidanylidene-3-sulfanyl-propan-2-yl]amino]propan-2-yl]amino]-3-methyl-1-oxidanylidene-pentan-2-yl]amino]-1-oxidanylidene-3,3-diphenyl-propan-2-yl]amino]-5-oxidanylidene-pentanoic acid
> <PUBCHEM_IUPAC_TRADITIONAL_NAME>
(4S)-4-amino-5-[[(1S)-1-benzhydryl-2-[[(1S,2S)-1-[[(1S)-2-[[(1R)-1-carboxy-2-mercapto-ethyl]amino]-1-(cyclohexylmethyl)-2-keto-ethyl]carbamoyl]-2-methyl-butyl]amino]-2-keto-ethyl]amino]-5-keto-valeric acid
> <PUBCHEM_IUPAC_INCHI>
InChI=1S/C38H53N5O8S/c1-3-23(2)32(36(48)40-28(21-24-13-7-4-8-14-24)35(47)41-29(22-52)38(50)51)42-37(49)33(43-34(46)27(39)19-20-30(44)45)31(25-15-9-5-10-16-25)26-17-11-6-12-18-26/h5-6,9-12,15-18,23-24,27-29,31-33,52H,3-4,7-8,13-14,19-22,39H2,1-2H3,(H,40,48)(H,41,47)(H,42,49)(H,43,46)(H,44,45)(H,50,51)/t23-,27-,28-,29-,32-,33-/m0/s1
> <PUBCHEM_IUPAC_INCHIKEY>
YADDEUIEIMIVPW-MGGGBUFPSA-N
> <PUBCHEM_XLOGP3_AA>
2.5
> <PUBCHEM_EXACT_MASS>
739.36148484
> <PUBCHEM_MOLECULAR_FORMULA>
C38H53N5O8S
> <PUBCHEM_MOLECULAR_WEIGHT>
739.9
> <PUBCHEM_OPENEYE_CAN_SMILES>
CCC(C)C(C(=O)NC(CC1CCCCC1)C(=O)NC(CS)C(=O)O)NC(=O)C(C(C2=CC=CC=C2)C3=CC=CC=C3)NC(=O)C(CCC(=O)O)N
> <PUBCHEM_OPENEYE_ISO_SMILES>
CC[C@H](C)[C@@H](C(=O)N[C@@H](CC1CCCCC1)C(=O)N[C@@H](CS)C(=O)O)NC(=O)[C@H](C(C2=CC=CC=C2)C3=CC=CC=C3)NC(=O)[C@H](CCC(=O)O)N
> <PUBCHEM_CACTVS_TPSA>
218
> <PUBCHEM_MONOISOTOPIC_WEIGHT>
739.36148484
> <PUBCHEM_TOTAL_CHARGE>
0
> <PUBCHEM_HEAVY_ATOM_COUNT>
52
> <PUBCHEM_ATOM_DEF_STEREO_COUNT>
6
> <PUBCHEM_ATOM_UDEF_STEREO_COUNT>
0
> <PUBCHEM_BOND_DEF_STEREO_COUNT>
0
> <PUBCHEM_BOND_UDEF_STEREO_COUNT>
0
> <PUBCHEM_ISOTOPIC_ATOM_COUNT>
0
> <PUBCHEM_COMPONENT_COUNT>
1
> <PUBCHEM_CACTVS_TAUTO_COUNT>
-1
> <PUBCHEM_COORDINATE_TYPE>
1
5
255
> <PUBCHEM_BONDANNOTATIONS>
22  10  5
30  11  5
24  12  6
29  13  6
39  14  6
26  28  6
35  40  8
35  42  8
36  41  8
36  43  8
40  45  8
41  46  8
42  47  8
43  48  8
45  49  8
46  50  8
47  49  8
48  50  8
$$$$
