512543
  -OEChem-10302200282D
118120  0     1  0  0  0  0  0999 V2000
    3.5000    5.4456    0.0000 S   0  0  0  0  0  0  0  0  0  0  0  0
    4.0000    2.8476    0.0000 O   0  0  0  0  0  0  0  0  0  0  0  0
    6.5000    0.2495    0.0000 O   0  0  0  0  0  0  0  0  0  0  0  0
   10.0000    1.1155    0.0000 O   0  0  0  0  0  0  0  0  0  0  0  0
    5.0000    6.3117    0.0000 O   0  0  0  0  0  0  0  0  0  0  0  0
   10.8660   -1.8486    0.0000 O   0  0  0  0  0  0  0  0  0  0  0  0
    6.5000    5.4456    0.0000 O   0  0  0  0  0  0  0  0  0  0  0  0
    8.0000    4.5796    0.0000 O   0  0  0  0  0  0  0  0  0  0  0  0
    9.5000    3.7136    0.0000 O   0  0  0  0  0  0  0  0  0  0  0  0
    8.2680   -2.3486    0.0000 O   0  0  0  0  0  0  0  0  0  0  0  0
    4.8038   -3.3486    0.0000 O   0  0  0  0  0  0  0  0  0  0  0  0
    5.6699   -4.8486    0.0000 O   0  0  0  0  0  0  0  0  0  0  0  0
    6.5000    1.9815    0.0000 N   0  0  0  0  0  0  0  0  0  0  0  0
    5.5000    3.7136    0.0000 N   0  0  0  0  0  0  0  0  0  0  0  0
    8.5000    0.2495    0.0000 N   0  0  0  0  0  0  0  0  0  0  0  0
    9.5000   -1.4826    0.0000 N   0  0  0  0  0  0  0  0  0  0  0  0
    9.1340   -3.8486    0.0000 N   0  0  0  0  0  0  0  0  0  0  0  0
    7.4019   -4.8486    0.0000 N   0  0  0  0  0  0  0  0  0  0  0  0
    4.0000    1.1155    0.0000 C   0  0  0  0  0  0  0  0  0  0  0  0
    3.5000    0.2495    0.0000 C   0  0  0  0  0  0  0  0  0  0  0  0
    3.5000    1.9815    0.0000 C   0  0  0  0  0  0  0  0  0  0  0  0
    5.0000    1.1155    0.0000 C   0  0  0  0  0  0  0  0  0  0  0  0
    2.5000    0.2495    0.0000 C   0  0  0  0  0  0  0  0  0  0  0  0
    2.5000    1.9815    0.0000 C   0  0  0  0  0  0  0  0  0  0  0  0
    2.0000    1.1155    0.0000 C   0  0  0  0  0  0  0  0  0  0  0  0
    5.5000    1.9815    0.0000 C   0  0  1  0  0  0  0  0  0  0  0  0
    5.0000    2.8476    0.0000 C   0  0  0  0  0  0  0  0  0  0  0  0
    7.0000    1.1155    0.0000 C   0  0  0  0  0  0  0  0  0  0  0  0
    8.0000    1.1155    0.0000 C   0  0  2  0  0  0  0  0  0  0  0  0
    8.5000    1.9815    0.0000 C   0  0  0  0  0  0  0  0  0  0  0  0
    5.0000    4.5796    0.0000 C   0  0  1  0  0  0  0  0  0  0  0  0
   10.0000   -0.6165    0.0000 C   0  0  1  0  0  0  0  0  0  0  0  0
   11.0000   -0.6165    0.0000 C   0  0  0  0  0  0  0  0  0  0  0  0
    9.5000    0.2495    0.0000 C   0  0  0  0  0  0  0  0  0  0  0  0
    8.0000    2.8476    0.0000 C   0  0  0  0  0  0  0  0  0  0  0  0
   11.5000    0.2495    0.0000 C   0  0  0  0  0  0  0  0  0  0  0  0
    4.0000    4.5796    0.0000 C   0  0  0  0  0  0  0  0  0  0  0  0
   10.0000   -3.3486    0.0000 C   0  0  2  0  0  0  0  0  0  0  0  0
   10.8660   -3.8486    0.0000 C   0  0  0  0  0  0  0  0  0  0  0  0
    5.5000    5.4456    0.0000 C   0  0  0  0  0  0  0  0  0  0  0  0
   10.0000   -2.3486    0.0000 C   0  0  0  0  0  0  0  0  0  0  0  0
   12.5000    0.2495    0.0000 C   0  0  0  0  0  0  0  0  0  0  0  0
   11.0000    1.1155    0.0000 C   0  0  0  0  0  0  0  0  0  0  0  0
   10.8660   -4.8486    0.0000 C   0  0  0  0  0  0  0  0  0  0  0  0
   11.7321   -3.3486    0.0000 C   0  0  0  0  0  0  0  0  0  0  0  0
    8.5000    3.7136    0.0000 C   0  0  0  0  0  0  0  0  0  0  0  0
    8.2680   -3.3486    0.0000 C   0  0  0  0  0  0  0  0  0  0  0  0
   11.7321   -5.3486    0.0000 C   0  0  0  0  0  0  0  0  0  0  0  0
   11.7321   -2.3486    0.0000 C   0  0  0  0  0  0  0  0  0  0  0  0
   10.0000   -5.3486    0.0000 C   0  0  0  0  0  0  0  0  0  0  0  0
   12.5981   -3.8486    0.0000 C   0  0  0  0  0  0  0  0  0  0  0  0
    7.4019   -3.8486    0.0000 C   0  0  2  0  0  0  0  0  0  0  0  0
   11.7321   -6.3486    0.0000 C   0  0  0  0  0  0  0  0  0  0  0  0
   12.5981   -1.8486    0.0000 C   0  0  0  0  0  0  0  0  0  0  0  0
   10.0000   -6.3486    0.0000 C   0  0  0  0  0  0  0  0  0  0  0  0
   13.4641   -3.3486    0.0000 C   0  0  0  0  0  0  0  0  0  0  0  0
    6.5359   -3.3486    0.0000 C   0  0  0  0  0  0  0  0  0  0  0  0
   10.8660   -6.8486    0.0000 C   0  0  0  0  0  0  0  0  0  0  0  0
   13.4641   -2.3486    0.0000 C   0  0  0  0  0  0  0  0  0  0  0  0
    5.6699   -3.8486    0.0000 C   0  0  0  0  0  0  0  0  0  0  0  0
    4.3100    1.6524    0.0000 H   0  0  0  0  0  0  0  0  0  0  0  0
    3.3923   -0.3611    0.0000 H   0  0  0  0  0  0  0  0  0  0  0  0
    4.0826    0.0374    0.0000 H   0  0  0  0  0  0  0  0  0  0  0  0
    4.0826    2.1936    0.0000 H   0  0  0  0  0  0  0  0  0  0  0  0
    3.3923    2.5921    0.0000 H   0  0  0  0  0  0  0  0  0  0  0  0
    4.8923    0.5049    0.0000 H   0  0  0  0  0  0  0  0  0  0  0  0
    5.5826    0.9035    0.0000 H   0  0  0  0  0  0  0  0  0  0  0  0
    1.9174    0.0374    0.0000 H   0  0  0  0  0  0  0  0  0  0  0  0
    2.6077   -0.3611    0.0000 H   0  0  0  0  0  0  0  0  0  0  0  0
    2.6077    2.5921    0.0000 H   0  0  0  0  0  0  0  0  0  0  0  0
    1.9174    2.1936    0.0000 H   0  0  0  0  0  0  0  0  0  0  0  0
    1.5250    1.5140    0.0000 H   0  0  0  0  0  0  0  0  0  0  0  0
    1.5250    0.7170    0.0000 H   0  0  0  0  0  0  0  0  0  0  0  0
    5.8100    1.4446    0.0000 H   0  0  0  0  0  0  0  0  0  0  0  0
    6.8100    2.5185    0.0000 H   0  0  0  0  0  0  0  0  0  0  0  0
    8.6200    1.1155    0.0000 H   0  0  0  0  0  0  0  0  0  0  0  0
    6.1200    3.7136    0.0000 H   0  0  0  0  0  0  0  0  0  0  0  0
    8.9750    1.5830    0.0000 H   0  0  0  0  0  0  0  0  0  0  0  0
    8.9750    2.3801    0.0000 H   0  0  0  0  0  0  0  0  0  0  0  0
    5.6200    4.5796    0.0000 H   0  0  0  0  0  0  0  0  0  0  0  0
    8.1900   -0.2875    0.0000 H   0  0  0  0  0  0  0  0  0  0  0  0
   10.3100   -1.1535    0.0000 H   0  0  0  0  0  0  0  0  0  0  0  0
   10.8923   -1.2271    0.0000 H   0  0  0  0  0  0  0  0  0  0  0  0
   11.5826   -0.8286    0.0000 H   0  0  0  0  0  0  0  0  0  0  0  0
    7.5250    3.2461    0.0000 H   0  0  0  0  0  0  0  0  0  0  0  0
    7.5250    2.4490    0.0000 H   0  0  0  0  0  0  0  0  0  0  0  0
   10.8800    0.2495    0.0000 H   0  0  0  0  0  0  0  0  0  0  0  0
    9.4631   -3.0386    0.0000 H   0  0  0  0  0  0  0  0  0  0  0  0
    3.4174    4.3676    0.0000 H   0  0  0  0  0  0  0  0  0  0  0  0
    4.1077    3.9690    0.0000 H   0  0  0  0  0  0  0  0  0  0  0  0
   10.3291   -4.1586    0.0000 H   0  0  0  0  0  0  0  0  0  0  0  0
    8.8800   -1.4826    0.0000 H   0  0  0  0  0  0  0  0  0  0  0  0
   12.5000   -0.3705    0.0000 H   0  0  0  0  0  0  0  0  0  0  0  0
   13.1200    0.2495    0.0000 H   0  0  0  0  0  0  0  0  0  0  0  0
   12.5000    0.8695    0.0000 H   0  0  0  0  0  0  0  0  0  0  0  0
   11.5369    1.4255    0.0000 H   0  0  0  0  0  0  0  0  0  0  0  0
   10.6900    1.6524    0.0000 H   0  0  0  0  0  0  0  0  0  0  0  0
   10.4631    0.8055    0.0000 H   0  0  0  0  0  0  0  0  0  0  0  0
    9.1340   -4.4686    0.0000 H   0  0  0  0  0  0  0  0  0  0  0  0
    2.8800    5.4456    0.0000 H   0  0  0  0  0  0  0  0  0  0  0  0
   12.2690   -5.0386    0.0000 H   0  0  0  0  0  0  0  0  0  0  0  0
   11.1951   -2.0386    0.0000 H   0  0  0  0  0  0  0  0  0  0  0  0
    9.4631   -5.0386    0.0000 H   0  0  0  0  0  0  0  0  0  0  0  0
   12.5981   -4.4686    0.0000 H   0  0  0  0  0  0  0  0  0  0  0  0
    7.9389   -4.1586    0.0000 H   0  0  0  0  0  0  0  0  0  0  0  0
    5.3100    6.8486    0.0000 H   0  0  0  0  0  0  0  0  0  0  0  0
   12.2690   -6.6586    0.0000 H   0  0  0  0  0  0  0  0  0  0  0  0
   12.5981   -1.2286    0.0000 H   0  0  0  0  0  0  0  0  0  0  0  0
    9.4631   -6.6586    0.0000 H   0  0  0  0  0  0  0  0  0  0  0  0
   14.0010   -3.6586    0.0000 H   0  0  0  0  0  0  0  0  0  0  0  0
    6.9344   -2.8736    0.0000 H   0  0  0  0  0  0  0  0  0  0  0  0
    6.1374   -2.8736    0.0000 H   0  0  0  0  0  0  0  0  0  0  0  0
    8.3100    5.1165    0.0000 H   0  0  0  0  0  0  0  0  0  0  0  0
   10.8660   -7.4686    0.0000 H   0  0  0  0  0  0  0  0  0  0  0  0
   14.0010   -2.0386    0.0000 H   0  0  0  0  0  0  0  0  0  0  0  0
    6.8650   -5.1586    0.0000 H   0  0  0  0  0  0  0  0  0  0  0  0
    7.9389   -5.1586    0.0000 H   0  0  0  0  0  0  0  0  0  0  0  0
    4.2669   -3.6586    0.0000 H   0  0  0  0  0  0  0  0  0  0  0  0
  1 37  1  0  0  0  0
  1100  1  0  0  0  0
  2 27  2  0  0  0  0
  3 28  2  0  0  0  0
  4 34  2  0  0  0  0
  5 40  1  0  0  0  0
  5106  1  0  0  0  0
  6 41  2  0  0  0  0
  7 40  2  0  0  0  0
  8 46  1  0  0  0  0
  8113  1  0  0  0  0
  9 46  2  0  0  0  0
 10 47  2  0  0  0  0
 11 60  1  0  0  0  0
 11118  1  0  0  0  0
 12 60  2  0  0  0  0
 26 13  1  1  0  0  0
 13 28  1  0  0  0  0
 13 75  1  0  0  0  0
 14 27  1  0  0  0  0
 31 14  1  1  0  0  0
 14 77  1  0  0  0  0
 29 15  1  6  0  0  0
 15 34  1  0  0  0  0
 15 81  1  0  0  0  0
 32 16  1  6  0  0  0
 16 41  1  0  0  0  0
 16 92  1  0  0  0  0
 38 17  1  1  0  0  0
 17 47  1  0  0  0  0
 17 99  1  0  0  0  0
 52 18  1  1  0  0  0
 18116  1  0  0  0  0
 18117  1  0  0  0  0
 19 20  1  0  0  0  0
 19 21  1  0  0  0  0
 19 22  1  0  0  0  0
 19 61  1  0  0  0  0
 20 23  1  0  0  0  0
 20 62  1  0  0  0  0
 20 63  1  0  0  0  0
 21 24  1  0  0  0  0
 21 64  1  0  0  0  0
 21 65  1  0  0  0  0
 22 26  1  0  0  0  0
 22 66  1  0  0  0  0
 22 67  1  0  0  0  0
 23 25  1  0  0  0  0
 23 68  1  0  0  0  0
 23 69  1  0  0  0  0
 24 25  1  0  0  0  0
 24 70  1  0  0  0  0
 24 71  1  0  0  0  0
 25 72  1  0  0  0  0
 25 73  1  0  0  0  0
 26 27  1  0  0  0  0
 26 74  1  0  0  0  0
 28 29  1  0  0  0  0
 29 30  1  0  0  0  0
 29 76  1  0  0  0  0
 30 35  1  0  0  0  0
 30 78  1  0  0  0  0
 30 79  1  0  0  0  0
 31 37  1  0  0  0  0
 31 40  1  0  0  0  0
 31 80  1  0  0  0  0
 32 33  1  0  0  0  0
 32 34  1  0  0  0  0
 32 82  1  0  0  0  0
 33 36  1  0  0  0  0
 33 83  1  0  0  0  0
 33 84  1  0  0  0  0
 35 46  1  0  0  0  0
 35 85  1  0  0  0  0
 35 86  1  0  0  0  0
 36 42  1  0  0  0  0
 36 43  1  0  0  0  0
 36 87  1  0  0  0  0
 37 89  1  0  0  0  0
 37 90  1  0  0  0  0
 38 39  1  0  0  0  0
 38 41  1  0  0  0  0
 38 88  1  0  0  0  0
 39 44  1  0  0  0  0
 39 45  1  0  0  0  0
 39 91  1  0  0  0  0
 42 93  1  0  0  0  0
 42 94  1  0  0  0  0
 42 95  1  0  0  0  0
 43 96  1  0  0  0  0
 43 97  1  0  0  0  0
 43 98  1  0  0  0  0
 44 48  2  0  0  0  0
 44 50  1  0  0  0  0
 45 49  2  0  0  0  0
 45 51  1  0  0  0  0
 47 52  1  0  0  0  0
 48 53  1  0  0  0  0
 48101  1  0  0  0  0
 49 54  1  0  0  0  0
 49102  1  0  0  0  0
 50 55  2  0  0  0  0
 50103  1  0  0  0  0
 51 56  2  0  0  0  0
 51104  1  0  0  0  0
 52 57  1  0  0  0  0
 52105  1  0  0  0  0
 53 58  2  0  0  0  0
 53107  1  0  0  0  0
 54 59  2  0  0  0  0
 54108  1  0  0  0  0
 55 58  1  0  0  0  0
 55109  1  0  0  0  0
 56 59  1  0  0  0  0
 56110  1  0  0  0  0
 57 60  1  0  0  0  0
 57111  1  0  0  0  0
 57112  1  0  0  0  0
 58114  1  0  0  0  0
 59115  1  0  0  0  0
M  END
> <PUBCHEM_COMPOUND_CID>
512543
> <PUBCHEM_COMPOUND_CANONICALIZED>
1
> <PUBCHEM_CACTVS_COMPLEXITY>
1450
> <PUBCHEM_CACTVS_HBOND_ACCEPTOR>
13
> <PUBCHEM_CACTVS_HBOND_DONOR>
10
> <PUBCHEM_CACTVS_ROTATABLE_BOND>
24
> <PUBCHEM_CACTVS_SUBSKEYS>
AAADcfB/vABAAAAAAAAAAAAAAAAAAAAAAAAwYMAAAAAAAAABQAAAHgQQCAAADSjF2ASyCILAAgSIAiHSGAACAAAgAAAIiIGIAIgKYDqAkTGUYAAmlgCYiAe/n8KOgAAAAAAAAAAAAAAAAAAAAAAAAAAAAA==
> <PUBCHEM_IUPAC_OPENEYE_NAME>
(4S)-4-[[(2S)-2-[[(2R)-2-[[(2S)-2-amino-3-carboxy-propanoyl]amino]-3,3-diphenyl-propanoyl]amino]-4-methyl-pentanoyl]amino]-5-[[(1S)-2-[[(1R)-1-carboxy-2-sulfanyl-ethyl]amino]-1-(cyclohexylmethyl)-2-oxo-ethyl]amino]-5-oxo-pentanoic acid
> <PUBCHEM_IUPAC_CAS_NAME>
(4S)-4-[[(2S)-2-[[(2R)-2-[[(2S)-2-amino-3-carboxy-1-oxopropyl]amino]-1-oxo-3,3-diphenylpropyl]amino]-4-methyl-1-oxopentyl]amino]-5-[[(2S)-1-[[(1R)-1-carboxy-2-mercaptoethyl]amino]-3-cyclohexyl-1-oxopropan-2-yl]amino]-5-oxopentanoic acid
> <PUBCHEM_IUPAC_NAME_MARKUP>
(4<I>S</I>)-4-[[(2<I>S</I>)-2-[[(2<I>R</I>)-2-[[(2<I>S</I>)-2-amino-3-carboxypropanoyl]amino]-3,3-diphenylpropanoyl]amino]-4-methylpentanoyl]amino]-5-[[(2<I>S</I>)-1-[[(1<I>R</I>)-1-carboxy-2-sulfanylethyl]amino]-3-cyclohexyl-1-oxopropan-2-yl]amino]-5-oxopentanoic acid
> <PUBCHEM_IUPAC_NAME>
(4S)-4-[[(2S)-2-[[(2R)-2-[[(2S)-2-amino-3-carboxypropanoyl]amino]-3,3-diphenylpropanoyl]amino]-4-methylpentanoyl]amino]-5-[[(2S)-1-[[(1R)-1-carboxy-2-sulfanylethyl]amino]-3-cyclohexyl-1-oxopropan-2-yl]amino]-5-oxopentanoic acid
> <PUBCHEM_IUPAC_SYSTEMATIC_NAME>
(4S)-4-[[(2S)-2-[[(2R)-2-[[(2S)-2-azanyl-4-oxidanyl-4-oxidanylidene-butanoyl]amino]-3,3-diphenyl-propanoyl]amino]-4-methyl-pentanoyl]amino]-5-[[(2S)-3-cyclohexyl-1-oxidanylidene-1-[[(2R)-1-oxidanyl-1-oxidanylidene-3-sulfanyl-propan-2-yl]amino]propan-2-yl]amino]-5-oxidanylidene-pentanoic acid
> <PUBCHEM_IUPAC_TRADITIONAL_NAME>
(4S)-4-[[(2S)-2-[[(2R)-2-[[(2S)-2-amino-3-carboxy-propanoyl]amino]-3,3-diphenyl-propanoyl]amino]-4-methyl-pentanoyl]amino]-5-[[(1S)-2-[[(1R)-1-carboxy-2-mercapto-ethyl]amino]-1-(cyclohexylmethyl)-2-keto-ethyl]amino]-5-keto-valeric acid
> <PUBCHEM_IUPAC_INCHI>
InChI=1S/C42H58N6O11S/c1-24(2)20-30(46-41(57)36(48-37(53)28(43)22-34(51)52)35(26-14-8-4-9-15-26)27-16-10-5-11-17-27)39(55)44-29(18-19-33(49)50)38(54)45-31(21-25-12-6-3-7-13-25)40(56)47-32(23-60)42(58)59/h4-5,8-11,14-17,24-25,28-32,35-36,60H,3,6-7,12-13,18-23,43H2,1-2H3,(H,44,55)(H,45,54)(H,46,57)(H,47,56)(H,48,53)(H,49,50)(H,51,52)(H,58,59)/t28-,29-,30-,31-,32-,36+/m0/s1
> <PUBCHEM_IUPAC_INCHIKEY>
ASWWRZQNOQCTMI-LUIGKRHASA-N
> <PUBCHEM_XLOGP3_AA>
1.4
> <PUBCHEM_EXACT_MASS>
854.38842786
> <PUBCHEM_MOLECULAR_FORMULA>
C42H58N6O11S
> <PUBCHEM_MOLECULAR_WEIGHT>
855.0
> <PUBCHEM_OPENEYE_CAN_SMILES>
CC(C)CC(C(=O)NC(CCC(=O)O)C(=O)NC(CC1CCCCC1)C(=O)NC(CS)C(=O)O)NC(=O)C(C(C2=CC=CC=C2)C3=CC=CC=C3)NC(=O)C(CC(=O)O)N
> <PUBCHEM_OPENEYE_ISO_SMILES>
CC(C)C[C@@H](C(=O)N[C@@H](CCC(=O)O)C(=O)N[C@@H](CC1CCCCC1)C(=O)N[C@@H](CS)C(=O)O)NC(=O)[C@@H](C(C2=CC=CC=C2)C3=CC=CC=C3)NC(=O)[C@H](CC(=O)O)N
> <PUBCHEM_CACTVS_TPSA>
284
> <PUBCHEM_MONOISOTOPIC_WEIGHT>
854.38842786
> <PUBCHEM_TOTAL_CHARGE>
0
> <PUBCHEM_HEAVY_ATOM_COUNT>
60
> <PUBCHEM_ATOM_DEF_STEREO_COUNT>
6
> <PUBCHEM_ATOM_UDEF_STEREO_COUNT>
0
> <PUBCHEM_BOND_DEF_STEREO_COUNT>
0
> <PUBCHEM_BOND_UDEF_STEREO_COUNT>
0
> <PUBCHEM_ISOTOPIC_ATOM_COUNT>
0
> <PUBCHEM_COMPONENT_COUNT>
1
> <PUBCHEM_CACTVS_TAUTO_COUNT>
-1
> <PUBCHEM_COORDINATE_TYPE>
1
5
255
> <PUBCHEM_BONDANNOTATIONS>
26  13  5
31  14  5
29  15  6
32  16  6
38  17  5
52  18  5
44  48  8
44  50  8
45  49  8
45  51  8
48  53  8
49  54  8
50  55  8
51  56  8
53  58  8
54  59  8
55  58  8
56  59  8
$$$$
