512531
  -OEChem-10302200282D
118120  0     1  0  0  0  0  0999 V2000
   12.9292    6.1550    0.0000 S   0  0  0  0  0  0  0  0  0  0  0  0
   13.7953    3.6550    0.0000 O   0  0  0  0  0  0  0  0  0  0  0  0
   12.9292    0.1550    0.0000 O   0  0  0  0  0  0  0  0  0  0  0  0
    9.4651   -0.8450    0.0000 O   0  0  0  0  0  0  0  0  0  0  0  0
   11.1972    6.1550    0.0000 O   0  0  0  0  0  0  0  0  0  0  0  0
   10.3312    4.6550    0.0000 O   0  0  0  0  0  0  0  0  0  0  0  0
    8.5991   -1.3450    0.0000 O   0  0  0  0  0  0  0  0  0  0  0  0
    6.0010   -3.8450    0.0000 O   0  0  0  0  0  0  0  0  0  0  0  0
    6.0010   -5.8450    0.0000 O   0  0  0  0  0  0  0  0  0  0  0  0
    7.7331   -5.8450    0.0000 O   0  0  0  0  0  0  0  0  0  0  0  0
    2.5369   -2.8450    0.0000 O   0  0  0  0  0  0  0  0  0  0  0  0
    3.4030   -1.3450    0.0000 O   0  0  0  0  0  0  0  0  0  0  0  0
   12.0632    1.6550    0.0000 N   0  0  0  0  0  0  0  0  0  0  0  0
   12.0632    3.6550    0.0000 N   0  0  0  0  0  0  0  0  0  0  0  0
   11.1972   -0.8450    0.0000 N   0  0  0  0  0  0  0  0  0  0  0  0
    9.4651   -2.8450    0.0000 N   0  0  0  0  0  0  0  0  0  0  0  0
    6.8671   -2.3450    0.0000 N   0  0  0  0  0  0  0  0  0  0  0  0
    5.1350   -1.3450    0.0000 N   0  0  0  0  0  0  0  0  0  0  0  0
   14.6613    2.1550    0.0000 C   0  0  0  0  0  0  0  0  0  0  0  0
   14.6613    3.1550    0.0000 C   0  0  0  0  0  0  0  0  0  0  0  0
   15.5273    1.6550    0.0000 C   0  0  0  0  0  0  0  0  0  0  0  0
   13.7953    1.6550    0.0000 C   0  0  0  0  0  0  0  0  0  0  0  0
   15.5273    3.6550    0.0000 C   0  0  0  0  0  0  0  0  0  0  0  0
   16.3933    2.1550    0.0000 C   0  0  0  0  0  0  0  0  0  0  0  0
   16.3933    3.1550    0.0000 C   0  0  0  0  0  0  0  0  0  0  0  0
   12.9292    2.1550    0.0000 C   0  0  1  0  0  0  0  0  0  0  0  0
   12.9292    3.1550    0.0000 C   0  0  0  0  0  0  0  0  0  0  0  0
   11.1972    0.1550    0.0000 C   0  0  2  0  0  0  0  0  0  0  0  0
   12.0632    0.6550    0.0000 C   0  0  0  0  0  0  0  0  0  0  0  0
   10.3312    0.6550    0.0000 C   0  0  2  0  0  0  0  0  0  0  0  0
   10.3312    1.6550    0.0000 C   0  0  0  0  0  0  0  0  0  0  0  0
    9.4651    0.1550    0.0000 C   0  0  0  0  0  0  0  0  0  0  0  0
   12.0632    4.6550    0.0000 C   0  0  1  0  0  0  0  0  0  0  0  0
   10.3312   -2.3450    0.0000 C   0  0  2  0  0  0  0  0  0  0  0  0
   10.3312   -1.3450    0.0000 C   0  0  0  0  0  0  0  0  0  0  0  0
   11.1972   -2.8450    0.0000 C   0  0  0  0  0  0  0  0  0  0  0  0
    9.4651    2.1550    0.0000 C   0  0  0  0  0  0  0  0  0  0  0  0
   12.9292    5.1550    0.0000 C   0  0  0  0  0  0  0  0  0  0  0  0
   11.1972   -3.8450    0.0000 C   0  0  0  0  0  0  0  0  0  0  0  0
   12.1972   -2.8450    0.0000 C   0  0  0  0  0  0  0  0  0  0  0  0
   11.1972    5.1550    0.0000 C   0  0  0  0  0  0  0  0  0  0  0  0
    8.5991   -2.3450    0.0000 C   0  0  0  0  0  0  0  0  0  0  0  0
    7.7331   -2.8450    0.0000 C   0  0  2  0  0  0  0  0  0  0  0  0
   12.0632   -4.3450    0.0000 C   0  0  0  0  0  0  0  0  0  0  0  0
   12.6972   -1.9790    0.0000 C   0  0  0  0  0  0  0  0  0  0  0  0
   10.3312   -4.3450    0.0000 C   0  0  0  0  0  0  0  0  0  0  0  0
   12.6972   -3.7110    0.0000 C   0  0  0  0  0  0  0  0  0  0  0  0
    7.7331   -3.8450    0.0000 C   0  0  0  0  0  0  0  0  0  0  0  0
   12.0632   -5.3450    0.0000 C   0  0  0  0  0  0  0  0  0  0  0  0
   13.6972   -1.9790    0.0000 C   0  0  0  0  0  0  0  0  0  0  0  0
   10.3312   -5.3450    0.0000 C   0  0  0  0  0  0  0  0  0  0  0  0
   13.6972   -3.7110    0.0000 C   0  0  0  0  0  0  0  0  0  0  0  0
    6.8671   -4.3450    0.0000 C   0  0  0  0  0  0  0  0  0  0  0  0
   11.1972   -5.8450    0.0000 C   0  0  0  0  0  0  0  0  0  0  0  0
   14.1972   -2.8450    0.0000 C   0  0  0  0  0  0  0  0  0  0  0  0
    6.0010   -2.8450    0.0000 C   0  0  0  0  0  0  0  0  0  0  0  0
    5.1350   -2.3450    0.0000 C   0  0  2  0  0  0  0  0  0  0  0  0
    6.8671   -5.3450    0.0000 C   0  0  0  0  0  0  0  0  0  0  0  0
    4.2690   -2.8450    0.0000 C   0  0  0  0  0  0  0  0  0  0  0  0
    3.4030   -2.3450    0.0000 C   0  0  0  0  0  0  0  0  0  0  0  0
   14.1244    2.4650    0.0000 H   0  0  0  0  0  0  0  0  0  0  0  0
   14.4492    3.7376    0.0000 H   0  0  0  0  0  0  0  0  0  0  0  0
   14.0507    3.0473    0.0000 H   0  0  0  0  0  0  0  0  0  0  0  0
   15.1288    1.1800    0.0000 H   0  0  0  0  0  0  0  0  0  0  0  0
   15.9258    1.1800    0.0000 H   0  0  0  0  0  0  0  0  0  0  0  0
   13.3967    1.1800    0.0000 H   0  0  0  0  0  0  0  0  0  0  0  0
   14.1938    1.1800    0.0000 H   0  0  0  0  0  0  0  0  0  0  0  0
   15.9258    4.1300    0.0000 H   0  0  0  0  0  0  0  0  0  0  0  0
   15.1288    4.1300    0.0000 H   0  0  0  0  0  0  0  0  0  0  0  0
   16.6054    1.5724    0.0000 H   0  0  0  0  0  0  0  0  0  0  0  0
   17.0039    2.2627    0.0000 H   0  0  0  0  0  0  0  0  0  0  0  0
   17.0039    3.0473    0.0000 H   0  0  0  0  0  0  0  0  0  0  0  0
   16.6054    3.7376    0.0000 H   0  0  0  0  0  0  0  0  0  0  0  0
   12.3923    2.4650    0.0000 H   0  0  0  0  0  0  0  0  0  0  0  0
   11.5263    1.9650    0.0000 H   0  0  0  0  0  0  0  0  0  0  0  0
   10.6603   -0.1550    0.0000 H   0  0  0  0  0  0  0  0  0  0  0  0
    9.7942    0.9650    0.0000 H   0  0  0  0  0  0  0  0  0  0  0  0
   11.5263    3.3450    0.0000 H   0  0  0  0  0  0  0  0  0  0  0  0
   11.7341   -1.1550    0.0000 H   0  0  0  0  0  0  0  0  0  0  0  0
   10.9417    1.5473    0.0000 H   0  0  0  0  0  0  0  0  0  0  0  0
   10.5432    2.2376    0.0000 H   0  0  0  0  0  0  0  0  0  0  0  0
    9.1551    0.6919    0.0000 H   0  0  0  0  0  0  0  0  0  0  0  0
    8.9282   -0.1550    0.0000 H   0  0  0  0  0  0  0  0  0  0  0  0
    9.7751   -0.3819    0.0000 H   0  0  0  0  0  0  0  0  0  0  0  0
    9.7942   -2.0350    0.0000 H   0  0  0  0  0  0  0  0  0  0  0  0
   12.6002    4.3450    0.0000 H   0  0  0  0  0  0  0  0  0  0  0  0
   11.3577   -2.2461    0.0000 H   0  0  0  0  0  0  0  0  0  0  0  0
    9.7751    2.6919    0.0000 H   0  0  0  0  0  0  0  0  0  0  0  0
    8.9282    2.4650    0.0000 H   0  0  0  0  0  0  0  0  0  0  0  0
    9.1551    1.6181    0.0000 H   0  0  0  0  0  0  0  0  0  0  0  0
   13.1413    4.5724    0.0000 H   0  0  0  0  0  0  0  0  0  0  0  0
   13.5398    5.2627    0.0000 H   0  0  0  0  0  0  0  0  0  0  0  0
    9.4651   -3.4650    0.0000 H   0  0  0  0  0  0  0  0  0  0  0  0
    7.7331   -2.2250    0.0000 H   0  0  0  0  0  0  0  0  0  0  0  0
   12.6002   -4.0350    0.0000 H   0  0  0  0  0  0  0  0  0  0  0  0
   12.3872   -1.4420    0.0000 H   0  0  0  0  0  0  0  0  0  0  0  0
    9.7942   -4.0350    0.0000 H   0  0  0  0  0  0  0  0  0  0  0  0
   12.3872   -4.2480    0.0000 H   0  0  0  0  0  0  0  0  0  0  0  0
    7.9451   -4.4276    0.0000 H   0  0  0  0  0  0  0  0  0  0  0  0
    8.3437   -3.7373    0.0000 H   0  0  0  0  0  0  0  0  0  0  0  0
   13.4662    6.4650    0.0000 H   0  0  0  0  0  0  0  0  0  0  0  0
    6.8671   -1.7250    0.0000 H   0  0  0  0  0  0  0  0  0  0  0  0
   12.6002   -5.6550    0.0000 H   0  0  0  0  0  0  0  0  0  0  0  0
   14.0072   -1.4420    0.0000 H   0  0  0  0  0  0  0  0  0  0  0  0
    9.7942   -5.6550    0.0000 H   0  0  0  0  0  0  0  0  0  0  0  0
   14.0072   -4.2480    0.0000 H   0  0  0  0  0  0  0  0  0  0  0  0
    6.6550   -3.7624    0.0000 H   0  0  0  0  0  0  0  0  0  0  0  0
    6.2565   -4.4527    0.0000 H   0  0  0  0  0  0  0  0  0  0  0  0
   10.6603    6.4650    0.0000 H   0  0  0  0  0  0  0  0  0  0  0  0
   11.1972   -6.4650    0.0000 H   0  0  0  0  0  0  0  0  0  0  0  0
   14.8172   -2.8450    0.0000 H   0  0  0  0  0  0  0  0  0  0  0  0
    5.6720   -2.0350    0.0000 H   0  0  0  0  0  0  0  0  0  0  0  0
    3.8705   -3.3200    0.0000 H   0  0  0  0  0  0  0  0  0  0  0  0
    4.6675   -3.3200    0.0000 H   0  0  0  0  0  0  0  0  0  0  0  0
    4.5981   -1.0350    0.0000 H   0  0  0  0  0  0  0  0  0  0  0  0
    5.6720   -1.0350    0.0000 H   0  0  0  0  0  0  0  0  0  0  0  0
    6.0010   -6.4650    0.0000 H   0  0  0  0  0  0  0  0  0  0  0  0
    2.0000   -2.5350    0.0000 H   0  0  0  0  0  0  0  0  0  0  0  0
  1 38  1  0  0  0  0
  1101  1  0  0  0  0
  2 27  2  0  0  0  0
  3 29  2  0  0  0  0
  4 35  2  0  0  0  0
  5 41  1  0  0  0  0
  5109  1  0  0  0  0
  6 41  2  0  0  0  0
  7 42  2  0  0  0  0
  8 56  2  0  0  0  0
  9 58  1  0  0  0  0
  9117  1  0  0  0  0
 10 58  2  0  0  0  0
 11 60  1  0  0  0  0
 11118  1  0  0  0  0
 12 60  2  0  0  0  0
 26 13  1  6  0  0  0
 13 29  1  0  0  0  0
 13 75  1  0  0  0  0
 14 27  1  0  0  0  0
 33 14  1  6  0  0  0
 14 78  1  0  0  0  0
 28 15  1  1  0  0  0
 15 35  1  0  0  0  0
 15 79  1  0  0  0  0
 34 16  1  6  0  0  0
 16 42  1  0  0  0  0
 16 93  1  0  0  0  0
 43 17  1  6  0  0  0
 17 56  1  0  0  0  0
 17102  1  0  0  0  0
 57 18  1  6  0  0  0
 18115  1  0  0  0  0
 18116  1  0  0  0  0
 19 20  1  0  0  0  0
 19 21  1  0  0  0  0
 19 22  1  0  0  0  0
 19 61  1  0  0  0  0
 20 23  1  0  0  0  0
 20 62  1  0  0  0  0
 20 63  1  0  0  0  0
 21 24  1  0  0  0  0
 21 64  1  0  0  0  0
 21 65  1  0  0  0  0
 22 26  1  0  0  0  0
 22 66  1  0  0  0  0
 22 67  1  0  0  0  0
 23 25  1  0  0  0  0
 23 68  1  0  0  0  0
 23 69  1  0  0  0  0
 24 25  1  0  0  0  0
 24 70  1  0  0  0  0
 24 71  1  0  0  0  0
 25 72  1  0  0  0  0
 25 73  1  0  0  0  0
 26 27  1  0  0  0  0
 26 74  1  0  0  0  0
 28 29  1  0  0  0  0
 28 30  1  0  0  0  0
 28 76  1  0  0  0  0
 30 31  1  0  0  0  0
 30 32  1  1  0  0  0
 30 77  1  0  0  0  0
 31 37  1  0  0  0  0
 31 80  1  0  0  0  0
 31 81  1  0  0  0  0
 32 82  1  0  0  0  0
 32 83  1  0  0  0  0
 32 84  1  0  0  0  0
 33 38  1  0  0  0  0
 33 41  1  0  0  0  0
 33 86  1  0  0  0  0
 34 35  1  0  0  0  0
 34 36  1  0  0  0  0
 34 85  1  0  0  0  0
 36 39  1  0  0  0  0
 36 40  1  0  0  0  0
 36 87  1  0  0  0  0
 37 88  1  0  0  0  0
 37 89  1  0  0  0  0
 37 90  1  0  0  0  0
 38 91  1  0  0  0  0
 38 92  1  0  0  0  0
 39 44  2  0  0  0  0
 39 46  1  0  0  0  0
 40 45  2  0  0  0  0
 40 47  1  0  0  0  0
 42 43  1  0  0  0  0
 43 48  1  0  0  0  0
 43 94  1  0  0  0  0
 44 49  1  0  0  0  0
 44 95  1  0  0  0  0
 45 50  1  0  0  0  0
 45 96  1  0  0  0  0
 46 51  2  0  0  0  0
 46 97  1  0  0  0  0
 47 52  2  0  0  0  0
 47 98  1  0  0  0  0
 48 53  1  0  0  0  0
 48 99  1  0  0  0  0
 48100  1  0  0  0  0
 49 54  2  0  0  0  0
 49103  1  0  0  0  0
 50 55  2  0  0  0  0
 50104  1  0  0  0  0
 51 54  1  0  0  0  0
 51105  1  0  0  0  0
 52 55  1  0  0  0  0
 52106  1  0  0  0  0
 53 58  1  0  0  0  0
 53107  1  0  0  0  0
 53108  1  0  0  0  0
 54110  1  0  0  0  0
 55111  1  0  0  0  0
 56 57  1  0  0  0  0
 57 59  1  0  0  0  0
 57112  1  0  0  0  0
 59 60  1  0  0  0  0
 59113  1  0  0  0  0
 59114  1  0  0  0  0
M  END
> <PUBCHEM_COMPOUND_CID>
512531
> <PUBCHEM_COMPOUND_CANONICALIZED>
1
> <PUBCHEM_CACTVS_COMPLEXITY>
1450
> <PUBCHEM_CACTVS_HBOND_ACCEPTOR>
13
> <PUBCHEM_CACTVS_HBOND_DONOR>
10
> <PUBCHEM_CACTVS_ROTATABLE_BOND>
24
> <PUBCHEM_CACTVS_SUBSKEYS>
AAADcfB/vABAAAAAAAAAAAAAAAAAAAAAAAAwYMAAAAAAAAABQAAAHgQQCAAADSjF2ASyCILAAgSIAiHSGAACAAAgAAAIiIGIAIgKYDqAkTGUYAAmlgCYiAe/n8KOgAAAAAAAAAAAAAAAAAAAAAAAAAAAAA==
> <PUBCHEM_IUPAC_OPENEYE_NAME>
(4S)-4-[[(2S)-2-amino-3-carboxy-propanoyl]amino]-5-[[(1S)-1-benzhydryl-2-[[(1S,2S)-1-[[(1S)-2-[[(1R)-1-carboxy-2-sulfanyl-ethyl]amino]-1-(cyclohexylmethyl)-2-oxo-ethyl]carbamoyl]-2-methyl-butyl]amino]-2-oxo-ethyl]amino]-5-oxo-pentanoic acid
> <PUBCHEM_IUPAC_CAS_NAME>
(4S)-4-[[(2S)-2-amino-3-carboxy-1-oxopropyl]amino]-5-[[(2S)-1-[[(2S,3S)-1-[[(2S)-1-[[(1R)-1-carboxy-2-mercaptoethyl]amino]-3-cyclohexyl-1-oxopropan-2-yl]amino]-3-methyl-1-oxopentan-2-yl]amino]-1-oxo-3,3-diphenylpropan-2-yl]amino]-5-oxopentanoic acid
> <PUBCHEM_IUPAC_NAME_MARKUP>
(4<I>S</I>)-4-[[(2<I>S</I>)-2-amino-3-carboxypropanoyl]amino]-5-[[(2<I>S</I>)-1-[[(2<I>S</I>,3<I>S</I>)-1-[[(2<I>S</I>)-1-[[(1<I>R</I>)-1-carboxy-2-sulfanylethyl]amino]-3-cyclohexyl-1-oxopropan-2-yl]amino]-3-methyl-1-oxopentan-2-yl]amino]-1-oxo-3,3-diphenylpropan-2-yl]amino]-5-oxopentanoic acid
> <PUBCHEM_IUPAC_NAME>
(4S)-4-[[(2S)-2-amino-3-carboxypropanoyl]amino]-5-[[(2S)-1-[[(2S,3S)-1-[[(2S)-1-[[(1R)-1-carboxy-2-sulfanylethyl]amino]-3-cyclohexyl-1-oxopropan-2-yl]amino]-3-methyl-1-oxopentan-2-yl]amino]-1-oxo-3,3-diphenylpropan-2-yl]amino]-5-oxopentanoic acid
> <PUBCHEM_IUPAC_SYSTEMATIC_NAME>
(4S)-4-[[(2S)-2-azanyl-4-oxidanyl-4-oxidanylidene-butanoyl]amino]-5-[[(2S)-1-[[(2S,3S)-1-[[(2S)-3-cyclohexyl-1-oxidanylidene-1-[[(2R)-1-oxidanyl-1-oxidanylidene-3-sulfanyl-propan-2-yl]amino]propan-2-yl]amino]-3-methyl-1-oxidanylidene-pentan-2-yl]amino]-1-oxidanylidene-3,3-diphenyl-propan-2-yl]amino]-5-oxidanylidene-pentanoic acid
> <PUBCHEM_IUPAC_TRADITIONAL_NAME>
(4S)-4-[[(2S)-2-amino-3-carboxy-propanoyl]amino]-5-[[(1S)-1-benzhydryl-2-[[(1S,2S)-1-[[(1S)-2-[[(1R)-1-carboxy-2-mercapto-ethyl]amino]-1-(cyclohexylmethyl)-2-keto-ethyl]carbamoyl]-2-methyl-butyl]amino]-2-keto-ethyl]amino]-5-keto-valeric acid
> <PUBCHEM_IUPAC_INCHI>
InChI=1S/C42H58N6O11S/c1-3-24(2)35(40(56)45-30(21-25-13-7-4-8-14-25)39(55)46-31(23-60)42(58)59)47-41(57)36(34(26-15-9-5-10-16-26)27-17-11-6-12-18-27)48-38(54)29(19-20-32(49)50)44-37(53)28(43)22-33(51)52/h5-6,9-12,15-18,24-25,28-31,34-36,60H,3-4,7-8,13-14,19-23,43H2,1-2H3,(H,44,53)(H,45,56)(H,46,55)(H,47,57)(H,48,54)(H,49,50)(H,51,52)(H,58,59)/t24-,28-,29-,30-,31-,35-,36-/m0/s1
> <PUBCHEM_IUPAC_INCHIKEY>
UWBHDSZOIFODGT-UUDZHZMVSA-N
> <PUBCHEM_XLOGP3_AA>
1.4
> <PUBCHEM_EXACT_MASS>
854.38842786
> <PUBCHEM_MOLECULAR_FORMULA>
C42H58N6O11S
> <PUBCHEM_MOLECULAR_WEIGHT>
855.0
> <PUBCHEM_OPENEYE_CAN_SMILES>
CCC(C)C(C(=O)NC(CC1CCCCC1)C(=O)NC(CS)C(=O)O)NC(=O)C(C(C2=CC=CC=C2)C3=CC=CC=C3)NC(=O)C(CCC(=O)O)NC(=O)C(CC(=O)O)N
> <PUBCHEM_OPENEYE_ISO_SMILES>
CC[C@H](C)[C@@H](C(=O)N[C@@H](CC1CCCCC1)C(=O)N[C@@H](CS)C(=O)O)NC(=O)[C@H](C(C2=CC=CC=C2)C3=CC=CC=C3)NC(=O)[C@H](CCC(=O)O)NC(=O)[C@H](CC(=O)O)N
> <PUBCHEM_CACTVS_TPSA>
284
> <PUBCHEM_MONOISOTOPIC_WEIGHT>
854.38842786
> <PUBCHEM_TOTAL_CHARGE>
0
> <PUBCHEM_HEAVY_ATOM_COUNT>
60
> <PUBCHEM_ATOM_DEF_STEREO_COUNT>
7
> <PUBCHEM_ATOM_UDEF_STEREO_COUNT>
0
> <PUBCHEM_BOND_DEF_STEREO_COUNT>
0
> <PUBCHEM_BOND_UDEF_STEREO_COUNT>
0
> <PUBCHEM_ISOTOPIC_ATOM_COUNT>
0
> <PUBCHEM_COMPONENT_COUNT>
1
> <PUBCHEM_CACTVS_TAUTO_COUNT>
-1
> <PUBCHEM_COORDINATE_TYPE>
1
5
255
> <PUBCHEM_BONDANNOTATIONS>
26  13  6
33  14  6
28  15  5
34  16  6
43  17  6
57  18  6
30  32  5
39  44  8
39  46  8
40  45  8
40  47  8
44  49  8
45  50  8
46  51  8
47  52  8
49  54  8
50  55  8
51  54  8
52  55  8
$$$$
