512546
  -OEChem-10302200282D
124126  0     1  0  0  0  0  0999 V2000
    8.5991    1.4777    0.0000 S   0  0  0  0  0  0  0  0  0  0  0  0
    3.4030   -4.5223    0.0000 S   0  0  0  0  0  0  0  0  0  0  0  0
    6.0010   -4.0223    0.0000 O   0  0  0  0  0  0  0  0  0  0  0  0
    8.5991   -1.5223    0.0000 O   0  0  0  0  0  0  0  0  0  0  0  0
    7.5991    1.4777    0.0000 O   0  0  0  0  0  0  0  0  0  0  0  0
    9.5991    1.4777    0.0000 O   0  0  0  0  0  0  0  0  0  0  0  0
    9.4651   -1.0223    0.0000 O   0  0  0  0  0  0  0  0  0  0  0  0
    2.5369   -3.0223    0.0000 O   0  0  0  0  0  0  0  0  0  0  0  0
    3.4030   -1.5223    0.0000 O   0  0  0  0  0  0  0  0  0  0  0  0
    4.2690   -0.0223    0.0000 O   0  0  0  0  0  0  0  0  0  0  0  0
    5.1350    1.4777    0.0000 O   0  0  0  0  0  0  0  0  0  0  0  0
   12.9292   -1.0223    0.0000 O   0  0  0  0  0  0  0  0  0  0  0  0
   15.5273    1.4777    0.0000 O   0  0  0  0  0  0  0  0  0  0  0  0
   15.5273    3.4777    0.0000 O   0  0  0  0  0  0  0  0  0  0  0  0
   13.7953    3.4777    0.0000 O   0  0  0  0  0  0  0  0  0  0  0  0
   18.9914    0.4777    0.0000 O   0  0  0  0  0  0  0  0  0  0  0  0
   18.1254   -1.0223    0.0000 O   0  0  0  0  0  0  0  0  0  0  0  0
    6.8671   -1.5223    0.0000 N   0  0  0  0  0  0  0  0  0  0  0  0
    5.1350   -2.5223    0.0000 N   0  0  0  0  0  0  0  0  0  0  0  0
    8.5991    0.4777    0.0000 N   0  0  0  0  0  0  0  0  0  0  0  0
   12.0632    0.4777    0.0000 N   0  0  0  0  0  0  0  0  0  0  0  0
   11.1972   -1.0223    0.0000 N   0  0  0  0  0  0  0  0  0  0  0  0
   10.3475    5.5123    0.0000 N   0  0  0  0  0  0  0  0  0  0  0  0
   14.6613   -0.0223    0.0000 N   0  0  0  0  0  0  0  0  0  0  0  0
   16.3933   -1.0223    0.0000 N   0  0  0  0  0  0  0  0  0  0  0  0
    7.7331   -4.0223    0.0000 C   0  0  0  0  0  0  0  0  0  0  0  0
    6.8671   -4.5223    0.0000 C   0  0  0  0  0  0  0  0  0  0  0  0
    8.5991   -4.5223    0.0000 C   0  0  0  0  0  0  0  0  0  0  0  0
    7.7331   -3.0223    0.0000 C   0  0  0  0  0  0  0  0  0  0  0  0
    6.8671   -5.5223    0.0000 C   0  0  0  0  0  0  0  0  0  0  0  0
    8.5991   -5.5223    0.0000 C   0  0  0  0  0  0  0  0  0  0  0  0
    7.7331   -6.0223    0.0000 C   0  0  0  0  0  0  0  0  0  0  0  0
    6.8671   -2.5223    0.0000 C   0  0  1  0  0  0  0  0  0  0  0  0
    6.0010   -3.0223    0.0000 C   0  0  0  0  0  0  0  0  0  0  0  0
    7.7331   -1.0223    0.0000 C   0  0  0  0  0  0  0  0  0  0  0  0
    7.7331   -0.0223    0.0000 C   0  0  2  0  0  0  0  0  0  0  0  0
    6.8671    0.4777    0.0000 C   0  0  0  0  0  0  0  0  0  0  0  0
    4.2690   -3.0223    0.0000 C   0  0  1  0  0  0  0  0  0  0  0  0
    6.0010   -0.0223    0.0000 C   0  0  0  0  0  0  0  0  0  0  0  0
    9.4651   -0.0223    0.0000 C   0  0  0  0  0  0  0  0  0  0  0  0
    4.2690   -4.0223    0.0000 C   0  0  0  0  0  0  0  0  0  0  0  0
    8.5991    2.4777    0.0000 C   0  0  0  0  0  0  0  0  0  0  0  0
   10.3312    0.4777    0.0000 C   0  0  0  0  0  0  0  0  0  0  0  0
    3.4030   -2.5223    0.0000 C   0  0  0  0  0  0  0  0  0  0  0  0
   11.1972   -0.0223    0.0000 C   0  0  3  0  0  0  0  0  0  0  0  0
    9.4651    2.9777    0.0000 C   0  0  0  0  0  0  0  0  0  0  0  0
    5.1350    0.4777    0.0000 C   0  0  0  0  0  0  0  0  0  0  0  0
    7.7331    2.9777    0.0000 C   0  0  0  0  0  0  0  0  0  0  0  0
    9.4651    3.9777    0.0000 C   0  0  0  0  0  0  0  0  0  0  0  0
   10.3591    2.4430    0.0000 C   0  0  0  0  0  0  0  0  0  0  0  0
    7.7331    3.9777    0.0000 C   0  0  0  0  0  0  0  0  0  0  0  0
    8.5991    4.4777    0.0000 C   0  0  0  0  0  0  0  0  0  0  0  0
   10.3591    4.5124    0.0000 C   0  0  0  0  0  0  0  0  0  0  0  0
   12.9292   -0.0223    0.0000 C   0  0  0  0  0  0  0  0  0  0  0  0
   13.7953    0.4777    0.0000 C   0  0  2  0  0  0  0  0  0  0  0  0
   11.2651    2.9569    0.0000 C   0  0  0  0  0  0  0  0  0  0  0  0
   11.2651    3.9985    0.0000 C   0  0  0  0  0  0  0  0  0  0  0  0
   13.7953    1.4777    0.0000 C   0  0  0  0  0  0  0  0  0  0  0  0
   14.6613    1.9777    0.0000 C   0  0  0  0  0  0  0  0  0  0  0  0
   11.2077    6.0223    0.0000 C   0  0  0  0  0  0  0  0  0  0  0  0
    9.4758    6.0023    0.0000 C   0  0  0  0  0  0  0  0  0  0  0  0
   15.5273    0.4777    0.0000 C   0  0  0  0  0  0  0  0  0  0  0  0
   16.3933   -0.0223    0.0000 C   0  0  2  0  0  0  0  0  0  0  0  0
   14.6613    2.9777    0.0000 C   0  0  0  0  0  0  0  0  0  0  0  0
   17.2594    0.4777    0.0000 C   0  0  0  0  0  0  0  0  0  0  0  0
   18.1254   -0.0223    0.0000 C   0  0  0  0  0  0  0  0  0  0  0  0
    8.2700   -3.7123    0.0000 H   0  0  0  0  0  0  0  0  0  0  0  0
    6.6550   -3.9397    0.0000 H   0  0  0  0  0  0  0  0  0  0  0  0
    6.2565   -4.6300    0.0000 H   0  0  0  0  0  0  0  0  0  0  0  0
    9.2097   -4.6300    0.0000 H   0  0  0  0  0  0  0  0  0  0  0  0
    8.8112   -3.9397    0.0000 H   0  0  0  0  0  0  0  0  0  0  0  0
    8.3437   -3.1300    0.0000 H   0  0  0  0  0  0  0  0  0  0  0  0
    7.9451   -2.4397    0.0000 H   0  0  0  0  0  0  0  0  0  0  0  0
    6.2565   -5.4146    0.0000 H   0  0  0  0  0  0  0  0  0  0  0  0
    6.6550   -6.1049    0.0000 H   0  0  0  0  0  0  0  0  0  0  0  0
    8.8112   -6.1049    0.0000 H   0  0  0  0  0  0  0  0  0  0  0  0
    9.2097   -5.4146    0.0000 H   0  0  0  0  0  0  0  0  0  0  0  0
    7.3346   -6.4972    0.0000 H   0  0  0  0  0  0  0  0  0  0  0  0
    8.1316   -6.4972    0.0000 H   0  0  0  0  0  0  0  0  0  0  0  0
    6.3301   -2.2123    0.0000 H   0  0  0  0  0  0  0  0  0  0  0  0
    6.3301   -1.2123    0.0000 H   0  0  0  0  0  0  0  0  0  0  0  0
    7.7331    0.5977    0.0000 H   0  0  0  0  0  0  0  0  0  0  0  0
    5.1350   -1.9023    0.0000 H   0  0  0  0  0  0  0  0  0  0  0  0
    7.2656    0.9527    0.0000 H   0  0  0  0  0  0  0  0  0  0  0  0
    6.4685    0.9527    0.0000 H   0  0  0  0  0  0  0  0  0  0  0  0
    4.2690   -2.4023    0.0000 H   0  0  0  0  0  0  0  0  0  0  0  0
    5.6025   -0.4972    0.0000 H   0  0  0  0  0  0  0  0  0  0  0  0
    6.3996   -0.4972    0.0000 H   0  0  0  0  0  0  0  0  0  0  0  0
    4.4810   -4.6049    0.0000 H   0  0  0  0  0  0  0  0  0  0  0  0
    4.8796   -3.9146    0.0000 H   0  0  0  0  0  0  0  0  0  0  0  0
   10.7297    0.9527    0.0000 H   0  0  0  0  0  0  0  0  0  0  0  0
    9.9326    0.9527    0.0000 H   0  0  0  0  0  0  0  0  0  0  0  0
   10.6603   -0.3323    0.0000 H   0  0  0  0  0  0  0  0  0  0  0  0
    7.1962    2.6677    0.0000 H   0  0  0  0  0  0  0  0  0  0  0  0
   12.0632    1.0977    0.0000 H   0  0  0  0  0  0  0  0  0  0  0  0
   10.3519    1.8231    0.0000 H   0  0  0  0  0  0  0  0  0  0  0  0
    3.4030   -5.1423    0.0000 H   0  0  0  0  0  0  0  0  0  0  0  0
    7.1962    4.2877    0.0000 H   0  0  0  0  0  0  0  0  0  0  0  0
    8.5991    5.0977    0.0000 H   0  0  0  0  0  0  0  0  0  0  0  0
   11.7341   -1.3323    0.0000 H   0  0  0  0  0  0  0  0  0  0  0  0
   10.6603   -1.3323    0.0000 H   0  0  0  0  0  0  0  0  0  0  0  0
    2.0000   -2.7123    0.0000 H   0  0  0  0  0  0  0  0  0  0  0  0
   14.3322    0.7877    0.0000 H   0  0  0  0  0  0  0  0  0  0  0  0
   11.8009    2.6448    0.0000 H   0  0  0  0  0  0  0  0  0  0  0  0
   11.8009    4.3106    0.0000 H   0  0  0  0  0  0  0  0  0  0  0  0
    3.7320    0.2877    0.0000 H   0  0  0  0  0  0  0  0  0  0  0  0
   13.5832    2.0603    0.0000 H   0  0  0  0  0  0  0  0  0  0  0  0
   13.1847    1.3700    0.0000 H   0  0  0  0  0  0  0  0  0  0  0  0
   14.6613   -0.6423    0.0000 H   0  0  0  0  0  0  0  0  0  0  0  0
   14.8733    1.3951    0.0000 H   0  0  0  0  0  0  0  0  0  0  0  0
   15.2719    2.0854    0.0000 H   0  0  0  0  0  0  0  0  0  0  0  0
   11.5239    5.4890    0.0000 H   0  0  0  0  0  0  0  0  0  0  0  0
   11.7410    6.3385    0.0000 H   0  0  0  0  0  0  0  0  0  0  0  0
   10.8915    6.5556    0.0000 H   0  0  0  0  0  0  0  0  0  0  0  0
    9.7795    6.5427    0.0000 H   0  0  0  0  0  0  0  0  0  0  0  0
    8.9353    6.3060    0.0000 H   0  0  0  0  0  0  0  0  0  0  0  0
    9.1720    5.4618    0.0000 H   0  0  0  0  0  0  0  0  0  0  0  0
   16.9303   -0.3323    0.0000 H   0  0  0  0  0  0  0  0  0  0  0  0
   17.6579    0.9527    0.0000 H   0  0  0  0  0  0  0  0  0  0  0  0
   16.8608    0.9527    0.0000 H   0  0  0  0  0  0  0  0  0  0  0  0
   16.9303   -1.3323    0.0000 H   0  0  0  0  0  0  0  0  0  0  0  0
   15.8564   -1.3323    0.0000 H   0  0  0  0  0  0  0  0  0  0  0  0
   15.5273    4.0977    0.0000 H   0  0  0  0  0  0  0  0  0  0  0  0
   19.5284    0.1677    0.0000 H   0  0  0  0  0  0  0  0  0  0  0  0
  1  5  2  0  0  0  0
  1  6  2  0  0  0  0
  1 20  1  0  0  0  0
  1 42  1  0  0  0  0
  2 41  1  0  0  0  0
  2 97  1  0  0  0  0
  3 34  2  0  0  0  0
  4 35  2  0  0  0  0
  7 40  2  0  0  0  0
  8 44  1  0  0  0  0
  8102  1  0  0  0  0
  9 44  2  0  0  0  0
 10 47  1  0  0  0  0
 10106  1  0  0  0  0
 11 47  2  0  0  0  0
 12 54  2  0  0  0  0
 13 62  2  0  0  0  0
 14 64  1  0  0  0  0
 14123  1  0  0  0  0
 15 64  2  0  0  0  0
 16 66  1  0  0  0  0
 16124  1  0  0  0  0
 17 66  2  0  0  0  0
 33 18  1  1  0  0  0
 18 35  1  0  0  0  0
 18 81  1  0  0  0  0
 19 34  1  0  0  0  0
 38 19  1  1  0  0  0
 19 83  1  0  0  0  0
 36 20  1  6  0  0  0
 20 40  1  0  0  0  0
 21 45  1  0  0  0  0
 21 54  1  0  0  0  0
 21 95  1  0  0  0  0
 22 45  1  0  0  0  0
 22100  1  0  0  0  0
 22101  1  0  0  0  0
 23 53  1  0  0  0  0
 23 60  1  0  0  0  0
 23 61  1  0  0  0  0
 55 24  1  6  0  0  0
 24 62  1  0  0  0  0
 24109  1  0  0  0  0
 63 25  1  6  0  0  0
 25121  1  0  0  0  0
 25122  1  0  0  0  0
 26 27  1  0  0  0  0
 26 28  1  0  0  0  0
 26 29  1  0  0  0  0
 26 67  1  0  0  0  0
 27 30  1  0  0  0  0
 27 68  1  0  0  0  0
 27 69  1  0  0  0  0
 28 31  1  0  0  0  0
 28 70  1  0  0  0  0
 28 71  1  0  0  0  0
 29 33  1  0  0  0  0
 29 72  1  0  0  0  0
 29 73  1  0  0  0  0
 30 32  1  0  0  0  0
 30 74  1  0  0  0  0
 30 75  1  0  0  0  0
 31 32  1  0  0  0  0
 31 76  1  0  0  0  0
 31 77  1  0  0  0  0
 32 78  1  0  0  0  0
 32 79  1  0  0  0  0
 33 34  1  0  0  0  0
 33 80  1  0  0  0  0
 35 36  1  0  0  0  0
 36 37  1  0  0  0  0
 36 82  1  0  0  0  0
 37 39  1  0  0  0  0
 37 84  1  0  0  0  0
 37 85  1  0  0  0  0
 38 41  1  0  0  0  0
 38 44  1  0  0  0  0
 38 86  1  0  0  0  0
 39 47  1  0  0  0  0
 39 87  1  0  0  0  0
 39 88  1  0  0  0  0
 40 43  1  0  0  0  0
 41 89  1  0  0  0  0
 41 90  1  0  0  0  0
 42 46  1  0  0  0  0
 42 48  2  0  0  0  0
 43 45  1  0  0  0  0
 43 91  1  0  0  0  0
 43 92  1  0  0  0  0
 45 93  1  0  0  0  0
 46 49  2  0  0  0  0
 46 50  1  0  0  0  0
 48 51  1  0  0  0  0
 48 94  1  0  0  0  0
 49 52  1  0  0  0  0
 49 53  1  0  0  0  0
 50 56  2  0  0  0  0
 50 96  1  0  0  0  0
 51 52  2  0  0  0  0
 51 98  1  0  0  0  0
 52 99  1  0  0  0  0
 53 57  2  0  0  0  0
 54 55  1  0  0  0  0
 55 58  1  0  0  0  0
 55103  1  0  0  0  0
 56 57  1  0  0  0  0
 56104  1  0  0  0  0
 57105  1  0  0  0  0
 58 59  1  0  0  0  0
 58107  1  0  0  0  0
 58108  1  0  0  0  0
 59 64  1  0  0  0  0
 59110  1  0  0  0  0
 59111  1  0  0  0  0
 60112  1  0  0  0  0
 60113  1  0  0  0  0
 60114  1  0  0  0  0
 61115  1  0  0  0  0
 61116  1  0  0  0  0
 61117  1  0  0  0  0
 62 63  1  0  0  0  0
 63 65  1  0  0  0  0
 63118  1  0  0  0  0
 65 66  1  0  0  0  0
 65119  1  0  0  0  0
 65120  1  0  0  0  0
M  END
> <PUBCHEM_COMPOUND_CID>
512546
> <PUBCHEM_COMPOUND_CANONICALIZED>
1
> <PUBCHEM_CACTVS_COMPLEXITY>
1860
> <PUBCHEM_CACTVS_HBOND_ACCEPTOR>
19
> <PUBCHEM_CACTVS_HBOND_DONOR>
11
> <PUBCHEM_CACTVS_ROTATABLE_BOND>
26
> <PUBCHEM_CACTVS_SUBSKEYS>
AAADcfB//ABgAAAAAAAAAAAAAAAAAAAAAAAwYMAAAAAAAADBUAAAHgQQSAAADSjF2ASzycPAAgaIAiXSWHDCABAhAgAIiJmIZIiKYDrA0bGUYAhmlwLYyAe/n4KOgAAAwAAWAAAAAAGAACwAAAAAAAAAAA==
> <PUBCHEM_IUPAC_OPENEYE_NAME>
(4S)-5-[[1-amino-3-[[(1S)-3-carboxy-1-[[(1S)-2-[[(1R)-1-carboxy-2-sulfanyl-ethyl]amino]-1-(cyclohexylmethyl)-2-oxo-ethyl]carbamoyl]propyl]-[[5-(dimethylamino)-1-naphthyl]sulfonyl]amino]-3-oxo-propyl]amino]-4-[[(2S)-2-amino-3-carboxy-propanoyl]amino]-5-oxo-pentanoic acid
> <PUBCHEM_IUPAC_CAS_NAME>
(4S)-5-[[1-amino-3-[[(2S)-4-carboxy-1-[[(2S)-1-[[(1R)-1-carboxy-2-mercaptoethyl]amino]-3-cyclohexyl-1-oxopropan-2-yl]amino]-1-oxobutan-2-yl]-[[5-(dimethylamino)-1-naphthalenyl]sulfonyl]amino]-3-oxopropyl]amino]-4-[[(2S)-2-amino-3-carboxy-1-oxopropyl]amino]-5-oxopentanoic acid
> <PUBCHEM_IUPAC_NAME_MARKUP>
(4<I>S</I>)-5-[[1-amino-3-[[(2<I>S</I>)-4-carboxy-1-[[(2<I>S</I>)-1-[[(1<I>R</I>)-1-carboxy-2-sulfanylethyl]amino]-3-cyclohexyl-1-oxopropan-2-yl]amino]-1-oxobutan-2-yl]-[5-(dimethylamino)naphthalen-1-yl]sulfonylamino]-3-oxopropyl]amino]-4-[[(2<I>S</I>)-2-amino-3-carboxypropanoyl]amino]-5-oxopentanoic acid
> <PUBCHEM_IUPAC_NAME>
(4S)-5-[[1-amino-3-[[(2S)-4-carboxy-1-[[(2S)-1-[[(1R)-1-carboxy-2-sulfanylethyl]amino]-3-cyclohexyl-1-oxopropan-2-yl]amino]-1-oxobutan-2-yl]-[5-(dimethylamino)naphthalen-1-yl]sulfonylamino]-3-oxopropyl]amino]-4-[[(2S)-2-amino-3-carboxypropanoyl]amino]-5-oxopentanoic acid
> <PUBCHEM_IUPAC_SYSTEMATIC_NAME>
(4S)-5-[[1-azanyl-3-[[(2S)-1-[[(2S)-3-cyclohexyl-1-oxidanylidene-1-[[(2R)-1-oxidanyl-1-oxidanylidene-3-sulfanyl-propan-2-yl]amino]propan-2-yl]amino]-5-oxidanyl-1,5-bis(oxidanylidene)pentan-2-yl]-[5-(dimethylamino)naphthalen-1-yl]sulfonyl-amino]-3-oxidanylidene-propyl]amino]-4-[[(2S)-2-azanyl-4-oxidanyl-4-oxidanylidene-butanoyl]amino]-5-oxidanylidene-pentanoic acid
> <PUBCHEM_IUPAC_TRADITIONAL_NAME>
(4S)-5-[[1-amino-3-[[(1S)-3-carboxy-1-[[(1S)-2-[[(1R)-1-carboxy-2-mercapto-ethyl]amino]-1-(cyclohexylmethyl)-2-keto-ethyl]carbamoyl]propyl]-naphthionyl-amino]-3-keto-propyl]amino]-4-[[(2S)-2-amino-3-carboxy-propanoyl]amino]-5-keto-valeric acid
> <PUBCHEM_IUPAC_INCHI>
InChI=1S/C41H58N8O15S2/c1-48(2)29-12-6-11-24-23(29)10-7-13-31(24)66(63,64)49(33(50)20-32(43)47-38(58)26(14-16-34(51)52)44-37(57)25(42)19-36(55)56)30(15-17-35(53)54)40(60)45-27(18-22-8-4-3-5-9-22)39(59)46-28(21-65)41(61)62/h6-7,10-13,22,25-28,30,32,65H,3-5,8-9,14-21,42-43H2,1-2H3,(H,44,57)(H,45,60)(H,46,59)(H,47,58)(H,51,52)(H,53,54)(H,55,56)(H,61,62)/t25-,26-,27-,28-,30-,32?/m0/s1
> <PUBCHEM_IUPAC_INCHIKEY>
WIWVOBJHMWGCFO-YRYPYVDFSA-N
> <PUBCHEM_XLOGP3_AA>
-4.4
> <PUBCHEM_EXACT_MASS>
966.34630552
> <PUBCHEM_MOLECULAR_FORMULA>
C41H58N8O15S2
> <PUBCHEM_MOLECULAR_WEIGHT>
967.1
> <PUBCHEM_OPENEYE_CAN_SMILES>
CN(C)C1=CC=CC2=C1C=CC=C2S(=O)(=O)N(C(CCC(=O)O)C(=O)NC(CC3CCCCC3)C(=O)NC(CS)C(=O)O)C(=O)CC(N)NC(=O)C(CCC(=O)O)NC(=O)C(CC(=O)O)N
> <PUBCHEM_OPENEYE_ISO_SMILES>
CN(C)C1=CC=CC2=C1C=CC=C2S(=O)(=O)N([C@@H](CCC(=O)O)C(=O)N[C@@H](CC3CCCCC3)C(=O)N[C@@H](CS)C(=O)O)C(=O)CC(N)NC(=O)[C@H](CCC(=O)O)NC(=O)[C@H](CC(=O)O)N
> <PUBCHEM_CACTVS_TPSA>
385
> <PUBCHEM_MONOISOTOPIC_WEIGHT>
966.34630552
> <PUBCHEM_TOTAL_CHARGE>
0
> <PUBCHEM_HEAVY_ATOM_COUNT>
66
> <PUBCHEM_ATOM_DEF_STEREO_COUNT>
5
> <PUBCHEM_ATOM_UDEF_STEREO_COUNT>
1
> <PUBCHEM_BOND_DEF_STEREO_COUNT>
0
> <PUBCHEM_BOND_UDEF_STEREO_COUNT>
0
> <PUBCHEM_ISOTOPIC_ATOM_COUNT>
0
> <PUBCHEM_COMPONENT_COUNT>
1
> <PUBCHEM_CACTVS_TAUTO_COUNT>
-1
> <PUBCHEM_COORDINATE_TYPE>
1
5
255
> <PUBCHEM_BONDANNOTATIONS>
33  18  5
38  19  5
36  20  6
45  22  3
55  24  6
63  25  6
42  46  8
42  48  8
46  49  8
46  50  8
48  51  8
49  52  8
49  53  8
50  56  8
51  52  8
53  57  8
56  57  8
$$$$
