512695
  -OEChem-10302200282D
 56 58  0     1  0  0  0  0  0999 V2000
    5.3548   -0.3013    0.0000 S   0  0  0  0  0  0  0  0  0  0  0  0
    4.4026    2.2003    0.0000 O   0  0  0  0  0  0  0  0  0  0  0  0
    6.7485    3.2921    0.0000 O   0  0  0  0  0  0  0  0  0  0  0  0
    6.7523    1.1166    0.0000 O   0  0  0  0  0  0  0  0  0  0  0  0
    5.7735   -4.6400    0.0000 O   0  0  0  0  0  0  0  0  0  0  0  0
    7.0586   -3.4788    0.0000 O   0  0  0  0  0  0  0  0  0  0  0  0
    4.6783    3.9608    0.0000 N   0  0  0  0  0  0  0  0  0  0  0  0
    2.8660    3.7656    0.0000 N   0  0  0  0  0  0  0  0  0  0  0  0
    2.0000    5.2656    0.0000 N   0  0  0  0  0  0  0  0  0  0  0  0
    2.8660    6.7656    0.0000 N   0  0  0  0  0  0  0  0  0  0  0  0
    4.4327   -3.1560    0.0000 N   0  0  0  0  0  0  0  0  0  0  0  0
    5.9405    2.7030    0.0000 C   0  0  2  0  0  0  0  0  0  0  0  0
    5.9422    1.7030    0.0000 C   0  0  1  0  0  0  0  0  0  0  0  0
    4.9889    3.0103    0.0000 C   0  0  1  0  0  0  0  0  0  0  0  0
    4.9917    1.3923    0.0000 C   0  0  1  0  0  0  0  0  0  0  0  0
    4.6844    0.4407    0.0000 C   0  0  0  0  0  0  0  0  0  0  0  0
    3.7320    4.2656    0.0000 C   0  0  0  0  0  0  0  0  0  0  0  0
    5.2619    4.7656    0.0000 C   0  0  0  0  0  0  0  0  0  0  0  0
    3.7320    5.2656    0.0000 C   0  0  0  0  0  0  0  0  0  0  0  0
    4.6783    5.5703    0.0000 C   0  0  0  0  0  0  0  0  0  0  0  0
    5.0474   -1.2529    0.0000 C   0  0  0  0  0  0  0  0  0  0  0  0
    5.7178   -1.9948    0.0000 C   0  0  0  0  0  0  0  0  0  0  0  0
    2.8660    5.7656    0.0000 C   0  0  0  0  0  0  0  0  0  0  0  0
    5.4104   -2.9464    0.0000 C   0  0  3  0  0  0  0  0  0  0  0  0
    2.0000    4.2656    0.0000 C   0  0  0  0  0  0  0  0  0  0  0  0
    6.0809   -3.6884    0.0000 C   0  0  0  0  0  0  0  0  0  0  0  0
    6.4439   -5.3820    0.0000 C   0  0  0  0  0  0  0  0  0  0  0  0
    6.1365   -6.3336    0.0000 C   0  0  0  0  0  0  0  0  0  0  0  0
    6.8070   -7.0756    0.0000 C   0  0  0  0  0  0  0  0  0  0  0  0
    5.8425    3.3152    0.0000 H   0  0  0  0  0  0  0  0  0  0  0  0
    6.4942    1.9854    0.0000 H   0  0  0  0  0  0  0  0  0  0  0  0
    5.4266    3.4495    0.0000 H   0  0  0  0  0  0  0  0  0  0  0  0
    4.3795    1.2942    0.0000 H   0  0  0  0  0  0  0  0  0  0  0  0
    4.1364    0.7308    0.0000 H   0  0  0  0  0  0  0  0  0  0  0  0
    4.3035   -0.0485    0.0000 H   0  0  0  0  0  0  0  0  0  0  0  0
    7.3154    3.0410    0.0000 H   0  0  0  0  0  0  0  0  0  0  0  0
    7.3182    1.3697    0.0000 H   0  0  0  0  0  0  0  0  0  0  0  0
    5.8819    4.7656    0.0000 H   0  0  0  0  0  0  0  0  0  0  0  0
    4.8709    6.1596    0.0000 H   0  0  0  0  0  0  0  0  0  0  0  0
    4.4995   -0.9627    0.0000 H   0  0  0  0  0  0  0  0  0  0  0  0
    4.6665   -1.7421    0.0000 H   0  0  0  0  0  0  0  0  0  0  0  0
    6.2658   -2.2850    0.0000 H   0  0  0  0  0  0  0  0  0  0  0  0
    6.0987   -1.5056    0.0000 H   0  0  0  0  0  0  0  0  0  0  0  0
    5.2199   -3.5364    0.0000 H   0  0  0  0  0  0  0  0  0  0  0  0
    1.4631    3.9556    0.0000 H   0  0  0  0  0  0  0  0  0  0  0  0
    2.3291    7.0756    0.0000 H   0  0  0  0  0  0  0  0  0  0  0  0
    3.4030    7.0756    0.0000 H   0  0  0  0  0  0  0  0  0  0  0  0
    4.2421   -3.7460    0.0000 H   0  0  0  0  0  0  0  0  0  0  0  0
    4.0170   -2.6960    0.0000 H   0  0  0  0  0  0  0  0  0  0  0  0
    6.9918   -5.6721    0.0000 H   0  0  0  0  0  0  0  0  0  0  0  0
    6.8248   -4.8928    0.0000 H   0  0  0  0  0  0  0  0  0  0  0  0
    5.5886   -6.0435    0.0000 H   0  0  0  0  0  0  0  0  0  0  0  0
    5.7557   -6.8228    0.0000 H   0  0  0  0  0  0  0  0  0  0  0  0
    6.3469   -7.4912    0.0000 H   0  0  0  0  0  0  0  0  0  0  0  0
    7.2226   -7.5356    0.0000 H   0  0  0  0  0  0  0  0  0  0  0  0
    7.2670   -6.6599    0.0000 H   0  0  0  0  0  0  0  0  0  0  0  0
  1 16  1  0  0  0  0
  1 21  1  0  0  0  0
  2 14  1  0  0  0  0
  2 15  1  0  0  0  0
 12  3  1  6  0  0  0
  3 36  1  0  0  0  0
 13  4  1  6  0  0  0
  4 37  1  0  0  0  0
  5 26  1  0  0  0  0
  5 27  1  0  0  0  0
  6 26  2  0  0  0  0
 14  7  1  1  0  0  0
  7 17  1  0  0  0  0
  7 18  1  0  0  0  0
  8 17  2  0  0  0  0
  8 25  1  0  0  0  0
  9 23  1  0  0  0  0
  9 25  2  0  0  0  0
 10 23  1  0  0  0  0
 10 46  1  0  0  0  0
 10 47  1  0  0  0  0
 11 24  1  0  0  0  0
 11 48  1  0  0  0  0
 11 49  1  0  0  0  0
 12 13  1  0  0  0  0
 12 14  1  0  0  0  0
 12 30  1  0  0  0  0
 13 15  1  0  0  0  0
 13 31  1  0  0  0  0
 14 32  1  0  0  0  0
 15 16  1  1  0  0  0
 15 33  1  0  0  0  0
 16 34  1  0  0  0  0
 16 35  1  0  0  0  0
 17 19  1  0  0  0  0
 18 20  2  0  0  0  0
 18 38  1  0  0  0  0
 19 20  1  0  0  0  0
 19 23  2  0  0  0  0
 20 39  1  0  0  0  0
 21 22  1  0  0  0  0
 21 40  1  0  0  0  0
 21 41  1  0  0  0  0
 22 24  1  0  0  0  0
 22 42  1  0  0  0  0
 22 43  1  0  0  0  0
 24 26  1  0  0  0  0
 24 44  1  0  0  0  0
 25 45  1  0  0  0  0
 27 28  1  0  0  0  0
 27 50  1  0  0  0  0
 27 51  1  0  0  0  0
 28 29  1  0  0  0  0
 28 52  1  0  0  0  0
 28 53  1  0  0  0  0
 29 54  1  0  0  0  0
 29 55  1  0  0  0  0
 29 56  1  0  0  0  0
M  END
> <PUBCHEM_COMPOUND_CID>
512695
> <PUBCHEM_COMPOUND_CANONICALIZED>
1
> <PUBCHEM_CACTVS_COMPLEXITY>
547
> <PUBCHEM_CACTVS_HBOND_ACCEPTOR>
10
> <PUBCHEM_CACTVS_HBOND_DONOR>
4
> <PUBCHEM_CACTVS_ROTATABLE_BOND>
10
> <PUBCHEM_CACTVS_SUBSKEYS>
AAADceB7uABAAAAAAAAAAAAAAAAAAWJAAAAsAAAAAAAAAFgB+AAAHgQQCAAADDzl2wa/uN9MFgioAjL3bACCgCkxArAJ2KG4ZJiLONJgyMEPRAhPEALzQCCwAAAIAAAAAAAAAAAAAAAAAAAAAAAAAAAAAA==
> <PUBCHEM_IUPAC_OPENEYE_NAME>
propyl 2-amino-4-[[(2S,3S,4R,5R)-5-(4-aminopyrrolo[2,3-d]pyrimidin-7-yl)-3,4-dihydroxy-tetrahydrofuran-2-yl]methylsulfanyl]butanoate
> <PUBCHEM_IUPAC_CAS_NAME>
2-amino-4-[[(2S,3S,4R,5R)-5-(4-amino-7-pyrrolo[2,3-d]pyrimidinyl)-3,4-dihydroxy-2-oxolanyl]methylthio]butanoic acid propyl ester
> <PUBCHEM_IUPAC_NAME_MARKUP>
propyl 2-amino-4-[[(2<I>S</I>,3<I>S</I>,4<I>R</I>,5<I>R</I>)-5-(4-aminopyrrolo[2,3-d]pyrimidin-7-yl)-3,4-dihydroxyoxolan-2-yl]methylsulfanyl]butanoate
> <PUBCHEM_IUPAC_NAME>
propyl 2-amino-4-[[(2S,3S,4R,5R)-5-(4-aminopyrrolo[2,3-d]pyrimidin-7-yl)-3,4-dihydroxyoxolan-2-yl]methylsulfanyl]butanoate
> <PUBCHEM_IUPAC_SYSTEMATIC_NAME>
propyl 2-azanyl-4-[[(2S,3S,4R,5R)-5-(4-azanylpyrrolo[2,3-d]pyrimidin-7-yl)-3,4-bis(oxidanyl)oxolan-2-yl]methylsulfanyl]butanoate
> <PUBCHEM_IUPAC_TRADITIONAL_NAME>
2-amino-4-[[(2S,3S,4R,5R)-5-(4-aminopyrrolo[2,3-d]pyrimidin-7-yl)-3,4-dihydroxy-tetrahydrofuran-2-yl]methylthio]butyric acid propyl ester
> <PUBCHEM_IUPAC_INCHI>
InChI=1S/C18H27N5O5S/c1-2-6-27-18(26)11(19)4-7-29-8-12-13(24)14(25)17(28-12)23-5-3-10-15(20)21-9-22-16(10)23/h3,5,9,11-14,17,24-25H,2,4,6-8,19H2,1H3,(H2,20,21,22)/t11?,12-,13-,14-,17-/m1/s1
> <PUBCHEM_IUPAC_INCHIKEY>
AAHPSBJBNZAQCO-OJUGKFCDSA-N
> <PUBCHEM_XLOGP3_AA>
-0.3
> <PUBCHEM_EXACT_MASS>
425.17329015
> <PUBCHEM_MOLECULAR_FORMULA>
C18H27N5O5S
> <PUBCHEM_MOLECULAR_WEIGHT>
425.5
> <PUBCHEM_OPENEYE_CAN_SMILES>
CCCOC(=O)C(CCSCC1C(C(C(O1)N2C=CC3=C(N=CN=C32)N)O)O)N
> <PUBCHEM_OPENEYE_ISO_SMILES>
CCCOC(=O)C(CCSC[C@@H]1[C@H]([C@H]([C@@H](O1)N2C=CC3=C(N=CN=C32)N)O)O)N
> <PUBCHEM_CACTVS_TPSA>
184
> <PUBCHEM_MONOISOTOPIC_WEIGHT>
425.17329015
> <PUBCHEM_TOTAL_CHARGE>
0
> <PUBCHEM_HEAVY_ATOM_COUNT>
29
> <PUBCHEM_ATOM_DEF_STEREO_COUNT>
4
> <PUBCHEM_ATOM_UDEF_STEREO_COUNT>
1
> <PUBCHEM_BOND_DEF_STEREO_COUNT>
0
> <PUBCHEM_BOND_UDEF_STEREO_COUNT>
0
> <PUBCHEM_ISOTOPIC_ATOM_COUNT>
0
> <PUBCHEM_COMPONENT_COUNT>
1
> <PUBCHEM_CACTVS_TAUTO_COUNT>
-1
> <PUBCHEM_COORDINATE_TYPE>
1
5
255
> <PUBCHEM_BONDANNOTATIONS>
24  11  3
15  16  5
17  19  8
18  20  8
19  20  8
19  23  8
12  3  6
13  4  6
14  7  5
7  17  8
7  18  8
8  17  8
8  25  8
9  23  8
9  25  8
$$$$
