512677
  -OEChem-10302200282D
 37 38  0     1  0  0  0  0  0999 V2000
    6.8301    3.2475    0.0000 F   0  0  0  0  0  0  0  0  0  0  0  0
    5.8301    1.5155    0.0000 F   0  0  0  0  0  0  0  0  0  0  0  0
    4.5411   -0.7063    0.0000 O   0  0  0  0  0  0  0  0  0  0  0  0
    2.6443   -2.4664    0.0000 O   0  0  0  0  0  0  0  0  0  0  0  0
    4.4131   -3.3799    0.0000 O   0  0  0  0  0  0  0  0  0  0  0  0
    2.0000    0.8815    0.0000 O   0  0  0  0  0  0  0  0  0  0  0  0
    7.1962    1.8815    0.0000 O   0  0  0  0  0  0  0  0  0  0  0  0
    3.7320    3.8815    0.0000 O   0  0  0  0  0  0  0  0  0  0  0  0
    3.7320    0.8815    0.0000 N   0  0  0  0  0  0  0  0  0  0  0  0
    4.5981    1.3815    0.0000 N   0  0  0  0  0  0  0  0  0  0  0  0
    2.8660    2.3815    0.0000 N   0  0  0  0  0  0  0  0  0  0  0  0
    3.2320   -1.6573    0.0000 C   0  0  1  0  0  0  0  0  0  0  0  0
    2.9230   -0.7063    0.0000 C   0  0  0  0  0  0  0  0  0  0  0  0
    3.7320   -0.1185    0.0000 C   0  0  1  0  0  0  0  0  0  0  0  0
    4.2320   -1.6573    0.0000 C   0  0  1  0  0  0  0  0  0  0  0  0
    4.8198   -2.4664    0.0000 C   0  0  0  0  0  0  0  0  0  0  0  0
    2.8660    1.3815    0.0000 C   0  0  0  0  0  0  0  0  0  0  0  0
    4.5981    2.3815    0.0000 C   0  0  0  0  0  0  0  0  0  0  0  0
    5.4641    2.8815    0.0000 C   0  0  0  0  0  0  0  0  0  0  0  0
    3.7320    2.8815    0.0000 C   0  0  0  0  0  0  0  0  0  0  0  0
    6.3301    2.3815    0.0000 C   0  0  0  0  0  0  0  0  0  0  0  0
    8.0622    2.3815    0.0000 C   0  0  0  0  0  0  0  0  0  0  0  0
    3.5135   -2.2098    0.0000 H   0  0  0  0  0  0  0  0  0  0  0  0
    2.6130   -0.1694    0.0000 H   0  0  0  0  0  0  0  0  0  0  0  0
    2.3566   -0.9585    0.0000 H   0  0  0  0  0  0  0  0  0  0  0  0
    4.2845    0.1630    0.0000 H   0  0  0  0  0  0  0  0  0  0  0  0
    4.8444   -1.5603    0.0000 H   0  0  0  0  0  0  0  0  0  0  0  0
    5.3338   -2.8131    0.0000 H   0  0  0  0  0  0  0  0  0  0  0  0
    5.2505   -2.0204    0.0000 H   0  0  0  0  0  0  0  0  0  0  0  0
    2.0277   -2.4016    0.0000 H   0  0  0  0  0  0  0  0  0  0  0  0
    2.3291    2.6915    0.0000 H   0  0  0  0  0  0  0  0  0  0  0  0
    5.8626    3.3564    0.0000 H   0  0  0  0  0  0  0  0  0  0  0  0
    5.0656    3.3564    0.0000 H   0  0  0  0  0  0  0  0  0  0  0  0
    4.7775   -3.8815    0.0000 H   0  0  0  0  0  0  0  0  0  0  0  0
    8.3722    1.8446    0.0000 H   0  0  0  0  0  0  0  0  0  0  0  0
    8.5991    2.6915    0.0000 H   0  0  0  0  0  0  0  0  0  0  0  0
    7.7522    2.9184    0.0000 H   0  0  0  0  0  0  0  0  0  0  0  0
  1 21  1  0  0  0  0
  2 21  1  0  0  0  0
  3 14  1  0  0  0  0
  3 15  1  0  0  0  0
 12  4  1  1  0  0  0
  4 30  1  0  0  0  0
  5 16  1  0  0  0  0
  5 34  1  0  0  0  0
  6 17  2  0  0  0  0
  7 21  1  0  0  0  0
  7 22  1  0  0  0  0
  8 20  2  0  0  0  0
  9 10  1  0  0  0  0
 14  9  1  6  0  0  0
  9 17  1  0  0  0  0
 10 18  2  0  0  0  0
 11 17  1  0  0  0  0
 11 20  1  0  0  0  0
 11 31  1  0  0  0  0
 12 13  1  0  0  0  0
 12 15  1  0  0  0  0
 12 23  1  0  0  0  0
 13 14  1  0  0  0  0
 13 24  1  0  0  0  0
 13 25  1  0  0  0  0
 14 26  1  0  0  0  0
 15 16  1  6  0  0  0
 15 27  1  0  0  0  0
 16 28  1  0  0  0  0
 16 29  1  0  0  0  0
 18 19  1  0  0  0  0
 18 20  1  0  0  0  0
 19 21  1  0  0  0  0
 19 32  1  0  0  0  0
 19 33  1  0  0  0  0
 22 35  1  0  0  0  0
 22 36  1  0  0  0  0
 22 37  1  0  0  0  0
M  END
> <PUBCHEM_COMPOUND_CID>
512677
> <PUBCHEM_COMPOUND_CANONICALIZED>
1
> <PUBCHEM_CACTVS_COMPLEXITY>
500
> <PUBCHEM_CACTVS_HBOND_ACCEPTOR>
9
> <PUBCHEM_CACTVS_HBOND_DONOR>
3
> <PUBCHEM_CACTVS_ROTATABLE_BOND>
5
> <PUBCHEM_CACTVS_SUBSKEYS>
AAADccBzOYAAAAAAAAAAAAAAAAAAASAAAAAgAAAAAAAAAAAAAAAAHwAYCAAACBzhgBYDAALABgAoAQEwEAAQAAAAAAAWAAE4AACBEBIAgAAOQAAfDyIDAACyMAIAAAAAAAAAAAAAAAAAAAAAAAAAAAAAAA==
> <PUBCHEM_IUPAC_OPENEYE_NAME>
6-(2,2-difluoro-2-methoxy-ethyl)-2-[(2R,4S,5R)-4-hydroxy-5-(hydroxymethyl)tetrahydrofuran-2-yl]-1,2,4-triazine-3,5-dione
> <PUBCHEM_IUPAC_CAS_NAME>
6-(2,2-difluoro-2-methoxyethyl)-2-[(2R,4S,5R)-4-hydroxy-5-(hydroxymethyl)-2-oxolanyl]-1,2,4-triazine-3,5-dione
> <PUBCHEM_IUPAC_NAME_MARKUP>
6-(2,2-difluoro-2-methoxyethyl)-2-[(2<I>R</I>,4<I>S</I>,5<I>R</I>)-4-hydroxy-5-(hydroxymethyl)oxolan-2-yl]-1,2,4-triazine-3,5-dione
> <PUBCHEM_IUPAC_NAME>
6-(2,2-difluoro-2-methoxyethyl)-2-[(2R,4S,5R)-4-hydroxy-5-(hydroxymethyl)oxolan-2-yl]-1,2,4-triazine-3,5-dione
> <PUBCHEM_IUPAC_SYSTEMATIC_NAME>
6-[2,2-bis(fluoranyl)-2-methoxy-ethyl]-2-[(2R,4S,5R)-5-(hydroxymethyl)-4-oxidanyl-oxolan-2-yl]-1,2,4-triazine-3,5-dione
> <PUBCHEM_IUPAC_TRADITIONAL_NAME>
6-(2,2-difluoro-2-methoxy-ethyl)-2-[(2R,4S,5R)-4-hydroxy-5-methylol-tetrahydrofuran-2-yl]-1,2,4-triazine-3,5-quinone
> <PUBCHEM_IUPAC_INCHI>
InChI=1S/C11H15F2N3O6/c1-21-11(12,13)3-5-9(19)14-10(20)16(15-5)8-2-6(18)7(4-17)22-8/h6-8,17-18H,2-4H2,1H3,(H,14,19,20)/t6-,7+,8+/m0/s1
> <PUBCHEM_IUPAC_INCHIKEY>
AOZKTLVSDRBXSH-XLPZGREQSA-N
> <PUBCHEM_XLOGP3_AA>
-0.7
> <PUBCHEM_EXACT_MASS>
323.09289153
> <PUBCHEM_MOLECULAR_FORMULA>
C11H15F2N3O6
> <PUBCHEM_MOLECULAR_WEIGHT>
323.25
> <PUBCHEM_OPENEYE_CAN_SMILES>
COC(CC1=NN(C(=O)NC1=O)C2CC(C(O2)CO)O)(F)F
> <PUBCHEM_OPENEYE_ISO_SMILES>
COC(CC1=NN(C(=O)NC1=O)[C@H]2C[C@@H]([C@H](O2)CO)O)(F)F
> <PUBCHEM_CACTVS_TPSA>
121
> <PUBCHEM_MONOISOTOPIC_WEIGHT>
323.09289153
> <PUBCHEM_TOTAL_CHARGE>
0
> <PUBCHEM_HEAVY_ATOM_COUNT>
22
> <PUBCHEM_ATOM_DEF_STEREO_COUNT>
3
> <PUBCHEM_ATOM_UDEF_STEREO_COUNT>
0
> <PUBCHEM_BOND_DEF_STEREO_COUNT>
0
> <PUBCHEM_BOND_UDEF_STEREO_COUNT>
0
> <PUBCHEM_ISOTOPIC_ATOM_COUNT>
0
> <PUBCHEM_COMPONENT_COUNT>
1
> <PUBCHEM_CACTVS_TAUTO_COUNT>
3
> <PUBCHEM_COORDINATE_TYPE>
1
5
255
> <PUBCHEM_BONDANNOTATIONS>
10  18  8
11  17  8
11  20  8
15  16  6
18  20  8
12  4  5
9  10  8
14  9  6
9  17  8
$$$$
