512697
  -OEChem-10302200282D
 59 61  0     1  0  0  0  0  0999 V2000
    5.3548    0.1745    0.0000 S   0  0  0  0  0  0  0  0  0  0  0  0
    4.4026    2.6761    0.0000 O   0  0  0  0  0  0  0  0  0  0  0  0
    6.7485    3.7679    0.0000 O   0  0  0  0  0  0  0  0  0  0  0  0
    6.7523    1.5924    0.0000 O   0  0  0  0  0  0  0  0  0  0  0  0
    5.7735   -4.1642    0.0000 O   0  0  0  0  0  0  0  0  0  0  0  0
    7.0586   -3.0030    0.0000 O   0  0  0  0  0  0  0  0  0  0  0  0
    4.6783    4.4366    0.0000 N   0  0  0  0  0  0  0  0  0  0  0  0
    2.8660    4.2414    0.0000 N   0  0  0  0  0  0  0  0  0  0  0  0
    2.0000    5.7414    0.0000 N   0  0  0  0  0  0  0  0  0  0  0  0
    2.8660    7.2414    0.0000 N   0  0  0  0  0  0  0  0  0  0  0  0
    4.4327   -2.6802    0.0000 N   0  0  0  0  0  0  0  0  0  0  0  0
    5.9405    3.1788    0.0000 C   0  0  2  0  0  0  0  0  0  0  0  0
    5.9422    2.1788    0.0000 C   0  0  1  0  0  0  0  0  0  0  0  0
    4.9889    3.4861    0.0000 C   0  0  1  0  0  0  0  0  0  0  0  0
    4.9917    1.8681    0.0000 C   0  0  1  0  0  0  0  0  0  0  0  0
    4.6844    0.9165    0.0000 C   0  0  0  0  0  0  0  0  0  0  0  0
    3.7320    4.7414    0.0000 C   0  0  0  0  0  0  0  0  0  0  0  0
    5.2619    5.2414    0.0000 C   0  0  0  0  0  0  0  0  0  0  0  0
    3.7320    5.7414    0.0000 C   0  0  0  0  0  0  0  0  0  0  0  0
    4.6783    6.0461    0.0000 C   0  0  0  0  0  0  0  0  0  0  0  0
    5.0474   -0.7771    0.0000 C   0  0  0  0  0  0  0  0  0  0  0  0
    5.7178   -1.5191    0.0000 C   0  0  0  0  0  0  0  0  0  0  0  0
    2.8660    6.2414    0.0000 C   0  0  0  0  0  0  0  0  0  0  0  0
    5.4104   -2.4706    0.0000 C   0  0  3  0  0  0  0  0  0  0  0  0
    2.0000    4.7414    0.0000 C   0  0  0  0  0  0  0  0  0  0  0  0
    6.0809   -3.2126    0.0000 C   0  0  0  0  0  0  0  0  0  0  0  0
    6.4439   -4.9062    0.0000 C   0  0  0  0  0  0  0  0  0  0  0  0
    6.1365   -5.8578    0.0000 C   0  0  0  0  0  0  0  0  0  0  0  0
    6.8070   -6.5998    0.0000 C   0  0  0  0  0  0  0  0  0  0  0  0
    6.4996   -7.5514    0.0000 C   0  0  0  0  0  0  0  0  0  0  0  0
    6.4934    2.8982    0.0000 H   0  0  0  0  0  0  0  0  0  0  0  0
    6.4942    2.4612    0.0000 H   0  0  0  0  0  0  0  0  0  0  0  0
    5.4266    3.9253    0.0000 H   0  0  0  0  0  0  0  0  0  0  0  0
    4.3795    1.7700    0.0000 H   0  0  0  0  0  0  0  0  0  0  0  0
    4.1364    1.2066    0.0000 H   0  0  0  0  0  0  0  0  0  0  0  0
    4.3035    0.4273    0.0000 H   0  0  0  0  0  0  0  0  0  0  0  0
    7.3154    3.5167    0.0000 H   0  0  0  0  0  0  0  0  0  0  0  0
    7.3182    1.8455    0.0000 H   0  0  0  0  0  0  0  0  0  0  0  0
    5.8819    5.2414    0.0000 H   0  0  0  0  0  0  0  0  0  0  0  0
    4.8709    6.6354    0.0000 H   0  0  0  0  0  0  0  0  0  0  0  0
    4.4995   -0.4869    0.0000 H   0  0  0  0  0  0  0  0  0  0  0  0
    4.6665   -1.2663    0.0000 H   0  0  0  0  0  0  0  0  0  0  0  0
    6.2658   -1.8092    0.0000 H   0  0  0  0  0  0  0  0  0  0  0  0
    6.0987   -1.0298    0.0000 H   0  0  0  0  0  0  0  0  0  0  0  0
    5.2199   -3.0606    0.0000 H   0  0  0  0  0  0  0  0  0  0  0  0
    1.4631    4.4314    0.0000 H   0  0  0  0  0  0  0  0  0  0  0  0
    2.3291    7.5514    0.0000 H   0  0  0  0  0  0  0  0  0  0  0  0
    3.4030    7.5514    0.0000 H   0  0  0  0  0  0  0  0  0  0  0  0
    4.2421   -3.2702    0.0000 H   0  0  0  0  0  0  0  0  0  0  0  0
    4.0170   -2.2202    0.0000 H   0  0  0  0  0  0  0  0  0  0  0  0
    6.9918   -5.1963    0.0000 H   0  0  0  0  0  0  0  0  0  0  0  0
    6.8248   -4.4170    0.0000 H   0  0  0  0  0  0  0  0  0  0  0  0
    5.5886   -5.5677    0.0000 H   0  0  0  0  0  0  0  0  0  0  0  0
    5.7557   -6.3470    0.0000 H   0  0  0  0  0  0  0  0  0  0  0  0
    7.3549   -6.8899    0.0000 H   0  0  0  0  0  0  0  0  0  0  0  0
    7.1878   -6.1106    0.0000 H   0  0  0  0  0  0  0  0  0  0  0  0
    5.9096   -7.3608    0.0000 H   0  0  0  0  0  0  0  0  0  0  0  0
    6.3090   -8.1414    0.0000 H   0  0  0  0  0  0  0  0  0  0  0  0
    7.0896   -7.7420    0.0000 H   0  0  0  0  0  0  0  0  0  0  0  0
  1 16  1  0  0  0  0
  1 21  1  0  0  0  0
  2 14  1  0  0  0  0
  2 15  1  0  0  0  0
 12  3  1  6  0  0  0
  3 37  1  0  0  0  0
 13  4  1  6  0  0  0
  4 38  1  0  0  0  0
  5 26  1  0  0  0  0
  5 27  1  0  0  0  0
  6 26  2  0  0  0  0
 14  7  1  1  0  0  0
  7 17  1  0  0  0  0
  7 18  1  0  0  0  0
  8 17  2  0  0  0  0
  8 25  1  0  0  0  0
  9 23  1  0  0  0  0
  9 25  2  0  0  0  0
 10 23  1  0  0  0  0
 10 47  1  0  0  0  0
 10 48  1  0  0  0  0
 11 24  1  0  0  0  0
 11 49  1  0  0  0  0
 11 50  1  0  0  0  0
 12 13  1  0  0  0  0
 12 14  1  0  0  0  0
 12 31  1  0  0  0  0
 13 15  1  0  0  0  0
 13 32  1  0  0  0  0
 14 33  1  0  0  0  0
 15 16  1  1  0  0  0
 15 34  1  0  0  0  0
 16 35  1  0  0  0  0
 16 36  1  0  0  0  0
 17 19  1  0  0  0  0
 18 20  2  0  0  0  0
 18 39  1  0  0  0  0
 19 20  1  0  0  0  0
 19 23  2  0  0  0  0
 20 40  1  0  0  0  0
 21 22  1  0  0  0  0
 21 41  1  0  0  0  0
 21 42  1  0  0  0  0
 22 24  1  0  0  0  0
 22 43  1  0  0  0  0
 22 44  1  0  0  0  0
 24 26  1  0  0  0  0
 24 45  1  0  0  0  0
 25 46  1  0  0  0  0
 27 28  1  0  0  0  0
 27 51  1  0  0  0  0
 27 52  1  0  0  0  0
 28 29  1  0  0  0  0
 28 53  1  0  0  0  0
 28 54  1  0  0  0  0
 29 30  1  0  0  0  0
 29 55  1  0  0  0  0
 29 56  1  0  0  0  0
 30 57  1  0  0  0  0
 30 58  1  0  0  0  0
 30 59  1  0  0  0  0
M  END
> <PUBCHEM_COMPOUND_CID>
512697
> <PUBCHEM_COMPOUND_CANONICALIZED>
1
> <PUBCHEM_CACTVS_COMPLEXITY>
561
> <PUBCHEM_CACTVS_HBOND_ACCEPTOR>
10
> <PUBCHEM_CACTVS_HBOND_DONOR>
4
> <PUBCHEM_CACTVS_ROTATABLE_BOND>
11
> <PUBCHEM_CACTVS_SUBSKEYS>
AAADceB7uABAAAAAAAAAAAAAAAAAAWJAAAAsAAAAAAAAAFgB+AAAHgQQCAAADDzl2wa/uN9MFgioAjL3bACCgCkxArAJ2KG4ZJiLONJgyMEPRAhPEALzQCCwAAAIAAAAAAAAAAAAAAAAAAAAAAAAAAAAAA==
> <PUBCHEM_IUPAC_OPENEYE_NAME>
butyl 2-amino-4-[[(2S,3S,4R,5R)-5-(4-aminopyrrolo[2,3-d]pyrimidin-7-yl)-3,4-dihydroxy-tetrahydrofuran-2-yl]methylsulfanyl]butanoate
> <PUBCHEM_IUPAC_CAS_NAME>
2-amino-4-[[(2S,3S,4R,5R)-5-(4-amino-7-pyrrolo[2,3-d]pyrimidinyl)-3,4-dihydroxy-2-oxolanyl]methylthio]butanoic acid butyl ester
> <PUBCHEM_IUPAC_NAME_MARKUP>
butyl 2-amino-4-[[(2<I>S</I>,3<I>S</I>,4<I>R</I>,5<I>R</I>)-5-(4-aminopyrrolo[2,3-d]pyrimidin-7-yl)-3,4-dihydroxyoxolan-2-yl]methylsulfanyl]butanoate
> <PUBCHEM_IUPAC_NAME>
butyl 2-amino-4-[[(2S,3S,4R,5R)-5-(4-aminopyrrolo[2,3-d]pyrimidin-7-yl)-3,4-dihydroxyoxolan-2-yl]methylsulfanyl]butanoate
> <PUBCHEM_IUPAC_SYSTEMATIC_NAME>
butyl 2-azanyl-4-[[(2S,3S,4R,5R)-5-(4-azanylpyrrolo[2,3-d]pyrimidin-7-yl)-3,4-bis(oxidanyl)oxolan-2-yl]methylsulfanyl]butanoate
> <PUBCHEM_IUPAC_TRADITIONAL_NAME>
2-amino-4-[[(2S,3S,4R,5R)-5-(4-aminopyrrolo[2,3-d]pyrimidin-7-yl)-3,4-dihydroxy-tetrahydrofuran-2-yl]methylthio]butyric acid butyl ester
> <PUBCHEM_IUPAC_INCHI>
InChI=1S/C19H29N5O5S/c1-2-3-7-28-19(27)12(20)5-8-30-9-13-14(25)15(26)18(29-13)24-6-4-11-16(21)22-10-23-17(11)24/h4,6,10,12-15,18,25-26H,2-3,5,7-9,20H2,1H3,(H2,21,22,23)/t12?,13-,14-,15-,18-/m1/s1
> <PUBCHEM_IUPAC_INCHIKEY>
JCFQTIAYCAHJJR-KAWGGLBOSA-N
> <PUBCHEM_XLOGP3_AA>
0.1
> <PUBCHEM_EXACT_MASS>
439.18894022
> <PUBCHEM_MOLECULAR_FORMULA>
C19H29N5O5S
> <PUBCHEM_MOLECULAR_WEIGHT>
439.5
> <PUBCHEM_OPENEYE_CAN_SMILES>
CCCCOC(=O)C(CCSCC1C(C(C(O1)N2C=CC3=C(N=CN=C32)N)O)O)N
> <PUBCHEM_OPENEYE_ISO_SMILES>
CCCCOC(=O)C(CCSC[C@@H]1[C@H]([C@H]([C@@H](O1)N2C=CC3=C(N=CN=C32)N)O)O)N
> <PUBCHEM_CACTVS_TPSA>
184
> <PUBCHEM_MONOISOTOPIC_WEIGHT>
439.18894022
> <PUBCHEM_TOTAL_CHARGE>
0
> <PUBCHEM_HEAVY_ATOM_COUNT>
30
> <PUBCHEM_ATOM_DEF_STEREO_COUNT>
4
> <PUBCHEM_ATOM_UDEF_STEREO_COUNT>
1
> <PUBCHEM_BOND_DEF_STEREO_COUNT>
0
> <PUBCHEM_BOND_UDEF_STEREO_COUNT>
0
> <PUBCHEM_ISOTOPIC_ATOM_COUNT>
0
> <PUBCHEM_COMPONENT_COUNT>
1
> <PUBCHEM_CACTVS_TAUTO_COUNT>
-1
> <PUBCHEM_COORDINATE_TYPE>
1
5
255
> <PUBCHEM_BONDANNOTATIONS>
24  11  3
15  16  5
17  19  8
18  20  8
19  20  8
19  23  8
12  3  6
13  4  6
14  7  5
7  17  8
7  18  8
8  17  8
8  25  8
9  23  8
9  25  8
$$$$
