512668
  -OEChem-10302200282D
 31 32  0     1  0  0  0  0  0999 V2000
    7.1962    2.3725    0.0000 Br  0  0  0  0  0  0  0  0  0  0  0  0
    4.5411   -1.2153    0.0000 O   0  0  0  0  0  0  0  0  0  0  0  0
    2.6443   -2.9754    0.0000 O   0  0  0  0  0  0  0  0  0  0  0  0
    5.8144   -2.8709    0.0000 O   0  0  0  0  0  0  0  0  0  0  0  0
    2.0000    0.3725    0.0000 O   0  0  0  0  0  0  0  0  0  0  0  0
    3.7320    3.3725    0.0000 O   0  0  0  0  0  0  0  0  0  0  0  0
    3.7320    0.3725    0.0000 N   0  0  0  0  0  0  0  0  0  0  0  0
    4.5981    0.8725    0.0000 N   0  0  0  0  0  0  0  0  0  0  0  0
    2.8660    1.8725    0.0000 N   0  0  0  0  0  0  0  0  0  0  0  0
    3.2320   -2.1664    0.0000 C   0  0  1  0  0  0  0  0  0  0  0  0
    2.9230   -1.2153    0.0000 C   0  0  0  0  0  0  0  0  0  0  0  0
    4.2320   -2.1664    0.0000 C   0  0  1  0  0  0  0  0  0  0  0  0
    3.7320   -0.6275    0.0000 C   0  0  1  0  0  0  0  0  0  0  0  0
    4.8198   -2.9754    0.0000 C   0  0  0  0  0  0  0  0  0  0  0  0
    2.8660    0.8725    0.0000 C   0  0  0  0  0  0  0  0  0  0  0  0
    4.5981    1.8725    0.0000 C   0  0  0  0  0  0  0  0  0  0  0  0
    3.7320    2.3725    0.0000 C   0  0  0  0  0  0  0  0  0  0  0  0
    5.4641    2.3725    0.0000 C   0  0  0  0  0  0  0  0  0  0  0  0
    6.3301    1.8725    0.0000 C   0  0  0  0  0  0  0  0  0  0  0  0
    3.5135   -2.7188    0.0000 H   0  0  0  0  0  0  0  0  0  0  0  0
    2.6130   -0.6784    0.0000 H   0  0  0  0  0  0  0  0  0  0  0  0
    2.3566   -1.4675    0.0000 H   0  0  0  0  0  0  0  0  0  0  0  0
    4.8444   -2.0694    0.0000 H   0  0  0  0  0  0  0  0  0  0  0  0
    4.2845   -0.3461    0.0000 H   0  0  0  0  0  0  0  0  0  0  0  0
    4.2626   -3.2472    0.0000 H   0  0  0  0  0  0  0  0  0  0  0  0
    4.9907   -3.5714    0.0000 H   0  0  0  0  0  0  0  0  0  0  0  0
    2.0277   -2.9106    0.0000 H   0  0  0  0  0  0  0  0  0  0  0  0
    6.1788   -3.3725    0.0000 H   0  0  0  0  0  0  0  0  0  0  0  0
    2.3291    2.1825    0.0000 H   0  0  0  0  0  0  0  0  0  0  0  0
    5.4641    2.9925    0.0000 H   0  0  0  0  0  0  0  0  0  0  0  0
    6.3301    1.2525    0.0000 H   0  0  0  0  0  0  0  0  0  0  0  0
  1 19  1  0  0  0  0
  2 12  1  0  0  0  0
  2 13  1  0  0  0  0
 10  3  1  1  0  0  0
  3 27  1  0  0  0  0
  4 14  1  0  0  0  0
  4 28  1  0  0  0  0
  5 15  2  0  0  0  0
  6 17  2  0  0  0  0
  7  8  1  0  0  0  0
 13  7  1  6  0  0  0
  7 15  1  0  0  0  0
  8 16  2  0  0  0  0
  9 15  1  0  0  0  0
  9 17  1  0  0  0  0
  9 29  1  0  0  0  0
 10 11  1  0  0  0  0
 10 12  1  0  0  0  0
 10 20  1  0  0  0  0
 11 13  1  0  0  0  0
 11 21  1  0  0  0  0
 11 22  1  0  0  0  0
 12 14  1  6  0  0  0
 12 23  1  0  0  0  0
 13 24  1  0  0  0  0
 14 25  1  0  0  0  0
 14 26  1  0  0  0  0
 16 17  1  0  0  0  0
 16 18  1  0  0  0  0
 18 19  2  3  0  0  0
 18 30  1  0  0  0  0
 19 31  1  0  0  0  0
M  END
> <PUBCHEM_COMPOUND_CID>
512668
> <PUBCHEM_COMPOUND_CANONICALIZED>
1
> <PUBCHEM_CACTVS_COMPLEXITY>
452
> <PUBCHEM_CACTVS_HBOND_ACCEPTOR>
6
> <PUBCHEM_CACTVS_HBOND_DONOR>
3
> <PUBCHEM_CACTVS_ROTATABLE_BOND>
3
> <PUBCHEM_CACTVS_SUBSKEYS>
AAADccBzOAAAEAAAAAAAAAAAAAAAASAAAAAgAAAAAAAAAAAAAAAAHgBYCAABSBzhgAYBAALABgCoASFyEAAQAAAgAAAeAAEYABiBEAIAgAAOQAAfDyIDAACwMAIAAAAAAAAAAAAAAAAAAAAAAAAAAAAAAA==
> <PUBCHEM_IUPAC_OPENEYE_NAME>
6-(2-bromovinyl)-2-[(2R,4S,5R)-4-hydroxy-5-(hydroxymethyl)tetrahydrofuran-2-yl]-1,2,4-triazine-3,5-dione
> <PUBCHEM_IUPAC_CAS_NAME>
6-(2-bromoethenyl)-2-[(2R,4S,5R)-4-hydroxy-5-(hydroxymethyl)-2-oxolanyl]-1,2,4-triazine-3,5-dione
> <PUBCHEM_IUPAC_NAME_MARKUP>
6-(2-bromoethenyl)-2-[(2<I>R</I>,4<I>S</I>,5<I>R</I>)-4-hydroxy-5-(hydroxymethyl)oxolan-2-yl]-1,2,4-triazine-3,5-dione
> <PUBCHEM_IUPAC_NAME>
6-(2-bromoethenyl)-2-[(2R,4S,5R)-4-hydroxy-5-(hydroxymethyl)oxolan-2-yl]-1,2,4-triazine-3,5-dione
> <PUBCHEM_IUPAC_SYSTEMATIC_NAME>
6-(2-bromanylethenyl)-2-[(2R,4S,5R)-5-(hydroxymethyl)-4-oxidanyl-oxolan-2-yl]-1,2,4-triazine-3,5-dione
> <PUBCHEM_IUPAC_TRADITIONAL_NAME>
6-(2-bromovinyl)-2-[(2R,4S,5R)-4-hydroxy-5-methylol-tetrahydrofuran-2-yl]-1,2,4-triazine-3,5-quinone
> <PUBCHEM_IUPAC_INCHI>
InChI=1S/C10H12BrN3O5/c11-2-1-5-9(17)12-10(18)14(13-5)8-3-6(16)7(4-15)19-8/h1-2,6-8,15-16H,3-4H2,(H,12,17,18)/t6-,7+,8+/m0/s1
> <PUBCHEM_IUPAC_INCHIKEY>
RNFMAGOTQSXOBA-XLPZGREQSA-N
> <PUBCHEM_XLOGP3_AA>
-0.3
> <PUBCHEM_EXACT_MASS>
332.99603
> <PUBCHEM_MOLECULAR_FORMULA>
C10H12BrN3O5
> <PUBCHEM_MOLECULAR_WEIGHT>
334.12
> <PUBCHEM_OPENEYE_CAN_SMILES>
C1C(C(OC1N2C(=O)NC(=O)C(=N2)C=CBr)CO)O
> <PUBCHEM_OPENEYE_ISO_SMILES>
C1[C@@H]([C@H](O[C@H]1N2C(=O)NC(=O)C(=N2)C=CBr)CO)O
> <PUBCHEM_CACTVS_TPSA>
112
> <PUBCHEM_MONOISOTOPIC_WEIGHT>
332.99603
> <PUBCHEM_TOTAL_CHARGE>
0
> <PUBCHEM_HEAVY_ATOM_COUNT>
19
> <PUBCHEM_ATOM_DEF_STEREO_COUNT>
3
> <PUBCHEM_ATOM_UDEF_STEREO_COUNT>
0
> <PUBCHEM_BOND_DEF_STEREO_COUNT>
0
> <PUBCHEM_BOND_UDEF_STEREO_COUNT>
1
> <PUBCHEM_ISOTOPIC_ATOM_COUNT>
0
> <PUBCHEM_COMPONENT_COUNT>
1
> <PUBCHEM_CACTVS_TAUTO_COUNT>
3
> <PUBCHEM_COORDINATE_TYPE>
1
5
255
> <PUBCHEM_BONDANNOTATIONS>
12  14  6
16  17  8
18  19  1
10  3  5
13  7  6
7  15  8
7  8  8
8  16  8
9  15  8
9  17  8
$$$$
