512604
  -OEChem-10302200282D
 36 37  0     1  0  0  0  0  0999 V2000
    7.0448   -3.6225    0.0000 Br  0  0  0  0  0  0  0  0  0  0  0  0
    2.7147   -0.1225    0.0000 F   0  0  0  0  0  0  0  0  0  0  0  0
    4.4467   -3.1225    0.0000 F   0  0  0  0  0  0  0  0  0  0  0  0
    3.6377    1.4653    0.0000 O   0  0  0  0  0  0  0  0  0  0  0  0
    5.5345    3.2254    0.0000 O   0  0  0  0  0  0  0  0  0  0  0  0
    2.3644    3.1209    0.0000 O   0  0  0  0  0  0  0  0  0  0  0  0
    7.0448   -1.6225    0.0000 N   0  0  0  0  0  0  0  0  0  0  0  0
    7.9108   -2.1225    0.0000 N   0  3  0  0  0  0  0  0  0  0  0  0
    8.7769   -2.6225    0.0000 N   0  5  0  0  0  0  0  0  0  0  0  0
    4.4467    0.8775    0.0000 C   0  0  2  0  0  0  0  0  0  0  0  0
    4.9467    2.4164    0.0000 C   0  0  1  0  0  0  0  0  0  0  0  0
    5.2558    1.4653    0.0000 C   0  0  0  0  0  0  0  0  0  0  0  0
    3.9467    2.4164    0.0000 C   0  0  1  0  0  0  0  0  0  0  0  0
    4.4467   -0.1225    0.0000 C   0  0  0  0  0  0  0  0  0  0  0  0
    3.3590    3.2254    0.0000 C   0  0  0  0  0  0  0  0  0  0  0  0
    5.3128   -0.6225    0.0000 C   0  0  0  0  0  0  0  0  0  0  0  0
    3.5807   -0.6225    0.0000 C   0  0  0  0  0  0  0  0  0  0  0  0
    5.3128   -1.6225    0.0000 C   0  0  0  0  0  0  0  0  0  0  0  0
    6.1788   -2.1225    0.0000 C   0  0  3  0  0  0  0  0  0  0  0  0
    3.5807   -1.6225    0.0000 C   0  0  0  0  0  0  0  0  0  0  0  0
    4.4467   -2.1225    0.0000 C   0  0  0  0  0  0  0  0  0  0  0  0
    6.1788   -3.1225    0.0000 C   0  0  0  0  0  0  0  0  0  0  0  0
    3.8943    0.5961    0.0000 H   0  0  0  0  0  0  0  0  0  0  0  0
    4.6653    2.9688    0.0000 H   0  0  0  0  0  0  0  0  0  0  0  0
    5.5658    0.9284    0.0000 H   0  0  0  0  0  0  0  0  0  0  0  0
    5.8222    1.7175    0.0000 H   0  0  0  0  0  0  0  0  0  0  0  0
    3.3344    2.3194    0.0000 H   0  0  0  0  0  0  0  0  0  0  0  0
    3.9162    3.4972    0.0000 H   0  0  0  0  0  0  0  0  0  0  0  0
    3.1880    3.8214    0.0000 H   0  0  0  0  0  0  0  0  0  0  0  0
    5.8497   -0.3125    0.0000 H   0  0  0  0  0  0  0  0  0  0  0  0
    6.1511    3.1606    0.0000 H   0  0  0  0  0  0  0  0  0  0  0  0
    6.1788   -1.5025    0.0000 H   0  0  0  0  0  0  0  0  0  0  0  0
    3.0438   -1.9325    0.0000 H   0  0  0  0  0  0  0  0  0  0  0  0
    2.0000    3.6225    0.0000 H   0  0  0  0  0  0  0  0  0  0  0  0
    5.5682   -3.0148    0.0000 H   0  0  0  0  0  0  0  0  0  0  0  0
    5.9667   -3.7051    0.0000 H   0  0  0  0  0  0  0  0  0  0  0  0
  1 22  1  0  0  0  0
  2 17  1  0  0  0  0
  3 21  1  0  0  0  0
  4 10  1  0  0  0  0
  4 13  1  0  0  0  0
 11  5  1  1  0  0  0
  5 31  1  0  0  0  0
  6 15  1  0  0  0  0
  6 34  1  0  0  0  0
  7  8  2  0  0  0  0
  7 19  1  0  0  0  0
  8  9  2  0  0  0  0
 10 12  1  0  0  0  0
 10 14  1  6  0  0  0
 10 23  1  0  0  0  0
 11 12  1  0  0  0  0
 11 13  1  0  0  0  0
 11 24  1  0  0  0  0
 12 25  1  0  0  0  0
 12 26  1  0  0  0  0
 13 15  1  6  0  0  0
 13 27  1  0  0  0  0
 14 16  2  0  0  0  0
 14 17  1  0  0  0  0
 15 28  1  0  0  0  0
 15 29  1  0  0  0  0
 16 18  1  0  0  0  0
 16 30  1  0  0  0  0
 17 20  2  0  0  0  0
 18 19  1  0  0  0  0
 18 21  2  0  0  0  0
 19 22  1  0  0  0  0
 19 32  1  0  0  0  0
 20 21  1  0  0  0  0
 20 33  1  0  0  0  0
 22 35  1  0  0  0  0
 22 36  1  0  0  0  0
M  CHG  2   8   1   9  -1
M  END
> <PUBCHEM_COMPOUND_CID>
512604
> <PUBCHEM_COMPOUND_CANONICALIZED>
1
> <PUBCHEM_CACTVS_COMPLEXITY>
427
> <PUBCHEM_CACTVS_HBOND_ACCEPTOR>
7
> <PUBCHEM_CACTVS_HBOND_DONOR>
2
> <PUBCHEM_CACTVS_ROTATABLE_BOND>
5
> <PUBCHEM_CACTVS_SUBSKEYS>
AAADccBzMYAAEAAAAAAAAAAAAAAAASAAAAAwAAAAAAAAAAABAAAAHwBICAABTDzhmA4wAIAABgCCAiBCAACCAAAgAAAAiAAADKgJNiKAsRmCcABlwAELqBeQ8PUOAAACAAAAAAAAAAQAAAAAAAAAAAAAAA==
> <PUBCHEM_IUPAC_OPENEYE_NAME>
(2R,3S,5R)-5-[5-(1-azido-2-bromo-ethyl)-2,4-difluoro-phenyl]-2-(hydroxymethyl)tetrahydrofuran-3-ol
> <PUBCHEM_IUPAC_CAS_NAME>
(2R,3S,5R)-5-[5-(1-azido-2-bromoethyl)-2,4-difluorophenyl]-2-(hydroxymethyl)-3-oxolanol
> <PUBCHEM_IUPAC_NAME_MARKUP>
(2<I>R</I>,3<I>S</I>,5<I>R</I>)-5-[5-(1-azido-2-bromoethyl)-2,4-difluorophenyl]-2-(hydroxymethyl)oxolan-3-ol
> <PUBCHEM_IUPAC_NAME>
(2R,3S,5R)-5-[5-(1-azido-2-bromoethyl)-2,4-difluorophenyl]-2-(hydroxymethyl)oxolan-3-ol
> <PUBCHEM_IUPAC_SYSTEMATIC_NAME>
(2R,3S,5R)-5-[5-(1-azido-2-bromanyl-ethyl)-2,4-bis(fluoranyl)phenyl]-2-(hydroxymethyl)oxolan-3-ol
> <PUBCHEM_IUPAC_TRADITIONAL_NAME>
(2R,3S,5R)-5-[5-(1-azido-2-bromo-ethyl)-2,4-difluoro-phenyl]-2-methylol-tetrahydrofuran-3-ol
> <PUBCHEM_IUPAC_INCHI>
InChI=1S/C13H14BrF2N3O3/c14-4-10(18-19-17)6-1-7(9(16)2-8(6)15)12-3-11(21)13(5-20)22-12/h1-2,10-13,20-21H,3-5H2/t10?,11-,12+,13+/m0/s1
> <PUBCHEM_IUPAC_INCHIKEY>
WVICGZTYTPCXTN-FJAVPRTDSA-N
> <PUBCHEM_XLOGP3_AA>
2.9
> <PUBCHEM_EXACT_MASS>
377.01866
> <PUBCHEM_MOLECULAR_FORMULA>
C13H14BrF2N3O3
> <PUBCHEM_MOLECULAR_WEIGHT>
378.17
> <PUBCHEM_OPENEYE_CAN_SMILES>
C1C(C(OC1C2=CC(=C(C=C2F)F)C(CBr)N=[N+]=[N-])CO)O
> <PUBCHEM_OPENEYE_ISO_SMILES>
C1[C@@H]([C@H](O[C@H]1C2=CC(=C(C=C2F)F)C(CBr)N=[N+]=[N-])CO)O
> <PUBCHEM_CACTVS_TPSA>
64
> <PUBCHEM_MONOISOTOPIC_WEIGHT>
377.01866
> <PUBCHEM_TOTAL_CHARGE>
0
> <PUBCHEM_HEAVY_ATOM_COUNT>
22
> <PUBCHEM_ATOM_DEF_STEREO_COUNT>
3
> <PUBCHEM_ATOM_UDEF_STEREO_COUNT>
1
> <PUBCHEM_BOND_DEF_STEREO_COUNT>
0
> <PUBCHEM_BOND_UDEF_STEREO_COUNT>
0
> <PUBCHEM_ISOTOPIC_ATOM_COUNT>
0
> <PUBCHEM_COMPONENT_COUNT>
1
> <PUBCHEM_CACTVS_TAUTO_COUNT>
-1
> <PUBCHEM_COORDINATE_TYPE>
1
5
255
> <PUBCHEM_BONDANNOTATIONS>
10  14  6
13  15  6
14  16  8
14  17  8
16  18  8
17  20  8
18  21  8
19  22  3
20  21  8
11  5  5
$$$$
