512664
  -OEChem-10302200282D
 61 66  0     1  0  0  0  0  0999 V2000
    6.3301   -1.0000    0.0000 F   0  0  0  0  0  0  0  0  0  0  0  0
    5.7960    1.0749    0.0000 O   0  0  0  0  0  0  0  0  0  0  0  0
    7.1796   -0.0391    0.0000 O   0  0  0  0  0  0  0  0  0  0  0  0
    3.4982   -4.5815    0.0000 O   0  0  0  0  0  0  0  0  0  0  0  0
    2.0463   -3.7433    0.0000 O   0  0  0  0  0  0  0  0  0  0  0  0
    7.1962   -4.5000    0.0000 O   0  0  0  0  0  0  0  0  0  0  0  0
    8.9282   -1.5000    0.0000 O   0  0  0  0  0  0  0  0  0  0  0  0
    8.9282   -3.5000    0.0000 O   0  0  0  0  0  0  0  0  0  0  0  0
    2.8660   -0.0000    0.0000 N   0  0  0  0  0  0  0  0  0  0  0  0
    2.8660    5.0000    0.0000 N   0  0  0  0  0  0  0  0  0  0  0  0
    4.5981   -0.0000    0.0000 C   0  0  1  0  0  0  0  0  0  0  0  0
    5.4641   -0.5000    0.0000 C   0  0  2  0  0  0  0  0  0  0  0  0
    5.4641   -1.5000    0.0000 C   0  0  1  0  0  0  0  0  0  0  0  0
    3.7320   -0.5000    0.0000 C   0  0  1  0  0  0  0  0  0  0  0  0
    4.5981   -2.0000    0.0000 C   0  0  0  0  0  0  0  0  0  0  0  0
    3.7320   -1.5000    0.0000 C   0  0  0  0  0  0  0  0  0  0  0  0
    4.8073    0.9718    0.0000 C   0  0  0  0  0  0  0  0  0  0  0  0
    6.2011    0.1671    0.0000 C   0  0  0  0  0  0  0  0  0  0  0  0
    6.3301   -2.0000    0.0000 C   0  0  0  0  0  0  0  0  0  0  0  0
    4.6141   -3.0415    0.0000 C   0  0  0  0  0  0  0  0  0  0  0  0
    2.8220   -2.0068    0.0000 C   0  0  0  0  0  0  0  0  0  0  0  0
    3.7161   -3.5693    0.0000 C   0  0  0  0  0  0  0  0  0  0  0  0
    2.8140   -3.0484    0.0000 C   0  0  0  0  0  0  0  0  0  0  0  0
    7.1962   -1.5000    0.0000 C   0  0  0  0  0  0  0  0  0  0  0  0
    6.3301   -3.0000    0.0000 C   0  0  0  0  0  0  0  0  0  0  0  0
    2.8660    1.0000    0.0000 C   0  0  0  0  0  0  0  0  0  0  0  0
    7.1962   -3.5000    0.0000 C   0  0  0  0  0  0  0  0  0  0  0  0
    8.0622   -2.0000    0.0000 C   0  0  0  0  0  0  0  0  0  0  0  0
    2.4683   -4.6889    0.0000 C   0  0  0  0  0  0  0  0  0  0  0  0
    8.0622   -3.0000    0.0000 C   0  0  0  0  0  0  0  0  0  0  0  0
    3.7320    1.5000    0.0000 C   0  0  0  0  0  0  0  0  0  0  0  0
    2.0000    1.5000    0.0000 C   0  0  0  0  0  0  0  0  0  0  0  0
    3.7320    2.5000    0.0000 C   0  0  0  0  0  0  0  0  0  0  0  0
    2.0000    2.5000    0.0000 C   0  0  0  0  0  0  0  0  0  0  0  0
    2.8660    3.0000    0.0000 C   0  0  0  0  0  0  0  0  0  0  0  0
    6.3301   -5.0000    0.0000 C   0  0  0  0  0  0  0  0  0  0  0  0
    9.7942   -2.0000    0.0000 C   0  0  0  0  0  0  0  0  0  0  0  0
    2.8660    4.0000    0.0000 C   0  0  0  0  0  0  0  0  0  0  0  0
    3.9111    0.5005    0.0000 H   0  0  0  0  0  0  0  0  0  0  0  0
    5.4641   -2.1200    0.0000 H   0  0  0  0  0  0  0  0  0  0  0  0
    3.7320    0.1200    0.0000 H   0  0  0  0  0  0  0  0  0  0  0  0
    4.8082    1.5918    0.0000 H   0  0  0  0  0  0  0  0  0  0  0  0
    4.1908    1.0379    0.0000 H   0  0  0  0  0  0  0  0  0  0  0  0
    2.3291   -0.3100    0.0000 H   0  0  0  0  0  0  0  0  0  0  0  0
    5.1546   -3.3453    0.0000 H   0  0  0  0  0  0  0  0  0  0  0  0
    2.2887   -1.6907    0.0000 H   0  0  0  0  0  0  0  0  0  0  0  0
    7.1962   -0.8800    0.0000 H   0  0  0  0  0  0  0  0  0  0  0  0
    5.7932   -3.3100    0.0000 H   0  0  0  0  0  0  0  0  0  0  0  0
    1.8787   -4.8806    0.0000 H   0  0  0  0  0  0  0  0  0  0  0  0
    2.5970   -5.2954    0.0000 H   0  0  0  0  0  0  0  0  0  0  0  0
    4.2690    1.1900    0.0000 H   0  0  0  0  0  0  0  0  0  0  0  0
    1.4631    1.1900    0.0000 H   0  0  0  0  0  0  0  0  0  0  0  0
    4.2690    2.8100    0.0000 H   0  0  0  0  0  0  0  0  0  0  0  0
    1.4631    2.8100    0.0000 H   0  0  0  0  0  0  0  0  0  0  0  0
    8.9282   -4.1200    0.0000 H   0  0  0  0  0  0  0  0  0  0  0  0
    6.0201   -4.4631    0.0000 H   0  0  0  0  0  0  0  0  0  0  0  0
    5.7932   -5.3100    0.0000 H   0  0  0  0  0  0  0  0  0  0  0  0
    6.6401   -5.5369    0.0000 H   0  0  0  0  0  0  0  0  0  0  0  0
    9.4842   -2.5369    0.0000 H   0  0  0  0  0  0  0  0  0  0  0  0
   10.3312   -2.3100    0.0000 H   0  0  0  0  0  0  0  0  0  0  0  0
   10.1042   -1.4631    0.0000 H   0  0  0  0  0  0  0  0  0  0  0  0
 12  1  1  1  0  0  0
  2 17  1  0  0  0  0
  2 18  1  0  0  0  0
  3 18  2  0  0  0  0
  4 22  1  0  0  0  0
  4 29  1  0  0  0  0
  5 23  1  0  0  0  0
  5 29  1  0  0  0  0
  6 27  1  0  0  0  0
  6 36  1  0  0  0  0
  7 28  1  0  0  0  0
  7 37  1  0  0  0  0
  8 30  1  0  0  0  0
  8 55  1  0  0  0  0
 14  9  1  1  0  0  0
  9 26  1  0  0  0  0
  9 44  1  0  0  0  0
 10 38  3  0  0  0  0
 11 12  1  0  0  0  0
 11 14  1  0  0  0  0
 11 17  1  0  0  0  0
 11 39  1  6  0  0  0
 12 13  1  0  0  0  0
 12 18  1  0  0  0  0
 13 15  1  0  0  0  0
 13 19  1  6  0  0  0
 13 40  1  0  0  0  0
 14 16  1  0  0  0  0
 14 41  1  0  0  0  0
 15 16  1  0  0  0  0
 15 20  2  0  0  0  0
 16 21  2  0  0  0  0
 17 42  1  0  0  0  0
 17 43  1  0  0  0  0
 19 24  2  0  0  0  0
 19 25  1  0  0  0  0
 20 22  1  0  0  0  0
 20 45  1  0  0  0  0
 21 23  1  0  0  0  0
 21 46  1  0  0  0  0
 22 23  2  0  0  0  0
 24 28  1  0  0  0  0
 24 47  1  0  0  0  0
 25 27  2  0  0  0  0
 25 48  1  0  0  0  0
 26 31  2  0  0  0  0
 26 32  1  0  0  0  0
 27 30  1  0  0  0  0
 28 30  2  0  0  0  0
 29 49  1  0  0  0  0
 29 50  1  0  0  0  0
 31 33  1  0  0  0  0
 31 51  1  0  0  0  0
 32 34  2  0  0  0  0
 32 52  1  0  0  0  0
 33 35  2  0  0  0  0
 33 53  1  0  0  0  0
 34 35  1  0  0  0  0
 34 54  1  0  0  0  0
 35 38  1  0  0  0  0
 36 56  1  0  0  0  0
 36 57  1  0  0  0  0
 36 58  1  0  0  0  0
 37 59  1  0  0  0  0
 37 60  1  0  0  0  0
 37 61  1  0  0  0  0
M  END
> <PUBCHEM_COMPOUND_CID>
512664
> <PUBCHEM_COMPOUND_CANONICALIZED>
1
> <PUBCHEM_CACTVS_COMPLEXITY>
923
> <PUBCHEM_CACTVS_HBOND_ACCEPTOR>
10
> <PUBCHEM_CACTVS_HBOND_DONOR>
2
> <PUBCHEM_CACTVS_ROTATABLE_BOND>
5
> <PUBCHEM_CACTVS_SUBSKEYS>
AAADceB7OQAAAAAAAAAAAAAAAAAAASJAAAAwYMGAAAAAAEjBUAAAHwAQCAAADSzhmAcyzoLABgCYBiTSSACiCAAhIgAIiIEO7IgdpzLGsZumcCtn0BXP+A+++P+OqAABCAAQQADQAAaQACSAAAAAAAAAAA==
> <PUBCHEM_IUPAC_OPENEYE_NAME>
4-[[(5R,5aS,8aS,9S)-5a-fluoro-5-(4-hydroxy-3,5-dimethoxy-phenyl)-6-oxo-5,8,8a,9-tetrahydroisobenzofuro[5,6-f][1,3]benzodioxol-9-yl]amino]benzonitrile
> <PUBCHEM_IUPAC_CAS_NAME>
4-[[(5R,5aS,8aS,9S)-5a-fluoro-5-(4-hydroxy-3,5-dimethoxyphenyl)-6-oxo-5,8,8a,9-tetrahydroisobenzofuro[5,6-f][1,3]benzodioxol-9-yl]amino]benzonitrile
> <PUBCHEM_IUPAC_NAME_MARKUP>
4-[[(5<I>R</I>,5<I>a</I><I>S</I>,8<I>a</I><I>S</I>,9<I>S</I>)-5<I>a</I>-fluoro-5-(4-hydroxy-3,5-dimethoxyphenyl)-6-oxo-5,8,8<I>a</I>,9-tetrahydro-[2]benzofuro[5,6-f][1,3]benzodioxol-9-yl]amino]benzonitrile
> <PUBCHEM_IUPAC_NAME>
4-[[(5R,5aS,8aS,9S)-5a-fluoro-5-(4-hydroxy-3,5-dimethoxyphenyl)-6-oxo-5,8,8a,9-tetrahydro-[2]benzofuro[5,6-f][1,3]benzodioxol-9-yl]amino]benzonitrile
> <PUBCHEM_IUPAC_SYSTEMATIC_NAME>
4-[[(5R,5aS,8aS,9S)-5-(3,5-dimethoxy-4-oxidanyl-phenyl)-5a-fluoranyl-6-oxidanylidene-5,8,8a,9-tetrahydro-[2]benzofuro[5,6-f][1,3]benzodioxol-9-yl]amino]benzenecarbonitrile
> <PUBCHEM_IUPAC_TRADITIONAL_NAME>
4-[[(5R,5aS,8aS,9S)-5a-fluoro-5-(4-hydroxy-3,5-dimethoxy-phenyl)-6-keto-5,8,8a,9-tetrahydroisobenzofuro[5,6-f][1,3]benzodioxol-9-yl]amino]benzonitrile
> <PUBCHEM_IUPAC_INCHI>
InChI=1S/C28H23FN2O7/c1-34-22-7-15(8-23(35-2)26(22)32)24-17-9-20-21(38-13-37-20)10-18(17)25(19-12-36-27(33)28(19,24)29)31-16-5-3-14(11-30)4-6-16/h3-10,19,24-25,31-32H,12-13H2,1-2H3/t19-,24-,25-,28-/m1/s1
> <PUBCHEM_IUPAC_INCHIKEY>
YHXHZANZXGQXBO-BESFBVRISA-N
> <PUBCHEM_XLOGP3_AA>
4.2
> <PUBCHEM_EXACT_MASS>
518.14892924
> <PUBCHEM_MOLECULAR_FORMULA>
C28H23FN2O7
> <PUBCHEM_MOLECULAR_WEIGHT>
518.5
> <PUBCHEM_OPENEYE_CAN_SMILES>
COC1=CC(=CC(=C1O)OC)C2C3=CC4=C(C=C3C(C5C2(C(=O)OC5)F)NC6=CC=C(C=C6)C#N)OCO4
> <PUBCHEM_OPENEYE_ISO_SMILES>
COC1=CC(=CC(=C1O)OC)[C@@H]2C3=CC4=C(C=C3[C@H]([C@@H]5[C@@]2(C(=O)OC5)F)NC6=CC=C(C=C6)C#N)OCO4
> <PUBCHEM_CACTVS_TPSA>
119
> <PUBCHEM_MONOISOTOPIC_WEIGHT>
518.14892924
> <PUBCHEM_TOTAL_CHARGE>
0
> <PUBCHEM_HEAVY_ATOM_COUNT>
38
> <PUBCHEM_ATOM_DEF_STEREO_COUNT>
4
> <PUBCHEM_ATOM_UDEF_STEREO_COUNT>
0
> <PUBCHEM_BOND_DEF_STEREO_COUNT>
0
> <PUBCHEM_BOND_UDEF_STEREO_COUNT>
0
> <PUBCHEM_ISOTOPIC_ATOM_COUNT>
0
> <PUBCHEM_COMPONENT_COUNT>
1
> <PUBCHEM_CACTVS_TAUTO_COUNT>
-1
> <PUBCHEM_COORDINATE_TYPE>
1
5
255
> <PUBCHEM_BONDANNOTATIONS>
12  1  5
11  39  6
13  19  6
15  16  8
15  20  8
16  21  8
19  24  8
19  25  8
20  22  8
21  23  8
22  23  8
24  28  8
25  27  8
26  31  8
26  32  8
27  30  8
28  30  8
31  33  8
32  34  8
33  35  8
34  35  8
14  9  5
$$$$
