512605
  -OEChem-10302200282D
 34 35  0     1  0  0  0  0  0999 V2000
    2.0000    2.4571    0.0000 Br  0  0  0  0  0  0  0  0  0  0  0  0
    6.2731   -1.1307    0.0000 O   0  0  0  0  0  0  0  0  0  0  0  0
    7.1962    0.4571    0.0000 O   0  0  0  0  0  0  0  0  0  0  0  0
    5.4641    3.4571    0.0000 O   0  0  0  0  0  0  0  0  0  0  0  0
    5.4641    0.4571    0.0000 N   0  0  0  0  0  0  0  0  0  0  0  0
    4.3763   -2.8907    0.0000 N   0  0  0  0  0  0  0  0  0  0  0  0
    7.5464   -2.7862    0.0000 N   0  0  0  0  0  0  0  0  0  0  0  0
    6.3301    1.9571    0.0000 N   0  0  0  0  0  0  0  0  0  0  0  0
    4.9641   -2.0817    0.0000 C   0  0  2  0  0  0  0  0  0  0  0  0
    5.9641   -2.0817    0.0000 C   0  0  1  0  0  0  0  0  0  0  0  0
    4.6551   -1.1307    0.0000 C   0  0  0  0  0  0  0  0  0  0  0  0
    5.4641   -0.5429    0.0000 C   0  0  1  0  0  0  0  0  0  0  0  0
    6.5519   -2.8907    0.0000 C   0  0  0  0  0  0  0  0  0  0  0  0
    4.5981    0.9571    0.0000 C   0  0  0  0  0  0  0  0  0  0  0  0
    6.3301    0.9571    0.0000 C   0  0  0  0  0  0  0  0  0  0  0  0
    4.5981    1.9571    0.0000 C   0  0  0  0  0  0  0  0  0  0  0  0
    5.4641    2.4571    0.0000 C   0  0  0  0  0  0  0  0  0  0  0  0
    3.7320    2.4571    0.0000 C   0  0  0  0  0  0  0  0  0  0  0  0
    2.8660    1.9571    0.0000 C   0  0  0  0  0  0  0  0  0  0  0  0
    4.3517   -1.9847    0.0000 H   0  0  0  0  0  0  0  0  0  0  0  0
    6.5765   -1.9847    0.0000 H   0  0  0  0  0  0  0  0  0  0  0  0
    4.3451   -0.5937    0.0000 H   0  0  0  0  0  0  0  0  0  0  0  0
    4.0887   -1.3828    0.0000 H   0  0  0  0  0  0  0  0  0  0  0  0
    6.0165   -0.2614    0.0000 H   0  0  0  0  0  0  0  0  0  0  0  0
    5.9946   -3.1625    0.0000 H   0  0  0  0  0  0  0  0  0  0  0  0
    6.7228   -3.4867    0.0000 H   0  0  0  0  0  0  0  0  0  0  0  0
    3.7597   -2.8259    0.0000 H   0  0  0  0  0  0  0  0  0  0  0  0
    4.6285   -3.4571    0.0000 H   0  0  0  0  0  0  0  0  0  0  0  0
    4.0611    0.6471    0.0000 H   0  0  0  0  0  0  0  0  0  0  0  0
    7.9108   -3.2878    0.0000 H   0  0  0  0  0  0  0  0  0  0  0  0
    7.7986   -2.2198    0.0000 H   0  0  0  0  0  0  0  0  0  0  0  0
    6.8671    2.2671    0.0000 H   0  0  0  0  0  0  0  0  0  0  0  0
    3.7320    3.0771    0.0000 H   0  0  0  0  0  0  0  0  0  0  0  0
    2.8660    1.3371    0.0000 H   0  0  0  0  0  0  0  0  0  0  0  0
  1 19  1  0  0  0  0
  2 10  1  0  0  0  0
  2 12  1  0  0  0  0
  3 15  2  0  0  0  0
  4 17  2  0  0  0  0
 12  5  1  6  0  0  0
  5 14  1  0  0  0  0
  5 15  1  0  0  0  0
  9  6  1  1  0  0  0
  6 27  1  0  0  0  0
  6 28  1  0  0  0  0
  7 13  1  0  0  0  0
  7 30  1  0  0  0  0
  7 31  1  0  0  0  0
  8 15  1  0  0  0  0
  8 17  1  0  0  0  0
  8 32  1  0  0  0  0
  9 10  1  0  0  0  0
  9 11  1  0  0  0  0
  9 20  1  0  0  0  0
 10 13  1  6  0  0  0
 10 21  1  0  0  0  0
 11 12  1  0  0  0  0
 11 22  1  0  0  0  0
 11 23  1  0  0  0  0
 12 24  1  0  0  0  0
 13 25  1  0  0  0  0
 13 26  1  0  0  0  0
 14 16  2  0  0  0  0
 14 29  1  0  0  0  0
 16 17  1  0  0  0  0
 16 18  1  0  0  0  0
 18 19  2  3  0  0  0
 18 33  1  0  0  0  0
 19 34  1  0  0  0  0
M  END
> <PUBCHEM_COMPOUND_CID>
512605
> <PUBCHEM_COMPOUND_CANONICALIZED>
1
> <PUBCHEM_CACTVS_COMPLEXITY>
451
> <PUBCHEM_CACTVS_HBOND_ACCEPTOR>
5
> <PUBCHEM_CACTVS_HBOND_DONOR>
3
> <PUBCHEM_CACTVS_ROTATABLE_BOND>
3
> <PUBCHEM_CACTVS_SUBSKEYS>
AAADccBzsAAAEAAAAAAAAAAAAAAAASAAAAAgAAAAAAAAAAAAAAAAHgBQAAABTDzhgAYBAAPABACIAiFWUACAAAAgAAAIAIEIAEiKAAIAwQAPAAAOFyIAAMCwEAAAAAAAAAAAAAAAAAAAAAAAAAAAAAAAAA==
> <PUBCHEM_IUPAC_OPENEYE_NAME>
1-[(2R,4S,5R)-4-amino-5-(aminomethyl)tetrahydrofuran-2-yl]-5-(2-bromovinyl)pyrimidine-2,4-dione
> <PUBCHEM_IUPAC_CAS_NAME>
1-[(2R,4S,5R)-4-amino-5-(aminomethyl)-2-oxolanyl]-5-(2-bromoethenyl)pyrimidine-2,4-dione
> <PUBCHEM_IUPAC_NAME_MARKUP>
1-[(2<I>R</I>,4<I>S</I>,5<I>R</I>)-4-amino-5-(aminomethyl)oxolan-2-yl]-5-(2-bromoethenyl)pyrimidine-2,4-dione
> <PUBCHEM_IUPAC_NAME>
1-[(2R,4S,5R)-4-amino-5-(aminomethyl)oxolan-2-yl]-5-(2-bromoethenyl)pyrimidine-2,4-dione
> <PUBCHEM_IUPAC_SYSTEMATIC_NAME>
1-[(2R,4S,5R)-5-(aminomethyl)-4-azanyl-oxolan-2-yl]-5-(2-bromanylethenyl)pyrimidine-2,4-dione
> <PUBCHEM_IUPAC_TRADITIONAL_NAME>
1-[(2R,4S,5R)-4-amino-5-(aminomethyl)tetrahydrofuran-2-yl]-5-(2-bromovinyl)pyrimidine-2,4-quinone
> <PUBCHEM_IUPAC_INCHI>
InChI=1S/C11H15BrN4O3/c12-2-1-6-5-16(11(18)15-10(6)17)9-3-7(14)8(4-13)19-9/h1-2,5,7-9H,3-4,13-14H2,(H,15,17,18)/t7-,8+,9+/m0/s1
> <PUBCHEM_IUPAC_INCHIKEY>
PIQZKKPSMOEGSJ-DJLDLDEBSA-N
> <PUBCHEM_XLOGP3>
-0.5
> <PUBCHEM_EXACT_MASS>
330.03275
> <PUBCHEM_MOLECULAR_FORMULA>
C11H15BrN4O3
> <PUBCHEM_MOLECULAR_WEIGHT>
331.17
> <PUBCHEM_OPENEYE_CAN_SMILES>
C1C(C(OC1N2C=C(C(=O)NC2=O)C=CBr)CN)N
> <PUBCHEM_OPENEYE_ISO_SMILES>
C1[C@@H]([C@H](O[C@H]1N2C=C(C(=O)NC2=O)C=CBr)CN)N
> <PUBCHEM_CACTVS_TPSA>
111
> <PUBCHEM_MONOISOTOPIC_WEIGHT>
330.03275
> <PUBCHEM_TOTAL_CHARGE>
0
> <PUBCHEM_HEAVY_ATOM_COUNT>
19
> <PUBCHEM_ATOM_DEF_STEREO_COUNT>
3
> <PUBCHEM_ATOM_UDEF_STEREO_COUNT>
0
> <PUBCHEM_BOND_DEF_STEREO_COUNT>
0
> <PUBCHEM_BOND_UDEF_STEREO_COUNT>
1
> <PUBCHEM_ISOTOPIC_ATOM_COUNT>
0
> <PUBCHEM_COMPONENT_COUNT>
1
> <PUBCHEM_CACTVS_TAUTO_COUNT>
-1
> <PUBCHEM_COORDINATE_TYPE>
1
5
255
> <PUBCHEM_BONDANNOTATIONS>
10  13  6
14  16  8
16  17  8
18  19  1
12  5  6
5  14  8
5  15  8
9  6  5
8  15  8
8  17  8
$$$$
