512672
  -OEChem-10302200282D
 31 32  0     1  0  0  0  0  0999 V2000
    7.1962    2.3725    0.0000 Br  0  0  0  0  0  0  0  0  0  0  0  0
    6.3301    0.8725    0.0000 Br  0  0  0  0  0  0  0  0  0  0  0  0
    4.5411   -1.2153    0.0000 O   0  0  0  0  0  0  0  0  0  0  0  0
    2.6443   -2.9754    0.0000 O   0  0  0  0  0  0  0  0  0  0  0  0
    5.8144   -2.8709    0.0000 O   0  0  0  0  0  0  0  0  0  0  0  0
    2.0000    0.3725    0.0000 O   0  0  0  0  0  0  0  0  0  0  0  0
    3.7320    3.3725    0.0000 O   0  0  0  0  0  0  0  0  0  0  0  0
    3.7320    0.3725    0.0000 N   0  0  0  0  0  0  0  0  0  0  0  0
    4.5981    0.8725    0.0000 N   0  0  0  0  0  0  0  0  0  0  0  0
    2.8660    1.8725    0.0000 N   0  0  0  0  0  0  0  0  0  0  0  0
    3.2320   -2.1664    0.0000 C   0  0  1  0  0  0  0  0  0  0  0  0
    2.9230   -1.2153    0.0000 C   0  0  0  0  0  0  0  0  0  0  0  0
    4.2320   -2.1664    0.0000 C   0  0  1  0  0  0  0  0  0  0  0  0
    3.7320   -0.6275    0.0000 C   0  0  1  0  0  0  0  0  0  0  0  0
    4.8198   -2.9754    0.0000 C   0  0  0  0  0  0  0  0  0  0  0  0
    2.8660    0.8725    0.0000 C   0  0  0  0  0  0  0  0  0  0  0  0
    4.5981    1.8725    0.0000 C   0  0  0  0  0  0  0  0  0  0  0  0
    3.7320    2.3725    0.0000 C   0  0  0  0  0  0  0  0  0  0  0  0
    5.4641    2.3725    0.0000 C   0  0  0  0  0  0  0  0  0  0  0  0
    6.3301    1.8725    0.0000 C   0  0  0  0  0  0  0  0  0  0  0  0
    3.5135   -2.7188    0.0000 H   0  0  0  0  0  0  0  0  0  0  0  0
    2.6130   -0.6784    0.0000 H   0  0  0  0  0  0  0  0  0  0  0  0
    2.3566   -1.4675    0.0000 H   0  0  0  0  0  0  0  0  0  0  0  0
    4.8444   -2.0694    0.0000 H   0  0  0  0  0  0  0  0  0  0  0  0
    4.2845   -0.3461    0.0000 H   0  0  0  0  0  0  0  0  0  0  0  0
    4.2626   -3.2472    0.0000 H   0  0  0  0  0  0  0  0  0  0  0  0
    4.9907   -3.5714    0.0000 H   0  0  0  0  0  0  0  0  0  0  0  0
    2.0277   -2.9106    0.0000 H   0  0  0  0  0  0  0  0  0  0  0  0
    6.1788   -3.3725    0.0000 H   0  0  0  0  0  0  0  0  0  0  0  0
    2.3291    2.1825    0.0000 H   0  0  0  0  0  0  0  0  0  0  0  0
    5.4641    2.9925    0.0000 H   0  0  0  0  0  0  0  0  0  0  0  0
  1 20  1  0  0  0  0
  2 20  1  0  0  0  0
  3 13  1  0  0  0  0
  3 14  1  0  0  0  0
 11  4  1  1  0  0  0
  4 28  1  0  0  0  0
  5 15  1  0  0  0  0
  5 29  1  0  0  0  0
  6 16  2  0  0  0  0
  7 18  2  0  0  0  0
  8  9  1  0  0  0  0
 14  8  1  6  0  0  0
  8 16  1  0  0  0  0
  9 17  2  0  0  0  0
 10 16  1  0  0  0  0
 10 18  1  0  0  0  0
 10 30  1  0  0  0  0
 11 12  1  0  0  0  0
 11 13  1  0  0  0  0
 11 21  1  0  0  0  0
 12 14  1  0  0  0  0
 12 22  1  0  0  0  0
 12 23  1  0  0  0  0
 13 15  1  6  0  0  0
 13 24  1  0  0  0  0
 14 25  1  0  0  0  0
 15 26  1  0  0  0  0
 15 27  1  0  0  0  0
 17 18  1  0  0  0  0
 17 19  1  0  0  0  0
 19 20  2  0  0  0  0
 19 31  1  0  0  0  0
M  END
> <PUBCHEM_COMPOUND_CID>
512672
> <PUBCHEM_COMPOUND_CANONICALIZED>
1
> <PUBCHEM_CACTVS_COMPLEXITY>
491
> <PUBCHEM_CACTVS_HBOND_ACCEPTOR>
6
> <PUBCHEM_CACTVS_HBOND_DONOR>
3
> <PUBCHEM_CACTVS_ROTATABLE_BOND>
3
> <PUBCHEM_CACTVS_SUBSKEYS>
AAADccBzOAAAGAAAAAAAAAAAAAAAASAAAAAgAAAAAAAAAAAAAAAAHgBYCAABCBzhgAYBAALABgCoASFyEAAQAAAgAAAWAAEYABiBEAIAgAAOQAAfDyIDAACwMAIAAAAAAAAAAAAAAAAAAAAAAAAAAAAAAA==
> <PUBCHEM_IUPAC_OPENEYE_NAME>
6-(2,2-dibromovinyl)-2-[(2R,4S,5R)-4-hydroxy-5-(hydroxymethyl)tetrahydrofuran-2-yl]-1,2,4-triazine-3,5-dione
> <PUBCHEM_IUPAC_CAS_NAME>
6-(2,2-dibromoethenyl)-2-[(2R,4S,5R)-4-hydroxy-5-(hydroxymethyl)-2-oxolanyl]-1,2,4-triazine-3,5-dione
> <PUBCHEM_IUPAC_NAME_MARKUP>
6-(2,2-dibromoethenyl)-2-[(2<I>R</I>,4<I>S</I>,5<I>R</I>)-4-hydroxy-5-(hydroxymethyl)oxolan-2-yl]-1,2,4-triazine-3,5-dione
> <PUBCHEM_IUPAC_NAME>
6-(2,2-dibromoethenyl)-2-[(2R,4S,5R)-4-hydroxy-5-(hydroxymethyl)oxolan-2-yl]-1,2,4-triazine-3,5-dione
> <PUBCHEM_IUPAC_SYSTEMATIC_NAME>
6-[2,2-bis(bromanyl)ethenyl]-2-[(2R,4S,5R)-5-(hydroxymethyl)-4-oxidanyl-oxolan-2-yl]-1,2,4-triazine-3,5-dione
> <PUBCHEM_IUPAC_TRADITIONAL_NAME>
6-(2,2-dibromovinyl)-2-[(2R,4S,5R)-4-hydroxy-5-methylol-tetrahydrofuran-2-yl]-1,2,4-triazine-3,5-quinone
> <PUBCHEM_IUPAC_INCHI>
InChI=1S/C10H11Br2N3O5/c11-7(12)1-4-9(18)13-10(19)15(14-4)8-2-5(17)6(3-16)20-8/h1,5-6,8,16-17H,2-3H2,(H,13,18,19)/t5-,6+,8+/m0/s1
> <PUBCHEM_IUPAC_INCHIKEY>
BSCKXMCBGLWAMV-SHYZEUOFSA-N
> <PUBCHEM_XLOGP3_AA>
0.6
> <PUBCHEM_EXACT_MASS>
412.90450
> <PUBCHEM_MOLECULAR_FORMULA>
C10H11Br2N3O5
> <PUBCHEM_MOLECULAR_WEIGHT>
413.02
> <PUBCHEM_OPENEYE_CAN_SMILES>
C1C(C(OC1N2C(=O)NC(=O)C(=N2)C=C(Br)Br)CO)O
> <PUBCHEM_OPENEYE_ISO_SMILES>
C1[C@@H]([C@H](O[C@H]1N2C(=O)NC(=O)C(=N2)C=C(Br)Br)CO)O
> <PUBCHEM_CACTVS_TPSA>
112
> <PUBCHEM_MONOISOTOPIC_WEIGHT>
410.90655
> <PUBCHEM_TOTAL_CHARGE>
0
> <PUBCHEM_HEAVY_ATOM_COUNT>
20
> <PUBCHEM_ATOM_DEF_STEREO_COUNT>
3
> <PUBCHEM_ATOM_UDEF_STEREO_COUNT>
0
> <PUBCHEM_BOND_DEF_STEREO_COUNT>
0
> <PUBCHEM_BOND_UDEF_STEREO_COUNT>
0
> <PUBCHEM_ISOTOPIC_ATOM_COUNT>
0
> <PUBCHEM_COMPONENT_COUNT>
1
> <PUBCHEM_CACTVS_TAUTO_COUNT>
3
> <PUBCHEM_COORDINATE_TYPE>
1
5
255
> <PUBCHEM_BONDANNOTATIONS>
10  16  8
10  18  8
13  15  6
17  18  8
11  4  5
14  8  6
8  16  8
8  9  8
9  17  8
$$$$
