512662
  -OEChem-10302200282D
 66 72  0     1  0  0  0  0  0999 V2000
    7.2482   -0.7846    0.0000 F   0  0  0  0  0  0  0  0  0  0  0  0
    6.7140    1.2902    0.0000 O   0  0  0  0  0  0  0  0  0  0  0  0
    8.0976    0.1762    0.0000 O   0  0  0  0  0  0  0  0  0  0  0  0
    4.4162   -4.3662    0.0000 O   0  0  0  0  0  0  0  0  0  0  0  0
    2.9644   -3.5279    0.0000 O   0  0  0  0  0  0  0  0  0  0  0  0
    8.1142   -4.2846    0.0000 O   0  0  0  0  0  0  0  0  0  0  0  0
    9.8462   -1.2846    0.0000 O   0  0  0  0  0  0  0  0  0  0  0  0
    9.8462   -3.2846    0.0000 O   0  0  0  0  0  0  0  0  0  0  0  0
    2.0080    3.2222    0.0000 O   0  0  0  0  0  0  0  0  0  0  0  0
    3.8001    4.2569    0.0000 O   0  0  0  0  0  0  0  0  0  0  0  0
    3.7841    0.2154    0.0000 N   0  0  0  0  0  0  0  0  0  0  0  0
    5.5161    0.2154    0.0000 C   0  0  1  0  0  0  0  0  0  0  0  0
    6.3821   -0.2846    0.0000 C   0  0  2  0  0  0  0  0  0  0  0  0
    6.3821   -1.2846    0.0000 C   0  0  1  0  0  0  0  0  0  0  0  0
    4.6501   -0.2846    0.0000 C   0  0  1  0  0  0  0  0  0  0  0  0
    5.5161   -1.7846    0.0000 C   0  0  0  0  0  0  0  0  0  0  0  0
    4.6501   -1.2846    0.0000 C   0  0  0  0  0  0  0  0  0  0  0  0
    5.7253    1.1872    0.0000 C   0  0  0  0  0  0  0  0  0  0  0  0
    7.1192    0.3825    0.0000 C   0  0  0  0  0  0  0  0  0  0  0  0
    7.2482   -1.7846    0.0000 C   0  0  0  0  0  0  0  0  0  0  0  0
    5.5322   -2.8261    0.0000 C   0  0  0  0  0  0  0  0  0  0  0  0
    3.7401   -1.7915    0.0000 C   0  0  0  0  0  0  0  0  0  0  0  0
    4.6341   -3.3539    0.0000 C   0  0  0  0  0  0  0  0  0  0  0  0
    3.7320   -2.8331    0.0000 C   0  0  0  0  0  0  0  0  0  0  0  0
    8.1142   -1.2846    0.0000 C   0  0  0  0  0  0  0  0  0  0  0  0
    7.2482   -2.7846    0.0000 C   0  0  0  0  0  0  0  0  0  0  0  0
    3.7841    1.2154    0.0000 C   0  0  0  0  0  0  0  0  0  0  0  0
    8.1142   -3.2846    0.0000 C   0  0  0  0  0  0  0  0  0  0  0  0
    8.9802   -1.7846    0.0000 C   0  0  0  0  0  0  0  0  0  0  0  0
    3.3863   -4.4735    0.0000 C   0  0  0  0  0  0  0  0  0  0  0  0
    2.9180    1.7154    0.0000 C   0  0  0  0  0  0  0  0  0  0  0  0
    4.6501    1.7154    0.0000 C   0  0  0  0  0  0  0  0  0  0  0  0
    8.9802   -2.7846    0.0000 C   0  0  0  0  0  0  0  0  0  0  0  0
    2.9180    2.7154    0.0000 C   0  0  0  0  0  0  0  0  0  0  0  0
    4.6501    2.7154    0.0000 C   0  0  0  0  0  0  0  0  0  0  0  0
    3.7841    3.2154    0.0000 C   0  0  0  0  0  0  0  0  0  0  0  0
    2.0000    4.2638    0.0000 C   0  0  0  0  0  0  0  0  0  0  0  0
    7.2482   -4.7846    0.0000 C   0  0  0  0  0  0  0  0  0  0  0  0
   10.7123   -1.7846    0.0000 C   0  0  0  0  0  0  0  0  0  0  0  0
    2.9021    4.7846    0.0000 C   0  0  0  0  0  0  0  0  0  0  0  0
    4.8291    0.7159    0.0000 H   0  0  0  0  0  0  0  0  0  0  0  0
    6.3821   -1.9046    0.0000 H   0  0  0  0  0  0  0  0  0  0  0  0
    4.6501    0.3354    0.0000 H   0  0  0  0  0  0  0  0  0  0  0  0
    5.7262    1.8072    0.0000 H   0  0  0  0  0  0  0  0  0  0  0  0
    5.1088    1.2532    0.0000 H   0  0  0  0  0  0  0  0  0  0  0  0
    3.2471   -0.0946    0.0000 H   0  0  0  0  0  0  0  0  0  0  0  0
    6.0726   -3.1299    0.0000 H   0  0  0  0  0  0  0  0  0  0  0  0
    3.2068   -1.4753    0.0000 H   0  0  0  0  0  0  0  0  0  0  0  0
    8.1142   -0.6646    0.0000 H   0  0  0  0  0  0  0  0  0  0  0  0
    6.7112   -3.0946    0.0000 H   0  0  0  0  0  0  0  0  0  0  0  0
    2.7967   -4.6653    0.0000 H   0  0  0  0  0  0  0  0  0  0  0  0
    3.5151   -5.0800    0.0000 H   0  0  0  0  0  0  0  0  0  0  0  0
    2.3811    1.4054    0.0000 H   0  0  0  0  0  0  0  0  0  0  0  0
    5.1870    1.4054    0.0000 H   0  0  0  0  0  0  0  0  0  0  0  0
    5.1870    3.0254    0.0000 H   0  0  0  0  0  0  0  0  0  0  0  0
    9.8462   -3.9046    0.0000 H   0  0  0  0  0  0  0  0  0  0  0  0
    1.7864    4.8459    0.0000 H   0  0  0  0  0  0  0  0  0  0  0  0
    1.3900    4.1530    0.0000 H   0  0  0  0  0  0  0  0  0  0  0  0
    6.9382   -4.2477    0.0000 H   0  0  0  0  0  0  0  0  0  0  0  0
    6.7112   -5.0946    0.0000 H   0  0  0  0  0  0  0  0  0  0  0  0
    7.5582   -5.3216    0.0000 H   0  0  0  0  0  0  0  0  0  0  0  0
   10.4023   -2.3216    0.0000 H   0  0  0  0  0  0  0  0  0  0  0  0
   11.2492   -2.0946    0.0000 H   0  0  0  0  0  0  0  0  0  0  0  0
   11.0223   -1.2477    0.0000 H   0  0  0  0  0  0  0  0  0  0  0  0
    3.3030    5.2575    0.0000 H   0  0  0  0  0  0  0  0  0  0  0  0
    2.5048    5.2606    0.0000 H   0  0  0  0  0  0  0  0  0  0  0  0
 13  1  1  1  0  0  0
  2 18  1  0  0  0  0
  2 19  1  0  0  0  0
  3 19  2  0  0  0  0
  4 23  1  0  0  0  0
  4 30  1  0  0  0  0
  5 24  1  0  0  0  0
  5 30  1  0  0  0  0
  6 28  1  0  0  0  0
  6 38  1  0  0  0  0
  7 29  1  0  0  0  0
  7 39  1  0  0  0  0
  8 33  1  0  0  0  0
  8 56  1  0  0  0  0
  9 34  1  0  0  0  0
  9 37  1  0  0  0  0
 10 36  1  0  0  0  0
 10 40  1  0  0  0  0
 15 11  1  1  0  0  0
 11 27  1  0  0  0  0
 11 46  1  0  0  0  0
 12 13  1  0  0  0  0
 12 15  1  0  0  0  0
 12 18  1  0  0  0  0
 12 41  1  6  0  0  0
 13 14  1  0  0  0  0
 13 19  1  0  0  0  0
 14 16  1  0  0  0  0
 14 20  1  6  0  0  0
 14 42  1  0  0  0  0
 15 17  1  0  0  0  0
 15 43  1  0  0  0  0
 16 17  1  0  0  0  0
 16 21  2  0  0  0  0
 17 22  2  0  0  0  0
 18 44  1  0  0  0  0
 18 45  1  0  0  0  0
 20 25  2  0  0  0  0
 20 26  1  0  0  0  0
 21 23  1  0  0  0  0
 21 47  1  0  0  0  0
 22 24  1  0  0  0  0
 22 48  1  0  0  0  0
 23 24  2  0  0  0  0
 25 29  1  0  0  0  0
 25 49  1  0  0  0  0
 26 28  2  0  0  0  0
 26 50  1  0  0  0  0
 27 31  2  0  0  0  0
 27 32  1  0  0  0  0
 28 33  1  0  0  0  0
 29 33  2  0  0  0  0
 30 51  1  0  0  0  0
 30 52  1  0  0  0  0
 31 34  1  0  0  0  0
 31 53  1  0  0  0  0
 32 35  2  0  0  0  0
 32 54  1  0  0  0  0
 34 36  2  0  0  0  0
 35 36  1  0  0  0  0
 35 55  1  0  0  0  0
 37 40  1  0  0  0  0
 37 57  1  0  0  0  0
 37 58  1  0  0  0  0
 38 59  1  0  0  0  0
 38 60  1  0  0  0  0
 38 61  1  0  0  0  0
 39 62  1  0  0  0  0
 39 63  1  0  0  0  0
 39 64  1  0  0  0  0
 40 65  1  0  0  0  0
 40 66  1  0  0  0  0
M  END
> <PUBCHEM_COMPOUND_CID>
512662
> <PUBCHEM_COMPOUND_CANONICALIZED>
1
> <PUBCHEM_CACTVS_COMPLEXITY>
929
> <PUBCHEM_CACTVS_HBOND_ACCEPTOR>
11
> <PUBCHEM_CACTVS_HBOND_DONOR>
2
> <PUBCHEM_CACTVS_ROTATABLE_BOND>
5
> <PUBCHEM_CACTVS_SUBSKEYS>
AAADceB6PQAAAAAAAAAAAAAAAAAAASJAAAA0YMGCAAAAAEjRUAAAHwAQCAAADSzhmAcyzoLABgCIAiTSSACCCAAhIgAIiIEO7IgdJzLGsZumeCvn0B3P+Ae++P+OoEABCgAQQADQgAaUACSAAAAAAAAAAA==
> <PUBCHEM_IUPAC_OPENEYE_NAME>
(5R,5aS,8aS,9S)-9-(2,3-dihydro-1,4-benzodioxin-6-ylamino)-5a-fluoro-5-(4-hydroxy-3,5-dimethoxy-phenyl)-5,8,8a,9-tetrahydroisobenzofuro[5,6-f][1,3]benzodioxol-6-one
> <PUBCHEM_IUPAC_CAS_NAME>
(5R,5aS,8aS,9S)-9-(2,3-dihydro-1,4-benzodioxin-6-ylamino)-5a-fluoro-5-(4-hydroxy-3,5-dimethoxyphenyl)-5,8,8a,9-tetrahydroisobenzofuro[5,6-f][1,3]benzodioxol-6-one
> <PUBCHEM_IUPAC_NAME_MARKUP>
(5<I>R</I>,5<I>a</I><I>S</I>,8<I>a</I><I>S</I>,9<I>S</I>)-9-(2,3-dihydro-1,4-benzodioxin-6-ylamino)-5<I>a</I>-fluoro-5-(4-hydroxy-3,5-dimethoxyphenyl)-5,8,8<I>a</I>,9-tetrahydro-[2]benzofuro[5,6-f][1,3]benzodioxol-6-one
> <PUBCHEM_IUPAC_NAME>
(5R,5aS,8aS,9S)-9-(2,3-dihydro-1,4-benzodioxin-6-ylamino)-5a-fluoro-5-(4-hydroxy-3,5-dimethoxyphenyl)-5,8,8a,9-tetrahydro-[2]benzofuro[5,6-f][1,3]benzodioxol-6-one
> <PUBCHEM_IUPAC_SYSTEMATIC_NAME>
(5R,5aS,8aS,9S)-9-(2,3-dihydro-1,4-benzodioxin-6-ylamino)-5-(3,5-dimethoxy-4-oxidanyl-phenyl)-5a-fluoranyl-5,8,8a,9-tetrahydro-[2]benzofuro[5,6-f][1,3]benzodioxol-6-one
> <PUBCHEM_IUPAC_TRADITIONAL_NAME>
(5R,5aS,8aS,9S)-9-(2,3-dihydro-1,4-benzodioxin-6-ylamino)-5a-fluoro-5-(4-hydroxy-3,5-dimethoxy-phenyl)-5,8,8a,9-tetrahydroisobenzofuro[5,6-f][1,3]benzodioxol-6-one
> <PUBCHEM_IUPAC_INCHI>
InChI=1S/C29H26FNO9/c1-34-23-7-14(8-24(35-2)27(23)32)25-16-10-21-22(40-13-39-21)11-17(16)26(18-12-38-28(33)29(18,25)30)31-15-3-4-19-20(9-15)37-6-5-36-19/h3-4,7-11,18,25-26,31-32H,5-6,12-13H2,1-2H3/t18-,25-,26-,29-/m1/s1
> <PUBCHEM_IUPAC_INCHIKEY>
UDOPIXZWNUVIOI-XQMWOCNQSA-N
> <PUBCHEM_XLOGP3_AA>
4.2
> <PUBCHEM_EXACT_MASS>
551.15915957
> <PUBCHEM_MOLECULAR_FORMULA>
C29H26FNO9
> <PUBCHEM_MOLECULAR_WEIGHT>
551.5
> <PUBCHEM_OPENEYE_CAN_SMILES>
COC1=CC(=CC(=C1O)OC)C2C3=CC4=C(C=C3C(C5C2(C(=O)OC5)F)NC6=CC7=C(C=C6)OCCO7)OCO4
> <PUBCHEM_OPENEYE_ISO_SMILES>
COC1=CC(=CC(=C1O)OC)[C@@H]2C3=CC4=C(C=C3[C@H]([C@@H]5[C@@]2(C(=O)OC5)F)NC6=CC7=C(C=C6)OCCO7)OCO4
> <PUBCHEM_CACTVS_TPSA>
114
> <PUBCHEM_MONOISOTOPIC_WEIGHT>
551.15915957
> <PUBCHEM_TOTAL_CHARGE>
0
> <PUBCHEM_HEAVY_ATOM_COUNT>
40
> <PUBCHEM_ATOM_DEF_STEREO_COUNT>
4
> <PUBCHEM_ATOM_UDEF_STEREO_COUNT>
0
> <PUBCHEM_BOND_DEF_STEREO_COUNT>
0
> <PUBCHEM_BOND_UDEF_STEREO_COUNT>
0
> <PUBCHEM_ISOTOPIC_ATOM_COUNT>
0
> <PUBCHEM_COMPONENT_COUNT>
1
> <PUBCHEM_CACTVS_TAUTO_COUNT>
-1
> <PUBCHEM_COORDINATE_TYPE>
1
5
255
> <PUBCHEM_BONDANNOTATIONS>
13  1  5
15  11  5
12  41  6
14  20  6
16  17  8
16  21  8
17  22  8
20  25  8
20  26  8
21  23  8
22  24  8
23  24  8
25  29  8
26  28  8
27  31  8
27  32  8
28  33  8
29  33  8
31  34  8
32  35  8
34  36  8
35  36  8
$$$$
