512678
  -OEChem-10302200282D
 33 34  0     1  0  0  0  0  0999 V2000
    5.8301    1.5155    0.0000 F   0  0  0  0  0  0  0  0  0  0  0  0
    7.1962    1.8815    0.0000 F   0  0  0  0  0  0  0  0  0  0  0  0
    6.8301    3.2475    0.0000 F   0  0  0  0  0  0  0  0  0  0  0  0
    4.5411   -0.7063    0.0000 O   0  0  0  0  0  0  0  0  0  0  0  0
    2.6443   -2.4664    0.0000 O   0  0  0  0  0  0  0  0  0  0  0  0
    4.4131   -3.3799    0.0000 O   0  0  0  0  0  0  0  0  0  0  0  0
    2.0000    0.8815    0.0000 O   0  0  0  0  0  0  0  0  0  0  0  0
    3.7320    3.8815    0.0000 O   0  0  0  0  0  0  0  0  0  0  0  0
    3.7320    0.8815    0.0000 N   0  0  0  0  0  0  0  0  0  0  0  0
    4.5981    1.3815    0.0000 N   0  0  0  0  0  0  0  0  0  0  0  0
    2.8660    2.3815    0.0000 N   0  0  0  0  0  0  0  0  0  0  0  0
    3.2320   -1.6573    0.0000 C   0  0  1  0  0  0  0  0  0  0  0  0
    2.9230   -0.7063    0.0000 C   0  0  0  0  0  0  0  0  0  0  0  0
    3.7320   -0.1185    0.0000 C   0  0  1  0  0  0  0  0  0  0  0  0
    4.2320   -1.6573    0.0000 C   0  0  1  0  0  0  0  0  0  0  0  0
    4.8198   -2.4664    0.0000 C   0  0  0  0  0  0  0  0  0  0  0  0
    2.8660    1.3815    0.0000 C   0  0  0  0  0  0  0  0  0  0  0  0
    4.5981    2.3815    0.0000 C   0  0  0  0  0  0  0  0  0  0  0  0
    3.7320    2.8815    0.0000 C   0  0  0  0  0  0  0  0  0  0  0  0
    5.4641    2.8815    0.0000 C   0  0  0  0  0  0  0  0  0  0  0  0
    6.3301    2.3815    0.0000 C   0  0  0  0  0  0  0  0  0  0  0  0
    3.5135   -2.2098    0.0000 H   0  0  0  0  0  0  0  0  0  0  0  0
    2.6130   -0.1694    0.0000 H   0  0  0  0  0  0  0  0  0  0  0  0
    2.3566   -0.9585    0.0000 H   0  0  0  0  0  0  0  0  0  0  0  0
    4.2845    0.1630    0.0000 H   0  0  0  0  0  0  0  0  0  0  0  0
    4.8444   -1.5603    0.0000 H   0  0  0  0  0  0  0  0  0  0  0  0
    5.3338   -2.8131    0.0000 H   0  0  0  0  0  0  0  0  0  0  0  0
    5.2505   -2.0204    0.0000 H   0  0  0  0  0  0  0  0  0  0  0  0
    2.0277   -2.4016    0.0000 H   0  0  0  0  0  0  0  0  0  0  0  0
    2.3291    2.6915    0.0000 H   0  0  0  0  0  0  0  0  0  0  0  0
    5.8626    3.3564    0.0000 H   0  0  0  0  0  0  0  0  0  0  0  0
    5.0656    3.3564    0.0000 H   0  0  0  0  0  0  0  0  0  0  0  0
    4.7775   -3.8815    0.0000 H   0  0  0  0  0  0  0  0  0  0  0  0
  1 21  1  0  0  0  0
  2 21  1  0  0  0  0
  3 21  1  0  0  0  0
  4 14  1  0  0  0  0
  4 15  1  0  0  0  0
 12  5  1  1  0  0  0
  5 29  1  0  0  0  0
  6 16  1  0  0  0  0
  6 33  1  0  0  0  0
  7 17  2  0  0  0  0
  8 19  2  0  0  0  0
  9 10  1  0  0  0  0
 14  9  1  6  0  0  0
  9 17  1  0  0  0  0
 10 18  2  0  0  0  0
 11 17  1  0  0  0  0
 11 19  1  0  0  0  0
 11 30  1  0  0  0  0
 12 13  1  0  0  0  0
 12 15  1  0  0  0  0
 12 22  1  0  0  0  0
 13 14  1  0  0  0  0
 13 23  1  0  0  0  0
 13 24  1  0  0  0  0
 14 25  1  0  0  0  0
 15 16  1  6  0  0  0
 15 26  1  0  0  0  0
 16 27  1  0  0  0  0
 16 28  1  0  0  0  0
 18 19  1  0  0  0  0
 18 20  1  0  0  0  0
 20 21  1  0  0  0  0
 20 31  1  0  0  0  0
 20 32  1  0  0  0  0
M  END
> <PUBCHEM_COMPOUND_CID>
512678
> <PUBCHEM_COMPOUND_CANONICALIZED>
1
> <PUBCHEM_CACTVS_COMPLEXITY>
481
> <PUBCHEM_CACTVS_HBOND_ACCEPTOR>
9
> <PUBCHEM_CACTVS_HBOND_DONOR>
3
> <PUBCHEM_CACTVS_ROTATABLE_BOND>
3
> <PUBCHEM_CACTVS_SUBSKEYS>
AAADccBzOYAAAAAAAAAAAAAAAAAAASAAAAAgAAAAAAAAAAAAAAAAHwAYCAAACBzhgBYBAALABgAoAQEwEAAQAAAAAAAWAAE4AACBEBIAgAAOQAAfDyIDAACwMAIAAAAAAAAAAAAAAAAAAAAAAAAAAAAAAA==
> <PUBCHEM_IUPAC_OPENEYE_NAME>
2-[(2R,4S,5R)-4-hydroxy-5-(hydroxymethyl)tetrahydrofuran-2-yl]-6-(2,2,2-trifluoroethyl)-1,2,4-triazine-3,5-dione
> <PUBCHEM_IUPAC_CAS_NAME>
2-[(2R,4S,5R)-4-hydroxy-5-(hydroxymethyl)-2-oxolanyl]-6-(2,2,2-trifluoroethyl)-1,2,4-triazine-3,5-dione
> <PUBCHEM_IUPAC_NAME_MARKUP>
2-[(2<I>R</I>,4<I>S</I>,5<I>R</I>)-4-hydroxy-5-(hydroxymethyl)oxolan-2-yl]-6-(2,2,2-trifluoroethyl)-1,2,4-triazine-3,5-dione
> <PUBCHEM_IUPAC_NAME>
2-[(2R,4S,5R)-4-hydroxy-5-(hydroxymethyl)oxolan-2-yl]-6-(2,2,2-trifluoroethyl)-1,2,4-triazine-3,5-dione
> <PUBCHEM_IUPAC_SYSTEMATIC_NAME>
2-[(2R,4S,5R)-5-(hydroxymethyl)-4-oxidanyl-oxolan-2-yl]-6-[2,2,2-tris(fluoranyl)ethyl]-1,2,4-triazine-3,5-dione
> <PUBCHEM_IUPAC_TRADITIONAL_NAME>
2-[(2R,4S,5R)-4-hydroxy-5-methylol-tetrahydrofuran-2-yl]-6-(2,2,2-trifluoroethyl)-1,2,4-triazine-3,5-quinone
> <PUBCHEM_IUPAC_INCHI>
InChI=1S/C10H12F3N3O5/c11-10(12,13)2-4-8(19)14-9(20)16(15-4)7-1-5(18)6(3-17)21-7/h5-7,17-18H,1-3H2,(H,14,19,20)/t5-,6+,7+/m0/s1
> <PUBCHEM_IUPAC_INCHIKEY>
ZELMDIQXLJNQQP-RRKCRQDMSA-N
> <PUBCHEM_XLOGP3_AA>
-0.2
> <PUBCHEM_EXACT_MASS>
311.07290498
> <PUBCHEM_MOLECULAR_FORMULA>
C10H12F3N3O5
> <PUBCHEM_MOLECULAR_WEIGHT>
311.21
> <PUBCHEM_OPENEYE_CAN_SMILES>
C1C(C(OC1N2C(=O)NC(=O)C(=N2)CC(F)(F)F)CO)O
> <PUBCHEM_OPENEYE_ISO_SMILES>
C1[C@@H]([C@H](O[C@H]1N2C(=O)NC(=O)C(=N2)CC(F)(F)F)CO)O
> <PUBCHEM_CACTVS_TPSA>
112
> <PUBCHEM_MONOISOTOPIC_WEIGHT>
311.07290498
> <PUBCHEM_TOTAL_CHARGE>
0
> <PUBCHEM_HEAVY_ATOM_COUNT>
21
> <PUBCHEM_ATOM_DEF_STEREO_COUNT>
3
> <PUBCHEM_ATOM_UDEF_STEREO_COUNT>
0
> <PUBCHEM_BOND_DEF_STEREO_COUNT>
0
> <PUBCHEM_BOND_UDEF_STEREO_COUNT>
0
> <PUBCHEM_ISOTOPIC_ATOM_COUNT>
0
> <PUBCHEM_COMPONENT_COUNT>
1
> <PUBCHEM_CACTVS_TAUTO_COUNT>
3
> <PUBCHEM_COORDINATE_TYPE>
1
5
255
> <PUBCHEM_BONDANNOTATIONS>
10  18  8
11  17  8
11  19  8
15  16  6
18  19  8
12  5  5
9  10  8
14  9  6
9  17  8
$$$$
