512680
  -OEChem-10302200282D
 35 37  0     1  0  0  0  0  0999 V2000
    2.0000   -0.6734    0.0000 F   0  0  0  0  0  0  0  0  0  0  0  0
    7.6146   -0.2000    0.0000 O   0  0  0  0  0  0  0  0  0  0  0  0
    7.6183    1.9756    0.0000 O   0  0  0  0  0  0  0  0  0  0  0  0
    6.2208    3.3934    0.0000 O   0  0  0  0  0  0  0  0  0  0  0  0
    5.5443   -0.8687    0.0000 N   0  0  0  0  0  0  0  0  0  0  0  0
    5.5443   -2.4782    0.0000 N   0  0  0  0  0  0  0  0  0  0  0  0
    3.7320   -0.6734    0.0000 N   0  0  0  0  0  0  0  0  0  0  0  0
    2.8660   -2.1734    0.0000 N   0  0  0  0  0  0  0  0  0  0  0  0
    3.7320   -3.6734    0.0000 N   0  0  0  0  0  0  0  0  0  0  0  0
    5.8550    0.0818    0.0000 C   0  0  1  0  0  0  0  0  0  0  0  0
    6.8066    0.3892    0.0000 C   0  0  1  0  0  0  0  0  0  0  0  0
    6.8083    1.3892    0.0000 C   0  0  1  0  0  0  0  0  0  0  0  0
    5.8578    1.6999    0.0000 C   0  0  0  0  0  0  0  0  0  0  0  0
    5.2686    0.8919    0.0000 C   0  0  0  0  0  0  0  0  0  0  0  0
    5.5504    2.6514    0.0000 C   0  0  1  0  0  0  0  0  0  0  0  0
    4.5981   -1.1734    0.0000 C   0  0  0  0  0  0  0  0  0  0  0  0
    6.1279   -1.6734    0.0000 C   0  0  0  0  0  0  0  0  0  0  0  0
    4.5726    2.8611    0.0000 C   0  0  0  0  0  0  0  0  0  0  0  0
    4.5981   -2.1734    0.0000 C   0  0  0  0  0  0  0  0  0  0  0  0
    3.7320   -2.6734    0.0000 C   0  0  0  0  0  0  0  0  0  0  0  0
    2.8660   -1.1734    0.0000 C   0  0  0  0  0  0  0  0  0  0  0  0
    6.2926   -0.3573    0.0000 H   0  0  0  0  0  0  0  0  0  0  0  0
    7.3595    0.6697    0.0000 H   0  0  0  0  0  0  0  0  0  0  0  0
    7.3602    1.1068    0.0000 H   0  0  0  0  0  0  0  0  0  0  0  0
    4.6486    0.8929    0.0000 H   0  0  0  0  0  0  0  0  0  0  0  0
    5.3598    3.2414    0.0000 H   0  0  0  0  0  0  0  0  0  0  0  0
    8.1814    0.0512    0.0000 H   0  0  0  0  0  0  0  0  0  0  0  0
    6.7479   -1.6734    0.0000 H   0  0  0  0  0  0  0  0  0  0  0  0
    8.1843    1.7224    0.0000 H   0  0  0  0  0  0  0  0  0  0  0  0
    4.7026    3.4673    0.0000 H   0  0  0  0  0  0  0  0  0  0  0  0
    3.9664    2.9910    0.0000 H   0  0  0  0  0  0  0  0  0  0  0  0
    4.4427    2.2548    0.0000 H   0  0  0  0  0  0  0  0  0  0  0  0
    6.0302    3.9834    0.0000 H   0  0  0  0  0  0  0  0  0  0  0  0
    3.1951   -3.9834    0.0000 H   0  0  0  0  0  0  0  0  0  0  0  0
    4.2690   -3.9834    0.0000 H   0  0  0  0  0  0  0  0  0  0  0  0
  1 21  1  0  0  0  0
 11  2  1  1  0  0  0
  2 27  1  0  0  0  0
 12  3  1  1  0  0  0
  3 29  1  0  0  0  0
 15  4  1  1  0  0  0
  4 33  1  0  0  0  0
 10  5  1  6  0  0  0
  5 16  1  0  0  0  0
  5 17  1  0  0  0  0
  6 17  2  0  0  0  0
  6 19  1  0  0  0  0
  7 16  2  0  0  0  0
  7 21  1  0  0  0  0
  8 20  1  0  0  0  0
  8 21  2  0  0  0  0
  9 20  1  0  0  0  0
  9 34  1  0  0  0  0
  9 35  1  0  0  0  0
 10 11  1  0  0  0  0
 10 14  1  0  0  0  0
 10 22  1  0  0  0  0
 11 12  1  0  0  0  0
 11 23  1  0  0  0  0
 12 13  1  0  0  0  0
 12 24  1  0  0  0  0
 13 14  2  0  0  0  0
 13 15  1  0  0  0  0
 14 25  1  0  0  0  0
 15 18  1  0  0  0  0
 15 26  1  0  0  0  0
 16 19  1  0  0  0  0
 17 28  1  0  0  0  0
 18 30  1  0  0  0  0
 18 31  1  0  0  0  0
 18 32  1  0  0  0  0
 19 20  2  0  0  0  0
M  END
> <PUBCHEM_COMPOUND_CID>
512680
> <PUBCHEM_COMPOUND_CANONICALIZED>
1
> <PUBCHEM_CACTVS_COMPLEXITY>
439
> <PUBCHEM_CACTVS_HBOND_ACCEPTOR>
8
> <PUBCHEM_CACTVS_HBOND_DONOR>
4
> <PUBCHEM_CACTVS_ROTATABLE_BOND>
2
> <PUBCHEM_CACTVS_SUBSKEYS>
AAADccBzsQAAAAAAAAAAAAAAAAAAAWIAAAAsAAAAAAAAAFgB+AAAHwAQCAAADDzhlwYH8L9MEgCgAyZjZACAgC0xEKABWCAoVBiDXAJAyUAUVAgPwALZECPQ0AMAAAAAAAAAAAAAAAAAAAAAAAAAAAAAAA==
> <PUBCHEM_IUPAC_OPENEYE_NAME>
(1S,2R,5R)-5-(6-amino-2-fluoro-purin-9-yl)-3-[(1R)-1-hydroxyethyl]cyclopent-3-ene-1,2-diol
> <PUBCHEM_IUPAC_CAS_NAME>
(1S,2R,5R)-5-(6-amino-2-fluoro-9-purinyl)-3-[(1R)-1-hydroxyethyl]cyclopent-3-ene-1,2-diol
> <PUBCHEM_IUPAC_NAME_MARKUP>
(1<I>S</I>,2<I>R</I>,5<I>R</I>)-5-(6-amino-2-fluoropurin-9-yl)-3-[(1<I>R</I>)-1-hydroxyethyl]cyclopent-3-ene-1,2-diol
> <PUBCHEM_IUPAC_NAME>
(1S,2R,5R)-5-(6-amino-2-fluoropurin-9-yl)-3-[(1R)-1-hydroxyethyl]cyclopent-3-ene-1,2-diol
> <PUBCHEM_IUPAC_SYSTEMATIC_NAME>
(1S,2R,5R)-5-(6-azanyl-2-fluoranyl-purin-9-yl)-3-[(1R)-1-oxidanylethyl]cyclopent-3-ene-1,2-diol
> <PUBCHEM_IUPAC_TRADITIONAL_NAME>
(1S,2R,5R)-5-(6-amino-2-fluoro-purin-9-yl)-3-[(1R)-1-hydroxyethyl]cyclopent-3-ene-1,2-diol
> <PUBCHEM_IUPAC_INCHI>
InChI=1S/C12H14FN5O3/c1-4(19)5-2-6(9(21)8(5)20)18-3-15-7-10(14)16-12(13)17-11(7)18/h2-4,6,8-9,19-21H,1H3,(H2,14,16,17)/t4-,6-,8-,9+/m1/s1
> <PUBCHEM_IUPAC_INCHIKEY>
HZLKIZSDMIDPGP-YWUKIDGPSA-N
> <PUBCHEM_XLOGP3_AA>
-1.1
> <PUBCHEM_EXACT_MASS>
295.10806749
> <PUBCHEM_MOLECULAR_FORMULA>
C12H14FN5O3
> <PUBCHEM_MOLECULAR_WEIGHT>
295.27
> <PUBCHEM_OPENEYE_CAN_SMILES>
CC(C1=CC(C(C1O)O)N2C=NC3=C(N=C(N=C32)F)N)O
> <PUBCHEM_OPENEYE_ISO_SMILES>
C[C@H](C1=C[C@H]([C@@H]([C@@H]1O)O)N2C=NC3=C(N=C(N=C32)F)N)O
> <PUBCHEM_CACTVS_TPSA>
130
> <PUBCHEM_MONOISOTOPIC_WEIGHT>
295.10806749
> <PUBCHEM_TOTAL_CHARGE>
0
> <PUBCHEM_HEAVY_ATOM_COUNT>
21
> <PUBCHEM_ATOM_DEF_STEREO_COUNT>
4
> <PUBCHEM_ATOM_UDEF_STEREO_COUNT>
0
> <PUBCHEM_BOND_DEF_STEREO_COUNT>
0
> <PUBCHEM_BOND_UDEF_STEREO_COUNT>
0
> <PUBCHEM_ISOTOPIC_ATOM_COUNT>
0
> <PUBCHEM_COMPONENT_COUNT>
1
> <PUBCHEM_CACTVS_TAUTO_COUNT>
-1
> <PUBCHEM_COORDINATE_TYPE>
1
5
255
> <PUBCHEM_BONDANNOTATIONS>
16  19  8
19  20  8
11  2  5
12  3  5
15  4  5
10  5  6
5  16  8
5  17  8
6  17  8
6  19  8
7  16  8
7  21  8
8  20  8
8  21  8
$$$$
