512639
  -OEChem-10302200282D
112114  0     1  0  0  0  0  0999 V2000
   13.7953    3.6550    0.0000 O   0  0  0  0  0  0  0  0  0  0  0  0
   12.9292    0.1550    0.0000 O   0  0  0  0  0  0  0  0  0  0  0  0
    9.4651   -0.8450    0.0000 O   0  0  0  0  0  0  0  0  0  0  0  0
    8.5991   -1.3450    0.0000 O   0  0  0  0  0  0  0  0  0  0  0  0
    9.4651    3.1550    0.0000 O   0  0  0  0  0  0  0  0  0  0  0  0
   11.1972    6.1550    0.0000 O   0  0  0  0  0  0  0  0  0  0  0  0
    8.5991    1.6550    0.0000 O   0  0  0  0  0  0  0  0  0  0  0  0
   10.3312    4.6550    0.0000 O   0  0  0  0  0  0  0  0  0  0  0  0
    6.0010   -3.8450    0.0000 O   0  0  0  0  0  0  0  0  0  0  0  0
    6.0010   -5.8450    0.0000 O   0  0  0  0  0  0  0  0  0  0  0  0
    7.7331   -5.8450    0.0000 O   0  0  0  0  0  0  0  0  0  0  0  0
    2.5369   -2.8450    0.0000 O   0  0  0  0  0  0  0  0  0  0  0  0
    3.4030   -1.3450    0.0000 O   0  0  0  0  0  0  0  0  0  0  0  0
   12.0632    1.6550    0.0000 N   0  0  0  0  0  0  0  0  0  0  0  0
   12.0632    3.6550    0.0000 N   0  0  0  0  0  0  0  0  0  0  0  0
   11.1972   -0.8450    0.0000 N   0  0  0  0  0  0  0  0  0  0  0  0
    9.4651   -2.8450    0.0000 N   0  0  0  0  0  0  0  0  0  0  0  0
    6.8671   -2.3450    0.0000 N   0  0  0  0  0  0  0  0  0  0  0  0
    5.1350   -1.3450    0.0000 N   0  0  0  0  0  0  0  0  0  0  0  0
   14.6613    2.1550    0.0000 C   0  0  0  0  0  0  0  0  0  0  0  0
   14.6613    3.1550    0.0000 C   0  0  0  0  0  0  0  0  0  0  0  0
   15.5273    1.6550    0.0000 C   0  0  0  0  0  0  0  0  0  0  0  0
   15.5273    3.6550    0.0000 C   0  0  0  0  0  0  0  0  0  0  0  0
   16.3933    2.1550    0.0000 C   0  0  0  0  0  0  0  0  0  0  0  0
   13.7953    1.6550    0.0000 C   0  0  0  0  0  0  0  0  0  0  0  0
   16.3933    3.1550    0.0000 C   0  0  0  0  0  0  0  0  0  0  0  0
   12.9292    2.1550    0.0000 C   0  0  1  0  0  0  0  0  0  0  0  0
   12.9292    3.1550    0.0000 C   0  0  0  0  0  0  0  0  0  0  0  0
   12.0632    0.6550    0.0000 C   0  0  0  0  0  0  0  0  0  0  0  0
   11.1972    0.1550    0.0000 C   0  0  2  0  0  0  0  0  0  0  0  0
   10.3312    0.6550    0.0000 C   0  0  0  0  0  0  0  0  0  0  0  0
   10.3312   -2.3450    0.0000 C   0  0  1  0  0  0  0  0  0  0  0  0
   11.1972   -2.8450    0.0000 C   0  0  0  0  0  0  0  0  0  0  0  0
   10.3312   -1.3450    0.0000 C   0  0  0  0  0  0  0  0  0  0  0  0
   10.3312    1.6550    0.0000 C   0  0  0  0  0  0  0  0  0  0  0  0
   12.0632    4.6550    0.0000 C   0  0  0  0  0  0  0  0  0  0  0  0
   11.1972   -3.8450    0.0000 C   0  0  0  0  0  0  0  0  0  0  0  0
   12.1972   -2.8450    0.0000 C   0  0  0  0  0  0  0  0  0  0  0  0
    7.7331   -2.8450    0.0000 C   0  0  2  0  0  0  0  0  0  0  0  0
    8.5991   -2.3450    0.0000 C   0  0  0  0  0  0  0  0  0  0  0  0
    9.4651    2.1550    0.0000 C   0  0  0  0  0  0  0  0  0  0  0  0
   11.1972    5.1550    0.0000 C   0  0  0  0  0  0  0  0  0  0  0  0
    7.7331   -3.8450    0.0000 C   0  0  0  0  0  0  0  0  0  0  0  0
   12.9292    5.1550    0.0000 C   0  0  0  0  0  0  0  0  0  0  0  0
   12.0632   -4.3450    0.0000 C   0  0  0  0  0  0  0  0  0  0  0  0
   12.6972   -1.9790    0.0000 C   0  0  0  0  0  0  0  0  0  0  0  0
   10.3312   -4.3450    0.0000 C   0  0  0  0  0  0  0  0  0  0  0  0
   12.6972   -3.7110    0.0000 C   0  0  0  0  0  0  0  0  0  0  0  0
    6.8671   -4.3450    0.0000 C   0  0  0  0  0  0  0  0  0  0  0  0
   12.0632   -5.3450    0.0000 C   0  0  0  0  0  0  0  0  0  0  0  0
   13.6972   -1.9790    0.0000 C   0  0  0  0  0  0  0  0  0  0  0  0
   10.3312   -5.3450    0.0000 C   0  0  0  0  0  0  0  0  0  0  0  0
   13.6972   -3.7110    0.0000 C   0  0  0  0  0  0  0  0  0  0  0  0
   11.1972   -5.8450    0.0000 C   0  0  0  0  0  0  0  0  0  0  0  0
   14.1972   -2.8450    0.0000 C   0  0  0  0  0  0  0  0  0  0  0  0
    6.0010   -2.8450    0.0000 C   0  0  0  0  0  0  0  0  0  0  0  0
    5.1350   -2.3450    0.0000 C   0  0  2  0  0  0  0  0  0  0  0  0
    6.8671   -5.3450    0.0000 C   0  0  0  0  0  0  0  0  0  0  0  0
    4.2690   -2.8450    0.0000 C   0  0  0  0  0  0  0  0  0  0  0  0
    3.4030   -2.3450    0.0000 C   0  0  0  0  0  0  0  0  0  0  0  0
   14.1244    2.4650    0.0000 H   0  0  0  0  0  0  0  0  0  0  0  0
   14.4492    3.7376    0.0000 H   0  0  0  0  0  0  0  0  0  0  0  0
   14.0507    3.0473    0.0000 H   0  0  0  0  0  0  0  0  0  0  0  0
   15.1288    1.1800    0.0000 H   0  0  0  0  0  0  0  0  0  0  0  0
   15.9258    1.1800    0.0000 H   0  0  0  0  0  0  0  0  0  0  0  0
   15.9258    4.1300    0.0000 H   0  0  0  0  0  0  0  0  0  0  0  0
   15.1288    4.1300    0.0000 H   0  0  0  0  0  0  0  0  0  0  0  0
   16.6054    1.5724    0.0000 H   0  0  0  0  0  0  0  0  0  0  0  0
   17.0039    2.2627    0.0000 H   0  0  0  0  0  0  0  0  0  0  0  0
   13.3967    1.1800    0.0000 H   0  0  0  0  0  0  0  0  0  0  0  0
   14.1938    1.1800    0.0000 H   0  0  0  0  0  0  0  0  0  0  0  0
   17.0039    3.0473    0.0000 H   0  0  0  0  0  0  0  0  0  0  0  0
   16.6054    3.7376    0.0000 H   0  0  0  0  0  0  0  0  0  0  0  0
   12.3923    2.4650    0.0000 H   0  0  0  0  0  0  0  0  0  0  0  0
   11.5263    1.9650    0.0000 H   0  0  0  0  0  0  0  0  0  0  0  0
   10.6603   -0.1550    0.0000 H   0  0  0  0  0  0  0  0  0  0  0  0
   11.5263    3.3450    0.0000 H   0  0  0  0  0  0  0  0  0  0  0  0
    9.7206    0.7627    0.0000 H   0  0  0  0  0  0  0  0  0  0  0  0
   10.1191    0.0724    0.0000 H   0  0  0  0  0  0  0  0  0  0  0  0
   11.7341   -1.1550    0.0000 H   0  0  0  0  0  0  0  0  0  0  0  0
    9.7942   -2.0350    0.0000 H   0  0  0  0  0  0  0  0  0  0  0  0
   11.3577   -2.2461    0.0000 H   0  0  0  0  0  0  0  0  0  0  0  0
   10.9417    1.5473    0.0000 H   0  0  0  0  0  0  0  0  0  0  0  0
   10.5432    2.2376    0.0000 H   0  0  0  0  0  0  0  0  0  0  0  0
    9.4651   -3.4650    0.0000 H   0  0  0  0  0  0  0  0  0  0  0  0
    7.7331   -2.2250    0.0000 H   0  0  0  0  0  0  0  0  0  0  0  0
    7.9451   -4.4276    0.0000 H   0  0  0  0  0  0  0  0  0  0  0  0
    8.3437   -3.7373    0.0000 H   0  0  0  0  0  0  0  0  0  0  0  0
   12.6002   -4.0350    0.0000 H   0  0  0  0  0  0  0  0  0  0  0  0
   12.3872   -1.4420    0.0000 H   0  0  0  0  0  0  0  0  0  0  0  0
    9.7942   -4.0350    0.0000 H   0  0  0  0  0  0  0  0  0  0  0  0
   12.3872   -4.2480    0.0000 H   0  0  0  0  0  0  0  0  0  0  0  0
   13.4662    4.8450    0.0000 H   0  0  0  0  0  0  0  0  0  0  0  0
   12.9292    5.7750    0.0000 H   0  0  0  0  0  0  0  0  0  0  0  0
    6.8671   -1.7250    0.0000 H   0  0  0  0  0  0  0  0  0  0  0  0
    6.6550   -3.7624    0.0000 H   0  0  0  0  0  0  0  0  0  0  0  0
    6.2565   -4.4527    0.0000 H   0  0  0  0  0  0  0  0  0  0  0  0
   12.6002   -5.6550    0.0000 H   0  0  0  0  0  0  0  0  0  0  0  0
   14.0072   -1.4420    0.0000 H   0  0  0  0  0  0  0  0  0  0  0  0
    9.7942   -5.6550    0.0000 H   0  0  0  0  0  0  0  0  0  0  0  0
   14.0072   -4.2480    0.0000 H   0  0  0  0  0  0  0  0  0  0  0  0
   11.1972   -6.4650    0.0000 H   0  0  0  0  0  0  0  0  0  0  0  0
   14.8172   -2.8450    0.0000 H   0  0  0  0  0  0  0  0  0  0  0  0
    5.6720   -2.0350    0.0000 H   0  0  0  0  0  0  0  0  0  0  0  0
    8.9282    3.4650    0.0000 H   0  0  0  0  0  0  0  0  0  0  0  0
   10.6603    6.4650    0.0000 H   0  0  0  0  0  0  0  0  0  0  0  0
    3.8705   -3.3200    0.0000 H   0  0  0  0  0  0  0  0  0  0  0  0
    4.6675   -3.3200    0.0000 H   0  0  0  0  0  0  0  0  0  0  0  0
    4.5981   -1.0350    0.0000 H   0  0  0  0  0  0  0  0  0  0  0  0
    5.6720   -1.0350    0.0000 H   0  0  0  0  0  0  0  0  0  0  0  0
    6.0010   -6.4650    0.0000 H   0  0  0  0  0  0  0  0  0  0  0  0
    2.0000   -2.5350    0.0000 H   0  0  0  0  0  0  0  0  0  0  0  0
  1 28  2  0  0  0  0
  2 29  2  0  0  0  0
  3 34  2  0  0  0  0
  4 40  2  0  0  0  0
  5 41  1  0  0  0  0
  5105  1  0  0  0  0
  6 42  1  0  0  0  0
  6106  1  0  0  0  0
  7 41  2  0  0  0  0
  8 42  2  0  0  0  0
  9 56  2  0  0  0  0
 10 58  1  0  0  0  0
 10111  1  0  0  0  0
 11 58  2  0  0  0  0
 12 60  1  0  0  0  0
 12112  1  0  0  0  0
 13 60  2  0  0  0  0
 27 14  1  6  0  0  0
 14 29  1  0  0  0  0
 14 75  1  0  0  0  0
 15 28  1  0  0  0  0
 15 36  1  0  0  0  0
 15 77  1  0  0  0  0
 30 16  1  1  0  0  0
 16 34  1  0  0  0  0
 16 80  1  0  0  0  0
 32 17  1  6  0  0  0
 17 40  1  0  0  0  0
 17 85  1  0  0  0  0
 39 18  1  6  0  0  0
 18 56  1  0  0  0  0
 18 95  1  0  0  0  0
 57 19  1  6  0  0  0
 19109  1  0  0  0  0
 19110  1  0  0  0  0
 20 21  1  0  0  0  0
 20 22  1  0  0  0  0
 20 25  1  0  0  0  0
 20 61  1  0  0  0  0
 21 23  1  0  0  0  0
 21 62  1  0  0  0  0
 21 63  1  0  0  0  0
 22 24  1  0  0  0  0
 22 64  1  0  0  0  0
 22 65  1  0  0  0  0
 23 26  1  0  0  0  0
 23 66  1  0  0  0  0
 23 67  1  0  0  0  0
 24 26  1  0  0  0  0
 24 68  1  0  0  0  0
 24 69  1  0  0  0  0
 25 27  1  0  0  0  0
 25 70  1  0  0  0  0
 25 71  1  0  0  0  0
 26 72  1  0  0  0  0
 26 73  1  0  0  0  0
 27 28  1  0  0  0  0
 27 74  1  0  0  0  0
 29 30  1  0  0  0  0
 30 31  1  0  0  0  0
 30 76  1  0  0  0  0
 31 35  1  0  0  0  0
 31 78  1  0  0  0  0
 31 79  1  0  0  0  0
 32 33  1  0  0  0  0
 32 34  1  0  0  0  0
 32 81  1  0  0  0  0
 33 37  1  0  0  0  0
 33 38  1  0  0  0  0
 33 82  1  0  0  0  0
 35 41  1  0  0  0  0
 35 83  1  0  0  0  0
 35 84  1  0  0  0  0
 36 42  1  0  0  0  0
 36 44  2  0  0  0  0
 37 45  2  0  0  0  0
 37 47  1  0  0  0  0
 38 46  2  0  0  0  0
 38 48  1  0  0  0  0
 39 40  1  0  0  0  0
 39 43  1  0  0  0  0
 39 86  1  0  0  0  0
 43 49  1  0  0  0  0
 43 87  1  0  0  0  0
 43 88  1  0  0  0  0
 44 93  1  0  0  0  0
 44 94  1  0  0  0  0
 45 50  1  0  0  0  0
 45 89  1  0  0  0  0
 46 51  1  0  0  0  0
 46 90  1  0  0  0  0
 47 52  2  0  0  0  0
 47 91  1  0  0  0  0
 48 53  2  0  0  0  0
 48 92  1  0  0  0  0
 49 58  1  0  0  0  0
 49 96  1  0  0  0  0
 49 97  1  0  0  0  0
 50 54  2  0  0  0  0
 50 98  1  0  0  0  0
 51 55  2  0  0  0  0
 51 99  1  0  0  0  0
 52 54  1  0  0  0  0
 52100  1  0  0  0  0
 53 55  1  0  0  0  0
 53101  1  0  0  0  0
 54102  1  0  0  0  0
 55103  1  0  0  0  0
 56 57  1  0  0  0  0
 57 59  1  0  0  0  0
 57104  1  0  0  0  0
 59 60  1  0  0  0  0
 59107  1  0  0  0  0
 59108  1  0  0  0  0
M  END
> <PUBCHEM_COMPOUND_CID>
512639
> <PUBCHEM_COMPOUND_CANONICALIZED>
1
> <PUBCHEM_CACTVS_COMPLEXITY>
1540
> <PUBCHEM_CACTVS_HBOND_ACCEPTOR>
14
> <PUBCHEM_CACTVS_HBOND_DONOR>
10
> <PUBCHEM_CACTVS_ROTATABLE_BOND>
24
> <PUBCHEM_CACTVS_SUBSKEYS>
AAADcfB/vAAAAAAAAAAAAAAAAAAAAAAAAAAwYMAAAAAAAAABQAAAHgAQCAAADSjBmAQwCILAAgCIAiXSWAACAAAgAgAIiIGIAMgKZDqAkTGUYAAmlgCYmIe/n8KOgAAAAAAAAAAAAAAAAAAAAAAAAAAAAA==
> <PUBCHEM_IUPAC_OPENEYE_NAME>
(4S)-4-[[(2S)-2-amino-3-carboxy-propanoyl]amino]-5-[[(1S)-1-benzhydryl-2-[[(1S)-3-carboxy-1-[[(1S)-2-(1-carboxyvinylamino)-1-(cyclohexylmethyl)-2-oxo-ethyl]carbamoyl]propyl]amino]-2-oxo-ethyl]amino]-5-oxo-pentanoic acid
> <PUBCHEM_IUPAC_CAS_NAME>
(4S)-4-[[(2S)-2-amino-3-carboxy-1-oxopropyl]amino]-5-[[(2S)-1-[[(2S)-4-carboxy-1-[[(2S)-1-(1-carboxyethenylamino)-3-cyclohexyl-1-oxopropan-2-yl]amino]-1-oxobutan-2-yl]amino]-1-oxo-3,3-diphenylpropan-2-yl]amino]-5-oxopentanoic acid
> <PUBCHEM_IUPAC_NAME_MARKUP>
(4<I>S</I>)-4-[[(2<I>S</I>)-2-amino-3-carboxypropanoyl]amino]-5-[[(2<I>S</I>)-1-[[(2<I>S</I>)-4-carboxy-1-[[(2<I>S</I>)-1-(1-carboxyethenylamino)-3-cyclohexyl-1-oxopropan-2-yl]amino]-1-oxobutan-2-yl]amino]-1-oxo-3,3-diphenylpropan-2-yl]amino]-5-oxopentanoic acid
> <PUBCHEM_IUPAC_NAME>
(4S)-4-[[(2S)-2-amino-3-carboxypropanoyl]amino]-5-[[(2S)-1-[[(2S)-4-carboxy-1-[[(2S)-1-(1-carboxyethenylamino)-3-cyclohexyl-1-oxopropan-2-yl]amino]-1-oxobutan-2-yl]amino]-1-oxo-3,3-diphenylpropan-2-yl]amino]-5-oxopentanoic acid
> <PUBCHEM_IUPAC_SYSTEMATIC_NAME>
(4S)-4-[[(2S)-2-azanyl-4-oxidanyl-4-oxidanylidene-butanoyl]amino]-5-[[(2S)-1-[[(2S)-1-[[(2S)-3-cyclohexyl-1-oxidanylidene-1-[(3-oxidanyl-3-oxidanylidene-prop-1-en-2-yl)amino]propan-2-yl]amino]-5-oxidanyl-1,5-bis(oxidanylidene)pentan-2-yl]amino]-1-oxidanylidene-3,3-diphenyl-propan-2-yl]amino]-5-oxidanylidene-pentanoic acid
> <PUBCHEM_IUPAC_TRADITIONAL_NAME>
(4S)-4-[[(2S)-2-amino-3-carboxy-propanoyl]amino]-5-[[(1S)-1-benzhydryl-2-[[(1S)-3-carboxy-1-[[(1S)-2-(1-carboxyvinylamino)-1-(cyclohexylmethyl)-2-keto-ethyl]carbamoyl]propyl]amino]-2-keto-ethyl]amino]-5-keto-valeric acid
> <PUBCHEM_IUPAC_INCHI>
InChI=1S/C41H52N6O13/c1-23(41(59)60)43-39(57)30(21-24-11-5-2-6-12-24)46-37(55)28(17-19-31(48)49)45-40(58)35(34(25-13-7-3-8-14-25)26-15-9-4-10-16-26)47-38(56)29(18-20-32(50)51)44-36(54)27(42)22-33(52)53/h3-4,7-10,13-16,24,27-30,34-35H,1-2,5-6,11-12,17-22,42H2,(H,43,57)(H,44,54)(H,45,58)(H,46,55)(H,47,56)(H,48,49)(H,50,51)(H,52,53)(H,59,60)/t27-,28-,29-,30-,35-/m0/s1
> <PUBCHEM_IUPAC_INCHIKEY>
HONNCZOZAREENT-WJSWYMBPSA-N
> <PUBCHEM_XLOGP3_AA>
-0.2
> <PUBCHEM_EXACT_MASS>
836.35923573
> <PUBCHEM_MOLECULAR_FORMULA>
C41H52N6O13
> <PUBCHEM_MOLECULAR_WEIGHT>
836.9
> <PUBCHEM_OPENEYE_CAN_SMILES>
C=C(C(=O)O)NC(=O)C(CC1CCCCC1)NC(=O)C(CCC(=O)O)NC(=O)C(C(C2=CC=CC=C2)C3=CC=CC=C3)NC(=O)C(CCC(=O)O)NC(=O)C(CC(=O)O)N
> <PUBCHEM_OPENEYE_ISO_SMILES>
C=C(C(=O)O)NC(=O)[C@H](CC1CCCCC1)NC(=O)[C@H](CCC(=O)O)NC(=O)[C@H](C(C2=CC=CC=C2)C3=CC=CC=C3)NC(=O)[C@H](CCC(=O)O)NC(=O)[C@H](CC(=O)O)N
> <PUBCHEM_CACTVS_TPSA>
321
> <PUBCHEM_MONOISOTOPIC_WEIGHT>
836.35923573
> <PUBCHEM_TOTAL_CHARGE>
0
> <PUBCHEM_HEAVY_ATOM_COUNT>
60
> <PUBCHEM_ATOM_DEF_STEREO_COUNT>
5
> <PUBCHEM_ATOM_UDEF_STEREO_COUNT>
0
> <PUBCHEM_BOND_DEF_STEREO_COUNT>
0
> <PUBCHEM_BOND_UDEF_STEREO_COUNT>
0
> <PUBCHEM_ISOTOPIC_ATOM_COUNT>
0
> <PUBCHEM_COMPONENT_COUNT>
1
> <PUBCHEM_CACTVS_TAUTO_COUNT>
-1
> <PUBCHEM_COORDINATE_TYPE>
1
5
255
> <PUBCHEM_BONDANNOTATIONS>
27  14  6
30  16  5
32  17  6
39  18  6
57  19  6
37  45  8
37  47  8
38  46  8
38  48  8
45  50  8
46  51  8
47  52  8
48  53  8
50  54  8
51  55  8
52  54  8
53  55  8
$$$$
