512627
  -OEChem-10302200282D
 44 45  0     1  0  0  0  0  0999 V2000
    7.2682   -3.2767    0.0000 P   0  0  0  0  0  0  0  0  0  0  0  0
    5.4071   -0.8121    0.0000 O   0  0  0  0  0  0  0  0  0  0  0  0
    2.8380   -0.5031    0.0000 O   0  0  0  0  0  0  0  0  0  0  0  0
    3.5103   -2.5722    0.0000 O   0  0  0  0  0  0  0  0  0  0  0  0
    6.6804   -2.4676    0.0000 O   0  0  0  0  0  0  0  0  0  0  0  0
    6.3301    0.7757    0.0000 O   0  0  0  0  0  0  0  0  0  0  0  0
    7.8560   -4.0857    0.0000 O   0  0  0  0  0  0  0  0  0  0  0  0
    8.0772   -2.6889    0.0000 O   0  0  0  0  0  0  0  0  0  0  0  0
    6.4592   -3.8644    0.0000 O   0  0  0  0  0  0  0  0  0  0  0  0
    4.5981    0.7757    0.0000 N   0  0  0  0  0  0  0  0  0  0  0  0
    5.4641    2.2757    0.0000 N   0  0  0  0  0  0  0  0  0  0  0  0
    4.5981    3.7757    0.0000 N   0  0  0  0  0  0  0  0  0  0  0  0
    3.7891   -0.8121    0.0000 C   0  0  2  0  0  0  0  0  0  0  0  0
    4.0981   -1.7632    0.0000 C   0  0  1  0  0  0  0  0  0  0  0  0
    4.5981   -0.2243    0.0000 C   0  0  1  0  0  0  0  0  0  0  0  0
    5.0981   -1.7632    0.0000 C   0  0  1  0  0  0  0  0  0  0  0  0
    5.6859   -2.5722    0.0000 C   0  0  0  0  0  0  0  0  0  0  0  0
    3.7320    1.2757    0.0000 C   0  0  0  0  0  0  0  0  0  0  0  0
    3.7320    2.2757    0.0000 C   0  0  0  0  0  0  0  0  0  0  0  0
    5.4641    1.2757    0.0000 C   0  0  0  0  0  0  0  0  0  0  0  0
    2.8660    2.7757    0.0000 C   0  0  0  0  0  0  0  0  0  0  0  0
    4.5981    2.7757    0.0000 C   0  0  0  0  0  0  0  0  0  0  0  0
    2.8660    3.7757    0.0000 C   0  0  0  0  0  0  0  0  0  0  0  0
    2.0000    2.2757    0.0000 C   0  0  0  0  0  0  0  0  0  0  0  0
    3.3506   -1.2505    0.0000 H   0  0  0  0  0  0  0  0  0  0  0  0
    4.3796   -2.3156    0.0000 H   0  0  0  0  0  0  0  0  0  0  0  0
    5.1505    0.0572    0.0000 H   0  0  0  0  0  0  0  0  0  0  0  0
    5.7104   -1.6662    0.0000 H   0  0  0  0  0  0  0  0  0  0  0  0
    5.1286   -2.8440    0.0000 H   0  0  0  0  0  0  0  0  0  0  0  0
    5.8568   -3.1682    0.0000 H   0  0  0  0  0  0  0  0  0  0  0  0
    3.1951    0.9657    0.0000 H   0  0  0  0  0  0  0  0  0  0  0  0
    2.3772   -0.9179    0.0000 H   0  0  0  0  0  0  0  0  0  0  0  0
    3.7625   -3.1386    0.0000 H   0  0  0  0  0  0  0  0  0  0  0  0
    2.8660    2.1557    0.0000 H   0  0  0  0  0  0  0  0  0  0  0  0
    3.4860    3.7757    0.0000 H   0  0  0  0  0  0  0  0  0  0  0  0
    2.8660    4.3957    0.0000 H   0  0  0  0  0  0  0  0  0  0  0  0
    2.2460    3.7757    0.0000 H   0  0  0  0  0  0  0  0  0  0  0  0
    1.6900    2.8126    0.0000 H   0  0  0  0  0  0  0  0  0  0  0  0
    1.4631    1.9657    0.0000 H   0  0  0  0  0  0  0  0  0  0  0  0
    2.3100    1.7388    0.0000 H   0  0  0  0  0  0  0  0  0  0  0  0
    5.1350    4.0857    0.0000 H   0  0  0  0  0  0  0  0  0  0  0  0
    4.0611    4.0857    0.0000 H   0  0  0  0  0  0  0  0  0  0  0  0
    8.4726   -4.0209    0.0000 H   0  0  0  0  0  0  0  0  0  0  0  0
    8.0124   -2.0723    0.0000 H   0  0  0  0  0  0  0  0  0  0  0  0
  1  5  1  0  0  0  0
  1  7  1  0  0  0  0
  1  8  1  0  0  0  0
  1  9  2  0  0  0  0
  2 15  1  0  0  0  0
  2 16  1  0  0  0  0
 13  3  1  1  0  0  0
  3 32  1  0  0  0  0
 14  4  1  1  0  0  0
  4 33  1  0  0  0  0
  5 17  1  0  0  0  0
  6 20  2  0  0  0  0
  7 43  1  0  0  0  0
  8 44  1  0  0  0  0
 15 10  1  6  0  0  0
 10 18  1  0  0  0  0
 10 20  1  0  0  0  0
 11 20  1  0  0  0  0
 11 22  2  0  0  0  0
 12 22  1  0  0  0  0
 12 41  1  0  0  0  0
 12 42  1  0  0  0  0
 13 14  1  0  0  0  0
 13 15  1  0  0  0  0
 13 25  1  0  0  0  0
 14 16  1  0  0  0  0
 14 26  1  0  0  0  0
 15 27  1  0  0  0  0
 16 17  1  6  0  0  0
 16 28  1  0  0  0  0
 17 29  1  0  0  0  0
 17 30  1  0  0  0  0
 18 19  2  0  0  0  0
 18 31  1  0  0  0  0
 19 21  1  0  0  0  0
 19 22  1  0  0  0  0
 21 23  1  0  0  0  0
 21 24  1  0  0  0  0
 21 34  1  0  0  0  0
 23 35  1  0  0  0  0
 23 36  1  0  0  0  0
 23 37  1  0  0  0  0
 24 38  1  0  0  0  0
 24 39  1  0  0  0  0
 24 40  1  0  0  0  0
M  END
> <PUBCHEM_COMPOUND_CID>
512627
> <PUBCHEM_COMPOUND_CANONICALIZED>
1
> <PUBCHEM_CACTVS_COMPLEXITY>
615
> <PUBCHEM_CACTVS_HBOND_ACCEPTOR>
8
> <PUBCHEM_CACTVS_HBOND_DONOR>
5
> <PUBCHEM_CACTVS_ROTATABLE_BOND>
5
> <PUBCHEM_CACTVS_SUBSKEYS>
AAADceBzPAIAAAAAAAAAAAAAAAAAASAAAAAgAAAAAAAAAAAAAAAAHgAQCCAADRThgAYDAANABxCoQgJmdICAAAEgAAAAAAAoABiDEAIAgQAOQAAHBgITAADwMAIIAAAAAAAAAAAAAAAAAAAAAAAAAAAAAA==
> <PUBCHEM_IUPAC_OPENEYE_NAME>
[(2R,3S,4R,5R)-5-(4-amino-5-isopropyl-2-oxo-pyrimidin-1-yl)-3,4-dihydroxy-tetrahydrofuran-2-yl]methyl dihydrogen phosphate
> <PUBCHEM_IUPAC_CAS_NAME>
[(2R,3S,4R,5R)-5-(4-amino-2-oxo-5-propan-2-yl-1-pyrimidinyl)-3,4-dihydroxy-2-oxolanyl]methyl dihydrogen phosphate
> <PUBCHEM_IUPAC_NAME_MARKUP>
[(2<I>R</I>,3<I>S</I>,4<I>R</I>,5<I>R</I>)-5-(4-amino-2-oxo-5-propan-2-ylpyrimidin-1-yl)-3,4-dihydroxyoxolan-2-yl]methyl dihydrogen phosphate
> <PUBCHEM_IUPAC_NAME>
[(2R,3S,4R,5R)-5-(4-amino-2-oxo-5-propan-2-ylpyrimidin-1-yl)-3,4-dihydroxyoxolan-2-yl]methyl dihydrogen phosphate
> <PUBCHEM_IUPAC_SYSTEMATIC_NAME>
[(2R,3S,4R,5R)-5-(4-azanyl-2-oxidanylidene-5-propan-2-yl-pyrimidin-1-yl)-3,4-bis(oxidanyl)oxolan-2-yl]methyl dihydrogen phosphate
> <PUBCHEM_IUPAC_TRADITIONAL_NAME>
[(2R,3S,4R,5R)-5-(4-amino-5-isopropyl-2-keto-pyrimidin-1-yl)-3,4-dihydroxy-tetrahydrofuran-2-yl]methyl dihydrogen phosphate
> <PUBCHEM_IUPAC_INCHI>
InChI=1S/C12H20N3O8P/c1-5(2)6-3-15(12(18)14-10(6)13)11-9(17)8(16)7(23-11)4-22-24(19,20)21/h3,5,7-9,11,16-17H,4H2,1-2H3,(H2,13,14,18)(H2,19,20,21)/t7-,8-,9-,11-/m1/s1
> <PUBCHEM_IUPAC_INCHIKEY>
RAHCOJKTMOTPOZ-TURQNECASA-N
> <PUBCHEM_XLOGP3>
-2.9
> <PUBCHEM_EXACT_MASS>
365.09880160
> <PUBCHEM_MOLECULAR_FORMULA>
C12H20N3O8P
> <PUBCHEM_MOLECULAR_WEIGHT>
365.28
> <PUBCHEM_OPENEYE_CAN_SMILES>
CC(C)C1=CN(C(=O)N=C1N)C2C(C(C(O2)COP(=O)(O)O)O)O
> <PUBCHEM_OPENEYE_ISO_SMILES>
CC(C)C1=CN(C(=O)N=C1N)[C@H]2[C@@H]([C@@H]([C@H](O2)COP(=O)(O)O)O)O
> <PUBCHEM_CACTVS_TPSA>
175
> <PUBCHEM_MONOISOTOPIC_WEIGHT>
365.09880160
> <PUBCHEM_TOTAL_CHARGE>
0
> <PUBCHEM_HEAVY_ATOM_COUNT>
24
> <PUBCHEM_ATOM_DEF_STEREO_COUNT>
4
> <PUBCHEM_ATOM_UDEF_STEREO_COUNT>
0
> <PUBCHEM_BOND_DEF_STEREO_COUNT>
0
> <PUBCHEM_BOND_UDEF_STEREO_COUNT>
0
> <PUBCHEM_ISOTOPIC_ATOM_COUNT>
0
> <PUBCHEM_COMPONENT_COUNT>
1
> <PUBCHEM_CACTVS_TAUTO_COUNT>
-1
> <PUBCHEM_COORDINATE_TYPE>
1
5
255
> <PUBCHEM_BONDANNOTATIONS>
15  10  6
10  18  8
10  20  8
11  20  8
11  22  8
16  17  6
18  19  8
19  22  8
13  3  5
14  4  5
$$$$
