512698
  -OEChem-10302200282D
 62 64  0     1  0  0  0  0  0999 V2000
    5.3548   -0.1965    0.0000 S   0  0  0  0  0  0  0  0  0  0  0  0
    4.4026    2.3051    0.0000 O   0  0  0  0  0  0  0  0  0  0  0  0
    6.7485    3.3969    0.0000 O   0  0  0  0  0  0  0  0  0  0  0  0
    6.7523    1.2214    0.0000 O   0  0  0  0  0  0  0  0  0  0  0  0
    6.4439   -5.2772    0.0000 O   0  0  0  0  0  0  0  0  0  0  0  0
    4.1253   -4.0028    0.0000 O   0  0  0  0  0  0  0  0  0  0  0  0
    3.7622   -2.3093    0.0000 O   0  0  0  0  0  0  0  0  0  0  0  0
    4.7957   -4.7448    0.0000 O   0  0  0  0  0  0  0  0  0  0  0  0
    4.6783    4.0656    0.0000 N   0  0  0  0  0  0  0  0  0  0  0  0
    2.8660    3.8704    0.0000 N   0  0  0  0  0  0  0  0  0  0  0  0
    2.0000    5.3704    0.0000 N   0  0  0  0  0  0  0  0  0  0  0  0
    6.0809   -3.5836    0.0000 N   0  0  0  0  0  0  0  0  0  0  0  0
    2.8660    6.8704    0.0000 N   0  0  0  0  0  0  0  0  0  0  0  0
    5.9405    2.8078    0.0000 C   0  0  2  0  0  0  0  0  0  0  0  0
    5.9422    1.8078    0.0000 C   0  0  1  0  0  0  0  0  0  0  0  0
    4.9889    3.1151    0.0000 C   0  0  1  0  0  0  0  0  0  0  0  0
    4.9917    1.4971    0.0000 C   0  0  1  0  0  0  0  0  0  0  0  0
    4.6844    0.5455    0.0000 C   0  0  0  0  0  0  0  0  0  0  0  0
    3.7320    4.3704    0.0000 C   0  0  0  0  0  0  0  0  0  0  0  0
    5.2619    4.8704    0.0000 C   0  0  0  0  0  0  0  0  0  0  0  0
    3.7320    5.3704    0.0000 C   0  0  0  0  0  0  0  0  0  0  0  0
    4.6783    5.6751    0.0000 C   0  0  0  0  0  0  0  0  0  0  0  0
    5.0474   -1.1481    0.0000 C   0  0  0  0  0  0  0  0  0  0  0  0
    5.7178   -1.8900    0.0000 C   0  0  0  0  0  0  0  0  0  0  0  0
    2.8660    5.8704    0.0000 C   0  0  0  0  0  0  0  0  0  0  0  0
    5.4104   -2.8416    0.0000 C   0  0  3  0  0  0  0  0  0  0  0  0
    2.0000    4.3704    0.0000 C   0  0  0  0  0  0  0  0  0  0  0  0
    4.4327   -3.0512    0.0000 C   0  0  0  0  0  0  0  0  0  0  0  0
    6.1365   -6.2288    0.0000 C   0  0  0  0  0  0  0  0  0  0  0  0
    5.7735   -4.5352    0.0000 C   0  0  0  0  0  0  0  0  0  0  0  0
    5.8292   -7.1804    0.0000 C   0  0  0  0  0  0  0  0  0  0  0  0
    7.0881   -6.5362    0.0000 C   0  0  0  0  0  0  0  0  0  0  0  0
    5.1850   -5.9214    0.0000 C   0  0  0  0  0  0  0  0  0  0  0  0
    6.4934    2.5272    0.0000 H   0  0  0  0  0  0  0  0  0  0  0  0
    6.4942    2.0902    0.0000 H   0  0  0  0  0  0  0  0  0  0  0  0
    5.4266    3.5543    0.0000 H   0  0  0  0  0  0  0  0  0  0  0  0
    4.3795    1.3990    0.0000 H   0  0  0  0  0  0  0  0  0  0  0  0
    4.1364    0.8356    0.0000 H   0  0  0  0  0  0  0  0  0  0  0  0
    4.3035    0.0563    0.0000 H   0  0  0  0  0  0  0  0  0  0  0  0
    7.3154    3.1458    0.0000 H   0  0  0  0  0  0  0  0  0  0  0  0
    7.3182    1.4745    0.0000 H   0  0  0  0  0  0  0  0  0  0  0  0
    5.8819    4.8704    0.0000 H   0  0  0  0  0  0  0  0  0  0  0  0
    4.8709    6.2644    0.0000 H   0  0  0  0  0  0  0  0  0  0  0  0
    4.4995   -0.8579    0.0000 H   0  0  0  0  0  0  0  0  0  0  0  0
    4.6665   -1.6373    0.0000 H   0  0  0  0  0  0  0  0  0  0  0  0
    6.2658   -2.1802    0.0000 H   0  0  0  0  0  0  0  0  0  0  0  0
    6.0987   -1.4008    0.0000 H   0  0  0  0  0  0  0  0  0  0  0  0
    6.0167   -2.7117    0.0000 H   0  0  0  0  0  0  0  0  0  0  0  0
    1.4631    4.0604    0.0000 H   0  0  0  0  0  0  0  0  0  0  0  0
    6.6871   -3.4537    0.0000 H   0  0  0  0  0  0  0  0  0  0  0  0
    2.3291    7.1804    0.0000 H   0  0  0  0  0  0  0  0  0  0  0  0
    3.4030    7.1804    0.0000 H   0  0  0  0  0  0  0  0  0  0  0  0
    5.2392   -6.9898    0.0000 H   0  0  0  0  0  0  0  0  0  0  0  0
    5.6386   -7.7704    0.0000 H   0  0  0  0  0  0  0  0  0  0  0  0
    6.4192   -7.3710    0.0000 H   0  0  0  0  0  0  0  0  0  0  0  0
    6.8976   -7.1262    0.0000 H   0  0  0  0  0  0  0  0  0  0  0  0
    7.6781   -6.7267    0.0000 H   0  0  0  0  0  0  0  0  0  0  0  0
    7.2787   -5.9462    0.0000 H   0  0  0  0  0  0  0  0  0  0  0  0
    5.3755   -5.3314    0.0000 H   0  0  0  0  0  0  0  0  0  0  0  0
    4.5950   -5.7308    0.0000 H   0  0  0  0  0  0  0  0  0  0  0  0
    4.9944   -6.5114    0.0000 H   0  0  0  0  0  0  0  0  0  0  0  0
    3.5191   -4.1328    0.0000 H   0  0  0  0  0  0  0  0  0  0  0  0
  1 18  1  0  0  0  0
  1 23  1  0  0  0  0
  2 16  1  0  0  0  0
  2 17  1  0  0  0  0
 14  3  1  6  0  0  0
  3 40  1  0  0  0  0
 15  4  1  6  0  0  0
  4 41  1  0  0  0  0
  5 29  1  0  0  0  0
  5 30  1  0  0  0  0
  6 28  1  0  0  0  0
  6 62  1  0  0  0  0
  7 28  2  0  0  0  0
  8 30  2  0  0  0  0
 16  9  1  1  0  0  0
  9 19  1  0  0  0  0
  9 20  1  0  0  0  0
 10 19  2  0  0  0  0
 10 27  1  0  0  0  0
 11 25  1  0  0  0  0
 11 27  2  0  0  0  0
 12 26  1  0  0  0  0
 12 30  1  0  0  0  0
 12 50  1  0  0  0  0
 13 25  1  0  0  0  0
 13 51  1  0  0  0  0
 13 52  1  0  0  0  0
 14 15  1  0  0  0  0
 14 16  1  0  0  0  0
 14 34  1  0  0  0  0
 15 17  1  0  0  0  0
 15 35  1  0  0  0  0
 16 36  1  0  0  0  0
 17 18  1  1  0  0  0
 17 37  1  0  0  0  0
 18 38  1  0  0  0  0
 18 39  1  0  0  0  0
 19 21  1  0  0  0  0
 20 22  2  0  0  0  0
 20 42  1  0  0  0  0
 21 22  1  0  0  0  0
 21 25  2  0  0  0  0
 22 43  1  0  0  0  0
 23 24  1  0  0  0  0
 23 44  1  0  0  0  0
 23 45  1  0  0  0  0
 24 26  1  0  0  0  0
 24 46  1  0  0  0  0
 24 47  1  0  0  0  0
 26 28  1  0  0  0  0
 26 48  1  0  0  0  0
 27 49  1  0  0  0  0
 29 31  1  0  0  0  0
 29 32  1  0  0  0  0
 29 33  1  0  0  0  0
 31 53  1  0  0  0  0
 31 54  1  0  0  0  0
 31 55  1  0  0  0  0
 32 56  1  0  0  0  0
 32 57  1  0  0  0  0
 32 58  1  0  0  0  0
 33 59  1  0  0  0  0
 33 60  1  0  0  0  0
 33 61  1  0  0  0  0
M  END
> <PUBCHEM_COMPOUND_CID>
512698
> <PUBCHEM_COMPOUND_CANONICALIZED>
1
> <PUBCHEM_CACTVS_COMPLEXITY>
696
> <PUBCHEM_CACTVS_HBOND_ACCEPTOR>
11
> <PUBCHEM_CACTVS_HBOND_DONOR>
5
> <PUBCHEM_CACTVS_ROTATABLE_BOND>
10
> <PUBCHEM_CACTVS_SUBSKEYS>
AAADceB7uABAAAAAAAAAAAAAAAAAAWJAAAAsAAAAAAAAAFgB+AAAHgQQCAAADHzl2wa/uN/MFgioAjL3fACCgCkxArAJ2KG4ZJmLONJgyOEORAhPFgLzQCCwAAAIAAAAAAAAAAAAAAAAAAAAAAAAAAAAAA==
> <PUBCHEM_IUPAC_OPENEYE_NAME>
4-[[(2S,3S,4R,5R)-5-(4-aminopyrrolo[2,3-d]pyrimidin-7-yl)-3,4-dihydroxy-tetrahydrofuran-2-yl]methylsulfanyl]-2-(tert-butoxycarbonylamino)butanoic acid
> <PUBCHEM_IUPAC_CAS_NAME>
4-[[(2S,3S,4R,5R)-5-(4-amino-7-pyrrolo[2,3-d]pyrimidinyl)-3,4-dihydroxy-2-oxolanyl]methylthio]-2-[[(2-methylpropan-2-yl)oxy-oxomethyl]amino]butanoic acid
> <PUBCHEM_IUPAC_NAME_MARKUP>
4-[[(2<I>S</I>,3<I>S</I>,4<I>R</I>,5<I>R</I>)-5-(4-aminopyrrolo[2,3-d]pyrimidin-7-yl)-3,4-dihydroxyoxolan-2-yl]methylsulfanyl]-2-[(2-methylpropan-2-yl)oxycarbonylamino]butanoic acid
> <PUBCHEM_IUPAC_NAME>
4-[[(2S,3S,4R,5R)-5-(4-aminopyrrolo[2,3-d]pyrimidin-7-yl)-3,4-dihydroxyoxolan-2-yl]methylsulfanyl]-2-[(2-methylpropan-2-yl)oxycarbonylamino]butanoic acid
> <PUBCHEM_IUPAC_SYSTEMATIC_NAME>
4-[[(2S,3S,4R,5R)-5-(4-azanylpyrrolo[2,3-d]pyrimidin-7-yl)-3,4-bis(oxidanyl)oxolan-2-yl]methylsulfanyl]-2-[(2-methylpropan-2-yl)oxycarbonylamino]butanoic acid
> <PUBCHEM_IUPAC_TRADITIONAL_NAME>
4-[[(2S,3S,4R,5R)-5-(4-aminopyrrolo[2,3-d]pyrimidin-7-yl)-3,4-dihydroxy-tetrahydrofuran-2-yl]methylthio]-2-(tert-butoxycarbonylamino)butyric acid
> <PUBCHEM_IUPAC_INCHI>
InChI=1S/C20H29N5O7S/c1-20(2,3)32-19(30)24-11(18(28)29)5-7-33-8-12-13(26)14(27)17(31-12)25-6-4-10-15(21)22-9-23-16(10)25/h4,6,9,11-14,17,26-27H,5,7-8H2,1-3H3,(H,24,30)(H,28,29)(H2,21,22,23)/t11?,12-,13-,14-,17-/m1/s1
> <PUBCHEM_IUPAC_INCHIKEY>
BCTYWWUBAKGXGS-OJUGKFCDSA-N
> <PUBCHEM_XLOGP3_AA>
0.1
> <PUBCHEM_EXACT_MASS>
483.17876945
> <PUBCHEM_MOLECULAR_FORMULA>
C20H29N5O7S
> <PUBCHEM_MOLECULAR_WEIGHT>
483.5
> <PUBCHEM_OPENEYE_CAN_SMILES>
CC(C)(C)OC(=O)NC(CCSCC1C(C(C(O1)N2C=CC3=C(N=CN=C32)N)O)O)C(=O)O
> <PUBCHEM_OPENEYE_ISO_SMILES>
CC(C)(C)OC(=O)NC(CCSC[C@@H]1[C@H]([C@H]([C@@H](O1)N2C=CC3=C(N=CN=C32)N)O)O)C(=O)O
> <PUBCHEM_CACTVS_TPSA>
207
> <PUBCHEM_MONOISOTOPIC_WEIGHT>
483.17876945
> <PUBCHEM_TOTAL_CHARGE>
0
> <PUBCHEM_HEAVY_ATOM_COUNT>
33
> <PUBCHEM_ATOM_DEF_STEREO_COUNT>
4
> <PUBCHEM_ATOM_UDEF_STEREO_COUNT>
1
> <PUBCHEM_BOND_DEF_STEREO_COUNT>
0
> <PUBCHEM_BOND_UDEF_STEREO_COUNT>
0
> <PUBCHEM_ISOTOPIC_ATOM_COUNT>
0
> <PUBCHEM_COMPONENT_COUNT>
1
> <PUBCHEM_CACTVS_TAUTO_COUNT>
-1
> <PUBCHEM_COORDINATE_TYPE>
1
5
255
> <PUBCHEM_BONDANNOTATIONS>
10  19  8
10  27  8
11  25  8
11  27  8
17  18  5
19  21  8
20  22  8
21  22  8
21  25  8
26  24  3
14  3  6
15  4  6
16  9  5
9  19  8
9  20  8
$$$$
