512683
  -OEChem-10302200282D
 80 82  0     1  0  0  0  0  0999 V2000
    6.4702   -0.1965    0.0000 S   0  0  0  0  0  0  0  0  0  0  0  0
    2.9778   -5.3736    0.0000 Si  0  0  0  0  0  0  0  0  0  0  0  0
    5.5180    2.3051    0.0000 O   0  0  0  0  0  0  0  0  0  0  0  0
    7.8640    3.3969    0.0000 O   0  0  0  0  0  0  0  0  0  0  0  0
    7.8677    1.2214    0.0000 O   0  0  0  0  0  0  0  0  0  0  0  0
    5.2407   -4.0028    0.0000 O   0  0  0  0  0  0  0  0  0  0  0  0
    7.5594   -5.2772    0.0000 O   0  0  0  0  0  0  0  0  0  0  0  0
    4.8777   -2.3093    0.0000 O   0  0  0  0  0  0  0  0  0  0  0  0
    5.9112   -4.7448    0.0000 O   0  0  0  0  0  0  0  0  0  0  0  0
    5.7937    4.0656    0.0000 N   0  0  0  0  0  0  0  0  0  0  0  0
    3.9815    3.8704    0.0000 N   0  0  0  0  0  0  0  0  0  0  0  0
    3.1154    5.3704    0.0000 N   0  0  0  0  0  0  0  0  0  0  0  0
    7.1963   -3.5836    0.0000 N   0  0  0  0  0  0  0  0  0  0  0  0
    3.9815    6.8704    0.0000 N   0  0  0  0  0  0  0  0  0  0  0  0
    7.0560    2.8078    0.0000 C   0  0  2  0  0  0  0  0  0  0  0  0
    7.0577    1.8078    0.0000 C   0  0  1  0  0  0  0  0  0  0  0  0
    6.1044    3.1151    0.0000 C   0  0  1  0  0  0  0  0  0  0  0  0
    6.1072    1.4971    0.0000 C   0  0  1  0  0  0  0  0  0  0  0  0
    5.7998    0.5455    0.0000 C   0  0  0  0  0  0  0  0  0  0  0  0
    4.8475    4.3704    0.0000 C   0  0  0  0  0  0  0  0  0  0  0  0
    6.3773    4.8704    0.0000 C   0  0  0  0  0  0  0  0  0  0  0  0
    4.8475    5.3704    0.0000 C   0  0  0  0  0  0  0  0  0  0  0  0
    5.7937    5.6751    0.0000 C   0  0  0  0  0  0  0  0  0  0  0  0
    6.1628   -1.1481    0.0000 C   0  0  0  0  0  0  0  0  0  0  0  0
    6.8333   -1.8900    0.0000 C   0  0  0  0  0  0  0  0  0  0  0  0
    3.9556   -5.1640    0.0000 C   0  0  0  0  0  0  0  0  0  0  0  0
    6.5259   -2.8416    0.0000 C   0  0  3  0  0  0  0  0  0  0  0  0
    3.9815    5.8704    0.0000 C   0  0  0  0  0  0  0  0  0  0  0  0
    4.2629   -4.2124    0.0000 C   0  0  0  0  0  0  0  0  0  0  0  0
    2.0000   -5.5832    0.0000 C   0  0  0  0  0  0  0  0  0  0  0  0
    3.1874   -6.3514    0.0000 C   0  0  0  0  0  0  0  0  0  0  0  0
    2.7682   -4.3958    0.0000 C   0  0  0  0  0  0  0  0  0  0  0  0
    5.5481   -3.0512    0.0000 C   0  0  0  0  0  0  0  0  0  0  0  0
    3.1154    4.3704    0.0000 C   0  0  0  0  0  0  0  0  0  0  0  0
    6.8889   -4.5352    0.0000 C   0  0  0  0  0  0  0  0  0  0  0  0
    7.2520   -6.2288    0.0000 C   0  0  0  0  0  0  0  0  0  0  0  0
    6.9446   -7.1804    0.0000 C   0  0  0  0  0  0  0  0  0  0  0  0
    8.2036   -6.5362    0.0000 C   0  0  0  0  0  0  0  0  0  0  0  0
    6.3004   -5.9214    0.0000 C   0  0  0  0  0  0  0  0  0  0  0  0
    7.6089    2.5272    0.0000 H   0  0  0  0  0  0  0  0  0  0  0  0
    7.6096    2.0902    0.0000 H   0  0  0  0  0  0  0  0  0  0  0  0
    6.5420    3.5543    0.0000 H   0  0  0  0  0  0  0  0  0  0  0  0
    5.4950    1.3990    0.0000 H   0  0  0  0  0  0  0  0  0  0  0  0
    5.2519    0.8356    0.0000 H   0  0  0  0  0  0  0  0  0  0  0  0
    5.4189    0.0563    0.0000 H   0  0  0  0  0  0  0  0  0  0  0  0
    8.4308    3.1458    0.0000 H   0  0  0  0  0  0  0  0  0  0  0  0
    8.4337    1.4745    0.0000 H   0  0  0  0  0  0  0  0  0  0  0  0
    6.9973    4.8704    0.0000 H   0  0  0  0  0  0  0  0  0  0  0  0
    5.9863    6.2644    0.0000 H   0  0  0  0  0  0  0  0  0  0  0  0
    5.6149   -0.8579    0.0000 H   0  0  0  0  0  0  0  0  0  0  0  0
    5.7820   -1.6373    0.0000 H   0  0  0  0  0  0  0  0  0  0  0  0
    7.3812   -2.1802    0.0000 H   0  0  0  0  0  0  0  0  0  0  0  0
    7.2141   -1.4008    0.0000 H   0  0  0  0  0  0  0  0  0  0  0  0
    3.9783   -5.7836    0.0000 H   0  0  0  0  0  0  0  0  0  0  0  0
    4.5697   -5.2492    0.0000 H   0  0  0  0  0  0  0  0  0  0  0  0
    7.1321   -2.7117    0.0000 H   0  0  0  0  0  0  0  0  0  0  0  0
    4.2402   -3.5929    0.0000 H   0  0  0  0  0  0  0  0  0  0  0  0
    3.6488   -4.1272    0.0000 H   0  0  0  0  0  0  0  0  0  0  0  0
    1.8700   -4.9770    0.0000 H   0  0  0  0  0  0  0  0  0  0  0  0
    1.3938   -5.7132    0.0000 H   0  0  0  0  0  0  0  0  0  0  0  0
    2.1300   -6.1895    0.0000 H   0  0  0  0  0  0  0  0  0  0  0  0
    2.5812   -6.4814    0.0000 H   0  0  0  0  0  0  0  0  0  0  0  0
    3.3173   -6.9576    0.0000 H   0  0  0  0  0  0  0  0  0  0  0  0
    3.7936   -6.2215    0.0000 H   0  0  0  0  0  0  0  0  0  0  0  0
    3.3744   -4.2659    0.0000 H   0  0  0  0  0  0  0  0  0  0  0  0
    2.6382   -3.7896    0.0000 H   0  0  0  0  0  0  0  0  0  0  0  0
    2.1620   -4.5258    0.0000 H   0  0  0  0  0  0  0  0  0  0  0  0
    2.5785    4.0604    0.0000 H   0  0  0  0  0  0  0  0  0  0  0  0
    7.8025   -3.4537    0.0000 H   0  0  0  0  0  0  0  0  0  0  0  0
    3.4445    7.1804    0.0000 H   0  0  0  0  0  0  0  0  0  0  0  0
    4.5184    7.1804    0.0000 H   0  0  0  0  0  0  0  0  0  0  0  0
    6.3546   -6.9898    0.0000 H   0  0  0  0  0  0  0  0  0  0  0  0
    6.7540   -7.7704    0.0000 H   0  0  0  0  0  0  0  0  0  0  0  0
    7.5346   -7.3710    0.0000 H   0  0  0  0  0  0  0  0  0  0  0  0
    8.0130   -7.1262    0.0000 H   0  0  0  0  0  0  0  0  0  0  0  0
    8.7936   -6.7267    0.0000 H   0  0  0  0  0  0  0  0  0  0  0  0
    8.3941   -5.9462    0.0000 H   0  0  0  0  0  0  0  0  0  0  0  0
    6.4910   -5.3314    0.0000 H   0  0  0  0  0  0  0  0  0  0  0  0
    5.7104   -5.7308    0.0000 H   0  0  0  0  0  0  0  0  0  0  0  0
    6.1098   -6.5114    0.0000 H   0  0  0  0  0  0  0  0  0  0  0  0
  1 19  1  0  0  0  0
  1 24  1  0  0  0  0
  2 26  1  0  0  0  0
  2 30  1  0  0  0  0
  2 31  1  0  0  0  0
  2 32  1  0  0  0  0
  3 17  1  0  0  0  0
  3 18  1  0  0  0  0
 15  4  1  6  0  0  0
  4 46  1  0  0  0  0
 16  5  1  6  0  0  0
  5 47  1  0  0  0  0
  6 29  1  0  0  0  0
  6 33  1  0  0  0  0
  7 35  1  0  0  0  0
  7 36  1  0  0  0  0
  8 33  2  0  0  0  0
  9 35  2  0  0  0  0
 17 10  1  1  0  0  0
 10 20  1  0  0  0  0
 10 21  1  0  0  0  0
 11 20  2  0  0  0  0
 11 34  1  0  0  0  0
 12 28  1  0  0  0  0
 12 34  2  0  0  0  0
 13 27  1  0  0  0  0
 13 35  1  0  0  0  0
 13 69  1  0  0  0  0
 14 28  1  0  0  0  0
 14 70  1  0  0  0  0
 14 71  1  0  0  0  0
 15 16  1  0  0  0  0
 15 17  1  0  0  0  0
 15 40  1  0  0  0  0
 16 18  1  0  0  0  0
 16 41  1  0  0  0  0
 17 42  1  0  0  0  0
 18 19  1  1  0  0  0
 18 43  1  0  0  0  0
 19 44  1  0  0  0  0
 19 45  1  0  0  0  0
 20 22  1  0  0  0  0
 21 23  2  0  0  0  0
 21 48  1  0  0  0  0
 22 23  1  0  0  0  0
 22 28  2  0  0  0  0
 23 49  1  0  0  0  0
 24 25  1  0  0  0  0
 24 50  1  0  0  0  0
 24 51  1  0  0  0  0
 25 27  1  0  0  0  0
 25 52  1  0  0  0  0
 25 53  1  0  0  0  0
 26 29  1  0  0  0  0
 26 54  1  0  0  0  0
 26 55  1  0  0  0  0
 27 33  1  0  0  0  0
 27 56  1  0  0  0  0
 29 57  1  0  0  0  0
 29 58  1  0  0  0  0
 30 59  1  0  0  0  0
 30 60  1  0  0  0  0
 30 61  1  0  0  0  0
 31 62  1  0  0  0  0
 31 63  1  0  0  0  0
 31 64  1  0  0  0  0
 32 65  1  0  0  0  0
 32 66  1  0  0  0  0
 32 67  1  0  0  0  0
 34 68  1  0  0  0  0
 36 37  1  0  0  0  0
 36 38  1  0  0  0  0
 36 39  1  0  0  0  0
 37 72  1  0  0  0  0
 37 73  1  0  0  0  0
 37 74  1  0  0  0  0
 38 75  1  0  0  0  0
 38 76  1  0  0  0  0
 38 77  1  0  0  0  0
 39 78  1  0  0  0  0
 39 79  1  0  0  0  0
 39 80  1  0  0  0  0
M  END
> <PUBCHEM_COMPOUND_CID>
512683
> <PUBCHEM_COMPOUND_CANONICALIZED>
1
> <PUBCHEM_CACTVS_COMPLEXITY>
830
> <PUBCHEM_CACTVS_HBOND_ACCEPTOR>
11
> <PUBCHEM_CACTVS_HBOND_DONOR>
4
> <PUBCHEM_CACTVS_ROTATABLE_BOND>
14
> <PUBCHEM_CACTVS_SUBSKEYS>
AAADcfB7uAhAAAAAAAAAAAAAAAAAAWJAAAAsAAAAAAAAAFgB+AAAHhQQCAAADHzl+wb/uN/MFgmoAjL3fACCgCkxArAJ2KG4ZJmLONJgyOEPRAhPFgLzQCCwAAAIAAAAAAAAAAAAAAAAAAAAAAAAAAAAAA==
> <PUBCHEM_IUPAC_OPENEYE_NAME>
2-trimethylsilylethyl 4-[[(2S,3S,4R,5R)-5-(4-aminopyrrolo[2,3-d]pyrimidin-7-yl)-3,4-dihydroxy-tetrahydrofuran-2-yl]methylsulfanyl]-2-(tert-butoxycarbonylamino)butanoate
> <PUBCHEM_IUPAC_CAS_NAME>
4-[[(2S,3S,4R,5R)-5-(4-amino-7-pyrrolo[2,3-d]pyrimidinyl)-3,4-dihydroxy-2-oxolanyl]methylthio]-2-[[(2-methylpropan-2-yl)oxy-oxomethyl]amino]butanoic acid 2-trimethylsilylethyl ester
> <PUBCHEM_IUPAC_NAME_MARKUP>
2-trimethylsilylethyl 4-[[(2<I>S</I>,3<I>S</I>,4<I>R</I>,5<I>R</I>)-5-(4-aminopyrrolo[2,3-d]pyrimidin-7-yl)-3,4-dihydroxyoxolan-2-yl]methylsulfanyl]-2-[(2-methylpropan-2-yl)oxycarbonylamino]butanoate
> <PUBCHEM_IUPAC_NAME>
2-trimethylsilylethyl 4-[[(2S,3S,4R,5R)-5-(4-aminopyrrolo[2,3-d]pyrimidin-7-yl)-3,4-dihydroxyoxolan-2-yl]methylsulfanyl]-2-[(2-methylpropan-2-yl)oxycarbonylamino]butanoate
> <PUBCHEM_IUPAC_SYSTEMATIC_NAME>
2-trimethylsilylethyl 4-[[(2S,3S,4R,5R)-5-(4-azanylpyrrolo[2,3-d]pyrimidin-7-yl)-3,4-bis(oxidanyl)oxolan-2-yl]methylsulfanyl]-2-[(2-methylpropan-2-yl)oxycarbonylamino]butanoate
> <PUBCHEM_IUPAC_TRADITIONAL_NAME>
4-[[(2S,3S,4R,5R)-5-(4-aminopyrrolo[2,3-d]pyrimidin-7-yl)-3,4-dihydroxy-tetrahydrofuran-2-yl]methylthio]-2-(tert-butoxycarbonylamino)butyric acid 2-trimethylsilylethyl ester
> <PUBCHEM_IUPAC_INCHI>
InChI=1S/C25H41N5O7SSi/c1-25(2,3)37-24(34)29-16(23(33)35-10-12-39(4,5)6)8-11-38-13-17-18(31)19(32)22(36-17)30-9-7-15-20(26)27-14-28-21(15)30/h7,9,14,16-19,22,31-32H,8,10-13H2,1-6H3,(H,29,34)(H2,26,27,28)/t16?,17-,18-,19-,22-/m1/s1
> <PUBCHEM_IUPAC_INCHIKEY>
YHMVTXISJFEDMO-BYOFLZLCSA-N
> <PUBCHEM_EXACT_MASS>
583.24959637
> <PUBCHEM_MOLECULAR_FORMULA>
C25H41N5O7SSi
> <PUBCHEM_MOLECULAR_WEIGHT>
583.8
> <PUBCHEM_OPENEYE_CAN_SMILES>
CC(C)(C)OC(=O)NC(CCSCC1C(C(C(O1)N2C=CC3=C(N=CN=C32)N)O)O)C(=O)OCC[Si](C)(C)C
> <PUBCHEM_OPENEYE_ISO_SMILES>
CC(C)(C)OC(=O)NC(CCSC[C@@H]1[C@H]([C@H]([C@@H](O1)N2C=CC3=C(N=CN=C32)N)O)O)C(=O)OCC[Si](C)(C)C
> <PUBCHEM_CACTVS_TPSA>
196
> <PUBCHEM_MONOISOTOPIC_WEIGHT>
583.24959637
> <PUBCHEM_TOTAL_CHARGE>
0
> <PUBCHEM_HEAVY_ATOM_COUNT>
39
> <PUBCHEM_ATOM_DEF_STEREO_COUNT>
4
> <PUBCHEM_ATOM_UDEF_STEREO_COUNT>
1
> <PUBCHEM_BOND_DEF_STEREO_COUNT>
0
> <PUBCHEM_BOND_UDEF_STEREO_COUNT>
0
> <PUBCHEM_ISOTOPIC_ATOM_COUNT>
0
> <PUBCHEM_COMPONENT_COUNT>
1
> <PUBCHEM_CACTVS_TAUTO_COUNT>
-1
> <PUBCHEM_COORDINATE_TYPE>
1
5
255
> <PUBCHEM_BONDANNOTATIONS>
17  10  5
10  20  8
10  21  8
11  20  8
11  34  8
12  28  8
12  34  8
18  19  5
20  22  8
21  23  8
22  23  8
22  28  8
27  25  3
15  4  6
16  5  6
$$$$
