512622
  -OEChem-10302200282D
 44 46  0     1  0  0  0  0  0999 V2000
    3.3100   -0.7990    0.0000 P   0  0  3  0  0  0  0  0  0  0  0  0
    5.9883   -2.1038    0.0000 O   0  0  0  0  0  0  0  0  0  0  0  0
    4.1760   -0.2990    0.0000 O   0  0  0  0  0  0  0  0  0  0  0  0
    3.3100   -1.7990    0.0000 O   0  0  0  0  0  0  0  0  0  0  0  0
    6.2989    0.4562    0.0000 O   0  0  0  0  0  0  0  0  0  0  0  0
    2.3100   -0.7990    0.0000 O   0  0  0  0  0  0  0  0  0  0  0  0
    2.8100    0.0670    0.0000 O   0  0  0  0  0  0  0  0  0  0  0  0
    7.5719   -3.0311    0.0000 O   0  0  0  0  0  0  0  0  0  0  0  0
    7.5719   -1.2990    0.0000 N   0  0  0  0  0  0  0  0  0  0  0  0
    9.0719   -2.1651    0.0000 N   0  0  0  0  0  0  0  0  0  0  0  0
   10.5719   -1.2990    0.0000 N   0  0  0  0  0  0  0  0  0  0  0  0
    5.0420   -0.7990    0.0000 C   0  0  3  0  0  0  0  0  0  0  0  0
    5.0420   -1.7990    0.0000 C   0  0  3  0  0  0  0  0  0  0  0  0
    5.9883   -0.4943    0.0000 C   0  0  2  0  0  0  0  0  0  0  0  0
    6.5719   -1.2990    0.0000 C   0  0  1  0  0  0  0  0  0  0  0  0
    4.1760   -2.2990    0.0000 C   0  0  0  0  0  0  0  0  0  0  0  0
    8.0719   -0.4330    0.0000 C   0  0  0  0  0  0  0  0  0  0  0  0
    8.0719   -2.1651    0.0000 C   0  0  0  0  0  0  0  0  0  0  0  0
    9.0719   -0.4330    0.0000 C   0  0  0  0  0  0  0  0  0  0  0  0
    9.5719    0.4330    0.0000 C   0  0  0  0  0  0  0  0  0  0  0  0
    9.5719   -1.2990    0.0000 C   0  0  0  0  0  0  0  0  0  0  0  0
    9.0719    1.2990    0.0000 C   0  0  0  0  0  0  0  0  0  0  0  0
    9.5719    2.1651    0.0000 C   0  0  0  0  0  0  0  0  0  0  0  0
    9.0719    3.0311    0.0000 C   0  0  0  0  0  0  0  0  0  0  0  0
    5.1320    0.0462    0.0000 H   0  0  0  0  0  0  0  0  0  0  0  0
    5.1320   -2.6443    0.0000 H   0  0  0  0  0  0  0  0  0  0  0  0
    6.6008   -0.3981    0.0000 H   0  0  0  0  0  0  0  0  0  0  0  0
    6.8536   -0.7467    0.0000 H   0  0  0  0  0  0  0  0  0  0  0  0
    3.7775   -2.7740    0.0000 H   0  0  0  0  0  0  0  0  0  0  0  0
    4.5746   -2.7740    0.0000 H   0  0  0  0  0  0  0  0  0  0  0  0
    5.8849    0.9177    0.0000 H   0  0  0  0  0  0  0  0  0  0  0  0
    7.7619    0.1039    0.0000 H   0  0  0  0  0  0  0  0  0  0  0  0
   10.0468    0.0345    0.0000 H   0  0  0  0  0  0  0  0  0  0  0  0
   10.0468    0.8315    0.0000 H   0  0  0  0  0  0  0  0  0  0  0  0
    8.5969    1.6976    0.0000 H   0  0  0  0  0  0  0  0  0  0  0  0
    8.5969    0.9005    0.0000 H   0  0  0  0  0  0  0  0  0  0  0  0
    2.0000   -1.3360    0.0000 H   0  0  0  0  0  0  0  0  0  0  0  0
   10.0468    1.7665    0.0000 H   0  0  0  0  0  0  0  0  0  0  0  0
   10.0468    2.5636    0.0000 H   0  0  0  0  0  0  0  0  0  0  0  0
   10.8819   -1.8360    0.0000 H   0  0  0  0  0  0  0  0  0  0  0  0
   10.8819   -0.7621    0.0000 H   0  0  0  0  0  0  0  0  0  0  0  0
    9.6088    3.3411    0.0000 H   0  0  0  0  0  0  0  0  0  0  0  0
    8.7619    3.5680    0.0000 H   0  0  0  0  0  0  0  0  0  0  0  0
    8.5349    2.7211    0.0000 H   0  0  0  0  0  0  0  0  0  0  0  0
  1  3  1  0  0  0  0
  1  4  1  0  0  0  0
  1  6  1  0  0  0  0
  1  7  2  0  0  0  0
  2 13  1  0  0  0  0
  2 15  1  0  0  0  0
  3 12  1  0  0  0  0
  4 16  1  0  0  0  0
 14  5  1  1  0  0  0
  5 31  1  0  0  0  0
  6 37  1  0  0  0  0
  8 18  2  0  0  0  0
 15  9  1  6  0  0  0
  9 17  1  0  0  0  0
  9 18  1  0  0  0  0
 10 18  1  0  0  0  0
 10 21  2  0  0  0  0
 11 21  1  0  0  0  0
 11 40  1  0  0  0  0
 11 41  1  0  0  0  0
 12 13  1  0  0  0  0
 12 14  1  0  0  0  0
 12 25  1  0  0  0  0
 13 16  1  0  0  0  0
 13 26  1  0  0  0  0
 14 15  1  0  0  0  0
 14 27  1  0  0  0  0
 15 28  1  0  0  0  0
 16 29  1  0  0  0  0
 16 30  1  0  0  0  0
 17 19  2  0  0  0  0
 17 32  1  0  0  0  0
 19 20  1  0  0  0  0
 19 21  1  0  0  0  0
 20 22  1  0  0  0  0
 20 33  1  0  0  0  0
 20 34  1  0  0  0  0
 22 23  1  0  0  0  0
 22 35  1  0  0  0  0
 22 36  1  0  0  0  0
 23 24  1  0  0  0  0
 23 38  1  0  0  0  0
 23 39  1  0  0  0  0
 24 42  1  0  0  0  0
 24 43  1  0  0  0  0
 24 44  1  0  0  0  0
M  END
> <PUBCHEM_COMPOUND_CID>
512622
> <PUBCHEM_COMPOUND_CANONICALIZED>
1
> <PUBCHEM_CACTVS_COMPLEXITY>
637
> <PUBCHEM_CACTVS_HBOND_ACCEPTOR>
7
> <PUBCHEM_CACTVS_HBOND_DONOR>
3
> <PUBCHEM_CACTVS_ROTATABLE_BOND>
4
> <PUBCHEM_CACTVS_SUBSKEYS>
AAADceBzOAIAAAAAAAAAAAAAAAAAASAAAAAkQAAAAAAAAEgAAAAAHgAQCCAADBThgAYDAANABxCoQgJmdICAAAEgAAAAAAAoABiDEAIAgQAOQAAHhgITAAHwMAIAAAAAAAAAAAAAAAAAAAAAAAAAAAAAAA==
> <PUBCHEM_IUPAC_OPENEYE_NAME>
4-amino-5-butyl-1-[(6R,7R)-2,7-dihydroxy-2-oxo-4a,6,7,7a-tetrahydro-4H-furo[3,2-d][1,3,2]dioxaphosphinin-6-yl]pyrimidin-2-one
> <PUBCHEM_IUPAC_CAS_NAME>
4-amino-5-butyl-1-[(6R,7R)-2,7-dihydroxy-2-oxo-4a,6,7,7a-tetrahydro-4H-furo[3,2-d][1,3,2]dioxaphosphorin-6-yl]-2-pyrimidinone
> <PUBCHEM_IUPAC_NAME_MARKUP>
4-amino-5-butyl-1-[(6<I>R</I>,7<I>R</I>)-2,7-dihydroxy-2-oxo-4<I>a</I>,6,7,7<I>a</I>-tetrahydro-4<I>H</I>-furo[3,2-d][1,3,2]dioxaphosphinin-6-yl]pyrimidin-2-one
> <PUBCHEM_IUPAC_NAME>
4-amino-5-butyl-1-[(6R,7R)-2,7-dihydroxy-2-oxo-4a,6,7,7a-tetrahydro-4H-furo[3,2-d][1,3,2]dioxaphosphinin-6-yl]pyrimidin-2-one
> <PUBCHEM_IUPAC_SYSTEMATIC_NAME>
4-azanyl-1-[(6R,7R)-2,7-bis(oxidanyl)-2-oxidanylidene-4a,6,7,7a-tetrahydro-4H-furo[3,2-d][1,3,2]dioxaphosphinin-6-yl]-5-butyl-pyrimidin-2-one
> <PUBCHEM_IUPAC_TRADITIONAL_NAME>
4-amino-5-butyl-1-[(6R,7R)-2,7-dihydroxy-2-keto-4a,6,7,7a-tetrahydro-4H-furo[3,2-d][1,3,2]dioxaphosphorin-6-yl]pyrimidin-2-one
> <PUBCHEM_IUPAC_INCHI>
InChI=1S/C13H20N3O7P/c1-2-3-4-7-5-16(13(18)15-11(7)14)12-9(17)10-8(22-12)6-21-24(19,20)23-10/h5,8-10,12,17H,2-4,6H2,1H3,(H,19,20)(H2,14,15,18)/t8?,9-,10?,12-/m1/s1
> <PUBCHEM_IUPAC_INCHIKEY>
CRAQVGQJWSIGOT-LCLYSXEGSA-N
> <PUBCHEM_XLOGP3_AA>
-1.4
> <PUBCHEM_EXACT_MASS>
361.10388698
> <PUBCHEM_MOLECULAR_FORMULA>
C13H20N3O7P
> <PUBCHEM_MOLECULAR_WEIGHT>
361.29
> <PUBCHEM_OPENEYE_CAN_SMILES>
CCCCC1=CN(C(=O)N=C1N)C2C(C3C(O2)COP(=O)(O3)O)O
> <PUBCHEM_OPENEYE_ISO_SMILES>
CCCCC1=CN(C(=O)N=C1N)[C@H]2[C@@H](C3C(O2)COP(=O)(O3)O)O
> <PUBCHEM_CACTVS_TPSA>
144
> <PUBCHEM_MONOISOTOPIC_WEIGHT>
361.10388698
> <PUBCHEM_TOTAL_CHARGE>
0
> <PUBCHEM_HEAVY_ATOM_COUNT>
24
> <PUBCHEM_ATOM_DEF_STEREO_COUNT>
2
> <PUBCHEM_ATOM_UDEF_STEREO_COUNT>
2
> <PUBCHEM_BOND_DEF_STEREO_COUNT>
0
> <PUBCHEM_BOND_UDEF_STEREO_COUNT>
0
> <PUBCHEM_ISOTOPIC_ATOM_COUNT>
0
> <PUBCHEM_COMPONENT_COUNT>
1
> <PUBCHEM_CACTVS_TAUTO_COUNT>
3
> <PUBCHEM_COORDINATE_TYPE>
1
5
255
> <PUBCHEM_BONDANNOTATIONS>
10  18  8
10  21  8
12  25  3
13  26  3
17  19  8
19  21  8
14  5  5
15  9  6
9  17  8
9  18  8
$$$$
