512637
  -OEChem-10302200282D
 33 34  0     1  0  0  0  0  0999 V2000
    6.0010   -1.4400    0.0000 O   0  0  0  0  0  0  0  0  0  0  0  0
    3.4030   -1.9400    0.0000 O   0  0  0  0  0  0  0  0  0  0  0  0
    6.0010   -3.4400    0.0000 O   0  0  0  0  0  0  0  0  0  0  0  0
    6.8671    1.0600    0.0000 O   0  0  0  0  0  0  0  0  0  0  0  0
    5.1350    4.0600    0.0000 O   0  0  0  0  0  0  0  0  0  0  0  0
    5.1350    1.0600    0.0000 N   0  0  0  0  0  0  0  0  0  0  0  0
    6.0010    2.5600    0.0000 N   0  0  0  0  0  0  0  0  0  0  0  0
    5.1350    0.0600    0.0000 C   0  0  1  0  0  0  0  0  0  0  0  0
    4.2690   -0.4400    0.0000 C   0  0  0  0  0  0  0  0  0  0  0  0
    4.2690   -1.4400    0.0000 C   0  0  1  0  0  0  0  0  0  0  0  0
    5.1350   -1.9400    0.0000 C   0  0  1  0  0  0  0  0  0  0  0  0
    6.0010   -0.4400    0.0000 C   0  0  0  0  0  0  0  0  0  0  0  0
    5.1350   -2.9400    0.0000 C   0  0  0  0  0  0  0  0  0  0  0  0
    4.2690    1.5600    0.0000 C   0  0  0  0  0  0  0  0  0  0  0  0
    6.0010    1.5600    0.0000 C   0  0  0  0  0  0  0  0  0  0  0  0
    4.2690    2.5600    0.0000 C   0  0  0  0  0  0  0  0  0  0  0  0
    5.1350    3.0600    0.0000 C   0  0  0  0  0  0  0  0  0  0  0  0
    3.4030    3.0600    0.0000 C   0  0  0  0  0  0  0  0  0  0  0  0
    2.5369    3.5600    0.0000 C   0  0  0  0  0  0  0  0  0  0  0  0
    5.6720    0.3700    0.0000 H   0  0  0  0  0  0  0  0  0  0  0  0
    4.0569    0.1426    0.0000 H   0  0  0  0  0  0  0  0  0  0  0  0
    3.6584   -0.5477    0.0000 H   0  0  0  0  0  0  0  0  0  0  0  0
    4.2690   -2.0600    0.0000 H   0  0  0  0  0  0  0  0  0  0  0  0
    5.6720   -2.2500    0.0000 H   0  0  0  0  0  0  0  0  0  0  0  0
    6.6116   -0.5477    0.0000 H   0  0  0  0  0  0  0  0  0  0  0  0
    6.2131    0.1426    0.0000 H   0  0  0  0  0  0  0  0  0  0  0  0
    4.5244   -2.8323    0.0000 H   0  0  0  0  0  0  0  0  0  0  0  0
    4.9230   -3.5226    0.0000 H   0  0  0  0  0  0  0  0  0  0  0  0
    2.8660   -1.6300    0.0000 H   0  0  0  0  0  0  0  0  0  0  0  0
    3.7320    1.2500    0.0000 H   0  0  0  0  0  0  0  0  0  0  0  0
    6.5380    2.8700    0.0000 H   0  0  0  0  0  0  0  0  0  0  0  0
    6.0010   -4.0600    0.0000 H   0  0  0  0  0  0  0  0  0  0  0  0
    2.0000    3.8700    0.0000 H   0  0  0  0  0  0  0  0  0  0  0  0
  1 11  1  0  0  0  0
  1 12  1  0  0  0  0
 10  2  1  1  0  0  0
  2 29  1  0  0  0  0
  3 13  1  0  0  0  0
  3 32  1  0  0  0  0
  4 15  2  0  0  0  0
  5 17  2  0  0  0  0
  8  6  1  6  0  0  0
  6 14  1  0  0  0  0
  6 15  1  0  0  0  0
  7 15  1  0  0  0  0
  7 17  1  0  0  0  0
  7 31  1  0  0  0  0
  8  9  1  0  0  0  0
  8 12  1  0  0  0  0
  8 20  1  0  0  0  0
  9 10  1  0  0  0  0
  9 21  1  0  0  0  0
  9 22  1  0  0  0  0
 10 11  1  0  0  0  0
 10 23  1  0  0  0  0
 11 13  1  6  0  0  0
 11 24  1  0  0  0  0
 12 25  1  0  0  0  0
 12 26  1  0  0  0  0
 13 27  1  0  0  0  0
 13 28  1  0  0  0  0
 14 16  2  0  0  0  0
 14 30  1  0  0  0  0
 16 17  1  0  0  0  0
 16 18  1  0  0  0  0
 18 19  3  0  0  0  0
 19 33  1  0  0  0  0
M  END
> <PUBCHEM_COMPOUND_CID>
512637
> <PUBCHEM_COMPOUND_CANONICALIZED>
1
> <PUBCHEM_CACTVS_COMPLEXITY>
478
> <PUBCHEM_CACTVS_HBOND_ACCEPTOR>
5
> <PUBCHEM_CACTVS_HBOND_DONOR>
3
> <PUBCHEM_CACTVS_ROTATABLE_BOND>
3
> <PUBCHEM_CACTVS_SUBSKEYS>
AAADccBzOAAAAAAAAAAAAAAAAAAAAAAAAAAkQAAAAAAAAAAAAAAAHgAQCAAADDzhgAYBAAPABgDIGgFWUAiAAAAAAAAAAAEIAECDEAIAgAAHQAAPByITAMHwUAMAAAAAAAAAAAAAAAAAAAAAAAAAAAAAAA==
> <PUBCHEM_IUPAC_OPENEYE_NAME>
5-ethynyl-1-[(3S,5S,6R)-5-hydroxy-6-(hydroxymethyl)tetrahydropyran-3-yl]pyrimidine-2,4-dione
> <PUBCHEM_IUPAC_CAS_NAME>
5-ethynyl-1-[(3S,5S,6R)-5-hydroxy-6-(hydroxymethyl)-3-oxanyl]pyrimidine-2,4-dione
> <PUBCHEM_IUPAC_NAME_MARKUP>
5-ethynyl-1-[(3<I>S</I>,5<I>S</I>,6<I>R</I>)-5-hydroxy-6-(hydroxymethyl)oxan-3-yl]pyrimidine-2,4-dione
> <PUBCHEM_IUPAC_NAME>
5-ethynyl-1-[(3S,5S,6R)-5-hydroxy-6-(hydroxymethyl)oxan-3-yl]pyrimidine-2,4-dione
> <PUBCHEM_IUPAC_SYSTEMATIC_NAME>
5-ethynyl-1-[(3S,5S,6R)-6-(hydroxymethyl)-5-oxidanyl-oxan-3-yl]pyrimidine-2,4-dione
> <PUBCHEM_IUPAC_TRADITIONAL_NAME>
5-ethynyl-1-[(3S,5S,6R)-5-hydroxy-6-methylol-tetrahydropyran-3-yl]pyrimidine-2,4-quinone
> <PUBCHEM_IUPAC_INCHI>
InChI=1S/C12H14N2O5/c1-2-7-4-14(12(18)13-11(7)17)8-3-9(16)10(5-15)19-6-8/h1,4,8-10,15-16H,3,5-6H2,(H,13,17,18)/t8-,9-,10+/m0/s1
> <PUBCHEM_IUPAC_INCHIKEY>
HBUSXKISTZAAQX-LPEHRKFASA-N
> <PUBCHEM_XLOGP3>
-1.4
> <PUBCHEM_EXACT_MASS>
266.09027155
> <PUBCHEM_MOLECULAR_FORMULA>
C12H14N2O5
> <PUBCHEM_MOLECULAR_WEIGHT>
266.25
> <PUBCHEM_OPENEYE_CAN_SMILES>
C#CC1=CN(C(=O)NC1=O)C2CC(C(OC2)CO)O
> <PUBCHEM_OPENEYE_ISO_SMILES>
C#CC1=CN(C(=O)NC1=O)[C@H]2C[C@@H]([C@H](OC2)CO)O
> <PUBCHEM_CACTVS_TPSA>
99.1
> <PUBCHEM_MONOISOTOPIC_WEIGHT>
266.09027155
> <PUBCHEM_TOTAL_CHARGE>
0
> <PUBCHEM_HEAVY_ATOM_COUNT>
19
> <PUBCHEM_ATOM_DEF_STEREO_COUNT>
3
> <PUBCHEM_ATOM_UDEF_STEREO_COUNT>
0
> <PUBCHEM_BOND_DEF_STEREO_COUNT>
0
> <PUBCHEM_BOND_UDEF_STEREO_COUNT>
0
> <PUBCHEM_ISOTOPIC_ATOM_COUNT>
0
> <PUBCHEM_COMPONENT_COUNT>
1
> <PUBCHEM_CACTVS_TAUTO_COUNT>
-1
> <PUBCHEM_COORDINATE_TYPE>
1
5
255
> <PUBCHEM_BONDANNOTATIONS>
11  13  6
14  16  8
16  17  8
10  2  5
6  14  8
6  15  8
8  6  6
7  15  8
7  17  8
$$$$
