512633
  -OEChem-10302200282D
 31 32  0     1  0  0  0  0  0999 V2000
    2.5369    3.0600    0.0000 Cl  0  0  0  0  0  0  0  0  0  0  0  0
    5.1350   -1.4400    0.0000 O   0  0  0  0  0  0  0  0  0  0  0  0
    2.5369   -1.9400    0.0000 O   0  0  0  0  0  0  0  0  0  0  0  0
    5.1350   -3.4400    0.0000 O   0  0  0  0  0  0  0  0  0  0  0  0
    6.0010    1.0600    0.0000 O   0  0  0  0  0  0  0  0  0  0  0  0
    4.2690    4.0600    0.0000 O   0  0  0  0  0  0  0  0  0  0  0  0
    4.2690    1.0600    0.0000 N   0  0  0  0  0  0  0  0  0  0  0  0
    5.1350    2.5600    0.0000 N   0  0  0  0  0  0  0  0  0  0  0  0
    4.2690    0.0600    0.0000 C   0  0  1  0  0  0  0  0  0  0  0  0
    3.4030   -0.4400    0.0000 C   0  0  0  0  0  0  0  0  0  0  0  0
    3.4030   -1.4400    0.0000 C   0  0  1  0  0  0  0  0  0  0  0  0
    4.2690   -1.9400    0.0000 C   0  0  1  0  0  0  0  0  0  0  0  0
    5.1350   -0.4400    0.0000 C   0  0  0  0  0  0  0  0  0  0  0  0
    4.2690   -2.9400    0.0000 C   0  0  0  0  0  0  0  0  0  0  0  0
    5.1350    1.5600    0.0000 C   0  0  0  0  0  0  0  0  0  0  0  0
    3.4030    1.5600    0.0000 C   0  0  0  0  0  0  0  0  0  0  0  0
    3.4030    2.5600    0.0000 C   0  0  0  0  0  0  0  0  0  0  0  0
    4.2690    3.0600    0.0000 C   0  0  0  0  0  0  0  0  0  0  0  0
    4.8059    0.3700    0.0000 H   0  0  0  0  0  0  0  0  0  0  0  0
    3.1909    0.1426    0.0000 H   0  0  0  0  0  0  0  0  0  0  0  0
    2.7924   -0.5477    0.0000 H   0  0  0  0  0  0  0  0  0  0  0  0
    3.4030   -2.0600    0.0000 H   0  0  0  0  0  0  0  0  0  0  0  0
    4.8059   -2.2500    0.0000 H   0  0  0  0  0  0  0  0  0  0  0  0
    5.7456   -0.5477    0.0000 H   0  0  0  0  0  0  0  0  0  0  0  0
    5.3471    0.1426    0.0000 H   0  0  0  0  0  0  0  0  0  0  0  0
    3.6584   -2.8323    0.0000 H   0  0  0  0  0  0  0  0  0  0  0  0
    4.0569   -3.5226    0.0000 H   0  0  0  0  0  0  0  0  0  0  0  0
    2.0000   -1.6300    0.0000 H   0  0  0  0  0  0  0  0  0  0  0  0
    2.8660    1.2500    0.0000 H   0  0  0  0  0  0  0  0  0  0  0  0
    5.6720    2.8700    0.0000 H   0  0  0  0  0  0  0  0  0  0  0  0
    5.1350   -4.0600    0.0000 H   0  0  0  0  0  0  0  0  0  0  0  0
  1 17  1  0  0  0  0
  2 12  1  0  0  0  0
  2 13  1  0  0  0  0
 11  3  1  1  0  0  0
  3 28  1  0  0  0  0
  4 14  1  0  0  0  0
  4 31  1  0  0  0  0
  5 15  2  0  0  0  0
  6 18  2  0  0  0  0
  9  7  1  6  0  0  0
  7 15  1  0  0  0  0
  7 16  1  0  0  0  0
  8 15  1  0  0  0  0
  8 18  1  0  0  0  0
  8 30  1  0  0  0  0
  9 10  1  0  0  0  0
  9 13  1  0  0  0  0
  9 19  1  0  0  0  0
 10 11  1  0  0  0  0
 10 20  1  0  0  0  0
 10 21  1  0  0  0  0
 11 12  1  0  0  0  0
 11 22  1  0  0  0  0
 12 14  1  6  0  0  0
 12 23  1  0  0  0  0
 13 24  1  0  0  0  0
 13 25  1  0  0  0  0
 14 26  1  0  0  0  0
 14 27  1  0  0  0  0
 16 17  2  0  0  0  0
 16 29  1  0  0  0  0
 17 18  1  0  0  0  0
M  END
> <PUBCHEM_COMPOUND_CID>
512633
> <PUBCHEM_COMPOUND_CANONICALIZED>
1
> <PUBCHEM_CACTVS_COMPLEXITY>
400
> <PUBCHEM_CACTVS_HBOND_ACCEPTOR>
5
> <PUBCHEM_CACTVS_HBOND_DONOR>
3
> <PUBCHEM_CACTVS_ROTATABLE_BOND>
2
> <PUBCHEM_CACTVS_SUBSKEYS>
AAADccBzOAAEAAAAAAAAAAAAAAAAAAAAAAAkQAAAAAAAAAAAAAAAHgIQCAAACD7hgAYBAAPABgCIAAFWUACAAAAAAAAAAAAIAEDDEAIAgABHQAAPByITAMHwUAMAAAAAAAAAAAAAAAAAAAAAAAAAAAAAAA==
> <PUBCHEM_IUPAC_OPENEYE_NAME>
5-chloro-1-[(3S,5S,6R)-5-hydroxy-6-(hydroxymethyl)tetrahydropyran-3-yl]pyrimidine-2,4-dione
> <PUBCHEM_IUPAC_CAS_NAME>
5-chloro-1-[(3S,5S,6R)-5-hydroxy-6-(hydroxymethyl)-3-oxanyl]pyrimidine-2,4-dione
> <PUBCHEM_IUPAC_NAME_MARKUP>
5-chloro-1-[(3<I>S</I>,5<I>S</I>,6<I>R</I>)-5-hydroxy-6-(hydroxymethyl)oxan-3-yl]pyrimidine-2,4-dione
> <PUBCHEM_IUPAC_NAME>
5-chloro-1-[(3S,5S,6R)-5-hydroxy-6-(hydroxymethyl)oxan-3-yl]pyrimidine-2,4-dione
> <PUBCHEM_IUPAC_SYSTEMATIC_NAME>
5-chloranyl-1-[(3S,5S,6R)-6-(hydroxymethyl)-5-oxidanyl-oxan-3-yl]pyrimidine-2,4-dione
> <PUBCHEM_IUPAC_TRADITIONAL_NAME>
5-chloro-1-[(3S,5S,6R)-5-hydroxy-6-methylol-tetrahydropyran-3-yl]pyrimidine-2,4-quinone
> <PUBCHEM_IUPAC_INCHI>
InChI=1S/C10H13ClN2O5/c11-6-2-13(10(17)12-9(6)16)5-1-7(15)8(3-14)18-4-5/h2,5,7-8,14-15H,1,3-4H2,(H,12,16,17)/t5-,7-,8+/m0/s1
> <PUBCHEM_IUPAC_INCHIKEY>
SHHXJBIJJHZRJO-APQOSEDMSA-N
> <PUBCHEM_XLOGP3>
-0.8
> <PUBCHEM_EXACT_MASS>
276.0512992
> <PUBCHEM_MOLECULAR_FORMULA>
C10H13ClN2O5
> <PUBCHEM_MOLECULAR_WEIGHT>
276.67
> <PUBCHEM_OPENEYE_CAN_SMILES>
C1C(COC(C1O)CO)N2C=C(C(=O)NC2=O)Cl
> <PUBCHEM_OPENEYE_ISO_SMILES>
C1[C@@H](CO[C@@H]([C@H]1O)CO)N2C=C(C(=O)NC2=O)Cl
> <PUBCHEM_CACTVS_TPSA>
99.1
> <PUBCHEM_MONOISOTOPIC_WEIGHT>
276.0512992
> <PUBCHEM_TOTAL_CHARGE>
0
> <PUBCHEM_HEAVY_ATOM_COUNT>
18
> <PUBCHEM_ATOM_DEF_STEREO_COUNT>
3
> <PUBCHEM_ATOM_UDEF_STEREO_COUNT>
0
> <PUBCHEM_BOND_DEF_STEREO_COUNT>
0
> <PUBCHEM_BOND_UDEF_STEREO_COUNT>
0
> <PUBCHEM_ISOTOPIC_ATOM_COUNT>
0
> <PUBCHEM_COMPONENT_COUNT>
1
> <PUBCHEM_CACTVS_TAUTO_COUNT>
-1
> <PUBCHEM_COORDINATE_TYPE>
1
5
255
> <PUBCHEM_BONDANNOTATIONS>
12  14  6
16  17  8
17  18  8
11  3  5
7  15  8
7  16  8
9  7  6
8  15  8
8  18  8
$$$$
