512625
  -OEChem-10302200282D
 53 55  0     1  0  0  0  0  0999 V2000
    3.3100   -2.0981    0.0000 P   0  0  3  0  0  0  0  0  0  0  0  0
    5.9883   -3.4028    0.0000 O   0  0  0  0  0  0  0  0  0  0  0  0
    4.1760   -1.5981    0.0000 O   0  0  0  0  0  0  0  0  0  0  0  0
    3.3100   -3.0981    0.0000 O   0  0  0  0  0  0  0  0  0  0  0  0
    6.2989   -0.8428    0.0000 O   0  0  0  0  0  0  0  0  0  0  0  0
    2.3100   -2.0981    0.0000 O   0  0  0  0  0  0  0  0  0  0  0  0
    2.8100   -1.2320    0.0000 O   0  0  0  0  0  0  0  0  0  0  0  0
    7.5719   -4.3301    0.0000 O   0  0  0  0  0  0  0  0  0  0  0  0
    7.5719   -2.5981    0.0000 N   0  0  0  0  0  0  0  0  0  0  0  0
    9.0719   -3.4641    0.0000 N   0  0  0  0  0  0  0  0  0  0  0  0
   10.5719   -2.5981    0.0000 N   0  0  0  0  0  0  0  0  0  0  0  0
    5.0420   -2.0981    0.0000 C   0  0  3  0  0  0  0  0  0  0  0  0
    5.0420   -3.0981    0.0000 C   0  0  3  0  0  0  0  0  0  0  0  0
    5.9883   -1.7933    0.0000 C   0  0  2  0  0  0  0  0  0  0  0  0
    6.5719   -2.5981    0.0000 C   0  0  1  0  0  0  0  0  0  0  0  0
    4.1760   -3.5981    0.0000 C   0  0  0  0  0  0  0  0  0  0  0  0
    8.0719   -1.7320    0.0000 C   0  0  0  0  0  0  0  0  0  0  0  0
    8.0719   -3.4641    0.0000 C   0  0  0  0  0  0  0  0  0  0  0  0
    9.0719   -1.7320    0.0000 C   0  0  0  0  0  0  0  0  0  0  0  0
    9.5719   -0.8660    0.0000 C   0  0  0  0  0  0  0  0  0  0  0  0
    9.0719    0.0000    0.0000 C   0  0  0  0  0  0  0  0  0  0  0  0
    9.5719   -2.5981    0.0000 C   0  0  0  0  0  0  0  0  0  0  0  0
    9.5719    0.8660    0.0000 C   0  0  0  0  0  0  0  0  0  0  0  0
    9.0719    1.7320    0.0000 C   0  0  0  0  0  0  0  0  0  0  0  0
    9.5719    2.5981    0.0000 C   0  0  0  0  0  0  0  0  0  0  0  0
    9.0719    3.4641    0.0000 C   0  0  0  0  0  0  0  0  0  0  0  0
    9.5719    4.3301    0.0000 C   0  0  0  0  0  0  0  0  0  0  0  0
    5.1320   -1.2528    0.0000 H   0  0  0  0  0  0  0  0  0  0  0  0
    5.1320   -3.9433    0.0000 H   0  0  0  0  0  0  0  0  0  0  0  0
    6.6008   -1.6972    0.0000 H   0  0  0  0  0  0  0  0  0  0  0  0
    6.8536   -2.0458    0.0000 H   0  0  0  0  0  0  0  0  0  0  0  0
    3.7775   -4.0730    0.0000 H   0  0  0  0  0  0  0  0  0  0  0  0
    4.5746   -4.0730    0.0000 H   0  0  0  0  0  0  0  0  0  0  0  0
    5.8849   -0.3814    0.0000 H   0  0  0  0  0  0  0  0  0  0  0  0
    7.7619   -1.1951    0.0000 H   0  0  0  0  0  0  0  0  0  0  0  0
   10.0468   -1.2646    0.0000 H   0  0  0  0  0  0  0  0  0  0  0  0
   10.0468   -0.4675    0.0000 H   0  0  0  0  0  0  0  0  0  0  0  0
    8.5969    0.3985    0.0000 H   0  0  0  0  0  0  0  0  0  0  0  0
    8.5969   -0.3985    0.0000 H   0  0  0  0  0  0  0  0  0  0  0  0
   10.0468    0.4675    0.0000 H   0  0  0  0  0  0  0  0  0  0  0  0
   10.0468    1.2646    0.0000 H   0  0  0  0  0  0  0  0  0  0  0  0
    8.5969    2.1306    0.0000 H   0  0  0  0  0  0  0  0  0  0  0  0
    8.5969    1.3335    0.0000 H   0  0  0  0  0  0  0  0  0  0  0  0
    2.0000   -2.6350    0.0000 H   0  0  0  0  0  0  0  0  0  0  0  0
   10.0468    2.1996    0.0000 H   0  0  0  0  0  0  0  0  0  0  0  0
   10.0468    2.9966    0.0000 H   0  0  0  0  0  0  0  0  0  0  0  0
    8.5969    3.8626    0.0000 H   0  0  0  0  0  0  0  0  0  0  0  0
    8.5969    3.0656    0.0000 H   0  0  0  0  0  0  0  0  0  0  0  0
   10.8819   -3.1350    0.0000 H   0  0  0  0  0  0  0  0  0  0  0  0
   10.8819   -2.0611    0.0000 H   0  0  0  0  0  0  0  0  0  0  0  0
   10.1088    4.0201    0.0000 H   0  0  0  0  0  0  0  0  0  0  0  0
    9.8819    4.8671    0.0000 H   0  0  0  0  0  0  0  0  0  0  0  0
    9.0349    4.6401    0.0000 H   0  0  0  0  0  0  0  0  0  0  0  0
  1  3  1  0  0  0  0
  1  4  1  0  0  0  0
  1  6  1  0  0  0  0
  1  7  2  0  0  0  0
  2 13  1  0  0  0  0
  2 15  1  0  0  0  0
  3 12  1  0  0  0  0
  4 16  1  0  0  0  0
 14  5  1  1  0  0  0
  5 34  1  0  0  0  0
  6 44  1  0  0  0  0
  8 18  2  0  0  0  0
 15  9  1  6  0  0  0
  9 17  1  0  0  0  0
  9 18  1  0  0  0  0
 10 18  1  0  0  0  0
 10 22  2  0  0  0  0
 11 22  1  0  0  0  0
 11 49  1  0  0  0  0
 11 50  1  0  0  0  0
 12 13  1  0  0  0  0
 12 14  1  0  0  0  0
 12 28  1  0  0  0  0
 13 16  1  0  0  0  0
 13 29  1  0  0  0  0
 14 15  1  0  0  0  0
 14 30  1  0  0  0  0
 15 31  1  0  0  0  0
 16 32  1  0  0  0  0
 16 33  1  0  0  0  0
 17 19  2  0  0  0  0
 17 35  1  0  0  0  0
 19 20  1  0  0  0  0
 19 22  1  0  0  0  0
 20 21  1  0  0  0  0
 20 36  1  0  0  0  0
 20 37  1  0  0  0  0
 21 23  1  0  0  0  0
 21 38  1  0  0  0  0
 21 39  1  0  0  0  0
 23 24  1  0  0  0  0
 23 40  1  0  0  0  0
 23 41  1  0  0  0  0
 24 25  1  0  0  0  0
 24 42  1  0  0  0  0
 24 43  1  0  0  0  0
 25 26  1  0  0  0  0
 25 45  1  0  0  0  0
 25 46  1  0  0  0  0
 26 27  1  0  0  0  0
 26 47  1  0  0  0  0
 26 48  1  0  0  0  0
 27 51  1  0  0  0  0
 27 52  1  0  0  0  0
 27 53  1  0  0  0  0
M  END
> <PUBCHEM_COMPOUND_CID>
512625
> <PUBCHEM_COMPOUND_CANONICALIZED>
1
> <PUBCHEM_CACTVS_COMPLEXITY>
683
> <PUBCHEM_CACTVS_HBOND_ACCEPTOR>
7
> <PUBCHEM_CACTVS_HBOND_DONOR>
3
> <PUBCHEM_CACTVS_ROTATABLE_BOND>
7
> <PUBCHEM_CACTVS_SUBSKEYS>
AAADceB7OAIAAAAAAAAAAAAAAAAAASAAAAAkQAAAAAAAAEgAAAAAHgAQCCAADBThgAYDAANABxCoQgJmdICAAAEgAAAAAAAoABiDEAIAgQAOQAAHhgITAAHwsIIAAAAAAAAAAAAAAAAAAAAAAAAAAAAAAA==
> <PUBCHEM_IUPAC_OPENEYE_NAME>
4-amino-1-[(6R,7R)-2,7-dihydroxy-2-oxo-4a,6,7,7a-tetrahydro-4H-furo[3,2-d][1,3,2]dioxaphosphinin-6-yl]-5-heptyl-pyrimidin-2-one
> <PUBCHEM_IUPAC_CAS_NAME>
4-amino-1-[(6R,7R)-2,7-dihydroxy-2-oxo-4a,6,7,7a-tetrahydro-4H-furo[3,2-d][1,3,2]dioxaphosphorin-6-yl]-5-heptyl-2-pyrimidinone
> <PUBCHEM_IUPAC_NAME_MARKUP>
4-amino-1-[(6<I>R</I>,7<I>R</I>)-2,7-dihydroxy-2-oxo-4<I>a</I>,6,7,7<I>a</I>-tetrahydro-4<I>H</I>-furo[3,2-d][1,3,2]dioxaphosphinin-6-yl]-5-heptylpyrimidin-2-one
> <PUBCHEM_IUPAC_NAME>
4-amino-1-[(6R,7R)-2,7-dihydroxy-2-oxo-4a,6,7,7a-tetrahydro-4H-furo[3,2-d][1,3,2]dioxaphosphinin-6-yl]-5-heptylpyrimidin-2-one
> <PUBCHEM_IUPAC_SYSTEMATIC_NAME>
4-azanyl-1-[(6R,7R)-2,7-bis(oxidanyl)-2-oxidanylidene-4a,6,7,7a-tetrahydro-4H-furo[3,2-d][1,3,2]dioxaphosphinin-6-yl]-5-heptyl-pyrimidin-2-one
> <PUBCHEM_IUPAC_TRADITIONAL_NAME>
4-amino-1-[(6R,7R)-2,7-dihydroxy-2-keto-4a,6,7,7a-tetrahydro-4H-furo[3,2-d][1,3,2]dioxaphosphorin-6-yl]-5-heptyl-pyrimidin-2-one
> <PUBCHEM_IUPAC_INCHI>
InChI=1S/C16H26N3O7P/c1-2-3-4-5-6-7-10-8-19(16(21)18-14(10)17)15-12(20)13-11(25-15)9-24-27(22,23)26-13/h8,11-13,15,20H,2-7,9H2,1H3,(H,22,23)(H2,17,18,21)/t11?,12-,13?,15-/m1/s1
> <PUBCHEM_IUPAC_INCHIKEY>
AUUXQIVNYSIYOR-HNQLUHSGSA-N
> <PUBCHEM_XLOGP3_AA>
0.2
> <PUBCHEM_EXACT_MASS>
403.15083717
> <PUBCHEM_MOLECULAR_FORMULA>
C16H26N3O7P
> <PUBCHEM_MOLECULAR_WEIGHT>
403.37
> <PUBCHEM_OPENEYE_CAN_SMILES>
CCCCCCCC1=CN(C(=O)N=C1N)C2C(C3C(O2)COP(=O)(O3)O)O
> <PUBCHEM_OPENEYE_ISO_SMILES>
CCCCCCCC1=CN(C(=O)N=C1N)[C@H]2[C@@H](C3C(O2)COP(=O)(O3)O)O
> <PUBCHEM_CACTVS_TPSA>
144
> <PUBCHEM_MONOISOTOPIC_WEIGHT>
403.15083717
> <PUBCHEM_TOTAL_CHARGE>
0
> <PUBCHEM_HEAVY_ATOM_COUNT>
27
> <PUBCHEM_ATOM_DEF_STEREO_COUNT>
2
> <PUBCHEM_ATOM_UDEF_STEREO_COUNT>
2
> <PUBCHEM_BOND_DEF_STEREO_COUNT>
0
> <PUBCHEM_BOND_UDEF_STEREO_COUNT>
0
> <PUBCHEM_ISOTOPIC_ATOM_COUNT>
0
> <PUBCHEM_COMPONENT_COUNT>
1
> <PUBCHEM_CACTVS_TAUTO_COUNT>
3
> <PUBCHEM_COORDINATE_TYPE>
1
5
255
> <PUBCHEM_BONDANNOTATIONS>
10  18  8
10  22  8
12  28  3
13  29  3
17  19  8
19  22  8
14  5  5
15  9  6
9  17  8
9  18  8
$$$$
