512663
  -OEChem-10302200282D
 62 67  0     1  0  0  0  0  0999 V2000
    6.3301   -0.7500    0.0000 F   0  0  0  0  0  0  0  0  0  0  0  0
    5.7960    1.3249    0.0000 O   0  0  0  0  0  0  0  0  0  0  0  0
    7.1796    0.2109    0.0000 O   0  0  0  0  0  0  0  0  0  0  0  0
    3.4982   -4.3315    0.0000 O   0  0  0  0  0  0  0  0  0  0  0  0
    2.0463   -3.4933    0.0000 O   0  0  0  0  0  0  0  0  0  0  0  0
    7.1962   -4.2500    0.0000 O   0  0  0  0  0  0  0  0  0  0  0  0
    8.9282   -1.2500    0.0000 O   0  0  0  0  0  0  0  0  0  0  0  0
    8.9282   -3.2500    0.0000 O   0  0  0  0  0  0  0  0  0  0  0  0
    2.0000    4.7500    0.0000 O   0  5  0  0  0  0  0  0  0  0  0  0
    3.7320    4.7500    0.0000 O   0  0  0  0  0  0  0  0  0  0  0  0
    2.8660    0.2500    0.0000 N   0  0  0  0  0  0  0  0  0  0  0  0
    2.8660    4.2500    0.0000 N   0  3  0  0  0  0  0  0  0  0  0  0
    4.5981    0.2500    0.0000 C   0  0  1  0  0  0  0  0  0  0  0  0
    5.4641   -0.2500    0.0000 C   0  0  2  0  0  0  0  0  0  0  0  0
    5.4641   -1.2500    0.0000 C   0  0  1  0  0  0  0  0  0  0  0  0
    3.7320   -0.2500    0.0000 C   0  0  1  0  0  0  0  0  0  0  0  0
    4.5981   -1.7500    0.0000 C   0  0  0  0  0  0  0  0  0  0  0  0
    3.7320   -1.2500    0.0000 C   0  0  0  0  0  0  0  0  0  0  0  0
    4.8073    1.2218    0.0000 C   0  0  0  0  0  0  0  0  0  0  0  0
    6.2011    0.4171    0.0000 C   0  0  0  0  0  0  0  0  0  0  0  0
    6.3301   -1.7500    0.0000 C   0  0  0  0  0  0  0  0  0  0  0  0
    4.6141   -2.7915    0.0000 C   0  0  0  0  0  0  0  0  0  0  0  0
    2.8220   -1.7568    0.0000 C   0  0  0  0  0  0  0  0  0  0  0  0
    3.7161   -3.3193    0.0000 C   0  0  0  0  0  0  0  0  0  0  0  0
    2.8140   -2.7984    0.0000 C   0  0  0  0  0  0  0  0  0  0  0  0
    7.1962   -1.2500    0.0000 C   0  0  0  0  0  0  0  0  0  0  0  0
    6.3301   -2.7500    0.0000 C   0  0  0  0  0  0  0  0  0  0  0  0
    2.8660    1.2500    0.0000 C   0  0  0  0  0  0  0  0  0  0  0  0
    7.1962   -3.2500    0.0000 C   0  0  0  0  0  0  0  0  0  0  0  0
    8.0622   -1.7500    0.0000 C   0  0  0  0  0  0  0  0  0  0  0  0
    2.4683   -4.4389    0.0000 C   0  0  0  0  0  0  0  0  0  0  0  0
    8.0622   -2.7500    0.0000 C   0  0  0  0  0  0  0  0  0  0  0  0
    2.0000    1.7500    0.0000 C   0  0  0  0  0  0  0  0  0  0  0  0
    3.7320    1.7500    0.0000 C   0  0  0  0  0  0  0  0  0  0  0  0
    2.0000    2.7500    0.0000 C   0  0  0  0  0  0  0  0  0  0  0  0
    3.7320    2.7500    0.0000 C   0  0  0  0  0  0  0  0  0  0  0  0
    2.8660    3.2500    0.0000 C   0  0  0  0  0  0  0  0  0  0  0  0
    6.3301   -4.7500    0.0000 C   0  0  0  0  0  0  0  0  0  0  0  0
    9.7942   -1.7500    0.0000 C   0  0  0  0  0  0  0  0  0  0  0  0
    3.9111    0.7505    0.0000 H   0  0  0  0  0  0  0  0  0  0  0  0
    5.4641   -1.8700    0.0000 H   0  0  0  0  0  0  0  0  0  0  0  0
    3.7320    0.3700    0.0000 H   0  0  0  0  0  0  0  0  0  0  0  0
    4.8082    1.8418    0.0000 H   0  0  0  0  0  0  0  0  0  0  0  0
    4.1908    1.2879    0.0000 H   0  0  0  0  0  0  0  0  0  0  0  0
    2.3291   -0.0600    0.0000 H   0  0  0  0  0  0  0  0  0  0  0  0
    5.1546   -3.0953    0.0000 H   0  0  0  0  0  0  0  0  0  0  0  0
    2.2887   -1.4407    0.0000 H   0  0  0  0  0  0  0  0  0  0  0  0
    7.1962   -0.6300    0.0000 H   0  0  0  0  0  0  0  0  0  0  0  0
    5.7932   -3.0600    0.0000 H   0  0  0  0  0  0  0  0  0  0  0  0
    1.8787   -4.6306    0.0000 H   0  0  0  0  0  0  0  0  0  0  0  0
    2.5970   -5.0454    0.0000 H   0  0  0  0  0  0  0  0  0  0  0  0
    1.4631    1.4400    0.0000 H   0  0  0  0  0  0  0  0  0  0  0  0
    4.2690    1.4400    0.0000 H   0  0  0  0  0  0  0  0  0  0  0  0
    1.4631    3.0600    0.0000 H   0  0  0  0  0  0  0  0  0  0  0  0
    4.2690    3.0600    0.0000 H   0  0  0  0  0  0  0  0  0  0  0  0
    8.9282   -3.8700    0.0000 H   0  0  0  0  0  0  0  0  0  0  0  0
    6.0201   -4.2131    0.0000 H   0  0  0  0  0  0  0  0  0  0  0  0
    5.7932   -5.0600    0.0000 H   0  0  0  0  0  0  0  0  0  0  0  0
    6.6401   -5.2869    0.0000 H   0  0  0  0  0  0  0  0  0  0  0  0
    9.4842   -2.2869    0.0000 H   0  0  0  0  0  0  0  0  0  0  0  0
   10.3312   -2.0600    0.0000 H   0  0  0  0  0  0  0  0  0  0  0  0
   10.1042   -1.2131    0.0000 H   0  0  0  0  0  0  0  0  0  0  0  0
 14  1  1  1  0  0  0
  2 19  1  0  0  0  0
  2 20  1  0  0  0  0
  3 20  2  0  0  0  0
  4 24  1  0  0  0  0
  4 31  1  0  0  0  0
  5 25  1  0  0  0  0
  5 31  1  0  0  0  0
  6 29  1  0  0  0  0
  6 38  1  0  0  0  0
  7 30  1  0  0  0  0
  7 39  1  0  0  0  0
  8 32  1  0  0  0  0
  8 56  1  0  0  0  0
  9 12  1  0  0  0  0
 10 12  2  0  0  0  0
 16 11  1  1  0  0  0
 11 28  1  0  0  0  0
 11 45  1  0  0  0  0
 12 37  1  0  0  0  0
 13 14  1  0  0  0  0
 13 16  1  0  0  0  0
 13 19  1  0  0  0  0
 13 40  1  6  0  0  0
 14 15  1  0  0  0  0
 14 20  1  0  0  0  0
 15 17  1  0  0  0  0
 15 21  1  6  0  0  0
 15 41  1  0  0  0  0
 16 18  1  0  0  0  0
 16 42  1  0  0  0  0
 17 18  1  0  0  0  0
 17 22  2  0  0  0  0
 18 23  2  0  0  0  0
 19 43  1  0  0  0  0
 19 44  1  0  0  0  0
 21 26  2  0  0  0  0
 21 27  1  0  0  0  0
 22 24  1  0  0  0  0
 22 46  1  0  0  0  0
 23 25  1  0  0  0  0
 23 47  1  0  0  0  0
 24 25  2  0  0  0  0
 26 30  1  0  0  0  0
 26 48  1  0  0  0  0
 27 29  2  0  0  0  0
 27 49  1  0  0  0  0
 28 33  2  0  0  0  0
 28 34  1  0  0  0  0
 29 32  1  0  0  0  0
 30 32  2  0  0  0  0
 31 50  1  0  0  0  0
 31 51  1  0  0  0  0
 33 35  1  0  0  0  0
 33 52  1  0  0  0  0
 34 36  2  0  0  0  0
 34 53  1  0  0  0  0
 35 37  2  0  0  0  0
 35 54  1  0  0  0  0
 36 37  1  0  0  0  0
 36 55  1  0  0  0  0
 38 57  1  0  0  0  0
 38 58  1  0  0  0  0
 38 59  1  0  0  0  0
 39 60  1  0  0  0  0
 39 61  1  0  0  0  0
 39 62  1  0  0  0  0
M  CHG  2   9  -1  12   1
M  END
> <PUBCHEM_COMPOUND_CID>
512663
> <PUBCHEM_COMPOUND_CANONICALIZED>
1
> <PUBCHEM_CACTVS_COMPLEXITY>
915
> <PUBCHEM_CACTVS_HBOND_ACCEPTOR>
11
> <PUBCHEM_CACTVS_HBOND_DONOR>
2
> <PUBCHEM_CACTVS_ROTATABLE_BOND>
5
> <PUBCHEM_CACTVS_SUBSKEYS>
AAADceB7PQAAAAAAAAAAAAAAAAAAASJAAAAwYMGAAAAAAEjBUAAAHwAUCAAADSzhmAcyzoLQRgCJAiTSSwCCCAAhIgAoiIEO7IodJzLGsZumcCtn0BXP+Ae++P+OoACBCAAQQADQAQaQACSAAAAAAAAAAA==
> <PUBCHEM_IUPAC_OPENEYE_NAME>
(5R,5aS,8aS,9S)-5a-fluoro-5-(4-hydroxy-3,5-dimethoxy-phenyl)-9-(4-nitroanilino)-5,8,8a,9-tetrahydroisobenzofuro[5,6-f][1,3]benzodioxol-6-one
> <PUBCHEM_IUPAC_CAS_NAME>
(5R,5aS,8aS,9S)-5a-fluoro-5-(4-hydroxy-3,5-dimethoxyphenyl)-9-(4-nitroanilino)-5,8,8a,9-tetrahydroisobenzofuro[5,6-f][1,3]benzodioxol-6-one
> <PUBCHEM_IUPAC_NAME_MARKUP>
(5<I>R</I>,5<I>a</I><I>S</I>,8<I>a</I><I>S</I>,9<I>S</I>)-5<I>a</I>-fluoro-5-(4-hydroxy-3,5-dimethoxyphenyl)-9-(4-nitroanilino)-5,8,8<I>a</I>,9-tetrahydro-[2]benzofuro[5,6-f][1,3]benzodioxol-6-one
> <PUBCHEM_IUPAC_NAME>
(5R,5aS,8aS,9S)-5a-fluoro-5-(4-hydroxy-3,5-dimethoxyphenyl)-9-(4-nitroanilino)-5,8,8a,9-tetrahydro-[2]benzofuro[5,6-f][1,3]benzodioxol-6-one
> <PUBCHEM_IUPAC_SYSTEMATIC_NAME>
(5R,5aS,8aS,9S)-5-(3,5-dimethoxy-4-oxidanyl-phenyl)-5a-fluoranyl-9-[(4-nitrophenyl)amino]-5,8,8a,9-tetrahydro-[2]benzofuro[5,6-f][1,3]benzodioxol-6-one
> <PUBCHEM_IUPAC_TRADITIONAL_NAME>
(5R,5aS,8aS,9S)-5a-fluoro-5-(4-hydroxy-3,5-dimethoxy-phenyl)-9-(4-nitroanilino)-5,8,8a,9-tetrahydroisobenzofuro[5,6-f][1,3]benzodioxol-6-one
> <PUBCHEM_IUPAC_INCHI>
InChI=1S/C27H23FN2O9/c1-35-21-7-13(8-22(36-2)25(21)31)23-16-9-19-20(39-12-38-19)10-17(16)24(18-11-37-26(32)27(18,23)28)29-14-3-5-15(6-4-14)30(33)34/h3-10,18,23-24,29,31H,11-12H2,1-2H3/t18-,23-,24-,27-/m1/s1
> <PUBCHEM_IUPAC_INCHIKEY>
LLTQTWHMORBHBP-UKLCIFCESA-N
> <PUBCHEM_XLOGP3_AA>
4.3
> <PUBCHEM_EXACT_MASS>
538.13875848
> <PUBCHEM_MOLECULAR_FORMULA>
C27H23FN2O9
> <PUBCHEM_MOLECULAR_WEIGHT>
538.5
> <PUBCHEM_OPENEYE_CAN_SMILES>
COC1=CC(=CC(=C1O)OC)C2C3=CC4=C(C=C3C(C5C2(C(=O)OC5)F)NC6=CC=C(C=C6)[N+](=O)[O-])OCO4
> <PUBCHEM_OPENEYE_ISO_SMILES>
COC1=CC(=CC(=C1O)OC)[C@@H]2C3=CC4=C(C=C3[C@H]([C@@H]5[C@@]2(C(=O)OC5)F)NC6=CC=C(C=C6)[N+](=O)[O-])OCO4
> <PUBCHEM_CACTVS_TPSA>
141
> <PUBCHEM_MONOISOTOPIC_WEIGHT>
538.13875848
> <PUBCHEM_TOTAL_CHARGE>
0
> <PUBCHEM_HEAVY_ATOM_COUNT>
39
> <PUBCHEM_ATOM_DEF_STEREO_COUNT>
4
> <PUBCHEM_ATOM_UDEF_STEREO_COUNT>
0
> <PUBCHEM_BOND_DEF_STEREO_COUNT>
0
> <PUBCHEM_BOND_UDEF_STEREO_COUNT>
0
> <PUBCHEM_ISOTOPIC_ATOM_COUNT>
0
> <PUBCHEM_COMPONENT_COUNT>
1
> <PUBCHEM_CACTVS_TAUTO_COUNT>
-1
> <PUBCHEM_COORDINATE_TYPE>
1
5
255
> <PUBCHEM_BONDANNOTATIONS>
14  1  5
16  11  5
13  40  6
15  21  6
17  18  8
17  22  8
18  23  8
21  26  8
21  27  8
22  24  8
23  25  8
24  25  8
26  30  8
27  29  8
28  33  8
28  34  8
29  32  8
30  32  8
33  35  8
34  36  8
35  37  8
36  37  8
$$$$
