512661
  -OEChem-10302200282D
 62 67  0     1  0  0  0  0  0999 V2000
    6.3301   -0.6550    0.0000 F   0  0  0  0  0  0  0  0  0  0  0  0
    5.7960    1.4199    0.0000 O   0  0  0  0  0  0  0  0  0  0  0  0
    7.1796    0.3059    0.0000 O   0  0  0  0  0  0  0  0  0  0  0  0
    3.4982   -4.2365    0.0000 O   0  0  0  0  0  0  0  0  0  0  0  0
    2.0463   -3.3983    0.0000 O   0  0  0  0  0  0  0  0  0  0  0  0
    7.1962   -4.1550    0.0000 O   0  0  0  0  0  0  0  0  0  0  0  0
    8.9282   -1.1550    0.0000 O   0  0  0  0  0  0  0  0  0  0  0  0
    8.9282   -3.1550    0.0000 O   0  0  0  0  0  0  0  0  0  0  0  0
    2.8660    0.3450    0.0000 N   0  0  0  0  0  0  0  0  0  0  0  0
    2.8660    4.3450    0.0000 N   0  0  0  0  0  0  0  0  0  0  0  0
    4.5981    0.3450    0.0000 C   0  0  1  0  0  0  0  0  0  0  0  0
    5.4641   -0.1550    0.0000 C   0  0  2  0  0  0  0  0  0  0  0  0
    5.4641   -1.1550    0.0000 C   0  0  1  0  0  0  0  0  0  0  0  0
    3.7320   -0.1550    0.0000 C   0  0  1  0  0  0  0  0  0  0  0  0
    4.5981   -1.6550    0.0000 C   0  0  0  0  0  0  0  0  0  0  0  0
    3.7320   -1.1550    0.0000 C   0  0  0  0  0  0  0  0  0  0  0  0
    4.8073    1.3168    0.0000 C   0  0  0  0  0  0  0  0  0  0  0  0
    6.2011    0.5121    0.0000 C   0  0  0  0  0  0  0  0  0  0  0  0
    6.3301   -1.6550    0.0000 C   0  0  0  0  0  0  0  0  0  0  0  0
    4.6141   -2.6965    0.0000 C   0  0  0  0  0  0  0  0  0  0  0  0
    2.8220   -1.6618    0.0000 C   0  0  0  0  0  0  0  0  0  0  0  0
    3.7161   -3.2243    0.0000 C   0  0  0  0  0  0  0  0  0  0  0  0
    2.8140   -2.7034    0.0000 C   0  0  0  0  0  0  0  0  0  0  0  0
    7.1962   -1.1550    0.0000 C   0  0  0  0  0  0  0  0  0  0  0  0
    6.3301   -2.6550    0.0000 C   0  0  0  0  0  0  0  0  0  0  0  0
    2.8660    1.3450    0.0000 C   0  0  0  0  0  0  0  0  0  0  0  0
    7.1962   -3.1550    0.0000 C   0  0  0  0  0  0  0  0  0  0  0  0
    8.0622   -1.6550    0.0000 C   0  0  0  0  0  0  0  0  0  0  0  0
    2.4683   -4.3439    0.0000 C   0  0  0  0  0  0  0  0  0  0  0  0
    8.0622   -2.6550    0.0000 C   0  0  0  0  0  0  0  0  0  0  0  0
    3.7320    1.8450    0.0000 C   0  0  0  0  0  0  0  0  0  0  0  0
    2.0000    1.8450    0.0000 C   0  0  0  0  0  0  0  0  0  0  0  0
    3.7320    2.8450    0.0000 C   0  0  0  0  0  0  0  0  0  0  0  0
    2.0000    2.8450    0.0000 C   0  0  0  0  0  0  0  0  0  0  0  0
    2.8660    3.3450    0.0000 C   0  0  0  0  0  0  0  0  0  0  0  0
    6.3301   -4.6550    0.0000 C   0  0  0  0  0  0  0  0  0  0  0  0
    9.7942   -1.6550    0.0000 C   0  0  0  0  0  0  0  0  0  0  0  0
    3.9111    0.8455    0.0000 H   0  0  0  0  0  0  0  0  0  0  0  0
    5.4641   -1.7750    0.0000 H   0  0  0  0  0  0  0  0  0  0  0  0
    3.7320    0.4650    0.0000 H   0  0  0  0  0  0  0  0  0  0  0  0
    4.8082    1.9368    0.0000 H   0  0  0  0  0  0  0  0  0  0  0  0
    4.1908    1.3829    0.0000 H   0  0  0  0  0  0  0  0  0  0  0  0
    2.3291    0.0350    0.0000 H   0  0  0  0  0  0  0  0  0  0  0  0
    5.1546   -3.0003    0.0000 H   0  0  0  0  0  0  0  0  0  0  0  0
    2.2887   -1.3457    0.0000 H   0  0  0  0  0  0  0  0  0  0  0  0
    7.1962   -0.5350    0.0000 H   0  0  0  0  0  0  0  0  0  0  0  0
    5.7932   -2.9650    0.0000 H   0  0  0  0  0  0  0  0  0  0  0  0
    1.8787   -4.5356    0.0000 H   0  0  0  0  0  0  0  0  0  0  0  0
    2.5970   -4.9504    0.0000 H   0  0  0  0  0  0  0  0  0  0  0  0
    4.2690    1.5350    0.0000 H   0  0  0  0  0  0  0  0  0  0  0  0
    1.4631    1.5350    0.0000 H   0  0  0  0  0  0  0  0  0  0  0  0
    4.2690    3.1550    0.0000 H   0  0  0  0  0  0  0  0  0  0  0  0
    1.4631    3.1550    0.0000 H   0  0  0  0  0  0  0  0  0  0  0  0
    8.9282   -3.7750    0.0000 H   0  0  0  0  0  0  0  0  0  0  0  0
    6.0201   -4.1181    0.0000 H   0  0  0  0  0  0  0  0  0  0  0  0
    5.7932   -4.9650    0.0000 H   0  0  0  0  0  0  0  0  0  0  0  0
    6.6401   -5.1919    0.0000 H   0  0  0  0  0  0  0  0  0  0  0  0
    9.4842   -2.1919    0.0000 H   0  0  0  0  0  0  0  0  0  0  0  0
   10.3312   -1.9650    0.0000 H   0  0  0  0  0  0  0  0  0  0  0  0
   10.1042   -1.1181    0.0000 H   0  0  0  0  0  0  0  0  0  0  0  0
    2.3291    4.6550    0.0000 H   0  0  0  0  0  0  0  0  0  0  0  0
    3.4030    4.6550    0.0000 H   0  0  0  0  0  0  0  0  0  0  0  0
 12  1  1  1  0  0  0
  2 17  1  0  0  0  0
  2 18  1  0  0  0  0
  3 18  2  0  0  0  0
  4 22  1  0  0  0  0
  4 29  1  0  0  0  0
  5 23  1  0  0  0  0
  5 29  1  0  0  0  0
  6 27  1  0  0  0  0
  6 36  1  0  0  0  0
  7 28  1  0  0  0  0
  7 37  1  0  0  0  0
  8 30  1  0  0  0  0
  8 54  1  0  0  0  0
 14  9  1  1  0  0  0
  9 26  1  0  0  0  0
  9 43  1  0  0  0  0
 10 35  1  0  0  0  0
 10 61  1  0  0  0  0
 10 62  1  0  0  0  0
 11 12  1  0  0  0  0
 11 14  1  0  0  0  0
 11 17  1  0  0  0  0
 11 38  1  6  0  0  0
 12 13  1  0  0  0  0
 12 18  1  0  0  0  0
 13 15  1  0  0  0  0
 13 19  1  6  0  0  0
 13 39  1  0  0  0  0
 14 16  1  0  0  0  0
 14 40  1  0  0  0  0
 15 16  1  0  0  0  0
 15 20  2  0  0  0  0
 16 21  2  0  0  0  0
 17 41  1  0  0  0  0
 17 42  1  0  0  0  0
 19 24  2  0  0  0  0
 19 25  1  0  0  0  0
 20 22  1  0  0  0  0
 20 44  1  0  0  0  0
 21 23  1  0  0  0  0
 21 45  1  0  0  0  0
 22 23  2  0  0  0  0
 24 28  1  0  0  0  0
 24 46  1  0  0  0  0
 25 27  2  0  0  0  0
 25 47  1  0  0  0  0
 26 31  2  0  0  0  0
 26 32  1  0  0  0  0
 27 30  1  0  0  0  0
 28 30  2  0  0  0  0
 29 48  1  0  0  0  0
 29 49  1  0  0  0  0
 31 33  1  0  0  0  0
 31 50  1  0  0  0  0
 32 34  2  0  0  0  0
 32 51  1  0  0  0  0
 33 35  2  0  0  0  0
 33 52  1  0  0  0  0
 34 35  1  0  0  0  0
 34 53  1  0  0  0  0
 36 55  1  0  0  0  0
 36 56  1  0  0  0  0
 36 57  1  0  0  0  0
 37 58  1  0  0  0  0
 37 59  1  0  0  0  0
 37 60  1  0  0  0  0
M  END
> <PUBCHEM_COMPOUND_CID>
512661
> <PUBCHEM_COMPOUND_CANONICALIZED>
1
> <PUBCHEM_CACTVS_COMPLEXITY>
830
> <PUBCHEM_CACTVS_HBOND_ACCEPTOR>
10
> <PUBCHEM_CACTVS_HBOND_DONOR>
3
> <PUBCHEM_CACTVS_ROTATABLE_BOND>
5
> <PUBCHEM_CACTVS_SUBSKEYS>
AAADceB7OQAAAAAAAAAAAAAAAAAAASJAAAAwYMGAAAAAAEjBUAAAHwAQCAAADSzhmAcyzoLABgCIAiTSSACCCAAhIgAIiIEO7IgdJzLGsZumcCtn0BXP+Ae++P+OoACBCAAQQADQAQaQACSAAAAAAAAAAA==
> <PUBCHEM_IUPAC_OPENEYE_NAME>
(5R,5aS,8aS,9S)-9-(4-aminoanilino)-5a-fluoro-5-(4-hydroxy-3,5-dimethoxy-phenyl)-5,8,8a,9-tetrahydroisobenzofuro[5,6-f][1,3]benzodioxol-6-one
> <PUBCHEM_IUPAC_CAS_NAME>
(5R,5aS,8aS,9S)-9-(4-aminoanilino)-5a-fluoro-5-(4-hydroxy-3,5-dimethoxyphenyl)-5,8,8a,9-tetrahydroisobenzofuro[5,6-f][1,3]benzodioxol-6-one
> <PUBCHEM_IUPAC_NAME_MARKUP>
(5<I>R</I>,5<I>a</I><I>S</I>,8<I>a</I><I>S</I>,9<I>S</I>)-9-(4-aminoanilino)-5<I>a</I>-fluoro-5-(4-hydroxy-3,5-dimethoxyphenyl)-5,8,8<I>a</I>,9-tetrahydro-[2]benzofuro[5,6-f][1,3]benzodioxol-6-one
> <PUBCHEM_IUPAC_NAME>
(5R,5aS,8aS,9S)-9-(4-aminoanilino)-5a-fluoro-5-(4-hydroxy-3,5-dimethoxyphenyl)-5,8,8a,9-tetrahydro-[2]benzofuro[5,6-f][1,3]benzodioxol-6-one
> <PUBCHEM_IUPAC_SYSTEMATIC_NAME>
(5R,5aS,8aS,9S)-9-[(4-aminophenyl)amino]-5-(3,5-dimethoxy-4-oxidanyl-phenyl)-5a-fluoranyl-5,8,8a,9-tetrahydro-[2]benzofuro[5,6-f][1,3]benzodioxol-6-one
> <PUBCHEM_IUPAC_TRADITIONAL_NAME>
(5R,5aS,8aS,9S)-9-(4-aminoanilino)-5a-fluoro-5-(4-hydroxy-3,5-dimethoxy-phenyl)-5,8,8a,9-tetrahydroisobenzofuro[5,6-f][1,3]benzodioxol-6-one
> <PUBCHEM_IUPAC_INCHI>
InChI=1S/C27H25FN2O7/c1-33-21-7-13(8-22(34-2)25(21)31)23-16-9-19-20(37-12-36-19)10-17(16)24(18-11-35-26(32)27(18,23)28)30-15-5-3-14(29)4-6-15/h3-10,18,23-24,30-31H,11-12,29H2,1-2H3/t18-,23-,24-,27-/m1/s1
> <PUBCHEM_IUPAC_INCHIKEY>
HIKKLXZJSMMMKP-UKLCIFCESA-N
> <PUBCHEM_XLOGP3_AA>
3.8
> <PUBCHEM_EXACT_MASS>
508.16457930
> <PUBCHEM_MOLECULAR_FORMULA>
C27H25FN2O7
> <PUBCHEM_MOLECULAR_WEIGHT>
508.5
> <PUBCHEM_OPENEYE_CAN_SMILES>
COC1=CC(=CC(=C1O)OC)C2C3=CC4=C(C=C3C(C5C2(C(=O)OC5)F)NC6=CC=C(C=C6)N)OCO4
> <PUBCHEM_OPENEYE_ISO_SMILES>
COC1=CC(=CC(=C1O)OC)[C@@H]2C3=CC4=C(C=C3[C@H]([C@@H]5[C@@]2(C(=O)OC5)F)NC6=CC=C(C=C6)N)OCO4
> <PUBCHEM_CACTVS_TPSA>
122
> <PUBCHEM_MONOISOTOPIC_WEIGHT>
508.16457930
> <PUBCHEM_TOTAL_CHARGE>
0
> <PUBCHEM_HEAVY_ATOM_COUNT>
37
> <PUBCHEM_ATOM_DEF_STEREO_COUNT>
4
> <PUBCHEM_ATOM_UDEF_STEREO_COUNT>
0
> <PUBCHEM_BOND_DEF_STEREO_COUNT>
0
> <PUBCHEM_BOND_UDEF_STEREO_COUNT>
0
> <PUBCHEM_ISOTOPIC_ATOM_COUNT>
0
> <PUBCHEM_COMPONENT_COUNT>
1
> <PUBCHEM_CACTVS_TAUTO_COUNT>
-1
> <PUBCHEM_COORDINATE_TYPE>
1
5
255
> <PUBCHEM_BONDANNOTATIONS>
12  1  5
11  38  6
13  19  6
15  16  8
15  20  8
16  21  8
19  24  8
19  25  8
20  22  8
21  23  8
22  23  8
24  28  8
25  27  8
26  31  8
26  32  8
27  30  8
28  30  8
31  33  8
32  34  8
33  35  8
34  35  8
14  9  5
$$$$
