512699
  -OEChem-10302200282D
 52 54  0     1  0  0  0  0  0999 V2000
    5.3548   -0.7771    0.0000 S   0  0  0  0  0  0  0  0  0  0  0  0
    7.1143   -6.5998    0.0000 F   0  0  0  0  0  0  0  0  0  0  0  0
    5.7019   -6.5282    0.0000 F   0  0  0  0  0  0  0  0  0  0  0  0
    7.1859   -5.1874    0.0000 F   0  0  0  0  0  0  0  0  0  0  0  0
    4.4026    1.7245    0.0000 O   0  0  0  0  0  0  0  0  0  0  0  0
    6.7485    2.8164    0.0000 O   0  0  0  0  0  0  0  0  0  0  0  0
    6.7523    0.6408    0.0000 O   0  0  0  0  0  0  0  0  0  0  0  0
    4.1253   -4.5834    0.0000 O   0  0  0  0  0  0  0  0  0  0  0  0
    3.7622   -2.8899    0.0000 O   0  0  0  0  0  0  0  0  0  0  0  0
    4.7957   -5.3254    0.0000 O   0  0  0  0  0  0  0  0  0  0  0  0
    4.6783    3.4850    0.0000 N   0  0  0  0  0  0  0  0  0  0  0  0
    2.8660    3.2898    0.0000 N   0  0  0  0  0  0  0  0  0  0  0  0
    2.0000    4.7898    0.0000 N   0  0  0  0  0  0  0  0  0  0  0  0
    6.0809   -4.1642    0.0000 N   0  0  0  0  0  0  0  0  0  0  0  0
    2.8660    6.2898    0.0000 N   0  0  0  0  0  0  0  0  0  0  0  0
    5.9405    2.2272    0.0000 C   0  0  2  0  0  0  0  0  0  0  0  0
    5.9422    1.2272    0.0000 C   0  0  1  0  0  0  0  0  0  0  0  0
    4.9889    2.5345    0.0000 C   0  0  1  0  0  0  0  0  0  0  0  0
    4.9917    0.9165    0.0000 C   0  0  1  0  0  0  0  0  0  0  0  0
    4.6844   -0.0351    0.0000 C   0  0  0  0  0  0  0  0  0  0  0  0
    3.7320    3.7898    0.0000 C   0  0  0  0  0  0  0  0  0  0  0  0
    5.2619    4.2898    0.0000 C   0  0  0  0  0  0  0  0  0  0  0  0
    3.7320    4.7898    0.0000 C   0  0  0  0  0  0  0  0  0  0  0  0
    4.6783    5.0945    0.0000 C   0  0  0  0  0  0  0  0  0  0  0  0
    5.0474   -1.7287    0.0000 C   0  0  0  0  0  0  0  0  0  0  0  0
    5.7178   -2.4706    0.0000 C   0  0  0  0  0  0  0  0  0  0  0  0
    2.8660    5.2898    0.0000 C   0  0  0  0  0  0  0  0  0  0  0  0
    5.4104   -3.4222    0.0000 C   0  0  3  0  0  0  0  0  0  0  0  0
    2.0000    3.7898    0.0000 C   0  0  0  0  0  0  0  0  0  0  0  0
    4.4327   -3.6318    0.0000 C   0  0  0  0  0  0  0  0  0  0  0  0
    5.7735   -5.1158    0.0000 C   0  0  0  0  0  0  0  0  0  0  0  0
    6.4439   -5.8578    0.0000 C   0  0  0  0  0  0  0  0  0  0  0  0
    6.4934    1.9466    0.0000 H   0  0  0  0  0  0  0  0  0  0  0  0
    6.4942    1.5096    0.0000 H   0  0  0  0  0  0  0  0  0  0  0  0
    5.4266    2.9737    0.0000 H   0  0  0  0  0  0  0  0  0  0  0  0
    4.3795    0.8185    0.0000 H   0  0  0  0  0  0  0  0  0  0  0  0
    4.1364    0.2550    0.0000 H   0  0  0  0  0  0  0  0  0  0  0  0
    4.3035   -0.5243    0.0000 H   0  0  0  0  0  0  0  0  0  0  0  0
    7.3154    2.5652    0.0000 H   0  0  0  0  0  0  0  0  0  0  0  0
    7.3182    0.8939    0.0000 H   0  0  0  0  0  0  0  0  0  0  0  0
    5.8819    4.2898    0.0000 H   0  0  0  0  0  0  0  0  0  0  0  0
    4.8709    5.6838    0.0000 H   0  0  0  0  0  0  0  0  0  0  0  0
    4.4995   -1.4385    0.0000 H   0  0  0  0  0  0  0  0  0  0  0  0
    4.6665   -2.2179    0.0000 H   0  0  0  0  0  0  0  0  0  0  0  0
    6.2658   -2.7608    0.0000 H   0  0  0  0  0  0  0  0  0  0  0  0
    6.0987   -1.9814    0.0000 H   0  0  0  0  0  0  0  0  0  0  0  0
    5.2199   -4.0122    0.0000 H   0  0  0  0  0  0  0  0  0  0  0  0
    1.4631    3.4798    0.0000 H   0  0  0  0  0  0  0  0  0  0  0  0
    6.6871   -4.0343    0.0000 H   0  0  0  0  0  0  0  0  0  0  0  0
    2.3291    6.5998    0.0000 H   0  0  0  0  0  0  0  0  0  0  0  0
    3.4030    6.5998    0.0000 H   0  0  0  0  0  0  0  0  0  0  0  0
    3.5191   -4.7134    0.0000 H   0  0  0  0  0  0  0  0  0  0  0  0
  1 20  1  0  0  0  0
  1 25  1  0  0  0  0
  2 32  1  0  0  0  0
  3 32  1  0  0  0  0
  4 32  1  0  0  0  0
  5 18  1  0  0  0  0
  5 19  1  0  0  0  0
 16  6  1  6  0  0  0
  6 39  1  0  0  0  0
 17  7  1  6  0  0  0
  7 40  1  0  0  0  0
  8 30  1  0  0  0  0
  8 52  1  0  0  0  0
  9 30  2  0  0  0  0
 10 31  2  0  0  0  0
 18 11  1  1  0  0  0
 11 21  1  0  0  0  0
 11 22  1  0  0  0  0
 12 21  2  0  0  0  0
 12 29  1  0  0  0  0
 13 27  1  0  0  0  0
 13 29  2  0  0  0  0
 14 28  1  0  0  0  0
 14 31  1  0  0  0  0
 14 49  1  0  0  0  0
 15 27  1  0  0  0  0
 15 50  1  0  0  0  0
 15 51  1  0  0  0  0
 16 17  1  0  0  0  0
 16 18  1  0  0  0  0
 16 33  1  0  0  0  0
 17 19  1  0  0  0  0
 17 34  1  0  0  0  0
 18 35  1  0  0  0  0
 19 20  1  1  0  0  0
 19 36  1  0  0  0  0
 20 37  1  0  0  0  0
 20 38  1  0  0  0  0
 21 23  1  0  0  0  0
 22 24  2  0  0  0  0
 22 41  1  0  0  0  0
 23 24  1  0  0  0  0
 23 27  2  0  0  0  0
 24 42  1  0  0  0  0
 25 26  1  0  0  0  0
 25 43  1  0  0  0  0
 25 44  1  0  0  0  0
 26 28  1  0  0  0  0
 26 45  1  0  0  0  0
 26 46  1  0  0  0  0
 28 30  1  0  0  0  0
 28 47  1  0  0  0  0
 29 48  1  0  0  0  0
 31 32  1  0  0  0  0
M  END
> <PUBCHEM_COMPOUND_CID>
512699
> <PUBCHEM_COMPOUND_CANONICALIZED>
1
> <PUBCHEM_CACTVS_COMPLEXITY>
692
> <PUBCHEM_CACTVS_HBOND_ACCEPTOR>
13
> <PUBCHEM_CACTVS_HBOND_DONOR>
5
> <PUBCHEM_CACTVS_ROTATABLE_BOND>
8
> <PUBCHEM_CACTVS_SUBSKEYS>
AAADceB7uYBAAAAAAAAAAAAAAAAAAWJAAAAsAAAAAAAAAFgB+AAAHwQQCAAADDzl2xa9uN/MFgioAjP3fACCgCkxArAJ2KG4ZJiLONJgyOEORAhPFgLzQCCwAAAIAAAAAAAAAAAAAAAAAAAAAAAAAAAAAA==
> <PUBCHEM_IUPAC_OPENEYE_NAME>
4-[[(2S,3S,4R,5R)-5-(4-aminopyrrolo[2,3-d]pyrimidin-7-yl)-3,4-dihydroxy-tetrahydrofuran-2-yl]methylsulfanyl]-2-[(2,2,2-trifluoroacetyl)amino]butanoic acid
> <PUBCHEM_IUPAC_CAS_NAME>
4-[[(2S,3S,4R,5R)-5-(4-amino-7-pyrrolo[2,3-d]pyrimidinyl)-3,4-dihydroxy-2-oxolanyl]methylthio]-2-[(2,2,2-trifluoro-1-oxoethyl)amino]butanoic acid
> <PUBCHEM_IUPAC_NAME_MARKUP>
4-[[(2<I>S</I>,3<I>S</I>,4<I>R</I>,5<I>R</I>)-5-(4-aminopyrrolo[2,3-d]pyrimidin-7-yl)-3,4-dihydroxyoxolan-2-yl]methylsulfanyl]-2-[(2,2,2-trifluoroacetyl)amino]butanoic acid
> <PUBCHEM_IUPAC_NAME>
4-[[(2S,3S,4R,5R)-5-(4-aminopyrrolo[2,3-d]pyrimidin-7-yl)-3,4-dihydroxyoxolan-2-yl]methylsulfanyl]-2-[(2,2,2-trifluoroacetyl)amino]butanoic acid
> <PUBCHEM_IUPAC_SYSTEMATIC_NAME>
4-[[(2S,3S,4R,5R)-5-(4-azanylpyrrolo[2,3-d]pyrimidin-7-yl)-3,4-bis(oxidanyl)oxolan-2-yl]methylsulfanyl]-2-[2,2,2-tris(fluoranyl)ethanoylamino]butanoic acid
> <PUBCHEM_IUPAC_TRADITIONAL_NAME>
4-[[(2S,3S,4R,5R)-5-(4-aminopyrrolo[2,3-d]pyrimidin-7-yl)-3,4-dihydroxy-tetrahydrofuran-2-yl]methylthio]-2-[(2,2,2-trifluoroacetyl)amino]butyric acid
> <PUBCHEM_IUPAC_INCHI>
InChI=1S/C17H20F3N5O6S/c18-17(19,20)16(30)24-8(15(28)29)2-4-32-5-9-10(26)11(27)14(31-9)25-3-1-7-12(21)22-6-23-13(7)25/h1,3,6,8-11,14,26-27H,2,4-5H2,(H,24,30)(H,28,29)(H2,21,22,23)/t8?,9-,10-,11-,14-/m1/s1
> <PUBCHEM_IUPAC_INCHIKEY>
IMVKDOCAHHHTMA-LIUBQLNZSA-N
> <PUBCHEM_XLOGP3_AA>
-0.1
> <PUBCHEM_EXACT_MASS>
479.10863903
> <PUBCHEM_MOLECULAR_FORMULA>
C17H20F3N5O6S
> <PUBCHEM_MOLECULAR_WEIGHT>
479.4
> <PUBCHEM_OPENEYE_CAN_SMILES>
C1=CN(C2=NC=NC(=C21)N)C3C(C(C(O3)CSCCC(C(=O)O)NC(=O)C(F)(F)F)O)O
> <PUBCHEM_OPENEYE_ISO_SMILES>
C1=CN(C2=NC=NC(=C21)N)[C@H]3[C@@H]([C@@H]([C@H](O3)CSCCC(C(=O)O)NC(=O)C(F)(F)F)O)O
> <PUBCHEM_CACTVS_TPSA>
198
> <PUBCHEM_MONOISOTOPIC_WEIGHT>
479.10863903
> <PUBCHEM_TOTAL_CHARGE>
0
> <PUBCHEM_HEAVY_ATOM_COUNT>
32
> <PUBCHEM_ATOM_DEF_STEREO_COUNT>
4
> <PUBCHEM_ATOM_UDEF_STEREO_COUNT>
1
> <PUBCHEM_BOND_DEF_STEREO_COUNT>
0
> <PUBCHEM_BOND_UDEF_STEREO_COUNT>
0
> <PUBCHEM_ISOTOPIC_ATOM_COUNT>
0
> <PUBCHEM_COMPONENT_COUNT>
1
> <PUBCHEM_CACTVS_TAUTO_COUNT>
-1
> <PUBCHEM_COORDINATE_TYPE>
1
5
255
> <PUBCHEM_BONDANNOTATIONS>
18  11  5
11  21  8
11  22  8
12  21  8
12  29  8
13  27  8
13  29  8
19  20  5
21  23  8
22  24  8
23  24  8
23  27  8
28  26  3
16  6  6
17  7  6
$$$$
