512786
  -OEChem-10302200282D
 59 61  0     1  0  0  0  0  0999 V2000
    5.2189    0.0000    0.0000 Cl  0  0  0  0  0  0  0  0  0  0  0  0
    6.6651    3.4921    0.0000 F   0  0  0  0  0  0  0  0  0  0  0  0
    3.1350    2.5163    0.0000 O   0  0  0  0  0  0  0  0  0  0  0  0
    0.5369    4.0163    0.0000 O   0  0  0  0  0  0  0  0  0  0  0  0
    1.4030    2.5163    0.0000 O   0  0  0  0  0  0  0  0  0  0  0  0
    6.6651    5.5404    0.0000 N   0  0  3  0  0  0  0  0  0  0  0  0
    4.0010    4.0163    0.0000 N   0  0  0  0  0  0  0  0  0  0  0  0
    9.8261    6.5935    0.0000 N   0  0  0  0  0  0  0  0  0  0  0  0
    3.1350    6.5163    0.0000 C   0  0  0  0  0  0  0  0  0  0  0  0
    8.2465    5.8829    0.0000 C   0  0  1  0  0  0  0  0  0  0  0  0
    3.6350    7.3823    0.0000 C   0  0  0  0  0  0  0  0  0  0  0  0
    2.6350    7.3823    0.0000 C   0  0  0  0  0  0  0  0  0  0  0  0
    7.5802    5.1372    0.0000 C   0  0  0  0  0  0  0  0  0  0  0  0
    7.7432    6.7470    0.0000 C   0  0  0  0  0  0  0  0  0  0  0  0
    9.2414    5.7822    0.0000 C   0  0  2  0  0  0  0  0  0  0  0  0
    6.7658    6.5353    0.0000 C   0  0  0  0  0  0  0  0  0  0  0  0
    3.1350    5.5163    0.0000 C   0  0  0  0  0  0  0  0  0  0  0  0
    5.8010    5.0371    0.0000 C   0  0  0  0  0  0  0  0  0  0  0  0
    4.0010    5.0163    0.0000 C   0  0  0  0  0  0  0  0  0  0  0  0
    4.8950    5.5509    0.0000 C   0  0  0  0  0  0  0  0  0  0  0  0
    9.6517    4.8703    0.0000 C   0  0  0  0  0  0  0  0  0  0  0  0
    2.2690    5.0163    0.0000 C   0  0  0  0  0  0  0  0  0  0  0  0
    5.8010    3.9954    0.0000 C   0  0  0  0  0  0  0  0  0  0  0  0
    4.8950    3.4816    0.0000 C   0  0  0  0  0  0  0  0  0  0  0  0
    2.2690    4.0163    0.0000 C   0  0  0  0  0  0  0  0  0  0  0  0
    4.8834    6.5509    0.0000 C   0  0  0  0  0  0  0  0  0  0  0  0
    3.1350    3.5163    0.0000 C   0  0  0  0  0  0  0  0  0  0  0  0
   10.6466    4.7696    0.0000 C   0  0  0  0  0  0  0  0  0  0  0  0
   10.8210    6.4928    0.0000 C   0  0  0  0  0  0  0  0  0  0  0  0
    1.4030    3.5163    0.0000 C   0  0  0  0  0  0  0  0  0  0  0  0
    2.5361    6.3558    0.0000 H   0  0  0  0  0  0  0  0  0  0  0  0
    8.7067    6.5976    0.0000 H   0  0  0  0  0  0  0  0  0  0  0  0
    4.2176    7.1702    0.0000 H   0  0  0  0  0  0  0  0  0  0  0  0
    3.7427    7.9929    0.0000 H   0  0  0  0  0  0  0  0  0  0  0  0
    2.5274    7.9929    0.0000 H   0  0  0  0  0  0  0  0  0  0  0  0
    2.0524    7.1702    0.0000 H   0  0  0  0  0  0  0  0  0  0  0  0
    7.2723    4.5991    0.0000 H   0  0  0  0  0  0  0  0  0  0  0  0
    8.0832    4.7747    0.0000 H   0  0  0  0  0  0  0  0  0  0  0  0
    8.3086    7.0014    0.0000 H   0  0  0  0  0  0  0  0  0  0  0  0
    7.5493    7.3359    0.0000 H   0  0  0  0  0  0  0  0  0  0  0  0
    8.9871    6.3476    0.0000 H   0  0  0  0  0  0  0  0  0  0  0  0
    6.6986    7.1517    0.0000 H   0  0  0  0  0  0  0  0  0  0  0  0
    6.1458    6.5329    0.0000 H   0  0  0  0  0  0  0  0  0  0  0  0
    9.0507    4.7179    0.0000 H   0  0  0  0  0  0  0  0  0  0  0  0
    9.6973    4.2519    0.0000 H   0  0  0  0  0  0  0  0  0  0  0  0
    1.7320    5.3263    0.0000 H   0  0  0  0  0  0  0  0  0  0  0  0
    9.5717    7.1589    0.0000 H   0  0  0  0  0  0  0  0  0  0  0  0
    4.8878    2.8616    0.0000 H   0  0  0  0  0  0  0  0  0  0  0  0
    5.5034    6.5580    0.0000 H   0  0  0  0  0  0  0  0  0  0  0  0
    4.8762    7.1708    0.0000 H   0  0  0  0  0  0  0  0  0  0  0  0
    4.2635    6.5437    0.0000 H   0  0  0  0  0  0  0  0  0  0  0  0
   10.5842    4.1527    0.0000 H   0  0  0  0  0  0  0  0  0  0  0  0
   11.2634    4.7071    0.0000 H   0  0  0  0  0  0  0  0  0  0  0  0
   10.7090    5.3864    0.0000 H   0  0  0  0  0  0  0  0  0  0  0  0
   10.7586    5.8760    0.0000 H   0  0  0  0  0  0  0  0  0  0  0  0
   11.4379    6.4304    0.0000 H   0  0  0  0  0  0  0  0  0  0  0  0
   10.8834    7.1096    0.0000 H   0  0  0  0  0  0  0  0  0  0  0  0
    0.0000    3.7063    0.0000 H   0  0  0  0  0  0  0  0  0  0  0  0
    6.2189    0.0000    0.0000 H   0  0  0  0  0  0  0  0  0  0  0  0
  1 59  1  0  0  0  0
  2 23  1  0  0  0  0
  3 27  2  0  0  0  0
  4 30  1  0  0  0  0
  4 58  1  0  0  0  0
  5 30  2  0  0  0  0
  6 13  1  0  0  0  0
  6 16  1  0  0  0  0
  6 18  1  0  0  0  0
  7 19  1  0  0  0  0
  7 24  1  0  0  0  0
  7 27  1  0  0  0  0
 15  8  1  1  0  0  0
  8 29  1  0  0  0  0
  8 47  1  0  0  0  0
  9 11  1  0  0  0  0
  9 12  1  0  0  0  0
  9 17  1  0  0  0  0
  9 31  1  0  0  0  0
 10 13  1  0  0  0  0
 10 14  1  0  0  0  0
 10 15  1  0  0  0  0
 10 32  1  6  0  0  0
 11 12  1  0  0  0  0
 11 33  1  0  0  0  0
 11 34  1  0  0  0  0
 12 35  1  0  0  0  0
 12 36  1  0  0  0  0
 13 37  1  0  0  0  0
 13 38  1  0  0  0  0
 14 16  1  0  0  0  0
 14 39  1  0  0  0  0
 14 40  1  0  0  0  0
 15 21  1  0  0  0  0
 15 41  1  0  0  0  0
 16 42  1  0  0  0  0
 16 43  1  0  0  0  0
 17 19  2  0  0  0  0
 17 22  1  0  0  0  0
 18 20  2  0  0  0  0
 18 23  1  0  0  0  0
 19 20  1  0  0  0  0
 20 26  1  0  0  0  0
 21 28  1  0  0  0  0
 21 44  1  0  0  0  0
 21 45  1  0  0  0  0
 22 25  2  0  0  0  0
 22 46  1  0  0  0  0
 23 24  2  0  0  0  0
 24 48  1  0  0  0  0
 25 27  1  0  0  0  0
 25 30  1  0  0  0  0
 26 49  1  0  0  0  0
 26 50  1  0  0  0  0
 26 51  1  0  0  0  0
 28 52  1  0  0  0  0
 28 53  1  0  0  0  0
 28 54  1  0  0  0  0
 29 55  1  0  0  0  0
 29 56  1  0  0  0  0
 29 57  1  0  0  0  0
M  END
> <PUBCHEM_COMPOUND_CID>
512786
> <PUBCHEM_COMPOUND_CANONICALIZED>
1
> <PUBCHEM_CACTVS_COMPLEXITY>
882
> <PUBCHEM_CACTVS_HBOND_ACCEPTOR>
6
> <PUBCHEM_CACTVS_HBOND_DONOR>
3
> <PUBCHEM_CACTVS_ROTATABLE_BOND>
6
> <PUBCHEM_CACTVS_SUBSKEYS>
AAADceB7MQAEAAAAAAAAAAAAGAAAAWAAAAAgQAAAAAAAAACAAAAAHwAQCAAADSjBgAQCCAPAAgCIAiXWWACAAAAgAAAACIEIAEgIBA4IwAAEUAACtgCIkYMQAAAOAAAAAAAAAAAAAAAAAAAAAAAAAAAAAA==
> <PUBCHEM_IUPAC_OPENEYE_NAME>
1-cyclopropyl-7-fluoro-9-methyl-8-[(3R)-3-[(1S)-1-(methylamino)propyl]pyrrolidin-1-yl]-4-oxo-quinolizine-3-carboxylic acid;hydrochloride
> <PUBCHEM_IUPAC_CAS_NAME>
1-cyclopropyl-7-fluoro-9-methyl-8-[(3R)-3-[(1S)-1-(methylamino)propyl]-1-pyrrolidinyl]-4-oxo-3-quinolizinecarboxylic acid;hydrochloride
> <PUBCHEM_IUPAC_NAME_MARKUP>
1-cyclopropyl-7-fluoro-9-methyl-8-[(3<I>R</I>)-3-[(1<I>S</I>)-1-(methylamino)propyl]pyrrolidin-1-yl]-4-oxoquinolizine-3-carboxylic acid;hydrochloride
> <PUBCHEM_IUPAC_NAME>
1-cyclopropyl-7-fluoro-9-methyl-8-[(3R)-3-[(1S)-1-(methylamino)propyl]pyrrolidin-1-yl]-4-oxoquinolizine-3-carboxylic acid;hydrochloride
> <PUBCHEM_IUPAC_SYSTEMATIC_NAME>
1-cyclopropyl-7-fluoranyl-9-methyl-8-[(3R)-3-[(1S)-1-(methylamino)propyl]pyrrolidin-1-yl]-4-oxidanylidene-quinolizine-3-carboxylic acid;hydrochloride
> <PUBCHEM_IUPAC_TRADITIONAL_NAME>
1-cyclopropyl-7-fluoro-4-keto-9-methyl-8-[(3R)-3-[(1S)-1-(methylamino)propyl]pyrrolidino]quinolizine-3-carboxylic acid;hydrochloride
> <PUBCHEM_IUPAC_INCHI>
InChI=1S/C22H28FN3O3.ClH/c1-4-18(24-3)14-7-8-25(10-14)20-12(2)19-15(13-5-6-13)9-16(22(28)29)21(27)26(19)11-17(20)23;/h9,11,13-14,18,24H,4-8,10H2,1-3H3,(H,28,29);1H/t14-,18+;/m1./s1
> <PUBCHEM_IUPAC_INCHIKEY>
FLKYIJBWKJMZDG-CQZNTPMBSA-N
> <PUBCHEM_EXACT_MASS>
437.1881477
> <PUBCHEM_MOLECULAR_FORMULA>
C22H29ClFN3O3
> <PUBCHEM_MOLECULAR_WEIGHT>
437.9
> <PUBCHEM_OPENEYE_CAN_SMILES>
CCC(C1CCN(C1)C2=C(C3=C(C=C(C(=O)N3C=C2F)C(=O)O)C4CC4)C)NC.Cl
> <PUBCHEM_OPENEYE_ISO_SMILES>
CC[C@@H]([C@@H]1CCN(C1)C2=C(C3=C(C=C(C(=O)N3C=C2F)C(=O)O)C4CC4)C)NC.Cl
> <PUBCHEM_CACTVS_TPSA>
72.9
> <PUBCHEM_MONOISOTOPIC_WEIGHT>
437.1881477
> <PUBCHEM_TOTAL_CHARGE>
0
> <PUBCHEM_HEAVY_ATOM_COUNT>
30
> <PUBCHEM_ATOM_DEF_STEREO_COUNT>
2
> <PUBCHEM_ATOM_UDEF_STEREO_COUNT>
0
> <PUBCHEM_BOND_DEF_STEREO_COUNT>
0
> <PUBCHEM_BOND_UDEF_STEREO_COUNT>
0
> <PUBCHEM_ISOTOPIC_ATOM_COUNT>
0
> <PUBCHEM_COMPONENT_COUNT>
2
> <PUBCHEM_CACTVS_TAUTO_COUNT>
-1
> <PUBCHEM_COORDINATE_TYPE>
1
5
255
> <PUBCHEM_BONDANNOTATIONS>
10  32  6
17  19  8
17  22  8
18  20  8
18  23  8
19  20  8
22  25  8
23  24  8
25  27  8
7  19  8
7  24  8
7  27  8
15  8  5
$$$$
