512780
  -OEChem-10302200282D
 46 48  0     1  0  0  0  0  0999 V2000
    4.3020    0.0000    0.0000 Cl  0  0  0  0  0  0  0  0  0  0  0  0
    6.6651    3.4944    0.0000 F   0  0  0  0  0  0  0  0  0  0  0  0
    9.2414    5.7846    0.0000 O   0  0  0  0  0  0  0  0  0  0  0  0
    3.1350    2.5186    0.0000 O   0  0  0  0  0  0  0  0  0  0  0  0
    0.5369    4.0186    0.0000 O   0  0  0  0  0  0  0  0  0  0  0  0
    1.4030    2.5186    0.0000 O   0  0  0  0  0  0  0  0  0  0  0  0
    6.6651    5.5427    0.0000 N   0  0  3  0  0  0  0  0  0  0  0  0
    4.0010    4.0186    0.0000 N   0  0  0  0  0  0  0  0  0  0  0  0
    3.1350    6.5186    0.0000 C   0  0  0  0  0  0  0  0  0  0  0  0
    3.6350    7.3846    0.0000 C   0  0  0  0  0  0  0  0  0  0  0  0
    2.6350    7.3846    0.0000 C   0  0  0  0  0  0  0  0  0  0  0  0
    3.1350    5.5186    0.0000 C   0  0  0  0  0  0  0  0  0  0  0  0
    4.0010    5.0186    0.0000 C   0  0  0  0  0  0  0  0  0  0  0  0
    4.8950    5.5532    0.0000 C   0  0  0  0  0  0  0  0  0  0  0  0
    7.5802    5.1395    0.0000 C   0  0  0  0  0  0  0  0  0  0  0  0
    6.7658    6.5376    0.0000 C   0  0  0  0  0  0  0  0  0  0  0  0
    5.8010    5.0394    0.0000 C   0  0  0  0  0  0  0  0  0  0  0  0
    8.2465    5.8852    0.0000 C   0  0  3  0  0  0  0  0  0  0  0  0
    7.7432    6.7493    0.0000 C   0  0  0  0  0  0  0  0  0  0  0  0
    2.2690    5.0186    0.0000 C   0  0  0  0  0  0  0  0  0  0  0  0
    2.2690    4.0186    0.0000 C   0  0  0  0  0  0  0  0  0  0  0  0
    5.8010    3.9978    0.0000 C   0  0  0  0  0  0  0  0  0  0  0  0
    4.8950    3.4839    0.0000 C   0  0  0  0  0  0  0  0  0  0  0  0
    3.1350    3.5186    0.0000 C   0  0  0  0  0  0  0  0  0  0  0  0
    4.8834    6.5532    0.0000 C   0  0  0  0  0  0  0  0  0  0  0  0
    1.4030    3.5186    0.0000 C   0  0  0  0  0  0  0  0  0  0  0  0
    2.5361    6.3581    0.0000 H   0  0  0  0  0  0  0  0  0  0  0  0
    4.2176    7.1726    0.0000 H   0  0  0  0  0  0  0  0  0  0  0  0
    3.7427    7.9952    0.0000 H   0  0  0  0  0  0  0  0  0  0  0  0
    2.5274    7.9952    0.0000 H   0  0  0  0  0  0  0  0  0  0  0  0
    2.0524    7.1726    0.0000 H   0  0  0  0  0  0  0  0  0  0  0  0
    7.2723    4.6014    0.0000 H   0  0  0  0  0  0  0  0  0  0  0  0
    8.0832    4.7770    0.0000 H   0  0  0  0  0  0  0  0  0  0  0  0
    6.6986    7.1540    0.0000 H   0  0  0  0  0  0  0  0  0  0  0  0
    6.1458    6.5353    0.0000 H   0  0  0  0  0  0  0  0  0  0  0  0
    8.5822    6.4065    0.0000 H   0  0  0  0  0  0  0  0  0  0  0  0
    8.3086    7.0037    0.0000 H   0  0  0  0  0  0  0  0  0  0  0  0
    7.5493    7.3382    0.0000 H   0  0  0  0  0  0  0  0  0  0  0  0
    1.7320    5.3286    0.0000 H   0  0  0  0  0  0  0  0  0  0  0  0
    4.8878    2.8640    0.0000 H   0  0  0  0  0  0  0  0  0  0  0  0
    5.5034    6.5604    0.0000 H   0  0  0  0  0  0  0  0  0  0  0  0
    4.8762    7.1731    0.0000 H   0  0  0  0  0  0  0  0  0  0  0  0
    4.2635    6.5460    0.0000 H   0  0  0  0  0  0  0  0  0  0  0  0
    9.6039    6.2875    0.0000 H   0  0  0  0  0  0  0  0  0  0  0  0
    0.0000    3.7086    0.0000 H   0  0  0  0  0  0  0  0  0  0  0  0
    5.3020    0.0000    0.0000 H   0  0  0  0  0  0  0  0  0  0  0  0
  1 46  1  0  0  0  0
  2 22  1  0  0  0  0
  3 18  1  0  0  0  0
  3 44  1  0  0  0  0
  4 24  2  0  0  0  0
  5 26  1  0  0  0  0
  5 45  1  0  0  0  0
  6 26  2  0  0  0  0
  7 15  1  0  0  0  0
  7 16  1  0  0  0  0
  7 17  1  0  0  0  0
  8 13  1  0  0  0  0
  8 23  1  0  0  0  0
  8 24  1  0  0  0  0
  9 10  1  0  0  0  0
  9 11  1  0  0  0  0
  9 12  1  0  0  0  0
  9 27  1  0  0  0  0
 10 11  1  0  0  0  0
 10 28  1  0  0  0  0
 10 29  1  0  0  0  0
 11 30  1  0  0  0  0
 11 31  1  0  0  0  0
 12 13  2  0  0  0  0
 12 20  1  0  0  0  0
 13 14  1  0  0  0  0
 14 17  2  0  0  0  0
 14 25  1  0  0  0  0
 15 18  1  0  0  0  0
 15 32  1  0  0  0  0
 15 33  1  0  0  0  0
 16 19  1  0  0  0  0
 16 34  1  0  0  0  0
 16 35  1  0  0  0  0
 17 22  1  0  0  0  0
 18 19  1  0  0  0  0
 18 36  1  0  0  0  0
 19 37  1  0  0  0  0
 19 38  1  0  0  0  0
 20 21  2  0  0  0  0
 20 39  1  0  0  0  0
 21 24  1  0  0  0  0
 21 26  1  0  0  0  0
 22 23  2  0  0  0  0
 23 40  1  0  0  0  0
 25 41  1  0  0  0  0
 25 42  1  0  0  0  0
 25 43  1  0  0  0  0
M  END
> <PUBCHEM_COMPOUND_CID>
512780
> <PUBCHEM_COMPOUND_CANONICALIZED>
1
> <PUBCHEM_CACTVS_COMPLEXITY>
804
> <PUBCHEM_CACTVS_HBOND_ACCEPTOR>
6
> <PUBCHEM_CACTVS_HBOND_DONOR>
3
> <PUBCHEM_CACTVS_ROTATABLE_BOND>
3
> <PUBCHEM_CACTVS_SUBSKEYS>
AAADceB7OQAEAAAAAAAAAAAAGAAAAWAAAAAgQAAAAAAAAACAAAAAHwAACAAADRzhgAYCCAMAAgCIAiXWWACAAAAgAAAACAEIAEgKFA4IgAAEUAACpgCYkYIAAAAIAAAAAAAAAAAAAAAAAAAAAAAAAAAAAA==
> <PUBCHEM_IUPAC_OPENEYE_NAME>
1-cyclopropyl-7-fluoro-8-(3-hydroxypyrrolidin-1-yl)-9-methyl-4-oxo-quinolizine-3-carboxylic acid;hydrochloride
> <PUBCHEM_IUPAC_CAS_NAME>
1-cyclopropyl-7-fluoro-8-(3-hydroxy-1-pyrrolidinyl)-9-methyl-4-oxo-3-quinolizinecarboxylic acid;hydrochloride
> <PUBCHEM_IUPAC_NAME_MARKUP>
1-cyclopropyl-7-fluoro-8-(3-hydroxypyrrolidin-1-yl)-9-methyl-4-oxoquinolizine-3-carboxylic acid;hydrochloride
> <PUBCHEM_IUPAC_NAME>
1-cyclopropyl-7-fluoro-8-(3-hydroxypyrrolidin-1-yl)-9-methyl-4-oxoquinolizine-3-carboxylic acid;hydrochloride
> <PUBCHEM_IUPAC_SYSTEMATIC_NAME>
1-cyclopropyl-7-fluoranyl-9-methyl-4-oxidanylidene-8-(3-oxidanylpyrrolidin-1-yl)quinolizine-3-carboxylic acid;hydrochloride
> <PUBCHEM_IUPAC_TRADITIONAL_NAME>
1-cyclopropyl-7-fluoro-8-(3-hydroxypyrrolidino)-4-keto-9-methyl-quinolizine-3-carboxylic acid;hydrochloride
> <PUBCHEM_IUPAC_INCHI>
InChI=1S/C18H19FN2O4.ClH/c1-9-15-12(10-2-3-10)6-13(18(24)25)17(23)21(15)8-14(19)16(9)20-5-4-11(22)7-20;/h6,8,10-11,22H,2-5,7H2,1H3,(H,24,25);1H
> <PUBCHEM_IUPAC_INCHIKEY>
ZNNZIDGFRLRUGV-UHFFFAOYSA-N
> <PUBCHEM_EXACT_MASS>
382.1095630
> <PUBCHEM_MOLECULAR_FORMULA>
C18H20ClFN2O4
> <PUBCHEM_MOLECULAR_WEIGHT>
382.8
> <PUBCHEM_OPENEYE_CAN_SMILES>
CC1=C(C(=CN2C1=C(C=C(C2=O)C(=O)O)C3CC3)F)N4CCC(C4)O.Cl
> <PUBCHEM_OPENEYE_ISO_SMILES>
CC1=C(C(=CN2C1=C(C=C(C2=O)C(=O)O)C3CC3)F)N4CCC(C4)O.Cl
> <PUBCHEM_CACTVS_TPSA>
81.1
> <PUBCHEM_MONOISOTOPIC_WEIGHT>
382.1095630
> <PUBCHEM_TOTAL_CHARGE>
0
> <PUBCHEM_HEAVY_ATOM_COUNT>
26
> <PUBCHEM_ATOM_DEF_STEREO_COUNT>
0
> <PUBCHEM_ATOM_UDEF_STEREO_COUNT>
1
> <PUBCHEM_BOND_DEF_STEREO_COUNT>
0
> <PUBCHEM_BOND_UDEF_STEREO_COUNT>
0
> <PUBCHEM_ISOTOPIC_ATOM_COUNT>
0
> <PUBCHEM_COMPONENT_COUNT>
2
> <PUBCHEM_CACTVS_TAUTO_COUNT>
-1
> <PUBCHEM_COORDINATE_TYPE>
1
5
255
> <PUBCHEM_BONDANNOTATIONS>
12  13  8
12  20  8
13  14  8
14  17  8
17  22  8
20  21  8
21  24  8
22  23  8
18  3  3
8  13  8
8  23  8
8  24  8
$$$$
