512767
  -OEChem-10302200282D
 30 31  0     1  0  0  0  0  0999 V2000
    2.4608   -0.7788    0.0000 O   0  0  0  0  0  0  0  0  0  0  0  0
    4.9019   -3.7614    0.0000 O   0  0  0  0  0  0  0  0  0  0  0  0
    6.3031    2.7433    0.0000 O   0  0  0  0  0  0  0  0  0  0  0  0
    4.2208    0.5000    0.0000 N   0  0  0  0  0  0  0  0  0  0  0  0
    3.4118    1.0878    0.0000 N   0  0  0  0  0  0  0  0  0  0  0  0
    3.7208    2.0388    0.0000 N   0  0  0  0  0  0  0  0  0  0  0  0
    4.9019    3.7614    0.0000 N   0  0  0  0  0  0  0  0  0  0  0  0
    4.7208   -2.0388    0.0000 C   0  0  1  0  0  0  0  0  0  0  0  0
    4.2208   -0.5000    0.0000 C   0  0  2  0  0  0  0  0  0  0  0  0
    5.0298   -1.0878    0.0000 C   0  0  0  0  0  0  0  0  0  0  0  0
    3.4118   -1.0878    0.0000 C   0  0  1  0  0  0  0  0  0  0  0  0
    3.7208   -2.0388    0.0000 C   0  0  0  0  0  0  0  0  0  0  0  0
    5.3086   -2.8479    0.0000 C   0  0  0  0  0  0  0  0  0  0  0  0
    5.0298    1.0878    0.0000 C   0  0  0  0  0  0  0  0  0  0  0  0
    4.7208    2.0388    0.0000 C   0  0  0  0  0  0  0  0  0  0  0  0
    5.3086    2.8479    0.0000 C   0  0  0  0  0  0  0  0  0  0  0  0
    3.6684   -0.2185    0.0000 H   0  0  0  0  0  0  0  0  0  0  0  0
    4.4394   -2.5913    0.0000 H   0  0  0  0  0  0  0  0  0  0  0  0
    5.5962   -1.3400    0.0000 H   0  0  0  0  0  0  0  0  0  0  0  0
    5.3398   -0.5508    0.0000 H   0  0  0  0  0  0  0  0  0  0  0  0
    2.9734   -1.5262    0.0000 H   0  0  0  0  0  0  0  0  0  0  0  0
    3.1144   -2.1678    0.0000 H   0  0  0  0  0  0  0  0  0  0  0  0
    3.7856   -2.6554    0.0000 H   0  0  0  0  0  0  0  0  0  0  0  0
    5.8226   -3.1946    0.0000 H   0  0  0  0  0  0  0  0  0  0  0  0
    5.7393   -2.4019    0.0000 H   0  0  0  0  0  0  0  0  0  0  0  0
    2.0000   -1.1936    0.0000 H   0  0  0  0  0  0  0  0  0  0  0  0
    5.6195    0.8962    0.0000 H   0  0  0  0  0  0  0  0  0  0  0  0
    5.2663   -4.2630    0.0000 H   0  0  0  0  0  0  0  0  0  0  0  0
    5.2663    4.2630    0.0000 H   0  0  0  0  0  0  0  0  0  0  0  0
    4.2853    3.8262    0.0000 H   0  0  0  0  0  0  0  0  0  0  0  0
 11  1  1  1  0  0  0
  1 26  1  0  0  0  0
  2 13  1  0  0  0  0
  2 28  1  0  0  0  0
  3 16  2  0  0  0  0
  4  5  1  0  0  0  0
  9  4  1  6  0  0  0
  4 14  1  0  0  0  0
  5  6  2  0  0  0  0
  6 15  1  0  0  0  0
  7 16  1  0  0  0  0
  7 29  1  0  0  0  0
  7 30  1  0  0  0  0
  8 10  1  0  0  0  0
  8 12  1  0  0  0  0
  8 13  1  6  0  0  0
  8 18  1  0  0  0  0
  9 10  1  0  0  0  0
  9 11  1  0  0  0  0
  9 17  1  0  0  0  0
 10 19  1  0  0  0  0
 10 20  1  0  0  0  0
 11 12  1  0  0  0  0
 11 21  1  0  0  0  0
 12 22  1  0  0  0  0
 12 23  1  0  0  0  0
 13 24  1  0  0  0  0
 13 25  1  0  0  0  0
 14 15  2  0  0  0  0
 14 27  1  0  0  0  0
 15 16  1  0  0  0  0
M  END
> <PUBCHEM_COMPOUND_CID>
512767
> <PUBCHEM_COMPOUND_CANONICALIZED>
1
> <PUBCHEM_CACTVS_COMPLEXITY>
276
> <PUBCHEM_CACTVS_HBOND_ACCEPTOR>
5
> <PUBCHEM_CACTVS_HBOND_DONOR>
3
> <PUBCHEM_CACTVS_ROTATABLE_BOND>
3
> <PUBCHEM_CACTVS_SUBSKEYS>
AAADccBzsAAAAAAAAAAAAAAAAAAAAeIAAAAAAAAAAAAAAAABgAAAHgAYCAAADTzhlgYsgBJIAgCqARV3VACABAQXkgAQUAG4dEACUApAwAAUQIAEAADQAMHwcAcOAAAAAAAAAAAAAAAAAAAAAKAAAAgAAA==
> <PUBCHEM_IUPAC_OPENEYE_NAME>
1-[(1R,2R,4S)-2-hydroxy-4-(hydroxymethyl)cyclopentyl]triazole-4-carboxamide
> <PUBCHEM_IUPAC_CAS_NAME>
1-[(1R,2R,4S)-2-hydroxy-4-(hydroxymethyl)cyclopentyl]-4-triazolecarboxamide
> <PUBCHEM_IUPAC_NAME_MARKUP>
1-[(1<I>R</I>,2<I>R</I>,4<I>S</I>)-2-hydroxy-4-(hydroxymethyl)cyclopentyl]triazole-4-carboxamide
> <PUBCHEM_IUPAC_NAME>
1-[(1R,2R,4S)-2-hydroxy-4-(hydroxymethyl)cyclopentyl]triazole-4-carboxamide
> <PUBCHEM_IUPAC_SYSTEMATIC_NAME>
1-[(1R,2R,4S)-4-(hydroxymethyl)-2-oxidanyl-cyclopentyl]-1,2,3-triazole-4-carboxamide
> <PUBCHEM_IUPAC_TRADITIONAL_NAME>
1-[(1R,2R,4S)-2-hydroxy-4-methylol-cyclopentyl]triazole-4-carboxamide
> <PUBCHEM_IUPAC_INCHI>
InChI=1S/C9H14N4O3/c10-9(16)6-3-13(12-11-6)7-1-5(4-14)2-8(7)15/h3,5,7-8,14-15H,1-2,4H2,(H2,10,16)/t5-,7+,8+/m0/s1
> <PUBCHEM_IUPAC_INCHIKEY>
MOZVYGRHXLVSPA-UIISKDMLSA-N
> <PUBCHEM_XLOGP3_AA>
-1.7
> <PUBCHEM_EXACT_MASS>
226.10659032
> <PUBCHEM_MOLECULAR_FORMULA>
C9H14N4O3
> <PUBCHEM_MOLECULAR_WEIGHT>
226.23
> <PUBCHEM_OPENEYE_CAN_SMILES>
C1C(CC(C1N2C=C(N=N2)C(=O)N)O)CO
> <PUBCHEM_OPENEYE_ISO_SMILES>
C1[C@@H](C[C@H]([C@@H]1N2C=C(N=N2)C(=O)N)O)CO
> <PUBCHEM_CACTVS_TPSA>
114
> <PUBCHEM_MONOISOTOPIC_WEIGHT>
226.10659032
> <PUBCHEM_TOTAL_CHARGE>
0
> <PUBCHEM_HEAVY_ATOM_COUNT>
16
> <PUBCHEM_ATOM_DEF_STEREO_COUNT>
3
> <PUBCHEM_ATOM_UDEF_STEREO_COUNT>
0
> <PUBCHEM_BOND_DEF_STEREO_COUNT>
0
> <PUBCHEM_BOND_UDEF_STEREO_COUNT>
0
> <PUBCHEM_ISOTOPIC_ATOM_COUNT>
0
> <PUBCHEM_COMPONENT_COUNT>
1
> <PUBCHEM_CACTVS_TAUTO_COUNT>
-1
> <PUBCHEM_COORDINATE_TYPE>
1
5
255
> <PUBCHEM_BONDANNOTATIONS>
11  1  5
14  15  8
4  14  8
4  5  8
9  4  6
5  6  8
6  15  8
8  13  6
$$$$
