512776
  -OEChem-10302200282D
 51 53  0     1  0  0  0  0  0999 V2000
    4.3020    0.0000    0.0000 Cl  0  0  0  0  0  0  0  0  0  0  0  0
    6.6651    3.4932    0.0000 F   0  0  0  0  0  0  0  0  0  0  0  0
    8.1464    7.6632    0.0000 O   0  0  0  0  0  0  0  0  0  0  0  0
    3.1350    2.5174    0.0000 O   0  0  0  0  0  0  0  0  0  0  0  0
    0.5369    4.0174    0.0000 O   0  0  0  0  0  0  0  0  0  0  0  0
    1.4030    2.5174    0.0000 O   0  0  0  0  0  0  0  0  0  0  0  0
    6.6651    5.5415    0.0000 N   0  0  3  0  0  0  0  0  0  0  0  0
    4.0010    4.0174    0.0000 N   0  0  0  0  0  0  0  0  0  0  0  0
    9.2414    5.7833    0.0000 N   0  0  0  0  0  0  0  0  0  0  0  0
    3.1350    6.5174    0.0000 C   0  0  0  0  0  0  0  0  0  0  0  0
    3.6350    7.3834    0.0000 C   0  0  0  0  0  0  0  0  0  0  0  0
    2.6350    7.3834    0.0000 C   0  0  0  0  0  0  0  0  0  0  0  0
    3.1350    5.5174    0.0000 C   0  0  0  0  0  0  0  0  0  0  0  0
    8.2465    5.8840    0.0000 C   0  0  3  0  0  0  0  0  0  0  0  0
    7.7432    6.7481    0.0000 C   0  0  3  0  0  0  0  0  0  0  0  0
    4.0010    5.0174    0.0000 C   0  0  0  0  0  0  0  0  0  0  0  0
    7.5802    5.1383    0.0000 C   0  0  0  0  0  0  0  0  0  0  0  0
    6.7658    6.5364    0.0000 C   0  0  0  0  0  0  0  0  0  0  0  0
    5.8010    5.0382    0.0000 C   0  0  0  0  0  0  0  0  0  0  0  0
    4.8950    5.5520    0.0000 C   0  0  0  0  0  0  0  0  0  0  0  0
    2.2690    5.0174    0.0000 C   0  0  0  0  0  0  0  0  0  0  0  0
    5.8010    3.9965    0.0000 C   0  0  0  0  0  0  0  0  0  0  0  0
    2.2690    4.0174    0.0000 C   0  0  0  0  0  0  0  0  0  0  0  0
    4.8950    3.4827    0.0000 C   0  0  0  0  0  0  0  0  0  0  0  0
    3.1350    3.5174    0.0000 C   0  0  0  0  0  0  0  0  0  0  0  0
    4.8834    6.5519    0.0000 C   0  0  0  0  0  0  0  0  0  0  0  0
    7.5555    8.4700    0.0000 C   0  0  0  0  0  0  0  0  0  0  0  0
    1.4030    3.5174    0.0000 C   0  0  0  0  0  0  0  0  0  0  0  0
    2.5361    6.3569    0.0000 H   0  0  0  0  0  0  0  0  0  0  0  0
    4.2176    7.1713    0.0000 H   0  0  0  0  0  0  0  0  0  0  0  0
    3.7427    7.9940    0.0000 H   0  0  0  0  0  0  0  0  0  0  0  0
    2.5274    7.9940    0.0000 H   0  0  0  0  0  0  0  0  0  0  0  0
    2.0524    7.1713    0.0000 H   0  0  0  0  0  0  0  0  0  0  0  0
    8.5822    6.4053    0.0000 H   0  0  0  0  0  0  0  0  0  0  0  0
    7.3511    7.2284    0.0000 H   0  0  0  0  0  0  0  0  0  0  0  0
    7.2723    4.6002    0.0000 H   0  0  0  0  0  0  0  0  0  0  0  0
    8.0832    4.7758    0.0000 H   0  0  0  0  0  0  0  0  0  0  0  0
    6.6986    7.1528    0.0000 H   0  0  0  0  0  0  0  0  0  0  0  0
    6.1458    6.5340    0.0000 H   0  0  0  0  0  0  0  0  0  0  0  0
    1.7320    5.3274    0.0000 H   0  0  0  0  0  0  0  0  0  0  0  0
    4.8878    2.8627    0.0000 H   0  0  0  0  0  0  0  0  0  0  0  0
    9.4958    5.2179    0.0000 H   0  0  0  0  0  0  0  0  0  0  0  0
    9.6039    6.2863    0.0000 H   0  0  0  0  0  0  0  0  0  0  0  0
    5.5034    6.5591    0.0000 H   0  0  0  0  0  0  0  0  0  0  0  0
    4.8762    7.1719    0.0000 H   0  0  0  0  0  0  0  0  0  0  0  0
    4.2635    6.5448    0.0000 H   0  0  0  0  0  0  0  0  0  0  0  0
    8.0557    8.8363    0.0000 H   0  0  0  0  0  0  0  0  0  0  0  0
    7.1891    8.9701    0.0000 H   0  0  0  0  0  0  0  0  0  0  0  0
    7.0553    8.1036    0.0000 H   0  0  0  0  0  0  0  0  0  0  0  0
    0.0000    3.7074    0.0000 H   0  0  0  0  0  0  0  0  0  0  0  0
    5.3020    0.0000    0.0000 H   0  0  0  0  0  0  0  0  0  0  0  0
  1 51  1  0  0  0  0
  2 22  1  0  0  0  0
  3 15  1  0  0  0  0
  3 27  1  0  0  0  0
  4 25  2  0  0  0  0
  5 28  1  0  0  0  0
  5 50  1  0  0  0  0
  6 28  2  0  0  0  0
  7 17  1  0  0  0  0
  7 18  1  0  0  0  0
  7 19  1  0  0  0  0
  8 16  1  0  0  0  0
  8 24  1  0  0  0  0
  8 25  1  0  0  0  0
  9 14  1  0  0  0  0
  9 42  1  0  0  0  0
  9 43  1  0  0  0  0
 10 11  1  0  0  0  0
 10 12  1  0  0  0  0
 10 13  1  0  0  0  0
 10 29  1  0  0  0  0
 11 12  1  0  0  0  0
 11 30  1  0  0  0  0
 11 31  1  0  0  0  0
 12 32  1  0  0  0  0
 12 33  1  0  0  0  0
 13 16  2  0  0  0  0
 13 21  1  0  0  0  0
 14 15  1  0  0  0  0
 14 17  1  0  0  0  0
 14 34  1  0  0  0  0
 15 18  1  0  0  0  0
 15 35  1  0  0  0  0
 16 20  1  0  0  0  0
 17 36  1  0  0  0  0
 17 37  1  0  0  0  0
 18 38  1  0  0  0  0
 18 39  1  0  0  0  0
 19 20  2  0  0  0  0
 19 22  1  0  0  0  0
 20 26  1  0  0  0  0
 21 23  2  0  0  0  0
 21 40  1  0  0  0  0
 22 24  2  0  0  0  0
 23 25  1  0  0  0  0
 23 28  1  0  0  0  0
 24 41  1  0  0  0  0
 26 44  1  0  0  0  0
 26 45  1  0  0  0  0
 26 46  1  0  0  0  0
 27 47  1  0  0  0  0
 27 48  1  0  0  0  0
 27 49  1  0  0  0  0
M  END
> <PUBCHEM_COMPOUND_CID>
512776
> <PUBCHEM_COMPOUND_CANONICALIZED>
1
> <PUBCHEM_CACTVS_COMPLEXITY>
853
> <PUBCHEM_CACTVS_HBOND_ACCEPTOR>
7
> <PUBCHEM_CACTVS_HBOND_DONOR>
3
> <PUBCHEM_CACTVS_ROTATABLE_BOND>
4
> <PUBCHEM_CACTVS_SUBSKEYS>
AAADceB7OQAEAAAAAAAAAAAAGAAAAWAAAAAgQAAAAAAAAACAAAAAHwAQCAAADTzhgAYCCANABgCIAiXWWACAAAAgAAAACIEIAEgKRA4IwAAVUAACtgCYkYIAAAAIAAAAAAAAAAAAAAAAAAAAAAAAAAAAAA==
> <PUBCHEM_IUPAC_OPENEYE_NAME>
8-(3-amino-4-methoxy-pyrrolidin-1-yl)-1-cyclopropyl-7-fluoro-9-methyl-4-oxo-quinolizine-3-carboxylic acid;hydrochloride
> <PUBCHEM_IUPAC_CAS_NAME>
8-(3-amino-4-methoxy-1-pyrrolidinyl)-1-cyclopropyl-7-fluoro-9-methyl-4-oxo-3-quinolizinecarboxylic acid;hydrochloride
> <PUBCHEM_IUPAC_NAME_MARKUP>
8-(3-amino-4-methoxypyrrolidin-1-yl)-1-cyclopropyl-7-fluoro-9-methyl-4-oxoquinolizine-3-carboxylic acid;hydrochloride
> <PUBCHEM_IUPAC_NAME>
8-(3-amino-4-methoxypyrrolidin-1-yl)-1-cyclopropyl-7-fluoro-9-methyl-4-oxoquinolizine-3-carboxylic acid;hydrochloride
> <PUBCHEM_IUPAC_SYSTEMATIC_NAME>
8-(3-azanyl-4-methoxy-pyrrolidin-1-yl)-1-cyclopropyl-7-fluoranyl-9-methyl-4-oxidanylidene-quinolizine-3-carboxylic acid;hydrochloride
> <PUBCHEM_IUPAC_TRADITIONAL_NAME>
8-(3-amino-4-methoxy-pyrrolidino)-1-cyclopropyl-7-fluoro-4-keto-9-methyl-quinolizine-3-carboxylic acid;hydrochloride
> <PUBCHEM_IUPAC_INCHI>
InChI=1S/C19H22FN3O4.ClH/c1-9-16-11(10-3-4-10)5-12(19(25)26)18(24)23(16)6-13(20)17(9)22-7-14(21)15(8-22)27-2;/h5-6,10,14-15H,3-4,7-8,21H2,1-2H3,(H,25,26);1H
> <PUBCHEM_IUPAC_INCHIKEY>
ATELBLXRXIOLKD-UHFFFAOYSA-N
> <PUBCHEM_EXACT_MASS>
411.1361121
> <PUBCHEM_MOLECULAR_FORMULA>
C19H23ClFN3O4
> <PUBCHEM_MOLECULAR_WEIGHT>
411.9
> <PUBCHEM_OPENEYE_CAN_SMILES>
CC1=C(C(=CN2C1=C(C=C(C2=O)C(=O)O)C3CC3)F)N4CC(C(C4)OC)N.Cl
> <PUBCHEM_OPENEYE_ISO_SMILES>
CC1=C(C(=CN2C1=C(C=C(C2=O)C(=O)O)C3CC3)F)N4CC(C(C4)OC)N.Cl
> <PUBCHEM_CACTVS_TPSA>
96.1
> <PUBCHEM_MONOISOTOPIC_WEIGHT>
411.1361121
> <PUBCHEM_TOTAL_CHARGE>
0
> <PUBCHEM_HEAVY_ATOM_COUNT>
28
> <PUBCHEM_ATOM_DEF_STEREO_COUNT>
0
> <PUBCHEM_ATOM_UDEF_STEREO_COUNT>
2
> <PUBCHEM_BOND_DEF_STEREO_COUNT>
0
> <PUBCHEM_BOND_UDEF_STEREO_COUNT>
0
> <PUBCHEM_ISOTOPIC_ATOM_COUNT>
0
> <PUBCHEM_COMPONENT_COUNT>
2
> <PUBCHEM_CACTVS_TAUTO_COUNT>
-1
> <PUBCHEM_COORDINATE_TYPE>
1
5
255
> <PUBCHEM_BONDANNOTATIONS>
13  16  8
13  21  8
16  20  8
19  20  8
19  22  8
21  23  8
22  24  8
23  25  8
15  3  3
8  16  8
8  24  8
8  25  8
14  9  3
$$$$
