512735
  -OEChem-10302200282D
 37 38  0     1  0  0  0  0  0999 V2000
    5.4071   -1.2153    0.0000 O   0  0  0  0  0  0  0  0  0  0  0  0
    3.5103   -2.9754    0.0000 O   0  0  0  0  0  0  0  0  0  0  0  0
    6.6804   -2.8709    0.0000 O   0  0  0  0  0  0  0  0  0  0  0  0
    6.3301    0.3725    0.0000 O   0  0  0  0  0  0  0  0  0  0  0  0
    4.5981    3.3725    0.0000 O   0  0  0  0  0  0  0  0  0  0  0  0
    4.5981    0.3725    0.0000 N   0  0  0  0  0  0  0  0  0  0  0  0
    5.4641    1.8725    0.0000 N   0  0  0  0  0  0  0  0  0  0  0  0
    4.5981   -0.6275    0.0000 C   0  0  1  0  0  0  0  0  0  0  0  0
    4.0981   -2.1664    0.0000 C   0  0  1  0  0  0  0  0  0  0  0  0
    3.7891   -1.2153    0.0000 C   0  0  0  0  0  0  0  0  0  0  0  0
    5.0981   -2.1664    0.0000 C   0  0  1  0  0  0  0  0  0  0  0  0
    5.6859   -2.9754    0.0000 C   0  0  0  0  0  0  0  0  0  0  0  0
    3.7320    0.8725    0.0000 C   0  0  0  0  0  0  0  0  0  0  0  0
    3.7320    1.8725    0.0000 C   0  0  0  0  0  0  0  0  0  0  0  0
    5.4641    0.8725    0.0000 C   0  0  0  0  0  0  0  0  0  0  0  0
    2.8660    2.3725    0.0000 C   0  0  0  0  0  0  0  0  0  0  0  0
    4.5981    2.3725    0.0000 C   0  0  0  0  0  0  0  0  0  0  0  0
    2.0000    1.8725    0.0000 C   0  0  0  0  0  0  0  0  0  0  0  0
    2.8660    3.3725    0.0000 C   0  0  0  0  0  0  0  0  0  0  0  0
    5.1505   -0.3461    0.0000 H   0  0  0  0  0  0  0  0  0  0  0  0
    4.3796   -2.7188    0.0000 H   0  0  0  0  0  0  0  0  0  0  0  0
    3.4791   -0.6784    0.0000 H   0  0  0  0  0  0  0  0  0  0  0  0
    3.2227   -1.4675    0.0000 H   0  0  0  0  0  0  0  0  0  0  0  0
    5.7104   -2.0694    0.0000 H   0  0  0  0  0  0  0  0  0  0  0  0
    5.1286   -3.2472    0.0000 H   0  0  0  0  0  0  0  0  0  0  0  0
    5.8568   -3.5714    0.0000 H   0  0  0  0  0  0  0  0  0  0  0  0
    3.1951    0.5625    0.0000 H   0  0  0  0  0  0  0  0  0  0  0  0
    2.8937   -2.9106    0.0000 H   0  0  0  0  0  0  0  0  0  0  0  0
    2.8660    1.7525    0.0000 H   0  0  0  0  0  0  0  0  0  0  0  0
    6.0010    2.1825    0.0000 H   0  0  0  0  0  0  0  0  0  0  0  0
    1.6900    2.4094    0.0000 H   0  0  0  0  0  0  0  0  0  0  0  0
    1.4631    1.5625    0.0000 H   0  0  0  0  0  0  0  0  0  0  0  0
    2.3100    1.3355    0.0000 H   0  0  0  0  0  0  0  0  0  0  0  0
    3.4860    3.3725    0.0000 H   0  0  0  0  0  0  0  0  0  0  0  0
    2.8660    3.9925    0.0000 H   0  0  0  0  0  0  0  0  0  0  0  0
    2.2460    3.3725    0.0000 H   0  0  0  0  0  0  0  0  0  0  0  0
    7.0448   -3.3725    0.0000 H   0  0  0  0  0  0  0  0  0  0  0  0
  1  8  1  0  0  0  0
  1 11  1  0  0  0  0
  9  2  1  1  0  0  0
  2 28  1  0  0  0  0
  3 12  1  0  0  0  0
  3 37  1  0  0  0  0
  4 15  2  0  0  0  0
  5 17  2  0  0  0  0
  8  6  1  6  0  0  0
  6 13  1  0  0  0  0
  6 15  1  0  0  0  0
  7 15  1  0  0  0  0
  7 17  1  0  0  0  0
  7 30  1  0  0  0  0
  8 10  1  0  0  0  0
  8 20  1  0  0  0  0
  9 10  1  0  0  0  0
  9 11  1  0  0  0  0
  9 21  1  0  0  0  0
 10 22  1  0  0  0  0
 10 23  1  0  0  0  0
 11 12  1  6  0  0  0
 11 24  1  0  0  0  0
 12 25  1  0  0  0  0
 12 26  1  0  0  0  0
 13 14  2  0  0  0  0
 13 27  1  0  0  0  0
 14 16  1  0  0  0  0
 14 17  1  0  0  0  0
 16 18  1  0  0  0  0
 16 19  1  0  0  0  0
 16 29  1  0  0  0  0
 18 31  1  0  0  0  0
 18 32  1  0  0  0  0
 18 33  1  0  0  0  0
 19 34  1  0  0  0  0
 19 35  1  0  0  0  0
 19 36  1  0  0  0  0
M  END
> <PUBCHEM_COMPOUND_CID>
512735
> <PUBCHEM_COMPOUND_CANONICALIZED>
1
> <PUBCHEM_CACTVS_COMPLEXITY>
420
> <PUBCHEM_CACTVS_HBOND_ACCEPTOR>
5
> <PUBCHEM_CACTVS_HBOND_DONOR>
3
> <PUBCHEM_CACTVS_ROTATABLE_BOND>
3
> <PUBCHEM_CACTVS_SUBSKEYS>
AAADceBzOAAAAAAAAAAAAAAAAAAAASAAAAAgAAAAAAAAAAAAAAAAHgAQCAAADRThgAYDAAPABgCIAgFWUACAAAAgAAAAAAEIAEiBEBIAgQAOQAAPByIDAMCwMAIIAAAAAAAAAAAAAAAAAAAAAAAAAAAAAA==
> <PUBCHEM_IUPAC_OPENEYE_NAME>
1-[(2R,4S,5R)-4-hydroxy-5-(hydroxymethyl)tetrahydrofuran-2-yl]-5-isopropyl-pyrimidine-2,4-dione
> <PUBCHEM_IUPAC_CAS_NAME>
1-[(2R,4S,5R)-4-hydroxy-5-(hydroxymethyl)-2-oxolanyl]-5-propan-2-ylpyrimidine-2,4-dione
> <PUBCHEM_IUPAC_NAME_MARKUP>
1-[(2<I>R</I>,4<I>S</I>,5<I>R</I>)-4-hydroxy-5-(hydroxymethyl)oxolan-2-yl]-5-propan-2-ylpyrimidine-2,4-dione
> <PUBCHEM_IUPAC_NAME>
1-[(2R,4S,5R)-4-hydroxy-5-(hydroxymethyl)oxolan-2-yl]-5-propan-2-ylpyrimidine-2,4-dione
> <PUBCHEM_IUPAC_SYSTEMATIC_NAME>
1-[(2R,4S,5R)-5-(hydroxymethyl)-4-oxidanyl-oxolan-2-yl]-5-propan-2-yl-pyrimidine-2,4-dione
> <PUBCHEM_IUPAC_TRADITIONAL_NAME>
1-[(2R,4S,5R)-4-hydroxy-5-methylol-tetrahydrofuran-2-yl]-5-isopropyl-pyrimidine-2,4-quinone
> <PUBCHEM_IUPAC_INCHI>
InChI=1S/C12H18N2O5/c1-6(2)7-4-14(12(18)13-11(7)17)10-3-8(16)9(5-15)19-10/h4,6,8-10,15-16H,3,5H2,1-2H3,(H,13,17,18)/t8-,9+,10+/m0/s1
> <PUBCHEM_IUPAC_INCHIKEY>
PHUUXVYXSRZACJ-IVZWLZJFSA-N
> <PUBCHEM_XLOGP3>
-0.4
> <PUBCHEM_EXACT_MASS>
270.12157168
> <PUBCHEM_MOLECULAR_FORMULA>
C12H18N2O5
> <PUBCHEM_MOLECULAR_WEIGHT>
270.28
> <PUBCHEM_OPENEYE_CAN_SMILES>
CC(C)C1=CN(C(=O)NC1=O)C2CC(C(O2)CO)O
> <PUBCHEM_OPENEYE_ISO_SMILES>
CC(C)C1=CN(C(=O)NC1=O)[C@H]2C[C@@H]([C@H](O2)CO)O
> <PUBCHEM_CACTVS_TPSA>
99.1
> <PUBCHEM_MONOISOTOPIC_WEIGHT>
270.12157168
> <PUBCHEM_TOTAL_CHARGE>
0
> <PUBCHEM_HEAVY_ATOM_COUNT>
19
> <PUBCHEM_ATOM_DEF_STEREO_COUNT>
3
> <PUBCHEM_ATOM_UDEF_STEREO_COUNT>
0
> <PUBCHEM_BOND_DEF_STEREO_COUNT>
0
> <PUBCHEM_BOND_UDEF_STEREO_COUNT>
0
> <PUBCHEM_ISOTOPIC_ATOM_COUNT>
0
> <PUBCHEM_COMPONENT_COUNT>
1
> <PUBCHEM_CACTVS_TAUTO_COUNT>
3
> <PUBCHEM_COORDINATE_TYPE>
1
5
255
> <PUBCHEM_BONDANNOTATIONS>
11  12  6
13  14  8
14  17  8
9  2  5
6  13  8
6  15  8
8  6  6
7  15  8
7  17  8
$$$$
