512732
  -OEChem-10302200282D
 45 47  0     1  0  0  0  0  0999 V2000
    3.3100   -1.2320    0.0000 P   0  0  3  0  0  0  0  0  0  0  0  0
    5.9883   -2.5368    0.0000 O   0  0  0  0  0  0  0  0  0  0  0  0
    4.1760   -0.7321    0.0000 O   0  0  0  0  0  0  0  0  0  0  0  0
    3.3100   -2.2320    0.0000 O   0  0  0  0  0  0  0  0  0  0  0  0
    2.3100   -1.2320    0.0000 O   0  0  0  0  0  0  0  0  0  0  0  0
    2.8100   -0.3660    0.0000 O   0  0  0  0  0  0  0  0  0  0  0  0
    7.5719   -3.4641    0.0000 O   0  0  0  0  0  0  0  0  0  0  0  0
   10.5719   -1.7320    0.0000 O   0  0  0  0  0  0  0  0  0  0  0  0
    7.5719   -1.7320    0.0000 N   0  0  0  0  0  0  0  0  0  0  0  0
    9.0719   -2.5981    0.0000 N   0  0  0  0  0  0  0  0  0  0  0  0
    5.0420   -1.2320    0.0000 C   0  0  3  0  0  0  0  0  0  0  0  0
    5.0420   -2.2320    0.0000 C   0  0  3  0  0  0  0  0  0  0  0  0
    5.9883   -0.9273    0.0000 C   0  0  0  0  0  0  0  0  0  0  0  0
    6.5719   -1.7320    0.0000 C   0  0  1  0  0  0  0  0  0  0  0  0
    4.1760   -2.7320    0.0000 C   0  0  0  0  0  0  0  0  0  0  0  0
    8.0719   -0.8660    0.0000 C   0  0  0  0  0  0  0  0  0  0  0  0
    8.0719   -2.5981    0.0000 C   0  0  0  0  0  0  0  0  0  0  0  0
    9.0719   -0.8660    0.0000 C   0  0  0  0  0  0  0  0  0  0  0  0
    9.5719   -0.0000    0.0000 C   0  0  0  0  0  0  0  0  0  0  0  0
    9.0719    0.8660    0.0000 C   0  0  0  0  0  0  0  0  0  0  0  0
    9.5719   -1.7320    0.0000 C   0  0  0  0  0  0  0  0  0  0  0  0
    9.5719    1.7320    0.0000 C   0  0  0  0  0  0  0  0  0  0  0  0
    9.0719    2.5981    0.0000 C   0  0  0  0  0  0  0  0  0  0  0  0
    9.5719    3.4641    0.0000 C   0  0  0  0  0  0  0  0  0  0  0  0
    5.1320   -0.3868    0.0000 H   0  0  0  0  0  0  0  0  0  0  0  0
    5.1320   -3.0773    0.0000 H   0  0  0  0  0  0  0  0  0  0  0  0
    6.5256   -0.6181    0.0000 H   0  0  0  0  0  0  0  0  0  0  0  0
    5.7372   -0.3604    0.0000 H   0  0  0  0  0  0  0  0  0  0  0  0
    6.8536   -1.1798    0.0000 H   0  0  0  0  0  0  0  0  0  0  0  0
    3.7775   -3.2070    0.0000 H   0  0  0  0  0  0  0  0  0  0  0  0
    4.5746   -3.2070    0.0000 H   0  0  0  0  0  0  0  0  0  0  0  0
    7.7619   -0.3291    0.0000 H   0  0  0  0  0  0  0  0  0  0  0  0
   10.0468   -0.3985    0.0000 H   0  0  0  0  0  0  0  0  0  0  0  0
   10.0468    0.3985    0.0000 H   0  0  0  0  0  0  0  0  0  0  0  0
    8.5969    1.2646    0.0000 H   0  0  0  0  0  0  0  0  0  0  0  0
    8.5969    0.4675    0.0000 H   0  0  0  0  0  0  0  0  0  0  0  0
    9.3819   -3.1350    0.0000 H   0  0  0  0  0  0  0  0  0  0  0  0
   10.0468    1.3335    0.0000 H   0  0  0  0  0  0  0  0  0  0  0  0
   10.0468    2.1306    0.0000 H   0  0  0  0  0  0  0  0  0  0  0  0
    2.0000   -1.7690    0.0000 H   0  0  0  0  0  0  0  0  0  0  0  0
    8.5969    2.9966    0.0000 H   0  0  0  0  0  0  0  0  0  0  0  0
    8.5969    2.1996    0.0000 H   0  0  0  0  0  0  0  0  0  0  0  0
   10.1088    3.1541    0.0000 H   0  0  0  0  0  0  0  0  0  0  0  0
    9.8819    4.0010    0.0000 H   0  0  0  0  0  0  0  0  0  0  0  0
    9.0349    3.7741    0.0000 H   0  0  0  0  0  0  0  0  0  0  0  0
  1  3  1  0  0  0  0
  1  4  1  0  0  0  0
  1  5  1  0  0  0  0
  1  6  2  0  0  0  0
  2 12  1  0  0  0  0
  2 14  1  0  0  0  0
  3 11  1  0  0  0  0
  4 15  1  0  0  0  0
  5 40  1  0  0  0  0
  7 17  2  0  0  0  0
  8 21  2  0  0  0  0
 14  9  1  6  0  0  0
  9 16  1  0  0  0  0
  9 17  1  0  0  0  0
 10 17  1  0  0  0  0
 10 21  1  0  0  0  0
 10 37  1  0  0  0  0
 11 12  1  0  0  0  0
 11 13  1  0  0  0  0
 11 25  1  0  0  0  0
 12 15  1  0  0  0  0
 12 26  1  0  0  0  0
 13 14  1  0  0  0  0
 13 27  1  0  0  0  0
 13 28  1  0  0  0  0
 14 29  1  0  0  0  0
 15 30  1  0  0  0  0
 15 31  1  0  0  0  0
 16 18  2  0  0  0  0
 16 32  1  0  0  0  0
 18 19  1  0  0  0  0
 18 21  1  0  0  0  0
 19 20  1  0  0  0  0
 19 33  1  0  0  0  0
 19 34  1  0  0  0  0
 20 22  1  0  0  0  0
 20 35  1  0  0  0  0
 20 36  1  0  0  0  0
 22 23  1  0  0  0  0
 22 38  1  0  0  0  0
 22 39  1  0  0  0  0
 23 24  1  0  0  0  0
 23 41  1  0  0  0  0
 23 42  1  0  0  0  0
 24 43  1  0  0  0  0
 24 44  1  0  0  0  0
 24 45  1  0  0  0  0
M  END
> <PUBCHEM_COMPOUND_CID>
512732
> <PUBCHEM_COMPOUND_CANONICALIZED>
1
> <PUBCHEM_CACTVS_COMPLEXITY>
608
> <PUBCHEM_CACTVS_HBOND_ACCEPTOR>
7
> <PUBCHEM_CACTVS_HBOND_DONOR>
2
> <PUBCHEM_CACTVS_ROTATABLE_BOND>
5
> <PUBCHEM_CACTVS_SUBSKEYS>
AAADceBzOAIAAAAAAAAAAAAAAAAAASAAAAAkQAAAAAAAAEgAAAAAHgAQCCAADBThgAYDAAPABRCIQgFWUICAAAAgAAAAAAEIAEiBABIAgQAOAAAPhyICAMG4uAKAAAAAAAAAAAAAAAAAAAAAAAAAAAAAAA==
> <PUBCHEM_IUPAC_OPENEYE_NAME>
1-[(6R)-2-hydroxy-2-oxo-4a,6,7,7a-tetrahydro-4H-furo[3,2-d][1,3,2]dioxaphosphinin-6-yl]-5-pentyl-pyrimidine-2,4-dione
> <PUBCHEM_IUPAC_CAS_NAME>
1-[(6R)-2-hydroxy-2-oxo-4a,6,7,7a-tetrahydro-4H-furo[3,2-d][1,3,2]dioxaphosphorin-6-yl]-5-pentylpyrimidine-2,4-dione
> <PUBCHEM_IUPAC_NAME_MARKUP>
1-[(6<I>R</I>)-2-hydroxy-2-oxo-4<I>a</I>,6,7,7<I>a</I>-tetrahydro-4<I>H</I>-furo[3,2-d][1,3,2]dioxaphosphinin-6-yl]-5-pentylpyrimidine-2,4-dione
> <PUBCHEM_IUPAC_NAME>
1-[(6R)-2-hydroxy-2-oxo-4a,6,7,7a-tetrahydro-4H-furo[3,2-d][1,3,2]dioxaphosphinin-6-yl]-5-pentylpyrimidine-2,4-dione
> <PUBCHEM_IUPAC_SYSTEMATIC_NAME>
1-[(6R)-2-oxidanyl-2-oxidanylidene-4a,6,7,7a-tetrahydro-4H-furo[3,2-d][1,3,2]dioxaphosphinin-6-yl]-5-pentyl-pyrimidine-2,4-dione
> <PUBCHEM_IUPAC_TRADITIONAL_NAME>
5-amyl-1-[(6R)-2-hydroxy-2-keto-4a,6,7,7a-tetrahydro-4H-furo[3,2-d][1,3,2]dioxaphosphorin-6-yl]pyrimidine-2,4-quinone
> <PUBCHEM_IUPAC_INCHI>
InChI=1S/C14H21N2O7P/c1-2-3-4-5-9-7-16(14(18)15-13(9)17)12-6-10-11(22-12)8-21-24(19,20)23-10/h7,10-12H,2-6,8H2,1H3,(H,19,20)(H,15,17,18)/t10?,11?,12-/m1/s1
> <PUBCHEM_IUPAC_INCHIKEY>
WMTJHPXDFVNEBJ-HTAVTVPLSA-N
> <PUBCHEM_XLOGP3_AA>
0.5
> <PUBCHEM_EXACT_MASS>
360.10863801
> <PUBCHEM_MOLECULAR_FORMULA>
C14H21N2O7P
> <PUBCHEM_MOLECULAR_WEIGHT>
360.30
> <PUBCHEM_OPENEYE_CAN_SMILES>
CCCCCC1=CN(C(=O)NC1=O)C2CC3C(O2)COP(=O)(O3)O
> <PUBCHEM_OPENEYE_ISO_SMILES>
CCCCCC1=CN(C(=O)NC1=O)[C@H]2CC3C(O2)COP(=O)(O3)O
> <PUBCHEM_CACTVS_TPSA>
114
> <PUBCHEM_MONOISOTOPIC_WEIGHT>
360.10863801
> <PUBCHEM_TOTAL_CHARGE>
0
> <PUBCHEM_HEAVY_ATOM_COUNT>
24
> <PUBCHEM_ATOM_DEF_STEREO_COUNT>
1
> <PUBCHEM_ATOM_UDEF_STEREO_COUNT>
2
> <PUBCHEM_BOND_DEF_STEREO_COUNT>
0
> <PUBCHEM_BOND_UDEF_STEREO_COUNT>
0
> <PUBCHEM_ISOTOPIC_ATOM_COUNT>
0
> <PUBCHEM_COMPONENT_COUNT>
1
> <PUBCHEM_CACTVS_TAUTO_COUNT>
3
> <PUBCHEM_COORDINATE_TYPE>
1
5
255
> <PUBCHEM_BONDANNOTATIONS>
10  17  8
10  21  8
11  25  3
12  26  3
16  18  8
18  21  8
14  9  6
9  16  8
9  17  8
$$$$
