512709
  -OEChem-10302200282D
 31 33  0     1  0  0  0  0  0999 V2000
    3.7066    3.4222    0.0000 Cl  0  0  0  0  0  0  0  0  0  0  0  0
    4.4026    1.4530    0.0000 O   0  0  0  0  0  0  0  0  0  0  0  0
    6.7485    0.3612    0.0000 O   0  0  0  0  0  0  0  0  0  0  0  0
    6.7523    2.5368    0.0000 O   0  0  0  0  0  0  0  0  0  0  0  0
    5.2619   -1.1122    0.0000 N   0  0  0  0  0  0  0  0  0  0  0  0
    4.6783   -1.9170    0.0000 N   0  0  0  0  0  0  0  0  0  0  0  0
    2.8660   -0.1122    0.0000 N   0  0  0  0  0  0  0  0  0  0  0  0
    2.0000   -1.6122    0.0000 N   0  0  0  0  0  0  0  0  0  0  0  0
    2.8660   -3.1122    0.0000 N   0  0  0  0  0  0  0  0  0  0  0  0
    5.9405    0.9504    0.0000 C   0  0  1  0  0  0  0  0  0  0  0  0
    4.9889    0.6430    0.0000 C   0  0  2  0  0  0  0  0  0  0  0  0
    5.9422    1.9504    0.0000 C   0  0  1  0  0  0  0  0  0  0  0  0
    4.9917    2.2610    0.0000 C   0  0  1  0  0  0  0  0  0  0  0  0
    4.6783   -0.3075    0.0000 C   0  0  0  0  0  0  0  0  0  0  0  0
    4.6844    3.2126    0.0000 C   0  0  0  0  0  0  0  0  0  0  0  0
    3.7320   -0.6122    0.0000 C   0  0  0  0  0  0  0  0  0  0  0  0
    3.7320   -1.6122    0.0000 C   0  0  0  0  0  0  0  0  0  0  0  0
    2.8660   -2.1122    0.0000 C   0  0  0  0  0  0  0  0  0  0  0  0
    2.0000   -0.6122    0.0000 C   0  0  0  0  0  0  0  0  0  0  0  0
    6.4934    1.2309    0.0000 H   0  0  0  0  0  0  0  0  0  0  0  0
    5.5889    0.0409    0.0000 H   0  0  0  0  0  0  0  0  0  0  0  0
    6.4942    1.6680    0.0000 H   0  0  0  0  0  0  0  0  0  0  0  0
    4.3795    2.3591    0.0000 H   0  0  0  0  0  0  0  0  0  0  0  0
    5.2985    3.2979    0.0000 H   0  0  0  0  0  0  0  0  0  0  0  0
    4.7071    3.8322    0.0000 H   0  0  0  0  0  0  0  0  0  0  0  0
    7.3154    0.6124    0.0000 H   0  0  0  0  0  0  0  0  0  0  0  0
    6.6886    3.1535    0.0000 H   0  0  0  0  0  0  0  0  0  0  0  0
    5.8819   -1.1122    0.0000 H   0  0  0  0  0  0  0  0  0  0  0  0
    1.4631   -0.3022    0.0000 H   0  0  0  0  0  0  0  0  0  0  0  0
    2.3291   -3.4222    0.0000 H   0  0  0  0  0  0  0  0  0  0  0  0
    3.4030   -3.4222    0.0000 H   0  0  0  0  0  0  0  0  0  0  0  0
  1 15  1  0  0  0  0
  2 11  1  0  0  0  0
  2 13  1  0  0  0  0
 10  3  1  1  0  0  0
  3 26  1  0  0  0  0
 12  4  1  1  0  0  0
  4 27  1  0  0  0  0
  5  6  1  0  0  0  0
  5 14  1  0  0  0  0
  5 28  1  0  0  0  0
  6 17  2  0  0  0  0
  7 16  1  0  0  0  0
  7 19  2  0  0  0  0
  8 18  2  0  0  0  0
  8 19  1  0  0  0  0
  9 18  1  0  0  0  0
  9 30  1  0  0  0  0
  9 31  1  0  0  0  0
 10 11  1  0  0  0  0
 10 12  1  0  0  0  0
 10 20  1  0  0  0  0
 11 14  1  0  0  0  0
 11 21  1  1  0  0  0
 12 13  1  0  0  0  0
 12 22  1  0  0  0  0
 13 15  1  6  0  0  0
 13 23  1  0  0  0  0
 14 16  2  0  0  0  0
 15 24  1  0  0  0  0
 15 25  1  0  0  0  0
 16 17  1  0  0  0  0
 17 18  1  0  0  0  0
 19 29  1  0  0  0  0
M  END
> <PUBCHEM_COMPOUND_CID>
512709
> <PUBCHEM_COMPOUND_CANONICALIZED>
1
> <PUBCHEM_CACTVS_COMPLEXITY>
338
> <PUBCHEM_CACTVS_HBOND_ACCEPTOR>
7
> <PUBCHEM_CACTVS_HBOND_DONOR>
4
> <PUBCHEM_CACTVS_ROTATABLE_BOND>
2
> <PUBCHEM_CACTVS_SUBSKEYS>
AAADccBzsAAEAAAAAAAAAAAAAAAAAWJAAAAsAAAAAAAAAFgB+AAAHgIYCAAACB+hlkYF8LZrFgCiAQZhZASShC0xEKAR+SA4X5iLfiLB+NmX1Ahv2ANL6Cew0KMAAAAAAAAAAAAAAAAAAAAAAAAAAAAAAA==
> <PUBCHEM_IUPAC_OPENEYE_NAME>
(2S,3R,4S,5S)-2-(7-amino-2H-pyrazolo[4,3-d]pyrimidin-3-yl)-5-(chloromethyl)tetrahydrofuran-3,4-diol
> <PUBCHEM_IUPAC_CAS_NAME>
(2S,3R,4S,5S)-2-(7-amino-2H-pyrazolo[4,3-d]pyrimidin-3-yl)-5-(chloromethyl)oxolane-3,4-diol
> <PUBCHEM_IUPAC_NAME_MARKUP>
(2<I>S</I>,3<I>R</I>,4<I>S</I>,5<I>S</I>)-2-(7-amino-2<I>H</I>-pyrazolo[4,3-d]pyrimidin-3-yl)-5-(chloromethyl)oxolane-3,4-diol
> <PUBCHEM_IUPAC_NAME>
(2S,3R,4S,5S)-2-(7-amino-2H-pyrazolo[4,3-d]pyrimidin-3-yl)-5-(chloromethyl)oxolane-3,4-diol
> <PUBCHEM_IUPAC_SYSTEMATIC_NAME>
(2S,3R,4S,5S)-2-(7-azanyl-2H-pyrazolo[4,3-d]pyrimidin-3-yl)-5-(chloromethyl)oxolane-3,4-diol
> <PUBCHEM_IUPAC_TRADITIONAL_NAME>
(2S,3R,4S,5S)-2-(7-amino-2H-pyrazolo[4,3-d]pyrimidin-3-yl)-5-(chloromethyl)tetrahydrofuran-3,4-diol
> <PUBCHEM_IUPAC_INCHI>
InChI=1S/C10H12ClN5O3/c11-1-3-7(17)8(18)9(19-3)5-4-6(16-15-5)10(12)14-2-13-4/h2-3,7-9,17-18H,1H2,(H,15,16)(H2,12,13,14)/t3-,7-,8-,9+/m1/s1
> <PUBCHEM_IUPAC_INCHIKEY>
YTYTYXVZBHJYMY-KSYZLYKTSA-N
> <PUBCHEM_XLOGP3_AA>
-1.5
> <PUBCHEM_EXACT_MASS>
285.0628670
> <PUBCHEM_MOLECULAR_FORMULA>
C10H12ClN5O3
> <PUBCHEM_MOLECULAR_WEIGHT>
285.69
> <PUBCHEM_OPENEYE_CAN_SMILES>
C1=NC2=C(NN=C2C(=N1)N)C3C(C(C(O3)CCl)O)O
> <PUBCHEM_OPENEYE_ISO_SMILES>
C1=NC2=C(NN=C2C(=N1)N)[C@H]3[C@@H]([C@@H]([C@H](O3)CCl)O)O
> <PUBCHEM_CACTVS_TPSA>
130
> <PUBCHEM_MONOISOTOPIC_WEIGHT>
285.0628670
> <PUBCHEM_TOTAL_CHARGE>
0
> <PUBCHEM_HEAVY_ATOM_COUNT>
19
> <PUBCHEM_ATOM_DEF_STEREO_COUNT>
4
> <PUBCHEM_ATOM_UDEF_STEREO_COUNT>
0
> <PUBCHEM_BOND_DEF_STEREO_COUNT>
0
> <PUBCHEM_BOND_UDEF_STEREO_COUNT>
0
> <PUBCHEM_ISOTOPIC_ATOM_COUNT>
0
> <PUBCHEM_COMPONENT_COUNT>
1
> <PUBCHEM_CACTVS_TAUTO_COUNT>
8
> <PUBCHEM_COORDINATE_TYPE>
1
5
255
> <PUBCHEM_BONDANNOTATIONS>
11  21  5
13  15  6
14  16  8
16  17  8
17  18  8
10  3  5
12  4  5
5  14  8
5  6  8
6  17  8
7  16  8
7  19  8
8  18  8
8  19  8
$$$$
