512769
  -OEChem-10302200282D
 39 40  0     1  0  0  0  0  0999 V2000
    5.4897   -3.8827    0.0000 P   0  0  0  0  0  0  0  0  0  0  0  0
    2.4608   -0.0911    0.0000 O   0  0  0  0  0  0  0  0  0  0  0  0
    6.0774   -4.6917    0.0000 O   0  0  0  0  0  0  0  0  0  0  0  0
    4.6806   -4.4705    0.0000 O   0  0  0  0  0  0  0  0  0  0  0  0
    6.2987   -3.2949    0.0000 O   0  0  0  0  0  0  0  0  0  0  0  0
    4.9019    4.4491    0.0000 O   0  0  0  0  0  0  0  0  0  0  0  0
    6.3031    3.4310    0.0000 O   0  0  0  0  0  0  0  0  0  0  0  0
    4.2208    1.1877    0.0000 N   0  0  0  0  0  0  0  0  0  0  0  0
    3.4118    1.7755    0.0000 N   0  0  0  0  0  0  0  0  0  0  0  0
    3.7208    2.7266    0.0000 N   0  0  0  0  0  0  0  0  0  0  0  0
    4.7208   -1.3511    0.0000 C   0  0  1  0  0  0  0  0  0  0  0  0
    4.2208    0.1877    0.0000 C   0  0  2  0  0  0  0  0  0  0  0  0
    5.0298   -0.4001    0.0000 C   0  0  0  0  0  0  0  0  0  0  0  0
    3.7208   -1.3511    0.0000 C   0  0  0  0  0  0  0  0  0  0  0  0
    3.4118   -0.4001    0.0000 C   0  0  1  0  0  0  0  0  0  0  0  0
    5.3086   -2.1601    0.0000 C   0  0  0  0  0  0  0  0  0  0  0  0
    4.9019   -3.0737    0.0000 C   0  0  0  0  0  0  0  0  0  0  0  0
    5.0298    1.7755    0.0000 C   0  0  0  0  0  0  0  0  0  0  0  0
    4.7208    2.7266    0.0000 C   0  0  0  0  0  0  0  0  0  0  0  0
    5.3086    3.5356    0.0000 C   0  0  0  0  0  0  0  0  0  0  0  0
    5.4897    5.2581    0.0000 C   0  0  0  0  0  0  0  0  0  0  0  0
    4.4394   -1.9036    0.0000 H   0  0  0  0  0  0  0  0  0  0  0  0
    3.6684    0.4692    0.0000 H   0  0  0  0  0  0  0  0  0  0  0  0
    5.5962   -0.6523    0.0000 H   0  0  0  0  0  0  0  0  0  0  0  0
    5.3398    0.1369    0.0000 H   0  0  0  0  0  0  0  0  0  0  0  0
    3.1144   -1.4800    0.0000 H   0  0  0  0  0  0  0  0  0  0  0  0
    3.7856   -1.9677    0.0000 H   0  0  0  0  0  0  0  0  0  0  0  0
    2.9734   -0.8385    0.0000 H   0  0  0  0  0  0  0  0  0  0  0  0
    5.8226   -2.5068    0.0000 H   0  0  0  0  0  0  0  0  0  0  0  0
    5.7393   -1.7142    0.0000 H   0  0  0  0  0  0  0  0  0  0  0  0
    4.3879   -2.7270    0.0000 H   0  0  0  0  0  0  0  0  0  0  0  0
    4.4712   -3.5197    0.0000 H   0  0  0  0  0  0  0  0  0  0  0  0
    2.0000   -0.5059    0.0000 H   0  0  0  0  0  0  0  0  0  0  0  0
    5.6195    1.5839    0.0000 H   0  0  0  0  0  0  0  0  0  0  0  0
    5.8253   -5.2581    0.0000 H   0  0  0  0  0  0  0  0  0  0  0  0
    4.1142   -4.2183    0.0000 H   0  0  0  0  0  0  0  0  0  0  0  0
    5.9912    4.8937    0.0000 H   0  0  0  0  0  0  0  0  0  0  0  0
    5.8541    5.7597    0.0000 H   0  0  0  0  0  0  0  0  0  0  0  0
    4.9881    5.6226    0.0000 H   0  0  0  0  0  0  0  0  0  0  0  0
  1  3  1  0  0  0  0
  1  4  1  0  0  0  0
  1  5  2  0  0  0  0
  1 17  1  0  0  0  0
 15  2  1  1  0  0  0
  2 33  1  0  0  0  0
  3 35  1  0  0  0  0
  4 36  1  0  0  0  0
  6 20  1  0  0  0  0
  6 21  1  0  0  0  0
  7 20  2  0  0  0  0
  8  9  1  0  0  0  0
 12  8  1  6  0  0  0
  8 18  1  0  0  0  0
  9 10  2  0  0  0  0
 10 19  1  0  0  0  0
 11 13  1  0  0  0  0
 11 14  1  0  0  0  0
 11 16  1  6  0  0  0
 11 22  1  0  0  0  0
 12 13  1  0  0  0  0
 12 15  1  0  0  0  0
 12 23  1  0  0  0  0
 13 24  1  0  0  0  0
 13 25  1  0  0  0  0
 14 15  1  0  0  0  0
 14 26  1  0  0  0  0
 14 27  1  0  0  0  0
 15 28  1  0  0  0  0
 16 17  1  0  0  0  0
 16 29  1  0  0  0  0
 16 30  1  0  0  0  0
 17 31  1  0  0  0  0
 17 32  1  0  0  0  0
 18 19  2  0  0  0  0
 18 34  1  0  0  0  0
 19 20  1  0  0  0  0
 21 37  1  0  0  0  0
 21 38  1  0  0  0  0
 21 39  1  0  0  0  0
M  END
> <PUBCHEM_COMPOUND_CID>
512769
> <PUBCHEM_COMPOUND_CANONICALIZED>
1
> <PUBCHEM_CACTVS_COMPLEXITY>
430
> <PUBCHEM_CACTVS_HBOND_ACCEPTOR>
8
> <PUBCHEM_CACTVS_HBOND_DONOR>
3
> <PUBCHEM_CACTVS_ROTATABLE_BOND>
6
> <PUBCHEM_CACTVS_SUBSKEYS>
AAADceBzOAIAAAAAAAAAAAAAAAAAAeIAAAAAAAAAAAAAAAABgAAAHggICCAADTzplgYuiBIIBhCqQRT3TIQABAQXkgAQUAG4eEACVApAoAgVQIAGAADQIMGQ0AIOAAAAAAAAAAAAAAAAAAAAAKAAAAgAAA==
> <PUBCHEM_IUPAC_OPENEYE_NAME>
2-[(1S,3R,4R)-3-hydroxy-4-(4-methoxycarbonyltriazol-1-yl)cyclopentyl]ethylphosphonic acid
> <PUBCHEM_IUPAC_CAS_NAME>
2-[(1S,3R,4R)-3-hydroxy-4-(4-methoxycarbonyl-1-triazolyl)cyclopentyl]ethylphosphonic acid
> <PUBCHEM_IUPAC_NAME_MARKUP>
2-[(1<I>S</I>,3<I>R</I>,4<I>R</I>)-3-hydroxy-4-(4-methoxycarbonyltriazol-1-yl)cyclopentyl]ethylphosphonic acid
> <PUBCHEM_IUPAC_NAME>
2-[(1S,3R,4R)-3-hydroxy-4-(4-methoxycarbonyltriazol-1-yl)cyclopentyl]ethylphosphonic acid
> <PUBCHEM_IUPAC_SYSTEMATIC_NAME>
2-[(1S,3R,4R)-3-(4-methoxycarbonyl-1,2,3-triazol-1-yl)-4-oxidanyl-cyclopentyl]ethylphosphonic acid
> <PUBCHEM_IUPAC_TRADITIONAL_NAME>
2-[(1S,3R,4R)-3-(4-carbomethoxytriazol-1-yl)-4-hydroxy-cyclopentyl]ethylphosphonic acid
> <PUBCHEM_IUPAC_INCHI>
InChI=1S/C11H18N3O6P/c1-20-11(16)8-6-14(13-12-8)9-4-7(5-10(9)15)2-3-21(17,18)19/h6-7,9-10,15H,2-5H2,1H3,(H2,17,18,19)/t7-,9+,10+/m0/s1
> <PUBCHEM_IUPAC_INCHIKEY>
ZWFRDUGCTSOVLG-FXBDTBDDSA-N
> <PUBCHEM_XLOGP3_AA>
-1.5
> <PUBCHEM_EXACT_MASS>
319.09332230
> <PUBCHEM_MOLECULAR_FORMULA>
C11H18N3O6P
> <PUBCHEM_MOLECULAR_WEIGHT>
319.25
> <PUBCHEM_OPENEYE_CAN_SMILES>
COC(=O)C1=CN(N=N1)C2CC(CC2O)CCP(=O)(O)O
> <PUBCHEM_OPENEYE_ISO_SMILES>
COC(=O)C1=CN(N=N1)[C@@H]2C[C@@H](C[C@H]2O)CCP(=O)(O)O
> <PUBCHEM_CACTVS_TPSA>
135
> <PUBCHEM_MONOISOTOPIC_WEIGHT>
319.09332230
> <PUBCHEM_TOTAL_CHARGE>
0
> <PUBCHEM_HEAVY_ATOM_COUNT>
21
> <PUBCHEM_ATOM_DEF_STEREO_COUNT>
3
> <PUBCHEM_ATOM_UDEF_STEREO_COUNT>
0
> <PUBCHEM_BOND_DEF_STEREO_COUNT>
0
> <PUBCHEM_BOND_UDEF_STEREO_COUNT>
0
> <PUBCHEM_ISOTOPIC_ATOM_COUNT>
0
> <PUBCHEM_COMPONENT_COUNT>
1
> <PUBCHEM_CACTVS_TAUTO_COUNT>
-1
> <PUBCHEM_COORDINATE_TYPE>
1
5
255
> <PUBCHEM_BONDANNOTATIONS>
10  19  8
11  16  6
18  19  8
15  2  5
12  8  6
8  18  8
8  9  8
9  10  8
$$$$
