512777
  -OEChem-10302200282D
 49 52  0     1  0  0  0  0  0999 V2000
    8.6651   -2.0004    0.0000 F   0  0  0  0  0  0  0  0  0  0  0  0
   10.1464    2.1696    0.0000 O   0  0  0  0  0  0  0  0  0  0  0  0
    5.1350   -2.9763    0.0000 O   0  0  0  0  0  0  0  0  0  0  0  0
    2.5369   -1.4763    0.0000 O   0  0  0  0  0  0  0  0  0  0  0  0
    3.4030   -2.9763    0.0000 O   0  0  0  0  0  0  0  0  0  0  0  0
    8.6651    0.0479    0.0000 N   0  0  3  0  0  0  0  0  0  0  0  0
    6.0010   -1.4763    0.0000 N   0  0  0  0  0  0  0  0  0  0  0  0
   11.2414    0.2897    0.0000 N   0  0  0  0  0  0  0  0  0  0  0  0
    5.1350    1.0237    0.0000 C   0  0  0  0  0  0  0  0  0  0  0  0
    5.6350    1.8897    0.0000 C   0  0  0  0  0  0  0  0  0  0  0  0
    4.6350    1.8897    0.0000 C   0  0  0  0  0  0  0  0  0  0  0  0
    5.1350    0.0237    0.0000 C   0  0  0  0  0  0  0  0  0  0  0  0
   10.2465    0.3904    0.0000 C   0  0  3  0  0  0  0  0  0  0  0  0
    9.7432    1.2544    0.0000 C   0  0  3  0  0  0  0  0  0  0  0  0
    6.0010   -0.4763    0.0000 C   0  0  0  0  0  0  0  0  0  0  0  0
    9.5802   -0.3554    0.0000 C   0  0  0  0  0  0  0  0  0  0  0  0
    8.7658    1.0428    0.0000 C   0  0  0  0  0  0  0  0  0  0  0  0
    7.8010   -0.4555    0.0000 C   0  0  0  0  0  0  0  0  0  0  0  0
    6.8950    0.0584    0.0000 C   0  0  0  0  0  0  0  0  0  0  0  0
    4.2690   -0.4763    0.0000 C   0  0  0  0  0  0  0  0  0  0  0  0
    7.8010   -1.4971    0.0000 C   0  0  0  0  0  0  0  0  0  0  0  0
    6.8950   -2.0110    0.0000 C   0  0  0  0  0  0  0  0  0  0  0  0
    4.2690   -1.4763    0.0000 C   0  0  0  0  0  0  0  0  0  0  0  0
    5.1350   -1.9763    0.0000 C   0  0  0  0  0  0  0  0  0  0  0  0
    6.8834    1.0583    0.0000 C   0  0  0  0  0  0  0  0  0  0  0  0
    9.5555    2.9763    0.0000 C   0  0  0  0  0  0  0  0  0  0  0  0
    3.4030   -1.9763    0.0000 C   0  0  0  0  0  0  0  0  0  0  0  0
    5.7339    0.8632    0.0000 H   0  0  0  0  0  0  0  0  0  0  0  0
    6.2176    1.6777    0.0000 H   0  0  0  0  0  0  0  0  0  0  0  0
    5.7427    2.5003    0.0000 H   0  0  0  0  0  0  0  0  0  0  0  0
    4.5274    2.5003    0.0000 H   0  0  0  0  0  0  0  0  0  0  0  0
    4.0524    1.6777    0.0000 H   0  0  0  0  0  0  0  0  0  0  0  0
   10.5822    0.9116    0.0000 H   0  0  0  0  0  0  0  0  0  0  0  0
    9.3511    1.7348    0.0000 H   0  0  0  0  0  0  0  0  0  0  0  0
    9.2723   -0.8935    0.0000 H   0  0  0  0  0  0  0  0  0  0  0  0
   10.0832   -0.7179    0.0000 H   0  0  0  0  0  0  0  0  0  0  0  0
    8.6986    1.6591    0.0000 H   0  0  0  0  0  0  0  0  0  0  0  0
    8.1458    1.0404    0.0000 H   0  0  0  0  0  0  0  0  0  0  0  0
    3.7320   -0.1663    0.0000 H   0  0  0  0  0  0  0  0  0  0  0  0
    6.8878   -2.6309    0.0000 H   0  0  0  0  0  0  0  0  0  0  0  0
   11.4958   -0.2758    0.0000 H   0  0  0  0  0  0  0  0  0  0  0  0
   11.6039    0.7927    0.0000 H   0  0  0  0  0  0  0  0  0  0  0  0
    7.5034    1.0655    0.0000 H   0  0  0  0  0  0  0  0  0  0  0  0
    6.8762    1.6782    0.0000 H   0  0  0  0  0  0  0  0  0  0  0  0
    6.2635    1.0511    0.0000 H   0  0  0  0  0  0  0  0  0  0  0  0
   10.0557    3.3427    0.0000 H   0  0  0  0  0  0  0  0  0  0  0  0
    9.1891    3.4765    0.0000 H   0  0  0  0  0  0  0  0  0  0  0  0
    9.0553    2.6099    0.0000 H   0  0  0  0  0  0  0  0  0  0  0  0
    2.0000   -1.7863    0.0000 H   0  0  0  0  0  0  0  0  0  0  0  0
  1 21  1  0  0  0  0
  2 14  1  0  0  0  0
  2 26  1  0  0  0  0
  3 24  2  0  0  0  0
  4 27  1  0  0  0  0
  4 49  1  0  0  0  0
  5 27  2  0  0  0  0
  6 16  1  0  0  0  0
  6 17  1  0  0  0  0
  6 18  1  0  0  0  0
  7 15  1  0  0  0  0
  7 22  1  0  0  0  0
  7 24  1  0  0  0  0
  8 13  1  0  0  0  0
  8 41  1  0  0  0  0
  8 42  1  0  0  0  0
  9 10  1  0  0  0  0
  9 11  1  0  0  0  0
  9 12  1  0  0  0  0
  9 28  1  0  0  0  0
 10 11  1  0  0  0  0
 10 29  1  0  0  0  0
 10 30  1  0  0  0  0
 11 31  1  0  0  0  0
 11 32  1  0  0  0  0
 12 15  2  0  0  0  0
 12 20  1  0  0  0  0
 13 14  1  0  0  0  0
 13 16  1  0  0  0  0
 13 33  1  0  0  0  0
 14 17  1  0  0  0  0
 14 34  1  0  0  0  0
 15 19  1  0  0  0  0
 16 35  1  0  0  0  0
 16 36  1  0  0  0  0
 17 37  1  0  0  0  0
 17 38  1  0  0  0  0
 18 19  2  0  0  0  0
 18 21  1  0  0  0  0
 19 25  1  0  0  0  0
 20 23  2  0  0  0  0
 20 39  1  0  0  0  0
 21 22  2  0  0  0  0
 22 40  1  0  0  0  0
 23 24  1  0  0  0  0
 23 27  1  0  0  0  0
 25 43  1  0  0  0  0
 25 44  1  0  0  0  0
 25 45  1  0  0  0  0
 26 46  1  0  0  0  0
 26 47  1  0  0  0  0
 26 48  1  0  0  0  0
M  END
> <PUBCHEM_COMPOUND_CID>
512777
> <PUBCHEM_COMPOUND_CANONICALIZED>
1
> <PUBCHEM_CACTVS_COMPLEXITY>
853
> <PUBCHEM_CACTVS_HBOND_ACCEPTOR>
7
> <PUBCHEM_CACTVS_HBOND_DONOR>
2
> <PUBCHEM_CACTVS_ROTATABLE_BOND>
4
> <PUBCHEM_CACTVS_SUBSKEYS>
AAADceB7OQAAAAAAAAAAAAAAGAAAAWAAAAAgQAAAAAAAAACAAAAAHwAQCAAADTzhgAYCCANABgCIAiXWWACAAAAgAAAACIEIAEgKRA4IwAAVUAACtgCYkYIAAAAIAAAAAAAAAAAAAAAAAAAAAAAAAAAAAA==
> <PUBCHEM_IUPAC_OPENEYE_NAME>
8-(3-amino-4-methoxy-pyrrolidin-1-yl)-1-cyclopropyl-7-fluoro-9-methyl-4-oxo-quinolizine-3-carboxylic acid
> <PUBCHEM_IUPAC_CAS_NAME>
8-(3-amino-4-methoxy-1-pyrrolidinyl)-1-cyclopropyl-7-fluoro-9-methyl-4-oxo-3-quinolizinecarboxylic acid
> <PUBCHEM_IUPAC_NAME_MARKUP>
8-(3-amino-4-methoxypyrrolidin-1-yl)-1-cyclopropyl-7-fluoro-9-methyl-4-oxoquinolizine-3-carboxylic acid
> <PUBCHEM_IUPAC_NAME>
8-(3-amino-4-methoxypyrrolidin-1-yl)-1-cyclopropyl-7-fluoro-9-methyl-4-oxoquinolizine-3-carboxylic acid
> <PUBCHEM_IUPAC_SYSTEMATIC_NAME>
8-(3-azanyl-4-methoxy-pyrrolidin-1-yl)-1-cyclopropyl-7-fluoranyl-9-methyl-4-oxidanylidene-quinolizine-3-carboxylic acid
> <PUBCHEM_IUPAC_TRADITIONAL_NAME>
8-(3-amino-4-methoxy-pyrrolidino)-1-cyclopropyl-7-fluoro-4-keto-9-methyl-quinolizine-3-carboxylic acid
> <PUBCHEM_IUPAC_INCHI>
InChI=1S/C19H22FN3O4/c1-9-16-11(10-3-4-10)5-12(19(25)26)18(24)23(16)6-13(20)17(9)22-7-14(21)15(8-22)27-2/h5-6,10,14-15H,3-4,7-8,21H2,1-2H3,(H,25,26)
> <PUBCHEM_IUPAC_INCHIKEY>
OONBFUUKWHOVMZ-UHFFFAOYSA-N
> <PUBCHEM_XLOGP3_AA>
-1.8
> <PUBCHEM_EXACT_MASS>
375.15943435
> <PUBCHEM_MOLECULAR_FORMULA>
C19H22FN3O4
> <PUBCHEM_MOLECULAR_WEIGHT>
375.4
> <PUBCHEM_OPENEYE_CAN_SMILES>
CC1=C(C(=CN2C1=C(C=C(C2=O)C(=O)O)C3CC3)F)N4CC(C(C4)OC)N
> <PUBCHEM_OPENEYE_ISO_SMILES>
CC1=C(C(=CN2C1=C(C=C(C2=O)C(=O)O)C3CC3)F)N4CC(C(C4)OC)N
> <PUBCHEM_CACTVS_TPSA>
96.1
> <PUBCHEM_MONOISOTOPIC_WEIGHT>
375.15943435
> <PUBCHEM_TOTAL_CHARGE>
0
> <PUBCHEM_HEAVY_ATOM_COUNT>
27
> <PUBCHEM_ATOM_DEF_STEREO_COUNT>
0
> <PUBCHEM_ATOM_UDEF_STEREO_COUNT>
2
> <PUBCHEM_BOND_DEF_STEREO_COUNT>
0
> <PUBCHEM_BOND_UDEF_STEREO_COUNT>
0
> <PUBCHEM_ISOTOPIC_ATOM_COUNT>
0
> <PUBCHEM_COMPONENT_COUNT>
1
> <PUBCHEM_CACTVS_TAUTO_COUNT>
-1
> <PUBCHEM_COORDINATE_TYPE>
1
5
255
> <PUBCHEM_BONDANNOTATIONS>
12  15  8
12  20  8
15  19  8
18  19  8
18  21  8
14  2  3
20  23  8
21  22  8
23  24  8
7  15  8
7  22  8
7  24  8
13  8  3
$$$$
