512783
  -OEChem-10302200282D
 67 69  0     1  0  0  0  0  0999 V2000
    6.6713    0.0000    0.0000 Cl  0  0  0  0  0  0  0  0  0  0  0  0
    6.6651    3.4895    0.0000 F   0  0  0  0  0  0  0  0  0  0  0  0
    3.1350    2.5137    0.0000 O   0  0  0  0  0  0  0  0  0  0  0  0
    9.4158    7.5029    0.0000 O   0  0  0  0  0  0  0  0  0  0  0  0
    0.5369    4.0137    0.0000 O   0  0  0  0  0  0  0  0  0  0  0  0
    1.4030    2.5137    0.0000 O   0  0  0  0  0  0  0  0  0  0  0  0
   12.8108    6.2888    0.0000 O   0  0  0  0  0  0  0  0  0  0  0  0
    6.6651    5.5378    0.0000 N   0  0  3  0  0  0  0  0  0  0  0  0
    4.0010    4.0137    0.0000 N   0  0  0  0  0  0  0  0  0  0  0  0
    9.2414    5.7797    0.0000 N   0  0  0  0  0  0  0  0  0  0  0  0
   11.4057    7.3015    0.0000 N   0  0  0  0  0  0  0  0  0  0  0  0
   13.9802    7.9114    0.0000 N   0  0  0  0  0  0  0  0  0  0  0  0
    3.1350    6.5137    0.0000 C   0  0  0  0  0  0  0  0  0  0  0  0
    3.6350    7.3797    0.0000 C   0  0  0  0  0  0  0  0  0  0  0  0
    2.6350    7.3797    0.0000 C   0  0  0  0  0  0  0  0  0  0  0  0
    3.1350    5.5137    0.0000 C   0  0  0  0  0  0  0  0  0  0  0  0
    4.0010    5.0137    0.0000 C   0  0  0  0  0  0  0  0  0  0  0  0
    8.2465    5.8804    0.0000 C   0  0  2  0  0  0  0  0  0  0  0  0
    7.5802    5.1346    0.0000 C   0  0  0  0  0  0  0  0  0  0  0  0
    7.7432    6.7444    0.0000 C   0  0  0  0  0  0  0  0  0  0  0  0
    6.7658    6.5328    0.0000 C   0  0  0  0  0  0  0  0  0  0  0  0
    4.8950    5.5484    0.0000 C   0  0  0  0  0  0  0  0  0  0  0  0
    5.8010    5.0345    0.0000 C   0  0  0  0  0  0  0  0  0  0  0  0
    2.2690    5.0137    0.0000 C   0  0  0  0  0  0  0  0  0  0  0  0
    5.8010    3.9929    0.0000 C   0  0  0  0  0  0  0  0  0  0  0  0
    2.2690    4.0137    0.0000 C   0  0  0  0  0  0  0  0  0  0  0  0
    4.8950    3.4790    0.0000 C   0  0  0  0  0  0  0  0  0  0  0  0
    3.1350    3.5137    0.0000 C   0  0  0  0  0  0  0  0  0  0  0  0
    4.8834    6.5483    0.0000 C   0  0  0  0  0  0  0  0  0  0  0  0
    9.8261    6.5909    0.0000 C   0  0  0  0  0  0  0  0  0  0  0  0
    1.4030    3.5137    0.0000 C   0  0  0  0  0  0  0  0  0  0  0  0
   10.8210    6.4902    0.0000 C   0  0  2  0  0  0  0  0  0  0  0  0
   11.2313    5.5783    0.0000 C   0  0  0  0  0  0  0  0  0  0  0  0
   12.4006    7.2008    0.0000 C   0  0  0  0  0  0  0  0  0  0  0  0
   12.9852    8.0121    0.0000 C   0  0  2  0  0  0  0  0  0  0  0  0
   12.5750    8.9241    0.0000 C   0  0  0  0  0  0  0  0  0  0  0  0
    2.5361    6.3532    0.0000 H   0  0  0  0  0  0  0  0  0  0  0  0
    4.2176    7.1677    0.0000 H   0  0  0  0  0  0  0  0  0  0  0  0
    3.7427    7.9903    0.0000 H   0  0  0  0  0  0  0  0  0  0  0  0
    2.5274    7.9903    0.0000 H   0  0  0  0  0  0  0  0  0  0  0  0
    2.0524    7.1677    0.0000 H   0  0  0  0  0  0  0  0  0  0  0  0
    8.5822    6.4016    0.0000 H   0  0  0  0  0  0  0  0  0  0  0  0
    7.2723    4.5965    0.0000 H   0  0  0  0  0  0  0  0  0  0  0  0
    8.0832    4.7721    0.0000 H   0  0  0  0  0  0  0  0  0  0  0  0
    8.3086    6.9988    0.0000 H   0  0  0  0  0  0  0  0  0  0  0  0
    7.5493    7.3334    0.0000 H   0  0  0  0  0  0  0  0  0  0  0  0
    6.6986    7.1491    0.0000 H   0  0  0  0  0  0  0  0  0  0  0  0
    6.1458    6.5304    0.0000 H   0  0  0  0  0  0  0  0  0  0  0  0
    1.7320    5.3237    0.0000 H   0  0  0  0  0  0  0  0  0  0  0  0
    9.4958    5.2142    0.0000 H   0  0  0  0  0  0  0  0  0  0  0  0
    4.8878    2.8591    0.0000 H   0  0  0  0  0  0  0  0  0  0  0  0
    5.5034    6.5555    0.0000 H   0  0  0  0  0  0  0  0  0  0  0  0
    4.8762    7.1682    0.0000 H   0  0  0  0  0  0  0  0  0  0  0  0
    4.2635    6.5411    0.0000 H   0  0  0  0  0  0  0  0  0  0  0  0
   11.4379    6.4278    0.0000 H   0  0  0  0  0  0  0  0  0  0  0  0
   10.6658    5.3239    0.0000 H   0  0  0  0  0  0  0  0  0  0  0  0
   11.4856    5.0128    0.0000 H   0  0  0  0  0  0  0  0  0  0  0  0
   11.7967    5.8326    0.0000 H   0  0  0  0  0  0  0  0  0  0  0  0
   11.1513    7.8669    0.0000 H   0  0  0  0  0  0  0  0  0  0  0  0
    0.0000    3.7037    0.0000 H   0  0  0  0  0  0  0  0  0  0  0  0
   13.2396    7.4467    0.0000 H   0  0  0  0  0  0  0  0  0  0  0  0
   13.1404    9.1784    0.0000 H   0  0  0  0  0  0  0  0  0  0  0  0
   12.3206    9.4895    0.0000 H   0  0  0  0  0  0  0  0  0  0  0  0
   12.0096    8.6697    0.0000 H   0  0  0  0  0  0  0  0  0  0  0  0
   14.3427    8.4144    0.0000 H   0  0  0  0  0  0  0  0  0  0  0  0
   14.2345    7.3460    0.0000 H   0  0  0  0  0  0  0  0  0  0  0  0
    7.6713    0.0000    0.0000 H   0  0  0  0  0  0  0  0  0  0  0  0
  1 67  1  0  0  0  0
  2 25  1  0  0  0  0
  3 28  2  0  0  0  0
  4 30  2  0  0  0  0
  5 31  1  0  0  0  0
  5 60  1  0  0  0  0
  6 31  2  0  0  0  0
  7 34  2  0  0  0  0
  8 19  1  0  0  0  0
  8 21  1  0  0  0  0
  8 23  1  0  0  0  0
  9 17  1  0  0  0  0
  9 27  1  0  0  0  0
  9 28  1  0  0  0  0
 18 10  1  6  0  0  0
 10 30  1  0  0  0  0
 10 50  1  0  0  0  0
 32 11  1  1  0  0  0
 11 34  1  0  0  0  0
 11 59  1  0  0  0  0
 35 12  1  6  0  0  0
 12 65  1  0  0  0  0
 12 66  1  0  0  0  0
 13 14  1  0  0  0  0
 13 15  1  0  0  0  0
 13 16  1  0  0  0  0
 13 37  1  0  0  0  0
 14 15  1  0  0  0  0
 14 38  1  0  0  0  0
 14 39  1  0  0  0  0
 15 40  1  0  0  0  0
 15 41  1  0  0  0  0
 16 17  2  0  0  0  0
 16 24  1  0  0  0  0
 17 22  1  0  0  0  0
 18 19  1  0  0  0  0
 18 20  1  0  0  0  0
 18 42  1  0  0  0  0
 19 43  1  0  0  0  0
 19 44  1  0  0  0  0
 20 21  1  0  0  0  0
 20 45  1  0  0  0  0
 20 46  1  0  0  0  0
 21 47  1  0  0  0  0
 21 48  1  0  0  0  0
 22 23  2  0  0  0  0
 22 29  1  0  0  0  0
 23 25  1  0  0  0  0
 24 26  2  0  0  0  0
 24 49  1  0  0  0  0
 25 27  2  0  0  0  0
 26 28  1  0  0  0  0
 26 31  1  0  0  0  0
 27 51  1  0  0  0  0
 29 52  1  0  0  0  0
 29 53  1  0  0  0  0
 29 54  1  0  0  0  0
 30 32  1  0  0  0  0
 32 33  1  0  0  0  0
 32 55  1  0  0  0  0
 33 56  1  0  0  0  0
 33 57  1  0  0  0  0
 33 58  1  0  0  0  0
 34 35  1  0  0  0  0
 35 36  1  0  0  0  0
 35 61  1  0  0  0  0
 36 62  1  0  0  0  0
 36 63  1  0  0  0  0
 36 64  1  0  0  0  0
M  END
> <PUBCHEM_COMPOUND_CID>
512783
> <PUBCHEM_COMPOUND_CANONICALIZED>
1
> <PUBCHEM_CACTVS_COMPLEXITY>
1120
> <PUBCHEM_CACTVS_HBOND_ACCEPTOR>
8
> <PUBCHEM_CACTVS_HBOND_DONOR>
5
> <PUBCHEM_CACTVS_ROTATABLE_BOND>
7
> <PUBCHEM_CACTVS_SUBSKEYS>
AAADceB7uQAEAAAAAAAAAAAAGAAAAWAAAAAgQAAAAAAAAACAAAAAHwAQCAAADSjBgAQCCAPAAgCIAiXWWACAAAAgAAAACIGIAEgIRA4IwCAUUAACtgCIkYIAAAAIAAAAAAAAAAAAAAAAAAAAAAAAAAAAAA==
> <PUBCHEM_IUPAC_OPENEYE_NAME>
8-[(3S)-3-[[(2S)-2-[[(2S)-2-aminopropanoyl]amino]propanoyl]amino]pyrrolidin-1-yl]-1-cyclopropyl-7-fluoro-9-methyl-4-oxo-quinolizine-3-carboxylic acid;hydrochloride
> <PUBCHEM_IUPAC_CAS_NAME>
8-[(3S)-3-[[(2S)-2-[[(2S)-2-amino-1-oxopropyl]amino]-1-oxopropyl]amino]-1-pyrrolidinyl]-1-cyclopropyl-7-fluoro-9-methyl-4-oxo-3-quinolizinecarboxylic acid;hydrochloride
> <PUBCHEM_IUPAC_NAME_MARKUP>
8-[(3<I>S</I>)-3-[[(2<I>S</I>)-2-[[(2<I>S</I>)-2-aminopropanoyl]amino]propanoyl]amino]pyrrolidin-1-yl]-1-cyclopropyl-7-fluoro-9-methyl-4-oxoquinolizine-3-carboxylic acid;hydrochloride
> <PUBCHEM_IUPAC_NAME>
8-[(3S)-3-[[(2S)-2-[[(2S)-2-aminopropanoyl]amino]propanoyl]amino]pyrrolidin-1-yl]-1-cyclopropyl-7-fluoro-9-methyl-4-oxoquinolizine-3-carboxylic acid;hydrochloride
> <PUBCHEM_IUPAC_SYSTEMATIC_NAME>
8-[(3S)-3-[[(2S)-2-[[(2S)-2-azanylpropanoyl]amino]propanoyl]amino]pyrrolidin-1-yl]-1-cyclopropyl-7-fluoranyl-9-methyl-4-oxidanylidene-quinolizine-3-carboxylic acid;hydrochloride
> <PUBCHEM_IUPAC_TRADITIONAL_NAME>
8-[(3S)-3-[[(2S)-2-[[(2S)-2-aminopropanoyl]amino]propanoyl]amino]pyrrolidino]-1-cyclopropyl-7-fluoro-4-keto-9-methyl-quinolizine-3-carboxylic acid;hydrochloride
> <PUBCHEM_IUPAC_INCHI>
InChI=1S/C24H30FN5O5.ClH/c1-11-19-16(14-4-5-14)8-17(24(34)35)23(33)30(19)10-18(25)20(11)29-7-6-15(9-29)28-22(32)13(3)27-21(31)12(2)26;/h8,10,12-15H,4-7,9,26H2,1-3H3,(H,27,31)(H,28,32)(H,34,35);1H/t12-,13-,15-;/m0./s1
> <PUBCHEM_IUPAC_INCHIKEY>
SJEIIEXNNLAJSP-HZPCBCDKSA-N
> <PUBCHEM_EXACT_MASS>
523.1997750
> <PUBCHEM_MOLECULAR_FORMULA>
C24H31ClFN5O5
> <PUBCHEM_MOLECULAR_WEIGHT>
524.0
> <PUBCHEM_OPENEYE_CAN_SMILES>
CC1=C(C(=CN2C1=C(C=C(C2=O)C(=O)O)C3CC3)F)N4CCC(C4)NC(=O)C(C)NC(=O)C(C)N.Cl
> <PUBCHEM_OPENEYE_ISO_SMILES>
CC1=C(C(=CN2C1=C(C=C(C2=O)C(=O)O)C3CC3)F)N4CC[C@@H](C4)NC(=O)[C@H](C)NC(=O)[C@H](C)N.Cl
> <PUBCHEM_CACTVS_TPSA>
145
> <PUBCHEM_MONOISOTOPIC_WEIGHT>
523.1997750
> <PUBCHEM_TOTAL_CHARGE>
0
> <PUBCHEM_HEAVY_ATOM_COUNT>
36
> <PUBCHEM_ATOM_DEF_STEREO_COUNT>
3
> <PUBCHEM_ATOM_UDEF_STEREO_COUNT>
0
> <PUBCHEM_BOND_DEF_STEREO_COUNT>
0
> <PUBCHEM_BOND_UDEF_STEREO_COUNT>
0
> <PUBCHEM_ISOTOPIC_ATOM_COUNT>
0
> <PUBCHEM_COMPONENT_COUNT>
2
> <PUBCHEM_CACTVS_TAUTO_COUNT>
-1
> <PUBCHEM_COORDINATE_TYPE>
1
5
255
> <PUBCHEM_BONDANNOTATIONS>
18  10  6
32  11  5
35  12  6
16  17  8
16  24  8
17  22  8
22  23  8
23  25  8
24  26  8
25  27  8
26  28  8
9  17  8
9  27  8
9  28  8
$$$$
