512771
  -OEChem-10302200282D
 39 40  0     1  0  0  0  0  0999 V2000
    5.4897   -3.7290    0.0000 P   0  0  0  0  0  0  0  0  0  0  0  0
    2.4608    0.0627    0.0000 O   0  0  0  0  0  0  0  0  0  0  0  0
    6.0774   -4.5380    0.0000 O   0  0  0  0  0  0  0  0  0  0  0  0
    4.6806   -4.3168    0.0000 O   0  0  0  0  0  0  0  0  0  0  0  0
    6.2987   -3.1412    0.0000 O   0  0  0  0  0  0  0  0  0  0  0  0
    2.1385    3.5848    0.0000 O   0  0  0  0  0  0  0  0  0  0  0  0
    4.2208    1.3414    0.0000 N   0  0  0  0  0  0  0  0  0  0  0  0
    5.0298    1.9292    0.0000 N   0  0  0  0  0  0  0  0  0  0  0  0
    4.7208    2.8803    0.0000 N   0  0  0  0  0  0  0  0  0  0  0  0
    2.4608    1.6202    0.0000 N   0  0  0  0  0  0  0  0  0  0  0  0
    3.5398    4.6028    0.0000 N   0  0  0  0  0  0  0  0  0  0  0  0
    4.7208   -1.1974    0.0000 C   0  0  1  0  0  0  0  0  0  0  0  0
    4.2208    0.3414    0.0000 C   0  0  2  0  0  0  0  0  0  0  0  0
    5.0298   -0.2464    0.0000 C   0  0  0  0  0  0  0  0  0  0  0  0
    3.7208   -1.1974    0.0000 C   0  0  0  0  0  0  0  0  0  0  0  0
    3.4118   -0.2464    0.0000 C   0  0  1  0  0  0  0  0  0  0  0  0
    5.3086   -2.0064    0.0000 C   0  0  0  0  0  0  0  0  0  0  0  0
    4.9019   -2.9200    0.0000 C   0  0  0  0  0  0  0  0  0  0  0  0
    3.4118    1.9292    0.0000 C   0  0  0  0  0  0  0  0  0  0  0  0
    3.7208    2.8803    0.0000 C   0  0  0  0  0  0  0  0  0  0  0  0
    3.1330    3.6893    0.0000 C   0  0  0  0  0  0  0  0  0  0  0  0
    4.4394   -1.7498    0.0000 H   0  0  0  0  0  0  0  0  0  0  0  0
    3.6684    0.6229    0.0000 H   0  0  0  0  0  0  0  0  0  0  0  0
    5.5962   -0.4985    0.0000 H   0  0  0  0  0  0  0  0  0  0  0  0
    5.3398    0.2906    0.0000 H   0  0  0  0  0  0  0  0  0  0  0  0
    3.1144   -1.3263    0.0000 H   0  0  0  0  0  0  0  0  0  0  0  0
    3.7856   -1.8140    0.0000 H   0  0  0  0  0  0  0  0  0  0  0  0
    2.9734   -0.6848    0.0000 H   0  0  0  0  0  0  0  0  0  0  0  0
    5.8226   -2.3531    0.0000 H   0  0  0  0  0  0  0  0  0  0  0  0
    5.7393   -1.5604    0.0000 H   0  0  0  0  0  0  0  0  0  0  0  0
    4.3879   -2.5733    0.0000 H   0  0  0  0  0  0  0  0  0  0  0  0
    4.4712   -3.3660    0.0000 H   0  0  0  0  0  0  0  0  0  0  0  0
    2.0000   -0.3522    0.0000 H   0  0  0  0  0  0  0  0  0  0  0  0
    2.0000    2.0350    0.0000 H   0  0  0  0  0  0  0  0  0  0  0  0
    2.3318    1.0137    0.0000 H   0  0  0  0  0  0  0  0  0  0  0  0
    5.8253   -5.1044    0.0000 H   0  0  0  0  0  0  0  0  0  0  0  0
    4.1142   -4.0646    0.0000 H   0  0  0  0  0  0  0  0  0  0  0  0
    3.1754    5.1044    0.0000 H   0  0  0  0  0  0  0  0  0  0  0  0
    4.1564    4.6676    0.0000 H   0  0  0  0  0  0  0  0  0  0  0  0
  1  3  1  0  0  0  0
  1  4  1  0  0  0  0
  1  5  2  0  0  0  0
  1 18  1  0  0  0  0
 16  2  1  1  0  0  0
  2 33  1  0  0  0  0
  3 36  1  0  0  0  0
  4 37  1  0  0  0  0
  6 21  2  0  0  0  0
  7  8  1  0  0  0  0
 13  7  1  6  0  0  0
  7 19  1  0  0  0  0
  8  9  2  0  0  0  0
  9 20  1  0  0  0  0
 10 19  1  0  0  0  0
 10 34  1  0  0  0  0
 10 35  1  0  0  0  0
 11 21  1  0  0  0  0
 11 38  1  0  0  0  0
 11 39  1  0  0  0  0
 12 14  1  0  0  0  0
 12 15  1  0  0  0  0
 12 17  1  6  0  0  0
 12 22  1  0  0  0  0
 13 14  1  0  0  0  0
 13 16  1  0  0  0  0
 13 23  1  0  0  0  0
 14 24  1  0  0  0  0
 14 25  1  0  0  0  0
 15 16  1  0  0  0  0
 15 26  1  0  0  0  0
 15 27  1  0  0  0  0
 16 28  1  0  0  0  0
 17 18  1  0  0  0  0
 17 29  1  0  0  0  0
 17 30  1  0  0  0  0
 18 31  1  0  0  0  0
 18 32  1  0  0  0  0
 19 20  2  0  0  0  0
 20 21  1  0  0  0  0
M  END
> <PUBCHEM_COMPOUND_CID>
512771
> <PUBCHEM_COMPOUND_CANONICALIZED>
1
> <PUBCHEM_CACTVS_COMPLEXITY>
446
> <PUBCHEM_CACTVS_HBOND_ACCEPTOR>
8
> <PUBCHEM_CACTVS_HBOND_DONOR>
5
> <PUBCHEM_CACTVS_ROTATABLE_BOND>
5
> <PUBCHEM_CACTVS_SUBSKEYS>
AAADceBzuAIAAAAAAAAAAAAAAAAAAeIAAAAAAAAAAAAAAAABgAAAHggYCCAADTzplgYBsBJIAhCqQQdwdICABAcHkAAUUAGoVECCUApAwAAUQIAUAALQAEGQ0AIOAAAAAAAAAAAAAAAAAAAAAKAAAAgAAA==
> <PUBCHEM_IUPAC_OPENEYE_NAME>
2-[(1S,3R,4R)-3-(5-amino-4-carbamoyl-triazol-1-yl)-4-hydroxy-cyclopentyl]ethylphosphonic acid
> <PUBCHEM_IUPAC_CAS_NAME>
2-[(1S,3R,4R)-3-(5-amino-4-carbamoyl-1-triazolyl)-4-hydroxycyclopentyl]ethylphosphonic acid
> <PUBCHEM_IUPAC_NAME_MARKUP>
2-[(1<I>S</I>,3<I>R</I>,4<I>R</I>)-3-(5-amino-4-carbamoyltriazol-1-yl)-4-hydroxycyclopentyl]ethylphosphonic acid
> <PUBCHEM_IUPAC_NAME>
2-[(1S,3R,4R)-3-(5-amino-4-carbamoyltriazol-1-yl)-4-hydroxycyclopentyl]ethylphosphonic acid
> <PUBCHEM_IUPAC_SYSTEMATIC_NAME>
2-[(1S,3R,4R)-3-(4-aminocarbonyl-5-azanyl-1,2,3-triazol-1-yl)-4-oxidanyl-cyclopentyl]ethylphosphonic acid
> <PUBCHEM_IUPAC_TRADITIONAL_NAME>
2-[(1S,3R,4R)-3-(5-amino-4-carbamoyl-triazol-1-yl)-4-hydroxy-cyclopentyl]ethylphosphonic acid
> <PUBCHEM_IUPAC_INCHI>
InChI=1S/C10H18N5O5P/c11-9-8(10(12)17)13-14-15(9)6-3-5(4-7(6)16)1-2-21(18,19)20/h5-7,16H,1-4,11H2,(H2,12,17)(H2,18,19,20)/t5-,6+,7+/m0/s1
> <PUBCHEM_IUPAC_INCHIKEY>
JTGFWOWJZVEHNV-RRKCRQDMSA-N
> <PUBCHEM_XLOGP3_AA>
-2.3
> <PUBCHEM_EXACT_MASS>
319.10455569
> <PUBCHEM_MOLECULAR_FORMULA>
C10H18N5O5P
> <PUBCHEM_MOLECULAR_WEIGHT>
319.25
> <PUBCHEM_OPENEYE_CAN_SMILES>
C1C(CC(C1N2C(=C(N=N2)C(=O)N)N)O)CCP(=O)(O)O
> <PUBCHEM_OPENEYE_ISO_SMILES>
C1[C@@H](C[C@H]([C@@H]1N2C(=C(N=N2)C(=O)N)N)O)CCP(=O)(O)O
> <PUBCHEM_CACTVS_TPSA>
178
> <PUBCHEM_MONOISOTOPIC_WEIGHT>
319.10455569
> <PUBCHEM_TOTAL_CHARGE>
0
> <PUBCHEM_HEAVY_ATOM_COUNT>
21
> <PUBCHEM_ATOM_DEF_STEREO_COUNT>
3
> <PUBCHEM_ATOM_UDEF_STEREO_COUNT>
0
> <PUBCHEM_BOND_DEF_STEREO_COUNT>
0
> <PUBCHEM_BOND_UDEF_STEREO_COUNT>
0
> <PUBCHEM_ISOTOPIC_ATOM_COUNT>
0
> <PUBCHEM_COMPONENT_COUNT>
1
> <PUBCHEM_CACTVS_TAUTO_COUNT>
-1
> <PUBCHEM_COORDINATE_TYPE>
1
5
255
> <PUBCHEM_BONDANNOTATIONS>
12  17  6
19  20  8
16  2  5
13  7  6
7  19  8
7  8  8
8  9  8
9  20  8
$$$$
