512713
  -OEChem-10302200282D
 45 47  0     1  0  0  0  0  0999 V2000
    6.6495    1.2942    0.0000 S   0  0  0  0  0  0  0  0  0  0  0  0
    5.9405   -1.2869    0.0000 O   0  0  0  0  0  0  0  0  0  0  0  0
    3.4026   -0.7825    0.0000 O   0  0  0  0  0  0  0  0  0  0  0  0
    8.8740    5.0428    0.0000 O   0  0  0  0  0  0  0  0  0  0  0  0
    7.1511    4.8647    0.0000 O   0  0  0  0  0  0  0  0  0  0  0  0
    4.6783   -2.5448    0.0000 N   0  0  0  0  0  0  0  0  0  0  0  0
    4.6783   -4.1542    0.0000 N   0  0  0  0  0  0  0  0  0  0  0  0
    2.8660   -2.3495    0.0000 N   0  0  0  0  0  0  0  0  0  0  0  0
    2.0000   -3.8495    0.0000 N   0  0  0  0  0  0  0  0  0  0  0  0
    9.0796    3.0534    0.0000 N   0  0  0  0  0  0  0  0  0  0  0  0
    2.8660   -5.3495    0.0000 N   0  0  0  0  0  0  0  0  0  0  0  0
    4.4026   -0.7842    0.0000 C   0  0  1  0  0  0  0  0  0  0  0  0
    4.9889   -1.5942    0.0000 C   0  0  1  0  0  0  0  0  0  0  0  0
    5.9422   -0.2869    0.0000 C   0  0  1  0  0  0  0  0  0  0  0  0
    4.9917    0.0238    0.0000 C   0  0  0  0  0  0  0  0  0  0  0  0
    6.7523    0.2995    0.0000 C   0  0  0  0  0  0  0  0  0  0  0  0
    3.7320   -2.8495    0.0000 C   0  0  0  0  0  0  0  0  0  0  0  0
    5.2619   -3.3495    0.0000 C   0  0  0  0  0  0  0  0  0  0  0  0
    3.7320   -3.8495    0.0000 C   0  0  0  0  0  0  0  0  0  0  0  0
    7.4595    1.8806    0.0000 C   0  0  0  0  0  0  0  0  0  0  0  0
    7.3567    2.8753    0.0000 C   0  0  0  0  0  0  0  0  0  0  0  0
    8.1667    3.4617    0.0000 C   0  0  3  0  0  0  0  0  0  0  0  0
    2.8660   -4.3495    0.0000 C   0  0  0  0  0  0  0  0  0  0  0  0
    2.0000   -2.8495    0.0000 C   0  0  0  0  0  0  0  0  0  0  0  0
    8.0639    4.4564    0.0000 C   0  0  0  0  0  0  0  0  0  0  0  0
    4.1220   -0.2313    0.0000 H   0  0  0  0  0  0  0  0  0  0  0  0
    5.4266   -2.0334    0.0000 H   0  0  0  0  0  0  0  0  0  0  0  0
    6.4942   -0.5693    0.0000 H   0  0  0  0  0  0  0  0  0  0  0  0
    5.2449    0.5898    0.0000 H   0  0  0  0  0  0  0  0  0  0  0  0
    4.4553    0.3347    0.0000 H   0  0  0  0  0  0  0  0  0  0  0  0
    7.0231   -0.2582    0.0000 H   0  0  0  0  0  0  0  0  0  0  0  0
    7.3486    0.4694    0.0000 H   0  0  0  0  0  0  0  0  0  0  0  0
    3.0935   -0.2450    0.0000 H   0  0  0  0  0  0  0  0  0  0  0  0
    5.8819   -3.3495    0.0000 H   0  0  0  0  0  0  0  0  0  0  0  0
    7.7303    1.3229    0.0000 H   0  0  0  0  0  0  0  0  0  0  0  0
    8.0558    2.0505    0.0000 H   0  0  0  0  0  0  0  0  0  0  0  0
    7.0859    3.4330    0.0000 H   0  0  0  0  0  0  0  0  0  0  0  0
    6.7604    2.7054    0.0000 H   0  0  0  0  0  0  0  0  0  0  0  0
    8.2305    2.8450    0.0000 H   0  0  0  0  0  0  0  0  0  0  0  0
    1.4631   -2.5395    0.0000 H   0  0  0  0  0  0  0  0  0  0  0  0
    9.5818    3.4169    0.0000 H   0  0  0  0  0  0  0  0  0  0  0  0
    9.1433    2.4367    0.0000 H   0  0  0  0  0  0  0  0  0  0  0  0
    2.3291   -5.6595    0.0000 H   0  0  0  0  0  0  0  0  0  0  0  0
    3.4030   -5.6595    0.0000 H   0  0  0  0  0  0  0  0  0  0  0  0
    8.8102    5.6595    0.0000 H   0  0  0  0  0  0  0  0  0  0  0  0
  1 16  1  0  0  0  0
  1 20  1  0  0  0  0
  2 13  1  0  0  0  0
  2 14  1  0  0  0  0
 12  3  1  6  0  0  0
  3 33  1  0  0  0  0
  4 25  1  0  0  0  0
  4 45  1  0  0  0  0
  5 25  2  0  0  0  0
 13  6  1  1  0  0  0
  6 17  1  0  0  0  0
  6 18  1  0  0  0  0
  7 18  2  0  0  0  0
  7 19  1  0  0  0  0
  8 17  2  0  0  0  0
  8 24  1  0  0  0  0
  9 23  1  0  0  0  0
  9 24  2  0  0  0  0
 10 22  1  0  0  0  0
 10 41  1  0  0  0  0
 10 42  1  0  0  0  0
 11 23  1  0  0  0  0
 11 43  1  0  0  0  0
 11 44  1  0  0  0  0
 12 13  1  0  0  0  0
 12 15  1  0  0  0  0
 12 26  1  0  0  0  0
 13 27  1  0  0  0  0
 14 15  1  0  0  0  0
 14 16  1  1  0  0  0
 14 28  1  0  0  0  0
 15 29  1  0  0  0  0
 15 30  1  0  0  0  0
 16 31  1  0  0  0  0
 16 32  1  0  0  0  0
 17 19  1  0  0  0  0
 18 34  1  0  0  0  0
 19 23  2  0  0  0  0
 20 21  1  0  0  0  0
 20 35  1  0  0  0  0
 20 36  1  0  0  0  0
 21 22  1  0  0  0  0
 21 37  1  0  0  0  0
 21 38  1  0  0  0  0
 22 25  1  0  0  0  0
 22 39  1  0  0  0  0
 24 40  1  0  0  0  0
M  END
> <PUBCHEM_COMPOUND_CID>
512713
> <PUBCHEM_COMPOUND_CANONICALIZED>
1
> <PUBCHEM_CACTVS_COMPLEXITY>
475
> <PUBCHEM_CACTVS_HBOND_ACCEPTOR>
10
> <PUBCHEM_CACTVS_HBOND_DONOR>
4
> <PUBCHEM_CACTVS_ROTATABLE_BOND>
7
> <PUBCHEM_CACTVS_SUBSKEYS>
AAADceBzuABAAAAAAAAAAAAAAAAAAWJAAAAsAAAAAAAAAFgB+AAAHgQQCAAACDzl1waF+L9MFgioAQbxbACAgC0RELABUKGoVBCDWBJgyEAeRAgNEALzACCwAAAAAAAAAAAAAAAAAAAAAAAAAAAAAAAAAA==
> <PUBCHEM_IUPAC_OPENEYE_NAME>
2-amino-4-[[(2S,4R,5R)-5-(6-aminopurin-9-yl)-4-hydroxy-tetrahydrofuran-2-yl]methylsulfanyl]butanoic acid
> <PUBCHEM_IUPAC_CAS_NAME>
2-amino-4-[[(2S,4R,5R)-5-(6-aminopurin-9-yl)-4-hydroxy-2-oxolanyl]methylthio]butanoic acid
> <PUBCHEM_IUPAC_NAME_MARKUP>
2-amino-4-[[(2<I>S</I>,4<I>R</I>,5<I>R</I>)-5-(6-aminopurin-9-yl)-4-hydroxyoxolan-2-yl]methylsulfanyl]butanoic acid
> <PUBCHEM_IUPAC_NAME>
2-amino-4-[[(2S,4R,5R)-5-(6-aminopurin-9-yl)-4-hydroxyoxolan-2-yl]methylsulfanyl]butanoic acid
> <PUBCHEM_IUPAC_SYSTEMATIC_NAME>
4-[[(2S,4R,5R)-5-(6-aminopurin-9-yl)-4-oxidanyl-oxolan-2-yl]methylsulfanyl]-2-azanyl-butanoic acid
> <PUBCHEM_IUPAC_TRADITIONAL_NAME>
4-[[(2S,4R,5R)-5-adenin-9-yl-4-hydroxy-tetrahydrofuran-2-yl]methylthio]-2-amino-butyric acid
> <PUBCHEM_IUPAC_INCHI>
InChI=1S/C14H20N6O4S/c15-8(14(22)23)1-2-25-4-7-3-9(21)13(24-7)20-6-19-10-11(16)17-5-18-12(10)20/h5-9,13,21H,1-4,15H2,(H,22,23)(H2,16,17,18)/t7-,8?,9+,13+/m0/s1
> <PUBCHEM_IUPAC_INCHIKEY>
VAWKNNBXJDMYFE-HGQPCEPFSA-N
> <PUBCHEM_XLOGP3>
-3.1
> <PUBCHEM_EXACT_MASS>
368.12667431
> <PUBCHEM_MOLECULAR_FORMULA>
C14H20N6O4S
> <PUBCHEM_MOLECULAR_WEIGHT>
368.41
> <PUBCHEM_OPENEYE_CAN_SMILES>
C1C(OC(C1O)N2C=NC3=C(N=CN=C32)N)CSCCC(C(=O)O)N
> <PUBCHEM_OPENEYE_ISO_SMILES>
C1[C@H](O[C@H]([C@@H]1O)N2C=NC3=C(N=CN=C32)N)CSCCC(C(=O)O)N
> <PUBCHEM_CACTVS_TPSA>
188
> <PUBCHEM_MONOISOTOPIC_WEIGHT>
368.12667431
> <PUBCHEM_TOTAL_CHARGE>
0
> <PUBCHEM_HEAVY_ATOM_COUNT>
25
> <PUBCHEM_ATOM_DEF_STEREO_COUNT>
3
> <PUBCHEM_ATOM_UDEF_STEREO_COUNT>
1
> <PUBCHEM_BOND_DEF_STEREO_COUNT>
0
> <PUBCHEM_BOND_UDEF_STEREO_COUNT>
0
> <PUBCHEM_ISOTOPIC_ATOM_COUNT>
0
> <PUBCHEM_COMPONENT_COUNT>
1
> <PUBCHEM_CACTVS_TAUTO_COUNT>
-1
> <PUBCHEM_COORDINATE_TYPE>
1
5
255
> <PUBCHEM_BONDANNOTATIONS>
22  10  3
14  16  5
17  19  8
19  23  8
12  3  6
13  6  5
6  17  8
6  18  8
7  18  8
7  19  8
8  17  8
8  24  8
9  23  8
9  24  8
$$$$
