512785
  -OEChem-10302200282D
 54 57  0     1  0  0  0  0  0999 V2000
    5.4240    0.0000    0.0000 Cl  0  0  0  0  0  0  0  0  0  0  0  0
    6.6651    3.4912    0.0000 F   0  0  0  0  0  0  0  0  0  0  0  0
    3.1350    2.5153    0.0000 O   0  0  0  0  0  0  0  0  0  0  0  0
    0.5369    4.0153    0.0000 O   0  0  0  0  0  0  0  0  0  0  0  0
    1.4030    2.5153    0.0000 O   0  0  0  0  0  0  0  0  0  0  0  0
    6.6651    5.5395    0.0000 N   0  0  3  0  0  0  0  0  0  0  0  0
    4.0010    4.0153    0.0000 N   0  0  0  0  0  0  0  0  0  0  0  0
    9.8261    6.5925    0.0000 N   0  0  0  0  0  0  0  0  0  0  0  0
    3.1350    6.5153    0.0000 C   0  0  0  0  0  0  0  0  0  0  0  0
    3.6350    7.3813    0.0000 C   0  0  0  0  0  0  0  0  0  0  0  0
    2.6350    7.3813    0.0000 C   0  0  0  0  0  0  0  0  0  0  0  0
    3.1350    5.5153    0.0000 C   0  0  0  0  0  0  0  0  0  0  0  0
    4.0010    5.0153    0.0000 C   0  0  0  0  0  0  0  0  0  0  0  0
    8.2465    5.8820    0.0000 C   0  0  3  0  0  0  0  0  0  0  0  0
    7.5802    5.1362    0.0000 C   0  0  0  0  0  0  0  0  0  0  0  0
    7.7432    6.7460    0.0000 C   0  0  0  0  0  0  0  0  0  0  0  0
    6.7658    6.5344    0.0000 C   0  0  0  0  0  0  0  0  0  0  0  0
    5.8010    5.0361    0.0000 C   0  0  0  0  0  0  0  0  0  0  0  0
    4.8950    5.5500    0.0000 C   0  0  0  0  0  0  0  0  0  0  0  0
    2.2690    5.0153    0.0000 C   0  0  0  0  0  0  0  0  0  0  0  0
    9.2414    5.7813    0.0000 C   0  0  0  0  0  0  0  0  0  0  0  0
    5.8010    3.9945    0.0000 C   0  0  0  0  0  0  0  0  0  0  0  0
    2.2690    4.0153    0.0000 C   0  0  0  0  0  0  0  0  0  0  0  0
    4.8950    3.4806    0.0000 C   0  0  0  0  0  0  0  0  0  0  0  0
    3.1350    3.5153    0.0000 C   0  0  0  0  0  0  0  0  0  0  0  0
    4.8834    6.5499    0.0000 C   0  0  0  0  0  0  0  0  0  0  0  0
    9.6517    4.8693    0.0000 C   0  0  0  0  0  0  0  0  0  0  0  0
    1.4030    3.5153    0.0000 C   0  0  0  0  0  0  0  0  0  0  0  0
   10.6466    4.7686    0.0000 C   0  0  0  0  0  0  0  0  0  0  0  0
   10.8210    6.4918    0.0000 C   0  0  0  0  0  0  0  0  0  0  0  0
   11.2313    5.5799    0.0000 C   0  0  0  0  0  0  0  0  0  0  0  0
    2.5361    6.3548    0.0000 H   0  0  0  0  0  0  0  0  0  0  0  0
    4.2176    7.1693    0.0000 H   0  0  0  0  0  0  0  0  0  0  0  0
    3.7427    7.9919    0.0000 H   0  0  0  0  0  0  0  0  0  0  0  0
    2.5274    7.9919    0.0000 H   0  0  0  0  0  0  0  0  0  0  0  0
    2.0524    7.1693    0.0000 H   0  0  0  0  0  0  0  0  0  0  0  0
    8.5822    6.4032    0.0000 H   0  0  0  0  0  0  0  0  0  0  0  0
    7.2723    4.5981    0.0000 H   0  0  0  0  0  0  0  0  0  0  0  0
    8.0832    4.7738    0.0000 H   0  0  0  0  0  0  0  0  0  0  0  0
    8.3086    7.0004    0.0000 H   0  0  0  0  0  0  0  0  0  0  0  0
    7.5493    7.3350    0.0000 H   0  0  0  0  0  0  0  0  0  0  0  0
    6.6986    7.1507    0.0000 H   0  0  0  0  0  0  0  0  0  0  0  0
    6.1458    6.5320    0.0000 H   0  0  0  0  0  0  0  0  0  0  0  0
    1.7320    5.3253    0.0000 H   0  0  0  0  0  0  0  0  0  0  0  0
    4.8878    2.8607    0.0000 H   0  0  0  0  0  0  0  0  0  0  0  0
    5.5034    6.5571    0.0000 H   0  0  0  0  0  0  0  0  0  0  0  0
    4.8762    7.1699    0.0000 H   0  0  0  0  0  0  0  0  0  0  0  0
    4.2635    6.5427    0.0000 H   0  0  0  0  0  0  0  0  0  0  0  0
    9.2892    4.3663    0.0000 H   0  0  0  0  0  0  0  0  0  0  0  0
   10.9010    4.2032    0.0000 H   0  0  0  0  0  0  0  0  0  0  0  0
   11.1835    6.9948    0.0000 H   0  0  0  0  0  0  0  0  0  0  0  0
   11.8481    5.5174    0.0000 H   0  0  0  0  0  0  0  0  0  0  0  0
    0.0000    3.7053    0.0000 H   0  0  0  0  0  0  0  0  0  0  0  0
    6.4240    0.0000    0.0000 H   0  0  0  0  0  0  0  0  0  0  0  0
  1 54  1  0  0  0  0
  2 22  1  0  0  0  0
  3 25  2  0  0  0  0
  4 28  1  0  0  0  0
  4 53  1  0  0  0  0
  5 28  2  0  0  0  0
  6 15  1  0  0  0  0
  6 17  1  0  0  0  0
  6 18  1  0  0  0  0
  7 13  1  0  0  0  0
  7 24  1  0  0  0  0
  7 25  1  0  0  0  0
  8 21  1  0  0  0  0
  8 30  2  0  0  0  0
  9 10  1  0  0  0  0
  9 11  1  0  0  0  0
  9 12  1  0  0  0  0
  9 32  1  0  0  0  0
 10 11  1  0  0  0  0
 10 33  1  0  0  0  0
 10 34  1  0  0  0  0
 11 35  1  0  0  0  0
 11 36  1  0  0  0  0
 12 13  2  0  0  0  0
 12 20  1  0  0  0  0
 13 19  1  0  0  0  0
 14 15  1  0  0  0  0
 14 16  1  0  0  0  0
 14 21  1  0  0  0  0
 14 37  1  0  0  0  0
 15 38  1  0  0  0  0
 15 39  1  0  0  0  0
 16 17  1  0  0  0  0
 16 40  1  0  0  0  0
 16 41  1  0  0  0  0
 17 42  1  0  0  0  0
 17 43  1  0  0  0  0
 18 19  2  0  0  0  0
 18 22  1  0  0  0  0
 19 26  1  0  0  0  0
 20 23  2  0  0  0  0
 20 44  1  0  0  0  0
 21 27  2  0  0  0  0
 22 24  2  0  0  0  0
 23 25  1  0  0  0  0
 23 28  1  0  0  0  0
 24 45  1  0  0  0  0
 26 46  1  0  0  0  0
 26 47  1  0  0  0  0
 26 48  1  0  0  0  0
 27 29  1  0  0  0  0
 27 49  1  0  0  0  0
 29 31  2  0  0  0  0
 29 50  1  0  0  0  0
 30 31  1  0  0  0  0
 30 51  1  0  0  0  0
 31 52  1  0  0  0  0
M  END
> <PUBCHEM_COMPOUND_CID>
512785
> <PUBCHEM_COMPOUND_CANONICALIZED>
1
> <PUBCHEM_CACTVS_COMPLEXITY>
928
> <PUBCHEM_CACTVS_HBOND_ACCEPTOR>
6
> <PUBCHEM_CACTVS_HBOND_DONOR>
2
> <PUBCHEM_CACTVS_ROTATABLE_BOND>
4
> <PUBCHEM_CACTVS_SUBSKEYS>
AAADceB7MQAEAAAAAAAAAAAAGAAAAWAAAAAsQIAAAAAAAACBgAAAHwAACAAADQjBlgQ+iJMIEgCoAzX3XACCgCAxAiAI2CE4ZNgIJO7I0ZGEcAhipgDI2YcQgMAOAAAAAAAAAAAAAAAAAAAAAAAAAAAAAA==
> <PUBCHEM_IUPAC_OPENEYE_NAME>
1-cyclopropyl-7-fluoro-9-methyl-4-oxo-8-[3-(2-pyridyl)pyrrolidin-1-yl]quinolizine-3-carboxylic acid;hydrochloride
> <PUBCHEM_IUPAC_CAS_NAME>
1-cyclopropyl-7-fluoro-9-methyl-4-oxo-8-[3-(2-pyridinyl)-1-pyrrolidinyl]-3-quinolizinecarboxylic acid;hydrochloride
> <PUBCHEM_IUPAC_NAME_MARKUP>
1-cyclopropyl-7-fluoro-9-methyl-4-oxo-8-(3-pyridin-2-ylpyrrolidin-1-yl)quinolizine-3-carboxylic acid;hydrochloride
> <PUBCHEM_IUPAC_NAME>
1-cyclopropyl-7-fluoro-9-methyl-4-oxo-8-(3-pyridin-2-ylpyrrolidin-1-yl)quinolizine-3-carboxylic acid;hydrochloride
> <PUBCHEM_IUPAC_SYSTEMATIC_NAME>
1-cyclopropyl-7-fluoranyl-9-methyl-4-oxidanylidene-8-(3-pyridin-2-ylpyrrolidin-1-yl)quinolizine-3-carboxylic acid;hydrochloride
> <PUBCHEM_IUPAC_TRADITIONAL_NAME>
1-cyclopropyl-7-fluoro-4-keto-9-methyl-8-[3-(2-pyridyl)pyrrolidino]quinolizine-3-carboxylic acid;hydrochloride
> <PUBCHEM_IUPAC_INCHI>
InChI=1S/C23H22FN3O3.ClH/c1-13-20-16(14-5-6-14)10-17(23(29)30)22(28)27(20)12-18(24)21(13)26-9-7-15(11-26)19-4-2-3-8-25-19;/h2-4,8,10,12,14-15H,5-7,9,11H2,1H3,(H,29,30);1H
> <PUBCHEM_IUPAC_INCHIKEY>
XICOOSAFDSFFJV-UHFFFAOYSA-N
> <PUBCHEM_EXACT_MASS>
443.1411975
> <PUBCHEM_MOLECULAR_FORMULA>
C23H23ClFN3O3
> <PUBCHEM_MOLECULAR_WEIGHT>
443.9
> <PUBCHEM_OPENEYE_CAN_SMILES>
CC1=C(C(=CN2C1=C(C=C(C2=O)C(=O)O)C3CC3)F)N4CCC(C4)C5=CC=CC=N5.Cl
> <PUBCHEM_OPENEYE_ISO_SMILES>
CC1=C(C(=CN2C1=C(C=C(C2=O)C(=O)O)C3CC3)F)N4CCC(C4)C5=CC=CC=N5.Cl
> <PUBCHEM_CACTVS_TPSA>
73.7
> <PUBCHEM_MONOISOTOPIC_WEIGHT>
443.1411975
> <PUBCHEM_TOTAL_CHARGE>
0
> <PUBCHEM_HEAVY_ATOM_COUNT>
31
> <PUBCHEM_ATOM_DEF_STEREO_COUNT>
0
> <PUBCHEM_ATOM_UDEF_STEREO_COUNT>
1
> <PUBCHEM_BOND_DEF_STEREO_COUNT>
0
> <PUBCHEM_BOND_UDEF_STEREO_COUNT>
0
> <PUBCHEM_ISOTOPIC_ATOM_COUNT>
0
> <PUBCHEM_COMPONENT_COUNT>
2
> <PUBCHEM_CACTVS_TAUTO_COUNT>
-1
> <PUBCHEM_COORDINATE_TYPE>
1
5
255
> <PUBCHEM_BONDANNOTATIONS>
12  13  8
12  20  8
13  19  8
14  21  3
18  19  8
18  22  8
20  23  8
21  27  8
22  24  8
23  25  8
27  29  8
29  31  8
30  31  8
7  13  8
7  24  8
7  25  8
8  21  8
8  30  8
$$$$
