512733
  -OEChem-10302200282D
 48 50  0     1  0  0  0  0  0999 V2000
    3.3100   -1.6651    0.0000 P   0  0  3  0  0  0  0  0  0  0  0  0
    5.9883   -2.9698    0.0000 O   0  0  0  0  0  0  0  0  0  0  0  0
    4.1760   -1.1651    0.0000 O   0  0  0  0  0  0  0  0  0  0  0  0
    3.3100   -2.6651    0.0000 O   0  0  0  0  0  0  0  0  0  0  0  0
    2.3100   -1.6651    0.0000 O   0  0  0  0  0  0  0  0  0  0  0  0
    2.8100   -0.7990    0.0000 O   0  0  0  0  0  0  0  0  0  0  0  0
    7.5719   -3.8971    0.0000 O   0  0  0  0  0  0  0  0  0  0  0  0
   10.5719   -2.1651    0.0000 O   0  0  0  0  0  0  0  0  0  0  0  0
    7.5719   -2.1651    0.0000 N   0  0  0  0  0  0  0  0  0  0  0  0
    9.0719   -3.0311    0.0000 N   0  0  0  0  0  0  0  0  0  0  0  0
    5.0420   -1.6651    0.0000 C   0  0  3  0  0  0  0  0  0  0  0  0
    5.0420   -2.6651    0.0000 C   0  0  3  0  0  0  0  0  0  0  0  0
    5.9883   -1.3603    0.0000 C   0  0  0  0  0  0  0  0  0  0  0  0
    6.5719   -2.1651    0.0000 C   0  0  1  0  0  0  0  0  0  0  0  0
    4.1760   -3.1651    0.0000 C   0  0  0  0  0  0  0  0  0  0  0  0
    8.0719   -1.2990    0.0000 C   0  0  0  0  0  0  0  0  0  0  0  0
    8.0719   -3.0311    0.0000 C   0  0  0  0  0  0  0  0  0  0  0  0
    9.0719   -1.2990    0.0000 C   0  0  0  0  0  0  0  0  0  0  0  0
    9.5719   -0.4330    0.0000 C   0  0  0  0  0  0  0  0  0  0  0  0
    9.0719    0.4330    0.0000 C   0  0  0  0  0  0  0  0  0  0  0  0
    9.5719   -2.1651    0.0000 C   0  0  0  0  0  0  0  0  0  0  0  0
    9.5719    1.2990    0.0000 C   0  0  0  0  0  0  0  0  0  0  0  0
    9.0719    2.1651    0.0000 C   0  0  0  0  0  0  0  0  0  0  0  0
    9.5719    3.0311    0.0000 C   0  0  0  0  0  0  0  0  0  0  0  0
    9.0719    3.8971    0.0000 C   0  0  0  0  0  0  0  0  0  0  0  0
    5.1320   -0.8198    0.0000 H   0  0  0  0  0  0  0  0  0  0  0  0
    5.1320   -3.5103    0.0000 H   0  0  0  0  0  0  0  0  0  0  0  0
    6.5256   -1.0511    0.0000 H   0  0  0  0  0  0  0  0  0  0  0  0
    5.7372   -0.7934    0.0000 H   0  0  0  0  0  0  0  0  0  0  0  0
    6.8536   -2.7174    0.0000 H   0  0  0  0  0  0  0  0  0  0  0  0
    3.7775   -3.6400    0.0000 H   0  0  0  0  0  0  0  0  0  0  0  0
    4.5746   -3.6400    0.0000 H   0  0  0  0  0  0  0  0  0  0  0  0
    7.7619   -0.7621    0.0000 H   0  0  0  0  0  0  0  0  0  0  0  0
   10.0468   -0.8315    0.0000 H   0  0  0  0  0  0  0  0  0  0  0  0
   10.0468   -0.0345    0.0000 H   0  0  0  0  0  0  0  0  0  0  0  0
    8.5969    0.8315    0.0000 H   0  0  0  0  0  0  0  0  0  0  0  0
    8.5969    0.0345    0.0000 H   0  0  0  0  0  0  0  0  0  0  0  0
    9.3819   -3.5680    0.0000 H   0  0  0  0  0  0  0  0  0  0  0  0
   10.0468    0.9005    0.0000 H   0  0  0  0  0  0  0  0  0  0  0  0
   10.0468    1.6976    0.0000 H   0  0  0  0  0  0  0  0  0  0  0  0
    2.0000   -2.2020    0.0000 H   0  0  0  0  0  0  0  0  0  0  0  0
    8.5969    2.5636    0.0000 H   0  0  0  0  0  0  0  0  0  0  0  0
    8.5969    1.7665    0.0000 H   0  0  0  0  0  0  0  0  0  0  0  0
   10.0468    2.6326    0.0000 H   0  0  0  0  0  0  0  0  0  0  0  0
   10.0468    3.4296    0.0000 H   0  0  0  0  0  0  0  0  0  0  0  0
    9.6088    4.2071    0.0000 H   0  0  0  0  0  0  0  0  0  0  0  0
    8.7619    4.4340    0.0000 H   0  0  0  0  0  0  0  0  0  0  0  0
    8.5349    3.5871    0.0000 H   0  0  0  0  0  0  0  0  0  0  0  0
  1  3  1  0  0  0  0
  1  4  1  0  0  0  0
  1  5  1  0  0  0  0
  1  6  2  0  0  0  0
  2 12  1  0  0  0  0
  2 14  1  0  0  0  0
  3 11  1  0  0  0  0
  4 15  1  0  0  0  0
  5 41  1  0  0  0  0
  7 17  2  0  0  0  0
  8 21  2  0  0  0  0
 14  9  1  6  0  0  0
  9 16  1  0  0  0  0
  9 17  1  0  0  0  0
 10 17  1  0  0  0  0
 10 21  1  0  0  0  0
 10 38  1  0  0  0  0
 11 12  1  0  0  0  0
 11 13  1  0  0  0  0
 11 26  1  0  0  0  0
 12 15  1  0  0  0  0
 12 27  1  0  0  0  0
 13 14  1  0  0  0  0
 13 28  1  0  0  0  0
 13 29  1  0  0  0  0
 14 30  1  0  0  0  0
 15 31  1  0  0  0  0
 15 32  1  0  0  0  0
 16 18  2  0  0  0  0
 16 33  1  0  0  0  0
 18 19  1  0  0  0  0
 18 21  1  0  0  0  0
 19 20  1  0  0  0  0
 19 34  1  0  0  0  0
 19 35  1  0  0  0  0
 20 22  1  0  0  0  0
 20 36  1  0  0  0  0
 20 37  1  0  0  0  0
 22 23  1  0  0  0  0
 22 39  1  0  0  0  0
 22 40  1  0  0  0  0
 23 24  1  0  0  0  0
 23 42  1  0  0  0  0
 23 43  1  0  0  0  0
 24 25  1  0  0  0  0
 24 44  1  0  0  0  0
 24 45  1  0  0  0  0
 25 46  1  0  0  0  0
 25 47  1  0  0  0  0
 25 48  1  0  0  0  0
M  END
> <PUBCHEM_COMPOUND_CID>
512733
> <PUBCHEM_COMPOUND_CANONICALIZED>
1
> <PUBCHEM_CACTVS_COMPLEXITY>
623
> <PUBCHEM_CACTVS_HBOND_ACCEPTOR>
7
> <PUBCHEM_CACTVS_HBOND_DONOR>
2
> <PUBCHEM_CACTVS_ROTATABLE_BOND>
6
> <PUBCHEM_CACTVS_SUBSKEYS>
AAADceBzOAIAAAAAAAAAAAAAAAAAASAAAAAkQAAAAAAAAEgAAAAAHgAQCCAADBThgAYDAAPABRCIQgFWUICAAAAgAAAAAAEIAEiBABIAgQAOAAAPhyICAMG4uIKAAAAAAAAAAAAAAAAAAAAAAAAAAAAAAA==
> <PUBCHEM_IUPAC_OPENEYE_NAME>
5-hexyl-1-[(6R)-2-hydroxy-2-oxo-4a,6,7,7a-tetrahydro-4H-furo[3,2-d][1,3,2]dioxaphosphinin-6-yl]pyrimidine-2,4-dione
> <PUBCHEM_IUPAC_CAS_NAME>
5-hexyl-1-[(6R)-2-hydroxy-2-oxo-4a,6,7,7a-tetrahydro-4H-furo[3,2-d][1,3,2]dioxaphosphorin-6-yl]pyrimidine-2,4-dione
> <PUBCHEM_IUPAC_NAME_MARKUP>
5-hexyl-1-[(6<I>R</I>)-2-hydroxy-2-oxo-4<I>a</I>,6,7,7<I>a</I>-tetrahydro-4<I>H</I>-furo[3,2-d][1,3,2]dioxaphosphinin-6-yl]pyrimidine-2,4-dione
> <PUBCHEM_IUPAC_NAME>
5-hexyl-1-[(6R)-2-hydroxy-2-oxo-4a,6,7,7a-tetrahydro-4H-furo[3,2-d][1,3,2]dioxaphosphinin-6-yl]pyrimidine-2,4-dione
> <PUBCHEM_IUPAC_SYSTEMATIC_NAME>
5-hexyl-1-[(6R)-2-oxidanyl-2-oxidanylidene-4a,6,7,7a-tetrahydro-4H-furo[3,2-d][1,3,2]dioxaphosphinin-6-yl]pyrimidine-2,4-dione
> <PUBCHEM_IUPAC_TRADITIONAL_NAME>
5-hexyl-1-[(6R)-2-hydroxy-2-keto-4a,6,7,7a-tetrahydro-4H-furo[3,2-d][1,3,2]dioxaphosphorin-6-yl]pyrimidine-2,4-quinone
> <PUBCHEM_IUPAC_INCHI>
InChI=1S/C15H23N2O7P/c1-2-3-4-5-6-10-8-17(15(19)16-14(10)18)13-7-11-12(23-13)9-22-25(20,21)24-11/h8,11-13H,2-7,9H2,1H3,(H,20,21)(H,16,18,19)/t11?,12?,13-/m1/s1
> <PUBCHEM_IUPAC_INCHIKEY>
KYQHOGRRZRACQX-WXRRBKDZSA-N
> <PUBCHEM_XLOGP3_AA>
1
> <PUBCHEM_EXACT_MASS>
374.12428807
> <PUBCHEM_MOLECULAR_FORMULA>
C15H23N2O7P
> <PUBCHEM_MOLECULAR_WEIGHT>
374.33
> <PUBCHEM_OPENEYE_CAN_SMILES>
CCCCCCC1=CN(C(=O)NC1=O)C2CC3C(O2)COP(=O)(O3)O
> <PUBCHEM_OPENEYE_ISO_SMILES>
CCCCCCC1=CN(C(=O)NC1=O)[C@H]2CC3C(O2)COP(=O)(O3)O
> <PUBCHEM_CACTVS_TPSA>
114
> <PUBCHEM_MONOISOTOPIC_WEIGHT>
374.12428807
> <PUBCHEM_TOTAL_CHARGE>
0
> <PUBCHEM_HEAVY_ATOM_COUNT>
25
> <PUBCHEM_ATOM_DEF_STEREO_COUNT>
1
> <PUBCHEM_ATOM_UDEF_STEREO_COUNT>
2
> <PUBCHEM_BOND_DEF_STEREO_COUNT>
0
> <PUBCHEM_BOND_UDEF_STEREO_COUNT>
0
> <PUBCHEM_ISOTOPIC_ATOM_COUNT>
0
> <PUBCHEM_COMPONENT_COUNT>
1
> <PUBCHEM_CACTVS_TAUTO_COUNT>
3
> <PUBCHEM_COORDINATE_TYPE>
1
5
255
> <PUBCHEM_BONDANNOTATIONS>
10  17  8
10  21  8
11  26  3
12  27  3
16  18  8
18  21  8
14  9  6
9  16  8
9  17  8
$$$$
