512734
  -OEChem-10302200282D
 54 56  0     1  0  0  0  0  0999 V2000
    3.3100   -2.5311    0.0000 P   0  0  3  0  0  0  0  0  0  0  0  0
    5.9883   -3.8358    0.0000 O   0  0  0  0  0  0  0  0  0  0  0  0
    4.1760   -2.0311    0.0000 O   0  0  0  0  0  0  0  0  0  0  0  0
    3.3100   -3.5311    0.0000 O   0  0  0  0  0  0  0  0  0  0  0  0
    2.3100   -2.5311    0.0000 O   0  0  0  0  0  0  0  0  0  0  0  0
    2.8100   -1.6651    0.0000 O   0  0  0  0  0  0  0  0  0  0  0  0
    7.5719   -4.7631    0.0000 O   0  0  0  0  0  0  0  0  0  0  0  0
   10.5719   -3.0311    0.0000 O   0  0  0  0  0  0  0  0  0  0  0  0
    7.5719   -3.0311    0.0000 N   0  0  0  0  0  0  0  0  0  0  0  0
    9.0719   -3.8971    0.0000 N   0  0  0  0  0  0  0  0  0  0  0  0
    5.0420   -2.5311    0.0000 C   0  0  3  0  0  0  0  0  0  0  0  0
    5.0420   -3.5311    0.0000 C   0  0  3  0  0  0  0  0  0  0  0  0
    5.9883   -2.2264    0.0000 C   0  0  0  0  0  0  0  0  0  0  0  0
    6.5719   -3.0311    0.0000 C   0  0  1  0  0  0  0  0  0  0  0  0
    4.1760   -4.0311    0.0000 C   0  0  0  0  0  0  0  0  0  0  0  0
    8.0719   -2.1651    0.0000 C   0  0  0  0  0  0  0  0  0  0  0  0
    8.0719   -3.8971    0.0000 C   0  0  0  0  0  0  0  0  0  0  0  0
    9.0719   -2.1651    0.0000 C   0  0  0  0  0  0  0  0  0  0  0  0
    9.5719   -1.2990    0.0000 C   0  0  0  0  0  0  0  0  0  0  0  0
    9.0719   -0.4330    0.0000 C   0  0  0  0  0  0  0  0  0  0  0  0
    9.5719    0.4330    0.0000 C   0  0  0  0  0  0  0  0  0  0  0  0
    9.5719   -3.0311    0.0000 C   0  0  0  0  0  0  0  0  0  0  0  0
    9.0719    1.2990    0.0000 C   0  0  0  0  0  0  0  0  0  0  0  0
    9.5719    2.1651    0.0000 C   0  0  0  0  0  0  0  0  0  0  0  0
    9.0719    3.0311    0.0000 C   0  0  0  0  0  0  0  0  0  0  0  0
    9.5719    3.8971    0.0000 C   0  0  0  0  0  0  0  0  0  0  0  0
    9.0719    4.7631    0.0000 C   0  0  0  0  0  0  0  0  0  0  0  0
    5.1320   -1.6859    0.0000 H   0  0  0  0  0  0  0  0  0  0  0  0
    5.1320   -4.3763    0.0000 H   0  0  0  0  0  0  0  0  0  0  0  0
    6.5256   -1.9171    0.0000 H   0  0  0  0  0  0  0  0  0  0  0  0
    5.7372   -1.6594    0.0000 H   0  0  0  0  0  0  0  0  0  0  0  0
    6.8536   -3.5834    0.0000 H   0  0  0  0  0  0  0  0  0  0  0  0
    3.7775   -4.5060    0.0000 H   0  0  0  0  0  0  0  0  0  0  0  0
    4.5746   -4.5060    0.0000 H   0  0  0  0  0  0  0  0  0  0  0  0
    7.7619   -1.6281    0.0000 H   0  0  0  0  0  0  0  0  0  0  0  0
   10.0468   -1.6976    0.0000 H   0  0  0  0  0  0  0  0  0  0  0  0
   10.0468   -0.9005    0.0000 H   0  0  0  0  0  0  0  0  0  0  0  0
    8.5969   -0.0345    0.0000 H   0  0  0  0  0  0  0  0  0  0  0  0
    8.5969   -0.8315    0.0000 H   0  0  0  0  0  0  0  0  0  0  0  0
   10.0468    0.0345    0.0000 H   0  0  0  0  0  0  0  0  0  0  0  0
   10.0468    0.8315    0.0000 H   0  0  0  0  0  0  0  0  0  0  0  0
    9.3819   -4.4340    0.0000 H   0  0  0  0  0  0  0  0  0  0  0  0
    8.5969    1.6976    0.0000 H   0  0  0  0  0  0  0  0  0  0  0  0
    8.5969    0.9005    0.0000 H   0  0  0  0  0  0  0  0  0  0  0  0
   10.0468    1.7665    0.0000 H   0  0  0  0  0  0  0  0  0  0  0  0
   10.0468    2.5636    0.0000 H   0  0  0  0  0  0  0  0  0  0  0  0
    2.0000   -3.0680    0.0000 H   0  0  0  0  0  0  0  0  0  0  0  0
    8.5969    3.4296    0.0000 H   0  0  0  0  0  0  0  0  0  0  0  0
    8.5969    2.6326    0.0000 H   0  0  0  0  0  0  0  0  0  0  0  0
   10.0468    3.4986    0.0000 H   0  0  0  0  0  0  0  0  0  0  0  0
   10.0468    4.2956    0.0000 H   0  0  0  0  0  0  0  0  0  0  0  0
    9.6088    5.0731    0.0000 H   0  0  0  0  0  0  0  0  0  0  0  0
    8.7619    5.3001    0.0000 H   0  0  0  0  0  0  0  0  0  0  0  0
    8.5349    4.4531    0.0000 H   0  0  0  0  0  0  0  0  0  0  0  0
  1  3  1  0  0  0  0
  1  4  1  0  0  0  0
  1  5  1  0  0  0  0
  1  6  2  0  0  0  0
  2 12  1  0  0  0  0
  2 14  1  0  0  0  0
  3 11  1  0  0  0  0
  4 15  1  0  0  0  0
  5 47  1  0  0  0  0
  7 17  2  0  0  0  0
  8 22  2  0  0  0  0
 14  9  1  6  0  0  0
  9 16  1  0  0  0  0
  9 17  1  0  0  0  0
 10 17  1  0  0  0  0
 10 22  1  0  0  0  0
 10 42  1  0  0  0  0
 11 12  1  0  0  0  0
 11 13  1  0  0  0  0
 11 28  1  0  0  0  0
 12 15  1  0  0  0  0
 12 29  1  0  0  0  0
 13 14  1  0  0  0  0
 13 30  1  0  0  0  0
 13 31  1  0  0  0  0
 14 32  1  0  0  0  0
 15 33  1  0  0  0  0
 15 34  1  0  0  0  0
 16 18  2  0  0  0  0
 16 35  1  0  0  0  0
 18 19  1  0  0  0  0
 18 22  1  0  0  0  0
 19 20  1  0  0  0  0
 19 36  1  0  0  0  0
 19 37  1  0  0  0  0
 20 21  1  0  0  0  0
 20 38  1  0  0  0  0
 20 39  1  0  0  0  0
 21 23  1  0  0  0  0
 21 40  1  0  0  0  0
 21 41  1  0  0  0  0
 23 24  1  0  0  0  0
 23 43  1  0  0  0  0
 23 44  1  0  0  0  0
 24 25  1  0  0  0  0
 24 45  1  0  0  0  0
 24 46  1  0  0  0  0
 25 26  1  0  0  0  0
 25 48  1  0  0  0  0
 25 49  1  0  0  0  0
 26 27  1  0  0  0  0
 26 50  1  0  0  0  0
 26 51  1  0  0  0  0
 27 52  1  0  0  0  0
 27 53  1  0  0  0  0
 27 54  1  0  0  0  0
M  END
> <PUBCHEM_COMPOUND_CID>
512734
> <PUBCHEM_COMPOUND_CANONICALIZED>
1
> <PUBCHEM_CACTVS_COMPLEXITY>
653
> <PUBCHEM_CACTVS_HBOND_ACCEPTOR>
7
> <PUBCHEM_CACTVS_HBOND_DONOR>
2
> <PUBCHEM_CACTVS_ROTATABLE_BOND>
8
> <PUBCHEM_CACTVS_SUBSKEYS>
AAADceB7OAIAAAAAAAAAAAAAAAAAASAAAAAkQAAAAAAAAEgAAAAAHgAQCCAADBThgAYDAAPABRCIQgFWUICAAAAgAAAAAAEIAEiBABIAgQAOAAAPhyICAMG4uIKAAAAAAAAAAAAAAAAAAAAAAAAAAAAAAA==
> <PUBCHEM_IUPAC_OPENEYE_NAME>
1-[(6R)-2-hydroxy-2-oxo-4a,6,7,7a-tetrahydro-4H-furo[3,2-d][1,3,2]dioxaphosphinin-6-yl]-5-octyl-pyrimidine-2,4-dione
> <PUBCHEM_IUPAC_CAS_NAME>
1-[(6R)-2-hydroxy-2-oxo-4a,6,7,7a-tetrahydro-4H-furo[3,2-d][1,3,2]dioxaphosphorin-6-yl]-5-octylpyrimidine-2,4-dione
> <PUBCHEM_IUPAC_NAME_MARKUP>
1-[(6<I>R</I>)-2-hydroxy-2-oxo-4<I>a</I>,6,7,7<I>a</I>-tetrahydro-4<I>H</I>-furo[3,2-d][1,3,2]dioxaphosphinin-6-yl]-5-octylpyrimidine-2,4-dione
> <PUBCHEM_IUPAC_NAME>
1-[(6R)-2-hydroxy-2-oxo-4a,6,7,7a-tetrahydro-4H-furo[3,2-d][1,3,2]dioxaphosphinin-6-yl]-5-octylpyrimidine-2,4-dione
> <PUBCHEM_IUPAC_SYSTEMATIC_NAME>
5-octyl-1-[(6R)-2-oxidanyl-2-oxidanylidene-4a,6,7,7a-tetrahydro-4H-furo[3,2-d][1,3,2]dioxaphosphinin-6-yl]pyrimidine-2,4-dione
> <PUBCHEM_IUPAC_TRADITIONAL_NAME>
1-[(6R)-2-hydroxy-2-keto-4a,6,7,7a-tetrahydro-4H-furo[3,2-d][1,3,2]dioxaphosphorin-6-yl]-5-octyl-pyrimidine-2,4-quinone
> <PUBCHEM_IUPAC_INCHI>
InChI=1S/C17H27N2O7P/c1-2-3-4-5-6-7-8-12-10-19(17(21)18-16(12)20)15-9-13-14(25-15)11-24-27(22,23)26-13/h10,13-15H,2-9,11H2,1H3,(H,22,23)(H,18,20,21)/t13?,14?,15-/m1/s1
> <PUBCHEM_IUPAC_INCHIKEY>
CTKKOSWXQJAWRE-YMAMQOFZSA-N
> <PUBCHEM_XLOGP3_AA>
2.1
> <PUBCHEM_EXACT_MASS>
402.15558820
> <PUBCHEM_MOLECULAR_FORMULA>
C17H27N2O7P
> <PUBCHEM_MOLECULAR_WEIGHT>
402.4
> <PUBCHEM_OPENEYE_CAN_SMILES>
CCCCCCCCC1=CN(C(=O)NC1=O)C2CC3C(O2)COP(=O)(O3)O
> <PUBCHEM_OPENEYE_ISO_SMILES>
CCCCCCCCC1=CN(C(=O)NC1=O)[C@H]2CC3C(O2)COP(=O)(O3)O
> <PUBCHEM_CACTVS_TPSA>
114
> <PUBCHEM_MONOISOTOPIC_WEIGHT>
402.15558820
> <PUBCHEM_TOTAL_CHARGE>
0
> <PUBCHEM_HEAVY_ATOM_COUNT>
27
> <PUBCHEM_ATOM_DEF_STEREO_COUNT>
1
> <PUBCHEM_ATOM_UDEF_STEREO_COUNT>
2
> <PUBCHEM_BOND_DEF_STEREO_COUNT>
0
> <PUBCHEM_BOND_UDEF_STEREO_COUNT>
0
> <PUBCHEM_ISOTOPIC_ATOM_COUNT>
0
> <PUBCHEM_COMPONENT_COUNT>
1
> <PUBCHEM_CACTVS_TAUTO_COUNT>
3
> <PUBCHEM_COORDINATE_TYPE>
1
5
255
> <PUBCHEM_BONDANNOTATIONS>
10  17  8
10  22  8
11  28  3
12  29  3
16  18  8
18  22  8
14  9  6
9  16  8
9  17  8
$$$$
