512737
  -OEChem-10302200282D
 46 47  0     1  0  0  0  0  0999 V2000
    8.8712   -1.2153    0.0000 O   0  0  0  0  0  0  0  0  0  0  0  0
    6.9744   -2.9754    0.0000 O   0  0  0  0  0  0  0  0  0  0  0  0
   10.1445   -2.8709    0.0000 O   0  0  0  0  0  0  0  0  0  0  0  0
    9.7942    0.3725    0.0000 O   0  0  0  0  0  0  0  0  0  0  0  0
    8.0622    3.3725    0.0000 O   0  0  0  0  0  0  0  0  0  0  0  0
    8.0622    0.3725    0.0000 N   0  0  0  0  0  0  0  0  0  0  0  0
    8.9282    1.8725    0.0000 N   0  0  0  0  0  0  0  0  0  0  0  0
    8.0622   -0.6275    0.0000 C   0  0  1  0  0  0  0  0  0  0  0  0
    7.5622   -2.1664    0.0000 C   0  0  1  0  0  0  0  0  0  0  0  0
    7.2532   -1.2153    0.0000 C   0  0  0  0  0  0  0  0  0  0  0  0
    8.5622   -2.1664    0.0000 C   0  0  1  0  0  0  0  0  0  0  0  0
    9.1500   -2.9754    0.0000 C   0  0  0  0  0  0  0  0  0  0  0  0
    7.1962    0.8725    0.0000 C   0  0  0  0  0  0  0  0  0  0  0  0
    7.1962    1.8725    0.0000 C   0  0  0  0  0  0  0  0  0  0  0  0
    8.9282    0.8725    0.0000 C   0  0  0  0  0  0  0  0  0  0  0  0
    6.3301    2.3725    0.0000 C   0  0  0  0  0  0  0  0  0  0  0  0
    5.4641    1.8725    0.0000 C   0  0  0  0  0  0  0  0  0  0  0  0
    4.5981    2.3725    0.0000 C   0  0  0  0  0  0  0  0  0  0  0  0
    8.0622    2.3725    0.0000 C   0  0  0  0  0  0  0  0  0  0  0  0
    3.7320    1.8725    0.0000 C   0  0  0  0  0  0  0  0  0  0  0  0
    2.8660    2.3725    0.0000 C   0  0  0  0  0  0  0  0  0  0  0  0
    2.0000    1.8725    0.0000 C   0  0  0  0  0  0  0  0  0  0  0  0
    7.5098   -0.3461    0.0000 H   0  0  0  0  0  0  0  0  0  0  0  0
    6.9498   -2.0694    0.0000 H   0  0  0  0  0  0  0  0  0  0  0  0
    6.9432   -0.6784    0.0000 H   0  0  0  0  0  0  0  0  0  0  0  0
    6.6868   -1.4675    0.0000 H   0  0  0  0  0  0  0  0  0  0  0  0
    9.1745   -2.0694    0.0000 H   0  0  0  0  0  0  0  0  0  0  0  0
    8.5927   -3.2472    0.0000 H   0  0  0  0  0  0  0  0  0  0  0  0
    9.3209   -3.5714    0.0000 H   0  0  0  0  0  0  0  0  0  0  0  0
    6.6592    0.5625    0.0000 H   0  0  0  0  0  0  0  0  0  0  0  0
    6.7287    2.8474    0.0000 H   0  0  0  0  0  0  0  0  0  0  0  0
    5.9316    2.8474    0.0000 H   0  0  0  0  0  0  0  0  0  0  0  0
    6.3578   -2.9106    0.0000 H   0  0  0  0  0  0  0  0  0  0  0  0
    5.0656    1.3975    0.0000 H   0  0  0  0  0  0  0  0  0  0  0  0
    5.8626    1.3975    0.0000 H   0  0  0  0  0  0  0  0  0  0  0  0
    4.9966    2.8474    0.0000 H   0  0  0  0  0  0  0  0  0  0  0  0
    4.1996    2.8474    0.0000 H   0  0  0  0  0  0  0  0  0  0  0  0
    9.4651    2.1825    0.0000 H   0  0  0  0  0  0  0  0  0  0  0  0
    3.3335    1.3975    0.0000 H   0  0  0  0  0  0  0  0  0  0  0  0
    4.1306    1.3975    0.0000 H   0  0  0  0  0  0  0  0  0  0  0  0
   10.5089   -3.3725    0.0000 H   0  0  0  0  0  0  0  0  0  0  0  0
    3.2646    2.8474    0.0000 H   0  0  0  0  0  0  0  0  0  0  0  0
    2.4675    2.8474    0.0000 H   0  0  0  0  0  0  0  0  0  0  0  0
    1.6900    2.4094    0.0000 H   0  0  0  0  0  0  0  0  0  0  0  0
    1.4631    1.5625    0.0000 H   0  0  0  0  0  0  0  0  0  0  0  0
    2.3100    1.3355    0.0000 H   0  0  0  0  0  0  0  0  0  0  0  0
  1  8  1  0  0  0  0
  1 11  1  0  0  0  0
  9  2  1  1  0  0  0
  2 33  1  0  0  0  0
  3 12  1  0  0  0  0
  3 41  1  0  0  0  0
  4 15  2  0  0  0  0
  5 19  2  0  0  0  0
  8  6  1  6  0  0  0
  6 13  1  0  0  0  0
  6 15  1  0  0  0  0
  7 15  1  0  0  0  0
  7 19  1  0  0  0  0
  7 38  1  0  0  0  0
  8 10  1  0  0  0  0
  8 23  1  0  0  0  0
  9 10  1  0  0  0  0
  9 11  1  0  0  0  0
  9 24  1  0  0  0  0
 10 25  1  0  0  0  0
 10 26  1  0  0  0  0
 11 12  1  6  0  0  0
 11 27  1  0  0  0  0
 12 28  1  0  0  0  0
 12 29  1  0  0  0  0
 13 14  2  0  0  0  0
 13 30  1  0  0  0  0
 14 16  1  0  0  0  0
 14 19  1  0  0  0  0
 16 17  1  0  0  0  0
 16 31  1  0  0  0  0
 16 32  1  0  0  0  0
 17 18  1  0  0  0  0
 17 34  1  0  0  0  0
 17 35  1  0  0  0  0
 18 20  1  0  0  0  0
 18 36  1  0  0  0  0
 18 37  1  0  0  0  0
 20 21  1  0  0  0  0
 20 39  1  0  0  0  0
 20 40  1  0  0  0  0
 21 22  1  0  0  0  0
 21 42  1  0  0  0  0
 21 43  1  0  0  0  0
 22 44  1  0  0  0  0
 22 45  1  0  0  0  0
 22 46  1  0  0  0  0
M  END
> <PUBCHEM_COMPOUND_CID>
512737
> <PUBCHEM_COMPOUND_CANONICALIZED>
1
> <PUBCHEM_CACTVS_COMPLEXITY>
451
> <PUBCHEM_CACTVS_HBOND_ACCEPTOR>
5
> <PUBCHEM_CACTVS_HBOND_DONOR>
3
> <PUBCHEM_CACTVS_ROTATABLE_BOND>
7
> <PUBCHEM_CACTVS_SUBSKEYS>
AAADceBzOAAAAAAAAAAAAAAAAAAAASAAAAAgAAAAAAAAAAAAAAAAHgAQCAAADBThgAYDAAPABgCIAgFWUACAAAAgAAAAAAEIAEiBEBIAgQAOQAAPhyIDAMG4uIKAAAAAAAAAAAAAAAAAAAAAAAAAAAAAAA==
> <PUBCHEM_IUPAC_OPENEYE_NAME>
5-hexyl-1-[(2R,4S,5R)-4-hydroxy-5-(hydroxymethyl)tetrahydrofuran-2-yl]pyrimidine-2,4-dione
> <PUBCHEM_IUPAC_CAS_NAME>
5-hexyl-1-[(2R,4S,5R)-4-hydroxy-5-(hydroxymethyl)-2-oxolanyl]pyrimidine-2,4-dione
> <PUBCHEM_IUPAC_NAME_MARKUP>
5-hexyl-1-[(2<I>R</I>,4<I>S</I>,5<I>R</I>)-4-hydroxy-5-(hydroxymethyl)oxolan-2-yl]pyrimidine-2,4-dione
> <PUBCHEM_IUPAC_NAME>
5-hexyl-1-[(2R,4S,5R)-4-hydroxy-5-(hydroxymethyl)oxolan-2-yl]pyrimidine-2,4-dione
> <PUBCHEM_IUPAC_SYSTEMATIC_NAME>
5-hexyl-1-[(2R,4S,5R)-5-(hydroxymethyl)-4-oxidanyl-oxolan-2-yl]pyrimidine-2,4-dione
> <PUBCHEM_IUPAC_TRADITIONAL_NAME>
5-hexyl-1-[(2R,4S,5R)-4-hydroxy-5-methylol-tetrahydrofuran-2-yl]pyrimidine-2,4-quinone
> <PUBCHEM_IUPAC_INCHI>
InChI=1S/C15H24N2O5/c1-2-3-4-5-6-10-8-17(15(21)16-14(10)20)13-7-11(19)12(9-18)22-13/h8,11-13,18-19H,2-7,9H2,1H3,(H,16,20,21)/t11-,12+,13+/m0/s1
> <PUBCHEM_IUPAC_INCHIKEY>
DZGIFYLUHQAETO-YNEHKIRRSA-N
> <PUBCHEM_XLOGP3>
1.4
> <PUBCHEM_EXACT_MASS>
312.16852187
> <PUBCHEM_MOLECULAR_FORMULA>
C15H24N2O5
> <PUBCHEM_MOLECULAR_WEIGHT>
312.36
> <PUBCHEM_OPENEYE_CAN_SMILES>
CCCCCCC1=CN(C(=O)NC1=O)C2CC(C(O2)CO)O
> <PUBCHEM_OPENEYE_ISO_SMILES>
CCCCCCC1=CN(C(=O)NC1=O)[C@H]2C[C@@H]([C@H](O2)CO)O
> <PUBCHEM_CACTVS_TPSA>
99.1
> <PUBCHEM_MONOISOTOPIC_WEIGHT>
312.16852187
> <PUBCHEM_TOTAL_CHARGE>
0
> <PUBCHEM_HEAVY_ATOM_COUNT>
22
> <PUBCHEM_ATOM_DEF_STEREO_COUNT>
3
> <PUBCHEM_ATOM_UDEF_STEREO_COUNT>
0
> <PUBCHEM_BOND_DEF_STEREO_COUNT>
0
> <PUBCHEM_BOND_UDEF_STEREO_COUNT>
0
> <PUBCHEM_ISOTOPIC_ATOM_COUNT>
0
> <PUBCHEM_COMPONENT_COUNT>
1
> <PUBCHEM_CACTVS_TAUTO_COUNT>
3
> <PUBCHEM_COORDINATE_TYPE>
1
5
255
> <PUBCHEM_BONDANNOTATIONS>
11  12  6
13  14  8
14  19  8
9  2  5
6  13  8
6  15  8
8  6  6
7  15  8
7  19  8
$$$$
