512789
  -OEChem-10302200282D
 56 58  0     1  0  0  0  0  0999 V2000
    4.7994    0.0000    0.0000 Cl  0  0  0  0  0  0  0  0  0  0  0  0
    6.6651    3.4926    0.0000 F   0  0  0  0  0  0  0  0  0  0  0  0
    3.1350    2.5168    0.0000 O   0  0  0  0  0  0  0  0  0  0  0  0
    0.5369    4.0168    0.0000 O   0  0  0  0  0  0  0  0  0  0  0  0
    1.4030    2.5168    0.0000 O   0  0  0  0  0  0  0  0  0  0  0  0
    6.6651    5.5409    0.0000 N   0  0  3  0  0  0  0  0  0  0  0  0
    4.0010    4.0168    0.0000 N   0  0  0  0  0  0  0  0  0  0  0  0
   10.2363    5.6820    0.0000 N   0  0  0  0  0  0  0  0  0  0  0  0
    8.2465    5.8834    0.0000 C   0  0  3  0  0  0  0  0  0  0  0  0
    3.1350    6.5168    0.0000 C   0  0  0  0  0  0  0  0  0  0  0  0
    7.5802    5.1377    0.0000 C   0  0  0  0  0  0  0  0  0  0  0  0
    3.6350    7.3828    0.0000 C   0  0  0  0  0  0  0  0  0  0  0  0
    2.6350    7.3828    0.0000 C   0  0  0  0  0  0  0  0  0  0  0  0
    7.7432    6.7475    0.0000 C   0  0  0  0  0  0  0  0  0  0  0  0
    9.2414    5.7828    0.0000 C   0  0  0  0  0  0  0  0  0  0  0  0
    6.7658    6.5358    0.0000 C   0  0  0  0  0  0  0  0  0  0  0  0
    3.1350    5.5168    0.0000 C   0  0  0  0  0  0  0  0  0  0  0  0
    5.8010    5.0376    0.0000 C   0  0  0  0  0  0  0  0  0  0  0  0
    4.0010    5.0168    0.0000 C   0  0  0  0  0  0  0  0  0  0  0  0
    4.8950    5.5514    0.0000 C   0  0  0  0  0  0  0  0  0  0  0  0
    9.3421    6.7777    0.0000 C   0  0  0  0  0  0  0  0  0  0  0  0
    9.1407    4.7878    0.0000 C   0  0  0  0  0  0  0  0  0  0  0  0
    2.2690    5.0168    0.0000 C   0  0  0  0  0  0  0  0  0  0  0  0
    5.8010    3.9960    0.0000 C   0  0  0  0  0  0  0  0  0  0  0  0
    4.8950    3.4821    0.0000 C   0  0  0  0  0  0  0  0  0  0  0  0
    4.8834    6.5514    0.0000 C   0  0  0  0  0  0  0  0  0  0  0  0
    2.2690    4.0168    0.0000 C   0  0  0  0  0  0  0  0  0  0  0  0
    3.1350    3.5168    0.0000 C   0  0  0  0  0  0  0  0  0  0  0  0
    1.4030    3.5168    0.0000 C   0  0  0  0  0  0  0  0  0  0  0  0
    8.5822    6.4047    0.0000 H   0  0  0  0  0  0  0  0  0  0  0  0
    2.5361    6.3563    0.0000 H   0  0  0  0  0  0  0  0  0  0  0  0
    7.2723    4.5996    0.0000 H   0  0  0  0  0  0  0  0  0  0  0  0
    8.0832    4.7752    0.0000 H   0  0  0  0  0  0  0  0  0  0  0  0
    4.2176    7.1708    0.0000 H   0  0  0  0  0  0  0  0  0  0  0  0
    3.7427    7.9934    0.0000 H   0  0  0  0  0  0  0  0  0  0  0  0
    2.5274    7.9934    0.0000 H   0  0  0  0  0  0  0  0  0  0  0  0
    2.0524    7.1708    0.0000 H   0  0  0  0  0  0  0  0  0  0  0  0
    8.3086    7.0019    0.0000 H   0  0  0  0  0  0  0  0  0  0  0  0
    7.5493    7.3364    0.0000 H   0  0  0  0  0  0  0  0  0  0  0  0
    6.6986    7.1522    0.0000 H   0  0  0  0  0  0  0  0  0  0  0  0
    6.1458    6.5335    0.0000 H   0  0  0  0  0  0  0  0  0  0  0  0
    9.9590    6.7152    0.0000 H   0  0  0  0  0  0  0  0  0  0  0  0
    9.4046    7.3945    0.0000 H   0  0  0  0  0  0  0  0  0  0  0  0
    8.7253    6.8401    0.0000 H   0  0  0  0  0  0  0  0  0  0  0  0
    8.5239    4.8503    0.0000 H   0  0  0  0  0  0  0  0  0  0  0  0
    9.0783    4.1710    0.0000 H   0  0  0  0  0  0  0  0  0  0  0  0
    9.7576    4.7254    0.0000 H   0  0  0  0  0  0  0  0  0  0  0  0
   10.5988    6.1851    0.0000 H   0  0  0  0  0  0  0  0  0  0  0  0
   10.4907    5.1166    0.0000 H   0  0  0  0  0  0  0  0  0  0  0  0
    1.7320    5.3268    0.0000 H   0  0  0  0  0  0  0  0  0  0  0  0
    4.8878    2.8622    0.0000 H   0  0  0  0  0  0  0  0  0  0  0  0
    5.5034    6.5586    0.0000 H   0  0  0  0  0  0  0  0  0  0  0  0
    4.8762    7.1713    0.0000 H   0  0  0  0  0  0  0  0  0  0  0  0
    4.2635    6.5442    0.0000 H   0  0  0  0  0  0  0  0  0  0  0  0
    0.0000    3.7068    0.0000 H   0  0  0  0  0  0  0  0  0  0  0  0
    5.7994    0.0000    0.0000 H   0  0  0  0  0  0  0  0  0  0  0  0
  1 56  1  0  0  0  0
  2 24  1  0  0  0  0
  3 28  2  0  0  0  0
  4 29  1  0  0  0  0
  4 55  1  0  0  0  0
  5 29  2  0  0  0  0
  6 11  1  0  0  0  0
  6 16  1  0  0  0  0
  6 18  1  0  0  0  0
  7 19  1  0  0  0  0
  7 25  1  0  0  0  0
  7 28  1  0  0  0  0
  8 15  1  0  0  0  0
  8 48  1  0  0  0  0
  8 49  1  0  0  0  0
  9 11  1  0  0  0  0
  9 14  1  0  0  0  0
  9 15  1  0  0  0  0
  9 30  1  0  0  0  0
 10 12  1  0  0  0  0
 10 13  1  0  0  0  0
 10 17  1  0  0  0  0
 10 31  1  0  0  0  0
 11 32  1  0  0  0  0
 11 33  1  0  0  0  0
 12 13  1  0  0  0  0
 12 34  1  0  0  0  0
 12 35  1  0  0  0  0
 13 36  1  0  0  0  0
 13 37  1  0  0  0  0
 14 16  1  0  0  0  0
 14 38  1  0  0  0  0
 14 39  1  0  0  0  0
 15 21  1  0  0  0  0
 15 22  1  0  0  0  0
 16 40  1  0  0  0  0
 16 41  1  0  0  0  0
 17 19  2  0  0  0  0
 17 23  1  0  0  0  0
 18 20  2  0  0  0  0
 18 24  1  0  0  0  0
 19 20  1  0  0  0  0
 20 26  1  0  0  0  0
 21 42  1  0  0  0  0
 21 43  1  0  0  0  0
 21 44  1  0  0  0  0
 22 45  1  0  0  0  0
 22 46  1  0  0  0  0
 22 47  1  0  0  0  0
 23 27  2  0  0  0  0
 23 50  1  0  0  0  0
 24 25  2  0  0  0  0
 25 51  1  0  0  0  0
 26 52  1  0  0  0  0
 26 53  1  0  0  0  0
 26 54  1  0  0  0  0
 27 28  1  0  0  0  0
 27 29  1  0  0  0  0
M  END
> <PUBCHEM_COMPOUND_CID>
512789
> <PUBCHEM_COMPOUND_CANONICALIZED>
1
> <PUBCHEM_CACTVS_COMPLEXITY>
893
> <PUBCHEM_CACTVS_HBOND_ACCEPTOR>
6
> <PUBCHEM_CACTVS_HBOND_DONOR>
3
> <PUBCHEM_CACTVS_ROTATABLE_BOND>
4
> <PUBCHEM_CACTVS_SUBSKEYS>
AAADceB7MQAEAAAAAAAAAAAAGAAAAWAAAAAgQAAAAAAAAACAAAAAHwAQCAAADYjBgAQCCANAAgCIAiXWWACAAAAgAAAACAEIAEgIBA4IwAAEUAACtgCIkYIQAAAOgAAAAAAAAAAAAAAAAAAAAAAAAAAAAA==
> <PUBCHEM_IUPAC_OPENEYE_NAME>
8-[3-(1-amino-1-methyl-ethyl)pyrrolidin-1-yl]-1-cyclopropyl-7-fluoro-9-methyl-4-oxo-quinolizine-3-carboxylic acid;hydrochloride
> <PUBCHEM_IUPAC_CAS_NAME>
8-[3-(2-aminopropan-2-yl)-1-pyrrolidinyl]-1-cyclopropyl-7-fluoro-9-methyl-4-oxo-3-quinolizinecarboxylic acid;hydrochloride
> <PUBCHEM_IUPAC_NAME_MARKUP>
8-[3-(2-aminopropan-2-yl)pyrrolidin-1-yl]-1-cyclopropyl-7-fluoro-9-methyl-4-oxoquinolizine-3-carboxylic acid;hydrochloride
> <PUBCHEM_IUPAC_NAME>
8-[3-(2-aminopropan-2-yl)pyrrolidin-1-yl]-1-cyclopropyl-7-fluoro-9-methyl-4-oxoquinolizine-3-carboxylic acid;hydrochloride
> <PUBCHEM_IUPAC_SYSTEMATIC_NAME>
8-[3-(2-azanylpropan-2-yl)pyrrolidin-1-yl]-1-cyclopropyl-7-fluoranyl-9-methyl-4-oxidanylidene-quinolizine-3-carboxylic acid;hydrochloride
> <PUBCHEM_IUPAC_TRADITIONAL_NAME>
8-[3-(1-amino-1-methyl-ethyl)pyrrolidino]-1-cyclopropyl-7-fluoro-4-keto-9-methyl-quinolizine-3-carboxylic acid;hydrochloride
> <PUBCHEM_IUPAC_INCHI>
InChI=1S/C21H26FN3O3.ClH/c1-11-17-14(12-4-5-12)8-15(20(27)28)19(26)25(17)10-16(22)18(11)24-7-6-13(9-24)21(2,3)23;/h8,10,12-13H,4-7,9,23H2,1-3H3,(H,27,28);1H
> <PUBCHEM_IUPAC_INCHIKEY>
JROUJYVXCBKDBE-UHFFFAOYSA-N
> <PUBCHEM_EXACT_MASS>
423.1724976
> <PUBCHEM_MOLECULAR_FORMULA>
C21H27ClFN3O3
> <PUBCHEM_MOLECULAR_WEIGHT>
423.9
> <PUBCHEM_OPENEYE_CAN_SMILES>
CC1=C(C(=CN2C1=C(C=C(C2=O)C(=O)O)C3CC3)F)N4CCC(C4)C(C)(C)N.Cl
> <PUBCHEM_OPENEYE_ISO_SMILES>
CC1=C(C(=CN2C1=C(C=C(C2=O)C(=O)O)C3CC3)F)N4CCC(C4)C(C)(C)N.Cl
> <PUBCHEM_CACTVS_TPSA>
86.9
> <PUBCHEM_MONOISOTOPIC_WEIGHT>
423.1724976
> <PUBCHEM_TOTAL_CHARGE>
0
> <PUBCHEM_HEAVY_ATOM_COUNT>
29
> <PUBCHEM_ATOM_DEF_STEREO_COUNT>
0
> <PUBCHEM_ATOM_UDEF_STEREO_COUNT>
1
> <PUBCHEM_BOND_DEF_STEREO_COUNT>
0
> <PUBCHEM_BOND_UDEF_STEREO_COUNT>
0
> <PUBCHEM_ISOTOPIC_ATOM_COUNT>
0
> <PUBCHEM_COMPONENT_COUNT>
2
> <PUBCHEM_CACTVS_TAUTO_COUNT>
-1
> <PUBCHEM_COORDINATE_TYPE>
1
5
255
> <PUBCHEM_BONDANNOTATIONS>
17  19  8
17  23  8
18  20  8
18  24  8
19  20  8
23  27  8
24  25  8
27  28  8
7  19  8
7  25  8
7  28  8
9  15  3
$$$$
