512747
  -OEChem-10302200282D
 34 35  0     1  0  0  0  0  0999 V2000
    2.0000    2.7671    0.0000 Cl  0  0  0  0  0  0  0  0  0  0  0  0
    3.2570   -1.8060    0.0000 O   0  0  0  0  0  0  0  0  0  0  0  0
    6.3301   -3.1471    0.0000 O   0  0  0  0  0  0  0  0  0  0  0  0
    7.1962    0.7671    0.0000 O   0  0  0  0  0  0  0  0  0  0  0  0
    5.4641    3.7671    0.0000 O   0  0  0  0  0  0  0  0  0  0  0  0
    5.4641    0.7671    0.0000 N   0  0  0  0  0  0  0  0  0  0  0  0
    6.3301    2.2671    0.0000 N   0  0  0  0  0  0  0  0  0  0  0  0
    4.7570   -0.9400    0.0000 C   0  0  2  0  0  0  0  0  0  0  0  0
    5.4641   -1.6471    0.0000 C   0  0  2  0  0  0  0  0  0  0  0  0
    5.4641   -0.2329    0.0000 C   0  0  3  0  0  0  0  0  0  0  0  0
    6.1712   -0.9400    0.0000 C   0  0  0  0  0  0  0  0  0  0  0  0
    3.7570   -0.9400    0.0000 C   0  0  0  0  0  0  0  0  0  0  0  0
    5.4641   -2.6471    0.0000 C   0  0  0  0  0  0  0  0  0  0  0  0
    4.5981    1.2671    0.0000 C   0  0  0  0  0  0  0  0  0  0  0  0
    6.3301    1.2671    0.0000 C   0  0  0  0  0  0  0  0  0  0  0  0
    4.5981    2.2671    0.0000 C   0  0  0  0  0  0  0  0  0  0  0  0
    5.4641    2.7671    0.0000 C   0  0  0  0  0  0  0  0  0  0  0  0
    3.7320    2.7671    0.0000 C   0  0  0  0  0  0  0  0  0  0  0  0
    2.8660    2.2671    0.0000 C   0  0  0  0  0  0  0  0  0  0  0  0
    4.5197   -0.3672    0.0000 H   0  0  0  0  0  0  0  0  0  0  0  0
    6.0369   -1.8844    0.0000 H   0  0  0  0  0  0  0  0  0  0  0  0
    6.0369    0.0044    0.0000 H   0  0  0  0  0  0  0  0  0  0  0  0
    6.6096   -1.3784    0.0000 H   0  0  0  0  0  0  0  0  0  0  0  0
    6.6096   -0.5016    0.0000 H   0  0  0  0  0  0  0  0  0  0  0  0
    3.8647   -0.3294    0.0000 H   0  0  0  0  0  0  0  0  0  0  0  0
    3.1744   -0.7279    0.0000 H   0  0  0  0  0  0  0  0  0  0  0  0
    4.8535   -2.5394    0.0000 H   0  0  0  0  0  0  0  0  0  0  0  0
    5.2520   -3.2297    0.0000 H   0  0  0  0  0  0  0  0  0  0  0  0
    4.0611    0.9571    0.0000 H   0  0  0  0  0  0  0  0  0  0  0  0
    2.6370   -1.8060    0.0000 H   0  0  0  0  0  0  0  0  0  0  0  0
    6.3301   -3.7671    0.0000 H   0  0  0  0  0  0  0  0  0  0  0  0
    6.8671    2.5771    0.0000 H   0  0  0  0  0  0  0  0  0  0  0  0
    3.7320    3.3871    0.0000 H   0  0  0  0  0  0  0  0  0  0  0  0
    2.8660    1.6471    0.0000 H   0  0  0  0  0  0  0  0  0  0  0  0
  1 19  1  0  0  0  0
  2 12  1  0  0  0  0
  2 30  1  0  0  0  0
  3 13  1  0  0  0  0
  3 31  1  0  0  0  0
  4 15  2  0  0  0  0
  5 17  2  0  0  0  0
  6 10  1  0  0  0  0
  6 14  1  0  0  0  0
  6 15  1  0  0  0  0
  7 15  1  0  0  0  0
  7 17  1  0  0  0  0
  7 32  1  0  0  0  0
  8  9  1  0  0  0  0
  8 10  1  0  0  0  0
  8 12  1  1  0  0  0
  8 20  1  0  0  0  0
  9 11  1  0  0  0  0
  9 13  1  6  0  0  0
  9 21  1  0  0  0  0
 10 11  1  0  0  0  0
 10 22  1  0  0  0  0
 11 23  1  0  0  0  0
 11 24  1  0  0  0  0
 12 25  1  0  0  0  0
 12 26  1  0  0  0  0
 13 27  1  0  0  0  0
 13 28  1  0  0  0  0
 14 16  2  0  0  0  0
 14 29  1  0  0  0  0
 16 17  1  0  0  0  0
 16 18  1  0  0  0  0
 18 19  2  3  0  0  0
 18 33  1  0  0  0  0
 19 34  1  0  0  0  0
M  END
> <PUBCHEM_COMPOUND_CID>
512747
> <PUBCHEM_COMPOUND_CANONICALIZED>
1
> <PUBCHEM_CACTVS_COMPLEXITY>
449
> <PUBCHEM_CACTVS_HBOND_ACCEPTOR>
4
> <PUBCHEM_CACTVS_HBOND_DONOR>
3
> <PUBCHEM_CACTVS_ROTATABLE_BOND>
4
> <PUBCHEM_CACTVS_SUBSKEYS>
AAADccBzOAAEAAAAAAAAAAAAAABgAAAAAAAgAAAAAAAAAAAAAAAAHgIQCAAADSvhgEYBAAPAAgCIAiFWUACAAAAgAAAIAAEIAEiIEAIAgQAEQAAOByIAAMHwUAIKgAAAAAAAAAAAAAAAAAAAAAAAAAAAAA==
> <PUBCHEM_IUPAC_OPENEYE_NAME>
1-[(2R,3S)-2,3-bis(hydroxymethyl)cyclobutyl]-5-(2-chlorovinyl)pyrimidine-2,4-dione
> <PUBCHEM_IUPAC_CAS_NAME>
1-[(2R,3S)-2,3-bis(hydroxymethyl)cyclobutyl]-5-(2-chloroethenyl)pyrimidine-2,4-dione
> <PUBCHEM_IUPAC_NAME_MARKUP>
1-[(2<I>R</I>,3<I>S</I>)-2,3-bis(hydroxymethyl)cyclobutyl]-5-(2-chloroethenyl)pyrimidine-2,4-dione
> <PUBCHEM_IUPAC_NAME>
1-[(2R,3S)-2,3-bis(hydroxymethyl)cyclobutyl]-5-(2-chloroethenyl)pyrimidine-2,4-dione
> <PUBCHEM_IUPAC_SYSTEMATIC_NAME>
1-[(2R,3S)-2,3-bis(hydroxymethyl)cyclobutyl]-5-(2-chloranylethenyl)pyrimidine-2,4-dione
> <PUBCHEM_IUPAC_TRADITIONAL_NAME>
5-(2-chlorovinyl)-1-[(2R,3S)-2,3-dimethylolcyclobutyl]pyrimidine-2,4-quinone
> <PUBCHEM_IUPAC_INCHI>
InChI=1S/C12H15ClN2O4/c13-2-1-7-4-15(12(19)14-11(7)18)10-3-8(5-16)9(10)6-17/h1-2,4,8-10,16-17H,3,5-6H2,(H,14,18,19)/t8-,9-,10?/m1/s1
> <PUBCHEM_IUPAC_INCHIKEY>
LOCKBQBUZNXDFM-MGRQHWMJSA-N
> <PUBCHEM_XLOGP3_AA>
-0.4
> <PUBCHEM_EXACT_MASS>
286.0720347
> <PUBCHEM_MOLECULAR_FORMULA>
C12H15ClN2O4
> <PUBCHEM_MOLECULAR_WEIGHT>
286.71
> <PUBCHEM_OPENEYE_CAN_SMILES>
C1C(C(C1N2C=C(C(=O)NC2=O)C=CCl)CO)CO
> <PUBCHEM_OPENEYE_ISO_SMILES>
C1[C@@H]([C@H](C1N2C=C(C(=O)NC2=O)C=CCl)CO)CO
> <PUBCHEM_CACTVS_TPSA>
89.9
> <PUBCHEM_MONOISOTOPIC_WEIGHT>
286.0720347
> <PUBCHEM_TOTAL_CHARGE>
0
> <PUBCHEM_HEAVY_ATOM_COUNT>
19
> <PUBCHEM_ATOM_DEF_STEREO_COUNT>
2
> <PUBCHEM_ATOM_UDEF_STEREO_COUNT>
1
> <PUBCHEM_BOND_DEF_STEREO_COUNT>
0
> <PUBCHEM_BOND_UDEF_STEREO_COUNT>
1
> <PUBCHEM_ISOTOPIC_ATOM_COUNT>
0
> <PUBCHEM_COMPONENT_COUNT>
1
> <PUBCHEM_CACTVS_TAUTO_COUNT>
-1
> <PUBCHEM_COORDINATE_TYPE>
1
5
255
> <PUBCHEM_BONDANNOTATIONS>
14  16  8
16  17  8
18  19  1
10  6  3
6  14  8
6  15  8
7  15  8
7  17  8
8  12  5
9  13  6
$$$$
