512768
  -OEChem-10302200282D
 32 33  0     1  0  0  0  0  0999 V2000
    2.4608   -0.7788    0.0000 O   0  0  0  0  0  0  0  0  0  0  0  0
    4.9019   -3.7614    0.0000 O   0  0  0  0  0  0  0  0  0  0  0  0
    2.1385    2.7433    0.0000 O   0  0  0  0  0  0  0  0  0  0  0  0
    4.2208    0.5000    0.0000 N   0  0  0  0  0  0  0  0  0  0  0  0
    5.0298    1.0878    0.0000 N   0  0  0  0  0  0  0  0  0  0  0  0
    4.7208    2.0388    0.0000 N   0  0  0  0  0  0  0  0  0  0  0  0
    2.4608    0.7788    0.0000 N   0  0  0  0  0  0  0  0  0  0  0  0
    3.5398    3.7614    0.0000 N   0  0  0  0  0  0  0  0  0  0  0  0
    4.2208   -0.5000    0.0000 C   0  0  2  0  0  0  0  0  0  0  0  0
    4.7208   -2.0388    0.0000 C   0  0  1  0  0  0  0  0  0  0  0  0
    5.0298   -1.0878    0.0000 C   0  0  0  0  0  0  0  0  0  0  0  0
    3.4118   -1.0878    0.0000 C   0  0  1  0  0  0  0  0  0  0  0  0
    3.7208   -2.0388    0.0000 C   0  0  0  0  0  0  0  0  0  0  0  0
    5.3086   -2.8479    0.0000 C   0  0  0  0  0  0  0  0  0  0  0  0
    3.4118    1.0878    0.0000 C   0  0  0  0  0  0  0  0  0  0  0  0
    3.7208    2.0388    0.0000 C   0  0  0  0  0  0  0  0  0  0  0  0
    3.1330    2.8479    0.0000 C   0  0  0  0  0  0  0  0  0  0  0  0
    3.6684   -0.2185    0.0000 H   0  0  0  0  0  0  0  0  0  0  0  0
    4.4394   -2.5913    0.0000 H   0  0  0  0  0  0  0  0  0  0  0  0
    5.5962   -1.3400    0.0000 H   0  0  0  0  0  0  0  0  0  0  0  0
    5.3398   -0.5508    0.0000 H   0  0  0  0  0  0  0  0  0  0  0  0
    2.9734   -1.5262    0.0000 H   0  0  0  0  0  0  0  0  0  0  0  0
    3.1144   -2.1678    0.0000 H   0  0  0  0  0  0  0  0  0  0  0  0
    3.7856   -2.6554    0.0000 H   0  0  0  0  0  0  0  0  0  0  0  0
    5.8226   -3.1946    0.0000 H   0  0  0  0  0  0  0  0  0  0  0  0
    5.7393   -2.4019    0.0000 H   0  0  0  0  0  0  0  0  0  0  0  0
    2.0000   -1.1936    0.0000 H   0  0  0  0  0  0  0  0  0  0  0  0
    5.2663   -4.2630    0.0000 H   0  0  0  0  0  0  0  0  0  0  0  0
    2.0000    1.1936    0.0000 H   0  0  0  0  0  0  0  0  0  0  0  0
    2.3318    0.1723    0.0000 H   0  0  0  0  0  0  0  0  0  0  0  0
    3.1754    4.2630    0.0000 H   0  0  0  0  0  0  0  0  0  0  0  0
    4.1564    3.8262    0.0000 H   0  0  0  0  0  0  0  0  0  0  0  0
 12  1  1  1  0  0  0
  1 27  1  0  0  0  0
  2 14  1  0  0  0  0
  2 28  1  0  0  0  0
  3 17  2  0  0  0  0
  4  5  1  0  0  0  0
  9  4  1  6  0  0  0
  4 15  1  0  0  0  0
  5  6  2  0  0  0  0
  6 16  1  0  0  0  0
  7 15  1  0  0  0  0
  7 29  1  0  0  0  0
  7 30  1  0  0  0  0
  8 17  1  0  0  0  0
  8 31  1  0  0  0  0
  8 32  1  0  0  0  0
  9 11  1  0  0  0  0
  9 12  1  0  0  0  0
  9 18  1  0  0  0  0
 10 11  1  0  0  0  0
 10 13  1  0  0  0  0
 10 14  1  6  0  0  0
 10 19  1  0  0  0  0
 11 20  1  0  0  0  0
 11 21  1  0  0  0  0
 12 13  1  0  0  0  0
 12 22  1  0  0  0  0
 13 23  1  0  0  0  0
 13 24  1  0  0  0  0
 14 25  1  0  0  0  0
 14 26  1  0  0  0  0
 15 16  2  0  0  0  0
 16 17  1  0  0  0  0
M  END
> <PUBCHEM_COMPOUND_CID>
512768
> <PUBCHEM_COMPOUND_CANONICALIZED>
1
> <PUBCHEM_CACTVS_COMPLEXITY>
302
> <PUBCHEM_CACTVS_HBOND_ACCEPTOR>
6
> <PUBCHEM_CACTVS_HBOND_DONOR>
4
> <PUBCHEM_CACTVS_ROTATABLE_BOND>
3
> <PUBCHEM_CACTVS_SUBSKEYS>
AAADccBzsAAAAAAAAAAAAAAAAAAAAeIAAAAAAAAAAAAAAAABgAAAHgAYCAAADTzhlgYBsBJIAgCqAQdwdACABAcHkAAUUAGoVECCUApAwAAUQIAUAALQAEHwcAcOAAAAAAAAAAAAAAAAAAAAAKAAAAgAAA==
> <PUBCHEM_IUPAC_OPENEYE_NAME>
5-amino-1-[(1R,2R,4S)-2-hydroxy-4-(hydroxymethyl)cyclopentyl]triazole-4-carboxamide
> <PUBCHEM_IUPAC_CAS_NAME>
5-amino-1-[(1R,2R,4S)-2-hydroxy-4-(hydroxymethyl)cyclopentyl]-4-triazolecarboxamide
> <PUBCHEM_IUPAC_NAME_MARKUP>
5-amino-1-[(1<I>R</I>,2<I>R</I>,4<I>S</I>)-2-hydroxy-4-(hydroxymethyl)cyclopentyl]triazole-4-carboxamide
> <PUBCHEM_IUPAC_NAME>
5-amino-1-[(1R,2R,4S)-2-hydroxy-4-(hydroxymethyl)cyclopentyl]triazole-4-carboxamide
> <PUBCHEM_IUPAC_SYSTEMATIC_NAME>
5-azanyl-1-[(1R,2R,4S)-4-(hydroxymethyl)-2-oxidanyl-cyclopentyl]-1,2,3-triazole-4-carboxamide
> <PUBCHEM_IUPAC_TRADITIONAL_NAME>
5-amino-1-[(1R,2R,4S)-2-hydroxy-4-methylol-cyclopentyl]triazole-4-carboxamide
> <PUBCHEM_IUPAC_INCHI>
InChI=1S/C9H15N5O3/c10-8-7(9(11)17)12-13-14(8)5-1-4(3-15)2-6(5)16/h4-6,15-16H,1-3,10H2,(H2,11,17)/t4-,5+,6+/m0/s1
> <PUBCHEM_IUPAC_INCHIKEY>
UFAJARQKHRXLPQ-KVQBGUIXSA-N
> <PUBCHEM_XLOGP3_AA>
-1.5
> <PUBCHEM_EXACT_MASS>
241.11748936
> <PUBCHEM_MOLECULAR_FORMULA>
C9H15N5O3
> <PUBCHEM_MOLECULAR_WEIGHT>
241.25
> <PUBCHEM_OPENEYE_CAN_SMILES>
C1C(CC(C1N2C(=C(N=N2)C(=O)N)N)O)CO
> <PUBCHEM_OPENEYE_ISO_SMILES>
C1[C@@H](C[C@H]([C@@H]1N2C(=C(N=N2)C(=O)N)N)O)CO
> <PUBCHEM_CACTVS_TPSA>
140
> <PUBCHEM_MONOISOTOPIC_WEIGHT>
241.11748936
> <PUBCHEM_TOTAL_CHARGE>
0
> <PUBCHEM_HEAVY_ATOM_COUNT>
17
> <PUBCHEM_ATOM_DEF_STEREO_COUNT>
3
> <PUBCHEM_ATOM_UDEF_STEREO_COUNT>
0
> <PUBCHEM_BOND_DEF_STEREO_COUNT>
0
> <PUBCHEM_BOND_UDEF_STEREO_COUNT>
0
> <PUBCHEM_ISOTOPIC_ATOM_COUNT>
0
> <PUBCHEM_COMPONENT_COUNT>
1
> <PUBCHEM_CACTVS_TAUTO_COUNT>
-1
> <PUBCHEM_COORDINATE_TYPE>
1
5
255
> <PUBCHEM_BONDANNOTATIONS>
12  1  5
10  14  6
15  16  8
4  15  8
4  5  8
9  4  6
5  6  8
6  16  8
$$$$
