512740
  -OEChem-10302200282D
 62 64  0     1  0  0  0  0  0999 V2000
    3.7320   -1.2500    0.0000 O   0  0  0  0  0  0  0  0  0  0  0  0
    6.9819   -1.1680    0.0000 O   0  0  0  0  0  0  0  0  0  0  0  0
    5.4720   -2.0166    0.0000 O   0  0  0  0  0  0  0  0  0  0  0  0
    2.0000   -1.2500    0.0000 O   0  0  0  0  0  0  0  0  0  0  0  0
    3.7320    4.7500    0.0000 O   0  0  0  0  0  0  0  0  0  0  0  0
    4.5981    1.2500    0.0000 C   0  0  1  0  0  0  0  0  0  0  0  0
    4.5981    0.2500    0.0000 C   0  0  2  0  0  0  0  0  0  0  0  0
    5.4920   -0.2847    0.0000 C   0  0  2  0  0  0  0  0  0  0  0  0
    3.7320    1.7500    0.0000 C   0  0  3  0  0  0  0  0  0  0  0  0
    5.4920    1.7847    0.0000 C   0  0  0  0  0  0  0  0  0  0  0  0
    3.7320   -0.2500    0.0000 C   0  0  1  0  0  0  0  0  0  0  0  0
    6.3981    0.2292    0.0000 C   0  0  0  0  0  0  0  0  0  0  0  0
    6.3981    1.2708    0.0000 C   0  0  0  0  0  0  0  0  0  0  0  0
    2.8660    0.2500    0.0000 C   0  0  0  0  0  0  0  0  0  0  0  0
    4.5981    2.2500    0.0000 C   0  0  0  0  0  0  0  0  0  0  0  0
    2.8660    1.2500    0.0000 C   0  0  0  0  0  0  0  0  0  0  0  0
    3.7320    2.7500    0.0000 C   0  0  0  0  0  0  0  0  0  0  0  0
    4.9820   -1.1448    0.0000 C   0  0  0  0  0  0  0  0  0  0  0  0
    5.9820   -1.1564    0.0000 C   0  0  0  0  0  0  0  0  0  0  0  0
    2.8660    3.2500    0.0000 C   0  0  0  0  0  0  0  0  0  0  0  0
    2.0000    1.7500    0.0000 C   0  0  0  0  0  0  0  0  0  0  0  0
    2.8660   -1.7500    0.0000 C   0  0  0  0  0  0  0  0  0  0  0  0
    2.8660    4.2500    0.0000 C   0  0  0  0  0  0  0  0  0  0  0  0
    2.8660   -2.7500    0.0000 C   0  0  0  0  0  0  0  0  0  0  0  0
    2.0000    4.7500    0.0000 C   0  0  0  0  0  0  0  0  0  0  0  0
    3.7320   -3.2500    0.0000 C   0  0  0  0  0  0  0  0  0  0  0  0
    2.0000   -3.2500    0.0000 C   0  0  0  0  0  0  0  0  0  0  0  0
    3.7320   -4.2500    0.0000 C   0  0  0  0  0  0  0  0  0  0  0  0
    2.0000   -4.2500    0.0000 C   0  0  0  0  0  0  0  0  0  0  0  0
    2.8660   -4.7500    0.0000 C   0  0  0  0  0  0  0  0  0  0  0  0
    5.3374    0.6693    0.0000 H   0  0  0  0  0  0  0  0  0  0  0  0
    3.1951    2.0600    0.0000 H   0  0  0  0  0  0  0  0  0  0  0  0
    5.8856    2.2637    0.0000 H   0  0  0  0  0  0  0  0  0  0  0  0
    5.0874    2.2544    0.0000 H   0  0  0  0  0  0  0  0  0  0  0  0
    4.2690   -0.5600    0.0000 H   0  0  0  0  0  0  0  0  0  0  0  0
    6.6071   -0.3545    0.0000 H   0  0  0  0  0  0  0  0  0  0  0  0
    7.0089    0.3353    0.0000 H   0  0  0  0  0  0  0  0  0  0  0  0
    7.0089    1.1647    0.0000 H   0  0  0  0  0  0  0  0  0  0  0  0
    6.6071    1.8545    0.0000 H   0  0  0  0  0  0  0  0  0  0  0  0
    2.2554    0.3577    0.0000 H   0  0  0  0  0  0  0  0  0  0  0  0
    2.6540   -0.3326    0.0000 H   0  0  0  0  0  0  0  0  0  0  0  0
    5.2181    2.2500    0.0000 H   0  0  0  0  0  0  0  0  0  0  0  0
    4.5981    2.8700    0.0000 H   0  0  0  0  0  0  0  0  0  0  0  0
    3.9781    2.2500    0.0000 H   0  0  0  0  0  0  0  0  0  0  0  0
    4.3426    2.6423    0.0000 H   0  0  0  0  0  0  0  0  0  0  0  0
    3.9441    3.3326    0.0000 H   0  0  0  0  0  0  0  0  0  0  0  0
    4.4487   -0.8287    0.0000 H   0  0  0  0  0  0  0  0  0  0  0  0
    4.6658   -1.6782    0.0000 H   0  0  0  0  0  0  0  0  0  0  0  0
    5.5154   -1.4610    0.0000 H   0  0  0  0  0  0  0  0  0  0  0  0
    2.2554    3.3577    0.0000 H   0  0  0  0  0  0  0  0  0  0  0  0
    2.6540    2.6674    0.0000 H   0  0  0  0  0  0  0  0  0  0  0  0
    2.0000    2.3700    0.0000 H   0  0  0  0  0  0  0  0  0  0  0  0
    1.4631    1.4400    0.0000 H   0  0  0  0  0  0  0  0  0  0  0  0
    7.2857   -1.7085    0.0000 H   0  0  0  0  0  0  0  0  0  0  0  0
    2.3100    5.2869    0.0000 H   0  0  0  0  0  0  0  0  0  0  0  0
    1.4631    5.0600    0.0000 H   0  0  0  0  0  0  0  0  0  0  0  0
    1.6900    4.2131    0.0000 H   0  0  0  0  0  0  0  0  0  0  0  0
    4.2690   -2.9400    0.0000 H   0  0  0  0  0  0  0  0  0  0  0  0
    1.4631   -2.9400    0.0000 H   0  0  0  0  0  0  0  0  0  0  0  0
    4.2690   -4.5600    0.0000 H   0  0  0  0  0  0  0  0  0  0  0  0
    1.4631   -4.5600    0.0000 H   0  0  0  0  0  0  0  0  0  0  0  0
    2.8660   -5.3700    0.0000 H   0  0  0  0  0  0  0  0  0  0  0  0
 11  1  1  6  0  0  0
  1 22  1  0  0  0  0
  2 19  1  0  0  0  0
  2 54  1  0  0  0  0
  3 19  2  0  0  0  0
  4 22  2  0  0  0  0
  5 23  2  0  0  0  0
  6  7  1  0  0  0  0
  6  9  1  0  0  0  0
  6 10  1  0  0  0  0
  6 15  1  6  0  0  0
  7  8  1  0  0  0  0
  7 11  1  0  0  0  0
  7 31  1  1  0  0  0
  8 12  1  0  0  0  0
  8 18  1  6  0  0  0
  8 19  1  0  0  0  0
  9 16  1  0  0  0  0
  9 17  1  0  0  0  0
  9 32  1  0  0  0  0
 10 13  1  0  0  0  0
 10 33  1  0  0  0  0
 10 34  1  0  0  0  0
 11 14  1  0  0  0  0
 11 35  1  0  0  0  0
 12 13  1  0  0  0  0
 12 36  1  0  0  0  0
 12 37  1  0  0  0  0
 13 38  1  0  0  0  0
 13 39  1  0  0  0  0
 14 16  1  0  0  0  0
 14 40  1  0  0  0  0
 14 41  1  0  0  0  0
 15 42  1  0  0  0  0
 15 43  1  0  0  0  0
 15 44  1  0  0  0  0
 16 21  2  0  0  0  0
 17 20  1  0  0  0  0
 17 45  1  0  0  0  0
 17 46  1  0  0  0  0
 18 47  1  0  0  0  0
 18 48  1  0  0  0  0
 18 49  1  0  0  0  0
 20 23  1  0  0  0  0
 20 50  1  0  0  0  0
 20 51  1  0  0  0  0
 21 52  1  0  0  0  0
 21 53  1  0  0  0  0
 22 24  1  0  0  0  0
 23 25  1  0  0  0  0
 24 26  2  0  0  0  0
 24 27  1  0  0  0  0
 25 55  1  0  0  0  0
 25 56  1  0  0  0  0
 25 57  1  0  0  0  0
 26 28  1  0  0  0  0
 26 58  1  0  0  0  0
 27 29  2  0  0  0  0
 27 59  1  0  0  0  0
 28 30  2  0  0  0  0
 28 60  1  0  0  0  0
 29 30  1  0  0  0  0
 29 61  1  0  0  0  0
 30 62  1  0  0  0  0
M  END
> <PUBCHEM_COMPOUND_CID>
512740
> <PUBCHEM_COMPOUND_CANONICALIZED>
1
> <PUBCHEM_CACTVS_COMPLEXITY>
706
> <PUBCHEM_CACTVS_HBOND_ACCEPTOR>
5
> <PUBCHEM_CACTVS_HBOND_DONOR>
1
> <PUBCHEM_CACTVS_ROTATABLE_BOND>
7
> <PUBCHEM_CACTVS_SUBSKEYS>
AAADcfB4OAAAAAAAAAAAAAAAAAAAAAAAAAAwYMAAAAAAAADBAAAAGgAACAAADxSgmAIyCIAABgCIAqDSCAACAAAkAAAIiAEACMgIJjKANRiCcQAkwAEIqYfKyPCPgAAAAAAAAABAAAYAADAAAAAAAAAAAA==
> <PUBCHEM_IUPAC_OPENEYE_NAME>
(1R,4aR,8R,8aR)-8-benzoyloxy-1,4a-dimethyl-6-methylene-5-(3-oxobutyl)decalin-1-carboxylic acid
> <PUBCHEM_IUPAC_CAS_NAME>
(1R,4aR,8R,8aR)-8-benzoyloxy-1,4a-dimethyl-6-methylene-5-(3-oxobutyl)-3,4,5,7,8,8a-hexahydro-2H-naphthalene-1-carboxylic acid
> <PUBCHEM_IUPAC_NAME_MARKUP>
(1<I>R</I>,4<I>a</I><I>R</I>,8<I>R</I>,8<I>a</I><I>R</I>)-8-benzoyloxy-1,4<I>a</I>-dimethyl-6-methylidene-5-(3-oxobutyl)-3,4,5,7,8,8<I>a</I>-hexahydro-2<I>H</I>-naphthalene-1-carboxylic acid
> <PUBCHEM_IUPAC_NAME>
(1R,4aR,8R,8aR)-8-benzoyloxy-1,4a-dimethyl-6-methylidene-5-(3-oxobutyl)-3,4,5,7,8,8a-hexahydro-2H-naphthalene-1-carboxylic acid
> <PUBCHEM_IUPAC_SYSTEMATIC_NAME>
(1R,4aR,8R,8aR)-1,4a-dimethyl-6-methylidene-5-(3-oxidanylidenebutyl)-8-(phenylcarbonyloxy)-3,4,5,7,8,8a-hexahydro-2H-naphthalene-1-carboxylic acid
> <PUBCHEM_IUPAC_TRADITIONAL_NAME>
(1R,4aR,8R,8aR)-8-benzoyloxy-5-(3-ketobutyl)-1,4a-dimethyl-6-methylene-decalin-1-carboxylic acid
> <PUBCHEM_IUPAC_INCHI>
InChI=1S/C25H32O5/c1-16-15-20(30-22(27)18-9-6-5-7-10-18)21-24(3,19(16)12-11-17(2)26)13-8-14-25(21,4)23(28)29/h5-7,9-10,19-21H,1,8,11-15H2,2-4H3,(H,28,29)/t19?,20-,21-,24-,25-/m1/s1
> <PUBCHEM_IUPAC_INCHIKEY>
AHUXFULECQULHT-RVHSXHLLSA-N
> <PUBCHEM_XLOGP3_AA>
4.4
> <PUBCHEM_EXACT_MASS>
412.22497412
> <PUBCHEM_MOLECULAR_FORMULA>
C25H32O5
> <PUBCHEM_MOLECULAR_WEIGHT>
412.5
> <PUBCHEM_OPENEYE_CAN_SMILES>
CC(=O)CCC1C(=C)CC(C2C1(CCCC2(C)C(=O)O)C)OC(=O)C3=CC=CC=C3
> <PUBCHEM_OPENEYE_ISO_SMILES>
CC(=O)CCC1C(=C)C[C@H]([C@@H]2[C@@]1(CCC[C@@]2(C)C(=O)O)C)OC(=O)C3=CC=CC=C3
> <PUBCHEM_CACTVS_TPSA>
80.7
> <PUBCHEM_MONOISOTOPIC_WEIGHT>
412.22497412
> <PUBCHEM_TOTAL_CHARGE>
0
> <PUBCHEM_HEAVY_ATOM_COUNT>
30
> <PUBCHEM_ATOM_DEF_STEREO_COUNT>
4
> <PUBCHEM_ATOM_UDEF_STEREO_COUNT>
1
> <PUBCHEM_BOND_DEF_STEREO_COUNT>
0
> <PUBCHEM_BOND_UDEF_STEREO_COUNT>
0
> <PUBCHEM_ISOTOPIC_ATOM_COUNT>
0
> <PUBCHEM_COMPONENT_COUNT>
1
> <PUBCHEM_CACTVS_TAUTO_COUNT>
-1
> <PUBCHEM_COORDINATE_TYPE>
1
5
255
> <PUBCHEM_BONDANNOTATIONS>
11  1  6
24  26  8
24  27  8
26  28  8
27  29  8
28  30  8
29  30  8
6  15  6
7  31  5
8  18  6
9  17  3
$$$$
