512727
  -OEChem-10302200282D
 36 39  0     1  0  0  0  0  0999 V2000
    6.9300    2.9664    0.0000 P   0  0  3  0  0  0  0  0  0  0  0  0
    7.3381    0.0153    0.0000 O   0  0  0  0  0  0  0  0  0  0  0  0
    6.1857    2.2985    0.0000 O   0  0  0  0  0  0  0  0  0  0  0  0
    7.8805    2.6557    0.0000 O   0  0  0  0  0  0  0  0  0  0  0  0
    4.8083    0.5153    0.0000 O   0  0  0  0  0  0  0  0  0  0  0  0
    7.2406    3.9169    0.0000 O   0  0  0  0  0  0  0  0  0  0  0  0
    6.2621    3.7106    0.0000 O   0  0  0  0  0  0  0  0  0  0  0  0
    4.2690   -4.0447    0.0000 O   0  0  0  0  0  0  0  0  0  0  0  0
    6.0812   -1.2400    0.0000 N   0  0  0  0  0  0  0  0  0  0  0  0
    6.0812   -2.8494    0.0000 N   0  0  0  0  0  0  0  0  0  0  0  0
    3.4030   -2.5447    0.0000 N   0  0  0  0  0  0  0  0  0  0  0  0
    2.5369   -1.0447    0.0000 N   0  0  0  0  0  0  0  0  0  0  0  0
    6.3919    1.3200    0.0000 C   0  0  3  0  0  0  0  0  0  0  0  0
    7.3424    1.0093    0.0000 C   0  0  3  0  0  0  0  0  0  0  0  0
    5.8083    0.5153    0.0000 C   0  0  2  0  0  0  0  0  0  0  0  0
    6.3919   -0.2895    0.0000 C   0  0  1  0  0  0  0  0  0  0  0  0
    8.0867    1.6772    0.0000 C   0  0  0  0  0  0  0  0  0  0  0  0
    5.1350   -1.5447    0.0000 C   0  0  0  0  0  0  0  0  0  0  0  0
    6.6648   -2.0447    0.0000 C   0  0  0  0  0  0  0  0  0  0  0  0
    5.1350   -2.5447    0.0000 C   0  0  0  0  0  0  0  0  0  0  0  0
    4.2690   -1.0447    0.0000 C   0  0  0  0  0  0  0  0  0  0  0  0
    4.2690   -3.0447    0.0000 C   0  0  0  0  0  0  0  0  0  0  0  0
    3.4030   -1.5447    0.0000 C   0  0  0  0  0  0  0  0  0  0  0  0
    5.5605    1.4971    0.0000 H   0  0  0  0  0  0  0  0  0  0  0  0
    8.1179    0.6613    0.0000 H   0  0  0  0  0  0  0  0  0  0  0  0
    5.5266   -0.0370    0.0000 H   0  0  0  0  0  0  0  0  0  0  0  0
    5.7794   -0.3857    0.0000 H   0  0  0  0  0  0  0  0  0  0  0  0
    8.4144    1.1508    0.0000 H   0  0  0  0  0  0  0  0  0  0  0  0
    8.6620    1.9084    0.0000 H   0  0  0  0  0  0  0  0  0  0  0  0
    4.4983    1.0522    0.0000 H   0  0  0  0  0  0  0  0  0  0  0  0
    7.2848   -2.0447    0.0000 H   0  0  0  0  0  0  0  0  0  0  0  0
    4.2690   -0.4247    0.0000 H   0  0  0  0  0  0  0  0  0  0  0  0
    7.8473    4.0447    0.0000 H   0  0  0  0  0  0  0  0  0  0  0  0
    2.8660   -2.8547    0.0000 H   0  0  0  0  0  0  0  0  0  0  0  0
    2.0000   -1.3547    0.0000 H   0  0  0  0  0  0  0  0  0  0  0  0
    2.5369   -0.4247    0.0000 H   0  0  0  0  0  0  0  0  0  0  0  0
  1  3  1  0  0  0  0
  1  4  1  0  0  0  0
  1  6  1  0  0  0  0
  1  7  2  0  0  0  0
  2 14  1  0  0  0  0
  2 16  1  0  0  0  0
  3 13  1  0  0  0  0
  4 17  1  0  0  0  0
 15  5  1  6  0  0  0
  5 30  1  0  0  0  0
  6 33  1  0  0  0  0
  8 22  2  0  0  0  0
 16  9  1  1  0  0  0
  9 18  1  0  0  0  0
  9 19  1  0  0  0  0
 10 19  2  0  0  0  0
 10 20  1  0  0  0  0
 11 22  1  0  0  0  0
 11 23  1  0  0  0  0
 11 34  1  0  0  0  0
 12 23  1  0  0  0  0
 12 35  1  0  0  0  0
 12 36  1  0  0  0  0
 13 14  1  0  0  0  0
 13 15  1  0  0  0  0
 13 24  1  0  0  0  0
 14 17  1  0  0  0  0
 14 25  1  0  0  0  0
 15 16  1  0  0  0  0
 15 26  1  0  0  0  0
 16 27  1  0  0  0  0
 17 28  1  0  0  0  0
 17 29  1  0  0  0  0
 18 20  2  0  0  0  0
 18 21  1  0  0  0  0
 19 31  1  0  0  0  0
 20 22  1  0  0  0  0
 21 23  2  0  0  0  0
 21 32  1  0  0  0  0
M  END
> <PUBCHEM_COMPOUND_CID>
512727
> <PUBCHEM_COMPOUND_CANONICALIZED>
1
> <PUBCHEM_CACTVS_COMPLEXITY>
615
> <PUBCHEM_CACTVS_HBOND_ACCEPTOR>
9
> <PUBCHEM_CACTVS_HBOND_DONOR>
4
> <PUBCHEM_CACTVS_ROTATABLE_BOND>
1
> <PUBCHEM_CACTVS_SUBSKEYS>
AAADccBzuAIAAAAAAAAAAAAAAAAAAWJAAAAkQAAAAAAAAEgBgAAAHgAQCCAACBzhlgYFkBfMFxCoQSVzdICCgC03EqAB2AG4VFiLWBpAyCAeQYhPgQLTgWDwMAIAAAAAAAAAAAAAAAAAAAAAAAAAAAAAAA==
> <PUBCHEM_IUPAC_OPENEYE_NAME>
6-amino-1-[(6R,7R)-2,7-dihydroxy-2-oxo-4a,6,7,7a-tetrahydro-4H-furo[3,2-d][1,3,2]dioxaphosphinin-6-yl]-5H-imidazo[4,5-c]pyridin-4-one
> <PUBCHEM_IUPAC_CAS_NAME>
6-amino-1-[(6R,7R)-2,7-dihydroxy-2-oxo-4a,6,7,7a-tetrahydro-4H-furo[3,2-d][1,3,2]dioxaphosphorin-6-yl]-5H-imidazo[4,5-c]pyridin-4-one
> <PUBCHEM_IUPAC_NAME_MARKUP>
6-amino-1-[(6<I>R</I>,7<I>R</I>)-2,7-dihydroxy-2-oxo-4<I>a</I>,6,7,7<I>a</I>-tetrahydro-4<I>H</I>-furo[3,2-d][1,3,2]dioxaphosphinin-6-yl]-5<I>H</I>-imidazo[4,5-c]pyridin-4-one
> <PUBCHEM_IUPAC_NAME>
6-amino-1-[(6R,7R)-2,7-dihydroxy-2-oxo-4a,6,7,7a-tetrahydro-4H-furo[3,2-d][1,3,2]dioxaphosphinin-6-yl]-5H-imidazo[4,5-c]pyridin-4-one
> <PUBCHEM_IUPAC_SYSTEMATIC_NAME>
6-azanyl-1-[(6R,7R)-2,7-bis(oxidanyl)-2-oxidanylidene-4a,6,7,7a-tetrahydro-4H-furo[3,2-d][1,3,2]dioxaphosphinin-6-yl]-5H-imidazo[4,5-c]pyridin-4-one
> <PUBCHEM_IUPAC_TRADITIONAL_NAME>
6-amino-1-[(6R,7R)-2,7-dihydroxy-2-keto-4a,6,7,7a-tetrahydro-4H-furo[3,2-d][1,3,2]dioxaphosphorin-6-yl]-5H-imidazo[4,5-c]pyridin-4-one
> <PUBCHEM_IUPAC_INCHI>
InChI=1S/C11H13N4O7P/c12-6-1-4-7(10(17)14-6)13-3-15(4)11-8(16)9-5(21-11)2-20-23(18,19)22-9/h1,3,5,8-9,11,16H,2H2,(H,18,19)(H3,12,14,17)/t5?,8-,9?,11-/m1/s1
> <PUBCHEM_IUPAC_INCHIKEY>
KAGWKVZYVMYTCC-MUMSQZJKSA-N
> <PUBCHEM_XLOGP3_AA>
-2.9
> <PUBCHEM_EXACT_MASS>
344.05218576
> <PUBCHEM_MOLECULAR_FORMULA>
C11H13N4O7P
> <PUBCHEM_MOLECULAR_WEIGHT>
344.22
> <PUBCHEM_OPENEYE_CAN_SMILES>
C1C2C(C(C(O2)N3C=NC4=C3C=C(NC4=O)N)O)OP(=O)(O1)O
> <PUBCHEM_OPENEYE_ISO_SMILES>
C1C2C([C@H]([C@@H](O2)N3C=NC4=C3C=C(NC4=O)N)O)OP(=O)(O1)O
> <PUBCHEM_CACTVS_TPSA>
158
> <PUBCHEM_MONOISOTOPIC_WEIGHT>
344.05218576
> <PUBCHEM_TOTAL_CHARGE>
0
> <PUBCHEM_HEAVY_ATOM_COUNT>
23
> <PUBCHEM_ATOM_DEF_STEREO_COUNT>
2
> <PUBCHEM_ATOM_UDEF_STEREO_COUNT>
2
> <PUBCHEM_BOND_DEF_STEREO_COUNT>
0
> <PUBCHEM_BOND_UDEF_STEREO_COUNT>
0
> <PUBCHEM_ISOTOPIC_ATOM_COUNT>
0
> <PUBCHEM_COMPONENT_COUNT>
1
> <PUBCHEM_CACTVS_TAUTO_COUNT>
9
> <PUBCHEM_COORDINATE_TYPE>
1
5
255
> <PUBCHEM_BONDANNOTATIONS>
10  19  8
10  20  8
11  22  8
11  23  8
13  24  3
14  25  3
18  20  8
18  21  8
20  22  8
21  23  8
15  5  6
16  9  5
9  18  8
9  19  8
$$$$
