512719
  -OEChem-10302200282D
 40 42  0     1  0  0  0  0  0999 V2000
    5.9405   -0.9456    0.0000 O   0  0  0  0  0  0  0  0  0  0  0  0
    3.4026   -1.4500    0.0000 O   0  0  0  0  0  0  0  0  0  0  0  0
    4.6844   -3.2078    0.0000 O   0  0  0  0  0  0  0  0  0  0  0  0
    7.6651   -2.1236    0.0000 O   0  0  0  0  0  0  0  0  0  0  0  0
    5.9674    3.0785    0.0000 O   0  0  0  0  0  0  0  0  0  0  0  0
    4.6783    0.3123    0.0000 N   0  0  0  0  0  0  0  0  0  0  0  0
    2.8660    0.1171    0.0000 N   0  0  0  0  0  0  0  0  0  0  0  0
    2.0000    1.6171    0.0000 N   0  0  0  0  0  0  0  0  0  0  0  0
    2.8660    3.1171    0.0000 N   0  0  0  0  0  0  0  0  0  0  0  0
    4.9889   -0.6382    0.0000 C   0  0  1  0  0  0  0  0  0  0  0  0
    4.4026   -1.4482    0.0000 C   0  0  1  0  0  0  0  0  0  0  0  0
    4.9917   -2.2562    0.0000 C   0  0  1  0  0  0  0  0  0  0  0  0
    5.9422   -1.9456    0.0000 C   0  0  1  0  0  0  0  0  0  0  0  0
    6.7523   -2.5320    0.0000 C   0  0  0  0  0  0  0  0  0  0  0  0
    3.7320    0.6171    0.0000 C   0  0  0  0  0  0  0  0  0  0  0  0
    5.2619    1.1171    0.0000 C   0  0  0  0  0  0  0  0  0  0  0  0
    4.6783    1.9218    0.0000 C   0  0  0  0  0  0  0  0  0  0  0  0
    3.7320    1.6171    0.0000 C   0  0  0  0  0  0  0  0  0  0  0  0
    4.9889    2.8723    0.0000 C   0  0  3  0  0  0  0  0  0  0  0  0
    2.8660    2.1171    0.0000 C   0  0  0  0  0  0  0  0  0  0  0  0
    4.3211    3.6166    0.0000 C   0  0  0  0  0  0  0  0  0  0  0  0
    2.0000    0.6171    0.0000 C   0  0  0  0  0  0  0  0  0  0  0  0
    5.4266   -0.1990    0.0000 H   0  0  0  0  0  0  0  0  0  0  0  0
    4.1201   -0.8963    0.0000 H   0  0  0  0  0  0  0  0  0  0  0  0
    5.4309   -2.6939    0.0000 H   0  0  0  0  0  0  0  0  0  0  0  0
    6.4942   -1.6631    0.0000 H   0  0  0  0  0  0  0  0  0  0  0  0
    6.3070   -2.9634    0.0000 H   0  0  0  0  0  0  0  0  0  0  0  0
    7.0999   -3.0454    0.0000 H   0  0  0  0  0  0  0  0  0  0  0  0
    5.8819    1.1171    0.0000 H   0  0  0  0  0  0  0  0  0  0  0  0
    3.0935   -1.9874    0.0000 H   0  0  0  0  0  0  0  0  0  0  0  0
    5.1000   -3.6678    0.0000 H   0  0  0  0  0  0  0  0  0  0  0  0
    5.2530    3.6802    0.0000 H   0  0  0  0  0  0  0  0  0  0  0  0
    8.1674   -2.4872    0.0000 H   0  0  0  0  0  0  0  0  0  0  0  0
    4.7826    4.0307    0.0000 H   0  0  0  0  0  0  0  0  0  0  0  0
    3.9070    4.0781    0.0000 H   0  0  0  0  0  0  0  0  0  0  0  0
    3.8596    3.2026    0.0000 H   0  0  0  0  0  0  0  0  0  0  0  0
    1.4631    0.3071    0.0000 H   0  0  0  0  0  0  0  0  0  0  0  0
    6.1600    3.6678    0.0000 H   0  0  0  0  0  0  0  0  0  0  0  0
    2.3291    3.4271    0.0000 H   0  0  0  0  0  0  0  0  0  0  0  0
    3.4030    3.4271    0.0000 H   0  0  0  0  0  0  0  0  0  0  0  0
  1 10  1  0  0  0  0
  1 13  1  0  0  0  0
 11  2  1  1  0  0  0
  2 30  1  0  0  0  0
 12  3  1  1  0  0  0
  3 31  1  0  0  0  0
  4 14  1  0  0  0  0
  4 33  1  0  0  0  0
  5 19  1  0  0  0  0
  5 38  1  0  0  0  0
 10  6  1  6  0  0  0
  6 15  1  0  0  0  0
  6 16  1  0  0  0  0
  7 15  2  0  0  0  0
  7 22  1  0  0  0  0
  8 20  1  0  0  0  0
  8 22  2  0  0  0  0
  9 20  1  0  0  0  0
  9 39  1  0  0  0  0
  9 40  1  0  0  0  0
 10 11  1  0  0  0  0
 10 23  1  0  0  0  0
 11 12  1  0  0  0  0
 11 24  1  0  0  0  0
 12 13  1  0  0  0  0
 12 25  1  0  0  0  0
 13 14  1  6  0  0  0
 13 26  1  0  0  0  0
 14 27  1  0  0  0  0
 14 28  1  0  0  0  0
 15 18  1  0  0  0  0
 16 17  2  0  0  0  0
 16 29  1  0  0  0  0
 17 18  1  0  0  0  0
 17 19  1  0  0  0  0
 18 20  2  0  0  0  0
 19 21  1  0  0  0  0
 19 32  1  0  0  0  0
 21 34  1  0  0  0  0
 21 35  1  0  0  0  0
 21 36  1  0  0  0  0
 22 37  1  0  0  0  0
M  END
> <PUBCHEM_COMPOUND_CID>
512719
> <PUBCHEM_COMPOUND_CANONICALIZED>
1
> <PUBCHEM_CACTVS_COMPLEXITY>
403
> <PUBCHEM_CACTVS_HBOND_ACCEPTOR>
8
> <PUBCHEM_CACTVS_HBOND_DONOR>
5
> <PUBCHEM_CACTVS_ROTATABLE_BOND>
3
> <PUBCHEM_CACTVS_SUBSKEYS>
AAADceBzuAAAAAAAAAAAAAAAAAAAAWJAAAAsAAAAAAAAAFgB+AAAHgAQCAAADBThmwYvsN9MFgCgAhJnZACCgCkxAKAB2CAoTJiLPkJA2cGOVAhvwAPbWCLwMAIOgAAAAAAAAAAAAAAAAAAAAAAAAAAAAA==
> <PUBCHEM_IUPAC_OPENEYE_NAME>
(2R,3R,4S,5R)-2-[4-amino-5-(1-hydroxyethyl)pyrrolo[2,3-d]pyrimidin-7-yl]-5-(hydroxymethyl)tetrahydrofuran-3,4-diol
> <PUBCHEM_IUPAC_CAS_NAME>
(2R,3R,4S,5R)-2-[4-amino-5-(1-hydroxyethyl)-7-pyrrolo[2,3-d]pyrimidinyl]-5-(hydroxymethyl)oxolane-3,4-diol
> <PUBCHEM_IUPAC_NAME_MARKUP>
(2<I>R</I>,3<I>R</I>,4<I>S</I>,5<I>R</I>)-2-[4-amino-5-(1-hydroxyethyl)pyrrolo[2,3-d]pyrimidin-7-yl]-5-(hydroxymethyl)oxolane-3,4-diol
> <PUBCHEM_IUPAC_NAME>
(2R,3R,4S,5R)-2-[4-amino-5-(1-hydroxyethyl)pyrrolo[2,3-d]pyrimidin-7-yl]-5-(hydroxymethyl)oxolane-3,4-diol
> <PUBCHEM_IUPAC_SYSTEMATIC_NAME>
(2R,3R,4S,5R)-2-[4-azanyl-5-(1-hydroxyethyl)pyrrolo[2,3-d]pyrimidin-7-yl]-5-(hydroxymethyl)oxolane-3,4-diol
> <PUBCHEM_IUPAC_TRADITIONAL_NAME>
(2R,3R,4S,5R)-2-[4-amino-5-(1-hydroxyethyl)pyrrolo[2,3-d]pyrimidin-7-yl]-5-methylol-tetrahydrofuran-3,4-diol
> <PUBCHEM_IUPAC_INCHI>
InChI=1S/C13H18N4O5/c1-5(19)6-2-17(12-8(6)11(14)15-4-16-12)13-10(21)9(20)7(3-18)22-13/h2,4-5,7,9-10,13,18-21H,3H2,1H3,(H2,14,15,16)/t5?,7-,9-,10-,13-/m1/s1
> <PUBCHEM_IUPAC_INCHIKEY>
JYIAJJSNXKIKNO-OEOQMHLKSA-N
> <PUBCHEM_XLOGP3_AA>
-1.8
> <PUBCHEM_EXACT_MASS>
310.12771969
> <PUBCHEM_MOLECULAR_FORMULA>
C13H18N4O5
> <PUBCHEM_MOLECULAR_WEIGHT>
310.31
> <PUBCHEM_OPENEYE_CAN_SMILES>
CC(C1=CN(C2=NC=NC(=C12)N)C3C(C(C(O3)CO)O)O)O
> <PUBCHEM_OPENEYE_ISO_SMILES>
CC(C1=CN(C2=NC=NC(=C12)N)[C@H]3[C@@H]([C@@H]([C@H](O3)CO)O)O)O
> <PUBCHEM_CACTVS_TPSA>
147
> <PUBCHEM_MONOISOTOPIC_WEIGHT>
310.12771969
> <PUBCHEM_TOTAL_CHARGE>
0
> <PUBCHEM_HEAVY_ATOM_COUNT>
22
> <PUBCHEM_ATOM_DEF_STEREO_COUNT>
4
> <PUBCHEM_ATOM_UDEF_STEREO_COUNT>
1
> <PUBCHEM_BOND_DEF_STEREO_COUNT>
0
> <PUBCHEM_BOND_UDEF_STEREO_COUNT>
0
> <PUBCHEM_ISOTOPIC_ATOM_COUNT>
0
> <PUBCHEM_COMPONENT_COUNT>
1
> <PUBCHEM_CACTVS_TAUTO_COUNT>
4
> <PUBCHEM_COORDINATE_TYPE>
1
5
255
> <PUBCHEM_BONDANNOTATIONS>
13  14  6
15  18  8
16  17  8
17  18  8
18  20  8
19  32  3
11  2  5
12  3  5
10  6  6
6  15  8
6  16  8
7  15  8
7  22  8
8  20  8
8  22  8
$$$$
