512791
  -OEChem-10302200282D
 51 54  0     1  0  0  0  0  0999 V2000
    8.6651   -1.4572    0.0000 F   0  0  0  0  0  0  0  0  0  0  0  0
    5.1350   -2.4330    0.0000 O   0  0  0  0  0  0  0  0  0  0  0  0
    2.5369   -0.9330    0.0000 O   0  0  0  0  0  0  0  0  0  0  0  0
    3.4030   -2.4330    0.0000 O   0  0  0  0  0  0  0  0  0  0  0  0
    8.6651    0.5911    0.0000 N   0  0  3  0  0  0  0  0  0  0  0  0
    6.0010   -0.9330    0.0000 N   0  0  0  0  0  0  0  0  0  0  0  0
   11.8261    1.6442    0.0000 N   0  0  0  0  0  0  0  0  0  0  0  0
    5.1350    1.5670    0.0000 C   0  0  0  0  0  0  0  0  0  0  0  0
    5.6350    2.4330    0.0000 C   0  0  0  0  0  0  0  0  0  0  0  0
    4.6350    2.4330    0.0000 C   0  0  0  0  0  0  0  0  0  0  0  0
   10.2465    0.9336    0.0000 C   0  0  2  0  0  0  0  0  0  0  0  0
    9.5802    0.1879    0.0000 C   0  0  0  0  0  0  0  0  0  0  0  0
    9.7432    1.7977    0.0000 C   0  0  0  0  0  0  0  0  0  0  0  0
    5.1350    0.5670    0.0000 C   0  0  0  0  0  0  0  0  0  0  0  0
    8.7658    1.5860    0.0000 C   0  0  0  0  0  0  0  0  0  0  0  0
   11.2414    0.8329    0.0000 C   0  0  3  0  0  0  0  0  0  0  0  0
    6.0010    0.0670    0.0000 C   0  0  0  0  0  0  0  0  0  0  0  0
    7.8010    0.0878    0.0000 C   0  0  0  0  0  0  0  0  0  0  0  0
    6.8950    0.6016    0.0000 C   0  0  0  0  0  0  0  0  0  0  0  0
    4.2690    0.0670    0.0000 C   0  0  0  0  0  0  0  0  0  0  0  0
    7.8010   -0.9538    0.0000 C   0  0  0  0  0  0  0  0  0  0  0  0
   11.6517   -0.0790    0.0000 C   0  0  0  0  0  0  0  0  0  0  0  0
    6.8950   -1.4677    0.0000 C   0  0  0  0  0  0  0  0  0  0  0  0
    4.2690   -0.9330    0.0000 C   0  0  0  0  0  0  0  0  0  0  0  0
    5.1350   -1.4330    0.0000 C   0  0  0  0  0  0  0  0  0  0  0  0
    6.8834    1.6016    0.0000 C   0  0  0  0  0  0  0  0  0  0  0  0
    3.4030   -1.4330    0.0000 C   0  0  0  0  0  0  0  0  0  0  0  0
    5.7339    1.4065    0.0000 H   0  0  0  0  0  0  0  0  0  0  0  0
    6.2176    2.2210    0.0000 H   0  0  0  0  0  0  0  0  0  0  0  0
    5.7427    3.0436    0.0000 H   0  0  0  0  0  0  0  0  0  0  0  0
    4.5274    3.0436    0.0000 H   0  0  0  0  0  0  0  0  0  0  0  0
    4.0524    2.2210    0.0000 H   0  0  0  0  0  0  0  0  0  0  0  0
   10.5822    1.4549    0.0000 H   0  0  0  0  0  0  0  0  0  0  0  0
    9.2723   -0.3502    0.0000 H   0  0  0  0  0  0  0  0  0  0  0  0
   10.0832   -0.1746    0.0000 H   0  0  0  0  0  0  0  0  0  0  0  0
   10.3086    2.0521    0.0000 H   0  0  0  0  0  0  0  0  0  0  0  0
    9.5493    2.3866    0.0000 H   0  0  0  0  0  0  0  0  0  0  0  0
    8.6986    2.2024    0.0000 H   0  0  0  0  0  0  0  0  0  0  0  0
    8.1458    1.5837    0.0000 H   0  0  0  0  0  0  0  0  0  0  0  0
   10.9871    1.3984    0.0000 H   0  0  0  0  0  0  0  0  0  0  0  0
    3.7320    0.3770    0.0000 H   0  0  0  0  0  0  0  0  0  0  0  0
   11.0863   -0.3334    0.0000 H   0  0  0  0  0  0  0  0  0  0  0  0
   11.9060   -0.6444    0.0000 H   0  0  0  0  0  0  0  0  0  0  0  0
   12.2171    0.1753    0.0000 H   0  0  0  0  0  0  0  0  0  0  0  0
    6.8878   -2.0876    0.0000 H   0  0  0  0  0  0  0  0  0  0  0  0
    7.5034    1.6087    0.0000 H   0  0  0  0  0  0  0  0  0  0  0  0
    6.8762    2.2215    0.0000 H   0  0  0  0  0  0  0  0  0  0  0  0
    6.2635    1.5944    0.0000 H   0  0  0  0  0  0  0  0  0  0  0  0
   12.4429    1.5818    0.0000 H   0  0  0  0  0  0  0  0  0  0  0  0
   11.5717    2.2096    0.0000 H   0  0  0  0  0  0  0  0  0  0  0  0
    2.0000   -1.2430    0.0000 H   0  0  0  0  0  0  0  0  0  0  0  0
  1 21  1  0  0  0  0
  2 25  2  0  0  0  0
  3 27  1  0  0  0  0
  3 51  1  0  0  0  0
  4 27  2  0  0  0  0
  5 12  1  0  0  0  0
  5 15  1  0  0  0  0
  5 18  1  0  0  0  0
  6 17  1  0  0  0  0
  6 23  1  0  0  0  0
  6 25  1  0  0  0  0
  7 16  1  0  0  0  0
  7 49  1  0  0  0  0
  7 50  1  0  0  0  0
  8  9  1  0  0  0  0
  8 10  1  0  0  0  0
  8 14  1  0  0  0  0
  8 28  1  0  0  0  0
  9 10  1  0  0  0  0
  9 29  1  0  0  0  0
  9 30  1  0  0  0  0
 10 31  1  0  0  0  0
 10 32  1  0  0  0  0
 11 12  1  0  0  0  0
 11 13  1  0  0  0  0
 11 16  1  6  0  0  0
 11 33  1  0  0  0  0
 12 34  1  0  0  0  0
 12 35  1  0  0  0  0
 13 15  1  0  0  0  0
 13 36  1  0  0  0  0
 13 37  1  0  0  0  0
 14 17  2  0  0  0  0
 14 20  1  0  0  0  0
 15 38  1  0  0  0  0
 15 39  1  0  0  0  0
 16 22  1  0  0  0  0
 16 40  1  0  0  0  0
 17 19  1  0  0  0  0
 18 19  2  0  0  0  0
 18 21  1  0  0  0  0
 19 26  1  0  0  0  0
 20 24  2  0  0  0  0
 20 41  1  0  0  0  0
 21 23  2  0  0  0  0
 22 42  1  0  0  0  0
 22 43  1  0  0  0  0
 22 44  1  0  0  0  0
 23 45  1  0  0  0  0
 24 25  1  0  0  0  0
 24 27  1  0  0  0  0
 26 46  1  0  0  0  0
 26 47  1  0  0  0  0
 26 48  1  0  0  0  0
M  END
> <PUBCHEM_COMPOUND_CID>
512791
> <PUBCHEM_COMPOUND_CANONICALIZED>
1
> <PUBCHEM_CACTVS_COMPLEXITY>
851
> <PUBCHEM_CACTVS_HBOND_ACCEPTOR>
6
> <PUBCHEM_CACTVS_HBOND_DONOR>
2
> <PUBCHEM_CACTVS_ROTATABLE_BOND>
4
> <PUBCHEM_CACTVS_SUBSKEYS>
AAADceB7MQAAAAAAAAAAAAAAGAAAAWAAAAAgQAAAAAAAAACAAAAAHwAQCAAADSjBgAQCCANAAgCIAiXWWACAAAAgAAAACIEIAEgIBA4IwAAEUAACtgCIkYIQAAAKAAAAAAAAAAAAAAAAAAAAAAAAAAAAAA==
> <PUBCHEM_IUPAC_OPENEYE_NAME>
8-[(3S)-3-(1-aminoethyl)pyrrolidin-1-yl]-1-cyclopropyl-7-fluoro-9-methyl-4-oxo-quinolizine-3-carboxylic acid
> <PUBCHEM_IUPAC_CAS_NAME>
8-[(3S)-3-(1-aminoethyl)-1-pyrrolidinyl]-1-cyclopropyl-7-fluoro-9-methyl-4-oxo-3-quinolizinecarboxylic acid
> <PUBCHEM_IUPAC_NAME_MARKUP>
8-[(3<I>S</I>)-3-(1-aminoethyl)pyrrolidin-1-yl]-1-cyclopropyl-7-fluoro-9-methyl-4-oxoquinolizine-3-carboxylic acid
> <PUBCHEM_IUPAC_NAME>
8-[(3S)-3-(1-aminoethyl)pyrrolidin-1-yl]-1-cyclopropyl-7-fluoro-9-methyl-4-oxoquinolizine-3-carboxylic acid
> <PUBCHEM_IUPAC_SYSTEMATIC_NAME>
8-[(3S)-3-(1-azanylethyl)pyrrolidin-1-yl]-1-cyclopropyl-7-fluoranyl-9-methyl-4-oxidanylidene-quinolizine-3-carboxylic acid
> <PUBCHEM_IUPAC_TRADITIONAL_NAME>
8-[(3S)-3-(1-aminoethyl)pyrrolidino]-1-cyclopropyl-7-fluoro-4-keto-9-methyl-quinolizine-3-carboxylic acid
> <PUBCHEM_IUPAC_INCHI>
InChI=1S/C20H24FN3O3/c1-10-17-14(12-3-4-12)7-15(20(26)27)19(25)24(17)9-16(21)18(10)23-6-5-13(8-23)11(2)22/h7,9,11-13H,3-6,8,22H2,1-2H3,(H,26,27)/t11?,13-/m0/s1
> <PUBCHEM_IUPAC_INCHIKEY>
BNDYLFXLDDCBDO-YUZLPWPTSA-N
> <PUBCHEM_XLOGP3_AA>
-0.8
> <PUBCHEM_EXACT_MASS>
373.18016980
> <PUBCHEM_MOLECULAR_FORMULA>
C20H24FN3O3
> <PUBCHEM_MOLECULAR_WEIGHT>
373.4
> <PUBCHEM_OPENEYE_CAN_SMILES>
CC1=C(C(=CN2C1=C(C=C(C2=O)C(=O)O)C3CC3)F)N4CCC(C4)C(C)N
> <PUBCHEM_OPENEYE_ISO_SMILES>
CC1=C(C(=CN2C1=C(C=C(C2=O)C(=O)O)C3CC3)F)N4CC[C@@H](C4)C(C)N
> <PUBCHEM_CACTVS_TPSA>
86.9
> <PUBCHEM_MONOISOTOPIC_WEIGHT>
373.18016980
> <PUBCHEM_TOTAL_CHARGE>
0
> <PUBCHEM_HEAVY_ATOM_COUNT>
27
> <PUBCHEM_ATOM_DEF_STEREO_COUNT>
1
> <PUBCHEM_ATOM_UDEF_STEREO_COUNT>
1
> <PUBCHEM_BOND_DEF_STEREO_COUNT>
0
> <PUBCHEM_BOND_UDEF_STEREO_COUNT>
0
> <PUBCHEM_ISOTOPIC_ATOM_COUNT>
0
> <PUBCHEM_COMPONENT_COUNT>
1
> <PUBCHEM_CACTVS_TAUTO_COUNT>
-1
> <PUBCHEM_COORDINATE_TYPE>
1
5
255
> <PUBCHEM_BONDANNOTATIONS>
11  16  6
14  17  8
14  20  8
17  19  8
18  19  8
18  21  8
20  24  8
21  23  8
24  25  8
6  17  8
6  23  8
6  25  8
16  7  3
$$$$
