512728
  -OEChem-10302200282D
 36 38  0     1  0  0  0  0  0999 V2000
    3.3100    0.0670    0.0000 P   0  0  3  0  0  0  0  0  0  0  0  0
    5.9883   -1.2377    0.0000 O   0  0  0  0  0  0  0  0  0  0  0  0
    4.1760    0.5670    0.0000 O   0  0  0  0  0  0  0  0  0  0  0  0
    3.3100   -0.9330    0.0000 O   0  0  0  0  0  0  0  0  0  0  0  0
    2.3100    0.0670    0.0000 O   0  0  0  0  0  0  0  0  0  0  0  0
    2.8100    0.9330    0.0000 O   0  0  0  0  0  0  0  0  0  0  0  0
    7.5719   -2.1651    0.0000 O   0  0  0  0  0  0  0  0  0  0  0  0
   10.5719   -0.4330    0.0000 O   0  0  0  0  0  0  0  0  0  0  0  0
    7.5719   -0.4330    0.0000 N   0  0  0  0  0  0  0  0  0  0  0  0
    9.0719   -1.2990    0.0000 N   0  0  0  0  0  0  0  0  0  0  0  0
    5.0420    0.0670    0.0000 C   0  0  3  0  0  0  0  0  0  0  0  0
    5.0420   -0.9330    0.0000 C   0  0  3  0  0  0  0  0  0  0  0  0
    5.9883    0.3717    0.0000 C   0  0  0  0  0  0  0  0  0  0  0  0
    6.5719   -0.4330    0.0000 C   0  0  1  0  0  0  0  0  0  0  0  0
    4.1760   -1.4330    0.0000 C   0  0  0  0  0  0  0  0  0  0  0  0
    8.0719    0.4330    0.0000 C   0  0  0  0  0  0  0  0  0  0  0  0
    8.0719   -1.2990    0.0000 C   0  0  0  0  0  0  0  0  0  0  0  0
    9.0719    0.4330    0.0000 C   0  0  0  0  0  0  0  0  0  0  0  0
    9.5719   -0.4330    0.0000 C   0  0  0  0  0  0  0  0  0  0  0  0
    9.5719    1.2990    0.0000 C   0  0  0  0  0  0  0  0  0  0  0  0
    9.0719    2.1651    0.0000 C   0  0  0  0  0  0  0  0  0  0  0  0
    5.1077    0.6835    0.0000 H   0  0  0  0  0  0  0  0  0  0  0  0
    5.1077   -1.5495    0.0000 H   0  0  0  0  0  0  0  0  0  0  0  0
    6.5256    0.6809    0.0000 H   0  0  0  0  0  0  0  0  0  0  0  0
    5.7372    0.9386    0.0000 H   0  0  0  0  0  0  0  0  0  0  0  0
    6.8536   -0.9853    0.0000 H   0  0  0  0  0  0  0  0  0  0  0  0
    3.7775   -1.9080    0.0000 H   0  0  0  0  0  0  0  0  0  0  0  0
    4.5746   -1.9080    0.0000 H   0  0  0  0  0  0  0  0  0  0  0  0
    7.7619    0.9699    0.0000 H   0  0  0  0  0  0  0  0  0  0  0  0
    9.3819   -1.8360    0.0000 H   0  0  0  0  0  0  0  0  0  0  0  0
   10.0468    0.9005    0.0000 H   0  0  0  0  0  0  0  0  0  0  0  0
   10.0468    1.6976    0.0000 H   0  0  0  0  0  0  0  0  0  0  0  0
    2.0000   -0.4699    0.0000 H   0  0  0  0  0  0  0  0  0  0  0  0
    9.6088    2.4751    0.0000 H   0  0  0  0  0  0  0  0  0  0  0  0
    8.7619    2.7020    0.0000 H   0  0  0  0  0  0  0  0  0  0  0  0
    8.5349    1.8551    0.0000 H   0  0  0  0  0  0  0  0  0  0  0  0
  1  3  1  0  0  0  0
  1  4  1  0  0  0  0
  1  5  1  0  0  0  0
  1  6  2  0  0  0  0
  2 12  1  0  0  0  0
  2 14  1  0  0  0  0
  3 11  1  0  0  0  0
  4 15  1  0  0  0  0
  5 33  1  0  0  0  0
  7 17  2  0  0  0  0
  8 19  2  0  0  0  0
 14  9  1  6  0  0  0
  9 16  1  0  0  0  0
  9 17  1  0  0  0  0
 10 17  1  0  0  0  0
 10 19  1  0  0  0  0
 10 30  1  0  0  0  0
 11 12  1  0  0  0  0
 11 13  1  0  0  0  0
 11 22  1  0  0  0  0
 12 15  1  0  0  0  0
 12 23  1  0  0  0  0
 13 14  1  0  0  0  0
 13 24  1  0  0  0  0
 13 25  1  0  0  0  0
 14 26  1  0  0  0  0
 15 27  1  0  0  0  0
 15 28  1  0  0  0  0
 16 18  2  0  0  0  0
 16 29  1  0  0  0  0
 18 19  1  0  0  0  0
 18 20  1  0  0  0  0
 20 21  1  0  0  0  0
 20 31  1  0  0  0  0
 20 32  1  0  0  0  0
 21 34  1  0  0  0  0
 21 35  1  0  0  0  0
 21 36  1  0  0  0  0
M  END
> <PUBCHEM_COMPOUND_CID>
512728
> <PUBCHEM_COMPOUND_CANONICALIZED>
1
> <PUBCHEM_CACTVS_COMPLEXITY>
563
> <PUBCHEM_CACTVS_HBOND_ACCEPTOR>
7
> <PUBCHEM_CACTVS_HBOND_DONOR>
2
> <PUBCHEM_CACTVS_ROTATABLE_BOND>
2
> <PUBCHEM_CACTVS_SUBSKEYS>
AAADccBzOAIAAAAAAAAAAAAAAAAAASAAAAAkQAAAAAAAAEgAAAAAHgAQCCAADBThgAYDAAPABRCIQgFWUICAAAAgAAAAAAEIAEiBABIAgQAOAAAPByICAMCwMAIAAAAAAAAAAAAAAAAAAAAAAAAAAAAAAA==
> <PUBCHEM_IUPAC_OPENEYE_NAME>
5-ethyl-1-[(6R)-2-hydroxy-2-oxo-4a,6,7,7a-tetrahydro-4H-furo[3,2-d][1,3,2]dioxaphosphinin-6-yl]pyrimidine-2,4-dione
> <PUBCHEM_IUPAC_CAS_NAME>
5-ethyl-1-[(6R)-2-hydroxy-2-oxo-4a,6,7,7a-tetrahydro-4H-furo[3,2-d][1,3,2]dioxaphosphorin-6-yl]pyrimidine-2,4-dione
> <PUBCHEM_IUPAC_NAME_MARKUP>
5-ethyl-1-[(6<I>R</I>)-2-hydroxy-2-oxo-4<I>a</I>,6,7,7<I>a</I>-tetrahydro-4<I>H</I>-furo[3,2-d][1,3,2]dioxaphosphinin-6-yl]pyrimidine-2,4-dione
> <PUBCHEM_IUPAC_NAME>
5-ethyl-1-[(6R)-2-hydroxy-2-oxo-4a,6,7,7a-tetrahydro-4H-furo[3,2-d][1,3,2]dioxaphosphinin-6-yl]pyrimidine-2,4-dione
> <PUBCHEM_IUPAC_SYSTEMATIC_NAME>
5-ethyl-1-[(6R)-2-oxidanyl-2-oxidanylidene-4a,6,7,7a-tetrahydro-4H-furo[3,2-d][1,3,2]dioxaphosphinin-6-yl]pyrimidine-2,4-dione
> <PUBCHEM_IUPAC_TRADITIONAL_NAME>
5-ethyl-1-[(6R)-2-hydroxy-2-keto-4a,6,7,7a-tetrahydro-4H-furo[3,2-d][1,3,2]dioxaphosphorin-6-yl]pyrimidine-2,4-quinone
> <PUBCHEM_IUPAC_INCHI>
InChI=1S/C11H15N2O7P/c1-2-6-4-13(11(15)12-10(6)14)9-3-7-8(19-9)5-18-21(16,17)20-7/h4,7-9H,2-3,5H2,1H3,(H,16,17)(H,12,14,15)/t7?,8?,9-/m1/s1
> <PUBCHEM_IUPAC_INCHIKEY>
DQBNIZSONOLUGO-AMDVSUOASA-N
> <PUBCHEM_XLOGP3_AA>
-1.2
> <PUBCHEM_EXACT_MASS>
318.06168782
> <PUBCHEM_MOLECULAR_FORMULA>
C11H15N2O7P
> <PUBCHEM_MOLECULAR_WEIGHT>
318.22
> <PUBCHEM_OPENEYE_CAN_SMILES>
CCC1=CN(C(=O)NC1=O)C2CC3C(O2)COP(=O)(O3)O
> <PUBCHEM_OPENEYE_ISO_SMILES>
CCC1=CN(C(=O)NC1=O)[C@H]2CC3C(O2)COP(=O)(O3)O
> <PUBCHEM_CACTVS_TPSA>
114
> <PUBCHEM_MONOISOTOPIC_WEIGHT>
318.06168782
> <PUBCHEM_TOTAL_CHARGE>
0
> <PUBCHEM_HEAVY_ATOM_COUNT>
21
> <PUBCHEM_ATOM_DEF_STEREO_COUNT>
1
> <PUBCHEM_ATOM_UDEF_STEREO_COUNT>
2
> <PUBCHEM_BOND_DEF_STEREO_COUNT>
0
> <PUBCHEM_BOND_UDEF_STEREO_COUNT>
0
> <PUBCHEM_ISOTOPIC_ATOM_COUNT>
0
> <PUBCHEM_COMPONENT_COUNT>
1
> <PUBCHEM_CACTVS_TAUTO_COUNT>
-1
> <PUBCHEM_COORDINATE_TYPE>
1
5
255
> <PUBCHEM_BONDANNOTATIONS>
10  17  8
10  19  8
11  13  3
12  15  3
16  18  8
18  19  8
14  9  6
9  16  8
9  17  8
$$$$
