512720
  -OEChem-10302200282D
 43 45  0     1  0  0  0  0  0999 V2000
    5.9405   -1.1262    0.0000 O   0  0  0  0  0  0  0  0  0  0  0  0
    3.4026   -1.6306    0.0000 O   0  0  0  0  0  0  0  0  0  0  0  0
    4.6844   -3.3884    0.0000 O   0  0  0  0  0  0  0  0  0  0  0  0
    7.6651   -2.3042    0.0000 O   0  0  0  0  0  0  0  0  0  0  0  0
    5.9674    2.8979    0.0000 O   0  0  0  0  0  0  0  0  0  0  0  0
    4.6783    0.1317    0.0000 N   0  0  0  0  0  0  0  0  0  0  0  0
    2.8660   -0.0635    0.0000 N   0  0  0  0  0  0  0  0  0  0  0  0
    2.0000    1.4365    0.0000 N   0  0  0  0  0  0  0  0  0  0  0  0
    2.8660    2.9365    0.0000 N   0  0  0  0  0  0  0  0  0  0  0  0
    4.9889   -0.8188    0.0000 C   0  0  1  0  0  0  0  0  0  0  0  0
    4.4026   -1.6288    0.0000 C   0  0  1  0  0  0  0  0  0  0  0  0
    4.9917   -2.4368    0.0000 C   0  0  1  0  0  0  0  0  0  0  0  0
    5.9422   -2.1262    0.0000 C   0  0  1  0  0  0  0  0  0  0  0  0
    6.7523   -2.7125    0.0000 C   0  0  0  0  0  0  0  0  0  0  0  0
    3.7320    0.4365    0.0000 C   0  0  0  0  0  0  0  0  0  0  0  0
    5.2619    0.9365    0.0000 C   0  0  0  0  0  0  0  0  0  0  0  0
    4.6783    1.7412    0.0000 C   0  0  0  0  0  0  0  0  0  0  0  0
    3.7320    1.4365    0.0000 C   0  0  0  0  0  0  0  0  0  0  0  0
    4.9889    2.6917    0.0000 C   0  0  3  0  0  0  0  0  0  0  0  0
    2.8660    1.9365    0.0000 C   0  0  0  0  0  0  0  0  0  0  0  0
    4.3211    3.4360    0.0000 C   0  0  0  0  0  0  0  0  0  0  0  0
    2.0000    0.4365    0.0000 C   0  0  0  0  0  0  0  0  0  0  0  0
    6.2781    3.8484    0.0000 C   0  0  0  0  0  0  0  0  0  0  0  0
    5.4266   -0.3796    0.0000 H   0  0  0  0  0  0  0  0  0  0  0  0
    4.1201   -1.0769    0.0000 H   0  0  0  0  0  0  0  0  0  0  0  0
    5.4309   -2.8745    0.0000 H   0  0  0  0  0  0  0  0  0  0  0  0
    6.4942   -1.8437    0.0000 H   0  0  0  0  0  0  0  0  0  0  0  0
    6.3070   -3.1440    0.0000 H   0  0  0  0  0  0  0  0  0  0  0  0
    7.0999   -3.2260    0.0000 H   0  0  0  0  0  0  0  0  0  0  0  0
    5.8819    0.9365    0.0000 H   0  0  0  0  0  0  0  0  0  0  0  0
    3.0935   -2.1680    0.0000 H   0  0  0  0  0  0  0  0  0  0  0  0
    5.1000   -3.8484    0.0000 H   0  0  0  0  0  0  0  0  0  0  0  0
    5.2530    3.4996    0.0000 H   0  0  0  0  0  0  0  0  0  0  0  0
    4.7826    3.8501    0.0000 H   0  0  0  0  0  0  0  0  0  0  0  0
    3.9070    3.8975    0.0000 H   0  0  0  0  0  0  0  0  0  0  0  0
    3.8596    3.0220    0.0000 H   0  0  0  0  0  0  0  0  0  0  0  0
    8.1674   -2.6678    0.0000 H   0  0  0  0  0  0  0  0  0  0  0  0
    1.4631    0.1265    0.0000 H   0  0  0  0  0  0  0  0  0  0  0  0
    2.3291    3.2465    0.0000 H   0  0  0  0  0  0  0  0  0  0  0  0
    3.4030    3.2465    0.0000 H   0  0  0  0  0  0  0  0  0  0  0  0
    6.8674    3.6558    0.0000 H   0  0  0  0  0  0  0  0  0  0  0  0
    6.4707    4.4378    0.0000 H   0  0  0  0  0  0  0  0  0  0  0  0
    5.6888    4.0411    0.0000 H   0  0  0  0  0  0  0  0  0  0  0  0
  1 10  1  0  0  0  0
  1 13  1  0  0  0  0
 11  2  1  1  0  0  0
  2 31  1  0  0  0  0
 12  3  1  1  0  0  0
  3 32  1  0  0  0  0
  4 14  1  0  0  0  0
  4 37  1  0  0  0  0
  5 19  1  0  0  0  0
  5 23  1  0  0  0  0
 10  6  1  6  0  0  0
  6 15  1  0  0  0  0
  6 16  1  0  0  0  0
  7 15  2  0  0  0  0
  7 22  1  0  0  0  0
  8 20  1  0  0  0  0
  8 22  2  0  0  0  0
  9 20  1  0  0  0  0
  9 39  1  0  0  0  0
  9 40  1  0  0  0  0
 10 11  1  0  0  0  0
 10 24  1  0  0  0  0
 11 12  1  0  0  0  0
 11 25  1  0  0  0  0
 12 13  1  0  0  0  0
 12 26  1  0  0  0  0
 13 14  1  6  0  0  0
 13 27  1  0  0  0  0
 14 28  1  0  0  0  0
 14 29  1  0  0  0  0
 15 18  1  0  0  0  0
 16 17  2  0  0  0  0
 16 30  1  0  0  0  0
 17 18  1  0  0  0  0
 17 19  1  0  0  0  0
 18 20  2  0  0  0  0
 19 21  1  0  0  0  0
 19 33  1  0  0  0  0
 21 34  1  0  0  0  0
 21 35  1  0  0  0  0
 21 36  1  0  0  0  0
 22 38  1  0  0  0  0
 23 41  1  0  0  0  0
 23 42  1  0  0  0  0
 23 43  1  0  0  0  0
M  END
> <PUBCHEM_COMPOUND_CID>
512720
> <PUBCHEM_COMPOUND_CANONICALIZED>
1
> <PUBCHEM_CACTVS_COMPLEXITY>
417
> <PUBCHEM_CACTVS_HBOND_ACCEPTOR>
8
> <PUBCHEM_CACTVS_HBOND_DONOR>
4
> <PUBCHEM_CACTVS_ROTATABLE_BOND>
4
> <PUBCHEM_CACTVS_SUBSKEYS>
AAADceBzuAAAAAAAAAAAAAAAAAAAAWJAAAAsAAAAAAAAAFgB+AAAHgAQCAAADBThmwYvsN9MFgCgAhJnZACCgCkxAKAB2CAoTJiLPkJA+cmOVAhvwAPbaCLwMAIOgAAAAAAAAAAAAAAAAAAAAAAAAAAAAA==
> <PUBCHEM_IUPAC_OPENEYE_NAME>
(2R,3R,4S,5R)-2-[4-amino-5-(1-methoxyethyl)pyrrolo[2,3-d]pyrimidin-7-yl]-5-(hydroxymethyl)tetrahydrofuran-3,4-diol
> <PUBCHEM_IUPAC_CAS_NAME>
(2R,3R,4S,5R)-2-[4-amino-5-(1-methoxyethyl)-7-pyrrolo[2,3-d]pyrimidinyl]-5-(hydroxymethyl)oxolane-3,4-diol
> <PUBCHEM_IUPAC_NAME_MARKUP>
(2<I>R</I>,3<I>R</I>,4<I>S</I>,5<I>R</I>)-2-[4-amino-5-(1-methoxyethyl)pyrrolo[2,3-d]pyrimidin-7-yl]-5-(hydroxymethyl)oxolane-3,4-diol
> <PUBCHEM_IUPAC_NAME>
(2R,3R,4S,5R)-2-[4-amino-5-(1-methoxyethyl)pyrrolo[2,3-d]pyrimidin-7-yl]-5-(hydroxymethyl)oxolane-3,4-diol
> <PUBCHEM_IUPAC_SYSTEMATIC_NAME>
(2R,3R,4S,5R)-2-[4-azanyl-5-(1-methoxyethyl)pyrrolo[2,3-d]pyrimidin-7-yl]-5-(hydroxymethyl)oxolane-3,4-diol
> <PUBCHEM_IUPAC_TRADITIONAL_NAME>
(2R,3R,4S,5R)-2-[4-amino-5-(1-methoxyethyl)pyrrolo[2,3-d]pyrimidin-7-yl]-5-methylol-tetrahydrofuran-3,4-diol
> <PUBCHEM_IUPAC_INCHI>
InChI=1S/C14H20N4O5/c1-6(22-2)7-3-18(13-9(7)12(15)16-5-17-13)14-11(21)10(20)8(4-19)23-14/h3,5-6,8,10-11,14,19-21H,4H2,1-2H3,(H2,15,16,17)/t6?,8-,10-,11-,14-/m1/s1
> <PUBCHEM_IUPAC_INCHIKEY>
ZTVXTIFPOANESN-TWJZVJIDSA-N
> <PUBCHEM_XLOGP3_AA>
-1.3
> <PUBCHEM_EXACT_MASS>
324.14336975
> <PUBCHEM_MOLECULAR_FORMULA>
C14H20N4O5
> <PUBCHEM_MOLECULAR_WEIGHT>
324.33
> <PUBCHEM_OPENEYE_CAN_SMILES>
CC(C1=CN(C2=NC=NC(=C12)N)C3C(C(C(O3)CO)O)O)OC
> <PUBCHEM_OPENEYE_ISO_SMILES>
CC(C1=CN(C2=NC=NC(=C12)N)[C@H]3[C@@H]([C@@H]([C@H](O3)CO)O)O)OC
> <PUBCHEM_CACTVS_TPSA>
136
> <PUBCHEM_MONOISOTOPIC_WEIGHT>
324.14336975
> <PUBCHEM_TOTAL_CHARGE>
0
> <PUBCHEM_HEAVY_ATOM_COUNT>
23
> <PUBCHEM_ATOM_DEF_STEREO_COUNT>
4
> <PUBCHEM_ATOM_UDEF_STEREO_COUNT>
1
> <PUBCHEM_BOND_DEF_STEREO_COUNT>
0
> <PUBCHEM_BOND_UDEF_STEREO_COUNT>
0
> <PUBCHEM_ISOTOPIC_ATOM_COUNT>
0
> <PUBCHEM_COMPONENT_COUNT>
1
> <PUBCHEM_CACTVS_TAUTO_COUNT>
4
> <PUBCHEM_COORDINATE_TYPE>
1
5
255
> <PUBCHEM_BONDANNOTATIONS>
13  14  6
15  18  8
16  17  8
17  18  8
18  20  8
19  33  3
11  2  5
12  3  5
10  6  6
6  15  8
6  16  8
7  15  8
7  22  8
8  20  8
8  22  8
$$$$
