512715
  -OEChem-10302200282D
 46 48  0     1  0  0  0  0  0999 V2000
    6.6495    1.2942    0.0000 S   0  0  0  0  0  0  0  0  0  0  0  0
    5.9405   -1.2869    0.0000 O   0  0  0  0  0  0  0  0  0  0  0  0
    3.4026   -0.7825    0.0000 O   0  0  0  0  0  0  0  0  0  0  0  0
    8.8740    5.0428    0.0000 O   0  0  0  0  0  0  0  0  0  0  0  0
    7.1511    4.8647    0.0000 O   0  0  0  0  0  0  0  0  0  0  0  0
    4.6783   -2.5448    0.0000 N   0  0  0  0  0  0  0  0  0  0  0  0
    4.6783   -4.1542    0.0000 N   0  0  0  0  0  0  0  0  0  0  0  0
    2.0000   -3.8495    0.0000 N   0  0  0  0  0  0  0  0  0  0  0  0
    2.8660   -5.3495    0.0000 N   0  0  0  0  0  0  0  0  0  0  0  0
    9.0796    3.0534    0.0000 N   0  0  0  0  0  0  0  0  0  0  0  0
    4.9889   -1.5942    0.0000 C   0  0  1  0  0  0  0  0  0  0  0  0
    4.4026   -0.7842    0.0000 C   0  0  1  0  0  0  0  0  0  0  0  0
    5.9422   -0.2869    0.0000 C   0  0  1  0  0  0  0  0  0  0  0  0
    4.9917    0.0238    0.0000 C   0  0  0  0  0  0  0  0  0  0  0  0
    6.7523    0.2995    0.0000 C   0  0  0  0  0  0  0  0  0  0  0  0
    3.7320   -2.8495    0.0000 C   0  0  0  0  0  0  0  0  0  0  0  0
    5.2619   -3.3495    0.0000 C   0  0  0  0  0  0  0  0  0  0  0  0
    3.7320   -3.8495    0.0000 C   0  0  0  0  0  0  0  0  0  0  0  0
    7.4595    1.8806    0.0000 C   0  0  0  0  0  0  0  0  0  0  0  0
    2.8660   -2.3495    0.0000 C   0  0  0  0  0  0  0  0  0  0  0  0
    7.3567    2.8753    0.0000 C   0  0  0  0  0  0  0  0  0  0  0  0
    2.8660   -4.3495    0.0000 C   0  0  0  0  0  0  0  0  0  0  0  0
    8.1667    3.4617    0.0000 C   0  0  3  0  0  0  0  0  0  0  0  0
    2.0000   -2.8495    0.0000 C   0  0  0  0  0  0  0  0  0  0  0  0
    8.0639    4.4564    0.0000 C   0  0  0  0  0  0  0  0  0  0  0  0
    5.4266   -2.0334    0.0000 H   0  0  0  0  0  0  0  0  0  0  0  0
    4.1220   -0.2313    0.0000 H   0  0  0  0  0  0  0  0  0  0  0  0
    6.4942   -0.5693    0.0000 H   0  0  0  0  0  0  0  0  0  0  0  0
    5.2449    0.5898    0.0000 H   0  0  0  0  0  0  0  0  0  0  0  0
    4.4553    0.3347    0.0000 H   0  0  0  0  0  0  0  0  0  0  0  0
    7.0231   -0.2582    0.0000 H   0  0  0  0  0  0  0  0  0  0  0  0
    7.3486    0.4694    0.0000 H   0  0  0  0  0  0  0  0  0  0  0  0
    3.0935   -0.2450    0.0000 H   0  0  0  0  0  0  0  0  0  0  0  0
    5.8819   -3.3495    0.0000 H   0  0  0  0  0  0  0  0  0  0  0  0
    7.7303    1.3229    0.0000 H   0  0  0  0  0  0  0  0  0  0  0  0
    8.0558    2.0505    0.0000 H   0  0  0  0  0  0  0  0  0  0  0  0
    2.8660   -1.7295    0.0000 H   0  0  0  0  0  0  0  0  0  0  0  0
    7.0859    3.4330    0.0000 H   0  0  0  0  0  0  0  0  0  0  0  0
    6.7604    2.7054    0.0000 H   0  0  0  0  0  0  0  0  0  0  0  0
    8.2305    2.8450    0.0000 H   0  0  0  0  0  0  0  0  0  0  0  0
    1.4631   -2.5395    0.0000 H   0  0  0  0  0  0  0  0  0  0  0  0
    2.3291   -5.6595    0.0000 H   0  0  0  0  0  0  0  0  0  0  0  0
    3.4030   -5.6595    0.0000 H   0  0  0  0  0  0  0  0  0  0  0  0
    9.5818    3.4169    0.0000 H   0  0  0  0  0  0  0  0  0  0  0  0
    9.1433    2.4367    0.0000 H   0  0  0  0  0  0  0  0  0  0  0  0
    8.8102    5.6595    0.0000 H   0  0  0  0  0  0  0  0  0  0  0  0
  1 15  1  0  0  0  0
  1 19  1  0  0  0  0
  2 11  1  0  0  0  0
  2 13  1  0  0  0  0
 12  3  1  6  0  0  0
  3 33  1  0  0  0  0
  4 25  1  0  0  0  0
  4 46  1  0  0  0  0
  5 25  2  0  0  0  0
 11  6  1  1  0  0  0
  6 16  1  0  0  0  0
  6 17  1  0  0  0  0
  7 17  2  0  0  0  0
  7 18  1  0  0  0  0
  8 22  2  0  0  0  0
  8 24  1  0  0  0  0
  9 22  1  0  0  0  0
  9 42  1  0  0  0  0
  9 43  1  0  0  0  0
 10 23  1  0  0  0  0
 10 44  1  0  0  0  0
 10 45  1  0  0  0  0
 11 12  1  0  0  0  0
 11 26  1  0  0  0  0
 12 14  1  0  0  0  0
 12 27  1  0  0  0  0
 13 14  1  0  0  0  0
 13 15  1  1  0  0  0
 13 28  1  0  0  0  0
 14 29  1  0  0  0  0
 14 30  1  0  0  0  0
 15 31  1  0  0  0  0
 15 32  1  0  0  0  0
 16 18  2  0  0  0  0
 16 20  1  0  0  0  0
 17 34  1  0  0  0  0
 18 22  1  0  0  0  0
 19 21  1  0  0  0  0
 19 35  1  0  0  0  0
 19 36  1  0  0  0  0
 20 24  2  0  0  0  0
 20 37  1  0  0  0  0
 21 23  1  0  0  0  0
 21 38  1  0  0  0  0
 21 39  1  0  0  0  0
 23 25  1  0  0  0  0
 23 40  1  0  0  0  0
 24 41  1  0  0  0  0
M  END
> <PUBCHEM_COMPOUND_CID>
512715
> <PUBCHEM_COMPOUND_CANONICALIZED>
1
> <PUBCHEM_CACTVS_COMPLEXITY>
473
> <PUBCHEM_CACTVS_HBOND_ACCEPTOR>
9
> <PUBCHEM_CACTVS_HBOND_DONOR>
4
> <PUBCHEM_CACTVS_ROTATABLE_BOND>
7
> <PUBCHEM_CACTVS_SUBSKEYS>
AAADceBzuABAAAAAAAAAAAAAAAAAAWJAAAAsAAAAAAAAAFgB+AAAHgQQCAAACDzl1ga9+LdMFgioATb3bACCgC0xErAJ2KG4dJiLePLg2NGeZAhtkAL7yCawAAAAAAAAAAAAAAAAAAAAAAAAAAAAAAAAAA==
> <PUBCHEM_IUPAC_OPENEYE_NAME>
2-amino-4-[[(2S,4R,5R)-5-(4-aminoimidazo[4,5-c]pyridin-1-yl)-4-hydroxy-tetrahydrofuran-2-yl]methylsulfanyl]butanoic acid
> <PUBCHEM_IUPAC_CAS_NAME>
2-amino-4-[[(2S,4R,5R)-5-(4-amino-1-imidazo[4,5-c]pyridinyl)-4-hydroxy-2-oxolanyl]methylthio]butanoic acid
> <PUBCHEM_IUPAC_NAME_MARKUP>
2-amino-4-[[(2<I>S</I>,4<I>R</I>,5<I>R</I>)-5-(4-aminoimidazo[4,5-c]pyridin-1-yl)-4-hydroxyoxolan-2-yl]methylsulfanyl]butanoic acid
> <PUBCHEM_IUPAC_NAME>
2-amino-4-[[(2S,4R,5R)-5-(4-aminoimidazo[4,5-c]pyridin-1-yl)-4-hydroxyoxolan-2-yl]methylsulfanyl]butanoic acid
> <PUBCHEM_IUPAC_SYSTEMATIC_NAME>
2-azanyl-4-[[(2S,4R,5R)-5-(4-azanylimidazo[4,5-c]pyridin-1-yl)-4-oxidanyl-oxolan-2-yl]methylsulfanyl]butanoic acid
> <PUBCHEM_IUPAC_TRADITIONAL_NAME>
2-amino-4-[[(2S,4R,5R)-5-(4-aminoimidazo[4,5-c]pyridin-1-yl)-4-hydroxy-tetrahydrofuran-2-yl]methylthio]butyric acid
> <PUBCHEM_IUPAC_INCHI>
InChI=1S/C15H21N5O4S/c16-9(15(22)23)2-4-25-6-8-5-11(21)14(24-8)20-7-19-12-10(20)1-3-18-13(12)17/h1,3,7-9,11,14,21H,2,4-6,16H2,(H2,17,18)(H,22,23)/t8-,9?,11+,14+/m0/s1
> <PUBCHEM_IUPAC_INCHIKEY>
QJGGZPIWCXHXGB-RFZOPZCYSA-N
> <PUBCHEM_XLOGP3_AA>
-3.1
> <PUBCHEM_EXACT_MASS>
367.13142534
> <PUBCHEM_MOLECULAR_FORMULA>
C15H21N5O4S
> <PUBCHEM_MOLECULAR_WEIGHT>
367.4
> <PUBCHEM_OPENEYE_CAN_SMILES>
C1C(OC(C1O)N2C=NC3=C2C=CN=C3N)CSCCC(C(=O)O)N
> <PUBCHEM_OPENEYE_ISO_SMILES>
C1[C@H](O[C@H]([C@@H]1O)N2C=NC3=C2C=CN=C3N)CSCCC(C(=O)O)N
> <PUBCHEM_CACTVS_TPSA>
175
> <PUBCHEM_MONOISOTOPIC_WEIGHT>
367.13142534
> <PUBCHEM_TOTAL_CHARGE>
0
> <PUBCHEM_HEAVY_ATOM_COUNT>
25
> <PUBCHEM_ATOM_DEF_STEREO_COUNT>
3
> <PUBCHEM_ATOM_UDEF_STEREO_COUNT>
1
> <PUBCHEM_BOND_DEF_STEREO_COUNT>
0
> <PUBCHEM_BOND_UDEF_STEREO_COUNT>
0
> <PUBCHEM_ISOTOPIC_ATOM_COUNT>
0
> <PUBCHEM_COMPONENT_COUNT>
1
> <PUBCHEM_CACTVS_TAUTO_COUNT>
-1
> <PUBCHEM_COORDINATE_TYPE>
1
5
255
> <PUBCHEM_BONDANNOTATIONS>
23  10  3
13  15  5
16  18  8
16  20  8
18  22  8
20  24  8
12  3  6
11  6  5
6  16  8
6  17  8
7  17  8
7  18  8
8  22  8
8  24  8
$$$$
