512891
  -OEChem-10302200282D
 88 93  0     1  0  0  0  0  0999 V2000
   10.2145   -4.8535    0.0000 F   0  0  0  0  0  0  0  0  0  0  0  0
    4.1558   -0.4681    0.0000 O   0  0  0  0  0  0  0  0  0  0  0  0
    2.3644   -3.1616    0.0000 O   0  0  0  0  0  0  0  0  0  0  0  0
    3.7657   -4.1797    0.0000 O   0  0  0  0  0  0  0  0  0  0  0  0
    5.3480   -3.4752    0.0000 N   0  0  3  0  0  0  0  0  0  0  0  0
    7.7967   -1.6388    0.0000 N   0  0  0  0  0  0  0  0  0  0  0  0
    6.9877    1.9490    0.0000 N   0  0  0  0  0  0  0  0  0  0  0  0
    7.2967    2.9001    0.0000 N   0  0  0  0  0  0  0  0  0  0  0  0
    6.9307   -3.1388    0.0000 C   0  0  2  0  0  0  0  0  0  0  0  0
    6.8261   -4.1333    0.0000 C   0  0  2  0  0  0  0  0  0  0  0  0
    6.0171   -2.7320    0.0000 C   0  0  0  0  0  0  0  0  0  0  0  0
    5.8480   -4.3412    0.0000 C   0  0  0  0  0  0  0  0  0  0  0  0
    7.7967   -2.6388    0.0000 C   0  0  0  0  0  0  0  0  0  0  0  0
    4.3535   -3.3707    0.0000 C   0  0  0  0  0  0  0  0  0  0  0  0
    3.9467   -2.4571    0.0000 C   0  0  0  0  0  0  0  0  0  0  0  0
    7.5693   -4.8024    0.0000 C   0  0  0  0  0  0  0  0  0  0  0  0
    6.9307   -1.1388    0.0000 C   0  0  0  0  0  0  0  0  0  0  0  0
    8.6627   -1.1388    0.0000 C   0  0  0  0  0  0  0  0  0  0  0  0
    3.1377   -1.8693    0.0000 C   0  0  0  0  0  0  0  0  0  0  0  0
    4.8603   -2.0504    0.0000 C   0  0  0  0  0  0  0  0  0  0  0  0
    7.7967    0.3612    0.0000 C   0  0  0  0  0  0  0  0  0  0  0  0
    6.9307   -0.1388    0.0000 C   0  0  0  0  0  0  0  0  0  0  0  0
    8.6627   -0.1388    0.0000 C   0  0  0  0  0  0  0  0  0  0  0  0
    3.3590   -3.2661    0.0000 C   0  0  0  0  0  0  0  0  0  0  0  0
    3.2422   -0.8748    0.0000 C   0  0  0  0  0  0  0  0  0  0  0  0
    4.9648   -1.0559    0.0000 C   0  0  0  0  0  0  0  0  0  0  0  0
    7.7967    1.3612    0.0000 C   0  0  0  0  0  0  0  0  0  0  0  0
    8.5203   -4.4934    0.0000 C   0  0  0  0  0  0  0  0  0  0  0  0
    7.3614   -5.7806    0.0000 C   0  0  0  0  0  0  0  0  0  0  0  0
    8.6057    1.9490    0.0000 C   0  0  0  0  0  0  0  0  0  0  0  0
    9.2635   -5.1626    0.0000 C   0  0  0  0  0  0  0  0  0  0  0  0
    8.1045   -6.4497    0.0000 C   0  0  0  0  0  0  0  0  0  0  0  0
    9.0556   -6.1407    0.0000 C   0  0  0  0  0  0  0  0  0  0  0  0
    8.2967    2.9001    0.0000 C   0  0  0  0  0  0  0  0  0  0  0  0
    6.0366    1.6400    0.0000 C   0  0  0  0  0  0  0  0  0  0  0  0
    8.8845    3.7091    0.0000 C   0  0  0  0  0  0  0  0  0  0  0  0
    5.2935    2.3091    0.0000 C   0  0  0  0  0  0  0  0  0  0  0  0
    8.4777    4.6226    0.0000 C   0  0  0  0  0  0  0  0  0  0  0  0
    7.4832    4.7272    0.0000 C   0  0  0  0  0  0  0  0  0  0  0  0
    9.0655    5.4316    0.0000 C   0  0  0  0  0  0  0  0  0  0  0  0
    7.0765    5.6407    0.0000 C   0  0  0  0  0  0  0  0  0  0  0  0
    8.6588    6.3452    0.0000 C   0  0  0  0  0  0  0  0  0  0  0  0
    7.6643    6.4497    0.0000 C   0  0  0  0  0  0  0  0  0  0  0  0
    7.4506   -3.4765    0.0000 H   0  0  0  0  0  0  0  0  0  0  0  0
    6.6657   -4.7322    0.0000 H   0  0  0  0  0  0  0  0  0  0  0  0
    6.3271   -2.1951    0.0000 H   0  0  0  0  0  0  0  0  0  0  0  0
    5.5155   -2.3676    0.0000 H   0  0  0  0  0  0  0  0  0  0  0  0
    5.2816   -4.5934    0.0000 H   0  0  0  0  0  0  0  0  0  0  0  0
    6.0396   -4.9309    0.0000 H   0  0  0  0  0  0  0  0  0  0  0  0
    8.0087   -3.2214    0.0000 H   0  0  0  0  0  0  0  0  0  0  0  0
    8.4073   -2.5311    0.0000 H   0  0  0  0  0  0  0  0  0  0  0  0
    3.7519   -3.5206    0.0000 H   0  0  0  0  0  0  0  0  0  0  0  0
    4.3967   -3.9892    0.0000 H   0  0  0  0  0  0  0  0  0  0  0  0
    6.3201   -1.0311    0.0000 H   0  0  0  0  0  0  0  0  0  0  0  0
    6.7186   -1.7214    0.0000 H   0  0  0  0  0  0  0  0  0  0  0  0
    8.8748   -1.7214    0.0000 H   0  0  0  0  0  0  0  0  0  0  0  0
    9.2733   -1.0311    0.0000 H   0  0  0  0  0  0  0  0  0  0  0  0
    2.5417   -1.6984    0.0000 H   0  0  0  0  0  0  0  0  0  0  0  0
    2.8659   -2.4266    0.0000 H   0  0  0  0  0  0  0  0  0  0  0  0
    5.0103   -2.6520    0.0000 H   0  0  0  0  0  0  0  0  0  0  0  0
    5.4788   -2.0071    0.0000 H   0  0  0  0  0  0  0  0  0  0  0  0
    7.2598    0.6712    0.0000 H   0  0  0  0  0  0  0  0  0  0  0  0
    6.7186    0.4438    0.0000 H   0  0  0  0  0  0  0  0  0  0  0  0
    6.3201   -0.2464    0.0000 H   0  0  0  0  0  0  0  0  0  0  0  0
    9.2733   -0.2464    0.0000 H   0  0  0  0  0  0  0  0  0  0  0  0
    8.8748    0.4438    0.0000 H   0  0  0  0  0  0  0  0  0  0  0  0
    3.0922   -0.2732    0.0000 H   0  0  0  0  0  0  0  0  0  0  0  0
    2.6238   -0.9181    0.0000 H   0  0  0  0  0  0  0  0  0  0  0  0
    5.5608   -1.2268    0.0000 H   0  0  0  0  0  0  0  0  0  0  0  0
    5.2366   -0.4986    0.0000 H   0  0  0  0  0  0  0  0  0  0  0  0
    8.6492   -3.8870    0.0000 H   0  0  0  0  0  0  0  0  0  0  0  0
    6.7717   -5.9722    0.0000 H   0  0  0  0  0  0  0  0  0  0  0  0
    9.1954    1.7574    0.0000 H   0  0  0  0  0  0  0  0  0  0  0  0
    7.9756   -7.0562    0.0000 H   0  0  0  0  0  0  0  0  0  0  0  0
    2.0000   -3.6632    0.0000 H   0  0  0  0  0  0  0  0  0  0  0  0
    9.5163   -6.5556    0.0000 H   0  0  0  0  0  0  0  0  0  0  0  0
    5.5480    1.2583    0.0000 H   0  0  0  0  0  0  0  0  0  0  0  0
    6.3277    1.0926    0.0000 H   0  0  0  0  0  0  0  0  0  0  0  0
    9.3152    3.2631    0.0000 H   0  0  0  0  0  0  0  0  0  0  0  0
    9.3985    4.0558    0.0000 H   0  0  0  0  0  0  0  0  0  0  0  0
    5.7083    2.7699    0.0000 H   0  0  0  0  0  0  0  0  0  0  0  0
    4.8327    2.7240    0.0000 H   0  0  0  0  0  0  0  0  0  0  0  0
    4.8786    1.8484    0.0000 H   0  0  0  0  0  0  0  0  0  0  0  0
    7.1188    4.2256    0.0000 H   0  0  0  0  0  0  0  0  0  0  0  0
    9.6821    5.3668    0.0000 H   0  0  0  0  0  0  0  0  0  0  0  0
    6.4599    5.7055    0.0000 H   0  0  0  0  0  0  0  0  0  0  0  0
    9.0232    6.8468    0.0000 H   0  0  0  0  0  0  0  0  0  0  0  0
    7.4121    7.0161    0.0000 H   0  0  0  0  0  0  0  0  0  0  0  0
  1 31  1  0  0  0  0
  2 25  1  0  0  0  0
  2 26  1  0  0  0  0
  3 24  1  0  0  0  0
  3 75  1  0  0  0  0
  4 24  2  0  0  0  0
  5 11  1  0  0  0  0
  5 12  1  0  0  0  0
  5 14  1  0  0  0  0
  6 13  1  0  0  0  0
  6 17  1  0  0  0  0
  6 18  1  0  0  0  0
  7  8  1  0  0  0  0
  7 27  1  0  0  0  0
  7 35  1  0  0  0  0
  8 34  2  0  0  0  0
  9 10  1  0  0  0  0
  9 11  1  0  0  0  0
  9 13  1  6  0  0  0
  9 44  1  0  0  0  0
 10 12  1  0  0  0  0
 10 16  1  1  0  0  0
 10 45  1  0  0  0  0
 11 46  1  0  0  0  0
 11 47  1  0  0  0  0
 12 48  1  0  0  0  0
 12 49  1  0  0  0  0
 13 50  1  0  0  0  0
 13 51  1  0  0  0  0
 14 15  1  0  0  0  0
 14 52  1  0  0  0  0
 14 53  1  0  0  0  0
 15 19  1  0  0  0  0
 15 20  1  0  0  0  0
 15 24  1  0  0  0  0
 16 28  2  0  0  0  0
 16 29  1  0  0  0  0
 17 22  1  0  0  0  0
 17 54  1  0  0  0  0
 17 55  1  0  0  0  0
 18 23  1  0  0  0  0
 18 56  1  0  0  0  0
 18 57  1  0  0  0  0
 19 25  1  0  0  0  0
 19 58  1  0  0  0  0
 19 59  1  0  0  0  0
 20 26  1  0  0  0  0
 20 60  1  0  0  0  0
 20 61  1  0  0  0  0
 21 22  1  0  0  0  0
 21 23  1  0  0  0  0
 21 27  1  0  0  0  0
 21 62  1  0  0  0  0
 22 63  1  0  0  0  0
 22 64  1  0  0  0  0
 23 65  1  0  0  0  0
 23 66  1  0  0  0  0
 25 67  1  0  0  0  0
 25 68  1  0  0  0  0
 26 69  1  0  0  0  0
 26 70  1  0  0  0  0
 27 30  2  0  0  0  0
 28 31  1  0  0  0  0
 28 71  1  0  0  0  0
 29 32  2  0  0  0  0
 29 72  1  0  0  0  0
 30 34  1  0  0  0  0
 30 73  1  0  0  0  0
 31 33  2  0  0  0  0
 32 33  1  0  0  0  0
 32 74  1  0  0  0  0
 33 76  1  0  0  0  0
 34 36  1  0  0  0  0
 35 37  1  0  0  0  0
 35 77  1  0  0  0  0
 35 78  1  0  0  0  0
 36 38  1  0  0  0  0
 36 79  1  0  0  0  0
 36 80  1  0  0  0  0
 37 81  1  0  0  0  0
 37 82  1  0  0  0  0
 37 83  1  0  0  0  0
 38 39  2  0  0  0  0
 38 40  1  0  0  0  0
 39 41  1  0  0  0  0
 39 84  1  0  0  0  0
 40 42  2  0  0  0  0
 40 85  1  0  0  0  0
 41 43  2  0  0  0  0
 41 86  1  0  0  0  0
 42 43  1  0  0  0  0
 42 87  1  0  0  0  0
 43 88  1  0  0  0  0
M  END
> <PUBCHEM_COMPOUND_CID>
512891
> <PUBCHEM_COMPOUND_CANONICALIZED>
1
> <PUBCHEM_CACTVS_COMPLEXITY>
888
> <PUBCHEM_CACTVS_HBOND_ACCEPTOR>
7
> <PUBCHEM_CACTVS_HBOND_DONOR>
1
> <PUBCHEM_CACTVS_ROTATABLE_BOND>
10
> <PUBCHEM_CACTVS_SUBSKEYS>
AAADcfB/sQAAAAAAAAAAAAAAAAAAAWLAAAA8aIEAAAAAAAAB0AAAHwAICAAADwjhng4yiJMIBgCqAyTyTACSBAAhggAY2CE4ZJgIIDrA0dGG5AhmiADIyAfygMAPgAAAAAAAAAAAAAAAAAAAAAAAAAAAAA==
> <PUBCHEM_IUPAC_OPENEYE_NAME>
4-[[(3S,4S)-3-[[4-(5-benzyl-2-ethyl-pyrazol-3-yl)-1-piperidyl]methyl]-4-(3-fluorophenyl)pyrrolidin-1-yl]methyl]tetrahydropyran-4-carboxylic acid
> <PUBCHEM_IUPAC_CAS_NAME>
4-[[(3S,4S)-3-[[4-[2-ethyl-5-(phenylmethyl)-3-pyrazolyl]-1-piperidinyl]methyl]-4-(3-fluorophenyl)-1-pyrrolidinyl]methyl]-4-oxanecarboxylic acid
> <PUBCHEM_IUPAC_NAME_MARKUP>
4-[[(3<I>S</I>,4<I>S</I>)-3-[[4-(5-benzyl-2-ethylpyrazol-3-yl)piperidin-1-yl]methyl]-4-(3-fluorophenyl)pyrrolidin-1-yl]methyl]oxane-4-carboxylic acid
> <PUBCHEM_IUPAC_NAME>
4-[[(3S,4S)-3-[[4-(5-benzyl-2-ethylpyrazol-3-yl)piperidin-1-yl]methyl]-4-(3-fluorophenyl)pyrrolidin-1-yl]methyl]oxane-4-carboxylic acid
> <PUBCHEM_IUPAC_SYSTEMATIC_NAME>
4-[[(3S,4S)-3-[[4-[2-ethyl-5-(phenylmethyl)pyrazol-3-yl]piperidin-1-yl]methyl]-4-(3-fluorophenyl)pyrrolidin-1-yl]methyl]oxane-4-carboxylic acid
> <PUBCHEM_IUPAC_TRADITIONAL_NAME>
4-[[(3S,4S)-3-[[4-(5-benzyl-2-ethyl-pyrazol-3-yl)piperidino]methyl]-4-(3-fluorophenyl)pyrrolidino]methyl]tetrahydropyran-4-carboxylic acid
> <PUBCHEM_IUPAC_INCHI>
InChI=1S/C35H45FN4O3/c1-2-40-33(21-31(37-40)19-26-7-4-3-5-8-26)27-11-15-38(16-12-27)22-29-23-39(24-32(29)28-9-6-10-30(36)20-28)25-35(34(41)42)13-17-43-18-14-35/h3-10,20-21,27,29,32H,2,11-19,22-25H2,1H3,(H,41,42)/t29-,32+/m0/s1
> <PUBCHEM_IUPAC_INCHIKEY>
OTQRVWAOTXJYMB-BHDXBOSCSA-N
> <PUBCHEM_XLOGP3_AA>
2.4
> <PUBCHEM_EXACT_MASS>
588.34756947
> <PUBCHEM_MOLECULAR_FORMULA>
C35H45FN4O3
> <PUBCHEM_MOLECULAR_WEIGHT>
588.8
> <PUBCHEM_OPENEYE_CAN_SMILES>
CCN1C(=CC(=N1)CC2=CC=CC=C2)C3CCN(CC3)CC4CN(CC4C5=CC(=CC=C5)F)CC6(CCOCC6)C(=O)O
> <PUBCHEM_OPENEYE_ISO_SMILES>
CCN1C(=CC(=N1)CC2=CC=CC=C2)C3CCN(CC3)C[C@H]4CN(C[C@@H]4C5=CC(=CC=C5)F)CC6(CCOCC6)C(=O)O
> <PUBCHEM_CACTVS_TPSA>
70.8
> <PUBCHEM_MONOISOTOPIC_WEIGHT>
588.34756947
> <PUBCHEM_TOTAL_CHARGE>
0
> <PUBCHEM_HEAVY_ATOM_COUNT>
43
> <PUBCHEM_ATOM_DEF_STEREO_COUNT>
2
> <PUBCHEM_ATOM_UDEF_STEREO_COUNT>
0
> <PUBCHEM_BOND_DEF_STEREO_COUNT>
0
> <PUBCHEM_BOND_UDEF_STEREO_COUNT>
0
> <PUBCHEM_ISOTOPIC_ATOM_COUNT>
0
> <PUBCHEM_COMPONENT_COUNT>
1
> <PUBCHEM_CACTVS_TAUTO_COUNT>
-1
> <PUBCHEM_COORDINATE_TYPE>
1
5
255
> <PUBCHEM_BONDANNOTATIONS>
10  16  5
16  28  8
16  29  8
27  30  8
28  31  8
29  32  8
30  34  8
31  33  8
32  33  8
38  39  8
38  40  8
39  41  8
40  42  8
41  43  8
42  43  8
7  27  8
7  8  8
8  34  8
9  13  6
$$$$
