512820
  -OEChem-10302200282D
 50 52  0     1  0  0  0  0  0999 V2000
    4.4004    0.0000    0.0000 Cl  0  0  0  0  0  0  0  0  0  0  0  0
    6.6651    3.4938    0.0000 F   0  0  0  0  0  0  0  0  0  0  0  0
    3.1350    2.5179    0.0000 O   0  0  0  0  0  0  0  0  0  0  0  0
    0.5369    4.0179    0.0000 O   0  0  0  0  0  0  0  0  0  0  0  0
    1.4030    2.5179    0.0000 O   0  0  0  0  0  0  0  0  0  0  0  0
    6.6651    5.5421    0.0000 N   0  0  3  0  0  0  0  0  0  0  0  0
    4.0010    4.0179    0.0000 N   0  0  0  0  0  0  0  0  0  0  0  0
    9.2651    5.0521    0.0000 N   0  0  0  0  0  0  0  0  0  0  0  0
    3.1350    6.5179    0.0000 C   0  0  0  0  0  0  0  0  0  0  0  0
    3.6350    7.3840    0.0000 C   0  0  0  0  0  0  0  0  0  0  0  0
    2.6350    7.3840    0.0000 C   0  0  0  0  0  0  0  0  0  0  0  0
    3.1350    5.5179    0.0000 C   0  0  0  0  0  0  0  0  0  0  0  0
    4.0010    5.0179    0.0000 C   0  0  0  0  0  0  0  0  0  0  0  0
    8.3972    5.5488    0.0000 C   0  0  1  0  0  0  0  0  0  0  0  0
    7.5331    5.0454    0.0000 C   0  0  0  0  0  0  0  0  0  0  0  0
    4.8950    5.5526    0.0000 C   0  0  0  0  0  0  0  0  0  0  0  0
    5.8010    5.0388    0.0000 C   0  0  0  0  0  0  0  0  0  0  0  0
    6.6613    6.5421    0.0000 C   0  0  0  0  0  0  0  0  0  0  0  0
    8.3933    6.5488    0.0000 C   0  0  0  0  0  0  0  0  0  0  0  0
    2.2690    5.0179    0.0000 C   0  0  0  0  0  0  0  0  0  0  0  0
    7.5254    7.0454    0.0000 C   0  0  0  0  0  0  0  0  0  0  0  0
    2.2690    4.0179    0.0000 C   0  0  0  0  0  0  0  0  0  0  0  0
    5.8010    3.9971    0.0000 C   0  0  0  0  0  0  0  0  0  0  0  0
    3.1350    3.5179    0.0000 C   0  0  0  0  0  0  0  0  0  0  0  0
    4.8950    3.4833    0.0000 C   0  0  0  0  0  0  0  0  0  0  0  0
    4.8834    6.5525    0.0000 C   0  0  0  0  0  0  0  0  0  0  0  0
    1.4030    3.5179    0.0000 C   0  0  0  0  0  0  0  0  0  0  0  0
    2.5361    6.3575    0.0000 H   0  0  0  0  0  0  0  0  0  0  0  0
    4.2176    7.1719    0.0000 H   0  0  0  0  0  0  0  0  0  0  0  0
    3.7427    7.9946    0.0000 H   0  0  0  0  0  0  0  0  0  0  0  0
    2.5274    7.9946    0.0000 H   0  0  0  0  0  0  0  0  0  0  0  0
    2.0524    7.1719    0.0000 H   0  0  0  0  0  0  0  0  0  0  0  0
    8.3996    4.9288    0.0000 H   0  0  0  0  0  0  0  0  0  0  0  0
    7.1364    4.5690    0.0000 H   0  0  0  0  0  0  0  0  0  0  0  0
    7.9334    4.5720    0.0000 H   0  0  0  0  0  0  0  0  0  0  0  0
    6.4470    7.1239    0.0000 H   0  0  0  0  0  0  0  0  0  0  0  0
    6.0511    6.4321    0.0000 H   0  0  0  0  0  0  0  0  0  0  0  0
    9.0043    6.4435    0.0000 H   0  0  0  0  0  0  0  0  0  0  0  0
    8.6031    7.1322    0.0000 H   0  0  0  0  0  0  0  0  0  0  0  0
    7.9221    7.5219    0.0000 H   0  0  0  0  0  0  0  0  0  0  0  0
    7.1250    7.5188    0.0000 H   0  0  0  0  0  0  0  0  0  0  0  0
    1.7320    5.3279    0.0000 H   0  0  0  0  0  0  0  0  0  0  0  0
    4.8878    2.8633    0.0000 H   0  0  0  0  0  0  0  0  0  0  0  0
    5.5034    6.5597    0.0000 H   0  0  0  0  0  0  0  0  0  0  0  0
    4.8762    7.1725    0.0000 H   0  0  0  0  0  0  0  0  0  0  0  0
    4.2635    6.5454    0.0000 H   0  0  0  0  0  0  0  0  0  0  0  0
    9.8009    5.3642    0.0000 H   0  0  0  0  0  0  0  0  0  0  0  0
    9.2675    4.4321    0.0000 H   0  0  0  0  0  0  0  0  0  0  0  0
    0.0000    3.7079    0.0000 H   0  0  0  0  0  0  0  0  0  0  0  0
    5.4004    0.0000    0.0000 H   0  0  0  0  0  0  0  0  0  0  0  0
  1 50  1  0  0  0  0
  2 23  1  0  0  0  0
  3 24  2  0  0  0  0
  4 27  1  0  0  0  0
  4 49  1  0  0  0  0
  5 27  2  0  0  0  0
  6 15  1  0  0  0  0
  6 17  1  0  0  0  0
  6 18  1  0  0  0  0
  7 13  1  0  0  0  0
  7 24  1  0  0  0  0
  7 25  1  0  0  0  0
 14  8  1  1  0  0  0
  8 47  1  0  0  0  0
  8 48  1  0  0  0  0
  9 10  1  0  0  0  0
  9 11  1  0  0  0  0
  9 12  1  0  0  0  0
  9 28  1  0  0  0  0
 10 11  1  0  0  0  0
 10 29  1  0  0  0  0
 10 30  1  0  0  0  0
 11 31  1  0  0  0  0
 11 32  1  0  0  0  0
 12 13  2  0  0  0  0
 12 20  1  0  0  0  0
 13 16  1  0  0  0  0
 14 15  1  0  0  0  0
 14 19  1  0  0  0  0
 14 33  1  0  0  0  0
 15 34  1  0  0  0  0
 15 35  1  0  0  0  0
 16 17  2  0  0  0  0
 16 26  1  0  0  0  0
 17 23  1  0  0  0  0
 18 21  1  0  0  0  0
 18 36  1  0  0  0  0
 18 37  1  0  0  0  0
 19 21  1  0  0  0  0
 19 38  1  0  0  0  0
 19 39  1  0  0  0  0
 20 22  2  0  0  0  0
 20 42  1  0  0  0  0
 21 40  1  0  0  0  0
 21 41  1  0  0  0  0
 22 24  1  0  0  0  0
 22 27  1  0  0  0  0
 23 25  2  0  0  0  0
 25 43  1  0  0  0  0
 26 44  1  0  0  0  0
 26 45  1  0  0  0  0
 26 46  1  0  0  0  0
M  END
> <PUBCHEM_COMPOUND_CID>
512820
> <PUBCHEM_COMPOUND_CANONICALIZED>
1
> <PUBCHEM_CACTVS_COMPLEXITY>
820
> <PUBCHEM_CACTVS_HBOND_ACCEPTOR>
6
> <PUBCHEM_CACTVS_HBOND_DONOR>
3
> <PUBCHEM_CACTVS_ROTATABLE_BOND>
3
> <PUBCHEM_CACTVS_SUBSKEYS>
AAADceB7MQAEAAAAAAAAAAAAGAAAAAAAAAAsQIAAAAAAAACAAAAAHwAQCAAADSjBgAQCCANAAgCIAiXWWACAAAAgAAAACIEIAEgIRA4IgAAUUAACtgCIkYIQAAAIAAAAAAAAAAAAAAAAAAAAAAAAAAAAAA==
> <PUBCHEM_IUPAC_OPENEYE_NAME>
8-[(3R)-3-amino-1-piperidyl]-1-cyclopropyl-7-fluoro-9-methyl-4-oxo-quinolizine-3-carboxylic acid;hydrochloride
> <PUBCHEM_IUPAC_CAS_NAME>
8-[(3R)-3-amino-1-piperidinyl]-1-cyclopropyl-7-fluoro-9-methyl-4-oxo-3-quinolizinecarboxylic acid;hydrochloride
> <PUBCHEM_IUPAC_NAME_MARKUP>
8-[(3<I>R</I>)-3-aminopiperidin-1-yl]-1-cyclopropyl-7-fluoro-9-methyl-4-oxoquinolizine-3-carboxylic acid;hydrochloride
> <PUBCHEM_IUPAC_NAME>
8-[(3R)-3-aminopiperidin-1-yl]-1-cyclopropyl-7-fluoro-9-methyl-4-oxoquinolizine-3-carboxylic acid;hydrochloride
> <PUBCHEM_IUPAC_SYSTEMATIC_NAME>
8-[(3R)-3-azanylpiperidin-1-yl]-1-cyclopropyl-7-fluoranyl-9-methyl-4-oxidanylidene-quinolizine-3-carboxylic acid;hydrochloride
> <PUBCHEM_IUPAC_TRADITIONAL_NAME>
8-[(3R)-3-aminopiperidino]-1-cyclopropyl-7-fluoro-4-keto-9-methyl-quinolizine-3-carboxylic acid;hydrochloride
> <PUBCHEM_IUPAC_INCHI>
InChI=1S/C19H22FN3O3.ClH/c1-10-16-13(11-4-5-11)7-14(19(25)26)18(24)23(16)9-15(20)17(10)22-6-2-3-12(21)8-22;/h7,9,11-12H,2-6,8,21H2,1H3,(H,25,26);1H/t12-;/m1./s1
> <PUBCHEM_IUPAC_INCHIKEY>
GFJJQUXNMMMZRX-UTONKHPSSA-N
> <PUBCHEM_EXACT_MASS>
395.1411975
> <PUBCHEM_MOLECULAR_FORMULA>
C19H23ClFN3O3
> <PUBCHEM_MOLECULAR_WEIGHT>
395.9
> <PUBCHEM_OPENEYE_CAN_SMILES>
CC1=C(C(=CN2C1=C(C=C(C2=O)C(=O)O)C3CC3)F)N4CCCC(C4)N.Cl
> <PUBCHEM_OPENEYE_ISO_SMILES>
CC1=C(C(=CN2C1=C(C=C(C2=O)C(=O)O)C3CC3)F)N4CCC[C@H](C4)N.Cl
> <PUBCHEM_CACTVS_TPSA>
86.9
> <PUBCHEM_MONOISOTOPIC_WEIGHT>
395.1411975
> <PUBCHEM_TOTAL_CHARGE>
0
> <PUBCHEM_HEAVY_ATOM_COUNT>
27
> <PUBCHEM_ATOM_DEF_STEREO_COUNT>
1
> <PUBCHEM_ATOM_UDEF_STEREO_COUNT>
0
> <PUBCHEM_BOND_DEF_STEREO_COUNT>
0
> <PUBCHEM_BOND_UDEF_STEREO_COUNT>
0
> <PUBCHEM_ISOTOPIC_ATOM_COUNT>
0
> <PUBCHEM_COMPONENT_COUNT>
2
> <PUBCHEM_CACTVS_TAUTO_COUNT>
-1
> <PUBCHEM_COORDINATE_TYPE>
1
5
255
> <PUBCHEM_BONDANNOTATIONS>
12  13  8
12  20  8
13  16  8
16  17  8
17  23  8
20  22  8
22  24  8
23  25  8
7  13  8
7  24  8
7  25  8
14  8  5
$$$$
