512816
  -OEChem-10302200282D
 52 56  0     1  0  0  0  0  0999 V2000
    8.6651   -1.8391    0.0000 F   0  0  0  0  0  0  0  0  0  0  0  0
    5.1350   -2.8150    0.0000 O   0  0  0  0  0  0  0  0  0  0  0  0
    2.5369   -1.3150    0.0000 O   0  0  0  0  0  0  0  0  0  0  0  0
    3.4030   -2.8150    0.0000 O   0  0  0  0  0  0  0  0  0  0  0  0
    8.6651    0.2092    0.0000 N   0  0  3  0  0  0  0  0  0  0  0  0
   10.2320    2.2792    0.0000 N   0  0  0  0  0  0  0  0  0  0  0  0
    6.0010   -1.3150    0.0000 N   0  0  0  0  0  0  0  0  0  0  0  0
   10.2387    0.5472    0.0000 C   0  0  3  0  0  0  0  0  0  0  0  0
    9.7354    1.4113    0.0000 C   0  0  3  0  0  0  0  0  0  0  0  0
    9.5745   -0.1924    0.0000 C   0  0  0  0  0  0  0  0  0  0  0  0
    8.7644    1.1983    0.0000 C   0  0  0  0  0  0  0  0  0  0  0  0
   11.2387    0.5510    0.0000 C   0  0  0  0  0  0  0  0  0  0  0  0
    5.1350    1.1850    0.0000 C   0  0  0  0  0  0  0  0  0  0  0  0
   11.7354    1.4190    0.0000 C   0  0  0  0  0  0  0  0  0  0  0  0
    5.6350    2.0511    0.0000 C   0  0  0  0  0  0  0  0  0  0  0  0
    4.6350    2.0511    0.0000 C   0  0  0  0  0  0  0  0  0  0  0  0
   11.2320    2.2831    0.0000 C   0  0  0  0  0  0  0  0  0  0  0  0
    7.8010   -0.2941    0.0000 C   0  0  0  0  0  0  0  0  0  0  0  0
    5.1350    0.1851    0.0000 C   0  0  0  0  0  0  0  0  0  0  0  0
    6.0010   -0.3149    0.0000 C   0  0  0  0  0  0  0  0  0  0  0  0
    6.8950    0.2197    0.0000 C   0  0  0  0  0  0  0  0  0  0  0  0
    7.8010   -1.3358    0.0000 C   0  0  0  0  0  0  0  0  0  0  0  0
    4.2690   -0.3149    0.0000 C   0  0  0  0  0  0  0  0  0  0  0  0
    6.8950   -1.8496    0.0000 C   0  0  0  0  0  0  0  0  0  0  0  0
    6.8834    1.2196    0.0000 C   0  0  0  0  0  0  0  0  0  0  0  0
    5.1350   -1.8150    0.0000 C   0  0  0  0  0  0  0  0  0  0  0  0
    4.2690   -1.3150    0.0000 C   0  0  0  0  0  0  0  0  0  0  0  0
    3.4030   -1.8150    0.0000 C   0  0  0  0  0  0  0  0  0  0  0  0
   10.4923   -0.0186    0.0000 H   0  0  0  0  0  0  0  0  0  0  0  0
    9.3684    1.9110    0.0000 H   0  0  0  0  0  0  0  0  0  0  0  0
    9.2658   -0.7301    0.0000 H   0  0  0  0  0  0  0  0  0  0  0  0
   10.0767   -0.5559    0.0000 H   0  0  0  0  0  0  0  0  0  0  0  0
    8.6960    1.8145    0.0000 H   0  0  0  0  0  0  0  0  0  0  0  0
    8.1444    1.1950    0.0000 H   0  0  0  0  0  0  0  0  0  0  0  0
   11.1334   -0.0600    0.0000 H   0  0  0  0  0  0  0  0  0  0  0  0
   11.8221    0.3412    0.0000 H   0  0  0  0  0  0  0  0  0  0  0  0
    5.7339    1.0246    0.0000 H   0  0  0  0  0  0  0  0  0  0  0  0
   12.2118    1.0223    0.0000 H   0  0  0  0  0  0  0  0  0  0  0  0
   12.2088    1.8193    0.0000 H   0  0  0  0  0  0  0  0  0  0  0  0
    9.9200    2.8150    0.0000 H   0  0  0  0  0  0  0  0  0  0  0  0
    6.2176    1.8390    0.0000 H   0  0  0  0  0  0  0  0  0  0  0  0
    5.7427    2.6617    0.0000 H   0  0  0  0  0  0  0  0  0  0  0  0
    4.5274    2.6617    0.0000 H   0  0  0  0  0  0  0  0  0  0  0  0
    4.0524    1.8390    0.0000 H   0  0  0  0  0  0  0  0  0  0  0  0
   11.8138    2.4974    0.0000 H   0  0  0  0  0  0  0  0  0  0  0  0
   11.1220    2.8932    0.0000 H   0  0  0  0  0  0  0  0  0  0  0  0
    3.7320   -0.0049    0.0000 H   0  0  0  0  0  0  0  0  0  0  0  0
    6.8878   -2.4696    0.0000 H   0  0  0  0  0  0  0  0  0  0  0  0
    7.5034    1.2268    0.0000 H   0  0  0  0  0  0  0  0  0  0  0  0
    6.8762    1.8396    0.0000 H   0  0  0  0  0  0  0  0  0  0  0  0
    6.2635    1.2125    0.0000 H   0  0  0  0  0  0  0  0  0  0  0  0
    2.0000   -1.6249    0.0000 H   0  0  0  0  0  0  0  0  0  0  0  0
  1 22  1  0  0  0  0
  2 26  2  0  0  0  0
  3 28  1  0  0  0  0
  3 52  1  0  0  0  0
  4 28  2  0  0  0  0
  5 10  1  0  0  0  0
  5 11  1  0  0  0  0
  5 18  1  0  0  0  0
  6  9  1  0  0  0  0
  6 17  1  0  0  0  0
  6 40  1  0  0  0  0
  7 20  1  0  0  0  0
  7 24  1  0  0  0  0
  7 26  1  0  0  0  0
  8  9  1  0  0  0  0
  8 10  1  0  0  0  0
  8 12  1  0  0  0  0
  8 29  1  0  0  0  0
  9 11  1  0  0  0  0
  9 30  1  0  0  0  0
 10 31  1  0  0  0  0
 10 32  1  0  0  0  0
 11 33  1  0  0  0  0
 11 34  1  0  0  0  0
 12 14  1  0  0  0  0
 12 35  1  0  0  0  0
 12 36  1  0  0  0  0
 13 15  1  0  0  0  0
 13 16  1  0  0  0  0
 13 19  1  0  0  0  0
 13 37  1  0  0  0  0
 14 17  1  0  0  0  0
 14 38  1  0  0  0  0
 14 39  1  0  0  0  0
 15 16  1  0  0  0  0
 15 41  1  0  0  0  0
 15 42  1  0  0  0  0
 16 43  1  0  0  0  0
 16 44  1  0  0  0  0
 17 45  1  0  0  0  0
 17 46  1  0  0  0  0
 18 21  2  0  0  0  0
 18 22  1  0  0  0  0
 19 20  2  0  0  0  0
 19 23  1  0  0  0  0
 20 21  1  0  0  0  0
 21 25  1  0  0  0  0
 22 24  2  0  0  0  0
 23 27  2  0  0  0  0
 23 47  1  0  0  0  0
 24 48  1  0  0  0  0
 25 49  1  0  0  0  0
 25 50  1  0  0  0  0
 25 51  1  0  0  0  0
 26 27  1  0  0  0  0
 27 28  1  0  0  0  0
M  END
> <PUBCHEM_COMPOUND_CID>
512816
> <PUBCHEM_COMPOUND_CANONICALIZED>
1
> <PUBCHEM_CACTVS_COMPLEXITY>
897
> <PUBCHEM_CACTVS_HBOND_ACCEPTOR>
6
> <PUBCHEM_CACTVS_HBOND_DONOR>
2
> <PUBCHEM_CACTVS_ROTATABLE_BOND>
3
> <PUBCHEM_CACTVS_SUBSKEYS>
AAADceB7MQAAAAAAAAAAAAAAGAAAAWAAAAAsQIAAAAAAAFiAAAAAHwAQCAAADSjBgAQCCAPAAgCIAiXWWACAAAAgAAAACIEIAEgIRA4IwAAUUAACtgCIkYMQAAAOAAAAAAAAAAAAAAAAAAAAAAAAAAAAAA==
> <PUBCHEM_IUPAC_OPENEYE_NAME>
8-(1,2,3,4,4a,5,7,7a-octahydropyrrolo[3,4-b]pyridin-6-yl)-1-cyclopropyl-7-fluoro-9-methyl-4-oxo-quinolizine-3-carboxylic acid
> <PUBCHEM_IUPAC_CAS_NAME>
8-(1,2,3,4,4a,5,7,7a-octahydropyrrolo[3,4-b]pyridin-6-yl)-1-cyclopropyl-7-fluoro-9-methyl-4-oxo-3-quinolizinecarboxylic acid
> <PUBCHEM_IUPAC_NAME_MARKUP>
8-(1,2,3,4,4<I>a</I>,5,7,7<I>a</I>-octahydropyrrolo[3,4-b]pyridin-6-yl)-1-cyclopropyl-7-fluoro-9-methyl-4-oxoquinolizine-3-carboxylic acid
> <PUBCHEM_IUPAC_NAME>
8-(1,2,3,4,4a,5,7,7a-octahydropyrrolo[3,4-b]pyridin-6-yl)-1-cyclopropyl-7-fluoro-9-methyl-4-oxoquinolizine-3-carboxylic acid
> <PUBCHEM_IUPAC_SYSTEMATIC_NAME>
8-(1,2,3,4,4a,5,7,7a-octahydropyrrolo[3,4-b]pyridin-6-yl)-1-cyclopropyl-7-fluoranyl-9-methyl-4-oxidanylidene-quinolizine-3-carboxylic acid
> <PUBCHEM_IUPAC_TRADITIONAL_NAME>
8-(1,2,3,4,4a,5,7,7a-octahydropyrrolo[3,4-b]pyridin-6-yl)-1-cyclopropyl-7-fluoro-4-keto-9-methyl-quinolizine-3-carboxylic acid
> <PUBCHEM_IUPAC_INCHI>
InChI=1S/C21H24FN3O3/c1-11-18-14(12-4-5-12)7-15(21(27)28)20(26)25(18)9-16(22)19(11)24-8-13-3-2-6-23-17(13)10-24/h7,9,12-13,17,23H,2-6,8,10H2,1H3,(H,27,28)
> <PUBCHEM_IUPAC_INCHIKEY>
LPFFKRSIFTURFF-UHFFFAOYSA-N
> <PUBCHEM_XLOGP3_AA>
-0.5
> <PUBCHEM_EXACT_MASS>
385.18016980
> <PUBCHEM_MOLECULAR_FORMULA>
C21H24FN3O3
> <PUBCHEM_MOLECULAR_WEIGHT>
385.4
> <PUBCHEM_OPENEYE_CAN_SMILES>
CC1=C(C(=CN2C1=C(C=C(C2=O)C(=O)O)C3CC3)F)N4CC5CCCNC5C4
> <PUBCHEM_OPENEYE_ISO_SMILES>
CC1=C(C(=CN2C1=C(C=C(C2=O)C(=O)O)C3CC3)F)N4CC5CCCNC5C4
> <PUBCHEM_CACTVS_TPSA>
72.9
> <PUBCHEM_MONOISOTOPIC_WEIGHT>
385.18016980
> <PUBCHEM_TOTAL_CHARGE>
0
> <PUBCHEM_HEAVY_ATOM_COUNT>
28
> <PUBCHEM_ATOM_DEF_STEREO_COUNT>
0
> <PUBCHEM_ATOM_UDEF_STEREO_COUNT>
2
> <PUBCHEM_BOND_DEF_STEREO_COUNT>
0
> <PUBCHEM_BOND_UDEF_STEREO_COUNT>
0
> <PUBCHEM_ISOTOPIC_ATOM_COUNT>
0
> <PUBCHEM_COMPONENT_COUNT>
1
> <PUBCHEM_CACTVS_TAUTO_COUNT>
-1
> <PUBCHEM_COORDINATE_TYPE>
1
5
255
> <PUBCHEM_BONDANNOTATIONS>
18  21  8
18  22  8
19  20  8
19  23  8
20  21  8
22  24  8
23  27  8
26  27  8
7  20  8
7  24  8
7  26  8
8  12  3
9  11  3
$$$$
