512881
  -OEChem-10302200282D
148151  0     1  0  0  0  0  0999 V2000
    5.4641   -0.5142    0.0000 O   0  0  0  0  0  0  0  0  0  0  0  0
    7.1962   -0.5142    0.0000 O   0  0  0  0  0  0  0  0  0  0  0  0
    3.6322    1.2447    0.0000 O   0  0  0  0  0  0  0  0  0  0  0  0
    8.9282   -0.5142    0.0000 O   0  0  0  0  0  0  0  0  0  0  0  0
    3.7320   -0.5142    0.0000 O   0  0  0  0  0  0  0  0  0  0  0  0
    7.9623    2.8431    0.0000 O   0  0  0  0  0  0  0  0  0  0  0  0
    8.9282    2.4858    0.0000 O   0  0  0  0  0  0  0  0  0  0  0  0
    8.3210    4.9518    0.0000 O   0  0  0  0  0  0  0  0  0  0  0  0
    9.4282   -3.3802    0.0000 O   0  0  0  0  0  0  0  0  0  0  0  0
   10.6603   -2.5142    0.0000 O   0  0  0  0  0  0  0  0  0  0  0  0
    5.4641   -2.5142    0.0000 O   0  0  0  0  0  0  0  0  0  0  0  0
    9.2891    3.9564    0.0000 O   0  0  0  0  0  0  0  0  0  0  0  0
    4.5981    3.9858    0.0000 O   0  0  0  0  0  0  0  0  0  0  0  0
    7.1962    2.4858    0.0000 O   0  0  0  0  0  0  0  0  0  0  0  0
   11.9015    3.5374    0.0000 O   0  0  0  0  0  0  0  0  0  0  0  0
    7.9282   -4.2462    0.0000 O   0  0  0  0  0  0  0  0  0  0  0  0
   11.5263   -1.0142    0.0000 O   0  0  0  0  0  0  0  0  0  0  0  0
    3.7320   -3.5142    0.0000 N   0  0  0  0  0  0  0  0  0  0  0  0
   11.2172    1.6580    0.0000 N   0  0  0  0  0  0  0  0  0  0  0  0
    5.4641    0.4858    0.0000 C   0  0  2  0  0  0  0  0  0  0  0  0
    6.3301    0.9858    0.0000 C   0  0  2  0  0  0  0  0  0  0  0  0
    4.5981    0.9858    0.0000 C   0  0  1  0  0  0  0  0  0  0  0  0
    7.1962    0.4858    0.0000 C   0  0  1  0  0  0  0  0  0  0  0  0
    4.5981    1.9858    0.0000 C   0  0  0  0  0  0  0  0  0  0  0  0
    5.4641    2.4858    0.0000 C   0  0  2  0  0  0  0  0  0  0  0  0
    8.0622    0.9858    0.0000 C   0  0  2  0  0  0  0  0  0  0  0  0
    7.1962    3.4858    0.0000 C   0  0  1  0  0  0  0  0  0  0  0  0
    8.0622    3.9858    0.0000 C   0  0  1  0  0  0  0  0  0  0  0  0
    6.3301    3.9858    0.0000 C   0  0  2  0  0  0  0  0  0  0  0  0
    4.5981   -1.0142    0.0000 C   0  0  2  0  0  0  0  0  0  0  0  0
    8.0622   -1.0142    0.0000 C   0  0  2  0  0  0  0  0  0  0  0  0
    8.9282   -2.5142    0.0000 C   0  0  2  0  0  0  0  0  0  0  0  0
    6.3301    1.9858    0.0000 C   0  0  0  0  0  0  0  0  0  0  0  0
    3.8910    0.2787    0.0000 C   0  0  0  0  0  0  0  0  0  0  0  0
    8.0622   -2.0142    0.0000 C   0  0  0  0  0  0  0  0  0  0  0  0
    4.5981   -2.0142    0.0000 C   0  0  1  0  0  0  0  0  0  0  0  0
    5.4641    3.4858    0.0000 C   0  0  0  0  0  0  0  0  0  0  0  0
    3.7320   -2.5142    0.0000 C   0  0  2  0  0  0  0  0  0  0  0  0
    8.9282    3.4858    0.0000 C   0  0  1  0  0  0  0  0  0  0  0  0
    9.7942   -2.0142    0.0000 C   0  0  2  0  0  0  0  0  0  0  0  0
    9.7942   -1.0142    0.0000 C   0  0  2  0  0  0  0  0  0  0  0  0
    2.8660   -2.0142    0.0000 C   0  0  0  0  0  0  0  0  0  0  0  0
    2.8660   -1.0142    0.0000 C   0  0  1  0  0  0  0  0  0  0  0  0
    8.0622    1.9858    0.0000 C   0  0  0  0  0  0  0  0  0  0  0  0
    5.4641    1.4858    0.0000 C   0  0  0  0  0  0  0  0  0  0  0  0
    8.9282    0.4858    0.0000 C   0  0  0  0  0  0  0  0  0  0  0  0
    7.4886    4.8050    0.0000 C   0  0  0  0  0  0  0  0  0  0  0  0
    6.3301    4.9858    0.0000 C   0  0  0  0  0  0  0  0  0  0  0  0
    9.7942    3.9858    0.0000 C   0  0  0  0  0  0  0  0  0  0  0  0
    8.9470    3.0167    0.0000 C   0  0  2  0  0  0  0  0  0  0  0  0
    8.4282   -3.3802    0.0000 C   0  0  0  0  0  0  0  0  0  0  0  0
    9.5897    2.2506    0.0000 C   0  0  0  0  0  0  0  0  0  0  0  0
   10.6603   -0.5142    0.0000 C   0  0  0  0  0  0  0  0  0  0  0  0
   10.5745    2.4242    0.0000 C   0  0  2  0  0  0  0  0  0  0  0  0
    2.0000   -0.5142    0.0000 C   0  0  0  0  0  0  0  0  0  0  0  0
   10.9166    3.3638    0.0000 C   0  0  2  0  0  0  0  0  0  0  0  0
   10.2739    4.1299    0.0000 C   0  0  1  0  0  0  0  0  0  0  0  0
    9.7942    4.9858    0.0000 C   0  0  0  0  0  0  0  0  0  0  0  0
    2.8660   -4.0142    0.0000 C   0  0  0  0  0  0  0  0  0  0  0  0
    4.5981   -4.0142    0.0000 C   0  0  0  0  0  0  0  0  0  0  0  0
    8.9282   -4.2462    0.0000 C   0  0  0  0  0  0  0  0  0  0  0  0
   10.6160    5.0696    0.0000 C   0  0  0  0  0  0  0  0  0  0  0  0
   11.5263   -2.0142    0.0000 C   0  0  0  0  0  0  0  0  0  0  0  0
   12.3923   -2.5142    0.0000 C   0  0  0  0  0  0  0  0  0  0  0  0
    9.4282   -5.1122    0.0000 C   0  0  0  0  0  0  0  0  0  0  0  0
   13.2583   -2.0142    0.0000 C   0  0  0  0  0  0  0  0  0  0  0  0
    6.0010    0.1758    0.0000 H   0  0  0  0  0  0  0  0  0  0  0  0
    6.8671    1.2958    0.0000 H   0  0  0  0  0  0  0  0  0  0  0  0
    7.7331    0.1758    0.0000 H   0  0  0  0  0  0  0  0  0  0  0  0
    4.3860    2.5684    0.0000 H   0  0  0  0  0  0  0  0  0  0  0  0
    3.9875    1.8782    0.0000 H   0  0  0  0  0  0  0  0  0  0  0  0
    6.0841    2.4858    0.0000 H   0  0  0  0  0  0  0  0  0  0  0  0
    8.5991    1.2958    0.0000 H   0  0  0  0  0  0  0  0  0  0  0  0
    6.8406    2.9780    0.0000 H   0  0  0  0  0  0  0  0  0  0  0  0
    6.8671    4.2958    0.0000 H   0  0  0  0  0  0  0  0  0  0  0  0
    4.5981   -0.3942    0.0000 H   0  0  0  0  0  0  0  0  0  0  0  0
    7.5252   -1.3242    0.0000 H   0  0  0  0  0  0  0  0  0  0  0  0
    6.9501    1.9858    0.0000 H   0  0  0  0  0  0  0  0  0  0  0  0
    6.3301    2.6058    0.0000 H   0  0  0  0  0  0  0  0  0  0  0  0
    5.7101    1.9858    0.0000 H   0  0  0  0  0  0  0  0  0  0  0  0
    3.4526    0.7171    0.0000 H   0  0  0  0  0  0  0  0  0  0  0  0
    3.4526   -0.1597    0.0000 H   0  0  0  0  0  0  0  0  0  0  0  0
    4.3294   -0.1597    0.0000 H   0  0  0  0  0  0  0  0  0  0  0  0
    7.4516   -1.9065    0.0000 H   0  0  0  0  0  0  0  0  0  0  0  0
    7.8501   -2.5968    0.0000 H   0  0  0  0  0  0  0  0  0  0  0  0
    4.5981   -2.6342    0.0000 H   0  0  0  0  0  0  0  0  0  0  0  0
    3.1951   -2.8242    0.0000 H   0  0  0  0  0  0  0  0  0  0  0  0
    9.4651    3.1758    0.0000 H   0  0  0  0  0  0  0  0  0  0  0  0
    9.7942   -2.6342    0.0000 H   0  0  0  0  0  0  0  0  0  0  0  0
    9.7942   -0.3942    0.0000 H   0  0  0  0  0  0  0  0  0  0  0  0
    2.2554   -1.9065    0.0000 H   0  0  0  0  0  0  0  0  0  0  0  0
    2.6540   -2.5968    0.0000 H   0  0  0  0  0  0  0  0  0  0  0  0
    2.8660   -0.3942    0.0000 H   0  0  0  0  0  0  0  0  0  0  0  0
    3.4717    1.8435    0.0000 H   0  0  0  0  0  0  0  0  0  0  0  0
    4.8441    1.4858    0.0000 H   0  0  0  0  0  0  0  0  0  0  0  0
    5.4641    0.8658    0.0000 H   0  0  0  0  0  0  0  0  0  0  0  0
    6.0841    1.4858    0.0000 H   0  0  0  0  0  0  0  0  0  0  0  0
    8.6182   -0.0511    0.0000 H   0  0  0  0  0  0  0  0  0  0  0  0
    9.4651    0.1758    0.0000 H   0  0  0  0  0  0  0  0  0  0  0  0
    9.2382    1.0228    0.0000 H   0  0  0  0  0  0  0  0  0  0  0  0
    7.9965    5.1606    0.0000 H   0  0  0  0  0  0  0  0  0  0  0  0
    7.1330    5.3129    0.0000 H   0  0  0  0  0  0  0  0  0  0  0  0
    6.9807    4.4494    0.0000 H   0  0  0  0  0  0  0  0  0  0  0  0
    6.9501    4.9858    0.0000 H   0  0  0  0  0  0  0  0  0  0  0  0
    6.3301    5.6058    0.0000 H   0  0  0  0  0  0  0  0  0  0  0  0
    5.7101    4.9858    0.0000 H   0  0  0  0  0  0  0  0  0  0  0  0
   10.0063    3.4032    0.0000 H   0  0  0  0  0  0  0  0  0  0  0  0
   10.4048    4.0935    0.0000 H   0  0  0  0  0  0  0  0  0  0  0  0
    8.5485    3.4917    0.0000 H   0  0  0  0  0  0  0  0  0  0  0  0
    7.8913   -3.0702    0.0000 H   0  0  0  0  0  0  0  0  0  0  0  0
    8.1182   -3.9171    0.0000 H   0  0  0  0  0  0  0  0  0  0  0  0
    8.9651   -3.6902    0.0000 H   0  0  0  0  0  0  0  0  0  0  0  0
    9.0527    1.9407    0.0000 H   0  0  0  0  0  0  0  0  0  0  0  0
    9.8017    1.6680    0.0000 H   0  0  0  0  0  0  0  0  0  0  0  0
   10.9703   -1.0511    0.0000 H   0  0  0  0  0  0  0  0  0  0  0  0
   11.1972   -0.2042    0.0000 H   0  0  0  0  0  0  0  0  0  0  0  0
   10.3503    0.0228    0.0000 H   0  0  0  0  0  0  0  0  0  0  0  0
   11.1851    2.5318    0.0000 H   0  0  0  0  0  0  0  0  0  0  0  0
    8.9199    5.1122    0.0000 H   0  0  0  0  0  0  0  0  0  0  0  0
    2.3100    0.0228    0.0000 H   0  0  0  0  0  0  0  0  0  0  0  0
    1.4631   -0.2042    0.0000 H   0  0  0  0  0  0  0  0  0  0  0  0
    1.6900   -1.0511    0.0000 H   0  0  0  0  0  0  0  0  0  0  0  0
   11.1288    3.9464    0.0000 H   0  0  0  0  0  0  0  0  0  0  0  0
    9.8754    4.6049    0.0000 H   0  0  0  0  0  0  0  0  0  0  0  0
    6.0010   -2.2042    0.0000 H   0  0  0  0  0  0  0  0  0  0  0  0
   10.4142    4.9858    0.0000 H   0  0  0  0  0  0  0  0  0  0  0  0
    9.7942    5.6058    0.0000 H   0  0  0  0  0  0  0  0  0  0  0  0
    9.1742    4.9858    0.0000 H   0  0  0  0  0  0  0  0  0  0  0  0
    2.5560   -3.4772    0.0000 H   0  0  0  0  0  0  0  0  0  0  0  0
    2.3291   -4.3242    0.0000 H   0  0  0  0  0  0  0  0  0  0  0  0
    3.1760   -4.5511    0.0000 H   0  0  0  0  0  0  0  0  0  0  0  0
    4.2881   -4.5511    0.0000 H   0  0  0  0  0  0  0  0  0  0  0  0
    5.1350   -4.3242    0.0000 H   0  0  0  0  0  0  0  0  0  0  0  0
    4.9081   -3.4772    0.0000 H   0  0  0  0  0  0  0  0  0  0  0  0
   11.1986    4.8575    0.0000 H   0  0  0  0  0  0  0  0  0  0  0  0
   10.8282    5.6522    0.0000 H   0  0  0  0  0  0  0  0  0  0  0  0
   10.0335    5.2817    0.0000 H   0  0  0  0  0  0  0  0  0  0  0  0
   11.8278    1.7656    0.0000 H   0  0  0  0  0  0  0  0  0  0  0  0
   11.0051    1.0755    0.0000 H   0  0  0  0  0  0  0  0  0  0  0  0
   12.2999    3.0624    0.0000 H   0  0  0  0  0  0  0  0  0  0  0  0
   11.9938   -2.9891    0.0000 H   0  0  0  0  0  0  0  0  0  0  0  0
   12.7908   -2.9891    0.0000 H   0  0  0  0  0  0  0  0  0  0  0  0
    8.8913   -5.4222    0.0000 H   0  0  0  0  0  0  0  0  0  0  0  0
    9.7382   -5.6492    0.0000 H   0  0  0  0  0  0  0  0  0  0  0  0
    9.9651   -4.8022    0.0000 H   0  0  0  0  0  0  0  0  0  0  0  0
   13.5683   -2.5511    0.0000 H   0  0  0  0  0  0  0  0  0  0  0  0
   13.7953   -1.7042    0.0000 H   0  0  0  0  0  0  0  0  0  0  0  0
   12.9483   -1.4772    0.0000 H   0  0  0  0  0  0  0  0  0  0  0  0
 20  1  1  1  0  0  0
 30  1  1  1  0  0  0
 23  2  1  1  0  0  0
 31  2  1  6  0  0  0
 22  3  1  6  0  0  0
  3 94  1  0  0  0  0
  4 31  1  0  0  0  0
  4 41  1  0  0  0  0
  5 30  1  0  0  0  0
  5 43  1  0  0  0  0
 27  6  1  6  0  0  0
 50  6  1  6  0  0  0
  7 39  1  0  0  0  0
  7 44  1  0  0  0  0
 28  8  1  6  0  0  0
  8119  1  0  0  0  0
 32  9  1  6  0  0  0
  9 61  1  0  0  0  0
 40 10  1  6  0  0  0
 10 63  1  0  0  0  0
 36 11  1  6  0  0  0
 11125  1  0  0  0  0
 12 50  1  0  0  0  0
 12 57  1  0  0  0  0
 13 37  2  0  0  0  0
 14 44  2  0  0  0  0
 56 15  1  6  0  0  0
 15140  1  0  0  0  0
 16 61  2  0  0  0  0
 17 63  2  0  0  0  0
 38 18  1  1  0  0  0
 18 59  1  0  0  0  0
 18 60  1  0  0  0  0
 54 19  1  6  0  0  0
 19138  1  0  0  0  0
 19139  1  0  0  0  0
 20 21  1  0  0  0  0
 20 22  1  0  0  0  0
 20 67  1  0  0  0  0
 21 23  1  0  0  0  0
 21 33  1  1  0  0  0
 21 68  1  0  0  0  0
 22 24  1  0  0  0  0
 22 34  1  0  0  0  0
 23 26  1  0  0  0  0
 23 69  1  0  0  0  0
 24 25  1  0  0  0  0
 24 70  1  0  0  0  0
 24 71  1  0  0  0  0
 25 37  1  0  0  0  0
 25 45  1  6  0  0  0
 25 72  1  0  0  0  0
 26 44  1  0  0  0  0
 26 46  1  6  0  0  0
 26 73  1  0  0  0  0
 27 28  1  0  0  0  0
 27 29  1  0  0  0  0
 27 74  1  0  0  0  0
 28 39  1  0  0  0  0
 28 47  1  0  0  0  0
 29 37  1  0  0  0  0
 29 48  1  6  0  0  0
 29 75  1  0  0  0  0
 30 36  1  0  0  0  0
 30 76  1  0  0  0  0
 31 35  1  0  0  0  0
 31 77  1  0  0  0  0
 32 35  1  0  0  0  0
 32 40  1  0  0  0  0
 32 51  1  0  0  0  0
 33 78  1  0  0  0  0
 33 79  1  0  0  0  0
 33 80  1  0  0  0  0
 34 81  1  0  0  0  0
 34 82  1  0  0  0  0
 34 83  1  0  0  0  0
 35 84  1  0  0  0  0
 35 85  1  0  0  0  0
 36 38  1  0  0  0  0
 36 86  1  0  0  0  0
 38 42  1  0  0  0  0
 38 87  1  0  0  0  0
 39 49  1  1  0  0  0
 39 88  1  0  0  0  0
 40 41  1  0  0  0  0
 40 89  1  0  0  0  0
 41 53  1  1  0  0  0
 41 90  1  0  0  0  0
 42 43  1  0  0  0  0
 42 91  1  0  0  0  0
 42 92  1  0  0  0  0
 43 55  1  1  0  0  0
 43 93  1  0  0  0  0
 45 95  1  0  0  0  0
 45 96  1  0  0  0  0
 45 97  1  0  0  0  0
 46 98  1  0  0  0  0
 46 99  1  0  0  0  0
 46100  1  0  0  0  0
 47101  1  0  0  0  0
 47102  1  0  0  0  0
 47103  1  0  0  0  0
 48104  1  0  0  0  0
 48105  1  0  0  0  0
 48106  1  0  0  0  0
 49 58  1  0  0  0  0
 49107  1  0  0  0  0
 49108  1  0  0  0  0
 50 52  1  0  0  0  0
 50109  1  0  0  0  0
 51110  1  0  0  0  0
 51111  1  0  0  0  0
 51112  1  0  0  0  0
 52 54  1  0  0  0  0
 52113  1  0  0  0  0
 52114  1  0  0  0  0
 53115  1  0  0  0  0
 53116  1  0  0  0  0
 53117  1  0  0  0  0
 54 56  1  0  0  0  0
 54118  1  0  0  0  0
 55120  1  0  0  0  0
 55121  1  0  0  0  0
 55122  1  0  0  0  0
 56 57  1  0  0  0  0
 56123  1  0  0  0  0
 57 62  1  6  0  0  0
 57124  1  0  0  0  0
 58126  1  0  0  0  0
 58127  1  0  0  0  0
 58128  1  0  0  0  0
 59129  1  0  0  0  0
 59130  1  0  0  0  0
 59131  1  0  0  0  0
 60132  1  0  0  0  0
 60133  1  0  0  0  0
 60134  1  0  0  0  0
 61 65  1  0  0  0  0
 62135  1  0  0  0  0
 62136  1  0  0  0  0
 62137  1  0  0  0  0
 63 64  1  0  0  0  0
 64 66  1  0  0  0  0
 64141  1  0  0  0  0
 64142  1  0  0  0  0
 65143  1  0  0  0  0
 65144  1  0  0  0  0
 65145  1  0  0  0  0
 66146  1  0  0  0  0
 66147  1  0  0  0  0
 66148  1  0  0  0  0
M  END
> <PUBCHEM_COMPOUND_CID>
512881
> <PUBCHEM_COMPOUND_CANONICALIZED>
1
> <PUBCHEM_CACTVS_COMPLEXITY>
1660
> <PUBCHEM_CACTVS_HBOND_ACCEPTOR>
19
> <PUBCHEM_CACTVS_HBOND_DONOR>
5
> <PUBCHEM_CACTVS_ROTATABLE_BOND>
13
> <PUBCHEM_CACTVS_SUBSKEYS>
AAADcfB/PgAAAAAAAAAAAAAAAAAAAAAAAAAkSJAAAAAAAAAAAAAAHgAQCAAADXzxgAcCCANABgAIAICQCAAAAAAAAAAAAIEIAAATEBYAgAAmQAAHMAAXAAHK7PzOAAAAAAAAAAAAAAAAAAAAAAAAAAAAAA==
> <PUBCHEM_IUPAC_OPENEYE_NAME>
[(2S,3S,4R,6R)-4-acetoxy-6-[[(3R,4S,5S,6R,7R,9R,11R,12R,13R,14R)-12-[(2S,4R,5R,6R)-4-amino-5-hydroxy-6-methyl-tetrahydropyran-2-yl]oxy-6-[(2S,3R,4S,6R)-4-(dimethylamino)-3-hydroxy-6-methyl-tetrahydropyran-2-yl]oxy-14-ethyl-7,13-dihydroxy-3,5,7,9,11,13-hexamethyl-2,10-dioxo-oxacyclotetradec-4-yl]oxy]-2,4-dimethyl-tetrahydropyran-3-yl] propanoate
> <PUBCHEM_IUPAC_CAS_NAME>
propanoic acid [(2S,3S,4R,6R)-4-acetyloxy-6-[[(3R,4S,5S,6R,7R,9R,11R,12R,13R,14R)-12-[[(2S,4R,5R,6R)-4-amino-5-hydroxy-6-methyl-2-oxanyl]oxy]-6-[[(2S,3R,4S,6R)-4-(dimethylamino)-3-hydroxy-6-methyl-2-oxanyl]oxy]-14-ethyl-7,13-dihydroxy-3,5,7,9,11,13-hexamethyl-2,10-dioxo-oxacyclotetradec-4-yl]oxy]-2,4-dimethyl-3-oxanyl] ester
> <PUBCHEM_IUPAC_NAME_MARKUP>
[(2<I>S</I>,3<I>S</I>,4<I>R</I>,6<I>R</I>)-4-acetyloxy-6-[[(3<I>R</I>,4<I>S</I>,5<I>S</I>,6<I>R</I>,7<I>R</I>,9<I>R</I>,11<I>R</I>,12<I>R</I>,13<I>R</I>,14<I>R</I>)-12-[(2<I>S</I>,4<I>R</I>,5<I>R</I>,6<I>R</I>)-4-amino-5-hydroxy-6-methyloxan-2-yl]oxy-6-[(2<I>S</I>,3<I>R</I>,4<I>S</I>,6<I>R</I>)-4-(dimethylamino)-3-hydroxy-6-methyloxan-2-yl]oxy-14-ethyl-7,13-dihydroxy-3,5,7,9,11,13-hexamethyl-2,10-dioxo-oxacyclotetradec-4-yl]oxy]-2,4-dimethyloxan-3-yl] propanoate
> <PUBCHEM_IUPAC_NAME>
[(2S,3S,4R,6R)-4-acetyloxy-6-[[(3R,4S,5S,6R,7R,9R,11R,12R,13R,14R)-12-[(2S,4R,5R,6R)-4-amino-5-hydroxy-6-methyloxan-2-yl]oxy-6-[(2S,3R,4S,6R)-4-(dimethylamino)-3-hydroxy-6-methyloxan-2-yl]oxy-14-ethyl-7,13-dihydroxy-3,5,7,9,11,13-hexamethyl-2,10-dioxo-oxacyclotetradec-4-yl]oxy]-2,4-dimethyloxan-3-yl] propanoate
> <PUBCHEM_IUPAC_SYSTEMATIC_NAME>
[(2S,3S,4R,6R)-4-acetyloxy-6-[[(3R,4S,5S,6R,7R,9R,11R,12R,13R,14R)-12-[(2S,4R,5R,6R)-4-azanyl-6-methyl-5-oxidanyl-oxan-2-yl]oxy-6-[(2S,3R,4S,6R)-4-(dimethylamino)-6-methyl-3-oxidanyl-oxan-2-yl]oxy-14-ethyl-3,5,7,9,11,13-hexamethyl-7,13-bis(oxidanyl)-2,10-bis(oxidanylidene)-1-oxacyclotetradec-4-yl]oxy]-2,4-dimethyl-oxan-3-yl] propanoate
> <PUBCHEM_IUPAC_TRADITIONAL_NAME>
propionic acid [(2S,3S,4R,6R)-4-acetoxy-6-[[(3R,4S,5S,6R,7R,9R,11R,12R,13R,14R)-12-[(2S,4R,5R,6R)-4-amino-5-hydroxy-6-methyl-tetrahydropyran-2-yl]oxy-6-[(2S,3R,4S,6R)-4-(dimethylamino)-3-hydroxy-6-methyl-tetrahydropyran-2-yl]oxy-14-ethyl-7,13-dihydroxy-2,10-diketo-3,5,7,9,11,13-hexamethyl-oxacyclotetradec-4-yl]oxy]-2,4-dimethyl-tetrahydropyran-3-yl] ester
> <PUBCHEM_IUPAC_INCHI>
InChI=1S/C47H82N2O17/c1-16-32-47(13,57)41(64-34-19-30(48)37(53)27(8)59-34)24(5)36(52)22(3)20-45(11,56)40(65-44-38(54)31(49(14)15)18-23(4)58-44)25(6)39(26(7)43(55)61-32)63-35-21-46(12,66-29(10)50)42(28(9)60-35)62-33(51)17-2/h22-28,30-32,34-35,37-42,44,53-54,56-57H,16-21,48H2,1-15H3/t22-,23-,24+,25+,26-,27-,28+,30-,31+,32-,34+,35+,37+,38-,39+,40-,41-,42+,44+,45-,46-,47-/m1/s1
> <PUBCHEM_IUPAC_INCHIKEY>
UNYUVAQSWZCDRM-ZUBNVXPFSA-N
> <PUBCHEM_XLOGP3>
3.4
> <PUBCHEM_EXACT_MASS>
946.56134915
> <PUBCHEM_MOLECULAR_FORMULA>
C47H82N2O17
> <PUBCHEM_MOLECULAR_WEIGHT>
947.2
> <PUBCHEM_OPENEYE_CAN_SMILES>
CCC1C(C(C(C(=O)C(CC(C(C(C(C(C(=O)O1)C)OC2CC(C(C(O2)C)OC(=O)CC)(C)OC(=O)C)C)OC3C(C(CC(O3)C)N(C)C)O)(C)O)C)C)OC4CC(C(C(O4)C)O)N)(C)O
> <PUBCHEM_OPENEYE_ISO_SMILES>
CC[C@@H]1[C@@]([C@@H]([C@H](C(=O)[C@@H](C[C@@]([C@@H]([C@H]([C@@H]([C@H](C(=O)O1)C)O[C@H]2C[C@@]([C@H]([C@@H](O2)C)OC(=O)CC)(C)OC(=O)C)C)O[C@H]3[C@@H]([C@H](C[C@H](O3)C)N(C)C)O)(C)O)C)C)O[C@H]4C[C@H]([C@H]([C@H](O4)C)O)N)(C)O
> <PUBCHEM_CACTVS_TPSA>
262
> <PUBCHEM_MONOISOTOPIC_WEIGHT>
946.56134915
> <PUBCHEM_TOTAL_CHARGE>
0
> <PUBCHEM_HEAVY_ATOM_COUNT>
66
> <PUBCHEM_ATOM_DEF_STEREO_COUNT>
22
> <PUBCHEM_ATOM_UDEF_STEREO_COUNT>
0
> <PUBCHEM_BOND_DEF_STEREO_COUNT>
0
> <PUBCHEM_BOND_UDEF_STEREO_COUNT>
0
> <PUBCHEM_ISOTOPIC_ATOM_COUNT>
0
> <PUBCHEM_COMPONENT_COUNT>
1
> <PUBCHEM_CACTVS_TAUTO_COUNT>
-1
> <PUBCHEM_COORDINATE_TYPE>
1
5
255
> <PUBCHEM_BONDANNOTATIONS>
20  1  5
30  1  5
40  10  6
36  11  6
56  15  6
38  18  5
54  19  6
23  2  5
31  2  6
21  33  5
25  45  6
26  46  6
29  48  6
22  3  6
39  49  5
41  53  5
43  55  5
57  62  6
27  6  6
50  6  6
28  8  6
32  9  6
$$$$
