512839
  -OEChem-10302200282D
 54 54  0     1  0  0  0  0  0999 V2000
    3.2601    3.1144    0.0000 S   0  0  0  0  0  0  0  0  0  0  0  0
    2.0000    0.8543    0.0000 O   0  0  0  0  0  0  0  0  0  0  0  0
    5.5202    0.8543    0.0000 O   0  0  0  0  0  0  0  0  0  0  0  0
    4.9921    6.1144    0.0000 O   0  0  0  0  0  0  0  0  0  0  0  0
    5.8582    4.6144    0.0000 O   0  0  0  0  0  0  0  0  0  0  0  0
    3.7601    0.5756    0.0000 N   0  0  0  0  0  0  0  0  0  0  0  0
    3.2601    5.1144    0.0000 N   0  0  0  0  0  0  0  0  0  0  0  0
    3.2601    2.1144    0.0000 C   0  0  3  0  0  0  0  0  0  0  0  0
    4.2601    2.1144    0.0000 C   0  0  0  0  0  0  0  0  0  0  0  0
    2.9511    1.1634    0.0000 C   0  0  0  0  0  0  0  0  0  0  0  0
    3.7601   -0.4244    0.0000 C   0  0  0  0  0  0  0  0  0  0  0  0
    4.5691    1.1634    0.0000 C   0  0  0  0  0  0  0  0  0  0  0  0
    4.6261   -0.9244    0.0000 C   0  0  0  0  0  0  0  0  0  0  0  0
    4.6261   -1.9244    0.0000 C   0  0  0  0  0  0  0  0  0  0  0  0
    2.3090    2.4234    0.0000 C   0  0  0  0  0  0  0  0  0  0  0  0
    5.4921   -2.4244    0.0000 C   0  0  0  0  0  0  0  0  0  0  0  0
    5.4921   -3.4244    0.0000 C   0  0  0  0  0  0  0  0  0  0  0  0
    6.3582   -3.9244    0.0000 C   0  0  0  0  0  0  0  0  0  0  0  0
    4.1261    3.6144    0.0000 C   0  0  0  0  0  0  0  0  0  0  0  0
    6.3582   -4.9244    0.0000 C   0  0  0  0  0  0  0  0  0  0  0  0
    4.1261    4.6144    0.0000 C   0  0  3  0  0  0  0  0  0  0  0  0
    7.2242   -5.4244    0.0000 C   0  0  0  0  0  0  0  0  0  0  0  0
    7.2242   -6.4244    0.0000 C   0  0  0  0  0  0  0  0  0  0  0  0
    4.9921    5.1144    0.0000 C   0  0  0  0  0  0  0  0  0  0  0  0
    4.8665    2.2433    0.0000 H   0  0  0  0  0  0  0  0  0  0  0  0
    4.1953    2.7310    0.0000 H   0  0  0  0  0  0  0  0  0  0  0  0
    3.1495   -0.3168    0.0000 H   0  0  0  0  0  0  0  0  0  0  0  0
    3.5480   -1.0070    0.0000 H   0  0  0  0  0  0  0  0  0  0  0  0
    5.2367   -1.0321    0.0000 H   0  0  0  0  0  0  0  0  0  0  0  0
    4.8382   -0.3418    0.0000 H   0  0  0  0  0  0  0  0  0  0  0  0
    4.0155   -1.8168    0.0000 H   0  0  0  0  0  0  0  0  0  0  0  0
    4.4140   -2.5070    0.0000 H   0  0  0  0  0  0  0  0  0  0  0  0
    2.5006    3.0131    0.0000 H   0  0  0  0  0  0  0  0  0  0  0  0
    1.7194    2.6150    0.0000 H   0  0  0  0  0  0  0  0  0  0  0  0
    2.1174    1.8338    0.0000 H   0  0  0  0  0  0  0  0  0  0  0  0
    6.1027   -2.5321    0.0000 H   0  0  0  0  0  0  0  0  0  0  0  0
    5.7042   -1.8418    0.0000 H   0  0  0  0  0  0  0  0  0  0  0  0
    4.8815   -3.3168    0.0000 H   0  0  0  0  0  0  0  0  0  0  0  0
    5.2801   -4.0070    0.0000 H   0  0  0  0  0  0  0  0  0  0  0  0
    6.9687   -4.0321    0.0000 H   0  0  0  0  0  0  0  0  0  0  0  0
    6.5702   -3.3418    0.0000 H   0  0  0  0  0  0  0  0  0  0  0  0
    4.3382    3.0318    0.0000 H   0  0  0  0  0  0  0  0  0  0  0  0
    4.7367    3.7221    0.0000 H   0  0  0  0  0  0  0  0  0  0  0  0
    5.7476   -4.8168    0.0000 H   0  0  0  0  0  0  0  0  0  0  0  0
    6.1461   -5.5070    0.0000 H   0  0  0  0  0  0  0  0  0  0  0  0
    4.1261    5.2344    0.0000 H   0  0  0  0  0  0  0  0  0  0  0  0
    7.8348   -5.5321    0.0000 H   0  0  0  0  0  0  0  0  0  0  0  0
    7.4362   -4.8418    0.0000 H   0  0  0  0  0  0  0  0  0  0  0  0
    6.6042   -6.4244    0.0000 H   0  0  0  0  0  0  0  0  0  0  0  0
    7.2242   -7.0444    0.0000 H   0  0  0  0  0  0  0  0  0  0  0  0
    7.8442   -6.4244    0.0000 H   0  0  0  0  0  0  0  0  0  0  0  0
    3.2601    5.7344    0.0000 H   0  0  0  0  0  0  0  0  0  0  0  0
    2.7231    4.8044    0.0000 H   0  0  0  0  0  0  0  0  0  0  0  0
    5.5291    6.4244    0.0000 H   0  0  0  0  0  0  0  0  0  0  0  0
  1  8  1  0  0  0  0
  1 19  1  0  0  0  0
  2 10  2  0  0  0  0
  3 12  2  0  0  0  0
  4 24  1  0  0  0  0
  4 54  1  0  0  0  0
  5 24  2  0  0  0  0
  6 10  1  0  0  0  0
  6 11  1  0  0  0  0
  6 12  1  0  0  0  0
  7 21  1  0  0  0  0
  7 52  1  0  0  0  0
  7 53  1  0  0  0  0
  8  9  1  0  0  0  0
  8 10  1  0  0  0  0
  8 15  1  0  0  0  0
  9 12  1  0  0  0  0
  9 25  1  0  0  0  0
  9 26  1  0  0  0  0
 11 13  1  0  0  0  0
 11 27  1  0  0  0  0
 11 28  1  0  0  0  0
 13 14  1  0  0  0  0
 13 29  1  0  0  0  0
 13 30  1  0  0  0  0
 14 16  1  0  0  0  0
 14 31  1  0  0  0  0
 14 32  1  0  0  0  0
 15 33  1  0  0  0  0
 15 34  1  0  0  0  0
 15 35  1  0  0  0  0
 16 17  1  0  0  0  0
 16 36  1  0  0  0  0
 16 37  1  0  0  0  0
 17 18  1  0  0  0  0
 17 38  1  0  0  0  0
 17 39  1  0  0  0  0
 18 20  1  0  0  0  0
 18 40  1  0  0  0  0
 18 41  1  0  0  0  0
 19 21  1  0  0  0  0
 19 42  1  0  0  0  0
 19 43  1  0  0  0  0
 20 22  1  0  0  0  0
 20 44  1  0  0  0  0
 20 45  1  0  0  0  0
 21 24  1  0  0  0  0
 21 46  1  0  0  0  0
 22 23  1  0  0  0  0
 22 47  1  0  0  0  0
 22 48  1  0  0  0  0
 23 49  1  0  0  0  0
 23 50  1  0  0  0  0
 23 51  1  0  0  0  0
M  END
> <PUBCHEM_COMPOUND_CID>
512839
> <PUBCHEM_COMPOUND_CANONICALIZED>
1
> <PUBCHEM_CACTVS_COMPLEXITY>
458
> <PUBCHEM_CACTVS_HBOND_ACCEPTOR>
6
> <PUBCHEM_CACTVS_HBOND_DONOR>
2
> <PUBCHEM_CACTVS_ROTATABLE_BOND>
12
> <PUBCHEM_CACTVS_SUBSKEYS>
AAADceB7OABAAAAAAAAAAAAAAAAAAWAAAAAAAAAAAAAAAAAAAAAAHgQQCAAADCjFwASCCANAAggIAAGQGAAAAAAAABAAAIGIAAACABIggAAEQAAAFiCgAAEVgIAIAAAAAAAAAAAAAAAAAAAAAAAAAAAAAA==
> <PUBCHEM_IUPAC_OPENEYE_NAME>
2-amino-3-(3-methyl-1-nonyl-2,5-dioxo-pyrrolidin-3-yl)sulfanyl-propanoic acid
> <PUBCHEM_IUPAC_CAS_NAME>
2-amino-3-[(3-methyl-1-nonyl-2,5-dioxo-3-pyrrolidinyl)thio]propanoic acid
> <PUBCHEM_IUPAC_NAME_MARKUP>
2-amino-3-(3-methyl-1-nonyl-2,5-dioxopyrrolidin-3-yl)sulfanylpropanoic acid
> <PUBCHEM_IUPAC_NAME>
2-amino-3-(3-methyl-1-nonyl-2,5-dioxopyrrolidin-3-yl)sulfanylpropanoic acid
> <PUBCHEM_IUPAC_SYSTEMATIC_NAME>
2-azanyl-3-[3-methyl-1-nonyl-2,5-bis(oxidanylidene)pyrrolidin-3-yl]sulfanyl-propanoic acid
> <PUBCHEM_IUPAC_TRADITIONAL_NAME>
2-amino-3-[(2,5-diketo-3-methyl-1-nonyl-pyrrolidin-3-yl)thio]propionic acid
> <PUBCHEM_IUPAC_INCHI>
InChI=1S/C17H30N2O4S/c1-3-4-5-6-7-8-9-10-19-14(20)11-17(2,16(19)23)24-12-13(18)15(21)22/h13H,3-12,18H2,1-2H3,(H,21,22)
> <PUBCHEM_IUPAC_INCHIKEY>
HTGHPRKOXYTMNC-UHFFFAOYSA-N
> <PUBCHEM_XLOGP3_AA>
0.5
> <PUBCHEM_EXACT_MASS>
358.19262862
> <PUBCHEM_MOLECULAR_FORMULA>
C17H30N2O4S
> <PUBCHEM_MOLECULAR_WEIGHT>
358.5
> <PUBCHEM_OPENEYE_CAN_SMILES>
CCCCCCCCCN1C(=O)CC(C1=O)(C)SCC(C(=O)O)N
> <PUBCHEM_OPENEYE_ISO_SMILES>
CCCCCCCCCN1C(=O)CC(C1=O)(C)SCC(C(=O)O)N
> <PUBCHEM_CACTVS_TPSA>
126
> <PUBCHEM_MONOISOTOPIC_WEIGHT>
358.19262862
> <PUBCHEM_TOTAL_CHARGE>
0
> <PUBCHEM_HEAVY_ATOM_COUNT>
24
> <PUBCHEM_ATOM_DEF_STEREO_COUNT>
0
> <PUBCHEM_ATOM_UDEF_STEREO_COUNT>
2
> <PUBCHEM_BOND_DEF_STEREO_COUNT>
0
> <PUBCHEM_BOND_UDEF_STEREO_COUNT>
0
> <PUBCHEM_ISOTOPIC_ATOM_COUNT>
0
> <PUBCHEM_COMPONENT_COUNT>
1
> <PUBCHEM_CACTVS_TAUTO_COUNT>
-1
> <PUBCHEM_COORDINATE_TYPE>
1
5
255
> <PUBCHEM_BONDANNOTATIONS>
21  7  3
8  15  3
$$$$
