512868
  -OEChem-10302200282D
 71 73  0     1  0  0  0  0  0999 V2000
    6.3520    2.3481    0.0000 O   0  0  0  0  0  0  0  0  0  0  0  0
    4.6200   -0.6519    0.0000 O   0  0  0  0  0  0  0  0  0  0  0  0
    4.6200    2.3481    0.0000 O   0  0  0  0  0  0  0  0  0  0  0  0
    4.6200    1.3481    0.0000 O   0  0  0  0  0  0  0  0  0  0  0  0
    6.3520    4.3481    0.0000 O   0  0  0  0  0  0  0  0  0  0  0  0
    2.7540    3.8481    0.0000 O   0  0  0  0  0  0  0  0  0  0  0  0
    4.6200   -2.3840    0.0000 O   0  0  0  0  0  0  0  0  0  0  0  0
    8.0841    1.3481    0.0000 N   0  0  0  0  0  0  0  0  0  0  0  0
    6.8521   -1.5179    0.0000 N   0  0  0  0  0  0  0  0  0  0  0  0
    4.6200    5.3481    0.0000 N   0  0  0  0  0  0  0  0  0  0  0  0
    2.6200   -0.6519    0.0000 N   0  0  0  0  0  0  0  0  0  0  0  0
    4.1200   -4.9820    0.0000 N   0  0  0  0  0  0  0  0  0  0  0  0
    6.3520    1.3481    0.0000 C   0  0  2  0  0  0  0  0  0  0  0  0
    5.4860   -0.1519    0.0000 C   0  0  1  0  0  0  0  0  0  0  0  0
    5.4860    0.8481    0.0000 C   0  0  2  0  0  0  0  0  0  0  0  0
    7.2181    0.8481    0.0000 C   0  0  1  0  0  0  0  0  0  0  0  0
    6.3520   -0.6519    0.0000 C   0  0  2  0  0  0  0  0  0  0  0  0
    7.2181   -0.1519    0.0000 C   0  0  0  0  0  0  0  0  0  0  0  0
    5.4860    2.8481    0.0000 C   0  0  1  0  0  0  0  0  0  0  0  0
    4.6200    4.3481    0.0000 C   0  0  2  0  0  0  0  0  0  0  0  0
    5.4860    3.8481    0.0000 C   0  0  1  0  0  0  0  0  0  0  0  0
    3.7540    3.8481    0.0000 C   0  0  2  0  0  0  0  0  0  0  0  0
    3.7540    2.8481    0.0000 C   0  0  0  0  0  0  0  0  0  0  0  0
    4.1201   -1.5180    0.0000 C   0  0  1  0  0  0  0  0  0  0  0  0
    3.2540    4.7141    0.0000 C   0  0  0  0  0  0  0  0  0  0  0  0
    3.1200   -1.5180    0.0000 C   0  0  1  0  0  0  0  0  0  0  0  0
    2.6200   -2.3840    0.0000 C   0  0  0  0  0  0  0  0  0  0  0  0
    5.4860    5.8481    0.0000 C   0  0  0  0  0  0  0  0  0  0  0  0
    4.1200   -3.2500    0.0000 C   0  0  0  0  0  0  0  0  0  0  0  0
    3.1201   -3.2500    0.0000 C   0  0  0  0  0  0  0  0  0  0  0  0
    4.6200   -4.1160    0.0000 C   0  0  0  0  0  0  0  0  0  0  0  0
    4.6200   -5.8481    0.0000 C   0  0  0  0  0  0  0  0  0  0  0  0
    6.8890    1.6581    0.0000 H   0  0  0  0  0  0  0  0  0  0  0  0
    5.4860   -0.7719    0.0000 H   0  0  0  0  0  0  0  0  0  0  0  0
    5.4860    1.4681    0.0000 H   0  0  0  0  0  0  0  0  0  0  0  0
    7.7550    0.5381    0.0000 H   0  0  0  0  0  0  0  0  0  0  0  0
    5.9137   -1.0904    0.0000 H   0  0  0  0  0  0  0  0  0  0  0  0
    7.4301   -0.7345    0.0000 H   0  0  0  0  0  0  0  0  0  0  0  0
    7.8287   -0.0443    0.0000 H   0  0  0  0  0  0  0  0  0  0  0  0
    5.4860    2.2281    0.0000 H   0  0  0  0  0  0  0  0  0  0  0  0
    4.0831    4.6581    0.0000 H   0  0  0  0  0  0  0  0  0  0  0  0
    6.0230    3.5381    0.0000 H   0  0  0  0  0  0  0  0  0  0  0  0
    3.1434    2.9557    0.0000 H   0  0  0  0  0  0  0  0  0  0  0  0
    3.5419    2.2655    0.0000 H   0  0  0  0  0  0  0  0  0  0  0  0
    8.6210    1.0381    0.0000 H   0  0  0  0  0  0  0  0  0  0  0  0
    8.0841    1.9681    0.0000 H   0  0  0  0  0  0  0  0  0  0  0  0
    7.4720   -1.5180    0.0000 H   0  0  0  0  0  0  0  0  0  0  0  0
    6.5421   -2.0549    0.0000 H   0  0  0  0  0  0  0  0  0  0  0  0
    3.8101   -0.9811    0.0000 H   0  0  0  0  0  0  0  0  0  0  0  0
    4.0831    1.0381    0.0000 H   0  0  0  0  0  0  0  0  0  0  0  0
    3.7909    5.0241    0.0000 H   0  0  0  0  0  0  0  0  0  0  0  0
    2.9440    5.2510    0.0000 H   0  0  0  0  0  0  0  0  0  0  0  0
    2.7170    4.4041    0.0000 H   0  0  0  0  0  0  0  0  0  0  0  0
    4.0831    5.6581    0.0000 H   0  0  0  0  0  0  0  0  0  0  0  0
    2.5000   -1.5180    0.0000 H   0  0  0  0  0  0  0  0  0  0  0  0
    6.8890    4.0381    0.0000 H   0  0  0  0  0  0  0  0  0  0  0  0
    2.4440    3.3111    0.0000 H   0  0  0  0  0  0  0  0  0  0  0  0
    2.1451   -1.9855    0.0000 H   0  0  0  0  0  0  0  0  0  0  0  0
    2.1451   -2.7826    0.0000 H   0  0  0  0  0  0  0  0  0  0  0  0
    5.7960    5.3111    0.0000 H   0  0  0  0  0  0  0  0  0  0  0  0
    6.0230    6.1581    0.0000 H   0  0  0  0  0  0  0  0  0  0  0  0
    5.1760    6.3850    0.0000 H   0  0  0  0  0  0  0  0  0  0  0  0
    2.8101   -3.7870    0.0000 H   0  0  0  0  0  0  0  0  0  0  0  0
    2.0000   -0.6519    0.0000 H   0  0  0  0  0  0  0  0  0  0  0  0
    2.9300   -0.1149    0.0000 H   0  0  0  0  0  0  0  0  0  0  0  0
    5.0950   -4.5146    0.0000 H   0  0  0  0  0  0  0  0  0  0  0  0
    5.0950   -3.7175    0.0000 H   0  0  0  0  0  0  0  0  0  0  0  0
    3.5000   -4.9820    0.0000 H   0  0  0  0  0  0  0  0  0  0  0  0
    4.0831   -6.1581    0.0000 H   0  0  0  0  0  0  0  0  0  0  0  0
    4.9300   -6.3850    0.0000 H   0  0  0  0  0  0  0  0  0  0  0  0
    5.1569   -5.5381    0.0000 H   0  0  0  0  0  0  0  0  0  0  0  0
 13  1  1  1  0  0  0
 19  1  1  1  0  0  0
 14  2  1  1  0  0  0
 24  2  1  1  0  0  0
  3 19  1  0  0  0  0
  3 23  1  0  0  0  0
 15  4  1  6  0  0  0
  4 50  1  0  0  0  0
 21  5  1  1  0  0  0
  5 56  1  0  0  0  0
 22  6  1  6  0  0  0
  6 57  1  0  0  0  0
  7 24  1  0  0  0  0
  7 29  1  0  0  0  0
 16  8  1  6  0  0  0
  8 45  1  0  0  0  0
  8 46  1  0  0  0  0
 17  9  1  6  0  0  0
  9 47  1  0  0  0  0
  9 48  1  0  0  0  0
 20 10  1  6  0  0  0
 10 28  1  0  0  0  0
 10 54  1  0  0  0  0
 26 11  1  1  0  0  0
 11 64  1  0  0  0  0
 11 65  1  0  0  0  0
 12 31  1  0  0  0  0
 12 32  1  0  0  0  0
 12 68  1  0  0  0  0
 13 15  1  0  0  0  0
 13 16  1  0  0  0  0
 13 33  1  0  0  0  0
 14 15  1  0  0  0  0
 14 17  1  0  0  0  0
 14 34  1  0  0  0  0
 15 35  1  0  0  0  0
 16 18  1  0  0  0  0
 16 36  1  0  0  0  0
 17 18  1  0  0  0  0
 17 37  1  0  0  0  0
 18 38  1  0  0  0  0
 18 39  1  0  0  0  0
 19 21  1  0  0  0  0
 19 40  1  0  0  0  0
 20 21  1  0  0  0  0
 20 22  1  0  0  0  0
 20 41  1  0  0  0  0
 21 42  1  0  0  0  0
 22 23  1  0  0  0  0
 22 25  1  0  0  0  0
 23 43  1  0  0  0  0
 23 44  1  0  0  0  0
 24 26  1  0  0  0  0
 24 49  1  0  0  0  0
 25 51  1  0  0  0  0
 25 52  1  0  0  0  0
 25 53  1  0  0  0  0
 26 27  1  0  0  0  0
 26 55  1  0  0  0  0
 27 30  1  0  0  0  0
 27 58  1  0  0  0  0
 27 59  1  0  0  0  0
 28 60  1  0  0  0  0
 28 61  1  0  0  0  0
 28 62  1  0  0  0  0
 29 30  2  0  0  0  0
 29 31  1  0  0  0  0
 30 63  1  0  0  0  0
 31 66  1  0  0  0  0
 31 67  1  0  0  0  0
 32 69  1  0  0  0  0
 32 70  1  0  0  0  0
 32 71  1  0  0  0  0
M  END
> <PUBCHEM_COMPOUND_CID>
512868
> <PUBCHEM_COMPOUND_CANONICALIZED>
1
> <PUBCHEM_CACTVS_COMPLEXITY>
658
> <PUBCHEM_CACTVS_HBOND_ACCEPTOR>
12
> <PUBCHEM_CACTVS_HBOND_DONOR>
8
> <PUBCHEM_CACTVS_ROTATABLE_BOND>
7
> <PUBCHEM_CACTVS_SUBSKEYS>
AAADcfB7uAAAAAAAAAAAAAAAAAAAAAAAAAA0QIAAAAAAAAAAAAAAHgAQCAAADHzxgAcCCALABgCAACBCAACACAAgIAAACIAIAAgTEAIAwQAnQAAHkAAfAAPwcA0MAAAAAAAAAAAAgAAUCACgAAAAAAAAAA==
> <PUBCHEM_IUPAC_OPENEYE_NAME>
(2R,3R,4R,5R)-2-[(1S,2S,3R,4S,6R)-4,6-diamino-3-[[(2S,3R)-3-amino-6-(methylaminomethyl)-3,4-dihydro-2H-pyran-2-yl]oxy]-2-hydroxy-cyclohexoxy]-5-methyl-4-(methylamino)tetrahydropyran-3,5-diol
> <PUBCHEM_IUPAC_CAS_NAME>
(2R,3R,4R,5R)-2-[(1S,2S,3R,4S,6R)-4,6-diamino-3-[[(2S,3R)-3-amino-6-(methylaminomethyl)-3,4-dihydro-2H-pyran-2-yl]oxy]-2-hydroxycyclohexyl]oxy-5-methyl-4-(methylamino)oxane-3,5-diol
> <PUBCHEM_IUPAC_NAME_MARKUP>
(2<I>R</I>,3<I>R</I>,4<I>R</I>,5<I>R</I>)-2-[(1<I>S</I>,2<I>S</I>,3<I>R</I>,4<I>S</I>,6<I>R</I>)-4,6-diamino-3-[[(2<I>S</I>,3<I>R</I>)-3-amino-6-(methylaminomethyl)-3,4-dihydro-2<I>H</I>-pyran-2-yl]oxy]-2-hydroxycyclohexyl]oxy-5-methyl-4-(methylamino)oxane-3,5-diol
> <PUBCHEM_IUPAC_NAME>
(2R,3R,4R,5R)-2-[(1S,2S,3R,4S,6R)-4,6-diamino-3-[[(2S,3R)-3-amino-6-(methylaminomethyl)-3,4-dihydro-2H-pyran-2-yl]oxy]-2-hydroxycyclohexyl]oxy-5-methyl-4-(methylamino)oxane-3,5-diol
> <PUBCHEM_IUPAC_SYSTEMATIC_NAME>
(2R,3R,4R,5R)-2-[(1S,2S,3R,4S,6R)-4,6-bis(azanyl)-3-[[(2S,3R)-3-azanyl-6-(methylaminomethyl)-3,4-dihydro-2H-pyran-2-yl]oxy]-2-oxidanyl-cyclohexyl]oxy-5-methyl-4-(methylamino)oxane-3,5-diol
> <PUBCHEM_IUPAC_TRADITIONAL_NAME>
(2R,3R,4R,5R)-2-[(1S,2S,3R,4S,6R)-4,6-diamino-3-[[(2S,3R)-3-amino-6-(methylaminomethyl)-3,4-dihydro-2H-pyran-2-yl]oxy]-2-hydroxy-cyclohexoxy]-5-methyl-4-(methylamino)tetrahydropyran-3,5-diol
> <PUBCHEM_IUPAC_INCHI>
InChI=1S/C20H39N5O7/c1-20(28)8-29-19(14(27)17(20)25-3)32-16-12(23)6-11(22)15(13(16)26)31-18-10(21)5-4-9(30-18)7-24-2/h4,10-19,24-28H,5-8,21-23H2,1-3H3/t10-,11+,12-,13+,14-,15-,16+,17-,18-,19-,20+/m1/s1
> <PUBCHEM_IUPAC_INCHIKEY>
ARCVBMPERJRMKB-CPIRLDNISA-N
> <PUBCHEM_XLOGP3_AA>
-4.6
> <PUBCHEM_EXACT_MASS>
461.28494860
> <PUBCHEM_MOLECULAR_FORMULA>
C20H39N5O7
> <PUBCHEM_MOLECULAR_WEIGHT>
461.6
> <PUBCHEM_OPENEYE_CAN_SMILES>
CC1(COC(C(C1NC)O)OC2C(CC(C(C2O)OC3C(CC=C(O3)CNC)N)N)N)O
> <PUBCHEM_OPENEYE_ISO_SMILES>
C[C@@]1(CO[C@@H]([C@@H]([C@H]1NC)O)O[C@H]2[C@@H](C[C@@H]([C@H]([C@@H]2O)O[C@@H]3[C@@H](CC=C(O3)CNC)N)N)N)O
> <PUBCHEM_CACTVS_TPSA>
200
> <PUBCHEM_MONOISOTOPIC_WEIGHT>
461.28494860
> <PUBCHEM_TOTAL_CHARGE>
0
> <PUBCHEM_HEAVY_ATOM_COUNT>
32
> <PUBCHEM_ATOM_DEF_STEREO_COUNT>
11
> <PUBCHEM_ATOM_UDEF_STEREO_COUNT>
0
> <PUBCHEM_BOND_DEF_STEREO_COUNT>
0
> <PUBCHEM_BOND_UDEF_STEREO_COUNT>
0
> <PUBCHEM_ISOTOPIC_ATOM_COUNT>
0
> <PUBCHEM_COMPONENT_COUNT>
1
> <PUBCHEM_CACTVS_TAUTO_COUNT>
-1
> <PUBCHEM_COORDINATE_TYPE>
1
5
255
> <PUBCHEM_BONDANNOTATIONS>
13  1  5
19  1  5
20  10  6
26  11  5
14  2  5
24  2  5
15  4  6
21  5  5
22  6  6
16  8  6
17  9  6
$$$$
