512872
  -OEChem-10302200282D
109112  0     1  0  0  0  0  0999 V2000
   13.7953   -0.4038    0.0000 O   0  0  0  0  0  0  0  0  0  0  0  0
   12.0632   -0.4038    0.0000 O   0  0  0  0  0  0  0  0  0  0  0  0
   10.3312   -2.4038    0.0000 O   0  0  0  0  0  0  0  0  0  0  0  0
   12.0632    0.5962    0.0000 O   0  0  0  0  0  0  0  0  0  0  0  0
   15.5273    0.5962    0.0000 O   0  0  0  0  0  0  0  0  0  0  0  0
   13.7953    3.5962    0.0000 O   0  0  0  0  0  0  0  0  0  0  0  0
   12.0632    2.5962    0.0000 O   0  0  0  0  0  0  0  0  0  0  0  0
   11.1972   -3.9038    0.0000 O   0  0  0  0  0  0  0  0  0  0  0  0
   13.7953   -2.4038    0.0000 O   0  0  0  0  0  0  0  0  0  0  0  0
   12.0632   -3.4038    0.0000 O   0  0  0  0  0  0  0  0  0  0  0  0
    8.5991   -5.4038    0.0000 O   0  0  0  0  0  0  0  0  0  0  0  0
   10.3312   -6.4038    0.0000 O   0  0  0  0  0  0  0  0  0  0  0  0
    9.4651   -0.9038    0.0000 O   0  0  0  0  0  0  0  0  0  0  0  0
   14.6613    4.0962    0.0000 O   0  0  0  0  0  0  0  0  0  0  0  0
   12.9292   -4.9038    0.0000 O   0  0  0  0  0  0  0  0  0  0  0  0
   10.3312    0.5962    0.0000 O   0  0  0  0  0  0  0  0  0  0  0  0
    7.7331   -4.9038    0.0000 O   0  0  0  0  0  0  0  0  0  0  0  0
   15.5273    2.5962    0.0000 N   0  0  0  0  0  0  0  0  0  0  0  0
    8.5991   -3.4038    0.0000 N   0  0  0  0  0  0  0  0  0  0  0  0
   16.4979    5.0907    0.0000 N   0  0  0  0  0  0  0  0  0  0  0  0
   10.6972    1.9622    0.0000 N   0  0  0  0  0  0  0  0  0  0  0  0
    6.0010   -3.9038    0.0000 N   0  0  0  0  0  0  0  0  0  0  0  0
   17.8828    6.2122    0.0000 N   0  0  0  0  0  0  0  0  0  0  0  0
    4.2690   -1.9038    0.0000 N   0  0  0  0  0  0  0  0  0  0  0  0
    2.5369   -1.9038    0.0000 N   0  0  0  0  0  0  0  0  0  0  0  0
    3.4030   -3.4038    0.0000 N   0  0  0  0  0  0  0  0  0  0  0  0
   13.7953    0.5962    0.0000 C   0  0  2  0  0  0  0  0  0  0  0  0
   14.6613    2.0962    0.0000 C   0  0  2  0  0  0  0  0  0  0  0  0
   14.6613    1.0962    0.0000 C   0  0  2  0  0  0  0  0  0  0  0  0
   12.9292    1.0962    0.0000 C   0  0  1  0  0  0  0  0  0  0  0  0
   13.7953    2.5962    0.0000 C   0  0  2  0  0  0  0  0  0  0  0  0
   12.9292    2.0962    0.0000 C   0  0  2  0  0  0  0  0  0  0  0  0
   12.9292   -0.9038    0.0000 C   0  0  2  0  0  0  0  0  0  0  0  0
   11.1972   -1.9038    0.0000 C   0  0  1  0  0  0  0  0  0  0  0  0
   12.9292   -1.9038    0.0000 C   0  0  2  0  0  0  0  0  0  0  0  0
   12.0632   -2.4038    0.0000 C   0  0  1  0  0  0  0  0  0  0  0  0
   11.1972   -0.9038    0.0000 C   0  0  1  0  0  0  0  0  0  0  0  0
   10.3312   -3.4038    0.0000 C   0  0  1  0  0  0  0  0  0  0  0  0
    9.4651   -3.9038    0.0000 C   0  0  1  0  0  0  0  0  0  0  0  0
    9.4651   -4.9038    0.0000 C   0  0  2  0  0  0  0  0  0  0  0  0
   10.3312   -5.4038    0.0000 C   0  0  1  0  0  0  0  0  0  0  0  0
   11.1972   -4.9038    0.0000 C   0  0  1  0  0  0  0  0  0  0  0  0
   10.3312   -0.4038    0.0000 C   0  0  0  0  0  0  0  0  0  0  0  0
   15.5273    3.5962    0.0000 C   0  0  0  0  0  0  0  0  0  0  0  0
   16.3933    4.0962    0.0000 C   0  0  2  0  0  0  0  0  0  0  0  0
   12.0632   -5.4038    0.0000 C   0  0  0  0  0  0  0  0  0  0  0  0
   11.1972    1.0962    0.0000 C   0  0  0  0  0  0  0  0  0  0  0  0
   17.3069    3.6895    0.0000 C   0  0  0  0  0  0  0  0  0  0  0  0
    7.7331   -3.9038    0.0000 C   0  0  0  0  0  0  0  0  0  0  0  0
   17.9760    4.4326    0.0000 C   0  0  0  0  0  0  0  0  0  0  0  0
    6.8671   -3.4038    0.0000 C   0  0  2  0  0  0  0  0  0  0  0  0
   17.4760    5.2986    0.0000 C   0  0  0  0  0  0  0  0  0  0  0  0
    6.8671   -2.4038    0.0000 C   0  0  0  0  0  0  0  0  0  0  0  0
    6.0010   -1.9038    0.0000 C   0  0  0  0  0  0  0  0  0  0  0  0
    5.1350   -2.4038    0.0000 C   0  0  0  0  0  0  0  0  0  0  0  0
    3.4030   -2.4038    0.0000 C   0  0  0  0  0  0  0  0  0  0  0  0
   14.3322    0.2862    0.0000 H   0  0  0  0  0  0  0  0  0  0  0  0
   15.1982    1.7862    0.0000 H   0  0  0  0  0  0  0  0  0  0  0  0
   15.1982    1.4062    0.0000 H   0  0  0  0  0  0  0  0  0  0  0  0
   12.3923    1.4062    0.0000 H   0  0  0  0  0  0  0  0  0  0  0  0
   14.3322    2.9062    0.0000 H   0  0  0  0  0  0  0  0  0  0  0  0
   12.9292    2.7162    0.0000 H   0  0  0  0  0  0  0  0  0  0  0  0
   12.9292   -0.2838    0.0000 H   0  0  0  0  0  0  0  0  0  0  0  0
   11.1972   -2.5238    0.0000 H   0  0  0  0  0  0  0  0  0  0  0  0
   12.9292   -2.5238    0.0000 H   0  0  0  0  0  0  0  0  0  0  0  0
   11.5263   -2.7138    0.0000 H   0  0  0  0  0  0  0  0  0  0  0  0
   11.1972   -0.2838    0.0000 H   0  0  0  0  0  0  0  0  0  0  0  0
    9.7942   -3.0938    0.0000 H   0  0  0  0  0  0  0  0  0  0  0  0
   16.0643    2.2862    0.0000 H   0  0  0  0  0  0  0  0  0  0  0  0
    9.4651   -3.2838    0.0000 H   0  0  0  0  0  0  0  0  0  0  0  0
    8.9282   -4.5938    0.0000 H   0  0  0  0  0  0  0  0  0  0  0  0
    9.7942   -5.7138    0.0000 H   0  0  0  0  0  0  0  0  0  0  0  0
   11.7341   -4.5938    0.0000 H   0  0  0  0  0  0  0  0  0  0  0  0
   15.5273   -0.0238    0.0000 H   0  0  0  0  0  0  0  0  0  0  0  0
   10.7297    0.0712    0.0000 H   0  0  0  0  0  0  0  0  0  0  0  0
    9.9326    0.0712    0.0000 H   0  0  0  0  0  0  0  0  0  0  0  0
   13.2583    3.9062    0.0000 H   0  0  0  0  0  0  0  0  0  0  0  0
   12.0632    3.2162    0.0000 H   0  0  0  0  0  0  0  0  0  0  0  0
   14.3322   -2.0938    0.0000 H   0  0  0  0  0  0  0  0  0  0  0  0
   12.6002   -3.7138    0.0000 H   0  0  0  0  0  0  0  0  0  0  0  0
    8.5991   -2.7838    0.0000 H   0  0  0  0  0  0  0  0  0  0  0  0
   15.8734    4.4339    0.0000 H   0  0  0  0  0  0  0  0  0  0  0  0
   11.6647   -5.8787    0.0000 H   0  0  0  0  0  0  0  0  0  0  0  0
   12.4617   -5.8787    0.0000 H   0  0  0  0  0  0  0  0  0  0  0  0
   16.9969    3.1525    0.0000 H   0  0  0  0  0  0  0  0  0  0  0  0
   17.8085    3.3250    0.0000 H   0  0  0  0  0  0  0  0  0  0  0  0
    8.5991   -6.0238    0.0000 H   0  0  0  0  0  0  0  0  0  0  0  0
   10.8681   -6.7138    0.0000 H   0  0  0  0  0  0  0  0  0  0  0  0
    8.9282   -0.5938    0.0000 H   0  0  0  0  0  0  0  0  0  0  0  0
   18.3909    3.9719    0.0000 H   0  0  0  0  0  0  0  0  0  0  0  0
   18.4776    4.7970    0.0000 H   0  0  0  0  0  0  0  0  0  0  0  0
    6.3301   -3.0938    0.0000 H   0  0  0  0  0  0  0  0  0  0  0  0
   13.4662   -5.2138    0.0000 H   0  0  0  0  0  0  0  0  0  0  0  0
   10.0772    1.9622    0.0000 H   0  0  0  0  0  0  0  0  0  0  0  0
   11.0072    2.4992    0.0000 H   0  0  0  0  0  0  0  0  0  0  0  0
    7.4776   -2.5114    0.0000 H   0  0  0  0  0  0  0  0  0  0  0  0
    7.0791   -1.8212    0.0000 H   0  0  0  0  0  0  0  0  0  0  0  0
    5.4641   -3.5938    0.0000 H   0  0  0  0  0  0  0  0  0  0  0  0
    6.0010   -4.5238    0.0000 H   0  0  0  0  0  0  0  0  0  0  0  0
    6.3996   -1.4288    0.0000 H   0  0  0  0  0  0  0  0  0  0  0  0
    5.6025   -1.4288    0.0000 H   0  0  0  0  0  0  0  0  0  0  0  0
   18.4994    6.2770    0.0000 H   0  0  0  0  0  0  0  0  0  0  0  0
   17.5183    6.7138    0.0000 H   0  0  0  0  0  0  0  0  0  0  0  0
    4.7365   -2.8787    0.0000 H   0  0  0  0  0  0  0  0  0  0  0  0
    5.5335   -2.8787    0.0000 H   0  0  0  0  0  0  0  0  0  0  0  0
    2.0000   -2.2138    0.0000 H   0  0  0  0  0  0  0  0  0  0  0  0
    2.5369   -1.2838    0.0000 H   0  0  0  0  0  0  0  0  0  0  0  0
    2.8660   -3.7138    0.0000 H   0  0  0  0  0  0  0  0  0  0  0  0
    3.9399   -3.7138    0.0000 H   0  0  0  0  0  0  0  0  0  0  0  0
 27  1  1  1  0  0  0
 33  1  1  1  0  0  0
  2 33  1  0  0  0  0
  2 37  1  0  0  0  0
 34  3  1  6  0  0  0
 38  3  1  1  0  0  0
 30  4  1  6  0  0  0
  4 47  1  0  0  0  0
 29  5  1  6  0  0  0
  5 74  1  0  0  0  0
 31  6  1  6  0  0  0
  6 77  1  0  0  0  0
 32  7  1  1  0  0  0
  7 78  1  0  0  0  0
  8 38  1  0  0  0  0
  8 42  1  0  0  0  0
 35  9  1  1  0  0  0
  9 79  1  0  0  0  0
 36 10  1  1  0  0  0
 10 80  1  0  0  0  0
 40 11  1  6  0  0  0
 11 87  1  0  0  0  0
 41 12  1  1  0  0  0
 12 88  1  0  0  0  0
 13 43  1  0  0  0  0
 13 89  1  0  0  0  0
 14 44  2  0  0  0  0
 15 46  1  0  0  0  0
 15 93  1  0  0  0  0
 16 47  2  0  0  0  0
 17 49  2  0  0  0  0
 28 18  1  6  0  0  0
 18 44  1  0  0  0  0
 18 69  1  0  0  0  0
 39 19  1  1  0  0  0
 19 49  1  0  0  0  0
 19 81  1  0  0  0  0
 20 45  1  0  0  0  0
 20 52  2  0  0  0  0
 21 47  1  0  0  0  0
 21 94  1  0  0  0  0
 21 95  1  0  0  0  0
 51 22  1  1  0  0  0
 22 98  1  0  0  0  0
 22 99  1  0  0  0  0
 23 52  1  0  0  0  0
 23102  1  0  0  0  0
 23103  1  0  0  0  0
 24 55  1  0  0  0  0
 24 56  2  0  0  0  0
 25 56  1  0  0  0  0
 25106  1  0  0  0  0
 25107  1  0  0  0  0
 26 56  1  0  0  0  0
 26108  1  0  0  0  0
 26109  1  0  0  0  0
 27 29  1  0  0  0  0
 27 30  1  0  0  0  0
 27 57  1  0  0  0  0
 28 29  1  0  0  0  0
 28 31  1  0  0  0  0
 28 58  1  0  0  0  0
 29 59  1  0  0  0  0
 30 32  1  0  0  0  0
 30 60  1  0  0  0  0
 31 32  1  0  0  0  0
 31 61  1  0  0  0  0
 32 62  1  0  0  0  0
 33 35  1  0  0  0  0
 33 63  1  0  0  0  0
 34 36  1  0  0  0  0
 34 37  1  0  0  0  0
 34 64  1  0  0  0  0
 35 36  1  0  0  0  0
 35 65  1  0  0  0  0
 36 66  1  0  0  0  0
 37 43  1  1  0  0  0
 37 67  1  0  0  0  0
 38 39  1  0  0  0  0
 38 68  1  0  0  0  0
 39 40  1  0  0  0  0
 39 70  1  0  0  0  0
 40 41  1  0  0  0  0
 40 71  1  0  0  0  0
 41 42  1  0  0  0  0
 41 72  1  0  0  0  0
 42 46  1  6  0  0  0
 42 73  1  0  0  0  0
 43 75  1  0  0  0  0
 43 76  1  0  0  0  0
 45 44  1  1  0  0  0
 45 48  1  0  0  0  0
 45 82  1  0  0  0  0
 46 83  1  0  0  0  0
 46 84  1  0  0  0  0
 48 50  1  0  0  0  0
 48 85  1  0  0  0  0
 48 86  1  0  0  0  0
 49 51  1  0  0  0  0
 50 52  1  0  0  0  0
 50 90  1  0  0  0  0
 50 91  1  0  0  0  0
 51 53  1  0  0  0  0
 51 92  1  0  0  0  0
 53 54  1  0  0  0  0
 53 96  1  0  0  0  0
 53 97  1  0  0  0  0
 54 55  1  0  0  0  0
 54100  1  0  0  0  0
 54101  1  0  0  0  0
 55104  1  0  0  0  0
 55105  1  0  0  0  0
M  END
> <PUBCHEM_COMPOUND_CID>
512872
> <PUBCHEM_COMPOUND_CANONICALIZED>
1
> <PUBCHEM_CACTVS_COMPLEXITY>
1410
> <PUBCHEM_CACTVS_HBOND_ACCEPTOR>
20
> <PUBCHEM_CACTVS_HBOND_DONOR>
16
> <PUBCHEM_CACTVS_ROTATABLE_BOND>
16
> <PUBCHEM_CACTVS_SUBSKEYS>
AAADcfB7/gAAAAAAAAAAAAAAAAAAAQAAAAA0SIAAAAAAAAAAAAAAHgAQCAAACDzxgAcBCALABgAoAAMwPAAAAAEAAAAAAIG4AAETUBIAgAA/QAAHFgCXAAH4cQ8AAAAAAAAAAAACgAAUAACgAAAAAAAAAA==
> <PUBCHEM_IUPAC_OPENEYE_NAME>
[(1R,2R,3S,4S,5R,6S)-4-[[(2S)-5-amino-3,4-dihydro-2H-pyrrole-2-carbonyl]amino]-2-[(2S,3S,4R,5S,6R)-5-[(2R,3R,4R,5S,6R)-3-[[(2S)-2-amino-5-guanidino-pentanoyl]amino]-4,5-dihydroxy-6-(hydroxymethyl)tetrahydropyran-2-yl]oxy-3,4-dihydroxy-6-(hydroxymethyl)tetrahydropyran-2-yl]oxy-3,5,6-trihydroxy-cyclohexyl] carbamate
> <PUBCHEM_IUPAC_CAS_NAME>
carbamic acid [(1R,2R,3S,4S,5R,6S)-2-[[(2S,3S,4R,5S,6R)-5-[[(2R,3R,4R,5S,6R)-3-[[(2S)-2-amino-5-(diaminomethylideneamino)-1-oxopentyl]amino]-4,5-dihydroxy-6-(hydroxymethyl)-2-oxanyl]oxy]-3,4-dihydroxy-6-(hydroxymethyl)-2-oxanyl]oxy]-4-[[[(2S)-5-amino-3,4-dihydro-2H-pyrrol-2-yl]-oxomethyl]amino]-3,5,6-trihydroxycyclohexyl] ester
> <PUBCHEM_IUPAC_NAME_MARKUP>
[(1<I>R</I>,2<I>R</I>,3<I>S</I>,4<I>S</I>,5<I>R</I>,6<I>S</I>)-2-[(2<I>S</I>,3<I>S</I>,4<I>R</I>,5<I>S</I>,6<I>R</I>)-5-[(2<I>R</I>,3<I>R</I>,4<I>R</I>,5<I>S</I>,6<I>R</I>)-3-[[(2<I>S</I>)-2-amino-5-(diaminomethylideneamino)pentanoyl]amino]-4,5-dihydroxy-6-(hydroxymethyl)oxan-2-yl]oxy-3,4-dihydroxy-6-(hydroxymethyl)oxan-2-yl]oxy-4-[[(2<I>S</I>)-5-amino-3,4-dihydro-2<I>H</I>-pyrrole-2-carbonyl]amino]-3,5,6-trihydroxycyclohexyl] carbamate
> <PUBCHEM_IUPAC_NAME>
[(1R,2R,3S,4S,5R,6S)-2-[(2S,3S,4R,5S,6R)-5-[(2R,3R,4R,5S,6R)-3-[[(2S)-2-amino-5-(diaminomethylideneamino)pentanoyl]amino]-4,5-dihydroxy-6-(hydroxymethyl)oxan-2-yl]oxy-3,4-dihydroxy-6-(hydroxymethyl)oxan-2-yl]oxy-4-[[(2S)-5-amino-3,4-dihydro-2H-pyrrole-2-carbonyl]amino]-3,5,6-trihydroxycyclohexyl] carbamate
> <PUBCHEM_IUPAC_SYSTEMATIC_NAME>
[(1R,2R,3S,4S,5R,6S)-2-[(2S,3S,4R,5S,6R)-5-[(2R,3R,4R,5S,6R)-3-[[(2S)-2-azanyl-5-[bis(azanyl)methylideneamino]pentanoyl]amino]-6-(hydroxymethyl)-4,5-bis(oxidanyl)oxan-2-yl]oxy-6-(hydroxymethyl)-3,4-bis(oxidanyl)oxan-2-yl]oxy-4-[[(2S)-5-azanyl-3,4-dihydro-2H-pyrrol-2-yl]carbonylamino]-3,5,6-tris(oxidanyl)cyclohexyl] carbamate
> <PUBCHEM_IUPAC_TRADITIONAL_NAME>
carbamic acid [(1R,2R,3S,4S,5R,6S)-2-[(2S,3S,4R,5S,6R)-5-[(2R,3R,4R,5S,6R)-3-[[(2S)-2-amino-5-guanidino-pentanoyl]amino]-4,5-dihydroxy-6-methylol-tetrahydropyran-2-yl]oxy-3,4-dihydroxy-6-methylol-tetrahydropyran-2-yl]oxy-4-[[(2S)-5-amino-1-pyrroline-2-carbonyl]amino]-3,5,6-trihydroxy-cyclohexyl] ester
> <PUBCHEM_IUPAC_INCHI>
InChI=1S/C30H53N9O17/c31-8(2-1-5-36-29(33)34)25(49)39-14-17(44)15(42)10(6-40)52-27(14)54-22-11(7-41)53-28(21(48)20(22)47)55-23-18(45)13(16(43)19(46)24(23)56-30(35)51)38-26(50)9-3-4-12(32)37-9/h8-11,13-24,27-28,40-48H,1-7,31H2,(H2,32,37)(H2,35,51)(H,38,50)(H,39,49)(H4,33,34,36)/t8-,9-,10+,11+,13-,14+,15+,16+,17+,18-,19-,20+,21-,22+,23+,24+,27+,28-/m0/s1
> <PUBCHEM_IUPAC_INCHIKEY>
PCABPYAXRZVJKF-DTUAAXDISA-N
> <PUBCHEM_XLOGP3_AA>
-10
> <PUBCHEM_EXACT_MASS>
811.35594126
> <PUBCHEM_MOLECULAR_FORMULA>
C30H53N9O17
> <PUBCHEM_MOLECULAR_WEIGHT>
811.8
> <PUBCHEM_OPENEYE_CAN_SMILES>
C1CC(=NC1C(=O)NC2C(C(C(C(C2O)OC3C(C(C(C(O3)CO)OC4C(C(C(C(O4)CO)O)O)NC(=O)C(CCCN=C(N)N)N)O)O)OC(=O)N)O)O)N
> <PUBCHEM_OPENEYE_ISO_SMILES>
C1CC(=N[C@@H]1C(=O)N[C@H]2[C@H]([C@@H]([C@H]([C@@H]([C@H]2O)O[C@H]3[C@H]([C@H]([C@@H]([C@H](O3)CO)O[C@@H]4[C@@H]([C@H]([C@@H]([C@H](O4)CO)O)O)NC(=O)[C@H](CCCN=C(N)N)N)O)O)OC(=O)N)O)O)N
> <PUBCHEM_CACTVS_TPSA>
458
> <PUBCHEM_MONOISOTOPIC_WEIGHT>
811.35594126
> <PUBCHEM_TOTAL_CHARGE>
0
> <PUBCHEM_HEAVY_ATOM_COUNT>
56
> <PUBCHEM_ATOM_DEF_STEREO_COUNT>
18
> <PUBCHEM_ATOM_UDEF_STEREO_COUNT>
0
> <PUBCHEM_BOND_DEF_STEREO_COUNT>
0
> <PUBCHEM_BOND_UDEF_STEREO_COUNT>
0
> <PUBCHEM_ISOTOPIC_ATOM_COUNT>
0
> <PUBCHEM_COMPONENT_COUNT>
1
> <PUBCHEM_CACTVS_TAUTO_COUNT>
48
> <PUBCHEM_COORDINATE_TYPE>
1
5
255
> <PUBCHEM_BONDANNOTATIONS>
27  1  5
33  1  5
36  10  5
40  11  6
41  12  5
28  18  6
39  19  5
51  22  5
34  3  6
38  3  5
37  43  5
30  4  6
42  46  6
45  44  5
29  5  6
31  6  6
32  7  5
35  9  5
$$$$
