512888
  -OEChem-10302200282D
 84 89  0     1  0  0  0  0  0999 V2000
   10.5568   -4.8535    0.0000 F   0  0  0  0  0  0  0  0  0  0  0  0
    2.5664   -2.2761    0.0000 O   0  0  0  0  0  0  0  0  0  0  0  0
    3.2709   -3.8584    0.0000 O   0  0  0  0  0  0  0  0  0  0  0  0
    5.6902   -3.4752    0.0000 N   0  0  3  0  0  0  0  0  0  0  0  0
    8.1389   -1.6388    0.0000 N   0  0  0  0  0  0  0  0  0  0  0  0
    7.3299    1.9490    0.0000 N   0  0  0  0  0  0  0  0  0  0  0  0
    7.6389    2.9001    0.0000 N   0  0  0  0  0  0  0  0  0  0  0  0
    4.2890   -2.4571    0.0000 C   0  0  0  0  0  0  0  0  0  0  0  0
    7.2729   -3.1388    0.0000 C   0  0  2  0  0  0  0  0  0  0  0  0
    7.1684   -4.1333    0.0000 C   0  0  2  0  0  0  0  0  0  0  0  0
    4.6957   -3.3707    0.0000 C   0  0  0  0  0  0  0  0  0  0  0  0
    6.3594   -2.7320    0.0000 C   0  0  0  0  0  0  0  0  0  0  0  0
    3.8822   -1.5436    0.0000 C   0  0  0  0  0  0  0  0  0  0  0  0
    5.2025   -2.0504    0.0000 C   0  0  0  0  0  0  0  0  0  0  0  0
    6.1902   -4.3412    0.0000 C   0  0  0  0  0  0  0  0  0  0  0  0
    4.7958   -1.1368    0.0000 C   0  0  0  0  0  0  0  0  0  0  0  0
    8.1389   -2.6388    0.0000 C   0  0  0  0  0  0  0  0  0  0  0  0
    3.3754   -2.8638    0.0000 C   0  0  0  0  0  0  0  0  0  0  0  0
    7.9115   -4.8024    0.0000 C   0  0  0  0  0  0  0  0  0  0  0  0
    7.2729   -1.1388    0.0000 C   0  0  0  0  0  0  0  0  0  0  0  0
    9.0049   -1.1388    0.0000 C   0  0  0  0  0  0  0  0  0  0  0  0
    8.1389    0.3612    0.0000 C   0  0  0  0  0  0  0  0  0  0  0  0
    7.2729   -0.1388    0.0000 C   0  0  0  0  0  0  0  0  0  0  0  0
    9.0049   -0.1388    0.0000 C   0  0  0  0  0  0  0  0  0  0  0  0
    8.8626   -4.4934    0.0000 C   0  0  0  0  0  0  0  0  0  0  0  0
    7.7036   -5.7806    0.0000 C   0  0  0  0  0  0  0  0  0  0  0  0
    8.1389    1.3612    0.0000 C   0  0  0  0  0  0  0  0  0  0  0  0
    9.6057   -5.1626    0.0000 C   0  0  0  0  0  0  0  0  0  0  0  0
    8.4467   -6.4497    0.0000 C   0  0  0  0  0  0  0  0  0  0  0  0
    8.9479    1.9490    0.0000 C   0  0  0  0  0  0  0  0  0  0  0  0
    9.3978   -6.1407    0.0000 C   0  0  0  0  0  0  0  0  0  0  0  0
    8.6389    2.9001    0.0000 C   0  0  0  0  0  0  0  0  0  0  0  0
    6.3788    1.6400    0.0000 C   0  0  0  0  0  0  0  0  0  0  0  0
    9.2267    3.7091    0.0000 C   0  0  0  0  0  0  0  0  0  0  0  0
    5.6357    2.3091    0.0000 C   0  0  0  0  0  0  0  0  0  0  0  0
    8.8200    4.6226    0.0000 C   0  0  0  0  0  0  0  0  0  0  0  0
    7.8254    4.7272    0.0000 C   0  0  0  0  0  0  0  0  0  0  0  0
    9.4078    5.4316    0.0000 C   0  0  0  0  0  0  0  0  0  0  0  0
    7.4187    5.6407    0.0000 C   0  0  0  0  0  0  0  0  0  0  0  0
    9.0010    6.3452    0.0000 C   0  0  0  0  0  0  0  0  0  0  0  0
    8.0065    6.4497    0.0000 C   0  0  0  0  0  0  0  0  0  0  0  0
    7.2404   -2.5196    0.0000 H   0  0  0  0  0  0  0  0  0  0  0  0
    7.7472   -3.9111    0.0000 H   0  0  0  0  0  0  0  0  0  0  0  0
    4.0941   -3.5206    0.0000 H   0  0  0  0  0  0  0  0  0  0  0  0
    4.7390   -3.9892    0.0000 H   0  0  0  0  0  0  0  0  0  0  0  0
    6.6694   -2.1951    0.0000 H   0  0  0  0  0  0  0  0  0  0  0  0
    5.8578   -2.3676    0.0000 H   0  0  0  0  0  0  0  0  0  0  0  0
    3.6300   -0.9772    0.0000 H   0  0  0  0  0  0  0  0  0  0  0  0
    3.3158   -1.7958    0.0000 H   0  0  0  0  0  0  0  0  0  0  0  0
    5.4547   -2.6168    0.0000 H   0  0  0  0  0  0  0  0  0  0  0  0
    5.7689   -1.7982    0.0000 H   0  0  0  0  0  0  0  0  0  0  0  0
    5.6238   -4.5934    0.0000 H   0  0  0  0  0  0  0  0  0  0  0  0
    6.3818   -4.9309    0.0000 H   0  0  0  0  0  0  0  0  0  0  0  0
    5.3622   -0.8847    0.0000 H   0  0  0  0  0  0  0  0  0  0  0  0
    4.5436   -0.5704    0.0000 H   0  0  0  0  0  0  0  0  0  0  0  0
    8.3510   -3.2214    0.0000 H   0  0  0  0  0  0  0  0  0  0  0  0
    8.7495   -2.5311    0.0000 H   0  0  0  0  0  0  0  0  0  0  0  0
    6.6623   -1.0311    0.0000 H   0  0  0  0  0  0  0  0  0  0  0  0
    7.0608   -1.7214    0.0000 H   0  0  0  0  0  0  0  0  0  0  0  0
    9.2170   -1.7214    0.0000 H   0  0  0  0  0  0  0  0  0  0  0  0
    9.6155   -1.0311    0.0000 H   0  0  0  0  0  0  0  0  0  0  0  0
    8.6759    0.6712    0.0000 H   0  0  0  0  0  0  0  0  0  0  0  0
    7.0608    0.4438    0.0000 H   0  0  0  0  0  0  0  0  0  0  0  0
    6.6623   -0.2464    0.0000 H   0  0  0  0  0  0  0  0  0  0  0  0
    9.6155   -0.2464    0.0000 H   0  0  0  0  0  0  0  0  0  0  0  0
    9.2170    0.4438    0.0000 H   0  0  0  0  0  0  0  0  0  0  0  0
    8.9915   -3.8870    0.0000 H   0  0  0  0  0  0  0  0  0  0  0  0
    7.1140   -5.9722    0.0000 H   0  0  0  0  0  0  0  0  0  0  0  0
    2.0000   -2.5282    0.0000 H   0  0  0  0  0  0  0  0  0  0  0  0
    8.3178   -7.0562    0.0000 H   0  0  0  0  0  0  0  0  0  0  0  0
    9.5376    1.7574    0.0000 H   0  0  0  0  0  0  0  0  0  0  0  0
    9.8585   -6.5556    0.0000 H   0  0  0  0  0  0  0  0  0  0  0  0
    5.8903    1.2583    0.0000 H   0  0  0  0  0  0  0  0  0  0  0  0
    6.6699    1.0926    0.0000 H   0  0  0  0  0  0  0  0  0  0  0  0
    9.6574    3.2631    0.0000 H   0  0  0  0  0  0  0  0  0  0  0  0
    9.7407    4.0558    0.0000 H   0  0  0  0  0  0  0  0  0  0  0  0
    6.0506    2.7699    0.0000 H   0  0  0  0  0  0  0  0  0  0  0  0
    5.1750    2.7240    0.0000 H   0  0  0  0  0  0  0  0  0  0  0  0
    5.2208    1.8484    0.0000 H   0  0  0  0  0  0  0  0  0  0  0  0
    7.4610    4.2256    0.0000 H   0  0  0  0  0  0  0  0  0  0  0  0
   10.0244    5.3668    0.0000 H   0  0  0  0  0  0  0  0  0  0  0  0
    6.8021    5.7055    0.0000 H   0  0  0  0  0  0  0  0  0  0  0  0
    9.3654    6.8468    0.0000 H   0  0  0  0  0  0  0  0  0  0  0  0
    7.7543    7.0161    0.0000 H   0  0  0  0  0  0  0  0  0  0  0  0
  1 28  1  0  0  0  0
  2 18  1  0  0  0  0
  2 69  1  0  0  0  0
  3 18  2  0  0  0  0
  4 11  1  0  0  0  0
  4 12  1  0  0  0  0
  4 15  1  0  0  0  0
  5 17  1  0  0  0  0
  5 20  1  0  0  0  0
  5 21  1  0  0  0  0
  6  7  1  0  0  0  0
  6 27  1  0  0  0  0
  6 33  1  0  0  0  0
  7 32  2  0  0  0  0
  8 11  1  0  0  0  0
  8 13  1  0  0  0  0
  8 14  1  0  0  0  0
  8 18  1  0  0  0  0
  9 10  1  0  0  0  0
  9 12  1  0  0  0  0
  9 17  1  6  0  0  0
  9 42  1  0  0  0  0
 10 15  1  0  0  0  0
 10 19  1  1  0  0  0
 10 43  1  0  0  0  0
 11 44  1  0  0  0  0
 11 45  1  0  0  0  0
 12 46  1  0  0  0  0
 12 47  1  0  0  0  0
 13 16  1  0  0  0  0
 13 48  1  0  0  0  0
 13 49  1  0  0  0  0
 14 16  1  0  0  0  0
 14 50  1  0  0  0  0
 14 51  1  0  0  0  0
 15 52  1  0  0  0  0
 15 53  1  0  0  0  0
 16 54  1  0  0  0  0
 16 55  1  0  0  0  0
 17 56  1  0  0  0  0
 17 57  1  0  0  0  0
 19 25  2  0  0  0  0
 19 26  1  0  0  0  0
 20 23  1  0  0  0  0
 20 58  1  0  0  0  0
 20 59  1  0  0  0  0
 21 24  1  0  0  0  0
 21 60  1  0  0  0  0
 21 61  1  0  0  0  0
 22 23  1  0  0  0  0
 22 24  1  0  0  0  0
 22 27  1  0  0  0  0
 22 62  1  0  0  0  0
 23 63  1  0  0  0  0
 23 64  1  0  0  0  0
 24 65  1  0  0  0  0
 24 66  1  0  0  0  0
 25 28  1  0  0  0  0
 25 67  1  0  0  0  0
 26 29  2  0  0  0  0
 26 68  1  0  0  0  0
 27 30  2  0  0  0  0
 28 31  2  0  0  0  0
 29 31  1  0  0  0  0
 29 70  1  0  0  0  0
 30 32  1  0  0  0  0
 30 71  1  0  0  0  0
 31 72  1  0  0  0  0
 32 34  1  0  0  0  0
 33 35  1  0  0  0  0
 33 73  1  0  0  0  0
 33 74  1  0  0  0  0
 34 36  1  0  0  0  0
 34 75  1  0  0  0  0
 34 76  1  0  0  0  0
 35 77  1  0  0  0  0
 35 78  1  0  0  0  0
 35 79  1  0  0  0  0
 36 37  2  0  0  0  0
 36 38  1  0  0  0  0
 37 39  1  0  0  0  0
 37 80  1  0  0  0  0
 38 40  2  0  0  0  0
 38 81  1  0  0  0  0
 39 41  2  0  0  0  0
 39 82  1  0  0  0  0
 40 41  1  0  0  0  0
 40 83  1  0  0  0  0
 41 84  1  0  0  0  0
M  END
> <PUBCHEM_COMPOUND_CID>
512888
> <PUBCHEM_COMPOUND_CANONICALIZED>
1
> <PUBCHEM_CACTVS_COMPLEXITY>
856
> <PUBCHEM_CACTVS_HBOND_ACCEPTOR>
6
> <PUBCHEM_CACTVS_HBOND_DONOR>
1
> <PUBCHEM_CACTVS_ROTATABLE_BOND>
10
> <PUBCHEM_CACTVS_SUBSKEYS>
AAADcfB/sQAAAAAAAAAAAAAAAABgAWLAAAA8YIAAAAAAAAAB0AAAHwAICAAADwjBngwyiJMIAgCqAyTyTACSBAAhggAY2CE4ZJgIIDrA0dGE5AhmiADIyAeYgMAPgAAAAAAAAAAAAAAAAAAAAAAAAAAAAA==
> <PUBCHEM_IUPAC_OPENEYE_NAME>
1-[[(3S,4S)-3-[[4-(5-benzyl-2-ethyl-pyrazol-3-yl)-1-piperidyl]methyl]-4-(3-fluorophenyl)pyrrolidin-1-yl]methyl]cyclobutanecarboxylic acid
> <PUBCHEM_IUPAC_CAS_NAME>
1-[[(3S,4S)-3-[[4-[2-ethyl-5-(phenylmethyl)-3-pyrazolyl]-1-piperidinyl]methyl]-4-(3-fluorophenyl)-1-pyrrolidinyl]methyl]-1-cyclobutanecarboxylic acid
> <PUBCHEM_IUPAC_NAME_MARKUP>
1-[[(3<I>S</I>,4<I>S</I>)-3-[[4-(5-benzyl-2-ethylpyrazol-3-yl)piperidin-1-yl]methyl]-4-(3-fluorophenyl)pyrrolidin-1-yl]methyl]cyclobutane-1-carboxylic acid
> <PUBCHEM_IUPAC_NAME>
1-[[(3S,4S)-3-[[4-(5-benzyl-2-ethylpyrazol-3-yl)piperidin-1-yl]methyl]-4-(3-fluorophenyl)pyrrolidin-1-yl]methyl]cyclobutane-1-carboxylic acid
> <PUBCHEM_IUPAC_SYSTEMATIC_NAME>
1-[[(3S,4S)-3-[[4-[2-ethyl-5-(phenylmethyl)pyrazol-3-yl]piperidin-1-yl]methyl]-4-(3-fluorophenyl)pyrrolidin-1-yl]methyl]cyclobutane-1-carboxylic acid
> <PUBCHEM_IUPAC_TRADITIONAL_NAME>
1-[[(3S,4S)-3-[[4-(5-benzyl-2-ethyl-pyrazol-3-yl)piperidino]methyl]-4-(3-fluorophenyl)pyrrolidino]methyl]cyclobutanecarboxylic acid
> <PUBCHEM_IUPAC_INCHI>
InChI=1S/C34H43FN4O2/c1-2-39-32(20-30(36-39)18-25-8-4-3-5-9-25)26-12-16-37(17-13-26)21-28-22-38(24-34(33(40)41)14-7-15-34)23-31(28)27-10-6-11-29(35)19-27/h3-6,8-11,19-20,26,28,31H,2,7,12-18,21-24H2,1H3,(H,40,41)/t28-,31+/m0/s1
> <PUBCHEM_IUPAC_INCHIKEY>
BOZRZIUVLUUYGE-QCENPCRXSA-N
> <PUBCHEM_XLOGP3_AA>
3.1
> <PUBCHEM_EXACT_MASS>
558.33700479
> <PUBCHEM_MOLECULAR_FORMULA>
C34H43FN4O2
> <PUBCHEM_MOLECULAR_WEIGHT>
558.7
> <PUBCHEM_OPENEYE_CAN_SMILES>
CCN1C(=CC(=N1)CC2=CC=CC=C2)C3CCN(CC3)CC4CN(CC4C5=CC(=CC=C5)F)CC6(CCC6)C(=O)O
> <PUBCHEM_OPENEYE_ISO_SMILES>
CCN1C(=CC(=N1)CC2=CC=CC=C2)C3CCN(CC3)C[C@H]4CN(C[C@@H]4C5=CC(=CC=C5)F)CC6(CCC6)C(=O)O
> <PUBCHEM_CACTVS_TPSA>
61.6
> <PUBCHEM_MONOISOTOPIC_WEIGHT>
558.33700479
> <PUBCHEM_TOTAL_CHARGE>
0
> <PUBCHEM_HEAVY_ATOM_COUNT>
41
> <PUBCHEM_ATOM_DEF_STEREO_COUNT>
2
> <PUBCHEM_ATOM_UDEF_STEREO_COUNT>
0
> <PUBCHEM_BOND_DEF_STEREO_COUNT>
0
> <PUBCHEM_BOND_UDEF_STEREO_COUNT>
0
> <PUBCHEM_ISOTOPIC_ATOM_COUNT>
0
> <PUBCHEM_COMPONENT_COUNT>
1
> <PUBCHEM_CACTVS_TAUTO_COUNT>
-1
> <PUBCHEM_COORDINATE_TYPE>
1
5
255
> <PUBCHEM_BONDANNOTATIONS>
10  19  5
19  25  8
19  26  8
25  28  8
26  29  8
27  30  8
28  31  8
29  31  8
30  32  8
36  37  8
36  38  8
37  39  8
38  40  8
39  41  8
40  41  8
6  27  8
6  7  8
7  32  8
9  17  6
$$$$
