512866
  -OEChem-10302200282D
116118  0     1  0  0  0  0  0999 V2000
    6.3301   -1.0000    0.0000 O   0  0  0  0  0  0  0  0  0  0  0  0
    8.0622    2.0000    0.0000 O   0  0  0  0  0  0  0  0  0  0  0  0
    8.9282    0.5000    0.0000 O   0  0  0  0  0  0  0  0  0  0  0  0
    4.5981   -1.0000    0.0000 O   0  0  0  0  0  0  0  0  0  0  0  0
   11.6603    1.5000    0.0000 O   0  0  0  0  0  0  0  0  0  0  0  0
    5.4641    3.5000    0.0000 O   0  0  0  0  0  0  0  0  0  0  0  0
    6.3301   -3.0000    0.0000 O   0  0  0  0  0  0  0  0  0  0  0  0
   11.5263    0.0000    0.0000 O   0  0  0  0  0  0  0  0  0  0  0  0
    2.0000    3.5000    0.0000 O   0  0  0  0  0  0  0  0  0  0  0  0
    4.5981    2.0000    0.0000 O   0  0  0  0  0  0  0  0  0  0  0  0
    7.1962    3.5000    0.0000 O   0  0  0  0  0  0  0  0  0  0  0  0
    4.5981   -4.0000    0.0000 N   0  0  0  0  0  0  0  0  0  0  0  0
    6.3301    0.0000    0.0000 C   0  0  2  0  0  0  0  0  0  0  0  0
    7.1962    0.5000    0.0000 C   0  0  2  0  0  0  0  0  0  0  0  0
    5.4641    0.5000    0.0000 C   0  0  2  0  0  0  0  0  0  0  0  0
    7.1962    1.5000    0.0000 C   0  0  1  0  0  0  0  0  0  0  0  0
    4.5981    0.0000    0.0000 C   0  0  0  0  0  0  0  0  0  0  0  0
    6.3301    2.0000    0.0000 C   0  0  2  0  0  0  0  0  0  0  0  0
    5.4641   -1.5000    0.0000 C   0  0  2  0  0  0  0  0  0  0  0  0
   10.6603    1.5000    0.0000 C   0  0  2  0  0  0  0  0  0  0  0  0
    8.9282    1.5000    0.0000 C   0  0  2  0  0  0  0  0  0  0  0  0
    3.7320    0.5000    0.0000 C   0  0  2  0  0  0  0  0  0  0  0  0
    9.7942    2.0000    0.0000 C   0  0  0  0  0  0  0  0  0  0  0  0
    5.4641   -2.5000    0.0000 C   0  0  1  0  0  0  0  0  0  0  0  0
    4.5981   -3.0000    0.0000 C   0  0  2  0  0  0  0  0  0  0  0  0
    8.0622    0.0000    0.0000 C   0  0  0  0  0  0  0  0  0  0  0  0
   10.6603    0.5000    0.0000 C   0  0  2  0  0  0  0  0  0  0  0  0
    5.4641    1.5000    0.0000 C   0  0  0  0  0  0  0  0  0  0  0  0
    9.7942    0.0000    0.0000 C   0  0  2  0  0  0  0  0  0  0  0  0
    3.7320   -2.5000    0.0000 C   0  0  0  0  0  0  0  0  0  0  0  0
    3.7320   -1.5000    0.0000 C   0  0  1  0  0  0  0  0  0  0  0  0
    2.8660    2.0000    0.0000 C   0  0  2  0  0  0  0  0  0  0  0  0
    3.7320    3.5000    0.0000 C   0  0  2  0  0  0  0  0  0  0  0  0
    2.8660    3.0000    0.0000 C   0  0  2  0  0  0  0  0  0  0  0  0
    3.7320    1.5000    0.0000 C   0  0  0  0  0  0  0  0  0  0  0  0
    4.5981    3.0000    0.0000 C   0  0  1  0  0  0  0  0  0  0  0  0
    6.3301    3.0000    0.0000 C   0  0  0  0  0  0  0  0  0  0  0  0
    5.4641    2.5000    0.0000 C   0  0  0  0  0  0  0  0  0  0  0  0
   11.1603    2.3660    0.0000 C   0  0  0  0  0  0  0  0  0  0  0  0
    2.8660   -0.0000    0.0000 C   0  0  0  0  0  0  0  0  0  0  0  0
    9.7942   -1.0000    0.0000 C   0  0  0  0  0  0  0  0  0  0  0  0
    2.8660   -1.0000    0.0000 C   0  0  0  0  0  0  0  0  0  0  0  0
    2.0000    1.5000    0.0000 C   0  0  0  0  0  0  0  0  0  0  0  0
    3.9554    2.2339    0.0000 C   0  0  0  0  0  0  0  0  0  0  0  0
    3.7320    4.5000    0.0000 C   0  0  0  0  0  0  0  0  0  0  0  0
    3.7320   -4.5000    0.0000 C   0  0  0  0  0  0  0  0  0  0  0  0
    5.4641   -4.5000    0.0000 C   0  0  0  0  0  0  0  0  0  0  0  0
   12.1603    2.3660    0.0000 C   0  0  0  0  0  0  0  0  0  0  0  0
    4.2976    1.2942    0.0000 C   0  0  0  0  0  0  0  0  0  0  0  0
    6.8671   -0.3100    0.0000 H   0  0  0  0  0  0  0  0  0  0  0  0
    7.1962   -0.1200    0.0000 H   0  0  0  0  0  0  0  0  0  0  0  0
    4.9272    0.8100    0.0000 H   0  0  0  0  0  0  0  0  0  0  0  0
    7.7331    1.1900    0.0000 H   0  0  0  0  0  0  0  0  0  0  0  0
    4.1996   -0.4749    0.0000 H   0  0  0  0  0  0  0  0  0  0  0  0
    4.9966   -0.4749    0.0000 H   0  0  0  0  0  0  0  0  0  0  0  0
    6.0201    1.4631    0.0000 H   0  0  0  0  0  0  0  0  0  0  0  0
    5.4641   -0.8800    0.0000 H   0  0  0  0  0  0  0  0  0  0  0  0
    8.9282    2.1200    0.0000 H   0  0  0  0  0  0  0  0  0  0  0  0
    3.7320   -0.1200    0.0000 H   0  0  0  0  0  0  0  0  0  0  0  0
   10.1928    2.4750    0.0000 H   0  0  0  0  0  0  0  0  0  0  0  0
    9.3957    2.4750    0.0000 H   0  0  0  0  0  0  0  0  0  0  0  0
    5.4641   -3.1200    0.0000 H   0  0  0  0  0  0  0  0  0  0  0  0
    4.0611   -3.3100    0.0000 H   0  0  0  0  0  0  0  0  0  0  0  0
    7.7522   -0.5369    0.0000 H   0  0  0  0  0  0  0  0  0  0  0  0
    8.5991   -0.3100    0.0000 H   0  0  0  0  0  0  0  0  0  0  0  0
    8.3722    0.5369    0.0000 H   0  0  0  0  0  0  0  0  0  0  0  0
   11.1972    0.8100    0.0000 H   0  0  0  0  0  0  0  0  0  0  0  0
    6.0841    1.5000    0.0000 H   0  0  0  0  0  0  0  0  0  0  0  0
    5.4641    2.1200    0.0000 H   0  0  0  0  0  0  0  0  0  0  0  0
    4.8441    1.5000    0.0000 H   0  0  0  0  0  0  0  0  0  0  0  0
    9.2573   -0.3100    0.0000 H   0  0  0  0  0  0  0  0  0  0  0  0
    3.1215   -2.3923    0.0000 H   0  0  0  0  0  0  0  0  0  0  0  0
    3.5200   -3.0826    0.0000 H   0  0  0  0  0  0  0  0  0  0  0  0
    3.7320   -0.8800    0.0000 H   0  0  0  0  0  0  0  0  0  0  0  0
    2.8660    1.3800    0.0000 H   0  0  0  0  0  0  0  0  0  0  0  0
    4.2690    3.8100    0.0000 H   0  0  0  0  0  0  0  0  0  0  0  0
    2.8660    3.6200    0.0000 H   0  0  0  0  0  0  0  0  0  0  0  0
    4.9966    2.5251    0.0000 H   0  0  0  0  0  0  0  0  0  0  0  0
    5.7741    3.0370    0.0000 H   0  0  0  0  0  0  0  0  0  0  0  0
    4.9272    2.8100    0.0000 H   0  0  0  0  0  0  0  0  0  0  0  0
    5.1541    1.9631    0.0000 H   0  0  0  0  0  0  0  0  0  0  0  0
   11.6972    2.0560    0.0000 H   0  0  0  0  0  0  0  0  0  0  0  0
   11.4703    2.9030    0.0000 H   0  0  0  0  0  0  0  0  0  0  0  0
   10.6233    2.6760    0.0000 H   0  0  0  0  0  0  0  0  0  0  0  0
    2.5560    0.5369    0.0000 H   0  0  0  0  0  0  0  0  0  0  0  0
    2.3291   -0.3100    0.0000 H   0  0  0  0  0  0  0  0  0  0  0  0
    3.1760   -0.5369    0.0000 H   0  0  0  0  0  0  0  0  0  0  0  0
    9.1742   -1.0000    0.0000 H   0  0  0  0  0  0  0  0  0  0  0  0
    9.7942   -1.6200    0.0000 H   0  0  0  0  0  0  0  0  0  0  0  0
   10.4142   -1.0000    0.0000 H   0  0  0  0  0  0  0  0  0  0  0  0
    3.1760   -0.4631    0.0000 H   0  0  0  0  0  0  0  0  0  0  0  0
    2.3291   -0.6900    0.0000 H   0  0  0  0  0  0  0  0  0  0  0  0
    2.5560   -1.5369    0.0000 H   0  0  0  0  0  0  0  0  0  0  0  0
    1.6900    2.0369    0.0000 H   0  0  0  0  0  0  0  0  0  0  0  0
    1.4631    1.1900    0.0000 H   0  0  0  0  0  0  0  0  0  0  0  0
    2.3100    0.9631    0.0000 H   0  0  0  0  0  0  0  0  0  0  0  0
    3.5568    2.7088    0.0000 H   0  0  0  0  0  0  0  0  0  0  0  0
    3.4185    1.9238    0.0000 H   0  0  0  0  0  0  0  0  0  0  0  0
    4.3520    4.5000    0.0000 H   0  0  0  0  0  0  0  0  0  0  0  0
    3.7320    5.1200    0.0000 H   0  0  0  0  0  0  0  0  0  0  0  0
    3.1120    4.5000    0.0000 H   0  0  0  0  0  0  0  0  0  0  0  0
    6.8671   -2.6900    0.0000 H   0  0  0  0  0  0  0  0  0  0  0  0
   11.5263   -0.6200    0.0000 H   0  0  0  0  0  0  0  0  0  0  0  0
    3.4220   -3.9631    0.0000 H   0  0  0  0  0  0  0  0  0  0  0  0
    3.1951   -4.8100    0.0000 H   0  0  0  0  0  0  0  0  0  0  0  0
    4.0420   -5.0369    0.0000 H   0  0  0  0  0  0  0  0  0  0  0  0
    5.1541   -5.0369    0.0000 H   0  0  0  0  0  0  0  0  0  0  0  0
    6.0010   -4.8100    0.0000 H   0  0  0  0  0  0  0  0  0  0  0  0
    5.7741   -3.9631    0.0000 H   0  0  0  0  0  0  0  0  0  0  0  0
    2.0000    4.1200    0.0000 H   0  0  0  0  0  0  0  0  0  0  0  0
   12.6972    2.0560    0.0000 H   0  0  0  0  0  0  0  0  0  0  0  0
   12.4703    2.9030    0.0000 H   0  0  0  0  0  0  0  0  0  0  0  0
   11.6233    2.6760    0.0000 H   0  0  0  0  0  0  0  0  0  0  0  0
    3.7150    1.0820    0.0000 H   0  0  0  0  0  0  0  0  0  0  0  0
    4.5098    0.7116    0.0000 H   0  0  0  0  0  0  0  0  0  0  0  0
    4.8802    1.5064    0.0000 H   0  0  0  0  0  0  0  0  0  0  0  0
 13  1  1  1  0  0  0
 19  1  1  1  0  0  0
 16  2  1  1  0  0  0
 21  2  1  1  0  0  0
  3 21  1  0  0  0  0
  3 29  1  0  0  0  0
  4 19  1  0  0  0  0
  4 31  1  0  0  0  0
 20  5  1  1  0  0  0
  5 48  1  0  0  0  0
  6 36  1  0  0  0  0
  6 37  1  0  0  0  0
 24  7  1  6  0  0  0
  7102  1  0  0  0  0
 27  8  1  1  0  0  0
  8103  1  0  0  0  0
 34  9  1  1  0  0  0
  9110  1  0  0  0  0
 10 35  2  0  0  0  0
 11 37  2  0  0  0  0
 25 12  1  1  0  0  0
 12 46  1  0  0  0  0
 12 47  1  0  0  0  0
 13 14  1  0  0  0  0
 13 15  1  0  0  0  0
 13 50  1  0  0  0  0
 14 16  1  0  0  0  0
 14 26  1  6  0  0  0
 14 51  1  0  0  0  0
 15 17  1  0  0  0  0
 15 28  1  6  0  0  0
 15 52  1  0  0  0  0
 16 18  1  0  0  0  0
 16 53  1  0  0  0  0
 17 22  1  0  0  0  0
 17 54  1  0  0  0  0
 17 55  1  0  0  0  0
 18 37  1  0  0  0  0
 18 38  1  1  0  0  0
 18 56  1  0  0  0  0
 19 24  1  0  0  0  0
 19 57  1  0  0  0  0
 20 23  1  0  0  0  0
 20 27  1  0  0  0  0
 20 39  1  0  0  0  0
 21 23  1  0  0  0  0
 21 58  1  0  0  0  0
 22 35  1  0  0  0  0
 22 40  1  1  0  0  0
 22 59  1  0  0  0  0
 23 60  1  0  0  0  0
 23 61  1  0  0  0  0
 24 25  1  0  0  0  0
 24 62  1  0  0  0  0
 25 30  1  0  0  0  0
 25 63  1  0  0  0  0
 26 64  1  0  0  0  0
 26 65  1  0  0  0  0
 26 66  1  0  0  0  0
 27 29  1  0  0  0  0
 27 67  1  0  0  0  0
 28 68  1  0  0  0  0
 28 69  1  0  0  0  0
 28 70  1  0  0  0  0
 29 41  1  6  0  0  0
 29 71  1  0  0  0  0
 30 31  1  0  0  0  0
 30 72  1  0  0  0  0
 30 73  1  0  0  0  0
 31 42  1  1  0  0  0
 31 74  1  0  0  0  0
 32 34  1  0  0  0  0
 32 35  1  0  0  0  0
 32 43  1  6  0  0  0
 32 75  1  0  0  0  0
 33 34  1  0  0  0  0
 33 36  1  0  0  0  0
 33 45  1  1  0  0  0
 33 76  1  0  0  0  0
 34 77  1  0  0  0  0
 36 44  1  6  0  0  0
 36 78  1  0  0  0  0
 38 79  1  0  0  0  0
 38 80  1  0  0  0  0
 38 81  1  0  0  0  0
 39 82  1  0  0  0  0
 39 83  1  0  0  0  0
 39 84  1  0  0  0  0
 40 85  1  0  0  0  0
 40 86  1  0  0  0  0
 40 87  1  0  0  0  0
 41 88  1  0  0  0  0
 41 89  1  0  0  0  0
 41 90  1  0  0  0  0
 42 91  1  0  0  0  0
 42 92  1  0  0  0  0
 42 93  1  0  0  0  0
 43 94  1  0  0  0  0
 43 95  1  0  0  0  0
 43 96  1  0  0  0  0
 44 49  1  0  0  0  0
 44 97  1  0  0  0  0
 44 98  1  0  0  0  0
 45 99  1  0  0  0  0
 45100  1  0  0  0  0
 45101  1  0  0  0  0
 46104  1  0  0  0  0
 46105  1  0  0  0  0
 46106  1  0  0  0  0
 47107  1  0  0  0  0
 47108  1  0  0  0  0
 47109  1  0  0  0  0
 48111  1  0  0  0  0
 48112  1  0  0  0  0
 48113  1  0  0  0  0
 49114  1  0  0  0  0
 49115  1  0  0  0  0
 49116  1  0  0  0  0
M  END
> <PUBCHEM_COMPOUND_CID>
512866
> <PUBCHEM_COMPOUND_CANONICALIZED>
1
> <PUBCHEM_CACTVS_COMPLEXITY>
1080
> <PUBCHEM_CACTVS_HBOND_ACCEPTOR>
12
> <PUBCHEM_CACTVS_HBOND_DONOR>
3
> <PUBCHEM_CACTVS_ROTATABLE_BOND>
7
> <PUBCHEM_CACTVS_SUBSKEYS>
AAADcfB+PAAAAAAAAAAAAAAAAAAAAAAAAAAkSAAAAAAAAAAAAAAAHgAACAAADXzxgAcCCAMABgAIAICQCAAAAAAAAAAAAAEIAAATEBYAgAAmQAAHIAAXAAHI7OzOAAAAAAAAAAAAAAAAAAAAAAAAAAAAAA==
> <PUBCHEM_IUPAC_OPENEYE_NAME>
(3R,4S,5R,6S,7S,9R,11R,12S,13R,14R)-6-[(2S,3R,4S,6R)-4-(dimethylamino)-3-hydroxy-6-methyl-tetrahydropyran-2-yl]oxy-14-ethyl-12-hydroxy-4-[(2R,4R,5S,6S)-5-hydroxy-4-methoxy-4,6-dimethyl-tetrahydropyran-2-yl]oxy-3,5,7,9,11,13-hexamethyl-oxacyclotetradecane-2,10-dione
> <PUBCHEM_IUPAC_CAS_NAME>
(3R,4S,5R,6S,7S,9R,11R,12S,13R,14R)-6-[[(2S,3R,4S,6R)-4-(dimethylamino)-3-hydroxy-6-methyl-2-oxanyl]oxy]-14-ethyl-12-hydroxy-4-[[(2R,4R,5S,6S)-5-hydroxy-4-methoxy-4,6-dimethyl-2-oxanyl]oxy]-3,5,7,9,11,13-hexamethyl-oxacyclotetradecane-2,10-dione
> <PUBCHEM_IUPAC_NAME_MARKUP>
(3<I>R</I>,4<I>S</I>,5<I>R</I>,6<I>S</I>,7<I>S</I>,9<I>R</I>,11<I>R</I>,12<I>S</I>,13<I>R</I>,14<I>R</I>)-6-[(2<I>S</I>,3<I>R</I>,4<I>S</I>,6<I>R</I>)-4-(dimethylamino)-3-hydroxy-6-methyloxan-2-yl]oxy-14-ethyl-12-hydroxy-4-[(2<I>R</I>,4<I>R</I>,5<I>S</I>,6<I>S</I>)-5-hydroxy-4-methoxy-4,6-dimethyloxan-2-yl]oxy-3,5,7,9,11,13-hexamethyl-oxacyclotetradecane-2,10-dione
> <PUBCHEM_IUPAC_NAME>
(3R,4S,5R,6S,7S,9R,11R,12S,13R,14R)-6-[(2S,3R,4S,6R)-4-(dimethylamino)-3-hydroxy-6-methyloxan-2-yl]oxy-14-ethyl-12-hydroxy-4-[(2R,4R,5S,6S)-5-hydroxy-4-methoxy-4,6-dimethyloxan-2-yl]oxy-3,5,7,9,11,13-hexamethyl-oxacyclotetradecane-2,10-dione
> <PUBCHEM_IUPAC_SYSTEMATIC_NAME>
(3R,4S,5R,6S,7S,9R,11R,12S,13R,14R)-6-[(2S,3R,4S,6R)-4-(dimethylamino)-6-methyl-3-oxidanyl-oxan-2-yl]oxy-14-ethyl-4-[(2R,4R,5S,6S)-4-methoxy-4,6-dimethyl-5-oxidanyl-oxan-2-yl]oxy-3,5,7,9,11,13-hexamethyl-12-oxidanyl-1-oxacyclotetradecane-2,10-dione
> <PUBCHEM_IUPAC_TRADITIONAL_NAME>
(3R,4S,5R,6S,7S,9R,11R,12S,13R,14R)-6-[(2S,3R,4S,6R)-4-(dimethylamino)-3-hydroxy-6-methyl-tetrahydropyran-2-yl]oxy-14-ethyl-12-hydroxy-4-[(2R,4R,5S,6S)-5-hydroxy-4-methoxy-4,6-dimethyl-tetrahydropyran-2-yl]oxy-3,5,7,9,11,13-hexamethyl-oxacyclotetradecane-2,10-quinone
> <PUBCHEM_IUPAC_INCHI>
InChI=1S/C37H67NO11/c1-14-27-21(5)30(40)22(6)29(39)18(2)15-19(3)32(49-36-31(41)26(38(11)12)16-20(4)45-36)23(7)33(24(8)35(43)47-27)48-28-17-37(10,44-13)34(42)25(9)46-28/h18-28,30-34,36,40-42H,14-17H2,1-13H3/t18-,19+,20-,21+,22+,23-,24-,25+,26+,27-,28+,30+,31-,32+,33+,34+,36+,37-/m1/s1
> <PUBCHEM_IUPAC_INCHIKEY>
CCJRKCZGYOWSLF-QOSLQGEGSA-N
> <PUBCHEM_XLOGP3>
5.2
> <PUBCHEM_EXACT_MASS>
701.47141195
> <PUBCHEM_MOLECULAR_FORMULA>
C37H67NO11
> <PUBCHEM_MOLECULAR_WEIGHT>
701.9
> <PUBCHEM_OPENEYE_CAN_SMILES>
CCC1C(C(C(C(=O)C(CC(C(C(C(C(C(=O)O1)C)OC2CC(C(C(O2)C)O)(C)OC)C)OC3C(C(CC(O3)C)N(C)C)O)C)C)C)O)C
> <PUBCHEM_OPENEYE_ISO_SMILES>
CC[C@@H]1[C@@H]([C@@H]([C@H](C(=O)[C@@H](C[C@@H]([C@@H]([C@H]([C@@H]([C@H](C(=O)O1)C)O[C@H]2C[C@@]([C@H]([C@@H](O2)C)O)(C)OC)C)O[C@H]3[C@@H]([C@H](C[C@H](O3)C)N(C)C)O)C)C)C)O)C
> <PUBCHEM_CACTVS_TPSA>
153
> <PUBCHEM_MONOISOTOPIC_WEIGHT>
701.47141195
> <PUBCHEM_TOTAL_CHARGE>
0
> <PUBCHEM_HEAVY_ATOM_COUNT>
49
> <PUBCHEM_ATOM_DEF_STEREO_COUNT>
18
> <PUBCHEM_ATOM_UDEF_STEREO_COUNT>
0
> <PUBCHEM_BOND_DEF_STEREO_COUNT>
0
> <PUBCHEM_BOND_UDEF_STEREO_COUNT>
0
> <PUBCHEM_ISOTOPIC_ATOM_COUNT>
0
> <PUBCHEM_COMPONENT_COUNT>
1
> <PUBCHEM_CACTVS_TAUTO_COUNT>
-1
> <PUBCHEM_COORDINATE_TYPE>
1
5
255
> <PUBCHEM_BONDANNOTATIONS>
13  1  5
19  1  5
25  12  5
14  26  6
15  28  6
18  38  5
16  2  5
21  2  5
22  40  5
29  41  6
31  42  5
32  43  6
33  45  5
36  44  6
20  5  5
24  7  6
27  8  5
34  9  5
$$$$
