512886
  -OEChem-10302200282D
 86 90  0     1  0  0  0  0  0999 V2000
    8.3298   -6.9388    0.0000 F   0  0  0  0  0  0  0  0  0  0  0  0
    2.6166   -4.3951    0.0000 O   0  0  0  0  0  0  0  0  0  0  0  0
    2.7976   -2.6725    0.0000 O   0  0  0  0  0  0  0  0  0  0  0  0
    5.7812   -2.9861    0.0000 N   0  0  3  0  0  0  0  0  0  0  0  0
    8.2299   -1.1497    0.0000 N   0  0  0  0  0  0  0  0  0  0  0  0
    7.4209    2.4381    0.0000 N   0  0  0  0  0  0  0  0  0  0  0  0
    7.7299    3.3891    0.0000 N   0  0  0  0  0  0  0  0  0  0  0  0
    7.3639   -2.6497    0.0000 C   0  0  2  0  0  0  0  0  0  0  0  0
    7.2594   -3.6442    0.0000 C   0  0  2  0  0  0  0  0  0  0  0  0
    6.4504   -2.2430    0.0000 C   0  0  0  0  0  0  0  0  0  0  0  0
    6.2812   -3.8521    0.0000 C   0  0  0  0  0  0  0  0  0  0  0  0
    8.2299   -2.1497    0.0000 C   0  0  0  0  0  0  0  0  0  0  0  0
    7.3639   -0.6497    0.0000 C   0  0  0  0  0  0  0  0  0  0  0  0
    9.0959   -0.6497    0.0000 C   0  0  0  0  0  0  0  0  0  0  0  0
    8.2299    0.8503    0.0000 C   0  0  0  0  0  0  0  0  0  0  0  0
    4.7867   -2.8816    0.0000 C   0  0  0  0  0  0  0  0  0  0  0  0
    8.0025   -4.3134    0.0000 C   0  0  0  0  0  0  0  0  0  0  0  0
    7.3639    0.3503    0.0000 C   0  0  0  0  0  0  0  0  0  0  0  0
    9.0959    0.3503    0.0000 C   0  0  0  0  0  0  0  0  0  0  0  0
    4.1989   -3.6906    0.0000 C   0  0  3  0  0  0  0  0  0  0  0  0
    8.2299    1.8503    0.0000 C   0  0  0  0  0  0  0  0  0  0  0  0
    7.7946   -5.2915    0.0000 C   0  0  0  0  0  0  0  0  0  0  0  0
    8.9536   -4.0043    0.0000 C   0  0  0  0  0  0  0  0  0  0  0  0
    4.6056   -4.6042    0.0000 C   0  0  0  0  0  0  0  0  0  0  0  0
    3.2044   -3.5861    0.0000 C   0  0  0  0  0  0  0  0  0  0  0  0
    9.0389    2.4381    0.0000 C   0  0  0  0  0  0  0  0  0  0  0  0
    4.0179   -5.4132    0.0000 C   0  0  0  0  0  0  0  0  0  0  0  0
    8.5377   -5.9606    0.0000 C   0  0  0  0  0  0  0  0  0  0  0  0
    9.6967   -4.6735    0.0000 C   0  0  0  0  0  0  0  0  0  0  0  0
    8.7299    3.3891    0.0000 C   0  0  0  0  0  0  0  0  0  0  0  0
    6.4698    2.1291    0.0000 C   0  0  0  0  0  0  0  0  0  0  0  0
    9.4888   -5.6516    0.0000 C   0  0  0  0  0  0  0  0  0  0  0  0
    4.4246   -6.3267    0.0000 C   0  0  0  0  0  0  0  0  0  0  0  0
    9.3177    4.1982    0.0000 C   0  0  0  0  0  0  0  0  0  0  0  0
    5.7267    2.7982    0.0000 C   0  0  0  0  0  0  0  0  0  0  0  0
    8.9110    5.1117    0.0000 C   0  0  0  0  0  0  0  0  0  0  0  0
    7.9164    5.2162    0.0000 C   0  0  0  0  0  0  0  0  0  0  0  0
    9.4988    5.9207    0.0000 C   0  0  0  0  0  0  0  0  0  0  0  0
    7.5097    6.1298    0.0000 C   0  0  0  0  0  0  0  0  0  0  0  0
    9.0920    6.8343    0.0000 C   0  0  0  0  0  0  0  0  0  0  0  0
    8.0975    6.9388    0.0000 C   0  0  0  0  0  0  0  0  0  0  0  0
    7.8839   -2.9874    0.0000 H   0  0  0  0  0  0  0  0  0  0  0  0
    7.8382   -3.4220    0.0000 H   0  0  0  0  0  0  0  0  0  0  0  0
    6.7604   -1.7060    0.0000 H   0  0  0  0  0  0  0  0  0  0  0  0
    5.9488   -1.8785    0.0000 H   0  0  0  0  0  0  0  0  0  0  0  0
    5.7148   -4.1043    0.0000 H   0  0  0  0  0  0  0  0  0  0  0  0
    6.4728   -4.4418    0.0000 H   0  0  0  0  0  0  0  0  0  0  0  0
    8.4420   -2.7323    0.0000 H   0  0  0  0  0  0  0  0  0  0  0  0
    8.8405   -2.0420    0.0000 H   0  0  0  0  0  0  0  0  0  0  0  0
    6.7533   -0.5420    0.0000 H   0  0  0  0  0  0  0  0  0  0  0  0
    7.1518   -1.2323    0.0000 H   0  0  0  0  0  0  0  0  0  0  0  0
    9.3080   -1.2323    0.0000 H   0  0  0  0  0  0  0  0  0  0  0  0
    9.7065   -0.5420    0.0000 H   0  0  0  0  0  0  0  0  0  0  0  0
    8.7669    1.1603    0.0000 H   0  0  0  0  0  0  0  0  0  0  0  0
    4.9576   -2.2856    0.0000 H   0  0  0  0  0  0  0  0  0  0  0  0
    4.2294   -2.6098    0.0000 H   0  0  0  0  0  0  0  0  0  0  0  0
    7.1518    0.9329    0.0000 H   0  0  0  0  0  0  0  0  0  0  0  0
    6.7533    0.2426    0.0000 H   0  0  0  0  0  0  0  0  0  0  0  0
    9.7065    0.2426    0.0000 H   0  0  0  0  0  0  0  0  0  0  0  0
    9.3080    0.9329    0.0000 H   0  0  0  0  0  0  0  0  0  0  0  0
    3.8345   -4.1922    0.0000 H   0  0  0  0  0  0  0  0  0  0  0  0
    7.2049   -5.4831    0.0000 H   0  0  0  0  0  0  0  0  0  0  0  0
    9.0825   -3.3979    0.0000 H   0  0  0  0  0  0  0  0  0  0  0  0
    5.0363   -5.0501    0.0000 H   0  0  0  0  0  0  0  0  0  0  0  0
    5.1196   -4.2575    0.0000 H   0  0  0  0  0  0  0  0  0  0  0  0
    9.6286    2.2465    0.0000 H   0  0  0  0  0  0  0  0  0  0  0  0
    3.5872   -4.9672    0.0000 H   0  0  0  0  0  0  0  0  0  0  0  0
    3.5039   -5.7599    0.0000 H   0  0  0  0  0  0  0  0  0  0  0  0
   10.2864   -4.4819    0.0000 H   0  0  0  0  0  0  0  0  0  0  0  0
    5.9813    1.7474    0.0000 H   0  0  0  0  0  0  0  0  0  0  0  0
    6.7609    1.5816    0.0000 H   0  0  0  0  0  0  0  0  0  0  0  0
    9.9496   -6.0665    0.0000 H   0  0  0  0  0  0  0  0  0  0  0  0
    3.8582   -6.5789    0.0000 H   0  0  0  0  0  0  0  0  0  0  0  0
    4.6768   -6.8931    0.0000 H   0  0  0  0  0  0  0  0  0  0  0  0
    4.9910   -6.0745    0.0000 H   0  0  0  0  0  0  0  0  0  0  0  0
    9.7484    3.7522    0.0000 H   0  0  0  0  0  0  0  0  0  0  0  0
    9.8317    4.5448    0.0000 H   0  0  0  0  0  0  0  0  0  0  0  0
    2.0000   -4.3303    0.0000 H   0  0  0  0  0  0  0  0  0  0  0  0
    6.1416    3.2589    0.0000 H   0  0  0  0  0  0  0  0  0  0  0  0
    5.2660    3.2130    0.0000 H   0  0  0  0  0  0  0  0  0  0  0  0
    5.3118    2.3374    0.0000 H   0  0  0  0  0  0  0  0  0  0  0  0
    7.5520    4.7146    0.0000 H   0  0  0  0  0  0  0  0  0  0  0  0
   10.1154    5.8559    0.0000 H   0  0  0  0  0  0  0  0  0  0  0  0
    6.8931    6.1946    0.0000 H   0  0  0  0  0  0  0  0  0  0  0  0
    9.4564    7.3358    0.0000 H   0  0  0  0  0  0  0  0  0  0  0  0
    7.8453    7.5052    0.0000 H   0  0  0  0  0  0  0  0  0  0  0  0
  1 28  1  0  0  0  0
  2 25  1  0  0  0  0
  2 78  1  0  0  0  0
  3 25  2  0  0  0  0
  4 10  1  0  0  0  0
  4 11  1  0  0  0  0
  4 16  1  0  0  0  0
  5 12  1  0  0  0  0
  5 13  1  0  0  0  0
  5 14  1  0  0  0  0
  6  7  1  0  0  0  0
  6 21  1  0  0  0  0
  6 31  1  0  0  0  0
  7 30  2  0  0  0  0
  8  9  1  0  0  0  0
  8 10  1  0  0  0  0
  8 12  1  6  0  0  0
  8 42  1  0  0  0  0
  9 11  1  0  0  0  0
  9 17  1  1  0  0  0
  9 43  1  0  0  0  0
 10 44  1  0  0  0  0
 10 45  1  0  0  0  0
 11 46  1  0  0  0  0
 11 47  1  0  0  0  0
 12 48  1  0  0  0  0
 12 49  1  0  0  0  0
 13 18  1  0  0  0  0
 13 50  1  0  0  0  0
 13 51  1  0  0  0  0
 14 19  1  0  0  0  0
 14 52  1  0  0  0  0
 14 53  1  0  0  0  0
 15 18  1  0  0  0  0
 15 19  1  0  0  0  0
 15 21  1  0  0  0  0
 15 54  1  0  0  0  0
 16 20  1  0  0  0  0
 16 55  1  0  0  0  0
 16 56  1  0  0  0  0
 17 22  2  0  0  0  0
 17 23  1  0  0  0  0
 18 57  1  0  0  0  0
 18 58  1  0  0  0  0
 19 59  1  0  0  0  0
 19 60  1  0  0  0  0
 20 24  1  0  0  0  0
 20 25  1  0  0  0  0
 20 61  1  0  0  0  0
 21 26  2  0  0  0  0
 22 28  1  0  0  0  0
 22 62  1  0  0  0  0
 23 29  2  0  0  0  0
 23 63  1  0  0  0  0
 24 27  1  0  0  0  0
 24 64  1  0  0  0  0
 24 65  1  0  0  0  0
 26 30  1  0  0  0  0
 26 66  1  0  0  0  0
 27 33  1  0  0  0  0
 27 67  1  0  0  0  0
 27 68  1  0  0  0  0
 28 32  2  0  0  0  0
 29 32  1  0  0  0  0
 29 69  1  0  0  0  0
 30 34  1  0  0  0  0
 31 35  1  0  0  0  0
 31 70  1  0  0  0  0
 31 71  1  0  0  0  0
 32 72  1  0  0  0  0
 33 73  1  0  0  0  0
 33 74  1  0  0  0  0
 33 75  1  0  0  0  0
 34 36  1  0  0  0  0
 34 76  1  0  0  0  0
 34 77  1  0  0  0  0
 35 79  1  0  0  0  0
 35 80  1  0  0  0  0
 35 81  1  0  0  0  0
 36 37  2  0  0  0  0
 36 38  1  0  0  0  0
 37 39  1  0  0  0  0
 37 82  1  0  0  0  0
 38 40  2  0  0  0  0
 38 83  1  0  0  0  0
 39 41  2  0  0  0  0
 39 84  1  0  0  0  0
 40 41  1  0  0  0  0
 40 85  1  0  0  0  0
 41 86  1  0  0  0  0
M  END
> <PUBCHEM_COMPOUND_CID>
512886
> <PUBCHEM_COMPOUND_CANONICALIZED>
1
> <PUBCHEM_CACTVS_COMPLEXITY>
802
> <PUBCHEM_CACTVS_HBOND_ACCEPTOR>
6
> <PUBCHEM_CACTVS_HBOND_DONOR>
1
> <PUBCHEM_CACTVS_ROTATABLE_BOND>
12
> <PUBCHEM_CACTVS_SUBSKEYS>
AAADcfB/sQAAAAAAAAAAAAAAAAAAAWLAAAA8YIAAAAAAAAAB0AAAHwAICAAADQjBngwyiJMIAgCqAyTyTACSBAAhggAY2CE4ZJgIIDrA0dGE5AhmiADIyAeYgMAOgAAAAAAAAAAAAAAAAAAAAAAAAAAAAA==
> <PUBCHEM_IUPAC_OPENEYE_NAME>
2-[[(3S,4S)-3-[[4-(5-benzyl-2-ethyl-pyrazol-3-yl)-1-piperidyl]methyl]-4-(3-fluorophenyl)pyrrolidin-1-yl]methyl]pentanoic acid
> <PUBCHEM_IUPAC_CAS_NAME>
2-[[(3S,4S)-3-[[4-[2-ethyl-5-(phenylmethyl)-3-pyrazolyl]-1-piperidinyl]methyl]-4-(3-fluorophenyl)-1-pyrrolidinyl]methyl]pentanoic acid
> <PUBCHEM_IUPAC_NAME_MARKUP>
2-[[(3<I>S</I>,4<I>S</I>)-3-[[4-(5-benzyl-2-ethylpyrazol-3-yl)piperidin-1-yl]methyl]-4-(3-fluorophenyl)pyrrolidin-1-yl]methyl]pentanoic acid
> <PUBCHEM_IUPAC_NAME>
2-[[(3S,4S)-3-[[4-(5-benzyl-2-ethylpyrazol-3-yl)piperidin-1-yl]methyl]-4-(3-fluorophenyl)pyrrolidin-1-yl]methyl]pentanoic acid
> <PUBCHEM_IUPAC_SYSTEMATIC_NAME>
2-[[(3S,4S)-3-[[4-[2-ethyl-5-(phenylmethyl)pyrazol-3-yl]piperidin-1-yl]methyl]-4-(3-fluorophenyl)pyrrolidin-1-yl]methyl]pentanoic acid
> <PUBCHEM_IUPAC_TRADITIONAL_NAME>
2-[[(3S,4S)-3-[[4-(5-benzyl-2-ethyl-pyrazol-3-yl)piperidino]methyl]-4-(3-fluorophenyl)pyrrolidino]methyl]valeric acid
> <PUBCHEM_IUPAC_INCHI>
InChI=1S/C34H45FN4O2/c1-3-9-28(34(40)41)21-38-23-29(32(24-38)27-12-8-13-30(35)19-27)22-37-16-14-26(15-17-37)33-20-31(36-39(33)4-2)18-25-10-6-5-7-11-25/h5-8,10-13,19-20,26,28-29,32H,3-4,9,14-18,21-24H2,1-2H3,(H,40,41)/t28?,29-,32+/m0/s1
> <PUBCHEM_IUPAC_INCHIKEY>
DOTOXNIHODOFTM-VZJJUSSWSA-N
> <PUBCHEM_XLOGP3_AA>
3.7
> <PUBCHEM_EXACT_MASS>
560.35265485
> <PUBCHEM_MOLECULAR_FORMULA>
C34H45FN4O2
> <PUBCHEM_MOLECULAR_WEIGHT>
560.7
> <PUBCHEM_OPENEYE_CAN_SMILES>
CCCC(CN1CC(C(C1)C2=CC(=CC=C2)F)CN3CCC(CC3)C4=CC(=NN4CC)CC5=CC=CC=C5)C(=O)O
> <PUBCHEM_OPENEYE_ISO_SMILES>
CCCC(CN1C[C@@H]([C@H](C1)C2=CC(=CC=C2)F)CN3CCC(CC3)C4=CC(=NN4CC)CC5=CC=CC=C5)C(=O)O
> <PUBCHEM_CACTVS_TPSA>
61.6
> <PUBCHEM_MONOISOTOPIC_WEIGHT>
560.35265485
> <PUBCHEM_TOTAL_CHARGE>
0
> <PUBCHEM_HEAVY_ATOM_COUNT>
41
> <PUBCHEM_ATOM_DEF_STEREO_COUNT>
2
> <PUBCHEM_ATOM_UDEF_STEREO_COUNT>
1
> <PUBCHEM_BOND_DEF_STEREO_COUNT>
0
> <PUBCHEM_BOND_UDEF_STEREO_COUNT>
0
> <PUBCHEM_ISOTOPIC_ATOM_COUNT>
0
> <PUBCHEM_COMPONENT_COUNT>
1
> <PUBCHEM_CACTVS_TAUTO_COUNT>
-1
> <PUBCHEM_COORDINATE_TYPE>
1
5
255
> <PUBCHEM_BONDANNOTATIONS>
17  22  8
17  23  8
20  24  3
21  26  8
22  28  8
23  29  8
26  30  8
28  32  8
29  32  8
36  37  8
36  38  8
37  39  8
38  40  8
39  41  8
40  41  8
6  21  8
6  7  8
7  30  8
8  12  6
9  17  5
$$$$
