512837
  -OEChem-10302200282D
 68 68  0     1  0  0  0  0  0999 V2000
    2.0519   -1.2971    0.0000 O   0  0  0  0  0  0  0  0  0  0  0  0
    5.5720   -1.2971    0.0000 O   0  0  0  0  0  0  0  0  0  0  0  0
    3.8120   -1.5758    0.0000 N   0  0  0  0  0  0  0  0  0  0  0  0
    2.7242    0.7720    0.0000 N   0  0  0  0  0  0  0  0  0  0  0  0
    3.3120   -0.0370    0.0000 C   0  0  3  0  0  0  0  0  0  0  0  0
    4.3120   -0.0370    0.0000 C   0  0  0  0  0  0  0  0  0  0  0  0
    3.8120   -2.5758    0.0000 C   0  0  0  0  0  0  0  0  0  0  0  0
    3.0030   -0.9880    0.0000 C   0  0  0  0  0  0  0  0  0  0  0  0
    4.6780   -3.0758    0.0000 C   0  0  0  0  0  0  0  0  0  0  0  0
    4.6210   -0.9880    0.0000 C   0  0  0  0  0  0  0  0  0  0  0  0
    4.6780   -4.0758    0.0000 C   0  0  0  0  0  0  0  0  0  0  0  0
    3.1309    1.6856    0.0000 C   0  0  0  0  0  0  0  0  0  0  0  0
    2.5431    2.4946    0.0000 C   0  0  0  0  0  0  0  0  0  0  0  0
    5.5440   -4.5758    0.0000 C   0  0  0  0  0  0  0  0  0  0  0  0
    2.9499    3.4081    0.0000 C   0  0  0  0  0  0  0  0  0  0  0  0
    2.3621    4.2172    0.0000 C   0  0  0  0  0  0  0  0  0  0  0  0
    5.5440   -5.5758    0.0000 C   0  0  0  0  0  0  0  0  0  0  0  0
    2.7688    5.1307    0.0000 C   0  0  0  0  0  0  0  0  0  0  0  0
    6.4101   -6.0758    0.0000 C   0  0  0  0  0  0  0  0  0  0  0  0
    2.1810    5.9397    0.0000 C   0  0  0  0  0  0  0  0  0  0  0  0
    6.4101   -7.0758    0.0000 C   0  0  0  0  0  0  0  0  0  0  0  0
    2.5878    6.8533    0.0000 C   0  0  0  0  0  0  0  0  0  0  0  0
    7.2761   -7.5758    0.0000 C   0  0  0  0  0  0  0  0  0  0  0  0
    2.0000    7.6623    0.0000 C   0  0  0  0  0  0  0  0  0  0  0  0
    7.2761   -8.5758    0.0000 C   0  0  0  0  0  0  0  0  0  0  0  0
    2.4067    8.5758    0.0000 C   0  0  0  0  0  0  0  0  0  0  0  0
    3.5934    0.5154    0.0000 H   0  0  0  0  0  0  0  0  0  0  0  0
    4.9184    0.0919    0.0000 H   0  0  0  0  0  0  0  0  0  0  0  0
    4.2472    0.5796    0.0000 H   0  0  0  0  0  0  0  0  0  0  0  0
    3.2014   -2.4682    0.0000 H   0  0  0  0  0  0  0  0  0  0  0  0
    3.5999   -3.1584    0.0000 H   0  0  0  0  0  0  0  0  0  0  0  0
    5.2886   -3.1835    0.0000 H   0  0  0  0  0  0  0  0  0  0  0  0
    4.8901   -2.4932    0.0000 H   0  0  0  0  0  0  0  0  0  0  0  0
    2.1076    0.7072    0.0000 H   0  0  0  0  0  0  0  0  0  0  0  0
    4.0674   -3.9682    0.0000 H   0  0  0  0  0  0  0  0  0  0  0  0
    4.4660   -4.6584    0.0000 H   0  0  0  0  0  0  0  0  0  0  0  0
    3.6449    1.3389    0.0000 H   0  0  0  0  0  0  0  0  0  0  0  0
    3.5616    2.1316    0.0000 H   0  0  0  0  0  0  0  0  0  0  0  0
    2.0291    2.8413    0.0000 H   0  0  0  0  0  0  0  0  0  0  0  0
    2.1125    2.0486    0.0000 H   0  0  0  0  0  0  0  0  0  0  0  0
    6.1546   -4.6835    0.0000 H   0  0  0  0  0  0  0  0  0  0  0  0
    5.7561   -3.9932    0.0000 H   0  0  0  0  0  0  0  0  0  0  0  0
    3.4639    3.0614    0.0000 H   0  0  0  0  0  0  0  0  0  0  0  0
    3.3806    3.8541    0.0000 H   0  0  0  0  0  0  0  0  0  0  0  0
    1.8481    4.5639    0.0000 H   0  0  0  0  0  0  0  0  0  0  0  0
    1.9314    3.7712    0.0000 H   0  0  0  0  0  0  0  0  0  0  0  0
    4.9334   -5.4682    0.0000 H   0  0  0  0  0  0  0  0  0  0  0  0
    5.3320   -6.1584    0.0000 H   0  0  0  0  0  0  0  0  0  0  0  0
    3.2828    4.7840    0.0000 H   0  0  0  0  0  0  0  0  0  0  0  0
    3.1995    5.5767    0.0000 H   0  0  0  0  0  0  0  0  0  0  0  0
    7.0206   -6.1835    0.0000 H   0  0  0  0  0  0  0  0  0  0  0  0
    6.6221   -5.4932    0.0000 H   0  0  0  0  0  0  0  0  0  0  0  0
    1.6670    6.2864    0.0000 H   0  0  0  0  0  0  0  0  0  0  0  0
    1.7504    5.4937    0.0000 H   0  0  0  0  0  0  0  0  0  0  0  0
    5.7995   -6.9682    0.0000 H   0  0  0  0  0  0  0  0  0  0  0  0
    6.1980   -7.6584    0.0000 H   0  0  0  0  0  0  0  0  0  0  0  0
    3.1018    6.5066    0.0000 H   0  0  0  0  0  0  0  0  0  0  0  0
    3.0185    7.2992    0.0000 H   0  0  0  0  0  0  0  0  0  0  0  0
    7.8867   -7.6835    0.0000 H   0  0  0  0  0  0  0  0  0  0  0  0
    7.4881   -6.9932    0.0000 H   0  0  0  0  0  0  0  0  0  0  0  0
    1.4860    8.0090    0.0000 H   0  0  0  0  0  0  0  0  0  0  0  0
    1.5693    7.2163    0.0000 H   0  0  0  0  0  0  0  0  0  0  0  0
    6.6561   -8.5758    0.0000 H   0  0  0  0  0  0  0  0  0  0  0  0
    7.2761   -9.1958    0.0000 H   0  0  0  0  0  0  0  0  0  0  0  0
    7.8961   -8.5758    0.0000 H   0  0  0  0  0  0  0  0  0  0  0  0
    2.9731    8.3236    0.0000 H   0  0  0  0  0  0  0  0  0  0  0  0
    2.6589    9.1422    0.0000 H   0  0  0  0  0  0  0  0  0  0  0  0
    1.8403    8.8280    0.0000 H   0  0  0  0  0  0  0  0  0  0  0  0
  1  8  2  0  0  0  0
  2 10  2  0  0  0  0
  3  7  1  0  0  0  0
  3  8  1  0  0  0  0
  3 10  1  0  0  0  0
  4  5  1  0  0  0  0
  4 12  1  0  0  0  0
  4 34  1  0  0  0  0
  5  6  1  0  0  0  0
  5  8  1  0  0  0  0
  5 27  1  0  0  0  0
  6 10  1  0  0  0  0
  6 28  1  0  0  0  0
  6 29  1  0  0  0  0
  7  9  1  0  0  0  0
  7 30  1  0  0  0  0
  7 31  1  0  0  0  0
  9 11  1  0  0  0  0
  9 32  1  0  0  0  0
  9 33  1  0  0  0  0
 11 14  1  0  0  0  0
 11 35  1  0  0  0  0
 11 36  1  0  0  0  0
 12 13  1  0  0  0  0
 12 37  1  0  0  0  0
 12 38  1  0  0  0  0
 13 15  1  0  0  0  0
 13 39  1  0  0  0  0
 13 40  1  0  0  0  0
 14 17  1  0  0  0  0
 14 41  1  0  0  0  0
 14 42  1  0  0  0  0
 15 16  1  0  0  0  0
 15 43  1  0  0  0  0
 15 44  1  0  0  0  0
 16 18  1  0  0  0  0
 16 45  1  0  0  0  0
 16 46  1  0  0  0  0
 17 19  1  0  0  0  0
 17 47  1  0  0  0  0
 17 48  1  0  0  0  0
 18 20  1  0  0  0  0
 18 49  1  0  0  0  0
 18 50  1  0  0  0  0
 19 21  1  0  0  0  0
 19 51  1  0  0  0  0
 19 52  1  0  0  0  0
 20 22  1  0  0  0  0
 20 53  1  0  0  0  0
 20 54  1  0  0  0  0
 21 23  1  0  0  0  0
 21 55  1  0  0  0  0
 21 56  1  0  0  0  0
 22 24  1  0  0  0  0
 22 57  1  0  0  0  0
 22 58  1  0  0  0  0
 23 25  1  0  0  0  0
 23 59  1  0  0  0  0
 23 60  1  0  0  0  0
 24 26  1  0  0  0  0
 24 61  1  0  0  0  0
 24 62  1  0  0  0  0
 25 63  1  0  0  0  0
 25 64  1  0  0  0  0
 25 65  1  0  0  0  0
 26 66  1  0  0  0  0
 26 67  1  0  0  0  0
 26 68  1  0  0  0  0
M  END
> <PUBCHEM_COMPOUND_CID>
512837
> <PUBCHEM_COMPOUND_CANONICALIZED>
1
> <PUBCHEM_CACTVS_COMPLEXITY>
384
> <PUBCHEM_CACTVS_HBOND_ACCEPTOR>
3
> <PUBCHEM_CACTVS_HBOND_DONOR>
1
> <PUBCHEM_CACTVS_ROTATABLE_BOND>
17
> <PUBCHEM_CACTVS_SUBSKEYS>
AAADcfB7MAAAAAAAAAAAAAAAAAAAAWAAAAAAAAAAAAAAAAAAAAAAHgAQAAAACCjBgAQCAAPAAAAIAAEQEAAAAAAAAAAAAIGIAAAAQBoAwCAUAAAAFiCAAAEVgIAAAAAAAAAAAAAAAAAAAAAAAAAAAAAAAA==
> <PUBCHEM_IUPAC_OPENEYE_NAME>
1-nonyl-3-(nonylamino)pyrrolidine-2,5-dione
> <PUBCHEM_IUPAC_CAS_NAME>
1-nonyl-3-(nonylamino)pyrrolidine-2,5-dione
> <PUBCHEM_IUPAC_NAME_MARKUP>
1-nonyl-3-(nonylamino)pyrrolidine-2,5-dione
> <PUBCHEM_IUPAC_NAME>
1-nonyl-3-(nonylamino)pyrrolidine-2,5-dione
> <PUBCHEM_IUPAC_SYSTEMATIC_NAME>
1-nonyl-3-(nonylamino)pyrrolidine-2,5-dione
> <PUBCHEM_IUPAC_TRADITIONAL_NAME>
1-nonyl-3-(nonylamino)pyrrolidine-2,5-quinone
> <PUBCHEM_IUPAC_INCHI>
InChI=1S/C22H42N2O2/c1-3-5-7-9-11-13-15-17-23-20-19-21(25)24(22(20)26)18-16-14-12-10-8-6-4-2/h20,23H,3-19H2,1-2H3
> <PUBCHEM_IUPAC_INCHIKEY>
CKBGEWWHKCEBOR-UHFFFAOYSA-N
> <PUBCHEM_XLOGP3_AA>
6.8
> <PUBCHEM_EXACT_MASS>
366.324628587
> <PUBCHEM_MOLECULAR_FORMULA>
C22H42N2O2
> <PUBCHEM_MOLECULAR_WEIGHT>
366.6
> <PUBCHEM_OPENEYE_CAN_SMILES>
CCCCCCCCCNC1CC(=O)N(C1=O)CCCCCCCCC
> <PUBCHEM_OPENEYE_ISO_SMILES>
CCCCCCCCCNC1CC(=O)N(C1=O)CCCCCCCCC
> <PUBCHEM_CACTVS_TPSA>
49.4
> <PUBCHEM_MONOISOTOPIC_WEIGHT>
366.324628587
> <PUBCHEM_TOTAL_CHARGE>
0
> <PUBCHEM_HEAVY_ATOM_COUNT>
26
> <PUBCHEM_ATOM_DEF_STEREO_COUNT>
0
> <PUBCHEM_ATOM_UDEF_STEREO_COUNT>
1
> <PUBCHEM_BOND_DEF_STEREO_COUNT>
0
> <PUBCHEM_BOND_UDEF_STEREO_COUNT>
0
> <PUBCHEM_ISOTOPIC_ATOM_COUNT>
0
> <PUBCHEM_COMPONENT_COUNT>
1
> <PUBCHEM_CACTVS_TAUTO_COUNT>
-1
> <PUBCHEM_COORDINATE_TYPE>
1
5
255
> <PUBCHEM_BONDANNOTATIONS>
5  4  3
$$$$
