512848
  -OEChem-10302200282D
 71 71  0     1  0  0  0  0  0999 V2000
    3.3566    0.7720    0.0000 S   0  0  0  0  0  0  0  0  0  0  0  0
    2.6843   -1.2971    0.0000 O   0  0  0  0  0  0  0  0  0  0  0  0
    6.2045   -1.2971    0.0000 O   0  0  0  0  0  0  0  0  0  0  0  0
    2.0000    4.1126    0.0000 O   0  0  0  0  0  0  0  0  0  0  0  0
    4.4444   -1.5758    0.0000 N   0  0  0  0  0  0  0  0  0  0  0  0
    3.5823    3.4081    0.0000 N   0  0  0  0  0  0  0  0  0  0  0  0
    4.4444   -2.5758    0.0000 C   0  0  0  0  0  0  0  0  0  0  0  0
    5.3104   -3.0758    0.0000 C   0  0  0  0  0  0  0  0  0  0  0  0
    3.9444   -0.0370    0.0000 C   0  0  3  0  0  0  0  0  0  0  0  0
    5.3104   -4.0758    0.0000 C   0  0  0  0  0  0  0  0  0  0  0  0
    6.1765   -4.5758    0.0000 C   0  0  0  0  0  0  0  0  0  0  0  0
    4.9444   -0.0370    0.0000 C   0  0  0  0  0  0  0  0  0  0  0  0
    3.6354   -0.9880    0.0000 C   0  0  0  0  0  0  0  0  0  0  0  0
    3.4013    5.1307    0.0000 C   0  0  3  0  0  0  0  0  0  0  0  0
    6.1765   -5.5758    0.0000 C   0  0  0  0  0  0  0  0  0  0  0  0
    5.2534   -0.9880    0.0000 C   0  0  0  0  0  0  0  0  0  0  0  0
    2.8135    5.9397    0.0000 C   0  0  0  0  0  0  0  0  0  0  0  0
    7.0425   -6.0758    0.0000 C   0  0  0  0  0  0  0  0  0  0  0  0
    4.3958    5.2352    0.0000 C   0  0  0  0  0  0  0  0  0  0  0  0
    3.2202    6.8533    0.0000 C   0  0  0  0  0  0  0  0  0  0  0  0
    7.0425   -7.0758    0.0000 C   0  0  0  0  0  0  0  0  0  0  0  0
    2.9945    4.2172    0.0000 C   0  0  0  0  0  0  0  0  0  0  0  0
    3.7634    1.6856    0.0000 C   0  0  0  0  0  0  0  0  0  0  0  0
    3.1756    2.4946    0.0000 C   0  0  0  0  0  0  0  0  0  0  0  0
    2.6324    7.6623    0.0000 C   0  0  0  0  0  0  0  0  0  0  0  0
    7.9085   -7.5758    0.0000 C   0  0  0  0  0  0  0  0  0  0  0  0
    4.8025    6.1488    0.0000 C   0  0  0  0  0  0  0  0  0  0  0  0
    3.0392    8.5758    0.0000 C   0  0  0  0  0  0  0  0  0  0  0  0
    7.9085   -8.5758    0.0000 C   0  0  0  0  0  0  0  0  0  0  0  0
    3.8338   -2.4682    0.0000 H   0  0  0  0  0  0  0  0  0  0  0  0
    4.2324   -3.1584    0.0000 H   0  0  0  0  0  0  0  0  0  0  0  0
    5.9210   -3.1835    0.0000 H   0  0  0  0  0  0  0  0  0  0  0  0
    5.5225   -2.4932    0.0000 H   0  0  0  0  0  0  0  0  0  0  0  0
    3.3320   -0.1340    0.0000 H   0  0  0  0  0  0  0  0  0  0  0  0
    4.6998   -3.9682    0.0000 H   0  0  0  0  0  0  0  0  0  0  0  0
    5.0984   -4.6584    0.0000 H   0  0  0  0  0  0  0  0  0  0  0  0
    6.7870   -4.6835    0.0000 H   0  0  0  0  0  0  0  0  0  0  0  0
    6.3885   -3.9932    0.0000 H   0  0  0  0  0  0  0  0  0  0  0  0
    5.5509    0.0919    0.0000 H   0  0  0  0  0  0  0  0  0  0  0  0
    4.8796    0.5796    0.0000 H   0  0  0  0  0  0  0  0  0  0  0  0
    3.7657    4.6291    0.0000 H   0  0  0  0  0  0  0  0  0  0  0  0
    5.5659   -5.4682    0.0000 H   0  0  0  0  0  0  0  0  0  0  0  0
    5.9644   -6.1584    0.0000 H   0  0  0  0  0  0  0  0  0  0  0  0
    2.2995    6.2864    0.0000 H   0  0  0  0  0  0  0  0  0  0  0  0
    2.3828    5.4937    0.0000 H   0  0  0  0  0  0  0  0  0  0  0  0
    7.6531   -6.1835    0.0000 H   0  0  0  0  0  0  0  0  0  0  0  0
    7.2545   -5.4932    0.0000 H   0  0  0  0  0  0  0  0  0  0  0  0
    4.3525    4.6167    0.0000 H   0  0  0  0  0  0  0  0  0  0  0  0
    4.9974    5.0852    0.0000 H   0  0  0  0  0  0  0  0  0  0  0  0
    3.7342    6.5066    0.0000 H   0  0  0  0  0  0  0  0  0  0  0  0
    3.6509    7.2992    0.0000 H   0  0  0  0  0  0  0  0  0  0  0  0
    6.4319   -6.9682    0.0000 H   0  0  0  0  0  0  0  0  0  0  0  0
    6.8304   -7.6584    0.0000 H   0  0  0  0  0  0  0  0  0  0  0  0
    4.2774    1.3389    0.0000 H   0  0  0  0  0  0  0  0  0  0  0  0
    4.1940    2.1316    0.0000 H   0  0  0  0  0  0  0  0  0  0  0  0
    2.6616    2.8413    0.0000 H   0  0  0  0  0  0  0  0  0  0  0  0
    2.7449    2.0486    0.0000 H   0  0  0  0  0  0  0  0  0  0  0  0
    2.1184    8.0090    0.0000 H   0  0  0  0  0  0  0  0  0  0  0  0
    2.2017    7.2163    0.0000 H   0  0  0  0  0  0  0  0  0  0  0  0
    4.1989    3.4730    0.0000 H   0  0  0  0  0  0  0  0  0  0  0  0
    8.5191   -7.6835    0.0000 H   0  0  0  0  0  0  0  0  0  0  0  0
    8.1206   -6.9932    0.0000 H   0  0  0  0  0  0  0  0  0  0  0  0
    5.3689    5.8966    0.0000 H   0  0  0  0  0  0  0  0  0  0  0  0
    5.0547    6.7152    0.0000 H   0  0  0  0  0  0  0  0  0  0  0  0
    4.2361    6.4010    0.0000 H   0  0  0  0  0  0  0  0  0  0  0  0
    3.6056    8.3236    0.0000 H   0  0  0  0  0  0  0  0  0  0  0  0
    3.2913    9.1422    0.0000 H   0  0  0  0  0  0  0  0  0  0  0  0
    2.4728    8.8280    0.0000 H   0  0  0  0  0  0  0  0  0  0  0  0
    7.2885   -8.5758    0.0000 H   0  0  0  0  0  0  0  0  0  0  0  0
    7.9085   -9.1958    0.0000 H   0  0  0  0  0  0  0  0  0  0  0  0
    8.5285   -8.5758    0.0000 H   0  0  0  0  0  0  0  0  0  0  0  0
  1  9  1  0  0  0  0
  1 23  1  0  0  0  0
  2 13  2  0  0  0  0
  3 16  2  0  0  0  0
  4 22  2  0  0  0  0
  5  7  1  0  0  0  0
  5 13  1  0  0  0  0
  5 16  1  0  0  0  0
  6 22  1  0  0  0  0
  6 24  1  0  0  0  0
  6 60  1  0  0  0  0
  7  8  1  0  0  0  0
  7 30  1  0  0  0  0
  7 31  1  0  0  0  0
  8 10  1  0  0  0  0
  8 32  1  0  0  0  0
  8 33  1  0  0  0  0
  9 12  1  0  0  0  0
  9 13  1  0  0  0  0
  9 34  1  0  0  0  0
 10 11  1  0  0  0  0
 10 35  1  0  0  0  0
 10 36  1  0  0  0  0
 11 15  1  0  0  0  0
 11 37  1  0  0  0  0
 11 38  1  0  0  0  0
 12 16  1  0  0  0  0
 12 39  1  0  0  0  0
 12 40  1  0  0  0  0
 14 17  1  0  0  0  0
 14 19  1  0  0  0  0
 14 22  1  0  0  0  0
 14 41  1  0  0  0  0
 15 18  1  0  0  0  0
 15 42  1  0  0  0  0
 15 43  1  0  0  0  0
 17 20  1  0  0  0  0
 17 44  1  0  0  0  0
 17 45  1  0  0  0  0
 18 21  1  0  0  0  0
 18 46  1  0  0  0  0
 18 47  1  0  0  0  0
 19 27  1  0  0  0  0
 19 48  1  0  0  0  0
 19 49  1  0  0  0  0
 20 25  1  0  0  0  0
 20 50  1  0  0  0  0
 20 51  1  0  0  0  0
 21 26  1  0  0  0  0
 21 52  1  0  0  0  0
 21 53  1  0  0  0  0
 23 24  1  0  0  0  0
 23 54  1  0  0  0  0
 23 55  1  0  0  0  0
 24 56  1  0  0  0  0
 24 57  1  0  0  0  0
 25 28  1  0  0  0  0
 25 58  1  0  0  0  0
 25 59  1  0  0  0  0
 26 29  1  0  0  0  0
 26 61  1  0  0  0  0
 26 62  1  0  0  0  0
 27 63  1  0  0  0  0
 27 64  1  0  0  0  0
 27 65  1  0  0  0  0
 28 66  1  0  0  0  0
 28 67  1  0  0  0  0
 28 68  1  0  0  0  0
 29 69  1  0  0  0  0
 29 70  1  0  0  0  0
 29 71  1  0  0  0  0
M  END
> <PUBCHEM_COMPOUND_CID>
512848
> <PUBCHEM_COMPOUND_CANONICALIZED>
1
> <PUBCHEM_CACTVS_COMPLEXITY>
499
> <PUBCHEM_CACTVS_HBOND_ACCEPTOR>
4
> <PUBCHEM_CACTVS_HBOND_DONOR>
1
> <PUBCHEM_CACTVS_ROTATABLE_BOND>
17
> <PUBCHEM_CACTVS_SUBSKEYS>
AAADcfB7MABAAAAAAAAAAAAAAAAAAWAAAAAAAAAAAAAAAAAAAAAAHgQQAAAADQDFwASCAAPAAAgIAAEQEAAAAAAAABAAAIEIAAAAABIggAAEAAAAFiCgAAEdiIAOAAAAAAAAAAAAAAAAAAAAAAAAAAAAAA==
> <PUBCHEM_IUPAC_OPENEYE_NAME>
2-ethyl-N-[2-(1-nonyl-2,5-dioxo-pyrrolidin-3-yl)sulfanylethyl]hexanamide
> <PUBCHEM_IUPAC_CAS_NAME>
2-ethyl-N-[2-[(1-nonyl-2,5-dioxo-3-pyrrolidinyl)thio]ethyl]hexanamide
> <PUBCHEM_IUPAC_NAME_MARKUP>
2-ethyl-<I>N</I>-[2-(1-nonyl-2,5-dioxopyrrolidin-3-yl)sulfanylethyl]hexanamide
> <PUBCHEM_IUPAC_NAME>
2-ethyl-N-[2-(1-nonyl-2,5-dioxopyrrolidin-3-yl)sulfanylethyl]hexanamide
> <PUBCHEM_IUPAC_SYSTEMATIC_NAME>
2-ethyl-N-[2-[1-nonyl-2,5-bis(oxidanylidene)pyrrolidin-3-yl]sulfanylethyl]hexanamide
> <PUBCHEM_IUPAC_TRADITIONAL_NAME>
N-[2-[(2,5-diketo-1-nonyl-pyrrolidin-3-yl)thio]ethyl]-2-ethyl-hexanamide
> <PUBCHEM_IUPAC_INCHI>
InChI=1S/C23H42N2O3S/c1-4-7-9-10-11-12-13-16-25-21(26)18-20(23(25)28)29-17-15-24-22(27)19(6-3)14-8-5-2/h19-20H,4-18H2,1-3H3,(H,24,27)
> <PUBCHEM_IUPAC_INCHIKEY>
BNCTYHXYEMEQPV-UHFFFAOYSA-N
> <PUBCHEM_XLOGP3_AA>
6
> <PUBCHEM_EXACT_MASS>
426.29161438
> <PUBCHEM_MOLECULAR_FORMULA>
C23H42N2O3S
> <PUBCHEM_MOLECULAR_WEIGHT>
426.7
> <PUBCHEM_OPENEYE_CAN_SMILES>
CCCCCCCCCN1C(=O)CC(C1=O)SCCNC(=O)C(CC)CCCC
> <PUBCHEM_OPENEYE_ISO_SMILES>
CCCCCCCCCN1C(=O)CC(C1=O)SCCNC(=O)C(CC)CCCC
> <PUBCHEM_CACTVS_TPSA>
91.8
> <PUBCHEM_MONOISOTOPIC_WEIGHT>
426.29161438
> <PUBCHEM_TOTAL_CHARGE>
0
> <PUBCHEM_HEAVY_ATOM_COUNT>
29
> <PUBCHEM_ATOM_DEF_STEREO_COUNT>
0
> <PUBCHEM_ATOM_UDEF_STEREO_COUNT>
2
> <PUBCHEM_BOND_DEF_STEREO_COUNT>
0
> <PUBCHEM_BOND_UDEF_STEREO_COUNT>
0
> <PUBCHEM_ISOTOPIC_ATOM_COUNT>
0
> <PUBCHEM_COMPONENT_COUNT>
1
> <PUBCHEM_CACTVS_TAUTO_COUNT>
-1
> <PUBCHEM_COORDINATE_TYPE>
1
5
255
> <PUBCHEM_BONDANNOTATIONS>
9  1  3
14  19  3
$$$$
