512859
  -OEChem-10302200282D
 66 68  0     1  0  0  0  0  0999 V2000
    3.0934    1.8195    0.0000 O   0  0  0  0  0  0  0  0  0  0  0  0
    6.3092    0.3877    0.0000 O   0  0  0  0  0  0  0  0  0  0  0  0
    2.8660   -4.3441    0.0000 N   0  0  0  0  0  0  0  0  0  0  0  0
    4.8147    1.3583    0.0000 N   0  0  0  0  0  0  0  0  0  0  0  0
    2.8660   -0.3441    0.0000 N   0  0  0  0  0  0  0  0  0  0  0  0
    2.0000   -4.8441    0.0000 C   0  0  0  0  0  0  0  0  0  0  0  0
    3.7320   -4.8441    0.0000 C   0  0  0  0  0  0  0  0  0  0  0  0
    2.0000   -5.8441    0.0000 C   0  0  0  0  0  0  0  0  0  0  0  0
    3.7320   -5.8441    0.0000 C   0  0  0  0  0  0  0  0  0  0  0  0
    2.8660   -6.3441    0.0000 C   0  0  0  0  0  0  0  0  0  0  0  0
    3.7320    0.1559    0.0000 C   0  0  3  0  0  0  0  0  0  0  0  0
    4.6456   -0.2509    0.0000 C   0  0  0  0  0  0  0  0  0  0  0  0
    5.2215    2.2718    0.0000 C   0  0  0  0  0  0  0  0  0  0  0  0
    6.2160    2.3764    0.0000 C   0  0  0  0  0  0  0  0  0  0  0  0
    6.6227    3.2899    0.0000 C   0  0  0  0  0  0  0  0  0  0  0  0
    3.8366    1.1504    0.0000 C   0  0  0  0  0  0  0  0  0  0  0  0
    5.3147    0.4923    0.0000 C   0  0  0  0  0  0  0  0  0  0  0  0
    2.8660   -3.3441    0.0000 C   0  0  0  0  0  0  0  0  0  0  0  0
    7.6172    3.3944    0.0000 C   0  0  0  0  0  0  0  0  0  0  0  0
    8.0240    4.3080    0.0000 C   0  0  0  0  0  0  0  0  0  0  0  0
    2.8660   -1.3441    0.0000 C   0  0  0  0  0  0  0  0  0  0  0  0
    9.0185    4.4125    0.0000 C   0  0  0  0  0  0  0  0  0  0  0  0
    2.0000   -2.8441    0.0000 C   0  0  0  0  0  0  0  0  0  0  0  0
    3.7320   -2.8441    0.0000 C   0  0  0  0  0  0  0  0  0  0  0  0
    9.4252    5.3261    0.0000 C   0  0  0  0  0  0  0  0  0  0  0  0
    2.0000   -1.8441    0.0000 C   0  0  0  0  0  0  0  0  0  0  0  0
    3.7320   -1.8441    0.0000 C   0  0  0  0  0  0  0  0  0  0  0  0
   10.4198    5.4306    0.0000 C   0  0  0  0  0  0  0  0  0  0  0  0
   10.8265    6.3441    0.0000 C   0  0  0  0  0  0  0  0  0  0  0  0
    1.7880   -4.2615    0.0000 H   0  0  0  0  0  0  0  0  0  0  0  0
    1.3894   -4.9518    0.0000 H   0  0  0  0  0  0  0  0  0  0  0  0
    4.3426   -4.9518    0.0000 H   0  0  0  0  0  0  0  0  0  0  0  0
    3.9441   -4.2615    0.0000 H   0  0  0  0  0  0  0  0  0  0  0  0
    1.3894   -5.7365    0.0000 H   0  0  0  0  0  0  0  0  0  0  0  0
    1.7880   -6.4268    0.0000 H   0  0  0  0  0  0  0  0  0  0  0  0
    3.9441   -6.4268    0.0000 H   0  0  0  0  0  0  0  0  0  0  0  0
    4.3426   -5.7365    0.0000 H   0  0  0  0  0  0  0  0  0  0  0  0
    2.4675   -6.8191    0.0000 H   0  0  0  0  0  0  0  0  0  0  0  0
    3.2646   -6.8191    0.0000 H   0  0  0  0  0  0  0  0  0  0  0  0
    3.2121    0.4935    0.0000 H   0  0  0  0  0  0  0  0  0  0  0  0
    4.3356   -0.7878    0.0000 H   0  0  0  0  0  0  0  0  0  0  0  0
    5.1472   -0.6153    0.0000 H   0  0  0  0  0  0  0  0  0  0  0  0
    5.2647    2.8903    0.0000 H   0  0  0  0  0  0  0  0  0  0  0  0
    4.6199    2.4218    0.0000 H   0  0  0  0  0  0  0  0  0  0  0  0
    6.1727    1.7579    0.0000 H   0  0  0  0  0  0  0  0  0  0  0  0
    6.8176    2.2264    0.0000 H   0  0  0  0  0  0  0  0  0  0  0  0
    6.6660    3.9084    0.0000 H   0  0  0  0  0  0  0  0  0  0  0  0
    6.0211    3.4399    0.0000 H   0  0  0  0  0  0  0  0  0  0  0  0
    7.5740    2.7760    0.0000 H   0  0  0  0  0  0  0  0  0  0  0  0
    8.2188    3.2444    0.0000 H   0  0  0  0  0  0  0  0  0  0  0  0
    8.0672    4.9265    0.0000 H   0  0  0  0  0  0  0  0  0  0  0  0
    7.4224    4.4580    0.0000 H   0  0  0  0  0  0  0  0  0  0  0  0
    2.3291   -0.0341    0.0000 H   0  0  0  0  0  0  0  0  0  0  0  0
    8.9753    3.7940    0.0000 H   0  0  0  0  0  0  0  0  0  0  0  0
    9.6201    4.2625    0.0000 H   0  0  0  0  0  0  0  0  0  0  0  0
    1.4631   -3.1541    0.0000 H   0  0  0  0  0  0  0  0  0  0  0  0
    4.2690   -3.1541    0.0000 H   0  0  0  0  0  0  0  0  0  0  0  0
    9.4685    5.9445    0.0000 H   0  0  0  0  0  0  0  0  0  0  0  0
    8.8237    5.4761    0.0000 H   0  0  0  0  0  0  0  0  0  0  0  0
    1.4631   -1.5341    0.0000 H   0  0  0  0  0  0  0  0  0  0  0  0
    4.2690   -1.5341    0.0000 H   0  0  0  0  0  0  0  0  0  0  0  0
   10.3765    4.8121    0.0000 H   0  0  0  0  0  0  0  0  0  0  0  0
   11.0213    5.2806    0.0000 H   0  0  0  0  0  0  0  0  0  0  0  0
   11.3929    6.0920    0.0000 H   0  0  0  0  0  0  0  0  0  0  0  0
   11.0787    6.9105    0.0000 H   0  0  0  0  0  0  0  0  0  0  0  0
   10.2601    6.5963    0.0000 H   0  0  0  0  0  0  0  0  0  0  0  0
  1 16  2  0  0  0  0
  2 17  2  0  0  0  0
  3  6  1  0  0  0  0
  3  7  1  0  0  0  0
  3 18  1  0  0  0  0
  4 13  1  0  0  0  0
  4 16  1  0  0  0  0
  4 17  1  0  0  0  0
  5 11  1  0  0  0  0
  5 21  1  0  0  0  0
  5 53  1  0  0  0  0
  6  8  1  0  0  0  0
  6 30  1  0  0  0  0
  6 31  1  0  0  0  0
  7  9  1  0  0  0  0
  7 32  1  0  0  0  0
  7 33  1  0  0  0  0
  8 10  1  0  0  0  0
  8 34  1  0  0  0  0
  8 35  1  0  0  0  0
  9 10  1  0  0  0  0
  9 36  1  0  0  0  0
  9 37  1  0  0  0  0
 10 38  1  0  0  0  0
 10 39  1  0  0  0  0
 11 12  1  0  0  0  0
 11 16  1  0  0  0  0
 11 40  1  0  0  0  0
 12 17  1  0  0  0  0
 12 41  1  0  0  0  0
 12 42  1  0  0  0  0
 13 14  1  0  0  0  0
 13 43  1  0  0  0  0
 13 44  1  0  0  0  0
 14 15  1  0  0  0  0
 14 45  1  0  0  0  0
 14 46  1  0  0  0  0
 15 19  1  0  0  0  0
 15 47  1  0  0  0  0
 15 48  1  0  0  0  0
 18 23  2  0  0  0  0
 18 24  1  0  0  0  0
 19 20  1  0  0  0  0
 19 49  1  0  0  0  0
 19 50  1  0  0  0  0
 20 22  1  0  0  0  0
 20 51  1  0  0  0  0
 20 52  1  0  0  0  0
 21 26  2  0  0  0  0
 21 27  1  0  0  0  0
 22 25  1  0  0  0  0
 22 54  1  0  0  0  0
 22 55  1  0  0  0  0
 23 26  1  0  0  0  0
 23 56  1  0  0  0  0
 24 27  2  0  0  0  0
 24 57  1  0  0  0  0
 25 28  1  0  0  0  0
 25 58  1  0  0  0  0
 25 59  1  0  0  0  0
 26 60  1  0  0  0  0
 27 61  1  0  0  0  0
 28 29  1  0  0  0  0
 28 62  1  0  0  0  0
 28 63  1  0  0  0  0
 29 64  1  0  0  0  0
 29 65  1  0  0  0  0
 29 66  1  0  0  0  0
M  END
> <PUBCHEM_COMPOUND_CID>
512859
> <PUBCHEM_COMPOUND_CANONICALIZED>
1
> <PUBCHEM_CACTVS_COMPLEXITY>
510
> <PUBCHEM_CACTVS_HBOND_ACCEPTOR>
4
> <PUBCHEM_CACTVS_HBOND_DONOR>
1
> <PUBCHEM_CACTVS_ROTATABLE_BOND>
11
> <PUBCHEM_CACTVS_SUBSKEYS>
AAADcfB7MAAAAAAAAAAAAAAAAAAAAWAAAAA8QAAAAAAAAAABAAAAHgAQAAAACCjBkAQywIPAAACIACVSUACCAAAhAgAIiIGIZIgIYDrA0bGUIAhgliDIyAcVgIAAAACAAAAAAAAAAQAAAAAAAAAAAAAAAA==
> <PUBCHEM_IUPAC_OPENEYE_NAME>
1-nonyl-3-[4-(1-piperidyl)anilino]pyrrolidine-2,5-dione
> <PUBCHEM_IUPAC_CAS_NAME>
1-nonyl-3-[4-(1-piperidinyl)anilino]pyrrolidine-2,5-dione
> <PUBCHEM_IUPAC_NAME_MARKUP>
1-nonyl-3-(4-piperidin-1-ylanilino)pyrrolidine-2,5-dione
> <PUBCHEM_IUPAC_NAME>
1-nonyl-3-(4-piperidin-1-ylanilino)pyrrolidine-2,5-dione
> <PUBCHEM_IUPAC_SYSTEMATIC_NAME>
1-nonyl-3-[(4-piperidin-1-ylphenyl)amino]pyrrolidine-2,5-dione
> <PUBCHEM_IUPAC_TRADITIONAL_NAME>
1-nonyl-3-(4-piperidinoanilino)pyrrolidine-2,5-quinone
> <PUBCHEM_IUPAC_INCHI>
InChI=1S/C24H37N3O2/c1-2-3-4-5-6-7-11-18-27-23(28)19-22(24(27)29)25-20-12-14-21(15-13-20)26-16-9-8-10-17-26/h12-15,22,25H,2-11,16-19H2,1H3
> <PUBCHEM_IUPAC_INCHIKEY>
SFAKEJQWDHFPAX-UHFFFAOYSA-N
> <PUBCHEM_XLOGP3_AA>
5.9
> <PUBCHEM_EXACT_MASS>
399.28857743
> <PUBCHEM_MOLECULAR_FORMULA>
C24H37N3O2
> <PUBCHEM_MOLECULAR_WEIGHT>
399.6
> <PUBCHEM_OPENEYE_CAN_SMILES>
CCCCCCCCCN1C(=O)CC(C1=O)NC2=CC=C(C=C2)N3CCCCC3
> <PUBCHEM_OPENEYE_ISO_SMILES>
CCCCCCCCCN1C(=O)CC(C1=O)NC2=CC=C(C=C2)N3CCCCC3
> <PUBCHEM_CACTVS_TPSA>
52.6
> <PUBCHEM_MONOISOTOPIC_WEIGHT>
399.28857743
> <PUBCHEM_TOTAL_CHARGE>
0
> <PUBCHEM_HEAVY_ATOM_COUNT>
29
> <PUBCHEM_ATOM_DEF_STEREO_COUNT>
0
> <PUBCHEM_ATOM_UDEF_STEREO_COUNT>
1
> <PUBCHEM_BOND_DEF_STEREO_COUNT>
0
> <PUBCHEM_BOND_UDEF_STEREO_COUNT>
0
> <PUBCHEM_ISOTOPIC_ATOM_COUNT>
0
> <PUBCHEM_COMPONENT_COUNT>
1
> <PUBCHEM_CACTVS_TAUTO_COUNT>
-1
> <PUBCHEM_COORDINATE_TYPE>
1
5
255
> <PUBCHEM_BONDANNOTATIONS>
18  23  8
18  24  8
21  26  8
21  27  8
23  26  8
24  27  8
11  5  3
$$$$
