512852
  -OEChem-10302200282D
 63 64  0     1  0  0  0  0  0999 V2000
    4.5981    0.1559    0.0000 S   0  0  0  0  0  0  0  0  0  0  0  0
    4.8255    2.3195    0.0000 O   0  0  0  0  0  0  0  0  0  0  0  0
    8.0413    0.8877    0.0000 O   0  0  0  0  0  0  0  0  0  0  0  0
    2.0000   -2.3441    0.0000 O   0  0  0  0  0  0  0  0  0  0  0  0
    6.5468    1.8583    0.0000 N   0  0  0  0  0  0  0  0  0  0  0  0
    3.7320   -2.3441    0.0000 N   0  0  0  0  0  0  0  0  0  0  0  0
    7.9480    2.8764    0.0000 C   0  0  0  0  0  0  0  0  0  0  0  0
    6.9535    2.7718    0.0000 C   0  0  0  0  0  0  0  0  0  0  0  0
    8.3548    3.7899    0.0000 C   0  0  0  0  0  0  0  0  0  0  0  0
    9.3493    3.8944    0.0000 C   0  0  0  0  0  0  0  0  0  0  0  0
    5.4641    0.6559    0.0000 C   0  0  3  0  0  0  0  0  0  0  0  0
    6.3776    0.2491    0.0000 C   0  0  0  0  0  0  0  0  0  0  0  0
    9.7560    4.8080    0.0000 C   0  0  0  0  0  0  0  0  0  0  0  0
    5.5686    1.6504    0.0000 C   0  0  0  0  0  0  0  0  0  0  0  0
    7.0468    0.9923    0.0000 C   0  0  0  0  0  0  0  0  0  0  0  0
   10.7506    4.9125    0.0000 C   0  0  0  0  0  0  0  0  0  0  0  0
   11.1573    5.8261    0.0000 C   0  0  0  0  0  0  0  0  0  0  0  0
   12.1518    5.9306    0.0000 C   0  0  0  0  0  0  0  0  0  0  0  0
    4.5981   -0.8441    0.0000 C   0  0  0  0  0  0  0  0  0  0  0  0
    3.7320   -1.3441    0.0000 C   0  0  0  0  0  0  0  0  0  0  0  0
   12.5585    6.8441    0.0000 C   0  0  0  0  0  0  0  0  0  0  0  0
    2.8660   -2.8441    0.0000 C   0  0  0  0  0  0  0  0  0  0  0  0
    2.8660   -3.8441    0.0000 C   0  0  0  0  0  0  0  0  0  0  0  0
    3.7320   -4.3441    0.0000 C   0  0  0  0  0  0  0  0  0  0  0  0
    2.0000   -4.3441    0.0000 C   0  0  0  0  0  0  0  0  0  0  0  0
    2.8660   -5.8441    0.0000 C   0  0  0  0  0  0  0  0  0  0  0  0
    3.7320   -5.3441    0.0000 C   0  0  0  0  0  0  0  0  0  0  0  0
    2.0000   -5.3441    0.0000 C   0  0  0  0  0  0  0  0  0  0  0  0
    2.8660   -6.8441    0.0000 C   0  0  0  0  0  0  0  0  0  0  0  0
    7.9048    2.2579    0.0000 H   0  0  0  0  0  0  0  0  0  0  0  0
    8.5496    2.7264    0.0000 H   0  0  0  0  0  0  0  0  0  0  0  0
    6.9968    3.3903    0.0000 H   0  0  0  0  0  0  0  0  0  0  0  0
    6.3519    2.9218    0.0000 H   0  0  0  0  0  0  0  0  0  0  0  0
    8.3980    4.4084    0.0000 H   0  0  0  0  0  0  0  0  0  0  0  0
    7.7532    3.9399    0.0000 H   0  0  0  0  0  0  0  0  0  0  0  0
    9.3061    3.2760    0.0000 H   0  0  0  0  0  0  0  0  0  0  0  0
    9.9509    3.7444    0.0000 H   0  0  0  0  0  0  0  0  0  0  0  0
    4.9441    0.9935    0.0000 H   0  0  0  0  0  0  0  0  0  0  0  0
    6.0677   -0.2878    0.0000 H   0  0  0  0  0  0  0  0  0  0  0  0
    6.8792   -0.1153    0.0000 H   0  0  0  0  0  0  0  0  0  0  0  0
    9.7993    5.4265    0.0000 H   0  0  0  0  0  0  0  0  0  0  0  0
    9.1544    4.9580    0.0000 H   0  0  0  0  0  0  0  0  0  0  0  0
   10.7073    4.2940    0.0000 H   0  0  0  0  0  0  0  0  0  0  0  0
   11.3521    4.7625    0.0000 H   0  0  0  0  0  0  0  0  0  0  0  0
   11.2005    6.4445    0.0000 H   0  0  0  0  0  0  0  0  0  0  0  0
   10.5557    5.9761    0.0000 H   0  0  0  0  0  0  0  0  0  0  0  0
   12.1086    5.3121    0.0000 H   0  0  0  0  0  0  0  0  0  0  0  0
   12.7534    5.7806    0.0000 H   0  0  0  0  0  0  0  0  0  0  0  0
    4.8101   -1.4268    0.0000 H   0  0  0  0  0  0  0  0  0  0  0  0
    5.2087   -0.7365    0.0000 H   0  0  0  0  0  0  0  0  0  0  0  0
    3.5200   -0.7615    0.0000 H   0  0  0  0  0  0  0  0  0  0  0  0
    3.1215   -1.4518    0.0000 H   0  0  0  0  0  0  0  0  0  0  0  0
   13.1249    6.5920    0.0000 H   0  0  0  0  0  0  0  0  0  0  0  0
   12.8107    7.4105    0.0000 H   0  0  0  0  0  0  0  0  0  0  0  0
   11.9922    7.0963    0.0000 H   0  0  0  0  0  0  0  0  0  0  0  0
    4.2690   -2.6541    0.0000 H   0  0  0  0  0  0  0  0  0  0  0  0
    4.2690   -4.0341    0.0000 H   0  0  0  0  0  0  0  0  0  0  0  0
    1.4631   -4.0341    0.0000 H   0  0  0  0  0  0  0  0  0  0  0  0
    4.2690   -5.6541    0.0000 H   0  0  0  0  0  0  0  0  0  0  0  0
    1.4631   -5.6541    0.0000 H   0  0  0  0  0  0  0  0  0  0  0  0
    2.2460   -6.8441    0.0000 H   0  0  0  0  0  0  0  0  0  0  0  0
    2.8660   -7.4641    0.0000 H   0  0  0  0  0  0  0  0  0  0  0  0
    3.4860   -6.8441    0.0000 H   0  0  0  0  0  0  0  0  0  0  0  0
  1 11  1  0  0  0  0
  1 19  1  0  0  0  0
  2 14  2  0  0  0  0
  3 15  2  0  0  0  0
  4 22  2  0  0  0  0
  5  8  1  0  0  0  0
  5 14  1  0  0  0  0
  5 15  1  0  0  0  0
  6 20  1  0  0  0  0
  6 22  1  0  0  0  0
  6 56  1  0  0  0  0
  7  8  1  0  0  0  0
  7  9  1  0  0  0  0
  7 30  1  0  0  0  0
  7 31  1  0  0  0  0
  8 32  1  0  0  0  0
  8 33  1  0  0  0  0
  9 10  1  0  0  0  0
  9 34  1  0  0  0  0
  9 35  1  0  0  0  0
 10 13  1  0  0  0  0
 10 36  1  0  0  0  0
 10 37  1  0  0  0  0
 11 12  1  0  0  0  0
 11 14  1  0  0  0  0
 11 38  1  0  0  0  0
 12 15  1  0  0  0  0
 12 39  1  0  0  0  0
 12 40  1  0  0  0  0
 13 16  1  0  0  0  0
 13 41  1  0  0  0  0
 13 42  1  0  0  0  0
 16 17  1  0  0  0  0
 16 43  1  0  0  0  0
 16 44  1  0  0  0  0
 17 18  1  0  0  0  0
 17 45  1  0  0  0  0
 17 46  1  0  0  0  0
 18 21  1  0  0  0  0
 18 47  1  0  0  0  0
 18 48  1  0  0  0  0
 19 20  1  0  0  0  0
 19 49  1  0  0  0  0
 19 50  1  0  0  0  0
 20 51  1  0  0  0  0
 20 52  1  0  0  0  0
 21 53  1  0  0  0  0
 21 54  1  0  0  0  0
 21 55  1  0  0  0  0
 22 23  1  0  0  0  0
 23 24  2  0  0  0  0
 23 25  1  0  0  0  0
 24 27  1  0  0  0  0
 24 57  1  0  0  0  0
 25 28  2  0  0  0  0
 25 58  1  0  0  0  0
 26 27  2  0  0  0  0
 26 28  1  0  0  0  0
 26 29  1  0  0  0  0
 27 59  1  0  0  0  0
 28 60  1  0  0  0  0
 29 61  1  0  0  0  0
 29 62  1  0  0  0  0
 29 63  1  0  0  0  0
M  END
> <PUBCHEM_COMPOUND_CID>
512852
> <PUBCHEM_COMPOUND_CANONICALIZED>
1
> <PUBCHEM_CACTVS_COMPLEXITY>
532
> <PUBCHEM_CACTVS_HBOND_ACCEPTOR>
4
> <PUBCHEM_CACTVS_HBOND_DONOR>
1
> <PUBCHEM_CACTVS_ROTATABLE_BOND>
13
> <PUBCHEM_CACTVS_SUBSKEYS>
AAADcfB7MABAAAAAAAAAAAAAAAAAAWAAAAAwAAAAAAAAAAABAAAAHgQQAAAADADF2ASyAIPAAAiIAiFSEACCAAAkABAIiIEIBMgIIDKglRGEIQhgliCoiYcdiICOQAAAAAAAAACAAAAAAAAAAAAAAAAAAA==
> <PUBCHEM_IUPAC_OPENEYE_NAME>
4-methyl-N-[2-(1-nonyl-2,5-dioxo-pyrrolidin-3-yl)sulfanylethyl]benzamide
> <PUBCHEM_IUPAC_CAS_NAME>
4-methyl-N-[2-[(1-nonyl-2,5-dioxo-3-pyrrolidinyl)thio]ethyl]benzamide
> <PUBCHEM_IUPAC_NAME_MARKUP>
4-methyl-<I>N</I>-[2-(1-nonyl-2,5-dioxopyrrolidin-3-yl)sulfanylethyl]benzamide
> <PUBCHEM_IUPAC_NAME>
4-methyl-N-[2-(1-nonyl-2,5-dioxopyrrolidin-3-yl)sulfanylethyl]benzamide
> <PUBCHEM_IUPAC_SYSTEMATIC_NAME>
4-methyl-N-[2-[1-nonyl-2,5-bis(oxidanylidene)pyrrolidin-3-yl]sulfanylethyl]benzamide
> <PUBCHEM_IUPAC_TRADITIONAL_NAME>
N-[2-[(2,5-diketo-1-nonyl-pyrrolidin-3-yl)thio]ethyl]-4-methyl-benzamide
> <PUBCHEM_IUPAC_INCHI>
InChI=1S/C23H34N2O3S/c1-3-4-5-6-7-8-9-15-25-21(26)17-20(23(25)28)29-16-14-24-22(27)19-12-10-18(2)11-13-19/h10-13,20H,3-9,14-17H2,1-2H3,(H,24,27)
> <PUBCHEM_IUPAC_INCHIKEY>
IZKUGHCMWHOGMP-UHFFFAOYSA-N
> <PUBCHEM_XLOGP3_AA>
5.2
> <PUBCHEM_EXACT_MASS>
418.22901412
> <PUBCHEM_MOLECULAR_FORMULA>
C23H34N2O3S
> <PUBCHEM_MOLECULAR_WEIGHT>
418.6
> <PUBCHEM_OPENEYE_CAN_SMILES>
CCCCCCCCCN1C(=O)CC(C1=O)SCCNC(=O)C2=CC=C(C=C2)C
> <PUBCHEM_OPENEYE_ISO_SMILES>
CCCCCCCCCN1C(=O)CC(C1=O)SCCNC(=O)C2=CC=C(C=C2)C
> <PUBCHEM_CACTVS_TPSA>
91.8
> <PUBCHEM_MONOISOTOPIC_WEIGHT>
418.22901412
> <PUBCHEM_TOTAL_CHARGE>
0
> <PUBCHEM_HEAVY_ATOM_COUNT>
29
> <PUBCHEM_ATOM_DEF_STEREO_COUNT>
0
> <PUBCHEM_ATOM_UDEF_STEREO_COUNT>
1
> <PUBCHEM_BOND_DEF_STEREO_COUNT>
0
> <PUBCHEM_BOND_UDEF_STEREO_COUNT>
0
> <PUBCHEM_ISOTOPIC_ATOM_COUNT>
0
> <PUBCHEM_COMPONENT_COUNT>
1
> <PUBCHEM_CACTVS_TAUTO_COUNT>
-1
> <PUBCHEM_COORDINATE_TYPE>
1
5
255
> <PUBCHEM_BONDANNOTATIONS>
11  1  3
23  24  8
23  25  8
24  27  8
25  28  8
26  27  8
26  28  8
$$$$
