512801
  -OEChem-10302200282D
 53 55  0     1  0  0  0  0  0999 V2000
    5.2189    0.0000    0.0000 Cl  0  0  0  0  0  0  0  0  0  0  0  0
    6.6651    3.4932    0.0000 F   0  0  0  0  0  0  0  0  0  0  0  0
    3.1350    2.5174    0.0000 O   0  0  0  0  0  0  0  0  0  0  0  0
    0.5369    4.0174    0.0000 O   0  0  0  0  0  0  0  0  0  0  0  0
    1.4030    2.5174    0.0000 O   0  0  0  0  0  0  0  0  0  0  0  0
    6.6651    5.5415    0.0000 N   0  0  3  0  0  0  0  0  0  0  0  0
    4.0010    4.0174    0.0000 N   0  0  0  0  0  0  0  0  0  0  0  0
    9.2414    5.7833    0.0000 N   0  0  0  0  0  0  0  0  0  0  0  0
    3.1350    6.5174    0.0000 C   0  0  0  0  0  0  0  0  0  0  0  0
    3.6350    7.3834    0.0000 C   0  0  0  0  0  0  0  0  0  0  0  0
    2.6350    7.3834    0.0000 C   0  0  0  0  0  0  0  0  0  0  0  0
    3.1350    5.5174    0.0000 C   0  0  0  0  0  0  0  0  0  0  0  0
    8.2465    5.8840    0.0000 C   0  0  3  0  0  0  0  0  0  0  0  0
    4.0010    5.0174    0.0000 C   0  0  0  0  0  0  0  0  0  0  0  0
    7.5802    5.1383    0.0000 C   0  0  0  0  0  0  0  0  0  0  0  0
    7.7432    6.7481    0.0000 C   0  0  0  0  0  0  0  0  0  0  0  0
    6.7658    6.5364    0.0000 C   0  0  0  0  0  0  0  0  0  0  0  0
    5.8010    5.0382    0.0000 C   0  0  0  0  0  0  0  0  0  0  0  0
    4.8950    5.5520    0.0000 C   0  0  0  0  0  0  0  0  0  0  0  0
    2.2690    5.0174    0.0000 C   0  0  0  0  0  0  0  0  0  0  0  0
    5.8010    3.9965    0.0000 C   0  0  0  0  0  0  0  0  0  0  0  0
    2.2690    4.0174    0.0000 C   0  0  0  0  0  0  0  0  0  0  0  0
    4.8950    3.4827    0.0000 C   0  0  0  0  0  0  0  0  0  0  0  0
    3.1350    3.5174    0.0000 C   0  0  0  0  0  0  0  0  0  0  0  0
    4.8834    6.5519    0.0000 C   0  0  0  0  0  0  0  0  0  0  0  0
    9.8261    6.5946    0.0000 C   0  0  0  0  0  0  0  0  0  0  0  0
    1.4030    3.5174    0.0000 C   0  0  0  0  0  0  0  0  0  0  0  0
   10.8210    6.4939    0.0000 C   0  0  0  0  0  0  0  0  0  0  0  0
    2.5361    6.3569    0.0000 H   0  0  0  0  0  0  0  0  0  0  0  0
    4.2176    7.1713    0.0000 H   0  0  0  0  0  0  0  0  0  0  0  0
    3.7427    7.9940    0.0000 H   0  0  0  0  0  0  0  0  0  0  0  0
    2.5274    7.9940    0.0000 H   0  0  0  0  0  0  0  0  0  0  0  0
    2.0524    7.1713    0.0000 H   0  0  0  0  0  0  0  0  0  0  0  0
    8.5822    6.4053    0.0000 H   0  0  0  0  0  0  0  0  0  0  0  0
    7.2723    4.6002    0.0000 H   0  0  0  0  0  0  0  0  0  0  0  0
    8.0832    4.7758    0.0000 H   0  0  0  0  0  0  0  0  0  0  0  0
    8.3086    7.0024    0.0000 H   0  0  0  0  0  0  0  0  0  0  0  0
    7.5493    7.3370    0.0000 H   0  0  0  0  0  0  0  0  0  0  0  0
    6.6986    7.1528    0.0000 H   0  0  0  0  0  0  0  0  0  0  0  0
    6.1458    6.5340    0.0000 H   0  0  0  0  0  0  0  0  0  0  0  0
    1.7320    5.3274    0.0000 H   0  0  0  0  0  0  0  0  0  0  0  0
    9.4958    5.2179    0.0000 H   0  0  0  0  0  0  0  0  0  0  0  0
    4.8878    2.8627    0.0000 H   0  0  0  0  0  0  0  0  0  0  0  0
    5.5034    6.5591    0.0000 H   0  0  0  0  0  0  0  0  0  0  0  0
    4.8762    7.1719    0.0000 H   0  0  0  0  0  0  0  0  0  0  0  0
    4.2635    6.5448    0.0000 H   0  0  0  0  0  0  0  0  0  0  0  0
    9.9947    7.1912    0.0000 H   0  0  0  0  0  0  0  0  0  0  0  0
    9.2678    6.8642    0.0000 H   0  0  0  0  0  0  0  0  0  0  0  0
   10.7586    5.8770    0.0000 H   0  0  0  0  0  0  0  0  0  0  0  0
   11.4379    6.4315    0.0000 H   0  0  0  0  0  0  0  0  0  0  0  0
   10.8834    7.1107    0.0000 H   0  0  0  0  0  0  0  0  0  0  0  0
    0.0000    3.7074    0.0000 H   0  0  0  0  0  0  0  0  0  0  0  0
    6.2189    0.0000    0.0000 H   0  0  0  0  0  0  0  0  0  0  0  0
  1 53  1  0  0  0  0
  2 21  1  0  0  0  0
  3 24  2  0  0  0  0
  4 27  1  0  0  0  0
  4 52  1  0  0  0  0
  5 27  2  0  0  0  0
  6 15  1  0  0  0  0
  6 17  1  0  0  0  0
  6 18  1  0  0  0  0
  7 14  1  0  0  0  0
  7 23  1  0  0  0  0
  7 24  1  0  0  0  0
  8 13  1  0  0  0  0
  8 26  1  0  0  0  0
  8 42  1  0  0  0  0
  9 10  1  0  0  0  0
  9 11  1  0  0  0  0
  9 12  1  0  0  0  0
  9 29  1  0  0  0  0
 10 11  1  0  0  0  0
 10 30  1  0  0  0  0
 10 31  1  0  0  0  0
 11 32  1  0  0  0  0
 11 33  1  0  0  0  0
 12 14  2  0  0  0  0
 12 20  1  0  0  0  0
 13 15  1  0  0  0  0
 13 16  1  0  0  0  0
 13 34  1  0  0  0  0
 14 19  1  0  0  0  0
 15 35  1  0  0  0  0
 15 36  1  0  0  0  0
 16 17  1  0  0  0  0
 16 37  1  0  0  0  0
 16 38  1  0  0  0  0
 17 39  1  0  0  0  0
 17 40  1  0  0  0  0
 18 19  2  0  0  0  0
 18 21  1  0  0  0  0
 19 25  1  0  0  0  0
 20 22  2  0  0  0  0
 20 41  1  0  0  0  0
 21 23  2  0  0  0  0
 22 24  1  0  0  0  0
 22 27  1  0  0  0  0
 23 43  1  0  0  0  0
 25 44  1  0  0  0  0
 25 45  1  0  0  0  0
 25 46  1  0  0  0  0
 26 28  1  0  0  0  0
 26 47  1  0  0  0  0
 26 48  1  0  0  0  0
 28 49  1  0  0  0  0
 28 50  1  0  0  0  0
 28 51  1  0  0  0  0
M  END
> <PUBCHEM_COMPOUND_CID>
512801
> <PUBCHEM_COMPOUND_CANONICALIZED>
1
> <PUBCHEM_CACTVS_COMPLEXITY>
835
> <PUBCHEM_CACTVS_HBOND_ACCEPTOR>
6
> <PUBCHEM_CACTVS_HBOND_DONOR>
3
> <PUBCHEM_CACTVS_ROTATABLE_BOND>
5
> <PUBCHEM_CACTVS_SUBSKEYS>
AAADceB7MQAEAAAAAAAAAAAAGAAAAWAAAAAgQAAAAAAAAACAAAAAHwAQCAAADSjBgAQCCAPAAgCIAiXWWACAAAAgAAAACIEIAEgIRA4IwAAUUAACtgCIkYIAAAAIAAAAAAAAAAAAAAAAAAAAAAAAAAAAAA==
> <PUBCHEM_IUPAC_OPENEYE_NAME>
1-cyclopropyl-8-[3-(ethylamino)pyrrolidin-1-yl]-7-fluoro-9-methyl-4-oxo-quinolizine-3-carboxylic acid;hydrochloride
> <PUBCHEM_IUPAC_CAS_NAME>
1-cyclopropyl-8-[3-(ethylamino)-1-pyrrolidinyl]-7-fluoro-9-methyl-4-oxo-3-quinolizinecarboxylic acid;hydrochloride
> <PUBCHEM_IUPAC_NAME_MARKUP>
1-cyclopropyl-8-[3-(ethylamino)pyrrolidin-1-yl]-7-fluoro-9-methyl-4-oxoquinolizine-3-carboxylic acid;hydrochloride
> <PUBCHEM_IUPAC_NAME>
1-cyclopropyl-8-[3-(ethylamino)pyrrolidin-1-yl]-7-fluoro-9-methyl-4-oxoquinolizine-3-carboxylic acid;hydrochloride
> <PUBCHEM_IUPAC_SYSTEMATIC_NAME>
1-cyclopropyl-8-[3-(ethylamino)pyrrolidin-1-yl]-7-fluoranyl-9-methyl-4-oxidanylidene-quinolizine-3-carboxylic acid;hydrochloride
> <PUBCHEM_IUPAC_TRADITIONAL_NAME>
1-cyclopropyl-8-[3-(ethylamino)pyrrolidino]-7-fluoro-4-keto-9-methyl-quinolizine-3-carboxylic acid;hydrochloride
> <PUBCHEM_IUPAC_INCHI>
InChI=1S/C20H24FN3O3.ClH/c1-3-22-13-6-7-23(9-13)18-11(2)17-14(12-4-5-12)8-15(20(26)27)19(25)24(17)10-16(18)21;/h8,10,12-13,22H,3-7,9H2,1-2H3,(H,26,27);1H
> <PUBCHEM_IUPAC_INCHIKEY>
MPSLVMHCXFKNMY-UHFFFAOYSA-N
> <PUBCHEM_EXACT_MASS>
409.1568475
> <PUBCHEM_MOLECULAR_FORMULA>
C20H25ClFN3O3
> <PUBCHEM_MOLECULAR_WEIGHT>
409.9
> <PUBCHEM_OPENEYE_CAN_SMILES>
CCNC1CCN(C1)C2=C(C3=C(C=C(C(=O)N3C=C2F)C(=O)O)C4CC4)C.Cl
> <PUBCHEM_OPENEYE_ISO_SMILES>
CCNC1CCN(C1)C2=C(C3=C(C=C(C(=O)N3C=C2F)C(=O)O)C4CC4)C.Cl
> <PUBCHEM_CACTVS_TPSA>
72.9
> <PUBCHEM_MONOISOTOPIC_WEIGHT>
409.1568475
> <PUBCHEM_TOTAL_CHARGE>
0
> <PUBCHEM_HEAVY_ATOM_COUNT>
28
> <PUBCHEM_ATOM_DEF_STEREO_COUNT>
0
> <PUBCHEM_ATOM_UDEF_STEREO_COUNT>
1
> <PUBCHEM_BOND_DEF_STEREO_COUNT>
0
> <PUBCHEM_BOND_UDEF_STEREO_COUNT>
0
> <PUBCHEM_ISOTOPIC_ATOM_COUNT>
0
> <PUBCHEM_COMPONENT_COUNT>
2
> <PUBCHEM_CACTVS_TAUTO_COUNT>
-1
> <PUBCHEM_COORDINATE_TYPE>
1
5
255
> <PUBCHEM_BONDANNOTATIONS>
12  14  8
12  20  8
14  19  8
18  19  8
18  21  8
20  22  8
21  23  8
22  24  8
7  14  8
7  23  8
7  24  8
13  8  3
$$$$
