512871
  -OEChem-10302200282D
 75 77  0     1  0  0  0  0  0999 V2000
    7.0285   -1.8530    0.0000 O   0  0  0  0  0  0  0  0  0  0  0  0
    5.2964    1.1470    0.0000 O   0  0  0  0  0  0  0  0  0  0  0  0
    5.2964   -1.8530    0.0000 O   0  0  0  0  0  0  0  0  0  0  0  0
    5.2964   -0.8530    0.0000 O   0  0  0  0  0  0  0  0  0  0  0  0
    5.5972    2.8528    0.0000 O   0  0  0  0  0  0  0  0  0  0  0  0
    3.3268    1.4943    0.0000 O   0  0  0  0  0  0  0  0  0  0  0  0
    4.4440    4.9509    0.0000 O   0  0  0  0  0  0  0  0  0  0  0  0
    5.2964   -4.8530    0.0000 O   0  0  0  0  0  0  0  0  0  0  0  0
    3.5644   -3.8530    0.0000 O   0  0  0  0  0  0  0  0  0  0  0  0
    8.7605   -0.8530    0.0000 N   0  0  0  0  0  0  0  0  0  0  0  0
    7.3705    2.0867    0.0000 N   0  0  0  0  0  0  0  0  0  0  0  0
    2.6428    3.3737    0.0000 N   0  0  0  0  0  0  0  0  0  0  0  0
    7.0285   -3.8530    0.0000 N   0  0  0  0  0  0  0  0  0  0  0  0
    2.6984   -2.3530    0.0000 N   0  0  0  0  0  0  0  0  0  0  0  0
    7.0285   -0.8530    0.0000 C   0  0  1  0  0  0  0  0  0  0  0  0
    6.1625    0.6470    0.0000 C   0  0  2  0  0  0  0  0  0  0  0  0
    6.1625   -0.3530    0.0000 C   0  0  1  0  0  0  0  0  0  0  0  0
    7.8945   -0.3530    0.0000 C   0  0  2  0  0  0  0  0  0  0  0  0
    7.0285    1.1470    0.0000 C   0  0  1  0  0  0  0  0  0  0  0  0
    7.8945    0.6470    0.0000 C   0  0  0  0  0  0  0  0  0  0  0  0
    6.1625   -2.3530    0.0000 C   0  0  1  0  0  0  0  0  0  0  0  0
    4.9544    2.0867    0.0000 C   0  0  1  0  0  0  0  0  0  0  0  0
    6.1625   -3.3530    0.0000 C   0  0  1  0  0  0  0  0  0  0  0  0
    3.6276    3.2001    0.0000 C   0  0  2  0  0  0  0  0  0  0  0  0
    3.9696    2.2604    0.0000 C   0  0  1  0  0  0  0  0  0  0  0  0
    4.2704    3.9661    0.0000 C   0  0  2  0  0  0  0  0  0  0  0  0
    5.2964   -3.8530    0.0000 C   0  0  2  0  0  0  0  0  0  0  0  0
    4.4304   -2.3530    0.0000 C   0  0  1  0  0  0  0  0  0  0  0  0
    4.4304   -3.3530    0.0000 C   0  0  1  0  0  0  0  0  0  0  0  0
    5.2552    3.7925    0.0000 C   0  0  0  0  0  0  0  0  0  0  0  0
    3.5644   -1.8530    0.0000 C   0  0  2  0  0  0  0  0  0  0  0  0
    3.5043    4.6089    0.0000 C   0  0  0  0  0  0  0  0  0  0  0  0
    3.5644   -0.8530    0.0000 C   0  0  0  0  0  0  0  0  0  0  0  0
    2.0000    2.6077    0.0000 C   0  0  0  0  0  0  0  0  0  0  0  0
    7.5654   -1.1630    0.0000 H   0  0  0  0  0  0  0  0  0  0  0  0
    6.1625    1.2670    0.0000 H   0  0  0  0  0  0  0  0  0  0  0  0
    6.1625   -0.9730    0.0000 H   0  0  0  0  0  0  0  0  0  0  0  0
    8.4315   -0.0430    0.0000 H   0  0  0  0  0  0  0  0  0  0  0  0
    6.5536    1.5456    0.0000 H   0  0  0  0  0  0  0  0  0  0  0  0
    8.5051    0.5394    0.0000 H   0  0  0  0  0  0  0  0  0  0  0  0
    8.1066    1.2296    0.0000 H   0  0  0  0  0  0  0  0  0  0  0  0
    6.1625   -1.7330    0.0000 H   0  0  0  0  0  0  0  0  0  0  0  0
    4.5559    1.6118    0.0000 H   0  0  0  0  0  0  0  0  0  0  0  0
    6.6994   -3.0430    0.0000 H   0  0  0  0  0  0  0  0  0  0  0  0
    3.4155    3.7827    0.0000 H   0  0  0  0  0  0  0  0  0  0  0  0
    3.3590    2.3680    0.0000 H   0  0  0  0  0  0  0  0  0  0  0  0
    5.8334   -4.1630    0.0000 H   0  0  0  0  0  0  0  0  0  0  0  0
    4.4304   -1.5030    0.0000 H   0  0  0  0  0  0  0  0  0  0  0  0
    3.8935   -3.0430    0.0000 H   0  0  0  0  0  0  0  0  0  0  0  0
    5.8658    3.9001    0.0000 H   0  0  0  0  0  0  0  0  0  0  0  0
    5.2552    4.4125    0.0000 H   0  0  0  0  0  0  0  0  0  0  0  0
    9.2975   -0.5430    0.0000 H   0  0  0  0  0  0  0  0  0  0  0  0
    8.7605   -1.4730    0.0000 H   0  0  0  0  0  0  0  0  0  0  0  0
    7.9811    2.1944    0.0000 H   0  0  0  0  0  0  0  0  0  0  0  0
    6.9720    2.5617    0.0000 H   0  0  0  0  0  0  0  0  0  0  0  0
    4.7595   -0.5430    0.0000 H   0  0  0  0  0  0  0  0  0  0  0  0
    3.5644   -2.4730    0.0000 H   0  0  0  0  0  0  0  0  0  0  0  0
    3.9029    5.0838    0.0000 H   0  0  0  0  0  0  0  0  0  0  0  0
    3.0294    5.0074    0.0000 H   0  0  0  0  0  0  0  0  0  0  0  0
    3.1058    4.1339    0.0000 H   0  0  0  0  0  0  0  0  0  0  0  0
    2.4307    3.9563    0.0000 H   0  0  0  0  0  0  0  0  0  0  0  0
    7.0285   -4.4730    0.0000 H   0  0  0  0  0  0  0  0  0  0  0  0
    7.5654   -3.5430    0.0000 H   0  0  0  0  0  0  0  0  0  0  0  0
    3.5389    0.9117    0.0000 H   0  0  0  0  0  0  0  0  0  0  0  0
    5.0266    5.1630    0.0000 H   0  0  0  0  0  0  0  0  0  0  0  0
    4.7595   -5.1630    0.0000 H   0  0  0  0  0  0  0  0  0  0  0  0
    4.1844   -0.8530    0.0000 H   0  0  0  0  0  0  0  0  0  0  0  0
    3.5644   -0.2330    0.0000 H   0  0  0  0  0  0  0  0  0  0  0  0
    2.9444   -0.8530    0.0000 H   0  0  0  0  0  0  0  0  0  0  0  0
    3.5644   -4.4730    0.0000 H   0  0  0  0  0  0  0  0  0  0  0  0
    2.1614   -2.0430    0.0000 H   0  0  0  0  0  0  0  0  0  0  0  0
    2.6984   -2.9730    0.0000 H   0  0  0  0  0  0  0  0  0  0  0  0
    1.5250    3.0062    0.0000 H   0  0  0  0  0  0  0  0  0  0  0  0
    1.6015    2.1327    0.0000 H   0  0  0  0  0  0  0  0  0  0  0  0
    2.4750    2.2091    0.0000 H   0  0  0  0  0  0  0  0  0  0  0  0
 15  1  1  1  0  0  0
 21  1  1  6  0  0  0
 16  2  1  1  0  0  0
 22  2  1  6  0  0  0
  3 21  1  0  0  0  0
  3 28  1  0  0  0  0
 17  4  1  6  0  0  0
  4 56  1  0  0  0  0
  5 22  1  0  0  0  0
  5 30  1  0  0  0  0
 25  6  1  6  0  0  0
  6 64  1  0  0  0  0
 26  7  1  1  0  0  0
  7 65  1  0  0  0  0
 27  8  1  1  0  0  0
  8 66  1  0  0  0  0
 29  9  1  6  0  0  0
  9 70  1  0  0  0  0
 18 10  1  6  0  0  0
 10 52  1  0  0  0  0
 10 53  1  0  0  0  0
 19 11  1  6  0  0  0
 11 54  1  0  0  0  0
 11 55  1  0  0  0  0
 24 12  1  1  0  0  0
 12 34  1  0  0  0  0
 12 61  1  0  0  0  0
 23 13  1  6  0  0  0
 13 62  1  0  0  0  0
 13 63  1  0  0  0  0
 31 14  1  1  0  0  0
 14 71  1  0  0  0  0
 14 72  1  0  0  0  0
 15 17  1  0  0  0  0
 15 18  1  0  0  0  0
 15 35  1  0  0  0  0
 16 17  1  0  0  0  0
 16 19  1  0  0  0  0
 16 36  1  0  0  0  0
 17 37  1  0  0  0  0
 18 20  1  0  0  0  0
 18 38  1  0  0  0  0
 19 20  1  0  0  0  0
 19 39  1  0  0  0  0
 20 40  1  0  0  0  0
 20 41  1  0  0  0  0
 21 23  1  0  0  0  0
 21 42  1  0  0  0  0
 22 25  1  0  0  0  0
 22 43  1  0  0  0  0
 23 27  1  0  0  0  0
 23 44  1  0  0  0  0
 24 25  1  0  0  0  0
 24 26  1  0  0  0  0
 24 45  1  0  0  0  0
 25 46  1  0  0  0  0
 26 30  1  0  0  0  0
 26 32  1  0  0  0  0
 27 29  1  0  0  0  0
 27 47  1  0  0  0  0
 28 29  1  0  0  0  0
 28 31  1  0  0  0  0
 28 48  1  6  0  0  0
 29 49  1  0  0  0  0
 30 50  1  0  0  0  0
 30 51  1  0  0  0  0
 31 33  1  0  0  0  0
 31 57  1  0  0  0  0
 32 58  1  0  0  0  0
 32 59  1  0  0  0  0
 32 60  1  0  0  0  0
 33 67  1  0  0  0  0
 33 68  1  0  0  0  0
 33 69  1  0  0  0  0
 34 73  1  0  0  0  0
 34 74  1  0  0  0  0
 34 75  1  0  0  0  0
M  END
> <PUBCHEM_COMPOUND_CID>
512871
> <PUBCHEM_COMPOUND_CANONICALIZED>
1
> <PUBCHEM_CACTVS_COMPLEXITY>
682
> <PUBCHEM_CACTVS_HBOND_ACCEPTOR>
14
> <PUBCHEM_CACTVS_HBOND_DONOR>
10
> <PUBCHEM_CACTVS_ROTATABLE_BOND>
6
> <PUBCHEM_CACTVS_SUBSKEYS>
AAADcfB7vAAAAAAAAAAAAAAAAAAAAAAAAAA0SIAAAAAAAAAAAAAAHgAQCAAADHzxgAcCCALABgAAAAAAAAAAAAAAAAAAAIAIAAATEAIAwAAnQAAHEAAXAAHw8C0MAAAAAAAAAAAAgAAUCACgAAAAAAAAAA==
> <PUBCHEM_IUPAC_OPENEYE_NAME>
(2R,3R,4R,5R)-2-[(1S,2S,3R,4S,6R)-4,6-diamino-3-[(2R,3R,4R,5S,6R)-3-amino-6-[(1S)-1-aminoethyl]-4,5-dihydroxy-tetrahydropyran-2-yl]oxy-2-hydroxy-cyclohexoxy]-5-methyl-4-(methylamino)tetrahydropyran-3,5-diol
> <PUBCHEM_IUPAC_CAS_NAME>
(2R,3R,4R,5R)-2-[(1S,2S,3R,4S,6R)-4,6-diamino-3-[[(2R,3R,4R,5S,6R)-3-amino-6-[(1S)-1-aminoethyl]-4,5-dihydroxy-2-oxanyl]oxy]-2-hydroxycyclohexyl]oxy-5-methyl-4-(methylamino)oxane-3,5-diol
> <PUBCHEM_IUPAC_NAME_MARKUP>
(2<I>R</I>,3<I>R</I>,4<I>R</I>,5<I>R</I>)-2-[(1<I>S</I>,2<I>S</I>,3<I>R</I>,4<I>S</I>,6<I>R</I>)-4,6-diamino-3-[(2<I>R</I>,3<I>R</I>,4<I>R</I>,5<I>S</I>,6<I>R</I>)-3-amino-6-[(1<I>S</I>)-1-aminoethyl]-4,5-dihydroxyoxan-2-yl]oxy-2-hydroxycyclohexyl]oxy-5-methyl-4-(methylamino)oxane-3,5-diol
> <PUBCHEM_IUPAC_NAME>
(2R,3R,4R,5R)-2-[(1S,2S,3R,4S,6R)-4,6-diamino-3-[(2R,3R,4R,5S,6R)-3-amino-6-[(1S)-1-aminoethyl]-4,5-dihydroxyoxan-2-yl]oxy-2-hydroxycyclohexyl]oxy-5-methyl-4-(methylamino)oxane-3,5-diol
> <PUBCHEM_IUPAC_SYSTEMATIC_NAME>
(2R,3R,4R,5R)-2-[(1S,2S,3R,4S,6R)-4,6-bis(azanyl)-3-[(2R,3R,4R,5S,6R)-3-azanyl-6-[(1S)-1-azanylethyl]-4,5-bis(oxidanyl)oxan-2-yl]oxy-2-oxidanyl-cyclohexyl]oxy-5-methyl-4-(methylamino)oxane-3,5-diol
> <PUBCHEM_IUPAC_TRADITIONAL_NAME>
(2R,3R,4R,5R)-2-[(1S,2S,3R,4S,6R)-4,6-diamino-3-[(2R,3R,4R,5S,6R)-3-amino-6-[(1S)-1-aminoethyl]-4,5-dihydroxy-tetrahydropyran-2-yl]oxy-2-hydroxy-cyclohexoxy]-5-methyl-4-(methylamino)tetrahydropyran-3,5-diol
> <PUBCHEM_IUPAC_INCHI>
InChI=1S/C20H41N5O9/c1-6(21)14-11(27)10(26)9(24)18(32-14)33-15-7(22)4-8(23)16(12(15)28)34-19-13(29)17(25-3)20(2,30)5-31-19/h6-19,25-30H,4-5,21-24H2,1-3H3/t6-,7-,8+,9+,10+,11-,12-,13+,14+,15+,16-,17+,18+,19+,20-/m0/s1
> <PUBCHEM_IUPAC_INCHIKEY>
WYJSPPYVEJPMJA-KVXRWBJUSA-N
> <PUBCHEM_XLOGP3_AA>
-6
> <PUBCHEM_EXACT_MASS>
495.29042790
> <PUBCHEM_MOLECULAR_FORMULA>
C20H41N5O9
> <PUBCHEM_MOLECULAR_WEIGHT>
495.6
> <PUBCHEM_OPENEYE_CAN_SMILES>
CC(C1C(C(C(C(O1)OC2C(CC(C(C2O)OC3C(C(C(CO3)(C)O)NC)O)N)N)N)O)O)N
> <PUBCHEM_OPENEYE_ISO_SMILES>
C[C@@H]([C@@H]1[C@H]([C@@H]([C@H]([C@H](O1)O[C@@H]2[C@H](C[C@H]([C@@H]([C@H]2O)O[C@@H]3[C@@H]([C@H]([C@@](CO3)(C)O)NC)O)N)N)N)O)O)N
> <PUBCHEM_CACTVS_TPSA>
254
> <PUBCHEM_MONOISOTOPIC_WEIGHT>
495.29042790
> <PUBCHEM_TOTAL_CHARGE>
0
> <PUBCHEM_HEAVY_ATOM_COUNT>
34
> <PUBCHEM_ATOM_DEF_STEREO_COUNT>
15
> <PUBCHEM_ATOM_UDEF_STEREO_COUNT>
0
> <PUBCHEM_BOND_DEF_STEREO_COUNT>
0
> <PUBCHEM_BOND_UDEF_STEREO_COUNT>
0
> <PUBCHEM_ISOTOPIC_ATOM_COUNT>
0
> <PUBCHEM_COMPONENT_COUNT>
1
> <PUBCHEM_CACTVS_TAUTO_COUNT>
-1
> <PUBCHEM_COORDINATE_TYPE>
1
5
255
> <PUBCHEM_BONDANNOTATIONS>
15  1  5
21  1  6
18  10  6
19  11  6
24  12  5
23  13  6
31  14  5
16  2  5
22  2  6
28  48  6
17  4  6
25  6  6
26  7  5
27  8  5
29  9  6
$$$$
