512817
  -OEChem-10302200282D
 47 49  0     1  0  0  0  0  0999 V2000
    4.3020    0.0000    0.0000 Cl  0  0  0  0  0  0  0  0  0  0  0  0
    6.6651    4.1490    0.0000 F   0  0  0  0  0  0  0  0  0  0  0  0
    3.1350    3.1731    0.0000 O   0  0  0  0  0  0  0  0  0  0  0  0
    0.5369    4.6731    0.0000 O   0  0  0  0  0  0  0  0  0  0  0  0
    1.4030    3.1731    0.0000 O   0  0  0  0  0  0  0  0  0  0  0  0
    6.6651    6.1973    0.0000 N   0  0  3  0  0  0  0  0  0  0  0  0
    4.0010    4.6731    0.0000 N   0  0  0  0  0  0  0  0  0  0  0  0
    9.2414    6.4391    0.0000 N   0  0  0  0  0  0  0  0  0  0  0  0
    3.1350    7.1731    0.0000 C   0  0  0  0  0  0  0  0  0  0  0  0
    3.6350    8.0392    0.0000 C   0  0  0  0  0  0  0  0  0  0  0  0
    2.6350    8.0392    0.0000 C   0  0  0  0  0  0  0  0  0  0  0  0
    3.1350    6.1731    0.0000 C   0  0  0  0  0  0  0  0  0  0  0  0
    4.0010    5.6731    0.0000 C   0  0  0  0  0  0  0  0  0  0  0  0
    8.2465    6.5398    0.0000 C   0  0  3  0  0  0  0  0  0  0  0  0
    7.5802    5.7941    0.0000 C   0  0  0  0  0  0  0  0  0  0  0  0
    6.7658    7.1922    0.0000 C   0  0  0  0  0  0  0  0  0  0  0  0
    7.7432    7.4039    0.0000 C   0  0  0  0  0  0  0  0  0  0  0  0
    5.8010    5.6940    0.0000 C   0  0  0  0  0  0  0  0  0  0  0  0
    2.2690    5.6731    0.0000 C   0  0  0  0  0  0  0  0  0  0  0  0
    4.8950    6.2078    0.0000 C   0  0  0  0  0  0  0  0  0  0  0  0
    4.8950    4.1385    0.0000 C   0  0  0  0  0  0  0  0  0  0  0  0
    5.8010    4.6523    0.0000 C   0  0  0  0  0  0  0  0  0  0  0  0
    2.2690    4.6731    0.0000 C   0  0  0  0  0  0  0  0  0  0  0  0
    3.1350    4.1731    0.0000 C   0  0  0  0  0  0  0  0  0  0  0  0
    4.8834    3.1385    0.0000 C   0  0  0  0  0  0  0  0  0  0  0  0
    1.4030    4.1731    0.0000 C   0  0  0  0  0  0  0  0  0  0  0  0
    2.5361    7.0127    0.0000 H   0  0  0  0  0  0  0  0  0  0  0  0
    4.2176    7.8271    0.0000 H   0  0  0  0  0  0  0  0  0  0  0  0
    3.7427    8.6497    0.0000 H   0  0  0  0  0  0  0  0  0  0  0  0
    2.5274    8.6497    0.0000 H   0  0  0  0  0  0  0  0  0  0  0  0
    2.0524    7.8271    0.0000 H   0  0  0  0  0  0  0  0  0  0  0  0
    8.5822    7.0611    0.0000 H   0  0  0  0  0  0  0  0  0  0  0  0
    7.2723    5.2560    0.0000 H   0  0  0  0  0  0  0  0  0  0  0  0
    8.0832    5.4316    0.0000 H   0  0  0  0  0  0  0  0  0  0  0  0
    6.6986    7.8086    0.0000 H   0  0  0  0  0  0  0  0  0  0  0  0
    6.1458    7.1898    0.0000 H   0  0  0  0  0  0  0  0  0  0  0  0
    8.3086    7.6582    0.0000 H   0  0  0  0  0  0  0  0  0  0  0  0
    7.5493    7.9928    0.0000 H   0  0  0  0  0  0  0  0  0  0  0  0
    1.7320    5.9831    0.0000 H   0  0  0  0  0  0  0  0  0  0  0  0
    4.8878    6.8278    0.0000 H   0  0  0  0  0  0  0  0  0  0  0  0
    9.6039    6.9421    0.0000 H   0  0  0  0  0  0  0  0  0  0  0  0
    9.4958    5.8737    0.0000 H   0  0  0  0  0  0  0  0  0  0  0  0
    4.2635    3.1457    0.0000 H   0  0  0  0  0  0  0  0  0  0  0  0
    4.8762    2.5186    0.0000 H   0  0  0  0  0  0  0  0  0  0  0  0
    5.5034    3.1314    0.0000 H   0  0  0  0  0  0  0  0  0  0  0  0
    0.0000    4.3631    0.0000 H   0  0  0  0  0  0  0  0  0  0  0  0
    5.3020    0.0000    0.0000 H   0  0  0  0  0  0  0  0  0  0  0  0
  1 47  1  0  0  0  0
  2 22  1  0  0  0  0
  3 24  2  0  0  0  0
  4 26  1  0  0  0  0
  4 46  1  0  0  0  0
  5 26  2  0  0  0  0
  6 15  1  0  0  0  0
  6 16  1  0  0  0  0
  6 18  1  0  0  0  0
  7 13  1  0  0  0  0
  7 21  1  0  0  0  0
  7 24  1  0  0  0  0
  8 14  1  0  0  0  0
  8 41  1  0  0  0  0
  8 42  1  0  0  0  0
  9 10  1  0  0  0  0
  9 11  1  0  0  0  0
  9 12  1  0  0  0  0
  9 27  1  0  0  0  0
 10 11  1  0  0  0  0
 10 28  1  0  0  0  0
 10 29  1  0  0  0  0
 11 30  1  0  0  0  0
 11 31  1  0  0  0  0
 12 13  2  0  0  0  0
 12 19  1  0  0  0  0
 13 20  1  0  0  0  0
 14 15  1  0  0  0  0
 14 17  1  0  0  0  0
 14 32  1  0  0  0  0
 15 33  1  0  0  0  0
 15 34  1  0  0  0  0
 16 17  1  0  0  0  0
 16 35  1  0  0  0  0
 16 36  1  0  0  0  0
 17 37  1  0  0  0  0
 17 38  1  0  0  0  0
 18 20  2  0  0  0  0
 18 22  1  0  0  0  0
 19 23  2  0  0  0  0
 19 39  1  0  0  0  0
 20 40  1  0  0  0  0
 21 22  2  0  0  0  0
 21 25  1  0  0  0  0
 23 24  1  0  0  0  0
 23 26  1  0  0  0  0
 25 43  1  0  0  0  0
 25 44  1  0  0  0  0
 25 45  1  0  0  0  0
M  END
> <PUBCHEM_COMPOUND_CID>
512817
> <PUBCHEM_COMPOUND_CANONICALIZED>
1
> <PUBCHEM_CACTVS_COMPLEXITY>
804
> <PUBCHEM_CACTVS_HBOND_ACCEPTOR>
6
> <PUBCHEM_CACTVS_HBOND_DONOR>
3
> <PUBCHEM_CACTVS_ROTATABLE_BOND>
3
> <PUBCHEM_CACTVS_SUBSKEYS>
AAADceB7MQAEAAAAAAAAAAAAGAAAAWAAAAAgQAAAAAAAAACAAAAAHwAQCAAADSjBgAQCCANAAgCIAiXSWACAAAAgAgAACIEIAEgIRA4IwAAUUAACtACIkYIAAAAIAAAAAAAAAAAAAAAAAAAAAAAAAAAAAA==
> <PUBCHEM_IUPAC_OPENEYE_NAME>
8-(3-aminopyrrolidin-1-yl)-1-cyclopropyl-7-fluoro-6-methyl-4-oxo-quinolizine-3-carboxylic acid;hydrochloride
> <PUBCHEM_IUPAC_CAS_NAME>
8-(3-amino-1-pyrrolidinyl)-1-cyclopropyl-7-fluoro-6-methyl-4-oxo-3-quinolizinecarboxylic acid;hydrochloride
> <PUBCHEM_IUPAC_NAME_MARKUP>
8-(3-aminopyrrolidin-1-yl)-1-cyclopropyl-7-fluoro-6-methyl-4-oxoquinolizine-3-carboxylic acid;hydrochloride
> <PUBCHEM_IUPAC_NAME>
8-(3-aminopyrrolidin-1-yl)-1-cyclopropyl-7-fluoro-6-methyl-4-oxoquinolizine-3-carboxylic acid;hydrochloride
> <PUBCHEM_IUPAC_SYSTEMATIC_NAME>
8-(3-azanylpyrrolidin-1-yl)-1-cyclopropyl-7-fluoranyl-6-methyl-4-oxidanylidene-quinolizine-3-carboxylic acid;hydrochloride
> <PUBCHEM_IUPAC_TRADITIONAL_NAME>
8-(3-aminopyrrolidino)-1-cyclopropyl-7-fluoro-4-keto-6-methyl-quinolizine-3-carboxylic acid;hydrochloride
> <PUBCHEM_IUPAC_INCHI>
InChI=1S/C18H20FN3O3.ClH/c1-9-16(19)15(21-5-4-11(20)8-21)7-14-12(10-2-3-10)6-13(18(24)25)17(23)22(9)14;/h6-7,10-11H,2-5,8,20H2,1H3,(H,24,25);1H
> <PUBCHEM_IUPAC_INCHIKEY>
VEWFNVFUCDCXEC-UHFFFAOYSA-N
> <PUBCHEM_EXACT_MASS>
381.1255474
> <PUBCHEM_MOLECULAR_FORMULA>
C18H21ClFN3O3
> <PUBCHEM_MOLECULAR_WEIGHT>
381.8
> <PUBCHEM_OPENEYE_CAN_SMILES>
CC1=C(C(=CC2=C(C=C(C(=O)N12)C(=O)O)C3CC3)N4CCC(C4)N)F.Cl
> <PUBCHEM_OPENEYE_ISO_SMILES>
CC1=C(C(=CC2=C(C=C(C(=O)N12)C(=O)O)C3CC3)N4CCC(C4)N)F.Cl
> <PUBCHEM_CACTVS_TPSA>
86.9
> <PUBCHEM_MONOISOTOPIC_WEIGHT>
381.1255474
> <PUBCHEM_TOTAL_CHARGE>
0
> <PUBCHEM_HEAVY_ATOM_COUNT>
26
> <PUBCHEM_ATOM_DEF_STEREO_COUNT>
0
> <PUBCHEM_ATOM_UDEF_STEREO_COUNT>
1
> <PUBCHEM_BOND_DEF_STEREO_COUNT>
0
> <PUBCHEM_BOND_UDEF_STEREO_COUNT>
0
> <PUBCHEM_ISOTOPIC_ATOM_COUNT>
0
> <PUBCHEM_COMPONENT_COUNT>
2
> <PUBCHEM_CACTVS_TAUTO_COUNT>
-1
> <PUBCHEM_COORDINATE_TYPE>
1
5
255
> <PUBCHEM_BONDANNOTATIONS>
12  13  8
12  19  8
13  20  8
18  20  8
18  22  8
19  23  8
21  22  8
23  24  8
7  13  8
7  21  8
7  24  8
14  8  3
$$$$
