512889
  -OEChem-10302200282D
 87 92  0     1  0  0  0  0  0999 V2000
   10.4228   -4.8535    0.0000 F   0  0  0  0  0  0  0  0  0  0  0  0
    2.4608   -2.8172    0.0000 O   0  0  0  0  0  0  0  0  0  0  0  0
    3.6197   -4.1044    0.0000 O   0  0  0  0  0  0  0  0  0  0  0  0
    5.5562   -3.4752    0.0000 N   0  0  3  0  0  0  0  0  0  0  0  0
    8.0049   -1.6388    0.0000 N   0  0  0  0  0  0  0  0  0  0  0  0
    7.1959    1.9490    0.0000 N   0  0  0  0  0  0  0  0  0  0  0  0
    7.5049    2.9001    0.0000 N   0  0  0  0  0  0  0  0  0  0  0  0
    7.1389   -3.1388    0.0000 C   0  0  2  0  0  0  0  0  0  0  0  0
    4.1550   -2.4571    0.0000 C   0  0  0  0  0  0  0  0  0  0  0  0
    7.0344   -4.1333    0.0000 C   0  0  2  0  0  0  0  0  0  0  0  0
    6.2253   -2.7320    0.0000 C   0  0  0  0  0  0  0  0  0  0  0  0
    4.5617   -3.3707    0.0000 C   0  0  0  0  0  0  0  0  0  0  0  0
    6.0562   -4.3412    0.0000 C   0  0  0  0  0  0  0  0  0  0  0  0
    8.0049   -2.6388    0.0000 C   0  0  0  0  0  0  0  0  0  0  0  0
    3.4858   -1.7140    0.0000 C   0  0  0  0  0  0  0  0  0  0  0  0
    5.0685   -2.0504    0.0000 C   0  0  0  0  0  0  0  0  0  0  0  0
    3.9858   -0.8479    0.0000 C   0  0  0  0  0  0  0  0  0  0  0  0
    4.9640   -1.0559    0.0000 C   0  0  0  0  0  0  0  0  0  0  0  0
    7.7775   -4.8024    0.0000 C   0  0  0  0  0  0  0  0  0  0  0  0
    7.1389   -1.1388    0.0000 C   0  0  0  0  0  0  0  0  0  0  0  0
    8.8709   -1.1388    0.0000 C   0  0  0  0  0  0  0  0  0  0  0  0
    3.4118   -3.1263    0.0000 C   0  0  0  0  0  0  0  0  0  0  0  0
    8.0049    0.3612    0.0000 C   0  0  0  0  0  0  0  0  0  0  0  0
    7.1389   -0.1388    0.0000 C   0  0  0  0  0  0  0  0  0  0  0  0
    8.8709   -0.1388    0.0000 C   0  0  0  0  0  0  0  0  0  0  0  0
    8.7286   -4.4934    0.0000 C   0  0  0  0  0  0  0  0  0  0  0  0
    7.5696   -5.7806    0.0000 C   0  0  0  0  0  0  0  0  0  0  0  0
    8.0049    1.3612    0.0000 C   0  0  0  0  0  0  0  0  0  0  0  0
    9.4717   -5.1626    0.0000 C   0  0  0  0  0  0  0  0  0  0  0  0
    8.3127   -6.4497    0.0000 C   0  0  0  0  0  0  0  0  0  0  0  0
    8.8139    1.9490    0.0000 C   0  0  0  0  0  0  0  0  0  0  0  0
    9.2638   -6.1407    0.0000 C   0  0  0  0  0  0  0  0  0  0  0  0
    8.5049    2.9001    0.0000 C   0  0  0  0  0  0  0  0  0  0  0  0
    6.2448    1.6400    0.0000 C   0  0  0  0  0  0  0  0  0  0  0  0
    9.0927    3.7091    0.0000 C   0  0  0  0  0  0  0  0  0  0  0  0
    5.5017    2.3091    0.0000 C   0  0  0  0  0  0  0  0  0  0  0  0
    8.6860    4.6226    0.0000 C   0  0  0  0  0  0  0  0  0  0  0  0
    7.6914    4.7272    0.0000 C   0  0  0  0  0  0  0  0  0  0  0  0
    9.2737    5.4316    0.0000 C   0  0  0  0  0  0  0  0  0  0  0  0
    7.2847    5.6407    0.0000 C   0  0  0  0  0  0  0  0  0  0  0  0
    8.8670    6.3452    0.0000 C   0  0  0  0  0  0  0  0  0  0  0  0
    7.8725    6.4497    0.0000 C   0  0  0  0  0  0  0  0  0  0  0  0
    7.1064   -2.5196    0.0000 H   0  0  0  0  0  0  0  0  0  0  0  0
    6.8739   -4.7322    0.0000 H   0  0  0  0  0  0  0  0  0  0  0  0
    6.5353   -2.1951    0.0000 H   0  0  0  0  0  0  0  0  0  0  0  0
    5.7238   -2.3676    0.0000 H   0  0  0  0  0  0  0  0  0  0  0  0
    3.9601   -3.5206    0.0000 H   0  0  0  0  0  0  0  0  0  0  0  0
    4.6049   -3.9892    0.0000 H   0  0  0  0  0  0  0  0  0  0  0  0
    5.4898   -4.5934    0.0000 H   0  0  0  0  0  0  0  0  0  0  0  0
    6.2478   -4.9309    0.0000 H   0  0  0  0  0  0  0  0  0  0  0  0
    8.2170   -3.2214    0.0000 H   0  0  0  0  0  0  0  0  0  0  0  0
    8.6155   -2.5311    0.0000 H   0  0  0  0  0  0  0  0  0  0  0  0
    2.9842   -1.3495    0.0000 H   0  0  0  0  0  0  0  0  0  0  0  0
    3.0710   -2.1747    0.0000 H   0  0  0  0  0  0  0  0  0  0  0  0
    5.2601   -2.6400    0.0000 H   0  0  0  0  0  0  0  0  0  0  0  0
    5.6750   -1.9215    0.0000 H   0  0  0  0  0  0  0  0  0  0  0  0
    4.1774   -0.2583    0.0000 H   0  0  0  0  0  0  0  0  0  0  0  0
    3.4194   -0.5958    0.0000 H   0  0  0  0  0  0  0  0  0  0  0  0
    5.5840   -1.0559    0.0000 H   0  0  0  0  0  0  0  0  0  0  0  0
    5.0288   -0.4393    0.0000 H   0  0  0  0  0  0  0  0  0  0  0  0
    6.5283   -1.0311    0.0000 H   0  0  0  0  0  0  0  0  0  0  0  0
    6.9268   -1.7214    0.0000 H   0  0  0  0  0  0  0  0  0  0  0  0
    9.0830   -1.7214    0.0000 H   0  0  0  0  0  0  0  0  0  0  0  0
    9.4815   -1.0311    0.0000 H   0  0  0  0  0  0  0  0  0  0  0  0
    8.5418    0.6712    0.0000 H   0  0  0  0  0  0  0  0  0  0  0  0
    6.9268    0.4438    0.0000 H   0  0  0  0  0  0  0  0  0  0  0  0
    6.5283   -0.2464    0.0000 H   0  0  0  0  0  0  0  0  0  0  0  0
    9.4815   -0.2464    0.0000 H   0  0  0  0  0  0  0  0  0  0  0  0
    9.0830    0.4438    0.0000 H   0  0  0  0  0  0  0  0  0  0  0  0
    8.8575   -3.8870    0.0000 H   0  0  0  0  0  0  0  0  0  0  0  0
    6.9799   -5.9722    0.0000 H   0  0  0  0  0  0  0  0  0  0  0  0
    2.0000   -3.2321    0.0000 H   0  0  0  0  0  0  0  0  0  0  0  0
    8.1838   -7.0562    0.0000 H   0  0  0  0  0  0  0  0  0  0  0  0
    9.4036    1.7574    0.0000 H   0  0  0  0  0  0  0  0  0  0  0  0
    9.7245   -6.5556    0.0000 H   0  0  0  0  0  0  0  0  0  0  0  0
    5.7563    1.2583    0.0000 H   0  0  0  0  0  0  0  0  0  0  0  0
    6.5359    1.0926    0.0000 H   0  0  0  0  0  0  0  0  0  0  0  0
    9.5234    3.2631    0.0000 H   0  0  0  0  0  0  0  0  0  0  0  0
    9.6067    4.0558    0.0000 H   0  0  0  0  0  0  0  0  0  0  0  0
    5.9166    2.7699    0.0000 H   0  0  0  0  0  0  0  0  0  0  0  0
    5.0409    2.7240    0.0000 H   0  0  0  0  0  0  0  0  0  0  0  0
    5.0868    1.8484    0.0000 H   0  0  0  0  0  0  0  0  0  0  0  0
    7.3270    4.2256    0.0000 H   0  0  0  0  0  0  0  0  0  0  0  0
    9.8904    5.3668    0.0000 H   0  0  0  0  0  0  0  0  0  0  0  0
    6.6681    5.7055    0.0000 H   0  0  0  0  0  0  0  0  0  0  0  0
    9.2314    6.8468    0.0000 H   0  0  0  0  0  0  0  0  0  0  0  0
    7.6203    7.0161    0.0000 H   0  0  0  0  0  0  0  0  0  0  0  0
  1 29  1  0  0  0  0
  2 22  1  0  0  0  0
  2 72  1  0  0  0  0
  3 22  2  0  0  0  0
  4 11  1  0  0  0  0
  4 12  1  0  0  0  0
  4 13  1  0  0  0  0
  5 14  1  0  0  0  0
  5 20  1  0  0  0  0
  5 21  1  0  0  0  0
  6  7  1  0  0  0  0
  6 28  1  0  0  0  0
  6 34  1  0  0  0  0
  7 33  2  0  0  0  0
  8 10  1  0  0  0  0
  8 11  1  0  0  0  0
  8 14  1  6  0  0  0
  8 43  1  0  0  0  0
  9 12  1  0  0  0  0
  9 15  1  0  0  0  0
  9 16  1  0  0  0  0
  9 22  1  0  0  0  0
 10 13  1  0  0  0  0
 10 19  1  1  0  0  0
 10 44  1  0  0  0  0
 11 45  1  0  0  0  0
 11 46  1  0  0  0  0
 12 47  1  0  0  0  0
 12 48  1  0  0  0  0
 13 49  1  0  0  0  0
 13 50  1  0  0  0  0
 14 51  1  0  0  0  0
 14 52  1  0  0  0  0
 15 17  1  0  0  0  0
 15 53  1  0  0  0  0
 15 54  1  0  0  0  0
 16 18  1  0  0  0  0
 16 55  1  0  0  0  0
 16 56  1  0  0  0  0
 17 18  1  0  0  0  0
 17 57  1  0  0  0  0
 17 58  1  0  0  0  0
 18 59  1  0  0  0  0
 18 60  1  0  0  0  0
 19 26  2  0  0  0  0
 19 27  1  0  0  0  0
 20 24  1  0  0  0  0
 20 61  1  0  0  0  0
 20 62  1  0  0  0  0
 21 25  1  0  0  0  0
 21 63  1  0  0  0  0
 21 64  1  0  0  0  0
 23 24  1  0  0  0  0
 23 25  1  0  0  0  0
 23 28  1  0  0  0  0
 23 65  1  0  0  0  0
 24 66  1  0  0  0  0
 24 67  1  0  0  0  0
 25 68  1  0  0  0  0
 25 69  1  0  0  0  0
 26 29  1  0  0  0  0
 26 70  1  0  0  0  0
 27 30  2  0  0  0  0
 27 71  1  0  0  0  0
 28 31  2  0  0  0  0
 29 32  2  0  0  0  0
 30 32  1  0  0  0  0
 30 73  1  0  0  0  0
 31 33  1  0  0  0  0
 31 74  1  0  0  0  0
 32 75  1  0  0  0  0
 33 35  1  0  0  0  0
 34 36  1  0  0  0  0
 34 76  1  0  0  0  0
 34 77  1  0  0  0  0
 35 37  1  0  0  0  0
 35 78  1  0  0  0  0
 35 79  1  0  0  0  0
 36 80  1  0  0  0  0
 36 81  1  0  0  0  0
 36 82  1  0  0  0  0
 37 38  2  0  0  0  0
 37 39  1  0  0  0  0
 38 40  1  0  0  0  0
 38 83  1  0  0  0  0
 39 41  2  0  0  0  0
 39 84  1  0  0  0  0
 40 42  2  0  0  0  0
 40 85  1  0  0  0  0
 41 42  1  0  0  0  0
 41 86  1  0  0  0  0
 42 87  1  0  0  0  0
M  END
> <PUBCHEM_COMPOUND_CID>
512889
> <PUBCHEM_COMPOUND_CANONICALIZED>
1
> <PUBCHEM_CACTVS_COMPLEXITY>
869
> <PUBCHEM_CACTVS_HBOND_ACCEPTOR>
6
> <PUBCHEM_CACTVS_HBOND_DONOR>
1
> <PUBCHEM_CACTVS_ROTATABLE_BOND>
10
> <PUBCHEM_CACTVS_SUBSKEYS>
AAADcfB/sQAAAAAAAAAAAAAAAAAAAeLEAAA8YIAAAAAAAAAB0AAAHwAICAAADwjBngwyiJMIAgCqAyTyTACSBAAhggAY2CE4ZJgIIDrA0dGE5AhmiADIyAeYyMAPgAAAAAAAAAAAAAAAAAAAAAAAAAAAAA==
> <PUBCHEM_IUPAC_OPENEYE_NAME>
1-[[(3S,4S)-3-[[4-(5-benzyl-2-ethyl-pyrazol-3-yl)-1-piperidyl]methyl]-4-(3-fluorophenyl)pyrrolidin-1-yl]methyl]cyclopentanecarboxylic acid
> <PUBCHEM_IUPAC_CAS_NAME>
1-[[(3S,4S)-3-[[4-[2-ethyl-5-(phenylmethyl)-3-pyrazolyl]-1-piperidinyl]methyl]-4-(3-fluorophenyl)-1-pyrrolidinyl]methyl]-1-cyclopentanecarboxylic acid
> <PUBCHEM_IUPAC_NAME_MARKUP>
1-[[(3<I>S</I>,4<I>S</I>)-3-[[4-(5-benzyl-2-ethylpyrazol-3-yl)piperidin-1-yl]methyl]-4-(3-fluorophenyl)pyrrolidin-1-yl]methyl]cyclopentane-1-carboxylic acid
> <PUBCHEM_IUPAC_NAME>
1-[[(3S,4S)-3-[[4-(5-benzyl-2-ethylpyrazol-3-yl)piperidin-1-yl]methyl]-4-(3-fluorophenyl)pyrrolidin-1-yl]methyl]cyclopentane-1-carboxylic acid
> <PUBCHEM_IUPAC_SYSTEMATIC_NAME>
1-[[(3S,4S)-3-[[4-[2-ethyl-5-(phenylmethyl)pyrazol-3-yl]piperidin-1-yl]methyl]-4-(3-fluorophenyl)pyrrolidin-1-yl]methyl]cyclopentane-1-carboxylic acid
> <PUBCHEM_IUPAC_TRADITIONAL_NAME>
1-[[(3S,4S)-3-[[4-(5-benzyl-2-ethyl-pyrazol-3-yl)piperidino]methyl]-4-(3-fluorophenyl)pyrrolidino]methyl]cyclopentanecarboxylic acid
> <PUBCHEM_IUPAC_INCHI>
InChI=1S/C35H45FN4O2/c1-2-40-33(21-31(37-40)19-26-9-4-3-5-10-26)27-13-17-38(18-14-27)22-29-23-39(25-35(34(41)42)15-6-7-16-35)24-32(29)28-11-8-12-30(36)20-28/h3-5,8-12,20-21,27,29,32H,2,6-7,13-19,22-25H2,1H3,(H,41,42)/t29-,32+/m0/s1
> <PUBCHEM_IUPAC_INCHIKEY>
WYYHLSLKWWQQJK-BHDXBOSCSA-N
> <PUBCHEM_XLOGP3_AA>
3.7
> <PUBCHEM_EXACT_MASS>
572.35265485
> <PUBCHEM_MOLECULAR_FORMULA>
C35H45FN4O2
> <PUBCHEM_MOLECULAR_WEIGHT>
572.8
> <PUBCHEM_OPENEYE_CAN_SMILES>
CCN1C(=CC(=N1)CC2=CC=CC=C2)C3CCN(CC3)CC4CN(CC4C5=CC(=CC=C5)F)CC6(CCCC6)C(=O)O
> <PUBCHEM_OPENEYE_ISO_SMILES>
CCN1C(=CC(=N1)CC2=CC=CC=C2)C3CCN(CC3)C[C@H]4CN(C[C@@H]4C5=CC(=CC=C5)F)CC6(CCCC6)C(=O)O
> <PUBCHEM_CACTVS_TPSA>
61.6
> <PUBCHEM_MONOISOTOPIC_WEIGHT>
572.35265485
> <PUBCHEM_TOTAL_CHARGE>
0
> <PUBCHEM_HEAVY_ATOM_COUNT>
42
> <PUBCHEM_ATOM_DEF_STEREO_COUNT>
2
> <PUBCHEM_ATOM_UDEF_STEREO_COUNT>
0
> <PUBCHEM_BOND_DEF_STEREO_COUNT>
0
> <PUBCHEM_BOND_UDEF_STEREO_COUNT>
0
> <PUBCHEM_ISOTOPIC_ATOM_COUNT>
0
> <PUBCHEM_COMPONENT_COUNT>
1
> <PUBCHEM_CACTVS_TAUTO_COUNT>
-1
> <PUBCHEM_COORDINATE_TYPE>
1
5
255
> <PUBCHEM_BONDANNOTATIONS>
10  19  5
19  26  8
19  27  8
26  29  8
27  30  8
28  31  8
29  32  8
30  32  8
31  33  8
37  38  8
37  39  8
38  40  8
39  41  8
40  42  8
41  42  8
6  28  8
6  7  8
7  33  8
8  14  6
$$$$
