512819
  -OEChem-10302200282D
 50 52  0     1  0  0  0  0  0999 V2000
    4.3020    0.0000    0.0000 Cl  0  0  0  0  0  0  0  0  0  0  0  0
    6.6651    3.4938    0.0000 F   0  0  0  0  0  0  0  0  0  0  0  0
    3.1350    2.5179    0.0000 O   0  0  0  0  0  0  0  0  0  0  0  0
    0.5369    4.0179    0.0000 O   0  0  0  0  0  0  0  0  0  0  0  0
    1.4030    2.5179    0.0000 O   0  0  0  0  0  0  0  0  0  0  0  0
    6.6651    5.5421    0.0000 N   0  0  3  0  0  0  0  0  0  0  0  0
    4.0010    4.0179    0.0000 N   0  0  0  0  0  0  0  0  0  0  0  0
    9.2414    5.7839    0.0000 N   0  0  0  0  0  0  0  0  0  0  0  0
    3.1350    6.5179    0.0000 C   0  0  0  0  0  0  0  0  0  0  0  0
    3.6350    7.3840    0.0000 C   0  0  0  0  0  0  0  0  0  0  0  0
    2.6350    7.3840    0.0000 C   0  0  0  0  0  0  0  0  0  0  0  0
    7.7432    6.7487    0.0000 C   0  0  2  0  0  0  0  0  0  0  0  0
    3.1350    5.5179    0.0000 C   0  0  0  0  0  0  0  0  0  0  0  0
    8.2465    5.8846    0.0000 C   0  0  1  0  0  0  0  0  0  0  0  0
    6.7658    6.5370    0.0000 C   0  0  0  0  0  0  0  0  0  0  0  0
    7.5802    5.1389    0.0000 C   0  0  0  0  0  0  0  0  0  0  0  0
    4.0010    5.0179    0.0000 C   0  0  0  0  0  0  0  0  0  0  0  0
    5.8010    5.0388    0.0000 C   0  0  0  0  0  0  0  0  0  0  0  0
    4.8950    5.5526    0.0000 C   0  0  0  0  0  0  0  0  0  0  0  0
    8.1464    7.6638    0.0000 C   0  0  0  0  0  0  0  0  0  0  0  0
    2.2690    5.0179    0.0000 C   0  0  0  0  0  0  0  0  0  0  0  0
    5.8010    3.9971    0.0000 C   0  0  0  0  0  0  0  0  0  0  0  0
    4.8950    3.4833    0.0000 C   0  0  0  0  0  0  0  0  0  0  0  0
    2.2690    4.0179    0.0000 C   0  0  0  0  0  0  0  0  0  0  0  0
    3.1350    3.5179    0.0000 C   0  0  0  0  0  0  0  0  0  0  0  0
    4.8834    6.5525    0.0000 C   0  0  0  0  0  0  0  0  0  0  0  0
    1.4030    3.5179    0.0000 C   0  0  0  0  0  0  0  0  0  0  0  0
    2.5361    6.3575    0.0000 H   0  0  0  0  0  0  0  0  0  0  0  0
    4.2176    7.1719    0.0000 H   0  0  0  0  0  0  0  0  0  0  0  0
    3.7427    7.9946    0.0000 H   0  0  0  0  0  0  0  0  0  0  0  0
    2.5274    7.9946    0.0000 H   0  0  0  0  0  0  0  0  0  0  0  0
    2.0524    7.1719    0.0000 H   0  0  0  0  0  0  0  0  0  0  0  0
    7.3511    7.2290    0.0000 H   0  0  0  0  0  0  0  0  0  0  0  0
    8.5822    6.4059    0.0000 H   0  0  0  0  0  0  0  0  0  0  0  0
    6.6986    7.1534    0.0000 H   0  0  0  0  0  0  0  0  0  0  0  0
    6.1458    6.5346    0.0000 H   0  0  0  0  0  0  0  0  0  0  0  0
    7.2723    4.6008    0.0000 H   0  0  0  0  0  0  0  0  0  0  0  0
    8.0832    4.7764    0.0000 H   0  0  0  0  0  0  0  0  0  0  0  0
    8.7137    7.4138    0.0000 H   0  0  0  0  0  0  0  0  0  0  0  0
    8.3964    8.2312    0.0000 H   0  0  0  0  0  0  0  0  0  0  0  0
    7.5790    7.9138    0.0000 H   0  0  0  0  0  0  0  0  0  0  0  0
    1.7320    5.3279    0.0000 H   0  0  0  0  0  0  0  0  0  0  0  0
    9.4958    5.2185    0.0000 H   0  0  0  0  0  0  0  0  0  0  0  0
    9.6039    6.2869    0.0000 H   0  0  0  0  0  0  0  0  0  0  0  0
    4.8878    2.8633    0.0000 H   0  0  0  0  0  0  0  0  0  0  0  0
    5.5034    6.5597    0.0000 H   0  0  0  0  0  0  0  0  0  0  0  0
    4.8762    7.1725    0.0000 H   0  0  0  0  0  0  0  0  0  0  0  0
    4.2635    6.5454    0.0000 H   0  0  0  0  0  0  0  0  0  0  0  0
    0.0000    3.7079    0.0000 H   0  0  0  0  0  0  0  0  0  0  0  0
    5.3020    0.0000    0.0000 H   0  0  0  0  0  0  0  0  0  0  0  0
  1 50  1  0  0  0  0
  2 22  1  0  0  0  0
  3 25  2  0  0  0  0
  4 27  1  0  0  0  0
  4 49  1  0  0  0  0
  5 27  2  0  0  0  0
  6 15  1  0  0  0  0
  6 16  1  0  0  0  0
  6 18  1  0  0  0  0
  7 17  1  0  0  0  0
  7 23  1  0  0  0  0
  7 25  1  0  0  0  0
 14  8  1  6  0  0  0
  8 43  1  0  0  0  0
  8 44  1  0  0  0  0
  9 10  1  0  0  0  0
  9 11  1  0  0  0  0
  9 13  1  0  0  0  0
  9 28  1  0  0  0  0
 10 11  1  0  0  0  0
 10 29  1  0  0  0  0
 10 30  1  0  0  0  0
 11 31  1  0  0  0  0
 11 32  1  0  0  0  0
 12 14  1  0  0  0  0
 12 15  1  0  0  0  0
 12 20  1  6  0  0  0
 12 33  1  0  0  0  0
 13 17  2  0  0  0  0
 13 21  1  0  0  0  0
 14 16  1  0  0  0  0
 14 34  1  0  0  0  0
 15 35  1  0  0  0  0
 15 36  1  0  0  0  0
 16 37  1  0  0  0  0
 16 38  1  0  0  0  0
 17 19  1  0  0  0  0
 18 19  2  0  0  0  0
 18 22  1  0  0  0  0
 19 26  1  0  0  0  0
 20 39  1  0  0  0  0
 20 40  1  0  0  0  0
 20 41  1  0  0  0  0
 21 24  2  0  0  0  0
 21 42  1  0  0  0  0
 22 23  2  0  0  0  0
 23 45  1  0  0  0  0
 24 25  1  0  0  0  0
 24 27  1  0  0  0  0
 26 46  1  0  0  0  0
 26 47  1  0  0  0  0
 26 48  1  0  0  0  0
M  END
> <PUBCHEM_COMPOUND_CID>
512819
> <PUBCHEM_COMPOUND_CANONICALIZED>
1
> <PUBCHEM_CACTVS_COMPLEXITY>
835
> <PUBCHEM_CACTVS_HBOND_ACCEPTOR>
6
> <PUBCHEM_CACTVS_HBOND_DONOR>
3
> <PUBCHEM_CACTVS_ROTATABLE_BOND>
3
> <PUBCHEM_CACTVS_SUBSKEYS>
AAADceB7MQAEAAAAAAAAAAAAGAAAAWAAAAAgQAAAAAAAAACAAAAAHwAQCAAADSjBgAQCCANAAgCIAiXWWACAAAAgAAAACIEIAEgIRA4IwAAUUAACtgCIkYIAAAAIAAAAAAAAAAAAAAAAAAAAAAAAAAAAAA==
> <PUBCHEM_IUPAC_OPENEYE_NAME>
8-[(3S,4S)-3-amino-4-methyl-pyrrolidin-1-yl]-1-cyclopropyl-7-fluoro-9-methyl-4-oxo-quinolizine-3-carboxylic acid;hydrochloride
> <PUBCHEM_IUPAC_CAS_NAME>
8-[(3S,4S)-3-amino-4-methyl-1-pyrrolidinyl]-1-cyclopropyl-7-fluoro-9-methyl-4-oxo-3-quinolizinecarboxylic acid;hydrochloride
> <PUBCHEM_IUPAC_NAME_MARKUP>
8-[(3<I>S</I>,4<I>S</I>)-3-amino-4-methylpyrrolidin-1-yl]-1-cyclopropyl-7-fluoro-9-methyl-4-oxoquinolizine-3-carboxylic acid;hydrochloride
> <PUBCHEM_IUPAC_NAME>
8-[(3S,4S)-3-amino-4-methylpyrrolidin-1-yl]-1-cyclopropyl-7-fluoro-9-methyl-4-oxoquinolizine-3-carboxylic acid;hydrochloride
> <PUBCHEM_IUPAC_SYSTEMATIC_NAME>
8-[(3S,4S)-3-azanyl-4-methyl-pyrrolidin-1-yl]-1-cyclopropyl-7-fluoranyl-9-methyl-4-oxidanylidene-quinolizine-3-carboxylic acid;hydrochloride
> <PUBCHEM_IUPAC_TRADITIONAL_NAME>
8-[(3S,4S)-3-amino-4-methyl-pyrrolidino]-1-cyclopropyl-7-fluoro-4-keto-9-methyl-quinolizine-3-carboxylic acid;hydrochloride
> <PUBCHEM_IUPAC_INCHI>
InChI=1S/C19H22FN3O3.ClH/c1-9-6-22(8-15(9)21)17-10(2)16-12(11-3-4-11)5-13(19(25)26)18(24)23(16)7-14(17)20;/h5,7,9,11,15H,3-4,6,8,21H2,1-2H3,(H,25,26);1H/t9-,15+;/m0./s1
> <PUBCHEM_IUPAC_INCHIKEY>
YUXVGTDDUCIZPA-GKLCTQFTSA-N
> <PUBCHEM_EXACT_MASS>
395.1411975
> <PUBCHEM_MOLECULAR_FORMULA>
C19H23ClFN3O3
> <PUBCHEM_MOLECULAR_WEIGHT>
395.9
> <PUBCHEM_OPENEYE_CAN_SMILES>
CC1CN(CC1N)C2=C(C3=C(C=C(C(=O)N3C=C2F)C(=O)O)C4CC4)C.Cl
> <PUBCHEM_OPENEYE_ISO_SMILES>
C[C@H]1CN(C[C@H]1N)C2=C(C3=C(C=C(C(=O)N3C=C2F)C(=O)O)C4CC4)C.Cl
> <PUBCHEM_CACTVS_TPSA>
86.9
> <PUBCHEM_MONOISOTOPIC_WEIGHT>
395.1411975
> <PUBCHEM_TOTAL_CHARGE>
0
> <PUBCHEM_HEAVY_ATOM_COUNT>
27
> <PUBCHEM_ATOM_DEF_STEREO_COUNT>
2
> <PUBCHEM_ATOM_UDEF_STEREO_COUNT>
0
> <PUBCHEM_BOND_DEF_STEREO_COUNT>
0
> <PUBCHEM_BOND_UDEF_STEREO_COUNT>
0
> <PUBCHEM_ISOTOPIC_ATOM_COUNT>
0
> <PUBCHEM_COMPONENT_COUNT>
2
> <PUBCHEM_CACTVS_TAUTO_COUNT>
-1
> <PUBCHEM_COORDINATE_TYPE>
1
5
255
> <PUBCHEM_BONDANNOTATIONS>
12  20  6
13  17  8
13  21  8
17  19  8
18  19  8
18  22  8
21  24  8
22  23  8
24  25  8
7  17  8
7  23  8
7  25  8
14  8  6
$$$$
