512873
  -OEChem-10302200282D
 87 90  0     1  0  0  0  0  0999 V2000
    6.3301   -5.5000    0.0000 O   0  0  0  0  0  0  0  0  0  0  0  0
    4.5981   -5.5000    0.0000 O   0  0  0  0  0  0  0  0  0  0  0  0
    7.1962   -3.0000    0.0000 O   0  0  0  0  0  0  0  0  0  0  0  0
    4.5981   -8.5000    0.0000 O   0  0  0  0  0  0  0  0  0  0  0  0
    6.3301   -7.5000    0.0000 O   0  0  0  0  0  0  0  0  0  0  0  0
    4.5981   -4.5000    0.0000 O   0  0  0  0  0  0  0  0  0  0  0  0
    8.0622   -1.5000    0.0000 O   0  0  0  0  0  0  0  0  0  0  0  0
    4.5981    1.5000    0.0000 O   0  0  0  0  0  0  0  0  0  0  0  0
    3.0981    8.3660    0.0000 O   0  0  0  0  0  0  0  0  0  0  0  0
    3.7320    6.0000    0.0000 O   0  0  0  0  0  0  0  0  0  0  0  0
    2.8660   -7.5000    0.0000 N   0  0  0  0  0  0  0  0  0  0  0  0
    6.3301   -1.5000    0.0000 N   0  0  0  0  0  0  0  0  0  0  0  0
    7.1962    0.0000    0.0000 N   0  0  0  0  0  0  0  0  0  0  0  0
    6.3301    1.5000    0.0000 N   0  0  0  0  0  0  0  0  0  0  0  0
    5.4641    6.0000    0.0000 N   0  0  0  0  0  0  0  0  0  0  0  0
    4.5981    8.5000    0.0000 N   0  0  0  0  0  0  0  0  0  0  0  0
    3.7320   -7.0000    0.0000 C   0  0  1  0  0  0  0  0  0  0  0  0
    4.5981   -7.5000    0.0000 C   0  0  1  0  0  0  0  0  0  0  0  0
    5.4641   -7.0000    0.0000 C   0  0  2  0  0  0  0  0  0  0  0  0
    6.3301   -4.5000    0.0000 C   0  0  1  0  0  0  0  0  0  0  0  0
    5.4641   -6.0000    0.0000 C   0  0  1  0  0  0  0  0  0  0  0  0
    3.7320   -6.0000    0.0000 C   0  0  1  0  0  0  0  0  0  0  0  0
    5.4641   -4.0000    0.0000 C   0  0  1  0  0  0  0  0  0  0  0  0
    7.1962   -4.0000    0.0000 C   0  0  1  0  0  0  0  0  0  0  0  0
    5.4641   -3.0000    0.0000 C   0  0  0  0  0  0  0  0  0  0  0  0
    6.3301   -2.5000    0.0000 C   0  0  1  0  0  0  0  0  0  0  0  0
    2.8660   -5.5000    0.0000 C   0  0  0  0  0  0  0  0  0  0  0  0
    8.0622   -4.5000    0.0000 C   0  0  0  0  0  0  0  0  0  0  0  0
    2.8660   -8.5000    0.0000 C   0  0  0  0  0  0  0  0  0  0  0  0
    2.0000   -7.0000    0.0000 C   0  0  0  0  0  0  0  0  0  0  0  0
    5.4641   -1.0000    0.0000 C   0  0  0  0  0  0  0  0  0  0  0  0
    7.1962   -1.0000    0.0000 C   0  0  0  0  0  0  0  0  0  0  0  0
    5.4641    0.0000    0.0000 C   0  0  0  0  0  0  0  0  0  0  0  0
    6.3301    0.5000    0.0000 C   0  0  0  0  0  0  0  0  0  0  0  0
    5.4641    2.0000    0.0000 C   0  0  0  0  0  0  0  0  0  0  0  0
    5.4641    3.0000    0.0000 C   0  0  0  0  0  0  0  0  0  0  0  0
    4.5981    7.5000    0.0000 C   0  0  2  0  0  0  0  0  0  0  0  0
    4.5981    3.5000    0.0000 C   0  0  0  0  0  0  0  0  0  0  0  0
    6.3301    3.5000    0.0000 C   0  0  0  0  0  0  0  0  0  0  0  0
    5.4641    5.0000    0.0000 C   0  0  0  0  0  0  0  0  0  0  0  0
    4.5981    6.5000    0.0000 C   0  0  0  0  0  0  0  0  0  0  0  0
    3.5981    7.5000    0.0000 C   0  0  0  0  0  0  0  0  0  0  0  0
    4.5981    4.5000    0.0000 C   0  0  0  0  0  0  0  0  0  0  0  0
    6.3301    4.5000    0.0000 C   0  0  0  0  0  0  0  0  0  0  0  0
    5.5981    7.5000    0.0000 C   0  0  0  0  0  0  0  0  0  0  0  0
    3.1951   -6.6900    0.0000 H   0  0  0  0  0  0  0  0  0  0  0  0
    4.0611   -7.8100    0.0000 H   0  0  0  0  0  0  0  0  0  0  0  0
    5.4641   -7.6200    0.0000 H   0  0  0  0  0  0  0  0  0  0  0  0
    6.8671   -4.8100    0.0000 H   0  0  0  0  0  0  0  0  0  0  0  0
    5.4641   -5.3800    0.0000 H   0  0  0  0  0  0  0  0  0  0  0  0
    3.7320   -5.3800    0.0000 H   0  0  0  0  0  0  0  0  0  0  0  0
    5.4641   -4.6200    0.0000 H   0  0  0  0  0  0  0  0  0  0  0  0
    7.7331   -3.6900    0.0000 H   0  0  0  0  0  0  0  0  0  0  0  0
    5.2520   -2.4174    0.0000 H   0  0  0  0  0  0  0  0  0  0  0  0
    4.8535   -3.1077    0.0000 H   0  0  0  0  0  0  0  0  0  0  0  0
    6.8671   -2.1900    0.0000 H   0  0  0  0  0  0  0  0  0  0  0  0
    3.1760   -4.9631    0.0000 H   0  0  0  0  0  0  0  0  0  0  0  0
    2.3291   -5.1900    0.0000 H   0  0  0  0  0  0  0  0  0  0  0  0
    2.5560   -6.0369    0.0000 H   0  0  0  0  0  0  0  0  0  0  0  0
    7.7522   -5.0369    0.0000 H   0  0  0  0  0  0  0  0  0  0  0  0
    8.5991   -4.8100    0.0000 H   0  0  0  0  0  0  0  0  0  0  0  0
    8.3722   -3.9631    0.0000 H   0  0  0  0  0  0  0  0  0  0  0  0
    5.1350   -8.8100    0.0000 H   0  0  0  0  0  0  0  0  0  0  0  0
    6.8671   -7.1900    0.0000 H   0  0  0  0  0  0  0  0  0  0  0  0
    2.2460   -8.5000    0.0000 H   0  0  0  0  0  0  0  0  0  0  0  0
    2.8660   -9.1200    0.0000 H   0  0  0  0  0  0  0  0  0  0  0  0
    3.4860   -8.5000    0.0000 H   0  0  0  0  0  0  0  0  0  0  0  0
    2.3100   -6.4631    0.0000 H   0  0  0  0  0  0  0  0  0  0  0  0
    1.4631   -6.6900    0.0000 H   0  0  0  0  0  0  0  0  0  0  0  0
    1.6900   -7.5369    0.0000 H   0  0  0  0  0  0  0  0  0  0  0  0
    4.0611   -4.1900    0.0000 H   0  0  0  0  0  0  0  0  0  0  0  0
    4.9272   -1.3100    0.0000 H   0  0  0  0  0  0  0  0  0  0  0  0
    4.9272    0.3100    0.0000 H   0  0  0  0  0  0  0  0  0  0  0  0
    6.8671    1.8100    0.0000 H   0  0  0  0  0  0  0  0  0  0  0  0
    4.0611    3.1900    0.0000 H   0  0  0  0  0  0  0  0  0  0  0  0
    6.8671    3.1900    0.0000 H   0  0  0  0  0  0  0  0  0  0  0  0
    3.0155    7.2880    0.0000 H   0  0  0  0  0  0  0  0  0  0  0  0
    3.7057    6.8894    0.0000 H   0  0  0  0  0  0  0  0  0  0  0  0
    5.5981    6.8800    0.0000 H   0  0  0  0  0  0  0  0  0  0  0  0
    6.2181    7.5000    0.0000 H   0  0  0  0  0  0  0  0  0  0  0  0
    5.5981    8.1200    0.0000 H   0  0  0  0  0  0  0  0  0  0  0  0
    4.0611    4.8100    0.0000 H   0  0  0  0  0  0  0  0  0  0  0  0
    6.8671    4.8100    0.0000 H   0  0  0  0  0  0  0  0  0  0  0  0
    6.0010    6.3100    0.0000 H   0  0  0  0  0  0  0  0  0  0  0  0
    4.0611    8.8100    0.0000 H   0  0  0  0  0  0  0  0  0  0  0  0
    5.1350    8.8100    0.0000 H   0  0  0  0  0  0  0  0  0  0  0  0
    2.4781    8.3660    0.0000 H   0  0  0  0  0  0  0  0  0  0  0  0
 20  1  1  1  0  0  0
 21  1  1  6  0  0  0
  2 21  1  0  0  0  0
  2 22  1  0  0  0  0
  3 24  1  0  0  0  0
  3 26  1  0  0  0  0
 18  4  1  1  0  0  0
  4 63  1  0  0  0  0
 19  5  1  6  0  0  0
  5 64  1  0  0  0  0
 23  6  1  6  0  0  0
  6 71  1  0  0  0  0
  7 32  2  0  0  0  0
  8 35  2  0  0  0  0
  9 42  1  0  0  0  0
  9 87  1  0  0  0  0
 10 41  2  0  0  0  0
 17 11  1  6  0  0  0
 11 29  1  0  0  0  0
 11 30  1  0  0  0  0
 26 12  1  6  0  0  0
 12 31  1  0  0  0  0
 12 32  1  0  0  0  0
 13 32  1  0  0  0  0
 13 34  2  0  0  0  0
 14 34  1  0  0  0  0
 14 35  1  0  0  0  0
 14 74  1  0  0  0  0
 15 40  1  0  0  0  0
 15 41  1  0  0  0  0
 15 84  1  0  0  0  0
 37 16  1  6  0  0  0
 16 85  1  0  0  0  0
 16 86  1  0  0  0  0
 17 18  1  0  0  0  0
 17 22  1  0  0  0  0
 17 46  1  0  0  0  0
 18 19  1  0  0  0  0
 18 47  1  0  0  0  0
 19 21  1  0  0  0  0
 19 48  1  0  0  0  0
 20 23  1  0  0  0  0
 20 24  1  0  0  0  0
 20 49  1  0  0  0  0
 21 50  1  0  0  0  0
 22 27  1  1  0  0  0
 22 51  1  0  0  0  0
 23 25  1  0  0  0  0
 23 52  1  0  0  0  0
 24 28  1  6  0  0  0
 24 53  1  0  0  0  0
 25 26  1  0  0  0  0
 25 54  1  0  0  0  0
 25 55  1  0  0  0  0
 26 56  1  0  0  0  0
 27 57  1  0  0  0  0
 27 58  1  0  0  0  0
 27 59  1  0  0  0  0
 28 60  1  0  0  0  0
 28 61  1  0  0  0  0
 28 62  1  0  0  0  0
 29 65  1  0  0  0  0
 29 66  1  0  0  0  0
 29 67  1  0  0  0  0
 30 68  1  0  0  0  0
 30 69  1  0  0  0  0
 30 70  1  0  0  0  0
 31 33  2  0  0  0  0
 31 72  1  0  0  0  0
 33 34  1  0  0  0  0
 33 73  1  0  0  0  0
 35 36  1  0  0  0  0
 36 38  2  0  0  0  0
 36 39  1  0  0  0  0
 37 41  1  0  0  0  0
 37 42  1  0  0  0  0
 37 45  1  0  0  0  0
 38 43  1  0  0  0  0
 38 75  1  0  0  0  0
 39 44  2  0  0  0  0
 39 76  1  0  0  0  0
 40 43  2  0  0  0  0
 40 44  1  0  0  0  0
 42 77  1  0  0  0  0
 42 78  1  0  0  0  0
 43 82  1  0  0  0  0
 44 83  1  0  0  0  0
 45 79  1  0  0  0  0
 45 80  1  0  0  0  0
 45 81  1  0  0  0  0
M  END
> <PUBCHEM_COMPOUND_CID>
512873
> <PUBCHEM_COMPOUND_CANONICALIZED>
1
> <PUBCHEM_CACTVS_COMPLEXITY>
1150
> <PUBCHEM_CACTVS_HBOND_ACCEPTOR>
12
> <PUBCHEM_CACTVS_HBOND_DONOR>
7
> <PUBCHEM_CACTVS_ROTATABLE_BOND>
9
> <PUBCHEM_CACTVS_SUBSKEYS>
AAADcfB7vAAAAAAAAAAAAAAAAAAAAAAAAAA0SIEAAAAAAAABAAAAHgAQCAAADLzxmAczyIPABgCoAid2dACCAAElAgAJiAGYZNibcDbAnZG/YQhntgLfyYf4+Q6eCAAAAAAAAAAQAAAAAAAAAAAAAAAAAA==
> <PUBCHEM_IUPAC_OPENEYE_NAME>
4-[[(2S)-2-amino-3-hydroxy-2-methyl-propanoyl]amino]-N-[1-[(2R,4R,5S,6R)-5-[(2R,3R,4S,5S,6R)-5-(dimethylamino)-3,4-dihydroxy-6-methyl-tetrahydropyran-2-yl]oxy-4-hydroxy-6-methyl-tetrahydropyran-2-yl]-2-oxo-pyrimidin-4-yl]benzamide
> <PUBCHEM_IUPAC_CAS_NAME>
4-[[(2S)-2-amino-3-hydroxy-2-methyl-1-oxopropyl]amino]-N-[1-[(2R,4R,5S,6R)-5-[[(2R,3R,4S,5S,6R)-5-(dimethylamino)-3,4-dihydroxy-6-methyl-2-oxanyl]oxy]-4-hydroxy-6-methyl-2-oxanyl]-2-oxo-4-pyrimidinyl]benzamide
> <PUBCHEM_IUPAC_NAME_MARKUP>
4-[[(2<I>S</I>)-2-amino-3-hydroxy-2-methylpropanoyl]amino]-<I>N</I>-[1-[(2<I>R</I>,4<I>R</I>,5<I>S</I>,6<I>R</I>)-5-[(2<I>R</I>,3<I>R</I>,4<I>S</I>,5<I>S</I>,6<I>R</I>)-5-(dimethylamino)-3,4-dihydroxy-6-methyloxan-2-yl]oxy-4-hydroxy-6-methyloxan-2-yl]-2-oxopyrimidin-4-yl]benzamide
> <PUBCHEM_IUPAC_NAME>
4-[[(2S)-2-amino-3-hydroxy-2-methylpropanoyl]amino]-N-[1-[(2R,4R,5S,6R)-5-[(2R,3R,4S,5S,6R)-5-(dimethylamino)-3,4-dihydroxy-6-methyloxan-2-yl]oxy-4-hydroxy-6-methyloxan-2-yl]-2-oxopyrimidin-4-yl]benzamide
> <PUBCHEM_IUPAC_SYSTEMATIC_NAME>
4-[[(2S)-2-azanyl-2-methyl-3-oxidanyl-propanoyl]amino]-N-[1-[(2R,4R,5S,6R)-5-[(2R,3R,4S,5S,6R)-5-(dimethylamino)-6-methyl-3,4-bis(oxidanyl)oxan-2-yl]oxy-6-methyl-4-oxidanyl-oxan-2-yl]-2-oxidanylidene-pyrimidin-4-yl]benzamide
> <PUBCHEM_IUPAC_TRADITIONAL_NAME>
4-[[(2S)-2-amino-3-hydroxy-2-methyl-propanoyl]amino]-N-[1-[(2R,4R,5S,6R)-5-[(2R,3R,4S,5S,6R)-5-(dimethylamino)-3,4-dihydroxy-6-methyl-tetrahydropyran-2-yl]oxy-4-hydroxy-6-methyl-tetrahydropyran-2-yl]-2-keto-pyrimidin-4-yl]benzamide
> <PUBCHEM_IUPAC_INCHI>
InChI=1S/C29H42N6O10/c1-14-21(34(4)5)22(38)23(39)26(44-14)45-24-15(2)43-20(12-18(24)37)35-11-10-19(33-28(35)42)32-25(40)16-6-8-17(9-7-16)31-27(41)29(3,30)13-36/h6-11,14-15,18,20-24,26,36-39H,12-13,30H2,1-5H3,(H,31,41)(H,32,33,40,42)/t14-,15-,18-,20-,21-,22+,23-,24-,26-,29+/m1/s1
> <PUBCHEM_IUPAC_INCHIKEY>
UWVPICJGEAEOKF-OBFBSDRYSA-N
> <PUBCHEM_XLOGP3_AA>
-1.9
> <PUBCHEM_EXACT_MASS>
634.29624156
> <PUBCHEM_MOLECULAR_FORMULA>
C29H42N6O10
> <PUBCHEM_MOLECULAR_WEIGHT>
634.7
> <PUBCHEM_OPENEYE_CAN_SMILES>
CC1C(C(C(C(O1)OC2C(OC(CC2O)N3C=CC(=NC3=O)NC(=O)C4=CC=C(C=C4)NC(=O)C(C)(CO)N)C)O)O)N(C)C
> <PUBCHEM_OPENEYE_ISO_SMILES>
C[C@@H]1[C@H]([C@@H]([C@H]([C@H](O1)O[C@@H]2[C@H](O[C@H](C[C@H]2O)N3C=CC(=NC3=O)NC(=O)C4=CC=C(C=C4)NC(=O)[C@](C)(CO)N)C)O)O)N(C)C
> <PUBCHEM_CACTVS_TPSA>
229
> <PUBCHEM_MONOISOTOPIC_WEIGHT>
634.29624156
> <PUBCHEM_TOTAL_CHARGE>
0
> <PUBCHEM_HEAVY_ATOM_COUNT>
45
> <PUBCHEM_ATOM_DEF_STEREO_COUNT>
10
> <PUBCHEM_ATOM_UDEF_STEREO_COUNT>
0
> <PUBCHEM_BOND_DEF_STEREO_COUNT>
0
> <PUBCHEM_BOND_UDEF_STEREO_COUNT>
0
> <PUBCHEM_ISOTOPIC_ATOM_COUNT>
0
> <PUBCHEM_COMPONENT_COUNT>
1
> <PUBCHEM_CACTVS_TAUTO_COUNT>
19
> <PUBCHEM_COORDINATE_TYPE>
1
5
255
> <PUBCHEM_BONDANNOTATIONS>
20  1  5
21  1  6
17  11  6
26  12  6
12  31  8
12  32  8
13  32  8
13  34  8
37  16  6
22  27  5
24  28  6
31  33  8
33  34  8
36  38  8
36  39  8
38  43  8
39  44  8
18  4  5
40  43  8
40  44  8
19  5  6
23  6  6
$$$$
