512840
  -OEChem-10302200282D
 51 51  0     1  0  0  0  0  0999 V2000
    3.2601    2.6144    0.0000 S   0  0  0  0  0  0  0  0  0  0  0  0
    2.0000    0.3543    0.0000 O   0  0  0  0  0  0  0  0  0  0  0  0
    5.5202    0.3543    0.0000 O   0  0  0  0  0  0  0  0  0  0  0  0
    4.9921    5.6144    0.0000 O   0  0  0  0  0  0  0  0  0  0  0  0
    5.8582    4.1144    0.0000 O   0  0  0  0  0  0  0  0  0  0  0  0
    3.7601    0.0756    0.0000 N   0  0  0  0  0  0  0  0  0  0  0  0
    3.2601    4.6144    0.0000 N   0  0  0  0  0  0  0  0  0  0  0  0
    3.2601    1.6144    0.0000 C   0  0  3  0  0  0  0  0  0  0  0  0
    4.2601    1.6144    0.0000 C   0  0  0  0  0  0  0  0  0  0  0  0
    2.9511    0.6634    0.0000 C   0  0  0  0  0  0  0  0  0  0  0  0
    3.7601   -0.9244    0.0000 C   0  0  0  0  0  0  0  0  0  0  0  0
    4.5691    0.6634    0.0000 C   0  0  0  0  0  0  0  0  0  0  0  0
    4.6261   -1.4244    0.0000 C   0  0  0  0  0  0  0  0  0  0  0  0
    2.3090    1.9234    0.0000 C   0  0  0  0  0  0  0  0  0  0  0  0
    4.6261   -2.4244    0.0000 C   0  0  0  0  0  0  0  0  0  0  0  0
    5.4921   -2.9244    0.0000 C   0  0  0  0  0  0  0  0  0  0  0  0
    5.4921   -3.9244    0.0000 C   0  0  0  0  0  0  0  0  0  0  0  0
    4.1261    3.1144    0.0000 C   0  0  0  0  0  0  0  0  0  0  0  0
    6.3582   -4.4244    0.0000 C   0  0  0  0  0  0  0  0  0  0  0  0
    4.1261    4.1144    0.0000 C   0  0  3  0  0  0  0  0  0  0  0  0
    6.3582   -5.4244    0.0000 C   0  0  0  0  0  0  0  0  0  0  0  0
    7.2242   -5.9244    0.0000 C   0  0  0  0  0  0  0  0  0  0  0  0
    4.9921    4.6144    0.0000 C   0  0  0  0  0  0  0  0  0  0  0  0
    4.8665    1.7433    0.0000 H   0  0  0  0  0  0  0  0  0  0  0  0
    4.1953    2.2310    0.0000 H   0  0  0  0  0  0  0  0  0  0  0  0
    3.1495   -0.8168    0.0000 H   0  0  0  0  0  0  0  0  0  0  0  0
    3.5480   -1.5070    0.0000 H   0  0  0  0  0  0  0  0  0  0  0  0
    5.2367   -1.5321    0.0000 H   0  0  0  0  0  0  0  0  0  0  0  0
    4.8382   -0.8418    0.0000 H   0  0  0  0  0  0  0  0  0  0  0  0
    2.5006    2.5131    0.0000 H   0  0  0  0  0  0  0  0  0  0  0  0
    1.7194    2.1150    0.0000 H   0  0  0  0  0  0  0  0  0  0  0  0
    2.1174    1.3338    0.0000 H   0  0  0  0  0  0  0  0  0  0  0  0
    4.0155   -2.3168    0.0000 H   0  0  0  0  0  0  0  0  0  0  0  0
    4.4140   -3.0070    0.0000 H   0  0  0  0  0  0  0  0  0  0  0  0
    6.1027   -3.0321    0.0000 H   0  0  0  0  0  0  0  0  0  0  0  0
    5.7042   -2.3418    0.0000 H   0  0  0  0  0  0  0  0  0  0  0  0
    4.8815   -3.8168    0.0000 H   0  0  0  0  0  0  0  0  0  0  0  0
    5.2801   -4.5070    0.0000 H   0  0  0  0  0  0  0  0  0  0  0  0
    4.3382    2.5318    0.0000 H   0  0  0  0  0  0  0  0  0  0  0  0
    4.7367    3.2221    0.0000 H   0  0  0  0  0  0  0  0  0  0  0  0
    6.9687   -4.5321    0.0000 H   0  0  0  0  0  0  0  0  0  0  0  0
    6.5702   -3.8418    0.0000 H   0  0  0  0  0  0  0  0  0  0  0  0
    4.1261    4.7344    0.0000 H   0  0  0  0  0  0  0  0  0  0  0  0
    5.7476   -5.3168    0.0000 H   0  0  0  0  0  0  0  0  0  0  0  0
    6.1461   -6.0070    0.0000 H   0  0  0  0  0  0  0  0  0  0  0  0
    6.9142   -6.4614    0.0000 H   0  0  0  0  0  0  0  0  0  0  0  0
    7.7611   -6.2344    0.0000 H   0  0  0  0  0  0  0  0  0  0  0  0
    7.5342   -5.3875    0.0000 H   0  0  0  0  0  0  0  0  0  0  0  0
    3.2601    5.2344    0.0000 H   0  0  0  0  0  0  0  0  0  0  0  0
    2.7231    4.3044    0.0000 H   0  0  0  0  0  0  0  0  0  0  0  0
    5.5291    5.9244    0.0000 H   0  0  0  0  0  0  0  0  0  0  0  0
  1  8  1  0  0  0  0
  1 18  1  0  0  0  0
  2 10  2  0  0  0  0
  3 12  2  0  0  0  0
  4 23  1  0  0  0  0
  4 51  1  0  0  0  0
  5 23  2  0  0  0  0
  6 10  1  0  0  0  0
  6 11  1  0  0  0  0
  6 12  1  0  0  0  0
  7 20  1  0  0  0  0
  7 49  1  0  0  0  0
  7 50  1  0  0  0  0
  8  9  1  0  0  0  0
  8 10  1  0  0  0  0
  8 14  1  0  0  0  0
  9 12  1  0  0  0  0
  9 24  1  0  0  0  0
  9 25  1  0  0  0  0
 11 13  1  0  0  0  0
 11 26  1  0  0  0  0
 11 27  1  0  0  0  0
 13 15  1  0  0  0  0
 13 28  1  0  0  0  0
 13 29  1  0  0  0  0
 14 30  1  0  0  0  0
 14 31  1  0  0  0  0
 14 32  1  0  0  0  0
 15 16  1  0  0  0  0
 15 33  1  0  0  0  0
 15 34  1  0  0  0  0
 16 17  1  0  0  0  0
 16 35  1  0  0  0  0
 16 36  1  0  0  0  0
 17 19  1  0  0  0  0
 17 37  1  0  0  0  0
 17 38  1  0  0  0  0
 18 20  1  0  0  0  0
 18 39  1  0  0  0  0
 18 40  1  0  0  0  0
 19 21  1  0  0  0  0
 19 41  1  0  0  0  0
 19 42  1  0  0  0  0
 20 23  1  0  0  0  0
 20 43  1  0  0  0  0
 21 22  1  0  0  0  0
 21 44  1  0  0  0  0
 21 45  1  0  0  0  0
 22 46  1  0  0  0  0
 22 47  1  0  0  0  0
 22 48  1  0  0  0  0
M  END
> <PUBCHEM_COMPOUND_CID>
512840
> <PUBCHEM_COMPOUND_CANONICALIZED>
1
> <PUBCHEM_CACTVS_COMPLEXITY>
444
> <PUBCHEM_CACTVS_HBOND_ACCEPTOR>
6
> <PUBCHEM_CACTVS_HBOND_DONOR>
2
> <PUBCHEM_CACTVS_ROTATABLE_BOND>
11
> <PUBCHEM_CACTVS_SUBSKEYS>
AAADceB7OABAAAAAAAAAAAAAAAAAAWAAAAAAAAAAAAAAAAAAAAAAHgQQCAAADCjFwASCCANAAggIAAGQGAAAAAAAABAAAIGIAAACABIggAAEQAAAFiCgAAEVgIAIAAAAAAAAAAAAAAAAAAAAAAAAAAAAAA==
> <PUBCHEM_IUPAC_OPENEYE_NAME>
2-amino-3-(3-methyl-1-octyl-2,5-dioxo-pyrrolidin-3-yl)sulfanyl-propanoic acid
> <PUBCHEM_IUPAC_CAS_NAME>
2-amino-3-[(3-methyl-1-octyl-2,5-dioxo-3-pyrrolidinyl)thio]propanoic acid
> <PUBCHEM_IUPAC_NAME_MARKUP>
2-amino-3-(3-methyl-1-octyl-2,5-dioxopyrrolidin-3-yl)sulfanylpropanoic acid
> <PUBCHEM_IUPAC_NAME>
2-amino-3-(3-methyl-1-octyl-2,5-dioxopyrrolidin-3-yl)sulfanylpropanoic acid
> <PUBCHEM_IUPAC_SYSTEMATIC_NAME>
2-azanyl-3-[3-methyl-1-octyl-2,5-bis(oxidanylidene)pyrrolidin-3-yl]sulfanyl-propanoic acid
> <PUBCHEM_IUPAC_TRADITIONAL_NAME>
2-amino-3-[(2,5-diketo-3-methyl-1-octyl-pyrrolidin-3-yl)thio]propionic acid
> <PUBCHEM_IUPAC_INCHI>
InChI=1S/C16H28N2O4S/c1-3-4-5-6-7-8-9-18-13(19)10-16(2,15(18)22)23-11-12(17)14(20)21/h12H,3-11,17H2,1-2H3,(H,20,21)
> <PUBCHEM_IUPAC_INCHIKEY>
INRKYLFKBASGOQ-UHFFFAOYSA-N
> <PUBCHEM_XLOGP3_AA>
-0.1
> <PUBCHEM_EXACT_MASS>
344.17697855
> <PUBCHEM_MOLECULAR_FORMULA>
C16H28N2O4S
> <PUBCHEM_MOLECULAR_WEIGHT>
344.5
> <PUBCHEM_OPENEYE_CAN_SMILES>
CCCCCCCCN1C(=O)CC(C1=O)(C)SCC(C(=O)O)N
> <PUBCHEM_OPENEYE_ISO_SMILES>
CCCCCCCCN1C(=O)CC(C1=O)(C)SCC(C(=O)O)N
> <PUBCHEM_CACTVS_TPSA>
126
> <PUBCHEM_MONOISOTOPIC_WEIGHT>
344.17697855
> <PUBCHEM_TOTAL_CHARGE>
0
> <PUBCHEM_HEAVY_ATOM_COUNT>
23
> <PUBCHEM_ATOM_DEF_STEREO_COUNT>
0
> <PUBCHEM_ATOM_UDEF_STEREO_COUNT>
2
> <PUBCHEM_BOND_DEF_STEREO_COUNT>
0
> <PUBCHEM_BOND_UDEF_STEREO_COUNT>
0
> <PUBCHEM_ISOTOPIC_ATOM_COUNT>
0
> <PUBCHEM_COMPONENT_COUNT>
1
> <PUBCHEM_CACTVS_TAUTO_COUNT>
-1
> <PUBCHEM_COORDINATE_TYPE>
1
5
255
> <PUBCHEM_BONDANNOTATIONS>
20  7  3
8  14  3
$$$$
