512893
  -OEChem-10302200282D
 76 79  0     1  0  0  0  0  0999 V2000
    3.0000   -3.1445    0.0000 S   0  0  0  0  0  0  0  0  0  0  0  0
    3.7661    7.1445    0.0000 F   0  0  0  0  0  0  0  0  0  0  0  0
    3.0000   -7.1445    0.0000 F   0  0  0  0  0  0  0  0  0  0  0  0
    9.4793    4.6008    0.0000 O   0  0  0  0  0  0  0  0  0  0  0  0
    8.0781    5.6189    0.0000 O   0  0  0  0  0  0  0  0  0  0  0  0
    4.0000   -3.1445    0.0000 O   0  0  0  0  0  0  0  0  0  0  0  0
    2.0000   -3.1445    0.0000 O   0  0  0  0  0  0  0  0  0  0  0  0
    6.3147    3.1919    0.0000 N   0  0  3  0  0  0  0  0  0  0  0  0
    3.8660    1.3555    0.0000 N   0  0  0  0  0  0  0  0  0  0  0  0
    4.7320    2.8555    0.0000 C   0  0  2  0  0  0  0  0  0  0  0  0
    4.8366    3.8500    0.0000 C   0  0  2  0  0  0  0  0  0  0  0  0
    5.6456    2.4487    0.0000 C   0  0  0  0  0  0  0  0  0  0  0  0
    3.8660    2.3555    0.0000 C   0  0  0  0  0  0  0  0  0  0  0  0
    5.8147    4.0579    0.0000 C   0  0  0  0  0  0  0  0  0  0  0  0
    3.8660   -0.6445    0.0000 C   0  0  0  0  0  0  0  0  0  0  0  0
    3.0000    0.8555    0.0000 C   0  0  0  0  0  0  0  0  0  0  0  0
    4.7320    0.8555    0.0000 C   0  0  0  0  0  0  0  0  0  0  0  0
    7.3092    3.0873    0.0000 C   0  0  0  0  0  0  0  0  0  0  0  0
    3.0000   -0.1445    0.0000 C   0  0  0  0  0  0  0  0  0  0  0  0
    4.7320   -0.1445    0.0000 C   0  0  0  0  0  0  0  0  0  0  0  0
    4.0934    4.5191    0.0000 C   0  0  0  0  0  0  0  0  0  0  0  0
    7.8970    3.8964    0.0000 C   0  0  0  0  0  0  0  0  0  0  0  0
    3.8660   -1.6445    0.0000 C   0  0  0  0  0  0  0  0  0  0  0  0
    3.0000   -2.1445    0.0000 C   0  0  0  0  0  0  0  0  0  0  0  0
    4.3014    5.4973    0.0000 C   0  0  0  0  0  0  0  0  0  0  0  0
    3.1424    4.2101    0.0000 C   0  0  0  0  0  0  0  0  0  0  0  0
    8.7060    3.3086    0.0000 C   0  0  0  0  0  0  0  0  0  0  0  0
    7.0880    4.4841    0.0000 C   0  0  0  0  0  0  0  0  0  0  0  0
    8.4848    4.7054    0.0000 C   0  0  0  0  0  0  0  0  0  0  0  0
    3.5582    6.1664    0.0000 C   0  0  0  0  0  0  0  0  0  0  0  0
    2.3992    4.8792    0.0000 C   0  0  0  0  0  0  0  0  0  0  0  0
    2.6071    5.8574    0.0000 C   0  0  0  0  0  0  0  0  0  0  0  0
    3.0000   -4.1445    0.0000 C   0  0  0  0  0  0  0  0  0  0  0  0
    2.1340   -4.6445    0.0000 C   0  0  0  0  0  0  0  0  0  0  0  0
    3.8660   -4.6445    0.0000 C   0  0  0  0  0  0  0  0  0  0  0  0
    2.1340   -5.6445    0.0000 C   0  0  0  0  0  0  0  0  0  0  0  0
    3.8660   -5.6445    0.0000 C   0  0  0  0  0  0  0  0  0  0  0  0
    3.0000   -6.1445    0.0000 C   0  0  0  0  0  0  0  0  0  0  0  0
    4.2121    3.1931    0.0000 H   0  0  0  0  0  0  0  0  0  0  0  0
    4.9970    4.4489    0.0000 H   0  0  0  0  0  0  0  0  0  0  0  0
    5.3356    1.9118    0.0000 H   0  0  0  0  0  0  0  0  0  0  0  0
    6.1472    2.0843    0.0000 H   0  0  0  0  0  0  0  0  0  0  0  0
    3.6540    2.9381    0.0000 H   0  0  0  0  0  0  0  0  0  0  0  0
    3.2554    2.2478    0.0000 H   0  0  0  0  0  0  0  0  0  0  0  0
    6.3811    4.3101    0.0000 H   0  0  0  0  0  0  0  0  0  0  0  0
    5.6231    4.6476    0.0000 H   0  0  0  0  0  0  0  0  0  0  0  0
    4.4030   -0.9545    0.0000 H   0  0  0  0  0  0  0  0  0  0  0  0
    2.7880    1.4381    0.0000 H   0  0  0  0  0  0  0  0  0  0  0  0
    2.3894    0.7478    0.0000 H   0  0  0  0  0  0  0  0  0  0  0  0
    5.3426    0.7478    0.0000 H   0  0  0  0  0  0  0  0  0  0  0  0
    4.9441    1.4381    0.0000 H   0  0  0  0  0  0  0  0  0  0  0  0
    7.1384    2.4914    0.0000 H   0  0  0  0  0  0  0  0  0  0  0  0
    7.8665    2.8156    0.0000 H   0  0  0  0  0  0  0  0  0  0  0  0
    2.3894   -0.0369    0.0000 H   0  0  0  0  0  0  0  0  0  0  0  0
    2.7880   -0.7271    0.0000 H   0  0  0  0  0  0  0  0  0  0  0  0
    4.9441   -0.7271    0.0000 H   0  0  0  0  0  0  0  0  0  0  0  0
    5.3426   -0.0369    0.0000 H   0  0  0  0  0  0  0  0  0  0  0  0
    4.0781   -2.2272    0.0000 H   0  0  0  0  0  0  0  0  0  0  0  0
    4.4766   -1.5369    0.0000 H   0  0  0  0  0  0  0  0  0  0  0  0
    2.7880   -1.5619    0.0000 H   0  0  0  0  0  0  0  0  0  0  0  0
    2.3894   -2.2522    0.0000 H   0  0  0  0  0  0  0  0  0  0  0  0
    4.8910    5.6889    0.0000 H   0  0  0  0  0  0  0  0  0  0  0  0
    3.0135    3.6036    0.0000 H   0  0  0  0  0  0  0  0  0  0  0  0
    8.3416    2.8070    0.0000 H   0  0  0  0  0  0  0  0  0  0  0  0
    9.2076    2.9442    0.0000 H   0  0  0  0  0  0  0  0  0  0  0  0
    9.0705    3.8102    0.0000 H   0  0  0  0  0  0  0  0  0  0  0  0
    7.4524    4.9857    0.0000 H   0  0  0  0  0  0  0  0  0  0  0  0
    6.5864    4.8486    0.0000 H   0  0  0  0  0  0  0  0  0  0  0  0
    6.7236    3.9826    0.0000 H   0  0  0  0  0  0  0  0  0  0  0  0
    1.8096    4.6876    0.0000 H   0  0  0  0  0  0  0  0  0  0  0  0
    2.1464    6.2722    0.0000 H   0  0  0  0  0  0  0  0  0  0  0  0
    9.8438    5.1024    0.0000 H   0  0  0  0  0  0  0  0  0  0  0  0
    1.5970   -4.3345    0.0000 H   0  0  0  0  0  0  0  0  0  0  0  0
    4.4030   -4.3345    0.0000 H   0  0  0  0  0  0  0  0  0  0  0  0
    1.5970   -5.9545    0.0000 H   0  0  0  0  0  0  0  0  0  0  0  0
    4.4030   -5.9545    0.0000 H   0  0  0  0  0  0  0  0  0  0  0  0
  1  6  2  0  0  0  0
  1  7  2  0  0  0  0
  1 24  1  0  0  0  0
  1 33  1  0  0  0  0
  2 30  1  0  0  0  0
  3 38  1  0  0  0  0
  4 29  1  0  0  0  0
  4 72  1  0  0  0  0
  5 29  2  0  0  0  0
  8 12  1  0  0  0  0
  8 14  1  0  0  0  0
  8 18  1  0  0  0  0
  9 13  1  0  0  0  0
  9 16  1  0  0  0  0
  9 17  1  0  0  0  0
 10 11  1  0  0  0  0
 10 12  1  0  0  0  0
 10 13  1  6  0  0  0
 10 39  1  0  0  0  0
 11 14  1  0  0  0  0
 11 21  1  1  0  0  0
 11 40  1  0  0  0  0
 12 41  1  0  0  0  0
 12 42  1  0  0  0  0
 13 43  1  0  0  0  0
 13 44  1  0  0  0  0
 14 45  1  0  0  0  0
 14 46  1  0  0  0  0
 15 19  1  0  0  0  0
 15 20  1  0  0  0  0
 15 23  1  0  0  0  0
 15 47  1  0  0  0  0
 16 19  1  0  0  0  0
 16 48  1  0  0  0  0
 16 49  1  0  0  0  0
 17 20  1  0  0  0  0
 17 50  1  0  0  0  0
 17 51  1  0  0  0  0
 18 22  1  0  0  0  0
 18 52  1  0  0  0  0
 18 53  1  0  0  0  0
 19 54  1  0  0  0  0
 19 55  1  0  0  0  0
 20 56  1  0  0  0  0
 20 57  1  0  0  0  0
 21 25  2  0  0  0  0
 21 26  1  0  0  0  0
 22 27  1  0  0  0  0
 22 28  1  0  0  0  0
 22 29  1  0  0  0  0
 23 24  1  0  0  0  0
 23 58  1  0  0  0  0
 23 59  1  0  0  0  0
 24 60  1  0  0  0  0
 24 61  1  0  0  0  0
 25 30  1  0  0  0  0
 25 62  1  0  0  0  0
 26 31  2  0  0  0  0
 26 63  1  0  0  0  0
 27 64  1  0  0  0  0
 27 65  1  0  0  0  0
 27 66  1  0  0  0  0
 28 67  1  0  0  0  0
 28 68  1  0  0  0  0
 28 69  1  0  0  0  0
 30 32  2  0  0  0  0
 31 32  1  0  0  0  0
 31 70  1  0  0  0  0
 32 71  1  0  0  0  0
 33 34  2  0  0  0  0
 33 35  1  0  0  0  0
 34 36  1  0  0  0  0
 34 73  1  0  0  0  0
 35 37  2  0  0  0  0
 35 74  1  0  0  0  0
 36 38  2  0  0  0  0
 36 75  1  0  0  0  0
 37 38  1  0  0  0  0
 37 76  1  0  0  0  0
M  END
> <PUBCHEM_COMPOUND_CID>
512893
> <PUBCHEM_COMPOUND_CANONICALIZED>
1
> <PUBCHEM_CACTVS_COMPLEXITY>
880
> <PUBCHEM_CACTVS_HBOND_ACCEPTOR>
8
> <PUBCHEM_CACTVS_HBOND_DONOR>
1
> <PUBCHEM_CACTVS_ROTATABLE_BOND>
10
> <PUBCHEM_CACTVS_SUBSKEYS>
AAADcfB7OYBAAAAAAAAAAAAAAAAAAWAAAAA8YIAAAAAAAAABQAAAHwQACAAADwDF2AyyCYMAAgqIAiDSCHBCAAAgCBAIiBkIAIgIICqg0RGEYAAigACoiAcQgMAOgAAAAAAAAAAAAAAAAAAAAAAAAAAAAA==
> <PUBCHEM_IUPAC_OPENEYE_NAME>
3-[(3S,4S)-3-(3-fluorophenyl)-4-[[4-[2-(4-fluorophenyl)sulfonylethyl]-1-piperidyl]methyl]pyrrolidin-1-yl]-2,2-dimethyl-propanoic acid
> <PUBCHEM_IUPAC_CAS_NAME>
3-[(3S,4S)-3-(3-fluorophenyl)-4-[[4-[2-(4-fluorophenyl)sulfonylethyl]-1-piperidinyl]methyl]-1-pyrrolidinyl]-2,2-dimethylpropanoic acid
> <PUBCHEM_IUPAC_NAME_MARKUP>
3-[(3<I>S</I>,4<I>S</I>)-3-(3-fluorophenyl)-4-[[4-[2-(4-fluorophenyl)sulfonylethyl]piperidin-1-yl]methyl]pyrrolidin-1-yl]-2,2-dimethylpropanoic acid
> <PUBCHEM_IUPAC_NAME>
3-[(3S,4S)-3-(3-fluorophenyl)-4-[[4-[2-(4-fluorophenyl)sulfonylethyl]piperidin-1-yl]methyl]pyrrolidin-1-yl]-2,2-dimethylpropanoic acid
> <PUBCHEM_IUPAC_SYSTEMATIC_NAME>
3-[(3S,4S)-3-(3-fluorophenyl)-4-[[4-[2-(4-fluorophenyl)sulfonylethyl]piperidin-1-yl]methyl]pyrrolidin-1-yl]-2,2-dimethyl-propanoic acid
> <PUBCHEM_IUPAC_TRADITIONAL_NAME>
3-[(3S,4S)-3-(3-fluorophenyl)-4-[[4-[2-(4-fluorophenyl)sulfonylethyl]piperidino]methyl]pyrrolidino]-2,2-dimethyl-propionic acid
> <PUBCHEM_IUPAC_INCHI>
InChI=1S/C29H38F2N2O4S/c1-29(2,28(34)35)20-33-18-23(27(19-33)22-4-3-5-25(31)16-22)17-32-13-10-21(11-14-32)12-15-38(36,37)26-8-6-24(30)7-9-26/h3-9,16,21,23,27H,10-15,17-20H2,1-2H3,(H,34,35)/t23-,27+/m0/s1
> <PUBCHEM_IUPAC_INCHIKEY>
ZWIFXENMYAEYAE-WNCULLNHSA-N
> <PUBCHEM_XLOGP3_AA>
2.5
> <PUBCHEM_EXACT_MASS>
548.25203520
> <PUBCHEM_MOLECULAR_FORMULA>
C29H38F2N2O4S
> <PUBCHEM_MOLECULAR_WEIGHT>
548.7
> <PUBCHEM_OPENEYE_CAN_SMILES>
CC(C)(CN1CC(C(C1)C2=CC(=CC=C2)F)CN3CCC(CC3)CCS(=O)(=O)C4=CC=C(C=C4)F)C(=O)O
> <PUBCHEM_OPENEYE_ISO_SMILES>
CC(C)(CN1C[C@@H]([C@H](C1)C2=CC(=CC=C2)F)CN3CCC(CC3)CCS(=O)(=O)C4=CC=C(C=C4)F)C(=O)O
> <PUBCHEM_CACTVS_TPSA>
86.3
> <PUBCHEM_MONOISOTOPIC_WEIGHT>
548.25203520
> <PUBCHEM_TOTAL_CHARGE>
0
> <PUBCHEM_HEAVY_ATOM_COUNT>
38
> <PUBCHEM_ATOM_DEF_STEREO_COUNT>
2
> <PUBCHEM_ATOM_UDEF_STEREO_COUNT>
0
> <PUBCHEM_BOND_DEF_STEREO_COUNT>
0
> <PUBCHEM_BOND_UDEF_STEREO_COUNT>
0
> <PUBCHEM_ISOTOPIC_ATOM_COUNT>
0
> <PUBCHEM_COMPONENT_COUNT>
1
> <PUBCHEM_CACTVS_TAUTO_COUNT>
-1
> <PUBCHEM_COORDINATE_TYPE>
1
5
255
> <PUBCHEM_BONDANNOTATIONS>
10  13  6
11  21  5
21  25  8
21  26  8
25  30  8
26  31  8
30  32  8
31  32  8
33  34  8
33  35  8
34  36  8
35  37  8
36  38  8
37  38  8
$$$$
