512882
  -OEChem-10302200282D
237241  0     1  0  0  0  0  0999 V2000
    4.8671   25.4190    0.0000 O   0  0  0  0  0  0  0  0  0  0  0  0
    6.5991   25.4190    0.0000 O   0  0  0  0  0  0  0  0  0  0  0  0
    9.1972   23.9190    0.0000 O   0  0  0  0  0  0  0  0  0  0  0  0
    3.1350   25.4190    0.0000 O   0  0  0  0  0  0  0  0  0  0  0  0
    7.4651   25.9190    0.0000 O   0  0  0  0  0  0  0  0  0  0  0  0
   11.0157    1.1200    0.0000 O   0  0  0  0  0  0  0  0  0  0  0  0
    0.5369   23.9190    0.0000 O   0  0  0  0  0  0  0  0  0  0  0  0
    9.1972   26.9190    0.0000 O   0  0  0  0  0  0  0  0  0  0  0  0
   12.7478    3.1200    0.0000 O   0  0  0  0  0  0  0  0  0  0  0  0
    9.2837    1.1200    0.0000 O   0  0  0  0  0  0  0  0  0  0  0  0
   11.8818    0.6200    0.0000 O   0  0  0  0  0  0  0  0  0  0  0  0
   14.4798    3.1200    0.0000 O   0  0  0  0  0  0  0  0  0  0  0  0
    7.5516    3.1200    0.0000 O   0  0  0  0  0  0  0  0  0  0  0  0
   13.5273   16.4190    0.0000 O   0  0  0  0  0  0  0  0  0  0  0  0
   10.0632   22.4190    0.0000 O   0  0  0  0  0  0  0  0  0  0  0  0
    7.4651   20.9190    0.0000 O   0  0  0  0  0  0  0  0  0  0  0  0
    9.9444   23.0927    0.0000 O   0  0  0  0  0  0  0  0  0  0  0  0
   15.2594   13.4190    0.0000 O   0  0  0  0  0  0  0  0  0  0  0  0
   15.2594   14.4190    0.0000 O   0  0  0  0  0  0  0  0  0  0  0  0
    8.3312   19.4190    0.0000 O   0  0  0  0  0  0  0  0  0  0  0  0
   10.9292   20.9190    0.0000 O   0  0  0  0  0  0  0  0  0  0  0  0
    9.1972   17.9190    0.0000 O   0  0  0  0  0  0  0  0  0  0  0  0
   12.6613   17.9190    0.0000 O   0  0  0  0  0  0  0  0  0  0  0  0
   11.7953   19.4190    0.0000 O   0  0  0  0  0  0  0  0  0  0  0  0
   10.9292   14.9190    0.0000 O   0  0  0  0  0  0  0  0  0  0  0  0
   16.2594   15.4190    0.0000 O   0  0  0  0  0  0  0  0  0  0  0  0
   12.6613   15.9190    0.0000 O   0  0  0  0  0  0  0  0  0  0  0  0
    8.4177    4.6200    0.0000 O   0  0  0  0  0  0  0  0  0  0  0  0
    7.5516    6.1200    0.0000 O   0  0  0  0  0  0  0  0  0  0  0  0
    5.7793    9.1686    0.0000 O   0  0  0  0  0  0  0  0  0  0  0  0
    2.3076    7.1820    0.0000 O   0  0  0  0  0  0  0  0  0  0  0  0
    5.7331   23.9190    0.0000 C   0  0  3  0  0  0  0  0  0  0  0  0
    4.8671   24.4190    0.0000 C   0  0  3  0  0  0  0  0  0  0  0  0
    6.5991   24.4190    0.0000 C   0  0  3  0  0  0  0  0  0  0  0  0
    4.0010   23.9190    0.0000 C   0  0  3  0  0  0  0  0  0  0  0  0
    7.4651   23.9190    0.0000 C   0  0  3  0  0  0  0  0  0  0  0  0
    3.1350   24.4190    0.0000 C   0  0  3  0  0  0  0  0  0  0  0  0
    8.3312   24.4190    0.0000 C   0  0  3  0  0  0  0  0  0  0  0  0
    2.2690   23.9190    0.0000 C   0  0  3  0  0  0  0  0  0  0  0  0
    8.3312   25.4190    0.0000 C   0  0  3  0  0  0  0  0  0  0  0  0
    5.7331   22.9190    0.0000 C   0  0  0  0  0  0  0  0  0  0  0  0
    4.0010   22.9190    0.0000 C   0  0  0  0  0  0  0  0  0  0  0  0
    7.4651   22.9190    0.0000 C   0  0  0  0  0  0  0  0  0  0  0  0
    1.4030   24.4190    0.0000 C   0  0  3  0  0  0  0  0  0  0  0  0
    9.1972   25.9190    0.0000 C   0  0  3  0  0  0  0  0  0  0  0  0
    2.2690   22.9190    0.0000 C   0  0  0  0  0  0  0  0  0  0  0  0
   10.0632   25.4190    0.0000 C   0  0  0  0  0  0  0  0  0  0  0  0
   12.7478    1.1200    0.0000 C   0  0  3  0  0  0  0  0  0  0  0  0
   11.8818    1.6200    0.0000 C   0  0  3  0  0  0  0  0  0  0  0  0
    1.4030   25.4190    0.0000 C   0  0  0  0  0  0  0  0  0  0  0  0
   11.8818    2.6200    0.0000 C   0  0  3  0  0  0  0  0  0  0  0  0
   13.6138    1.6200    0.0000 C   0  0  0  0  0  0  0  0  0  0  0  0
   10.0632   24.4190    0.0000 C   0  0  0  0  0  0  0  0  0  0  0  0
   13.6138    2.6200    0.0000 C   0  0  3  0  0  0  0  0  0  0  0  0
   10.1497    1.6200    0.0000 C   0  0  3  0  0  0  0  0  0  0  0  0
    9.1972   22.9190    0.0000 C   0  0  0  0  0  0  0  0  0  0  0  0
   10.9292   23.9190    0.0000 C   0  0  0  0  0  0  0  0  0  0  0  0
   13.6138    0.6200    0.0000 C   0  0  0  0  0  0  0  0  0  0  0  0
   10.1497    2.6200    0.0000 C   0  0  0  0  0  0  0  0  0  0  0  0
    8.3312   22.4190    0.0000 C   0  0  0  0  0  0  0  0  0  0  0  0
    0.5369   25.9190    0.0000 C   0  0  0  0  0  0  0  0  0  0  0  0
    8.4177    2.6200    0.0000 C   0  0  3  0  0  0  0  0  0  0  0  0
    9.2837    3.1200    0.0000 C   0  0  0  0  0  0  0  0  0  0  0  0
    8.3312   21.4190    0.0000 C   0  0  3  0  0  0  0  0  0  0  0  0
    8.4177    1.6200    0.0000 C   0  0  3  0  0  0  0  0  0  0  0  0
   10.9292   22.9190    0.0000 C   0  0  3  0  0  0  0  0  0  0  0  0
    9.1972   20.9190    0.0000 C   0  0  3  0  0  0  0  0  0  0  0  0
   11.0157    3.1200    0.0000 C   0  0  0  0  0  0  0  0  0  0  0  0
   13.5273   13.4190    0.0000 C   0  0  3  0  0  0  0  0  0  0  0  0
    9.1972   19.9190    0.0000 C   0  0  3  0  0  0  0  0  0  0  0  0
   14.3933   13.9190    0.0000 C   0  0  3  0  0  0  0  0  0  0  0  0
   14.3933   14.9190    0.0000 C   0  0  3  0  0  0  0  0  0  0  0  0
   11.7953   22.4190    0.0000 C   0  0  0  0  0  0  0  0  0  0  0  0
   11.7953   21.4190    0.0000 C   0  0  3  0  0  0  0  0  0  0  0  0
   14.3933   16.9190    0.0000 C   0  0  3  0  0  0  0  0  0  0  0  0
   12.6613   13.9190    0.0000 C   0  0  0  0  0  0  0  0  0  0  0  0
   10.0632   19.4190    0.0000 C   0  0  0  0  0  0  0  0  0  0  0  0
   12.6613   20.9190    0.0000 C   0  0  0  0  0  0  0  0  0  0  0  0
   14.3933   17.9190    0.0000 C   0  0  0  0  0  0  0  0  0  0  0  0
   15.2594   16.4190    0.0000 C   0  0  0  0  0  0  0  0  0  0  0  0
   12.6613   14.9190    0.0000 C   0  0  0  0  0  0  0  0  0  0  0  0
   10.0632   18.4190    0.0000 C   0  0  3  0  0  0  0  0  0  0  0  0
   13.5273   18.4190    0.0000 C   0  0  3  0  0  0  0  0  0  0  0  0
   12.6613   19.9190    0.0000 C   0  0  3  0  0  0  0  0  0  0  0  0
   15.2594   15.4190    0.0000 C   0  0  0  0  0  0  0  0  0  0  0  0
   13.5273   19.4190    0.0000 C   0  0  0  0  0  0  0  0  0  0  0  0
    7.5516    1.1200    0.0000 C   0  0  0  0  0  0  0  0  0  0  0  0
   10.0632   21.4190    0.0000 C   0  0  0  0  0  0  0  0  0  0  0  0
   11.7953   15.4190    0.0000 C   0  0  3  0  0  0  0  0  0  0  0  0
   10.9292   17.9190    0.0000 C   0  0  0  0  0  0  0  0  0  0  0  0
   13.5273   15.4190    0.0000 C   0  0  0  0  0  0  0  0  0  0  0  0
   11.7953   16.4190    0.0000 C   0  0  0  0  0  0  0  0  0  0  0  0
   10.9292   16.9190    0.0000 C   0  0  0  0  0  0  0  0  0  0  0  0
   13.5273   12.4190    0.0000 C   0  0  0  0  0  0  0  0  0  0  0  0
    7.5516    4.1200    0.0000 C   0  0  0  0  0  0  0  0  0  0  0  0
    6.6856    4.6200    0.0000 C   0  0  3  0  0  0  0  0  0  0  0  0
    6.6856    5.6200    0.0000 C   0  0  3  0  0  0  0  0  0  0  0  0
    5.8196    4.1200    0.0000 C   0  0  0  0  0  0  0  0  0  0  0  0
    5.8196    6.1200    0.0000 C   0  0  0  0  0  0  0  0  0  0  0  0
    5.8156    7.1616    0.0000 C   0  0  0  0  0  0  0  0  0  0  0  0
    4.9155    5.6027    0.0000 C   0  0  0  0  0  0  0  0  0  0  0  0
    4.9075    7.6720    0.0000 C   0  0  0  0  0  0  0  0  0  0  0  0
    4.0195    6.1339    0.0000 C   0  0  0  0  0  0  0  0  0  0  0  0
    4.0396    7.1753    0.0000 C   0  0  0  0  0  0  0  0  0  0  0  0
    4.9114    8.6720    0.0000 C   0  0  0  0  0  0  0  0  0  0  0  0
    3.1755    7.6786    0.0000 C   0  0  0  0  0  0  0  0  0  0  0  0
    3.1794    8.6786    0.0000 C   0  0  0  0  0  0  0  0  0  0  0  0
    4.0473    9.1753    0.0000 C   0  0  0  0  0  0  0  0  0  0  0  0
    2.3153    9.1820    0.0000 C   0  0  0  0  0  0  0  0  0  0  0  0
    6.4692   23.4940    0.0000 H   0  0  0  0  0  0  0  0  0  0  0  0
    4.1309   24.8440    0.0000 H   0  0  0  0  0  0  0  0  0  0  0  0
    7.3352   24.8440    0.0000 H   0  0  0  0  0  0  0  0  0  0  0  0
    4.7372   23.4940    0.0000 H   0  0  0  0  0  0  0  0  0  0  0  0
    8.2013   23.4940    0.0000 H   0  0  0  0  0  0  0  0  0  0  0  0
    3.8711   24.8440    0.0000 H   0  0  0  0  0  0  0  0  0  0  0  0
    9.0673   24.8440    0.0000 H   0  0  0  0  0  0  0  0  0  0  0  0
    3.0051   23.4940    0.0000 H   0  0  0  0  0  0  0  0  0  0  0  0
    7.5950   24.9940    0.0000 H   0  0  0  0  0  0  0  0  0  0  0  0
    5.1131   22.9190    0.0000 H   0  0  0  0  0  0  0  0  0  0  0  0
    5.7331   22.2990    0.0000 H   0  0  0  0  0  0  0  0  0  0  0  0
    6.3531   22.9190    0.0000 H   0  0  0  0  0  0  0  0  0  0  0  0
    3.3810   22.9190    0.0000 H   0  0  0  0  0  0  0  0  0  0  0  0
    4.0010   22.2990    0.0000 H   0  0  0  0  0  0  0  0  0  0  0  0
    4.6210   22.9190    0.0000 H   0  0  0  0  0  0  0  0  0  0  0  0
    6.8451   22.9190    0.0000 H   0  0  0  0  0  0  0  0  0  0  0  0
    7.4651   22.2990    0.0000 H   0  0  0  0  0  0  0  0  0  0  0  0
    8.0851   22.9190    0.0000 H   0  0  0  0  0  0  0  0  0  0  0  0
    0.6668   24.8440    0.0000 H   0  0  0  0  0  0  0  0  0  0  0  0
    9.9333   26.3440    0.0000 H   0  0  0  0  0  0  0  0  0  0  0  0
    1.6490   22.9190    0.0000 H   0  0  0  0  0  0  0  0  0  0  0  0
    2.2690   22.2990    0.0000 H   0  0  0  0  0  0  0  0  0  0  0  0
    2.8890   22.9190    0.0000 H   0  0  0  0  0  0  0  0  0  0  0  0
    4.3301   25.7290    0.0000 H   0  0  0  0  0  0  0  0  0  0  0  0
    6.0622   25.7290    0.0000 H   0  0  0  0  0  0  0  0  0  0  0  0
   10.6738   25.3113    0.0000 H   0  0  0  0  0  0  0  0  0  0  0  0
   10.2753   26.0016    0.0000 H   0  0  0  0  0  0  0  0  0  0  0  0
   11.1456    2.0450    0.0000 H   0  0  0  0  0  0  0  0  0  0  0  0
    2.0135   25.3113    0.0000 H   0  0  0  0  0  0  0  0  0  0  0  0
    1.6150   26.0016    0.0000 H   0  0  0  0  0  0  0  0  0  0  0  0
    2.5981   25.7290    0.0000 H   0  0  0  0  0  0  0  0  0  0  0  0
   11.8818    3.4700    0.0000 H   0  0  0  0  0  0  0  0  0  0  0  0
   13.8259    1.0374    0.0000 H   0  0  0  0  0  0  0  0  0  0  0  0
   14.2244    1.7277    0.0000 H   0  0  0  0  0  0  0  0  0  0  0  0
    9.4526   24.5266    0.0000 H   0  0  0  0  0  0  0  0  0  0  0  0
    9.8512   23.8364    0.0000 H   0  0  0  0  0  0  0  0  0  0  0  0
    7.4651   26.5390    0.0000 H   0  0  0  0  0  0  0  0  0  0  0  0
   13.6138    3.4700    0.0000 H   0  0  0  0  0  0  0  0  0  0  0  0
   10.1497    0.7700    0.0000 H   0  0  0  0  0  0  0  0  0  0  0  0
   11.5398   23.8113    0.0000 H   0  0  0  0  0  0  0  0  0  0  0  0
   11.1413   24.5016    0.0000 H   0  0  0  0  0  0  0  0  0  0  0  0
   13.3038    0.0831    0.0000 H   0  0  0  0  0  0  0  0  0  0  0  0
   14.1508    0.3100    0.0000 H   0  0  0  0  0  0  0  0  0  0  0  0
   13.9238    1.1569    0.0000 H   0  0  0  0  0  0  0  0  0  0  0  0
    0.0000   24.2290    0.0000 H   0  0  0  0  0  0  0  0  0  0  0  0
   10.7603    2.5123    0.0000 H   0  0  0  0  0  0  0  0  0  0  0  0
   10.3618    3.2026    0.0000 H   0  0  0  0  0  0  0  0  0  0  0  0
    8.1191   23.0016    0.0000 H   0  0  0  0  0  0  0  0  0  0  0  0
    7.7206   22.3113    0.0000 H   0  0  0  0  0  0  0  0  0  0  0  0
    9.7341   27.2290    0.0000 H   0  0  0  0  0  0  0  0  0  0  0  0
    7.6816    2.1950    0.0000 H   0  0  0  0  0  0  0  0  0  0  0  0
    9.6822    3.5950    0.0000 H   0  0  0  0  0  0  0  0  0  0  0  0
    8.8852    3.5950    0.0000 H   0  0  0  0  0  0  0  0  0  0  0  0
    0.8469   26.4559    0.0000 H   0  0  0  0  0  0  0  0  0  0  0  0
    0.0000   26.2290    0.0000 H   0  0  0  0  0  0  0  0  0  0  0  0
    0.2269   25.3820    0.0000 H   0  0  0  0  0  0  0  0  0  0  0  0
    7.5950   21.8440    0.0000 H   0  0  0  0  0  0  0  0  0  0  0  0
    8.4177    0.7700    0.0000 H   0  0  0  0  0  0  0  0  0  0  0  0
   10.6385   22.1202    0.0000 H   0  0  0  0  0  0  0  0  0  0  0  0
    9.1972   21.7690    0.0000 H   0  0  0  0  0  0  0  0  0  0  0  0
   11.3257    3.6569    0.0000 H   0  0  0  0  0  0  0  0  0  0  0  0
   10.4788    3.4300    0.0000 H   0  0  0  0  0  0  0  0  0  0  0  0
   10.7057    2.5831    0.0000 H   0  0  0  0  0  0  0  0  0  0  0  0
   12.7912   12.9940    0.0000 H   0  0  0  0  0  0  0  0  0  0  0  0
   14.3933   13.0690    0.0000 H   0  0  0  0  0  0  0  0  0  0  0  0
    9.1972   19.0690    0.0000 H   0  0  0  0  0  0  0  0  0  0  0  0
   12.4058   22.3113    0.0000 H   0  0  0  0  0  0  0  0  0  0  0  0
   12.0073   23.0016    0.0000 H   0  0  0  0  0  0  0  0  0  0  0  0
   11.8818    0.0000    0.0000 H   0  0  0  0  0  0  0  0  0  0  0  0
   11.7953   20.5690    0.0000 H   0  0  0  0  0  0  0  0  0  0  0  0
   13.6572   17.3440    0.0000 H   0  0  0  0  0  0  0  0  0  0  0  0
   12.0507   14.0266    0.0000 H   0  0  0  0  0  0  0  0  0  0  0  0
   12.4492   13.3364    0.0000 H   0  0  0  0  0  0  0  0  0  0  0  0
   10.6738   19.3113    0.0000 H   0  0  0  0  0  0  0  0  0  0  0  0
   10.2753   20.0016    0.0000 H   0  0  0  0  0  0  0  0  0  0  0  0
   15.0039   17.8113    0.0000 H   0  0  0  0  0  0  0  0  0  0  0  0
   14.6054   18.5016    0.0000 H   0  0  0  0  0  0  0  0  0  0  0  0
   15.8699   16.3113    0.0000 H   0  0  0  0  0  0  0  0  0  0  0  0
   15.4714   17.0016    0.0000 H   0  0  0  0  0  0  0  0  0  0  0  0
   13.2719   20.8113    0.0000 H   0  0  0  0  0  0  0  0  0  0  0  0
   12.8733   21.5016    0.0000 H   0  0  0  0  0  0  0  0  0  0  0  0
   13.2719   14.8113    0.0000 H   0  0  0  0  0  0  0  0  0  0  0  0
   12.8733   15.5016    0.0000 H   0  0  0  0  0  0  0  0  0  0  0  0
    9.3271   18.8440    0.0000 H   0  0  0  0  0  0  0  0  0  0  0  0
   12.7912   18.8440    0.0000 H   0  0  0  0  0  0  0  0  0  0  0  0
   12.6613   19.0690    0.0000 H   0  0  0  0  0  0  0  0  0  0  0  0
   14.1379   19.3113    0.0000 H   0  0  0  0  0  0  0  0  0  0  0  0
   13.7394   20.0016    0.0000 H   0  0  0  0  0  0  0  0  0  0  0  0
    7.2416    1.6569    0.0000 H   0  0  0  0  0  0  0  0  0  0  0  0
    7.0147    0.8100    0.0000 H   0  0  0  0  0  0  0  0  0  0  0  0
    7.8616    0.5831    0.0000 H   0  0  0  0  0  0  0  0  0  0  0  0
   10.3732   20.8820    0.0000 H   0  0  0  0  0  0  0  0  0  0  0  0
   10.6002   21.7290    0.0000 H   0  0  0  0  0  0  0  0  0  0  0  0
    9.7532   21.9559    0.0000 H   0  0  0  0  0  0  0  0  0  0  0  0
   11.7953   14.5690    0.0000 H   0  0  0  0  0  0  0  0  0  0  0  0
   11.5398   17.8113    0.0000 H   0  0  0  0  0  0  0  0  0  0  0  0
   11.1413   18.5016    0.0000 H   0  0  0  0  0  0  0  0  0  0  0  0
   14.4798    3.7400    0.0000 H   0  0  0  0  0  0  0  0  0  0  0  0
   12.4058   16.3113    0.0000 H   0  0  0  0  0  0  0  0  0  0  0  0
   12.0073   17.0016    0.0000 H   0  0  0  0  0  0  0  0  0  0  0  0
   10.3187   17.0266    0.0000 H   0  0  0  0  0  0  0  0  0  0  0  0
   10.7172   16.3364    0.0000 H   0  0  0  0  0  0  0  0  0  0  0  0
   12.9073   12.4190    0.0000 H   0  0  0  0  0  0  0  0  0  0  0  0
   13.5273   11.7990    0.0000 H   0  0  0  0  0  0  0  0  0  0  0  0
   14.1473   12.4190    0.0000 H   0  0  0  0  0  0  0  0  0  0  0  0
    6.9282   21.2290    0.0000 H   0  0  0  0  0  0  0  0  0  0  0  0
   10.0522   23.7033    0.0000 H   0  0  0  0  0  0  0  0  0  0  0  0
   15.2594   12.7990    0.0000 H   0  0  0  0  0  0  0  0  0  0  0  0
   15.8794   14.4190    0.0000 H   0  0  0  0  0  0  0  0  0  0  0  0
    7.7942   19.7290    0.0000 H   0  0  0  0  0  0  0  0  0  0  0  0
   10.9292   20.2990    0.0000 H   0  0  0  0  0  0  0  0  0  0  0  0
    5.9495    5.0450    0.0000 H   0  0  0  0  0  0  0  0  0  0  0  0
    9.1972   17.2990    0.0000 H   0  0  0  0  0  0  0  0  0  0  0  0
   12.1244   18.2290    0.0000 H   0  0  0  0  0  0  0  0  0  0  0  0
   11.2583   19.7290    0.0000 H   0  0  0  0  0  0  0  0  0  0  0  0
   10.9292   14.2990    0.0000 H   0  0  0  0  0  0  0  0  0  0  0  0
    7.4217    5.1950    0.0000 H   0  0  0  0  0  0  0  0  0  0  0  0
    5.5096    4.6569    0.0000 H   0  0  0  0  0  0  0  0  0  0  0  0
    5.2827    3.8100    0.0000 H   0  0  0  0  0  0  0  0  0  0  0  0
    6.1296    3.5831    0.0000 H   0  0  0  0  0  0  0  0  0  0  0  0
    7.5516    6.7400    0.0000 H   0  0  0  0  0  0  0  0  0  0  0  0
    6.3501    7.4758    0.0000 H   0  0  0  0  0  0  0  0  0  0  0  0
    4.9107    4.9827    0.0000 H   0  0  0  0  0  0  0  0  0  0  0  0
    3.4779    5.8322    0.0000 H   0  0  0  0  0  0  0  0  0  0  0  0
    4.0497    9.7953    0.0000 H   0  0  0  0  0  0  0  0  0  0  0  0
    2.6273    9.7177    0.0000 H   0  0  0  0  0  0  0  0  0  0  0  0
    1.7795    9.4940    0.0000 H   0  0  0  0  0  0  0  0  0  0  0  0
    2.0032    8.6462    0.0000 H   0  0  0  0  0  0  0  0  0  0  0  0
  1 33  1  0  0  0  0
  1133  1  0  0  0  0
  2 34  1  0  0  0  0
  2134  1  0  0  0  0
  3 38  1  0  0  0  0
  3 56  1  0  0  0  0
  4 37  1  0  0  0  0
  4140  1  0  0  0  0
  5 40  1  0  0  0  0
  5146  1  0  0  0  0
  6 49  1  0  0  0  0
  6 55  1  0  0  0  0
  7 44  1  0  0  0  0
  7154  1  0  0  0  0
  8 45  1  0  0  0  0
  8159  1  0  0  0  0
  9 51  1  0  0  0  0
  9 54  1  0  0  0  0
 10 55  1  0  0  0  0
 10 65  1  0  0  0  0
 11 48  1  0  0  0  0
 11178  1  0  0  0  0
 12 54  1  0  0  0  0
 12207  1  0  0  0  0
 13 62  1  0  0  0  0
 13 95  1  0  0  0  0
 14 75  1  0  0  0  0
 14 91  1  0  0  0  0
 15 56  2  0  0  0  0
 16 64  1  0  0  0  0
 16215  1  0  0  0  0
 17 66  1  0  0  0  0
 17216  1  0  0  0  0
 18 71  1  0  0  0  0
 18217  1  0  0  0  0
 19 72  1  0  0  0  0
 19218  1  0  0  0  0
 20 70  1  0  0  0  0
 20219  1  0  0  0  0
 21 74  1  0  0  0  0
 21220  1  0  0  0  0
 22 82  1  0  0  0  0
 22222  1  0  0  0  0
 23 83  1  0  0  0  0
 23223  1  0  0  0  0
 24 84  1  0  0  0  0
 24224  1  0  0  0  0
 25 89  1  0  0  0  0
 25225  1  0  0  0  0
 26 85  2  0  0  0  0
 27 91  2  0  0  0  0
 28 95  2  0  0  0  0
 29 97  1  0  0  0  0
 29230  1  0  0  0  0
 30105  2  0  0  0  0
 31106  2  0  0  0  0
 32 33  1  0  0  0  0
 32 34  1  0  0  0  0
 32 41  1  0  0  0  0
 32110  1  0  0  0  0
 33 35  1  0  0  0  0
 33111  1  0  0  0  0
 34 36  1  0  0  0  0
 34112  1  0  0  0  0
 35 37  1  0  0  0  0
 35 42  1  0  0  0  0
 35113  1  0  0  0  0
 36 38  1  0  0  0  0
 36 43  1  0  0  0  0
 36114  1  0  0  0  0
 37 39  1  0  0  0  0
 37115  1  0  0  0  0
 38 40  1  0  0  0  0
 38116  1  0  0  0  0
 39 44  1  0  0  0  0
 39 46  1  0  0  0  0
 39117  1  0  0  0  0
 40 45  1  0  0  0  0
 40118  1  0  0  0  0
 41119  1  0  0  0  0
 41120  1  0  0  0  0
 41121  1  0  0  0  0
 42122  1  0  0  0  0
 42123  1  0  0  0  0
 42124  1  0  0  0  0
 43125  1  0  0  0  0
 43126  1  0  0  0  0
 43127  1  0  0  0  0
 44 50  1  0  0  0  0
 44128  1  0  0  0  0
 45 47  1  0  0  0  0
 45129  1  0  0  0  0
 46130  1  0  0  0  0
 46131  1  0  0  0  0
 46132  1  0  0  0  0
 47 53  1  0  0  0  0
 47135  1  0  0  0  0
 47136  1  0  0  0  0
 48 49  1  0  0  0  0
 48 52  1  0  0  0  0
 48 58  1  0  0  0  0
 49 51  1  0  0  0  0
 49137  1  0  0  0  0
 50 61  1  0  0  0  0
 50138  1  0  0  0  0
 50139  1  0  0  0  0
 51 68  1  0  0  0  0
 51141  1  0  0  0  0
 52 54  1  0  0  0  0
 52142  1  0  0  0  0
 52143  1  0  0  0  0
 53 57  1  0  0  0  0
 53144  1  0  0  0  0
 53145  1  0  0  0  0
 54147  1  0  0  0  0
 55 59  1  0  0  0  0
 55148  1  0  0  0  0
 56 60  1  0  0  0  0
 57 66  1  0  0  0  0
 57149  1  0  0  0  0
 57150  1  0  0  0  0
 58151  1  0  0  0  0
 58152  1  0  0  0  0
 58153  1  0  0  0  0
 59 63  1  0  0  0  0
 59155  1  0  0  0  0
 59156  1  0  0  0  0
 60 64  1  0  0  0  0
 60157  1  0  0  0  0
 60158  1  0  0  0  0
 61163  1  0  0  0  0
 61164  1  0  0  0  0
 61165  1  0  0  0  0
 62 63  1  0  0  0  0
 62 65  1  0  0  0  0
 62160  1  0  0  0  0
 63161  1  0  0  0  0
 63162  1  0  0  0  0
 64 67  1  0  0  0  0
 64166  1  0  0  0  0
 65 87  1  0  0  0  0
 65167  1  0  0  0  0
 66 73  1  0  0  0  0
 66168  1  0  0  0  0
 67 70  1  0  0  0  0
 67 88  1  0  0  0  0
 67169  1  0  0  0  0
 68170  1  0  0  0  0
 68171  1  0  0  0  0
 68172  1  0  0  0  0
 69 71  1  0  0  0  0
 69 76  1  0  0  0  0
 69 94  1  0  0  0  0
 69173  1  0  0  0  0
 70 77  1  0  0  0  0
 70175  1  0  0  0  0
 71 72  1  0  0  0  0
 71174  1  0  0  0  0
 72 85  1  0  0  0  0
 72 91  1  0  0  0  0
 73 74  1  0  0  0  0
 73176  1  0  0  0  0
 73177  1  0  0  0  0
 74 78  1  0  0  0  0
 74179  1  0  0  0  0
 75 79  1  0  0  0  0
 75 80  1  0  0  0  0
 75180  1  0  0  0  0
 76 81  1  0  0  0  0
 76181  1  0  0  0  0
 76182  1  0  0  0  0
 77 82  1  0  0  0  0
 77183  1  0  0  0  0
 77184  1  0  0  0  0
 78 84  1  0  0  0  0
 78189  1  0  0  0  0
 78190  1  0  0  0  0
 79 83  1  0  0  0  0
 79185  1  0  0  0  0
 79186  1  0  0  0  0
 80 85  1  0  0  0  0
 80187  1  0  0  0  0
 80188  1  0  0  0  0
 81 89  1  0  0  0  0
 81191  1  0  0  0  0
 81192  1  0  0  0  0
 82 90  1  0  0  0  0
 82193  1  0  0  0  0
 83 86  1  0  0  0  0
 83194  1  0  0  0  0
 84 86  1  0  0  0  0
 84195  1  0  0  0  0
 86196  1  0  0  0  0
 86197  1  0  0  0  0
 87198  1  0  0  0  0
 87199  1  0  0  0  0
 87200  1  0  0  0  0
 88201  1  0  0  0  0
 88202  1  0  0  0  0
 88203  1  0  0  0  0
 89 92  1  0  0  0  0
 89204  1  0  0  0  0
 90 93  1  0  0  0  0
 90205  1  0  0  0  0
 90206  1  0  0  0  0
 92 93  1  0  0  0  0
 92208  1  0  0  0  0
 92209  1  0  0  0  0
 93210  1  0  0  0  0
 93211  1  0  0  0  0
 94212  1  0  0  0  0
 94213  1  0  0  0  0
 94214  1  0  0  0  0
 95 96  1  0  0  0  0
 96 97  1  0  0  0  0
 96 98  1  0  0  0  0
 96221  1  0  0  0  0
 97 99  1  0  0  0  0
 97226  1  0  0  0  0
 98227  1  0  0  0  0
 98228  1  0  0  0  0
 98229  1  0  0  0  0
 99100  2  0  0  0  0
 99101  1  0  0  0  0
100102  1  0  0  0  0
100231  1  0  0  0  0
101103  2  0  0  0  0
101232  1  0  0  0  0
102104  2  0  0  0  0
102105  1  0  0  0  0
103104  1  0  0  0  0
103233  1  0  0  0  0
104106  1  0  0  0  0
105108  1  0  0  0  0
106107  1  0  0  0  0
107108  2  0  0  0  0
107109  1  0  0  0  0
108234  1  0  0  0  0
109235  1  0  0  0  0
109236  1  0  0  0  0
109237  1  0  0  0  0
M  END
> <PUBCHEM_COMPOUND_CID>
512882
> <PUBCHEM_COMPOUND_CANONICALIZED>
1
> <PUBCHEM_CACTVS_COMPLEXITY>
2510
> <PUBCHEM_CACTVS_HBOND_ACCEPTOR>
31
> <PUBCHEM_CACTVS_HBOND_DONOR>
19
> <PUBCHEM_CACTVS_ROTATABLE_BOND>
16
> <PUBCHEM_CACTVS_SUBSKEYS>
AAADcfB8PgAAAAAAAAAAAAAAAAAAAAAAAAA0SJECAAAAAACBAAAAGgAACAAADVSwmAMyCIAABgCIAqDSCAICAAAkAAAIiAFACMgZNjaIFRCicQAl4AEPmYfJ7PzOwAACAAAQAACAAAQAACAAAAAAAAAAAA==
> <PUBCHEM_IUPAC_OPENEYE_NAME>
[6-(4,6-dihydroxy-2,4-dimethyl-tetrahydropyran-3-yl)oxy-2-methyl-tetrahydropyran-3-yl] 3-hydroxy-2-methyl-3-(6-methyl-5,8-dioxo-2-naphthyl)propanoate;3,5,7,9,13,14,19,21,23,27,31,32-dodecahydroxy-20,30-dimethyl-15-(2,4,6,8-tetrahydroxy-1,3,5,7-tetramethyl-decyl)-16,34-dioxabicyclo[30.2.2]hexatriacontane-17,33,36-trione
> <PUBCHEM_IUPAC_CAS_NAME>
3,5,7,9,13,14,19,21,23,27,31,32-dodecahydroxy-20,30-dimethyl-15-(3,5,7,9-tetrahydroxy-4,6,8-trimethylundecan-2-yl)-16,34-dioxabicyclo[30.2.2]hexatriacontane-17,33,36-trione;3-hydroxy-2-methyl-3-(6-methyl-5,8-dioxo-2-naphthalenyl)propanoic acid [6-[(4,6-dihydroxy-2,4-dimethyl-3-oxanyl)oxy]-2-methyl-3-oxanyl] ester
> <PUBCHEM_IUPAC_NAME_MARKUP>
[6-(4,6-dihydroxy-2,4-dimethyloxan-3-yl)oxy-2-methyloxan-3-yl] 3-hydroxy-2-methyl-3-(6-methyl-5,8-dioxonaphthalen-2-yl)propanoate;3,5,7,9,13,14,19,21,23,27,31,32-dodecahydroxy-20,30-dimethyl-15-(3,5,7,9-tetrahydroxy-4,6,8-trimethylundecan-2-yl)-16,34-dioxabicyclo[30.2.2]hexatriacontane-17,33,36-trione
> <PUBCHEM_IUPAC_NAME>
[6-(4,6-dihydroxy-2,4-dimethyloxan-3-yl)oxy-2-methyloxan-3-yl] 3-hydroxy-2-methyl-3-(6-methyl-5,8-dioxonaphthalen-2-yl)propanoate;3,5,7,9,13,14,19,21,23,27,31,32-dodecahydroxy-20,30-dimethyl-15-(3,5,7,9-tetrahydroxy-4,6,8-trimethylundecan-2-yl)-16,34-dioxabicyclo[30.2.2]hexatriacontane-17,33,36-trione
> <PUBCHEM_IUPAC_SYSTEMATIC_NAME>
[6-[2,4-dimethyl-4,6-bis(oxidanyl)oxan-3-yl]oxy-2-methyl-oxan-3-yl] 2-methyl-3-[6-methyl-5,8-bis(oxidanylidene)naphthalen-2-yl]-3-oxidanyl-propanoate;20,30-dimethyl-3,5,7,9,13,14,19,21,23,27,31,32-dodecakis(oxidanyl)-15-[4,6,8-trimethyl-3,5,7,9-tetrakis(oxidanyl)undecan-2-yl]-16,34-dioxabicyclo[30.2.2]hexatriacontane-17,33,36-trione
> <PUBCHEM_IUPAC_TRADITIONAL_NAME>
3-(5,8-diketo-6-methyl-2-naphthyl)-3-hydroxy-2-methyl-propionic acid [6-(4,6-dihydroxy-2,4-dimethyl-tetrahydropyran-3-yl)oxy-2-methyl-tetrahydropyran-3-yl] ester;3,5,7,9,13,14,19,21,23,27,31,32-dodecahydroxy-20,30-dimethyl-15-(2,4,6,8-tetrahydroxy-1,3,5,7-tetramethyl-decyl)-16,34-dioxabicyclo[30.2.2]hexatriacontane-17,33,36-trione
> <PUBCHEM_IUPAC_INCHI>
InChI=1S/C50H92O21.C28H36O10/c1-8-37(57)26(4)43(63)27(5)44(64)28(6)45(65)29(7)47-46(66)38(58)14-10-13-31(52)17-33(54)18-34(55)19-35(56)20-36-22-41(61)50(69,49(68)70-36)48(67)24(2)15-16-30(51)11-9-12-32(53)21-39(59)25(3)40(60)23-42(62)71-47;1-13-10-20(29)19-11-17(6-7-18(19)24(13)31)25(32)14(2)27(33)37-21-8-9-23(36-15(21)3)38-26-16(4)35-22(30)12-28(26,5)34/h24-40,43-48,51-60,63-67,69H,8-23H2,1-7H3;6-7,10-11,14-16,21-23,25-26,30,32,34H,8-9,12H2,1-5H3
> <PUBCHEM_IUPAC_INCHIKEY>
JFHASUPBUKOUIB-UHFFFAOYSA-N
> <PUBCHEM_EXACT_MASS>
1560.8439573
> <PUBCHEM_MOLECULAR_FORMULA>
C78H128O31
> <PUBCHEM_MOLECULAR_WEIGHT>
1561.8
> <PUBCHEM_OPENEYE_CAN_SMILES>
CCC(C(C)C(C(C)C(C(C)C(C(C)C1C(C(CCCC(CC(CC(CC(CC2CC(=O)C(C(C(CCC(CCCC(CC(C(C(CC(=O)O1)O)C)O)O)O)C)O)(C(=O)O2)O)O)O)O)O)O)O)O)O)O)O.CC1C(CCC(O1)OC2C(OC(CC2(C)O)O)C)OC(=O)C(C)C(C3=CC4=C(C=C3)C(=O)C(=CC4=O)C)O
> <PUBCHEM_OPENEYE_ISO_SMILES>
CCC(C(C)C(C(C)C(C(C)C(C(C)C1C(C(CCCC(CC(CC(CC(CC2CC(=O)C(C(C(CCC(CCCC(CC(C(C(CC(=O)O1)O)C)O)O)O)C)O)(C(=O)O2)O)O)O)O)O)O)O)O)O)O)O.CC1C(CCC(O1)OC2C(OC(CC2(C)O)O)C)OC(=O)C(C)C(C3=CC4=C(C=C3)C(=O)C(=CC4=O)C)O
> <PUBCHEM_CACTVS_TPSA>
542
> <PUBCHEM_MONOISOTOPIC_WEIGHT>
1560.8439573
> <PUBCHEM_TOTAL_CHARGE>
0
> <PUBCHEM_HEAVY_ATOM_COUNT>
109
> <PUBCHEM_ATOM_DEF_STEREO_COUNT>
0
> <PUBCHEM_ATOM_UDEF_STEREO_COUNT>
33
> <PUBCHEM_BOND_DEF_STEREO_COUNT>
0
> <PUBCHEM_BOND_UDEF_STEREO_COUNT>
0
> <PUBCHEM_ISOTOPIC_ATOM_COUNT>
0
> <PUBCHEM_COMPONENT_COUNT>
2
> <PUBCHEM_CACTVS_TAUTO_COUNT>
12
> <PUBCHEM_COORDINATE_TYPE>
1
5
255
> <PUBCHEM_BONDANNOTATIONS>
100  102  8
101  103  8
102  104  8
103  104  8
48  11  3
72  19  3
32  110  3
33  111  3
34  112  3
35  113  3
36  114  3
37  115  3
38  116  3
39  117  3
40  118  3
44  128  3
45  129  3
49  137  3
51  141  3
54  147  3
55  148  3
62  160  3
64  166  3
65  167  3
66  168  3
67  169  3
69  173  3
70  175  3
71  174  3
74  179  3
75  180  3
82  193  3
83  194  3
84  195  3
89  204  3
96  221  3
97  226  3
99  100  8
99  101  8
$$$$
