512850
  -OEChem-10302200282D
 72 73  0     1  0  0  0  0  0999 V2000
    5.4641    1.1559    0.0000 S   0  0  0  0  0  0  0  0  0  0  0  0
    5.6915    3.3195    0.0000 O   0  0  0  0  0  0  0  0  0  0  0  0
    8.9073    1.8877    0.0000 O   0  0  0  0  0  0  0  0  0  0  0  0
    2.8660   -1.3441    0.0000 O   0  0  0  0  0  0  0  0  0  0  0  0
    7.4128    2.8583    0.0000 N   0  0  0  0  0  0  0  0  0  0  0  0
    4.5981   -1.3441    0.0000 N   0  0  0  0  0  0  0  0  0  0  0  0
    8.8141    3.8764    0.0000 C   0  0  0  0  0  0  0  0  0  0  0  0
    7.8195    3.7718    0.0000 C   0  0  0  0  0  0  0  0  0  0  0  0
    9.2208    4.7899    0.0000 C   0  0  0  0  0  0  0  0  0  0  0  0
   10.2153    4.8944    0.0000 C   0  0  0  0  0  0  0  0  0  0  0  0
    6.3301    1.6559    0.0000 C   0  0  3  0  0  0  0  0  0  0  0  0
    7.2437    1.2491    0.0000 C   0  0  0  0  0  0  0  0  0  0  0  0
   10.6221    5.8080    0.0000 C   0  0  0  0  0  0  0  0  0  0  0  0
    6.4347    2.6504    0.0000 C   0  0  0  0  0  0  0  0  0  0  0  0
    7.9128    1.9923    0.0000 C   0  0  0  0  0  0  0  0  0  0  0  0
   11.6166    5.9125    0.0000 C   0  0  0  0  0  0  0  0  0  0  0  0
   12.0233    6.8261    0.0000 C   0  0  0  0  0  0  0  0  0  0  0  0
   13.0178    6.9306    0.0000 C   0  0  0  0  0  0  0  0  0  0  0  0
    5.4641    0.1559    0.0000 C   0  0  0  0  0  0  0  0  0  0  0  0
    4.5981   -0.3441    0.0000 C   0  0  0  0  0  0  0  0  0  0  0  0
   13.4246    7.8441    0.0000 C   0  0  0  0  0  0  0  0  0  0  0  0
    3.7320   -5.8441    0.0000 C   0  0  0  0  0  0  0  0  0  0  0  0
    2.8660   -6.3441    0.0000 C   0  0  0  0  0  0  0  0  0  0  0  0
    3.7320   -4.8441    0.0000 C   0  0  0  0  0  0  0  0  0  0  0  0
    3.7320   -1.8441    0.0000 C   0  0  0  0  0  0  0  0  0  0  0  0
    3.7320   -2.8441    0.0000 C   0  0  0  0  0  0  0  0  0  0  0  0
    2.8660   -7.3441    0.0000 C   0  0  0  0  0  0  0  0  0  0  0  0
    4.5981   -4.3441    0.0000 C   0  0  0  0  0  0  0  0  0  0  0  0
    2.8660   -4.3441    0.0000 C   0  0  0  0  0  0  0  0  0  0  0  0
    4.5981   -3.3441    0.0000 C   0  0  0  0  0  0  0  0  0  0  0  0
    2.8660   -3.3441    0.0000 C   0  0  0  0  0  0  0  0  0  0  0  0
    2.0000   -7.8441    0.0000 C   0  0  0  0  0  0  0  0  0  0  0  0
    8.7708    3.2579    0.0000 H   0  0  0  0  0  0  0  0  0  0  0  0
    9.4156    3.7264    0.0000 H   0  0  0  0  0  0  0  0  0  0  0  0
    7.8628    4.3903    0.0000 H   0  0  0  0  0  0  0  0  0  0  0  0
    7.2180    3.9218    0.0000 H   0  0  0  0  0  0  0  0  0  0  0  0
    9.2640    5.4084    0.0000 H   0  0  0  0  0  0  0  0  0  0  0  0
    8.6192    4.9399    0.0000 H   0  0  0  0  0  0  0  0  0  0  0  0
   10.1721    4.2760    0.0000 H   0  0  0  0  0  0  0  0  0  0  0  0
   10.8169    4.7444    0.0000 H   0  0  0  0  0  0  0  0  0  0  0  0
    5.8102    1.9935    0.0000 H   0  0  0  0  0  0  0  0  0  0  0  0
    6.9337    0.7122    0.0000 H   0  0  0  0  0  0  0  0  0  0  0  0
    7.7453    0.8847    0.0000 H   0  0  0  0  0  0  0  0  0  0  0  0
   10.6653    6.4265    0.0000 H   0  0  0  0  0  0  0  0  0  0  0  0
   10.0205    5.9580    0.0000 H   0  0  0  0  0  0  0  0  0  0  0  0
   11.5733    5.2940    0.0000 H   0  0  0  0  0  0  0  0  0  0  0  0
   12.2182    5.7625    0.0000 H   0  0  0  0  0  0  0  0  0  0  0  0
   12.0666    7.4446    0.0000 H   0  0  0  0  0  0  0  0  0  0  0  0
   11.4217    6.9761    0.0000 H   0  0  0  0  0  0  0  0  0  0  0  0
   12.9746    6.3121    0.0000 H   0  0  0  0  0  0  0  0  0  0  0  0
   13.6194    6.7806    0.0000 H   0  0  0  0  0  0  0  0  0  0  0  0
    5.6762   -0.4267    0.0000 H   0  0  0  0  0  0  0  0  0  0  0  0
    6.0747    0.2635    0.0000 H   0  0  0  0  0  0  0  0  0  0  0  0
    4.3860    0.2385    0.0000 H   0  0  0  0  0  0  0  0  0  0  0  0
    3.9875   -0.4518    0.0000 H   0  0  0  0  0  0  0  0  0  0  0  0
   13.9910    7.5920    0.0000 H   0  0  0  0  0  0  0  0  0  0  0  0
   13.6768    8.4105    0.0000 H   0  0  0  0  0  0  0  0  0  0  0  0
   12.8582    8.0963    0.0000 H   0  0  0  0  0  0  0  0  0  0  0  0
    5.1350   -1.6541    0.0000 H   0  0  0  0  0  0  0  0  0  0  0  0
    3.9441   -6.4268    0.0000 H   0  0  0  0  0  0  0  0  0  0  0  0
    4.3426   -5.7365    0.0000 H   0  0  0  0  0  0  0  0  0  0  0  0
    2.6540   -5.7615    0.0000 H   0  0  0  0  0  0  0  0  0  0  0  0
    2.2554   -6.4518    0.0000 H   0  0  0  0  0  0  0  0  0  0  0  0
    3.0781   -7.9268    0.0000 H   0  0  0  0  0  0  0  0  0  0  0  0
    3.4766   -7.2365    0.0000 H   0  0  0  0  0  0  0  0  0  0  0  0
    5.1350   -4.6541    0.0000 H   0  0  0  0  0  0  0  0  0  0  0  0
    2.3291   -4.6541    0.0000 H   0  0  0  0  0  0  0  0  0  0  0  0
    5.1350   -3.0341    0.0000 H   0  0  0  0  0  0  0  0  0  0  0  0
    2.3291   -3.0341    0.0000 H   0  0  0  0  0  0  0  0  0  0  0  0
    1.6900   -7.3072    0.0000 H   0  0  0  0  0  0  0  0  0  0  0  0
    1.4631   -8.1541    0.0000 H   0  0  0  0  0  0  0  0  0  0  0  0
    2.3100   -8.3811    0.0000 H   0  0  0  0  0  0  0  0  0  0  0  0
  1 11  1  0  0  0  0
  1 19  1  0  0  0  0
  2 14  2  0  0  0  0
  3 15  2  0  0  0  0
  4 25  2  0  0  0  0
  5  8  1  0  0  0  0
  5 14  1  0  0  0  0
  5 15  1  0  0  0  0
  6 20  1  0  0  0  0
  6 25  1  0  0  0  0
  6 59  1  0  0  0  0
  7  8  1  0  0  0  0
  7  9  1  0  0  0  0
  7 33  1  0  0  0  0
  7 34  1  0  0  0  0
  8 35  1  0  0  0  0
  8 36  1  0  0  0  0
  9 10  1  0  0  0  0
  9 37  1  0  0  0  0
  9 38  1  0  0  0  0
 10 13  1  0  0  0  0
 10 39  1  0  0  0  0
 10 40  1  0  0  0  0
 11 12  1  0  0  0  0
 11 14  1  0  0  0  0
 11 41  1  0  0  0  0
 12 15  1  0  0  0  0
 12 42  1  0  0  0  0
 12 43  1  0  0  0  0
 13 16  1  0  0  0  0
 13 44  1  0  0  0  0
 13 45  1  0  0  0  0
 16 17  1  0  0  0  0
 16 46  1  0  0  0  0
 16 47  1  0  0  0  0
 17 18  1  0  0  0  0
 17 48  1  0  0  0  0
 17 49  1  0  0  0  0
 18 21  1  0  0  0  0
 18 50  1  0  0  0  0
 18 51  1  0  0  0  0
 19 20  1  0  0  0  0
 19 52  1  0  0  0  0
 19 53  1  0  0  0  0
 20 54  1  0  0  0  0
 20 55  1  0  0  0  0
 21 56  1  0  0  0  0
 21 57  1  0  0  0  0
 21 58  1  0  0  0  0
 22 23  1  0  0  0  0
 22 24  1  0  0  0  0
 22 60  1  0  0  0  0
 22 61  1  0  0  0  0
 23 27  1  0  0  0  0
 23 62  1  0  0  0  0
 23 63  1  0  0  0  0
 24 28  2  0  0  0  0
 24 29  1  0  0  0  0
 25 26  1  0  0  0  0
 26 30  2  0  0  0  0
 26 31  1  0  0  0  0
 27 32  1  0  0  0  0
 27 64  1  0  0  0  0
 27 65  1  0  0  0  0
 28 30  1  0  0  0  0
 28 66  1  0  0  0  0
 29 31  2  0  0  0  0
 29 67  1  0  0  0  0
 30 68  1  0  0  0  0
 31 69  1  0  0  0  0
 32 70  1  0  0  0  0
 32 71  1  0  0  0  0
 32 72  1  0  0  0  0
M  END
> <PUBCHEM_COMPOUND_CID>
512850
> <PUBCHEM_COMPOUND_CANONICALIZED>
1
> <PUBCHEM_CACTVS_COMPLEXITY>
575
> <PUBCHEM_CACTVS_HBOND_ACCEPTOR>
4
> <PUBCHEM_CACTVS_HBOND_DONOR>
1
> <PUBCHEM_CACTVS_ROTATABLE_BOND>
16
> <PUBCHEM_CACTVS_SUBSKEYS>
AAADcfB7MABAAAAAAAAAAAAAAAAAAWAAAAAwAAAAAAAAAAABAAAAHgQQAAAADADF2ASyAIPAAAiIAiFSEACCAAAkABAIiIEIBMgIIDKglRGEIQhgliCoiYcdiMCOQAAAAAAAAACAAAAAAAAAAAAAAAAAAA==
> <PUBCHEM_IUPAC_OPENEYE_NAME>
4-butyl-N-[2-(1-nonyl-2,5-dioxo-pyrrolidin-3-yl)sulfanylethyl]benzamide
> <PUBCHEM_IUPAC_CAS_NAME>
4-butyl-N-[2-[(1-nonyl-2,5-dioxo-3-pyrrolidinyl)thio]ethyl]benzamide
> <PUBCHEM_IUPAC_NAME_MARKUP>
4-butyl-<I>N</I>-[2-(1-nonyl-2,5-dioxopyrrolidin-3-yl)sulfanylethyl]benzamide
> <PUBCHEM_IUPAC_NAME>
4-butyl-N-[2-(1-nonyl-2,5-dioxopyrrolidin-3-yl)sulfanylethyl]benzamide
> <PUBCHEM_IUPAC_SYSTEMATIC_NAME>
4-butyl-N-[2-[1-nonyl-2,5-bis(oxidanylidene)pyrrolidin-3-yl]sulfanylethyl]benzamide
> <PUBCHEM_IUPAC_TRADITIONAL_NAME>
4-butyl-N-[2-[(2,5-diketo-1-nonyl-pyrrolidin-3-yl)thio]ethyl]benzamide
> <PUBCHEM_IUPAC_INCHI>
InChI=1S/C26H40N2O3S/c1-3-5-7-8-9-10-11-18-28-24(29)20-23(26(28)31)32-19-17-27-25(30)22-15-13-21(14-16-22)12-6-4-2/h13-16,23H,3-12,17-20H2,1-2H3,(H,27,30)
> <PUBCHEM_IUPAC_INCHIKEY>
CEFDYCZQEVUIEG-UHFFFAOYSA-N
> <PUBCHEM_XLOGP3_AA>
6.7
> <PUBCHEM_EXACT_MASS>
460.27596432
> <PUBCHEM_MOLECULAR_FORMULA>
C26H40N2O3S
> <PUBCHEM_MOLECULAR_WEIGHT>
460.7
> <PUBCHEM_OPENEYE_CAN_SMILES>
CCCCCCCCCN1C(=O)CC(C1=O)SCCNC(=O)C2=CC=C(C=C2)CCCC
> <PUBCHEM_OPENEYE_ISO_SMILES>
CCCCCCCCCN1C(=O)CC(C1=O)SCCNC(=O)C2=CC=C(C=C2)CCCC
> <PUBCHEM_CACTVS_TPSA>
91.8
> <PUBCHEM_MONOISOTOPIC_WEIGHT>
460.27596432
> <PUBCHEM_TOTAL_CHARGE>
0
> <PUBCHEM_HEAVY_ATOM_COUNT>
32
> <PUBCHEM_ATOM_DEF_STEREO_COUNT>
0
> <PUBCHEM_ATOM_UDEF_STEREO_COUNT>
1
> <PUBCHEM_BOND_DEF_STEREO_COUNT>
0
> <PUBCHEM_BOND_UDEF_STEREO_COUNT>
0
> <PUBCHEM_ISOTOPIC_ATOM_COUNT>
0
> <PUBCHEM_COMPONENT_COUNT>
1
> <PUBCHEM_CACTVS_TAUTO_COUNT>
-1
> <PUBCHEM_COORDINATE_TYPE>
1
5
255
> <PUBCHEM_BONDANNOTATIONS>
11  1  3
24  28  8
24  29  8
26  30  8
26  31  8
28  30  8
29  31  8
$$$$
