512894
  -OEChem-10302200282D
 82 85  0     1  0  0  0  0  0999 V2000
    3.0000   -3.1445    0.0000 S   0  0  0  0  0  0  0  0  0  0  0  0
    3.7661    7.1445    0.0000 F   0  0  0  0  0  0  0  0  0  0  0  0
    3.0000   -7.1445    0.0000 F   0  0  0  0  0  0  0  0  0  0  0  0
    9.1172    1.1557    0.0000 O   0  0  0  0  0  0  0  0  0  0  0  0
    7.5349    0.4512    0.0000 O   0  0  0  0  0  0  0  0  0  0  0  0
    4.0000   -3.1445    0.0000 O   0  0  0  0  0  0  0  0  0  0  0  0
    2.0000   -3.1445    0.0000 O   0  0  0  0  0  0  0  0  0  0  0  0
    6.3147    3.1919    0.0000 N   0  0  3  0  0  0  0  0  0  0  0  0
    3.8660    1.3555    0.0000 N   0  0  0  0  0  0  0  0  0  0  0  0
    4.7320    2.8555    0.0000 C   0  0  2  0  0  0  0  0  0  0  0  0
    4.8366    3.8500    0.0000 C   0  0  2  0  0  0  0  0  0  0  0  0
    5.6456    2.4487    0.0000 C   0  0  0  0  0  0  0  0  0  0  0  0
    5.8147    4.0579    0.0000 C   0  0  0  0  0  0  0  0  0  0  0  0
    3.8660    2.3555    0.0000 C   0  0  0  0  0  0  0  0  0  0  0  0
    7.3092    3.0873    0.0000 C   0  0  0  0  0  0  0  0  0  0  0  0
    3.8660   -0.6445    0.0000 C   0  0  0  0  0  0  0  0  0  0  0  0
    7.7160    2.1738    0.0000 C   0  0  0  0  0  0  0  0  0  0  0  0
    3.0000    0.8555    0.0000 C   0  0  0  0  0  0  0  0  0  0  0  0
    4.7320    0.8555    0.0000 C   0  0  0  0  0  0  0  0  0  0  0  0
    3.0000   -0.1445    0.0000 C   0  0  0  0  0  0  0  0  0  0  0  0
    4.7320   -0.1445    0.0000 C   0  0  0  0  0  0  0  0  0  0  0  0
    4.0934    4.5191    0.0000 C   0  0  0  0  0  0  0  0  0  0  0  0
    3.8660   -1.6445    0.0000 C   0  0  0  0  0  0  0  0  0  0  0  0
    8.6295    2.5805    0.0000 C   0  0  0  0  0  0  0  0  0  0  0  0
    6.8024    1.7671    0.0000 C   0  0  0  0  0  0  0  0  0  0  0  0
    4.3014    5.4973    0.0000 C   0  0  0  0  0  0  0  0  0  0  0  0
    3.1424    4.2101    0.0000 C   0  0  0  0  0  0  0  0  0  0  0  0
    8.1227    1.2603    0.0000 C   0  0  0  0  0  0  0  0  0  0  0  0
    3.0000   -2.1445    0.0000 C   0  0  0  0  0  0  0  0  0  0  0  0
    8.7341    3.5750    0.0000 C   0  0  0  0  0  0  0  0  0  0  0  0
    6.6979    0.7725    0.0000 C   0  0  0  0  0  0  0  0  0  0  0  0
    3.5582    6.1664    0.0000 C   0  0  0  0  0  0  0  0  0  0  0  0
    2.3992    4.8792    0.0000 C   0  0  0  0  0  0  0  0  0  0  0  0
    2.6071    5.8574    0.0000 C   0  0  0  0  0  0  0  0  0  0  0  0
    3.0000   -4.1445    0.0000 C   0  0  0  0  0  0  0  0  0  0  0  0
    2.1340   -4.6445    0.0000 C   0  0  0  0  0  0  0  0  0  0  0  0
    3.8660   -4.6445    0.0000 C   0  0  0  0  0  0  0  0  0  0  0  0
    2.1340   -5.6445    0.0000 C   0  0  0  0  0  0  0  0  0  0  0  0
    3.8660   -5.6445    0.0000 C   0  0  0  0  0  0  0  0  0  0  0  0
    3.0000   -6.1445    0.0000 C   0  0  0  0  0  0  0  0  0  0  0  0
    4.2121    3.1931    0.0000 H   0  0  0  0  0  0  0  0  0  0  0  0
    4.9970    4.4489    0.0000 H   0  0  0  0  0  0  0  0  0  0  0  0
    5.3356    1.9118    0.0000 H   0  0  0  0  0  0  0  0  0  0  0  0
    6.1472    2.0843    0.0000 H   0  0  0  0  0  0  0  0  0  0  0  0
    6.3811    4.3101    0.0000 H   0  0  0  0  0  0  0  0  0  0  0  0
    5.6231    4.6476    0.0000 H   0  0  0  0  0  0  0  0  0  0  0  0
    3.6540    2.9381    0.0000 H   0  0  0  0  0  0  0  0  0  0  0  0
    3.2554    2.2478    0.0000 H   0  0  0  0  0  0  0  0  0  0  0  0
    7.9108    3.2373    0.0000 H   0  0  0  0  0  0  0  0  0  0  0  0
    7.2660    3.7058    0.0000 H   0  0  0  0  0  0  0  0  0  0  0  0
    4.4030   -0.9545    0.0000 H   0  0  0  0  0  0  0  0  0  0  0  0
    2.7880    1.4381    0.0000 H   0  0  0  0  0  0  0  0  0  0  0  0
    2.3894    0.7478    0.0000 H   0  0  0  0  0  0  0  0  0  0  0  0
    5.3426    0.7478    0.0000 H   0  0  0  0  0  0  0  0  0  0  0  0
    4.9441    1.4381    0.0000 H   0  0  0  0  0  0  0  0  0  0  0  0
    2.3894   -0.0369    0.0000 H   0  0  0  0  0  0  0  0  0  0  0  0
    2.7880   -0.7271    0.0000 H   0  0  0  0  0  0  0  0  0  0  0  0
    4.9441   -0.7271    0.0000 H   0  0  0  0  0  0  0  0  0  0  0  0
    5.3426   -0.0369    0.0000 H   0  0  0  0  0  0  0  0  0  0  0  0
    4.0781   -2.2272    0.0000 H   0  0  0  0  0  0  0  0  0  0  0  0
    4.4766   -1.5369    0.0000 H   0  0  0  0  0  0  0  0  0  0  0  0
    8.7795    1.9790    0.0000 H   0  0  0  0  0  0  0  0  0  0  0  0
    9.2480    2.6238    0.0000 H   0  0  0  0  0  0  0  0  0  0  0  0
    6.6524    2.3686    0.0000 H   0  0  0  0  0  0  0  0  0  0  0  0
    6.1840    1.7238    0.0000 H   0  0  0  0  0  0  0  0  0  0  0  0
    4.8910    5.6889    0.0000 H   0  0  0  0  0  0  0  0  0  0  0  0
    3.0135    3.6036    0.0000 H   0  0  0  0  0  0  0  0  0  0  0  0
    2.7880   -1.5619    0.0000 H   0  0  0  0  0  0  0  0  0  0  0  0
    2.3894   -2.2522    0.0000 H   0  0  0  0  0  0  0  0  0  0  0  0
    9.3507    3.5102    0.0000 H   0  0  0  0  0  0  0  0  0  0  0  0
    8.7989    4.1917    0.0000 H   0  0  0  0  0  0  0  0  0  0  0  0
    8.1175    3.6399    0.0000 H   0  0  0  0  0  0  0  0  0  0  0  0
    6.0813    0.8373    0.0000 H   0  0  0  0  0  0  0  0  0  0  0  0
    6.6331    0.1559    0.0000 H   0  0  0  0  0  0  0  0  0  0  0  0
    7.3145    0.7077    0.0000 H   0  0  0  0  0  0  0  0  0  0  0  0
    1.8096    4.6876    0.0000 H   0  0  0  0  0  0  0  0  0  0  0  0
    2.1464    6.2722    0.0000 H   0  0  0  0  0  0  0  0  0  0  0  0
    9.3694    0.5893    0.0000 H   0  0  0  0  0  0  0  0  0  0  0  0
    1.5970   -4.3345    0.0000 H   0  0  0  0  0  0  0  0  0  0  0  0
    4.4030   -4.3345    0.0000 H   0  0  0  0  0  0  0  0  0  0  0  0
    1.5970   -5.9545    0.0000 H   0  0  0  0  0  0  0  0  0  0  0  0
    4.4030   -5.9545    0.0000 H   0  0  0  0  0  0  0  0  0  0  0  0
  1  6  2  0  0  0  0
  1  7  2  0  0  0  0
  1 29  1  0  0  0  0
  1 35  1  0  0  0  0
  2 32  1  0  0  0  0
  3 40  1  0  0  0  0
  4 28  1  0  0  0  0
  4 78  1  0  0  0  0
  5 28  2  0  0  0  0
  8 12  1  0  0  0  0
  8 13  1  0  0  0  0
  8 15  1  0  0  0  0
  9 14  1  0  0  0  0
  9 18  1  0  0  0  0
  9 19  1  0  0  0  0
 10 11  1  0  0  0  0
 10 12  1  0  0  0  0
 10 14  1  6  0  0  0
 10 41  1  0  0  0  0
 11 13  1  0  0  0  0
 11 22  1  1  0  0  0
 11 42  1  0  0  0  0
 12 43  1  0  0  0  0
 12 44  1  0  0  0  0
 13 45  1  0  0  0  0
 13 46  1  0  0  0  0
 14 47  1  0  0  0  0
 14 48  1  0  0  0  0
 15 17  1  0  0  0  0
 15 49  1  0  0  0  0
 15 50  1  0  0  0  0
 16 20  1  0  0  0  0
 16 21  1  0  0  0  0
 16 23  1  0  0  0  0
 16 51  1  0  0  0  0
 17 24  1  0  0  0  0
 17 25  1  0  0  0  0
 17 28  1  0  0  0  0
 18 20  1  0  0  0  0
 18 52  1  0  0  0  0
 18 53  1  0  0  0  0
 19 21  1  0  0  0  0
 19 54  1  0  0  0  0
 19 55  1  0  0  0  0
 20 56  1  0  0  0  0
 20 57  1  0  0  0  0
 21 58  1  0  0  0  0
 21 59  1  0  0  0  0
 22 26  2  0  0  0  0
 22 27  1  0  0  0  0
 23 29  1  0  0  0  0
 23 60  1  0  0  0  0
 23 61  1  0  0  0  0
 24 30  1  0  0  0  0
 24 62  1  0  0  0  0
 24 63  1  0  0  0  0
 25 31  1  0  0  0  0
 25 64  1  0  0  0  0
 25 65  1  0  0  0  0
 26 32  1  0  0  0  0
 26 66  1  0  0  0  0
 27 33  2  0  0  0  0
 27 67  1  0  0  0  0
 29 68  1  0  0  0  0
 29 69  1  0  0  0  0
 30 70  1  0  0  0  0
 30 71  1  0  0  0  0
 30 72  1  0  0  0  0
 31 73  1  0  0  0  0
 31 74  1  0  0  0  0
 31 75  1  0  0  0  0
 32 34  2  0  0  0  0
 33 34  1  0  0  0  0
 33 76  1  0  0  0  0
 34 77  1  0  0  0  0
 35 36  2  0  0  0  0
 35 37  1  0  0  0  0
 36 38  1  0  0  0  0
 36 79  1  0  0  0  0
 37 39  2  0  0  0  0
 37 80  1  0  0  0  0
 38 40  2  0  0  0  0
 38 81  1  0  0  0  0
 39 40  1  0  0  0  0
 39 82  1  0  0  0  0
M  END
> <PUBCHEM_COMPOUND_CID>
512894
> <PUBCHEM_COMPOUND_CANONICALIZED>
1
> <PUBCHEM_CACTVS_COMPLEXITY>
909
> <PUBCHEM_CACTVS_HBOND_ACCEPTOR>
8
> <PUBCHEM_CACTVS_HBOND_DONOR>
1
> <PUBCHEM_CACTVS_ROTATABLE_BOND>
12
> <PUBCHEM_CACTVS_SUBSKEYS>
AAADcfB7OYBAAAAAAAAAAAAAAAAAAWAAAAA8YIAAAAAAAAABQAAAHwQACAAADwDF2AyyCYMAAgqIAiDSCHBCAAAgCBAIiBkIAIgIIDqg0RGEYAAmgACoiAcQgMAPgAAAAAAAAAAAAAAAAAAAAAAAAAAAAA==
> <PUBCHEM_IUPAC_OPENEYE_NAME>
2-ethyl-2-[[(3S,4S)-3-(3-fluorophenyl)-4-[[4-[2-(4-fluorophenyl)sulfonylethyl]-1-piperidyl]methyl]pyrrolidin-1-yl]methyl]butanoic acid
> <PUBCHEM_IUPAC_CAS_NAME>
2-ethyl-2-[[(3S,4S)-3-(3-fluorophenyl)-4-[[4-[2-(4-fluorophenyl)sulfonylethyl]-1-piperidinyl]methyl]-1-pyrrolidinyl]methyl]butanoic acid
> <PUBCHEM_IUPAC_NAME_MARKUP>
2-ethyl-2-[[(3<I>S</I>,4<I>S</I>)-3-(3-fluorophenyl)-4-[[4-[2-(4-fluorophenyl)sulfonylethyl]piperidin-1-yl]methyl]pyrrolidin-1-yl]methyl]butanoic acid
> <PUBCHEM_IUPAC_NAME>
2-ethyl-2-[[(3S,4S)-3-(3-fluorophenyl)-4-[[4-[2-(4-fluorophenyl)sulfonylethyl]piperidin-1-yl]methyl]pyrrolidin-1-yl]methyl]butanoic acid
> <PUBCHEM_IUPAC_SYSTEMATIC_NAME>
2-ethyl-2-[[(3S,4S)-3-(3-fluorophenyl)-4-[[4-[2-(4-fluorophenyl)sulfonylethyl]piperidin-1-yl]methyl]pyrrolidin-1-yl]methyl]butanoic acid
> <PUBCHEM_IUPAC_TRADITIONAL_NAME>
2-ethyl-2-[[(3S,4S)-3-(3-fluorophenyl)-4-[[4-[2-(4-fluorophenyl)sulfonylethyl]piperidino]methyl]pyrrolidino]methyl]butyric acid
> <PUBCHEM_IUPAC_INCHI>
InChI=1S/C31H42F2N2O4S/c1-3-31(4-2,30(36)37)22-35-20-25(29(21-35)24-6-5-7-27(33)18-24)19-34-15-12-23(13-16-34)14-17-40(38,39)28-10-8-26(32)9-11-28/h5-11,18,23,25,29H,3-4,12-17,19-22H2,1-2H3,(H,36,37)/t25-,29+/m0/s1
> <PUBCHEM_IUPAC_INCHIKEY>
GKHVJYQYSCTTRI-ABYGYWHVSA-N
> <PUBCHEM_XLOGP3_AA>
3.2
> <PUBCHEM_EXACT_MASS>
576.28333532
> <PUBCHEM_MOLECULAR_FORMULA>
C31H42F2N2O4S
> <PUBCHEM_MOLECULAR_WEIGHT>
576.7
> <PUBCHEM_OPENEYE_CAN_SMILES>
CCC(CC)(CN1CC(C(C1)C2=CC(=CC=C2)F)CN3CCC(CC3)CCS(=O)(=O)C4=CC=C(C=C4)F)C(=O)O
> <PUBCHEM_OPENEYE_ISO_SMILES>
CCC(CC)(CN1C[C@@H]([C@H](C1)C2=CC(=CC=C2)F)CN3CCC(CC3)CCS(=O)(=O)C4=CC=C(C=C4)F)C(=O)O
> <PUBCHEM_CACTVS_TPSA>
86.3
> <PUBCHEM_MONOISOTOPIC_WEIGHT>
576.28333532
> <PUBCHEM_TOTAL_CHARGE>
0
> <PUBCHEM_HEAVY_ATOM_COUNT>
40
> <PUBCHEM_ATOM_DEF_STEREO_COUNT>
2
> <PUBCHEM_ATOM_UDEF_STEREO_COUNT>
0
> <PUBCHEM_BOND_DEF_STEREO_COUNT>
0
> <PUBCHEM_BOND_UDEF_STEREO_COUNT>
0
> <PUBCHEM_ISOTOPIC_ATOM_COUNT>
0
> <PUBCHEM_COMPONENT_COUNT>
1
> <PUBCHEM_CACTVS_TAUTO_COUNT>
-1
> <PUBCHEM_COORDINATE_TYPE>
1
5
255
> <PUBCHEM_BONDANNOTATIONS>
10  14  6
11  22  5
22  26  8
22  27  8
26  32  8
27  33  8
32  34  8
33  34  8
35  36  8
35  37  8
36  38  8
37  39  8
38  40  8
39  40  8
$$$$
