512896
  -OEChem-10302200282D
 77 81  0     1  0  0  0  0  0999 V2000
    3.0000   -3.1445    0.0000 S   0  0  0  0  0  0  0  0  0  0  0  0
    3.7661    7.1445    0.0000 F   0  0  0  0  0  0  0  0  0  0  0  0
    3.0000   -7.1445    0.0000 F   0  0  0  0  0  0  0  0  0  0  0  0
    9.4386    1.9928    0.0000 O   0  0  0  0  0  0  0  0  0  0  0  0
    8.7341    3.5750    0.0000 O   0  0  0  0  0  0  0  0  0  0  0  0
    4.0000   -3.1445    0.0000 O   0  0  0  0  0  0  0  0  0  0  0  0
    2.0000   -3.1445    0.0000 O   0  0  0  0  0  0  0  0  0  0  0  0
    6.3147    3.1919    0.0000 N   0  0  3  0  0  0  0  0  0  0  0  0
    3.8660    1.3555    0.0000 N   0  0  0  0  0  0  0  0  0  0  0  0
    7.7160    2.1738    0.0000 C   0  0  0  0  0  0  0  0  0  0  0  0
    4.7320    2.8555    0.0000 C   0  0  2  0  0  0  0  0  0  0  0  0
    4.8366    3.8500    0.0000 C   0  0  2  0  0  0  0  0  0  0  0  0
    7.3092    3.0873    0.0000 C   0  0  0  0  0  0  0  0  0  0  0  0
    5.6456    2.4487    0.0000 C   0  0  0  0  0  0  0  0  0  0  0  0
    8.1227    1.2603    0.0000 C   0  0  0  0  0  0  0  0  0  0  0  0
    6.8024    1.7671    0.0000 C   0  0  0  0  0  0  0  0  0  0  0  0
    5.8147    4.0579    0.0000 C   0  0  0  0  0  0  0  0  0  0  0  0
    7.2092    0.8535    0.0000 C   0  0  0  0  0  0  0  0  0  0  0  0
    3.8660    2.3555    0.0000 C   0  0  0  0  0  0  0  0  0  0  0  0
    8.6295    2.5805    0.0000 C   0  0  0  0  0  0  0  0  0  0  0  0
    4.0934    4.5191    0.0000 C   0  0  0  0  0  0  0  0  0  0  0  0
    3.8660   -0.6445    0.0000 C   0  0  0  0  0  0  0  0  0  0  0  0
    3.0000    0.8555    0.0000 C   0  0  0  0  0  0  0  0  0  0  0  0
    4.7320    0.8555    0.0000 C   0  0  0  0  0  0  0  0  0  0  0  0
    3.0000   -0.1445    0.0000 C   0  0  0  0  0  0  0  0  0  0  0  0
    4.7320   -0.1445    0.0000 C   0  0  0  0  0  0  0  0  0  0  0  0
    3.8660   -1.6445    0.0000 C   0  0  0  0  0  0  0  0  0  0  0  0
    4.3014    5.4973    0.0000 C   0  0  0  0  0  0  0  0  0  0  0  0
    3.1424    4.2101    0.0000 C   0  0  0  0  0  0  0  0  0  0  0  0
    3.0000   -2.1445    0.0000 C   0  0  0  0  0  0  0  0  0  0  0  0
    3.5582    6.1664    0.0000 C   0  0  0  0  0  0  0  0  0  0  0  0
    2.3992    4.8792    0.0000 C   0  0  0  0  0  0  0  0  0  0  0  0
    2.6071    5.8574    0.0000 C   0  0  0  0  0  0  0  0  0  0  0  0
    3.0000   -4.1445    0.0000 C   0  0  0  0  0  0  0  0  0  0  0  0
    2.1340   -4.6445    0.0000 C   0  0  0  0  0  0  0  0  0  0  0  0
    3.8660   -4.6445    0.0000 C   0  0  0  0  0  0  0  0  0  0  0  0
    2.1340   -5.6445    0.0000 C   0  0  0  0  0  0  0  0  0  0  0  0
    3.8660   -5.6445    0.0000 C   0  0  0  0  0  0  0  0  0  0  0  0
    3.0000   -6.1445    0.0000 C   0  0  0  0  0  0  0  0  0  0  0  0
    4.2121    3.1931    0.0000 H   0  0  0  0  0  0  0  0  0  0  0  0
    4.9970    4.4489    0.0000 H   0  0  0  0  0  0  0  0  0  0  0  0
    7.9108    3.2373    0.0000 H   0  0  0  0  0  0  0  0  0  0  0  0
    7.2660    3.7058    0.0000 H   0  0  0  0  0  0  0  0  0  0  0  0
    5.3356    1.9118    0.0000 H   0  0  0  0  0  0  0  0  0  0  0  0
    6.1472    2.0843    0.0000 H   0  0  0  0  0  0  0  0  0  0  0  0
    6.3811    4.3101    0.0000 H   0  0  0  0  0  0  0  0  0  0  0  0
    5.6231    4.6476    0.0000 H   0  0  0  0  0  0  0  0  0  0  0  0
    8.3749    0.6939    0.0000 H   0  0  0  0  0  0  0  0  0  0  0  0
    8.6891    1.5124    0.0000 H   0  0  0  0  0  0  0  0  0  0  0  0
    6.5503    2.3335    0.0000 H   0  0  0  0  0  0  0  0  0  0  0  0
    6.2360    1.5149    0.0000 H   0  0  0  0  0  0  0  0  0  0  0  0
    6.6428    0.6013    0.0000 H   0  0  0  0  0  0  0  0  0  0  0  0
    7.4614    0.2871    0.0000 H   0  0  0  0  0  0  0  0  0  0  0  0
    3.6540    2.9381    0.0000 H   0  0  0  0  0  0  0  0  0  0  0  0
    3.2554    2.2478    0.0000 H   0  0  0  0  0  0  0  0  0  0  0  0
    4.4030   -0.9545    0.0000 H   0  0  0  0  0  0  0  0  0  0  0  0
    2.7880    1.4381    0.0000 H   0  0  0  0  0  0  0  0  0  0  0  0
    2.3894    0.7478    0.0000 H   0  0  0  0  0  0  0  0  0  0  0  0
    5.3426    0.7478    0.0000 H   0  0  0  0  0  0  0  0  0  0  0  0
    4.9441    1.4381    0.0000 H   0  0  0  0  0  0  0  0  0  0  0  0
    2.3894   -0.0369    0.0000 H   0  0  0  0  0  0  0  0  0  0  0  0
    2.7880   -0.7271    0.0000 H   0  0  0  0  0  0  0  0  0  0  0  0
    4.9441   -0.7271    0.0000 H   0  0  0  0  0  0  0  0  0  0  0  0
    5.3426   -0.0369    0.0000 H   0  0  0  0  0  0  0  0  0  0  0  0
    4.0781   -2.2272    0.0000 H   0  0  0  0  0  0  0  0  0  0  0  0
    4.4766   -1.5369    0.0000 H   0  0  0  0  0  0  0  0  0  0  0  0
    4.8910    5.6889    0.0000 H   0  0  0  0  0  0  0  0  0  0  0  0
    3.0135    3.6036    0.0000 H   0  0  0  0  0  0  0  0  0  0  0  0
    2.7880   -1.5619    0.0000 H   0  0  0  0  0  0  0  0  0  0  0  0
    2.3894   -2.2522    0.0000 H   0  0  0  0  0  0  0  0  0  0  0  0
   10.0049    2.2449    0.0000 H   0  0  0  0  0  0  0  0  0  0  0  0
    1.8096    4.6876    0.0000 H   0  0  0  0  0  0  0  0  0  0  0  0
    2.1464    6.2722    0.0000 H   0  0  0  0  0  0  0  0  0  0  0  0
    1.5970   -4.3345    0.0000 H   0  0  0  0  0  0  0  0  0  0  0  0
    4.4030   -4.3345    0.0000 H   0  0  0  0  0  0  0  0  0  0  0  0
    1.5970   -5.9545    0.0000 H   0  0  0  0  0  0  0  0  0  0  0  0
    4.4030   -5.9545    0.0000 H   0  0  0  0  0  0  0  0  0  0  0  0
  1  6  2  0  0  0  0
  1  7  2  0  0  0  0
  1 30  1  0  0  0  0
  1 34  1  0  0  0  0
  2 31  1  0  0  0  0
  3 39  1  0  0  0  0
  4 20  1  0  0  0  0
  4 71  1  0  0  0  0
  5 20  2  0  0  0  0
  8 13  1  0  0  0  0
  8 14  1  0  0  0  0
  8 17  1  0  0  0  0
  9 19  1  0  0  0  0
  9 23  1  0  0  0  0
  9 24  1  0  0  0  0
 10 13  1  0  0  0  0
 10 15  1  0  0  0  0
 10 16  1  0  0  0  0
 10 20  1  0  0  0  0
 11 12  1  0  0  0  0
 11 14  1  0  0  0  0
 11 19  1  6  0  0  0
 11 40  1  0  0  0  0
 12 17  1  0  0  0  0
 12 21  1  1  0  0  0
 12 41  1  0  0  0  0
 13 42  1  0  0  0  0
 13 43  1  0  0  0  0
 14 44  1  0  0  0  0
 14 45  1  0  0  0  0
 15 18  1  0  0  0  0
 15 48  1  0  0  0  0
 15 49  1  0  0  0  0
 16 18  1  0  0  0  0
 16 50  1  0  0  0  0
 16 51  1  0  0  0  0
 17 46  1  0  0  0  0
 17 47  1  0  0  0  0
 18 52  1  0  0  0  0
 18 53  1  0  0  0  0
 19 54  1  0  0  0  0
 19 55  1  0  0  0  0
 21 28  2  0  0  0  0
 21 29  1  0  0  0  0
 22 25  1  0  0  0  0
 22 26  1  0  0  0  0
 22 27  1  0  0  0  0
 22 56  1  0  0  0  0
 23 25  1  0  0  0  0
 23 57  1  0  0  0  0
 23 58  1  0  0  0  0
 24 26  1  0  0  0  0
 24 59  1  0  0  0  0
 24 60  1  0  0  0  0
 25 61  1  0  0  0  0
 25 62  1  0  0  0  0
 26 63  1  0  0  0  0
 26 64  1  0  0  0  0
 27 30  1  0  0  0  0
 27 65  1  0  0  0  0
 27 66  1  0  0  0  0
 28 31  1  0  0  0  0
 28 67  1  0  0  0  0
 29 32  2  0  0  0  0
 29 68  1  0  0  0  0
 30 69  1  0  0  0  0
 30 70  1  0  0  0  0
 31 33  2  0  0  0  0
 32 33  1  0  0  0  0
 32 72  1  0  0  0  0
 33 73  1  0  0  0  0
 34 35  2  0  0  0  0
 34 36  1  0  0  0  0
 35 37  1  0  0  0  0
 35 74  1  0  0  0  0
 36 38  2  0  0  0  0
 36 75  1  0  0  0  0
 37 39  2  0  0  0  0
 37 76  1  0  0  0  0
 38 39  1  0  0  0  0
 38 77  1  0  0  0  0
M  END
> <PUBCHEM_COMPOUND_CID>
512896
> <PUBCHEM_COMPOUND_CANONICALIZED>
1
> <PUBCHEM_CACTVS_COMPLEXITY>
924
> <PUBCHEM_CACTVS_HBOND_ACCEPTOR>
8
> <PUBCHEM_CACTVS_HBOND_DONOR>
1
> <PUBCHEM_CACTVS_ROTATABLE_BOND>
10
> <PUBCHEM_CACTVS_SUBSKEYS>
AAADcfB7OYBAAAAAAAAAAAAAAABgAWAAAAA8YIAAAAAAAAABQAAAHwQACAAADwDF2AywCYMAAgqIAiDSCHBCAAAgCBAIiBkIAIgIIDqg0RGEYAAmgACoiAeYgMAPgAAAAAAAAAAAAAAAAAAAAAAAAAAAAA==
> <PUBCHEM_IUPAC_OPENEYE_NAME>
1-[[(3S,4S)-3-(3-fluorophenyl)-4-[[4-[2-(4-fluorophenyl)sulfonylethyl]-1-piperidyl]methyl]pyrrolidin-1-yl]methyl]cyclobutanecarboxylic acid
> <PUBCHEM_IUPAC_CAS_NAME>
1-[[(3S,4S)-3-(3-fluorophenyl)-4-[[4-[2-(4-fluorophenyl)sulfonylethyl]-1-piperidinyl]methyl]-1-pyrrolidinyl]methyl]-1-cyclobutanecarboxylic acid
> <PUBCHEM_IUPAC_NAME_MARKUP>
1-[[(3<I>S</I>,4<I>S</I>)-3-(3-fluorophenyl)-4-[[4-[2-(4-fluorophenyl)sulfonylethyl]piperidin-1-yl]methyl]pyrrolidin-1-yl]methyl]cyclobutane-1-carboxylic acid
> <PUBCHEM_IUPAC_NAME>
1-[[(3S,4S)-3-(3-fluorophenyl)-4-[[4-[2-(4-fluorophenyl)sulfonylethyl]piperidin-1-yl]methyl]pyrrolidin-1-yl]methyl]cyclobutane-1-carboxylic acid
> <PUBCHEM_IUPAC_SYSTEMATIC_NAME>
1-[[(3S,4S)-3-(3-fluorophenyl)-4-[[4-[2-(4-fluorophenyl)sulfonylethyl]piperidin-1-yl]methyl]pyrrolidin-1-yl]methyl]cyclobutane-1-carboxylic acid
> <PUBCHEM_IUPAC_TRADITIONAL_NAME>
1-[[(3S,4S)-3-(3-fluorophenyl)-4-[[4-[2-(4-fluorophenyl)sulfonylethyl]piperidino]methyl]pyrrolidino]methyl]cyclobutanecarboxylic acid
> <PUBCHEM_IUPAC_INCHI>
InChI=1S/C30H38F2N2O4S/c31-25-5-7-27(8-6-25)39(37,38)16-11-22-9-14-33(15-10-22)18-24-19-34(21-30(29(35)36)12-2-13-30)20-28(24)23-3-1-4-26(32)17-23/h1,3-8,17,22,24,28H,2,9-16,18-21H2,(H,35,36)/t24-,28+/m0/s1
> <PUBCHEM_IUPAC_INCHIKEY>
SIFICYQPIZYUPT-RBJSKKJNSA-N
> <PUBCHEM_XLOGP3_AA>
2.4
> <PUBCHEM_EXACT_MASS>
560.25203520
> <PUBCHEM_MOLECULAR_FORMULA>
C30H38F2N2O4S
> <PUBCHEM_MOLECULAR_WEIGHT>
560.7
> <PUBCHEM_OPENEYE_CAN_SMILES>
C1CC(C1)(CN2CC(C(C2)C3=CC(=CC=C3)F)CN4CCC(CC4)CCS(=O)(=O)C5=CC=C(C=C5)F)C(=O)O
> <PUBCHEM_OPENEYE_ISO_SMILES>
C1CC(C1)(CN2C[C@@H]([C@H](C2)C3=CC(=CC=C3)F)CN4CCC(CC4)CCS(=O)(=O)C5=CC=C(C=C5)F)C(=O)O
> <PUBCHEM_CACTVS_TPSA>
86.3
> <PUBCHEM_MONOISOTOPIC_WEIGHT>
560.25203520
> <PUBCHEM_TOTAL_CHARGE>
0
> <PUBCHEM_HEAVY_ATOM_COUNT>
39
> <PUBCHEM_ATOM_DEF_STEREO_COUNT>
2
> <PUBCHEM_ATOM_UDEF_STEREO_COUNT>
0
> <PUBCHEM_BOND_DEF_STEREO_COUNT>
0
> <PUBCHEM_BOND_UDEF_STEREO_COUNT>
0
> <PUBCHEM_ISOTOPIC_ATOM_COUNT>
0
> <PUBCHEM_COMPONENT_COUNT>
1
> <PUBCHEM_CACTVS_TAUTO_COUNT>
-1
> <PUBCHEM_COORDINATE_TYPE>
1
5
255
> <PUBCHEM_BONDANNOTATIONS>
11  19  6
12  21  5
21  28  8
21  29  8
28  31  8
29  32  8
31  33  8
32  33  8
34  35  8
34  36  8
35  37  8
36  38  8
37  39  8
38  39  8
$$$$
