512897
  -OEChem-10302200282D
 80 84  0     1  0  0  0  0  0999 V2000
    2.0000    5.0593    0.0000 F   0  0  0  0  0  0  0  0  0  0  0  0
    4.5518   -2.6555    0.0000 F   0  0  0  0  0  0  0  0  0  0  0  0
    2.5518   -2.6555    0.0000 F   0  0  0  0  0  0  0  0  0  0  0  0
    3.5518   -6.6555    0.0000 F   0  0  0  0  0  0  0  0  0  0  0  0
   10.0312    3.6809    0.0000 O   0  0  0  0  0  0  0  0  0  0  0  0
    8.6299    2.6629    0.0000 O   0  0  0  0  0  0  0  0  0  0  0  0
    6.8666    3.6809    0.0000 N   0  0  3  0  0  0  0  0  0  0  0  0
    4.4178    1.8445    0.0000 N   0  0  0  0  0  0  0  0  0  0  0  0
    5.2839    3.3445    0.0000 C   0  0  2  0  0  0  0  0  0  0  0  0
    8.4489    4.3854    0.0000 C   0  0  0  0  0  0  0  0  0  0  0  0
    5.3884    4.3391    0.0000 C   0  0  2  0  0  0  0  0  0  0  0  0
    6.1974    2.9378    0.0000 C   0  0  0  0  0  0  0  0  0  0  0  0
    6.3666    4.5470    0.0000 C   0  0  0  0  0  0  0  0  0  0  0  0
    7.8611    3.5764    0.0000 C   0  0  0  0  0  0  0  0  0  0  0  0
    4.4178    2.8445    0.0000 C   0  0  0  0  0  0  0  0  0  0  0  0
    9.2579    4.9732    0.0000 C   0  0  0  0  0  0  0  0  0  0  0  0
    7.6398    4.9732    0.0000 C   0  0  0  0  0  0  0  0  0  0  0  0
    8.9489    5.9243    0.0000 C   0  0  0  0  0  0  0  0  0  0  0  0
    7.9489    5.9243    0.0000 C   0  0  0  0  0  0  0  0  0  0  0  0
    4.6453    5.0082    0.0000 C   0  0  0  0  0  0  0  0  0  0  0  0
    4.4178   -0.1555    0.0000 C   0  0  0  0  0  0  0  0  0  0  0  0
    3.5518    1.3445    0.0000 C   0  0  0  0  0  0  0  0  0  0  0  0
    5.2839    1.3445    0.0000 C   0  0  0  0  0  0  0  0  0  0  0  0
    3.5518    0.3445    0.0000 C   0  0  0  0  0  0  0  0  0  0  0  0
    5.2839    0.3445    0.0000 C   0  0  0  0  0  0  0  0  0  0  0  0
    9.0366    3.5764    0.0000 C   0  0  0  0  0  0  0  0  0  0  0  0
    4.4178   -1.1555    0.0000 C   0  0  0  0  0  0  0  0  0  0  0  0
    3.6942    4.6992    0.0000 C   0  0  0  0  0  0  0  0  0  0  0  0
    4.8532    5.9863    0.0000 C   0  0  0  0  0  0  0  0  0  0  0  0
    3.5518   -1.6555    0.0000 C   0  0  0  0  0  0  0  0  0  0  0  0
    2.9511    5.3683    0.0000 C   0  0  0  0  0  0  0  0  0  0  0  0
    4.1100    6.6555    0.0000 C   0  0  0  0  0  0  0  0  0  0  0  0
    3.5518   -2.6555    0.0000 C   0  0  0  0  0  0  0  0  0  0  0  0
    3.1590    6.3464    0.0000 C   0  0  0  0  0  0  0  0  0  0  0  0
    3.5518   -3.6555    0.0000 C   0  0  0  0  0  0  0  0  0  0  0  0
    4.4178   -4.1555    0.0000 C   0  0  0  0  0  0  0  0  0  0  0  0
    2.6858   -4.1555    0.0000 C   0  0  0  0  0  0  0  0  0  0  0  0
    4.4178   -5.1555    0.0000 C   0  0  0  0  0  0  0  0  0  0  0  0
    2.6858   -5.1555    0.0000 C   0  0  0  0  0  0  0  0  0  0  0  0
    3.5518   -5.6555    0.0000 C   0  0  0  0  0  0  0  0  0  0  0  0
    5.3163    2.7254    0.0000 H   0  0  0  0  0  0  0  0  0  0  0  0
    4.8096    4.1169    0.0000 H   0  0  0  0  0  0  0  0  0  0  0  0
    5.8874    2.4009    0.0000 H   0  0  0  0  0  0  0  0  0  0  0  0
    6.6990    2.5734    0.0000 H   0  0  0  0  0  0  0  0  0  0  0  0
    6.9330    4.7992    0.0000 H   0  0  0  0  0  0  0  0  0  0  0  0
    6.1750    5.1366    0.0000 H   0  0  0  0  0  0  0  0  0  0  0  0
    7.6902    2.9804    0.0000 H   0  0  0  0  0  0  0  0  0  0  0  0
    8.4183    3.3046    0.0000 H   0  0  0  0  0  0  0  0  0  0  0  0
    4.2058    3.4271    0.0000 H   0  0  0  0  0  0  0  0  0  0  0  0
    3.8073    2.7369    0.0000 H   0  0  0  0  0  0  0  0  0  0  0  0
    9.5679    4.4363    0.0000 H   0  0  0  0  0  0  0  0  0  0  0  0
    9.8243    5.2254    0.0000 H   0  0  0  0  0  0  0  0  0  0  0  0
    7.0734    5.2254    0.0000 H   0  0  0  0  0  0  0  0  0  0  0  0
    7.3298    4.4363    0.0000 H   0  0  0  0  0  0  0  0  0  0  0  0
    9.5553    6.0532    0.0000 H   0  0  0  0  0  0  0  0  0  0  0  0
    8.8840    6.5409    0.0000 H   0  0  0  0  0  0  0  0  0  0  0  0
    8.0137    6.5409    0.0000 H   0  0  0  0  0  0  0  0  0  0  0  0
    7.3424    6.0532    0.0000 H   0  0  0  0  0  0  0  0  0  0  0  0
    3.8809   -0.4655    0.0000 H   0  0  0  0  0  0  0  0  0  0  0  0
    3.3398    1.9271    0.0000 H   0  0  0  0  0  0  0  0  0  0  0  0
    2.9412    1.2369    0.0000 H   0  0  0  0  0  0  0  0  0  0  0  0
    5.8944    1.2369    0.0000 H   0  0  0  0  0  0  0  0  0  0  0  0
    5.4959    1.9271    0.0000 H   0  0  0  0  0  0  0  0  0  0  0  0
    2.9412    0.4522    0.0000 H   0  0  0  0  0  0  0  0  0  0  0  0
    3.3398   -0.2381    0.0000 H   0  0  0  0  0  0  0  0  0  0  0  0
    5.4959   -0.2381    0.0000 H   0  0  0  0  0  0  0  0  0  0  0  0
    5.8944    0.4522    0.0000 H   0  0  0  0  0  0  0  0  0  0  0  0
    4.6299   -1.7381    0.0000 H   0  0  0  0  0  0  0  0  0  0  0  0
    5.0284   -1.0478    0.0000 H   0  0  0  0  0  0  0  0  0  0  0  0
    3.5653    4.0927    0.0000 H   0  0  0  0  0  0  0  0  0  0  0  0
    5.4428    6.1779    0.0000 H   0  0  0  0  0  0  0  0  0  0  0  0
    3.3398   -1.0729    0.0000 H   0  0  0  0  0  0  0  0  0  0  0  0
    2.9412   -1.7631    0.0000 H   0  0  0  0  0  0  0  0  0  0  0  0
   10.3956    3.1794    0.0000 H   0  0  0  0  0  0  0  0  0  0  0  0
    4.2389    7.2619    0.0000 H   0  0  0  0  0  0  0  0  0  0  0  0
    2.6982    6.7613    0.0000 H   0  0  0  0  0  0  0  0  0  0  0  0
    4.9548   -3.8455    0.0000 H   0  0  0  0  0  0  0  0  0  0  0  0
    2.1489   -3.8455    0.0000 H   0  0  0  0  0  0  0  0  0  0  0  0
    4.9548   -5.4655    0.0000 H   0  0  0  0  0  0  0  0  0  0  0  0
    2.1489   -5.4655    0.0000 H   0  0  0  0  0  0  0  0  0  0  0  0
  1 31  1  0  0  0  0
  2 33  1  0  0  0  0
  3 33  1  0  0  0  0
  4 40  1  0  0  0  0
  5 26  1  0  0  0  0
  5 74  1  0  0  0  0
  6 26  2  0  0  0  0
  7 12  1  0  0  0  0
  7 13  1  0  0  0  0
  7 14  1  0  0  0  0
  8 15  1  0  0  0  0
  8 22  1  0  0  0  0
  8 23  1  0  0  0  0
  9 11  1  0  0  0  0
  9 12  1  0  0  0  0
  9 15  1  6  0  0  0
  9 41  1  0  0  0  0
 10 14  1  0  0  0  0
 10 16  1  0  0  0  0
 10 17  1  0  0  0  0
 10 26  1  0  0  0  0
 11 13  1  0  0  0  0
 11 20  1  1  0  0  0
 11 42  1  0  0  0  0
 12 43  1  0  0  0  0
 12 44  1  0  0  0  0
 13 45  1  0  0  0  0
 13 46  1  0  0  0  0
 14 47  1  0  0  0  0
 14 48  1  0  0  0  0
 15 49  1  0  0  0  0
 15 50  1  0  0  0  0
 16 18  1  0  0  0  0
 16 51  1  0  0  0  0
 16 52  1  0  0  0  0
 17 19  1  0  0  0  0
 17 53  1  0  0  0  0
 17 54  1  0  0  0  0
 18 19  1  0  0  0  0
 18 55  1  0  0  0  0
 18 56  1  0  0  0  0
 19 57  1  0  0  0  0
 19 58  1  0  0  0  0
 20 28  2  0  0  0  0
 20 29  1  0  0  0  0
 21 24  1  0  0  0  0
 21 25  1  0  0  0  0
 21 27  1  0  0  0  0
 21 59  1  0  0  0  0
 22 24  1  0  0  0  0
 22 60  1  0  0  0  0
 22 61  1  0  0  0  0
 23 25  1  0  0  0  0
 23 62  1  0  0  0  0
 23 63  1  0  0  0  0
 24 64  1  0  0  0  0
 24 65  1  0  0  0  0
 25 66  1  0  0  0  0
 25 67  1  0  0  0  0
 27 30  1  0  0  0  0
 27 68  1  0  0  0  0
 27 69  1  0  0  0  0
 28 31  1  0  0  0  0
 28 70  1  0  0  0  0
 29 32  2  0  0  0  0
 29 71  1  0  0  0  0
 30 33  1  0  0  0  0
 30 72  1  0  0  0  0
 30 73  1  0  0  0  0
 31 34  2  0  0  0  0
 32 34  1  0  0  0  0
 32 75  1  0  0  0  0
 33 35  1  0  0  0  0
 34 76  1  0  0  0  0
 35 36  2  0  0  0  0
 35 37  1  0  0  0  0
 36 38  1  0  0  0  0
 36 77  1  0  0  0  0
 37 39  2  0  0  0  0
 37 78  1  0  0  0  0
 38 40  2  0  0  0  0
 38 79  1  0  0  0  0
 39 40  1  0  0  0  0
 39 80  1  0  0  0  0
M  END
> <PUBCHEM_COMPOUND_CID>
512897
> <PUBCHEM_COMPOUND_CANONICALIZED>
1
> <PUBCHEM_CACTVS_COMPLEXITY>
822
> <PUBCHEM_CACTVS_HBOND_ACCEPTOR>
8
> <PUBCHEM_CACTVS_HBOND_DONOR>
1
> <PUBCHEM_CACTVS_ROTATABLE_BOND>
10
> <PUBCHEM_CACTVS_SUBSKEYS>
AAADcfB/McAAAAAAAAAAAAAAAAAAAeIAAAA8YIAAAAAAAAABQAAAHwAACAAADwDBmBwwCIMAAgCIAiDSCAACAAAgAAAIiAEIAIgIIDqA0RGEYAAmgACIiAeYyMAPgAAAAAAAAAAAAAAAAAAAAAAAAAAAAA==
> <PUBCHEM_IUPAC_OPENEYE_NAME>
1-[[(3S,4S)-3-[[4-[3,3-difluoro-3-(4-fluorophenyl)propyl]-1-piperidyl]methyl]-4-(3-fluorophenyl)pyrrolidin-1-yl]methyl]cyclopentanecarboxylic acid
> <PUBCHEM_IUPAC_CAS_NAME>
1-[[(3S,4S)-3-[[4-[3,3-difluoro-3-(4-fluorophenyl)propyl]-1-piperidinyl]methyl]-4-(3-fluorophenyl)-1-pyrrolidinyl]methyl]-1-cyclopentanecarboxylic acid
> <PUBCHEM_IUPAC_NAME_MARKUP>
1-[[(3<I>S</I>,4<I>S</I>)-3-[[4-[3,3-difluoro-3-(4-fluorophenyl)propyl]piperidin-1-yl]methyl]-4-(3-fluorophenyl)pyrrolidin-1-yl]methyl]cyclopentane-1-carboxylic acid
> <PUBCHEM_IUPAC_NAME>
1-[[(3S,4S)-3-[[4-[3,3-difluoro-3-(4-fluorophenyl)propyl]piperidin-1-yl]methyl]-4-(3-fluorophenyl)pyrrolidin-1-yl]methyl]cyclopentane-1-carboxylic acid
> <PUBCHEM_IUPAC_SYSTEMATIC_NAME>
1-[[(3S,4S)-3-[[4-[3,3-bis(fluoranyl)-3-(4-fluorophenyl)propyl]piperidin-1-yl]methyl]-4-(3-fluorophenyl)pyrrolidin-1-yl]methyl]cyclopentane-1-carboxylic acid
> <PUBCHEM_IUPAC_TRADITIONAL_NAME>
1-[[(3S,4S)-3-[[4-[3,3-difluoro-3-(4-fluorophenyl)propyl]piperidino]methyl]-4-(3-fluorophenyl)pyrrolidino]methyl]cyclopentanecarboxylic acid
> <PUBCHEM_IUPAC_INCHI>
InChI=1S/C32H40F4N2O2/c33-27-8-6-26(7-9-27)32(35,36)15-10-23-11-16-37(17-12-23)19-25-20-38(22-31(30(39)40)13-1-2-14-31)21-29(25)24-4-3-5-28(34)18-24/h3-9,18,23,25,29H,1-2,10-17,19-22H2,(H,39,40)/t25-,29+/m0/s1
> <PUBCHEM_IUPAC_INCHIKEY>
AEEIHIKCADXXRM-ABYGYWHVSA-N
> <PUBCHEM_XLOGP3_AA>
4.5
> <PUBCHEM_EXACT_MASS>
560.30259117
> <PUBCHEM_MOLECULAR_FORMULA>
C32H40F4N2O2
> <PUBCHEM_MOLECULAR_WEIGHT>
560.7
> <PUBCHEM_OPENEYE_CAN_SMILES>
C1CCC(C1)(CN2CC(C(C2)C3=CC(=CC=C3)F)CN4CCC(CC4)CCC(C5=CC=C(C=C5)F)(F)F)C(=O)O
> <PUBCHEM_OPENEYE_ISO_SMILES>
C1CCC(C1)(CN2C[C@@H]([C@H](C2)C3=CC(=CC=C3)F)CN4CCC(CC4)CCC(C5=CC=C(C=C5)F)(F)F)C(=O)O
> <PUBCHEM_CACTVS_TPSA>
43.8
> <PUBCHEM_MONOISOTOPIC_WEIGHT>
560.30259117
> <PUBCHEM_TOTAL_CHARGE>
0
> <PUBCHEM_HEAVY_ATOM_COUNT>
40
> <PUBCHEM_ATOM_DEF_STEREO_COUNT>
2
> <PUBCHEM_ATOM_UDEF_STEREO_COUNT>
0
> <PUBCHEM_BOND_DEF_STEREO_COUNT>
0
> <PUBCHEM_BOND_UDEF_STEREO_COUNT>
0
> <PUBCHEM_ISOTOPIC_ATOM_COUNT>
0
> <PUBCHEM_COMPONENT_COUNT>
1
> <PUBCHEM_CACTVS_TAUTO_COUNT>
-1
> <PUBCHEM_COORDINATE_TYPE>
1
5
255
> <PUBCHEM_BONDANNOTATIONS>
11  20  5
20  28  8
20  29  8
28  31  8
29  32  8
31  34  8
32  34  8
35  36  8
35  37  8
36  38  8
37  39  8
38  40  8
39  40  8
9  15  6
$$$$
