512847
  -OEChem-10302200282D
 48 48  0     1  0  0  0  0  0999 V2000
    2.6723    3.1051    0.0000 S   0  0  0  0  0  0  0  0  0  0  0  0
    2.0000    1.0360    0.0000 O   0  0  0  0  0  0  0  0  0  0  0  0
    5.5202    1.0360    0.0000 O   0  0  0  0  0  0  0  0  0  0  0  0
    3.7601    0.7572    0.0000 N   0  0  0  0  0  0  0  0  0  0  0  0
    2.8980    5.7412    0.0000 N   0  0  0  0  0  0  0  0  0  0  0  0
    4.6261   -0.7428    0.0000 C   0  0  0  0  0  0  0  0  0  0  0  0
    3.7601   -0.2428    0.0000 C   0  0  0  0  0  0  0  0  0  0  0  0
    4.6261   -1.7428    0.0000 C   0  0  0  0  0  0  0  0  0  0  0  0
    5.4921   -2.2428    0.0000 C   0  0  0  0  0  0  0  0  0  0  0  0
    3.2601    2.2961    0.0000 C   0  0  3  0  0  0  0  0  0  0  0  0
    5.4921   -3.2428    0.0000 C   0  0  0  0  0  0  0  0  0  0  0  0
    4.2601    2.2961    0.0000 C   0  0  0  0  0  0  0  0  0  0  0  0
    2.9511    1.3450    0.0000 C   0  0  0  0  0  0  0  0  0  0  0  0
    4.5691    1.3450    0.0000 C   0  0  0  0  0  0  0  0  0  0  0  0
    6.3582   -3.7428    0.0000 C   0  0  0  0  0  0  0  0  0  0  0  0
    6.3582   -4.7428    0.0000 C   0  0  0  0  0  0  0  0  0  0  0  0
    7.2242   -5.2428    0.0000 C   0  0  0  0  0  0  0  0  0  0  0  0
    3.0790    4.0186    0.0000 C   0  0  0  0  0  0  0  0  0  0  0  0
    7.2242   -6.2428    0.0000 C   0  0  0  0  0  0  0  0  0  0  0  0
    2.4912    4.8276    0.0000 C   0  0  0  0  0  0  0  0  0  0  0  0
    5.2367   -0.8504    0.0000 H   0  0  0  0  0  0  0  0  0  0  0  0
    4.8382   -0.1602    0.0000 H   0  0  0  0  0  0  0  0  0  0  0  0
    3.1495   -0.1351    0.0000 H   0  0  0  0  0  0  0  0  0  0  0  0
    3.5480   -0.8254    0.0000 H   0  0  0  0  0  0  0  0  0  0  0  0
    4.0155   -1.6351    0.0000 H   0  0  0  0  0  0  0  0  0  0  0  0
    4.4140   -2.3254    0.0000 H   0  0  0  0  0  0  0  0  0  0  0  0
    6.1027   -2.3504    0.0000 H   0  0  0  0  0  0  0  0  0  0  0  0
    5.7042   -1.6602    0.0000 H   0  0  0  0  0  0  0  0  0  0  0  0
    3.5416    2.8485    0.0000 H   0  0  0  0  0  0  0  0  0  0  0  0
    4.8815   -3.1351    0.0000 H   0  0  0  0  0  0  0  0  0  0  0  0
    5.2801   -3.8254    0.0000 H   0  0  0  0  0  0  0  0  0  0  0  0
    4.8665    2.4250    0.0000 H   0  0  0  0  0  0  0  0  0  0  0  0
    4.1953    2.9127    0.0000 H   0  0  0  0  0  0  0  0  0  0  0  0
    6.9687   -3.8504    0.0000 H   0  0  0  0  0  0  0  0  0  0  0  0
    6.5702   -3.1602    0.0000 H   0  0  0  0  0  0  0  0  0  0  0  0
    5.7476   -4.6351    0.0000 H   0  0  0  0  0  0  0  0  0  0  0  0
    6.1461   -5.3254    0.0000 H   0  0  0  0  0  0  0  0  0  0  0  0
    7.8348   -5.3504    0.0000 H   0  0  0  0  0  0  0  0  0  0  0  0
    7.4362   -4.6602    0.0000 H   0  0  0  0  0  0  0  0  0  0  0  0
    3.5930    3.6719    0.0000 H   0  0  0  0  0  0  0  0  0  0  0  0
    3.5097    4.4646    0.0000 H   0  0  0  0  0  0  0  0  0  0  0  0
    6.6042   -6.2428    0.0000 H   0  0  0  0  0  0  0  0  0  0  0  0
    7.2242   -6.8628    0.0000 H   0  0  0  0  0  0  0  0  0  0  0  0
    7.8442   -6.2428    0.0000 H   0  0  0  0  0  0  0  0  0  0  0  0
    1.9772    5.1743    0.0000 H   0  0  0  0  0  0  0  0  0  0  0  0
    2.0606    4.3816    0.0000 H   0  0  0  0  0  0  0  0  0  0  0  0
    2.5336    6.2428    0.0000 H   0  0  0  0  0  0  0  0  0  0  0  0
    3.5146    5.8060    0.0000 H   0  0  0  0  0  0  0  0  0  0  0  0
  1 10  1  0  0  0  0
  1 18  1  0  0  0  0
  2 13  2  0  0  0  0
  3 14  2  0  0  0  0
  4  7  1  0  0  0  0
  4 13  1  0  0  0  0
  4 14  1  0  0  0  0
  5 20  1  0  0  0  0
  5 47  1  0  0  0  0
  5 48  1  0  0  0  0
  6  7  1  0  0  0  0
  6  8  1  0  0  0  0
  6 21  1  0  0  0  0
  6 22  1  0  0  0  0
  7 23  1  0  0  0  0
  7 24  1  0  0  0  0
  8  9  1  0  0  0  0
  8 25  1  0  0  0  0
  8 26  1  0  0  0  0
  9 11  1  0  0  0  0
  9 27  1  0  0  0  0
  9 28  1  0  0  0  0
 10 12  1  0  0  0  0
 10 13  1  0  0  0  0
 10 29  1  0  0  0  0
 11 15  1  0  0  0  0
 11 30  1  0  0  0  0
 11 31  1  0  0  0  0
 12 14  1  0  0  0  0
 12 32  1  0  0  0  0
 12 33  1  0  0  0  0
 15 16  1  0  0  0  0
 15 34  1  0  0  0  0
 15 35  1  0  0  0  0
 16 17  1  0  0  0  0
 16 36  1  0  0  0  0
 16 37  1  0  0  0  0
 17 19  1  0  0  0  0
 17 38  1  0  0  0  0
 17 39  1  0  0  0  0
 18 20  1  0  0  0  0
 18 40  1  0  0  0  0
 18 41  1  0  0  0  0
 19 42  1  0  0  0  0
 19 43  1  0  0  0  0
 19 44  1  0  0  0  0
 20 45  1  0  0  0  0
 20 46  1  0  0  0  0
M  END
> <PUBCHEM_COMPOUND_CID>
512847
> <PUBCHEM_COMPOUND_CANONICALIZED>
1
> <PUBCHEM_CACTVS_COMPLEXITY>
310
> <PUBCHEM_CACTVS_HBOND_ACCEPTOR>
4
> <PUBCHEM_CACTVS_HBOND_DONOR>
1
> <PUBCHEM_CACTVS_ROTATABLE_BOND>
11
> <PUBCHEM_CACTVS_SUBSKEYS>
AAADceBzMABAAAAAAAAAAAAAAAAAAWAAAAAAAAAAAAAAAAAAAAAAHgQQAAAACADFwASCAANAAAgIAAEQEAAAAAAAABAAAIEIAAAAABIggAAEAAAAFiCgAAEVgIAAAAAAAAAAAAAAAAAAAAAAAAAAAAAAAA==
> <PUBCHEM_IUPAC_OPENEYE_NAME>
3-(2-aminoethylsulfanyl)-1-nonyl-pyrrolidine-2,5-dione
> <PUBCHEM_IUPAC_CAS_NAME>
3-(2-aminoethylthio)-1-nonylpyrrolidine-2,5-dione
> <PUBCHEM_IUPAC_NAME_MARKUP>
3-(2-aminoethylsulfanyl)-1-nonylpyrrolidine-2,5-dione
> <PUBCHEM_IUPAC_NAME>
3-(2-aminoethylsulfanyl)-1-nonylpyrrolidine-2,5-dione
> <PUBCHEM_IUPAC_SYSTEMATIC_NAME>
3-(2-azanylethylsulfanyl)-1-nonyl-pyrrolidine-2,5-dione
> <PUBCHEM_IUPAC_TRADITIONAL_NAME>
3-(2-aminoethylthio)-1-nonyl-pyrrolidine-2,5-quinone
> <PUBCHEM_IUPAC_INCHI>
InChI=1S/C15H28N2O2S/c1-2-3-4-5-6-7-8-10-17-14(18)12-13(15(17)19)20-11-9-16/h13H,2-12,16H2,1H3
> <PUBCHEM_IUPAC_INCHIKEY>
KQXMTXGBYWAQQF-UHFFFAOYSA-N
> <PUBCHEM_XLOGP3_AA>
2.9
> <PUBCHEM_EXACT_MASS>
300.18714931
> <PUBCHEM_MOLECULAR_FORMULA>
C15H28N2O2S
> <PUBCHEM_MOLECULAR_WEIGHT>
300.5
> <PUBCHEM_OPENEYE_CAN_SMILES>
CCCCCCCCCN1C(=O)CC(C1=O)SCCN
> <PUBCHEM_OPENEYE_ISO_SMILES>
CCCCCCCCCN1C(=O)CC(C1=O)SCCN
> <PUBCHEM_CACTVS_TPSA>
88.7
> <PUBCHEM_MONOISOTOPIC_WEIGHT>
300.18714931
> <PUBCHEM_TOTAL_CHARGE>
0
> <PUBCHEM_HEAVY_ATOM_COUNT>
20
> <PUBCHEM_ATOM_DEF_STEREO_COUNT>
0
> <PUBCHEM_ATOM_UDEF_STEREO_COUNT>
1
> <PUBCHEM_BOND_DEF_STEREO_COUNT>
0
> <PUBCHEM_BOND_UDEF_STEREO_COUNT>
0
> <PUBCHEM_ISOTOPIC_ATOM_COUNT>
0
> <PUBCHEM_COMPONENT_COUNT>
1
> <PUBCHEM_CACTVS_TAUTO_COUNT>
-1
> <PUBCHEM_COORDINATE_TYPE>
1
5
255
> <PUBCHEM_BONDANNOTATIONS>
10  1  3
$$$$
