512874
  -OEChem-10302200282D
106105  0     1  0  0  0  0  0999 V2000
    6.3301   -5.0670    0.0000 P   0  0  3  0  0  0  0  0  0  0  0  0
    5.4641   -5.5670    0.0000 O   0  0  0  0  0  0  0  0  0  0  0  0
    9.7942   -5.0670    0.0000 O   0  0  0  0  0  0  0  0  0  0  0  0
    9.7942   -3.0670    0.0000 O   0  0  0  0  0  0  0  0  0  0  0  0
    7.1962   -4.5670    0.0000 O   0  0  0  0  0  0  0  0  0  0  0  0
   10.6603   -3.5670    0.0000 O   0  0  0  0  0  0  0  0  0  0  0  0
    8.9282   -1.5670    0.0000 O   0  0  0  0  0  0  0  0  0  0  0  0
    5.8301   -4.2010    0.0000 O   0  5  0  0  0  0  0  0  0  0  0  0
    6.8301   -5.9330    0.0000 O   0  0  0  0  0  0  0  0  0  0  0  0
    2.8660   -5.0670    0.0000 N   0  3  0  0  0  0  0  0  0  0  0  0
    3.7320   -5.5670    0.0000 C   0  0  0  0  0  0  0  0  0  0  0  0
   14.9904   -5.0670    0.0000 C   0  0  0  0  0  0  0  0  0  0  0  0
   15.8564   -4.5670    0.0000 C   0  0  0  0  0  0  0  0  0  0  0  0
   12.3923    1.4330    0.0000 C   0  0  0  0  0  0  0  0  0  0  0  0
   12.3923    2.4330    0.0000 C   0  0  0  0  0  0  0  0  0  0  0  0
   14.1244   -4.5670    0.0000 C   0  0  0  0  0  0  0  0  0  0  0  0
   16.7224   -5.0670    0.0000 C   0  0  0  0  0  0  0  0  0  0  0  0
   11.5263    0.9330    0.0000 C   0  0  0  0  0  0  0  0  0  0  0  0
   13.2583    2.9330    0.0000 C   0  0  0  0  0  0  0  0  0  0  0  0
   13.2583   -5.0670    0.0000 C   0  0  0  0  0  0  0  0  0  0  0  0
   17.5885   -4.5670    0.0000 C   0  0  0  0  0  0  0  0  0  0  0  0
   11.5263   -0.0670    0.0000 C   0  0  0  0  0  0  0  0  0  0  0  0
    2.0000   -4.5670    0.0000 C   0  0  0  0  0  0  0  0  0  0  0  0
    2.3660   -5.9330    0.0000 C   0  0  0  0  0  0  0  0  0  0  0  0
    3.3660   -4.2010    0.0000 C   0  0  0  0  0  0  0  0  0  0  0  0
   13.2583    3.9330    0.0000 C   0  0  0  0  0  0  0  0  0  0  0  0
    4.5981   -5.0670    0.0000 C   0  0  0  0  0  0  0  0  0  0  0  0
   12.3923   -4.5670    0.0000 C   0  0  0  0  0  0  0  0  0  0  0  0
   10.6603   -0.5670    0.0000 C   0  0  0  0  0  0  0  0  0  0  0  0
   18.4545   -5.0670    0.0000 C   0  0  0  0  0  0  0  0  0  0  0  0
   14.1244    4.4330    0.0000 C   0  0  0  0  0  0  0  0  0  0  0  0
   11.5263   -5.0670    0.0000 C   0  0  0  0  0  0  0  0  0  0  0  0
   10.6603   -1.5670    0.0000 C   0  0  0  0  0  0  0  0  0  0  0  0
   19.3205   -4.5670    0.0000 C   0  0  0  0  0  0  0  0  0  0  0  0
   14.1244    5.4330    0.0000 C   0  0  0  0  0  0  0  0  0  0  0  0
    8.9282   -4.5670    0.0000 C   0  0  2  0  0  0  0  0  0  0  0  0
   10.6603   -4.5670    0.0000 C   0  0  0  0  0  0  0  0  0  0  0  0
    8.9282   -3.5670    0.0000 C   0  0  0  0  0  0  0  0  0  0  0  0
    8.0622   -5.0670    0.0000 C   0  0  0  0  0  0  0  0  0  0  0  0
    9.7942   -2.0670    0.0000 C   0  0  0  0  0  0  0  0  0  0  0  0
   20.1865   -5.0670    0.0000 C   0  0  0  0  0  0  0  0  0  0  0  0
   14.9904    5.9330    0.0000 C   0  0  0  0  0  0  0  0  0  0  0  0
    3.3335   -6.0419    0.0000 H   0  0  0  0  0  0  0  0  0  0  0  0
    4.1306   -6.0419    0.0000 H   0  0  0  0  0  0  0  0  0  0  0  0
   14.5919   -5.5419    0.0000 H   0  0  0  0  0  0  0  0  0  0  0  0
   15.3889   -5.5419    0.0000 H   0  0  0  0  0  0  0  0  0  0  0  0
   16.2549   -4.0920    0.0000 H   0  0  0  0  0  0  0  0  0  0  0  0
   15.4579   -4.0920    0.0000 H   0  0  0  0  0  0  0  0  0  0  0  0
   12.6044    0.8504    0.0000 H   0  0  0  0  0  0  0  0  0  0  0  0
   13.0029    1.5407    0.0000 H   0  0  0  0  0  0  0  0  0  0  0  0
   12.1803    3.0156    0.0000 H   0  0  0  0  0  0  0  0  0  0  0  0
   11.7817    2.3253    0.0000 H   0  0  0  0  0  0  0  0  0  0  0  0
   14.5229   -4.0920    0.0000 H   0  0  0  0  0  0  0  0  0  0  0  0
   13.7258   -4.0920    0.0000 H   0  0  0  0  0  0  0  0  0  0  0  0
   16.3239   -5.5419    0.0000 H   0  0  0  0  0  0  0  0  0  0  0  0
   17.1210   -5.5419    0.0000 H   0  0  0  0  0  0  0  0  0  0  0  0
   11.3142    1.5156    0.0000 H   0  0  0  0  0  0  0  0  0  0  0  0
   10.9157    0.8254    0.0000 H   0  0  0  0  0  0  0  0  0  0  0  0
   13.4704    2.3504    0.0000 H   0  0  0  0  0  0  0  0  0  0  0  0
   13.8689    3.0407    0.0000 H   0  0  0  0  0  0  0  0  0  0  0  0
   12.8598   -5.5419    0.0000 H   0  0  0  0  0  0  0  0  0  0  0  0
   13.6569   -5.5419    0.0000 H   0  0  0  0  0  0  0  0  0  0  0  0
   17.9870   -4.0920    0.0000 H   0  0  0  0  0  0  0  0  0  0  0  0
   17.1899   -4.0920    0.0000 H   0  0  0  0  0  0  0  0  0  0  0  0
   11.7383   -0.6496    0.0000 H   0  0  0  0  0  0  0  0  0  0  0  0
   12.1369    0.0407    0.0000 H   0  0  0  0  0  0  0  0  0  0  0  0
    2.3100   -4.0300    0.0000 H   0  0  0  0  0  0  0  0  0  0  0  0
    1.4631   -4.2570    0.0000 H   0  0  0  0  0  0  0  0  0  0  0  0
    1.6900   -5.1039    0.0000 H   0  0  0  0  0  0  0  0  0  0  0  0
    1.8291   -5.6230    0.0000 H   0  0  0  0  0  0  0  0  0  0  0  0
    2.0560   -6.4700    0.0000 H   0  0  0  0  0  0  0  0  0  0  0  0
    2.9030   -6.2430    0.0000 H   0  0  0  0  0  0  0  0  0  0  0  0
    3.9030   -4.5110    0.0000 H   0  0  0  0  0  0  0  0  0  0  0  0
    3.6760   -3.6640    0.0000 H   0  0  0  0  0  0  0  0  0  0  0  0
    2.8291   -3.8910    0.0000 H   0  0  0  0  0  0  0  0  0  0  0  0
   13.0463    4.5156    0.0000 H   0  0  0  0  0  0  0  0  0  0  0  0
   12.6477    3.8254    0.0000 H   0  0  0  0  0  0  0  0  0  0  0  0
    4.9966   -4.5920    0.0000 H   0  0  0  0  0  0  0  0  0  0  0  0
    4.1996   -4.5920    0.0000 H   0  0  0  0  0  0  0  0  0  0  0  0
   12.7908   -4.0920    0.0000 H   0  0  0  0  0  0  0  0  0  0  0  0
   11.9938   -4.0920    0.0000 H   0  0  0  0  0  0  0  0  0  0  0  0
   10.4482    0.0156    0.0000 H   0  0  0  0  0  0  0  0  0  0  0  0
   10.0497   -0.6746    0.0000 H   0  0  0  0  0  0  0  0  0  0  0  0
   18.0560   -5.5419    0.0000 H   0  0  0  0  0  0  0  0  0  0  0  0
   18.8530   -5.5419    0.0000 H   0  0  0  0  0  0  0  0  0  0  0  0
   14.3364    3.8504    0.0000 H   0  0  0  0  0  0  0  0  0  0  0  0
   14.7349    4.5407    0.0000 H   0  0  0  0  0  0  0  0  0  0  0  0
   11.1278   -5.5419    0.0000 H   0  0  0  0  0  0  0  0  0  0  0  0
   11.9248   -5.5419    0.0000 H   0  0  0  0  0  0  0  0  0  0  0  0
   10.8723   -2.1496    0.0000 H   0  0  0  0  0  0  0  0  0  0  0  0
   11.2708   -1.4593    0.0000 H   0  0  0  0  0  0  0  0  0  0  0  0
   19.7190   -4.0920    0.0000 H   0  0  0  0  0  0  0  0  0  0  0  0
   18.9220   -4.0920    0.0000 H   0  0  0  0  0  0  0  0  0  0  0  0
   13.9123    6.0156    0.0000 H   0  0  0  0  0  0  0  0  0  0  0  0
   13.5138    5.3254    0.0000 H   0  0  0  0  0  0  0  0  0  0  0  0
    9.4651   -4.2570    0.0000 H   0  0  0  0  0  0  0  0  0  0  0  0
    8.7162   -2.9844    0.0000 H   0  0  0  0  0  0  0  0  0  0  0  0
    8.3176   -3.6746    0.0000 H   0  0  0  0  0  0  0  0  0  0  0  0
    7.6636   -5.5419    0.0000 H   0  0  0  0  0  0  0  0  0  0  0  0
    8.4607   -5.5419    0.0000 H   0  0  0  0  0  0  0  0  0  0  0  0
   19.8765   -5.6039    0.0000 H   0  0  0  0  0  0  0  0  0  0  0  0
   20.7235   -5.3770    0.0000 H   0  0  0  0  0  0  0  0  0  0  0  0
   20.4965   -4.5300    0.0000 H   0  0  0  0  0  0  0  0  0  0  0  0
   15.3004    5.3961    0.0000 H   0  0  0  0  0  0  0  0  0  0  0  0
   15.5273    6.2430    0.0000 H   0  0  0  0  0  0  0  0  0  0  0  0
   14.6804    6.4700    0.0000 H   0  0  0  0  0  0  0  0  0  0  0  0
  1  2  1  0  0  0  0
  1  5  1  0  0  0  0
  1  8  1  0  0  0  0
  1  9  2  0  0  0  0
  2 27  1  0  0  0  0
 36  3  1  1  0  0  0
  3 37  1  0  0  0  0
  4 38  1  0  0  0  0
  4 40  1  0  0  0  0
  5 39  1  0  0  0  0
  6 37  2  0  0  0  0
  7 40  2  0  0  0  0
 10 11  1  0  0  0  0
 10 23  1  0  0  0  0
 10 24  1  0  0  0  0
 10 25  1  0  0  0  0
 11 27  1  0  0  0  0
 11 43  1  0  0  0  0
 11 44  1  0  0  0  0
 12 13  1  0  0  0  0
 12 16  1  0  0  0  0
 12 45  1  0  0  0  0
 12 46  1  0  0  0  0
 13 17  1  0  0  0  0
 13 47  1  0  0  0  0
 13 48  1  0  0  0  0
 14 15  1  0  0  0  0
 14 18  1  0  0  0  0
 14 49  1  0  0  0  0
 14 50  1  0  0  0  0
 15 19  1  0  0  0  0
 15 51  1  0  0  0  0
 15 52  1  0  0  0  0
 16 20  1  0  0  0  0
 16 53  1  0  0  0  0
 16 54  1  0  0  0  0
 17 21  1  0  0  0  0
 17 55  1  0  0  0  0
 17 56  1  0  0  0  0
 18 22  1  0  0  0  0
 18 57  1  0  0  0  0
 18 58  1  0  0  0  0
 19 26  1  0  0  0  0
 19 59  1  0  0  0  0
 19 60  1  0  0  0  0
 20 28  1  0  0  0  0
 20 61  1  0  0  0  0
 20 62  1  0  0  0  0
 21 30  1  0  0  0  0
 21 63  1  0  0  0  0
 21 64  1  0  0  0  0
 22 29  1  0  0  0  0
 22 65  1  0  0  0  0
 22 66  1  0  0  0  0
 23 67  1  0  0  0  0
 23 68  1  0  0  0  0
 23 69  1  0  0  0  0
 24 70  1  0  0  0  0
 24 71  1  0  0  0  0
 24 72  1  0  0  0  0
 25 73  1  0  0  0  0
 25 74  1  0  0  0  0
 25 75  1  0  0  0  0
 26 31  1  0  0  0  0
 26 76  1  0  0  0  0
 26 77  1  0  0  0  0
 27 78  1  0  0  0  0
 27 79  1  0  0  0  0
 28 32  1  0  0  0  0
 28 80  1  0  0  0  0
 28 81  1  0  0  0  0
 29 33  1  0  0  0  0
 29 82  1  0  0  0  0
 29 83  1  0  0  0  0
 30 34  1  0  0  0  0
 30 84  1  0  0  0  0
 30 85  1  0  0  0  0
 31 35  1  0  0  0  0
 31 86  1  0  0  0  0
 31 87  1  0  0  0  0
 32 37  1  0  0  0  0
 32 88  1  0  0  0  0
 32 89  1  0  0  0  0
 33 40  1  0  0  0  0
 33 90  1  0  0  0  0
 33 91  1  0  0  0  0
 34 41  1  0  0  0  0
 34 92  1  0  0  0  0
 34 93  1  0  0  0  0
 35 42  1  0  0  0  0
 35 94  1  0  0  0  0
 35 95  1  0  0  0  0
 36 38  1  0  0  0  0
 36 39  1  0  0  0  0
 36 96  1  0  0  0  0
 38 97  1  0  0  0  0
 38 98  1  0  0  0  0
 39 99  1  0  0  0  0
 39100  1  0  0  0  0
 41101  1  0  0  0  0
 41102  1  0  0  0  0
 41103  1  0  0  0  0
 42104  1  0  0  0  0
 42105  1  0  0  0  0
 42106  1  0  0  0  0
M  CHG  2   8  -1  10   1
M  END
> <PUBCHEM_COMPOUND_CID>
512874
> <PUBCHEM_COMPOUND_CANONICALIZED>
1
> <PUBCHEM_CACTVS_COMPLEXITY>
705
> <PUBCHEM_CACTVS_HBOND_ACCEPTOR>
8
> <PUBCHEM_CACTVS_HBOND_DONOR>
0
> <PUBCHEM_CACTVS_ROTATABLE_BOND>
32
> <PUBCHEM_CACTVS_SUBSKEYS>
AAADcfB+PAIAAAAAAAAAAAAAAAAAAAAAAAAAAAAAAAAAAAAAAAAAHgAAACAACBThgAYCCAMABRAIQACQCIAAAAAAAAAAAAEIAAADABIAAAACAAAFAAASAAGIyKCAAAAAAAAAAAAAAAAAAAAAAAAAAAAAAA==
> <PUBCHEM_IUPAC_OPENEYE_NAME>
[(2R)-2,3-di(dodecanoyloxy)propyl] 2-(trimethylammonio)ethyl phosphate
> <PUBCHEM_IUPAC_CAS_NAME>
[(2R)-2,3-bis(1-oxododecoxy)propyl] 2-(trimethylammonio)ethyl phosphate
> <PUBCHEM_IUPAC_NAME_MARKUP>
[(2<I>R</I>)-2,3-di(dodecanoyloxy)propyl] 2-(trimethylazaniumyl)ethyl phosphate
> <PUBCHEM_IUPAC_NAME>
[(2R)-2,3-di(dodecanoyloxy)propyl] 2-(trimethylazaniumyl)ethyl phosphate
> <PUBCHEM_IUPAC_SYSTEMATIC_NAME>
[(2R)-2,3-di(dodecanoyloxy)propyl] 2-(trimethylazaniumyl)ethyl phosphate
> <PUBCHEM_IUPAC_TRADITIONAL_NAME>
[(2R)-2,3-dilauroyloxypropyl] 2-(trimethylammonio)ethyl phosphate
> <PUBCHEM_IUPAC_INCHI>
InChI=1S/C32H64NO8P/c1-6-8-10-12-14-16-18-20-22-24-31(34)38-28-30(29-40-42(36,37)39-27-26-33(3,4)5)41-32(35)25-23-21-19-17-15-13-11-9-7-2/h30H,6-29H2,1-5H3/t30-/m1/s1
> <PUBCHEM_IUPAC_INCHIKEY>
IJFVSSZAOYLHEE-SSEXGKCCSA-N
> <PUBCHEM_XLOGP3_AA>
9.1
> <PUBCHEM_EXACT_MASS>
621.43695500
> <PUBCHEM_MOLECULAR_FORMULA>
C32H64NO8P
> <PUBCHEM_MOLECULAR_WEIGHT>
621.8
> <PUBCHEM_OPENEYE_CAN_SMILES>
CCCCCCCCCCCC(=O)OCC(COP(=O)([O-])OCC[N+](C)(C)C)OC(=O)CCCCCCCCCCC
> <PUBCHEM_OPENEYE_ISO_SMILES>
CCCCCCCCCCCC(=O)OC[C@H](COP(=O)([O-])OCC[N+](C)(C)C)OC(=O)CCCCCCCCCCC
> <PUBCHEM_CACTVS_TPSA>
111
> <PUBCHEM_MONOISOTOPIC_WEIGHT>
621.43695500
> <PUBCHEM_TOTAL_CHARGE>
0
> <PUBCHEM_HEAVY_ATOM_COUNT>
42
> <PUBCHEM_ATOM_DEF_STEREO_COUNT>
1
> <PUBCHEM_ATOM_UDEF_STEREO_COUNT>
0
> <PUBCHEM_BOND_DEF_STEREO_COUNT>
0
> <PUBCHEM_BOND_UDEF_STEREO_COUNT>
0
> <PUBCHEM_ISOTOPIC_ATOM_COUNT>
0
> <PUBCHEM_COMPONENT_COUNT>
1
> <PUBCHEM_CACTVS_TAUTO_COUNT>
1
> <PUBCHEM_COORDINATE_TYPE>
1
5
255
> <PUBCHEM_BONDANNOTATIONS>
36  3  5
$$$$
