512865
  -OEChem-10302200282D
125128  0     1  0  0  0  0  0999 V2000
   19.3204   -3.6598    0.0000 O   0  0  0  0  0  0  0  0  0  0  0  0
   18.4601   -2.1564    0.0000 O   0  0  0  0  0  0  0  0  0  0  0  0
   24.7135   -0.6074    0.0000 C   0  0  1  0  0  0  0  0  0  0  0  0
   24.7135   -1.6074    0.0000 C   0  0  2  0  0  0  0  0  0  0  0  0
   23.8474   -2.1074    0.0000 C   0  0  1  0  0  0  0  0  0  0  0  0
   22.9814   -1.6074    0.0000 C   0  0  1  0  0  0  0  0  0  0  0  0
   25.6597   -0.3027    0.0000 C   0  0  2  0  0  0  0  0  0  0  0  0
   23.8474   -0.1074    0.0000 C   0  0  0  0  0  0  0  0  0  0  0  0
   22.0714   -2.1143    0.0000 C   0  0  2  0  0  0  0  0  0  0  0  0
   25.6597   -1.9122    0.0000 C   0  0  0  0  0  0  0  0  0  0  0  0
   22.9814   -0.6074    0.0000 C   0  0  0  0  0  0  0  0  0  0  0  0
   26.2433   -1.1074    0.0000 C   0  0  0  0  0  0  0  0  0  0  0  0
   23.8635   -3.1489    0.0000 C   0  0  0  0  0  0  0  0  0  0  0  0
   25.9703    0.6478    0.0000 C   0  0  1  0  0  0  0  0  0  0  0  0
   24.7135    0.3926    0.0000 C   0  0  0  0  0  0  0  0  0  0  0  0
   22.0634   -3.1559    0.0000 C   0  0  0  0  0  0  0  0  0  0  0  0
   21.1446   -1.5502    0.0000 C   0  0  0  0  0  0  0  0  0  0  0  0
   22.9655   -3.6767    0.0000 C   0  0  0  0  0  0  0  0  0  0  0  0
   22.0791   -1.1143    0.0000 C   0  0  0  0  0  0  0  0  0  0  0  0
   21.1280   -3.7056    0.0000 C   0  0  0  0  0  0  0  0  0  0  0  0
   20.1967   -2.0781    0.0000 C   0  0  0  0  0  0  0  0  0  0  0  0
   26.9489    0.8540    0.0000 C   0  0  0  0  0  0  0  0  0  0  0  0
   20.1883   -3.1631    0.0000 C   0  0  2  0  0  0  0  0  0  0  0  0
   25.3025    1.3921    0.0000 C   0  0  0  0  0  0  0  0  0  0  0  0
   27.2595    1.8046    0.0000 C   0  0  0  0  0  0  0  0  0  0  0  0
   28.2380    2.0108    0.0000 C   0  0  0  0  0  0  0  0  0  0  0  0
   28.5487    2.9613    0.0000 C   0  0  0  0  0  0  0  0  0  0  0  0
   18.4563   -3.1564    0.0000 C   0  0  0  0  0  0  0  0  0  0  0  0
   17.5883   -3.6531    0.0000 C   0  0  0  0  0  0  0  0  0  0  0  0
   29.5272    3.1675    0.0000 C   0  0  0  0  0  0  0  0  0  0  0  0
   27.8808    3.7056    0.0000 C   0  0  0  0  0  0  0  0  0  0  0  0
   16.7242   -3.1498    0.0000 C   0  0  0  0  0  0  0  0  0  0  0  0
   15.8563   -3.6464    0.0000 C   0  0  0  0  0  0  0  0  0  0  0  0
   14.9922   -3.1431    0.0000 C   0  0  0  0  0  0  0  0  0  0  0  0
   14.1243   -3.6397    0.0000 C   0  0  0  0  0  0  0  0  0  0  0  0
   13.2602   -3.1364    0.0000 C   0  0  0  0  0  0  0  0  0  0  0  0
   12.3922   -3.6331    0.0000 C   0  0  0  0  0  0  0  0  0  0  0  0
   11.5281   -3.1297    0.0000 C   0  0  0  0  0  0  0  0  0  0  0  0
   10.6602   -3.6264    0.0000 C   0  0  0  0  0  0  0  0  0  0  0  0
    9.7961   -3.1230    0.0000 C   0  0  0  0  0  0  0  0  0  0  0  0
    8.9282   -3.6197    0.0000 C   0  0  0  0  0  0  0  0  0  0  0  0
    8.0641   -3.1164    0.0000 C   0  0  0  0  0  0  0  0  0  0  0  0
    7.1961   -3.6130    0.0000 C   0  0  0  0  0  0  0  0  0  0  0  0
    6.3320   -3.1097    0.0000 C   0  0  0  0  0  0  0  0  0  0  0  0
    5.4641   -3.6064    0.0000 C   0  0  0  0  0  0  0  0  0  0  0  0
    4.6000   -3.1030    0.0000 C   0  0  0  0  0  0  0  0  0  0  0  0
    3.7320   -3.5997    0.0000 C   0  0  0  0  0  0  0  0  0  0  0  0
    2.8680   -3.0963    0.0000 C   0  0  0  0  0  0  0  0  0  0  0  0
    2.0000   -3.5930    0.0000 C   0  0  0  0  0  0  0  0  0  0  0  0
   24.8034   -2.4527    0.0000 H   0  0  0  0  0  0  0  0  0  0  0  0
   24.5868   -2.5267    0.0000 H   0  0  0  0  0  0  0  0  0  0  0  0
   23.7175   -1.1824    0.0000 H   0  0  0  0  0  0  0  0  0  0  0  0
   26.4994   -0.1708    0.0000 H   0  0  0  0  0  0  0  0  0  0  0  0
   24.2460    0.3675    0.0000 H   0  0  0  0  0  0  0  0  0  0  0  0
   23.4489    0.3675    0.0000 H   0  0  0  0  0  0  0  0  0  0  0  0
   25.4087   -2.4791    0.0000 H   0  0  0  0  0  0  0  0  0  0  0  0
   26.1971   -2.2214    0.0000 H   0  0  0  0  0  0  0  0  0  0  0  0
   22.7694   -0.0248    0.0000 H   0  0  0  0  0  0  0  0  0  0  0  0
   22.3708   -0.7151    0.0000 H   0  0  0  0  0  0  0  0  0  0  0  0
   26.7042   -1.5222    0.0000 H   0  0  0  0  0  0  0  0  0  0  0  0
   26.7042   -0.6927    0.0000 H   0  0  0  0  0  0  0  0  0  0  0  0
   24.0815   -3.7293    0.0000 H   0  0  0  0  0  0  0  0  0  0  0  0
   24.4726   -3.0334    0.0000 H   0  0  0  0  0  0  0  0  0  0  0  0
   26.1630    1.2371    0.0000 H   0  0  0  0  0  0  0  0  0  0  0  0
   25.3335    0.3926    0.0000 H   0  0  0  0  0  0  0  0  0  0  0  0
   24.7135    1.0126    0.0000 H   0  0  0  0  0  0  0  0  0  0  0  0
   24.0935    0.3926    0.0000 H   0  0  0  0  0  0  0  0  0  0  0  0
   21.5528   -1.0835    0.0000 H   0  0  0  0  0  0  0  0  0  0  0  0
   20.7547   -1.0682    0.0000 H   0  0  0  0  0  0  0  0  0  0  0  0
   22.9678   -4.2967    0.0000 H   0  0  0  0  0  0  0  0  0  0  0  0
   22.6991   -1.1191    0.0000 H   0  0  0  0  0  0  0  0  0  0  0  0
   22.0839   -0.4943    0.0000 H   0  0  0  0  0  0  0  0  0  0  0  0
   21.4591   -1.1095    0.0000 H   0  0  0  0  0  0  0  0  0  0  0  0
   20.7307   -4.1816    0.0000 H   0  0  0  0  0  0  0  0  0  0  0  0
   21.5289   -4.1785    0.0000 H   0  0  0  0  0  0  0  0  0  0  0  0
   19.9921   -1.4929    0.0000 H   0  0  0  0  0  0  0  0  0  0  0  0
   19.5850   -2.1795    0.0000 H   0  0  0  0  0  0  0  0  0  0  0  0
   26.9694    0.2344    0.0000 H   0  0  0  0  0  0  0  0  0  0  0  0
   27.5627    0.7667    0.0000 H   0  0  0  0  0  0  0  0  0  0  0  0
   20.1871   -3.7831    0.0000 H   0  0  0  0  0  0  0  0  0  0  0  0
   25.7640    1.8062    0.0000 H   0  0  0  0  0  0  0  0  0  0  0  0
   24.8884    1.8536    0.0000 H   0  0  0  0  0  0  0  0  0  0  0  0
   24.8410    0.9781    0.0000 H   0  0  0  0  0  0  0  0  0  0  0  0
   27.2389    2.4242    0.0000 H   0  0  0  0  0  0  0  0  0  0  0  0
   26.6457    1.8919    0.0000 H   0  0  0  0  0  0  0  0  0  0  0  0
   28.2586    1.3911    0.0000 H   0  0  0  0  0  0  0  0  0  0  0  0
   28.8518    1.9234    0.0000 H   0  0  0  0  0  0  0  0  0  0  0  0
   28.9627    2.4998    0.0000 H   0  0  0  0  0  0  0  0  0  0  0  0
   17.1880   -4.1265    0.0000 H   0  0  0  0  0  0  0  0  0  0  0  0
   17.9850   -4.1296    0.0000 H   0  0  0  0  0  0  0  0  0  0  0  0
   29.6550    2.5608    0.0000 H   0  0  0  0  0  0  0  0  0  0  0  0
   30.1339    3.2954    0.0000 H   0  0  0  0  0  0  0  0  0  0  0  0
   29.3993    3.7742    0.0000 H   0  0  0  0  0  0  0  0  0  0  0  0
   28.3423    4.1197    0.0000 H   0  0  0  0  0  0  0  0  0  0  0  0
   27.4668    4.1671    0.0000 H   0  0  0  0  0  0  0  0  0  0  0  0
   27.4194    3.2915    0.0000 H   0  0  0  0  0  0  0  0  0  0  0  0
   17.1246   -2.6763    0.0000 H   0  0  0  0  0  0  0  0  0  0  0  0
   16.3276   -2.6733    0.0000 H   0  0  0  0  0  0  0  0  0  0  0  0
   15.4559   -4.1198    0.0000 H   0  0  0  0  0  0  0  0  0  0  0  0
   16.2530   -4.1229    0.0000 H   0  0  0  0  0  0  0  0  0  0  0  0
   14.9946   -2.5231    0.0000 H   0  0  0  0  0  0  0  0  0  0  0  0
   14.1219   -4.2597    0.0000 H   0  0  0  0  0  0  0  0  0  0  0  0
   13.6605   -2.6630    0.0000 H   0  0  0  0  0  0  0  0  0  0  0  0
   12.8635   -2.6599    0.0000 H   0  0  0  0  0  0  0  0  0  0  0  0
   12.3898   -4.2530    0.0000 H   0  0  0  0  0  0  0  0  0  0  0  0
   11.5305   -2.5097    0.0000 H   0  0  0  0  0  0  0  0  0  0  0  0
   10.2598   -4.0998    0.0000 H   0  0  0  0  0  0  0  0  0  0  0  0
   11.0569   -4.1029    0.0000 H   0  0  0  0  0  0  0  0  0  0  0  0
    9.7985   -2.5030    0.0000 H   0  0  0  0  0  0  0  0  0  0  0  0
    8.9258   -4.2397    0.0000 H   0  0  0  0  0  0  0  0  0  0  0  0
    8.4644   -2.6430    0.0000 H   0  0  0  0  0  0  0  0  0  0  0  0
    7.6674   -2.6399    0.0000 H   0  0  0  0  0  0  0  0  0  0  0  0
    7.1937   -4.2330    0.0000 H   0  0  0  0  0  0  0  0  0  0  0  0
    6.3344   -2.4897    0.0000 H   0  0  0  0  0  0  0  0  0  0  0  0
    5.0637   -4.0798    0.0000 H   0  0  0  0  0  0  0  0  0  0  0  0
    5.8608   -4.0828    0.0000 H   0  0  0  0  0  0  0  0  0  0  0  0
    5.0003   -2.6296    0.0000 H   0  0  0  0  0  0  0  0  0  0  0  0
    4.2033   -2.6265    0.0000 H   0  0  0  0  0  0  0  0  0  0  0  0
    3.3317   -4.0731    0.0000 H   0  0  0  0  0  0  0  0  0  0  0  0
    4.1287   -4.0762    0.0000 H   0  0  0  0  0  0  0  0  0  0  0  0
    3.2683   -2.6229    0.0000 H   0  0  0  0  0  0  0  0  0  0  0  0
    2.4712   -2.6199    0.0000 H   0  0  0  0  0  0  0  0  0  0  0  0
    1.6921   -3.0549    0.0000 H   0  0  0  0  0  0  0  0  0  0  0  0
    1.4619   -3.9009    0.0000 H   0  0  0  0  0  0  0  0  0  0  0  0
    2.3079   -4.1311    0.0000 H   0  0  0  0  0  0  0  0  0  0  0  0
 23  1  1  1  0  0  0
  1 28  1  0  0  0  0
  2 28  2  0  0  0  0
  3  4  1  0  0  0  0
  3  7  1  0  0  0  0
  3  8  1  0  0  0  0
  3 15  1  1  0  0  0
  4  5  1  0  0  0  0
  4 10  1  0  0  0  0
  4 50  1  6  0  0  0
  5  6  1  0  0  0  0
  5 13  1  0  0  0  0
  5 51  1  1  0  0  0
  6  9  1  0  0  0  0
  6 11  1  0  0  0  0
  6 52  1  6  0  0  0
  7 12  1  0  0  0  0
  7 14  1  0  0  0  0
  7 53  1  6  0  0  0
  8 11  1  0  0  0  0
  8 54  1  0  0  0  0
  8 55  1  0  0  0  0
  9 16  1  0  0  0  0
  9 17  1  0  0  0  0
  9 19  1  1  0  0  0
 10 12  1  0  0  0  0
 10 56  1  0  0  0  0
 10 57  1  0  0  0  0
 11 58  1  0  0  0  0
 11 59  1  0  0  0  0
 12 60  1  0  0  0  0
 12 61  1  0  0  0  0
 13 18  1  0  0  0  0
 13 62  1  0  0  0  0
 13 63  1  0  0  0  0
 14 22  1  0  0  0  0
 14 24  1  6  0  0  0
 14 64  1  0  0  0  0
 15 65  1  0  0  0  0
 15 66  1  0  0  0  0
 15 67  1  0  0  0  0
 16 18  2  0  0  0  0
 16 20  1  0  0  0  0
 17 21  1  0  0  0  0
 17 68  1  0  0  0  0
 17 69  1  0  0  0  0
 18 70  1  0  0  0  0
 19 71  1  0  0  0  0
 19 72  1  0  0  0  0
 19 73  1  0  0  0  0
 20 23  1  0  0  0  0
 20 74  1  0  0  0  0
 20 75  1  0  0  0  0
 21 23  1  0  0  0  0
 21 76  1  0  0  0  0
 21 77  1  0  0  0  0
 22 25  1  0  0  0  0
 22 78  1  0  0  0  0
 22 79  1  0  0  0  0
 23 80  1  0  0  0  0
 24 81  1  0  0  0  0
 24 82  1  0  0  0  0
 24 83  1  0  0  0  0
 25 26  1  0  0  0  0
 25 84  1  0  0  0  0
 25 85  1  0  0  0  0
 26 27  1  0  0  0  0
 26 86  1  0  0  0  0
 26 87  1  0  0  0  0
 27 30  1  0  0  0  0
 27 31  1  0  0  0  0
 27 88  1  0  0  0  0
 28 29  1  0  0  0  0
 29 32  1  0  0  0  0
 29 89  1  0  0  0  0
 29 90  1  0  0  0  0
 30 91  1  0  0  0  0
 30 92  1  0  0  0  0
 30 93  1  0  0  0  0
 31 94  1  0  0  0  0
 31 95  1  0  0  0  0
 31 96  1  0  0  0  0
 32 33  1  0  0  0  0
 32 97  1  0  0  0  0
 32 98  1  0  0  0  0
 33 34  1  0  0  0  0
 33 99  1  0  0  0  0
 33100  1  0  0  0  0
 34 35  2  3  0  0  0
 34101  1  0  0  0  0
 35 36  1  0  0  0  0
 35102  1  0  0  0  0
 36 37  1  0  0  0  0
 36103  1  0  0  0  0
 36104  1  0  0  0  0
 37 38  2  3  0  0  0
 37105  1  0  0  0  0
 38 39  1  0  0  0  0
 38106  1  0  0  0  0
 39 40  1  0  0  0  0
 39107  1  0  0  0  0
 39108  1  0  0  0  0
 40 41  2  3  0  0  0
 40109  1  0  0  0  0
 41 42  1  0  0  0  0
 41110  1  0  0  0  0
 42 43  1  0  0  0  0
 42111  1  0  0  0  0
 42112  1  0  0  0  0
 43 44  2  3  0  0  0
 43113  1  0  0  0  0
 44 45  1  0  0  0  0
 44114  1  0  0  0  0
 45 46  1  0  0  0  0
 45115  1  0  0  0  0
 45116  1  0  0  0  0
 46 47  1  0  0  0  0
 46117  1  0  0  0  0
 46118  1  0  0  0  0
 47 48  1  0  0  0  0
 47119  1  0  0  0  0
 47120  1  0  0  0  0
 48 49  1  0  0  0  0
 48121  1  0  0  0  0
 48122  1  0  0  0  0
 49123  1  0  0  0  0
 49124  1  0  0  0  0
 49125  1  0  0  0  0
M  END
> <PUBCHEM_COMPOUND_CID>
512865
> <PUBCHEM_COMPOUND_CANONICALIZED>
1
> <PUBCHEM_CACTVS_COMPLEXITY>
1140
> <PUBCHEM_CACTVS_HBOND_ACCEPTOR>
2
> <PUBCHEM_CACTVS_HBOND_DONOR>
0
> <PUBCHEM_CACTVS_ROTATABLE_BOND>
21
> <PUBCHEM_CACTVS_SUBSKEYS>
AAADcfB8MAAAAAAAAAAAAAAAAAAAAYAAAAAwYIAAAAAAAGCAAAAAGgAAAAAADxSggAICCAAABACIAiDSCAAAAAAgAAAICAEAAAgAABIAAQACAAAEwAAIAAOIwPAPgAAAAAAAAADAAAQAACAAAQAACAAAAA==
> <PUBCHEM_IUPAC_OPENEYE_NAME>
[(3S,8S,9S,10R,13R,14S,17R)-17-[(1R)-1,5-dimethylhexyl]-10,13-dimethyl-2,3,4,7,8,9,11,12,14,15,16,17-dodecahydro-1H-cyclopenta[a]phenanthren-3-yl] icosa-5,8,11,14-tetraenoate
> <PUBCHEM_IUPAC_CAS_NAME>
eicosa-5,8,11,14-tetraenoic acid [(3S,8S,9S,10R,13R,14S,17R)-10,13-dimethyl-17-[(2R)-6-methylheptan-2-yl]-2,3,4,7,8,9,11,12,14,15,16,17-dodecahydro-1H-cyclopenta[a]phenanthren-3-yl] ester
> <PUBCHEM_IUPAC_NAME_MARKUP>
[(3<I>S</I>,8<I>S</I>,9<I>S</I>,10<I>R</I>,13<I>R</I>,14<I>S</I>,17<I>R</I>)-10,13-dimethyl-17-[(2<I>R</I>)-6-methylheptan-2-yl]-2,3,4,7,8,9,11,12,14,15,16,17-dodecahydro-1<I>H</I>-cyclopenta[a]phenanthren-3-yl] icosa-5,8,11,14-tetraenoate
> <PUBCHEM_IUPAC_NAME>
[(3S,8S,9S,10R,13R,14S,17R)-10,13-dimethyl-17-[(2R)-6-methylheptan-2-yl]-2,3,4,7,8,9,11,12,14,15,16,17-dodecahydro-1H-cyclopenta[a]phenanthren-3-yl] icosa-5,8,11,14-tetraenoate
> <PUBCHEM_IUPAC_SYSTEMATIC_NAME>
[(3S,8S,9S,10R,13R,14S,17R)-10,13-dimethyl-17-[(2R)-6-methylheptan-2-yl]-2,3,4,7,8,9,11,12,14,15,16,17-dodecahydro-1H-cyclopenta[a]phenanthren-3-yl] icosa-5,8,11,14-tetraenoate
> <PUBCHEM_IUPAC_TRADITIONAL_NAME>
eicosa-5,8,11,14-tetraenoic acid [(3S,8S,9S,10R,13R,14S,17R)-17-[(1R)-1,5-dimethylhexyl]-10,13-dimethyl-2,3,4,7,8,9,11,12,14,15,16,17-dodecahydro-1H-cyclopenta[a]phenanthren-3-yl] ester
> <PUBCHEM_IUPAC_INCHI>
InChI=1S/C47H76O2/c1-7-8-9-10-11-12-13-14-15-16-17-18-19-20-21-22-23-27-45(48)49-40-32-34-46(5)39(36-40)28-29-41-43-31-30-42(38(4)26-24-25-37(2)3)47(43,6)35-33-44(41)46/h11-12,14-15,17-18,20-21,28,37-38,40-44H,7-10,13,16,19,22-27,29-36H2,1-6H3/t38-,40+,41+,42-,43+,44+,46+,47-/m1/s1
> <PUBCHEM_IUPAC_INCHIKEY>
IMXSFYNMSOULQS-JREUTYQLSA-N
> <PUBCHEM_XLOGP3_AA>
15.6
> <PUBCHEM_EXACT_MASS>
672.58453166
> <PUBCHEM_MOLECULAR_FORMULA>
C47H76O2
> <PUBCHEM_MOLECULAR_WEIGHT>
673.1
> <PUBCHEM_OPENEYE_CAN_SMILES>
CCCCCC=CCC=CCC=CCC=CCCCC(=O)OC1CCC2(C3CCC4(C(C3CC=C2C1)CCC4C(C)CCCC(C)C)C)C
> <PUBCHEM_OPENEYE_ISO_SMILES>
CCCCCC=CCC=CCC=CCC=CCCCC(=O)O[C@H]1CC[C@@]2([C@H]3CC[C@]4([C@H]([C@@H]3CC=C2C1)CC[C@@H]4[C@H](C)CCCC(C)C)C)C
> <PUBCHEM_CACTVS_TPSA>
26.3
> <PUBCHEM_MONOISOTOPIC_WEIGHT>
672.58453166
> <PUBCHEM_TOTAL_CHARGE>
0
> <PUBCHEM_HEAVY_ATOM_COUNT>
49
> <PUBCHEM_ATOM_DEF_STEREO_COUNT>
8
> <PUBCHEM_ATOM_UDEF_STEREO_COUNT>
0
> <PUBCHEM_BOND_DEF_STEREO_COUNT>
0
> <PUBCHEM_BOND_UDEF_STEREO_COUNT>
4
> <PUBCHEM_ISOTOPIC_ATOM_COUNT>
0
> <PUBCHEM_COMPONENT_COUNT>
1
> <PUBCHEM_CACTVS_TAUTO_COUNT>
-1
> <PUBCHEM_COORDINATE_TYPE>
1
5
255
> <PUBCHEM_BONDANNOTATIONS>
23  1  5
14  24  6
3  15  5
34  35  1
37  38  1
4  50  6
40  41  1
43  44  1
5  51  5
6  52  6
7  53  6
9  19  5
$$$$
