512853
  -OEChem-10302200282D
 72 73  0     1  0  0  0  0  0999 V2000
    9.9605   -0.6559    0.0000 S   0  0  0  0  0  0  0  0  0  0  0  0
    9.7331   -2.8195    0.0000 O   0  0  0  0  0  0  0  0  0  0  0  0
    6.5172   -1.3877    0.0000 O   0  0  0  0  0  0  0  0  0  0  0  0
   12.5585    1.8441    0.0000 O   0  0  0  0  0  0  0  0  0  0  0  0
    8.0118   -2.3583    0.0000 N   0  0  0  0  0  0  0  0  0  0  0  0
   10.8265    1.8441    0.0000 N   0  0  0  0  0  0  0  0  0  0  0  0
    6.6105   -3.3764    0.0000 C   0  0  0  0  0  0  0  0  0  0  0  0
    7.6050   -3.2718    0.0000 C   0  0  0  0  0  0  0  0  0  0  0  0
    6.2038   -4.2899    0.0000 C   0  0  0  0  0  0  0  0  0  0  0  0
    9.0944   -1.1559    0.0000 C   0  0  3  0  0  0  0  0  0  0  0  0
    5.2092   -4.3944    0.0000 C   0  0  0  0  0  0  0  0  0  0  0  0
    8.1809   -0.7491    0.0000 C   0  0  0  0  0  0  0  0  0  0  0  0
    4.8025   -5.3080    0.0000 C   0  0  0  0  0  0  0  0  0  0  0  0
    8.9899   -2.1504    0.0000 C   0  0  0  0  0  0  0  0  0  0  0  0
    7.5118   -1.4923    0.0000 C   0  0  0  0  0  0  0  0  0  0  0  0
    3.8080   -5.4125    0.0000 C   0  0  0  0  0  0  0  0  0  0  0  0
    3.4013   -6.3261    0.0000 C   0  0  0  0  0  0  0  0  0  0  0  0
   11.6925    6.3441    0.0000 C   0  0  0  0  0  0  0  0  0  0  0  0
    2.4067   -6.4306    0.0000 C   0  0  0  0  0  0  0  0  0  0  0  0
    9.9605    0.3441    0.0000 C   0  0  0  0  0  0  0  0  0  0  0  0
   11.6925    5.3441    0.0000 C   0  0  0  0  0  0  0  0  0  0  0  0
   11.6925    7.3441    0.0000 C   0  0  0  0  0  0  0  0  0  0  0  0
   12.6925    6.3441    0.0000 C   0  0  0  0  0  0  0  0  0  0  0  0
   10.6925    6.3441    0.0000 C   0  0  0  0  0  0  0  0  0  0  0  0
   10.8265    0.8441    0.0000 C   0  0  0  0  0  0  0  0  0  0  0  0
   10.8265    4.8441    0.0000 C   0  0  0  0  0  0  0  0  0  0  0  0
   12.5585    4.8441    0.0000 C   0  0  0  0  0  0  0  0  0  0  0  0
    2.0000   -7.3441    0.0000 C   0  0  0  0  0  0  0  0  0  0  0  0
   11.6925    3.3441    0.0000 C   0  0  0  0  0  0  0  0  0  0  0  0
   10.8265    3.8441    0.0000 C   0  0  0  0  0  0  0  0  0  0  0  0
   12.5585    3.8441    0.0000 C   0  0  0  0  0  0  0  0  0  0  0  0
   11.6925    2.3441    0.0000 C   0  0  0  0  0  0  0  0  0  0  0  0
    6.6538   -2.7579    0.0000 H   0  0  0  0  0  0  0  0  0  0  0  0
    6.0089   -3.2264    0.0000 H   0  0  0  0  0  0  0  0  0  0  0  0
    7.5618   -3.8903    0.0000 H   0  0  0  0  0  0  0  0  0  0  0  0
    8.2066   -3.4218    0.0000 H   0  0  0  0  0  0  0  0  0  0  0  0
    6.1605   -4.9084    0.0000 H   0  0  0  0  0  0  0  0  0  0  0  0
    6.8054   -4.4399    0.0000 H   0  0  0  0  0  0  0  0  0  0  0  0
    9.6144   -1.4935    0.0000 H   0  0  0  0  0  0  0  0  0  0  0  0
    5.2525   -3.7760    0.0000 H   0  0  0  0  0  0  0  0  0  0  0  0
    4.6077   -4.2444    0.0000 H   0  0  0  0  0  0  0  0  0  0  0  0
    8.4909   -0.2122    0.0000 H   0  0  0  0  0  0  0  0  0  0  0  0
    7.6793   -0.3847    0.0000 H   0  0  0  0  0  0  0  0  0  0  0  0
    4.7593   -5.9265    0.0000 H   0  0  0  0  0  0  0  0  0  0  0  0
    5.4041   -5.4580    0.0000 H   0  0  0  0  0  0  0  0  0  0  0  0
    3.8512   -4.7940    0.0000 H   0  0  0  0  0  0  0  0  0  0  0  0
    3.2064   -5.2625    0.0000 H   0  0  0  0  0  0  0  0  0  0  0  0
    3.3580   -6.9446    0.0000 H   0  0  0  0  0  0  0  0  0  0  0  0
    4.0028   -6.4761    0.0000 H   0  0  0  0  0  0  0  0  0  0  0  0
    2.4500   -5.8121    0.0000 H   0  0  0  0  0  0  0  0  0  0  0  0
    1.8052   -6.2806    0.0000 H   0  0  0  0  0  0  0  0  0  0  0  0
    9.7484    0.9267    0.0000 H   0  0  0  0  0  0  0  0  0  0  0  0
    9.3499    0.2365    0.0000 H   0  0  0  0  0  0  0  0  0  0  0  0
   12.3125    7.3441    0.0000 H   0  0  0  0  0  0  0  0  0  0  0  0
   11.6925    7.9641    0.0000 H   0  0  0  0  0  0  0  0  0  0  0  0
   11.0725    7.3441    0.0000 H   0  0  0  0  0  0  0  0  0  0  0  0
   12.6925    5.7241    0.0000 H   0  0  0  0  0  0  0  0  0  0  0  0
   13.3125    6.3441    0.0000 H   0  0  0  0  0  0  0  0  0  0  0  0
   12.6925    6.9641    0.0000 H   0  0  0  0  0  0  0  0  0  0  0  0
   10.6925    6.9641    0.0000 H   0  0  0  0  0  0  0  0  0  0  0  0
   10.0725    6.3441    0.0000 H   0  0  0  0  0  0  0  0  0  0  0  0
   10.6925    5.7241    0.0000 H   0  0  0  0  0  0  0  0  0  0  0  0
   11.0386    0.2615    0.0000 H   0  0  0  0  0  0  0  0  0  0  0  0
   11.4371    0.9518    0.0000 H   0  0  0  0  0  0  0  0  0  0  0  0
   10.2896    5.1541    0.0000 H   0  0  0  0  0  0  0  0  0  0  0  0
   13.0955    5.1541    0.0000 H   0  0  0  0  0  0  0  0  0  0  0  0
    1.4336   -7.0920    0.0000 H   0  0  0  0  0  0  0  0  0  0  0  0
    1.7478   -7.9105    0.0000 H   0  0  0  0  0  0  0  0  0  0  0  0
    2.5664   -7.5963    0.0000 H   0  0  0  0  0  0  0  0  0  0  0  0
   10.2896    2.1541    0.0000 H   0  0  0  0  0  0  0  0  0  0  0  0
   10.2896    3.5341    0.0000 H   0  0  0  0  0  0  0  0  0  0  0  0
   13.0955    3.5341    0.0000 H   0  0  0  0  0  0  0  0  0  0  0  0
  1 10  1  0  0  0  0
  1 20  1  0  0  0  0
  2 14  2  0  0  0  0
  3 15  2  0  0  0  0
  4 32  2  0  0  0  0
  5  8  1  0  0  0  0
  5 14  1  0  0  0  0
  5 15  1  0  0  0  0
  6 25  1  0  0  0  0
  6 32  1  0  0  0  0
  6 70  1  0  0  0  0
  7  8  1  0  0  0  0
  7  9  1  0  0  0  0
  7 33  1  0  0  0  0
  7 34  1  0  0  0  0
  8 35  1  0  0  0  0
  8 36  1  0  0  0  0
  9 11  1  0  0  0  0
  9 37  1  0  0  0  0
  9 38  1  0  0  0  0
 10 12  1  0  0  0  0
 10 14  1  0  0  0  0
 10 39  1  0  0  0  0
 11 13  1  0  0  0  0
 11 40  1  0  0  0  0
 11 41  1  0  0  0  0
 12 15  1  0  0  0  0
 12 42  1  0  0  0  0
 12 43  1  0  0  0  0
 13 16  1  0  0  0  0
 13 44  1  0  0  0  0
 13 45  1  0  0  0  0
 16 17  1  0  0  0  0
 16 46  1  0  0  0  0
 16 47  1  0  0  0  0
 17 19  1  0  0  0  0
 17 48  1  0  0  0  0
 17 49  1  0  0  0  0
 18 21  1  0  0  0  0
 18 22  1  0  0  0  0
 18 23  1  0  0  0  0
 18 24  1  0  0  0  0
 19 28  1  0  0  0  0
 19 50  1  0  0  0  0
 19 51  1  0  0  0  0
 20 25  1  0  0  0  0
 20 52  1  0  0  0  0
 20 53  1  0  0  0  0
 21 26  2  0  0  0  0
 21 27  1  0  0  0  0
 22 54  1  0  0  0  0
 22 55  1  0  0  0  0
 22 56  1  0  0  0  0
 23 57  1  0  0  0  0
 23 58  1  0  0  0  0
 23 59  1  0  0  0  0
 24 60  1  0  0  0  0
 24 61  1  0  0  0  0
 24 62  1  0  0  0  0
 25 63  1  0  0  0  0
 25 64  1  0  0  0  0
 26 30  1  0  0  0  0
 26 65  1  0  0  0  0
 27 31  2  0  0  0  0
 27 66  1  0  0  0  0
 28 67  1  0  0  0  0
 28 68  1  0  0  0  0
 28 69  1  0  0  0  0
 29 30  2  0  0  0  0
 29 31  1  0  0  0  0
 29 32  1  0  0  0  0
 30 71  1  0  0  0  0
 31 72  1  0  0  0  0
M  END
> <PUBCHEM_COMPOUND_CID>
512853
> <PUBCHEM_COMPOUND_CANONICALIZED>
1
> <PUBCHEM_CACTVS_COMPLEXITY>
609
> <PUBCHEM_CACTVS_HBOND_ACCEPTOR>
4
> <PUBCHEM_CACTVS_HBOND_DONOR>
1
> <PUBCHEM_CACTVS_ROTATABLE_BOND>
14
> <PUBCHEM_CACTVS_SUBSKEYS>
AAADcfB7MABAAAAAAAAAAAAAAAAAAWAAAAAwAAAAAAAAAAABAAAAHgQQAAAADgDF2ASyAIPAAAiIAiFSEACCAAAkABAIiIEIBMgIIDKglRGEIQhgliCoiYcdiMCPwAAAAAAAAACAAAAAAAAAAAAAAAAAAA==
> <PUBCHEM_IUPAC_OPENEYE_NAME>
4-tert-butyl-N-[2-(1-nonyl-2,5-dioxo-pyrrolidin-3-yl)sulfanylethyl]benzamide
> <PUBCHEM_IUPAC_CAS_NAME>
4-tert-butyl-N-[2-[(1-nonyl-2,5-dioxo-3-pyrrolidinyl)thio]ethyl]benzamide
> <PUBCHEM_IUPAC_NAME_MARKUP>
4-<I>tert</I>-butyl-<I>N</I>-[2-(1-nonyl-2,5-dioxopyrrolidin-3-yl)sulfanylethyl]benzamide
> <PUBCHEM_IUPAC_NAME>
4-tert-butyl-N-[2-(1-nonyl-2,5-dioxopyrrolidin-3-yl)sulfanylethyl]benzamide
> <PUBCHEM_IUPAC_SYSTEMATIC_NAME>
4-tert-butyl-N-[2-[1-nonyl-2,5-bis(oxidanylidene)pyrrolidin-3-yl]sulfanylethyl]benzamide
> <PUBCHEM_IUPAC_TRADITIONAL_NAME>
4-tert-butyl-N-[2-[(2,5-diketo-1-nonyl-pyrrolidin-3-yl)thio]ethyl]benzamide
> <PUBCHEM_IUPAC_INCHI>
InChI=1S/C26H40N2O3S/c1-5-6-7-8-9-10-11-17-28-23(29)19-22(25(28)31)32-18-16-27-24(30)20-12-14-21(15-13-20)26(2,3)4/h12-15,22H,5-11,16-19H2,1-4H3,(H,27,30)
> <PUBCHEM_IUPAC_INCHIKEY>
OGJLRZKHFZOZED-UHFFFAOYSA-N
> <PUBCHEM_XLOGP3_AA>
6.5
> <PUBCHEM_EXACT_MASS>
460.27596432
> <PUBCHEM_MOLECULAR_FORMULA>
C26H40N2O3S
> <PUBCHEM_MOLECULAR_WEIGHT>
460.7
> <PUBCHEM_OPENEYE_CAN_SMILES>
CCCCCCCCCN1C(=O)CC(C1=O)SCCNC(=O)C2=CC=C(C=C2)C(C)(C)C
> <PUBCHEM_OPENEYE_ISO_SMILES>
CCCCCCCCCN1C(=O)CC(C1=O)SCCNC(=O)C2=CC=C(C=C2)C(C)(C)C
> <PUBCHEM_CACTVS_TPSA>
91.8
> <PUBCHEM_MONOISOTOPIC_WEIGHT>
460.27596432
> <PUBCHEM_TOTAL_CHARGE>
0
> <PUBCHEM_HEAVY_ATOM_COUNT>
32
> <PUBCHEM_ATOM_DEF_STEREO_COUNT>
0
> <PUBCHEM_ATOM_UDEF_STEREO_COUNT>
1
> <PUBCHEM_BOND_DEF_STEREO_COUNT>
0
> <PUBCHEM_BOND_UDEF_STEREO_COUNT>
0
> <PUBCHEM_ISOTOPIC_ATOM_COUNT>
0
> <PUBCHEM_COMPONENT_COUNT>
1
> <PUBCHEM_CACTVS_TAUTO_COUNT>
-1
> <PUBCHEM_COORDINATE_TYPE>
1
5
255
> <PUBCHEM_BONDANNOTATIONS>
10  1  3
21  26  8
21  27  8
26  30  8
27  31  8
29  30  8
29  31  8
$$$$
