512990
  -OEChem-10302200282D
 96 96  0     1  0  0  0  0  0999 V2000
   11.5263    2.2306    0.0000 O   0  0  0  0  0  0  0  0  0  0  0  0
    8.0622    2.2306    0.0000 O   0  0  0  0  0  0  0  0  0  0  0  0
   11.5263    1.2306    0.0000 O   0  0  0  0  0  0  0  0  0  0  0  0
    5.4641   -0.2694    0.0000 O   0  0  0  0  0  0  0  0  0  0  0  0
   12.3923   -2.2694    0.0000 O   0  0  0  0  0  0  0  0  0  0  0  0
    9.7942   -4.7694    0.0000 O   0  0  0  0  0  0  0  0  0  0  0  0
    8.9282   -3.2694    0.0000 O   0  0  0  0  0  0  0  0  0  0  0  0
   14.1244   -0.2694    0.0000 O   0  0  0  0  0  0  0  0  0  0  0  0
    2.8660    2.2306    0.0000 O   0  0  0  0  0  0  0  0  0  0  0  0
   13.2583   -1.7694    0.0000 O   0  0  0  0  0  0  0  0  0  0  0  0
   10.6603    3.7306    0.0000 N   0  0  0  0  0  0  0  0  0  0  0  0
    8.9282    0.7306    0.0000 N   0  0  0  0  0  0  0  0  0  0  0  0
    6.3301    1.2306    0.0000 N   0  0  0  0  0  0  0  0  0  0  0  0
   10.6603   -0.2694    0.0000 N   0  0  0  0  0  0  0  0  0  0  0  0
    3.7320    0.7306    0.0000 N   0  0  0  0  0  0  0  0  0  0  0  0
   10.6603   -2.2694    0.0000 N   0  0  0  0  0  0  0  0  0  0  0  0
   11.4693    4.3184    0.0000 C   0  0  0  0  0  0  0  0  0  0  0  0
    9.8512    4.3184    0.0000 C   0  0  0  0  0  0  0  0  0  0  0  0
   11.1603    5.2694    0.0000 C   0  0  0  0  0  0  0  0  0  0  0  0
   10.1603    5.2694    0.0000 C   0  0  0  0  0  0  0  0  0  0  0  0
    9.7942    1.2306    0.0000 C   0  0  1  0  0  0  0  0  0  0  0  0
    9.7942    2.2306    0.0000 C   0  0  0  0  0  0  0  0  0  0  0  0
   10.6603    2.7306    0.0000 C   0  0  0  0  0  0  0  0  0  0  0  0
    7.1962    0.7306    0.0000 C   0  0  1  0  0  0  0  0  0  0  0  0
    7.1962   -0.2694    0.0000 C   0  0  0  0  0  0  0  0  0  0  0  0
    8.0622    1.2306    0.0000 C   0  0  0  0  0  0  0  0  0  0  0  0
   10.6603    0.7306    0.0000 C   0  0  0  0  0  0  0  0  0  0  0  0
    4.5981    1.2306    0.0000 C   0  0  1  0  0  0  0  0  0  0  0  0
    4.5981    2.2306    0.0000 C   0  0  0  0  0  0  0  0  0  0  0  0
    5.4641    0.7306    0.0000 C   0  0  0  0  0  0  0  0  0  0  0  0
   11.5263   -0.7694    0.0000 C   0  0  2  0  0  0  0  0  0  0  0  0
    6.3301   -0.7694    0.0000 C   0  0  0  0  0  0  0  0  0  0  0  0
    8.0622   -0.7694    0.0000 C   0  0  0  0  0  0  0  0  0  0  0  0
   10.6603   -3.2694    0.0000 C   0  0  1  0  0  0  0  0  0  0  0  0
   11.5263   -3.7694    0.0000 C   0  0  0  0  0  0  0  0  0  0  0  0
   11.5263   -4.7694    0.0000 C   0  0  0  0  0  0  0  0  0  0  0  0
   11.5263   -1.7694    0.0000 C   0  0  0  0  0  0  0  0  0  0  0  0
   12.3923   -0.2694    0.0000 C   0  0  0  0  0  0  0  0  0  0  0  0
    3.7320    2.7306    0.0000 C   0  0  0  0  0  0  0  0  0  0  0  0
    5.4641    2.7306    0.0000 C   0  0  0  0  0  0  0  0  0  0  0  0
   12.3923   -5.2694    0.0000 C   0  0  0  0  0  0  0  0  0  0  0  0
   10.6603   -5.2694    0.0000 C   0  0  0  0  0  0  0  0  0  0  0  0
    9.7942   -3.7694    0.0000 C   0  0  0  0  0  0  0  0  0  0  0  0
    2.8660    1.2306    0.0000 C   0  0  0  0  0  0  0  0  0  0  0  0
   13.2583   -0.7694    0.0000 C   0  0  0  0  0  0  0  0  0  0  0  0
    2.0000    0.7306    0.0000 C   0  0  0  0  0  0  0  0  0  0  0  0
   11.7793    3.7814    0.0000 H   0  0  0  0  0  0  0  0  0  0  0  0
   12.0357    4.5705    0.0000 H   0  0  0  0  0  0  0  0  0  0  0  0
    9.2848    4.5705    0.0000 H   0  0  0  0  0  0  0  0  0  0  0  0
    9.5412    3.7814    0.0000 H   0  0  0  0  0  0  0  0  0  0  0  0
   11.7667    5.3983    0.0000 H   0  0  0  0  0  0  0  0  0  0  0  0
   11.0954    5.8860    0.0000 H   0  0  0  0  0  0  0  0  0  0  0  0
   10.2251    5.8860    0.0000 H   0  0  0  0  0  0  0  0  0  0  0  0
    9.5538    5.3983    0.0000 H   0  0  0  0  0  0  0  0  0  0  0  0
    9.2573    1.5406    0.0000 H   0  0  0  0  0  0  0  0  0  0  0  0
    9.5822    2.8132    0.0000 H   0  0  0  0  0  0  0  0  0  0  0  0
    9.1836    2.1229    0.0000 H   0  0  0  0  0  0  0  0  0  0  0  0
    7.1962    1.3506    0.0000 H   0  0  0  0  0  0  0  0  0  0  0  0
    6.6592    0.0406    0.0000 H   0  0  0  0  0  0  0  0  0  0  0  0
    8.9282    0.1106    0.0000 H   0  0  0  0  0  0  0  0  0  0  0  0
    4.5981    0.6106    0.0000 H   0  0  0  0  0  0  0  0  0  0  0  0
    6.3301    1.8506    0.0000 H   0  0  0  0  0  0  0  0  0  0  0  0
    4.5981    2.8506    0.0000 H   0  0  0  0  0  0  0  0  0  0  0  0
   10.9893   -1.0794    0.0000 H   0  0  0  0  0  0  0  0  0  0  0  0
    6.0201   -0.2325    0.0000 H   0  0  0  0  0  0  0  0  0  0  0  0
    5.7932   -1.0794    0.0000 H   0  0  0  0  0  0  0  0  0  0  0  0
    6.6401   -1.3064    0.0000 H   0  0  0  0  0  0  0  0  0  0  0  0
    7.7522   -1.3064    0.0000 H   0  0  0  0  0  0  0  0  0  0  0  0
    8.5991   -1.0794    0.0000 H   0  0  0  0  0  0  0  0  0  0  0  0
    8.3722   -0.2325    0.0000 H   0  0  0  0  0  0  0  0  0  0  0  0
   10.1233   -0.5794    0.0000 H   0  0  0  0  0  0  0  0  0  0  0  0
   12.1369   -3.8771    0.0000 H   0  0  0  0  0  0  0  0  0  0  0  0
   11.7383   -3.1868    0.0000 H   0  0  0  0  0  0  0  0  0  0  0  0
   11.1972   -2.9594    0.0000 H   0  0  0  0  0  0  0  0  0  0  0  0
   12.0632   -4.4594    0.0000 H   0  0  0  0  0  0  0  0  0  0  0  0
   12.7908    0.2055    0.0000 H   0  0  0  0  0  0  0  0  0  0  0  0
   11.9938    0.2055    0.0000 H   0  0  0  0  0  0  0  0  0  0  0  0
    4.0420    3.2675    0.0000 H   0  0  0  0  0  0  0  0  0  0  0  0
    3.1951    3.0406    0.0000 H   0  0  0  0  0  0  0  0  0  0  0  0
    3.4220    2.1936    0.0000 H   0  0  0  0  0  0  0  0  0  0  0  0
    5.7741    2.1936    0.0000 H   0  0  0  0  0  0  0  0  0  0  0  0
    6.0010    3.0406    0.0000 H   0  0  0  0  0  0  0  0  0  0  0  0
    5.1541    3.2675    0.0000 H   0  0  0  0  0  0  0  0  0  0  0  0
    3.7320    0.1106    0.0000 H   0  0  0  0  0  0  0  0  0  0  0  0
   10.1233   -1.9594    0.0000 H   0  0  0  0  0  0  0  0  0  0  0  0
   12.0823   -5.8064    0.0000 H   0  0  0  0  0  0  0  0  0  0  0  0
   12.9292   -5.5794    0.0000 H   0  0  0  0  0  0  0  0  0  0  0  0
   12.7023   -4.7325    0.0000 H   0  0  0  0  0  0  0  0  0  0  0  0
   10.3503   -4.7325    0.0000 H   0  0  0  0  0  0  0  0  0  0  0  0
   10.1233   -5.5794    0.0000 H   0  0  0  0  0  0  0  0  0  0  0  0
   10.9703   -5.8064    0.0000 H   0  0  0  0  0  0  0  0  0  0  0  0
    1.6900    1.2675    0.0000 H   0  0  0  0  0  0  0  0  0  0  0  0
    1.4631    0.4206    0.0000 H   0  0  0  0  0  0  0  0  0  0  0  0
    2.3100    0.1936    0.0000 H   0  0  0  0  0  0  0  0  0  0  0  0
    9.2573   -5.0794    0.0000 H   0  0  0  0  0  0  0  0  0  0  0  0
   14.6613   -0.5794    0.0000 H   0  0  0  0  0  0  0  0  0  0  0  0
  1 23  2  0  0  0  0
  2 26  2  0  0  0  0
  3 27  2  0  0  0  0
  4 30  2  0  0  0  0
  5 37  2  0  0  0  0
  6 43  1  0  0  0  0
  6 95  1  0  0  0  0
  7 43  2  0  0  0  0
  8 45  1  0  0  0  0
  8 96  1  0  0  0  0
  9 44  2  0  0  0  0
 10 45  2  0  0  0  0
 11 17  1  0  0  0  0
 11 18  1  0  0  0  0
 11 23  1  0  0  0  0
 21 12  1  1  0  0  0
 12 26  1  0  0  0  0
 12 60  1  0  0  0  0
 24 13  1  6  0  0  0
 13 30  1  0  0  0  0
 13 62  1  0  0  0  0
 14 27  1  0  0  0  0
 31 14  1  1  0  0  0
 14 71  1  0  0  0  0
 28 15  1  1  0  0  0
 15 44  1  0  0  0  0
 15 84  1  0  0  0  0
 34 16  1  1  0  0  0
 16 37  1  0  0  0  0
 16 85  1  0  0  0  0
 17 19  1  0  0  0  0
 17 47  1  0  0  0  0
 17 48  1  0  0  0  0
 18 20  1  0  0  0  0
 18 49  1  0  0  0  0
 18 50  1  0  0  0  0
 19 20  1  0  0  0  0
 19 51  1  0  0  0  0
 19 52  1  0  0  0  0
 20 53  1  0  0  0  0
 20 54  1  0  0  0  0
 21 22  1  0  0  0  0
 21 27  1  0  0  0  0
 21 55  1  0  0  0  0
 22 23  1  0  0  0  0
 22 56  1  0  0  0  0
 22 57  1  0  0  0  0
 24 25  1  0  0  0  0
 24 26  1  0  0  0  0
 24 58  1  0  0  0  0
 25 32  1  0  0  0  0
 25 33  1  0  0  0  0
 25 59  1  0  0  0  0
 28 29  1  0  0  0  0
 28 30  1  0  0  0  0
 28 61  1  0  0  0  0
 29 39  1  0  0  0  0
 29 40  1  0  0  0  0
 29 63  1  0  0  0  0
 31 37  1  0  0  0  0
 31 38  1  0  0  0  0
 31 64  1  0  0  0  0
 32 65  1  0  0  0  0
 32 66  1  0  0  0  0
 32 67  1  0  0  0  0
 33 68  1  0  0  0  0
 33 69  1  0  0  0  0
 33 70  1  0  0  0  0
 34 35  1  0  0  0  0
 34 43  1  0  0  0  0
 34 74  1  0  0  0  0
 35 36  1  0  0  0  0
 35 72  1  0  0  0  0
 35 73  1  0  0  0  0
 36 41  1  0  0  0  0
 36 42  1  0  0  0  0
 36 75  1  0  0  0  0
 38 45  1  0  0  0  0
 38 76  1  0  0  0  0
 38 77  1  0  0  0  0
 39 78  1  0  0  0  0
 39 79  1  0  0  0  0
 39 80  1  0  0  0  0
 40 81  1  0  0  0  0
 40 82  1  0  0  0  0
 40 83  1  0  0  0  0
 41 86  1  0  0  0  0
 41 87  1  0  0  0  0
 41 88  1  0  0  0  0
 42 89  1  0  0  0  0
 42 90  1  0  0  0  0
 42 91  1  0  0  0  0
 44 46  1  0  0  0  0
 46 92  1  0  0  0  0
 46 93  1  0  0  0  0
 46 94  1  0  0  0  0
M  END
> <PUBCHEM_COMPOUND_CID>
512990
> <PUBCHEM_COMPOUND_CANONICALIZED>
1
> <PUBCHEM_CACTVS_COMPLEXITY>
1140
> <PUBCHEM_CACTVS_HBOND_ACCEPTOR>
10
> <PUBCHEM_CACTVS_HBOND_DONOR>
7
> <PUBCHEM_CACTVS_ROTATABLE_BOND>
18
> <PUBCHEM_CACTVS_SUBSKEYS>
AAADcfB7vAAAAAAAAAAAAAAAAAAAAWAAAAAAAAAAAAAAAAAAAAAAHgAQCAAADSjBgAQCCAPAAgAIAAGQGAAAAAAAAAAAAIGIAAACQBoAwCAUQAAGFgCQAACvAAAMAAAAAAAAAAAAAAAAAAAAAAAAAAAAAA==
> <PUBCHEM_IUPAC_OPENEYE_NAME>
(2S)-2-[[(2S)-2-[[(2S)-2-[[(2S)-2-[[(2S)-2-acetamido-3-methyl-butanoyl]amino]-3-methyl-butanoyl]amino]-4-oxo-4-pyrrolidin-1-yl-butanoyl]amino]-3-carboxy-propanoyl]amino]-4-methyl-pentanoic acid
> <PUBCHEM_IUPAC_CAS_NAME>
(2S)-2-[[(2S)-2-[[(2S)-2-[[(2S)-2-[[(2S)-2-acetamido-3-methyl-1-oxobutyl]amino]-3-methyl-1-oxobutyl]amino]-1,4-dioxo-4-(1-pyrrolidinyl)butyl]amino]-3-carboxy-1-oxopropyl]amino]-4-methylpentanoic acid
> <PUBCHEM_IUPAC_NAME_MARKUP>
(2<I>S</I>)-2-[[(2<I>S</I>)-2-[[(2<I>S</I>)-2-[[(2<I>S</I>)-2-[[(2<I>S</I>)-2-acetamido-3-methylbutanoyl]amino]-3-methylbutanoyl]amino]-4-oxo-4-pyrrolidin-1-ylbutanoyl]amino]-3-carboxypropanoyl]amino]-4-methylpentanoic acid
> <PUBCHEM_IUPAC_NAME>
(2S)-2-[[(2S)-2-[[(2S)-2-[[(2S)-2-[[(2S)-2-acetamido-3-methylbutanoyl]amino]-3-methylbutanoyl]amino]-4-oxo-4-pyrrolidin-1-ylbutanoyl]amino]-3-carboxypropanoyl]amino]-4-methylpentanoic acid
> <PUBCHEM_IUPAC_SYSTEMATIC_NAME>
(2S)-2-[[(2S)-2-[[(2S)-2-[[(2S)-2-[[(2S)-2-acetamido-3-methyl-butanoyl]amino]-3-methyl-butanoyl]amino]-4-oxidanylidene-4-pyrrolidin-1-yl-butanoyl]amino]-4-oxidanyl-4-oxidanylidene-butanoyl]amino]-4-methyl-pentanoic acid
> <PUBCHEM_IUPAC_TRADITIONAL_NAME>
(2S)-2-[[(2S)-2-[[(2S)-2-[[(2S)-2-[[(2S)-2-acetamido-3-methyl-butanoyl]amino]-3-methyl-butanoyl]amino]-4-keto-4-pyrrolidino-butanoyl]amino]-3-carboxy-propanoyl]amino]-4-methyl-valeric acid
> <PUBCHEM_IUPAC_INCHI>
InChI=1S/C30H50N6O10/c1-15(2)12-21(30(45)46)34-27(42)20(14-23(39)40)32-26(41)19(13-22(38)36-10-8-9-11-36)33-28(43)25(17(5)6)35-29(44)24(16(3)4)31-18(7)37/h15-17,19-21,24-25H,8-14H2,1-7H3,(H,31,37)(H,32,41)(H,33,43)(H,34,42)(H,35,44)(H,39,40)(H,45,46)/t19-,20-,21-,24-,25-/m0/s1
> <PUBCHEM_IUPAC_INCHIKEY>
AQBCDIPFESZHSZ-KKYXJMJZSA-N
> <PUBCHEM_XLOGP3_AA>
0.5
> <PUBCHEM_EXACT_MASS>
654.35884181
> <PUBCHEM_MOLECULAR_FORMULA>
C30H50N6O10
> <PUBCHEM_MOLECULAR_WEIGHT>
654.8
> <PUBCHEM_OPENEYE_CAN_SMILES>
CC(C)CC(C(=O)O)NC(=O)C(CC(=O)O)NC(=O)C(CC(=O)N1CCCC1)NC(=O)C(C(C)C)NC(=O)C(C(C)C)NC(=O)C
> <PUBCHEM_OPENEYE_ISO_SMILES>
CC(C)C[C@@H](C(=O)O)NC(=O)[C@H](CC(=O)O)NC(=O)[C@H](CC(=O)N1CCCC1)NC(=O)[C@H](C(C)C)NC(=O)[C@H](C(C)C)NC(=O)C
> <PUBCHEM_CACTVS_TPSA>
240
> <PUBCHEM_MONOISOTOPIC_WEIGHT>
654.35884181
> <PUBCHEM_TOTAL_CHARGE>
0
> <PUBCHEM_HEAVY_ATOM_COUNT>
46
> <PUBCHEM_ATOM_DEF_STEREO_COUNT>
5
> <PUBCHEM_ATOM_UDEF_STEREO_COUNT>
0
> <PUBCHEM_BOND_DEF_STEREO_COUNT>
0
> <PUBCHEM_BOND_UDEF_STEREO_COUNT>
0
> <PUBCHEM_ISOTOPIC_ATOM_COUNT>
0
> <PUBCHEM_COMPONENT_COUNT>
1
> <PUBCHEM_CACTVS_TAUTO_COUNT>
-1
> <PUBCHEM_COORDINATE_TYPE>
1
5
255
> <PUBCHEM_BONDANNOTATIONS>
21  12  5
24  13  6
31  14  5
28  15  5
34  16  5
$$$$
