512917
  -OEChem-10302200282D
 90 95  0     1  0  0  0  0  0999 V2000
   15.5351   -1.4498    0.0000 Cl  0  0  0  0  0  0  0  0  0  0  0  0
   12.4603    4.0843    0.0000 F   0  0  0  0  0  0  0  0  0  0  0  0
   11.0942    4.4503    0.0000 F   0  0  0  0  0  0  0  0  0  0  0  0
   12.0942    2.7183    0.0000 F   0  0  0  0  0  0  0  0  0  0  0  0
    7.2641   -0.9157    0.0000 O   0  0  0  0  0  0  0  0  0  0  0  0
    8.9962    2.0843    0.0000 O   0  0  0  0  0  0  0  0  0  0  0  0
   13.3680   -1.3208    0.0000 O   0  0  0  0  0  0  0  0  0  0  0  0
    4.6660   -4.4157    0.0000 O   0  0  0  0  0  0  0  0  0  0  0  0
    6.3981   -1.4157    0.0000 O   0  0  0  0  0  0  0  0  0  0  0  0
    6.3981   -2.4157    0.0000 O   0  0  0  0  0  0  0  0  0  0  0  0
    8.9962    0.0843    0.0000 N   0  0  3  0  0  0  0  0  0  0  0  0
   10.7282   -0.9157    0.0000 N   0  0  3  0  0  0  0  0  0  0  0  0
   10.7282    2.0843    0.0000 N   0  0  0  0  0  0  0  0  0  0  0  0
    4.6660   -1.4157    0.0000 N   0  0  0  0  0  0  0  0  0  0  0  0
    3.8000    3.0843    0.0000 N   0  0  0  0  0  0  0  0  0  0  0  0
    9.8622    0.5843    0.0000 C   0  0  1  0  0  0  0  0  0  0  0  0
   10.7282    0.0843    0.0000 C   0  0  0  0  0  0  0  0  0  0  0  0
    8.9962   -0.9157    0.0000 C   0  0  0  0  0  0  0  0  0  0  0  0
    8.1301    0.5843    0.0000 C   0  0  0  0  0  0  0  0  0  0  0  0
    9.8622   -1.4157    0.0000 C   0  0  0  0  0  0  0  0  0  0  0  0
    7.2641    0.0843    0.0000 C   0  0  2  0  0  0  0  0  0  0  0  0
    6.3981    0.5843    0.0000 C   0  0  0  0  0  0  0  0  0  0  0  0
    5.5321    0.0843    0.0000 C   0  0  1  0  0  0  0  0  0  0  0  0
   11.5942   -1.4157    0.0000 C   0  0  0  0  0  0  0  0  0  0  0  0
    9.8622    1.5843    0.0000 C   0  0  0  0  0  0  0  0  0  0  0  0
    4.6660    0.5843    0.0000 C   0  0  0  0  0  0  0  0  0  0  0  0
    5.5321   -0.9157    0.0000 C   0  0  0  0  0  0  0  0  0  0  0  0
    4.6660   -2.4157    0.0000 C   0  0  3  0  0  0  0  0  0  0  0  0
   12.4603   -0.9157    0.0000 C   0  0  0  0  0  0  0  0  0  0  0  0
    5.5321   -2.9157    0.0000 C   0  0  1  0  0  0  0  0  0  0  0  0
    4.6660    1.5843    0.0000 C   0  0  0  0  0  0  0  0  0  0  0  0
    3.8000   -2.9157    0.0000 C   0  0  0  0  0  0  0  0  0  0  0  0
   12.5633    0.0730    0.0000 C   0  0  0  0  0  0  0  0  0  0  0  0
    5.5321   -3.9157    0.0000 C   0  0  0  0  0  0  0  0  0  0  0  0
   10.7282    3.0843    0.0000 C   0  0  0  0  0  0  0  0  0  0  0  0
    3.8000   -3.9157    0.0000 C   0  0  0  0  0  0  0  0  0  0  0  0
   13.5351    0.2822    0.0000 C   0  0  0  0  0  0  0  0  0  0  0  0
   14.0351   -0.5838    0.0000 C   0  0  0  0  0  0  0  0  0  0  0  0
    2.9061   -2.3810    0.0000 C   0  0  0  0  0  0  0  0  0  0  0  0
    5.5321    2.0843    0.0000 C   0  0  0  0  0  0  0  0  0  0  0  0
    3.8000    2.0843    0.0000 C   0  0  0  0  0  0  0  0  0  0  0  0
   11.5942    3.5843    0.0000 C   0  0  0  0  0  0  0  0  0  0  0  0
    2.9061   -4.4503    0.0000 C   0  0  0  0  0  0  0  0  0  0  0  0
   14.0351    1.1483    0.0000 C   0  0  0  0  0  0  0  0  0  0  0  0
    2.0000   -2.8949    0.0000 C   0  0  0  0  0  0  0  0  0  0  0  0
   15.0351   -0.5838    0.0000 C   0  0  0  0  0  0  0  0  0  0  0  0
    2.0000   -3.9365    0.0000 C   0  0  0  0  0  0  0  0  0  0  0  0
    5.5321    3.0843    0.0000 C   0  0  0  0  0  0  0  0  0  0  0  0
   15.0351    1.1483    0.0000 C   0  0  0  0  0  0  0  0  0  0  0  0
   15.5351    0.2822    0.0000 C   0  0  0  0  0  0  0  0  0  0  0  0
    4.6660    3.5843    0.0000 C   0  0  0  0  0  0  0  0  0  0  0  0
    9.3252    0.8943    0.0000 H   0  0  0  0  0  0  0  0  0  0  0  0
   11.3388   -0.0233    0.0000 H   0  0  0  0  0  0  0  0  0  0  0  0
   10.9403    0.6669    0.0000 H   0  0  0  0  0  0  0  0  0  0  0  0
    8.3856   -0.8080    0.0000 H   0  0  0  0  0  0  0  0  0  0  0  0
    8.7841   -1.4983    0.0000 H   0  0  0  0  0  0  0  0  0  0  0  0
    8.5287    1.0593    0.0000 H   0  0  0  0  0  0  0  0  0  0  0  0
    7.7316    1.0593    0.0000 H   0  0  0  0  0  0  0  0  0  0  0  0
    9.4637   -1.8906    0.0000 H   0  0  0  0  0  0  0  0  0  0  0  0
   10.2607   -1.8906    0.0000 H   0  0  0  0  0  0  0  0  0  0  0  0
    7.8010   -0.2257    0.0000 H   0  0  0  0  0  0  0  0  0  0  0  0
    6.7966    1.0593    0.0000 H   0  0  0  0  0  0  0  0  0  0  0  0
    5.9996    1.0593    0.0000 H   0  0  0  0  0  0  0  0  0  0  0  0
    5.5321    0.7043    0.0000 H   0  0  0  0  0  0  0  0  0  0  0  0
   11.1957   -1.8906    0.0000 H   0  0  0  0  0  0  0  0  0  0  0  0
   11.9928   -1.8906    0.0000 H   0  0  0  0  0  0  0  0  0  0  0  0
    4.0555    0.6920    0.0000 H   0  0  0  0  0  0  0  0  0  0  0  0
    4.4540    0.0017    0.0000 H   0  0  0  0  0  0  0  0  0  0  0  0
    4.1291   -2.1057    0.0000 H   0  0  0  0  0  0  0  0  0  0  0  0
    7.8010   -1.2257    0.0000 H   0  0  0  0  0  0  0  0  0  0  0  0
   11.2651    1.7743    0.0000 H   0  0  0  0  0  0  0  0  0  0  0  0
    4.1291   -1.1057    0.0000 H   0  0  0  0  0  0  0  0  0  0  0  0
    5.5321   -2.2957    0.0000 H   0  0  0  0  0  0  0  0  0  0  0  0
    5.7441   -4.4983    0.0000 H   0  0  0  0  0  0  0  0  0  0  0  0
    6.1426   -3.8080    0.0000 H   0  0  0  0  0  0  0  0  0  0  0  0
   12.1019    0.4871    0.0000 H   0  0  0  0  0  0  0  0  0  0  0  0
   10.5162    3.6669    0.0000 H   0  0  0  0  0  0  0  0  0  0  0  0
   10.1176    2.9767    0.0000 H   0  0  0  0  0  0  0  0  0  0  0  0
    2.9132   -1.7611    0.0000 H   0  0  0  0  0  0  0  0  0  0  0  0
    6.0690    1.7743    0.0000 H   0  0  0  0  0  0  0  0  0  0  0  0
    3.2631    1.7743    0.0000 H   0  0  0  0  0  0  0  0  0  0  0  0
    6.9350   -2.7257    0.0000 H   0  0  0  0  0  0  0  0  0  0  0  0
    2.9132   -5.0703    0.0000 H   0  0  0  0  0  0  0  0  0  0  0  0
   13.7251    1.6852    0.0000 H   0  0  0  0  0  0  0  0  0  0  0  0
    1.4643   -2.5828    0.0000 H   0  0  0  0  0  0  0  0  0  0  0  0
    1.4643   -4.2486    0.0000 H   0  0  0  0  0  0  0  0  0  0  0  0
    6.0690    3.3943    0.0000 H   0  0  0  0  0  0  0  0  0  0  0  0
   15.3451    1.6852    0.0000 H   0  0  0  0  0  0  0  0  0  0  0  0
   16.1551    0.2822    0.0000 H   0  0  0  0  0  0  0  0  0  0  0  0
    4.6660    4.2043    0.0000 H   0  0  0  0  0  0  0  0  0  0  0  0
  1 46  1  0  0  0  0
  2 42  1  0  0  0  0
  3 42  1  0  0  0  0
  4 42  1  0  0  0  0
 21  5  1  1  0  0  0
  5 70  1  0  0  0  0
  6 25  2  0  0  0  0
  7 29  1  0  0  0  0
  7 38  1  0  0  0  0
  8 34  1  0  0  0  0
  8 36  1  0  0  0  0
  9 27  2  0  0  0  0
 30 10  1  6  0  0  0
 10 82  1  0  0  0  0
 11 16  1  0  0  0  0
 11 18  1  0  0  0  0
 11 19  1  0  0  0  0
 12 17  1  0  0  0  0
 12 20  1  0  0  0  0
 12 24  1  0  0  0  0
 13 25  1  0  0  0  0
 13 35  1  0  0  0  0
 13 71  1  0  0  0  0
 14 27  1  0  0  0  0
 14 28  1  0  0  0  0
 14 72  1  0  0  0  0
 15 41  1  0  0  0  0
 15 51  2  0  0  0  0
 16 17  1  0  0  0  0
 16 25  1  6  0  0  0
 16 52  1  0  0  0  0
 17 53  1  0  0  0  0
 17 54  1  0  0  0  0
 18 20  1  0  0  0  0
 18 55  1  0  0  0  0
 18 56  1  0  0  0  0
 19 21  1  0  0  0  0
 19 57  1  0  0  0  0
 19 58  1  0  0  0  0
 20 59  1  0  0  0  0
 20 60  1  0  0  0  0
 21 22  1  0  0  0  0
 21 61  1  0  0  0  0
 23 22  1  6  0  0  0
 22 62  1  0  0  0  0
 22 63  1  0  0  0  0
 23 26  1  0  0  0  0
 23 27  1  0  0  0  0
 23 64  1  0  0  0  0
 24 29  1  0  0  0  0
 24 65  1  0  0  0  0
 24 66  1  0  0  0  0
 26 31  1  0  0  0  0
 26 67  1  0  0  0  0
 26 68  1  0  0  0  0
 28 30  1  0  0  0  0
 28 32  1  0  0  0  0
 28 69  1  0  0  0  0
 29 33  2  0  0  0  0
 30 34  1  0  0  0  0
 30 73  1  0  0  0  0
 31 40  1  0  0  0  0
 31 41  2  0  0  0  0
 32 36  1  0  0  0  0
 32 39  2  0  0  0  0
 33 37  1  0  0  0  0
 33 76  1  0  0  0  0
 34 74  1  0  0  0  0
 34 75  1  0  0  0  0
 35 42  1  0  0  0  0
 35 77  1  0  0  0  0
 35 78  1  0  0  0  0
 36 43  2  0  0  0  0
 37 38  2  0  0  0  0
 37 44  1  0  0  0  0
 38 46  1  0  0  0  0
 39 45  1  0  0  0  0
 39 79  1  0  0  0  0
 40 48  2  0  0  0  0
 40 80  1  0  0  0  0
 41 81  1  0  0  0  0
 43 47  1  0  0  0  0
 43 83  1  0  0  0  0
 44 49  2  0  0  0  0
 44 84  1  0  0  0  0
 45 47  2  0  0  0  0
 45 85  1  0  0  0  0
 46 50  2  0  0  0  0
 47 86  1  0  0  0  0
 48 51  1  0  0  0  0
 48 87  1  0  0  0  0
 49 50  1  0  0  0  0
 49 88  1  0  0  0  0
 50 89  1  0  0  0  0
 51 90  1  0  0  0  0
M  END
> <PUBCHEM_COMPOUND_CID>
512917
> <PUBCHEM_COMPOUND_CANONICALIZED>
1
> <PUBCHEM_CACTVS_COMPLEXITY>
1160
> <PUBCHEM_CACTVS_HBOND_ACCEPTOR>
12
> <PUBCHEM_CACTVS_HBOND_DONOR>
4
> <PUBCHEM_CACTVS_ROTATABLE_BOND>
12
> <PUBCHEM_CACTVS_SUBSKEYS>
AAADcfB/uYAEAAAAAAAAAAAAAAAAASAAAAA8eJECAAAAAEiR/AAAHwIQCAAADT7hmjY8htPIFkCoArF3VACCiCA1J2AI2KG+b9hPdvvF97uXeSjm1hHb6Yf62fKOAAAAIAAICAAAAABAABAQAAAAAAAAAA==
> <PUBCHEM_IUPAC_OPENEYE_NAME>
(2S)-4-[(7-chlorobenzofuran-2-yl)methyl]-1-[(2S,4R)-2-hydroxy-5-[[(3S)-3-hydroxychroman-4-yl]amino]-5-oxo-4-(3-pyridylmethyl)pentyl]-N-(2,2,2-trifluoroethyl)piperazine-2-carboxamide
> <PUBCHEM_IUPAC_CAS_NAME>
(2S)-4-[(7-chloro-2-benzofuranyl)methyl]-1-[(2S,4R)-2-hydroxy-5-[[(3S)-3-hydroxy-3,4-dihydro-2H-1-benzopyran-4-yl]amino]-5-oxo-4-(3-pyridinylmethyl)pentyl]-N-(2,2,2-trifluoroethyl)-2-piperazinecarboxamide
> <PUBCHEM_IUPAC_NAME_MARKUP>
(2<I>S</I>)-4-[(7-chloro-1-benzofuran-2-yl)methyl]-1-[(2<I>S</I>,4<I>R</I>)-2-hydroxy-5-[[(3<I>S</I>)-3-hydroxy-3,4-dihydro-2<I>H</I>-chromen-4-yl]amino]-5-oxo-4-(pyridin-3-ylmethyl)pentyl]-<I>N</I>-(2,2,2-trifluoroethyl)piperazine-2-carboxamide
> <PUBCHEM_IUPAC_NAME>
(2S)-4-[(7-chloro-1-benzofuran-2-yl)methyl]-1-[(2S,4R)-2-hydroxy-5-[[(3S)-3-hydroxy-3,4-dihydro-2H-chromen-4-yl]amino]-5-oxo-4-(pyridin-3-ylmethyl)pentyl]-N-(2,2,2-trifluoroethyl)piperazine-2-carboxamide
> <PUBCHEM_IUPAC_SYSTEMATIC_NAME>
(2S)-4-[(7-chloranyl-1-benzofuran-2-yl)methyl]-1-[(2S,4R)-2-oxidanyl-5-[[(3S)-3-oxidanyl-3,4-dihydro-2H-chromen-4-yl]amino]-5-oxidanylidene-4-(pyridin-3-ylmethyl)pentyl]-N-[2,2,2-tris(fluoranyl)ethyl]piperazine-2-carboxamide
> <PUBCHEM_IUPAC_TRADITIONAL_NAME>
(2S)-4-[(7-chlorobenzofuran-2-yl)methyl]-1-[(2S,4R)-2-hydroxy-5-[[(3S)-3-hydroxychroman-4-yl]amino]-5-keto-4-(3-pyridylmethyl)pentyl]-N-(2,2,2-trifluoroethyl)piperazine-2-carboxamide
> <PUBCHEM_IUPAC_INCHI>
InChI=1S/C36H39ClF3N5O6/c37-28-8-3-6-23-15-26(51-33(23)28)18-44-11-12-45(29(19-44)35(49)42-21-36(38,39)40)17-25(46)14-24(13-22-5-4-10-41-16-22)34(48)43-32-27-7-1-2-9-31(27)50-20-30(32)47/h1-10,15-16,24-25,29-30,32,46-47H,11-14,17-21H2,(H,42,49)(H,43,48)/t24-,25+,29+,30-,32?/m1/s1
> <PUBCHEM_IUPAC_INCHIKEY>
GBGNQOSPNHQALW-JWHLWYKCSA-N
> <PUBCHEM_XLOGP3_AA>
3.7
> <PUBCHEM_EXACT_MASS>
729.2540962
> <PUBCHEM_MOLECULAR_FORMULA>
C36H39ClF3N5O6
> <PUBCHEM_MOLECULAR_WEIGHT>
730.2
> <PUBCHEM_OPENEYE_CAN_SMILES>
C1CN(C(CN1CC2=CC3=C(O2)C(=CC=C3)Cl)C(=O)NCC(F)(F)F)CC(CC(CC4=CN=CC=C4)C(=O)NC5C(COC6=CC=CC=C56)O)O
> <PUBCHEM_OPENEYE_ISO_SMILES>
C1CN([C@@H](CN1CC2=CC3=C(O2)C(=CC=C3)Cl)C(=O)NCC(F)(F)F)C[C@H](C[C@@H](CC4=CN=CC=C4)C(=O)NC5[C@@H](COC6=CC=CC=C56)O)O
> <PUBCHEM_CACTVS_TPSA>
140
> <PUBCHEM_MONOISOTOPIC_WEIGHT>
729.2540962
> <PUBCHEM_TOTAL_CHARGE>
0
> <PUBCHEM_HEAVY_ATOM_COUNT>
51
> <PUBCHEM_ATOM_DEF_STEREO_COUNT>
4
> <PUBCHEM_ATOM_UDEF_STEREO_COUNT>
1
> <PUBCHEM_BOND_DEF_STEREO_COUNT>
0
> <PUBCHEM_BOND_UDEF_STEREO_COUNT>
0
> <PUBCHEM_ISOTOPIC_ATOM_COUNT>
0
> <PUBCHEM_COMPONENT_COUNT>
1
> <PUBCHEM_CACTVS_TAUTO_COUNT>
-1
> <PUBCHEM_COORDINATE_TYPE>
1
5
255
> <PUBCHEM_BONDANNOTATIONS>
30  10  6
28  14  3
15  41  8
15  51  8
16  25  6
23  22  6
29  33  8
31  40  8
31  41  8
32  36  8
32  39  8
33  37  8
36  43  8
37  38  8
37  44  8
38  46  8
39  45  8
40  48  8
43  47  8
44  49  8
45  47  8
46  50  8
48  51  8
49  50  8
21  5  5
7  29  8
7  38  8
$$$$
