512996
  -OEChem-10302200282D
115116  0     1  0  0  0  0  0999 V2000
    9.7942   -0.9050    0.0000 O   0  0  0  0  0  0  0  0  0  0  0  0
   13.2583   -1.9050    0.0000 O   0  0  0  0  0  0  0  0  0  0  0  0
   10.6603    2.5950    0.0000 O   0  0  0  0  0  0  0  0  0  0  0  0
    8.0622    5.0950    0.0000 O   0  0  0  0  0  0  0  0  0  0  0  0
    4.5981    4.0950    0.0000 O   0  0  0  0  0  0  0  0  0  0  0  0
    3.7320    0.5950    0.0000 O   0  0  0  0  0  0  0  0  0  0  0  0
    8.9282    5.5950    0.0000 O   0  0  0  0  0  0  0  0  0  0  0  0
    5.4641    0.5950    0.0000 O   0  0  0  0  0  0  0  0  0  0  0  0
    5.4641    6.5950    0.0000 O   0  0  0  0  0  0  0  0  0  0  0  0
    4.5981    5.0950    0.0000 O   0  0  0  0  0  0  0  0  0  0  0  0
   11.5263   -1.9050    0.0000 N   0  0  0  0  0  0  0  0  0  0  0  0
   10.6603    0.5950    0.0000 N   0  0  0  0  0  0  0  0  0  0  0  0
    8.9282    2.5950    0.0000 N   0  0  0  0  0  0  0  0  0  0  0  0
    7.1962    3.5950    0.0000 N   0  0  0  0  0  0  0  0  0  0  0  0
    5.4641    2.5950    0.0000 N   0  0  0  0  0  0  0  0  0  0  0  0
   10.6603    5.5950    0.0000 N   0  0  0  0  0  0  0  0  0  0  0  0
   11.5263   -0.9050    0.0000 C   0  0  1  0  0  0  0  0  0  0  0  0
   12.3923   -0.4050    0.0000 C   0  0  0  0  0  0  0  0  0  0  0  0
   12.3923   -3.4050    0.0000 C   0  0  0  0  0  0  0  0  0  0  0  0
    9.7942    1.0950    0.0000 C   0  0  1  0  0  0  0  0  0  0  0  0
   10.6603   -0.4050    0.0000 C   0  0  0  0  0  0  0  0  0  0  0  0
   12.3923   -2.4050    0.0000 C   0  0  0  0  0  0  0  0  0  0  0  0
    8.9282    0.5950    0.0000 C   0  0  0  0  0  0  0  0  0  0  0  0
   13.2583   -3.9050    0.0000 C   0  0  0  0  0  0  0  0  0  0  0  0
   11.5263   -3.9050    0.0000 C   0  0  0  0  0  0  0  0  0  0  0  0
   12.3923    0.5950    0.0000 C   0  0  0  0  0  0  0  0  0  0  0  0
   13.2583   -0.9050    0.0000 C   0  0  0  0  0  0  0  0  0  0  0  0
   10.6603   -2.4050    0.0000 C   0  0  0  0  0  0  0  0  0  0  0  0
    9.7942    2.0950    0.0000 C   0  0  0  0  0  0  0  0  0  0  0  0
    8.0622    1.0950    0.0000 C   0  0  0  0  0  0  0  0  0  0  0  0
    8.9282   -0.4050    0.0000 C   0  0  0  0  0  0  0  0  0  0  0  0
   14.1244   -3.4050    0.0000 C   0  0  0  0  0  0  0  0  0  0  0  0
   11.5263   -4.9050    0.0000 C   0  0  0  0  0  0  0  0  0  0  0  0
    8.9282    3.5950    0.0000 C   0  0  1  0  0  0  0  0  0  0  0  0
    9.7942    4.0950    0.0000 C   0  0  0  0  0  0  0  0  0  0  0  0
    8.0622    4.0950    0.0000 C   0  0  0  0  0  0  0  0  0  0  0  0
    3.7320    2.5950    0.0000 C   0  0  0  0  0  0  0  0  0  0  0  0
    6.3301    4.0950    0.0000 C   0  0  2  0  0  0  0  0  0  0  0  0
    4.5981    2.0950    0.0000 C   0  0  1  0  0  0  0  0  0  0  0  0
    2.8660    2.0950    0.0000 C   0  0  0  0  0  0  0  0  0  0  0  0
   14.9904   -3.9050    0.0000 C   0  0  0  0  0  0  0  0  0  0  0  0
   10.6603   -5.4050    0.0000 C   0  0  0  0  0  0  0  0  0  0  0  0
   14.1244   -2.4050    0.0000 C   0  0  0  0  0  0  0  0  0  0  0  0
   12.3923   -5.4050    0.0000 C   0  0  0  0  0  0  0  0  0  0  0  0
    5.4641    3.5950    0.0000 C   0  0  0  0  0  0  0  0  0  0  0  0
    6.3301    5.0950    0.0000 C   0  0  0  0  0  0  0  0  0  0  0  0
   15.8564   -3.4050    0.0000 C   0  0  0  0  0  0  0  0  0  0  0  0
   10.6603   -6.4050    0.0000 C   0  0  0  0  0  0  0  0  0  0  0  0
   14.9904   -1.9050    0.0000 C   0  0  0  0  0  0  0  0  0  0  0  0
   12.3923   -6.4050    0.0000 C   0  0  0  0  0  0  0  0  0  0  0  0
    2.0000    2.5950    0.0000 C   0  0  0  0  0  0  0  0  0  0  0  0
    2.8660    1.0950    0.0000 C   0  0  0  0  0  0  0  0  0  0  0  0
    9.7942    5.0950    0.0000 C   0  0  0  0  0  0  0  0  0  0  0  0
   15.8564   -2.4050    0.0000 C   0  0  0  0  0  0  0  0  0  0  0  0
   11.5263   -6.9050    0.0000 C   0  0  0  0  0  0  0  0  0  0  0  0
    4.5981    1.0950    0.0000 C   0  0  0  0  0  0  0  0  0  0  0  0
    5.4641    5.5950    0.0000 C   0  0  0  0  0  0  0  0  0  0  0  0
   10.9893   -1.2150    0.0000 H   0  0  0  0  0  0  0  0  0  0  0  0
   11.8554   -0.0950    0.0000 H   0  0  0  0  0  0  0  0  0  0  0  0
   11.8554   -3.0950    0.0000 H   0  0  0  0  0  0  0  0  0  0  0  0
   10.3312    1.4050    0.0000 H   0  0  0  0  0  0  0  0  0  0  0  0
    9.4651    0.2850    0.0000 H   0  0  0  0  0  0  0  0  0  0  0  0
   11.1972    0.9050    0.0000 H   0  0  0  0  0  0  0  0  0  0  0  0
   12.8598   -4.3800    0.0000 H   0  0  0  0  0  0  0  0  0  0  0  0
   13.6569   -4.3800    0.0000 H   0  0  0  0  0  0  0  0  0  0  0  0
   11.3142   -3.3224    0.0000 H   0  0  0  0  0  0  0  0  0  0  0  0
   10.9157   -4.0127    0.0000 H   0  0  0  0  0  0  0  0  0  0  0  0
   13.0123    0.5950    0.0000 H   0  0  0  0  0  0  0  0  0  0  0  0
   12.3923    1.2150    0.0000 H   0  0  0  0  0  0  0  0  0  0  0  0
   11.7723    0.5950    0.0000 H   0  0  0  0  0  0  0  0  0  0  0  0
   12.9483   -1.4419    0.0000 H   0  0  0  0  0  0  0  0  0  0  0  0
   13.7953   -1.2150    0.0000 H   0  0  0  0  0  0  0  0  0  0  0  0
   13.5683   -0.3681    0.0000 H   0  0  0  0  0  0  0  0  0  0  0  0
   10.3503   -1.8681    0.0000 H   0  0  0  0  0  0  0  0  0  0  0  0
   10.1233   -2.7150    0.0000 H   0  0  0  0  0  0  0  0  0  0  0  0
   10.9703   -2.9419    0.0000 H   0  0  0  0  0  0  0  0  0  0  0  0
    8.3722    1.6319    0.0000 H   0  0  0  0  0  0  0  0  0  0  0  0
    7.5252    1.4050    0.0000 H   0  0  0  0  0  0  0  0  0  0  0  0
    7.7522    0.5581    0.0000 H   0  0  0  0  0  0  0  0  0  0  0  0
    8.3082   -0.4050    0.0000 H   0  0  0  0  0  0  0  0  0  0  0  0
    8.9282   -1.0250    0.0000 H   0  0  0  0  0  0  0  0  0  0  0  0
    9.5482   -0.4050    0.0000 H   0  0  0  0  0  0  0  0  0  0  0  0
    9.4651    3.2850    0.0000 H   0  0  0  0  0  0  0  0  0  0  0  0
    8.3913    2.2850    0.0000 H   0  0  0  0  0  0  0  0  0  0  0  0
   10.0063    3.5124    0.0000 H   0  0  0  0  0  0  0  0  0  0  0  0
   10.4048    4.2027    0.0000 H   0  0  0  0  0  0  0  0  0  0  0  0
    4.1306    3.0700    0.0000 H   0  0  0  0  0  0  0  0  0  0  0  0
    3.3335    3.0700    0.0000 H   0  0  0  0  0  0  0  0  0  0  0  0
    6.3301    3.4750    0.0000 H   0  0  0  0  0  0  0  0  0  0  0  0
    4.5981    2.7150    0.0000 H   0  0  0  0  0  0  0  0  0  0  0  0
    2.8660    2.7150    0.0000 H   0  0  0  0  0  0  0  0  0  0  0  0
   14.9904   -4.5250    0.0000 H   0  0  0  0  0  0  0  0  0  0  0  0
   10.1233   -5.0950    0.0000 H   0  0  0  0  0  0  0  0  0  0  0  0
   13.5874   -2.0950    0.0000 H   0  0  0  0  0  0  0  0  0  0  0  0
   12.9292   -5.0950    0.0000 H   0  0  0  0  0  0  0  0  0  0  0  0
    7.1962    2.9750    0.0000 H   0  0  0  0  0  0  0  0  0  0  0  0
    6.0010    2.2850    0.0000 H   0  0  0  0  0  0  0  0  0  0  0  0
    6.9407    4.9873    0.0000 H   0  0  0  0  0  0  0  0  0  0  0  0
    6.5422    5.6776    0.0000 H   0  0  0  0  0  0  0  0  0  0  0  0
   16.3933   -3.7150    0.0000 H   0  0  0  0  0  0  0  0  0  0  0  0
   10.1233   -6.7150    0.0000 H   0  0  0  0  0  0  0  0  0  0  0  0
   14.9904   -1.2850    0.0000 H   0  0  0  0  0  0  0  0  0  0  0  0
   12.9292   -6.7150    0.0000 H   0  0  0  0  0  0  0  0  0  0  0  0
    2.3100    3.1319    0.0000 H   0  0  0  0  0  0  0  0  0  0  0  0
    1.4631    2.9050    0.0000 H   0  0  0  0  0  0  0  0  0  0  0  0
    1.6900    2.0581    0.0000 H   0  0  0  0  0  0  0  0  0  0  0  0
    2.2460    1.0950    0.0000 H   0  0  0  0  0  0  0  0  0  0  0  0
    2.8660    0.4750    0.0000 H   0  0  0  0  0  0  0  0  0  0  0  0
    3.4860    1.0950    0.0000 H   0  0  0  0  0  0  0  0  0  0  0  0
   16.3933   -2.0950    0.0000 H   0  0  0  0  0  0  0  0  0  0  0  0
   11.5263   -7.5250    0.0000 H   0  0  0  0  0  0  0  0  0  0  0  0
   10.6603    6.2150    0.0000 H   0  0  0  0  0  0  0  0  0  0  0  0
   11.1972    5.2850    0.0000 H   0  0  0  0  0  0  0  0  0  0  0  0
    3.7320   -0.0250    0.0000 H   0  0  0  0  0  0  0  0  0  0  0  0
    4.9272    6.9050    0.0000 H   0  0  0  0  0  0  0  0  0  0  0  0
  1 21  2  0  0  0  0
  2 22  2  0  0  0  0
  3 29  2  0  0  0  0
  4 36  2  0  0  0  0
  5 45  2  0  0  0  0
  6 56  1  0  0  0  0
  6114  1  0  0  0  0
  7 53  2  0  0  0  0
  8 56  2  0  0  0  0
  9 57  1  0  0  0  0
  9115  1  0  0  0  0
 10 57  2  0  0  0  0
 17 11  1  6  0  0  0
 11 22  1  0  0  0  0
 11 28  1  0  0  0  0
 20 12  1  1  0  0  0
 12 21  1  0  0  0  0
 12 63  1  0  0  0  0
 13 29  1  0  0  0  0
 34 13  1  6  0  0  0
 13 84  1  0  0  0  0
 14 36  1  0  0  0  0
 38 14  1  6  0  0  0
 14 96  1  0  0  0  0
 39 15  1  6  0  0  0
 15 45  1  0  0  0  0
 15 97  1  0  0  0  0
 16 53  1  0  0  0  0
 16112  1  0  0  0  0
 16113  1  0  0  0  0
 17 18  1  0  0  0  0
 17 21  1  0  0  0  0
 17 58  1  0  0  0  0
 18 26  1  0  0  0  0
 18 27  1  0  0  0  0
 18 59  1  0  0  0  0
 19 22  1  0  0  0  0
 19 24  1  0  0  0  0
 19 25  1  0  0  0  0
 19 60  1  0  0  0  0
 20 23  1  0  0  0  0
 20 29  1  0  0  0  0
 20 61  1  0  0  0  0
 23 30  1  0  0  0  0
 23 31  1  0  0  0  0
 23 62  1  0  0  0  0
 24 32  1  0  0  0  0
 24 64  1  0  0  0  0
 24 65  1  0  0  0  0
 25 33  1  0  0  0  0
 25 66  1  0  0  0  0
 25 67  1  0  0  0  0
 26 68  1  0  0  0  0
 26 69  1  0  0  0  0
 26 70  1  0  0  0  0
 27 71  1  0  0  0  0
 27 72  1  0  0  0  0
 27 73  1  0  0  0  0
 28 74  1  0  0  0  0
 28 75  1  0  0  0  0
 28 76  1  0  0  0  0
 30 77  1  0  0  0  0
 30 78  1  0  0  0  0
 30 79  1  0  0  0  0
 31 80  1  0  0  0  0
 31 81  1  0  0  0  0
 31 82  1  0  0  0  0
 32 41  2  0  0  0  0
 32 43  1  0  0  0  0
 33 42  2  0  0  0  0
 33 44  1  0  0  0  0
 34 35  1  0  0  0  0
 34 36  1  0  0  0  0
 34 83  1  0  0  0  0
 35 53  1  0  0  0  0
 35 85  1  0  0  0  0
 35 86  1  0  0  0  0
 37 39  1  0  0  0  0
 37 40  1  0  0  0  0
 37 87  1  0  0  0  0
 37 88  1  0  0  0  0
 38 45  1  0  0  0  0
 38 46  1  0  0  0  0
 38 89  1  0  0  0  0
 39 56  1  0  0  0  0
 39 90  1  0  0  0  0
 40 51  1  0  0  0  0
 40 52  1  0  0  0  0
 40 91  1  0  0  0  0
 41 47  1  0  0  0  0
 41 92  1  0  0  0  0
 42 48  1  0  0  0  0
 42 93  1  0  0  0  0
 43 49  2  0  0  0  0
 43 94  1  0  0  0  0
 44 50  2  0  0  0  0
 44 95  1  0  0  0  0
 46 57  1  0  0  0  0
 46 98  1  0  0  0  0
 46 99  1  0  0  0  0
 47 54  2  0  0  0  0
 47100  1  0  0  0  0
 48 55  2  0  0  0  0
 48101  1  0  0  0  0
 49 54  1  0  0  0  0
 49102  1  0  0  0  0
 50 55  1  0  0  0  0
 50103  1  0  0  0  0
 51104  1  0  0  0  0
 51105  1  0  0  0  0
 51106  1  0  0  0  0
 52107  1  0  0  0  0
 52108  1  0  0  0  0
 52109  1  0  0  0  0
 54110  1  0  0  0  0
 55111  1  0  0  0  0
M  END
> <PUBCHEM_COMPOUND_CID>
512996
> <PUBCHEM_COMPOUND_CANONICALIZED>
1
> <PUBCHEM_CACTVS_COMPLEXITY>
1370
> <PUBCHEM_CACTVS_HBOND_ACCEPTOR>
10
> <PUBCHEM_CACTVS_HBOND_DONOR>
7
> <PUBCHEM_CACTVS_ROTATABLE_BOND>
23
> <PUBCHEM_CACTVS_SUBSKEYS>
AAADcfB/vAAAAAAAAAAAAAAAAAAAAAAAAAAwYAAAAAAAAAABQAAAHgAQCAAADSjBmAQyCIPAAgCIAiHSGAACAAAgAAAIiIGIAIgKYDqA0TCUYAAmlgCYiAe/iMCOAAAAAAAAAAAAAAAAAAAAAAAAAAAAAA==
> <PUBCHEM_IUPAC_OPENEYE_NAME>
(2S)-2-[[(2S)-2-[[(2S)-4-amino-2-[[(2S)-2-[[(2S)-2-[(2-benzyl-3-phenyl-propanoyl)-methyl-amino]-3-methyl-butanoyl]amino]-3-methyl-butanoyl]amino]-4-oxo-butanoyl]amino]-3-carboxy-propanoyl]amino]-4-methyl-pentanoic acid
> <PUBCHEM_IUPAC_CAS_NAME>
(2S)-2-[[(2S)-2-[[(2S)-4-amino-2-[[(2S)-3-methyl-2-[[(2S)-3-methyl-2-[methyl-[1-oxo-3-phenyl-2-(phenylmethyl)propyl]amino]-1-oxobutyl]amino]-1-oxobutyl]amino]-1,4-dioxobutyl]amino]-3-carboxy-1-oxopropyl]amino]-4-methylpentanoic acid
> <PUBCHEM_IUPAC_NAME_MARKUP>
(2<I>S</I>)-2-[[(2<I>S</I>)-2-[[(2<I>S</I>)-4-amino-2-[[(2<I>S</I>)-2-[[(2<I>S</I>)-2-[(2-benzyl-3-phenylpropanoyl)-methylamino]-3-methylbutanoyl]amino]-3-methylbutanoyl]amino]-4-oxobutanoyl]amino]-3-carboxypropanoyl]amino]-4-methylpentanoic acid
> <PUBCHEM_IUPAC_NAME>
(2S)-2-[[(2S)-2-[[(2S)-4-amino-2-[[(2S)-2-[[(2S)-2-[(2-benzyl-3-phenylpropanoyl)-methylamino]-3-methylbutanoyl]amino]-3-methylbutanoyl]amino]-4-oxobutanoyl]amino]-3-carboxypropanoyl]amino]-4-methylpentanoic acid
> <PUBCHEM_IUPAC_SYSTEMATIC_NAME>
(2S)-2-[[(2S)-2-[[(2S)-4-azanyl-2-[[(2S)-3-methyl-2-[[(2S)-3-methyl-2-[methyl-[3-phenyl-2-(phenylmethyl)propanoyl]amino]butanoyl]amino]butanoyl]amino]-4-oxidanylidene-butanoyl]amino]-4-oxidanyl-4-oxidanylidene-butanoyl]amino]-4-methyl-pentanoic acid
> <PUBCHEM_IUPAC_TRADITIONAL_NAME>
(2S)-2-[[(2S)-2-[[(2S)-4-amino-2-[[(2S)-2-[[(2S)-2-[(2-benzyl-3-phenyl-propanoyl)-methyl-amino]-3-methyl-butanoyl]amino]-3-methyl-butanoyl]amino]-4-keto-butanoyl]amino]-3-carboxy-propanoyl]amino]-4-methyl-valeric acid
> <PUBCHEM_IUPAC_INCHI>
InChI=1S/C41H58N6O10/c1-23(2)18-31(41(56)57)45-37(52)30(22-33(49)50)43-36(51)29(21-32(42)48)44-38(53)34(24(3)4)46-39(54)35(25(5)6)47(7)40(55)28(19-26-14-10-8-11-15-26)20-27-16-12-9-13-17-27/h8-17,23-25,28-31,34-35H,18-22H2,1-7H3,(H2,42,48)(H,43,51)(H,44,53)(H,45,52)(H,46,54)(H,49,50)(H,56,57)/t29-,30-,31-,34-,35-/m0/s1
> <PUBCHEM_IUPAC_INCHIKEY>
ATGQQKQFERAHRD-WXNYECDESA-N
> <PUBCHEM_XLOGP3_AA>
3.4
> <PUBCHEM_EXACT_MASS>
794.42144207
> <PUBCHEM_MOLECULAR_FORMULA>
C41H58N6O10
> <PUBCHEM_MOLECULAR_WEIGHT>
794.9
> <PUBCHEM_OPENEYE_CAN_SMILES>
CC(C)CC(C(=O)O)NC(=O)C(CC(=O)O)NC(=O)C(CC(=O)N)NC(=O)C(C(C)C)NC(=O)C(C(C)C)N(C)C(=O)C(CC1=CC=CC=C1)CC2=CC=CC=C2
> <PUBCHEM_OPENEYE_ISO_SMILES>
CC(C)C[C@@H](C(=O)O)NC(=O)[C@H](CC(=O)O)NC(=O)[C@H](CC(=O)N)NC(=O)[C@H](C(C)C)NC(=O)[C@H](C(C)C)N(C)C(=O)C(CC1=CC=CC=C1)CC2=CC=CC=C2
> <PUBCHEM_CACTVS_TPSA>
254
> <PUBCHEM_MONOISOTOPIC_WEIGHT>
794.42144207
> <PUBCHEM_TOTAL_CHARGE>
0
> <PUBCHEM_HEAVY_ATOM_COUNT>
57
> <PUBCHEM_ATOM_DEF_STEREO_COUNT>
5
> <PUBCHEM_ATOM_UDEF_STEREO_COUNT>
0
> <PUBCHEM_BOND_DEF_STEREO_COUNT>
0
> <PUBCHEM_BOND_UDEF_STEREO_COUNT>
0
> <PUBCHEM_ISOTOPIC_ATOM_COUNT>
0
> <PUBCHEM_COMPONENT_COUNT>
1
> <PUBCHEM_CACTVS_TAUTO_COUNT>
-1
> <PUBCHEM_COORDINATE_TYPE>
1
5
255
> <PUBCHEM_BONDANNOTATIONS>
17  11  6
20  12  5
34  13  6
38  14  6
39  15  6
32  41  8
32  43  8
33  42  8
33  44  8
41  47  8
42  48  8
43  49  8
44  50  8
47  54  8
48  55  8
49  54  8
50  55  8
$$$$
