512953
  -OEChem-10302200282D
 51 54  0     1  0  0  0  0  0999 V2000
    3.7817   -2.7246    0.0000 Cl  0  0  0  0  0  0  0  0  0  0  0  0
    3.7817    1.3446    0.0000 Cl  0  0  0  0  0  0  0  0  0  0  0  0
    2.0000   -1.7142    0.0000 Cl  0  0  0  0  0  0  0  0  0  0  0  0
    2.0000    0.3342    0.0000 Cl  0  0  0  0  0  0  0  0  0  0  0  0
    5.5301   -1.6900    0.0000 O   0  0  0  0  0  0  0  0  0  0  0  0
    5.5301    0.3100    0.0000 O   0  0  0  0  0  0  0  0  0  0  0  0
    8.1282   -2.1900    0.0000 O   0  0  0  0  0  0  0  0  0  0  0  0
    6.3961    1.8100    0.0000 O   0  0  0  0  0  0  0  0  0  0  0  0
    6.3961   -1.1900    0.0000 C   0  0  3  0  0  0  0  0  0  0  0  0
    6.3961   -0.1900    0.0000 C   0  0  3  0  0  0  0  0  0  0  0  0
    7.2622   -1.6900    0.0000 C   0  0  0  0  0  0  0  0  0  0  0  0
    7.2622    0.3100    0.0000 C   0  0  0  0  0  0  0  0  0  0  0  0
    6.7622   -2.5560    0.0000 C   0  0  0  0  0  0  0  0  0  0  0  0
    7.7622   -0.8240    0.0000 C   0  0  0  0  0  0  0  0  0  0  0  0
    7.2622    1.3100    0.0000 C   0  0  0  0  0  0  0  0  0  0  0  0
    4.6641   -1.1900    0.0000 C   0  0  0  0  0  0  0  0  0  0  0  0
    4.6641   -0.1900    0.0000 C   0  0  0  0  0  0  0  0  0  0  0  0
    8.1282   -0.1900    0.0000 C   0  0  0  0  0  0  0  0  0  0  0  0
    8.1282    1.8100    0.0000 C   0  0  0  0  0  0  0  0  0  0  0  0
    8.9942    0.3100    0.0000 C   0  0  0  0  0  0  0  0  0  0  0  0
    8.9942    1.3100    0.0000 C   0  0  0  0  0  0  0  0  0  0  0  0
    3.7702   -1.7247    0.0000 C   0  0  0  0  0  0  0  0  0  0  0  0
    3.7702    0.3447    0.0000 C   0  0  0  0  0  0  0  0  0  0  0  0
    8.1282    2.8100    0.0000 C   0  0  0  0  0  0  0  0  0  0  0  0
    9.8882   -0.2247    0.0000 C   0  0  0  0  0  0  0  0  0  0  0  0
    9.8882    1.8447    0.0000 C   0  0  0  0  0  0  0  0  0  0  0  0
    2.8641   -1.2108    0.0000 C   0  0  0  0  0  0  0  0  0  0  0  0
    2.8641   -0.1692    0.0000 C   0  0  0  0  0  0  0  0  0  0  0  0
   10.7942    0.2892    0.0000 C   0  0  0  0  0  0  0  0  0  0  0  0
   10.7942    1.3308    0.0000 C   0  0  0  0  0  0  0  0  0  0  0  0
    6.3961    2.8100    0.0000 C   0  0  0  0  0  0  0  0  0  0  0  0
    6.3961   -1.8100    0.0000 H   0  0  0  0  0  0  0  0  0  0  0  0
    6.9331   -0.5000    0.0000 H   0  0  0  0  0  0  0  0  0  0  0  0
    6.2252   -2.2460    0.0000 H   0  0  0  0  0  0  0  0  0  0  0  0
    6.4522   -3.0930    0.0000 H   0  0  0  0  0  0  0  0  0  0  0  0
    7.2991   -2.8660    0.0000 H   0  0  0  0  0  0  0  0  0  0  0  0
    8.2991   -1.1340    0.0000 H   0  0  0  0  0  0  0  0  0  0  0  0
    8.0722   -0.2870    0.0000 H   0  0  0  0  0  0  0  0  0  0  0  0
    7.2252   -0.5140    0.0000 H   0  0  0  0  0  0  0  0  0  0  0  0
    8.1282   -0.8100    0.0000 H   0  0  0  0  0  0  0  0  0  0  0  0
    8.1282   -2.8100    0.0000 H   0  0  0  0  0  0  0  0  0  0  0  0
    8.7482    2.8100    0.0000 H   0  0  0  0  0  0  0  0  0  0  0  0
    8.1282    3.4300    0.0000 H   0  0  0  0  0  0  0  0  0  0  0  0
    7.5082    2.8100    0.0000 H   0  0  0  0  0  0  0  0  0  0  0  0
    9.8810   -0.8446    0.0000 H   0  0  0  0  0  0  0  0  0  0  0  0
    9.8810    2.4646    0.0000 H   0  0  0  0  0  0  0  0  0  0  0  0
   11.3300   -0.0229    0.0000 H   0  0  0  0  0  0  0  0  0  0  0  0
   11.3300    1.6429    0.0000 H   0  0  0  0  0  0  0  0  0  0  0  0
    7.0162    2.8100    0.0000 H   0  0  0  0  0  0  0  0  0  0  0  0
    6.3961    3.4300    0.0000 H   0  0  0  0  0  0  0  0  0  0  0  0
    5.7762    2.8100    0.0000 H   0  0  0  0  0  0  0  0  0  0  0  0
  1 22  1  0  0  0  0
  2 23  1  0  0  0  0
  3 27  1  0  0  0  0
  4 28  1  0  0  0  0
  5  9  1  0  0  0  0
  5 16  1  0  0  0  0
  6 10  1  0  0  0  0
  6 17  1  0  0  0  0
  7 11  1  0  0  0  0
  7 41  1  0  0  0  0
  8 15  1  0  0  0  0
  8 31  1  0  0  0  0
  9 10  1  0  0  0  0
  9 11  1  0  0  0  0
  9 32  1  0  0  0  0
 10 12  1  0  0  0  0
 10 33  1  0  0  0  0
 11 13  1  0  0  0  0
 11 14  1  0  0  0  0
 12 15  1  0  0  0  0
 12 18  2  0  0  0  0
 13 34  1  0  0  0  0
 13 35  1  0  0  0  0
 13 36  1  0  0  0  0
 14 37  1  0  0  0  0
 14 38  1  0  0  0  0
 14 39  1  0  0  0  0
 15 19  2  0  0  0  0
 16 17  2  0  0  0  0
 16 22  1  0  0  0  0
 17 23  1  0  0  0  0
 18 20  1  0  0  0  0
 18 40  1  0  0  0  0
 19 21  1  0  0  0  0
 19 24  1  0  0  0  0
 20 21  1  0  0  0  0
 20 25  2  0  0  0  0
 21 26  2  0  0  0  0
 22 27  2  0  0  0  0
 23 28  2  0  0  0  0
 24 42  1  0  0  0  0
 24 43  1  0  0  0  0
 24 44  1  0  0  0  0
 25 29  1  0  0  0  0
 25 45  1  0  0  0  0
 26 30  1  0  0  0  0
 26 46  1  0  0  0  0
 27 28  1  0  0  0  0
 29 30  2  0  0  0  0
 29 47  1  0  0  0  0
 30 48  1  0  0  0  0
 31 49  1  0  0  0  0
 31 50  1  0  0  0  0
 31 51  1  0  0  0  0
M  END
> <PUBCHEM_COMPOUND_CID>
512953
> <PUBCHEM_COMPOUND_CANONICALIZED>
1
> <PUBCHEM_CACTVS_COMPLEXITY>
637
> <PUBCHEM_CACTVS_HBOND_ACCEPTOR>
4
> <PUBCHEM_CACTVS_HBOND_DONOR>
1
> <PUBCHEM_CACTVS_ROTATABLE_BOND>
3
> <PUBCHEM_CACTVS_SUBSKEYS>
AAADceB4OAAHAAAAAAAAAAAAAAAAAAAAAAA0YMEAAAAAAADRVAAAGgIACAAADFagmCIyBsAABgCAAiBCAAACCAAgJEAIikAEi4gNJyOFMxqCeCKlwBELqAfA4PwO4CATAQCYSATAQCYCATCQCAAAAAAAAA==
> <PUBCHEM_IUPAC_OPENEYE_NAME>
2-[5,6,7,8-tetrachloro-2-(3-methoxy-4-methyl-2-naphthyl)-2,3-dihydro-1,4-benzodioxin-3-yl]propan-2-ol
> <PUBCHEM_IUPAC_CAS_NAME>
2-[5,6,7,8-tetrachloro-2-(3-methoxy-4-methyl-2-naphthalenyl)-2,3-dihydro-1,4-benzodioxin-3-yl]-2-propanol
> <PUBCHEM_IUPAC_NAME_MARKUP>
2-[5,6,7,8-tetrachloro-2-(3-methoxy-4-methylnaphthalen-2-yl)-2,3-dihydro-1,4-benzodioxin-3-yl]propan-2-ol
> <PUBCHEM_IUPAC_NAME>
2-[5,6,7,8-tetrachloro-2-(3-methoxy-4-methylnaphthalen-2-yl)-2,3-dihydro-1,4-benzodioxin-3-yl]propan-2-ol
> <PUBCHEM_IUPAC_SYSTEMATIC_NAME>
2-[5,6,7,8-tetrakis(chloranyl)-2-(3-methoxy-4-methyl-naphthalen-2-yl)-2,3-dihydro-1,4-benzodioxin-3-yl]propan-2-ol
> <PUBCHEM_IUPAC_TRADITIONAL_NAME>
2-[5,6,7,8-tetrachloro-2-(3-methoxy-4-methyl-2-naphthyl)-2,3-dihydro-1,4-benzodioxin-3-yl]propan-2-ol
> <PUBCHEM_IUPAC_INCHI>
InChI=1S/C23H20Cl4O4/c1-10-12-8-6-5-7-11(12)9-13(18(10)29-4)19-22(23(2,3)28)31-21-17(27)15(25)14(24)16(26)20(21)30-19/h5-9,19,22,28H,1-4H3
> <PUBCHEM_IUPAC_INCHIKEY>
ITQWSUYZACPMAS-UHFFFAOYSA-N
> <PUBCHEM_XLOGP3_AA>
7.3
> <PUBCHEM_EXACT_MASS>
502.008620
> <PUBCHEM_MOLECULAR_FORMULA>
C23H20Cl4O4
> <PUBCHEM_MOLECULAR_WEIGHT>
502.2
> <PUBCHEM_OPENEYE_CAN_SMILES>
CC1=C(C(=CC2=CC=CC=C12)C3C(OC4=C(O3)C(=C(C(=C4Cl)Cl)Cl)Cl)C(C)(C)O)OC
> <PUBCHEM_OPENEYE_ISO_SMILES>
CC1=C(C(=CC2=CC=CC=C12)C3C(OC4=C(O3)C(=C(C(=C4Cl)Cl)Cl)Cl)C(C)(C)O)OC
> <PUBCHEM_CACTVS_TPSA>
47.9
> <PUBCHEM_MONOISOTOPIC_WEIGHT>
500.011570
> <PUBCHEM_TOTAL_CHARGE>
0
> <PUBCHEM_HEAVY_ATOM_COUNT>
31
> <PUBCHEM_ATOM_DEF_STEREO_COUNT>
0
> <PUBCHEM_ATOM_UDEF_STEREO_COUNT>
2
> <PUBCHEM_BOND_DEF_STEREO_COUNT>
0
> <PUBCHEM_BOND_UDEF_STEREO_COUNT>
0
> <PUBCHEM_ISOTOPIC_ATOM_COUNT>
0
> <PUBCHEM_COMPONENT_COUNT>
1
> <PUBCHEM_CACTVS_TAUTO_COUNT>
-1
> <PUBCHEM_COORDINATE_TYPE>
1
5
255
> <PUBCHEM_BONDANNOTATIONS>
10  12  3
12  15  8
12  18  8
15  19  8
16  17  8
16  22  8
17  23  8
18  20  8
19  21  8
20  21  8
20  25  8
21  26  8
22  27  8
23  28  8
25  29  8
26  30  8
27  28  8
29  30  8
9  11  3
$$$$
