512912
  -OEChem-10302200282D
 94 99  0     1  0  0  0  0  0999 V2000
   11.0942    4.4503    0.0000 F   0  0  0  0  0  0  0  0  0  0  0  0
   12.4603    4.0843    0.0000 F   0  0  0  0  0  0  0  0  0  0  0  0
   12.0942    2.7183    0.0000 F   0  0  0  0  0  0  0  0  0  0  0  0
    7.2641   -0.9157    0.0000 O   0  0  0  0  0  0  0  0  0  0  0  0
    8.9962    2.0843    0.0000 O   0  0  0  0  0  0  0  0  0  0  0  0
   13.3738   -1.3224    0.0000 O   0  0  0  0  0  0  0  0  0  0  0  0
    4.6660   -4.4157    0.0000 O   0  0  0  0  0  0  0  0  0  0  0  0
    6.3981   -1.4157    0.0000 O   0  0  0  0  0  0  0  0  0  0  0  0
    6.3981   -2.4157    0.0000 O   0  0  0  0  0  0  0  0  0  0  0  0
    8.9962    0.0843    0.0000 N   0  0  3  0  0  0  0  0  0  0  0  0
   10.7282   -0.9157    0.0000 N   0  0  3  0  0  0  0  0  0  0  0  0
   10.7282    2.0843    0.0000 N   0  0  0  0  0  0  0  0  0  0  0  0
    4.6660   -1.4157    0.0000 N   0  0  0  0  0  0  0  0  0  0  0  0
    4.6660    3.5843    0.0000 N   0  0  0  0  0  0  0  0  0  0  0  0
    9.8622    0.5843    0.0000 C   0  0  1  0  0  0  0  0  0  0  0  0
   10.7282    0.0843    0.0000 C   0  0  0  0  0  0  0  0  0  0  0  0
    8.9962   -0.9157    0.0000 C   0  0  0  0  0  0  0  0  0  0  0  0
    8.1301    0.5843    0.0000 C   0  0  0  0  0  0  0  0  0  0  0  0
    9.8622   -1.4157    0.0000 C   0  0  0  0  0  0  0  0  0  0  0  0
    7.2641    0.0843    0.0000 C   0  0  2  0  0  0  0  0  0  0  0  0
    6.3981    0.5843    0.0000 C   0  0  0  0  0  0  0  0  0  0  0  0
    5.5321    0.0843    0.0000 C   0  0  2  0  0  0  0  0  0  0  0  0
   11.5942   -1.4157    0.0000 C   0  0  0  0  0  0  0  0  0  0  0  0
    9.8622    1.5843    0.0000 C   0  0  0  0  0  0  0  0  0  0  0  0
    4.6660    0.5843    0.0000 C   0  0  0  0  0  0  0  0  0  0  0  0
    5.5321   -0.9157    0.0000 C   0  0  0  0  0  0  0  0  0  0  0  0
    4.6660   -2.4157    0.0000 C   0  0  3  0  0  0  0  0  0  0  0  0
   12.4603   -0.9157    0.0000 C   0  0  0  0  0  0  0  0  0  0  0  0
    5.5321   -2.9157    0.0000 C   0  0  1  0  0  0  0  0  0  0  0  0
    4.6660    1.5843    0.0000 C   0  0  0  0  0  0  0  0  0  0  0  0
    3.8000   -2.9157    0.0000 C   0  0  0  0  0  0  0  0  0  0  0  0
    5.5321   -3.9157    0.0000 C   0  0  0  0  0  0  0  0  0  0  0  0
   10.7282    3.0843    0.0000 C   0  0  0  0  0  0  0  0  0  0  0  0
   12.5648    0.0788    0.0000 C   0  0  0  0  0  0  0  0  0  0  0  0
    3.8000   -3.9157    0.0000 C   0  0  0  0  0  0  0  0  0  0  0  0
    2.9061   -2.3810    0.0000 C   0  0  0  0  0  0  0  0  0  0  0  0
   14.0429   -0.5793    0.0000 C   0  0  0  0  0  0  0  0  0  0  0  0
    3.8000    2.0843    0.0000 C   0  0  0  0  0  0  0  0  0  0  0  0
    5.5321    2.0843    0.0000 C   0  0  0  0  0  0  0  0  0  0  0  0
   13.5429    0.2868    0.0000 C   0  0  0  0  0  0  0  0  0  0  0  0
   11.5942    3.5843    0.0000 C   0  0  0  0  0  0  0  0  0  0  0  0
    2.9061   -4.4503    0.0000 C   0  0  0  0  0  0  0  0  0  0  0  0
    2.0000   -2.8949    0.0000 C   0  0  0  0  0  0  0  0  0  0  0  0
    2.0000   -3.9365    0.0000 C   0  0  0  0  0  0  0  0  0  0  0  0
   15.0375   -0.6838    0.0000 C   0  0  0  0  0  0  0  0  0  0  0  0
    3.8000    3.0843    0.0000 C   0  0  0  0  0  0  0  0  0  0  0  0
    5.5321    3.0843    0.0000 C   0  0  0  0  0  0  0  0  0  0  0  0
   15.4442   -1.5974    0.0000 C   0  0  0  0  0  0  0  0  0  0  0  0
   15.6252    0.1252    0.0000 C   0  0  0  0  0  0  0  0  0  0  0  0
   16.4387   -1.7019    0.0000 C   0  0  0  0  0  0  0  0  0  0  0  0
   16.6198    0.0207    0.0000 C   0  0  0  0  0  0  0  0  0  0  0  0
   17.0265   -0.8929    0.0000 C   0  0  0  0  0  0  0  0  0  0  0  0
    9.3252    0.8943    0.0000 H   0  0  0  0  0  0  0  0  0  0  0  0
   11.3388   -0.0233    0.0000 H   0  0  0  0  0  0  0  0  0  0  0  0
   10.9403    0.6669    0.0000 H   0  0  0  0  0  0  0  0  0  0  0  0
    8.3856   -0.8080    0.0000 H   0  0  0  0  0  0  0  0  0  0  0  0
    8.7841   -1.4983    0.0000 H   0  0  0  0  0  0  0  0  0  0  0  0
    8.5287    1.0593    0.0000 H   0  0  0  0  0  0  0  0  0  0  0  0
    7.7316    1.0593    0.0000 H   0  0  0  0  0  0  0  0  0  0  0  0
    9.4637   -1.8906    0.0000 H   0  0  0  0  0  0  0  0  0  0  0  0
   10.2607   -1.8906    0.0000 H   0  0  0  0  0  0  0  0  0  0  0  0
    7.8010   -0.2257    0.0000 H   0  0  0  0  0  0  0  0  0  0  0  0
    6.7966    1.0593    0.0000 H   0  0  0  0  0  0  0  0  0  0  0  0
    5.9996    1.0593    0.0000 H   0  0  0  0  0  0  0  0  0  0  0  0
    5.5321    0.7043    0.0000 H   0  0  0  0  0  0  0  0  0  0  0  0
   11.1957   -1.8906    0.0000 H   0  0  0  0  0  0  0  0  0  0  0  0
   11.9928   -1.8906    0.0000 H   0  0  0  0  0  0  0  0  0  0  0  0
    4.0555    0.6920    0.0000 H   0  0  0  0  0  0  0  0  0  0  0  0
    4.4540    0.0017    0.0000 H   0  0  0  0  0  0  0  0  0  0  0  0
    4.1291   -2.1057    0.0000 H   0  0  0  0  0  0  0  0  0  0  0  0
    7.8010   -1.2257    0.0000 H   0  0  0  0  0  0  0  0  0  0  0  0
   11.2651    1.7743    0.0000 H   0  0  0  0  0  0  0  0  0  0  0  0
    4.1291   -1.1057    0.0000 H   0  0  0  0  0  0  0  0  0  0  0  0
    5.5321   -2.2957    0.0000 H   0  0  0  0  0  0  0  0  0  0  0  0
    5.7441   -4.4983    0.0000 H   0  0  0  0  0  0  0  0  0  0  0  0
    6.1426   -3.8080    0.0000 H   0  0  0  0  0  0  0  0  0  0  0  0
   10.5162    3.6669    0.0000 H   0  0  0  0  0  0  0  0  0  0  0  0
   10.1176    2.9767    0.0000 H   0  0  0  0  0  0  0  0  0  0  0  0
   12.1040    0.4937    0.0000 H   0  0  0  0  0  0  0  0  0  0  0  0
    2.9132   -1.7611    0.0000 H   0  0  0  0  0  0  0  0  0  0  0  0
    3.2631    1.7743    0.0000 H   0  0  0  0  0  0  0  0  0  0  0  0
    6.0690    1.7743    0.0000 H   0  0  0  0  0  0  0  0  0  0  0  0
   13.7951    0.8532    0.0000 H   0  0  0  0  0  0  0  0  0  0  0  0
    6.9350   -2.7257    0.0000 H   0  0  0  0  0  0  0  0  0  0  0  0
    2.9132   -5.0703    0.0000 H   0  0  0  0  0  0  0  0  0  0  0  0
    1.4643   -2.5828    0.0000 H   0  0  0  0  0  0  0  0  0  0  0  0
    1.4643   -4.2486    0.0000 H   0  0  0  0  0  0  0  0  0  0  0  0
    3.2631    3.3943    0.0000 H   0  0  0  0  0  0  0  0  0  0  0  0
    6.0690    3.3943    0.0000 H   0  0  0  0  0  0  0  0  0  0  0  0
   15.0798   -2.0989    0.0000 H   0  0  0  0  0  0  0  0  0  0  0  0
   15.3731    0.6916    0.0000 H   0  0  0  0  0  0  0  0  0  0  0  0
   16.6909   -2.2683    0.0000 H   0  0  0  0  0  0  0  0  0  0  0  0
   16.9842    0.5223    0.0000 H   0  0  0  0  0  0  0  0  0  0  0  0
   17.6431   -0.9577    0.0000 H   0  0  0  0  0  0  0  0  0  0  0  0
  1 41  1  0  0  0  0
  2 41  1  0  0  0  0
  3 41  1  0  0  0  0
 20  4  1  1  0  0  0
  4 71  1  0  0  0  0
  5 24  2  0  0  0  0
  6 28  1  0  0  0  0
  6 37  1  0  0  0  0
  7 32  1  0  0  0  0
  7 35  1  0  0  0  0
  8 26  2  0  0  0  0
 29  9  1  6  0  0  0
  9 84  1  0  0  0  0
 10 15  1  0  0  0  0
 10 17  1  0  0  0  0
 10 18  1  0  0  0  0
 11 16  1  0  0  0  0
 11 19  1  0  0  0  0
 11 23  1  0  0  0  0
 12 24  1  0  0  0  0
 12 33  1  0  0  0  0
 12 72  1  0  0  0  0
 13 26  1  0  0  0  0
 13 27  1  0  0  0  0
 13 73  1  0  0  0  0
 14 46  2  0  0  0  0
 14 47  1  0  0  0  0
 15 16  1  0  0  0  0
 15 24  1  6  0  0  0
 15 53  1  0  0  0  0
 16 54  1  0  0  0  0
 16 55  1  0  0  0  0
 17 19  1  0  0  0  0
 17 56  1  0  0  0  0
 17 57  1  0  0  0  0
 18 20  1  0  0  0  0
 18 58  1  0  0  0  0
 18 59  1  0  0  0  0
 19 60  1  0  0  0  0
 19 61  1  0  0  0  0
 20 21  1  0  0  0  0
 20 62  1  0  0  0  0
 22 21  1  1  0  0  0
 21 63  1  0  0  0  0
 21 64  1  0  0  0  0
 22 25  1  0  0  0  0
 22 26  1  0  0  0  0
 22 65  1  0  0  0  0
 23 28  1  0  0  0  0
 23 66  1  0  0  0  0
 23 67  1  0  0  0  0
 25 30  1  0  0  0  0
 25 68  1  0  0  0  0
 25 69  1  0  0  0  0
 27 29  1  0  0  0  0
 27 31  1  0  0  0  0
 27 70  1  0  0  0  0
 28 34  2  0  0  0  0
 29 32  1  0  0  0  0
 29 74  1  0  0  0  0
 30 38  2  0  0  0  0
 30 39  1  0  0  0  0
 31 35  1  0  0  0  0
 31 36  2  0  0  0  0
 32 75  1  0  0  0  0
 32 76  1  0  0  0  0
 33 41  1  0  0  0  0
 33 77  1  0  0  0  0
 33 78  1  0  0  0  0
 34 40  1  0  0  0  0
 34 79  1  0  0  0  0
 35 42  2  0  0  0  0
 36 43  1  0  0  0  0
 36 80  1  0  0  0  0
 37 40  2  0  0  0  0
 37 45  1  0  0  0  0
 38 46  1  0  0  0  0
 38 81  1  0  0  0  0
 39 47  2  0  0  0  0
 39 82  1  0  0  0  0
 40 83  1  0  0  0  0
 42 44  1  0  0  0  0
 42 85  1  0  0  0  0
 43 44  2  0  0  0  0
 43 86  1  0  0  0  0
 44 87  1  0  0  0  0
 45 48  2  0  0  0  0
 45 49  1  0  0  0  0
 46 88  1  0  0  0  0
 47 89  1  0  0  0  0
 48 50  1  0  0  0  0
 48 90  1  0  0  0  0
 49 51  2  0  0  0  0
 49 91  1  0  0  0  0
 50 52  2  0  0  0  0
 50 92  1  0  0  0  0
 51 52  1  0  0  0  0
 51 93  1  0  0  0  0
 52 94  1  0  0  0  0
M  END
> <PUBCHEM_COMPOUND_CID>
512912
> <PUBCHEM_COMPOUND_CANONICALIZED>
1
> <PUBCHEM_CACTVS_COMPLEXITY>
1140
> <PUBCHEM_CACTVS_HBOND_ACCEPTOR>
12
> <PUBCHEM_CACTVS_HBOND_DONOR>
4
> <PUBCHEM_CACTVS_ROTATABLE_BOND>
13
> <PUBCHEM_CACTVS_SUBSKEYS>
AAADcfB/uYAAAAAAAAAAAAAAAAAAASAAAAA8eJECAAAAAACR9AAAHwAQCAAADTzhmhY8hpPIFkCoArF3VACCiCA1IiAI2KG+bNgPdnrE9buXeSjm1hHb6Yf62fKOAAAAAAAIAAAAAAAAABAAAAAAAAAAAA==
> <PUBCHEM_IUPAC_OPENEYE_NAME>
(2S)-1-[(2S,4S)-2-hydroxy-5-[[(3S)-3-hydroxychroman-4-yl]amino]-5-oxo-4-(4-pyridylmethyl)pentyl]-4-[(5-phenyl-2-furyl)methyl]-N-(2,2,2-trifluoroethyl)piperazine-2-carboxamide
> <PUBCHEM_IUPAC_CAS_NAME>
(2S)-1-[(2S,4S)-2-hydroxy-5-[[(3S)-3-hydroxy-3,4-dihydro-2H-1-benzopyran-4-yl]amino]-5-oxo-4-(pyridin-4-ylmethyl)pentyl]-4-[(5-phenyl-2-furanyl)methyl]-N-(2,2,2-trifluoroethyl)-2-piperazinecarboxamide
> <PUBCHEM_IUPAC_NAME_MARKUP>
(2<I>S</I>)-1-[(2<I>S</I>,4<I>S</I>)-2-hydroxy-5-[[(3<I>S</I>)-3-hydroxy-3,4-dihydro-2<I>H</I>-chromen-4-yl]amino]-5-oxo-4-(pyridin-4-ylmethyl)pentyl]-4-[(5-phenylfuran-2-yl)methyl]-<I>N</I>-(2,2,2-trifluoroethyl)piperazine-2-carboxamide
> <PUBCHEM_IUPAC_NAME>
(2S)-1-[(2S,4S)-2-hydroxy-5-[[(3S)-3-hydroxy-3,4-dihydro-2H-chromen-4-yl]amino]-5-oxo-4-(pyridin-4-ylmethyl)pentyl]-4-[(5-phenylfuran-2-yl)methyl]-N-(2,2,2-trifluoroethyl)piperazine-2-carboxamide
> <PUBCHEM_IUPAC_SYSTEMATIC_NAME>
(2S)-1-[(2S,4S)-2-oxidanyl-5-[[(3S)-3-oxidanyl-3,4-dihydro-2H-chromen-4-yl]amino]-5-oxidanylidene-4-(pyridin-4-ylmethyl)pentyl]-4-[(5-phenylfuran-2-yl)methyl]-N-[2,2,2-tris(fluoranyl)ethyl]piperazine-2-carboxamide
> <PUBCHEM_IUPAC_TRADITIONAL_NAME>
(2S)-1-[(2S,4S)-2-hydroxy-5-[[(3S)-3-hydroxychroman-4-yl]amino]-5-keto-4-(4-pyridylmethyl)pentyl]-4-[(5-phenyl-2-furyl)methyl]-N-(2,2,2-trifluoroethyl)piperazine-2-carboxamide
> <PUBCHEM_IUPAC_INCHI>
InChI=1S/C38H42F3N5O6/c39-38(40,41)24-43-37(50)31-22-45(21-29-10-11-33(52-29)26-6-2-1-3-7-26)16-17-46(31)20-28(47)19-27(18-25-12-14-42-15-13-25)36(49)44-35-30-8-4-5-9-34(30)51-23-32(35)48/h1-15,27-28,31-32,35,47-48H,16-24H2,(H,43,50)(H,44,49)/t27-,28-,31-,32+,35?/m0/s1
> <PUBCHEM_IUPAC_INCHIKEY>
LGMBHWQZEHFJOS-GYNZZKASSA-N
> <PUBCHEM_XLOGP3_AA>
3.4
> <PUBCHEM_EXACT_MASS>
721.30871856
> <PUBCHEM_MOLECULAR_FORMULA>
C38H42F3N5O6
> <PUBCHEM_MOLECULAR_WEIGHT>
721.8
> <PUBCHEM_OPENEYE_CAN_SMILES>
C1CN(C(CN1CC2=CC=C(O2)C3=CC=CC=C3)C(=O)NCC(F)(F)F)CC(CC(CC4=CC=NC=C4)C(=O)NC5C(COC6=CC=CC=C56)O)O
> <PUBCHEM_OPENEYE_ISO_SMILES>
C1CN([C@@H](CN1CC2=CC=C(O2)C3=CC=CC=C3)C(=O)NCC(F)(F)F)C[C@H](C[C@H](CC4=CC=NC=C4)C(=O)NC5[C@@H](COC6=CC=CC=C56)O)O
> <PUBCHEM_CACTVS_TPSA>
140
> <PUBCHEM_MONOISOTOPIC_WEIGHT>
721.30871856
> <PUBCHEM_TOTAL_CHARGE>
0
> <PUBCHEM_HEAVY_ATOM_COUNT>
52
> <PUBCHEM_ATOM_DEF_STEREO_COUNT>
4
> <PUBCHEM_ATOM_UDEF_STEREO_COUNT>
1
> <PUBCHEM_BOND_DEF_STEREO_COUNT>
0
> <PUBCHEM_BOND_UDEF_STEREO_COUNT>
0
> <PUBCHEM_ISOTOPIC_ATOM_COUNT>
0
> <PUBCHEM_COMPONENT_COUNT>
1
> <PUBCHEM_CACTVS_TAUTO_COUNT>
-1
> <PUBCHEM_COORDINATE_TYPE>
1
5
255
> <PUBCHEM_BONDANNOTATIONS>
27  13  3
14  46  8
14  47  8
15  24  6
22  21  5
28  34  8
30  38  8
30  39  8
31  35  8
31  36  8
34  40  8
35  42  8
36  43  8
37  40  8
38  46  8
39  47  8
20  4  5
42  44  8
43  44  8
45  48  8
45  49  8
48  50  8
49  51  8
50  52  8
51  52  8
6  28  8
6  37  8
29  9  6
$$$$
