512910
  -OEChem-10302200282D
 94 99  0     1  0  0  0  0  0999 V2000
   12.9603    2.6692    0.0000 F   0  0  0  0  0  0  0  0  0  0  0  0
   13.3263    4.0352    0.0000 F   0  0  0  0  0  0  0  0  0  0  0  0
   11.9603    4.4012    0.0000 F   0  0  0  0  0  0  0  0  0  0  0  0
    7.2641    0.5352    0.0000 O   0  0  0  0  0  0  0  0  0  0  0  0
    8.9962    3.5352    0.0000 O   0  0  0  0  0  0  0  0  0  0  0  0
   12.4033   -1.5526    0.0000 O   0  0  0  0  0  0  0  0  0  0  0  0
    4.6660   -2.9648    0.0000 O   0  0  0  0  0  0  0  0  0  0  0  0
    6.3981    0.0352    0.0000 O   0  0  0  0  0  0  0  0  0  0  0  0
    6.3981   -0.9648    0.0000 O   0  0  0  0  0  0  0  0  0  0  0  0
    8.9962    1.5352    0.0000 N   0  0  3  0  0  0  0  0  0  0  0  0
   10.7282    0.5352    0.0000 N   0  0  3  0  0  0  0  0  0  0  0  0
   10.7282    3.5352    0.0000 N   0  0  0  0  0  0  0  0  0  0  0  0
    4.6660    0.0352    0.0000 N   0  0  0  0  0  0  0  0  0  0  0  0
   13.8576   -4.9307    0.0000 N   0  0  0  0  0  0  0  0  0  0  0  0
    9.8622    2.0352    0.0000 C   0  0  1  0  0  0  0  0  0  0  0  0
   10.7282    1.5352    0.0000 C   0  0  0  0  0  0  0  0  0  0  0  0
    8.9962    0.5352    0.0000 C   0  0  0  0  0  0  0  0  0  0  0  0
    8.1301    2.0352    0.0000 C   0  0  0  0  0  0  0  0  0  0  0  0
    9.8622    0.0352    0.0000 C   0  0  0  0  0  0  0  0  0  0  0  0
    7.2641    1.5352    0.0000 C   0  0  2  0  0  0  0  0  0  0  0  0
    6.3981    2.0352    0.0000 C   0  0  0  0  0  0  0  0  0  0  0  0
    5.5321    1.5352    0.0000 C   0  0  2  0  0  0  0  0  0  0  0  0
   11.5942    0.0352    0.0000 C   0  0  0  0  0  0  0  0  0  0  0  0
    9.8622    3.0352    0.0000 C   0  0  0  0  0  0  0  0  0  0  0  0
    4.6660    2.0352    0.0000 C   0  0  0  0  0  0  0  0  0  0  0  0
    5.5321    0.5352    0.0000 C   0  0  0  0  0  0  0  0  0  0  0  0
    4.6660   -0.9648    0.0000 C   0  0  3  0  0  0  0  0  0  0  0  0
   11.5942   -0.9648    0.0000 C   0  0  0  0  0  0  0  0  0  0  0  0
    5.5321   -1.4648    0.0000 C   0  0  1  0  0  0  0  0  0  0  0  0
    4.6660    3.0352    0.0000 C   0  0  0  0  0  0  0  0  0  0  0  0
    3.8000   -1.4648    0.0000 C   0  0  0  0  0  0  0  0  0  0  0  0
    5.5321   -2.4648    0.0000 C   0  0  0  0  0  0  0  0  0  0  0  0
   11.5942    3.0352    0.0000 C   0  0  0  0  0  0  0  0  0  0  0  0
   10.7852   -1.5526    0.0000 C   0  0  0  0  0  0  0  0  0  0  0  0
    3.8000   -2.4648    0.0000 C   0  0  0  0  0  0  0  0  0  0  0  0
    5.5321    3.5352    0.0000 C   0  0  0  0  0  0  0  0  0  0  0  0
    3.8000    3.5352    0.0000 C   0  0  0  0  0  0  0  0  0  0  0  0
    2.9061   -0.9301    0.0000 C   0  0  0  0  0  0  0  0  0  0  0  0
   12.0942   -2.5036    0.0000 C   0  0  0  0  0  0  0  0  0  0  0  0
   11.0942   -2.5036    0.0000 C   0  0  0  0  0  0  0  0  0  0  0  0
   12.4603    3.5352    0.0000 C   0  0  0  0  0  0  0  0  0  0  0  0
    2.9061   -2.9994    0.0000 C   0  0  0  0  0  0  0  0  0  0  0  0
    2.0000   -1.4440    0.0000 C   0  0  0  0  0  0  0  0  0  0  0  0
    5.5321    4.5352    0.0000 C   0  0  0  0  0  0  0  0  0  0  0  0
    3.8000    4.5352    0.0000 C   0  0  0  0  0  0  0  0  0  0  0  0
    2.0000   -2.4856    0.0000 C   0  0  0  0  0  0  0  0  0  0  0  0
   12.6820   -3.3126    0.0000 C   0  0  0  0  0  0  0  0  0  0  0  0
    4.6660    5.0352    0.0000 C   0  0  0  0  0  0  0  0  0  0  0  0
   12.2753   -4.2262    0.0000 C   0  0  0  0  0  0  0  0  0  0  0  0
   13.6765   -3.2081    0.0000 C   0  0  0  0  0  0  0  0  0  0  0  0
   12.8631   -5.0352    0.0000 C   0  0  0  0  0  0  0  0  0  0  0  0
   14.2643   -4.0171    0.0000 C   0  0  0  0  0  0  0  0  0  0  0  0
    9.3252    2.3452    0.0000 H   0  0  0  0  0  0  0  0  0  0  0  0
   11.3388    1.4276    0.0000 H   0  0  0  0  0  0  0  0  0  0  0  0
   10.9403    2.1178    0.0000 H   0  0  0  0  0  0  0  0  0  0  0  0
    8.3856    0.6429    0.0000 H   0  0  0  0  0  0  0  0  0  0  0  0
    8.7841   -0.0474    0.0000 H   0  0  0  0  0  0  0  0  0  0  0  0
    8.5287    2.5102    0.0000 H   0  0  0  0  0  0  0  0  0  0  0  0
    7.7316    2.5102    0.0000 H   0  0  0  0  0  0  0  0  0  0  0  0
    9.4637   -0.4397    0.0000 H   0  0  0  0  0  0  0  0  0  0  0  0
   10.2607   -0.4397    0.0000 H   0  0  0  0  0  0  0  0  0  0  0  0
    7.8010    1.2252    0.0000 H   0  0  0  0  0  0  0  0  0  0  0  0
    6.7966    2.5102    0.0000 H   0  0  0  0  0  0  0  0  0  0  0  0
    5.9996    2.5102    0.0000 H   0  0  0  0  0  0  0  0  0  0  0  0
    5.5321    2.1552    0.0000 H   0  0  0  0  0  0  0  0  0  0  0  0
   12.2048   -0.0725    0.0000 H   0  0  0  0  0  0  0  0  0  0  0  0
   11.8063    0.6178    0.0000 H   0  0  0  0  0  0  0  0  0  0  0  0
    4.0555    2.1429    0.0000 H   0  0  0  0  0  0  0  0  0  0  0  0
    4.4540    1.4526    0.0000 H   0  0  0  0  0  0  0  0  0  0  0  0
    4.1291   -0.6548    0.0000 H   0  0  0  0  0  0  0  0  0  0  0  0
    7.8010    0.2252    0.0000 H   0  0  0  0  0  0  0  0  0  0  0  0
    4.1291    0.3452    0.0000 H   0  0  0  0  0  0  0  0  0  0  0  0
   10.7282    4.1552    0.0000 H   0  0  0  0  0  0  0  0  0  0  0  0
    5.5321   -0.8448    0.0000 H   0  0  0  0  0  0  0  0  0  0  0  0
    5.7441   -3.0474    0.0000 H   0  0  0  0  0  0  0  0  0  0  0  0
    6.1426   -2.3571    0.0000 H   0  0  0  0  0  0  0  0  0  0  0  0
   11.1957    2.5603    0.0000 H   0  0  0  0  0  0  0  0  0  0  0  0
   11.9928    2.5603    0.0000 H   0  0  0  0  0  0  0  0  0  0  0  0
   10.1956   -1.3610    0.0000 H   0  0  0  0  0  0  0  0  0  0  0  0
    6.0690    3.2252    0.0000 H   0  0  0  0  0  0  0  0  0  0  0  0
    3.2631    3.2252    0.0000 H   0  0  0  0  0  0  0  0  0  0  0  0
    2.9132   -0.3102    0.0000 H   0  0  0  0  0  0  0  0  0  0  0  0
   10.7298   -3.0052    0.0000 H   0  0  0  0  0  0  0  0  0  0  0  0
    6.9350   -1.2748    0.0000 H   0  0  0  0  0  0  0  0  0  0  0  0
    2.9132   -3.6194    0.0000 H   0  0  0  0  0  0  0  0  0  0  0  0
    1.4643   -1.1319    0.0000 H   0  0  0  0  0  0  0  0  0  0  0  0
    6.0690    4.8452    0.0000 H   0  0  0  0  0  0  0  0  0  0  0  0
    3.2631    4.8452    0.0000 H   0  0  0  0  0  0  0  0  0  0  0  0
    1.4643   -2.7977    0.0000 H   0  0  0  0  0  0  0  0  0  0  0  0
    4.6660    5.6552    0.0000 H   0  0  0  0  0  0  0  0  0  0  0  0
   11.6587   -4.2910    0.0000 H   0  0  0  0  0  0  0  0  0  0  0  0
   13.9287   -2.6417    0.0000 H   0  0  0  0  0  0  0  0  0  0  0  0
   12.6109   -5.6016    0.0000 H   0  0  0  0  0  0  0  0  0  0  0  0
   14.8809   -3.9523    0.0000 H   0  0  0  0  0  0  0  0  0  0  0  0
  1 41  1  0  0  0  0
  2 41  1  0  0  0  0
  3 41  1  0  0  0  0
 20  4  1  1  0  0  0
  4 71  1  0  0  0  0
  5 24  2  0  0  0  0
  6 28  1  0  0  0  0
  6 39  1  0  0  0  0
  7 32  1  0  0  0  0
  7 35  1  0  0  0  0
  8 26  2  0  0  0  0
 29  9  1  6  0  0  0
  9 84  1  0  0  0  0
 10 15  1  0  0  0  0
 10 17  1  0  0  0  0
 10 18  1  0  0  0  0
 11 16  1  0  0  0  0
 11 19  1  0  0  0  0
 11 23  1  0  0  0  0
 12 24  1  0  0  0  0
 12 33  1  0  0  0  0
 12 73  1  0  0  0  0
 13 26  1  0  0  0  0
 13 27  1  0  0  0  0
 13 72  1  0  0  0  0
 14 51  2  0  0  0  0
 14 52  1  0  0  0  0
 15 16  1  0  0  0  0
 15 24  1  6  0  0  0
 15 53  1  0  0  0  0
 16 54  1  0  0  0  0
 16 55  1  0  0  0  0
 17 19  1  0  0  0  0
 17 56  1  0  0  0  0
 17 57  1  0  0  0  0
 18 20  1  0  0  0  0
 18 58  1  0  0  0  0
 18 59  1  0  0  0  0
 19 60  1  0  0  0  0
 19 61  1  0  0  0  0
 20 21  1  0  0  0  0
 20 62  1  0  0  0  0
 22 21  1  1  0  0  0
 21 63  1  0  0  0  0
 21 64  1  0  0  0  0
 22 25  1  0  0  0  0
 22 26  1  0  0  0  0
 22 65  1  0  0  0  0
 23 28  1  0  0  0  0
 23 66  1  0  0  0  0
 23 67  1  0  0  0  0
 25 30  1  0  0  0  0
 25 68  1  0  0  0  0
 25 69  1  0  0  0  0
 27 29  1  0  0  0  0
 27 31  1  0  0  0  0
 27 70  1  0  0  0  0
 28 34  2  0  0  0  0
 29 32  1  0  0  0  0
 29 74  1  0  0  0  0
 30 36  2  0  0  0  0
 30 37  1  0  0  0  0
 31 35  1  0  0  0  0
 31 38  2  0  0  0  0
 32 75  1  0  0  0  0
 32 76  1  0  0  0  0
 33 41  1  0  0  0  0
 33 77  1  0  0  0  0
 33 78  1  0  0  0  0
 34 40  1  0  0  0  0
 34 79  1  0  0  0  0
 35 42  2  0  0  0  0
 36 44  1  0  0  0  0
 36 80  1  0  0  0  0
 37 45  2  0  0  0  0
 37 81  1  0  0  0  0
 38 43  1  0  0  0  0
 38 82  1  0  0  0  0
 39 40  2  0  0  0  0
 39 47  1  0  0  0  0
 40 83  1  0  0  0  0
 42 46  1  0  0  0  0
 42 85  1  0  0  0  0
 43 46  2  0  0  0  0
 43 86  1  0  0  0  0
 44 48  2  0  0  0  0
 44 87  1  0  0  0  0
 45 48  1  0  0  0  0
 45 88  1  0  0  0  0
 46 89  1  0  0  0  0
 47 49  2  0  0  0  0
 47 50  1  0  0  0  0
 48 90  1  0  0  0  0
 49 51  1  0  0  0  0
 49 91  1  0  0  0  0
 50 52  2  0  0  0  0
 50 92  1  0  0  0  0
 51 93  1  0  0  0  0
 52 94  1  0  0  0  0
M  END
> <PUBCHEM_COMPOUND_CID>
512910
> <PUBCHEM_COMPOUND_CANONICALIZED>
1
> <PUBCHEM_CACTVS_COMPLEXITY>
1140
> <PUBCHEM_CACTVS_HBOND_ACCEPTOR>
12
> <PUBCHEM_CACTVS_HBOND_DONOR>
4
> <PUBCHEM_CACTVS_ROTATABLE_BOND>
13
> <PUBCHEM_CACTVS_SUBSKEYS>
AAADcfB/uYAAAAAAAAAAAAAAAAAAASAAAAA8eJECAAAAAACR9AAAHwAQCAAADTzhmhY8hpPIFkCoArF3VACCiCA1IiAI2KG+bNgPdnrE9buXeSjm1hHb6Yf+2fKOAAAAAAAIAAAAAAAAABAAAAAAAAAAAA==
> <PUBCHEM_IUPAC_OPENEYE_NAME>
(2S)-1-[(2S,4S)-4-benzyl-2-hydroxy-5-[[(3S)-3-hydroxychroman-4-yl]amino]-5-oxo-pentyl]-4-[[5-(4-pyridyl)-2-furyl]methyl]-N-(2,2,2-trifluoroethyl)piperazine-2-carboxamide
> <PUBCHEM_IUPAC_CAS_NAME>
(2S)-1-[(2S,4S)-2-hydroxy-5-[[(3S)-3-hydroxy-3,4-dihydro-2H-1-benzopyran-4-yl]amino]-5-oxo-4-(phenylmethyl)pentyl]-4-[(5-pyridin-4-yl-2-furanyl)methyl]-N-(2,2,2-trifluoroethyl)-2-piperazinecarboxamide
> <PUBCHEM_IUPAC_NAME_MARKUP>
(2<I>S</I>)-1-[(2<I>S</I>,4<I>S</I>)-4-benzyl-2-hydroxy-5-[[(3<I>S</I>)-3-hydroxy-3,4-dihydro-2<I>H</I>-chromen-4-yl]amino]-5-oxopentyl]-4-[(5-pyridin-4-ylfuran-2-yl)methyl]-<I>N</I>-(2,2,2-trifluoroethyl)piperazine-2-carboxamide
> <PUBCHEM_IUPAC_NAME>
(2S)-1-[(2S,4S)-4-benzyl-2-hydroxy-5-[[(3S)-3-hydroxy-3,4-dihydro-2H-chromen-4-yl]amino]-5-oxopentyl]-4-[(5-pyridin-4-ylfuran-2-yl)methyl]-N-(2,2,2-trifluoroethyl)piperazine-2-carboxamide
> <PUBCHEM_IUPAC_SYSTEMATIC_NAME>
(2S)-1-[(2S,4S)-2-oxidanyl-5-[[(3S)-3-oxidanyl-3,4-dihydro-2H-chromen-4-yl]amino]-5-oxidanylidene-4-(phenylmethyl)pentyl]-4-[(5-pyridin-4-ylfuran-2-yl)methyl]-N-[2,2,2-tris(fluoranyl)ethyl]piperazine-2-carboxamide
> <PUBCHEM_IUPAC_TRADITIONAL_NAME>
(2S)-1-[(2S,4S)-4-benzyl-2-hydroxy-5-[[(3S)-3-hydroxychroman-4-yl]amino]-5-keto-pentyl]-4-[[5-(4-pyridyl)-2-furyl]methyl]-N-(2,2,2-trifluoroethyl)piperazine-2-carboxamide
> <PUBCHEM_IUPAC_INCHI>
InChI=1S/C38H42F3N5O6/c39-38(40,41)24-43-37(50)31-22-45(21-29-10-11-33(52-29)26-12-14-42-15-13-26)16-17-46(31)20-28(47)19-27(18-25-6-2-1-3-7-25)36(49)44-35-30-8-4-5-9-34(30)51-23-32(35)48/h1-15,27-28,31-32,35,47-48H,16-24H2,(H,43,50)(H,44,49)/t27-,28-,31-,32+,35?/m0/s1
> <PUBCHEM_IUPAC_INCHIKEY>
LJMLRDFXBGZNOB-GYNZZKASSA-N
> <PUBCHEM_XLOGP3_AA>
3.4
> <PUBCHEM_EXACT_MASS>
721.30871856
> <PUBCHEM_MOLECULAR_FORMULA>
C38H42F3N5O6
> <PUBCHEM_MOLECULAR_WEIGHT>
721.8
> <PUBCHEM_OPENEYE_CAN_SMILES>
C1CN(C(CN1CC2=CC=C(O2)C3=CC=NC=C3)C(=O)NCC(F)(F)F)CC(CC(CC4=CC=CC=C4)C(=O)NC5C(COC6=CC=CC=C56)O)O
> <PUBCHEM_OPENEYE_ISO_SMILES>
C1CN([C@@H](CN1CC2=CC=C(O2)C3=CC=NC=C3)C(=O)NCC(F)(F)F)C[C@H](C[C@H](CC4=CC=CC=C4)C(=O)NC5[C@@H](COC6=CC=CC=C56)O)O
> <PUBCHEM_CACTVS_TPSA>
140
> <PUBCHEM_MONOISOTOPIC_WEIGHT>
721.30871856
> <PUBCHEM_TOTAL_CHARGE>
0
> <PUBCHEM_HEAVY_ATOM_COUNT>
52
> <PUBCHEM_ATOM_DEF_STEREO_COUNT>
4
> <PUBCHEM_ATOM_UDEF_STEREO_COUNT>
1
> <PUBCHEM_BOND_DEF_STEREO_COUNT>
0
> <PUBCHEM_BOND_UDEF_STEREO_COUNT>
0
> <PUBCHEM_ISOTOPIC_ATOM_COUNT>
0
> <PUBCHEM_COMPONENT_COUNT>
1
> <PUBCHEM_CACTVS_TAUTO_COUNT>
-1
> <PUBCHEM_COORDINATE_TYPE>
1
5
255
> <PUBCHEM_BONDANNOTATIONS>
27  13  3
14  51  8
14  52  8
15  24  6
22  21  5
28  34  8
30  36  8
30  37  8
31  35  8
31  38  8
34  40  8
35  42  8
36  44  8
37  45  8
38  43  8
39  40  8
20  4  5
42  46  8
43  46  8
44  48  8
45  48  8
47  49  8
47  50  8
49  51  8
50  52  8
6  28  8
6  39  8
29  9  6
$$$$
