512949
  -OEChem-10302200282D
 49 50  0     1  0  0  0  0  0999 V2000
    6.0010   -1.0000    0.0000 O   0  0  0  0  0  0  0  0  0  0  0  0
    7.7331    2.0000    0.0000 O   0  0  0  0  0  0  0  0  0  0  0  0
    7.7331   -2.0000    0.0000 O   0  0  0  0  0  0  0  0  0  0  0  0
    5.1350    0.5000    0.0000 O   0  0  0  0  0  0  0  0  0  0  0  0
    5.1350   -2.5000    0.0000 O   0  0  0  0  0  0  0  0  0  0  0  0
    3.4030   -0.5000    0.0000 N   0  0  0  0  0  0  0  0  0  0  0  0
    2.5369   -1.0000    0.0000 N   0  0  0  0  0  0  0  0  0  0  0  0
    6.8671    0.5000    0.0000 C   0  0  0  0  0  0  0  0  0  0  0  0
    6.8671   -0.5000    0.0000 C   0  0  0  0  0  0  0  0  0  0  0  0
    8.5991    0.5000    0.0000 C   0  0  0  0  0  0  0  0  0  0  0  0
    8.5991   -0.5000    0.0000 C   0  0  0  0  0  0  0  0  0  0  0  0
    6.0010    1.0000    0.0000 C   0  0  0  0  0  0  0  0  0  0  0  0
    7.7331    1.0000    0.0000 C   0  0  0  0  0  0  0  0  0  0  0  0
    7.7331   -1.0000    0.0000 C   0  0  0  0  0  0  0  0  0  0  0  0
    4.2690   -1.0000    0.0000 C   0  0  3  0  0  0  0  0  0  0  0  0
    9.4931    1.0347    0.0000 C   0  0  0  0  0  0  0  0  0  0  0  0
    9.4931   -1.0347    0.0000 C   0  0  0  0  0  0  0  0  0  0  0  0
    6.0010    2.0000    0.0000 C   0  0  0  0  0  0  0  0  0  0  0  0
    5.1350   -0.5000    0.0000 C   0  0  0  0  0  0  0  0  0  0  0  0
    4.2690   -2.0000    0.0000 C   0  0  0  0  0  0  0  0  0  0  0  0
   10.3991    0.5208    0.0000 C   0  0  0  0  0  0  0  0  0  0  0  0
   10.3991   -0.5208    0.0000 C   0  0  0  0  0  0  0  0  0  0  0  0
    5.1350    2.5000    0.0000 C   0  0  0  0  0  0  0  0  0  0  0  0
    3.4030   -2.5000    0.0000 C   0  0  0  0  0  0  0  0  0  0  0  0
    3.4030   -3.5000    0.0000 C   0  0  0  0  0  0  0  0  0  0  0  0
    5.1350    3.5000    0.0000 C   0  0  0  0  0  0  0  0  0  0  0  0
    4.2690    2.0000    0.0000 C   0  0  0  0  0  0  0  0  0  0  0  0
    5.3905    1.1077    0.0000 H   0  0  0  0  0  0  0  0  0  0  0  0
    5.7890    0.4174    0.0000 H   0  0  0  0  0  0  0  0  0  0  0  0
    4.2690   -0.3800    0.0000 H   0  0  0  0  0  0  0  0  0  0  0  0
    9.4859    1.6546    0.0000 H   0  0  0  0  0  0  0  0  0  0  0  0
    9.4859   -1.6546    0.0000 H   0  0  0  0  0  0  0  0  0  0  0  0
    6.5380    2.3100    0.0000 H   0  0  0  0  0  0  0  0  0  0  0  0
   10.9349    0.8329    0.0000 H   0  0  0  0  0  0  0  0  0  0  0  0
   10.9349   -0.8329    0.0000 H   0  0  0  0  0  0  0  0  0  0  0  0
    3.1909   -1.9174    0.0000 H   0  0  0  0  0  0  0  0  0  0  0  0
    2.7924   -2.6077    0.0000 H   0  0  0  0  0  0  0  0  0  0  0  0
    3.4030    0.1200    0.0000 H   0  0  0  0  0  0  0  0  0  0  0  0
    2.7830   -3.5000    0.0000 H   0  0  0  0  0  0  0  0  0  0  0  0
    3.4030   -4.1200    0.0000 H   0  0  0  0  0  0  0  0  0  0  0  0
    4.0230   -3.5000    0.0000 H   0  0  0  0  0  0  0  0  0  0  0  0
    5.7550    3.5000    0.0000 H   0  0  0  0  0  0  0  0  0  0  0  0
    5.1350    4.1200    0.0000 H   0  0  0  0  0  0  0  0  0  0  0  0
    4.5150    3.5000    0.0000 H   0  0  0  0  0  0  0  0  0  0  0  0
    3.9590    2.5369    0.0000 H   0  0  0  0  0  0  0  0  0  0  0  0
    3.7320    1.6900    0.0000 H   0  0  0  0  0  0  0  0  0  0  0  0
    4.5790    1.4631    0.0000 H   0  0  0  0  0  0  0  0  0  0  0  0
    2.0000   -0.6900    0.0000 H   0  0  0  0  0  0  0  0  0  0  0  0
    2.5369   -1.6200    0.0000 H   0  0  0  0  0  0  0  0  0  0  0  0
  1  9  1  0  0  0  0
  1 19  1  0  0  0  0
  2 13  2  0  0  0  0
  3 14  2  0  0  0  0
  4 19  2  0  0  0  0
  5 20  2  0  0  0  0
  6  7  1  0  0  0  0
  6 15  1  0  0  0  0
  6 38  1  0  0  0  0
  7 48  1  0  0  0  0
  7 49  1  0  0  0  0
  8  9  2  0  0  0  0
  8 12  1  0  0  0  0
  8 13  1  0  0  0  0
  9 14  1  0  0  0  0
 10 11  1  0  0  0  0
 10 13  1  0  0  0  0
 10 16  2  0  0  0  0
 11 14  1  0  0  0  0
 11 17  2  0  0  0  0
 12 18  1  0  0  0  0
 12 28  1  0  0  0  0
 12 29  1  0  0  0  0
 15 19  1  0  0  0  0
 15 20  1  0  0  0  0
 15 30  1  0  0  0  0
 16 21  1  0  0  0  0
 16 31  1  0  0  0  0
 17 22  1  0  0  0  0
 17 32  1  0  0  0  0
 18 23  2  0  0  0  0
 18 33  1  0  0  0  0
 20 24  1  0  0  0  0
 21 22  2  0  0  0  0
 21 34  1  0  0  0  0
 22 35  1  0  0  0  0
 23 26  1  0  0  0  0
 23 27  1  0  0  0  0
 24 25  1  0  0  0  0
 24 36  1  0  0  0  0
 24 37  1  0  0  0  0
 25 39  1  0  0  0  0
 25 40  1  0  0  0  0
 25 41  1  0  0  0  0
 26 42  1  0  0  0  0
 26 43  1  0  0  0  0
 26 44  1  0  0  0  0
 27 45  1  0  0  0  0
 27 46  1  0  0  0  0
 27 47  1  0  0  0  0
M  END
> <PUBCHEM_COMPOUND_CID>
512949
> <PUBCHEM_COMPOUND_CANONICALIZED>
1
> <PUBCHEM_CACTVS_COMPLEXITY>
703
> <PUBCHEM_CACTVS_HBOND_ACCEPTOR>
7
> <PUBCHEM_CACTVS_HBOND_DONOR>
2
> <PUBCHEM_CACTVS_ROTATABLE_BOND>
8
> <PUBCHEM_CACTVS_SUBSKEYS>
AAADceB7OAAAAAAAAAAAAAAAAAAAAAAAAAAwQAAAAAAAAACBAAAAHgAYAAAADCzBmAQyCIBiBACIAqDSCAICCAAkIAIYqIHAAMgKIDaIlRSDIQAk4AEIiYeJzOCOgAAAAAAQAAAAAAAAACAAAAAAAAAAAA==
> <PUBCHEM_IUPAC_OPENEYE_NAME>
[3-(3-methylbut-2-enyl)-1,4-dioxo-2-naphthyl] 2-hydrazino-3-oxo-pentanoate
> <PUBCHEM_IUPAC_CAS_NAME>
2-hydrazinyl-3-oxopentanoic acid [3-(3-methylbut-2-enyl)-1,4-dioxo-2-naphthalenyl] ester
> <PUBCHEM_IUPAC_NAME_MARKUP>
[3-(3-methylbut-2-enyl)-1,4-dioxonaphthalen-2-yl] 2-hydrazinyl-3-oxopentanoate
> <PUBCHEM_IUPAC_NAME>
[3-(3-methylbut-2-enyl)-1,4-dioxonaphthalen-2-yl] 2-hydrazinyl-3-oxopentanoate
> <PUBCHEM_IUPAC_SYSTEMATIC_NAME>
[3-(3-methylbut-2-enyl)-1,4-bis(oxidanylidene)naphthalen-2-yl] 2-diazanyl-3-oxidanylidene-pentanoate
> <PUBCHEM_IUPAC_TRADITIONAL_NAME>
2-hydrazino-3-keto-valeric acid [1,4-diketo-3-(3-methylbut-2-enyl)-2-naphthyl] ester
> <PUBCHEM_IUPAC_INCHI>
InChI=1S/C20H22N2O5/c1-4-15(23)16(22-21)20(26)27-19-14(10-9-11(2)3)17(24)12-7-5-6-8-13(12)18(19)25/h5-9,16,22H,4,10,21H2,1-3H3
> <PUBCHEM_IUPAC_INCHIKEY>
FXQHWNMPHXWARI-UHFFFAOYSA-N
> <PUBCHEM_XLOGP3_AA>
2.6
> <PUBCHEM_EXACT_MASS>
370.15287181
> <PUBCHEM_MOLECULAR_FORMULA>
C20H22N2O5
> <PUBCHEM_MOLECULAR_WEIGHT>
370.4
> <PUBCHEM_OPENEYE_CAN_SMILES>
CCC(=O)C(C(=O)OC1=C(C(=O)C2=CC=CC=C2C1=O)CC=C(C)C)NN
> <PUBCHEM_OPENEYE_ISO_SMILES>
CCC(=O)C(C(=O)OC1=C(C(=O)C2=CC=CC=C2C1=O)CC=C(C)C)NN
> <PUBCHEM_CACTVS_TPSA>
116
> <PUBCHEM_MONOISOTOPIC_WEIGHT>
370.15287181
> <PUBCHEM_TOTAL_CHARGE>
0
> <PUBCHEM_HEAVY_ATOM_COUNT>
27
> <PUBCHEM_ATOM_DEF_STEREO_COUNT>
0
> <PUBCHEM_ATOM_UDEF_STEREO_COUNT>
1
> <PUBCHEM_BOND_DEF_STEREO_COUNT>
0
> <PUBCHEM_BOND_UDEF_STEREO_COUNT>
0
> <PUBCHEM_ISOTOPIC_ATOM_COUNT>
0
> <PUBCHEM_COMPONENT_COUNT>
1
> <PUBCHEM_CACTVS_TAUTO_COUNT>
-1
> <PUBCHEM_COORDINATE_TYPE>
1
5
255
> <PUBCHEM_BONDANNOTATIONS>
10  11  8
10  16  8
11  17  8
15  20  3
16  21  8
17  22  8
21  22  8
$$$$
