512950
  -OEChem-10302200282D
 35 37  0     1  0  0  0  0  0999 V2000
    3.3660   -2.1160    0.0000 O   0  0  0  0  0  0  0  0  0  0  0  0
    3.8660    0.7500    0.0000 O   0  0  0  0  0  0  0  0  0  0  0  0
    5.5981   -2.2500    0.0000 O   0  0  0  0  0  0  0  0  0  0  0  0
    5.5981    1.7500    0.0000 O   0  0  0  0  0  0  0  0  0  0  0  0
    4.7320    2.2500    0.0000 O   0  0  0  0  0  0  0  0  0  0  0  0
    2.8660   -1.2500    0.0000 C   0  0  0  0  0  0  0  0  0  0  0  0
    3.8660   -1.2500    0.0000 C   0  0  3  0  0  0  0  0  0  0  0  0
    4.7320   -0.7500    0.0000 C   0  0  0  0  0  0  0  0  0  0  0  0
    2.0000   -1.7500    0.0000 C   0  0  0  0  0  0  0  0  0  0  0  0
    2.8660   -0.2500    0.0000 C   0  0  0  0  0  0  0  0  0  0  0  0
    4.7320    0.2500    0.0000 C   0  0  0  0  0  0  0  0  0  0  0  0
    5.5981   -1.2500    0.0000 C   0  0  0  0  0  0  0  0  0  0  0  0
    6.4641   -0.7500    0.0000 C   0  0  0  0  0  0  0  0  0  0  0  0
    5.5981    0.7500    0.0000 C   0  0  0  0  0  0  0  0  0  0  0  0
    6.4641    0.2500    0.0000 C   0  0  0  0  0  0  0  0  0  0  0  0
    7.3580   -1.2847    0.0000 C   0  0  0  0  0  0  0  0  0  0  0  0
    7.3580    0.7847    0.0000 C   0  0  0  0  0  0  0  0  0  0  0  0
    8.2641   -0.7708    0.0000 C   0  0  0  0  0  0  0  0  0  0  0  0
    8.2641    0.2708    0.0000 C   0  0  0  0  0  0  0  0  0  0  0  0
    3.8660    1.7500    0.0000 C   0  0  0  0  0  0  0  0  0  0  0  0
    3.0000    2.2500    0.0000 C   0  0  0  0  0  0  0  0  0  0  0  0
    3.7056   -0.6511    0.0000 H   0  0  0  0  0  0  0  0  0  0  0  0
    1.6900   -1.2131    0.0000 H   0  0  0  0  0  0  0  0  0  0  0  0
    1.4631   -2.0600    0.0000 H   0  0  0  0  0  0  0  0  0  0  0  0
    2.3100   -2.2869    0.0000 H   0  0  0  0  0  0  0  0  0  0  0  0
    3.4860   -0.2500    0.0000 H   0  0  0  0  0  0  0  0  0  0  0  0
    2.8660    0.3700    0.0000 H   0  0  0  0  0  0  0  0  0  0  0  0
    2.2460   -0.2500    0.0000 H   0  0  0  0  0  0  0  0  0  0  0  0
    7.3509   -1.9046    0.0000 H   0  0  0  0  0  0  0  0  0  0  0  0
    7.3509    1.4046    0.0000 H   0  0  0  0  0  0  0  0  0  0  0  0
    8.7998   -1.0829    0.0000 H   0  0  0  0  0  0  0  0  0  0  0  0
    8.7998    0.5829    0.0000 H   0  0  0  0  0  0  0  0  0  0  0  0
    3.3100    2.7869    0.0000 H   0  0  0  0  0  0  0  0  0  0  0  0
    2.4631    2.5600    0.0000 H   0  0  0  0  0  0  0  0  0  0  0  0
    2.6900    1.7131    0.0000 H   0  0  0  0  0  0  0  0  0  0  0  0
  1  6  1  0  0  0  0
  1  7  1  0  0  0  0
  2 11  1  0  0  0  0
  2 20  1  0  0  0  0
  3 12  2  0  0  0  0
  4 14  2  0  0  0  0
  5 20  2  0  0  0  0
  6  7  1  0  0  0  0
  6  9  1  0  0  0  0
  6 10  1  0  0  0  0
  7  8  1  0  0  0  0
  7 22  1  0  0  0  0
  8 11  2  0  0  0  0
  8 12  1  0  0  0  0
  9 23  1  0  0  0  0
  9 24  1  0  0  0  0
  9 25  1  0  0  0  0
 10 26  1  0  0  0  0
 10 27  1  0  0  0  0
 10 28  1  0  0  0  0
 11 14  1  0  0  0  0
 12 13  1  0  0  0  0
 13 15  1  0  0  0  0
 13 16  2  0  0  0  0
 14 15  1  0  0  0  0
 15 17  2  0  0  0  0
 16 18  1  0  0  0  0
 16 29  1  0  0  0  0
 17 19  1  0  0  0  0
 17 30  1  0  0  0  0
 18 19  2  0  0  0  0
 18 31  1  0  0  0  0
 19 32  1  0  0  0  0
 20 21  1  0  0  0  0
 21 33  1  0  0  0  0
 21 34  1  0  0  0  0
 21 35  1  0  0  0  0
M  END
> <PUBCHEM_COMPOUND_CID>
512950
> <PUBCHEM_COMPOUND_CANONICALIZED>
1
> <PUBCHEM_CACTVS_COMPLEXITY>
557
> <PUBCHEM_CACTVS_HBOND_ACCEPTOR>
5
> <PUBCHEM_CACTVS_HBOND_DONOR>
0
> <PUBCHEM_CACTVS_ROTATABLE_BOND>
3
> <PUBCHEM_CACTVS_SUBSKEYS>
AAADccB4OAAAAAAAAAAAAAAAEgAAAAAAAAAwQAAAAAAAAACBAAAAGgAAAAAADFSgmAIyCIAABACIAqDSCAICCAAkIAAIiAFAAMgIJDaANRSCMQAk4AEIqYeLzPCOgAAAAAAQAAAAAAAAACAAAAAAAAAAAA==
> <PUBCHEM_IUPAC_OPENEYE_NAME>
[3-(3,3-dimethyloxiran-2-yl)-1,4-dioxo-2-naphthyl] acetate
> <PUBCHEM_IUPAC_CAS_NAME>
acetic acid [3-(3,3-dimethyl-2-oxiranyl)-1,4-dioxo-2-naphthalenyl] ester
> <PUBCHEM_IUPAC_NAME_MARKUP>
[3-(3,3-dimethyloxiran-2-yl)-1,4-dioxonaphthalen-2-yl] acetate
> <PUBCHEM_IUPAC_NAME>
[3-(3,3-dimethyloxiran-2-yl)-1,4-dioxonaphthalen-2-yl] acetate
> <PUBCHEM_IUPAC_SYSTEMATIC_NAME>
[3-(3,3-dimethyloxiran-2-yl)-1,4-bis(oxidanylidene)naphthalen-2-yl] ethanoate
> <PUBCHEM_IUPAC_TRADITIONAL_NAME>
acetic acid [3-(3,3-dimethyloxiran-2-yl)-1,4-diketo-2-naphthyl] ester
> <PUBCHEM_IUPAC_INCHI>
InChI=1S/C16H14O5/c1-8(17)20-14-11(15-16(2,3)21-15)12(18)9-6-4-5-7-10(9)13(14)19/h4-7,15H,1-3H3
> <PUBCHEM_IUPAC_INCHIKEY>
OCJLZYRXVWUITF-UHFFFAOYSA-N
> <PUBCHEM_XLOGP3_AA>
1.5
> <PUBCHEM_EXACT_MASS>
286.08412354
> <PUBCHEM_MOLECULAR_FORMULA>
C16H14O5
> <PUBCHEM_MOLECULAR_WEIGHT>
286.28
> <PUBCHEM_OPENEYE_CAN_SMILES>
CC(=O)OC1=C(C(=O)C2=CC=CC=C2C1=O)C3C(O3)(C)C
> <PUBCHEM_OPENEYE_ISO_SMILES>
CC(=O)OC1=C(C(=O)C2=CC=CC=C2C1=O)C3C(O3)(C)C
> <PUBCHEM_CACTVS_TPSA>
73
> <PUBCHEM_MONOISOTOPIC_WEIGHT>
286.08412354
> <PUBCHEM_TOTAL_CHARGE>
0
> <PUBCHEM_HEAVY_ATOM_COUNT>
21
> <PUBCHEM_ATOM_DEF_STEREO_COUNT>
0
> <PUBCHEM_ATOM_UDEF_STEREO_COUNT>
1
> <PUBCHEM_BOND_DEF_STEREO_COUNT>
0
> <PUBCHEM_BOND_UDEF_STEREO_COUNT>
0
> <PUBCHEM_ISOTOPIC_ATOM_COUNT>
0
> <PUBCHEM_COMPONENT_COUNT>
1
> <PUBCHEM_CACTVS_TAUTO_COUNT>
-1
> <PUBCHEM_COORDINATE_TYPE>
1
5
255
> <PUBCHEM_BONDANNOTATIONS>
13  15  8
13  16  8
15  17  8
16  18  8
17  19  8
18  19  8
7  8  3
$$$$
