512951
  -OEChem-10302200282D
 41 42  0     1  0  0  0  0  0999 V2000
    2.0000   -1.6900    0.0000 O   0  0  0  0  0  0  0  0  0  0  0  0
    3.7320    0.3100    0.0000 O   0  0  0  0  0  0  0  0  0  0  0  0
    4.5981    0.8100    0.0000 O   0  0  0  0  0  0  0  0  0  0  0  0
    6.3301   -2.1900    0.0000 O   0  0  0  0  0  0  0  0  0  0  0  0
    6.3301    1.8100    0.0000 O   0  0  0  0  0  0  0  0  0  0  0  0
    5.4641    2.3100    0.0000 O   0  0  0  0  0  0  0  0  0  0  0  0
    2.8660   -1.1900    0.0000 C   0  0  0  0  0  0  0  0  0  0  0  0
    3.7320   -0.6900    0.0000 C   0  0  3  0  0  0  0  0  0  0  0  0
    4.5981   -1.1900    0.0000 C   0  0  0  0  0  0  0  0  0  0  0  0
    5.4641   -0.6900    0.0000 C   0  0  0  0  0  0  0  0  0  0  0  0
    2.3660   -0.3240    0.0000 C   0  0  0  0  0  0  0  0  0  0  0  0
    3.3660   -2.0560    0.0000 C   0  0  0  0  0  0  0  0  0  0  0  0
    5.4641    0.3100    0.0000 C   0  0  0  0  0  0  0  0  0  0  0  0
    6.3301   -1.1900    0.0000 C   0  0  0  0  0  0  0  0  0  0  0  0
    7.1962   -0.6900    0.0000 C   0  0  0  0  0  0  0  0  0  0  0  0
    7.1962    0.3100    0.0000 C   0  0  0  0  0  0  0  0  0  0  0  0
    6.3301    0.8100    0.0000 C   0  0  0  0  0  0  0  0  0  0  0  0
    8.0901   -1.2247    0.0000 C   0  0  0  0  0  0  0  0  0  0  0  0
    8.0901    0.8447    0.0000 C   0  0  0  0  0  0  0  0  0  0  0  0
    8.9962   -0.7108    0.0000 C   0  0  0  0  0  0  0  0  0  0  0  0
    8.9962    0.3308    0.0000 C   0  0  0  0  0  0  0  0  0  0  0  0
    4.5981    1.8100    0.0000 C   0  0  0  0  0  0  0  0  0  0  0  0
    3.7320    2.3100    0.0000 C   0  0  0  0  0  0  0  0  0  0  0  0
    4.2690   -0.3800    0.0000 H   0  0  0  0  0  0  0  0  0  0  0  0
    4.1996   -1.6650    0.0000 H   0  0  0  0  0  0  0  0  0  0  0  0
    4.9966   -1.6650    0.0000 H   0  0  0  0  0  0  0  0  0  0  0  0
    2.9030   -0.0140    0.0000 H   0  0  0  0  0  0  0  0  0  0  0  0
    2.0560    0.2130    0.0000 H   0  0  0  0  0  0  0  0  0  0  0  0
    1.8291   -0.6340    0.0000 H   0  0  0  0  0  0  0  0  0  0  0  0
    2.8291   -2.3660    0.0000 H   0  0  0  0  0  0  0  0  0  0  0  0
    3.6760   -2.5930    0.0000 H   0  0  0  0  0  0  0  0  0  0  0  0
    3.9030   -1.7460    0.0000 H   0  0  0  0  0  0  0  0  0  0  0  0
    2.0000   -2.3100    0.0000 H   0  0  0  0  0  0  0  0  0  0  0  0
    3.1951    0.6200    0.0000 H   0  0  0  0  0  0  0  0  0  0  0  0
    8.0829   -1.8446    0.0000 H   0  0  0  0  0  0  0  0  0  0  0  0
    8.0829    1.4646    0.0000 H   0  0  0  0  0  0  0  0  0  0  0  0
    9.5319   -1.0229    0.0000 H   0  0  0  0  0  0  0  0  0  0  0  0
    9.5319    0.6429    0.0000 H   0  0  0  0  0  0  0  0  0  0  0  0
    4.0420    2.8469    0.0000 H   0  0  0  0  0  0  0  0  0  0  0  0
    3.1951    2.6200    0.0000 H   0  0  0  0  0  0  0  0  0  0  0  0
    3.4220    1.7731    0.0000 H   0  0  0  0  0  0  0  0  0  0  0  0
  1  7  1  0  0  0  0
  1 33  1  0  0  0  0
  2  8  1  0  0  0  0
  2 34  1  0  0  0  0
  3 13  1  0  0  0  0
  3 22  1  0  0  0  0
  4 14  2  0  0  0  0
  5 17  2  0  0  0  0
  6 22  2  0  0  0  0
  7  8  1  0  0  0  0
  7 11  1  0  0  0  0
  7 12  1  0  0  0  0
  8  9  1  0  0  0  0
  8 24  1  0  0  0  0
  9 10  1  0  0  0  0
  9 25  1  0  0  0  0
  9 26  1  0  0  0  0
 10 13  2  0  0  0  0
 10 14  1  0  0  0  0
 11 27  1  0  0  0  0
 11 28  1  0  0  0  0
 11 29  1  0  0  0  0
 12 30  1  0  0  0  0
 12 31  1  0  0  0  0
 12 32  1  0  0  0  0
 13 17  1  0  0  0  0
 14 15  1  0  0  0  0
 15 16  1  0  0  0  0
 15 18  2  0  0  0  0
 16 17  1  0  0  0  0
 16 19  2  0  0  0  0
 18 20  1  0  0  0  0
 18 35  1  0  0  0  0
 19 21  1  0  0  0  0
 19 36  1  0  0  0  0
 20 21  2  0  0  0  0
 20 37  1  0  0  0  0
 21 38  1  0  0  0  0
 22 23  1  0  0  0  0
 23 39  1  0  0  0  0
 23 40  1  0  0  0  0
 23 41  1  0  0  0  0
M  END
> <PUBCHEM_COMPOUND_CID>
512951
> <PUBCHEM_COMPOUND_CANONICALIZED>
1
> <PUBCHEM_CACTVS_COMPLEXITY>
559
> <PUBCHEM_CACTVS_HBOND_ACCEPTOR>
6
> <PUBCHEM_CACTVS_HBOND_DONOR>
2
> <PUBCHEM_CACTVS_ROTATABLE_BOND>
5
> <PUBCHEM_CACTVS_SUBSKEYS>
AAADceB4OAAAAAAAAAAAAAAAAAAAAAAAAAAwQAAAAAAAAACBAAAAGgAACAAADFSgmAIyCIAABgCIAqDSCAICCAAkIAAIiAFAAMgJMDKAFRSCYQAkwAEJiYeLzPDOgAAAAAAQAAAAAAAAACAAAAAAAAAAAA==
> <PUBCHEM_IUPAC_OPENEYE_NAME>
[3-(2,3-dihydroxy-3-methyl-butyl)-1,4-dioxo-2-naphthyl] acetate
> <PUBCHEM_IUPAC_CAS_NAME>
acetic acid [3-(2,3-dihydroxy-3-methylbutyl)-1,4-dioxo-2-naphthalenyl] ester
> <PUBCHEM_IUPAC_NAME_MARKUP>
[3-(2,3-dihydroxy-3-methylbutyl)-1,4-dioxonaphthalen-2-yl] acetate
> <PUBCHEM_IUPAC_NAME>
[3-(2,3-dihydroxy-3-methylbutyl)-1,4-dioxonaphthalen-2-yl] acetate
> <PUBCHEM_IUPAC_SYSTEMATIC_NAME>
[3-[3-methyl-2,3-bis(oxidanyl)butyl]-1,4-bis(oxidanylidene)naphthalen-2-yl] ethanoate
> <PUBCHEM_IUPAC_TRADITIONAL_NAME>
acetic acid [3-(2,3-dihydroxy-3-methyl-butyl)-1,4-diketo-2-naphthyl] ester
> <PUBCHEM_IUPAC_INCHI>
InChI=1S/C17H18O6/c1-9(18)23-16-12(8-13(19)17(2,3)22)14(20)10-6-4-5-7-11(10)15(16)21/h4-7,13,19,22H,8H2,1-3H3
> <PUBCHEM_IUPAC_INCHIKEY>
FAPWNEDDKYIPJV-UHFFFAOYSA-N
> <PUBCHEM_XLOGP3_AA>
1
> <PUBCHEM_EXACT_MASS>
318.11033829
> <PUBCHEM_MOLECULAR_FORMULA>
C17H18O6
> <PUBCHEM_MOLECULAR_WEIGHT>
318.32
> <PUBCHEM_OPENEYE_CAN_SMILES>
CC(=O)OC1=C(C(=O)C2=CC=CC=C2C1=O)CC(C(C)(C)O)O
> <PUBCHEM_OPENEYE_ISO_SMILES>
CC(=O)OC1=C(C(=O)C2=CC=CC=C2C1=O)CC(C(C)(C)O)O
> <PUBCHEM_CACTVS_TPSA>
101
> <PUBCHEM_MONOISOTOPIC_WEIGHT>
318.11033829
> <PUBCHEM_TOTAL_CHARGE>
0
> <PUBCHEM_HEAVY_ATOM_COUNT>
23
> <PUBCHEM_ATOM_DEF_STEREO_COUNT>
0
> <PUBCHEM_ATOM_UDEF_STEREO_COUNT>
1
> <PUBCHEM_BOND_DEF_STEREO_COUNT>
0
> <PUBCHEM_BOND_UDEF_STEREO_COUNT>
0
> <PUBCHEM_ISOTOPIC_ATOM_COUNT>
0
> <PUBCHEM_COMPONENT_COUNT>
1
> <PUBCHEM_CACTVS_TAUTO_COUNT>
-1
> <PUBCHEM_COORDINATE_TYPE>
1
5
255
> <PUBCHEM_BONDANNOTATIONS>
15  16  8
15  18  8
16  19  8
18  20  8
19  21  8
8  2  3
20  21  8
$$$$
