513026
  -OEChem-10302200282D
 48 51  0     1  0  0  0  0  0999 V2000
    2.0000   -0.6962    0.0000 Cl  0  0  0  0  0  0  0  0  0  0  0  0
    2.0000   -2.6962    0.0000 Cl  0  0  0  0  0  0  0  0  0  0  0  0
    7.1279   -1.6962    0.0000 S   0  0  0  0  0  0  0  0  0  0  0  0
    5.2686    0.8691    0.0000 O   0  0  0  0  0  0  0  0  0  0  0  0
    7.6146   -0.2228    0.0000 O   0  0  0  0  0  0  0  0  0  0  0  0
    7.6183    1.9528    0.0000 O   0  0  0  0  0  0  0  0  0  0  0  0
    4.5726    2.8383    0.0000 O   0  0  0  0  0  0  0  0  0  0  0  0
   12.1279   -3.4283    0.0000 O   0  5  0  0  0  0  0  0  0  0  0  0
   12.1279   -1.6962    0.0000 O   0  0  0  0  0  0  0  0  0  0  0  0
    5.5443   -0.8915    0.0000 N   0  0  0  0  0  0  0  0  0  0  0  0
    5.5443   -2.5009    0.0000 N   0  0  0  0  0  0  0  0  0  0  0  0
   11.6279   -2.5622    0.0000 N   0  3  0  0  0  0  0  0  0  0  0  0
    5.8550    0.0590    0.0000 C   0  0  1  0  0  0  0  0  0  0  0  0
    6.8066    0.3664    0.0000 C   0  0  1  0  0  0  0  0  0  0  0  0
    6.8083    1.3664    0.0000 C   0  0  1  0  0  0  0  0  0  0  0  0
    5.8578    1.6771    0.0000 C   0  0  1  0  0  0  0  0  0  0  0  0
    5.5504    2.6287    0.0000 C   0  0  0  0  0  0  0  0  0  0  0  0
    4.5981   -1.1962    0.0000 C   0  0  0  0  0  0  0  0  0  0  0  0
    6.1279   -1.6962    0.0000 C   0  0  0  0  0  0  0  0  0  0  0  0
    4.5981   -2.1962    0.0000 C   0  0  0  0  0  0  0  0  0  0  0  0
    3.7320   -0.6962    0.0000 C   0  0  0  0  0  0  0  0  0  0  0  0
    3.7320   -2.6962    0.0000 C   0  0  0  0  0  0  0  0  0  0  0  0
    2.8660   -1.1962    0.0000 C   0  0  0  0  0  0  0  0  0  0  0  0
    2.8660   -2.1962    0.0000 C   0  0  0  0  0  0  0  0  0  0  0  0
    7.6279   -2.5622    0.0000 C   0  0  0  0  0  0  0  0  0  0  0  0
    8.6279   -2.5622    0.0000 C   0  0  0  0  0  0  0  0  0  0  0  0
    9.1279   -1.6962    0.0000 C   0  0  0  0  0  0  0  0  0  0  0  0
    9.1279   -3.4283    0.0000 C   0  0  0  0  0  0  0  0  0  0  0  0
   10.1279   -1.6962    0.0000 C   0  0  0  0  0  0  0  0  0  0  0  0
   10.1279   -3.4283    0.0000 C   0  0  0  0  0  0  0  0  0  0  0  0
   10.6279   -2.5622    0.0000 C   0  0  0  0  0  0  0  0  0  0  0  0
    6.2926   -0.3801    0.0000 H   0  0  0  0  0  0  0  0  0  0  0  0
    7.3595    0.6469    0.0000 H   0  0  0  0  0  0  0  0  0  0  0  0
    7.3602    1.0840    0.0000 H   0  0  0  0  0  0  0  0  0  0  0  0
    5.2456    1.7751    0.0000 H   0  0  0  0  0  0  0  0  0  0  0  0
    6.1645    2.7139    0.0000 H   0  0  0  0  0  0  0  0  0  0  0  0
    5.5731    3.2482    0.0000 H   0  0  0  0  0  0  0  0  0  0  0  0
    8.1814    0.0284    0.0000 H   0  0  0  0  0  0  0  0  0  0  0  0
    7.5546    2.5695    0.0000 H   0  0  0  0  0  0  0  0  0  0  0  0
    3.7320   -0.0762    0.0000 H   0  0  0  0  0  0  0  0  0  0  0  0
    4.3820    3.4283    0.0000 H   0  0  0  0  0  0  0  0  0  0  0  0
    3.7320   -3.3162    0.0000 H   0  0  0  0  0  0  0  0  0  0  0  0
    7.0453   -2.7743    0.0000 H   0  0  0  0  0  0  0  0  0  0  0  0
    7.7356   -3.1728    0.0000 H   0  0  0  0  0  0  0  0  0  0  0  0
    8.8179   -1.1593    0.0000 H   0  0  0  0  0  0  0  0  0  0  0  0
    8.8179   -3.9652    0.0000 H   0  0  0  0  0  0  0  0  0  0  0  0
   10.4379   -1.1593    0.0000 H   0  0  0  0  0  0  0  0  0  0  0  0
   10.4379   -3.9652    0.0000 H   0  0  0  0  0  0  0  0  0  0  0  0
  1 23  1  0  0  0  0
  2 24  1  0  0  0  0
  3 19  1  0  0  0  0
  3 25  1  0  0  0  0
  4 13  1  0  0  0  0
  4 16  1  0  0  0  0
 14  5  1  1  0  0  0
  5 38  1  0  0  0  0
 15  6  1  1  0  0  0
  6 39  1  0  0  0  0
  7 17  1  0  0  0  0
  7 41  1  0  0  0  0
  8 12  1  0  0  0  0
  9 12  2  0  0  0  0
 13 10  1  6  0  0  0
 10 18  1  0  0  0  0
 10 19  1  0  0  0  0
 11 19  2  0  0  0  0
 11 20  1  0  0  0  0
 12 31  1  0  0  0  0
 13 14  1  0  0  0  0
 13 32  1  0  0  0  0
 14 15  1  0  0  0  0
 14 33  1  0  0  0  0
 15 16  1  0  0  0  0
 15 34  1  0  0  0  0
 16 17  1  6  0  0  0
 16 35  1  0  0  0  0
 17 36  1  0  0  0  0
 17 37  1  0  0  0  0
 18 20  1  0  0  0  0
 18 21  2  0  0  0  0
 20 22  2  0  0  0  0
 21 23  1  0  0  0  0
 21 40  1  0  0  0  0
 22 24  1  0  0  0  0
 22 42  1  0  0  0  0
 23 24  2  0  0  0  0
 25 26  1  0  0  0  0
 25 43  1  0  0  0  0
 25 44  1  0  0  0  0
 26 27  2  0  0  0  0
 26 28  1  0  0  0  0
 27 29  1  0  0  0  0
 27 45  1  0  0  0  0
 28 30  2  0  0  0  0
 28 46  1  0  0  0  0
 29 31  2  0  0  0  0
 29 47  1  0  0  0  0
 30 31  1  0  0  0  0
 30 48  1  0  0  0  0
M  CHG  2   8  -1  12   1
M  END
> <PUBCHEM_COMPOUND_CID>
513026
> <PUBCHEM_COMPOUND_CANONICALIZED>
1
> <PUBCHEM_CACTVS_COMPLEXITY>
640
> <PUBCHEM_CACTVS_HBOND_ACCEPTOR>
8
> <PUBCHEM_CACTVS_HBOND_DONOR>
3
> <PUBCHEM_CACTVS_ROTATABLE_BOND>
5
> <PUBCHEM_CACTVS_SUBSKEYS>
AAADceB7OABGAAAAAAAAAAAAAAAAAWJAAAAwYAAAAAAAAFgB9AAAHgYECAAADB7l3iax0LccVgihAyRiZwCC0C1hF7Ap2mA4dpqLeKLhm5GeYAhvgALbyCfwsAIOCABAAAIAACQQAIAABAAASAAAAAAAAA==
> <PUBCHEM_IUPAC_OPENEYE_NAME>
(2R,3R,4S,5R)-2-[5,6-dichloro-2-[(4-nitrophenyl)methylsulfanyl]benzimidazol-1-yl]-5-(hydroxymethyl)tetrahydrofuran-3,4-diol
> <PUBCHEM_IUPAC_CAS_NAME>
(2R,3R,4S,5R)-2-[5,6-dichloro-2-[(4-nitrophenyl)methylthio]-1-benzimidazolyl]-5-(hydroxymethyl)oxolane-3,4-diol
> <PUBCHEM_IUPAC_NAME_MARKUP>
(2<I>R</I>,3<I>R</I>,4<I>S</I>,5<I>R</I>)-2-[5,6-dichloro-2-[(4-nitrophenyl)methylsulfanyl]benzimidazol-1-yl]-5-(hydroxymethyl)oxolane-3,4-diol
> <PUBCHEM_IUPAC_NAME>
(2R,3R,4S,5R)-2-[5,6-dichloro-2-[(4-nitrophenyl)methylsulfanyl]benzimidazol-1-yl]-5-(hydroxymethyl)oxolane-3,4-diol
> <PUBCHEM_IUPAC_SYSTEMATIC_NAME>
(2R,3R,4S,5R)-2-[5,6-bis(chloranyl)-2-[(4-nitrophenyl)methylsulfanyl]benzimidazol-1-yl]-5-(hydroxymethyl)oxolane-3,4-diol
> <PUBCHEM_IUPAC_TRADITIONAL_NAME>
(2R,3R,4S,5R)-2-[5,6-dichloro-2-[(4-nitrobenzyl)thio]benzimidazol-1-yl]-5-methylol-tetrahydrofuran-3,4-diol
> <PUBCHEM_IUPAC_INCHI>
InChI=1S/C19H17Cl2N3O6S/c20-11-5-13-14(6-12(11)21)23(18-17(27)16(26)15(7-25)30-18)19(22-13)31-8-9-1-3-10(4-2-9)24(28)29/h1-6,15-18,25-27H,7-8H2/t15-,16-,17-,18-/m1/s1
> <PUBCHEM_IUPAC_INCHIKEY>
CJRNZRWIHYAESJ-BRSBDYLESA-N
> <PUBCHEM_XLOGP3_AA>
3.3
> <PUBCHEM_EXACT_MASS>
485.0215118
> <PUBCHEM_MOLECULAR_FORMULA>
C19H17Cl2N3O6S
> <PUBCHEM_MOLECULAR_WEIGHT>
486.3
> <PUBCHEM_OPENEYE_CAN_SMILES>
C1=CC(=CC=C1CSC2=NC3=CC(=C(C=C3N2C4C(C(C(O4)CO)O)O)Cl)Cl)[N+](=O)[O-]
> <PUBCHEM_OPENEYE_ISO_SMILES>
C1=CC(=CC=C1CSC2=NC3=CC(=C(C=C3N2[C@H]4[C@@H]([C@@H]([C@H](O4)CO)O)O)Cl)Cl)[N+](=O)[O-]
> <PUBCHEM_CACTVS_TPSA>
159
> <PUBCHEM_MONOISOTOPIC_WEIGHT>
485.0215118
> <PUBCHEM_TOTAL_CHARGE>
0
> <PUBCHEM_HEAVY_ATOM_COUNT>
31
> <PUBCHEM_ATOM_DEF_STEREO_COUNT>
4
> <PUBCHEM_ATOM_UDEF_STEREO_COUNT>
0
> <PUBCHEM_BOND_DEF_STEREO_COUNT>
0
> <PUBCHEM_BOND_UDEF_STEREO_COUNT>
0
> <PUBCHEM_ISOTOPIC_ATOM_COUNT>
0
> <PUBCHEM_COMPONENT_COUNT>
1
> <PUBCHEM_CACTVS_TAUTO_COUNT>
-1
> <PUBCHEM_COORDINATE_TYPE>
1
5
255
> <PUBCHEM_BONDANNOTATIONS>
13  10  6
10  18  8
10  19  8
11  19  8
11  20  8
16  17  6
18  20  8
18  21  8
20  22  8
21  23  8
22  24  8
23  24  8
26  27  8
26  28  8
27  29  8
28  30  8
29  31  8
30  31  8
14  5  5
15  6  5
$$$$
