513054
  -OEChem-10302200282D
 48 50  0     1  0  0  0  0  0999 V2000
    6.9310   -3.4999    0.0000 F   0  0  0  0  0  0  0  0  0  0  0  0
    5.6622    0.5705    0.0000 O   0  0  0  0  0  0  0  0  0  0  0  0
    6.7500   -1.7773    0.0000 O   0  0  0  0  0  0  0  0  0  0  0  0
    4.5744   -1.7773    0.0000 O   0  0  0  0  0  0  0  0  0  0  0  0
    7.4223    0.2918    0.0000 O   0  0  0  0  0  0  0  0  0  0  0  0
    5.3884    1.6300    0.0000 O   0  0  0  0  0  0  0  0  0  0  0  0
    3.0705    4.2044    0.0000 O   0  0  0  0  0  0  0  0  0  0  0  0
    3.6942    1.2699    0.0000 N   0  0  0  0  0  0  0  0  0  0  0  0
    4.2294    2.9172    0.0000 N   0  0  0  0  0  0  0  0  0  0  0  0
    4.8532   -0.0172    0.0000 C   0  0  1  0  0  0  0  0  0  0  0  0
    5.1622   -0.9683    0.0000 C   0  0  1  0  0  0  0  0  0  0  0  0
    6.1622   -0.9683    0.0000 C   0  0  2  0  0  0  0  0  0  0  0  0
    6.4712   -0.0172    0.0000 C   0  0  2  0  0  0  0  0  0  0  0  0
    3.9021    0.2918    0.0000 C   0  0  0  0  0  0  0  0  0  0  0  0
    7.7445   -1.6728    0.0000 C   0  0  0  0  0  0  0  0  0  0  0  0
    2.7431    1.5789    0.0000 C   0  0  0  0  0  0  0  0  0  0  0  0
    4.4374    1.9390    0.0000 C   0  0  0  0  0  0  0  0  0  0  0  0
    7.6302    1.2699    0.0000 C   0  0  0  0  0  0  0  0  0  0  0  0
    8.3323   -2.4818    0.0000 C   0  0  0  0  0  0  0  0  0  0  0  0
    2.5352    2.5571    0.0000 C   0  0  0  0  0  0  0  0  0  0  0  0
    2.0000    0.9098    0.0000 C   0  0  0  0  0  0  0  0  0  0  0  0
    3.2784    3.2262    0.0000 C   0  0  0  0  0  0  0  0  0  0  0  0
    7.9255   -3.3954    0.0000 C   0  0  0  0  0  0  0  0  0  0  0  0
    9.3268   -2.3773    0.0000 C   0  0  0  0  0  0  0  0  0  0  0  0
    8.5133   -4.2044    0.0000 C   0  0  0  0  0  0  0  0  0  0  0  0
    9.9146   -3.1863    0.0000 C   0  0  0  0  0  0  0  0  0  0  0  0
    9.5078   -4.0998    0.0000 C   0  0  0  0  0  0  0  0  0  0  0  0
    4.7562    0.5951    0.0000 H   0  0  0  0  0  0  0  0  0  0  0  0
    5.4437   -1.5207    0.0000 H   0  0  0  0  0  0  0  0  0  0  0  0
    6.7746   -0.8713    0.0000 H   0  0  0  0  0  0  0  0  0  0  0  0
    6.5682    0.5951    0.0000 H   0  0  0  0  0  0  0  0  0  0  0  0
    3.2825    0.2701    0.0000 H   0  0  0  0  0  0  0  0  0  0  0  0
    3.8158   -0.3222    0.0000 H   0  0  0  0  0  0  0  0  0  0  0  0
    3.9578   -1.7125    0.0000 H   0  0  0  0  0  0  0  0  0  0  0  0
    8.3018   -1.4010    0.0000 H   0  0  0  0  0  0  0  0  0  0  0  0
    7.5736   -1.0768    0.0000 H   0  0  0  0  0  0  0  0  0  0  0  0
    8.2366    1.1410    0.0000 H   0  0  0  0  0  0  0  0  0  0  0  0
    7.7591    1.8764    0.0000 H   0  0  0  0  0  0  0  0  0  0  0  0
    7.0237    1.3988    0.0000 H   0  0  0  0  0  0  0  0  0  0  0  0
    1.9456    2.7487    0.0000 H   0  0  0  0  0  0  0  0  0  0  0  0
    1.5851    1.3706    0.0000 H   0  0  0  0  0  0  0  0  0  0  0  0
    1.5392    0.4949    0.0000 H   0  0  0  0  0  0  0  0  0  0  0  0
    2.4149    0.4491    0.0000 H   0  0  0  0  0  0  0  0  0  0  0  0
    4.6902    3.3321    0.0000 H   0  0  0  0  0  0  0  0  0  0  0  0
    9.5790   -1.8109    0.0000 H   0  0  0  0  0  0  0  0  0  0  0  0
    8.2612   -4.7708    0.0000 H   0  0  0  0  0  0  0  0  0  0  0  0
   10.5312   -3.1215    0.0000 H   0  0  0  0  0  0  0  0  0  0  0  0
    9.8723   -4.6014    0.0000 H   0  0  0  0  0  0  0  0  0  0  0  0
  1 23  1  0  0  0  0
  2 10  1  0  0  0  0
  2 13  1  0  0  0  0
 12  3  1  6  0  0  0
  3 15  1  0  0  0  0
 11  4  1  1  0  0  0
  4 34  1  0  0  0  0
 13  5  1  6  0  0  0
  5 18  1  0  0  0  0
  6 17  2  0  0  0  0
  7 22  2  0  0  0  0
  8 14  1  0  0  0  0
  8 16  1  0  0  0  0
  8 17  1  0  0  0  0
  9 17  1  0  0  0  0
  9 22  1  0  0  0  0
  9 44  1  0  0  0  0
 10 11  1  0  0  0  0
 10 14  1  1  0  0  0
 10 28  1  0  0  0  0
 11 12  1  0  0  0  0
 11 29  1  0  0  0  0
 12 13  1  0  0  0  0
 12 30  1  0  0  0  0
 13 31  1  0  0  0  0
 14 32  1  0  0  0  0
 14 33  1  0  0  0  0
 15 19  1  0  0  0  0
 15 35  1  0  0  0  0
 15 36  1  0  0  0  0
 16 20  2  0  0  0  0
 16 21  1  0  0  0  0
 18 37  1  0  0  0  0
 18 38  1  0  0  0  0
 18 39  1  0  0  0  0
 19 23  1  0  0  0  0
 19 24  2  0  0  0  0
 20 22  1  0  0  0  0
 20 40  1  0  0  0  0
 21 41  1  0  0  0  0
 21 42  1  0  0  0  0
 21 43  1  0  0  0  0
 23 25  2  0  0  0  0
 24 26  1  0  0  0  0
 24 45  1  0  0  0  0
 25 27  1  0  0  0  0
 25 46  1  0  0  0  0
 26 27  2  0  0  0  0
 26 47  1  0  0  0  0
 27 48  1  0  0  0  0
M  END
> <PUBCHEM_COMPOUND_CID>
513054
> <PUBCHEM_COMPOUND_CANONICALIZED>
1
> <PUBCHEM_CACTVS_COMPLEXITY>
600
> <PUBCHEM_CACTVS_HBOND_ACCEPTOR>
7
> <PUBCHEM_CACTVS_HBOND_DONOR>
2
> <PUBCHEM_CACTVS_ROTATABLE_BOND>
6
> <PUBCHEM_CACTVS_SUBSKEYS>
AAADceB7OQAAAAAAAAAAAAAAAAAAASAAAAAwQAAAAAAAAAABAAAAHwAQCAAADBzxmA8zCIPABgCIAiVSUACCAAAgAgAIiAAICMibNiKAsRincAAv1yOfqUfw0CIOAAAAAAAAAAAAAAAAAAAAAAAAAAAAAA==
> <PUBCHEM_IUPAC_OPENEYE_NAME>
1-[[(2R,3S,4R,5S)-4-[(2-fluorophenyl)methoxy]-3-hydroxy-5-methoxy-tetrahydrofuran-2-yl]methyl]-6-methyl-pyrimidine-2,4-dione
> <PUBCHEM_IUPAC_CAS_NAME>
1-[[(2R,3S,4R,5S)-4-[(2-fluorophenyl)methoxy]-3-hydroxy-5-methoxy-2-oxolanyl]methyl]-6-methylpyrimidine-2,4-dione
> <PUBCHEM_IUPAC_NAME_MARKUP>
1-[[(2<I>R</I>,3<I>S</I>,4<I>R</I>,5<I>S</I>)-4-[(2-fluorophenyl)methoxy]-3-hydroxy-5-methoxyoxolan-2-yl]methyl]-6-methylpyrimidine-2,4-dione
> <PUBCHEM_IUPAC_NAME>
1-[[(2R,3S,4R,5S)-4-[(2-fluorophenyl)methoxy]-3-hydroxy-5-methoxyoxolan-2-yl]methyl]-6-methylpyrimidine-2,4-dione
> <PUBCHEM_IUPAC_SYSTEMATIC_NAME>
1-[[(2R,3S,4R,5S)-4-[(2-fluorophenyl)methoxy]-5-methoxy-3-oxidanyl-oxolan-2-yl]methyl]-6-methyl-pyrimidine-2,4-dione
> <PUBCHEM_IUPAC_TRADITIONAL_NAME>
1-[[(2R,3S,4R,5S)-4-(2-fluorobenzyl)oxy-3-hydroxy-5-methoxy-tetrahydrofuran-2-yl]methyl]-6-methyl-pyrimidine-2,4-quinone
> <PUBCHEM_IUPAC_INCHI>
InChI=1S/C18H21FN2O6/c1-10-7-14(22)20-18(24)21(10)8-13-15(23)16(17(25-2)27-13)26-9-11-5-3-4-6-12(11)19/h3-7,13,15-17,23H,8-9H2,1-2H3,(H,20,22,24)/t13-,15+,16-,17+/m1/s1
> <PUBCHEM_IUPAC_INCHIKEY>
ICGYAJGTGDRBJU-XBVQOTNRSA-N
> <PUBCHEM_XLOGP3_AA>
0.2
> <PUBCHEM_EXACT_MASS>
380.13836456
> <PUBCHEM_MOLECULAR_FORMULA>
C18H21FN2O6
> <PUBCHEM_MOLECULAR_WEIGHT>
380.4
> <PUBCHEM_OPENEYE_CAN_SMILES>
CC1=CC(=O)NC(=O)N1CC2C(C(C(O2)OC)OCC3=CC=CC=C3F)O
> <PUBCHEM_OPENEYE_ISO_SMILES>
CC1=CC(=O)NC(=O)N1C[C@@H]2[C@@H]([C@H]([C@H](O2)OC)OCC3=CC=CC=C3F)O
> <PUBCHEM_CACTVS_TPSA>
97.3
> <PUBCHEM_MONOISOTOPIC_WEIGHT>
380.13836456
> <PUBCHEM_TOTAL_CHARGE>
0
> <PUBCHEM_HEAVY_ATOM_COUNT>
27
> <PUBCHEM_ATOM_DEF_STEREO_COUNT>
4
> <PUBCHEM_ATOM_UDEF_STEREO_COUNT>
0
> <PUBCHEM_BOND_DEF_STEREO_COUNT>
0
> <PUBCHEM_BOND_UDEF_STEREO_COUNT>
0
> <PUBCHEM_ISOTOPIC_ATOM_COUNT>
0
> <PUBCHEM_COMPONENT_COUNT>
1
> <PUBCHEM_CACTVS_TAUTO_COUNT>
-1
> <PUBCHEM_COORDINATE_TYPE>
1
5
255
> <PUBCHEM_BONDANNOTATIONS>
10  14  5
16  20  8
19  23  8
19  24  8
20  22  8
23  25  8
24  26  8
25  27  8
26  27  8
12  3  6
11  4  5
13  5  6
8  16  8
8  17  8
9  17  8
9  22  8
$$$$
