513013
  -OEChem-10302200282D
112113  0     1  0  0  0  0  0999 V2000
    5.4641    2.5950    0.0000 O   0  0  0  0  0  0  0  0  0  0  0  0
    7.1962    5.5950    0.0000 O   0  0  0  0  0  0  0  0  0  0  0  0
    6.3301   -0.9050    0.0000 O   0  0  0  0  0  0  0  0  0  0  0  0
    8.0622    5.0950    0.0000 O   0  0  0  0  0  0  0  0  0  0  0  0
    2.8660   -1.9050    0.0000 O   0  0  0  0  0  0  0  0  0  0  0  0
   11.5263    4.0950    0.0000 O   0  0  0  0  0  0  0  0  0  0  0  0
   12.3923    0.5950    0.0000 O   0  0  0  0  0  0  0  0  0  0  0  0
   10.6603    6.5950    0.0000 O   0  0  0  0  0  0  0  0  0  0  0  0
   10.6603    0.5950    0.0000 O   0  0  0  0  0  0  0  0  0  0  0  0
   11.5263    5.0950    0.0000 O   0  0  0  0  0  0  0  0  0  0  0  0
    5.4641    5.5950    0.0000 N   0  0  0  0  0  0  0  0  0  0  0  0
    5.4641    0.5950    0.0000 N   0  0  0  0  0  0  0  0  0  0  0  0
    7.1962    2.5950    0.0000 N   0  0  0  0  0  0  0  0  0  0  0  0
    4.5981   -1.9050    0.0000 N   0  0  0  0  0  0  0  0  0  0  0  0
    8.9282    3.5950    0.0000 N   0  0  0  0  0  0  0  0  0  0  0  0
   10.6603    2.5950    0.0000 N   0  0  0  0  0  0  0  0  0  0  0  0
    7.1962    0.5950    0.0000 C   0  0  0  0  0  0  0  0  0  0  0  0
    6.3301    1.0950    0.0000 C   0  0  1  0  0  0  0  0  0  0  0  0
    5.3596    6.5895    0.0000 C   0  0  0  0  0  0  0  0  0  0  0  0
    4.5506    5.1883    0.0000 C   0  0  0  0  0  0  0  0  0  0  0  0
    4.3814    6.7974    0.0000 C   0  0  0  0  0  0  0  0  0  0  0  0
    3.8814    5.9314    0.0000 C   0  0  0  0  0  0  0  0  0  0  0  0
    8.0622    0.0950    0.0000 C   0  0  0  0  0  0  0  0  0  0  0  0
    7.6962    1.4610    0.0000 C   0  0  0  0  0  0  0  0  0  0  0  0
    6.6962   -0.2710    0.0000 C   0  0  0  0  0  0  0  0  0  0  0  0
    6.3301    2.0950    0.0000 C   0  0  0  0  0  0  0  0  0  0  0  0
    7.1962    3.5950    0.0000 C   0  0  1  0  0  0  0  0  0  0  0  0
    6.3301    4.0950    0.0000 C   0  0  0  0  0  0  0  0  0  0  0  0
    6.3301    5.0950    0.0000 C   0  0  0  0  0  0  0  0  0  0  0  0
    4.5981   -0.9050    0.0000 C   0  0  2  0  0  0  0  0  0  0  0  0
    5.4641   -0.4050    0.0000 C   0  0  0  0  0  0  0  0  0  0  0  0
    3.7320   -0.4050    0.0000 C   0  0  0  0  0  0  0  0  0  0  0  0
    8.0622    4.0950    0.0000 C   0  0  0  0  0  0  0  0  0  0  0  0
    9.7942    4.0950    0.0000 C   0  0  1  0  0  0  0  0  0  0  0  0
    3.7320    0.5950    0.0000 C   0  0  0  0  0  0  0  0  0  0  0  0
    2.8660   -0.9050    0.0000 C   0  0  0  0  0  0  0  0  0  0  0  0
    3.7320   -2.4050    0.0000 C   0  0  0  0  0  0  0  0  0  0  0  0
    9.7942    5.0950    0.0000 C   0  0  0  0  0  0  0  0  0  0  0  0
   11.5263    2.0950    0.0000 C   0  0  1  0  0  0  0  0  0  0  0  0
   10.6603    3.5950    0.0000 C   0  0  0  0  0  0  0  0  0  0  0  0
   12.3923    2.5950    0.0000 C   0  0  0  0  0  0  0  0  0  0  0  0
   13.2583    2.0950    0.0000 C   0  0  0  0  0  0  0  0  0  0  0  0
    3.7320   -3.4050    0.0000 C   0  0  0  0  0  0  0  0  0  0  0  0
    2.8660   -3.9050    0.0000 C   0  0  0  0  0  0  0  0  0  0  0  0
   14.1244    2.5950    0.0000 C   0  0  0  0  0  0  0  0  0  0  0  0
   13.2583    1.0950    0.0000 C   0  0  0  0  0  0  0  0  0  0  0  0
   11.5263    1.0950    0.0000 C   0  0  0  0  0  0  0  0  0  0  0  0
   10.6603    5.5950    0.0000 C   0  0  0  0  0  0  0  0  0  0  0  0
    2.8660   -4.9050    0.0000 C   0  0  0  0  0  0  0  0  0  0  0  0
    3.7320   -5.4050    0.0000 C   0  0  0  0  0  0  0  0  0  0  0  0
    2.0000   -5.4050    0.0000 C   0  0  0  0  0  0  0  0  0  0  0  0
    3.7320   -6.4050    0.0000 C   0  0  0  0  0  0  0  0  0  0  0  0
    2.0000   -6.4050    0.0000 C   0  0  0  0  0  0  0  0  0  0  0  0
    2.8660   -6.9050    0.0000 C   0  0  0  0  0  0  0  0  0  0  0  0
    5.7932    1.4050    0.0000 H   0  0  0  0  0  0  0  0  0  0  0  0
    5.9796    6.5895    0.0000 H   0  0  0  0  0  0  0  0  0  0  0  0
    5.4244    7.2061    0.0000 H   0  0  0  0  0  0  0  0  0  0  0  0
    4.0490    4.8238    0.0000 H   0  0  0  0  0  0  0  0  0  0  0  0
    4.8606    4.6513    0.0000 H   0  0  0  0  0  0  0  0  0  0  0  0
    4.5730    7.3871    0.0000 H   0  0  0  0  0  0  0  0  0  0  0  0
    3.8150    7.0496    0.0000 H   0  0  0  0  0  0  0  0  0  0  0  0
    3.3798    6.2958    0.0000 H   0  0  0  0  0  0  0  0  0  0  0  0
    3.4666    5.4707    0.0000 H   0  0  0  0  0  0  0  0  0  0  0  0
    7.7522   -0.4419    0.0000 H   0  0  0  0  0  0  0  0  0  0  0  0
    8.5991   -0.2150    0.0000 H   0  0  0  0  0  0  0  0  0  0  0  0
    8.3722    0.6319    0.0000 H   0  0  0  0  0  0  0  0  0  0  0  0
    8.2331    1.1510    0.0000 H   0  0  0  0  0  0  0  0  0  0  0  0
    8.0062    1.9980    0.0000 H   0  0  0  0  0  0  0  0  0  0  0  0
    7.1592    1.7710    0.0000 H   0  0  0  0  0  0  0  0  0  0  0  0
    6.1592    0.0390    0.0000 H   0  0  0  0  0  0  0  0  0  0  0  0
    6.3862   -0.8080    0.0000 H   0  0  0  0  0  0  0  0  0  0  0  0
    7.2331   -0.5810    0.0000 H   0  0  0  0  0  0  0  0  0  0  0  0
    6.6592    3.2850    0.0000 H   0  0  0  0  0  0  0  0  0  0  0  0
    4.9272    0.9050    0.0000 H   0  0  0  0  0  0  0  0  0  0  0  0
    5.7196    4.2027    0.0000 H   0  0  0  0  0  0  0  0  0  0  0  0
    6.1181    3.5124    0.0000 H   0  0  0  0  0  0  0  0  0  0  0  0
    7.7331    2.2850    0.0000 H   0  0  0  0  0  0  0  0  0  0  0  0
    5.1350   -1.2150    0.0000 H   0  0  0  0  0  0  0  0  0  0  0  0
    3.7320   -1.0250    0.0000 H   0  0  0  0  0  0  0  0  0  0  0  0
    5.1350   -2.2150    0.0000 H   0  0  0  0  0  0  0  0  0  0  0  0
    8.9282    2.9750    0.0000 H   0  0  0  0  0  0  0  0  0  0  0  0
    9.7942    3.4750    0.0000 H   0  0  0  0  0  0  0  0  0  0  0  0
    4.3520    0.5950    0.0000 H   0  0  0  0  0  0  0  0  0  0  0  0
    3.7320    1.2150    0.0000 H   0  0  0  0  0  0  0  0  0  0  0  0
    3.1120    0.5950    0.0000 H   0  0  0  0  0  0  0  0  0  0  0  0
    2.5560   -0.3681    0.0000 H   0  0  0  0  0  0  0  0  0  0  0  0
    2.3291   -1.2150    0.0000 H   0  0  0  0  0  0  0  0  0  0  0  0
    3.1760   -1.4419    0.0000 H   0  0  0  0  0  0  0  0  0  0  0  0
   10.9893    1.7850    0.0000 H   0  0  0  0  0  0  0  0  0  0  0  0
    9.5822    5.6776    0.0000 H   0  0  0  0  0  0  0  0  0  0  0  0
    9.1836    4.9873    0.0000 H   0  0  0  0  0  0  0  0  0  0  0  0
   12.7908    3.0700    0.0000 H   0  0  0  0  0  0  0  0  0  0  0  0
   11.9938    3.0700    0.0000 H   0  0  0  0  0  0  0  0  0  0  0  0
   13.7953    1.7850    0.0000 H   0  0  0  0  0  0  0  0  0  0  0  0
   10.1233    2.2850    0.0000 H   0  0  0  0  0  0  0  0  0  0  0  0
    3.9441   -3.9876    0.0000 H   0  0  0  0  0  0  0  0  0  0  0  0
    4.3426   -3.2973    0.0000 H   0  0  0  0  0  0  0  0  0  0  0  0
    2.6540   -3.3224    0.0000 H   0  0  0  0  0  0  0  0  0  0  0  0
    2.2554   -4.0127    0.0000 H   0  0  0  0  0  0  0  0  0  0  0  0
   14.4344    2.0581    0.0000 H   0  0  0  0  0  0  0  0  0  0  0  0
   14.6613    2.9050    0.0000 H   0  0  0  0  0  0  0  0  0  0  0  0
   13.8144    3.1319    0.0000 H   0  0  0  0  0  0  0  0  0  0  0  0
   12.6383    1.0950    0.0000 H   0  0  0  0  0  0  0  0  0  0  0  0
   13.2583    0.4750    0.0000 H   0  0  0  0  0  0  0  0  0  0  0  0
   13.8783    1.0950    0.0000 H   0  0  0  0  0  0  0  0  0  0  0  0
    4.2690   -5.0950    0.0000 H   0  0  0  0  0  0  0  0  0  0  0  0
    1.4631   -5.0950    0.0000 H   0  0  0  0  0  0  0  0  0  0  0  0
   12.3923   -0.0250    0.0000 H   0  0  0  0  0  0  0  0  0  0  0  0
   11.1972    6.9050    0.0000 H   0  0  0  0  0  0  0  0  0  0  0  0
    4.2690   -6.7150    0.0000 H   0  0  0  0  0  0  0  0  0  0  0  0
    1.4631   -6.7150    0.0000 H   0  0  0  0  0  0  0  0  0  0  0  0
    2.8660   -7.5250    0.0000 H   0  0  0  0  0  0  0  0  0  0  0  0
  1 26  2  0  0  0  0
  2 29  2  0  0  0  0
  3 31  2  0  0  0  0
  4 33  2  0  0  0  0
  5 37  2  0  0  0  0
  6 40  2  0  0  0  0
  7 47  1  0  0  0  0
  7108  1  0  0  0  0
  8 48  1  0  0  0  0
  8109  1  0  0  0  0
  9 47  2  0  0  0  0
 10 48  2  0  0  0  0
 11 19  1  0  0  0  0
 11 20  1  0  0  0  0
 11 29  1  0  0  0  0
 18 12  1  6  0  0  0
 12 31  1  0  0  0  0
 12 74  1  0  0  0  0
 13 26  1  0  0  0  0
 27 13  1  1  0  0  0
 13 77  1  0  0  0  0
 30 14  1  1  0  0  0
 14 37  1  0  0  0  0
 14 80  1  0  0  0  0
 15 33  1  0  0  0  0
 34 15  1  1  0  0  0
 15 81  1  0  0  0  0
 39 16  1  1  0  0  0
 16 40  1  0  0  0  0
 16 95  1  0  0  0  0
 17 18  1  0  0  0  0
 17 23  1  0  0  0  0
 17 24  1  0  0  0  0
 17 25  1  0  0  0  0
 18 26  1  0  0  0  0
 18 55  1  0  0  0  0
 19 21  1  0  0  0  0
 19 56  1  0  0  0  0
 19 57  1  0  0  0  0
 20 22  1  0  0  0  0
 20 58  1  0  0  0  0
 20 59  1  0  0  0  0
 21 22  1  0  0  0  0
 21 60  1  0  0  0  0
 21 61  1  0  0  0  0
 22 62  1  0  0  0  0
 22 63  1  0  0  0  0
 23 64  1  0  0  0  0
 23 65  1  0  0  0  0
 23 66  1  0  0  0  0
 24 67  1  0  0  0  0
 24 68  1  0  0  0  0
 24 69  1  0  0  0  0
 25 70  1  0  0  0  0
 25 71  1  0  0  0  0
 25 72  1  0  0  0  0
 27 28  1  0  0  0  0
 27 33  1  0  0  0  0
 27 73  1  0  0  0  0
 28 29  1  0  0  0  0
 28 75  1  0  0  0  0
 28 76  1  0  0  0  0
 30 31  1  0  0  0  0
 30 32  1  0  0  0  0
 30 78  1  0  0  0  0
 32 35  1  0  0  0  0
 32 36  1  0  0  0  0
 32 79  1  0  0  0  0
 34 38  1  0  0  0  0
 34 40  1  0  0  0  0
 34 82  1  0  0  0  0
 35 83  1  0  0  0  0
 35 84  1  0  0  0  0
 35 85  1  0  0  0  0
 36 86  1  0  0  0  0
 36 87  1  0  0  0  0
 36 88  1  0  0  0  0
 37 43  1  0  0  0  0
 38 48  1  0  0  0  0
 38 90  1  0  0  0  0
 38 91  1  0  0  0  0
 39 41  1  0  0  0  0
 39 47  1  0  0  0  0
 39 89  1  0  0  0  0
 41 42  1  0  0  0  0
 41 92  1  0  0  0  0
 41 93  1  0  0  0  0
 42 45  1  0  0  0  0
 42 46  1  0  0  0  0
 42 94  1  0  0  0  0
 43 44  1  0  0  0  0
 43 96  1  0  0  0  0
 43 97  1  0  0  0  0
 44 49  1  0  0  0  0
 44 98  1  0  0  0  0
 44 99  1  0  0  0  0
 45100  1  0  0  0  0
 45101  1  0  0  0  0
 45102  1  0  0  0  0
 46103  1  0  0  0  0
 46104  1  0  0  0  0
 46105  1  0  0  0  0
 49 50  2  0  0  0  0
 49 51  1  0  0  0  0
 50 52  1  0  0  0  0
 50106  1  0  0  0  0
 51 53  2  0  0  0  0
 51107  1  0  0  0  0
 52 54  2  0  0  0  0
 52110  1  0  0  0  0
 53 54  1  0  0  0  0
 53111  1  0  0  0  0
 54112  1  0  0  0  0
M  END
> <PUBCHEM_COMPOUND_CID>
513013
> <PUBCHEM_COMPOUND_CANONICALIZED>
1
> <PUBCHEM_CACTVS_COMPLEXITY>
1330
> <PUBCHEM_CACTVS_HBOND_ACCEPTOR>
10
> <PUBCHEM_CACTVS_HBOND_DONOR>
7
> <PUBCHEM_CACTVS_ROTATABLE_BOND>
21
> <PUBCHEM_CACTVS_SUBSKEYS>
AAADcfB/vAAAAAAAAAAAAAAAAAAAAWAAAAAwAAAAAAAAAAABAAAAHgAQCAAADyjBmAQyCIPAAgCIAiHSGAACAAAgAAAIiIGIAIgKYDqA0TCUYAAmlgCYiAe/iICPAAAAAAAAAAAAAAAAAAAAAAAAAAAAAA==
> <PUBCHEM_IUPAC_OPENEYE_NAME>
(2S)-2-[[(2S)-3-carboxy-2-[[(2S)-2-[[(2S)-3,3-dimethyl-2-[[(2S)-3-methyl-2-(3-phenylpropanoylamino)butanoyl]amino]butanoyl]amino]-4-oxo-4-pyrrolidin-1-yl-butanoyl]amino]propanoyl]amino]-4-methyl-pentanoic acid
> <PUBCHEM_IUPAC_CAS_NAME>
(2S)-2-[[(2S)-3-carboxy-2-[[(2S)-2-[[(2S)-3,3-dimethyl-2-[[(2S)-3-methyl-1-oxo-2-[(1-oxo-3-phenylpropyl)amino]butyl]amino]-1-oxobutyl]amino]-1,4-dioxo-4-(1-pyrrolidinyl)butyl]amino]-1-oxopropyl]amino]-4-methylpentanoic acid
> <PUBCHEM_IUPAC_NAME_MARKUP>
(2<I>S</I>)-2-[[(2<I>S</I>)-3-carboxy-2-[[(2<I>S</I>)-2-[[(2<I>S</I>)-3,3-dimethyl-2-[[(2<I>S</I>)-3-methyl-2-(3-phenylpropanoylamino)butanoyl]amino]butanoyl]amino]-4-oxo-4-pyrrolidin-1-ylbutanoyl]amino]propanoyl]amino]-4-methylpentanoic acid
> <PUBCHEM_IUPAC_NAME>
(2S)-2-[[(2S)-3-carboxy-2-[[(2S)-2-[[(2S)-3,3-dimethyl-2-[[(2S)-3-methyl-2-(3-phenylpropanoylamino)butanoyl]amino]butanoyl]amino]-4-oxo-4-pyrrolidin-1-ylbutanoyl]amino]propanoyl]amino]-4-methylpentanoic acid
> <PUBCHEM_IUPAC_SYSTEMATIC_NAME>
(2S)-2-[[(2S)-2-[[(2S)-2-[[(2S)-3,3-dimethyl-2-[[(2S)-3-methyl-2-(3-phenylpropanoylamino)butanoyl]amino]butanoyl]amino]-4-oxidanylidene-4-pyrrolidin-1-yl-butanoyl]amino]-4-oxidanyl-4-oxidanylidene-butanoyl]amino]-4-methyl-pentanoic acid
> <PUBCHEM_IUPAC_TRADITIONAL_NAME>
(2S)-2-[[(2S)-3-carboxy-2-[[(2S)-2-[[(2S)-2-[[(2S)-2-(hydrocinnamoylamino)-3-methyl-butanoyl]amino]-3,3-dimethyl-butanoyl]amino]-4-keto-4-pyrrolidino-butanoyl]amino]propanoyl]amino]-4-methyl-valeric acid
> <PUBCHEM_IUPAC_INCHI>
InChI=1S/C38H58N6O10/c1-22(2)19-27(37(53)54)41-34(50)26(21-30(47)48)39-33(49)25(20-29(46)44-17-11-12-18-44)40-36(52)32(38(5,6)7)43-35(51)31(23(3)4)42-28(45)16-15-24-13-9-8-10-14-24/h8-10,13-14,22-23,25-27,31-32H,11-12,15-21H2,1-7H3,(H,39,49)(H,40,52)(H,41,50)(H,42,45)(H,43,51)(H,47,48)(H,53,54)/t25-,26-,27-,31-,32+/m0/s1
> <PUBCHEM_IUPAC_INCHIKEY>
PZOKWCKJARSRIA-YOLJOIBXSA-N
> <PUBCHEM_XLOGP3_AA>
2.7
> <PUBCHEM_EXACT_MASS>
758.42144207
> <PUBCHEM_MOLECULAR_FORMULA>
C38H58N6O10
> <PUBCHEM_MOLECULAR_WEIGHT>
758.9
> <PUBCHEM_OPENEYE_CAN_SMILES>
CC(C)CC(C(=O)O)NC(=O)C(CC(=O)O)NC(=O)C(CC(=O)N1CCCC1)NC(=O)C(C(C)(C)C)NC(=O)C(C(C)C)NC(=O)CCC2=CC=CC=C2
> <PUBCHEM_OPENEYE_ISO_SMILES>
CC(C)C[C@@H](C(=O)O)NC(=O)[C@H](CC(=O)O)NC(=O)[C@H](CC(=O)N1CCCC1)NC(=O)[C@H](C(C)(C)C)NC(=O)[C@H](C(C)C)NC(=O)CCC2=CC=CC=C2
> <PUBCHEM_CACTVS_TPSA>
240
> <PUBCHEM_MONOISOTOPIC_WEIGHT>
758.42144207
> <PUBCHEM_TOTAL_CHARGE>
0
> <PUBCHEM_HEAVY_ATOM_COUNT>
54
> <PUBCHEM_ATOM_DEF_STEREO_COUNT>
5
> <PUBCHEM_ATOM_UDEF_STEREO_COUNT>
0
> <PUBCHEM_BOND_DEF_STEREO_COUNT>
0
> <PUBCHEM_BOND_UDEF_STEREO_COUNT>
0
> <PUBCHEM_ISOTOPIC_ATOM_COUNT>
0
> <PUBCHEM_COMPONENT_COUNT>
1
> <PUBCHEM_CACTVS_TAUTO_COUNT>
-1
> <PUBCHEM_COORDINATE_TYPE>
1
5
255
> <PUBCHEM_BONDANNOTATIONS>
18  12  6
27  13  5
30  14  5
34  15  5
39  16  5
49  50  8
49  51  8
50  52  8
51  53  8
52  54  8
53  54  8
$$$$
