513004
  -OEChem-10302200282D
142145  0     1  0  0  0  0  0999 V2000
    2.0863    2.2994    0.0000 O   0  0  0  0  0  0  0  0  0  0  0  0
    3.1526    3.6643    0.0000 O   0  0  0  0  0  0  0  0  0  0  0  0
    5.3103    4.3244    0.0000 O   0  0  0  0  0  0  0  0  0  0  0  0
    6.1763    3.8244    0.0000 O   0  0  0  0  0  0  0  0  0  0  0  0
    5.4703    6.6435    0.0000 O   0  0  0  0  0  0  0  0  0  0  0  0
    8.7744    1.3244    0.0000 O   0  0  0  0  0  0  0  0  0  0  0  0
    7.0423    4.3244    0.0000 O   0  0  0  0  0  0  0  0  0  0  0  0
    7.9084   -2.1756    0.0000 O   0  0  0  0  0  0  0  0  0  0  0  0
   11.3725   -3.1756    0.0000 O   0  0  0  0  0  0  0  0  0  0  0  0
    5.3103    2.3244    0.0000 N   0  0  0  0  0  0  0  0  0  0  0  0
    3.8015    4.5905    0.0000 N   0  0  0  0  0  0  0  0  0  0  0  0
    7.0423    1.3244    0.0000 N   0  0  0  0  0  0  0  0  0  0  0  0
    8.7744    4.3244    0.0000 N   0  0  0  0  0  0  0  0  0  0  0  0
    8.7744   -0.6756    0.0000 N   0  0  0  0  0  0  0  0  0  0  0  0
    9.6404   -3.1756    0.0000 N   0  0  0  0  0  0  0  0  0  0  0  0
    3.8014    2.0584    0.0000 C   0  0  0  0  0  0  0  0  0  0  0  0
    4.5676    1.4156    0.0000 C   0  0  0  0  0  0  0  0  0  0  0  0
    2.9534    1.5285    0.0000 C   0  0  0  0  0  0  0  0  0  0  0  0
    4.1930    0.4884    0.0000 C   0  0  0  0  0  0  0  0  0  0  0  0
    3.1953    0.5582    0.0000 C   0  0  0  0  0  0  0  0  0  0  0  0
    4.4443    2.8244    0.0000 C   0  0  1  0  0  0  0  0  0  0  0  0
    3.0135    2.6740    0.0000 C   0  0  0  0  0  0  0  0  0  0  0  0
    4.4443    3.8244    0.0000 C   0  0  0  0  0  0  0  0  0  0  0  0
    4.1435    5.5302    0.0000 C   0  0  1  0  0  0  0  0  0  0  0  0
    6.1763    2.8244    0.0000 C   0  0  0  0  0  0  0  0  0  0  0  0
    3.5007    6.2962    0.0000 C   0  0  0  0  0  0  0  0  0  0  0  0
    7.0423    2.3244    0.0000 C   0  0  2  0  0  0  0  0  0  0  0  0
    3.8427    7.2359    0.0000 C   0  0  0  0  0  0  0  0  0  0  0  0
    5.1283    5.7038    0.0000 C   0  0  0  0  0  0  0  0  0  0  0  0
    7.9084    2.8244    0.0000 C   0  0  0  0  0  0  0  0  0  0  0  0
    4.1848    8.1756    0.0000 C   0  0  0  0  0  0  0  0  0  0  0  0
    2.9030    7.5779    0.0000 C   0  0  0  0  0  0  0  0  0  0  0  0
    4.7824    6.8939    0.0000 C   0  0  0  0  0  0  0  0  0  0  0  0
    7.9084   -0.1756    0.0000 C   0  0  1  0  0  0  0  0  0  0  0  0
    7.0423   -0.6756    0.0000 C   0  0  0  0  0  0  0  0  0  0  0  0
    7.9084    3.8244    0.0000 C   0  0  0  0  0  0  0  0  0  0  0  0
    7.9084    0.8244    0.0000 C   0  0  0  0  0  0  0  0  0  0  0  0
    9.6879    3.9177    0.0000 C   0  0  0  0  0  0  0  0  0  0  0  0
    8.8789    5.3189    0.0000 C   0  0  0  0  0  0  0  0  0  0  0  0
   10.3571    4.6608    0.0000 C   0  0  0  0  0  0  0  0  0  0  0  0
    9.8571    5.5268    0.0000 C   0  0  0  0  0  0  0  0  0  0  0  0
    6.1763   -1.1756    0.0000 C   0  0  0  0  0  0  0  0  0  0  0  0
    6.5423    0.1904    0.0000 C   0  0  0  0  0  0  0  0  0  0  0  0
    7.5423   -1.5416    0.0000 C   0  0  0  0  0  0  0  0  0  0  0  0
    9.6404   -2.1756    0.0000 C   0  0  2  0  0  0  0  0  0  0  0  0
    8.7744   -1.6756    0.0000 C   0  0  0  0  0  0  0  0  0  0  0  0
   10.5064   -1.6756    0.0000 C   0  0  0  0  0  0  0  0  0  0  0  0
   10.5064   -4.6756    0.0000 C   0  0  0  0  0  0  0  0  0  0  0  0
   10.5064   -3.6756    0.0000 C   0  0  0  0  0  0  0  0  0  0  0  0
   10.5064   -0.6756    0.0000 C   0  0  0  0  0  0  0  0  0  0  0  0
   11.3725   -2.1756    0.0000 C   0  0  0  0  0  0  0  0  0  0  0  0
    8.7744   -3.6756    0.0000 C   0  0  0  0  0  0  0  0  0  0  0  0
   11.3725   -5.1756    0.0000 C   0  0  0  0  0  0  0  0  0  0  0  0
    9.6404   -5.1756    0.0000 C   0  0  0  0  0  0  0  0  0  0  0  0
   12.2385   -4.6756    0.0000 C   0  0  0  0  0  0  0  0  0  0  0  0
    9.6404   -6.1756    0.0000 C   0  0  0  0  0  0  0  0  0  0  0  0
   12.2385   -3.6756    0.0000 C   0  0  0  0  0  0  0  0  0  0  0  0
   10.5064   -6.6756    0.0000 C   0  0  0  0  0  0  0  0  0  0  0  0
   13.1045   -5.1756    0.0000 C   0  0  0  0  0  0  0  0  0  0  0  0
    8.7744   -6.6756    0.0000 C   0  0  0  0  0  0  0  0  0  0  0  0
   13.1045   -3.1756    0.0000 C   0  0  0  0  0  0  0  0  0  0  0  0
   10.5064   -7.6756    0.0000 C   0  0  0  0  0  0  0  0  0  0  0  0
   13.9705   -4.6756    0.0000 C   0  0  0  0  0  0  0  0  0  0  0  0
    8.7744   -7.6756    0.0000 C   0  0  0  0  0  0  0  0  0  0  0  0
   13.9705   -3.6756    0.0000 C   0  0  0  0  0  0  0  0  0  0  0  0
    9.6404   -8.1756    0.0000 C   0  0  0  0  0  0  0  0  0  0  0  0
    5.1150    1.1245    0.0000 H   0  0  0  0  0  0  0  0  0  0  0  0
    4.9143    1.9296    0.0000 H   0  0  0  0  0  0  0  0  0  0  0  0
    2.6816    2.0858    0.0000 H   0  0  0  0  0  0  0  0  0  0  0  0
    2.3708    1.3164    0.0000 H   0  0  0  0  0  0  0  0  0  0  0  0
    4.0853   -0.1222    0.0000 H   0  0  0  0  0  0  0  0  0  0  0  0
    4.7889    0.3175    0.0000 H   0  0  0  0  0  0  0  0  0  0  0  0
    2.5814    0.4719    0.0000 H   0  0  0  0  0  0  0  0  0  0  0  0
    3.2170   -0.0615    0.0000 H   0  0  0  0  0  0  0  0  0  0  0  0
    4.9812    3.1344    0.0000 H   0  0  0  0  0  0  0  0  0  0  0  0
    5.3103    1.7044    0.0000 H   0  0  0  0  0  0  0  0  0  0  0  0
    3.1909    4.4828    0.0000 H   0  0  0  0  0  0  0  0  0  0  0  0
    3.5329    5.4225    0.0000 H   0  0  0  0  0  0  0  0  0  0  0  0
    2.9638    6.6062    0.0000 H   0  0  0  0  0  0  0  0  0  0  0  0
    3.1022    5.8212    0.0000 H   0  0  0  0  0  0  0  0  0  0  0  0
    7.5793    2.0144    0.0000 H   0  0  0  0  0  0  0  0  0  0  0  0
    2.0000    1.6855    0.0000 H   0  0  0  0  0  0  0  0  0  0  0  0
    5.1283    5.0838    0.0000 H   0  0  0  0  0  0  0  0  0  0  0  0
    5.7389    5.5961    0.0000 H   0  0  0  0  0  0  0  0  0  0  0  0
    8.1204    2.2418    0.0000 H   0  0  0  0  0  0  0  0  0  0  0  0
    8.5190    2.9321    0.0000 H   0  0  0  0  0  0  0  0  0  0  0  0
    6.5054    1.0144    0.0000 H   0  0  0  0  0  0  0  0  0  0  0  0
    4.7674    7.9635    0.0000 H   0  0  0  0  0  0  0  0  0  0  0  0
    4.3968    8.7582    0.0000 H   0  0  0  0  0  0  0  0  0  0  0  0
    3.6021    8.3876    0.0000 H   0  0  0  0  0  0  0  0  0  0  0  0
    3.1151    8.1605    0.0000 H   0  0  0  0  0  0  0  0  0  0  0  0
    2.3204    7.7900    0.0000 H   0  0  0  0  0  0  0  0  0  0  0  0
    2.6910    6.9953    0.0000 H   0  0  0  0  0  0  0  0  0  0  0  0
    4.5704    6.3113    0.0000 H   0  0  0  0  0  0  0  0  0  0  0  0
    5.3650    6.6818    0.0000 H   0  0  0  0  0  0  0  0  0  0  0  0
    4.9945    7.4765    0.0000 H   0  0  0  0  0  0  0  0  0  0  0  0
    7.9084   -0.7956    0.0000 H   0  0  0  0  0  0  0  0  0  0  0  0
    9.3779    3.3807    0.0000 H   0  0  0  0  0  0  0  0  0  0  0  0
   10.1895    3.5532    0.0000 H   0  0  0  0  0  0  0  0  0  0  0  0
    8.8141    5.9355    0.0000 H   0  0  0  0  0  0  0  0  0  0  0  0
    8.2589    5.3189    0.0000 H   0  0  0  0  0  0  0  0  0  0  0  0
   10.7719    4.2001    0.0000 H   0  0  0  0  0  0  0  0  0  0  0  0
   10.8587    5.0252    0.0000 H   0  0  0  0  0  0  0  0  0  0  0  0
   10.4235    5.7790    0.0000 H   0  0  0  0  0  0  0  0  0  0  0  0
    9.6655    6.1165    0.0000 H   0  0  0  0  0  0  0  0  0  0  0  0
    9.3113   -0.3656    0.0000 H   0  0  0  0  0  0  0  0  0  0  0  0
    6.0809    6.7512    0.0000 H   0  0  0  0  0  0  0  0  0  0  0  0
    5.8663   -0.6386    0.0000 H   0  0  0  0  0  0  0  0  0  0  0  0
    5.6394   -1.4856    0.0000 H   0  0  0  0  0  0  0  0  0  0  0  0
    6.4863   -1.7125    0.0000 H   0  0  0  0  0  0  0  0  0  0  0  0
    7.0793    0.5004    0.0000 H   0  0  0  0  0  0  0  0  0  0  0  0
    6.2323    0.7274    0.0000 H   0  0  0  0  0  0  0  0  0  0  0  0
    6.0054   -0.1196    0.0000 H   0  0  0  0  0  0  0  0  0  0  0  0
    7.0054   -1.8516    0.0000 H   0  0  0  0  0  0  0  0  0  0  0  0
    7.8523   -2.0785    0.0000 H   0  0  0  0  0  0  0  0  0  0  0  0
    8.0793   -1.2316    0.0000 H   0  0  0  0  0  0  0  0  0  0  0  0
    9.1035   -2.4856    0.0000 H   0  0  0  0  0  0  0  0  0  0  0  0
   11.0434   -1.3656    0.0000 H   0  0  0  0  0  0  0  0  0  0  0  0
   11.0434   -4.3656    0.0000 H   0  0  0  0  0  0  0  0  0  0  0  0
   11.1264   -0.6756    0.0000 H   0  0  0  0  0  0  0  0  0  0  0  0
   10.5064   -0.0556    0.0000 H   0  0  0  0  0  0  0  0  0  0  0  0
    9.8864   -0.6756    0.0000 H   0  0  0  0  0  0  0  0  0  0  0  0
   11.0625   -2.7125    0.0000 H   0  0  0  0  0  0  0  0  0  0  0  0
   11.9094   -2.4856    0.0000 H   0  0  0  0  0  0  0  0  0  0  0  0
   11.6825   -1.6386    0.0000 H   0  0  0  0  0  0  0  0  0  0  0  0
    8.4644   -3.1386    0.0000 H   0  0  0  0  0  0  0  0  0  0  0  0
    8.2375   -3.9856    0.0000 H   0  0  0  0  0  0  0  0  0  0  0  0
    9.0844   -4.2125    0.0000 H   0  0  0  0  0  0  0  0  0  0  0  0
   10.9739   -5.6505    0.0000 H   0  0  0  0  0  0  0  0  0  0  0  0
   11.7710   -5.6505    0.0000 H   0  0  0  0  0  0  0  0  0  0  0  0
    9.4284   -4.5930    0.0000 H   0  0  0  0  0  0  0  0  0  0  0  0
    9.0298   -5.2832    0.0000 H   0  0  0  0  0  0  0  0  0  0  0  0
   11.7016   -3.3656    0.0000 H   0  0  0  0  0  0  0  0  0  0  0  0
   11.0434   -6.3656    0.0000 H   0  0  0  0  0  0  0  0  0  0  0  0
   13.1045   -5.7956    0.0000 H   0  0  0  0  0  0  0  0  0  0  0  0
    8.2375   -6.3656    0.0000 H   0  0  0  0  0  0  0  0  0  0  0  0
   13.1045   -2.5556    0.0000 H   0  0  0  0  0  0  0  0  0  0  0  0
   11.0434   -7.9856    0.0000 H   0  0  0  0  0  0  0  0  0  0  0  0
   14.5075   -4.9856    0.0000 H   0  0  0  0  0  0  0  0  0  0  0  0
    8.2375   -7.9856    0.0000 H   0  0  0  0  0  0  0  0  0  0  0  0
   14.5075   -3.3656    0.0000 H   0  0  0  0  0  0  0  0  0  0  0  0
    9.6404   -8.7956    0.0000 H   0  0  0  0  0  0  0  0  0  0  0  0
  1 22  1  0  0  0  0
  1 82  1  0  0  0  0
  2 22  2  0  0  0  0
  3 23  2  0  0  0  0
  4 25  2  0  0  0  0
  5 29  1  0  0  0  0
  5107  1  0  0  0  0
  6 37  2  0  0  0  0
  7 36  2  0  0  0  0
  8 46  2  0  0  0  0
  9 49  2  0  0  0  0
 21 10  1  1  0  0  0
 10 25  1  0  0  0  0
 10 76  1  0  0  0  0
 11 23  1  0  0  0  0
 24 11  1  1  0  0  0
 11 77  1  0  0  0  0
 27 12  1  6  0  0  0
 12 37  1  0  0  0  0
 12 87  1  0  0  0  0
 13 36  1  0  0  0  0
 13 38  1  0  0  0  0
 13 39  1  0  0  0  0
 34 14  1  1  0  0  0
 14 46  1  0  0  0  0
 14106  1  0  0  0  0
 45 15  1  6  0  0  0
 15 49  1  0  0  0  0
 15 52  1  0  0  0  0
 16 17  1  0  0  0  0
 16 18  1  0  0  0  0
 16 21  1  0  0  0  0
 16 22  1  0  0  0  0
 17 19  1  0  0  0  0
 17 67  1  0  0  0  0
 17 68  1  0  0  0  0
 18 20  1  0  0  0  0
 18 69  1  0  0  0  0
 18 70  1  0  0  0  0
 19 20  1  0  0  0  0
 19 71  1  0  0  0  0
 19 72  1  0  0  0  0
 20 73  1  0  0  0  0
 20 74  1  0  0  0  0
 21 23  1  0  0  0  0
 21 75  1  0  0  0  0
 24 26  1  0  0  0  0
 24 29  1  0  0  0  0
 24 78  1  0  0  0  0
 25 27  1  0  0  0  0
 26 28  1  0  0  0  0
 26 79  1  0  0  0  0
 26 80  1  0  0  0  0
 27 30  1  0  0  0  0
 27 81  1  0  0  0  0
 28 31  1  0  0  0  0
 28 32  1  0  0  0  0
 28 33  1  0  0  0  0
 29 83  1  0  0  0  0
 29 84  1  0  0  0  0
 30 36  1  0  0  0  0
 30 85  1  0  0  0  0
 30 86  1  0  0  0  0
 31 88  1  0  0  0  0
 31 89  1  0  0  0  0
 31 90  1  0  0  0  0
 32 91  1  0  0  0  0
 32 92  1  0  0  0  0
 32 93  1  0  0  0  0
 33 94  1  0  0  0  0
 33 95  1  0  0  0  0
 33 96  1  0  0  0  0
 34 35  1  0  0  0  0
 34 37  1  0  0  0  0
 34 97  1  0  0  0  0
 35 42  1  0  0  0  0
 35 43  1  0  0  0  0
 35 44  1  0  0  0  0
 38 40  1  0  0  0  0
 38 98  1  0  0  0  0
 38 99  1  0  0  0  0
 39 41  1  0  0  0  0
 39100  1  0  0  0  0
 39101  1  0  0  0  0
 40 41  1  0  0  0  0
 40102  1  0  0  0  0
 40103  1  0  0  0  0
 41104  1  0  0  0  0
 41105  1  0  0  0  0
 42108  1  0  0  0  0
 42109  1  0  0  0  0
 42110  1  0  0  0  0
 43111  1  0  0  0  0
 43112  1  0  0  0  0
 43113  1  0  0  0  0
 44114  1  0  0  0  0
 44115  1  0  0  0  0
 44116  1  0  0  0  0
 45 46  1  0  0  0  0
 45 47  1  0  0  0  0
 45117  1  0  0  0  0
 47 50  1  0  0  0  0
 47 51  1  0  0  0  0
 47118  1  0  0  0  0
 48 49  1  0  0  0  0
 48 53  1  0  0  0  0
 48 54  1  0  0  0  0
 48119  1  0  0  0  0
 50120  1  0  0  0  0
 50121  1  0  0  0  0
 50122  1  0  0  0  0
 51123  1  0  0  0  0
 51124  1  0  0  0  0
 51125  1  0  0  0  0
 52126  1  0  0  0  0
 52127  1  0  0  0  0
 52128  1  0  0  0  0
 53 55  1  0  0  0  0
 53129  1  0  0  0  0
 53130  1  0  0  0  0
 54 56  1  0  0  0  0
 54131  1  0  0  0  0
 54132  1  0  0  0  0
 55 57  2  0  0  0  0
 55 59  1  0  0  0  0
 56 58  2  0  0  0  0
 56 60  1  0  0  0  0
 57 61  1  0  0  0  0
 57133  1  0  0  0  0
 58 62  1  0  0  0  0
 58134  1  0  0  0  0
 59 63  2  0  0  0  0
 59135  1  0  0  0  0
 60 64  2  0  0  0  0
 60136  1  0  0  0  0
 61 65  2  0  0  0  0
 61137  1  0  0  0  0
 62 66  2  0  0  0  0
 62138  1  0  0  0  0
 63 65  1  0  0  0  0
 63139  1  0  0  0  0
 64 66  1  0  0  0  0
 64140  1  0  0  0  0
 65141  1  0  0  0  0
 66142  1  0  0  0  0
M  END
> <PUBCHEM_COMPOUND_CID>
513004
> <PUBCHEM_COMPOUND_CANONICALIZED>
1
> <PUBCHEM_CACTVS_COMPLEXITY>
1630
> <PUBCHEM_CACTVS_HBOND_ACCEPTOR>
9
> <PUBCHEM_CACTVS_HBOND_DONOR>
6
> <PUBCHEM_CACTVS_ROTATABLE_BOND>
23
> <PUBCHEM_CACTVS_SUBSKEYS>
AAADcfB/vAAAAAAAAAAAAAAAAAAAAeIAAAAwYAAAAAAAAAABQAAAHgAQCAAADyjhmAYyCIPAAgCIAiHSGAACAAAgAAAIiIGIAIgKcDqA0TCUYAAmlgCYiAe/yMCPAAAAAAAAAAAAAAAAAAAAAAAAAAAAAA==
> <PUBCHEM_IUPAC_OPENEYE_NAME>
1-[(1S)-1-[[(2S)-2-[[(2S)-2-[[(2S)-2-[(2-benzyl-3-phenyl-propanoyl)-methyl-amino]-3-methyl-butanoyl]amino]-3,3-dimethyl-butanoyl]amino]-4-oxo-4-pyrrolidin-1-yl-butanoyl]amino]-2-[[(1S)-1-(hydroxymethyl)-3,3-dimethyl-butyl]amino]-2-oxo-ethyl]cyclopentanecarboxylic acid
> <PUBCHEM_IUPAC_CAS_NAME>
1-[(1S)-1-[[(2S)-2-[[(2S)-3,3-dimethyl-2-[[(2S)-3-methyl-2-[methyl-[1-oxo-3-phenyl-2-(phenylmethyl)propyl]amino]-1-oxobutyl]amino]-1-oxobutyl]amino]-1,4-dioxo-4-(1-pyrrolidinyl)butyl]amino]-2-[[(2S)-1-hydroxy-4,4-dimethylpentan-2-yl]amino]-2-oxoethyl]-1-cyclopentanecarboxylic acid
> <PUBCHEM_IUPAC_NAME_MARKUP>
1-[(1<I>S</I>)-1-[[(2<I>S</I>)-2-[[(2<I>S</I>)-2-[[(2<I>S</I>)-2-[(2-benzyl-3-phenylpropanoyl)-methylamino]-3-methylbutanoyl]amino]-3,3-dimethylbutanoyl]amino]-4-oxo-4-pyrrolidin-1-ylbutanoyl]amino]-2-[[(2<I>S</I>)-1-hydroxy-4,4-dimethylpentan-2-yl]amino]-2-oxoethyl]cyclopentane-1-carboxylic acid
> <PUBCHEM_IUPAC_NAME>
1-[(1S)-1-[[(2S)-2-[[(2S)-2-[[(2S)-2-[(2-benzyl-3-phenylpropanoyl)-methylamino]-3-methylbutanoyl]amino]-3,3-dimethylbutanoyl]amino]-4-oxo-4-pyrrolidin-1-ylbutanoyl]amino]-2-[[(2S)-1-hydroxy-4,4-dimethylpentan-2-yl]amino]-2-oxoethyl]cyclopentane-1-carboxylic acid
> <PUBCHEM_IUPAC_SYSTEMATIC_NAME>
1-[(1S)-1-[[(2S)-2-[[(2S)-3,3-dimethyl-2-[[(2S)-3-methyl-2-[methyl-[3-phenyl-2-(phenylmethyl)propanoyl]amino]butanoyl]amino]butanoyl]amino]-4-oxidanylidene-4-pyrrolidin-1-yl-butanoyl]amino]-2-[[(2S)-4,4-dimethyl-1-oxidanyl-pentan-2-yl]amino]-2-oxidanylidene-ethyl]cyclopentane-1-carboxylic acid
> <PUBCHEM_IUPAC_TRADITIONAL_NAME>
1-[(1S)-1-[[(2S)-2-[[(2S)-2-[[(2S)-2-[(2-benzyl-3-phenyl-propanoyl)-methyl-amino]-3-methyl-butanoyl]amino]-3,3-dimethyl-butanoyl]amino]-4-keto-4-pyrrolidino-butanoyl]amino]-2-[[(1S)-3,3-dimethyl-1-methylol-butyl]amino]-2-keto-ethyl]cyclopentanecarboxylic acid
> <PUBCHEM_IUPAC_INCHI>
InChI=1S/C51H76N6O9/c1-33(2)40(56(9)47(64)36(28-34-20-12-10-13-21-34)29-35-22-14-11-15-23-35)44(61)54-41(50(6,7)8)45(62)53-38(30-39(59)57-26-18-19-27-57)43(60)55-42(51(48(65)66)24-16-17-25-51)46(63)52-37(32-58)31-49(3,4)5/h10-15,20-23,33,36-38,40-42,58H,16-19,24-32H2,1-9H3,(H,52,63)(H,53,62)(H,54,61)(H,55,60)(H,65,66)/t37-,38-,40-,41+,42+/m0/s1
> <PUBCHEM_IUPAC_INCHIKEY>
ZEZGINAYPYMJJU-HOMVEOSBSA-N
> <PUBCHEM_XLOGP3_AA>
6.5
> <PUBCHEM_EXACT_MASS>
916.56737802
> <PUBCHEM_MOLECULAR_FORMULA>
C51H76N6O9
> <PUBCHEM_MOLECULAR_WEIGHT>
917.2
> <PUBCHEM_OPENEYE_CAN_SMILES>
CC(C)C(C(=O)NC(C(=O)NC(CC(=O)N1CCCC1)C(=O)NC(C(=O)NC(CC(C)(C)C)CO)C2(CCCC2)C(=O)O)C(C)(C)C)N(C)C(=O)C(CC3=CC=CC=C3)CC4=CC=CC=C4
> <PUBCHEM_OPENEYE_ISO_SMILES>
CC(C)[C@@H](C(=O)N[C@H](C(=O)N[C@@H](CC(=O)N1CCCC1)C(=O)N[C@H](C(=O)N[C@@H](CC(C)(C)C)CO)C2(CCCC2)C(=O)O)C(C)(C)C)N(C)C(=O)C(CC3=CC=CC=C3)CC4=CC=CC=C4
> <PUBCHEM_CACTVS_TPSA>
215
> <PUBCHEM_MONOISOTOPIC_WEIGHT>
916.56737802
> <PUBCHEM_TOTAL_CHARGE>
0
> <PUBCHEM_HEAVY_ATOM_COUNT>
66
> <PUBCHEM_ATOM_DEF_STEREO_COUNT>
5
> <PUBCHEM_ATOM_UDEF_STEREO_COUNT>
0
> <PUBCHEM_BOND_DEF_STEREO_COUNT>
0
> <PUBCHEM_BOND_UDEF_STEREO_COUNT>
0
> <PUBCHEM_ISOTOPIC_ATOM_COUNT>
0
> <PUBCHEM_COMPONENT_COUNT>
1
> <PUBCHEM_CACTVS_TAUTO_COUNT>
-1
> <PUBCHEM_COORDINATE_TYPE>
1
5
255
> <PUBCHEM_BONDANNOTATIONS>
21  10  5
24  11  5
27  12  6
34  14  5
45  15  6
55  57  8
55  59  8
56  58  8
56  60  8
57  61  8
58  62  8
59  63  8
60  64  8
61  65  8
62  66  8
63  65  8
64  66  8
$$$$
