513055
  -OEChem-10302200282D
 51 53  0     1  0  0  0  0  0999 V2000
    6.9854   -3.4999    0.0000 F   0  0  0  0  0  0  0  0  0  0  0  0
    5.7166    0.5705    0.0000 O   0  0  0  0  0  0  0  0  0  0  0  0
    6.8044   -1.7773    0.0000 O   0  0  0  0  0  0  0  0  0  0  0  0
    4.6288   -1.7773    0.0000 O   0  0  0  0  0  0  0  0  0  0  0  0
    7.4767    0.2918    0.0000 O   0  0  0  0  0  0  0  0  0  0  0  0
    2.0544    0.9098    0.0000 O   0  0  0  0  0  0  0  0  0  0  0  0
    3.1249    4.2044    0.0000 O   0  0  0  0  0  0  0  0  0  0  0  0
    3.7486    1.2699    0.0000 N   0  0  0  0  0  0  0  0  0  0  0  0
    2.5896    2.5571    0.0000 N   0  0  0  0  0  0  0  0  0  0  0  0
    4.9076   -0.0172    0.0000 C   0  0  1  0  0  0  0  0  0  0  0  0
    5.2166   -0.9683    0.0000 C   0  0  1  0  0  0  0  0  0  0  0  0
    6.2166   -0.9683    0.0000 C   0  0  2  0  0  0  0  0  0  0  0  0
    6.5256   -0.0172    0.0000 C   0  0  2  0  0  0  0  0  0  0  0  0
    3.9565    0.2918    0.0000 C   0  0  0  0  0  0  0  0  0  0  0  0
    4.4918    1.9390    0.0000 C   0  0  0  0  0  0  0  0  0  0  0  0
    7.7989   -1.6728    0.0000 C   0  0  0  0  0  0  0  0  0  0  0  0
    2.7976    1.5789    0.0000 C   0  0  0  0  0  0  0  0  0  0  0  0
    4.2839    2.9172    0.0000 C   0  0  0  0  0  0  0  0  0  0  0  0
    7.6846    1.2699    0.0000 C   0  0  0  0  0  0  0  0  0  0  0  0
    5.4428    1.6300    0.0000 C   0  0  0  0  0  0  0  0  0  0  0  0
    8.3867   -2.4818    0.0000 C   0  0  0  0  0  0  0  0  0  0  0  0
    3.3328    3.2262    0.0000 C   0  0  0  0  0  0  0  0  0  0  0  0
    5.0270    3.5863    0.0000 C   0  0  0  0  0  0  0  0  0  0  0  0
    7.9800   -3.3954    0.0000 C   0  0  0  0  0  0  0  0  0  0  0  0
    9.3812   -2.3773    0.0000 C   0  0  0  0  0  0  0  0  0  0  0  0
    8.5678   -4.2044    0.0000 C   0  0  0  0  0  0  0  0  0  0  0  0
    9.9690   -3.1863    0.0000 C   0  0  0  0  0  0  0  0  0  0  0  0
    9.5623   -4.0998    0.0000 C   0  0  0  0  0  0  0  0  0  0  0  0
    4.8106    0.5951    0.0000 H   0  0  0  0  0  0  0  0  0  0  0  0
    5.4981   -1.5207    0.0000 H   0  0  0  0  0  0  0  0  0  0  0  0
    6.8290   -0.8713    0.0000 H   0  0  0  0  0  0  0  0  0  0  0  0
    6.6226    0.5951    0.0000 H   0  0  0  0  0  0  0  0  0  0  0  0
    3.3369    0.2701    0.0000 H   0  0  0  0  0  0  0  0  0  0  0  0
    3.8702   -0.3222    0.0000 H   0  0  0  0  0  0  0  0  0  0  0  0
    4.8810   -2.3437    0.0000 H   0  0  0  0  0  0  0  0  0  0  0  0
    8.3562   -1.4010    0.0000 H   0  0  0  0  0  0  0  0  0  0  0  0
    7.6280   -1.0768    0.0000 H   0  0  0  0  0  0  0  0  0  0  0  0
    8.2910    1.1410    0.0000 H   0  0  0  0  0  0  0  0  0  0  0  0
    7.8135    1.8764    0.0000 H   0  0  0  0  0  0  0  0  0  0  0  0
    7.0781    1.3988    0.0000 H   0  0  0  0  0  0  0  0  0  0  0  0
    5.2512    1.0404    0.0000 H   0  0  0  0  0  0  0  0  0  0  0  0
    6.0325    1.4384    0.0000 H   0  0  0  0  0  0  0  0  0  0  0  0
    5.6344    2.2197    0.0000 H   0  0  0  0  0  0  0  0  0  0  0  0
    2.0000    2.7487    0.0000 H   0  0  0  0  0  0  0  0  0  0  0  0
    5.4419    3.1256    0.0000 H   0  0  0  0  0  0  0  0  0  0  0  0
    5.4878    4.0012    0.0000 H   0  0  0  0  0  0  0  0  0  0  0  0
    4.6121    4.0471    0.0000 H   0  0  0  0  0  0  0  0  0  0  0  0
    9.6334   -1.8109    0.0000 H   0  0  0  0  0  0  0  0  0  0  0  0
    8.3156   -4.7708    0.0000 H   0  0  0  0  0  0  0  0  0  0  0  0
   10.5856   -3.1215    0.0000 H   0  0  0  0  0  0  0  0  0  0  0  0
    9.9267   -4.6014    0.0000 H   0  0  0  0  0  0  0  0  0  0  0  0
  1 24  1  0  0  0  0
  2 10  1  0  0  0  0
  2 13  1  0  0  0  0
 12  3  1  6  0  0  0
  3 16  1  0  0  0  0
 11  4  1  1  0  0  0
  4 35  1  0  0  0  0
 13  5  1  6  0  0  0
  5 19  1  0  0  0  0
  6 17  2  0  0  0  0
  7 22  2  0  0  0  0
  8 14  1  0  0  0  0
  8 15  1  0  0  0  0
  8 17  1  0  0  0  0
  9 17  1  0  0  0  0
  9 22  1  0  0  0  0
  9 44  1  0  0  0  0
 10 11  1  0  0  0  0
 10 14  1  1  0  0  0
 10 29  1  0  0  0  0
 11 12  1  0  0  0  0
 11 30  1  0  0  0  0
 12 13  1  0  0  0  0
 12 31  1  0  0  0  0
 13 32  1  0  0  0  0
 14 33  1  0  0  0  0
 14 34  1  0  0  0  0
 15 18  2  0  0  0  0
 15 20  1  0  0  0  0
 16 21  1  0  0  0  0
 16 36  1  0  0  0  0
 16 37  1  0  0  0  0
 18 22  1  0  0  0  0
 18 23  1  0  0  0  0
 19 38  1  0  0  0  0
 19 39  1  0  0  0  0
 19 40  1  0  0  0  0
 20 41  1  0  0  0  0
 20 42  1  0  0  0  0
 20 43  1  0  0  0  0
 21 24  1  0  0  0  0
 21 25  2  0  0  0  0
 23 45  1  0  0  0  0
 23 46  1  0  0  0  0
 23 47  1  0  0  0  0
 24 26  2  0  0  0  0
 25 27  1  0  0  0  0
 25 48  1  0  0  0  0
 26 28  1  0  0  0  0
 26 49  1  0  0  0  0
 27 28  2  0  0  0  0
 27 50  1  0  0  0  0
 28 51  1  0  0  0  0
M  END
> <PUBCHEM_COMPOUND_CID>
513055
> <PUBCHEM_COMPOUND_CANONICALIZED>
1
> <PUBCHEM_CACTVS_COMPLEXITY>
642
> <PUBCHEM_CACTVS_HBOND_ACCEPTOR>
7
> <PUBCHEM_CACTVS_HBOND_DONOR>
2
> <PUBCHEM_CACTVS_ROTATABLE_BOND>
6
> <PUBCHEM_CACTVS_SUBSKEYS>
AAADceB7OQAAAAAAAAAAAAAAAAAAASAAAAAwQAAAAAAAAAABAAAAHwAQCAAADBzxmA8zCIPABgCIAiVSUACCAAAgAAAIiAEICMibNiKAsRincAAvxyOfqUfw0CIOAAAAAAAAAAAAAAAAAAAAAAAAAAAAAA==
> <PUBCHEM_IUPAC_OPENEYE_NAME>
1-[[(2R,3S,4R,5S)-4-[(2-fluorophenyl)methoxy]-3-hydroxy-5-methoxy-tetrahydrofuran-2-yl]methyl]-5,6-dimethyl-pyrimidine-2,4-dione
> <PUBCHEM_IUPAC_CAS_NAME>
1-[[(2R,3S,4R,5S)-4-[(2-fluorophenyl)methoxy]-3-hydroxy-5-methoxy-2-oxolanyl]methyl]-5,6-dimethylpyrimidine-2,4-dione
> <PUBCHEM_IUPAC_NAME_MARKUP>
1-[[(2<I>R</I>,3<I>S</I>,4<I>R</I>,5<I>S</I>)-4-[(2-fluorophenyl)methoxy]-3-hydroxy-5-methoxyoxolan-2-yl]methyl]-5,6-dimethylpyrimidine-2,4-dione
> <PUBCHEM_IUPAC_NAME>
1-[[(2R,3S,4R,5S)-4-[(2-fluorophenyl)methoxy]-3-hydroxy-5-methoxyoxolan-2-yl]methyl]-5,6-dimethylpyrimidine-2,4-dione
> <PUBCHEM_IUPAC_SYSTEMATIC_NAME>
1-[[(2R,3S,4R,5S)-4-[(2-fluorophenyl)methoxy]-5-methoxy-3-oxidanyl-oxolan-2-yl]methyl]-5,6-dimethyl-pyrimidine-2,4-dione
> <PUBCHEM_IUPAC_TRADITIONAL_NAME>
1-[[(2R,3S,4R,5S)-4-(2-fluorobenzyl)oxy-3-hydroxy-5-methoxy-tetrahydrofuran-2-yl]methyl]-5,6-dimethyl-pyrimidine-2,4-quinone
> <PUBCHEM_IUPAC_INCHI>
InChI=1S/C19H23FN2O6/c1-10-11(2)22(19(25)21-17(10)24)8-14-15(23)16(18(26-3)28-14)27-9-12-6-4-5-7-13(12)20/h4-7,14-16,18,23H,8-9H2,1-3H3,(H,21,24,25)/t14-,15+,16-,18+/m1/s1
> <PUBCHEM_IUPAC_INCHIKEY>
DMSDVLOACBNWBP-HPFXQQBRSA-N
> <PUBCHEM_XLOGP3_AA>
0.6
> <PUBCHEM_EXACT_MASS>
394.15401462
> <PUBCHEM_MOLECULAR_FORMULA>
C19H23FN2O6
> <PUBCHEM_MOLECULAR_WEIGHT>
394.4
> <PUBCHEM_OPENEYE_CAN_SMILES>
CC1=C(N(C(=O)NC1=O)CC2C(C(C(O2)OC)OCC3=CC=CC=C3F)O)C
> <PUBCHEM_OPENEYE_ISO_SMILES>
CC1=C(N(C(=O)NC1=O)C[C@@H]2[C@@H]([C@H]([C@H](O2)OC)OCC3=CC=CC=C3F)O)C
> <PUBCHEM_CACTVS_TPSA>
97.3
> <PUBCHEM_MONOISOTOPIC_WEIGHT>
394.15401462
> <PUBCHEM_TOTAL_CHARGE>
0
> <PUBCHEM_HEAVY_ATOM_COUNT>
28
> <PUBCHEM_ATOM_DEF_STEREO_COUNT>
4
> <PUBCHEM_ATOM_UDEF_STEREO_COUNT>
0
> <PUBCHEM_BOND_DEF_STEREO_COUNT>
0
> <PUBCHEM_BOND_UDEF_STEREO_COUNT>
0
> <PUBCHEM_ISOTOPIC_ATOM_COUNT>
0
> <PUBCHEM_COMPONENT_COUNT>
1
> <PUBCHEM_CACTVS_TAUTO_COUNT>
-1
> <PUBCHEM_COORDINATE_TYPE>
1
5
255
> <PUBCHEM_BONDANNOTATIONS>
10  14  5
15  18  8
18  22  8
21  24  8
21  25  8
24  26  8
25  27  8
26  28  8
27  28  8
12  3  6
11  4  5
13  5  6
8  15  8
8  17  8
9  17  8
9  22  8
$$$$
