513051
  -OEChem-10302200282D
 45 47  0     1  0  0  0  0  0999 V2000
    2.0000    2.8661    0.0000 Cl  0  0  0  0  0  0  0  0  0  0  0  0
    7.3468   -3.4999    0.0000 F   0  0  0  0  0  0  0  0  0  0  0  0
    6.0780    0.5705    0.0000 O   0  0  0  0  0  0  0  0  0  0  0  0
    7.1658   -1.7773    0.0000 O   0  0  0  0  0  0  0  0  0  0  0  0
    4.9902   -1.7773    0.0000 O   0  0  0  0  0  0  0  0  0  0  0  0
    7.8381    0.2918    0.0000 O   0  0  0  0  0  0  0  0  0  0  0  0
    5.8042    1.6300    0.0000 O   0  0  0  0  0  0  0  0  0  0  0  0
    3.4863    4.2044    0.0000 O   0  0  0  0  0  0  0  0  0  0  0  0
    4.1100    1.2699    0.0000 N   0  0  0  0  0  0  0  0  0  0  0  0
    4.6453    2.9172    0.0000 N   0  0  0  0  0  0  0  0  0  0  0  0
    5.5780   -0.9683    0.0000 C   0  0  1  0  0  0  0  0  0  0  0  0
    5.2690   -0.0172    0.0000 C   0  0  1  0  0  0  0  0  0  0  0  0
    6.5780   -0.9683    0.0000 C   0  0  2  0  0  0  0  0  0  0  0  0
    6.8870   -0.0172    0.0000 C   0  0  2  0  0  0  0  0  0  0  0  0
    4.3179    0.2918    0.0000 C   0  0  0  0  0  0  0  0  0  0  0  0
    8.1603   -1.6728    0.0000 C   0  0  0  0  0  0  0  0  0  0  0  0
    4.8532    1.9390    0.0000 C   0  0  0  0  0  0  0  0  0  0  0  0
    3.1590    1.5789    0.0000 C   0  0  0  0  0  0  0  0  0  0  0  0
    8.0460    1.2699    0.0000 C   0  0  0  0  0  0  0  0  0  0  0  0
    8.7481   -2.4818    0.0000 C   0  0  0  0  0  0  0  0  0  0  0  0
    2.9511    2.5571    0.0000 C   0  0  0  0  0  0  0  0  0  0  0  0
    3.6942    3.2262    0.0000 C   0  0  0  0  0  0  0  0  0  0  0  0
    8.3414   -3.3954    0.0000 C   0  0  0  0  0  0  0  0  0  0  0  0
    9.7426   -2.3773    0.0000 C   0  0  0  0  0  0  0  0  0  0  0  0
    8.9292   -4.2044    0.0000 C   0  0  0  0  0  0  0  0  0  0  0  0
   10.3304   -3.1863    0.0000 C   0  0  0  0  0  0  0  0  0  0  0  0
    9.9237   -4.0998    0.0000 C   0  0  0  0  0  0  0  0  0  0  0  0
    4.9656   -0.8713    0.0000 H   0  0  0  0  0  0  0  0  0  0  0  0
    5.1720    0.5951    0.0000 H   0  0  0  0  0  0  0  0  0  0  0  0
    6.2965   -1.5207    0.0000 H   0  0  0  0  0  0  0  0  0  0  0  0
    7.3254   -0.4556    0.0000 H   0  0  0  0  0  0  0  0  0  0  0  0
    3.6983    0.2701    0.0000 H   0  0  0  0  0  0  0  0  0  0  0  0
    4.2316   -0.3222    0.0000 H   0  0  0  0  0  0  0  0  0  0  0  0
    4.3736   -1.7125    0.0000 H   0  0  0  0  0  0  0  0  0  0  0  0
    8.7176   -1.4010    0.0000 H   0  0  0  0  0  0  0  0  0  0  0  0
    7.9894   -1.0768    0.0000 H   0  0  0  0  0  0  0  0  0  0  0  0
    2.6982    1.1641    0.0000 H   0  0  0  0  0  0  0  0  0  0  0  0
    8.6524    1.1410    0.0000 H   0  0  0  0  0  0  0  0  0  0  0  0
    8.1749    1.8764    0.0000 H   0  0  0  0  0  0  0  0  0  0  0  0
    7.4395    1.3988    0.0000 H   0  0  0  0  0  0  0  0  0  0  0  0
    5.1060    3.3321    0.0000 H   0  0  0  0  0  0  0  0  0  0  0  0
    9.9948   -1.8109    0.0000 H   0  0  0  0  0  0  0  0  0  0  0  0
    8.6770   -4.7708    0.0000 H   0  0  0  0  0  0  0  0  0  0  0  0
   10.9470   -3.1215    0.0000 H   0  0  0  0  0  0  0  0  0  0  0  0
   10.2881   -4.6014    0.0000 H   0  0  0  0  0  0  0  0  0  0  0  0
  1 21  1  0  0  0  0
  2 23  1  0  0  0  0
  3 12  1  0  0  0  0
  3 14  1  0  0  0  0
 13  4  1  6  0  0  0
  4 16  1  0  0  0  0
 11  5  1  1  0  0  0
  5 34  1  0  0  0  0
 14  6  1  6  0  0  0
  6 19  1  0  0  0  0
  7 17  2  0  0  0  0
  8 22  2  0  0  0  0
  9 15  1  0  0  0  0
  9 17  1  0  0  0  0
  9 18  1  0  0  0  0
 10 17  1  0  0  0  0
 10 22  1  0  0  0  0
 10 41  1  0  0  0  0
 11 12  1  0  0  0  0
 11 13  1  0  0  0  0
 11 28  1  0  0  0  0
 12 15  1  1  0  0  0
 12 29  1  0  0  0  0
 13 14  1  0  0  0  0
 13 30  1  0  0  0  0
 14 31  1  0  0  0  0
 15 32  1  0  0  0  0
 15 33  1  0  0  0  0
 16 20  1  0  0  0  0
 16 35  1  0  0  0  0
 16 36  1  0  0  0  0
 18 21  2  0  0  0  0
 18 37  1  0  0  0  0
 19 38  1  0  0  0  0
 19 39  1  0  0  0  0
 19 40  1  0  0  0  0
 20 23  1  0  0  0  0
 20 24  2  0  0  0  0
 21 22  1  0  0  0  0
 23 25  2  0  0  0  0
 24 26  1  0  0  0  0
 24 42  1  0  0  0  0
 25 27  1  0  0  0  0
 25 43  1  0  0  0  0
 26 27  2  0  0  0  0
 26 44  1  0  0  0  0
 27 45  1  0  0  0  0
M  END
> <PUBCHEM_COMPOUND_CID>
513051
> <PUBCHEM_COMPOUND_CANONICALIZED>
1
> <PUBCHEM_CACTVS_COMPLEXITY>
606
> <PUBCHEM_CACTVS_HBOND_ACCEPTOR>
7
> <PUBCHEM_CACTVS_HBOND_DONOR>
2
> <PUBCHEM_CACTVS_ROTATABLE_BOND>
6
> <PUBCHEM_CACTVS_SUBSKEYS>
AAADceB7OQAEAAAAAAAAAAAAAAAAASAAAAAwQAAAAAAAAAABAAAAHwIQCAAADBbxmA8zCIPABgCIAiFWUACCAAAgAAAIiAAICMjbNiKAsRjncAAvxyMfqMfw0CIOAAAAAAAAAAAAAAAAAAAAAAAAAAAAAA==
> <PUBCHEM_IUPAC_OPENEYE_NAME>
5-chloro-1-[[(2R,3S,4R,5S)-4-[(2-fluorophenyl)methoxy]-3-hydroxy-5-methoxy-tetrahydrofuran-2-yl]methyl]pyrimidine-2,4-dione
> <PUBCHEM_IUPAC_CAS_NAME>
5-chloro-1-[[(2R,3S,4R,5S)-4-[(2-fluorophenyl)methoxy]-3-hydroxy-5-methoxy-2-oxolanyl]methyl]pyrimidine-2,4-dione
> <PUBCHEM_IUPAC_NAME_MARKUP>
5-chloro-1-[[(2<I>R</I>,3<I>S</I>,4<I>R</I>,5<I>S</I>)-4-[(2-fluorophenyl)methoxy]-3-hydroxy-5-methoxyoxolan-2-yl]methyl]pyrimidine-2,4-dione
> <PUBCHEM_IUPAC_NAME>
5-chloro-1-[[(2R,3S,4R,5S)-4-[(2-fluorophenyl)methoxy]-3-hydroxy-5-methoxyoxolan-2-yl]methyl]pyrimidine-2,4-dione
> <PUBCHEM_IUPAC_SYSTEMATIC_NAME>
5-chloranyl-1-[[(2R,3S,4R,5S)-4-[(2-fluorophenyl)methoxy]-5-methoxy-3-oxidanyl-oxolan-2-yl]methyl]pyrimidine-2,4-dione
> <PUBCHEM_IUPAC_TRADITIONAL_NAME>
5-chloro-1-[[(2R,3S,4R,5S)-4-(2-fluorobenzyl)oxy-3-hydroxy-5-methoxy-tetrahydrofuran-2-yl]methyl]pyrimidine-2,4-quinone
> <PUBCHEM_IUPAC_INCHI>
InChI=1S/C17H18ClFN2O6/c1-25-16-14(26-8-9-4-2-3-5-11(9)19)13(22)12(27-16)7-21-6-10(18)15(23)20-17(21)24/h2-6,12-14,16,22H,7-8H2,1H3,(H,20,23,24)/t12-,13+,14-,16+/m1/s1
> <PUBCHEM_IUPAC_INCHIKEY>
KSKHARGRAWVUST-CTASWTNQSA-N
> <PUBCHEM_XLOGP3_AA>
0.7
> <PUBCHEM_EXACT_MASS>
400.0837422
> <PUBCHEM_MOLECULAR_FORMULA>
C17H18ClFN2O6
> <PUBCHEM_MOLECULAR_WEIGHT>
400.8
> <PUBCHEM_OPENEYE_CAN_SMILES>
COC1C(C(C(O1)CN2C=C(C(=O)NC2=O)Cl)O)OCC3=CC=CC=C3F
> <PUBCHEM_OPENEYE_ISO_SMILES>
CO[C@@H]1[C@@H]([C@H]([C@H](O1)CN2C=C(C(=O)NC2=O)Cl)O)OCC3=CC=CC=C3F
> <PUBCHEM_CACTVS_TPSA>
97.3
> <PUBCHEM_MONOISOTOPIC_WEIGHT>
400.0837422
> <PUBCHEM_TOTAL_CHARGE>
0
> <PUBCHEM_HEAVY_ATOM_COUNT>
27
> <PUBCHEM_ATOM_DEF_STEREO_COUNT>
4
> <PUBCHEM_ATOM_UDEF_STEREO_COUNT>
0
> <PUBCHEM_BOND_DEF_STEREO_COUNT>
0
> <PUBCHEM_BOND_UDEF_STEREO_COUNT>
0
> <PUBCHEM_ISOTOPIC_ATOM_COUNT>
0
> <PUBCHEM_COMPONENT_COUNT>
1
> <PUBCHEM_CACTVS_TAUTO_COUNT>
-1
> <PUBCHEM_COORDINATE_TYPE>
1
5
255
> <PUBCHEM_BONDANNOTATIONS>
10  17  8
10  22  8
12  15  5
18  21  8
20  23  8
20  24  8
21  22  8
23  25  8
24  26  8
25  27  8
26  27  8
13  4  6
11  5  5
14  6  6
9  17  8
9  18  8
$$$$
