513014
  -OEChem-10302200282D
119121  0     1  0  0  0  0  0999 V2000
   12.1522    2.5318    0.0000 O   0  0  0  0  0  0  0  0  0  0  0  0
   11.0859    3.8967    0.0000 O   0  0  0  0  0  0  0  0  0  0  0  0
    8.9282    4.5568    0.0000 O   0  0  0  0  0  0  0  0  0  0  0  0
    8.0622    4.0568    0.0000 O   0  0  0  0  0  0  0  0  0  0  0  0
   10.3958    7.4683    0.0000 O   0  0  0  0  0  0  0  0  0  0  0  0
    7.1962    4.5568    0.0000 O   0  0  0  0  0  0  0  0  0  0  0  0
   11.7226    6.3549    0.0000 O   0  0  0  0  0  0  0  0  0  0  0  0
    5.4641    1.5568    0.0000 O   0  0  0  0  0  0  0  0  0  0  0  0
    6.3301   -1.9432    0.0000 O   0  0  0  0  0  0  0  0  0  0  0  0
    2.8660   -2.9432    0.0000 O   0  0  0  0  0  0  0  0  0  0  0  0
    8.9282    2.5568    0.0000 N   0  0  0  0  0  0  0  0  0  0  0  0
   10.4370    4.8228    0.0000 N   0  0  0  0  0  0  0  0  0  0  0  0
    7.1962    1.5568    0.0000 N   0  0  0  0  0  0  0  0  0  0  0  0
    5.4641    4.5568    0.0000 N   0  0  0  0  0  0  0  0  0  0  0  0
    5.4641   -0.4432    0.0000 N   0  0  0  0  0  0  0  0  0  0  0  0
    4.5981   -2.9432    0.0000 N   0  0  0  0  0  0  0  0  0  0  0  0
   10.4370    2.2907    0.0000 C   0  0  0  0  0  0  0  0  0  0  0  0
   11.2851    1.7608    0.0000 C   0  0  0  0  0  0  0  0  0  0  0  0
    9.6710    1.6480    0.0000 C   0  0  0  0  0  0  0  0  0  0  0  0
   11.0431    0.7905    0.0000 C   0  0  0  0  0  0  0  0  0  0  0  0
   10.0456    0.7208    0.0000 C   0  0  0  0  0  0  0  0  0  0  0  0
    9.7942    3.0568    0.0000 C   0  0  1  0  0  0  0  0  0  0  0  0
   11.2250    2.9064    0.0000 C   0  0  0  0  0  0  0  0  0  0  0  0
    9.7942    4.0568    0.0000 C   0  0  0  0  0  0  0  0  0  0  0  0
    8.0622    3.0568    0.0000 C   0  0  0  0  0  0  0  0  0  0  0  0
    7.1962    2.5568    0.0000 C   0  0  2  0  0  0  0  0  0  0  0  0
   10.0950    5.7625    0.0000 C   0  0  1  0  0  0  0  0  0  0  0  0
    6.3301    3.0568    0.0000 C   0  0  0  0  0  0  0  0  0  0  0  0
    9.1102    5.9362    0.0000 C   0  0  0  0  0  0  0  0  0  0  0  0
    8.7682    6.8759    0.0000 C   0  0  0  0  0  0  0  0  0  0  0  0
    6.3301    4.0568    0.0000 C   0  0  0  0  0  0  0  0  0  0  0  0
   10.7378    6.5286    0.0000 C   0  0  0  0  0  0  0  0  0  0  0  0
    5.3596    5.5513    0.0000 C   0  0  0  0  0  0  0  0  0  0  0  0
    4.5506    4.1500    0.0000 C   0  0  0  0  0  0  0  0  0  0  0  0
    4.3814    5.7592    0.0000 C   0  0  0  0  0  0  0  0  0  0  0  0
    3.8814    4.8932    0.0000 C   0  0  0  0  0  0  0  0  0  0  0  0
    6.3301    1.0568    0.0000 C   0  0  0  0  0  0  0  0  0  0  0  0
    6.3301    0.0568    0.0000 C   0  0  2  0  0  0  0  0  0  0  0  0
    7.7834    7.0495    0.0000 C   0  0  0  0  0  0  0  0  0  0  0  0
    9.4110    7.6419    0.0000 C   0  0  0  0  0  0  0  0  0  0  0  0
    7.1962   -0.4432    0.0000 C   0  0  0  0  0  0  0  0  0  0  0  0
    8.0622    0.0568    0.0000 C   0  0  0  0  0  0  0  0  0  0  0  0
    7.1962   -1.4432    0.0000 C   0  0  0  0  0  0  0  0  0  0  0  0
    4.5981   -1.9432    0.0000 C   0  0  2  0  0  0  0  0  0  0  0  0
    5.4641   -1.4432    0.0000 C   0  0  0  0  0  0  0  0  0  0  0  0
    3.7320   -1.4432    0.0000 C   0  0  0  0  0  0  0  0  0  0  0  0
    3.7320   -0.4432    0.0000 C   0  0  0  0  0  0  0  0  0  0  0  0
    2.8660   -1.9432    0.0000 C   0  0  0  0  0  0  0  0  0  0  0  0
    3.7320   -3.4432    0.0000 C   0  0  0  0  0  0  0  0  0  0  0  0
    3.7320   -4.4432    0.0000 C   0  0  0  0  0  0  0  0  0  0  0  0
    2.8660   -4.9432    0.0000 C   0  0  0  0  0  0  0  0  0  0  0  0
    2.8660   -5.9432    0.0000 C   0  0  0  0  0  0  0  0  0  0  0  0
    3.7320   -6.4432    0.0000 C   0  0  0  0  0  0  0  0  0  0  0  0
    2.0000   -6.4432    0.0000 C   0  0  0  0  0  0  0  0  0  0  0  0
    3.7320   -7.4432    0.0000 C   0  0  0  0  0  0  0  0  0  0  0  0
    2.0000   -7.4432    0.0000 C   0  0  0  0  0  0  0  0  0  0  0  0
    2.8660   -7.9432    0.0000 C   0  0  0  0  0  0  0  0  0  0  0  0
   11.8677    1.5488    0.0000 H   0  0  0  0  0  0  0  0  0  0  0  0
   11.5569    2.3181    0.0000 H   0  0  0  0  0  0  0  0  0  0  0  0
    9.3243    2.1620    0.0000 H   0  0  0  0  0  0  0  0  0  0  0  0
    9.1235    1.3569    0.0000 H   0  0  0  0  0  0  0  0  0  0  0  0
   11.0215    0.1709    0.0000 H   0  0  0  0  0  0  0  0  0  0  0  0
   11.6571    0.7042    0.0000 H   0  0  0  0  0  0  0  0  0  0  0  0
    9.4496    0.5499    0.0000 H   0  0  0  0  0  0  0  0  0  0  0  0
   10.1532    0.1102    0.0000 H   0  0  0  0  0  0  0  0  0  0  0  0
    9.2573    3.3668    0.0000 H   0  0  0  0  0  0  0  0  0  0  0  0
    8.9282    1.9368    0.0000 H   0  0  0  0  0  0  0  0  0  0  0  0
   11.0476    4.7152    0.0000 H   0  0  0  0  0  0  0  0  0  0  0  0
   12.2385    1.9178    0.0000 H   0  0  0  0  0  0  0  0  0  0  0  0
    6.6592    2.2468    0.0000 H   0  0  0  0  0  0  0  0  0  0  0  0
   10.7056    5.6549    0.0000 H   0  0  0  0  0  0  0  0  0  0  0  0
    5.7196    3.1644    0.0000 H   0  0  0  0  0  0  0  0  0  0  0  0
    6.1181    2.4742    0.0000 H   0  0  0  0  0  0  0  0  0  0  0  0
    8.4996    5.8285    0.0000 H   0  0  0  0  0  0  0  0  0  0  0  0
    9.1102    5.3162    0.0000 H   0  0  0  0  0  0  0  0  0  0  0  0
    7.7331    1.2468    0.0000 H   0  0  0  0  0  0  0  0  0  0  0  0
    9.3788    6.7682    0.0000 H   0  0  0  0  0  0  0  0  0  0  0  0
    5.9796    5.5513    0.0000 H   0  0  0  0  0  0  0  0  0  0  0  0
    5.4244    6.1679    0.0000 H   0  0  0  0  0  0  0  0  0  0  0  0
    4.0490    3.7856    0.0000 H   0  0  0  0  0  0  0  0  0  0  0  0
    4.8606    3.6131    0.0000 H   0  0  0  0  0  0  0  0  0  0  0  0
    4.5730    6.3489    0.0000 H   0  0  0  0  0  0  0  0  0  0  0  0
    3.8150    6.0114    0.0000 H   0  0  0  0  0  0  0  0  0  0  0  0
    3.3798    5.2576    0.0000 H   0  0  0  0  0  0  0  0  0  0  0  0
    3.4666    4.4324    0.0000 H   0  0  0  0  0  0  0  0  0  0  0  0
    5.7932    0.3668    0.0000 H   0  0  0  0  0  0  0  0  0  0  0  0
    7.8910    7.6601    0.0000 H   0  0  0  0  0  0  0  0  0  0  0  0
    7.1728    7.1572    0.0000 H   0  0  0  0  0  0  0  0  0  0  0  0
    7.6757    6.4389    0.0000 H   0  0  0  0  0  0  0  0  0  0  0  0
    9.8859    7.2434    0.0000 H   0  0  0  0  0  0  0  0  0  0  0  0
    9.8095    8.1169    0.0000 H   0  0  0  0  0  0  0  0  0  0  0  0
    8.9360    8.0404    0.0000 H   0  0  0  0  0  0  0  0  0  0  0  0
    6.6592   -0.7532    0.0000 H   0  0  0  0  0  0  0  0  0  0  0  0
    4.9272   -0.1332    0.0000 H   0  0  0  0  0  0  0  0  0  0  0  0
   10.7943    7.9432    0.0000 H   0  0  0  0  0  0  0  0  0  0  0  0
    8.3722   -0.4801    0.0000 H   0  0  0  0  0  0  0  0  0  0  0  0
    8.5991    0.3668    0.0000 H   0  0  0  0  0  0  0  0  0  0  0  0
    7.7522    0.5937    0.0000 H   0  0  0  0  0  0  0  0  0  0  0  0
    6.5762   -1.4432    0.0000 H   0  0  0  0  0  0  0  0  0  0  0  0
    7.1962   -2.0632    0.0000 H   0  0  0  0  0  0  0  0  0  0  0  0
    7.8162   -1.4432    0.0000 H   0  0  0  0  0  0  0  0  0  0  0  0
    5.1350   -2.2532    0.0000 H   0  0  0  0  0  0  0  0  0  0  0  0
    3.7320   -2.0632    0.0000 H   0  0  0  0  0  0  0  0  0  0  0  0
    5.1350   -3.2532    0.0000 H   0  0  0  0  0  0  0  0  0  0  0  0
    4.3520   -0.4432    0.0000 H   0  0  0  0  0  0  0  0  0  0  0  0
    3.7320    0.1768    0.0000 H   0  0  0  0  0  0  0  0  0  0  0  0
    3.1120   -0.4432    0.0000 H   0  0  0  0  0  0  0  0  0  0  0  0
    2.5560   -1.4063    0.0000 H   0  0  0  0  0  0  0  0  0  0  0  0
    2.3291   -2.2532    0.0000 H   0  0  0  0  0  0  0  0  0  0  0  0
    3.1760   -2.4802    0.0000 H   0  0  0  0  0  0  0  0  0  0  0  0
    3.9441   -5.0258    0.0000 H   0  0  0  0  0  0  0  0  0  0  0  0
    4.3426   -4.3355    0.0000 H   0  0  0  0  0  0  0  0  0  0  0  0
    2.6540   -4.3606    0.0000 H   0  0  0  0  0  0  0  0  0  0  0  0
    2.2554   -5.0509    0.0000 H   0  0  0  0  0  0  0  0  0  0  0  0
    4.2690   -6.1332    0.0000 H   0  0  0  0  0  0  0  0  0  0  0  0
    1.4631   -6.1332    0.0000 H   0  0  0  0  0  0  0  0  0  0  0  0
    4.2690   -7.7532    0.0000 H   0  0  0  0  0  0  0  0  0  0  0  0
    1.4631   -7.7532    0.0000 H   0  0  0  0  0  0  0  0  0  0  0  0
    2.8660   -8.5632    0.0000 H   0  0  0  0  0  0  0  0  0  0  0  0
  1 23  1  0  0  0  0
  1 69  1  0  0  0  0
  2 23  2  0  0  0  0
  3 24  2  0  0  0  0
  4 25  2  0  0  0  0
  5 32  1  0  0  0  0
  5 95  1  0  0  0  0
  6 31  2  0  0  0  0
  7 32  2  0  0  0  0
  8 37  2  0  0  0  0
  9 45  2  0  0  0  0
 10 49  2  0  0  0  0
 22 11  1  6  0  0  0
 11 25  1  0  0  0  0
 11 67  1  0  0  0  0
 12 24  1  0  0  0  0
 27 12  1  1  0  0  0
 12 68  1  0  0  0  0
 26 13  1  1  0  0  0
 13 37  1  0  0  0  0
 13 76  1  0  0  0  0
 14 31  1  0  0  0  0
 14 33  1  0  0  0  0
 14 34  1  0  0  0  0
 38 15  1  6  0  0  0
 15 45  1  0  0  0  0
 15 94  1  0  0  0  0
 44 16  1  1  0  0  0
 16 49  1  0  0  0  0
 16104  1  0  0  0  0
 17 18  1  0  0  0  0
 17 19  1  0  0  0  0
 17 22  1  0  0  0  0
 17 23  1  0  0  0  0
 18 20  1  0  0  0  0
 18 58  1  0  0  0  0
 18 59  1  0  0  0  0
 19 21  1  0  0  0  0
 19 60  1  0  0  0  0
 19 61  1  0  0  0  0
 20 21  1  0  0  0  0
 20 62  1  0  0  0  0
 20 63  1  0  0  0  0
 21 64  1  0  0  0  0
 21 65  1  0  0  0  0
 22 24  1  0  0  0  0
 22 66  1  0  0  0  0
 25 26  1  0  0  0  0
 26 28  1  0  0  0  0
 26 70  1  0  0  0  0
 27 29  1  0  0  0  0
 27 32  1  0  0  0  0
 27 71  1  0  0  0  0
 28 31  1  0  0  0  0
 28 72  1  0  0  0  0
 28 73  1  0  0  0  0
 29 30  1  0  0  0  0
 29 74  1  0  0  0  0
 29 75  1  0  0  0  0
 30 39  1  0  0  0  0
 30 40  1  0  0  0  0
 30 77  1  0  0  0  0
 33 35  1  0  0  0  0
 33 78  1  0  0  0  0
 33 79  1  0  0  0  0
 34 36  1  0  0  0  0
 34 80  1  0  0  0  0
 34 81  1  0  0  0  0
 35 36  1  0  0  0  0
 35 82  1  0  0  0  0
 35 83  1  0  0  0  0
 36 84  1  0  0  0  0
 36 85  1  0  0  0  0
 37 38  1  0  0  0  0
 38 41  1  0  0  0  0
 38 86  1  0  0  0  0
 39 87  1  0  0  0  0
 39 88  1  0  0  0  0
 39 89  1  0  0  0  0
 40 90  1  0  0  0  0
 40 91  1  0  0  0  0
 40 92  1  0  0  0  0
 41 42  1  0  0  0  0
 41 43  1  0  0  0  0
 41 93  1  0  0  0  0
 42 96  1  0  0  0  0
 42 97  1  0  0  0  0
 42 98  1  0  0  0  0
 43 99  1  0  0  0  0
 43100  1  0  0  0  0
 43101  1  0  0  0  0
 44 45  1  0  0  0  0
 44 46  1  0  0  0  0
 44102  1  0  0  0  0
 46 47  1  0  0  0  0
 46 48  1  0  0  0  0
 46103  1  0  0  0  0
 47105  1  0  0  0  0
 47106  1  0  0  0  0
 47107  1  0  0  0  0
 48108  1  0  0  0  0
 48109  1  0  0  0  0
 48110  1  0  0  0  0
 49 50  1  0  0  0  0
 50 51  1  0  0  0  0
 50111  1  0  0  0  0
 50112  1  0  0  0  0
 51 52  1  0  0  0  0
 51113  1  0  0  0  0
 51114  1  0  0  0  0
 52 53  2  0  0  0  0
 52 54  1  0  0  0  0
 53 55  1  0  0  0  0
 53115  1  0  0  0  0
 54 56  2  0  0  0  0
 54116  1  0  0  0  0
 55 57  2  0  0  0  0
 55117  1  0  0  0  0
 56 57  1  0  0  0  0
 56118  1  0  0  0  0
 57119  1  0  0  0  0
M  END
> <PUBCHEM_COMPOUND_CID>
513014
> <PUBCHEM_COMPOUND_CANONICALIZED>
1
> <PUBCHEM_CACTVS_COMPLEXITY>
1430
> <PUBCHEM_CACTVS_HBOND_ACCEPTOR>
10
> <PUBCHEM_CACTVS_HBOND_DONOR>
7
> <PUBCHEM_CACTVS_ROTATABLE_BOND>
21
> <PUBCHEM_CACTVS_SUBSKEYS>
AAADcfB/vAAAAAAAAAAAAAAAAAAAAeIAAAAwAAAAAAAAAAABAAAAHgAQCAAADyjBmAQyCIPAAgCIAiHSGAACAAAgAAAIiIGIAIgKYDqA0TCUYAAmlgCYiAe/yICPAAAAAAAAAAAAAAAAAAAAAAAAAAAAAA==
> <PUBCHEM_IUPAC_OPENEYE_NAME>
1-[(1S)-2-[[(1S)-1-carboxy-3-methyl-butyl]amino]-1-[[(2S)-2-[[(2S)-3-methyl-2-[[(2S)-3-methyl-2-(3-phenylpropanoylamino)butanoyl]amino]butanoyl]amino]-4-oxo-4-pyrrolidin-1-yl-butanoyl]amino]-2-oxo-ethyl]cyclopentanecarboxylic acid
> <PUBCHEM_IUPAC_CAS_NAME>
1-[(1S)-2-[[(1S)-1-carboxy-3-methylbutyl]amino]-1-[[(2S)-2-[[(2S)-3-methyl-2-[[(2S)-3-methyl-1-oxo-2-[(1-oxo-3-phenylpropyl)amino]butyl]amino]-1-oxobutyl]amino]-1,4-dioxo-4-(1-pyrrolidinyl)butyl]amino]-2-oxoethyl]-1-cyclopentanecarboxylic acid
> <PUBCHEM_IUPAC_NAME_MARKUP>
1-[(1<I>S</I>)-2-[[(1<I>S</I>)-1-carboxy-3-methylbutyl]amino]-1-[[(2<I>S</I>)-2-[[(2<I>S</I>)-3-methyl-2-[[(2<I>S</I>)-3-methyl-2-(3-phenylpropanoylamino)butanoyl]amino]butanoyl]amino]-4-oxo-4-pyrrolidin-1-ylbutanoyl]amino]-2-oxoethyl]cyclopentane-1-carboxylic acid
> <PUBCHEM_IUPAC_NAME>
1-[(1S)-2-[[(1S)-1-carboxy-3-methylbutyl]amino]-1-[[(2S)-2-[[(2S)-3-methyl-2-[[(2S)-3-methyl-2-(3-phenylpropanoylamino)butanoyl]amino]butanoyl]amino]-4-oxo-4-pyrrolidin-1-ylbutanoyl]amino]-2-oxoethyl]cyclopentane-1-carboxylic acid
> <PUBCHEM_IUPAC_SYSTEMATIC_NAME>
1-[(1S)-1-[[(2S)-2-[[(2S)-3-methyl-2-[[(2S)-3-methyl-2-(3-phenylpropanoylamino)butanoyl]amino]butanoyl]amino]-4-oxidanylidene-4-pyrrolidin-1-yl-butanoyl]amino]-2-[[(2S)-4-methyl-1-oxidanyl-1-oxidanylidene-pentan-2-yl]amino]-2-oxidanylidene-ethyl]cyclopentane-1-carboxylic acid
> <PUBCHEM_IUPAC_TRADITIONAL_NAME>
1-[(1S)-2-[[(1S)-1-carboxy-3-methyl-butyl]amino]-1-[[(2S)-2-[[(2S)-2-[[(2S)-2-(hydrocinnamoylamino)-3-methyl-butanoyl]amino]-3-methyl-butanoyl]amino]-4-keto-4-pyrrolidino-butanoyl]amino]-2-keto-ethyl]cyclopentanecarboxylic acid
> <PUBCHEM_IUPAC_INCHI>
InChI=1S/C41H62N6O10/c1-24(2)22-29(39(54)55)43-38(53)34(41(40(56)57)18-10-11-19-41)46-35(50)28(23-31(49)47-20-12-13-21-47)42-36(51)33(26(5)6)45-37(52)32(25(3)4)44-30(48)17-16-27-14-8-7-9-15-27/h7-9,14-15,24-26,28-29,32-34H,10-13,16-23H2,1-6H3,(H,42,51)(H,43,53)(H,44,48)(H,45,52)(H,46,50)(H,54,55)(H,56,57)/t28-,29-,32-,33-,34+/m0/s1
> <PUBCHEM_IUPAC_INCHIKEY>
KHGXQGMNQMAHKJ-QSAKORRRSA-N
> <PUBCHEM_XLOGP3_AA>
3.8
> <PUBCHEM_EXACT_MASS>
798.45274220
> <PUBCHEM_MOLECULAR_FORMULA>
C41H62N6O10
> <PUBCHEM_MOLECULAR_WEIGHT>
799.0
> <PUBCHEM_OPENEYE_CAN_SMILES>
CC(C)CC(C(=O)O)NC(=O)C(C1(CCCC1)C(=O)O)NC(=O)C(CC(=O)N2CCCC2)NC(=O)C(C(C)C)NC(=O)C(C(C)C)NC(=O)CCC3=CC=CC=C3
> <PUBCHEM_OPENEYE_ISO_SMILES>
CC(C)C[C@@H](C(=O)O)NC(=O)[C@H](C1(CCCC1)C(=O)O)NC(=O)[C@H](CC(=O)N2CCCC2)NC(=O)[C@H](C(C)C)NC(=O)[C@H](C(C)C)NC(=O)CCC3=CC=CC=C3
> <PUBCHEM_CACTVS_TPSA>
240
> <PUBCHEM_MONOISOTOPIC_WEIGHT>
798.45274220
> <PUBCHEM_TOTAL_CHARGE>
0
> <PUBCHEM_HEAVY_ATOM_COUNT>
57
> <PUBCHEM_ATOM_DEF_STEREO_COUNT>
5
> <PUBCHEM_ATOM_UDEF_STEREO_COUNT>
0
> <PUBCHEM_BOND_DEF_STEREO_COUNT>
0
> <PUBCHEM_BOND_UDEF_STEREO_COUNT>
0
> <PUBCHEM_ISOTOPIC_ATOM_COUNT>
0
> <PUBCHEM_COMPONENT_COUNT>
1
> <PUBCHEM_CACTVS_TAUTO_COUNT>
-1
> <PUBCHEM_COORDINATE_TYPE>
1
5
255
> <PUBCHEM_BONDANNOTATIONS>
22  11  6
27  12  5
26  13  5
38  15  6
44  16  5
52  53  8
52  54  8
53  55  8
54  56  8
55  57  8
56  57  8
$$$$
