513044
  -OEChem-10302200282D
 47 49  0     1  0  0  0  0  0999 V2000
    4.6870    0.7850    0.0000 O   0  0  0  0  0  0  0  0  0  0  0  0
    4.1111    3.3077    0.0000 O   0  0  0  0  0  0  0  0  0  0  0  0
    2.6166    0.5101    0.0000 O   0  0  0  0  0  0  0  0  0  0  0  0
    9.1448   -0.6130    0.0000 O   0  0  0  0  0  0  0  0  0  0  0  0
    5.6005   -0.8083    0.0000 O   0  0  0  0  0  0  0  0  0  0  0  0
    6.4666    0.6917    0.0000 N   0  0  0  0  0  0  0  0  0  0  0  0
    7.3326   -0.8083    0.0000 N   0  0  0  0  0  0  0  0  0  0  0  0
    5.6005    1.1917    0.0000 C   0  0  1  0  0  0  0  0  0  0  0  0
    4.5179    2.3942    0.0000 C   0  0  1  0  0  0  0  0  0  0  0  0
    5.4960    2.1863    0.0000 C   0  0  0  0  0  0  0  0  0  0  0  0
    4.0179    1.5281    0.0000 C   0  0  1  0  0  0  0  0  0  0  0  0
    3.0233    1.4236    0.0000 C   0  0  0  0  0  0  0  0  0  0  0  0
    7.3326    1.1917    0.0000 C   0  0  0  0  0  0  0  0  0  0  0  0
    8.1986    0.6917    0.0000 C   0  0  0  0  0  0  0  0  0  0  0  0
    6.4666   -0.3083    0.0000 C   0  0  0  0  0  0  0  0  0  0  0  0
    8.1986   -0.3083    0.0000 C   0  0  0  0  0  0  0  0  0  0  0  0
    9.7284    0.1917    0.0000 C   0  0  0  0  0  0  0  0  0  0  0  0
   10.7284    0.1917    0.0000 C   0  0  0  0  0  0  0  0  0  0  0  0
    9.1448    0.9965    0.0000 C   0  0  0  0  0  0  0  0  0  0  0  0
   11.2284   -0.6743    0.0000 C   0  0  0  0  0  0  0  0  0  0  0  0
   12.2284   -0.6743    0.0000 C   0  0  0  0  0  0  0  0  0  0  0  0
   12.7284   -1.5403    0.0000 C   0  0  0  0  0  0  0  0  0  0  0  0
   13.7284   -1.5403    0.0000 C   0  0  0  0  0  0  0  0  0  0  0  0
   14.2284   -2.4063    0.0000 C   0  0  0  0  0  0  0  0  0  0  0  0
   14.7284   -3.2724    0.0000 C   0  0  0  0  0  0  0  0  0  0  0  0
    5.5681    0.5726    0.0000 H   0  0  0  0  0  0  0  0  0  0  0  0
    4.9080    2.8760    0.0000 H   0  0  0  0  0  0  0  0  0  0  0  0
    6.1160    2.1863    0.0000 H   0  0  0  0  0  0  0  0  0  0  0  0
    5.5608    2.8029    0.0000 H   0  0  0  0  0  0  0  0  0  0  0  0
    3.7957    0.9493    0.0000 H   0  0  0  0  0  0  0  0  0  0  0  0
    3.0666    2.0421    0.0000 H   0  0  0  0  0  0  0  0  0  0  0  0
    2.4218    1.5736    0.0000 H   0  0  0  0  0  0  0  0  0  0  0  0
    7.3326    1.8117    0.0000 H   0  0  0  0  0  0  0  0  0  0  0  0
    4.4756    3.8093    0.0000 H   0  0  0  0  0  0  0  0  0  0  0  0
   11.3111    0.4038    0.0000 H   0  0  0  0  0  0  0  0  0  0  0  0
   10.6208    0.8023    0.0000 H   0  0  0  0  0  0  0  0  0  0  0  0
    9.3374    1.5858    0.0000 H   0  0  0  0  0  0  0  0  0  0  0  0
   10.6458   -0.8863    0.0000 H   0  0  0  0  0  0  0  0  0  0  0  0
   11.3361   -1.2849    0.0000 H   0  0  0  0  0  0  0  0  0  0  0  0
   12.8111   -0.4622    0.0000 H   0  0  0  0  0  0  0  0  0  0  0  0
   12.1208   -0.0637    0.0000 H   0  0  0  0  0  0  0  0  0  0  0  0
    2.0000    0.4453    0.0000 H   0  0  0  0  0  0  0  0  0  0  0  0
   12.1458   -1.7524    0.0000 H   0  0  0  0  0  0  0  0  0  0  0  0
   12.8361   -2.1509    0.0000 H   0  0  0  0  0  0  0  0  0  0  0  0
   14.3111   -1.3283    0.0000 H   0  0  0  0  0  0  0  0  0  0  0  0
   13.6208   -0.9297    0.0000 H   0  0  0  0  0  0  0  0  0  0  0  0
   15.0384   -3.8093    0.0000 H   0  0  0  0  0  0  0  0  0  0  0  0
  1  8  1  0  0  0  0
  1 11  1  0  0  0  0
  9  2  1  1  0  0  0
  2 34  1  0  0  0  0
  3 12  1  0  0  0  0
  3 42  1  0  0  0  0
  4 16  1  0  0  0  0
  4 17  1  0  0  0  0
  5 15  2  0  0  0  0
  8  6  1  6  0  0  0
  6 13  1  0  0  0  0
  6 15  1  0  0  0  0
  7 15  1  0  0  0  0
  7 16  2  0  0  0  0
  8 10  1  0  0  0  0
  8 26  1  0  0  0  0
  9 10  1  0  0  0  0
  9 11  1  0  0  0  0
  9 27  1  0  0  0  0
 10 28  1  0  0  0  0
 10 29  1  0  0  0  0
 11 12  1  6  0  0  0
 11 30  1  0  0  0  0
 12 31  1  0  0  0  0
 12 32  1  0  0  0  0
 13 14  2  0  0  0  0
 13 33  1  0  0  0  0
 14 16  1  0  0  0  0
 14 19  1  0  0  0  0
 17 18  1  0  0  0  0
 17 19  2  0  0  0  0
 18 20  1  0  0  0  0
 18 35  1  0  0  0  0
 18 36  1  0  0  0  0
 19 37  1  0  0  0  0
 20 21  1  0  0  0  0
 20 38  1  0  0  0  0
 20 39  1  0  0  0  0
 21 22  1  0  0  0  0
 21 40  1  0  0  0  0
 21 41  1  0  0  0  0
 22 23  1  0  0  0  0
 22 43  1  0  0  0  0
 22 44  1  0  0  0  0
 23 24  1  0  0  0  0
 23 45  1  0  0  0  0
 23 46  1  0  0  0  0
 24 25  3  0  0  0  0
 25 47  1  0  0  0  0
M  END
> <PUBCHEM_COMPOUND_CID>
513044
> <PUBCHEM_COMPOUND_CANONICALIZED>
1
> <PUBCHEM_CACTVS_COMPLEXITY>
672
> <PUBCHEM_CACTVS_HBOND_ACCEPTOR>
5
> <PUBCHEM_CACTVS_HBOND_DONOR>
2
> <PUBCHEM_CACTVS_ROTATABLE_BOND>
7
> <PUBCHEM_CACTVS_SUBSKEYS>
AAADceB7OAAAAAAAAAAAAAAAAAAAASIAAAAgAAAAAAAAAEAAAAAAHgAACAAADBThgAYBAAMABgDoGiBmVAgACAAgIAAACAAoABiJFAIAoQAOQAAHxgILoAOw8CIAAAAAAAAAAAAAAAAAAAAAAAAAAAAAAA==
> <PUBCHEM_IUPAC_OPENEYE_NAME>
6-hept-6-ynyl-3-[(2R,4S,5R)-4-hydroxy-5-(hydroxymethyl)tetrahydrofuran-2-yl]furo[2,3-d]pyrimidin-2-one
> <PUBCHEM_IUPAC_CAS_NAME>
6-hept-6-ynyl-3-[(2R,4S,5R)-4-hydroxy-5-(hydroxymethyl)-2-oxolanyl]-2-furo[2,3-d]pyrimidinone
> <PUBCHEM_IUPAC_NAME_MARKUP>
6-hept-6-ynyl-3-[(2<I>R</I>,4<I>S</I>,5<I>R</I>)-4-hydroxy-5-(hydroxymethyl)oxolan-2-yl]furo[2,3-d]pyrimidin-2-one
> <PUBCHEM_IUPAC_NAME>
6-hept-6-ynyl-3-[(2R,4S,5R)-4-hydroxy-5-(hydroxymethyl)oxolan-2-yl]furo[2,3-d]pyrimidin-2-one
> <PUBCHEM_IUPAC_SYSTEMATIC_NAME>
6-hept-6-ynyl-3-[(2R,4S,5R)-5-(hydroxymethyl)-4-oxidanyl-oxolan-2-yl]furo[2,3-d]pyrimidin-2-one
> <PUBCHEM_IUPAC_TRADITIONAL_NAME>
6-hept-6-ynyl-3-[(2R,4S,5R)-4-hydroxy-5-methylol-tetrahydrofuran-2-yl]furo[2,3-d]pyrimidin-2-one
> <PUBCHEM_IUPAC_INCHI>
InChI=1S/C18H22N2O5/c1-2-3-4-5-6-7-13-8-12-10-20(18(23)19-17(12)24-13)16-9-14(22)15(11-21)25-16/h1,8,10,14-16,21-22H,3-7,9,11H2/t14-,15+,16+/m0/s1
> <PUBCHEM_IUPAC_INCHIKEY>
VZCJAFHSOJLVOC-ARFHVFGLSA-N
> <PUBCHEM_XLOGP3_AA>
1.8
> <PUBCHEM_EXACT_MASS>
346.15287181
> <PUBCHEM_MOLECULAR_FORMULA>
C18H22N2O5
> <PUBCHEM_MOLECULAR_WEIGHT>
346.4
> <PUBCHEM_OPENEYE_CAN_SMILES>
C#CCCCCCC1=CC2=CN(C(=O)N=C2O1)C3CC(C(O3)CO)O
> <PUBCHEM_OPENEYE_ISO_SMILES>
C#CCCCCCC1=CC2=CN(C(=O)N=C2O1)[C@H]3C[C@@H]([C@H](O3)CO)O
> <PUBCHEM_CACTVS_TPSA>
91.6
> <PUBCHEM_MONOISOTOPIC_WEIGHT>
346.15287181
> <PUBCHEM_TOTAL_CHARGE>
0
> <PUBCHEM_HEAVY_ATOM_COUNT>
25
> <PUBCHEM_ATOM_DEF_STEREO_COUNT>
3
> <PUBCHEM_ATOM_UDEF_STEREO_COUNT>
0
> <PUBCHEM_BOND_DEF_STEREO_COUNT>
0
> <PUBCHEM_BOND_UDEF_STEREO_COUNT>
0
> <PUBCHEM_ISOTOPIC_ATOM_COUNT>
0
> <PUBCHEM_COMPONENT_COUNT>
1
> <PUBCHEM_CACTVS_TAUTO_COUNT>
-1
> <PUBCHEM_COORDINATE_TYPE>
1
5
255
> <PUBCHEM_BONDANNOTATIONS>
11  12  6
13  14  8
14  16  8
14  19  8
17  19  8
9  2  5
4  16  8
4  17  8
6  13  8
6  15  8
8  6  6
7  15  8
7  16  8
$$$$
