513058
  -OEChem-10302200282D
 35 36  0     1  0  0  0  0  0999 V2000
    5.4071   -1.3703    0.0000 O   0  0  0  0  0  0  0  0  0  0  0  0
    3.5103   -3.1304    0.0000 O   0  0  0  0  0  0  0  0  0  0  0  0
    6.6804   -3.0259    0.0000 O   0  0  0  0  0  0  0  0  0  0  0  0
    6.3301    0.2175    0.0000 O   0  0  0  0  0  0  0  0  0  0  0  0
    4.5981    0.2175    0.0000 N   0  0  0  0  0  0  0  0  0  0  0  0
    5.4641    1.7175    0.0000 N   0  0  0  0  0  0  0  0  0  0  0  0
    4.5981    3.2175    0.0000 N   0  0  0  0  0  0  0  0  0  0  0  0
    4.0981   -2.3214    0.0000 C   0  0  1  0  0  0  0  0  0  0  0  0
    4.5981   -0.7825    0.0000 C   0  0  1  0  0  0  0  0  0  0  0  0
    3.7891   -1.3703    0.0000 C   0  0  0  0  0  0  0  0  0  0  0  0
    5.0981   -2.3214    0.0000 C   0  0  1  0  0  0  0  0  0  0  0  0
    5.6859   -3.1304    0.0000 C   0  0  0  0  0  0  0  0  0  0  0  0
    3.7320    0.7175    0.0000 C   0  0  0  0  0  0  0  0  0  0  0  0
    5.4641    0.7175    0.0000 C   0  0  0  0  0  0  0  0  0  0  0  0
    3.7320    1.7175    0.0000 C   0  0  0  0  0  0  0  0  0  0  0  0
    4.5981    2.2175    0.0000 C   0  0  0  0  0  0  0  0  0  0  0  0
    2.8660    2.2175    0.0000 C   0  0  0  0  0  0  0  0  0  0  0  0
    2.0000    1.7175    0.0000 C   0  0  0  0  0  0  0  0  0  0  0  0
    4.3796   -2.8738    0.0000 H   0  0  0  0  0  0  0  0  0  0  0  0
    5.1505   -0.5011    0.0000 H   0  0  0  0  0  0  0  0  0  0  0  0
    3.4791   -0.8334    0.0000 H   0  0  0  0  0  0  0  0  0  0  0  0
    3.2227   -1.6225    0.0000 H   0  0  0  0  0  0  0  0  0  0  0  0
    5.7104   -2.2244    0.0000 H   0  0  0  0  0  0  0  0  0  0  0  0
    5.1286   -3.4022    0.0000 H   0  0  0  0  0  0  0  0  0  0  0  0
    5.8568   -3.7264    0.0000 H   0  0  0  0  0  0  0  0  0  0  0  0
    3.1951    0.4075    0.0000 H   0  0  0  0  0  0  0  0  0  0  0  0
    2.8937   -3.0656    0.0000 H   0  0  0  0  0  0  0  0  0  0  0  0
    3.2646    2.6924    0.0000 H   0  0  0  0  0  0  0  0  0  0  0  0
    2.4675    2.6924    0.0000 H   0  0  0  0  0  0  0  0  0  0  0  0
    7.0448   -3.5275    0.0000 H   0  0  0  0  0  0  0  0  0  0  0  0
    1.6900    2.2544    0.0000 H   0  0  0  0  0  0  0  0  0  0  0  0
    1.4631    1.4075    0.0000 H   0  0  0  0  0  0  0  0  0  0  0  0
    2.3100    1.1805    0.0000 H   0  0  0  0  0  0  0  0  0  0  0  0
    5.1350    3.5275    0.0000 H   0  0  0  0  0  0  0  0  0  0  0  0
    4.0611    3.5275    0.0000 H   0  0  0  0  0  0  0  0  0  0  0  0
  1  9  1  0  0  0  0
  1 11  1  0  0  0  0
  8  2  1  1  0  0  0
  2 27  1  0  0  0  0
  3 12  1  0  0  0  0
  3 30  1  0  0  0  0
  4 14  2  0  0  0  0
  9  5  1  6  0  0  0
  5 13  1  0  0  0  0
  5 14  1  0  0  0  0
  6 14  1  0  0  0  0
  6 16  2  0  0  0  0
  7 16  1  0  0  0  0
  7 34  1  0  0  0  0
  7 35  1  0  0  0  0
  8 10  1  0  0  0  0
  8 11  1  0  0  0  0
  8 19  1  0  0  0  0
  9 10  1  0  0  0  0
  9 20  1  0  0  0  0
 10 21  1  0  0  0  0
 10 22  1  0  0  0  0
 11 12  1  6  0  0  0
 11 23  1  0  0  0  0
 12 24  1  0  0  0  0
 12 25  1  0  0  0  0
 13 15  2  0  0  0  0
 13 26  1  0  0  0  0
 15 16  1  0  0  0  0
 15 17  1  0  0  0  0
 17 18  1  0  0  0  0
 17 28  1  0  0  0  0
 17 29  1  0  0  0  0
 18 31  1  0  0  0  0
 18 32  1  0  0  0  0
 18 33  1  0  0  0  0
M  END
> <PUBCHEM_COMPOUND_CID>
513058
> <PUBCHEM_COMPOUND_CANONICALIZED>
1
> <PUBCHEM_CACTVS_COMPLEXITY>
407
> <PUBCHEM_CACTVS_HBOND_ACCEPTOR>
4
> <PUBCHEM_CACTVS_HBOND_DONOR>
3
> <PUBCHEM_CACTVS_ROTATABLE_BOND>
3
> <PUBCHEM_CACTVS_SUBSKEYS>
AAADceBzOAAAAAAAAAAAAAAAAAAAASAAAAAgAAAAAAAAAAAAAAAAHgAQCAAADBThgAYDAANABgCoAgJmdACAAAEgAAAAAAAoABiBEAIAgQAOQAAHBgIDAACwMAIAAAAAAAAAAAAAAAAAAAAAAAAAAAAAAA==
> <PUBCHEM_IUPAC_OPENEYE_NAME>
4-amino-5-ethyl-1-[(2R,4S,5R)-4-hydroxy-5-(hydroxymethyl)tetrahydrofuran-2-yl]pyrimidin-2-one
> <PUBCHEM_IUPAC_CAS_NAME>
4-amino-5-ethyl-1-[(2R,4S,5R)-4-hydroxy-5-(hydroxymethyl)-2-oxolanyl]-2-pyrimidinone
> <PUBCHEM_IUPAC_NAME_MARKUP>
4-amino-5-ethyl-1-[(2<I>R</I>,4<I>S</I>,5<I>R</I>)-4-hydroxy-5-(hydroxymethyl)oxolan-2-yl]pyrimidin-2-one
> <PUBCHEM_IUPAC_NAME>
4-amino-5-ethyl-1-[(2R,4S,5R)-4-hydroxy-5-(hydroxymethyl)oxolan-2-yl]pyrimidin-2-one
> <PUBCHEM_IUPAC_SYSTEMATIC_NAME>
4-azanyl-5-ethyl-1-[(2R,4S,5R)-5-(hydroxymethyl)-4-oxidanyl-oxolan-2-yl]pyrimidin-2-one
> <PUBCHEM_IUPAC_TRADITIONAL_NAME>
4-amino-5-ethyl-1-[(2R,4S,5R)-4-hydroxy-5-methylol-tetrahydrofuran-2-yl]pyrimidin-2-one
> <PUBCHEM_IUPAC_INCHI>
InChI=1S/C11H17N3O4/c1-2-6-4-14(11(17)13-10(6)12)9-3-7(16)8(5-15)18-9/h4,7-9,15-16H,2-3,5H2,1H3,(H2,12,13,17)/t7-,8+,9+/m0/s1
> <PUBCHEM_IUPAC_INCHIKEY>
CMZLCHVZCXOMIF-DJLDLDEBSA-N
> <PUBCHEM_XLOGP3>
-1
> <PUBCHEM_EXACT_MASS>
255.12190603
> <PUBCHEM_MOLECULAR_FORMULA>
C11H17N3O4
> <PUBCHEM_MOLECULAR_WEIGHT>
255.27
> <PUBCHEM_OPENEYE_CAN_SMILES>
CCC1=CN(C(=O)N=C1N)C2CC(C(O2)CO)O
> <PUBCHEM_OPENEYE_ISO_SMILES>
CCC1=CN(C(=O)N=C1N)[C@H]2C[C@@H]([C@H](O2)CO)O
> <PUBCHEM_CACTVS_TPSA>
108
> <PUBCHEM_MONOISOTOPIC_WEIGHT>
255.12190603
> <PUBCHEM_TOTAL_CHARGE>
0
> <PUBCHEM_HEAVY_ATOM_COUNT>
18
> <PUBCHEM_ATOM_DEF_STEREO_COUNT>
3
> <PUBCHEM_ATOM_UDEF_STEREO_COUNT>
0
> <PUBCHEM_BOND_DEF_STEREO_COUNT>
0
> <PUBCHEM_BOND_UDEF_STEREO_COUNT>
0
> <PUBCHEM_ISOTOPIC_ATOM_COUNT>
0
> <PUBCHEM_COMPONENT_COUNT>
1
> <PUBCHEM_CACTVS_TAUTO_COUNT>
3
> <PUBCHEM_COORDINATE_TYPE>
1
5
255
> <PUBCHEM_BONDANNOTATIONS>
11  12  6
13  15  8
15  16  8
8  2  5
5  13  8
5  14  8
9  5  6
6  14  8
6  16  8
$$$$
