513064
  -OEChem-10302200282D
 32 33  0     1  0  0  0  0  0999 V2000
    5.0298   -0.8613    0.0000 O   0  0  0  0  0  0  0  0  0  0  0  0
    2.4608   -0.5523    0.0000 O   0  0  0  0  0  0  0  0  0  0  0  0
    3.1330   -2.6214    0.0000 O   0  0  0  0  0  0  0  0  0  0  0  0
    4.9019   -3.5349    0.0000 O   0  0  0  0  0  0  0  0  0  0  0  0
    4.2208    0.7265    0.0000 N   0  3  0  0  0  0  0  0  0  0  0  0
    5.0868    2.2265    0.0000 N   0  0  0  0  0  0  0  0  0  0  0  0
    5.9529    0.7265    0.0000 N   0  0  0  0  0  0  0  0  0  0  0  0
    4.2208    3.7265    0.0000 N   0  0  0  0  0  0  0  0  0  0  0  0
    3.4118   -0.8613    0.0000 C   0  0  1  0  0  0  0  0  0  0  0  0
    3.7208   -1.8123    0.0000 C   0  0  1  0  0  0  0  0  0  0  0  0
    4.2208   -0.2735    0.0000 C   0  0  1  0  0  0  0  0  0  0  0  0
    4.7208   -1.8123    0.0000 C   0  0  1  0  0  0  0  0  0  0  0  0
    5.3086   -2.6214    0.0000 C   0  0  0  0  0  0  0  0  0  0  0  0
    5.0868    1.2265    0.0000 C   0  0  0  0  0  0  0  0  0  0  0  0
    3.3548    1.2265    0.0000 C   0  0  0  0  0  0  0  0  0  0  0  0
    3.3548    2.2265    0.0000 C   0  0  0  0  0  0  0  0  0  0  0  0
    4.2208    2.7265    0.0000 C   0  0  0  0  0  0  0  0  0  0  0  0
    2.9734   -1.2997    0.0000 H   0  0  0  0  0  0  0  0  0  0  0  0
    3.1085   -1.7154    0.0000 H   0  0  0  0  0  0  0  0  0  0  0  0
    3.6684    0.0080    0.0000 H   0  0  0  0  0  0  0  0  0  0  0  0
    5.3332   -1.7154    0.0000 H   0  0  0  0  0  0  0  0  0  0  0  0
    5.8226   -2.9681    0.0000 H   0  0  0  0  0  0  0  0  0  0  0  0
    5.7393   -2.1754    0.0000 H   0  0  0  0  0  0  0  0  0  0  0  0
    2.0000   -0.9671    0.0000 H   0  0  0  0  0  0  0  0  0  0  0  0
    2.5164   -2.5566    0.0000 H   0  0  0  0  0  0  0  0  0  0  0  0
    2.8179    0.9165    0.0000 H   0  0  0  0  0  0  0  0  0  0  0  0
    5.2663   -4.0365    0.0000 H   0  0  0  0  0  0  0  0  0  0  0  0
    2.8179    2.5365    0.0000 H   0  0  0  0  0  0  0  0  0  0  0  0
    6.4898    1.0365    0.0000 H   0  0  0  0  0  0  0  0  0  0  0  0
    5.9529    0.1065    0.0000 H   0  0  0  0  0  0  0  0  0  0  0  0
    3.6839    4.0365    0.0000 H   0  0  0  0  0  0  0  0  0  0  0  0
    4.7578    4.0365    0.0000 H   0  0  0  0  0  0  0  0  0  0  0  0
  1 11  1  0  0  0  0
  1 12  1  0  0  0  0
  9  2  1  6  0  0  0
  2 24  1  0  0  0  0
 10  3  1  1  0  0  0
  3 25  1  0  0  0  0
  4 13  1  0  0  0  0
  4 27  1  0  0  0  0
 11  5  1  6  0  0  0
  5 14  2  0  0  0  0
  5 15  1  0  0  0  0
  6 14  1  0  0  0  0
  6 17  2  0  0  0  0
  7 14  1  0  0  0  0
  7 29  1  0  0  0  0
  7 30  1  0  0  0  0
  8 17  1  0  0  0  0
  8 31  1  0  0  0  0
  8 32  1  0  0  0  0
  9 10  1  0  0  0  0
  9 11  1  0  0  0  0
  9 18  1  0  0  0  0
 10 12  1  0  0  0  0
 10 19  1  0  0  0  0
 11 20  1  0  0  0  0
 12 13  1  6  0  0  0
 12 21  1  0  0  0  0
 13 22  1  0  0  0  0
 13 23  1  0  0  0  0
 15 16  2  0  0  0  0
 15 26  1  0  0  0  0
 16 17  1  0  0  0  0
 16 28  1  0  0  0  0
M  CHG  1   5   1
M  END
> <PUBCHEM_COMPOUND_CID>
513064
> <PUBCHEM_COMPOUND_CANONICALIZED>
1
> <PUBCHEM_CACTVS_COMPLEXITY>
269
> <PUBCHEM_CACTVS_HBOND_ACCEPTOR>
7
> <PUBCHEM_CACTVS_HBOND_DONOR>
5
> <PUBCHEM_CACTVS_ROTATABLE_BOND>
2
> <PUBCHEM_CACTVS_SUBSKEYS>
AAADccBzuAAAAAAAAAAAAAAAAAAAASAAAAAsAAAAAAAAAAABgAAAHgAQCAAACBThkgY9sJdMFgCgADJnZACAgCkRAqAJUCA4ZBCDGIJAyEAORAgPEALTACDwMAIAAAAAAAAAAAAAAAAAAAAAAAAAAAAAAA==
> <PUBCHEM_IUPAC_OPENEYE_NAME>
(2R,3S,4S,5R)-2-(2,4-diaminopyrimidin-1-ium-1-yl)-5-(hydroxymethyl)tetrahydrofuran-3,4-diol
> <PUBCHEM_IUPAC_CAS_NAME>
(2R,3S,4S,5R)-2-(2,4-diamino-1-pyrimidin-1-iumyl)-5-(hydroxymethyl)oxolane-3,4-diol
> <PUBCHEM_IUPAC_NAME_MARKUP>
(2<I>R</I>,3<I>S</I>,4<I>S</I>,5<I>R</I>)-2-(2,4-diaminopyrimidin-1-ium-1-yl)-5-(hydroxymethyl)oxolane-3,4-diol
> <PUBCHEM_IUPAC_NAME>
(2R,3S,4S,5R)-2-(2,4-diaminopyrimidin-1-ium-1-yl)-5-(hydroxymethyl)oxolane-3,4-diol
> <PUBCHEM_IUPAC_SYSTEMATIC_NAME>
(2R,3S,4S,5R)-2-[2,4-bis(azanyl)pyrimidin-1-ium-1-yl]-5-(hydroxymethyl)oxolane-3,4-diol
> <PUBCHEM_IUPAC_TRADITIONAL_NAME>
(2R,3S,4S,5R)-2-(2,4-diaminopyrimidin-1-ium-1-yl)-5-methylol-tetrahydrofuran-3,4-diol
> <PUBCHEM_IUPAC_INCHI>
InChI=1S/C9H14N4O4/c10-5-1-2-13(9(11)12-5)8-7(16)6(15)4(3-14)17-8/h1-2,4,6-8,14-16H,3H2,(H3,10,11,12)/p+1/t4-,6-,7+,8-/m1/s1
> <PUBCHEM_IUPAC_INCHIKEY>
VLYWDCQADIEIBA-CCXZUQQUSA-O
> <PUBCHEM_XLOGP3>
-1.7
> <PUBCHEM_EXACT_MASS>
243.10932997
> <PUBCHEM_MOLECULAR_FORMULA>
C9H15N4O4+
> <PUBCHEM_MOLECULAR_WEIGHT>
243.24
> <PUBCHEM_OPENEYE_CAN_SMILES>
C1=C[N+](=C(N=C1N)N)C2C(C(C(O2)CO)O)O
> <PUBCHEM_OPENEYE_ISO_SMILES>
C1=C[N+](=C(N=C1N)N)[C@H]2[C@H]([C@@H]([C@H](O2)CO)O)O
> <PUBCHEM_CACTVS_TPSA>
139
> <PUBCHEM_MONOISOTOPIC_WEIGHT>
243.10932997
> <PUBCHEM_TOTAL_CHARGE>
1
> <PUBCHEM_HEAVY_ATOM_COUNT>
17
> <PUBCHEM_ATOM_DEF_STEREO_COUNT>
4
> <PUBCHEM_ATOM_UDEF_STEREO_COUNT>
0
> <PUBCHEM_BOND_DEF_STEREO_COUNT>
0
> <PUBCHEM_BOND_UDEF_STEREO_COUNT>
0
> <PUBCHEM_ISOTOPIC_ATOM_COUNT>
0
> <PUBCHEM_COMPONENT_COUNT>
1
> <PUBCHEM_CACTVS_TAUTO_COUNT>
-1
> <PUBCHEM_COORDINATE_TYPE>
1
5
255
> <PUBCHEM_BONDANNOTATIONS>
12  13  6
15  16  8
16  17  8
9  2  6
10  3  5
11  5  6
5  14  8
5  15  8
6  14  8
6  17  8
$$$$
