513031
  -OEChem-10302200282D
 38 40  0     1  0  0  0  0  0999 V2000
    2.0000   -1.0622    0.0000 Cl  0  0  0  0  0  0  0  0  0  0  0  0
    2.0000   -3.0622    0.0000 Cl  0  0  0  0  0  0  0  0  0  0  0  0
    7.1279   -2.0622    0.0000 S   0  0  0  0  0  0  0  0  0  0  0  0
    5.2686    0.5031    0.0000 O   0  0  0  0  0  0  0  0  0  0  0  0
    7.6146   -0.5888    0.0000 O   0  0  0  0  0  0  0  0  0  0  0  0
    7.6183    1.5868    0.0000 O   0  0  0  0  0  0  0  0  0  0  0  0
    4.5726    2.4722    0.0000 O   0  0  0  0  0  0  0  0  0  0  0  0
    7.1279   -3.0622    0.0000 O   0  0  0  0  0  0  0  0  0  0  0  0
    7.1279   -1.0622    0.0000 O   0  0  0  0  0  0  0  0  0  0  0  0
    5.5443   -1.2575    0.0000 N   0  0  0  0  0  0  0  0  0  0  0  0
    5.5443   -2.8670    0.0000 N   0  0  0  0  0  0  0  0  0  0  0  0
    5.8550   -0.3070    0.0000 C   0  0  1  0  0  0  0  0  0  0  0  0
    6.8066    0.0004    0.0000 C   0  0  1  0  0  0  0  0  0  0  0  0
    6.8083    1.0004    0.0000 C   0  0  1  0  0  0  0  0  0  0  0  0
    5.8578    1.3110    0.0000 C   0  0  1  0  0  0  0  0  0  0  0  0
    5.5504    2.2626    0.0000 C   0  0  0  0  0  0  0  0  0  0  0  0
    4.5981   -1.5622    0.0000 C   0  0  0  0  0  0  0  0  0  0  0  0
    6.1279   -2.0622    0.0000 C   0  0  0  0  0  0  0  0  0  0  0  0
    4.5981   -2.5622    0.0000 C   0  0  0  0  0  0  0  0  0  0  0  0
    3.7320   -1.0622    0.0000 C   0  0  0  0  0  0  0  0  0  0  0  0
    3.7320   -3.0622    0.0000 C   0  0  0  0  0  0  0  0  0  0  0  0
    8.1279   -2.0622    0.0000 C   0  0  0  0  0  0  0  0  0  0  0  0
    2.8660   -1.5622    0.0000 C   0  0  0  0  0  0  0  0  0  0  0  0
    2.8660   -2.5622    0.0000 C   0  0  0  0  0  0  0  0  0  0  0  0
    6.2926   -0.7461    0.0000 H   0  0  0  0  0  0  0  0  0  0  0  0
    7.3595    0.2809    0.0000 H   0  0  0  0  0  0  0  0  0  0  0  0
    6.7124    1.6129    0.0000 H   0  0  0  0  0  0  0  0  0  0  0  0
    5.2456    1.4091    0.0000 H   0  0  0  0  0  0  0  0  0  0  0  0
    6.1645    2.3479    0.0000 H   0  0  0  0  0  0  0  0  0  0  0  0
    5.5731    2.8822    0.0000 H   0  0  0  0  0  0  0  0  0  0  0  0
    8.1814   -0.3376    0.0000 H   0  0  0  0  0  0  0  0  0  0  0  0
    7.5546    2.2035    0.0000 H   0  0  0  0  0  0  0  0  0  0  0  0
    3.7320   -0.4422    0.0000 H   0  0  0  0  0  0  0  0  0  0  0  0
    3.7320   -3.6822    0.0000 H   0  0  0  0  0  0  0  0  0  0  0  0
    8.1279   -2.6822    0.0000 H   0  0  0  0  0  0  0  0  0  0  0  0
    8.7479   -2.0622    0.0000 H   0  0  0  0  0  0  0  0  0  0  0  0
    8.1279   -1.4422    0.0000 H   0  0  0  0  0  0  0  0  0  0  0  0
    4.3820    3.0622    0.0000 H   0  0  0  0  0  0  0  0  0  0  0  0
  1 23  1  0  0  0  0
  2 24  1  0  0  0  0
  3  8  2  0  0  0  0
  3  9  2  0  0  0  0
  3 18  1  0  0  0  0
  3 22  1  0  0  0  0
  4 12  1  0  0  0  0
  4 15  1  0  0  0  0
 13  5  1  1  0  0  0
  5 31  1  0  0  0  0
 14  6  1  1  0  0  0
  6 32  1  0  0  0  0
  7 16  1  0  0  0  0
  7 38  1  0  0  0  0
 12 10  1  6  0  0  0
 10 17  1  0  0  0  0
 10 18  1  0  0  0  0
 11 18  2  0  0  0  0
 11 19  1  0  0  0  0
 12 13  1  0  0  0  0
 12 25  1  0  0  0  0
 13 14  1  0  0  0  0
 13 26  1  0  0  0  0
 14 15  1  0  0  0  0
 14 27  1  0  0  0  0
 15 16  1  6  0  0  0
 15 28  1  0  0  0  0
 16 29  1  0  0  0  0
 16 30  1  0  0  0  0
 17 19  1  0  0  0  0
 17 20  2  0  0  0  0
 19 21  2  0  0  0  0
 20 23  1  0  0  0  0
 20 33  1  0  0  0  0
 21 24  1  0  0  0  0
 21 34  1  0  0  0  0
 22 35  1  0  0  0  0
 22 36  1  0  0  0  0
 22 37  1  0  0  0  0
 23 24  2  0  0  0  0
M  END
> <PUBCHEM_COMPOUND_CID>
513031
> <PUBCHEM_COMPOUND_CANONICALIZED>
1
> <PUBCHEM_CACTVS_COMPLEXITY>
575
> <PUBCHEM_CACTVS_HBOND_ACCEPTOR>
7
> <PUBCHEM_CACTVS_HBOND_DONOR>
3
> <PUBCHEM_CACTVS_ROTATABLE_BOND>
3
> <PUBCHEM_CACTVS_SUBSKEYS>
AAADccBzOABGAAAAAAAAAAAAAAAAAWJAAAAwAAAAAAAAAFgB8AAAHgYACAAACB7hliaz0LcMFgqgASRiZHCK0C1hF6AB2mA4dpiLeKLBmpGeYAhvgALbyCfwMAIAAABAAAIAACQAAIAABAAASAAAAAAAAA==
> <PUBCHEM_IUPAC_OPENEYE_NAME>
(2R,3R,4S,5R)-2-(5,6-dichloro-2-methylsulfonyl-benzimidazol-1-yl)-5-(hydroxymethyl)tetrahydrofuran-3,4-diol
> <PUBCHEM_IUPAC_CAS_NAME>
(2R,3R,4S,5R)-2-(5,6-dichloro-2-methylsulfonyl-1-benzimidazolyl)-5-(hydroxymethyl)oxolane-3,4-diol
> <PUBCHEM_IUPAC_NAME_MARKUP>
(2<I>R</I>,3<I>R</I>,4<I>S</I>,5<I>R</I>)-2-(5,6-dichloro-2-methylsulfonylbenzimidazol-1-yl)-5-(hydroxymethyl)oxolane-3,4-diol
> <PUBCHEM_IUPAC_NAME>
(2R,3R,4S,5R)-2-(5,6-dichloro-2-methylsulfonylbenzimidazol-1-yl)-5-(hydroxymethyl)oxolane-3,4-diol
> <PUBCHEM_IUPAC_SYSTEMATIC_NAME>
(2R,3R,4S,5R)-2-[5,6-bis(chloranyl)-2-methylsulfonyl-benzimidazol-1-yl]-5-(hydroxymethyl)oxolane-3,4-diol
> <PUBCHEM_IUPAC_TRADITIONAL_NAME>
(2R,3R,4S,5R)-2-(5,6-dichloro-2-mesyl-benzimidazol-1-yl)-5-methylol-tetrahydrofuran-3,4-diol
> <PUBCHEM_IUPAC_INCHI>
InChI=1S/C13H14Cl2N2O6S/c1-24(21,22)13-16-7-2-5(14)6(15)3-8(7)17(13)12-11(20)10(19)9(4-18)23-12/h2-3,9-12,18-20H,4H2,1H3/t9-,10-,11-,12-/m1/s1
> <PUBCHEM_IUPAC_INCHIKEY>
FGKVHIWRQYXTOC-DDHJBXDOSA-N
> <PUBCHEM_XLOGP3_AA>
0.7
> <PUBCHEM_EXACT_MASS>
395.9949627
> <PUBCHEM_MOLECULAR_FORMULA>
C13H14Cl2N2O6S
> <PUBCHEM_MOLECULAR_WEIGHT>
397.2
> <PUBCHEM_OPENEYE_CAN_SMILES>
CS(=O)(=O)C1=NC2=CC(=C(C=C2N1C3C(C(C(O3)CO)O)O)Cl)Cl
> <PUBCHEM_OPENEYE_ISO_SMILES>
CS(=O)(=O)C1=NC2=CC(=C(C=C2N1[C@H]3[C@@H]([C@@H]([C@H](O3)CO)O)O)Cl)Cl
> <PUBCHEM_CACTVS_TPSA>
130
> <PUBCHEM_MONOISOTOPIC_WEIGHT>
395.9949627
> <PUBCHEM_TOTAL_CHARGE>
0
> <PUBCHEM_HEAVY_ATOM_COUNT>
24
> <PUBCHEM_ATOM_DEF_STEREO_COUNT>
4
> <PUBCHEM_ATOM_UDEF_STEREO_COUNT>
0
> <PUBCHEM_BOND_DEF_STEREO_COUNT>
0
> <PUBCHEM_BOND_UDEF_STEREO_COUNT>
0
> <PUBCHEM_ISOTOPIC_ATOM_COUNT>
0
> <PUBCHEM_COMPONENT_COUNT>
1
> <PUBCHEM_CACTVS_TAUTO_COUNT>
-1
> <PUBCHEM_COORDINATE_TYPE>
1
5
255
> <PUBCHEM_BONDANNOTATIONS>
12  10  6
10  17  8
10  18  8
11  18  8
11  19  8
15  16  6
17  19  8
17  20  8
19  21  8
20  23  8
21  24  8
23  24  8
13  5  5
14  6  5
$$$$
